# Generated by pormake.
# Topology pth, (4,4)-cn, num edge types: 1
# Building blocks:
#     Node 0, Type 0, BuildingBlock: CEKHIL_clean_sbu_0, # of connection points: 4
#     Node 1, Type 0, BuildingBlock: CEKHIL_clean_sbu_0, # of connection points: 4
#     Node 2, Type 0, BuildingBlock: CEKHIL_clean_sbu_0, # of connection points: 4
#     Node 3, Type 1, BuildingBlock: KOZSID_clean_sbu_0, # of connection points: 4
#     Node 4, Type 1, BuildingBlock: KOZSID_clean_sbu_0, # of connection points: 4
#     Node 5, Type 1, BuildingBlock: KOZSID_clean_sbu_0, # of connection points: 4
#     Edge 6, Type (0, 1), BuildingBlock: UVAHIK_clean_linker_0, # of connection points: 2
#     Edge 7, Type (0, 1), BuildingBlock: UVAHIK_clean_linker_0, # of connection points: 2
#     Edge 8, Type (0, 1), BuildingBlock: UVAHIK_clean_linker_0, # of connection points: 2
#     Edge 9, Type (0, 1), BuildingBlock: UVAHIK_clean_linker_0, # of connection points: 2
#     Edge 10, Type (0, 1), BuildingBlock: UVAHIK_clean_linker_0, # of connection points: 2
#     Edge 11, Type (0, 1), BuildingBlock: UVAHIK_clean_linker_0, # of connection points: 2
#     Edge 12, Type (0, 1), BuildingBlock: UVAHIK_clean_linker_0, # of connection points: 2
#     Edge 13, Type (0, 1), BuildingBlock: UVAHIK_clean_linker_0, # of connection points: 2
#     Edge 14, Type (0, 1), BuildingBlock: UVAHIK_clean_linker_0, # of connection points: 2
#     Edge 15, Type (0, 1), BuildingBlock: UVAHIK_clean_linker_0, # of connection points: 2
#     Edge 16, Type (0, 1), BuildingBlock: UVAHIK_clean_linker_0, # of connection points: 2
#     Edge 17, Type (0, 1), BuildingBlock: UVAHIK_clean_linker_0, # of connection points: 2
# Relax obj value: 0.006
# Max RMSD: 0.053
# Mean RMSD: 0.039
data_MOF--net-pth--node1-CEKHIL_clean_sbu_0--node2-KOZSID_clean_sbu_0--edge1-UVAHIK_clean_linker_0
_symmetry_space_group_name_H-M    P1
_symmetry_Int_Tables_number       1
_symmetry_cell_setting            triclinic
loop_
_symmetry_equiv_pos_as_xyz
'x, y, z'
_cell_length_a     33.208411
_cell_length_b     33.311501
_cell_length_c     77.530012
_cell_angle_alpha  88.777305
_cell_angle_beta   87.794007
_cell_angle_gamma 120.34072
loop_
_atom_site_label
_atom_site_type_symbol
_atom_site_fract_x
_atom_site_fract_y
_atom_site_fract_z
_atom_type_partial_charge
Co0 Co 0.04449 0.04989 0.05475 0.0
O1 O 0.01343 0.00194 0.07277 0.0
O2 O 0.07351 0.01203 0.05595 0.0
C3 C 0.04998 0.10856 0.07046 0.0
O4 O 0.08714 0.09689 0.03551 0.0
Co5 Co 0.99671 0.102 0.04032 0.0
O6 O 0.05786 0.14214 0.0277 0.0
C7 C 0.96611 0.00685 0.02969 0.0
C8 C 0.04316 0.98883 0.0687 0.0
C9 C 0.08976 0.13156 0.02676 0.0
O10 O 0.99976 0.00737 0.03759 0.0
O11 O 0.95704 0.03988 0.03026 0.0
O12 O 0.08026 0.09501 0.07173 0.0
O13 O 0.01534 0.08368 0.06104 0.0
Co14 Co 0.02977 0.07754 0.37464 0.0
O15 O 0.99736 0.09556 0.35906 0.0
O16 O 0.05953 0.14478 0.37273 0.0
C17 C 0.03267 0.02501 0.35753 0.0
O18 O 0.07389 0.0721 0.39101 0.0
Co19 Co 0.98424 0.97652 0.39021 0.0
O20 O 0.04936 0.99609 0.39546 0.0
C21 C 0.95503 0.04022 0.4043 0.0
C22 C 0.02811 0.13838 0.36188 0.0
C23 C 0.08006 0.0389 0.39652 0.0
O24 O 0.98692 0.0741 0.39457 0.0
O25 O 0.94689 0.99837 0.40385 0.0
O26 O 0.06323 0.06907 0.35513 0.0
O27 O 0.99942 0.01467 0.36911 0.0
Co28 Co 0.03948 0.05089 0.70809 0.0
O29 O 0.08635 0.0785 0.68941 0.0
O30 O 0.07506 0.01936 0.70659 0.0
C31 C 0.98085 0.04688 0.69302 0.0
O32 O 0.993 0.01146 0.72797 0.0
Co33 Co 0.99171 0.10307 0.72286 0.0
O34 O 0.95068 0.04391 0.7364 0.0
C35 C 0.0889 0.13395 0.73061 0.0
C36 C 0.09808 0.04794 0.69344 0.0
C37 C 0.95958 0.01093 0.73717 0.0
O38 O 0.08469 0.0965 0.72445 0.0
O39 O 0.05735 0.1451 0.72963 0.0
O40 O 0.99196 0.01476 0.69188 0.0
O41 O 0.00761 0.0818 0.70201 0.0
C42 C 0.09348 0.65026 0.18742 0.0
C43 C 0.13682 0.68732 0.18159 0.0
C44 C 0.16936 0.68415 0.19077 0.0
C45 C 0.14425 0.64583 0.20176 0.0
N46 N 0.09753 0.62395 0.20009 0.0
Co47 Co 0.04805 0.56903 0.21455 0.0
N48 N 0.09616 0.56497 0.22821 0.0
C49 C 0.14314 0.59235 0.22601 0.0
C50 C 0.16725 0.58057 0.237 0.0
C51 C 0.13372 0.54304 0.24671 0.0
C52 C 0.09092 0.53403 0.24102 0.0
N53 N 0.99851 0.51505 0.22935 0.0
C54 C 0.00247 0.48967 0.2424 0.0
C55 C 0.95899 0.45501 0.24923 0.0
C56 C 0.92642 0.4586 0.24021 0.0
C57 C 0.95168 0.495 0.22841 0.0
N58 N 1.00001 0.57211 0.20054 0.0
C59 C 0.95317 0.54295 0.20208 0.0
C60 C 0.92919 0.55263 0.1903 0.0
C61 C 0.96262 0.59043 0.18068 0.0
C62 C 0.00525 0.60196 0.1873 0.0
N63 N 0.05078 0.52556 0.19803 0.0
C64 C 0.05488 0.46292 0.17508 0.0
C65 C 0.01219 0.4547 0.18247 0.0
C66 C 0.01095 0.48617 0.19378 0.0
C67 C 0.09547 0.50326 0.1793 0.0
C68 C 0.09265 0.53381 0.19068 0.0
N69 N 0.04532 0.61253 0.23106 0.0
C70 C 0.0013 0.64134 0.24669 0.0
C71 C 0.04186 0.67633 0.25353 0.0
C72 C 0.08407 0.67843 0.24914 0.0
C73 C 0.08502 0.64657 0.23795 0.0
C74 C 0.00376 0.60994 0.23565 0.0
H75 H 0.1184 0.65056 0.23496 0.0
H76 H 0.97156 0.58403 0.23094 0.0
H77 H 0.97733 0.4776 0.19903 0.0
H78 H 0.12486 0.56381 0.19337 0.0
C79 C 0.16354 0.62952 0.21376 0.0
C80 C 0.04948 0.64228 0.18085 0.0
C81 C 0.04639 0.49562 0.24819 0.0
C82 C 0.93255 0.50858 0.21539 0.0
H83 H 0.14429 0.71429 0.17186 0.0
H84 H 0.20686 0.70736 0.1897 0.0
H85 H 0.20474 0.59731 0.23785 0.0
H86 H 0.14005 0.52436 0.25683 0.0
H87 H 0.95148 0.42908 0.25942 0.0
H88 H 0.88882 0.43644 0.24173 0.0
H89 H 0.89178 0.53481 0.18905 0.0
H90 H 0.95624 0.60788 0.17012 0.0
H91 H 0.97976 0.42363 0.17981 0.0
H92 H 0.12938 0.51157 0.17374 0.0
H93 H 0.96764 0.63793 0.24992 0.0
H94 H 0.11653 0.70523 0.25399 0.0
C95 C 0.45269 0.01344 0.57318 0.0
C96 C 0.41862 0.96833 0.57854 0.0
C97 C 0.42575 0.93917 0.56848 0.0
C98 C 0.46351 0.96788 0.55757 0.0
N99 N 0.48098 0.01374 0.56001 0.0
Co100 Co 0.5363 0.06723 0.54706 0.0
N101 N 0.54451 0.02419 0.53154 0.0
C102 C 0.51597 0.97758 0.53105 0.0
C103 C 0.52953 0.95756 0.5186 0.0
C104 C 0.56941 0.99347 0.51077 0.0
C105 C 0.57817 0.0334 0.51908 0.0
N106 N 0.5932 0.12048 0.53472 0.0
C107 C 0.62408 0.12027 0.52277 0.0
C108 C 0.66139 0.16488 0.51881 0.0
C109 C 0.65383 0.1943 0.52855 0.0
C110 C 0.61281 0.16612 0.538 0.0
N111 N 0.52659 0.11042 0.562 0.0
C112 C 0.552 0.1575 0.56115 0.0
C113 C 0.53657 0.17788 0.57276 0.0
C114 C 0.4986 0.1417 0.58143 0.0
C115 C 0.49298 0.10115 0.57453 0.0
N116 N 0.5775 0.06263 0.56392 0.0
C117 C 0.63891 0.05716 0.58684 0.0
C118 C 0.63639 0.0977 0.58489 0.0
C119 C 0.60613 0.09981 0.57337 0.0
C120 C 0.60933 0.01914 0.57727 0.0
C121 C 0.57886 0.02242 0.56616 0.0
N122 N 0.49509 0.0718 0.53013 0.0
C123 C 0.47615 0.11761 0.51097 0.0
C124 C 0.43671 0.07752 0.50582 0.0
C125 C 0.42682 0.03467 0.51324 0.0
C126 C 0.45614 0.03262 0.52519 0.0
C127 C 0.50459 0.11399 0.52305 0.0
H128 H 0.44633 0.9988 0.53026 0.0
H129 H 0.53409 0.14584 0.52641 0.0
H130 H 0.60676 0.13206 0.57228 0.0
H131 H 0.55709 0.99203 0.55939 0.0
C132 C 0.48006 0.9531 0.54372 0.0
C133 C 0.45523 0.05477 0.58036 0.0
C134 C 0.62024 0.07863 0.51534 0.0
C135 C 0.59194 0.18137 0.55009 0.0
H136 H 0.39069 0.95748 0.58839 0.0
H137 H 0.40488 0.90155 0.5687 0.0
H138 H 0.51333 0.921 0.51596 0.0
H139 H 0.5904 0.9904 0.50043 0.0
H140 H 0.69145 0.17521 0.51003 0.0
H141 H 0.67604 0.2317 0.52893 0.0
H142 H 0.55151 0.21463 0.57483 0.0
H143 H 0.47757 0.14484 0.59173 0.0
H144 H 0.65757 0.12791 0.59223 0.0
H145 H 0.61007 0.98704 0.57802 0.0
H146 H 0.48553 0.15166 0.50556 0.0
H147 H 0.39614 0.0026 0.51001 0.0
C148 C 0.63988 0.58149 0.85488 0.0
C149 C 0.67732 0.5768 0.84905 0.0
C150 C 0.67241 0.53805 0.85743 0.0
C151 C 0.63275 0.52158 0.86799 0.0
N152 N 0.61161 0.54711 0.86677 0.0
Co153 Co 0.55563 0.53789 0.88114 0.0
N154 N 0.55005 0.48236 0.89416 0.0
C155 C 0.57711 0.46315 0.89156 0.0
C156 C 0.56318 0.42348 0.90158 0.0
C157 C 0.52455 0.41652 0.91106 0.0
C158 C 0.51735 0.45279 0.90636 0.0
N159 N 0.50063 0.52971 0.89583 0.0
C160 C 0.47425 0.49726 0.90853 0.0
C161 C 0.44067 0.50565 0.91603 0.0
C162 C 0.44509 0.54391 0.90743 0.0
C163 C 0.48128 0.55702 0.89537 0.0
N164 N 0.56024 0.59251 0.86782 0.0
C165 C 0.53091 0.60945 0.86945 0.0
C166 C 0.54191 0.64616 0.85815 0.0
C167 C 0.58089 0.6535 0.84883 0.0
C168 C 0.59178 0.621 0.85515 0.0
N169 N 0.51304 0.49567 0.864 0.0
C170 C 0.45221 0.43619 0.83964 0.0
C171 C 0.44311 0.46756 0.84817 0.0
C172 C 0.47368 0.49671 0.8601 0.0
C173 C 0.49223 0.43488 0.84366 0.0
C174 C 0.52185 0.4646 0.8558 0.0
N175 N 0.59824 0.5802 0.8982 0.0
C176 C 0.62541 0.64889 0.91484 0.0
C177 C 0.66203 0.64409 0.92078 0.0
C178 C 0.66527 0.60581 0.9156 0.0
C179 C 0.63314 0.57444 0.90446 0.0
C180 C 0.59441 0.61705 0.90364 0.0
H181 H 0.63766 0.54619 0.9009 0.0
H182 H 0.56793 0.62334 0.89941 0.0
H183 H 0.46446 0.51962 0.86605 0.0
H184 H 0.55166 0.46179 0.8583 0.0
C185 C 0.61505 0.48288 0.87947 0.0
C186 C 0.63346 0.6199 0.84917 0.0
C187 C 0.47818 0.45683 0.91342 0.0
C188 C 0.49568 0.59263 0.88264 0.0
H189 H 0.70582 0.59938 0.83992 0.0
H190 H 0.69553 0.52409 0.85622 0.0
H191 H 0.5788 0.40177 0.90177 0.0
H192 H 0.50373 0.38753 0.92018 0.0
H193 H 0.41498 0.48563 0.92642 0.0
H194 H 0.42375 0.55965 0.90946 0.0
H195 H 0.52439 0.666 0.85711 0.0
H196 H 0.5997 0.68037 0.83874 0.0
H197 H 0.41209 0.46935 0.84585 0.0
H198 H 0.5011 0.41146 0.83735 0.0
H199 H 0.62051 0.67721 0.91878 0.0
H200 H 0.6931 0.60054 0.91974 0.0
C201 C 0.09084 0.17319 0.09054 0.0
C202 C 0.05398 0.14867 0.07968 0.0
C203 C 0.09325 0.20949 0.10003 0.0
C204 C 0.0495 0.29179 0.10267 0.0
H205 H 0.07919 0.29565 0.15071 0.0
C206 C 0.02312 0.4073 0.1511 0.0
C207 C 0.05705 0.42933 0.16329 0.0
C208 C 0.02452 0.37486 0.14032 0.0
C209 C 0.07147 0.29551 0.13726 0.0
H210 H 0.99132 0.14358 0.06993 0.0
H211 H 0.99537 0.20678 0.08656 0.0
H212 H 0.07894 0.23639 0.13279 0.0
H213 H 0.11912 0.4344 0.17367 0.0
H214 H 0.12213 0.3786 0.15465 0.0
H215 H 0.04182 0.35084 0.10719 0.0
C216 C 0.02262 0.19822 0.08765 0.0
C217 C 0.07133 0.26151 0.12698 0.0
C218 C 0.02016 0.16185 0.07819 0.0
C219 C 0.09269 0.41846 0.16432 0.0
C220 C 0.0941 0.38603 0.15355 0.0
C221 C 0.04972 0.32589 0.11295 0.0
C222 C 0.05892 0.22212 0.09883 0.0
C223 C 0.0602 0.25914 0.10958 0.0
C224 C 0.05988 0.36363 0.14148 0.0
C225 C 0.06057 0.32806 0.13039 0.0
H226 H 0.11755 0.16397 0.09191 0.0
H227 H 0.12204 0.22765 0.10832 0.0
H228 H 0.04138 0.29129 0.08925 0.0
H229 H 0.99549 0.41525 0.14982 0.0
H230 H 0.99736 0.35794 0.1313 0.0
C231 C 0.91713 0.08606 0.41316 0.0
C232 C 0.92572 0.04953 0.41654 0.0
C233 C 0.8866 0.09239 0.42421 0.0
C234 C 0.79124 0.02792 0.45843 0.0
H235 H 0.8079 0.14993 0.46614 0.0
C236 C 0.68223 0.05786 0.51055 0.0
C237 C 0.65978 0.08127 0.50469 0.0
C238 C 0.71682 0.0568 0.50008 0.0
C239 C 0.80285 0.11568 0.46402 0.0
H240 H 0.91112 0.99258 0.43459 0.0
H241 H 0.85991 0.00479 0.45419 0.0
H242 H 0.8653 0.14312 0.44764 0.0
H243 H 0.65586 0.12232 0.48352 0.0
H244 H 0.71772 0.12172 0.46528 0.0
H245 H 0.72949 0.00077 0.4752 0.0
C246 C 0.8749 0.02745 0.44268 0.0
C247 C 0.83554 0.11165 0.45336 0.0
C248 C 0.90462 0.02061 0.43149 0.0
C249 C 0.67321 0.10457 0.48835 0.0
C250 C 0.70844 0.10419 0.47797 0.0
C251 C 0.75913 0.03205 0.46928 0.0
C252 C 0.86463 0.06279 0.43903 0.0
C253 C 0.83019 0.06766 0.45043 0.0
C254 C 0.73001 0.07965 0.48364 0.0
C255 C 0.76459 0.07591 0.47218 0.0
H256 H 0.93275 0.10879 0.40168 0.0
H257 H 0.87927 0.11966 0.42082 0.0
H258 H 0.78501 0.99333 0.45616 0.0
H259 H 0.67226 0.0396 0.52311 0.0
H260 H 0.73312 0.03787 0.50478 0.0
C261 C 0.92166 0.92581 0.74563 0.0
C262 C 0.92979 0.9704 0.74916 0.0
C263 C 0.89096 0.88721 0.75647 0.0
C264 C 0.79548 0.85052 0.79101 0.0
H265 H 0.81341 0.74501 0.7977 0.0
C266 C 0.69337 0.70431 0.84383 0.0
C267 C 0.66998 0.65903 0.83781 0.0
C268 C 0.72599 0.74168 0.83298 0.0
C269 C 0.808 0.77424 0.79587 0.0
H270 H 0.91391 0.00993 0.76721 0.0
H271 H 0.86259 0.94354 0.78653 0.0
H272 H 0.8698 0.812 0.77924 0.0
H273 H 0.66213 0.61699 0.81589 0.0
H274 H 0.72081 0.68239 0.79702 0.0
H275 H 0.73457 0.81314 0.8082 0.0
C276 C 0.87801 0.93757 0.77504 0.0
C277 C 0.8401 0.81257 0.78521 0.0
C278 C 0.90784 0.97587 0.76402 0.0
C279 C 0.68023 0.65158 0.82085 0.0
C280 C 0.71363 0.68885 0.8101 0.0
C281 C 0.76403 0.81267 0.80191 0.0
C282 C 0.86837 0.89248 0.77128 0.0
C283 C 0.83432 0.85135 0.78263 0.0
C284 C 0.73641 0.73428 0.81603 0.0
C285 C 0.76996 0.7742 0.80443 0.0
H286 H 0.93788 0.92051 0.73419 0.0
H287 H 0.88411 0.85314 0.75295 0.0
H288 H 0.78885 0.87888 0.78905 0.0
H289 H 0.6859 0.71078 0.85687 0.0
H290 H 0.74325 0.77638 0.83785 0.0
C291 C 0.01498 0.93203 0.09402 0.0
C292 C 0.04296 0.95027 0.07862 0.0
C293 C 0.01535 0.89668 0.10387 0.0
C294 C 0.08562 0.84024 0.11114 0.0
H295 H 0.97203 0.7481 0.13671 0.0
C296 C 0.06924 0.68259 0.15137 0.0
C297 C 0.04926 0.6764 0.16821 0.0
C298 C 0.06863 0.71458 0.13954 0.0
C299 C 0.00404 0.77371 0.12969 0.0
H300 H 0.09285 0.94524 0.0613 0.0
H301 H 0.09258 0.88235 0.07828 0.0
H302 H 0.96995 0.80514 0.11716 0.0
H303 H 0.0127 0.69799 0.18595 0.0
H304 H 0.01066 0.7533 0.16516 0.0
H305 H 0.11933 0.8079 0.12361 0.0
C306 C 0.07105 0.89612 0.08295 0.0
C307 C 0.00297 0.80659 0.11852 0.0
C308 C 0.07102 0.93197 0.07316 0.0
C309 C 0.02825 0.70226 0.173 0.0
C310 C 0.02699 0.73367 0.16112 0.0
C311 C 0.08651 0.80688 0.12217 0.0
C312 C 0.0433 0.87812 0.09849 0.0
C313 C 0.04391 0.84088 0.10933 0.0
C314 C 0.04723 0.74022 0.14427 0.0
C315 C 0.04588 0.77379 0.13176 0.0
H316 H 0.99324 0.94561 0.09869 0.0
H317 H 0.99431 0.88461 0.11592 0.0
H318 H 0.11796 0.86635 0.10447 0.0
H319 H 0.08528 0.66264 0.14741 0.0
H320 H 0.08419 0.71872 0.12661 0.0
C321 C 0.13714 0.01664 0.40625 0.0
C322 C 0.12305 0.04988 0.40532 0.0
C323 C 0.17461 0.02406 0.41594 0.0
C324 C 0.27636 0.11286 0.43861 0.0
H325 H 0.25781 0.00341 0.46457 0.0
C326 C 0.39451 0.11536 0.49304 0.0
C327 C 0.40575 0.07987 0.49293 0.0
C328 C 0.36287 0.1154 0.48159 0.0
C329 C 0.26375 0.03423 0.45729 0.0
H330 H 0.13851 0.11796 0.41328 0.0
H331 H 0.20362 0.13057 0.43067 0.0
H332 H 0.1977 0.9971 0.44609 0.0
H333 H 0.39455 0.01825 0.47995 0.0
H334 H 0.33905 0.01797 0.46029 0.0
H335 H 0.34238 0.14999 0.45029 0.0
C336 C 0.18595 0.09895 0.42368 0.0
C337 C 0.22933 0.03063 0.44662 0.0
C338 C 0.14859 0.09171 0.41375 0.0
C339 C 0.38583 0.04542 0.48072 0.0
C340 C 0.35411 0.04532 0.4694 0.0
C341 C 0.31081 0.11654 0.44946 0.0
C342 C 0.1987 0.06466 0.4252 0.0
C343 C 0.23535 0.06968 0.43694 0.0
C344 C 0.34167 0.07982 0.46989 0.0
C345 C 0.30504 0.07706 0.45873 0.0
H346 H 0.11874 0.98438 0.39965 0.0
H347 H 0.18428 0.99751 0.41636 0.0
H348 H 0.28228 0.1436 0.43129 0.0
H349 H 0.40892 0.14224 0.50234 0.0
H350 H 0.35374 0.1423 0.48232 0.0
C351 C 0.15895 0.14892 0.74692 0.0
C352 C 0.13114 0.16516 0.73985 0.0
C353 C 0.19638 0.17777 0.7569 0.0
C354 C 0.23845 0.28353 0.78235 0.0
H355 H 0.35432 0.28171 0.78203 0.0
C356 C 0.39798 0.4214 0.81578 0.0
C357 C 0.4198 0.40509 0.82682 0.0
C358 C 0.36508 0.39164 0.80457 0.0
C359 C 0.32198 0.2823 0.78231 0.0
H360 H 0.12256 0.22528 0.73686 0.0
H361 H 0.18825 0.2757 0.75364 0.0
H362 H 0.29285 0.23091 0.76324 0.0
H363 H 0.4249 0.3447 0.83427 0.0
H364 H 0.36785 0.29288 0.81438 0.0
H365 H 0.26774 0.33531 0.80117 0.0
C366 C 0.18035 0.24025 0.7521 0.0
C367 C 0.28672 0.25315 0.77159 0.0
C368 C 0.14276 0.21137 0.74235 0.0
C369 C 0.40912 0.35859 0.82586 0.0
C370 C 0.37638 0.32884 0.8145 0.0
C371 C 0.27374 0.31286 0.79288 0.0
C372 C 0.20703 0.22359 0.75985 0.0
C373 C 0.24461 0.25368 0.77139 0.0
C374 C 0.35343 0.34489 0.80397 0.0
C375 C 0.31599 0.31282 0.7929 0.0
H376 H 0.15086 0.11345 0.74525 0.0
H377 H 0.21596 0.16364 0.76274 0.0
H378 H 0.20608 0.28404 0.78294 0.0
H379 H 0.40616 0.45726 0.81582 0.0
H380 H 0.34857 0.4052 0.79637 0.0
C381 C 0.90767 0.00377 0.67706 0.0
C382 C 0.94244 0.0455 0.68359 0.0
C383 C 0.8728 0.00335 0.66735 0.0
C384 C 0.85297 0.07546 0.63773 0.0
H385 H 0.72063 0.99607 0.64985 0.0
C386 C 0.71617 0.0947 0.60084 0.0
C387 C 0.67257 0.05486 0.59849 0.0
C388 C 0.74791 0.09263 0.6116 0.0
C389 C 0.75737 0.0179 0.64605 0.0
H390 H 0.96784 0.11934 0.68523 0.0
H391 H 0.90773 0.11875 0.66781 0.0
H392 H 0.77776 0.99285 0.66787 0.0
H393 H 0.62841 0.98146 0.60601 0.0
H394 H 0.68474 0.9772 0.6238 0.0
H395 H 0.83341 0.09938 0.61561 0.0
C396 C 0.90723 0.0864 0.67039 0.0
C397 C 0.79001 0.01618 0.65647 0.0
C398 C 0.94143 0.08665 0.68039 0.0
C399 C 0.66182 0.0128 0.6072 0.0
C400 C 0.69398 0.01053 0.61772 0.0
C401 C 0.82046 0.07652 0.62712 0.0
C402 C 0.87282 0.04484 0.66371 0.0
C403 C 0.83804 0.04531 0.65248 0.0
C404 C 0.73753 0.05043 0.62008 0.0
C405 C 0.77213 0.04816 0.63121 0.0
H406 H 0.9076 0.97155 0.67938 0.0
H407 H 0.84661 0.97092 0.66227 0.0
H408 H 0.88991 0.09784 0.6343 0.0
H409 H 0.72632 0.12763 0.59419 0.0
H410 H 0.78058 0.12441 0.6133 0.0
C411 C 0.91061 0.97172 0.00618 0.0
C412 C 0.93728 0.96709 0.0189 0.0
C413 C 0.88425 0.93507 0.99562 0.0
C414 C 0.82372 0.80914 0.9932 0.0
H415 H 0.83245 0.836 0.94384 0.0
C416 C 0.71569 0.66637 0.94547 0.0
C417 C 0.69694 0.67943 0.93195 0.0
C418 C 0.74809 0.69991 0.95599 0.0
C419 C 0.82913 0.82791 0.95761 0.0
H420 H 0.95648 0.91986 0.03064 0.0
H421 H 0.90934 0.85518 0.01226 0.0
H422 H 0.88262 0.89723 0.96259 0.0
H423 H 0.69869 0.73842 0.9187 0.0
H424 H 0.7532 0.79617 0.93734 0.0
H425 H 0.76898 0.74029 0.98835 0.0
C426 C 0.90937 0.88754 0.01049 0.0
C427 C 0.85809 0.86299 0.96832 0.0
C428 C 0.93644 0.92458 0.02093 0.0
C429 C 0.71168 0.72684 0.92915 0.0
C430 C 0.74369 0.7602 0.9397 0.0
C431 C 0.79426 0.77407 0.98249 0.0
C432 C 0.88338 0.89266 0.99763 0.0
C433 C 0.85521 0.85418 0.98624 0.0
C434 C 0.76242 0.74728 0.95325 0.0
C435 C 0.79607 0.78325 0.96457 0.0
H436 H 0.91052 0.00396 0.0042 0.0
H437 H 0.86413 0.93978 0.98594 0.0
H438 H 0.82064 0.80153 0.00701 0.0
H439 H 0.70488 0.63016 0.94811 0.0
H440 H 0.76208 0.68869 0.96619 0.0
C441 C 0.06943 0.00182 0.33399 0.0
C442 C 0.03574 0.98903 0.34771 0.0
C443 C 0.07108 0.96781 0.32423 0.0
C444 C 0.03544 0.84348 0.3251 0.0
H445 H 0.04807 0.86138 0.27516 0.0
C446 C 0.06623 0.72435 0.27977 0.0
C447 C 0.04037 0.71093 0.2649 0.0
C448 C 0.06564 0.75775 0.29023 0.0
C449 C 0.04429 0.85578 0.28908 0.0
H450 H 0.97795 0.93061 0.36222 0.0
H451 H 0.98093 0.87121 0.34522 0.0
H452 H 0.04764 0.92084 0.29289 0.0
H453 H 0.99378 0.72213 0.24932 0.0
H454 H 0.99257 0.78027 0.26763 0.0
H455 H 0.03168 0.77818 0.32126 0.0
C456 C 0.00615 0.90751 0.34203 0.0
C457 C 0.04455 0.89005 0.29924 0.0
C458 C 0.00429 0.94154 0.3517 0.0
C459 C 0.01374 0.73145 0.26077 0.0
C460 C 0.01343 0.76508 0.27116 0.0
C461 C 0.03555 0.80935 0.31494 0.0
C462 C 0.03928 0.92029 0.32809 0.0
C463 C 0.03997 0.88422 0.31736 0.0
C464 C 0.03948 0.7787 0.28597 0.0
C465 C 0.03977 0.81505 0.29681 0.0
H466 H 0.0942 0.03815 0.33063 0.0
H467 H 0.09735 0.9787 0.31369 0.0
H468 H 0.03219 0.83817 0.33903 0.0
H469 H 0.08678 0.70887 0.28337 0.0
H470 H 0.08632 0.76776 0.3015 0.0
C471 C 0.15375 0.01827 0.68866 0.0
C472 C 0.13475 0.04523 0.68296 0.0
C473 C 0.18792 0.01569 0.67833 0.0
C474 C 0.23026 0.02702 0.6332 0.0
H475 H 0.34854 0.05423 0.65099 0.0
C476 C 0.38703 0.06497 0.58756 0.0
C477 C 0.41745 0.04994 0.59268 0.0
C478 C 0.35178 0.06116 0.59908 0.0
C479 C 0.31542 0.04572 0.64586 0.0
H480 H 0.13659 0.09052 0.66202 0.0
H481 H 0.19531 0.08535 0.64402 0.0
H482 H 0.28777 0.05215 0.67047 0.0
H483 H 0.43547 0.01929 0.61369 0.0
H484 H 0.37276 0.01106 0.63382 0.0
H485 H 0.25712 0.02001 0.60869 0.0
C486 C 0.18397 0.06632 0.65643 0.0
C487 C 0.2807 0.04465 0.65703 0.0
C488 C 0.15052 0.06947 0.6668 0.0
C489 C 0.41214 0.03094 0.60951 0.0
C490 C 0.37651 0.02664 0.62103 0.0
C491 C 0.26462 0.02751 0.62209 0.0
C492 C 0.20293 0.03933 0.66204 0.0
C493 C 0.23816 0.03619 0.65072 0.0
C494 C 0.34583 0.04172 0.61596 0.0
C495 C 0.30806 0.03781 0.62817 0.0
H496 H 0.14229 0.99929 0.70107 0.0
H497 H 0.20198 0.99458 0.68293 0.0
H498 H 0.19746 0.01969 0.62805 0.0
H499 H 0.39081 0.07997 0.57464 0.0
H500 H 0.32961 0.07411 0.5948 0.0
C501 C 0.12599 0.18208 0.99997 0.0
C502 C 0.13093 0.16043 0.01481 0.0
C503 C 0.16469 0.21145 0.98898 0.0
C504 C 0.29002 0.24913 0.97844 0.0
H505 H 0.28909 0.35412 0.95625 0.0
C506 C 0.44963 0.40877 0.94143 0.0
C507 C 0.44054 0.41879 0.92482 0.0
C508 C 0.4133 0.37494 0.95245 0.0
C509 C 0.28969 0.32482 0.96231 0.0
H510 H 0.18023 0.15197 0.02969 0.0
H511 H 0.24858 0.20508 0.01088 0.0
H512 H 0.22373 0.30056 0.97578 0.0
H513 H 0.38705 0.40151 0.90659 0.0
H514 H 0.32316 0.34336 0.92606 0.0
H515 H 0.35739 0.2753 0.96527 0.0
C516 C 0.21453 0.19842 0.00744 0.0
C517 C 0.25206 0.29379 0.97342 0.0
C518 C 0.17542 0.16811 0.01829 0.0
C519 C 0.39476 0.39426 0.91935 0.0
C520 C 0.35837 0.36119 0.93046 0.0
C521 C 0.3282 0.28085 0.96753 0.0
C522 C 0.20974 0.22097 0.99273 0.0
C523 C 0.25122 0.25501 0.98145 0.0
C524 C 0.36724 0.35147 0.94714 0.0
C525 C 0.32799 0.31857 0.9592 0.0
H526 H 0.09199 0.17622 0.99679 0.0
H527 H 0.15908 0.22672 0.97752 0.0
H528 H 0.29061 0.21956 0.9842 0.0
H529 H 0.48466 0.42768 0.94595 0.0
H530 H 0.42089 0.36825 0.9653 0.0
C531 C 0.06608 0.22332 0.35295 0.0
C532 C 0.02843 0.1775 0.35232 0.0
C533 C 0.06789 0.25926 0.34259 0.0
C534 C 0.02132 0.27721 0.30242 0.0
H535 H 0.06856 0.40235 0.31789 0.0
C536 C 0.03218 0.45939 0.27814 0.0
C537 C 0.04589 0.46094 0.26069 0.0
C538 C 0.03101 0.4261 0.2898 0.0
C539 C 0.05497 0.36749 0.31341 0.0
H540 H 0.96218 0.13384 0.34094 0.0
H541 H 0.96491 0.19636 0.32321 0.0
H542 H 0.0629 0.34174 0.33787 0.0
H543 H 0.07004 0.43027 0.24164 0.0
H544 H 0.06875 0.37237 0.26197 0.0
H545 H 0.01243 0.30245 0.27813 0.0
C546 C 0.99362 0.20451 0.33135 0.0
C547 C 0.0522 0.33288 0.32481 0.0
C548 C 0.99191 0.16868 0.34161 0.0
C549 C 0.0591 0.42933 0.25506 0.0
C550 C 0.05805 0.39613 0.26669 0.0
C551 C 0.02407 0.31172 0.29106 0.0
C552 C 0.03203 0.25009 0.33144 0.0
C553 C 0.0352 0.28726 0.31946 0.0
C554 C 0.04365 0.39384 0.28418 0.0
C555 C 0.04096 0.35731 0.29639 0.0
H556 H 0.0948 0.23118 0.36104 0.0
H557 H 0.09813 0.2939 0.34291 0.0
H558 H 0.00869 0.24266 0.29776 0.0
H559 H 0.02198 0.48368 0.28269 0.0
H560 H 0.0193 0.42504 0.30312 0.0
loop_
_geom_bond_atom_site_label_1
_geom_bond_atom_site_label_2
_geom_bond_distance
_geom_bond_site_symmetry_2
_ccdc_geom_bond_type
Co0 O1 2.216 1_545 S
Co0 O2 2.091 . S
Co0 O4 2.004 . S
Co0 O10 2.021 . S
Co0 O12 2.137 . S
Co0 O13 2.244 . S
O1 Co0 2.216 1_565 S
O1 C8 1.247 . S
O2 Co0 2.091 . S
O2 C8 1.261 1_545 S
C3 O12 1.247 . S
C3 O13 1.272 . S
O4 Co0 2.004 . S
O4 C9 1.259 . S
Co5 O6 2.061 . S
Co5 O11 2.052 1_455 S
Co5 O13 2.135 . S
O6 Co5 2.061 . S
O6 C9 1.235 . S
C7 O10 1.238 1_655 S
C7 O11 1.241 . S
C8 O1 1.247 . S
C8 O2 1.261 1_565 S
C9 O4 1.259 . S
C9 O6 1.235 . S
O10 Co0 2.021 . S
O10 C7 1.238 1_455 S
O11 Co5 2.052 1_655 S
O11 C7 1.241 . S
O12 Co0 2.137 . S
O12 C3 1.247 . S
O13 Co0 2.244 . S
O13 C3 1.272 . S
O13 Co5 2.135 . S
Co14 O15 2.216 . S
Co14 O16 2.091 . S
Co14 O18 2.004 . S
Co14 O24 2.021 . S
Co14 O26 2.137 . S
Co14 O27 2.244 . S
O15 Co14 2.216 . S
O15 C22 1.247 . S
O16 Co14 2.091 . S
O16 C22 1.261 . S
C17 O26 1.247 . S
C17 O27 1.272 . S
O18 Co14 2.004 . S
O18 C23 1.259 . S
Co19 O20 2.061 1_665 S
Co19 O25 2.052 1_565 S
Co19 O27 2.135 1_665 S
O20 Co19 2.061 1_445 S
O20 C23 1.235 . S
C21 O24 1.238 1_655 S
C21 O25 1.241 . S
C22 O15 1.247 . S
C22 O16 1.261 . S
C23 O18 1.259 . S
C23 O20 1.235 . S
O24 Co14 2.021 . S
O24 C21 1.238 1_455 S
O25 Co19 2.052 1_545 S
O25 C21 1.241 . S
O26 Co14 2.137 . S
O26 C17 1.247 . S
O27 Co14 2.244 . S
O27 C17 1.272 . S
O27 Co19 2.135 1_445 S
Co28 O29 2.216 . S
Co28 O30 2.091 . S
Co28 O32 2.004 1_545 S
Co28 O38 2.021 . S
Co28 O40 2.137 . S
Co28 O41 2.244 . S
O29 Co28 2.216 . S
O29 C36 1.247 . S
O30 Co28 2.091 . S
O30 C36 1.261 . S
C31 O40 1.247 1_655 S
C31 O41 1.272 1_655 S
O32 Co28 2.004 1_565 S
O32 C37 1.259 1_455 S
Co33 O34 2.061 . S
Co33 O39 2.052 1_655 S
Co33 O41 2.135 1_655 S
O34 Co33 2.061 . S
O34 C37 1.235 1_545 S
C35 O38 1.238 . S
C35 O39 1.241 . S
C36 O29 1.247 . S
C36 O30 1.261 . S
C37 O32 1.259 1_655 S
C37 O34 1.235 1_565 S
O38 Co28 2.021 . S
O38 C35 1.238 . S
O39 Co33 2.052 1_455 S
O39 C35 1.241 . S
O40 Co28 2.137 . S
O40 C31 1.247 1_455 S
O41 Co28 2.244 . S
O41 C31 1.272 1_455 S
O41 Co33 2.135 1_455 S
C42 C43 1.443 . S
C42 N46 1.376 . S
C42 C80 1.389 . S
C43 C42 1.443 . S
C43 C44 1.340 . S
C43 H83 0.951 . S
C44 C43 1.340 . S
C44 C45 1.439 . S
C44 H84 0.950 . S
C45 C44 1.439 . S
C45 N46 1.374 . S
C45 C79 1.395 . S
N46 C42 1.376 . S
N46 C45 1.374 . S
N46 Co47 2.008 . S
Co47 N46 2.008 . S
Co47 N48 1.995 . S
Co47 N53 2.008 1_455 S
Co47 N58 1.995 1_455 S
Co47 N63 2.282 . S
Co47 N69 2.282 . S
N48 Co47 1.995 . S
N48 C49 1.376 . S
N48 C52 1.383 . S
C49 N48 1.376 . S
C49 C50 1.446 . S
C49 C79 1.391 . S
C50 C49 1.446 . S
C50 C51 1.339 . S
C50 H85 0.949 . S
C51 C50 1.339 . S
C51 C52 1.439 . S
C51 H86 0.950 . S
C52 N48 1.383 . S
C52 C51 1.439 . S
C52 C81 1.392 . S
N53 Co47 2.008 1_655 S
N53 C54 1.376 . S
N53 C57 1.374 . S
C54 N53 1.376 . S
C54 C55 1.443 . S
C54 C81 1.389 1_655 S
C55 C54 1.443 . S
C55 C56 1.340 . S
C55 H87 0.951 . S
C56 C55 1.340 . S
C56 C57 1.439 . S
C56 H88 0.950 . S
C57 N53 1.374 . S
C57 C56 1.439 . S
C57 C82 1.395 . S
N58 Co47 1.995 1_655 S
N58 C59 1.376 . S
N58 C62 1.383 . S
C59 N58 1.376 . S
C59 C60 1.446 . S
C59 C82 1.391 . S
C60 C59 1.446 . S
C60 C61 1.339 . S
C60 H89 0.949 . S
C61 C60 1.339 . S
C61 C62 1.439 . S
C61 H90 0.950 . S
C62 N58 1.383 . S
C62 C61 1.439 . S
C62 C80 1.392 1_655 S
N63 Co47 2.282 . S
N63 C66 1.332 1_455 S
N63 C68 1.332 . S
C64 C65 1.386 1_455 S
C64 C67 1.388 . S
C65 C64 1.386 1_655 S
C65 C66 1.382 . S
C65 H91 0.950 . S
C66 N63 1.332 1_655 S
C66 C65 1.382 . S
C66 H77 0.952 . S
C67 C64 1.388 . S
C67 C68 1.382 . S
C67 H92 0.950 . S
C68 N63 1.332 . S
C68 C67 1.382 . S
C68 H78 0.948 . S
N69 Co47 2.282 . S
N69 C73 1.332 . S
N69 C74 1.332 1_455 S
C70 C71 1.388 1_655 S
C70 C74 1.382 . S
C70 H93 0.950 . S
C71 C70 1.388 1_455 S
C71 C72 1.386 . S
C72 C71 1.386 . S
C72 C73 1.382 . S
C72 H94 0.950 . S
C73 N69 1.332 . S
C73 C72 1.382 . S
C73 H75 0.952 . S
C74 N69 1.332 1_655 S
C74 C70 1.382 . S
C74 H76 0.948 . S
H75 C73 0.952 . S
H76 C74 0.948 . S
H77 C66 0.952 . S
H78 C68 0.948 . S
C79 C45 1.395 . S
C79 C49 1.391 . S
C80 C42 1.389 . S
C80 C62 1.392 1_455 S
C81 C52 1.392 . S
C81 C54 1.389 1_455 S
C82 C57 1.395 . S
C82 C59 1.391 . S
H83 C43 0.951 . S
H84 C44 0.950 . S
H85 C50 0.949 . S
H86 C51 0.950 . S
H87 C55 0.951 . S
H88 C56 0.950 . S
H89 C60 0.949 . S
H90 C61 0.950 . S
H91 C65 0.950 . S
H92 C67 0.950 . S
H93 C70 0.950 . S
H94 C72 0.950 . S
C95 C96 1.443 1_545 S
C95 N99 1.376 . S
C95 C133 1.389 . S
C96 C95 1.443 1_565 S
C96 C97 1.340 . S
C96 H136 0.951 . S
C97 C96 1.340 . S
C97 C98 1.439 . S
C97 H137 0.950 . S
C98 C97 1.439 . S
C98 N99 1.374 1_565 S
C98 C132 1.395 . S
N99 C95 1.376 . S
N99 C98 1.374 1_545 S
N99 Co100 2.008 . S
Co100 N99 2.008 . S
Co100 N101 1.995 . S
Co100 N106 2.008 . S
Co100 N111 1.995 . S
Co100 N116 2.282 . S
Co100 N122 2.282 . S
N101 Co100 1.995 . S
N101 C102 1.376 1_545 S
N101 C105 1.383 . S
C102 N101 1.376 1_565 S
C102 C103 1.446 . S
C102 C132 1.391 . S
C103 C102 1.446 . S
C103 C104 1.339 . S
C103 H138 0.949 . S
C104 C103 1.339 . S
C104 C105 1.439 1_565 S
C104 H139 0.950 . S
C105 N101 1.383 . S
C105 C104 1.439 1_545 S
C105 C134 1.392 . S
N106 Co100 2.008 . S
N106 C107 1.376 . S
N106 C110 1.374 . S
C107 N106 1.376 . S
C107 C108 1.443 . S
C107 C134 1.389 . S
C108 C107 1.443 . S
C108 C109 1.340 . S
C108 H140 0.951 . S
C109 C108 1.340 . S
C109 C110 1.439 . S
C109 H141 0.950 . S
C110 N106 1.374 . S
C110 C109 1.439 . S
C110 C135 1.395 . S
N111 Co100 1.995 . S
N111 C112 1.376 . S
N111 C115 1.383 . S
C112 N111 1.376 . S
C112 C113 1.446 . S
C112 C135 1.391 . S
C113 C112 1.446 . S
C113 C114 1.339 . S
C113 H142 0.949 . S
C114 C113 1.339 . S
C114 C115 1.439 . S
C114 H143 0.950 . S
C115 N111 1.383 . S
C115 C114 1.439 . S
C115 C133 1.392 . S
N116 Co100 2.282 . S
N116 C119 1.332 . S
N116 C121 1.332 . S
C117 C118 1.386 . S
C117 C120 1.388 . S
C118 C117 1.386 . S
C118 C119 1.382 . S
C118 H144 0.950 . S
C119 N116 1.332 . S
C119 C118 1.382 . S
C119 H130 0.952 . S
C120 C117 1.388 . S
C120 C121 1.382 . S
C120 H145 0.950 1_545 S
C121 N116 1.332 . S
C121 C120 1.382 . S
C121 H131 0.948 1_545 S
N122 Co100 2.282 . S
N122 C126 1.332 . S
N122 C127 1.332 . S
C123 C124 1.388 . S
C123 C127 1.382 . S
C123 H146 0.950 . S
C124 C123 1.388 . S
C124 C125 1.386 . S
C125 C124 1.386 . S
C125 C126 1.382 . S
C125 H147 0.950 . S
C126 N122 1.332 . S
C126 C125 1.382 . S
C126 H128 0.952 . S
C127 N122 1.332 . S
C127 C123 1.382 . S
C127 H129 0.948 . S
H128 C126 0.952 . S
H129 C127 0.948 . S
H130 C119 0.952 . S
H131 C121 0.948 1_565 S
C132 C98 1.395 . S
C132 C102 1.391 . S
C133 C95 1.389 . S
C133 C115 1.392 . S
C134 C105 1.392 . S
C134 C107 1.389 . S
C135 C110 1.395 . S
C135 C112 1.391 . S
H136 C96 0.951 . S
H137 C97 0.950 . S
H138 C103 0.949 . S
H139 C104 0.950 . S
H140 C108 0.951 . S
H141 C109 0.950 . S
H142 C113 0.949 . S
H143 C114 0.950 . S
H144 C118 0.950 . S
H145 C120 0.950 1_565 S
H146 C123 0.950 . S
H147 C125 0.950 . S
C148 C149 1.443 . S
C148 N152 1.376 . S
C148 C186 1.389 . S
C149 C148 1.443 . S
C149 C150 1.340 . S
C149 H189 0.951 . S
C150 C149 1.340 . S
C150 C151 1.439 . S
C150 H190 0.950 . S
C151 C150 1.439 . S
C151 N152 1.374 . S
C151 C185 1.395 . S
N152 C148 1.376 . S
N152 C151 1.374 . S
N152 Co153 2.008 . S
Co153 N152 2.008 . S
Co153 N154 1.995 . S
Co153 N159 2.008 . S
Co153 N164 1.995 . S
Co153 N169 2.282 . S
Co153 N175 2.282 . S
N154 Co153 1.995 . S
N154 C155 1.376 . S
N154 C158 1.383 . S
C155 N154 1.376 . S
C155 C156 1.446 . S
C155 C185 1.391 . S
C156 C155 1.446 . S
C156 C157 1.339 . S
C156 H191 0.949 . S
C157 C156 1.339 . S
C157 C158 1.439 . S
C157 H192 0.950 . S
C158 N154 1.383 . S
C158 C157 1.439 . S
C158 C187 1.392 . S
N159 Co153 2.008 . S
N159 C160 1.376 . S
N159 C163 1.374 . S
C160 N159 1.376 . S
C160 C161 1.443 . S
C160 C187 1.389 . S
C161 C160 1.443 . S
C161 C162 1.340 . S
C161 H193 0.951 . S
C162 C161 1.340 . S
C162 C163 1.439 . S
C162 H194 0.950 . S
C163 N159 1.374 . S
C163 C162 1.439 . S
C163 C188 1.395 . S
N164 Co153 1.995 . S
N164 C165 1.376 . S
N164 C168 1.383 . S
C165 N164 1.376 . S
C165 C166 1.446 . S
C165 C188 1.391 . S
C166 C165 1.446 . S
C166 C167 1.339 . S
C166 H195 0.949 . S
C167 C166 1.339 . S
C167 C168 1.439 . S
C167 H196 0.950 . S
C168 N164 1.383 . S
C168 C167 1.439 . S
C168 C186 1.392 . S
N169 Co153 2.282 . S
N169 C172 1.332 . S
N169 C174 1.332 . S
C170 C171 1.386 . S
C170 C173 1.388 . S
C171 C170 1.386 . S
C171 C172 1.382 . S
C171 H197 0.950 . S
C172 N169 1.332 . S
C172 C171 1.382 . S
C172 H183 0.952 . S
C173 C170 1.388 . S
C173 C174 1.382 . S
C173 H198 0.950 . S
C174 N169 1.332 . S
C174 C173 1.382 . S
C174 H184 0.948 . S
N175 Co153 2.282 . S
N175 C179 1.332 . S
N175 C180 1.332 . S
C176 C177 1.388 . S
C176 C180 1.382 . S
C176 H199 0.950 . S
C177 C176 1.388 . S
C177 C178 1.386 . S
C178 C177 1.386 . S
C178 C179 1.382 . S
C178 H200 0.950 . S
C179 N175 1.332 . S
C179 C178 1.382 . S
C179 H181 0.952 . S
C180 N175 1.332 . S
C180 C176 1.382 . S
C180 H182 0.948 . S
H181 C179 0.952 . S
H182 C180 0.948 . S
H183 C172 0.952 . S
H184 C174 0.948 . S
C185 C151 1.395 . S
C185 C155 1.391 . S
C186 C148 1.389 . S
C186 C168 1.392 . S
C187 C158 1.392 . S
C187 C160 1.389 . S
C188 C163 1.395 . S
C188 C165 1.391 . S
H189 C149 0.951 . S
H190 C150 0.950 . S
H191 C156 0.949 . S
H192 C157 0.950 . S
H193 C161 0.951 . S
H194 C162 0.950 . S
H195 C166 0.949 . S
H196 C167 0.950 . S
H197 C171 0.950 . S
H198 C173 0.950 . S
H199 C176 0.950 . S
H200 C178 0.950 . S
C201 C202 1.349 . S
C201 C203 1.327 . S
C201 H226 0.950 . S
C202 C201 1.349 . S
C202 C218 1.349 . S
C203 C201 1.327 . S
C203 C222 1.429 . S
C203 H227 0.950 . S
C204 C221 1.574 . S
C204 C223 1.368 . S
C204 H228 0.949 . S
H205 C209 0.949 . S
C206 C207 1.349 . S
C206 C208 1.327 . S
C206 H229 0.950 . S
C207 C206 1.349 . S
C207 C219 1.349 . S
C208 C206 1.327 . S
C208 C224 1.429 . S
C208 H230 0.950 . S
C209 H205 0.949 . S
C209 C217 1.574 . S
C209 C225 1.368 . S
H210 C218 0.950 . S
H211 C216 0.950 . S
H212 C217 0.949 . S
H213 C219 0.950 . S
H214 C220 0.950 . S
H215 C221 0.949 . S
C216 H211 0.950 . S
C216 C218 1.327 . S
C216 C222 1.429 . S
C217 C209 1.574 . S
C217 H212 0.949 . S
C217 C223 1.368 . S
C218 C202 1.349 . S
C218 H210 0.950 . S
C218 C216 1.327 . S
C219 C207 1.349 . S
C219 H213 0.950 . S
C219 C220 1.327 . S
C220 H214 0.950 . S
C220 C219 1.327 . S
C220 C224 1.429 . S
C221 C204 1.574 . S
C221 H215 0.949 . S
C221 C225 1.368 . S
C222 C203 1.429 . S
C222 C216 1.429 . S
C222 C223 1.523 . S
C223 C204 1.368 . S
C223 C217 1.368 . S
C223 C222 1.523 . S
C224 C208 1.429 . S
C224 C220 1.429 . S
C224 C225 1.523 . S
C225 C209 1.368 . S
C225 C221 1.368 . S
C225 C224 1.523 . S
H226 C201 0.950 . S
H227 C203 0.950 . S
H228 C204 0.949 . S
H229 C206 0.950 . S
H230 C208 0.950 . S
C231 C232 1.349 . S
C231 C233 1.327 . S
C231 H256 0.950 . S
C232 C231 1.349 . S
C232 C248 1.349 . S
C233 C231 1.327 . S
C233 C252 1.429 . S
C233 H257 0.950 . S
C234 C251 1.574 . S
C234 C253 1.368 . S
C234 H258 0.949 . S
H235 C239 0.949 . S
C236 C237 1.349 . S
C236 C238 1.327 . S
C236 H259 0.950 . S
C237 C236 1.349 . S
C237 C249 1.349 . S
C238 C236 1.327 . S
C238 C254 1.429 . S
C238 H260 0.950 . S
C239 H235 0.949 . S
C239 C247 1.574 . S
C239 C255 1.368 . S
H240 C248 0.950 . S
H241 C246 0.950 . S
H242 C247 0.949 . S
H243 C249 0.950 . S
H244 C250 0.950 . S
H245 C251 0.949 . S
C246 H241 0.950 . S
C246 C248 1.327 . S
C246 C252 1.429 . S
C247 C239 1.574 . S
C247 H242 0.949 . S
C247 C253 1.368 . S
C248 C232 1.349 . S
C248 H240 0.950 . S
C248 C246 1.327 . S
C249 C237 1.349 . S
C249 H243 0.950 . S
C249 C250 1.327 . S
C250 H244 0.950 . S
C250 C249 1.327 . S
C250 C254 1.429 . S
C251 C234 1.574 . S
C251 H245 0.949 . S
C251 C255 1.368 . S
C252 C233 1.429 . S
C252 C246 1.429 . S
C252 C253 1.523 . S
C253 C234 1.368 . S
C253 C247 1.368 . S
C253 C252 1.523 . S
C254 C238 1.429 . S
C254 C250 1.429 . S
C254 C255 1.523 . S
C255 C239 1.368 . S
C255 C251 1.368 . S
C255 C254 1.523 . S
H256 C231 0.950 . S
H257 C233 0.950 . S
H258 C234 0.949 . S
H259 C236 0.950 . S
H260 C238 0.950 . S
C261 C262 1.349 . S
C261 C263 1.327 . S
C261 H286 0.950 . S
C262 C261 1.349 . S
C262 C278 1.349 . S
C263 C261 1.327 . S
C263 C282 1.429 . S
C263 H287 0.950 . S
C264 C281 1.574 . S
C264 C283 1.368 . S
C264 H288 0.949 . S
H265 C269 0.949 . S
C266 C267 1.349 . S
C266 C268 1.327 . S
C266 H289 0.950 . S
C267 C266 1.349 . S
C267 C279 1.349 . S
C268 C266 1.327 . S
C268 C284 1.429 . S
C268 H290 0.950 . S
C269 H265 0.949 . S
C269 C277 1.574 . S
C269 C285 1.368 . S
H270 C278 0.950 . S
H271 C276 0.950 . S
H272 C277 0.949 . S
H273 C279 0.950 . S
H274 C280 0.950 . S
H275 C281 0.949 . S
C276 H271 0.950 . S
C276 C278 1.327 . S
C276 C282 1.429 . S
C277 C269 1.574 . S
C277 H272 0.949 . S
C277 C283 1.368 . S
C278 C262 1.349 . S
C278 H270 0.950 . S
C278 C276 1.327 . S
C279 C267 1.349 . S
C279 H273 0.950 . S
C279 C280 1.327 . S
C280 H274 0.950 . S
C280 C279 1.327 . S
C280 C284 1.429 . S
C281 C264 1.574 . S
C281 H275 0.949 . S
C281 C285 1.368 . S
C282 C263 1.429 . S
C282 C276 1.429 . S
C282 C283 1.523 . S
C283 C264 1.368 . S
C283 C277 1.368 . S
C283 C282 1.523 . S
C284 C268 1.429 . S
C284 C280 1.429 . S
C284 C285 1.523 . S
C285 C269 1.368 . S
C285 C281 1.368 . S
C285 C284 1.523 . S
H286 C261 0.950 . S
H287 C263 0.950 . S
H288 C264 0.949 . S
H289 C266 0.950 . S
H290 C268 0.950 . S
C291 C292 1.349 . S
C291 C293 1.327 . S
C291 H316 0.950 . S
C292 C291 1.349 . S
C292 C308 1.349 . S
C293 C291 1.327 . S
C293 C312 1.429 . S
C293 H317 0.956 . S
C294 C311 1.574 . S
C294 C313 1.368 . S
C294 H318 0.949 . S
H295 C299 0.949 1_655 S
C296 C297 1.349 . S
C296 C298 1.327 . S
C296 H319 0.950 . S
C297 C296 1.349 . S
C297 C309 1.349 . S
C298 C296 1.327 . S
C298 C314 1.429 . S
C298 H320 0.950 . S
C299 H295 0.949 1_455 S
C299 C307 1.574 . S
C299 C315 1.368 . S
H300 C308 0.950 . S
H301 C306 0.950 . S
H302 C307 0.949 1_655 S
H303 C309 0.950 1_655 S
H304 C310 0.950 1_655 S
H305 C311 0.949 . S
C306 H301 0.950 . S
C306 C308 1.327 . S
C306 C312 1.429 . S
C307 C299 1.574 . S
C307 H302 0.949 1_455 S
C307 C313 1.368 . S
C308 C292 1.349 . S
C308 H300 0.950 . S
C308 C306 1.327 . S
C309 C297 1.349 . S
C309 H303 0.950 1_455 S
C309 C310 1.327 . S
C310 H304 0.950 1_455 S
C310 C309 1.327 . S
C310 C314 1.429 . S
C311 C294 1.574 . S
C311 H305 0.949 . S
C311 C315 1.368 . S
C312 C293 1.429 . S
C312 C306 1.429 . S
C312 C313 1.523 . S
C313 C294 1.368 . S
C313 C307 1.368 . S
C313 C312 1.523 . S
C314 C298 1.429 . S
C314 C310 1.429 . S
C314 C315 1.523 . S
C315 C299 1.368 . S
C315 C311 1.368 . S
C315 C314 1.523 . S
H316 C291 0.950 . S
H317 C293 0.956 . S
H318 C294 0.949 . S
H319 C296 0.950 . S
H320 C298 0.950 . S
C321 C322 1.349 . S
C321 C323 1.327 . S
C321 H346 0.950 . S
C322 C321 1.349 . S
C322 C338 1.349 . S
C323 C321 1.327 . S
C323 C342 1.429 . S
C323 H347 0.950 . S
C324 C341 1.574 . S
C324 C343 1.368 . S
C324 H348 0.949 . S
H325 C329 0.949 . S
C326 C327 1.349 . S
C326 C328 1.327 . S
C326 H349 0.950 . S
C327 C326 1.349 . S
C327 C339 1.349 . S
C328 C326 1.327 . S
C328 C344 1.429 . S
C328 H350 0.950 . S
C329 H325 0.949 . S
C329 C337 1.574 . S
C329 C345 1.368 . S
H330 C338 0.950 . S
H331 C336 0.950 . S
H332 C337 0.949 . S
H333 C339 0.950 . S
H334 C340 0.950 . S
H335 C341 0.949 . S
C336 H331 0.950 . S
C336 C338 1.327 . S
C336 C342 1.429 . S
C337 C329 1.574 . S
C337 H332 0.949 . S
C337 C343 1.368 . S
C338 C322 1.349 . S
C338 H330 0.950 . S
C338 C336 1.327 . S
C339 C327 1.349 . S
C339 H333 0.950 . S
C339 C340 1.327 . S
C340 H334 0.950 . S
C340 C339 1.327 . S
C340 C344 1.429 . S
C341 C324 1.574 . S
C341 H335 0.949 . S
C341 C345 1.368 . S
C342 C323 1.429 . S
C342 C336 1.429 . S
C342 C343 1.523 . S
C343 C324 1.368 . S
C343 C337 1.368 . S
C343 C342 1.523 . S
C344 C328 1.429 . S
C344 C340 1.429 . S
C344 C345 1.523 . S
C345 C329 1.368 . S
C345 C341 1.368 . S
C345 C344 1.523 . S
H346 C321 0.950 . S
H347 C323 0.950 . S
H348 C324 0.949 . S
H349 C326 0.950 . S
H350 C328 0.950 . S
C351 C352 1.349 . S
C351 C353 1.327 . S
C351 H376 0.950 . S
C352 C351 1.349 . S
C352 C368 1.349 . S
C353 C351 1.327 . S
C353 C372 1.429 . S
C353 H377 0.950 . S
C354 C371 1.574 . S
C354 C373 1.368 . S
C354 H378 0.949 . S
H355 C359 0.949 . S
C356 C357 1.349 . S
C356 C358 1.327 . S
C356 H379 0.950 . S
C357 C356 1.349 . S
C357 C369 1.349 . S
C358 C356 1.327 . S
C358 C374 1.429 . S
C358 H380 0.950 . S
C359 H355 0.949 . S
C359 C367 1.574 . S
C359 C375 1.368 . S
H360 C368 0.950 . S
H361 C366 0.950 . S
H362 C367 0.949 . S
H363 C369 0.950 . S
H364 C370 0.950 . S
H365 C371 0.949 . S
C366 H361 0.950 . S
C366 C368 1.327 . S
C366 C372 1.429 . S
C367 C359 1.574 . S
C367 H362 0.949 . S
C367 C373 1.368 . S
C368 C352 1.349 . S
C368 H360 0.950 . S
C368 C366 1.327 . S
C369 C357 1.349 . S
C369 H363 0.950 . S
C369 C370 1.327 . S
C370 H364 0.950 . S
C370 C369 1.327 . S
C370 C374 1.429 . S
C371 C354 1.574 . S
C371 H365 0.949 . S
C371 C375 1.368 . S
C372 C353 1.429 . S
C372 C366 1.429 . S
C372 C373 1.523 . S
C373 C354 1.368 . S
C373 C367 1.368 . S
C373 C372 1.523 . S
C374 C358 1.429 . S
C374 C370 1.429 . S
C374 C375 1.523 . S
C375 C359 1.368 . S
C375 C371 1.368 . S
C375 C374 1.523 . S
H376 C351 0.950 . S
H377 C353 0.950 . S
H378 C354 0.949 . S
H379 C356 0.950 . S
H380 C358 0.950 . S
C381 C382 1.349 . S
C381 C383 1.327 . S
C381 H406 0.950 1_545 S
C382 C381 1.349 . S
C382 C398 1.349 . S
C383 C381 1.327 . S
C383 C402 1.429 . S
C383 H407 0.950 1_545 S
C384 C401 1.574 . S
C384 C403 1.368 . S
C384 H408 0.949 . S
H385 C389 0.949 1_565 S
C386 C387 1.349 . S
C386 C388 1.327 . S
C386 H409 0.950 . S
C387 C386 1.349 . S
C387 C399 1.349 . S
C388 C386 1.327 . S
C388 C404 1.429 . S
C388 H410 0.950 . S
C389 H385 0.949 1_545 S
C389 C397 1.574 . S
C389 C405 1.368 . S
H390 C398 0.950 1_455 S
H391 C396 0.950 . S
H392 C397 0.949 1_565 S
H393 C399 0.957 . S
H394 C400 0.950 1_565 S
H395 C401 0.949 . S
C396 H391 0.950 . S
C396 C398 1.327 . S
C396 C402 1.429 . S
C397 C389 1.574 . S
C397 H392 0.949 1_545 S
C397 C403 1.368 . S
C398 C382 1.349 . S
C398 H390 0.950 1_655 S
C398 C396 1.327 . S
C399 C387 1.349 . S
C399 H393 0.957 . S
C399 C400 1.327 . S
C400 H394 0.950 1_545 S
C400 C399 1.327 . S
C400 C404 1.429 . S
C401 C384 1.574 . S
C401 H395 0.949 . S
C401 C405 1.368 . S
C402 C383 1.429 . S
C402 C396 1.429 . S
C402 C403 1.523 . S
C403 C384 1.368 . S
C403 C397 1.368 . S
C403 C402 1.523 . S
C404 C388 1.429 . S
C404 C400 1.429 . S
C404 C405 1.523 . S
C405 C389 1.368 . S
C405 C401 1.368 . S
C405 C404 1.523 . S
H406 C381 0.950 1_565 S
H407 C383 0.950 1_565 S
H408 C384 0.949 . S
H409 C386 0.950 . S
H410 C388 0.950 . S
C411 C412 1.349 1_556 S
C411 C413 1.327 . S
C411 H436 0.950 1_655 S
C412 C411 1.349 1_554 S
C412 C428 1.349 . S
C413 C411 1.327 . S
C413 C432 1.429 . S
C413 H437 0.950 . S
C414 C431 1.574 . S
C414 C433 1.368 . S
C414 H438 0.949 1_556 S
H415 C419 0.949 . S
C416 C417 1.349 . S
C416 C418 1.327 . S
C416 H439 0.950 . S
C417 C416 1.349 . S
C417 C429 1.349 . S
C418 C416 1.327 . S
C418 C434 1.429 . S
C418 H440 0.950 . S
C419 H415 0.949 . S
C419 C427 1.574 . S
C419 C435 1.368 . S
H420 C428 0.950 . S
H421 C426 0.950 . S
H422 C427 0.949 . S
H423 C429 0.950 . S
H424 C430 0.950 . S
H425 C431 0.949 . S
C426 H421 0.950 . S
C426 C428 1.327 . S
C426 C432 1.429 1_554 S
C427 C419 1.574 . S
C427 H422 0.949 . S
C427 C433 1.368 . S
C428 C412 1.349 . S
C428 H420 0.950 . S
C428 C426 1.327 . S
C429 C417 1.349 . S
C429 H423 0.950 . S
C429 C430 1.327 . S
C430 H424 0.950 . S
C430 C429 1.327 . S
C430 C434 1.429 . S
C431 C414 1.574 . S
C431 H425 0.949 . S
C431 C435 1.368 . S
C432 C413 1.429 . S
C432 C426 1.429 1_556 S
C432 C433 1.523 . S
C433 C414 1.368 . S
C433 C427 1.368 . S
C433 C432 1.523 . S
C434 C418 1.429 . S
C434 C430 1.429 . S
C434 C435 1.523 . S
C435 C419 1.368 . S
C435 C431 1.368 . S
C435 C434 1.523 . S
H436 C411 0.950 1_455 S
H437 C413 0.950 . S
H438 C414 0.949 1_554 S
H439 C416 0.950 . S
H440 C418 0.950 . S
C441 C442 1.349 . S
C441 C443 1.327 . S
C441 H466 0.950 1_565 S
C442 C441 1.349 . S
C442 C458 1.349 . S
C443 C441 1.327 . S
C443 C462 1.429 . S
C443 H467 0.950 . S
C444 C461 1.574 . S
C444 C463 1.368 . S
C444 H468 0.949 . S
H445 C449 0.949 . S
C446 C447 1.349 . S
C446 C448 1.327 . S
C446 H469 0.950 . S
C447 C446 1.349 . S
C447 C459 1.349 . S
C448 C446 1.327 . S
C448 C464 1.429 . S
C448 H470 0.950 . S
C449 H445 0.949 . S
C449 C457 1.574 . S
C449 C465 1.368 . S
H450 C458 0.950 . S
H451 C456 0.950 . S
H452 C457 0.949 . S
H453 C459 0.950 . S
H454 C460 0.950 . S
H455 C461 0.949 . S
C456 H451 0.950 . S
C456 C458 1.327 . S
C456 C462 1.429 . S
C457 C449 1.574 . S
C457 H452 0.949 . S
C457 C463 1.368 . S
C458 C442 1.349 . S
C458 H450 0.950 . S
C458 C456 1.327 . S
C459 C447 1.349 . S
C459 H453 0.950 . S
C459 C460 1.327 . S
C460 H454 0.950 . S
C460 C459 1.327 . S
C460 C464 1.429 . S
C461 C444 1.574 . S
C461 H455 0.949 . S
C461 C465 1.368 . S
C462 C443 1.429 . S
C462 C456 1.429 . S
C462 C463 1.523 . S
C463 C444 1.368 . S
C463 C457 1.368 . S
C463 C462 1.523 . S
C464 C448 1.429 . S
C464 C460 1.429 . S
C464 C465 1.523 . S
C465 C449 1.368 . S
C465 C461 1.368 . S
C465 C464 1.523 . S
H466 C441 0.950 1_545 S
H467 C443 0.950 . S
H468 C444 0.949 . S
H469 C446 0.950 . S
H470 C448 0.950 . S
C471 C472 1.349 . S
C471 C473 1.327 . S
C471 H496 0.950 . S
C472 C471 1.349 . S
C472 C488 1.349 . S
C473 C471 1.327 . S
C473 C492 1.429 . S
C473 H497 0.950 . S
C474 C491 1.574 . S
C474 C493 1.368 . S
C474 H498 0.949 1_545 S
H475 C479 0.949 . S
C476 C477 1.349 . S
C476 C478 1.327 . S
C476 H499 0.950 . S
C477 C476 1.349 . S
C477 C489 1.349 . S
C478 C476 1.327 . S
C478 C494 1.429 . S
C478 H500 0.950 1_545 S
C479 H475 0.949 . S
C479 C487 1.574 . S
C479 C495 1.368 . S
H480 C488 0.950 1_565 S
H481 C486 0.950 1_565 S
H482 C487 0.949 . S
H483 C489 0.950 . S
H484 C490 0.950 . S
H485 C491 0.949 1_565 S
C486 H481 0.950 1_545 S
C486 C488 1.327 . S
C486 C492 1.429 . S
C487 C479 1.574 . S
C487 H482 0.949 . S
C487 C493 1.368 . S
C488 C472 1.349 . S
C488 H480 0.950 1_545 S
C488 C486 1.327 . S
C489 C477 1.349 . S
C489 H483 0.950 . S
C489 C490 1.327 . S
C490 H484 0.950 . S
C490 C489 1.327 . S
C490 C494 1.429 . S
C491 C474 1.574 . S
C491 H485 0.949 1_545 S
C491 C495 1.368 . S
C492 C473 1.429 . S
C492 C486 1.429 . S
C492 C493 1.523 . S
C493 C474 1.368 . S
C493 C487 1.368 . S
C493 C492 1.523 . S
C494 C478 1.429 . S
C494 C490 1.429 . S
C494 C495 1.523 . S
C495 C479 1.368 . S
C495 C491 1.368 . S
C495 C494 1.523 . S
H496 C471 0.950 . S
H497 C473 0.950 . S
H498 C474 0.949 1_565 S
H499 C476 0.950 . S
H500 C478 0.950 1_565 S
C501 C502 1.349 1_556 S
C501 C503 1.327 . S
C501 H526 0.950 . S
C502 C501 1.349 1_554 S
C502 C518 1.349 . S
C503 C501 1.327 . S
C503 C522 1.429 . S
C503 H527 0.950 . S
C504 C521 1.574 . S
C504 C523 1.368 . S
C504 H528 0.949 . S
H505 C509 0.949 . S
C506 C507 1.349 . S
C506 C508 1.327 . S
C506 H529 0.950 . S
C507 C506 1.349 . S
C507 C519 1.349 . S
C508 C506 1.327 . S
C508 C524 1.429 . S
C508 H530 0.950 . S
C509 H505 0.949 . S
C509 C517 1.574 . S
C509 C525 1.368 . S
H510 C518 0.950 . S
H511 C516 0.950 . S
H512 C517 0.949 . S
H513 C519 0.950 . S
H514 C520 0.950 . S
H515 C521 0.949 . S
C516 H511 0.950 . S
C516 C518 1.327 . S
C516 C522 1.429 1_554 S
C517 C509 1.574 . S
C517 H512 0.949 . S
C517 C523 1.368 . S
C518 C502 1.349 . S
C518 H510 0.950 . S
C518 C516 1.327 . S
C519 C507 1.349 . S
C519 H513 0.950 . S
C519 C520 1.327 . S
C520 H514 0.950 . S
C520 C519 1.327 . S
C520 C524 1.429 . S
C521 C504 1.574 . S
C521 H515 0.949 . S
C521 C525 1.368 . S
C522 C503 1.429 . S
C522 C516 1.429 1_556 S
C522 C523 1.523 . S
C523 C504 1.368 . S
C523 C517 1.368 . S
C523 C522 1.523 . S
C524 C508 1.429 . S
C524 C520 1.429 . S
C524 C525 1.523 . S
C525 C509 1.368 . S
C525 C521 1.368 . S
C525 C524 1.523 . S
H526 C501 0.950 . S
H527 C503 0.950 . S
H528 C504 0.949 . S
H529 C506 0.950 . S
H530 C508 0.950 . S
C531 C532 1.349 . S
C531 C533 1.327 . S
C531 H556 0.950 . S
C532 C531 1.349 . S
C532 C548 1.349 . S
C533 C531 1.327 . S
C533 C552 1.429 . S
C533 H557 0.950 . S
C534 C551 1.574 . S
C534 C553 1.368 1_655 S
C534 H558 0.949 . S
H535 C539 0.949 . S
C536 C537 1.349 1_655 S
C536 C538 1.327 . S
C536 H559 0.950 . S
C537 C536 1.349 1_455 S
C537 C549 1.349 . S
C538 C536 1.327 . S
C538 C554 1.429 1_655 S
C538 H560 0.950 . S
C539 H535 0.949 . S
C539 C547 1.574 . S
C539 C555 1.368 . S
H540 C548 0.950 1_655 S
H541 C546 0.977 . S
H542 C547 0.949 . S
H543 C549 0.950 . S
H544 C550 0.950 . S
H545 C551 0.949 . S
C546 H541 0.977 . S
C546 C548 1.314 1_655 S
C546 C552 1.415 1_655 S
C547 C539 1.574 . S
C547 H542 0.949 . S
C547 C553 1.368 . S
C548 C532 1.349 . S
C548 H540 0.950 1_455 S
C548 C546 1.314 1_455 S
C549 C537 1.349 . S
C549 H543 0.950 . S
C549 C550 1.327 . S
C550 H544 0.950 . S
C550 C549 1.327 . S
C550 C554 1.429 . S
C551 C534 1.574 . S
C551 H545 0.949 . S
C551 C555 1.368 1_655 S
C552 C533 1.429 . S
C552 C546 1.415 1_455 S
C552 C553 1.523 . S
C553 C534 1.368 1_455 S
C553 C547 1.368 . S
C553 C552 1.523 . S
C554 C538 1.429 1_455 S
C554 C550 1.429 . S
C554 C555 1.523 . S
C555 C539 1.368 . S
C555 C551 1.368 1_455 S
C555 C554 1.523 . S
H556 C531 0.950 . S
H557 C533 0.950 . S
H558 C534 0.949 . S
H559 C536 0.950 . S
H560 C538 0.950 . S
C207 C64 1.494 . S
C202 C3 1.492 . S
C232 C21 1.510 . S
C237 C134 1.528 . S
C262 C37 1.486 . S
C267 C186 1.505 . S
C292 C8 1.501 . S
C297 C80 1.499 . S
C327 C124 1.509 . S
C322 C23 1.491 . S
C352 C35 1.480 . S
C357 C170 1.501 . S
C387 C117 1.483 . S
C382 C31 1.480 . S
C412 C7 1.480 1_565 S
C417 C177 1.501 . S
C447 C71 1.495 . S
C442 C17 1.492 1_565 S
C477 C133 1.471 . S
C472 C36 1.472 . S
C507 C187 1.506 . S
C502 C9 1.487 . S
C532 C22 1.501 . S
C537 C81 1.500 . S
