# Generated by pormake.
# Topology zzz, (3,6)-cn, num edge types: 1
# Building blocks:
#     Node 0, Type 0, BuildingBlock: OLANEW_clean_sbu_2, # of connection points: 3
#     Node 1, Type 0, BuildingBlock: OLANEW_clean_sbu_2, # of connection points: 3
#     Node 2, Type 0, BuildingBlock: OLANEW_clean_sbu_2, # of connection points: 3
#     Node 3, Type 0, BuildingBlock: OLANEW_clean_sbu_2, # of connection points: 3
#     Node 4, Type 0, BuildingBlock: OLANEW_clean_sbu_2, # of connection points: 3
#     Node 5, Type 0, BuildingBlock: OLANEW_clean_sbu_2, # of connection points: 3
#     Node 6, Type 0, BuildingBlock: OLANEW_clean_sbu_2, # of connection points: 3
#     Node 7, Type 0, BuildingBlock: OLANEW_clean_sbu_2, # of connection points: 3
#     Node 8, Type 1, BuildingBlock: KUMJIN_clean_sbu_1, # of connection points: 6
#     Node 9, Type 1, BuildingBlock: KUMJIN_clean_sbu_1, # of connection points: 6
#     Node 10, Type 1, BuildingBlock: KUMJIN_clean_sbu_1, # of connection points: 6
#     Node 11, Type 1, BuildingBlock: KUMJIN_clean_sbu_1, # of connection points: 6
#     Edge 12, Type (0, 1), BuildingBlock: OJICUG_clean_linker_0, # of connection points: 2
#     Edge 13, Type (0, 1), BuildingBlock: OJICUG_clean_linker_0, # of connection points: 2
#     Edge 14, Type (0, 1), BuildingBlock: OJICUG_clean_linker_0, # of connection points: 2
#     Edge 15, Type (0, 1), BuildingBlock: OJICUG_clean_linker_0, # of connection points: 2
#     Edge 16, Type (0, 1), BuildingBlock: OJICUG_clean_linker_0, # of connection points: 2
#     Edge 17, Type (0, 1), BuildingBlock: OJICUG_clean_linker_0, # of connection points: 2
#     Edge 18, Type (0, 1), BuildingBlock: OJICUG_clean_linker_0, # of connection points: 2
#     Edge 19, Type (0, 1), BuildingBlock: OJICUG_clean_linker_0, # of connection points: 2
#     Edge 20, Type (0, 1), BuildingBlock: OJICUG_clean_linker_0, # of connection points: 2
#     Edge 21, Type (0, 1), BuildingBlock: OJICUG_clean_linker_0, # of connection points: 2
#     Edge 22, Type (0, 1), BuildingBlock: OJICUG_clean_linker_0, # of connection points: 2
#     Edge 23, Type (0, 1), BuildingBlock: OJICUG_clean_linker_0, # of connection points: 2
#     Edge 24, Type (0, 1), BuildingBlock: OJICUG_clean_linker_0, # of connection points: 2
#     Edge 25, Type (0, 1), BuildingBlock: OJICUG_clean_linker_0, # of connection points: 2
#     Edge 26, Type (0, 1), BuildingBlock: OJICUG_clean_linker_0, # of connection points: 2
#     Edge 27, Type (0, 1), BuildingBlock: OJICUG_clean_linker_0, # of connection points: 2
#     Edge 28, Type (0, 1), BuildingBlock: OJICUG_clean_linker_0, # of connection points: 2
#     Edge 29, Type (0, 1), BuildingBlock: OJICUG_clean_linker_0, # of connection points: 2
#     Edge 30, Type (0, 1), BuildingBlock: OJICUG_clean_linker_0, # of connection points: 2
#     Edge 31, Type (0, 1), BuildingBlock: OJICUG_clean_linker_0, # of connection points: 2
#     Edge 32, Type (0, 1), BuildingBlock: OJICUG_clean_linker_0, # of connection points: 2
#     Edge 33, Type (0, 1), BuildingBlock: OJICUG_clean_linker_0, # of connection points: 2
#     Edge 34, Type (0, 1), BuildingBlock: OJICUG_clean_linker_0, # of connection points: 2
#     Edge 35, Type (0, 1), BuildingBlock: OJICUG_clean_linker_0, # of connection points: 2
# Relax obj value: 0.188
# Max RMSD: 0.118
# Mean RMSD: 0.089
data_MOF--net-zzz--node1-OLANEW_clean_sbu_2--node2-KUMJIN_clean_sbu_1--edge1-OJICUG_clean_linker_0
_symmetry_space_group_name_H-M    P1
_symmetry_Int_Tables_number       1
_symmetry_cell_setting            triclinic
loop_
_symmetry_equiv_pos_as_xyz
'x, y, z'
_cell_length_a     40.629837
_cell_length_b     40.70324
_cell_length_c     13.472438
_cell_angle_alpha  90.14388
_cell_angle_beta   89.75874
_cell_angle_gamma 90.343392
loop_
_atom_site_label
_atom_site_type_symbol
_atom_site_fract_x
_atom_site_fract_y
_atom_site_fract_z
_atom_type_partial_charge
O0 O 0.74231 0.56383 0.18202 0.0
Cd1 Cd 0.69145 0.57818 0.26435 0.0
O2 O 0.73989 0.52631 0.29727 0.0
Cd3 Cd 0.75964 0.48341 0.36885 0.0
O4 O 0.80795 0.4823 0.43329 0.0
C5 C 0.81441 0.50287 0.5016 0.0
O6 O 0.79072 0.52104 0.5387 0.0
C7 C 0.75409 0.53829 0.22128 0.0
C8 C 0.64415 0.55601 0.13312 0.0
O9 O 0.65348 0.58615 0.13488 0.0
O10 O 0.65604 0.53635 0.19767 0.0
O11 O 0.94005 0.74527 0.1518 0.0
Cd12 Cd 0.92414 0.69349 0.22473 0.0
O13 O 0.97151 0.74328 0.28124 0.0
Cd14 Cd 0.00393 0.76002 0.39782 0.0
O15 O -0.00143 0.80564 0.4765 0.0
C16 C 0.01951 0.81818 0.53489 0.0
O17 O 0.04677 0.80224 0.55417 0.0
C18 C 0.9634 0.75776 0.20136 0.0
C19 C 0.94971 0.64852 0.09225 0.0
O20 O 0.91959 0.65762 0.0884 0.0
O21 O 0.96766 0.6595 0.16307 0.0
O22 O 0.76138 0.9628 0.19059 0.0
Cd23 Cd 0.81531 0.94966 0.25649 0.0
O24 O 0.76814 0.00219 0.29821 0.0
Cd25 Cd 0.75018 0.039 0.40086 0.0
O26 O 0.70087 0.03228 0.45664 0.0
C27 C 0.69483 0.00735 0.51027 0.0
O28 O 0.71912 0.98873 0.54025 0.0
C29 C 0.75029 0.98837 0.23253 0.0
C30 C 0.86148 0.96746 0.11522 0.0
O31 O 0.85096 0.93779 0.12224 0.0
O32 O 0.85081 0.98876 0.17752 0.0
O33 O 0.56282 0.77632 0.17463 0.0
Cd34 Cd 0.5868 0.82821 0.23006 0.0
O35 O 0.52785 0.77921 0.29805 0.0
Cd36 Cd 0.49113 0.75701 0.39396 0.0
O37 O 0.48816 0.70818 0.45541 0.0
C38 C 0.50116 0.70143 0.53835 0.0
O39 O 0.51368 0.72514 0.59299 0.0
C40 C 0.53823 0.76446 0.22077 0.0
C41 C 0.56332 0.87521 0.1 0.0
O42 O 0.58836 0.85756 0.07842 0.0
O43 O 0.54996 0.87179 0.18574 0.0
O44 O 0.27978 0.49754 0.15144 0.0
Cd45 Cd 0.3346 0.4864 0.09118 0.0
O46 O 0.26335 0.449 0.10074 0.0
Cd47 Cd 0.22422 0.41567 0.06073 0.0
O48 O 0.18021 0.43188 0.98817 0.0
C49 C 0.18224 0.44678 0.90561 0.0
O50 O 0.2107 0.44888 0.85934 0.0
C51 C 0.25707 0.47632 0.14232 0.0
C52 C 0.37474 0.49039 0.25527 0.0
O53 O 0.36851 0.51596 0.20353 0.0
O54 O 0.36278 0.4627 0.22729 0.0
O55 O 0.01549 0.27262 0.15967 0.0
Cd56 Cd 0.02696 0.326 0.08838 0.0
O57 O 0.0653 0.25592 0.12303 0.0
Cd58 Cd 0.09989 0.21636 0.10424 0.0
O59 O 0.08118 0.17522 0.02021 0.0
C60 C 0.07181 0.17938 0.93125 0.0
O61 O 0.07697 0.20772 0.88725 0.0
C62 C 0.03715 0.25036 0.16101 0.0
C63 C 0.02208 0.37031 0.24364 0.0
O64 O -0.00306 0.36323 0.19041 0.0
O65 O 0.04968 0.35703 0.22163 0.0
O66 O 0.23583 0.02516 0.15308 0.0
Cd67 Cd 0.18185 0.04128 0.09446 0.0
O68 O 0.25295 0.07396 0.10998 0.0
Cd69 Cd 0.28993 0.10868 0.05936 0.0
O70 O 0.33341 0.09637 0.97567 0.0
C71 C 0.33169 0.08685 0.88591 0.0
O72 O 0.30357 0.0885 0.83848 0.0
C73 C 0.25925 0.04572 0.14538 0.0
C74 C 0.14002 0.03876 0.25596 0.0
O75 O 0.14603 0.01303 0.20415 0.0
O76 O 0.153 0.06614 0.22932 0.0
O77 O 0.46843 0.2381 0.19374 0.0
Cd78 Cd 0.46289 0.18804 0.09581 0.0
O79 O 0.47238 0.27645 0.07891 0.0
Cd80 Cd 0.46647 0.24813 0.9427 0.0
O81 O 0.48042 0.28969 0.84905 0.0
C82 C 0.45971 0.31295 0.84942 0.0
O83 O 0.43107 0.30807 0.89293 0.0
C84 C 0.47238 0.26802 0.16957 0.0
C85 C 0.4752 0.13837 0.23252 0.0
O86 O 0.49882 0.15406 0.19053 0.0
O87 O 0.44567 0.14483 0.2062 0.0
Eu88 Eu 0.96963 0.02647 0.58527 0.0
C89 C 0.08524 0.04543 0.90479 0.0
N90 N 0.08301 0.02449 0.82628 0.0
C91 C 0.1395 0.03537 0.78402 0.0
C92 C 0.11463 0.06292 0.92418 0.0
C93 C 0.11009 0.0181 0.76899 0.0
C94 C 0.14166 0.05824 0.8611 0.0
C95 C 0.0615 0.06657 0.05768 0.0
C96 C 0.0589 0.04754 0.97034 0.0
C97 C 0.09017 0.08511 0.07487 0.0
C98 C 0.11661 0.08342 0.00801 0.0
Eu99 Eu 0.03195 0.99669 0.80789 0.0
N100 N 0.03132 0.02969 0.95142 0.0
C101 C 0.03549 0.06576 0.12625 0.0
C102 C 0.00665 0.02733 0.02017 0.0
C103 C 0.00813 0.04567 0.10802 0.0
H104 H 0.10947 -0.0008 0.71261 0.0
H105 H 0.98831 0.04418 0.16179 0.0
H106 H 0.89288 0.01724 0.6811 0.0
H107 H 0.02725 0.96805 0.26328 0.0
H108 H 0.9858 0.01136 0.00645 0.0
H109 H 0.03663 0.0799 0.19443 0.0
H110 H 0.02473 0.00491 0.40863 0.0
H111 H 0.16069 0.03056 0.73734 0.0
H112 H 0.09244 0.10023 0.14082 0.0
H113 H 0.13891 0.09719 0.02362 0.0
H114 H 0.84266 0.98551 0.64432 0.0
H115 H 0.16467 0.07117 0.87362 0.0
H116 H 0.97867 0.93445 0.2177 0.0
N117 N 0.92095 0.99548 0.56455 0.0
C118 C 0.92056 0.97546 0.4833 0.0
C119 C 0.86451 0.98215 0.59928 0.0
C120 C 0.89199 0.95733 0.45863 0.0
C121 C 0.89329 -0.00029 0.6209 0.0
C122 C 0.86389 0.96076 0.51816 0.0
N123 N 0.97606 0.99097 0.4483 0.0
C124 C 0.00381 0.9897 0.39131 0.0
C125 C 0.94888 0.95226 0.33998 0.0
C126 C 0.94872 0.97318 0.42369 0.0
C127 C 0.97759 0.95026 0.28249 0.0
C128 C 0.00512 0.9691 0.30819 0.0
H129 H 0.84145 0.94739 0.50126 0.0
H130 H 0.87039 0.9227 0.35488 0.0
H131 H 0.92014 0.91809 0.25165 0.0
O132 O 0.96375 0.05275 0.44551 0.0
O133 O 0.9791 0.9714 0.60864 0.0
O134 O 0.03258 0.97043 0.66203 0.0
O135 O 0.93123 0.06342 0.56908 0.0
O136 O 0.02303 0.04152 0.56536 0.0
O137 O 0.05464 0.0039 0.65345 0.0
O138 O 0.01502 0.95398 0.893 0.0
O139 O 0.0038 0.04414 0.82135 0.0
O140 O 0.0013 0.06472 0.66351 0.0
O141 O 0.06695 0.96554 0.88534 0.0
O142 O 0.97836 0.98188 0.79815 0.0
O143 O 0.94823 0.0254 0.74143 0.0
C144 C 0.00657 0.95542 0.62715 0.0
C145 C 0.94271 0.10717 0.45706 0.0
C146 C 0.96911 0.15478 0.37908 0.0
C147 C 0.94344 0.17465 0.41425 0.0
C148 C 0.91716 0.12762 0.49017 0.0
C149 C 0.91763 0.16111 0.46909 0.0
C150 C 0.96874 0.1209 0.40013 0.0
C151 C 0.05109 0.02688 0.58485 0.0
C152 C 0.9405 0.07163 0.47949 0.0
C153 C 0.89214 0.93671 0.37492 0.0
C154 C 0.92048 0.93412 0.316 0.0
C155 C 0.00665 0.06854 0.75889 0.0
C156 C 0.05211 0.91025 0.92581 0.0
C157 C 0.04031 0.85703 0.00186 0.0
C158 C 0.06992 0.84489 0.96257 0.0
C159 C 0.08144 0.89752 0.88615 0.0
C160 C 0.03137 0.88967 0.98244 0.0
C161 C 0.09015 0.86496 0.90428 0.0
C162 C 0.95297 0.00141 0.80513 0.0
C163 C 0.04452 0.94557 0.91958 0.0
H164 H 0.94326 0.20073 0.39825 0.0
H165 H 0.89665 0.11762 0.5322 0.0
H166 H 0.8978 0.17662 0.49499 0.0
H167 H 0.98848 0.10556 0.37245 0.0
H168 H 0.07722 0.81975 0.97627 0.0
H169 H 0.09796 0.91284 0.84287 0.0
H170 H 0.00889 0.89938 0.01449 0.0
H171 H 0.11289 0.85536 0.87414 0.0
Eu172 Eu 0.52086 0.03495 0.78787 0.0
C173 C 0.49325 0.89449 0.58265 0.0
N174 N 0.50805 0.92112 0.54066 0.0
C175 C 0.54717 0.8866 0.45836 0.0
C176 C 0.50498 0.86256 0.56328 0.0
C177 C 0.53472 0.91779 0.47973 0.0
C178 C 0.53216 0.85885 0.49996 0.0
C179 C 0.4514 0.87204 0.6931 0.0
C180 C 0.46675 0.89923 0.64731 0.0
C181 C 0.46274 0.84017 0.67263 0.0
C182 C 0.48942 0.83545 0.60799 0.0
Eu183 Eu 0.48337 0.97195 0.57517 0.0
N184 N 0.45663 0.93045 0.66746 0.0
C185 C 0.42511 0.87768 0.75835 0.0
C186 C 0.4306 0.93605 0.72916 0.0
C187 C 0.41465 0.9098 0.77624 0.0
H188 H 0.54593 0.93915 0.44578 0.0
H189 H 0.39409 0.91433 0.82565 0.0
H190 H 0.4596 0.06742 0.92221 0.0
H191 H 0.62045 0.09589 0.5842 0.0
H192 H 0.42176 0.9606 0.74141 0.0
H193 H 0.41264 0.85742 0.79487 0.0
H194 H 0.58998 0.04904 0.65489 0.0
H195 H 0.56816 0.88395 0.40931 0.0
H196 H 0.45113 0.81898 0.70688 0.0
H197 H 0.49798 0.81072 0.59353 0.0
H198 H 0.43612 0.12204 0.95903 0.0
H199 H 0.54183 0.83471 0.48303 0.0
H200 H 0.60011 0.15243 0.61066 0.0
N201 N 0.49663 0.08595 0.82638 0.0
C202 C 0.51214 0.11302 0.78971 0.0
C203 C 0.45723 0.11985 0.91024 0.0
C204 C 0.5003 0.14481 0.81105 0.0
C205 C 0.47002 0.0889 0.88757 0.0
C206 C 0.47232 0.14795 0.87131 0.0
N207 N 0.55131 0.07802 0.71332 0.0
C208 C 0.58008 0.07323 0.6632 0.0
C209 C 0.55744 0.1367 0.69534 0.0
C210 C 0.54038 0.10899 0.7323 0.0
C211 C 0.58627 0.13179 0.64018 0.0
C212 C 0.59775 0.09992 0.62469 0.0
H213 H 0.46255 0.17193 0.88968 0.0
H214 H 0.50825 0.19697 0.78873 0.0
H215 H 0.55824 0.18989 0.6875 0.0
O216 O 0.56602 0.02644 0.87489 0.0
O217 O 0.50147 0.05902 0.6463 0.0
O218 O 0.50741 0.01907 0.52542 0.0
O219 O 0.52217 0.04757 0.94469 0.0
O220 O 0.55571 -0.00042 0.7107 0.0
O221 O 0.53579 0.99022 0.55125 0.0
O222 O 0.43587 0.974 0.49978 0.0
O223 O 0.50859 0.9496 0.70869 0.0
O224 O 0.49479 0.98751 0.82474 0.0
O225 O 0.47852 0.95544 0.42182 0.0
O226 O 0.44821 0.00941 0.64272 0.0
O227 O 0.46885 0.01582 0.79995 0.0
C228 C 0.49976 0.04892 0.55334 0.0
C229 C 0.56918 0.04056 0.05254 0.0
C230 C 0.6179 0.03378 0.15629 0.0
C231 C 0.60146 0.04982 0.23442 0.0
C232 C 0.55299 0.05569 0.13288 0.0
C233 C 0.56906 0.0602 0.22312 0.0
C234 C 0.60153 0.02906 0.06528 0.0
C235 C 0.55985 0.99102 0.61708 0.0
C236 C 0.55242 0.03809 0.95556 0.0
C237 C 0.51699 0.17238 0.77308 0.0
C238 C 0.54547 0.16835 0.71545 0.0
C239 C 0.50761 0.95916 0.80148 0.0
C240 C 0.43631 0.97935 0.32352 0.0
C241 C 0.39206 0.0035 0.22601 0.0
C242 C 0.41261 0.00326 0.14259 0.0
C243 C 0.45665 0.97986 0.23866 0.0
C244 C 0.40387 0.99141 0.31663 0.0
C245 C 0.44478 0.99186 0.14891 0.0
C246 C 0.44587 0.02098 0.73356 0.0
C247 C 0.44757 0.96324 0.41557 0.0
H248 H 0.61356 0.05418 0.30464 0.0
H249 H 0.52801 0.06454 0.12572 0.0
H250 H 0.55649 0.07211 0.28423 0.0
H251 H 0.61425 0.01725 0.0041 0.0
H252 H 0.40332 0.01126 0.07218 0.0
H253 H 0.48146 0.9703 0.24077 0.0
H254 H 0.38759 0.99061 0.38054 0.0
H255 H 0.46028 0.99175 0.08348 0.0
Eu256 Eu 0.53778 0.49068 0.61599 0.0
C257 C 0.41846 0.47735 0.92164 0.0
N258 N 0.42058 0.49949 0.84637 0.0
C259 C 0.36402 0.49023 0.80529 0.0
C260 C 0.3888 0.4603 0.94049 0.0
C261 C 0.394 0.50639 0.78881 0.0
C262 C 0.36143 0.46699 0.88112 0.0
C263 C 0.44466 0.44837 0.05742 0.0
C264 C 0.44629 0.47113 0.9788 0.0
C265 C 0.41518 0.43124 0.07584 0.0
C266 C 0.38741 0.43706 0.01726 0.0
Eu267 Eu 0.47243 0.52413 0.82271 0.0
N268 N 0.47502 0.487 0.95661 0.0
C269 C 0.47271 0.44363 0.11556 0.0
C270 C 0.50185 0.48371 0.01592 0.0
C271 C 0.50128 0.46173 0.09553 0.0
H272 H 0.39582 0.52456 0.73068 0.0
H273 H 0.52275 0.45901 0.142 0.0
H274 H 0.61276 0.49998 0.72097 0.0
H275 H 0.49114 0.53814 0.26558 0.0
H276 H 0.52339 0.49858 0.00401 0.0
H277 H 0.47238 0.42654 0.17712 0.0
H278 H 0.48982 0.50528 0.4188 0.0
H279 H 0.34293 0.4957 0.75952 0.0
H280 H 0.41355 0.41353 0.13561 0.0
H281 H 0.36484 0.42366 0.03261 0.0
H282 H 0.66384 0.53139 0.69071 0.0
H283 H 0.33818 0.45445 0.89349 0.0
H284 H 0.53973 0.57291 0.22763 0.0
N285 N 0.58782 0.51982 0.59635 0.0
C286 C 0.59009 0.53905 0.51393 0.0
C287 C 0.64317 0.53398 0.64096 0.0
C288 C 0.61912 0.55695 0.49289 0.0
C289 C 0.61398 0.51653 0.65863 0.0
C290 C 0.64571 0.5544 0.55809 0.0
N291 N 0.53551 0.52337 0.47182 0.0
C292 C 0.51026 0.52155 0.40571 0.0
C293 C 0.5655 0.55947 0.3619 0.0
C294 C 0.56338 0.54061 0.4495 0.0
C295 C 0.53892 0.55899 0.29608 0.0
C296 C 0.51136 0.53957 0.31751 0.0
H297 H 0.66845 0.56771 0.54436 0.0
H298 H 0.64291 0.59056 0.3903 0.0
H299 H 0.59612 0.59254 0.2754 0.0
O300 O 0.52981 0.45489 0.49809 0.0
O301 O 0.53222 0.54648 0.63309 0.0
O302 O 0.47914 0.55643 0.68962 0.0
O303 O 0.57743 0.45799 0.56875 0.0
O304 O 0.48292 0.48115 0.59627 0.0
O305 O 0.45363 0.52453 0.66469 0.0
O306 O 0.48616 0.56046 0.93587 0.0
O307 O 0.47328 0.46947 0.79021 0.0
O308 O 0.52623 0.45652 0.7444 0.0
O309 O 0.43587 0.55753 0.88396 0.0
O310 O 0.52697 0.53438 0.82642 0.0
O311 O 0.55611 0.48962 0.77462 0.0
C312 C 0.50719 0.56614 0.651 0.0
C313 C 0.56089 0.40586 0.50318 0.0
C314 C 0.54008 0.35318 0.44083 0.0
C315 C 0.56639 0.33731 0.48798 0.0
C316 C 0.58705 0.38942 0.54895 0.0
C317 C 0.58963 0.35534 0.54156 0.0
C318 C 0.53755 0.38753 0.44885 0.0
C319 C 0.45764 0.50122 0.59751 0.0
C320 C 0.55902 0.44212 0.50543 0.0
C321 C 0.62087 0.57651 0.40724 0.0
C322 C 0.5942 0.57769 0.34185 0.0
C323 C 0.49646 0.44786 0.77265 0.0
C324 C 0.45593 0.61027 0.93178 0.0
C325 C 0.47011 0.66421 1.00077 0.0
C326 C 0.45059 0.67904 0.92793 0.0
C327 C 0.437 0.62584 0.85865 0.0
C328 C 0.47293 0.62971 0.00205 0.0
C329 C 0.4344 0.65998 0.85701 0.0
C330 C 0.55135 0.51395 0.83715 0.0
C331 C 0.4571 0.57395 0.93728 0.0
H332 H 0.56959 0.311 0.48114 0.0
H333 H 0.60577 0.40287 0.58946 0.0
H334 H 0.61003 0.34289 0.57623 0.0
H335 H 0.51754 0.40003 0.41204 0.0
H336 H 0.44826 0.70553 0.92504 0.0
H337 H 0.42398 0.61168 0.80292 0.0
H338 H 0.48777 0.61806 0.0585 0.0
H339 H 0.41968 0.67172 0.80064 0.0
Eu340 Eu 0.02555 0.53803 0.59353 0.0
C341 C 0.02928 0.42384 0.91174 0.0
N342 N 0.01154 0.42508 0.82644 0.0
C343 C 0.0261 0.3696 0.78759 0.0
C344 C 0.04674 0.39529 0.93722 0.0
C345 C 0.00934 0.39851 0.76495 0.0
C346 C 0.045 0.36801 0.87383 0.0
C347 C 0.04803 0.45054 0.06303 0.0
C348 C 0.03034 0.45144 0.97321 0.0
C349 C 0.06587 0.4223 0.08767 0.0
C350 C 0.06541 0.39487 0.02462 0.0
Eu351 Eu 0.98462 0.47492 0.7954 0.0
N352 N 0.01427 0.47914 0.94496 0.0
C353 C 0.04745 0.47819 0.12509 0.0
C354 C 0.01256 0.50565 0.00673 0.0
C355 C 0.02945 0.50577 0.09703 0.0
H356 H 0.99437 0.3994 0.699 0.0
H357 H 0.02834 0.52703 0.14532 0.0
H358 H 0.02457 0.61437 0.69122 0.0
H359 H 0.97372 0.49228 0.24631 0.0
H360 H -0.00248 0.52637 0.98816 0.0
H361 H 0.06056 0.47841 0.19498 0.0
H362 H 0.00762 0.49028 0.39749 0.0
H363 H 0.02436 0.34853 0.73868 0.0
H364 H 0.08008 0.42141 0.15546 0.0
H365 H 0.07935 0.37328 0.04458 0.0
H366 H -0.00237 0.66748 0.65887 0.0
H367 H 0.05798 0.34558 0.89109 0.0
H368 H 0.94266 0.54269 0.2069 0.0
N369 N 0.00251 0.59036 0.56769 0.0
C370 C 0.98305 0.59334 0.48621 0.0
C371 C 0.9932 0.64677 0.61008 0.0
C372 C 0.96746 0.62331 0.46445 0.0
C373 C 0.0082 0.61657 0.62868 0.0
C374 C 0.97261 0.65012 0.52795 0.0
N375 N 0.99346 0.53742 0.44805 0.0
C376 C 0.99299 0.51161 0.38356 0.0
C377 C 0.95936 0.56883 0.33782 0.0
C378 C 0.97869 0.56625 0.42412 0.0
C379 C 0.95706 0.54162 0.27433 0.0
C380 C 0.9744 0.51307 0.29655 0.0
H381 H 0.96107 0.67357 0.51374 0.0
H382 H 0.93497 0.64837 0.36283 0.0
H383 H 0.92811 0.60079 0.25164 0.0
O384 O 0.06421 0.52337 0.48882 0.0
O385 O 0.96938 0.53704 0.60616 0.0
O386 O 0.95692 0.48434 0.65519 0.0
O387 O 0.06219 0.57418 0.54321 0.0
O388 O 0.03277 0.48271 0.57986 0.0
O389 O 0.98599 0.45631 0.63722 0.0
O390 O 0.94327 0.48594 0.8949 0.0
O391 O 0.04019 0.47607 0.77776 0.0
O392 O 0.05498 0.52893 0.73206 0.0
O393 O 0.94987 0.43596 0.83714 0.0
O394 O 0.97659 0.52962 0.80794 0.0
O395 O 0.02326 0.55691 0.75212 0.0
C396 C 0.94819 0.51322 0.62327 0.0
C397 C 0.106 0.56117 0.42453 0.0
C398 C 0.15043 0.54514 0.31122 0.0
C399 C 0.15845 0.57851 0.29848 0.0
C400 C 0.11483 0.59427 0.41113 0.0
C401 C 0.14089 0.60281 0.3485 0.0
C402 C 0.1242 0.53652 0.37506 0.0
C403 C 0.01089 0.45889 0.57477 0.0
C404 C 0.07684 0.55286 0.48581 0.0
C405 C 0.94734 0.62562 0.3802 0.0
C406 C 0.94339 0.5985 0.31694 0.0
C407 C 0.06191 0.49986 0.76758 0.0
C408 C 0.90291 0.44474 0.94752 0.0
C409 C 0.85279 0.45696 0.04087 0.0
C410 C 0.84522 0.4233 0.04354 0.0
C411 C 0.89498 0.41113 0.95175 0.0
C412 C 0.88186 0.46764 0.99365 0.0
C413 C 0.86637 0.40053 0.99988 0.0
C414 C -0.00309 0.5548 0.80899 0.0
C415 C 0.93249 0.45571 0.89245 0.0
H416 H 0.17883 0.58579 0.25114 0.0
H417 H 0.10129 0.61367 0.44798 0.0
H418 H 0.14748 0.6284 0.33853 0.0
H419 H 0.11781 0.51084 0.38501 0.0
H420 H 0.82285 0.41467 0.07927 0.0
H421 H 0.91078 0.393 0.91729 0.0
H422 H 0.88743 0.4937 0.99032 0.0
H423 H 0.86038 0.3746 0.0024 0.0
C424 C 0.10179 0.06415 0.37915 0.0
C425 C 0.11916 0.03662 0.34507 0.0
H426 H 0.06636 0.08254 0.48332 0.0
C427 C 0.11634 0.00676 0.39647 0.0
H428 H 0.10362 0.08744 0.34073 0.0
C429 C 0.09585 0.00421 0.47939 0.0
C430 C 0.07727 0.03129 0.5106 0.0
H431 H 0.12975 0.98526 0.37202 0.0
H432 H 0.09324 0.98061 0.51569 0.0
C433 C 0.08066 0.06139 0.46071 0.0
C434 C 0.50786 0.12112 0.37968 0.0
C435 C 0.48173 0.11514 0.31377 0.0
H436 H 0.5335 0.10511 0.50957 0.0
C437 C 0.46122 0.08773 0.32899 0.0
H438 H 0.52387 0.14225 0.36989 0.0
C439 C 0.46714 0.06634 0.40785 0.0
C440 C 0.49293 0.07264 0.47438 0.0
H441 H 0.44093 0.08261 0.27925 0.0
H442 H 0.45143 0.04499 0.41749 0.0
C443 C 0.51315 0.10022 0.4602 0.0
C444 C 0.40945 0.46481 0.38573 0.0
C445 C 0.39464 0.49288 0.34592 0.0
H446 H 0.44099 0.44552 0.4979 0.0
C447 C 0.39874 0.52331 0.39393 0.0
H448 H 0.40664 0.44106 0.35019 0.0
C449 C 0.41779 0.52573 0.47959 0.0
C450 C 0.43353 0.49788 0.51721 0.0
H451 H 0.38732 0.54527 0.36509 0.0
H452 H 0.42134 0.5496 0.51382 0.0
C453 C 0.42897 0.46735 0.47027 0.0
C454 C 0.98826 0.39976 0.37037 0.0
C455 C 0.01925 0.39267 0.32926 0.0
H456 H 0.96146 0.42584 0.48249 0.0
C457 C 0.04758 0.4066 0.37189 0.0
H458 H 0.96602 0.38927 0.33911 0.0
C459 C 0.04492 0.42771 0.45318 0.0
C460 C 0.01395 0.43466 0.49439 0.0
H461 H 0.07178 0.40156 0.34166 0.0
H462 H 0.06706 0.43866 0.48365 0.0
C463 C 0.98566 0.42033 0.45298 0.0
C464 C 0.88917 0.00982 0.00816 0.0
C465 C 0.88466 0.97675 0.03565 0.0
H466 H 0.91403 0.04366 0.91065 0.0
C467 C 0.90181 0.95219 0.98427 0.0
H468 H 0.87608 0.02923 0.04642 0.0
C469 C 0.92342 0.96045 0.90792 0.0
C470 C 0.92798 0.99339 0.88029 0.0
H471 H 0.89884 0.92653 0.00372 0.0
H472 H 0.93666 0.94095 0.87048 0.0
C473 C 0.91049 0.01807 0.93009 0.0
C474 C 0.53253 0.92596 0.05275 0.0
C475 C 0.54915 0.89719 0.02511 0.0
H476 H 0.50715 0.96882 0.00291 0.0
C477 C 0.55158 0.88881 0.92428 0.0
H478 H 0.53039 0.93294 0.13017 0.0
C479 C 0.53754 0.90869 0.8521 0.0
C480 C 0.52132 0.93777 0.87909 0.0
H481 H 0.56389 0.8665 0.90119 0.0
H482 H 0.53968 0.90133 0.77501 0.0
C483 C 0.51911 0.94636 0.98008 0.0
C484 C 0.60347 0.56752 0.00121 0.0
C485 C 0.62098 0.54443 0.05663 0.0
H486 H 0.56829 0.57583 0.88749 0.0
C487 C 0.61696 0.51074 0.03537 0.0
H488 H 0.60615 0.59361 0.01536 0.0
C489 C 0.59544 0.50045 0.9602 0.0
C490 C 0.57734 0.52374 0.90708 0.0
H491 H 0.63046 0.49243 0.07649 0.0
H492 H 0.59208 0.47444 0.94604 0.0
C493 C 0.58183 0.5573 0.92771 0.0
C494 C 0.94188 0.61291 0.9444 0.0
C495 C 0.96314 0.62636 0.01569 0.0
H496 H 0.93645 0.5802 0.8215 0.0
C497 C -0.00311 0.61872 0.01163 0.0
H498 H 0.91585 0.61852 0.94475 0.0
C499 C 0.00884 0.59705 0.93911 0.0
C500 C 0.98702 0.58259 0.87128 0.0
H501 H 0.01389 0.62899 0.06526 0.0
H502 H 0.03458 0.59026 0.93942 0.0
C503 C 0.95368 0.59116 0.87334 0.0
C504 C 0.03446 0.21595 0.31174 0.0
C505 C 0.02912 0.21897 0.20942 0.0
H506 H 0.01963 0.1921 0.44662 0.0
C507 C 0.00923 0.19572 0.16081 0.0
H508 H 0.04928 0.23401 0.35077 0.0
C509 C 0.99258 0.17147 0.21547 0.0
C510 C 0.99533 0.1706 0.31934 0.0
H511 H 0.00449 0.19796 0.08204 0.0
H512 H 0.97519 0.15551 0.17786 0.0
C513 C 0.01758 0.19199 0.36645 0.0
C514 C 0.30146 0.0018 0.16606 0.0
C515 C 0.29328 0.03535 0.16957 0.0
H516 H 0.33925 0.96557 0.18191 0.0
C517 C 0.31757 0.05817 0.19851 0.0
H518 H 0.28334 0.98354 0.14448 0.0
C519 C 0.3496 0.04774 0.22007 0.0
C520 C 0.35765 0.0143 0.21461 0.0
H521 H 0.31184 0.08398 0.20557 0.0
H522 H 0.36818 0.06577 0.23992 0.0
C523 C 0.33335 0.99142 0.18795 0.0
C524 C 0.49058 0.32472 0.21852 0.0
C525 C 0.48261 0.29227 0.24578 0.0
H526 H 0.51525 0.36938 0.25844 0.0
C527 C 0.48919 0.28198 0.34318 0.0
H528 H 0.48554 0.3336 0.1444 0.0
C529 C 0.50616 0.30257 0.40866 0.0
C530 C 0.51682 0.33391 0.37836 0.0
H531 H 0.48302 0.25732 0.36718 0.0
H532 H 0.51214 0.29341 0.48177 0.0
C533 C 0.50756 0.34533 0.28413 0.0
C534 C 0.21453 0.47943 0.27492 0.0
C535 C 0.22372 0.48498 0.17576 0.0
H536 H 0.18318 0.49398 0.39584 0.0
C537 C 0.20458 0.50578 0.11708 0.0
H538 H 0.22935 0.46383 0.32177 0.0
C539 C 0.1784 0.52313 0.15932 0.0
C540 C 0.17108 0.52004 0.26105 0.0
H541 H 0.21145 0.51057 0.04064 0.0
H542 H 0.16537 0.54075 0.11419 0.0
C543 C 0.18819 0.4967 0.31724 0.0
C544 C 0.01309 0.79503 0.19463 0.0
C545 C 0.9811 0.78712 0.16264 0.0
H546 H 0.05676 0.82375 0.16921 0.0
C547 C 0.96776 0.80488 0.08283 0.0
H548 H 0.02471 0.78146 0.25333 0.0
C549 C 0.98644 0.82884 0.03356 0.0
C550 C 0.01892 0.83536 0.06261 0.0
H551 H 0.94331 0.79931 0.05555 0.0
H552 H 0.97609 0.84105 0.96961 0.0
C553 C 0.03177 0.81893 0.1452 0.0
C554 C 0.70832 0.03338 0.22415 0.0
C555 C 0.71668 0.00026 0.20969 0.0
H556 H 0.67041 0.06977 0.22 0.0
C557 C 0.69274 0.97865 0.17108 0.0
H558 H 0.72654 0.05111 0.24811 0.0
C559 C 0.66084 0.98968 0.15122 0.0
C560 C 0.6522 0.02245 0.17034 0.0
H561 H 0.69852 0.95307 0.15766 0.0
H562 H 0.64268 0.97241 0.12342 0.0
C563 C 0.6763 0.04423 0.20634 0.0
C564 C 0.48674 0.73266 0.18437 0.0
C565 C 0.52124 0.73493 0.18092 0.0
H566 H 0.44351 0.70817 0.12999 0.0
C567 C 0.53889 0.7111 0.12716 0.0
H568 H 0.47238 0.75109 0.22279 0.0
C569 C 0.52229 0.68635 0.07441 0.0
C570 C 0.48776 0.68545 0.07292 0.0
H571 H 0.5655 0.71236 0.12277 0.0
H572 H 0.53637 0.66922 0.02983 0.0
C573 C 0.47017 0.70828 0.13048 0.0
C574 C 0.8121 0.51776 0.21521 0.0
C575 C 0.78085 0.52036 0.17204 0.0
H576 H 0.86017 0.49598 0.20492 0.0
C577 C 0.77421 0.50383 0.08292 0.0
H578 H 0.81761 0.53047 0.28394 0.0
C579 C 0.79804 0.48385 0.03925 0.0
C580 C 0.82913 0.48066 0.08294 0.0
H581 H 0.75014 0.50545 0.04895 0.0
H582 H 0.79204 0.47041 0.97213 0.0
C583 C 0.83631 0.49824 0.17016 0.0
C584 C 0.05469 0.1479 0.7799 0.0
C585 C 0.05229 0.15361 0.8825 0.0
H586 H 0.042 0.1157 0.65924 0.0
C587 C 0.03107 0.13413 0.94007 0.0
H588 H 0.07044 0.16313 0.73383 0.0
C589 C 0.01404 0.10807 0.89717 0.0
C590 C 0.01892 0.10017 0.79691 0.0
H591 H 0.02804 0.13869 0.01884 0.0
H592 H -0.0019 0.09321 0.9436 0.0
C593 C 0.03827 0.12104 0.73729 0.0
C594 C 0.38019 0.0514 0.9065 0.0
C595 C 0.35958 0.06885 0.84282 0.0
H596 H 0.42252 0.02104 0.91982 0.0
C597 C 0.36555 0.06796 0.74 0.0
H598 H 0.37558 0.05108 0.98569 0.0
C599 C 0.39316 0.0514 0.70254 0.0
C600 C 0.41451 0.03513 0.76767 0.0
H601 H 0.34957 0.08086 0.68933 0.0
H602 H 0.39835 0.05218 0.62365 0.0
C603 C 0.40688 0.03417 0.86898 0.0
C604 C 0.44539 0.37121 0.81526 0.0
C605 C 0.46925 0.34647 0.81751 0.0
H606 H 0.43516 0.42203 0.79782 0.0
C607 C 0.50234 0.35493 0.79845 0.0
H608 H 0.41965 0.36557 0.82859 0.0
C609 C 0.51147 0.3878 0.7821 0.0
C610 C 0.48763 0.41269 0.78457 0.0
H611 H 0.52133 0.33638 0.79961 0.0
H612 H 0.53719 0.39376 0.7699 0.0
C613 C 0.45442 0.40378 0.79861 0.0
C614 C 0.13003 0.47623 0.93589 0.0
C615 C 0.15338 0.46425 0.86806 0.0
H616 H 0.08355 0.49968 0.95528 0.0
C617 C 0.14851 0.46884 0.76584 0.0
H618 H 0.13364 0.47381 0.01519 0.0
C619 C 0.11924 0.48282 0.73207 0.0
C620 C 0.09527 0.49302 0.80051 0.0
H621 H 0.16645 0.46016 0.7123 0.0
H622 H 0.11464 0.4842 0.65301 0.0
C623 C 0.10143 0.49095 0.90211 0.0
C624 C 0.03984 0.86902 0.61947 0.0
C625 C 0.01475 0.85226 0.5689 0.0
H626 H 0.05698 0.91487 0.67675 0.0
C627 C 0.98582 0.86917 0.54383 0.0
H628 H 0.06225 0.85662 0.64061 0.0
C629 C 0.98271 0.90257 0.56468 0.0
C630 C 0.00855 0.91972 0.61038 0.0
H631 H 0.96583 0.85683 0.50567 0.0
H632 H 0.96039 0.91497 0.54306 0.0
C633 C 0.03681 0.90247 0.63969 0.0
C634 C 0.63593 0.00456 0.46335 0.0
C635 C 0.6606 -0.00143 0.53339 0.0
H636 H 0.58425 0.00585 0.43379 0.0
C637 C 0.65213 0.98513 0.62566 0.0
H638 H 0.64229 0.01388 0.39066 0.0
C639 C 0.61906 0.98041 0.65055 0.0
C640 C 0.59416 0.98854 0.58272 0.0
H641 H 0.67088 0.97991 0.68025 0.0
H642 H 0.6129 0.97182 0.72444 0.0
C643 C 0.6029 -0.00063 0.48742 0.0
C644 C 0.5045 0.64209 0.49515 0.0
C645 C 0.50455 0.66686 0.56808 0.0
H646 H 0.50575 0.5905 0.46521 0.0
C647 C 0.50795 0.6582 0.66834 0.0
H648 H 0.50223 0.64811 0.41719 0.0
C649 C 0.51003 0.62514 0.69522 0.0
C650 C 0.50952 0.60057 0.62203 0.0
H651 H 0.50804 0.67683 0.72593 0.0
H652 H 0.51144 0.61869 0.77308 0.0
C653 C 0.50707 0.60919 0.52206 0.0
C654 C 0.87425 0.50097 0.4645 0.0
C655 C 0.84874 0.50846 0.5313 0.0
H656 H 0.92618 0.49726 0.44201 0.0
C657 C 0.85644 0.52114 0.62552 0.0
H658 H 0.86896 0.49156 0.39099 0.0
C659 C 0.88933 0.52468 0.65399 0.0
C660 C 0.9146 0.51626 0.58767 0.0
H661 H 0.83715 0.52705 0.67826 0.0
H662 H 0.89502 0.53272 0.72878 0.0
C663 C 0.90694 0.5048 0.49267 0.0
loop_
_geom_bond_atom_site_label_1
_geom_bond_atom_site_label_2
_geom_bond_distance
_geom_bond_site_symmetry_2
_ccdc_geom_bond_type
O0 Cd1 2.300 . S
O0 C7 1.275 . S
Cd1 O0 2.300 . S
Cd1 O9 2.381 . S
Cd1 O10 2.378 . S
O2 Cd3 2.385 . S
O2 C7 1.255 . S
Cd3 O2 2.385 . S
Cd3 O4 2.317 . S
O4 Cd3 2.317 . S
O4 C5 1.232 . S
C5 O4 1.232 . S
C5 O6 1.218 . S
O6 C5 1.218 . S
C7 O0 1.275 . S
C7 O2 1.255 . S
C8 O9 1.258 . S
C8 O10 1.256 . S
O9 Cd1 2.381 . S
O9 C8 1.258 . S
O10 Cd1 2.378 . S
O10 C8 1.256 . S
O11 Cd12 2.289 1_655 S
O11 C18 1.275 . S
Cd12 O11 2.289 1_455 S
Cd12 O20 2.368 1_455 S
Cd12 O21 2.380 . S
O13 Cd14 2.385 . S
O13 C18 1.255 1_455 S
Cd14 O13 2.385 . S
Cd14 O15 2.317 . S
O15 Cd14 2.317 . S
O15 C16 1.232 1_455 S
C16 O15 1.232 1_655 S
C16 O17 1.218 1_655 S
O17 C16 1.218 1_455 S
C18 O11 1.275 . S
C18 O13 1.255 1_655 S
C19 O20 1.258 . S
C19 O21 1.256 1_655 S
O20 Cd12 2.368 1_655 S
O20 C19 1.258 . S
O21 Cd12 2.380 . S
O21 C19 1.256 1_455 S
O22 Cd23 2.300 1_565 S
O22 C29 1.275 . S
Cd23 O22 2.300 1_545 S
Cd23 O31 2.381 1_545 S
Cd23 O32 2.378 . S
O24 Cd25 2.385 . S
O24 C29 1.255 1_545 S
Cd25 O24 2.385 . S
Cd25 O26 2.317 . S
O26 Cd25 2.317 . S
O26 C27 1.232 1_545 S
C27 O26 1.232 1_565 S
C27 O28 1.218 1_565 S
O28 C27 1.218 1_545 S
C29 O22 1.275 . S
C29 O24 1.255 1_565 S
C30 O31 1.258 . S
C30 O32 1.256 1_565 S
O31 Cd23 2.381 1_565 S
O31 C30 1.258 . S
O32 Cd23 2.378 . S
O32 C30 1.256 1_545 S
O33 Cd34 2.300 . S
O33 C40 1.275 . S
Cd34 O33 2.300 . S
Cd34 O42 2.381 . S
Cd34 O43 2.378 . S
O35 Cd36 2.385 . S
O35 C40 1.255 . S
Cd36 O35 2.385 . S
Cd36 O37 2.317 . S
O37 Cd36 2.317 . S
O37 C38 1.232 . S
C38 O37 1.232 . S
C38 O39 1.218 . S
O39 C38 1.218 . S
C40 O33 1.275 . S
C40 O35 1.255 . S
C41 O42 1.258 . S
C41 O43 1.256 . S
O42 Cd34 2.381 . S
O42 C41 1.258 . S
O43 Cd34 2.378 . S
O43 C41 1.256 . S
O44 Cd45 2.300 . S
O44 C51 1.275 . S
Cd45 O44 2.300 . S
Cd45 O53 2.381 . S
Cd45 O54 2.378 . S
O46 Cd47 2.385 1_554 S
O46 C51 1.255 . S
Cd47 O46 2.385 1_556 S
Cd47 O48 2.317 . S
O48 Cd47 2.317 . S
O48 C49 1.232 . S
C49 O48 1.232 . S
C49 O50 1.218 . S
O50 C49 1.218 . S
C51 O44 1.275 . S
C51 O46 1.255 . S
C52 O53 1.258 . S
C52 O54 1.256 . S
O53 Cd45 2.381 . S
O53 C52 1.258 . S
O54 Cd45 2.378 . S
O54 C52 1.256 . S
O55 Cd56 2.300 . S
O55 C62 1.275 . S
Cd56 O55 2.300 . S
Cd56 O64 2.381 . S
Cd56 O65 2.378 . S
O57 Cd58 2.385 1_554 S
O57 C62 1.255 . S
Cd58 O57 2.385 1_556 S
Cd58 O59 2.317 . S
O59 Cd58 2.317 . S
O59 C60 1.232 . S
C60 O59 1.232 . S
C60 O61 1.218 . S
O61 C60 1.218 . S
C62 O55 1.275 . S
C62 O57 1.255 . S
C63 O64 1.258 . S
C63 O65 1.256 . S
O64 Cd56 2.381 . S
O64 C63 1.258 . S
O65 Cd56 2.378 . S
O65 C63 1.256 . S
O66 Cd67 2.300 . S
O66 C73 1.275 . S
Cd67 O66 2.300 . S
Cd67 O75 2.381 . S
Cd67 O76 2.378 . S
O68 Cd69 2.385 1_554 S
O68 C73 1.255 . S
Cd69 O68 2.385 1_556 S
Cd69 O70 2.317 . S
O70 Cd69 2.317 . S
O70 C71 1.232 . S
C71 O70 1.232 . S
C71 O72 1.218 . S
O72 C71 1.218 . S
C73 O66 1.275 . S
C73 O68 1.255 . S
C74 O75 1.258 . S
C74 O76 1.256 . S
O75 Cd67 2.381 . S
O75 C74 1.258 . S
O76 Cd67 2.378 . S
O76 C74 1.256 . S
O77 Cd78 2.300 . S
O77 C84 1.275 . S
Cd78 O77 2.300 . S
Cd78 O86 2.381 . S
Cd78 O87 2.378 . S
O79 Cd80 2.385 1_554 S
O79 C84 1.255 . S
Cd80 O79 2.385 1_556 S
Cd80 O81 2.317 . S
O81 Cd80 2.317 . S
O81 C82 1.232 . S
C82 O81 1.232 . S
C82 O83 1.218 . S
O83 C82 1.218 . S
C84 O77 1.275 . S
C84 O79 1.255 . S
C85 O86 1.258 . S
C85 O87 1.256 . S
O86 Cd78 2.381 . S
O86 C85 1.258 . S
O87 Cd78 2.378 . S
O87 C85 1.256 . S
Eu88 N117 2.600 . S
Eu88 N123 2.562 . S
Eu88 O132 2.462 . S
Eu88 O133 2.373 1_545 S
Eu88 O135 2.432 . S
Eu88 O136 2.291 1_655 S
Eu88 O140 2.335 1_655 S
Eu88 O143 2.372 . S
Eu88 C152 2.787 . S
C89 N90 1.365 . S
C89 C92 1.405 . S
C89 C96 1.448 1_556 S
N90 C89 1.365 . S
N90 C93 1.319 . S
N90 Eu99 2.600 1_545 S
C91 C93 1.397 . S
C91 C94 1.367 . S
C91 H111 0.931 . S
C92 C89 1.405 . S
C92 C94 1.403 . S
C92 C98 1.439 1_556 S
C93 N90 1.319 . S
C93 C91 1.397 . S
C93 H104 0.930 1_545 S
C94 C91 1.367 . S
C94 C92 1.403 . S
C94 H115 0.929 . S
C95 C96 1.430 . S
C95 C97 1.387 . S
C95 C101 1.404 . S
C96 C89 1.448 1_554 S
C96 C95 1.430 . S
C96 N100 1.351 1_554 S
C97 C95 1.387 . S
C97 C98 1.374 . S
C97 H112 0.931 . S
C98 C92 1.439 1_554 S
C98 C97 1.374 . S
C98 H113 0.931 . S
Eu99 N90 2.600 1_565 S
Eu99 N100 2.562 1_565 S
Eu99 O134 2.335 . S
Eu99 O137 2.372 . S
Eu99 O138 2.462 . S
Eu99 O139 2.373 1_565 S
Eu99 O141 2.432 . S
Eu99 O142 2.291 1_465 S
Eu99 C163 2.787 . S
N100 C96 1.351 1_556 S
N100 Eu99 2.562 1_545 S
N100 C102 1.325 1_556 S
C101 C95 1.404 . S
C101 C103 1.366 . S
C101 H109 0.930 . S
C102 N100 1.325 1_554 S
C102 C103 1.416 . S
C102 H108 0.929 1_455 S
C103 C101 1.366 . S
C103 C102 1.416 . S
C103 H105 0.935 . S
H104 C93 0.930 1_565 S
H105 C103 0.935 . S
H106 C121 0.930 . S
H107 C128 0.930 1_455 S
H108 C102 0.929 1_655 S
H109 C101 0.930 . S
H110 C124 0.929 1_455 S
H111 C91 0.931 . S
H112 C97 0.931 . S
H113 C98 0.931 . S
H114 C119 0.931 . S
H115 C94 0.929 . S
H116 C127 0.930 . S
N117 Eu88 2.600 . S
N117 C118 1.366 . S
N117 C121 1.319 . S
C118 N117 1.366 . S
C118 C120 1.404 1_545 S
C118 C126 1.447 1_545 S
C119 H114 0.931 . S
C119 C121 1.397 . S
C119 C122 1.367 1_545 S
C120 C118 1.404 1_565 S
C120 C122 1.403 . S
C120 C153 1.439 . S
C121 H106 0.930 . S
C121 N117 1.319 . S
C121 C119 1.397 . S
C122 C119 1.367 1_565 S
C122 C120 1.403 . S
C122 H129 0.929 . S
N123 Eu88 2.562 . S
N123 C124 1.325 . S
N123 C126 1.351 1_545 S
C124 H110 0.929 1_655 S
C124 N123 1.325 . S
C124 C128 1.416 1_545 S
C125 C126 1.430 . S
C125 C127 1.404 . S
C125 C154 1.387 . S
C126 C118 1.447 1_565 S
C126 N123 1.351 1_565 S
C126 C125 1.430 . S
C127 H116 0.930 . S
C127 C125 1.404 . S
C127 C128 1.366 . S
C128 H107 0.930 1_655 S
C128 C124 1.416 1_565 S
C128 C127 1.366 . S
H129 C122 0.929 . S
H130 C153 0.931 . S
H131 C154 0.931 . S
O132 Eu88 2.462 . S
O132 C152 1.252 . S
O133 Eu88 2.373 1_565 S
O133 C144 1.249 . S
O134 Eu99 2.335 . S
O134 C144 1.264 1_455 S
O135 Eu88 2.432 . S
O135 C152 1.268 . S
O136 Eu88 2.291 1_455 S
O136 C151 1.255 . S
O137 Eu99 2.372 . S
O137 C151 1.257 1_565 S
O138 Eu99 2.462 . S
O138 C163 1.252 . S
O139 Eu99 2.373 1_545 S
O139 C155 1.249 . S
O140 Eu88 2.335 1_455 S
O140 C155 1.264 . S
O141 Eu99 2.432 . S
O141 C163 1.268 . S
O142 Eu99 2.291 1_645 S
O142 C162 1.255 . S
O143 Eu88 2.372 . S
O143 C162 1.257 . S
C144 O133 1.249 . S
C144 O134 1.264 1_655 S
C145 C148 1.382 . S
C145 C150 1.390 . S
C145 C152 1.506 . S
C146 C147 1.398 . S
C146 C150 1.392 . S
C147 C146 1.398 . S
C147 C149 1.372 . S
C147 H164 0.931 . S
C148 C145 1.382 . S
C148 C149 1.390 . S
C148 H165 0.931 . S
C149 C147 1.372 . S
C149 C148 1.390 . S
C149 H166 0.929 . S
C150 C145 1.390 . S
C150 C146 1.392 . S
C150 H167 0.930 1_655 S
C151 O136 1.255 . S
C151 O137 1.257 1_545 S
C152 Eu88 2.787 . S
C152 O132 1.252 . S
C152 O135 1.268 . S
C152 C145 1.506 . S
C153 C120 1.439 . S
C153 H130 0.931 . S
C153 C154 1.374 . S
C154 C125 1.387 . S
C154 H131 0.931 . S
C154 C153 1.374 . S
C155 O139 1.249 . S
C155 O140 1.264 . S
C156 C159 1.382 . S
C156 C160 1.390 1_556 S
C156 C163 1.506 . S
C157 C158 1.398 . S
C157 C160 1.392 . S
C158 C157 1.398 . S
C158 C161 1.372 1_554 S
C158 H168 0.931 . S
C159 C156 1.382 . S
C159 C161 1.390 . S
C159 H169 0.931 . S
C160 C156 1.390 1_554 S
C160 C157 1.392 . S
C160 H170 0.930 . S
C161 C158 1.372 1_556 S
C161 C159 1.390 . S
C161 H171 0.929 . S
C162 O142 1.255 . S
C162 O143 1.257 . S
C163 Eu99 2.787 . S
C163 O138 1.252 . S
C163 O141 1.268 . S
C163 C156 1.506 . S
H164 C147 0.931 . S
H165 C148 0.931 . S
H166 C149 0.929 . S
H167 C150 0.930 1_455 S
H168 C158 0.931 . S
H169 C159 0.931 . S
H170 C160 0.930 . S
H171 C161 0.929 . S
Eu172 N201 2.600 . S
Eu172 N207 2.562 . S
Eu172 O216 2.462 . S
Eu172 O217 2.373 . S
Eu172 O219 2.432 . S
Eu172 O220 2.291 . S
Eu172 O224 2.335 1_545 S
Eu172 O227 2.372 . S
Eu172 C236 2.787 . S
C173 N174 1.365 . S
C173 C176 1.405 . S
C173 C180 1.448 . S
N174 C173 1.365 . S
N174 C177 1.319 . S
N174 Eu183 2.600 . S
C175 C177 1.397 . S
C175 C178 1.367 . S
C175 H195 0.931 . S
C176 C173 1.405 . S
C176 C178 1.403 . S
C176 C182 1.439 . S
C177 N174 1.319 . S
C177 C175 1.397 . S
C177 H188 0.930 . S
C178 C175 1.367 . S
C178 C176 1.403 . S
C178 H199 0.929 . S
C179 C180 1.430 . S
C179 C181 1.387 . S
C179 C185 1.404 . S
C180 C173 1.448 . S
C180 C179 1.430 . S
C180 N184 1.351 . S
C181 C179 1.387 . S
C181 C182 1.374 . S
C181 H196 0.931 . S
C182 C176 1.439 . S
C182 C181 1.374 . S
C182 H197 0.931 . S
Eu183 N174 2.600 . S
Eu183 N184 2.562 . S
Eu183 O218 2.335 1_565 S
Eu183 O221 2.372 . S
Eu183 O222 2.462 . S
Eu183 O223 2.373 . S
Eu183 O225 2.432 . S
Eu183 O226 2.291 1_565 S
Eu183 C247 2.787 . S
N184 C180 1.351 . S
N184 Eu183 2.562 . S
N184 C186 1.325 . S
C185 C179 1.404 . S
C185 C187 1.366 . S
C185 H193 0.930 . S
C186 N184 1.325 . S
C186 C187 1.416 . S
C186 H192 0.929 . S
C187 C185 1.366 . S
C187 C186 1.416 . S
C187 H189 0.930 . S
H188 C177 0.930 . S
H189 C187 0.930 . S
H190 C205 0.930 . S
H191 C212 0.930 . S
H192 C186 0.929 . S
H193 C185 0.930 . S
H194 C208 0.929 . S
H195 C175 0.931 . S
H196 C181 0.931 . S
H197 C182 0.931 . S
H198 C203 0.934 . S
H199 C178 0.929 . S
H200 C211 0.930 . S
N201 Eu172 2.600 . S
N201 C202 1.365 . S
N201 C205 1.319 . S
C202 N201 1.365 . S
C202 C204 1.405 . S
C202 C210 1.448 . S
C203 H198 0.934 . S
C203 C205 1.397 . S
C203 C206 1.367 . S
C204 C202 1.405 . S
C204 C206 1.403 . S
C204 C237 1.439 . S
C205 H190 0.930 . S
C205 N201 1.319 . S
C205 C203 1.397 . S
C206 C203 1.367 . S
C206 C204 1.403 . S
C206 H213 0.929 . S
N207 Eu172 2.562 . S
N207 C208 1.325 . S
N207 C210 1.351 . S
C208 H194 0.929 . S
C208 N207 1.325 . S
C208 C212 1.416 . S
C209 C210 1.430 . S
C209 C211 1.404 . S
C209 C238 1.387 . S
C210 C202 1.448 . S
C210 N207 1.351 . S
C210 C209 1.430 . S
C211 H200 0.930 . S
C211 C209 1.404 . S
C211 C212 1.366 . S
C212 H191 0.930 . S
C212 C208 1.416 . S
C212 C211 1.366 . S
H213 C206 0.929 . S
H214 C237 0.931 . S
H215 C238 0.931 . S
O216 Eu172 2.462 . S
O216 C236 1.252 . S
O217 Eu172 2.373 . S
O217 C228 1.249 . S
O218 Eu183 2.335 1_545 S
O218 C228 1.264 . S
O219 Eu172 2.432 . S
O219 C236 1.268 . S
O220 Eu172 2.291 . S
O220 C235 1.255 1_545 S
O221 Eu183 2.372 . S
O221 C235 1.257 . S
O222 Eu183 2.462 . S
O222 C247 1.252 . S
O223 Eu183 2.373 . S
O223 C239 1.249 . S
O224 Eu172 2.335 1_565 S
O224 C239 1.264 . S
O225 Eu183 2.432 . S
O225 C247 1.268 . S
O226 Eu183 2.291 1_545 S
O226 C246 1.255 . S
O227 Eu172 2.372 . S
O227 C246 1.257 . S
C228 O217 1.249 . S
C228 O218 1.264 . S
C229 C232 1.382 . S
C229 C234 1.390 . S
C229 C236 1.506 1_554 S
C230 C231 1.398 . S
C230 C234 1.392 . S
C231 C230 1.398 . S
C231 C233 1.372 . S
C231 H248 0.931 . S
C232 C229 1.382 . S
C232 C233 1.390 . S
C232 H249 0.931 . S
C233 C231 1.372 . S
C233 C232 1.390 . S
C233 H250 0.929 . S
C234 C229 1.390 . S
C234 C230 1.392 . S
C234 H251 0.930 1_554 S
C235 O220 1.255 1_565 S
C235 O221 1.257 . S
C236 Eu172 2.787 . S
C236 O216 1.252 . S
C236 O219 1.268 . S
C236 C229 1.506 1_556 S
C237 C204 1.439 . S
C237 H214 0.931 . S
C237 C238 1.374 . S
C238 C209 1.387 . S
C238 H215 0.931 . S
C238 C237 1.374 . S
C239 O223 1.249 . S
C239 O224 1.264 . S
C240 C243 1.382 . S
C240 C244 1.390 . S
C240 C247 1.506 . S
C241 C242 1.398 . S
C241 C244 1.392 . S
C242 C241 1.398 . S
C242 C245 1.372 . S
C242 H252 0.931 . S
C243 C240 1.382 . S
C243 C245 1.390 . S
C243 H253 0.931 . S
C244 C240 1.390 . S
C244 C241 1.392 . S
C244 H254 0.930 1_565 S
C245 C242 1.372 . S
C245 C243 1.390 . S
C245 H255 0.929 . S
C246 O226 1.255 . S
C246 O227 1.257 . S
C247 Eu183 2.787 . S
C247 O222 1.252 . S
C247 O225 1.268 . S
C247 C240 1.506 . S
H248 C231 0.931 . S
H249 C232 0.931 . S
H250 C233 0.929 . S
H251 C234 0.930 1_556 S
H252 C242 0.931 . S
H253 C243 0.931 . S
H254 C244 0.930 1_545 S
H255 C245 0.929 . S
Eu256 N285 2.600 . S
Eu256 N291 2.562 . S
Eu256 O300 2.462 . S
Eu256 O301 2.373 . S
Eu256 O303 2.432 . S
Eu256 O304 2.291 . S
Eu256 O308 2.335 . S
Eu256 O311 2.372 . S
Eu256 C320 2.787 . S
C257 N258 1.365 . S
C257 C260 1.405 . S
C257 C264 1.448 1_556 S
N258 C257 1.365 . S
N258 C261 1.319 . S
N258 Eu267 2.600 . S
C259 C261 1.397 . S
C259 C262 1.367 . S
C259 H279 0.931 . S
C260 C257 1.405 . S
C260 C262 1.403 . S
C260 C266 1.439 1_556 S
C261 N258 1.319 . S
C261 C259 1.397 . S
C261 H272 0.930 . S
C262 C259 1.367 . S
C262 C260 1.403 . S
C262 H283 0.929 . S
C263 C264 1.430 . S
C263 C265 1.387 . S
C263 C269 1.404 . S
C264 C257 1.448 1_554 S
C264 C263 1.430 . S
C264 N268 1.351 1_554 S
C265 C263 1.387 . S
C265 C266 1.374 . S
C265 H280 0.931 . S
C266 C260 1.439 1_554 S
C266 C265 1.374 . S
C266 H281 0.931 . S
Eu267 N258 2.600 . S
Eu267 N268 2.562 . S
Eu267 O302 2.335 . S
Eu267 O305 2.372 . S
Eu267 O306 2.462 . S
Eu267 O307 2.373 . S
Eu267 O309 2.432 . S
Eu267 O310 2.291 . S
Eu267 C331 2.787 . S
N268 C264 1.351 1_556 S
N268 Eu267 2.562 . S
N268 C270 1.325 1_556 S
C269 C263 1.404 . S
C269 C271 1.366 . S
C269 H277 0.930 . S
C270 N268 1.325 1_554 S
C270 C271 1.416 . S
C270 H276 0.929 . S
C271 C269 1.366 . S
C271 C270 1.416 . S
C271 H273 0.930 . S
H272 C261 0.930 . S
H273 C271 0.930 . S
H274 C289 0.930 . S
H275 C296 0.930 . S
H276 C270 0.929 . S
H277 C269 0.930 . S
H278 C292 0.929 . S
H279 C259 0.931 . S
H280 C265 0.931 . S
H281 C266 0.931 . S
H282 C287 0.931 . S
H283 C262 0.929 . S
H284 C295 0.930 . S
N285 Eu256 2.600 . S
N285 C286 1.365 . S
N285 C289 1.319 . S
C286 N285 1.365 . S
C286 C288 1.405 . S
C286 C294 1.448 . S
C287 H282 0.931 . S
C287 C289 1.397 . S
C287 C290 1.367 . S
C288 C286 1.405 . S
C288 C290 1.403 . S
C288 C321 1.439 . S
C289 H274 0.930 . S
C289 N285 1.319 . S
C289 C287 1.397 . S
C290 C287 1.367 . S
C290 C288 1.403 . S
C290 H297 0.929 . S
N291 Eu256 2.562 . S
N291 C292 1.325 . S
N291 C294 1.351 . S
C292 H278 0.929 . S
C292 N291 1.325 . S
C292 C296 1.416 . S
C293 C294 1.430 . S
C293 C295 1.404 . S
C293 C322 1.387 . S
C294 C286 1.448 . S
C294 N291 1.351 . S
C294 C293 1.430 . S
C295 H284 0.930 . S
C295 C293 1.404 . S
C295 C296 1.366 . S
C296 H275 0.930 . S
C296 C292 1.416 . S
C296 C295 1.366 . S
H297 C290 0.929 . S
H298 C321 0.931 . S
H299 C322 0.931 . S
O300 Eu256 2.462 . S
O300 C320 1.252 . S
O301 Eu256 2.373 . S
O301 C312 1.249 . S
O302 Eu267 2.335 . S
O302 C312 1.264 . S
O303 Eu256 2.432 . S
O303 C320 1.268 . S
O304 Eu256 2.291 . S
O304 C319 1.255 . S
O305 Eu267 2.372 . S
O305 C319 1.257 . S
O306 Eu267 2.462 . S
O306 C331 1.252 . S
O307 Eu267 2.373 . S
O307 C323 1.249 . S
O308 Eu256 2.335 . S
O308 C323 1.264 . S
O309 Eu267 2.432 . S
O309 C331 1.268 . S
O310 Eu267 2.291 . S
O310 C330 1.255 . S
O311 Eu256 2.372 . S
O311 C330 1.257 . S
C312 O301 1.249 . S
C312 O302 1.264 . S
C313 C316 1.382 . S
C313 C318 1.390 . S
C313 C320 1.506 . S
C314 C315 1.398 . S
C314 C318 1.392 . S
C315 C314 1.398 . S
C315 C317 1.372 . S
C315 H332 0.931 . S
C316 C313 1.382 . S
C316 C317 1.390 . S
C316 H333 0.931 . S
C317 C315 1.372 . S
C317 C316 1.390 . S
C317 H334 0.929 . S
C318 C313 1.390 . S
C318 C314 1.392 . S
C318 H335 0.930 . S
C319 O304 1.255 . S
C319 O305 1.257 . S
C320 Eu256 2.787 . S
C320 O300 1.252 . S
C320 O303 1.268 . S
C320 C313 1.506 . S
C321 C288 1.439 . S
C321 H298 0.931 . S
C321 C322 1.374 . S
C322 C293 1.387 . S
C322 H299 0.931 . S
C322 C321 1.374 . S
C323 O307 1.249 . S
C323 O308 1.264 . S
C324 C327 1.382 . S
C324 C328 1.390 1_556 S
C324 C331 1.506 . S
C325 C326 1.398 . S
C325 C328 1.392 . S
C326 C325 1.398 . S
C326 C329 1.372 1_554 S
C326 H336 0.931 . S
C327 C324 1.382 . S
C327 C329 1.390 . S
C327 H337 0.931 . S
C328 C324 1.390 1_554 S
C328 C325 1.392 . S
C328 H338 0.930 . S
C329 C326 1.372 1_556 S
C329 C327 1.390 . S
C329 H339 0.929 . S
C330 O310 1.255 . S
C330 O311 1.257 . S
C331 Eu267 2.787 . S
C331 O306 1.252 . S
C331 O309 1.268 . S
C331 C324 1.506 . S
H332 C315 0.931 . S
H333 C316 0.931 . S
H334 C317 0.929 . S
H335 C318 0.930 . S
H336 C326 0.931 . S
H337 C327 0.931 . S
H338 C328 0.930 . S
H339 C329 0.929 . S
Eu340 N369 2.600 . S
Eu340 N375 2.562 . S
Eu340 O384 2.462 . S
Eu340 O385 2.373 1_455 S
Eu340 O387 2.432 . S
Eu340 O388 2.291 . S
Eu340 O392 2.335 . S
Eu340 O395 2.372 . S
Eu340 C404 2.787 . S
C341 N342 1.374 . S
C341 C344 1.405 . S
C341 C348 1.448 1_556 S
N342 C341 1.374 . S
N342 C345 1.317 1_455 S
N342 Eu351 2.596 1_455 S
C343 C345 1.397 1_455 S
C343 C346 1.367 . S
C343 H363 0.931 . S
C344 C341 1.405 . S
C344 C346 1.403 . S
C344 C350 1.439 1_556 S
C345 N342 1.317 1_655 S
C345 C343 1.397 1_655 S
C345 H356 0.930 . S
C346 C343 1.367 . S
C346 C344 1.403 . S
C346 H367 0.929 . S
C347 C348 1.430 . S
C347 C349 1.387 . S
C347 C353 1.404 . S
C348 C341 1.448 1_554 S
C348 C347 1.430 . S
C348 N352 1.351 1_554 S
C349 C347 1.387 . S
C349 C350 1.374 . S
C349 H364 0.931 . S
C350 C344 1.439 1_554 S
C350 C349 1.374 . S
C350 H365 0.931 . S
Eu351 N342 2.596 1_655 S
Eu351 N352 2.562 1_655 S
Eu351 O386 2.335 . S
Eu351 O389 2.372 . S
Eu351 O390 2.462 . S
Eu351 O391 2.373 1_655 S
Eu351 O393 2.432 . S
Eu351 O394 2.286 1_655 S
Eu351 C415 2.787 . S
N352 C348 1.351 1_556 S
N352 Eu351 2.562 1_455 S
N352 C354 1.325 1_556 S
C353 C347 1.404 . S
C353 C355 1.366 . S
C353 H361 0.930 . S
C354 N352 1.325 1_554 S
C354 C355 1.416 . S
C354 H360 0.929 . S
C355 C353 1.366 . S
C355 C354 1.416 . S
C355 H357 0.930 . S
H356 C345 0.930 . S
H357 C355 0.930 . S
H358 C373 0.930 . S
H359 C380 0.930 . S
H360 C354 0.929 . S
H361 C353 0.930 . S
H362 C376 0.929 . S
H363 C343 0.931 . S
H364 C349 0.931 . S
H365 C350 0.931 . S
H366 C371 0.931 . S
H367 C346 0.929 . S
H368 C379 0.930 . S
N369 Eu340 2.600 . S
N369 C370 1.357 1_455 S
N369 C373 1.319 . S
C370 N369 1.357 1_655 S
C370 C372 1.412 . S
C370 C378 1.449 . S
C371 H366 0.931 . S
C371 C373 1.397 . S
C371 C374 1.367 1_455 S
C372 C370 1.412 . S
C372 C374 1.403 . S
C372 C405 1.439 . S
C373 H358 0.930 . S
C373 N369 1.319 . S
C373 C371 1.397 . S
C374 C371 1.367 1_655 S
C374 C372 1.403 . S
C374 H381 0.929 . S
N375 Eu340 2.562 . S
N375 C376 1.325 . S
N375 C378 1.351 1_455 S
C376 H362 0.929 . S
C376 N375 1.325 . S
C376 C380 1.416 1_455 S
C377 C378 1.430 . S
C377 C379 1.404 . S
C377 C406 1.387 . S
C378 C370 1.449 . S
C378 N375 1.351 1_655 S
C378 C377 1.430 . S
C379 H368 0.930 . S
C379 C377 1.404 . S
C379 C380 1.366 . S
C380 H359 0.930 . S
C380 C376 1.416 1_655 S
C380 C379 1.366 . S
H381 C374 0.929 . S
H382 C405 0.931 . S
H383 C406 0.931 . S
O384 Eu340 2.462 . S
O384 C404 1.252 . S
O385 Eu340 2.373 1_655 S
O385 C396 1.249 . S
O386 Eu351 2.335 . S
O386 C396 1.264 . S
O387 Eu340 2.432 . S
O387 C404 1.268 . S
O388 Eu340 2.291 . S
O388 C403 1.255 . S
O389 Eu351 2.372 . S
O389 C403 1.257 1_655 S
O390 Eu351 2.462 . S
O390 C415 1.252 . S
O391 Eu351 2.373 1_455 S
O391 C407 1.249 . S
O392 Eu340 2.335 . S
O392 C407 1.264 . S
O393 Eu351 2.432 . S
O393 C415 1.268 . S
O394 Eu351 2.286 1_455 S
O394 C414 1.259 . S
O395 Eu340 2.372 . S
O395 C414 1.257 . S
C396 O385 1.249 . S
C396 O386 1.264 . S
C397 C400 1.382 . S
C397 C402 1.390 . S
C397 C404 1.506 . S
C398 C399 1.398 . S
C398 C402 1.392 . S
C399 C398 1.398 . S
C399 C401 1.372 . S
C399 H416 0.931 . S
C400 C397 1.382 . S
C400 C401 1.390 . S
C400 H417 0.931 . S
C401 C399 1.372 . S
C401 C400 1.390 . S
C401 H418 0.929 . S
C402 C397 1.390 . S
C402 C398 1.392 . S
C402 H419 0.930 . S
C403 O388 1.255 . S
C403 O389 1.257 1_455 S
C404 Eu340 2.787 . S
C404 O384 1.252 . S
C404 O387 1.268 . S
C404 C397 1.506 . S
C405 C372 1.439 . S
C405 H382 0.931 . S
C405 C406 1.374 . S
C406 C377 1.387 . S
C406 H383 0.931 . S
C406 C405 1.374 . S
C407 O391 1.249 . S
C407 O392 1.264 . S
C408 C411 1.382 . S
C408 C412 1.390 1_556 S
C408 C415 1.506 . S
C409 C410 1.398 . S
C409 C412 1.392 . S
C410 C409 1.398 . S
C410 C413 1.372 1_554 S
C410 H420 0.931 . S
C411 C408 1.382 . S
C411 C413 1.390 . S
C411 H421 0.931 . S
C412 C408 1.390 1_554 S
C412 C409 1.392 . S
C412 H422 0.930 . S
C413 C410 1.372 1_556 S
C413 C411 1.390 . S
C413 H423 0.929 . S
C414 O394 1.259 . S
C414 O395 1.257 . S
C415 Eu351 2.787 . S
C415 O390 1.252 . S
C415 O393 1.268 . S
C415 C408 1.506 . S
H416 C399 0.931 . S
H417 C400 0.931 . S
H418 C401 0.929 . S
H419 C402 0.930 . S
H420 C410 0.931 . S
H421 C411 0.931 . S
H422 C412 0.930 . S
H423 C413 0.929 . S
C424 C425 1.387 . S
C424 H428 0.950 . S
C424 C433 1.390 . S
C425 C424 1.387 . S
C425 C427 1.387 . S
H426 C433 0.950 . S
C427 C425 1.387 . S
C427 C429 1.390 1_545 S
C427 H431 0.950 1_545 S
H428 C424 0.950 . S
C429 C427 1.390 1_565 S
C429 C430 1.387 1_565 S
C429 H432 0.950 . S
C430 C429 1.387 1_545 S
C430 C433 1.387 . S
H431 C427 0.950 1_565 S
H432 C429 0.950 . S
C433 C424 1.390 . S
C433 H426 0.950 . S
C433 C430 1.387 . S
C434 C435 1.387 . S
C434 H438 0.950 . S
C434 C443 1.390 . S
C435 C434 1.387 . S
C435 C437 1.387 . S
H436 C443 0.950 . S
C437 C435 1.387 . S
C437 C439 1.390 . S
C437 H441 0.950 . S
H438 C434 0.950 . S
C439 C437 1.390 . S
C439 C440 1.387 . S
C439 H442 0.950 . S
C440 C439 1.387 . S
C440 C443 1.387 . S
H441 C437 0.950 . S
H442 C439 0.950 . S
C443 C434 1.390 . S
C443 H436 0.950 . S
C443 C440 1.387 . S
C444 C445 1.387 . S
C444 H448 0.950 . S
C444 C453 1.390 . S
C445 C444 1.387 . S
C445 C447 1.387 . S
H446 C453 0.950 . S
C447 C445 1.387 . S
C447 C449 1.390 . S
C447 H451 0.950 . S
H448 C444 0.950 . S
C449 C447 1.390 . S
C449 C450 1.387 . S
C449 H452 0.950 . S
C450 C449 1.387 . S
C450 C453 1.387 . S
H451 C447 0.950 . S
H452 C449 0.950 . S
C453 C444 1.390 . S
C453 H446 0.950 . S
C453 C450 1.387 . S
C454 C455 1.387 . S
C454 H458 0.950 . S
C454 C463 1.390 . S
C455 C454 1.387 . S
C455 C457 1.387 . S
H456 C463 0.949 1_655 S
C457 C455 1.387 . S
C457 C459 1.390 . S
C457 H461 0.950 . S
H458 C454 0.950 . S
C459 C457 1.390 . S
C459 C460 1.387 . S
C459 H462 0.950 . S
C460 C459 1.387 . S
C460 C463 1.387 . S
H461 C457 0.950 . S
H462 C459 0.950 . S
C463 C454 1.390 . S
C463 H456 0.949 1_455 S
C463 C460 1.387 . S
C464 C465 1.387 1_545 S
C464 H468 0.950 . S
C464 C473 1.390 1_554 S
C465 C464 1.387 1_565 S
C465 C467 1.387 . S
H466 C473 0.950 . S
C467 C465 1.387 . S
C467 C469 1.390 1_554 S
C467 H471 0.950 . S
H468 C464 0.950 . S
C469 C467 1.390 1_556 S
C469 C470 1.387 . S
C469 H472 0.950 . S
C470 C469 1.387 . S
C470 C473 1.387 1_565 S
H471 C467 0.950 . S
H472 C469 0.950 . S
C473 C464 1.390 1_556 S
C473 H466 0.950 . S
C473 C470 1.387 1_545 S
C474 C475 1.387 . S
C474 H478 0.950 . S
C474 C483 1.390 . S
C475 C474 1.387 . S
C475 C477 1.387 . S
H476 C483 0.950 . S
C477 C475 1.387 . S
C477 C479 1.390 1_554 S
C477 H481 0.950 . S
H478 C474 0.950 . S
C479 C477 1.390 1_556 S
C479 C480 1.387 . S
C479 H482 0.950 . S
C480 C479 1.387 . S
C480 C483 1.387 1_556 S
H481 C477 0.950 . S
H482 C479 0.950 . S
C483 C474 1.390 . S
C483 H476 0.950 . S
C483 C480 1.387 1_554 S
C484 C485 1.387 . S
C484 H488 0.950 . S
C484 C493 1.390 1_554 S
C485 C484 1.387 . S
C485 C487 1.387 . S
H486 C493 0.950 . S
C487 C485 1.387 . S
C487 C489 1.390 1_554 S
C487 H491 0.950 . S
H488 C484 0.950 . S
C489 C487 1.390 1_556 S
C489 C490 1.387 . S
C489 H492 0.950 . S
C490 C489 1.387 . S
C490 C493 1.387 . S
H491 C487 0.950 . S
H492 C489 0.950 . S
C493 C484 1.390 1_556 S
C493 H486 0.950 . S
C493 C490 1.387 . S
C494 C495 1.387 . S
C494 H498 0.950 . S
C494 C503 1.390 1_554 S
C495 C494 1.387 . S
C495 C497 1.387 1_655 S
H496 C503 0.950 . S
C497 C495 1.387 1_455 S
C497 C499 1.390 . S
C497 H501 0.950 . S
H498 C494 0.950 . S
C499 C497 1.390 . S
C499 C500 1.387 1_454 S
C499 H502 0.950 1_554 S
C500 C499 1.387 1_656 S
C500 C503 1.387 . S
H501 C497 0.950 . S
H502 C499 0.950 1_556 S
C503 C494 1.390 1_556 S
C503 H496 0.950 . S
C503 C500 1.387 . S
C504 C505 1.387 . S
C504 H508 0.950 . S
C504 C513 1.390 . S
C505 C504 1.387 . S
C505 C507 1.387 . S
H506 C513 0.950 . S
C507 C505 1.387 . S
C507 C509 1.390 . S
C507 H511 0.950 . S
H508 C504 0.950 . S
C509 C507 1.390 . S
C509 C510 1.387 . S
C509 H512 0.950 1_455 S
C510 C509 1.387 . S
C510 C513 1.387 . S
H511 C507 0.950 . S
H512 C509 0.950 1_655 S
C513 C504 1.390 . S
C513 H506 0.950 . S
C513 C510 1.387 . S
C514 C515 1.387 . S
C514 H518 0.950 1_545 S
C514 C523 1.390 1_545 S
C515 C514 1.387 . S
C515 C517 1.387 . S
H516 C523 0.950 . S
C517 C515 1.387 . S
C517 C519 1.390 . S
C517 H521 0.950 . S
H518 C514 0.950 1_565 S
C519 C517 1.390 . S
C519 C520 1.387 . S
C519 H522 0.950 . S
C520 C519 1.387 . S
C520 C523 1.387 1_545 S
H521 C517 0.950 . S
H522 C519 0.950 . S
C523 C514 1.390 1_565 S
C523 H516 0.950 . S
C523 C520 1.387 1_565 S
C524 C525 1.387 . S
C524 H528 0.950 . S
C524 C533 1.390 . S
C525 C524 1.387 . S
C525 C527 1.387 . S
H526 C533 0.950 . S
C527 C525 1.387 . S
C527 C529 1.390 . S
C527 H531 0.950 . S
H528 C524 0.950 . S
C529 C527 1.390 . S
C529 C530 1.387 . S
C529 H532 0.950 . S
C530 C529 1.387 . S
C530 C533 1.387 . S
H531 C527 0.950 . S
H532 C529 0.950 . S
C533 C524 1.390 . S
C533 H526 0.950 . S
C533 C530 1.387 . S
C534 C535 1.387 . S
C534 H538 0.950 . S
C534 C543 1.390 . S
C535 C534 1.387 . S
C535 C537 1.387 . S
H536 C543 0.950 . S
C537 C535 1.387 . S
C537 C539 1.390 . S
C537 H541 0.950 . S
H538 C534 0.950 . S
C539 C537 1.390 . S
C539 C540 1.387 . S
C539 H542 0.950 . S
C540 C539 1.387 . S
C540 C543 1.387 . S
H541 C537 0.950 . S
H542 C539 0.950 . S
C543 C534 1.390 . S
C543 H536 0.950 . S
C543 C540 1.387 . S
C544 C545 1.387 . S
C544 H548 0.950 . S
C544 C553 1.390 1_655 S
C545 C544 1.387 . S
C545 C547 1.387 . S
H546 C553 0.950 . S
C547 C545 1.387 . S
C547 C549 1.390 . S
C547 H551 0.950 . S
H548 C544 0.950 . S
C549 C547 1.390 . S
C549 C550 1.387 1_655 S
C549 H552 0.950 1_554 S
C550 C549 1.387 1_455 S
C550 C553 1.387 . S
H551 C547 0.950 . S
H552 C549 0.950 1_556 S
C553 C544 1.390 1_455 S
C553 H546 0.950 . S
C553 C550 1.387 . S
C554 C555 1.387 1_545 S
C554 H558 0.950 . S
C554 C563 1.390 . S
C555 C554 1.387 1_565 S
C555 C557 1.387 . S
H556 C563 0.950 . S
C557 C555 1.387 . S
C557 C559 1.390 . S
C557 H561 0.950 . S
H558 C554 0.950 . S
C559 C557 1.390 . S
C559 C560 1.387 1_565 S
C559 H562 0.950 1_554 S
C560 C559 1.387 1_545 S
C560 C563 1.387 . S
H561 C557 0.950 . S
H562 C559 0.950 1_556 S
C563 C554 1.390 . S
C563 H556 0.950 . S
C563 C560 1.387 . S
C564 C565 1.387 . S
C564 H568 0.950 . S
C564 C573 1.390 . S
C565 C564 1.387 . S
C565 C567 1.387 . S
H566 C573 0.950 . S
C567 C565 1.387 . S
C567 C569 1.390 . S
C567 H571 0.950 . S
H568 C564 0.950 . S
C569 C567 1.390 . S
C569 C570 1.387 . S
C569 H572 0.950 . S
C570 C569 1.387 . S
C570 C573 1.387 . S
H571 C567 0.950 . S
H572 C569 0.950 . S
C573 C564 1.390 . S
C573 H566 0.950 . S
C573 C570 1.387 . S
C574 C575 1.387 . S
C574 H578 0.950 . S
C574 C583 1.390 . S
C575 C574 1.387 . S
C575 C577 1.387 . S
H576 C583 0.950 . S
C577 C575 1.387 . S
C577 C579 1.390 . S
C577 H581 0.950 . S
H578 C574 0.950 . S
C579 C577 1.390 . S
C579 C580 1.387 . S
C579 H582 0.950 . S
C580 C579 1.387 . S
C580 C583 1.387 . S
H581 C577 0.950 . S
H582 C579 0.950 . S
C583 C574 1.390 . S
C583 H576 0.950 . S
C583 C580 1.387 . S
C584 C585 1.387 . S
C584 H588 0.950 . S
C584 C593 1.390 . S
C585 C584 1.387 . S
C585 C587 1.387 . S
H586 C593 0.950 . S
C587 C585 1.387 . S
C587 C589 1.390 . S
C587 H591 0.950 . S
H588 C584 0.950 . S
C589 C587 1.390 . S
C589 C590 1.387 . S
C589 H592 0.950 . S
C590 C589 1.387 . S
C590 C593 1.387 . S
H591 C587 0.950 . S
H592 C589 0.950 . S
C593 C584 1.390 . S
C593 H586 0.950 . S
C593 C590 1.387 . S
C594 C595 1.387 . S
C594 H598 0.950 . S
C594 C603 1.390 . S
C595 C594 1.387 . S
C595 C597 1.387 . S
H596 C603 0.950 . S
C597 C595 1.387 . S
C597 C599 1.390 . S
C597 H601 0.950 . S
H598 C594 0.950 . S
C599 C597 1.390 . S
C599 C600 1.387 . S
C599 H602 0.950 . S
C600 C599 1.387 . S
C600 C603 1.387 . S
H601 C597 0.950 . S
H602 C599 0.950 . S
C603 C594 1.390 . S
C603 H596 0.950 . S
C603 C600 1.387 . S
C604 C605 1.387 . S
C604 H608 0.950 . S
C604 C613 1.390 . S
C605 C604 1.387 . S
C605 C607 1.387 . S
H606 C613 0.950 . S
C607 C605 1.387 . S
C607 C609 1.390 . S
C607 H611 0.950 . S
H608 C604 0.950 . S
C609 C607 1.390 . S
C609 C610 1.387 . S
C609 H612 0.950 . S
C610 C609 1.387 . S
C610 C613 1.387 . S
H611 C607 0.950 . S
H612 C609 0.950 . S
C613 C604 1.390 . S
C613 H606 0.950 . S
C613 C610 1.387 . S
C614 C615 1.387 . S
C614 H618 0.950 . S
C614 C623 1.390 . S
C615 C614 1.387 . S
C615 C617 1.387 . S
H616 C623 0.950 . S
C617 C615 1.387 . S
C617 C619 1.390 . S
C617 H621 0.950 . S
H618 C614 0.950 . S
C619 C617 1.390 . S
C619 C620 1.387 . S
C619 H622 0.950 . S
C620 C619 1.387 . S
C620 C623 1.387 . S
H621 C617 0.950 . S
H622 C619 0.950 . S
C623 C614 1.390 . S
C623 H616 0.950 . S
C623 C620 1.387 . S
C624 C625 1.387 1_455 S
C624 H628 0.950 . S
C624 C633 1.390 . S
C625 C624 1.387 1_655 S
C625 C627 1.387 . S
H626 C633 0.950 . S
C627 C625 1.387 . S
C627 C629 1.390 . S
C627 H631 0.950 . S
H628 C624 0.950 . S
C629 C627 1.390 . S
C629 C630 1.387 . S
C629 H632 0.950 . S
C630 C629 1.387 . S
C630 C633 1.387 1_655 S
H631 C627 0.950 . S
H632 C629 0.950 . S
C633 C624 1.390 . S
C633 H626 0.950 . S
C633 C630 1.387 1_455 S
C634 C635 1.387 1_545 S
C634 H638 0.950 . S
C634 C643 1.390 . S
C635 C634 1.387 1_565 S
C635 C637 1.387 . S
H636 C643 0.950 . S
C637 C635 1.387 . S
C637 C639 1.390 . S
C637 H641 0.950 . S
H638 C634 0.950 . S
C639 C637 1.390 . S
C639 C640 1.387 . S
C639 H642 0.950 . S
C640 C639 1.387 . S
C640 C643 1.387 1_565 S
H641 C637 0.950 . S
H642 C639 0.950 . S
C643 C634 1.390 . S
C643 H636 0.950 . S
C643 C640 1.387 1_545 S
C644 C645 1.387 . S
C644 H648 0.950 . S
C644 C653 1.390 . S
C645 C644 1.387 . S
C645 C647 1.387 . S
H646 C653 0.950 . S
C647 C645 1.387 . S
C647 C649 1.390 . S
C647 H651 0.950 . S
H648 C644 0.950 . S
C649 C647 1.390 . S
C649 C650 1.387 . S
C649 H652 0.950 . S
C650 C649 1.387 . S
C650 C653 1.387 . S
H651 C647 0.950 . S
H652 C649 0.950 . S
C653 C644 1.390 . S
C653 H646 0.950 . S
C653 C650 1.387 . S
C654 C655 1.387 . S
C654 H658 0.950 . S
C654 C663 1.390 . S
C655 C654 1.387 . S
C655 C657 1.387 . S
H656 C663 0.950 . S
C657 C655 1.387 . S
C657 C659 1.390 . S
C657 H661 0.950 . S
H658 C654 0.950 . S
C659 C657 1.390 . S
C659 C660 1.387 . S
C659 H662 0.950 . S
C660 C659 1.387 . S
C660 C663 1.387 . S
H661 C657 0.950 . S
H662 C659 0.950 . S
C663 C654 1.390 . S
C663 H656 0.950 . S
C663 C660 1.387 . S
C425 C74 1.981 . S
C430 C151 2.120 . S
C440 C228 2.121 . S
C435 C85 1.982 . S
C450 C319 2.121 . S
C445 C52 1.980 . S
C460 C403 2.107 . S
C455 C63 1.971 . S
C470 C162 2.120 1_565 S
C465 C30 1.947 . S
C475 C41 1.946 . S
C480 C239 2.121 . S
C485 C8 1.950 . S
C490 C330 2.122 . S
C495 C19 1.940 . S
C500 C414 2.109 1_655 S
C510 C146 0.853 1_455 S
C505 C62 0.861 . S
C520 C241 0.824 1_545 S
C515 C73 0.842 . S
C530 C314 0.862 . S
C525 C84 0.865 . S
C535 C51 0.847 . S
C540 C398 0.839 . S
C545 C18 0.832 . S
C550 C157 0.852 . S
C560 C230 0.831 . S
C555 C29 0.819 . S
C570 C325 0.859 . S
C565 C40 0.832 . S
C575 C7 0.818 . S
C580 C409 0.841 . S
C585 C60 1.813 . S
C590 C155 2.278 . S
C595 C71 1.824 . S
C600 C246 2.340 . S
C610 C323 2.294 . S
C605 C82 1.829 . S
C620 C407 2.298 . S
C615 C49 1.828 . S
C625 C16 1.727 . S
C630 C144 2.279 . S
C640 C235 2.341 . S
C635 C27 1.729 . S
C650 C312 2.293 . S
C645 C38 1.731 . S
C655 C5 1.739 . S
C660 C396 2.297 . S
