# Generated by pormake.
# Topology pts, (4,4)-cn, num edge types: 1
# Building blocks:
#     Node 0, Type 0, BuildingBlock: KOZSID_clean_sbu_0, # of connection points: 4
#     Node 1, Type 0, BuildingBlock: KOZSID_clean_sbu_0, # of connection points: 4
#     Node 2, Type 1, BuildingBlock: QUQFOY_clean_sbu_1, # of connection points: 4
#     Node 3, Type 1, BuildingBlock: QUQFOY_clean_sbu_1, # of connection points: 4
#     Edge 4, Type (0, 1), BuildingBlock: UVAHIK_clean_linker_0, # of connection points: 2
#     Edge 5, Type (0, 1), BuildingBlock: UVAHIK_clean_linker_0, # of connection points: 2
#     Edge 6, Type (0, 1), BuildingBlock: UVAHIK_clean_linker_0, # of connection points: 2
#     Edge 7, Type (0, 1), BuildingBlock: UVAHIK_clean_linker_0, # of connection points: 2
#     Edge 8, Type (0, 1), BuildingBlock: UVAHIK_clean_linker_0, # of connection points: 2
#     Edge 9, Type (0, 1), BuildingBlock: UVAHIK_clean_linker_0, # of connection points: 2
#     Edge 10, Type (0, 1), BuildingBlock: UVAHIK_clean_linker_0, # of connection points: 2
#     Edge 11, Type (0, 1), BuildingBlock: UVAHIK_clean_linker_0, # of connection points: 2
# Relax obj value: 0.095
# Max RMSD: 0.254
# Mean RMSD: 0.146
data_MOF--net-pts--node1-KOZSID_clean_sbu_0--node2-QUQFOY_clean_sbu_1--edge1-UVAHIK_clean_linker_0
_symmetry_space_group_name_H-M    P1
_symmetry_Int_Tables_number       1
_symmetry_cell_setting            triclinic
loop_
_symmetry_equiv_pos_as_xyz
'x, y, z'
_cell_length_a     32.169552
_cell_length_b     35.590852
_cell_length_c     53.060985
_cell_angle_alpha  86.852557
_cell_angle_beta   93.395493
_cell_angle_gamma 90.087684
loop_
_atom_site_label
_atom_site_type_symbol
_atom_site_fract_x
_atom_site_fract_y
_atom_site_fract_z
_atom_type_partial_charge
C0 C 0.6023 0.10094 0.0403 0.0
C1 C 0.61438 0.13691 0.04648 0.0
C2 C 0.58997 0.16135 0.03148 0.0
C3 C 0.56454 0.13902 0.01706 0.0
N4 N 0.57115 0.10172 0.02192 0.0
Co5 Co 0.54154 0.05932 0.00502 0.0
N6 N 0.50461 0.09535 0.98358 0.0
C7 C 0.5042 0.13334 0.98419 0.0
C8 C 0.47421 0.15047 0.96816 0.0
C9 C 0.45422 0.1218 0.95653 0.0
C10 C 0.47358 0.08865 0.96598 0.0
N11 N 0.51254 0.01694 0.98775 0.0
C12 C 0.48206 0.01771 0.96893 0.0
C13 C 0.47255 0.98177 0.96136 0.0
C14 C 0.49737 0.95744 0.97614 0.0
C15 C 0.52083 0.97973 0.99166 0.0
N16 N 0.57782 0.02324 0.02687 0.0
C17 C 0.57716 0.9852 0.02704 0.0
C18 C 0.6051 0.96801 0.04444 0.0
C19 C 0.62475 0.99674 0.05623 0.0
C20 C 0.60754 0.02993 0.04525 0.0
N21 N 0.49998 0.05728 0.03126 0.0
C22 C 0.44106 0.05443 0.06851 0.0
C23 C 0.4582 0.02148 0.06045 0.0
C24 C 0.48716 0.02352 0.04182 0.0
C25 C 0.45393 0.0888 0.05771 0.0
C26 C 0.48336 0.08959 0.0394 0.0
N27 N 0.58314 0.06137 0.97874 0.0
C28 C 0.63303 0.03043 0.95448 0.0
C29 C 0.64186 0.06422 0.94121 0.0
C30 C 0.62074 0.09657 0.94711 0.0
C31 C 0.59195 0.09456 0.96583 0.0
C32 C 0.60376 0.02963 0.9729 0.0
H33 H 0.57716 0.12026 0.96944 0.0
H34 H 0.59851 0.00296 0.98218 0.0
H35 H 0.49863 0.99741 0.03623 0.0
H36 H 0.49222 0.11669 0.03217 0.0
C37 C 0.53294 0.15218 -0.00032 0.0
C38 C 0.62084 0.06701 0.05279 0.0
C39 C 0.46145 0.05159 0.95754 0.0
C40 C 0.55059 0.96648 0.01021 0.0
H41 H 0.63811 0.14465 0.06057 0.0
H42 H 0.59033 0.19178 0.03134 0.0
H43 H 0.46769 0.18028 0.96527 0.0
H44 H 0.42829 0.12506 0.94264 0.0
H45 H 0.45015 0.97385 0.94658 0.0
H46 H 0.49832 0.9271 0.97557 0.0
H47 H 0.61064 0.93815 0.04805 0.0
H48 H 0.6491 0.99363 0.07117 0.0
H49 H 0.44877 0.99417 0.06815 0.0
H50 H 0.44173 0.11508 0.0636 0.0
H51 H 0.649 0.00463 0.95098 0.0
H52 H 0.62597 0.12341 0.93718 0.0
C53 C 0.09232 0.49289 0.54476 0.0
C54 C 0.13165 0.48108 0.55405 0.0
C55 C 0.15954 0.50164 0.54066 0.0
C56 C 0.13574 0.52469 0.52405 0.0
N57 N 0.09427 0.52061 0.52631 0.0
Co58 Co 0.04823 0.54658 0.5049 0.0
N59 N 0.08919 0.57441 0.48371 0.0
C60 C 0.13125 0.57201 0.48613 0.0
C61 C 0.15098 0.59581 0.46953 0.0
C62 C 0.11972 0.6151 0.456 0.0
C63 C 0.08263 0.60189 0.46522 0.0
N64 N 0.00219 0.57213 0.48328 0.0
C65 C 0.00404 0.59942 0.46454 0.0
C66 C 0.96463 0.61038 0.45484 0.0
C67 C 0.93683 0.58962 0.46815 0.0
C68 C 0.96073 0.56729 0.48516 0.0
N69 N 0.00728 0.51918 0.52631 0.0
C70 C 0.96527 0.52221 0.52425 0.0
C71 C 0.94553 0.49904 0.54121 0.0
C72 C 0.97673 0.47959 0.55468 0.0
C73 C 0.01381 0.49207 0.54504 0.0
N74 N 0.04926 0.58895 0.52779 0.0
C75 C 0.05055 0.65211 0.55776 0.0
C76 C 0.01299 0.63529 0.54998 0.0
C77 C 0.01306 0.60412 0.53511 0.0
C78 C 0.08748 0.63622 0.55064 0.0
C79 C 0.08614 0.60482 0.53594 0.0
N80 N 0.04723 0.50416 0.48203 0.0
C81 C 0.00995 0.45405 0.46152 0.0
C82 C 0.04683 0.44033 0.45289 0.0
C83 C 0.08374 0.45958 0.45852 0.0
C84 C 0.08327 0.49106 0.47307 0.0
C85 C 0.01079 0.48597 0.47573 0.0
H86 H 0.11257 0.5039 0.47714 0.0
H87 H 0.98161 0.49511 0.48162 0.0
H88 H 0.98339 0.59301 0.52962 0.0
H89 H 0.11536 0.59424 0.53114 0.0
C90 C 0.15129 0.54868 0.50512 0.0
C91 C 0.05412 0.47564 0.55316 0.0
C92 C 0.04213 0.61748 0.45657 0.0
C93 C 0.94521 0.54435 0.50464 0.0
H94 H 0.13929 0.4592 0.56855 0.0
H95 H 0.19315 0.49922 0.5423 0.0
H96 H 0.18416 0.59946 0.46797 0.0
H97 H 0.12374 0.63703 0.44139 0.0
H98 H 0.95673 0.632 0.44021 0.0
H99 H 0.90321 0.59166 0.46635 0.0
H100 H 0.91235 0.49563 0.54291 0.0
H101 H 0.97263 0.45783 0.56938 0.0
H102 H 0.98349 0.64593 0.55542 0.0
H103 H 0.11745 0.64828 0.55593 0.0
H104 H 0.98048 0.44033 0.45722 0.0
H105 H 0.11313 0.44984 0.45229 0.0
O106 O 0.98116 0.01708 0.24228 0.0
Cd107 Cd 0.03639 0.00257 0.26193 0.0
Cd108 Cd 0.04272 0.08076 0.26435 0.0
O109 O 0.98736 0.07879 0.24263 0.0
O110 O 0.03192 0.9472 0.26821 0.0
O111 O 0.03817 0.98649 0.29905 0.0
C112 C 0.03446 0.95236 0.29209 0.0
C113 C 0.04621 0.12516 0.29525 0.0
C114 C 0.96723 0.04985 0.23598 0.0
C115 C 0.11092 0.03986 0.24 0.0
O116 O 0.09763 0.07059 0.24763 0.0
O117 O 0.09061 0.00956 0.24341 0.0
O118 O 0.04834 0.13477 0.27162 0.0
O119 O 0.0419 0.08987 0.30159 0.0
O120 O 0.9931 0.084 0.76482 0.0
Cd121 Cd 0.04698 0.088 0.7454 0.0
Cd122 Cd 0.03818 0.00953 0.74955 0.0
O123 O 0.9827 0.02278 0.76431 0.0
O124 O 0.05229 0.14337 0.73943 0.0
O125 O 0.04453 0.1049 0.70827 0.0
C126 C 0.0489 0.1388 0.71552 0.0
C127 C 0.03742 0.96369 0.71974 0.0
C128 C 0.97117 0.05518 0.77002 0.0
C129 C 0.1144 0.04256 0.77501 0.0
O130 O 0.09188 0.01351 0.77248 0.0
O131 O 0.10301 0.07411 0.76451 0.0
O132 O 0.03306 0.95513 0.74335 0.0
O133 O 0.04198 0.99877 0.71284 0.0
C134 C 0.37316 0.0746 0.08416 0.0
C135 C 0.40969 0.05299 0.08788 0.0
C136 C 0.34331 0.07306 0.10225 0.0
C137 C 0.3085 0.01425 0.15696 0.0
H138 H 0.24584 0.10407 0.16836 0.0
C139 C 0.15849 0.00926 0.2115 0.0
C140 C 0.14925 0.03983 0.22588 0.0
C141 C 0.19284 0.0105 0.19655 0.0
C142 C 0.2634 0.07879 0.16574 0.0
H143 H 0.44411 0.01337 0.1136 0.0
H144 H 0.39251 0.01131 0.14557 0.0
H145 H 0.30129 0.10769 0.13922 0.0
H146 H 0.1699 0.095 0.23675 0.0
H147 H 0.23052 0.09671 0.21133 0.0
H148 H 0.27138 0.98561 0.18408 0.0
C149 C 0.38632 0.02876 0.1284 0.0
C150 C 0.29483 0.08075 0.14867 0.0
C151 C 0.41596 0.02999 0.11014 0.0
C152 C 0.17593 0.07113 0.22568 0.0
C153 C 0.21056 0.0722 0.21096 0.0
C154 C 0.2773 0.01237 0.17424 0.0
C155 C 0.34952 0.05019 0.12465 0.0
C156 C 0.31745 0.04842 0.1438 0.0
C157 C 0.21906 0.04218 0.19585 0.0
C158 C 0.254 0.04453 0.17864 0.0
H159 H 0.36729 0.0922 0.06701 0.0
H160 H 0.31502 0.08935 0.09843 0.0
H161 H 0.32495 0.98868 0.15356 0.0
H162 H 0.13845 0.98479 0.21114 0.0
H163 H 0.19799 0.98708 0.18492 0.0
C164 C 0.05799 0.44068 0.5953 0.0
C165 C 0.05591 0.44002 0.56891 0.0
C166 C 0.05736 0.40705 0.61014 0.0
C167 C 0.07469 0.30452 0.609 0.0
H168 H 0.0071 0.30119 0.66721 0.0
C169 C 0.04701 0.16775 0.67108 0.0
C170 C 0.04966 0.17181 0.69733 0.0
C171 C 0.04726 0.19952 0.65426 0.0
C172 C 0.02638 0.30174 0.65113 0.0
H173 H 0.05197 0.40469 0.53701 0.0
H174 H 0.05071 0.34551 0.56292 0.0
H175 H 0.00937 0.35861 0.6402 0.0
H176 H 0.05508 0.21234 0.72648 0.0
H177 H 0.05575 0.26726 0.69732 0.0
H178 H 0.09177 0.24752 0.62011 0.0
C179 C 0.05324 0.3718 0.57224 0.0
C180 C 0.02775 0.33467 0.63569 0.0
C181 C 0.0538 0.4055 0.55743 0.0
C182 C 0.0528 0.20815 0.70638 0.0
C183 C 0.05292 0.23973 0.68965 0.0
C184 C 0.07331 0.27147 0.62449 0.0
C185 C 0.05459 0.37223 0.59878 0.0
C186 C 0.0523 0.33663 0.61462 0.0
C187 C 0.04992 0.23586 0.66341 0.0
C188 C 0.04954 0.26991 0.64592 0.0
H189 H 0.05962 0.46722 0.60438 0.0
H190 H 0.05908 0.40832 0.63052 0.0
H191 H 0.09412 0.30522 0.593 0.0
H192 H 0.04457 0.14011 0.66354 0.0
H193 H 0.0447 0.19568 0.63412 0.0
C194 C 0.69556 0.07517 0.06676 0.0
C195 C 0.65418 0.07006 0.07301 0.0
C196 C 0.72736 0.07607 0.08581 0.0
C197 C 0.78645 0.09551 0.12987 0.0
H198 H 0.78352 0.02164 0.18625 0.0
C199 C 0.9126 0.09017 0.21206 0.0
C200 C 0.92805 0.05423 0.21995 0.0
C201 C 0.87691 0.09416 0.19577 0.0
C202 C 0.78484 0.04238 0.1706 0.0
H203 H 0.61277 0.06242 0.10349 0.0
H204 H 0.66835 0.06447 0.13707 0.0
H205 H 0.72606 0.02512 0.15414 0.0
H206 H 0.91749 0.99427 0.21731 0.0
H207 H 0.85569 0.00126 0.18875 0.0
H208 H 0.84591 0.11188 0.14587 0.0
C209 C 0.67647 0.06733 0.11754 0.0
C210 C 0.75169 0.04467 0.15234 0.0
C211 C 0.6447 0.06639 0.09845 0.0
C212 C 0.90647 0.02239 0.21164 0.0
C213 C 0.87083 0.02639 0.19536 0.0
C214 C 0.8196 0.09323 0.14814 0.0
C215 C 0.71823 0.07187 0.11143 0.0
C216 C 0.75232 0.07098 0.13161 0.0
C217 C 0.85587 0.0623 0.18703 0.0
C218 C 0.8194 0.06634 0.16856 0.0
H219 H 0.70326 0.07779 0.04714 0.0
H220 H 0.75921 0.07905 0.08045 0.0
H221 H 0.78767 0.11639 0.1143 0.0
H222 H 0.92833 0.1153 0.2182 0.0
H223 H 0.86585 0.12221 0.18996 0.0
C224 C 0.08245 0.69047 0.59235 0.0
C225 C 0.05114 0.68591 0.57313 0.0
C226 C 0.08269 0.72196 0.60696 0.0
C227 C 0.038 0.81811 0.60927 0.0
H228 H 0.06839 0.80276 0.68086 0.0
C229 C 0.05127 0.94101 0.67698 0.0
C230 C 0.03789 0.93374 0.7015 0.0
C231 C 0.05367 0.91181 0.66046 0.0
C232 C 0.05943 0.80755 0.66095 0.0
H233 H 0.99605 0.71165 0.55386 0.0
H234 H 0.99546 0.76564 0.58 0.0
H235 H 0.07069 0.75011 0.65382 0.0
H236 H 0.01513 0.8905 0.72761 0.0
H237 H 0.01816 0.84011 0.69875 0.0
H238 H 0.02511 0.87533 0.61672 0.0
C239 C 0.02032 0.74521 0.58352 0.0
C240 C 0.06139 0.77739 0.64533 0.0
C241 C 0.02028 0.71386 0.56877 0.0
C242 C 0.02601 0.89698 0.70894 0.0
C243 C 0.02804 0.86798 0.69242 0.0
C244 C 0.03575 0.84828 0.62497 0.0
C245 C 0.05141 0.74958 0.6029 0.0
C246 C 0.05052 0.78218 0.6193 0.0
C247 C 0.04246 0.87484 0.66809 0.0
C248 C 0.04612 0.84329 0.65106 0.0
H249 H 0.10651 0.6694 0.59645 0.0
H250 H 0.10749 0.72462 0.62147 0.0
H251 H 0.02994 0.82298 0.58925 0.0
H252 H 0.06075 0.96905 0.67075 0.0
H253 H 0.06523 0.91807 0.64194 0.0
C254 C 0.39045 0.03019 0.94252 0.0
C255 C 0.42793 0.0484 0.93728 0.0
C256 C 0.35878 0.02747 0.92353 0.0
C257 C 0.31396 0.07556 0.86713 0.0
H258 H 0.26624 0.97937 0.85027 0.0
C259 C 0.18512 0.06675 0.78773 0.0
C260 C 0.15335 0.04022 0.79121 0.0
C261 C 0.22094 0.06594 0.80397 0.0
C262 C 0.27871 0.00655 0.85495 0.0
H263 H 0.4621 0.07801 0.90841 0.0
H264 H 0.40583 0.07454 0.87525 0.0
H265 H 0.32367 0.98161 0.88234 0.0
H266 H 0.13418 0.99187 0.81427 0.0
H267 H 0.19557 0.99143 0.84333 0.0
H268 H 0.26809 0.10096 0.84093 0.0
C269 C 0.40128 0.06199 0.89395 0.0
C270 C 0.31178 0.00771 0.87321 0.0
C271 C 0.43329 0.06398 0.91281 0.0
C272 C 0.15834 0.0125 0.81102 0.0
C273 C 0.19376 0.01216 0.8276 0.0
C274 C 0.28036 0.07452 0.84927 0.0
C275 C 0.36383 0.04365 0.89916 0.0
C276 C 0.3296 0.04222 0.87943 0.0
C277 C 0.22543 0.03909 0.82445 0.0
C278 C 0.26218 0.03999 0.84293 0.0
H279 H 0.3857 0.01818 0.96134 0.0
H280 H 0.32999 0.01347 0.92798 0.0
H281 H 0.32701 0.10254 0.87186 0.0
H282 H 0.1823 0.0882 0.77242 0.0
H283 H 0.245 0.08654 0.80047 0.0
C284 C 0.02563 0.37352 0.44654 0.0
C285 C 0.047 0.40596 0.43833 0.0
C286 C 0.02681 0.34077 0.43319 0.0
C287 C 0.0868 0.29548 0.38516 0.0
H288 H 0.98784 0.23398 0.37667 0.0
C289 C 0.06386 0.19014 0.30745 0.0
C290 C 0.04868 0.15416 0.31418 0.0
C291 C 0.06542 0.21827 0.32475 0.0
C292 C 0.01585 0.25063 0.37919 0.0
H293 H 0.08546 0.42997 0.40944 0.0
H294 H 0.08665 0.37337 0.38571 0.0
H295 H 0.98639 0.28881 0.40234 0.0
H296 H 0.02326 0.11937 0.34435 0.0
H297 H 0.02524 0.16919 0.37465 0.0
H298 H 0.11561 0.25805 0.36117 0.0
C299 C 0.06999 0.37264 0.40287 0.0
C300 C 0.0151 0.28203 0.39392 0.0
C301 C 0.06916 0.4052 0.41637 0.0
C302 C 0.03521 0.14683 0.33868 0.0
C303 C 0.03616 0.17529 0.35594 0.0
C304 C 0.08735 0.26441 0.37024 0.0
C305 C 0.04909 0.33989 0.41119 0.0
C306 C 0.05041 0.30518 0.39679 0.0
C307 C 0.05134 0.21125 0.34909 0.0
C308 C 0.05174 0.24199 0.36683 0.0
H309 H 0.0087 0.37322 0.46361 0.0
H310 H 0.01083 0.31599 0.44036 0.0
H311 H 0.11491 0.31203 0.38745 0.0
H312 H 0.07456 0.19667 0.28873 0.0
H313 H 0.07686 0.24584 0.31889 0.0
C314 C 0.67676 0.03586 0.90552 0.0
C315 C 0.67308 0.06571 0.92156 0.0
C316 C 0.70684 0.03678 0.88755 0.0
C317 C 0.8065 0.08277 0.87271 0.0
H318 H 0.78411 0.04061 0.80742 0.0
C319 C 0.92449 0.09309 0.79506 0.0
C320 C 0.93317 0.05909 0.78411 0.0
C321 C 0.89064 0.09583 0.81019 0.0
C322 C 0.79079 0.05235 0.82562 0.0
H323 H 0.69826 0.1201 0.93106 0.0
H324 H 0.74957 0.12232 0.89916 0.0
H325 H 0.72888 0.04219 0.837 0.0
H326 H 0.91208 0.00173 0.77969 0.0
H327 H 0.8528 0.00671 0.80597 0.0
H328 H 0.86833 0.0931 0.86121 0.0
C329 C 0.72971 0.09782 0.90079 0.0
C330 C 0.75925 0.05315 0.84262 0.0
C331 C 0.69984 0.09677 0.91888 0.0
C332 C 0.90636 0.02831 0.7879 0.0
C333 C 0.87227 0.03118 0.80284 0.0
C334 C 0.83786 0.08228 0.85563 0.0
C335 C 0.73384 0.0677 0.88502 0.0
C336 C 0.76681 0.0681 0.86647 0.0
C337 C 0.8645 0.06477 0.81448 0.0
C338 C 0.83044 0.06683 0.832 0.0
H339 H 0.65631 0.01172 0.90676 0.0
H340 H 0.70939 0.01288 0.87596 0.0
H341 H 0.81374 0.09385 0.89106 0.0
H342 H 0.94444 0.11738 0.79249 0.0
H343 H 0.88509 0.1222 0.81871 0.0
C344 C 0.03038 0.65269 0.41471 0.0
C345 C 0.0398 0.65311 0.44079 0.0
C346 C 0.02823 0.68637 0.39987 0.0
C347 C 0.06259 0.78556 0.39896 0.0
H348 H 0.97658 0.79812 0.34479 0.0
C349 C 0.03928 0.92432 0.33673 0.0
C350 C 0.03319 0.91982 0.31062 0.0
C351 C 0.03853 0.89304 0.35393 0.0
C352 C 0.00093 0.79495 0.35976 0.0
H353 H 0.05465 0.68812 0.47209 0.0
H354 H 0.05052 0.74739 0.44625 0.0
H355 H 0.9784 0.74096 0.37229 0.0
H356 H 0.0214 0.87902 0.28211 0.0
H357 H 0.02022 0.82483 0.31194 0.0
H358 H 0.0852 0.83958 0.38623 0.0
C359 C 0.04516 0.72119 0.43712 0.0
C360 C 0.00203 0.76216 0.37548 0.0
C361 C 0.04732 0.68746 0.45193 0.0
C362 C 0.02612 0.88353 0.30209 0.0
C363 C 0.02516 0.85244 0.31921 0.0
C364 C 0.06142 0.81845 0.38324 0.0
C365 C 0.03549 0.72106 0.41091 0.0
C366 C 0.0332 0.75682 0.39505 0.0
C367 C 0.03136 0.85677 0.34531 0.0
C368 C 0.03091 0.82325 0.36324 0.0
H369 H 0.0248 0.62629 0.40585 0.0
H370 H 0.02141 0.6852 0.3797 0.0
H371 H 0.08726 0.78218 0.4137 0.0
H372 H 0.0448 0.95192 0.34388 0.0
H373 H 0.04316 0.89726 0.37396 0.0
loop_
_geom_bond_atom_site_label_1
_geom_bond_atom_site_label_2
_geom_bond_distance
_geom_bond_site_symmetry_2
_ccdc_geom_bond_type
C0 C1 1.443 . S
C0 N4 1.376 . S
C0 C38 1.389 . S
C1 C0 1.443 . S
C1 C2 1.340 . S
C1 H41 0.951 . S
C2 C1 1.340 . S
C2 C3 1.439 . S
C2 H42 0.950 . S
C3 C2 1.439 . S
C3 N4 1.374 . S
C3 C37 1.395 . S
N4 C0 1.376 . S
N4 C3 1.374 . S
N4 Co5 2.008 . S
Co5 N4 2.008 . S
Co5 N6 1.995 1_554 S
Co5 N11 2.008 1_554 S
Co5 N16 1.995 . S
Co5 N21 2.282 . S
Co5 N27 2.282 1_554 S
N6 Co5 1.995 1_556 S
N6 C7 1.376 . S
N6 C10 1.383 . S
C7 N6 1.376 . S
C7 C8 1.446 . S
C7 C37 1.391 1_556 S
C8 C7 1.446 . S
C8 C9 1.339 . S
C8 H43 0.949 . S
C9 C8 1.339 . S
C9 C10 1.439 . S
C9 H44 0.950 . S
C10 N6 1.383 . S
C10 C9 1.439 . S
C10 C39 1.392 . S
N11 Co5 2.008 1_556 S
N11 C12 1.376 . S
N11 C15 1.374 1_545 S
C12 N11 1.376 . S
C12 C13 1.443 1_545 S
C12 C39 1.389 . S
C13 C12 1.443 1_565 S
C13 C14 1.340 . S
C13 H45 0.951 . S
C14 C13 1.340 . S
C14 C15 1.439 . S
C14 H46 0.950 . S
C15 N11 1.374 1_565 S
C15 C14 1.439 . S
C15 C40 1.395 1_556 S
N16 Co5 1.995 . S
N16 C17 1.376 1_545 S
N16 C20 1.383 . S
C17 N16 1.376 1_565 S
C17 C18 1.446 . S
C17 C40 1.391 . S
C18 C17 1.446 . S
C18 C19 1.339 . S
C18 H47 0.949 . S
C19 C18 1.339 . S
C19 C20 1.439 1_565 S
C19 H48 0.950 . S
C20 N16 1.383 . S
C20 C19 1.439 1_545 S
C20 C38 1.392 . S
N21 Co5 2.282 . S
N21 C24 1.332 . S
N21 C26 1.332 . S
C22 C23 1.386 . S
C22 C25 1.388 . S
C23 C22 1.386 . S
C23 C24 1.382 . S
C23 H49 0.950 . S
C24 N21 1.332 . S
C24 C23 1.382 . S
C24 H35 0.952 . S
C25 C22 1.388 . S
C25 C26 1.382 . S
C25 H50 0.950 . S
C26 N21 1.332 . S
C26 C25 1.382 . S
C26 H36 0.948 . S
N27 Co5 2.282 1_556 S
N27 C31 1.332 . S
N27 C32 1.332 . S
C28 C29 1.388 . S
C28 C32 1.382 . S
C28 H51 0.950 . S
C29 C28 1.388 . S
C29 C30 1.386 . S
C30 C29 1.386 . S
C30 C31 1.382 . S
C30 H52 0.950 . S
C31 N27 1.332 . S
C31 C30 1.382 . S
C31 H33 0.952 . S
C32 N27 1.332 . S
C32 C28 1.382 . S
C32 H34 0.948 . S
H33 C31 0.952 . S
H34 C32 0.948 . S
H35 C24 0.952 . S
H36 C26 0.948 . S
C37 C3 1.395 . S
C37 C7 1.391 1_554 S
C38 C0 1.389 . S
C38 C20 1.392 . S
C39 C10 1.392 . S
C39 C12 1.389 . S
C40 C15 1.395 1_554 S
C40 C17 1.391 . S
H41 C1 0.951 . S
H42 C2 0.950 . S
H43 C8 0.949 . S
H44 C9 0.950 . S
H45 C13 0.951 . S
H46 C14 0.950 . S
H47 C18 0.949 . S
H48 C19 0.950 . S
H49 C23 0.950 . S
H50 C25 0.950 . S
H51 C28 0.950 . S
H52 C30 0.950 . S
C53 C54 1.443 . S
C53 N57 1.376 . S
C53 C91 1.389 . S
C54 C53 1.443 . S
C54 C55 1.340 . S
C54 H94 0.951 . S
C55 C54 1.340 . S
C55 C56 1.439 . S
C55 H95 0.950 . S
C56 C55 1.439 . S
C56 N57 1.374 . S
C56 C90 1.395 . S
N57 C53 1.376 . S
N57 C56 1.374 . S
N57 Co58 2.008 . S
Co58 N57 2.008 . S
Co58 N59 1.995 . S
Co58 N64 2.008 . S
Co58 N69 1.995 . S
Co58 N74 2.282 . S
Co58 N80 2.282 . S
N59 Co58 1.995 . S
N59 C60 1.376 . S
N59 C63 1.383 . S
C60 N59 1.376 . S
C60 C61 1.446 . S
C60 C90 1.391 . S
C61 C60 1.446 . S
C61 C62 1.339 . S
C61 H96 0.949 . S
C62 C61 1.339 . S
C62 C63 1.439 . S
C62 H97 0.950 . S
C63 N59 1.383 . S
C63 C62 1.439 . S
C63 C92 1.392 . S
N64 Co58 2.008 . S
N64 C65 1.376 . S
N64 C68 1.374 1_455 S
C65 N64 1.376 . S
C65 C66 1.443 1_455 S
C65 C92 1.389 . S
C66 C65 1.443 1_655 S
C66 C67 1.340 . S
C66 H98 0.951 . S
C67 C66 1.340 . S
C67 C68 1.439 . S
C67 H99 0.950 . S
C68 N64 1.374 1_655 S
C68 C67 1.439 . S
C68 C93 1.395 . S
N69 Co58 1.995 . S
N69 C70 1.376 1_455 S
N69 C73 1.383 . S
C70 N69 1.376 1_655 S
C70 C71 1.446 . S
C70 C93 1.391 . S
C71 C70 1.446 . S
C71 C72 1.339 . S
C71 H100 0.949 . S
C72 C71 1.339 . S
C72 C73 1.439 1_655 S
C72 H101 0.950 . S
C73 N69 1.383 . S
C73 C72 1.439 1_455 S
C73 C91 1.392 . S
N74 Co58 2.282 . S
N74 C77 1.332 . S
N74 C79 1.332 . S
C75 C76 1.386 . S
C75 C78 1.388 . S
C76 C75 1.386 . S
C76 C77 1.382 . S
C76 H102 0.950 1_455 S
C77 N74 1.332 . S
C77 C76 1.382 . S
C77 H88 0.952 1_455 S
C78 C75 1.388 . S
C78 C79 1.382 . S
C78 H103 0.950 . S
C79 N74 1.332 . S
C79 C78 1.382 . S
C79 H89 0.948 . S
N80 Co58 2.282 . S
N80 C84 1.332 . S
N80 C85 1.332 . S
C81 C82 1.388 . S
C81 C85 1.382 . S
C81 H104 0.950 1_455 S
C82 C81 1.388 . S
C82 C83 1.386 . S
C83 C82 1.386 . S
C83 C84 1.382 . S
C83 H105 0.950 . S
C84 N80 1.332 . S
C84 C83 1.382 . S
C84 H86 0.952 . S
C85 N80 1.332 . S
C85 C81 1.382 . S
C85 H87 0.948 1_455 S
H86 C84 0.952 . S
H87 C85 0.948 1_655 S
H88 C77 0.952 1_655 S
H89 C79 0.948 . S
C90 C56 1.395 . S
C90 C60 1.391 . S
C91 C53 1.389 . S
C91 C73 1.392 . S
C92 C63 1.392 . S
C92 C65 1.389 . S
C93 C68 1.395 . S
C93 C70 1.391 . S
H94 C54 0.951 . S
H95 C55 0.950 . S
H96 C61 0.949 . S
H97 C62 0.950 . S
H98 C66 0.951 . S
H99 C67 0.950 . S
H100 C71 0.949 . S
H101 C72 0.950 . S
H102 C76 0.950 1_655 S
H103 C78 0.950 . S
H104 C81 0.950 1_655 S
H105 C83 0.950 . S
O106 Cd107 2.223 . S
O106 C114 1.315 1_465 S
Cd107 O106 2.223 . S
Cd107 O110 2.297 . S
Cd107 O111 2.439 . S
Cd107 O117 2.240 1_565 S
Cd108 O109 2.240 1_455 S
Cd108 O116 2.223 . S
Cd108 O118 2.297 . S
Cd108 O119 2.439 . S
O109 Cd108 2.240 1_655 S
O109 C114 1.279 . S
O110 Cd107 2.297 . S
O110 C112 1.247 . S
O111 Cd107 2.439 . S
O111 C112 1.208 . S
C112 O110 1.247 . S
C112 O111 1.208 . S
C113 O118 1.247 . S
C113 O119 1.208 . S
C114 O106 1.315 1_645 S
C114 O109 1.279 . S
C115 O116 1.315 . S
C115 O117 1.279 . S
O116 Cd108 2.223 . S
O116 C115 1.315 . S
O117 Cd107 2.240 1_545 S
O117 C115 1.279 . S
O118 Cd108 2.297 . S
O118 C113 1.247 . S
O119 Cd108 2.439 . S
O119 C113 1.208 . S
O120 Cd121 2.223 . S
O120 C128 1.315 . S
Cd121 O120 2.223 . S
Cd121 O124 2.297 . S
Cd121 O125 2.439 . S
Cd121 O131 2.240 . S
Cd122 O123 2.240 . S
Cd122 O130 2.223 . S
Cd122 O132 2.297 1_545 S
Cd122 O133 2.439 . S
O123 Cd122 2.240 . S
O123 C128 1.279 . S
O124 Cd121 2.297 . S
O124 C126 1.247 . S
O125 Cd121 2.439 . S
O125 C126 1.208 . S
C126 O124 1.247 . S
C126 O125 1.208 . S
C127 O132 1.247 . S
C127 O133 1.208 1_565 S
C128 O120 1.315 . S
C128 O123 1.279 . S
C129 O130 1.315 . S
C129 O131 1.279 . S
O130 Cd122 2.223 . S
O130 C129 1.315 . S
O131 Cd121 2.240 . S
O131 C129 1.279 . S
O132 Cd122 2.297 1_565 S
O132 C127 1.247 . S
O133 Cd122 2.439 . S
O133 C127 1.208 1_545 S
C134 C135 1.349 . S
C134 C136 1.327 . S
C134 H159 0.950 . S
C135 C134 1.349 . S
C135 C151 1.349 . S
C136 C134 1.327 . S
C136 C155 1.429 . S
C136 H160 0.950 . S
C137 C154 1.574 . S
C137 C156 1.368 . S
C137 H161 0.949 . S
H138 C142 0.949 . S
C139 C140 1.349 . S
C139 C141 1.327 . S
C139 H162 0.950 . S
C140 C139 1.349 . S
C140 C152 1.349 . S
C141 C139 1.327 . S
C141 C157 1.429 . S
C141 H163 0.950 . S
C142 H138 0.949 . S
C142 C150 1.574 . S
C142 C158 1.368 . S
H143 C151 0.950 . S
H144 C149 0.950 . S
H145 C150 0.949 . S
H146 C152 0.950 . S
H147 C153 0.950 . S
H148 C154 0.949 . S
C149 H144 0.950 . S
C149 C151 1.327 . S
C149 C155 1.429 . S
C150 C142 1.574 . S
C150 H145 0.949 . S
C150 C156 1.368 . S
C151 C135 1.349 . S
C151 H143 0.950 . S
C151 C149 1.327 . S
C152 C140 1.349 . S
C152 H146 0.950 . S
C152 C153 1.327 . S
C153 H147 0.950 . S
C153 C152 1.327 . S
C153 C157 1.429 . S
C154 C137 1.574 . S
C154 H148 0.949 . S
C154 C158 1.368 . S
C155 C136 1.429 . S
C155 C149 1.429 . S
C155 C156 1.523 . S
C156 C137 1.368 . S
C156 C150 1.368 . S
C156 C155 1.523 . S
C157 C141 1.429 . S
C157 C153 1.429 . S
C157 C158 1.523 . S
C158 C142 1.368 . S
C158 C154 1.368 . S
C158 C157 1.523 . S
H159 C134 0.950 . S
H160 C136 0.950 . S
H161 C137 0.949 . S
H162 C139 0.950 . S
H163 C141 0.950 . S
C164 C165 1.349 . S
C164 C166 1.327 . S
C164 H189 0.950 . S
C165 C164 1.349 . S
C165 C181 1.349 . S
C166 C164 1.327 . S
C166 C185 1.429 . S
C166 H190 0.950 1_455 S
C167 C184 1.574 . S
C167 C186 1.368 . S
C167 H191 0.949 . S
H168 C172 0.949 1_655 S
C169 C170 1.349 . S
C169 C171 1.327 . S
C169 H192 0.950 . S
C170 C169 1.349 . S
C170 C182 1.349 1_455 S
C171 C169 1.327 . S
C171 C187 1.429 . S
C171 H193 0.950 . S
C172 H168 0.949 1_455 S
C172 C180 1.574 . S
C172 C188 1.368 . S
H173 C181 0.950 . S
H174 C179 0.950 . S
H175 C180 0.949 1_655 S
H176 C182 0.950 . S
H177 C183 0.965 . S
H178 C184 0.949 . S
C179 H174 0.950 . S
C179 C181 1.327 . S
C179 C185 1.429 . S
C180 C172 1.574 . S
C180 H175 0.949 1_455 S
C180 C186 1.368 . S
C181 C165 1.349 . S
C181 H173 0.950 . S
C181 C179 1.327 . S
C182 C170 1.349 1_655 S
C182 H176 0.950 . S
C182 C183 1.330 . S
C183 H177 0.965 . S
C183 C182 1.330 . S
C183 C187 1.412 1_655 S
C184 C167 1.574 . S
C184 H178 0.949 . S
C184 C188 1.368 . S
C185 C166 1.429 . S
C185 C179 1.429 . S
C185 C186 1.523 . S
C186 C167 1.368 . S
C186 C180 1.368 . S
C186 C185 1.523 . S
C187 C171 1.429 . S
C187 C183 1.412 1_455 S
C187 C188 1.523 . S
C188 C172 1.368 . S
C188 C184 1.368 . S
C188 C187 1.523 . S
H189 C164 0.950 . S
H190 C166 0.950 1_655 S
H191 C167 0.949 . S
H192 C169 0.950 . S
H193 C171 0.950 . S
C194 C195 1.349 . S
C194 C196 1.327 . S
C194 H219 0.950 . S
C195 C194 1.349 . S
C195 C211 1.349 . S
C196 C194 1.327 . S
C196 C215 1.429 . S
C196 H220 0.950 1_545 S
C197 C214 1.574 . S
C197 C216 1.368 . S
C197 H221 0.949 . S
H198 C202 0.949 1_565 S
C199 C200 1.349 . S
C199 C201 1.327 . S
C199 H222 0.950 . S
C200 C199 1.349 . S
C200 C212 1.349 1_545 S
C201 C199 1.327 . S
C201 C217 1.429 . S
C201 H223 0.950 . S
C202 H198 0.949 1_545 S
C202 C210 1.574 . S
C202 C218 1.368 . S
H203 C211 0.950 . S
H204 C209 0.950 . S
H205 C210 0.949 1_565 S
H206 C212 0.950 . S
H207 C213 0.970 . S
H208 C214 0.949 . S
C209 H204 0.950 . S
C209 C211 1.327 . S
C209 C215 1.429 . S
C210 C202 1.574 . S
C210 H205 0.949 1_545 S
C210 C216 1.368 . S
C211 C195 1.349 . S
C211 H203 0.950 . S
C211 C209 1.327 . S
C212 C200 1.349 1_565 S
C212 H206 0.950 . S
C212 C213 1.329 . S
C213 H207 0.970 . S
C213 C212 1.329 . S
C213 C217 1.408 1_565 S
C214 C197 1.574 . S
C214 H208 0.949 . S
C214 C218 1.368 . S
C215 C196 1.429 . S
C215 C209 1.429 . S
C215 C216 1.523 . S
C216 C197 1.368 . S
C216 C210 1.368 . S
C216 C215 1.523 . S
C217 C201 1.429 . S
C217 C213 1.408 1_545 S
C217 C218 1.523 . S
C218 C202 1.368 . S
C218 C214 1.368 . S
C218 C217 1.523 . S
H219 C194 0.950 . S
H220 C196 0.950 1_565 S
H221 C197 0.949 . S
H222 C199 0.950 . S
H223 C201 0.950 . S
C224 C225 1.349 . S
C224 C226 1.327 . S
C224 H249 0.950 . S
C225 C224 1.349 . S
C225 C241 1.349 . S
C226 C224 1.327 . S
C226 C245 1.429 . S
C226 H250 0.950 . S
C227 C244 1.574 . S
C227 C246 1.368 . S
C227 H251 0.949 . S
H228 C232 0.949 . S
C229 C230 1.349 . S
C229 C231 1.327 . S
C229 H252 0.950 . S
C230 C229 1.349 . S
C230 C242 1.349 . S
C231 C229 1.327 . S
C231 C247 1.429 . S
C231 H253 0.950 . S
C232 H228 0.949 . S
C232 C240 1.574 . S
C232 C248 1.368 . S
H233 C241 0.950 . S
H234 C239 0.950 . S
H235 C240 0.949 . S
H236 C242 0.950 . S
H237 C243 0.950 . S
H238 C244 0.949 . S
C239 H234 0.950 . S
C239 C241 1.327 . S
C239 C245 1.429 . S
C240 C232 1.574 . S
C240 H235 0.949 . S
C240 C246 1.368 . S
C241 C225 1.349 . S
C241 H233 0.950 . S
C241 C239 1.327 . S
C242 C230 1.349 . S
C242 H236 0.950 . S
C242 C243 1.327 . S
C243 H237 0.950 . S
C243 C242 1.327 . S
C243 C247 1.429 . S
C244 C227 1.574 . S
C244 H238 0.949 . S
C244 C248 1.368 . S
C245 C226 1.429 . S
C245 C239 1.429 . S
C245 C246 1.523 . S
C246 C227 1.368 . S
C246 C240 1.368 . S
C246 C245 1.523 . S
C247 C231 1.429 . S
C247 C243 1.429 . S
C247 C248 1.523 . S
C248 C232 1.368 . S
C248 C244 1.368 . S
C248 C247 1.523 . S
H249 C224 0.950 . S
H250 C226 0.950 . S
H251 C227 0.949 . S
H252 C229 0.950 . S
H253 C231 0.950 . S
C254 C255 1.349 . S
C254 C256 1.327 . S
C254 H279 0.950 . S
C255 C254 1.349 . S
C255 C271 1.349 . S
C256 C254 1.327 . S
C256 C275 1.429 . S
C256 H280 0.950 . S
C257 C274 1.574 . S
C257 C276 1.368 . S
C257 H281 0.949 . S
H258 C262 0.949 1_565 S
C259 C260 1.349 . S
C259 C261 1.327 . S
C259 H282 0.950 . S
C260 C259 1.349 . S
C260 C272 1.349 . S
C261 C259 1.327 . S
C261 C277 1.429 . S
C261 H283 0.950 . S
C262 H258 0.949 1_545 S
C262 C270 1.574 . S
C262 C278 1.368 . S
H263 C271 0.950 . S
H264 C269 0.950 . S
H265 C270 0.949 . S
H266 C272 0.950 1_565 S
H267 C273 0.950 1_565 S
H268 C274 0.949 . S
C269 H264 0.950 . S
C269 C271 1.327 . S
C269 C275 1.429 . S
C270 C262 1.574 . S
C270 H265 0.949 . S
C270 C276 1.368 . S
C271 C255 1.349 . S
C271 H263 0.950 . S
C271 C269 1.327 . S
C272 C260 1.349 . S
C272 H266 0.950 1_545 S
C272 C273 1.327 . S
C273 H267 0.950 1_545 S
C273 C272 1.327 . S
C273 C277 1.429 . S
C274 C257 1.574 . S
C274 H268 0.949 . S
C274 C278 1.368 . S
C275 C256 1.429 . S
C275 C269 1.429 . S
C275 C276 1.523 . S
C276 C257 1.368 . S
C276 C270 1.368 . S
C276 C275 1.523 . S
C277 C261 1.429 . S
C277 C273 1.429 . S
C277 C278 1.523 . S
C278 C262 1.368 . S
C278 C274 1.368 . S
C278 C277 1.523 . S
H279 C254 0.950 . S
H280 C256 0.950 . S
H281 C257 0.949 . S
H282 C259 0.950 . S
H283 C261 0.950 . S
C284 C285 1.349 . S
C284 C286 1.327 . S
C284 H309 0.950 . S
C285 C284 1.349 . S
C285 C301 1.349 . S
C286 C284 1.327 . S
C286 C305 1.429 . S
C286 H310 0.950 . S
C287 C304 1.574 . S
C287 C306 1.368 . S
C287 H311 0.949 . S
H288 C292 0.949 . S
C289 C290 1.349 . S
C289 C291 1.327 . S
C289 H312 0.950 . S
C290 C289 1.349 . S
C290 C302 1.349 . S
C291 C289 1.327 . S
C291 C307 1.429 . S
C291 H313 0.950 . S
C292 H288 0.949 . S
C292 C300 1.574 . S
C292 C308 1.368 . S
H293 C301 0.950 . S
H294 C299 0.950 . S
H295 C300 0.949 . S
H296 C302 0.950 . S
H297 C303 0.950 . S
H298 C304 0.949 . S
C299 H294 0.950 . S
C299 C301 1.327 . S
C299 C305 1.429 . S
C300 C292 1.574 . S
C300 H295 0.949 . S
C300 C306 1.368 . S
C301 C285 1.349 . S
C301 H293 0.950 . S
C301 C299 1.327 . S
C302 C290 1.349 . S
C302 H296 0.950 . S
C302 C303 1.327 . S
C303 H297 0.950 . S
C303 C302 1.327 . S
C303 C307 1.429 . S
C304 C287 1.574 . S
C304 H298 0.949 . S
C304 C308 1.368 . S
C305 C286 1.429 . S
C305 C299 1.429 . S
C305 C306 1.523 . S
C306 C287 1.368 . S
C306 C300 1.368 . S
C306 C305 1.523 . S
C307 C291 1.429 . S
C307 C303 1.429 . S
C307 C308 1.523 . S
C308 C292 1.368 . S
C308 C304 1.368 . S
C308 C307 1.523 . S
H309 C284 0.950 . S
H310 C286 0.950 . S
H311 C287 0.949 . S
H312 C289 0.950 . S
H313 C291 0.950 . S
C314 C315 1.349 . S
C314 C316 1.327 . S
C314 H339 0.950 . S
C315 C314 1.349 . S
C315 C331 1.349 . S
C316 C314 1.327 . S
C316 C335 1.429 . S
C316 H340 0.950 . S
C317 C334 1.574 . S
C317 C336 1.368 . S
C317 H341 0.949 . S
H318 C322 0.949 . S
C319 C320 1.349 . S
C319 C321 1.327 . S
C319 H342 0.950 . S
C320 C319 1.349 . S
C320 C332 1.349 . S
C321 C319 1.327 . S
C321 C337 1.429 . S
C321 H343 0.950 . S
C322 H318 0.949 . S
C322 C330 1.574 . S
C322 C338 1.368 . S
H323 C331 0.950 . S
H324 C329 0.950 . S
H325 C330 0.949 . S
H326 C332 0.950 . S
H327 C333 0.950 . S
H328 C334 0.949 . S
C329 H324 0.950 . S
C329 C331 1.327 . S
C329 C335 1.429 . S
C330 C322 1.574 . S
C330 H325 0.949 . S
C330 C336 1.368 . S
C331 C315 1.349 . S
C331 H323 0.950 . S
C331 C329 1.327 . S
C332 C320 1.349 . S
C332 H326 0.950 . S
C332 C333 1.327 . S
C333 H327 0.950 . S
C333 C332 1.327 . S
C333 C337 1.429 . S
C334 C317 1.574 . S
C334 H328 0.949 . S
C334 C338 1.368 . S
C335 C316 1.429 . S
C335 C329 1.429 . S
C335 C336 1.523 . S
C336 C317 1.368 . S
C336 C330 1.368 . S
C336 C335 1.523 . S
C337 C321 1.429 . S
C337 C333 1.429 . S
C337 C338 1.523 . S
C338 C322 1.368 . S
C338 C334 1.368 . S
C338 C337 1.523 . S
H339 C314 0.950 . S
H340 C316 0.950 . S
H341 C317 0.949 . S
H342 C319 0.950 . S
H343 C321 0.950 . S
C344 C345 1.349 . S
C344 C346 1.327 . S
C344 H369 0.950 . S
C345 C344 1.349 . S
C345 C361 1.349 . S
C346 C344 1.327 . S
C346 C365 1.429 . S
C346 H370 0.950 . S
C347 C364 1.574 . S
C347 C366 1.368 . S
C347 H371 0.949 . S
H348 C352 0.949 1_655 S
C349 C350 1.349 . S
C349 C351 1.327 . S
C349 H372 0.950 . S
C350 C349 1.349 . S
C350 C362 1.349 1_455 S
C351 C349 1.327 . S
C351 C367 1.429 . S
C351 H373 0.950 . S
C352 H348 0.949 1_455 S
C352 C360 1.574 . S
C352 C368 1.368 . S
H353 C361 0.950 . S
H354 C359 0.950 . S
H355 C360 0.949 1_655 S
H356 C362 0.950 . S
H357 C363 0.950 . S
H358 C364 0.949 . S
C359 H354 0.950 . S
C359 C361 1.327 . S
C359 C365 1.429 . S
C360 C352 1.574 . S
C360 H355 0.949 1_455 S
C360 C366 1.368 . S
C361 C345 1.349 . S
C361 H353 0.950 . S
C361 C359 1.327 . S
C362 C350 1.349 1_655 S
C362 H356 0.950 . S
C362 C363 1.327 . S
C363 H357 0.950 . S
C363 C362 1.327 . S
C363 C367 1.429 1_655 S
C364 C347 1.574 . S
C364 H358 0.949 . S
C364 C368 1.368 . S
C365 C346 1.429 . S
C365 C359 1.429 . S
C365 C366 1.523 . S
C366 C347 1.368 . S
C366 C360 1.368 . S
C366 C365 1.523 . S
C367 C351 1.429 . S
C367 C363 1.429 1_455 S
C367 C368 1.523 . S
C368 C352 1.368 . S
C368 C364 1.368 . S
C368 C367 1.523 . S
H369 C344 0.950 . S
H370 C346 0.950 . S
H371 C347 0.949 . S
H372 C349 0.950 . S
H373 C351 0.950 . S
C140 C115 1.590 . S
C135 C22 1.591 . S
C170 C126 1.540 . S
C165 C91 1.609 . S
C200 C114 1.613 . S
C195 C38 1.612 . S
C230 C127 1.527 . S
C225 C75 1.583 . S
C260 C129 1.612 . S
C255 C39 1.609 . S
C290 C113 1.525 . S
C285 C82 1.585 . S
C320 C128 1.589 1_655 S
C315 C29 1.589 . S
C345 C92 1.607 . S
C350 C112 1.544 . S
