# Generated by pormake.
# Topology zzz, (3,6)-cn, num edge types: 1
# Building blocks:
#     Node 0, Type 0, BuildingBlock: OLANEW_clean_sbu_2, # of connection points: 3
#     Node 1, Type 0, BuildingBlock: OLANEW_clean_sbu_2, # of connection points: 3
#     Node 2, Type 0, BuildingBlock: OLANEW_clean_sbu_2, # of connection points: 3
#     Node 3, Type 0, BuildingBlock: OLANEW_clean_sbu_2, # of connection points: 3
#     Node 4, Type 0, BuildingBlock: OLANEW_clean_sbu_2, # of connection points: 3
#     Node 5, Type 0, BuildingBlock: OLANEW_clean_sbu_2, # of connection points: 3
#     Node 6, Type 0, BuildingBlock: OLANEW_clean_sbu_2, # of connection points: 3
#     Node 7, Type 0, BuildingBlock: OLANEW_clean_sbu_2, # of connection points: 3
#     Node 8, Type 1, BuildingBlock: JUFBIX_clean_sbu_0, # of connection points: 6
#     Node 9, Type 1, BuildingBlock: JUFBIX_clean_sbu_0, # of connection points: 6
#     Node 10, Type 1, BuildingBlock: JUFBIX_clean_sbu_0, # of connection points: 6
#     Node 11, Type 1, BuildingBlock: JUFBIX_clean_sbu_0, # of connection points: 6
#     Edge 12, Type (0, 1), BuildingBlock: AJUNOK_clean_linker_0, # of connection points: 2
#     Edge 13, Type (0, 1), BuildingBlock: AJUNOK_clean_linker_0, # of connection points: 2
#     Edge 14, Type (0, 1), BuildingBlock: AJUNOK_clean_linker_0, # of connection points: 2
#     Edge 15, Type (0, 1), BuildingBlock: AJUNOK_clean_linker_0, # of connection points: 2
#     Edge 16, Type (0, 1), BuildingBlock: AJUNOK_clean_linker_0, # of connection points: 2
#     Edge 17, Type (0, 1), BuildingBlock: AJUNOK_clean_linker_0, # of connection points: 2
#     Edge 18, Type (0, 1), BuildingBlock: AJUNOK_clean_linker_0, # of connection points: 2
#     Edge 19, Type (0, 1), BuildingBlock: AJUNOK_clean_linker_0, # of connection points: 2
#     Edge 20, Type (0, 1), BuildingBlock: AJUNOK_clean_linker_0, # of connection points: 2
#     Edge 21, Type (0, 1), BuildingBlock: AJUNOK_clean_linker_0, # of connection points: 2
#     Edge 22, Type (0, 1), BuildingBlock: AJUNOK_clean_linker_0, # of connection points: 2
#     Edge 23, Type (0, 1), BuildingBlock: AJUNOK_clean_linker_0, # of connection points: 2
#     Edge 24, Type (0, 1), BuildingBlock: AJUNOK_clean_linker_0, # of connection points: 2
#     Edge 25, Type (0, 1), BuildingBlock: AJUNOK_clean_linker_0, # of connection points: 2
#     Edge 26, Type (0, 1), BuildingBlock: AJUNOK_clean_linker_0, # of connection points: 2
#     Edge 27, Type (0, 1), BuildingBlock: AJUNOK_clean_linker_0, # of connection points: 2
#     Edge 28, Type (0, 1), BuildingBlock: AJUNOK_clean_linker_0, # of connection points: 2
#     Edge 29, Type (0, 1), BuildingBlock: AJUNOK_clean_linker_0, # of connection points: 2
#     Edge 30, Type (0, 1), BuildingBlock: AJUNOK_clean_linker_0, # of connection points: 2
#     Edge 31, Type (0, 1), BuildingBlock: AJUNOK_clean_linker_0, # of connection points: 2
#     Edge 32, Type (0, 1), BuildingBlock: AJUNOK_clean_linker_0, # of connection points: 2
#     Edge 33, Type (0, 1), BuildingBlock: AJUNOK_clean_linker_0, # of connection points: 2
#     Edge 34, Type (0, 1), BuildingBlock: AJUNOK_clean_linker_0, # of connection points: 2
#     Edge 35, Type (0, 1), BuildingBlock: AJUNOK_clean_linker_0, # of connection points: 2
# Relax obj value: 0.108
# Max RMSD: 0.177
# Mean RMSD: 0.087
data_MOF--net-zzz--node1-OLANEW_clean_sbu_2--node2-JUFBIX_clean_sbu_0--edge1-AJUNOK_clean_linker_0
_symmetry_space_group_name_H-M    P1
_symmetry_Int_Tables_number       1
_symmetry_cell_setting            triclinic
loop_
_symmetry_equiv_pos_as_xyz
'x, y, z'
_cell_length_a     42.265722
_cell_length_b     41.814453
_cell_length_c     14.844316
_cell_angle_alpha  79.692692
_cell_angle_beta   90.116173
_cell_angle_gamma 92.002275
loop_
_atom_site_label
_atom_site_type_symbol
_atom_site_fract_x
_atom_site_fract_y
_atom_site_fract_z
_atom_type_partial_charge
O0 O 0.84517 0.55704 0.0002 0.0
Cd1 Cd 0.79951 0.58956 0.01619 0.0
O2 O 0.85361 0.55438 0.14701 0.0
Cd3 Cd 0.88105 0.53965 0.27123 0.0
O4 O 0.91078 0.52795 0.39182 0.0
C5 C 0.92662 0.5507 0.41937 0.0
O6 O 0.92457 0.58052 0.37374 0.0
C7 C 0.86176 0.54745 0.07061 0.0
C8 C 0.74374 0.5563 0.98449 0.0
O9 O 0.75773 0.57597 0.91943 0.0
O10 O 0.75608 0.55276 0.06443 0.0
O11 O 0.91442 0.81597 0.91377 0.0
Cd12 Cd 0.8925 0.76301 0.9845 0.0
O13 O 0.93105 0.81602 0.05338 0.0
Cd14 Cd 0.95858 0.83661 0.15512 0.0
O15 O 0.98244 0.86817 0.23762 0.0
C16 C 0.96744 0.89104 0.26203 0.0
O17 O 0.93761 0.89454 0.2384 0.0
C18 C 0.92999 0.82989 0.96989 0.0
C19 C 0.93681 0.71722 0.9655 0.0
O20 O 0.91237 0.72065 0.91393 0.0
O21 O 0.93996 0.7348 0.02746 0.0
O22 O 0.73039 0.01844 0.85712 0.0
Cd23 Cd 0.78188 0.00441 0.92548 0.0
O24 O 0.72008 0.02088 -0.00026 0.0
Cd25 Cd 0.68913 0.01987 0.11782 0.0
O26 O 0.65406 0.01785 0.22595 0.0
C27 C 0.62972 0.99929 0.22433 0.0
O28 O 0.62653 0.98289 0.15698 0.0
C29 C 0.7104 0.02202 0.91804 0.0
C30 C 0.83839 0.02562 0.8342 0.0
O31 O 0.82321 1.00006 0.81883 0.0
O32 O 0.82579 0.04218 0.88871 0.0
O33 O 0.52519 0.68895 0.0722 0.0
Cd34 Cd 0.54088 0.7337 0.15387 0.0
O35 O 0.56599 0.66183 0.13326 0.0
Cd36 Cd 0.57355 0.68746 0.24688 0.0
O37 O 0.56782 0.65592 0.38051 0.0
C38 C 0.54575 0.63425 0.38371 0.0
O39 O 0.52767 0.63449 0.31148 0.0
C40 C 0.54281 0.66454 0.07808 0.0
C41 C 0.53329 0.79857 0.06674 0.0
O42 O 0.55705 0.78254 0.04861 0.0
O43 O 0.51258 0.78373 0.12373 0.0
O44 O 0.19581 0.51202 0.49789 0.0
Cd45 Cd 0.23835 0.50726 0.3913 0.0
O46 O 0.19945 0.4611 0.56539 0.0
Cd47 Cd 0.21507 0.4493 0.43615 0.0
O48 O 0.18288 0.4514 0.32006 0.0
C49 C 0.15523 0.45979 0.33757 0.0
O50 O 0.1488 0.46459 0.42049 0.0
C51 C 0.18904 0.48932 0.56485 0.0
C52 C 0.29348 0.51214 0.49143 0.0
O53 O 0.28057 0.53753 0.44751 0.0
O54 O 0.28119 0.48427 0.4841 0.0
O55 O 0.13525 0.20015 0.71775 0.0
Cd56 Cd 0.16294 0.25291 0.69283 0.0
O57 O 0.13078 0.19753 0.57183 0.0
Cd58 Cd 0.11742 0.17299 0.45795 0.0
O59 O 0.09928 0.146 0.3544 0.0
C60 C 0.09007 0.11646 0.3786 0.0
O61 O 0.09229 0.10287 0.46519 0.0
C62 C 0.12538 0.18518 0.65535 0.0
C63 C 0.12245 0.29745 0.7446 0.0
O64 O 0.12533 0.29484 0.66033 0.0
O65 O 0.13915 0.27945 0.80407 0.0
O66 O 0.31175 0.9257 0.88989 0.0
Cd67 Cd 0.26242 0.89385 0.88537 0.0
O68 O 0.31359 0.94189 0.7402 0.0
Cd69 Cd 0.33978 0.96754 0.61868 0.0
O70 O 0.37817 0.98658 0.52199 0.0
C71 C 0.37809 0.97864 0.44329 0.0
O72 O 0.35446 0.96015 0.42203 0.0
C73 C 0.32612 0.94068 0.81874 0.0
C74 C 0.20695 0.92826 0.87705 0.0
O75 O 0.21907 0.91623 0.95439 0.0
O76 O 0.22162 0.92465 0.80422 0.0
O77 O 0.49897 0.30445 0.63879 0.0
Cd78 Cd 0.49812 0.25979 0.54997 0.0
O79 O 0.45758 0.32911 0.57226 0.0
Cd80 Cd 0.45303 0.30252 0.45968 0.0
O81 O 0.45609 0.33499 0.32684 0.0
C82 C 0.47575 0.35883 0.3252 0.0
O83 O 0.49308 0.36015 0.39813 0.0
C84 C 0.47954 0.32739 0.63131 0.0
C85 C 0.49805 0.19505 0.6443 0.0
O86 O 0.52342 0.21303 0.63643 0.0
O87 O 0.47248 0.20786 0.61101 0.0
Co88 Co 0.02719 0.01122 0.88133 0.0
C89 C 0.9727 0.02908 0.77948 0.0
Co90 Co 0.0285 0.00381 0.73811 0.0
C91 C 0.045 0.03686 0.04213 0.0
C92 C 0.00029 0.01084 0.05973 0.0
N93 N 0.02443 0.01911 -0.00016 0.0
N94 N 0.03438 0.04065 0.12509 0.0
C95 C 0.00643 0.02391 0.13703 0.0
H96 H 0.06725 0.04701 0.01213 0.0
H97 H 0.97915 0.99706 0.04684 0.0
C98 C 0.08261 0.98492 0.84083 0.0
N99 N 0.0319 0.99588 0.6201 0.0
C100 C 0.01231 0.97785 0.57572 0.0
C101 C 0.05715 0.00366 0.56411 0.0
N102 N 0.02456 0.97367 0.4949 0.0
C103 C 0.05273 0.99002 0.48721 0.0
C104 C 0.05347 0.06359 0.75996 0.0
O105 O 0.0676 0.99327 0.90646 0.0
O106 O 0.06967 0.98792 0.76263 0.0
O107 O 0.0462 0.04651 0.69991 0.0
O108 O 0.04698 0.05273 0.84345 0.0
O109 O 0.98716 0.01932 0.71497 0.0
H110 H 0.07794 0.01749 0.5796 0.0
H111 H 0.99019 0.96664 0.60417 0.0
O112 O 0.98668 0.02892 0.85552 0.0
O113 O 0.00745 0.96956 0.91802 0.0
O114 O 0.01069 0.96129 0.77688 0.0
C115 C 0.00219 0.95133 0.85937 0.0
H116 H 0.99101 0.02225 0.19596 0.0
H117 H 0.0691 0.99192 0.43042 0.0
Co118 Co 0.51222 0.00206 0.93086 0.0
C119 C 0.5231 0.93714 0.92079 0.0
Co120 Co 0.5189 0.99294 0.7892 0.0
C121 C 0.47946 0.01348 0.09231 0.0
C122 C 0.52762 0.0018 0.12138 0.0
N123 N 0.50692 0.00834 0.05161 0.0
N124 N 0.48178 0.00936 0.18432 0.0
C125 C 0.51222 0.00239 0.20287 0.0
H126 H 0.45745 0.01805 0.05604 0.0
H127 H 0.55162 0.99434 0.11458 0.0
C128 C 0.50777 0.05766 0.79881 0.0
N129 N 0.52344 0.98502 0.66997 0.0
C130 C 0.54708 0.99439 0.6087 0.0
C131 C 0.50335 0.96682 0.62741 0.0
N132 N 0.54254 0.98263 0.53025 0.0
C133 C 0.51473 0.96569 0.54169 0.0
C134 C 0.45636 0.98588 0.84887 0.0
O135 O 0.50667 0.04717 0.88487 0.0
O136 O 0.51281 0.03801 0.74431 0.0
O137 O 0.47489 0.98474 0.78272 0.0
O138 O 0.46772 0.99331 0.9218 0.0
O139 O 0.52472 0.9481 0.83529 0.0
H140 H 0.48184 0.95467 0.65668 0.0
H141 H 0.56765 0.00892 0.62215 0.0
O142 O 0.51787 0.95668 0.97526 0.0
O143 O 0.55667 0.01068 0.9373 0.0
O144 O 0.56313 1.00121 0.79777 0.0
C145 C 0.5748 0.00901 0.8701 0.0
H146 H 0.52189 0.99526 0.27067 0.0
H147 H 0.50295 0.95371 0.49146 0.0
Co148 Co 0.53348 0.49171 0.86394 0.0
C149 C 0.49459 0.46101 0.00689 0.0
Co150 Co 0.4829 0.50151 0.84354 0.0
C151 C 0.6002 0.50431 0.88503 0.0
C152 C 0.58781 0.45341 0.91407 0.0
N153 N 0.5756 0.48286 0.88523 0.0
N154 N 0.62708 0.48945 0.9142 0.0
C155 C 0.61951 0.45739 0.93186 0.0
H156 H 0.59812 0.53043 0.86829 0.0
H157 H 0.57428 0.43062 0.92495 0.0
C158 C 0.52207 0.53237 0.70096 0.0
N159 N 0.44077 0.51023 0.82253 0.0
C160 C 0.424 0.50701 0.74705 0.0
C161 C 0.42048 0.52246 0.87654 0.0
N162 N 0.39422 0.51706 0.75136 0.0
C163 C 0.39177 0.52677 0.83271 0.0
C164 C 0.51548 0.5474 0.9257 0.0
O165 O 0.54393 0.518 0.74942 0.0
O166 O 0.49353 0.52746 0.72821 0.0
O167 O 0.48829 0.5395 0.8983 0.0
O168 O 0.53832 0.52896 0.91956 0.0
O169 O 0.47251 0.47531 0.95908 0.0
H170 H 0.42626 0.5281 0.9431 0.0
H171 H 0.43364 0.49809 0.68907 0.0
O172 O 0.52296 0.46577 0.97845 0.0
O173 O 0.52828 0.4543 0.80814 0.0
O174 O 0.4779 0.46367 0.78918 0.0
C175 C 0.50112 0.44574 0.78221 0.0
H176 H 0.63556 0.4383 0.95763 0.0
H177 H 0.37069 0.53597 0.85886 0.0
Co178 Co 0.0395 0.52905 0.89717 0.0
C179 C 0.06497 0.48752 0.04274 0.0
Co180 Co 0.02859 0.47726 0.89471 0.0
C181 C 0.02137 0.59395 0.88909 0.0
C182 C 0.06752 0.58767 0.94718 0.0
N183 N 0.04467 0.57253 0.90533 0.0
N184 N 0.02801 0.62155 0.9216 0.0
C185 C 0.05726 0.61772 0.95789 0.0
H186 H 0.9989 0.58827 0.85961 0.0
H187 H 0.08899 0.57657 0.97512 0.0
C188 C 0.00341 0.51874 0.7478 0.0
N189 N 0.02288 0.43389 0.88681 0.0
C190 C 0.04637 0.41292 0.8869 0.0
C191 C 0.99668 0.41796 0.8633 0.0
N192 N 0.03614 0.38487 0.86287 0.0
C193 C 0.00491 0.38779 0.84748 0.0
C194 C 0.98288 0.5029 0.9847 0.0
O195 O 0.01684 0.5404 0.78603 0.0
O196 O 0.00573 0.48904 0.78433 0.0
O197 O 0.99016 0.47622 0.96187 0.0
O198 O 0.00143 0.52761 0.96433 0.0
O199 O 0.05189 0.46555 0.0049 0.0
H200 H 0.97372 0.42854 0.8514 0.0
H201 H 0.07107 0.41905 0.89693 0.0
O202 O 0.06199 0.51721 0.00743 0.0
O203 O 0.07764 0.5304 0.82987 0.0
O204 O 0.06667 0.47903 0.82664 0.0
C205 C 0.08494 0.50398 0.80549 0.0
H206 H 0.06938 0.63396 0.99662 0.0
H207 H 0.98978 0.37049 0.81991 0.0
C208 C 0.16206 0.95382 0.78478 0.0
C209 C 0.17611 0.94445 0.87102 0.0
C210 C 0.13209 0.96712 0.77621 0.0
C211 C 0.1148 0.97184 0.85346 0.0
H212 H 0.17403 0.95036 0.72296 0.0
H213 H 0.12235 0.97354 0.70805 0.0
S214 S 0.14138 0.95284 0.09509 0.0
N215 N 0.1708 0.94184 0.03558 0.0
N216 N 0.11439 0.96706 0.01926 0.0
C217 C 0.1288 0.96335 0.94018 0.0
C218 C 0.15942 0.94961 0.94901 0.0
C219 C 0.51919 0.14965 0.76016 0.0
C220 C 0.49872 0.1601 0.68659 0.0
C221 C 0.52124 0.11648 0.79827 0.0
C222 C 0.50372 0.09255 0.76202 0.0
H223 H 0.53369 0.16725 0.78857 0.0
H224 H 0.53735 0.10943 0.85464 0.0
S225 S 0.44672 0.10693 0.57023 0.0
N226 N 0.46004 0.14371 0.58062 0.0
N227 N 0.46501 0.08143 0.64964 0.0
C228 C 0.48321 0.10261 0.6887 0.0
C229 C 0.4804 0.13638 0.65171 0.0
C230 C 0.33983 0.48797 0.58059 0.0
C231 C 0.32064 0.51482 0.55315 0.0
C232 C 0.36433 0.48913 0.64389 0.0
C233 C 0.37001 0.51689 0.68343 0.0
H234 H 0.33579 0.46579 0.55345 0.0
H235 H 0.37841 0.4679 0.66403 0.0
S236 S 0.32765 0.59405 0.63289 0.0
N237 N 0.30995 0.57047 0.56851 0.0
N238 N 0.3557 0.57218 0.6886 0.0
C239 C 0.35143 0.54401 0.65586 0.0
C240 C 0.32685 0.54311 0.5903 0.0
C241 C 0.0858 0.3127 0.86061 0.0
C242 C 0.09992 0.32001 0.77304 0.0
C243 C 0.06411 0.33357 0.889 0.0
C244 C 0.05618 0.36238 0.83101 0.0
H245 H 0.09139 0.29063 0.90728 0.0
H246 H 0.05381 0.32749 0.95691 0.0
S247 S 0.08771 0.39393 0.59861 0.0
N248 N 0.10495 0.35883 0.63011 0.0
N249 N 0.06455 0.39812 0.68495 0.0
C250 C 0.07024 0.3702 0.74415 0.0
C251 C 0.09201 0.34893 0.71467 0.0
C252 C 0.89177 0.05152 0.84887 0.0
C253 C 0.87145 0.03294 0.80153 0.0
C254 C 0.92461 0.05235 0.83573 0.0
C255 C 0.93838 0.03512 0.77358 0.0
H256 H 0.88256 0.06361 0.9015 0.0
H257 H 0.93944 0.06507 0.8785 0.0
S258 S 0.8952 0.98766 0.62046 0.0
N259 N 0.86713 1.00042 0.68127 0.0
N260 N 0.92886 0.00243 0.65544 0.0
C261 C 0.91815 0.01912 0.71919 0.0
C262 C 0.88467 0.01788 0.73354 0.0
C263 C 0.51384 0.85402 0.07418 0.0
C264 C 0.53055 0.83361 0.02667 0.0
C265 C 0.51203 0.88749 0.04025 0.0
C266 C 0.52625 0.90183 0.95636 0.0
H267 H 0.5025 0.84418 0.13908 0.0
H268 H 0.499 0.90216 0.07961 0.0
S269 S 0.57239 0.8591 0.80443 0.0
N270 N 0.56165 0.83028 0.89126 0.0
N271 N 0.55755 0.89291 0.82635 0.0
C272 C 0.54275 0.88165 0.90763 0.0
C273 C 0.54511 0.84767 0.94307 0.0
C274 C 0.69727 0.54782 0.88568 0.0
C275 C 0.7141 0.53837 0.96758 0.0
C276 C 0.66889 0.53166 0.86857 0.0
C277 C 0.65663 0.50513 0.9319 0.0
H278 H 0.70583 0.56812 0.83473 0.0
H279 H 0.65648 0.53979 0.80514 0.0
S280 S 0.69095 0.47098 0.15716 0.0
N281 N 0.71601 0.50083 0.11317 0.0
N282 N 0.66274 0.47054 0.08029 0.0
C283 C 0.67316 0.49531 0.01376 0.0
C284 C 0.70186 0.51193 0.03179 0.0
C285 C 0.9508 0.66199 0.9433 0.0
C286 C 0.96061 0.69342 0.95406 0.0
C287 C 0.97291 0.63875 0.93333 0.0
C288 C 0.00578 0.6463 0.93096 0.0
H289 H 0.92583 0.65507 0.94474 0.0
H290 H 0.96393 0.61454 0.92915 0.0
S291 S 0.04308 0.72676 0.94799 0.0
N292 N 0.00478 0.73171 0.95905 0.0
N293 N 0.04656 0.68866 0.93463 0.0
C294 C 0.01575 0.67812 0.93948 0.0
C295 C 0.99313 0.70153 0.95224 0.0
C296 C 0.08228 0.14538 0.62772 0.0
C297 C 0.10772 0.15374 0.68131 0.0
C298 C 0.06475 0.11604 0.65325 0.0
C299 C 0.07162 0.09455 0.73435 0.0
H300 H 0.07529 0.1619 0.56686 0.0
H301 H 0.04539 0.1104 0.61011 0.0
S302 S 0.13623 0.10453 0.89743 0.0
N303 N 0.13927 0.13767 0.81814 0.0
N304 N 0.10586 0.08299 0.86702 0.0
C305 C 0.09677 0.10268 0.78893 0.0
C306 C 0.11488 0.13223 0.76233 0.0
C307 C 0.38188 0.94805 0.76521 0.0
C308 C 0.35853 0.954 0.82657 0.0
C309 C 0.41312 0.95927 0.77197 0.0
C310 C 0.42252 0.9763 0.84178 0.0
H311 H 0.37622 0.93377 0.71287 0.0
H312 H 0.43014 0.95368 0.72322 0.0
S313 S 0.37008 0.99804 0.02029 0.0
N314 N 0.34646 0.97799 0.95929 0.0
N315 N 0.40556 0.99888 0.97328 0.0
C316 C 0.39935 0.98231 0.90413 0.0
C317 C 0.36731 0.97104 0.89657 0.0
C318 C 0.46102 0.3782 0.67828 0.0
C319 C 0.48464 0.35508 0.6809 0.0
C320 C 0.46657 0.40721 0.71148 0.0
C321 C 0.49607 0.41457 0.74832 0.0
H322 H 0.43814 0.37427 0.6483 0.0
H323 H 0.44762 0.42423 0.70665 0.0
S324 S 0.56544 0.3615 0.77643 0.0
N325 N 0.53835 0.34096 0.72763 0.0
N326 N 0.54881 0.39548 0.78978 0.0
C327 C 0.51966 0.39128 0.75399 0.0
C328 C 0.51392 0.36155 0.72066 0.0
C329 C 0.14983 0.46707 0.68699 0.0
C330 C 0.16554 0.49428 0.63438 0.0
C331 C 0.12443 0.47067 0.74389 0.0
C332 C 0.11381 0.50163 0.75137 0.0
H333 H 0.15629 0.44263 0.68159 0.0
H334 H 0.11261 0.44883 0.78079 0.0
S335 S 0.14871 0.58085 0.63473 0.0
N336 N 0.17006 0.55341 0.59801 0.0
N337 N 0.12227 0.56013 0.70595 0.0
C338 C 0.13023 0.52915 0.70273 0.0
C339 C 0.15607 0.52548 0.64395 0.0
C340 C 0.9492 0.88478 0.99432 0.0
C341 C 0.94761 0.86099 0.93843 0.0
C342 C 0.96743 0.91355 0.969 0.0
C343 C 0.98432 0.91996 0.8857 0.0
H344 H 0.93586 0.88138 0.05766 0.0
H345 H 0.96781 0.93112 0.01455 0.0
S346 S 0.98677 0.86592 0.71278 0.0
N347 N 0.96377 0.84584 0.79523 0.0
N348 N 0.99755 0.90031 0.74601 0.0
C349 C 0.98229 0.89667 0.82792 0.0
C350 C 0.96392 0.86718 0.8544 0.0
C351 C 0.66323 0.00223 0.84006 0.0
C352 C 0.67614 0.02267 0.89738 0.0
C353 C 0.63038 0.99864 0.8296 0.0
C354 C 0.60931 0.01512 0.87686 0.0
H355 H 0.67855 0.98785 0.80595 0.0
H356 H 0.62144 0.98189 0.78692 0.0
S357 S 0.63127 0.07633 0.02063 0.0
N358 N 0.66549 0.06365 0.9896 0.0
N359 N 0.6037 0.05554 0.97426 0.0
C360 C 0.62194 0.03694 0.93046 0.0
C361 C 0.65539 0.0411 0.93952 0.0
C362 C 0.55872 0.61424 0.0244 0.0
C363 C 0.53538 0.6371 0.02923 0.0
C364 C 0.55191 0.5856 0.9908 0.0
C365 C 0.52138 0.57829 0.96054 0.0
H366 H 0.58252 0.61813 0.04846 0.0
H367 H 0.57087 0.56889 0.98968 0.0
S368 S 0.45191 0.6307 0.95417 0.0
N369 N 0.48058 0.65105 0.99757 0.0
N370 N 0.46772 0.59712 0.93385 0.0
C371 C 0.49789 0.60131 0.96243 0.0
C372 C 0.50492 0.63073 0.9966 0.0
C373 C 0.9193 0.54142 0.10142 0.0
C374 C 0.89154 0.53095 0.06151 0.0
C375 C 0.94882 0.53009 0.08173 0.0
C376 C 0.95154 0.50753 0.02256 0.0
H377 H 0.91854 0.56012 0.14321 0.0
H378 H 0.96984 0.54032 0.10927 0.0
S379 S 0.88565 0.47077 0.90617 0.0
N380 N 0.86827 0.49553 0.96428 0.0
N381 N 0.92385 0.47372 0.92842 0.0
C382 C 0.92378 0.49537 0.98663 0.0
C383 C 0.89374 0.50735 0.00547 0.0
C384 C 0.05995 0.06782 0.3427 0.0
C385 C 0.07626 0.09764 0.31131 0.0
C386 C 0.0464 0.0494 0.28153 0.0
C387 C 0.04881 0.05993 0.18644 0.0
H388 H 0.05724 0.0588 0.41532 0.0
H389 H 0.03405 0.02662 0.3087 0.0
S390 S 0.08699 0.13735 0.06822 0.0
N391 N 0.09291 0.13751 0.1781 0.0
N392 N 0.06708 0.10303 0.06338 0.0
C393 C 0.06463 0.08992 0.15379 0.0
C394 C 0.07838 0.10877 0.21613 0.0
C395 C 0.40311 0.97967 0.29035 0.0
C396 C 0.40465 0.98864 0.37732 0.0
C397 C 0.42806 0.98715 0.22748 0.0
C398 C 0.4557 0.00399 0.24844 0.0
H399 H 0.38263 0.96626 0.27067 0.0
H400 H 0.42607 0.97873 0.16283 0.0
S401 S 0.4714 0.03478 0.46387 0.0
N402 N 0.43604 0.01652 0.47972 0.0
N403 N 0.48289 0.03057 0.36047 0.0
C404 C 0.45755 0.01363 0.33427 0.0
C405 C 0.43203 0.00607 0.39874 0.0
C406 C 0.50709 0.40481 0.23289 0.0
C407 C 0.47917 0.38516 0.24413 0.0
C408 C 0.51142 0.42987 0.15725 0.0
C409 C 0.48774 0.43677 0.09064 0.0
H410 H 0.52613 0.40046 0.28206 0.0
H411 H 0.53367 0.44379 0.15054 0.0
S412 S 0.40965 0.39344 0.08951 0.0
N413 N 0.42708 0.3748 0.1831 0.0
N414 N 0.43504 0.42236 0.04142 0.0
C415 C 0.45933 0.4179 0.10198 0.0
C416 C 0.45512 0.39194 0.17844 0.0
C417 C 0.12949 0.44742 0.19524 0.0
C418 C 0.13105 0.46602 0.26531 0.0
C419 C 0.10685 0.45348 0.12552 0.0
C420 C 0.08573 0.47891 0.12243 0.0
H421 H 0.1458 0.42806 0.19438 0.0
H422 H 0.10667 0.43898 0.07187 0.0
S423 S 0.07994 0.53439 0.2899 0.0
N424 N 0.10898 0.51029 0.32854 0.0
N425 N 0.06732 0.52235 0.19563 0.0
C426 C 0.08692 0.49749 0.19229 0.0
C427 C 0.10936 0.49084 0.26433 0.0
C428 C 0.96443 0.93295 0.36248 0.0
C429 C 0.98294 0.91288 0.31861 0.0
C430 C 0.97824 0.9529 0.41928 0.0
C431 C 0.0111 0.95388 0.43357 0.0
H432 H 0.93896 0.93292 0.35418 0.0
H433 H 0.96309 0.96776 0.45223 0.0
S434 S 0.07031 0.90662 0.33372 0.0
N435 N 0.03612 0.89581 0.29218 0.0
N436 N 0.06189 0.93308 0.3996 0.0
C437 C 0.02999 0.93436 0.3892 0.0
C438 C 0.01595 0.9139 0.33167 0.0
C439 C 0.60396 0.01901 0.35481 0.0
C440 C 0.60627 0.99503 0.29985 0.0
C441 C 0.58288 0.01494 0.42911 0.0
C442 C 0.56353 0.98658 0.45209 0.0
H443 H 0.61849 0.04119 0.34018 0.0
H444 H 0.58164 0.03425 0.46862 0.0
S445 S 0.5616 0.91582 0.3318 0.0
N446 N 0.58759 0.94184 0.27359 0.0
N447 N 0.54907 0.9335 0.4153 0.0
C448 C 0.56579 0.96229 0.39787 0.0
C449 C 0.58685 0.96671 0.32124 0.0
C450 C 0.51166 0.59064 0.4768 0.0
C451 C 0.54078 0.6083 0.4652 0.0
C452 C 0.50609 0.56568 0.55217 0.0
C453 C 0.52963 0.55694 0.61819 0.0
H454 H 0.49274 0.59638 0.42787 0.0
H455 H 0.48307 0.55323 0.55885 0.0
S456 S 0.61031 0.595 0.61894 0.0
N457 N 0.59366 0.61499 0.52585 0.0
N458 N 0.58336 0.56776 0.66691 0.0
C459 C 0.55908 0.574 0.60682 0.0
C460 C 0.5646 0.59979 0.53064 0.0
C461 C 0.95081 0.51103 0.54462 0.0
C462 C 0.94682 0.54352 0.50201 0.0
C463 C 0.96934 0.50335 0.62329 0.0
C464 C 0.98467 0.52781 0.66298 0.0
H465 H 0.9395 0.49122 0.51719 0.0
H466 H 0.97146 0.47793 0.65339 0.0
S467 S 0.98193 0.61685 0.57845 0.0
N468 N 0.95988 0.60046 0.50561 0.0
N469 N 0.99468 0.58603 0.65341 0.0
C470 C 0.98104 0.56044 0.62097 0.0
C471 C 0.96216 0.56829 0.5406 0.0
loop_
_geom_bond_atom_site_label_1
_geom_bond_atom_site_label_2
_geom_bond_distance
_geom_bond_site_symmetry_2
_ccdc_geom_bond_type
O0 Cd1 2.300 . S
O0 C7 1.275 . S
Cd1 O0 2.300 . S
Cd1 O9 2.381 . S
Cd1 O10 2.378 . S
O2 Cd3 2.385 . S
O2 C7 1.255 . S
Cd3 O2 2.385 . S
Cd3 O4 2.317 . S
O4 Cd3 2.317 . S
O4 C5 1.232 . S
C5 O4 1.232 . S
C5 O6 1.218 . S
O6 C5 1.218 . S
C7 O0 1.275 . S
C7 O2 1.255 . S
C8 O9 1.258 . S
C8 O10 1.256 . S
O9 Cd1 2.381 . S
O9 C8 1.258 . S
O10 Cd1 2.378 . S
O10 C8 1.256 . S
O11 Cd12 2.300 1_556 S
O11 C18 1.275 1_556 S
Cd12 O11 2.300 1_554 S
Cd12 O20 2.381 . S
Cd12 O21 2.378 . S
O13 Cd14 2.385 1_655 S
O13 C18 1.255 . S
Cd14 O13 2.385 1_455 S
Cd14 O15 2.317 1_455 S
O15 Cd14 2.317 1_655 S
O15 C16 1.232 . S
C16 O15 1.232 . S
C16 O17 1.218 . S
O17 C16 1.218 . S
C18 O11 1.275 1_554 S
C18 O13 1.255 . S
C19 O20 1.258 . S
C19 O21 1.256 . S
O20 Cd12 2.381 . S
O20 C19 1.258 . S
O21 Cd12 2.378 . S
O21 C19 1.256 . S
O22 Cd23 2.300 1_566 S
O22 C29 1.275 1_565 S
Cd23 O22 2.300 1_544 S
Cd23 O31 2.381 1_544 S
Cd23 O32 2.378 . S
O24 Cd25 2.385 . S
O24 C29 1.255 1_554 S
Cd25 O24 2.385 . S
Cd25 O26 2.317 . S
O26 Cd25 2.317 . S
O26 C27 1.232 . S
C27 O26 1.232 . S
C27 O28 1.218 . S
O28 C27 1.218 . S
C29 O22 1.275 1_545 S
C29 O24 1.255 1_556 S
C30 O31 1.258 1_545 S
C30 O32 1.256 1_556 S
O31 Cd23 2.381 1_566 S
O31 C30 1.258 1_565 S
O32 Cd23 2.378 . S
O32 C30 1.256 1_554 S
O33 Cd34 2.300 . S
O33 C40 1.275 . S
Cd34 O33 2.300 . S
Cd34 O42 2.381 . S
Cd34 O43 2.378 . S
O35 Cd36 2.385 . S
O35 C40 1.255 . S
Cd36 O35 2.385 . S
Cd36 O37 2.317 . S
O37 Cd36 2.317 . S
O37 C38 1.232 . S
C38 O37 1.232 . S
C38 O39 1.218 . S
O39 C38 1.218 . S
C40 O33 1.275 . S
C40 O35 1.255 . S
C41 O42 1.258 . S
C41 O43 1.256 . S
O42 Cd34 2.381 . S
O42 C41 1.258 . S
O43 Cd34 2.378 . S
O43 C41 1.256 . S
O44 Cd45 2.300 . S
O44 C51 1.275 . S
Cd45 O44 2.300 . S
Cd45 O53 2.381 . S
Cd45 O54 2.378 . S
O46 Cd47 2.385 . S
O46 C51 1.255 . S
Cd47 O46 2.385 . S
Cd47 O48 2.317 . S
O48 Cd47 2.317 . S
O48 C49 1.232 . S
C49 O48 1.232 . S
C49 O50 1.218 . S
O50 C49 1.218 . S
C51 O44 1.275 . S
C51 O46 1.255 . S
C52 O53 1.258 . S
C52 O54 1.256 . S
O53 Cd45 2.381 . S
O53 C52 1.258 . S
O54 Cd45 2.378 . S
O54 C52 1.256 . S
O55 Cd56 2.300 . S
O55 C62 1.275 . S
Cd56 O55 2.300 . S
Cd56 O64 2.381 . S
Cd56 O65 2.378 . S
O57 Cd58 2.385 . S
O57 C62 1.255 . S
Cd58 O57 2.385 . S
Cd58 O59 2.317 . S
O59 Cd58 2.317 . S
O59 C60 1.232 . S
C60 O59 1.232 . S
C60 O61 1.218 . S
O61 C60 1.218 . S
C62 O55 1.275 . S
C62 O57 1.255 . S
C63 O64 1.258 . S
C63 O65 1.256 . S
O64 Cd56 2.381 . S
O64 C63 1.258 . S
O65 Cd56 2.378 . S
O65 C63 1.256 . S
O66 Cd67 2.300 1_565 S
O66 C73 1.275 1_565 S
Cd67 O66 2.300 1_545 S
Cd67 O75 2.381 1_545 S
Cd67 O76 2.378 . S
O68 Cd69 2.385 . S
O68 C73 1.255 . S
Cd69 O68 2.385 . S
Cd69 O70 2.317 . S
O70 Cd69 2.317 . S
O70 C71 1.232 . S
C71 O70 1.232 . S
C71 O72 1.218 . S
O72 C71 1.218 . S
C73 O66 1.275 1_545 S
C73 O68 1.255 . S
C74 O75 1.258 1_545 S
C74 O76 1.256 . S
O75 Cd67 2.381 1_565 S
O75 C74 1.258 1_565 S
O76 Cd67 2.378 . S
O76 C74 1.256 . S
O77 Cd78 2.300 . S
O77 C84 1.275 . S
Cd78 O77 2.300 . S
Cd78 O86 2.381 . S
Cd78 O87 2.378 . S
O79 Cd80 2.385 . S
O79 C84 1.255 . S
Cd80 O79 2.385 . S
Cd80 O81 2.317 . S
O81 Cd80 2.317 . S
O81 C82 1.232 . S
C82 O81 1.232 . S
C82 O83 1.218 . S
O83 C82 1.218 . S
C84 O77 1.275 . S
C84 O79 1.255 . S
C85 O86 1.258 . S
C85 O87 1.256 . S
O86 Cd78 2.381 . S
O86 C85 1.258 . S
O87 Cd78 2.378 . S
O87 C85 1.256 . S
Co88 N93 2.057 1_556 S
Co88 O105 2.021 . S
Co88 O108 2.062 . S
Co88 O112 2.117 1_455 S
Co88 O113 2.020 1_545 S
C89 O109 1.259 1_545 S
C89 O112 1.258 . S
Co90 N99 2.057 . S
Co90 O106 2.117 . S
Co90 O107 2.020 1_565 S
Co90 O109 2.021 1_455 S
Co90 O114 2.062 . S
C91 N93 1.316 . S
C91 N94 1.347 . S
C91 H96 0.931 . S
C92 N93 1.375 . S
C92 C95 1.350 . S
C92 H97 0.930 1_455 S
N93 Co88 2.057 1_554 S
N93 C91 1.316 . S
N93 C92 1.375 . S
N94 C91 1.347 . S
N94 C95 1.373 . S
C95 C92 1.350 . S
C95 N94 1.373 . S
C95 H116 0.931 . S
H96 C91 0.931 . S
H97 C92 0.930 1_655 S
C98 O105 1.259 1_565 S
C98 O106 1.258 . S
N99 Co90 2.057 . S
N99 C100 1.316 1_455 S
N99 C101 1.375 . S
C100 N99 1.316 1_655 S
C100 N102 1.347 . S
C100 H111 0.931 . S
C101 N99 1.375 . S
C101 C103 1.350 . S
C101 H110 0.930 . S
N102 C100 1.347 . S
N102 C103 1.373 1_655 S
C103 C101 1.350 . S
C103 N102 1.373 1_455 S
C103 H117 0.931 . S
C104 O107 1.256 . S
C104 O108 1.255 . S
O105 Co88 2.021 . S
O105 C98 1.259 1_545 S
O106 Co90 2.117 . S
O106 C98 1.258 . S
O107 Co90 2.020 1_545 S
O107 C104 1.256 . S
O108 Co88 2.062 . S
O108 C104 1.255 . S
O109 C89 1.259 1_565 S
O109 Co90 2.021 1_655 S
H110 C101 0.930 . S
H111 C100 0.931 . S
O112 Co88 2.117 1_655 S
O112 C89 1.258 . S
O113 Co88 2.020 1_565 S
O113 C115 1.256 . S
O114 Co90 2.062 . S
O114 C115 1.255 . S
C115 O113 1.256 . S
C115 O114 1.255 . S
H116 C95 0.931 . S
H117 C103 0.931 . S
Co118 N123 2.057 1_546 S
Co118 O135 2.021 . S
Co118 O138 2.067 . S
Co118 O142 2.117 1_545 S
Co118 O143 2.020 . S
C119 O139 1.259 . S
C119 O142 1.258 . S
Co120 N129 2.057 1_565 S
Co120 O136 2.117 1_565 S
Co120 O137 2.020 . S
Co120 O139 2.021 . S
Co120 O144 2.066 . S
C121 N123 1.316 1_545 S
C121 N124 1.347 . S
C121 H126 0.931 . S
C122 N123 1.375 . S
C122 C125 1.350 . S
C122 H127 0.930 . S
N123 Co118 2.057 1_564 S
N123 C121 1.316 1_565 S
N123 C122 1.375 . S
N124 C121 1.347 . S
N124 C125 1.373 1_545 S
C125 C122 1.350 . S
C125 N124 1.373 1_565 S
C125 H146 0.931 . S
H126 C121 0.931 . S
H127 C122 0.930 . S
C128 O135 1.259 . S
C128 O136 1.258 . S
N129 Co120 2.057 1_545 S
N129 C130 1.316 1_545 S
N129 C131 1.375 . S
C130 N129 1.316 1_565 S
C130 N132 1.347 . S
C130 H141 0.931 . S
C131 N129 1.375 . S
C131 C133 1.350 . S
C131 H140 0.930 . S
N132 C130 1.347 . S
N132 C133 1.373 1_565 S
C133 C131 1.350 . S
C133 N132 1.373 1_545 S
C133 H147 0.931 . S
C134 O137 1.256 . S
C134 O138 1.244 1_565 S
O135 Co118 2.021 . S
O135 C128 1.259 . S
O136 Co120 2.117 1_545 S
O136 C128 1.258 . S
O137 Co120 2.020 . S
O137 C134 1.256 . S
O138 Co118 2.067 . S
O138 C134 1.244 1_545 S
O139 C119 1.259 . S
O139 Co120 2.021 . S
H140 C131 0.930 . S
H141 C130 0.931 . S
O142 Co118 2.117 1_565 S
O142 C119 1.258 . S
O143 Co118 2.020 . S
O143 C145 1.256 . S
O144 Co120 2.066 . S
O144 C145 1.247 1_565 S
C145 O143 1.256 . S
C145 O144 1.247 1_545 S
H146 C125 0.931 . S
H147 C133 0.931 . S
Co148 N153 2.057 . S
Co148 O165 2.021 . S
Co148 O168 2.062 . S
Co148 O172 2.117 . S
Co148 O173 2.020 . S
C149 O169 1.259 . S
C149 O172 1.258 . S
Co150 N159 2.057 . S
Co150 O166 2.117 . S
Co150 O167 2.020 . S
Co150 O169 2.021 . S
Co150 O174 2.062 . S
C151 N153 1.316 . S
C151 N154 1.347 . S
C151 H156 0.931 . S
C152 N153 1.375 . S
C152 C155 1.350 1_556 S
C152 H157 0.930 1_556 S
N153 Co148 2.057 . S
N153 C151 1.316 . S
N153 C152 1.375 . S
N154 C151 1.347 . S
N154 C155 1.373 1_556 S
C155 C152 1.350 1_554 S
C155 N154 1.373 1_554 S
C155 H176 0.931 . S
H156 C151 0.931 . S
H157 C152 0.930 1_554 S
C158 O165 1.259 . S
C158 O166 1.258 . S
N159 Co150 2.057 . S
N159 C160 1.316 . S
N159 C161 1.375 . S
C160 N159 1.316 . S
C160 N162 1.347 . S
C160 H171 0.931 . S
C161 N159 1.375 . S
C161 C163 1.350 . S
C161 H170 0.930 . S
N162 C160 1.347 . S
N162 C163 1.373 . S
C163 C161 1.350 . S
C163 N162 1.373 . S
C163 H177 0.931 . S
C164 O167 1.256 . S
C164 O168 1.255 . S
O165 Co148 2.021 . S
O165 C158 1.259 . S
O166 Co150 2.117 . S
O166 C158 1.258 . S
O167 Co150 2.020 . S
O167 C164 1.256 . S
O168 Co148 2.062 . S
O168 C164 1.255 . S
O169 C149 1.259 . S
O169 Co150 2.021 . S
H170 C161 0.930 . S
H171 C160 0.931 . S
O172 Co148 2.117 . S
O172 C149 1.258 . S
O173 Co148 2.020 . S
O173 C175 1.256 . S
O174 Co150 2.062 . S
O174 C175 1.255 . S
C175 O173 1.256 . S
C175 O174 1.255 . S
H176 C155 0.931 . S
H177 C163 0.931 . S
Co178 N183 2.057 . S
Co178 O195 2.021 1_455 S
Co178 O198 2.062 1_455 S
Co178 O202 2.117 . S
Co178 O203 2.020 . S
C179 O199 1.259 . S
C179 O202 1.258 . S
Co180 N189 2.057 . S
Co180 O196 2.117 1_455 S
Co180 O197 2.020 1_455 S
Co180 O199 2.021 . S
Co180 O204 2.062 . S
C181 N183 1.316 . S
C181 N184 1.347 . S
C181 H186 0.931 1_455 S
C182 N183 1.375 . S
C182 C185 1.350 . S
C182 H187 0.930 . S
N183 Co178 2.057 . S
N183 C181 1.316 . S
N183 C182 1.375 . S
N184 C181 1.347 . S
N184 C185 1.373 . S
C185 C182 1.350 . S
C185 N184 1.373 . S
C185 H206 0.931 . S
H186 C181 0.931 1_655 S
H187 C182 0.930 . S
C188 O195 1.259 . S
C188 O196 1.258 . S
N189 Co180 2.057 . S
N189 C190 1.316 . S
N189 C191 1.375 1_455 S
C190 N189 1.316 . S
C190 N192 1.347 . S
C190 H201 0.931 . S
C191 N189 1.375 1_655 S
C191 C193 1.350 1_655 S
C191 H200 0.930 . S
N192 C190 1.347 . S
N192 C193 1.373 . S
C193 C191 1.350 1_455 S
C193 N192 1.373 . S
C193 H207 0.931 1_455 S
C194 O197 1.256 . S
C194 O198 1.255 . S
O195 Co178 2.021 1_655 S
O195 C188 1.259 . S
O196 Co180 2.117 1_655 S
O196 C188 1.258 . S
O197 Co180 2.020 1_655 S
O197 C194 1.256 . S
O198 Co178 2.062 1_655 S
O198 C194 1.255 . S
O199 C179 1.259 . S
O199 Co180 2.021 . S
H200 C191 0.930 . S
H201 C190 0.931 . S
O202 Co178 2.117 . S
O202 C179 1.258 . S
O203 Co178 2.020 . S
O203 C205 1.256 . S
O204 Co180 2.062 . S
O204 C205 1.255 . S
C205 O203 1.256 . S
C205 O204 1.255 . S
H206 C185 0.931 . S
H207 C193 0.931 1_655 S
C208 C209 1.369 . S
C208 C210 1.419 . S
C208 H212 0.930 1_565 S
C209 C208 1.369 . S
C209 C218 1.429 . S
C210 C208 1.419 . S
C210 C211 1.363 . S
C210 H213 0.929 . S
C211 C210 1.363 . S
C211 C217 1.428 . S
H212 C208 0.930 1_545 S
H213 C210 0.929 . S
S214 N215 1.613 . S
S214 N216 1.610 . S
N215 S214 1.613 . S
N215 C218 1.350 . S
N216 S214 1.610 . S
N216 C217 1.351 . S
C217 C211 1.428 . S
C217 N216 1.351 . S
C217 C218 1.434 . S
C218 C209 1.429 . S
C218 N215 1.350 . S
C218 C217 1.434 . S
C219 C220 1.369 . S
C219 C221 1.419 . S
C219 H223 0.930 . S
C220 C219 1.369 . S
C220 C229 1.429 . S
C221 C219 1.419 . S
C221 C222 1.363 . S
C221 H224 0.929 . S
C222 C221 1.363 . S
C222 C228 1.428 . S
H223 C219 0.930 . S
H224 C221 0.929 . S
S225 N226 1.613 . S
S225 N227 1.610 . S
N226 S225 1.613 . S
N226 C229 1.350 . S
N227 S225 1.610 . S
N227 C228 1.351 . S
C228 C222 1.428 . S
C228 N227 1.351 . S
C228 C229 1.434 . S
C229 C220 1.429 . S
C229 N226 1.350 . S
C229 C228 1.434 . S
C230 C231 1.369 . S
C230 C232 1.419 . S
C230 H234 0.930 . S
C231 C230 1.369 . S
C231 C240 1.429 . S
C232 C230 1.419 . S
C232 C233 1.363 . S
C232 H235 0.929 . S
C233 C232 1.363 . S
C233 C239 1.428 . S
H234 C230 0.930 . S
H235 C232 0.929 . S
S236 N237 1.613 . S
S236 N238 1.610 . S
N237 S236 1.613 . S
N237 C240 1.350 . S
N238 S236 1.610 . S
N238 C239 1.351 . S
C239 C233 1.428 . S
C239 N238 1.351 . S
C239 C240 1.434 . S
C240 C231 1.429 . S
C240 N237 1.350 . S
C240 C239 1.434 . S
C241 C242 1.369 . S
C241 C243 1.419 . S
C241 H245 0.930 . S
C242 C241 1.369 . S
C242 C251 1.429 . S
C243 C241 1.419 . S
C243 C244 1.363 . S
C243 H246 0.929 . S
C244 C243 1.363 . S
C244 C250 1.428 . S
H245 C241 0.930 . S
H246 C243 0.929 . S
S247 N248 1.613 . S
S247 N249 1.610 . S
N248 S247 1.613 . S
N248 C251 1.350 . S
N249 S247 1.610 . S
N249 C250 1.351 . S
C250 C244 1.428 . S
C250 N249 1.351 . S
C250 C251 1.434 . S
C251 C242 1.429 . S
C251 N248 1.350 . S
C251 C250 1.434 . S
C252 C253 1.369 1_554 S
C252 C254 1.419 1_554 S
C252 H256 0.930 . S
C253 C252 1.369 1_556 S
C253 C262 1.429 1_545 S
C254 C252 1.419 1_556 S
C254 C255 1.363 . S
C254 H257 0.929 1_556 S
C255 C254 1.363 . S
C255 C261 1.428 1_545 S
H256 C252 0.930 . S
H257 C254 0.929 1_554 S
S258 N259 1.613 . S
S258 N260 1.610 . S
N259 S258 1.613 . S
N259 C262 1.350 . S
N260 S258 1.610 . S
N260 C261 1.351 . S
C261 C255 1.428 1_565 S
C261 N260 1.351 . S
C261 C262 1.434 . S
C262 C253 1.429 1_565 S
C262 N259 1.350 . S
C262 C261 1.434 . S
C263 C264 1.369 . S
C263 C265 1.419 . S
C263 H267 0.930 . S
C264 C263 1.369 . S
C264 C273 1.429 1_554 S
C265 C263 1.419 . S
C265 C266 1.363 1_554 S
C265 H268 0.929 . S
C266 C265 1.363 1_556 S
C266 C272 1.428 . S
H267 C263 0.930 . S
H268 C265 0.929 . S
S269 N270 1.613 . S
S269 N271 1.610 . S
N270 S269 1.613 . S
N270 C273 1.350 . S
N271 S269 1.610 . S
N271 C272 1.351 . S
C272 C266 1.428 . S
C272 N271 1.351 . S
C272 C273 1.434 . S
C273 C264 1.429 1_556 S
C273 N270 1.350 . S
C273 C272 1.434 . S
C274 C275 1.369 1_556 S
C274 C276 1.419 . S
C274 H278 0.930 . S
C275 C274 1.369 1_554 S
C275 C284 1.429 . S
C276 C274 1.419 . S
C276 C277 1.363 . S
C276 H279 0.929 . S
C277 C276 1.363 . S
C277 C283 1.428 1_556 S
H278 C274 0.930 . S
H279 C276 0.929 . S
S280 N281 1.613 . S
S280 N282 1.610 . S
N281 S280 1.613 . S
N281 C284 1.350 . S
N282 S280 1.610 . S
N282 C283 1.351 . S
C283 C277 1.428 1_554 S
C283 N282 1.351 . S
C283 C284 1.434 . S
C284 C275 1.429 . S
C284 N281 1.350 . S
C284 C283 1.434 . S
C285 C286 1.369 1_556 S
C285 C287 1.419 . S
C285 H289 0.930 . S
C286 C285 1.369 1_554 S
C286 C295 1.429 1_655 S
C287 C285 1.419 . S
C287 C288 1.363 . S
C287 H290 0.929 . S
C288 C287 1.363 . S
C288 C294 1.428 1_655 S
H289 C285 0.930 . S
H290 C287 0.929 . S
S291 N292 1.613 . S
S291 N293 1.610 1_554 S
N292 S291 1.613 . S
N292 C295 1.350 . S
N293 S291 1.610 1_556 S
N293 C294 1.351 . S
C294 C288 1.428 1_455 S
C294 N293 1.351 . S
C294 C295 1.434 1_556 S
C295 C286 1.429 1_455 S
C295 N292 1.350 . S
C295 C294 1.434 1_554 S
C296 C297 1.369 . S
C296 C298 1.419 . S
C296 H300 0.930 . S
C297 C296 1.369 . S
C297 C306 1.429 . S
C298 C296 1.419 . S
C298 C299 1.363 . S
C298 H301 0.929 . S
C299 C298 1.363 . S
C299 C305 1.428 . S
H300 C296 0.930 . S
H301 C298 0.929 . S
S302 N303 1.613 . S
S302 N304 1.610 . S
N303 S302 1.613 . S
N303 C306 1.350 . S
N304 S302 1.610 . S
N304 C305 1.351 . S
C305 C299 1.428 . S
C305 N304 1.351 . S
C305 C306 1.434 . S
C306 C297 1.429 . S
C306 N303 1.350 . S
C306 C305 1.434 . S
C307 C308 1.353 1_545 S
C307 C309 1.419 . S
C307 H311 0.930 . S
C308 C307 1.353 1_565 S
C308 C317 1.449 . S
C309 C307 1.419 . S
C309 C310 1.363 1_545 S
C309 H312 0.929 . S
C310 C309 1.363 1_565 S
C310 C316 1.428 . S
H311 C307 0.930 . S
H312 C309 0.929 . S
S313 N314 1.613 . S
S313 N315 1.610 . S
N314 S313 1.613 . S
N314 C317 1.350 . S
N315 S313 1.610 . S
N315 C316 1.351 . S
C316 C310 1.428 . S
C316 N315 1.351 . S
C316 C317 1.434 . S
C317 C308 1.449 . S
C317 N314 1.350 . S
C317 C316 1.434 . S
C318 C319 1.369 . S
C318 C320 1.419 . S
C318 H322 0.930 . S
C319 C318 1.369 . S
C319 C328 1.429 . S
C320 C318 1.419 . S
C320 C321 1.363 . S
C320 H323 0.929 . S
C321 C320 1.363 . S
C321 C327 1.428 . S
H322 C318 0.930 . S
H323 C320 0.929 . S
S324 N325 1.613 . S
S324 N326 1.610 . S
N325 S324 1.613 . S
N325 C328 1.350 . S
N326 S324 1.610 . S
N326 C327 1.351 . S
C327 C321 1.428 . S
C327 N326 1.351 . S
C327 C328 1.434 . S
C328 C319 1.429 . S
C328 N325 1.350 . S
C328 C327 1.434 . S
C329 C330 1.369 . S
C329 C331 1.419 . S
C329 H333 0.930 . S
C330 C329 1.369 . S
C330 C339 1.429 . S
C331 C329 1.419 . S
C331 C332 1.363 . S
C331 H334 0.929 . S
C332 C331 1.363 . S
C332 C338 1.428 . S
H333 C329 0.930 . S
H334 C331 0.929 . S
S335 N336 1.613 . S
S335 N337 1.610 . S
N336 S335 1.613 . S
N336 C339 1.350 . S
N337 S335 1.610 . S
N337 C338 1.351 . S
C338 C332 1.428 . S
C338 N337 1.351 . S
C338 C339 1.434 . S
C339 C330 1.429 . S
C339 N336 1.350 . S
C339 C338 1.434 . S
C340 C341 1.369 1_554 S
C340 C342 1.419 . S
C340 H344 0.930 . S
C341 C340 1.369 1_556 S
C341 C350 1.429 . S
C342 C340 1.419 . S
C342 C343 1.363 1_654 S
C342 H345 0.929 . S
C343 C342 1.363 1_456 S
C343 C349 1.428 . S
H344 C340 0.930 . S
H345 C342 0.929 . S
S346 N347 1.613 1_455 S
S346 N348 1.610 . S
N347 S346 1.613 1_655 S
N347 C350 1.350 . S
N348 S346 1.610 . S
N348 C349 1.351 . S
C349 C343 1.428 . S
C349 N348 1.351 . S
C349 C350 1.434 1_455 S
C350 C341 1.429 . S
C350 N347 1.350 . S
C350 C349 1.434 1_655 S
C351 C352 1.369 1_565 S
C351 C353 1.419 . S
C351 H355 0.930 1_556 S
C352 C351 1.369 1_545 S
C352 C361 1.429 . S
C353 C351 1.419 . S
C353 C354 1.363 1_565 S
C353 H356 0.929 . S
C354 C353 1.363 1_545 S
C354 C360 1.428 . S
H355 C351 0.930 1_554 S
H356 C353 0.929 . S
S357 N358 1.613 . S
S357 N359 1.610 . S
N358 S357 1.613 . S
N358 C361 1.350 . S
N359 S357 1.610 . S
N359 C360 1.351 . S
C360 C354 1.428 . S
C360 N359 1.351 . S
C360 C361 1.434 . S
C361 C352 1.429 . S
C361 N358 1.350 . S
C361 C360 1.434 . S
C362 C363 1.369 . S
C362 C364 1.419 . S
C362 H366 0.930 . S
C363 C362 1.369 . S
C363 C372 1.429 1_554 S
C364 C362 1.419 . S
C364 C365 1.363 1_554 S
C364 H367 0.929 . S
C365 C364 1.363 1_556 S
C365 C371 1.428 . S
H366 C362 0.930 . S
H367 C364 0.929 . S
S368 N369 1.613 . S
S368 N370 1.610 . S
N369 S368 1.613 . S
N369 C372 1.350 . S
N370 S368 1.610 . S
N370 C371 1.351 . S
C371 C365 1.428 . S
C371 N370 1.351 . S
C371 C372 1.434 . S
C372 C363 1.429 1_556 S
C372 N369 1.350 . S
C372 C371 1.434 . S
C373 C374 1.369 . S
C373 C375 1.419 . S
C373 H377 0.930 . S
C374 C373 1.369 . S
C374 C383 1.429 1_554 S
C375 C373 1.419 . S
C375 C376 1.363 1_554 S
C375 H378 0.929 . S
C376 C375 1.363 1_556 S
C376 C382 1.428 . S
H377 C373 0.930 . S
H378 C375 0.929 . S
S379 N380 1.613 . S
S379 N381 1.610 . S
N380 S379 1.613 . S
N380 C383 1.350 . S
N381 S379 1.610 . S
N381 C382 1.351 . S
C382 C376 1.428 . S
C382 N381 1.351 . S
C382 C383 1.434 . S
C383 C374 1.429 1_556 S
C383 N380 1.350 . S
C383 C382 1.434 . S
C384 C385 1.369 . S
C384 C386 1.419 . S
C384 H388 0.930 . S
C385 C384 1.369 . S
C385 C394 1.429 . S
C386 C384 1.419 . S
C386 C387 1.363 . S
C386 H389 0.929 . S
C387 C386 1.363 . S
C387 C393 1.428 . S
H388 C384 0.930 . S
H389 C386 0.929 . S
S390 N391 1.613 . S
S390 N392 1.610 . S
N391 S390 1.613 . S
N391 C394 1.350 . S
N392 S390 1.610 . S
N392 C393 1.351 . S
C393 C387 1.428 . S
C393 N392 1.351 . S
C393 C394 1.434 . S
C394 C385 1.429 . S
C394 N391 1.350 . S
C394 C393 1.434 . S
C395 C396 1.369 1_565 S
C395 C397 1.419 . S
C395 H399 0.930 . S
C396 C395 1.369 1_545 S
C396 C405 1.429 . S
C397 C395 1.419 . S
C397 C398 1.363 1_565 S
C397 H400 0.929 . S
C398 C397 1.363 1_545 S
C398 C404 1.428 . S
H399 C395 0.930 . S
H400 C397 0.929 . S
S401 N402 1.613 . S
S401 N403 1.610 . S
N402 S401 1.613 . S
N402 C405 1.350 . S
N403 S401 1.610 . S
N403 C404 1.351 . S
C404 C398 1.428 . S
C404 N403 1.351 . S
C404 C405 1.434 . S
C405 C396 1.429 . S
C405 N402 1.350 . S
C405 C404 1.434 . S
C406 C407 1.369 . S
C406 C408 1.419 . S
C406 H410 0.930 . S
C407 C406 1.369 . S
C407 C416 1.429 . S
C408 C406 1.419 . S
C408 C409 1.363 . S
C408 H411 0.929 . S
C409 C408 1.363 . S
C409 C415 1.428 . S
H410 C406 0.930 . S
H411 C408 0.929 . S
S412 N413 1.613 . S
S412 N414 1.610 . S
N413 S412 1.613 . S
N413 C416 1.350 . S
N414 S412 1.610 . S
N414 C415 1.351 . S
C415 C409 1.428 . S
C415 N414 1.351 . S
C415 C416 1.434 . S
C416 C407 1.429 . S
C416 N413 1.350 . S
C416 C415 1.434 . S
C417 C418 1.369 . S
C417 C419 1.419 . S
C417 H421 0.930 . S
C418 C417 1.369 . S
C418 C427 1.429 . S
C419 C417 1.419 . S
C419 C420 1.363 . S
C419 H422 0.926 1_554 S
C420 C419 1.363 . S
C420 C426 1.428 . S
H421 C417 0.930 . S
H422 C419 0.926 1_556 S
S423 N424 1.613 . S
S423 N425 1.610 . S
N424 S423 1.613 . S
N424 C427 1.350 . S
N425 S423 1.610 . S
N425 C426 1.351 . S
C426 C420 1.428 . S
C426 N425 1.351 . S
C426 C427 1.434 . S
C427 C418 1.429 . S
C427 N424 1.350 . S
C427 C426 1.434 . S
C428 C429 1.369 . S
C428 C430 1.419 . S
C428 H432 0.930 . S
C429 C428 1.369 . S
C429 C438 1.429 . S
C430 C428 1.419 . S
C430 C431 1.363 . S
C430 H433 0.929 . S
C431 C430 1.363 . S
C431 C437 1.413 1_655 S
H432 C428 0.930 . S
H433 C430 0.929 . S
S434 N435 1.613 . S
S434 N436 1.610 . S
N435 S434 1.613 . S
N435 C438 1.350 1_455 S
N436 S434 1.610 . S
N436 C437 1.373 . S
C437 C431 1.413 1_455 S
C437 N436 1.373 . S
C437 C438 1.429 1_455 S
C438 C429 1.429 . S
C438 N435 1.350 1_655 S
C438 C437 1.429 1_655 S
C439 C440 1.369 1_545 S
C439 C441 1.419 . S
C439 H443 0.930 . S
C440 C439 1.369 1_565 S
C440 C449 1.429 . S
C441 C439 1.419 . S
C441 C442 1.363 1_545 S
C441 H444 0.929 . S
C442 C441 1.363 1_565 S
C442 C448 1.428 . S
H443 C439 0.930 . S
H444 C441 0.929 . S
S445 N446 1.613 . S
S445 N447 1.610 . S
N446 S445 1.613 . S
N446 C449 1.350 . S
N447 S445 1.610 . S
N447 C448 1.351 . S
C448 C442 1.428 . S
C448 N447 1.351 . S
C448 C449 1.434 . S
C449 C440 1.429 . S
C449 N446 1.350 . S
C449 C448 1.434 . S
C450 C451 1.369 . S
C450 C452 1.419 . S
C450 H454 0.930 . S
C451 C450 1.369 . S
C451 C460 1.429 . S
C452 C450 1.419 . S
C452 C453 1.363 . S
C452 H455 0.929 . S
C453 C452 1.363 . S
C453 C459 1.428 . S
H454 C450 0.930 . S
H455 C452 0.929 . S
S456 N457 1.613 . S
S456 N458 1.610 . S
N457 S456 1.613 . S
N457 C460 1.350 . S
N458 S456 1.610 . S
N458 C459 1.351 . S
C459 C453 1.428 . S
C459 N458 1.351 . S
C459 C460 1.434 . S
C460 C451 1.429 . S
C460 N457 1.350 . S
C460 C459 1.434 . S
C461 C462 1.369 . S
C461 C463 1.419 . S
C461 H465 0.930 . S
C462 C461 1.369 . S
C462 C471 1.429 . S
C463 C461 1.419 . S
C463 C464 1.363 . S
C463 H466 0.929 . S
C464 C463 1.363 . S
C464 C470 1.428 . S
H465 C461 0.930 . S
H466 C463 0.929 . S
S467 N468 1.613 . S
S467 N469 1.610 . S
N468 S467 1.613 . S
N468 C471 1.350 . S
N469 S467 1.610 . S
N469 C470 1.351 . S
C470 C464 1.428 . S
C470 N469 1.351 . S
C470 C471 1.434 . S
C471 C462 1.429 . S
C471 N468 1.350 . S
C471 C470 1.434 . S
C209 C74 1.694 1_565 S
C211 C98 1.689 . S
C222 C128 1.783 . S
C220 C85 1.786 . S
C233 N162 1.354 . S
C231 C52 1.403 . S
C244 N192 1.511 . S
C242 C63 1.545 . S
C255 C89 1.688 . S
C253 C30 1.679 . S
C264 C41 1.746 . S
C266 C119 1.788 . S
C275 C8 1.380 . S
C277 N154 1.354 . S
C286 C19 1.457 . S
C288 N184 1.511 1_655 S
C299 C104 0.782 . S
C297 C62 0.803 . S
C310 C134 1.127 . S
C308 C73 1.130 1_565 S
C321 C175 1.390 . S
C319 C84 1.412 . S
C330 C51 0.853 . S
C332 C205 0.852 . S
C341 C18 0.763 1_556 S
C343 C115 0.797 . S
C354 C145 1.131 . S
C352 C29 1.113 . S
C365 C164 1.391 . S
C363 C40 1.336 . S
C374 C7 0.824 . S
C376 C194 0.848 . S
C385 C60 1.346 . S
C387 N94 1.490 . S
C396 C71 1.167 . S
C398 N124 1.420 . S
C409 C149 1.659 1_554 S
C407 C82 1.456 . S
C420 C179 1.584 1_554 S
C418 C49 1.351 . S
C429 C16 1.161 . S
C431 N102 1.493 . S
C442 N132 1.419 . S
C440 C27 1.245 1_565 S
C453 C158 1.659 . S
C451 C38 1.358 . S
C462 C5 1.335 . S
C464 C188 1.583 . S
