# Generated by pormake.
# Topology zzz, (3,6)-cn, num edge types: 1
# Building blocks:
#     Node 0, Type 0, BuildingBlock: WUSLED_clean_sbu_0, # of connection points: 3
#     Node 1, Type 0, BuildingBlock: WUSLED_clean_sbu_0, # of connection points: 3
#     Node 2, Type 0, BuildingBlock: WUSLED_clean_sbu_0, # of connection points: 3
#     Node 3, Type 0, BuildingBlock: WUSLED_clean_sbu_0, # of connection points: 3
#     Node 4, Type 0, BuildingBlock: WUSLED_clean_sbu_0, # of connection points: 3
#     Node 5, Type 0, BuildingBlock: WUSLED_clean_sbu_0, # of connection points: 3
#     Node 6, Type 0, BuildingBlock: WUSLED_clean_sbu_0, # of connection points: 3
#     Node 7, Type 0, BuildingBlock: WUSLED_clean_sbu_0, # of connection points: 3
#     Node 8, Type 1, BuildingBlock: CUKXOW_clean_sbu_0, # of connection points: 6
#     Node 9, Type 1, BuildingBlock: CUKXOW_clean_sbu_0, # of connection points: 6
#     Node 10, Type 1, BuildingBlock: CUKXOW_clean_sbu_0, # of connection points: 6
#     Node 11, Type 1, BuildingBlock: CUKXOW_clean_sbu_0, # of connection points: 6
#     Edge 12, Type (0, 1), BuildingBlock: EZIPEK_clean_linker_0, # of connection points: 2
#     Edge 13, Type (0, 1), BuildingBlock: EZIPEK_clean_linker_0, # of connection points: 2
#     Edge 14, Type (0, 1), BuildingBlock: EZIPEK_clean_linker_0, # of connection points: 2
#     Edge 15, Type (0, 1), BuildingBlock: EZIPEK_clean_linker_0, # of connection points: 2
#     Edge 16, Type (0, 1), BuildingBlock: EZIPEK_clean_linker_0, # of connection points: 2
#     Edge 17, Type (0, 1), BuildingBlock: EZIPEK_clean_linker_0, # of connection points: 2
#     Edge 18, Type (0, 1), BuildingBlock: EZIPEK_clean_linker_0, # of connection points: 2
#     Edge 19, Type (0, 1), BuildingBlock: EZIPEK_clean_linker_0, # of connection points: 2
#     Edge 20, Type (0, 1), BuildingBlock: EZIPEK_clean_linker_0, # of connection points: 2
#     Edge 21, Type (0, 1), BuildingBlock: EZIPEK_clean_linker_0, # of connection points: 2
#     Edge 22, Type (0, 1), BuildingBlock: EZIPEK_clean_linker_0, # of connection points: 2
#     Edge 23, Type (0, 1), BuildingBlock: EZIPEK_clean_linker_0, # of connection points: 2
#     Edge 24, Type (0, 1), BuildingBlock: EZIPEK_clean_linker_0, # of connection points: 2
#     Edge 25, Type (0, 1), BuildingBlock: EZIPEK_clean_linker_0, # of connection points: 2
#     Edge 26, Type (0, 1), BuildingBlock: EZIPEK_clean_linker_0, # of connection points: 2
#     Edge 27, Type (0, 1), BuildingBlock: EZIPEK_clean_linker_0, # of connection points: 2
#     Edge 28, Type (0, 1), BuildingBlock: EZIPEK_clean_linker_0, # of connection points: 2
#     Edge 29, Type (0, 1), BuildingBlock: EZIPEK_clean_linker_0, # of connection points: 2
#     Edge 30, Type (0, 1), BuildingBlock: EZIPEK_clean_linker_0, # of connection points: 2
#     Edge 31, Type (0, 1), BuildingBlock: EZIPEK_clean_linker_0, # of connection points: 2
#     Edge 32, Type (0, 1), BuildingBlock: EZIPEK_clean_linker_0, # of connection points: 2
#     Edge 33, Type (0, 1), BuildingBlock: EZIPEK_clean_linker_0, # of connection points: 2
#     Edge 34, Type (0, 1), BuildingBlock: EZIPEK_clean_linker_0, # of connection points: 2
#     Edge 35, Type (0, 1), BuildingBlock: EZIPEK_clean_linker_0, # of connection points: 2
# Relax obj value: 0.199
# Max RMSD: 0.221
# Mean RMSD: 0.180
data_MOF--net-zzz--node1-WUSLED_clean_sbu_0--node2-CUKXOW_clean_sbu_0--edge1-EZIPEK_clean_linker_0
_symmetry_space_group_name_H-M    P1
_symmetry_Int_Tables_number       1
_symmetry_cell_setting            triclinic
loop_
_symmetry_equiv_pos_as_xyz
'x, y, z'
_cell_length_a     50.114717
_cell_length_b     49.608571
_cell_length_c     17.574368
_cell_angle_alpha  93.013115
_cell_angle_beta   87.723802
_cell_angle_gamma 95.732912
loop_
_atom_site_label
_atom_site_type_symbol
_atom_site_fract_x
_atom_site_fract_y
_atom_site_fract_z
_atom_type_partial_charge
C0 C 0.80455 0.48415 0.28565 0.0
C1 C 0.82254 0.46405 0.27832 0.0
C2 C 0.84993 0.48791 0.37693 0.0
C3 C 0.84512 0.46596 0.32373 0.0
C4 C 0.83235 0.50823 0.3828 0.0
C5 C 0.80987 0.50633 0.33767 0.0
U6 U 0.75576 0.47427 0.11427 0.0
O7 O 0.71476 0.45339 0.11474 0.0
O8 O 0.72106 0.4976 0.1079 0.0
C9 C 0.70377 0.4759 0.1052 0.0
C10 C 0.77878 0.48156 0.24658 0.0
C11 C 0.68439 0.47502 0.04435 0.0
C12 C 0.63837 0.47665 0.00827 0.0
C13 C 0.65698 0.47437 0.0641 0.0
C14 C 0.67431 0.47939 0.9116 0.0
C15 C 0.64696 0.47963 0.93198 0.0
C16 C 0.69297 0.4771 0.9676 0.0
C17 C 0.81284 0.46627 0.96314 0.0
C18 C 0.84685 0.46924 0.86074 0.0
C19 C 0.85969 0.46463 0.99074 0.0
C20 C 0.83277 0.464 0.01563 0.0
C21 C 0.86688 0.46761 0.9133 0.0
C22 C 0.81997 0.46849 0.88557 0.0
C23 C 0.78467 0.46747 0.98796 0.0
O24 O 0.77436 0.50159 0.20421 0.0
O25 O 0.76972 0.45753 0.21761 0.0
O26 O 0.7784 0.49129 0.01524 0.0
O27 O 0.77372 0.44724 0.02771 0.0
H28 H 0.81887 0.44667 0.23893 0.0
H29 H 0.85857 0.45013 0.31841 0.0
H30 H 0.83579 0.52532 0.42338 0.0
H31 H 0.79617 0.52192 0.34488 0.0
H32 H 0.61733 0.47688 0.02482 0.0
H33 H 0.65005 0.47292 0.12308 0.0
H34 H 0.68123 0.48178 0.85294 0.0
H35 H 0.71412 0.47776 0.9515 0.0
H36 H 0.85213 0.47194 0.80106 0.0
H37 H 0.875 0.46376 0.0321 0.0
H38 H 0.82759 0.46241 0.07579 0.0
H39 H 0.80478 0.47033 0.84444 0.0
C40 C 0.91624 0.81873 0.22769 0.0
C41 C 0.89839 0.82999 0.28095 0.0
C42 C 0.93276 0.86623 0.3141 0.0
C43 C 0.90657 0.85371 0.32383 0.0
C44 C 0.94997 0.85608 0.25702 0.0
C45 C 0.94172 0.83248 0.21378 0.0
U46 U 0.92808 0.75925 0.08667 0.0
O47 O 0.90028 0.72535 0.04262 0.0
O48 O 0.93235 0.71768 0.11782 0.0
C49 C 0.91366 0.70709 0.07178 0.0
C50 C 0.90985 0.79077 0.19724 0.0
C51 C 0.92246 0.68593 0.01789 0.0
C52 C 0.92733 0.63841 0.98747 0.0
C53 C 0.91612 0.65857 0.03319 0.0
C54 C 0.95066 0.67283 0.90933 0.0
C55 C 0.94498 0.64549 0.92612 0.0
C56 C 0.93947 0.69298 0.95509 0.0
C57 C 0.97595 0.80796 0.9708 0.0
C58 C 0.00877 0.83577 0.89615 0.0
C59 C 0.97217 0.85616 0.96417 0.0
C60 C 0.96282 0.83103 0.99245 0.0
C61 C 0.99479 0.85849 0.91447 0.0
C62 C 0.99931 0.81058 0.92406 0.0
C63 C 0.9638 0.78077 0.9886 0.0
O64 O 0.89884 0.78744 0.13024 0.0
O65 O 0.92886 0.77484 0.20525 0.0
O66 O 0.93807 0.77629 0.97562 0.0
O67 O 0.97037 0.77121 0.05294 0.0
H68 H 0.87874 0.81954 0.29273 0.0
H69 H 0.89315 0.86125 0.36801 0.0
H70 H 0.97028 0.86548 0.24914 0.0
H71 H 0.95582 0.824 0.17316 0.0
H72 H 0.92295 0.61737 1.00131 0.0
H73 H 0.90326 0.65286 0.0819 0.0
H74 H 0.96443 0.67857 0.86255 0.0
H75 H 0.9448 0.71408 0.94313 0.0
H76 H 0.02622 0.83731 0.85766 0.0
H77 H 0.9612 0.87358 0.97867 0.0
H78 H 0.94469 0.82935 0.0283 0.0
H79 H 0.00957 0.79294 0.90654 0.0
C80 C 0.69481 0.00552 0.31733 0.0
C81 C 0.67258 0.01044 0.27571 0.0
C82 C 0.64414 0.00778 0.39126 0.0
C83 C 0.64732 0.01158 0.31259 0.0
C84 C 0.66631 0.00243 0.43224 0.0
C85 C 0.69143 0.00131 0.39553 0.0
U86 U 0.74675 0.00609 0.14727 0.0
O87 O 0.78717 0.0282 0.14477 0.0
O88 O 0.78254 0.9837 0.13545 0.0
C89 C 0.79914 0.00592 0.13244 0.0
C90 C 0.72192 0.00542 0.28194 0.0
C91 C 0.82023 0.00651 0.07122 0.0
C92 C 0.86638 0.02019 0.03089 0.0
C93 C 0.84533 0.02067 0.08547 0.0
C94 C 0.83738 0.99181 0.94579 0.0
C95 C 0.86266 0.00546 0.96117 0.0
C96 C 0.81624 0.99239 1.0004 0.0
C97 C 0.69041 0.00876 0.00445 0.0
C98 C 0.65592 0.99656 0.9121 0.0
C99 C 0.64894 0.03056 0.0132 0.0
C100 C 0.67395 0.02704 0.04189 0.0
C101 C 0.64014 0.01584 0.94699 0.0
C102 C 0.68089 0.99308 0.94063 0.0
C103 C 0.71843 0.00756 0.02553 0.0
O104 O 0.727 0.98331 0.24171 0.0
O105 O 0.73177 0.02783 0.25004 0.0
O106 O 0.73012 0.02934 0.0609 0.0
O107 O 0.72422 0.98477 0.05296 0.0
H108 H 0.67484 0.01368 0.21525 0.0
H109 H 0.6304 0.01579 0.2802 0.0
H110 H 0.6642 -0.0005 0.49293 0.0
H111 H 0.70836 0.99749 0.42851 0.0
H112 H 0.88578 0.03072 0.04378 0.0
H113 H 0.84883 0.03168 0.13963 0.0
H114 H 0.83423 0.98028 0.8923 0.0
H115 H 0.79701 0.9814 0.98793 0.0
H116 H 0.64943 0.98514 0.86076 0.0
H117 H 0.63701 0.04561 0.04051 0.0
H118 H 0.68083 0.03937 0.09129 0.0
H119 H 0.69329 0.97894 0.91087 0.0
C120 C 0.592 0.70572 0.31656 0.0
C121 C 0.57697 0.68347 0.28122 0.0
C122 C 0.57775 0.65855 0.39657 0.0
C123 C 0.5699 0.65994 0.32108 0.0
C124 C 0.59363 0.68043 0.43056 0.0
C125 C 0.60069 0.70386 0.39077 0.0
U126 U 0.58777 0.75468 0.15382 0.0
O127 O 0.57604 0.79596 0.17219 0.0
O128 O 0.61594 0.78977 0.12224 0.0
C129 C 0.59794 0.80698 0.13797 0.0
C130 C 0.59639 0.73203 0.28121 0.0
C131 C 0.59335 0.82515 0.07726 0.0
C132 C 0.56495 0.83857 0.97985 0.0
C133 C 0.57092 0.81974 0.03136 0.0
C134 C 0.6048 0.86761 0.01532 0.0
C135 C 0.58155 0.86283 0.97265 0.0
C136 C 0.61058 0.84891 0.06775 0.0
C137 C 0.5586 0.69691 0.01374 0.0
C138 C 0.55748 0.66147 0.91276 0.0
C139 C 0.53441 0.6528 0.03425 0.0
C140 C 0.54285 0.67921 0.06119 0.0
C141 C 0.54162 0.64388 0.9598 0.0
C142 C 0.56585 0.68781 0.93953 0.0
C143 C 0.56719 0.72517 0.03818 0.0
O144 O 0.61436 0.73435 0.2247 0.0
O145 O 0.57444 0.74334 0.26901 0.0
O146 O 0.59312 0.73101 0.04597 0.0
O147 O 0.5525 0.73682 0.09164 0.0
H148 H 0.57 0.68467 0.22408 0.0
H149 H 0.5576 0.6432 0.29414 0.0
H150 H 0.59977 0.67969 0.48877 0.0
H151 H 0.61214 0.72094 0.41901 0.0
H152 H 0.54695 0.83463 0.94727 0.0
H153 H 0.55749 0.80138 0.03718 0.0
H154 H 0.61774 0.88632 0.01043 0.0
H155 H 0.62801 0.85335 0.10245 0.0
H156 H 0.56326 0.6548 0.85529 0.0
H157 H 0.52225 0.63933 0.07125 0.0
H158 H 0.53695 0.68581 0.11858 0.0
H159 H 0.5779 0.70119 0.90202 0.0
C160 C 0.21126 0.51833 0.13164 0.0
C161 C 0.18706 0.50418 0.15658 0.0
C162 C 0.16517 0.51712 0.04475 0.0
C163 C 0.16411 0.50356 0.11319 0.0
C164 C 0.18913 0.5318 0.02111 0.0
C165 C 0.212 0.53236 0.06422 0.0
U166 U 0.25667 0.51783 0.30674 0.0
O167 O 0.29136 0.49422 0.31476 0.0
O168 O 0.29733 0.53863 0.31407 0.0
C169 C 0.30837 0.51606 0.32211 0.0
C170 C 0.23655 0.51741 0.1709 0.0
C171 C 0.32687 0.51671 0.38508 0.0
C172 C 0.37121 0.51075 0.42835 0.0
C173 C 0.35284 0.50911 0.37014 0.0
C174 C 0.33769 0.52732 0.51751 0.0
C175 C 0.3638 0.52006 0.50214 0.0
C176 C 0.31926 0.52559 0.45925 0.0
C177 C 0.19607 0.5228 0.44994 0.0
C178 C 0.1612 0.54953 0.50456 0.0
C179 C 0.15071 0.50157 0.47373 0.0
C180 C 0.17726 0.49971 0.44775 0.0
C181 C 0.14256 0.52648 0.50247 0.0
C182 C 0.18773 0.54768 0.47899 0.0
C183 C 0.22475 0.52089 0.42852 0.0
O184 O 0.24584 0.53977 0.20843 0.0
O185 O 0.23951 0.49524 0.20632 0.0
O186 O 0.23777 0.54225 0.39794 0.0
O187 O 0.23124 0.4978 0.39624 0.0
H188 H 0.18603 0.49323 0.20851 0.0
H189 H 0.14569 0.4922 0.13221 0.0
H190 H 0.19024 0.54237 0.9685 0.0
H191 H 0.2305 0.5433 0.04394 0.0
H192 H 0.3913 0.50509 0.41576 0.0
H193 H 0.359 0.50223 0.31319 0.0
H194 H 0.33172 0.53455 0.57428 0.0
H195 H 0.29925 0.5315 0.47174 0.0
H196 H 0.15519 0.56893 0.52637 0.0
H197 H 0.13651 0.48361 0.47151 0.0
H198 H 0.18305 0.48015 0.42678 0.0
H199 H 0.20182 0.5657 0.48271 0.0
C200 C 0.08937 0.19352 0.16147 0.0
C201 C 0.07532 0.17196 0.19933 0.0
C202 C 0.07786 0.1431 0.08357 0.0
C203 C 0.06982 0.14672 0.16072 0.0
C204 C 0.09293 0.16437 0.04719 0.0
C205 C 0.0987 0.18938 0.08599 0.0
U206 U 0.07484 0.24914 0.31563 0.0
O207 O 0.10075 0.28595 0.34914 0.0
O208 O 0.06347 0.28926 0.29026 0.0
C209 C 0.08388 0.30217 0.32576 0.0
C210 C 0.09169 0.22125 0.19521 0.0
C211 C 0.07691 0.32411 0.37984 0.0
C212 C 0.06718 0.37084 0.40182 0.0
C213 C 0.07532 0.34995 0.35279 0.0
C214 C 0.06262 0.34041 0.50622 0.0
C215 C 0.0606 0.36616 0.47864 0.0
C216 C 0.07058 0.3194 0.45689 0.0
C217 C 0.03819 0.19586 0.44555 0.0
C218 C 0.00651 0.16516 0.51559 0.0
C219 C 0.04688 0.14894 0.4569 0.0
C220 C 0.05438 0.1746 0.42915 0.0
C221 C 0.02313 0.14421 0.50126 0.0
C222 C 0.01401 0.19084 0.48782 0.0
C223 C 0.04714 0.22381 0.42499 0.0
O224 O 0.06925 0.23291 0.19847 0.0
O225 O 0.1057 0.22601 0.25704 0.0
O226 O 0.07314 0.23077 0.42667 0.0
O227 O 0.03591 0.23278 0.36616 0.0
H228 H 0.06768 0.17499 0.25728 0.0
H229 H 0.05814 0.13049 0.18956 0.0
H230 H 0.09927 0.16193 0.98776 0.0
H231 H 0.1094 0.2059 0.05588 0.0
H232 H 0.06572 0.39061 0.37975 0.0
H233 H 0.07999 0.35384 0.2934 0.0
H234 H 0.05761 0.33652 0.56543 0.0
H235 H 0.07148 0.29947 0.47853 0.0
H236 H 0.98821 0.16185 0.55017 0.0
H237 H 0.05999 0.13298 0.44573 0.0
H238 H 0.07321 0.17804 0.3971 0.0
H239 H 1.00134 0.20702 0.50139 0.0
C240 C 0.33238 0.00302 0.12475 0.0
C241 C 0.34048 0.02485 0.07875 0.0
C242 C 0.3812 0.00452 0.03916 0.0
C243 C 0.36466 0.0256 0.03626 0.0
C244 C 0.37374 0.98317 0.08759 0.0
C245 C 0.34942 0.98237 0.13004 0.0
U246 U 0.27768 0.98806 0.28545 0.0
O247 O 0.23584 0.97037 0.27172 0.0
O248 O 0.24432 0.01278 0.31286 0.0
C249 C 0.22587 0.99262 0.29858 0.0
C250 C 0.30513 0.00138 0.16024 0.0
C251 C 0.20359 0.9894 0.35563 0.0
C252 C 0.1556 0.98743 0.38353 0.0
C253 C 0.17721 0.98759 0.33079 0.0
C254 C 0.1864 0.99003 0.48719 0.0
C255 C 0.16004 0.98904 0.46201 0.0
C256 C 0.2081 0.99019 0.43421 0.0
C257 C 0.33052 0.96795 0.41904 0.0
C258 C 0.36193 0.96235 0.5171 0.0
C259 C 0.37848 0.97212 0.38893 0.0
C260 C 0.35203 0.97229 0.36596 0.0
C261 C 0.38352 0.96791 0.46528 0.0
C262 C 0.3356 0.96231 0.49406 0.0
C263 C 0.3029 0.97159 0.39989 0.0
O264 O 0.29298 0.97701 0.17029 0.0
O265 O 0.30099 0.01886 0.21723 0.0
O266 O 0.29212 0.95493 0.34637 0.0
O267 O 0.29799 0.99689 0.39359 0.0
H268 H 0.32759 0.04091 0.07361 0.0
H269 H 0.37007 0.04218 0.99911 0.0
H270 H 0.38629 0.96671 0.09036 0.0
H271 H 0.34357 0.96526 0.16494 0.0
H272 H 0.13541 0.98678 0.36317 0.0
H273 H 0.17335 0.9871 0.27047 0.0
H274 H 0.19016 0.99142 0.5476 0.0
H275 H 0.22836 0.99168 0.45446 0.0
H276 H 0.3655 0.95929 0.5763 0.0
H277 H 0.39497 0.97675 0.3485 0.0
H278 H 0.3484 0.97689 0.30794 0.0
H279 H 0.31922 0.95901 0.53572 0.0
C280 C 0.4243 0.30538 0.10978 0.0
C281 C 0.41493 0.3297 0.13952 0.0
C282 C 0.43498 0.35311 0.02988 0.0
C283 C 0.42016 0.35346 0.09948 0.0
C284 C 0.44418 0.32882 1.00034 0.0
C285 C 0.43879 0.30515 0.03983 0.0
U286 U 0.42342 0.25913 0.28176 0.0
O287 O 0.39576 0.22326 0.30909 0.0
O288 O 0.43736 0.21857 0.27121 0.0
C289 C 0.41481 0.20684 0.29977 0.0
C290 C 0.41931 0.27972 0.14873 0.0
C291 C 0.41858 0.18982 0.36338 0.0
C292 C 0.43064 0.14697 0.40488 0.0
C293 C 0.4219 0.16234 0.34816 0.0
C294 C 0.43143 0.18609 0.49395 0.0
C295 C 0.43609 0.15896 0.47736 0.0
C296 C 0.42284 0.20153 0.43698 0.0
C297 C 0.44703 0.31898 0.42344 0.0
C298 C 0.44689 0.35472 0.52345 0.0
C299 C 0.47182 0.36292 0.40445 0.0
C300 C 0.46348 0.33651 0.37716 0.0
C301 C 0.46369 0.37204 0.47794 0.0
C302 C 0.43868 0.32835 0.49642 0.0
C303 C 0.43934 0.29045 0.39971 0.0
O304 O 0.44091 0.26946 0.16944 0.0
O305 O 0.39925 0.27722 0.1994 0.0
O306 O 0.41394 0.28408 0.38474 0.0
O307 O 0.45592 0.2785 0.3522 0.0
H308 H 0.40372 0.33036 0.19345 0.0
H309 H 0.41298 0.37213 0.12299 0.0
H310 H 0.45566 0.32824 0.94682 0.0
H311 H 0.44608 0.28658 0.0158 0.0
H312 H 0.43425 0.12606 0.39138 0.0
H313 H 0.41902 0.15313 0.29142 0.0
H314 H 0.43571 0.1956 0.54962 0.0
H315 H 0.42076 0.22287 0.44926 0.0
H316 H 0.44041 0.36153 0.58017 0.0
H317 H 0.48471 0.37618 0.3686 0.0
H318 H 0.47012 0.32972 0.32059 0.0
H319 H 0.42608 0.31509 0.53302 0.0
Tb320 Tb 0.9994 0.98456 0.63767 0.0
C321 C 0.06166 0.99664 0.64146 0.0
Tb322 Tb 0.02221 0.01655 0.77322 0.0
O323 O 0.01015 0.01754 0.56153 0.0
O324 O 0.00193 0.02639 0.67576 0.0
O325 O 0.04166 0.97964 0.61561 0.0
C326 C 0.04284 0.05424 0.8745 0.0
O327 O 0.05828 0.0147 0.69849 0.0
C328 C 0.01034 0.9646 0.79587 0.0
C329 C 0.96035 0.00113 0.77549 0.0
O330 O 0.04977 0.02975 0.86506 0.0
O331 O 0.02462 0.05751 0.8265 0.0
O332 O 0.00996 0.9838 0.84875 0.0
O333 O 0.01971 0.97476 0.73491 0.0
O334 O 0.9799 0.01853 0.80209 0.0
O335 O 0.96408 0.98393 0.71646 0.0
C336 C 0.97759 0.94748 0.53526 0.0
O337 O 0.965 0.96581 0.57296 0.0
O338 O 0.00227 0.95007 0.55553 0.0
C339 C 0.01097 0.03666 0.61465 0.0
Tb340 Tb 0.50651 0.04046 0.69473 0.0
C341 C 0.55179 0.01376 0.59623 0.0
Tb342 Tb 0.51955 0.98324 0.73121 0.0
O343 O 0.54453 0.05881 0.74216 0.0
O344 O 0.52581 0.02269 0.78021 0.0
O345 O 0.53349 0.03139 0.59813 0.0
C346 C 0.54382 0.94464 0.79271 0.0
O347 O 0.55149 0.99462 0.64666 0.0
C348 C 0.47854 0.98386 0.64167 0.0
C349 C 0.47168 0.00752 0.82233 0.0
O350 O 0.52798 0.94071 0.73549 0.0
O351 O 0.5462 0.97012 0.81383 0.0
O352 O 0.48244 0.96381 0.68348 0.0
O353 O 0.49928 0.00063 0.64398 0.0
O354 O 0.48959 0.98954 0.8221 0.0
O355 O 0.47304 0.02727 0.77375 0.0
C356 C 0.48591 0.08407 0.64743 0.0
O357 O 0.48801 0.07856 0.71815 0.0
O358 O 0.49568 0.06538 0.60381 0.0
C359 C 0.54697 0.03843 0.78399 0.0
Tb360 Tb 0.51648 0.52747 0.66061 0.0
C361 C 0.45384 0.51979 0.68742 0.0
Tb362 Tb 0.49288 0.48728 0.77749 0.0
O363 O 0.49879 0.50202 0.56699 0.0
O364 O 0.50981 0.48457 0.6653 0.0
O365 O 0.47476 0.53622 0.66387 0.0
C366 C 0.46896 0.44539 0.85075 0.0
O367 O 0.45711 0.49717 0.7217 0.0
C368 C 0.50992 0.53523 0.83622 0.0
C369 C 0.55572 0.49835 0.7612 0.0
O370 O 0.46504 0.47058 0.86584 0.0
O371 O 0.48605 0.44364 0.79366 0.0
O372 O 0.50719 0.51336 0.8743 0.0
O373 O 0.49946 0.52989 0.77235 0.0
O374 O 0.53513 0.482 0.78718 0.0
O375 O 0.55292 0.51758 0.71313 0.0
C376 C 0.53968 0.56908 0.58395 0.0
O377 O 0.54104 0.54367 0.56447 0.0
O378 O 0.52565 0.57113 0.64734 0.0
C379 C 0.4979 0.47982 0.60324 0.0
Tb380 Tb 0.98418 0.50454 0.65886 0.0
C381 C 0.02206 0.45752 0.65301 0.0
Tb382 Tb 0.02784 0.50697 0.77604 0.0
O383 O 0.01407 0.51035 0.5667 0.0
O384 O 0.02246 0.5272 0.67466 0.0
O385 O 0.99938 0.46561 0.62986 0.0
C386 C 0.07273 0.51082 0.85477 0.0
O387 O 0.03645 0.4706 0.70778 0.0
C388 C 0.97976 0.48803 0.82588 0.0
C389 C 0.99195 0.55438 0.77606 0.0
O390 O 0.07086 0.50255 0.78369 0.0
O391 O 0.04952 0.51705 0.88094 0.0
O392 O 0.99869 0.49797 0.87015 0.0
O393 O 0.98983 0.48501 0.75962 0.0
O394 O 0.01699 0.54854 0.78179 0.0
O395 O 0.97409 0.53759 0.73884 0.0
C396 C 0.93941 0.50027 0.57964 0.0
O397 O 0.94538 0.48309 0.62805 0.0
O398 O 0.95831 0.52015 0.57743 0.0
C399 C 0.03232 0.5237 0.60788 0.0
C400 C 0.12597 0.01695 0.52622 0.0
C401 C 0.13695 0.99169 0.51687 0.0
C402 C 0.10153 0.97147 0.60281 0.0
C403 C 0.08856 0.99565 0.6033 0.0
N404 N 0.08633 0.04009 0.55549 0.0
N405 N 0.13449 0.94413 0.54098 0.0
C406 C 0.10034 0.01819 0.56304 0.0
C407 C 0.12465 0.96873 0.55418 0.0
N408 N 0.14013 0.03982 0.50015 0.0
N409 N 0.0921 0.95141 0.65022 0.0
H410 H 0.15173 0.94155 0.50721 0.0
H411 H 0.12465 0.926 0.55927 0.0
H412 H 0.07543 0.95294 0.68713 0.0
H413 H 0.10211 0.93441 0.65806 0.0
H414 H 0.13447 0.05926 0.51231 0.0
H415 H 0.15892 0.03963 0.47241 0.0
H416 H 0.09263 0.0558 0.51987 0.0
H417 H 0.0671 0.04137 0.57897 0.0
C418 C 0.43337 0.12688 0.58379 0.0
C419 C 0.4492 0.1436 0.53285 0.0
C420 C 0.48996 0.12491 0.56965 0.0
C421 C 0.47404 0.10748 0.61867 0.0
N422 N 0.43195 0.09578 0.6863 0.0
N423 N 0.49259 0.1632 0.48824 0.0
C424 C 0.44617 0.1099 0.63073 0.0
C425 C 0.47757 0.14415 0.52955 0.0
N426 N 0.40603 0.12642 0.58458 0.0
N427 N 0.51688 0.12254 0.56031 0.0
H428 H 0.48413 0.17723 0.45681 0.0
H429 H 0.5134 0.16656 0.48922 0.0
H430 H 0.52701 0.11034 0.59361 0.0
H431 H 0.52913 0.13188 0.51818 0.0
H432 H 0.39301 0.11237 0.6131 0.0
H433 H 0.39614 0.13936 0.553 0.0
H434 H 0.41223 0.09859 0.70293 0.0
H435 H 0.44043 0.08258 0.72033 0.0
C436 C 0.3845 0.50184 0.61415 0.0
C437 C 0.38377 0.52286 0.56281 0.0
C438 C 0.42282 0.54789 0.6224 0.0
C439 C 0.42636 0.52465 0.66315 0.0
N440 N 0.40211 0.48844 0.73122 0.0
N441 N 0.40113 0.5667 0.51913 0.0
C442 C 0.40464 0.50416 0.66936 0.0
C443 C 0.4024 0.54635 0.56801 0.0
N444 N 0.36674 0.47913 0.608 0.0
N445 N 0.43758 0.57188 0.64029 0.0
H446 H 0.38573 0.56684 0.48096 0.0
H447 H 0.41608 0.58269 0.5134 0.0
H448 H 0.45007 0.57419 0.68675 0.0
H449 H 0.43484 0.59015 0.61657 0.0
H450 H 0.36849 0.46175 0.63747 0.0
H451 H 0.3513 0.47693 0.56937 0.0
H452 H 0.38572 0.47432 0.74145 0.0
H453 H 0.41424 0.49256 0.77811 0.0
C454 C 0.02377 0.38762 0.55341 0.0
C455 C 0.05118 0.38838 0.52936 0.0
C456 C 0.05927 0.43483 0.58316 0.0
C457 C 0.0324 0.43329 0.61333 0.0
N458 N 0.99088 0.40586 0.64076 0.0
N459 N 0.0963 0.41012 0.53586 0.0
C460 C 0.01516 0.40897 0.60246 0.0
C461 C 0.06935 0.41117 0.54903 0.0
N462 N 0.00571 0.36713 0.52692 0.0
N463 N 0.07471 0.45915 0.58235 0.0
H464 H 0.10441 0.39302 0.51119 0.0
H465 H 0.11067 0.42515 0.55609 0.0
H466 H 0.06794 0.47734 0.60327 0.0
H467 H 0.0933 0.4618 0.55357 0.0
H468 H 0.98504 0.36724 0.5356 0.0
H469 H 0.01113 0.35112 0.49064 0.0
H470 H 0.97877 0.38753 0.64124 0.0
H471 H 0.984 0.4208 0.67816 0.0
C472 C 0.89357 0.02354 0.8552 0.0
C473 C 0.88598 0.00289 0.90695 0.0
C474 C 0.92437 0.97861 0.86147 0.0
C475 C 0.93356 0.00062 0.81544 0.0
N476 N 0.92781 0.04447 0.76913 0.0
N477 N 0.89476 0.96184 0.96481 0.0
C478 C 0.91833 0.02319 0.81232 0.0
C479 C 0.9014 0.98056 0.91099 0.0
N480 N 0.87679 0.04316 0.84625 0.0
N481 N 0.9377 0.95585 0.8582 0.0
H482 H 0.87769 0.96209 1.00069 0.0
H483 H 0.90694 0.94702 0.9777 0.0
H484 H 0.95541 0.95429 0.82634 0.0
H485 H 0.93038 0.93782 0.88274 0.0
H486 H 0.87962 0.05736 0.80445 0.0
H487 H 0.85872 0.04408 0.87745 0.0
H488 H 0.91959 0.06296 0.77117 0.0
H489 H 0.94484 0.04413 0.73309 0.0
C490 C 0.55843 0.90475 0.96184 0.0
C491 C 0.57299 0.88424 0.92587 0.0
C492 C 0.56968 0.90407 0.80191 0.0
C493 C 0.55334 0.92322 0.83721 0.0
N494 N 0.52725 0.93814 0.94731 0.0
N495 N 0.59018 0.86208 0.81155 0.0
C496 C 0.54649 0.9227 0.91634 0.0
C497 C 0.57792 0.88319 0.84572 0.0
N498 N 0.556 0.90713 0.03966 0.0
N499 N 0.57825 0.90652 0.72754 0.0
H500 H 0.59757 0.84717 0.84228 0.0
H501 H 0.5916 0.85837 0.75275 0.0
H502 H 0.57263 0.92156 0.69387 0.0
H503 H 0.59249 0.89502 0.70071 0.0
H504 H 0.54871 0.92377 0.06918 0.0
H505 H 0.56314 0.89353 0.07536 0.0
H506 H 0.51942 0.93652 0.00282 0.0
H507 H 0.51688 0.95059 0.91555 0.0
C508 C 0.61211 0.46286 0.83752 0.0
C509 C 0.62726 0.48492 0.87492 0.0
C510 C 0.59989 0.51708 0.82033 0.0
C511 C 0.58286 0.4947 0.78932 0.0
N512 N 0.57804 0.44758 0.74651 0.0
N513 N 0.63609 0.53281 0.90465 0.0
C514 C 0.59059 0.46793 0.79155 0.0
C515 C 0.62169 0.51201 0.86548 0.0
N516 N 0.61757 0.43694 0.84904 0.0
N517 N 0.59552 0.54318 0.80707 0.0
H518 H 0.6529 0.53011 0.93545 0.0
H519 H 0.63067 0.55254 0.91071 0.0
H520 H 0.57861 0.54879 0.78225 0.0
H521 H 0.60947 0.5598 0.81778 0.0
H522 H 0.60524 0.41972 0.83212 0.0
H523 H 0.63395 0.43257 0.87946 0.0
H524 H 0.58413 0.42813 0.73945 0.0
H525 H 0.56305 0.4509 0.70972 0.0
C526 C 0.95158 0.61476 0.80998 0.0
C527 C 0.95933 0.62435 0.88387 0.0
C528 C 0.99062 0.58957 0.88647 0.0
C529 C 0.98342 0.5803 0.81106 0.0
N530 N 0.96416 0.59047 0.69325 0.0
N531 N 0.99138 0.62631 0.98309 0.0
C532 C 0.966 0.59483 0.7704 0.0
C533 C 0.98058 0.61352 0.91896 0.0
N534 N 0.93003 0.62413 0.77831 0.0
N535 N 0.00553 0.57492 0.92954 0.0
H536 H 0.98441 0.64381 0.00889 0.0
H537 H 0.00891 0.62117 0.0062 0.0
H538 H 0.01309 0.5569 0.91082 0.0
H539 H 0.00827 0.57923 0.98751 0.0
H540 H 0.92168 0.61559 0.72817 0.0
H541 H 0.9192 0.63904 0.80521 0.0
H542 H 0.95352 0.60213 0.65986 0.0
H543 H 0.97591 0.57746 0.66137 0.0
C544 C 0.99775 0.09785 0.50688 0.0
C545 C 0.01697 0.1179 0.53786 0.0
C546 C 0.02985 0.0859 0.62798 0.0
C547 C 0.01061 0.06569 0.59716 0.0
N548 N 0.97072 0.05517 0.52477 0.0
N549 N 0.04607 0.13358 0.64029 0.0
C550 C 0.99281 0.07254 0.54191 0.0
C551 C 0.03129 0.11273 0.60259 0.0
N552 N 0.9849 0.1026 0.44249 0.0
N553 N 0.04776 0.07921 0.67847 0.0
H554 H 0.04772 0.15349 0.62292 0.0
H555 H 0.05463 0.1317 0.69255 0.0
H556 H 0.04691 0.06002 0.69937 0.0
H557 H 0.06444 0.09201 0.69544 0.0
H558 H 0.97298 0.08765 0.41223 0.0
H559 H 0.98767 0.12108 0.41611 0.0
H560 H 0.95572 0.06002 0.48998 0.0
H561 H 0.96586 0.03707 0.55215 0.0
C562 C 0.42716 0.95169 0.50199 0.0
C563 C 0.41097 0.97318 0.49491 0.0
C564 C 0.44135 0.00335 0.57366 0.0
C565 C 0.45764 0.98187 0.58219 0.0
N566 N 0.47074 0.9387 0.53251 0.0
N567 N 0.40641 0.02113 0.50555 0.0
C568 C 0.45196 0.95692 0.53956 0.0
C569 C 0.41945 -0.00042 0.52431 0.0
N570 N 0.41851 0.92617 0.47455 0.0
N571 N 0.44555 0.02687 0.61646 0.0
H572 H 0.38972 0.01911 0.47136 0.0
H573 H 0.41356 0.04126 0.51803 0.0
H574 H 0.46209 0.03093 0.64952 0.0
H575 H 0.43201 0.04152 0.62213 0.0
H576 H 0.42782 0.90903 0.48583 0.0
H577 H 0.40102 0.922 0.44398 0.0
H578 H 0.4687 0.92115 0.49715 0.0
H579 H 0.48975 0.94271 0.55506 0.0
C580 C 0.45632 0.42111 0.50037 0.0
C581 C 0.47275 0.39983 0.50781 0.0
C582 C 0.50718 0.43183 0.56689 0.0
C583 C 0.48944 0.45246 0.5685 0.0
N584 N 0.44614 0.46644 0.54052 0.0
N585 N 0.5122 0.38371 0.55685 0.0
C586 C 0.46378 0.44707 0.53582 0.0
C587 C 0.49769 0.40482 0.54383 0.0
N588 N 0.43389 0.41664 0.45784 0.0
N589 N 0.53365 0.43835 0.58188 0.0
H590 H 0.5063 0.3637 0.53886 0.0
H591 H 0.52896 0.38576 0.5907 0.0
H592 H 0.5419 0.45824 0.5929 0.0
H593 H 0.54806 0.4246 0.57452 0.0
H594 H 0.42274 0.43202 0.44259 0.0
H595 H 0.42747 0.39773 0.43254 0.0
H596 H 0.42598 0.46261 0.52748 0.0
H597 H 0.45112 0.48614 0.56177 0.0
C598 C 0.09416 0.52893 0.47379 0.0
C599 C 0.11426 0.52877 0.52841 0.0
C600 C 0.08141 0.53836 0.63036 0.0
C601 C 0.06041 0.53206 0.57899 0.0
N602 N 0.04699 0.5297 0.44829 0.0
N603 N 0.12678 0.53144 0.66012 0.0
C604 C 0.06687 0.52983 0.49934 0.0
C605 C 0.10785 0.53304 0.60714 0.0
N606 N 0.10139 0.5293 0.39788 0.0
N607 N 0.07666 0.55165 0.69856 0.0
H608 H 0.14643 0.52745 0.64554 0.0
H609 H 0.12223 0.53172 0.71855 0.0
H610 H 0.05867 0.55996 0.71086 0.0
H611 H 0.09175 0.55832 0.73626 0.0
H612 H 0.08828 0.53154 0.35479 0.0
H613 H 0.12119 0.52895 0.37749 0.0
H614 H 0.04904 0.52387 0.39081 0.0
H615 H 0.02838 0.53647 0.46351 0.0
C616 C 0.02094 0.90431 0.90966 0.0
C617 C 0.00227 0.88423 0.87637 0.0
C618 C 0.99274 0.91528 0.7793 0.0
C619 C 0.0108 0.9357 0.81395 0.0
N620 N 0.0484 0.94694 0.89474 0.0
N621 N 0.97515 0.86792 0.77007 0.0
C622 C 0.02687 0.92936 0.87395 0.0
C623 C 0.98974 0.88887 0.80795 0.0
N624 N 0.03236 0.89974 0.97654 0.0
N625 N 0.97743 0.92149 0.72154 0.0
H626 H 0.97193 0.84844 0.79036 0.0
H627 H 0.96799 0.8692 0.7157 0.0
H628 H 0.98086 0.93973 0.69486 0.0
H629 H 0.96086 0.90909 0.70197 0.0
H630 H 0.04368 0.91473 0.00834 0.0
H631 H 0.02912 0.88127 0.00286 0.0
H632 H 0.06231 0.94253 0.9336 0.0
H633 H 0.05404 0.96476 0.86669 0.0
C634 C 0.61968 0.03786 0.84193 0.0
C635 C 0.61611 0.02284 0.9085 0.0
C636 C 0.56742 0.02259 0.90106 0.0
C637 C 0.57089 0.03402 0.82818 0.0
N638 N 0.60128 0.04725 0.72296 0.0
N639 N 0.58666 0.9972 0.99583 0.0
C640 C 0.59728 0.04041 0.79703 0.0
C641 C 0.58998 0.0141 0.93654 0.0
N642 N 0.64447 0.05005 0.82191 0.0
N643 N 0.54288 0.02091 0.93819 0.0
H644 H 0.60277 0.99092 0.02382 0.0
H645 H 0.56807 0.98765 0.0128 0.0
H646 H 0.52617 0.02839 0.91674 0.0
H647 H 0.53982 0.01491 0.99404 0.0
H648 H 0.64759 0.06368 0.77852 0.0
H649 H 0.66148 0.04869 0.85326 0.0
H650 H 0.62011 0.04904 0.69532 0.0
H651 H 0.58573 0.04815 0.68641 0.0
C652 C 0.5095 0.61095 0.88766 0.0
C653 C 0.5329 0.61588 0.931 0.0
C654 C 0.54056 0.56776 0.91622 0.0
C655 C 0.51743 0.56286 0.87085 0.0
N656 N 0.4754 0.57793 0.83573 0.0
N657 N 0.57259 0.60049 0.98005 0.0
C658 C 0.50074 0.58399 0.86196 0.0
C659 C 0.54878 0.59462 0.94427 0.0
N660 N 0.49593 0.63221 0.86961 0.0
N661 N 0.5543 0.54666 0.93468 0.0
H662 H 0.57893 0.61973 0.00331 0.0
H663 H 0.58708 0.58695 0.98242 0.0
H664 H 0.55081 0.52704 0.91109 0.0
H665 H 0.56864 0.54813 0.97629 0.0
H666 H 0.48099 0.63056 0.82965 0.0
H667 H 0.5009 0.65209 0.89043 0.0
H668 H 0.46132 0.59197 0.83494 0.0
H669 H 0.467 0.5582 0.82348 0.0
C670 C 0.90902 0.49867 0.90355 0.0
C671 C 0.8956 0.47254 0.88913 0.0
C672 C 0.93724 0.45634 0.83359 0.0
C673 C 0.95086 0.48248 0.84929 0.0
N674 N 0.95081 0.5267 0.91499 0.0
N675 N 0.8951 0.42726 0.83274 0.0
C676 C 0.93708 0.50311 0.88873 0.0
C677 C 0.90919 0.45157 0.85174 0.0
N678 N 0.89461 0.51974 0.92797 0.0
N679 N 0.95168 0.43556 0.80741 0.0
H680 H 0.87489 0.4228 0.84822 0.0
H681 H 0.90274 0.412 0.79812 0.0
H682 H 0.97248 0.43792 0.79938 0.0
H683 H 0.94375 0.41546 0.8 0.0
H684 H 0.90246 0.53999 0.92935 0.0
H685 H 0.874 0.51744 0.94023 0.0
H686 H 0.94257 0.54075 0.95276 0.0
H687 H 0.97115 0.53144 0.90488 0.0
C688 C 0.08764 0.10094 0.00633 0.0
C689 C 0.06862 0.11809 0.03799 0.0
C690 C 0.03261 0.08888 0.97686 0.0
C691 C 0.052 0.07462 0.93497 0.0
N692 N 0.0986 0.06926 0.90304 0.0
N693 N 0.02327 0.13101 0.04267 0.0
C694 C 0.07973 0.08098 0.94834 0.0
C695 C 0.04113 0.11273 0.02072 0.0
N696 N 0.11316 0.10358 0.03225 0.0
N697 N 0.0061 0.07916 0.97707 0.0
H698 H 0.02859 0.14916 0.07341 0.0
H699 H 0.00366 0.12934 0.02402 0.0
H700 H 0.99915 0.06091 0.94902 0.0
H701 H 0.99154 0.0875 0.01235 0.0
H702 H 0.12718 0.08996 0.01664 0.0
H703 H 0.11947 0.1179 0.07508 0.0
H704 H 0.11907 0.07537 0.90514 0.0
H705 H 0.0938 0.05513 0.85852 0.0
C706 C 0.42817 0.02256 0.99984 0.0
C707 C 0.40522 0.004 0.98666 0.0
C708 C 0.42731 0.98549 0.87111 0.0
C709 C 0.44916 0.00583 0.88009 0.0
N710 N 0.46902 0.04607 0.94742 0.0
N711 N 0.38088 0.9708 0.90351 0.0
C712 C 0.44919 0.02507 0.9429 0.0
C713 C 0.40427 0.98615 0.92081 0.0
N714 N 0.43014 0.03728 0.0677 0.0
N715 N 0.42848 0.96549 0.81502 0.0
H716 H 0.36348 0.97067 0.93812 0.0
H717 H 0.37791 0.95993 0.85174 0.0
H718 H 0.44432 0.965 0.77521 0.0
H719 H 0.41475 0.94831 0.81131 0.0
H720 H 0.44749 0.04907 0.08431 0.0
H721 H 0.41511 0.03587 0.11055 0.0
H722 H 0.46857 0.06239 0.98701 0.0
H723 H 0.48505 0.0483 0.90789 0.0
C724 C 0.42948 0.38095 0.91753 0.0
C725 C 0.44172 0.37821 0.98783 0.0
C726 C 0.46907 0.42151 0.97252 0.0
C727 C 0.45887 0.42274 0.89865 0.0
N728 N 0.4314 0.40286 0.79685 0.0
N729 N 0.47558 0.39369 0.07829 0.0
C730 C 0.43965 0.40221 0.86992 0.0
C731 C 0.462 0.39804 0.01473 0.0
N732 N 0.40766 0.36363 0.89748 0.0
N733 N 0.48574 0.44266 1.00216 0.0
H734 H 0.47107 0.37678 0.11096 0.0
H735 H 0.49271 0.4057 0.09562 0.0
H736 H 0.49302 0.45941 0.97144 0.0
H737 H 0.49105 0.44449 0.05901 0.0
H738 H 0.39615 0.36607 0.85075 0.0
H739 H 0.39956 0.34802 0.93152 0.0
H740 H 0.41987 0.38689 0.76941 0.0
H741 H 0.43748 0.41876 0.76154 0.0
C742 C 0.13531 0.4919 0.9478 0.0
C743 C 0.14145 0.51537 0.99601 0.0
C744 C 0.10514 0.53715 0.94229 0.0
C745 C 0.09719 0.51264 0.90023 0.0
N746 N 0.10194 0.4651 0.8725 0.0
N747 N 0.13017 0.5589 0.04779 0.0
C748 C 0.1116 0.48959 0.90511 0.0
C749 C 0.12576 0.53761 0.99574 0.0
N750 N 0.15247 0.47206 0.9415 0.0
N751 N 0.09383 0.56033 0.92872 0.0
H752 H 0.14527 0.56004 0.08737 0.0
H753 H 0.11751 0.57429 0.05604 0.0
H754 H 0.07926 0.56106 0.88831 0.0
H755 H 0.10071 0.5794 0.95185 0.0
H756 H 0.1507 0.45601 0.9008 0.0
H757 H 0.16981 0.47278 0.97277 0.0
H758 H 0.10995 0.447 0.88151 0.0
H759 H 0.08439 0.46228 0.84198 0.0
C760 C 0.94212 0.91513 0.35933 0.0
C761 C 0.94354 0.88728 0.37099 0.0
C762 C 0.96876 0.89884 0.48693 0.0
C763 C 0.96584 0.92678 0.47855 0.0
N764 N 0.94879 0.9618 0.40895 0.0
N765 N 0.95437 0.85202 0.45052 0.0
C766 C 0.95205 0.93499 0.41562 0.0
C767 C 0.95579 0.87899 0.43608 0.0
N768 N 0.93206 0.92253 0.29312 0.0
N769 N 0.98424 0.89109 0.54273 0.0
H770 H 0.94597 0.83665 0.41348 0.0
H771 H 0.95958 0.84482 0.50193 0.0
H772 H 0.99013 0.87161 0.54488 0.0
H773 H 0.99293 0.90431 0.58455 0.0
H774 H 0.93307 0.94242 0.27637 0.0
H775 H 0.92401 0.90844 0.25193 0.0
H776 H 0.93607 0.96878 0.37064 0.0
H777 H 0.95807 0.97734 0.44369 0.0
C778 C 0.61256 0.03597 0.46673 0.0
C779 C 0.61793 0.01043 0.43252 0.0
C780 C 0.57645 0.98904 0.49156 0.0
C781 C 0.57258 0.01388 0.53273 0.0
N782 N 0.58268 0.06279 0.5431 0.0
N783 N 0.60608 0.96242 0.41292 0.0
C784 C 0.58923 0.03796 0.51512 0.0
C785 C 0.59998 0.98695 0.44435 0.0
N786 N 0.6308 0.05805 0.4566 0.0
N787 N 0.55671 0.96792 0.49421 0.0
H788 H 0.62246 0.96033 0.37528 0.0
H789 H 0.59591 0.94394 0.42718 0.0
H790 H 0.53852 0.9693 0.52445 0.0
H791 H 0.55694 0.95009 0.46034 0.0
H792 H 0.63052 0.07636 0.48819 0.0
H793 H 0.64742 0.0577 0.41903 0.0
H794 H 0.59179 0.08111 0.52416 0.0
H795 H 0.56693 0.06567 0.58192 0.0
C796 C 0.54092 0.63264 0.47144 0.0
C797 C 0.56786 0.63505 0.44249 0.0
C798 C 0.57698 0.5956 0.5123 0.0
C799 C 0.5495 0.5919 0.5359 0.0
N800 N 0.50412 0.6033 0.5243 0.0
N801 N 0.61054 0.6167 0.42499 0.0
C802 C 0.53111 0.60945 0.51188 0.0
C803 C 0.58562 0.61587 0.4599 0.0
N804 N 0.52492 0.65294 0.4624 0.0
N805 N 0.595 0.58052 0.5424 0.0
H806 H 0.61753 0.63135 0.38658 0.0
H807 H 0.62339 0.60164 0.42905 0.0
H808 H 0.58947 0.56573 0.58163 0.0
H809 H 0.61568 0.58423 0.53379 0.0
H810 H 0.50618 0.65374 0.48981 0.0
H811 H 0.53123 0.67024 0.43277 0.0
H812 H 0.48968 0.61374 0.5007 0.0
H813 H 0.49591 0.58611 0.55178 0.0
C814 C 0.86859 0.48418 0.50637 0.0
C815 C 0.87308 0.4896 0.42809 0.0
C816 C 0.92138 0.49814 0.44784 0.0
C817 C 0.91652 0.4961 0.52771 0.0
N818 N 0.88502 0.49073 0.63463 0.0
N819 N 0.90312 0.50562 0.32598 0.0
C820 C 0.88999 0.48991 0.5575 0.0
C821 C 0.89931 0.49767 0.39925 0.0
N822 N 0.84398 0.473 0.53149 0.0
N823 N 0.94701 0.49905 0.41768 0.0
H824 H 0.88752 0.50525 0.28822 0.0
H825 H 0.92133 0.5147 0.30463 0.0
H826 H 0.96374 0.49812 0.4505 0.0
H827 H 0.95149 0.49775 0.3593 0.0
H828 H 0.84022 0.46591 0.58599 0.0
H829 H 0.82784 0.46856 0.4957 0.0
H830 H 0.86577 0.48929 0.65963 0.0
H831 H 0.90002 0.49526 0.67405 0.0
loop_
_geom_bond_atom_site_label_1
_geom_bond_atom_site_label_2
_geom_bond_distance
_geom_bond_site_symmetry_2
_ccdc_geom_bond_type
C0 C1 1.264 . S
C0 C5 1.479 . S
C0 C10 1.465 . S
C1 C0 1.264 . S
C1 C3 1.339 . S
C1 H28 0.931 . S
C2 C3 1.395 . S
C2 C4 1.320 . S
C3 C1 1.339 . S
C3 C2 1.395 . S
C3 H29 0.929 . S
C4 C2 1.320 . S
C4 C5 1.405 . S
C4 H30 0.930 . S
C5 C0 1.479 . S
C5 C4 1.405 . S
C5 H31 0.931 . S
U6 O7 2.454 . S
U6 O8 2.458 1_554 S
U6 C9 2.984 . S
U6 C10 2.847 . S
U6 C23 2.882 1_554 S
U6 O24 2.441 . S
U6 O25 2.420 . S
U6 O26 2.455 1_554 S
U6 O27 2.449 . S
O7 U6 2.454 . S
O7 C9 1.353 . S
O8 U6 2.458 1_556 S
O8 C9 1.286 1_556 S
C9 U6 2.984 . S
C9 O7 1.353 . S
C9 O8 1.286 1_554 S
C9 C11 1.363 . S
C10 C0 1.465 . S
C10 U6 2.847 . S
C10 O24 1.249 . S
C10 O25 1.202 . S
C11 C9 1.363 . S
C11 C13 1.408 . S
C11 C16 1.342 1_554 S
C12 C13 1.310 . S
C12 C15 1.461 1_554 S
C12 H32 0.932 . S
C13 C11 1.408 . S
C13 C12 1.310 . S
C13 H33 0.930 . S
C14 C15 1.474 . S
C14 C16 1.285 . S
C14 H34 0.929 . S
C15 C12 1.461 1_556 S
C15 C14 1.474 . S
C16 C11 1.342 1_556 S
C16 C14 1.285 . S
C16 H35 0.930 . S
C17 C20 1.424 . S
C17 C22 1.245 . S
C17 C23 1.428 . S
C18 C21 1.260 . S
C18 C22 1.477 . S
C18 H36 0.932 . S
C19 C20 1.384 . S
C19 C21 1.479 . S
C19 H37 0.929 . S
C20 C17 1.424 . S
C20 C19 1.384 . S
C20 H38 0.928 . S
C21 C18 1.260 . S
C21 C19 1.479 . S
C22 C17 1.245 . S
C22 C18 1.477 . S
C22 H39 0.932 . S
C23 U6 2.882 1_556 S
C23 C17 1.428 . S
C23 O26 1.301 . S
C23 O27 1.282 1_556 S
O24 U6 2.441 . S
O24 C10 1.249 . S
O25 U6 2.420 . S
O25 C10 1.202 . S
O26 U6 2.455 1_556 S
O26 C23 1.301 . S
O27 U6 2.449 . S
O27 C23 1.282 1_554 S
H28 C1 0.931 . S
H29 C3 0.929 . S
H30 C4 0.930 . S
H31 C5 0.931 . S
H32 C12 0.932 . S
H33 C13 0.930 . S
H34 C14 0.929 . S
H35 C16 0.930 . S
H36 C18 0.932 . S
H37 C19 0.929 . S
H38 C20 0.928 . S
H39 C22 0.932 . S
C40 C41 1.264 . S
C40 C45 1.479 . S
C40 C50 1.465 . S
C41 C40 1.264 . S
C41 C43 1.339 . S
C41 H68 0.931 . S
C42 C43 1.395 . S
C42 C44 1.320 . S
C43 C41 1.339 . S
C43 C42 1.395 . S
C43 H69 0.929 . S
C44 C42 1.320 . S
C44 C45 1.405 . S
C44 H70 0.930 . S
C45 C40 1.479 . S
C45 C44 1.405 . S
C45 H71 0.931 . S
U46 O47 2.454 . S
U46 O48 2.458 1_554 S
U46 C49 2.984 1_554 S
U46 C50 2.847 . S
U46 C63 2.882 1_554 S
U46 O64 2.441 . S
U46 O65 2.420 . S
U46 O66 2.455 1_554 S
U46 O67 2.449 1_554 S
O47 U46 2.454 . S
O47 C49 1.353 1_554 S
O48 U46 2.458 1_556 S
O48 C49 1.286 . S
C49 U46 2.984 1_556 S
C49 O47 1.353 1_556 S
C49 O48 1.286 . S
C49 C51 1.363 . S
C50 C40 1.465 . S
C50 U46 2.847 . S
C50 O64 1.249 . S
C50 O65 1.202 . S
C51 C49 1.363 . S
C51 C53 1.408 1_556 S
C51 C56 1.342 . S
C52 C53 1.310 . S
C52 C55 1.461 1_554 S
C52 H72 0.932 . S
C53 C51 1.408 1_554 S
C53 C52 1.310 . S
C53 H73 0.930 . S
C54 C55 1.474 . S
C54 C56 1.285 . S
C54 H74 0.929 . S
C55 C52 1.461 1_556 S
C55 C54 1.474 . S
C56 C51 1.342 . S
C56 C54 1.285 . S
C56 H75 0.930 . S
C57 C60 1.424 . S
C57 C62 1.245 . S
C57 C63 1.428 . S
C58 C61 1.260 . S
C58 C62 1.477 . S
C58 H76 0.932 . S
C59 C60 1.384 . S
C59 C61 1.479 . S
C59 H77 0.929 . S
C60 C57 1.424 . S
C60 C59 1.384 . S
C60 H78 0.928 . S
C61 C58 1.260 . S
C61 C59 1.479 . S
C62 C57 1.245 . S
C62 C58 1.477 . S
C62 H79 0.932 . S
C63 U46 2.882 1_556 S
C63 C57 1.428 . S
C63 O66 1.301 . S
C63 O67 1.282 . S
O64 U46 2.441 . S
O64 C50 1.249 . S
O65 U46 2.420 . S
O65 C50 1.202 . S
O66 U46 2.455 1_556 S
O66 C63 1.301 . S
O67 U46 2.449 1_556 S
O67 C63 1.282 . S
H68 C41 0.931 . S
H69 C43 0.929 . S
H70 C44 0.930 . S
H71 C45 0.931 . S
H72 C52 0.932 . S
H73 C53 0.930 . S
H74 C54 0.929 . S
H75 C56 0.930 . S
H76 C58 0.932 . S
H77 C59 0.929 . S
H78 C60 0.928 . S
H79 C62 0.932 . S
C80 C81 1.264 . S
C80 C85 1.479 . S
C80 C90 1.465 . S
C81 C80 1.264 . S
C81 C83 1.339 . S
C81 H108 0.931 . S
C82 C83 1.395 . S
C82 C84 1.320 . S
C83 C81 1.339 . S
C83 C82 1.395 . S
C83 H109 0.929 . S
C84 C82 1.320 . S
C84 C85 1.405 . S
C84 H110 0.930 1_545 S
C85 C80 1.479 . S
C85 C84 1.405 . S
C85 H111 0.931 . S
U86 O87 2.454 . S
U86 O88 2.458 . S
U86 C89 2.984 . S
U86 C90 2.847 . S
U86 C103 2.882 . S
U86 O104 2.441 . S
U86 O105 2.420 . S
U86 O106 2.455 1_554 S
U86 O107 2.449 . S
O87 U86 2.454 . S
O87 C89 1.353 . S
O88 U86 2.458 . S
O88 C89 1.286 . S
C89 U86 2.984 . S
C89 O87 1.353 . S
C89 O88 1.286 . S
C89 C91 1.363 . S
C90 C80 1.465 . S
C90 U86 2.847 . S
C90 O104 1.249 . S
C90 O105 1.202 . S
C91 C89 1.363 . S
C91 C93 1.408 . S
C91 C96 1.342 1_554 S
C92 C93 1.310 . S
C92 C95 1.461 . S
C92 H112 0.932 . S
C93 C91 1.408 . S
C93 C92 1.310 . S
C93 H113 0.930 . S
C94 C95 1.476 1_566 S
C94 C96 1.284 1_565 S
C94 H114 0.930 . S
C95 C92 1.461 . S
C95 C94 1.476 1_544 S
C96 C91 1.342 1_556 S
C96 C94 1.284 1_545 S
C96 H115 0.928 . S
C97 C100 1.424 . S
C97 C102 1.245 . S
C97 C103 1.428 1_556 S
C98 C101 1.260 . S
C98 C102 1.477 . S
C98 H116 0.932 . S
C99 C100 1.384 . S
C99 C101 1.479 . S
C99 H117 0.929 . S
C100 C97 1.424 . S
C100 C99 1.384 . S
C100 H118 0.928 1_556 S
C101 C98 1.260 . S
C101 C99 1.479 . S
C102 C97 1.245 . S
C102 C98 1.477 . S
C102 H119 0.932 . S
C103 U86 2.882 . S
C103 C97 1.428 1_554 S
C103 O106 1.301 1_554 S
C103 O107 1.282 . S
O104 U86 2.441 . S
O104 C90 1.249 . S
O105 U86 2.420 . S
O105 C90 1.202 . S
O106 U86 2.455 1_556 S
O106 C103 1.301 1_556 S
O107 U86 2.449 . S
O107 C103 1.282 . S
H108 C81 0.931 . S
H109 C83 0.929 . S
H110 C84 0.930 1_565 S
H111 C85 0.931 . S
H112 C92 0.932 . S
H113 C93 0.930 . S
H114 C94 0.930 . S
H115 C96 0.928 . S
H116 C98 0.932 . S
H117 C99 0.929 . S
H118 C100 0.928 1_554 S
H119 C102 0.932 . S
C120 C121 1.264 . S
C120 C125 1.479 . S
C120 C130 1.465 . S
C121 C120 1.264 . S
C121 C123 1.339 . S
C121 H148 0.931 . S
C122 C123 1.395 . S
C122 C124 1.320 . S
C123 C121 1.339 . S
C123 C122 1.395 . S
C123 H149 0.929 . S
C124 C122 1.320 . S
C124 C125 1.405 . S
C124 H150 0.930 . S
C125 C120 1.479 . S
C125 C124 1.405 . S
C125 H151 0.931 . S
U126 O127 2.454 . S
U126 O128 2.458 . S
U126 C129 2.984 . S
U126 C130 2.847 . S
U126 C143 2.882 1_554 S
U126 O144 2.441 . S
U126 O145 2.420 . S
U126 O146 2.455 1_554 S
U126 O147 2.449 . S
O127 U126 2.454 . S
O127 C129 1.353 . S
O128 U126 2.458 . S
O128 C129 1.286 . S
C129 U126 2.984 . S
C129 O127 1.353 . S
C129 O128 1.286 . S
C129 C131 1.363 . S
C130 C120 1.465 . S
C130 U126 2.847 . S
C130 O144 1.249 . S
C130 O145 1.202 . S
C131 C129 1.363 . S
C131 C133 1.408 . S
C131 C136 1.342 1_554 S
C132 C133 1.310 . S
C132 C135 1.461 . S
C132 H152 0.932 . S
C133 C131 1.408 . S
C133 C132 1.310 . S
C133 H153 0.930 . S
C134 C135 1.474 1_556 S
C134 C136 1.285 . S
C134 H154 0.929 . S
C135 C132 1.461 . S
C135 C134 1.474 1_554 S
C136 C131 1.342 1_556 S
C136 C134 1.285 . S
C136 H155 0.930 . S
C137 C140 1.424 . S
C137 C142 1.245 . S
C137 C143 1.428 . S
C138 C141 1.260 . S
C138 C142 1.477 . S
C138 H156 0.932 . S
C139 C140 1.384 . S
C139 C141 1.479 . S
C139 H157 0.929 . S
C140 C137 1.424 . S
C140 C139 1.384 . S
C140 H158 0.928 . S
C141 C138 1.260 . S
C141 C139 1.479 . S
C142 C137 1.245 . S
C142 C138 1.477 . S
C142 H159 0.932 . S
C143 U126 2.882 1_556 S
C143 C137 1.428 . S
C143 O146 1.301 . S
C143 O147 1.282 1_556 S
O144 U126 2.441 . S
O144 C130 1.249 . S
O145 U126 2.420 . S
O145 C130 1.202 . S
O146 U126 2.455 1_556 S
O146 C143 1.301 . S
O147 U126 2.449 . S
O147 C143 1.282 1_554 S
H148 C121 0.931 . S
H149 C123 0.929 . S
H150 C124 0.930 . S
H151 C125 0.931 . S
H152 C132 0.932 . S
H153 C133 0.930 . S
H154 C134 0.929 . S
H155 C136 0.930 . S
H156 C138 0.932 . S
H157 C139 0.929 . S
H158 C140 0.928 . S
H159 C142 0.932 . S
C160 C161 1.264 . S
C160 C165 1.479 . S
C160 C170 1.465 . S
C161 C160 1.264 . S
C161 C163 1.339 . S
C161 H188 0.931 . S
C162 C163 1.395 1_556 S
C162 C164 1.320 . S
C163 C161 1.339 . S
C163 C162 1.395 1_554 S
C163 H189 0.929 . S
C164 C162 1.320 . S
C164 C165 1.405 1_556 S
C164 H190 0.930 . S
C165 C160 1.479 . S
C165 C164 1.405 1_554 S
C165 H191 0.931 . S
U166 O167 2.454 . S
U166 O168 2.458 . S
U166 C169 2.984 . S
U166 C170 2.847 . S
U166 C183 2.882 . S
U166 O184 2.441 . S
U166 O185 2.420 . S
U166 O186 2.455 . S
U166 O187 2.449 . S
O167 U166 2.454 . S
O167 C169 1.353 . S
O168 U166 2.458 . S
O168 C169 1.286 . S
C169 U166 2.984 . S
C169 O167 1.353 . S
C169 O168 1.286 . S
C169 C171 1.363 . S
C170 C160 1.465 . S
C170 U166 2.847 . S
C170 O184 1.249 . S
C170 O185 1.202 . S
C171 C169 1.363 . S
C171 C173 1.408 . S
C171 C176 1.342 . S
C172 C173 1.310 . S
C172 C175 1.461 . S
C172 H192 0.932 . S
C173 C171 1.408 . S
C173 C172 1.310 . S
C173 H193 0.930 . S
C174 C175 1.474 . S
C174 C176 1.285 . S
C174 H194 0.929 . S
C175 C172 1.461 . S
C175 C174 1.474 . S
C176 C171 1.342 . S
C176 C174 1.285 . S
C176 H195 0.930 . S
C177 C180 1.424 . S
C177 C182 1.245 . S
C177 C183 1.428 . S
C178 C181 1.260 . S
C178 C182 1.477 . S
C178 H196 0.932 . S
C179 C180 1.384 . S
C179 C181 1.479 . S
C179 H197 0.929 . S
C180 C177 1.424 . S
C180 C179 1.384 . S
C180 H198 0.928 . S
C181 C178 1.260 . S
C181 C179 1.479 . S
C182 C177 1.245 . S
C182 C178 1.477 . S
C182 H199 0.932 . S
C183 U166 2.882 . S
C183 C177 1.428 . S
C183 O186 1.301 . S
C183 O187 1.282 . S
O184 U166 2.441 . S
O184 C170 1.249 . S
O185 U166 2.420 . S
O185 C170 1.202 . S
O186 U166 2.455 . S
O186 C183 1.301 . S
O187 U166 2.449 . S
O187 C183 1.282 . S
H188 C161 0.931 . S
H189 C163 0.929 . S
H190 C164 0.930 . S
H191 C165 0.931 . S
H192 C172 0.932 . S
H193 C173 0.930 . S
H194 C174 0.929 . S
H195 C176 0.930 . S
H196 C178 0.932 . S
H197 C179 0.929 . S
H198 C180 0.928 . S
H199 C182 0.932 . S
C200 C201 1.264 . S
C200 C205 1.479 . S
C200 C210 1.465 . S
C201 C200 1.264 . S
C201 C203 1.339 . S
C201 H228 0.931 . S
C202 C203 1.404 . S
C202 C204 1.322 . S
C203 C201 1.339 . S
C203 C202 1.404 . S
C203 H229 0.929 . S
C204 C202 1.322 . S
C204 C205 1.405 . S
C204 H230 0.930 1_554 S
C205 C200 1.479 . S
C205 C204 1.405 . S
C205 H231 0.931 . S
U206 O207 2.454 . S
U206 O208 2.458 . S
U206 C209 2.984 . S
U206 C210 2.847 . S
U206 C223 2.882 . S
U206 O224 2.441 . S
U206 O225 2.420 . S
U206 O226 2.455 . S
U206 O227 2.449 . S
O207 U206 2.454 . S
O207 C209 1.353 . S
O208 U206 2.458 . S
O208 C209 1.286 . S
C209 U206 2.984 . S
C209 O207 1.353 . S
C209 O208 1.286 . S
C209 C211 1.363 . S
C210 C200 1.465 . S
C210 U206 2.847 . S
C210 O224 1.249 . S
C210 O225 1.202 . S
C211 C209 1.363 . S
C211 C213 1.408 . S
C211 C216 1.342 . S
C212 C213 1.310 . S
C212 C215 1.461 . S
C212 H232 0.932 . S
C213 C211 1.408 . S
C213 C212 1.310 . S
C213 H233 0.930 . S
C214 C215 1.474 . S
C214 C216 1.285 . S
C214 H234 0.929 . S
C215 C212 1.461 . S
C215 C214 1.474 . S
C216 C211 1.342 . S
C216 C214 1.285 . S
C216 H235 0.930 . S
C217 C220 1.424 . S
C217 C222 1.245 . S
C217 C223 1.428 . S
C218 C221 1.260 . S
C218 C222 1.477 . S
C218 H236 0.932 . S
C219 C220 1.384 . S
C219 C221 1.479 . S
C219 H237 0.929 . S
C220 C217 1.424 . S
C220 C219 1.384 . S
C220 H238 0.928 . S
C221 C218 1.260 . S
C221 C219 1.479 . S
C222 C217 1.245 . S
C222 C218 1.477 . S
C222 H239 0.932 . S
C223 U206 2.882 . S
C223 C217 1.428 . S
C223 O226 1.301 . S
C223 O227 1.282 . S
O224 U206 2.441 . S
O224 C210 1.249 . S
O225 U206 2.420 . S
O225 C210 1.202 . S
O226 U206 2.455 . S
O226 C223 1.301 . S
O227 U206 2.449 . S
O227 C223 1.282 . S
H228 C201 0.931 . S
H229 C203 0.929 . S
H230 C204 0.930 1_556 S
H231 C205 0.931 . S
H232 C212 0.932 . S
H233 C213 0.930 . S
H234 C214 0.929 . S
H235 C216 0.930 . S
H236 C218 0.932 . S
H237 C219 0.929 . S
H238 C220 0.928 . S
H239 C222 0.932 . S
C240 C241 1.264 . S
C240 C245 1.479 . S
C240 C250 1.465 . S
C241 C240 1.264 . S
C241 C243 1.339 1_554 S
C241 H268 0.931 . S
C242 C243 1.395 . S
C242 C244 1.320 . S
C243 C241 1.339 1_556 S
C243 C242 1.395 . S
C243 H269 0.929 . S
C244 C242 1.320 . S
C244 C245 1.405 1_556 S
C244 H270 0.930 . S
C245 C240 1.479 . S
C245 C244 1.405 1_554 S
C245 H271 0.931 . S
U246 O247 2.454 . S
U246 O248 2.458 . S
U246 C249 2.984 . S
U246 C250 2.847 . S
U246 C263 2.882 . S
U246 O264 2.441 . S
U246 O265 2.420 . S
U246 O266 2.455 . S
U246 O267 2.449 . S
O247 U246 2.454 . S
O247 C249 1.353 . S
O248 U246 2.458 . S
O248 C249 1.286 . S
C249 U246 2.984 . S
C249 O247 1.353 . S
C249 O248 1.286 . S
C249 C251 1.363 . S
C250 C240 1.465 . S
C250 U246 2.847 . S
C250 O264 1.249 . S
C250 O265 1.202 . S
C251 C249 1.363 . S
C251 C253 1.408 . S
C251 C256 1.342 . S
C252 C253 1.310 . S
C252 C255 1.461 . S
C252 H272 0.932 . S
C253 C251 1.408 . S
C253 C252 1.310 . S
C253 H273 0.930 . S
C254 C255 1.474 . S
C254 C256 1.285 . S
C254 H274 0.929 . S
C255 C252 1.461 . S
C255 C254 1.474 . S
C256 C251 1.342 . S
C256 C254 1.285 . S
C256 H275 0.930 . S
C257 C260 1.424 . S
C257 C262 1.245 . S
C257 C263 1.428 . S
C258 C261 1.260 . S
C258 C262 1.477 . S
C258 H276 0.932 . S
C259 C260 1.384 . S
C259 C261 1.479 . S
C259 H277 0.929 . S
C260 C257 1.424 . S
C260 C259 1.384 . S
C260 H278 0.928 . S
C261 C258 1.260 . S
C261 C259 1.479 . S
C262 C257 1.245 . S
C262 C258 1.477 . S
C262 H279 0.932 . S
C263 U246 2.882 . S
C263 C257 1.428 . S
C263 O266 1.301 . S
C263 O267 1.282 . S
O264 U246 2.441 . S
O264 C250 1.249 . S
O265 U246 2.420 . S
O265 C250 1.202 . S
O266 U246 2.455 . S
O266 C263 1.301 . S
O267 U246 2.449 . S
O267 C263 1.282 . S
H268 C241 0.931 . S
H269 C243 0.929 . S
H270 C244 0.930 . S
H271 C245 0.931 . S
H272 C252 0.932 . S
H273 C253 0.930 . S
H274 C254 0.929 . S
H275 C256 0.930 . S
H276 C258 0.932 . S
H277 C259 0.929 . S
H278 C260 0.928 . S
H279 C262 0.932 . S
C280 C281 1.264 . S
C280 C285 1.479 . S
C280 C290 1.465 . S
C281 C280 1.264 . S
C281 C283 1.339 . S
C281 H308 0.931 . S
C282 C283 1.395 1_556 S
C282 C284 1.320 . S
C283 C281 1.339 . S
C283 C282 1.395 1_554 S
C283 H309 0.929 . S
C284 C282 1.320 . S
C284 C285 1.405 1_556 S
C284 H310 0.930 . S
C285 C280 1.479 . S
C285 C284 1.405 1_554 S
C285 H311 0.931 . S
U286 O287 2.454 . S
U286 O288 2.458 . S
U286 C289 2.984 . S
U286 C290 2.847 . S
U286 C303 2.882 . S
U286 O304 2.441 . S
U286 O305 2.420 . S
U286 O306 2.455 . S
U286 O307 2.449 . S
O287 U286 2.454 . S
O287 C289 1.353 . S
O288 U286 2.458 . S
O288 C289 1.286 . S
C289 U286 2.984 . S
C289 O287 1.353 . S
C289 O288 1.286 . S
C289 C291 1.363 . S
C290 C280 1.465 . S
C290 U286 2.847 . S
C290 O304 1.249 . S
C290 O305 1.202 . S
C291 C289 1.363 . S
C291 C293 1.408 . S
C291 C296 1.342 . S
C292 C293 1.310 . S
C292 C295 1.461 . S
C292 H312 0.932 . S
C293 C291 1.408 . S
C293 C292 1.310 . S
C293 H313 0.930 . S
C294 C295 1.474 . S
C294 C296 1.285 . S
C294 H314 0.929 . S
C295 C292 1.461 . S
C295 C294 1.474 . S
C296 C291 1.342 . S
C296 C294 1.285 . S
C296 H315 0.930 . S
C297 C300 1.424 . S
C297 C302 1.245 . S
C297 C303 1.428 . S
C298 C301 1.260 . S
C298 C302 1.477 . S
C298 H316 0.932 . S
C299 C300 1.384 . S
C299 C301 1.479 . S
C299 H317 0.929 . S
C300 C297 1.424 . S
C300 C299 1.384 . S
C300 H318 0.928 . S
C301 C298 1.260 . S
C301 C299 1.479 . S
C302 C297 1.245 . S
C302 C298 1.477 . S
C302 H319 0.932 . S
C303 U286 2.882 . S
C303 C297 1.428 . S
C303 O306 1.301 . S
C303 O307 1.282 . S
O304 U286 2.441 . S
O304 C290 1.249 . S
O305 U286 2.420 . S
O305 C290 1.202 . S
O306 U286 2.455 . S
O306 C303 1.301 . S
O307 U286 2.449 . S
O307 C303 1.282 . S
H308 C281 0.931 . S
H309 C283 0.929 . S
H310 C284 0.930 . S
H311 C285 0.931 . S
H312 C292 0.932 . S
H313 C293 0.930 . S
H314 C294 0.929 . S
H315 C296 0.930 . S
H316 C298 0.932 . S
H317 C299 0.929 . S
H318 C300 0.928 . S
H319 C302 0.932 . S
Tb320 O323 2.450 1_655 S
Tb320 O324 2.594 1_655 S
Tb320 O325 2.375 1_645 S
Tb320 O333 2.345 1_545 S
Tb320 O335 2.352 . S
Tb320 O337 2.429 1_545 S
Tb320 O338 2.515 1_545 S
C321 O325 1.251 . S
C321 O327 1.263 . S
Tb322 O324 2.343 . S
Tb322 O327 2.353 1_545 S
Tb322 O330 2.427 . S
Tb322 O331 2.513 . S
Tb322 O332 2.453 1_545 S
Tb322 O333 2.596 1_445 S
Tb322 O334 2.374 1_455 S
O323 Tb320 2.450 1_455 S
O323 C339 1.245 . S
O324 Tb320 2.594 1_455 S
O324 Tb322 2.343 . S
O324 C339 1.259 . S
O325 Tb320 2.375 1_465 S
O325 C321 1.251 . S
C326 O330 1.275 . S
C326 O331 1.246 . S
O327 C321 1.263 . S
O327 Tb322 2.353 1_565 S
C328 O332 1.245 1_655 S
C328 O333 1.259 . S
C329 O334 1.250 . S
C329 O335 1.263 . S
O330 Tb322 2.427 . S
O330 C326 1.275 . S
O331 Tb322 2.513 . S
O331 C326 1.246 . S
O332 Tb322 2.453 1_565 S
O332 C328 1.245 1_455 S
O333 Tb320 2.345 1_565 S
O333 Tb322 2.596 1_665 S
O333 C328 1.259 . S
O334 Tb322 2.374 1_655 S
O334 C329 1.250 . S
O335 Tb320 2.352 . S
O335 C329 1.263 . S
C336 O337 1.275 . S
C336 O338 1.246 . S
O337 Tb320 2.429 1_565 S
O337 C336 1.275 . S
O338 Tb320 2.515 1_565 S
O338 C336 1.246 . S
C339 O323 1.245 . S
C339 O324 1.259 . S
Tb340 O343 2.453 . S
Tb340 O344 2.632 . S
Tb340 O345 2.374 . S
Tb340 O353 2.343 . S
Tb340 O355 2.353 . S
Tb340 O357 2.427 . S
Tb340 O358 2.513 . S
C341 O345 1.251 . S
C341 O347 1.263 1_545 S
Tb342 O344 2.316 1_565 S
Tb342 O347 2.353 . S
Tb342 O350 2.427 . S
Tb342 O351 2.513 . S
Tb342 O352 2.453 . S
Tb342 O353 2.596 1_565 S
Tb342 O354 2.374 . S
O343 Tb340 2.453 . S
O343 C359 1.245 . S
O344 Tb340 2.632 . S
O344 Tb342 2.316 1_545 S
O344 C359 1.278 . S
O345 Tb340 2.374 . S
O345 C341 1.251 . S
C346 O350 1.275 . S
C346 O351 1.246 . S
O347 C341 1.263 1_565 S
O347 Tb342 2.353 . S
C348 O352 1.245 . S
C348 O353 1.259 1_565 S
C349 O354 1.250 1_545 S
C349 O355 1.263 . S
O350 Tb342 2.427 . S
O350 C346 1.275 . S
O351 Tb342 2.513 . S
O351 C346 1.246 . S
O352 Tb342 2.453 . S
O352 C348 1.245 . S
O353 Tb340 2.343 . S
O353 Tb342 2.596 1_545 S
O353 C348 1.259 1_545 S
O354 Tb342 2.374 . S
O354 C349 1.250 1_565 S
O355 Tb340 2.353 . S
O355 C349 1.263 . S
C356 O357 1.275 . S
C356 O358 1.246 . S
O357 Tb340 2.427 . S
O357 C356 1.275 . S
O358 Tb340 2.513 . S
O358 C356 1.246 . S
C359 O343 1.245 . S
C359 O344 1.278 . S
Tb360 O363 2.453 . S
Tb360 O364 2.596 . S
Tb360 O365 2.374 . S
Tb360 O373 2.343 . S
Tb360 O375 2.353 . S
Tb360 O377 2.427 . S
Tb360 O378 2.513 . S
C361 O365 1.251 . S
C361 O367 1.263 . S
Tb362 O364 2.343 . S
Tb362 O367 2.353 . S
Tb362 O370 2.427 . S
Tb362 O371 2.513 . S
Tb362 O372 2.453 . S
Tb362 O373 2.596 . S
Tb362 O374 2.374 . S
O363 Tb360 2.453 . S
O363 C379 1.245 . S
O364 Tb360 2.596 . S
O364 Tb362 2.343 . S
O364 C379 1.259 . S
O365 Tb360 2.374 . S
O365 C361 1.251 . S
C366 O370 1.275 . S
C366 O371 1.246 . S
O367 C361 1.263 . S
O367 Tb362 2.353 . S
C368 O372 1.245 . S
C368 O373 1.259 . S
C369 O374 1.250 . S
C369 O375 1.263 . S
O370 Tb362 2.427 . S
O370 C366 1.275 . S
O371 Tb362 2.513 . S
O371 C366 1.246 . S
O372 Tb362 2.453 . S
O372 C368 1.245 . S
O373 Tb360 2.343 . S
O373 Tb362 2.596 . S
O373 C368 1.259 . S
O374 Tb362 2.374 . S
O374 C369 1.250 . S
O375 Tb360 2.353 . S
O375 C369 1.263 . S
C376 O377 1.275 . S
C376 O378 1.246 . S
O377 Tb360 2.427 . S
O377 C376 1.275 . S
O378 Tb360 2.513 . S
O378 C376 1.246 . S
C379 O363 1.245 . S
C379 O364 1.259 . S
Tb380 O383 2.453 1_655 S
Tb380 O384 2.596 1_655 S
Tb380 O385 2.374 1_655 S
Tb380 O393 2.343 . S
Tb380 O395 2.353 . S
Tb380 O397 2.427 . S
Tb380 O398 2.513 . S
C381 O385 1.251 . S
C381 O387 1.263 . S
Tb382 O384 2.343 . S
Tb382 O387 2.353 . S
Tb382 O390 2.427 . S
Tb382 O391 2.513 . S
Tb382 O392 2.453 1_455 S
Tb382 O393 2.596 1_455 S
Tb382 O394 2.374 . S
O383 Tb380 2.453 1_455 S
O383 C399 1.245 . S
O384 Tb380 2.596 1_455 S
O384 Tb382 2.343 . S
O384 C399 1.259 . S
O385 Tb380 2.374 1_455 S
O385 C381 1.251 . S
C386 O390 1.275 . S
C386 O391 1.246 . S
O387 C381 1.263 . S
O387 Tb382 2.353 . S
C388 O392 1.245 . S
C388 O393 1.259 . S
C389 O394 1.250 1_655 S
C389 O395 1.263 . S
O390 Tb382 2.427 . S
O390 C386 1.275 . S
O391 Tb382 2.513 . S
O391 C386 1.246 . S
O392 Tb382 2.453 1_655 S
O392 C388 1.245 . S
O393 Tb380 2.343 . S
O393 Tb382 2.596 1_655 S
O393 C388 1.259 . S
O394 Tb382 2.374 . S
O394 C389 1.250 1_455 S
O395 Tb380 2.353 . S
O395 C389 1.263 . S
C396 O397 1.275 . S
C396 O398 1.246 . S
O397 Tb380 2.427 . S
O397 C396 1.275 . S
O398 Tb380 2.513 . S
O398 C396 1.246 . S
C399 O383 1.245 . S
C399 O384 1.259 . S
C400 C401 1.363 . S
C400 C406 1.379 . S
C400 N408 1.356 . S
C401 C400 1.363 . S
C401 C407 1.363 1_545 S
C402 C403 1.363 1_565 S
C402 C407 1.379 . S
C402 N409 1.356 . S
C403 C402 1.363 1_545 S
C403 C406 1.363 . S
N404 C406 1.356 . S
N404 H416 0.984 . S
N404 H417 0.985 . S
N405 C407 1.356 . S
N405 H410 0.984 . S
N405 H411 0.985 . S
C406 C400 1.379 . S
C406 C403 1.363 . S
C406 N404 1.356 . S
C407 C401 1.363 1_565 S
C407 C402 1.379 . S
C407 N405 1.356 . S
N408 C400 1.356 . S
N408 H414 0.984 . S
N408 H415 0.984 . S
N409 C402 1.356 . S
N409 H412 0.984 . S
N409 H413 0.985 . S
H410 N405 0.984 . S
H411 N405 0.985 . S
H412 N409 0.984 . S
H413 N409 0.985 . S
H414 N408 0.984 . S
H415 N408 0.984 . S
H416 N404 0.984 . S
H417 N404 0.985 . S
C418 C419 1.363 . S
C418 C424 1.379 . S
C418 N426 1.356 . S
C419 C418 1.363 . S
C419 C425 1.363 . S
C420 C421 1.363 . S
C420 C425 1.379 . S
C420 N427 1.356 . S
C421 C420 1.363 . S
C421 C424 1.363 . S
N422 C424 1.356 . S
N422 H434 0.984 . S
N422 H435 0.985 . S
N423 C425 1.356 . S
N423 H428 0.984 . S
N423 H429 0.985 . S
C424 C418 1.379 . S
C424 C421 1.363 . S
C424 N422 1.356 . S
C425 C419 1.363 . S
C425 C420 1.379 . S
C425 N423 1.356 . S
N426 C418 1.356 . S
N426 H432 0.984 . S
N426 H433 0.984 . S
N427 C420 1.356 . S
N427 H430 0.984 . S
N427 H431 0.985 . S
H428 N423 0.984 . S
H429 N423 0.985 . S
H430 N427 0.984 . S
H431 N427 0.985 . S
H432 N426 0.984 . S
H433 N426 0.984 . S
H434 N422 0.984 . S
H435 N422 0.985 . S
C436 C437 1.363 . S
C436 C442 1.379 . S
C436 N444 1.356 . S
C437 C436 1.363 . S
C437 C443 1.363 . S
C438 C439 1.363 . S
C438 C443 1.379 . S
C438 N445 1.356 . S
C439 C438 1.363 . S
C439 C442 1.363 . S
N440 C442 1.356 . S
N440 H452 0.984 . S
N440 H453 0.985 . S
N441 C443 1.356 . S
N441 H446 0.984 . S
N441 H447 0.985 . S
C442 C436 1.379 . S
C442 C439 1.363 . S
C442 N440 1.356 . S
C443 C437 1.363 . S
C443 C438 1.379 . S
C443 N441 1.356 . S
N444 C436 1.356 . S
N444 H450 0.984 . S
N444 H451 0.984 . S
N445 C438 1.356 . S
N445 H448 0.984 . S
N445 H449 0.985 . S
H446 N441 0.984 . S
H447 N441 0.985 . S
H448 N445 0.984 . S
H449 N445 0.985 . S
H450 N444 0.984 . S
H451 N444 0.984 . S
H452 N440 0.984 . S
H453 N440 0.985 . S
C454 C455 1.363 . S
C454 C460 1.379 . S
C454 N462 1.356 . S
C455 C454 1.363 . S
C455 C461 1.363 . S
C456 C457 1.363 . S
C456 C461 1.379 . S
C456 N463 1.356 . S
C457 C456 1.363 . S
C457 C460 1.363 . S
N458 C460 1.356 . S
N458 H470 0.984 . S
N458 H471 0.985 . S
N459 C461 1.356 . S
N459 H464 0.984 . S
N459 H465 0.985 . S
C460 C454 1.379 . S
C460 C457 1.363 . S
C460 N458 1.356 . S
C461 C455 1.363 . S
C461 C456 1.379 . S
C461 N459 1.356 . S
N462 C454 1.356 . S
N462 H468 0.984 . S
N462 H469 0.984 . S
N463 C456 1.356 . S
N463 H466 0.984 . S
N463 H467 0.985 . S
H464 N459 0.984 . S
H465 N459 0.985 . S
H466 N463 0.984 . S
H467 N463 0.985 . S
H468 N462 0.984 . S
H469 N462 0.984 . S
H470 N458 0.984 . S
H471 N458 0.985 . S
C472 C473 1.363 . S
C472 C478 1.379 . S
C472 N480 1.356 . S
C473 C472 1.363 . S
C473 C479 1.363 1_545 S
C474 C475 1.363 1_565 S
C474 C479 1.379 . S
C474 N481 1.356 . S
C475 C474 1.363 1_545 S
C475 C478 1.363 . S
N476 C478 1.356 . S
N476 H488 0.984 . S
N476 H489 0.985 . S
N477 C479 1.356 . S
N477 H482 0.984 1_556 S
N477 H483 0.985 . S
C478 C472 1.379 . S
C478 C475 1.363 . S
C478 N476 1.356 . S
C479 C473 1.363 1_565 S
C479 C474 1.379 . S
C479 N477 1.356 . S
N480 C472 1.356 . S
N480 H486 0.984 . S
N480 H487 0.984 . S
N481 C474 1.356 . S
N481 H484 0.984 . S
N481 H485 0.985 . S
H482 N477 0.984 1_554 S
H483 N477 0.985 . S
H484 N481 0.984 . S
H485 N481 0.985 . S
H486 N480 0.984 . S
H487 N480 0.984 . S
H488 N476 0.984 . S
H489 N476 0.985 . S
C490 C491 1.363 . S
C490 C496 1.379 . S
C490 N498 1.356 . S
C491 C490 1.363 . S
C491 C497 1.363 . S
C492 C493 1.363 . S
C492 C497 1.379 . S
C492 N499 1.356 . S
C493 C492 1.363 . S
C493 C496 1.363 . S
N494 C496 1.356 . S
N494 H506 0.984 . S
N494 H507 0.985 . S
N495 C497 1.356 . S
N495 H500 0.984 . S
N495 H501 0.985 . S
C496 C490 1.379 . S
C496 C493 1.363 . S
C496 N494 1.356 . S
C497 C491 1.363 . S
C497 C492 1.379 . S
C497 N495 1.356 . S
N498 C490 1.356 . S
N498 H504 0.982 1_556 S
N498 H505 0.984 1_556 S
N499 C492 1.356 . S
N499 H502 0.984 . S
N499 H503 0.985 . S
H500 N495 0.984 . S
H501 N495 0.985 . S
H502 N499 0.984 . S
H503 N499 0.985 . S
H504 N498 0.982 1_554 S
H505 N498 0.984 1_554 S
H506 N494 0.984 . S
H507 N494 0.985 . S
C508 C509 1.363 . S
C508 C514 1.379 . S
C508 N516 1.356 . S
C509 C508 1.363 . S
C509 C515 1.363 . S
C510 C511 1.363 . S
C510 C515 1.379 . S
C510 N517 1.356 . S
C511 C510 1.363 . S
C511 C514 1.363 . S
N512 C514 1.356 . S
N512 H524 0.984 . S
N512 H525 0.985 . S
N513 C515 1.356 . S
N513 H518 0.984 1_556 S
N513 H519 0.985 . S
C514 C508 1.379 . S
C514 C511 1.363 . S
C514 N512 1.356 . S
C515 C509 1.363 . S
C515 C510 1.379 . S
C515 N513 1.356 . S
N516 C508 1.356 . S
N516 H522 0.984 . S
N516 H523 0.984 . S
N517 C510 1.356 . S
N517 H520 0.984 . S
N517 H521 0.985 . S
H518 N513 0.984 1_554 S
H519 N513 0.985 . S
H520 N517 0.984 . S
H521 N517 0.985 . S
H522 N516 0.984 . S
H523 N516 0.984 . S
H524 N512 0.984 . S
H525 N512 0.985 . S
C526 C527 1.363 . S
C526 C532 1.379 . S
C526 N534 1.356 . S
C527 C526 1.363 . S
C527 C533 1.363 . S
C528 C529 1.363 . S
C528 C533 1.379 . S
C528 N535 1.356 . S
C529 C528 1.363 . S
C529 C532 1.363 . S
N530 C532 1.356 . S
N530 H542 0.984 . S
N530 H543 0.985 . S
N531 C533 1.356 . S
N531 H536 0.984 1_556 S
N531 H537 0.985 1_556 S
C532 C526 1.379 . S
C532 C529 1.363 . S
C532 N530 1.356 . S
C533 C527 1.363 . S
C533 C528 1.379 . S
C533 N531 1.356 . S
N534 C526 1.356 . S
N534 H540 0.984 . S
N534 H541 0.984 . S
N535 C528 1.356 . S
N535 H538 0.984 . S
N535 H539 0.985 . S
H536 N531 0.984 1_554 S
H537 N531 0.985 1_554 S
H538 N535 0.984 . S
H539 N535 0.985 . S
H540 N534 0.984 . S
H541 N534 0.984 . S
H542 N530 0.984 . S
H543 N530 0.985 . S
C544 C545 1.363 . S
C544 C550 1.379 . S
C544 N552 1.356 . S
C545 C544 1.363 . S
C545 C551 1.363 . S
C546 C547 1.363 . S
C546 C551 1.379 . S
C546 N553 1.356 . S
C547 C546 1.363 . S
C547 C550 1.363 . S
N548 C550 1.356 . S
N548 H560 0.984 . S
N548 H561 0.985 . S
N549 C551 1.356 . S
N549 H554 0.984 . S
N549 H555 0.985 . S
C550 C544 1.379 . S
C550 C547 1.363 . S
C550 N548 1.356 . S
C551 C545 1.363 . S
C551 C546 1.379 . S
C551 N549 1.356 . S
N552 C544 1.356 . S
N552 H558 0.984 . S
N552 H559 0.984 . S
N553 C546 1.356 . S
N553 H556 0.984 . S
N553 H557 0.985 . S
H554 N549 0.984 . S
H555 N549 0.985 . S
H556 N553 0.984 . S
H557 N553 0.985 . S
H558 N552 0.984 . S
H559 N552 0.984 . S
H560 N548 0.984 . S
H561 N548 0.985 . S
C562 C563 1.363 1_565 S
C562 C568 1.379 . S
C562 N570 1.356 . S
C563 C562 1.363 1_545 S
C563 C569 1.363 . S
C564 C565 1.363 . S
C564 C569 1.379 . S
C564 N571 1.356 . S
C565 C564 1.363 . S
C565 C568 1.363 1_545 S
N566 C568 1.356 . S
N566 H578 0.984 . S
N566 H579 0.985 . S
N567 C569 1.356 . S
N567 H572 0.984 . S
N567 H573 0.985 . S
C568 C562 1.379 . S
C568 C565 1.363 1_565 S
C568 N566 1.356 . S
C569 C563 1.363 . S
C569 C564 1.379 . S
C569 N567 1.356 . S
N570 C562 1.356 . S
N570 H576 0.984 . S
N570 H577 0.984 . S
N571 C564 1.356 . S
N571 H574 0.984 . S
N571 H575 0.985 . S
H572 N567 0.984 . S
H573 N567 0.985 . S
H574 N571 0.984 . S
H575 N571 0.985 . S
H576 N570 0.984 . S
H577 N570 0.984 . S
H578 N566 0.984 . S
H579 N566 0.985 . S
C580 C581 1.363 . S
C580 C586 1.379 . S
C580 N588 1.356 . S
C581 C580 1.363 . S
C581 C587 1.363 . S
C582 C583 1.363 . S
C582 C587 1.379 . S
C582 N589 1.356 . S
C583 C582 1.363 . S
C583 C586 1.363 . S
N584 C586 1.356 . S
N584 H596 0.984 . S
N584 H597 0.985 . S
N585 C587 1.356 . S
N585 H590 0.984 . S
N585 H591 0.985 . S
C586 C580 1.379 . S
C586 C583 1.363 . S
C586 N584 1.356 . S
C587 C581 1.363 . S
C587 C582 1.379 . S
C587 N585 1.356 . S
N588 C580 1.356 . S
N588 H594 0.984 . S
N588 H595 0.984 . S
N589 C582 1.356 . S
N589 H592 0.984 . S
N589 H593 0.985 . S
H590 N585 0.984 . S
H591 N585 0.985 . S
H592 N589 0.984 . S
H593 N589 0.985 . S
H594 N588 0.984 . S
H595 N588 0.984 . S
H596 N584 0.984 . S
H597 N584 0.985 . S
C598 C599 1.363 . S
C598 C604 1.379 . S
C598 N606 1.356 . S
C599 C598 1.363 . S
C599 C605 1.363 . S
C600 C601 1.363 . S
C600 C605 1.379 . S
C600 N607 1.356 . S
C601 C600 1.363 . S
C601 C604 1.363 . S
N602 C604 1.356 . S
N602 H614 0.984 . S
N602 H615 0.985 . S
N603 C605 1.356 . S
N603 H608 0.984 . S
N603 H609 0.985 . S
C604 C598 1.379 . S
C604 C601 1.363 . S
C604 N602 1.356 . S
C605 C599 1.363 . S
C605 C600 1.379 . S
C605 N603 1.356 . S
N606 C598 1.356 . S
N606 H612 0.984 . S
N606 H613 0.984 . S
N607 C600 1.356 . S
N607 H610 0.984 . S
N607 H611 0.985 . S
H608 N603 0.984 . S
H609 N603 0.985 . S
H610 N607 0.984 . S
H611 N607 0.985 . S
H612 N606 0.984 . S
H613 N606 0.984 . S
H614 N602 0.984 . S
H615 N602 0.985 . S
C616 C617 1.363 . S
C616 C622 1.379 . S
C616 N624 1.356 . S
C617 C616 1.363 . S
C617 C623 1.363 . S
C618 C619 1.363 . S
C618 C623 1.379 . S
C618 N625 1.356 . S
C619 C618 1.363 . S
C619 C622 1.363 . S
N620 C622 1.356 . S
N620 H632 0.984 . S
N620 H633 0.985 . S
N621 C623 1.356 . S
N621 H626 0.984 . S
N621 H627 0.985 . S
C622 C616 1.379 . S
C622 C619 1.363 . S
C622 N620 1.356 . S
C623 C617 1.363 . S
C623 C618 1.379 . S
C623 N621 1.356 . S
N624 C616 1.356 . S
N624 H630 0.984 . S
N624 H631 0.984 . S
N625 C618 1.356 . S
N625 H628 0.984 . S
N625 H629 0.985 . S
H626 N621 0.984 . S
H627 N621 0.985 . S
H628 N625 0.984 . S
H629 N625 0.985 . S
H630 N624 0.984 . S
H631 N624 0.984 . S
H632 N620 0.984 . S
H633 N620 0.985 . S
C634 C635 1.379 . S
C634 C640 1.379 . S
C634 N642 1.356 . S
C635 C634 1.379 . S
C635 C641 1.353 1_545 S
C636 C637 1.363 1_565 S
C636 C641 1.379 . S
C636 N643 1.356 . S
C637 C636 1.363 1_545 S
C637 C640 1.363 . S
N638 C640 1.356 . S
N638 H650 0.984 . S
N638 H651 0.985 . S
N639 C641 1.356 . S
N639 H644 0.984 . S
N639 H645 0.985 . S
C640 C634 1.379 . S
C640 C637 1.363 . S
C640 N638 1.356 . S
C641 C635 1.353 1_565 S
C641 C636 1.379 . S
C641 N639 1.356 . S
N642 C634 1.356 . S
N642 H648 0.984 . S
N642 H649 0.984 . S
N643 C636 1.356 . S
N643 H646 0.984 . S
N643 H647 0.985 . S
H644 N639 0.984 . S
H645 N639 0.985 . S
H646 N643 0.984 . S
H647 N643 0.985 . S
H648 N642 0.984 . S
H649 N642 0.984 . S
H650 N638 0.984 . S
H651 N638 0.985 . S
C652 C653 1.363 . S
C652 C658 1.379 . S
C652 N660 1.356 . S
C653 C652 1.363 . S
C653 C659 1.363 . S
C654 C655 1.363 . S
C654 C659 1.379 . S
C654 N661 1.356 . S
C655 C654 1.363 . S
C655 C658 1.363 . S
N656 C658 1.356 . S
N656 H668 0.984 . S
N656 H669 0.985 . S
N657 C659 1.356 . S
N657 H662 0.984 . S
N657 H663 0.985 . S
C658 C652 1.379 . S
C658 C655 1.363 . S
C658 N656 1.356 . S
C659 C653 1.363 . S
C659 C654 1.379 . S
C659 N657 1.356 . S
N660 C652 1.356 . S
N660 H666 0.984 . S
N660 H667 0.984 . S
N661 C654 1.356 . S
N661 H664 0.984 . S
N661 H665 0.985 . S
H662 N657 0.984 . S
H663 N657 0.985 . S
H664 N661 0.984 . S
H665 N661 0.985 . S
H666 N660 0.984 . S
H667 N660 0.984 . S
H668 N656 0.984 . S
H669 N656 0.985 . S
C670 C671 1.363 . S
C670 C676 1.379 . S
C670 N678 1.356 . S
C671 C670 1.363 . S
C671 C677 1.363 . S
C672 C673 1.363 . S
C672 C677 1.379 . S
C672 N679 1.356 . S
C673 C672 1.363 . S
C673 C676 1.363 . S
N674 C676 1.356 . S
N674 H686 0.984 . S
N674 H687 0.985 . S
N675 C677 1.356 . S
N675 H680 0.984 . S
N675 H681 0.985 . S
C676 C670 1.379 . S
C676 C673 1.363 . S
C676 N674 1.356 . S
C677 C671 1.363 . S
C677 C672 1.379 . S
C677 N675 1.356 . S
N678 C670 1.356 . S
N678 H684 0.984 . S
N678 H685 0.984 . S
N679 C672 1.356 . S
N679 H682 0.984 . S
N679 H683 0.985 . S
H680 N675 0.984 . S
H681 N675 0.985 . S
H682 N679 0.984 . S
H683 N679 0.985 . S
H684 N678 0.984 . S
H685 N678 0.984 . S
H686 N674 0.984 . S
H687 N674 0.985 . S
C688 C689 1.363 . S
C688 C694 1.379 . S
C688 N696 1.356 . S
C689 C688 1.363 . S
C689 C695 1.363 . S
C690 C691 1.363 . S
C690 C695 1.379 . S
C690 N697 1.356 . S
C691 C690 1.363 . S
C691 C694 1.363 . S
N692 C694 1.356 . S
N692 H704 0.984 . S
N692 H705 0.985 . S
N693 C695 1.356 . S
N693 H698 0.984 . S
N693 H699 0.985 . S
C694 C688 1.379 . S
C694 C691 1.363 . S
C694 N692 1.356 . S
C695 C689 1.363 . S
C695 C690 1.379 . S
C695 N693 1.356 . S
N696 C688 1.356 . S
N696 H702 0.984 . S
N696 H703 0.984 . S
N697 C690 1.356 . S
N697 H700 0.984 . S
N697 H701 0.985 . S
H698 N693 0.984 . S
H699 N693 0.985 . S
H700 N697 0.984 . S
H701 N697 0.985 . S
H702 N696 0.984 . S
H703 N696 0.984 . S
H704 N692 0.984 . S
H705 N692 0.985 . S
C706 C707 1.363 . S
C706 C712 1.379 . S
C706 N714 1.356 . S
C707 C706 1.363 . S
C707 C713 1.363 . S
C708 C709 1.363 . S
C708 C713 1.379 . S
C708 N715 1.356 . S
C709 C708 1.363 . S
C709 C712 1.363 . S
N710 C712 1.356 . S
N710 H722 0.984 1_556 S
N710 H723 0.985 . S
N711 C713 1.356 . S
N711 H716 0.984 . S
N711 H717 0.985 . S
C712 C706 1.379 . S
C712 C709 1.363 . S
C712 N710 1.356 . S
C713 C707 1.363 . S
C713 C708 1.379 . S
C713 N711 1.356 . S
N714 C706 1.356 . S
N714 H720 0.984 1_556 S
N714 H721 0.984 . S
N715 C708 1.356 . S
N715 H718 0.984 . S
N715 H719 0.985 . S
H716 N711 0.984 . S
H717 N711 0.985 . S
H718 N715 0.984 . S
H719 N715 0.985 . S
H720 N714 0.984 1_554 S
H721 N714 0.984 . S
H722 N710 0.984 1_554 S
H723 N710 0.985 . S
C724 C725 1.363 . S
C724 C730 1.379 . S
C724 N732 1.356 . S
C725 C724 1.363 . S
C725 C731 1.363 . S
C726 C727 1.363 . S
C726 C731 1.379 . S
C726 N733 1.356 . S
C727 C726 1.363 . S
C727 C730 1.363 . S
N728 C730 1.356 . S
N728 H740 0.984 . S
N728 H741 0.985 . S
N729 C731 1.356 1_554 S
N729 H734 0.984 . S
N729 H735 0.985 . S
C730 C724 1.379 . S
C730 C727 1.363 . S
C730 N728 1.356 . S
C731 C725 1.363 . S
C731 C726 1.379 . S
C731 N729 1.356 1_556 S
N732 C724 1.356 . S
N732 H738 0.984 . S
N732 H739 0.984 . S
N733 C726 1.356 . S
N733 H736 0.984 . S
N733 H737 0.985 1_556 S
H734 N729 0.984 . S
H735 N729 0.985 . S
H736 N733 0.984 . S
H737 N733 0.985 1_554 S
H738 N732 0.984 . S
H739 N732 0.984 . S
H740 N728 0.984 . S
H741 N728 0.985 . S
C742 C743 1.363 . S
C742 C748 1.379 . S
C742 N750 1.356 . S
C743 C742 1.363 . S
C743 C749 1.363 . S
C744 C745 1.363 . S
C744 C749 1.379 . S
C744 N751 1.356 . S
C745 C744 1.363 . S
C745 C748 1.363 . S
N746 C748 1.356 . S
N746 H758 0.984 . S
N746 H759 0.985 . S
N747 C749 1.356 . S
N747 H752 0.984 . S
N747 H753 0.985 . S
C748 C742 1.379 . S
C748 C745 1.363 . S
C748 N746 1.356 . S
C749 C743 1.363 . S
C749 C744 1.379 . S
C749 N747 1.356 . S
N750 C742 1.356 . S
N750 H756 0.984 . S
N750 H757 0.984 . S
N751 C744 1.356 . S
N751 H754 0.984 . S
N751 H755 0.985 . S
H752 N747 0.984 . S
H753 N747 0.985 . S
H754 N751 0.984 . S
H755 N751 0.985 . S
H756 N750 0.984 . S
H757 N750 0.984 . S
H758 N746 0.984 . S
H759 N746 0.985 . S
C760 C761 1.363 . S
C760 C766 1.379 . S
C760 N768 1.356 . S
C761 C760 1.363 . S
C761 C767 1.363 . S
C762 C763 1.363 . S
C762 C767 1.379 . S
C762 N769 1.356 . S
C763 C762 1.363 . S
C763 C766 1.363 . S
N764 C766 1.356 . S
N764 H776 0.984 . S
N764 H777 0.985 . S
N765 C767 1.356 . S
N765 H770 0.984 . S
N765 H771 0.985 . S
C766 C760 1.379 . S
C766 C763 1.363 . S
C766 N764 1.356 . S
C767 C761 1.363 . S
C767 C762 1.379 . S
C767 N765 1.356 . S
N768 C760 1.356 . S
N768 H774 0.984 . S
N768 H775 0.984 . S
N769 C762 1.356 . S
N769 H772 0.984 . S
N769 H773 0.985 . S
H770 N765 0.984 . S
H771 N765 0.985 . S
H772 N769 0.984 . S
H773 N769 0.985 . S
H774 N768 0.984 . S
H775 N768 0.984 . S
H776 N764 0.984 . S
H777 N764 0.985 . S
C778 C779 1.394 . S
C778 C784 1.379 . S
C778 N786 1.356 . S
C779 C778 1.394 . S
C779 C785 1.336 1_545 S
C780 C781 1.363 1_565 S
C780 C785 1.379 . S
C780 N787 1.356 . S
C781 C780 1.363 1_545 S
C781 C784 1.363 . S
N782 C784 1.356 . S
N782 H794 0.984 . S
N782 H795 0.985 . S
N783 C785 1.356 . S
N783 H788 0.984 . S
N783 H789 0.985 . S
C784 C778 1.379 . S
C784 C781 1.363 . S
C784 N782 1.356 . S
C785 C779 1.336 1_565 S
C785 C780 1.379 . S
C785 N783 1.356 . S
N786 C778 1.356 . S
N786 H792 0.984 . S
N786 H793 0.984 . S
N787 C780 1.356 . S
N787 H790 0.984 . S
N787 H791 0.985 . S
H788 N783 0.984 . S
H789 N783 0.985 . S
H790 N787 0.984 . S
H791 N787 0.985 . S
H792 N786 0.984 . S
H793 N786 0.984 . S
H794 N782 0.984 . S
H795 N782 0.985 . S
C796 C797 1.363 . S
C796 C802 1.379 . S
C796 N804 1.356 . S
C797 C796 1.363 . S
C797 C803 1.363 . S
C798 C799 1.363 . S
C798 C803 1.379 . S
C798 N805 1.356 . S
C799 C798 1.363 . S
C799 C802 1.363 . S
N800 C802 1.356 . S
N800 H812 0.984 . S
N800 H813 0.985 . S
N801 C803 1.356 . S
N801 H806 0.984 . S
N801 H807 0.985 . S
C802 C796 1.379 . S
C802 C799 1.363 . S
C802 N800 1.356 . S
C803 C797 1.363 . S
C803 C798 1.379 . S
C803 N801 1.356 . S
N804 C796 1.356 . S
N804 H810 0.984 . S
N804 H811 0.984 . S
N805 C798 1.356 . S
N805 H808 0.984 . S
N805 H809 0.985 . S
H806 N801 0.984 . S
H807 N801 0.985 . S
H808 N805 0.984 . S
H809 N805 0.985 . S
H810 N804 0.984 . S
H811 N804 0.984 . S
H812 N800 0.984 . S
H813 N800 0.985 . S
C814 C815 1.363 . S
C814 C820 1.379 . S
C814 N822 1.356 . S
C815 C814 1.363 . S
C815 C821 1.363 . S
C816 C817 1.363 . S
C816 C821 1.379 . S
C816 N823 1.356 . S
C817 C816 1.363 . S
C817 C820 1.363 . S
N818 C820 1.356 . S
N818 H830 0.984 . S
N818 H831 0.985 . S
N819 C821 1.356 . S
N819 H824 0.984 . S
N819 H825 0.985 . S
C820 C814 1.379 . S
C820 C817 1.363 . S
C820 N818 1.356 . S
C821 C815 1.363 . S
C821 C816 1.379 . S
C821 N819 1.356 . S
N822 C814 1.356 . S
N822 H828 0.984 . S
N822 H829 0.984 . S
N823 C816 1.356 . S
N823 H826 0.984 . S
N823 H827 0.985 . S
H824 N819 0.984 . S
H825 N819 0.985 . S
H826 N823 0.984 . S
H827 N823 0.985 . S
H828 N822 0.984 . S
H829 N822 0.984 . S
H830 N818 0.984 . S
H831 N818 0.985 . S
C401 C255 1.644 . S
C403 C321 1.681 1_545 S
C421 C356 2.559 . S
C419 C295 2.305 . S
C439 C361 1.570 . S
C437 C175 1.552 . S
C457 C381 2.244 . S
C455 C215 2.052 . S
C475 C329 1.680 . S
C473 C95 1.642 1_556 S
C491 C135 2.285 1_556 S
C493 C346 2.559 . S
C509 C15 1.559 . S
C511 C369 1.570 . S
C527 C55 2.033 . S
C529 C389 2.244 . S
C547 C339 2.195 . S
C545 C221 1.937 . S
C565 C348 1.018 1_545 S
C563 C261 0.973 . S
C583 C379 2.300 . S
C581 C301 2.062 . S
C599 C181 1.133 . S
C601 C399 1.307 . S
C617 C61 1.691 . S
C619 C328 2.195 . S
C637 C359 1.018 . S
C635 C101 0.962 . S
C655 C368 2.300 . S
C653 C141 1.793 . S
C671 C21 1.206 . S
C673 C388 1.308 . S
C689 C202 2.351 1_556 S
C691 C326 2.525 . S
C707 C242 2.087 . S
C709 C349 2.304 . S
C727 C366 2.777 . S
C725 C282 2.546 . S
C745 C386 2.423 . S
C743 C162 2.158 . S
C761 C42 2.202 . S
C763 C336 2.524 . S
C781 C341 2.304 . S
C779 C82 2.081 . S
C799 C376 2.778 . S
C797 C122 2.378 . S
C815 C2 2.233 . S
C817 C396 2.423 . S
