# Generated by pormake.
# Topology nia, (6,6)-cn, num edge types: 1
# Building blocks:
#     Node 0, Type 0, BuildingBlock: KUMJIN_clean_sbu_1, # of connection points: 6
#     Node 1, Type 0, BuildingBlock: KUMJIN_clean_sbu_1, # of connection points: 6
#     Node 2, Type 1, BuildingBlock: MIDCAF_clean_sbu_0, # of connection points: 6
#     Node 3, Type 1, BuildingBlock: MIDCAF_clean_sbu_0, # of connection points: 6
#     Edge 4, Type (0, 1), BuildingBlock: XIVTED_clean_linker_0, # of connection points: 2
#     Edge 5, Type (0, 1), BuildingBlock: XIVTED_clean_linker_0, # of connection points: 2
#     Edge 6, Type (0, 1), BuildingBlock: XIVTED_clean_linker_0, # of connection points: 2
#     Edge 7, Type (0, 1), BuildingBlock: XIVTED_clean_linker_0, # of connection points: 2
#     Edge 8, Type (0, 1), BuildingBlock: XIVTED_clean_linker_0, # of connection points: 2
#     Edge 9, Type (0, 1), BuildingBlock: XIVTED_clean_linker_0, # of connection points: 2
#     Edge 10, Type (0, 1), BuildingBlock: XIVTED_clean_linker_0, # of connection points: 2
#     Edge 11, Type (0, 1), BuildingBlock: XIVTED_clean_linker_0, # of connection points: 2
#     Edge 12, Type (0, 1), BuildingBlock: XIVTED_clean_linker_0, # of connection points: 2
#     Edge 13, Type (0, 1), BuildingBlock: XIVTED_clean_linker_0, # of connection points: 2
#     Edge 14, Type (0, 1), BuildingBlock: XIVTED_clean_linker_0, # of connection points: 2
#     Edge 15, Type (0, 1), BuildingBlock: XIVTED_clean_linker_0, # of connection points: 2
# Relax obj value: 0.171
# Max RMSD: 0.279
# Mean RMSD: 0.201
data_MOF--net-nia--node1-KUMJIN_clean_sbu_1--node2-MIDCAF_clean_sbu_0--edge1-XIVTED_clean_linker_0
_symmetry_space_group_name_H-M    P1
_symmetry_Int_Tables_number       1
_symmetry_cell_setting            triclinic
loop_
_symmetry_equiv_pos_as_xyz
'x, y, z'
_cell_length_a     28.449567
_cell_length_b     28.506807
_cell_length_c     31.788302
_cell_angle_alpha  89.83328
_cell_angle_beta   90.284385
_cell_angle_gamma 135.59307
loop_
_atom_site_label
_atom_site_type_symbol
_atom_site_fract_x
_atom_site_fract_y
_atom_site_fract_z
_atom_type_partial_charge
Eu0 Eu 0.04878 -0.00433 0.0399 0.0
C1 C 0.87784 0.92004 0.88587 0.0
N2 N 0.94426 0.97659 0.89069 0.0
C3 C 0.96735 0.95963 0.82322 0.0
C4 C 0.8538 0.87902 0.85009 0.0
C5 C 0.98881 -0.00158 0.85943 0.0
C6 C 0.89968 0.89916 0.81876 0.0
C7 C 0.76426 0.84702 0.91181 0.0
C8 C 0.83389 0.90436 0.91643 0.0
C9 C 0.74023 0.80405 0.87729 0.0
C10 C 0.78491 0.82008 0.84645 0.0
Eu11 Eu 0.97771 0.03774 0.95349 0.0
N12 N 0.85875 0.94742 0.94916 0.0
C13 C 0.7207 0.83589 0.9412 0.0
C14 C 0.81602 0.93987 0.97558 0.0
C15 C 0.74664 0.88328 0.97272 0.0
H16 H 0.04108 0.04509 0.863 0.0
H17 H 0.71317 0.87677 0.99445 0.0
H18 H 0.93871 0.92094 0.12104 0.0
H19 H 0.32015 0.21294 0.04686 0.0
H20 H 0.83497 0.97778 0.99861 0.0
H21 H 0.66688 0.79244 0.9388 0.0
H22 H 0.21191 0.10904 0.01639 0.0
H23 H 0.00304 0.97617 0.79895 0.0
H24 H 0.68699 0.75935 0.87351 0.0
H25 H 0.76552 0.78736 0.81948 0.0
H26 H 0.93008 0.95225 0.19066 0.0
H27 H 0.88323 0.86907 0.79076 0.0
H28 H 0.32171 0.25524 0.11532 0.0
N29 N 0.03701 0.01676 0.10917 0.0
C30 C 0.09339 0.07556 0.12673 0.0
C31 C 0.97593 0.98802 0.17267 0.0
C32 C 0.092 0.09453 0.16728 0.0
C33 C 0.9803 0.97105 0.13269 0.0
C34 C 0.0316 0.05076 0.18964 0.0
N35 N 0.15379 0.09451 0.06671 0.0
C36 C 0.21256 0.12748 0.04628 0.0
C37 C 0.21404 0.17365 0.12383 0.0
C38 C 0.15376 0.11475 0.10533 0.0
C39 C 0.27435 0.20969 0.10218 0.0
C40 C 0.27367 0.18603 0.06347 0.0
H41 H 0.02837 0.06361 0.22077 0.0
H42 H 0.15098 0.17081 0.21576 0.0
H43 H 0.25786 0.24012 0.17768 0.0
O44 O 0.07713 0.94426 0.02289 0.0
O45 O 0.10135 0.1015 0.02372 0.0
O46 O 0.01685 0.09412 0.01519 0.0
O47 O 0.06001 0.94947 0.08787 0.0
O48 O 0.09587 0.02332 0.97496 0.0
O49 O 0.08474 0.08866 0.94264 0.0
O50 O 0.93742 0.07323 0.92527 0.0
O51 O 0.97775 0.95942 0.94205 0.0
O52 O 0.95104 0.90983 0.00615 0.0
O53 O 0.0433 0.1335 0.92063 0.0
O54 O 0.93886 0.01639 0.02076 0.0
O55 O 0.93967 0.94103 0.04657 0.0
C56 C 0.07491 0.12371 0.03152 0.0
C57 C 0.03352 0.85422 0.06742 0.0
C58 C 0.02701 0.77054 0.0967 0.0
C59 C 0.95904 0.71996 0.08437 0.0
C60 C 0.96579 0.80332 0.05541 0.0
C61 C 0.92884 0.73641 0.06378 0.0
C62 C 0.06388 0.83776 0.08788 0.0
C63 C 0.11151 0.06541 0.94543 0.0
C64 C 0.07227 0.92496 0.0612 0.0
C65 C 0.15131 0.15505 0.18488 0.0
C66 C 0.21224 0.19439 0.16328 0.0
C67 C 0.94656 0.906 0.965 0.0
C68 C 0.01152 0.19014 0.92762 0.0
C69 C 0.98723 0.25628 0.92209 0.0
C70 C 0.03181 0.29672 0.95556 0.0
C71 C 0.05613 0.23109 0.96101 0.0
C72 C 0.97792 0.20351 0.90793 0.0
C73 C 0.06647 0.28441 0.97465 0.0
C74 C 0.91611 0.96745 0.04649 0.0
C75 C -0.00374 0.13098 0.91464 0.0
H76 H 0.92896 0.66775 0.09104 0.0
H77 H 0.94146 0.81537 0.04004 0.0
H78 H 0.87649 0.69721 0.05459 0.0
H79 H 0.11647 0.87754 0.09664 0.0
H80 H 0.03943 0.3375 0.96707 0.0
H81 H 0.0823 0.22144 0.97688 0.0
H82 H 0.9424 0.1711 0.88277 0.0
H83 H 0.10059 0.31559 1.00051 0.0
Eu84 Eu 0.02635 0.97005 0.45259 0.0
C85 C 0.06045 0.07892 0.62919 0.0
N86 N 0.00172 0.02666 0.60927 0.0
C87 C 0.96083 0.9601 0.67182 0.0
C88 C 0.07305 0.0722 0.67061 0.0
C89 C 0.95027 0.9699 0.63112 0.0
C90 C 0.02317 0.01089 0.69126 0.0
C91 C 0.1634 0.19802 0.63105 0.0
C92 C 0.10527 0.14116 0.6097 0.0
C93 C 0.17821 0.19056 0.67119 0.0
C94 C 0.13324 0.12772 0.69088 0.0
Eu95 Eu -0.00816 0.04716 0.53904 0.0
N96 N 0.09018 0.1468 0.57064 0.0
C97 C 0.20397 0.26087 0.61177 0.0
C98 C 0.12714 0.20812 0.55269 0.0
C99 C 0.18513 0.26605 0.57271 0.0
H100 H 0.90072 0.93238 0.61742 0.0
H101 H 0.21524 0.31455 0.55803 0.0
H102 H 0.06147 0.05499 0.36537 0.0
H103 H 0.81815 0.70022 0.48409 0.0
H104 H 0.11202 0.21196 0.52273 0.0
H105 H 0.24898 0.30578 0.62718 0.0
H106 H 0.92892 0.81457 0.49605 0.0
H107 H 0.9205 0.91396 0.68846 0.0
H108 H 0.22327 0.23344 0.68779 0.0
H109 H 0.14414 0.12321 0.72247 0.0
H110 H 0.00811 0.03595 0.29702 0.0
H111 H 0.03097 0.00362 0.723 0.0
H112 H 0.75194 0.67443 0.42093 0.0
N113 N 0.9794 0.95531 0.38663 0.0
C114 C 0.91901 0.89268 0.37726 0.0
C115 C 0.98237 -0.00469 0.31934 0.0
C116 C 0.88666 0.87947 0.33868 0.0
C117 C 0.0123 0.00608 0.35809 0.0
C118 C 0.91903 0.93187 0.30969 0.0
N119 N 0.92291 0.85606 0.44302 0.0
C120 C 0.89936 0.80544 0.46967 0.0
C121 C 0.82666 0.77637 0.39766 0.0
C122 C 0.88942 0.84192 0.40657 0.0
C123 C 0.79997 0.72543 0.42662 0.0
C124 C 0.83704 0.73985 0.46241 0.0
H125 H 0.89585 0.92376 0.2797 0.0
H126 H 0.79733 0.80375 0.30107 0.0
H127 H 0.74486 0.71342 0.35262 0.0
O128 O 0.04493 0.9119 0.42982 0.0
O129 O 0.95494 0.98043 0.44071 0.0
O130 O 0.90434 0.95211 0.50424 0.0
O131 O 0.11957 0.01865 0.42021 0.0
O132 O 0.00054 0.92787 0.51932 0.0
O133 O 0.9311 0.93645 0.54518 0.0
O134 O 0.93911 0.07335 0.51861 0.0
O135 O 0.09759 0.09519 0.52756 0.0
O136 O 0.08099 0.00545 0.51489 0.0
O137 O 0.95467 0.07096 0.5846 0.0
O138 O 0.03198 0.10158 0.476 0.0
O139 O 0.09085 0.08193 0.44408 0.0
C140 C 0.90107 0.9505 0.46309 0.0
C141 C 0.15848 0.96893 0.43392 0.0
C142 C 0.21201 0.92922 0.43394 0.0
C143 C 0.25692 0.97733 0.46511 0.0
C144 C 0.20362 0.01561 0.46535 0.0
C145 C 0.25242 0.01971 0.48071 0.0
C146 C 0.16269 0.92561 0.4184 0.0
C147 C 0.95428 0.90974 0.54579 0.0
C148 C 0.10615 0.96435 0.41814 0.0
C149 C 0.8233 0.81474 0.33035 0.0
C150 C 0.79334 0.76336 0.35978 0.0
C151 C 0.116 0.06441 0.53179 0.0
C152 C 0.85714 0.04169 0.56694 0.0
C153 C 0.78242 0.04194 0.60425 0.0
C154 C 0.72948 0.97201 0.59827 0.0
C155 C 0.80398 0.9722 0.56138 0.0
C156 C 0.84597 0.07633 0.58753 0.0
C157 C 0.74021 0.93771 0.5766 0.0
C158 C 0.07669 0.11692 0.44917 0.0
C159 C 0.92629 0.07766 0.55685 0.0
H160 H 0.29654 0.9832 0.47715 0.0
H161 H 0.20134 0.04915 0.47802 0.0
H162 H 0.28724 0.05624 0.50474 0.0
H163 H 0.12705 0.88875 0.39472 0.0
H164 H 0.6801 0.94332 0.6111 0.0
H165 H 0.81225 0.94459 0.54636 0.0
H166 H 0.88763 0.13017 0.59105 0.0
H167 H 0.69935 0.88392 0.57256 0.0
Zn168 Zn 0.3761 0.67117 0.17223 0.0
Zn169 Zn 0.36281 0.65042 0.39503 0.0
Zn170 Zn 0.36801 0.65943 0.24692 0.0
C171 C 0.46699 0.72186 0.31625 0.0
C172 C 0.30956 0.55541 0.31193 0.0
O173 O 0.3152 0.68812 0.23099 0.0
O174 O 0.30877 0.67304 0.16233 0.0
C175 C 0.50693 0.7662 0.19732 0.0
O176 O 0.46636 0.72375 0.276 0.0
O177 O 0.41014 0.68473 0.33475 0.0
O178 O 0.33878 0.60875 0.33299 0.0
O179 O 0.31201 0.56039 0.27174 0.0
O180 O 0.47281 0.75481 0.16582 0.0
O181 O 0.47686 0.73287 0.23155 0.0
O182 O 0.31245 0.55727 0.22682 0.0
O183 O 0.34745 0.58499 0.16107 0.0
C184 C 0.31624 0.54167 0.19002 0.0
O185 O 0.32298 0.68881 0.27494 0.0
O186 O 0.34343 0.66913 0.33521 0.0
C187 C 0.29318 0.68514 0.19457 0.0
C188 C 0.32065 0.68872 0.31522 0.0
Zn189 Zn 0.62361 0.33476 0.82722 0.0
Zn190 Zn 0.6853 0.38155 0.67006 0.0
Zn191 Zn 0.65458 0.36556 0.75134 0.0
C192 C 0.75068 0.50745 0.70353 0.0
C193 C 0.54556 0.29466 0.67695 0.0
O194 O 0.69707 0.32934 0.77872 0.0
O195 O 0.67334 0.31539 0.84641 0.0
C196 C 0.69714 0.47103 0.81917 0.0
O197 O 0.72123 0.47371 0.73773 0.0
O198 O 0.74359 0.47904 0.67014 0.0
O199 O 0.59048 0.31903 0.64989 0.0
O200 O 0.56044 0.30768 0.71631 0.0
O201 O 0.6592 0.42196 0.84409 0.0
O202 O 0.7064 0.46212 0.78161 0.0
O203 O 0.5432 0.2951 0.75931 0.0
O204 O 0.52632 0.25836 0.82433 0.0
C205 C 0.50312 0.25624 0.78975 0.0
O206 O 0.69682 0.32549 0.73459 0.0
O207 O 0.72774 0.34972 0.66769 0.0
C208 C 0.70135 0.31488 0.81615 0.0
C209 C 0.72204 0.32347 0.70182 0.0
H210 H 0.11934 0.8371 0.16149 0.0
H211 H 0.17679 0.60077 0.15158 0.0
H212 H 0.01022 0.66508 0.07994 0.0
H213 H 0.30464 0.7839 0.2235 0.0
H214 H 0.10528 0.61622 0.13337 0.0
H215 H 0.17881 0.81216 0.19177 0.0
C216 C 0.10778 0.79407 0.14995 0.0
C217 C 0.06001 0.75347 0.11777 0.0
C218 C 0.14846 0.65284 0.1535 0.0
C219 C 0.12726 0.72424 0.15278 0.0
C220 C 0.18913 0.6439 0.16398 0.0
C221 C 0.2462 0.69099 0.18919 0.0
C222 C 0.1655 0.71 0.16779 0.0
C223 C 0.26044 0.74616 0.20435 0.0
C224 C 0.1415 0.7797 0.16746 0.0
C225 C 0.04609 0.69753 0.10484 0.0
N226 N 0.22052 0.75453 0.19312 0.0
N227 N 0.07979 0.68489 0.1222 0.0
H228 H 0.22139 0.19679 0.55181 0.0
H229 H 0.47302 0.18608 0.62594 0.0
H230 H 0.15117 0.00439 0.56522 0.0
H231 H 0.463 0.30945 0.69369 0.0
H232 H 0.36279 0.12455 0.59435 0.0
H233 H 0.31974 0.24732 0.59491 0.0
C234 C 0.22602 0.16503 0.56448 0.0
C235 C 0.17701 0.09606 0.55612 0.0
C236 C 0.38438 0.16441 0.61665 0.0
C237 C 0.29088 0.15394 0.6031 0.0
C238 C 0.44693 0.19938 0.63453 0.0
C239 C 0.47625 0.25225 0.66249 0.0
C240 C 0.35253 0.1843 0.62574 0.0
C241 C 0.44123 0.26831 0.67257 0.0
C242 C 0.28225 0.19391 0.58874 0.0
C243 C 0.18745 0.05774 0.57127 0.0
N244 N 0.38147 0.23521 0.65351 0.0
N245 N 0.24374 0.08736 0.59371 0.0
H246 H 0.2094 0.23376 0.03575 0.0
H247 H 0.186 0.42327 0.2051 0.0
H248 H 0.02206 0.14714 0.08846 0.0
H249 H 0.36961 0.50708 0.14769 0.0
H250 H 0.12594 0.31536 0.17106 0.0
H251 H 0.26974 0.32949 0.08297 0.0
C252 C 0.18112 0.23511 0.05743 0.0
C253 C 0.11101 0.18279 0.05853 0.0
C254 C 0.17963 0.35699 0.16666 0.0
C255 C 0.17926 0.29218 0.11246 0.0
C256 C 0.21395 0.4181 0.18659 0.0
C257 C 0.2827 0.47351 0.17933 0.0
C258 C 0.21462 0.35203 0.13926 0.0
C259 C 0.31648 0.46524 0.15401 0.0
C260 C 0.21544 0.28964 0.08441 0.0
C261 C 0.07635 0.18698 0.08668 0.0
N262 N 0.28204 0.40587 0.13461 0.0
N263 N 0.11088 0.24089 0.11264 0.0
H264 H 0.6679 0.01476 0.60966 0.0
H265 H 0.83704 0.364 0.67534 0.0
H266 H 0.87323 0.15423 0.65436 0.0
H267 H 0.64131 0.19401 0.72595 0.0
H268 H 0.853 0.29148 0.66127 0.0
H269 H 0.65522 0.08071 0.64569 0.0
C270 C 0.71013 0.05848 0.62734 0.0
C271 C 0.77218 0.0791 0.62816 0.0
C272 C 0.80721 0.27048 0.6763 0.0
C273 C 0.758 0.15562 0.66839 0.0
C274 C 0.79817 0.31165 0.68431 0.0
C275 C 0.73797 0.28459 0.70189 0.0
C276 C 0.7545 0.20153 0.68432 0.0
C277 C 0.6886 0.21647 0.71263 0.0
C278 C 0.70269 0.0961 0.64784 0.0
C279 C 0.82514 0.13727 0.65128 0.0
N280 N 0.69717 0.17661 0.70264 0.0
N281 N 0.81725 0.1742 0.66973 0.0
H282 H 0.82651 0.84537 0.08599 0.0
H283 H 0.58292 0.74669 0.22549 0.0
H284 H 0.88371 0.03168 0.07543 0.0
H285 H 0.59361 0.8817 0.15243 0.0
H286 H 0.69209 0.80067 0.19691 0.0
H287 H 0.73725 0.80405 0.13451 0.0
C288 C 0.82093 0.87798 0.09441 0.0
C289 C 0.86277 0.94215 0.07672 0.0
C290 C 0.67082 0.81888 0.18747 0.0
C291 C 0.7608 0.89533 0.13243 0.0
C292 C 0.60925 0.789 0.20442 0.0
C293 C 0.57931 0.80968 0.19104 0.0
C294 C 0.70216 0.86957 0.15701 0.0
C295 C 0.61501 0.86414 0.16331 0.0
C296 C 0.77029 0.85457 0.12244 0.0
C297 C 0.85238 0.98173 0.08812 0.0
N298 N 0.67431 0.89187 0.14694 0.0
N299 N 0.8019 0.95735 0.1148 0.0
H300 H 0.83034 0.82121 0.58317 0.0
H301 H 0.88342 0.60895 0.68798 0.0
H302 H 0.01751 0.87861 0.57963 0.0
H303 H 0.70589 0.56556 0.70755 0.0
H304 H 0.93922 0.71695 0.65728 0.0
H305 H 0.78775 0.73448 0.63488 0.0
C306 C 0.86265 0.81588 0.59358 0.0
C307 C 0.92756 0.85715 0.57715 0.0
C308 C 0.88869 0.68484 0.66923 0.0
C309 C 0.87902 0.75767 0.63597 0.0
C310 C 0.85723 0.62361 0.68726 0.0
C311 C 0.79042 0.57899 0.70054 0.0
C312 C 0.85226 0.70062 0.66335 0.0
C313 C 0.75786 0.59927 0.6981 0.0
C314 C 0.83839 0.76649 0.62316 0.0
C315 C 0.96696 0.84753 0.59125 0.0
N316 N 0.78864 0.65816 0.67895 0.0
N317 N 0.94196 0.79862 0.61964 0.0
H318 H 0.191 0.88153 0.35312 0.0
H319 H 0.3452 0.7366 0.39626 0.0
H320 H 0.24772 0.8743 0.47735 0.0
H321 H 0.23666 0.69545 0.28333 0.0
H322 H 0.31198 0.78861 0.42687 0.0
H323 H 0.20952 0.81537 0.32666 0.0
C324 C 0.20658 0.86558 0.37503 0.0
C325 C 0.21829 0.8845 0.41761 0.0
C326 C 0.29529 0.76801 0.39538 0.0
C327 C 0.24107 0.80939 0.38709 0.0
C328 C 0.31405 0.7381 0.378 0.0
C329 C 0.29507 0.71316 0.3367 0.0
C330 C 0.25751 0.7732 0.37122 0.0
C331 C 0.25452 0.71631 0.31458 0.0
C332 C 0.21759 0.82801 0.35978 0.0
C333 C 0.23952 0.86268 0.44411 0.0
N334 N 0.23772 0.74631 0.33183 0.0
N335 N 0.25073 0.82697 0.4284 0.0
H336 H 0.15184 0.00532 0.9261 0.0
H337 H 0.44154 0.29578 0.77384 0.0
H338 H 0.17834 0.16869 0.88854 0.0
H339 H 0.40267 0.12391 0.80635 0.0
H340 H 0.33146 0.23889 0.8022 0.0
H341 H 0.23151 0.0385 0.87235 0.0
C342 C 0.1746 0.04838 0.90662 0.0
C343 C 0.15938 0.08509 0.91246 0.0
C344 C 0.34596 0.21263 0.80185 0.0
C345 C 0.25076 0.12333 0.85036 0.0
C346 C 0.40827 0.24467 0.78496 0.0
C347 C 0.43081 0.21429 0.78797 0.0
C348 C 0.30691 0.15038 0.82209 0.0
C349 C 0.38681 0.14883 0.80361 0.0
C350 C 0.21969 0.06696 0.87556 0.0
C351 C 0.1893 0.13947 0.88552 0.0
N352 N 0.32752 0.11957 0.82088 0.0
N353 N 0.23427 0.15752 0.85599 0.0
H354 H 0.0391 0.13516 0.37738 0.0
H355 H 0.32719 0.53473 0.39256 0.0
H356 H 0.19942 0.2408 0.4684 0.0
H357 H 0.2165 0.42955 0.27823 0.0
H358 H 0.2738 0.42754 0.42454 0.0
H359 H 0.09722 0.24245 0.34313 0.0
C360 C 0.08713 0.18105 0.38966 0.0
C361 C 0.1152 0.17954 0.42526 0.0
C362 C 0.26135 0.42805 0.39241 0.0
C363 C 0.18071 0.3023 0.38742 0.0
C364 C 0.29142 0.48911 0.37426 0.0
C365 C 0.27629 0.49111 0.33259 0.0
C366 C 0.21492 0.36841 0.36898 0.0
C367 C 0.22992 0.43043 0.31028 0.0
C368 C 0.1201 0.24218 0.37032 0.0
C369 C 0.17674 0.24019 0.44066 0.0
N370 N 0.20061 0.37164 0.32877 0.0
N371 N 0.20722 0.29928 0.4219 0.0
H372 H 0.90812 0.26076 0.96451 0.0
H373 H 0.81128 0.3573 0.77465 0.0
H374 H 0.97257 0.2712 0.83923 0.0
H375 H 0.68009 0.23877 0.88005 0.0
H376 H 0.88018 0.33909 0.79709 0.0
H377 H 0.83567 0.27016 0.93493 0.0
C378 C 0.90737 0.2657 0.93076 0.0
C379 C 0.94628 0.26548 0.9042 0.0
C380 C 0.83563 0.31633 0.81475 0.0
C381 C 0.8637 0.27608 0.87017 0.0
C382 C 0.7959 0.32593 0.80168 0.0
C383 C 0.73946 0.29877 0.8252 0.0
C384 C 0.81948 0.28104 0.85213 0.0
C385 C 0.72339 0.26094 0.8611 0.0
C386 C 0.86568 0.27043 0.91388 0.0
C387 C 0.94301 0.27112 0.86061 0.0
N388 N 0.76359 0.25389 0.87372 0.0
N389 N 0.90264 0.27675 0.84482 0.0
H390 H 0.8844 0.97385 0.38359 0.0
H391 H 0.48291 0.7069 0.39899 0.0
H392 H 0.77292 0.85543 0.49433 0.0
H393 H 0.59578 0.81996 0.28717 0.0
H394 H 0.58829 0.76347 0.43555 0.0
H395 H 0.77913 0.91948 0.34841 0.0
C396 C 0.83769 0.93616 0.40047 0.0
C397 C 0.83749 0.91883 0.44186 0.0
C398 C 0.59 0.77595 0.40301 0.0
C399 C 0.71638 0.8571 0.40204 0.0
C400 C 0.52982 0.74387 0.38217 0.0
C401 C 0.53038 0.75832 0.33979 0.0
C402 C 0.65132 0.82304 0.38138 0.0
C403 C 0.59276 0.80649 0.31959 0.0
C404 C 0.77752 0.90536 0.38044 0.0
C405 C 0.77547 0.8706 0.46247 0.0
N406 N 0.65053 0.83693 0.34049 0.0
N407 N 0.71746 0.84138 0.44235 0.0
H408 H 0.83684 0.77961 0.99277 0.0
H409 H 0.81195 0.59653 0.78987 0.0
H410 H 0.97407 0.88763 0.88855 0.0
H411 H 0.66054 0.49707 0.88636 0.0
H412 H 0.87269 0.70438 0.82418 0.0
H413 H 0.77356 0.67467 0.95431 0.0
C414 C 0.85371 0.78103 0.96186 0.0
C415 C 0.91017 0.84204 0.94358 0.0
C416 C 0.82582 0.65884 0.83753 0.0
C417 C 0.83824 0.72279 0.89923 0.0
C418 C 0.79091 0.59745 0.81772 0.0
C419 C 0.73127 0.53774 0.8353 0.0
C420 C 0.80089 0.66004 0.87522 0.0
C421 C 0.70677 0.54173 0.8719 0.0
C422 C 0.81741 0.72134 0.93973 0.0
C423 C 0.93001 0.84146 0.90339 0.0
N424 N 0.74185 0.60159 0.89073 0.0
N425 N 0.8941 0.78272 0.8825 0.0
loop_
_geom_bond_atom_site_label_1
_geom_bond_atom_site_label_2
_geom_bond_distance
_geom_bond_site_symmetry_2
_ccdc_geom_bond_type
Eu0 N29 2.600 . S
Eu0 N35 2.562 1_565 S
Eu0 O44 2.462 . S
Eu0 O45 2.373 1_565 S
Eu0 O47 2.432 . S
Eu0 O48 2.291 1_564 S
Eu0 O52 2.323 1_454 S
Eu0 O55 2.372 1_455 S
Eu0 C64 2.787 . S
C1 N2 1.365 1_665 S
C1 C4 1.405 . S
C1 C8 1.448 . S
N2 C1 1.365 1_445 S
N2 C5 1.319 . S
N2 Eu11 2.600 1_455 S
C3 C5 1.397 . S
C3 C6 1.367 . S
C3 H23 0.931 . S
C4 C1 1.405 . S
C4 C6 1.403 1_665 S
C4 C10 1.439 . S
C5 N2 1.319 . S
C5 C3 1.397 . S
C5 H16 0.930 . S
C6 C3 1.367 . S
C6 C4 1.403 1_445 S
C6 H27 0.929 . S
C7 C8 1.430 . S
C7 C9 1.387 . S
C7 C13 1.404 . S
C8 C1 1.448 . S
C8 C7 1.430 . S
C8 N12 1.351 . S
C9 C7 1.387 . S
C9 C10 1.374 . S
C9 H24 0.931 . S
C10 C4 1.439 . S
C10 C9 1.374 . S
C10 H25 0.931 . S
Eu11 N2 2.600 1_655 S
Eu11 N12 2.562 1_545 S
Eu11 O46 2.335 1_656 S
Eu11 O49 2.372 1_655 S
Eu11 O50 2.462 . S
Eu11 O51 2.373 1_545 S
Eu11 O53 2.432 1_655 S
Eu11 O54 2.291 1_546 S
Eu11 C75 2.787 . S
N12 C8 1.351 . S
N12 Eu11 2.562 1_565 S
N12 C14 1.325 . S
C13 C7 1.404 . S
C13 C15 1.366 . S
C13 H21 0.930 . S
C14 N12 1.325 . S
C14 C15 1.416 . S
C14 H20 0.929 . S
C15 C13 1.366 . S
C15 C14 1.416 . S
C15 H17 0.930 . S
H16 C5 0.930 . S
H17 C15 0.930 . S
H18 C33 0.930 . S
H19 C40 0.930 . S
H20 C14 0.929 . S
H21 C13 0.930 . S
H22 C36 0.929 . S
H23 C3 0.931 . S
H24 C9 0.931 . S
H25 C10 0.931 . S
H26 C31 0.931 . S
H27 C6 0.929 . S
H28 C39 0.930 . S
N29 Eu0 2.600 . S
N29 C30 1.365 1_565 S
N29 C33 1.319 1_455 S
C30 N29 1.365 1_545 S
C30 C32 1.405 . S
C30 C38 1.448 . S
C31 H26 0.931 . S
C31 C33 1.397 . S
C31 C34 1.367 1_565 S
C32 C30 1.405 . S
C32 C34 1.403 1_455 S
C32 C65 1.439 . S
C33 H18 0.930 . S
C33 N29 1.319 1_655 S
C33 C31 1.397 . S
C34 C31 1.367 1_545 S
C34 C32 1.403 1_655 S
C34 H41 0.929 . S
N35 Eu0 2.562 1_545 S
N35 C36 1.325 . S
N35 C38 1.351 . S
C36 H22 0.929 . S
C36 N35 1.325 . S
C36 C40 1.416 . S
C37 C38 1.430 . S
C37 C39 1.404 . S
C37 C66 1.387 . S
C38 C30 1.448 . S
C38 N35 1.351 . S
C38 C37 1.430 . S
C39 H28 0.930 . S
C39 C37 1.404 . S
C39 C40 1.366 . S
C40 H19 0.930 . S
C40 C36 1.416 . S
C40 C39 1.366 . S
H41 C34 0.929 . S
H42 C65 0.931 . S
H43 C66 0.931 . S
O44 Eu0 2.462 . S
O44 C64 1.252 . S
O45 Eu0 2.373 1_545 S
O45 C56 1.249 . S
O46 Eu11 2.335 1_454 S
O46 C56 1.264 . S
O47 Eu0 2.432 . S
O47 C64 1.268 . S
O48 Eu0 2.291 1_546 S
O48 C63 1.255 . S
O49 Eu11 2.372 1_455 S
O49 C63 1.257 . S
O50 Eu11 2.462 . S
O50 C75 1.252 . S
O51 Eu11 2.373 1_565 S
O51 C67 1.249 . S
O52 Eu0 2.323 1_656 S
O52 C67 1.278 . S
O53 Eu11 2.432 1_455 S
O53 C75 1.268 1_455 S
O54 Eu11 2.291 1_564 S
O54 C74 1.255 . S
O55 Eu0 2.372 1_655 S
O55 C74 1.257 . S
C56 O45 1.249 . S
C56 O46 1.264 . S
C57 C60 1.382 . S
C57 C62 1.390 . S
C57 C64 1.506 . S
C58 C59 1.398 . S
C58 C62 1.392 . S
C59 C58 1.398 . S
C59 C61 1.372 . S
C59 H76 0.931 . S
C60 C57 1.382 . S
C60 C61 1.390 . S
C60 H77 0.931 1_455 S
C61 C59 1.372 . S
C61 C60 1.390 . S
C61 H78 0.929 . S
C62 C57 1.390 . S
C62 C58 1.392 . S
C62 H79 0.930 . S
C63 O48 1.255 . S
C63 O49 1.257 . S
C64 Eu0 2.787 . S
C64 O44 1.252 . S
C64 O47 1.268 . S
C64 C57 1.506 . S
C65 C32 1.439 . S
C65 H42 0.931 . S
C65 C66 1.374 . S
C66 C37 1.387 . S
C66 H43 0.931 . S
C66 C65 1.374 . S
C67 O51 1.249 . S
C67 O52 1.278 . S
C68 C71 1.382 . S
C68 C72 1.390 . S
C68 C75 1.506 . S
C69 C70 1.398 . S
C69 C72 1.392 . S
C70 C69 1.398 . S
C70 C73 1.372 . S
C70 H80 0.931 . S
C71 C68 1.382 . S
C71 C73 1.390 . S
C71 H81 0.931 1_655 S
C72 C68 1.390 . S
C72 C69 1.392 . S
C72 H82 0.930 . S
C73 C70 1.372 . S
C73 C71 1.390 . S
C73 H83 0.929 1_655 S
C74 O54 1.255 . S
C74 O55 1.257 . S
C75 Eu11 2.787 . S
C75 O50 1.252 . S
C75 O53 1.268 1_655 S
C75 C68 1.506 . S
H76 C59 0.931 . S
H77 C60 0.931 1_655 S
H78 C61 0.929 . S
H79 C62 0.930 . S
H80 C70 0.931 . S
H81 C71 0.931 1_455 S
H82 C72 0.930 . S
H83 C73 0.929 1_455 S
Eu84 N113 2.600 1_565 S
Eu84 N119 2.562 1_455 S
Eu84 O128 2.462 . S
Eu84 O129 2.373 1_455 S
Eu84 O131 2.432 1_565 S
Eu84 O132 2.291 1_455 S
Eu84 O136 2.335 1_565 S
Eu84 O139 2.372 1_565 S
Eu84 C148 2.787 . S
C85 N86 1.365 . S
C85 C88 1.405 . S
C85 C92 1.448 . S
N86 C85 1.365 . S
N86 C89 1.319 1_445 S
N86 Eu95 2.600 1_455 S
C87 C89 1.397 . S
C87 C90 1.367 1_665 S
C87 H107 0.931 . S
C88 C85 1.405 . S
C88 C90 1.403 . S
C88 C94 1.439 . S
C89 N86 1.319 1_665 S
C89 C87 1.397 . S
C89 H100 0.930 . S
C90 C87 1.367 1_445 S
C90 C88 1.403 . S
C90 H111 0.929 . S
C91 C92 1.430 . S
C91 C93 1.387 . S
C91 C97 1.404 . S
C92 C85 1.448 . S
C92 C91 1.430 . S
C92 N96 1.351 . S
C93 C91 1.387 . S
C93 C94 1.374 . S
C93 H108 0.931 . S
C94 C88 1.439 . S
C94 C93 1.374 . S
C94 H109 0.931 . S
Eu95 N86 2.600 1_655 S
Eu95 N96 2.562 1_655 S
Eu95 O130 2.335 1_545 S
Eu95 O133 2.372 1_545 S
Eu95 O134 2.462 . S
Eu95 O135 2.373 1_655 S
Eu95 O137 2.432 . S
Eu95 O138 2.291 1_655 S
Eu95 C159 2.787 . S
N96 C92 1.351 . S
N96 Eu95 2.562 1_455 S
N96 C98 1.325 . S
C97 C91 1.404 . S
C97 C99 1.366 . S
C97 H105 0.930 . S
C98 N96 1.325 . S
C98 C99 1.416 . S
C98 H104 0.929 . S
C99 C97 1.366 . S
C99 C98 1.416 . S
C99 H101 0.930 . S
H100 C89 0.930 . S
H101 C99 0.930 . S
H102 C117 0.930 . S
H103 C124 0.930 . S
H104 C98 0.929 . S
H105 C97 0.930 . S
H106 C120 0.929 . S
H107 C87 0.931 . S
H108 C93 0.931 . S
H109 C94 0.931 . S
H110 C115 0.931 . S
H111 C90 0.929 . S
H112 C123 0.930 . S
N113 Eu84 2.600 1_545 S
N113 C114 1.365 1_445 S
N113 C117 1.319 . S
C114 N113 1.365 1_665 S
C114 C116 1.405 . S
C114 C122 1.448 . S
C115 H110 0.931 . S
C115 C117 1.397 . S
C115 C118 1.367 . S
C116 C114 1.405 . S
C116 C118 1.403 1_665 S
C116 C149 1.439 . S
C117 H102 0.930 . S
C117 N113 1.319 . S
C117 C115 1.397 . S
C118 C115 1.367 . S
C118 C116 1.403 1_445 S
C118 H125 0.929 . S
N119 Eu84 2.562 1_655 S
N119 C120 1.325 . S
N119 C122 1.351 . S
C120 H106 0.929 . S
C120 N119 1.325 . S
C120 C124 1.416 . S
C121 C122 1.430 . S
C121 C123 1.404 . S
C121 C150 1.387 . S
C122 C114 1.448 . S
C122 N119 1.351 . S
C122 C121 1.430 . S
C123 H112 0.930 . S
C123 C121 1.404 . S
C123 C124 1.366 . S
C124 H103 0.930 . S
C124 C120 1.416 . S
C124 C123 1.366 . S
H125 C118 0.929 . S
H126 C149 0.931 . S
H127 C150 0.931 . S
O128 Eu84 2.462 . S
O128 C148 1.252 . S
O129 Eu84 2.373 1_655 S
O129 C140 1.249 . S
O130 Eu95 2.335 1_565 S
O130 C140 1.264 . S
O131 Eu84 2.432 1_545 S
O131 C148 1.268 1_545 S
O132 Eu84 2.291 1_655 S
O132 C147 1.255 . S
O133 Eu95 2.372 1_565 S
O133 C147 1.257 . S
O134 Eu95 2.462 . S
O134 C159 1.252 . S
O135 Eu95 2.373 1_455 S
O135 C151 1.249 . S
O136 Eu84 2.335 1_545 S
O136 C151 1.264 . S
O137 Eu95 2.432 . S
O137 C159 1.268 . S
O138 Eu95 2.291 1_455 S
O138 C158 1.255 . S
O139 Eu84 2.372 1_545 S
O139 C158 1.257 . S
C140 O129 1.249 . S
C140 O130 1.264 . S
C141 C144 1.382 . S
C141 C146 1.390 . S
C141 C148 1.506 . S
C142 C143 1.398 . S
C142 C146 1.392 . S
C143 C142 1.398 . S
C143 C145 1.372 . S
C143 H160 0.931 . S
C144 C141 1.382 . S
C144 C145 1.390 . S
C144 H161 0.931 1_565 S
C145 C143 1.372 . S
C145 C144 1.390 . S
C145 H162 0.929 1_565 S
C146 C141 1.390 . S
C146 C142 1.392 . S
C146 H163 0.930 . S
C147 O132 1.255 . S
C147 O133 1.257 . S
C148 Eu84 2.787 . S
C148 O128 1.252 . S
C148 O131 1.268 1_565 S
C148 C141 1.506 . S
C149 C116 1.439 . S
C149 H126 0.931 . S
C149 C150 1.374 . S
C150 C121 1.387 . S
C150 H127 0.931 . S
C150 C149 1.374 . S
C151 O135 1.249 . S
C151 O136 1.264 . S
C152 C155 1.382 . S
C152 C156 1.390 . S
C152 C159 1.506 . S
C153 C154 1.398 . S
C153 C156 1.392 . S
C154 C153 1.398 . S
C154 C157 1.372 . S
C154 H164 0.931 . S
C155 C152 1.382 . S
C155 C157 1.390 . S
C155 H165 0.931 . S
C156 C152 1.390 . S
C156 C153 1.392 . S
C156 H166 0.930 . S
C157 C154 1.372 . S
C157 C155 1.390 . S
C157 H167 0.929 . S
C158 O138 1.255 . S
C158 O139 1.257 . S
C159 Eu95 2.787 . S
C159 O134 1.252 . S
C159 O137 1.268 . S
C159 C152 1.506 . S
H160 C143 0.931 . S
H161 C144 0.931 1_545 S
H162 C145 0.929 1_545 S
H163 C146 0.930 . S
H164 C154 0.931 . S
H165 C155 0.931 . S
H166 C156 0.930 . S
H167 C157 0.929 . S
Zn168 O174 1.920 . S
Zn168 O180 1.898 . S
Zn168 O183 1.905 . S
Zn169 O177 1.905 . S
Zn169 O178 1.898 . S
Zn169 O186 1.920 . S
Zn170 O173 2.080 . S
Zn170 O176 2.114 . S
Zn170 O179 2.120 . S
Zn170 O181 2.120 . S
Zn170 O182 2.114 . S
Zn170 O185 2.080 . S
C171 O176 1.166 . S
C171 O177 1.182 . S
C172 O178 1.167 . S
C172 O179 1.299 . S
O173 Zn170 2.080 . S
O173 C187 1.305 . S
O174 Zn168 1.920 . S
O174 C187 1.234 . S
C175 O180 1.167 . S
C175 O181 1.299 . S
O176 Zn170 2.114 . S
O176 C171 1.166 . S
O177 Zn169 1.905 . S
O177 C171 1.182 . S
O178 Zn169 1.898 . S
O178 C172 1.167 . S
O179 Zn170 2.120 . S
O179 C172 1.299 . S
O180 Zn168 1.898 . S
O180 C175 1.167 . S
O181 Zn170 2.120 . S
O181 C175 1.299 . S
O182 Zn170 2.114 . S
O182 C184 1.166 . S
O183 Zn168 1.905 . S
O183 C184 1.182 . S
C184 O182 1.166 . S
C184 O183 1.182 . S
O185 Zn170 2.080 . S
O185 C188 1.305 . S
O186 Zn169 1.920 . S
O186 C188 1.234 . S
C187 O173 1.305 . S
C187 O174 1.234 . S
C188 O185 1.305 . S
C188 O186 1.234 . S
Zn189 O195 1.920 . S
Zn189 O201 1.898 . S
Zn189 O204 1.905 . S
Zn190 O198 1.905 . S
Zn190 O199 1.898 . S
Zn190 O207 1.920 . S
Zn191 O194 2.080 . S
Zn191 O197 2.114 . S
Zn191 O200 2.120 . S
Zn191 O202 2.120 . S
Zn191 O203 2.114 . S
Zn191 O206 2.080 . S
C192 O197 1.166 . S
C192 O198 1.182 . S
C193 O199 1.167 . S
C193 O200 1.299 . S
O194 Zn191 2.080 . S
O194 C208 1.305 . S
O195 Zn189 1.920 . S
O195 C208 1.234 . S
C196 O201 1.167 . S
C196 O202 1.299 . S
O197 Zn191 2.114 . S
O197 C192 1.166 . S
O198 Zn190 1.905 . S
O198 C192 1.182 . S
O199 Zn190 1.898 . S
O199 C193 1.167 . S
O200 Zn191 2.120 . S
O200 C193 1.299 . S
O201 Zn189 1.898 . S
O201 C196 1.167 . S
O202 Zn191 2.120 . S
O202 C196 1.299 . S
O203 Zn191 2.114 . S
O203 C205 1.166 . S
O204 Zn189 1.905 . S
O204 C205 1.182 . S
C205 O203 1.166 . S
C205 O204 1.182 . S
O206 Zn191 2.080 . S
O206 C209 1.305 . S
O207 Zn190 1.920 . S
O207 C209 1.234 . S
C208 O194 1.305 . S
C208 O195 1.234 . S
C209 O206 1.305 . S
C209 O207 1.234 . S
H210 C216 0.930 . S
H211 C220 0.930 . S
H212 C225 0.929 . S
H213 C223 0.929 . S
H214 C218 0.929 . S
H215 C224 0.929 . S
C216 H210 0.930 . S
C216 C217 1.367 . S
C216 C224 1.378 . S
C217 C216 1.367 . S
C217 C225 1.433 . S
C218 H214 0.929 . S
C218 C220 1.378 . S
C218 C222 1.350 . S
C219 C222 1.463 . S
C219 C224 1.350 . S
C219 N227 1.427 . S
C220 H211 0.930 . S
C220 C218 1.378 . S
C220 C221 1.367 . S
C221 C220 1.367 . S
C221 C223 1.433 . S
C222 C218 1.350 . S
C222 C219 1.463 . S
C222 N226 1.427 . S
C223 H213 0.929 . S
C223 C221 1.433 . S
C223 N226 1.384 . S
C224 H215 0.929 . S
C224 C216 1.378 . S
C224 C219 1.350 . S
C225 H212 0.929 . S
C225 C217 1.433 . S
C225 N227 1.384 . S
N226 C222 1.427 . S
N226 C223 1.384 . S
N227 C219 1.427 . S
N227 C225 1.384 . S
H228 C234 0.930 . S
H229 C238 0.930 . S
H230 C243 0.929 . S
H231 C241 0.929 . S
H232 C236 0.929 . S
H233 C242 0.929 . S
C234 H228 0.930 . S
C234 C235 1.367 . S
C234 C242 1.378 . S
C235 C234 1.367 . S
C235 C243 1.433 . S
C236 H232 0.929 . S
C236 C238 1.378 . S
C236 C240 1.350 . S
C237 C240 1.463 . S
C237 C242 1.350 . S
C237 N245 1.427 . S
C238 H229 0.930 . S
C238 C236 1.378 . S
C238 C239 1.367 . S
C239 C238 1.367 . S
C239 C241 1.433 . S
C240 C236 1.350 . S
C240 C237 1.463 . S
C240 N244 1.427 . S
C241 H231 0.929 . S
C241 C239 1.433 . S
C241 N244 1.384 . S
C242 H233 0.929 . S
C242 C234 1.378 . S
C242 C237 1.350 . S
C243 H230 0.929 . S
C243 C235 1.433 . S
C243 N245 1.384 . S
N244 C240 1.427 . S
N244 C241 1.384 . S
N245 C237 1.427 . S
N245 C243 1.384 . S
H246 C252 0.930 . S
H247 C256 0.930 . S
H248 C261 0.929 . S
H249 C259 0.929 . S
H250 C254 0.929 . S
H251 C260 0.929 . S
C252 H246 0.930 . S
C252 C253 1.367 . S
C252 C260 1.378 . S
C253 C252 1.367 . S
C253 C261 1.433 . S
C254 H250 0.929 . S
C254 C256 1.378 . S
C254 C258 1.350 . S
C255 C258 1.463 . S
C255 C260 1.350 . S
C255 N263 1.427 . S
C256 H247 0.930 . S
C256 C254 1.378 . S
C256 C257 1.367 . S
C257 C256 1.367 . S
C257 C259 1.433 . S
C258 C254 1.350 . S
C258 C255 1.463 . S
C258 N262 1.427 . S
C259 H249 0.929 . S
C259 C257 1.433 . S
C259 N262 1.384 . S
C260 H251 0.929 . S
C260 C252 1.378 . S
C260 C255 1.350 . S
C261 H248 0.929 . S
C261 C253 1.433 . S
C261 N263 1.384 . S
N262 C258 1.427 . S
N262 C259 1.384 . S
N263 C255 1.427 . S
N263 C261 1.384 . S
H264 C270 0.930 . S
H265 C274 0.930 . S
H266 C279 0.929 . S
H267 C277 0.929 . S
H268 C272 0.929 . S
H269 C278 0.929 . S
C270 H264 0.930 . S
C270 C271 1.367 . S
C270 C278 1.378 . S
C271 C270 1.367 . S
C271 C279 1.433 . S
C272 H268 0.929 . S
C272 C274 1.378 . S
C272 C276 1.350 . S
C273 C276 1.463 . S
C273 C278 1.350 . S
C273 N281 1.427 . S
C274 H265 0.930 . S
C274 C272 1.378 . S
C274 C275 1.367 . S
C275 C274 1.367 . S
C275 C277 1.433 . S
C276 C272 1.350 . S
C276 C273 1.463 . S
C276 N280 1.427 . S
C277 H267 0.929 . S
C277 C275 1.433 . S
C277 N280 1.384 . S
C278 H269 0.929 . S
C278 C270 1.378 . S
C278 C273 1.350 . S
C279 H266 0.929 . S
C279 C271 1.433 . S
C279 N281 1.384 . S
N280 C276 1.427 . S
N280 C277 1.384 . S
N281 C273 1.427 . S
N281 C279 1.384 . S
H282 C288 0.930 . S
H283 C292 0.930 . S
H284 C297 0.929 . S
H285 C295 0.929 . S
H286 C290 0.929 . S
H287 C296 0.929 . S
C288 H282 0.930 . S
C288 C289 1.367 . S
C288 C296 1.378 . S
C289 C288 1.367 . S
C289 C297 1.433 . S
C290 H286 0.929 . S
C290 C292 1.378 . S
C290 C294 1.350 . S
C291 C294 1.463 . S
C291 C296 1.350 . S
C291 N299 1.427 . S
C292 H283 0.930 . S
C292 C290 1.378 . S
C292 C293 1.367 . S
C293 C292 1.367 . S
C293 C295 1.433 . S
C294 C290 1.350 . S
C294 C291 1.463 . S
C294 N298 1.427 . S
C295 H285 0.929 . S
C295 C293 1.433 . S
C295 N298 1.384 . S
C296 H287 0.929 . S
C296 C288 1.378 . S
C296 C291 1.350 . S
C297 H284 0.929 . S
C297 C289 1.433 . S
C297 N299 1.384 . S
N298 C294 1.427 . S
N298 C295 1.384 . S
N299 C291 1.427 . S
N299 C297 1.384 . S
H300 C306 0.930 . S
H301 C310 0.930 . S
H302 C315 0.929 . S
H303 C313 0.929 . S
H304 C308 0.929 . S
H305 C314 0.929 . S
C306 H300 0.930 . S
C306 C307 1.367 . S
C306 C314 1.378 . S
C307 C306 1.367 . S
C307 C315 1.433 . S
C308 H304 0.929 . S
C308 C310 1.378 . S
C308 C312 1.350 . S
C309 C312 1.463 . S
C309 C314 1.350 . S
C309 N317 1.427 . S
C310 H301 0.930 . S
C310 C308 1.378 . S
C310 C311 1.367 . S
C311 C310 1.367 . S
C311 C313 1.433 . S
C312 C308 1.350 . S
C312 C309 1.463 . S
C312 N316 1.427 . S
C313 H303 0.929 . S
C313 C311 1.433 . S
C313 N316 1.384 . S
C314 H305 0.929 . S
C314 C306 1.378 . S
C314 C309 1.350 . S
C315 H302 0.929 . S
C315 C307 1.433 . S
C315 N317 1.384 . S
N316 C312 1.427 . S
N316 C313 1.384 . S
N317 C309 1.427 . S
N317 C315 1.384 . S
H318 C324 0.930 . S
H319 C328 0.930 . S
H320 C333 0.929 . S
H321 C331 0.929 . S
H322 C326 0.929 . S
H323 C332 0.929 . S
C324 H318 0.930 . S
C324 C325 1.367 . S
C324 C332 1.378 . S
C325 C324 1.367 . S
C325 C333 1.433 . S
C326 H322 0.929 . S
C326 C328 1.378 . S
C326 C330 1.350 . S
C327 C330 1.463 . S
C327 C332 1.350 . S
C327 N335 1.427 . S
C328 H319 0.930 . S
C328 C326 1.378 . S
C328 C329 1.367 . S
C329 C328 1.367 . S
C329 C331 1.433 . S
C330 C326 1.350 . S
C330 C327 1.463 . S
C330 N334 1.427 . S
C331 H321 0.929 . S
C331 C329 1.433 . S
C331 N334 1.384 . S
C332 H323 0.929 . S
C332 C324 1.378 . S
C332 C327 1.350 . S
C333 H320 0.929 . S
C333 C325 1.433 . S
C333 N335 1.384 . S
N334 C330 1.427 . S
N334 C331 1.384 . S
N335 C327 1.427 . S
N335 C333 1.384 . S
H336 C342 0.930 . S
H337 C346 0.930 . S
H338 C351 0.929 . S
H339 C349 0.929 . S
H340 C344 0.929 . S
H341 C350 0.929 . S
C342 H336 0.930 . S
C342 C343 1.367 . S
C342 C350 1.378 . S
C343 C342 1.367 . S
C343 C351 1.433 . S
C344 H340 0.929 . S
C344 C346 1.378 . S
C344 C348 1.350 . S
C345 C348 1.463 . S
C345 C350 1.350 . S
C345 N353 1.427 . S
C346 H337 0.930 . S
C346 C344 1.378 . S
C346 C347 1.367 . S
C347 C346 1.367 . S
C347 C349 1.433 . S
C348 C344 1.350 . S
C348 C345 1.463 . S
C348 N352 1.427 . S
C349 H339 0.929 . S
C349 C347 1.433 . S
C349 N352 1.384 . S
C350 H341 0.929 . S
C350 C342 1.378 . S
C350 C345 1.350 . S
C351 H338 0.929 . S
C351 C343 1.433 . S
C351 N353 1.384 . S
N352 C348 1.427 . S
N352 C349 1.384 . S
N353 C345 1.427 . S
N353 C351 1.384 . S
H354 C360 0.930 . S
H355 C364 0.930 . S
H356 C369 0.929 . S
H357 C367 0.929 . S
H358 C362 0.929 . S
H359 C368 0.929 . S
C360 H354 0.930 . S
C360 C361 1.367 . S
C360 C368 1.378 . S
C361 C360 1.367 . S
C361 C369 1.433 . S
C362 H358 0.929 . S
C362 C364 1.378 . S
C362 C366 1.350 . S
C363 C366 1.463 . S
C363 C368 1.350 . S
C363 N371 1.427 . S
C364 H355 0.930 . S
C364 C362 1.378 . S
C364 C365 1.367 . S
C365 C364 1.367 . S
C365 C367 1.433 . S
C366 C362 1.350 . S
C366 C363 1.463 . S
C366 N370 1.427 . S
C367 H357 0.929 . S
C367 C365 1.433 . S
C367 N370 1.384 . S
C368 H359 0.929 . S
C368 C360 1.378 . S
C368 C363 1.350 . S
C369 H356 0.929 . S
C369 C361 1.433 . S
C369 N371 1.384 . S
N370 C366 1.427 . S
N370 C367 1.384 . S
N371 C363 1.427 . S
N371 C369 1.384 . S
H372 C378 0.930 . S
H373 C382 0.930 . S
H374 C387 0.929 . S
H375 C385 0.929 . S
H376 C380 0.929 . S
H377 C386 0.929 . S
C378 H372 0.930 . S
C378 C379 1.367 . S
C378 C386 1.378 . S
C379 C378 1.367 . S
C379 C387 1.433 . S
C380 H376 0.929 . S
C380 C382 1.378 . S
C380 C384 1.350 . S
C381 C384 1.463 . S
C381 C386 1.350 . S
C381 N389 1.427 . S
C382 H373 0.930 . S
C382 C380 1.378 . S
C382 C383 1.367 . S
C383 C382 1.367 . S
C383 C385 1.433 . S
C384 C380 1.350 . S
C384 C381 1.463 . S
C384 N388 1.427 . S
C385 H375 0.929 . S
C385 C383 1.433 . S
C385 N388 1.384 . S
C386 H377 0.929 . S
C386 C378 1.378 . S
C386 C381 1.350 . S
C387 H374 0.929 . S
C387 C379 1.433 . S
C387 N389 1.384 . S
N388 C384 1.427 . S
N388 C385 1.384 . S
N389 C381 1.427 . S
N389 C387 1.384 . S
H390 C396 0.930 . S
H391 C400 0.930 . S
H392 C405 0.929 . S
H393 C403 0.929 . S
H394 C398 0.929 . S
H395 C404 0.929 . S
C396 H390 0.930 . S
C396 C397 1.367 . S
C396 C404 1.378 . S
C397 C396 1.367 . S
C397 C405 1.433 . S
C398 H394 0.929 . S
C398 C400 1.378 . S
C398 C402 1.350 . S
C399 C402 1.463 . S
C399 C404 1.350 . S
C399 N407 1.427 . S
C400 H391 0.930 . S
C400 C398 1.378 . S
C400 C401 1.367 . S
C401 C400 1.367 . S
C401 C403 1.433 . S
C402 C398 1.350 . S
C402 C399 1.463 . S
C402 N406 1.427 . S
C403 H393 0.929 . S
C403 C401 1.433 . S
C403 N406 1.384 . S
C404 H395 0.929 . S
C404 C396 1.378 . S
C404 C399 1.350 . S
C405 H392 0.929 . S
C405 C397 1.433 . S
C405 N407 1.384 . S
N406 C402 1.427 . S
N406 C403 1.384 . S
N407 C399 1.427 . S
N407 C405 1.384 . S
H408 C414 0.930 . S
H409 C418 0.930 . S
H410 C423 0.929 . S
H411 C421 0.929 . S
H412 C416 0.929 . S
H413 C422 0.929 . S
C414 H408 0.930 . S
C414 C415 1.367 . S
C414 C422 1.378 . S
C415 C414 1.367 . S
C415 C423 1.433 . S
C416 H412 0.929 . S
C416 C418 1.378 . S
C416 C420 1.350 . S
C417 C420 1.463 . S
C417 C422 1.350 . S
C417 N425 1.427 . S
C418 H409 0.930 . S
C418 C416 1.378 . S
C418 C419 1.367 . S
C419 C418 1.367 . S
C419 C421 1.433 . S
C420 C416 1.350 . S
C420 C417 1.463 . S
C420 N424 1.427 . S
C421 H411 0.929 . S
C421 C419 1.433 . S
C421 N424 1.384 . S
C422 H413 0.929 . S
C422 C414 1.378 . S
C422 C417 1.350 . S
C423 H410 0.929 . S
C423 C415 1.433 . S
C423 N425 1.384 . S
N424 C420 1.427 . S
N424 C421 1.384 . S
N425 C417 1.427 . S
N425 C423 1.384 . S
C217 C58 1.188 . S
C221 C187 1.274 . S
C235 C151 1.554 . S
C239 C193 1.411 . S
C253 C56 1.621 . S
C257 C184 1.481 . S
C271 C153 1.212 . S
C275 C209 1.277 . S
C289 C74 1.599 . S
C293 C175 1.460 . S
C311 C192 1.516 . S
C307 C147 1.619 . S
C325 C142 1.164 . S
C329 C188 1.259 . S
C347 C205 1.526 . S
C343 C63 1.629 . S
C365 C172 1.437 . S
C361 C158 1.597 . S
C383 C208 1.281 . S
C379 C69 1.238 . S
C401 C171 1.477 . S
C397 C140 1.620 . S
C419 C196 1.418 . S
C415 C67 1.555 . S
