# Generated by pormake.
# Topology dag, (6,3)-cn, num edge types: 1
# Building blocks:
#     Node 0, Type 0, BuildingBlock: OJICUG_clean_sbu_0, # of connection points: 6
#     Node 1, Type 0, BuildingBlock: OJICUG_clean_sbu_0, # of connection points: 6
#     Node 2, Type 0, BuildingBlock: OJICUG_clean_sbu_0, # of connection points: 6
#     Node 3, Type 0, BuildingBlock: OJICUG_clean_sbu_0, # of connection points: 6
#     Node 4, Type 1, BuildingBlock: WUSLED_clean_sbu_0, # of connection points: 3
#     Node 5, Type 1, BuildingBlock: WUSLED_clean_sbu_0, # of connection points: 3
#     Node 6, Type 1, BuildingBlock: WUSLED_clean_sbu_0, # of connection points: 3
#     Node 7, Type 1, BuildingBlock: WUSLED_clean_sbu_0, # of connection points: 3
#     Node 8, Type 1, BuildingBlock: WUSLED_clean_sbu_0, # of connection points: 3
#     Node 9, Type 1, BuildingBlock: WUSLED_clean_sbu_0, # of connection points: 3
#     Node 10, Type 1, BuildingBlock: WUSLED_clean_sbu_0, # of connection points: 3
#     Node 11, Type 1, BuildingBlock: WUSLED_clean_sbu_0, # of connection points: 3
#     Edge 12, Type (0, 1), BuildingBlock: UVAHIK_clean_linker_0, # of connection points: 2
#     Edge 13, Type (0, 1), BuildingBlock: UVAHIK_clean_linker_0, # of connection points: 2
#     Edge 14, Type (0, 1), BuildingBlock: UVAHIK_clean_linker_0, # of connection points: 2
#     Edge 15, Type (0, 1), BuildingBlock: UVAHIK_clean_linker_0, # of connection points: 2
#     Edge 16, Type (0, 1), BuildingBlock: UVAHIK_clean_linker_0, # of connection points: 2
#     Edge 17, Type (0, 1), BuildingBlock: UVAHIK_clean_linker_0, # of connection points: 2
#     Edge 18, Type (0, 1), BuildingBlock: UVAHIK_clean_linker_0, # of connection points: 2
#     Edge 19, Type (0, 1), BuildingBlock: UVAHIK_clean_linker_0, # of connection points: 2
#     Edge 20, Type (0, 1), BuildingBlock: UVAHIK_clean_linker_0, # of connection points: 2
#     Edge 21, Type (0, 1), BuildingBlock: UVAHIK_clean_linker_0, # of connection points: 2
#     Edge 22, Type (0, 1), BuildingBlock: UVAHIK_clean_linker_0, # of connection points: 2
#     Edge 23, Type (0, 1), BuildingBlock: UVAHIK_clean_linker_0, # of connection points: 2
#     Edge 24, Type (0, 1), BuildingBlock: UVAHIK_clean_linker_0, # of connection points: 2
#     Edge 25, Type (0, 1), BuildingBlock: UVAHIK_clean_linker_0, # of connection points: 2
#     Edge 26, Type (0, 1), BuildingBlock: UVAHIK_clean_linker_0, # of connection points: 2
#     Edge 27, Type (0, 1), BuildingBlock: UVAHIK_clean_linker_0, # of connection points: 2
#     Edge 28, Type (0, 1), BuildingBlock: UVAHIK_clean_linker_0, # of connection points: 2
#     Edge 29, Type (0, 1), BuildingBlock: UVAHIK_clean_linker_0, # of connection points: 2
#     Edge 30, Type (0, 1), BuildingBlock: UVAHIK_clean_linker_0, # of connection points: 2
#     Edge 31, Type (0, 1), BuildingBlock: UVAHIK_clean_linker_0, # of connection points: 2
#     Edge 32, Type (0, 1), BuildingBlock: UVAHIK_clean_linker_0, # of connection points: 2
#     Edge 33, Type (0, 1), BuildingBlock: UVAHIK_clean_linker_0, # of connection points: 2
#     Edge 34, Type (0, 1), BuildingBlock: UVAHIK_clean_linker_0, # of connection points: 2
#     Edge 35, Type (0, 1), BuildingBlock: UVAHIK_clean_linker_0, # of connection points: 2
# Relax obj value: 0.245
# Max RMSD: 0.197
# Mean RMSD: 0.162
data_MOF--net-dag--node1-OJICUG_clean_sbu_0--node2-WUSLED_clean_sbu_0--edge1-UVAHIK_clean_linker_0
_symmetry_space_group_name_H-M    P1
_symmetry_Int_Tables_number       1
_symmetry_cell_setting            triclinic
loop_
_symmetry_equiv_pos_as_xyz
'x, y, z'
_cell_length_a     57.332183
_cell_length_b     60.056185
_cell_length_c     58.922575
_cell_angle_alpha  95.069818
_cell_angle_beta   90.275363
_cell_angle_gamma 90.189274
loop_
_atom_site_label
_atom_site_type_symbol
_atom_site_fract_x
_atom_site_fract_y
_atom_site_fract_z
_atom_type_partial_charge
Sc0 Sc 0.13356 0.85005 0.04618 0.0
Sc1 Sc 0.14622 0.7928 0.04672 0.0
Sc2 Sc 0.18483 0.83387 0.07296 0.0
O3 O 0.15491 0.82552 0.05529 0.0
C4 C 0.18374 0.8711 0.0378 0.0
C5 C 0.13208 0.81581 0.00178 0.0
C6 C 0.20123 0.793 0.03813 0.0
C7 C 0.09673 0.81365 0.06042 0.0
C8 C 0.14842 0.86873 0.09651 0.0
C9 C 0.16672 0.79151 0.09718 0.0
O10 O 0.16184 0.86962 0.03477 0.0
O11 O 0.13651 0.79855 0.01208 0.0
O12 O 0.20526 0.81032 0.05166 0.0
O13 O 0.10266 0.83329 0.0563 0.0
O14 O 0.16767 0.85824 0.09632 0.0
O15 O 0.1548 0.78313 0.08023 0.0
O16 O 0.13425 0.86718 0.07979 0.0
O17 O 0.1106 0.79713 0.05807 0.0
O18 O 0.17815 0.80967 0.09694 0.0
O19 O 0.13092 0.83537 0.0118 0.0
O20 O 0.19486 0.85933 0.0511 0.0
O21 O 0.18086 0.78495 0.03452 0.0
Sc22 Sc 0.6861 0.66043 0.48045 0.0
Sc23 Sc 0.64861 0.70313 0.50415 0.0
Sc24 Sc 0.63493 0.64634 0.50836 0.0
O25 O 0.65657 0.67002 0.49766 0.0
C26 C 0.64923 0.62444 0.45907 0.0
C27 C 0.66875 0.70137 0.45356 0.0
C28 C 0.5987 0.68181 0.49138 0.0
C29 C 0.70365 0.7027 0.513 0.0
C30 C 0.68472 0.6254 0.51815 0.0
C31 C 0.63378 0.68336 0.55067 0.0
O32 O 0.66814 0.63544 0.458 0.0
O33 O 0.65672 0.71067 0.46981 0.0
O34 O 0.60441 0.66236 0.49624 0.0
O35 O 0.70721 0.68436 0.50099 0.0
O36 O 0.66295 0.62747 0.52165 0.0
O37 O 0.63958 0.69962 0.53938 0.0
O38 O 0.69549 0.63616 0.50377 0.0
O39 O 0.68357 0.7115 0.5155 0.0
O40 O 0.63164 0.66347 0.54162 0.0
O41 O 0.6801 0.68343 0.45516 0.0
O42 O 0.63582 0.62666 0.47621 0.0
O43 O 0.61271 0.69835 0.49338 0.0
Sc44 Sc 0.85747 0.20223 0.00668 0.0
Sc45 Sc 0.81709 0.1615 0.98388 0.0
Sc46 Sc 0.87068 0.14482 0.00608 0.0
O47 O 0.84841 0.16954 0.9989 0.0
C48 C 0.90603 0.18136 0.98946 0.0
C49 C 0.83327 0.20341 0.95788 0.0
C50 C 0.85125 0.12618 0.95729 0.0
C51 C 0.80336 0.20251 0.01955 0.0
C52 C 0.87549 0.17918 0.05043 0.0
C53 C 0.82138 0.12386 0.01847 0.0
O54 O 0.89219 0.19776 0.99318 0.0
O55 O 0.82166 0.18553 0.95934 0.0
O56 O 0.86691 0.12752 0.9727 0.0
O57 O 0.8239 0.21054 0.02119 0.0
O58 O 0.87663 0.15967 0.04019 0.0
O59 O 0.80931 0.13639 0.00671 0.0
O60 O 0.86922 0.19621 0.04053 0.0
O61 O 0.79826 0.18502 0.00671 0.0
O62 O 0.84352 0.12487 0.01948 0.0
O63 O 0.84667 0.21181 0.97368 0.0
O64 O 0.90062 0.16155 0.99346 0.0
O65 O 0.83226 0.13709 0.95919 0.0
Sc66 Sc 0.36858 0.35297 0.54832 0.0
Sc67 Sc 0.31515 0.3346 0.56925 0.0
Sc68 Sc 0.35632 0.29533 0.5456 0.0
O69 O 0.34665 0.32761 0.55436 0.0
C70 C 0.37469 0.31994 0.50315 0.0
C71 C 0.31897 0.37297 0.53541 0.0
C72 C 0.3022 0.29398 0.53249 0.0
C73 C 0.3485 0.37032 0.59696 0.0
C74 C 0.40428 0.31674 0.56447 0.0
C75 C 0.33217 0.29235 0.59418 0.0
O76 O 0.37548 0.33915 0.51411 0.0
O77 O 0.30698 0.35995 0.5467 0.0
O78 O 0.32297 0.2868 0.53046 0.0
O79 O 0.36426 0.36934 0.58184 0.0
O80 O 0.39103 0.30001 0.55948 0.0
O81 O 0.3203 0.31011 0.59329 0.0
O82 O 0.39845 0.33665 0.56143 0.0
O83 O 0.32954 0.35927 0.59459 0.0
O84 O 0.34558 0.28475 0.57816 0.0
O85 O 0.34114 0.37247 0.5348 0.0
O86 O 0.3682 0.30247 0.51218 0.0
O87 O 0.29666 0.31081 0.54599 0.0
C88 C 0.01036 0.17539 0.30501 0.0
C89 C 0.9907 0.1614 0.30188 0.0
C90 C 0.97615 0.18348 0.27213 0.0
C91 C 0.9737 0.16551 0.28574 0.0
C92 C 0.99517 0.19819 0.27624 0.0
C93 C 0.01207 0.19419 0.29257 0.0
U94 U 0.05352 0.1314 0.31819 0.0
O95 O 0.09162 0.13233 0.32162 0.0
O96 O 0.07022 0.12257 0.34994 0.0
C97 C 0.09115 0.128 0.3431 0.0
C98 C 0.03049 0.16899 0.31871 0.0
C99 C 0.10522 0.14296 0.3592 0.0
C100 C 0.13535 0.17139 0.36634 0.0
C101 C 0.12113 0.15829 0.35117 0.0
C102 C 0.1179 0.15446 0.398 0.0
C103 C 0.13404 0.16948 0.38988 0.0
C104 C 0.10373 0.14123 0.38279 0.0
C105 C 0.04733 0.07537 0.28215 0.0
C106 C 0.07495 0.04494 0.28368 0.0
C107 C 0.0461 0.04394 0.25339 0.0
C108 C 0.03723 0.06435 0.26261 0.0
C109 C 0.06525 0.03407 0.26363 0.0
C110 C 0.06609 0.06549 0.29283 0.0
C111 C 0.03928 0.09791 0.28984 0.0
O112 O 0.02653 0.15404 0.3333 0.0
O113 O 0.04967 0.16513 0.30693 0.0
O114 O 0.05269 0.11411 0.28382 0.0
O115 O 0.03202 0.10109 0.31102 0.0
H116 H 0.9889 0.14672 0.31117 0.0
H117 H 0.95903 0.15412 0.28336 0.0
H118 H 0.99775 0.21207 0.26597 0.0
H119 H 0.02715 0.20512 0.29461 0.0
H120 H 0.14748 0.18299 0.35962 0.0
H121 H 0.12288 0.16003 0.33311 0.0
H122 H 0.11671 0.15247 0.41605 0.0
H123 H 0.09187 0.12937 0.38948 0.0
H124 H 0.08954 0.03772 0.29212 0.0
H125 H 0.03846 0.03635 0.23772 0.0
H126 H 0.0229 0.0719 0.25403 0.0
H127 H 0.07417 0.0739 0.3079 0.0
C128 C 0.40245 0.58007 0.80849 0.0
C129 C 0.41536 0.57612 0.7884 0.0
C130 C 0.3924 0.54268 0.77767 0.0
C131 C 0.41037 0.55762 0.77312 0.0
C132 C 0.38001 0.54627 0.79822 0.0
C133 C 0.38495 0.56493 0.81349 0.0
U134 U 0.43623 0.63353 0.82065 0.0
O135 O 0.42441 0.66797 0.82931 0.0
O136 O 0.44787 0.6521 0.8526 0.0
C137 C 0.43453 0.66936 0.84943 0.0
C138 C 0.40639 0.6007 0.82331 0.0
C139 C 0.41915 0.67678 0.8684 0.0
C140 C 0.38703 0.66972 0.89351 0.0
C141 C 0.40293 0.66203 0.87672 0.0
C142 C 0.4037 0.70692 0.89403 0.0
C143 C 0.38702 0.69234 0.90214 0.0
C144 C 0.41961 0.69918 0.87729 0.0
C145 C 0.48492 0.6447 0.77823 0.0
C146 C 0.497 0.67836 0.76128 0.0
C147 C 0.52331 0.64689 0.76127 0.0
C148 C 0.50668 0.63514 0.77277 0.0
C149 C 0.51838 0.66838 0.75484 0.0
C150 C 0.48044 0.66668 0.77296 0.0
C151 C 0.4666 0.63076 0.78741 0.0
O152 O 0.42637 0.60189 0.83441 0.0
O153 O 0.40144 0.61905 0.81371 0.0
O154 O 0.44499 0.6375 0.78508 0.0
O155 O 0.47084 0.62327 0.80732 0.0
H156 H 0.42898 0.58764 0.7843 0.0
H157 H 0.42044 0.5551 0.7576 0.0
H158 H 0.36601 0.53508 0.80211 0.0
H159 H 0.37478 0.56781 0.82891 0.0
H160 H 0.37463 0.658 0.89958 0.0
H161 H 0.4023 0.64466 0.86993 0.0
H162 H 0.40396 0.72448 0.90006 0.0
H163 H 0.43192 0.71081 0.87088 0.0
H164 H 0.49283 0.69498 0.75671 0.0
H165 H 0.53953 0.63866 0.75633 0.0
H166 H 0.51048 0.6182 0.7766 0.0
H167 H 0.46386 0.67456 0.77714 0.0
C168 C 0.7241 0.90194 0.15086 0.0
C169 C 0.73581 0.90192 0.13 0.0
C170 C 0.72563 0.94091 0.12744 0.0
C171 C 0.7365 0.92115 0.11839 0.0
C172 C 0.71339 0.94073 0.1481 0.0
C173 C 0.71265 0.92136 0.15973 0.0
U174 U 0.75867 0.85183 0.16205 0.0
O175 O 0.77102 0.83865 0.19355 0.0
O176 O 0.74967 0.81749 0.16913 0.0
C177 C 0.76011 0.81946 0.18913 0.0
C178 C 0.72631 0.88255 0.16429 0.0
C179 C 0.74693 0.81142 0.20806 0.0
C180 C 0.717 0.81592 0.23715 0.0
C181 C 0.72866 0.82384 0.2186 0.0
C182 C 0.7417 0.78312 0.23445 0.0
C183 C 0.72345 0.79545 0.24529 0.0
C184 C 0.75328 0.79103 0.21601 0.0
C185 C 0.81323 0.84246 0.12567 0.0
C186 C 0.84299 0.81555 0.13379 0.0
C187 C 0.84802 0.83868 0.10246 0.0
C188 C 0.82647 0.8487 0.10736 0.0
C189 C 0.85672 0.82224 0.11583 0.0
C190 C 0.82138 0.82559 0.13867 0.0
C191 C 0.79177 0.85469 0.13184 0.0
O192 O 0.72364 0.86293 0.15271 0.0
O193 O 0.74455 0.88345 0.17793 0.0
O194 O 0.79213 0.86578 0.15208 0.0
O195 O 0.77216 0.84376 0.12736 0.0
H196 H 0.74516 0.88723 0.12307 0.0
H197 H 0.7465 0.92077 0.10282 0.0
H198 H 0.70474 0.95565 0.15545 0.0
H199 H 0.70375 0.92174 0.17594 0.0
H200 H 0.70293 0.82573 0.24504 0.0
H201 H 0.72356 0.83966 0.21259 0.0
H202 H 0.74745 0.76753 0.24053 0.0
H203 H 0.76744 0.78132 0.20812 0.0
H204 H 0.84909 0.8028 0.14426 0.0
H205 H 0.85827 0.84449 0.08875 0.0
H206 H 0.82044 0.86178 0.09725 0.0
H207 H 0.8113 0.82059 0.15288 0.0
C208 C 0.78185 0.40541 0.65206 0.0
C209 C 0.76751 0.40646 0.63284 0.0
C210 C 0.78077 0.4444 0.62867 0.0
C211 C 0.767 0.42571 0.62124 0.0
C212 C 0.79566 0.44305 0.64758 0.0
C213 C 0.79617 0.42368 0.65921 0.0
U214 U 0.74559 0.35731 0.66668 0.0
O215 O 0.75332 0.3229 0.67439 0.0
O216 O 0.73484 0.34573 0.69936 0.0
C217 C 0.74429 0.32592 0.69489 0.0
C218 C 0.77965 0.38633 0.6659 0.0
C219 C 0.75796 0.31751 0.71339 0.0
C220 C 0.78812 0.3217 0.74258 0.0
C221 C 0.77635 0.32986 0.72414 0.0
C222 C 0.76337 0.28875 0.73925 0.0
C223 C 0.78166 0.30107 0.7504 0.0
C224 C 0.7517 0.29689 0.72093 0.0
C225 C 0.68771 0.34906 0.63492 0.0
C226 C 0.65207 0.33372 0.64947 0.0
C227 C 0.65674 0.33578 0.60885 0.0
C228 C 0.67893 0.34513 0.61268 0.0
C229 C 0.64291 0.33047 0.62726 0.0
C230 C 0.67435 0.34279 0.65327 0.0
C231 C 0.71026 0.3606 0.6388 0.0
O232 O 0.76263 0.38837 0.68079 0.0
O233 O 0.78026 0.36649 0.65448 0.0
O234 O 0.72891 0.34872 0.6332 0.0
O235 O 0.71243 0.37279 0.65834 0.0
H236 H 0.756 0.39267 0.62729 0.0
H237 H 0.75499 0.42627 0.60706 0.0
H238 H 0.80659 0.45709 0.65364 0.0
H239 H 0.80717 0.42322 0.67416 0.0
H240 H 0.80221 0.33151 0.75072 0.0
H241 H 0.78139 0.34585 0.71846 0.0
H242 H 0.75759 0.27305 0.74507 0.0
H243 H 0.73744 0.28723 0.71288 0.0
H244 H 0.64183 0.32955 0.66392 0.0
H245 H 0.65001 0.33358 0.59158 0.0
H246 H 0.68902 0.34979 0.59832 0.0
H247 H 0.68088 0.3454 0.67059 0.0
C248 C 0.50937 0.31886 0.24482 0.0
C249 C 0.4905 0.33354 0.24887 0.0
C250 C 0.47776 0.313 0.28045 0.0
C251 C 0.47478 0.33053 0.26638 0.0
C252 C 0.49575 0.29749 0.2754 0.0
C253 C 0.51139 0.3004 0.25773 0.0
U254 U 0.55236 0.3618 0.22917 0.0
O255 O 0.59023 0.36056 0.22411 0.0
O256 O 0.56739 0.37063 0.19679 0.0
C257 C 0.58872 0.36578 0.20296 0.0
C258 C 0.52878 0.32451 0.22991 0.0
C259 C 0.60222 0.35159 0.18631 0.0
C260 C 0.61422 0.315 0.16967 0.0
C261 C 0.59976 0.32825 0.18437 0.0
C262 C 0.63312 0.34839 0.15829 0.0
C263 C 0.63134 0.32494 0.15676 0.0
C264 C 0.61871 0.36157 0.17296 0.0
C265 C 0.54878 0.41808 0.26524 0.0
C266 C 0.58099 0.44298 0.27685 0.0
C267 C 0.54119 0.4547 0.2845 0.0
C268 C 0.53303 0.43443 0.27387 0.0
C269 C 0.5653 0.45886 0.28688 0.0
C270 C 0.5728 0.42277 0.26606 0.0
C271 C 0.54002 0.39556 0.25781 0.0
O272 O 0.52431 0.33933 0.21529 0.0
O273 O 0.54876 0.32812 0.24065 0.0
O274 O 0.55319 0.37905 0.26347 0.0
O275 O 0.53161 0.39244 0.23697 0.0
H276 H 0.48849 0.348 0.23929 0.0
H277 H 0.46083 0.34251 0.26948 0.0
H278 H 0.49868 0.28389 0.28597 0.0
H279 H 0.52588 0.28895 0.25501 0.0
H280 H 0.61252 0.29699 0.169 0.0
H281 H 0.58708 0.32029 0.19461 0.0
H282 H 0.64584 0.35657 0.14828 0.0
H283 H 0.62074 0.37959 0.17421 0.0
H284 H 0.59965 0.44555 0.27847 0.0
H285 H 0.52862 0.46677 0.2916 0.0
H286 H 0.51443 0.43115 0.27325 0.0
H287 H 0.58526 0.41039 0.25937 0.0
C288 C 0.18474 0.19608 0.88903 0.0
C289 C 0.1778 0.18634 0.9087 0.0
C290 C 0.13957 0.20359 0.90669 0.0
C291 C 0.15545 0.19011 0.9175 0.0
C292 C 0.14689 0.21385 0.88734 0.0
C293 C 0.16931 0.2101 0.87858 0.0
U294 U 0.23691 0.15797 0.88431 0.0
O295 O 0.25354 0.14078 0.8542 0.0
O296 O 0.27394 0.16414 0.87723 0.0
C297 C 0.27316 0.152 0.85754 0.0
C298 C 0.20711 0.18995 0.87822 0.0
C299 C 0.28111 0.16335 0.83791 0.0
C300 C 0.27414 0.18984 0.80984 0.0
C301 C 0.267 0.17951 0.82897 0.0
C302 C 0.30978 0.16819 0.80855 0.0
C303 C 0.2956 0.18428 0.79934 0.0
C304 C 0.30257 0.1578 0.82768 0.0
C305 C 0.23792 0.11094 0.92478 0.0
C306 C 0.25392 0.07357 0.91779 0.0
C307 C 0.23947 0.08632 0.95527 0.0
C308 C 0.23405 0.10702 0.94754 0.0
C309 C 0.24876 0.06912 0.94028 0.0
C310 C 0.2486 0.09435 0.91011 0.0
C311 C 0.22835 0.13131 0.91624 0.0
O312 O 0.22568 0.19293 0.89134 0.0
O313 O 0.20684 0.17052 0.86611 0.0
O314 O 0.219 0.12874 0.89576 0.0
O315 O 0.2409 0.14966 0.91988 0.0
H316 H 0.18943 0.17523 0.91682 0.0
H317 H 0.15028 0.1817 0.93221 0.0
H318 H 0.13515 0.22449 0.87877 0.0
H319 H 0.17437 0.21765 0.8633 0.0
H320 H 0.2626 0.20188 0.80302 0.0
H321 H 0.25032 0.18394 0.83665 0.0
H322 H 0.32652 0.16372 0.80106 0.0
H323 H 0.31367 0.14537 0.83443 0.0
H324 H 0.2613 0.06071 0.90593 0.0
H325 H 0.23505 0.08337 0.9726 0.0
H326 H 0.22577 0.11962 0.95909 0.0
H327 H 0.25188 0.09711 0.89248 0.0
C328 C 0.22515 0.59342 0.3992 0.0
C329 C 0.23689 0.59373 0.42016 0.0
C330 C 0.2259 0.55499 0.42348 0.0
C331 C 0.23721 0.57476 0.4322 0.0
C332 C 0.21364 0.5549 0.40269 0.0
C333 C 0.21328 0.574 0.39064 0.0
U334 U 0.26021 0.64323 0.38712 0.0
O335 O 0.27257 0.65554 0.35527 0.0
O336 O 0.2514 0.67724 0.37898 0.0
C337 C 0.26169 0.67472 0.35903 0.0
C338 C 0.22762 0.6125 0.38538 0.0
C339 C 0.24821 0.68186 0.33976 0.0
C340 C 0.21607 0.67721 0.31272 0.0
C341 C 0.22833 0.67011 0.33139 0.0
C342 C 0.24351 0.70778 0.31084 0.0
C343 C 0.22354 0.69617 0.30226 0.0
C344 C 0.25569 0.70069 0.32942 0.0
C345 C 0.3149 0.6536 0.42377 0.0
C346 C 0.34509 0.67991 0.41495 0.0
C347 C 0.3496 0.65811 0.4474 0.0
C348 C 0.32794 0.64806 0.44258 0.0
C349 C 0.35862 0.67388 0.43343 0.0
C350 C 0.32337 0.66984 0.41016 0.0
C351 C 0.29334 0.64123 0.41773 0.0
O352 O 0.22513 0.63233 0.39652 0.0
O353 O 0.24587 0.61128 0.37193 0.0
O354 O 0.29359 0.62963 0.39776 0.0
O355 O 0.27381 0.65224 0.42176 0.0
H356 H 0.24655 0.60842 0.42687 0.0
H357 H 0.24722 0.57533 0.44788 0.0
H358 H 0.20467 0.53997 0.39558 0.0
H359 H 0.20434 0.57341 0.37436 0.0
H360 H 0.20068 0.668 0.30661 0.0
H361 H 0.22236 0.65549 0.33925 0.0
H362 H 0.25001 0.72218 0.30294 0.0
H363 H 0.27109 0.70985 0.33563 0.0
H364 H 0.35145 0.69214 0.40401 0.0
H365 H 0.35969 0.65281 0.46154 0.0
H366 H 0.32166 0.63547 0.45317 0.0
H367 H 0.31344 0.6743 0.39555 0.0
C368 C 0.90075 0.92469 0.73856 0.0
C369 C 0.91962 0.93764 0.74753 0.0
C370 C 0.89291 0.96354 0.76806 0.0
C371 C 0.91574 0.95695 0.76199 0.0
C372 C 0.87403 0.95086 0.75849 0.0
C373 C 0.87795 0.93161 0.74386 0.0
U374 U 0.93715 0.87274 0.7288 0.0
O375 O 0.92745 0.83726 0.72381 0.0
O376 O 0.94749 0.85248 0.69748 0.0
C377 C 0.93559 0.83499 0.7029 0.0
C378 C 0.90474 0.90297 0.7256 0.0
C379 C 0.91897 0.82566 0.6855 0.0
C380 C 0.87992 0.82386 0.66934 0.0
C381 C 0.89579 0.83304 0.68563 0.0
C382 C 0.91039 0.80024 0.65213 0.0
C383 C 0.88698 0.80731 0.65238 0.0
C384 C 0.92623 0.80932 0.66859 0.0
C385 C 0.99002 0.86983 0.76909 0.0
C386 C 0.00916 0.83633 0.78007 0.0
C387 C 0.02454 0.87291 0.79309 0.0
C388 C 0.00693 0.88294 0.78119 0.0
C389 C 0.02558 0.8495 0.79312 0.0
C390 C 0.99151 0.84643 0.76811 0.0
C391 C 0.96992 0.881 0.75963 0.0
O392 O 0.92337 0.90165 0.7126 0.0
O393 O 0.90216 0.88565 0.73751 0.0
O394 O 0.94943 0.87258 0.76404 0.0
O395 O 0.97185 0.8865 0.73861 0.0
H396 H 0.93741 0.93252 0.74385 0.0
H397 H 0.93067 0.96651 0.76872 0.0
H398 H 0.85625 0.95527 0.763 0.0
H399 H 0.86318 0.92169 0.73729 0.0
H400 H 0.862 0.82948 0.67033 0.0
H401 H 0.88988 0.84575 0.6985 0.0
H402 H 0.91653 0.78779 0.63913 0.0
H403 H 0.94413 0.80358 0.66814 0.0
H404 H 0.00963 0.81827 0.77956 0.0
H405 H 0.03661 0.8836 0.80321 0.0
H406 H 0.00595 0.90102 0.78222 0.0
H407 H 0.97859 0.83603 0.75877 0.0
C408 C 0.11844 0.88869 0.12129 0.0
C409 C 0.14194 0.88316 0.11717 0.0
C410 C 0.11215 0.90243 0.14062 0.0
C411 C 0.13375 0.94754 0.17996 0.0
H412 H 0.08091 0.9331 0.21688 0.0
C413 C 0.10015 0.01079 0.25136 0.0
C414 C 0.07578 0.0133 0.25247 0.0
C415 C 0.11004 0.99258 0.23847 0.0
C416 C 0.0956 0.93749 0.20666 0.0
H417 H 0.17727 0.88763 0.13019 0.0
H418 H 0.16621 0.91219 0.16381 0.0
H419 H 0.09471 0.90579 0.18686 0.0
H420 H 0.04276 0.99776 0.24208 0.0
H421 H 0.05988 0.96669 0.21892 0.0
H422 H 0.13399 0.97962 0.19875 0.0
C423 C 0.15273 0.90566 0.15208 0.0
C424 C 0.10355 0.92179 0.18956 0.0
C425 C 0.15902 0.89159 0.1329 0.0
C426 C 0.06159 0.9966 0.24127 0.0
C427 C 0.07146 0.97854 0.22822 0.0
C428 C 0.12562 0.96338 0.19686 0.0
C429 C 0.12923 0.91119 0.1561 0.0
C430 C 0.12242 0.92682 0.17579 0.0
C431 C 0.09582 0.97653 0.22623 0.0
C432 C 0.10614 0.95873 0.21015 0.0
H433 H 0.10484 0.88236 0.1096 0.0
H434 H 0.09393 0.90662 0.14319 0.0
H435 H 0.14822 0.95191 0.16943 0.0
H436 H 0.11165 0.02336 0.25965 0.0
H437 H 0.12886 0.99137 0.2377 0.0
C438 C 0.62607 0.70926 0.58593 0.0
C439 C 0.62853 0.68747 0.57532 0.0
C440 C 0.61923 0.71263 0.60879 0.0
C441 C 0.61197 0.6828 0.66131 0.0
H442 H 0.56105 0.72418 0.67424 0.0
C443 C 0.55866 0.67885 0.7428 0.0
C444 C 0.5344 0.67913 0.73937 0.0
C445 C 0.57377 0.68596 0.7263 0.0
C446 C 0.57529 0.71256 0.67095 0.0
H447 H 0.62665 0.6522 0.5808 0.0
H448 H 0.61447 0.65804 0.62005 0.0
H449 H 0.58176 0.72416 0.63823 0.0
H450 H 0.50693 0.6879 0.71643 0.0
H451 H 0.53306 0.69969 0.6875 0.0
H452 H 0.60443 0.66993 0.69306 0.0
C453 C 0.61807 0.67259 0.611 0.0
C454 C 0.58739 0.71277 0.6504 0.0
C455 C 0.62483 0.66924 0.58829 0.0
C456 C 0.52554 0.68773 0.71969 0.0
C457 C 0.5406 0.69459 0.7031 0.0
C458 C 0.59975 0.68243 0.68171 0.0
C459 C 0.61487 0.69428 0.62149 0.0
C460 C 0.60527 0.69727 0.64497 0.0
C461 C 0.56494 0.69321 0.70586 0.0
C462 C 0.58067 0.69674 0.68643 0.0
H463 H 0.62885 0.72368 0.57646 0.0
H464 H 0.61707 0.72956 0.61644 0.0
H465 H 0.62601 0.67098 0.65789 0.0
H466 H 0.56595 0.67255 0.75796 0.0
H467 H 0.59238 0.6851 0.72924 0.0
C468 C 0.82195 0.08956 0.0398 0.0
C469 C 0.80924 0.1068 0.03087 0.0
C470 C 0.81051 0.07273 0.05035 0.0
C471 C 0.75665 0.05863 0.07921 0.0
H472 H 0.77489 0.99755 0.06095 0.0
C473 C 0.73417 0.9821 0.12896 0.0
C474 C 0.72881 0.96186 0.11609 0.0
C475 C 0.74071 0.00097 0.11815 0.0
C476 C 0.76942 0.01449 0.06608 0.0
H477 H 0.77449 0.12019 0.02672 0.0
H478 H 0.75456 0.0908 0.04542 0.0
H479 H 0.7934 0.02823 0.04331 0.0
H480 H 0.72432 0.94613 0.08176 0.0
H481 H 0.73599 0.97897 0.06296 0.0
H482 H 0.73284 0.04477 0.10224 0.0
C483 C 0.77339 0.09036 0.04411 0.0
C484 C 0.78021 0.03206 0.05615 0.0
C485 C 0.78482 0.10711 0.03331 0.0
C486 C 0.72882 0.96132 0.09218 0.0
C487 C 0.73548 0.98011 0.0814 0.0
C488 C 0.746 0.04101 0.08936 0.0
C489 C 0.78611 0.07284 0.05243 0.0
C490 C 0.77406 0.05431 0.0627 0.0
C491 C 0.74212 -6e-05 0.09427 0.0
C492 C 0.75234 0.01876 0.08291 0.0
H493 H 0.84075 0.08877 0.03827 0.0
H494 H 0.82077 0.05957 0.05687 0.0
H495 H 0.75164 0.07565 0.08462 0.0
H496 H 0.73456 0.98306 0.14739 0.0
H497 H 0.74587 0.016 0.12851 0.0
C498 C 0.43859 0.3298 0.5883 0.0
C499 C 0.42774 0.31301 0.57378 0.0
C500 C 0.46128 0.32692 0.59617 0.0
C501 C 0.51566 0.30199 0.57925 0.0
H502 H 0.5333 0.31324 0.64285 0.0
C503 C 0.61249 0.30634 0.60638 0.0
C504 C 0.6184 0.32322 0.62348 0.0
C505 C 0.58911 0.30074 0.60194 0.0
C506 C 0.52874 0.31024 0.62498 0.0
H507 H 0.43196 0.27996 0.55632 0.0
H508 H 0.47215 0.27528 0.56955 0.0
H509 H 0.49212 0.31189 0.63215 0.0
H510 H 0.60464 0.34746 0.64933 0.0
H511 H 0.564 0.33841 0.64114 0.0
H512 H 0.55205 0.30183 0.57172 0.0
C513 C 0.46283 0.29046 0.57504 0.0
C514 C 0.50515 0.3093 0.61894 0.0
C515 C 0.43989 0.29312 0.56756 0.0
C516 C 0.60057 0.33414 0.63628 0.0
C517 C 0.57723 0.32882 0.63162 0.0
C518 C 0.53927 0.30336 0.58523 0.0
C519 C 0.47371 0.3074 0.58931 0.0
C520 C 0.49845 0.30556 0.596 0.0
C521 C 0.57113 0.3122 0.61424 0.0
C522 C 0.54614 0.308 0.60815 0.0
H523 H 0.42958 0.34524 0.59346 0.0
H524 H 0.46941 0.34028 0.60703 0.0
H525 H 0.51086 0.29928 0.56141 0.0
H526 H 0.62597 0.29755 0.59641 0.0
H527 H 0.58514 0.28758 0.58871 0.0
C528 C 0.65569 0.60527 0.41975 0.0
C529 C 0.64225 0.60826 0.43972 0.0
C530 C 0.64885 0.58973 0.40178 0.0
C531 C 0.61306 0.53887 0.39052 0.0
H532 H 0.61251 0.55304 0.32756 0.0
C533 C 0.56286 0.48439 0.32271 0.0
C534 C 0.57401 0.47837 0.30188 0.0
C535 C 0.57219 0.50102 0.33814 0.0
C536 C 0.61282 0.54878 0.34504 0.0
H537 H 0.6108 0.59746 0.45612 0.0
H538 H 0.59902 0.5707 0.42499 0.0
H539 H 0.62773 0.58044 0.35735 0.0
H540 H 0.60325 0.48589 0.28056 0.0
H541 H 0.61977 0.51491 0.30784 0.0
H542 H 0.59806 0.50741 0.37848 0.0
C543 C 0.615 0.58008 0.42331 0.0
C544 C 0.62155 0.56443 0.36206 0.0
C545 C 0.62174 0.59556 0.44115 0.0
C546 C 0.59436 0.48998 0.29656 0.0
C547 C 0.60372 0.50671 0.31208 0.0
C548 C 0.60438 0.52332 0.37361 0.0
C549 C 0.62854 0.57682 0.40351 0.0
C550 C 0.62131 0.55977 0.38503 0.0
C551 C 0.59299 0.51202 0.33325 0.0
C552 C 0.60371 0.52825 0.35075 0.0
H553 H 0.67153 0.61484 0.41803 0.0
H554 H 0.65966 0.58752 0.38673 0.0
H555 H 0.61314 0.53457 0.408 0.0
H556 H 0.54737 0.47565 0.32757 0.0
H557 H 0.56328 0.50501 0.35415 0.0
C558 C 0.93748 0.20735 0.97791 0.0
C559 C 0.92953 0.18546 0.98017 0.0
C560 C 0.95975 0.2111 0.9694 0.0
C561 C 0.0066 0.1834 0.93493 0.0
H562 H 0.04635 0.22955 0.96488 0.0
C563 C 0.09652 0.20378 0.89892 0.0
C564 C 0.11506 0.2056 0.91469 0.0
C565 C 0.07344 0.20351 0.90638 0.0
C566 C 0.03545 0.21659 0.95636 0.0
H567 H 0.93887 0.15036 0.97508 0.0
H568 H 0.9776 0.15695 0.96032 0.0
H569 H 0.00686 0.22425 0.97898 0.0
H570 H 0.12383 0.20957 0.95066 0.0
H571 H 0.0835 0.20886 0.96369 0.0
H572 H 0.03527 0.17536 0.91266 0.0
C573 C 0.96654 0.1712 0.96498 0.0
C574 C 0.01278 0.21369 0.9643 0.0
C575 C 0.94436 0.16744 0.97359 0.0
C576 C 0.10995 0.20792 0.93809 0.0
C577 C 0.08684 0.20773 0.94555 0.0
C578 C 0.02918 0.18637 0.92694 0.0
C579 C 0.9745 0.19306 0.96281 0.0
C580 C 0.99819 0.1969 0.9538 0.0
C581 C 0.06834 0.20511 0.92977 0.0
C582 C 0.04394 0.20287 0.93766 0.0
H583 H 0.92655 0.22163 0.9828 0.0
H584 H 0.96533 0.22813 0.96774 0.0
H585 H 0.9957 0.17049 0.92633 0.0
H586 H 0.09985 0.20175 0.88078 0.0
H587 H 0.05957 0.20175 0.8938 0.0
C588 C 0.28233 0.3896 0.52045 0.0
C589 C 0.30675 0.39004 0.52307 0.0
C590 C 0.2709 0.40634 0.50961 0.0
C591 C 0.27798 0.46469 0.49747 0.0
H592 H 0.23088 0.45169 0.45064 0.0
C593 C 0.22849 0.53531 0.45926 0.0
C594 C 0.22859 0.53429 0.43533 0.0
C595 C 0.2346 0.51666 0.47053 0.0
C596 C 0.24397 0.45554 0.46374 0.0
H597 H 0.33827 0.40831 0.51598 0.0
H598 H 0.31831 0.43743 0.49732 0.0
H599 H 0.24917 0.42096 0.4689 0.0
H600 H 0.23401 0.51244 0.40448 0.0
H601 H 0.24444 0.4798 0.42421 0.0
H602 H 0.27318 0.49914 0.49219 0.0
C603 C 0.30803 0.4242 0.50373 0.0
C604 C 0.25431 0.438 0.47426 0.0
C605 C 0.31946 0.40741 0.51432 0.0
C606 C 0.23354 0.51376 0.42292 0.0
C607 C 0.23956 0.49505 0.43422 0.0
C608 C 0.26752 0.48218 0.48716 0.0
C609 C 0.28363 0.42396 0.50144 0.0
C610 C 0.27165 0.44242 0.49101 0.0
C611 C 0.24084 0.49652 0.45813 0.0
C612 C 0.25056 0.47781 0.47003 0.0
H613 H 0.272 0.37643 0.5269 0.0
H614 H 0.25206 0.4058 0.50813 0.0
H615 H 0.29113 0.46861 0.51049 0.0
H616 H 0.2243 0.55074 0.46932 0.0
H617 H 0.23502 0.51816 0.48898 0.0
C618 C 0.11281 0.79691 0.96699 0.0
C619 C 0.12784 0.81348 0.97702 0.0
C620 C 0.10603 0.79721 0.94414 0.0
C621 C 0.10168 0.83786 0.9004 0.0
H622 H 0.08165 0.78602 0.86118 0.0
C623 C 0.06489 0.84826 0.81194 0.0
C624 C 0.04234 0.83929 0.80848 0.0
C625 C 0.07905 0.84165 0.82947 0.0
C626 C 0.0873 0.8006 0.87196 0.0
H627 H 0.1492 0.84209 0.97086 0.0
H628 H 0.13863 0.84187 0.93083 0.0
H629 H 0.10034 0.7809 0.89782 0.0
H630 H 0.0177 0.8151 0.81973 0.0
H631 H 0.0426 0.80336 0.85012 0.0
H632 H 0.08864 0.85753 0.8747 0.0
C633 C 0.13103 0.8293 0.94064 0.0
C634 C 0.09787 0.79772 0.893 0.0
C635 C 0.13729 0.82933 0.96353 0.0
C636 C 0.03502 0.82225 0.82179 0.0
C637 C 0.04928 0.81552 0.83925 0.0
C638 C 0.09149 0.84069 0.87935 0.0
C639 C 0.11456 0.81383 0.93084 0.0
C640 C 0.10496 0.81636 0.90763 0.0
C641 C 0.07104 0.82579 0.8438 0.0
C642 C 0.08394 0.82215 0.86501 0.0
H643 H 0.10525 0.78457 0.97714 0.0
H644 H 0.09321 0.78511 0.93732 0.0
H645 H 0.10619 0.85271 0.91133 0.0
H646 H 0.07126 0.86107 0.80168 0.0
H647 H 0.09592 0.84959 0.8324 0.0
C648 C 0.87537 0.09777 0.93424 0.0
C649 C 0.85536 0.11128 0.93624 0.0
C650 C 0.87927 0.08364 0.91453 0.0
C651 C 0.84892 0.05486 0.86487 0.0
H652 H 0.91185 0.04649 0.84188 0.0
C653 C 0.87004 0.99735 0.78336 0.0
C654 C 0.88893 0.98274 0.78535 0.0
C655 C 0.86586 0.01472 0.80027 0.0
C656 C 0.89419 0.04859 0.84815 0.0
H657 H 0.82389 0.12063 0.91882 0.0
H658 H 0.83088 0.0961 0.88432 0.0
H659 H 0.90461 0.07378 0.87418 0.0
H660 H 0.91806 0.9749 0.8069 0.0
H661 H 0.91097 0.00527 0.83607 0.0
H662 H 0.83859 0.02948 0.83889 0.0
C663 C 0.84337 0.09624 0.89818 0.0
C664 C 0.89004 0.06418 0.86669 0.0
C665 C 0.83942 0.11038 0.91794 0.0
C666 C 0.90367 0.9861 0.80451 0.0
C667 C 0.89958 0.0035 0.82129 0.0
C668 C 0.85307 0.0393 0.84625 0.0
C669 C 0.86334 0.08269 0.89626 0.0
C670 C 0.86742 0.06725 0.87552 0.0
C671 C 0.88056 0.01793 0.81945 0.0
C672 C 0.87581 0.03574 0.83793 0.0
H673 H 0.888 0.09794 0.94798 0.0
H674 H 0.89463 0.07315 0.91379 0.0
H675 H 0.83133 0.05662 0.87138 0.0
H676 H 0.85851 0.99542 0.7687 0.0
H677 H 0.8512 0.02572 0.79828 0.0
C678 C 0.38448 0.29693 0.46658 0.0
C679 C 0.38248 0.31793 0.47905 0.0
C680 C 0.39328 0.29521 0.44435 0.0
C681 C 0.43058 0.32616 0.40714 0.0
H682 H 0.4044 0.28671 0.35779 0.0
C683 C 0.45915 0.33234 0.31512 0.0
C684 C 0.46384 0.31237 0.30165 0.0
C685 C 0.448 0.33197 0.33606 0.0
C686 C 0.41203 0.29763 0.37147 0.0
H687 H 0.38732 0.35365 0.47744 0.0
H688 H 0.40237 0.35062 0.43888 0.0
H689 H 0.38706 0.2879 0.3958 0.0
H690 H 0.45971 0.27633 0.29941 0.0
H691 H 0.44044 0.27567 0.33634 0.0
H692 H 0.4555 0.33591 0.38306 0.0
C693 C 0.39759 0.33544 0.44639 0.0
C694 C 0.40211 0.29831 0.39322 0.0
C695 C 0.38883 0.33716 0.46851 0.0
C696 C 0.45653 0.292 0.30945 0.0
C697 C 0.44531 0.29163 0.33049 0.0
C698 C 0.44044 0.32548 0.38552 0.0
C699 C 0.40029 0.31444 0.43417 0.0
C700 C 0.41112 0.31282 0.41122 0.0
C701 C 0.44133 0.31162 0.34421 0.0
C702 C 0.43113 0.31144 0.36734 0.0
H703 H 0.37972 0.28176 0.47412 0.0
H704 H 0.39524 0.27879 0.4354 0.0
H705 H 0.43831 0.33711 0.42076 0.0
H706 H 0.46481 0.34832 0.3099 0.0
H707 H 0.44486 0.34769 0.34604 0.0
C708 C 0.18914 0.89148 0.00328 0.0
C709 C 0.19643 0.88754 0.02532 0.0
C710 C 0.19915 0.90862 0.99211 0.0
C711 C 0.24743 0.95092 0.99496 0.0
H712 H 0.2028 0.98308 0.96064 0.0
C713 C 0.25794 0.04205 0.96932 0.0
C714 C 0.25019 0.04603 0.94736 0.0
C715 C 0.2555 0.02084 0.97718 0.0
C716 C 0.21557 0.97411 0.9699 0.0
H717 H 0.22049 0.89779 0.05272 0.0
H718 H 0.23736 0.92859 0.03367 0.0
H719 H 0.19049 0.94975 0.97767 0.0
H720 H 0.23485 0.03062 0.91607 0.0
H721 H 0.23065 0.99372 0.92977 0.0
H722 H 0.27216 0.97637 0.9879 0.0
C723 C 0.22433 0.91807 0.02468 0.0
C724 C 0.20857 0.95488 0.97962 0.0
C725 C 0.21462 0.90049 0.03568 0.0
C726 C 0.24119 0.02809 0.93299 0.0
C727 C 0.23858 0.007 0.94089 0.0
C728 C 0.25437 0.97047 0.98546 0.0
C729 C 0.21629 0.9227 0.00296 0.0
C730 C 0.22437 0.94292 0.99222 0.0
C731 C 0.24505 0.00334 0.96328 0.0
C732 C 0.23848 0.98218 0.97277 0.0
H733 H 0.1754 0.88145 0.99476 0.0
H734 H 0.19304 0.91112 0.97511 0.0
H735 H 0.26016 0.94208 0.00437 0.0
H736 H 0.26512 0.05552 0.9807 0.0
H737 H 0.26057 0.01848 0.99453 0.0
C738 C 0.56571 0.70665 0.48097 0.0
C739 C 0.57465 0.68511 0.48296 0.0
C740 C 0.54279 0.70946 0.47341 0.0
C741 C 0.49493 0.67928 0.44167 0.0
H742 H 0.45412 0.72089 0.47617 0.0
C743 C 0.39145 0.68771 0.45941 0.0
C744 C 0.38277 0.68254 0.43721 0.0
C745 C 0.41506 0.69273 0.46308 0.0
C746 C 0.46534 0.70926 0.46631 0.0
H747 H 0.56652 0.64964 0.4782 0.0
H748 H 0.52682 0.65457 0.46514 0.0
H749 H 0.49558 0.71982 0.486 0.0
H750 H 0.39188 0.6798 0.40137 0.0
H751 H 0.43295 0.689 0.40777 0.0
H752 H 0.46471 0.66798 0.42264 0.0
C753 C 0.53752 0.66929 0.46926 0.0
C754 C 0.48909 0.70879 0.47181 0.0
C755 C 0.56026 0.66649 0.47695 0.0
C756 C 0.39795 0.6838 0.41869 0.0
C757 C 0.42155 0.68884 0.42237 0.0
C758 C 0.47126 0.67979 0.43614 0.0
C759 C 0.5285 0.69077 0.46744 0.0
C760 C 0.504 0.69338 0.45991 0.0
C761 C 0.43051 0.69271 0.44463 0.0
C762 C 0.45608 0.69443 0.44871 0.0
H763 H 0.57631 0.72136 0.48546 0.0
H764 H 0.53631 0.72621 0.47208 0.0
H765 H 0.50606 0.66742 0.432 0.0
H766 H 0.38013 0.6872 0.47402 0.0
H767 H 0.42138 0.6955 0.48045 0.0
C768 C 0.37517 0.393 0.62362 0.0
C769 C 0.3525 0.38539 0.61792 0.0
C770 C 0.37907 0.40838 0.6424 0.0
C771 C 0.38049 0.45205 0.67141 0.0
H772 H 0.34638 0.45251 0.72811 0.0
C773 C 0.38432 0.52788 0.73742 0.0
C774 C 0.38616 0.52401 0.76051 0.0
C775 C 0.37928 0.51037 0.72096 0.0
C776 C 0.35619 0.4525 0.71245 0.0
H777 H 0.3162 0.38745 0.62802 0.0
H778 H 0.32293 0.41485 0.66061 0.0
H779 H 0.34004 0.42211 0.69826 0.0
H780 H 0.38371 0.49883 0.78456 0.0
H781 H 0.37524 0.46799 0.75565 0.0
H782 H 0.39707 0.48199 0.6856 0.0
C783 C 0.33775 0.40862 0.65069 0.0
C784 C 0.35236 0.43521 0.69525 0.0
C785 C 0.33387 0.39299 0.63194 0.0
C786 C 0.38231 0.50229 0.76688 0.0
C787 C 0.37741 0.48467 0.75033 0.0
C788 C 0.38437 0.46919 0.68856 0.0
C789 C 0.36037 0.4168 0.65588 0.0
C790 C 0.36447 0.43482 0.6745 0.0
C791 C 0.37612 0.48848 0.72713 0.0
C792 C 0.37217 0.46976 0.70923 0.0
H793 H 0.39 0.3872 0.61342 0.0
H794 H 0.39678 0.41386 0.64622 0.0
H795 H 0.38988 0.45251 0.65555 0.0
H796 H 0.38669 0.54453 0.73205 0.0
H797 H 0.37785 0.51404 0.70333 0.0
C798 C 0.06328 0.7886 0.0694 0.0
C799 C 0.07263 0.8102 0.06845 0.0
C800 C 0.0403 0.78572 0.07661 0.0
C801 C 0.993 0.81522 0.10909 0.0
H802 H 0.95133 0.77561 0.07242 0.0
C803 C 0.88941 0.80911 0.08978 0.0
C804 C 0.88072 0.81348 0.112 0.0
C805 C 0.91292 0.8039 0.08621 0.0
C806 C 0.96278 0.78667 0.08288 0.0
H807 H 0.06517 0.84565 0.07469 0.0
H808 H 0.02539 0.84058 0.08712 0.0
H809 H 0.99286 0.77647 0.06317 0.0
H810 H 0.88972 0.81464 0.1479 0.0
H811 H 0.9306 0.80511 0.14164 0.0
H812 H 0.96298 0.82623 0.12817 0.0
C813 C 0.0358 0.82588 0.08246 0.0
C814 C 0.98658 0.78701 0.07771 0.0
C815 C 0.05859 0.82877 0.07513 0.0
C816 C 0.89578 0.81127 0.13056 0.0
C817 C 0.91929 0.80604 0.12698 0.0
C818 C 0.9693 0.81485 0.11429 0.0
C819 C 0.02636 0.80436 0.08325 0.0
C820 C 0.0018 0.80172 0.09041 0.0
C821 C 0.92827 0.80293 0.10477 0.0
C822 C 0.95381 0.80095 0.10094 0.0
H823 H 0.07361 0.77394 0.06437 0.0
H824 H 0.03348 0.76893 0.07713 0.0
H825 H 0.00437 0.82653 0.11937 0.0
H826 H 0.87817 0.81036 0.07512 0.0
H827 H 0.91927 0.80174 0.06887 0.0
C828 C 0.68628 0.59594 0.54577 0.0
C829 C 0.69795 0.60942 0.53107 0.0
C830 C 0.69851 0.58034 0.55737 0.0
C831 C 0.75276 0.5474 0.55497 0.0
H832 H 0.73433 0.53542 0.61594 0.0
C833 C 0.77466 0.46529 0.59402 0.0
C834 C 0.778 0.46562 0.61771 0.0
C835 C 0.76869 0.48477 0.58408 0.0
C836 C 0.74001 0.53875 0.59907 0.0
H837 H 0.73184 0.61729 0.5175 0.0
H838 H 0.75319 0.59021 0.538 0.0
H839 H 0.71652 0.56624 0.59816 0.0
H840 H 0.77885 0.48703 0.64935 0.0
H841 H 0.76914 0.52114 0.63191 0.0
H842 H 0.77635 0.51995 0.55595 0.0
C843 C 0.73449 0.59151 0.54024 0.0
C844 C 0.72953 0.55625 0.58873 0.0
C845 C 0.72225 0.60711 0.52857 0.0
C846 C 0.77653 0.48617 0.63104 0.0
C847 C 0.77065 0.50569 0.62108 0.0
C848 C 0.76331 0.52992 0.56535 0.0
C849 C 0.72274 0.57784 0.55468 0.0
C850 C 0.73543 0.56053 0.56639 0.0
C851 C 0.76604 0.50511 0.59756 0.0
C852 C 0.75676 0.52512 0.58737 0.0
H853 H 0.66759 0.59717 0.5481 0.0
H854 H 0.68881 0.56985 0.56805 0.0
H855 H 0.75762 0.55013 0.53769 0.0
H856 H 0.77599 0.4498 0.58321 0.0
H857 H 0.76513 0.48363 0.56595 0.0
C858 C 0.88654 0.16325 0.08685 0.0
C859 C 0.88182 0.18205 0.07497 0.0
C860 C 0.89292 0.16574 0.10981 0.0
C861 C 0.91964 0.20553 0.15306 0.0
H862 H 0.89753 0.16334 0.19435 0.0
C863 C 0.95353 0.20658 0.24589 0.0
C864 C 0.96033 0.18554 0.25234 0.0
C865 C 0.94046 0.20828 0.22599 0.0
C866 C 0.90388 0.17524 0.18303 0.0
H867 H 0.87986 0.21829 0.07816 0.0
H868 H 0.8911 0.2226 0.11837 0.0
H869 H 0.88115 0.16248 0.15601 0.0
H870 H 0.95853 0.1498 0.24285 0.0
H871 H 0.93566 0.15277 0.20854 0.0
H872 H 0.94287 0.21785 0.17989 0.0
C873 C 0.88994 0.20593 0.10976 0.0
C874 C 0.89452 0.17473 0.16107 0.0
C875 C 0.88342 0.20344 0.08674 0.0
C876 C 0.95319 0.16626 0.23875 0.0
C877 C 0.94008 0.16796 0.21899 0.0
C878 C 0.92903 0.20603 0.17505 0.0
C879 C 0.8948 0.1871 0.12152 0.0
C880 C 0.90271 0.18949 0.14565 0.0
C881 C 0.93382 0.18897 0.2122 0.0
C882 C 0.92166 0.19051 0.19007 0.0
H883 H 0.88547 0.14651 0.07841 0.0
H884 H 0.89691 0.15091 0.11826 0.0
H885 H 0.92645 0.21701 0.14153 0.0
H886 H 0.9585 0.22175 0.25609 0.0
H887 H 0.93569 0.2247 0.2213 0.0
C888 C 0.17423 0.79141 0.139 0.0
C889 C 0.16733 0.77982 0.11827 0.0
C890 C 0.17534 0.78051 0.15891 0.0
C891 C 0.18502 0.72597 0.17921 0.0
H892 H 0.16281 0.75465 0.23658 0.0
C893 C 0.20316 0.68837 0.26445 0.0
C894 C 0.211 0.70378 0.28223 0.0
C895 C 0.19332 0.69581 0.2447 0.0
C896 C 0.16921 0.74645 0.22073 0.0
H897 H 0.156 0.74764 0.10227 0.0
H898 H 0.15839 0.72843 0.13719 0.0
H899 H 0.1542 0.77124 0.20117 0.0
H900 H 0.21343 0.73903 0.29373 0.0
H901 H 0.197 0.75198 0.25923 0.0
H902 H 0.20099 0.70176 0.19876 0.0
C903 C 0.16279 0.74603 0.1379 0.0
C904 C 0.1642 0.75592 0.20046 0.0
C905 C 0.16136 0.75705 0.11797 0.0
C906 C 0.20792 0.72672 0.2802 0.0
C907 C 0.19817 0.73414 0.2605 0.0
C908 C 0.19022 0.71658 0.19952 0.0
C909 C 0.16983 0.75768 0.15855 0.0
C910 C 0.17252 0.74607 0.17957 0.0
C911 C 0.19108 0.71881 0.24234 0.0
C912 C 0.18287 0.72703 0.22059 0.0
H913 H 0.17882 0.80899 0.13988 0.0
H914 H 0.18109 0.78984 0.17452 0.0
H915 H 0.1918 0.71811 0.16335 0.0
H916 H 0.20538 0.67058 0.26544 0.0
H917 H 0.18778 0.68354 0.23116 0.0
C918 C 0.72205 0.73671 0.53344 0.0
C919 C 0.72367 0.71413 0.52504 0.0
C920 C 0.74058 0.74733 0.54551 0.0
C921 C 0.80382 0.74176 0.55858 0.0
H922 H 0.7887 0.78361 0.6103 0.0
C923 C 0.8704 0.7742 0.62836 0.0
C924 C 0.86981 0.7972 0.63541 0.0
C925 C 0.85347 0.76453 0.61339 0.0
C926 C 0.79319 0.77214 0.59576 0.0
H927 H 0.74613 0.68503 0.52266 0.0
H928 H 0.77818 0.70334 0.54431 0.0
H929 H 0.75741 0.76572 0.58728 0.0
H930 H 0.85146 0.82818 0.63136 0.0
H931 H 0.82164 0.81115 0.60573 0.0
H932 H 0.8397 0.74782 0.5677 0.0
C933 C 0.76281 0.71304 0.54111 0.0
C934 C 0.77526 0.76192 0.58249 0.0
C935 C 0.74437 0.70248 0.52877 0.0
C936 C 0.85217 0.81035 0.62672 0.0
C937 C 0.83513 0.80063 0.61196 0.0
C938 C 0.82176 0.75182 0.57205 0.0
C939 C 0.76109 0.73557 0.54978 0.0
C940 C 0.78032 0.74661 0.56369 0.0
C941 C 0.83548 0.7776 0.60533 0.0
C942 C 0.8166 0.76713 0.59075 0.0
H943 H 0.70645 0.74624 0.53065 0.0
H944 H 0.73879 0.76481 0.55148 0.0
H945 H 0.80841 0.73035 0.54405 0.0
H946 H 0.88351 0.7635 0.63492 0.0
H947 H 0.85401 0.74669 0.60871 0.0
C948 C 0.7899 0.23304 0.04824 0.0
C949 C 0.7847 0.21396 0.03346 0.0
C950 C 0.77253 0.24369 0.06165 0.0
C951 C 0.70888 0.25073 0.06624 0.0
H952 H 0.72391 0.27224 0.12861 0.0
C953 C 0.64052 0.29175 0.12911 0.0
C954 C 0.64802 0.311 0.14253 0.0
C955 C 0.65647 0.2787 0.11591 0.0
C956 C 0.71949 0.26649 0.11118 0.0
H957 H 0.75695 0.19124 0.0212 0.0
H958 H 0.72664 0.20986 0.04475 0.0
H959 H 0.75304 0.25171 0.10532 0.0
H960 H 0.67819 0.33137 0.15291 0.0
H961 H 0.70582 0.30891 0.12967 0.0
H962 H 0.67535 0.26575 0.07211 0.0
C963 C 0.74419 0.21662 0.04576 0.0
C964 C 0.73618 0.25473 0.09783 0.0
C965 C 0.7616 0.2059 0.03235 0.0
C966 C 0.67178 0.31682 0.14254 0.0
C967 C 0.68768 0.30378 0.12944 0.0
C968 C 0.69214 0.26253 0.07963 0.0
C969 C 0.7495 0.23558 0.06064 0.0
C970 C 0.7312 0.24698 0.07512 0.0
C971 C 0.68025 0.28454 0.11601 0.0
C972 C 0.69739 0.2708 0.10215 0.0
H973 H 0.80744 0.2398 0.04954 0.0
H974 H 0.77713 0.25847 0.07266 0.0
H975 H 0.70458 0.24514 0.04874 0.0
H976 H 0.6223 0.28691 0.12864 0.0
H977 H 0.65024 0.26389 0.10585 0.0
C978 C 0.31974 0.29055 0.63467 0.0
C979 C 0.33057 0.28035 0.61507 0.0
C980 C 0.31845 0.27958 0.65454 0.0
C981 C 0.31866 0.22411 0.67562 0.0
H982 H 0.33152 0.25716 0.73392 0.0
C983 C 0.31361 0.1825 0.76035 0.0
C984 C 0.30285 0.19503 0.77868 0.0
C985 C 0.31938 0.19243 0.74052 0.0
C986 C 0.32766 0.24773 0.71781 0.0
H987 H 0.34844 0.25046 0.60105 0.0
H988 H 0.34593 0.2312 0.63584 0.0
H989 H 0.33685 0.27526 0.69887 0.0
H990 H 0.29044 0.22804 0.79074 0.0
H991 H 0.29983 0.24514 0.75603 0.0
H992 H 0.30884 0.19676 0.69453 0.0
C993 C 0.33848 0.24774 0.6357 0.0
C994 C 0.33077 0.2581 0.69773 0.0
C995 C 0.33998 0.25881 0.61582 0.0
C996 C 0.29841 0.21781 0.77685 0.0
C997 C 0.3041 0.2277 0.75702 0.0
C998 C 0.31538 0.21376 0.69573 0.0
C999 C 0.32779 0.25807 0.65529 0.0
C1000 C 0.32602 0.2465 0.67645 0.0
C1001 C 0.31451 0.21511 0.73853 0.0
C1002 C 0.31955 0.22555 0.71709 0.0
H1003 H 0.31235 0.30713 0.63477 0.0
H1004 H 0.30983 0.28785 0.66927 0.0
H1005 H 0.31465 0.21482 0.65946 0.0
H1006 H 0.31709 0.16486 0.7611 0.0
H1007 H 0.32762 0.1823 0.72672 0.0
C1008 C 0.67544 0.69854 0.41162 0.0
C1009 C 0.66992 0.71173 0.43174 0.0
C1010 C 0.67807 0.70822 0.39113 0.0
C1011 C 0.66754 0.75993 0.36213 0.0
H1012 H 0.71773 0.73573 0.32364 0.0
C1013 C 0.70699 0.80159 0.28489 0.0
C1014 C 0.71193 0.78708 0.26545 0.0
C1015 C 0.69889 0.79311 0.30481 0.0
C1016 C 0.70349 0.74253 0.33408 0.0
H1017 H 0.66217 0.74538 0.44603 0.0
H1018 H 0.66754 0.7625 0.41027 0.0
H1019 H 0.70974 0.71984 0.35926 0.0
H1020 H 0.71046 0.75255 0.25114 0.0
H1021 H 0.69674 0.73781 0.28592 0.0
H1022 H 0.66199 0.78316 0.33691 0.0
C1023 C 0.6694 0.74457 0.41026 0.0
C1024 C 0.69882 0.73337 0.3545 0.0
C1025 C 0.66642 0.73479 0.43078 0.0
C1026 C 0.70739 0.76411 0.26598 0.0
C1027 C 0.69947 0.75567 0.28586 0.0
C1028 C 0.67243 0.76931 0.34171 0.0
C1029 C 0.67565 0.73142 0.39025 0.0
C1030 C 0.68063 0.74175 0.36871 0.0
C1031 C 0.69572 0.76999 0.30565 0.0
C1032 C 0.69031 0.7605 0.3274 0.0
H1033 H 0.67784 0.68066 0.4117 0.0
H1034 H 0.68219 0.69744 0.37598 0.0
H1035 H 0.6533 0.76671 0.37255 0.0
H1036 H 0.71043 0.81934 0.28509 0.0
H1037 H 0.69621 0.8045 0.31987 0.0
C1038 C 0.82425 0.20204 0.91635 0.0
C1039 C 0.83121 0.21452 0.93653 0.0
C1040 C 0.82156 0.21228 0.89619 0.0
C1041 C 0.83502 0.2639 0.86805 0.0
H1042 H 0.78377 0.24223 0.82886 0.0
C1043 C 0.79784 0.30702 0.79029 0.0
C1044 C 0.79298 0.2926 0.77068 0.0
C1045 C 0.8054 0.29841 0.81039 0.0
C1046 C 0.79827 0.24833 0.83954 0.0
H1047 H 0.84121 0.24751 0.95133 0.0
H1048 H 0.83566 0.26569 0.91617 0.0
H1049 H 0.79048 0.22588 0.86453 0.0
H1050 H 0.79417 0.25809 0.75628 0.0
H1051 H 0.80683 0.24314 0.79141 0.0
H1052 H 0.84211 0.28695 0.84301 0.0
C1053 C 0.83277 0.24784 0.91583 0.0
C1054 C 0.80222 0.2389 0.85997 0.0
C1055 C 0.83583 0.23747 0.93602 0.0
C1056 C 0.79717 0.2696 0.77123 0.0
C1057 C 0.8045 0.26102 0.7913 0.0
C1058 C 0.83083 0.27359 0.84764 0.0
C1059 C 0.82532 0.23539 0.89571 0.0
C1060 C 0.82084 0.2463 0.87438 0.0
C1061 C 0.80806 0.27526 0.81122 0.0
C1062 C 0.8126 0.26564 0.83309 0.0
H1063 H 0.82098 0.18423 0.91606 0.0
H1064 H 0.8165 0.20199 0.88093 0.0
H1065 H 0.84963 0.26992 0.87862 0.0
H1066 H 0.79466 0.3248 0.79048 0.0
H1067 H 0.80798 0.30972 0.82556 0.0
C1068 C 0.28984 0.26727 0.49964 0.0
C1069 C 0.28376 0.28198 0.51854 0.0
C1070 C 0.27271 0.25538 0.48674 0.0
C1071 C 0.20926 0.25374 0.47413 0.0
H1072 H 0.22353 0.19305 0.45032 0.0
C1073 C 0.14206 0.19359 0.42618 0.0
C1074 C 0.15018 0.1825 0.40574 0.0
C1075 C 0.15748 0.20583 0.441 0.0
C1076 C 0.21934 0.21001 0.45678 0.0
H1077 H 0.25479 0.29585 0.53862 0.0
H1078 H 0.22482 0.27463 0.51639 0.0
H1079 H 0.25189 0.21423 0.47441 0.0
H1080 H 0.1808 0.17521 0.38498 0.0
H1081 H 0.20766 0.19649 0.41082 0.0
H1082 H 0.1765 0.24921 0.45654 0.0
C1083 C 0.24287 0.2726 0.5113 0.0
C1084 C 0.23562 0.22221 0.47051 0.0
C1085 C 0.26006 0.28471 0.5241 0.0
C1086 C 0.174 0.18376 0.4005 0.0
C1087 C 0.1894 0.19576 0.41538 0.0
C1088 C 0.19285 0.24141 0.46053 0.0
C1089 C 0.24902 0.25767 0.49255 0.0
C1090 C 0.23098 0.24436 0.47905 0.0
C1091 C 0.18132 0.20691 0.43578 0.0
C1092 C 0.19791 0.21955 0.45144 0.0
H1093 H 0.30791 0.26498 0.49468 0.0
H1094 H 0.27807 0.24448 0.47209 0.0
H1095 H 0.20517 0.27081 0.48023 0.0
H1096 H 0.12376 0.19298 0.43059 0.0
H1097 H 0.15083 0.21419 0.45668 0.0
C1098 C 0.24415 0.78919 0.03035 0.0
C1099 C 0.22114 0.78178 0.02593 0.0
C1100 C 0.26284 0.77876 0.01863 0.0
C1101 C 0.27936 0.72662 0.98421 0.0
H1102 H 0.32854 0.76353 0.96227 0.0
C1103 C 0.3457 0.69377 0.91607 0.0
C1104 C 0.369 0.70097 0.91868 0.0
C1105 C 0.32845 0.70278 0.93077 0.0
C1106 C 0.31512 0.75296 0.96855 0.0
H1107 H 0.19985 0.75746 0.00564 0.0
H1108 H 0.23238 0.73955 0.98504 0.0
H1109 H 0.29689 0.781 0.98474 0.0
H1110 H 0.39254 0.72277 0.93933 0.0
H1111 H 0.36234 0.73862 0.96493 0.0
H1112 H 0.29744 0.69862 0.96765 0.0
C1113 C 0.23601 0.7532 0.99784 0.0
C1114 C 0.29697 0.76297 0.98144 0.0
C1115 C 0.21732 0.76359 0.00958 0.0
C1116 C 0.3747 0.71711 0.93663 0.0
C1117 C 0.35742 0.72618 0.9513 0.0
C1118 C 0.29748 0.71662 0.97126 0.0
C1119 C 0.25899 0.76069 0.00219 0.0
C1120 C 0.27878 0.74994 0.98927 0.0
C1121 C 0.33407 0.71925 0.9484 0.0
C1122 C 0.31546 0.7297 0.96314 0.0
H1123 H 0.24779 0.80308 0.04289 0.0
H1124 H 0.28036 0.78476 0.0226 0.0
H1125 H 0.26583 0.71606 0.99031 0.0
H1126 H 0.34062 0.68165 0.90221 0.0
H1127 H 0.31057 0.69733 0.92788 0.0
loop_
_geom_bond_atom_site_label_1
_geom_bond_atom_site_label_2
_geom_bond_distance
_geom_bond_site_symmetry_2
_ccdc_geom_bond_type
Sc0 O3 2.025 . S
Sc0 O10 2.105 . S
Sc0 O13 2.105 . S
Sc0 O16 2.105 . S
Sc0 O19 2.105 . S
Sc1 O3 2.025 . S
Sc1 O11 2.105 . S
Sc1 O15 2.105 . S
Sc1 O17 2.105 . S
Sc1 O21 2.105 . S
Sc2 O3 2.025 . S
Sc2 O12 2.105 . S
Sc2 O14 2.105 . S
Sc2 O18 2.105 . S
Sc2 O20 2.105 . S
O3 Sc0 2.025 . S
O3 Sc1 2.025 . S
O3 Sc2 2.025 . S
C4 O10 1.268 . S
C4 O20 1.268 . S
C5 O11 1.270 1_556 S
C5 O19 1.270 1_556 S
C6 O12 1.268 . S
C6 O21 1.268 . S
C7 O13 1.268 . S
C7 O17 1.268 . S
C8 O14 1.268 . S
C8 O16 1.268 . S
C9 O15 1.268 . S
C9 O18 1.268 . S
O10 Sc0 2.105 . S
O10 C4 1.268 . S
O11 Sc1 2.105 . S
O11 C5 1.270 1_554 S
O12 Sc2 2.105 . S
O12 C6 1.268 . S
O13 Sc0 2.105 . S
O13 C7 1.268 . S
O14 Sc2 2.105 . S
O14 C8 1.268 . S
O15 Sc1 2.105 . S
O15 C9 1.268 . S
O16 Sc0 2.105 . S
O16 C8 1.268 . S
O17 Sc1 2.105 . S
O17 C7 1.268 . S
O18 Sc2 2.105 . S
O18 C9 1.268 . S
O19 Sc0 2.105 . S
O19 C5 1.270 1_554 S
O20 Sc2 2.105 . S
O20 C4 1.268 . S
O21 Sc1 2.105 . S
O21 C6 1.268 . S
Sc22 O25 2.025 . S
Sc22 O32 2.105 . S
Sc22 O35 2.105 . S
Sc22 O38 2.105 . S
Sc22 O41 2.105 . S
Sc23 O25 2.025 . S
Sc23 O33 2.105 . S
Sc23 O37 2.105 . S
Sc23 O39 2.105 . S
Sc23 O43 2.105 . S
Sc24 O25 2.025 . S
Sc24 O34 2.105 . S
Sc24 O36 2.105 . S
Sc24 O40 2.105 . S
Sc24 O42 2.105 . S
O25 Sc22 2.025 . S
O25 Sc23 2.025 . S
O25 Sc24 2.025 . S
C26 O32 1.268 . S
C26 O42 1.268 . S
C27 O33 1.268 . S
C27 O41 1.268 . S
C28 O34 1.268 . S
C28 O43 1.268 . S
C29 O35 1.268 . S
C29 O39 1.268 . S
C30 O36 1.268 . S
C30 O38 1.268 . S
C31 O37 1.268 . S
C31 O40 1.268 . S
O32 Sc22 2.105 . S
O32 C26 1.268 . S
O33 Sc23 2.105 . S
O33 C27 1.268 . S
O34 Sc24 2.105 . S
O34 C28 1.268 . S
O35 Sc22 2.105 . S
O35 C29 1.268 . S
O36 Sc24 2.105 . S
O36 C30 1.268 . S
O37 Sc23 2.105 . S
O37 C31 1.268 . S
O38 Sc22 2.105 . S
O38 C30 1.268 . S
O39 Sc23 2.105 . S
O39 C29 1.268 . S
O40 Sc24 2.105 . S
O40 C31 1.268 . S
O41 Sc22 2.105 . S
O41 C27 1.268 . S
O42 Sc24 2.105 . S
O42 C26 1.268 . S
O43 Sc23 2.105 . S
O43 C28 1.268 . S
Sc44 O47 2.025 . S
Sc44 O54 2.105 1_554 S
Sc44 O57 2.105 . S
Sc44 O60 2.105 . S
Sc44 O63 2.105 1_554 S
Sc45 O47 2.025 1_556 S
Sc45 O55 2.105 . S
Sc45 O59 2.105 1_556 S
Sc45 O61 2.105 1_556 S
Sc45 O65 2.105 . S
Sc46 O47 2.025 . S
Sc46 O56 2.105 1_554 S
Sc46 O58 2.105 . S
Sc46 O62 2.105 . S
Sc46 O64 2.105 1_554 S
O47 Sc44 2.025 . S
O47 Sc45 2.025 1_554 S
O47 Sc46 2.025 . S
C48 O54 1.268 . S
C48 O64 1.268 . S
C49 O55 1.268 . S
C49 O63 1.268 . S
C50 O56 1.268 . S
C50 O65 1.268 . S
C51 O57 1.268 . S
C51 O61 1.268 . S
C52 O58 1.268 . S
C52 O60 1.268 . S
C53 O59 1.268 . S
C53 O62 1.268 . S
O54 Sc44 2.105 1_556 S
O54 C48 1.268 . S
O55 Sc45 2.105 . S
O55 C49 1.268 . S
O56 Sc46 2.105 1_556 S
O56 C50 1.268 . S
O57 Sc44 2.105 . S
O57 C51 1.268 . S
O58 Sc46 2.105 . S
O58 C52 1.268 . S
O59 Sc45 2.105 1_554 S
O59 C53 1.268 . S
O60 Sc44 2.105 . S
O60 C52 1.268 . S
O61 Sc45 2.105 1_554 S
O61 C51 1.268 . S
O62 Sc46 2.105 . S
O62 C53 1.268 . S
O63 Sc44 2.105 1_556 S
O63 C49 1.268 . S
O64 Sc46 2.105 1_556 S
O64 C48 1.268 . S
O65 Sc45 2.105 . S
O65 C50 1.268 . S
Sc66 O69 2.025 . S
Sc66 O76 2.105 . S
Sc66 O79 2.105 . S
Sc66 O82 2.105 . S
Sc66 O85 2.105 . S
Sc67 O69 2.025 . S
Sc67 O77 2.105 . S
Sc67 O81 2.105 . S
Sc67 O83 2.105 . S
Sc67 O87 2.105 . S
Sc68 O69 2.025 . S
Sc68 O78 2.105 . S
Sc68 O80 2.105 . S
Sc68 O84 2.105 . S
Sc68 O86 2.105 . S
O69 Sc66 2.025 . S
O69 Sc67 2.025 . S
O69 Sc68 2.025 . S
C70 O76 1.268 . S
C70 O86 1.268 . S
C71 O77 1.268 . S
C71 O85 1.268 . S
C72 O78 1.268 . S
C72 O87 1.268 . S
C73 O79 1.268 . S
C73 O83 1.268 . S
C74 O80 1.268 . S
C74 O82 1.268 . S
C75 O81 1.268 . S
C75 O84 1.268 . S
O76 Sc66 2.105 . S
O76 C70 1.268 . S
O77 Sc67 2.105 . S
O77 C71 1.268 . S
O78 Sc68 2.105 . S
O78 C72 1.268 . S
O79 Sc66 2.105 . S
O79 C73 1.268 . S
O80 Sc68 2.105 . S
O80 C74 1.268 . S
O81 Sc67 2.105 . S
O81 C75 1.268 . S
O82 Sc66 2.105 . S
O82 C74 1.268 . S
O83 Sc67 2.105 . S
O83 C73 1.268 . S
O84 Sc68 2.105 . S
O84 C75 1.268 . S
O85 Sc66 2.105 . S
O85 C71 1.268 . S
O86 Sc68 2.105 . S
O86 C70 1.268 . S
O87 Sc67 2.105 . S
O87 C72 1.268 . S
C88 C89 1.264 1_455 S
C88 C93 1.479 1_455 S
C88 C98 1.465 . S
C89 C88 1.264 1_655 S
C89 C91 1.339 . S
C89 H116 0.931 1_655 S
C90 C91 1.395 . S
C90 C92 1.320 . S
C91 C89 1.339 . S
C91 C90 1.395 . S
C91 H117 0.929 . S
C92 C90 1.320 . S
C92 C93 1.405 . S
C92 H118 0.930 . S
C93 C88 1.479 1_655 S
C93 C92 1.405 . S
C93 H119 0.931 1_655 S
U94 O95 2.454 . S
U94 O96 2.458 . S
U94 C97 2.984 . S
U94 C98 2.847 . S
U94 C111 2.882 . S
U94 O112 2.441 . S
U94 O113 2.420 . S
U94 O114 2.455 . S
U94 O115 2.449 . S
O95 U94 2.454 . S
O95 C97 1.353 . S
O96 U94 2.458 . S
O96 C97 1.286 . S
C97 U94 2.984 . S
C97 O95 1.353 . S
C97 O96 1.286 . S
C97 C99 1.363 . S
C98 C88 1.465 . S
C98 U94 2.847 . S
C98 O112 1.249 . S
C98 O113 1.202 . S
C99 C97 1.363 . S
C99 C101 1.408 . S
C99 C104 1.342 . S
C100 C101 1.310 . S
C100 C103 1.461 . S
C100 H120 0.932 . S
C101 C99 1.408 . S
C101 C100 1.310 . S
C101 H121 0.930 . S
C102 C103 1.474 . S
C102 C104 1.285 . S
C102 H122 0.929 . S
C103 C100 1.461 . S
C103 C102 1.474 . S
C104 C99 1.342 . S
C104 C102 1.285 . S
C104 H123 0.930 . S
C105 C108 1.424 . S
C105 C110 1.245 . S
C105 C111 1.428 . S
C106 C109 1.260 . S
C106 C110 1.477 . S
C106 H124 0.932 . S
C107 C108 1.384 . S
C107 C109 1.479 . S
C107 H125 0.929 . S
C108 C105 1.424 . S
C108 C107 1.384 . S
C108 H126 0.928 . S
C109 C106 1.260 . S
C109 C107 1.479 . S
C110 C105 1.245 . S
C110 C106 1.477 . S
C110 H127 0.932 . S
C111 U94 2.882 . S
C111 C105 1.428 . S
C111 O114 1.301 . S
C111 O115 1.282 . S
O112 U94 2.441 . S
O112 C98 1.249 . S
O113 U94 2.420 . S
O113 C98 1.202 . S
O114 U94 2.455 . S
O114 C111 1.301 . S
O115 U94 2.449 . S
O115 C111 1.282 . S
H116 C89 0.931 1_455 S
H117 C91 0.929 . S
H118 C92 0.930 . S
H119 C93 0.931 1_455 S
H120 C100 0.932 . S
H121 C101 0.930 . S
H122 C102 0.929 . S
H123 C104 0.930 . S
H124 C106 0.932 . S
H125 C107 0.929 . S
H126 C108 0.928 . S
H127 C110 0.932 . S
C128 C129 1.264 . S
C128 C133 1.479 . S
C128 C138 1.465 . S
C129 C128 1.264 . S
C129 C131 1.339 . S
C129 H156 0.931 . S
C130 C131 1.395 . S
C130 C132 1.320 . S
C131 C129 1.339 . S
C131 C130 1.395 . S
C131 H157 0.929 . S
C132 C130 1.320 . S
C132 C133 1.405 . S
C132 H158 0.930 . S
C133 C128 1.479 . S
C133 C132 1.405 . S
C133 H159 0.931 . S
U134 O135 2.454 . S
U134 O136 2.458 . S
U134 C137 2.984 . S
U134 C138 2.847 . S
U134 C151 2.882 . S
U134 O152 2.441 . S
U134 O153 2.420 . S
U134 O154 2.455 . S
U134 O155 2.449 . S
O135 U134 2.454 . S
O135 C137 1.353 . S
O136 U134 2.458 . S
O136 C137 1.286 . S
C137 U134 2.984 . S
C137 O135 1.353 . S
C137 O136 1.286 . S
C137 C139 1.363 . S
C138 C128 1.465 . S
C138 U134 2.847 . S
C138 O152 1.249 . S
C138 O153 1.202 . S
C139 C137 1.363 . S
C139 C141 1.408 . S
C139 C144 1.342 . S
C140 C141 1.310 . S
C140 C143 1.461 . S
C140 H160 0.932 . S
C141 C139 1.408 . S
C141 C140 1.310 . S
C141 H161 0.930 . S
C142 C143 1.474 . S
C142 C144 1.285 . S
C142 H162 0.929 . S
C143 C140 1.461 . S
C143 C142 1.474 . S
C144 C139 1.342 . S
C144 C142 1.285 . S
C144 H163 0.930 . S
C145 C148 1.424 . S
C145 C150 1.245 . S
C145 C151 1.428 . S
C146 C149 1.260 . S
C146 C150 1.477 . S
C146 H164 0.932 . S
C147 C148 1.384 . S
C147 C149 1.479 . S
C147 H165 0.929 . S
C148 C145 1.424 . S
C148 C147 1.384 . S
C148 H166 0.928 . S
C149 C146 1.260 . S
C149 C147 1.479 . S
C150 C145 1.245 . S
C150 C146 1.477 . S
C150 H167 0.932 . S
C151 U134 2.882 . S
C151 C145 1.428 . S
C151 O154 1.301 . S
C151 O155 1.282 . S
O152 U134 2.441 . S
O152 C138 1.249 . S
O153 U134 2.420 . S
O153 C138 1.202 . S
O154 U134 2.455 . S
O154 C151 1.301 . S
O155 U134 2.449 . S
O155 C151 1.282 . S
H156 C129 0.931 . S
H157 C131 0.929 . S
H158 C132 0.930 . S
H159 C133 0.931 . S
H160 C140 0.932 . S
H161 C141 0.930 . S
H162 C142 0.929 . S
H163 C144 0.930 . S
H164 C146 0.932 . S
H165 C147 0.929 . S
H166 C148 0.928 . S
H167 C150 0.932 . S
C168 C169 1.264 . S
C168 C173 1.479 . S
C168 C178 1.465 . S
C169 C168 1.264 . S
C169 C171 1.339 . S
C169 H196 0.931 . S
C170 C171 1.395 . S
C170 C172 1.320 . S
C171 C169 1.339 . S
C171 C170 1.395 . S
C171 H197 0.929 . S
C172 C170 1.320 . S
C172 C173 1.405 . S
C172 H198 0.930 . S
C173 C168 1.479 . S
C173 C172 1.405 . S
C173 H199 0.931 . S
U174 O175 2.454 . S
U174 O176 2.458 . S
U174 C177 2.984 . S
U174 C178 2.847 . S
U174 C191 2.882 . S
U174 O192 2.441 . S
U174 O193 2.420 . S
U174 O194 2.455 . S
U174 O195 2.449 . S
O175 U174 2.454 . S
O175 C177 1.353 . S
O176 U174 2.458 . S
O176 C177 1.286 . S
C177 U174 2.984 . S
C177 O175 1.353 . S
C177 O176 1.286 . S
C177 C179 1.363 . S
C178 C168 1.465 . S
C178 U174 2.847 . S
C178 O192 1.249 . S
C178 O193 1.202 . S
C179 C177 1.363 . S
C179 C181 1.408 . S
C179 C184 1.342 . S
C180 C181 1.310 . S
C180 C183 1.461 . S
C180 H200 0.932 . S
C181 C179 1.408 . S
C181 C180 1.310 . S
C181 H201 0.930 . S
C182 C183 1.474 . S
C182 C184 1.285 . S
C182 H202 0.929 . S
C183 C180 1.461 . S
C183 C182 1.474 . S
C184 C179 1.342 . S
C184 C182 1.285 . S
C184 H203 0.930 . S
C185 C188 1.424 . S
C185 C190 1.245 . S
C185 C191 1.428 . S
C186 C189 1.260 . S
C186 C190 1.477 . S
C186 H204 0.932 . S
C187 C188 1.384 . S
C187 C189 1.479 . S
C187 H205 0.929 . S
C188 C185 1.424 . S
C188 C187 1.384 . S
C188 H206 0.928 . S
C189 C186 1.260 . S
C189 C187 1.479 . S
C190 C185 1.245 . S
C190 C186 1.477 . S
C190 H207 0.932 . S
C191 U174 2.882 . S
C191 C185 1.428 . S
C191 O194 1.301 . S
C191 O195 1.282 . S
O192 U174 2.441 . S
O192 C178 1.249 . S
O193 U174 2.420 . S
O193 C178 1.202 . S
O194 U174 2.455 . S
O194 C191 1.301 . S
O195 U174 2.449 . S
O195 C191 1.282 . S
H196 C169 0.931 . S
H197 C171 0.929 . S
H198 C172 0.930 . S
H199 C173 0.931 . S
H200 C180 0.932 . S
H201 C181 0.930 . S
H202 C182 0.929 . S
H203 C184 0.930 . S
H204 C186 0.932 . S
H205 C187 0.929 . S
H206 C188 0.928 . S
H207 C190 0.932 . S
C208 C209 1.264 . S
C208 C213 1.479 . S
C208 C218 1.465 . S
C209 C208 1.264 . S
C209 C211 1.339 . S
C209 H236 0.931 . S
C210 C211 1.395 . S
C210 C212 1.320 . S
C211 C209 1.339 . S
C211 C210 1.395 . S
C211 H237 0.929 . S
C212 C210 1.320 . S
C212 C213 1.405 . S
C212 H238 0.930 . S
C213 C208 1.479 . S
C213 C212 1.405 . S
C213 H239 0.931 . S
U214 O215 2.454 . S
U214 O216 2.458 . S
U214 C217 2.984 . S
U214 C218 2.847 . S
U214 C231 2.882 . S
U214 O232 2.441 . S
U214 O233 2.420 . S
U214 O234 2.455 . S
U214 O235 2.449 . S
O215 U214 2.454 . S
O215 C217 1.353 . S
O216 U214 2.458 . S
O216 C217 1.286 . S
C217 U214 2.984 . S
C217 O215 1.353 . S
C217 O216 1.286 . S
C217 C219 1.363 . S
C218 C208 1.465 . S
C218 U214 2.847 . S
C218 O232 1.249 . S
C218 O233 1.202 . S
C219 C217 1.363 . S
C219 C221 1.408 . S
C219 C224 1.342 . S
C220 C221 1.310 . S
C220 C223 1.461 . S
C220 H240 0.932 . S
C221 C219 1.408 . S
C221 C220 1.310 . S
C221 H241 0.930 . S
C222 C223 1.474 . S
C222 C224 1.285 . S
C222 H242 0.929 . S
C223 C220 1.461 . S
C223 C222 1.474 . S
C224 C219 1.342 . S
C224 C222 1.285 . S
C224 H243 0.930 . S
C225 C228 1.424 . S
C225 C230 1.245 . S
C225 C231 1.428 . S
C226 C229 1.260 . S
C226 C230 1.477 . S
C226 H244 0.932 . S
C227 C228 1.384 . S
C227 C229 1.479 . S
C227 H245 0.929 . S
C228 C225 1.424 . S
C228 C227 1.384 . S
C228 H246 0.928 . S
C229 C226 1.260 . S
C229 C227 1.479 . S
C230 C225 1.245 . S
C230 C226 1.477 . S
C230 H247 0.932 . S
C231 U214 2.882 . S
C231 C225 1.428 . S
C231 O234 1.301 . S
C231 O235 1.282 . S
O232 U214 2.441 . S
O232 C218 1.249 . S
O233 U214 2.420 . S
O233 C218 1.202 . S
O234 U214 2.455 . S
O234 C231 1.301 . S
O235 U214 2.449 . S
O235 C231 1.282 . S
H236 C209 0.931 . S
H237 C211 0.929 . S
H238 C212 0.930 . S
H239 C213 0.931 . S
H240 C220 0.932 . S
H241 C221 0.930 . S
H242 C222 0.929 . S
H243 C224 0.930 . S
H244 C226 0.932 . S
H245 C227 0.929 . S
H246 C228 0.928 . S
H247 C230 0.932 . S
C248 C249 1.264 . S
C248 C253 1.479 . S
C248 C258 1.465 . S
C249 C248 1.264 . S
C249 C251 1.339 . S
C249 H276 0.931 . S
C250 C251 1.395 . S
C250 C252 1.320 . S
C251 C249 1.339 . S
C251 C250 1.395 . S
C251 H277 0.929 . S
C252 C250 1.320 . S
C252 C253 1.405 . S
C252 H278 0.930 . S
C253 C248 1.479 . S
C253 C252 1.405 . S
C253 H279 0.931 . S
U254 O255 2.454 . S
U254 O256 2.458 . S
U254 C257 2.984 . S
U254 C258 2.847 . S
U254 C271 2.882 . S
U254 O272 2.441 . S
U254 O273 2.420 . S
U254 O274 2.455 . S
U254 O275 2.449 . S
O255 U254 2.454 . S
O255 C257 1.353 . S
O256 U254 2.458 . S
O256 C257 1.286 . S
C257 U254 2.984 . S
C257 O255 1.353 . S
C257 O256 1.286 . S
C257 C259 1.363 . S
C258 C248 1.465 . S
C258 U254 2.847 . S
C258 O272 1.249 . S
C258 O273 1.202 . S
C259 C257 1.363 . S
C259 C261 1.408 . S
C259 C264 1.342 . S
C260 C261 1.310 . S
C260 C263 1.461 . S
C260 H280 0.932 . S
C261 C259 1.408 . S
C261 C260 1.310 . S
C261 H281 0.930 . S
C262 C263 1.474 . S
C262 C264 1.285 . S
C262 H282 0.929 . S
C263 C260 1.461 . S
C263 C262 1.474 . S
C264 C259 1.342 . S
C264 C262 1.285 . S
C264 H283 0.930 . S
C265 C268 1.424 . S
C265 C270 1.245 . S
C265 C271 1.428 . S
C266 C269 1.260 . S
C266 C270 1.477 . S
C266 H284 0.932 . S
C267 C268 1.384 . S
C267 C269 1.479 . S
C267 H285 0.929 . S
C268 C265 1.424 . S
C268 C267 1.384 . S
C268 H286 0.928 . S
C269 C266 1.260 . S
C269 C267 1.479 . S
C270 C265 1.245 . S
C270 C266 1.477 . S
C270 H287 0.932 . S
C271 U254 2.882 . S
C271 C265 1.428 . S
C271 O274 1.301 . S
C271 O275 1.282 . S
O272 U254 2.441 . S
O272 C258 1.249 . S
O273 U254 2.420 . S
O273 C258 1.202 . S
O274 U254 2.455 . S
O274 C271 1.301 . S
O275 U254 2.449 . S
O275 C271 1.282 . S
H276 C249 0.931 . S
H277 C251 0.929 . S
H278 C252 0.930 . S
H279 C253 0.931 . S
H280 C260 0.932 . S
H281 C261 0.930 . S
H282 C262 0.929 . S
H283 C264 0.930 . S
H284 C266 0.932 . S
H285 C267 0.929 . S
H286 C268 0.928 . S
H287 C270 0.932 . S
C288 C289 1.264 . S
C288 C293 1.479 . S
C288 C298 1.465 . S
C289 C288 1.264 . S
C289 C291 1.339 . S
C289 H316 0.931 . S
C290 C291 1.395 . S
C290 C292 1.320 . S
C291 C289 1.339 . S
C291 C290 1.395 . S
C291 H317 0.929 . S
C292 C290 1.320 . S
C292 C293 1.405 . S
C292 H318 0.930 . S
C293 C288 1.479 . S
C293 C292 1.405 . S
C293 H319 0.931 . S
U294 O295 2.454 . S
U294 O296 2.458 . S
U294 C297 2.984 . S
U294 C298 2.847 . S
U294 C311 2.882 . S
U294 O312 2.441 . S
U294 O313 2.420 . S
U294 O314 2.455 . S
U294 O315 2.449 . S
O295 U294 2.454 . S
O295 C297 1.353 . S
O296 U294 2.458 . S
O296 C297 1.286 . S
C297 U294 2.984 . S
C297 O295 1.353 . S
C297 O296 1.286 . S
C297 C299 1.363 . S
C298 C288 1.465 . S
C298 U294 2.847 . S
C298 O312 1.249 . S
C298 O313 1.202 . S
C299 C297 1.363 . S
C299 C301 1.408 . S
C299 C304 1.342 . S
C300 C301 1.310 . S
C300 C303 1.461 . S
C300 H320 0.932 . S
C301 C299 1.408 . S
C301 C300 1.310 . S
C301 H321 0.930 . S
C302 C303 1.474 . S
C302 C304 1.285 . S
C302 H322 0.929 . S
C303 C300 1.461 . S
C303 C302 1.474 . S
C304 C299 1.342 . S
C304 C302 1.285 . S
C304 H323 0.930 . S
C305 C308 1.424 . S
C305 C310 1.245 . S
C305 C311 1.428 . S
C306 C309 1.260 . S
C306 C310 1.477 . S
C306 H324 0.932 . S
C307 C308 1.384 . S
C307 C309 1.479 . S
C307 H325 0.929 . S
C308 C305 1.424 . S
C308 C307 1.384 . S
C308 H326 0.928 . S
C309 C306 1.260 . S
C309 C307 1.479 . S
C310 C305 1.245 . S
C310 C306 1.477 . S
C310 H327 0.932 . S
C311 U294 2.882 . S
C311 C305 1.428 . S
C311 O314 1.301 . S
C311 O315 1.282 . S
O312 U294 2.441 . S
O312 C298 1.249 . S
O313 U294 2.420 . S
O313 C298 1.202 . S
O314 U294 2.455 . S
O314 C311 1.301 . S
O315 U294 2.449 . S
O315 C311 1.282 . S
H316 C289 0.931 . S
H317 C291 0.929 . S
H318 C292 0.930 . S
H319 C293 0.931 . S
H320 C300 0.932 . S
H321 C301 0.930 . S
H322 C302 0.929 . S
H323 C304 0.930 . S
H324 C306 0.932 . S
H325 C307 0.929 . S
H326 C308 0.928 . S
H327 C310 0.932 . S
C328 C329 1.264 . S
C328 C333 1.479 . S
C328 C338 1.465 . S
C329 C328 1.264 . S
C329 C331 1.339 . S
C329 H356 0.931 . S
C330 C331 1.395 . S
C330 C332 1.320 . S
C331 C329 1.339 . S
C331 C330 1.395 . S
C331 H357 0.929 . S
C332 C330 1.320 . S
C332 C333 1.405 . S
C332 H358 0.930 . S
C333 C328 1.479 . S
C333 C332 1.405 . S
C333 H359 0.931 . S
U334 O335 2.454 . S
U334 O336 2.458 . S
U334 C337 2.984 . S
U334 C338 2.847 . S
U334 C351 2.882 . S
U334 O352 2.441 . S
U334 O353 2.420 . S
U334 O354 2.455 . S
U334 O355 2.449 . S
O335 U334 2.454 . S
O335 C337 1.353 . S
O336 U334 2.458 . S
O336 C337 1.286 . S
C337 U334 2.984 . S
C337 O335 1.353 . S
C337 O336 1.286 . S
C337 C339 1.363 . S
C338 C328 1.465 . S
C338 U334 2.847 . S
C338 O352 1.249 . S
C338 O353 1.202 . S
C339 C337 1.363 . S
C339 C341 1.408 . S
C339 C344 1.342 . S
C340 C341 1.310 . S
C340 C343 1.461 . S
C340 H360 0.932 . S
C341 C339 1.408 . S
C341 C340 1.310 . S
C341 H361 0.930 . S
C342 C343 1.474 . S
C342 C344 1.285 . S
C342 H362 0.929 . S
C343 C340 1.461 . S
C343 C342 1.474 . S
C344 C339 1.342 . S
C344 C342 1.285 . S
C344 H363 0.930 . S
C345 C348 1.424 . S
C345 C350 1.245 . S
C345 C351 1.428 . S
C346 C349 1.260 . S
C346 C350 1.477 . S
C346 H364 0.932 . S
C347 C348 1.384 . S
C347 C349 1.479 . S
C347 H365 0.929 . S
C348 C345 1.424 . S
C348 C347 1.384 . S
C348 H366 0.928 . S
C349 C346 1.260 . S
C349 C347 1.479 . S
C350 C345 1.245 . S
C350 C346 1.477 . S
C350 H367 0.932 . S
C351 U334 2.882 . S
C351 C345 1.428 . S
C351 O354 1.301 . S
C351 O355 1.282 . S
O352 U334 2.441 . S
O352 C338 1.249 . S
O353 U334 2.420 . S
O353 C338 1.202 . S
O354 U334 2.455 . S
O354 C351 1.301 . S
O355 U334 2.449 . S
O355 C351 1.282 . S
H356 C329 0.931 . S
H357 C331 0.929 . S
H358 C332 0.930 . S
H359 C333 0.931 . S
H360 C340 0.932 . S
H361 C341 0.930 . S
H362 C342 0.929 . S
H363 C344 0.930 . S
H364 C346 0.932 . S
H365 C347 0.929 . S
H366 C348 0.928 . S
H367 C350 0.932 . S
C368 C369 1.264 . S
C368 C373 1.479 . S
C368 C378 1.465 . S
C369 C368 1.264 . S
C369 C371 1.339 . S
C369 H396 0.931 . S
C370 C371 1.395 . S
C370 C372 1.320 . S
C371 C369 1.339 . S
C371 C370 1.395 . S
C371 H397 0.929 . S
C372 C370 1.320 . S
C372 C373 1.405 . S
C372 H398 0.930 . S
C373 C368 1.479 . S
C373 C372 1.405 . S
C373 H399 0.931 . S
U374 O375 2.454 . S
U374 O376 2.458 . S
U374 C377 2.984 . S
U374 C378 2.847 . S
U374 C391 2.882 . S
U374 O392 2.441 . S
U374 O393 2.420 . S
U374 O394 2.455 . S
U374 O395 2.449 . S
O375 U374 2.454 . S
O375 C377 1.353 . S
O376 U374 2.458 . S
O376 C377 1.286 . S
C377 U374 2.984 . S
C377 O375 1.353 . S
C377 O376 1.286 . S
C377 C379 1.363 . S
C378 C368 1.465 . S
C378 U374 2.847 . S
C378 O392 1.249 . S
C378 O393 1.202 . S
C379 C377 1.363 . S
C379 C381 1.408 . S
C379 C384 1.342 . S
C380 C381 1.310 . S
C380 C383 1.461 . S
C380 H400 0.932 . S
C381 C379 1.408 . S
C381 C380 1.310 . S
C381 H401 0.930 . S
C382 C383 1.474 . S
C382 C384 1.285 . S
C382 H402 0.929 . S
C383 C380 1.461 . S
C383 C382 1.474 . S
C384 C379 1.342 . S
C384 C382 1.285 . S
C384 H403 0.930 . S
C385 C388 1.424 1_655 S
C385 C390 1.245 . S
C385 C391 1.428 . S
C386 C389 1.260 . S
C386 C390 1.477 1_455 S
C386 H404 0.932 . S
C387 C388 1.384 . S
C387 C389 1.479 . S
C387 H405 0.929 . S
C388 C385 1.424 1_455 S
C388 C387 1.384 . S
C388 H406 0.928 1_455 S
C389 C386 1.260 . S
C389 C387 1.479 . S
C390 C385 1.245 . S
C390 C386 1.477 1_655 S
C390 H407 0.932 . S
C391 U374 2.882 . S
C391 C385 1.428 . S
C391 O394 1.301 . S
C391 O395 1.282 . S
O392 U374 2.441 . S
O392 C378 1.249 . S
O393 U374 2.420 . S
O393 C378 1.202 . S
O394 U374 2.455 . S
O394 C391 1.301 . S
O395 U374 2.449 . S
O395 C391 1.282 . S
H396 C369 0.931 . S
H397 C371 0.929 . S
H398 C372 0.930 . S
H399 C373 0.931 . S
H400 C380 0.932 . S
H401 C381 0.930 . S
H402 C382 0.929 . S
H403 C384 0.930 . S
H404 C386 0.932 . S
H405 C387 0.929 . S
H406 C388 0.928 1_655 S
H407 C390 0.932 . S
C408 C409 1.349 . S
C408 C410 1.327 . S
C408 H433 0.950 . S
C409 C408 1.349 . S
C409 C425 1.349 . S
C410 C408 1.327 . S
C410 C429 1.429 . S
C410 H434 0.950 . S
C411 C428 1.574 . S
C411 C430 1.368 . S
C411 H435 0.949 . S
H412 C416 0.949 . S
C413 C414 1.343 1_545 S
C413 C415 1.316 1_545 S
C413 H436 0.967 . S
C414 C413 1.343 1_565 S
C414 C426 1.349 . S
C415 C413 1.316 1_565 S
C415 C431 1.429 . S
C415 H437 0.950 . S
C416 H412 0.949 . S
C416 C424 1.574 . S
C416 C432 1.368 . S
H417 C425 0.950 . S
H418 C423 0.950 . S
H419 C424 0.949 . S
H420 C426 0.950 . S
H421 C427 0.950 . S
H422 C428 0.949 . S
C423 H418 0.950 . S
C423 C425 1.327 . S
C423 C429 1.429 . S
C424 C416 1.574 . S
C424 H419 0.949 . S
C424 C430 1.368 . S
C425 C409 1.349 . S
C425 H417 0.950 . S
C425 C423 1.327 . S
C426 C414 1.349 . S
C426 H420 0.950 . S
C426 C427 1.327 . S
C427 H421 0.950 . S
C427 C426 1.327 . S
C427 C431 1.429 . S
C428 C411 1.574 . S
C428 H422 0.949 . S
C428 C432 1.368 . S
C429 C410 1.429 . S
C429 C423 1.429 . S
C429 C430 1.523 . S
C430 C411 1.368 . S
C430 C424 1.368 . S
C430 C429 1.523 . S
C431 C415 1.429 . S
C431 C427 1.429 . S
C431 C432 1.523 . S
C432 C416 1.368 . S
C432 C428 1.368 . S
C432 C431 1.523 . S
H433 C408 0.950 . S
H434 C410 0.950 . S
H435 C411 0.949 . S
H436 C413 0.967 . S
H437 C415 0.950 . S
C438 C439 1.349 . S
C438 C440 1.327 . S
C438 H463 0.950 . S
C439 C438 1.349 . S
C439 C455 1.349 . S
C440 C438 1.327 . S
C440 C459 1.429 . S
C440 H464 0.950 . S
C441 C458 1.574 . S
C441 C460 1.368 . S
C441 H465 0.949 . S
H442 C446 0.949 . S
C443 C444 1.349 . S
C443 C445 1.327 . S
C443 H466 0.950 . S
C444 C443 1.349 . S
C444 C456 1.349 . S
C445 C443 1.327 . S
C445 C461 1.429 . S
C445 H467 0.950 . S
C446 H442 0.949 . S
C446 C454 1.574 . S
C446 C462 1.368 . S
H447 C455 0.950 . S
H448 C453 0.950 . S
H449 C454 0.949 . S
H450 C456 0.950 . S
H451 C457 0.950 . S
H452 C458 0.949 . S
C453 H448 0.950 . S
C453 C455 1.327 . S
C453 C459 1.429 . S
C454 C446 1.574 . S
C454 H449 0.949 . S
C454 C460 1.368 . S
C455 C439 1.349 . S
C455 H447 0.950 . S
C455 C453 1.327 . S
C456 C444 1.349 . S
C456 H450 0.950 . S
C456 C457 1.327 . S
C457 H451 0.950 . S
C457 C456 1.327 . S
C457 C461 1.429 . S
C458 C441 1.574 . S
C458 H452 0.949 . S
C458 C462 1.368 . S
C459 C440 1.429 . S
C459 C453 1.429 . S
C459 C460 1.523 . S
C460 C441 1.368 . S
C460 C454 1.368 . S
C460 C459 1.523 . S
C461 C445 1.429 . S
C461 C457 1.429 . S
C461 C462 1.523 . S
C462 C446 1.368 . S
C462 C458 1.368 . S
C462 C461 1.523 . S
H463 C438 0.950 . S
H464 C440 0.950 . S
H465 C441 0.949 . S
H466 C443 0.950 . S
H467 C445 0.950 . S
C468 C469 1.349 . S
C468 C470 1.327 . S
C468 H493 0.950 . S
C469 C468 1.349 . S
C469 C485 1.349 . S
C470 C468 1.327 . S
C470 C489 1.429 . S
C470 H494 0.950 . S
C471 C488 1.574 . S
C471 C490 1.368 . S
C471 H495 0.949 . S
H472 C476 0.938 1_565 S
C473 C474 1.349 . S
C473 C475 1.327 1_565 S
C473 H496 0.950 . S
C474 C473 1.349 . S
C474 C486 1.349 . S
C475 C473 1.327 1_545 S
C475 C491 1.428 1_545 S
C475 H497 0.950 . S
C476 H472 0.938 1_545 S
C476 C484 1.574 . S
C476 C492 1.368 . S
H477 C485 0.950 . S
H478 C483 0.950 . S
H479 C484 0.949 . S
H480 C486 0.950 . S
H481 C487 0.950 . S
H482 C488 0.949 . S
C483 H478 0.950 . S
C483 C485 1.327 . S
C483 C489 1.429 . S
C484 C476 1.574 . S
C484 H479 0.949 . S
C484 C490 1.368 . S
C485 C469 1.349 . S
C485 H477 0.950 . S
C485 C483 1.327 . S
C486 C474 1.349 . S
C486 H480 0.950 . S
C486 C487 1.327 . S
C487 H481 0.950 . S
C487 C486 1.327 . S
C487 C491 1.437 . S
C488 C471 1.574 . S
C488 H482 0.949 . S
C488 C492 1.368 . S
C489 C470 1.429 . S
C489 C483 1.429 . S
C489 C490 1.523 . S
C490 C471 1.368 . S
C490 C484 1.368 . S
C490 C489 1.523 . S
C491 C475 1.428 1_565 S
C491 C487 1.437 . S
C491 C492 1.515 1_565 S
C492 C476 1.368 . S
C492 C488 1.368 . S
C492 C491 1.515 1_545 S
H493 C468 0.950 . S
H494 C470 0.950 . S
H495 C471 0.949 . S
H496 C473 0.950 . S
H497 C475 0.950 . S
C498 C499 1.349 . S
C498 C500 1.327 . S
C498 H523 0.950 . S
C499 C498 1.349 . S
C499 C515 1.349 . S
C500 C498 1.327 . S
C500 C519 1.429 . S
C500 H524 0.950 . S
C501 C518 1.574 . S
C501 C520 1.368 . S
C501 H525 0.949 . S
H502 C506 0.949 . S
C503 C504 1.349 . S
C503 C505 1.327 . S
C503 H526 0.950 . S
C504 C503 1.349 . S
C504 C516 1.349 . S
C505 C503 1.327 . S
C505 C521 1.429 . S
C505 H527 0.950 . S
C506 H502 0.949 . S
C506 C514 1.574 . S
C506 C522 1.368 . S
H507 C515 0.950 . S
H508 C513 0.950 . S
H509 C514 0.949 . S
H510 C516 0.950 . S
H511 C517 0.950 . S
H512 C518 0.949 . S
C513 H508 0.950 . S
C513 C515 1.327 . S
C513 C519 1.429 . S
C514 C506 1.574 . S
C514 H509 0.949 . S
C514 C520 1.368 . S
C515 C499 1.349 . S
C515 H507 0.950 . S
C515 C513 1.327 . S
C516 C504 1.349 . S
C516 H510 0.950 . S
C516 C517 1.327 . S
C517 H511 0.950 . S
C517 C516 1.327 . S
C517 C521 1.429 . S
C518 C501 1.574 . S
C518 H512 0.949 . S
C518 C522 1.368 . S
C519 C500 1.429 . S
C519 C513 1.429 . S
C519 C520 1.523 . S
C520 C501 1.368 . S
C520 C514 1.368 . S
C520 C519 1.523 . S
C521 C505 1.429 . S
C521 C517 1.429 . S
C521 C522 1.523 . S
C522 C506 1.368 . S
C522 C518 1.368 . S
C522 C521 1.523 . S
H523 C498 0.950 . S
H524 C500 0.950 . S
H525 C501 0.949 . S
H526 C503 0.950 . S
H527 C505 0.950 . S
C528 C529 1.349 . S
C528 C530 1.327 . S
C528 H553 0.950 . S
C529 C528 1.349 . S
C529 C545 1.349 . S
C530 C528 1.327 . S
C530 C549 1.429 . S
C530 H554 0.950 . S
C531 C548 1.574 . S
C531 C550 1.368 . S
C531 H555 0.949 . S
H532 C536 0.949 . S
C533 C534 1.349 . S
C533 C535 1.327 . S
C533 H556 0.950 . S
C534 C533 1.349 . S
C534 C546 1.349 . S
C535 C533 1.327 . S
C535 C551 1.429 . S
C535 H557 0.950 . S
C536 H532 0.949 . S
C536 C544 1.574 . S
C536 C552 1.368 . S
H537 C545 0.950 . S
H538 C543 0.950 . S
H539 C544 0.949 . S
H540 C546 0.950 . S
H541 C547 0.950 . S
H542 C548 0.949 . S
C543 H538 0.950 . S
C543 C545 1.327 . S
C543 C549 1.429 . S
C544 C536 1.574 . S
C544 H539 0.949 . S
C544 C550 1.368 . S
C545 C529 1.349 . S
C545 H537 0.950 . S
C545 C543 1.327 . S
C546 C534 1.349 . S
C546 H540 0.950 . S
C546 C547 1.327 . S
C547 H541 0.950 . S
C547 C546 1.327 . S
C547 C551 1.429 . S
C548 C531 1.574 . S
C548 H542 0.949 . S
C548 C552 1.368 . S
C549 C530 1.429 . S
C549 C543 1.429 . S
C549 C550 1.523 . S
C550 C531 1.368 . S
C550 C544 1.368 . S
C550 C549 1.523 . S
C551 C535 1.429 . S
C551 C547 1.429 . S
C551 C552 1.523 . S
C552 C536 1.368 . S
C552 C548 1.368 . S
C552 C551 1.523 . S
H553 C528 0.950 . S
H554 C530 0.950 . S
H555 C531 0.949 . S
H556 C533 0.950 . S
H557 C535 0.950 . S
C558 C559 1.349 . S
C558 C560 1.327 . S
C558 H583 0.950 1_556 S
C559 C558 1.349 . S
C559 C575 1.349 . S
C560 C558 1.327 . S
C560 C579 1.429 . S
C560 H584 0.950 1_556 S
C561 C578 1.574 . S
C561 C580 1.368 1_455 S
C561 H585 0.949 1_455 S
H562 C566 0.949 . S
C563 C564 1.349 . S
C563 C565 1.327 . S
C563 H586 0.950 . S
C564 C563 1.349 . S
C564 C576 1.349 . S
C565 C563 1.327 . S
C565 C581 1.429 . S
C565 H587 0.950 . S
C566 H562 0.949 . S
C566 C574 1.574 . S
C566 C582 1.368 . S
H567 C575 0.950 . S
H568 C573 0.950 . S
H569 C574 0.949 . S
H570 C576 0.950 . S
H571 C577 0.950 . S
H572 C578 0.949 . S
C573 H568 0.950 . S
C573 C575 1.327 . S
C573 C579 1.429 . S
C574 C566 1.574 . S
C574 H569 0.949 . S
C574 C580 1.368 1_455 S
C575 C559 1.349 . S
C575 H567 0.950 . S
C575 C573 1.327 . S
C576 C564 1.349 . S
C576 H570 0.950 . S
C576 C577 1.327 . S
C577 H571 0.950 . S
C577 C576 1.327 . S
C577 C581 1.429 . S
C578 C561 1.574 . S
C578 H572 0.949 . S
C578 C582 1.368 . S
C579 C560 1.429 . S
C579 C573 1.429 . S
C579 C580 1.523 . S
C580 C561 1.368 1_655 S
C580 C574 1.368 1_655 S
C580 C579 1.523 . S
C581 C565 1.429 . S
C581 C577 1.429 . S
C581 C582 1.523 . S
C582 C566 1.368 . S
C582 C578 1.368 . S
C582 C581 1.523 . S
H583 C558 0.950 1_554 S
H584 C560 0.950 1_554 S
H585 C561 0.949 1_655 S
H586 C563 0.950 . S
H587 C565 0.950 . S
C588 C589 1.349 . S
C588 C590 1.327 . S
C588 H613 0.950 . S
C589 C588 1.349 . S
C589 C605 1.349 . S
C590 C588 1.327 . S
C590 C609 1.429 . S
C590 H614 0.950 . S
C591 C608 1.574 . S
C591 C610 1.368 . S
C591 H615 0.949 . S
H592 C596 0.949 . S
C593 C594 1.349 . S
C593 C595 1.327 . S
C593 H616 0.950 . S
C594 C593 1.349 . S
C594 C606 1.349 . S
C595 C593 1.327 . S
C595 C611 1.429 . S
C595 H617 0.950 . S
C596 H592 0.949 . S
C596 C604 1.574 . S
C596 C612 1.368 . S
H597 C605 0.950 . S
H598 C603 0.950 . S
H599 C604 0.949 . S
H600 C606 0.950 . S
H601 C607 0.950 . S
H602 C608 0.949 . S
C603 H598 0.950 . S
C603 C605 1.327 . S
C603 C609 1.429 . S
C604 C596 1.574 . S
C604 H599 0.949 . S
C604 C610 1.368 . S
C605 C589 1.349 . S
C605 H597 0.950 . S
C605 C603 1.327 . S
C606 C594 1.349 . S
C606 H600 0.950 . S
C606 C607 1.327 . S
C607 H601 0.950 . S
C607 C606 1.327 . S
C607 C611 1.429 . S
C608 C591 1.574 . S
C608 H602 0.949 . S
C608 C612 1.368 . S
C609 C590 1.429 . S
C609 C603 1.429 . S
C609 C610 1.523 . S
C610 C591 1.368 . S
C610 C604 1.368 . S
C610 C609 1.523 . S
C611 C595 1.429 . S
C611 C607 1.429 . S
C611 C612 1.523 . S
C612 C596 1.368 . S
C612 C608 1.368 . S
C612 C611 1.523 . S
H613 C588 0.950 . S
H614 C590 0.950 . S
H615 C591 0.949 . S
H616 C593 0.950 . S
H617 C595 0.950 . S
C618 C619 1.349 . S
C618 C620 1.327 . S
C618 H643 0.950 . S
C619 C618 1.349 . S
C619 C635 1.349 . S
C620 C618 1.327 . S
C620 C639 1.429 . S
C620 H644 0.950 . S
C621 C638 1.574 . S
C621 C640 1.368 . S
C621 H645 0.949 . S
H622 C626 0.949 . S
C623 C624 1.349 . S
C623 C625 1.327 . S
C623 H646 0.950 . S
C624 C623 1.349 . S
C624 C636 1.349 . S
C625 C623 1.327 . S
C625 C641 1.429 . S
C625 H647 0.950 . S
C626 H622 0.949 . S
C626 C634 1.574 . S
C626 C642 1.368 . S
H627 C635 0.950 . S
H628 C633 0.950 . S
H629 C634 0.949 . S
H630 C636 0.950 . S
H631 C637 0.950 . S
H632 C638 0.949 . S
C633 H628 0.950 . S
C633 C635 1.327 . S
C633 C639 1.429 . S
C634 C626 1.574 . S
C634 H629 0.949 . S
C634 C640 1.368 . S
C635 C619 1.349 . S
C635 H627 0.950 . S
C635 C633 1.327 . S
C636 C624 1.349 . S
C636 H630 0.950 . S
C636 C637 1.327 . S
C637 H631 0.950 . S
C637 C636 1.327 . S
C637 C641 1.429 . S
C638 C621 1.574 . S
C638 H632 0.949 . S
C638 C642 1.368 . S
C639 C620 1.429 . S
C639 C633 1.429 . S
C639 C640 1.523 . S
C640 C621 1.368 . S
C640 C634 1.368 . S
C640 C639 1.523 . S
C641 C625 1.429 . S
C641 C637 1.429 . S
C641 C642 1.523 . S
C642 C626 1.368 . S
C642 C638 1.368 . S
C642 C641 1.523 . S
H643 C618 0.950 . S
H644 C620 0.950 . S
H645 C621 0.949 . S
H646 C623 0.950 . S
H647 C625 0.950 . S
C648 C649 1.349 . S
C648 C650 1.327 . S
C648 H673 0.950 . S
C649 C648 1.349 . S
C649 C665 1.349 . S
C650 C648 1.327 . S
C650 C669 1.429 . S
C650 H674 0.950 . S
C651 C668 1.574 . S
C651 C670 1.368 . S
C651 H675 0.949 . S
H652 C656 0.949 . S
C653 C654 1.349 . S
C653 C655 1.327 . S
C653 H676 0.950 . S
C654 C653 1.349 . S
C654 C666 1.327 1_545 S
C655 C653 1.327 . S
C655 C671 1.429 . S
C655 H677 0.950 . S
C656 H652 0.949 . S
C656 C664 1.574 . S
C656 C672 1.368 . S
H657 C665 0.950 . S
H658 C663 0.950 . S
H659 C664 0.949 . S
H660 C666 1.000 . S
H661 C667 0.950 . S
H662 C668 0.949 . S
C663 H658 0.950 . S
C663 C665 1.327 . S
C663 C669 1.429 . S
C664 C656 1.574 . S
C664 H659 0.949 . S
C664 C670 1.368 . S
C665 C649 1.349 . S
C665 H657 0.950 . S
C665 C663 1.327 . S
C666 C654 1.327 1_565 S
C666 H660 1.000 . S
C666 C667 1.301 1_565 S
C667 H661 0.950 . S
C667 C666 1.301 1_545 S
C667 C671 1.429 . S
C668 C651 1.574 . S
C668 H662 0.949 . S
C668 C672 1.368 . S
C669 C650 1.429 . S
C669 C663 1.429 . S
C669 C670 1.523 . S
C670 C651 1.368 . S
C670 C664 1.368 . S
C670 C669 1.523 . S
C671 C655 1.429 . S
C671 C667 1.429 . S
C671 C672 1.523 . S
C672 C656 1.368 . S
C672 C668 1.368 . S
C672 C671 1.523 . S
H673 C648 0.950 . S
H674 C650 0.950 . S
H675 C651 0.949 . S
H676 C653 0.950 . S
H677 C655 0.950 . S
C678 C679 1.349 . S
C678 C680 1.327 . S
C678 H703 0.950 . S
C679 C678 1.349 . S
C679 C695 1.349 . S
C680 C678 1.327 . S
C680 C699 1.429 . S
C680 H704 0.950 . S
C681 C698 1.574 . S
C681 C700 1.368 . S
C681 H705 0.949 . S
H682 C686 0.949 . S
C683 C684 1.349 . S
C683 C685 1.327 . S
C683 H706 0.950 . S
C684 C683 1.349 . S
C684 C696 1.349 . S
C685 C683 1.327 . S
C685 C701 1.429 . S
C685 H707 0.950 . S
C686 H682 0.949 . S
C686 C694 1.574 . S
C686 C702 1.368 . S
H687 C695 0.950 . S
H688 C693 0.950 . S
H689 C694 0.949 . S
H690 C696 0.950 . S
H691 C697 0.950 . S
H692 C698 0.949 . S
C693 H688 0.950 . S
C693 C695 1.327 . S
C693 C699 1.429 . S
C694 C686 1.574 . S
C694 H689 0.949 . S
C694 C700 1.368 . S
C695 C679 1.349 . S
C695 H687 0.950 . S
C695 C693 1.327 . S
C696 C684 1.349 . S
C696 H690 0.950 . S
C696 C697 1.327 . S
C697 H691 0.950 . S
C697 C696 1.327 . S
C697 C701 1.429 . S
C698 C681 1.574 . S
C698 H692 0.949 . S
C698 C702 1.368 . S
C699 C680 1.429 . S
C699 C693 1.429 . S
C699 C700 1.523 . S
C700 C681 1.368 . S
C700 C694 1.368 . S
C700 C699 1.523 . S
C701 C685 1.429 . S
C701 C697 1.429 . S
C701 C702 1.523 . S
C702 C686 1.368 . S
C702 C698 1.368 . S
C702 C701 1.523 . S
H703 C678 0.950 . S
H704 C680 0.950 . S
H705 C681 0.949 . S
H706 C683 0.950 . S
H707 C685 0.950 . S
C708 C709 1.349 1_556 S
C708 C710 1.327 . S
C708 H733 0.950 . S
C709 C708 1.349 1_554 S
C709 C725 1.349 . S
C710 C708 1.327 . S
C710 C729 1.429 . S
C710 H734 0.950 . S
C711 C728 1.593 . S
C711 C730 1.390 . S
C711 H735 0.914 1_556 S
H712 C716 0.949 . S
C713 C714 1.349 . S
C713 C715 1.327 . S
C713 H736 0.950 . S
C714 C713 1.349 . S
C714 C726 1.349 . S
C715 C713 1.327 . S
C715 C731 1.429 . S
C715 H737 0.950 . S
C716 H712 0.949 . S
C716 C724 1.574 . S
C716 C732 1.368 . S
H717 C725 0.950 . S
H718 C723 0.950 . S
H719 C724 0.949 . S
H720 C726 0.950 . S
H721 C727 0.950 . S
H722 C728 0.949 . S
C723 H718 0.950 . S
C723 C725 1.327 . S
C723 C729 1.429 1_554 S
C724 C716 1.574 . S
C724 H719 0.949 . S
C724 C730 1.368 . S
C725 C709 1.349 . S
C725 H717 0.950 . S
C725 C723 1.327 . S
C726 C714 1.349 . S
C726 H720 0.950 . S
C726 C727 1.327 . S
C727 H721 0.950 . S
C727 C726 1.327 . S
C727 C731 1.429 . S
C728 C711 1.593 . S
C728 H722 0.949 . S
C728 C732 1.368 . S
C729 C710 1.429 . S
C729 C723 1.429 1_556 S
C729 C730 1.523 . S
C730 C711 1.390 . S
C730 C724 1.368 . S
C730 C729 1.523 . S
C731 C715 1.429 . S
C731 C727 1.429 . S
C731 C732 1.523 1_545 S
C732 C716 1.368 . S
C732 C728 1.368 . S
C732 C731 1.523 1_565 S
H733 C708 0.950 . S
H734 C710 0.950 . S
H735 C711 0.914 1_554 S
H736 C713 0.950 . S
H737 C715 0.950 . S
C738 C739 1.349 . S
C738 C740 1.327 . S
C738 H763 0.950 . S
C739 C738 1.349 . S
C739 C755 1.349 . S
C740 C738 1.327 . S
C740 C759 1.429 . S
C740 H764 0.950 . S
C741 C758 1.574 . S
C741 C760 1.368 . S
C741 H765 0.949 . S
H742 C746 0.949 . S
C743 C744 1.349 . S
C743 C745 1.327 . S
C743 H766 0.950 . S
C744 C743 1.349 . S
C744 C756 1.349 . S
C745 C743 1.327 . S
C745 C761 1.429 . S
C745 H767 0.950 . S
C746 H742 0.949 . S
C746 C754 1.574 . S
C746 C762 1.368 . S
H747 C755 0.950 . S
H748 C753 0.950 . S
H749 C754 0.949 . S
H750 C756 0.950 . S
H751 C757 0.950 . S
H752 C758 0.949 . S
C753 H748 0.950 . S
C753 C755 1.327 . S
C753 C759 1.429 . S
C754 C746 1.574 . S
C754 H749 0.949 . S
C754 C760 1.368 . S
C755 C739 1.349 . S
C755 H747 0.950 . S
C755 C753 1.327 . S
C756 C744 1.349 . S
C756 H750 0.950 . S
C756 C757 1.327 . S
C757 H751 0.950 . S
C757 C756 1.327 . S
C757 C761 1.429 . S
C758 C741 1.574 . S
C758 H752 0.949 . S
C758 C762 1.368 . S
C759 C740 1.429 . S
C759 C753 1.429 . S
C759 C760 1.523 . S
C760 C741 1.368 . S
C760 C754 1.368 . S
C760 C759 1.523 . S
C761 C745 1.429 . S
C761 C757 1.429 . S
C761 C762 1.523 . S
C762 C746 1.368 . S
C762 C758 1.368 . S
C762 C761 1.523 . S
H763 C738 0.950 . S
H764 C740 0.950 . S
H765 C741 0.949 . S
H766 C743 0.950 . S
H767 C745 0.950 . S
C768 C769 1.349 . S
C768 C770 1.327 . S
C768 H793 0.950 . S
C769 C768 1.349 . S
C769 C785 1.349 . S
C770 C768 1.327 . S
C770 C789 1.429 . S
C770 H794 0.950 . S
C771 C788 1.574 . S
C771 C790 1.368 . S
C771 H795 0.949 . S
H772 C776 0.949 . S
C773 C774 1.349 . S
C773 C775 1.327 . S
C773 H796 0.950 . S
C774 C773 1.349 . S
C774 C786 1.349 . S
C775 C773 1.327 . S
C775 C791 1.429 . S
C775 H797 0.950 . S
C776 H772 0.949 . S
C776 C784 1.574 . S
C776 C792 1.368 . S
H777 C785 0.950 . S
H778 C783 0.950 . S
H779 C784 0.949 . S
H780 C786 0.950 . S
H781 C787 0.950 . S
H782 C788 0.949 . S
C783 H778 0.950 . S
C783 C785 1.327 . S
C783 C789 1.429 . S
C784 C776 1.574 . S
C784 H779 0.949 . S
C784 C790 1.368 . S
C785 C769 1.349 . S
C785 H777 0.950 . S
C785 C783 1.327 . S
C786 C774 1.349 . S
C786 H780 0.950 . S
C786 C787 1.327 . S
C787 H781 0.950 . S
C787 C786 1.327 . S
C787 C791 1.429 . S
C788 C771 1.574 . S
C788 H782 0.949 . S
C788 C792 1.368 . S
C789 C770 1.429 . S
C789 C783 1.429 . S
C789 C790 1.523 . S
C790 C771 1.368 . S
C790 C784 1.368 . S
C790 C789 1.523 . S
C791 C775 1.429 . S
C791 C787 1.429 . S
C791 C792 1.523 . S
C792 C776 1.368 . S
C792 C788 1.368 . S
C792 C791 1.523 . S
H793 C768 0.950 . S
H794 C770 0.950 . S
H795 C771 0.949 . S
H796 C773 0.950 . S
H797 C775 0.950 . S
C798 C799 1.349 . S
C798 C800 1.327 . S
C798 H823 0.950 . S
C799 C798 1.349 . S
C799 C815 1.349 . S
C800 C798 1.327 . S
C800 C819 1.429 . S
C800 H824 0.950 . S
C801 C818 1.574 . S
C801 C820 1.368 1_655 S
C801 H825 0.949 . S
H802 C806 0.949 . S
C803 C804 1.349 . S
C803 C805 1.327 . S
C803 H826 0.950 . S
C804 C803 1.349 . S
C804 C816 1.349 . S
C805 C803 1.327 . S
C805 C821 1.429 . S
C805 H827 0.950 . S
C806 H802 0.949 . S
C806 C814 1.620 . S
C806 C822 1.368 . S
H807 C815 0.950 . S
H808 C813 0.950 . S
H809 C814 0.914 1_455 S
H810 C816 0.950 . S
H811 C817 0.950 . S
H812 C818 0.949 . S
C813 H808 0.950 . S
C813 C815 1.327 . S
C813 C819 1.429 . S
C814 C806 1.620 . S
C814 H809 0.914 1_655 S
C814 C820 1.362 1_655 S
C815 C799 1.349 . S
C815 H807 0.950 . S
C815 C813 1.327 . S
C816 C804 1.349 . S
C816 H810 0.950 . S
C816 C817 1.327 . S
C817 H811 0.950 . S
C817 C816 1.327 . S
C817 C821 1.429 . S
C818 C801 1.574 . S
C818 H812 0.949 . S
C818 C822 1.368 . S
C819 C800 1.429 . S
C819 C813 1.429 . S
C819 C820 1.523 . S
C820 C801 1.368 1_455 S
C820 C814 1.362 1_455 S
C820 C819 1.523 . S
C821 C805 1.429 . S
C821 C817 1.429 . S
C821 C822 1.523 . S
C822 C806 1.368 . S
C822 C818 1.368 . S
C822 C821 1.523 . S
H823 C798 0.950 . S
H824 C800 0.950 . S
H825 C801 0.949 . S
H826 C803 0.950 . S
H827 C805 0.950 . S
C828 C829 1.349 . S
C828 C830 1.327 . S
C828 H853 0.950 . S
C829 C828 1.349 . S
C829 C845 1.349 . S
C830 C828 1.327 . S
C830 C849 1.429 . S
C830 H854 0.950 . S
C831 C848 1.574 . S
C831 C850 1.368 . S
C831 H855 0.949 . S
H832 C836 0.949 . S
C833 C834 1.349 . S
C833 C835 1.327 . S
C833 H856 0.950 . S
C834 C833 1.349 . S
C834 C846 1.349 . S
C835 C833 1.327 . S
C835 C851 1.429 . S
C835 H857 0.950 . S
C836 H832 0.949 . S
C836 C844 1.574 . S
C836 C852 1.368 . S
H837 C845 0.950 . S
H838 C843 0.950 . S
H839 C844 0.949 . S
H840 C846 0.950 . S
H841 C847 0.950 . S
H842 C848 0.949 . S
C843 H838 0.950 . S
C843 C845 1.327 . S
C843 C849 1.429 . S
C844 C836 1.574 . S
C844 H839 0.949 . S
C844 C850 1.368 . S
C845 C829 1.349 . S
C845 H837 0.950 . S
C845 C843 1.327 . S
C846 C834 1.349 . S
C846 H840 0.950 . S
C846 C847 1.327 . S
C847 H841 0.950 . S
C847 C846 1.327 . S
C847 C851 1.429 . S
C848 C831 1.574 . S
C848 H842 0.949 . S
C848 C852 1.368 . S
C849 C830 1.429 . S
C849 C843 1.429 . S
C849 C850 1.523 . S
C850 C831 1.368 . S
C850 C844 1.368 . S
C850 C849 1.523 . S
C851 C835 1.429 . S
C851 C847 1.429 . S
C851 C852 1.523 . S
C852 C836 1.368 . S
C852 C848 1.368 . S
C852 C851 1.523 . S
H853 C828 0.950 . S
H854 C830 0.950 . S
H855 C831 0.949 . S
H856 C833 0.950 . S
H857 C835 0.950 . S
C858 C859 1.349 . S
C858 C860 1.327 . S
C858 H883 0.950 . S
C859 C858 1.349 . S
C859 C875 1.349 . S
C860 C858 1.327 . S
C860 C879 1.429 . S
C860 H884 0.950 . S
C861 C878 1.574 . S
C861 C880 1.368 . S
C861 H885 0.949 . S
H862 C866 0.949 . S
C863 C864 1.349 . S
C863 C865 1.327 . S
C863 H886 0.950 . S
C864 C863 1.349 . S
C864 C876 1.349 . S
C865 C863 1.327 . S
C865 C881 1.429 . S
C865 H887 0.950 . S
C866 H862 0.949 . S
C866 C874 1.574 . S
C866 C882 1.368 . S
H867 C875 0.950 . S
H868 C873 0.950 . S
H869 C874 0.949 . S
H870 C876 0.950 . S
H871 C877 0.950 . S
H872 C878 0.949 . S
C873 H868 0.950 . S
C873 C875 1.327 . S
C873 C879 1.429 . S
C874 C866 1.574 . S
C874 H869 0.949 . S
C874 C880 1.368 . S
C875 C859 1.349 . S
C875 H867 0.950 . S
C875 C873 1.327 . S
C876 C864 1.349 . S
C876 H870 0.950 . S
C876 C877 1.327 . S
C877 H871 0.950 . S
C877 C876 1.327 . S
C877 C881 1.429 . S
C878 C861 1.574 . S
C878 H872 0.949 . S
C878 C882 1.368 . S
C879 C860 1.429 . S
C879 C873 1.429 . S
C879 C880 1.523 . S
C880 C861 1.368 . S
C880 C874 1.368 . S
C880 C879 1.523 . S
C881 C865 1.429 . S
C881 C877 1.429 . S
C881 C882 1.523 . S
C882 C866 1.368 . S
C882 C878 1.368 . S
C882 C881 1.523 . S
H883 C858 0.950 . S
H884 C860 0.950 . S
H885 C861 0.949 . S
H886 C863 0.950 . S
H887 C865 0.950 . S
C888 C889 1.349 . S
C888 C890 1.327 . S
C888 H913 0.950 . S
C889 C888 1.349 . S
C889 C905 1.349 . S
C890 C888 1.327 . S
C890 C909 1.429 . S
C890 H914 0.950 . S
C891 C908 1.574 . S
C891 C910 1.368 . S
C891 H915 0.949 . S
H892 C896 0.949 . S
C893 C894 1.349 . S
C893 C895 1.327 . S
C893 H916 0.950 . S
C894 C893 1.349 . S
C894 C906 1.349 . S
C895 C893 1.327 . S
C895 C911 1.429 . S
C895 H917 0.950 . S
C896 H892 0.949 . S
C896 C904 1.574 . S
C896 C912 1.368 . S
H897 C905 0.950 . S
H898 C903 0.950 . S
H899 C904 0.949 . S
H900 C906 0.950 . S
H901 C907 0.950 . S
H902 C908 0.949 . S
C903 H898 0.950 . S
C903 C905 1.327 . S
C903 C909 1.429 . S
C904 C896 1.574 . S
C904 H899 0.949 . S
C904 C910 1.368 . S
C905 C889 1.349 . S
C905 H897 0.950 . S
C905 C903 1.327 . S
C906 C894 1.349 . S
C906 H900 0.950 . S
C906 C907 1.327 . S
C907 H901 0.950 . S
C907 C906 1.327 . S
C907 C911 1.429 . S
C908 C891 1.574 . S
C908 H902 0.949 . S
C908 C912 1.368 . S
C909 C890 1.429 . S
C909 C903 1.429 . S
C909 C910 1.523 . S
C910 C891 1.368 . S
C910 C904 1.368 . S
C910 C909 1.523 . S
C911 C895 1.429 . S
C911 C907 1.429 . S
C911 C912 1.523 . S
C912 C896 1.368 . S
C912 C908 1.368 . S
C912 C911 1.523 . S
H913 C888 0.950 . S
H914 C890 0.950 . S
H915 C891 0.949 . S
H916 C893 0.950 . S
H917 C895 0.950 . S
C918 C919 1.349 . S
C918 C920 1.327 . S
C918 H943 0.950 . S
C919 C918 1.349 . S
C919 C935 1.349 . S
C920 C918 1.327 . S
C920 C939 1.429 . S
C920 H944 0.950 . S
C921 C938 1.574 . S
C921 C940 1.368 . S
C921 H945 0.949 . S
H922 C926 0.949 . S
C923 C924 1.349 . S
C923 C925 1.327 . S
C923 H946 0.950 . S
C924 C923 1.349 . S
C924 C936 1.349 . S
C925 C923 1.327 . S
C925 C941 1.429 . S
C925 H947 0.950 . S
C926 H922 0.949 . S
C926 C934 1.574 . S
C926 C942 1.368 . S
H927 C935 0.950 . S
H928 C933 0.950 . S
H929 C934 0.949 . S
H930 C936 0.950 . S
H931 C937 0.950 . S
H932 C938 0.949 . S
C933 H928 0.950 . S
C933 C935 1.327 . S
C933 C939 1.429 . S
C934 C926 1.574 . S
C934 H929 0.949 . S
C934 C940 1.368 . S
C935 C919 1.349 . S
C935 H927 0.950 . S
C935 C933 1.327 . S
C936 C924 1.349 . S
C936 H930 0.950 . S
C936 C937 1.327 . S
C937 H931 0.950 . S
C937 C936 1.327 . S
C937 C941 1.429 . S
C938 C921 1.574 . S
C938 H932 0.949 . S
C938 C942 1.368 . S
C939 C920 1.429 . S
C939 C933 1.429 . S
C939 C940 1.523 . S
C940 C921 1.368 . S
C940 C934 1.368 . S
C940 C939 1.523 . S
C941 C925 1.429 . S
C941 C937 1.429 . S
C941 C942 1.523 . S
C942 C926 1.368 . S
C942 C938 1.368 . S
C942 C941 1.523 . S
H943 C918 0.950 . S
H944 C920 0.950 . S
H945 C921 0.949 . S
H946 C923 0.950 . S
H947 C925 0.950 . S
C948 C949 1.349 . S
C948 C950 1.327 . S
C948 H973 0.950 . S
C949 C948 1.349 . S
C949 C965 1.349 . S
C950 C948 1.327 . S
C950 C969 1.429 . S
C950 H974 0.950 . S
C951 C968 1.574 . S
C951 C970 1.368 . S
C951 H975 0.949 . S
H952 C956 0.949 . S
C953 C954 1.349 . S
C953 C955 1.327 . S
C953 H976 0.950 . S
C954 C953 1.349 . S
C954 C966 1.349 . S
C955 C953 1.327 . S
C955 C971 1.429 . S
C955 H977 0.950 . S
C956 H952 0.949 . S
C956 C964 1.574 . S
C956 C972 1.368 . S
H957 C965 0.950 . S
H958 C963 0.950 . S
H959 C964 0.949 . S
H960 C966 0.950 . S
H961 C967 0.950 . S
H962 C968 0.949 . S
C963 H958 0.950 . S
C963 C965 1.327 . S
C963 C969 1.429 . S
C964 C956 1.574 . S
C964 H959 0.949 . S
C964 C970 1.368 . S
C965 C949 1.349 . S
C965 H957 0.950 . S
C965 C963 1.327 . S
C966 C954 1.349 . S
C966 H960 0.950 . S
C966 C967 1.327 . S
C967 H961 0.950 . S
C967 C966 1.327 . S
C967 C971 1.429 . S
C968 C951 1.574 . S
C968 H962 0.949 . S
C968 C972 1.368 . S
C969 C950 1.429 . S
C969 C963 1.429 . S
C969 C970 1.523 . S
C970 C951 1.368 . S
C970 C964 1.368 . S
C970 C969 1.523 . S
C971 C955 1.429 . S
C971 C967 1.429 . S
C971 C972 1.523 . S
C972 C956 1.368 . S
C972 C968 1.368 . S
C972 C971 1.523 . S
H973 C948 0.950 . S
H974 C950 0.950 . S
H975 C951 0.949 . S
H976 C953 0.950 . S
H977 C955 0.950 . S
C978 C979 1.349 . S
C978 C980 1.327 . S
C978 H1003 0.950 . S
C979 C978 1.349 . S
C979 C995 1.349 . S
C980 C978 1.327 . S
C980 C999 1.429 . S
C980 H1004 0.950 . S
C981 C998 1.574 . S
C981 C1000 1.368 . S
C981 H1005 0.949 . S
H982 C986 0.949 . S
C983 C984 1.349 . S
C983 C985 1.327 . S
C983 H1006 0.950 . S
C984 C983 1.349 . S
C984 C996 1.349 . S
C985 C983 1.327 . S
C985 C1001 1.429 . S
C985 H1007 0.950 . S
C986 H982 0.949 . S
C986 C994 1.574 . S
C986 C1002 1.368 . S
H987 C995 0.950 . S
H988 C993 0.950 . S
H989 C994 0.949 . S
H990 C996 0.950 . S
H991 C997 0.950 . S
H992 C998 0.949 . S
C993 H988 0.950 . S
C993 C995 1.327 . S
C993 C999 1.429 . S
C994 C986 1.574 . S
C994 H989 0.949 . S
C994 C1000 1.368 . S
C995 C979 1.349 . S
C995 H987 0.950 . S
C995 C993 1.327 . S
C996 C984 1.349 . S
C996 H990 0.950 . S
C996 C997 1.327 . S
C997 H991 0.950 . S
C997 C996 1.327 . S
C997 C1001 1.429 . S
C998 C981 1.574 . S
C998 H992 0.949 . S
C998 C1002 1.368 . S
C999 C980 1.429 . S
C999 C993 1.429 . S
C999 C1000 1.523 . S
C1000 C981 1.368 . S
C1000 C994 1.368 . S
C1000 C999 1.523 . S
C1001 C985 1.429 . S
C1001 C997 1.429 . S
C1001 C1002 1.523 . S
C1002 C986 1.368 . S
C1002 C998 1.368 . S
C1002 C1001 1.523 . S
H1003 C978 0.950 . S
H1004 C980 0.950 . S
H1005 C981 0.949 . S
H1006 C983 0.950 . S
H1007 C985 0.950 . S
C1008 C1009 1.349 . S
C1008 C1010 1.327 . S
C1008 H1033 0.950 . S
C1009 C1008 1.349 . S
C1009 C1025 1.349 . S
C1010 C1008 1.327 . S
C1010 C1029 1.429 . S
C1010 H1034 0.950 . S
C1011 C1028 1.574 . S
C1011 C1030 1.368 . S
C1011 H1035 0.949 . S
H1012 C1016 0.949 . S
C1013 C1014 1.349 . S
C1013 C1015 1.327 . S
C1013 H1036 0.950 . S
C1014 C1013 1.349 . S
C1014 C1026 1.349 . S
C1015 C1013 1.327 . S
C1015 C1031 1.429 . S
C1015 H1037 0.950 . S
C1016 H1012 0.949 . S
C1016 C1024 1.574 . S
C1016 C1032 1.368 . S
H1017 C1025 0.950 . S
H1018 C1023 0.950 . S
H1019 C1024 0.949 . S
H1020 C1026 0.950 . S
H1021 C1027 0.950 . S
H1022 C1028 0.949 . S
C1023 H1018 0.950 . S
C1023 C1025 1.327 . S
C1023 C1029 1.429 . S
C1024 C1016 1.574 . S
C1024 H1019 0.949 . S
C1024 C1030 1.368 . S
C1025 C1009 1.349 . S
C1025 H1017 0.950 . S
C1025 C1023 1.327 . S
C1026 C1014 1.349 . S
C1026 H1020 0.950 . S
C1026 C1027 1.327 . S
C1027 H1021 0.950 . S
C1027 C1026 1.327 . S
C1027 C1031 1.429 . S
C1028 C1011 1.574 . S
C1028 H1022 0.949 . S
C1028 C1032 1.368 . S
C1029 C1010 1.429 . S
C1029 C1023 1.429 . S
C1029 C1030 1.523 . S
C1030 C1011 1.368 . S
C1030 C1024 1.368 . S
C1030 C1029 1.523 . S
C1031 C1015 1.429 . S
C1031 C1027 1.429 . S
C1031 C1032 1.523 . S
C1032 C1016 1.368 . S
C1032 C1028 1.368 . S
C1032 C1031 1.523 . S
H1033 C1008 0.950 . S
H1034 C1010 0.950 . S
H1035 C1011 0.949 . S
H1036 C1013 0.950 . S
H1037 C1015 0.950 . S
C1038 C1039 1.349 . S
C1038 C1040 1.327 . S
C1038 H1063 0.950 . S
C1039 C1038 1.349 . S
C1039 C1055 1.349 . S
C1040 C1038 1.327 . S
C1040 C1059 1.429 . S
C1040 H1064 0.950 . S
C1041 C1058 1.574 . S
C1041 C1060 1.368 . S
C1041 H1065 0.949 . S
H1042 C1046 0.949 . S
C1043 C1044 1.349 . S
C1043 C1045 1.327 . S
C1043 H1066 0.950 . S
C1044 C1043 1.349 . S
C1044 C1056 1.349 . S
C1045 C1043 1.327 . S
C1045 C1061 1.429 . S
C1045 H1067 0.950 . S
C1046 H1042 0.949 . S
C1046 C1054 1.574 . S
C1046 C1062 1.368 . S
H1047 C1055 0.950 . S
H1048 C1053 0.950 . S
H1049 C1054 0.949 . S
H1050 C1056 0.950 . S
H1051 C1057 0.950 . S
H1052 C1058 0.949 . S
C1053 H1048 0.950 . S
C1053 C1055 1.327 . S
C1053 C1059 1.429 . S
C1054 C1046 1.574 . S
C1054 H1049 0.949 . S
C1054 C1060 1.368 . S
C1055 C1039 1.349 . S
C1055 H1047 0.950 . S
C1055 C1053 1.327 . S
C1056 C1044 1.349 . S
C1056 H1050 0.950 . S
C1056 C1057 1.327 . S
C1057 H1051 0.950 . S
C1057 C1056 1.327 . S
C1057 C1061 1.429 . S
C1058 C1041 1.574 . S
C1058 H1052 0.949 . S
C1058 C1062 1.368 . S
C1059 C1040 1.429 . S
C1059 C1053 1.429 . S
C1059 C1060 1.523 . S
C1060 C1041 1.368 . S
C1060 C1054 1.368 . S
C1060 C1059 1.523 . S
C1061 C1045 1.429 . S
C1061 C1057 1.429 . S
C1061 C1062 1.523 . S
C1062 C1046 1.368 . S
C1062 C1058 1.368 . S
C1062 C1061 1.523 . S
H1063 C1038 0.950 . S
H1064 C1040 0.950 . S
H1065 C1041 0.949 . S
H1066 C1043 0.950 . S
H1067 C1045 0.950 . S
C1068 C1069 1.349 . S
C1068 C1070 1.327 . S
C1068 H1093 0.950 . S
C1069 C1068 1.349 . S
C1069 C1085 1.349 . S
C1070 C1068 1.327 . S
C1070 C1089 1.429 . S
C1070 H1094 0.950 . S
C1071 C1088 1.574 . S
C1071 C1090 1.368 . S
C1071 H1095 0.949 . S
H1072 C1076 0.949 . S
C1073 C1074 1.349 . S
C1073 C1075 1.327 . S
C1073 H1096 0.950 . S
C1074 C1073 1.349 . S
C1074 C1086 1.349 . S
C1075 C1073 1.327 . S
C1075 C1091 1.429 . S
C1075 H1097 0.950 . S
C1076 H1072 0.949 . S
C1076 C1084 1.574 . S
C1076 C1092 1.368 . S
H1077 C1085 0.950 . S
H1078 C1083 0.950 . S
H1079 C1084 0.949 . S
H1080 C1086 0.950 . S
H1081 C1087 0.950 . S
H1082 C1088 0.949 . S
C1083 H1078 0.950 . S
C1083 C1085 1.327 . S
C1083 C1089 1.429 . S
C1084 C1076 1.574 . S
C1084 H1079 0.949 . S
C1084 C1090 1.368 . S
C1085 C1069 1.349 . S
C1085 H1077 0.950 . S
C1085 C1083 1.327 . S
C1086 C1074 1.349 . S
C1086 H1080 0.950 . S
C1086 C1087 1.327 . S
C1087 H1081 0.950 . S
C1087 C1086 1.327 . S
C1087 C1091 1.429 . S
C1088 C1071 1.574 . S
C1088 H1082 0.949 . S
C1088 C1092 1.368 . S
C1089 C1070 1.429 . S
C1089 C1083 1.429 . S
C1089 C1090 1.523 . S
C1090 C1071 1.368 . S
C1090 C1084 1.368 . S
C1090 C1089 1.523 . S
C1091 C1075 1.429 . S
C1091 C1087 1.429 . S
C1091 C1092 1.523 . S
C1092 C1076 1.368 . S
C1092 C1088 1.368 . S
C1092 C1091 1.523 . S
H1093 C1068 0.950 . S
H1094 C1070 0.950 . S
H1095 C1071 0.949 . S
H1096 C1073 0.950 . S
H1097 C1075 0.950 . S
C1098 C1099 1.349 . S
C1098 C1100 1.327 . S
C1098 H1123 0.950 . S
C1099 C1098 1.349 . S
C1099 C1115 1.349 1_554 S
C1100 C1098 1.327 . S
C1100 C1119 1.429 1_554 S
C1100 H1124 0.950 . S
C1101 C1118 1.574 . S
C1101 C1120 1.368 . S
C1101 H1125 0.949 . S
H1102 C1106 0.949 . S
C1103 C1104 1.349 . S
C1103 C1105 1.327 . S
C1103 H1126 0.950 . S
C1104 C1103 1.349 . S
C1104 C1116 1.349 . S
C1105 C1103 1.327 . S
C1105 C1121 1.429 . S
C1105 H1127 0.950 . S
C1106 H1102 0.949 . S
C1106 C1114 1.574 . S
C1106 C1122 1.368 . S
H1107 C1115 0.950 . S
H1108 C1113 0.950 . S
H1109 C1114 0.949 . S
H1110 C1116 0.950 . S
H1111 C1117 0.950 . S
H1112 C1118 0.949 . S
C1113 H1108 0.950 . S
C1113 C1115 1.327 . S
C1113 C1119 1.429 . S
C1114 C1106 1.574 . S
C1114 H1109 0.949 . S
C1114 C1120 1.368 . S
C1115 C1099 1.349 1_556 S
C1115 H1107 0.950 . S
C1115 C1113 1.327 . S
C1116 C1104 1.349 . S
C1116 H1110 0.950 . S
C1116 C1117 1.327 . S
C1117 H1111 0.950 . S
C1117 C1116 1.327 . S
C1117 C1121 1.429 . S
C1118 C1101 1.574 . S
C1118 H1112 0.949 . S
C1118 C1122 1.368 . S
C1119 C1100 1.429 1_556 S
C1119 C1113 1.429 . S
C1119 C1120 1.523 . S
C1120 C1101 1.368 . S
C1120 C1114 1.368 . S
C1120 C1119 1.523 . S
C1121 C1105 1.429 . S
C1121 C1117 1.429 . S
C1121 C1122 1.523 . S
C1122 C1106 1.368 . S
C1122 C1118 1.368 . S
C1122 C1121 1.523 . S
H1123 C1098 0.950 . S
H1124 C1100 0.950 . S
H1125 C1101 0.949 . S
H1126 C1103 0.950 . S
H1127 C1105 0.950 . S
C409 C8 1.595 . S
C414 C109 1.475 1_565 S
C439 C31 1.471 . S
C444 C149 1.326 . S
C469 C53 1.765 . S
C474 C170 1.660 . S
C504 C229 1.397 . S
C499 C74 1.384 . S
C534 C269 1.463 . S
C529 C26 1.577 . S
C559 C48 1.379 . S
C564 C290 1.345 . S
C589 C71 1.803 . S
C594 C330 1.696 . S
C619 C5 1.475 . S
C624 C389 1.332 . S
C649 C50 1.537 . S
C654 C370 1.448 1_545 S
C684 C250 1.283 . S
C679 C70 1.385 . S
C714 C309 1.660 . S
C709 C4 1.821 . S
C739 C28 1.389 . S
C744 C349 1.339 . S
C774 C130 1.438 . S
C769 C73 1.521 . S
C799 C7 1.454 . S
C804 C189 1.395 . S
C834 C210 1.738 . S
C829 C30 1.771 . S
C864 C90 1.306 . S
C859 C52 1.411 . S
C894 C343 1.443 . S
C889 C9 1.495 . S
C924 C383 1.342 . S
C919 C29 1.358 . S
C949 C51 1.297 . S
C954 C263 1.286 . S
C984 C303 1.459 . S
C979 C75 1.516 . S
C1014 C183 1.459 . S
C1009 C27 1.511 . S
C1039 C49 1.462 . S
C1044 C223 1.417 . S
C1074 C103 1.317 . S
C1069 C72 1.330 . S
C1104 C143 1.333 . S
C1099 C6 1.347 . S
