# Generated by pormake.
# Topology iac, (4,6)-cn, num edge types: 1
# Building blocks:
#     Node 0, Type 0, BuildingBlock: CEKHIL_clean_sbu_0, # of connection points: 4
#     Node 1, Type 0, BuildingBlock: CEKHIL_clean_sbu_0, # of connection points: 4
#     Node 2, Type 0, BuildingBlock: CEKHIL_clean_sbu_0, # of connection points: 4
#     Node 3, Type 0, BuildingBlock: CEKHIL_clean_sbu_0, # of connection points: 4
#     Node 4, Type 0, BuildingBlock: CEKHIL_clean_sbu_0, # of connection points: 4
#     Node 5, Type 0, BuildingBlock: CEKHIL_clean_sbu_0, # of connection points: 4
#     Node 6, Type 0, BuildingBlock: CEKHIL_clean_sbu_0, # of connection points: 4
#     Node 7, Type 0, BuildingBlock: CEKHIL_clean_sbu_0, # of connection points: 4
#     Node 8, Type 0, BuildingBlock: CEKHIL_clean_sbu_0, # of connection points: 4
#     Node 9, Type 0, BuildingBlock: CEKHIL_clean_sbu_0, # of connection points: 4
#     Node 10, Type 0, BuildingBlock: CEKHIL_clean_sbu_0, # of connection points: 4
#     Node 11, Type 0, BuildingBlock: CEKHIL_clean_sbu_0, # of connection points: 4
#     Node 12, Type 0, BuildingBlock: CEKHIL_clean_sbu_0, # of connection points: 4
#     Node 13, Type 0, BuildingBlock: CEKHIL_clean_sbu_0, # of connection points: 4
#     Node 14, Type 0, BuildingBlock: CEKHIL_clean_sbu_0, # of connection points: 4
#     Node 15, Type 0, BuildingBlock: CEKHIL_clean_sbu_0, # of connection points: 4
#     Node 16, Type 0, BuildingBlock: CEKHIL_clean_sbu_0, # of connection points: 4
#     Node 17, Type 0, BuildingBlock: CEKHIL_clean_sbu_0, # of connection points: 4
#     Node 18, Type 0, BuildingBlock: CEKHIL_clean_sbu_0, # of connection points: 4
#     Node 19, Type 0, BuildingBlock: CEKHIL_clean_sbu_0, # of connection points: 4
#     Node 20, Type 0, BuildingBlock: CEKHIL_clean_sbu_0, # of connection points: 4
#     Node 21, Type 0, BuildingBlock: CEKHIL_clean_sbu_0, # of connection points: 4
#     Node 22, Type 0, BuildingBlock: CEKHIL_clean_sbu_0, # of connection points: 4
#     Node 23, Type 0, BuildingBlock: CEKHIL_clean_sbu_0, # of connection points: 4
#     Node 24, Type 1, BuildingBlock: VOLQOD_clean_sbu_1, # of connection points: 6
#     Node 25, Type 1, BuildingBlock: VOLQOD_clean_sbu_1, # of connection points: 6
#     Node 26, Type 1, BuildingBlock: VOLQOD_clean_sbu_1, # of connection points: 6
#     Node 27, Type 1, BuildingBlock: VOLQOD_clean_sbu_1, # of connection points: 6
#     Node 28, Type 1, BuildingBlock: VOLQOD_clean_sbu_1, # of connection points: 6
#     Node 29, Type 1, BuildingBlock: VOLQOD_clean_sbu_1, # of connection points: 6
#     Node 30, Type 1, BuildingBlock: VOLQOD_clean_sbu_1, # of connection points: 6
#     Node 31, Type 1, BuildingBlock: VOLQOD_clean_sbu_1, # of connection points: 6
#     Node 32, Type 1, BuildingBlock: VOLQOD_clean_sbu_1, # of connection points: 6
#     Node 33, Type 1, BuildingBlock: VOLQOD_clean_sbu_1, # of connection points: 6
#     Node 34, Type 1, BuildingBlock: VOLQOD_clean_sbu_1, # of connection points: 6
#     Node 35, Type 1, BuildingBlock: VOLQOD_clean_sbu_1, # of connection points: 6
#     Node 36, Type 1, BuildingBlock: VOLQOD_clean_sbu_1, # of connection points: 6
#     Node 37, Type 1, BuildingBlock: VOLQOD_clean_sbu_1, # of connection points: 6
#     Node 38, Type 1, BuildingBlock: VOLQOD_clean_sbu_1, # of connection points: 6
#     Node 39, Type 1, BuildingBlock: VOLQOD_clean_sbu_1, # of connection points: 6
#     Edge 40, Type (0, 1), BuildingBlock: OJICUG_clean_linker_0, # of connection points: 2
#     Edge 41, Type (0, 1), BuildingBlock: OJICUG_clean_linker_0, # of connection points: 2
#     Edge 42, Type (0, 1), BuildingBlock: OJICUG_clean_linker_0, # of connection points: 2
#     Edge 43, Type (0, 1), BuildingBlock: OJICUG_clean_linker_0, # of connection points: 2
#     Edge 44, Type (0, 1), BuildingBlock: OJICUG_clean_linker_0, # of connection points: 2
#     Edge 45, Type (0, 1), BuildingBlock: OJICUG_clean_linker_0, # of connection points: 2
#     Edge 46, Type (0, 1), BuildingBlock: OJICUG_clean_linker_0, # of connection points: 2
#     Edge 47, Type (0, 1), BuildingBlock: OJICUG_clean_linker_0, # of connection points: 2
#     Edge 48, Type (0, 1), BuildingBlock: OJICUG_clean_linker_0, # of connection points: 2
#     Edge 49, Type (0, 1), BuildingBlock: OJICUG_clean_linker_0, # of connection points: 2
#     Edge 50, Type (0, 1), BuildingBlock: OJICUG_clean_linker_0, # of connection points: 2
#     Edge 51, Type (0, 1), BuildingBlock: OJICUG_clean_linker_0, # of connection points: 2
#     Edge 52, Type (0, 1), BuildingBlock: OJICUG_clean_linker_0, # of connection points: 2
#     Edge 53, Type (0, 1), BuildingBlock: OJICUG_clean_linker_0, # of connection points: 2
#     Edge 54, Type (0, 1), BuildingBlock: OJICUG_clean_linker_0, # of connection points: 2
#     Edge 55, Type (0, 1), BuildingBlock: OJICUG_clean_linker_0, # of connection points: 2
#     Edge 56, Type (0, 1), BuildingBlock: OJICUG_clean_linker_0, # of connection points: 2
#     Edge 57, Type (0, 1), BuildingBlock: OJICUG_clean_linker_0, # of connection points: 2
#     Edge 58, Type (0, 1), BuildingBlock: OJICUG_clean_linker_0, # of connection points: 2
#     Edge 59, Type (0, 1), BuildingBlock: OJICUG_clean_linker_0, # of connection points: 2
#     Edge 60, Type (0, 1), BuildingBlock: OJICUG_clean_linker_0, # of connection points: 2
#     Edge 61, Type (0, 1), BuildingBlock: OJICUG_clean_linker_0, # of connection points: 2
#     Edge 62, Type (0, 1), BuildingBlock: OJICUG_clean_linker_0, # of connection points: 2
#     Edge 63, Type (0, 1), BuildingBlock: OJICUG_clean_linker_0, # of connection points: 2
#     Edge 64, Type (0, 1), BuildingBlock: OJICUG_clean_linker_0, # of connection points: 2
#     Edge 65, Type (0, 1), BuildingBlock: OJICUG_clean_linker_0, # of connection points: 2
#     Edge 66, Type (0, 1), BuildingBlock: OJICUG_clean_linker_0, # of connection points: 2
#     Edge 67, Type (0, 1), BuildingBlock: OJICUG_clean_linker_0, # of connection points: 2
#     Edge 68, Type (0, 1), BuildingBlock: OJICUG_clean_linker_0, # of connection points: 2
#     Edge 69, Type (0, 1), BuildingBlock: OJICUG_clean_linker_0, # of connection points: 2
#     Edge 70, Type (0, 1), BuildingBlock: OJICUG_clean_linker_0, # of connection points: 2
#     Edge 71, Type (0, 1), BuildingBlock: OJICUG_clean_linker_0, # of connection points: 2
#     Edge 72, Type (0, 1), BuildingBlock: OJICUG_clean_linker_0, # of connection points: 2
#     Edge 73, Type (0, 1), BuildingBlock: OJICUG_clean_linker_0, # of connection points: 2
#     Edge 74, Type (0, 1), BuildingBlock: OJICUG_clean_linker_0, # of connection points: 2
#     Edge 75, Type (0, 1), BuildingBlock: OJICUG_clean_linker_0, # of connection points: 2
#     Edge 76, Type (0, 1), BuildingBlock: OJICUG_clean_linker_0, # of connection points: 2
#     Edge 77, Type (0, 1), BuildingBlock: OJICUG_clean_linker_0, # of connection points: 2
#     Edge 78, Type (0, 1), BuildingBlock: OJICUG_clean_linker_0, # of connection points: 2
#     Edge 79, Type (0, 1), BuildingBlock: OJICUG_clean_linker_0, # of connection points: 2
#     Edge 80, Type (0, 1), BuildingBlock: OJICUG_clean_linker_0, # of connection points: 2
#     Edge 81, Type (0, 1), BuildingBlock: OJICUG_clean_linker_0, # of connection points: 2
#     Edge 82, Type (0, 1), BuildingBlock: OJICUG_clean_linker_0, # of connection points: 2
#     Edge 83, Type (0, 1), BuildingBlock: OJICUG_clean_linker_0, # of connection points: 2
#     Edge 84, Type (0, 1), BuildingBlock: OJICUG_clean_linker_0, # of connection points: 2
#     Edge 85, Type (0, 1), BuildingBlock: OJICUG_clean_linker_0, # of connection points: 2
#     Edge 86, Type (0, 1), BuildingBlock: OJICUG_clean_linker_0, # of connection points: 2
#     Edge 87, Type (0, 1), BuildingBlock: OJICUG_clean_linker_0, # of connection points: 2
#     Edge 88, Type (0, 1), BuildingBlock: OJICUG_clean_linker_0, # of connection points: 2
#     Edge 89, Type (0, 1), BuildingBlock: OJICUG_clean_linker_0, # of connection points: 2
#     Edge 90, Type (0, 1), BuildingBlock: OJICUG_clean_linker_0, # of connection points: 2
#     Edge 91, Type (0, 1), BuildingBlock: OJICUG_clean_linker_0, # of connection points: 2
#     Edge 92, Type (0, 1), BuildingBlock: OJICUG_clean_linker_0, # of connection points: 2
#     Edge 93, Type (0, 1), BuildingBlock: OJICUG_clean_linker_0, # of connection points: 2
#     Edge 94, Type (0, 1), BuildingBlock: OJICUG_clean_linker_0, # of connection points: 2
#     Edge 95, Type (0, 1), BuildingBlock: OJICUG_clean_linker_0, # of connection points: 2
#     Edge 96, Type (0, 1), BuildingBlock: OJICUG_clean_linker_0, # of connection points: 2
#     Edge 97, Type (0, 1), BuildingBlock: OJICUG_clean_linker_0, # of connection points: 2
#     Edge 98, Type (0, 1), BuildingBlock: OJICUG_clean_linker_0, # of connection points: 2
#     Edge 99, Type (0, 1), BuildingBlock: OJICUG_clean_linker_0, # of connection points: 2
#     Edge 100, Type (0, 1), BuildingBlock: OJICUG_clean_linker_0, # of connection points: 2
#     Edge 101, Type (0, 1), BuildingBlock: OJICUG_clean_linker_0, # of connection points: 2
#     Edge 102, Type (0, 1), BuildingBlock: OJICUG_clean_linker_0, # of connection points: 2
#     Edge 103, Type (0, 1), BuildingBlock: OJICUG_clean_linker_0, # of connection points: 2
#     Edge 104, Type (0, 1), BuildingBlock: OJICUG_clean_linker_0, # of connection points: 2
#     Edge 105, Type (0, 1), BuildingBlock: OJICUG_clean_linker_0, # of connection points: 2
#     Edge 106, Type (0, 1), BuildingBlock: OJICUG_clean_linker_0, # of connection points: 2
#     Edge 107, Type (0, 1), BuildingBlock: OJICUG_clean_linker_0, # of connection points: 2
#     Edge 108, Type (0, 1), BuildingBlock: OJICUG_clean_linker_0, # of connection points: 2
#     Edge 109, Type (0, 1), BuildingBlock: OJICUG_clean_linker_0, # of connection points: 2
#     Edge 110, Type (0, 1), BuildingBlock: OJICUG_clean_linker_0, # of connection points: 2
#     Edge 111, Type (0, 1), BuildingBlock: OJICUG_clean_linker_0, # of connection points: 2
#     Edge 112, Type (0, 1), BuildingBlock: OJICUG_clean_linker_0, # of connection points: 2
#     Edge 113, Type (0, 1), BuildingBlock: OJICUG_clean_linker_0, # of connection points: 2
#     Edge 114, Type (0, 1), BuildingBlock: OJICUG_clean_linker_0, # of connection points: 2
#     Edge 115, Type (0, 1), BuildingBlock: OJICUG_clean_linker_0, # of connection points: 2
#     Edge 116, Type (0, 1), BuildingBlock: OJICUG_clean_linker_0, # of connection points: 2
#     Edge 117, Type (0, 1), BuildingBlock: OJICUG_clean_linker_0, # of connection points: 2
#     Edge 118, Type (0, 1), BuildingBlock: OJICUG_clean_linker_0, # of connection points: 2
#     Edge 119, Type (0, 1), BuildingBlock: OJICUG_clean_linker_0, # of connection points: 2
#     Edge 120, Type (0, 1), BuildingBlock: OJICUG_clean_linker_0, # of connection points: 2
#     Edge 121, Type (0, 1), BuildingBlock: OJICUG_clean_linker_0, # of connection points: 2
#     Edge 122, Type (0, 1), BuildingBlock: OJICUG_clean_linker_0, # of connection points: 2
#     Edge 123, Type (0, 1), BuildingBlock: OJICUG_clean_linker_0, # of connection points: 2
#     Edge 124, Type (0, 1), BuildingBlock: OJICUG_clean_linker_0, # of connection points: 2
#     Edge 125, Type (0, 1), BuildingBlock: OJICUG_clean_linker_0, # of connection points: 2
#     Edge 126, Type (0, 1), BuildingBlock: OJICUG_clean_linker_0, # of connection points: 2
#     Edge 127, Type (0, 1), BuildingBlock: OJICUG_clean_linker_0, # of connection points: 2
#     Edge 128, Type (0, 1), BuildingBlock: OJICUG_clean_linker_0, # of connection points: 2
#     Edge 129, Type (0, 1), BuildingBlock: OJICUG_clean_linker_0, # of connection points: 2
#     Edge 130, Type (0, 1), BuildingBlock: OJICUG_clean_linker_0, # of connection points: 2
#     Edge 131, Type (0, 1), BuildingBlock: OJICUG_clean_linker_0, # of connection points: 2
#     Edge 132, Type (0, 1), BuildingBlock: OJICUG_clean_linker_0, # of connection points: 2
#     Edge 133, Type (0, 1), BuildingBlock: OJICUG_clean_linker_0, # of connection points: 2
#     Edge 134, Type (0, 1), BuildingBlock: OJICUG_clean_linker_0, # of connection points: 2
#     Edge 135, Type (0, 1), BuildingBlock: OJICUG_clean_linker_0, # of connection points: 2
# Relax obj value: 0.303
# Max RMSD: 0.289
# Mean RMSD: 0.141
data_MOF--net-iac--node1-CEKHIL_clean_sbu_0--node2-VOLQOD_clean_sbu_1--edge1-OJICUG_clean_linker_0
_symmetry_space_group_name_H-M    P1
_symmetry_Int_Tables_number       1
_symmetry_cell_setting            triclinic
loop_
_symmetry_equiv_pos_as_xyz
'x, y, z'
_cell_length_a     41.413495
_cell_length_b     41.033372
_cell_length_c     40.327625
_cell_angle_alpha  90.113185
_cell_angle_beta   90.264229
_cell_angle_gamma 90.590116
loop_
_atom_site_label
_atom_site_type_symbol
_atom_site_fract_x
_atom_site_fract_y
_atom_site_fract_z
_atom_type_partial_charge
Co0 Co 0.99032 0.25793 0.1254 0.0
O1 O 0.94422 0.2544 0.12442 0.0
O2 O 0.97569 0.23804 0.16588 0.0
C3 C -0.00369 0.30877 0.1071 0.0
O4 O 0.0384 0.2588 0.13495 0.0
Co5 Co 0.02742 0.26599 0.059 0.0
O6 O 0.06416 0.27638 0.0892 0.0
C7 C 0.99221 0.20576 0.07356 0.0
C8 C 0.94692 0.24006 0.15297 0.0
C9 C 0.06374 0.26964 0.12006 0.0
O10 O 0.99238 0.21391 0.10425 0.0
O11 O 0.00245 0.22464 0.05062 0.0
O12 O 0.98909 0.30385 0.1381 0.0
O13 O 0.99461 0.28353 0.08801 0.0
Co14 Co -0.0031 0.75655 0.38005 0.0
O15 O 0.04306 0.75303 0.38444 0.0
O16 O 0.01517 0.743 0.33844 0.0
C17 C 0.99272 0.80424 0.40741 0.0
O18 O 0.95025 0.75842 0.36431 0.0
Co19 Co 0.94987 0.7579 0.43937 0.0
O20 O 0.9158 0.76742 0.40595 0.0
C21 C 0.99076 0.70118 0.42545 0.0
C22 C 0.04293 0.74384 0.35354 0.0
C23 C 0.92175 0.76431 0.37513 0.0
O24 O 0.9926 0.71024 0.39503 0.0
O25 O 0.97736 0.71854 0.44783 0.0
O26 O 0.00051 0.80409 0.37611 0.0
O27 O 0.98934 0.7761 0.42098 0.0
Co28 Co 0.48809 0.76398 0.62945 0.0
O29 O 0.44205 0.76028 0.62874 0.0
O30 O 0.47394 0.74449 0.67018 0.0
C31 C 0.49374 0.81451 0.61036 0.0
O32 O 0.53604 0.765 0.6389 0.0
Co33 Co 0.52568 0.77175 0.56332 0.0
O34 O 0.56248 0.7823 0.59349 0.0
C35 C 0.4883 0.71263 0.57784 0.0
C36 C 0.4451 0.74615 0.65739 0.0
C37 C 0.56159 0.77573 0.62437 0.0
O38 O 0.49013 0.71987 0.60869 0.0
O39 O 0.49843 0.73177 0.55504 0.0
O40 O 0.48681 0.81006 0.64151 0.0
O41 O 0.4922 0.78899 0.59171 0.0
Co42 Co 0.50583 0.26217 0.87515 0.0
O43 O 0.55178 0.25772 0.88051 0.0
O44 O 0.52409 0.24557 0.83484 0.0
C45 C 0.50196 0.31144 0.89943 0.0
O46 O 0.45956 0.26432 0.85862 0.0
Co47 Co 0.45801 0.26898 0.93393 0.0
O48 O 0.4254 0.27845 0.89903 0.0
C49 C 0.49777 0.21055 0.92448 0.0
C50 C 0.55165 0.24654 0.85027 0.0
C51 C 0.43146 0.27274 0.86861 0.0
O52 O 0.50011 0.21707 0.89339 0.0
O53 O 0.48478 0.22997 0.94529 0.0
O54 O 0.51061 0.30959 0.86842 0.0
O55 O 0.49801 0.28412 0.91434 0.0
Co56 Co 0.12926 0.00687 0.26989 0.0
O57 O 0.12326 0.96069 0.26539 0.0
O58 O 0.16517 0.98883 0.24602 0.0
C59 C 0.11554 0.0108 0.32329 0.0
O60 O 0.14464 0.05386 0.27067 0.0
Co61 Co 0.07252 0.05312 0.28755 0.0
O62 O 0.10764 0.08566 0.29481 0.0
C63 C 0.07361 0.01659 0.22464 0.0
C64 C 0.15032 0.96096 0.24915 0.0
C65 C 0.13592 0.08107 0.28346 0.0
O66 O 0.10426 0.01284 0.22778 0.0
O67 O 0.05619 0.0295 0.24717 0.0
O68 O 0.14471 0.00195 0.31564 0.0
O69 O 0.09572 0.01395 0.29893 0.0
Co70 Co 0.27112 0.87344 0.50029 0.0
O71 O 0.22574 0.86565 0.50707 0.0
O72 O 0.25279 0.90989 0.52327 0.0
C73 C 0.27308 0.85734 0.44744 0.0
O74 O 0.31707 0.89079 0.49661 0.0
Co75 Co 0.31796 0.81685 0.48457 0.0
O76 O 0.34916 0.85258 0.47475 0.0
C77 C 0.28299 0.82042 0.54772 0.0
C78 C 0.22562 0.89374 0.52202 0.0
C79 C 0.34404 0.8818 0.48399 0.0
O80 O 0.28004 0.85119 0.54329 0.0
O81 O 0.29513 0.80163 0.52577 0.0
O82 O 0.26331 0.88661 0.45453 0.0
O83 O 0.27818 0.83836 0.47229 0.0
Co84 Co 0.37183 -0.00195 0.76276 0.0
O85 O 0.37629 0.04443 0.75775 0.0
O86 O 0.33521 0.01454 0.73874 0.0
C87 C 0.38575 -0.00466 0.81621 0.0
O88 O 0.35784 0.95041 0.76444 0.0
Co89 Co 0.43044 0.95437 0.78028 0.0
O90 O 0.39643 0.92127 0.78968 0.0
C91 C 0.42765 -0.00849 0.71807 0.0
C92 C 0.34901 0.043 0.74172 0.0
C93 C 0.3677 0.92428 0.77869 0.0
O94 O 0.39675 -0.00753 0.72066 0.0
O95 O 0.44578 0.97965 0.74072 0.0
O96 O 0.35638 0.00333 0.80819 0.0
O97 O 0.40579 -0.00748 0.7921 0.0
Co98 Co 0.23439 0.12119 0.98645 0.0
O99 O 0.28001 0.12802 0.98881 0.0
O100 O 0.25399 0.08395 0.00703 0.0
C101 C 0.22694 0.13829 0.93446 0.0
O102 O 0.18799 0.10555 0.98708 0.0
Co103 Co 0.18862 0.18011 0.97737 0.0
O104 O 0.15542 0.14554 0.96944 0.0
C105 C 0.23035 0.17355 0.03598 0.0
C106 C 0.281 0.10012 0.00395 0.0
C107 C 0.16038 0.11588 0.97721 0.0
O108 O 0.2307 0.14276 0.03073 0.0
O109 O 0.21711 0.19349 0.0158 0.0
O110 O 0.23674 0.10866 0.93968 0.0
O111 O 0.2255 0.15684 0.96021 0.0
Co112 Co 0.76304 0.37132 0.00095 0.0
O113 O 0.71705 0.36698 0.00607 0.0
O114 O 0.74715 0.40744 0.02641 0.0
C115 C 0.76565 0.35949 0.94709 0.0
O116 O 0.8103 0.38494 -0.00038 0.0
Co117 Co 0.8056 0.31224 0.98148 0.0
O118 O 0.83957 0.34606 0.97487 0.0
C119 C 0.77037 0.31368 0.04442 0.0
C120 C 0.71881 0.39387 0.02312 0.0
C121 C 0.83659 0.37482 0.98638 0.0
O122 O 0.76883 0.34485 0.04212 0.0
O123 O 0.7817 0.29575 0.02132 0.0
O124 O 0.75768 0.38877 0.95622 0.0
O125 O 0.76821 0.33818 0.97033 0.0
Co126 Co 0.86697 0.49191 0.25398 0.0
O127 O 0.86939 0.53869 0.25279 0.0
O128 O 0.82893 0.50872 0.23257 0.0
C129 C 0.88272 0.48517 0.30644 0.0
O130 O 0.85497 0.44371 0.25217 0.0
Co131 Co 0.92795 0.44948 0.26606 0.0
O132 O 0.89532 0.41497 0.27491 0.0
C133 C 0.92193 0.49204 0.20794 0.0
C134 C 0.8417 0.5374 0.23749 0.0
C135 C 0.86615 0.41743 0.2651 0.0
O136 O 0.89102 0.49097 0.2109 0.0
O137 O 0.94102 0.47922 0.22913 0.0
O138 O 0.85282 0.49273 0.30024 0.0
O139 O 0.902 0.48538 0.28155 0.0
Co140 Co 0.74967 0.63031 0.48995 0.0
O141 O 0.79565 0.63433 0.48818 0.0
O142 O 0.76868 0.59208 0.5091 0.0
C143 C 0.73873 0.6469 0.43843 0.0
O144 O 0.70264 0.61736 0.49452 0.0
Co145 Co 0.7069 0.69192 0.48324 0.0
O146 O 0.67233 0.65868 0.47583 0.0
C147 C 0.7488 0.68272 0.54137 0.0
C148 C 0.79626 0.60625 0.50299 0.0
C149 C 0.67561 0.62899 0.48443 0.0
O150 O 0.75059 0.65229 0.53437 0.0
O151 O 0.73501 0.70336 0.52236 0.0
O152 O 0.74748 0.61693 0.44344 0.0
O153 O 0.74074 0.66609 0.46371 0.0
Co154 Co 0.62855 0.50347 0.76302 0.0
O155 O 0.62331 0.45741 0.75675 0.0
O156 O 0.66573 0.48663 0.74037 0.0
C157 C 0.61243 0.50554 0.81591 0.0
O158 O 0.64339 0.55059 0.76607 0.0
Co159 Co 0.57044 0.54832 0.77948 0.0
O160 O 0.60491 0.58077 0.7899 0.0
C161 C 0.57513 0.51455 0.71511 0.0
C162 C 0.6511 0.45851 0.74189 0.0
C163 C 0.63373 0.57709 0.77966 0.0
O164 O 0.60555 0.51055 0.71984 0.0
O165 O 0.55649 0.52649 0.73717 0.0
O166 O 0.642 0.49729 0.80925 0.0
O167 O 0.5936 0.50915 0.79079 0.0
Co168 Co 0.00759 0.75779 0.87817 0.0
O169 O 0.05291 0.75134 0.88353 0.0
O170 O 0.02667 0.74647 0.83581 0.0
C171 C 0.01075 0.80462 0.90707 0.0
O172 O 0.9608 0.76266 0.86301 0.0
Co173 Co 0.96205 0.76605 0.93875 0.0
O174 O 0.9285 0.77544 0.90557 0.0
C175 C 0.98081 0.69991 0.91461 0.0
C176 C 0.05411 0.74735 0.85172 0.0
C177 C 0.93284 0.76915 0.87501 0.0
O178 O -0.00225 0.71134 0.89044 0.0
O179 O 0.96697 0.7177 0.93636 0.0
O180 O 0.01587 0.80459 0.87535 0.0
O181 O 0.00331 0.77695 0.92007 0.0
Co182 Co 0.98866 0.2506 0.62317 0.0
O183 O 0.94419 0.23951 0.61744 0.0
O184 O 0.97123 0.23587 0.66484 0.0
C185 C 0.98264 0.29853 0.59736 0.0
O186 O 0.03423 0.26023 0.63881 0.0
Co187 Co 0.03261 0.26404 0.56221 0.0
O188 O 0.06777 0.26602 0.59541 0.0
C189 C 0.02292 0.19652 0.58784 0.0
C190 C 0.94361 0.23527 0.64927 0.0
C191 C 0.06256 0.26308 0.62634 0.0
O192 O 0.003 0.20596 0.61021 0.0
O193 O 0.03531 0.2155 0.56606 0.0
O194 O 0.9767 0.29574 0.62872 0.0
O195 O 0.99139 0.27235 0.58221 0.0
Co196 Co 0.50766 0.26448 0.37648 0.0
O197 O 0.55339 0.26213 0.38374 0.0
O198 O 0.52825 0.24666 0.33763 0.0
C199 C 0.50665 0.31595 0.39581 0.0
O200 O 0.46146 0.26315 0.35895 0.0
Co201 Co 0.4594 0.27921 0.43269 0.0
O202 O 0.42554 0.27544 0.39836 0.0
C203 C 0.48454 0.2122 0.4234 0.0
C204 C 0.55529 0.25193 0.35339 0.0
C205 C 0.43227 0.26644 0.36901 0.0
O206 O 0.50041 0.22051 0.39724 0.0
O207 O 0.46909 0.23239 0.44146 0.0
O208 O 0.51285 0.31033 0.36481 0.0
O209 O 0.50066 0.29077 0.41389 0.0
Co210 Co 0.48452 0.75453 0.12037 0.0
O211 O 0.43905 0.74902 0.11472 0.0
O212 O 0.46588 0.73569 0.16017 0.0
C213 C 0.48247 0.8062 0.10212 0.0
O214 O 0.5317 0.75677 0.13457 0.0
Co215 Co 0.52676 0.7728 0.05918 0.0
O216 O 0.56262 0.7725 0.09163 0.0
C217 C 0.51147 0.70337 0.07497 0.0
C218 C 0.43817 0.73991 0.14537 0.0
C219 C 0.55941 0.76259 0.12137 0.0
O220 O 0.49385 0.71113 0.09998 0.0
O221 O 0.52425 0.72418 0.05522 0.0
O222 O 0.47753 0.79962 0.13308 0.0
O223 O 0.48795 0.7816 0.08312 0.0
Co224 Co 0.8763 0.01811 0.77151 0.0
O225 O 0.8813 0.06437 0.7751 0.0
O226 O 0.84564 0.03899 0.74268 0.0
C227 C 0.87544 0.00907 0.82599 0.0
O228 O 0.86364 0.9716 0.76225 0.0
Co229 Co 0.9293 0.97212 0.80139 0.0
O230 O 0.89989 0.93741 0.7846 0.0
C231 C 0.93565 -0.00261 0.73295 0.0
C232 C 0.85623 0.06611 0.75578 0.0
C233 C 0.87457 0.94297 0.76749 0.0
O234 O 0.90957 0.01423 0.73542 0.0
O235 O 0.94824 0.9816 0.757 0.0
O236 O 0.84938 0.01844 0.81113 0.0
O237 O 0.90144 0.00859 0.8086 0.0
Co238 Co 0.78802 0.11678 0.49855 0.0
O239 O 0.83332 0.12598 0.50109 0.0
O240 O 0.80831 0.08609 0.52813 0.0
C241 C 0.78689 0.11875 0.44316 0.0
O242 O 0.74171 0.10043 0.50184 0.0
Co243 Co 0.74317 0.16849 0.46516 0.0
O244 O 0.70879 0.13745 0.47857 0.0
C245 C 0.76327 0.1759 0.5353 0.0
C246 C 0.83526 0.10044 0.51972 0.0
C247 C 0.71348 0.11139 0.49502 0.0
O248 O 0.77833 0.14853 0.53511 0.0
O249 O 0.75097 0.18908 0.50948 0.0
O250 O 0.79479 0.09187 0.45773 0.0
O251 O 0.78186 0.14348 0.46196 0.0
Co252 Co 0.61569 0.97345 0.26796 0.0
O253 O 0.60401 0.92822 0.26702 0.0
O254 O 0.64174 0.95177 0.23583 0.0
C255 C 0.61965 0.97701 0.32287 0.0
O256 O 0.6348 0.01838 0.26244 0.0
Co257 Co 0.57056 0.02339 0.30289 0.0
O258 O 0.60323 0.05545 0.28719 0.0
C259 C 0.5564 0.00209 0.2347 0.0
C260 C 0.62752 0.92525 0.24609 0.0
C261 C 0.62754 0.04782 0.26961 0.0
O262 O 0.58211 0.98472 0.23407 0.0
O263 O 0.54597 0.01663 0.26055 0.0
O264 O 0.64364 0.96566 0.30608 0.0
O265 O 0.5934 0.98283 0.30671 0.0
Co266 Co 0.72501 0.88722 -0.00589 0.0
O267 O 0.67959 0.88072 -0.00012 0.0
O268 O 0.70751 0.923 0.01934 0.0
C269 C 0.7219 0.87589 0.93971 0.0
O270 O 0.77148 0.90284 -0.007 0.0
Co271 Co 0.76917 0.83276 0.96685 0.0
O272 O 0.80377 0.86621 0.96906 0.0
C273 C 0.75326 0.8355 0.03876 0.0
C274 C 0.67955 0.90912 0.01401 0.0
C275 C 0.79942 0.89331 0.98375 0.0
O276 O 0.73588 0.8612 0.03495 0.0
O277 O 0.76629 0.82014 0.01469 0.0
O278 O 0.71659 0.90525 0.95011 0.0
O279 O 0.72847 0.85447 0.96198 0.0
Co280 Co 0.2825 0.62015 -9e-05 0.0
O281 O 0.3276 0.63032 0.00332 0.0
O282 O 0.30308 0.58968 0.0296 0.0
C283 C 0.28233 0.62246 0.94453 0.0
O284 O 0.23639 0.6028 0.00221 0.0
Co285 Co 0.23716 0.67108 0.96582 0.0
O286 O 0.20326 0.63895 0.97786 0.0
C287 C 0.2562 0.67885 0.03617 0.0
C288 C 0.32988 0.60461 0.02166 0.0
C289 C 0.20808 0.61301 -0.00553 0.0
O290 O 0.27143 0.65157 0.03639 0.0
O291 O 0.24437 0.69194 0.01008 0.0
O292 O 0.29059 0.59567 0.95906 0.0
O293 O 0.2764 0.6469 0.96339 0.0
Co294 Co 0.12371 0.47979 0.76223 0.0
O295 O 0.12042 0.43355 0.7647 0.0
O296 O 0.15732 0.46094 0.73585 0.0
C297 C 0.11952 0.48571 0.81695 0.0
O298 O 0.13518 0.52699 0.7548 0.0
Co299 Co 0.06822 0.52338 0.78698 0.0
O300 O 0.09736 0.5601 0.77533 0.0
C301 C 0.06469 0.49373 0.72043 0.0
C302 C 0.14675 0.43324 0.74747 0.0
C303 C 0.12387 0.55543 0.76023 0.0
O304 O 0.09307 0.48164 0.72378 0.0
O305 O 0.04963 0.50831 0.74368 0.0
O306 O 0.14742 0.48016 0.80386 0.0
O307 O 0.09501 0.48643 0.79708 0.0
Co308 Co 0.23761 0.37529 0.48014 0.0
O309 O 0.1919 0.36862 0.47614 0.0
O310 O 0.21529 0.4065 0.50749 0.0
C311 C 0.24485 0.37395 0.42506 0.0
O312 O 0.28346 0.39038 0.48987 0.0
Co313 Co 0.28578 0.32441 0.45381 0.0
O314 O 0.31938 0.3559 0.46798 0.0
C315 C 0.25784 0.31639 0.52057 0.0
C316 C 0.18891 0.39418 0.49475 0.0
C317 C 0.31256 0.38128 0.48462 0.0
O318 O 0.24107 0.34253 0.51711 0.0
O319 O 0.27581 0.30462 0.49789 0.0
O320 O 0.23681 0.40083 0.43956 0.0
O321 O 0.24719 0.34858 0.44377 0.0
Co322 Co 0.36473 0.5176 0.26071 0.0
O323 O 0.37025 0.56302 0.25249 0.0
O324 O 0.32931 0.53292 0.23377 0.0
C325 C 0.37411 0.52387 0.31483 0.0
O326 O 0.35072 0.47065 0.26434 0.0
Co327 Co 0.41898 0.47607 0.29319 0.0
O328 O 0.38679 0.44029 0.29179 0.0
C329 C 0.41752 0.48726 0.22005 0.0
C330 C 0.342 0.56174 0.23854 0.0
C331 C 0.36047 0.4433 0.27569 0.0
O332 O 0.39197 0.505 0.22164 0.0
O333 O 0.43204 0.47575 0.2455 0.0
O334 O 0.3452 0.52801 0.30333 0.0
O335 O 0.39624 0.51666 0.29384 0.0
O336 O 0.9695 0.06625 0.01 0.0
Zn337 Zn 0.98056 0.0251 0.98799 0.0
O338 O 0.98091 -0.0084 0.02001 0.0
Zn339 Zn 0.02337 0.97614 0.02845 0.0
Zn340 Zn 0.95617 0.00407 0.05863 0.0
Zn341 Zn 0.95661 0.95567 0.00517 0.0
O342 O 0.03226 0.93275 0.00592 0.0
O343 O 0.98354 0.9232 0.98453 0.0
O344 O 0.02521 0.03392 0.97049 0.0
O345 O 0.05409 0.00833 0.00903 0.0
O346 O 0.02949 0.97533 0.07762 0.0
O347 O 0.98213 0.9909 0.09846 0.0
O348 O 0.91127 0.98263 0.05457 0.0
O349 O 0.94636 0.016 0.95442 0.0
O350 O 0.93601 0.93726 0.04476 0.0
O351 O 0.92424 0.96919 0.97139 0.0
C352 C 0.95964 0.07433 0.03856 0.0
C353 C 0.01305 0.9162 0.98762 0.0
C354 C 0.01131 0.98167 0.10224 0.0
C355 C 0.05206 0.02819 0.98488 0.0
C356 C 0.90977 0.9521 0.0489 0.0
C357 C 0.92462 -0.00612 0.9524 0.0
O358 O 0.95308 0.05303 0.06054 0.0
O359 O 0.20693 0.71755 0.18273 0.0
Zn360 Zn 0.21214 0.71905 0.23213 0.0
O361 O 0.23779 0.7573 0.2437 0.0
Zn362 Zn 0.27538 0.74588 0.26953 0.0
Zn363 Zn 0.2499 0.78415 0.20629 0.0
Zn364 Zn 0.21201 0.78389 0.27002 0.0
O365 O 0.27948 0.77255 0.31168 0.0
O366 O 0.23766 0.80535 0.30515 0.0
O367 O 0.23956 0.67981 0.2407 0.0
O368 O 0.27677 0.6978 0.27644 0.0
O369 O 0.31491 0.75283 0.24233 0.0
O370 O 0.29812 0.78253 0.19976 0.0
O371 O 0.23116 0.83024 0.20847 0.0
O372 O 0.16934 0.7163 0.25809 0.0
O373 O 0.19188 0.81848 0.24378 0.0
O374 O 0.17738 0.75887 0.29136 0.0
C375 C 0.21852 0.7353 0.15966 0.0
C376 C 0.26316 0.79727 0.32049 0.0
C377 C 0.32035 0.76729 0.21508 0.0
C378 C 0.26416 0.67501 0.259 0.0
C379 C 0.20468 0.83744 0.22268 0.0
C380 C 0.16131 0.73367 0.28302 0.0
O381 O 0.23395 0.76163 0.16569 0.0
O382 O 0.53271 0.93593 0.52576 0.0
Zn383 Zn 0.52371 0.97185 0.49497 0.0
O384 O 0.52389 0.01142 0.5196 0.0
Zn385 Zn 0.48143 0.02909 0.52389 0.0
Zn386 Zn 0.54723 0.00631 0.56093 0.0
Zn387 Zn 0.54933 0.04225 0.49737 0.0
O388 O 0.47685 0.07187 0.49858 0.0
O389 O 0.52328 0.07224 0.47141 0.0
O390 O 0.47926 0.96116 0.47786 0.0
O391 O 0.44929 -0.00357 0.50576 0.0
O392 O 0.47271 0.03363 0.5725 0.0
O393 O 0.52032 0.02556 0.59712 0.0
O394 O 0.59278 0.02636 0.55695 0.0
O395 O 0.55733 0.97238 0.4597 0.0
O396 O 0.57385 0.06852 0.52987 0.0
O397 O 0.57975 0.02135 0.46641 0.0
C398 C 0.54137 0.93371 0.55591 0.0
C399 C 0.49546 0.08373 0.4764 0.0
C400 C 0.49024 0.032 0.59853 0.0
C401 C 0.45179 0.97145 0.48712 0.0
C402 C 0.59682 0.0549 0.54513 0.0
C403 C 0.57887 -0.00645 0.45251 0.0
O404 O 0.54856 0.95882 0.57308 0.0
O405 O 0.23191 0.22715 0.81095 0.0
Zn406 Zn 0.25107 0.25855 0.77894 0.0
O407 O 0.25283 0.23764 0.73716 0.0
Zn408 Zn 0.29345 0.23694 0.71511 0.0
Zn409 Zn 0.22787 0.19838 0.734 0.0
Zn410 Zn 0.22835 0.26704 0.71445 0.0
O411 O 0.28906 0.25754 0.66804 0.0
O412 O 0.23584 0.26312 0.66766 0.0
O413 O 0.29651 0.26804 0.79168 0.0
O414 O 0.32683 0.25722 0.74733 0.0
O415 O 0.30391 0.18934 0.71052 0.0
O416 O 0.25666 0.16329 0.71608 0.0
O417 O 0.18695 0.20683 0.70682 0.0
O418 O 0.22545 0.30058 0.77776 0.0
O419 O 0.18226 0.25825 0.72239 0.0
O420 O 0.23884 0.31215 0.72655 0.0
C421 C 0.2197 0.19863 0.80833 0.0
C422 C 0.2626 0.26364 0.65268 0.0
C423 C 0.28702 0.1631 0.71063 0.0
C424 C 0.32391 0.26699 0.77743 0.0
C425 C 0.17018 0.23267 0.70954 0.0
C426 C 0.22738 0.32095 0.75405 0.0
O427 O 0.21656 0.18427 0.78041 0.0
O428 O 0.03459 0.01278 0.45521 0.0
Zn429 Zn 0.00678 -0.00732 0.49045 0.0
O430 O 0.03111 0.99122 0.53059 0.0
Zn431 Zn 0.03207 0.94897 0.55132 0.0
Zn432 Zn 0.07246 0.01191 0.52761 0.0
Zn433 Zn 0.00791 0.01891 0.55846 0.0
O434 O 0.00874 0.95178 0.5965 0.0
O435 O 0.97729 -0.00667 0.58402 0.0
O436 O -0.00187 0.94717 0.47581 0.0
O437 O 0.01187 0.9161 0.5188 0.0
O438 O 0.07925 0.93653 0.55686 0.0
O439 O 0.10612 0.98246 0.54541 0.0
O440 O 0.07188 0.05534 0.55074 0.0
O441 O 0.96418 0.01613 0.49691 0.0
O442 O 0.03663 0.04284 0.58942 0.0
O443 O 0.98129 0.05129 0.53474 0.0
C444 C 0.0647 0.01965 0.45414 0.0
C445 C 0.98497 0.97033 0.60322 0.0
C446 C 0.10568 0.95267 0.5542 0.0
C447 C 0.00092 0.91931 0.48925 0.0
C448 C 0.05691 0.06271 0.57718 0.0
C449 C 0.95986 0.04161 0.51437 0.0
O450 O 0.08254 0.0189 0.47989 0.0
O451 O 0.32737 0.72485 0.7483 0.0
Zn452 Zn 0.29124 0.73725 0.7772 0.0
O453 O 0.25295 0.73411 0.75144 0.0
Zn454 Zn 0.23136 0.77455 0.74331 0.0
Zn455 Zn 0.25778 0.70664 0.71344 0.0
Zn456 Zn 0.22369 0.71239 0.77779 0.0
O457 O 0.18524 0.77308 0.7631 0.0
O458 O 0.20009 0.74296 0.80559 0.0
O459 O 0.29891 0.78398 0.78951 0.0
O460 O 0.25939 0.81034 0.76341 0.0
O461 O 0.23182 0.78179 0.69389 0.0
O462 O 0.24772 0.73383 0.67412 0.0
O463 O 0.22759 0.66709 0.71562 0.0
O464 O 0.29137 0.70558 0.81528 0.0
O465 O 0.19233 0.68937 0.74971 0.0
O466 O 0.24469 0.68016 0.80641 0.0
C467 C 0.32973 0.70776 0.72213 0.0
C468 C 0.17935 0.76079 0.79157 0.0
C469 C 0.23932 0.76328 0.66969 0.0
C470 C 0.28532 0.81042 0.78076 0.0
C471 C 0.19982 0.66726 0.72924 0.0
C472 C 0.27168 0.68227 0.82127 0.0
O473 O 0.30491 0.69614 0.70722 0.0
O474 O 0.52124 0.04282 0.08513 0.0
Zn475 Zn 0.52095 0.03705 0.03593 0.0
O476 O 0.48164 0.01443 0.02381 0.0
Zn477 Zn 0.49013 0.97725 -0.00342 0.0
Zn478 Zn 0.45367 0.00431 0.06066 0.0
Zn479 Zn 0.45727 0.04265 -0.0021 0.0
O480 O 0.4662 0.97836 0.95281 0.0
O481 O 0.43281 0.01896 0.96328 0.0
O482 O 0.55853 0.00777 0.02684 0.0
O483 O 0.53779 0.96995 -0.00686 0.0
O484 O 0.4753 0.93819 0.02067 0.0
O485 O 0.45029 0.95589 0.06576 0.0
O486 O 0.40945 0.02476 0.05524 0.0
O487 O 0.52674 0.07946 0.01008 0.0
O488 O 0.4257 0.06651 0.02479 0.0
O489 O 0.48526 0.07414 0.97532 0.0
C490 C 0.50238 0.03352 0.10826 0.0
C491 C 0.44131 -0.00499 0.94554 0.0
C492 C 0.46076 0.93279 0.04779 0.0
C493 C 0.56162 0.98233 0.00906 0.0
C494 C 0.40428 0.05253 0.04227 0.0
C495 C 0.51129 0.08823 0.98418 0.0
O496 O 0.47541 0.0195 0.10224 0.0
O497 O 0.18101 0.27432 0.22534 0.0
Zn498 Zn 0.21622 0.26434 0.25745 0.0
O499 O 0.25515 0.26268 0.23374 0.0
Zn500 Zn 0.27689 0.22178 0.23164 0.0
Zn501 Zn 0.25347 0.28728 0.19366 0.0
Zn502 Zn 0.28421 0.28771 0.25701 0.0
O503 O 0.32059 0.22306 0.25772 0.0
O504 O 0.30525 0.26252 0.29124 0.0
O505 O 0.20738 0.2197 0.27482 0.0
O506 O 0.24618 0.1892 0.25269 0.0
O507 O 0.28071 0.21132 0.1826 0.0
O508 O 0.27124 0.25916 0.15821 0.0
O509 O 0.27811 0.33005 0.20017 0.0
O510 O 0.21844 0.29894 0.29303 0.0
O511 O 0.31621 0.30294 0.22487 0.0
O512 O 0.26366 0.32481 0.2794 0.0
C513 C 0.18082 0.28592 0.19608 0.0
C514 C 0.32421 0.23956 0.28445 0.0
C515 C 0.27814 0.22897 0.1566 0.0
C516 C 0.22018 0.19205 0.26943 0.0
C517 C 0.30624 0.3295 0.21307 0.0
C518 C 0.23802 0.32296 0.29643 0.0
O519 O 0.20691 0.29375 0.18129 0.0
O520 O 0.53011 0.52077 0.94917 0.0
Zn521 Zn 0.50252 0.50059 0.98498 0.0
O522 O 0.52702 0.49753 0.02528 0.0
Zn523 Zn 0.52764 0.45418 0.04366 0.0
Zn524 Zn 0.5692 0.51631 0.01984 0.0
Zn525 Zn 0.50793 0.52626 0.05583 0.0
O526 O 0.49872 0.45045 0.08485 0.0
O527 O 0.48258 0.50183 0.08723 0.0
O528 O 0.49386 0.45558 0.96751 0.0
O529 O 0.51172 0.42345 0.00797 0.0
O530 O 0.57428 0.44264 0.05297 0.0
O531 O 0.60226 0.48788 0.04118 0.0
O532 O 0.56875 0.56279 0.03632 0.0
O533 O 0.46044 0.52444 -0.00625 0.0
O534 O 0.54092 0.55117 0.08077 0.0
O535 O 0.4764 0.55638 0.03532 0.0
C536 C 0.56085 0.52156 0.94667 0.0
C537 C 0.48102 0.47268 0.09717 0.0
C538 C 0.601 0.4584 0.05114 0.0
C539 C 0.4995 0.4274 0.97915 0.0
C540 C 0.55629 0.57178 0.06357 0.0
C541 C 0.45545 0.54799 0.01377 0.0
O542 O 0.57908 0.51754 0.97176 0.0
O543 O 0.82795 0.21761 0.24392 0.0
Zn544 Zn 0.79163 0.22963 0.27298 0.0
O545 O 0.75287 0.22531 0.24806 0.0
Zn546 Zn 0.73052 0.26524 0.24017 0.0
Zn547 Zn 0.7581 0.19775 0.20979 0.0
Zn548 Zn 0.72433 0.20257 0.27463 0.0
O549 O 0.68591 0.26533 0.26253 0.0
O550 O 0.69839 0.23118 0.3028 0.0
O551 O 0.79904 0.27674 0.284 0.0
O552 O 0.75926 0.30173 0.25698 0.0
O553 O 0.72739 0.27103 0.19099 0.0
O554 O 0.74425 0.22372 0.17049 0.0
O555 O 0.731 0.1559 0.21407 0.0
O556 O 0.79253 0.19877 0.31165 0.0
O557 O 0.69426 0.1787 0.24597 0.0
O558 O 0.74684 0.1713 0.30327 0.0
C559 C 0.83046 0.20178 0.21696 0.0
C560 C 0.67947 0.25193 0.29031 0.0
C561 C 0.73403 0.25265 0.16647 0.0
C562 C 0.7854 0.30268 0.27391 0.0
C563 C 0.703 0.15568 0.22719 0.0
C564 C 0.77374 0.17482 0.31809 0.0
O565 O 0.8057 0.19044 0.20171 0.0
O566 O 0.03257 0.52175 0.5668 0.0
Zn567 Zn 0.03017 0.52039 0.51742 0.0
O568 O 0.9907 0.49854 0.50535 0.0
Zn569 Zn -0.00235 0.46039 0.4789 0.0
Zn570 Zn 0.96178 0.49084 0.54184 0.0
Zn571 Zn 0.96892 0.5278 0.47851 0.0
O572 O 0.97137 0.4606 0.43628 0.0
O573 O 0.94201 0.50441 0.44624 0.0
O574 O 0.06748 0.49236 0.50418 0.0
O575 O 0.04532 0.45241 0.47407 0.0
O576 O 0.98209 0.42271 0.50482 0.0
O577 O 0.95275 0.44316 0.54574 0.0
O578 O 0.92066 0.51695 0.53815 0.0
O579 O 0.0327 0.56571 0.4965 0.0
O580 O 0.93905 0.55512 0.50422 0.0
O581 O -0.00078 0.55634 0.45451 0.0
C582 C 0.01342 0.51289 0.58979 0.0
C583 C 0.94728 0.4787 0.4298 0.0
C584 C 0.96433 0.41897 0.53015 0.0
C585 C 0.06994 0.46609 0.4875 0.0
C586 C 0.91764 0.54448 0.52399 0.0
C587 C 0.02056 0.57395 0.46862 0.0
O588 O 0.98517 0.50186 0.58371 0.0
O589 O 0.7212 0.73013 0.31193 0.0
Zn590 Zn 0.74131 0.75874 0.27773 0.0
O591 O 0.74349 0.73407 0.2381 0.0
Zn592 Zn 0.78577 0.73192 0.21945 0.0
Zn593 Zn 0.71837 0.69436 0.23813 0.0
Zn594 Zn 0.71999 0.75869 0.20836 0.0
O595 O 0.78746 0.75819 0.17587 0.0
O596 O 0.74744 0.7915 0.1873 0.0
O597 O 0.78637 0.76801 0.29386 0.0
O598 O 0.81806 0.74847 0.25418 0.0
O599 O 0.79418 0.68421 0.21218 0.0
O600 O 0.74718 0.65851 0.2211 0.0
O601 O 0.67624 0.70115 0.21146 0.0
O602 O 0.71585 0.80009 0.27068 0.0
O603 O 0.70147 0.73019 0.17397 0.0
O604 O 0.68445 0.7821 0.22994 0.0
C605 C 0.71115 0.70065 0.3122 0.0
C606 C 0.77116 0.78373 0.16939 0.0
C607 C 0.77715 0.6581 0.2136 0.0
C608 C 0.81438 0.7618 0.28261 0.0
C609 C 0.67606 0.71571 0.18352 0.0
C610 C 0.69104 0.803 0.25214 0.0
O611 O 0.70909 0.68362 0.28578 0.0
O612 O 0.71836 0.21461 0.68352 0.0
Zn613 Zn 0.72229 0.21881 0.73291 0.0
O614 O 0.74492 0.25914 0.74302 0.0
Zn615 Zn 0.78217 0.25127 0.77052 0.0
Zn616 Zn 0.75625 0.28466 0.70455 0.0
Zn617 Zn 0.71708 0.28591 0.76676 0.0
O618 O 0.78351 0.28049 0.81068 0.0
O619 O 0.74022 0.31069 0.80171 0.0
O620 O 0.75168 0.18201 0.74501 0.0
O621 O 0.78631 0.20391 0.78114 0.0
O622 O 0.8216 0.25849 0.74382 0.0
O623 O 0.80431 0.28387 0.6986 0.0
O624 O 0.73669 0.33034 0.70494 0.0
O625 O 0.67923 0.21478 0.75806 0.0
O626 O 0.69572 0.31758 0.73772 0.0
O627 O 0.68359 0.2599 0.78844 0.0
C628 C 0.72802 0.23258 0.6597 0.0
C629 C 0.76568 0.30455 0.81809 0.0
C630 C 0.8268 0.27081 0.71548 0.0
C631 C 0.77554 0.17945 0.76484 0.0
C632 C 0.7091 0.33673 0.71718 0.0
C633 C 0.66958 0.2331 0.78161 0.0
O634 O 0.74109 0.26037 0.66466 0.0
O635 O 0.67518 0.7752 0.73219 0.0
Zn636 Zn 0.70803 0.7634 0.766 0.0
O637 O 0.74889 0.76575 0.74552 0.0
Zn638 Zn 0.77287 0.72568 0.74349 0.0
Zn639 Zn 0.74876 0.79085 0.70579 0.0
Zn640 Zn 0.77335 0.79062 0.7742 0.0
O641 O 0.81534 0.73063 0.7707 0.0
O642 O 0.79325 0.76291 0.80769 0.0
O643 O 0.70017 0.71733 0.77879 0.0
O644 O 0.74343 0.69004 0.76177 0.0
O645 O 0.78104 0.71598 0.69487 0.0
O646 O 0.76692 0.76267 0.6709 0.0
O647 O 0.77638 0.83177 0.71014 0.0
O648 O 0.70454 0.79385 0.80518 0.0
O649 O 0.80795 0.81163 0.74923 0.0
O650 O 0.74827 0.82425 0.79754 0.0
C651 C 0.67626 0.78947 0.7042 0.0
C652 C 0.81655 0.7453 0.79869 0.0
C653 C 0.77763 0.73376 0.66912 0.0
C654 C 0.71541 0.69077 0.77497 0.0
C655 C 0.80262 0.83246 0.72678 0.0
C656 C 0.72166 0.81896 0.8121 0.0
O657 O 0.7029 0.79898 0.69154 0.0
O658 O 0.47431 0.58139 0.50792 0.0
Zn659 Zn 0.49086 0.54561 0.4811 0.0
O660 O 0.48877 0.50785 0.50761 0.0
Zn661 Zn 0.52962 0.48754 0.51417 0.0
Zn662 Zn 0.46202 0.51229 0.54609 0.0
Zn663 Zn 0.46579 0.47862 0.48195 0.0
O664 O 0.53217 0.44488 0.48788 0.0
O665 O 0.49415 0.45597 0.45094 0.0
O666 O 0.53678 0.55706 0.47129 0.0
O667 O 0.56393 0.51902 0.49877 0.0
O668 O 0.53589 0.48184 0.56327 0.0
O669 O 0.48927 0.49878 0.58453 0.0
O670 O 0.42138 0.48354 0.54168 0.0
O671 O 0.46194 0.54303 0.44138 0.0
O672 O 0.44518 0.4464 0.51093 0.0
O673 O 0.43197 0.50054 0.45602 0.0
C674 C 0.45944 0.58453 0.53517 0.0
C675 C 0.51788 0.43902 0.46033 0.0
C676 C 0.51789 0.48803 0.58807 0.0
C677 C 0.56325 0.54521 0.48179 0.0
C678 C 0.42169 0.4551 0.52879 0.0
C679 C 0.43662 0.52544 0.43802 0.0
O680 O 0.45203 0.56005 0.55316 0.0
O681 O 0.03217 0.43009 0.0232 0.0
Zn682 Zn 0.01948 0.46399 -0.00851 0.0
O683 O 0.01957 0.50465 0.01417 0.0
Zn684 Zn 0.97703 0.52242 0.01623 0.0
Zn685 Zn 0.04247 0.50237 0.05597 0.0
Zn686 Zn 0.04514 0.53404 0.99031 0.0
O687 O 0.97196 0.56132 0.9858 0.0
O688 O 0.0194 0.5612 0.96068 0.0
O689 O 0.97456 0.45044 0.97783 0.0
O690 O 0.94493 0.48811 0.00256 0.0
O691 O 0.96785 0.53288 0.06354 0.0
O692 O 0.01412 0.52309 0.09011 0.0
O693 O 0.08745 0.5241 0.05213 0.0
O694 O 0.05059 0.46442 0.95398 0.0
O695 O 0.06863 0.5634 0.0207 0.0
O696 O 0.07663 0.51126 0.96228 0.0
C697 C 0.04044 0.42932 0.05355 0.0
C698 C 0.99091 0.57182 0.96328 0.0
C699 C 0.98462 0.53193 0.0901 0.0
C700 C 0.94722 0.46137 0.9867 0.0
C701 C 0.09111 0.55186 0.03838 0.0
C702 C 0.07358 0.48416 0.94731 0.0
O703 O 0.04533 0.45532 0.0702 0.0
C704 C 0.97748 0.16382 0.03116 0.0
C705 C 0.98009 0.17302 0.06459 0.0
H706 H 0.96774 0.12556 -0.00332 0.0
C707 C 0.97108 0.1506 0.08933 0.0
H708 H 0.98351 0.18071 0.01147 0.0
C709 C 0.96185 0.11886 0.08083 0.0
C710 C 0.96146 0.1091 0.04746 0.0
H711 H 0.97222 0.15715 0.11534 0.0
H712 H 0.9568 0.10159 0.10046 0.0
C713 C 0.96815 0.13224 0.02269 0.0
C714 C 0.07286 0.72631 0.30252 0.0
C715 C 0.07309 0.73538 0.33624 0.0
H716 H 0.10126 0.71759 0.25894 0.0
C717 C 0.10273 0.73787 0.35306 0.0
H718 H 0.0503 0.72383 0.28901 0.0
C719 C 0.13159 0.73406 0.33597 0.0
C720 C 0.13149 0.72744 0.30177 0.0
H721 H 0.10374 0.74434 0.3791 0.0
H722 H 0.15415 0.73822 0.34913 0.0
C723 C 0.10193 0.72226 0.28538 0.0
C724 C 0.51918 0.84591 0.56494 0.0
C725 C 0.50887 0.84465 0.59802 0.0
H726 H 0.53931 0.87471 0.52621 0.0
C727 C 0.5141 0.87177 0.61872 0.0
H728 H 0.51588 0.82533 0.54839 0.0
C729 C 0.52768 0.9004 0.60582 0.0
C730 C 0.53618 0.90207 0.57213 0.0
H731 H 0.50683 0.8712 0.64448 0.0
H732 H 0.52961 0.9217 0.62164 0.0
C733 C 0.53293 0.87417 0.55224 0.0
C734 C 0.40944 0.26398 0.81098 0.0
C735 C 0.40498 0.27476 0.84384 0.0
H736 H 0.3874 0.25338 0.76388 0.0
C737 C 0.37464 0.28661 0.85304 0.0
H738 H 0.43261 0.25497 0.80292 0.0
C739 C 0.34895 0.28604 0.83057 0.0
C740 C 0.35281 0.27343 0.79834 0.0
H741 H 0.37043 0.29559 0.87791 0.0
H742 H 0.32564 0.29438 0.83901 0.0
C743 C 0.38359 0.26328 0.78846 0.0
C744 C 0.99292 0.86508 0.41344 0.0
C745 C 0.99114 0.83409 0.42783 0.0
H746 H -0.00321 0.91644 0.42166 0.0
C747 C 0.98981 0.83146 0.46263 0.0
H748 H 0.99387 0.86783 0.38675 0.0
C749 C 0.9919 0.85917 0.4827 0.0
C750 C 0.99479 0.89015 0.4684 0.0
H751 H 0.98833 0.80784 0.47451 0.0
H752 H 0.99195 0.85625 0.50939 0.0
C753 C 0.99447 0.89288 0.43353 0.0
C754 C 0.41742 0.72513 0.70787 0.0
C755 C 0.41711 0.73108 0.67366 0.0
H756 H 0.38943 0.71208 0.75037 0.0
C757 C 0.38951 0.72296 0.65493 0.0
H758 H 0.43865 0.7307 0.72271 0.0
C759 C 0.36173 0.71141 0.67054 0.0
C760 C 0.36102 0.70847 0.70518 0.0
H761 H 0.389 0.72658 0.62832 0.0
H762 H 0.34012 0.70746 0.65576 0.0
C763 C 0.38944 0.71415 0.72359 0.0
C764 C 0.51983 0.17726 0.97058 0.0
C765 C 0.50959 0.17938 0.93733 0.0
H766 H 0.52998 0.14581 0.01154 0.0
C767 C 0.50796 0.15109 0.9179 0.0
H768 H 0.52201 0.19893 0.98586 0.0
C769 C 0.51251 0.12076 0.93266 0.0
C770 C 0.51931 0.11852 0.96679 0.0
H771 H 0.50052 0.15217 0.89213 0.0
H772 H 0.50804 0.09896 0.91806 0.0
C773 C 0.52496 0.14697 0.98518 0.0
C774 C 0.09342 0.27012 0.17416 0.0
C775 C 0.09339 0.27543 0.13976 0.0
H776 H 0.12084 0.27005 0.21908 0.0
C777 C 0.12171 0.28713 0.12457 0.0
H778 H 0.07192 0.26158 0.18677 0.0
C779 C 0.14978 0.29224 0.14319 0.0
C780 C 0.15011 0.28575 0.17738 0.0
H781 H 0.12241 0.29187 0.09817 0.0
H782 H 0.17147 0.30025 0.13054 0.0
C783 C 0.12145 0.27526 0.19277 0.0
C784 C 0.07514 0.99042 0.16856 0.0
C785 C 0.0574 0.00481 0.19421 0.0
H786 H 0.07427 0.97083 0.11948 0.0
C787 C 0.0237 0.00718 0.19094 0.0
H788 H 0.10105 0.9876 0.1706 0.0
C789 C 0.00828 -0.00284 0.16188 0.0
C790 C 0.02625 0.98471 0.13537 0.0
H791 H 0.00917 0.01749 0.21053 0.0
H792 H 0.98247 0.00067 0.15969 0.0
C793 C 0.0597 0.98044 0.1394 0.0
C794 C 0.26076 0.86138 0.38718 0.0
C795 C 0.276 0.84519 0.41337 0.0
H796 H 0.24498 0.85873 0.33675 0.0
C797 C 0.29128 0.81533 0.40737 0.0
H798 H 0.249 0.88451 0.39113 0.0
C799 C 0.28925 0.80064 0.37622 0.0
C800 C 0.27155 0.81547 0.35081 0.0
H801 H 0.30357 0.80255 0.42714 0.0
H802 H 0.29972 0.7768 0.37274 0.0
C803 C 0.25841 0.84654 0.35614 0.0
C804 C 0.42486 0.01612 0.66123 0.0
C805 C 0.44326 0.0056 0.68845 0.0
H806 H 0.42534 0.0339 0.61146 0.0
C807 C 0.47702 0.00935 0.68757 0.0
H808 H 0.39875 0.01427 0.66143 0.0
C809 C 0.49223 0.02117 0.65926 0.0
C810 C 0.47406 0.02921 0.631 0.0
H811 H 0.49193 0.00237 0.70847 0.0
H812 H 0.51838 0.02212 0.65893 0.0
C813 C 0.44013 0.02781 0.63274 0.0
C814 C 0.20805 0.18328 0.89869 0.0
C815 C 0.21881 0.15104 0.90147 0.0
H816 H 0.1993 0.22351 0.86651 0.0
C817 C 0.2241 0.13271 0.87261 0.0
H818 H 0.2032 0.19787 0.92048 0.0
C819 C 0.22134 0.14743 0.84147 0.0
C820 C 0.21357 0.18062 0.83909 0.0
H821 H 0.23209 0.10771 0.87413 0.0
H822 H 0.22774 0.13361 0.81959 0.0
C823 C 0.20561 0.19797 0.86779 0.0
C824 C 0.07304 0.02838 0.36219 0.0
C825 C 0.10487 0.01787 0.35723 0.0
H826 H 0.03556 0.0378 0.39692 0.0
C827 C 0.12491 0.01256 0.38475 0.0
H828 H 0.05706 0.03314 0.34148 0.0
C829 C 0.1125 0.0156 0.41679 0.0
C830 C 0.07987 0.02371 0.42152 0.0
H831 H 0.1496 0.00473 0.38154 0.0
H832 H 0.12786 0.00962 0.43768 0.0
C833 C 0.06065 0.03119 0.39399 0.0
C834 C 0.26901 0.77188 0.58212 0.0
C835 C 0.27005 0.80588 0.5784 0.0
H836 H 0.25722 0.73167 0.6133 0.0
C837 C 0.25705 0.82562 0.60346 0.0
H838 H 0.27815 0.7559 0.56301 0.0
C839 C 0.24474 0.81166 0.63238 0.0
C840 C 0.24514 0.77769 0.63672 0.0
H841 H 0.25692 0.85191 0.60108 0.0
H842 H 0.23624 0.82759 0.65185 0.0
C843 C 0.25658 0.75795 0.61086 0.0
C844 C 0.42546 0.97348 0.85643 0.0
C845 C 0.39646 0.99003 0.85047 0.0
H846 H 0.46217 0.96145 0.89158 0.0
C847 C 0.37992 0.00402 0.87704 0.0
H848 H 0.43851 0.9621 0.83639 0.0
C849 C 0.39367 0.00387 0.90869 0.0
C850 C 0.42392 0.98937 0.91415 0.0
H851 H 0.35745 0.01674 0.87304 0.0
H852 H 0.38133 0.0164 0.92853 0.0
C853 C 0.43897 0.97294 0.88808 0.0
C854 C 0.25573 0.21968 0.06707 0.0
C855 C 0.24687 0.18661 0.0657 0.0
H856 H 0.2746 0.25872 0.09642 0.0
C857 C 0.25457 0.1663 0.09258 0.0
H858 H 0.25117 0.23574 0.04632 0.0
C859 C 0.26816 0.17951 0.1215 0.0
C860 C 0.27444 0.21318 0.12383 0.0
H861 H 0.24871 0.14052 0.09189 0.0
H862 H 0.27156 0.16372 0.14269 0.0
C863 C 0.26965 0.23275 0.09568 0.0
C864 C 0.13726 0.0604 0.9874 0.0
C865 C 0.13325 0.0923 0.97552 0.0
H866 H 0.11473 0.01483 -0.00102 0.0
C867 C 0.10306 0.10139 0.96264 0.0
H868 H 0.16028 0.05239 -0.00292 0.0
C869 C 0.07696 0.07957 0.96335 0.0
C870 C 0.08059 0.04843 0.97721 0.0
H871 H 0.0993 0.12562 0.95286 0.0
H872 H 0.05359 0.08776 0.95476 0.0
C873 C 0.11119 0.03876 0.98833 0.0
C874 C 0.6605 0.39119 0.03831 0.0
C875 C 0.68963 0.40894 0.03691 0.0
H876 H 0.60945 0.3928 0.04534 0.0
C877 C 0.69003 0.44182 0.04661 0.0
H878 H 0.65962 0.36564 0.03153 0.0
C879 C 0.66125 0.45747 0.05444 0.0
C880 C 0.63166 0.44039 0.05309 0.0
H881 H 0.71224 0.45598 0.04617 0.0
H882 H 0.66195 0.48341 0.05952 0.0
C883 C 0.6318 0.40671 0.04663 0.0
C884 C 0.81266 0.38917 0.25656 0.0
C885 C 0.84427 0.38903 0.26941 0.0
H886 H 0.76884 0.3622 0.24853 0.0
C887 C 0.85468 0.36164 0.28724 0.0
H888 H 0.80368 0.41006 0.24312 0.0
C889 C 0.83458 0.33443 0.29077 0.0
C890 C 0.8036 0.33382 0.27639 0.0
H891 H 0.87864 0.36091 0.29808 0.0
H892 H 0.84394 0.31335 0.30362 0.0
C893 C 0.79254 0.36183 0.25998 0.0
C894 C 0.82824 0.56026 0.52664 0.0
C895 C 0.82714 0.59157 0.51267 0.0
H896 H 0.85822 0.52075 0.54198 0.0
C897 C 0.85606 0.60878 0.5072 0.0
H898 H 0.80623 0.54664 0.53151 0.0
C899 C 0.88562 0.5942 0.51347 0.0
C900 C 0.88687 0.56206 0.52528 0.0
H901 H 0.85598 0.6332 0.49703 0.0
H902 H 0.90752 0.60761 0.50757 0.0
C903 C 0.85796 0.5456 0.53297 0.0
C904 C 0.18997 0.10503 0.26933 0.0
C905 C 0.15932 0.10849 0.28375 0.0
H906 H 0.23363 0.12865 0.254 0.0
C907 C 0.15093 0.13871 0.29745 0.0
H908 H 0.19743 0.08195 0.25896 0.0
C909 C 0.17183 0.16542 0.29486 0.0
C910 C 0.20154 0.16251 0.2784 0.0
H911 H 0.12776 0.1421 0.30925 0.0
H912 H 0.16397 0.18869 0.30444 0.0
C913 C 0.21087 0.13178 0.26669 0.0
C914 C 0.36674 0.93796 0.49344 0.0
C915 C 0.3705 0.90617 0.48107 0.0
H916 H 0.38928 0.98384 0.50445 0.0
C917 C 0.40013 0.89766 0.46672 0.0
H918 H 0.34413 0.94553 0.50425 0.0
C919 C 0.42598 0.91977 0.46655 0.0
C920 C 0.42283 0.95086 0.48086 0.0
H921 H 0.40375 0.87355 0.45649 0.0
H922 H 0.44886 0.91186 0.45662 0.0
C923 C 0.39262 0.96005 0.49336 0.0
C924 C 0.84328 0.59647 0.22357 0.0
C925 C 0.8255 0.56736 0.22656 0.0
H926 H 0.84208 0.64783 0.21583 0.0
C927 C 0.79209 0.56755 0.22045 0.0
H928 H 0.86916 0.5969 0.22761 0.0
C929 C 0.77637 0.59689 0.21391 0.0
C930 C 0.79393 0.62641 0.21287 0.0
H931 H 0.77787 0.54534 0.22233 0.0
H932 H 0.75034 0.59662 0.21116 0.0
C933 C 0.82772 0.62563 0.21648 0.0
C934 C 0.69862 0.42733 0.72083 0.0
C935 C 0.66548 0.42875 0.72815 0.0
H936 H 0.73885 0.3963 0.71068 0.0
C937 C 0.64631 0.40062 0.72452 0.0
H938 H 0.71386 0.44884 0.72307 0.0
C939 C 0.66043 0.37094 0.71694 0.0
C940 C 0.69402 0.36877 0.71306 0.0
H941 H 0.62058 0.40115 0.72923 0.0
H942 H 0.64533 0.3492 0.71657 0.0
C943 C 0.71287 0.3974 0.71334 0.0
C944 C 0.01649 0.83 0.96278 0.0
C945 C 0.01682 0.83328 0.92807 0.0
H946 H 0.01683 0.8547 0.00959 0.0
C947 C 0.02317 0.86388 0.914 0.0
H948 H 0.01221 0.80654 0.97431 0.0
C949 C 0.0264 0.89125 0.93435 0.0
C950 C 0.02377 0.88815 0.96887 0.0
H951 H 0.02398 0.86693 0.88734 0.0
H952 H 0.02835 0.91513 0.92305 0.0
C953 C 0.01993 0.85732 0.98305 0.0
C954 C 0.91241 0.2427 0.70171 0.0
C955 C 0.91298 0.23983 0.66701 0.0
H956 H 0.88468 0.25564 0.74445 0.0
C957 C 0.88521 0.24773 0.64867 0.0
H958 H 0.93358 0.2372 0.71645 0.0
C959 C 0.85791 0.2595 0.66445 0.0
C960 C 0.85742 0.26295 0.69905 0.0
H961 H 0.88484 0.246 0.62186 0.0
H962 H 0.83693 0.2652 0.64949 0.0
C963 C 0.88471 0.25391 0.71764 0.0
C964 C 0.46396 0.16772 0.46023 0.0
C965 C 0.48394 0.17777 0.43385 0.0
H966 H 0.45141 0.1296 0.49411 0.0
C967 C 0.50387 0.15489 0.41853 0.0
H968 H 0.44776 0.1846 0.47218 0.0
C969 C 0.50562 0.12331 0.43096 0.0
C970 C 0.48748 0.11404 0.45892 0.0
H971 H 0.51912 0.16166 0.39786 0.0
H972 H 0.52241 0.10661 0.41962 0.0
C973 C 0.46567 0.13608 0.47261 0.0
C974 C 0.61919 0.7562 0.12361 0.0
C975 C 0.58907 0.75221 0.13905 0.0
H976 H 0.66956 0.74653 0.12456 0.0
C977 C 0.58745 0.7343 0.16878 0.0
H978 H 0.6215 0.76944 0.10052 0.0
C979 C 0.61542 0.72084 0.18271 0.0
C980 C 0.64546 0.72495 0.16706 0.0
H981 H 0.56457 0.73025 0.18107 0.0
H982 H 0.6136 0.70784 0.20598 0.0
C983 C 0.64684 0.7426 0.13725 0.0
C984 C 0.06029 0.15333 0.56844 0.0
C985 C 0.0341 0.16256 0.58833 0.0
H986 H 0.08922 0.11446 0.55045 0.0
C987 C 0.01978 0.13941 0.60934 0.0
H988 H 0.07268 0.17082 0.55279 0.0
C989 C 0.02971 0.10706 0.60838 0.0
C990 C 0.05399 0.09733 0.58623 0.0
H991 H 0.00015 0.14594 0.62563 0.0
H992 H 0.01684 0.08938 0.62339 0.0
C993 C 0.07022 0.12107 0.5675 0.0
C994 C 0.61519 0.24963 0.3558 0.0
C995 C 0.58684 0.25106 0.33671 0.0
H996 H 0.6668 0.24941 0.35594 0.0
C997 C 0.58918 0.25523 0.3022 0.0
H998 H 0.6141 0.24681 0.38248 0.0
C999 C 0.61948 0.25776 0.28707 0.0
C1000 C 0.64779 0.2556 0.30621 0.0
H1001 H 0.56764 0.25701 0.287 0.0
H1002 H 0.62076 0.26017 0.26036 0.0
C1003 C 0.64533 0.25156 0.34068 0.0
C1004 C 0.47887 0.84363 0.05412 0.0
C1005 C 0.47605 0.83849 0.08834 0.0
H1006 H 0.47501 0.87734 0.01421 0.0
C1007 C 0.46492 0.8637 0.10875 0.0
H1008 H 0.48689 0.82441 0.03774 0.0
C1009 C 0.4577 0.89401 0.09521 0.0
C1010 C 0.46168 0.89952 0.0611 0.0
H1011 H 0.46204 0.86013 0.13518 0.0
H1012 H 0.45033 0.91343 0.11167 0.0
C1013 C 0.4717 0.87384 0.04061 0.0
C1014 C 0.90541 0.75006 0.82226 0.0
C1015 C 0.90366 0.76425 0.85406 0.0
H1016 H 0.87911 0.73206 0.77977 0.0
C1017 C 0.87311 0.77011 0.86768 0.0
H1018 H 0.92857 0.74476 0.81121 0.0
C1019 C 0.84515 0.76203 0.85023 0.0
C1020 C 0.84669 0.74822 0.81835 0.0
H1021 H 0.87062 0.78065 0.89217 0.0
H1022 H 0.82214 0.76726 0.86165 0.0
C1023 C 0.87713 0.74214 0.80451 0.0
C1024 C 0.88626 0.97164 0.87205 0.0
C1025 C 0.87673 0.00248 0.86121 0.0
H1026 H 0.9081 0.94445 0.91124 0.0
C1027 C 0.87657 0.02887 0.88321 0.0
H1028 H 0.88674 0.9512 0.855 0.0
C1029 C 0.88965 0.02533 0.91481 0.0
C1030 C 0.90211 -0.0048 0.92463 0.0
H1031 H 0.8696 0.05289 0.87484 0.0
H1032 H 0.89233 0.04662 0.93057 0.0
C1033 C 0.89841 0.96784 0.90403 0.0
C1034 C 0.74859 0.22421 0.56939 0.0
C1035 C 0.7551 0.19074 0.5673 0.0
H1036 H 0.73401 0.26378 0.60037 0.0
C1037 C 0.74935 0.1708 0.59491 0.0
H1038 H 0.75227 0.24001 0.54822 0.0
C1039 C 0.73776 0.18415 0.62428 0.0
C1040 C 0.73231 0.21782 0.62678 0.0
H1041 H 0.75328 0.14476 0.59366 0.0
H1042 H 0.73453 0.16828 0.64547 0.0
C1043 C 0.7376 0.2377 0.59898 0.0
C1044 C 0.61262 0.95253 0.37769 0.0
C1045 C 0.62045 0.9799 0.35862 0.0
H1046 H 0.59338 0.93543 0.42364 0.0
C1047 C 0.6212 0.01091 0.37297 0.0
H1048 H 0.61176 0.92847 0.36658 0.0
C1049 C 0.61117 0.01494 0.40558 0.0
C1050 C 0.59935 0.98803 0.42353 0.0
H1051 H 0.62699 0.03221 0.3582 0.0
H1052 H 0.60958 0.03948 0.41537 0.0
C1053 C 0.60199 0.95657 0.41012 0.0
C1054 C 0.77831 0.79495 0.07732 0.0
C1055 C 0.76044 0.82368 0.07262 0.0
H1056 H 0.79674 0.76014 0.11189 0.0
C1057 C 0.75086 0.84152 0.10052 0.0
H1058 H 0.78664 0.78084 0.05637 0.0
C1059 C 0.75731 0.82992 0.13232 0.0
C1060 C 0.77328 0.80011 0.13695 0.0
H1061 H 0.73779 0.86411 0.09788 0.0
H1062 H 0.74826 0.8435 0.15333 0.0
C1063 C 0.7847 0.7833 0.10917 0.0
C1064 C 0.93021 -0.00276 0.6714 0.0
C1065 C 0.94896 0.991 0.69967 0.0
H1066 H 0.92614 -0.00641 0.6188 0.0
C1067 C 0.97826 0.97415 0.69604 0.0
H1068 H 0.90714 0.00929 0.67328 0.0
C1069 C 0.98896 0.96461 0.66468 0.0
C1070 C 0.97053 0.97173 0.63644 0.0
H1071 H 0.99307 0.96844 0.71742 0.0
H1072 H 0.01231 0.95316 0.66244 0.0
C1073 C 0.94078 0.98755 0.64023 0.0
C1074 C 0.81332 0.14257 0.39486 0.0
C1075 C 0.78829 0.12319 0.40758 0.0
H1076 H 0.8286 0.17396 0.3557 0.0
C1077 C 0.76114 0.11594 0.38817 0.0
H1078 H 0.83431 0.14851 0.40994 0.0
C1079 C 0.75765 0.13064 0.35726 0.0
C1080 C 0.78115 0.15301 0.34592 0.0
H1081 H 0.74147 0.10136 0.39806 0.0
H1082 H 0.73539 0.12649 0.3436 0.0
C1083 C 0.80987 0.15732 0.36405 0.0
C1084 C 0.50832 0.01539 0.19969 0.0
C1085 C 0.5417 0.01075 0.20289 0.0
H1086 H 0.46929 0.02671 0.16666 0.0
C1087 C 0.56201 0.01777 0.17608 0.0
H1088 H 0.49236 0.01082 0.22041 0.0
C1089 C 0.54917 0.02821 0.14611 0.0
C1090 C 0.51562 0.03099 0.14204 0.0
H1091 H 0.58798 0.01545 0.17835 0.0
H1092 H 0.56554 0.03233 0.12563 0.0
C1093 C 0.49527 0.02495 0.16923 0.0
C1094 C 0.731 0.88228 0.87909 0.0
C1095 C 0.71632 0.8658 0.90544 0.0
H1096 H 0.74403 0.88007 0.8278 0.0
C1097 C 0.6984 0.83722 0.89943 0.0
H1098 H 0.74478 0.90448 0.88342 0.0
C1099 C 0.69714 0.82377 0.86778 0.0
C1100 C 0.71465 0.83824 0.84193 0.0
H1101 H 0.68651 0.8245 0.91957 0.0
H1102 H 0.68475 0.80062 0.86433 0.0
C1103 C 0.73046 0.86835 0.84743 0.0
C1104 C 0.82502 0.94085 0.01383 0.0
C1105 C 0.82806 0.91094 -0.0031 0.0
H1106 H 0.84838 0.97737 0.04406 0.0
C1107 C 0.85792 0.89515 -0.0025 0.0
H1108 H 0.80221 0.95352 0.01409 0.0
C1109 C 0.88368 0.90808 0.0155 0.0
C1110 C 0.88074 0.93771 0.03284 0.0
H1111 H 0.86119 0.87195 0.98516 0.0
H1112 H 0.90612 0.89474 0.01548 0.0
C1113 C 0.85125 0.95426 0.03145 0.0
C1114 C 0.3894 0.60897 0.02881 0.0
C1115 C 0.3616 0.58935 0.0254 0.0
H1116 H 0.44116 0.6111 0.02784 0.0
C1117 C 0.36488 0.55608 0.01819 0.0
H1118 H 0.38738 0.63484 0.03374 0.0
C1119 C 0.39546 0.5429 0.01314 0.0
C1120 C 0.42324 0.56263 0.01608 0.0
H1121 H 0.34376 0.54065 0.01463 0.0
H1122 H 0.3974 0.51722 0.00728 0.0
C1123 C 0.42002 0.59557 0.02483 0.0
C1124 C 0.1733 0.58004 0.73451 0.0
C1125 C 0.14204 0.58376 0.74748 0.0
H1126 H 0.21626 0.60405 0.71743 0.0
C1127 C 0.12823 0.61481 0.74803 0.0
H1128 H 0.18439 0.55629 0.73316 0.0
C1129 C 0.14622 0.64192 0.73836 0.0
C1130 C 0.17845 0.63854 0.72826 0.0
H1131 H 0.1039 0.6184 0.75698 0.0
H1132 H 0.13557 0.66581 0.74088 0.0
C1133 C 0.19141 0.60729 0.72494 0.0
C1134 C 0.15594 0.44297 0.50942 0.0
C1135 C 0.15792 0.41167 0.49552 0.0
H1136 H 0.12689 0.48513 0.51713 0.0
C1137 C 0.1311 0.39887 0.4782 0.0
H1138 H 0.17635 0.45368 0.5225 0.0
C1139 C 0.10303 0.41704 0.47454 0.0
C1140 C 0.10098 0.44845 0.48824 0.0
H1141 H 0.13194 0.37494 0.46685 0.0
H1142 H 0.08281 0.40622 0.46124 0.0
C1143 C 0.12775 0.46117 0.50585 0.0
C1144 C 0.82722 0.91928 0.7369 0.0
C1145 C 0.85775 0.9153 0.75172 0.0
H1146 H 0.78566 0.89545 0.71593 0.0
C1147 C 0.87231 0.8846 0.75107 0.0
H1148 H 0.81571 0.94286 0.73635 0.0
C1149 C 0.85544 0.8578 0.73869 0.0
C1150 C 0.82366 0.86121 0.72708 0.0
H1151 H 0.89623 0.88094 0.76128 0.0
H1152 H 0.86631 0.83395 0.74061 0.0
C1153 C 0.81023 0.89231 0.72459 0.0
C1154 C 0.65869 0.11595 0.51872 0.0
C1155 C 0.68504 0.09616 0.51088 0.0
H1156 H 0.61088 0.11854 0.53768 0.0
C1157 C 0.68419 0.06311 0.52005 0.0
H1158 H 0.659 0.14178 0.51317 0.0
C1159 C 0.65623 0.04964 0.53438 0.0
C1160 C 0.62917 0.06929 0.54012 0.0
H1161 H 0.7045 0.0475 0.51494 0.0
H1162 H 0.65509 0.02366 0.53896 0.0
C1163 C 0.63128 0.10276 0.53338 0.0
C1164 C 0.16029 0.37922 0.7707 0.0
C1165 C 0.16698 0.40412 0.74774 0.0
H1166 H 0.17505 0.33399 0.79172 0.0
C1167 C 0.19502 0.40256 0.72851 0.0
H1168 H 0.13913 0.38004 0.78635 0.0
C1169 C 0.21569 0.3761 0.73173 0.0
C1170 C 0.20887 0.3512 0.75465 0.0
H1171 H 0.20096 0.42171 0.71105 0.0
H1172 H 0.23677 0.37488 0.71598 0.0
C1173 C 0.18121 0.35316 0.77435 0.0
C1174 C 0.28865 0.58984 0.2328 0.0
C1175 C 0.32223 0.59145 0.23809 0.0
H1176 H 0.24351 0.61506 0.23585 0.0
C1177 C 0.33611 0.62066 0.24981 0.0
H1178 H 0.27722 0.56753 0.22414 0.0
C1179 C 0.31687 0.64703 0.25785 0.0
C1180 C 0.28322 0.64529 0.25363 0.0
H1181 H 0.36187 0.62283 0.25421 0.0
H1182 H 0.32859 0.66903 0.26696 0.0
C1183 C 0.26931 0.61674 0.24018 0.0
C1184 C 0.47095 0.6557 0.59183 0.0
C1185 C 0.47466 0.68073 0.56831 0.0
H1186 H 0.46216 0.60475 0.59965 0.0
C1187 C 0.4659 0.67481 0.53521 0.0
H1188 H 0.47685 0.65981 0.61771 0.0
C1189 C 0.45679 0.64366 0.52514 0.0
C1190 C 0.45664 0.61782 0.54791 0.0
H1191 H 0.46745 0.69388 0.51672 0.0
H1192 H 0.45234 0.63927 0.49899 0.0
C1193 C 0.46202 0.62432 0.58166 0.0
C1194 C 0.61109 0.23794 0.85108 0.0
C1195 C 0.58163 0.23617 0.83387 0.0
H1196 H 0.66253 0.23703 0.84765 0.0
C1197 C 0.58147 0.2263 0.80039 0.0
H1198 H 0.61199 0.24494 0.87699 0.0
C1199 C 0.61056 0.22122 0.78367 0.0
C1200 C 0.64002 0.22606 0.80029 0.0
H1201 H 0.55902 0.22433 0.78661 0.0
H1202 H 0.61005 0.21639 0.75725 0.0
C1203 C 0.64 0.23301 0.83441 0.0
C1204 C 0.02398 0.34053 0.06324 0.0
C1205 C 0.01143 0.33923 0.09546 0.0
H1206 H 0.04505 0.36985 0.02544 0.0
C1207 C 0.01396 0.36685 0.11598 0.0
H1208 H 0.02285 0.31962 0.04689 0.0
C1209 C 0.0267 0.39604 0.10346 0.0
C1210 C 0.03714 0.39772 0.07036 0.0
H1211 H 0.00491 0.36628 0.14113 0.0
H1212 H 0.02623 0.41769 0.11886 0.0
C1213 C 0.03704 0.36931 0.05098 0.0
C1214 C 0.89971 0.75848 0.31716 0.0
C1215 C 0.89484 0.76647 0.35075 0.0
H1216 H 0.87836 0.75099 0.26922 0.0
C1217 C 0.86382 0.77571 0.36085 0.0
H1218 H 0.92331 0.75141 0.30839 0.0
C1219 C 0.83811 0.77579 0.33826 0.0
C1220 C 0.84266 0.76641 0.305 0.0
H1221 H 0.85919 0.78231 0.38639 0.0
H1222 H 0.81439 0.78216 0.34726 0.0
C1223 C 0.87393 0.75835 0.29459 0.0
C1224 C 0.4909 0.34011 0.95225 0.0
C1225 C 0.49753 0.34204 0.91808 0.0
H1226 H 0.48619 0.36558 -0.00181 0.0
C1227 C 0.50142 0.37278 0.90341 0.0
H1228 H 0.4875 0.31682 0.96441 0.0
C1229 C 0.50006 0.401 0.92302 0.0
C1230 C 0.49528 0.39868 0.95752 0.0
H1231 H 0.50643 0.37496 0.87717 0.0
H1232 H 0.50441 0.42445 0.91149 0.0
C1233 C 0.49006 0.36804 0.97175 0.0
C1234 C 0.89087 0.21784 0.15014 0.0
C1235 C 0.91854 0.22535 0.16904 0.0
H1236 H 0.84127 0.2029 0.15057 0.0
C1237 C 0.9185 0.21926 0.20323 0.0
H1238 H 0.89056 0.22164 0.12356 0.0
C1239 C 0.89025 0.20856 0.21872 0.0
C1240 C 0.86186 0.20324 0.20011 0.0
H1241 H 0.93971 0.22441 0.21824 0.0
H1242 H 0.89011 0.20619 0.24547 0.0
C1243 C 0.86282 0.20655 0.16551 0.0
C1244 C 0.01278 0.66417 0.46882 0.0
C1245 C 0.00469 0.66976 0.4354 0.0
H1246 H 0.02597 0.62909 0.5055 0.0
C1247 C 0.00918 0.64483 0.41209 0.0
H1248 H 0.01037 0.68326 0.48722 0.0
C1249 C 0.01827 0.61385 0.42261 0.0
C1250 C 0.02347 0.60755 0.45647 0.0
H1251 H 0.00369 0.64862 0.38611 0.0
H1252 H 0.01887 0.59422 0.40461 0.0
C1253 C 0.02239 0.63335 0.47924 0.0
C1254 C 0.61997 0.79172 0.63035 0.0
C1255 C 0.59076 0.78144 0.64479 0.0
H1256 H 0.67004 0.80292 0.63797 0.0
C1257 C 0.58936 0.77726 0.67932 0.0
H1258 H 0.62174 0.79558 0.60385 0.0
C1259 C 0.61682 0.78183 0.69882 0.0
C1260 C 0.64638 0.79061 0.68427 0.0
H1261 H 0.56713 0.76996 0.6914 0.0
H1262 H 0.61504 0.77745 0.72524 0.0
C1263 C 0.64756 0.79628 0.64993 0.0
C1264 C 0.52687 0.50447 0.67929 0.0
C1265 C 0.56061 0.50448 0.68319 0.0
H1266 H 0.48684 0.49807 0.64647 0.0
C1267 C 0.57993 0.49448 0.65658 0.0
H1268 H 0.51118 0.51127 0.69951 0.0
C1269 C 0.56585 0.48665 0.62601 0.0
C1270 C 0.53221 0.48866 0.62161 0.0
H1271 H 0.60597 0.49368 0.65899 0.0
H1272 H 0.58147 0.48065 0.60546 0.0
C1273 C 0.51284 0.49654 0.6489 0.0
C1274 C 0.79047 0.3231 0.90557 0.0
C1275 C 0.77126 0.35026 0.91252 0.0
H1276 H 0.80451 0.28774 0.86971 0.0
C1277 C 0.75467 0.36566 0.88673 0.0
H1278 H 0.80394 0.31109 0.92499 0.0
C1279 C 0.75472 0.35204 0.85499 0.0
C1280 C 0.77174 0.32314 0.84872 0.0
H1281 H 0.73985 0.38674 0.89155 0.0
H1282 H 0.73999 0.36308 0.83588 0.0
C1283 C 0.79096 0.30981 0.87384 0.0
C1284 C 0.96985 0.51609 0.17978 0.0
C1285 C 0.93663 0.50864 0.17929 0.0
H1286 H 0.0111 0.53107 0.15206 0.0
C1287 C 0.91831 0.51655 0.15115 0.0
H1288 H 0.98449 0.51145 0.20157 0.0
C1289 C 0.93364 0.52824 0.12271 0.0
C1290 C 0.96749 0.53206 0.12208 0.0
H1291 H 0.89252 0.5119 0.15039 0.0
H1292 H 0.91925 0.53157 0.1005 0.0
C1293 C 0.9851 0.52784 0.15152 0.0
C1294 C 0.72509 0.63832 0.37849 0.0
C1295 C 0.72553 0.6584 0.40669 0.0
H1296 H 0.71903 0.63597 0.32581 0.0
C1297 C 0.71469 0.69062 0.40411 0.0
H1298 H 0.73284 0.61324 0.37995 0.0
C1299 C 0.70648 0.70349 0.37338 0.0
C1300 C 0.70903 0.68443 0.34463 0.0
H1301 H 0.71412 0.70652 0.42555 0.0
H1302 H 0.7003 0.72905 0.37187 0.0
C1303 C 0.71678 0.65125 0.34759 0.0
C1304 C 0.56854 0.52228 0.85379 0.0
C1305 C 0.60078 0.51277 0.84952 0.0
H1306 H 0.5308 0.53317 0.88776 0.0
C1307 C 0.62083 0.50965 0.87738 0.0
H1308 H 0.5525 0.5252 0.83274 0.0
C1309 C 0.60832 0.51448 0.90914 0.0
C1310 C 0.57553 0.52233 0.91342 0.0
H1311 H 0.64583 0.50264 0.87473 0.0
H1312 H 0.624 0.51065 0.93031 0.0
C1313 C 0.55605 0.52701 0.88536 0.0
C1314 C 0.75898 0.26368 0.07773 0.0
C1315 C 0.75795 0.29774 0.07459 0.0
H1316 H 0.75106 0.22247 0.10888 0.0
C1317 C 0.74427 0.31625 0.10018 0.0
H1318 H 0.76871 0.24859 0.05818 0.0
C1319 C 0.73378 0.30118 0.12922 0.0
C1320 C 0.73687 0.26733 0.13324 0.0
H1321 H 0.74242 0.34249 0.09822 0.0
H1322 H 0.72488 0.31633 0.14915 0.0
C1323 C 0.74848 0.24862 0.10671 0.0
C1324 C 0.88029 0.48919 0.36791 0.0
C1325 C 0.89484 0.47665 0.33945 0.0
H1326 H 0.88583 0.49932 0.41962 0.0
C1327 C 0.92382 0.45926 0.34235 0.0
H1328 H 0.85786 0.50246 0.36628 0.0
C1329 C 0.93965 0.45709 0.37275 0.0
C1330 C 0.92693 0.47278 0.4005 0.0
H1331 H 0.93533 0.44887 0.32083 0.0
H1332 H 0.96301 0.4455 0.37385 0.0
C1333 C 0.89637 0.48743 0.39829 0.0
C1334 C 0.76989 0.72764 0.57702 0.0
C1335 C 0.76238 0.69446 0.57306 0.0
H1336 H 0.7824 0.76593 0.6106 0.0
C1337 C 0.76673 0.67318 0.59996 0.0
H1338 H 0.76776 0.74446 0.55647 0.0
C1339 C 0.77516 0.68552 0.6312 0.0
C1340 C 0.77952 0.71924 0.63576 0.0
H1341 H 0.76165 0.64735 0.5974 0.0
H1342 H 0.77573 0.66902 0.65213 0.0
C1343 C 0.77862 0.73987 0.60799 0.0
C1344 C 0.64916 0.57471 0.49399 0.0
C1345 C 0.64738 0.60683 0.48211 0.0
H1346 H 0.62413 0.52975 0.50267 0.0
C1347 C 0.61856 0.61735 0.46728 0.0
H1348 H 0.67112 0.56568 0.50521 0.0
C1349 C 0.59175 0.59661 0.46545 0.0
C1350 C 0.59309 0.56494 0.47858 0.0
H1351 H 0.61651 0.64177 0.4574 0.0
H1352 H 0.56964 0.60588 0.45475 0.0
C1353 C 0.62228 0.55399 0.49229 0.0
C1354 C 0.19504 0.93935 0.54765 0.0
C1355 C 0.19573 0.90708 0.53612 0.0
H1356 H 0.16572 0.97902 0.56338 0.0
C1357 C 0.16718 0.88827 0.53654 0.0
H1358 H 0.21675 0.95429 0.54809 0.0
C1359 C 0.13796 0.9023 0.54581 0.0
C1360 C 0.13681 0.93546 0.55444 0.0
H1361 H 0.16711 0.86313 0.5283 0.0
H1362 H 0.11601 0.88783 0.54377 0.0
C1363 C 0.16583 0.95345 0.55662 0.0
C1364 C 0.35418 0.86847 0.79988 0.0
C1365 C 0.34497 0.89639 0.78221 0.0
H1366 H 0.34219 0.81981 0.81422 0.0
C1367 C 0.31395 0.89724 0.76789 0.0
H1368 H 0.37763 0.86716 0.81179 0.0
C1369 C 0.29342 0.87002 0.76949 0.0
C1370 C 0.30347 0.8414 0.78546 0.0
H1371 H 0.30586 0.91853 0.75452 0.0
H1372 H 0.27034 0.87095 0.75681 0.0
C1373 C 0.33367 0.84135 0.80155 0.0
C1374 C 0.31434 0.05648 0.03027 0.0
C1375 C 0.3114 0.0885 0.01844 0.0
H1376 H 0.34658 0.01982 0.04808 0.0
C1377 C 0.33806 0.10979 0.0203 0.0
H1378 H 0.29394 0.03976 0.0296 0.0
C1379 C 0.36777 0.09866 0.03138 0.0
C1380 C 0.37152 0.06594 0.04059 0.0
H1381 H 0.3363 0.13487 0.0122 0.0
H1382 H 0.3883 0.11525 0.03088 0.0
C1383 C 0.3443 0.04522 0.04128 0.0
C1384 C 0.64745 0.63375 0.79818 0.0
C1385 C 0.65665 0.60485 0.7823 0.0
H1386 H 0.65926 0.68332 0.80915 0.0
C1387 C 0.68756 0.60316 0.76806 0.0
H1388 H 0.6241 0.63573 0.80997 0.0
C1389 C 0.70791 0.63054 0.76772 0.0
C1390 C 0.69768 0.66008 0.7816 0.0
H1391 H 0.69562 0.58109 0.75601 0.0
H1392 H 0.73083 0.629 0.75501 0.0
C1393 C 0.66774 0.66103 0.79787 0.0
C1394 C 0.86166 0.4299 -0.00444 0.0
C1395 C 0.86444 0.3976 0.98437 0.0
H1396 H 0.88536 0.47557 0.00443 0.0
C1397 C 0.89402 0.38741 0.97109 0.0
H1398 H 0.83914 0.43874 0.00555 0.0
C1399 C 0.92056 0.40867 0.97023 0.0
C1400 C 0.91809 0.44058 0.98265 0.0
H1401 H 0.89694 0.3628 0.9619 0.0
H1402 H 0.94326 0.3997 0.96084 0.0
C1403 C 0.88815 0.45115 -0.00531 0.0
C1404 C 0.35222 0.10158 0.72582 0.0
C1405 C 0.33405 0.07265 0.72834 0.0
H1406 H 0.35177 0.15283 0.71702 0.0
C1407 C 0.30118 0.07283 0.7197 0.0
H1408 H 0.37775 0.10201 0.73179 0.0
C1409 C 0.28614 0.10204 0.71133 0.0
C1410 C 0.30385 0.13148 0.7111 0.0
H1411 H 0.28668 0.05075 0.72111 0.0
H1412 H 0.26035 0.10178 0.70673 0.0
C1413 C 0.33733 0.13067 0.71703 0.0
C1414 C 0.14375 0.90282 0.23329 0.0
C1415 C 0.16358 0.93063 0.23545 0.0
H1416 H 0.14135 0.85136 0.22595 0.0
C1417 C 0.19627 0.92843 0.22646 0.0
H1418 H 0.11831 0.90393 0.23931 0.0
C1419 C 0.20955 0.8981 0.21859 0.0
C1420 C 0.19016 0.86986 0.21957 0.0
H1421 H 0.21199 0.94967 0.22757 0.0
H1422 H 0.23532 0.89644 0.21449 0.0
C1423 C 0.15688 0.87278 0.22531 0.0
C1424 C 0.52153 0.34944 0.44503 0.0
C1425 C 0.51307 0.3478 0.41125 0.0
H1426 H 0.53139 0.38012 0.4869 0.0
C1427 C 0.5116 0.37654 0.39266 0.0
H1428 H 0.52357 0.32749 0.45976 0.0
C1429 C 0.51605 0.40666 0.40827 0.0
C1430 C 0.52277 0.40832 0.44247 0.0
H1431 H 0.50562 0.3758 0.36648 0.0
H1432 H 0.51266 0.42871 0.39399 0.0
C1433 C 0.52671 0.37947 0.46045 0.0
C1434 C 0.37986 0.75313 0.14634 0.0
C1435 C 0.40746 0.7427 0.16363 0.0
H1436 H 0.3315 0.77026 0.14901 0.0
C1437 C 0.40634 0.7406 0.19837 0.0
H1438 H 0.37981 0.75516 0.11956 0.0
C1439 C 0.37826 0.74933 0.2154 0.0
C1440 C 0.35114 0.76091 0.19799 0.0
H1441 H 0.42732 0.73305 0.2124 0.0
H1442 H 0.37786 0.74729 0.24217 0.0
C1443 C 0.35224 0.76242 0.16329 0.0
C1444 C 0.95445 0.65182 0.94086 0.0
C1445 C 0.97838 0.66449 0.91965 0.0
H1446 H 0.93926 0.61186 0.97106 0.0
C1447 C 0.00195 0.64367 0.90706 0.0
H1448 H 0.93533 0.66712 0.95016 0.0
C1449 C 0.00398 0.61185 0.91886 0.0
C1450 C 0.98251 0.60057 0.94341 0.0
H1451 H 0.02032 0.65262 0.89024 0.0
H1452 H 0.02392 0.59703 0.91065 0.0
C1453 C 0.95649 0.62006 0.95266 0.0
C1454 C 0.1145 0.23545 0.63635 0.0
C1455 C 0.09015 0.25607 0.64801 0.0
H1456 H 0.15829 0.21045 0.64754 0.0
C1457 C 0.09063 0.26626 0.68121 0.0
H1458 H 0.11411 0.2265 0.61105 0.0
C1459 C 0.11602 0.25716 0.70202 0.0
C1460 C 0.14049 0.23675 0.69021 0.0
H1461 H 0.07172 0.28164 0.69083 0.0
H1462 H 0.11689 0.26651 0.72716 0.0
C1463 C 0.13928 0.22556 0.65739 0.0
C1464 C 0.5414 0.66012 0.04464 0.0
C1465 C 0.52185 0.66927 0.07148 0.0
H1466 H 0.56878 0.62255 0.02169 0.0
C1467 C 0.51617 0.6468 0.09705 0.0
H1468 H 0.54671 0.67698 0.02471 0.0
C1469 C 0.5294 0.61576 0.09559 0.0
C1470 C 0.54837 0.60639 0.06839 0.0
H1471 H 0.50186 0.65325 0.11845 0.0
H1472 H 0.52397 0.59878 0.11538 0.0
C1473 C 0.5546 0.62906 0.04316 0.0
C1474 C 0.11384 0.74809 0.85431 0.0
C1475 C 0.08567 0.7494 0.83493 0.0
H1476 H 0.16511 0.75212 0.85603 0.0
C1477 C 0.08828 0.75686 0.80099 0.0
H1478 H 0.11273 0.74278 0.8806 0.0
C1479 C 0.11872 0.76267 0.78679 0.0
C1480 C 0.14683 0.761 0.80639 0.0
H1481 H 0.06688 0.75863 0.78559 0.0
H1482 H 0.12032 0.76744 0.76044 0.0
C1483 C 0.14392 0.75388 0.8403 0.0
C1484 C 0.96083 0.3546 0.59581 0.0
C1485 C 0.97544 0.32849 0.57935 0.0
H1486 H 0.94467 0.40369 0.59267 0.0
C1487 C 0.98201 0.33085 0.54539 0.0
H1488 H 0.95489 0.35309 0.6219 0.0
C1489 C 0.97583 0.35967 0.52852 0.0
C1490 C 0.96301 0.38656 0.54543 0.0
H1491 H 0.9927 0.31077 0.53201 0.0
H1492 H 0.98251 0.36137 0.50264 0.0
C1493 C 0.95451 0.38339 0.57894 0.0
C1494 C 0.41018 0.2488 0.31316 0.0
C1495 C 0.40528 0.25618 0.34692 0.0
H1496 H 0.38788 0.23648 0.26641 0.0
C1497 C 0.37424 0.25193 0.36024 0.0
H1498 H 0.43392 0.25129 0.30225 0.0
C1499 C 0.34844 0.24253 0.34009 0.0
C1500 C 0.35281 0.23732 0.30601 0.0
H1501 H 0.36958 0.25652 0.38624 0.0
H1502 H 0.32449 0.24137 0.3508 0.0
C1503 C 0.38405 0.23955 0.29278 0.0
C1504 C 0.37164 0.51041 0.3744 0.0
C1505 C 0.38293 0.53051 0.34897 0.0
H1506 H 0.38009 0.49321 0.4236 0.0
C1507 C 0.40776 0.55315 0.35501 0.0
H1508 H 0.35251 0.49274 0.3698 0.0
C1509 C 0.42342 0.55367 0.38549 0.0
C1510 C 0.41476 0.531 0.40994 0.0
H1511 H 0.41651 0.5689 0.33538 0.0
H1512 H 0.4439 0.57001 0.38881 0.0
C1513 C 0.38758 0.51061 0.40492 0.0
C1514 C 0.24165 0.72731 0.07008 0.0
C1515 C 0.2471 0.69364 0.06789 0.0
H1516 H 0.22738 0.76707 0.10101 0.0
C1517 C 0.23935 0.67358 0.09487 0.0
H1518 H 0.24683 0.74318 0.04929 0.0
C1519 C 0.22697 0.68701 0.12384 0.0
C1520 C 0.22278 0.72086 0.12661 0.0
H1521 H 0.24239 0.64742 0.09342 0.0
H1522 H 0.22231 0.67101 0.14466 0.0
C1523 C 0.22994 0.74086 0.09935 0.0
C1524 C 0.09354 0.45605 0.8622 0.0
C1525 C 0.11433 0.48117 0.85211 0.0
H1526 H 0.06531 0.43627 0.90138 0.0
C1527 C 0.12724 0.50309 0.87527 0.0
H1528 H 0.08401 0.43852 0.84443 0.0
C1529 C 0.11639 0.50207 0.90793 0.0
C1530 C 0.09276 0.47896 0.91733 0.0
H1531 H 0.14369 0.52234 0.86763 0.0
H1532 H 0.12462 0.52084 0.92501 0.0
C1533 C 0.08309 0.45465 0.89478 0.0
C1534 C 0.23213 0.30325 0.57443 0.0
C1535 C 0.25847 0.3004 0.55319 0.0
H1536 H 0.21273 0.29357 0.622 0.0
C1537 C 0.28632 0.28404 0.56423 0.0
H1538 H 0.21042 0.31565 0.56657 0.0
C1539 C 0.28806 0.27167 0.59654 0.0
C1540 C 0.26173 0.27496 0.61793 0.0
H1541 H 0.30716 0.2818 0.54829 0.0
H1542 H 0.30993 0.25985 0.60479 0.0
C1543 C 0.2336 0.29045 0.60625 0.0
C1544 C 0.45833 0.45861 0.18508 0.0
C1545 C 0.43091 0.47868 0.18734 0.0
H1546 H 0.49549 0.43979 0.15373 0.0
C1547 C 0.41668 0.4903 0.15814 0.0
H1548 H 0.46952 0.44855 0.20706 0.0
C1549 C 0.43126 0.48455 0.12769 0.0
C1550 C 0.46028 0.46715 0.1259 0.0
H1551 H 0.39519 0.5051 0.15887 0.0
H1552 H 0.42119 0.49588 0.10574 0.0
C1553 C 0.47291 0.45287 0.15451 0.0
C1554 C 0.25681 0.62187 0.88951 0.0
C1555 C 0.28428 0.62727 0.90903 0.0
H1556 H 0.23145 0.63492 0.84545 0.0
C1557 C 0.31009 0.64593 0.89683 0.0
H1558 H 0.23651 0.60793 0.89902 0.0
C1559 C 0.30718 0.66188 0.86657 0.0
C1560 C 0.27825 0.65942 0.84845 0.0
H1561 H 0.3313 0.65053 0.91206 0.0
H1562 H 0.32653 0.67801 0.85871 0.0
C1563 C 0.25389 0.63768 0.85913 0.0
C1564 C 0.07164 0.49779 0.6596 0.0
C1565 C 0.05089 0.49587 0.68694 0.0
H1566 H 0.0761 0.506 0.60764 0.0
C1567 C 0.01763 0.50068 0.68234 0.0
H1568 H 0.09747 0.49482 0.66253 0.0
C1569 C 0.00534 0.50715 0.65079 0.0
C1570 C 0.02624 0.50963 0.62359 0.0
H1571 H 0.00119 0.49966 0.70313 0.0
H1572 H 0.97956 0.51026 0.6477 0.0
C1573 C 0.05948 0.50492 0.62829 0.0
C1574 C 0.21166 0.35223 0.37958 0.0
C1575 C 0.23937 0.36943 0.38974 0.0
H1576 H 0.18881 0.32477 0.34097 0.0
C1577 C 0.26334 0.37741 0.36681 0.0
H1578 H 0.19283 0.34622 0.3972 0.0
C1579 C 0.26109 0.36525 0.33453 0.0
C1580 C 0.23504 0.34468 0.32532 0.0
H1581 H 0.28479 0.39081 0.37448 0.0
H1582 H 0.28113 0.36959 0.31787 0.0
C1583 C 0.20936 0.34008 0.34745 0.0
C1584 C 0.33533 0.43181 0.51163 0.0
C1585 C 0.33932 0.39964 0.50037 0.0
H1586 H 0.35873 0.47494 0.53054 0.0
C1587 C 0.36929 0.38455 0.50474 0.0
H1588 H 0.31229 0.44383 0.5091 0.0
C1589 C 0.39538 0.40194 0.51774 0.0
C1590 C 0.39224 0.43494 0.52627 0.0
H1591 H 0.37291 0.35946 0.49732 0.0
H1592 H 0.41863 0.39011 0.5191 0.0
C1593 C 0.36171 0.44943 0.52443 0.0
C1594 C 0.86948 0.05126 0.51835 0.0
C1595 C 0.86676 0.08489 0.52384 0.0
H1596 H 0.90137 0.01139 0.50949 0.0
C1597 C 0.89483 0.10423 0.52618 0.0
H1598 H 0.84812 0.036 0.51565 0.0
C1599 C 0.92521 0.09019 0.52285 0.0
C1600 C 0.9279 0.0568 0.51591 0.0
H1601 H 0.89321 0.13034 0.52982 0.0
H1602 H 0.94657 0.10553 0.525 0.0
C1603 C 0.89983 0.03737 0.51399 0.0
C1604 C 0.67878 0.06943 0.24468 0.0
C1605 C 0.64657 0.07416 0.25434 0.0
H1606 H 0.72244 0.09213 0.2273 0.0
C1607 C 0.63193 0.10419 0.24816 0.0
H1608 H 0.69038 0.0462 0.24857 0.0
C1609 C 0.64978 0.12983 0.23499 0.0
C1610 C 0.6828 0.12617 0.22834 0.0
H1611 H 0.60681 0.10817 0.25423 0.0
H1612 H 0.63832 0.15332 0.23231 0.0
C1613 C 0.69692 0.09543 0.23187 0.0
C1614 C 0.62041 0.91285 0.00456 0.0
C1615 C 0.64903 0.92717 0.01683 0.0
H1616 H 0.57092 0.91918 -0.00841 0.0
C1617 C 0.64877 0.95998 0.02686 0.0
H1618 H 0.61976 0.88767 -0.00356 0.0
C1619 C 0.62049 0.97824 0.02399 0.0
C1620 C 0.59219 0.96409 0.01061 0.0
H1621 H 0.67054 0.97176 0.03609 0.0
H1622 H 0.6209 0.00349 0.03188 0.0
C1623 C 0.59245 0.93111 0.00126 0.0
C1624 C 0.31554 0.41583 0.24447 0.0
C1625 C 0.34441 0.41366 0.26287 0.0
H1626 H 0.28116 0.39115 0.21327 0.0
C1627 C 0.36089 0.38398 0.2636 0.0
H1628 H 0.30242 0.4385 0.24315 0.0
C1629 C 0.34931 0.35735 0.2457 0.0
C1630 C 0.32058 0.35947 0.22713 0.0
H1631 H 0.38347 0.38153 0.277 0.0
H1632 H 0.36276 0.33486 0.24684 0.0
C1633 C 0.30371 0.38895 0.22677 0.0
C1634 C 0.17955 0.56402 0.01919 0.0
C1635 C 0.1794 0.59678 0.00895 0.0
H1636 H 0.15123 0.52366 0.03742 0.0
C1637 C 0.15154 0.6153 0.01418 0.0
H1638 H 0.20093 0.54936 0.01608 0.0
C1639 C 0.12385 0.60107 0.02726 0.0
C1640 C 0.12299 0.56779 0.03508 0.0
H1641 H 0.15087 0.64091 0.00773 0.0
H1642 H 0.1024 0.61582 0.02949 0.0
C1643 C 0.15137 0.5495 0.03199 0.0
C1644 C 0.67681 0.89238 0.24282 0.0
C1645 C 0.64296 0.89361 0.24227 0.0
H1646 H 0.71846 0.86242 0.24816 0.0
C1647 C 0.62481 0.86466 0.24484 0.0
H1648 H 0.69132 0.91446 0.24153 0.0
C1649 C 0.64042 0.83484 0.24824 0.0
C1650 C 0.6742 0.83399 0.25056 0.0
H1651 H 0.59866 0.86522 0.24495 0.0
H1652 H 0.62619 0.81259 0.24982 0.0
C1653 C 0.6923 0.86282 0.24744 0.0
C1654 C 0.80635 0.09636 0.73962 0.0
C1655 C 0.83663 0.09595 0.75543 0.0
H1656 H 0.76278 0.1227 0.73086 0.0
C1657 C 0.84598 0.12261 0.7753 0.0
H1658 H 0.79825 0.07594 0.72456 0.0
C1659 C 0.82542 0.14894 0.77962 0.0
C1660 C 0.79507 0.14946 0.76391 0.0
H1661 H 0.86897 0.12291 0.78822 0.0
H1662 H 0.83365 0.16914 0.79489 0.0
C1663 C 0.78579 0.12289 0.74374 0.0
loop_
_geom_bond_atom_site_label_1
_geom_bond_atom_site_label_2
_geom_bond_distance
_geom_bond_site_symmetry_2
_ccdc_geom_bond_type
Co0 O1 2.249 . S
Co0 O2 2.112 . S
Co0 O4 1.976 1_655 S
Co0 O10 2.019 1_655 S
Co0 O12 2.140 . S
Co0 O13 2.235 1_655 S
O1 Co0 2.249 . S
O1 C8 1.247 . S
O2 Co0 2.112 . S
O2 C8 1.261 . S
C3 O12 1.247 1_455 S
C3 O13 1.272 . S
O4 Co0 1.976 1_455 S
O4 C9 1.259 . S
Co5 O6 2.061 . S
Co5 O11 2.052 . S
Co5 O13 2.135 . S
O6 Co5 2.061 . S
O6 C9 1.235 . S
C7 O10 1.238 . S
C7 O11 1.241 . S
C8 O1 1.247 . S
C8 O2 1.261 . S
C9 O4 1.259 . S
C9 O6 1.235 . S
O10 Co0 2.019 1_455 S
O10 C7 1.238 . S
O11 Co5 2.052 . S
O11 C7 1.241 . S
O12 Co0 2.140 . S
O12 C3 1.247 1_655 S
O13 Co0 2.235 1_455 S
O13 C3 1.272 . S
O13 Co5 2.135 . S
Co14 O15 2.216 . S
Co14 O16 2.091 . S
Co14 O18 2.004 1_455 S
Co14 O24 2.021 . S
Co14 O26 2.137 . S
Co14 O27 2.244 1_455 S
O15 Co14 2.216 . S
O15 C22 1.247 . S
O16 Co14 2.091 . S
O16 C22 1.261 . S
C17 O26 1.247 . S
C17 O27 1.272 1_455 S
O18 Co14 2.004 1_655 S
O18 C23 1.259 . S
Co19 O20 2.061 . S
Co19 O25 2.052 . S
Co19 O27 2.135 . S
O20 Co19 2.061 . S
O20 C23 1.235 . S
C21 O24 1.240 . S
C21 O25 1.237 1_455 S
C22 O15 1.247 . S
C22 O16 1.261 . S
C23 O18 1.259 . S
C23 O20 1.235 . S
O24 Co14 2.021 . S
O24 C21 1.240 . S
O25 Co19 2.052 . S
O25 C21 1.237 1_655 S
O26 Co14 2.137 . S
O26 C17 1.247 . S
O27 Co14 2.244 1_655 S
O27 C17 1.272 1_655 S
O27 Co19 2.135 . S
Co28 O29 2.216 . S
Co28 O30 2.091 . S
Co28 O32 2.004 . S
Co28 O38 2.021 . S
Co28 O40 2.137 . S
Co28 O41 2.244 . S
O29 Co28 2.216 . S
O29 C36 1.247 . S
O30 Co28 2.091 . S
O30 C36 1.261 . S
C31 O40 1.247 . S
C31 O41 1.272 . S
O32 Co28 2.004 . S
O32 C37 1.259 . S
Co33 O34 2.061 . S
Co33 O39 2.052 . S
Co33 O41 2.135 . S
O34 Co33 2.061 . S
O34 C37 1.235 . S
C35 O38 1.238 . S
C35 O39 1.241 . S
C36 O29 1.247 . S
C36 O30 1.261 . S
C37 O32 1.259 . S
C37 O34 1.235 . S
O38 Co28 2.021 . S
O38 C35 1.238 . S
O39 Co33 2.052 . S
O39 C35 1.241 . S
O40 Co28 2.137 . S
O40 C31 1.247 . S
O41 Co28 2.244 . S
O41 C31 1.272 . S
O41 Co33 2.135 . S
Co42 O43 2.216 . S
Co42 O44 2.091 . S
Co42 O46 2.004 . S
Co42 O52 2.021 . S
Co42 O54 2.137 . S
Co42 O55 2.244 . S
O43 Co42 2.216 . S
O43 C50 1.247 . S
O44 Co42 2.091 . S
O44 C50 1.261 . S
C45 O54 1.247 . S
C45 O55 1.272 . S
O46 Co42 2.004 . S
O46 C51 1.259 . S
Co47 O48 2.061 . S
Co47 O53 2.052 . S
Co47 O55 2.135 . S
O48 Co47 2.061 . S
O48 C51 1.235 . S
C49 O52 1.238 . S
C49 O53 1.241 . S
C50 O43 1.247 . S
C50 O44 1.261 . S
C51 O46 1.259 . S
C51 O48 1.235 . S
O52 Co42 2.021 . S
O52 C49 1.238 . S
O53 Co47 2.052 . S
O53 C49 1.241 . S
O54 Co42 2.137 . S
O54 C45 1.247 . S
O55 Co42 2.244 . S
O55 C45 1.272 . S
O55 Co47 2.135 . S
Co56 O57 2.216 1_545 S
Co56 O58 2.091 1_545 S
Co56 O60 2.004 . S
Co56 O66 2.021 . S
Co56 O68 2.137 . S
Co56 O69 2.244 . S
O57 Co56 2.216 1_565 S
O57 C64 1.247 . S
O58 Co56 2.091 1_565 S
O58 C64 1.261 . S
C59 O68 1.247 . S
C59 O69 1.272 . S
O60 Co56 2.004 . S
O60 C65 1.259 . S
Co61 O62 2.061 . S
Co61 O67 2.052 . S
Co61 O69 2.135 . S
O62 Co61 2.061 . S
O62 C65 1.235 . S
C63 O66 1.238 . S
C63 O67 1.241 . S
C64 O57 1.247 . S
C64 O58 1.261 . S
C65 O60 1.259 . S
C65 O62 1.235 . S
O66 Co56 2.021 . S
O66 C63 1.238 . S
O67 Co61 2.052 . S
O67 C63 1.241 . S
O68 Co56 2.137 . S
O68 C59 1.247 . S
O69 Co56 2.244 . S
O69 C59 1.272 . S
O69 Co61 2.135 . S
Co70 O71 2.216 . S
Co70 O72 2.091 . S
Co70 O74 2.004 . S
Co70 O80 2.021 . S
Co70 O82 2.137 . S
Co70 O83 2.244 . S
O71 Co70 2.216 . S
O71 C78 1.247 . S
O72 Co70 2.091 . S
O72 C78 1.261 . S
C73 O82 1.247 . S
C73 O83 1.272 . S
O74 Co70 2.004 . S
O74 C79 1.259 . S
Co75 O76 2.061 . S
Co75 O81 2.052 . S
Co75 O83 2.135 . S
O76 Co75 2.061 . S
O76 C79 1.235 . S
C77 O80 1.238 . S
C77 O81 1.241 . S
C78 O71 1.247 . S
C78 O72 1.261 . S
C79 O74 1.259 . S
C79 O76 1.235 . S
O80 Co70 2.021 . S
O80 C77 1.238 . S
O81 Co75 2.052 . S
O81 C77 1.241 . S
O82 Co70 2.137 . S
O82 C73 1.247 . S
O83 Co70 2.244 . S
O83 C73 1.272 . S
O83 Co75 2.135 . S
Co84 O85 2.216 . S
Co84 O86 2.091 . S
Co84 O88 2.004 1_545 S
Co84 O94 2.021 . S
Co84 O96 2.137 . S
Co84 O97 2.244 1_545 S
O85 Co84 2.216 . S
O85 C92 1.247 . S
O86 Co84 2.091 . S
O86 C92 1.261 . S
C87 O96 1.242 1_565 S
C87 O97 1.276 . S
O88 Co84 2.004 1_565 S
O88 C93 1.259 . S
Co89 O90 2.061 . S
Co89 O95 2.052 . S
Co89 O97 2.135 . S
O90 Co89 2.061 . S
O90 C93 1.235 . S
C91 O94 1.238 1_565 S
C91 O95 1.241 . S
C92 O85 1.247 . S
C92 O86 1.261 . S
C93 O88 1.259 . S
C93 O90 1.235 . S
O94 Co84 2.021 . S
O94 C91 1.238 1_545 S
O95 Co89 2.052 . S
O95 C91 1.241 . S
O96 Co84 2.137 . S
O96 C87 1.242 1_545 S
O97 Co84 2.244 1_565 S
O97 C87 1.276 . S
O97 Co89 2.135 . S
Co98 O99 2.216 . S
Co98 O100 2.091 . S
Co98 O102 2.004 . S
Co98 O108 2.021 . S
Co98 O110 2.137 1_554 S
Co98 O111 2.244 1_554 S
O99 Co98 2.216 . S
O99 C106 1.247 . S
O100 Co98 2.091 . S
O100 C106 1.261 . S
C101 O110 1.247 . S
C101 O111 1.272 . S
O102 Co98 2.004 . S
O102 C107 1.259 . S
Co103 O104 2.061 . S
Co103 O109 2.052 . S
Co103 O111 2.135 1_554 S
O104 Co103 2.061 . S
O104 C107 1.235 . S
C105 O108 1.238 . S
C105 O109 1.241 . S
C106 O99 1.247 . S
C106 O100 1.261 . S
C107 O102 1.259 . S
C107 O104 1.235 . S
O108 Co98 2.021 . S
O108 C105 1.238 . S
O109 Co103 2.052 . S
O109 C105 1.241 . S
O110 Co98 2.137 1_556 S
O110 C101 1.247 . S
O111 Co98 2.244 1_556 S
O111 C101 1.272 . S
O111 Co103 2.135 1_556 S
Co112 O113 2.216 . S
Co112 O114 2.091 . S
Co112 O116 2.004 . S
Co112 O122 2.021 . S
Co112 O124 2.137 1_554 S
Co112 O125 2.244 1_554 S
O113 Co112 2.216 . S
O113 C120 1.247 . S
O114 Co112 2.091 . S
O114 C120 1.261 . S
C115 O124 1.247 . S
C115 O125 1.272 . S
O116 Co112 2.004 . S
O116 C121 1.259 . S
Co117 O118 2.061 . S
Co117 O123 2.052 . S
Co117 O125 2.135 1_554 S
O118 Co117 2.061 . S
O118 C121 1.235 . S
C119 O122 1.238 . S
C119 O123 1.241 . S
C120 O113 1.247 . S
C120 O114 1.261 . S
C121 O116 1.259 . S
C121 O118 1.235 . S
O122 Co112 2.021 . S
O122 C119 1.238 . S
O123 Co117 2.052 . S
O123 C119 1.241 . S
O124 Co112 2.137 1_556 S
O124 C115 1.247 . S
O125 Co112 2.244 1_556 S
O125 C115 1.272 . S
O125 Co117 2.135 1_556 S
Co126 O127 2.216 . S
Co126 O128 2.091 . S
Co126 O130 2.004 . S
Co126 O136 2.021 . S
Co126 O138 2.137 . S
Co126 O139 2.244 . S
O127 Co126 2.216 . S
O127 C134 1.247 . S
O128 Co126 2.091 . S
O128 C134 1.261 . S
C129 O138 1.247 . S
C129 O139 1.272 . S
O130 Co126 2.004 . S
O130 C135 1.259 . S
Co131 O132 2.061 . S
Co131 O137 2.052 . S
Co131 O139 2.135 . S
O132 Co131 2.061 . S
O132 C135 1.235 . S
C133 O136 1.238 . S
C133 O137 1.241 . S
C134 O127 1.247 . S
C134 O128 1.261 . S
C135 O130 1.259 . S
C135 O132 1.235 . S
O136 Co126 2.021 . S
O136 C133 1.238 . S
O137 Co131 2.052 . S
O137 C133 1.241 . S
O138 Co126 2.137 . S
O138 C129 1.247 . S
O139 Co126 2.244 . S
O139 C129 1.272 . S
O139 Co131 2.135 . S
Co140 O141 2.216 . S
Co140 O142 2.091 . S
Co140 O144 2.004 . S
Co140 O150 2.021 . S
Co140 O152 2.137 . S
Co140 O153 2.244 . S
O141 Co140 2.216 . S
O141 C148 1.247 . S
O142 Co140 2.091 . S
O142 C148 1.261 . S
C143 O152 1.247 . S
C143 O153 1.272 . S
O144 Co140 2.004 . S
O144 C149 1.259 . S
Co145 O146 2.061 . S
Co145 O151 2.052 . S
Co145 O153 2.135 . S
O146 Co145 2.061 . S
O146 C149 1.235 . S
C147 O150 1.238 . S
C147 O151 1.241 . S
C148 O141 1.247 . S
C148 O142 1.261 . S
C149 O144 1.259 . S
C149 O146 1.235 . S
O150 Co140 2.021 . S
O150 C147 1.238 . S
O151 Co145 2.052 . S
O151 C147 1.241 . S
O152 Co140 2.137 . S
O152 C143 1.247 . S
O153 Co140 2.244 . S
O153 C143 1.272 . S
O153 Co145 2.135 . S
Co154 O155 2.216 . S
Co154 O156 2.091 . S
Co154 O158 2.004 . S
Co154 O164 2.021 . S
Co154 O166 2.137 . S
Co154 O167 2.244 . S
O155 Co154 2.216 . S
O155 C162 1.247 . S
O156 Co154 2.091 . S
O156 C162 1.261 . S
C157 O166 1.247 . S
C157 O167 1.272 . S
O158 Co154 2.004 . S
O158 C163 1.259 . S
Co159 O160 2.061 . S
Co159 O165 2.052 . S
Co159 O167 2.135 . S
O160 Co159 2.061 . S
O160 C163 1.235 . S
C161 O164 1.238 . S
C161 O165 1.241 . S
C162 O155 1.247 . S
C162 O156 1.261 . S
C163 O158 1.259 . S
C163 O160 1.235 . S
O164 Co154 2.021 . S
O164 C161 1.238 . S
O165 Co159 2.052 . S
O165 C161 1.241 . S
O166 Co154 2.137 . S
O166 C157 1.247 . S
O167 Co154 2.244 . S
O167 C157 1.272 . S
O167 Co159 2.135 . S
Co168 O169 2.216 . S
Co168 O170 2.091 . S
Co168 O172 2.004 1_455 S
Co168 O178 2.021 . S
Co168 O180 2.137 . S
Co168 O181 2.244 1_455 S
O169 Co168 2.216 . S
O169 C176 1.247 . S
O170 Co168 2.091 . S
O170 C176 1.261 . S
C171 O180 1.247 . S
C171 O181 1.272 1_455 S
O172 Co168 2.004 1_655 S
O172 C177 1.259 . S
Co173 O174 2.061 . S
Co173 O179 2.052 . S
Co173 O181 2.135 . S
O174 Co173 2.061 . S
O174 C177 1.235 . S
C175 O178 1.231 1_655 S
C175 O179 1.253 . S
C176 O169 1.247 . S
C176 O170 1.261 . S
C177 O172 1.259 . S
C177 O174 1.235 . S
O178 Co168 2.021 . S
O178 C175 1.231 1_455 S
O179 Co173 2.052 . S
O179 C175 1.253 . S
O180 Co168 2.137 . S
O180 C171 1.247 . S
O181 Co168 2.244 1_655 S
O181 C171 1.272 1_655 S
O181 Co173 2.135 . S
Co182 O183 2.221 . S
Co182 O184 2.095 . S
Co182 O186 2.000 1_655 S
Co182 O192 2.020 1_655 S
Co182 O194 2.138 . S
Co182 O195 2.242 1_655 S
O183 Co182 2.221 . S
O183 C190 1.247 . S
O184 Co182 2.095 . S
O184 C190 1.261 . S
C185 O194 1.247 1_455 S
C185 O195 1.272 . S
O186 Co182 2.000 1_455 S
O186 C191 1.259 . S
Co187 O188 2.061 . S
Co187 O193 2.052 . S
Co187 O195 2.135 . S
O188 Co187 2.061 . S
O188 C191 1.235 . S
C189 O192 1.238 . S
C189 O193 1.241 . S
C190 O183 1.247 . S
C190 O184 1.261 . S
C191 O186 1.259 . S
C191 O188 1.235 . S
O192 Co182 2.020 1_455 S
O192 C189 1.238 . S
O193 Co187 2.052 . S
O193 C189 1.241 . S
O194 Co182 2.138 . S
O194 C185 1.247 1_655 S
O195 Co182 2.242 1_455 S
O195 C185 1.272 . S
O195 Co187 2.135 . S
Co196 O197 2.216 . S
Co196 O198 2.091 . S
Co196 O200 2.004 . S
Co196 O206 2.021 . S
Co196 O208 2.137 . S
Co196 O209 2.244 . S
O197 Co196 2.216 . S
O197 C204 1.247 . S
O198 Co196 2.091 . S
O198 C204 1.261 . S
C199 O208 1.247 . S
C199 O209 1.272 . S
O200 Co196 2.004 . S
O200 C205 1.259 . S
Co201 O202 2.061 . S
Co201 O207 2.052 . S
Co201 O209 2.135 . S
O202 Co201 2.061 . S
O202 C205 1.235 . S
C203 O206 1.238 . S
C203 O207 1.241 . S
C204 O197 1.247 . S
C204 O198 1.261 . S
C205 O200 1.259 . S
C205 O202 1.235 . S
O206 Co196 2.021 . S
O206 C203 1.238 . S
O207 Co201 2.052 . S
O207 C203 1.241 . S
O208 Co196 2.137 . S
O208 C199 1.247 . S
O209 Co196 2.244 . S
O209 C199 1.272 . S
O209 Co201 2.135 . S
Co210 O211 2.216 . S
Co210 O212 2.091 . S
Co210 O214 2.004 . S
Co210 O220 2.021 . S
Co210 O222 2.137 . S
Co210 O223 2.244 . S
O211 Co210 2.216 . S
O211 C218 1.247 . S
O212 Co210 2.091 . S
O212 C218 1.261 . S
C213 O222 1.247 . S
C213 O223 1.272 . S
O214 Co210 2.004 . S
O214 C219 1.259 . S
Co215 O216 2.061 . S
Co215 O221 2.052 . S
Co215 O223 2.135 . S
O216 Co215 2.061 . S
O216 C219 1.235 . S
C217 O220 1.238 . S
C217 O221 1.241 . S
C218 O211 1.247 . S
C218 O212 1.261 . S
C219 O214 1.259 . S
C219 O216 1.235 . S
O220 Co210 2.021 . S
O220 C217 1.238 . S
O221 Co215 2.052 . S
O221 C217 1.241 . S
O222 Co210 2.137 . S
O222 C213 1.247 . S
O223 Co210 2.244 . S
O223 C213 1.272 . S
O223 Co215 2.135 . S
Co224 O225 2.216 . S
Co224 O226 2.091 . S
Co224 O228 2.004 1_545 S
Co224 O234 2.021 . S
Co224 O236 2.137 . S
Co224 O237 2.244 . S
O225 Co224 2.216 . S
O225 C232 1.247 . S
O226 Co224 2.091 . S
O226 C232 1.261 . S
C227 O236 1.247 . S
C227 O237 1.272 . S
O228 Co224 2.004 1_565 S
O228 C233 1.259 . S
Co229 O230 2.061 . S
Co229 O235 2.052 . S
Co229 O237 2.135 1_565 S
O230 Co229 2.061 . S
O230 C233 1.235 . S
C231 O234 1.238 . S
C231 O235 1.241 1_545 S
C232 O225 1.247 . S
C232 O226 1.261 . S
C233 O228 1.259 . S
C233 O230 1.235 . S
O234 Co224 2.021 . S
O234 C231 1.238 . S
O235 Co229 2.052 . S
O235 C231 1.241 1_565 S
O236 Co224 2.137 . S
O236 C227 1.247 . S
O237 Co224 2.244 . S
O237 C227 1.272 . S
O237 Co229 2.135 1_545 S
Co238 O239 2.216 . S
Co238 O240 2.091 . S
Co238 O242 2.004 . S
Co238 O248 2.021 . S
Co238 O250 2.137 . S
Co238 O251 2.244 . S
O239 Co238 2.216 . S
O239 C246 1.247 . S
O240 Co238 2.091 . S
O240 C246 1.261 . S
C241 O250 1.247 . S
C241 O251 1.272 . S
O242 Co238 2.004 . S
O242 C247 1.259 . S
Co243 O244 2.061 . S
Co243 O249 2.052 . S
Co243 O251 2.135 . S
O244 Co243 2.061 . S
O244 C247 1.235 . S
C245 O248 1.238 . S
C245 O249 1.241 . S
C246 O239 1.247 . S
C246 O240 1.261 . S
C247 O242 1.259 . S
C247 O244 1.235 . S
O248 Co238 2.021 . S
O248 C245 1.238 . S
O249 Co243 2.052 . S
O249 C245 1.241 . S
O250 Co238 2.137 . S
O250 C241 1.247 . S
O251 Co238 2.244 . S
O251 C241 1.272 . S
O251 Co243 2.135 . S
Co252 O253 2.216 . S
Co252 O254 2.091 . S
Co252 O256 2.004 1_565 S
Co252 O262 2.021 . S
Co252 O264 2.137 . S
Co252 O265 2.244 1_565 S
O253 Co252 2.216 . S
O253 C260 1.247 . S
O254 Co252 2.091 . S
O254 C260 1.261 . S
C255 O264 1.247 1_545 S
C255 O265 1.272 . S
O256 Co252 2.004 1_545 S
O256 C261 1.259 . S
Co257 O258 2.061 . S
Co257 O263 2.052 . S
Co257 O265 2.135 . S
O258 Co257 2.061 . S
O258 C261 1.235 . S
C259 O262 1.238 1_545 S
C259 O263 1.241 . S
C260 O253 1.247 . S
C260 O254 1.261 . S
C261 O256 1.259 . S
C261 O258 1.235 . S
O262 Co252 2.021 . S
O262 C259 1.238 1_565 S
O263 Co257 2.052 . S
O263 C259 1.241 . S
O264 Co252 2.137 . S
O264 C255 1.247 1_565 S
O265 Co252 2.244 1_545 S
O265 C255 1.272 . S
O265 Co257 2.135 . S
Co266 O267 2.216 . S
Co266 O268 2.091 1_556 S
Co266 O270 2.004 . S
Co266 O276 2.021 1_556 S
Co266 O278 2.137 . S
Co266 O279 2.244 . S
O267 Co266 2.216 . S
O267 C274 1.247 1_556 S
O268 Co266 2.091 1_554 S
O268 C274 1.261 . S
C269 O278 1.247 . S
C269 O279 1.272 . S
O270 Co266 2.004 . S
O270 C275 1.259 1_556 S
Co271 O272 2.064 . S
Co271 O277 2.078 . S
Co271 O279 2.117 1_554 S
O272 Co271 2.064 . S
O272 C275 1.235 . S
C273 O276 1.238 . S
C273 O277 1.241 . S
C274 O267 1.247 1_554 S
C274 O268 1.261 . S
C275 O270 1.259 1_554 S
C275 O272 1.235 . S
O276 Co266 2.021 1_554 S
O276 C273 1.238 . S
O277 Co271 2.078 . S
O277 C273 1.241 . S
O278 Co266 2.137 . S
O278 C269 1.247 . S
O279 Co266 2.244 . S
O279 C269 1.272 . S
O279 Co271 2.117 1_556 S
Co280 O281 2.216 . S
Co280 O282 2.091 1_556 S
Co280 O284 2.004 . S
Co280 O290 2.021 1_556 S
Co280 O292 2.137 . S
Co280 O293 2.244 . S
O281 Co280 2.216 . S
O281 C288 1.247 1_556 S
O282 Co280 2.091 1_554 S
O282 C288 1.261 . S
C283 O292 1.247 . S
C283 O293 1.272 . S
O284 Co280 2.004 . S
O284 C289 1.255 1_556 S
Co285 O286 2.061 . S
Co285 O291 2.053 . S
Co285 O293 2.134 1_554 S
O286 Co285 2.061 . S
O286 C289 1.238 . S
C287 O290 1.238 . S
C287 O291 1.241 . S
C288 O281 1.247 1_554 S
C288 O282 1.261 . S
C289 O284 1.255 1_554 S
C289 O286 1.238 . S
O290 Co280 2.021 1_554 S
O290 C287 1.238 . S
O291 Co285 2.053 . S
O291 C287 1.241 . S
O292 Co280 2.137 . S
O292 C283 1.247 . S
O293 Co280 2.244 . S
O293 C283 1.272 . S
O293 Co285 2.134 1_556 S
Co294 O295 2.216 . S
Co294 O296 2.091 . S
Co294 O298 2.004 . S
Co294 O304 2.021 . S
Co294 O306 2.137 . S
Co294 O307 2.244 . S
O295 Co294 2.216 . S
O295 C302 1.247 . S
O296 Co294 2.091 . S
O296 C302 1.261 . S
C297 O306 1.247 . S
C297 O307 1.272 . S
O298 Co294 2.004 . S
O298 C303 1.259 . S
Co299 O300 2.061 . S
Co299 O305 2.052 . S
Co299 O307 2.135 . S
O300 Co299 2.061 . S
O300 C303 1.235 . S
C301 O304 1.238 . S
C301 O305 1.241 . S
C302 O295 1.247 . S
C302 O296 1.261 . S
C303 O298 1.259 . S
C303 O300 1.235 . S
O304 Co294 2.021 . S
O304 C301 1.238 . S
O305 Co299 2.052 . S
O305 C301 1.241 . S
O306 Co294 2.137 . S
O306 C297 1.247 . S
O307 Co294 2.244 . S
O307 C297 1.272 . S
O307 Co299 2.135 . S
Co308 O309 2.216 . S
Co308 O310 2.091 . S
Co308 O312 2.004 . S
Co308 O318 2.021 . S
Co308 O320 2.137 . S
Co308 O321 2.244 . S
O309 Co308 2.216 . S
O309 C316 1.247 . S
O310 Co308 2.091 . S
O310 C316 1.261 . S
C311 O320 1.247 . S
C311 O321 1.272 . S
O312 Co308 2.004 . S
O312 C317 1.259 . S
Co313 O314 2.061 . S
Co313 O319 2.052 . S
Co313 O321 2.135 . S
O314 Co313 2.061 . S
O314 C317 1.235 . S
C315 O318 1.238 . S
C315 O319 1.241 . S
C316 O309 1.247 . S
C316 O310 1.261 . S
C317 O312 1.259 . S
C317 O314 1.235 . S
O318 Co308 2.021 . S
O318 C315 1.238 . S
O319 Co313 2.052 . S
O319 C315 1.241 . S
O320 Co308 2.137 . S
O320 C311 1.247 . S
O321 Co308 2.244 . S
O321 C311 1.272 . S
O321 Co313 2.135 . S
Co322 O323 2.216 . S
Co322 O324 2.091 . S
Co322 O326 2.004 . S
Co322 O332 2.021 . S
Co322 O334 2.137 . S
Co322 O335 2.244 . S
O323 Co322 2.216 . S
O323 C330 1.247 . S
O324 Co322 2.091 . S
O324 C330 1.261 . S
C325 O334 1.247 . S
C325 O335 1.272 . S
O326 Co322 2.004 . S
O326 C331 1.259 . S
Co327 O328 2.061 . S
Co327 O333 2.052 . S
Co327 O335 2.135 . S
O328 Co327 2.061 . S
O328 C331 1.235 . S
C329 O332 1.238 . S
C329 O333 1.241 . S
C330 O323 1.247 . S
C330 O324 1.261 . S
C331 O326 1.259 . S
C331 O328 1.235 . S
O332 Co322 2.021 . S
O332 C329 1.238 . S
O333 Co327 2.052 . S
O333 C329 1.241 . S
O334 Co322 2.137 . S
O334 C325 1.247 . S
O335 Co322 2.244 . S
O335 C325 1.272 . S
O335 Co327 2.135 . S
O336 Zn337 1.953 1_554 S
O336 C352 1.225 1_455 S
Zn337 O336 1.953 1_556 S
Zn337 O338 1.955 1_556 S
Zn337 O344 1.919 . S
Zn337 O349 1.924 1_455 S
O338 Zn337 1.955 1_554 S
O338 Zn339 1.937 1_545 S
O338 Zn340 1.939 1_455 S
O338 Zn341 1.936 1_444 S
Zn339 O338 1.937 1_565 S
Zn339 O342 1.933 . S
Zn339 O345 1.941 1_565 S
Zn339 O346 1.965 . S
Zn340 O338 1.939 1_655 S
Zn340 O347 1.938 . S
Zn340 O348 1.906 1_545 S
Zn340 O358 1.953 . S
Zn341 O338 1.936 1_666 S
Zn341 O343 1.932 . S
Zn341 O350 1.977 1_556 S
Zn341 O351 1.910 1_565 S
O342 Zn339 1.933 . S
O342 C353 1.226 1_554 S
O343 Zn341 1.932 . S
O343 C353 1.307 1_655 S
O344 Zn337 1.919 . S
O344 C355 1.263 . S
O345 Zn339 1.941 1_545 S
O345 C355 1.259 1_554 S
O346 Zn339 1.965 . S
O346 C354 1.303 . S
O347 Zn340 1.938 . S
O347 C354 1.247 1_645 S
O348 Zn340 1.906 1_565 S
O348 C356 1.304 . S
O349 Zn337 1.924 1_655 S
O349 C357 1.311 . S
O350 Zn341 1.977 1_554 S
O350 C356 1.272 . S
O351 Zn341 1.910 1_545 S
O351 C357 1.231 . S
C352 O336 1.225 1_655 S
C352 O358 1.298 . S
C353 O342 1.226 1_556 S
C353 O343 1.307 1_455 S
C354 O346 1.303 . S
C354 O347 1.247 1_465 S
C355 O344 1.263 . S
C355 O345 1.259 1_556 S
C356 O348 1.304 . S
C356 O350 1.272 . S
C357 O349 1.311 . S
C357 O351 1.231 . S
O358 Zn340 1.953 . S
O358 C352 1.298 . S
O359 Zn360 1.953 . S
O359 C375 1.225 . S
Zn360 O359 1.953 . S
Zn360 O361 1.949 . S
Zn360 O367 1.919 . S
Zn360 O372 1.924 . S
O361 Zn360 1.949 . S
O361 Zn362 1.923 . S
O361 Zn363 1.950 . S
O361 Zn364 1.945 . S
Zn362 O361 1.923 . S
Zn362 O365 1.933 . S
Zn362 O368 1.941 . S
Zn362 O369 1.965 . S
Zn363 O361 1.950 . S
Zn363 O370 1.938 . S
Zn363 O371 1.906 . S
Zn363 O381 1.953 . S
Zn364 O361 1.945 . S
Zn364 O366 1.932 . S
Zn364 O373 1.977 . S
Zn364 O374 1.910 . S
O365 Zn362 1.933 . S
O365 C376 1.226 . S
O366 Zn364 1.932 . S
O366 C376 1.307 . S
O367 Zn360 1.919 . S
O367 C378 1.253 . S
O368 Zn362 1.941 . S
O368 C378 1.283 . S
O369 Zn362 1.965 . S
O369 C377 1.303 . S
O370 Zn363 1.938 . S
O370 C377 1.247 . S
O371 Zn363 1.906 . S
O371 C379 1.304 . S
O372 Zn360 1.924 . S
O372 C380 1.311 . S
O373 Zn364 1.977 . S
O373 C379 1.272 . S
O374 Zn364 1.910 . S
O374 C380 1.231 . S
C375 O359 1.225 . S
C375 O381 1.298 . S
C376 O365 1.226 . S
C376 O366 1.307 . S
C377 O369 1.303 . S
C377 O370 1.247 . S
C378 O367 1.253 . S
C378 O368 1.283 . S
C379 O371 1.304 . S
C379 O373 1.272 . S
C380 O372 1.311 . S
C380 O374 1.231 . S
O381 Zn363 1.953 . S
O381 C375 1.298 . S
O382 Zn383 1.953 . S
O382 C398 1.225 . S
Zn383 O382 1.953 . S
Zn383 O384 1.949 1_565 S
Zn383 O390 1.919 . S
Zn383 O395 1.924 . S
O384 Zn383 1.949 1_545 S
O384 Zn385 1.923 . S
O384 Zn386 1.950 . S
O384 Zn387 1.945 . S
Zn385 O384 1.923 . S
Zn385 O388 1.933 . S
Zn385 O391 1.941 . S
Zn385 O392 1.965 . S
Zn386 O384 1.950 . S
Zn386 O393 1.938 . S
Zn386 O394 1.906 . S
Zn386 O404 1.953 1_545 S
Zn387 O384 1.945 . S
Zn387 O389 1.932 . S
Zn387 O396 1.977 . S
Zn387 O397 1.910 . S
O388 Zn385 1.933 . S
O388 C399 1.226 . S
O389 Zn387 1.932 . S
O389 C399 1.307 . S
O390 Zn383 1.919 . S
O390 C401 1.253 . S
O391 Zn385 1.941 . S
O391 C401 1.283 1_545 S
O392 Zn385 1.965 . S
O392 C400 1.303 . S
O393 Zn386 1.938 . S
O393 C400 1.247 . S
O394 Zn386 1.906 . S
O394 C402 1.304 . S
O395 Zn383 1.924 . S
O395 C403 1.311 . S
O396 Zn387 1.977 . S
O396 C402 1.272 . S
O397 Zn387 1.910 . S
O397 C403 1.231 1_545 S
C398 O382 1.225 . S
C398 O404 1.298 . S
C399 O388 1.226 . S
C399 O389 1.307 . S
C400 O392 1.303 . S
C400 O393 1.247 . S
C401 O390 1.253 . S
C401 O391 1.283 1_565 S
C402 O394 1.304 . S
C402 O396 1.272 . S
C403 O395 1.311 . S
C403 O397 1.231 1_565 S
O404 Zn386 1.953 1_565 S
O404 C398 1.298 . S
O405 Zn406 1.953 . S
O405 C421 1.225 . S
Zn406 O405 1.953 . S
Zn406 O407 1.949 . S
Zn406 O413 1.919 . S
Zn406 O418 1.924 . S
O407 Zn406 1.949 . S
O407 Zn408 1.923 . S
O407 Zn409 1.950 . S
O407 Zn410 1.945 . S
Zn408 O407 1.923 . S
Zn408 O411 1.933 . S
Zn408 O414 1.941 . S
Zn408 O415 1.965 . S
Zn409 O407 1.950 . S
Zn409 O416 1.938 . S
Zn409 O417 1.906 . S
Zn409 O427 1.953 . S
Zn410 O407 1.945 . S
Zn410 O412 1.932 . S
Zn410 O419 1.977 . S
Zn410 O420 1.910 . S
O411 Zn408 1.933 . S
O411 C422 1.226 . S
O412 Zn410 1.932 . S
O412 C422 1.307 . S
O413 Zn406 1.919 . S
O413 C424 1.253 . S
O414 Zn408 1.941 . S
O414 C424 1.283 . S
O415 Zn408 1.965 . S
O415 C423 1.303 . S
O416 Zn409 1.938 . S
O416 C423 1.247 . S
O417 Zn409 1.906 . S
O417 C425 1.304 . S
O418 Zn406 1.924 . S
O418 C426 1.311 . S
O419 Zn410 1.977 . S
O419 C425 1.272 . S
O420 Zn410 1.910 . S
O420 C426 1.231 . S
C421 O405 1.225 . S
C421 O427 1.298 . S
C422 O411 1.226 . S
C422 O412 1.307 . S
C423 O415 1.303 . S
C423 O416 1.247 . S
C424 O413 1.253 . S
C424 O414 1.283 . S
C425 O417 1.304 . S
C425 O419 1.272 . S
C426 O418 1.311 . S
C426 O420 1.231 . S
O427 Zn409 1.953 . S
O427 C421 1.298 . S
O428 Zn429 1.953 1_445 S
O428 C444 1.225 . S
Zn429 O428 1.953 1_665 S
Zn429 O430 1.949 1_665 S
Zn429 O436 1.919 . S
Zn429 O441 1.924 1_565 S
O430 Zn429 1.949 1_445 S
O430 Zn431 1.923 1_545 S
O430 Zn432 1.950 . S
O430 Zn433 1.945 1_455 S
Zn431 O430 1.923 1_565 S
Zn431 O434 1.933 . S
Zn431 O437 1.941 . S
Zn431 O438 1.965 . S
Zn432 O430 1.950 . S
Zn432 O439 1.938 . S
Zn432 O440 1.906 . S
Zn432 O450 1.953 . S
Zn433 O430 1.945 1_655 S
Zn433 O435 1.932 . S
Zn433 O442 1.977 . S
Zn433 O443 1.910 . S
O434 Zn431 1.933 . S
O434 C445 1.226 1_455 S
O435 Zn433 1.932 . S
O435 C445 1.307 1_545 S
O436 Zn429 1.919 . S
O436 C447 1.253 . S
O437 Zn431 1.941 . S
O437 C447 1.283 1_455 S
O438 Zn431 1.965 . S
O438 C446 1.303 . S
O439 Zn432 1.938 . S
O439 C446 1.247 1_545 S
O440 Zn432 1.906 . S
O440 C448 1.304 . S
O441 Zn429 1.924 1_545 S
O441 C449 1.311 . S
O442 Zn433 1.977 . S
O442 C448 1.272 1_655 S
O443 Zn433 1.910 . S
O443 C449 1.231 . S
C444 O428 1.225 . S
C444 O450 1.298 . S
C445 O434 1.226 1_655 S
C445 O435 1.307 1_565 S
C446 O438 1.303 . S
C446 O439 1.247 1_565 S
C447 O436 1.253 . S
C447 O437 1.283 1_655 S
C448 O440 1.304 . S
C448 O442 1.272 1_455 S
C449 O441 1.311 . S
C449 O443 1.231 . S
O450 Zn432 1.953 . S
O450 C444 1.298 . S
O451 Zn452 1.953 . S
O451 C467 1.225 . S
Zn452 O451 1.953 . S
Zn452 O453 1.949 . S
Zn452 O459 1.919 . S
Zn452 O464 1.924 . S
O453 Zn452 1.949 . S
O453 Zn454 1.923 . S
O453 Zn455 1.950 . S
O453 Zn456 1.945 . S
Zn454 O453 1.923 . S
Zn454 O457 1.933 . S
Zn454 O460 1.941 . S
Zn454 O461 1.965 . S
Zn455 O453 1.950 . S
Zn455 O462 1.938 . S
Zn455 O463 1.906 . S
Zn455 O473 1.953 . S
Zn456 O453 1.945 . S
Zn456 O458 1.932 . S
Zn456 O465 1.977 . S
Zn456 O466 1.910 . S
O457 Zn454 1.933 . S
O457 C468 1.226 . S
O458 Zn456 1.932 . S
O458 C468 1.307 . S
O459 Zn452 1.919 . S
O459 C470 1.253 . S
O460 Zn454 1.941 . S
O460 C470 1.283 . S
O461 Zn454 1.965 . S
O461 C469 1.303 . S
O462 Zn455 1.938 . S
O462 C469 1.247 . S
O463 Zn455 1.906 . S
O463 C471 1.304 . S
O464 Zn452 1.924 . S
O464 C472 1.311 . S
O465 Zn456 1.977 . S
O465 C471 1.272 . S
O466 Zn456 1.910 . S
O466 C472 1.231 . S
C467 O451 1.225 . S
C467 O473 1.298 . S
C468 O457 1.226 . S
C468 O458 1.307 . S
C469 O461 1.303 . S
C469 O462 1.247 . S
C470 O459 1.253 . S
C470 O460 1.283 . S
C471 O463 1.304 . S
C471 O465 1.272 . S
C472 O464 1.311 . S
C472 O466 1.231 . S
O473 Zn455 1.953 . S
O473 C467 1.298 . S
O474 Zn475 1.953 . S
O474 C490 1.225 . S
Zn475 O474 1.953 . S
Zn475 O476 1.949 . S
Zn475 O482 1.919 1_545 S
Zn475 O487 1.924 . S
O476 Zn475 1.949 . S
O476 Zn477 1.923 1_544 S
O476 Zn478 1.950 . S
O476 Zn479 1.945 1_554 S
Zn477 O476 1.923 1_566 S
Zn477 O480 1.933 . S
Zn477 O483 1.941 . S
Zn477 O484 1.965 1_556 S
Zn478 O476 1.950 . S
Zn478 O485 1.938 1_545 S
Zn478 O486 1.906 . S
Zn478 O496 1.953 . S
Zn479 O476 1.945 1_556 S
Zn479 O481 1.932 . S
Zn479 O488 1.977 1_556 S
Zn479 O489 1.910 . S
O480 Zn477 1.933 . S
O480 C491 1.226 . S
O481 Zn479 1.932 . S
O481 C491 1.307 1_545 S
O482 Zn475 1.919 1_565 S
O482 C493 1.253 1_554 S
O483 Zn477 1.941 . S
O483 C493 1.283 . S
O484 Zn477 1.965 1_554 S
O484 C492 1.303 . S
O485 Zn478 1.938 1_565 S
O485 C492 1.247 . S
O486 Zn478 1.906 . S
O486 C494 1.304 . S
O487 Zn475 1.924 . S
O487 C495 1.311 1_554 S
O488 Zn479 1.977 1_554 S
O488 C494 1.272 . S
O489 Zn479 1.910 . S
O489 C495 1.231 . S
C490 O474 1.225 . S
C490 O496 1.298 . S
C491 O480 1.226 . S
C491 O481 1.307 1_565 S
C492 O484 1.303 . S
C492 O485 1.247 . S
C493 O482 1.253 1_556 S
C493 O483 1.283 . S
C494 O486 1.304 . S
C494 O488 1.272 . S
C495 O487 1.311 1_556 S
C495 O489 1.231 . S
O496 Zn478 1.953 . S
O496 C490 1.298 . S
O497 Zn498 1.953 . S
O497 C513 1.225 . S
Zn498 O497 1.953 . S
Zn498 O499 1.949 . S
Zn498 O505 1.919 . S
Zn498 O510 1.924 . S
O499 Zn498 1.949 . S
O499 Zn500 1.923 . S
O499 Zn501 1.950 . S
O499 Zn502 1.945 . S
Zn500 O499 1.923 . S
Zn500 O503 1.933 . S
Zn500 O506 1.941 . S
Zn500 O507 1.965 . S
Zn501 O499 1.950 . S
Zn501 O508 1.938 . S
Zn501 O509 1.906 . S
Zn501 O519 1.953 . S
Zn502 O499 1.945 . S
Zn502 O504 1.932 . S
Zn502 O511 1.977 . S
Zn502 O512 1.910 . S
O503 Zn500 1.933 . S
O503 C514 1.226 . S
O504 Zn502 1.932 . S
O504 C514 1.307 . S
O505 Zn498 1.919 . S
O505 C516 1.253 . S
O506 Zn500 1.941 . S
O506 C516 1.283 . S
O507 Zn500 1.965 . S
O507 C515 1.303 . S
O508 Zn501 1.938 . S
O508 C515 1.247 . S
O509 Zn501 1.906 . S
O509 C517 1.304 . S
O510 Zn498 1.924 . S
O510 C518 1.311 . S
O511 Zn502 1.977 . S
O511 C517 1.272 . S
O512 Zn502 1.910 . S
O512 C518 1.231 . S
C513 O497 1.225 . S
C513 O519 1.298 . S
C514 O503 1.226 . S
C514 O504 1.307 . S
C515 O507 1.303 . S
C515 O508 1.247 . S
C516 O505 1.253 . S
C516 O506 1.283 . S
C517 O509 1.304 . S
C517 O511 1.272 . S
C518 O510 1.311 . S
C518 O512 1.231 . S
O519 Zn501 1.953 . S
O519 C513 1.298 . S
O520 Zn521 1.953 . S
O520 C536 1.225 . S
Zn521 O520 1.953 . S
Zn521 O522 1.949 1_556 S
Zn521 O528 1.919 . S
Zn521 O533 1.924 . S
O522 Zn521 1.949 1_554 S
O522 Zn523 1.923 . S
O522 Zn524 1.950 . S
O522 Zn525 1.945 . S
Zn523 O522 1.923 . S
Zn523 O526 1.933 . S
Zn523 O529 1.941 . S
Zn523 O530 1.965 . S
Zn524 O522 1.950 . S
Zn524 O531 1.938 . S
Zn524 O532 1.906 . S
Zn524 O542 1.953 1_554 S
Zn525 O522 1.945 . S
Zn525 O527 1.932 . S
Zn525 O534 1.977 . S
Zn525 O535 1.910 . S
O526 Zn523 1.933 . S
O526 C537 1.226 . S
O527 Zn525 1.932 . S
O527 C537 1.307 . S
O528 Zn521 1.919 . S
O528 C539 1.253 . S
O529 Zn523 1.941 . S
O529 C539 1.283 1_554 S
O530 Zn523 1.965 . S
O530 C538 1.303 . S
O531 Zn524 1.938 . S
O531 C538 1.247 . S
O532 Zn524 1.906 . S
O532 C540 1.304 . S
O533 Zn521 1.924 . S
O533 C541 1.311 . S
O534 Zn525 1.977 . S
O534 C540 1.272 . S
O535 Zn525 1.910 . S
O535 C541 1.231 1_554 S
C536 O520 1.225 . S
C536 O542 1.298 . S
C537 O526 1.226 . S
C537 O527 1.307 . S
C538 O530 1.303 . S
C538 O531 1.247 . S
C539 O528 1.253 . S
C539 O529 1.283 1_556 S
C540 O532 1.304 . S
C540 O534 1.272 . S
C541 O533 1.311 . S
C541 O535 1.231 1_556 S
O542 Zn524 1.953 1_556 S
O542 C536 1.298 . S
O543 Zn544 1.953 . S
O543 C559 1.225 . S
Zn544 O543 1.953 . S
Zn544 O545 1.949 . S
Zn544 O551 1.919 . S
Zn544 O556 1.924 . S
O545 Zn544 1.949 . S
O545 Zn546 1.923 . S
O545 Zn547 1.950 . S
O545 Zn548 1.945 . S
Zn546 O545 1.923 . S
Zn546 O549 1.933 . S
Zn546 O552 1.941 . S
Zn546 O553 1.965 . S
Zn547 O545 1.950 . S
Zn547 O554 1.938 . S
Zn547 O555 1.906 . S
Zn547 O565 1.953 . S
Zn548 O545 1.945 . S
Zn548 O550 1.932 . S
Zn548 O557 1.977 . S
Zn548 O558 1.910 . S
O549 Zn546 1.933 . S
O549 C560 1.226 . S
O550 Zn548 1.932 . S
O550 C560 1.307 . S
O551 Zn544 1.919 . S
O551 C562 1.253 . S
O552 Zn546 1.941 . S
O552 C562 1.283 . S
O553 Zn546 1.965 . S
O553 C561 1.303 . S
O554 Zn547 1.938 . S
O554 C561 1.247 . S
O555 Zn547 1.906 . S
O555 C563 1.304 . S
O556 Zn544 1.924 . S
O556 C564 1.311 . S
O557 Zn548 1.977 . S
O557 C563 1.272 . S
O558 Zn548 1.910 . S
O558 C564 1.231 . S
C559 O543 1.225 . S
C559 O565 1.298 . S
C560 O549 1.226 . S
C560 O550 1.307 . S
C561 O553 1.303 . S
C561 O554 1.247 . S
C562 O551 1.253 . S
C562 O552 1.283 . S
C563 O555 1.304 . S
C563 O557 1.272 . S
C564 O556 1.311 . S
C564 O558 1.231 . S
O565 Zn547 1.953 . S
O565 C559 1.298 . S
O566 Zn567 1.953 . S
O566 C582 1.225 . S
Zn567 O566 1.953 . S
Zn567 O568 1.965 . S
Zn567 O574 1.919 . S
Zn567 O579 1.924 . S
O568 Zn567 1.965 . S
O568 Zn569 1.924 . S
O568 Zn570 1.941 1_455 S
O568 Zn571 1.937 1_455 S
Zn569 O568 1.924 . S
Zn569 O572 1.933 1_455 S
Zn569 O575 1.941 . S
Zn569 O576 1.965 1_455 S
Zn570 O568 1.941 1_655 S
Zn570 O577 1.938 . S
Zn570 O578 1.906 . S
Zn570 O588 1.953 1_655 S
Zn571 O568 1.937 1_655 S
Zn571 O573 1.932 . S
Zn571 O580 1.977 . S
Zn571 O581 1.910 1_655 S
O572 Zn569 1.933 1_655 S
O572 C583 1.226 . S
O573 Zn571 1.932 . S
O573 C583 1.307 . S
O574 Zn567 1.919 . S
O574 C585 1.253 . S
O575 Zn569 1.941 . S
O575 C585 1.283 . S
O576 Zn569 1.965 1_655 S
O576 C584 1.303 . S
O577 Zn570 1.938 . S
O577 C584 1.247 . S
O578 Zn570 1.906 . S
O578 C586 1.304 . S
O579 Zn567 1.924 . S
O579 C587 1.311 . S
O580 Zn571 1.977 . S
O580 C586 1.272 . S
O581 Zn571 1.910 1_455 S
O581 C587 1.231 . S
C582 O566 1.225 . S
C582 O588 1.298 . S
C583 O572 1.226 . S
C583 O573 1.307 . S
C584 O576 1.303 . S
C584 O577 1.247 . S
C585 O574 1.253 . S
C585 O575 1.283 . S
C586 O578 1.304 . S
C586 O580 1.272 . S
C587 O579 1.311 . S
C587 O581 1.231 . S
O588 Zn570 1.953 1_455 S
O588 C582 1.298 . S
O589 Zn590 1.953 . S
O589 C605 1.225 . S
Zn590 O589 1.953 . S
Zn590 O591 1.949 . S
Zn590 O597 1.919 . S
Zn590 O602 1.924 . S
O591 Zn590 1.949 . S
O591 Zn592 1.923 . S
O591 Zn593 1.950 . S
O591 Zn594 1.945 . S
Zn592 O591 1.923 . S
Zn592 O595 1.933 . S
Zn592 O598 1.941 . S
Zn592 O599 1.965 . S
Zn593 O591 1.950 . S
Zn593 O600 1.938 . S
Zn593 O601 1.906 . S
Zn593 O611 1.953 . S
Zn594 O591 1.945 . S
Zn594 O596 1.932 . S
Zn594 O603 1.977 . S
Zn594 O604 1.910 . S
O595 Zn592 1.933 . S
O595 C606 1.226 . S
O596 Zn594 1.932 . S
O596 C606 1.307 . S
O597 Zn590 1.919 . S
O597 C608 1.253 . S
O598 Zn592 1.941 . S
O598 C608 1.283 . S
O599 Zn592 1.965 . S
O599 C607 1.303 . S
O600 Zn593 1.938 . S
O600 C607 1.247 . S
O601 Zn593 1.906 . S
O601 C609 1.304 . S
O602 Zn590 1.924 . S
O602 C610 1.311 . S
O603 Zn594 1.977 . S
O603 C609 1.272 . S
O604 Zn594 1.910 . S
O604 C610 1.231 . S
C605 O589 1.225 . S
C605 O611 1.298 . S
C606 O595 1.226 . S
C606 O596 1.307 . S
C607 O599 1.303 . S
C607 O600 1.247 . S
C608 O597 1.253 . S
C608 O598 1.283 . S
C609 O601 1.304 . S
C609 O603 1.272 . S
C610 O602 1.311 . S
C610 O604 1.231 . S
O611 Zn593 1.953 . S
O611 C605 1.298 . S
O612 Zn613 1.953 . S
O612 C628 1.225 . S
Zn613 O612 1.953 . S
Zn613 O614 1.949 . S
Zn613 O620 1.919 . S
Zn613 O625 1.924 . S
O614 Zn613 1.949 . S
O614 Zn615 1.923 . S
O614 Zn616 1.950 . S
O614 Zn617 1.945 . S
Zn615 O614 1.923 . S
Zn615 O618 1.933 . S
Zn615 O621 1.941 . S
Zn615 O622 1.965 . S
Zn616 O614 1.950 . S
Zn616 O623 1.938 . S
Zn616 O624 1.906 . S
Zn616 O634 1.953 . S
Zn617 O614 1.945 . S
Zn617 O619 1.932 . S
Zn617 O626 1.977 . S
Zn617 O627 1.910 . S
O618 Zn615 1.933 . S
O618 C629 1.226 . S
O619 Zn617 1.932 . S
O619 C629 1.307 . S
O620 Zn613 1.919 . S
O620 C631 1.253 . S
O621 Zn615 1.941 . S
O621 C631 1.283 . S
O622 Zn615 1.965 . S
O622 C630 1.303 . S
O623 Zn616 1.938 . S
O623 C630 1.247 . S
O624 Zn616 1.906 . S
O624 C632 1.304 . S
O625 Zn613 1.924 . S
O625 C633 1.311 . S
O626 Zn617 1.977 . S
O626 C632 1.272 . S
O627 Zn617 1.910 . S
O627 C633 1.231 . S
C628 O612 1.225 . S
C628 O634 1.298 . S
C629 O618 1.226 . S
C629 O619 1.307 . S
C630 O622 1.303 . S
C630 O623 1.247 . S
C631 O620 1.253 . S
C631 O621 1.283 . S
C632 O624 1.304 . S
C632 O626 1.272 . S
C633 O625 1.311 . S
C633 O627 1.231 . S
O634 Zn616 1.953 . S
O634 C628 1.298 . S
O635 Zn636 1.953 . S
O635 C651 1.225 . S
Zn636 O635 1.953 . S
Zn636 O637 1.949 . S
Zn636 O643 1.919 . S
Zn636 O648 1.924 . S
O637 Zn636 1.949 . S
O637 Zn638 1.923 . S
O637 Zn639 1.950 . S
O637 Zn640 1.945 . S
Zn638 O637 1.923 . S
Zn638 O641 1.933 . S
Zn638 O644 1.941 . S
Zn638 O645 1.965 . S
Zn639 O637 1.950 . S
Zn639 O646 1.938 . S
Zn639 O647 1.906 . S
Zn639 O657 1.953 . S
Zn640 O637 1.945 . S
Zn640 O642 1.932 . S
Zn640 O649 1.977 . S
Zn640 O650 1.910 . S
O641 Zn638 1.933 . S
O641 C652 1.226 . S
O642 Zn640 1.932 . S
O642 C652 1.307 . S
O643 Zn636 1.919 . S
O643 C654 1.253 . S
O644 Zn638 1.941 . S
O644 C654 1.283 . S
O645 Zn638 1.965 . S
O645 C653 1.303 . S
O646 Zn639 1.938 . S
O646 C653 1.247 . S
O647 Zn639 1.906 . S
O647 C655 1.304 . S
O648 Zn636 1.924 . S
O648 C656 1.311 . S
O649 Zn640 1.977 . S
O649 C655 1.272 . S
O650 Zn640 1.910 . S
O650 C656 1.231 . S
C651 O635 1.225 . S
C651 O657 1.298 . S
C652 O641 1.226 . S
C652 O642 1.307 . S
C653 O645 1.303 . S
C653 O646 1.247 . S
C654 O643 1.253 . S
C654 O644 1.283 . S
C655 O647 1.304 . S
C655 O649 1.272 . S
C656 O648 1.311 . S
C656 O650 1.231 . S
O657 Zn639 1.953 . S
O657 C651 1.298 . S
O658 Zn659 1.953 . S
O658 C674 1.225 . S
Zn659 O658 1.953 . S
Zn659 O660 1.949 . S
Zn659 O666 1.919 . S
Zn659 O671 1.924 . S
O660 Zn659 1.949 . S
O660 Zn661 1.923 . S
O660 Zn662 1.950 . S
O660 Zn663 1.945 . S
Zn661 O660 1.923 . S
Zn661 O664 1.933 . S
Zn661 O667 1.941 . S
Zn661 O668 1.965 . S
Zn662 O660 1.950 . S
Zn662 O669 1.938 . S
Zn662 O670 1.906 . S
Zn662 O680 1.953 . S
Zn663 O660 1.945 . S
Zn663 O665 1.932 . S
Zn663 O672 1.977 . S
Zn663 O673 1.910 . S
O664 Zn661 1.933 . S
O664 C675 1.226 . S
O665 Zn663 1.932 . S
O665 C675 1.307 . S
O666 Zn659 1.919 . S
O666 C677 1.253 . S
O667 Zn661 1.941 . S
O667 C677 1.283 . S
O668 Zn661 1.965 . S
O668 C676 1.303 . S
O669 Zn662 1.938 . S
O669 C676 1.247 . S
O670 Zn662 1.906 . S
O670 C678 1.304 . S
O671 Zn659 1.924 . S
O671 C679 1.311 . S
O672 Zn663 1.977 . S
O672 C678 1.272 . S
O673 Zn663 1.910 . S
O673 C679 1.231 . S
C674 O658 1.225 . S
C674 O680 1.298 . S
C675 O664 1.226 . S
C675 O665 1.307 . S
C676 O668 1.303 . S
C676 O669 1.247 . S
C677 O666 1.253 . S
C677 O667 1.283 . S
C678 O670 1.304 . S
C678 O672 1.272 . S
C679 O671 1.311 . S
C679 O673 1.231 . S
O680 Zn662 1.953 . S
O680 C674 1.298 . S
O681 Zn682 1.953 1_454 S
O681 C697 1.225 . S
Zn682 O681 1.953 1_656 S
Zn682 O683 1.949 1_656 S
Zn682 O689 1.919 . S
Zn682 O694 1.924 1_655 S
O683 Zn682 1.949 1_454 S
O683 Zn684 1.923 1_455 S
O683 Zn685 1.950 . S
O683 Zn686 1.945 1_554 S
Zn684 O683 1.923 1_655 S
Zn684 O687 1.933 . S
Zn684 O690 1.941 . S
Zn684 O691 1.965 . S
Zn685 O683 1.950 . S
Zn685 O692 1.938 . S
Zn685 O693 1.906 . S
Zn685 O703 1.953 . S
Zn686 O683 1.945 1_556 S
Zn686 O688 1.932 . S
Zn686 O695 1.977 1_556 S
Zn686 O696 1.910 . S
O687 Zn684 1.933 . S
O687 C698 1.226 1_554 S
O688 Zn686 1.932 . S
O688 C698 1.307 1_455 S
O689 Zn682 1.919 . S
O689 C700 1.253 . S
O690 Zn684 1.941 . S
O690 C700 1.283 1_554 S
O691 Zn684 1.965 . S
O691 C699 1.303 . S
O692 Zn685 1.938 . S
O692 C699 1.247 1_455 S
O693 Zn685 1.906 . S
O693 C701 1.304 . S
O694 Zn682 1.924 1_455 S
O694 C702 1.311 . S
O695 Zn686 1.977 1_554 S
O695 C701 1.272 . S
O696 Zn686 1.910 . S
O696 C702 1.231 . S
C697 O681 1.225 . S
C697 O703 1.298 . S
C698 O687 1.226 1_556 S
C698 O688 1.307 1_655 S
C699 O691 1.303 . S
C699 O692 1.247 1_655 S
C700 O689 1.253 . S
C700 O690 1.283 1_556 S
C701 O693 1.304 . S
C701 O695 1.272 . S
C702 O694 1.311 . S
C702 O696 1.231 . S
O703 Zn685 1.953 . S
O703 C697 1.298 . S
C704 C705 1.394 . S
C704 H708 0.950 . S
C704 C713 1.390 1_455 S
C705 C704 1.394 . S
C705 C707 1.375 1_455 S
H706 C713 0.950 1_455 S
C707 C705 1.375 1_655 S
C707 C709 1.390 . S
C707 H711 0.950 . S
H708 C704 0.950 . S
C709 C707 1.390 . S
C709 C710 1.387 . S
C709 H712 0.950 . S
C710 C709 1.387 . S
C710 C713 1.387 . S
H711 C707 0.950 . S
H712 C709 0.950 . S
C713 C704 1.390 1_655 S
C713 H706 0.950 1_655 S
C713 C710 1.387 . S
C714 C715 1.387 . S
C714 H718 0.950 . S
C714 C723 1.390 . S
C715 C714 1.387 . S
C715 C717 1.387 . S
H716 C723 0.950 . S
C717 C715 1.387 . S
C717 C719 1.390 . S
C717 H721 0.950 . S
H718 C714 0.950 . S
C719 C717 1.390 . S
C719 C720 1.387 . S
C719 H722 0.950 . S
C720 C719 1.387 . S
C720 C723 1.387 . S
H721 C717 0.950 . S
H722 C719 0.950 . S
C723 C714 1.390 . S
C723 H716 0.950 . S
C723 C720 1.387 . S
C724 C725 1.387 . S
C724 H728 0.950 . S
C724 C733 1.390 . S
C725 C724 1.387 . S
C725 C727 1.387 . S
H726 C733 0.950 . S
C727 C725 1.387 . S
C727 C729 1.390 . S
C727 H731 0.950 . S
H728 C724 0.950 . S
C729 C727 1.390 . S
C729 C730 1.387 . S
C729 H732 0.950 . S
C730 C729 1.387 . S
C730 C733 1.387 . S
H731 C727 0.950 . S
H732 C729 0.950 . S
C733 C724 1.390 . S
C733 H726 0.950 . S
C733 C730 1.387 . S
C734 C735 1.387 . S
C734 H738 0.950 . S
C734 C743 1.390 . S
C735 C734 1.387 . S
C735 C737 1.387 . S
H736 C743 0.950 . S
C737 C735 1.387 . S
C737 C739 1.390 . S
C737 H741 0.950 . S
H738 C734 0.950 . S
C739 C737 1.390 . S
C739 C740 1.387 . S
C739 H742 0.950 . S
C740 C739 1.387 . S
C740 C743 1.387 . S
H741 C737 0.950 . S
H742 C739 0.950 . S
C743 C734 1.390 . S
C743 H736 0.950 . S
C743 C740 1.387 . S
C744 C745 1.395 . S
C744 H748 0.950 . S
C744 C753 1.390 . S
C745 C744 1.395 . S
C745 C747 1.377 1_455 S
H746 C753 0.950 . S
C747 C745 1.377 1_655 S
C747 C749 1.390 . S
C747 H751 0.950 . S
H748 C744 0.950 . S
C749 C747 1.390 . S
C749 C750 1.387 . S
C749 H752 0.950 . S
C750 C749 1.387 . S
C750 C753 1.387 1_655 S
H751 C747 0.950 . S
H752 C749 0.950 . S
C753 C744 1.390 . S
C753 H746 0.950 . S
C753 C750 1.387 1_455 S
C754 C755 1.387 . S
C754 H758 0.950 . S
C754 C763 1.390 . S
C755 C754 1.387 . S
C755 C757 1.387 . S
H756 C763 0.950 . S
C757 C755 1.387 . S
C757 C759 1.390 . S
C757 H761 0.950 . S
H758 C754 0.950 . S
C759 C757 1.390 . S
C759 C760 1.387 . S
C759 H762 0.950 . S
C760 C759 1.387 . S
C760 C763 1.387 . S
H761 C757 0.950 . S
H762 C759 0.950 . S
C763 C754 1.390 . S
C763 H756 0.950 . S
C763 C760 1.387 . S
C764 C765 1.387 . S
C764 H768 0.950 . S
C764 C773 1.390 . S
C765 C764 1.387 . S
C765 C767 1.387 . S
H766 C773 0.950 1_554 S
C767 C765 1.387 . S
C767 C769 1.390 . S
C767 H771 0.950 . S
H768 C764 0.950 . S
C769 C767 1.390 . S
C769 C770 1.387 . S
C769 H772 0.950 . S
C770 C769 1.387 . S
C770 C773 1.387 . S
H771 C767 0.950 . S
H772 C769 0.950 . S
C773 C764 1.390 . S
C773 H766 0.950 1_556 S
C773 C770 1.387 . S
C774 C775 1.387 . S
C774 H778 0.950 . S
C774 C783 1.390 . S
C775 C774 1.387 . S
C775 C777 1.387 . S
H776 C783 0.950 . S
C777 C775 1.387 . S
C777 C779 1.390 . S
C777 H781 0.950 . S
H778 C774 0.950 . S
C779 C777 1.390 . S
C779 C780 1.387 . S
C779 H782 0.950 . S
C780 C779 1.387 . S
C780 C783 1.387 . S
H781 C777 0.950 . S
H782 C779 0.950 . S
C783 C774 1.390 . S
C783 H776 0.950 . S
C783 C780 1.387 . S
C784 C785 1.387 1_565 S
C784 H788 0.950 . S
C784 C793 1.390 . S
C785 C784 1.387 1_545 S
C785 C787 1.387 . S
H786 C793 0.950 . S
C787 C785 1.387 . S
C787 C789 1.390 . S
C787 H791 0.950 . S
H788 C784 0.950 . S
C789 C787 1.390 . S
C789 C790 1.387 . S
C789 H792 0.950 . S
C790 C789 1.387 . S
C790 C793 1.387 1_545 S
H791 C787 0.950 . S
H792 C789 0.950 . S
C793 C784 1.390 . S
C793 H786 0.950 . S
C793 C790 1.387 1_565 S
C794 C795 1.387 . S
C794 H798 0.950 . S
C794 C803 1.390 . S
C795 C794 1.387 . S
C795 C797 1.387 . S
H796 C803 0.950 . S
C797 C795 1.387 . S
C797 C799 1.390 . S
C797 H801 0.950 . S
H798 C794 0.950 . S
C799 C797 1.390 . S
C799 C800 1.387 . S
C799 H802 0.950 . S
C800 C799 1.387 . S
C800 C803 1.387 . S
H801 C797 0.950 . S
H802 C799 0.950 . S
C803 C794 1.390 . S
C803 H796 0.950 . S
C803 C800 1.387 . S
C804 C805 1.387 . S
C804 H808 0.950 . S
C804 C813 1.390 . S
C805 C804 1.387 . S
C805 C807 1.387 1_545 S
H806 C813 0.950 . S
C807 C805 1.387 1_565 S
C807 C809 1.390 . S
C807 H811 0.950 . S
H808 C804 0.950 . S
C809 C807 1.390 . S
C809 C810 1.387 1_565 S
C809 H812 0.950 . S
C810 C809 1.387 1_545 S
C810 C813 1.387 . S
H811 C807 0.950 . S
H812 C809 0.950 . S
C813 C804 1.390 . S
C813 H806 0.950 . S
C813 C810 1.387 . S
C814 C815 1.387 . S
C814 H818 0.950 . S
C814 C823 1.390 . S
C815 C814 1.387 . S
C815 C817 1.387 . S
H816 C823 0.950 . S
C817 C815 1.387 . S
C817 C819 1.390 . S
C817 H821 0.950 . S
H818 C814 0.950 . S
C819 C817 1.390 . S
C819 C820 1.387 . S
C819 H822 0.950 . S
C820 C819 1.387 . S
C820 C823 1.387 . S
H821 C817 0.950 . S
H822 C819 0.950 . S
C823 C814 1.390 . S
C823 H816 0.950 . S
C823 C820 1.387 . S
C824 C825 1.387 . S
C824 H828 0.950 . S
C824 C833 1.390 . S
C825 C824 1.387 . S
C825 C827 1.387 1_545 S
H826 C833 0.950 . S
C827 C825 1.387 1_565 S
C827 C829 1.390 1_565 S
C827 H831 0.950 . S
H828 C824 0.950 . S
C829 C827 1.390 1_545 S
C829 C830 1.387 . S
C829 H832 0.950 1_545 S
C830 C829 1.387 . S
C830 C833 1.387 . S
H831 C827 0.950 . S
H832 C829 0.950 1_565 S
C833 C824 1.390 . S
C833 H826 0.950 . S
C833 C830 1.387 . S
C834 C835 1.387 . S
C834 H838 0.950 . S
C834 C843 1.390 . S
C835 C834 1.387 . S
C835 C837 1.387 . S
H836 C843 0.950 . S
C837 C835 1.387 . S
C837 C839 1.390 . S
C837 H841 0.950 . S
H838 C834 0.950 . S
C839 C837 1.390 . S
C839 C840 1.387 . S
C839 H842 0.950 . S
C840 C839 1.387 . S
C840 C843 1.387 . S
H841 C837 0.950 . S
H842 C839 0.950 . S
C843 C834 1.390 . S
C843 H836 0.950 . S
C843 C840 1.387 . S
C844 C845 1.387 . S
C844 H848 0.950 . S
C844 C853 1.390 . S
C845 C844 1.387 . S
C845 C847 1.387 1_565 S
H846 C853 0.950 . S
C847 C845 1.387 1_545 S
C847 C849 1.390 . S
C847 H851 0.950 . S
H848 C844 0.950 . S
C849 C847 1.390 . S
C849 C850 1.387 1_545 S
C849 H852 0.950 . S
C850 C849 1.387 1_565 S
C850 C853 1.387 . S
H851 C847 0.950 . S
H852 C849 0.950 . S
C853 C844 1.390 . S
C853 H846 0.950 . S
C853 C850 1.387 . S
C854 C855 1.387 . S
C854 H858 0.950 . S
C854 C863 1.390 . S
C855 C854 1.387 . S
C855 C857 1.387 . S
H856 C863 0.950 . S
C857 C855 1.387 . S
C857 C859 1.390 . S
C857 H861 0.950 . S
H858 C854 0.950 . S
C859 C857 1.390 . S
C859 C860 1.387 . S
C859 H862 0.950 . S
C860 C859 1.387 . S
C860 C863 1.387 . S
H861 C857 0.950 . S
H862 C859 0.950 . S
C863 C854 1.390 . S
C863 H856 0.950 . S
C863 C860 1.387 . S
C864 C865 1.387 1_556 S
C864 H868 0.950 . S
C864 C873 1.390 . S
C865 C864 1.387 1_554 S
C865 C867 1.387 . S
H866 C873 0.950 . S
C867 C865 1.387 . S
C867 C869 1.390 . S
C867 H871 0.950 . S
H868 C864 0.950 . S
C869 C867 1.390 . S
C869 C870 1.387 1_554 S
C869 H872 0.950 . S
C870 C869 1.387 1_556 S
C870 C873 1.387 . S
H871 C867 0.950 . S
H872 C869 0.950 . S
C873 C864 1.390 . S
C873 H866 0.950 . S
C873 C870 1.387 . S
C874 C875 1.387 . S
C874 H878 0.950 . S
C874 C883 1.390 . S
C875 C874 1.387 . S
C875 C877 1.387 1_554 S
H876 C883 0.950 . S
C877 C875 1.387 1_556 S
C877 C879 1.390 . S
C877 H881 0.950 . S
H878 C874 0.950 . S
C879 C877 1.390 . S
C879 C880 1.387 1_556 S
C879 H882 0.950 . S
C880 C879 1.387 1_554 S
C880 C883 1.387 . S
H881 C877 0.950 . S
H882 C879 0.950 . S
C883 C874 1.390 . S
C883 H876 0.950 . S
C883 C880 1.387 . S
C884 C885 1.387 . S
C884 H888 0.950 . S
C884 C893 1.390 . S
C885 C884 1.387 . S
C885 C887 1.387 . S
H886 C893 0.950 . S
C887 C885 1.387 . S
C887 C889 1.390 . S
C887 H891 0.950 . S
H888 C884 0.950 . S
C889 C887 1.390 . S
C889 C890 1.387 . S
C889 H892 0.950 . S
C890 C889 1.387 . S
C890 C893 1.387 . S
H891 C887 0.950 . S
H892 C889 0.950 . S
C893 C884 1.390 . S
C893 H886 0.950 . S
C893 C890 1.387 . S
C894 C895 1.387 . S
C894 H898 0.950 . S
C894 C903 1.390 . S
C895 C894 1.387 . S
C895 C897 1.387 . S
H896 C903 0.950 . S
C897 C895 1.387 . S
C897 C899 1.390 . S
C897 H901 0.950 . S
H898 C894 0.950 . S
C899 C897 1.390 . S
C899 C900 1.387 . S
C899 H902 0.950 . S
C900 C899 1.387 . S
C900 C903 1.387 . S
H901 C897 0.950 . S
H902 C899 0.950 . S
C903 C894 1.390 . S
C903 H896 0.950 . S
C903 C900 1.387 . S
C904 C905 1.387 . S
C904 H908 0.950 . S
C904 C913 1.390 . S
C905 C904 1.387 . S
C905 C907 1.387 . S
H906 C913 0.950 . S
C907 C905 1.387 . S
C907 C909 1.390 . S
C907 H911 0.950 . S
H908 C904 0.950 . S
C909 C907 1.390 . S
C909 C910 1.387 . S
C909 H912 0.950 . S
C910 C909 1.387 . S
C910 C913 1.387 . S
H911 C907 0.950 . S
H912 C909 0.950 . S
C913 C904 1.390 . S
C913 H906 0.950 . S
C913 C910 1.387 . S
C914 C915 1.387 . S
C914 H918 0.950 . S
C914 C923 1.390 . S
C915 C914 1.387 . S
C915 C917 1.387 . S
H916 C923 0.950 . S
C917 C915 1.387 . S
C917 C919 1.390 . S
C917 H921 0.950 . S
H918 C914 0.950 . S
C919 C917 1.390 . S
C919 C920 1.387 . S
C919 H922 0.950 . S
C920 C919 1.387 . S
C920 C923 1.387 . S
H921 C917 0.950 . S
H922 C919 0.950 . S
C923 C914 1.390 . S
C923 H916 0.950 . S
C923 C920 1.387 . S
C924 C925 1.387 . S
C924 H928 0.950 . S
C924 C933 1.390 . S
C925 C924 1.387 . S
C925 C927 1.387 . S
H926 C933 0.950 . S
C927 C925 1.387 . S
C927 C929 1.390 . S
C927 H931 0.950 . S
H928 C924 0.950 . S
C929 C927 1.390 . S
C929 C930 1.387 . S
C929 H932 0.950 . S
C930 C929 1.387 . S
C930 C933 1.387 . S
H931 C927 0.950 . S
H932 C929 0.950 . S
C933 C924 1.390 . S
C933 H926 0.950 . S
C933 C930 1.387 . S
C934 C935 1.387 . S
C934 H938 0.950 . S
C934 C943 1.390 . S
C935 C934 1.387 . S
C935 C937 1.387 . S
H936 C943 0.950 . S
C937 C935 1.387 . S
C937 C939 1.390 . S
C937 H941 0.950 . S
H938 C934 0.950 . S
C939 C937 1.390 . S
C939 C940 1.387 . S
C939 H942 0.950 . S
C940 C939 1.387 . S
C940 C943 1.387 . S
H941 C937 0.950 . S
H942 C939 0.950 . S
C943 C934 1.390 . S
C943 H936 0.950 . S
C943 C940 1.387 . S
C944 C945 1.387 1_655 S
C944 H948 0.950 . S
C944 C953 1.390 . S
C945 C944 1.387 1_455 S
C945 C947 1.387 . S
H946 C953 0.950 1_554 S
C947 C945 1.387 . S
C947 C949 1.390 . S
C947 H951 0.950 . S
H948 C944 0.950 . S
C949 C947 1.390 . S
C949 C950 1.387 . S
C949 H952 0.950 . S
C950 C949 1.387 . S
C950 C953 1.387 1_455 S
H951 C947 0.950 . S
H952 C949 0.950 . S
C953 C944 1.390 . S
C953 H946 0.950 1_556 S
C953 C950 1.387 1_655 S
C954 C955 1.387 . S
C954 H958 0.950 . S
C954 C963 1.390 . S
C955 C954 1.387 . S
C955 C957 1.387 . S
H956 C963 0.950 . S
C957 C955 1.387 . S
C957 C959 1.390 . S
C957 H961 0.950 . S
H958 C954 0.950 . S
C959 C957 1.390 . S
C959 C960 1.387 . S
C959 H962 0.950 . S
C960 C959 1.387 . S
C960 C963 1.387 . S
H961 C957 0.950 . S
H962 C959 0.950 . S
C963 C954 1.390 . S
C963 H956 0.950 . S
C963 C960 1.387 . S
C964 C965 1.387 . S
C964 H968 0.950 . S
C964 C973 1.390 . S
C965 C964 1.387 . S
C965 C967 1.387 . S
H966 C973 0.950 . S
C967 C965 1.387 . S
C967 C969 1.390 . S
C967 H971 0.950 . S
H968 C964 0.950 . S
C969 C967 1.390 . S
C969 C970 1.387 . S
C969 H972 0.950 . S
C970 C969 1.387 . S
C970 C973 1.387 . S
H971 C967 0.950 . S
H972 C969 0.950 . S
C973 C964 1.390 . S
C973 H966 0.950 . S
C973 C970 1.387 . S
C974 C975 1.387 . S
C974 H978 0.950 . S
C974 C983 1.390 . S
C975 C974 1.387 . S
C975 C977 1.387 . S
H976 C983 0.950 . S
C977 C975 1.387 . S
C977 C979 1.390 . S
C977 H981 0.950 . S
H978 C974 0.950 . S
C979 C977 1.390 . S
C979 C980 1.387 . S
C979 H982 0.950 . S
C980 C979 1.387 . S
C980 C983 1.387 . S
H981 C977 0.950 . S
H982 C979 0.950 . S
C983 C974 1.390 . S
C983 H976 0.950 . S
C983 C980 1.387 . S
C984 C985 1.387 . S
C984 H988 0.950 1_455 S
C984 C993 1.390 . S
C985 C984 1.387 . S
C985 C987 1.387 . S
H986 C993 0.950 . S
C987 C985 1.387 . S
C987 C989 1.390 . S
C987 H991 0.950 . S
H988 C984 0.950 1_655 S
C989 C987 1.390 . S
C989 C990 1.387 . S
C989 H992 0.950 . S
C990 C989 1.387 . S
C990 C993 1.387 . S
H991 C987 0.950 . S
H992 C989 0.950 . S
C993 C984 1.390 . S
C993 H986 0.950 . S
C993 C990 1.387 . S
C994 C995 1.387 . S
C994 H998 0.950 . S
C994 C1003 1.390 . S
C995 C994 1.387 . S
C995 C997 1.387 . S
H996 C1003 0.950 . S
C997 C995 1.387 . S
C997 C999 1.390 . S
C997 H1001 0.950 . S
H998 C994 0.950 . S
C999 C997 1.390 . S
C999 C1000 1.387 . S
C999 H1002 0.950 . S
C1000 C999 1.387 . S
C1000 C1003 1.387 . S
H1001 C997 0.950 . S
H1002 C999 0.950 . S
C1003 C994 1.390 . S
C1003 H996 0.950 . S
C1003 C1000 1.387 . S
C1004 C1005 1.387 . S
C1004 H1008 0.950 . S
C1004 C1013 1.390 . S
C1005 C1004 1.387 . S
C1005 C1007 1.387 . S
H1006 C1013 0.950 . S
C1007 C1005 1.387 . S
C1007 C1009 1.390 . S
C1007 H1011 0.950 . S
H1008 C1004 0.950 . S
C1009 C1007 1.390 . S
C1009 C1010 1.387 . S
C1009 H1012 0.950 . S
C1010 C1009 1.387 . S
C1010 C1013 1.387 . S
H1011 C1007 0.950 . S
H1012 C1009 0.950 . S
C1013 C1004 1.390 . S
C1013 H1006 0.950 . S
C1013 C1010 1.387 . S
C1014 C1015 1.387 . S
C1014 H1018 0.950 . S
C1014 C1023 1.390 . S
C1015 C1014 1.387 . S
C1015 C1017 1.387 . S
H1016 C1023 0.950 . S
C1017 C1015 1.387 . S
C1017 C1019 1.390 . S
C1017 H1021 0.950 . S
H1018 C1014 0.950 . S
C1019 C1017 1.390 . S
C1019 C1020 1.387 . S
C1019 H1022 0.950 . S
C1020 C1019 1.387 . S
C1020 C1023 1.387 . S
H1021 C1017 0.950 . S
H1022 C1019 0.950 . S
C1023 C1014 1.390 . S
C1023 H1016 0.950 . S
C1023 C1020 1.387 . S
C1024 C1025 1.365 1_565 S
C1024 H1028 0.985 . S
C1024 C1033 1.378 1_565 S
C1025 C1024 1.365 1_545 S
C1025 C1027 1.387 . S
H1026 C1033 0.950 1_565 S
C1027 C1025 1.387 . S
C1027 C1029 1.390 . S
C1027 H1031 0.950 . S
H1028 C1024 0.985 . S
C1029 C1027 1.390 . S
C1029 C1030 1.387 . S
C1029 H1032 0.950 . S
C1030 C1029 1.387 . S
C1030 C1033 1.387 . S
H1031 C1027 0.950 . S
H1032 C1029 0.950 . S
C1033 C1024 1.378 1_545 S
C1033 H1026 0.950 1_545 S
C1033 C1030 1.387 . S
C1034 C1035 1.387 . S
C1034 H1038 0.950 . S
C1034 C1043 1.390 . S
C1035 C1034 1.387 . S
C1035 C1037 1.387 . S
H1036 C1043 0.950 . S
C1037 C1035 1.387 . S
C1037 C1039 1.390 . S
C1037 H1041 0.950 . S
H1038 C1034 0.950 . S
C1039 C1037 1.390 . S
C1039 C1040 1.387 . S
C1039 H1042 0.950 . S
C1040 C1039 1.387 . S
C1040 C1043 1.387 . S
H1041 C1037 0.950 . S
H1042 C1039 0.950 . S
C1043 C1034 1.390 . S
C1043 H1036 0.950 . S
C1043 C1040 1.387 . S
C1044 C1045 1.387 . S
C1044 H1048 0.950 . S
C1044 C1053 1.390 . S
C1045 C1044 1.387 . S
C1045 C1047 1.387 1_565 S
H1046 C1053 0.950 . S
C1047 C1045 1.387 1_545 S
C1047 C1049 1.390 . S
C1047 H1051 0.950 . S
H1048 C1044 0.950 . S
C1049 C1047 1.390 . S
C1049 C1050 1.387 1_545 S
C1049 H1052 0.950 . S
C1050 C1049 1.387 1_565 S
C1050 C1053 1.387 . S
H1051 C1047 0.950 . S
H1052 C1049 0.950 . S
C1053 C1044 1.390 . S
C1053 H1046 0.950 . S
C1053 C1050 1.387 . S
C1054 C1055 1.387 . S
C1054 H1058 0.950 . S
C1054 C1063 1.390 . S
C1055 C1054 1.387 . S
C1055 C1057 1.387 . S
H1056 C1063 0.950 . S
C1057 C1055 1.387 . S
C1057 C1059 1.390 . S
C1057 H1061 0.950 . S
H1058 C1054 0.950 . S
C1059 C1057 1.390 . S
C1059 C1060 1.387 . S
C1059 H1062 0.950 . S
C1060 C1059 1.387 . S
C1060 C1063 1.387 . S
H1061 C1057 0.950 . S
H1062 C1059 0.950 . S
C1063 C1054 1.390 . S
C1063 H1056 0.950 . S
C1063 C1060 1.387 . S
C1064 C1065 1.387 . S
C1064 H1068 0.950 . S
C1064 C1073 1.390 . S
C1065 C1064 1.387 . S
C1065 C1067 1.387 1_545 S
H1066 C1073 0.950 . S
C1067 C1065 1.387 1_565 S
C1067 C1069 1.390 . S
C1067 H1071 0.950 . S
H1068 C1064 0.950 . S
C1069 C1067 1.390 . S
C1069 C1070 1.387 . S
C1069 H1072 0.950 . S
C1070 C1069 1.387 . S
C1070 C1073 1.387 1_565 S
H1071 C1067 0.950 . S
H1072 C1069 0.950 . S
C1073 C1064 1.390 . S
C1073 H1066 0.950 . S
C1073 C1070 1.387 1_545 S
C1074 C1075 1.387 . S
C1074 H1078 0.950 . S
C1074 C1083 1.390 . S
C1075 C1074 1.387 . S
C1075 C1077 1.387 . S
H1076 C1083 0.950 . S
C1077 C1075 1.387 . S
C1077 C1079 1.390 . S
C1077 H1081 0.950 . S
H1078 C1074 0.950 . S
C1079 C1077 1.390 . S
C1079 C1080 1.387 . S
C1079 H1082 0.950 . S
C1080 C1079 1.387 . S
C1080 C1083 1.387 . S
H1081 C1077 0.950 . S
H1082 C1079 0.950 . S
C1083 C1074 1.390 . S
C1083 H1076 0.950 . S
C1083 C1080 1.387 . S
C1084 C1085 1.387 . S
C1084 H1088 0.950 . S
C1084 C1093 1.390 . S
C1085 C1084 1.387 . S
C1085 C1087 1.387 1_545 S
H1086 C1093 0.950 . S
C1087 C1085 1.387 1_565 S
C1087 C1089 1.390 . S
C1087 H1091 0.950 . S
H1088 C1084 0.950 . S
C1089 C1087 1.390 . S
C1089 C1090 1.387 1_565 S
C1089 H1092 0.950 . S
C1090 C1089 1.387 1_545 S
C1090 C1093 1.387 . S
H1091 C1087 0.950 . S
H1092 C1089 0.950 . S
C1093 C1084 1.390 . S
C1093 H1086 0.950 . S
C1093 C1090 1.387 . S
C1094 C1095 1.387 . S
C1094 H1098 0.950 . S
C1094 C1103 1.390 . S
C1095 C1094 1.387 . S
C1095 C1097 1.387 . S
H1096 C1103 0.950 . S
C1097 C1095 1.387 . S
C1097 C1099 1.390 . S
C1097 H1101 0.950 . S
H1098 C1094 0.950 . S
C1099 C1097 1.390 . S
C1099 C1100 1.387 . S
C1099 H1102 0.950 . S
C1100 C1099 1.387 . S
C1100 C1103 1.387 . S
H1101 C1097 0.950 . S
H1102 C1099 0.950 . S
C1103 C1094 1.390 . S
C1103 H1096 0.950 . S
C1103 C1100 1.387 . S
C1104 C1105 1.387 1_556 S
C1104 H1108 0.950 . S
C1104 C1113 1.390 1_556 S
C1105 C1104 1.387 1_554 S
C1105 C1107 1.387 . S
H1106 C1113 0.950 1_556 S
C1107 C1105 1.387 . S
C1107 C1109 1.390 . S
C1107 H1111 0.950 . S
H1108 C1104 0.950 . S
C1109 C1107 1.390 . S
C1109 C1110 1.387 . S
C1109 H1112 0.950 . S
C1110 C1109 1.387 . S
C1110 C1113 1.387 . S
H1111 C1107 0.950 . S
H1112 C1109 0.950 . S
C1113 C1104 1.390 1_554 S
C1113 H1106 0.950 1_554 S
C1113 C1110 1.387 . S
C1114 C1115 1.387 . S
C1114 H1118 0.950 . S
C1114 C1123 1.390 . S
C1115 C1114 1.387 . S
C1115 C1117 1.387 1_556 S
H1116 C1123 0.950 . S
C1117 C1115 1.387 1_554 S
C1117 C1119 1.390 . S
C1117 H1121 0.950 . S
H1118 C1114 0.950 . S
C1119 C1117 1.390 . S
C1119 C1120 1.387 1_554 S
C1119 H1122 0.950 . S
C1120 C1119 1.387 1_556 S
C1120 C1123 1.387 . S
H1121 C1117 0.950 . S
H1122 C1119 0.950 . S
C1123 C1114 1.390 . S
C1123 H1116 0.950 . S
C1123 C1120 1.387 . S
C1124 C1125 1.387 . S
C1124 H1128 0.950 . S
C1124 C1133 1.390 . S
C1125 C1124 1.387 . S
C1125 C1127 1.387 . S
H1126 C1133 0.950 . S
C1127 C1125 1.387 . S
C1127 C1129 1.390 . S
C1127 H1131 0.950 . S
H1128 C1124 0.950 . S
C1129 C1127 1.390 . S
C1129 C1130 1.387 . S
C1129 H1132 0.950 . S
C1130 C1129 1.387 . S
C1130 C1133 1.387 . S
H1131 C1127 0.950 . S
H1132 C1129 0.950 . S
C1133 C1124 1.390 . S
C1133 H1126 0.950 . S
C1133 C1130 1.387 . S
C1134 C1135 1.387 . S
C1134 H1138 0.950 . S
C1134 C1143 1.390 . S
C1135 C1134 1.387 . S
C1135 C1137 1.387 . S
H1136 C1143 0.950 . S
C1137 C1135 1.387 . S
C1137 C1139 1.390 . S
C1137 H1141 0.950 . S
H1138 C1134 0.950 . S
C1139 C1137 1.390 . S
C1139 C1140 1.387 . S
C1139 H1142 0.950 . S
C1140 C1139 1.387 . S
C1140 C1143 1.387 . S
H1141 C1137 0.950 . S
H1142 C1139 0.950 . S
C1143 C1134 1.390 . S
C1143 H1136 0.950 . S
C1143 C1140 1.387 . S
C1144 C1145 1.387 . S
C1144 H1148 0.950 . S
C1144 C1153 1.390 . S
C1145 C1144 1.387 . S
C1145 C1147 1.387 . S
H1146 C1153 0.950 . S
C1147 C1145 1.387 . S
C1147 C1149 1.390 . S
C1147 H1151 0.950 . S
H1148 C1144 0.950 . S
C1149 C1147 1.390 . S
C1149 C1150 1.387 . S
C1149 H1152 0.950 . S
C1150 C1149 1.387 . S
C1150 C1153 1.387 . S
H1151 C1147 0.950 . S
H1152 C1149 0.950 . S
C1153 C1144 1.390 . S
C1153 H1146 0.950 . S
C1153 C1150 1.387 . S
C1154 C1155 1.387 . S
C1154 H1158 0.950 . S
C1154 C1163 1.390 . S
C1155 C1154 1.387 . S
C1155 C1157 1.387 . S
H1156 C1163 0.950 . S
C1157 C1155 1.387 . S
C1157 C1159 1.390 . S
C1157 H1161 0.950 . S
H1158 C1154 0.950 . S
C1159 C1157 1.390 . S
C1159 C1160 1.387 . S
C1159 H1162 0.950 . S
C1160 C1159 1.387 . S
C1160 C1163 1.387 . S
H1161 C1157 0.950 . S
H1162 C1159 0.950 . S
C1163 C1154 1.390 . S
C1163 H1156 0.950 . S
C1163 C1160 1.387 . S
C1164 C1165 1.387 . S
C1164 H1168 0.950 . S
C1164 C1173 1.390 . S
C1165 C1164 1.387 . S
C1165 C1167 1.387 . S
H1166 C1173 0.950 . S
C1167 C1165 1.387 . S
C1167 C1169 1.390 . S
C1167 H1171 0.950 . S
H1168 C1164 0.950 . S
C1169 C1167 1.390 . S
C1169 C1170 1.387 . S
C1169 H1172 0.950 . S
C1170 C1169 1.387 . S
C1170 C1173 1.387 . S
H1171 C1167 0.950 . S
H1172 C1169 0.950 . S
C1173 C1164 1.390 . S
C1173 H1166 0.950 . S
C1173 C1170 1.387 . S
C1174 C1175 1.387 . S
C1174 H1178 0.950 . S
C1174 C1183 1.390 . S
C1175 C1174 1.387 . S
C1175 C1177 1.387 . S
H1176 C1183 0.950 . S
C1177 C1175 1.387 . S
C1177 C1179 1.390 . S
C1177 H1181 0.950 . S
H1178 C1174 0.950 . S
C1179 C1177 1.390 . S
C1179 C1180 1.387 . S
C1179 H1182 0.950 . S
C1180 C1179 1.387 . S
C1180 C1183 1.387 . S
H1181 C1177 0.950 . S
H1182 C1179 0.950 . S
C1183 C1174 1.390 . S
C1183 H1176 0.950 . S
C1183 C1180 1.387 . S
C1184 C1185 1.387 . S
C1184 H1188 0.950 . S
C1184 C1193 1.390 . S
C1185 C1184 1.387 . S
C1185 C1187 1.387 . S
H1186 C1193 0.950 . S
C1187 C1185 1.387 . S
C1187 C1189 1.390 . S
C1187 H1191 0.950 . S
H1188 C1184 0.950 . S
C1189 C1187 1.390 . S
C1189 C1190 1.387 . S
C1189 H1192 0.950 . S
C1190 C1189 1.387 . S
C1190 C1193 1.387 . S
H1191 C1187 0.950 . S
H1192 C1189 0.950 . S
C1193 C1184 1.390 . S
C1193 H1186 0.950 . S
C1193 C1190 1.387 . S
C1194 C1195 1.387 . S
C1194 H1198 0.950 . S
C1194 C1203 1.390 . S
C1195 C1194 1.387 . S
C1195 C1197 1.387 . S
H1196 C1203 0.950 . S
C1197 C1195 1.387 . S
C1197 C1199 1.390 . S
C1197 H1201 0.950 . S
H1198 C1194 0.950 . S
C1199 C1197 1.390 . S
C1199 C1200 1.387 . S
C1199 H1202 0.950 . S
C1200 C1199 1.387 . S
C1200 C1203 1.387 . S
H1201 C1197 0.950 . S
H1202 C1199 0.950 . S
C1203 C1194 1.390 . S
C1203 H1196 0.950 . S
C1203 C1200 1.387 . S
C1204 C1205 1.387 . S
C1204 H1208 0.950 . S
C1204 C1213 1.390 . S
C1205 C1204 1.387 . S
C1205 C1207 1.387 1_455 S
H1206 C1213 0.950 . S
C1207 C1205 1.387 1_655 S
C1207 C1209 1.390 1_655 S
C1207 H1211 0.950 . S
H1208 C1204 0.950 . S
C1209 C1207 1.390 1_455 S
C1209 C1210 1.387 . S
C1209 H1212 0.950 1_455 S
C1210 C1209 1.387 . S
C1210 C1213 1.387 . S
H1211 C1207 0.950 . S
H1212 C1209 0.950 1_655 S
C1213 C1204 1.390 . S
C1213 H1206 0.950 . S
C1213 C1210 1.387 . S
C1214 C1215 1.387 . S
C1214 H1218 0.950 . S
C1214 C1223 1.390 . S
C1215 C1214 1.387 . S
C1215 C1217 1.387 . S
H1216 C1223 0.950 . S
C1217 C1215 1.387 . S
C1217 C1219 1.390 . S
C1217 H1221 0.950 . S
H1218 C1214 0.950 . S
C1219 C1217 1.390 . S
C1219 C1220 1.387 . S
C1219 H1222 0.950 . S
C1220 C1219 1.387 . S
C1220 C1223 1.387 . S
H1221 C1217 0.950 . S
H1222 C1219 0.950 . S
C1223 C1214 1.390 . S
C1223 H1216 0.950 . S
C1223 C1220 1.387 . S
C1224 C1225 1.387 . S
C1224 H1228 0.950 . S
C1224 C1233 1.390 . S
C1225 C1224 1.387 . S
C1225 C1227 1.387 . S
H1226 C1233 0.950 1_554 S
C1227 C1225 1.387 . S
C1227 C1229 1.390 . S
C1227 H1231 0.950 . S
H1228 C1224 0.950 . S
C1229 C1227 1.390 . S
C1229 C1230 1.387 . S
C1229 H1232 0.950 . S
C1230 C1229 1.387 . S
C1230 C1233 1.387 . S
H1231 C1227 0.950 . S
H1232 C1229 0.950 . S
C1233 C1224 1.390 . S
C1233 H1226 0.950 1_556 S
C1233 C1230 1.387 . S
C1234 C1235 1.387 . S
C1234 H1238 0.950 . S
C1234 C1243 1.390 . S
C1235 C1234 1.387 . S
C1235 C1237 1.387 . S
H1236 C1243 0.950 . S
C1237 C1235 1.387 . S
C1237 C1239 1.390 . S
C1237 H1241 0.950 . S
H1238 C1234 0.950 . S
C1239 C1237 1.390 . S
C1239 C1240 1.387 . S
C1239 H1242 0.950 . S
C1240 C1239 1.387 . S
C1240 C1243 1.387 . S
H1241 C1237 0.950 . S
H1242 C1239 0.950 . S
C1243 C1234 1.390 . S
C1243 H1236 0.950 . S
C1243 C1240 1.387 . S
C1244 C1245 1.387 1_655 S
C1244 H1248 0.950 . S
C1244 C1253 1.390 1_655 S
C1245 C1244 1.387 1_455 S
C1245 C1247 1.387 . S
H1246 C1253 0.950 1_655 S
C1247 C1245 1.387 . S
C1247 C1249 1.390 . S
C1247 H1251 0.950 . S
H1248 C1244 0.950 . S
C1249 C1247 1.390 . S
C1249 C1250 1.387 . S
C1249 H1252 0.950 . S
C1250 C1249 1.387 . S
C1250 C1253 1.387 . S
H1251 C1247 0.950 . S
H1252 C1249 0.950 . S
C1253 C1244 1.390 1_455 S
C1253 H1246 0.950 1_455 S
C1253 C1250 1.387 . S
C1254 C1255 1.387 . S
C1254 H1258 0.950 . S
C1254 C1263 1.390 . S
C1255 C1254 1.387 . S
C1255 C1257 1.387 . S
H1256 C1263 0.950 . S
C1257 C1255 1.387 . S
C1257 C1259 1.390 . S
C1257 H1261 0.950 . S
H1258 C1254 0.950 . S
C1259 C1257 1.390 . S
C1259 C1260 1.387 . S
C1259 H1262 0.950 . S
C1260 C1259 1.387 . S
C1260 C1263 1.387 . S
H1261 C1257 0.950 . S
H1262 C1259 0.950 . S
C1263 C1254 1.390 . S
C1263 H1256 0.950 . S
C1263 C1260 1.387 . S
C1264 C1265 1.387 . S
C1264 H1268 0.950 . S
C1264 C1273 1.390 . S
C1265 C1264 1.387 . S
C1265 C1267 1.387 . S
H1266 C1273 0.950 . S
C1267 C1265 1.387 . S
C1267 C1269 1.390 . S
C1267 H1271 0.950 . S
H1268 C1264 0.950 . S
C1269 C1267 1.390 . S
C1269 C1270 1.387 . S
C1269 H1272 0.950 . S
C1270 C1269 1.387 . S
C1270 C1273 1.387 . S
H1271 C1267 0.950 . S
H1272 C1269 0.950 . S
C1273 C1264 1.390 . S
C1273 H1266 0.950 . S
C1273 C1270 1.387 . S
C1274 C1275 1.387 . S
C1274 H1278 0.950 . S
C1274 C1283 1.390 . S
C1275 C1274 1.387 . S
C1275 C1277 1.387 . S
H1276 C1283 0.950 . S
C1277 C1275 1.387 . S
C1277 C1279 1.390 . S
C1277 H1281 0.950 . S
H1278 C1274 0.950 . S
C1279 C1277 1.390 . S
C1279 C1280 1.387 . S
C1279 H1282 0.950 . S
C1280 C1279 1.387 . S
C1280 C1283 1.387 . S
H1281 C1277 0.950 . S
H1282 C1279 0.950 . S
C1283 C1274 1.390 . S
C1283 H1276 0.950 . S
C1283 C1280 1.387 . S
C1284 C1285 1.387 . S
C1284 H1288 0.950 . S
C1284 C1293 1.390 . S
C1285 C1284 1.387 . S
C1285 C1287 1.387 . S
H1286 C1293 0.950 . S
C1287 C1285 1.387 . S
C1287 C1289 1.390 . S
C1287 H1291 0.950 . S
H1288 C1284 0.950 . S
C1289 C1287 1.390 . S
C1289 C1290 1.387 . S
C1289 H1292 0.950 . S
C1290 C1289 1.387 . S
C1290 C1293 1.387 . S
H1291 C1287 0.950 . S
H1292 C1289 0.950 . S
C1293 C1284 1.390 . S
C1293 H1286 0.950 . S
C1293 C1290 1.387 . S
C1294 C1295 1.387 . S
C1294 H1298 0.950 . S
C1294 C1303 1.390 . S
C1295 C1294 1.387 . S
C1295 C1297 1.387 . S
H1296 C1303 0.950 . S
C1297 C1295 1.387 . S
C1297 C1299 1.390 . S
C1297 H1301 0.950 . S
H1298 C1294 0.950 . S
C1299 C1297 1.390 . S
C1299 C1300 1.387 . S
C1299 H1302 0.950 . S
C1300 C1299 1.387 . S
C1300 C1303 1.387 . S
H1301 C1297 0.950 . S
H1302 C1299 0.950 . S
C1303 C1294 1.390 . S
C1303 H1296 0.950 . S
C1303 C1300 1.387 . S
C1304 C1305 1.387 . S
C1304 H1308 0.950 . S
C1304 C1313 1.390 . S
C1305 C1304 1.387 . S
C1305 C1307 1.387 . S
H1306 C1313 0.950 . S
C1307 C1305 1.387 . S
C1307 C1309 1.390 . S
C1307 H1311 0.950 . S
H1308 C1304 0.950 . S
C1309 C1307 1.390 . S
C1309 C1310 1.387 . S
C1309 H1312 0.950 . S
C1310 C1309 1.387 . S
C1310 C1313 1.387 . S
H1311 C1307 0.950 . S
H1312 C1309 0.950 . S
C1313 C1304 1.390 . S
C1313 H1306 0.950 . S
C1313 C1310 1.387 . S
C1314 C1315 1.387 . S
C1314 H1318 0.950 . S
C1314 C1323 1.390 . S
C1315 C1314 1.387 . S
C1315 C1317 1.387 . S
H1316 C1323 0.950 . S
C1317 C1315 1.387 . S
C1317 C1319 1.390 . S
C1317 H1321 0.950 . S
H1318 C1314 0.950 . S
C1319 C1317 1.390 . S
C1319 C1320 1.387 . S
C1319 H1322 0.950 . S
C1320 C1319 1.387 . S
C1320 C1323 1.387 . S
H1321 C1317 0.950 . S
H1322 C1319 0.950 . S
C1323 C1314 1.390 . S
C1323 H1316 0.950 . S
C1323 C1320 1.387 . S
C1324 C1325 1.387 . S
C1324 H1328 0.950 . S
C1324 C1333 1.390 . S
C1325 C1324 1.387 . S
C1325 C1327 1.387 . S
H1326 C1333 0.950 . S
C1327 C1325 1.387 . S
C1327 C1329 1.390 . S
C1327 H1331 0.950 . S
H1328 C1324 0.950 . S
C1329 C1327 1.390 . S
C1329 C1330 1.387 . S
C1329 H1332 0.950 . S
C1330 C1329 1.387 . S
C1330 C1333 1.387 . S
H1331 C1327 0.950 . S
H1332 C1329 0.950 . S
C1333 C1324 1.390 . S
C1333 H1326 0.950 . S
C1333 C1330 1.387 . S
C1334 C1335 1.387 . S
C1334 H1338 0.950 . S
C1334 C1343 1.390 . S
C1335 C1334 1.387 . S
C1335 C1337 1.387 . S
H1336 C1343 0.950 . S
C1337 C1335 1.387 . S
C1337 C1339 1.390 . S
C1337 H1341 0.950 . S
H1338 C1334 0.950 . S
C1339 C1337 1.390 . S
C1339 C1340 1.387 . S
C1339 H1342 0.950 . S
C1340 C1339 1.387 . S
C1340 C1343 1.387 . S
H1341 C1337 0.950 . S
H1342 C1339 0.950 . S
C1343 C1334 1.390 . S
C1343 H1336 0.950 . S
C1343 C1340 1.387 . S
C1344 C1345 1.387 . S
C1344 H1348 0.950 . S
C1344 C1353 1.390 . S
C1345 C1344 1.387 . S
C1345 C1347 1.387 . S
H1346 C1353 0.950 . S
C1347 C1345 1.387 . S
C1347 C1349 1.390 . S
C1347 H1351 0.950 . S
H1348 C1344 0.950 . S
C1349 C1347 1.390 . S
C1349 C1350 1.387 . S
C1349 H1352 0.950 . S
C1350 C1349 1.387 . S
C1350 C1353 1.387 . S
H1351 C1347 0.950 . S
H1352 C1349 0.950 . S
C1353 C1344 1.390 . S
C1353 H1346 0.950 . S
C1353 C1350 1.387 . S
C1354 C1355 1.387 . S
C1354 H1358 0.950 . S
C1354 C1363 1.390 . S
C1355 C1354 1.387 . S
C1355 C1357 1.387 . S
H1356 C1363 0.950 1_545 S
C1357 C1355 1.387 . S
C1357 C1359 1.390 . S
C1357 H1361 0.950 . S
H1358 C1354 0.950 . S
C1359 C1357 1.390 . S
C1359 C1360 1.387 . S
C1359 H1362 0.950 . S
C1360 C1359 1.387 . S
C1360 C1363 1.387 . S
H1361 C1357 0.950 . S
H1362 C1359 0.950 . S
C1363 C1354 1.390 . S
C1363 H1356 0.950 1_565 S
C1363 C1360 1.387 . S
C1364 C1365 1.387 . S
C1364 H1368 0.950 . S
C1364 C1373 1.390 . S
C1365 C1364 1.387 . S
C1365 C1367 1.387 . S
H1366 C1373 0.950 . S
C1367 C1365 1.387 . S
C1367 C1369 1.390 . S
C1367 H1371 0.950 . S
H1368 C1364 0.950 . S
C1369 C1367 1.390 . S
C1369 C1370 1.387 . S
C1369 H1372 0.950 . S
C1370 C1369 1.387 . S
C1370 C1373 1.387 . S
H1371 C1367 0.950 . S
H1372 C1369 0.950 . S
C1373 C1364 1.390 . S
C1373 H1366 0.950 . S
C1373 C1370 1.387 . S
C1374 C1375 1.387 . S
C1374 H1378 0.950 . S
C1374 C1383 1.390 . S
C1375 C1374 1.387 . S
C1375 C1377 1.387 1_554 S
H1376 C1383 0.950 . S
C1377 C1375 1.387 1_556 S
C1377 C1379 1.390 . S
C1377 H1381 0.950 . S
H1378 C1374 0.950 . S
C1379 C1377 1.390 . S
C1379 C1380 1.387 1_556 S
C1379 H1382 0.950 . S
C1380 C1379 1.387 1_554 S
C1380 C1383 1.387 . S
H1381 C1377 0.950 . S
H1382 C1379 0.950 . S
C1383 C1374 1.390 . S
C1383 H1376 0.950 . S
C1383 C1380 1.387 . S
C1384 C1385 1.387 . S
C1384 H1388 0.950 . S
C1384 C1393 1.390 . S
C1385 C1384 1.387 . S
C1385 C1387 1.387 . S
H1386 C1393 0.950 . S
C1387 C1385 1.387 . S
C1387 C1389 1.390 . S
C1387 H1391 0.950 . S
H1388 C1384 0.950 . S
C1389 C1387 1.390 . S
C1389 C1390 1.387 . S
C1389 H1392 0.950 . S
C1390 C1389 1.387 . S
C1390 C1393 1.387 . S
H1391 C1387 0.950 . S
H1392 C1389 0.950 . S
C1393 C1384 1.390 . S
C1393 H1386 0.950 . S
C1393 C1390 1.387 . S
C1394 C1395 1.387 . S
C1394 H1398 0.950 . S
C1394 C1403 1.390 . S
C1395 C1394 1.387 . S
C1395 C1397 1.387 1_554 S
H1396 C1403 0.950 . S
C1397 C1395 1.387 1_556 S
C1397 C1399 1.390 . S
C1397 H1401 0.950 . S
H1398 C1394 0.950 . S
C1399 C1397 1.390 . S
C1399 C1400 1.387 . S
C1399 H1402 0.950 . S
C1400 C1399 1.387 . S
C1400 C1403 1.387 1_556 S
H1401 C1397 0.950 . S
H1402 C1399 0.950 . S
C1403 C1394 1.390 . S
C1403 H1396 0.950 . S
C1403 C1400 1.387 1_554 S
C1404 C1405 1.387 . S
C1404 H1408 0.950 . S
C1404 C1413 1.390 . S
C1405 C1404 1.387 . S
C1405 C1407 1.387 . S
H1406 C1413 0.950 . S
C1407 C1405 1.387 . S
C1407 C1409 1.390 . S
C1407 H1411 0.950 . S
H1408 C1404 0.950 . S
C1409 C1407 1.390 . S
C1409 C1410 1.387 . S
C1409 H1412 0.950 . S
C1410 C1409 1.387 . S
C1410 C1413 1.387 . S
H1411 C1407 0.950 . S
H1412 C1409 0.950 . S
C1413 C1404 1.390 . S
C1413 H1406 0.950 . S
C1413 C1410 1.387 . S
C1414 C1415 1.387 . S
C1414 H1418 0.950 . S
C1414 C1423 1.390 . S
C1415 C1414 1.387 . S
C1415 C1417 1.387 . S
H1416 C1423 0.950 . S
C1417 C1415 1.387 . S
C1417 C1419 1.390 . S
C1417 H1421 0.950 . S
H1418 C1414 0.950 . S
C1419 C1417 1.390 . S
C1419 C1420 1.387 . S
C1419 H1422 0.950 . S
C1420 C1419 1.387 . S
C1420 C1423 1.387 . S
H1421 C1417 0.950 . S
H1422 C1419 0.950 . S
C1423 C1414 1.390 . S
C1423 H1416 0.950 . S
C1423 C1420 1.387 . S
C1424 C1425 1.387 . S
C1424 H1428 0.950 . S
C1424 C1433 1.390 . S
C1425 C1424 1.387 . S
C1425 C1427 1.387 . S
H1426 C1433 0.950 . S
C1427 C1425 1.387 . S
C1427 C1429 1.390 . S
C1427 H1431 0.950 . S
H1428 C1424 0.950 . S
C1429 C1427 1.390 . S
C1429 C1430 1.387 . S
C1429 H1432 0.950 . S
C1430 C1429 1.387 . S
C1430 C1433 1.387 . S
H1431 C1427 0.950 . S
H1432 C1429 0.950 . S
C1433 C1424 1.390 . S
C1433 H1426 0.950 . S
C1433 C1430 1.387 . S
C1434 C1435 1.387 . S
C1434 H1438 0.950 . S
C1434 C1443 1.390 . S
C1435 C1434 1.387 . S
C1435 C1437 1.387 . S
H1436 C1443 0.950 . S
C1437 C1435 1.387 . S
C1437 C1439 1.390 . S
C1437 H1441 0.950 . S
H1438 C1434 0.950 . S
C1439 C1437 1.390 . S
C1439 C1440 1.387 . S
C1439 H1442 0.950 . S
C1440 C1439 1.387 . S
C1440 C1443 1.387 . S
H1441 C1437 0.950 . S
H1442 C1439 0.950 . S
C1443 C1434 1.390 . S
C1443 H1436 0.950 . S
C1443 C1440 1.387 . S
C1444 C1445 1.387 1_655 S
C1444 H1448 0.950 . S
C1444 C1453 1.390 . S
C1445 C1444 1.387 1_455 S
C1445 C1447 1.387 . S
H1446 C1453 0.950 . S
C1447 C1445 1.387 . S
C1447 C1449 1.390 . S
C1447 H1451 0.950 . S
H1448 C1444 0.950 . S
C1449 C1447 1.390 . S
C1449 C1450 1.387 1_455 S
C1449 H1452 0.950 . S
C1450 C1449 1.387 1_655 S
C1450 C1453 1.387 . S
H1451 C1447 0.950 . S
H1452 C1449 0.950 . S
C1453 C1444 1.390 . S
C1453 H1446 0.950 . S
C1453 C1450 1.387 . S
C1454 C1455 1.387 . S
C1454 H1458 0.950 . S
C1454 C1463 1.390 . S
C1455 C1454 1.387 . S
C1455 C1457 1.387 . S
H1456 C1463 0.950 . S
C1457 C1455 1.387 . S
C1457 C1459 1.390 . S
C1457 H1461 0.950 . S
H1458 C1454 0.950 . S
C1459 C1457 1.390 . S
C1459 C1460 1.387 . S
C1459 H1462 0.950 . S
C1460 C1459 1.387 . S
C1460 C1463 1.387 . S
H1461 C1457 0.950 . S
H1462 C1459 0.950 . S
C1463 C1454 1.390 . S
C1463 H1456 0.950 . S
C1463 C1460 1.387 . S
C1464 C1465 1.387 . S
C1464 H1468 0.950 . S
C1464 C1473 1.390 . S
C1465 C1464 1.387 . S
C1465 C1467 1.387 . S
H1466 C1473 0.950 . S
C1467 C1465 1.387 . S
C1467 C1469 1.390 . S
C1467 H1471 0.950 . S
H1468 C1464 0.950 . S
C1469 C1467 1.390 . S
C1469 C1470 1.387 . S
C1469 H1472 0.950 . S
C1470 C1469 1.387 . S
C1470 C1473 1.387 . S
H1471 C1467 0.950 . S
H1472 C1469 0.950 . S
C1473 C1464 1.390 . S
C1473 H1466 0.950 . S
C1473 C1470 1.387 . S
C1474 C1475 1.387 . S
C1474 H1478 0.950 . S
C1474 C1483 1.390 . S
C1475 C1474 1.387 . S
C1475 C1477 1.387 . S
H1476 C1483 0.950 . S
C1477 C1475 1.387 . S
C1477 C1479 1.390 . S
C1477 H1481 0.950 . S
H1478 C1474 0.950 . S
C1479 C1477 1.390 . S
C1479 C1480 1.387 . S
C1479 H1482 0.950 . S
C1480 C1479 1.387 . S
C1480 C1483 1.387 . S
H1481 C1477 0.950 . S
H1482 C1479 0.950 . S
C1483 C1474 1.390 . S
C1483 H1476 0.950 . S
C1483 C1480 1.387 . S
C1484 C1485 1.387 . S
C1484 H1488 0.950 . S
C1484 C1493 1.390 1_455 S
C1485 C1484 1.387 . S
C1485 C1487 1.386 1_455 S
H1486 C1493 0.950 . S
C1487 C1485 1.386 1_655 S
C1487 C1489 1.392 . S
C1487 H1491 0.949 1_655 S
H1488 C1484 0.950 . S
C1489 C1487 1.392 . S
C1489 C1490 1.387 . S
C1489 H1492 0.950 . S
C1490 C1489 1.387 . S
C1490 C1493 1.387 . S
H1491 C1487 0.949 1_455 S
H1492 C1489 0.950 . S
C1493 C1484 1.390 1_655 S
C1493 H1486 0.950 . S
C1493 C1490 1.387 . S
C1494 C1495 1.387 . S
C1494 H1498 0.950 . S
C1494 C1503 1.390 . S
C1495 C1494 1.387 . S
C1495 C1497 1.387 . S
H1496 C1503 0.950 . S
C1497 C1495 1.387 . S
C1497 C1499 1.390 . S
C1497 H1501 0.950 . S
H1498 C1494 0.950 . S
C1499 C1497 1.390 . S
C1499 C1500 1.387 . S
C1499 H1502 0.950 . S
C1500 C1499 1.387 . S
C1500 C1503 1.387 . S
H1501 C1497 0.950 . S
H1502 C1499 0.950 . S
C1503 C1494 1.390 . S
C1503 H1496 0.950 . S
C1503 C1500 1.387 . S
C1504 C1505 1.387 . S
C1504 H1508 0.950 . S
C1504 C1513 1.390 . S
C1505 C1504 1.387 . S
C1505 C1507 1.387 . S
H1506 C1513 0.950 . S
C1507 C1505 1.387 . S
C1507 C1509 1.390 . S
C1507 H1511 0.950 . S
H1508 C1504 0.950 . S
C1509 C1507 1.390 . S
C1509 C1510 1.387 . S
C1509 H1512 0.950 . S
C1510 C1509 1.387 . S
C1510 C1513 1.387 . S
H1511 C1507 0.950 . S
H1512 C1509 0.950 . S
C1513 C1504 1.390 . S
C1513 H1506 0.950 . S
C1513 C1510 1.387 . S
C1514 C1515 1.387 . S
C1514 H1518 0.950 . S
C1514 C1523 1.390 . S
C1515 C1514 1.387 . S
C1515 C1517 1.387 . S
H1516 C1523 0.950 . S
C1517 C1515 1.387 . S
C1517 C1519 1.390 . S
C1517 H1521 0.950 . S
H1518 C1514 0.950 . S
C1519 C1517 1.390 . S
C1519 C1520 1.387 . S
C1519 H1522 0.950 . S
C1520 C1519 1.387 . S
C1520 C1523 1.387 . S
H1521 C1517 0.950 . S
H1522 C1519 0.950 . S
C1523 C1514 1.390 . S
C1523 H1516 0.950 . S
C1523 C1520 1.387 . S
C1524 C1525 1.387 . S
C1524 H1528 0.950 . S
C1524 C1533 1.390 . S
C1525 C1524 1.387 . S
C1525 C1527 1.387 . S
H1526 C1533 0.950 . S
C1527 C1525 1.387 . S
C1527 C1529 1.390 . S
C1527 H1531 0.950 . S
H1528 C1524 0.950 . S
C1529 C1527 1.390 . S
C1529 C1530 1.387 . S
C1529 H1532 0.950 . S
C1530 C1529 1.387 . S
C1530 C1533 1.387 . S
H1531 C1527 0.950 . S
H1532 C1529 0.950 . S
C1533 C1524 1.390 . S
C1533 H1526 0.950 . S
C1533 C1530 1.387 . S
C1534 C1535 1.387 . S
C1534 H1538 0.950 . S
C1534 C1543 1.390 . S
C1535 C1534 1.387 . S
C1535 C1537 1.387 . S
H1536 C1543 0.950 . S
C1537 C1535 1.387 . S
C1537 C1539 1.390 . S
C1537 H1541 0.950 . S
H1538 C1534 0.950 . S
C1539 C1537 1.390 . S
C1539 C1540 1.387 . S
C1539 H1542 0.950 . S
C1540 C1539 1.387 . S
C1540 C1543 1.387 . S
H1541 C1537 0.950 . S
H1542 C1539 0.950 . S
C1543 C1534 1.390 . S
C1543 H1536 0.950 . S
C1543 C1540 1.387 . S
C1544 C1545 1.387 . S
C1544 H1548 0.950 . S
C1544 C1553 1.390 . S
C1545 C1544 1.387 . S
C1545 C1547 1.387 . S
H1546 C1553 0.950 . S
C1547 C1545 1.387 . S
C1547 C1549 1.390 . S
C1547 H1551 0.950 . S
H1548 C1544 0.950 . S
C1549 C1547 1.390 . S
C1549 C1550 1.387 . S
C1549 H1552 0.950 . S
C1550 C1549 1.387 . S
C1550 C1553 1.387 . S
H1551 C1547 0.950 . S
H1552 C1549 0.950 . S
C1553 C1544 1.390 . S
C1553 H1546 0.950 . S
C1553 C1550 1.387 . S
C1554 C1555 1.387 . S
C1554 H1558 0.950 . S
C1554 C1563 1.390 . S
C1555 C1554 1.387 . S
C1555 C1557 1.387 . S
H1556 C1563 0.950 . S
C1557 C1555 1.387 . S
C1557 C1559 1.390 . S
C1557 H1561 0.950 . S
H1558 C1554 0.950 . S
C1559 C1557 1.390 . S
C1559 C1560 1.387 . S
C1559 H1562 0.950 . S
C1560 C1559 1.387 . S
C1560 C1563 1.387 . S
H1561 C1557 0.950 . S
H1562 C1559 0.950 . S
C1563 C1554 1.390 . S
C1563 H1556 0.950 . S
C1563 C1560 1.387 . S
C1564 C1565 1.387 . S
C1564 H1568 0.950 . S
C1564 C1573 1.390 . S
C1565 C1564 1.387 . S
C1565 C1567 1.387 . S
H1566 C1573 0.950 . S
C1567 C1565 1.387 . S
C1567 C1569 1.390 . S
C1567 H1571 0.950 . S
H1568 C1564 0.950 . S
C1569 C1567 1.390 . S
C1569 C1570 1.387 . S
C1569 H1572 0.950 . S
C1570 C1569 1.387 . S
C1570 C1573 1.387 . S
H1571 C1567 0.950 . S
H1572 C1569 0.950 . S
C1573 C1564 1.390 . S
C1573 H1566 0.950 . S
C1573 C1570 1.387 . S
C1574 C1575 1.387 . S
C1574 H1578 0.950 . S
C1574 C1583 1.390 . S
C1575 C1574 1.387 . S
C1575 C1577 1.387 . S
H1576 C1583 0.950 . S
C1577 C1575 1.387 . S
C1577 C1579 1.390 . S
C1577 H1581 0.950 . S
H1578 C1574 0.950 . S
C1579 C1577 1.390 . S
C1579 C1580 1.387 . S
C1579 H1582 0.950 . S
C1580 C1579 1.387 . S
C1580 C1583 1.387 . S
H1581 C1577 0.950 . S
H1582 C1579 0.950 . S
C1583 C1574 1.390 . S
C1583 H1576 0.950 . S
C1583 C1580 1.387 . S
C1584 C1585 1.387 . S
C1584 H1588 0.950 . S
C1584 C1593 1.390 . S
C1585 C1584 1.387 . S
C1585 C1587 1.387 . S
H1586 C1593 0.950 . S
C1587 C1585 1.387 . S
C1587 C1589 1.390 . S
C1587 H1591 0.950 . S
H1588 C1584 0.950 . S
C1589 C1587 1.390 . S
C1589 C1590 1.387 . S
C1589 H1592 0.950 . S
C1590 C1589 1.387 . S
C1590 C1593 1.387 . S
H1591 C1587 0.950 . S
H1592 C1589 0.950 . S
C1593 C1584 1.390 . S
C1593 H1586 0.950 . S
C1593 C1590 1.387 . S
C1594 C1595 1.387 . S
C1594 H1598 0.950 . S
C1594 C1603 1.390 . S
C1595 C1594 1.387 . S
C1595 C1597 1.387 . S
H1596 C1603 0.950 . S
C1597 C1595 1.387 . S
C1597 C1599 1.390 . S
C1597 H1601 0.950 . S
H1598 C1594 0.950 . S
C1599 C1597 1.390 . S
C1599 C1600 1.387 . S
C1599 H1602 0.950 . S
C1600 C1599 1.387 . S
C1600 C1603 1.387 . S
H1601 C1597 0.950 . S
H1602 C1599 0.950 . S
C1603 C1594 1.390 . S
C1603 H1596 0.950 . S
C1603 C1600 1.387 . S
C1604 C1605 1.387 . S
C1604 H1608 0.950 . S
C1604 C1613 1.390 . S
C1605 C1604 1.387 . S
C1605 C1607 1.387 . S
H1606 C1613 0.950 . S
C1607 C1605 1.387 . S
C1607 C1609 1.390 . S
C1607 H1611 0.950 . S
H1608 C1604 0.950 . S
C1609 C1607 1.390 . S
C1609 C1610 1.387 . S
C1609 H1612 0.950 . S
C1610 C1609 1.387 . S
C1610 C1613 1.387 . S
H1611 C1607 0.950 . S
H1612 C1609 0.950 . S
C1613 C1604 1.390 . S
C1613 H1606 0.950 . S
C1613 C1610 1.387 . S
C1614 C1615 1.387 . S
C1614 H1618 0.950 . S
C1614 C1623 1.390 . S
C1615 C1614 1.387 . S
C1615 C1617 1.387 1_556 S
H1616 C1623 0.950 . S
C1617 C1615 1.387 1_554 S
C1617 C1619 1.390 . S
C1617 H1621 0.950 . S
H1618 C1614 0.950 . S
C1619 C1617 1.390 . S
C1619 C1620 1.387 1_554 S
C1619 H1622 0.950 . S
C1620 C1619 1.387 1_556 S
C1620 C1623 1.387 . S
H1621 C1617 0.950 . S
H1622 C1619 0.950 . S
C1623 C1614 1.390 . S
C1623 H1616 0.950 . S
C1623 C1620 1.387 . S
C1624 C1625 1.387 . S
C1624 H1628 0.950 . S
C1624 C1633 1.390 . S
C1625 C1624 1.387 . S
C1625 C1627 1.387 . S
H1626 C1633 0.950 . S
C1627 C1625 1.387 . S
C1627 C1629 1.390 . S
C1627 H1631 0.950 . S
H1628 C1624 0.950 . S
C1629 C1627 1.390 . S
C1629 C1630 1.387 . S
C1629 H1632 0.950 . S
C1630 C1629 1.387 . S
C1630 C1633 1.387 . S
H1631 C1627 0.950 . S
H1632 C1629 0.950 . S
C1633 C1624 1.390 . S
C1633 H1626 0.950 . S
C1633 C1630 1.387 . S
C1634 C1635 1.387 1_556 S
C1634 H1638 0.950 . S
C1634 C1643 1.380 1_556 S
C1635 C1634 1.387 1_554 S
C1635 C1637 1.387 . S
H1636 C1643 0.933 1_556 S
C1637 C1635 1.387 . S
C1637 C1639 1.390 . S
C1637 H1641 0.950 . S
H1638 C1634 0.950 . S
C1639 C1637 1.390 . S
C1639 C1640 1.387 . S
C1639 H1642 0.950 . S
C1640 C1639 1.387 . S
C1640 C1643 1.415 . S
H1641 C1637 0.950 . S
H1642 C1639 0.950 . S
C1643 C1634 1.380 1_554 S
C1643 H1636 0.933 1_554 S
C1643 C1640 1.415 . S
C1644 C1645 1.387 . S
C1644 H1648 0.950 . S
C1644 C1653 1.390 . S
C1645 C1644 1.387 . S
C1645 C1647 1.387 . S
H1646 C1653 0.950 . S
C1647 C1645 1.387 . S
C1647 C1649 1.390 . S
C1647 H1651 0.950 . S
H1648 C1644 0.950 . S
C1649 C1647 1.390 . S
C1649 C1650 1.387 . S
C1649 H1652 0.950 . S
C1650 C1649 1.387 . S
C1650 C1653 1.387 . S
H1651 C1647 0.950 . S
H1652 C1649 0.950 . S
C1653 C1644 1.390 . S
C1653 H1646 0.950 . S
C1653 C1650 1.387 . S
C1654 C1655 1.387 . S
C1654 H1658 0.950 . S
C1654 C1663 1.390 . S
C1655 C1654 1.387 . S
C1655 C1657 1.387 . S
H1656 C1663 0.950 . S
C1657 C1655 1.387 . S
C1657 C1659 1.390 . S
C1657 H1661 0.950 . S
H1658 C1654 0.950 . S
C1659 C1657 1.390 . S
C1659 C1660 1.387 . S
C1659 H1662 0.950 . S
C1660 C1659 1.387 . S
C1660 C1663 1.387 . S
H1661 C1657 0.950 . S
H1662 C1659 0.950 . S
C1663 C1654 1.390 . S
C1663 H1656 0.950 . S
C1663 C1660 1.387 . S
C710 C352 1.282 . S
C705 C7 1.326 . S
C715 C22 1.549 . S
C720 C380 1.397 . S
C725 C31 1.320 . S
C730 C398 1.278 . S
C740 C424 1.397 . S
C735 C51 1.614 . S
C745 C17 1.631 . S
C750 C447 1.420 . S
C760 C467 1.233 . S
C755 C36 1.275 . S
C770 C495 1.454 . S
C765 C49 1.584 . S
C775 C9 1.300 . S
C780 C513 1.263 . S
C785 C63 1.448 . S
C790 C354 1.493 1_545 S
C795 C73 1.289 . S
C800 C376 1.244 . S
C810 C400 1.504 . S
C805 C91 1.460 1_545 S
C820 C421 1.270 . S
C815 C101 1.310 . S
C825 C59 1.325 . S
C830 C444 1.283 . S
C840 C469 1.490 . S
C835 C77 1.446 . S
C850 C491 1.244 . S
C845 C87 1.290 . S
C860 C515 1.491 . S
C855 C105 1.445 . S
C870 C355 1.140 . S
C865 C107 1.297 . S
C880 C538 1.305 . S
C875 C120 1.299 . S
C885 C135 1.306 . S
C890 C562 1.126 . S
C900 C586 1.244 . S
C895 C148 1.284 . S
C905 C65 1.279 . S
C910 C516 1.104 . S
C920 C401 1.151 . S
C915 C79 1.326 . S
C925 C134 1.258 . S
C930 C607 1.268 . S
C940 C632 1.215 . S
C935 C162 1.257 . S
C945 C171 1.312 . S
C950 C353 1.283 . S
C960 C630 1.199 . S
C955 C190 1.188 . S
C965 C203 1.259 . S
C970 C399 1.287 . S
C975 C219 1.185 . S
C980 C609 1.142 . S
C990 C448 1.162 . S
C985 C189 1.173 . S
C1000 C560 1.243 . S
C995 C204 1.262 . S
C1010 C492 1.248 . S
C1005 C213 1.235 . S
C1020 C652 1.269 . S
C1015 C177 1.308 . S
C1030 C357 1.119 . S
C1025 C227 1.227 . S
C1035 C245 1.378 . S
C1040 C628 1.401 . S
C1050 C403 1.130 . S
C1045 C255 1.236 1_565 S
C1055 C273 1.368 . S
C1060 C606 1.391 . S
C1065 C231 1.377 . S
C1070 C445 1.399 . S
C1075 C241 1.230 . S
C1080 C564 1.125 . S
C1090 C490 1.397 . S
C1085 C259 1.374 . S
C1095 C269 1.224 . S
C1100 C656 1.118 . S
C1105 C275 1.440 . S
C1110 C356 1.378 . S
C1115 C288 1.404 1_556 S
C1120 C541 1.297 . S
C1125 C303 1.418 . S
C1130 C471 1.355 . S
C1135 C316 1.398 . S
C1140 C585 1.243 . S
C1150 C655 1.348 . S
C1145 C233 1.409 . S
C1160 C402 1.386 . S
C1155 C247 1.451 . S
C1170 C426 1.270 . S
C1165 C302 1.370 . S
C1180 C378 1.218 . S
C1175 C330 1.370 . S
C1185 C35 1.319 . S
C1190 C674 1.285 . S
C1200 C633 1.402 . S
C1195 C50 1.551 . S
C1210 C697 1.278 . S
C1205 C3 1.319 . S
C1215 C23 1.613 . S
C1220 C608 1.396 . S
C1225 C45 1.629 . S
C1230 C539 1.420 . S
C1240 C559 1.237 . S
C1235 C8 1.277 . S
C1250 C587 1.451 . S
C1245 C21 1.585 . S
C1260 C651 1.265 . S
C1255 C37 1.300 . S
C1270 C676 1.491 . S
C1265 C161 1.445 . S
C1275 C115 1.291 . S
C1280 C629 1.248 . S
C1285 C133 1.459 . S
C1290 C699 1.504 . S
C1300 C605 1.272 . S
C1295 C143 1.311 . S
C1310 C536 1.281 . S
C1305 C157 1.324 . S
C1315 C119 1.446 . S
C1320 C561 1.490 . S
C1330 C583 1.242 . S
C1325 C129 1.287 . S
C1335 C147 1.444 . S
C1340 C653 1.490 . S
C1350 C677 1.131 . S
C1345 C149 1.298 . S
C1360 C446 1.305 . S
C1355 C78 1.298 . S
C1370 C470 1.131 . S
C1365 C93 1.306 . S
C1375 C106 1.284 . S
C1380 C494 1.244 . S
C1390 C654 1.110 . S
C1385 C163 1.280 . S
C1395 C121 1.326 . S
C1400 C700 1.151 . S
C1410 C423 1.268 . S
C1405 C92 1.258 . S
C1420 C379 1.211 . S
C1415 C64 1.255 . S
C1425 C199 1.312 . S
C1430 C675 1.284 . S
C1440 C377 1.199 . S
C1435 C218 1.185 . S
C1450 C698 1.286 . S
C1445 C175 1.258 1_455 S
C1455 C191 1.184 . S
C1460 C425 1.141 . S
C1465 C217 1.172 . S
C1470 C540 1.161 . S
C1475 C176 1.262 . S
C1480 C468 1.243 . S
C1485 C185 1.233 . S
C1490 C584 1.247 . S
C1495 C205 1.308 . S
C1500 C514 1.268 . S
C1510 C679 1.117 . S
C1505 C325 1.226 . S
C1515 C287 1.377 . S
C1520 C375 1.400 . S
C1530 C702 1.129 . S
C1525 C297 1.235 . S
C1535 C315 1.365 . S
C1540 C422 1.388 . S
C1545 C329 1.375 . S
C1550 C537 1.398 . S
C1560 C472 1.119 . S
C1555 C283 1.227 . S
C1565 C301 1.375 . S
C1570 C582 1.398 . S
C1580 C518 1.124 . S
C1575 C311 1.227 . S
C1590 C678 1.379 . S
C1585 C317 1.440 . S
C1600 C449 1.301 . S
C1595 C246 1.406 . S
C1605 C261 1.417 . S
C1610 C563 1.351 . S
C1620 C493 1.240 . S
C1615 C274 1.396 1_556 S
C1630 C517 1.348 . S
C1625 C331 1.409 . S
C1635 C289 1.457 . S
C1640 C701 1.386 . S
C1650 C610 1.273 . S
C1645 C260 1.374 . S
C1660 C631 1.217 . S
C1655 C232 1.368 . S
