# Generated by pormake.
# Topology scu, (8,4)-cn, num edge types: 1
# Building blocks:
#     Node 0, Type 0, BuildingBlock: GIZVER_clean_sbu_0, # of connection points: 8
#     Node 1, Type 1, BuildingBlock: ESEHIV_clean_sbu_0, # of connection points: 4
#     Node 2, Type 1, BuildingBlock: ESEHIV_clean_sbu_0, # of connection points: 4
#     Edge 3, Type (0, 1), BuildingBlock: FUNLAD_clean_linker_1, # of connection points: 2
#     Edge 4, Type (0, 1), BuildingBlock: FUNLAD_clean_linker_1, # of connection points: 2
#     Edge 5, Type (0, 1), BuildingBlock: FUNLAD_clean_linker_1, # of connection points: 2
#     Edge 6, Type (0, 1), BuildingBlock: FUNLAD_clean_linker_1, # of connection points: 2
#     Edge 7, Type (0, 1), BuildingBlock: FUNLAD_clean_linker_1, # of connection points: 2
#     Edge 8, Type (0, 1), BuildingBlock: FUNLAD_clean_linker_1, # of connection points: 2
#     Edge 9, Type (0, 1), BuildingBlock: FUNLAD_clean_linker_1, # of connection points: 2
#     Edge 10, Type (0, 1), BuildingBlock: FUNLAD_clean_linker_1, # of connection points: 2
# Relax obj value: 0.031
# Max RMSD: 0.139
# Mean RMSD: 0.115
data_MOF--net-scu--node1-GIZVER_clean_sbu_0--node2-ESEHIV_clean_sbu_0--edge1-FUNLAD_clean_linker_1
_symmetry_space_group_name_H-M    P1
_symmetry_Int_Tables_number       1
_symmetry_cell_setting            triclinic
loop_
_symmetry_equiv_pos_as_xyz
'x, y, z'
_cell_length_a     26.014625
_cell_length_b     26.492905
_cell_length_c     22.735581
_cell_angle_alpha  103.38127
_cell_angle_beta   85.197684
_cell_angle_gamma 112.3092
loop_
_atom_site_label
_atom_site_type_symbol
_atom_site_fract_x
_atom_site_fract_y
_atom_site_fract_z
_atom_type_partial_charge
Co0 Co 0.02661 0.96995 0.14206 0.0
Co1 Co 0.07999 0.07023 0.16593 0.0
Co2 Co 0.01904 0.05717 0.04795 0.0
O3 O 0.05772 1.02438 0.09212 0.0
H4 H 0.08931 1.01938 0.06971 0.0
O5 O 0.98352 0.09316 1.00498 0.0
Co6 Co 0.01163 0.10977 0.92864 0.0
Co7 Co 0.91889 0.04676 0.96563 0.0
H8 H 0.97725 0.12437 1.03176 0.0
O9 O 0.15034 0.08716 0.18804 0.0
O10 O 0.07033 1.02298 0.21538 0.0
O11 O 0.04796 0.12542 0.19278 0.0
O12 O 0.05487 0.13594 0.09839 0.0
O13 O 0.08284 0.06917 0.98991 0.0
O14 O 0.03759 0.13125 0.8603 0.0
O15 O 0.99894 0.17393 0.93857 0.0
O16 O 0.03079 0.0457 0.90868 0.0
O17 O 0.98269 0.97819 0.99693 0.0
O18 O 0.90449 0.96913 0.95358 0.0
O19 O 0.93714 0.06587 0.89103 0.0
O20 O 0.86666 0.07447 0.9524 0.0
C21 C 0.04775 0.90877 0.16271 0.0
C22 C 0.94019 1.0211 0.14892 0.0
C23 C 0.04591 0.15247 0.15446 0.0
C24 C 0.12413 0.05078 0.22078 0.0
C25 C 0.02281 0.17287 0.88561 0.0
C26 C 0.07385 0.04819 0.93358 0.0
C27 C 0.93851 0.94876 0.965 0.0
C28 C 0.89295 0.07848 0.90147 0.0
O29 O 1.00289 0.91674 0.18458 0.0
O30 O 0.07894 0.93911 0.12597 0.0
O31 O 0.95441 0.04447 0.10396 0.0
O32 O 0.96668 0.99481 0.16526 0.0
Cu33 Cu 1.00419 0.54903 0.55103 0.0
N34 N 0.04483 0.52913 0.59895 0.0
N35 N 0.05647 0.48176 0.66281 0.0
C36 C 0.01979 0.49114 0.63278 0.0
C37 C 0.1071 0.51554 0.64765 0.0
C38 C 0.09971 0.545 0.60814 0.0
O39 O 0.95953 0.4779 0.49997 0.0
C40 C 0.98899 0.63629 0.6353 0.0
O41 O 0.04034 0.6621 0.61922 0.0
H42 H 0.97514 0.47011 0.63472 0.0
H43 H 0.13196 0.5755 0.58761 0.0
N44 N 0.0487 0.5965 0.50157 0.0
N45 N 0.06972 0.65345 0.43692 0.0
C46 C 0.03406 0.63213 0.47941 0.0
C47 C 0.09553 0.59541 0.47221 0.0
C48 C 0.10879 0.63072 0.43237 0.0
C49 C 0.95371 0.47002 0.44313 0.0
O50 O 0.96785 0.51316 0.4178 0.0
H51 H 0.99609 0.63973 0.49163 0.0
H52 H 0.1168 0.56854 0.47694 0.0
O53 O 0.96275 0.58582 0.6086 0.0
H54 H 0.14648 0.51892 0.66378 0.0
H55 H 0.14314 0.63714 0.40102 0.0
Cu56 Cu 0.51075 0.03489 0.54712 0.0
N57 N 0.46031 0.99843 0.60118 0.0
N58 N 0.39602 0.98829 0.67351 0.0
C59 C 0.42904 1.02219 0.63853 0.0
C60 C 0.40705 0.94106 0.65806 0.0
C61 C 0.44717 0.94761 0.6134 0.0
O62 O 0.47407 0.07138 0.51017 0.0
C63 C 0.61034 0.06388 0.60429 0.0
O64 O 0.59918 1.01049 0.5817 0.0
H65 H 0.43024 0.06373 0.63973 0.0
H66 H 0.46564 0.9177 0.59186 0.0
N67 N 0.53123 0.98686 0.48423 0.0
N68 N 0.58423 0.95983 0.41117 0.0
C69 C 0.57772 1.00323 0.45133 0.0
C70 C 0.50691 0.93127 0.46368 0.0
C71 C 0.53985 0.91444 0.41878 0.0
C72 C 0.42678 0.03949 0.48689 0.0
O73 O 0.40743 0.98652 0.4898 0.0
H74 H 0.60716 0.04592 0.45888 0.0
H75 H 0.46856 0.90475 0.48074 0.0
O76 O 0.5767 0.08553 0.59432 0.0
H77 H 0.38813 0.9048 0.67781 0.0
H78 H 0.53236 0.87204 0.39429 0.0
H79 H 0.03178 0.22698 0.14232 0.0
C80 C 0.03297 0.20351 0.17523 0.0
H81 H 0.01882 0.19453 0.26575 0.0
H82 H 0.04925 0.45953 0.30955 0.0
H83 H 0.14177 0.47668 0.26905 0.0
H84 H 0.17177 0.3985 0.22314 0.0
H85 H 0.10925 0.30277 0.21724 0.0
C86 C 0.01994 0.2194 0.23341 0.0
C87 C 1.00097 0.26693 0.25563 0.0
C88 C 0.03813 0.32285 0.25841 0.0
C89 C 0.02098 0.36799 0.28568 0.0
C90 C 0.05949 0.42346 0.28897 0.0
C91 C 0.11302 0.43403 0.26609 0.0
C92 C 0.12988 0.39003 0.2402 0.0
C93 C 0.09326 0.3351 0.23668 0.0
H94 H 0.94445 0.38184 0.42878 0.0
C95 C 0.94631 0.4141 0.40561 0.0
H96 H 0.95605 0.43799 0.32192 0.0
H97 H 0.91871 0.1647 0.25574 0.0
H98 H 0.82608 0.14742 0.29689 0.0
H99 H 0.79614 0.22567 0.343 0.0
H100 H 0.85897 0.32182 0.3487 0.0
C101 C 0.95219 0.40519 0.34513 0.0
C102 C 0.96704 0.35721 0.31111 0.0
C103 C 0.92942 0.30127 0.30679 0.0
C104 C 0.94652 0.25614 0.27945 0.0
C105 C 0.9082 0.20065 0.2764 0.0
C106 C 0.85474 0.19007 0.29958 0.0
C107 C 0.83791 0.23414 0.32559 0.0
C108 C 0.87451 0.28914 0.32897 0.0
H109 H 0.86889 0.04814 0.16822 0.0
C110 C 0.8901 1.0246 0.18245 0.0
H111 H 0.89065 0.97654 0.24459 0.0
H112 H 0.74386 0.06629 0.44274 0.0
H113 H 0.83482 0.11472 0.48972 0.0
H114 H 0.91932 0.11337 0.43249 0.0
H115 H 0.91325 0.06292 0.32804 0.0
C116 C 0.86925 0.9989 0.22843 0.0
C117 C 0.8183 1.00277 0.26096 0.0
C118 C 0.82254 0.03301 0.32171 0.0
C119 C 0.77388 0.03479 0.35425 0.0
C120 C 0.7794 0.06427 0.4154 0.0
C121 C 0.83142 0.09222 0.44305 0.0
C122 C 0.87898 0.09138 0.41087 0.0
C123 C 0.87486 0.06212 0.35097 0.0
H124 H 0.6345 0.91989 0.35156 0.0
C125 C 0.63084 0.95973 0.37216 0.0
H126 H 0.6675 0.04735 0.38128 0.0
H127 H 0.79475 0.93873 0.14578 0.0
H128 H 0.70491 0.89706 0.09602 0.0
H129 H 0.62182 0.90739 0.1496 0.0
H130 H 0.62796 0.95839 0.25374 0.0
C131 C 0.67018 1.00713 0.36111 0.0
C132 C 0.72102 1.0069 0.32568 0.0
C133 C 0.71711 0.97909 0.26389 0.0
C134 C 0.76557 0.97571 0.23198 0.0
C135 C 0.75984 0.94467 0.1715 0.0
C136 C 0.70839 0.92021 0.14243 0.0
C137 C 0.66158 0.92583 0.17267 0.0
C138 C 0.66562 0.95486 0.23265 0.0
H139 H 0.10207 0.8614 0.16308 0.0
C140 C 0.06542 0.86866 0.18319 0.0
H141 H 1.00231 0.85101 0.24863 0.0
H142 H 1.00822 0.6296 0.293 0.0
H143 H 0.92523 0.59303 0.23091 0.0
H144 H 0.90207 0.65358 0.17862 0.0
H145 H 0.962 0.75103 0.1878 0.0
C146 C 0.0394 0.84441 0.22898 0.0
C147 C 0.05781 0.80671 0.25418 0.0
C148 C 0.02231 0.74989 0.24869 0.0
C149 C 0.0353 0.71511 0.27946 0.0
C150 C 0.99963 0.65824 0.27193 0.0
C151 C 0.95204 0.63659 0.23606 0.0
C152 C 0.93902 0.67067 0.2066 0.0
C153 C 0.97365 0.72661 0.21249 0.0
H154 H 0.02727 0.70211 0.41152 0.0
C155 C 0.06206 0.68834 0.40092 0.0
H156 H 0.13026 0.69088 0.3422 0.0
H157 H 0.13551 0.91372 0.27508 0.0
H158 H 0.21904 0.94902 0.33505 0.0
H159 H 0.24244 0.88855 0.38695 0.0
H160 H 0.18148 0.79155 0.37913 0.0
C161 C 0.0945 0.70277 0.35353 0.0
C162 C 0.08343 0.7374 0.31657 0.0
C163 C 0.12033 0.79341 0.31983 0.0
C164 C 0.10731 0.82831 0.28914 0.0
C165 C 0.14363 0.88486 0.29602 0.0
C166 C 0.19182 0.9059 0.33072 0.0
C167 C 0.20491 0.87176 0.35994 0.0
C168 C 0.16961 0.81618 0.35496 0.0
H169 H 0.1352 1.00839 0.28937 0.0
C170 C 0.1557 0.04245 0.26632 0.0
H171 H 0.22992 0.10944 0.25534 0.0
H172 H 0.27878 0.05594 0.513 0.0
H173 H 0.20179 0.08321 0.55491 0.0
H174 H 0.14452 0.10418 0.49001 0.0
H175 H 0.16341 0.0976 0.38283 0.0
C176 C 0.20918 0.07579 0.27893 0.0
C177 C 0.24409 0.06498 0.31941 0.0
C178 C 0.2331 0.07032 0.38229 0.0
C179 C 0.26685 0.05936 0.41999 0.0
C180 C 0.25447 0.06392 0.48241 0.0
C181 C 0.21054 0.07965 0.50706 0.0
C182 C 0.17825 0.09142 0.4705 0.0
C183 C 0.18934 0.08712 0.40889 0.0
H184 H 0.41435 0.10211 0.44556 0.0
C185 C 0.395 0.06029 0.45423 0.0
H186 H 0.32333 0.98598 0.44295 0.0
H187 H 0.27699 0.05151 0.20084 0.0
H188 H 0.35453 1.02547 0.15962 0.0
H189 H 0.41357 1.00754 0.22535 0.0
H190 H 0.39541 1.01566 0.3327 0.0
C191 C 0.34357 1.0273 0.43316 0.0
C192 C 0.31223 0.04448 0.39509 0.0
C193 C 0.32408 0.04049 0.33255 0.0
C194 C 0.29 0.0508 0.29468 0.0
C195 C 0.30187 0.04496 0.23201 0.0
C196 C 0.34616 0.02975 0.20761 0.0
C197 C 0.37937 1.01964 0.2446 0.0
C198 C 0.36855 1.02465 0.30627 0.0
H199 H 0.90504 0.87812 0.88901 0.0
C200 C 0.93198 0.89282 0.92843 0.0
H201 H 0.99027 0.87907 0.97455 0.0
H202 H 0.8758 0.68299 0.71911 0.0
H203 H 0.78629 0.66859 0.76728 0.0
H204 H 0.77935 0.71882 0.87172 0.0
H205 H 0.86223 0.78588 0.92744 0.0
C206 C 0.96318 0.8641 0.93536 0.0
C207 C 0.96838 0.81865 0.88451 0.0
C208 C 0.92038 0.77549 0.85484 0.0
C209 C 0.92488 0.74277 0.79671 0.0
C210 C 0.87544 0.70582 0.765 0.0
C211 C 0.8236 0.69759 0.79194 0.0
C212 C 0.81965 0.7261 0.85059 0.0
C213 C 0.86735 0.76473 0.88184 0.0
H214 H 0.93875 0.63621 0.71882 0.0
C215 C 0.96658 0.66274 0.69044 0.0
H216 H 0.01324 0.74401 0.67913 0.0
H217 H 0.07059 0.89128 0.93289 0.0
H218 H 0.16011 0.89448 0.89281 0.0
H219 H 0.16852 0.83144 0.79755 0.0
H220 H 0.08663 0.76349 0.7422 0.0
C221 C 0.98518 0.71879 0.7086 0.0
C222 C 0.97811 0.74887 0.77129 0.0
C223 C 0.02647 0.78692 0.80485 0.0
C224 C 0.02169 0.82258 0.86077 0.0
C225 C 0.071 0.86224 0.89101 0.0
C226 C 0.12312 0.86496 0.86829 0.0
C227 C 0.12781 0.82927 0.81474 0.0
C228 C 0.0803 0.79067 0.78324 0.0
H229 H 0.09554 0.99394 0.85509 0.0
C230 C 0.11215 1.02522 0.89615 0.0
H231 H 0.18396 0.07699 0.94813 0.0
H232 H 0.33617 0.94137 0.84003 0.0
H233 H 0.33275 0.93859 0.94624 0.0
H234 H 0.271 0.97491 1.01639 0.0
H235 H 0.21241 1.01436 0.98094 0.0
C236 C 0.16697 0.04539 0.90744 0.0
C237 C 0.20568 1.02521 0.86509 0.0
C238 C 0.2396 1.00207 0.88657 0.0
C239 C 0.27484 0.98052 0.84597 0.0
C240 C 0.30845 0.95801 0.86878 0.0
C241 C 0.3069 0.95615 0.92966 0.0
C242 C 0.27218 0.97665 0.96917 0.0
C243 C 0.23886 0.99939 0.94819 0.0
H244 H 0.35965 0.04547 0.72724 0.0
C245 C 0.35761 1.00253 0.71712 0.0
H246 H 0.31407 0.92181 0.73429 0.0
H247 H 0.15693 0.07858 0.81047 0.0
H248 H 0.15609 0.07603 0.70343 0.0
H249 H 0.2067 1.02671 0.63119 0.0
H250 H 0.26021 0.98176 0.66614 0.0
C251 C 0.31723 0.9649 0.74274 0.0
C252 C 0.27625 0.98221 0.78398 0.0
C253 C 0.2413 1.00406 0.76219 0.0
C254 C 0.20821 0.0281 0.80315 0.0
C255 C 0.17922 0.05569 0.78095 0.0
C256 C 0.17899 0.05525 0.71958 0.0
C257 C 0.20776 0.02785 0.67898 0.0
C258 C 0.23869 1.00259 0.69977 0.0
H259 H 0.05772 0.21572 0.81144 0.0
C260 C 0.03306 0.21733 0.85241 0.0
H261 H 0.98881 0.26128 0.91014 0.0
H262 H 0.12187 0.48766 0.82371 0.0
H263 H 0.14897 0.513 0.92926 0.0
H264 H 0.12041 0.44207 0.99155 0.0
H265 H 0.06429 0.34543 0.94885 0.0
C266 C 0.01273 0.25812 0.86886 0.0
C267 C 0.02574 0.30168 0.83243 0.0
C268 C 0.0585 0.35805 0.8581 0.0
C269 C 0.07559 0.39886 0.82194 0.0
C270 C 0.10819 0.45485 0.84889 0.0
C271 C 0.124 0.47001 0.90946 0.0
C272 C 0.10788 0.43008 0.94454 0.0
C273 C 0.0756 0.37471 0.91942 0.0
H274 H 0.99757 0.42225 0.71135 0.0
C275 C 0.04136 0.44214 0.7013 0.0
H276 H 0.12237 0.44593 0.71434 0.0
H277 H 0.95594 0.19933 0.77126 0.0
H278 H 0.92974 0.17364 0.66562 0.0
H279 H 0.96477 0.24269 0.60106 0.0
H280 H 0.02541 0.33797 0.64209 0.0
C281 C 0.07828 0.42645 0.72261 0.0
C282 C 0.05987 0.38335 0.76016 0.0
C283 C 0.02643 0.32702 0.7346 0.0
C284 C 1.00838 0.28648 0.77109 0.0
C285 C 0.97287 0.23126 0.7451 0.0
C286 C 0.95712 0.21599 0.68454 0.0
C287 C 0.97657 0.25493 0.64831 0.0
C288 C 0.01103 0.30972 0.67268 0.0
H289 H 0.88528 0.08242 0.80686 0.0
C290 C 0.86878 0.09013 0.85216 0.0
H291 H 0.80632 0.11133 0.90548 0.0
H292 H 0.76081 0.18087 0.66135 0.0
H293 H 0.83121 0.27089 0.70488 0.0
H294 H 0.88251 0.28339 0.79701 0.0
H295 H 0.86503 0.20546 0.84523 0.0
C296 C 0.8239 0.10432 0.86066 0.0
C297 C 0.7904 0.09898 0.80828 0.0
C298 C 0.80046 0.14503 0.7814 0.0
C299 C 0.76972 0.13819 0.72925 0.0
C300 C 0.78206 0.18422 0.70182 0.0
C301 C 0.82237 0.23601 0.72629 0.0
C302 C 0.85129 0.24305 0.77818 0.0
C303 C 0.84092 0.19809 0.80539 0.0
H304 H 0.65152 0.12692 0.68564 0.0
C305 C 0.65587 0.09446 0.64873 0.0
H306 H 0.70055 0.04304 0.61189 0.0
H307 H 0.75817 1.00344 0.8521 0.0
H308 H 0.68538 0.91475 0.81161 0.0
H309 H 0.63059 0.90317 0.72262 0.0
H310 H 0.64838 0.98003 0.67359 0.0
C311 C 0.69724 0.07585 0.64911 0.0
C312 C 0.72819 0.08561 0.70525 0.0
C313 C 0.71681 0.04011 0.73369 0.0
C314 C 0.748 0.04682 0.78519 0.0
C315 C 0.73587 1.00068 0.81266 0.0
C316 C 0.69407 0.94948 0.78999 0.0
C317 C 0.66327 0.94296 0.7399 0.0
C318 C 0.67419 0.98753 0.71199 0.0
loop_
_geom_bond_atom_site_label_1
_geom_bond_atom_site_label_2
_geom_bond_distance
_geom_bond_site_symmetry_2
_ccdc_geom_bond_type
Co0 O3 2.044 . S
Co0 O10 2.264 1_565 S
Co0 O29 2.286 1_455 S
Co0 O30 2.069 . S
Co0 O32 2.015 1_455 S
Co1 O3 2.121 1_545 S
Co1 O9 2.073 . S
Co1 O10 2.327 . S
Co1 O11 1.976 . S
Co2 O3 2.085 1_545 S
Co2 O5 2.087 1_454 S
Co2 O12 2.111 . S
Co2 O13 2.143 1_554 S
Co2 O17 2.111 1_444 S
Co2 O31 2.143 1_445 S
O3 Co0 2.044 . S
O3 Co1 2.121 1_565 S
O3 Co2 2.085 1_565 S
O3 H4 0.982 . S
H4 O3 0.982 . S
O5 Co2 2.087 1_656 S
O5 Co6 2.039 1_655 S
O5 Co7 2.122 1_545 S
O5 H8 0.980 . S
Co6 O5 2.039 1_455 S
Co6 O14 2.287 . S
Co6 O15 2.058 1_455 S
Co6 O16 2.029 . S
Co6 O19 2.254 1_455 S
Co7 O5 2.122 1_565 S
Co7 O18 1.976 . S
Co7 O19 2.327 1_565 S
Co7 O20 2.073 . S
H8 O5 0.980 . S
O9 Co1 2.073 . S
O9 C24 1.245 . S
O10 Co0 2.264 1_545 S
O10 Co1 2.327 . S
O10 C24 1.257 . S
O11 Co1 1.976 . S
O11 C23 1.251 . S
O12 Co2 2.111 . S
O12 C23 1.274 . S
O13 Co2 2.143 1_556 S
O13 C26 1.246 . S
O14 Co6 2.287 . S
O14 C25 1.259 1_455 S
O15 Co6 2.058 1_655 S
O15 C25 1.289 . S
O16 Co6 2.029 . S
O16 C26 1.257 . S
O17 Co2 2.111 1_666 S
O17 C27 1.274 . S
O18 Co7 1.976 . S
O18 C27 1.251 . S
O19 Co6 2.254 1_655 S
O19 Co7 2.327 1_545 S
O19 C28 1.257 . S
O20 Co7 2.073 . S
O20 C28 1.245 1_565 S
C21 O29 1.259 1_455 S
C21 O30 1.289 . S
C22 O31 1.247 1_545 S
C22 O32 1.248 1_545 S
C23 O11 1.251 . S
C23 O12 1.274 . S
C24 O9 1.245 . S
C24 O10 1.257 . S
C25 O14 1.259 1_655 S
C25 O15 1.289 . S
C26 O13 1.246 . S
C26 O16 1.257 . S
C27 O17 1.274 . S
C27 O18 1.251 . S
C28 O19 1.257 . S
C28 O20 1.245 1_545 S
O29 Co0 2.286 1_655 S
O29 C21 1.259 1_655 S
O30 Co0 2.069 . S
O30 C21 1.289 . S
O31 Co2 2.143 1_665 S
O31 C22 1.247 1_565 S
O32 Co0 2.015 1_655 S
O32 C22 1.248 1_565 S
Cu33 N34 1.999 . S
Cu33 O39 1.974 . S
Cu33 N44 1.985 . S
Cu33 O53 1.959 . S
N34 Cu33 1.999 . S
N34 C36 1.263 . S
N34 C38 1.389 . S
N35 C36 1.358 . S
N35 C37 1.400 . S
C36 N34 1.263 . S
C36 N35 1.358 . S
C36 H42 0.930 1_655 S
C37 N35 1.400 . S
C37 C38 1.351 . S
C37 H54 0.930 . S
C38 N34 1.389 . S
C38 C37 1.351 . S
C38 H43 0.930 . S
O39 Cu33 1.974 . S
O39 C49 1.282 1_655 S
C40 O41 1.261 . S
C40 O53 1.251 1_455 S
O41 C40 1.261 . S
H42 C36 0.930 1_455 S
H43 C38 0.930 . S
N44 Cu33 1.985 . S
N44 C46 1.335 . S
N44 C47 1.390 1_655 S
N45 C46 1.345 . S
N45 C48 1.336 1_655 S
C46 N44 1.335 . S
C46 N45 1.345 . S
C46 H51 0.930 . S
C47 N44 1.390 1_455 S
C47 C48 1.346 . S
C47 H52 0.930 . S
C48 N45 1.336 1_455 S
C48 C47 1.346 . S
C48 H55 0.929 . S
C49 O39 1.282 1_455 S
C49 O50 1.216 . S
O50 C49 1.216 . S
H51 C46 0.930 . S
H52 C47 0.930 . S
O53 Cu33 1.959 . S
O53 C40 1.251 1_655 S
H54 C37 0.930 . S
H55 C48 0.929 . S
Cu56 N57 1.999 . S
Cu56 O62 1.974 . S
Cu56 N67 1.985 . S
Cu56 O76 1.959 . S
N57 Cu56 1.999 . S
N57 C59 1.263 . S
N57 C61 1.389 . S
N58 C59 1.358 . S
N58 C60 1.400 . S
C59 N57 1.263 . S
C59 N58 1.358 . S
C59 H65 0.930 . S
C60 N58 1.400 . S
C60 C61 1.351 . S
C60 H77 0.930 . S
C61 N57 1.389 . S
C61 C60 1.351 . S
C61 H66 0.930 . S
O62 Cu56 1.974 . S
O62 C72 1.282 1_545 S
C63 O64 1.260 1_545 S
C63 O76 1.253 . S
O64 C63 1.260 1_565 S
H65 C59 0.930 . S
H66 C61 0.930 . S
N67 Cu56 1.985 . S
N67 C69 1.335 . S
N67 C70 1.390 . S
N68 C69 1.345 . S
N68 C71 1.336 . S
C69 N67 1.335 . S
C69 N68 1.345 . S
C69 H74 0.930 . S
C70 N67 1.390 . S
C70 C71 1.346 . S
C70 H75 0.930 1_545 S
C71 N68 1.336 . S
C71 C70 1.346 . S
C71 H78 0.929 1_545 S
C72 O62 1.282 1_565 S
C72 O73 1.216 . S
O73 C72 1.216 . S
H74 C69 0.930 . S
H75 C70 0.930 1_565 S
O76 Cu56 1.959 . S
O76 C63 1.253 . S
H77 C60 0.930 . S
H78 C71 0.929 1_565 S
H79 C80 0.951 1_655 S
C80 H79 0.951 1_455 S
C80 C86 1.265 . S
H81 C86 0.950 . S
H82 C90 0.949 . S
H83 C91 0.950 . S
H84 C92 0.951 . S
H85 C93 0.951 . S
C86 C80 1.265 . S
C86 H81 0.950 . S
C86 C87 1.478 . S
C87 C86 1.478 . S
C87 C88 1.397 . S
C87 C104 1.394 1_455 S
C88 C87 1.397 . S
C88 C89 1.438 . S
C88 C93 1.429 . S
C89 C88 1.438 . S
C89 C90 1.428 . S
C89 C102 1.394 . S
C90 H82 0.949 . S
C90 C89 1.428 . S
C90 C91 1.345 . S
C91 H83 0.950 . S
C91 C90 1.345 . S
C91 C92 1.424 . S
C92 H84 0.951 . S
C92 C91 1.424 . S
C92 C93 1.347 . S
C93 H85 0.951 . S
C93 C88 1.429 . S
C93 C92 1.347 . S
H94 C95 0.951 . S
C95 H94 0.951 . S
C95 C101 1.265 1_455 S
H96 C101 0.950 . S
H97 C105 0.949 . S
H98 C106 0.950 . S
H99 C107 0.951 . S
H100 C108 0.951 . S
C101 C95 1.265 1_655 S
C101 H96 0.950 . S
C101 C102 1.478 1_655 S
C102 C89 1.394 . S
C102 C101 1.478 1_455 S
C102 C103 1.397 1_455 S
C103 C102 1.397 1_655 S
C103 C104 1.438 . S
C103 C108 1.429 . S
C104 C87 1.394 1_655 S
C104 C103 1.438 . S
C104 C105 1.428 . S
C105 H97 0.949 . S
C105 C104 1.428 . S
C105 C106 1.345 . S
C106 H98 0.950 . S
C106 C105 1.345 . S
C106 C107 1.424 . S
C107 H99 0.951 . S
C107 C106 1.424 . S
C107 C108 1.347 . S
C108 H100 0.951 . S
C108 C103 1.429 . S
C108 C107 1.347 . S
H109 C110 0.951 . S
C110 H109 0.951 . S
C110 C116 1.265 . S
H111 C116 0.950 1_565 S
H112 C120 0.949 . S
H113 C121 0.950 . S
H114 C122 0.951 . S
H115 C123 0.951 . S
C116 C110 1.265 . S
C116 H111 0.950 1_545 S
C116 C117 1.478 . S
C117 C116 1.478 . S
C117 C118 1.397 1_545 S
C117 C134 1.394 . S
C118 C117 1.397 1_565 S
C118 C119 1.438 . S
C118 C123 1.429 . S
C119 C118 1.438 . S
C119 C120 1.428 . S
C119 C132 1.394 1_565 S
C120 H112 0.949 . S
C120 C119 1.428 . S
C120 C121 1.345 . S
C121 H113 0.950 . S
C121 C120 1.345 . S
C121 C122 1.424 . S
C122 H114 0.951 . S
C122 C121 1.424 . S
C122 C123 1.347 . S
C123 H115 0.951 . S
C123 C118 1.429 . S
C123 C122 1.347 . S
H124 C125 0.951 . S
C125 H124 0.951 . S
C125 C131 1.265 . S
H126 C131 0.950 . S
H127 C135 0.949 . S
H128 C136 0.950 . S
H129 C137 0.951 . S
H130 C138 0.951 . S
C131 C125 1.265 . S
C131 H126 0.950 . S
C131 C132 1.478 . S
C132 C119 1.394 1_545 S
C132 C131 1.478 . S
C132 C133 1.397 . S
C133 C132 1.397 . S
C133 C134 1.438 . S
C133 C138 1.429 . S
C134 C117 1.394 . S
C134 C133 1.438 . S
C134 C135 1.428 . S
C135 H127 0.949 . S
C135 C134 1.428 . S
C135 C136 1.345 . S
C136 H128 0.950 . S
C136 C135 1.345 . S
C136 C137 1.424 . S
C137 H129 0.951 . S
C137 C136 1.424 . S
C137 C138 1.347 . S
C138 H130 0.951 . S
C138 C133 1.429 . S
C138 C137 1.347 . S
H139 C140 0.951 1_655 S
C140 H139 0.951 1_455 S
C140 C146 1.265 . S
H141 C146 0.950 . S
H142 C150 0.949 1_655 S
H143 C151 0.950 . S
H144 C152 0.951 . S
H145 C153 0.951 . S
C146 C140 1.265 . S
C146 H141 0.950 . S
C146 C147 1.478 . S
C147 C146 1.478 . S
C147 C148 1.397 . S
C147 C164 1.394 . S
C148 C147 1.397 . S
C148 C149 1.438 . S
C148 C153 1.429 . S
C149 C148 1.438 . S
C149 C150 1.428 . S
C149 C162 1.394 1_455 S
C150 H142 0.949 1_455 S
C150 C149 1.428 . S
C150 C151 1.345 . S
C151 H143 0.950 . S
C151 C150 1.345 . S
C151 C152 1.424 . S
C152 H144 0.951 . S
C152 C151 1.424 . S
C152 C153 1.347 . S
C153 H145 0.951 . S
C153 C148 1.429 . S
C153 C152 1.347 . S
H154 C155 0.966 . S
C155 H154 0.966 . S
C155 C161 1.251 1_455 S
H156 C161 0.950 . S
H157 C165 0.949 . S
H158 C166 0.950 . S
H159 C167 0.951 . S
H160 C168 0.951 . S
C161 C155 1.251 1_655 S
C161 H156 0.950 . S
C161 C162 1.478 . S
C162 C149 1.394 1_655 S
C162 C161 1.478 . S
C162 C163 1.397 . S
C163 C162 1.397 . S
C163 C164 1.438 1_655 S
C163 C168 1.429 . S
C164 C147 1.394 . S
C164 C163 1.438 1_455 S
C164 C165 1.428 . S
C165 H157 0.949 . S
C165 C164 1.428 . S
C165 C166 1.345 1_455 S
C166 H158 0.950 . S
C166 C165 1.345 1_655 S
C166 C167 1.424 . S
C167 H159 0.951 . S
C167 C166 1.424 . S
C167 C168 1.347 . S
C168 H160 0.951 . S
C168 C163 1.429 . S
C168 C167 1.347 . S
H169 C170 0.951 . S
C170 H169 0.951 . S
C170 C176 1.265 1_565 S
H171 C176 0.950 . S
H172 C180 0.949 . S
H173 C181 0.950 . S
H174 C182 0.951 . S
H175 C183 0.951 . S
C176 C170 1.265 1_545 S
C176 H171 0.950 . S
C176 C177 1.478 . S
C177 C176 1.478 . S
C177 C178 1.397 . S
C177 C194 1.394 1_545 S
C178 C177 1.397 . S
C178 C179 1.438 . S
C178 C183 1.429 . S
C179 C178 1.438 . S
C179 C180 1.428 . S
C179 C192 1.394 1_545 S
C180 H172 0.949 . S
C180 C179 1.428 . S
C180 C181 1.345 . S
C181 H173 0.950 . S
C181 C180 1.345 . S
C181 C182 1.424 . S
C182 H174 0.951 . S
C182 C181 1.424 . S
C182 C183 1.347 . S
C183 H175 0.951 . S
C183 C178 1.429 . S
C183 C182 1.347 . S
H184 C185 0.951 . S
C185 H184 0.951 . S
C185 C191 1.265 1_545 S
H186 C191 0.950 . S
H187 C195 0.949 . S
H188 C196 0.950 . S
H189 C197 0.951 . S
H190 C198 0.951 . S
C191 C185 1.265 1_565 S
C191 H186 0.950 . S
C191 C192 1.478 . S
C192 C179 1.394 1_565 S
C192 C191 1.478 . S
C192 C193 1.397 . S
C193 C192 1.397 . S
C193 C194 1.438 . S
C193 C198 1.429 . S
C194 C177 1.394 1_565 S
C194 C193 1.438 . S
C194 C195 1.428 . S
C195 H187 0.949 . S
C195 C194 1.428 . S
C195 C196 1.345 . S
C196 H188 0.950 . S
C196 C195 1.345 . S
C196 C197 1.424 . S
C197 H189 0.951 . S
C197 C196 1.424 . S
C197 C198 1.347 . S
C198 H190 0.951 . S
C198 C193 1.429 . S
C198 C197 1.347 . S
H199 C200 0.951 . S
C200 H199 0.951 . S
C200 C206 1.265 1_455 S
H201 C206 0.950 . S
H202 C210 0.949 . S
H203 C211 0.950 . S
H204 C212 0.951 . S
H205 C213 0.951 . S
C206 C200 1.265 1_655 S
C206 H201 0.950 . S
C206 C207 1.478 1_655 S
C207 C206 1.478 1_455 S
C207 C208 1.397 1_455 S
C207 C224 1.394 . S
C208 C207 1.397 1_655 S
C208 C209 1.438 . S
C208 C213 1.429 . S
C209 C208 1.438 . S
C209 C210 1.428 . S
C209 C222 1.394 1_655 S
C210 H202 0.949 . S
C210 C209 1.428 . S
C210 C211 1.345 . S
C211 H203 0.950 . S
C211 C210 1.345 . S
C211 C212 1.424 . S
C212 H204 0.951 . S
C212 C211 1.424 . S
C212 C213 1.347 . S
C213 H205 0.951 . S
C213 C208 1.429 . S
C213 C212 1.347 . S
H214 C215 0.951 . S
C215 H214 0.951 . S
C215 C221 1.265 . S
H216 C221 0.950 . S
H217 C225 0.949 . S
H218 C226 0.950 . S
H219 C227 0.951 . S
H220 C228 0.951 . S
C221 C215 1.265 . S
C221 H216 0.950 . S
C221 C222 1.478 . S
C222 C209 1.394 1_455 S
C222 C221 1.478 . S
C222 C223 1.397 . S
C223 C222 1.397 . S
C223 C224 1.438 . S
C223 C228 1.429 . S
C224 C207 1.394 . S
C224 C223 1.438 . S
C224 C225 1.428 . S
C225 H217 0.949 . S
C225 C224 1.428 . S
C225 C226 1.345 . S
C226 H218 0.950 . S
C226 C225 1.345 . S
C226 C227 1.424 . S
C227 H219 0.951 . S
C227 C226 1.424 . S
C227 C228 1.347 . S
C228 H220 0.951 . S
C228 C223 1.429 . S
C228 C227 1.347 . S
H229 C230 0.951 . S
C230 H229 0.951 . S
C230 C236 1.265 . S
H231 C236 0.950 . S
H232 C240 0.949 . S
H233 C241 0.950 . S
H234 C242 0.951 . S
H235 C243 0.951 . S
C236 C230 1.265 . S
C236 H231 0.950 . S
C236 C237 1.478 . S
C237 C236 1.478 . S
C237 C238 1.397 1_545 S
C237 C254 1.394 . S
C238 C237 1.397 1_565 S
C238 C239 1.438 . S
C238 C243 1.429 . S
C239 C238 1.438 . S
C239 C240 1.428 . S
C239 C252 1.394 1_565 S
C240 H232 0.949 . S
C240 C239 1.428 . S
C240 C241 1.345 . S
C241 H233 0.950 . S
C241 C240 1.345 . S
C241 C242 1.424 . S
C242 H234 0.951 . S
C242 C241 1.424 . S
C242 C243 1.347 . S
C243 H235 0.951 . S
C243 C238 1.429 . S
C243 C242 1.347 . S
H244 C245 0.951 . S
C245 H244 0.951 . S
C245 C251 1.265 . S
H246 C251 0.950 . S
H247 C255 0.949 . S
H248 C256 0.950 . S
H249 C257 0.951 . S
H250 C258 0.951 . S
C251 C245 1.265 . S
C251 H246 0.950 . S
C251 C252 1.478 . S
C252 C239 1.394 1_545 S
C252 C251 1.478 . S
C252 C253 1.397 . S
C253 C252 1.397 . S
C253 C254 1.438 . S
C253 C258 1.429 . S
C254 C237 1.394 . S
C254 C253 1.438 . S
C254 C255 1.428 . S
C255 H247 0.949 . S
C255 C254 1.428 . S
C255 C256 1.345 . S
C256 H248 0.950 . S
C256 C255 1.345 . S
C256 C257 1.424 . S
C257 H249 0.951 . S
C257 C256 1.424 . S
C257 C258 1.347 . S
C258 H250 0.951 . S
C258 C253 1.429 . S
C258 C257 1.347 . S
H259 C260 0.951 . S
C260 H259 0.951 . S
C260 C266 1.265 . S
H261 C266 0.950 1_455 S
H262 C270 0.949 . S
H263 C271 0.950 . S
H264 C272 0.951 . S
H265 C273 0.951 . S
C266 C260 1.265 . S
C266 H261 0.950 1_655 S
C266 C267 1.478 . S
C267 C266 1.478 . S
C267 C268 1.397 1_655 S
C267 C284 1.394 . S
C268 C267 1.397 1_455 S
C268 C269 1.438 . S
C268 C273 1.429 . S
C269 C268 1.438 . S
C269 C270 1.428 . S
C269 C282 1.394 1_455 S
C270 H262 0.949 . S
C270 C269 1.428 . S
C270 C271 1.345 . S
C271 H263 0.950 . S
C271 C270 1.345 . S
C271 C272 1.424 . S
C272 H264 0.951 . S
C272 C271 1.424 . S
C272 C273 1.347 . S
C273 H265 0.951 . S
C273 C268 1.429 . S
C273 C272 1.347 . S
H274 C275 0.951 1_455 S
C275 H274 0.951 1_655 S
C275 C281 1.265 . S
H276 C281 0.950 . S
H277 C285 0.949 . S
H278 C286 0.950 . S
H279 C287 0.951 . S
H280 C288 0.951 . S
C281 C275 1.265 . S
C281 H276 0.950 . S
C281 C282 1.478 . S
C282 C269 1.394 1_655 S
C282 C281 1.478 . S
C282 C283 1.397 . S
C283 C282 1.397 . S
C283 C284 1.438 . S
C283 C288 1.429 . S
C284 C267 1.394 . S
C284 C283 1.438 . S
C284 C285 1.428 . S
C285 H277 0.949 . S
C285 C284 1.428 . S
C285 C286 1.345 . S
C286 H278 0.950 . S
C286 C285 1.345 . S
C286 C287 1.424 . S
C287 H279 0.951 . S
C287 C286 1.424 . S
C287 C288 1.347 . S
C288 H280 0.951 . S
C288 C283 1.429 . S
C288 C287 1.347 . S
H289 C290 0.951 . S
C290 H289 0.951 . S
C290 C296 1.265 . S
H291 C296 0.950 . S
H292 C300 0.949 . S
H293 C301 0.950 . S
H294 C302 0.951 . S
H295 C303 0.951 . S
C296 C290 1.265 . S
C296 H291 0.950 . S
C296 C297 1.478 . S
C297 C296 1.478 . S
C297 C298 1.397 . S
C297 C314 1.394 1_545 S
C298 C297 1.397 . S
C298 C299 1.438 . S
C298 C303 1.429 . S
C299 C298 1.438 . S
C299 C300 1.428 . S
C299 C312 1.394 . S
C300 H292 0.949 . S
C300 C299 1.428 . S
C300 C301 1.345 . S
C301 H293 0.950 . S
C301 C300 1.345 . S
C301 C302 1.424 . S
C302 H294 0.951 . S
C302 C301 1.424 . S
C302 C303 1.347 . S
C303 H295 0.951 . S
C303 C298 1.429 . S
C303 C302 1.347 . S
H304 C305 0.951 . S
C305 H304 0.951 . S
C305 C311 1.265 1_545 S
H306 C311 0.950 . S
H307 C315 0.949 . S
H308 C316 0.950 . S
H309 C317 0.951 . S
H310 C318 0.951 . S
C311 C305 1.265 1_565 S
C311 H306 0.950 . S
C311 C312 1.478 1_565 S
C312 C299 1.394 . S
C312 C311 1.478 1_545 S
C312 C313 1.397 1_545 S
C313 C312 1.397 1_565 S
C313 C314 1.438 . S
C313 C318 1.429 . S
C314 C297 1.394 1_565 S
C314 C313 1.438 . S
C314 C315 1.428 . S
C315 H307 0.949 . S
C315 C314 1.428 . S
C315 C316 1.345 . S
C316 H308 0.950 . S
C316 C315 1.345 . S
C316 C317 1.424 . S
C317 H309 0.951 . S
C317 C316 1.424 . S
C317 C318 1.347 . S
C318 H310 0.951 . S
C318 C313 1.429 . S
C318 C317 1.347 . S
C80 C23 1.417 . S
C95 C49 1.421 . S
C110 C22 1.355 . S
C125 N68 1.331 . S
C140 C21 1.664 . S
C155 N45 1.649 1_455 S
C170 C24 1.586 1_565 S
C185 C72 1.598 1_545 S
C200 C27 1.407 1_455 S
C215 C40 1.469 . S
C230 C26 1.355 . S
C245 N58 1.384 . S
C275 N35 1.651 . S
C260 C25 1.697 . S
C290 C28 1.595 . S
C305 C63 1.655 . S
