# Generated by pormake.
# Topology pth, (4,4)-cn, num edge types: 1
# Building blocks:
#     Node 0, Type 0, BuildingBlock: QUQFOY_clean_sbu_3, # of connection points: 4
#     Node 1, Type 0, BuildingBlock: QUQFOY_clean_sbu_3, # of connection points: 4
#     Node 2, Type 0, BuildingBlock: QUQFOY_clean_sbu_3, # of connection points: 4
#     Node 3, Type 1, BuildingBlock: KOZSID_clean_sbu_0, # of connection points: 4
#     Node 4, Type 1, BuildingBlock: KOZSID_clean_sbu_0, # of connection points: 4
#     Node 5, Type 1, BuildingBlock: KOZSID_clean_sbu_0, # of connection points: 4
#     Edge 6, Type (0, 1), BuildingBlock: AJUNOK_clean_linker_0, # of connection points: 2
#     Edge 7, Type (0, 1), BuildingBlock: AJUNOK_clean_linker_0, # of connection points: 2
#     Edge 8, Type (0, 1), BuildingBlock: AJUNOK_clean_linker_0, # of connection points: 2
#     Edge 9, Type (0, 1), BuildingBlock: AJUNOK_clean_linker_0, # of connection points: 2
#     Edge 10, Type (0, 1), BuildingBlock: AJUNOK_clean_linker_0, # of connection points: 2
#     Edge 11, Type (0, 1), BuildingBlock: AJUNOK_clean_linker_0, # of connection points: 2
#     Edge 12, Type (0, 1), BuildingBlock: AJUNOK_clean_linker_0, # of connection points: 2
#     Edge 13, Type (0, 1), BuildingBlock: AJUNOK_clean_linker_0, # of connection points: 2
#     Edge 14, Type (0, 1), BuildingBlock: AJUNOK_clean_linker_0, # of connection points: 2
#     Edge 15, Type (0, 1), BuildingBlock: AJUNOK_clean_linker_0, # of connection points: 2
#     Edge 16, Type (0, 1), BuildingBlock: AJUNOK_clean_linker_0, # of connection points: 2
#     Edge 17, Type (0, 1), BuildingBlock: AJUNOK_clean_linker_0, # of connection points: 2
# Relax obj value: 0.008
# Max RMSD: 0.072
# Mean RMSD: 0.045
data_MOF--net-pth--node1-QUQFOY_clean_sbu_3--node2-KOZSID_clean_sbu_0--edge1-AJUNOK_clean_linker_0
_symmetry_space_group_name_H-M    P1
_symmetry_Int_Tables_number       1
_symmetry_cell_setting            triclinic
loop_
_symmetry_equiv_pos_as_xyz
'x, y, z'
_cell_length_a     20.529183
_cell_length_b     20.391022
_cell_length_c     47.862502
_cell_angle_alpha  86.358933
_cell_angle_beta   87.358715
_cell_angle_gamma 120.78122
loop_
_atom_site_label
_atom_site_type_symbol
_atom_site_fract_x
_atom_site_fract_y
_atom_site_fract_z
_atom_type_partial_charge
C0 C 0.03587 0.19656 0.06751 0.0
O1 O 0.00073 0.19419 0.0461 0.0
Cd2 Cd 0.9964 0.12296 0.00756 0.0
O3 O 0.06684 0.15634 0.06997 0.0
Cd4 Cd 0.07945 0.06279 0.04329 0.0
C5 C 0.18842 0.20388 0.99247 0.0
O6 O 0.9547 0.99345 0.02487 0.0
O7 O 0.04387 0.98124 0.00504 0.0
O8 O 0.05103 0.98696 0.0883 0.0
C9 C 0.97372 0.95904 0.00813 0.0
O10 O 0.12564 0.19289 0.9844 0.0
C11 C 0.10218 0.97043 0.08404 0.0
O12 O 0.18971 0.16755 0.01486 0.0
O13 O 0.14525 -0.00019 0.06128 0.0
C14 C 0.23219 0.14837 0.4002 0.0
O15 O 0.26978 0.19821 0.37949 0.0
Cd16 Cd 0.21053 0.21642 0.34036 0.0
O17 O 0.15974 0.11193 0.40222 0.0
Cd18 Cd 0.05843 0.11128 0.37567 0.0
C19 C 0.10594 0.02722 0.32773 0.0
O20 O 0.11459 0.24378 0.35502 0.0
O21 O 0.02205 0.15648 0.33451 0.0
O22 O 0.00342 0.1247 0.41932 0.0
C23 C 0.06602 0.22708 0.33712 0.0
O24 O 0.16001 0.09524 0.31962 0.0
C25 C 0.93546 0.07305 0.41633 0.0
O26 O 0.0604 0.01421 0.34919 0.0
O27 O 0.9249 0.03586 0.39498 0.0
C28 C 0.96694 0.10152 0.68126 0.0
O29 O 0.96886 0.13699 0.70233 0.0
Cd30 Cd 0.05287 0.16138 0.73866 0.0
O31 O 0.01395 0.07906 0.67742 0.0
Cd32 Cd 0.11644 0.08153 0.70376 0.0
C33 C 0.98747 0.97318 0.75799 0.0
O34 O 0.18171 0.20913 0.72074 0.0
O35 O 0.19571 0.12153 0.74232 0.0
O36 O 0.19737 0.11314 0.66008 0.0
C37 C 0.21671 0.19186 0.73817 0.0
O38 O 0.99691 0.03633 0.76514 0.0
C39 C 0.21473 0.06251 0.66553 0.0
O40 O 0.01913 0.97081 0.73484 0.0
O41 O 0.18214 0.01736 0.68784 0.0
C42 C 0.16288 0.72732 0.16275 0.0
C43 C 0.23517 0.78202 0.15055 0.0
C44 C 0.28529 0.76883 0.16379 0.0
C45 C 0.24111 0.70752 0.18334 0.0
N46 N 0.16553 0.67978 0.18315 0.0
Co47 Co 0.08126 0.59451 0.20936 0.0
N48 N 0.1561 0.58214 0.23119 0.0
C49 C 0.23291 0.62283 0.22632 0.0
C50 C 0.2691 0.59976 0.24422 0.0
C51 C 0.2121 0.54021 0.26146 0.0
C52 C 0.14404 0.53063 0.2531 0.0
N53 N 0.99703 0.50927 0.23552 0.0
C54 C 0.00026 0.46495 0.25708 0.0
C55 C 0.92832 0.41157 0.26986 0.0
C56 C 0.8776 0.42153 0.25552 0.0
C57 C 0.92127 0.48038 0.23498 0.0
N58 N 0.00663 0.60741 0.18761 0.0
C59 C 0.92968 0.5656 0.19191 0.0
C60 C 0.89408 0.58953 0.17398 0.0
C61 C 0.95165 0.65115 0.15758 0.0
C62 C 0.01929 0.66147 0.16661 0.0
N63 N 0.07562 0.51808 0.18428 0.0
C64 C 0.06566 0.41004 0.14825 0.0
C65 C 0.00044 0.40753 0.15931 0.0
C66 C 0.00662 0.46128 0.17719 0.0
C67 C 0.13617 0.46683 0.15571 0.0
C68 C 0.13984 0.52001 0.17363 0.0
N69 N 0.08623 0.67054 0.2343 0.0
C70 C 0.02248 0.72187 0.26081 0.0
C71 C 0.09198 0.78265 0.26709 0.0
C72 C 0.15875 0.78629 0.25695 0.0
C73 C 0.1546 0.72974 0.2408 0.0
C74 C 0.02092 0.66681 0.24463 0.0
H75 H 0.20731 0.73548 0.23355 0.0
H76 H 0.96612 0.62253 0.24041 0.0
H77 H 0.95453 0.45547 0.18491 0.0
H78 H 0.19517 0.56227 0.17843 0.0
C79 C 0.26934 0.67969 0.20385 0.0
C80 C 0.09394 0.72576 0.1556 0.0
C81 C 0.06952 0.46914 0.2655 0.0
C82 C 0.89277 0.50789 0.21428 0.0
H83 H 0.25066 0.8284 0.13441 0.0
H84 H 0.34682 0.80209 0.16041 0.0
H85 H 0.32964 0.62221 0.24424 0.0
H86 H 0.22007 0.50662 0.27784 0.0
H87 H 0.91404 0.36894 0.28742 0.0
H88 H 0.81614 0.38887 0.2593 0.0
H89 H 0.83356 0.5665 0.17351 0.0
H90 H 0.94475 0.68595 0.14132 0.0
H91 H 0.94456 0.36397 0.15421 0.0
H92 H 0.18834 0.47123 0.14732 0.0
H93 H 0.96938 0.71765 0.2678 0.0
H94 H 0.21392 0.83258 0.26144 0.0
C95 C 0.43585 0.98737 0.58553 0.0
C96 C 0.37283 0.91709 0.59607 0.0
C97 C 0.37709 0.86253 0.58246 0.0
C98 C 0.44151 0.90243 0.56425 0.0
N99 N 0.47968 0.97909 0.56571 0.0
Co100 Co 0.57028 0.05897 0.54034 0.0
N101 N 0.57166 0.97905 0.51842 0.0
C102 C 0.52653 0.90215 0.52402 0.0
C103 C 0.54488 0.86135 0.50702 0.0
C104 C 0.60661 0.9154 0.48985 0.0
C105 C 0.62192 0.98636 0.49729 0.0
N106 N 0.65696 0.13915 0.51367 0.0
C107 C 0.69589 0.13133 0.49181 0.0
C108 C 0.75164 0.20205 0.47841 0.0
C109 C 0.74922 0.25652 0.49288 0.0
C110 C 0.69186 0.21612 0.51402 0.0
N111 N 0.57168 0.13829 0.56329 0.0
C112 C 0.6248 0.21398 0.56069 0.0
C113 C 0.61109 0.25394 0.57976 0.0
C114 C 0.54499 0.20065 0.59526 0.0
C115 C 0.52187 0.13109 0.58456 0.0
N116 N 0.64234 0.05217 0.5652 0.0
C117 C 0.74371 0.04907 0.60217 0.0
C118 C 0.76699 0.11183 0.58257 0.0
C119 C 0.71589 0.1126 0.56468 0.0
C120 C 0.66965 0.98647 0.60264 0.0
C121 C 0.6204 0.9887 0.58377 0.0
N122 N 0.49957 0.06726 0.51566 0.0
C123 C 0.45989 0.14669 0.49155 0.0
C124 C 0.40384 0.08403 0.47954 0.0
C125 C 0.39505 0.01202 0.48631 0.0
C126 C 0.44344 0.00491 0.50438 0.0
C127 C 0.5065 0.13716 0.50939 0.0
H128 H 0.43509 0.94889 0.50882 0.0
H129 H 0.54815 0.18761 0.51771 0.0
H130 H 0.73789 0.16391 0.55105 0.0
H131 H 0.56482 0.93876 0.58487 0.0
C132 C 0.46697 0.86995 0.54519 0.0
C133 C 0.45061 0.06053 0.59437 0.0
C134 C 0.68724 0.05883 0.48487 0.0
C135 C 0.67778 0.24748 0.53706 0.0
H136 H 0.32756 0.90616 0.6116 0.0
H137 H 0.33699 0.80127 0.58504 0.0
H138 H 0.51746 0.79963 0.50741 0.0
H139 H 0.63764 0.90357 0.47409 0.0
H140 H 0.79224 0.21295 0.46086 0.0
H141 H 0.78755 0.31804 0.48937 0.0
H142 H 0.64291 0.31521 0.58119 0.0
H143 H 0.51571 0.21201 0.6119 0.0
H144 H 0.82394 0.16167 0.58171 0.0
H145 H 0.64983 0.93637 0.61755 0.0
H146 H 0.46802 0.20333 0.4871 0.0
H147 H 0.35239 0.96197 0.47724 0.0
C148 C 0.74429 0.63345 0.83241 0.0
C149 C 0.80255 0.62082 0.82449 0.0
C150 C 0.78778 0.55548 0.84001 0.0
C151 C 0.72194 0.53241 0.85653 0.0
N152 N 0.69287 0.57824 0.85219 0.0
Co153 Co 0.60135 0.56948 0.8732 0.0
N154 N 0.58234 0.47602 0.89727 0.0
C155 C 0.62235 0.44018 0.89559 0.0
C156 C 0.59284 0.3745 0.91355 0.0
C157 C 0.52953 0.36721 0.92733 0.0
C158 C 0.52448 0.42958 0.91707 0.0
N159 N 0.51158 0.56243 0.89482 0.0
C160 C 0.46279 0.50988 0.91581 0.0
C161 C 0.40928 0.52725 0.92572 0.0
C162 C 0.42378 0.59224 0.90998 0.0
C163 C 0.48538 0.61111 0.8916 0.0
N164 N 0.61866 0.66116 0.84855 0.0
C165 C 0.57511 0.69338 0.8486 0.0
C166 C 0.6013 0.75536 0.82895 0.0
C167 C 0.66584 0.76374 0.81575 0.0
C168 C 0.67547 0.70638 0.82832 0.0
N169 N 0.53412 0.50221 0.84602 0.0
C170 C 0.43743 0.40683 0.80775 0.0
C171 C 0.42543 0.46149 0.81905 0.0
C172 C 0.47416 0.50833 0.83786 0.0
C173 C 0.49839 0.40026 0.81598 0.0
C174 C 0.54569 0.44816 0.83502 0.0
N175 N 0.66835 0.63716 0.90029 0.0
C176 C 0.71394 0.75085 0.92465 0.0
C177 C 0.76395 0.73528 0.93813 0.0
C178 C 0.76612 0.67021 0.93221 0.0
C179 C 0.71795 0.62207 0.91338 0.0
C180 C 0.66695 0.70141 0.90606 0.0
H181 H 0.72206 0.57328 0.90964 0.0
H182 H 0.63051 0.71697 0.89645 0.0
H183 H 0.4614 0.54843 0.8457 0.0
H184 H 0.59083 0.44002 0.84063 0.0
C185 C 0.6868 0.46894 0.87663 0.0
C186 C 0.74214 0.70054 0.82166 0.0
C187 C 0.46225 0.44069 0.92598 0.0
C188 C 0.51525 0.66958 0.86943 0.0
H189 H 0.85143 0.65594 0.80944 0.0
H190 H 0.82183 0.52885 0.83971 0.0
H191 H 0.61405 0.33577 0.91596 0.0
H192 H 0.49085 0.32048 0.94282 0.0
H193 H 0.36332 0.49509 0.94215 0.0
H194 H 0.39174 0.62089 0.9112 0.0
H195 H 0.57798 0.79195 0.82541 0.0
H196 H 0.70306 0.80846 0.79935 0.0
H197 H 0.37758 0.46714 0.81389 0.0
H198 H 0.50954 0.35828 0.80779 0.0
H199 H 0.71187 0.80181 0.92805 0.0
H200 H 0.80452 0.65634 0.94216 0.0
C201 C 0.00975 0.29401 0.08562 0.0
C202 C 0.0432 0.24885 0.08901 0.0
C203 C 0.01753 0.34587 0.10486 0.0
C204 C 0.05937 0.35508 0.12822 0.0
H205 H 0.97749 0.28983 0.06784 0.0
H206 H 0.9912 0.37973 0.10125 0.0
S207 S 0.15554 0.24908 0.14782 0.0
N208 N 0.11832 0.21571 0.11834 0.0
N209 N 0.13249 0.3135 0.15447 0.0
C210 C 0.09268 0.31022 0.13215 0.0
C211 C 0.08457 0.25695 0.1126 0.0
C212 C 0.79959 0.0365 0.42481 0.0
C213 C 0.87112 0.06287 0.43515 0.0
C214 C 0.74019 0.03532 0.44096 0.0
C215 C 0.74998 0.05901 0.46813 0.0
H216 H 0.79021 0.01928 0.40372 0.0
H217 H 0.68649 0.01648 0.43208 0.0
S218 S 0.92335 0.1273 0.50585 0.0
N219 N 0.94695 0.11029 0.47482 0.0
N220 N 0.83416 0.10571 0.50535 0.0
C221 C 0.8201 0.08323 0.47907 0.0
C222 C 0.88095 0.08557 0.46255 0.0
C223 C 0.89139 0.83267 0.7629 0.0
C224 C 0.93264 0.9014 0.7755 0.0
C225 C 0.83098 0.76672 0.77817 0.0
C226 C 0.81092 0.76736 0.80652 0.0
H227 H 0.90338 0.83076 0.74079 0.0
H228 H 0.79831 0.71568 0.76758 0.0
S229 S 0.90556 0.92876 0.85021 0.0
N230 N 0.9524 0.96357 0.81874 0.0
N231 N 0.83931 0.83889 0.8473 0.0
C232 C 0.85376 0.834 0.81975 0.0
C233 C 0.91468 0.90127 0.80427 0.0
C234 C 0.12897 0.86505 0.09227 0.0
C235 C 0.10593 0.91318 0.10324 0.0
C236 C 0.1249 0.80439 0.1093 0.0
C237 C 0.09954 0.79122 0.13796 0.0
H238 H 0.14761 0.87248 0.07014 0.0
H239 H 0.14106 0.76712 0.09998 0.0
S240 S 0.03782 0.90345 0.17741 0.0
N241 N 0.05904 0.94484 0.1448 0.0
N242 N 0.0543 0.83224 0.17699 0.0
C243 C 0.0784 0.83997 0.1494 0.0
C244 C 0.08105 0.90079 0.13199 0.0
C245 C 0.35362 0.17146 0.41835 0.0
C246 C 0.27344 0.13024 0.42113 0.0
C247 C 0.39481 0.15484 0.43702 0.0
C248 C 0.35775 0.09616 0.45925 0.0
H249 H 0.38529 0.21716 0.40156 0.0
H250 H 0.45644 0.18834 0.43402 0.0
S251 S 0.14931 0.97127 0.47637 0.0
N252 N 0.15848 0.02763 0.44824 0.0
N253 N 0.23679 0.99707 0.48342 0.0
C254 C 0.27786 0.05401 0.46235 0.0
C255 C 0.23553 0.07103 0.44335 0.0
C256 C 0.30022 0.2232 0.77745 0.0
C257 C 0.2744 0.24878 0.75489 0.0
C258 C 0.35387 0.27484 0.79407 0.0
C259 C 0.38403 0.35415 0.78875 0.0
H260 H 0.27815 0.16256 0.78265 0.0
H261 H 0.37059 0.25227 0.81161 0.0
S262 S 0.34017 0.45156 0.73097 0.0
N263 N 0.28589 0.35927 0.72732 0.0
N264 N 0.38782 0.45657 0.75842 0.0
C265 C 0.36014 0.38088 0.76591 0.0
C266 C 0.30513 0.32817 0.74901 0.0
C267 C 0.92244 0.07894 0.63306 0.0
C268 C 0.90764 0.0835 0.66165 0.0
C269 C 0.86791 0.0649 0.61399 0.0
C270 C 0.79609 0.05282 0.62301 0.0
H271 H 0.97734 0.08864 0.62522 0.0
H272 H 0.88241 0.06482 0.59193 0.0
S273 S 0.72694 0.05338 0.69579 0.0
N274 N 0.81449 0.07135 0.69819 0.0
N275 N 0.71182 0.04355 0.66231 0.0
C276 C 0.77949 0.05433 0.65162 0.0
C277 C 0.83536 0.0701 0.67095 0.0
C278 C 0.94446 0.87139 0.97033 0.0
C279 C 0.91832 0.89977 0.99143 0.0
C280 C 0.89395 0.81681 0.95363 0.0
C281 C 0.81543 0.78857 0.95741 0.0
H282 H 0.00462 0.89223 0.96632 0.0
H283 H 0.91678 0.79805 0.93718 0.0
S284 S 0.71676 0.83877 0.0112 0.0
N285 N 0.80784 0.89201 0.01613 0.0
N286 N 0.71299 0.78883 0.98485 0.0
C287 C 0.78815 0.81472 0.97887 0.0
C288 C 0.83955 0.87041 0.99587 0.0
C289 C 0.1438 0.97939 0.28692 0.0
C290 C 0.09908 0.96308 0.31253 0.0
C291 C 0.14165 0.92076 0.27256 0.0
C292 C 0.09464 0.84346 0.28318 0.0
H293 H 0.18101 0.03805 0.27778 0.0
H294 H 0.17639 0.93603 0.25279 0.0
S295 S 0.96845 0.76918 0.3497 0.0
N296 N 0.00725 0.86316 0.34811 0.0
N297 N 0.00386 0.75311 0.32105 0.0
C298 C 0.0497 0.82597 0.30871 0.0
C299 C 0.05174 0.88568 0.32339 0.0
C300 C 0.29183 0.09232 0.61946 0.0
C301 C 0.27394 0.05991 0.64764 0.0
C302 C 0.34984 0.09329 0.60243 0.0
C303 C 0.39244 0.06285 0.61316 0.0
H304 H 0.26039 0.11657 0.61042 0.0
H305 H 0.3611 0.11735 0.58069 0.0
S306 S 0.373 0.97712 0.68583 0.0
N307 N 0.30624 -0.00047 0.68568 0.0
N308 N 0.41646 0.00345 0.6537 0.0
C309 C 0.37677 0.03223 0.64137 0.0
C310 C 0.31702 0.03 0.65859 0.0
C311 C 0.2594 0.2802 0.94709 0.0
C312 C 0.26024 0.2615 0.97585 0.0
C313 C 0.32539 0.33736 0.93105 0.0
C314 C 0.39423 0.37827 0.94327 0.0
H315 H 0.20728 0.25058 0.93686 0.0
H316 H 0.32252 0.35032 0.90899 0.0
S317 S 0.42715 0.35391 0.01759 0.0
N318 N 0.33638 0.28937 0.01584 0.0
N319 N 0.46004 0.39826 0.98556 0.0
C320 C 0.39628 0.36059 0.97187 0.0
C321 C 0.32936 0.30167 0.9882 0.0
C322 C 0.08884 0.35939 0.32835 0.0
C323 C 0.06419 0.28707 0.31887 0.0
C324 C 0.08805 0.41747 0.31135 0.0
C325 C 0.06417 0.40545 0.28416 0.0
H326 H 0.10851 0.37108 0.34909 0.0
H327 H 0.10769 0.47264 0.31923 0.0
S328 S 0.99561 0.22768 0.24915 0.0
N329 N 0.01461 0.2068 0.28052 0.0
N330 N 0.01575 0.31728 0.24834 0.0
C331 C 0.03905 0.33363 0.27446 0.0
C332 C 0.03854 0.27406 0.29187 0.0
loop_
_geom_bond_atom_site_label_1
_geom_bond_atom_site_label_2
_geom_bond_distance
_geom_bond_site_symmetry_2
_ccdc_geom_bond_type
C0 O1 1.306 . S
C0 O3 1.160 . S
O1 C0 1.306 . S
O1 Cd2 2.228 . S
Cd2 O1 2.228 . S
Cd2 O6 2.272 . S
Cd2 O10 2.277 . S
O3 C0 1.160 . S
O3 Cd4 2.203 . S
Cd4 O3 2.203 . S
Cd4 O6 2.414 . S
Cd4 O7 2.333 1_545 S
Cd4 O8 2.352 1_545 S
Cd4 O12 2.277 . S
Cd4 O13 2.356 1_545 S
C5 O10 1.209 . S
C5 O12 1.226 . S
O6 Cd2 2.272 . S
O6 Cd4 2.414 . S
O6 C9 1.322 1_545 S
O7 Cd4 2.333 1_565 S
O7 C9 1.214 . S
O8 Cd4 2.352 1_565 S
O8 C11 1.258 . S
C9 O6 1.322 1_565 S
C9 O7 1.214 . S
O10 Cd2 2.277 . S
O10 C5 1.209 . S
C11 O8 1.258 . S
C11 O13 1.282 . S
O12 Cd4 2.277 . S
O12 C5 1.226 . S
O13 Cd4 2.356 1_565 S
O13 C11 1.282 . S
C14 O15 1.306 . S
C14 O17 1.160 . S
O15 C14 1.306 . S
O15 Cd16 2.228 . S
Cd16 O15 2.228 . S
Cd16 O20 2.273 . S
Cd16 O24 2.277 . S
O17 C14 1.160 . S
O17 Cd18 2.203 . S
Cd18 O17 2.203 . S
Cd18 O20 2.411 . S
Cd18 O21 2.333 1_455 S
Cd18 O22 2.357 . S
Cd18 O26 2.277 1_445 S
Cd18 O27 2.356 1_455 S
C19 O24 1.209 1_565 S
C19 O26 1.226 1_455 S
O20 Cd16 2.273 . S
O20 Cd18 2.411 . S
O20 C23 1.320 . S
O21 Cd18 2.333 1_655 S
O21 C23 1.214 1_655 S
O22 Cd18 2.357 . S
O22 C25 1.252 1_455 S
C23 O20 1.320 . S
C23 O21 1.214 1_455 S
O24 Cd16 2.277 . S
O24 C19 1.209 1_545 S
C25 O22 1.252 1_655 S
C25 O27 1.282 . S
O26 Cd18 2.277 1_665 S
O26 C19 1.226 1_655 S
O27 Cd18 2.356 1_655 S
O27 C25 1.282 . S
C28 O29 1.306 . S
C28 O31 1.160 1_655 S
O29 C28 1.306 . S
O29 Cd30 2.228 1_655 S
Cd30 O29 2.228 1_455 S
Cd30 O34 2.273 . S
Cd30 O38 2.277 1_455 S
O31 C28 1.160 1_455 S
O31 Cd32 2.203 . S
Cd32 O31 2.203 . S
Cd32 O34 2.411 . S
Cd32 O35 2.333 . S
Cd32 O36 2.352 . S
Cd32 O40 2.277 1_545 S
Cd32 O41 2.356 . S
C33 O38 1.209 1_565 S
C33 O40 1.226 1_655 S
O34 Cd30 2.273 . S
O34 Cd32 2.411 . S
O34 C37 1.320 . S
O35 Cd32 2.333 . S
O35 C37 1.214 . S
O36 Cd32 2.352 . S
O36 C39 1.258 . S
C37 O34 1.320 . S
C37 O35 1.214 . S
O38 Cd30 2.277 1_655 S
O38 C33 1.209 1_545 S
C39 O36 1.258 . S
C39 O41 1.282 . S
O40 Cd32 2.277 1_565 S
O40 C33 1.226 1_455 S
O41 Cd32 2.356 . S
O41 C39 1.282 . S
C42 C43 1.443 . S
C42 N46 1.376 . S
C42 C80 1.389 . S
C43 C42 1.443 . S
C43 C44 1.340 . S
C43 H83 0.951 . S
C44 C43 1.340 . S
C44 C45 1.439 . S
C44 H84 0.950 . S
C45 C44 1.439 . S
C45 N46 1.374 . S
C45 C79 1.395 . S
N46 C42 1.376 . S
N46 C45 1.374 . S
N46 Co47 2.008 . S
Co47 N46 2.008 . S
Co47 N48 1.995 . S
Co47 N53 2.008 1_455 S
Co47 N58 1.995 1_455 S
Co47 N63 2.282 . S
Co47 N69 2.282 . S
N48 Co47 1.995 . S
N48 C49 1.376 . S
N48 C52 1.383 . S
C49 N48 1.376 . S
C49 C50 1.446 . S
C49 C79 1.391 . S
C50 C49 1.446 . S
C50 C51 1.339 . S
C50 H85 0.949 . S
C51 C50 1.339 . S
C51 C52 1.439 . S
C51 H86 0.950 . S
C52 N48 1.383 . S
C52 C51 1.439 . S
C52 C81 1.392 . S
N53 Co47 2.008 1_655 S
N53 C54 1.378 . S
N53 C57 1.374 . S
C54 N53 1.378 . S
C54 C55 1.445 . S
C54 C81 1.386 1_655 S
C55 C54 1.445 . S
C55 C56 1.340 . S
C55 H87 0.951 . S
C56 C55 1.340 . S
C56 C57 1.439 . S
C56 H88 0.950 . S
C57 N53 1.374 . S
C57 C56 1.439 . S
C57 C82 1.395 . S
N58 Co47 1.995 1_655 S
N58 C59 1.376 . S
N58 C62 1.383 1_655 S
C59 N58 1.376 . S
C59 C60 1.446 . S
C59 C82 1.391 . S
C60 C59 1.446 . S
C60 C61 1.339 . S
C60 H89 0.949 . S
C61 C60 1.339 . S
C61 C62 1.439 1_655 S
C61 H90 0.950 . S
C62 N58 1.383 1_455 S
C62 C61 1.439 1_455 S
C62 C80 1.392 . S
N63 Co47 2.282 . S
N63 C66 1.332 . S
N63 C68 1.332 . S
C64 C65 1.386 . S
C64 C67 1.388 . S
C65 C64 1.386 . S
C65 C66 1.382 . S
C65 H91 0.950 1_455 S
C66 N63 1.332 . S
C66 C65 1.382 . S
C66 H77 0.952 1_455 S
C67 C64 1.388 . S
C67 C68 1.382 . S
C67 H92 0.950 . S
C68 N63 1.332 . S
C68 C67 1.382 . S
C68 H78 0.948 . S
N69 Co47 2.282 . S
N69 C73 1.332 . S
N69 C74 1.332 . S
C70 C71 1.388 . S
C70 C74 1.382 . S
C70 H93 0.950 1_455 S
C71 C70 1.388 . S
C71 C72 1.386 . S
C72 C71 1.386 . S
C72 C73 1.382 . S
C72 H94 0.950 . S
C73 N69 1.332 . S
C73 C72 1.382 . S
C73 H75 0.952 . S
C74 N69 1.332 . S
C74 C70 1.382 . S
C74 H76 0.948 1_455 S
H75 C73 0.952 . S
H76 C74 0.948 1_655 S
H77 C66 0.952 1_655 S
H78 C68 0.948 . S
C79 C45 1.395 . S
C79 C49 1.391 . S
C80 C42 1.389 . S
C80 C62 1.392 . S
C81 C52 1.392 . S
C81 C54 1.386 1_455 S
C82 C57 1.395 . S
C82 C59 1.391 . S
H83 C43 0.951 . S
H84 C44 0.950 . S
H85 C50 0.949 . S
H86 C51 0.950 . S
H87 C55 0.951 . S
H88 C56 0.950 . S
H89 C60 0.949 . S
H90 C61 0.950 . S
H91 C65 0.950 1_655 S
H92 C67 0.950 . S
H93 C70 0.950 1_655 S
H94 C72 0.950 . S
C95 C96 1.443 1_545 S
C95 N99 1.376 . S
C95 C133 1.389 . S
C96 C95 1.443 1_565 S
C96 C97 1.340 . S
C96 H136 0.951 . S
C97 C96 1.340 . S
C97 C98 1.439 . S
C97 H137 0.950 . S
C98 C97 1.439 . S
C98 N99 1.374 1_565 S
C98 C132 1.395 . S
N99 C95 1.376 . S
N99 C98 1.374 1_545 S
N99 Co100 2.008 . S
Co100 N99 2.008 . S
Co100 N101 1.995 . S
Co100 N106 2.008 . S
Co100 N111 1.995 . S
Co100 N116 2.282 . S
Co100 N122 2.282 . S
N101 Co100 1.995 . S
N101 C102 1.376 1_545 S
N101 C105 1.383 . S
C102 N101 1.376 1_565 S
C102 C103 1.446 . S
C102 C132 1.391 . S
C103 C102 1.446 . S
C103 C104 1.339 . S
C103 H138 0.949 . S
C104 C103 1.339 . S
C104 C105 1.439 1_565 S
C104 H139 0.950 . S
C105 N101 1.383 . S
C105 C104 1.439 1_545 S
C105 C134 1.392 . S
N106 Co100 2.008 . S
N106 C107 1.376 . S
N106 C110 1.374 . S
C107 N106 1.376 . S
C107 C108 1.443 . S
C107 C134 1.389 . S
C108 C107 1.443 . S
C108 C109 1.340 . S
C108 H140 0.951 . S
C109 C108 1.340 . S
C109 C110 1.439 . S
C109 H141 0.950 . S
C110 N106 1.374 . S
C110 C109 1.439 . S
C110 C135 1.395 . S
N111 Co100 1.995 . S
N111 C112 1.376 . S
N111 C115 1.383 . S
C112 N111 1.376 . S
C112 C113 1.446 . S
C112 C135 1.391 . S
C113 C112 1.446 . S
C113 C114 1.339 . S
C113 H142 0.949 . S
C114 C113 1.339 . S
C114 C115 1.439 . S
C114 H143 0.950 . S
C115 N111 1.383 . S
C115 C114 1.439 . S
C115 C133 1.392 . S
N116 Co100 2.282 . S
N116 C119 1.332 . S
N116 C121 1.332 . S
C117 C118 1.386 . S
C117 C120 1.388 . S
C118 C117 1.386 . S
C118 C119 1.382 . S
C118 H144 0.950 . S
C119 N116 1.332 . S
C119 C118 1.382 . S
C119 H130 0.952 . S
C120 C117 1.388 . S
C120 C121 1.382 . S
C120 H145 0.950 1_545 S
C121 N116 1.332 . S
C121 C120 1.382 . S
C121 H131 0.948 1_545 S
N122 Co100 2.282 . S
N122 C126 1.332 . S
N122 C127 1.332 . S
C123 C124 1.388 . S
C123 C127 1.382 . S
C123 H146 0.950 . S
C124 C123 1.388 . S
C124 C125 1.386 . S
C125 C124 1.386 . S
C125 C126 1.382 . S
C125 H147 0.950 1_545 S
C126 N122 1.332 . S
C126 C125 1.382 . S
C126 H128 0.958 . S
C127 N122 1.332 . S
C127 C123 1.382 . S
C127 H129 0.948 . S
H128 C126 0.958 . S
H129 C127 0.948 . S
H130 C119 0.952 . S
H131 C121 0.948 1_565 S
C132 C98 1.395 . S
C132 C102 1.391 . S
C133 C95 1.389 . S
C133 C115 1.392 . S
C134 C105 1.392 . S
C134 C107 1.389 . S
C135 C110 1.395 . S
C135 C112 1.391 . S
H136 C96 0.951 . S
H137 C97 0.950 . S
H138 C103 0.949 . S
H139 C104 0.950 . S
H140 C108 0.951 . S
H141 C109 0.950 . S
H142 C113 0.949 . S
H143 C114 0.950 . S
H144 C118 0.950 . S
H145 C120 0.950 1_565 S
H146 C123 0.950 . S
H147 C125 0.950 1_565 S
C148 C149 1.443 . S
C148 N152 1.376 . S
C148 C186 1.389 . S
C149 C148 1.443 . S
C149 C150 1.340 . S
C149 H189 0.951 . S
C150 C149 1.340 . S
C150 C151 1.439 . S
C150 H190 0.950 . S
C151 C150 1.439 . S
C151 N152 1.374 . S
C151 C185 1.395 . S
N152 C148 1.376 . S
N152 C151 1.374 . S
N152 Co153 2.008 . S
Co153 N152 2.008 . S
Co153 N154 1.995 . S
Co153 N159 2.008 . S
Co153 N164 1.995 . S
Co153 N169 2.282 . S
Co153 N175 2.282 . S
N154 Co153 1.995 . S
N154 C155 1.376 . S
N154 C158 1.383 . S
C155 N154 1.376 . S
C155 C156 1.446 . S
C155 C185 1.391 . S
C156 C155 1.446 . S
C156 C157 1.339 . S
C156 H191 0.949 . S
C157 C156 1.339 . S
C157 C158 1.439 . S
C157 H192 0.950 . S
C158 N154 1.383 . S
C158 C157 1.439 . S
C158 C187 1.392 . S
N159 Co153 2.008 . S
N159 C160 1.376 . S
N159 C163 1.374 . S
C160 N159 1.376 . S
C160 C161 1.443 . S
C160 C187 1.389 . S
C161 C160 1.443 . S
C161 C162 1.340 . S
C161 H193 0.951 . S
C162 C161 1.340 . S
C162 C163 1.439 . S
C162 H194 0.950 . S
C163 N159 1.374 . S
C163 C162 1.439 . S
C163 C188 1.395 . S
N164 Co153 1.995 . S
N164 C165 1.376 . S
N164 C168 1.383 . S
C165 N164 1.376 . S
C165 C166 1.446 . S
C165 C188 1.391 . S
C166 C165 1.446 . S
C166 C167 1.339 . S
C166 H195 0.949 . S
C167 C166 1.339 . S
C167 C168 1.439 . S
C167 H196 0.950 . S
C168 N164 1.383 . S
C168 C167 1.439 . S
C168 C186 1.392 . S
N169 Co153 2.282 . S
N169 C172 1.332 . S
N169 C174 1.332 . S
C170 C171 1.386 . S
C170 C173 1.388 . S
C171 C170 1.386 . S
C171 C172 1.382 . S
C171 H197 0.950 . S
C172 N169 1.332 . S
C172 C171 1.382 . S
C172 H183 0.952 . S
C173 C170 1.388 . S
C173 C174 1.382 . S
C173 H198 0.950 . S
C174 N169 1.332 . S
C174 C173 1.382 . S
C174 H184 0.948 . S
N175 Co153 2.282 . S
N175 C179 1.332 . S
N175 C180 1.332 . S
C176 C177 1.388 . S
C176 C180 1.382 . S
C176 H199 0.950 . S
C177 C176 1.388 . S
C177 C178 1.386 . S
C178 C177 1.386 . S
C178 C179 1.382 . S
C178 H200 0.950 . S
C179 N175 1.332 . S
C179 C178 1.382 . S
C179 H181 0.952 . S
C180 N175 1.332 . S
C180 C176 1.382 . S
C180 H182 0.948 . S
H181 C179 0.952 . S
H182 C180 0.948 . S
H183 C172 0.952 . S
H184 C174 0.948 . S
C185 C151 1.395 . S
C185 C155 1.391 . S
C186 C148 1.389 . S
C186 C168 1.392 . S
C187 C158 1.392 . S
C187 C160 1.389 . S
C188 C163 1.395 . S
C188 C165 1.391 . S
H189 C149 0.951 . S
H190 C150 0.950 . S
H191 C156 0.949 . S
H192 C157 0.950 . S
H193 C161 0.951 . S
H194 C162 0.950 . S
H195 C166 0.949 . S
H196 C167 0.950 . S
H197 C171 0.950 . S
H198 C173 0.950 . S
H199 C176 0.950 . S
H200 C178 0.950 . S
C201 C202 1.369 . S
C201 C203 1.419 . S
C201 H205 0.930 . S
C202 C201 1.369 . S
C202 C211 1.429 . S
C203 C201 1.419 . S
C203 C204 1.363 . S
C203 H206 0.929 . S
C204 C203 1.363 . S
C204 C210 1.428 . S
H205 C201 0.930 . S
H206 C203 0.929 . S
S207 N208 1.613 . S
S207 N209 1.610 . S
N208 S207 1.613 . S
N208 C211 1.350 . S
N209 S207 1.610 . S
N209 C210 1.351 . S
C210 C204 1.428 . S
C210 N209 1.351 . S
C210 C211 1.434 . S
C211 C202 1.429 . S
C211 N208 1.350 . S
C211 C210 1.434 . S
C212 C213 1.369 . S
C212 C214 1.419 . S
C212 H216 0.930 . S
C213 C212 1.369 . S
C213 C222 1.429 . S
C214 C212 1.419 . S
C214 C215 1.363 . S
C214 H217 0.929 . S
C215 C214 1.363 . S
C215 C221 1.428 . S
H216 C212 0.930 . S
H217 C214 0.929 . S
S218 N219 1.613 . S
S218 N220 1.610 . S
N219 S218 1.613 . S
N219 C222 1.350 . S
N220 S218 1.610 . S
N220 C221 1.351 . S
C221 C215 1.428 . S
C221 N220 1.351 . S
C221 C222 1.434 . S
C222 C213 1.429 . S
C222 N219 1.350 . S
C222 C221 1.434 . S
C223 C224 1.369 . S
C223 C225 1.419 . S
C223 H227 0.930 . S
C224 C223 1.369 . S
C224 C233 1.429 . S
C225 C223 1.419 . S
C225 C226 1.363 . S
C225 H228 0.929 . S
C226 C225 1.363 . S
C226 C232 1.428 . S
H227 C223 0.930 . S
H228 C225 0.929 . S
S229 N230 1.612 . S
S229 N231 1.610 . S
N230 S229 1.612 . S
N230 C233 1.355 . S
N231 S229 1.610 . S
N231 C232 1.351 . S
C232 C226 1.428 . S
C232 N231 1.351 . S
C232 C233 1.434 . S
C233 C224 1.429 . S
C233 N230 1.355 . S
C233 C232 1.434 . S
C234 C235 1.369 . S
C234 C236 1.419 . S
C234 H238 0.930 . S
C235 C234 1.369 . S
C235 C244 1.429 . S
C236 C234 1.419 . S
C236 C237 1.363 . S
C236 H239 0.929 . S
C237 C236 1.363 . S
C237 C243 1.428 . S
H238 C234 0.930 . S
H239 C236 0.929 . S
S240 N241 1.613 . S
S240 N242 1.610 . S
N241 S240 1.613 . S
N241 C244 1.350 . S
N242 S240 1.610 . S
N242 C243 1.351 . S
C243 C237 1.428 . S
C243 N242 1.351 . S
C243 C244 1.434 . S
C244 C235 1.429 . S
C244 N241 1.350 . S
C244 C243 1.434 . S
C245 C246 1.369 . S
C245 C247 1.419 . S
C245 H249 0.930 . S
C246 C245 1.369 . S
C246 C255 1.429 . S
C247 C245 1.419 . S
C247 C248 1.363 . S
C247 H250 0.929 . S
C248 C247 1.363 . S
C248 C254 1.428 . S
H249 C245 0.930 . S
H250 C247 0.929 . S
S251 N252 1.613 . S
S251 N253 1.610 . S
N252 S251 1.613 . S
N252 C255 1.350 1_565 S
N253 S251 1.610 . S
N253 C254 1.343 1_565 S
C254 C248 1.428 . S
C254 N253 1.343 1_545 S
C254 C255 1.434 . S
C255 C246 1.429 . S
C255 N252 1.350 1_545 S
C255 C254 1.434 . S
C256 C257 1.369 . S
C256 C258 1.419 . S
C256 H260 0.930 . S
C257 C256 1.369 . S
C257 C266 1.429 . S
C258 C256 1.419 . S
C258 C259 1.363 . S
C258 H261 0.929 . S
C259 C258 1.363 . S
C259 C265 1.428 . S
H260 C256 0.930 . S
H261 C258 0.929 . S
S262 N263 1.613 . S
S262 N264 1.610 . S
N263 S262 1.613 . S
N263 C266 1.350 . S
N264 S262 1.610 . S
N264 C265 1.351 . S
C265 C259 1.428 . S
C265 N264 1.351 . S
C265 C266 1.434 . S
C266 C257 1.429 . S
C266 N263 1.350 . S
C266 C265 1.434 . S
C267 C268 1.369 . S
C267 C269 1.419 . S
C267 H271 0.930 1_655 S
C268 C267 1.369 . S
C268 C277 1.429 . S
C269 C267 1.419 . S
C269 C270 1.363 . S
C269 H272 0.929 . S
C270 C269 1.363 . S
C270 C276 1.428 . S
H271 C267 0.930 1_455 S
H272 C269 0.929 . S
S273 N274 1.613 . S
S273 N275 1.617 . S
N274 S273 1.613 . S
N274 C277 1.350 1_565 S
N275 S273 1.617 . S
N275 C276 1.350 1_565 S
C276 C270 1.428 . S
C276 N275 1.350 1_545 S
C276 C277 1.434 . S
C277 C268 1.429 . S
C277 N274 1.350 1_545 S
C277 C276 1.434 . S
C278 C279 1.369 . S
C278 C280 1.419 . S
C278 H282 0.930 1_655 S
C279 C278 1.369 . S
C279 C288 1.429 1_556 S
C280 C278 1.419 . S
C280 C281 1.363 . S
C280 H283 0.929 . S
C281 C280 1.363 . S
C281 C287 1.428 . S
H282 C278 0.930 1_455 S
H283 C280 0.929 . S
S284 N285 1.613 . S
S284 N286 1.598 1_554 S
N285 S284 1.613 . S
N285 C288 1.350 . S
N286 S284 1.598 1_556 S
N286 C287 1.356 . S
C287 C281 1.428 . S
C287 N286 1.356 . S
C287 C288 1.434 1_556 S
C288 C279 1.429 1_554 S
C288 N285 1.350 . S
C288 C287 1.434 1_554 S
C289 C290 1.369 1_655 S
C289 C291 1.419 1_655 S
C289 H293 0.930 . S
C290 C289 1.369 1_455 S
C290 C299 1.429 . S
C291 C289 1.419 1_455 S
C291 C292 1.363 . S
C291 H294 0.929 1_455 S
C292 C291 1.363 . S
C292 C298 1.428 . S
H293 C289 0.930 . S
H294 C291 0.929 1_655 S
S295 N296 1.613 . S
S295 N297 1.610 . S
N296 S295 1.613 . S
N296 C299 1.350 . S
N297 S295 1.610 . S
N297 C298 1.351 . S
C298 C292 1.428 . S
C298 N297 1.351 . S
C298 C299 1.434 . S
C299 C290 1.429 . S
C299 N296 1.350 . S
C299 C298 1.434 . S
C300 C301 1.369 . S
C300 C302 1.419 . S
C300 H304 0.930 . S
C301 C300 1.369 . S
C301 C310 1.429 . S
C302 C300 1.419 . S
C302 C303 1.363 . S
C302 H305 0.929 . S
C303 C302 1.363 . S
C303 C309 1.428 . S
H304 C300 0.930 . S
H305 C302 0.929 . S
S306 N307 1.613 . S
S306 N308 1.610 . S
N307 S306 1.613 . S
N307 C310 1.350 . S
N308 S306 1.610 . S
N308 C309 1.351 . S
C309 C303 1.428 . S
C309 N308 1.351 . S
C309 C310 1.434 . S
C310 C301 1.429 . S
C310 N307 1.350 . S
C310 C309 1.434 . S
C311 C312 1.369 . S
C311 C313 1.419 . S
C311 H315 0.930 . S
C312 C311 1.369 . S
C312 C321 1.429 . S
C313 C311 1.419 . S
C313 C314 1.363 . S
C313 H316 0.929 . S
C314 C313 1.363 . S
C314 C320 1.428 . S
H315 C311 0.930 . S
H316 C313 0.929 . S
S317 N318 1.613 . S
S317 N319 1.610 1_554 S
N318 S317 1.613 . S
N318 C321 1.350 1_554 S
N319 S317 1.610 1_556 S
N319 C320 1.351 . S
C320 C314 1.428 . S
C320 N319 1.351 . S
C320 C321 1.434 . S
C321 C312 1.429 . S
C321 N318 1.350 1_556 S
C321 C320 1.434 . S
C322 C323 1.369 . S
C322 C324 1.419 . S
C322 H326 0.930 1_455 S
C323 C322 1.369 . S
C323 C332 1.429 . S
C324 C322 1.419 . S
C324 C325 1.363 . S
C324 H327 0.929 1_455 S
C325 C324 1.363 . S
C325 C331 1.428 . S
H326 C322 0.930 1_655 S
H327 C324 0.929 1_655 S
S328 N329 1.613 . S
S328 N330 1.610 . S
N329 S328 1.613 . S
N329 C332 1.350 . S
N330 S328 1.610 . S
N330 C331 1.351 . S
C331 C325 1.428 . S
C331 N330 1.351 . S
C331 C332 1.434 . S
C332 C323 1.429 . S
C332 N329 1.350 . S
C332 C331 1.434 . S
C204 C64 1.465 . S
C202 C0 1.464 . S
C213 C25 1.497 . S
C215 C134 1.498 . S
C224 C33 1.510 . S
C226 C186 1.509 . S
C235 C11 1.453 . S
C237 C80 1.451 . S
C248 C124 1.489 . S
C246 C14 1.486 . S
C257 C37 1.498 . S
C259 C170 1.503 . S
C270 C117 1.487 . S
C268 C28 1.483 . S
C279 C9 1.497 1_656 S
C281 C177 1.503 . S
C292 C71 1.526 . S
C290 C19 1.523 . S
C303 C133 1.493 . S
C301 C39 1.494 . S
C314 C187 1.508 . S
C312 C5 1.507 1_556 S
C323 C23 1.538 . S
C325 C81 1.548 . S
