# Generated by pormake.
# Topology nia, (6,6)-cn, num edge types: 1
# Building blocks:
#     Node 0, Type 0, BuildingBlock: LEVNOQ01_clean_sbu_1, # of connection points: 6
#     Node 1, Type 0, BuildingBlock: LEVNOQ01_clean_sbu_1, # of connection points: 6
#     Node 2, Type 1, BuildingBlock: MIDCAF_clean_sbu_0, # of connection points: 6
#     Node 3, Type 1, BuildingBlock: MIDCAF_clean_sbu_0, # of connection points: 6
#     Edge 4, Type (0, 1), BuildingBlock: FUNLAD_clean_linker_1, # of connection points: 2
#     Edge 5, Type (0, 1), BuildingBlock: FUNLAD_clean_linker_1, # of connection points: 2
#     Edge 6, Type (0, 1), BuildingBlock: FUNLAD_clean_linker_1, # of connection points: 2
#     Edge 7, Type (0, 1), BuildingBlock: FUNLAD_clean_linker_1, # of connection points: 2
#     Edge 8, Type (0, 1), BuildingBlock: FUNLAD_clean_linker_1, # of connection points: 2
#     Edge 9, Type (0, 1), BuildingBlock: FUNLAD_clean_linker_1, # of connection points: 2
#     Edge 10, Type (0, 1), BuildingBlock: FUNLAD_clean_linker_1, # of connection points: 2
#     Edge 11, Type (0, 1), BuildingBlock: FUNLAD_clean_linker_1, # of connection points: 2
#     Edge 12, Type (0, 1), BuildingBlock: FUNLAD_clean_linker_1, # of connection points: 2
#     Edge 13, Type (0, 1), BuildingBlock: FUNLAD_clean_linker_1, # of connection points: 2
#     Edge 14, Type (0, 1), BuildingBlock: FUNLAD_clean_linker_1, # of connection points: 2
#     Edge 15, Type (0, 1), BuildingBlock: FUNLAD_clean_linker_1, # of connection points: 2
# Relax obj value: 0.122
# Max RMSD: 0.238
# Mean RMSD: 0.156
data_MOF--net-nia--node1-LEVNOQ01_clean_sbu_1--node2-MIDCAF_clean_sbu_0--edge1-FUNLAD_clean_linker_1
_symmetry_space_group_name_H-M    P1
_symmetry_Int_Tables_number       1
_symmetry_cell_setting            triclinic
loop_
_symmetry_equiv_pos_as_xyz
'x, y, z'
_cell_length_a     24.72051
_cell_length_b     24.480358
_cell_length_c     35.674117
_cell_angle_alpha  89.228037
_cell_angle_beta   89.913489
_cell_angle_gamma 126.77341
loop_
_atom_site_label
_atom_site_type_symbol
_atom_site_fract_x
_atom_site_fract_y
_atom_site_fract_z
_atom_type_partial_charge
O0 O -0.00253 0.11414 0.93931 0.0
Mg1 Mg 0.06595 0.1079 0.96846 0.0
O2 O 0.92405 0.01339 0.96478 0.0
Mg3 Mg -0.01453 0.98969 0.00335 0.0
O4 O 0.08058 0.03406 0.9627 0.0
O5 O 0.13894 0.13572 0.93239 0.0
O6 O 0.03819 0.95871 0.04411 0.0
O7 O 0.9428 0.89369 0.96537 0.0
Mg8 Mg 0.87436 0.84872 0.0435 0.0
O9 O 0.89066 0.94034 0.04056 0.0
O10 O 0.95466 0.86449 0.07435 0.0
O11 O 0.85139 0.80118 0.99133 0.0
O12 O 0.80312 0.85019 0.0715 0.0
C13 C 0.08043 0.15109 0.04072 0.0
C14 C 0.93723 0.06268 0.94394 0.0
C15 C 0.12893 0.07879 0.93989 0.0
C16 C 0.01696 0.91169 0.06906 0.0
C17 C 0.89269 0.83058 0.96417 0.0
C18 C 0.83739 0.91363 0.06158 0.0
O19 O 0.11355 0.17513 0.01068 0.0
O20 O 0.03035 0.08767 0.04325 0.0
O21 O 0.84874 0.99474 0.53941 0.0
Mg22 Mg 0.83949 0.90451 0.53221 0.0
O23 O 0.96029 0.06371 0.53992 0.0
Mg24 Mg -0.00774 0.00555 0.50651 0.0
O25 O 0.9228 0.90528 0.53917 0.0
O26 O 0.84461 0.86728 0.58328 0.0
O27 O 0.02707 0.94926 0.47094 0.0
O28 O 0.07143 0.0345 0.55372 0.0
Mg29 Mg 0.14089 0.10531 0.47559 0.0
O30 O 0.06078 0.10868 0.47502 0.0
O31 O 0.12275 0.0283 0.44118 0.0
O32 O 0.17448 0.10487 0.52912 0.0
O33 O 0.16236 0.19273 0.45197 0.0
C34 C 0.84945 0.91943 0.45271 0.0
C35 C 0.90342 0.05255 0.54505 0.0
C36 C 0.90293 0.88428 0.57334 0.0
C37 C 0.07435 0.96625 0.44745 0.0
C38 C 0.13555 0.07005 0.55652 0.0
C39 C 0.09949 0.16678 0.45728 0.0
O40 O 0.81341 0.87334 0.47746 0.0
O41 O 0.9101 0.97154 0.45935 0.0
Zn42 Zn 0.3124 0.69096 0.18265 0.0
Zn43 Zn 0.3057 0.68524 0.31474 0.0
Zn44 Zn 0.32254 0.69445 0.24969 0.0
C45 C 0.43245 0.71769 0.30186 0.0
C46 C 0.21724 0.55953 0.2978 0.0
O47 O 0.27638 0.74427 0.22965 0.0
O48 O 0.23641 0.69643 0.17477 0.0
C49 C 0.44821 0.79327 0.20133 0.0
O50 O 0.42445 0.73897 0.27065 0.0
O51 O 0.38356 0.68331 0.32463 0.0
O52 O 0.21436 0.59646 0.32072 0.0
O53 O 0.25984 0.58766 0.27026 0.0
O54 O 0.40543 0.77839 0.1764 0.0
O55 O 0.42909 0.7595 0.23255 0.0
O56 O 0.26915 0.58784 0.23082 0.0
O57 O 0.29513 0.60328 0.17061 0.0
C58 C 0.26845 0.56377 0.19884 0.0
O59 O 0.28219 0.75002 0.26892 0.0
O60 O 0.31459 0.76813 0.32779 0.0
C61 C 0.24108 0.7339 0.20039 0.0
C62 C 0.29012 0.77907 0.30036 0.0
Zn63 Zn 0.68505 0.3292 0.81799 0.0
Zn64 Zn 0.66806 0.31521 0.68333 0.0
Zn65 Zn 0.67872 0.32106 0.75081 0.0
C66 C 0.73064 0.44763 0.69554 0.0
C67 C 0.54057 0.22036 0.70731 0.0
O68 O 0.71546 0.26344 0.77087 0.0
O69 O 0.67696 0.2444 0.82896 0.0
C70 C 0.78369 0.45659 0.7955 0.0
O71 O 0.73779 0.42518 0.72651 0.0
O72 O 0.69023 0.40636 0.67119 0.0
O73 O 0.57529 0.23117 0.67849 0.0
O74 O 0.56927 0.25595 0.73684 0.0
O75 O 0.77374 0.41909 0.82329 0.0
O76 O 0.74798 0.42995 0.76585 0.0
O77 O 0.57669 0.27752 0.77299 0.0
O78 O 0.60585 0.32887 0.82749 0.0
C79 C 0.5615 0.29407 0.80319 0.0
O80 O 0.7261 0.273 0.73235 0.0
O81 O 0.73804 0.30274 0.67258 0.0
C82 C 0.7024 0.23223 0.80266 0.0
C83 C 0.74896 0.27638 0.69933 0.0
H84 H 0.04387 0.88857 0.12165 0.0
C85 C 0.06325 0.90983 0.09363 0.0
H86 H 0.13296 0.92874 0.05174 0.0
H87 H 0.18174 0.8458 0.22409 0.0
H88 H 0.22598 0.96109 0.24111 0.0
H89 H 0.23466 0.0412 0.19418 0.0
H90 H 0.19519 0.00457 0.13045 0.0
C91 C 0.11656 0.91405 0.08078 0.0
C92 C 0.13772 0.87791 0.10298 0.0
C93 C 0.16577 0.90146 0.13894 0.0
C94 C 0.1666 0.85742 0.16489 0.0
C95 C 0.18586 0.87923 0.20227 0.0
C96 C 0.21031 0.94495 0.21256 0.0
C97 C 0.21474 0.98986 0.18623 0.0
C98 C 0.19191 0.96831 0.1499 0.0
H99 H 0.25888 0.83148 0.19156 0.0
C100 C 0.21945 0.77682 0.19225 0.0
H101 H 0.12069 0.69546 0.17918 0.0
H102 H 0.08291 0.81799 0.03555 0.0
H103 H 0.04319 0.70501 0.01722 0.0
H104 H 0.05153 0.63078 0.06022 0.0
H105 H 0.09987 0.66901 0.12139 0.0
C106 C 0.1585 0.7504 0.17772 0.0
C107 C 0.14656 0.7924 0.15337 0.0
C108 C 0.12 0.76941 0.11678 0.0
C109 C 0.11554 0.81227 0.09169 0.0
C110 C 0.0874 0.78765 0.05577 0.0
C111 C 0.06447 0.72282 0.04477 0.0
C112 C 0.0693 0.68114 0.06896 0.0
C113 C 0.09717 0.70399 0.10433 0.0
H114 H 0.15538 0.08532 0.61735 0.0
C115 C 0.16709 0.07096 0.59162 0.0
H116 H 0.22779 0.05035 0.56375 0.0
H117 H 0.49631 0.26857 0.64454 0.0
H118 H 0.52173 0.30669 0.57973 0.0
H119 H 0.433 0.25021 0.5319 0.0
H120 H 0.31868 0.15559 0.54861 0.0
C121 C 0.21806 0.06552 0.58994 0.0
C122 C 0.27163 0.09562 0.61872 0.0
C123 C 0.33822 0.15215 0.60836 0.0
C124 C 0.38933 0.18486 0.6359 0.0
C125 C 0.45545 0.24124 0.62482 0.0
C126 C 0.47083 0.26395 0.58765 0.0
C127 C 0.42091 0.23217 0.56075 0.0
C128 C 0.35527 0.17747 0.57083 0.0
H129 H 0.44867 0.12225 0.69219 0.0
C130 C 0.46717 0.17098 0.70441 0.0
H131 H 0.45055 0.24519 0.70938 0.0
H132 H 0.15326 0.98073 0.64597 0.0
H133 H 0.13017 0.93738 0.71019 0.0
H134 H 0.2179 -0.00306 0.75853 0.0
H135 H 0.3298 0.0997 0.74278 0.0
C136 C 0.42947 0.19335 0.70132 0.0
C137 C 0.37406 0.1605 0.6736 0.0
C138 C 0.30851 0.10229 0.68357 0.0
C139 C 0.25731 0.06923 0.65596 0.0
C140 C 0.19319 0.00912 0.66618 0.0
C141 C 0.17948 0.98347 0.70284 0.0
C142 C 0.22896 0.0169 0.73005 0.0
C143 C 0.29289 0.07569 0.72068 0.0
H144 H 0.12124 0.25336 0.05817 0.0
C145 C 0.09649 0.20157 0.069 0.0
H146 H 0.06944 0.14216 0.11892 0.0
H147 H 0.32121 0.45901 0.16093 0.0
H148 H 0.38594 0.41638 0.14747 0.0
H149 H 0.32925 0.29791 0.12721 0.0
H150 H 0.20725 0.22137 0.12009 0.0
C151 C 0.09017 0.19165 0.10615 0.0
C152 C 0.11961 0.2534 0.12941 0.0
C153 C 0.19013 0.29589 0.13607 0.0
C154 C 0.22277 0.36398 0.14806 0.0
C155 C 0.29384 0.40668 0.15213 0.0
C156 C 0.33159 0.38286 0.1445 0.0
C157 C 0.29967 0.31618 0.13306 0.0
C158 C 0.22976 0.27289 0.12899 0.0
H159 H 0.21862 0.45743 0.21923 0.0
C160 C 0.2342 0.49002 0.19442 0.0
H161 H 0.23389 0.49494 0.13519 0.0
H162 H -0.0159 0.18503 0.12011 0.0
H163 H 0.92082 0.23111 0.12807 0.0
H164 H 0.97711 0.34882 0.14947 0.0
H165 H 0.09726 0.42175 0.16252 0.0
C166 C 0.22011 0.46291 0.1601 0.0
C167 C 0.18466 0.38904 0.154 0.0
C168 C 0.11392 0.34606 0.14847 0.0
C169 C 0.08136 0.2781 0.13625 0.0
C170 C 0.01116 0.23714 0.12931 0.0
C171 C 0.97428 0.2628 0.13393 0.0
C172 C 0.00603 0.32916 0.14593 0.0
C173 C 0.07498 0.37047 0.1533 0.0
H174 H 0.85143 0.09862 0.55274 0.0
C175 C 0.8979 0.10492 0.5592 0.0
H176 H 0.98137 0.15189 0.59554 0.0
H177 H 0.86754 0.33668 0.61641 0.0
H178 H 0.94684 0.40536 0.56597 0.0
H179 H 0.01131 0.3709 0.53512 0.0
H180 H -0.00283 0.26749 0.55505 0.0
C181 C 0.93772 0.14842 0.58598 0.0
C182 C 0.91035 0.17671 0.60929 0.0
C183 C 0.92098 0.23819 0.59827 0.0
C184 C 0.88305 0.25736 0.61564 0.0
C185 C 0.8941 0.31888 0.60379 0.0
C186 C 0.93971 0.35899 0.57493 0.0
C187 C 0.97602 0.33959 0.55759 0.0
C188 C 0.96731 0.28015 0.56918 0.0
H189 H 0.81421 0.24474 0.71367 0.0
C190 C 0.78648 0.24849 0.69147 0.0
H191 H 0.75862 0.23332 0.6346 0.0
H192 H 0.88038 0.05716 0.63811 0.0
H193 H 0.78726 0.97824 0.68038 0.0
H194 H 0.71277 0.00549 0.70496 0.0
H195 H 0.73491 0.11424 0.69079 0.0
C196 C 0.78748 0.23003 0.65629 0.0
C197 C 0.83347 0.21413 0.64334 0.0
C198 C 0.82224 0.15215 0.65406 0.0
C199 C 0.86229 0.13452 0.63783 0.0
C200 C 0.8501 0.07214 0.6488 0.0
C201 C 0.79705 0.02653 0.67313 0.0
C202 C 0.75567 0.04223 0.6874 0.0
C203 C 0.76867 0.10476 0.67875 0.0
H204 H 0.83493 0.97135 0.10513 0.0
C205 C 0.81675 0.95369 0.07694 0.0
H206 H 0.73805 0.91796 0.03953 0.0
H207 H 0.51134 0.7222 0.15605 0.0
H208 H 0.49488 0.64749 0.10663 0.0
H209 H 0.57452 0.69103 0.05316 0.0
H210 H 0.67003 0.80932 0.04853 0.0
C211 C 0.75551 0.93562 0.0678 0.0
C212 C 0.70369 0.91111 0.09809 0.0
C213 C 0.64868 0.84049 0.1007 0.0
C214 C 0.60391 0.81476 0.13214 0.0
C215 C 0.54806 0.74459 0.13339 0.0
C216 C 0.53773 0.70084 0.10508 0.0
C217 C 0.58246 0.72538 0.07498 0.0
C218 C 0.63734 0.79405 0.0727 0.0
H219 H 0.52941 0.88624 0.17257 0.0
C220 C 0.51937 0.84564 0.19136 0.0
H221 H 0.55164 0.78707 0.20795 0.0
H222 H 0.79614 0.04985 0.09867 0.0
H223 H 0.81359 0.12461 0.14903 0.0
H224 H 0.74241 0.0782 0.20622 0.0
H225 H 0.65181 0.95679 0.21301 0.0
C226 C 0.56408 0.83174 0.19233 0.0
C227 C 0.61494 0.85906 0.16136 0.0
C228 C 0.66931 0.92949 0.15858 0.0
C229 C 0.71253 0.95582 0.12642 0.0
C230 C 0.76378 0.02694 0.12327 0.0
C231 C 0.77403 0.0704 0.15181 0.0
C232 C 0.73371 0.04427 0.18396 0.0
C233 C 0.68178 0.97465 0.18744 0.0
H234 H 0.92521 0.85818 0.62607 0.0
C235 C 0.92979 0.85531 0.59594 0.0
H236 H 0.92435 0.79535 0.5527 0.0
H237 H 0.86954 0.6336 0.71929 0.0
H238 H -0.01094 0.71719 0.73068 0.0
H239 H 0.06262 0.8091 0.68431 0.0
H240 H 0.01602 0.81922 0.62691 0.0
C241 C 0.9237 0.80083 0.58287 0.0
C242 C 0.88403 0.73706 0.60612 0.0
C243 C 0.91237 0.72984 0.6385 0.0
C244 C 0.87073 0.67438 0.66403 0.0
C245 C 0.89945 0.67211 0.6978 0.0
C246 C 0.96795 0.72029 0.70488 0.0
C247 C 0.00927 0.77223 0.67889 0.0
C248 C 0.98196 0.77753 0.64614 0.0
H249 H 0.82867 0.5363 0.67564 0.0
C250 C 0.7788 0.51949 0.68464 0.0
H251 H 0.7087 0.54099 0.68746 0.0
H252 H 0.8123 0.73693 0.54708 0.0
H253 H 0.69398 0.65228 0.53477 0.0
H254 H 0.62325 0.5519 0.57662 0.0
H255 H 0.67039 0.53616 0.63115 0.0
C256 C 0.75949 0.5597 0.67914 0.0
C257 C 0.8016 0.62339 0.65573 0.0
C258 C 0.77323 0.63056 0.62311 0.0
C259 C 0.81437 0.68764 0.59846 0.0
C260 C 0.78416 0.69444 0.56667 0.0
C261 C 0.71598 0.64606 0.55915 0.0
C262 C 0.67619 0.58964 0.58272 0.0
C263 C 0.70416 0.58148 0.61418 0.0
H264 H 0.03493 0.8602 0.43259 0.0
C265 C 0.07607 0.91393 0.42828 0.0
H266 H 0.17235 0.98679 0.40374 0.0
H267 H 0.27548 0.81261 0.38384 0.0
H268 H 0.3285 0.86551 0.44271 0.0
H269 H 0.29565 0.92763 0.47802 0.0
H270 H 0.20891 0.93651 0.45463 0.0
C271 C 0.13006 0.93317 0.40683 0.0
C272 C 0.13984 0.88512 0.38904 0.0
C273 C 0.1903 0.88006 0.40319 0.0
C274 C 0.20984 0.84505 0.38262 0.0
C275 C 0.25964 0.83987 0.39777 0.0
C276 C 0.29031 0.86972 0.43172 0.0
C277 C 0.27179 0.90466 0.45159 0.0
C278 C 0.2222 0.90967 0.43774 0.0
H279 H 0.29155 0.86963 0.30485 0.0
C280 C 0.26001 0.81437 0.30745 0.0
H281 H 0.17108 0.72527 0.33005 0.0
H282 H 0.04057 0.88415 0.35437 0.0
H283 H -0.01131 0.8324 0.29487 0.0
H284 H 0.02328 0.77224 0.25901 0.0
H285 H 0.10999 0.76337 0.28252 0.0
C286 C 0.20082 0.78029 0.32612 0.0
C287 C 0.17975 0.81629 0.34757 0.0
C288 C 0.12793 0.81944 0.33397 0.0
C289 C 0.10791 0.85399 0.35472 0.0
C290 C 0.05743 0.85819 0.3399 0.0
C291 C 0.02727 0.82872 0.30576 0.0
C292 C 0.04669 0.79479 0.28558 0.0
C293 C 0.09641 0.79 0.29939 0.0
H294 H 0.15451 0.02378 0.90435 0.0
C295 C 0.17498 0.06747 0.92228 0.0
H296 H 0.2596 0.16351 0.93914 0.0
H297 H 0.45576 0.12334 0.84438 0.0
H298 H 0.44817 0.05879 0.89888 0.0
H299 H 0.36405 0.02463 0.94902 0.0
H300 H 0.28732 0.05567 0.94503 0.0
C301 C 0.24097 0.11992 0.92134 0.0
C302 C 0.285 0.13185 0.8893 0.0
C303 C 0.32623 0.10971 0.89104 0.0
C304 C 0.37423 0.12894 0.86198 0.0
C305 C 0.41788 0.10971 0.86544 0.0
C306 C 0.41407 0.0726 0.89661 0.0
C307 C 0.36672 0.05339 0.92485 0.0
C308 C 0.32299 0.07142 0.9222 0.0
H309 H 0.48539 0.2963 0.83244 0.0
C310 C 0.49204 0.26732 0.81258 0.0
H311 H 0.44744 0.17052 0.78934 0.0
H312 H 0.21946 0.19031 0.87948 0.0
H313 H 0.23072 0.25938 0.82677 0.0
H314 H 0.30723 0.28446 0.77381 0.0
H315 H 0.37454 0.24191 0.77436 0.0
C316 C 0.44018 0.20243 0.80612 0.0
C317 C 0.38018 0.1697 0.83121 0.0
C318 C 0.33739 0.18998 0.82897 0.0
C319 C 0.2912 0.17288 0.85861 0.0
C320 C 0.2536 0.19939 0.85728 0.0
C321 C 0.25984 0.23954 0.82712 0.0
C322 C 0.30307 0.25385 0.79741 0.0
C323 C 0.34151 0.22942 0.79814 0.0
H324 H 0.02242 0.17198 0.42986 0.0
C325 C 0.07317 0.20218 0.4411 0.0
H326 H 0.16678 0.29861 0.44518 0.0
H327 H 0.16909 0.38111 0.27906 0.0
H328 H 0.24037 0.34349 0.27448 0.0
H329 H 0.25199 0.28725 0.3285 0.0
H330 H 0.19022 0.26546 0.38631 0.0
C331 C 0.11606 0.26955 0.43381 0.0
C332 C 0.10649 0.30155 0.4015 0.0
C333 C 0.14386 0.3146 0.36809 0.0
C334 C 0.14118 0.35124 0.33797 0.0
C335 C 0.17383 0.35801 0.30368 0.0
C336 C 0.21405 0.3359 0.30055 0.0
C337 C 0.22044 0.30411 0.3309 0.0
C338 C 0.18493 0.29233 0.36408 0.0
H339 H 0.23119 0.48595 0.31855 0.0
C340 C 0.19219 0.49124 0.31048 0.0
H341 H 0.08994 0.45013 0.31121 0.0
H342 H 0.0226 0.27722 0.45973 0.0
H343 H 0.95376 0.31748 0.46465 0.0
H344 H 0.95418 0.38714 0.41388 0.0
H345 H 0.02247 0.41664 0.35809 0.0
C346 C 0.12697 0.44178 0.31872 0.0
C347 C 0.10778 0.38187 0.34289 0.0
C348 C 0.06538 0.3635 0.37496 0.0
C349 C 0.06474 0.323 0.40431 0.0
C350 C 0.02427 0.30732 0.43662 0.0
C351 C -0.01528 0.3302 0.43982 0.0
C352 C -0.01496 0.36951 0.41125 0.0
C353 C 0.02499 0.38641 0.37927 0.0
H354 H 0.83096 0.01544 0.92873 0.0
C355 C 0.88262 0.06145 0.9264 0.0
H356 H 0.94711 0.16453 0.90792 0.0
H357 H 0.69188 0.05998 0.79647 0.0
H358 H 0.72116 0.99163 0.7671 0.0
H359 H 0.81059 0.9868 0.79282 0.0
H360 H 0.8674 0.04519 0.85012 0.0
C361 C 0.89603 0.11738 0.90889 0.0
C362 C 0.84224 0.11989 0.89302 0.0
C363 C 0.81162 0.08767 0.85873 0.0
C364 C 0.76316 0.09409 0.84249 0.0
C365 C 0.73083 0.05873 0.80921 0.0
C366 C 0.74738 0.01972 0.79196 0.0
C367 C 0.79721 0.01628 0.80675 0.0
C368 C 0.82919 0.0498 0.83975 0.0
H369 H 0.76913 0.20166 0.79452 0.0
C370 C 0.72622 0.19079 0.81061 0.0
H371 H 0.6611 0.13933 0.85704 0.0
H372 H 0.89044 0.18621 0.95963 0.0
H373 H 0.8619 0.25471 0.98923 0.0
H374 H 0.78111 0.26966 0.95997 0.0
H375 H 0.72844 0.21641 0.90122 0.0
C376 C 0.70406 0.14982 0.84117 0.0
C377 C 0.74783 0.13514 0.8598 0.0
C378 C 0.77782 0.16659 0.89446 0.0
C379 C 0.82501 0.15879 0.9111 0.0
C380 C 0.85465 0.191 0.94559 0.0
C381 C 0.83867 0.23038 0.96293 0.0
C382 C 0.79316 0.23874 0.94649 0.0
C383 C 0.76307 0.20754 0.91267 0.0
H384 H 0.84552 0.92843 0.39089 0.0
C385 C 0.81722 0.9144 0.41705 0.0
H386 H 0.7247 0.87818 0.44375 0.0
H387 H 0.59485 0.90935 0.29953 0.0
H388 H 0.63895 0.01801 0.32722 0.0
H389 H 0.71758 0.06024 0.38027 0.0
H390 H 0.75301 0.99372 0.4057 0.0
C391 C 0.75176 0.8894 0.41732 0.0
C392 C 0.71113 0.86799 0.38285 0.0
C393 C 0.69354 0.9088 0.36723 0.0
C394 C 0.64783 0.88418 0.33684 0.0
C395 C 0.62919 0.92508 0.32264 0.0
C396 C 0.65425 0.98781 0.33827 0.0
C397 C 0.69856 0.01159 0.36811 0.0
C398 C 0.71847 0.97295 0.38241 0.0
H399 H 0.49731 0.71552 0.34193 0.0
C400 C 0.49792 0.73684 0.3148 0.0
H401 H 0.55947 0.81077 0.2732 0.0
H402 H 0.72776 0.77343 0.40979 0.0
H403 H 0.67678 0.66075 0.38548 0.0
H404 H 0.60311 0.62067 0.33022 0.0
H405 H 0.57835 0.69293 0.29971 0.0
C406 C 0.55751 0.78596 0.29909 0.0
C407 C 0.61872 0.81812 0.32278 0.0
C408 C 0.63791 0.77811 0.33789 0.0
C409 C 0.68276 0.80235 0.3686 0.0
C410 C 0.69574 0.7586 0.38559 0.0
C411 C 0.66665 0.69359 0.37198 0.0
C412 C 0.62499 0.67098 0.34096 0.0
C413 C 0.61091 0.71268 0.32386 0.0
H414 H 0.83025 0.74303 0.92768 0.0
C415 C 0.88152 0.7887 0.93167 0.0
H416 H -0.01601 0.84015 0.91542 0.0
H417 H 0.83824 0.51775 0.8791 0.0
H418 H 0.87994 0.52151 0.94117 0.0
H419 H 0.9408 0.62739 0.97742 0.0
H420 H 0.9595 0.73023 0.95185 0.0
C421 C 0.93155 0.79779 0.91069 0.0
C422 C 0.9149 0.74288 0.88459 0.0
C423 C 0.9082 0.68479 0.89891 0.0
C424 C 0.87436 0.62423 0.87769 0.0
C425 C 0.86442 0.56549 0.89372 0.0
C426 C 0.88812 0.56692 0.92936 0.0
C427 C 0.92232 0.62655 0.9498 0.0
C428 C 0.93242 0.68499 0.93489 0.0
H429 H 0.87982 0.56075 0.79254 0.0
C430 C 0.82689 0.53053 0.80077 0.0
H431 H 0.75121 0.52398 0.83236 0.0
H432 H 0.92992 0.84884 0.84701 0.0
H433 H 0.88873 0.84575 0.78448 0.0
H434 H 0.82852 0.74014 0.7478 0.0
H435 H 0.80951 0.63716 0.77326 0.0
C436 C 0.80366 0.55631 0.82292 0.0
C437 C 0.84914 0.62267 0.84172 0.0
C438 C 0.86021 0.68222 0.82632 0.0
C439 C 0.89383 0.7427 0.84769 0.0
C440 C 0.90379 0.80144 0.83196 0.0
C441 C 0.88062 0.80032 0.79616 0.0
C442 C 0.8468 0.74087 0.77549 0.0
C443 C 0.83637 0.68224 0.79032 0.0
loop_
_geom_bond_atom_site_label_1
_geom_bond_atom_site_label_2
_geom_bond_distance
_geom_bond_site_symmetry_2
_ccdc_geom_bond_type
O0 Mg1 1.990 . S
O0 C14 1.253 1_455 S
Mg1 O0 1.990 . S
Mg1 O4 2.180 . S
Mg1 O5 2.117 . S
Mg1 O19 2.030 1_556 S
O2 Mg3 2.072 1_656 S
O2 C14 1.260 . S
Mg3 O2 2.072 1_454 S
Mg3 O4 2.099 1_554 S
Mg3 O6 2.079 1_545 S
Mg3 O7 2.072 1_444 S
Mg3 O9 2.099 1_445 S
Mg3 O20 2.079 . S
O4 Mg1 2.180 . S
O4 Mg3 2.099 1_556 S
O4 C15 1.279 . S
O5 Mg1 2.117 . S
O5 C15 1.250 . S
O6 Mg3 2.079 1_565 S
O6 C16 1.264 . S
O7 Mg3 2.072 1_666 S
O7 C17 1.260 . S
Mg8 O9 2.180 . S
Mg8 O10 2.030 . S
Mg8 O11 1.990 1_554 S
Mg8 O12 2.117 . S
O9 Mg3 2.099 1_665 S
O9 Mg8 2.180 . S
O9 C18 1.279 . S
O10 Mg8 2.030 . S
O10 C16 1.248 1_655 S
O11 Mg8 1.990 1_556 S
O11 C17 1.253 . S
O12 Mg8 2.117 . S
O12 C18 1.250 . S
C13 O19 1.248 . S
C13 O20 1.264 . S
C14 O0 1.253 1_655 S
C14 O2 1.260 . S
C15 O4 1.279 . S
C15 O5 1.250 . S
C16 O6 1.264 . S
C16 O10 1.248 1_455 S
C17 O7 1.260 . S
C17 O11 1.253 . S
C18 O9 1.279 . S
C18 O12 1.250 . S
O19 Mg1 2.030 1_554 S
O19 C13 1.248 . S
O20 Mg3 2.079 . S
O20 C13 1.264 . S
O21 Mg22 1.990 . S
O21 C35 1.253 1_565 S
Mg22 O21 1.990 . S
Mg22 O25 2.180 . S
Mg22 O26 2.117 . S
Mg22 O40 2.030 . S
O23 Mg24 2.073 1_655 S
O23 C35 1.260 . S
Mg24 O23 2.073 1_455 S
Mg24 O25 2.098 1_445 S
Mg24 O27 2.078 1_545 S
Mg24 O28 2.072 . S
Mg24 O30 2.099 . S
Mg24 O41 2.079 1_445 S
O25 Mg22 2.180 . S
O25 Mg24 2.098 1_665 S
O25 C36 1.279 . S
O26 Mg22 2.117 . S
O26 C36 1.250 . S
O27 Mg24 2.078 1_565 S
O27 C37 1.264 . S
O28 Mg24 2.072 . S
O28 C38 1.260 . S
Mg29 O30 2.180 . S
Mg29 O31 2.030 . S
Mg29 O32 1.990 . S
Mg29 O33 2.117 . S
O30 Mg24 2.099 . S
O30 Mg29 2.180 . S
O30 C39 1.279 . S
O31 Mg29 2.030 . S
O31 C37 1.248 1_545 S
O32 Mg29 1.990 . S
O32 C38 1.253 . S
O33 Mg29 2.117 . S
O33 C39 1.250 . S
C34 O40 1.248 . S
C34 O41 1.264 . S
C35 O21 1.253 1_545 S
C35 O23 1.260 . S
C36 O25 1.279 . S
C36 O26 1.250 . S
C37 O27 1.264 . S
C37 O31 1.248 1_565 S
C38 O28 1.260 . S
C38 O32 1.253 . S
C39 O30 1.279 . S
C39 O33 1.250 . S
O40 Mg22 2.030 . S
O40 C34 1.248 . S
O41 Mg24 2.079 1_665 S
O41 C34 1.264 . S
Zn42 O48 1.920 . S
Zn42 O54 1.898 . S
Zn42 O57 1.905 . S
Zn43 O51 1.905 . S
Zn43 O52 1.898 . S
Zn43 O60 1.920 . S
Zn44 O47 2.080 . S
Zn44 O50 2.114 . S
Zn44 O53 2.120 . S
Zn44 O55 2.120 . S
Zn44 O56 2.114 . S
Zn44 O59 2.080 . S
C45 O50 1.166 . S
C45 O51 1.182 . S
C46 O52 1.167 . S
C46 O53 1.299 . S
O47 Zn44 2.080 . S
O47 C61 1.305 . S
O48 Zn42 1.920 . S
O48 C61 1.234 . S
C49 O54 1.167 . S
C49 O55 1.299 . S
O50 Zn44 2.114 . S
O50 C45 1.166 . S
O51 Zn43 1.905 . S
O51 C45 1.182 . S
O52 Zn43 1.898 . S
O52 C46 1.167 . S
O53 Zn44 2.120 . S
O53 C46 1.299 . S
O54 Zn42 1.898 . S
O54 C49 1.167 . S
O55 Zn44 2.120 . S
O55 C49 1.299 . S
O56 Zn44 2.114 . S
O56 C58 1.166 . S
O57 Zn42 1.905 . S
O57 C58 1.182 . S
C58 O56 1.166 . S
C58 O57 1.182 . S
O59 Zn44 2.080 . S
O59 C62 1.305 . S
O60 Zn43 1.920 . S
O60 C62 1.234 . S
C61 O47 1.305 . S
C61 O48 1.234 . S
C62 O59 1.305 . S
C62 O60 1.234 . S
Zn63 O69 1.920 . S
Zn63 O75 1.898 . S
Zn63 O78 1.905 . S
Zn64 O72 1.905 . S
Zn64 O73 1.898 . S
Zn64 O81 1.920 . S
Zn65 O68 2.080 . S
Zn65 O71 2.114 . S
Zn65 O74 2.120 . S
Zn65 O76 2.120 . S
Zn65 O77 2.114 . S
Zn65 O80 2.080 . S
C66 O71 1.166 . S
C66 O72 1.182 . S
C67 O73 1.167 . S
C67 O74 1.299 . S
O68 Zn65 2.080 . S
O68 C82 1.305 . S
O69 Zn63 1.920 . S
O69 C82 1.234 . S
C70 O75 1.167 . S
C70 O76 1.299 . S
O71 Zn65 2.114 . S
O71 C66 1.166 . S
O72 Zn64 1.905 . S
O72 C66 1.182 . S
O73 Zn64 1.898 . S
O73 C67 1.167 . S
O74 Zn65 2.120 . S
O74 C67 1.299 . S
O75 Zn63 1.898 . S
O75 C70 1.167 . S
O76 Zn65 2.120 . S
O76 C70 1.299 . S
O77 Zn65 2.114 . S
O77 C79 1.166 . S
O78 Zn63 1.905 . S
O78 C79 1.182 . S
C79 O77 1.166 . S
C79 O78 1.182 . S
O80 Zn65 2.080 . S
O80 C83 1.305 . S
O81 Zn64 1.920 . S
O81 C83 1.234 . S
C82 O68 1.305 . S
C82 O69 1.234 . S
C83 O80 1.305 . S
C83 O81 1.234 . S
H84 C85 0.951 . S
C85 H84 0.951 . S
C85 C91 1.265 . S
H86 C91 0.950 . S
H87 C95 0.949 . S
H88 C96 0.950 . S
H89 C97 0.951 1_545 S
H90 C98 0.951 . S
C91 C85 1.265 . S
C91 H86 0.950 . S
C91 C92 1.478 . S
C92 C91 1.478 . S
C92 C93 1.397 . S
C92 C109 1.394 . S
C93 C92 1.397 . S
C93 C94 1.438 . S
C93 C98 1.429 . S
C94 C93 1.438 . S
C94 C95 1.428 . S
C94 C107 1.394 . S
C95 H87 0.949 . S
C95 C94 1.428 . S
C95 C96 1.345 . S
C96 H88 0.950 . S
C96 C95 1.345 . S
C96 C97 1.424 . S
C97 H89 0.951 1_565 S
C97 C96 1.424 . S
C97 C98 1.347 . S
C98 H90 0.951 . S
C98 C93 1.429 . S
C98 C97 1.347 . S
H99 C100 0.951 . S
C100 H99 0.951 . S
C100 C106 1.265 . S
H101 C106 0.950 . S
H102 C110 0.949 . S
H103 C111 0.950 . S
H104 C112 0.951 . S
H105 C113 0.951 . S
C106 C100 1.265 . S
C106 H101 0.950 . S
C106 C107 1.478 . S
C107 C94 1.394 . S
C107 C106 1.478 . S
C107 C108 1.397 . S
C108 C107 1.397 . S
C108 C109 1.438 . S
C108 C113 1.429 . S
C109 C92 1.394 . S
C109 C108 1.438 . S
C109 C110 1.428 . S
C110 H102 0.949 . S
C110 C109 1.428 . S
C110 C111 1.345 . S
C111 H103 0.950 . S
C111 C110 1.345 . S
C111 C112 1.424 . S
C112 H104 0.951 . S
C112 C111 1.424 . S
C112 C113 1.347 . S
C113 H105 0.951 . S
C113 C108 1.429 . S
C113 C112 1.347 . S
H114 C115 0.951 . S
C115 H114 0.951 . S
C115 C121 1.265 . S
H116 C121 0.950 . S
H117 C125 0.949 . S
H118 C126 0.950 . S
H119 C127 0.951 . S
H120 C128 0.951 . S
C121 C115 1.265 . S
C121 H116 0.950 . S
C121 C122 1.478 . S
C122 C121 1.478 . S
C122 C123 1.397 . S
C122 C139 1.394 . S
C123 C122 1.397 . S
C123 C124 1.438 . S
C123 C128 1.429 . S
C124 C123 1.438 . S
C124 C125 1.428 . S
C124 C137 1.394 . S
C125 H117 0.949 . S
C125 C124 1.428 . S
C125 C126 1.345 . S
C126 H118 0.950 . S
C126 C125 1.345 . S
C126 C127 1.424 . S
C127 H119 0.951 . S
C127 C126 1.424 . S
C127 C128 1.347 . S
C128 H120 0.951 . S
C128 C123 1.429 . S
C128 C127 1.347 . S
H129 C130 0.951 . S
C130 H129 0.951 . S
C130 C136 1.265 . S
H131 C136 0.950 . S
H132 C140 0.949 . S
H133 C141 0.950 1_565 S
H134 C142 0.951 . S
H135 C143 0.951 . S
C136 C130 1.265 . S
C136 H131 0.950 . S
C136 C137 1.478 . S
C137 C124 1.394 . S
C137 C136 1.478 . S
C137 C138 1.397 . S
C138 C137 1.397 . S
C138 C139 1.438 . S
C138 C143 1.429 . S
C139 C122 1.394 . S
C139 C138 1.438 . S
C139 C140 1.428 . S
C140 H132 0.949 . S
C140 C139 1.428 . S
C140 C141 1.345 . S
C141 H133 0.950 1_545 S
C141 C140 1.345 . S
C141 C142 1.424 . S
C142 H134 0.951 . S
C142 C141 1.424 . S
C142 C143 1.347 . S
C143 H135 0.951 . S
C143 C138 1.429 . S
C143 C142 1.347 . S
H144 C145 0.951 . S
C145 H144 0.951 . S
C145 C151 1.265 . S
H146 C151 0.950 . S
H147 C155 0.949 . S
H148 C156 0.950 . S
H149 C157 0.951 . S
H150 C158 0.951 . S
C151 C145 1.265 . S
C151 H146 0.950 . S
C151 C152 1.478 . S
C152 C151 1.478 . S
C152 C153 1.397 . S
C152 C169 1.394 . S
C153 C152 1.397 . S
C153 C154 1.438 . S
C153 C158 1.429 . S
C154 C153 1.438 . S
C154 C155 1.428 . S
C154 C167 1.394 . S
C155 H147 0.949 . S
C155 C154 1.428 . S
C155 C156 1.345 . S
C156 H148 0.950 . S
C156 C155 1.345 . S
C156 C157 1.424 . S
C157 H149 0.951 . S
C157 C156 1.424 . S
C157 C158 1.347 . S
C158 H150 0.951 . S
C158 C153 1.429 . S
C158 C157 1.347 . S
H159 C160 0.951 . S
C160 H159 0.951 . S
C160 C166 1.265 . S
H161 C166 0.950 . S
H162 C170 0.949 . S
H163 C171 0.944 1_655 S
H164 C172 0.951 . S
H165 C173 0.951 . S
C166 C160 1.265 . S
C166 H161 0.950 . S
C166 C167 1.478 . S
C167 C154 1.394 . S
C167 C166 1.478 . S
C167 C168 1.397 . S
C168 C167 1.397 . S
C168 C169 1.438 . S
C168 C173 1.429 . S
C169 C152 1.394 . S
C169 C168 1.438 . S
C169 C170 1.428 . S
C170 H162 0.949 . S
C170 C169 1.428 . S
C170 C171 1.351 . S
C171 H163 0.944 1_455 S
C171 C170 1.351 . S
C171 C172 1.423 . S
C172 H164 0.951 . S
C172 C171 1.423 . S
C172 C173 1.347 . S
C173 H165 0.951 . S
C173 C168 1.429 . S
C173 C172 1.347 . S
H174 C175 0.951 . S
C175 H174 0.951 . S
C175 C181 1.265 . S
H176 C181 0.950 . S
H177 C185 0.949 . S
H178 C186 0.950 . S
H179 C187 0.951 . S
H180 C188 0.951 . S
C181 C175 1.265 . S
C181 H176 0.950 . S
C181 C182 1.478 . S
C182 C181 1.478 . S
C182 C183 1.397 . S
C182 C199 1.394 . S
C183 C182 1.397 . S
C183 C184 1.438 . S
C183 C188 1.429 . S
C184 C183 1.438 . S
C184 C185 1.428 . S
C184 C197 1.394 . S
C185 H177 0.949 . S
C185 C184 1.428 . S
C185 C186 1.345 . S
C186 H178 0.950 . S
C186 C185 1.345 . S
C186 C187 1.424 . S
C187 H179 0.951 . S
C187 C186 1.424 . S
C187 C188 1.347 . S
C188 H180 0.951 . S
C188 C183 1.429 . S
C188 C187 1.347 . S
H189 C190 0.951 . S
C190 H189 0.951 . S
C190 C196 1.265 . S
H191 C196 0.950 . S
H192 C200 0.949 . S
H193 C201 0.950 1_565 S
H194 C202 0.951 . S
H195 C203 0.951 . S
C196 C190 1.265 . S
C196 H191 0.950 . S
C196 C197 1.478 . S
C197 C184 1.394 . S
C197 C196 1.478 . S
C197 C198 1.397 . S
C198 C197 1.397 . S
C198 C199 1.438 . S
C198 C203 1.429 . S
C199 C182 1.394 . S
C199 C198 1.438 . S
C199 C200 1.428 . S
C200 H192 0.949 . S
C200 C199 1.428 . S
C200 C201 1.345 . S
C201 H193 0.950 1_545 S
C201 C200 1.345 . S
C201 C202 1.424 . S
C202 H194 0.951 . S
C202 C201 1.424 . S
C202 C203 1.347 . S
C203 H195 0.951 . S
C203 C198 1.429 . S
C203 C202 1.347 . S
H204 C205 0.951 . S
C205 H204 0.951 . S
C205 C211 1.265 . S
H206 C211 0.950 . S
H207 C215 0.949 . S
H208 C216 0.950 . S
H209 C217 0.951 . S
H210 C218 0.951 . S
C211 C205 1.265 . S
C211 H206 0.950 . S
C211 C212 1.478 . S
C212 C211 1.478 . S
C212 C213 1.397 . S
C212 C229 1.394 . S
C213 C212 1.397 . S
C213 C214 1.438 . S
C213 C218 1.429 . S
C214 C213 1.438 . S
C214 C215 1.428 . S
C214 C227 1.394 . S
C215 H207 0.949 . S
C215 C214 1.428 . S
C215 C216 1.345 . S
C216 H208 0.950 . S
C216 C215 1.345 . S
C216 C217 1.424 . S
C217 H209 0.951 . S
C217 C216 1.424 . S
C217 C218 1.347 . S
C218 H210 0.951 . S
C218 C213 1.429 . S
C218 C217 1.347 . S
H219 C220 0.951 . S
C220 H219 0.951 . S
C220 C226 1.265 . S
H221 C226 0.950 . S
H222 C230 0.949 . S
H223 C231 0.950 . S
H224 C232 0.951 . S
H225 C233 0.951 . S
C226 C220 1.265 . S
C226 H221 0.950 . S
C226 C227 1.478 . S
C227 C214 1.394 . S
C227 C226 1.478 . S
C227 C228 1.397 . S
C228 C227 1.397 . S
C228 C229 1.438 . S
C228 C233 1.429 . S
C229 C212 1.394 . S
C229 C228 1.438 . S
C229 C230 1.428 1_565 S
C230 H222 0.949 . S
C230 C229 1.428 1_545 S
C230 C231 1.345 . S
C231 H223 0.950 . S
C231 C230 1.345 . S
C231 C232 1.424 . S
C232 H224 0.951 . S
C232 C231 1.424 . S
C232 C233 1.347 1_545 S
C233 H225 0.951 . S
C233 C228 1.429 . S
C233 C232 1.347 1_565 S
H234 C235 0.951 . S
C235 H234 0.951 . S
C235 C241 1.265 . S
H236 C241 0.950 . S
H237 C245 0.949 . S
H238 C246 0.950 . S
H239 C247 0.951 . S
H240 C248 0.951 1_455 S
C241 C235 1.265 . S
C241 H236 0.950 . S
C241 C242 1.478 . S
C242 C241 1.478 . S
C242 C243 1.397 . S
C242 C259 1.394 . S
C243 C242 1.397 . S
C243 C244 1.438 . S
C243 C248 1.429 . S
C244 C243 1.438 . S
C244 C245 1.428 . S
C244 C257 1.394 . S
C245 H237 0.949 . S
C245 C244 1.428 . S
C245 C246 1.345 . S
C246 H238 0.950 . S
C246 C245 1.345 . S
C246 C247 1.424 1_655 S
C247 H239 0.951 . S
C247 C246 1.424 1_455 S
C247 C248 1.347 1_455 S
C248 H240 0.951 1_655 S
C248 C243 1.429 . S
C248 C247 1.347 1_655 S
H249 C250 0.951 . S
C250 H249 0.951 . S
C250 C256 1.265 . S
H251 C256 0.950 . S
H252 C260 0.949 . S
H253 C261 0.950 . S
H254 C262 0.951 . S
H255 C263 0.951 . S
C256 C250 1.265 . S
C256 H251 0.950 . S
C256 C257 1.478 . S
C257 C244 1.394 . S
C257 C256 1.478 . S
C257 C258 1.397 . S
C258 C257 1.397 . S
C258 C259 1.438 . S
C258 C263 1.429 . S
C259 C242 1.394 . S
C259 C258 1.438 . S
C259 C260 1.428 . S
C260 H252 0.949 . S
C260 C259 1.428 . S
C260 C261 1.345 . S
C261 H253 0.950 . S
C261 C260 1.345 . S
C261 C262 1.424 . S
C262 H254 0.951 . S
C262 C261 1.424 . S
C262 C263 1.347 . S
C263 H255 0.951 . S
C263 C258 1.429 . S
C263 C262 1.347 . S
H264 C265 0.951 . S
C265 H264 0.951 . S
C265 C271 1.265 . S
H266 C271 0.950 . S
H267 C275 0.949 . S
H268 C276 0.950 . S
H269 C277 0.951 . S
H270 C278 0.951 . S
C271 C265 1.265 . S
C271 H266 0.950 . S
C271 C272 1.478 . S
C272 C271 1.478 . S
C272 C273 1.397 . S
C272 C289 1.394 . S
C273 C272 1.397 . S
C273 C274 1.438 . S
C273 C278 1.429 . S
C274 C273 1.438 . S
C274 C275 1.428 . S
C274 C287 1.394 . S
C275 H267 0.949 . S
C275 C274 1.428 . S
C275 C276 1.345 . S
C276 H268 0.950 . S
C276 C275 1.345 . S
C276 C277 1.424 . S
C277 H269 0.951 . S
C277 C276 1.424 . S
C277 C278 1.347 . S
C278 H270 0.951 . S
C278 C273 1.429 . S
C278 C277 1.347 . S
H279 C280 0.951 . S
C280 H279 0.951 . S
C280 C286 1.265 . S
H281 C286 0.950 . S
H282 C290 0.949 . S
H283 C291 0.950 . S
H284 C292 0.951 . S
H285 C293 0.951 . S
C286 C280 1.265 . S
C286 H281 0.950 . S
C286 C287 1.478 . S
C287 C274 1.394 . S
C287 C286 1.478 . S
C287 C288 1.397 . S
C288 C287 1.397 . S
C288 C289 1.438 . S
C288 C293 1.429 . S
C289 C272 1.394 . S
C289 C288 1.438 . S
C289 C290 1.428 . S
C290 H282 0.949 . S
C290 C289 1.428 . S
C290 C291 1.345 . S
C291 H283 0.950 . S
C291 C290 1.345 . S
C291 C292 1.424 . S
C292 H284 0.951 . S
C292 C291 1.424 . S
C292 C293 1.347 . S
C293 H285 0.951 . S
C293 C288 1.429 . S
C293 C292 1.347 . S
H294 C295 0.951 . S
C295 H294 0.951 . S
C295 C301 1.265 . S
H296 C301 0.950 . S
H297 C305 0.949 . S
H298 C306 0.950 . S
H299 C307 0.951 . S
H300 C308 0.951 . S
C301 C295 1.265 . S
C301 H296 0.950 . S
C301 C302 1.478 . S
C302 C301 1.478 . S
C302 C303 1.397 . S
C302 C319 1.394 . S
C303 C302 1.397 . S
C303 C304 1.438 . S
C303 C308 1.429 . S
C304 C303 1.438 . S
C304 C305 1.428 . S
C304 C317 1.394 . S
C305 H297 0.949 . S
C305 C304 1.428 . S
C305 C306 1.345 . S
C306 H298 0.950 . S
C306 C305 1.345 . S
C306 C307 1.424 . S
C307 H299 0.951 . S
C307 C306 1.424 . S
C307 C308 1.347 . S
C308 H300 0.951 . S
C308 C303 1.429 . S
C308 C307 1.347 . S
H309 C310 0.951 . S
C310 H309 0.951 . S
C310 C316 1.265 . S
H311 C316 0.950 . S
H312 C320 0.949 . S
H313 C321 0.950 . S
H314 C322 0.951 . S
H315 C323 0.951 . S
C316 C310 1.265 . S
C316 H311 0.950 . S
C316 C317 1.478 . S
C317 C304 1.394 . S
C317 C316 1.478 . S
C317 C318 1.397 . S
C318 C317 1.397 . S
C318 C319 1.438 . S
C318 C323 1.429 . S
C319 C302 1.394 . S
C319 C318 1.438 . S
C319 C320 1.428 . S
C320 H312 0.949 . S
C320 C319 1.428 . S
C320 C321 1.345 . S
C321 H313 0.950 . S
C321 C320 1.345 . S
C321 C322 1.424 . S
C322 H314 0.951 . S
C322 C321 1.424 . S
C322 C323 1.347 . S
C323 H315 0.951 . S
C323 C318 1.429 . S
C323 C322 1.347 . S
H324 C325 0.951 . S
C325 H324 0.951 . S
C325 C331 1.265 . S
H326 C331 0.950 . S
H327 C335 0.949 . S
H328 C336 0.950 . S
H329 C337 0.951 . S
H330 C338 0.951 . S
C331 C325 1.265 . S
C331 H326 0.950 . S
C331 C332 1.478 . S
C332 C331 1.478 . S
C332 C333 1.397 . S
C332 C349 1.394 . S
C333 C332 1.397 . S
C333 C334 1.438 . S
C333 C338 1.429 . S
C334 C333 1.438 . S
C334 C335 1.428 . S
C334 C347 1.394 . S
C335 H327 0.949 . S
C335 C334 1.428 . S
C335 C336 1.345 . S
C336 H328 0.950 . S
C336 C335 1.345 . S
C336 C337 1.424 . S
C337 H329 0.951 . S
C337 C336 1.424 . S
C337 C338 1.347 . S
C338 H330 0.951 . S
C338 C333 1.429 . S
C338 C337 1.347 . S
H339 C340 0.951 . S
C340 H339 0.951 . S
C340 C346 1.265 . S
H341 C346 0.950 . S
H342 C350 0.949 . S
H343 C351 0.950 1_655 S
H344 C352 0.951 1_655 S
H345 C353 0.951 . S
C346 C340 1.265 . S
C346 H341 0.950 . S
C346 C347 1.478 . S
C347 C334 1.394 . S
C347 C346 1.478 . S
C347 C348 1.397 . S
C348 C347 1.397 . S
C348 C349 1.438 . S
C348 C353 1.429 . S
C349 C332 1.394 . S
C349 C348 1.438 . S
C349 C350 1.428 . S
C350 H342 0.949 . S
C350 C349 1.428 . S
C350 C351 1.345 . S
C351 H343 0.950 1_455 S
C351 C350 1.345 . S
C351 C352 1.424 . S
C352 H344 0.951 1_455 S
C352 C351 1.424 . S
C352 C353 1.347 . S
C353 H345 0.951 . S
C353 C348 1.429 . S
C353 C352 1.347 . S
H354 C355 0.951 . S
C355 H354 0.951 . S
C355 C361 1.265 . S
H356 C361 0.950 . S
H357 C365 0.949 . S
H358 C366 0.950 . S
H359 C367 0.951 . S
H360 C368 0.951 . S
C361 C355 1.265 . S
C361 H356 0.950 . S
C361 C362 1.478 . S
C362 C361 1.478 . S
C362 C363 1.397 . S
C362 C379 1.394 . S
C363 C362 1.397 . S
C363 C364 1.438 . S
C363 C368 1.429 . S
C364 C363 1.438 . S
C364 C365 1.428 . S
C364 C377 1.394 . S
C365 H357 0.949 . S
C365 C364 1.428 . S
C365 C366 1.345 . S
C366 H358 0.950 . S
C366 C365 1.345 . S
C366 C367 1.424 . S
C367 H359 0.951 . S
C367 C366 1.424 . S
C367 C368 1.347 . S
C368 H360 0.951 . S
C368 C363 1.429 . S
C368 C367 1.347 . S
H369 C370 0.951 . S
C370 H369 0.951 . S
C370 C376 1.265 . S
H371 C376 0.950 . S
H372 C380 0.949 . S
H373 C381 0.950 . S
H374 C382 0.951 . S
H375 C383 0.951 . S
C376 C370 1.265 . S
C376 H371 0.950 . S
C376 C377 1.478 . S
C377 C364 1.394 . S
C377 C376 1.478 . S
C377 C378 1.397 . S
C378 C377 1.397 . S
C378 C379 1.438 . S
C378 C383 1.429 . S
C379 C362 1.394 . S
C379 C378 1.438 . S
C379 C380 1.428 . S
C380 H372 0.949 . S
C380 C379 1.428 . S
C380 C381 1.345 . S
C381 H373 0.950 . S
C381 C380 1.345 . S
C381 C382 1.424 . S
C382 H374 0.951 . S
C382 C381 1.424 . S
C382 C383 1.347 . S
C383 H375 0.951 . S
C383 C378 1.429 . S
C383 C382 1.347 . S
H384 C385 0.951 . S
C385 H384 0.951 . S
C385 C391 1.265 . S
H386 C391 0.950 . S
H387 C395 0.949 . S
H388 C396 0.950 . S
H389 C397 0.951 . S
H390 C398 0.951 . S
C391 C385 1.265 . S
C391 H386 0.950 . S
C391 C392 1.478 . S
C392 C391 1.478 . S
C392 C393 1.397 . S
C392 C409 1.394 . S
C393 C392 1.397 . S
C393 C394 1.438 . S
C393 C398 1.429 . S
C394 C393 1.438 . S
C394 C395 1.428 . S
C394 C407 1.394 . S
C395 H387 0.949 . S
C395 C394 1.428 . S
C395 C396 1.345 . S
C396 H388 0.950 . S
C396 C395 1.345 . S
C396 C397 1.424 1_565 S
C397 H389 0.951 . S
C397 C396 1.424 1_545 S
C397 C398 1.347 1_545 S
C398 H390 0.951 . S
C398 C393 1.429 . S
C398 C397 1.347 1_565 S
H399 C400 0.951 . S
C400 H399 0.951 . S
C400 C406 1.265 . S
H401 C406 0.950 . S
H402 C410 0.949 . S
H403 C411 0.950 . S
H404 C412 0.951 . S
H405 C413 0.951 . S
C406 C400 1.265 . S
C406 H401 0.950 . S
C406 C407 1.478 . S
C407 C394 1.394 . S
C407 C406 1.478 . S
C407 C408 1.397 . S
C408 C407 1.397 . S
C408 C409 1.438 . S
C408 C413 1.429 . S
C409 C392 1.394 . S
C409 C408 1.438 . S
C409 C410 1.428 . S
C410 H402 0.949 . S
C410 C409 1.428 . S
C410 C411 1.345 . S
C411 H403 0.950 . S
C411 C410 1.345 . S
C411 C412 1.424 . S
C412 H404 0.951 . S
C412 C411 1.424 . S
C412 C413 1.347 . S
C413 H405 0.951 . S
C413 C408 1.429 . S
C413 C412 1.347 . S
H414 C415 0.951 . S
C415 H414 0.951 . S
C415 C421 1.265 . S
H416 C421 0.950 1_455 S
H417 C425 0.949 . S
H418 C426 0.950 . S
H419 C427 0.951 . S
H420 C428 0.951 . S
C421 C415 1.265 . S
C421 H416 0.950 1_655 S
C421 C422 1.478 . S
C422 C421 1.478 . S
C422 C423 1.397 . S
C422 C439 1.394 . S
C423 C422 1.397 . S
C423 C424 1.438 . S
C423 C428 1.429 . S
C424 C423 1.438 . S
C424 C425 1.428 . S
C424 C437 1.394 . S
C425 H417 0.949 . S
C425 C424 1.428 . S
C425 C426 1.345 . S
C426 H418 0.950 . S
C426 C425 1.345 . S
C426 C427 1.424 . S
C427 H419 0.951 . S
C427 C426 1.424 . S
C427 C428 1.347 . S
C428 H420 0.951 . S
C428 C423 1.429 . S
C428 C427 1.347 . S
H429 C430 0.951 . S
C430 H429 0.951 . S
C430 C436 1.265 . S
H431 C436 0.950 . S
H432 C440 0.949 . S
H433 C441 0.950 . S
H434 C442 0.951 . S
H435 C443 0.951 . S
C436 C430 1.265 . S
C436 H431 0.950 . S
C436 C437 1.478 . S
C437 C424 1.394 . S
C437 C436 1.478 . S
C437 C438 1.397 . S
C438 C437 1.397 . S
C438 C439 1.438 . S
C438 C443 1.429 . S
C439 C422 1.394 . S
C439 C438 1.438 . S
C439 C440 1.428 . S
C440 H432 0.949 . S
C440 C439 1.428 . S
C440 C441 1.345 . S
C441 H433 0.950 . S
C441 C440 1.345 . S
C441 C442 1.424 . S
C442 H434 0.951 . S
C442 C441 1.424 . S
C442 C443 1.347 . S
C443 H435 0.951 . S
C443 C438 1.429 . S
C443 C442 1.347 . S
C85 C16 1.304 . S
C100 C61 1.224 . S
C115 C38 1.495 . S
C130 C67 1.346 . S
C145 C13 1.285 . S
C160 C58 1.324 . S
C175 C35 1.507 . S
C190 C83 1.460 . S
C205 C18 1.356 . S
C220 C49 1.318 . S
C250 C66 1.339 . S
C235 C36 1.185 . S
C265 C37 1.411 . S
C280 C62 1.319 . S
C310 C79 1.329 . S
C295 C15 1.293 . S
C340 C46 1.310 . S
C325 C39 1.434 . S
C370 C82 1.438 . S
C355 C14 1.566 . S
C400 C45 1.166 . S
C385 C34 1.353 . S
C430 C70 1.412 . S
C415 C17 1.457 . S
