# Generated by pormake.
# Topology gar, (4,6)-cn, num edge types: 1
# Building blocks:
#     Node 0, Type 0, BuildingBlock: KUFVIS_clean_sbu_0, # of connection points: 4
#     Node 1, Type 0, BuildingBlock: KUFVIS_clean_sbu_0, # of connection points: 4
#     Node 2, Type 0, BuildingBlock: KUFVIS_clean_sbu_0, # of connection points: 4
#     Node 3, Type 0, BuildingBlock: KUFVIS_clean_sbu_0, # of connection points: 4
#     Node 4, Type 0, BuildingBlock: KUFVIS_clean_sbu_0, # of connection points: 4
#     Node 5, Type 0, BuildingBlock: KUFVIS_clean_sbu_0, # of connection points: 4
#     Node 6, Type 0, BuildingBlock: KUFVIS_clean_sbu_0, # of connection points: 4
#     Node 7, Type 0, BuildingBlock: KUFVIS_clean_sbu_0, # of connection points: 4
#     Node 8, Type 0, BuildingBlock: KUFVIS_clean_sbu_0, # of connection points: 4
#     Node 9, Type 0, BuildingBlock: KUFVIS_clean_sbu_0, # of connection points: 4
#     Node 10, Type 0, BuildingBlock: KUFVIS_clean_sbu_0, # of connection points: 4
#     Node 11, Type 0, BuildingBlock: KUFVIS_clean_sbu_0, # of connection points: 4
#     Node 12, Type 0, BuildingBlock: KUFVIS_clean_sbu_0, # of connection points: 4
#     Node 13, Type 0, BuildingBlock: KUFVIS_clean_sbu_0, # of connection points: 4
#     Node 14, Type 0, BuildingBlock: KUFVIS_clean_sbu_0, # of connection points: 4
#     Node 15, Type 0, BuildingBlock: KUFVIS_clean_sbu_0, # of connection points: 4
#     Node 16, Type 0, BuildingBlock: KUFVIS_clean_sbu_0, # of connection points: 4
#     Node 17, Type 0, BuildingBlock: KUFVIS_clean_sbu_0, # of connection points: 4
#     Node 18, Type 0, BuildingBlock: KUFVIS_clean_sbu_0, # of connection points: 4
#     Node 19, Type 0, BuildingBlock: KUFVIS_clean_sbu_0, # of connection points: 4
#     Node 20, Type 0, BuildingBlock: KUFVIS_clean_sbu_0, # of connection points: 4
#     Node 21, Type 0, BuildingBlock: KUFVIS_clean_sbu_0, # of connection points: 4
#     Node 22, Type 0, BuildingBlock: KUFVIS_clean_sbu_0, # of connection points: 4
#     Node 23, Type 0, BuildingBlock: KUFVIS_clean_sbu_0, # of connection points: 4
#     Node 24, Type 1, BuildingBlock: BETDEL_clean_sbu_0, # of connection points: 6
#     Node 25, Type 1, BuildingBlock: BETDEL_clean_sbu_0, # of connection points: 6
#     Node 26, Type 1, BuildingBlock: BETDEL_clean_sbu_0, # of connection points: 6
#     Node 27, Type 1, BuildingBlock: BETDEL_clean_sbu_0, # of connection points: 6
#     Node 28, Type 1, BuildingBlock: BETDEL_clean_sbu_0, # of connection points: 6
#     Node 29, Type 1, BuildingBlock: BETDEL_clean_sbu_0, # of connection points: 6
#     Node 30, Type 1, BuildingBlock: BETDEL_clean_sbu_0, # of connection points: 6
#     Node 31, Type 1, BuildingBlock: BETDEL_clean_sbu_0, # of connection points: 6
#     Node 32, Type 1, BuildingBlock: BETDEL_clean_sbu_0, # of connection points: 6
#     Node 33, Type 1, BuildingBlock: BETDEL_clean_sbu_0, # of connection points: 6
#     Node 34, Type 1, BuildingBlock: BETDEL_clean_sbu_0, # of connection points: 6
#     Node 35, Type 1, BuildingBlock: BETDEL_clean_sbu_0, # of connection points: 6
#     Node 36, Type 1, BuildingBlock: BETDEL_clean_sbu_0, # of connection points: 6
#     Node 37, Type 1, BuildingBlock: BETDEL_clean_sbu_0, # of connection points: 6
#     Node 38, Type 1, BuildingBlock: BETDEL_clean_sbu_0, # of connection points: 6
#     Node 39, Type 1, BuildingBlock: BETDEL_clean_sbu_0, # of connection points: 6
#     Edge 40, Type (0, 1), BuildingBlock: KIFKEQ_clean_linker_1, # of connection points: 2
#     Edge 41, Type (0, 1), BuildingBlock: KIFKEQ_clean_linker_1, # of connection points: 2
#     Edge 42, Type (0, 1), BuildingBlock: KIFKEQ_clean_linker_1, # of connection points: 2
#     Edge 43, Type (0, 1), BuildingBlock: KIFKEQ_clean_linker_1, # of connection points: 2
#     Edge 44, Type (0, 1), BuildingBlock: KIFKEQ_clean_linker_1, # of connection points: 2
#     Edge 45, Type (0, 1), BuildingBlock: KIFKEQ_clean_linker_1, # of connection points: 2
#     Edge 46, Type (0, 1), BuildingBlock: KIFKEQ_clean_linker_1, # of connection points: 2
#     Edge 47, Type (0, 1), BuildingBlock: KIFKEQ_clean_linker_1, # of connection points: 2
#     Edge 48, Type (0, 1), BuildingBlock: KIFKEQ_clean_linker_1, # of connection points: 2
#     Edge 49, Type (0, 1), BuildingBlock: KIFKEQ_clean_linker_1, # of connection points: 2
#     Edge 50, Type (0, 1), BuildingBlock: KIFKEQ_clean_linker_1, # of connection points: 2
#     Edge 51, Type (0, 1), BuildingBlock: KIFKEQ_clean_linker_1, # of connection points: 2
#     Edge 52, Type (0, 1), BuildingBlock: KIFKEQ_clean_linker_1, # of connection points: 2
#     Edge 53, Type (0, 1), BuildingBlock: KIFKEQ_clean_linker_1, # of connection points: 2
#     Edge 54, Type (0, 1), BuildingBlock: KIFKEQ_clean_linker_1, # of connection points: 2
#     Edge 55, Type (0, 1), BuildingBlock: KIFKEQ_clean_linker_1, # of connection points: 2
#     Edge 56, Type (0, 1), BuildingBlock: KIFKEQ_clean_linker_1, # of connection points: 2
#     Edge 57, Type (0, 1), BuildingBlock: KIFKEQ_clean_linker_1, # of connection points: 2
#     Edge 58, Type (0, 1), BuildingBlock: KIFKEQ_clean_linker_1, # of connection points: 2
#     Edge 59, Type (0, 1), BuildingBlock: KIFKEQ_clean_linker_1, # of connection points: 2
#     Edge 60, Type (0, 1), BuildingBlock: KIFKEQ_clean_linker_1, # of connection points: 2
#     Edge 61, Type (0, 1), BuildingBlock: KIFKEQ_clean_linker_1, # of connection points: 2
#     Edge 62, Type (0, 1), BuildingBlock: KIFKEQ_clean_linker_1, # of connection points: 2
#     Edge 63, Type (0, 1), BuildingBlock: KIFKEQ_clean_linker_1, # of connection points: 2
#     Edge 64, Type (0, 1), BuildingBlock: KIFKEQ_clean_linker_1, # of connection points: 2
#     Edge 65, Type (0, 1), BuildingBlock: KIFKEQ_clean_linker_1, # of connection points: 2
#     Edge 66, Type (0, 1), BuildingBlock: KIFKEQ_clean_linker_1, # of connection points: 2
#     Edge 67, Type (0, 1), BuildingBlock: KIFKEQ_clean_linker_1, # of connection points: 2
#     Edge 68, Type (0, 1), BuildingBlock: KIFKEQ_clean_linker_1, # of connection points: 2
#     Edge 69, Type (0, 1), BuildingBlock: KIFKEQ_clean_linker_1, # of connection points: 2
#     Edge 70, Type (0, 1), BuildingBlock: KIFKEQ_clean_linker_1, # of connection points: 2
#     Edge 71, Type (0, 1), BuildingBlock: KIFKEQ_clean_linker_1, # of connection points: 2
#     Edge 72, Type (0, 1), BuildingBlock: KIFKEQ_clean_linker_1, # of connection points: 2
#     Edge 73, Type (0, 1), BuildingBlock: KIFKEQ_clean_linker_1, # of connection points: 2
#     Edge 74, Type (0, 1), BuildingBlock: KIFKEQ_clean_linker_1, # of connection points: 2
#     Edge 75, Type (0, 1), BuildingBlock: KIFKEQ_clean_linker_1, # of connection points: 2
#     Edge 76, Type (0, 1), BuildingBlock: KIFKEQ_clean_linker_1, # of connection points: 2
#     Edge 77, Type (0, 1), BuildingBlock: KIFKEQ_clean_linker_1, # of connection points: 2
#     Edge 78, Type (0, 1), BuildingBlock: KIFKEQ_clean_linker_1, # of connection points: 2
#     Edge 79, Type (0, 1), BuildingBlock: KIFKEQ_clean_linker_1, # of connection points: 2
#     Edge 80, Type (0, 1), BuildingBlock: KIFKEQ_clean_linker_1, # of connection points: 2
#     Edge 81, Type (0, 1), BuildingBlock: KIFKEQ_clean_linker_1, # of connection points: 2
#     Edge 82, Type (0, 1), BuildingBlock: KIFKEQ_clean_linker_1, # of connection points: 2
#     Edge 83, Type (0, 1), BuildingBlock: KIFKEQ_clean_linker_1, # of connection points: 2
#     Edge 84, Type (0, 1), BuildingBlock: KIFKEQ_clean_linker_1, # of connection points: 2
#     Edge 85, Type (0, 1), BuildingBlock: KIFKEQ_clean_linker_1, # of connection points: 2
#     Edge 86, Type (0, 1), BuildingBlock: KIFKEQ_clean_linker_1, # of connection points: 2
#     Edge 87, Type (0, 1), BuildingBlock: KIFKEQ_clean_linker_1, # of connection points: 2
#     Edge 88, Type (0, 1), BuildingBlock: KIFKEQ_clean_linker_1, # of connection points: 2
#     Edge 89, Type (0, 1), BuildingBlock: KIFKEQ_clean_linker_1, # of connection points: 2
#     Edge 90, Type (0, 1), BuildingBlock: KIFKEQ_clean_linker_1, # of connection points: 2
#     Edge 91, Type (0, 1), BuildingBlock: KIFKEQ_clean_linker_1, # of connection points: 2
#     Edge 92, Type (0, 1), BuildingBlock: KIFKEQ_clean_linker_1, # of connection points: 2
#     Edge 93, Type (0, 1), BuildingBlock: KIFKEQ_clean_linker_1, # of connection points: 2
#     Edge 94, Type (0, 1), BuildingBlock: KIFKEQ_clean_linker_1, # of connection points: 2
#     Edge 95, Type (0, 1), BuildingBlock: KIFKEQ_clean_linker_1, # of connection points: 2
#     Edge 96, Type (0, 1), BuildingBlock: KIFKEQ_clean_linker_1, # of connection points: 2
#     Edge 97, Type (0, 1), BuildingBlock: KIFKEQ_clean_linker_1, # of connection points: 2
#     Edge 98, Type (0, 1), BuildingBlock: KIFKEQ_clean_linker_1, # of connection points: 2
#     Edge 99, Type (0, 1), BuildingBlock: KIFKEQ_clean_linker_1, # of connection points: 2
#     Edge 100, Type (0, 1), BuildingBlock: KIFKEQ_clean_linker_1, # of connection points: 2
#     Edge 101, Type (0, 1), BuildingBlock: KIFKEQ_clean_linker_1, # of connection points: 2
#     Edge 102, Type (0, 1), BuildingBlock: KIFKEQ_clean_linker_1, # of connection points: 2
#     Edge 103, Type (0, 1), BuildingBlock: KIFKEQ_clean_linker_1, # of connection points: 2
#     Edge 104, Type (0, 1), BuildingBlock: KIFKEQ_clean_linker_1, # of connection points: 2
#     Edge 105, Type (0, 1), BuildingBlock: KIFKEQ_clean_linker_1, # of connection points: 2
#     Edge 106, Type (0, 1), BuildingBlock: KIFKEQ_clean_linker_1, # of connection points: 2
#     Edge 107, Type (0, 1), BuildingBlock: KIFKEQ_clean_linker_1, # of connection points: 2
#     Edge 108, Type (0, 1), BuildingBlock: KIFKEQ_clean_linker_1, # of connection points: 2
#     Edge 109, Type (0, 1), BuildingBlock: KIFKEQ_clean_linker_1, # of connection points: 2
#     Edge 110, Type (0, 1), BuildingBlock: KIFKEQ_clean_linker_1, # of connection points: 2
#     Edge 111, Type (0, 1), BuildingBlock: KIFKEQ_clean_linker_1, # of connection points: 2
#     Edge 112, Type (0, 1), BuildingBlock: KIFKEQ_clean_linker_1, # of connection points: 2
#     Edge 113, Type (0, 1), BuildingBlock: KIFKEQ_clean_linker_1, # of connection points: 2
#     Edge 114, Type (0, 1), BuildingBlock: KIFKEQ_clean_linker_1, # of connection points: 2
#     Edge 115, Type (0, 1), BuildingBlock: KIFKEQ_clean_linker_1, # of connection points: 2
#     Edge 116, Type (0, 1), BuildingBlock: KIFKEQ_clean_linker_1, # of connection points: 2
#     Edge 117, Type (0, 1), BuildingBlock: KIFKEQ_clean_linker_1, # of connection points: 2
#     Edge 118, Type (0, 1), BuildingBlock: KIFKEQ_clean_linker_1, # of connection points: 2
#     Edge 119, Type (0, 1), BuildingBlock: KIFKEQ_clean_linker_1, # of connection points: 2
#     Edge 120, Type (0, 1), BuildingBlock: KIFKEQ_clean_linker_1, # of connection points: 2
#     Edge 121, Type (0, 1), BuildingBlock: KIFKEQ_clean_linker_1, # of connection points: 2
#     Edge 122, Type (0, 1), BuildingBlock: KIFKEQ_clean_linker_1, # of connection points: 2
#     Edge 123, Type (0, 1), BuildingBlock: KIFKEQ_clean_linker_1, # of connection points: 2
#     Edge 124, Type (0, 1), BuildingBlock: KIFKEQ_clean_linker_1, # of connection points: 2
#     Edge 125, Type (0, 1), BuildingBlock: KIFKEQ_clean_linker_1, # of connection points: 2
#     Edge 126, Type (0, 1), BuildingBlock: KIFKEQ_clean_linker_1, # of connection points: 2
#     Edge 127, Type (0, 1), BuildingBlock: KIFKEQ_clean_linker_1, # of connection points: 2
#     Edge 128, Type (0, 1), BuildingBlock: KIFKEQ_clean_linker_1, # of connection points: 2
#     Edge 129, Type (0, 1), BuildingBlock: KIFKEQ_clean_linker_1, # of connection points: 2
#     Edge 130, Type (0, 1), BuildingBlock: KIFKEQ_clean_linker_1, # of connection points: 2
#     Edge 131, Type (0, 1), BuildingBlock: KIFKEQ_clean_linker_1, # of connection points: 2
#     Edge 132, Type (0, 1), BuildingBlock: KIFKEQ_clean_linker_1, # of connection points: 2
#     Edge 133, Type (0, 1), BuildingBlock: KIFKEQ_clean_linker_1, # of connection points: 2
#     Edge 134, Type (0, 1), BuildingBlock: KIFKEQ_clean_linker_1, # of connection points: 2
#     Edge 135, Type (0, 1), BuildingBlock: KIFKEQ_clean_linker_1, # of connection points: 2
# Relax obj value: 0.139
# Max RMSD: 0.266
# Mean RMSD: 0.139
data_MOF--net-gar--node1-KUFVIS_clean_sbu_0--node2-BETDEL_clean_sbu_0--edge1-KIFKEQ_clean_linker_1
_symmetry_space_group_name_H-M    P1
_symmetry_Int_Tables_number       1
_symmetry_cell_setting            triclinic
loop_
_symmetry_equiv_pos_as_xyz
'x, y, z'
_cell_length_a     55.799348
_cell_length_b     53.451607
_cell_length_c     56.084936
_cell_angle_alpha  95.056985
_cell_angle_beta   92.376595
_cell_angle_gamma 100.38398
loop_
_atom_site_label
_atom_site_type_symbol
_atom_site_fract_x
_atom_site_fract_y
_atom_site_fract_z
_atom_type_partial_charge
Mn0 Mn 0.03226 0.2773 0.40241 0.0
Mn1 Mn 0.03207 0.3135 0.35572 0.0
C2 C 0.99572 0.28644 0.38695 0.0
C3 C 0.03143 0.23879 0.41982 0.0
C4 C 0.04613 0.33613 0.40673 0.0
O5 O 0.06526 0.2752 0.38834 0.0
O6 O 0.06318 0.3008 0.35883 0.0
C7 C 0.03239 0.27222 0.31691 0.0
N8 N 0.02221 0.29172 0.32681 0.0
C9 C 0.99356 0.28786 0.29286 0.0
C10 C 1.0038 0.26782 0.28223 0.0
C11 C 0.0232 0.25985 0.29439 0.0
C12 C 1.00325 0.29921 0.31548 0.0
H13 H 0.04747 0.26621 0.32607 0.0
C14 C 0.0742 0.28643 0.37065 0.0
O15 O 0.04124 0.26069 0.43105 0.0
O16 O 0.02233 0.23908 0.39813 0.0
N17 N 1.00334 0.32732 0.34965 0.0
C18 C 0.99486 0.34622 0.36279 0.0
C19 C 0.97503 0.3559 0.35344 0.0
C20 C 0.96457 0.34656 0.33043 0.0
C21 C 0.97392 0.32747 0.31705 0.0
C22 C 0.99347 0.31831 0.32743 0.0
H23 H 1.00314 0.35381 0.38029 0.0
O24 O 0.99777 0.28034 0.40876 0.0
O25 O 0.01501 0.28686 0.37457 0.0
O26 O 0.04405 0.31479 0.41569 0.0
O27 O 0.04196 0.33787 0.38446 0.0
C28 C 0.96455 0.31706 0.29385 0.0
C29 C 0.97414 0.29705 0.2819 0.0
H30 H 0.99689 0.25837 0.26477 0.0
H31 H 0.03117 0.24436 0.28634 0.0
H32 H 0.96797 0.37068 0.36385 0.0
H33 H 0.94933 0.35413 0.32325 0.0
H34 H 0.94975 0.3241 0.28513 0.0
H35 H 0.96645 0.28888 0.26427 0.0
Mn36 Mn 1.00411 0.76873 0.63078 0.0
Mn37 Mn 0.03088 0.81346 0.67457 0.0
C38 C 0.04578 0.77435 0.64 0.0
C39 C 0.98595 0.7271 0.6163 0.0
C40 C 0.01561 0.8262 0.62512 0.0
O41 O 0.97512 0.77537 0.64995 0.0
O42 O 0.99488 0.80529 0.67843 0.0
C43 C 0.02192 0.78332 0.71622 0.0
N44 N 0.03779 0.79735 0.70253 0.0
C45 C 0.07219 0.79213 0.72772 0.0
C46 C 0.05618 0.77778 0.74217 0.0
C47 C 0.03095 0.77333 0.73637 0.0
C48 C 0.06212 0.80182 0.708 0.0
H49 H 1.00251 0.77972 0.71179 0.0
C50 C 0.97535 0.79079 0.66881 0.0
O51 O 0.98275 0.74654 0.60502 0.0
O52 O 0.99823 0.73203 0.63686 0.0
N53 N 0.06558 0.82258 0.67319 0.0
C54 C 0.07866 0.83514 0.65645 0.0
C55 C 0.10426 0.84028 0.65912 0.0
C56 C 0.11615 0.83248 0.67896 0.0
C57 C 0.10231 0.81964 0.69599 0.0
C58 C 0.07683 0.81525 0.6925 0.0
H59 H 0.06966 0.8409 0.641 0.0
O60 O 0.03666 0.76466 0.61884 0.0
O61 O 0.03031 0.78111 0.65491 0.0
O62 O 0.00652 0.80332 0.6169 0.0
O63 O 0.02524 0.83208 0.64642 0.0
C64 C 0.11282 0.81046 0.71596 0.0
C65 C 0.09777 0.79673 0.73182 0.0
H66 H 0.06308 0.76986 0.75761 0.0
H67 H 0.01849 0.76215 0.74736 0.0
H68 H 0.11482 0.85006 0.64582 0.0
H69 H 0.13591 0.8362 0.6808 0.0
H70 H 0.13246 0.81349 0.71907 0.0
H71 H 0.10607 0.78944 0.74691 0.0
Mn72 Mn 0.52912 0.7742 0.90153 0.0
Mn73 Mn 0.52753 0.80964 0.85438 0.0
C74 C 0.49209 0.78333 0.8871 0.0
C75 C 0.52906 0.7363 0.91983 0.0
C76 C 0.5429 0.83297 0.90489 0.0
O77 O 0.56178 0.77195 0.88671 0.0
O78 O 0.55873 0.79696 0.8569 0.0
C79 C 0.52661 0.76761 0.81602 0.0
N80 N 0.51686 0.78743 0.8259 0.0
C81 C 0.48739 0.78322 0.79259 0.0
C82 C 0.49717 0.76283 0.78198 0.0
C83 C 0.51677 0.75489 0.79383 0.0
C84 C 0.49774 0.79492 0.81488 0.0
H85 H 0.54183 0.76162 0.82496 0.0
C86 C 0.57019 0.78295 0.8687 0.0
O87 O 0.53899 0.7585 0.93031 0.0
O88 O 0.51938 0.73585 0.89824 0.0
N89 N 0.49883 0.82362 0.84879 0.0
C90 C 0.491 0.84302 0.86184 0.0
C91 C 0.47141 0.85312 0.8526 0.0
C92 C 0.46045 0.84361 0.82983 0.0
C93 C 0.46896 0.82379 0.81662 0.0
C94 C 0.48847 0.81441 0.8268 0.0
H95 H 0.49969 0.85077 0.87914 0.0
O96 O 0.49492 0.77741 0.90886 0.0
O97 O 0.51087 0.78338 0.87399 0.0
O98 O 0.54112 0.81179 0.91407 0.0
O99 O 0.53816 0.83441 0.88267 0.0
C100 C 0.45878 0.81288 0.79381 0.0
C101 C 0.4678 0.79242 0.78193 0.0
H102 H 0.48974 0.7531 0.76478 0.0
H103 H 0.52438 0.73913 0.78579 0.0
H104 H 0.46493 0.8684 0.86289 0.0
H105 H 0.44548 0.85162 0.8227 0.0
H106 H 0.44384 0.81989 0.78533 0.0
H107 H 0.45957 0.78393 0.76459 0.0
Mn108 Mn 0.50284 0.26885 0.12856 0.0
Mn109 Mn 0.45482 0.25883 0.08793 0.0
C110 C 0.48463 0.22775 0.11348 0.0
C111 C 0.54427 0.27363 0.1404 0.0
C112 C 0.45066 0.27411 0.14068 0.0
O113 O 0.50586 0.30353 0.11469 0.0
O114 O 0.47323 0.29429 0.08799 0.0
C115 C 0.48123 0.2627 0.04329 0.0
N116 N 0.46493 0.24906 0.05686 0.0
C117 C 0.45676 0.21356 0.02631 0.0
C118 C 0.47338 0.22729 0.01196 0.0
C119 C 0.48568 0.25196 0.02051 0.0
C120 C 0.45289 0.22536 0.04876 0.0
H121 H 0.49081 0.28162 0.0498 0.0
C122 C 0.49199 0.30955 0.09814 0.0
O123 O 0.52875 0.28167 0.15439 0.0
O124 O 0.53611 0.26461 0.11873 0.0
N125 N 0.43608 0.22492 0.08604 0.0
C126 C 0.42223 0.21345 0.10288 0.0
C127 C 0.40956 0.18825 0.09759 0.0
C128 C 0.41121 0.17514 0.07506 0.0
C129 C 0.42555 0.18736 0.05801 0.0
C130 C 0.43764 0.21256 0.06424 0.0
H131 H 0.42102 0.22339 0.12028 0.0
O132 O 0.49617 0.23186 0.13443 0.0
O133 O 0.48332 0.24788 0.10248 0.0
O134 O 0.47306 0.27511 0.1468 0.0
O135 O 0.44191 0.26831 0.11912 0.0
C136 C 0.42874 0.17534 0.03529 0.0
C137 C 0.44435 0.18841 0.01946 0.0
H138 H 0.47702 0.21899 0.99447 0.0
H139 H 0.49861 0.26262 0.00958 0.0
H140 H 0.39863 0.1789 0.11089 0.0
H141 H 0.40159 0.15562 0.07113 0.0
H142 H 0.41956 0.15589 0.02995 0.0
H143 H 0.44698 0.1788 1.00221 0.0
Mn144 Mn 0.03893 0.78594 0.14438 0.0
Mn145 Mn 0.99648 0.7647 0.09882 0.0
C146 C 0.03329 0.74396 0.12747 0.0
C147 C 0.07788 0.80422 0.16109 0.0
C148 C 0.98376 0.77368 0.15037 0.0
O149 O 0.03311 0.81908 0.1314 0.0
O150 O 0.00524 0.80254 0.10105 0.0
C151 C 0.02612 0.77922 0.05791 0.0
N152 N 0.01184 0.76104 0.06923 0.0
C153 C 0.0131 0.72895 0.03664 0.0
C154 C 0.02775 0.74734 0.02458 0.0
C155 C 0.03439 0.77256 0.03532 0.0
C156 C 0.00556 0.73667 0.05917 0.0
H157 H 0.0311 0.79866 0.06603 0.0
C158 C 0.01885 0.82139 0.11358 0.0
O159 O 0.05848 0.80456 0.1729 0.0
O160 O 0.07466 0.79424 0.13892 0.0
N161 N 0.98648 0.72836 0.09448 0.0
C162 C 0.9737 0.71259 0.10921 0.0
C163 C 0.96648 0.68647 0.10157 0.0
C164 C 0.97211 0.67694 0.07874 0.0
C165 C 0.9851 0.6936 0.06384 0.0
C166 C 0.99202 0.71938 0.07251 0.0
H167 H 0.96912 0.71989 0.12668 0.0
O168 O 0.04245 0.75008 0.14932 0.0
O169 O 0.02726 0.76242 0.11632 0.0
O170 O 0.00563 0.78073 0.1589 0.0
O171 O 0.97823 0.76733 0.12811 0.0
C172 C 0.99164 0.68561 0.0408 0.0
C173 C 0.00582 0.70321 0.02729 0.0
H174 H 0.03411 0.7423 0.00713 0.0
H175 H 0.04575 0.78685 0.02615 0.0
H176 H 0.95648 0.67374 0.11319 0.0
H177 H 0.96649 0.65679 0.07289 0.0
H178 H 0.98624 0.66585 0.03348 0.0
H179 H 0.01119 0.6967 0.00982 0.0
Mn180 Mn 0.48994 0.76276 0.37795 0.0
Mn181 Mn 0.48207 0.79587 0.33024 0.0
C182 C 0.45131 0.75955 0.35919 0.0
C183 C 0.49896 0.72834 0.39757 0.0
C184 C 0.48965 0.82039 0.3814 0.0
O185 O 0.52465 0.77152 0.36642 0.0
O186 O 0.51645 0.7913 0.334 0.0
C187 C 0.49105 0.75759 0.29176 0.0
N188 N 0.47639 0.77308 0.30152 0.0
C189 C 0.44677 0.76109 0.26818 0.0
C190 C 0.46159 0.74508 0.25773 0.0
C191 C 0.48376 0.74322 0.26964 0.0
C192 C 0.45483 0.77466 0.29042 0.0
H193 H 0.50819 0.75626 0.30077 0.0
C194 C 0.53115 0.78231 0.34761 0.0
O195 O 0.50189 0.7513 0.40803 0.0
O196 O 0.49131 0.72513 0.37505 0.0
N197 N 0.4496 0.8016 0.32395 0.0
C198 C 0.43731 0.81775 0.33653 0.0
C199 C 0.41474 0.82173 0.32708 0.0
C200 C 0.40526 0.80948 0.3046 0.0
C201 C 0.41846 0.79336 0.29177 0.0
C202 C 0.4408 0.79005 0.30214 0.0
H203 H 0.44464 0.82753 0.35366 0.0
O204 O 0.45371 0.75441 0.38127 0.0
O205 O 0.47143 0.7664 0.34869 0.0
O206 O 0.4907 0.79973 0.39062 0.0
O207 O 0.48712 0.82146 0.35882 0.0
C208 C 0.41033 0.78048 0.26909 0.0
C209 C 0.42435 0.76414 0.25741 0.0
H210 H 0.45611 0.7341 0.24059 0.0
H211 H 0.49527 0.73087 0.26172 0.0
H212 H 0.40473 0.83431 0.33704 0.0
H213 H 0.38783 0.81257 0.29737 0.0
H214 H 0.39319 0.78279 0.26057 0.0
H215 H 0.4177 0.75403 0.24014 0.0
Mn216 Mn 0.5408 0.2946 0.64518 0.0
Mn217 Mn 0.49831 0.26824 0.60103 0.0
C218 C 0.53418 0.25103 0.63386 0.0
C219 C 0.58018 0.31323 0.66037 0.0
C220 C 0.48552 0.28447 0.65127 0.0
O221 O 0.53575 0.3255 0.62774 0.0
O222 O 0.50743 0.3057 0.59894 0.0
C223 C 0.52909 0.27657 0.55966 0.0
N224 N 0.5143 0.26041 0.57258 0.0
C225 C 0.51786 0.22412 0.54524 0.0
C226 C 0.53301 0.24039 0.53156 0.0
C227 C 0.5387 0.26672 0.53885 0.0
C228 C 0.50883 0.23503 0.5658 0.0
H229 H 0.53355 0.2968 0.56523 0.0
C230 C 0.52135 0.32569 0.60941 0.0
O231 O 0.56106 0.31636 0.6718 0.0
O232 O 0.57638 0.30052 0.63928 0.0
N233 N 0.48782 0.23209 0.60072 0.0
C234 C 0.47366 0.2189 0.61637 0.0
C235 C 0.46644 0.19229 0.61177 0.0
C236 C 0.47368 0.17956 0.59107 0.0
C237 C 0.48817 0.19355 0.57519 0.0
C238 C 0.49459 0.22006 0.58058 0.0
H239 H 0.46792 0.2286 0.63224 0.0
O240 O 0.54346 0.26009 0.65514 0.0
O241 O 0.52868 0.26765 0.61997 0.0
O242 O 0.50744 0.29252 0.65943 0.0
O243 O 0.47994 0.27503 0.62962 0.0
C244 C 0.49671 0.18219 0.55436 0.0
C245 C 0.51163 0.19746 0.53945 0.0
H246 H 0.54051 0.23287 0.51553 0.0
H247 H 0.55048 0.27938 0.52845 0.0
H248 H 0.45528 0.18161 0.62413 0.0
H249 H 0.46805 0.15904 0.58758 0.0
H250 H 0.49218 0.16171 0.54982 0.0
H251 H 0.51835 0.18847 0.52366 0.0
Mn252 Mn 0.98836 0.25565 0.87845 0.0
Mn253 Mn 0.97827 0.29013 0.83227 0.0
C254 C 0.94907 0.25194 0.86114 0.0
C255 C 0.99964 0.22113 0.89619 0.0
C256 C 0.98685 0.31293 0.88394 0.0
O257 O 0.02242 0.26566 0.86599 0.0
O258 O 0.01294 0.28607 0.83443 0.0
C259 C 0.98654 0.2538 0.79177 0.0
N260 N 0.97209 0.26878 0.8027 0.0
C261 C 0.94217 0.25911 0.76945 0.0
C262 C 0.95677 0.24365 0.75779 0.0
C263 C 0.97899 0.24088 0.76905 0.0
C264 C 0.95057 0.27136 0.79213 0.0
H265 H 1.00371 0.25178 0.8003 0.0
C266 C 0.0282 0.277 0.84732 0.0
O267 O 1.0023 0.24372 0.90741 0.0
O268 O 0.99047 0.21829 0.87416 0.0
N269 N 0.94552 0.29558 0.82749 0.0
C270 C 0.93291 0.30993 0.84178 0.0
C271 C 0.91016 0.31435 0.83329 0.0
C272 C 0.90076 0.30428 0.81012 0.0
C273 C 0.91402 0.28954 0.79576 0.0
C274 C 0.93665 0.28588 0.80514 0.0
H275 H 0.9402 0.31806 0.85947 0.0
O276 O 0.95247 0.24623 0.88292 0.0
O277 O 0.96865 0.25971 0.85004 0.0
O278 O 0.98862 0.29209 0.89247 0.0
O279 O 0.98379 0.31462 0.86153 0.0
C280 C 0.90548 0.27793 0.7727 0.0
C281 C 0.91948 0.2626 0.75961 0.0
H282 H 0.95103 0.23369 0.74025 0.0
H283 H 0.99032 0.22892 0.76019 0.0
H284 H 0.89997 0.32565 0.84452 0.0
H285 H 0.88325 0.30783 0.8036 0.0
H286 H 0.88796 0.28027 0.76505 0.0
H287 H 0.91252 0.25341 0.74208 0.0
Mn288 Mn 0.41799 0.03529 0.29038 0.0
Mn289 Mn 0.37307 0.01914 0.32768 0.0
C290 C 0.40704 0.99354 0.29983 0.0
C291 C 0.43204 0.04015 0.25235 0.0
C292 C 0.42334 0.04872 0.34453 0.0
O293 O 0.39925 0.06482 0.28968 0.0
O294 O 0.36895 0.05056 0.31337 0.0
C295 C 0.33093 0.00677 0.29208 0.0
N296 N 0.34493 0.99961 0.3098 0.0
C297 C 0.31929 0.95806 0.30784 0.0
C298 C 0.30455 0.96501 0.28963 0.0
C299 C 0.31045 0.98945 0.28166 0.0
C300 C 0.33953 0.97608 0.31747 0.0
H301 H 0.33536 0.02554 0.28592 0.0
C302 C 0.3793 0.06663 0.29964 0.0
O303 O 0.44427 0.05231 0.27137 0.0
O304 O 0.41103 0.02612 0.25535 0.0
N305 N 0.37502 0.98841 0.34218 0.0
C306 C 0.39191 0.98417 0.35886 0.0
C307 C 0.38904 0.96037 0.36825 0.0
C308 C 0.36874 0.94129 0.36057 0.0
C309 C 0.35154 0.94615 0.34346 0.0
C310 C 0.35539 0.9702 0.33471 0.0
H311 H 0.40746 0.99883 0.36494 0.0
O312 O 0.42867 1.00145 0.29263 0.0
O313 O 0.39318 0.01045 0.30181 0.0
O314 O 0.43241 0.04829 0.3241 0.0
O315 O 0.40129 0.03874 0.34784 0.0
C316 C 0.33087 0.92799 0.33456 0.0
C317 C 0.31488 0.93385 0.31661 0.0
H318 H 0.28875 0.9517 0.28153 0.0
H319 H 0.29921 0.99493 0.26755 0.0
H320 H 0.40241 0.95676 0.38143 0.0
H321 H 0.36662 0.92294 0.3678 0.0
H322 H 0.32724 0.90934 0.3412 0.0
H323 H 0.29932 0.91953 0.30958 0.0
Mn324 Mn 0.26138 0.16333 0.50661 0.0
Mn325 Mn 0.24733 0.11387 0.46353 0.0
C326 C 0.2208 0.14451 0.49629 0.0
C327 C 0.26875 0.17944 0.54729 0.0
C328 C 0.2648 0.1689 0.45249 0.0
O329 O 0.29369 0.14962 0.50463 0.0
O330 O 0.28098 0.11557 0.47739 0.0
C331 C 0.24752 0.07069 0.49317 0.0
N332 N 0.2356 0.0829 0.47744 0.0
C333 C 0.19948 0.05038 0.4762 0.0
C334 C 0.21142 0.03739 0.49226 0.0
C335 C 0.23553 0.04762 0.50082 0.0
C336 C 0.2124 0.07323 0.46911 0.0
H337 H 0.26601 0.07851 0.49987 0.0
C338 C 0.29716 0.12921 0.4924 0.0
O339 O 0.27567 0.19342 0.53014 0.0
O340 O 0.25896 0.1558 0.54088 0.0
N341 N 0.21491 0.11001 0.4493 0.0
C342 C 0.20544 0.12574 0.43517 0.0
C343 C 0.18118 0.11871 0.4258 0.0
C344 C 0.16696 0.09556 0.43095 0.0
C345 C 0.17713 0.07963 0.44545 0.0
C346 C 0.20145 0.08756 0.45417 0.0
H347 H 0.21626 0.14357 0.43116 0.0
O348 O 0.22626 0.16787 0.50606 0.0
O349 O 0.23919 0.13333 0.49222 0.0
O350 O 0.2663 0.17904 0.47418 0.0
O351 O 0.2586 0.1448 0.447 0.0
C352 C 0.16393 0.05644 0.45197 0.0
C353 C 0.17509 0.04185 0.46736 0.0
H354 H 0.20218 0.01967 0.49833 0.0
H355 H 0.24482 0.03777 0.51332 0.0
H356 H 0.17344 0.13114 0.41468 0.0
H357 H 0.14819 0.09031 0.42386 0.0
H358 H 0.14508 0.04986 0.44555 0.0
H359 H 0.16463 0.02427 0.47256 0.0
Mn360 Mn 0.14484 0.0195 0.78578 0.0
Mn361 Mn 0.18911 0.03158 0.83033 0.0
C362 C 0.16351 0.06125 0.79857 0.0
C363 C 0.13097 0.01405 0.74514 0.0
C364 C 0.13536 0.0163 0.83939 0.0
O365 O 0.15674 0.98517 0.78547 0.0
O366 O 0.18565 0.99551 0.81597 0.0
C367 C 0.23207 0.02671 0.80216 0.0
N368 N 0.22034 0.04091 0.8175 0.0
C369 C 0.2538 0.0766 0.81976 0.0
C370 C 0.26628 0.06229 0.80409 0.0
C371 C 0.25535 0.03725 0.79525 0.0
C372 C 0.23078 0.06496 0.82629 0.0
H373 H 0.22373 0.0075 0.79519 0.0
C374 C 0.17374 0.97972 0.79913 0.0
O375 O 0.11693 0.00604 0.76185 0.0
O376 O 0.1536 0.0233 0.75179 0.0
N377 N 0.19446 0.06601 0.84499 0.0
C378 C 0.17913 0.07801 0.85818 0.0
C379 C 0.1868 0.10364 0.86735 0.0
C380 C 0.21013 0.11666 0.86289 0.0
C381 C 0.22559 0.10392 0.84928 0.0
C382 C 0.21703 0.0783 0.84076 0.0
H383 H 0.16108 0.06818 0.86147 0.0
O384 O 0.14145 0.05635 0.78889 0.0
O385 O 0.17346 0.04146 0.80155 0.0
O386 O 0.12762 0.01367 0.81739 0.0
O387 O 0.15796 0.02286 0.84596 0.0
C388 C 0.24889 0.11585 0.84331 0.0
C389 C 0.26301 0.10218 0.82859 0.0
H390 H 0.28412 0.07045 0.7985 0.0
H391 H 0.26481 0.02614 0.78305 0.0
H392 H 0.1747 0.11339 0.87772 0.0
H393 H 0.21587 0.13652 0.86978 0.0
H394 H 0.25597 0.13565 0.8496 0.0
H395 H 0.28074 0.11169 0.82381 0.0
Mn396 Mn 0.25435 0.89356 0.99762 0.0
Mn397 Mn 0.27551 0.94086 0.96358 0.0
C398 C 0.29555 0.90466 0.99228 0.0
C399 C 0.24471 0.87866 0.03435 0.0
C400 C 0.25096 0.88775 0.9428 0.0
O401 O 0.22595 0.9129 0.99599 0.0
O402 O 0.24294 0.94447 0.97441 0.0
C403 C 0.28123 0.98437 1.00122 0.0
N404 N 0.29106 0.9703 0.98408 0.0
C405 C 0.33033 0.99787 0.99122 0.0
C406 C 0.3206 0.01271 0.00887 0.0
C407 C 0.29597 0.00587 0.01395 0.0
C408 C 0.31483 0.97651 0.9793 0.0
H409 H 0.2623 0.97924 1.00516 0.0
C410 C 0.22558 0.93368 0.98636 0.0
O411 O 0.23551 0.86575 0.01434 0.0
O412 O 0.25812 0.90094 0.03298 0.0
N413 N 0.3073 0.93994 0.95231 0.0
C414 C 0.31396 0.92348 0.93493 0.0
C415 C 0.33806 0.92764 0.92777 0.0
C416 C 0.35499 0.94882 0.9383 0.0
C417 C 0.34763 0.9657 0.95589 0.0
C418 C 0.32336 0.9606 0.96228 0.0
H419 H 0.30099 0.90731 0.92658 0.0
O420 O 0.28664 0.88213 0.9983 0.0
O421 O 0.28012 0.9197 0.98941 0.0
O422 O 0.24726 0.87855 0.96281 0.0
O423 O 0.26059 0.91103 0.94101 0.0
C424 C 0.36345 0.98733 0.96737 0.0
C425 C 0.35481 0.00337 0.98506 0.0
H426 H 0.33188 0.02936 0.01867 0.0
H427 H 0.28834 0.01718 0.0276 0.0
H428 H 0.34358 0.91456 0.91413 0.0
H429 H 0.37358 0.95191 0.9328 0.0
H430 H 0.38235 0.99169 0.96289 0.0
H431 H 0.36721 0.01982 0.99392 0.0
Mn432 Mn 0.27746 0.38865 0.03774 0.0
Mn433 Mn 0.29244 0.4413 0.00788 0.0
C434 C 0.31844 0.40727 0.03466 0.0
C435 C 0.2672 0.36878 0.07307 0.0
C436 C 0.27573 0.38778 0.98282 0.0
O437 O 0.24501 0.40241 0.03522 0.0
O438 O 0.25913 0.43904 0.01913 0.0
C439 C 0.2937 0.48077 0.04867 0.0
N440 N 0.30471 0.4706 0.0299 0.0
C441 C 0.34017 0.50397 0.03686 0.0
C442 C 0.32906 0.51502 0.05605 0.0
C443 C 0.30579 0.50327 0.06207 0.0
C444 C 0.32729 0.48147 0.02426 0.0
H445 H 0.27588 0.4717 0.05342 0.0
C446 C 0.24226 0.42409 0.0284 0.0
O447 O 0.26152 0.35697 0.05184 0.0
O448 O 0.27802 0.39251 0.07385 0.0
N449 N 0.32442 0.44638 0.99591 0.0
C450 C 0.33297 0.43278 0.97747 0.0
C451 C 0.35608 0.44186 0.96929 0.0
C452 C 0.37004 0.46495 0.97992 0.0
C453 C 0.36085 0.47867 0.9988 0.0
C454 C 0.3376 0.46882 0.00603 0.0
H455 H 0.32219 0.41523 0.96892 0.0
O456 O 0.31255 0.38376 0.0396 0.0
O457 O 0.30041 0.41924 0.03208 0.0
O458 O 0.27436 0.37598 1.00171 0.0
O459 O 0.28076 0.41212 0.98338 0.0
C460 C 0.37392 0.50166 0.01082 0.0
C461 C 0.36366 0.5142 0.02996 0.0
H462 H 0.33833 0.53237 0.06643 0.0
H463 H 0.29719 0.51154 0.077 0.0
H464 H 0.36305 0.43116 0.9547 0.0
H465 H 0.38778 0.47196 0.97344 0.0
H466 H 0.39201 0.50965 0.00572 0.0
H467 H 0.37405 0.53162 0.03933 0.0
Mn468 Mn 0.77444 0.16555 0.02666 0.0
Mn469 Mn 0.75307 0.11516 0.98595 0.0
C470 C 0.73309 0.15116 0.0195 0.0
C471 C 0.78616 0.184 0.06523 0.0
C472 C 0.77308 0.16805 0.9725 0.0
O473 O 0.80396 0.14815 0.0231 0.0
O474 O 0.78741 0.11496 0.99605 0.0
C475 C 0.75393 0.07367 0.01749 0.0
N476 N 0.74137 0.08585 1.00229 0.0
C477 C 0.70424 0.05578 0.00555 0.0
C478 C 0.71681 0.04284 0.02115 0.0
C479 C 0.74175 0.05188 0.0272 0.0
C480 C 0.71733 0.07742 0.99649 0.0
H481 H 0.7731 0.08055 0.0222 0.0
C482 C 0.8051 0.12771 0.00984 0.0
O483 O 0.79353 0.19563 0.04678 0.0
O484 O 0.77369 0.16091 0.06126 0.0
N485 N 0.71977 0.11294 0.97491 0.0
C486 C 0.71009 0.12822 0.96043 0.0
C487 C 0.68525 0.12197 0.95288 0.0
C488 C 0.67068 0.10002 0.96014 0.0
C489 C 0.68104 0.08456 0.97502 0.0
C490 C 0.70594 0.09165 0.98182 0.0
H491 H 0.72125 0.14502 0.95465 0.0
O492 O 0.74124 0.17464 0.0281 0.0
O493 O 0.74932 0.13714 0.01487 0.0
O494 O 0.77808 0.17859 0.99377 0.0
O495 O 0.76404 0.1444 0.96744 0.0
C496 C 0.66761 0.06254 0.98351 0.0
C497 C 0.67916 0.04824 0.99889 0.0
H498 H 0.70747 0.02605 0.0287 0.0
H499 H 0.75155 0.04206 0.0393 0.0
H500 H 0.67737 0.13401 0.94144 0.0
H501 H 0.65154 0.09525 0.95423 0.0
H502 H 0.64831 0.05659 0.97857 0.0
H503 H 0.66856 0.03157 0.00559 0.0
Mn504 Mn 0.12421 0.51545 0.24002 0.0
Mn505 Mn 0.17189 0.54954 0.27493 0.0
C506 C 0.13433 0.55924 0.23915 0.0
C507 C 0.10717 0.4917 0.20477 0.0
C508 C 0.12319 0.52783 0.29371 0.0
O509 O 0.14342 0.48824 0.24943 0.0
O510 O 0.17628 0.51393 0.26875 0.0
C511 C 0.21136 0.54804 0.24144 0.0
N512 N 0.19849 0.56168 0.25609 0.0
C513 C 0.22491 0.6012 0.25017 0.0
C514 C 0.23849 0.58759 0.23502 0.0
C515 C 0.23158 0.56091 0.23053 0.0
C516 C 0.20472 0.58737 0.26021 0.0
H517 H 0.20625 0.5275 0.23821 0.0
C518 C 0.16469 0.49197 0.26006 0.0
O519 O 0.0967 0.48946 0.22487 0.0
O520 O 0.12832 0.50675 0.20538 0.0
N521 N 0.17016 0.58475 0.28236 0.0
C522 C 0.15456 0.59507 0.29664 0.0
C523 C 0.15893 0.62156 0.30302 0.0
C524 C 0.17948 0.63708 0.29497 0.0
C525 C 0.19517 0.62606 0.28014 0.0
C526 C 0.18988 0.59956 0.27439 0.0
H527 H 0.13909 0.58314 0.30339 0.0
O528 O 0.11252 0.54727 0.23205 0.0
O529 O 0.14946 0.54533 0.24638 0.0
O530 O 0.11221 0.51943 0.27354 0.0
O531 O 0.14566 0.53835 0.29636 0.0
C532 C 0.21591 0.64029 0.2709 0.0
C533 C 0.23057 0.62792 0.25567 0.0
H534 H 0.2542 0.59743 0.22672 0.0
H535 H 0.24195 0.55029 0.21884 0.0
H536 H 0.1467 0.62995 0.31441 0.0
H537 H 0.18302 0.65744 0.30029 0.0
H538 H 0.2206 0.6608 0.27518 0.0
H539 H 0.24619 0.63913 0.24831 0.0
Mn540 Mn 0.7725 0.89313 0.53503 0.0
Mn541 Mn 0.78546 0.9449 0.50349 0.0
C542 C 0.81272 0.91415 0.53298 0.0
C543 C 0.76273 0.87361 0.57062 0.0
C544 C 0.7741 0.89053 0.47973 0.0
O545 O 0.73924 0.90449 0.53166 0.0
O546 O 0.75054 0.93846 0.51078 0.0
C547 C 0.77775 0.98417 0.54162 0.0
N548 N 0.79224 0.97531 0.52513 0.0
C549 C 0.82375 0.01247 0.53444 0.0
C550 C 0.80911 0.02206 0.55142 0.0
C551 C 0.78606 0.0078 0.55508 0.0
C552 C 0.81454 0.98876 0.52162 0.0
H553 H 0.76 0.97329 0.54444 0.0
C554 C 0.73457 0.92359 0.52122 0.0
O555 O 0.75798 0.86118 0.54953 0.0
O556 O 0.77235 0.89767 0.57106 0.0
N557 N 0.81856 0.95404 0.495 0.0
C558 C 0.83085 0.94161 0.47868 0.0
C559 C 0.8543 0.95322 0.47305 0.0
C560 C 0.86476 0.97759 0.48404 0.0
C561 C 0.85171 0.99011 0.50062 0.0
C562 C 0.82833 0.97767 0.50538 0.0
H563 H 0.82287 0.92294 0.47008 0.0
O564 O 0.80798 0.89054 0.53785 0.0
O565 O 0.79392 0.92488 0.52942 0.0
O566 O 0.77034 0.87955 0.49898 0.0
O567 O 0.77952 0.91476 0.47963 0.0
C568 C 0.86115 0.01423 0.51295 0.0
C569 C 0.84723 0.02534 0.52993 0.0
H570 H 0.81545 0.04028 0.56184 0.0
H571 H 0.77469 0.01503 0.56822 0.0
H572 H 0.86428 0.94341 0.46028 0.0
H573 H 0.8829 0.98643 0.47974 0.0
H574 H 0.87925 0.02421 0.50978 0.0
H575 H 0.85483 0.04372 0.53955 0.0
Mn576 Mn 0.88906 0.02879 0.23537 0.0
Mn577 Mn 0.83723 0.0081 0.26325 0.0
C578 C 0.87262 0.98521 0.23338 0.0
C579 C 0.91007 0.04267 0.2017 0.0
C580 C 0.88714 0.02319 0.28958 0.0
O581 O 0.87483 0.06187 0.24162 0.0
O582 O 0.84047 0.04462 0.2582 0.0
C583 C 0.80171 0.01333 0.2241 0.0
N584 N 0.81015 0.99892 0.24024 0.0
C585 C 0.77708 0.96373 0.22889 0.0
C586 C 0.76792 0.97825 0.21224 0.0
C587 C 0.78038 0.0031 0.20974 0.0
C588 C 0.79854 0.97485 0.24252 0.0
H589 H 0.81116 0.03248 0.22223 0.0
C590 C 0.85427 0.06358 0.25046 0.0
O591 O 0.91998 0.04763 0.22334 0.0
O592 O 0.88747 0.03098 0.19974 0.0
N593 N 0.83076 0.97301 0.26963 0.0
C594 C 0.8424 0.96124 0.28599 0.0
C595 C 0.83216 0.93636 0.29085 0.0
C596 C 0.8099 0.92399 0.27915 0.0
C597 C 0.79823 0.93645 0.26242 0.0
C598 C 0.80917 0.96133 0.25848 0.0
H599 H 0.85927 0.97082 0.29541 0.0
O600 O 0.89538 0.99302 0.22952 0.0
O601 O 0.85984 0.00296 0.23796 0.0
O602 O 0.89921 0.02913 0.27135 0.0
O603 O 0.86397 0.01621 0.28841 0.0
C604 C 0.77632 0.92505 0.2493 0.0
C605 C 0.76585 0.93861 0.2324 0.0
H606 H 0.75142 0.97047 0.2012 0.0
H607 H 0.77348 0.01439 0.19686 0.0
H608 H 0.84132 0.92682 0.30373 0.0
H609 H 0.80199 0.90486 0.28304 0.0
H610 H 0.76756 0.90574 0.2518 0.0
H611 H 0.7492 0.92953 0.22216 0.0
Mn612 Mn 0.27254 0.6652 0.53033 0.0
Mn613 Mn 0.24395 0.61468 0.49279 0.0
C614 C 0.23053 0.65411 0.52806 0.0
C615 C 0.28999 0.68371 0.56761 0.0
C616 C 0.26518 0.66601 0.47616 0.0
O617 O 0.30009 0.64549 0.52279 0.0
O618 O 0.27822 0.61166 0.49977 0.0
C619 C 0.24466 0.57401 0.52528 0.0
N620 N 0.23196 0.58673 0.51073 0.0
C621 C 0.1941 0.55901 0.51678 0.0
C622 C 0.20679 0.54554 0.53176 0.0
C623 C 0.23216 0.55314 0.5361 0.0
C624 C 0.20752 0.57975 0.50663 0.0
H625 H 0.26417 0.57974 0.52857 0.0
C626 C 0.29818 0.62377 0.51051 0.0
O627 O 0.29502 0.6946 0.54817 0.0
O628 O 0.27629 0.66117 0.56517 0.0
N629 N 0.21038 0.61491 0.48453 0.0
C630 C 0.20079 0.63041 0.47023 0.0
C631 C 0.17564 0.62532 0.464 0.0
C632 C 0.16066 0.60423 0.47231 0.0
C633 C 0.17091 0.58861 0.48708 0.0
C634 C 0.19613 0.59448 0.49251 0.0
H635 H 0.21226 0.64642 0.46347 0.0
O636 O 0.24109 0.67714 0.53598 0.0
O637 O 0.24476 0.63829 0.52173 0.0
O638 O 0.27249 0.67735 0.4968 0.0
O639 O 0.25503 0.6425 0.47262 0.0
C640 C 0.1571 0.5675 0.49669 0.0
C641 C 0.16866 0.55283 0.51168 0.0
H642 H 0.19722 0.52941 0.54011 0.0
H643 H 0.24206 0.54289 0.5477 0.0
H644 H 0.16784 0.63749 0.45263 0.0
H645 H 0.14132 0.6002 0.46722 0.0
H646 H 0.13753 0.56257 0.4929 0.0
H647 H 0.1578 0.53687 0.51923 0.0
Mn648 Mn 0.39011 0.53171 0.73498 0.0
Mn649 Mn 0.34035 0.51462 0.76694 0.0
C650 C 0.37209 0.48887 0.73453 0.0
C651 C 0.40929 0.54447 0.70014 0.0
C652 C 0.39185 0.52806 0.78963 0.0
O653 O 0.37763 0.56562 0.74153 0.0
O654 O 0.34436 0.55118 0.76128 0.0
C655 C 0.30246 0.52044 0.73032 0.0
N656 N 0.3117 0.50589 0.74584 0.0
C657 C 0.27772 0.47121 0.73638 0.0
C658 C 0.26776 0.48586 0.72039 0.0
C659 C 0.28025 0.51054 0.71727 0.0
C660 C 0.29997 0.48203 0.74879 0.0
H661 H 0.31197 0.53944 0.72796 0.0
C662 C 0.35832 0.56899 0.75201 0.0
O663 O 0.42049 0.54915 0.72122 0.0
O664 O 0.38651 0.53338 0.69935 0.0
N665 N 0.33354 0.47974 0.77398 0.0
C666 C 0.34613 0.46768 0.78931 0.0
C667 C 0.3362 0.44276 0.79431 0.0
C668 C 0.31329 0.43064 0.78381 0.0
C669 C 0.30061 0.44347 0.76822 0.0
C670 C 0.31135 0.46834 0.76402 0.0
H671 H 0.36359 0.477 0.79772 0.0
O672 O 0.39458 0.49539 0.72907 0.0
O673 O 0.36053 0.50752 0.73987 0.0
O674 O 0.40256 0.53231 0.77029 0.0
O675 O 0.3687 0.52244 0.79043 0.0
C676 C 0.27794 0.43238 0.75632 0.0
C677 C 0.26658 0.44618 0.74031 0.0
H678 H 0.25062 0.47831 0.7103 0.0
H679 H 0.27272 0.52192 0.70489 0.0
H680 H 0.34612 0.43296 0.80633 0.0
H681 H 0.30569 0.41143 0.78771 0.0
H682 H 0.2693 0.41309 0.75906 0.0
H683 H 0.24934 0.43732 0.731 0.0
Mn684 Mn 0.62334 0.02021 0.74445 0.0
Mn685 Mn 0.67141 0.05082 0.78108 0.0
C686 C 0.63594 0.06379 0.7452 0.0
C687 C 0.60472 0.99894 0.70861 0.0
C688 C 0.62146 0.03277 0.79861 0.0
O689 O 0.64079 0.9913 0.75191 0.0
O690 O 0.67199 0.0138 0.77629 0.0
C691 C 0.71074 0.0431 0.74884 0.0
N692 N 0.69932 0.05906 0.76265 0.0
C693 C 0.729 0.09571 0.75514 0.0
C694 C 0.74114 0.07965 0.7409 0.0
C695 C 0.73189 0.05325 0.73765 0.0
C696 C 0.70787 0.08452 0.76563 0.0
H697 H 0.70377 0.02278 0.74641 0.0
C698 C 0.66026 0.99294 0.76522 0.0
O699 O 0.59469 0.99624 0.72888 0.0
O700 O 0.6264 0.01298 0.70927 0.0
N701 N 0.67358 0.08695 0.78733 0.0
C702 C 0.65923 0.09988 0.80092 0.0
C703 C 0.6661 0.12645 0.80619 0.0
C704 C 0.68774 0.13938 0.79762 0.0
C705 C 0.70207 0.12573 0.78345 0.0
C706 C 0.69444 0.09924 0.77902 0.0
H707 H 0.64279 0.08998 0.80788 0.0
O708 O 0.61358 0.0534 0.73836 0.0
O709 O 0.65011 0.04857 0.7518 0.0
O710 O 0.61171 0.02286 0.7783 0.0
O711 O 0.64373 0.04389 0.80183 0.0
C712 C 0.72358 0.13736 0.77351 0.0
C713 C 0.73692 0.12238 0.75918 0.0
H714 H 0.75751 0.08739 0.7323 0.0
H715 H 0.74112 0.04074 0.72663 0.0
H716 H 0.65489 0.13689 0.81703 0.0
H717 H 0.69316 0.15981 0.80203 0.0
H718 H 0.72986 0.15784 0.77651 0.0
H719 H 0.75323 0.13158 0.75134 0.0
Mn720 Mn 0.76682 0.66509 1.00412 0.0
Mn721 Mn 0.7564 0.61569 0.96071 0.0
C722 C 0.72713 0.6447 0.99219 0.0
C723 C 0.77205 0.68122 0.04498 0.0
C724 C 0.77123 0.67109 0.94997 0.0
O725 O 0.79992 0.65301 1.00377 0.0
O726 O 0.79033 0.61984 0.975 0.0
C727 C 0.75919 0.57315 0.99055 0.0
N728 N 0.74649 0.58429 0.97455 0.0
C729 C 0.71208 0.54968 0.97303 0.0
C730 C 0.72486 0.53777 0.98937 0.0
C731 C 0.7485 0.54958 0.99818 0.0
C732 C 0.72375 0.57306 0.9659 0.0
H733 H 0.77732 0.58219 0.99747 0.0
C734 C 0.80523 0.63388 0.99092 0.0
O735 O 0.77913 0.69549 0.02807 0.0
O736 O 0.76329 0.65739 0.03826 0.0
N737 N 0.72407 0.60944 0.94588 0.0
C738 C 0.71356 0.6243 0.9316 0.0
C739 C 0.68951 0.61571 0.92207 0.0
C740 C 0.67656 0.59193 0.92722 0.0
C741 C 0.68781 0.5769 0.94183 0.0
C742 C 0.71189 0.58636 0.95068 0.0
H743 H 0.72336 0.64266 0.92767 0.0
O744 O 0.73143 0.66809 1.00197 0.0
O745 O 0.7462 0.63427 0.98905 0.0
O746 O 0.77241 0.68104 0.97173 0.0
O747 O 0.76583 0.64698 0.94433 0.0
C748 C 0.67588 0.55319 0.94842 0.0
C749 C 0.68801 0.53958 0.964 0.0
H750 H 0.7166 0.51969 0.99546 0.0
H751 H 0.75842 0.54057 0.0109 0.0
H752 H 0.68093 0.62746 0.91087 0.0
H753 H 0.65792 0.58551 0.92006 0.0
H754 H 0.65722 0.54545 0.94194 0.0
H755 H 0.6785 0.52157 0.96923 0.0
Mn756 Mn 0.91657 0.54756 0.78894 0.0
Mn757 Mn 0.8702 0.53732 0.82569 0.0
C758 C 0.90088 0.50684 0.79807 0.0
C759 C 0.93152 0.55062 0.7512 0.0
C760 C 0.92221 0.5604 0.84321 0.0
O761 O 0.90192 0.57961 0.78777 0.0
O762 O 0.87048 0.57007 0.81163 0.0
C763 C 0.82852 0.53081 0.78982 0.0
N764 N 0.84088 0.52141 0.8074 0.0
C765 C 0.81158 0.48207 0.80378 0.0
C766 C 0.79848 0.49139 0.78574 0.0
C767 C 0.80701 0.51585 0.77871 0.0
C768 C 0.83282 0.4979 0.81431 0.0
H769 H 0.83504 0.54955 0.78427 0.0
C770 C 0.88282 0.58447 0.79764 0.0
O771 O 0.94452 0.56142 0.77032 0.0
O772 O 0.90946 0.53896 0.75396 0.0
N773 N 0.86795 0.50565 0.83974 0.0
C774 C 0.88351 0.49885 0.8563 0.0
C775 C 0.87802 0.4746 0.8647 0.0
C776 C 0.85657 0.45764 0.85603 0.0
C777 C 0.84078 0.4651 0.83905 0.0
C778 C 0.84713 0.48957 0.83146 0.0
H779 H 0.90006 0.51177 0.86297 0.0
O780 O 0.92308 0.51215 0.79141 0.0
O781 O 0.88915 0.52566 0.79988 0.0
O782 O 0.93125 0.55914 0.82279 0.0
O783 O 0.89956 0.55311 0.84627 0.0
C784 C 0.81924 0.44903 0.82903 0.0
C785 C 0.80468 0.45749 0.81137 0.0
H786 H 0.78198 0.47985 0.777 0.0
H787 H 0.79707 0.52313 0.76471 0.0
H788 H 0.89033 0.46895 0.87775 0.0
H789 H 0.8525 0.43886 0.86238 0.0
H790 H 0.81387 0.43 0.83453 0.0
H791 H 0.78837 0.4448 0.80352 0.0
Mn792 Mn 0.75318 0.40209 0.50118 0.0
Mn793 Mn 0.76955 0.45021 0.46659 0.0
C794 C 0.79309 0.41386 0.49186 0.0
C795 C 0.74771 0.38569 0.53792 0.0
C796 C 0.74498 0.39709 0.4465 0.0
O797 O 0.72479 0.42103 0.50372 0.0
O798 O 0.73711 0.45179 0.47936 0.0
C799 C 0.77521 0.49321 0.50476 0.0
N800 N 0.78481 0.48002 0.48679 0.0
C801 C 0.82351 0.50878 0.49302 0.0
C802 C 0.81398 0.52274 0.51149 0.0
C803 C 0.78974 0.51489 0.51741 0.0
C804 C 0.80814 0.48739 0.48098 0.0
H805 H 0.75663 0.48722 0.50948 0.0
C806 C 0.72193 0.44073 0.49339 0.0
O807 O 0.73653 0.37357 0.51835 0.0
O808 O 0.76079 0.4081 0.53633 0.0
N809 N 0.80085 0.45122 0.45351 0.0
C810 C 0.80761 0.43506 0.43595 0.0
C811 C 0.83146 0.44001 0.42818 0.0
C812 C 0.84807 0.46156 0.43847 0.0
C813 C 0.84066 0.47801 0.4564 0.0
C814 C 0.81657 0.47225 0.46323 0.0
H815 H 0.79498 0.4184 0.42803 0.0
O816 O 0.7852 0.39092 0.49749 0.0
O817 O 0.77734 0.42897 0.49145 0.0
O818 O 0.74227 0.38805 0.46668 0.0
O819 O 0.7549 0.42018 0.44431 0.0
C820 C 0.85634 0.49966 0.46803 0.0
C821 C 0.84779 0.515 0.48637 0.0
H822 H 0.82517 0.5394 0.52137 0.0
H823 H 0.78229 0.5255 0.53172 0.0
H824 H 0.83706 0.42718 0.41438 0.0
H825 H 0.86651 0.46519 0.43258 0.0
H826 H 0.87511 0.50449 0.46324 0.0
H827 H 0.86012 0.5314 0.49539 0.0
Mn828 Mn 0.64456 0.51871 0.2836 0.0
Mn829 Mn 0.68853 0.53087 0.32848 0.0
C830 C 0.66211 0.56063 0.29778 0.0
C831 C 0.63198 0.51413 0.24255 0.0
C832 C 0.63476 0.51293 0.33663 0.0
O833 O 0.65715 0.48449 0.28303 0.0
O834 O 0.68751 0.49621 0.31199 0.0
C835 C 0.73221 0.53189 0.3 0.0
N836 N 0.71961 0.54347 0.31661 0.0
C837 C 0.75165 0.58056 0.3225 0.0
C838 C 0.76514 0.56884 0.30575 0.0
C839 C 0.75531 0.54446 0.29437 0.0
C840 C 0.72879 0.56704 0.32751 0.0
H841 H 0.72461 0.51332 0.29097 0.0
C842 C 0.67558 0.48008 0.29544 0.0
O843 O 0.61737 0.50539 0.25858 0.0
O844 O 0.65431 0.52353 0.25013 0.0
N845 N 0.69156 0.56417 0.34526 0.0
C846 C 0.6752 0.57386 0.35904 0.0
C847 C 0.68158 0.59873 0.37058 0.0
C848 C 0.70473 0.61332 0.36792 0.0
C849 C 0.72126 0.60294 0.35366 0.0
C850 C 0.71391 0.57802 0.34265 0.0
H851 H 0.65736 0.56277 0.36113 0.0
O852 O 0.64042 0.5555 0.28726 0.0
O853 O 0.67241 0.54108 0.30033 0.0
O854 O 0.62687 0.51197 0.31478 0.0
O855 O 0.65743 0.51884 0.34315 0.0
C856 C 0.74454 0.61653 0.34956 0.0
C857 C 0.7597 0.60539 0.33392 0.0
H858 H 0.78288 0.57856 0.30121 0.0
H859 H 0.76548 0.53543 0.28119 0.0
H860 H 0.66868 0.60664 0.38147 0.0
H861 H 0.70954 0.63256 0.37673 0.0
H862 H 0.75078 0.63577 0.35797 0.0
H863 H 0.77733 0.61629 0.33046 0.0
Dy864 Dy 0.98912 0.02242 0.00925 0.0
C865 C 0.09198 0.03344 0.01789 0.0
C866 C 0.94353 0.03176 0.01579 0.0
Dy867 Dy 0.04486 0.03898 0.02292 0.0
O868 O 0.94874 0.01587 0.99852 0.0
O869 O 0.96292 0.04148 0.02929 0.0
O870 O 0.99642 0.9998 0.97491 0.0
O871 O 0.02164 0.03161 0.99022 0.0
C872 C 0.01838 0.01326 0.97399 0.0
C873 C 0.01524 0.04827 0.05781 0.0
O874 O 0.03991 0.07468 0.00643 0.0
O875 O 0.99761 0.06337 1.00021 0.0
O876 O 0.08347 0.04075 0.03814 0.0
O877 O 0.07506 0.0303 1.00086 0.0
O878 O 0.03679 0.06243 0.05633 0.0
O879 O 0.01227 0.02943 0.04205 0.0
O880 O 0.99411 0.98703 0.02576 0.0
O881 O 0.03667 0.99696 0.02875 0.0
C882 C 0.01843 0.07985 0.99929 0.0
C883 C 0.01573 0.98102 0.03076 0.0
Dy884 Dy 0.27019 0.77817 0.22955 0.0
C885 C 0.25666 0.75771 0.32783 0.0
C886 C 0.26638 0.79857 0.18721 0.0
Dy887 Dy 0.25902 0.77715 0.28462 0.0
O888 O 0.27383 0.77703 0.18947 0.0
O889 O 0.26179 0.80881 0.20794 0.0
O890 O 0.29765 0.75169 0.23261 0.0
O891 O 0.28916 0.77357 0.26253 0.0
C892 C 0.29987 0.75562 0.25604 0.0
C893 C 0.2298 0.7996 0.25769 0.0
O894 O 0.29132 0.80953 0.28695 0.0
O895 O 0.2919 0.81558 0.24625 0.0
O896 O 0.25774 0.78183 0.32501 0.0
O897 O 0.25681 0.74462 0.30727 0.0
O898 O 0.23291 0.80496 0.28092 0.0
O899 O 0.23986 0.78104 0.25174 0.0
O900 O 0.24063 0.74371 0.22658 0.0
O901 O 0.2381 0.73921 0.26753 0.0
C902 C 0.29933 0.82296 0.26903 0.0
C903 C 0.23204 0.73097 0.24459 0.0
Dy904 Dy 0.54371 0.02598 0.52592 0.0
C905 C 0.44544 0.04742 0.52038 0.0
C906 C 0.587 0.00877 0.53087 0.0
Dy907 Dy 0.48632 0.02643 0.52725 0.0
O908 O 0.5828 0.02561 0.51657 0.0
O909 O 0.56788 1.00214 0.54284 0.0
O910 O 0.54634 0.05401 0.49732 0.0
O911 O 0.51393 0.02882 0.50152 0.0
C912 C 0.52314 0.04754 0.49095 0.0
C913 C 0.50512 0.00288 0.56141 0.0
O914 O 0.4857 0.99268 0.49992 0.0
O915 O 0.52559 0.98696 0.50857 0.0
O916 O 0.46774 0.0586 0.51802 0.0
O917 O 0.44525 0.02427 0.52625 0.0
O918 O 0.48174 0.99888 0.55565 0.0
O919 O 0.51568 0.02208 0.55194 0.0
O920 O 0.54578 0.0616 0.55097 0.0
O921 O 0.50441 0.06434 0.54653 0.0
C922 C 0.50335 0.97891 0.49801 0.0
C923 C 0.52724 0.07376 0.55483 0.0
Dy924 Dy 0.23905 0.27914 0.76428 0.0
C925 C 0.34306 0.29003 0.7547 0.0
C926 C 0.19148 0.27624 0.77537 0.0
Dy927 Dy 0.29675 0.27639 0.76863 0.0
O928 O 0.206 0.29682 0.77052 0.0
O929 O 0.20271 0.25687 0.77324 0.0
O930 O 0.24831 0.31034 0.73973 0.0
O931 O 0.27387 0.30515 0.76661 0.0
C932 C 0.27061 0.31744 0.74897 0.0
C933 C 0.268 0.23225 0.77696 0.0
O934 O 0.29335 0.29549 0.80543 0.0
O935 O 0.25062 0.29128 0.80335 0.0
O936 O 0.33728 0.27656 0.77268 0.0
O937 O 0.32372 0.29651 0.74522 0.0
O938 O 0.29174 0.23494 0.77728 0.0
O939 O 0.26232 0.25299 0.77229 0.0
O940 O 0.24171 0.25614 0.72925 0.0
O941 O 0.28447 0.26189 0.73026 0.0
C942 C 0.27239 0.29788 0.81526 0.0
C943 C 0.26251 0.25369 0.71921 0.0
Dy944 Dy 0.0065 0.01216 0.48612 0.0
C945 C 0.05389 0.03993 0.58398 0.0
C946 C 0.97491 1.00136 0.44645 0.0
Dy947 Dy 0.02997 0.03722 0.53984 0.0
O948 O 0.97178 0.01512 0.46596 0.0
O949 O 0.99491 0.99209 0.44907 0.0
O950 O 0.04146 0.02712 0.46945 0.0
O951 O 0.0421 0.02176 0.5059 0.0
C952 C 0.05458 0.03153 0.4896 0.0
C953 C 0.98037 0.02452 0.53645 0.0
O954 O 0.03229 0.07303 0.52114 0.0
O955 O 0.00658 0.05439 0.48742 0.0
O956 O 0.03312 0.02571 0.57683 0.0
O957 O 0.06179 0.05412 0.567 0.0
O958 O 0.99271 0.03566 0.55583 0.0
O959 O 0.99548 0.02384 0.52068 0.0
O960 O 0.00449 0.97691 0.50587 0.0
O961 O 0.0346 0.99625 0.5353 0.0
C962 C 0.02009 0.07449 0.50044 0.0
C963 C 0.01892 0.97599 0.52521 0.0
Dy964 Dy 0.29266 0.78858 0.77743 0.0
C965 C 0.20993 0.75235 0.70721 0.0
C966 C 0.33059 0.80349 0.81127 0.0
Dy967 Dy 0.24592 0.76509 0.74311 0.0
O968 O 0.32914 0.81222 0.79042 0.0
O969 O 0.31051 0.78772 0.81418 0.0
O970 O 0.31628 0.78045 0.74736 0.0
O971 O 0.28161 0.78798 0.7394 0.0
C972 C 0.29995 0.78097 0.73041 0.0
C973 C 0.23826 0.77147 0.79009 0.0
O974 O 0.26699 0.73248 0.74135 0.0
O975 O 0.29219 0.74649 0.77601 0.0
O976 O 0.21135 0.74016 0.72619 0.0
O977 O 0.22906 0.77028 0.70723 0.0
O978 O 0.22146 0.77054 0.77319 0.0
O979 O 0.25697 0.76563 0.78089 0.0
O980 O 0.27191 0.82121 0.7801 0.0
O981 O 0.24391 0.80685 0.74751 0.0
C982 C 0.28348 0.72889 0.75802 0.0
C983 C 0.25371 0.8244 0.76518 0.0
Dy984 Dy 0.5171 0.02198 0.04617 0.0
C985 C 0.52351 0.02786 0.94425 0.0
C986 C 0.50816 0.025 0.09367 0.0
Dy987 Dy 0.51401 0.02896 0.9915 0.0
O988 O 0.50647 0.00379 0.07992 0.0
O989 O 0.5153 0.04428 0.0816 0.0
O990 O 0.54142 0.9927 0.03934 0.0
O991 O 0.51521 0.9976 0.01316 0.0
C992 C 0.53269 0.98641 0.01726 0.0
C993 C 0.49717 0.06372 0.0201 0.0
O994 O 0.47892 0.00248 0.99353 0.0
O995 O 0.477 0.01065 0.0349 0.0
O996 O 0.52246 0.00867 0.95703 0.0
O997 O 0.5188 0.0476 0.95715 0.0
O998 O 0.48852 0.05669 0.9981 0.0
O999 O 0.51532 0.05348 0.02455 0.0
O1000 O 0.55352 0.04651 0.04413 0.0
O1001 O 0.55364 0.04273 1.00242 0.0
C1002 C 0.46703 1.00083 0.01341 0.0
C1003 C 0.56448 0.0506 0.02395 0.0
Dy1004 Dy 0.27072 0.30268 0.27277 0.0
C1005 C 0.2806 0.20019 0.26563 0.0
C1006 C 0.25807 0.34876 0.26851 0.0
Dy1007 Dy 0.26673 0.24519 0.2589 0.0
O1008 O 0.27049 0.34342 0.287 0.0
O1009 O 0.25329 0.32927 0.25253 0.0
O1010 O 0.28911 0.29932 0.30903 0.0
O1011 O 0.26392 0.26884 0.29169 0.0
C1012 C 0.27892 0.27538 0.30952 0.0
C1013 C 0.25754 0.27229 0.22244 0.0
O1014 O 0.22934 0.24358 0.27286 0.0
O1015 O 0.23027 0.28731 0.27377 0.0
O1016 O 0.26893 0.20432 0.24612 0.0
O1017 O 0.2839 0.22018 0.28101 0.0
O1018 O 0.24748 0.24829 0.22312 0.0
O1019 O 0.27307 0.27898 0.23986 0.0
O1020 O 0.30792 0.30453 0.25874 0.0
O1021 O 0.30708 0.26077 0.25651 0.0
C1022 C 0.21847 0.26373 0.27576 0.0
C1023 C 0.3188 0.28451 0.25498 0.0
Dy1024 Dy 0.5097 0.5157 0.98672 0.0
C1025 C 0.5646 0.54662 0.0797 0.0
C1026 C 0.48081 0.50316 0.94496 0.0
Dy1027 Dy 0.53563 0.53474 0.03792 0.0
O1028 O 0.50311 0.49943 0.9479 0.0
O1029 O 0.47394 0.5124 0.96522 0.0
O1030 O 0.54136 0.53782 0.96958 0.0
O1031 O 0.54745 0.5239 1.00253 0.0
C1032 C 0.55714 0.53787 0.98718 0.0
C1033 C 0.48839 0.51234 0.03791 0.0
O1034 O 0.53528 0.57207 0.02192 0.0
O1035 O 0.50425 0.55613 0.9925 0.0
O1036 O 0.5433 0.55283 0.07617 0.0
O1037 O 0.57062 0.53557 0.05985 0.0
O1038 O 0.50397 0.51375 0.05593 0.0
O1039 O 0.49795 0.52595 0.02222 0.0
O1040 O 0.51026 0.47825 1.00217 0.0
O1041 O 0.54015 0.49395 0.03276 0.0
C1042 C 0.5194 0.57547 1.00463 0.0
C1043 C 0.52532 0.47473 0.02012 0.0
Dy1044 Dy 0.79259 0.28802 0.27616 0.0
C1045 C 0.70103 0.2463 0.22005 0.0
C1046 C 0.83469 0.29945 0.30495 0.0
Dy1047 Dy 0.73861 0.25795 0.25411 0.0
O1048 O 0.83249 0.30527 0.28301 0.0
O1049 O 0.81368 0.28814 0.31138 0.0
O1050 O 0.80141 0.29794 0.23837 0.0
O1051 O 0.77594 0.26591 0.24408 0.0
C1052 C 0.78507 0.279 0.22821 0.0
C1053 C 0.73978 0.27244 0.30147 0.0
O1054 O 0.75809 0.22439 0.25584 0.0
O1055 O 0.79509 0.24611 0.27552 0.0
O1056 O 0.70198 0.23531 0.2399 0.0
O1057 O 0.72111 0.26263 0.21849 0.0
O1058 O 0.72008 0.25994 0.28949 0.0
O1059 O 0.7567 0.27418 0.28736 0.0
O1060 O 0.77127 0.3198 0.27946 0.0
O1061 O 0.73814 0.30024 0.2531 0.0
C1062 C 0.7804 0.22473 0.26586 0.0
C1063 C 0.7506 0.32037 0.26691 0.0
Dy1064 Dy 0.01573 0.52378 0.54561 0.0
C1065 C 0.03386 0.52454 0.44539 0.0
C1066 C 0.00515 0.52708 0.59242 0.0
Dy1067 Dy 0.0158 0.53142 0.48887 0.0
O1068 O 1.0 0.50623 0.57786 0.0
O1069 O 0.01649 0.54575 0.58151 0.0
O1070 O 0.04194 0.49596 0.54003 0.0
O1071 O 0.01825 0.50158 0.51214 0.0
C1072 C 0.03585 0.49098 0.51714 0.0
C1073 C 0.9996 0.56927 0.51442 0.0
O1074 O 0.98078 0.50401 0.49022 0.0
O1075 O 0.97684 0.51009 0.53175 0.0
O1076 O 0.01152 0.52786 0.4485 0.0
O1077 O 0.04574 0.52462 0.4658 0.0
O1078 O 1.00103 0.56853 0.49116 0.0
O1079 O 0.00685 0.55006 0.52131 0.0
O1080 O 0.04887 0.55376 0.5453 0.0
O1081 O 0.05239 0.55275 0.50385 0.0
C1082 C 0.96803 0.50092 0.50963 0.0
C1083 C 0.06052 0.56092 0.52626 0.0
Dy1084 Dy 0.74085 0.77604 0.26437 0.0
C1085 C 0.84269 0.77976 0.25542 0.0
C1086 C 0.69321 0.77437 0.27531 0.0
Dy1087 Dy 0.79553 0.77197 0.2685 0.0
O1088 O 0.70717 0.79363 0.26734 0.0
O1089 O 0.70498 0.75559 0.27631 0.0
O1090 O 0.75027 0.80768 0.24044 0.0
O1091 O 0.77527 0.80282 0.268 0.0
C1092 C 0.77221 0.81514 0.25033 0.0
C1093 C 0.76493 0.7322 0.28239 0.0
O1094 O 0.79408 0.79402 0.30414 0.0
O1095 O 0.75171 0.78562 0.30406 0.0
O1096 O 0.83341 0.76237 0.26903 0.0
O1097 O 0.82644 0.79316 0.24986 0.0
O1098 O 0.78743 0.73916 0.29111 0.0
O1099 O 0.76112 0.74499 0.2652 0.0
O1100 O 0.74209 0.75534 0.22774 0.0
O1101 O 0.78437 0.75826 0.22968 0.0
C1102 C 0.77353 0.79423 0.31524 0.0
C1103 C 0.76272 0.75217 0.21772 0.0
Dy1104 Dy 0.77205 0.28389 0.73125 0.0
C1105 C 0.76359 0.26506 0.8286 0.0
C1106 C 0.76828 0.29615 0.68537 0.0
Dy1107 Dy 0.76147 0.28484 0.786 0.0
O1108 O 0.78883 0.29508 0.69682 0.0
O1109 O 0.75025 0.29006 0.6988 0.0
O1110 O 0.79832 0.25663 0.73648 0.0
O1111 O 0.7924 0.28306 0.7645 0.0
C1112 C 0.80251 0.26428 0.75932 0.0
C1113 C 0.73039 0.30428 0.75873 0.0
O1114 O 0.79005 0.31979 0.78691 0.0
O1115 O 0.78612 0.32479 0.74618 0.0
O1116 O 0.75849 0.28764 0.82618 0.0
O1117 O 0.76744 0.25382 0.80808 0.0
O1118 O 0.73381 0.31074 0.78183 0.0
O1119 O 0.74125 0.28617 0.75311 0.0
O1120 O 0.74706 0.24617 0.72945 0.0
O1121 O 0.74062 0.24641 0.77037 0.0
C1122 C 0.79443 0.33357 0.76851 0.0
C1123 C 0.73706 0.23543 0.74796 0.0
Dy1124 Dy 0.77111 0.80598 0.77158 0.0
C1125 C 0.77332 0.70069 0.7497 0.0
C1126 C 0.75603 0.85088 0.76728 0.0
Dy1127 Dy 0.7647 0.7494 0.75497 0.0
O1128 O 0.77246 0.84785 0.78357 0.0
O1129 O 0.74895 0.82993 0.75348 0.0
O1130 O 0.79079 0.80155 0.80672 0.0
O1131 O 0.76505 0.7713 0.78959 0.0
C1132 C 0.781 0.7774 0.80675 0.0
C1133 C 0.75447 0.77893 0.72081 0.0
O1134 O 0.72765 0.74758 0.76962 0.0
O1135 O 0.73116 0.79162 0.77656 0.0
O1136 O 0.77668 0.71676 0.73362 0.0
O1137 O 0.76413 0.71092 0.76818 0.0
O1138 O 0.7429 0.75557 0.72175 0.0
O1139 O 0.7714 0.78414 0.73708 0.0
O1140 O 0.80744 0.80644 0.756 0.0
O1141 O 0.80565 0.76313 0.75817 0.0
C1142 C 0.7183 0.76812 0.77611 0.0
C1143 C 0.8179 0.786 0.75428 0.0
Dy1144 Dy 0.48764 0.52601 0.50426 0.0
C1145 C 0.59031 0.54082 0.52825 0.0
C1146 C 0.43994 0.53093 0.50557 0.0
Dy1147 Dy 0.54192 0.54249 0.52129 0.0
O1148 O 0.44982 0.52238 0.48658 0.0
O1149 O 0.45584 0.53554 0.52362 0.0
O1150 O 0.49675 0.50172 0.47201 0.0
O1151 O 0.52163 0.53429 0.48671 0.0
C1152 C 0.51884 0.51496 0.47148 0.0
C1153 C 0.50994 0.55261 0.55373 0.0
O1154 O 0.53855 0.57728 0.50292 0.0
O1155 O 0.49615 0.56789 0.49808 0.0
O1156 O 0.57403 0.536 0.54386 0.0
O1157 O 0.58031 0.54785 0.50927 0.0
O1158 O 0.5313 0.56707 0.55265 0.0
O1159 O 0.50806 0.53328 0.53872 0.0
O1160 O 0.49211 0.49039 0.52066 0.0
O1161 O 0.5345 0.49956 0.5212 0.0
C1162 C 0.51736 0.58343 0.49651 0.0
C1163 C 0.51374 0.48392 0.52435 0.0
Dy1164 Dy 0.04692 0.52025 0.01909 0.0
C1165 C 0.94813 0.54431 0.01952 0.0
C1166 C 0.089 0.50118 0.02539 0.0
Dy1167 Dy 0.99058 0.52488 0.02257 0.0
O1168 O 0.08664 0.51998 0.01269 0.0
O1169 O 0.06855 0.49329 0.03498 0.0
O1170 O 0.04981 0.54433 0.98747 0.0
O1171 O 0.01651 0.52247 0.99517 0.0
C1172 C 0.02631 0.53903 0.98238 0.0
C1173 C 0.01164 0.50569 0.0588 0.0
O1174 O 0.98569 0.48665 1.001 0.0
O1175 O 0.02623 0.4809 0.00563 0.0
O1176 O 0.96396 0.54855 0.03773 0.0
O1177 O 0.95503 0.52859 1.0033 0.0
O1178 O 0.98821 0.49968 0.05333 0.0
O1179 O 0.02115 0.52294 0.04657 0.0
O1180 O 0.05002 0.55733 0.04185 0.0
O1181 O 0.01262 0.56508 0.02721 0.0
C1182 C 1.00291 0.47245 0.99833 0.0
C1183 C 0.03431 0.5729 0.03885 0.0
H1184 H 0.0306 0.22476 0.93547 0.0
H1185 H 0.98236 0.16961 0.88626 0.0
H1186 H 0.03694 0.19103 0.9603 0.0
H1187 H 0.98862 0.1357 0.91134 0.0
H1188 H 0.97786 0.09411 0.97991 0.0
H1189 H 0.97581 0.12713 0.95326 0.0
H1190 H 0.05417 0.15004 0.96075 0.0
H1191 H 0.05645 0.11648 0.98744 0.0
C1192 C 0.0216 0.20532 0.92978 0.0
C1193 C 0.00585 0.19984 0.90897 0.0
C1194 C 0.02533 0.186 0.94398 0.0
C1195 C 0.01313 0.16077 0.93791 0.0
C1196 C 0.99808 0.15506 0.9166 0.0
C1197 C 0.99462 0.1744 0.90214 0.0
C1198 C 0.99476 0.10619 0.97611 0.0
C1199 C 0.01739 0.10249 0.98589 0.0
C1200 C 0.99353 0.12499 0.96057 0.0
C1201 C 0.01483 0.14088 0.95455 0.0
C1202 C 0.03743 0.13797 0.965 0.0
C1203 C 0.03872 0.11885 0.98039 0.0
H1204 H 0.08855 0.81859 0.20865 0.0
H1205 H 0.12269 0.80691 0.14189 0.0
H1206 H 0.12765 0.82331 0.23057 0.0
H1207 H 0.16238 0.81299 0.16381 0.0
H1208 H 0.21554 0.7803 0.21201 0.0
H1209 H 0.18145 0.7878 0.18748 0.0
H1210 H 0.16741 0.84436 0.24259 0.0
H1211 H 0.20145 0.83589 0.26774 0.0
C1212 C 0.10456 0.81772 0.19855 0.0
C1213 C 0.10243 0.81195 0.17352 0.0
C1214 C 0.12715 0.82065 0.21119 0.0
C1215 C 0.14832 0.8182 0.19911 0.0
C1216 C 0.14642 0.81436 0.17384 0.0
C1217 C 0.1237 0.81107 0.1612 0.0
C1218 C 0.20545 0.79464 0.21882 0.0
C1219 C 0.21105 0.80733 0.24194 0.0
C1220 C 0.1859 0.79915 0.20457 0.0
C1221 C 0.17139 0.81663 0.21296 0.0
C1222 C 0.17785 0.8304 0.23566 0.0
C1223 C 0.19743 0.8257 0.25006 0.0
H1224 H 0.48201 0.86808 0.37118 0.0
H1225 H 0.49993 0.82601 0.42978 0.0
H1226 H 0.48383 0.90615 0.39947 0.0
H1227 H 0.50136 0.8636 0.45769 0.0
H1228 H 0.53185 0.94254 0.49534 0.0
H1229 H 0.52796 0.90505 0.46669 0.0
H1230 H 0.46245 0.92326 0.43433 0.0
H1231 H 0.46652 0.96135 0.46305 0.0
C1232 C 0.48635 0.8669 0.39001 0.0
C1233 C 0.49098 0.84393 0.39809 0.0
C1234 C 0.48718 0.88865 0.40624 0.0
C1235 C 0.49283 0.88794 0.43084 0.0
C1236 C 0.49729 0.86495 0.43885 0.0
C1237 C 0.49636 0.8433 0.42276 0.0
C1238 C 0.5165 0.93858 0.48224 0.0
C1239 C 0.49946 0.95498 0.48158 0.0
C1240 C 0.51423 0.91697 0.46583 0.0
C1241 C 0.49488 0.91111 0.4482 0.0
C1242 C 0.47768 0.92738 0.44756 0.0
C1243 C 0.47987 0.94903 0.46417 0.0
H1244 H 0.43647 0.27806 0.63979 0.0
H1245 H 0.48935 0.29471 0.70026 0.0
H1246 H 0.40386 0.28153 0.66679 0.0
H1247 H 0.45655 0.29814 0.72724 0.0
H1248 H 0.38364 0.26995 0.76592 0.0
H1249 H 0.4194 0.26966 0.74188 0.0
H1250 H 0.39067 0.31647 0.69299 0.0
H1251 H 0.35523 0.31681 0.71686 0.0
C1252 C 0.44118 0.28244 0.65881 0.0
C1253 C 0.4656 0.28621 0.66778 0.0
C1254 C 0.42248 0.28458 0.67428 0.0
C1255 C 0.42767 0.29029 0.69913 0.0
C1256 C 0.452 0.29365 0.7082 0.0
C1257 C 0.47077 0.2918 0.69269 0.0
C1258 C 0.38529 0.28059 0.75033 0.0
C1259 C 0.36661 0.29325 0.74317 0.0
C1260 C 0.4057 0.2804 0.73655 0.0
C1261 C 0.40761 0.29269 0.71533 0.0
C1262 C 0.38948 0.30641 0.70897 0.0
C1263 C 0.36927 0.30675 0.72276 0.0
H1264 H 0.98676 0.82622 0.58402 0.0
H1265 H 0.04506 0.87319 0.62955 0.0
H1266 H 0.98662 0.8611 0.55855 0.0
H1267 H 0.04601 0.90714 0.60361 0.0
H1268 H 0.02587 0.97429 0.57265 0.0
H1269 H 0.02391 0.93788 0.59526 0.0
H1270 H 0.00607 0.88736 0.52991 0.0
H1271 H 0.0068 0.92478 0.50705 0.0
C1272 C 0.9997 0.84388 0.58848 0.0
C1273 C 0.0157 0.84697 0.60906 0.0
C1274 C 0.99975 0.86385 0.57374 0.0
C1275 C 0.01605 0.88726 0.57906 0.0
C1276 C 0.03259 0.88984 0.59921 0.0
C1277 C 0.0322 0.87018 0.61412 0.0
C1278 C 0.02165 0.95548 0.56292 0.0
C1279 C 0.01698 0.95252 0.53792 0.0
C1280 C 0.02067 0.93441 0.57599 0.0
C1281 C 0.0155 0.90943 0.56452 0.0
C1282 C 0.01015 0.90627 0.53944 0.0
C1283 C 0.01067 0.92766 0.52628 0.0
H1284 H 0.46033 0.81001 0.9089 0.0
H1285 H 0.46829 0.7624 0.84468 0.0
H1286 H 0.42037 0.8161 0.89267 0.0
H1287 H 0.42885 0.76911 0.82811 0.0
H1288 H 0.37626 0.81705 0.79645 0.0
H1289 H 0.41431 0.8112 0.81593 0.0
H1290 H 0.37631 0.78653 0.87748 0.0
H1291 H 0.33747 0.79105 0.8573 0.0
C1292 C 0.45353 0.80094 0.89129 0.0
C1293 C 0.4678 0.78663 0.87756 0.0
C1294 C 0.43069 0.80435 0.88206 0.0
C1295 C 0.42169 0.79342 0.85898 0.0
C1296 C 0.43552 0.77814 0.84578 0.0
C1297 C 0.45815 0.77447 0.85514 0.0
C1298 C 0.37598 0.81084 0.81433 0.0
C1299 C 0.35386 0.80465 0.8254 0.0
C1300 C 0.39784 0.80737 0.82543 0.0
C1301 C 0.39838 0.79844 0.8482 0.0
C1302 C 0.37646 0.79352 0.85993 0.0
C1303 C 0.3543 0.79621 0.84845 0.0
H1304 H 0.49827 0.21681 0.06882 0.0
H1305 H 0.46637 0.18133 0.12909 0.0
H1306 H 0.49581 0.17486 0.04682 0.0
H1307 H 0.46527 0.13888 0.10739 0.0
H1308 H 0.46159 0.0913 0.01116 0.0
H1309 H 0.45423 0.12981 0.0348 0.0
H1310 H 0.51092 0.12296 0.08708 0.0
H1311 H 0.51941 0.08566 0.06288 0.0
C1312 C 0.49008 0.2 0.07707 0.0
C1313 C 0.48145 0.20225 0.10017 0.0
C1314 C 0.48888 0.17606 0.06457 0.0
C1315 C 0.47993 0.15385 0.07532 0.0
C1316 C 0.4718 0.1559 0.09867 0.0
C1317 C 0.4725 0.18002 0.11103 0.0
C1318 C 0.47223 0.09783 0.02786 0.0
C1319 C 0.49083 0.08523 0.03539 0.0
C1320 C 0.46792 0.1197 0.04138 0.0
C1321 C 0.48173 0.12887 0.06287 0.0
C1322 C 0.49969 0.1158 0.07083 0.0
C1323 C 0.50442 0.09438 0.05704 0.0
H1324 H 0.11046 0.32092 0.35544 0.0
H1325 H 0.08954 0.24053 0.36331 0.0
H1326 H 0.14428 0.31248 0.33201 0.0
H1327 H 0.12297 0.23166 0.33874 0.0
H1328 H 0.20008 0.23119 0.30835 0.0
H1329 H 0.16593 0.23526 0.33353 0.0
H1330 H 0.14894 0.29553 0.29288 0.0
H1331 H 0.18359 0.29215 0.26868 0.0
C1332 C 0.11337 0.30142 0.3524 0.0
C1333 C 0.09745 0.28142 0.36127 0.0
C1334 C 0.13253 0.29647 0.33859 0.0
C1335 C 0.13602 0.27126 0.33275 0.0
C1336 C 0.12087 0.2513 0.34279 0.0
C1337 C 0.10181 0.25636 0.35701 0.0
C1338 C 0.1886 0.24482 0.30445 0.0
C1339 C 0.1945 0.26139 0.28656 0.0
C1340 C 0.16909 0.24728 0.31898 0.0
C1341 C 0.15498 0.26622 0.31575 0.0
C1342 C 0.15987 0.28135 0.29656 0.0
C1343 C 0.17952 0.27917 0.28237 0.0
H1344 H 0.95864 0.06375 0.20045 0.0
H1345 H 0.89463 0.03226 0.15416 0.0
H1346 H 0.9834 0.06703 0.16556 0.0
H1347 H 0.91923 0.03602 0.11923 0.0
H1348 H 0.97495 0.01407 0.06694 0.0
H1349 H 0.94928 0.01532 0.10086 0.0
H1350 H 0.99336 0.08744 0.12953 0.0
H1351 H 0.01934 0.08595 0.09539 0.0
C1352 C 0.94974 0.05791 0.1828 0.0
C1353 C 0.92459 0.04763 0.18022 0.0
C1354 C 0.96397 0.05988 0.1627 0.0
C1355 C 0.95349 0.05159 0.13941 0.0
C1356 C 0.92814 0.04217 0.13683 0.0
C1357 C 0.91393 0.04021 0.15691 0.0
C1358 C 0.97908 0.03036 0.08033 0.0
C1359 C 0.99918 0.04999 0.07831 0.0
C1360 C 0.96422 0.03115 0.09983 0.0
C1361 C 0.96902 0.05154 0.11809 0.0
C1362 C 0.98914 0.07129 0.11602 0.0
C1363 C 1.004 0.07053 0.09636 0.0
H1364 H 0.27107 0.64953 0.42989 0.0
H1365 H 0.26268 0.71644 0.47544 0.0
H1366 H 0.27009 0.67318 0.3949 0.0
H1367 H 0.26015 0.73986 0.4403 0.0
H1368 H 0.27497 0.78068 0.37204 0.0
H1369 H 0.27935 0.75954 0.40857 0.0
H1370 H 0.24187 0.68797 0.37122 0.0
H1371 H 0.23903 0.70881 0.33478 0.0
C1372 C 0.26898 0.66934 0.43236 0.0
C1373 C 0.26689 0.68113 0.45532 0.0
C1374 C 0.26815 0.68289 0.41229 0.0
C1375 C 0.26452 0.70838 0.4146 0.0
C1376 C 0.26316 0.72038 0.43775 0.0
C1377 C 0.26455 0.70695 0.45792 0.0
C1378 C 0.26757 0.76048 0.37189 0.0
C1379 C 0.25678 0.74628 0.35071 0.0
C1380 C 0.27003 0.74833 0.39277 0.0
C1381 C 0.26133 0.72187 0.39285 0.0
C1382 C 0.24956 0.70813 0.37175 0.0
C1383 C 0.24762 0.72012 0.35089 0.0
H1384 H 0.55727 0.97473 0.70284 0.0
H1385 H 0.61936 0.00311 0.66284 0.0
H1386 H 0.53093 0.96862 0.66625 0.0
H1387 H 0.59287 0.99662 0.62612 0.0
H1388 H 0.53775 0.9709 0.56185 0.0
H1389 H 0.56241 0.96329 0.5969 0.0
H1390 H 0.52008 0.00517 0.64298 0.0
H1391 H 0.49652 0.01382 0.60784 0.0
C1392 C 0.56544 0.97903 0.68615 0.0
C1393 C 0.59036 0.98977 0.68578 0.0
C1394 C 0.5503 0.97558 0.66524 0.0
C1395 C 0.55983 0.98242 0.64349 0.0
C1396 C 0.58509 0.9911 0.64268 0.0
C1397 C 0.60023 0.99487 0.6637 0.0
C1398 C 0.53396 0.97853 0.57953 0.0
C1399 C 0.51591 0.99352 0.58233 0.0
C1400 C 0.54781 0.97396 0.5995 0.0
C1401 C 0.54323 0.98379 0.62258 0.0
C1402 C 0.52387 0.99721 0.6254 0.0
C1403 C 0.51039 1.00215 0.60539 0.0
H1404 H 0.26219 0.40284 0.93975 0.0
H1405 H 0.28447 0.33926 0.97138 0.0
H1406 H 0.26149 0.38017 0.89992 0.0
H1407 H 0.28414 0.3167 0.93126 0.0
H1408 H 0.30888 0.30373 0.8513 0.0
H1409 H 0.30877 0.32394 0.89239 0.0
H1410 H 0.23676 0.33933 0.87694 0.0
H1411 H 0.2366 0.31904 0.83635 0.0
C1412 C 0.26676 0.38394 0.93824 0.0
C1413 C 0.27319 0.37282 0.95884 0.0
C1414 C 0.26637 0.37094 0.91538 0.0
C1415 C 0.27285 0.34668 0.91241 0.0
C1416 C 0.27922 0.33545 0.93296 0.0
C1417 C 0.27914 0.34826 0.95594 0.0
C1418 C 0.29301 0.31135 0.85671 0.0
C1419 C 0.27277 0.3097 0.84043 0.0
C1420 C 0.29289 0.32279 0.88028 0.0
C1421 C 0.27275 0.33328 0.88789 0.0
C1422 C 0.25259 0.33159 0.87161 0.0
C1423 C 0.25252 0.31981 0.84832 0.0
H1424 H 0.93683 0.02906 0.29999 0.0
H1425 H 0.86743 0.01302 0.33232 0.0
H1426 H 0.95756 0.02234 0.33758 0.0
H1427 H 0.88793 0.00568 0.36927 0.0
H1428 H 0.93374 0.02084 0.43998 0.0
H1429 H 0.91336 0.02717 0.40244 0.0
H1430 H 0.96365 0.98907 0.36309 0.0
H1431 H 0.98452 0.98331 0.40104 0.0
C1432 C 0.92599 0.02434 0.31509 0.0
C1433 C 0.9004 0.02178 0.31299 0.0
C1434 C 0.93786 0.02015 0.33659 0.0
C1435 C 0.92447 0.01334 0.35656 0.0
C1436 C 0.89896 0.0112 0.35449 0.0
C1437 C 0.88715 0.01539 0.33313 0.0
C1438 C 0.94028 0.01348 0.42334 0.0
C1439 C 0.96068 1.00145 0.42351 0.0
C1440 C 0.92855 0.0171 0.40173 0.0
C1441 C 0.93684 0.00875 0.37957 0.0
C1442 C 0.95695 0.99611 0.37975 0.0
C1443 C 0.96872 0.99247 0.40149 0.0
H1444 H 0.30385 0.73519 0.57801 0.0
H1445 H 0.28885 0.66455 0.61125 0.0
H1446 H 0.30712 0.75936 0.61747 0.0
H1447 H 0.29265 0.68883 0.65077 0.0
H1448 H 0.32637 0.74476 0.71719 0.0
H1449 H 0.3262 0.72119 0.67783 0.0
H1450 H 0.27415 0.76346 0.64975 0.0
H1451 H 0.274 0.78687 0.68947 0.0
C1452 C 0.30179 0.72481 0.59376 0.0
C1453 C 0.29612 0.69795 0.59155 0.0
C1454 C 0.30341 0.73867 0.61629 0.0
C1455 C 0.2999 0.72593 0.63707 0.0
C1456 C 0.29544 0.69908 0.63499 0.0
C1457 C 0.29333 0.68521 0.61241 0.0
C1458 C 0.31498 0.74913 0.70259 0.0
C1459 C 0.30017 0.76762 0.70629 0.0
C1460 C 0.31481 0.73554 0.68013 0.0
C1461 C 0.30024 0.74059 0.6608 0.0
C1462 C 0.28569 0.75937 0.66438 0.0
C1463 C 0.28547 0.77262 0.68704 0.0
H1464 H 0.57707 1.00228 0.80178 0.0
H1465 H 0.63039 0.06124 0.84215 0.0
H1466 H 0.55072 1.00144 0.83543 0.0
H1467 H 0.60385 0.06036 0.87571 0.0
H1468 H 0.53893 0.06961 0.92064 0.0
H1469 H 0.56159 0.07098 0.88418 0.0
H1470 H 0.55372 0.98876 0.87827 0.0
H1471 H 0.53127 0.9874 0.91478 0.0
C1472 C 0.58317 0.01508 0.8178 0.0
C1473 C 0.60585 0.03184 0.81929 0.0
C1474 C 0.56808 0.01454 0.83704 0.0
C1475 C 0.57522 0.03095 0.85802 0.0
C1476 C 0.59782 0.04775 0.85956 0.0
C1477 C 0.61308 0.04808 0.84043 0.0
C1478 C 0.54166 0.05183 0.91126 0.0
C1479 C 0.53344 0.0284 0.92043 0.0
C1480 C 0.55478 0.05264 0.89059 0.0
C1481 C 0.55953 0.03 0.87862 0.0
C1482 C 0.55019 0.00647 0.88713 0.0
C1483 C 0.53737 0.00569 0.90798 0.0
H1484 H 0.27364 0.38922 0.12015 0.0
H1485 H 0.25161 0.31758 0.07634 0.0
H1486 H 0.26906 0.36679 0.15621 0.0
H1487 H 0.24797 0.29494 0.11224 0.0
H1488 H 0.22687 0.26069 0.18167 0.0
H1489 H 0.22691 0.28449 0.14632 0.0
H1490 H 0.28737 0.34064 0.17941 0.0
H1491 H 0.28657 0.31739 0.21479 0.0
C1492 C 0.26779 0.36866 0.11819 0.0
C1493 C 0.26301 0.35529 0.09524 0.0
C1494 C 0.26536 0.35566 0.13895 0.0
C1495 C 0.2583 0.32881 0.13746 0.0
C1496 C 0.2531 0.31556 0.11441 0.0
C1497 C 0.25533 0.32859 0.09368 0.0
C1498 C 0.24001 0.27824 0.1814 0.0
C1499 C 0.25667 0.28709 0.20112 0.0
C1500 C 0.2402 0.29187 0.16101 0.0
C1501 C 0.2572 0.31468 0.15967 0.0
C1502 C 0.27367 0.32354 0.17965 0.0
C1503 C 0.27334 0.31004 0.20003 0.0
H1504 H 0.21657 0.97474 0.96448 0.0
H1505 H 0.18931 0.92542 0.0183 0.0
H1506 H 0.18695 1.0014 0.97398 0.0
H1507 H 0.15876 0.95206 0.02732 0.0
H1508 H 0.12234 0.01988 0.05231 0.0
H1509 H 0.15515 0.99553 0.04511 0.0
H1510 H 0.14386 0.99898 0.96884 0.0
H1511 H 0.11189 0.02351 0.97606 0.0
C1512 C 0.20404 0.96933 0.97818 0.0
C1513 C 0.20533 0.94778 0.99057 0.0
C1514 C 0.18698 0.9847 0.9836 0.0
C1515 C 0.17052 0.97892 1.00144 0.0
C1516 C 0.17146 0.9572 0.01369 0.0
C1517 C 0.18869 0.94173 0.00829 0.0
C1518 C 0.12746 0.01599 0.03412 0.0
C1519 C 0.11478 0.02368 0.01475 0.0
C1520 C 0.1459 1.00172 0.02996 0.0
C1521 C 0.15196 0.99514 0.00639 0.0
C1522 C 0.13987 0.00389 0.98721 0.0
C1523 C 0.12154 0.018 0.99135 0.0
H1524 H 0.71343 0.59969 0.01095 0.0
H1525 H 0.68468 0.65626 0.97416 0.0
H1526 H 0.67275 0.57363 0.01008 0.0
H1527 H 0.64351 0.63103 0.97431 0.0
H1528 H 0.57748 0.56866 0.95472 0.0
H1529 H 0.61828 0.59417 0.9562 0.0
H1530 H 0.63414 0.56826 0.02503 0.0
H1531 H 0.59367 0.54125 0.02246 0.0
C1532 C 0.69828 0.60642 1.00252 0.0
C1533 C 0.70225 0.62935 0.99164 0.0
C1534 C 0.67484 0.59172 1.0024 0.0
C1535 C 0.65462 0.59992 0.99187 0.0
C1536 C 0.6586 0.62361 0.98197 0.0
C1537 C 0.68214 0.63821 0.98199 0.0
C1538 C 0.58972 0.56832 0.97015 0.0
C1539 C 0.58223 0.55313 0.98866 0.0
C1540 C 0.61312 0.58324 0.97114 0.0
C1541 C 0.62965 0.58373 0.99089 0.0
C1542 C 0.62212 0.56834 0.0094 0.0
C1543 C 0.59876 0.55307 0.00817 0.0
H1544 H 0.65296 0.43365 0.27094 0.0
H1545 H 0.72106 0.47202 0.30751 0.0
H1546 H 0.67032 0.39476 0.26374 0.0
H1547 H 0.7386 0.43453 0.29917 0.0
H1548 H 0.75908 0.35803 0.30406 0.0
H1549 H 0.7395 0.39481 0.31072 0.0
H1550 H 0.69777 0.37327 0.243 0.0
H1551 H 0.71661 0.33548 0.23705 0.0
C1552 C 0.67162 0.43391 0.27727 0.0
C1553 C 0.68539 0.45604 0.29004 0.0
C1554 C 0.6817 0.41164 0.27302 0.0
C1555 C 0.70593 0.41111 0.28112 0.0
C1556 C 0.71971 0.43356 0.29327 0.0
C1557 C 0.70958 0.45541 0.29788 0.0
C1558 C 0.74592 0.36124 0.29044 0.0
C1559 C 0.73975 0.34392 0.26985 0.0
C1560 C 0.73463 0.38251 0.29421 0.0
C1561 C 0.7171 0.38754 0.27727 0.0
C1562 C 0.71091 0.37012 0.25663 0.0
C1563 C 0.72195 0.34852 0.25307 0.0
H1564 H 0.81474 0.45445 0.52126 0.0
H1565 H 0.82983 0.39588 0.46909 0.0
H1566 H 0.85784 0.47362 0.52552 0.0
H1567 H 0.87355 0.415 0.47348 0.0
H1568 H 0.94159 0.48035 0.46793 0.0
H1569 H 0.8997 0.45653 0.46387 0.0
H1570 H 0.89641 0.46339 0.54092 0.0
H1571 H 0.93784 0.48739 0.54511 0.0
C1572 C 0.82745 0.44574 0.5107 0.0
C1573 C 0.8192 0.42429 0.49433 0.0
C1574 C 0.85209 0.4565 0.51333 0.0
C1575 C 0.86897 0.4458 0.49977 0.0
C1576 C 0.86079 0.42373 0.48391 0.0
C1577 C 0.83598 0.41279 0.48145 0.0
C1578 C 0.93194 0.47672 0.484 0.0
C1579 C 0.94296 0.48603 0.50683 0.0
C1580 C 0.90807 0.46291 0.48165 0.0
C1581 C 0.89488 0.45825 0.50208 0.0
C1582 C 0.9061 0.46702 0.52487 0.0
C1583 C 0.92985 0.48079 0.52723 0.0
H1584 H 0.38496 0.09775 0.26271 0.0
H1585 H 0.34271 0.0814 0.32431 0.0
H1586 H 0.35944 0.12884 0.2529 0.0
H1587 H 0.31723 0.1113 0.31412 0.0
H1588 H 0.29774 0.18867 0.30779 0.0
H1589 H 0.32271 0.15717 0.3149 0.0
H1590 H 0.31548 0.13067 0.23942 0.0
H1591 H 0.29059 0.16321 0.23213 0.0
C1592 C 0.37045 0.1009 0.27421 0.0
C1593 C 0.36598 0.08721 0.29435 0.0
C1594 C 0.35565 0.11836 0.2684 0.0
C1595 C 0.33634 0.12241 0.28274 0.0
C1596 C 0.33211 0.10881 0.30287 0.0
C1597 C 0.34677 0.09159 0.30867 0.0
C1598 C 0.30118 0.17593 0.2927 0.0
C1599 C 0.29216 0.17819 0.26943 0.0
C1600 C 0.3155 0.15787 0.29678 0.0
C1601 C 0.32106 0.14147 0.27772 0.0
C1602 C 0.31163 0.14329 0.25439 0.0
C1603 C 0.29714 0.16154 0.25027 0.0
H1604 H 0.30788 0.08427 0.47265 0.0
H1605 H 0.33859 0.15043 0.52164 0.0
H1606 H 0.34334 0.06545 0.48055 0.0
H1607 H 0.3746 0.13119 0.52948 0.0
H1608 H 0.44542 0.09733 0.514 0.0
H1609 H 0.41036 0.11825 0.50828 0.0
H1610 H 0.36174 0.04674 0.51416 0.0
H1611 H 0.39691 0.02583 0.51996 0.0
C1612 C 0.32223 0.095 0.48507 0.0
C1613 C 0.32015 0.11905 0.4965 0.0
C1614 C 0.34258 0.08395 0.48974 0.0
C1615 C 0.36174 0.0966 0.50584 0.0
C1616 C 0.36014 0.12093 0.51693 0.0
C1617 C 0.33949 0.13197 0.51244 0.0
C1618 C 0.42723 0.08608 0.51414 0.0
C1619 C 0.42391 0.05987 0.51731 0.0
C1620 C 0.40714 0.09815 0.51104 0.0
C1621 C 0.38321 0.08422 0.51071 0.0
C1622 C 0.37993 0.058 0.51409 0.0
C1623 C 0.40005 0.046 0.51747 0.0
H1624 H 0.70696 0.57415 0.28155 0.0
H1625 H 0.64891 0.60591 0.31391 0.0
H1626 H 0.73124 0.61698 0.2815 0.0
H1627 H 0.67287 0.6493 0.31259 0.0
H1628 H 0.77435 0.6977 0.31283 0.0
H1629 H 0.74854 0.65694 0.31899 0.0
H1630 H 0.69238 0.67291 0.27063 0.0
H1631 H 0.71871 0.71306 0.26327 0.0
C1632 C 0.69965 0.59032 0.28916 0.0
C1633 C 0.67659 0.58673 0.29878 0.0
C1634 C 0.71343 0.61479 0.2889 0.0
C1635 C 0.70401 0.63628 0.29734 0.0
C1636 C 0.68057 0.63289 0.30624 0.0
C1637 C 0.66694 0.60822 0.307 0.0
C1638 C 0.75641 0.69266 0.30368 0.0
C1639 C 0.74846 0.70869 0.28772 0.0
C1640 C 0.74165 0.6694 0.30731 0.0
C1641 C 0.71841 0.66206 0.29555 0.0
C1642 C 0.71008 0.67842 0.28021 0.0
C1643 C 0.72511 0.70139 0.27607 0.0
H1644 H 0.9101 0.46385 0.8173 0.0
H1645 H 0.86166 0.49119 0.76799 0.0
H1646 H 0.88547 0.42052 0.80961 0.0
H1647 H 0.83701 0.44865 0.76063 0.0
H1648 H 0.81071 0.36596 0.73522 0.0
H1649 H 0.83895 0.40656 0.74191 0.0
H1650 H 0.84375 0.39864 0.81787 0.0
H1651 H 0.81581 0.35769 0.81122 0.0
C1652 C 0.89423 0.46047 0.80485 0.0
C1653 C 0.88725 0.48066 0.79367 0.0
C1654 C 0.88013 0.43588 0.80052 0.0
C1655 C 0.85931 0.43127 0.78454 0.0
C1656 C 0.85308 0.45149 0.77278 0.0
C1657 C 0.86699 0.47588 0.77721 0.0
C1658 C 0.81771 0.37284 0.75337 0.0
C1659 C 0.81085 0.35866 0.77269 0.0
C1660 C 0.83391 0.39611 0.75719 0.0
C1661 C 0.84352 0.40575 0.78042 0.0
C1662 C 0.83686 0.39151 0.79975 0.0
C1663 C 0.82065 0.36819 0.79593 0.0
H1664 H 0.05806 0.85769 0.10619 0.0
H1665 H 0.97941 0.84155 0.10138 0.0
H1666 H 0.0578 0.89581 0.08541 0.0
H1667 H 0.97877 0.88061 0.08231 0.0
H1668 H 0.98281 0.93589 0.02576 0.0
H1669 H 0.98411 0.89811 0.0468 0.0
H1670 H 0.05148 0.93666 0.08509 0.0
H1671 H 0.05091 0.97333 0.06274 0.0
C1672 C 0.04071 0.86287 0.10137 0.0
C1673 C 0.01877 0.84685 0.10544 0.0
C1674 C 0.04047 0.88476 0.08942 0.0
C1675 C 0.01822 0.89144 0.08178 0.0
C1676 C 0.99629 0.87589 0.08711 0.0
C1677 C 0.99659 0.85368 0.09843 0.0
C1678 C 0.998 0.93604 0.03848 0.0
C1679 C 0.01684 0.95744 0.04241 0.0
C1680 C 0.99866 0.9145 0.05085 0.0
C1681 C 0.01784 0.91414 0.06799 0.0
C1682 C 0.03665 0.93573 0.0718 0.0
C1683 C 0.03629 0.95693 0.05898 0.0
H1684 H 0.90672 0.26251 0.87855 0.0
H1685 H 0.93557 0.22678 0.81713 0.0
H1686 H 0.86725 0.25769 0.85671 0.0
H1687 H 0.89707 0.22371 0.7943 0.0
H1688 H 0.82683 0.22378 0.75321 0.0
H1689 H 0.85799 0.21331 0.78058 0.0
H1690 H 0.85019 0.27814 0.82982 0.0
H1691 H 0.81848 0.28706 0.80345 0.0
C1692 C 0.90454 0.25371 0.86025 0.0
C1693 C 0.92446 0.24645 0.84894 0.0
C1694 C 0.88197 0.25117 0.8475 0.0
C1695 C 0.87894 0.24158 0.82303 0.0
C1696 C 0.89832 0.23158 0.81282 0.0
C1697 C 0.92072 0.23379 0.82576 0.0
C1698 C 0.83168 0.23543 0.7701 0.0
C1699 C 0.82037 0.25637 0.77604 0.0
C1700 C 0.84971 0.2296 0.78584 0.0
C1701 C 0.85716 0.24489 0.80769 0.0
C1702 C 0.845 0.2653 0.8137 0.0
C1703 C 0.82685 0.27079 0.79825 0.0
H1704 H 0.51755 0.20704 0.65391 0.0
H1705 H 0.55573 0.23613 0.59399 0.0
H1706 H 0.51917 0.16326 0.63775 0.0
H1707 H 0.55724 0.19253 0.57759 0.0
H1708 H 0.5691 0.11043 0.56173 0.0
H1709 H 0.57362 0.15314 0.58343 0.0
H1710 H 0.49883 0.13555 0.60299 0.0
H1711 H 0.49429 0.09348 0.58135 0.0
C1712 C 0.5263 0.20397 0.63729 0.0
C1713 C 0.53566 0.22469 0.62465 0.0
C1714 C 0.52725 0.17899 0.62802 0.0
C1715 C 0.53812 0.17437 0.60623 0.0
C1716 C 0.54885 0.19537 0.59444 0.0
C1717 C 0.54766 0.22028 0.60361 0.0
C1718 C 0.55378 0.11568 0.57092 0.0
C1719 C 0.53131 0.09867 0.56967 0.0
C1720 C 0.55629 0.14015 0.5832 0.0
C1721 C 0.53652 0.14782 0.59484 0.0
C1722 C 0.51444 0.13032 0.59434 0.0
C1723 C 0.51182 0.10619 0.58178 0.0
H1724 H 0.55159 0.80681 0.31073 0.0
H1725 H 0.56765 0.7589 0.36526 0.0
H1726 H 0.59022 0.80435 0.29371 0.0
H1727 H 0.60723 0.75717 0.34843 0.0
H1728 H 0.66276 0.73613 0.29435 0.0
H1729 H 0.62456 0.73885 0.31352 0.0
H1730 H 0.63274 0.8182 0.29988 0.0
H1731 H 0.67027 0.81511 0.28013 0.0
C1732 C 0.56352 0.79602 0.31941 0.0
C1733 C 0.55633 0.78301 0.33946 0.0
C1734 C 0.58589 0.79474 0.30962 0.0
C1735 C 0.60198 0.78057 0.31962 0.0
C1736 C 0.59516 0.76801 0.34005 0.0
C1737 C 0.57258 0.76923 0.34988 0.0
C1738 C 0.65617 0.75403 0.29525 0.0
C1739 C 0.66931 0.77532 0.2855 0.0
C1740 C 0.63445 0.75571 0.30651 0.0
C1741 C 0.62548 0.77876 0.30832 0.0
C1742 C 0.63879 0.80001 0.29852 0.0
C1743 C 0.66036 0.79828 0.28718 0.0
H1744 H 0.05743 0.23144 0.46014 0.0
H1745 H 1.00242 0.1922 0.40668 0.0
H1746 H 0.05526 0.1925 0.48014 0.0
H1747 H 0.99919 0.1536 0.42727 0.0
H1748 H 0.01528 0.08111 0.45332 0.0
H1749 H 0.01876 0.12037 0.43444 0.0
H1750 H 0.033 0.16374 0.50398 0.0
H1751 H 0.03066 0.12381 0.52294 0.0
C1752 C 0.04474 0.21448 0.45273 0.0
C1753 C 0.03023 0.21486 0.43168 0.0
C1754 C 0.04332 0.19214 0.46436 0.0
C1755 C 0.02708 0.16963 0.45545 0.0
C1756 C 0.01236 0.17024 0.43449 0.0
C1757 C 0.01409 0.19246 0.42266 0.0
C1758 C 0.01902 0.09898 0.46472 0.0
C1759 C 0.02235 0.09924 0.48975 0.0
C1760 C 0.02089 0.12166 0.4538 0.0
C1761 C 0.02577 0.1455 0.46754 0.0
C1762 C 0.0294 0.14584 0.49267 0.0
C1763 C 0.02793 0.12295 0.50364 0.0
H1764 H 0.56233 0.28281 0.18683 0.0
H1765 H 0.58163 0.25826 0.11587 0.0
H1766 H 0.60021 0.27338 0.2038 0.0
H1767 H 0.61992 0.24908 0.13303 0.0
H1768 H 0.69716 0.26639 0.17734 0.0
H1769 H 0.65975 0.27277 0.15623 0.0
H1770 H 0.61685 0.2324 0.20798 0.0
H1771 H 0.65421 0.22583 0.22894 0.0
C1772 C 0.57481 0.27574 0.17478 0.0
C1773 C 0.56891 0.2713 0.14996 0.0
C1774 C 0.59641 0.27007 0.18457 0.0
C1775 C 0.61286 0.26011 0.1698 0.0
C1776 C 0.60754 0.25667 0.14486 0.0
C1777 C 0.58567 0.26201 0.13504 0.0
C1778 C 0.6797 0.25836 0.18386 0.0
C1779 C 0.67859 0.24564 0.2048 0.0
C1780 C 0.6583 0.26205 0.17179 0.0
C1781 C 0.6354 0.25342 0.18065 0.0
C1782 C 0.63427 0.23959 0.20093 0.0
C1783 C 0.65564 0.2356 0.21279 0.0
H1784 H 0.5528 0.83879 0.95373 0.0
H1785 H 0.54477 0.88192 0.89309 0.0
H1786 H 0.55448 0.87745 0.98087 0.0
H1787 H 0.54665 0.92039 0.92026 0.0
H1788 H 0.50785 0.96583 0.97564 0.0
H1789 H 0.51562 0.93089 0.94827 0.0
H1790 H 0.57686 0.92269 0.99468 0.0
H1791 H 0.56932 0.9586 0.02217 0.0
C1792 C 0.55188 0.85655 0.94612 0.0
C1793 C 0.54826 0.85707 0.92117 0.0
C1794 C 0.55298 0.87874 0.96172 0.0
C1795 C 0.55036 0.90187 0.95271 0.0
C1796 C 0.54833 0.90274 0.92775 0.0
C1797 C 0.54734 0.88065 0.91216 0.0
C1798 C 0.52336 0.95706 0.97981 0.0
C1799 C 0.53827 0.9653 1.00083 0.0
C1800 C 0.52779 0.93696 0.96409 0.0
C1801 C 0.54705 0.92422 0.96913 0.0
C1802 C 0.56193 0.93222 0.99031 0.0
C1803 C 0.55764 0.95273 0.006 0.0
H1804 H 0.96678 0.82464 0.7058 0.0
H1805 H 0.9313 0.7578 0.66007 0.0
H1806 H 0.92979 0.82398 0.72758 0.0
H1807 H 0.89425 0.7573 0.68185 0.0
H1808 H 0.84224 0.74688 0.74249 0.0
H1809 H 0.88006 0.74873 0.722 0.0
H1810 H 0.88713 0.83054 0.72254 0.0
H1811 H 0.84922 0.82879 0.74318 0.0
C1812 C 0.95107 0.80987 0.70024 0.0
C1813 C 0.95216 0.79125 0.68109 0.0
C1814 C 0.92979 0.80958 0.71273 0.0
C1815 C 0.90904 0.79052 0.7066 0.0
C1816 C 0.91 0.77207 0.68729 0.0
C1817 C 0.93121 0.77249 0.67464 0.0
C1818 C 0.85195 0.76537 0.73856 0.0
C1819 C 0.84257 0.78772 0.74458 0.0
C1820 C 0.87356 0.76636 0.72654 0.0
C1821 C 0.88655 0.78973 0.72035 0.0
C1822 C 0.87767 0.81221 0.72711 0.0
C1823 C 0.8559 0.81121 0.73897 0.0
H1824 H 0.14473 0.02602 0.88798 0.0
H1825 H 0.08528 0.99924 0.83476 0.0
H1826 H 0.11601 0.0235 0.91944 0.0
H1827 H 0.05636 0.99675 0.86665 0.0
H1828 H 0.01624 0.97496 0.93705 0.0
H1829 H 0.04371 0.97377 0.90386 0.0
H1830 H 0.08394 0.04806 0.9315 0.0
H1831 H 0.05648 0.04948 0.9639 0.0
C1832 C 0.12555 0.01941 0.88289 0.0
C1833 C 0.11747 0.01296 0.85861 0.0
C1834 C 0.109 0.0181 0.90105 0.0
C1835 C 0.08379 0.01014 0.89563 0.0
C1836 C 0.07565 0.00287 0.87148 0.0
C1837 C 0.09226 0.00441 0.85318 0.0
C1838 C 0.03096 0.99099 0.93595 0.0
C1839 C 0.03447 0.01204 0.95348 0.0
C1840 C 0.04665 0.99037 0.91692 0.0
C1841 C 0.06629 0.01068 0.91516 0.0
C1842 C 0.06939 0.03184 0.93251 0.0
C1843 C 0.05362 0.0326 0.9512 0.0
H1844 H 0.7223 0.33908 0.5466 0.0
H1845 H 0.77514 0.40343 0.57937 0.0
H1846 H 0.72767 0.31579 0.58137 0.0
H1847 H 0.78033 0.38018 0.61418 0.0
H1848 H 0.80397 0.32019 0.65887 0.0
H1849 H 0.79802 0.34189 0.62293 0.0
H1850 H 0.71997 0.31768 0.62456 0.0
H1851 H 0.72593 0.29597 0.66013 0.0
C1852 C 0.73477 0.34839 0.56137 0.0
C1853 C 0.74829 0.37308 0.56026 0.0
C1854 C 0.73788 0.33504 0.58125 0.0
C1855 C 0.75465 0.34606 0.60032 0.0
C1856 C 0.76762 0.37103 0.59952 0.0
C1857 C 0.76441 0.38445 0.57972 0.0
C1858 C 0.78563 0.31922 0.65125 0.0
C1859 C 0.76543 0.30643 0.66216 0.0
C1860 C 0.78219 0.33182 0.63089 0.0
C1861 C 0.75851 0.33163 0.62109 0.0
C1862 C 0.73842 0.31802 0.6316 0.0
C1863 C 0.74185 0.30562 0.65197 0.0
H1864 H 0.47316 0.05565 0.3487 0.0
H1865 H 0.4104 0.06606 0.38846 0.0
H1866 H 0.49891 0.0646 0.38575 0.0
H1867 H 0.43633 0.07589 0.42534 0.0
H1868 H 0.54056 0.08165 0.45862 0.0
H1869 H 0.51747 0.09162 0.42332 0.0
H1870 H 0.4528 0.04291 0.44426 0.0
H1871 H 0.47544 0.03285 0.47832 0.0
C1872 C 0.465 0.06065 0.36523 0.0
C1873 C 0.43964 0.05944 0.36582 0.0
C1874 C 0.47983 0.06602 0.38643 0.0
C1875 C 0.46955 0.07048 0.40849 0.0
C1876 C 0.44465 0.07199 0.40863 0.0
C1877 C 0.42979 0.06627 0.38754 0.0
C1878 C 0.5213 0.0736 0.45575 0.0
C1879 C 0.50975 0.05665 0.4713 0.0
C1880 C 0.50813 0.07925 0.43564 0.0
C1881 C 0.48324 0.06831 0.43119 0.0
C1882 C 0.47173 0.05224 0.44741 0.0
C1883 C 0.48482 0.04636 0.46701 0.0
H1884 H 0.77029 0.65537 0.08501 0.0
H1885 H 0.77225 0.73084 0.06253 0.0
H1886 H 0.76687 0.67202 0.12658 0.0
H1887 H 0.76816 0.74735 0.10414 0.0
H1888 H 0.73177 0.75609 0.17904 0.0
H1889 H 0.73425 0.73935 0.13702 0.0
H1890 H 0.79533 0.70518 0.15777 0.0
H1891 H 0.79332 0.72228 0.19929 0.0
C1892 C 0.7701 0.67554 0.08895 0.0
C1893 C 0.77177 0.6918 0.07044 0.0
C1894 C 0.76807 0.68505 0.11276 0.0
C1895 C 0.76705 0.71096 0.11864 0.0
C1896 C 0.76866 0.72725 0.10015 0.0
C1897 C 0.77127 0.71784 0.07637 0.0
C1898 C 0.74557 0.74484 0.1746 0.0
C1899 C 0.76233 0.74053 0.19253 0.0
C1900 C 0.74712 0.73544 0.15055 0.0
C1901 C 0.76503 0.72098 0.14408 0.0
C1902 C 0.78129 0.71614 0.16215 0.0
C1903 C 0.78014 0.72602 0.18595 0.0
H1904 H 0.15574 0.02965 0.70601 0.0
H1905 H 0.08321 0.00383 0.72871 0.0
H1906 H 0.13845 0.03646 0.66679 0.0
H1907 H 0.06594 0.01156 0.69026 0.0
H1908 H 0.04073 0.00312 0.61312 0.0
H1909 H 0.06047 0.99582 0.65026 0.0
H1910 H 0.11592 0.06269 0.6453 0.0
H1911 H 0.09634 0.0693 0.60675 0.0
C1912 C 0.13611 0.02524 0.70259 0.0
C1913 C 0.12089 0.01587 0.72047 0.0
C1914 C 0.12616 0.02947 0.68017 0.0
C1915 C 0.10072 0.02457 0.6751 0.0
C1916 C 0.08562 0.01509 0.69308 0.0
C1917 C 0.09554 0.01066 0.7153 0.0
C1918 C 0.05712 0.01642 0.61986 0.0
C1919 C 0.06679 0.037 0.60703 0.0
C1920 C 0.06843 0.01228 0.64141 0.0
C1921 C 0.08967 0.02884 0.65126 0.0
C1922 C 0.09966 0.0494 0.63829 0.0
C1923 C 0.08837 0.05337 0.6163 0.0
H1924 H 0.72245 0.34679 0.44296 0.0
H1925 H 0.75488 0.40627 0.40032 0.0
H1926 H 0.72007 0.31537 0.40828 0.0
H1927 H 0.75238 0.37475 0.36577 0.0
H1928 H 0.70246 0.27254 0.3311 0.0
H1929 H 0.70065 0.30294 0.366 0.0
H1930 H 0.77542 0.33833 0.35795 0.0
H1931 H 0.7772 0.30801 0.32334 0.0
C1932 C 0.72868 0.35328 0.42614 0.0
C1933 C 0.73919 0.37905 0.42456 0.0
C1934 C 0.72727 0.33525 0.40629 0.0
C1935 C 0.73648 0.3426 0.38455 0.0
C1936 C 0.74563 0.36853 0.38253 0.0
C1937 C 0.74686 0.3866 0.40228 0.0
C1938 C 0.71861 0.28656 0.33709 0.0
C1939 C 0.73999 0.28797 0.32452 0.0
C1940 C 0.71753 0.30397 0.35696 0.0
C1941 C 0.73776 0.3232 0.36438 0.0
C1942 C 0.7594 0.32398 0.35231 0.0
C1943 C 0.76053 0.30643 0.33266 0.0
H1944 H 0.41295 0.01238 0.21053 0.0
H1945 H 0.47555 0.06742 0.24092 0.0
H1946 H 0.43262 0.00888 0.17265 0.0
H1947 H 0.49531 0.06366 0.20312 0.0
H1948 H 0.50983 0.06862 0.12283 0.0
H1949 H 0.49123 0.07335 0.16119 0.0
H1950 H 0.46797 0.99143 0.15762 0.0
H1951 H 0.48638 0.98677 0.11903 0.0
C1952 C 0.43081 0.0239 0.20906 0.0
C1953 C 0.44271 0.04016 0.2287 0.0
C1954 C 0.44217 0.02169 0.18745 0.0
C1955 C 0.46562 0.03577 0.18501 0.0
C1956 C 0.4772 0.05264 0.20443 0.0
C1957 C 0.46588 0.05478 0.22607 0.0
C1958 C 0.50101 0.05161 0.13042 0.0
C1959 C 0.49952 0.02732 0.11805 0.0
C1960 C 0.49038 0.05432 0.15237 0.0
C1961 C 0.47797 0.03278 0.16231 0.0
C1962 C 0.47709 0.0084 0.1502 0.0
C1963 C 0.48781 0.0057 0.12827 0.0
H1964 H 0.77242 0.65603 0.90216 0.0
H1965 H 0.77904 0.72412 0.95136 0.0
H1966 H 0.77644 0.68186 0.86866 0.0
H1967 H 0.78269 0.75021 0.91735 0.0
H1968 H 0.80858 0.7902 0.84959 0.0
H1969 H 0.80777 0.76558 0.88463 0.0
H1970 H 0.75292 0.70632 0.84698 0.0
H1971 H 0.75395 0.73066 0.8123 0.0
C1972 C 0.77476 0.67657 0.90596 0.0
C1973 C 0.77526 0.68781 0.92974 0.0
C1974 C 0.77691 0.69147 0.88655 0.0
C1975 C 0.7796 0.71825 0.89004 0.0
C1976 C 0.78078 0.72968 0.91384 0.0
C1977 C 0.77859 0.71468 0.93341 0.0
C1978 C 0.79649 0.77182 0.8488 0.0
C1979 C 0.78154 0.76232 0.82795 0.0
C1980 C 0.79587 0.75776 0.86898 0.0
C1981 C 0.78038 0.73375 0.86879 0.0
C1982 C 0.76547 0.7244 0.84784 0.0
C1983 C 0.76603 0.73844 0.82782 0.0
H1984 H 0.83126 0.12185 0.05026 0.0
H1985 H 0.82713 0.10643 0.97327 0.0
H1986 H 0.8624 0.09545 0.05341 0.0
H1987 H 0.85936 0.08144 0.97603 0.0
H1988 H 0.90163 0.01937 0.98639 0.0
H1989 H 0.86752 0.04242 0.98623 0.0
H1990 H 0.90232 0.09251 0.04761 0.0
H1991 H 0.93504 0.06852 0.04863 0.0
C1992 C 0.83767 0.11346 0.03399 0.0
C1993 C 0.82707 0.11628 0.01154 0.0
C1994 C 0.85544 0.09821 0.03573 0.0
C1995 C 0.86333 0.08597 0.01497 0.0
C1996 C 0.85331 0.08984 0.99245 0.0
C1997 C 0.83518 0.10456 0.9908 0.0
C1998 C 0.90152 0.0349 1.00013 0.0
C1999 C 0.92095 0.04224 0.0174 0.0
C2000 C 0.88222 0.0484 0.99988 0.0
C2001 C 0.88229 0.06973 0.01666 0.0
C2002 C 0.90133 0.07614 0.03455 0.0
C2003 C 0.92025 0.06241 0.03505 0.0
H2004 H 0.33829 0.44929 0.06403 0.0
H2005 H 0.35647 0.39462 0.00985 0.0
H2006 H 0.37967 0.47392 0.06511 0.0
H2007 H 0.39829 0.41915 0.0109 0.0
H2008 H 0.4596 0.48753 0.99884 0.0
H2009 H 0.41947 0.46005 0.99894 0.0
H2010 H 0.42167 0.47379 0.07612 0.0
H2011 H 0.46155 0.5012 0.07578 0.0
C2012 C 0.35132 0.4425 0.05246 0.0
C2013 C 0.34414 0.42056 0.03637 0.0
C2014 C 0.37511 0.45646 0.0532 0.0
C2015 C 0.39233 0.44874 0.03787 0.0
C2016 C 0.38538 0.42594 0.0226 0.0
C2017 C 0.36155 0.41179 0.02209 0.0
C2018 C 0.45117 0.48518 0.01566 0.0
C2019 C 0.46338 0.49711 0.03717 0.0
C2020 C 0.42834 0.46909 0.01583 0.0
C2021 C 0.4171 0.46489 0.03754 0.0
C2022 C 0.42949 0.47687 0.05903 0.0
C2023 C 0.45238 0.49258 0.05884 0.0
H2024 H 0.36568 0.6061 0.7202 0.0
H2025 H 0.33171 0.58841 0.78596 0.0
H2026 H 0.34745 0.64482 0.72054 0.0
H2027 H 0.31367 0.62647 0.78623 0.0
H2028 H 0.30671 0.70985 0.79395 0.0
H2029 H 0.32668 0.67302 0.79179 0.0
H2030 H 0.30486 0.65693 0.71645 0.0
H2031 H 0.28477 0.69436 0.71856 0.0
C2032 C 0.3547 0.61065 0.73488 0.0
C2033 C 0.35029 0.59419 0.75311 0.0
C2034 C 0.34399 0.63262 0.73492 0.0
C2035 C 0.32902 0.63875 0.75339 0.0
C2036 C 0.32522 0.62254 0.77183 0.0
C2037 C 0.33559 0.60062 0.77164 0.0
C2038 C 0.30597 0.69847 0.77688 0.0
C2039 C 0.29385 0.705 0.75648 0.0
C2040 C 0.31746 0.67726 0.77566 0.0
C2041 C 0.3174 0.66192 0.75397 0.0
C2042 C 0.30541 0.66844 0.73342 0.0
C2043 C 0.29361 0.68967 0.7347 0.0
H2044 H 0.21197 0.61467 0.55237 0.0
H2045 H 0.19171 0.67467 0.51378 0.0
H2046 H 0.16917 0.59679 0.55606 0.0
H2047 H 0.14845 0.6573 0.51795 0.0
H2048 H 0.08231 0.59183 0.49433 0.0
H2049 H 0.12174 0.62011 0.49935 0.0
H2050 H 0.13069 0.60008 0.57176 0.0
H2051 H 0.09089 0.57185 0.5668 0.0
C2052 C 0.19817 0.62411 0.54489 0.0
C2053 C 0.20477 0.64525 0.53192 0.0
C2054 C 0.17367 0.61419 0.54735 0.0
C2055 C 0.15534 0.62545 0.53705 0.0
C2056 C 0.16215 0.6479 0.52565 0.0
C2057 C 0.18677 0.65787 0.52328 0.0
C2058 C 0.09264 0.59352 0.51137 0.0
C2059 C 0.08378 0.57921 0.53 0.0
C2060 C 0.11519 0.60994 0.51433 0.0
C2061 C 0.12962 0.61196 0.53578 0.0
C2062 C 0.1202 0.59856 0.55484 0.0
C2063 C 0.09742 0.58242 0.55202 0.0
H2064 H 0.68505 0.97991 0.80348 0.0
H2065 H 0.66231 0.95611 0.72922 0.0
H2066 H 0.7087 0.94582 0.80407 0.0
H2067 H 0.68712 0.92311 0.72913 0.0
H2068 H 0.7682 0.89887 0.7917 0.0
H2069 H 0.74448 0.93325 0.7911 0.0
H2070 H 0.69025 0.8843 0.74211 0.0
H2071 H 0.71453 0.85129 0.74153 0.0
C2072 C 0.68505 0.9672 0.78732 0.0
C2073 C 0.67168 0.97034 0.76638 0.0
C2074 C 0.6989 0.94793 0.78753 0.0
C2075 C 0.70009 0.93175 0.76661 0.0
C2076 C 0.68634 0.9348 0.74574 0.0
C2077 C 0.67205 0.95369 0.74573 0.0
C2078 C 0.75139 0.89583 0.7806 0.0
C2079 C 0.7433 0.87261 0.76655 0.0
C2080 C 0.73762 0.91532 0.78041 0.0
C2081 C 0.71534 0.91162 0.76653 0.0
C2082 C 0.70749 0.88824 0.75256 0.0
C2083 C 0.72141 0.86916 0.75235 0.0
H2084 H 0.70419 0.92251 0.55867 0.0
H2085 H 0.71039 0.94226 0.486 0.0
H2086 H 0.6685 0.94314 0.5622 0.0
H2087 H 0.6744 0.96177 0.48895 0.0
H2088 H 0.62925 0.02153 0.50815 0.0
H2089 H 0.66359 0.99907 0.50637 0.0
H2090 H 0.62727 0.94414 0.55141 0.0
H2091 H 0.59349 0.96743 0.55396 0.0
C2092 C 0.69746 0.93055 0.54323 0.0
C2093 C 0.71011 0.93079 0.52208 0.0
C2094 C 0.67704 0.94252 0.54523 0.0
C2095 C 0.6687 0.95473 0.52602 0.0
C2096 C 0.68061 0.95343 0.50444 0.0
C2097 C 0.7011 0.94188 0.50259 0.0
C2098 C 0.62876 0.00481 0.51785 0.0
C2099 C 0.60869 0.99627 0.53116 0.0
C2100 C 0.64833 0.99167 0.51664 0.0
C2101 C 0.64821 0.96938 0.52843 0.0
C2102 C 0.62825 0.96123 0.54221 0.0
C2103 C 0.60879 0.97456 0.54362 0.0
H2104 H 0.38925 0.44867 0.75084 0.0
H2105 H 0.32909 0.46783 0.71019 0.0
H2106 H 0.36806 0.40439 0.74912 0.0
H2107 H 0.30691 0.42419 0.70962 0.0
H2108 H 0.26991 0.34278 0.70869 0.0
H2109 H 0.29769 0.3813 0.70009 0.0
H2110 H 0.33759 0.38165 0.76805 0.0
H2111 H 0.31081 0.34263 0.7756 0.0
C2112 C 0.37136 0.44329 0.74161 0.0
C2113 C 0.3601 0.46176 0.73182 0.0
C2114 C 0.35905 0.41795 0.74075 0.0
C2115 C 0.33517 0.41057 0.73007 0.0
C2116 C 0.3251 0.42879 0.71819 0.0
C2117 C 0.33757 0.45405 0.71889 0.0
C2118 C 0.28488 0.35105 0.72154 0.0
C2119 C 0.28815 0.33982 0.74283 0.0
C2120 C 0.30078 0.37327 0.71675 0.0
C2121 C 0.32004 0.38505 0.73339 0.0
C2122 C 0.3235 0.37317 0.75441 0.0
C2123 C 0.30789 0.35081 0.75896 0.0
H2124 H 0.17263 0.57574 0.21365 0.0
H2125 H 0.11436 0.60127 0.25135 0.0
H2126 H 0.19117 0.61958 0.20934 0.0
H2127 H 0.13226 0.64571 0.24625 0.0
H2128 H 0.19621 0.71229 0.27304 0.0
H2129 H 0.16593 0.6735 0.26518 0.0
H2130 H 0.19379 0.65954 0.19538 0.0
H2131 H 0.22408 0.6988 0.20331 0.0
C2132 C 0.16362 0.59095 0.22065 0.0
C2133 C 0.14284 0.58554 0.23376 0.0
C2134 C 0.17396 0.61612 0.2178 0.0
C2135 C 0.1635 0.63639 0.22783 0.0
C2136 C 0.14118 0.63063 0.23888 0.0
C2137 C 0.13086 0.60529 0.24176 0.0
C2138 C 0.19584 0.70093 0.256 0.0
C2139 C 0.213 0.70803 0.23911 0.0
C2140 C 0.17823 0.67879 0.25132 0.0
C2141 C 0.17785 0.66284 0.22994 0.0
C2142 C 0.19402 0.67095 0.21235 0.0
C2143 C 0.21139 0.6934 0.21687 0.0
H2144 H 0.50005 0.72846 0.44586 0.0
H2145 H 0.50693 0.68031 0.38143 0.0
H2146 H 0.50584 0.69419 0.4701 0.0
H2147 H 0.51338 0.64589 0.40613 0.0
H2148 H 0.55118 0.6059 0.46727 0.0
H2149 H 0.54744 0.64064 0.44223 0.0
H2150 H 0.47864 0.6475 0.47207 0.0
H2151 H 0.48199 0.61245 0.49655 0.0
C2152 C 0.50299 0.71059 0.43684 0.0
C2153 C 0.503 0.70709 0.41167 0.0
C2154 C 0.50624 0.69096 0.45079 0.0
C2155 C 0.51009 0.66747 0.44 0.0
C2156 C 0.51058 0.66395 0.41486 0.0
C2157 C 0.50677 0.68353 0.40076 0.0
C2158 C 0.53546 0.61512 0.46873 0.0
C2159 C 0.51698 0.60666 0.48404 0.0
C2160 C 0.53319 0.63472 0.45419 0.0
C2161 C 0.51269 0.64658 0.45514 0.0
C2162 C 0.49463 0.63865 0.471 0.0
C2163 C 0.4966 0.6187 0.48507 0.0
H2164 H 0.62392 0.30787 0.64201 0.0
H2165 H 0.59228 0.33397 0.70645 0.0
H2166 H 0.66296 0.31125 0.66446 0.0
H2167 H 0.63092 0.33646 0.72903 0.0
H2168 H 0.70713 0.34542 0.76419 0.0
H2169 H 0.67349 0.35404 0.73836 0.0
H2170 H 0.67562 0.28492 0.69288 0.0
H2171 H 0.70876 0.27661 0.71835 0.0
C2172 C 0.6254 0.31476 0.66086 0.0
C2173 C 0.6049 0.3203 0.67249 0.0
C2174 C 0.64773 0.31651 0.6738 0.0
C2175 C 0.64999 0.3236 0.6987 0.0
C2176 C 0.62996 0.33103 0.70991 0.0
C2177 C 0.6077 0.32947 0.69693 0.0
C2178 C 0.70046 0.33232 0.7485 0.0
C2179 C 0.7108 0.31058 0.74307 0.0
C2180 C 0.68122 0.33719 0.73372 0.0
C2181 C 0.67196 0.32033 0.71332 0.0
C2182 C 0.68263 0.29876 0.70795 0.0
C2183 C 0.70169 0.29394 0.72264 0.0
H2184 H 0.97927 0.36076 0.87463 0.0
H2185 H 0.99586 0.31715 0.93253 0.0
H2186 H 0.9805 0.39814 0.90348 0.0
H2187 H 0.99665 0.35416 0.96111 0.0
H2188 H 0.02876 0.43393 0.99843 0.0
H2189 H 0.02339 0.39529 0.97104 0.0
H2190 H 0.95899 0.41507 0.93783 0.0
H2191 H 0.9646 0.45427 0.96526 0.0
C2192 C 0.98316 0.3591 0.89344 0.0
C2193 C 0.98769 0.33594 0.90115 0.0
C2194 C 0.98361 0.38045 0.91001 0.0
C2195 C 0.98871 0.37914 0.93461 0.0
C2196 C 0.99296 0.35593 0.94228 0.0
C2197 C 0.99245 0.33465 0.92582 0.0
C2198 C 0.01324 0.42995 0.98552 0.0
C2199 C 0.99712 0.44722 0.98404 0.0
C2200 C 0.01012 0.4077 0.96983 0.0
C2201 C 0.99083 0.40213 0.95215 0.0
C2202 C 0.9742 0.41898 0.95109 0.0
C2203 C 0.97723 0.44126 0.96699 0.0
H2204 H 0.93539 0.77247 0.1391 0.0
H2205 H 0.98684 0.77484 0.19942 0.0
H2206 H 0.90292 0.77477 0.16656 0.0
H2207 H 0.95412 0.77692 0.22686 0.0
H2208 H 0.87766 0.75029 0.26118 0.0
H2209 H 0.913 0.74861 0.23675 0.0
H2210 H 0.89474 0.80962 0.1981 0.0
H2211 H 0.85985 0.81153 0.2225 0.0
C2212 C 0.93977 0.77329 0.15819 0.0
C2213 C 0.96377 0.7736 0.16704 0.0
C2214 C 0.92119 0.77477 0.17391 0.0
C2215 C 0.92607 0.77623 0.19883 0.0
C2216 C 0.94987 0.77578 0.20773 0.0
C2217 C 0.96858 0.77469 0.192 0.0
C2218 C 0.88154 0.76364 0.24777 0.0
C2219 C 0.866 0.78096 0.24366 0.0
C2220 C 0.90168 0.76265 0.2338 0.0
C2221 C 0.90634 0.77873 0.21532 0.0
C2222 C 0.89134 0.79672 0.21196 0.0
C2223 C 0.87148 0.79793 0.22605 0.0
H2224 H 0.46084 0.33563 0.07685 0.0
H2225 H 0.53713 0.34011 0.0969 0.0
H2226 H 0.47066 0.37424 0.05673 0.0
H2227 H 0.54725 0.37848 0.07586 0.0
H2228 H 0.55229 0.46136 0.05712 0.0
H2229 H 0.54512 0.42204 0.07625 0.0
H2230 H 0.48783 0.38984 0.02214 0.0
H2231 H 0.49428 0.4299 1.00352 0.0
C2232 C 0.47978 0.34493 0.07699 0.0
C2233 C 0.49821 0.33479 0.08855 0.0
C2234 C 0.48547 0.36696 0.06513 0.0
C2235 C 0.50982 0.37939 0.06419 0.0
C2236 C 0.52825 0.3696 0.07629 0.0
C2237 C 0.52249 0.34762 0.08845 0.0
C2238 C 0.53832 0.44584 0.04902 0.0
C2239 C 0.52373 0.44899 0.02878 0.0
C2240 C 0.53428 0.42311 0.06003 0.0
C2241 C 0.51566 0.40271 0.05104 0.0
C2242 C 0.50195 0.40534 0.02999 0.0
C2243 C 0.50585 0.42822 0.01906 0.0
H2244 H 0.96216 0.31245 0.40627 0.0
H2245 H 0.9744 0.26392 0.34417 0.0
H2246 H 0.92266 0.31688 0.38769 0.0
H2247 H 0.93525 0.2685 0.32543 0.0
H2248 H 0.8801 0.30792 0.28817 0.0
H2249 H 0.91831 0.30433 0.30901 0.0
H2250 H 0.88088 0.29022 0.37357 0.0
H2251 H 0.84218 0.29304 0.35241 0.0
C2252 C 0.95634 0.30276 0.38864 0.0
C2253 C 0.97165 0.28867 0.37619 0.0
C2254 C 0.93376 0.30522 0.37805 0.0
C2255 C 0.92602 0.29341 0.35491 0.0
C2256 C 0.94092 0.27831 0.34303 0.0
C2257 C 0.96336 0.27576 0.35368 0.0
C2258 C 0.88004 0.30442 0.3069 0.0
C2259 C 0.85818 0.30081 0.31868 0.0
C2260 C 0.90196 0.30223 0.3188 0.0
C2261 C 0.9027 0.29696 0.3429 0.0
C2262 C 0.88095 0.29441 0.35502 0.0
C2263 C 0.85883 0.29604 0.34293 0.0
H2264 H 0.95912 0.71069 0.57414 0.0
H2265 H 0.99972 0.68414 0.63094 0.0
H2266 H 0.95701 0.66991 0.55023 0.0
H2267 H 0.99839 0.64377 0.60679 0.0
H2268 H 0.98611 0.5685 0.56067 0.0
H2269 H 0.97681 0.60411 0.58695 0.0
H2270 H 0.98675 0.65212 0.52864 0.0
H2271 H 0.99568 0.61647 0.50263 0.0
C2272 C 0.9672 0.69597 0.58171 0.0
C2273 C 0.97983 0.70076 0.60431 0.0
C2274 C 0.96621 0.67267 0.56791 0.0
C2275 C 0.97801 0.65371 0.57632 0.0
C2276 C 0.98901 0.65782 0.59972 0.0
C2277 C 0.98983 0.68105 0.61359 0.0
C2278 C 0.98637 0.58673 0.55364 0.0
C2279 C 0.9921 0.58995 0.52985 0.0
C2280 C 0.98093 0.6071 0.5686 0.0
C2281 C 0.98108 0.63109 0.55999 0.0
C2282 C 0.98603 0.63388 0.53585 0.0
C2283 C 0.99135 0.61351 0.52094 0.0
H2284 H 0.60705 0.81909 0.85721 0.0
H2285 H 0.5857 0.73759 0.85805 0.0
H2286 H 0.64217 0.81304 0.8347 0.0
H2287 H 0.62035 0.73113 0.83418 0.0
H2288 H 0.69811 0.73254 0.80541 0.0
H2289 H 0.66314 0.7347 0.83002 0.0
H2290 H 0.64956 0.80041 0.79549 0.0
H2291 H 0.68504 0.7989 0.7721 0.0
C2292 C 0.61013 0.79982 0.85278 0.0
C2293 C 0.59378 0.77884 0.85949 0.0
C2294 C 0.63005 0.79625 0.83947 0.0
C2295 C 0.63386 0.77152 0.83185 0.0
C2296 C 0.61811 0.75046 0.83964 0.0
C2297 C 0.59831 0.75411 0.85344 0.0
C2298 C 0.68725 0.74705 0.80279 0.0
C2299 C 0.69428 0.76557 0.78685 0.0
C2300 C 0.66724 0.7484 0.81698 0.0
C2301 C 0.65374 0.76815 0.81532 0.0
C2302 C 0.65994 0.7855 0.79806 0.0
C2303 C 0.68009 0.78442 0.78429 0.0
H2304 H 0.39197 0.53273 0.65316 0.0
H2305 H 0.45697 0.56722 0.69693 0.0
H2306 H 0.415 0.53718 0.61716 0.0
H2307 H 0.48007 0.57127 0.66107 0.0
H2308 H 0.51241 0.59118 0.59006 0.0
H2309 H 0.48695 0.59204 0.6246 0.0
H2310 H 0.44592 0.51763 0.59812 0.0
H2311 H 0.47119 0.51692 0.56383 0.0
C2312 C 0.41111 0.54148 0.65512 0.0
C2313 C 0.42258 0.54954 0.67801 0.0
C2314 C 0.4244 0.54387 0.63445 0.0
C2315 C 0.44954 0.55442 0.63609 0.0
C2316 C 0.46076 0.56328 0.65897 0.0
C2317 C 0.44749 0.56084 0.67961 0.0
C2318 C 0.49781 0.57514 0.59157 0.0
C2319 C 0.49375 0.55409 0.57407 0.0
C2320 C 0.48326 0.57554 0.61143 0.0
C2321 C 0.46424 0.55491 0.61426 0.0
C2322 C 0.46003 0.53408 0.59646 0.0
C2323 C 0.47461 0.53364 0.57674 0.0
H2324 H 0.78605 0.15601 0.92732 0.0
H2325 H 0.76549 0.21687 0.97318 0.0
H2326 H 0.78601 0.18155 0.89348 0.0
H2327 H 0.76368 0.24183 0.9391 0.0
H2328 H 0.77696 0.2877 0.87414 0.0
H2329 H 0.7828 0.26575 0.90993 0.0
H2330 H 0.75701 0.19297 0.86833 0.0
H2331 H 0.75292 0.21484 0.83281 0.0
C2332 C 0.78154 0.1749 0.93009 0.0
C2333 C 0.77569 0.18447 0.95273 0.0
C2334 C 0.78124 0.18948 0.91069 0.0
C2335 C 0.77427 0.2136 0.91336 0.0
C2336 C 0.76933 0.2235 0.93633 0.0
C2337 C 0.77027 0.20916 0.95587 0.0
C2338 C 0.7725 0.26703 0.87292 0.0
C2339 C 0.76463 0.25286 0.8509 0.0
C2340 C 0.77581 0.25441 0.89333 0.0
C2341 C 0.77079 0.22748 0.89201 0.0
C2342 C 0.76195 0.21361 0.86998 0.0
C2343 C 0.75926 0.22614 0.84963 0.0
H2344 H 0.12535 0.4867 0.16047 0.0
H2345 H 0.05831 0.47415 0.19714 0.0
H2346 H 0.10189 0.48104 0.12211 0.0
H2347 H 0.03489 0.46996 0.15908 0.0
H2348 H 0.99644 0.46605 0.08619 0.0
H2349 H 0.02018 0.45266 0.11911 0.0
H2350 H 0.08128 0.51171 0.1072 0.0
H2351 H 0.05809 0.52438 0.07473 0.0
C2352 C 0.10562 0.48218 0.16029 0.0
C2353 C 0.09366 0.48146 0.18178 0.0
C2354 C 0.09214 0.4791 0.13834 0.0
C2355 C 0.06649 0.47594 0.13756 0.0
C2356 C 0.05457 0.47243 0.15893 0.0
C2357 C 0.06806 0.47498 0.18084 0.0
C2358 C 0.01505 0.47582 0.09059 0.0
C2359 C 0.02543 0.49622 0.07795 0.0
C2360 C 0.02865 0.4682 0.10936 0.0
C2361 C 0.05279 0.48091 0.1157 0.0
C2362 C 0.06309 0.50092 0.10253 0.0
C2363 C 0.04961 0.50844 0.08398 0.0
H2364 H 0.75745 0.83857 0.46858 0.0
H2365 H 0.78971 0.90683 0.43718 0.0
H2366 H 0.75794 0.81353 0.42977 0.0
H2367 H 0.79045 0.88191 0.399 0.0
H2368 H 0.81183 0.82616 0.34087 0.0
H2369 H 0.81211 0.84776 0.38121 0.0
H2370 H 0.73772 0.81021 0.38737 0.0
H2371 H 0.73731 0.78872 0.34699 0.0
C2372 C 0.76464 0.84826 0.45352 0.0
C2373 C 0.77353 0.8748 0.4562 0.0
C2374 C 0.76489 0.83391 0.43127 0.0
C2375 C 0.77445 0.84568 0.41131 0.0
C2376 C 0.78331 0.87214 0.41404 0.0
C2377 C 0.7827 0.88648 0.43603 0.0
C2378 C 0.79561 0.82228 0.35088 0.0
C2379 C 0.77452 0.80577 0.34056 0.0
C2380 C 0.79572 0.83478 0.37398 0.0
C2381 C 0.77489 0.83082 0.38751 0.0
C2382 C 0.75411 0.81359 0.37753 0.0
C2383 C 0.75386 0.80138 0.3543 0.0
H2384 H 0.38182 0.54136 0.83579 0.0
H2385 H 0.43474 0.51053 0.79401 0.0
H2386 H 0.40347 0.53476 0.87256 0.0
H2387 H 0.45555 0.50197 0.83057 0.0
H2388 H 0.5002 0.50733 0.90137 0.0
H2389 H 0.48006 0.515 0.86415 0.0
H2390 H 0.41113 0.5063 0.89806 0.0
H2391 H 0.43198 0.5007 0.9357 0.0
C2392 C 0.39818 0.53319 0.83452 0.0
C2393 C 0.4067 0.52676 0.81199 0.0
C2394 C 0.41049 0.52895 0.85567 0.0
C2395 C 0.43131 0.51737 0.85496 0.0
C2396 C 0.43995 0.51129 0.83225 0.0
C2397 C 0.42799 0.51619 0.81112 0.0
C2398 C 0.48068 0.50676 0.90071 0.0
C2399 C 0.46766 0.50335 0.92144 0.0
C2400 C 0.46898 0.51113 0.87924 0.0
C2401 C 0.44376 0.51163 0.87771 0.0
C2402 C 0.43063 0.50696 0.89838 0.0
C2403 C 0.44249 0.50328 0.91999 0.0
H2404 H 0.75101 0.17948 0.09652 0.0
H2405 H 0.82285 0.22156 0.08656 0.0
H2406 H 0.74924 0.20558 0.13351 0.0
H2407 H 0.82237 0.24651 0.12533 0.0
H2408 H 0.80741 0.29975 0.18943 0.0
H2409 H 0.80768 0.27802 0.14898 0.0
H2410 H 0.76292 0.21048 0.1719 0.0
H2411 H 0.76082 0.23265 0.21042 0.0
C2412 C 0.76683 0.19385 0.10278 0.0
C2413 C 0.78729 0.19814 0.08905 0.0
C2414 C 0.76591 0.20889 0.12413 0.0
C2415 C 0.78589 0.22798 0.13296 0.0
C2416 C 0.80652 0.23222 0.11913 0.0
C2417 C 0.80702 0.21769 0.09713 0.0
C2418 C 0.79723 0.28048 0.18539 0.0
C2419 C 0.78404 0.26798 0.20305 0.0
C2420 C 0.79762 0.26785 0.16237 0.0
C2421 C 0.78522 0.24238 0.15689 0.0
C2422 C 0.77208 0.23024 0.17481 0.0
C2423 C 0.7711 0.24298 0.19726 0.0
H2424 H 0.07657 0.53485 0.29865 0.0
H2425 H 0.13815 0.51494 0.33674 0.0
H2426 H 0.05391 0.5329 0.3349 0.0
H2427 H 0.11509 0.51095 0.37248 0.0
H2428 H 0.08184 0.53655 0.43939 0.0
H2429 H 0.10244 0.5365 0.40237 0.0
H2430 H 0.03317 0.50849 0.36263 0.0
H2431 H 0.01233 0.51046 0.40018 0.0
C2432 C 0.08504 0.52965 0.31477 0.0
C2433 C 0.10912 0.52536 0.31516 0.0
C2434 C 0.07202 0.52829 0.33549 0.0
C2435 C 0.08267 0.52199 0.35681 0.0
C2436 C 0.1065 0.51666 0.3567 0.0
C2437 C 0.11972 0.51876 0.33621 0.0
C2438 C 0.07101 0.53034 0.42272 0.0
C2439 C 0.04556 0.52345 0.42251 0.0
C2440 C 0.08286 0.53005 0.40143 0.0
C2441 C 0.0696 0.52214 0.37937 0.0
C2442 C 0.04398 0.515 0.37922 0.0
C2443 C 0.03202 0.51594 0.40065 0.0
H2444 H 0.7473 0.82256 0.57476 0.0
H2445 H 0.76953 0.89491 0.61742 0.0
H2446 H 0.74388 0.80067 0.61111 0.0
H2447 H 0.76535 0.87317 0.65393 0.0
H2448 H 0.78387 0.82374 0.71273 0.0
H2449 H 0.78428 0.84683 0.67715 0.0
H2450 H 0.7223 0.79171 0.6456 0.0
H2451 H 0.72251 0.76818 0.68108 0.0
C2452 C 0.75114 0.83388 0.59193 0.0
C2453 C 0.75877 0.86056 0.59304 0.0
C2454 C 0.74904 0.82129 0.61291 0.0
C2455 C 0.75439 0.83497 0.63575 0.0
C2456 C 0.76147 0.86178 0.63681 0.0
C2457 C 0.76369 0.87435 0.6158 0.0
C2458 C 0.77023 0.81662 0.69825 0.0
C2459 C 0.75323 0.794 0.69976 0.0
C2460 C 0.77035 0.83 0.6778 0.0
C2461 C 0.75337 0.82127 0.65818 0.0
C2462 C 0.73597 0.79891 0.66001 0.0
C2463 C 0.73593 0.78546 0.68048 0.0
H2464 H 0.69526 0.46396 0.46373 0.0
H2465 H 0.70344 0.44723 0.53716 0.0
H2466 H 0.66519 0.48999 0.47471 0.0
H2467 H 0.67454 0.47469 0.54872 0.0
H2468 H 0.60273 0.50499 0.55525 0.0
H2469 H 0.6344 0.48005 0.54766 0.0
H2470 H 0.66136 0.52914 0.49349 0.0
H2471 H 0.62839 0.55284 0.50007 0.0
C2472 C 0.69048 0.46585 0.48225 0.0
C2473 C 0.70143 0.45346 0.49957 0.0
C2474 C 0.67356 0.48114 0.48869 0.0
C2475 C 0.66769 0.485 0.51275 0.0
C2476 C 0.67834 0.47206 0.52999 0.0
C2477 C 0.69486 0.45623 0.5234 0.0
C2478 C 0.61581 0.51079 0.54213 0.0
C2479 C 0.61313 0.53074 0.52815 0.0
C2480 C 0.63402 0.49644 0.53772 0.0
C2481 C 0.65024 0.50212 0.51956 0.0
C2482 C 0.6487 0.52356 0.50702 0.0
C2483 C 0.63011 0.5375 0.51105 0.0
H2484 H 0.17796 0.15529 0.47811 0.0
H2485 H 0.20753 0.10131 0.51786 0.0
H2486 H 0.13694 0.12952 0.47892 0.0
H2487 H 0.16689 0.07524 0.51839 0.0
H2488 H 0.08691 0.04232 0.52926 0.0
H2489 H 0.12633 0.0719 0.53318 0.0
H2490 H 0.1157 0.08884 0.45998 0.0
H2491 H 0.07646 0.06009 0.45643 0.0
C2492 C 0.1756 0.1379 0.487 0.0
C2493 C 0.19586 0.12973 0.49716 0.0
C2494 C 0.1522 0.12308 0.48744 0.0
C2495 C 0.1486 0.10007 0.49848 0.0
C2496 C 0.16886 0.09283 0.50984 0.0
C2497 C 0.1922 0.10756 0.50925 0.0
C2498 C 0.09299 0.05262 0.51418 0.0
C2499 C 0.07857 0.04898 0.49262 0.0
C2500 C 0.11561 0.06943 0.51632 0.0
C2501 C 0.12416 0.08296 0.49692 0.0
C2502 C 0.10957 0.07923 0.47544 0.0
C2503 C 0.08713 0.06247 0.47333 0.0
H2504 H 0.19691 0.95468 0.83075 0.0
H2505 H 0.17054 0.94888 0.75669 0.0
H2506 H 0.21549 0.9173 0.8225 0.0
H2507 H 0.19011 0.91204 0.74802 0.0
H2508 H 0.26874 0.86717 0.79718 0.0
H2509 H 0.24843 0.90354 0.80505 0.0
H2510 H 0.1911 0.86929 0.75163 0.0
H2511 H 0.21195 0.83374 0.74307 0.0
C2512 C 0.19497 0.94533 0.81266 0.0
C2513 C 0.18211 0.95483 0.79441 0.0
C2514 C 0.20596 0.92398 0.80782 0.0
C2515 C 0.20482 0.9116 0.78446 0.0
C2516 C 0.19131 0.9207 0.76632 0.0
C2517 C 0.17999 0.94191 0.77126 0.0
C2518 C 0.25196 0.86756 0.78691 0.0
C2519 C 0.24224 0.84751 0.7693 0.0
C2520 C 0.24006 0.88835 0.79162 0.0
C2521 C 0.21787 0.88959 0.77909 0.0
C2522 C 0.20827 0.8695 0.76143 0.0
C2523 C 0.22029 0.84891 0.75655 0.0
H2524 H 0.33457 0.89165 0.96978 0.0
H2525 H 0.31407 0.94065 0.02751 0.0
H2526 H 0.37675 0.91383 0.97607 0.0
H2527 H 0.3563 0.96089 0.03615 0.0
H2528 H 0.42575 0.01575 0.02785 0.0
H2529 H 0.38488 0.99046 0.02438 0.0
H2530 H 0.41357 0.92495 0.99447 0.0
H2531 H 0.45394 0.9515 0.99603 0.0
C2532 C 0.3394 0.90686 0.98418 0.0
C2533 C 0.32135 0.91529 0.99759 0.0
C2534 C 0.36364 0.91944 0.98814 0.0
C2535 C 0.37026 0.93987 0.00636 0.0
C2536 C 0.35209 0.94634 0.02116 0.0
C2537 C 0.32785 0.93452 0.01649 0.0
C2538 C 0.42302 0.99596 0.02042 0.0
C2539 C 0.44256 0.98547 0.01193 0.0
C2540 C 0.39963 0.98118 0.01865 0.0
C2541 C 0.39548 0.95532 0.00905 0.0
C2542 C 0.41556 0.94483 1.00127 0.0
C2543 C 0.43879 0.95992 1.00231 0.0
H2544 H 0.8797 0.59883 0.75255 0.0
H2545 H 0.85936 0.61576 0.82478 0.0
H2546 H 0.85145 0.62457 0.73762 0.0
H2547 H 0.83211 0.64256 0.81023 0.0
H2548 H 0.7653 0.66293 0.77922 0.0
H2549 H 0.7936 0.63518 0.78931 0.0
H2550 H 0.84098 0.66526 0.73535 0.0
H2551 H 0.8119 0.69184 0.72446 0.0
C2552 C 0.86988 0.60891 0.76531 0.0
C2553 C 0.87161 0.60539 0.78978 0.0
C2554 C 0.85355 0.62349 0.75676 0.0
C2555 C 0.83899 0.63505 0.77265 0.0
C2556 C 0.84234 0.63313 0.79738 0.0
C2557 C 0.85827 0.61821 0.80581 0.0
C2558 C 0.78137 0.66289 0.76903 0.0
C2559 C 0.78649 0.67945 0.75114 0.0
C2560 C 0.79784 0.6474 0.77507 0.0
C2561 C 0.81998 0.64863 0.76368 0.0
C2562 C 0.82416 0.66384 0.74452 0.0
C2563 C 0.80743 0.67899 0.73818 0.0
H2564 H 0.83241 0.61309 0.95813 0.0
H2565 H 0.83109 0.63464 0.03389 0.0
H2566 H 0.86744 0.59303 0.96535 0.0
H2567 H 0.86545 0.61324 0.04154 0.0
H2568 H 0.93866 0.58599 0.04683 0.0
H2569 H 0.90637 0.6103 0.04001 0.0
H2570 H 0.87769 0.55681 0.97871 0.0
H2571 H 0.91083 0.5336 0.98492 0.0
C2572 C 0.83977 0.61368 0.9764 0.0
C2573 C 0.82898 0.62557 0.99541 0.0
C2574 C 0.85973 0.60178 0.98064 0.0
C2575 C 0.86925 0.60079 1.00414 0.0
C2576 C 0.85897 0.61361 0.02314 0.0
C2577 C 0.83921 0.626 0.01881 0.0
C2578 C 0.92535 0.57943 0.03196 0.0
C2579 C 0.92727 0.55782 0.01644 0.0
C2580 C 0.90669 0.59334 0.02805 0.0
C2581 C 0.88921 0.58587 0.00865 0.0
C2582 C 0.89099 0.5638 0.99349 0.0
C2583 C 0.90986 0.55017 0.99719 0.0
H2584 H 0.15095 0.10804 0.80939 0.0
H2585 H 0.20881 0.072 0.78259 0.0
H2586 H 0.17459 0.14985 0.80319 0.0
H2587 H 0.23384 0.11318 0.77945 0.0
H2588 H 0.26824 0.18619 0.75345 0.0
H2589 H 0.24181 0.14588 0.75799 0.0
H2590 H 0.20494 0.18367 0.81313 0.0
H2591 H 0.23004 0.22452 0.80623 0.0
C2592 C 0.16909 0.1092 0.8029 0.0
C2593 C 0.17852 0.08688 0.79751 0.0
C2594 C 0.18285 0.13321 0.79949 0.0
C2595 C 0.20646 0.13543 0.79074 0.0
C2596 C 0.21568 0.11279 0.78559 0.0
C2597 C 0.20161 0.08895 0.78817 0.0
C2598 C 0.25425 0.18575 0.76633 0.0
C2599 C 0.2511 0.20825 0.77951 0.0
C2600 C 0.23922 0.1625 0.76932 0.0
C2601 C 0.2213 0.16088 0.78647 0.0
C2602 C 0.21814 0.18378 0.79954 0.0
C2603 C 0.23262 0.20728 0.79576 0.0
H2604 H 0.3698 0.97504 0.26847 0.0
H2605 H 0.41878 0.95176 0.32013 0.0
H2606 H 0.34739 0.9317 0.2613 0.0
H2607 H 0.39616 0.90731 0.31268 0.0
H2608 H 0.32216 0.84448 0.31246 0.0
H2609 H 0.35348 0.8833 0.31959 0.0
H2610 H 0.35293 0.89025 0.24346 0.0
H2611 H 0.32196 0.85208 0.23627 0.0
C2612 C 0.37588 0.9604 0.27812 0.0
C2613 C 0.39563 0.96658 0.2951 0.0
C2614 C 0.3632 0.93551 0.27385 0.0
C2615 C 0.37013 0.91605 0.28629 0.0
C2616 C 0.39045 0.92202 0.30291 0.0
C2617 C 0.40339 0.94724 0.30708 0.0
C2618 C 0.3288 0.85431 0.29728 0.0
C2619 C 0.31903 0.84558 0.27387 0.0
C2620 C 0.34686 0.87637 0.30136 0.0
C2621 C 0.35513 0.8901 0.28213 0.0
C2622 C 0.34645 0.88039 0.25869 0.0
C2623 C 0.32858 0.85851 0.25461 0.0
H2624 H 0.5599 0.36109 0.59837 0.0
H2625 H 0.48132 0.34425 0.59583 0.0
H2626 H 0.55857 0.398 0.57613 0.0
H2627 H 0.47961 0.38225 0.57546 0.0
H2628 H 0.48039 0.4389 0.52057 0.0
H2629 H 0.48289 0.40076 0.54071 0.0
H2630 H 0.55251 0.43841 0.57519 0.0
H2631 H 0.55072 0.47525 0.55356 0.0
C2632 C 0.54235 0.36579 0.59358 0.0
C2633 C 0.52074 0.34996 0.59888 0.0
C2634 C 0.54147 0.38706 0.58084 0.0
C2635 C 0.51892 0.39345 0.57368 0.0
C2636 C 0.49735 0.37785 0.57986 0.0
C2637 C 0.49827 0.35619 0.59192 0.0
C2638 C 0.49634 0.43873 0.53221 0.0
C2639 C 0.51542 0.45997 0.53527 0.0
C2640 C 0.49771 0.41696 0.54409 0.0
C2641 C 0.51787 0.4162 0.55997 0.0
C2642 C 0.53691 0.43764 0.56285 0.0
C2643 C 0.53584 0.45901 0.55046 0.0
H2644 H 0.4106 0.77827 0.37026 0.0
H2645 H 0.43782 0.72718 0.31896 0.0
H2646 H 0.37256 0.77264 0.34626 0.0
H2647 H 0.39892 0.71912 0.29573 0.0
H2648 H 0.34059 0.73681 0.24293 0.0
H2649 H 0.37535 0.73308 0.269 0.0
H2650 H 0.33637 0.75349 0.33089 0.0
H2651 H 0.303 0.7593 0.30449 0.0
C2652 C 0.40805 0.76528 0.35403 0.0
C2653 C 0.42725 0.75384 0.34598 0.0
C2654 C 0.386 0.76164 0.34023 0.0
C2655 C 0.38217 0.74546 0.3185 0.0
C2656 C 0.40103 0.73241 0.31168 0.0
C2657 C 0.42338 0.73681 0.3251 0.0
C2658 C 0.33948 0.74019 0.26214 0.0
C2659 C 0.31909 0.74845 0.27164 0.0
C2660 C 0.3595 0.73803 0.27732 0.0
C2661 C 0.3595 0.74382 0.30244 0.0
C2662 C 0.33802 0.75002 0.3118 0.0
C2663 C 0.31841 0.75281 0.29661 0.0
H2664 H 0.0523 0.73639 0.08437 0.0
H2665 H 0.02128 0.69638 0.14254 0.0
H2666 H 0.05634 0.69582 0.06261 0.0
H2667 H 0.02541 0.65558 0.12091 0.0
H2668 H 0.0545 0.58856 0.08393 0.0
H2669 H 0.0567 0.6307 0.10601 0.0
H2670 H 0.02844 0.65821 0.0425 0.0
H2671 H 0.02506 0.61593 0.02096 0.0
C2672 C 0.04609 0.71879 0.09234 0.0
C2673 C 0.03562 0.71929 0.11465 0.0
C2674 C 0.04856 0.69561 0.07998 0.0
C2675 C 0.04108 0.67245 0.08996 0.0
C2676 C 0.03151 0.6731 0.11281 0.0
C2677 C 0.02895 0.69636 0.12511 0.0
C2678 C 0.04907 0.6038 0.07469 0.0
C2679 C 0.03956 0.59911 0.05082 0.0
C2680 C 0.05009 0.62779 0.08736 0.0
C2681 C 0.0422 0.64766 0.07615 0.0
C2682 C 0.0342 0.64326 0.05179 0.0
C2683 C 0.03243 0.61911 0.03939 0.0
H2684 H 0.0651 0.2534 0.86338 0.0
H2685 H 0.04789 0.30316 0.81099 0.0
H2686 H 0.10468 0.25305 0.84617 0.0
H2687 H 0.0868 0.30229 0.79369 0.0
H2688 H 0.16802 0.3163 0.7827 0.0
H2689 H 0.12972 0.31721 0.80174 0.0
H2690 H 0.12186 0.2365 0.80966 0.0
H2691 H 0.1607 0.23581 0.79097 0.0
C2692 C 0.06978 0.26443 0.84838 0.0
C2693 C 0.05323 0.27836 0.83868 0.0
C2694 C 0.09236 0.264 0.83835 0.0
C2695 C 0.09894 0.27758 0.81847 0.0
C2696 C 0.08255 0.29186 0.80914 0.0
C2697 C 0.0601 0.29226 0.81908 0.0
C2698 C 0.15803 0.2987 0.78833 0.0
C2699 C 0.16724 0.27594 0.78518 0.0
C2700 C 0.13603 0.2992 0.79924 0.0
C2701 C 0.12263 0.27692 0.80726 0.0
C2702 C 0.13184 0.25407 0.80398 0.0
C2703 C 0.15392 0.25359 0.79303 0.0
H2704 H 0.54785 0.73319 0.96494 0.0
H2705 H 0.50845 0.68662 0.90391 0.0
H2706 H 0.54517 0.69572 0.98711 0.0
H2707 H 0.50621 0.64888 0.92596 0.0
H2708 H 0.55684 0.61714 0.00994 0.0
H2709 H 0.55974 0.65612 0.98955 0.0
H2710 H 0.48613 0.63031 0.95903 0.0
H2711 H 0.48343 0.59141 0.97896 0.0
C2712 C 0.53875 0.71489 0.95615 0.0
C2713 C 0.52829 0.71295 0.93262 0.0
C2714 C 0.53733 0.69333 0.96888 0.0
C2715 C 0.52538 0.6692 0.95846 0.0
C2716 C 0.5152 0.66721 0.93476 0.0
C2717 C 0.51663 0.68882 0.92201 0.0
C2718 C 0.54111 0.62008 0.9993 0.0
C2719 C 0.51992 0.60113 0.99612 0.0
C2720 C 0.54279 0.64239 0.98748 0.0
C2721 C 0.52329 0.64626 0.97227 0.0
C2722 C 0.50174 0.62777 0.97005 0.0
C2723 C 0.50011 0.60553 0.98174 0.0
H2724 H 0.08831 0.78467 0.61733 0.0
H2725 H 0.05774 0.75298 0.6798 0.0
H2726 H 0.12834 0.77619 0.63013 0.0
H2727 H 0.09767 0.74562 0.6934 0.0
H2728 H 0.16735 0.71751 0.70584 0.0
H2729 H 0.12787 0.72092 0.68724 0.0
H2730 H 0.16118 0.79057 0.65863 0.0
H2731 H 0.20068 0.7863 0.6762 0.0
C2732 C 0.09032 0.7762 0.63398 0.0
C2733 C 0.07026 0.77041 0.6481 0.0
C2734 C 0.11323 0.7714 0.64141 0.0
C2735 C 0.11648 0.76033 0.66296 0.0
C2736 C 0.09602 0.75386 0.67659 0.0
C2737 C 0.07318 0.75856 0.66909 0.0
C2738 C 0.16628 0.73315 0.69504 0.0
C2739 C 0.18712 0.75158 0.69244 0.0
C2740 C 0.14358 0.73536 0.68463 0.0
C2741 C 0.14109 0.75627 0.67165 0.0
C2742 C 0.16226 0.77404 0.6682 0.0
C2743 C 0.18499 0.77162 0.67833 0.0
H2744 H 0.05424 0.38548 0.39484 0.0
H2745 H 0.04984 0.34137 0.45604 0.0
H2746 H 0.05711 0.42449 0.42149 0.0
H2747 H 0.05218 0.38045 0.48264 0.0
H2748 H 0.01937 0.47685 0.47105 0.0
H2749 H 0.02708 0.44118 0.44467 0.0
H2750 H 0.07546 0.42231 0.49971 0.0
H2751 H 0.06759 0.45858 0.52643 0.0
C2752 C 0.05417 0.38406 0.41398 0.0
C2753 C 0.05149 0.36013 0.42319 0.0
C2754 C 0.05571 0.40648 0.42928 0.0
C2755 C 0.05451 0.40561 0.45421 0.0
C2756 C 0.0533 0.38188 0.46356 0.0
C2757 C 0.05183 0.35941 0.44824 0.0
C2758 C 0.03209 0.4655 0.47743 0.0
C2759 C 0.043 0.47065 0.50079 0.0
C2760 C 0.03657 0.44499 0.46222 0.0
C2761 C 0.05198 0.42885 0.46998 0.0
C2762 C 0.06338 0.43429 0.49323 0.0
C2763 C 0.059 0.4551 0.50848 0.0
H2764 H 0.40571 0.28725 0.13503 0.0
H2765 H 0.45718 0.27212 0.18917 0.0
H2766 H 0.37705 0.29339 0.16581 0.0
H2767 H 0.42826 0.27798 0.21991 0.0
H2768 H 0.33901 0.32327 0.22923 0.0
H2769 H 0.37318 0.32357 0.20329 0.0
H2770 H 0.38596 0.25272 0.22818 0.0
H2771 H 0.35163 0.2522 0.25395 0.0
C2772 C 0.41098 0.28537 0.1535 0.0
C2773 C 0.43375 0.27914 0.15959 0.0
C2774 C 0.39462 0.28907 0.17115 0.0
C2775 C 0.40045 0.28624 0.19528 0.0
C2776 C 0.42328 0.28025 0.20145 0.0
C2777 C 0.43984 0.27698 0.18385 0.0
C2778 C 0.34951 0.30812 0.2297 0.0
C2779 C 0.34258 0.28769 0.24367 0.0
C2780 C 0.36892 0.30817 0.21464 0.0
C2781 C 0.38208 0.28805 0.21354 0.0
C2782 C 0.37622 0.26854 0.22871 0.0
C2783 C 0.35655 0.26824 0.24346 0.0
H2784 H 0.58421 0.50133 0.3324 0.0
H2785 H 0.64506 0.51631 0.38511 0.0
H2786 H 0.55593 0.49973 0.3648 0.0
H2787 H 0.61697 0.51465 0.41708 0.0
H2788 H 0.56213 0.54579 0.46514 0.0
H2789 H 0.5894 0.54263 0.4327 0.0
H2790 H 0.54039 0.47556 0.39971 0.0
H2791 H 0.51308 0.47855 0.4327 0.0
C2792 C 0.59161 0.50397 0.35079 0.0
C2793 C 0.61705 0.50911 0.35595 0.0
C2794 C 0.57536 0.50298 0.36939 0.0
C2795 C 0.58414 0.50735 0.39361 0.0
C2796 C 0.60951 0.51163 0.39869 0.0
C2797 C 0.62567 0.51242 0.38022 0.0
C2798 C 0.55731 0.53009 0.45124 0.0
C2799 C 0.53557 0.51222 0.45177 0.0
C2800 C 0.57297 0.52829 0.43254 0.0
C2801 C 0.56723 0.50874 0.41357 0.0
C2802 C 0.54534 0.49092 0.41394 0.0
C2803 C 0.52976 0.49255 0.43291 0.0
H2804 H 0.22682 0.82899 0.04165 0.0
H2805 H 0.26012 0.90203 0.07882 0.0
H2806 H 0.23059 0.80871 0.0787 0.0
H2807 H 0.26411 0.88179 0.1156 0.0
H2808 H 0.24855 0.84166 0.18242 0.0
H2809 H 0.23997 0.86032 0.14575 0.0
H2810 H 0.265 0.79907 0.10421 0.0
H2811 H 0.27329 0.78003 0.14125 0.0
C2812 C 0.23454 0.84078 0.0578 0.0
C2813 C 0.24317 0.86711 0.05734 0.0
C2814 C 0.23696 0.82911 0.07892 0.0
C2815 C 0.24784 0.84361 0.09999 0.0
C2816 C 0.25548 0.87012 0.09971 0.0
C2817 C 0.25321 0.88173 0.07862 0.0
C2818 C 0.2523 0.83218 0.16547 0.0
C2819 C 0.26182 0.80954 0.16464 0.0
C2820 C 0.24739 0.8429 0.14447 0.0
C2821 C 0.25189 0.83125 0.12211 0.0
C2822 C 0.26113 0.80836 0.1212 0.0
C2823 C 0.26609 0.79758 0.14234 0.0
H2824 H 0.91067 0.56929 0.88974 0.0
H2825 H 0.9722 0.56848 0.84541 0.0
H2826 H 0.93772 0.57204 0.92543 0.0
H2827 H 0.99905 0.57068 0.88118 0.0
H2828 H 0.04205 0.57795 0.95431 0.0
H2829 H 0.01789 0.59201 0.92192 0.0
H2830 H 0.95596 0.5349 0.93557 0.0
H2831 H 0.97987 0.52071 0.96674 0.0
C2832 C 0.93001 0.57025 0.88759 0.0
C2833 C 0.93915 0.56795 0.86469 0.0
C2834 C 0.94549 0.57186 0.90804 0.0
C2835 C 0.97036 0.57103 0.90599 0.0
C2836 C 0.97997 0.57139 0.88328 0.0
C2837 C 0.96449 0.56991 0.86277 0.0
C2838 C 0.02322 0.56867 0.95035 0.0
C2839 C 0.01265 0.54856 0.96324 0.0
C2840 C 0.00942 0.57673 0.93198 0.0
C2841 C 0.98489 0.56492 0.92663 0.0
C2842 C 0.97452 0.54497 0.93976 0.0
C2843 C 0.98827 0.5368 0.95767 0.0
H2844 H 0.27016 0.22931 0.56446 0.0
H2845 H 0.268 0.15409 0.58762 0.0
H2846 H 0.26709 0.24643 0.60606 0.0
H2847 H 0.26568 0.1714 0.62925 0.0
H2848 H 0.29363 0.22412 0.7012 0.0
H2849 H 0.29524 0.20596 0.65987 0.0
H2850 H 0.23273 0.2379 0.63909 0.0
H2851 H 0.23064 0.25559 0.68084 0.0
C2852 C 0.26941 0.2165 0.57846 0.0
C2853 C 0.26947 0.19035 0.57273 0.0
C2854 C 0.26739 0.22627 0.60223 0.0
C2855 C 0.26599 0.21022 0.62089 0.0
C2856 C 0.26672 0.18422 0.61525 0.0
C2857 C 0.26812 0.17434 0.59143 0.0
C2858 C 0.28006 0.2271 0.68788 0.0
C2859 C 0.26196 0.24127 0.69433 0.0
C2860 C 0.28098 0.21664 0.66422 0.0
C2861 C 0.26421 0.22061 0.64621 0.0
C2862 C 0.24599 0.23467 0.65259 0.0
C2863 C 0.24467 0.24462 0.67649 0.0
H2864 H 0.58478 0.50347 0.22335 0.0
H2865 H 0.65865 0.53177 0.20556 0.0
H2866 H 0.56966 0.51292 0.18425 0.0
H2867 H 0.64355 0.54148 0.16661 0.0
H2868 H 0.60765 0.53102 0.08932 0.0
H2869 H 0.62428 0.52228 0.12806 0.0
H2870 H 0.56518 0.5499 0.16289 0.0
H2871 H 0.54845 0.55836 0.12402 0.0
C2872 C 0.59784 0.51142 0.21101 0.0
C2873 C 0.62296 0.51674 0.21765 0.0
C2874 C 0.58914 0.51715 0.18866 0.0
C2875 C 0.60533 0.52826 0.17226 0.0
C2876 C 0.63052 0.53283 0.17864 0.0
C2877 C 0.63919 0.52723 0.20104 0.0
C2878 C 0.59845 0.53566 0.10531 0.0
C2879 C 0.57677 0.54548 0.10358 0.0
C2880 C 0.60797 0.5306 0.12756 0.0
C2881 C 0.59597 0.53508 0.14869 0.0
C2882 C 0.5747 0.54575 0.147 0.0
C2883 C 0.56526 0.55094 0.12474 0.0
H2884 H 0.24397 0.83559 0.93901 0.0
H2885 H 0.24749 0.89963 0.8964 0.0
H2886 H 0.24004 0.80648 0.90246 0.0
H2887 H 0.24334 0.87031 0.85986 0.0
H2888 H 0.20948 0.80591 0.80165 0.0
H2889 H 0.21116 0.83371 0.83878 0.0
H2890 H 0.26857 0.7991 0.86823 0.0
H2891 H 0.26695 0.77118 0.83075 0.0
C2892 C 0.24356 0.84346 0.92188 0.0
C2893 C 0.24598 0.86998 0.92064 0.0
C2894 C 0.24155 0.82677 0.90098 0.0
C2895 C 0.24153 0.83618 0.87842 0.0
C2896 C 0.24321 0.86257 0.87709 0.0
C2897 C 0.2456 0.87933 0.89799 0.0
C2898 C 0.2223 0.80404 0.81613 0.0
C2899 C 0.23822 0.78652 0.81338 0.0
C2900 C 0.22337 0.8201 0.83728 0.0
C2901 C 0.24003 0.8186 0.85628 0.0
C2902 C 0.25549 0.80055 0.85382 0.0
C2903 C 0.2547 0.78473 0.83243 0.0
H2904 H 0.9096 0.52671 0.70886 0.0
H2905 H 0.97761 0.57151 0.7404 0.0
H2906 H 0.92846 0.5211 0.67079 0.0
H2907 H 0.99655 0.56554 0.70242 0.0
H2908 H 0.01273 0.57049 0.62274 0.0
H2909 H 0.9948 0.57735 0.66114 0.0
H2910 H 0.95973 0.49788 0.65493 0.0
H2911 H 0.97742 0.49115 0.61625 0.0
C2912 C 0.92852 0.53552 0.70761 0.0
C2913 C 0.94215 0.54952 0.7276 0.0
C2914 C 0.93937 0.53209 0.68589 0.0
C2915 C 0.96404 0.54263 0.68374 0.0
C2916 C 0.97747 0.55729 0.70353 0.0
C2917 C 0.96663 0.56069 0.72527 0.0
C2918 C 1.00141 0.55443 0.62974 0.0
C2919 C 0.99642 0.53028 0.61664 0.0
C2920 C 0.99119 0.55836 0.65171 0.0
C2921 C 0.97574 0.5382 0.66093 0.0
C2922 C 0.97126 0.51386 0.64805 0.0
C2923 C 0.98154 0.50993 0.62607 0.0
H2924 H 0.27404 0.22185 0.45396 0.0
H2925 H 0.26613 0.15367 0.4047 0.0
H2926 H 0.27885 0.24802 0.42008 0.0
H2927 H 0.27139 0.17959 0.37128 0.0
H2928 H 0.25084 0.22921 0.31494 0.0
H2929 H 0.24892 0.20478 0.34952 0.0
H2930 H 0.30438 0.26301 0.38769 0.0
H2931 H 0.30606 0.28781 0.35271 0.0
C2932 C 0.27356 0.2124 0.43601 0.0
C2933 C 0.26949 0.18549 0.43227 0.0
C2934 C 0.27642 0.22745 0.41652 0.0
C2935 C 0.27525 0.21604 0.39273 0.0
C2936 C 0.27187 0.1892 0.38917 0.0
C2937 C 0.269 0.17424 0.40851 0.0
C2938 C 0.26283 0.2368 0.33058 0.0
C2939 C 0.27879 0.26043 0.33085 0.0
C2940 C 0.26179 0.22267 0.35052 0.0
C2941 C 0.27663 0.23166 0.37156 0.0
C2942 C 0.29254 0.25546 0.37194 0.0
C2943 C 0.29364 0.26963 0.35182 0.0
H2944 H 0.34289 0.63653 0.53576 0.0
H2945 H 0.3017 0.58121 0.48136 0.0
H2946 H 0.37647 0.6127 0.53406 0.0
H2947 H 0.33469 0.55741 0.48017 0.0
H2948 H 0.40983 0.5361 0.46731 0.0
H2949 H 0.37601 0.55955 0.46791 0.0
H2950 H 0.38482 0.57168 0.54523 0.0
H2951 H 0.41877 0.54869 0.54453 0.0
C2952 C 0.34101 0.61945 0.52339 0.0
C2953 C 0.31953 0.61082 0.50879 0.0
C2954 C 0.36013 0.60566 0.52256 0.0
C2955 C 0.35817 0.58306 0.50706 0.0
C2956 C 0.33692 0.57483 0.49214 0.0
C2957 C 0.3179 0.58849 0.49298 0.0
C2958 C 0.40416 0.54335 0.48441 0.0
C2959 C 0.41682 0.54056 0.50584 0.0
C2960 C 0.3849 0.55688 0.48479 0.0
C2961 C 0.37797 0.56781 0.50662 0.0
C2962 C 0.39006 0.56402 0.5281 0.0
C2963 C 0.40927 0.55054 0.5277 0.0
H2964 H 0.82896 0.9592 0.55961 0.0
H2965 H 0.85338 0.90124 0.51351 0.0
H2966 H 0.8693 0.9859 0.56104 0.0
H2967 H 0.89439 0.92729 0.51563 0.0
H2968 H 0.95598 0.99056 0.50015 0.0
H2969 H 0.91606 0.96333 0.5007 0.0
H2970 H 0.90978 0.99463 0.5735 0.0
H2971 H 0.94886 0.02301 0.57203 0.0
C2972 C 0.84317 0.95217 0.54989 0.0
C2973 C 0.83792 0.9288 0.53557 0.0
C2974 C 0.86647 0.9673 0.55096 0.0
C2975 C 0.88525 0.95918 0.53799 0.0
C2976 C 0.8803 0.93471 0.52515 0.0
C2977 C 0.85689 0.91961 0.52409 0.0
C2978 C 0.94569 0.99217 0.51592 0.0
C2979 C 0.9553 0.0094 0.53577 0.0
C2980 C 0.92297 0.97608 0.51653 0.0
C2981 C 0.90947 0.97649 0.53722 0.0
C2982 C 0.91922 0.99391 0.55705 0.0
C2983 C 0.94174 0.01021 0.55627 0.0
H2984 H 0.80795 0.06955 0.25929 0.0
H2985 H 0.87782 0.11294 0.24394 0.0
H2986 H 0.7909 0.10797 0.26245 0.0
H2987 H 0.86022 0.15206 0.24687 0.0
H2988 H 0.82573 0.21843 0.28241 0.0
H2989 H 0.84426 0.18058 0.27707 0.0
H2990 H 0.77838 0.13922 0.23857 0.0
H2991 H 0.75963 0.17705 0.24408 0.0
C2992 C 0.81982 0.08731 0.2565 0.0
C2993 C 0.8445 0.08794 0.25147 0.0
C2994 C 0.80981 0.10947 0.25811 0.0
C2995 C 0.82403 0.13322 0.25482 0.0
C2996 C 0.84874 0.13408 0.24968 0.0
C2997 C 0.85883 0.11166 0.24788 0.0
C2998 C 0.81503 0.20126 0.27289 0.0
C2999 C 0.79096 0.20089 0.26387 0.0
C3000 C 0.82586 0.17958 0.26961 0.0
C3001 C 0.81294 0.15678 0.25732 0.0
C3002 C 0.78885 0.15635 0.24836 0.0
C3003 C 0.77803 0.17808 0.25155 0.0
H3004 H 0.69153 0.16578 1.00303 0.0
H3005 H 0.71824 0.11094 0.04411 0.0
H3006 H 0.64945 0.14366 0.00671 0.0
H3007 H 0.6766 0.0887 0.04763 0.0
H3008 H 0.59701 0.06414 0.06292 0.0
H3009 H 0.63708 0.09198 0.06449 0.0
H3010 H 0.62679 0.10153 0.98931 0.0
H3011 H 0.58716 0.07378 0.98759 0.0
C3012 C 0.68827 0.14911 0.01295 0.0
C3013 C 0.70781 0.13939 0.02261 0.0
C3014 C 0.66435 0.13646 0.01505 0.0
C3015 C 0.65982 0.11434 0.02729 0.0
C3016 C 0.67949 0.10577 0.03825 0.0
C3017 C 0.70328 0.11825 0.03597 0.0
C3018 C 0.60339 0.07213 0.04674 0.0
C3019 C 0.58906 0.06653 0.02509 0.0
C3020 C 0.62626 0.08808 0.04765 0.0
C3021 C 0.63499 0.09894 0.02702 0.0
C3022 C 0.62046 0.09364 0.00553 0.0
C3023 C 0.59785 0.07745 1.00452 0.0
H3024 H 0.15009 0.44157 0.24202 0.0
H3025 H 0.20895 0.49356 0.28297 0.0
H3026 H 0.17327 0.40704 0.24461 0.0
H3027 H 0.23195 0.45959 0.28492 0.0
H3028 H 0.25599 0.38624 0.30425 0.0
H3029 H 0.23203 0.42021 0.30305 0.0
H3030 H 0.21051 0.39559 0.22851 0.0
H3031 H 0.234 0.36145 0.22992 0.0
C3032 C 0.16783 0.44564 0.25159 0.0
C3033 C 0.1776 0.47035 0.26221 0.0
C3034 C 0.18117 0.42595 0.25294 0.0
C3035 C 0.20445 0.43068 0.26495 0.0
C3036 C 0.21396 0.45525 0.27583 0.0
C3037 C 0.20072 0.47479 0.27453 0.0
C3038 C 0.24641 0.38841 0.28758 0.0
C3039 C 0.24682 0.37139 0.2672 0.0
C3040 C 0.23263 0.40773 0.28688 0.0
C3041 C 0.21917 0.41034 0.26573 0.0
C3042 C 0.22025 0.3937 0.24518 0.0
C3043 C 0.23394 0.37439 0.24592 0.0
H3044 H 0.19496 0.39714 0.03139 0.0
H3045 H 0.23676 0.47357 0.032 0.0
H3046 H 0.15714 0.41488 0.0315 0.0
H3047 H 0.1998 0.49093 0.03273 0.0
H3048 H 0.13135 0.51303 1.00293 0.0
H3049 H 0.16705 0.49276 1.00479 0.0
H3050 H 0.13221 0.44186 0.05402 0.0
H3051 H 0.09608 0.46196 0.05163 0.0
C3052 C 0.19615 0.41763 0.03191 0.0
C3053 C 0.21897 0.4338 0.03133 0.0
C3054 C 0.17451 0.42784 0.03198 0.0
C3055 C 0.17532 0.45437 0.03158 0.0
C3056 C 0.19826 0.4704 0.03226 0.0
C3057 C 0.21961 0.46033 0.03202 0.0
C3058 C 0.13133 0.49759 0.01422 0.0
C3059 C 0.11099 0.48925 0.02726 0.0
C3060 C 0.15185 0.48595 0.01538 0.0
C3061 C 0.15271 0.46573 0.02975 0.0
C3062 C 0.13218 0.45721 0.04265 0.0
C3063 C 0.11156 0.46887 0.04143 0.0
H3064 H 0.83161 0.96233 0.20676 0.0
H3065 H 0.8906 0.94617 0.25121 0.0
H3066 H 0.8104 0.91846 0.20636 0.0
H3067 H 0.87049 0.90154 0.2497 0.0
H3068 H 0.81243 0.84072 0.27681 0.0
H3069 H 0.84001 0.87869 0.268 0.0
H3070 H 0.80107 0.87581 0.19907 0.0
H3071 H 0.77253 0.83851 0.20893 0.0
C3072 C 0.8401 0.9491 0.21625 0.0
C3073 C 0.86187 0.95778 0.23024 0.0
C3074 C 0.8282 0.92367 0.21569 0.0
C3075 C 0.83809 0.90623 0.22883 0.0
C3076 C 0.86151 0.91449 0.2404 0.0
C3077 C 0.87324 0.94003 0.24112 0.0
C3078 C 0.80989 0.84816 0.25972 0.0
C3079 C 0.79014 0.83693 0.24372 0.0
C3080 C 0.826 0.86987 0.2544 0.0
C3081 C 0.82297 0.88087 0.23276 0.0
C3082 C 0.80379 0.86863 0.21622 0.0
C3083 C 0.78743 0.84709 0.22176 0.0
H3084 H 0.67565 0.07804 0.72067 0.0
H3085 H 0.61797 0.10733 0.75617 0.0
H3086 H 0.69634 0.1212 0.71621 0.0
H3087 H 0.63801 0.15102 0.75081 0.0
H3088 H 0.70189 0.21668 0.77709 0.0
H3089 H 0.67225 0.17748 0.77034 0.0
H3090 H 0.70082 0.16108 0.70133 0.0
H3091 H 0.73064 0.20083 0.70813 0.0
C3092 C 0.66729 0.09392 0.7272 0.0
C3093 C 0.646 0.08975 0.73979 0.0
C3094 C 0.67887 0.11868 0.72426 0.0
C3095 C 0.66915 0.13974 0.73361 0.0
C3096 C 0.6464 0.13527 0.74405 0.0
C3097 C 0.63485 0.11037 0.74706 0.0
C3098 C 0.70194 0.20471 0.76047 0.0
C3099 C 0.71902 0.21151 0.7434 0.0
C3100 C 0.68466 0.18229 0.75643 0.0
C3101 C 0.68438 0.16574 0.73548 0.0
C3102 C 0.70085 0.17309 0.71792 0.0
C3103 C 0.71796 0.19583 0.7218 0.0
loop_
_geom_bond_atom_site_label_1
_geom_bond_atom_site_label_2
_geom_bond_distance
_geom_bond_site_symmetry_2
_ccdc_geom_bond_type
Mn0 O5 2.095 . S
Mn0 O15 2.162 . S
Mn0 O16 2.297 . S
Mn0 O24 2.385 1_455 S
Mn0 O25 2.208 1_455 S
Mn0 O26 2.094 . S
Mn1 O6 2.121 . S
Mn1 N8 2.257 . S
Mn1 N17 2.282 1_455 S
Mn1 O25 2.214 1_455 S
Mn1 O27 2.117 . S
C2 O24 1.234 . S
C2 O25 1.285 . S
C3 O15 1.281 . S
C3 O16 1.236 . S
C4 O26 1.240 . S
C4 O27 1.264 . S
O5 Mn0 2.095 . S
O5 C14 1.250 . S
O6 Mn1 2.121 . S
O6 C14 1.258 . S
C7 N8 1.326 . S
C7 C11 1.460 . S
C7 H13 0.929 . S
N8 Mn1 2.257 . S
N8 C7 1.326 . S
N8 C12 1.362 1_455 S
C9 C10 1.258 . S
C9 C12 1.431 . S
C9 C29 1.449 . S
C10 C9 1.258 . S
C10 C11 1.477 1_655 S
C10 H30 0.931 . S
C11 C7 1.460 . S
C11 C10 1.477 1_455 S
C11 H31 0.930 . S
C12 N8 1.362 1_655 S
C12 C9 1.431 . S
C12 C22 1.476 . S
H13 C7 0.929 . S
C14 O5 1.250 . S
C14 O6 1.258 . S
O15 Mn0 2.162 . S
O15 C3 1.281 . S
O16 Mn0 2.297 . S
O16 C3 1.236 . S
N17 Mn1 2.282 1_655 S
N17 C18 1.328 . S
N17 C22 1.318 . S
C18 N17 1.328 . S
C18 C19 1.457 . S
C18 H23 0.929 . S
C19 C18 1.457 . S
C19 C20 1.291 . S
C19 H32 0.931 . S
C20 C19 1.291 . S
C20 C21 1.373 . S
C20 H33 0.929 . S
C21 C20 1.373 . S
C21 C22 1.396 . S
C21 C28 1.403 . S
C22 C12 1.476 . S
C22 N17 1.318 . S
C22 C21 1.396 . S
H23 C18 0.929 . S
O24 Mn0 2.385 1_655 S
O24 C2 1.234 . S
O25 Mn0 2.208 1_655 S
O25 Mn1 2.214 1_655 S
O25 C2 1.285 . S
O26 Mn0 2.094 . S
O26 C4 1.240 . S
O27 Mn1 2.117 . S
O27 C4 1.264 . S
C28 C21 1.403 . S
C28 C29 1.399 . S
C28 H34 0.929 . S
C29 C9 1.449 . S
C29 C28 1.399 . S
C29 H35 0.930 . S
H30 C10 0.931 . S
H31 C11 0.930 . S
H32 C19 0.931 . S
H33 C20 0.929 . S
H34 C28 0.929 . S
H35 C29 0.930 . S
Mn36 O41 2.095 1_455 S
Mn36 O51 2.162 . S
Mn36 O52 2.297 . S
Mn36 O60 2.385 . S
Mn36 O61 2.209 . S
Mn36 O62 2.094 . S
Mn37 O42 2.121 1_455 S
Mn37 N44 2.257 . S
Mn37 N53 2.282 . S
Mn37 O61 2.215 . S
Mn37 O63 2.117 . S
C38 O60 1.234 . S
C38 O61 1.283 . S
C39 O51 1.281 . S
C39 O52 1.236 . S
C40 O62 1.240 . S
C40 O63 1.264 . S
O41 Mn36 2.095 1_655 S
O41 C50 1.250 . S
O42 Mn37 2.121 1_655 S
O42 C50 1.258 . S
C43 N44 1.326 . S
C43 C47 1.460 . S
C43 H49 0.929 1_455 S
N44 Mn37 2.257 . S
N44 C43 1.326 . S
N44 C48 1.362 . S
C45 C46 1.258 . S
C45 C48 1.431 . S
C45 C65 1.449 . S
C46 C45 1.258 . S
C46 C47 1.477 . S
C46 H66 0.931 . S
C47 C43 1.460 . S
C47 C46 1.477 . S
C47 H67 0.930 . S
C48 N44 1.362 . S
C48 C45 1.431 . S
C48 C58 1.476 . S
H49 C43 0.929 1_655 S
C50 O41 1.250 . S
C50 O42 1.258 . S
O51 Mn36 2.162 . S
O51 C39 1.281 . S
O52 Mn36 2.297 . S
O52 C39 1.236 . S
N53 Mn37 2.282 . S
N53 C54 1.328 . S
N53 C58 1.318 . S
C54 N53 1.328 . S
C54 C55 1.457 . S
C54 H59 0.929 . S
C55 C54 1.457 . S
C55 C56 1.291 . S
C55 H68 0.931 . S
C56 C55 1.291 . S
C56 C57 1.373 . S
C56 H69 0.929 . S
C57 C56 1.373 . S
C57 C58 1.396 . S
C57 C64 1.403 . S
C58 C48 1.476 . S
C58 N53 1.318 . S
C58 C57 1.396 . S
H59 C54 0.929 . S
O60 Mn36 2.385 . S
O60 C38 1.234 . S
O61 Mn36 2.209 . S
O61 Mn37 2.215 . S
O61 C38 1.283 . S
O62 Mn36 2.094 . S
O62 C40 1.240 . S
O63 Mn37 2.117 . S
O63 C40 1.264 . S
C64 C57 1.403 . S
C64 C65 1.399 . S
C64 H70 0.929 . S
C65 C45 1.449 . S
C65 C64 1.399 . S
C65 H71 0.930 . S
H66 C46 0.931 . S
H67 C47 0.930 . S
H68 C55 0.931 . S
H69 C56 0.929 . S
H70 C64 0.929 . S
H71 C65 0.930 . S
Mn72 O77 2.095 . S
Mn72 O87 2.162 . S
Mn72 O88 2.297 . S
Mn72 O96 2.385 . S
Mn72 O97 2.209 . S
Mn72 O98 2.094 . S
Mn73 O78 2.121 . S
Mn73 N80 2.257 . S
Mn73 N89 2.282 . S
Mn73 O97 2.215 . S
Mn73 O99 2.117 . S
C74 O96 1.234 . S
C74 O97 1.283 . S
C75 O87 1.281 . S
C75 O88 1.236 . S
C76 O98 1.240 . S
C76 O99 1.264 . S
O77 Mn72 2.095 . S
O77 C86 1.250 . S
O78 Mn73 2.121 . S
O78 C86 1.258 . S
C79 N80 1.326 . S
C79 C83 1.460 . S
C79 H85 0.929 . S
N80 Mn73 2.257 . S
N80 C79 1.326 . S
N80 C84 1.362 . S
C81 C82 1.258 . S
C81 C84 1.431 . S
C81 C101 1.449 . S
C82 C81 1.258 . S
C82 C83 1.477 . S
C82 H102 0.931 . S
C83 C79 1.460 . S
C83 C82 1.477 . S
C83 H103 0.930 . S
C84 N80 1.362 . S
C84 C81 1.431 . S
C84 C94 1.476 . S
H85 C79 0.929 . S
C86 O77 1.250 . S
C86 O78 1.258 . S
O87 Mn72 2.162 . S
O87 C75 1.281 . S
O88 Mn72 2.297 . S
O88 C75 1.236 . S
N89 Mn73 2.282 . S
N89 C90 1.328 . S
N89 C94 1.318 . S
C90 N89 1.328 . S
C90 C91 1.457 . S
C90 H95 0.929 . S
C91 C90 1.457 . S
C91 C92 1.291 . S
C91 H104 0.931 . S
C92 C91 1.291 . S
C92 C93 1.373 . S
C92 H105 0.929 . S
C93 C92 1.373 . S
C93 C94 1.396 . S
C93 C100 1.403 . S
C94 C84 1.476 . S
C94 N89 1.318 . S
C94 C93 1.396 . S
H95 C90 0.929 . S
O96 Mn72 2.385 . S
O96 C74 1.234 . S
O97 Mn72 2.209 . S
O97 Mn73 2.215 . S
O97 C74 1.283 . S
O98 Mn72 2.094 . S
O98 C76 1.240 . S
O99 Mn73 2.117 . S
O99 C76 1.264 . S
C100 C93 1.403 . S
C100 C101 1.399 . S
C100 H106 0.929 . S
C101 C81 1.449 . S
C101 C100 1.399 . S
C101 H107 0.930 . S
H102 C82 0.931 . S
H103 C83 0.930 . S
H104 C91 0.931 . S
H105 C92 0.929 . S
H106 C100 0.929 . S
H107 C101 0.930 . S
Mn108 O113 2.095 . S
Mn108 O123 2.162 . S
Mn108 O124 2.297 . S
Mn108 O132 2.385 . S
Mn108 O133 2.209 . S
Mn108 O134 2.094 . S
Mn109 O114 2.121 . S
Mn109 N116 2.257 . S
Mn109 N125 2.282 . S
Mn109 O133 2.215 . S
Mn109 O135 2.117 . S
C110 O132 1.234 . S
C110 O133 1.283 . S
C111 O123 1.281 . S
C111 O124 1.236 . S
C112 O134 1.240 . S
C112 O135 1.264 . S
O113 Mn108 2.095 . S
O113 C122 1.250 . S
O114 Mn109 2.121 . S
O114 C122 1.258 . S
C115 N116 1.326 . S
C115 C119 1.460 . S
C115 H121 0.929 . S
N116 Mn109 2.257 . S
N116 C115 1.326 . S
N116 C120 1.362 . S
C117 C118 1.258 . S
C117 C120 1.431 . S
C117 C137 1.449 . S
C118 C117 1.258 . S
C118 C119 1.477 . S
C118 H138 0.931 1_554 S
C119 C115 1.460 . S
C119 C118 1.477 . S
C119 H139 0.930 . S
C120 N116 1.362 . S
C120 C117 1.431 . S
C120 C130 1.476 . S
H121 C115 0.929 . S
C122 O113 1.250 . S
C122 O114 1.258 . S
O123 Mn108 2.162 . S
O123 C111 1.281 . S
O124 Mn108 2.297 . S
O124 C111 1.236 . S
N125 Mn109 2.282 . S
N125 C126 1.328 . S
N125 C130 1.318 . S
C126 N125 1.328 . S
C126 C127 1.457 . S
C126 H131 0.929 . S
C127 C126 1.457 . S
C127 C128 1.291 . S
C127 H140 0.931 . S
C128 C127 1.291 . S
C128 C129 1.373 . S
C128 H141 0.929 . S
C129 C128 1.373 . S
C129 C130 1.396 . S
C129 C136 1.403 . S
C130 C120 1.476 . S
C130 N125 1.318 . S
C130 C129 1.396 . S
H131 C126 0.929 . S
O132 Mn108 2.385 . S
O132 C110 1.234 . S
O133 Mn108 2.209 . S
O133 Mn109 2.215 . S
O133 C110 1.283 . S
O134 Mn108 2.094 . S
O134 C112 1.240 . S
O135 Mn109 2.117 . S
O135 C112 1.264 . S
C136 C129 1.403 . S
C136 C137 1.399 . S
C136 H142 0.929 . S
C137 C117 1.449 . S
C137 C136 1.399 . S
C137 H143 0.930 . S
H138 C118 0.931 1_556 S
H139 C119 0.930 . S
H140 C127 0.931 . S
H141 C128 0.929 . S
H142 C136 0.929 . S
H143 C137 0.930 . S
Mn144 O149 2.095 . S
Mn144 O159 2.162 . S
Mn144 O160 2.297 . S
Mn144 O168 2.385 . S
Mn144 O169 2.209 . S
Mn144 O170 2.094 1_455 S
Mn145 O150 2.121 1_655 S
Mn145 N152 2.257 . S
Mn145 N161 2.282 . S
Mn145 O169 2.215 1_655 S
Mn145 O171 2.117 . S
C146 O168 1.234 . S
C146 O169 1.283 . S
C147 O159 1.281 . S
C147 O160 1.236 . S
C148 O170 1.240 . S
C148 O171 1.264 . S
O149 Mn144 2.095 . S
O149 C158 1.250 . S
O150 Mn145 2.121 1_455 S
O150 C158 1.258 . S
C151 N152 1.319 1_455 S
C151 C155 1.464 1_455 S
C151 H157 0.936 . S
N152 Mn145 2.257 . S
N152 C151 1.319 1_655 S
N152 C156 1.362 . S
C153 C154 1.258 1_554 S
C153 C156 1.431 . S
C153 C173 1.449 . S
C154 C153 1.258 1_556 S
C154 C155 1.489 1_556 S
C154 H174 0.931 . S
C155 C151 1.464 1_655 S
C155 C154 1.489 1_554 S
C155 H175 0.918 1_654 S
C156 N152 1.362 . S
C156 C153 1.431 . S
C156 C166 1.476 . S
H157 C151 0.936 . S
C158 O149 1.250 . S
C158 O150 1.258 . S
O159 Mn144 2.162 . S
O159 C147 1.281 . S
O160 Mn144 2.297 . S
O160 C147 1.236 . S
N161 Mn145 2.282 . S
N161 C162 1.328 . S
N161 C166 1.318 . S
C162 N161 1.328 . S
C162 C163 1.457 . S
C162 H167 0.929 . S
C163 C162 1.457 . S
C163 C164 1.291 . S
C163 H176 0.931 . S
C164 C163 1.291 . S
C164 C165 1.373 . S
C164 H177 0.929 . S
C165 C164 1.373 . S
C165 C166 1.396 . S
C165 C172 1.403 . S
C166 C156 1.476 . S
C166 N161 1.318 . S
C166 C165 1.396 . S
H167 C162 0.929 . S
O168 Mn144 2.385 . S
O168 C146 1.234 . S
O169 Mn144 2.209 . S
O169 Mn145 2.215 1_455 S
O169 C146 1.283 . S
O170 Mn144 2.094 1_655 S
O170 C148 1.240 . S
O171 Mn145 2.117 . S
O171 C148 1.264 . S
C172 C165 1.403 . S
C172 C173 1.399 . S
C172 H178 0.929 . S
C173 C153 1.449 . S
C173 C172 1.399 . S
C173 H179 0.930 1_554 S
H174 C154 0.931 . S
H175 C155 0.918 1_456 S
H176 C163 0.931 . S
H177 C164 0.929 . S
H178 C172 0.929 . S
H179 C173 0.930 1_556 S
Mn180 O185 2.095 . S
Mn180 O195 2.162 . S
Mn180 O196 2.297 . S
Mn180 O204 2.385 . S
Mn180 O205 2.209 . S
Mn180 O206 2.094 . S
Mn181 O186 2.121 . S
Mn181 N188 2.257 . S
Mn181 N197 2.282 . S
Mn181 O205 2.215 . S
Mn181 O207 2.117 . S
C182 O204 1.234 . S
C182 O205 1.283 . S
C183 O195 1.281 . S
C183 O196 1.236 . S
C184 O206 1.240 . S
C184 O207 1.264 . S
O185 Mn180 2.095 . S
O185 C194 1.250 . S
O186 Mn181 2.121 . S
O186 C194 1.258 . S
C187 N188 1.326 . S
C187 C191 1.460 . S
C187 H193 0.929 . S
N188 Mn181 2.257 . S
N188 C187 1.326 . S
N188 C192 1.362 . S
C189 C190 1.258 . S
C189 C192 1.431 . S
C189 C209 1.449 . S
C190 C189 1.258 . S
C190 C191 1.477 . S
C190 H210 0.931 . S
C191 C187 1.460 . S
C191 C190 1.477 . S
C191 H211 0.930 . S
C192 N188 1.362 . S
C192 C189 1.431 . S
C192 C202 1.476 . S
H193 C187 0.929 . S
C194 O185 1.250 . S
C194 O186 1.258 . S
O195 Mn180 2.162 . S
O195 C183 1.281 . S
O196 Mn180 2.297 . S
O196 C183 1.236 . S
N197 Mn181 2.282 . S
N197 C198 1.328 . S
N197 C202 1.318 . S
C198 N197 1.328 . S
C198 C199 1.457 . S
C198 H203 0.929 . S
C199 C198 1.457 . S
C199 C200 1.291 . S
C199 H212 0.931 . S
C200 C199 1.291 . S
C200 C201 1.373 . S
C200 H213 0.929 . S
C201 C200 1.373 . S
C201 C202 1.396 . S
C201 C208 1.403 . S
C202 C192 1.476 . S
C202 N197 1.318 . S
C202 C201 1.396 . S
H203 C198 0.929 . S
O204 Mn180 2.385 . S
O204 C182 1.234 . S
O205 Mn180 2.209 . S
O205 Mn181 2.215 . S
O205 C182 1.283 . S
O206 Mn180 2.094 . S
O206 C184 1.240 . S
O207 Mn181 2.117 . S
O207 C184 1.264 . S
C208 C201 1.403 . S
C208 C209 1.399 . S
C208 H214 0.929 . S
C209 C189 1.449 . S
C209 C208 1.399 . S
C209 H215 0.930 . S
H210 C190 0.931 . S
H211 C191 0.930 . S
H212 C199 0.931 . S
H213 C200 0.929 . S
H214 C208 0.929 . S
H215 C209 0.930 . S
Mn216 O221 2.095 . S
Mn216 O231 2.162 . S
Mn216 O232 2.297 . S
Mn216 O240 2.385 . S
Mn216 O241 2.209 . S
Mn216 O242 2.094 . S
Mn217 O222 2.121 . S
Mn217 N224 2.257 . S
Mn217 N233 2.282 . S
Mn217 O241 2.215 . S
Mn217 O243 2.117 . S
C218 O240 1.234 . S
C218 O241 1.283 . S
C219 O231 1.281 . S
C219 O232 1.236 . S
C220 O242 1.240 . S
C220 O243 1.264 . S
O221 Mn216 2.095 . S
O221 C230 1.250 . S
O222 Mn217 2.121 . S
O222 C230 1.258 . S
C223 N224 1.326 . S
C223 C227 1.460 . S
C223 H229 0.929 . S
N224 Mn217 2.257 . S
N224 C223 1.326 . S
N224 C228 1.362 . S
C225 C226 1.258 . S
C225 C228 1.431 . S
C225 C245 1.449 . S
C226 C225 1.258 . S
C226 C227 1.477 . S
C226 H246 0.931 . S
C227 C223 1.460 . S
C227 C226 1.477 . S
C227 H247 0.930 . S
C228 N224 1.362 . S
C228 C225 1.431 . S
C228 C238 1.476 . S
H229 C223 0.929 . S
C230 O221 1.250 . S
C230 O222 1.258 . S
O231 Mn216 2.162 . S
O231 C219 1.281 . S
O232 Mn216 2.297 . S
O232 C219 1.236 . S
N233 Mn217 2.282 . S
N233 C234 1.328 . S
N233 C238 1.318 . S
C234 N233 1.328 . S
C234 C235 1.457 . S
C234 H239 0.929 . S
C235 C234 1.457 . S
C235 C236 1.291 . S
C235 H248 0.931 . S
C236 C235 1.291 . S
C236 C237 1.373 . S
C236 H249 0.929 . S
C237 C236 1.373 . S
C237 C238 1.396 . S
C237 C244 1.403 . S
C238 C228 1.476 . S
C238 N233 1.318 . S
C238 C237 1.396 . S
H239 C234 0.929 . S
O240 Mn216 2.385 . S
O240 C218 1.234 . S
O241 Mn216 2.209 . S
O241 Mn217 2.215 . S
O241 C218 1.283 . S
O242 Mn216 2.094 . S
O242 C220 1.240 . S
O243 Mn217 2.117 . S
O243 C220 1.264 . S
C244 C237 1.403 . S
C244 C245 1.399 . S
C244 H250 0.929 . S
C245 C225 1.449 . S
C245 C244 1.399 . S
C245 H251 0.930 . S
H246 C226 0.931 . S
H247 C227 0.930 . S
H248 C235 0.931 . S
H249 C236 0.929 . S
H250 C244 0.929 . S
H251 C245 0.930 . S
Mn252 O257 2.101 . S
Mn252 O267 2.158 . S
Mn252 O268 2.298 1_455 S
Mn252 O276 2.378 1_455 S
Mn252 O277 2.206 1_455 S
Mn252 O278 2.093 . S
Mn253 O258 2.121 . S
Mn253 N260 2.257 1_455 S
Mn253 N269 2.282 1_455 S
Mn253 O277 2.215 1_455 S
Mn253 O279 2.117 . S
C254 O276 1.234 . S
C254 O277 1.283 . S
C255 O267 1.282 1_655 S
C255 O268 1.236 . S
C256 O278 1.240 . S
C256 O279 1.264 . S
O257 Mn252 2.101 . S
O257 C266 1.250 . S
O258 Mn253 2.121 . S
O258 C266 1.258 . S
C259 N260 1.326 1_455 S
C259 C263 1.460 1_455 S
C259 H265 0.929 . S
N260 Mn253 2.257 1_655 S
N260 C259 1.326 1_655 S
N260 C264 1.362 . S
C261 C262 1.258 . S
C261 C264 1.431 . S
C261 C281 1.449 . S
C262 C261 1.258 . S
C262 C263 1.477 . S
C262 H282 0.931 . S
C263 C259 1.460 1_655 S
C263 C262 1.477 . S
C263 H283 0.930 1_655 S
C264 N260 1.362 . S
C264 C261 1.431 . S
C264 C274 1.476 . S
H265 C259 0.929 . S
C266 O257 1.250 . S
C266 O258 1.258 . S
O267 Mn252 2.158 . S
O267 C255 1.282 1_455 S
O268 Mn252 2.298 1_655 S
O268 C255 1.236 . S
N269 Mn253 2.282 1_655 S
N269 C270 1.328 . S
N269 C274 1.318 . S
C270 N269 1.328 . S
C270 C271 1.457 . S
C270 H275 0.929 . S
C271 C270 1.457 . S
C271 C272 1.291 . S
C271 H284 0.931 . S
C272 C271 1.291 . S
C272 C273 1.373 . S
C272 H285 0.929 . S
C273 C272 1.373 . S
C273 C274 1.396 . S
C273 C280 1.403 . S
C274 C264 1.476 . S
C274 N269 1.318 . S
C274 C273 1.396 . S
H275 C270 0.929 . S
O276 Mn252 2.378 1_655 S
O276 C254 1.234 . S
O277 Mn252 2.206 1_655 S
O277 Mn253 2.215 1_655 S
O277 C254 1.283 . S
O278 Mn252 2.093 . S
O278 C256 1.240 . S
O279 Mn253 2.117 . S
O279 C256 1.264 . S
C280 C273 1.403 . S
C280 C281 1.399 . S
C280 H286 0.929 . S
C281 C261 1.449 . S
C281 C280 1.399 . S
C281 H287 0.930 . S
H282 C262 0.931 . S
H283 C263 0.930 1_455 S
H284 C271 0.931 . S
H285 C272 0.929 . S
H286 C280 0.929 . S
H287 C281 0.930 . S
Mn288 O293 2.095 . S
Mn288 O303 2.162 . S
Mn288 O304 2.297 . S
Mn288 O312 2.385 1_545 S
Mn288 O313 2.222 . S
Mn288 O314 2.094 . S
Mn289 O294 2.121 . S
Mn289 N296 2.264 . S
Mn289 N305 2.282 1_545 S
Mn289 O313 2.227 . S
Mn289 O315 2.117 . S
C290 O312 1.234 . S
C290 O313 1.255 1_565 S
C291 O303 1.281 . S
C291 O304 1.236 . S
C292 O314 1.240 . S
C292 O315 1.264 . S
O293 Mn288 2.095 . S
O293 C302 1.250 . S
O294 Mn289 2.121 . S
O294 C302 1.258 . S
C295 N296 1.348 . S
C295 C299 1.463 . S
C295 H301 0.929 . S
N296 Mn289 2.264 . S
N296 C295 1.348 . S
N296 C300 1.334 1_545 S
C297 C298 1.258 . S
C297 C300 1.431 . S
C297 C317 1.449 . S
C298 C297 1.258 . S
C298 C299 1.467 1_565 S
C298 H318 0.931 . S
C299 C295 1.463 . S
C299 C298 1.467 1_545 S
C299 H319 0.937 . S
C300 N296 1.334 1_565 S
C300 C297 1.431 . S
C300 C310 1.476 . S
H301 C295 0.929 . S
C302 O293 1.250 . S
C302 O294 1.258 . S
O303 Mn288 2.162 . S
O303 C291 1.281 . S
O304 Mn288 2.297 . S
O304 C291 1.236 . S
N305 Mn289 2.282 1_565 S
N305 C306 1.328 . S
N305 C310 1.318 . S
C306 N305 1.328 . S
C306 C307 1.457 . S
C306 H311 0.929 . S
C307 C306 1.457 . S
C307 C308 1.291 . S
C307 H320 0.931 . S
C308 C307 1.291 . S
C308 C309 1.373 . S
C308 H321 0.929 . S
C309 C308 1.373 . S
C309 C310 1.396 . S
C309 C316 1.403 . S
C310 C300 1.476 . S
C310 N305 1.318 . S
C310 C309 1.396 . S
H311 C306 0.929 . S
O312 Mn288 2.385 1_565 S
O312 C290 1.234 . S
O313 Mn288 2.222 . S
O313 Mn289 2.227 . S
O313 C290 1.255 1_545 S
O314 Mn288 2.094 . S
O314 C292 1.240 . S
O315 Mn289 2.117 . S
O315 C292 1.264 . S
C316 C309 1.403 . S
C316 C317 1.399 . S
C316 H322 0.929 . S
C317 C297 1.449 . S
C317 C316 1.399 . S
C317 H323 0.930 . S
H318 C298 0.931 . S
H319 C299 0.937 . S
H320 C307 0.931 . S
H321 C308 0.929 . S
H322 C316 0.929 . S
H323 C317 0.930 . S
Mn324 O329 2.095 . S
Mn324 O339 2.162 . S
Mn324 O340 2.297 . S
Mn324 O348 2.385 . S
Mn324 O349 2.209 . S
Mn324 O350 2.094 . S
Mn325 O330 2.121 . S
Mn325 N332 2.257 . S
Mn325 N341 2.282 . S
Mn325 O349 2.215 . S
Mn325 O351 2.117 . S
C326 O348 1.234 . S
C326 O349 1.283 . S
C327 O339 1.281 . S
C327 O340 1.236 . S
C328 O350 1.240 . S
C328 O351 1.264 . S
O329 Mn324 2.095 . S
O329 C338 1.250 . S
O330 Mn325 2.121 . S
O330 C338 1.258 . S
C331 N332 1.326 . S
C331 C335 1.460 . S
C331 H337 0.929 . S
N332 Mn325 2.257 . S
N332 C331 1.326 . S
N332 C336 1.362 . S
C333 C334 1.258 . S
C333 C336 1.431 . S
C333 C353 1.449 . S
C334 C333 1.258 . S
C334 C335 1.477 . S
C334 H354 0.931 . S
C335 C331 1.460 . S
C335 C334 1.477 . S
C335 H355 0.930 . S
C336 N332 1.362 . S
C336 C333 1.431 . S
C336 C346 1.476 . S
H337 C331 0.929 . S
C338 O329 1.250 . S
C338 O330 1.258 . S
O339 Mn324 2.162 . S
O339 C327 1.281 . S
O340 Mn324 2.297 . S
O340 C327 1.236 . S
N341 Mn325 2.282 . S
N341 C342 1.328 . S
N341 C346 1.318 . S
C342 N341 1.328 . S
C342 C343 1.457 . S
C342 H347 0.929 . S
C343 C342 1.457 . S
C343 C344 1.291 . S
C343 H356 0.931 . S
C344 C343 1.291 . S
C344 C345 1.373 . S
C344 H357 0.929 . S
C345 C344 1.373 . S
C345 C346 1.396 . S
C345 C352 1.403 . S
C346 C336 1.476 . S
C346 N341 1.318 . S
C346 C345 1.396 . S
H347 C342 0.929 . S
O348 Mn324 2.385 . S
O348 C326 1.234 . S
O349 Mn324 2.209 . S
O349 Mn325 2.215 . S
O349 C326 1.283 . S
O350 Mn324 2.094 . S
O350 C328 1.240 . S
O351 Mn325 2.117 . S
O351 C328 1.264 . S
C352 C345 1.403 . S
C352 C353 1.399 . S
C352 H358 0.929 . S
C353 C333 1.449 . S
C353 C352 1.399 . S
C353 H359 0.930 . S
H354 C334 0.931 . S
H355 C335 0.930 . S
H356 C343 0.931 . S
H357 C344 0.929 . S
H358 C352 0.929 . S
H359 C353 0.930 . S
Mn360 O365 2.099 1_545 S
Mn360 O375 2.161 1_545 S
Mn360 O376 2.298 1_545 S
Mn360 O384 2.381 . S
Mn360 O385 2.207 . S
Mn360 O386 2.094 1_545 S
Mn361 O366 2.121 1_545 S
Mn361 N368 2.257 . S
Mn361 N377 2.282 . S
Mn361 O385 2.215 . S
Mn361 O387 2.117 . S
C362 O384 1.234 . S
C362 O385 1.283 . S
C363 O375 1.281 . S
C363 O376 1.235 . S
C364 O386 1.243 1_545 S
C364 O387 1.264 . S
O365 Mn360 2.099 1_565 S
O365 C374 1.250 . S
O366 Mn361 2.121 1_565 S
O366 C374 1.258 . S
C367 N368 1.326 . S
C367 C371 1.460 . S
C367 H373 0.929 1_545 S
N368 Mn361 2.257 . S
N368 C367 1.326 . S
N368 C372 1.362 . S
C369 C370 1.258 . S
C369 C372 1.431 . S
C369 C389 1.449 . S
C370 C369 1.258 . S
C370 C371 1.477 . S
C370 H390 0.931 . S
C371 C367 1.460 . S
C371 C370 1.477 . S
C371 H391 0.930 . S
C372 N368 1.362 . S
C372 C369 1.431 . S
C372 C382 1.476 . S
H373 C367 0.929 1_565 S
C374 O365 1.250 . S
C374 O366 1.258 . S
O375 Mn360 2.161 1_565 S
O375 C363 1.281 . S
O376 Mn360 2.298 1_565 S
O376 C363 1.235 . S
N377 Mn361 2.282 . S
N377 C378 1.328 . S
N377 C382 1.318 . S
C378 N377 1.328 . S
C378 C379 1.457 . S
C378 H383 0.929 . S
C379 C378 1.457 . S
C379 C380 1.291 . S
C379 H392 0.931 . S
C380 C379 1.291 . S
C380 C381 1.373 . S
C380 H393 0.929 . S
C381 C380 1.373 . S
C381 C382 1.396 . S
C381 C388 1.403 . S
C382 C372 1.476 . S
C382 N377 1.318 . S
C382 C381 1.396 . S
H383 C378 0.929 . S
O384 Mn360 2.381 . S
O384 C362 1.234 . S
O385 Mn360 2.207 . S
O385 Mn361 2.215 . S
O385 C362 1.283 . S
O386 Mn360 2.094 1_565 S
O386 C364 1.243 1_565 S
O387 Mn361 2.117 . S
O387 C364 1.264 . S
C388 C381 1.403 . S
C388 C389 1.399 . S
C388 H394 0.929 . S
C389 C369 1.449 . S
C389 C388 1.399 . S
C389 H395 0.930 . S
H390 C370 0.931 . S
H391 C371 0.930 . S
H392 C379 0.931 . S
H393 C380 0.929 . S
H394 C388 0.929 . S
H395 C389 0.930 . S
Mn396 O401 2.095 . S
Mn396 O411 2.162 . S
Mn396 O412 2.297 . S
Mn396 O420 2.385 . S
Mn396 O421 2.209 . S
Mn396 O422 2.094 1_554 S
Mn397 O402 2.121 1_556 S
Mn397 N404 2.257 . S
Mn397 N413 2.282 . S
Mn397 O421 2.215 1_556 S
Mn397 O423 2.117 . S
C398 O420 1.234 . S
C398 O421 1.283 . S
C399 O411 1.281 . S
C399 O412 1.236 . S
C400 O422 1.240 . S
C400 O423 1.264 . S
O401 Mn396 2.095 . S
O401 C410 1.250 . S
O402 Mn397 2.121 1_554 S
O402 C410 1.258 . S
C403 N404 1.329 1_554 S
C403 C407 1.457 1_565 S
C403 H409 0.930 . S
N404 Mn397 2.257 . S
N404 C403 1.329 1_556 S
N404 C408 1.362 . S
C405 C406 1.258 . S
C405 C408 1.431 1_545 S
C405 C425 1.449 . S
C406 C405 1.258 . S
C406 C407 1.477 1_556 S
C406 H426 0.931 . S
C407 C403 1.457 1_545 S
C407 C406 1.477 1_554 S
C407 H427 0.930 . S
C408 N404 1.362 . S
C408 C405 1.431 1_565 S
C408 C418 1.476 . S
H409 C403 0.930 . S
C410 O401 1.250 . S
C410 O402 1.258 . S
O411 Mn396 2.162 . S
O411 C399 1.281 . S
O412 Mn396 2.297 . S
O412 C399 1.236 . S
N413 Mn397 2.282 . S
N413 C414 1.328 . S
N413 C418 1.318 . S
C414 N413 1.328 . S
C414 C415 1.457 . S
C414 H419 0.929 . S
C415 C414 1.457 . S
C415 C416 1.291 . S
C415 H428 0.931 . S
C416 C415 1.291 . S
C416 C417 1.373 . S
C416 H429 0.929 . S
C417 C416 1.373 . S
C417 C418 1.396 . S
C417 C424 1.403 1_565 S
C418 C408 1.476 . S
C418 N413 1.318 . S
C418 C417 1.396 . S
H419 C414 0.929 . S
O420 Mn396 2.385 . S
O420 C398 1.234 . S
O421 Mn396 2.209 . S
O421 Mn397 2.215 1_554 S
O421 C398 1.283 . S
O422 Mn396 2.094 1_556 S
O422 C400 1.240 . S
O423 Mn397 2.117 . S
O423 C400 1.264 . S
C424 C417 1.403 1_545 S
C424 C425 1.399 . S
C424 H430 0.929 . S
C425 C405 1.449 . S
C425 C424 1.399 . S
C425 H431 0.930 . S
H426 C406 0.931 . S
H427 C407 0.930 . S
H428 C415 0.931 . S
H429 C416 0.929 . S
H430 C424 0.929 . S
H431 C425 0.930 . S
Mn432 O437 2.095 . S
Mn432 O447 2.162 . S
Mn432 O448 2.297 . S
Mn432 O456 2.385 . S
Mn432 O457 2.209 . S
Mn432 O458 2.094 1_554 S
Mn433 O438 2.121 . S
Mn433 N440 2.257 . S
Mn433 N449 2.282 . S
Mn433 O457 2.215 1_556 S
Mn433 O459 2.117 . S
C434 O456 1.234 . S
C434 O457 1.283 . S
C435 O447 1.281 . S
C435 O448 1.236 . S
C436 O458 1.240 . S
C436 O459 1.264 . S
O437 Mn432 2.095 . S
O437 C446 1.250 . S
O438 Mn433 2.121 . S
O438 C446 1.258 1_556 S
C439 N440 1.326 . S
C439 C443 1.460 . S
C439 H445 0.929 1_556 S
N440 Mn433 2.257 . S
N440 C439 1.326 . S
N440 C444 1.362 . S
C441 C442 1.258 . S
C441 C444 1.431 . S
C441 C461 1.449 . S
C442 C441 1.258 . S
C442 C443 1.477 . S
C442 H462 0.931 . S
C443 C439 1.460 . S
C443 C442 1.477 . S
C443 H463 0.930 1_556 S
C444 N440 1.362 . S
C444 C441 1.431 . S
C444 C454 1.476 . S
H445 C439 0.929 1_554 S
C446 O437 1.250 . S
C446 O438 1.258 1_554 S
O447 Mn432 2.162 . S
O447 C435 1.281 . S
O448 Mn432 2.297 . S
O448 C435 1.236 . S
N449 Mn433 2.282 . S
N449 C450 1.328 . S
N449 C454 1.318 . S
C450 N449 1.328 . S
C450 C451 1.457 . S
C450 H455 0.929 . S
C451 C450 1.457 . S
C451 C452 1.291 . S
C451 H464 0.931 . S
C452 C451 1.291 . S
C452 C453 1.373 . S
C452 H465 0.929 . S
C453 C452 1.373 . S
C453 C454 1.396 . S
C453 C460 1.403 . S
C454 C444 1.476 . S
C454 N449 1.318 . S
C454 C453 1.396 . S
H455 C450 0.929 . S
O456 Mn432 2.385 . S
O456 C434 1.234 . S
O457 Mn432 2.209 . S
O457 Mn433 2.215 1_554 S
O457 C434 1.283 . S
O458 Mn432 2.094 1_556 S
O458 C436 1.240 . S
O459 Mn433 2.117 . S
O459 C436 1.264 . S
C460 C453 1.403 . S
C460 C461 1.399 . S
C460 H466 0.929 . S
C461 C441 1.449 . S
C461 C460 1.399 . S
C461 H467 0.930 . S
H462 C442 0.931 . S
H463 C443 0.930 1_554 S
H464 C451 0.931 . S
H465 C452 0.929 . S
H466 C460 0.929 . S
H467 C461 0.930 . S
Mn468 O473 2.095 1_554 S
Mn468 O483 2.162 . S
Mn468 O484 2.297 . S
Mn468 O492 2.385 . S
Mn468 O493 2.209 1_554 S
Mn468 O494 2.094 1_554 S
Mn469 O474 2.121 . S
Mn469 N476 2.257 . S
Mn469 N485 2.282 . S
Mn469 O493 2.215 . S
Mn469 O495 2.117 . S
C470 O492 1.234 1_556 S
C470 O493 1.283 . S
C471 O483 1.281 . S
C471 O484 1.236 . S
C472 O494 1.240 . S
C472 O495 1.264 . S
O473 Mn468 2.095 1_556 S
O473 C482 1.250 . S
O474 Mn469 2.121 . S
O474 C482 1.258 . S
C475 N476 1.326 . S
C475 C479 1.460 . S
C475 H481 0.929 . S
N476 Mn469 2.257 . S
N476 C475 1.326 . S
N476 C480 1.362 . S
C477 C478 1.258 . S
C477 C480 1.431 . S
C477 C497 1.449 . S
C478 C477 1.258 . S
C478 C479 1.477 . S
C478 H498 0.931 1_545 S
C479 C475 1.460 . S
C479 C478 1.477 . S
C479 H499 0.930 . S
C480 N476 1.362 . S
C480 C477 1.431 . S
C480 C490 1.476 . S
H481 C475 0.929 . S
C482 O473 1.250 . S
C482 O474 1.258 . S
O483 Mn468 2.162 . S
O483 C471 1.281 . S
O484 Mn468 2.297 . S
O484 C471 1.236 . S
N485 Mn469 2.282 . S
N485 C486 1.328 . S
N485 C490 1.318 . S
C486 N485 1.328 . S
C486 C487 1.457 . S
C486 H491 0.929 . S
C487 C486 1.457 . S
C487 C488 1.291 . S
C487 H500 0.931 . S
C488 C487 1.291 . S
C488 C489 1.373 . S
C488 H501 0.929 . S
C489 C488 1.373 . S
C489 C490 1.396 . S
C489 C496 1.403 . S
C490 C480 1.476 . S
C490 N485 1.318 . S
C490 C489 1.396 . S
H491 C486 0.929 . S
O492 Mn468 2.385 . S
O492 C470 1.234 1_554 S
O493 Mn468 2.209 1_556 S
O493 Mn469 2.215 . S
O493 C470 1.283 . S
O494 Mn468 2.094 1_556 S
O494 C472 1.240 . S
O495 Mn469 2.117 . S
O495 C472 1.264 . S
C496 C489 1.403 . S
C496 C497 1.399 . S
C496 H502 0.929 . S
C497 C477 1.449 . S
C497 C496 1.399 . S
C497 H503 0.930 . S
H498 C478 0.931 1_565 S
H499 C479 0.930 . S
H500 C487 0.931 . S
H501 C488 0.929 . S
H502 C496 0.929 . S
H503 C497 0.930 . S
Mn504 O509 2.095 . S
Mn504 O519 2.162 . S
Mn504 O520 2.297 . S
Mn504 O528 2.385 . S
Mn504 O529 2.209 . S
Mn504 O530 2.094 . S
Mn505 O510 2.121 . S
Mn505 N512 2.257 . S
Mn505 N521 2.282 . S
Mn505 O529 2.215 . S
Mn505 O531 2.117 . S
C506 O528 1.234 . S
C506 O529 1.283 . S
C507 O519 1.281 . S
C507 O520 1.236 . S
C508 O530 1.240 . S
C508 O531 1.264 . S
O509 Mn504 2.095 . S
O509 C518 1.250 . S
O510 Mn505 2.121 . S
O510 C518 1.258 . S
C511 N512 1.326 . S
C511 C515 1.460 . S
C511 H517 0.929 . S
N512 Mn505 2.257 . S
N512 C511 1.326 . S
N512 C516 1.362 . S
C513 C514 1.258 . S
C513 C516 1.431 . S
C513 C533 1.449 . S
C514 C513 1.258 . S
C514 C515 1.477 . S
C514 H534 0.931 . S
C515 C511 1.460 . S
C515 C514 1.477 . S
C515 H535 0.930 . S
C516 N512 1.362 . S
C516 C513 1.431 . S
C516 C526 1.476 . S
H517 C511 0.929 . S
C518 O509 1.250 . S
C518 O510 1.258 . S
O519 Mn504 2.162 . S
O519 C507 1.281 . S
O520 Mn504 2.297 . S
O520 C507 1.236 . S
N521 Mn505 2.282 . S
N521 C522 1.328 . S
N521 C526 1.318 . S
C522 N521 1.328 . S
C522 C523 1.457 . S
C522 H527 0.929 . S
C523 C522 1.457 . S
C523 C524 1.291 . S
C523 H536 0.931 . S
C524 C523 1.291 . S
C524 C525 1.373 . S
C524 H537 0.929 . S
C525 C524 1.373 . S
C525 C526 1.396 . S
C525 C532 1.403 . S
C526 C516 1.476 . S
C526 N521 1.318 . S
C526 C525 1.396 . S
H527 C522 0.929 . S
O528 Mn504 2.385 . S
O528 C506 1.234 . S
O529 Mn504 2.209 . S
O529 Mn505 2.215 . S
O529 C506 1.283 . S
O530 Mn504 2.094 . S
O530 C508 1.240 . S
O531 Mn505 2.117 . S
O531 C508 1.264 . S
C532 C525 1.403 . S
C532 C533 1.399 . S
C532 H538 0.929 . S
C533 C513 1.449 . S
C533 C532 1.399 . S
C533 H539 0.930 . S
H534 C514 0.931 . S
H535 C515 0.930 . S
H536 C523 0.931 . S
H537 C524 0.929 . S
H538 C532 0.929 . S
H539 C533 0.930 . S
Mn540 O545 2.095 . S
Mn540 O555 2.162 . S
Mn540 O556 2.297 . S
Mn540 O564 2.385 . S
Mn540 O565 2.209 . S
Mn540 O566 2.094 . S
Mn541 O546 2.121 . S
Mn541 N548 2.257 . S
Mn541 N557 2.282 . S
Mn541 O565 2.215 . S
Mn541 O567 2.117 . S
C542 O564 1.234 . S
C542 O565 1.283 . S
C543 O555 1.281 . S
C543 O556 1.236 . S
C544 O566 1.240 . S
C544 O567 1.264 . S
O545 Mn540 2.095 . S
O545 C554 1.250 . S
O546 Mn541 2.121 . S
O546 C554 1.258 . S
C547 N548 1.326 . S
C547 C551 1.481 . S
C547 H553 0.929 . S
N548 Mn541 2.257 . S
N548 C547 1.326 . S
N548 C552 1.362 . S
C549 C550 1.258 1_565 S
C549 C552 1.431 . S
C549 C569 1.449 . S
C550 C549 1.258 1_545 S
C550 C551 1.474 1_545 S
C550 H570 0.931 . S
C551 C547 1.481 . S
C551 C550 1.474 1_565 S
C551 H571 0.913 1_565 S
C552 N548 1.362 . S
C552 C549 1.431 . S
C552 C562 1.476 . S
H553 C547 0.929 . S
C554 O545 1.250 . S
C554 O546 1.258 . S
O555 Mn540 2.162 . S
O555 C543 1.281 . S
O556 Mn540 2.297 . S
O556 C543 1.236 . S
N557 Mn541 2.282 . S
N557 C558 1.328 . S
N557 C562 1.318 . S
C558 N557 1.328 . S
C558 C559 1.457 . S
C558 H563 0.929 . S
C559 C558 1.457 . S
C559 C560 1.291 . S
C559 H572 0.931 . S
C560 C559 1.291 . S
C560 C561 1.373 . S
C560 H573 0.929 . S
C561 C560 1.373 . S
C561 C562 1.396 . S
C561 C568 1.403 . S
C562 C552 1.476 . S
C562 N557 1.318 . S
C562 C561 1.396 . S
H563 C558 0.929 . S
O564 Mn540 2.385 . S
O564 C542 1.234 . S
O565 Mn540 2.209 . S
O565 Mn541 2.215 . S
O565 C542 1.283 . S
O566 Mn540 2.094 . S
O566 C544 1.240 . S
O567 Mn541 2.117 . S
O567 C544 1.264 . S
C568 C561 1.403 . S
C568 C569 1.399 . S
C568 H574 0.929 . S
C569 C549 1.449 . S
C569 C568 1.399 . S
C569 H575 0.930 1_565 S
H570 C550 0.931 . S
H571 C551 0.913 1_545 S
H572 C559 0.931 . S
H573 C560 0.929 . S
H574 C568 0.929 . S
H575 C569 0.930 1_545 S
Mn576 O581 2.095 . S
Mn576 O591 2.162 . S
Mn576 O592 2.297 . S
Mn576 O600 2.396 . S
Mn576 O601 2.209 . S
Mn576 O602 2.094 . S
Mn577 O582 2.121 . S
Mn577 N584 2.257 . S
Mn577 N593 2.282 . S
Mn577 O601 2.215 . S
Mn577 O603 2.117 . S
C578 O600 1.236 . S
C578 O601 1.283 . S
C579 O591 1.281 . S
C579 O592 1.236 . S
C580 O602 1.240 . S
C580 O603 1.264 . S
O581 Mn576 2.095 . S
O581 C590 1.250 . S
O582 Mn577 2.121 . S
O582 C590 1.258 . S
C583 N584 1.326 . S
C583 C587 1.460 . S
C583 H589 0.929 . S
N584 Mn577 2.257 . S
N584 C583 1.326 . S
N584 C588 1.362 . S
C585 C586 1.258 1_565 S
C585 C588 1.431 1_565 S
C585 C605 1.449 . S
C586 C585 1.258 1_545 S
C586 C587 1.477 . S
C586 H606 0.931 1_545 S
C587 C583 1.460 . S
C587 C586 1.477 . S
C587 H607 0.930 . S
C588 N584 1.362 . S
C588 C585 1.431 1_545 S
C588 C598 1.476 1_545 S
H589 C583 0.929 . S
C590 O581 1.250 . S
C590 O582 1.258 . S
O591 Mn576 2.162 . S
O591 C579 1.281 . S
O592 Mn576 2.297 . S
O592 C579 1.236 . S
N593 Mn577 2.282 . S
N593 C594 1.328 1_545 S
N593 C598 1.318 1_545 S
C594 N593 1.328 1_565 S
C594 C595 1.457 . S
C594 H599 0.937 . S
C595 C594 1.457 . S
C595 C596 1.291 . S
C595 H608 0.931 . S
C596 C595 1.291 . S
C596 C597 1.373 . S
C596 H609 0.929 . S
C597 C596 1.373 . S
C597 C598 1.396 . S
C597 C604 1.403 . S
C598 C588 1.476 1_565 S
C598 N593 1.318 1_565 S
C598 C597 1.396 . S
H599 C594 0.937 . S
O600 Mn576 2.396 . S
O600 C578 1.236 . S
O601 Mn576 2.209 . S
O601 Mn577 2.215 . S
O601 C578 1.283 . S
O602 Mn576 2.094 . S
O602 C580 1.240 . S
O603 Mn577 2.117 . S
O603 C580 1.264 . S
C604 C597 1.403 . S
C604 C605 1.399 . S
C604 H610 0.929 . S
C605 C585 1.449 . S
C605 C604 1.399 . S
C605 H611 0.930 . S
H606 C586 0.931 1_565 S
H607 C587 0.930 . S
H608 C595 0.931 . S
H609 C596 0.929 . S
H610 C604 0.929 . S
H611 C605 0.930 . S
Mn612 O617 2.095 . S
Mn612 O627 2.162 . S
Mn612 O628 2.297 . S
Mn612 O636 2.385 . S
Mn612 O637 2.209 . S
Mn612 O638 2.094 . S
Mn613 O618 2.121 . S
Mn613 N620 2.257 . S
Mn613 N629 2.282 . S
Mn613 O637 2.215 . S
Mn613 O639 2.117 . S
C614 O636 1.234 . S
C614 O637 1.283 . S
C615 O627 1.281 . S
C615 O628 1.236 . S
C616 O638 1.240 . S
C616 O639 1.264 . S
O617 Mn612 2.095 . S
O617 C626 1.250 . S
O618 Mn613 2.121 . S
O618 C626 1.258 . S
C619 N620 1.326 . S
C619 C623 1.460 . S
C619 H625 0.929 . S
N620 Mn613 2.257 . S
N620 C619 1.326 . S
N620 C624 1.362 . S
C621 C622 1.258 . S
C621 C624 1.431 . S
C621 C641 1.449 . S
C622 C621 1.258 . S
C622 C623 1.477 . S
C622 H642 0.931 . S
C623 C619 1.460 . S
C623 C622 1.477 . S
C623 H643 0.930 . S
C624 N620 1.362 . S
C624 C621 1.431 . S
C624 C634 1.476 . S
H625 C619 0.929 . S
C626 O617 1.250 . S
C626 O618 1.258 . S
O627 Mn612 2.162 . S
O627 C615 1.281 . S
O628 Mn612 2.297 . S
O628 C615 1.236 . S
N629 Mn613 2.282 . S
N629 C630 1.328 . S
N629 C634 1.318 . S
C630 N629 1.328 . S
C630 C631 1.457 . S
C630 H635 0.929 . S
C631 C630 1.457 . S
C631 C632 1.291 . S
C631 H644 0.931 . S
C632 C631 1.291 . S
C632 C633 1.373 . S
C632 H645 0.929 . S
C633 C632 1.373 . S
C633 C634 1.396 . S
C633 C640 1.403 . S
C634 C624 1.476 . S
C634 N629 1.318 . S
C634 C633 1.396 . S
H635 C630 0.929 . S
O636 Mn612 2.385 . S
O636 C614 1.234 . S
O637 Mn612 2.209 . S
O637 Mn613 2.215 . S
O637 C614 1.283 . S
O638 Mn612 2.094 . S
O638 C616 1.240 . S
O639 Mn613 2.117 . S
O639 C616 1.264 . S
C640 C633 1.403 . S
C640 C641 1.399 . S
C640 H646 0.929 . S
C641 C621 1.449 . S
C641 C640 1.399 . S
C641 H647 0.930 . S
H642 C622 0.931 . S
H643 C623 0.930 . S
H644 C631 0.931 . S
H645 C632 0.929 . S
H646 C640 0.929 . S
H647 C641 0.930 . S
Mn648 O653 2.095 . S
Mn648 O663 2.162 . S
Mn648 O664 2.297 . S
Mn648 O672 2.385 . S
Mn648 O673 2.209 . S
Mn648 O674 2.094 . S
Mn649 O654 2.121 . S
Mn649 N656 2.257 . S
Mn649 N665 2.282 . S
Mn649 O673 2.215 . S
Mn649 O675 2.117 . S
C650 O672 1.234 . S
C650 O673 1.283 . S
C651 O663 1.281 . S
C651 O664 1.236 . S
C652 O674 1.240 . S
C652 O675 1.264 . S
O653 Mn648 2.095 . S
O653 C662 1.250 . S
O654 Mn649 2.121 . S
O654 C662 1.258 . S
C655 N656 1.326 . S
C655 C659 1.460 . S
C655 H661 0.929 . S
N656 Mn649 2.257 . S
N656 C655 1.326 . S
N656 C660 1.362 . S
C657 C658 1.258 . S
C657 C660 1.431 . S
C657 C677 1.449 . S
C658 C657 1.258 . S
C658 C659 1.477 . S
C658 H678 0.931 . S
C659 C655 1.460 . S
C659 C658 1.477 . S
C659 H679 0.930 . S
C660 N656 1.362 . S
C660 C657 1.431 . S
C660 C670 1.476 . S
H661 C655 0.929 . S
C662 O653 1.250 . S
C662 O654 1.258 . S
O663 Mn648 2.162 . S
O663 C651 1.281 . S
O664 Mn648 2.297 . S
O664 C651 1.236 . S
N665 Mn649 2.282 . S
N665 C666 1.328 . S
N665 C670 1.318 . S
C666 N665 1.328 . S
C666 C667 1.457 . S
C666 H671 0.929 . S
C667 C666 1.457 . S
C667 C668 1.291 . S
C667 H680 0.931 . S
C668 C667 1.291 . S
C668 C669 1.373 . S
C668 H681 0.929 . S
C669 C668 1.373 . S
C669 C670 1.396 . S
C669 C676 1.403 . S
C670 C660 1.476 . S
C670 N665 1.318 . S
C670 C669 1.396 . S
H671 C666 0.929 . S
O672 Mn648 2.385 . S
O672 C650 1.234 . S
O673 Mn648 2.209 . S
O673 Mn649 2.215 . S
O673 C650 1.283 . S
O674 Mn648 2.094 . S
O674 C652 1.240 . S
O675 Mn649 2.117 . S
O675 C652 1.264 . S
C676 C669 1.403 . S
C676 C677 1.399 . S
C676 H682 0.929 . S
C677 C657 1.449 . S
C677 C676 1.399 . S
C677 H683 0.930 . S
H678 C658 0.931 . S
H679 C659 0.930 . S
H680 C667 0.931 . S
H681 C668 0.929 . S
H682 C676 0.929 . S
H683 C677 0.930 . S
Mn684 O689 2.095 1_545 S
Mn684 O699 2.162 . S
Mn684 O700 2.297 . S
Mn684 O708 2.385 . S
Mn684 O709 2.209 . S
Mn684 O710 2.094 . S
Mn685 O690 2.121 . S
Mn685 N692 2.257 . S
Mn685 N701 2.282 . S
Mn685 O709 2.215 . S
Mn685 O711 2.117 . S
C686 O708 1.234 . S
C686 O709 1.283 . S
C687 O699 1.281 . S
C687 O700 1.236 . S
C688 O710 1.240 . S
C688 O711 1.264 . S
O689 Mn684 2.095 1_565 S
O689 C698 1.250 . S
O690 Mn685 2.121 . S
O690 C698 1.258 1_545 S
C691 N692 1.326 . S
C691 C695 1.460 . S
C691 H697 0.929 . S
N692 Mn685 2.257 . S
N692 C691 1.326 . S
N692 C696 1.362 . S
C693 C694 1.258 . S
C693 C696 1.431 . S
C693 C713 1.449 . S
C694 C693 1.258 . S
C694 C695 1.477 . S
C694 H714 0.931 . S
C695 C691 1.460 . S
C695 C694 1.477 . S
C695 H715 0.930 . S
C696 N692 1.362 . S
C696 C693 1.431 . S
C696 C706 1.476 . S
H697 C691 0.929 . S
C698 O689 1.250 . S
C698 O690 1.258 1_565 S
O699 Mn684 2.162 . S
O699 C687 1.281 . S
O700 Mn684 2.297 . S
O700 C687 1.236 . S
N701 Mn685 2.282 . S
N701 C702 1.328 . S
N701 C706 1.318 . S
C702 N701 1.328 . S
C702 C703 1.457 . S
C702 H707 0.929 . S
C703 C702 1.457 . S
C703 C704 1.291 . S
C703 H716 0.931 . S
C704 C703 1.291 . S
C704 C705 1.373 . S
C704 H717 0.929 . S
C705 C704 1.373 . S
C705 C706 1.396 . S
C705 C712 1.403 . S
C706 C696 1.476 . S
C706 N701 1.318 . S
C706 C705 1.396 . S
H707 C702 0.929 . S
O708 Mn684 2.385 . S
O708 C686 1.234 . S
O709 Mn684 2.209 . S
O709 Mn685 2.215 . S
O709 C686 1.283 . S
O710 Mn684 2.094 . S
O710 C688 1.240 . S
O711 Mn685 2.117 . S
O711 C688 1.264 . S
C712 C705 1.403 . S
C712 C713 1.399 . S
C712 H718 0.929 . S
C713 C693 1.449 . S
C713 C712 1.399 . S
C713 H719 0.930 . S
H714 C694 0.931 . S
H715 C695 0.930 . S
H716 C703 0.931 . S
H717 C704 0.929 . S
H718 C712 0.929 . S
H719 C713 0.930 . S
Mn720 O725 2.095 . S
Mn720 O735 2.162 . S
Mn720 O736 2.297 . S
Mn720 O744 2.385 . S
Mn720 O745 2.209 . S
Mn720 O746 2.094 1_554 S
Mn721 O726 2.121 . S
Mn721 N728 2.257 . S
Mn721 N737 2.282 . S
Mn721 O745 2.215 1_556 S
Mn721 O747 2.117 . S
C722 O744 1.234 . S
C722 O745 1.283 . S
C723 O735 1.281 . S
C723 O736 1.236 . S
C724 O746 1.240 . S
C724 O747 1.264 . S
O725 Mn720 2.095 . S
O725 C734 1.252 . S
O726 Mn721 2.121 . S
O726 C734 1.248 1_556 S
C727 N728 1.326 . S
C727 C731 1.460 . S
C727 H733 0.929 . S
N728 Mn721 2.257 . S
N728 C727 1.326 . S
N728 C732 1.362 . S
C729 C730 1.258 . S
C729 C732 1.431 . S
C729 C749 1.449 . S
C730 C729 1.258 . S
C730 C731 1.477 . S
C730 H750 0.931 . S
C731 C727 1.460 . S
C731 C730 1.477 . S
C731 H751 0.930 . S
C732 N728 1.362 . S
C732 C729 1.431 . S
C732 C742 1.476 . S
H733 C727 0.929 . S
C734 O725 1.252 . S
C734 O726 1.248 1_554 S
O735 Mn720 2.162 . S
O735 C723 1.281 . S
O736 Mn720 2.297 . S
O736 C723 1.236 . S
N737 Mn721 2.282 . S
N737 C738 1.328 . S
N737 C742 1.318 . S
C738 N737 1.328 . S
C738 C739 1.457 . S
C738 H743 0.929 . S
C739 C738 1.457 . S
C739 C740 1.291 . S
C739 H752 0.931 . S
C740 C739 1.291 . S
C740 C741 1.373 . S
C740 H753 0.929 . S
C741 C740 1.373 . S
C741 C742 1.396 . S
C741 C748 1.403 . S
C742 C732 1.476 . S
C742 N737 1.318 . S
C742 C741 1.396 . S
H743 C738 0.929 . S
O744 Mn720 2.385 . S
O744 C722 1.234 . S
O745 Mn720 2.209 . S
O745 Mn721 2.215 1_554 S
O745 C722 1.283 . S
O746 Mn720 2.094 1_556 S
O746 C724 1.240 . S
O747 Mn721 2.117 . S
O747 C724 1.264 . S
C748 C741 1.403 . S
C748 C749 1.399 . S
C748 H754 0.929 . S
C749 C729 1.449 . S
C749 C748 1.399 . S
C749 H755 0.930 . S
H750 C730 0.931 . S
H751 C731 0.930 . S
H752 C739 0.931 . S
H753 C740 0.929 . S
H754 C748 0.929 . S
H755 C749 0.930 . S
Mn756 O761 2.095 . S
Mn756 O771 2.162 . S
Mn756 O772 2.297 . S
Mn756 O780 2.385 . S
Mn756 O781 2.209 . S
Mn756 O782 2.094 . S
Mn757 O762 2.121 . S
Mn757 N764 2.257 . S
Mn757 N773 2.282 . S
Mn757 O781 2.215 . S
Mn757 O783 2.117 . S
C758 O780 1.234 . S
C758 O781 1.283 . S
C759 O771 1.281 . S
C759 O772 1.236 . S
C760 O782 1.240 . S
C760 O783 1.264 . S
O761 Mn756 2.095 . S
O761 C770 1.250 . S
O762 Mn757 2.121 . S
O762 C770 1.258 . S
C763 N764 1.326 . S
C763 C767 1.460 . S
C763 H769 0.929 . S
N764 Mn757 2.257 . S
N764 C763 1.326 . S
N764 C768 1.362 . S
C765 C766 1.258 . S
C765 C768 1.431 . S
C765 C785 1.449 . S
C766 C765 1.258 . S
C766 C767 1.477 . S
C766 H786 0.931 . S
C767 C763 1.460 . S
C767 C766 1.477 . S
C767 H787 0.930 . S
C768 N764 1.362 . S
C768 C765 1.431 . S
C768 C778 1.476 . S
H769 C763 0.929 . S
C770 O761 1.250 . S
C770 O762 1.258 . S
O771 Mn756 2.162 . S
O771 C759 1.281 . S
O772 Mn756 2.297 . S
O772 C759 1.236 . S
N773 Mn757 2.282 . S
N773 C774 1.328 . S
N773 C778 1.318 . S
C774 N773 1.328 . S
C774 C775 1.457 . S
C774 H779 0.929 . S
C775 C774 1.457 . S
C775 C776 1.291 . S
C775 H788 0.931 . S
C776 C775 1.291 . S
C776 C777 1.373 . S
C776 H789 0.929 . S
C777 C776 1.373 . S
C777 C778 1.396 . S
C777 C784 1.403 . S
C778 C768 1.476 . S
C778 N773 1.318 . S
C778 C777 1.396 . S
H779 C774 0.929 . S
O780 Mn756 2.385 . S
O780 C758 1.234 . S
O781 Mn756 2.209 . S
O781 Mn757 2.215 . S
O781 C758 1.283 . S
O782 Mn756 2.094 . S
O782 C760 1.240 . S
O783 Mn757 2.117 . S
O783 C760 1.264 . S
C784 C777 1.403 . S
C784 C785 1.399 . S
C784 H790 0.929 . S
C785 C765 1.449 . S
C785 C784 1.399 . S
C785 H791 0.930 . S
H786 C766 0.931 . S
H787 C767 0.930 . S
H788 C775 0.931 . S
H789 C776 0.929 . S
H790 C784 0.929 . S
H791 C785 0.930 . S
Mn792 O797 2.095 . S
Mn792 O807 2.162 . S
Mn792 O808 2.297 . S
Mn792 O816 2.385 . S
Mn792 O817 2.209 . S
Mn792 O818 2.094 . S
Mn793 O798 2.121 . S
Mn793 N800 2.257 . S
Mn793 N809 2.282 . S
Mn793 O817 2.215 . S
Mn793 O819 2.117 . S
C794 O816 1.234 . S
C794 O817 1.283 . S
C795 O807 1.281 . S
C795 O808 1.236 . S
C796 O818 1.240 . S
C796 O819 1.264 . S
O797 Mn792 2.095 . S
O797 C806 1.250 . S
O798 Mn793 2.121 . S
O798 C806 1.258 . S
C799 N800 1.326 . S
C799 C803 1.460 . S
C799 H805 0.929 . S
N800 Mn793 2.257 . S
N800 C799 1.326 . S
N800 C804 1.362 . S
C801 C802 1.258 . S
C801 C804 1.431 . S
C801 C821 1.449 . S
C802 C801 1.258 . S
C802 C803 1.477 . S
C802 H822 0.931 . S
C803 C799 1.460 . S
C803 C802 1.477 . S
C803 H823 0.930 . S
C804 N800 1.362 . S
C804 C801 1.431 . S
C804 C814 1.476 . S
H805 C799 0.929 . S
C806 O797 1.250 . S
C806 O798 1.258 . S
O807 Mn792 2.162 . S
O807 C795 1.281 . S
O808 Mn792 2.297 . S
O808 C795 1.236 . S
N809 Mn793 2.282 . S
N809 C810 1.328 . S
N809 C814 1.318 . S
C810 N809 1.328 . S
C810 C811 1.457 . S
C810 H815 0.929 . S
C811 C810 1.457 . S
C811 C812 1.291 . S
C811 H824 0.931 . S
C812 C811 1.291 . S
C812 C813 1.373 . S
C812 H825 0.929 . S
C813 C812 1.373 . S
C813 C814 1.396 . S
C813 C820 1.403 . S
C814 C804 1.476 . S
C814 N809 1.318 . S
C814 C813 1.396 . S
H815 C810 0.929 . S
O816 Mn792 2.385 . S
O816 C794 1.234 . S
O817 Mn792 2.209 . S
O817 Mn793 2.215 . S
O817 C794 1.283 . S
O818 Mn792 2.094 . S
O818 C796 1.240 . S
O819 Mn793 2.117 . S
O819 C796 1.264 . S
C820 C813 1.403 . S
C820 C821 1.399 . S
C820 H826 0.929 . S
C821 C801 1.449 . S
C821 C820 1.399 . S
C821 H827 0.930 . S
H822 C802 0.931 . S
H823 C803 0.930 . S
H824 C811 0.931 . S
H825 C812 0.929 . S
H826 C820 0.929 . S
H827 C821 0.930 . S
Mn828 O833 2.095 . S
Mn828 O843 2.162 . S
Mn828 O844 2.297 . S
Mn828 O852 2.385 . S
Mn828 O853 2.209 . S
Mn828 O854 2.094 . S
Mn829 O834 2.121 . S
Mn829 N836 2.257 . S
Mn829 N845 2.282 . S
Mn829 O853 2.215 . S
Mn829 O855 2.117 . S
C830 O852 1.234 . S
C830 O853 1.283 . S
C831 O843 1.281 . S
C831 O844 1.236 . S
C832 O854 1.240 . S
C832 O855 1.264 . S
O833 Mn828 2.095 . S
O833 C842 1.250 . S
O834 Mn829 2.121 . S
O834 C842 1.258 . S
C835 N836 1.326 . S
C835 C839 1.460 . S
C835 H841 0.929 . S
N836 Mn829 2.257 . S
N836 C835 1.326 . S
N836 C840 1.362 . S
C837 C838 1.258 . S
C837 C840 1.431 . S
C837 C857 1.449 . S
C838 C837 1.258 . S
C838 C839 1.477 . S
C838 H858 0.931 . S
C839 C835 1.460 . S
C839 C838 1.477 . S
C839 H859 0.930 . S
C840 N836 1.362 . S
C840 C837 1.431 . S
C840 C850 1.476 . S
H841 C835 0.929 . S
C842 O833 1.250 . S
C842 O834 1.258 . S
O843 Mn828 2.162 . S
O843 C831 1.281 . S
O844 Mn828 2.297 . S
O844 C831 1.236 . S
N845 Mn829 2.282 . S
N845 C846 1.328 . S
N845 C850 1.318 . S
C846 N845 1.328 . S
C846 C847 1.457 . S
C846 H851 0.929 . S
C847 C846 1.457 . S
C847 C848 1.291 . S
C847 H860 0.931 . S
C848 C847 1.291 . S
C848 C849 1.373 . S
C848 H861 0.929 . S
C849 C848 1.373 . S
C849 C850 1.396 . S
C849 C856 1.403 . S
C850 C840 1.476 . S
C850 N845 1.318 . S
C850 C849 1.396 . S
H851 C846 0.929 . S
O852 Mn828 2.385 . S
O852 C830 1.234 . S
O853 Mn828 2.209 . S
O853 Mn829 2.215 . S
O853 C830 1.283 . S
O854 Mn828 2.094 . S
O854 C832 1.240 . S
O855 Mn829 2.117 . S
O855 C832 1.264 . S
C856 C849 1.403 . S
C856 C857 1.399 . S
C856 H862 0.929 . S
C857 C837 1.449 . S
C857 C856 1.399 . S
C857 H863 0.930 . S
H858 C838 0.931 . S
H859 C839 0.930 . S
H860 C847 0.931 . S
H861 C848 0.929 . S
H862 C856 0.929 . S
H863 C857 0.930 . S
Dy864 O868 2.398 . S
Dy864 O869 2.491 1_556 S
Dy864 O870 2.403 . S
Dy864 O871 2.664 1_655 S
Dy864 O875 2.326 . S
Dy864 O879 2.310 1_556 S
Dy864 O880 2.351 1_546 S
C865 O876 1.210 . S
C865 O877 1.357 1_545 S
C866 O868 1.185 . S
C866 O869 1.355 1_556 S
Dy867 O871 2.310 1_554 S
Dy867 O874 2.351 . S
Dy867 O876 2.398 . S
Dy867 O877 2.491 1_545 S
Dy867 O878 2.403 . S
Dy867 O879 2.664 1_455 S
Dy867 O881 2.326 1_545 S
O868 Dy864 2.398 . S
O868 C866 1.185 . S
O869 Dy864 2.491 1_554 S
O869 C866 1.355 1_554 S
O870 Dy864 2.403 . S
O870 C872 1.254 1_655 S
O871 Dy864 2.664 1_455 S
O871 Dy867 2.310 1_556 S
O871 C872 1.268 . S
C872 O870 1.254 1_455 S
C872 O871 1.268 . S
C873 O878 1.254 . S
C873 O879 1.268 1_455 S
O874 Dy867 2.351 . S
O874 C882 1.249 1_554 S
O875 Dy864 2.326 . S
O875 C882 1.267 1_655 S
O876 C865 1.210 . S
O876 Dy867 2.398 . S
O877 C865 1.357 1_565 S
O877 Dy867 2.491 1_565 S
O878 Dy867 2.403 . S
O878 C873 1.254 . S
O879 Dy864 2.310 1_554 S
O879 Dy867 2.664 1_655 S
O879 C873 1.268 1_655 S
O880 Dy864 2.351 1_564 S
O880 C883 1.249 1_655 S
O881 Dy867 2.326 1_565 S
O881 C883 1.267 . S
C882 O874 1.249 1_556 S
C882 O875 1.267 1_455 S
C883 O880 1.249 1_455 S
C883 O881 1.267 . S
Dy884 O888 2.398 . S
Dy884 O889 2.491 . S
Dy884 O890 2.403 . S
Dy884 O891 2.664 . S
Dy884 O895 2.326 . S
Dy884 O899 2.310 . S
Dy884 O900 2.351 . S
C885 O896 1.185 . S
C885 O897 1.355 . S
C886 O888 1.185 . S
C886 O889 1.355 . S
Dy887 O891 2.310 . S
Dy887 O894 2.351 . S
Dy887 O896 2.398 . S
Dy887 O897 2.491 . S
Dy887 O898 2.403 . S
Dy887 O899 2.664 . S
Dy887 O901 2.326 . S
O888 Dy884 2.398 . S
O888 C886 1.185 . S
O889 Dy884 2.491 . S
O889 C886 1.355 . S
O890 Dy884 2.403 . S
O890 C892 1.254 . S
O891 Dy884 2.664 . S
O891 Dy887 2.310 . S
O891 C892 1.268 . S
C892 O890 1.254 . S
C892 O891 1.268 . S
C893 O898 1.254 . S
C893 O899 1.268 . S
O894 Dy887 2.351 . S
O894 C902 1.249 . S
O895 Dy884 2.326 . S
O895 C902 1.267 . S
O896 C885 1.185 . S
O896 Dy887 2.398 . S
O897 C885 1.355 . S
O897 Dy887 2.491 . S
O898 Dy887 2.403 . S
O898 C893 1.254 . S
O899 Dy884 2.310 . S
O899 Dy887 2.664 . S
O899 C893 1.268 . S
O900 Dy884 2.351 . S
O900 C903 1.249 . S
O901 Dy887 2.326 . S
O901 C903 1.267 . S
C902 O894 1.249 . S
C902 O895 1.267 . S
C903 O900 1.249 . S
C903 O901 1.267 . S
Dy904 O908 2.398 . S
Dy904 O909 2.491 . S
Dy904 O910 2.403 . S
Dy904 O911 2.664 . S
Dy904 O915 2.326 1_545 S
Dy904 O919 2.310 . S
Dy904 O920 2.351 . S
C905 O916 1.185 . S
C905 O917 1.355 . S
C906 O908 1.185 . S
C906 O909 1.355 . S
Dy907 O911 2.310 . S
Dy907 O914 2.351 1_545 S
Dy907 O916 2.398 . S
Dy907 O917 2.491 . S
Dy907 O918 2.403 . S
Dy907 O919 2.664 . S
Dy907 O921 2.326 . S
O908 Dy904 2.398 . S
O908 C906 1.185 . S
O909 Dy904 2.491 . S
O909 C906 1.355 . S
O910 Dy904 2.403 . S
O910 C912 1.254 . S
O911 Dy904 2.664 . S
O911 Dy907 2.310 . S
O911 C912 1.268 . S
C912 O910 1.254 . S
C912 O911 1.268 . S
C913 O918 1.254 . S
C913 O919 1.268 . S
O914 Dy907 2.351 1_565 S
O914 C922 1.249 . S
O915 Dy904 2.326 1_565 S
O915 C922 1.267 . S
O916 C905 1.185 . S
O916 Dy907 2.398 . S
O917 C905 1.355 . S
O917 Dy907 2.491 . S
O918 Dy907 2.403 . S
O918 C913 1.254 . S
O919 Dy904 2.310 . S
O919 Dy907 2.664 . S
O919 C913 1.268 . S
O920 Dy904 2.351 . S
O920 C923 1.249 . S
O921 Dy907 2.326 . S
O921 C923 1.267 . S
C922 O914 1.249 . S
C922 O915 1.267 . S
C923 O920 1.249 . S
C923 O921 1.267 . S
Dy924 O928 2.398 . S
Dy924 O929 2.491 . S
Dy924 O930 2.403 . S
Dy924 O931 2.664 . S
Dy924 O935 2.326 . S
Dy924 O939 2.310 . S
Dy924 O940 2.351 . S
C925 O936 1.185 . S
C925 O937 1.355 . S
C926 O928 1.185 . S
C926 O929 1.355 . S
Dy927 O931 2.310 . S
Dy927 O934 2.351 . S
Dy927 O936 2.398 . S
Dy927 O937 2.491 . S
Dy927 O938 2.403 . S
Dy927 O939 2.664 . S
Dy927 O941 2.326 . S
O928 Dy924 2.398 . S
O928 C926 1.185 . S
O929 Dy924 2.491 . S
O929 C926 1.355 . S
O930 Dy924 2.403 . S
O930 C932 1.254 . S
O931 Dy924 2.664 . S
O931 Dy927 2.310 . S
O931 C932 1.268 . S
C932 O930 1.254 . S
C932 O931 1.268 . S
C933 O938 1.254 . S
C933 O939 1.268 . S
O934 Dy927 2.351 . S
O934 C942 1.249 . S
O935 Dy924 2.326 . S
O935 C942 1.267 . S
O936 C925 1.185 . S
O936 Dy927 2.398 . S
O937 C925 1.355 . S
O937 Dy927 2.491 . S
O938 Dy927 2.403 . S
O938 C933 1.254 . S
O939 Dy924 2.310 . S
O939 Dy927 2.664 . S
O939 C933 1.268 . S
O940 Dy924 2.351 . S
O940 C943 1.249 . S
O941 Dy927 2.326 . S
O941 C943 1.267 . S
C942 O934 1.249 . S
C942 O935 1.267 . S
C943 O940 1.249 . S
C943 O941 1.267 . S
Dy944 O948 2.398 . S
Dy944 O949 2.491 1_455 S
Dy944 O950 2.403 . S
Dy944 O951 2.664 . S
Dy944 O955 2.326 . S
Dy944 O959 2.310 1_455 S
Dy944 O960 2.351 1_545 S
C945 O956 1.185 . S
C945 O957 1.355 . S
C946 O948 1.185 1_655 S
C946 O949 1.355 . S
Dy947 O951 2.310 . S
Dy947 O954 2.351 . S
Dy947 O956 2.398 . S
Dy947 O957 2.491 . S
Dy947 O958 2.403 1_455 S
Dy947 O959 2.664 1_455 S
Dy947 O961 2.326 1_545 S
O948 Dy944 2.398 . S
O948 C946 1.185 1_455 S
O949 Dy944 2.491 1_655 S
O949 C946 1.355 . S
O950 Dy944 2.403 . S
O950 C952 1.254 . S
O951 Dy944 2.664 . S
O951 Dy947 2.310 . S
O951 C952 1.268 . S
C952 O950 1.254 . S
C952 O951 1.268 . S
C953 O958 1.254 . S
C953 O959 1.268 . S
O954 Dy947 2.351 . S
O954 C962 1.249 . S
O955 Dy944 2.326 . S
O955 C962 1.267 . S
O956 C945 1.185 . S
O956 Dy947 2.398 . S
O957 C945 1.355 . S
O957 Dy947 2.491 . S
O958 Dy947 2.403 1_655 S
O958 C953 1.254 . S
O959 Dy944 2.310 1_655 S
O959 Dy947 2.664 1_655 S
O959 C953 1.268 . S
O960 Dy944 2.351 1_565 S
O960 C963 1.249 . S
O961 Dy947 2.326 1_565 S
O961 C963 1.267 . S
C962 O954 1.249 . S
C962 O955 1.267 . S
C963 O960 1.249 . S
C963 O961 1.267 . S
Dy964 O968 2.398 . S
Dy964 O969 2.491 . S
Dy964 O970 2.403 . S
Dy964 O971 2.664 . S
Dy964 O975 2.326 . S
Dy964 O979 2.310 . S
Dy964 O980 2.351 . S
C965 O976 1.185 . S
C965 O977 1.355 . S
C966 O968 1.185 . S
C966 O969 1.355 . S
Dy967 O971 2.310 . S
Dy967 O974 2.351 . S
Dy967 O976 2.398 . S
Dy967 O977 2.491 . S
Dy967 O978 2.403 . S
Dy967 O979 2.664 . S
Dy967 O981 2.326 . S
O968 Dy964 2.398 . S
O968 C966 1.185 . S
O969 Dy964 2.491 . S
O969 C966 1.355 . S
O970 Dy964 2.403 . S
O970 C972 1.254 . S
O971 Dy964 2.664 . S
O971 Dy967 2.310 . S
O971 C972 1.268 . S
C972 O970 1.254 . S
C972 O971 1.268 . S
C973 O978 1.254 . S
C973 O979 1.268 . S
O974 Dy967 2.351 . S
O974 C982 1.249 . S
O975 Dy964 2.326 . S
O975 C982 1.267 . S
O976 C965 1.185 . S
O976 Dy967 2.398 . S
O977 C965 1.355 . S
O977 Dy967 2.491 . S
O978 Dy967 2.403 . S
O978 C973 1.254 . S
O979 Dy964 2.310 . S
O979 Dy967 2.664 . S
O979 C973 1.268 . S
O980 Dy964 2.351 . S
O980 C983 1.249 . S
O981 Dy967 2.326 . S
O981 C983 1.267 . S
C982 O974 1.249 . S
C982 O975 1.267 . S
C983 O980 1.249 . S
C983 O981 1.267 . S
Dy984 O988 2.398 1_545 S
Dy984 O989 2.491 . S
Dy984 O990 2.403 1_545 S
Dy984 O991 2.664 1_554 S
Dy984 O995 2.326 . S
Dy984 O999 2.310 . S
Dy984 O1000 2.351 . S
C985 O996 1.185 . S
C985 O997 1.355 . S
C986 O988 1.185 1_545 S
C986 O989 1.355 . S
Dy987 O991 2.310 . S
Dy987 O994 2.351 . S
Dy987 O996 2.398 . S
Dy987 O997 2.491 . S
Dy987 O998 2.403 . S
Dy987 O999 2.664 1_556 S
Dy987 O1001 2.326 . S
O988 Dy984 2.398 1_565 S
O988 C986 1.185 1_565 S
O989 Dy984 2.491 . S
O989 C986 1.355 . S
O990 Dy984 2.403 1_565 S
O990 C992 1.254 . S
O991 Dy984 2.664 1_556 S
O991 Dy987 2.310 . S
O991 C992 1.268 1_546 S
C992 O990 1.254 . S
C992 O991 1.268 1_564 S
C993 O998 1.254 1_554 S
C993 O999 1.268 . S
O994 Dy987 2.351 . S
O994 C1002 1.249 1_556 S
O995 Dy984 2.326 . S
O995 C1002 1.267 . S
O996 C985 1.185 . S
O996 Dy987 2.398 . S
O997 C985 1.355 . S
O997 Dy987 2.491 . S
O998 Dy987 2.403 . S
O998 C993 1.254 1_556 S
O999 Dy984 2.310 . S
O999 Dy987 2.664 1_554 S
O999 C993 1.268 . S
O1000 Dy984 2.351 . S
O1000 C1003 1.249 . S
O1001 Dy987 2.326 . S
O1001 C1003 1.267 1_556 S
C1002 O994 1.249 1_554 S
C1002 O995 1.267 . S
C1003 O1000 1.249 . S
C1003 O1001 1.267 1_554 S
Dy1004 O1008 2.398 . S
Dy1004 O1009 2.491 . S
Dy1004 O1010 2.403 . S
Dy1004 O1011 2.664 . S
Dy1004 O1015 2.326 . S
Dy1004 O1019 2.310 . S
Dy1004 O1020 2.351 . S
C1005 O1016 1.185 . S
C1005 O1017 1.355 . S
C1006 O1008 1.185 . S
C1006 O1009 1.355 . S
Dy1007 O1011 2.310 . S
Dy1007 O1014 2.351 . S
Dy1007 O1016 2.398 . S
Dy1007 O1017 2.491 . S
Dy1007 O1018 2.403 . S
Dy1007 O1019 2.664 . S
Dy1007 O1021 2.326 . S
O1008 Dy1004 2.398 . S
O1008 C1006 1.185 . S
O1009 Dy1004 2.491 . S
O1009 C1006 1.355 . S
O1010 Dy1004 2.403 . S
O1010 C1012 1.254 . S
O1011 Dy1004 2.664 . S
O1011 Dy1007 2.310 . S
O1011 C1012 1.268 . S
C1012 O1010 1.254 . S
C1012 O1011 1.268 . S
C1013 O1018 1.254 . S
C1013 O1019 1.268 . S
O1014 Dy1007 2.351 . S
O1014 C1022 1.249 . S
O1015 Dy1004 2.326 . S
O1015 C1022 1.267 . S
O1016 C1005 1.185 . S
O1016 Dy1007 2.398 . S
O1017 C1005 1.355 . S
O1017 Dy1007 2.491 . S
O1018 Dy1007 2.403 . S
O1018 C1013 1.254 . S
O1019 Dy1004 2.310 . S
O1019 Dy1007 2.664 . S
O1019 C1013 1.268 . S
O1020 Dy1004 2.351 . S
O1020 C1023 1.249 . S
O1021 Dy1007 2.326 . S
O1021 C1023 1.267 . S
C1022 O1014 1.249 . S
C1022 O1015 1.267 . S
C1023 O1020 1.249 . S
C1023 O1021 1.267 . S
Dy1024 O1028 2.398 . S
Dy1024 O1029 2.491 . S
Dy1024 O1030 2.403 . S
Dy1024 O1031 2.664 1_556 S
Dy1024 O1035 2.326 . S
Dy1024 O1039 2.310 1_556 S
Dy1024 O1040 2.351 1_556 S
C1025 O1036 1.185 . S
C1025 O1037 1.355 . S
C1026 O1028 1.185 . S
C1026 O1029 1.355 . S
Dy1027 O1031 2.310 . S
Dy1027 O1034 2.351 . S
Dy1027 O1036 2.398 . S
Dy1027 O1037 2.491 . S
Dy1027 O1038 2.403 . S
Dy1027 O1039 2.664 . S
Dy1027 O1041 2.326 . S
O1028 Dy1024 2.398 . S
O1028 C1026 1.185 . S
O1029 Dy1024 2.491 . S
O1029 C1026 1.355 . S
O1030 Dy1024 2.403 . S
O1030 C1032 1.269 . S
O1031 Dy1024 2.664 1_554 S
O1031 Dy1027 2.310 . S
O1031 C1032 1.257 1_554 S
C1032 O1030 1.269 . S
C1032 O1031 1.257 1_556 S
C1033 O1038 1.254 . S
C1033 O1039 1.268 . S
O1034 Dy1027 2.351 . S
O1034 C1042 1.249 1_554 S
O1035 Dy1024 2.326 . S
O1035 C1042 1.267 . S
O1036 C1025 1.185 . S
O1036 Dy1027 2.398 . S
O1037 C1025 1.355 . S
O1037 Dy1027 2.491 . S
O1038 Dy1027 2.403 . S
O1038 C1033 1.254 . S
O1039 Dy1024 2.310 1_554 S
O1039 Dy1027 2.664 . S
O1039 C1033 1.268 . S
O1040 Dy1024 2.351 1_554 S
O1040 C1043 1.249 . S
O1041 Dy1027 2.326 . S
O1041 C1043 1.267 . S
C1042 O1034 1.249 1_556 S
C1042 O1035 1.267 . S
C1043 O1040 1.249 . S
C1043 O1041 1.267 . S
Dy1044 O1048 2.398 . S
Dy1044 O1049 2.491 . S
Dy1044 O1050 2.403 . S
Dy1044 O1051 2.664 . S
Dy1044 O1055 2.326 . S
Dy1044 O1059 2.310 . S
Dy1044 O1060 2.351 . S
C1045 O1056 1.185 . S
C1045 O1057 1.355 . S
C1046 O1048 1.185 . S
C1046 O1049 1.355 . S
Dy1047 O1051 2.310 . S
Dy1047 O1054 2.351 . S
Dy1047 O1056 2.398 . S
Dy1047 O1057 2.491 . S
Dy1047 O1058 2.403 . S
Dy1047 O1059 2.664 . S
Dy1047 O1061 2.326 . S
O1048 Dy1044 2.398 . S
O1048 C1046 1.185 . S
O1049 Dy1044 2.491 . S
O1049 C1046 1.355 . S
O1050 Dy1044 2.403 . S
O1050 C1052 1.254 . S
O1051 Dy1044 2.664 . S
O1051 Dy1047 2.310 . S
O1051 C1052 1.268 . S
C1052 O1050 1.254 . S
C1052 O1051 1.268 . S
C1053 O1058 1.254 . S
C1053 O1059 1.268 . S
O1054 Dy1047 2.351 . S
O1054 C1062 1.249 . S
O1055 Dy1044 2.326 . S
O1055 C1062 1.267 . S
O1056 C1045 1.185 . S
O1056 Dy1047 2.398 . S
O1057 C1045 1.355 . S
O1057 Dy1047 2.491 . S
O1058 Dy1047 2.403 . S
O1058 C1053 1.254 . S
O1059 Dy1044 2.310 . S
O1059 Dy1047 2.664 . S
O1059 C1053 1.268 . S
O1060 Dy1044 2.351 . S
O1060 C1063 1.249 . S
O1061 Dy1047 2.326 . S
O1061 C1063 1.267 . S
C1062 O1054 1.249 . S
C1062 O1055 1.267 . S
C1063 O1060 1.249 . S
C1063 O1061 1.267 . S
Dy1064 O1068 2.398 . S
Dy1064 O1069 2.491 1_455 S
Dy1064 O1070 2.403 . S
Dy1064 O1071 2.664 . S
Dy1064 O1075 2.326 1_455 S
Dy1064 O1079 2.310 . S
Dy1064 O1080 2.351 . S
C1065 O1076 1.185 . S
C1065 O1077 1.355 . S
C1066 O1068 1.185 1_655 S
C1066 O1069 1.355 . S
Dy1067 O1071 2.310 . S
Dy1067 O1074 2.351 1_455 S
Dy1067 O1076 2.398 . S
Dy1067 O1077 2.491 . S
Dy1067 O1078 2.403 . S
Dy1067 O1079 2.664 . S
Dy1067 O1081 2.326 . S
O1068 Dy1064 2.398 . S
O1068 C1066 1.185 1_455 S
O1069 Dy1064 2.491 1_655 S
O1069 C1066 1.355 . S
O1070 Dy1064 2.403 . S
O1070 C1072 1.254 . S
O1071 Dy1064 2.664 . S
O1071 Dy1067 2.310 . S
O1071 C1072 1.268 . S
C1072 O1070 1.254 . S
C1072 O1071 1.268 . S
C1073 O1078 1.254 . S
C1073 O1079 1.268 . S
O1074 Dy1067 2.351 1_655 S
O1074 C1082 1.249 . S
O1075 Dy1064 2.326 1_655 S
O1075 C1082 1.267 . S
O1076 C1065 1.185 . S
O1076 Dy1067 2.398 . S
O1077 C1065 1.355 . S
O1077 Dy1067 2.491 . S
O1078 Dy1067 2.403 . S
O1078 C1073 1.254 . S
O1079 Dy1064 2.310 . S
O1079 Dy1067 2.664 . S
O1079 C1073 1.268 . S
O1080 Dy1064 2.351 . S
O1080 C1083 1.249 . S
O1081 Dy1067 2.326 . S
O1081 C1083 1.267 . S
C1082 O1074 1.249 . S
C1082 O1075 1.267 . S
C1083 O1080 1.249 . S
C1083 O1081 1.267 . S
Dy1084 O1088 2.398 . S
Dy1084 O1089 2.491 . S
Dy1084 O1090 2.403 . S
Dy1084 O1091 2.664 . S
Dy1084 O1095 2.326 . S
Dy1084 O1099 2.310 . S
Dy1084 O1100 2.351 . S
C1085 O1096 1.185 . S
C1085 O1097 1.355 . S
C1086 O1088 1.185 . S
C1086 O1089 1.355 . S
Dy1087 O1091 2.310 . S
Dy1087 O1094 2.351 . S
Dy1087 O1096 2.398 . S
Dy1087 O1097 2.491 . S
Dy1087 O1098 2.403 . S
Dy1087 O1099 2.664 . S
Dy1087 O1101 2.326 . S
O1088 Dy1084 2.398 . S
O1088 C1086 1.185 . S
O1089 Dy1084 2.491 . S
O1089 C1086 1.355 . S
O1090 Dy1084 2.403 . S
O1090 C1092 1.254 . S
O1091 Dy1084 2.664 . S
O1091 Dy1087 2.310 . S
O1091 C1092 1.268 . S
C1092 O1090 1.254 . S
C1092 O1091 1.268 . S
C1093 O1098 1.254 . S
C1093 O1099 1.268 . S
O1094 Dy1087 2.351 . S
O1094 C1102 1.249 . S
O1095 Dy1084 2.326 . S
O1095 C1102 1.267 . S
O1096 C1085 1.185 . S
O1096 Dy1087 2.398 . S
O1097 C1085 1.355 . S
O1097 Dy1087 2.491 . S
O1098 Dy1087 2.403 . S
O1098 C1093 1.254 . S
O1099 Dy1084 2.310 . S
O1099 Dy1087 2.664 . S
O1099 C1093 1.268 . S
O1100 Dy1084 2.351 . S
O1100 C1103 1.249 . S
O1101 Dy1087 2.326 . S
O1101 C1103 1.267 . S
C1102 O1094 1.249 . S
C1102 O1095 1.267 . S
C1103 O1100 1.249 . S
C1103 O1101 1.267 . S
Dy1104 O1108 2.398 . S
Dy1104 O1109 2.491 . S
Dy1104 O1110 2.403 . S
Dy1104 O1111 2.664 . S
Dy1104 O1115 2.326 . S
Dy1104 O1119 2.310 . S
Dy1104 O1120 2.351 . S
C1105 O1116 1.185 . S
C1105 O1117 1.355 . S
C1106 O1108 1.185 . S
C1106 O1109 1.355 . S
Dy1107 O1111 2.310 . S
Dy1107 O1114 2.351 . S
Dy1107 O1116 2.398 . S
Dy1107 O1117 2.491 . S
Dy1107 O1118 2.403 . S
Dy1107 O1119 2.664 . S
Dy1107 O1121 2.326 . S
O1108 Dy1104 2.398 . S
O1108 C1106 1.185 . S
O1109 Dy1104 2.491 . S
O1109 C1106 1.355 . S
O1110 Dy1104 2.403 . S
O1110 C1112 1.254 . S
O1111 Dy1104 2.664 . S
O1111 Dy1107 2.310 . S
O1111 C1112 1.268 . S
C1112 O1110 1.254 . S
C1112 O1111 1.268 . S
C1113 O1118 1.254 . S
C1113 O1119 1.268 . S
O1114 Dy1107 2.351 . S
O1114 C1122 1.249 . S
O1115 Dy1104 2.326 . S
O1115 C1122 1.267 . S
O1116 C1105 1.185 . S
O1116 Dy1107 2.398 . S
O1117 C1105 1.355 . S
O1117 Dy1107 2.491 . S
O1118 Dy1107 2.403 . S
O1118 C1113 1.254 . S
O1119 Dy1104 2.310 . S
O1119 Dy1107 2.664 . S
O1119 C1113 1.268 . S
O1120 Dy1104 2.351 . S
O1120 C1123 1.249 . S
O1121 Dy1107 2.326 . S
O1121 C1123 1.267 . S
C1122 O1114 1.249 . S
C1122 O1115 1.267 . S
C1123 O1120 1.249 . S
C1123 O1121 1.267 . S
Dy1124 O1128 2.398 . S
Dy1124 O1129 2.491 . S
Dy1124 O1130 2.403 . S
Dy1124 O1131 2.664 . S
Dy1124 O1135 2.326 . S
Dy1124 O1139 2.310 . S
Dy1124 O1140 2.351 . S
C1125 O1136 1.185 . S
C1125 O1137 1.355 . S
C1126 O1128 1.185 . S
C1126 O1129 1.355 . S
Dy1127 O1131 2.310 . S
Dy1127 O1134 2.351 . S
Dy1127 O1136 2.398 . S
Dy1127 O1137 2.491 . S
Dy1127 O1138 2.403 . S
Dy1127 O1139 2.664 . S
Dy1127 O1141 2.326 . S
O1128 Dy1124 2.398 . S
O1128 C1126 1.185 . S
O1129 Dy1124 2.491 . S
O1129 C1126 1.355 . S
O1130 Dy1124 2.403 . S
O1130 C1132 1.254 . S
O1131 Dy1124 2.664 . S
O1131 Dy1127 2.310 . S
O1131 C1132 1.268 . S
C1132 O1130 1.254 . S
C1132 O1131 1.268 . S
C1133 O1138 1.254 . S
C1133 O1139 1.268 . S
O1134 Dy1127 2.351 . S
O1134 C1142 1.249 . S
O1135 Dy1124 2.326 . S
O1135 C1142 1.267 . S
O1136 C1125 1.185 . S
O1136 Dy1127 2.398 . S
O1137 C1125 1.355 . S
O1137 Dy1127 2.491 . S
O1138 Dy1127 2.403 . S
O1138 C1133 1.254 . S
O1139 Dy1124 2.310 . S
O1139 Dy1127 2.664 . S
O1139 C1133 1.268 . S
O1140 Dy1124 2.351 . S
O1140 C1143 1.249 . S
O1141 Dy1127 2.326 . S
O1141 C1143 1.267 . S
C1142 O1134 1.249 . S
C1142 O1135 1.267 . S
C1143 O1140 1.249 . S
C1143 O1141 1.267 . S
Dy1144 O1148 2.398 . S
Dy1144 O1149 2.491 . S
Dy1144 O1150 2.403 . S
Dy1144 O1151 2.664 . S
Dy1144 O1155 2.326 . S
Dy1144 O1159 2.310 . S
Dy1144 O1160 2.351 . S
C1145 O1156 1.185 . S
C1145 O1157 1.355 . S
C1146 O1148 1.185 . S
C1146 O1149 1.355 . S
Dy1147 O1151 2.310 . S
Dy1147 O1154 2.351 . S
Dy1147 O1156 2.398 . S
Dy1147 O1157 2.491 . S
Dy1147 O1158 2.403 . S
Dy1147 O1159 2.664 . S
Dy1147 O1161 2.326 . S
O1148 Dy1144 2.398 . S
O1148 C1146 1.185 . S
O1149 Dy1144 2.491 . S
O1149 C1146 1.355 . S
O1150 Dy1144 2.403 . S
O1150 C1152 1.254 . S
O1151 Dy1144 2.664 . S
O1151 Dy1147 2.310 . S
O1151 C1152 1.268 . S
C1152 O1150 1.254 . S
C1152 O1151 1.268 . S
C1153 O1158 1.254 . S
C1153 O1159 1.268 . S
O1154 Dy1147 2.351 . S
O1154 C1162 1.249 . S
O1155 Dy1144 2.326 . S
O1155 C1162 1.267 . S
O1156 C1145 1.185 . S
O1156 Dy1147 2.398 . S
O1157 C1145 1.355 . S
O1157 Dy1147 2.491 . S
O1158 Dy1147 2.403 . S
O1158 C1153 1.254 . S
O1159 Dy1144 2.310 . S
O1159 Dy1147 2.664 . S
O1159 C1153 1.268 . S
O1160 Dy1144 2.351 . S
O1160 C1163 1.249 . S
O1161 Dy1147 2.326 . S
O1161 C1163 1.267 . S
C1162 O1154 1.249 . S
C1162 O1155 1.267 . S
C1163 O1160 1.249 . S
C1163 O1161 1.267 . S
Dy1164 O1168 2.416 . S
Dy1164 O1169 2.480 1_556 S
Dy1164 O1170 2.435 . S
Dy1164 O1171 2.673 . S
Dy1164 O1175 2.333 . S
Dy1164 O1179 2.282 1_556 S
Dy1164 O1180 2.344 1_556 S
C1165 O1176 1.185 . S
C1165 O1177 1.355 . S
C1166 O1168 1.185 . S
C1166 O1169 1.355 1_556 S
Dy1167 O1171 2.310 1_654 S
Dy1167 O1174 2.351 . S
Dy1167 O1176 2.398 . S
Dy1167 O1177 2.491 . S
Dy1167 O1178 2.403 . S
Dy1167 O1179 2.664 1_655 S
Dy1167 O1181 2.326 1_655 S
O1168 Dy1164 2.416 . S
O1168 C1166 1.185 . S
O1169 Dy1164 2.480 1_554 S
O1169 C1166 1.355 1_554 S
O1170 Dy1164 2.435 . S
O1170 C1172 1.254 . S
O1171 Dy1164 2.673 . S
O1171 Dy1167 2.310 1_456 S
O1171 C1172 1.268 . S
C1172 O1170 1.254 . S
C1172 O1171 1.268 . S
C1173 O1178 1.254 1_455 S
C1173 O1179 1.268 . S
O1174 Dy1167 2.351 . S
O1174 C1182 1.249 1_654 S
O1175 Dy1164 2.333 . S
O1175 C1182 1.267 . S
O1176 C1165 1.185 . S
O1176 Dy1167 2.398 . S
O1177 C1165 1.355 . S
O1177 Dy1167 2.491 . S
O1178 Dy1167 2.403 . S
O1178 C1173 1.254 1_655 S
O1179 Dy1164 2.282 1_554 S
O1179 Dy1167 2.664 1_455 S
O1179 C1173 1.268 . S
O1180 Dy1164 2.344 1_554 S
O1180 C1183 1.249 . S
O1181 Dy1167 2.326 1_455 S
O1181 C1183 1.267 . S
C1182 O1174 1.249 1_456 S
C1182 O1175 1.267 . S
C1183 O1180 1.249 . S
C1183 O1181 1.267 . S
H1184 C1192 0.950 . S
H1185 C1197 0.950 . S
H1186 C1194 0.950 . S
H1187 C1196 0.950 . S
H1188 C1198 0.950 . S
H1189 C1200 0.950 . S
H1190 C1202 0.950 . S
H1191 C1203 0.950 1_554 S
C1192 H1184 0.950 . S
C1192 C1193 1.386 1_455 S
C1192 C1194 1.391 . S
C1193 C1192 1.386 1_655 S
C1193 C1197 1.393 . S
C1194 H1186 0.950 . S
C1194 C1192 1.391 . S
C1194 C1195 1.411 . S
C1195 C1194 1.411 . S
C1195 C1196 1.383 1_455 S
C1195 C1201 1.496 . S
C1196 H1187 0.950 . S
C1196 C1195 1.383 1_655 S
C1196 C1197 1.391 . S
C1197 H1185 0.950 . S
C1197 C1193 1.393 . S
C1197 C1196 1.391 . S
C1198 H1188 0.950 . S
C1198 C1199 1.386 1_655 S
C1198 C1200 1.391 . S
C1199 C1198 1.386 1_455 S
C1199 C1203 1.393 . S
C1200 H1189 0.950 . S
C1200 C1198 1.391 . S
C1200 C1201 1.400 1_655 S
C1201 C1195 1.496 . S
C1201 C1200 1.400 1_455 S
C1201 C1202 1.398 . S
C1202 H1190 0.950 . S
C1202 C1201 1.398 . S
C1202 C1203 1.391 . S
C1203 H1191 0.950 1_556 S
C1203 C1199 1.393 . S
C1203 C1202 1.391 . S
H1204 C1212 0.950 . S
H1205 C1217 0.950 . S
H1206 C1214 0.950 . S
H1207 C1216 0.950 . S
H1208 C1218 0.950 . S
H1209 C1220 0.950 . S
H1210 C1222 0.950 . S
H1211 C1223 0.950 . S
C1212 H1204 0.950 . S
C1212 C1213 1.386 . S
C1212 C1214 1.391 . S
C1213 C1212 1.386 . S
C1213 C1217 1.393 . S
C1214 H1206 0.950 . S
C1214 C1212 1.391 . S
C1214 C1215 1.400 . S
C1215 C1214 1.400 . S
C1215 C1216 1.398 . S
C1215 C1221 1.491 . S
C1216 H1207 0.950 . S
C1216 C1215 1.398 . S
C1216 C1217 1.391 . S
C1217 H1205 0.950 . S
C1217 C1213 1.393 . S
C1217 C1216 1.391 . S
C1218 H1208 0.950 . S
C1218 C1219 1.386 . S
C1218 C1220 1.391 . S
C1219 C1218 1.386 . S
C1219 C1223 1.393 . S
C1220 H1209 0.950 . S
C1220 C1218 1.391 . S
C1220 C1221 1.400 . S
C1221 C1215 1.491 . S
C1221 C1220 1.400 . S
C1221 C1222 1.398 . S
C1222 H1210 0.950 . S
C1222 C1221 1.398 . S
C1222 C1223 1.391 . S
C1223 H1211 0.950 . S
C1223 C1219 1.393 . S
C1223 C1222 1.391 . S
H1224 C1232 0.950 . S
H1225 C1237 0.950 . S
H1226 C1234 0.950 . S
H1227 C1236 0.950 . S
H1228 C1238 0.950 . S
H1229 C1240 0.950 . S
H1230 C1242 0.950 . S
H1231 C1243 0.950 . S
C1232 H1224 0.950 . S
C1232 C1233 1.386 . S
C1232 C1234 1.391 . S
C1233 C1232 1.386 . S
C1233 C1237 1.393 . S
C1234 H1226 0.950 . S
C1234 C1232 1.391 . S
C1234 C1235 1.400 . S
C1235 C1234 1.400 . S
C1235 C1236 1.398 . S
C1235 C1241 1.491 . S
C1236 H1227 0.950 . S
C1236 C1235 1.398 . S
C1236 C1237 1.391 . S
C1237 H1225 0.950 . S
C1237 C1233 1.393 . S
C1237 C1236 1.391 . S
C1238 H1228 0.950 . S
C1238 C1239 1.386 . S
C1238 C1240 1.391 . S
C1239 C1238 1.386 . S
C1239 C1243 1.393 . S
C1240 H1229 0.950 . S
C1240 C1238 1.391 . S
C1240 C1241 1.400 . S
C1241 C1235 1.491 . S
C1241 C1240 1.400 . S
C1241 C1242 1.398 . S
C1242 H1230 0.950 . S
C1242 C1241 1.398 . S
C1242 C1243 1.391 . S
C1243 H1231 0.950 . S
C1243 C1239 1.393 . S
C1243 C1242 1.391 . S
H1244 C1252 0.950 . S
H1245 C1257 0.950 . S
H1246 C1254 0.950 . S
H1247 C1256 0.950 . S
H1248 C1258 0.950 . S
H1249 C1260 0.950 . S
H1250 C1262 0.950 . S
H1251 C1263 0.950 . S
C1252 H1244 0.950 . S
C1252 C1253 1.386 . S
C1252 C1254 1.391 . S
C1253 C1252 1.386 . S
C1253 C1257 1.393 . S
C1254 H1246 0.950 . S
C1254 C1252 1.391 . S
C1254 C1255 1.400 . S
C1255 C1254 1.400 . S
C1255 C1256 1.398 . S
C1255 C1261 1.491 . S
C1256 H1247 0.950 . S
C1256 C1255 1.398 . S
C1256 C1257 1.391 . S
C1257 H1245 0.950 . S
C1257 C1253 1.393 . S
C1257 C1256 1.391 . S
C1258 H1248 0.950 . S
C1258 C1259 1.386 . S
C1258 C1260 1.391 . S
C1259 C1258 1.386 . S
C1259 C1263 1.393 . S
C1260 H1249 0.950 . S
C1260 C1258 1.391 . S
C1260 C1261 1.400 . S
C1261 C1255 1.491 . S
C1261 C1260 1.400 . S
C1261 C1262 1.398 . S
C1262 H1250 0.950 . S
C1262 C1261 1.398 . S
C1262 C1263 1.391 . S
C1263 H1251 0.950 . S
C1263 C1259 1.393 . S
C1263 C1262 1.391 . S
H1264 C1272 0.950 . S
H1265 C1277 0.950 . S
H1266 C1274 0.950 . S
H1267 C1276 0.928 1_655 S
H1268 C1278 0.960 . S
H1269 C1280 0.950 1_655 S
H1270 C1282 0.950 . S
H1271 C1283 0.950 . S
C1272 H1264 0.950 . S
C1272 C1273 1.386 . S
C1272 C1274 1.391 . S
C1273 C1272 1.386 . S
C1273 C1277 1.393 1_455 S
C1274 H1266 0.950 . S
C1274 C1272 1.391 . S
C1274 C1275 1.400 . S
C1275 C1274 1.400 . S
C1275 C1276 1.419 . S
C1275 C1281 1.491 . S
C1276 H1267 0.928 1_455 S
C1276 C1275 1.419 . S
C1276 C1277 1.392 1_455 S
C1277 H1265 0.950 . S
C1277 C1273 1.393 1_655 S
C1277 C1276 1.392 1_655 S
C1278 H1268 0.960 . S
C1278 C1279 1.386 . S
C1278 C1280 1.391 . S
C1279 C1278 1.386 . S
C1279 C1283 1.393 . S
C1280 H1269 0.950 1_455 S
C1280 C1278 1.391 . S
C1280 C1281 1.400 . S
C1281 C1275 1.491 . S
C1281 C1280 1.400 . S
C1281 C1282 1.398 . S
C1282 H1270 0.950 . S
C1282 C1281 1.398 . S
C1282 C1283 1.391 . S
C1283 H1271 0.950 . S
C1283 C1279 1.393 . S
C1283 C1282 1.391 . S
H1284 C1292 0.950 . S
H1285 C1297 0.950 . S
H1286 C1294 0.950 . S
H1287 C1296 0.950 . S
H1288 C1298 0.950 . S
H1289 C1300 0.950 . S
H1290 C1302 0.950 . S
H1291 C1303 0.950 . S
C1292 H1284 0.950 . S
C1292 C1293 1.386 . S
C1292 C1294 1.391 . S
C1293 C1292 1.386 . S
C1293 C1297 1.393 . S
C1294 H1286 0.950 . S
C1294 C1292 1.391 . S
C1294 C1295 1.400 . S
C1295 C1294 1.400 . S
C1295 C1296 1.398 . S
C1295 C1301 1.491 . S
C1296 H1287 0.950 . S
C1296 C1295 1.398 . S
C1296 C1297 1.391 . S
C1297 H1285 0.950 . S
C1297 C1293 1.393 . S
C1297 C1296 1.391 . S
C1298 H1288 0.950 . S
C1298 C1299 1.386 . S
C1298 C1300 1.391 . S
C1299 C1298 1.386 . S
C1299 C1303 1.393 . S
C1300 H1289 0.950 . S
C1300 C1298 1.391 . S
C1300 C1301 1.400 . S
C1301 C1295 1.491 . S
C1301 C1300 1.400 . S
C1301 C1302 1.398 . S
C1302 H1290 0.950 . S
C1302 C1301 1.398 . S
C1302 C1303 1.391 . S
C1303 H1291 0.950 . S
C1303 C1299 1.393 . S
C1303 C1302 1.391 . S
H1304 C1312 0.950 . S
H1305 C1317 0.950 . S
H1306 C1314 0.950 . S
H1307 C1316 0.950 . S
H1308 C1318 0.950 . S
H1309 C1320 0.950 . S
H1310 C1322 0.950 . S
H1311 C1323 0.950 . S
C1312 H1304 0.950 . S
C1312 C1313 1.386 . S
C1312 C1314 1.391 . S
C1313 C1312 1.386 . S
C1313 C1317 1.393 . S
C1314 H1306 0.950 . S
C1314 C1312 1.391 . S
C1314 C1315 1.400 . S
C1315 C1314 1.400 . S
C1315 C1316 1.398 . S
C1315 C1321 1.491 . S
C1316 H1307 0.950 . S
C1316 C1315 1.398 . S
C1316 C1317 1.391 . S
C1317 H1305 0.950 . S
C1317 C1313 1.393 . S
C1317 C1316 1.391 . S
C1318 H1308 0.950 . S
C1318 C1319 1.386 . S
C1318 C1320 1.391 . S
C1319 C1318 1.386 . S
C1319 C1323 1.393 . S
C1320 H1309 0.950 . S
C1320 C1318 1.391 . S
C1320 C1321 1.400 . S
C1321 C1315 1.491 . S
C1321 C1320 1.400 . S
C1321 C1322 1.398 . S
C1322 H1310 0.950 . S
C1322 C1321 1.398 . S
C1322 C1323 1.391 . S
C1323 H1311 0.950 . S
C1323 C1319 1.393 . S
C1323 C1322 1.391 . S
H1324 C1332 0.950 . S
H1325 C1337 0.950 . S
H1326 C1334 0.950 . S
H1327 C1336 0.950 . S
H1328 C1338 0.950 . S
H1329 C1340 0.950 . S
H1330 C1342 0.950 . S
H1331 C1343 0.950 . S
C1332 H1324 0.950 . S
C1332 C1333 1.386 . S
C1332 C1334 1.391 . S
C1333 C1332 1.386 . S
C1333 C1337 1.393 . S
C1334 H1326 0.950 . S
C1334 C1332 1.391 . S
C1334 C1335 1.400 . S
C1335 C1334 1.400 . S
C1335 C1336 1.398 . S
C1335 C1341 1.491 . S
C1336 H1327 0.950 . S
C1336 C1335 1.398 . S
C1336 C1337 1.391 . S
C1337 H1325 0.950 . S
C1337 C1333 1.393 . S
C1337 C1336 1.391 . S
C1338 H1328 0.950 . S
C1338 C1339 1.386 . S
C1338 C1340 1.391 . S
C1339 C1338 1.386 . S
C1339 C1343 1.393 . S
C1340 H1329 0.950 . S
C1340 C1338 1.391 . S
C1340 C1341 1.400 . S
C1341 C1335 1.491 . S
C1341 C1340 1.400 . S
C1341 C1342 1.398 . S
C1342 H1330 0.950 . S
C1342 C1341 1.398 . S
C1342 C1343 1.391 . S
C1343 H1331 0.950 . S
C1343 C1339 1.393 . S
C1343 C1342 1.391 . S
H1344 C1352 0.950 . S
H1345 C1357 0.950 . S
H1346 C1354 0.950 . S
H1347 C1356 0.950 . S
H1348 C1358 0.950 . S
H1349 C1360 0.950 . S
H1350 C1362 0.950 . S
H1351 C1363 0.950 . S
C1352 H1344 0.950 . S
C1352 C1353 1.386 . S
C1352 C1354 1.391 . S
C1353 C1352 1.386 . S
C1353 C1357 1.393 . S
C1354 H1346 0.950 . S
C1354 C1352 1.391 . S
C1354 C1355 1.400 . S
C1355 C1354 1.400 . S
C1355 C1356 1.398 . S
C1355 C1361 1.491 . S
C1356 H1347 0.950 . S
C1356 C1355 1.398 . S
C1356 C1357 1.391 . S
C1357 H1345 0.950 . S
C1357 C1353 1.393 . S
C1357 C1356 1.391 . S
C1358 H1348 0.950 . S
C1358 C1359 1.386 . S
C1358 C1360 1.391 . S
C1359 C1358 1.386 . S
C1359 C1363 1.393 1_655 S
C1360 H1349 0.950 . S
C1360 C1358 1.391 . S
C1360 C1361 1.400 . S
C1361 C1355 1.491 . S
C1361 C1360 1.400 . S
C1361 C1362 1.398 . S
C1362 H1350 0.950 . S
C1362 C1361 1.398 . S
C1362 C1363 1.391 1_655 S
C1363 H1351 0.950 . S
C1363 C1359 1.393 1_455 S
C1363 C1362 1.391 1_455 S
H1364 C1372 0.950 . S
H1365 C1377 0.950 . S
H1366 C1374 0.950 . S
H1367 C1376 0.950 . S
H1368 C1378 0.950 . S
H1369 C1380 0.950 . S
H1370 C1382 0.950 . S
H1371 C1383 0.950 . S
C1372 H1364 0.950 . S
C1372 C1373 1.386 . S
C1372 C1374 1.391 . S
C1373 C1372 1.386 . S
C1373 C1377 1.393 . S
C1374 H1366 0.950 . S
C1374 C1372 1.391 . S
C1374 C1375 1.400 . S
C1375 C1374 1.400 . S
C1375 C1376 1.398 . S
C1375 C1381 1.491 . S
C1376 H1367 0.950 . S
C1376 C1375 1.398 . S
C1376 C1377 1.391 . S
C1377 H1365 0.950 . S
C1377 C1373 1.393 . S
C1377 C1376 1.391 . S
C1378 H1368 0.950 . S
C1378 C1379 1.386 . S
C1378 C1380 1.391 . S
C1379 C1378 1.386 . S
C1379 C1383 1.393 . S
C1380 H1369 0.950 . S
C1380 C1378 1.391 . S
C1380 C1381 1.400 . S
C1381 C1375 1.491 . S
C1381 C1380 1.400 . S
C1381 C1382 1.398 . S
C1382 H1370 0.950 . S
C1382 C1381 1.398 . S
C1382 C1383 1.391 . S
C1383 H1371 0.950 . S
C1383 C1379 1.393 . S
C1383 C1382 1.391 . S
H1384 C1392 0.950 . S
H1385 C1397 0.950 . S
H1386 C1394 0.950 . S
H1387 C1396 0.950 . S
H1388 C1398 0.950 1_565 S
H1389 C1400 0.952 1_565 S
H1390 C1402 0.950 . S
H1391 C1403 0.950 . S
C1392 H1384 0.950 . S
C1392 C1393 1.386 . S
C1392 C1394 1.391 . S
C1393 C1392 1.386 . S
C1393 C1397 1.393 . S
C1394 H1386 0.950 . S
C1394 C1392 1.391 . S
C1394 C1395 1.400 . S
C1395 C1394 1.400 . S
C1395 C1396 1.398 . S
C1395 C1401 1.491 . S
C1396 H1387 0.950 . S
C1396 C1395 1.398 . S
C1396 C1397 1.391 . S
C1397 H1385 0.950 . S
C1397 C1393 1.393 . S
C1397 C1396 1.391 . S
C1398 H1388 0.950 1_545 S
C1398 C1399 1.386 . S
C1398 C1400 1.391 . S
C1399 C1398 1.386 . S
C1399 C1403 1.393 . S
C1400 H1389 0.952 1_545 S
C1400 C1398 1.391 . S
C1400 C1401 1.400 . S
C1401 C1395 1.491 . S
C1401 C1400 1.400 . S
C1401 C1402 1.398 . S
C1402 H1390 0.950 . S
C1402 C1401 1.398 . S
C1402 C1403 1.391 . S
C1403 H1391 0.950 . S
C1403 C1399 1.393 . S
C1403 C1402 1.391 . S
H1404 C1412 0.950 . S
H1405 C1417 0.950 . S
H1406 C1414 0.950 . S
H1407 C1416 0.950 . S
H1408 C1418 0.950 . S
H1409 C1420 0.950 . S
H1410 C1422 0.950 . S
H1411 C1423 0.950 . S
C1412 H1404 0.950 . S
C1412 C1413 1.386 . S
C1412 C1414 1.391 . S
C1413 C1412 1.386 . S
C1413 C1417 1.393 . S
C1414 H1406 0.950 . S
C1414 C1412 1.391 . S
C1414 C1415 1.400 . S
C1415 C1414 1.400 . S
C1415 C1416 1.398 . S
C1415 C1421 1.491 . S
C1416 H1407 0.950 . S
C1416 C1415 1.398 . S
C1416 C1417 1.391 . S
C1417 H1405 0.950 . S
C1417 C1413 1.393 . S
C1417 C1416 1.391 . S
C1418 H1408 0.950 . S
C1418 C1419 1.386 . S
C1418 C1420 1.391 . S
C1419 C1418 1.386 . S
C1419 C1423 1.393 . S
C1420 H1409 0.950 . S
C1420 C1418 1.391 . S
C1420 C1421 1.400 . S
C1421 C1415 1.491 . S
C1421 C1420 1.400 . S
C1421 C1422 1.398 . S
C1422 H1410 0.950 . S
C1422 C1421 1.398 . S
C1422 C1423 1.391 . S
C1423 H1411 0.950 . S
C1423 C1419 1.393 . S
C1423 C1422 1.391 . S
H1424 C1432 0.950 . S
H1425 C1437 0.950 . S
H1426 C1434 0.950 . S
H1427 C1436 0.950 . S
H1428 C1438 0.950 1_455 S
H1429 C1440 0.950 . S
H1430 C1442 0.952 . S
H1431 C1443 0.950 1_565 S
C1432 H1424 0.950 . S
C1432 C1433 1.386 . S
C1432 C1434 1.391 . S
C1433 C1432 1.386 . S
C1433 C1437 1.393 . S
C1434 H1426 0.950 . S
C1434 C1432 1.391 . S
C1434 C1435 1.400 . S
C1435 C1434 1.400 . S
C1435 C1436 1.398 . S
C1435 C1441 1.491 . S
C1436 H1427 0.950 . S
C1436 C1435 1.398 . S
C1436 C1437 1.391 . S
C1437 H1425 0.950 . S
C1437 C1433 1.393 . S
C1437 C1436 1.391 . S
C1438 H1428 0.950 1_655 S
C1438 C1439 1.386 . S
C1438 C1440 1.391 . S
C1439 C1438 1.386 . S
C1439 C1443 1.393 . S
C1440 H1429 0.950 . S
C1440 C1438 1.391 . S
C1440 C1441 1.400 . S
C1441 C1435 1.491 . S
C1441 C1440 1.400 . S
C1441 C1442 1.398 . S
C1442 H1430 0.952 . S
C1442 C1441 1.398 . S
C1442 C1443 1.391 . S
C1443 H1431 0.950 1_545 S
C1443 C1439 1.393 . S
C1443 C1442 1.391 . S
H1444 C1452 0.950 . S
H1445 C1457 0.950 . S
H1446 C1454 0.950 . S
H1447 C1456 0.950 . S
H1448 C1458 0.950 . S
H1449 C1460 0.950 . S
H1450 C1462 0.950 . S
H1451 C1463 0.950 . S
C1452 H1444 0.950 . S
C1452 C1453 1.386 . S
C1452 C1454 1.391 . S
C1453 C1452 1.386 . S
C1453 C1457 1.393 . S
C1454 H1446 0.950 . S
C1454 C1452 1.391 . S
C1454 C1455 1.400 . S
C1455 C1454 1.400 . S
C1455 C1456 1.398 . S
C1455 C1461 1.491 . S
C1456 H1447 0.950 . S
C1456 C1455 1.398 . S
C1456 C1457 1.391 . S
C1457 H1445 0.950 . S
C1457 C1453 1.393 . S
C1457 C1456 1.391 . S
C1458 H1448 0.950 . S
C1458 C1459 1.386 . S
C1458 C1460 1.391 . S
C1459 C1458 1.386 . S
C1459 C1463 1.393 . S
C1460 H1449 0.950 . S
C1460 C1458 1.391 . S
C1460 C1461 1.400 . S
C1461 C1455 1.491 . S
C1461 C1460 1.400 . S
C1461 C1462 1.398 . S
C1462 H1450 0.950 . S
C1462 C1461 1.398 . S
C1462 C1463 1.391 . S
C1463 H1451 0.950 . S
C1463 C1459 1.393 . S
C1463 C1462 1.391 . S
H1464 C1472 0.950 . S
H1465 C1477 0.950 . S
H1466 C1474 0.950 . S
H1467 C1476 0.950 . S
H1468 C1478 0.950 . S
H1469 C1480 0.950 . S
H1470 C1482 0.950 . S
H1471 C1483 0.950 . S
C1472 H1464 0.950 . S
C1472 C1473 1.386 . S
C1472 C1474 1.391 . S
C1473 C1472 1.386 . S
C1473 C1477 1.393 . S
C1474 H1466 0.950 . S
C1474 C1472 1.391 . S
C1474 C1475 1.400 . S
C1475 C1474 1.400 . S
C1475 C1476 1.398 . S
C1475 C1481 1.491 . S
C1476 H1467 0.950 . S
C1476 C1475 1.398 . S
C1476 C1477 1.391 . S
C1477 H1465 0.950 . S
C1477 C1473 1.393 . S
C1477 C1476 1.391 . S
C1478 H1468 0.950 . S
C1478 C1479 1.386 . S
C1478 C1480 1.391 . S
C1479 C1478 1.386 . S
C1479 C1483 1.393 . S
C1480 H1469 0.950 . S
C1480 C1478 1.391 . S
C1480 C1481 1.400 . S
C1481 C1475 1.491 . S
C1481 C1480 1.400 . S
C1481 C1482 1.398 . S
C1482 H1470 0.950 . S
C1482 C1481 1.398 . S
C1482 C1483 1.391 . S
C1483 H1471 0.950 . S
C1483 C1479 1.393 . S
C1483 C1482 1.391 . S
H1484 C1492 0.950 . S
H1485 C1497 0.950 . S
H1486 C1494 0.950 . S
H1487 C1496 0.950 . S
H1488 C1498 0.950 . S
H1489 C1500 0.950 . S
H1490 C1502 0.950 . S
H1491 C1503 0.950 . S
C1492 H1484 0.950 . S
C1492 C1493 1.386 . S
C1492 C1494 1.391 . S
C1493 C1492 1.386 . S
C1493 C1497 1.393 . S
C1494 H1486 0.950 . S
C1494 C1492 1.391 . S
C1494 C1495 1.400 . S
C1495 C1494 1.400 . S
C1495 C1496 1.398 . S
C1495 C1501 1.491 . S
C1496 H1487 0.950 . S
C1496 C1495 1.398 . S
C1496 C1497 1.391 . S
C1497 H1485 0.950 . S
C1497 C1493 1.393 . S
C1497 C1496 1.391 . S
C1498 H1488 0.950 . S
C1498 C1499 1.386 . S
C1498 C1500 1.391 . S
C1499 C1498 1.386 . S
C1499 C1503 1.393 . S
C1500 H1489 0.950 . S
C1500 C1498 1.391 . S
C1500 C1501 1.400 . S
C1501 C1495 1.491 . S
C1501 C1500 1.400 . S
C1501 C1502 1.398 . S
C1502 H1490 0.950 . S
C1502 C1501 1.398 . S
C1502 C1503 1.391 . S
C1503 H1491 0.950 . S
C1503 C1499 1.393 . S
C1503 C1502 1.391 . S
H1504 C1512 0.953 . S
H1505 C1517 0.950 . S
H1506 C1514 0.950 1_556 S
H1507 C1516 0.950 . S
H1508 C1518 0.950 . S
H1509 C1520 0.950 . S
H1510 C1522 0.950 1_556 S
H1511 C1523 0.950 1_556 S
C1512 H1504 0.953 . S
C1512 C1513 1.383 1_556 S
C1512 C1514 1.391 1_556 S
C1513 C1512 1.383 1_554 S
C1513 C1517 1.393 . S
C1514 H1506 0.950 1_554 S
C1514 C1512 1.391 1_554 S
C1514 C1515 1.400 . S
C1515 C1514 1.400 . S
C1515 C1516 1.398 . S
C1515 C1521 1.491 . S
C1516 H1507 0.950 . S
C1516 C1515 1.398 . S
C1516 C1517 1.391 . S
C1517 H1505 0.950 . S
C1517 C1513 1.393 . S
C1517 C1516 1.391 . S
C1518 H1508 0.950 . S
C1518 C1519 1.386 . S
C1518 C1520 1.391 . S
C1519 C1518 1.386 . S
C1519 C1523 1.393 . S
C1520 H1509 0.950 . S
C1520 C1518 1.391 . S
C1520 C1521 1.400 . S
C1521 C1515 1.491 . S
C1521 C1520 1.400 . S
C1521 C1522 1.398 . S
C1522 H1510 0.950 1_554 S
C1522 C1521 1.398 . S
C1522 C1523 1.391 . S
C1523 H1511 0.950 1_554 S
C1523 C1519 1.393 . S
C1523 C1522 1.391 . S
H1524 C1532 0.950 . S
H1525 C1537 0.950 . S
H1526 C1534 0.950 . S
H1527 C1536 0.950 . S
H1528 C1538 0.950 . S
H1529 C1540 0.950 . S
H1530 C1542 0.950 . S
H1531 C1543 0.950 . S
C1532 H1524 0.950 . S
C1532 C1533 1.386 . S
C1532 C1534 1.391 . S
C1533 C1532 1.386 . S
C1533 C1537 1.393 1_554 S
C1534 H1526 0.950 . S
C1534 C1532 1.391 . S
C1534 C1535 1.400 . S
C1535 C1534 1.400 . S
C1535 C1536 1.398 1_554 S
C1535 C1541 1.491 . S
C1536 H1527 0.950 . S
C1536 C1535 1.398 1_556 S
C1536 C1537 1.391 . S
C1537 H1525 0.950 . S
C1537 C1533 1.393 1_556 S
C1537 C1536 1.391 . S
C1538 H1528 0.950 . S
C1538 C1539 1.386 1_556 S
C1538 C1540 1.391 . S
C1539 C1538 1.386 1_554 S
C1539 C1543 1.393 . S
C1540 H1529 0.950 . S
C1540 C1538 1.391 . S
C1540 C1541 1.400 1_556 S
C1541 C1535 1.491 . S
C1541 C1540 1.400 1_554 S
C1541 C1542 1.398 . S
C1542 H1530 0.950 . S
C1542 C1541 1.398 . S
C1542 C1543 1.391 . S
C1543 H1531 0.950 . S
C1543 C1539 1.393 . S
C1543 C1542 1.391 . S
H1544 C1552 0.950 . S
H1545 C1557 0.950 . S
H1546 C1554 0.950 . S
H1547 C1556 0.950 . S
H1548 C1558 0.950 . S
H1549 C1560 0.950 . S
H1550 C1562 0.950 . S
H1551 C1563 0.950 . S
C1552 H1544 0.950 . S
C1552 C1553 1.386 . S
C1552 C1554 1.391 . S
C1553 C1552 1.386 . S
C1553 C1557 1.393 . S
C1554 H1546 0.950 . S
C1554 C1552 1.391 . S
C1554 C1555 1.400 . S
C1555 C1554 1.400 . S
C1555 C1556 1.398 . S
C1555 C1561 1.491 . S
C1556 H1547 0.950 . S
C1556 C1555 1.398 . S
C1556 C1557 1.391 . S
C1557 H1545 0.950 . S
C1557 C1553 1.393 . S
C1557 C1556 1.391 . S
C1558 H1548 0.950 . S
C1558 C1559 1.386 . S
C1558 C1560 1.391 . S
C1559 C1558 1.386 . S
C1559 C1563 1.393 . S
C1560 H1549 0.950 . S
C1560 C1558 1.391 . S
C1560 C1561 1.400 . S
C1561 C1555 1.491 . S
C1561 C1560 1.400 . S
C1561 C1562 1.398 . S
C1562 H1550 0.950 . S
C1562 C1561 1.398 . S
C1562 C1563 1.391 . S
C1563 H1551 0.950 . S
C1563 C1559 1.393 . S
C1563 C1562 1.391 . S
H1564 C1572 0.950 . S
H1565 C1577 0.950 . S
H1566 C1574 0.950 . S
H1567 C1576 0.950 . S
H1568 C1578 0.950 . S
H1569 C1580 0.950 . S
H1570 C1582 0.950 . S
H1571 C1583 0.950 . S
C1572 H1564 0.950 . S
C1572 C1573 1.386 . S
C1572 C1574 1.391 . S
C1573 C1572 1.386 . S
C1573 C1577 1.393 . S
C1574 H1566 0.950 . S
C1574 C1572 1.391 . S
C1574 C1575 1.400 . S
C1575 C1574 1.400 . S
C1575 C1576 1.398 . S
C1575 C1581 1.491 . S
C1576 H1567 0.950 . S
C1576 C1575 1.398 . S
C1576 C1577 1.391 . S
C1577 H1565 0.950 . S
C1577 C1573 1.393 . S
C1577 C1576 1.391 . S
C1578 H1568 0.950 . S
C1578 C1579 1.386 . S
C1578 C1580 1.391 . S
C1579 C1578 1.386 . S
C1579 C1583 1.393 . S
C1580 H1569 0.950 . S
C1580 C1578 1.391 . S
C1580 C1581 1.400 . S
C1581 C1575 1.491 . S
C1581 C1580 1.400 . S
C1581 C1582 1.398 . S
C1582 H1570 0.950 . S
C1582 C1581 1.398 . S
C1582 C1583 1.391 . S
C1583 H1571 0.950 . S
C1583 C1579 1.393 . S
C1583 C1582 1.391 . S
H1584 C1592 0.950 . S
H1585 C1597 0.950 . S
H1586 C1594 0.950 . S
H1587 C1596 0.950 . S
H1588 C1598 0.950 . S
H1589 C1600 0.950 . S
H1590 C1602 0.950 . S
H1591 C1603 0.950 . S
C1592 H1584 0.950 . S
C1592 C1593 1.386 . S
C1592 C1594 1.391 . S
C1593 C1592 1.386 . S
C1593 C1597 1.393 . S
C1594 H1586 0.950 . S
C1594 C1592 1.391 . S
C1594 C1595 1.400 . S
C1595 C1594 1.400 . S
C1595 C1596 1.398 . S
C1595 C1601 1.491 . S
C1596 H1587 0.950 . S
C1596 C1595 1.398 . S
C1596 C1597 1.391 . S
C1597 H1585 0.950 . S
C1597 C1593 1.393 . S
C1597 C1596 1.391 . S
C1598 H1588 0.950 . S
C1598 C1599 1.386 . S
C1598 C1600 1.391 . S
C1599 C1598 1.386 . S
C1599 C1603 1.393 . S
C1600 H1589 0.950 . S
C1600 C1598 1.391 . S
C1600 C1601 1.400 . S
C1601 C1595 1.491 . S
C1601 C1600 1.400 . S
C1601 C1602 1.398 . S
C1602 H1590 0.950 . S
C1602 C1601 1.398 . S
C1602 C1603 1.391 . S
C1603 H1591 0.950 . S
C1603 C1599 1.393 . S
C1603 C1602 1.391 . S
H1604 C1612 0.950 . S
H1605 C1617 0.950 . S
H1606 C1614 0.950 . S
H1607 C1616 0.950 . S
H1608 C1618 0.950 . S
H1609 C1620 0.950 . S
H1610 C1622 0.950 . S
H1611 C1623 0.950 . S
C1612 H1604 0.950 . S
C1612 C1613 1.386 . S
C1612 C1614 1.391 . S
C1613 C1612 1.386 . S
C1613 C1617 1.393 . S
C1614 H1606 0.950 . S
C1614 C1612 1.391 . S
C1614 C1615 1.400 . S
C1615 C1614 1.400 . S
C1615 C1616 1.398 . S
C1615 C1621 1.491 . S
C1616 H1607 0.950 . S
C1616 C1615 1.398 . S
C1616 C1617 1.391 . S
C1617 H1605 0.950 . S
C1617 C1613 1.393 . S
C1617 C1616 1.391 . S
C1618 H1608 0.950 . S
C1618 C1619 1.386 . S
C1618 C1620 1.391 . S
C1619 C1618 1.386 . S
C1619 C1623 1.393 . S
C1620 H1609 0.950 . S
C1620 C1618 1.391 . S
C1620 C1621 1.400 . S
C1621 C1615 1.491 . S
C1621 C1620 1.400 . S
C1621 C1622 1.398 . S
C1622 H1610 0.950 . S
C1622 C1621 1.398 . S
C1622 C1623 1.391 . S
C1623 H1611 0.950 . S
C1623 C1619 1.393 . S
C1623 C1622 1.391 . S
H1624 C1632 0.950 . S
H1625 C1637 0.950 . S
H1626 C1634 0.950 . S
H1627 C1636 0.950 . S
H1628 C1638 0.950 . S
H1629 C1640 0.950 . S
H1630 C1642 0.950 . S
H1631 C1643 0.950 . S
C1632 H1624 0.950 . S
C1632 C1633 1.386 . S
C1632 C1634 1.391 . S
C1633 C1632 1.386 . S
C1633 C1637 1.393 . S
C1634 H1626 0.950 . S
C1634 C1632 1.391 . S
C1634 C1635 1.400 . S
C1635 C1634 1.400 . S
C1635 C1636 1.398 . S
C1635 C1641 1.491 . S
C1636 H1627 0.950 . S
C1636 C1635 1.398 . S
C1636 C1637 1.391 . S
C1637 H1625 0.950 . S
C1637 C1633 1.393 . S
C1637 C1636 1.391 . S
C1638 H1628 0.950 . S
C1638 C1639 1.386 . S
C1638 C1640 1.391 . S
C1639 C1638 1.386 . S
C1639 C1643 1.393 . S
C1640 H1629 0.950 . S
C1640 C1638 1.391 . S
C1640 C1641 1.400 . S
C1641 C1635 1.491 . S
C1641 C1640 1.400 . S
C1641 C1642 1.398 . S
C1642 H1630 0.950 . S
C1642 C1641 1.398 . S
C1642 C1643 1.391 . S
C1643 H1631 0.950 . S
C1643 C1639 1.393 . S
C1643 C1642 1.391 . S
H1644 C1652 0.950 . S
H1645 C1657 0.950 . S
H1646 C1654 0.950 . S
H1647 C1656 0.950 . S
H1648 C1658 0.950 . S
H1649 C1660 0.950 . S
H1650 C1662 0.950 . S
H1651 C1663 0.950 . S
C1652 H1644 0.950 . S
C1652 C1653 1.386 . S
C1652 C1654 1.391 . S
C1653 C1652 1.386 . S
C1653 C1657 1.393 . S
C1654 H1646 0.950 . S
C1654 C1652 1.391 . S
C1654 C1655 1.400 . S
C1655 C1654 1.400 . S
C1655 C1656 1.398 . S
C1655 C1661 1.491 . S
C1656 H1647 0.950 . S
C1656 C1655 1.398 . S
C1656 C1657 1.391 . S
C1657 H1645 0.950 . S
C1657 C1653 1.393 . S
C1657 C1656 1.391 . S
C1658 H1648 0.950 . S
C1658 C1659 1.386 . S
C1658 C1660 1.391 . S
C1659 C1658 1.386 . S
C1659 C1663 1.393 . S
C1660 H1649 0.950 . S
C1660 C1658 1.391 . S
C1660 C1661 1.400 . S
C1661 C1655 1.491 . S
C1661 C1660 1.400 . S
C1661 C1662 1.398 . S
C1662 H1650 0.950 . S
C1662 C1661 1.398 . S
C1662 C1663 1.391 . S
C1663 H1651 0.950 . S
C1663 C1659 1.393 . S
C1663 C1662 1.391 . S
H1664 C1672 0.950 . S
H1665 C1677 0.950 1_655 S
H1666 C1674 0.950 . S
H1667 C1676 0.950 1_655 S
H1668 C1678 0.950 . S
H1669 C1680 0.950 . S
H1670 C1682 0.950 . S
H1671 C1683 0.950 . S
C1672 H1664 0.950 . S
C1672 C1673 1.386 . S
C1672 C1674 1.391 . S
C1673 C1672 1.386 . S
C1673 C1677 1.393 . S
C1674 H1666 0.950 . S
C1674 C1672 1.391 . S
C1674 C1675 1.400 . S
C1675 C1674 1.400 . S
C1675 C1676 1.398 . S
C1675 C1681 1.491 . S
C1676 H1667 0.950 1_455 S
C1676 C1675 1.398 . S
C1676 C1677 1.391 . S
C1677 H1665 0.950 1_455 S
C1677 C1673 1.393 . S
C1677 C1676 1.391 . S
C1678 H1668 0.950 . S
C1678 C1679 1.386 1_655 S
C1678 C1680 1.391 . S
C1679 C1678 1.386 1_455 S
C1679 C1683 1.393 . S
C1680 H1669 0.950 . S
C1680 C1678 1.391 . S
C1680 C1681 1.400 1_655 S
C1681 C1675 1.491 . S
C1681 C1680 1.400 1_455 S
C1681 C1682 1.398 . S
C1682 H1670 0.950 . S
C1682 C1681 1.398 . S
C1682 C1683 1.391 . S
C1683 H1671 0.950 . S
C1683 C1679 1.393 . S
C1683 C1682 1.391 . S
H1684 C1692 0.950 . S
H1685 C1697 0.950 . S
H1686 C1694 0.950 . S
H1687 C1696 0.950 . S
H1688 C1698 0.950 . S
H1689 C1700 0.950 . S
H1690 C1702 0.950 . S
H1691 C1703 0.950 . S
C1692 H1684 0.950 . S
C1692 C1693 1.386 . S
C1692 C1694 1.391 . S
C1693 C1692 1.386 . S
C1693 C1697 1.393 . S
C1694 H1686 0.950 . S
C1694 C1692 1.391 . S
C1694 C1695 1.400 . S
C1695 C1694 1.400 . S
C1695 C1696 1.398 . S
C1695 C1701 1.491 . S
C1696 H1687 0.950 . S
C1696 C1695 1.398 . S
C1696 C1697 1.391 . S
C1697 H1685 0.950 . S
C1697 C1693 1.393 . S
C1697 C1696 1.391 . S
C1698 H1688 0.950 . S
C1698 C1699 1.386 . S
C1698 C1700 1.391 . S
C1699 C1698 1.386 . S
C1699 C1703 1.393 . S
C1700 H1689 0.950 . S
C1700 C1698 1.391 . S
C1700 C1701 1.400 . S
C1701 C1695 1.491 . S
C1701 C1700 1.400 . S
C1701 C1702 1.398 . S
C1702 H1690 0.950 . S
C1702 C1701 1.398 . S
C1702 C1703 1.391 . S
C1703 H1691 0.950 . S
C1703 C1699 1.393 . S
C1703 C1702 1.391 . S
H1704 C1712 0.950 . S
H1705 C1717 0.950 . S
H1706 C1714 0.950 . S
H1707 C1716 0.950 . S
H1708 C1718 0.950 . S
H1709 C1720 0.950 . S
H1710 C1722 0.950 . S
H1711 C1723 0.950 . S
C1712 H1704 0.950 . S
C1712 C1713 1.386 . S
C1712 C1714 1.391 . S
C1713 C1712 1.386 . S
C1713 C1717 1.393 . S
C1714 H1706 0.950 . S
C1714 C1712 1.391 . S
C1714 C1715 1.400 . S
C1715 C1714 1.400 . S
C1715 C1716 1.398 . S
C1715 C1721 1.491 . S
C1716 H1707 0.950 . S
C1716 C1715 1.398 . S
C1716 C1717 1.391 . S
C1717 H1705 0.950 . S
C1717 C1713 1.393 . S
C1717 C1716 1.391 . S
C1718 H1708 0.950 . S
C1718 C1719 1.386 . S
C1718 C1720 1.391 . S
C1719 C1718 1.386 . S
C1719 C1723 1.393 . S
C1720 H1709 0.950 . S
C1720 C1718 1.391 . S
C1720 C1721 1.400 . S
C1721 C1715 1.491 . S
C1721 C1720 1.400 . S
C1721 C1722 1.398 . S
C1722 H1710 0.950 . S
C1722 C1721 1.398 . S
C1722 C1723 1.391 . S
C1723 H1711 0.950 . S
C1723 C1719 1.393 . S
C1723 C1722 1.391 . S
H1724 C1732 0.950 . S
H1725 C1737 0.950 . S
H1726 C1734 0.950 . S
H1727 C1736 0.950 . S
H1728 C1738 0.950 . S
H1729 C1740 0.950 . S
H1730 C1742 0.950 . S
H1731 C1743 0.950 . S
C1732 H1724 0.950 . S
C1732 C1733 1.386 . S
C1732 C1734 1.391 . S
C1733 C1732 1.386 . S
C1733 C1737 1.393 . S
C1734 H1726 0.950 . S
C1734 C1732 1.391 . S
C1734 C1735 1.400 . S
C1735 C1734 1.400 . S
C1735 C1736 1.398 . S
C1735 C1741 1.491 . S
C1736 H1727 0.950 . S
C1736 C1735 1.398 . S
C1736 C1737 1.391 . S
C1737 H1725 0.950 . S
C1737 C1733 1.393 . S
C1737 C1736 1.391 . S
C1738 H1728 0.950 . S
C1738 C1739 1.386 . S
C1738 C1740 1.391 . S
C1739 C1738 1.386 . S
C1739 C1743 1.393 . S
C1740 H1729 0.950 . S
C1740 C1738 1.391 . S
C1740 C1741 1.400 . S
C1741 C1735 1.491 . S
C1741 C1740 1.400 . S
C1741 C1742 1.398 . S
C1742 H1730 0.950 . S
C1742 C1741 1.398 . S
C1742 C1743 1.391 . S
C1743 H1731 0.950 . S
C1743 C1739 1.393 . S
C1743 C1742 1.391 . S
H1744 C1752 0.950 . S
H1745 C1757 0.950 . S
H1746 C1754 0.950 . S
H1747 C1756 0.950 . S
H1748 C1758 0.950 . S
H1749 C1760 0.950 . S
H1750 C1762 0.950 . S
H1751 C1763 0.950 . S
C1752 H1744 0.950 . S
C1752 C1753 1.386 . S
C1752 C1754 1.391 . S
C1753 C1752 1.386 . S
C1753 C1757 1.393 1_455 S
C1754 H1746 0.950 . S
C1754 C1752 1.391 . S
C1754 C1755 1.400 . S
C1755 C1754 1.400 . S
C1755 C1756 1.398 1_455 S
C1755 C1761 1.491 . S
C1756 H1747 0.950 . S
C1756 C1755 1.398 1_655 S
C1756 C1757 1.391 . S
C1757 H1745 0.950 . S
C1757 C1753 1.393 1_655 S
C1757 C1756 1.391 . S
C1758 H1748 0.950 . S
C1758 C1759 1.413 . S
C1758 C1760 1.391 . S
C1759 C1758 1.413 . S
C1759 C1763 1.367 1_655 S
C1760 H1749 0.950 . S
C1760 C1758 1.391 . S
C1760 C1761 1.400 1_655 S
C1761 C1755 1.491 . S
C1761 C1760 1.400 1_455 S
C1761 C1762 1.398 . S
C1762 H1750 0.950 . S
C1762 C1761 1.398 . S
C1762 C1763 1.391 . S
C1763 H1751 0.950 . S
C1763 C1759 1.367 1_455 S
C1763 C1762 1.391 . S
H1764 C1772 0.950 . S
H1765 C1777 0.950 . S
H1766 C1774 0.950 . S
H1767 C1776 0.950 . S
H1768 C1778 0.950 . S
H1769 C1780 0.950 . S
H1770 C1782 0.950 . S
H1771 C1783 0.950 . S
C1772 H1764 0.950 . S
C1772 C1773 1.386 . S
C1772 C1774 1.391 . S
C1773 C1772 1.386 . S
C1773 C1777 1.393 . S
C1774 H1766 0.950 . S
C1774 C1772 1.391 . S
C1774 C1775 1.400 . S
C1775 C1774 1.400 . S
C1775 C1776 1.398 . S
C1775 C1781 1.491 . S
C1776 H1767 0.950 . S
C1776 C1775 1.398 . S
C1776 C1777 1.391 . S
C1777 H1765 0.950 . S
C1777 C1773 1.393 . S
C1777 C1776 1.391 . S
C1778 H1768 0.950 . S
C1778 C1779 1.386 . S
C1778 C1780 1.391 . S
C1779 C1778 1.386 . S
C1779 C1783 1.393 . S
C1780 H1769 0.950 . S
C1780 C1778 1.391 . S
C1780 C1781 1.400 . S
C1781 C1775 1.491 . S
C1781 C1780 1.400 . S
C1781 C1782 1.398 . S
C1782 H1770 0.950 . S
C1782 C1781 1.398 . S
C1782 C1783 1.391 . S
C1783 H1771 0.950 . S
C1783 C1779 1.393 . S
C1783 C1782 1.391 . S
H1784 C1792 0.950 . S
H1785 C1797 0.950 . S
H1786 C1794 0.950 . S
H1787 C1796 0.950 . S
H1788 C1798 0.950 . S
H1789 C1800 0.950 . S
H1790 C1802 0.950 . S
H1791 C1803 0.950 1_554 S
C1792 H1784 0.950 . S
C1792 C1793 1.386 . S
C1792 C1794 1.391 . S
C1793 C1792 1.386 . S
C1793 C1797 1.393 . S
C1794 H1786 0.950 . S
C1794 C1792 1.391 . S
C1794 C1795 1.400 . S
C1795 C1794 1.400 . S
C1795 C1796 1.398 . S
C1795 C1801 1.491 . S
C1796 H1787 0.950 . S
C1796 C1795 1.398 . S
C1796 C1797 1.391 . S
C1797 H1785 0.950 . S
C1797 C1793 1.393 . S
C1797 C1796 1.391 . S
C1798 H1788 0.950 . S
C1798 C1799 1.386 . S
C1798 C1800 1.391 . S
C1799 C1798 1.386 . S
C1799 C1803 1.393 . S
C1800 H1789 0.950 . S
C1800 C1798 1.391 . S
C1800 C1801 1.400 . S
C1801 C1795 1.491 . S
C1801 C1800 1.400 . S
C1801 C1802 1.398 . S
C1802 H1790 0.950 . S
C1802 C1801 1.398 . S
C1802 C1803 1.391 . S
C1803 H1791 0.950 1_556 S
C1803 C1799 1.393 . S
C1803 C1802 1.391 . S
H1804 C1812 0.950 . S
H1805 C1817 0.950 . S
H1806 C1814 0.950 . S
H1807 C1816 0.950 . S
H1808 C1818 0.950 . S
H1809 C1820 0.950 . S
H1810 C1822 0.950 . S
H1811 C1823 0.950 . S
C1812 H1804 0.950 . S
C1812 C1813 1.386 . S
C1812 C1814 1.391 . S
C1813 C1812 1.386 . S
C1813 C1817 1.393 . S
C1814 H1806 0.950 . S
C1814 C1812 1.391 . S
C1814 C1815 1.400 . S
C1815 C1814 1.400 . S
C1815 C1816 1.398 . S
C1815 C1821 1.491 . S
C1816 H1807 0.950 . S
C1816 C1815 1.398 . S
C1816 C1817 1.391 . S
C1817 H1805 0.950 . S
C1817 C1813 1.393 . S
C1817 C1816 1.391 . S
C1818 H1808 0.950 . S
C1818 C1819 1.386 . S
C1818 C1820 1.391 . S
C1819 C1818 1.386 . S
C1819 C1823 1.393 . S
C1820 H1809 0.950 . S
C1820 C1818 1.391 . S
C1820 C1821 1.400 . S
C1821 C1815 1.491 . S
C1821 C1820 1.400 . S
C1821 C1822 1.398 . S
C1822 H1810 0.950 . S
C1822 C1821 1.398 . S
C1822 C1823 1.391 . S
C1823 H1811 0.950 . S
C1823 C1819 1.393 . S
C1823 C1822 1.391 . S
H1824 C1832 0.950 . S
H1825 C1837 0.950 . S
H1826 C1834 0.950 . S
H1827 C1836 0.950 . S
H1828 C1838 0.950 . S
H1829 C1840 0.950 . S
H1830 C1842 0.950 . S
H1831 C1843 0.950 . S
C1832 H1824 0.950 . S
C1832 C1833 1.386 1_545 S
C1832 C1834 1.391 . S
C1833 C1832 1.386 1_565 S
C1833 C1837 1.392 . S
C1834 H1826 0.950 . S
C1834 C1832 1.391 . S
C1834 C1835 1.421 . S
C1835 C1834 1.421 . S
C1835 C1836 1.378 1_545 S
C1835 C1841 1.492 . S
C1836 H1827 0.950 . S
C1836 C1835 1.378 1_565 S
C1836 C1837 1.391 . S
C1837 H1825 0.950 . S
C1837 C1833 1.392 . S
C1837 C1836 1.391 . S
C1838 H1828 0.950 . S
C1838 C1839 1.386 1_565 S
C1838 C1840 1.391 . S
C1839 C1838 1.386 1_545 S
C1839 C1843 1.393 . S
C1840 H1829 0.950 . S
C1840 C1838 1.391 . S
C1840 C1841 1.400 1_565 S
C1841 C1835 1.492 . S
C1841 C1840 1.400 1_545 S
C1841 C1842 1.398 . S
C1842 H1830 0.950 . S
C1842 C1841 1.398 . S
C1842 C1843 1.391 . S
C1843 H1831 0.950 . S
C1843 C1839 1.393 . S
C1843 C1842 1.391 . S
H1844 C1852 0.950 . S
H1845 C1857 0.950 . S
H1846 C1854 0.950 . S
H1847 C1856 0.950 . S
H1848 C1858 0.950 . S
H1849 C1860 0.950 . S
H1850 C1862 0.950 . S
H1851 C1863 0.950 . S
C1852 H1844 0.950 . S
C1852 C1853 1.386 . S
C1852 C1854 1.391 . S
C1853 C1852 1.386 . S
C1853 C1857 1.393 . S
C1854 H1846 0.950 . S
C1854 C1852 1.391 . S
C1854 C1855 1.400 . S
C1855 C1854 1.400 . S
C1855 C1856 1.398 . S
C1855 C1861 1.491 . S
C1856 H1847 0.950 . S
C1856 C1855 1.398 . S
C1856 C1857 1.391 . S
C1857 H1845 0.950 . S
C1857 C1853 1.393 . S
C1857 C1856 1.391 . S
C1858 H1848 0.950 . S
C1858 C1859 1.386 . S
C1858 C1860 1.391 . S
C1859 C1858 1.386 . S
C1859 C1863 1.393 . S
C1860 H1849 0.950 . S
C1860 C1858 1.391 . S
C1860 C1861 1.400 . S
C1861 C1855 1.491 . S
C1861 C1860 1.400 . S
C1861 C1862 1.398 . S
C1862 H1850 0.950 . S
C1862 C1861 1.398 . S
C1862 C1863 1.391 . S
C1863 H1851 0.950 . S
C1863 C1859 1.393 . S
C1863 C1862 1.391 . S
H1864 C1872 0.950 1_565 S
H1865 C1877 0.950 . S
H1866 C1874 0.950 1_565 S
H1867 C1876 0.950 . S
H1868 C1878 0.950 . S
H1869 C1880 0.950 . S
H1870 C1882 0.950 1_565 S
H1871 C1883 0.952 . S
C1872 H1864 0.950 1_545 S
C1872 C1873 1.386 . S
C1872 C1874 1.391 . S
C1873 C1872 1.386 . S
C1873 C1877 1.393 . S
C1874 H1866 0.950 1_545 S
C1874 C1872 1.391 . S
C1874 C1875 1.400 . S
C1875 C1874 1.400 . S
C1875 C1876 1.398 . S
C1875 C1881 1.491 . S
C1876 H1867 0.950 . S
C1876 C1875 1.398 . S
C1876 C1877 1.391 . S
C1877 H1865 0.950 . S
C1877 C1873 1.393 . S
C1877 C1876 1.391 . S
C1878 H1868 0.950 . S
C1878 C1879 1.386 . S
C1878 C1880 1.391 . S
C1879 C1878 1.386 . S
C1879 C1883 1.393 . S
C1880 H1869 0.950 . S
C1880 C1878 1.391 . S
C1880 C1881 1.400 . S
C1881 C1875 1.491 . S
C1881 C1880 1.400 . S
C1881 C1882 1.398 . S
C1882 H1870 0.950 1_545 S
C1882 C1881 1.398 . S
C1882 C1883 1.391 . S
C1883 H1871 0.952 . S
C1883 C1879 1.393 . S
C1883 C1882 1.391 . S
H1884 C1892 0.950 . S
H1885 C1897 0.950 . S
H1886 C1894 0.950 . S
H1887 C1896 0.950 . S
H1888 C1898 0.950 . S
H1889 C1900 0.950 . S
H1890 C1902 0.950 . S
H1891 C1903 0.950 . S
C1892 H1884 0.950 . S
C1892 C1893 1.386 . S
C1892 C1894 1.391 . S
C1893 C1892 1.386 . S
C1893 C1897 1.393 . S
C1894 H1886 0.950 . S
C1894 C1892 1.391 . S
C1894 C1895 1.400 . S
C1895 C1894 1.400 . S
C1895 C1896 1.398 . S
C1895 C1901 1.491 . S
C1896 H1887 0.950 . S
C1896 C1895 1.398 . S
C1896 C1897 1.391 . S
C1897 H1885 0.950 . S
C1897 C1893 1.393 . S
C1897 C1896 1.391 . S
C1898 H1888 0.950 . S
C1898 C1899 1.386 . S
C1898 C1900 1.391 . S
C1899 C1898 1.386 . S
C1899 C1903 1.393 . S
C1900 H1889 0.950 . S
C1900 C1898 1.391 . S
C1900 C1901 1.400 . S
C1901 C1895 1.491 . S
C1901 C1900 1.400 . S
C1901 C1902 1.398 . S
C1902 H1890 0.950 . S
C1902 C1901 1.398 . S
C1902 C1903 1.391 . S
C1903 H1891 0.950 . S
C1903 C1899 1.393 . S
C1903 C1902 1.391 . S
H1904 C1912 0.950 . S
H1905 C1917 0.950 . S
H1906 C1914 0.950 . S
H1907 C1916 0.950 . S
H1908 C1918 0.950 1_565 S
H1909 C1920 0.952 1_565 S
H1910 C1922 0.950 . S
H1911 C1923 0.950 . S
C1912 H1904 0.950 . S
C1912 C1913 1.386 1_545 S
C1912 C1914 1.391 . S
C1913 C1912 1.386 1_565 S
C1913 C1917 1.393 . S
C1914 H1906 0.950 . S
C1914 C1912 1.391 . S
C1914 C1915 1.400 . S
C1915 C1914 1.400 . S
C1915 C1916 1.398 1_545 S
C1915 C1921 1.491 . S
C1916 H1907 0.950 . S
C1916 C1915 1.398 1_565 S
C1916 C1917 1.391 . S
C1917 H1905 0.950 . S
C1917 C1913 1.393 . S
C1917 C1916 1.391 . S
C1918 H1908 0.950 1_545 S
C1918 C1919 1.386 . S
C1918 C1920 1.390 . S
C1919 C1918 1.386 . S
C1919 C1923 1.393 . S
C1920 H1909 0.952 1_545 S
C1920 C1918 1.390 . S
C1920 C1921 1.399 . S
C1921 C1915 1.491 . S
C1921 C1920 1.399 . S
C1921 C1922 1.398 . S
C1922 H1910 0.950 . S
C1922 C1921 1.398 . S
C1922 C1923 1.391 . S
C1923 H1911 0.950 . S
C1923 C1919 1.393 . S
C1923 C1922 1.391 . S
H1924 C1932 0.950 . S
H1925 C1937 0.950 . S
H1926 C1934 0.950 . S
H1927 C1936 0.950 . S
H1928 C1938 0.950 . S
H1929 C1940 0.950 . S
H1930 C1942 0.950 . S
H1931 C1943 0.950 . S
C1932 H1924 0.950 . S
C1932 C1933 1.386 . S
C1932 C1934 1.391 . S
C1933 C1932 1.386 . S
C1933 C1937 1.393 . S
C1934 H1926 0.950 . S
C1934 C1932 1.391 . S
C1934 C1935 1.400 . S
C1935 C1934 1.400 . S
C1935 C1936 1.398 . S
C1935 C1941 1.491 . S
C1936 H1927 0.950 . S
C1936 C1935 1.398 . S
C1936 C1937 1.391 . S
C1937 H1925 0.950 . S
C1937 C1933 1.393 . S
C1937 C1936 1.391 . S
C1938 H1928 0.950 . S
C1938 C1939 1.386 . S
C1938 C1940 1.391 . S
C1939 C1938 1.386 . S
C1939 C1943 1.393 . S
C1940 H1929 0.950 . S
C1940 C1938 1.391 . S
C1940 C1941 1.400 . S
C1941 C1935 1.491 . S
C1941 C1940 1.400 . S
C1941 C1942 1.398 . S
C1942 H1930 0.950 . S
C1942 C1941 1.398 . S
C1942 C1943 1.391 . S
C1943 H1931 0.950 . S
C1943 C1939 1.393 . S
C1943 C1942 1.391 . S
H1944 C1952 0.950 1_565 S
H1945 C1957 0.950 . S
H1946 C1954 0.950 . S
H1947 C1956 0.950 . S
H1948 C1958 0.950 . S
H1949 C1960 0.950 . S
H1950 C1962 0.950 . S
H1951 C1963 0.950 . S
C1952 H1944 0.950 1_545 S
C1952 C1953 1.386 . S
C1952 C1954 1.391 1_545 S
C1953 C1952 1.386 . S
C1953 C1957 1.393 . S
C1954 H1946 0.950 . S
C1954 C1952 1.391 1_565 S
C1954 C1955 1.400 1_565 S
C1955 C1954 1.400 1_545 S
C1955 C1956 1.398 . S
C1955 C1961 1.491 . S
C1956 H1947 0.950 . S
C1956 C1955 1.398 . S
C1956 C1957 1.391 . S
C1957 H1945 0.950 . S
C1957 C1953 1.393 . S
C1957 C1956 1.391 . S
C1958 H1948 0.950 . S
C1958 C1959 1.386 . S
C1958 C1960 1.391 . S
C1959 C1958 1.386 . S
C1959 C1963 1.393 1_545 S
C1960 H1949 0.950 . S
C1960 C1958 1.391 . S
C1960 C1961 1.400 . S
C1961 C1955 1.491 . S
C1961 C1960 1.400 . S
C1961 C1962 1.398 1_545 S
C1962 H1950 0.950 . S
C1962 C1961 1.398 1_565 S
C1962 C1963 1.391 . S
C1963 H1951 0.950 . S
C1963 C1959 1.393 1_565 S
C1963 C1962 1.391 . S
H1964 C1972 0.950 . S
H1965 C1977 0.950 . S
H1966 C1974 0.950 . S
H1967 C1976 0.950 . S
H1968 C1978 0.950 . S
H1969 C1980 0.950 . S
H1970 C1982 0.950 . S
H1971 C1983 0.950 . S
C1972 H1964 0.950 . S
C1972 C1973 1.386 . S
C1972 C1974 1.391 . S
C1973 C1972 1.386 . S
C1973 C1977 1.393 . S
C1974 H1966 0.950 . S
C1974 C1972 1.391 . S
C1974 C1975 1.400 . S
C1975 C1974 1.400 . S
C1975 C1976 1.398 . S
C1975 C1981 1.491 . S
C1976 H1967 0.950 . S
C1976 C1975 1.398 . S
C1976 C1977 1.391 . S
C1977 H1965 0.950 . S
C1977 C1973 1.393 . S
C1977 C1976 1.391 . S
C1978 H1968 0.950 . S
C1978 C1979 1.386 . S
C1978 C1980 1.391 . S
C1979 C1978 1.386 . S
C1979 C1983 1.393 . S
C1980 H1969 0.950 . S
C1980 C1978 1.391 . S
C1980 C1981 1.400 . S
C1981 C1975 1.491 . S
C1981 C1980 1.400 . S
C1981 C1982 1.398 . S
C1982 H1970 0.950 . S
C1982 C1981 1.398 . S
C1982 C1983 1.391 . S
C1983 H1971 0.950 . S
C1983 C1979 1.393 . S
C1983 C1982 1.391 . S
H1984 C1992 0.950 . S
H1985 C1997 0.950 . S
H1986 C1994 0.950 . S
H1987 C1996 0.950 . S
H1988 C1998 0.950 . S
H1989 C2000 0.950 . S
H1990 C2002 0.950 . S
H1991 C2003 0.950 . S
C1992 H1984 0.950 . S
C1992 C1993 1.386 1_554 S
C1992 C1994 1.391 . S
C1993 C1992 1.386 1_556 S
C1993 C1997 1.393 . S
C1994 H1986 0.950 . S
C1994 C1992 1.391 . S
C1994 C1995 1.400 1_554 S
C1995 C1994 1.400 1_556 S
C1995 C1996 1.398 . S
C1995 C2001 1.491 . S
C1996 H1987 0.950 . S
C1996 C1995 1.398 . S
C1996 C1997 1.391 . S
C1997 H1985 0.950 . S
C1997 C1993 1.393 . S
C1997 C1996 1.391 . S
C1998 H1988 0.950 . S
C1998 C1999 1.386 . S
C1998 C2000 1.391 . S
C1999 C1998 1.386 . S
C1999 C2003 1.393 1_556 S
C2000 H1989 0.950 . S
C2000 C1998 1.391 . S
C2000 C2001 1.400 . S
C2001 C1995 1.491 . S
C2001 C2000 1.400 . S
C2001 C2002 1.398 1_556 S
C2002 H1990 0.950 . S
C2002 C2001 1.398 1_554 S
C2002 C2003 1.391 . S
C2003 H1991 0.950 . S
C2003 C1999 1.393 1_554 S
C2003 C2002 1.391 . S
H2004 C2012 0.950 . S
H2005 C2017 0.947 1_556 S
H2006 C2014 0.950 . S
H2007 C2016 0.954 . S
H2008 C2018 0.950 1_556 S
H2009 C2020 0.950 1_556 S
H2010 C2022 0.950 . S
H2011 C2023 0.950 . S
C2012 H2004 0.950 . S
C2012 C2013 1.386 . S
C2012 C2014 1.391 . S
C2013 C2012 1.386 . S
C2013 C2017 1.393 . S
C2014 H2006 0.950 . S
C2014 C2012 1.391 . S
C2014 C2015 1.400 . S
C2015 C2014 1.400 . S
C2015 C2016 1.398 . S
C2015 C2021 1.491 . S
C2016 H2007 0.954 . S
C2016 C2015 1.398 . S
C2016 C2017 1.391 . S
C2017 H2005 0.947 1_554 S
C2017 C2013 1.393 . S
C2017 C2016 1.391 . S
C2018 H2008 0.950 1_554 S
C2018 C2019 1.386 . S
C2018 C2020 1.391 . S
C2019 C2018 1.386 . S
C2019 C2023 1.393 . S
C2020 H2009 0.950 1_554 S
C2020 C2018 1.391 . S
C2020 C2021 1.400 . S
C2021 C2015 1.491 . S
C2021 C2020 1.400 . S
C2021 C2022 1.398 . S
C2022 H2010 0.950 . S
C2022 C2021 1.398 . S
C2022 C2023 1.391 . S
C2023 H2011 0.950 . S
C2023 C2019 1.393 . S
C2023 C2022 1.391 . S
H2024 C2032 0.950 . S
H2025 C2037 0.950 . S
H2026 C2034 0.950 . S
H2027 C2036 0.950 . S
H2028 C2038 0.950 . S
H2029 C2040 0.950 . S
H2030 C2042 0.950 . S
H2031 C2043 0.950 . S
C2032 H2024 0.950 . S
C2032 C2033 1.386 . S
C2032 C2034 1.391 . S
C2033 C2032 1.386 . S
C2033 C2037 1.393 . S
C2034 H2026 0.950 . S
C2034 C2032 1.391 . S
C2034 C2035 1.400 . S
C2035 C2034 1.400 . S
C2035 C2036 1.398 . S
C2035 C2041 1.491 . S
C2036 H2027 0.950 . S
C2036 C2035 1.398 . S
C2036 C2037 1.391 . S
C2037 H2025 0.950 . S
C2037 C2033 1.393 . S
C2037 C2036 1.391 . S
C2038 H2028 0.950 . S
C2038 C2039 1.386 . S
C2038 C2040 1.391 . S
C2039 C2038 1.386 . S
C2039 C2043 1.393 . S
C2040 H2029 0.950 . S
C2040 C2038 1.391 . S
C2040 C2041 1.400 . S
C2041 C2035 1.491 . S
C2041 C2040 1.400 . S
C2041 C2042 1.398 . S
C2042 H2030 0.950 . S
C2042 C2041 1.398 . S
C2042 C2043 1.391 . S
C2043 H2031 0.950 . S
C2043 C2039 1.393 . S
C2043 C2042 1.391 . S
H2044 C2052 0.950 . S
H2045 C2057 0.950 . S
H2046 C2054 0.950 . S
H2047 C2056 0.950 . S
H2048 C2058 0.950 . S
H2049 C2060 0.950 . S
H2050 C2062 0.950 . S
H2051 C2063 0.950 . S
C2052 H2044 0.950 . S
C2052 C2053 1.386 . S
C2052 C2054 1.391 . S
C2053 C2052 1.386 . S
C2053 C2057 1.393 . S
C2054 H2046 0.950 . S
C2054 C2052 1.391 . S
C2054 C2055 1.400 . S
C2055 C2054 1.400 . S
C2055 C2056 1.398 . S
C2055 C2061 1.491 . S
C2056 H2047 0.950 . S
C2056 C2055 1.398 . S
C2056 C2057 1.391 . S
C2057 H2045 0.950 . S
C2057 C2053 1.393 . S
C2057 C2056 1.391 . S
C2058 H2048 0.950 . S
C2058 C2059 1.386 . S
C2058 C2060 1.391 . S
C2059 C2058 1.386 . S
C2059 C2063 1.393 . S
C2060 H2049 0.950 . S
C2060 C2058 1.391 . S
C2060 C2061 1.400 . S
C2061 C2055 1.491 . S
C2061 C2060 1.400 . S
C2061 C2062 1.398 . S
C2062 H2050 0.950 . S
C2062 C2061 1.398 . S
C2062 C2063 1.391 . S
C2063 H2051 0.950 . S
C2063 C2059 1.393 . S
C2063 C2062 1.391 . S
H2064 C2072 0.950 . S
H2065 C2077 0.950 . S
H2066 C2074 0.950 . S
H2067 C2076 0.950 . S
H2068 C2078 0.950 . S
H2069 C2080 0.950 . S
H2070 C2082 0.950 . S
H2071 C2083 0.950 . S
C2072 H2064 0.950 . S
C2072 C2073 1.386 . S
C2072 C2074 1.391 . S
C2073 C2072 1.386 . S
C2073 C2077 1.393 . S
C2074 H2066 0.950 . S
C2074 C2072 1.391 . S
C2074 C2075 1.400 . S
C2075 C2074 1.400 . S
C2075 C2076 1.398 . S
C2075 C2081 1.491 . S
C2076 H2067 0.950 . S
C2076 C2075 1.398 . S
C2076 C2077 1.391 . S
C2077 H2065 0.950 . S
C2077 C2073 1.393 . S
C2077 C2076 1.391 . S
C2078 H2068 0.950 . S
C2078 C2079 1.386 . S
C2078 C2080 1.391 . S
C2079 C2078 1.386 . S
C2079 C2083 1.393 . S
C2080 H2069 0.950 . S
C2080 C2078 1.391 . S
C2080 C2081 1.400 . S
C2081 C2075 1.491 . S
C2081 C2080 1.400 . S
C2081 C2082 1.398 . S
C2082 H2070 0.950 . S
C2082 C2081 1.398 . S
C2082 C2083 1.391 . S
C2083 H2071 0.950 . S
C2083 C2079 1.393 . S
C2083 C2082 1.391 . S
H2084 C2092 0.950 . S
H2085 C2097 0.950 . S
H2086 C2094 0.950 . S
H2087 C2096 0.950 . S
H2088 C2098 0.950 . S
H2089 C2100 0.950 . S
H2090 C2102 0.950 . S
H2091 C2103 0.950 . S
C2092 H2084 0.950 . S
C2092 C2093 1.386 . S
C2092 C2094 1.391 . S
C2093 C2092 1.386 . S
C2093 C2097 1.393 . S
C2094 H2086 0.950 . S
C2094 C2092 1.391 . S
C2094 C2095 1.400 . S
C2095 C2094 1.400 . S
C2095 C2096 1.398 . S
C2095 C2101 1.491 . S
C2096 H2087 0.950 . S
C2096 C2095 1.398 . S
C2096 C2097 1.391 . S
C2097 H2085 0.950 . S
C2097 C2093 1.393 . S
C2097 C2096 1.391 . S
C2098 H2088 0.950 . S
C2098 C2099 1.386 . S
C2098 C2100 1.391 . S
C2099 C2098 1.386 . S
C2099 C2103 1.393 . S
C2100 H2089 0.950 . S
C2100 C2098 1.391 . S
C2100 C2101 1.400 . S
C2101 C2095 1.491 . S
C2101 C2100 1.400 . S
C2101 C2102 1.398 . S
C2102 H2090 0.950 . S
C2102 C2101 1.398 . S
C2102 C2103 1.391 . S
C2103 H2091 0.950 . S
C2103 C2099 1.393 . S
C2103 C2102 1.391 . S
H2104 C2112 0.950 . S
H2105 C2117 0.950 . S
H2106 C2114 0.950 . S
H2107 C2116 0.950 . S
H2108 C2118 0.950 . S
H2109 C2120 0.950 . S
H2110 C2122 0.950 . S
H2111 C2123 0.950 . S
C2112 H2104 0.950 . S
C2112 C2113 1.386 . S
C2112 C2114 1.391 . S
C2113 C2112 1.386 . S
C2113 C2117 1.393 . S
C2114 H2106 0.950 . S
C2114 C2112 1.391 . S
C2114 C2115 1.400 . S
C2115 C2114 1.400 . S
C2115 C2116 1.398 . S
C2115 C2121 1.491 . S
C2116 H2107 0.950 . S
C2116 C2115 1.398 . S
C2116 C2117 1.391 . S
C2117 H2105 0.950 . S
C2117 C2113 1.393 . S
C2117 C2116 1.391 . S
C2118 H2108 0.950 . S
C2118 C2119 1.386 . S
C2118 C2120 1.391 . S
C2119 C2118 1.386 . S
C2119 C2123 1.393 . S
C2120 H2109 0.950 . S
C2120 C2118 1.391 . S
C2120 C2121 1.400 . S
C2121 C2115 1.491 . S
C2121 C2120 1.400 . S
C2121 C2122 1.398 . S
C2122 H2110 0.950 . S
C2122 C2121 1.398 . S
C2122 C2123 1.391 . S
C2123 H2111 0.950 . S
C2123 C2119 1.393 . S
C2123 C2122 1.391 . S
H2124 C2132 0.950 . S
H2125 C2137 0.950 . S
H2126 C2134 0.950 . S
H2127 C2136 0.950 . S
H2128 C2138 0.950 . S
H2129 C2140 0.950 . S
H2130 C2142 0.950 . S
H2131 C2143 0.950 . S
C2132 H2124 0.950 . S
C2132 C2133 1.386 . S
C2132 C2134 1.391 . S
C2133 C2132 1.386 . S
C2133 C2137 1.393 . S
C2134 H2126 0.950 . S
C2134 C2132 1.391 . S
C2134 C2135 1.400 . S
C2135 C2134 1.400 . S
C2135 C2136 1.398 . S
C2135 C2141 1.491 . S
C2136 H2127 0.950 . S
C2136 C2135 1.398 . S
C2136 C2137 1.391 . S
C2137 H2125 0.950 . S
C2137 C2133 1.393 . S
C2137 C2136 1.391 . S
C2138 H2128 0.950 . S
C2138 C2139 1.386 . S
C2138 C2140 1.391 . S
C2139 C2138 1.386 . S
C2139 C2143 1.393 . S
C2140 H2129 0.950 . S
C2140 C2138 1.391 . S
C2140 C2141 1.400 . S
C2141 C2135 1.491 . S
C2141 C2140 1.400 . S
C2141 C2142 1.398 . S
C2142 H2130 0.950 . S
C2142 C2141 1.398 . S
C2142 C2143 1.391 . S
C2143 H2131 0.950 . S
C2143 C2139 1.393 . S
C2143 C2142 1.391 . S
H2144 C2152 0.950 . S
H2145 C2157 0.950 . S
H2146 C2154 0.950 . S
H2147 C2156 0.950 . S
H2148 C2158 0.950 . S
H2149 C2160 0.950 . S
H2150 C2162 0.950 . S
H2151 C2163 0.950 . S
C2152 H2144 0.950 . S
C2152 C2153 1.386 . S
C2152 C2154 1.391 . S
C2153 C2152 1.386 . S
C2153 C2157 1.393 . S
C2154 H2146 0.950 . S
C2154 C2152 1.391 . S
C2154 C2155 1.400 . S
C2155 C2154 1.400 . S
C2155 C2156 1.398 . S
C2155 C2161 1.491 . S
C2156 H2147 0.950 . S
C2156 C2155 1.398 . S
C2156 C2157 1.391 . S
C2157 H2145 0.950 . S
C2157 C2153 1.393 . S
C2157 C2156 1.391 . S
C2158 H2148 0.950 . S
C2158 C2159 1.386 . S
C2158 C2160 1.391 . S
C2159 C2158 1.386 . S
C2159 C2163 1.393 . S
C2160 H2149 0.950 . S
C2160 C2158 1.391 . S
C2160 C2161 1.400 . S
C2161 C2155 1.491 . S
C2161 C2160 1.400 . S
C2161 C2162 1.398 . S
C2162 H2150 0.950 . S
C2162 C2161 1.398 . S
C2162 C2163 1.391 . S
C2163 H2151 0.950 . S
C2163 C2159 1.393 . S
C2163 C2162 1.391 . S
H2164 C2172 0.950 . S
H2165 C2177 0.950 . S
H2166 C2174 0.950 . S
H2167 C2176 0.950 . S
H2168 C2178 0.950 . S
H2169 C2180 0.950 . S
H2170 C2182 0.950 . S
H2171 C2183 0.950 . S
C2172 H2164 0.950 . S
C2172 C2173 1.386 . S
C2172 C2174 1.391 . S
C2173 C2172 1.386 . S
C2173 C2177 1.393 . S
C2174 H2166 0.950 . S
C2174 C2172 1.391 . S
C2174 C2175 1.400 . S
C2175 C2174 1.400 . S
C2175 C2176 1.398 . S
C2175 C2181 1.491 . S
C2176 H2167 0.950 . S
C2176 C2175 1.398 . S
C2176 C2177 1.391 . S
C2177 H2165 0.950 . S
C2177 C2173 1.393 . S
C2177 C2176 1.391 . S
C2178 H2168 0.950 . S
C2178 C2179 1.386 . S
C2178 C2180 1.391 . S
C2179 C2178 1.386 . S
C2179 C2183 1.393 . S
C2180 H2169 0.950 . S
C2180 C2178 1.391 . S
C2180 C2181 1.400 . S
C2181 C2175 1.491 . S
C2181 C2180 1.400 . S
C2181 C2182 1.398 . S
C2182 H2170 0.950 . S
C2182 C2181 1.398 . S
C2182 C2183 1.391 . S
C2183 H2171 0.950 . S
C2183 C2179 1.393 . S
C2183 C2182 1.391 . S
H2184 C2192 0.950 . S
H2185 C2197 0.950 . S
H2186 C2194 0.975 . S
H2187 C2196 0.950 . S
H2188 C2198 0.950 . S
H2189 C2200 0.969 . S
H2190 C2202 0.950 1_655 S
H2191 C2203 0.950 1_655 S
C2192 H2184 0.950 . S
C2192 C2193 1.386 1_655 S
C2192 C2194 1.383 . S
C2193 C2192 1.386 1_455 S
C2193 C2197 1.393 . S
C2194 H2186 0.975 . S
C2194 C2192 1.383 . S
C2194 C2195 1.386 1_655 S
C2195 C2194 1.386 1_455 S
C2195 C2196 1.398 . S
C2195 C2201 1.491 . S
C2196 H2187 0.950 . S
C2196 C2195 1.398 . S
C2196 C2197 1.391 . S
C2197 H2185 0.950 . S
C2197 C2193 1.393 . S
C2197 C2196 1.391 . S
C2198 H2188 0.950 . S
C2198 C2199 1.386 1_554 S
C2198 C2200 1.391 1_554 S
C2199 C2198 1.386 1_556 S
C2199 C2203 1.393 . S
C2200 H2189 0.969 . S
C2200 C2198 1.391 1_556 S
C2200 C2201 1.400 . S
C2201 C2195 1.491 . S
C2201 C2200 1.400 . S
C2201 C2202 1.398 . S
C2202 H2190 0.950 1_455 S
C2202 C2201 1.398 . S
C2202 C2203 1.391 . S
C2203 H2191 0.950 1_455 S
C2203 C2199 1.393 . S
C2203 C2202 1.391 . S
H2204 C2212 0.950 . S
H2205 C2217 0.950 . S
H2206 C2214 0.950 . S
H2207 C2216 0.950 . S
H2208 C2218 0.950 . S
H2209 C2220 0.950 . S
H2210 C2222 0.950 . S
H2211 C2223 0.950 . S
C2212 H2204 0.950 . S
C2212 C2213 1.386 . S
C2212 C2214 1.391 . S
C2213 C2212 1.386 . S
C2213 C2217 1.393 . S
C2214 H2206 0.950 . S
C2214 C2212 1.391 . S
C2214 C2215 1.400 . S
C2215 C2214 1.400 . S
C2215 C2216 1.398 . S
C2215 C2221 1.491 . S
C2216 H2207 0.950 . S
C2216 C2215 1.398 . S
C2216 C2217 1.391 . S
C2217 H2205 0.950 . S
C2217 C2213 1.393 . S
C2217 C2216 1.391 . S
C2218 H2208 0.950 . S
C2218 C2219 1.386 . S
C2218 C2220 1.391 . S
C2219 C2218 1.386 . S
C2219 C2223 1.393 . S
C2220 H2209 0.950 . S
C2220 C2218 1.391 . S
C2220 C2221 1.400 . S
C2221 C2215 1.491 . S
C2221 C2220 1.400 . S
C2221 C2222 1.398 . S
C2222 H2210 0.950 . S
C2222 C2221 1.398 . S
C2222 C2223 1.391 . S
C2223 H2211 0.950 . S
C2223 C2219 1.393 . S
C2223 C2222 1.391 . S
H2224 C2232 0.950 . S
H2225 C2237 0.950 . S
H2226 C2234 0.950 . S
H2227 C2236 0.950 . S
H2228 C2238 0.950 . S
H2229 C2240 0.950 . S
H2230 C2242 0.950 . S
H2231 C2243 0.950 . S
C2232 H2224 0.950 . S
C2232 C2233 1.386 . S
C2232 C2234 1.391 . S
C2233 C2232 1.386 . S
C2233 C2237 1.393 . S
C2234 H2226 0.950 . S
C2234 C2232 1.391 . S
C2234 C2235 1.400 . S
C2235 C2234 1.400 . S
C2235 C2236 1.398 . S
C2235 C2241 1.491 . S
C2236 H2227 0.950 . S
C2236 C2235 1.398 . S
C2236 C2237 1.391 . S
C2237 H2225 0.950 . S
C2237 C2233 1.393 . S
C2237 C2236 1.391 . S
C2238 H2228 0.950 . S
C2238 C2239 1.386 . S
C2238 C2240 1.391 . S
C2239 C2238 1.386 . S
C2239 C2243 1.393 . S
C2240 H2229 0.950 . S
C2240 C2238 1.391 . S
C2240 C2241 1.400 . S
C2241 C2235 1.491 . S
C2241 C2240 1.400 . S
C2241 C2242 1.398 . S
C2242 H2230 0.950 . S
C2242 C2241 1.398 . S
C2242 C2243 1.391 . S
C2243 H2231 0.950 . S
C2243 C2239 1.393 . S
C2243 C2242 1.391 . S
H2244 C2252 0.950 . S
H2245 C2257 0.950 . S
H2246 C2254 0.950 . S
H2247 C2256 0.950 . S
H2248 C2258 0.950 . S
H2249 C2260 0.950 . S
H2250 C2262 0.950 . S
H2251 C2263 0.950 . S
C2252 H2244 0.950 . S
C2252 C2253 1.386 . S
C2252 C2254 1.391 . S
C2253 C2252 1.386 . S
C2253 C2257 1.393 . S
C2254 H2246 0.950 . S
C2254 C2252 1.391 . S
C2254 C2255 1.400 . S
C2255 C2254 1.400 . S
C2255 C2256 1.398 . S
C2255 C2261 1.491 . S
C2256 H2247 0.950 . S
C2256 C2255 1.398 . S
C2256 C2257 1.391 . S
C2257 H2245 0.950 . S
C2257 C2253 1.393 . S
C2257 C2256 1.391 . S
C2258 H2248 0.950 . S
C2258 C2259 1.386 . S
C2258 C2260 1.391 . S
C2259 C2258 1.386 . S
C2259 C2263 1.393 . S
C2260 H2249 0.950 . S
C2260 C2258 1.391 . S
C2260 C2261 1.400 . S
C2261 C2255 1.491 . S
C2261 C2260 1.400 . S
C2261 C2262 1.398 . S
C2262 H2250 0.950 . S
C2262 C2261 1.398 . S
C2262 C2263 1.391 . S
C2263 H2251 0.950 . S
C2263 C2259 1.393 . S
C2263 C2262 1.391 . S
H2264 C2272 0.950 . S
H2265 C2277 0.950 . S
H2266 C2274 0.950 . S
H2267 C2276 0.950 . S
H2268 C2278 0.950 . S
H2269 C2280 0.950 . S
H2270 C2282 0.950 . S
H2271 C2283 0.950 . S
C2272 H2264 0.950 . S
C2272 C2273 1.386 . S
C2272 C2274 1.391 . S
C2273 C2272 1.386 . S
C2273 C2277 1.393 1_455 S
C2274 H2266 0.950 . S
C2274 C2272 1.391 . S
C2274 C2275 1.400 . S
C2275 C2274 1.400 . S
C2275 C2276 1.398 1_455 S
C2275 C2281 1.491 . S
C2276 H2267 0.950 . S
C2276 C2275 1.398 1_655 S
C2276 C2277 1.391 . S
C2277 H2265 0.950 . S
C2277 C2273 1.393 1_655 S
C2277 C2276 1.391 . S
C2278 H2268 0.950 . S
C2278 C2279 1.386 1_655 S
C2278 C2280 1.391 . S
C2279 C2278 1.386 1_455 S
C2279 C2283 1.393 . S
C2280 H2269 0.950 . S
C2280 C2278 1.391 . S
C2280 C2281 1.400 1_655 S
C2281 C2275 1.491 . S
C2281 C2280 1.400 1_455 S
C2281 C2282 1.398 . S
C2282 H2270 0.950 . S
C2282 C2281 1.398 . S
C2282 C2283 1.391 . S
C2283 H2271 0.950 . S
C2283 C2279 1.393 . S
C2283 C2282 1.391 . S
H2284 C2292 0.950 . S
H2285 C2297 0.950 . S
H2286 C2294 0.950 . S
H2287 C2296 0.950 . S
H2288 C2298 0.950 . S
H2289 C2300 0.950 . S
H2290 C2302 0.950 . S
H2291 C2303 0.950 . S
C2292 H2284 0.950 . S
C2292 C2293 1.386 . S
C2292 C2294 1.391 . S
C2293 C2292 1.386 . S
C2293 C2297 1.393 . S
C2294 H2286 0.950 . S
C2294 C2292 1.391 . S
C2294 C2295 1.400 . S
C2295 C2294 1.400 . S
C2295 C2296 1.398 . S
C2295 C2301 1.491 . S
C2296 H2287 0.950 . S
C2296 C2295 1.398 . S
C2296 C2297 1.391 . S
C2297 H2285 0.950 . S
C2297 C2293 1.393 . S
C2297 C2296 1.391 . S
C2298 H2288 0.950 . S
C2298 C2299 1.386 . S
C2298 C2300 1.391 . S
C2299 C2298 1.386 . S
C2299 C2303 1.393 . S
C2300 H2289 0.950 . S
C2300 C2298 1.391 . S
C2300 C2301 1.400 . S
C2301 C2295 1.491 . S
C2301 C2300 1.400 . S
C2301 C2302 1.398 . S
C2302 H2290 0.950 . S
C2302 C2301 1.398 . S
C2302 C2303 1.391 . S
C2303 H2291 0.950 . S
C2303 C2299 1.393 . S
C2303 C2302 1.391 . S
H2304 C2312 0.950 . S
H2305 C2317 0.950 . S
H2306 C2314 0.950 . S
H2307 C2316 0.950 . S
H2308 C2318 0.950 . S
H2309 C2320 0.950 . S
H2310 C2322 0.950 . S
H2311 C2323 0.950 . S
C2312 H2304 0.950 . S
C2312 C2313 1.386 . S
C2312 C2314 1.391 . S
C2313 C2312 1.386 . S
C2313 C2317 1.393 . S
C2314 H2306 0.950 . S
C2314 C2312 1.391 . S
C2314 C2315 1.400 . S
C2315 C2314 1.400 . S
C2315 C2316 1.398 . S
C2315 C2321 1.491 . S
C2316 H2307 0.950 . S
C2316 C2315 1.398 . S
C2316 C2317 1.391 . S
C2317 H2305 0.950 . S
C2317 C2313 1.393 . S
C2317 C2316 1.391 . S
C2318 H2308 0.950 . S
C2318 C2319 1.386 . S
C2318 C2320 1.391 . S
C2319 C2318 1.386 . S
C2319 C2323 1.393 . S
C2320 H2309 0.950 . S
C2320 C2318 1.391 . S
C2320 C2321 1.400 . S
C2321 C2315 1.491 . S
C2321 C2320 1.400 . S
C2321 C2322 1.398 . S
C2322 H2310 0.950 . S
C2322 C2321 1.398 . S
C2322 C2323 1.391 . S
C2323 H2311 0.950 . S
C2323 C2319 1.393 . S
C2323 C2322 1.391 . S
H2324 C2332 0.950 . S
H2325 C2337 0.950 . S
H2326 C2334 0.950 . S
H2327 C2336 0.950 . S
H2328 C2338 0.950 . S
H2329 C2340 0.950 . S
H2330 C2342 0.950 . S
H2331 C2343 0.950 . S
C2332 H2324 0.950 . S
C2332 C2333 1.386 . S
C2332 C2334 1.391 . S
C2333 C2332 1.386 . S
C2333 C2337 1.393 . S
C2334 H2326 0.950 . S
C2334 C2332 1.391 . S
C2334 C2335 1.400 . S
C2335 C2334 1.400 . S
C2335 C2336 1.398 . S
C2335 C2341 1.491 . S
C2336 H2327 0.950 . S
C2336 C2335 1.398 . S
C2336 C2337 1.391 . S
C2337 H2325 0.950 . S
C2337 C2333 1.393 . S
C2337 C2336 1.391 . S
C2338 H2328 0.950 . S
C2338 C2339 1.386 . S
C2338 C2340 1.391 . S
C2339 C2338 1.386 . S
C2339 C2343 1.393 . S
C2340 H2329 0.950 . S
C2340 C2338 1.391 . S
C2340 C2341 1.400 . S
C2341 C2335 1.491 . S
C2341 C2340 1.400 . S
C2341 C2342 1.398 . S
C2342 H2330 0.950 . S
C2342 C2341 1.398 . S
C2342 C2343 1.391 . S
C2343 H2331 0.950 . S
C2343 C2339 1.393 . S
C2343 C2342 1.391 . S
H2344 C2352 0.950 . S
H2345 C2357 0.950 . S
H2346 C2354 0.950 . S
H2347 C2356 0.950 . S
H2348 C2358 0.950 . S
H2349 C2360 0.950 . S
H2350 C2362 0.950 . S
H2351 C2363 0.950 . S
C2352 H2344 0.950 . S
C2352 C2353 1.386 . S
C2352 C2354 1.391 . S
C2353 C2352 1.386 . S
C2353 C2357 1.393 . S
C2354 H2346 0.950 . S
C2354 C2352 1.391 . S
C2354 C2355 1.400 . S
C2355 C2354 1.400 . S
C2355 C2356 1.398 . S
C2355 C2361 1.491 . S
C2356 H2347 0.950 . S
C2356 C2355 1.398 . S
C2356 C2357 1.391 . S
C2357 H2345 0.950 . S
C2357 C2353 1.393 . S
C2357 C2356 1.391 . S
C2358 H2348 0.950 . S
C2358 C2359 1.386 . S
C2358 C2360 1.391 . S
C2359 C2358 1.386 . S
C2359 C2363 1.393 . S
C2360 H2349 0.950 . S
C2360 C2358 1.391 . S
C2360 C2361 1.400 . S
C2361 C2355 1.491 . S
C2361 C2360 1.400 . S
C2361 C2362 1.398 . S
C2362 H2350 0.950 . S
C2362 C2361 1.398 . S
C2362 C2363 1.391 . S
C2363 H2351 0.950 . S
C2363 C2359 1.393 . S
C2363 C2362 1.391 . S
H2364 C2372 0.950 . S
H2365 C2377 0.950 . S
H2366 C2374 0.950 . S
H2367 C2376 0.950 . S
H2368 C2378 0.950 . S
H2369 C2380 0.950 . S
H2370 C2382 0.950 . S
H2371 C2383 0.950 . S
C2372 H2364 0.950 . S
C2372 C2373 1.386 . S
C2372 C2374 1.391 . S
C2373 C2372 1.386 . S
C2373 C2377 1.393 . S
C2374 H2366 0.950 . S
C2374 C2372 1.391 . S
C2374 C2375 1.400 . S
C2375 C2374 1.400 . S
C2375 C2376 1.398 . S
C2375 C2381 1.491 . S
C2376 H2367 0.950 . S
C2376 C2375 1.398 . S
C2376 C2377 1.391 . S
C2377 H2365 0.950 . S
C2377 C2373 1.393 . S
C2377 C2376 1.391 . S
C2378 H2368 0.950 . S
C2378 C2379 1.386 . S
C2378 C2380 1.391 . S
C2379 C2378 1.386 . S
C2379 C2383 1.393 . S
C2380 H2369 0.950 . S
C2380 C2378 1.391 . S
C2380 C2381 1.400 . S
C2381 C2375 1.491 . S
C2381 C2380 1.400 . S
C2381 C2382 1.398 . S
C2382 H2370 0.950 . S
C2382 C2381 1.398 . S
C2382 C2383 1.391 . S
C2383 H2371 0.950 . S
C2383 C2379 1.393 . S
C2383 C2382 1.391 . S
H2384 C2392 0.950 . S
H2385 C2397 0.950 . S
H2386 C2394 0.950 . S
H2387 C2396 0.950 . S
H2388 C2398 0.950 . S
H2389 C2400 0.950 . S
H2390 C2402 0.950 . S
H2391 C2403 0.950 . S
C2392 H2384 0.950 . S
C2392 C2393 1.386 . S
C2392 C2394 1.391 . S
C2393 C2392 1.386 . S
C2393 C2397 1.393 . S
C2394 H2386 0.950 . S
C2394 C2392 1.391 . S
C2394 C2395 1.400 . S
C2395 C2394 1.400 . S
C2395 C2396 1.398 . S
C2395 C2401 1.491 . S
C2396 H2387 0.950 . S
C2396 C2395 1.398 . S
C2396 C2397 1.391 . S
C2397 H2385 0.950 . S
C2397 C2393 1.393 . S
C2397 C2396 1.391 . S
C2398 H2388 0.950 . S
C2398 C2399 1.386 . S
C2398 C2400 1.391 . S
C2399 C2398 1.386 . S
C2399 C2403 1.393 . S
C2400 H2389 0.950 . S
C2400 C2398 1.391 . S
C2400 C2401 1.400 . S
C2401 C2395 1.491 . S
C2401 C2400 1.400 . S
C2401 C2402 1.398 . S
C2402 H2390 0.950 . S
C2402 C2401 1.398 . S
C2402 C2403 1.391 . S
C2403 H2391 0.950 . S
C2403 C2399 1.393 . S
C2403 C2402 1.391 . S
H2404 C2412 0.950 . S
H2405 C2417 0.950 . S
H2406 C2414 0.950 . S
H2407 C2416 0.950 . S
H2408 C2418 0.950 . S
H2409 C2420 0.950 . S
H2410 C2422 0.950 . S
H2411 C2423 0.950 . S
C2412 H2404 0.950 . S
C2412 C2413 1.386 . S
C2412 C2414 1.391 . S
C2413 C2412 1.386 . S
C2413 C2417 1.393 . S
C2414 H2406 0.950 . S
C2414 C2412 1.391 . S
C2414 C2415 1.400 . S
C2415 C2414 1.400 . S
C2415 C2416 1.398 . S
C2415 C2421 1.491 . S
C2416 H2407 0.950 . S
C2416 C2415 1.398 . S
C2416 C2417 1.391 . S
C2417 H2405 0.950 . S
C2417 C2413 1.393 . S
C2417 C2416 1.391 . S
C2418 H2408 0.950 . S
C2418 C2419 1.386 . S
C2418 C2420 1.391 . S
C2419 C2418 1.386 . S
C2419 C2423 1.393 . S
C2420 H2409 0.950 . S
C2420 C2418 1.391 . S
C2420 C2421 1.400 . S
C2421 C2415 1.491 . S
C2421 C2420 1.400 . S
C2421 C2422 1.398 . S
C2422 H2410 0.950 . S
C2422 C2421 1.398 . S
C2422 C2423 1.391 . S
C2423 H2411 0.950 . S
C2423 C2419 1.393 . S
C2423 C2422 1.391 . S
H2424 C2432 0.950 . S
H2425 C2437 0.950 . S
H2426 C2434 0.950 . S
H2427 C2436 0.950 . S
H2428 C2438 0.950 . S
H2429 C2440 0.950 . S
H2430 C2442 0.950 . S
H2431 C2443 0.950 . S
C2432 H2424 0.950 . S
C2432 C2433 1.386 . S
C2432 C2434 1.391 . S
C2433 C2432 1.386 . S
C2433 C2437 1.393 . S
C2434 H2426 0.950 . S
C2434 C2432 1.391 . S
C2434 C2435 1.400 . S
C2435 C2434 1.400 . S
C2435 C2436 1.398 . S
C2435 C2441 1.491 . S
C2436 H2427 0.950 . S
C2436 C2435 1.398 . S
C2436 C2437 1.391 . S
C2437 H2425 0.950 . S
C2437 C2433 1.393 . S
C2437 C2436 1.391 . S
C2438 H2428 0.950 . S
C2438 C2439 1.386 . S
C2438 C2440 1.391 . S
C2439 C2438 1.386 . S
C2439 C2443 1.393 . S
C2440 H2429 0.950 . S
C2440 C2438 1.391 . S
C2440 C2441 1.400 . S
C2441 C2435 1.491 . S
C2441 C2440 1.400 . S
C2441 C2442 1.398 . S
C2442 H2430 0.950 . S
C2442 C2441 1.398 . S
C2442 C2443 1.391 . S
C2443 H2431 0.950 . S
C2443 C2439 1.393 . S
C2443 C2442 1.391 . S
H2444 C2452 0.950 . S
H2445 C2457 0.950 . S
H2446 C2454 0.950 . S
H2447 C2456 0.950 . S
H2448 C2458 0.950 . S
H2449 C2460 0.950 . S
H2450 C2462 0.950 . S
H2451 C2463 0.950 . S
C2452 H2444 0.950 . S
C2452 C2453 1.386 . S
C2452 C2454 1.391 . S
C2453 C2452 1.386 . S
C2453 C2457 1.393 . S
C2454 H2446 0.950 . S
C2454 C2452 1.391 . S
C2454 C2455 1.400 . S
C2455 C2454 1.400 . S
C2455 C2456 1.398 . S
C2455 C2461 1.491 . S
C2456 H2447 0.950 . S
C2456 C2455 1.398 . S
C2456 C2457 1.391 . S
C2457 H2445 0.950 . S
C2457 C2453 1.393 . S
C2457 C2456 1.391 . S
C2458 H2448 0.950 . S
C2458 C2459 1.386 . S
C2458 C2460 1.391 . S
C2459 C2458 1.386 . S
C2459 C2463 1.393 . S
C2460 H2449 0.950 . S
C2460 C2458 1.391 . S
C2460 C2461 1.400 . S
C2461 C2455 1.491 . S
C2461 C2460 1.400 . S
C2461 C2462 1.398 . S
C2462 H2450 0.950 . S
C2462 C2461 1.398 . S
C2462 C2463 1.391 . S
C2463 H2451 0.950 . S
C2463 C2459 1.393 . S
C2463 C2462 1.391 . S
H2464 C2472 0.950 . S
H2465 C2477 0.950 . S
H2466 C2474 0.950 . S
H2467 C2476 0.950 . S
H2468 C2478 0.950 . S
H2469 C2480 0.950 . S
H2470 C2482 0.950 . S
H2471 C2483 0.950 . S
C2472 H2464 0.950 . S
C2472 C2473 1.386 . S
C2472 C2474 1.391 . S
C2473 C2472 1.386 . S
C2473 C2477 1.393 . S
C2474 H2466 0.950 . S
C2474 C2472 1.391 . S
C2474 C2475 1.400 . S
C2475 C2474 1.400 . S
C2475 C2476 1.398 . S
C2475 C2481 1.491 . S
C2476 H2467 0.950 . S
C2476 C2475 1.398 . S
C2476 C2477 1.391 . S
C2477 H2465 0.950 . S
C2477 C2473 1.393 . S
C2477 C2476 1.391 . S
C2478 H2468 0.950 . S
C2478 C2479 1.386 . S
C2478 C2480 1.391 . S
C2479 C2478 1.386 . S
C2479 C2483 1.393 . S
C2480 H2469 0.950 . S
C2480 C2478 1.391 . S
C2480 C2481 1.400 . S
C2481 C2475 1.491 . S
C2481 C2480 1.400 . S
C2481 C2482 1.398 . S
C2482 H2470 0.950 . S
C2482 C2481 1.398 . S
C2482 C2483 1.391 . S
C2483 H2471 0.950 . S
C2483 C2479 1.393 . S
C2483 C2482 1.391 . S
H2484 C2492 0.950 . S
H2485 C2497 0.950 . S
H2486 C2494 0.950 . S
H2487 C2496 0.950 . S
H2488 C2498 0.950 . S
H2489 C2500 0.950 . S
H2490 C2502 0.950 . S
H2491 C2503 0.950 . S
C2492 H2484 0.950 . S
C2492 C2493 1.386 . S
C2492 C2494 1.391 . S
C2493 C2492 1.386 . S
C2493 C2497 1.393 . S
C2494 H2486 0.950 . S
C2494 C2492 1.391 . S
C2494 C2495 1.400 . S
C2495 C2494 1.400 . S
C2495 C2496 1.398 . S
C2495 C2501 1.491 . S
C2496 H2487 0.950 . S
C2496 C2495 1.398 . S
C2496 C2497 1.391 . S
C2497 H2485 0.950 . S
C2497 C2493 1.393 . S
C2497 C2496 1.391 . S
C2498 H2488 0.950 . S
C2498 C2499 1.386 . S
C2498 C2500 1.391 . S
C2499 C2498 1.386 . S
C2499 C2503 1.393 . S
C2500 H2489 0.950 . S
C2500 C2498 1.391 . S
C2500 C2501 1.400 . S
C2501 C2495 1.491 . S
C2501 C2500 1.400 . S
C2501 C2502 1.398 . S
C2502 H2490 0.950 . S
C2502 C2501 1.398 . S
C2502 C2503 1.391 . S
C2503 H2491 0.950 . S
C2503 C2499 1.393 . S
C2503 C2502 1.391 . S
H2504 C2512 0.950 . S
H2505 C2517 0.950 . S
H2506 C2514 0.950 . S
H2507 C2516 0.950 . S
H2508 C2518 0.950 . S
H2509 C2520 0.950 . S
H2510 C2522 0.950 . S
H2511 C2523 0.950 . S
C2512 H2504 0.950 . S
C2512 C2513 1.386 . S
C2512 C2514 1.391 . S
C2513 C2512 1.386 . S
C2513 C2517 1.393 . S
C2514 H2506 0.950 . S
C2514 C2512 1.391 . S
C2514 C2515 1.400 . S
C2515 C2514 1.400 . S
C2515 C2516 1.398 . S
C2515 C2521 1.491 . S
C2516 H2507 0.950 . S
C2516 C2515 1.398 . S
C2516 C2517 1.391 . S
C2517 H2505 0.950 . S
C2517 C2513 1.393 . S
C2517 C2516 1.391 . S
C2518 H2508 0.950 . S
C2518 C2519 1.386 . S
C2518 C2520 1.391 . S
C2519 C2518 1.386 . S
C2519 C2523 1.393 . S
C2520 H2509 0.950 . S
C2520 C2518 1.391 . S
C2520 C2521 1.400 . S
C2521 C2515 1.491 . S
C2521 C2520 1.400 . S
C2521 C2522 1.398 . S
C2522 H2510 0.950 . S
C2522 C2521 1.398 . S
C2522 C2523 1.391 . S
C2523 H2511 0.950 . S
C2523 C2519 1.393 . S
C2523 C2522 1.391 . S
H2524 C2532 0.950 . S
H2525 C2537 0.950 . S
H2526 C2534 0.950 . S
H2527 C2536 0.950 . S
H2528 C2538 0.950 . S
H2529 C2540 0.950 . S
H2530 C2542 0.950 . S
H2531 C2543 0.950 . S
C2532 H2524 0.950 . S
C2532 C2533 1.386 . S
C2532 C2534 1.391 . S
C2533 C2532 1.386 . S
C2533 C2537 1.393 . S
C2534 H2526 0.950 . S
C2534 C2532 1.391 . S
C2534 C2535 1.400 . S
C2535 C2534 1.400 . S
C2535 C2536 1.398 . S
C2535 C2541 1.491 . S
C2536 H2527 0.950 . S
C2536 C2535 1.398 . S
C2536 C2537 1.391 . S
C2537 H2525 0.950 . S
C2537 C2533 1.393 . S
C2537 C2536 1.391 . S
C2538 H2528 0.950 . S
C2538 C2539 1.386 . S
C2538 C2540 1.391 . S
C2539 C2538 1.386 . S
C2539 C2543 1.393 1_545 S
C2540 H2529 0.950 . S
C2540 C2538 1.391 . S
C2540 C2541 1.400 1_545 S
C2541 C2535 1.491 . S
C2541 C2540 1.400 1_565 S
C2541 C2542 1.398 . S
C2542 H2530 0.950 . S
C2542 C2541 1.398 . S
C2542 C2543 1.391 . S
C2543 H2531 0.950 . S
C2543 C2539 1.393 1_565 S
C2543 C2542 1.391 . S
H2544 C2552 0.950 . S
H2545 C2557 0.950 . S
H2546 C2554 0.950 . S
H2547 C2556 0.950 . S
H2548 C2558 0.950 . S
H2549 C2560 0.950 . S
H2550 C2562 0.950 . S
H2551 C2563 0.950 . S
C2552 H2544 0.950 . S
C2552 C2553 1.386 . S
C2552 C2554 1.391 . S
C2553 C2552 1.386 . S
C2553 C2557 1.393 . S
C2554 H2546 0.950 . S
C2554 C2552 1.391 . S
C2554 C2555 1.400 . S
C2555 C2554 1.400 . S
C2555 C2556 1.398 . S
C2555 C2561 1.491 . S
C2556 H2547 0.950 . S
C2556 C2555 1.398 . S
C2556 C2557 1.391 . S
C2557 H2545 0.950 . S
C2557 C2553 1.393 . S
C2557 C2556 1.391 . S
C2558 H2548 0.950 . S
C2558 C2559 1.386 . S
C2558 C2560 1.391 . S
C2559 C2558 1.386 . S
C2559 C2563 1.393 . S
C2560 H2549 0.950 . S
C2560 C2558 1.391 . S
C2560 C2561 1.400 . S
C2561 C2555 1.491 . S
C2561 C2560 1.400 . S
C2561 C2562 1.398 . S
C2562 H2550 0.950 . S
C2562 C2561 1.398 . S
C2562 C2563 1.391 . S
C2563 H2551 0.950 . S
C2563 C2559 1.393 . S
C2563 C2562 1.391 . S
H2564 C2572 0.950 . S
H2565 C2577 0.950 . S
H2566 C2574 0.950 . S
H2567 C2576 0.950 . S
H2568 C2578 0.950 . S
H2569 C2580 0.950 . S
H2570 C2582 0.950 1_556 S
H2571 C2583 0.950 1_556 S
C2572 H2564 0.950 . S
C2572 C2573 1.386 1_556 S
C2572 C2574 1.391 . S
C2573 C2572 1.386 1_554 S
C2573 C2577 1.393 . S
C2574 H2566 0.950 . S
C2574 C2572 1.391 . S
C2574 C2575 1.400 1_556 S
C2575 C2574 1.400 1_554 S
C2575 C2576 1.398 . S
C2575 C2581 1.491 . S
C2576 H2567 0.950 . S
C2576 C2575 1.398 . S
C2576 C2577 1.391 . S
C2577 H2565 0.950 . S
C2577 C2573 1.393 . S
C2577 C2576 1.391 . S
C2578 H2568 0.950 . S
C2578 C2579 1.386 . S
C2578 C2580 1.391 . S
C2579 C2578 1.386 . S
C2579 C2583 1.393 . S
C2580 H2569 0.950 . S
C2580 C2578 1.391 . S
C2580 C2581 1.400 . S
C2581 C2575 1.491 . S
C2581 C2580 1.400 . S
C2581 C2582 1.398 . S
C2582 H2570 0.950 1_554 S
C2582 C2581 1.398 . S
C2582 C2583 1.391 . S
C2583 H2571 0.950 1_554 S
C2583 C2579 1.393 . S
C2583 C2582 1.391 . S
H2584 C2592 0.950 . S
H2585 C2597 0.950 . S
H2586 C2594 0.950 . S
H2587 C2596 0.950 . S
H2588 C2598 0.950 . S
H2589 C2600 0.950 . S
H2590 C2602 0.950 . S
H2591 C2603 0.950 . S
C2592 H2584 0.950 . S
C2592 C2593 1.386 . S
C2592 C2594 1.391 . S
C2593 C2592 1.386 . S
C2593 C2597 1.393 . S
C2594 H2586 0.950 . S
C2594 C2592 1.391 . S
C2594 C2595 1.400 . S
C2595 C2594 1.400 . S
C2595 C2596 1.398 . S
C2595 C2601 1.491 . S
C2596 H2587 0.950 . S
C2596 C2595 1.398 . S
C2596 C2597 1.391 . S
C2597 H2585 0.950 . S
C2597 C2593 1.393 . S
C2597 C2596 1.391 . S
C2598 H2588 0.950 . S
C2598 C2599 1.386 . S
C2598 C2600 1.391 . S
C2599 C2598 1.386 . S
C2599 C2603 1.393 . S
C2600 H2589 0.950 . S
C2600 C2598 1.391 . S
C2600 C2601 1.400 . S
C2601 C2595 1.491 . S
C2601 C2600 1.400 . S
C2601 C2602 1.398 . S
C2602 H2590 0.950 . S
C2602 C2601 1.398 . S
C2602 C2603 1.391 . S
C2603 H2591 0.950 . S
C2603 C2599 1.393 . S
C2603 C2602 1.391 . S
H2604 C2612 0.950 . S
H2605 C2617 0.950 . S
H2606 C2614 0.950 . S
H2607 C2616 0.950 . S
H2608 C2618 0.950 . S
H2609 C2620 0.950 . S
H2610 C2622 0.950 . S
H2611 C2623 0.950 . S
C2612 H2604 0.950 . S
C2612 C2613 1.386 . S
C2612 C2614 1.391 . S
C2613 C2612 1.386 . S
C2613 C2617 1.393 . S
C2614 H2606 0.950 . S
C2614 C2612 1.391 . S
C2614 C2615 1.400 . S
C2615 C2614 1.400 . S
C2615 C2616 1.398 . S
C2615 C2621 1.491 . S
C2616 H2607 0.950 . S
C2616 C2615 1.398 . S
C2616 C2617 1.391 . S
C2617 H2605 0.950 . S
C2617 C2613 1.393 . S
C2617 C2616 1.391 . S
C2618 H2608 0.950 . S
C2618 C2619 1.386 . S
C2618 C2620 1.391 . S
C2619 C2618 1.386 . S
C2619 C2623 1.393 . S
C2620 H2609 0.950 . S
C2620 C2618 1.391 . S
C2620 C2621 1.400 . S
C2621 C2615 1.491 . S
C2621 C2620 1.400 . S
C2621 C2622 1.398 . S
C2622 H2610 0.950 . S
C2622 C2621 1.398 . S
C2622 C2623 1.391 . S
C2623 H2611 0.950 . S
C2623 C2619 1.393 . S
C2623 C2622 1.391 . S
H2624 C2632 0.950 . S
H2625 C2637 0.950 . S
H2626 C2634 0.950 . S
H2627 C2636 0.950 . S
H2628 C2638 0.950 . S
H2629 C2640 0.950 . S
H2630 C2642 0.950 . S
H2631 C2643 0.950 . S
C2632 H2624 0.950 . S
C2632 C2633 1.386 . S
C2632 C2634 1.391 . S
C2633 C2632 1.386 . S
C2633 C2637 1.393 . S
C2634 H2626 0.950 . S
C2634 C2632 1.391 . S
C2634 C2635 1.400 . S
C2635 C2634 1.400 . S
C2635 C2636 1.398 . S
C2635 C2641 1.491 . S
C2636 H2627 0.950 . S
C2636 C2635 1.398 . S
C2636 C2637 1.391 . S
C2637 H2625 0.950 . S
C2637 C2633 1.393 . S
C2637 C2636 1.391 . S
C2638 H2628 0.950 . S
C2638 C2639 1.386 . S
C2638 C2640 1.391 . S
C2639 C2638 1.386 . S
C2639 C2643 1.393 . S
C2640 H2629 0.950 . S
C2640 C2638 1.391 . S
C2640 C2641 1.400 . S
C2641 C2635 1.491 . S
C2641 C2640 1.400 . S
C2641 C2642 1.398 . S
C2642 H2630 0.950 . S
C2642 C2641 1.398 . S
C2642 C2643 1.391 . S
C2643 H2631 0.950 . S
C2643 C2639 1.393 . S
C2643 C2642 1.391 . S
H2644 C2652 0.950 . S
H2645 C2657 0.950 . S
H2646 C2654 0.950 . S
H2647 C2656 0.950 . S
H2648 C2658 0.950 . S
H2649 C2660 0.950 . S
H2650 C2662 0.950 . S
H2651 C2663 0.950 . S
C2652 H2644 0.950 . S
C2652 C2653 1.386 . S
C2652 C2654 1.391 . S
C2653 C2652 1.386 . S
C2653 C2657 1.393 . S
C2654 H2646 0.950 . S
C2654 C2652 1.391 . S
C2654 C2655 1.400 . S
C2655 C2654 1.400 . S
C2655 C2656 1.398 . S
C2655 C2661 1.491 . S
C2656 H2647 0.950 . S
C2656 C2655 1.398 . S
C2656 C2657 1.391 . S
C2657 H2645 0.950 . S
C2657 C2653 1.393 . S
C2657 C2656 1.391 . S
C2658 H2648 0.950 . S
C2658 C2659 1.386 . S
C2658 C2660 1.391 . S
C2659 C2658 1.386 . S
C2659 C2663 1.393 . S
C2660 H2649 0.950 . S
C2660 C2658 1.391 . S
C2660 C2661 1.400 . S
C2661 C2655 1.491 . S
C2661 C2660 1.400 . S
C2661 C2662 1.398 . S
C2662 H2650 0.950 . S
C2662 C2661 1.398 . S
C2662 C2663 1.391 . S
C2663 H2651 0.950 . S
C2663 C2659 1.393 . S
C2663 C2662 1.391 . S
H2664 C2672 0.950 . S
H2665 C2677 0.950 . S
H2666 C2674 0.950 . S
H2667 C2676 0.950 . S
H2668 C2678 0.950 . S
H2669 C2680 0.950 . S
H2670 C2682 0.950 . S
H2671 C2683 0.950 1_556 S
C2672 H2664 0.950 . S
C2672 C2673 1.386 . S
C2672 C2674 1.391 . S
C2673 C2672 1.386 . S
C2673 C2677 1.393 . S
C2674 H2666 0.950 . S
C2674 C2672 1.391 . S
C2674 C2675 1.400 . S
C2675 C2674 1.400 . S
C2675 C2676 1.398 . S
C2675 C2681 1.491 . S
C2676 H2667 0.950 . S
C2676 C2675 1.398 . S
C2676 C2677 1.391 . S
C2677 H2665 0.950 . S
C2677 C2673 1.393 . S
C2677 C2676 1.391 . S
C2678 H2668 0.950 . S
C2678 C2679 1.386 . S
C2678 C2680 1.391 . S
C2679 C2678 1.386 . S
C2679 C2683 1.393 . S
C2680 H2669 0.950 . S
C2680 C2678 1.391 . S
C2680 C2681 1.400 . S
C2681 C2675 1.491 . S
C2681 C2680 1.400 . S
C2681 C2682 1.398 . S
C2682 H2670 0.950 . S
C2682 C2681 1.398 . S
C2682 C2683 1.391 . S
C2683 H2671 0.950 1_554 S
C2683 C2679 1.393 . S
C2683 C2682 1.391 . S
H2684 C2692 0.950 . S
H2685 C2697 0.950 . S
H2686 C2694 0.950 . S
H2687 C2696 0.950 . S
H2688 C2698 0.950 . S
H2689 C2700 0.950 . S
H2690 C2702 0.950 . S
H2691 C2703 0.950 . S
C2692 H2684 0.950 . S
C2692 C2693 1.386 . S
C2692 C2694 1.391 . S
C2693 C2692 1.386 . S
C2693 C2697 1.393 . S
C2694 H2686 0.950 . S
C2694 C2692 1.391 . S
C2694 C2695 1.400 . S
C2695 C2694 1.400 . S
C2695 C2696 1.398 . S
C2695 C2701 1.491 . S
C2696 H2687 0.950 . S
C2696 C2695 1.398 . S
C2696 C2697 1.391 . S
C2697 H2685 0.950 . S
C2697 C2693 1.393 . S
C2697 C2696 1.391 . S
C2698 H2688 0.950 . S
C2698 C2699 1.386 . S
C2698 C2700 1.391 . S
C2699 C2698 1.386 . S
C2699 C2703 1.393 . S
C2700 H2689 0.950 . S
C2700 C2698 1.391 . S
C2700 C2701 1.400 . S
C2701 C2695 1.491 . S
C2701 C2700 1.400 . S
C2701 C2702 1.398 . S
C2702 H2690 0.950 . S
C2702 C2701 1.398 . S
C2702 C2703 1.391 . S
C2703 H2691 0.950 . S
C2703 C2699 1.393 . S
C2703 C2702 1.391 . S
H2704 C2712 0.950 . S
H2705 C2717 0.950 . S
H2706 C2714 0.950 . S
H2707 C2716 0.950 . S
H2708 C2718 0.950 . S
H2709 C2720 0.950 . S
H2710 C2722 0.950 . S
H2711 C2723 0.950 . S
C2712 H2704 0.950 . S
C2712 C2713 1.386 . S
C2712 C2714 1.391 . S
C2713 C2712 1.386 . S
C2713 C2717 1.393 . S
C2714 H2706 0.950 . S
C2714 C2712 1.391 . S
C2714 C2715 1.400 . S
C2715 C2714 1.400 . S
C2715 C2716 1.398 . S
C2715 C2721 1.491 . S
C2716 H2707 0.950 . S
C2716 C2715 1.398 . S
C2716 C2717 1.391 . S
C2717 H2705 0.950 . S
C2717 C2713 1.393 . S
C2717 C2716 1.391 . S
C2718 H2708 0.950 . S
C2718 C2719 1.386 . S
C2718 C2720 1.391 . S
C2719 C2718 1.386 . S
C2719 C2723 1.393 . S
C2720 H2709 0.950 . S
C2720 C2718 1.391 . S
C2720 C2721 1.400 . S
C2721 C2715 1.491 . S
C2721 C2720 1.400 . S
C2721 C2722 1.398 . S
C2722 H2710 0.950 . S
C2722 C2721 1.398 . S
C2722 C2723 1.391 . S
C2723 H2711 0.950 . S
C2723 C2719 1.393 . S
C2723 C2722 1.391 . S
H2724 C2732 0.950 . S
H2725 C2737 0.950 . S
H2726 C2734 0.950 . S
H2727 C2736 0.950 . S
H2728 C2738 0.950 . S
H2729 C2740 0.950 . S
H2730 C2742 0.950 . S
H2731 C2743 0.950 . S
C2732 H2724 0.950 . S
C2732 C2733 1.386 . S
C2732 C2734 1.391 . S
C2733 C2732 1.386 . S
C2733 C2737 1.393 . S
C2734 H2726 0.950 . S
C2734 C2732 1.391 . S
C2734 C2735 1.400 . S
C2735 C2734 1.400 . S
C2735 C2736 1.398 . S
C2735 C2741 1.491 . S
C2736 H2727 0.950 . S
C2736 C2735 1.398 . S
C2736 C2737 1.391 . S
C2737 H2725 0.950 . S
C2737 C2733 1.393 . S
C2737 C2736 1.391 . S
C2738 H2728 0.950 . S
C2738 C2739 1.386 . S
C2738 C2740 1.391 . S
C2739 C2738 1.386 . S
C2739 C2743 1.393 . S
C2740 H2729 0.950 . S
C2740 C2738 1.391 . S
C2740 C2741 1.400 . S
C2741 C2735 1.491 . S
C2741 C2740 1.400 . S
C2741 C2742 1.398 . S
C2742 H2730 0.950 . S
C2742 C2741 1.398 . S
C2742 C2743 1.391 . S
C2743 H2731 0.950 . S
C2743 C2739 1.393 . S
C2743 C2742 1.391 . S
H2744 C2752 0.950 . S
H2745 C2757 0.950 1_655 S
H2746 C2754 0.950 . S
H2747 C2756 0.950 1_655 S
H2748 C2758 0.950 1_655 S
H2749 C2760 0.950 1_655 S
H2750 C2762 0.950 . S
H2751 C2763 0.950 . S
C2752 H2744 0.950 . S
C2752 C2753 1.386 . S
C2752 C2754 1.391 . S
C2753 C2752 1.386 . S
C2753 C2757 1.393 . S
C2754 H2746 0.950 . S
C2754 C2752 1.391 . S
C2754 C2755 1.400 . S
C2755 C2754 1.400 . S
C2755 C2756 1.398 . S
C2755 C2761 1.491 . S
C2756 H2747 0.950 1_455 S
C2756 C2755 1.398 . S
C2756 C2757 1.391 . S
C2757 H2745 0.950 1_455 S
C2757 C2753 1.393 . S
C2757 C2756 1.391 . S
C2758 H2748 0.950 1_455 S
C2758 C2759 1.386 . S
C2758 C2760 1.391 . S
C2759 C2758 1.386 . S
C2759 C2763 1.393 . S
C2760 H2749 0.950 1_455 S
C2760 C2758 1.391 . S
C2760 C2761 1.400 . S
C2761 C2755 1.491 . S
C2761 C2760 1.400 . S
C2761 C2762 1.398 . S
C2762 H2750 0.950 . S
C2762 C2761 1.398 . S
C2762 C2763 1.391 . S
C2763 H2751 0.950 . S
C2763 C2759 1.393 . S
C2763 C2762 1.391 . S
H2764 C2772 0.950 . S
H2765 C2777 0.950 . S
H2766 C2774 0.950 . S
H2767 C2776 0.950 . S
H2768 C2778 0.950 . S
H2769 C2780 0.950 . S
H2770 C2782 0.950 . S
H2771 C2783 0.950 . S
C2772 H2764 0.950 . S
C2772 C2773 1.386 . S
C2772 C2774 1.391 . S
C2773 C2772 1.386 . S
C2773 C2777 1.393 . S
C2774 H2766 0.950 . S
C2774 C2772 1.391 . S
C2774 C2775 1.400 . S
C2775 C2774 1.400 . S
C2775 C2776 1.398 . S
C2775 C2781 1.491 . S
C2776 H2767 0.950 . S
C2776 C2775 1.398 . S
C2776 C2777 1.391 . S
C2777 H2765 0.950 . S
C2777 C2773 1.393 . S
C2777 C2776 1.391 . S
C2778 H2768 0.950 . S
C2778 C2779 1.386 . S
C2778 C2780 1.391 . S
C2779 C2778 1.386 . S
C2779 C2783 1.393 . S
C2780 H2769 0.950 . S
C2780 C2778 1.391 . S
C2780 C2781 1.400 . S
C2781 C2775 1.491 . S
C2781 C2780 1.400 . S
C2781 C2782 1.398 . S
C2782 H2770 0.950 . S
C2782 C2781 1.398 . S
C2782 C2783 1.391 . S
C2783 H2771 0.950 . S
C2783 C2779 1.393 . S
C2783 C2782 1.391 . S
H2784 C2792 0.950 . S
H2785 C2797 0.950 . S
H2786 C2794 0.950 . S
H2787 C2796 0.950 . S
H2788 C2798 0.950 . S
H2789 C2800 0.950 . S
H2790 C2802 0.950 . S
H2791 C2803 0.950 . S
C2792 H2784 0.950 . S
C2792 C2793 1.386 . S
C2792 C2794 1.391 . S
C2793 C2792 1.386 . S
C2793 C2797 1.393 . S
C2794 H2786 0.950 . S
C2794 C2792 1.391 . S
C2794 C2795 1.400 . S
C2795 C2794 1.400 . S
C2795 C2796 1.398 . S
C2795 C2801 1.491 . S
C2796 H2787 0.950 . S
C2796 C2795 1.398 . S
C2796 C2797 1.391 . S
C2797 H2785 0.950 . S
C2797 C2793 1.393 . S
C2797 C2796 1.391 . S
C2798 H2788 0.950 . S
C2798 C2799 1.386 . S
C2798 C2800 1.391 . S
C2799 C2798 1.386 . S
C2799 C2803 1.393 . S
C2800 H2789 0.950 . S
C2800 C2798 1.391 . S
C2800 C2801 1.400 . S
C2801 C2795 1.491 . S
C2801 C2800 1.400 . S
C2801 C2802 1.398 . S
C2802 H2790 0.950 . S
C2802 C2801 1.398 . S
C2802 C2803 1.391 . S
C2803 H2791 0.950 . S
C2803 C2799 1.393 . S
C2803 C2802 1.391 . S
H2804 C2812 0.950 . S
H2805 C2817 0.950 . S
H2806 C2814 0.950 . S
H2807 C2816 0.950 . S
H2808 C2818 0.950 . S
H2809 C2820 0.950 . S
H2810 C2822 0.950 . S
H2811 C2823 0.950 . S
C2812 H2804 0.950 . S
C2812 C2813 1.386 . S
C2812 C2814 1.391 . S
C2813 C2812 1.386 . S
C2813 C2817 1.393 . S
C2814 H2806 0.950 . S
C2814 C2812 1.391 . S
C2814 C2815 1.400 . S
C2815 C2814 1.400 . S
C2815 C2816 1.398 . S
C2815 C2821 1.491 . S
C2816 H2807 0.950 . S
C2816 C2815 1.398 . S
C2816 C2817 1.391 . S
C2817 H2805 0.950 . S
C2817 C2813 1.393 . S
C2817 C2816 1.391 . S
C2818 H2808 0.950 . S
C2818 C2819 1.386 . S
C2818 C2820 1.391 . S
C2819 C2818 1.386 . S
C2819 C2823 1.393 . S
C2820 H2809 0.950 . S
C2820 C2818 1.391 . S
C2820 C2821 1.400 . S
C2821 C2815 1.491 . S
C2821 C2820 1.400 . S
C2821 C2822 1.398 . S
C2822 H2810 0.950 . S
C2822 C2821 1.398 . S
C2822 C2823 1.391 . S
C2823 H2811 0.950 . S
C2823 C2819 1.393 . S
C2823 C2822 1.391 . S
H2824 C2832 0.950 . S
H2825 C2837 0.950 . S
H2826 C2834 0.950 . S
H2827 C2836 0.950 . S
H2828 C2838 0.950 . S
H2829 C2840 0.950 1_455 S
H2830 C2842 0.950 . S
H2831 C2843 0.950 . S
C2832 H2824 0.950 . S
C2832 C2833 1.386 . S
C2832 C2834 1.391 . S
C2833 C2832 1.386 . S
C2833 C2837 1.393 . S
C2834 H2826 0.950 . S
C2834 C2832 1.391 . S
C2834 C2835 1.400 . S
C2835 C2834 1.400 . S
C2835 C2836 1.398 . S
C2835 C2841 1.491 . S
C2836 H2827 0.950 . S
C2836 C2835 1.398 . S
C2836 C2837 1.391 . S
C2837 H2825 0.950 . S
C2837 C2833 1.393 . S
C2837 C2836 1.391 . S
C2838 H2828 0.950 . S
C2838 C2839 1.386 1_455 S
C2838 C2840 1.391 1_455 S
C2839 C2838 1.386 1_655 S
C2839 C2843 1.393 . S
C2840 H2829 0.950 1_655 S
C2840 C2838 1.391 1_655 S
C2840 C2841 1.400 . S
C2841 C2835 1.491 . S
C2841 C2840 1.400 . S
C2841 C2842 1.398 . S
C2842 H2830 0.950 . S
C2842 C2841 1.398 . S
C2842 C2843 1.391 . S
C2843 H2831 0.950 . S
C2843 C2839 1.393 . S
C2843 C2842 1.391 . S
H2844 C2852 0.950 . S
H2845 C2857 0.950 . S
H2846 C2854 0.950 . S
H2847 C2856 0.950 . S
H2848 C2858 0.950 . S
H2849 C2860 0.950 . S
H2850 C2862 0.950 . S
H2851 C2863 0.950 . S
C2852 H2844 0.950 . S
C2852 C2853 1.386 . S
C2852 C2854 1.391 . S
C2853 C2852 1.386 . S
C2853 C2857 1.393 . S
C2854 H2846 0.950 . S
C2854 C2852 1.391 . S
C2854 C2855 1.400 . S
C2855 C2854 1.400 . S
C2855 C2856 1.398 . S
C2855 C2861 1.491 . S
C2856 H2847 0.950 . S
C2856 C2855 1.398 . S
C2856 C2857 1.391 . S
C2857 H2845 0.950 . S
C2857 C2853 1.393 . S
C2857 C2856 1.391 . S
C2858 H2848 0.950 . S
C2858 C2859 1.386 . S
C2858 C2860 1.391 . S
C2859 C2858 1.386 . S
C2859 C2863 1.393 . S
C2860 H2849 0.950 . S
C2860 C2858 1.391 . S
C2860 C2861 1.400 . S
C2861 C2855 1.491 . S
C2861 C2860 1.400 . S
C2861 C2862 1.398 . S
C2862 H2850 0.950 . S
C2862 C2861 1.398 . S
C2862 C2863 1.391 . S
C2863 H2851 0.950 . S
C2863 C2859 1.393 . S
C2863 C2862 1.391 . S
H2864 C2872 0.950 . S
H2865 C2877 0.950 . S
H2866 C2874 0.950 . S
H2867 C2876 0.950 . S
H2868 C2878 0.950 . S
H2869 C2880 0.950 . S
H2870 C2882 0.950 . S
H2871 C2883 0.950 . S
C2872 H2864 0.950 . S
C2872 C2873 1.386 . S
C2872 C2874 1.391 . S
C2873 C2872 1.386 . S
C2873 C2877 1.393 . S
C2874 H2866 0.950 . S
C2874 C2872 1.391 . S
C2874 C2875 1.400 . S
C2875 C2874 1.400 . S
C2875 C2876 1.398 . S
C2875 C2881 1.491 . S
C2876 H2867 0.950 . S
C2876 C2875 1.398 . S
C2876 C2877 1.391 . S
C2877 H2865 0.950 . S
C2877 C2873 1.393 . S
C2877 C2876 1.391 . S
C2878 H2868 0.950 . S
C2878 C2879 1.386 . S
C2878 C2880 1.391 . S
C2879 C2878 1.386 . S
C2879 C2883 1.393 . S
C2880 H2869 0.950 . S
C2880 C2878 1.391 . S
C2880 C2881 1.400 . S
C2881 C2875 1.491 . S
C2881 C2880 1.400 . S
C2881 C2882 1.398 . S
C2882 H2870 0.950 . S
C2882 C2881 1.398 . S
C2882 C2883 1.391 . S
C2883 H2871 0.950 . S
C2883 C2879 1.393 . S
C2883 C2882 1.391 . S
H2884 C2892 0.950 . S
H2885 C2897 0.950 . S
H2886 C2894 0.950 . S
H2887 C2896 0.950 . S
H2888 C2898 0.950 . S
H2889 C2900 0.950 . S
H2890 C2902 0.950 . S
H2891 C2903 0.950 . S
C2892 H2884 0.950 . S
C2892 C2893 1.386 . S
C2892 C2894 1.391 . S
C2893 C2892 1.386 . S
C2893 C2897 1.393 . S
C2894 H2886 0.950 . S
C2894 C2892 1.391 . S
C2894 C2895 1.400 . S
C2895 C2894 1.400 . S
C2895 C2896 1.398 . S
C2895 C2901 1.491 . S
C2896 H2887 0.950 . S
C2896 C2895 1.398 . S
C2896 C2897 1.391 . S
C2897 H2885 0.950 . S
C2897 C2893 1.393 . S
C2897 C2896 1.391 . S
C2898 H2888 0.950 . S
C2898 C2899 1.386 . S
C2898 C2900 1.391 . S
C2899 C2898 1.386 . S
C2899 C2903 1.393 . S
C2900 H2889 0.950 . S
C2900 C2898 1.391 . S
C2900 C2901 1.400 . S
C2901 C2895 1.491 . S
C2901 C2900 1.400 . S
C2901 C2902 1.398 . S
C2902 H2890 0.950 . S
C2902 C2901 1.398 . S
C2902 C2903 1.391 . S
C2903 H2891 0.950 . S
C2903 C2899 1.393 . S
C2903 C2902 1.391 . S
H2904 C2912 0.950 . S
H2905 C2917 0.950 . S
H2906 C2914 0.950 . S
H2907 C2916 0.950 . S
H2908 C2918 0.950 . S
H2909 C2920 0.950 . S
H2910 C2922 0.950 . S
H2911 C2923 0.950 . S
C2912 H2904 0.950 . S
C2912 C2913 1.386 . S
C2912 C2914 1.391 . S
C2913 C2912 1.386 . S
C2913 C2917 1.393 . S
C2914 H2906 0.950 . S
C2914 C2912 1.391 . S
C2914 C2915 1.400 . S
C2915 C2914 1.400 . S
C2915 C2916 1.398 . S
C2915 C2921 1.491 . S
C2916 H2907 0.950 . S
C2916 C2915 1.398 . S
C2916 C2917 1.391 . S
C2917 H2905 0.950 . S
C2917 C2913 1.393 . S
C2917 C2916 1.391 . S
C2918 H2908 0.950 . S
C2918 C2919 1.386 . S
C2918 C2920 1.391 . S
C2919 C2918 1.386 . S
C2919 C2923 1.393 . S
C2920 H2909 0.950 . S
C2920 C2918 1.391 . S
C2920 C2921 1.400 . S
C2921 C2915 1.491 . S
C2921 C2920 1.400 . S
C2921 C2922 1.398 . S
C2922 H2910 0.950 . S
C2922 C2921 1.398 . S
C2922 C2923 1.391 . S
C2923 H2911 0.950 . S
C2923 C2919 1.393 . S
C2923 C2922 1.391 . S
H2924 C2932 0.950 . S
H2925 C2937 0.950 . S
H2926 C2934 0.950 . S
H2927 C2936 0.950 . S
H2928 C2938 0.950 . S
H2929 C2940 0.950 . S
H2930 C2942 0.950 . S
H2931 C2943 0.950 . S
C2932 H2924 0.950 . S
C2932 C2933 1.386 . S
C2932 C2934 1.391 . S
C2933 C2932 1.386 . S
C2933 C2937 1.393 . S
C2934 H2926 0.950 . S
C2934 C2932 1.391 . S
C2934 C2935 1.400 . S
C2935 C2934 1.400 . S
C2935 C2936 1.398 . S
C2935 C2941 1.491 . S
C2936 H2927 0.950 . S
C2936 C2935 1.398 . S
C2936 C2937 1.391 . S
C2937 H2925 0.950 . S
C2937 C2933 1.393 . S
C2937 C2936 1.391 . S
C2938 H2928 0.950 . S
C2938 C2939 1.386 . S
C2938 C2940 1.391 . S
C2939 C2938 1.386 . S
C2939 C2943 1.393 . S
C2940 H2929 0.950 . S
C2940 C2938 1.391 . S
C2940 C2941 1.400 . S
C2941 C2935 1.491 . S
C2941 C2940 1.400 . S
C2941 C2942 1.398 . S
C2942 H2930 0.950 . S
C2942 C2941 1.398 . S
C2942 C2943 1.391 . S
C2943 H2931 0.950 . S
C2943 C2939 1.393 . S
C2943 C2942 1.391 . S
H2944 C2952 0.950 . S
H2945 C2957 0.950 . S
H2946 C2954 0.950 . S
H2947 C2956 0.950 . S
H2948 C2958 0.950 . S
H2949 C2960 0.950 . S
H2950 C2962 0.950 . S
H2951 C2963 0.950 . S
C2952 H2944 0.950 . S
C2952 C2953 1.386 . S
C2952 C2954 1.391 . S
C2953 C2952 1.386 . S
C2953 C2957 1.393 . S
C2954 H2946 0.950 . S
C2954 C2952 1.391 . S
C2954 C2955 1.400 . S
C2955 C2954 1.400 . S
C2955 C2956 1.398 . S
C2955 C2961 1.491 . S
C2956 H2947 0.950 . S
C2956 C2955 1.398 . S
C2956 C2957 1.391 . S
C2957 H2945 0.950 . S
C2957 C2953 1.393 . S
C2957 C2956 1.391 . S
C2958 H2948 0.950 . S
C2958 C2959 1.386 . S
C2958 C2960 1.391 . S
C2959 C2958 1.386 . S
C2959 C2963 1.393 . S
C2960 H2949 0.950 . S
C2960 C2958 1.391 . S
C2960 C2961 1.400 . S
C2961 C2955 1.491 . S
C2961 C2960 1.400 . S
C2961 C2962 1.398 . S
C2962 H2950 0.950 . S
C2962 C2961 1.398 . S
C2962 C2963 1.391 . S
C2963 H2951 0.950 . S
C2963 C2959 1.393 . S
C2963 C2962 1.391 . S
H2964 C2972 0.950 . S
H2965 C2977 0.950 . S
H2966 C2974 0.950 . S
H2967 C2976 0.950 . S
H2968 C2978 0.950 . S
H2969 C2980 0.950 . S
H2970 C2982 0.950 . S
H2971 C2983 0.950 1_545 S
C2972 H2964 0.950 . S
C2972 C2973 1.386 . S
C2972 C2974 1.391 . S
C2973 C2972 1.386 . S
C2973 C2977 1.393 . S
C2974 H2966 0.950 . S
C2974 C2972 1.391 . S
C2974 C2975 1.400 . S
C2975 C2974 1.400 . S
C2975 C2976 1.398 . S
C2975 C2981 1.491 . S
C2976 H2967 0.950 . S
C2976 C2975 1.398 . S
C2976 C2977 1.391 . S
C2977 H2965 0.950 . S
C2977 C2973 1.393 . S
C2977 C2976 1.391 . S
C2978 H2968 0.950 . S
C2978 C2979 1.386 . S
C2978 C2980 1.391 . S
C2979 C2978 1.386 . S
C2979 C2983 1.393 . S
C2980 H2969 0.950 . S
C2980 C2978 1.391 . S
C2980 C2981 1.400 . S
C2981 C2975 1.491 . S
C2981 C2980 1.400 . S
C2981 C2982 1.398 . S
C2982 H2970 0.950 . S
C2982 C2981 1.398 . S
C2982 C2983 1.391 . S
C2983 H2971 0.950 1_565 S
C2983 C2979 1.393 . S
C2983 C2982 1.391 . S
H2984 C2992 0.950 . S
H2985 C2997 0.950 . S
H2986 C2994 0.950 . S
H2987 C2996 0.950 . S
H2988 C2998 0.950 . S
H2989 C3000 0.950 . S
H2990 C3002 0.950 . S
H2991 C3003 0.950 . S
C2992 H2984 0.950 . S
C2992 C2993 1.386 . S
C2992 C2994 1.391 . S
C2993 C2992 1.386 . S
C2993 C2997 1.393 . S
C2994 H2986 0.950 . S
C2994 C2992 1.391 . S
C2994 C2995 1.400 . S
C2995 C2994 1.400 . S
C2995 C2996 1.398 . S
C2995 C3001 1.491 . S
C2996 H2987 0.950 . S
C2996 C2995 1.398 . S
C2996 C2997 1.391 . S
C2997 H2985 0.950 . S
C2997 C2993 1.393 . S
C2997 C2996 1.391 . S
C2998 H2988 0.950 . S
C2998 C2999 1.386 . S
C2998 C3000 1.391 . S
C2999 C2998 1.386 . S
C2999 C3003 1.393 . S
C3000 H2989 0.950 . S
C3000 C2998 1.391 . S
C3000 C3001 1.400 . S
C3001 C2995 1.491 . S
C3001 C3000 1.400 . S
C3001 C3002 1.398 . S
C3002 H2990 0.950 . S
C3002 C3001 1.398 . S
C3002 C3003 1.391 . S
C3003 H2991 0.950 . S
C3003 C2999 1.393 . S
C3003 C3002 1.391 . S
H3004 C3012 0.950 . S
H3005 C3017 0.950 . S
H3006 C3014 0.950 . S
H3007 C3016 0.950 . S
H3008 C3018 0.950 . S
H3009 C3020 0.950 . S
H3010 C3022 0.950 . S
H3011 C3023 0.950 . S
C3012 H3004 0.950 . S
C3012 C3013 1.386 . S
C3012 C3014 1.391 . S
C3013 C3012 1.386 . S
C3013 C3017 1.393 1_556 S
C3014 H3006 0.950 . S
C3014 C3012 1.391 . S
C3014 C3015 1.372 1_556 S
C3015 C3014 1.372 1_554 S
C3015 C3016 1.422 . S
C3015 C3021 1.496 . S
C3016 H3007 0.950 . S
C3016 C3015 1.422 . S
C3016 C3017 1.391 . S
C3017 H3005 0.950 . S
C3017 C3013 1.393 1_554 S
C3017 C3016 1.391 . S
C3018 H3008 0.950 . S
C3018 C3019 1.386 . S
C3018 C3020 1.391 . S
C3019 C3018 1.386 . S
C3019 C3023 1.393 1_554 S
C3020 H3009 0.950 . S
C3020 C3018 1.391 . S
C3020 C3021 1.400 . S
C3021 C3015 1.496 . S
C3021 C3020 1.400 . S
C3021 C3022 1.398 1_554 S
C3022 H3010 0.950 . S
C3022 C3021 1.398 1_556 S
C3022 C3023 1.391 . S
C3023 H3011 0.950 . S
C3023 C3019 1.393 1_556 S
C3023 C3022 1.391 . S
H3024 C3032 0.950 . S
H3025 C3037 0.950 . S
H3026 C3034 0.950 . S
H3027 C3036 0.950 . S
H3028 C3038 0.950 . S
H3029 C3040 0.950 . S
H3030 C3042 0.950 . S
H3031 C3043 0.950 . S
C3032 H3024 0.950 . S
C3032 C3033 1.386 . S
C3032 C3034 1.391 . S
C3033 C3032 1.386 . S
C3033 C3037 1.393 . S
C3034 H3026 0.950 . S
C3034 C3032 1.391 . S
C3034 C3035 1.400 . S
C3035 C3034 1.400 . S
C3035 C3036 1.398 . S
C3035 C3041 1.491 . S
C3036 H3027 0.950 . S
C3036 C3035 1.398 . S
C3036 C3037 1.391 . S
C3037 H3025 0.950 . S
C3037 C3033 1.393 . S
C3037 C3036 1.391 . S
C3038 H3028 0.950 . S
C3038 C3039 1.386 . S
C3038 C3040 1.391 . S
C3039 C3038 1.386 . S
C3039 C3043 1.393 . S
C3040 H3029 0.950 . S
C3040 C3038 1.391 . S
C3040 C3041 1.400 . S
C3041 C3035 1.491 . S
C3041 C3040 1.400 . S
C3041 C3042 1.398 . S
C3042 H3030 0.950 . S
C3042 C3041 1.398 . S
C3042 C3043 1.391 . S
C3043 H3031 0.950 . S
C3043 C3039 1.393 . S
C3043 C3042 1.391 . S
H3044 C3052 0.950 . S
H3045 C3057 0.950 . S
H3046 C3054 0.950 . S
H3047 C3056 0.950 . S
H3048 C3058 0.950 . S
H3049 C3060 0.950 . S
H3050 C3062 0.950 . S
H3051 C3063 0.950 . S
C3052 H3044 0.950 . S
C3052 C3053 1.386 . S
C3052 C3054 1.391 . S
C3053 C3052 1.386 . S
C3053 C3057 1.393 1_554 S
C3054 H3046 0.950 . S
C3054 C3052 1.391 . S
C3054 C3055 1.400 . S
C3055 C3054 1.400 . S
C3055 C3056 1.398 1_554 S
C3055 C3061 1.491 1_554 S
C3056 H3047 0.950 . S
C3056 C3055 1.398 1_556 S
C3056 C3057 1.391 . S
C3057 H3045 0.950 . S
C3057 C3053 1.393 1_556 S
C3057 C3056 1.391 . S
C3058 H3048 0.950 . S
C3058 C3059 1.386 . S
C3058 C3060 1.391 . S
C3059 C3058 1.386 . S
C3059 C3063 1.393 1_556 S
C3060 H3049 0.950 . S
C3060 C3058 1.391 . S
C3060 C3061 1.400 . S
C3061 C3055 1.491 1_556 S
C3061 C3060 1.400 . S
C3061 C3062 1.398 1_556 S
C3062 H3050 0.950 . S
C3062 C3061 1.398 1_554 S
C3062 C3063 1.391 . S
C3063 H3051 0.950 . S
C3063 C3059 1.393 1_554 S
C3063 C3062 1.391 . S
H3064 C3072 0.950 . S
H3065 C3077 0.950 . S
H3066 C3074 0.950 . S
H3067 C3076 0.950 . S
H3068 C3078 0.950 . S
H3069 C3080 0.950 . S
H3070 C3082 0.950 . S
H3071 C3083 0.950 . S
C3072 H3064 0.950 . S
C3072 C3073 1.386 . S
C3072 C3074 1.391 . S
C3073 C3072 1.386 . S
C3073 C3077 1.393 . S
C3074 H3066 0.950 . S
C3074 C3072 1.391 . S
C3074 C3075 1.400 . S
C3075 C3074 1.400 . S
C3075 C3076 1.398 . S
C3075 C3081 1.491 . S
C3076 H3067 0.950 . S
C3076 C3075 1.398 . S
C3076 C3077 1.391 . S
C3077 H3065 0.950 . S
C3077 C3073 1.393 . S
C3077 C3076 1.391 . S
C3078 H3068 0.950 . S
C3078 C3079 1.386 . S
C3078 C3080 1.391 . S
C3079 C3078 1.386 . S
C3079 C3083 1.393 . S
C3080 H3069 0.950 . S
C3080 C3078 1.391 . S
C3080 C3081 1.400 . S
C3081 C3075 1.491 . S
C3081 C3080 1.400 . S
C3081 C3082 1.398 . S
C3082 H3070 0.950 . S
C3082 C3081 1.398 . S
C3082 C3083 1.391 . S
C3083 H3071 0.950 . S
C3083 C3079 1.393 . S
C3083 C3082 1.391 . S
H3084 C3092 0.950 . S
H3085 C3097 0.950 . S
H3086 C3094 0.950 . S
H3087 C3096 0.950 . S
H3088 C3098 0.950 . S
H3089 C3100 0.950 . S
H3090 C3102 0.950 . S
H3091 C3103 0.950 . S
C3092 H3084 0.950 . S
C3092 C3093 1.386 . S
C3092 C3094 1.391 . S
C3093 C3092 1.386 . S
C3093 C3097 1.393 . S
C3094 H3086 0.950 . S
C3094 C3092 1.391 . S
C3094 C3095 1.400 . S
C3095 C3094 1.400 . S
C3095 C3096 1.398 . S
C3095 C3101 1.491 . S
C3096 H3087 0.950 . S
C3096 C3095 1.398 . S
C3096 C3097 1.391 . S
C3097 H3085 0.950 . S
C3097 C3093 1.393 . S
C3097 C3096 1.391 . S
C3098 H3088 0.950 . S
C3098 C3099 1.386 . S
C3098 C3100 1.391 . S
C3099 C3098 1.386 . S
C3099 C3103 1.393 . S
C3100 H3089 0.950 . S
C3100 C3098 1.391 . S
C3100 C3101 1.400 . S
C3101 C3095 1.491 . S
C3101 C3100 1.400 . S
C3101 C3102 1.398 . S
C3102 H3090 0.950 . S
C3102 C3101 1.398 . S
C3102 C3103 1.391 . S
C3103 H3091 0.950 . S
C3103 C3099 1.393 . S
C3103 C3102 1.391 . S
C1193 C255 1.532 . S
C1199 C882 1.486 . S
C1213 C147 1.579 . S
C1219 C893 1.577 . S
C1233 C184 0.980 . S
C1239 C922 0.957 . S
C1259 C925 1.428 . S
C1253 C220 1.440 . S
C1273 C40 1.560 . S
C1279 C963 1.509 . S
C1299 C966 1.013 . S
C1293 C74 0.995 . S
C1319 C993 1.486 . S
C1313 C110 1.485 . S
C1333 C14 1.565 . S
C1339 C1022 1.554 . S
C1359 C873 1.565 1_655 S
C1353 C579 1.566 . S
C1373 C616 0.887 . S
C1379 C885 0.876 . S
C1399 C913 1.591 . S
C1393 C687 1.606 . S
C1419 C942 1.172 . S
C1413 C436 1.153 . S
C1433 C580 1.016 . S
C1439 C946 1.022 . S
C1459 C972 1.607 . S
C1453 C615 1.631 . S
C1479 C985 0.801 . S
C1473 C688 0.802 . S
C1499 C1013 1.601 . S
C1493 C435 1.618 . S
C1519 C865 1.486 1_565 S
C1513 C410 1.515 . S
C1533 C722 1.778 . S
C1539 C1032 1.756 1_554 S
C1559 C1063 1.574 . S
C1553 C842 1.623 . S
C1579 C1082 0.975 . S
C1573 C794 0.961 . S
C1593 C302 1.372 . S
C1599 C1005 1.396 . S
C1613 C338 1.467 . S
C1619 C905 1.484 . S
C1633 C830 1.647 . S
C1639 C1093 1.643 . S
C1659 C1122 0.953 . S
C1653 C758 0.974 . S
C1679 C883 1.455 . S
C1673 C158 1.424 . S
C1699 C1112 1.600 . S
C1693 C254 1.596 . S
C1713 C218 0.982 . S
C1719 C923 0.937 . S
C1733 C194 1.357 . S
C1739 C1086 1.407 . S
C1759 C962 1.471 1_655 S
C1753 C3 1.531 . S
C1773 C111 0.906 . S
C1779 C1045 0.915 . S
C1799 C992 1.430 1_556 S
C1793 C76 1.434 . S
C1819 C1143 1.619 . S
C1813 C50 1.604 . S
C1839 C872 1.531 . S
C1833 C364 1.529 1_565 S
C1859 C1106 0.879 . S
C1853 C795 0.877 . S
C1873 C292 1.556 . S
C1879 C912 1.554 . S
C1893 C723 1.106 . S
C1899 C1103 1.076 . S
C1913 C363 1.019 . S
C1919 C945 1.014 . S
C1939 C1053 1.595 . S
C1933 C796 1.618 . S
C1953 C291 0.770 . S
C1959 C986 0.753 . S
C1973 C724 1.606 . S
C1979 C1132 1.605 . S
C1993 C482 1.456 . S
C1999 C866 1.508 . S
C2013 C434 1.761 . S
C2019 C1033 1.745 . S
C2033 C662 1.518 . S
C2039 C982 1.542 . S
C2053 C614 0.942 . S
C2059 C1083 0.958 . S
C2079 C1126 1.384 . S
C2073 C698 1.332 . S
C2093 C554 1.414 . S
C2099 C906 1.502 1_565 S
C2119 C932 1.603 . S
C2113 C650 1.603 . S
C2139 C903 0.934 . S
C2133 C506 0.942 . S
C2153 C183 1.535 . S
C2159 C1162 1.506 . S
C2179 C1113 1.577 . S
C2173 C219 1.580 . S
C2193 C256 0.978 . S
C2199 C1182 0.954 . S
C2213 C148 1.437 . S
C2219 C1085 1.426 . S
C2233 C122 1.572 . S
C2239 C1043 1.558 . S
C2259 C1046 0.956 . S
C2253 C2 0.936 . S
C2279 C1073 1.382 . S
C2273 C39 1.386 . S
C2299 C1142 1.622 . S
C2293 C86 1.644 . S
C2319 C1153 1.574 . S
C2313 C651 1.584 . S
C2333 C472 0.887 . S
C2339 C1105 0.876 . S
C2359 C1173 1.582 . S
C2353 C507 1.595 . S
C2379 C1102 1.167 . S
C2373 C544 1.168 . S
C2399 C1026 1.032 . S
C2393 C652 1.015 . S
C2413 C471 1.612 . S
C2419 C1052 1.599 . S
C2439 C1065 0.798 . S
C2433 C508 0.793 . S
C2453 C543 1.639 . S
C2459 C1133 1.630 . S
C2479 C1145 1.531 . S
C2473 C806 1.528 . S
C2493 C326 1.765 . S
C2499 C952 1.737 . S
C2519 C983 1.549 . S
C2513 C374 1.600 . S
C2539 C1002 0.982 . S
C2533 C398 0.986 . S
C2559 C1125 1.390 . S
C2553 C770 1.364 . S
C2573 C734 1.468 . S
C2579 C1165 1.471 . S
C2599 C933 1.644 . S
C2593 C362 1.644 . S
C2619 C902 0.989 . S
C2613 C290 0.989 . S
C2633 C230 1.421 . S
C2639 C1163 1.457 . S
C2659 C892 1.605 . S
C2653 C182 1.600 . S
C2673 C146 0.969 . S
C2679 C1183 0.955 . S
C2693 C266 1.370 . S
C2699 C926 1.419 . S
C2713 C75 1.604 . S
C2719 C1042 1.546 . S
C2739 C965 0.994 . S
C2733 C38 0.999 . S
C2753 C4 1.364 . S
C2759 C1072 1.367 . S
C2773 C112 1.611 . S
C2779 C1023 1.526 . S
C2799 C1152 1.527 . S
C2793 C832 1.535 . S
C2813 C399 0.889 . S
C2819 C886 0.882 . S
C2839 C1172 1.547 1_655 S
C2833 C760 1.546 . S
C2853 C327 1.100 . S
C2859 C943 1.099 . S
C2873 C831 1.019 . S
C2879 C1025 1.033 . S
C2899 C973 1.602 . S
C2893 C400 1.619 . S
C2913 C759 0.782 . S
C2919 C1066 0.767 . S
C2939 C1012 1.601 . S
C2933 C328 1.610 . S
C2959 C1146 1.513 . S
C2953 C626 1.456 . S
C2979 C953 1.743 1_565 S
C2973 C542 1.760 . S
C2993 C590 1.502 . S
C2999 C1062 1.517 . S
C3019 C1003 0.934 . S
C3013 C470 0.967 . S
C3033 C518 1.318 . S
C3039 C1006 1.368 . S
C3053 C446 1.415 . S
C3059 C1166 1.494 . S
C3079 C1092 1.610 . S
C3073 C578 1.611 1_565 S
C3099 C1123 0.921 . S
C3093 C686 0.919 . S
