# Generated by pormake.
# Topology gar, (4,6)-cn, num edge types: 1
# Building blocks:
#     Node 0, Type 0, BuildingBlock: KUFVIS_clean_sbu_0, # of connection points: 4
#     Node 1, Type 0, BuildingBlock: KUFVIS_clean_sbu_0, # of connection points: 4
#     Node 2, Type 0, BuildingBlock: KUFVIS_clean_sbu_0, # of connection points: 4
#     Node 3, Type 0, BuildingBlock: KUFVIS_clean_sbu_0, # of connection points: 4
#     Node 4, Type 0, BuildingBlock: KUFVIS_clean_sbu_0, # of connection points: 4
#     Node 5, Type 0, BuildingBlock: KUFVIS_clean_sbu_0, # of connection points: 4
#     Node 6, Type 0, BuildingBlock: KUFVIS_clean_sbu_0, # of connection points: 4
#     Node 7, Type 0, BuildingBlock: KUFVIS_clean_sbu_0, # of connection points: 4
#     Node 8, Type 0, BuildingBlock: KUFVIS_clean_sbu_0, # of connection points: 4
#     Node 9, Type 0, BuildingBlock: KUFVIS_clean_sbu_0, # of connection points: 4
#     Node 10, Type 0, BuildingBlock: KUFVIS_clean_sbu_0, # of connection points: 4
#     Node 11, Type 0, BuildingBlock: KUFVIS_clean_sbu_0, # of connection points: 4
#     Node 12, Type 0, BuildingBlock: KUFVIS_clean_sbu_0, # of connection points: 4
#     Node 13, Type 0, BuildingBlock: KUFVIS_clean_sbu_0, # of connection points: 4
#     Node 14, Type 0, BuildingBlock: KUFVIS_clean_sbu_0, # of connection points: 4
#     Node 15, Type 0, BuildingBlock: KUFVIS_clean_sbu_0, # of connection points: 4
#     Node 16, Type 0, BuildingBlock: KUFVIS_clean_sbu_0, # of connection points: 4
#     Node 17, Type 0, BuildingBlock: KUFVIS_clean_sbu_0, # of connection points: 4
#     Node 18, Type 0, BuildingBlock: KUFVIS_clean_sbu_0, # of connection points: 4
#     Node 19, Type 0, BuildingBlock: KUFVIS_clean_sbu_0, # of connection points: 4
#     Node 20, Type 0, BuildingBlock: KUFVIS_clean_sbu_0, # of connection points: 4
#     Node 21, Type 0, BuildingBlock: KUFVIS_clean_sbu_0, # of connection points: 4
#     Node 22, Type 0, BuildingBlock: KUFVIS_clean_sbu_0, # of connection points: 4
#     Node 23, Type 0, BuildingBlock: KUFVIS_clean_sbu_0, # of connection points: 4
#     Node 24, Type 1, BuildingBlock: BETDEL_clean_sbu_0, # of connection points: 6
#     Node 25, Type 1, BuildingBlock: BETDEL_clean_sbu_0, # of connection points: 6
#     Node 26, Type 1, BuildingBlock: BETDEL_clean_sbu_0, # of connection points: 6
#     Node 27, Type 1, BuildingBlock: BETDEL_clean_sbu_0, # of connection points: 6
#     Node 28, Type 1, BuildingBlock: BETDEL_clean_sbu_0, # of connection points: 6
#     Node 29, Type 1, BuildingBlock: BETDEL_clean_sbu_0, # of connection points: 6
#     Node 30, Type 1, BuildingBlock: BETDEL_clean_sbu_0, # of connection points: 6
#     Node 31, Type 1, BuildingBlock: BETDEL_clean_sbu_0, # of connection points: 6
#     Node 32, Type 1, BuildingBlock: BETDEL_clean_sbu_0, # of connection points: 6
#     Node 33, Type 1, BuildingBlock: BETDEL_clean_sbu_0, # of connection points: 6
#     Node 34, Type 1, BuildingBlock: BETDEL_clean_sbu_0, # of connection points: 6
#     Node 35, Type 1, BuildingBlock: BETDEL_clean_sbu_0, # of connection points: 6
#     Node 36, Type 1, BuildingBlock: BETDEL_clean_sbu_0, # of connection points: 6
#     Node 37, Type 1, BuildingBlock: BETDEL_clean_sbu_0, # of connection points: 6
#     Node 38, Type 1, BuildingBlock: BETDEL_clean_sbu_0, # of connection points: 6
#     Node 39, Type 1, BuildingBlock: BETDEL_clean_sbu_0, # of connection points: 6
#     Edge 40, Type (0, 1), BuildingBlock: UVAHIK_clean_linker_0, # of connection points: 2
#     Edge 41, Type (0, 1), BuildingBlock: UVAHIK_clean_linker_0, # of connection points: 2
#     Edge 42, Type (0, 1), BuildingBlock: UVAHIK_clean_linker_0, # of connection points: 2
#     Edge 43, Type (0, 1), BuildingBlock: UVAHIK_clean_linker_0, # of connection points: 2
#     Edge 44, Type (0, 1), BuildingBlock: UVAHIK_clean_linker_0, # of connection points: 2
#     Edge 45, Type (0, 1), BuildingBlock: UVAHIK_clean_linker_0, # of connection points: 2
#     Edge 46, Type (0, 1), BuildingBlock: UVAHIK_clean_linker_0, # of connection points: 2
#     Edge 47, Type (0, 1), BuildingBlock: UVAHIK_clean_linker_0, # of connection points: 2
#     Edge 48, Type (0, 1), BuildingBlock: UVAHIK_clean_linker_0, # of connection points: 2
#     Edge 49, Type (0, 1), BuildingBlock: UVAHIK_clean_linker_0, # of connection points: 2
#     Edge 50, Type (0, 1), BuildingBlock: UVAHIK_clean_linker_0, # of connection points: 2
#     Edge 51, Type (0, 1), BuildingBlock: UVAHIK_clean_linker_0, # of connection points: 2
#     Edge 52, Type (0, 1), BuildingBlock: UVAHIK_clean_linker_0, # of connection points: 2
#     Edge 53, Type (0, 1), BuildingBlock: UVAHIK_clean_linker_0, # of connection points: 2
#     Edge 54, Type (0, 1), BuildingBlock: UVAHIK_clean_linker_0, # of connection points: 2
#     Edge 55, Type (0, 1), BuildingBlock: UVAHIK_clean_linker_0, # of connection points: 2
#     Edge 56, Type (0, 1), BuildingBlock: UVAHIK_clean_linker_0, # of connection points: 2
#     Edge 57, Type (0, 1), BuildingBlock: UVAHIK_clean_linker_0, # of connection points: 2
#     Edge 58, Type (0, 1), BuildingBlock: UVAHIK_clean_linker_0, # of connection points: 2
#     Edge 59, Type (0, 1), BuildingBlock: UVAHIK_clean_linker_0, # of connection points: 2
#     Edge 60, Type (0, 1), BuildingBlock: UVAHIK_clean_linker_0, # of connection points: 2
#     Edge 61, Type (0, 1), BuildingBlock: UVAHIK_clean_linker_0, # of connection points: 2
#     Edge 62, Type (0, 1), BuildingBlock: UVAHIK_clean_linker_0, # of connection points: 2
#     Edge 63, Type (0, 1), BuildingBlock: UVAHIK_clean_linker_0, # of connection points: 2
#     Edge 64, Type (0, 1), BuildingBlock: UVAHIK_clean_linker_0, # of connection points: 2
#     Edge 65, Type (0, 1), BuildingBlock: UVAHIK_clean_linker_0, # of connection points: 2
#     Edge 66, Type (0, 1), BuildingBlock: UVAHIK_clean_linker_0, # of connection points: 2
#     Edge 67, Type (0, 1), BuildingBlock: UVAHIK_clean_linker_0, # of connection points: 2
#     Edge 68, Type (0, 1), BuildingBlock: UVAHIK_clean_linker_0, # of connection points: 2
#     Edge 69, Type (0, 1), BuildingBlock: UVAHIK_clean_linker_0, # of connection points: 2
#     Edge 70, Type (0, 1), BuildingBlock: UVAHIK_clean_linker_0, # of connection points: 2
#     Edge 71, Type (0, 1), BuildingBlock: UVAHIK_clean_linker_0, # of connection points: 2
#     Edge 72, Type (0, 1), BuildingBlock: UVAHIK_clean_linker_0, # of connection points: 2
#     Edge 73, Type (0, 1), BuildingBlock: UVAHIK_clean_linker_0, # of connection points: 2
#     Edge 74, Type (0, 1), BuildingBlock: UVAHIK_clean_linker_0, # of connection points: 2
#     Edge 75, Type (0, 1), BuildingBlock: UVAHIK_clean_linker_0, # of connection points: 2
#     Edge 76, Type (0, 1), BuildingBlock: UVAHIK_clean_linker_0, # of connection points: 2
#     Edge 77, Type (0, 1), BuildingBlock: UVAHIK_clean_linker_0, # of connection points: 2
#     Edge 78, Type (0, 1), BuildingBlock: UVAHIK_clean_linker_0, # of connection points: 2
#     Edge 79, Type (0, 1), BuildingBlock: UVAHIK_clean_linker_0, # of connection points: 2
#     Edge 80, Type (0, 1), BuildingBlock: UVAHIK_clean_linker_0, # of connection points: 2
#     Edge 81, Type (0, 1), BuildingBlock: UVAHIK_clean_linker_0, # of connection points: 2
#     Edge 82, Type (0, 1), BuildingBlock: UVAHIK_clean_linker_0, # of connection points: 2
#     Edge 83, Type (0, 1), BuildingBlock: UVAHIK_clean_linker_0, # of connection points: 2
#     Edge 84, Type (0, 1), BuildingBlock: UVAHIK_clean_linker_0, # of connection points: 2
#     Edge 85, Type (0, 1), BuildingBlock: UVAHIK_clean_linker_0, # of connection points: 2
#     Edge 86, Type (0, 1), BuildingBlock: UVAHIK_clean_linker_0, # of connection points: 2
#     Edge 87, Type (0, 1), BuildingBlock: UVAHIK_clean_linker_0, # of connection points: 2
#     Edge 88, Type (0, 1), BuildingBlock: UVAHIK_clean_linker_0, # of connection points: 2
#     Edge 89, Type (0, 1), BuildingBlock: UVAHIK_clean_linker_0, # of connection points: 2
#     Edge 90, Type (0, 1), BuildingBlock: UVAHIK_clean_linker_0, # of connection points: 2
#     Edge 91, Type (0, 1), BuildingBlock: UVAHIK_clean_linker_0, # of connection points: 2
#     Edge 92, Type (0, 1), BuildingBlock: UVAHIK_clean_linker_0, # of connection points: 2
#     Edge 93, Type (0, 1), BuildingBlock: UVAHIK_clean_linker_0, # of connection points: 2
#     Edge 94, Type (0, 1), BuildingBlock: UVAHIK_clean_linker_0, # of connection points: 2
#     Edge 95, Type (0, 1), BuildingBlock: UVAHIK_clean_linker_0, # of connection points: 2
#     Edge 96, Type (0, 1), BuildingBlock: UVAHIK_clean_linker_0, # of connection points: 2
#     Edge 97, Type (0, 1), BuildingBlock: UVAHIK_clean_linker_0, # of connection points: 2
#     Edge 98, Type (0, 1), BuildingBlock: UVAHIK_clean_linker_0, # of connection points: 2
#     Edge 99, Type (0, 1), BuildingBlock: UVAHIK_clean_linker_0, # of connection points: 2
#     Edge 100, Type (0, 1), BuildingBlock: UVAHIK_clean_linker_0, # of connection points: 2
#     Edge 101, Type (0, 1), BuildingBlock: UVAHIK_clean_linker_0, # of connection points: 2
#     Edge 102, Type (0, 1), BuildingBlock: UVAHIK_clean_linker_0, # of connection points: 2
#     Edge 103, Type (0, 1), BuildingBlock: UVAHIK_clean_linker_0, # of connection points: 2
#     Edge 104, Type (0, 1), BuildingBlock: UVAHIK_clean_linker_0, # of connection points: 2
#     Edge 105, Type (0, 1), BuildingBlock: UVAHIK_clean_linker_0, # of connection points: 2
#     Edge 106, Type (0, 1), BuildingBlock: UVAHIK_clean_linker_0, # of connection points: 2
#     Edge 107, Type (0, 1), BuildingBlock: UVAHIK_clean_linker_0, # of connection points: 2
#     Edge 108, Type (0, 1), BuildingBlock: UVAHIK_clean_linker_0, # of connection points: 2
#     Edge 109, Type (0, 1), BuildingBlock: UVAHIK_clean_linker_0, # of connection points: 2
#     Edge 110, Type (0, 1), BuildingBlock: UVAHIK_clean_linker_0, # of connection points: 2
#     Edge 111, Type (0, 1), BuildingBlock: UVAHIK_clean_linker_0, # of connection points: 2
#     Edge 112, Type (0, 1), BuildingBlock: UVAHIK_clean_linker_0, # of connection points: 2
#     Edge 113, Type (0, 1), BuildingBlock: UVAHIK_clean_linker_0, # of connection points: 2
#     Edge 114, Type (0, 1), BuildingBlock: UVAHIK_clean_linker_0, # of connection points: 2
#     Edge 115, Type (0, 1), BuildingBlock: UVAHIK_clean_linker_0, # of connection points: 2
#     Edge 116, Type (0, 1), BuildingBlock: UVAHIK_clean_linker_0, # of connection points: 2
#     Edge 117, Type (0, 1), BuildingBlock: UVAHIK_clean_linker_0, # of connection points: 2
#     Edge 118, Type (0, 1), BuildingBlock: UVAHIK_clean_linker_0, # of connection points: 2
#     Edge 119, Type (0, 1), BuildingBlock: UVAHIK_clean_linker_0, # of connection points: 2
#     Edge 120, Type (0, 1), BuildingBlock: UVAHIK_clean_linker_0, # of connection points: 2
#     Edge 121, Type (0, 1), BuildingBlock: UVAHIK_clean_linker_0, # of connection points: 2
#     Edge 122, Type (0, 1), BuildingBlock: UVAHIK_clean_linker_0, # of connection points: 2
#     Edge 123, Type (0, 1), BuildingBlock: UVAHIK_clean_linker_0, # of connection points: 2
#     Edge 124, Type (0, 1), BuildingBlock: UVAHIK_clean_linker_0, # of connection points: 2
#     Edge 125, Type (0, 1), BuildingBlock: UVAHIK_clean_linker_0, # of connection points: 2
#     Edge 126, Type (0, 1), BuildingBlock: UVAHIK_clean_linker_0, # of connection points: 2
#     Edge 127, Type (0, 1), BuildingBlock: UVAHIK_clean_linker_0, # of connection points: 2
#     Edge 128, Type (0, 1), BuildingBlock: UVAHIK_clean_linker_0, # of connection points: 2
#     Edge 129, Type (0, 1), BuildingBlock: UVAHIK_clean_linker_0, # of connection points: 2
#     Edge 130, Type (0, 1), BuildingBlock: UVAHIK_clean_linker_0, # of connection points: 2
#     Edge 131, Type (0, 1), BuildingBlock: UVAHIK_clean_linker_0, # of connection points: 2
#     Edge 132, Type (0, 1), BuildingBlock: UVAHIK_clean_linker_0, # of connection points: 2
#     Edge 133, Type (0, 1), BuildingBlock: UVAHIK_clean_linker_0, # of connection points: 2
#     Edge 134, Type (0, 1), BuildingBlock: UVAHIK_clean_linker_0, # of connection points: 2
#     Edge 135, Type (0, 1), BuildingBlock: UVAHIK_clean_linker_0, # of connection points: 2
# Relax obj value: 0.135
# Max RMSD: 0.262
# Mean RMSD: 0.137
data_MOF--net-gar--node1-KUFVIS_clean_sbu_0--node2-BETDEL_clean_sbu_0--edge1-UVAHIK_clean_linker_0
_symmetry_space_group_name_H-M    P1
_symmetry_Int_Tables_number       1
_symmetry_cell_setting            triclinic
loop_
_symmetry_equiv_pos_as_xyz
'x, y, z'
_cell_length_a     70.46785
_cell_length_b     67.974698
_cell_length_c     71.029296
_cell_angle_alpha  95.105712
_cell_angle_beta   92.610698
_cell_angle_gamma 100.47371
loop_
_atom_site_label
_atom_site_type_symbol
_atom_site_fract_x
_atom_site_fract_y
_atom_site_fract_z
_atom_type_partial_charge
Mn0 Mn 0.02486 0.27453 0.39802 0.0
Mn1 Mn 0.01924 0.30246 0.36168 0.0
C2 C 0.9947 0.28139 0.38987 0.0
C3 C 0.02637 0.24416 0.41047 0.0
C4 C 0.03564 0.32062 0.40078 0.0
O5 O 0.04953 0.27383 0.38415 0.0
O6 O 0.04376 0.29211 0.36037 0.0
C7 C 0.01429 0.26924 0.33088 0.0
N8 N 0.00768 0.28485 0.3401 0.0
C9 C 0.97969 0.2799 0.31828 0.0
C10 C 0.98626 0.26385 0.30849 0.0
C11 C 0.0036 0.25846 0.31486 0.0
C12 C 0.9909 0.29 0.33422 0.0
H13 H 0.02761 0.26505 0.33572 0.0
C14 C 0.05424 0.28178 0.36901 0.0
O15 O 0.03485 0.26128 0.41919 0.0
O16 O 0.01735 0.24459 0.39418 0.0
N17 N 0.99621 0.31363 0.36062 0.0
C18 C 0.99189 0.32948 0.37166 0.0
C19 C 0.97515 0.33697 0.36702 0.0
C20 C 0.96319 0.3283 0.35095 0.0
C21 C 0.96804 0.31218 0.33969 0.0
C22 C 0.98502 0.30549 0.34489 0.0
H23 H 0.00115 0.33639 0.38389 0.0
O24 O 0.99853 0.27626 0.40658 0.0
O25 O 0.00843 0.28193 0.37817 0.0
O26 O 0.03455 0.30396 0.40799 0.0
O27 O 0.03063 0.32184 0.38347 0.0
C28 C 0.95666 0.30241 0.32355 0.0
C29 C 0.96241 0.2862 0.31293 0.0
H30 H 0.97807 0.25552 0.29611 0.0
H31 H 0.00872 0.24604 0.30742 0.0
H32 H 0.97152 0.34946 0.37576 0.0
H33 H 0.95035 0.33418 0.34737 0.0
H34 H 0.94336 0.30714 0.31929 0.0
H35 H 0.95344 0.27868 0.30066 0.0
Mn36 Mn 0.99803 0.76711 0.62784 0.0
Mn37 Mn 0.02167 0.80048 0.66297 0.0
C38 C 0.03073 0.76883 0.63474 0.0
C39 C 0.98025 0.73546 0.61704 0.0
C40 C 0.01007 0.81211 0.62436 0.0
O41 O 0.97615 0.77487 0.64291 0.0
O42 O 0.99342 0.79543 0.66682 0.0
C43 C 0.01452 0.77576 0.69511 0.0
N44 N 0.02714 0.78672 0.68432 0.0
C45 C 0.05445 0.78085 0.70316 0.0
C46 C 0.04174 0.76962 0.71454 0.0
C47 C 0.0217 0.76704 0.71048 0.0
C48 C 0.04646 0.78927 0.68809 0.0
H49 H -0.0009 0.77365 0.69199 0.0
C50 C 0.97734 0.78598 0.65857 0.0
O51 O 0.97954 0.75097 0.60777 0.0
O52 O 0.99062 0.73856 0.63296 0.0
N53 N 0.04911 0.80643 0.66113 0.0
C54 C 0.05942 0.8168 0.6482 0.0
C55 C 0.07971 0.8203 0.65 0.0
C56 C 0.08919 0.8132 0.66509 0.0
C57 C 0.07828 0.80269 0.67829 0.0
C58 C 0.05809 0.79982 0.67588 0.0
H59 H 0.05223 0.82226 0.63654 0.0
O60 O 0.02288 0.76122 0.61819 0.0
O61 O 0.01923 0.77523 0.64666 0.0
O62 O 0.00257 0.7944 0.61717 0.0
O63 O 0.01722 0.81607 0.64144 0.0
C64 C 0.08664 0.79463 0.69354 0.0
C65 C 0.07474 0.78369 0.70595 0.0
H66 H 0.04722 0.76277 0.72635 0.0
H67 H 0.0118 0.75831 0.71914 0.0
H68 H 0.08803 0.82839 0.63973 0.0
H69 H 0.10484 0.81578 0.66633 0.0
H70 H 0.10221 0.79651 0.69569 0.0
H71 H 0.08133 0.77733 0.71746 0.0
Mn72 Mn 0.52265 0.77676 0.89635 0.0
Mn73 Mn 0.51772 0.8029 0.85855 0.0
C74 C 0.49274 0.78388 0.88738 0.0
C75 C 0.52339 0.74718 0.91056 0.0
C76 C 0.53514 0.82251 0.89686 0.0
O77 O 0.54717 0.77456 0.88252 0.0
O78 O 0.54166 0.79158 0.85764 0.0
C79 C 0.51131 0.76838 0.82899 0.0
N80 N 0.50538 0.7847 0.83767 0.0
C81 C 0.47721 0.77988 0.8161 0.0
C82 C 0.48307 0.76309 0.80687 0.0
C83 C 0.50015 0.75727 0.81339 0.0
C84 C 0.48886 0.79028 0.83165 0.0
H85 H 0.52444 0.76389 0.83396 0.0
C86 C 0.55191 0.78156 0.86694 0.0
O87 O 0.5323 0.76455 0.91838 0.0
O88 O 0.5144 0.74684 0.8941 0.0
N89 N 0.4952 0.81489 0.85724 0.0
C90 C 0.4915 0.83133 0.86784 0.0
C91 C 0.47509 0.83929 0.86302 0.0
C92 C 0.4628 0.83042 0.84723 0.0
C93 C 0.46695 0.81359 0.83647 0.0
C94 C 0.48364 0.80648 0.84182 0.0
H95 H 0.50105 0.83839 0.87983 0.0
O96 O 0.49637 0.77974 0.90451 0.0
O97 O 0.50656 0.78351 0.87592 0.0
O98 O 0.53316 0.80637 0.905 0.0
O99 O 0.5301 0.82298 0.87943 0.0
C100 C 0.45515 0.80356 0.82069 0.0
C101 C 0.46021 0.78663 0.81059 0.0
H102 H 0.47452 0.7545 0.79481 0.0
H103 H 0.50472 0.74428 0.80638 0.0
H104 H 0.47199 0.85229 0.87137 0.0
H105 H 0.45025 0.8367 0.84346 0.0
H106 H 0.44206 0.80861 0.81633 0.0
H107 H 0.45092 0.77889 0.79862 0.0
Mn108 Mn 0.50191 0.2729 0.12768 0.0
Mn109 Mn 0.46547 0.259 0.09404 0.0
C110 C 0.49012 0.23926 0.11852 0.0
C111 C 0.53484 0.28098 0.13661 0.0
C112 C 0.45983 0.2751 0.13426 0.0
O113 O 0.50191 0.29854 0.11467 0.0
O114 O 0.47895 0.28676 0.09111 0.0
C115 C 0.48804 0.25792 0.05994 0.0
N116 N 0.47502 0.24838 0.07129 0.0
C117 C 0.47149 0.21729 0.05126 0.0
C118 C 0.48478 0.22681 0.03932 0.0
C119 C 0.49309 0.24721 0.04369 0.0
C120 C 0.46688 0.22877 0.06717 0.0
H121 H 0.49457 0.27356 0.06332 0.0
C122 C 0.49209 0.30069 0.09962 0.0
O123 O 0.52206 0.2866 0.14748 0.0
O124 O 0.52854 0.27168 0.12017 0.0
N125 N 0.45175 0.23218 0.09542 0.0
C126 C 0.44019 0.2249 0.10905 0.0
C127 C 0.43124 0.20455 0.10714 0.0
C128 C 0.43425 0.1919 0.09126 0.0
C129 C 0.44615 0.19974 0.07738 0.0
C130 C 0.45453 0.2202 0.07994 0.0
H131 H 0.43792 0.23452 0.12135 0.0
O132 O 0.49926 0.24475 0.13495 0.0
O133 O 0.48802 0.25365 0.10825 0.0
O134 O 0.47727 0.27649 0.14064 0.0
O135 O 0.45403 0.26935 0.117 0.0
C136 C 0.45038 0.18796 0.06132 0.0
C137 C 0.46303 0.19673 0.04827 0.0
H138 H 0.48885 0.21856 0.02686 0.0
H139 H 0.50344 0.25464 0.03459 0.0
H140 H 0.42213 0.19859 0.11795 0.0
H141 H 0.42751 0.17615 0.08995 0.0
H142 H 0.44419 0.17208 0.05902 0.0
H143 H 0.46639 0.18745 0.03613 0.0
Mn144 Mn 0.03194 0.79149 0.14693 0.0
Mn145 Mn 0.99833 0.76866 0.11262 0.0
C146 C 0.0289 0.75751 0.13771 0.0
C147 C 0.06283 0.80853 0.15756 0.0
C148 C 0.98863 0.78014 0.15269 0.0
O149 O 0.02534 0.8151 0.13384 0.0
O150 O 0.00353 0.79818 0.11107 0.0
C151 C 0.0213 0.77709 0.0794 0.0
N152 N 0.01073 0.76365 0.08977 0.0
C153 C 0.01461 0.73587 0.06772 0.0
C154 C 0.02545 0.74943 0.05675 0.0
C155 C 0.02884 0.77012 0.06264 0.0
C156 C 0.00747 0.7437 0.08429 0.0
H157 H 0.02395 0.793 0.08389 0.0
C158 C 0.01356 0.81449 0.11947 0.0
O159 O 0.04799 0.8096 0.16749 0.0
O160 O 0.05955 0.79839 0.14098 0.0
N161 N 0.99195 0.74003 0.11233 0.0
C162 C 0.98187 0.72891 0.1249 0.0
C163 C 0.97737 0.70789 0.12118 0.0
C164 C 0.98315 0.69855 0.10453 0.0
C165 C 0.99346 0.71031 0.09177 0.0
C166 C 0.99736 0.7312 0.09614 0.0
H167 H 0.97728 0.73601 0.13767 0.0
O168 O 0.0366 0.76495 0.15436 0.0
O169 O 0.02304 0.77009 0.12708 0.0
O170 O 0.0059 0.78762 0.15892 0.0
O171 O 0.98415 0.77269 0.13559 0.0
C172 C 0.00021 0.70211 0.075 0.0
C173 C 0.01085 0.71488 0.06303 0.0
H174 H 0.03133 0.74411 0.04384 0.0
H175 H 0.03726 0.78067 0.05429 0.0
H176 H 0.96943 0.69891 0.13111 0.0
H177 H 0.97963 0.68234 0.1017 0.0
H178 H 0.99753 0.686 0.07131 0.0
H179 H 0.0162 0.70838 0.05031 0.0
Mn180 Mn 0.49252 0.7604 0.37483 0.0
Mn181 Mn 0.48137 0.78271 0.33609 0.0
C182 C 0.46053 0.75855 0.36478 0.0
C183 C 0.50098 0.73386 0.3899 0.0
C184 C 0.49276 0.80561 0.37457 0.0
O185 O 0.51799 0.76493 0.36204 0.0
O186 O 0.50889 0.77958 0.33682 0.0
C187 C 0.48544 0.74943 0.30757 0.0
N188 N 0.47469 0.76254 0.31514 0.0
C189 C 0.44861 0.75029 0.29156 0.0
C190 C 0.45944 0.73673 0.28344 0.0
C191 C 0.4779 0.73624 0.29154 0.0
C192 C 0.45681 0.76293 0.30763 0.0
H193 H 0.49965 0.74904 0.31371 0.0
C194 C 0.52151 0.77282 0.34665 0.0
O195 O 0.50528 0.75228 0.39753 0.0
O196 O 0.49198 0.73079 0.3732 0.0
N197 N 0.45532 0.78686 0.33281 0.0
C198 C 0.4466 0.80057 0.34254 0.0
C199 C 0.42824 0.80331 0.33601 0.0
C200 C 0.41912 0.79208 0.31946 0.0
C201 C 0.42831 0.77798 0.30973 0.0
C202 C 0.44672 0.77612 0.31676 0.0
H203 H 0.4536 0.8094 0.35515 0.0
O204 O 0.46519 0.75595 0.38215 0.0
O205 O 0.47466 0.76186 0.35359 0.0
O206 O 0.49555 0.79043 0.38285 0.0
O207 O 0.48744 0.80458 0.35702 0.0
C208 C 0.41989 0.76565 0.29339 0.0
C209 C 0.42997 0.7517 0.2844 0.0
H210 H 0.45371 0.72658 0.27104 0.0
H211 H 0.48632 0.72576 0.2854 0.0
H212 H 0.42118 0.81415 0.34365 0.0
H213 H 0.40506 0.79437 0.31434 0.0
H214 H 0.40559 0.76663 0.28774 0.0
H215 H 0.42327 0.74214 0.27197 0.0
Mn216 Mn 0.53042 0.28984 0.64608 0.0
Mn217 Mn 0.49604 0.27077 0.61124 0.0
C218 C 0.52483 0.25599 0.63572 0.0
C219 C 0.56208 0.30401 0.6569 0.0
C220 C 0.48693 0.28206 0.65157 0.0
O221 O 0.52591 0.31483 0.63388 0.0
O222 O 0.50372 0.30023 0.61044 0.0
C223 C 0.5197 0.27795 0.57828 0.0
N224 N 0.50811 0.26504 0.58835 0.0
C225 C 0.51015 0.23692 0.56591 0.0
C226 C 0.52203 0.24995 0.55524 0.0
C227 C 0.52686 0.27054 0.56148 0.0
C228 C 0.50343 0.24519 0.58251 0.0
H229 H 0.52349 0.29378 0.58306 0.0
C230 C 0.51464 0.31566 0.61945 0.0
O231 O 0.54756 0.30613 0.667 0.0
O232 O 0.55811 0.2946 0.64006 0.0
N233 N 0.48741 0.24231 0.61035 0.0
C234 C 0.47658 0.23165 0.62274 0.0
C235 C 0.47077 0.21075 0.61875 0.0
C236 C 0.47605 0.20106 0.60203 0.0
C237 C 0.48713 0.21236 0.58945 0.0
C238 C 0.49234 0.23317 0.59409 0.0
H239 H 0.47243 0.23903 0.63559 0.0
O240 O 0.53284 0.26228 0.65251 0.0
O241 O 0.52016 0.26963 0.62566 0.0
O242 O 0.50441 0.28752 0.65814 0.0
O243 O 0.48213 0.2758 0.63422 0.0
C244 C 0.49344 0.20376 0.57263 0.0
C245 C 0.50499 0.21603 0.5609 0.0
H246 H 0.52764 0.24428 0.54231 0.0
H247 H 0.53609 0.28067 0.55337 0.0
H248 H 0.46225 0.20212 0.62855 0.0
H249 H 0.4716 0.18493 0.59905 0.0
H250 H 0.48972 0.1877 0.56872 0.0
H251 H 0.51 0.20921 0.54815 0.0
Mn252 Mn 0.98816 0.26066 0.87529 0.0
Mn253 Mn 0.97892 0.28389 0.83658 0.0
C254 C 0.95658 0.25915 0.86398 0.0
C255 C 0.99579 0.23363 0.89012 0.0
C256 C 0.98952 0.30606 0.87556 0.0
O257 O 0.01419 0.26531 0.86348 0.0
O258 O 0.00618 0.27984 0.83776 0.0
C259 C 0.98264 0.25091 0.80759 0.0
N260 N 0.97214 0.26423 0.81524 0.0
C261 C 0.94629 0.25306 0.79122 0.0
C262 C 0.95687 0.2393 0.78301 0.0
C263 C 0.97508 0.23816 0.79129 0.0
C264 C 0.9545 0.26526 0.80753 0.0
H265 H 0.99666 0.25003 0.81388 0.0
C266 C 0.01833 0.27293 0.84807 0.0
O267 O -9e-05 0.25188 0.89819 0.0
O268 O 0.98739 0.23101 0.87316 0.0
N269 N 0.95316 0.28881 0.83307 0.0
C270 C 0.94452 0.30241 0.84308 0.0
C271 C 0.92633 0.3056 0.83654 0.0
C272 C 0.91727 0.29491 0.81971 0.0
C273 C 0.92635 0.28089 0.80972 0.0
C274 C 0.9446 0.27855 0.81678 0.0
H275 H 0.95147 0.3108 0.85593 0.0
O276 O 0.96041 0.25617 0.88143 0.0
O277 O 0.97128 0.26273 0.85353 0.0
O278 O 0.99122 0.29057 0.88385 0.0
O279 O 0.98516 0.30541 0.85783 0.0
C280 C 0.91794 0.26903 0.79312 0.0
C281 C 0.92785 0.25502 0.78395 0.0
H282 H 0.95111 0.22946 0.77042 0.0
H283 H 0.98331 0.22753 0.78508 0.0
H284 H 0.91935 0.31636 0.84439 0.0
H285 H 0.90332 0.29754 0.81461 0.0
H286 H 0.90376 0.27039 0.78742 0.0
H287 H 0.92113 0.24579 0.77133 0.0
Mn288 Mn 0.40406 0.03346 0.28011 0.0
Mn289 Mn 0.36424 0.01743 0.30319 0.0
C290 C 0.39671 0.00046 0.28702 0.0
C291 C 0.41895 0.03907 0.2521 0.0
C292 C 0.40101 0.04287 0.32252 0.0
O293 O 0.38826 0.05534 0.27726 0.0
O294 O 0.36136 0.04213 0.29123 0.0
C295 C 0.33632 0.00603 0.26986 0.0
N296 N 0.34506 0.00102 0.28578 0.0
C297 C 0.32659 0.96732 0.28128 0.0
C298 C 0.31724 0.97219 0.26496 0.0
C299 C 0.32219 0.9916 0.25918 0.0
C300 C 0.34058 0.98232 0.29133 0.0
H301 H 0.34016 0.02089 0.2653 0.0
C302 C 0.3711 0.05561 0.28216 0.0
O303 O 0.42627 0.0489 0.26809 0.0
O304 O 0.40271 0.02658 0.25235 0.0
N305 N 0.36493 0.9934 0.31516 0.0
C306 C 0.37606 0.99079 0.3306 0.0
C307 C 0.37318 0.97208 0.33801 0.0
C308 C 0.35882 0.95628 0.32955 0.0
C309 C 0.34754 0.95931 0.31367 0.0
C310 C 0.35098 0.97833 0.30699 0.0
H311 H 0.3871 0.00287 0.33718 0.0
O312 O 0.41429 0.00828 0.28368 0.0
O313 O 0.38415 0.01218 0.28618 0.0
O314 O 0.41072 0.04373 0.30783 0.0
O315 O 0.38344 0.03372 0.32236 0.0
C316 C 0.33316 0.94415 0.30408 0.0
C317 C 0.32279 0.9481 0.28782 0.0
H318 H 0.30636 0.96109 0.25666 0.0
H319 H 0.31514 0.99543 0.24652 0.0
H320 H 0.382 0.96984 0.35023 0.0
H321 H 0.35667 0.94187 0.33529 0.0
H322 H 0.33011 0.92931 0.30895 0.0
H323 H 0.31202 0.93622 0.28038 0.0
Mn324 Mn 0.26523 0.16748 0.49939 0.0
Mn325 Mn 0.25281 0.12927 0.46482 0.0
C326 C 0.23305 0.15422 0.49099 0.0
C327 C 0.27192 0.17886 0.53141 0.0
C328 C 0.26729 0.17246 0.457 0.0
O329 O 0.29004 0.15614 0.49745 0.0
O330 O 0.27984 0.13041 0.47479 0.0
C331 C 0.25357 0.09522 0.48793 0.0
N332 N 0.24379 0.10492 0.47588 0.0
C333 C 0.21495 0.07976 0.47592 0.0
C334 C 0.22476 0.06944 0.48824 0.0
C335 C 0.24414 0.07723 0.4943 0.0
C336 C 0.22513 0.09756 0.46997 0.0
H337 H 0.26844 0.10119 0.4927 0.0
C338 C 0.29273 0.14081 0.48683 0.0
O339 O 0.27783 0.19025 0.51828 0.0
O340 O 0.26305 0.16071 0.52588 0.0
N341 N 0.22684 0.12641 0.45428 0.0
C342 C 0.21913 0.13876 0.44325 0.0
C343 C 0.19969 0.1334 0.43642 0.0
C344 C 0.1884 0.11539 0.44092 0.0
C345 C 0.19667 0.10286 0.4522 0.0
C346 C 0.21617 0.1089 0.45847 0.0
H347 H 0.22772 0.15265 0.43979 0.0
O348 O 0.238 0.17239 0.49918 0.0
O349 O 0.24708 0.14469 0.48767 0.0
O350 O 0.26953 0.18006 0.47425 0.0
O351 O 0.26137 0.15372 0.45212 0.0
C352 C 0.18624 0.08481 0.45774 0.0
C353 C 0.19536 0.07329 0.46962 0.0
H354 H 0.2175 0.05562 0.49328 0.0
H355 H 0.25177 0.0694 0.50388 0.0
H356 H 0.19339 0.14317 0.42776 0.0
H357 H 0.17336 0.1114 0.43577 0.0
H358 H 0.17112 0.07981 0.45318 0.0
H359 H 0.18711 0.0596 0.47402 0.0
Mn360 Mn 0.1349 0.01064 0.77809 0.0
Mn361 Mn 0.17164 0.02277 0.81168 0.0
C362 C 0.14779 0.04398 0.78804 0.0
C363 C 0.12356 0.00462 0.74627 0.0
C364 C 0.13001 0.00784 0.82055 0.0
O365 O 0.14568 0.98463 0.77787 0.0
O366 O 0.17042 0.99485 0.79993 0.0
C367 C 0.20434 0.02229 0.78698 0.0
N368 N 0.19508 0.03229 0.80007 0.0
C369 C 0.21929 0.0623 0.80045 0.0
C370 C 0.22914 0.05228 0.78707 0.0
C371 C 0.22162 0.03219 0.7803 0.0
C372 C 0.20221 0.05161 0.8067 0.0
H373 H 0.19858 0.00689 0.78164 0.0
C374 C 0.16054 0.98165 0.78747 0.0
O375 O 0.11275 0.99828 0.75965 0.0
O376 O 0.14119 0.01338 0.75133 0.0
N377 N 0.17458 0.04961 0.82371 0.0
C378 C 0.16277 0.05751 0.83574 0.0
C379 C 0.16799 0.07763 0.84345 0.0
C380 C 0.18529 0.08944 0.83871 0.0
C381 C 0.19725 0.08098 0.82635 0.0
C382 C 0.19141 0.06076 0.81929 0.0
H383 H 0.14936 0.04859 0.8393 0.0
O384 O 0.13033 0.03903 0.78036 0.0
O385 O 0.15694 0.02929 0.78991 0.0
O386 O 0.12283 0.00574 0.80349 0.0
O387 O 0.14805 0.01379 0.82503 0.0
C388 C 0.21453 0.09193 0.82047 0.0
C389 C 0.22554 0.0826 0.80752 0.0
H390 H 0.24239 0.05991 0.78177 0.0
H391 H 0.22908 0.02439 0.76989 0.0
H392 H 0.15863 0.08408 0.85291 0.0
H393 H 0.18915 0.10503 0.8445 0.0
H394 H 0.21935 0.10762 0.82562 0.0
H395 H 0.23867 0.09126 0.8029 0.0
Mn396 Mn 0.24218 0.88523 0.00168 0.0
Mn397 Mn 0.26535 0.92304 0.97876 0.0
C398 C 0.27528 0.88985 0.99963 0.0
C399 C 0.23062 0.87256 0.02904 0.0
C400 C 0.2422 0.88425 0.95869 0.0
O401 O 0.22237 0.90352 7e-05 0.0
O402 O 0.24003 0.92874 0.98628 0.0
C403 C 0.27205 0.95509 0.01073 0.0
N404 N 0.2791 0.94391 0.99678 0.0
C405 C 0.31158 0.96187 0.00475 0.0
C406 C 0.30465 0.97365 0.01914 0.0
C407 C 0.2848 0.97019 0.02219 0.0
C408 C 0.29819 0.94697 0.99387 0.0
H409 H 0.25681 0.95249 0.01312 0.0
C410 C 0.22473 0.92085 0.99394 0.0
O411 O 0.2237 0.86406 0.01243 0.0
O412 O 0.24341 0.889 0.02967 0.0
N413 N 0.29028 0.9197 0.97088 0.0
C414 C 0.29472 0.90659 0.95685 0.0
C415 C 0.31396 0.90815 0.9519 0.0
C416 C 0.3284 0.92321 0.96133 0.0
C417 C 0.32353 0.93644 0.97583 0.0
C418 C 0.30407 0.93432 0.97998 0.0
H419 H 0.28368 0.89508 0.94942 0.0
O420 O 0.26562 0.87249 0.00287 0.0
O421 O 0.26533 0.90394 0.99777 0.0
O422 O 0.23736 0.87592 0.97356 0.0
O423 O 0.25216 0.902 0.95906 0.0
C424 C 0.33721 0.9516 0.98634 0.0
C425 C 0.33126 0.9642 0.00089 0.0
H426 H 0.31444 0.98532 0.028 0.0
H427 H 0.27936 0.97916 0.03331 0.0
H428 H 0.31763 0.89783 0.94075 0.0
H429 H 0.34318 0.92449 0.95732 0.0
H430 H 0.35238 0.95356 0.98349 0.0
H431 H 0.34195 0.97562 0.00906 0.0
Mn432 Mn 0.26052 0.39057 0.03112 0.0
Mn433 Mn 0.27154 0.43128 0.00671 0.0
C434 C 0.29245 0.40611 0.02955 0.0
C435 C 0.25204 0.37586 0.05882 0.0
C436 C 0.26092 0.38869 0.98781 0.0
O437 O 0.23454 0.3997 0.02804 0.0
O438 O 0.24414 0.42722 0.01292 0.0
C439 C 0.26725 0.46245 0.03725 0.0
N440 N 0.27816 0.45495 0.02404 0.0
C441 C 0.30401 0.48349 0.03093 0.0
C442 C 0.29304 0.49157 0.04457 0.0
C443 C 0.27462 0.48094 0.04782 0.0
C444 C 0.29603 0.46486 0.02106 0.0
H445 H 0.25302 0.45441 0.03964 0.0
C446 C 0.23121 0.41519 0.02046 0.0
O447 O 0.24822 0.36584 0.04225 0.0
O448 O 0.26033 0.3946 0.05927 0.0
N449 N 0.29765 0.43738 0.99959 0.0
C450 C 0.30649 0.42735 0.98614 0.0
C451 C 0.32514 0.43583 0.98137 0.0
C452 C 0.3343 0.45473 0.99013 0.0
C453 C 0.32472 0.46496 0.0036 0.0
C454 C 0.30626 0.45567 0.00793 0.0
H455 H 0.29939 0.41299 0.97911 0.0
O456 O 0.28828 0.38763 0.03357 0.0
O457 O 0.27793 0.41506 0.02681 0.0
O458 O 0.25872 0.37998 0.00297 0.0
O459 O 0.26537 0.40774 0.9877 0.0
C460 C 0.33276 0.48404 0.01287 0.0
C461 C 0.32252 0.49319 0.0267 0.0
H462 H 0.29861 0.50591 0.05265 0.0
H463 H 0.26608 0.48707 0.05835 0.0
H464 H 0.33238 0.42788 0.97087 0.0
H465 H 0.34866 0.46124 0.98639 0.0
H466 H 0.34693 0.4917 0.00965 0.0
H467 H 0.32901 0.50771 0.03397 0.0
Mn468 Mn 0.76451 0.15614 0.02048 0.0
Mn469 Mn 0.74323 0.11941 0.98699 0.0
C470 C 0.7314 0.1498 0.01458 0.0
C471 C 0.7761 0.16767 0.05138 0.0
C472 C 0.76492 0.15982 0.97796 0.0
O473 O 0.78533 0.13928 0.01641 0.0
O474 O 0.76919 0.11461 0.99511 0.0
C475 C 0.73817 0.08519 0.01047 0.0
N476 N 0.73042 0.09696 0.99885 0.0
C477 C 0.69846 0.07755 0.00041 0.0
C478 C 0.70611 0.06515 0.01232 0.0
C479 C 0.72604 0.06902 0.0174 0.0
C480 C 0.71125 0.09342 0.99394 0.0
H481 H 0.75347 0.08813 0.01443 0.0
C482 C 0.78415 0.1228 0.00587 0.0
O483 O 0.78239 0.17711 0.03714 0.0
O484 O 0.76365 0.15101 0.04759 0.0
N485 N 0.71789 0.12215 0.97804 0.0
C486 C 0.71271 0.13604 0.96712 0.0
C487 C 0.69321 0.1345 0.96103 0.0
C488 C 0.67928 0.11864 0.96611 0.0
C489 C 0.68498 0.10446 0.97727 0.0
C490 C 0.70464 0.10668 0.9828 0.0
H491 H 0.72336 0.14822 0.9631 0.0
O492 O 0.74016 0.16723 0.02247 0.0
O493 O 0.74228 0.13676 0.01035 0.0
O494 O 0.76904 0.16724 0.99506 0.0
O495 O 0.75558 0.14198 0.97333 0.0
C496 C 0.67189 0.08836 0.98332 0.0
C497 C 0.67861 0.07497 0.99495 0.0
H498 H 0.69681 0.05271 0.01774 0.0
H499 H 0.73204 0.05957 0.02664 0.0
H500 H 0.68892 0.14551 0.95244 0.0
H501 H 0.66425 0.11754 0.96143 0.0
H502 H 0.65659 0.08629 0.97932 0.0
H503 H 0.66837 0.06283 0.99974 0.0
Mn504 Mn 0.1075 0.51038 0.24732 0.0
Mn505 Mn 0.14275 0.53884 0.27697 0.0
C506 C 0.11548 0.54456 0.24539 0.0
C507 C 0.09718 0.49053 0.21912 0.0
C508 C 0.10257 0.52273 0.28886 0.0
O509 O 0.12201 0.4898 0.25716 0.0
O510 O 0.14617 0.51038 0.27504 0.0
C511 C 0.1765 0.53512 0.25444 0.0
N512 N 0.16537 0.54685 0.26359 0.0
C513 C 0.18628 0.57708 0.25655 0.0
C514 C 0.19802 0.56532 0.24713 0.0
C515 C 0.19307 0.54425 0.24602 0.0
C516 C 0.16993 0.56713 0.26463 0.0
H517 H 0.17276 0.51892 0.25358 0.0
C518 C 0.13768 0.49293 0.26763 0.0
O519 O 0.08705 0.48909 0.23392 0.0
O520 O 0.11369 0.50287 0.22102 0.0
N521 N 0.14136 0.56679 0.2799 0.0
C522 C 0.12797 0.57592 0.28862 0.0
C523 C 0.13062 0.597 0.29066 0.0
C524 C 0.14706 0.60846 0.28386 0.0
C525 C 0.16064 0.59874 0.27493 0.0
C526 C 0.15729 0.5777 0.2734 0.0
H527 H 0.11538 0.5672 0.29401 0.0
O528 O 0.09861 0.53468 0.23883 0.0
O529 O 0.12704 0.53418 0.25293 0.0
O530 O 0.09567 0.51422 0.27268 0.0
O531 O 0.12007 0.53188 0.29208 0.0
C532 C 0.17725 0.60909 0.26728 0.0
C533 C 0.19 0.59826 0.25801 0.0
H534 H 0.2108 0.57231 0.2406 0.0
H535 H 0.20202 0.53508 0.23872 0.0
H536 H 0.12005 0.6044 0.29752 0.0
H537 H 0.14908 0.62471 0.28553 0.0
H538 H 0.18021 0.62536 0.26821 0.0
H539 H 0.20255 0.60638 0.25192 0.0
Mn540 Mn 0.75944 0.89445 0.52568 0.0
Mn541 Mn 0.77074 0.93465 0.50066 0.0
C542 C 0.79146 0.9094 0.52358 0.0
C543 C 0.75114 0.88037 0.55373 0.0
C544 C 0.75926 0.89189 0.48231 0.0
O545 O 0.73368 0.90403 0.52276 0.0
O546 O 0.74346 0.93121 0.50724 0.0
C547 C 0.76734 0.96646 0.53092 0.0
N548 N 0.77792 0.95853 0.51766 0.0
C549 C 0.80419 0.98674 0.52391 0.0
C550 C 0.79356 0.99527 0.5376 0.0
C551 C 0.7751 0.98502 0.5412 0.0
C552 C 0.79582 0.96808 0.51433 0.0
H553 H 0.75307 0.95871 0.53358 0.0
C554 C 0.7305 0.9195 0.51506 0.0
O555 O 0.74694 0.8701 0.5373 0.0
O556 O 0.75969 0.89899 0.55382 0.0
N557 N 0.79675 0.94014 0.49317 0.0
C558 C 0.80527 0.92967 0.47978 0.0
C559 C 0.82393 0.9377 0.47473 0.0
C560 C 0.83344 0.95662 0.48314 0.0
C561 C 0.82421 0.96731 0.49656 0.0
C562 C 0.8057 0.95845 0.50119 0.0
H563 H 0.79789 0.91528 0.47302 0.0
O564 O 0.78707 0.89102 0.52786 0.0
O565 O 0.7771 0.9186 0.52089 0.0
O566 O 0.75711 0.88342 0.49761 0.0
O567 O 0.76399 0.91088 0.48196 0.0
C568 C 0.83262 0.98643 0.50552 0.0
C569 C 0.82273 0.99603 0.51936 0.0
H570 H 0.79944 0.00966 0.54545 0.0
H571 H 0.76682 0.99149 0.55176 0.0
H572 H 0.83091 0.92939 0.46428 0.0
H573 H 0.84782 0.96278 0.47919 0.0
H574 H 0.84682 0.99377 0.50206 0.0
H575 H 0.82952 0.01057 0.5264 0.0
Mn576 Mn 0.89034 0.03541 0.23656 0.0
Mn577 Mn 0.85068 0.02101 0.26082 0.0
C578 C 0.87694 0.00171 0.23588 0.0
C579 C 0.90492 0.04588 0.20931 0.0
C580 C 0.89113 0.03265 0.27953 0.0
O581 O 0.88007 0.06147 0.24165 0.0
O582 O 0.85352 0.04996 0.25686 0.0
C583 C 0.82084 0.02543 0.23158 0.0
N584 N 0.82827 0.01392 0.2437 0.0
C585 C 0.80211 0.98603 0.23501 0.0
C586 C 0.79411 0.99762 0.22251 0.0
C587 C 0.80356 0.01738 0.22075 0.0
C588 C 0.81936 0.99486 0.24542 0.0
H589 H 0.82806 0.04063 0.23022 0.0
C590 C 0.8648 0.06401 0.24981 0.0
O591 O 0.91406 0.04984 0.22588 0.0
O592 O 0.88709 0.03654 0.20867 0.0
N593 N 0.84573 0.9934 0.26585 0.0
C594 C 0.85594 0.98385 0.27768 0.0
C595 C 0.84872 0.96378 0.28066 0.0
C596 C 0.83096 0.95385 0.27167 0.0
C597 C 0.8206 0.96406 0.25974 0.0
C598 C 0.82849 0.98407 0.25736 0.0
H599 H 0.86953 0.99144 0.28474 0.0
O600 O 0.8948 0.00733 0.23195 0.0
O601 O 0.86723 0.01597 0.23992 0.0
O602 O 0.8999 0.03631 0.26453 0.0
O603 O 0.87281 0.02741 0.27967 0.0
C604 C 0.80301 0.95501 0.24971 0.0
C605 C 0.79381 0.96597 0.23731 0.0
H606 H 0.7808 0.99146 0.2141 0.0
H607 H 0.79751 0.02639 0.21108 0.0
H608 H 0.85682 0.95599 0.28985 0.0
H609 H 0.82551 0.93832 0.27388 0.0
H610 H 0.79663 0.93952 0.25117 0.0
H611 H 0.78046 0.95874 0.22945 0.0
Mn612 Mn 0.26391 0.64978 0.51946 0.0
Mn613 Mn 0.23937 0.60892 0.49225 0.0
C614 C 0.23064 0.64241 0.51862 0.0
C615 C 0.27966 0.66556 0.54774 0.0
C616 C 0.25652 0.64766 0.47648 0.0
O617 O 0.28467 0.63322 0.51432 0.0
O618 O 0.26687 0.60641 0.49668 0.0
C619 C 0.24141 0.57879 0.51957 0.0
N620 N 0.23072 0.5881 0.50799 0.0
C621 C 0.20112 0.56739 0.51555 0.0
C622 C 0.21182 0.5575 0.52748 0.0
C623 C 0.23204 0.56327 0.52954 0.0
C624 C 0.21125 0.58275 0.50599 0.0
H625 H 0.25696 0.58317 0.5212 0.0
C626 C 0.28286 0.616 0.50496 0.0
O627 O 0.28317 0.67291 0.53174 0.0
O628 O 0.26764 0.64857 0.54718 0.0
N629 N 0.21251 0.60899 0.4869 0.0
C630 C 0.20424 0.62074 0.47564 0.0
C631 C 0.18406 0.61707 0.47225 0.0
C632 C 0.1726 0.60129 0.48038 0.0
C633 C 0.18142 0.58942 0.49193 0.0
C634 C 0.20162 0.59366 0.49463 0.0
H635 H 0.21296 0.63289 0.46937 0.0
O636 O 0.23979 0.66062 0.52359 0.0
O637 O 0.24118 0.62903 0.51426 0.0
O638 O 0.26374 0.65703 0.49224 0.0
O639 O 0.24713 0.6296 0.47482 0.0
C640 C 0.17095 0.57377 0.50113 0.0
C641 C 0.18078 0.56282 0.51299 0.0
H642 H 0.20464 0.54555 0.53523 0.0
H643 H 0.24039 0.55576 0.53878 0.0
H644 H 0.17735 0.62638 0.46341 0.0
H645 H 0.15704 0.59852 0.47775 0.0
H646 H 0.1553 0.57025 0.49941 0.0
H647 H 0.17256 0.55102 0.52021 0.0
Mn648 Mn 0.38623 0.53042 0.73695 0.0
Mn649 Mn 0.34644 0.51276 0.7597 0.0
C650 C 0.3749 0.49611 0.73555 0.0
C651 C 0.40061 0.54229 0.71008 0.0
C652 C 0.38611 0.52805 0.77972 0.0
O653 O 0.37401 0.55529 0.74236 0.0
O654 O 0.34639 0.54094 0.75443 0.0
C655 C 0.31637 0.51261 0.72914 0.0
N656 N 0.32478 0.50276 0.74211 0.0
C657 C 0.30107 0.47255 0.73403 0.0
C658 C 0.29203 0.48244 0.72072 0.0
C659 C 0.29977 0.50253 0.7182 0.0
C660 C 0.31757 0.48337 0.74452 0.0
H661 H 0.32231 0.52803 0.72715 0.0
C662 C 0.35736 0.55602 0.74854 0.0
O663 O 0.40941 0.54659 0.7268 0.0
O664 O 0.38317 0.53188 0.70913 0.0
N665 N 0.34427 0.48554 0.76562 0.0
C666 C 0.35557 0.47773 0.77797 0.0
C667 C 0.35023 0.45756 0.78161 0.0
C668 C 0.33323 0.4457 0.77271 0.0
C669 C 0.32179 0.45409 0.76014 0.0
C670 C 0.3278 0.47431 0.75712 0.0
H671 H 0.36855 0.48679 0.78499 0.0
O672 O 0.39264 0.50302 0.73204 0.0
O673 O 0.3642 0.50943 0.73957 0.0
O674 O 0.39531 0.53149 0.76494 0.0
O675 O 0.36782 0.52208 0.77924 0.0
C676 C 0.30492 0.44306 0.75012 0.0
C677 C 0.2946 0.45226 0.73703 0.0
H678 H 0.27926 0.4747 0.71221 0.0
H679 H 0.29295 0.51022 0.70786 0.0
H680 H 0.35918 0.45117 0.79128 0.0
H681 H 0.32922 0.43013 0.77549 0.0
H682 H 0.29998 0.42737 0.75208 0.0
H683 H 0.28187 0.44351 0.72914 0.0
Mn684 Mn 0.60709 0.00796 0.7487 0.0
Mn685 Mn 0.63971 0.03162 0.78343 0.0
C686 C 0.61742 0.04238 0.75058 0.0
C687 C 0.59883 0.99137 0.71865 0.0
C688 C 0.59758 0.01665 0.78974 0.0
O689 O 0.61903 0.98516 0.75772 0.0
O690 O 0.6412 0.00267 0.77983 0.0
C691 C 0.67565 0.02726 0.76476 0.0
N692 N 0.6643 0.03922 0.77322 0.0
C693 C 0.68825 0.0689 0.77103 0.0
C694 C 0.70025 0.0569 0.76237 0.0
C695 C 0.69386 0.036 0.75913 0.0
C696 C 0.67017 0.05937 0.77613 0.0
H697 H 0.67088 0.01117 0.76238 0.0
C698 C 0.63303 0.9863 0.77009 0.0
O699 O 0.58716 0.98902 0.73222 0.0
O700 O 0.61567 0.00276 0.72277 0.0
N701 N 0.64006 0.05985 0.78814 0.0
C702 C 0.6265 0.06936 0.79607 0.0
C703 C 0.63043 0.0904 0.79979 0.0
C704 C 0.64835 0.10139 0.79559 0.0
C705 C 0.66217 0.09125 0.78766 0.0
C706 C 0.65738 0.07029 0.78414 0.0
H707 H 0.61276 0.06098 0.79947 0.0
O708 O 0.60093 0.03417 0.74183 0.0
O709 O 0.62718 0.03027 0.75804 0.0
O710 O 0.59253 0.00972 0.77267 0.0
O711 O 0.61488 0.02492 0.79537 0.0
C712 C 0.68049 0.10111 0.7831 0.0
C713 C 0.69352 0.08994 0.77477 0.0
H714 H 0.71434 0.06358 0.7581 0.0
H715 H 0.70301 0.02664 0.75241 0.0
H716 H 0.6197 0.09811 0.80593 0.0
H717 H 0.65134 0.11761 0.79849 0.0
H718 H 0.68464 0.1173 0.78574 0.0
H719 H 0.70747 0.09773 0.77111 0.0
Mn720 Mn 0.76682 0.66621 0.99568 0.0
Mn721 Mn 0.75559 0.62578 0.96323 0.0
C722 C 0.73498 0.65054 0.98873 0.0
C723 C 0.77422 0.68009 0.02703 0.0
C724 C 0.7666 0.66847 0.95267 0.0
O725 O 0.79259 0.65674 0.99369 0.0
O726 O 0.78323 0.62963 0.97232 0.0
C727 C 0.76014 0.59427 0.98841 0.0
N728 N 0.74896 0.6021 0.97599 0.0
C729 C 0.72192 0.57531 0.97827 0.0
C730 C 0.73318 0.56689 0.99099 0.0
C731 C 0.75236 0.57643 0.9961 0.0
C732 C 0.73047 0.59306 0.97101 0.0
H733 H 0.77486 0.60159 0.99245 0.0
C734 C 0.79598 0.64139 0.98357 0.0
O735 O 0.77855 0.69069 0.01295 0.0
O736 O 0.76641 0.66133 0.02284 0.0
N737 N 0.72916 0.62022 0.95353 0.0
C738 C 0.71995 0.63079 0.94181 0.0
C739 C 0.70053 0.62344 0.93562 0.0
C740 C 0.69082 0.6053 0.94148 0.0
C741 C 0.70062 0.59464 0.95346 0.0
C742 C 0.72003 0.60258 0.95901 0.0
H743 H 0.7273 0.64477 0.93732 0.0
O744 O 0.73903 0.66914 0.99592 0.0
O745 O 0.74963 0.64187 0.98559 0.0
O746 O 0.76919 0.6771 0.96957 0.0
O747 O 0.76165 0.64945 0.94885 0.0
C748 C 0.69181 0.57661 0.96036 0.0
C749 C 0.70244 0.56698 0.97279 0.0
H750 H 0.72721 0.55319 0.99704 0.0
H751 H 0.76112 0.57008 0.00599 0.0
H752 H 0.69305 0.63179 0.92642 0.0
H753 H 0.67579 0.59978 0.9368 0.0
H754 H 0.67679 0.57017 0.95639 0.0
H755 H 0.69542 0.55328 0.9782 0.0
Mn756 Mn 0.90281 0.5448 0.78773 0.0
Mn757 Mn 0.86623 0.53454 0.81642 0.0
C758 C 0.89298 0.51256 0.79599 0.0
C759 C 0.91419 0.54741 0.75775 0.0
C760 C 0.90652 0.55606 0.8305 0.0
O761 O 0.88927 0.56861 0.78607 0.0
O762 O 0.86469 0.55967 0.80472 0.0
C763 C 0.8334 0.52641 0.78753 0.0
N764 N 0.8437 0.5202 0.80182 0.0
C765 C 0.82178 0.48842 0.79997 0.0
C766 C 0.81088 0.49451 0.7853 0.0
C767 C 0.81677 0.51356 0.77901 0.0
C768 C 0.83826 0.50184 0.80787 0.0
H769 H 0.83783 0.54106 0.78267 0.0
C770 C 0.87376 0.57144 0.79361 0.0
O771 O 0.92416 0.55704 0.77267 0.0
O772 O 0.89738 0.53685 0.76023 0.0
N773 N 0.86596 0.51025 0.82822 0.0
C774 C 0.87857 0.50628 0.84186 0.0
C775 C 0.87509 0.48757 0.84928 0.0
C776 C 0.85864 0.47321 0.84271 0.0
C777 C 0.8458 0.47769 0.82874 0.0
C778 C 0.85001 0.49659 0.82189 0.0
H779 H 0.89124 0.51725 0.84697 0.0
O780 O 0.91034 0.51808 0.7906 0.0
O781 O 0.88225 0.52616 0.79666 0.0
O782 O 0.91388 0.55554 0.81446 0.0
O783 O 0.88884 0.5488 0.83279 0.0
C784 C 0.82909 0.46409 0.82125 0.0
C785 C 0.81706 0.46948 0.80692 0.0
H786 H 0.79805 0.48464 0.77869 0.0
H787 H 0.80847 0.51834 0.76765 0.0
H788 H 0.88509 0.48422 0.86003 0.0
H789 H 0.85605 0.45877 0.8484 0.0
H790 H 0.82547 0.44936 0.82626 0.0
H791 H 0.80434 0.45883 0.80116 0.0
Mn792 Mn 0.73503 0.37811 0.50151 0.0
Mn793 Mn 0.75264 0.4148 0.47447 0.0
C794 C 0.76786 0.38635 0.49803 0.0
C795 C 0.72541 0.36682 0.53009 0.0
C796 C 0.73255 0.3731 0.45826 0.0
O797 O 0.71292 0.39349 0.49935 0.0
O798 O 0.72675 0.41823 0.48243 0.0
C799 C 0.75744 0.44956 0.50367 0.0
N800 N 0.76513 0.43815 0.49039 0.0
C801 C 0.79643 0.45957 0.49602 0.0
C802 C 0.78882 0.47161 0.50969 0.0
C803 C 0.76925 0.46654 0.51357 0.0
C804 C 0.78398 0.44278 0.48667 0.0
H805 H 0.74241 0.44573 0.5067 0.0
C806 C 0.71278 0.40968 0.49153 0.0
O807 O 0.71894 0.35669 0.51403 0.0
O808 O 0.73703 0.38392 0.52954 0.0
N809 N 0.77782 0.41348 0.46601 0.0
C810 C 0.78307 0.39991 0.45291 0.0
C811 C 0.80221 0.40275 0.44746 0.0
C812 C 0.81569 0.41959 0.45541 0.0
C813 C 0.80995 0.43337 0.46885 0.0
C814 C 0.79065 0.42983 0.47362 0.0
H815 H 0.77274 0.38703 0.44661 0.0
O816 O 0.76039 0.36876 0.50287 0.0
O817 O 0.75592 0.39842 0.49531 0.0
O818 O 0.72969 0.36608 0.47411 0.0
O819 O 0.74058 0.39127 0.45675 0.0
C820 C 0.82265 0.45042 0.47778 0.0
C821 C 0.81593 0.46343 0.49145 0.0
H822 H 0.79788 0.48471 0.51736 0.0
H823 H 0.76329 0.47571 0.52416 0.0
H824 H 0.80654 0.39204 0.4371 0.0
H825 H 0.83041 0.42176 0.45111 0.0
H826 H 0.83766 0.45356 0.47438 0.0
H827 H 0.82589 0.47631 0.49842 0.0
Mn828 Mn 0.6358 0.51279 0.27831 0.0
Mn829 Mn 0.67312 0.52806 0.31096 0.0
C830 C 0.64746 0.54668 0.28673 0.0
C831 C 0.6238 0.50518 0.24673 0.0
C832 C 0.63218 0.51212 0.32119 0.0
O833 O 0.64783 0.48759 0.27899 0.0
O834 O 0.67259 0.49981 0.30062 0.0
C835 C 0.70525 0.52731 0.2856 0.0
N836 N 0.69597 0.53759 0.29844 0.0
C837 C 0.71922 0.56803 0.29703 0.0
C838 C 0.72908 0.55772 0.28388 0.0
C839 C 0.72205 0.53728 0.27813 0.0
C840 C 0.70262 0.55727 0.30408 0.0
H841 H 0.69985 0.51163 0.28104 0.0
C842 C 0.66297 0.48573 0.28884 0.0
O843 O 0.61354 0.49896 0.26053 0.0
O844 O 0.64133 0.51457 0.25124 0.0
N845 N 0.67542 0.55532 0.32172 0.0
C846 C 0.66367 0.56335 0.33373 0.0
C847 C 0.66844 0.5838 0.3405 0.0
C848 C 0.68525 0.59576 0.3349 0.0
C849 C 0.69718 0.58714 0.32262 0.0
C850 C 0.6918 0.56663 0.31649 0.0
H851 H 0.65065 0.55429 0.33797 0.0
O852 O 0.62992 0.54064 0.27952 0.0
O853 O 0.65744 0.53273 0.28904 0.0
O854 O 0.62459 0.50865 0.30426 0.0
O855 O 0.65015 0.51915 0.32513 0.0
C856 C 0.71399 0.59819 0.31593 0.0
C857 C 0.72499 0.58865 0.30313 0.0
H858 H 0.74197 0.5654 0.27799 0.0
H859 H 0.72953 0.52925 0.26791 0.0
H860 H 0.65912 0.59035 0.34992 0.0
H861 H 0.68877 0.61157 0.33998 0.0
H862 H 0.71844 0.61411 0.32033 0.0
H863 H 0.73774 0.59737 0.29788 0.0
Dy864 Dy 0.98702 0.02388 0.0053 0.0
C865 C 0.06871 0.02764 0.00995 0.0
C866 C 0.94995 0.02908 0.00891 0.0
Dy867 Dy 0.03158 0.0327 0.01325 0.0
O868 O 0.95526 0.01681 0.99592 0.0
O869 O 0.96478 0.03819 0.01979 0.0
O870 O 0.98968 0.00464 0.97823 0.0
O871 O 0.01183 0.02875 0.98834 0.0
C872 C 0.00724 0.01387 0.97609 0.0
C873 C 0.01125 0.0431 0.04219 0.0
O874 O 0.02898 0.06067 0.9998 0.0
O875 O 0.99547 0.05665 0.00035 0.0
O876 O 0.06286 0.03787 0.02421 0.0
O877 O 0.0544 0.02057 0.99768 0.0
O878 O 0.02873 0.05246 0.03985 0.0
O879 O 0.00675 0.02794 0.03023 0.0
O880 O 0.98981 0.99604 0.01898 0.0
O881 O 0.02324 -6e-05 0.01792 0.0
C882 C 0.01262 0.06751 0.99749 0.0
C883 C 0.00618 0.98916 0.02108 0.0
Dy884 Dy 0.26173 0.77209 0.23437 0.0
C885 C 0.25486 0.75716 0.31349 0.0
C886 C 0.25757 0.783 0.19889 0.0
Dy887 Dy 0.2553 0.76869 0.27787 0.0
O888 O 0.25997 0.7651 0.20257 0.0
O889 O 0.25763 0.79458 0.21444 0.0
O890 O 0.29301 0.76929 0.23886 0.0
O891 O 0.27238 0.75644 0.25667 0.0
C892 C 0.29017 0.76046 0.25428 0.0
C893 C 0.23327 0.79044 0.25971 0.0
O894 O 0.28035 0.79412 0.27896 0.0
O895 O 0.27411 0.8027 0.24873 0.0
O896 O 0.27033 0.76468 0.30539 0.0
O897 O 0.23958 0.7562 0.30222 0.0
O898 O 0.23765 0.79372 0.27787 0.0
O899 O 0.23924 0.77506 0.25342 0.0
O900 O 0.23937 0.74385 0.2324 0.0
O901 O 0.24005 0.73849 0.26453 0.0
C902 C 0.28326 0.80665 0.26572 0.0
C903 C 0.23403 0.73282 0.2465 0.0
Dy904 Dy 0.52875 0.02352 0.51604 0.0
C905 C 0.44909 0.03525 0.51486 0.0
C906 C 0.56303 0.01099 0.52144 0.0
Dy907 Dy 0.48428 0.02398 0.51816 0.0
O908 O 0.56017 0.0246 0.51039 0.0
O909 O 0.54733 0.00458 0.5296 0.0
O910 O 0.53048 0.04308 0.49183 0.0
O911 O 0.50469 0.02356 0.49623 0.0
C912 C 0.51213 0.03749 0.48686 0.0
C913 C 0.50148 0.01001 0.54705 0.0
O914 O 0.4817 0.99394 0.50169 0.0
O915 O 0.51433 0.99172 0.50576 0.0
O916 O 0.45853 0.03427 0.53078 0.0
O917 O 0.4586 0.02949 0.50083 0.0
O918 O 0.48329 0.00356 0.54173 0.0
O919 O 0.50848 0.02428 0.53788 0.0
O920 O 0.53027 0.05264 0.53373 0.0
O921 O 0.49923 0.05642 0.52411 0.0
C922 C 0.49609 0.98382 0.50003 0.0
C923 C 0.51667 0.06375 0.53249 0.0
Dy924 Dy 0.23837 0.27148 0.76026 0.0
C925 C 0.32095 0.28333 0.75923 0.0
C926 C 0.19976 0.26382 0.7659 0.0
Dy927 Dy 0.28267 0.27346 0.76568 0.0
O928 O 0.20823 0.27774 0.75605 0.0
O929 O 0.21231 0.25377 0.77217 0.0
O930 O 0.2441 0.29797 0.74306 0.0
O931 O 0.26367 0.29519 0.76553 0.0
C932 C 0.26074 0.30525 0.75204 0.0
C933 C 0.26043 0.23926 0.77347 0.0
O934 O 0.2785 0.28858 0.79397 0.0
O935 O 0.24493 0.27941 0.79179 0.0
O936 O 0.31352 0.26877 0.76893 0.0
O937 O 0.30755 0.29266 0.75358 0.0
O938 O 0.27751 0.24599 0.7818 0.0
O939 O 0.25736 0.24982 0.76042 0.0
O940 O 0.24267 0.25552 0.73229 0.0
O941 O 0.2761 0.26609 0.73413 0.0
C942 C 0.26155 0.28691 0.8017 0.0
C943 C 0.25955 0.258 0.72438 0.0
Dy944 Dy 0.00849 0.01145 0.48723 0.0
C945 C 0.04194 0.03812 0.56522 0.0
C946 C 0.98396 0.0013 0.45572 0.0
Dy947 Dy 0.0236 0.03108 0.52982 0.0
O948 O 0.00048 0.99547 0.45802 0.0
O949 O 0.98059 0.01189 0.47096 0.0
O950 O 0.03759 0.01905 0.47421 0.0
O951 O 0.03444 0.02655 0.50246 0.0
C952 C 0.04642 0.02814 0.48995 0.0
C953 C 0.98529 0.02018 0.52206 0.0
O954 O 0.02505 0.05907 0.5153 0.0
O955 O 0.00506 0.04392 0.48873 0.0
O956 O 0.02336 0.03449 0.56154 0.0
O957 O 0.05064 0.03872 0.54946 0.0
O958 O 0.99309 0.03513 0.53439 0.0
O959 O 0.99821 0.01138 0.51566 0.0
O960 O 0.01103 0.98334 0.50074 0.0
O961 O 0.02823 -0.00091 0.52877 0.0
C962 C 0.01475 0.0601 0.49936 0.0
C963 C 0.02089 0.98277 0.51709 0.0
Dy964 Dy 0.28485 0.78569 0.76267 0.0
C965 C 0.21327 0.75079 0.71935 0.0
C966 C 0.31457 0.79571 0.78981 0.0
Dy967 Dy 0.2448 0.76255 0.74422 0.0
O968 O 0.31471 0.80241 0.77316 0.0
O969 O 0.29812 0.78407 0.79159 0.0
O970 O 0.29517 0.79276 0.73397 0.0
O971 O 0.27466 0.76694 0.73673 0.0
C972 C 0.28315 0.77762 0.72497 0.0
C973 C 0.24705 0.77061 0.78191 0.0
O974 O 0.25972 0.73619 0.74568 0.0
O975 O 0.28622 0.75305 0.76526 0.0
O976 O 0.21425 0.7463 0.73675 0.0
O977 O 0.22971 0.76122 0.71543 0.0
O978 O 0.2351 0.75531 0.77319 0.0
O979 O 0.25509 0.78129 0.76998 0.0
O980 O 0.2695 0.81176 0.76148 0.0
O981 O 0.24366 0.7952 0.74093 0.0
C982 C 0.27568 0.73624 0.75645 0.0
C983 C 0.25386 0.81191 0.7503 0.0
Dy984 Dy 0.50535 0.01945 0.0363 0.0
C985 C 0.49946 0.00904 0.95412 0.0
C986 C 0.50224 0.02504 0.07429 0.0
Dy987 Dy 0.50025 0.01911 0.99194 0.0
O988 O 0.50026 0.0076 0.0645 0.0
O989 O 0.50612 0.0394 0.06335 0.0
O990 O 0.52975 0.00183 0.03238 0.0
O991 O 0.50703 0.9989 0.01188 0.0
C992 C 0.52296 0.99398 0.01549 0.0
C993 C 0.49288 0.05169 0.01213 0.0
O994 O 0.47392 0.99703 0.99724 0.0
O995 O 0.47508 0.00204 0.03039 0.0
O996 O 0.48704 0.0184 0.96239 0.0
O997 O 0.51219 0.00536 0.96648 0.0
O998 O 0.499 0.05206 0.99515 0.0
O999 O 0.4894 0.0339 0.01644 0.0
O1000 O 0.52886 0.04431 0.03028 0.0
O1001 O 0.53135 0.03348 0.99868 0.0
C1002 C 0.46655 0.99362 0.01379 0.0
C1003 C 0.53814 0.04499 0.01449 0.0
Dy1004 Dy 0.26516 0.30483 0.26624 0.0
C1005 C 0.279 0.22457 0.26206 0.0
C1006 C 0.25308 0.34027 0.26334 0.0
Dy1007 Dy 0.26598 0.25937 0.25854 0.0
O1008 O 0.26582 0.33741 0.27618 0.0
O1009 O 0.24735 0.32396 0.2521 0.0
O1010 O 0.28187 0.3062 0.29456 0.0
O1011 O 0.2637 0.27971 0.2831 0.0
C1012 C 0.27619 0.28713 0.29618 0.0
C1013 C 0.25461 0.27669 0.22858 0.0
O1014 O 0.23759 0.25718 0.27214 0.0
O1015 O 0.23406 0.28994 0.26832 0.0
O1016 O 0.26354 0.22586 0.2518 0.0
O1017 O 0.2869 0.24205 0.27042 0.0
O1018 O 0.24925 0.25758 0.23029 0.0
O1019 O 0.26721 0.28436 0.24153 0.0
O1020 O 0.29373 0.30746 0.25324 0.0
O1021 O 0.29703 0.27434 0.25576 0.0
C1022 C 0.22691 0.27142 0.27232 0.0
C1023 C 0.30421 0.29307 0.25234 0.0
Dy1024 Dy 0.50747 0.52027 0.99153 0.0
C1025 C 0.54173 0.54275 0.06724 0.0
C1026 C 0.48623 0.51234 0.9576 0.0
Dy1027 Dy 0.52157 0.53625 0.03266 0.0
O1028 O 0.50455 0.51198 0.95996 0.0
O1029 O 0.47941 0.51646 0.97387 0.0
O1030 O 0.5379 0.51838 0.98453 0.0
O1031 O 0.53285 0.54056 0.00512 0.0
C1032 C 0.54575 0.53268 0.99744 0.0
C1033 C 0.48326 0.52348 0.02663 0.0
O1034 O 0.52106 0.5659 0.02117 0.0
O1035 O 0.50177 0.55195 0.99414 0.0
O1036 O 0.52362 0.54377 0.06432 0.0
O1037 O 0.54904 0.53905 0.05113 0.0
O1038 O 0.49101 0.53807 0.03929 0.0
O1039 O 0.49633 0.51575 0.0191 0.0
O1040 O 0.50837 0.49077 0.00277 0.0
O1041 O 0.52749 0.50457 0.02991 0.0
C1042 C 0.51017 0.56777 0.00587 0.0
C1043 C 0.51926 0.48883 0.018 0.0
Dy1044 Dy 0.78841 0.28833 0.27093 0.0
C1045 C 0.71566 0.2612 0.22546 0.0
C1046 C 0.81562 0.29965 0.30017 0.0
Dy1047 Dy 0.74957 0.26863 0.24727 0.0
O1048 O 0.8157 0.30816 0.28439 0.0
O1049 O 0.80043 0.28553 0.30001 0.0
O1050 O 0.80619 0.28043 0.24695 0.0
O1051 O 0.77792 0.28483 0.24133 0.0
C1052 C 0.79216 0.27892 0.23409 0.0
C1053 C 0.75005 0.26751 0.2851 0.0
O1054 O 0.7658 0.24336 0.24422 0.0
O1055 O 0.78593 0.25481 0.27137 0.0
O1056 O 0.71762 0.26637 0.24354 0.0
O1057 O 0.7324 0.25956 0.21905 0.0
O1058 O 0.73994 0.25337 0.27326 0.0
O1059 O 0.75815 0.28132 0.27604 0.0
O1060 O 0.77495 0.31577 0.26969 0.0
O1061 O 0.74952 0.30169 0.24742 0.0
C1062 C 0.77873 0.24068 0.25743 0.0
C1063 C 0.7597 0.31723 0.25844 0.0
Dy1064 Dy 0.99833 0.52037 0.53884 0.0
C1065 C 0.00248 0.51835 0.45802 0.0
C1066 C 0.99244 0.52316 0.57655 0.0
Dy1067 Dy 0.99593 0.52278 0.49547 0.0
O1068 O 0.98856 0.50664 0.56528 0.0
O1069 O -0.00028 0.53803 0.56728 0.0
O1070 O 0.02003 0.4998 0.53542 0.0
O1071 O 0.99855 0.49963 0.51397 0.0
C1072 C 0.01352 0.49297 0.5182 0.0
C1073 C 0.98043 0.55018 0.51584 0.0
O1074 O 0.96965 0.49988 0.4982 0.0
O1075 O 0.96671 0.50946 0.52999 0.0
O1076 O 0.99288 0.53125 0.46571 0.0
O1077 O 0.00841 0.50792 0.47076 0.0
O1078 O 0.97424 0.5433 0.49853 0.0
O1079 O 0.9954 0.54356 0.52036 0.0
O1080 O 0.026 0.54159 0.53675 0.0
O1081 O 0.02671 0.53781 0.50387 0.0
C1082 C 0.95961 0.49941 0.51352 0.0
C1083 C 0.03487 0.54485 0.52096 0.0
Dy1084 Dy 0.73946 0.77431 0.25465 0.0
C1085 C 0.82209 0.78109 0.25902 0.0
C1086 C 0.70064 0.76705 0.25922 0.0
Dy1087 Dy 0.78307 0.77437 0.26219 0.0
O1088 O 0.70972 0.78176 0.25062 0.0
O1089 O 0.71269 0.75608 0.26472 0.0
O1090 O 0.74679 0.80053 0.23743 0.0
O1091 O 0.76532 0.79721 0.26063 0.0
C1092 C 0.76333 0.80722 0.24683 0.0
C1093 C 0.75899 0.74139 0.26984 0.0
O1094 O 0.77834 0.78962 0.29018 0.0
O1095 O 0.74473 0.78263 0.28628 0.0
O1096 O 0.81209 0.76522 0.26519 0.0
O1097 O 0.81081 0.79347 0.25502 0.0
O1098 O 0.77555 0.74797 0.27925 0.0
O1099 O 0.75719 0.75159 0.25616 0.0
O1100 O 0.74451 0.75883 0.22669 0.0
O1101 O 0.7781 0.76707 0.23051 0.0
C1102 C 0.76105 0.78914 0.29696 0.0
C1103 C 0.76188 0.75998 0.21984 0.0
Dy1104 Dy 0.75644 0.2775 0.73927 0.0
C1105 C 0.76985 0.26879 0.81872 0.0
C1106 C 0.74374 0.28292 0.7037 0.0
Dy1107 Dy 0.75829 0.27358 0.78261 0.0
O1108 O 0.76024 0.2779 0.70799 0.0
O1109 O 0.73425 0.28477 0.71876 0.0
O1110 O 0.78672 0.27134 0.73815 0.0
O1111 O 0.7682 0.25846 0.75786 0.0
C1112 C 0.7852 0.26079 0.75261 0.0
C1113 C 0.72972 0.29056 0.76916 0.0
O1114 O 0.78156 0.30055 0.78028 0.0
O1115 O 0.77356 0.30772 0.74977 0.0
O1116 O 0.75339 0.27341 0.81366 0.0
O1117 O 0.77997 0.26692 0.8041 0.0
O1118 O 0.72797 0.27979 0.78344 0.0
O1119 O 0.74675 0.29278 0.76405 0.0
O1120 O 0.7336 0.25005 0.7416 0.0
O1121 O 0.74183 0.2431 0.77211 0.0
C1122 C 0.7839 0.3122 0.76619 0.0
C1123 C 0.73154 0.23837 0.75569 0.0
Dy1124 Dy 0.7607 0.80054 0.76074 0.0
C1125 C 0.76366 0.71672 0.74639 0.0
C1126 C 0.75191 0.8378 0.75994 0.0
Dy1127 Dy 0.75747 0.75526 0.74938 0.0
O1128 O 0.76245 0.8325 0.77344 0.0
O1129 O 0.74668 0.82293 0.74693 0.0
O1130 O 0.77763 0.79869 0.78802 0.0
O1131 O 0.75723 0.77392 0.77583 0.0
C1132 C 0.77034 0.77975 0.78884 0.0
C1133 C 0.74769 0.77669 0.72182 0.0
O1134 O 0.72813 0.75365 0.76049 0.0
O1135 O 0.72907 0.78818 0.76336 0.0
O1136 O 0.76558 0.72849 0.73292 0.0
O1137 O 0.758 0.72588 0.76131 0.0
O1138 O 0.73958 0.75804 0.7229 0.0
O1139 O 0.76122 0.78198 0.73445 0.0
O1140 O 0.78944 0.80114 0.74871 0.0
O1141 O 0.78962 0.7675 0.75193 0.0
C1142 C 0.71977 0.76944 0.76409 0.0
C1143 C 0.79856 0.7857 0.74858 0.0
Dy1144 Dy 0.49112 0.52638 0.50762 0.0
C1145 C 0.57313 0.53381 0.52225 0.0
C1146 C 0.45357 0.53068 0.50906 0.0
Dy1147 Dy 0.53497 0.53639 0.51869 0.0
O1148 O 0.45965 0.51783 0.49717 0.0
O1149 O 0.4679 0.54084 0.51998 0.0
O1150 O 0.49542 0.50697 0.48137 0.0
O1151 O 0.51715 0.53126 0.49222 0.0
C1152 C 0.51322 0.51609 0.48016 0.0
C1153 C 0.51198 0.54621 0.54565 0.0
O1154 O 0.53308 0.56475 0.50576 0.0
O1155 O 0.49942 0.55894 0.50209 0.0
O1156 O 0.56157 0.53316 0.53598 0.0
O1157 O 0.56396 0.53659 0.50675 0.0
O1158 O 0.52928 0.55644 0.54414 0.0
O1159 O 0.50887 0.53086 0.53385 0.0
O1160 O 0.49413 0.49912 0.52204 0.0
O1161 O 0.52713 0.50276 0.51871 0.0
C1162 C 0.51664 0.57058 0.50118 0.0
C1163 C 0.51045 0.49203 0.5229 0.0
Dy1164 Dy 0.0337 0.52511 0.01872 0.0
C1165 C 0.95524 0.54049 0.01319 0.0
C1166 C 0.06696 0.51095 0.02534 0.0
Dy1167 Dy 0.98947 0.52757 0.0182 0.0
O1168 O 0.06514 0.5248 0.01422 0.0
O1169 O 0.05078 0.50519 0.03298 0.0
O1170 O 0.03813 0.54583 0.99552 0.0
O1171 O 0.0113 0.52702 0.99766 0.0
C1172 C 0.02007 0.54114 0.98925 0.0
C1173 C 0.0037 0.51151 0.04743 0.0
O1174 O 0.98664 0.49791 0.001 0.0
O1175 O 0.01858 0.49397 0.00692 0.0
O1176 O 0.96333 0.5383 0.02947 0.0
O1177 O 0.96556 0.53509 0.99969 0.0
O1178 O 0.98573 0.50607 0.04091 0.0
O1179 O 0.01202 0.52595 0.03918 0.0
O1180 O 0.03542 0.55389 0.03708 0.0
O1181 O 0.00538 0.5594 0.0261 0.0
C1182 C 0.00051 0.48706 -5e-05 0.0
C1183 C 0.02247 0.56572 0.03553 0.0
C1184 C 0.00884 0.2203 0.91867 0.0
C1185 C -0.0001 0.21664 0.90027 0.0
C1186 C 0.01176 0.20438 0.92889 0.0
C1187 C 0.0244 0.16833 0.94448 0.0
H1188 H 0.98227 0.12262 0.94258 0.0
C1189 C 0.02961 0.09606 0.98077 0.0
C1190 C 0.01295 0.08665 0.98892 0.0
C1191 C 0.02902 0.11253 0.97039 0.0
C1192 C 0.99411 0.13535 0.9434 0.0
H1193 H 0.98748 0.1934 0.87797 0.0
H1194 H 0.99274 0.1655 0.89579 0.0
H1195 H 0.97967 0.14972 0.92299 0.0
H1196 H 0.98291 0.0879 0.99346 0.0
H1197 H 0.98202 0.11674 0.97571 0.0
H1198 H 0.03861 0.15414 0.96529 0.0
C1199 C 0.99726 0.18072 0.90239 0.0
C1200 C 0.99274 0.15075 0.93194 0.0
C1201 C 0.99435 0.1967 0.89214 0.0
C1202 C 0.99597 0.09465 0.98722 0.0
C1203 C 0.9954 0.1111 0.97691 0.0
C1204 C 0.02578 0.1529 0.95596 0.0
C1205 C 0.00581 0.18439 0.92098 0.0
C1206 C 0.0078 0.1675 0.93242 0.0
C1207 C 0.01177 0.11994 0.96799 0.0
C1208 C 0.01057 0.13631 0.95567 0.0
H1209 H 0.01329 0.2355 0.92537 0.0
H1210 H 0.01815 0.20775 0.94324 0.0
H1211 H 0.03635 0.18094 0.94506 0.0
H1212 H 0.04291 0.09025 0.98174 0.0
H1213 H 0.04186 0.11893 0.96363 0.0
C1214 C 0.09857 0.81153 0.15603 0.0
C1215 C 0.08276 0.8158 0.16592 0.0
C1216 C 0.11687 0.81412 0.16533 0.0
C1217 C 0.14765 0.83477 0.20868 0.0
H1218 H 0.16503 0.78383 0.20193 0.0
C1219 C 0.20785 0.81209 0.25741 0.0
C1220 C 0.219 0.79909 0.2488 0.0
C1221 C 0.19264 0.8177 0.24691 0.0
C1222 C 0.16075 0.79836 0.20375 0.0
H1223 H 0.07411 0.828 0.19279 0.0
H1224 H 0.10616 0.8325 0.20901 0.0
H1225 H 0.13683 0.78861 0.18352 0.0
H1226 H 0.22332 0.78228 0.22246 0.0
H1227 H 0.19842 0.79332 0.20402 0.0
H1228 H 0.1718 0.84446 0.22902 0.0
C1229 C 0.10436 0.82711 0.1941 0.0
C1230 C 0.14449 0.80106 0.19317 0.0
C1231 C 0.08599 0.82445 0.18481 0.0
C1232 C 0.21534 0.79267 0.22944 0.0
C1233 C 0.20067 0.79866 0.21893 0.0
C1234 C 0.16424 0.83216 0.21918 0.0
C1235 C 0.11975 0.8211 0.18467 0.0
C1236 C 0.13776 0.81926 0.19544 0.0
C1237 C 0.18857 0.81057 0.22762 0.0
C1238 C 0.17103 0.81391 0.21675 0.0
H1239 H 0.09662 0.80501 0.14144 0.0
H1240 H 0.12859 0.80964 0.15766 0.0
H1241 H 0.14266 0.84891 0.21078 0.0
H1242 H 0.21031 0.81715 0.27236 0.0
H1243 H 0.18357 0.82684 0.2541 0.0
C1244 C 0.50401 0.82779 0.40451 0.0
C1245 C 0.49451 0.82505 0.38636 0.0
C1246 C 0.50404 0.84523 0.41649 0.0
C1247 C 0.47565 0.88383 0.42729 0.0
H1248 H 0.52278 0.91359 0.45399 0.0
C1249 C 0.4788 0.95912 0.47385 0.0
C1250 C 0.49253 0.96378 0.4893 0.0
C1251 C 0.47804 0.94166 0.46157 0.0
C1252 C 0.50939 0.90527 0.44695 0.0
H1253 H 0.47812 0.83887 0.36637 0.0
H1254 H 0.47785 0.86919 0.38758 0.0
H1255 H 0.5242 0.88485 0.43144 0.0
H1256 H 0.51521 0.95324 0.50491 0.0
H1257 H 0.51324 0.92237 0.48418 0.0
H1258 H 0.4607 0.9038 0.44316 0.0
C1259 C 0.48524 0.85774 0.39243 0.0
C1260 C 0.51028 0.8889 0.4339 0.0
C1261 C 0.4855 0.84043 0.38028 0.0
C1262 C 0.50461 0.95009 0.49297 0.0
C1263 C 0.50361 0.93251 0.48094 0.0
C1264 C 0.4747 0.90005 0.44057 0.0
C1265 C 0.49436 0.86019 0.4107 0.0
C1266 C 0.49343 0.87802 0.42397 0.0
C1267 C 0.49081 0.92839 0.46469 0.0
C1268 C 0.49157 0.91095 0.45064 0.0
H1269 H 0.51118 0.81631 0.40962 0.0
H1270 H 0.51114 0.84673 0.43054 0.0
H1271 H 0.46241 0.87551 0.41995 0.0
H1272 H 0.46945 0.96954 0.47059 0.0
H1273 H 0.46807 0.93912 0.44917 0.0
C1274 C 0.47449 0.28088 0.68403 0.0
C1275 C 0.4714 0.28317 0.6647 0.0
C1276 C 0.45974 0.28191 0.69641 0.0
C1277 C 0.41868 0.30476 0.70523 0.0
H1278 H 0.39622 0.25776 0.72934 0.0
C1279 C 0.34503 0.2988 0.73781 0.0
C1280 C 0.34065 0.28654 0.75248 0.0
C1281 C 0.36264 0.29986 0.72937 0.0
C1282 C 0.40256 0.27122 0.72315 0.0
H1283 H 0.45059 0.28861 0.64325 0.0
H1284 H 0.42504 0.2911 0.6651 0.0
H1285 H 0.42402 0.25667 0.71027 0.0
H1286 H 0.35156 0.26661 0.77061 0.0
H1287 H 0.38283 0.2692 0.75656 0.0
H1288 H 0.39779 0.31965 0.71833 0.0
C1289 C 0.43879 0.28822 0.67051 0.0
C1290 C 0.41839 0.27048 0.7121 0.0
C1291 C 0.45335 0.28669 0.65805 0.0
C1292 C 0.35458 0.27612 0.75925 0.0
C1293 C 0.37241 0.27746 0.75102 0.0
C1294 C 0.40315 0.30569 0.71661 0.0
C1295 C 0.44186 0.28576 0.68975 0.0
C1296 C 0.42628 0.2871 0.70275 0.0
C1297 C 0.37651 0.28898 0.73564 0.0
C1298 C 0.39452 0.28877 0.72537 0.0
H1299 H 0.48823 0.27804 0.68952 0.0
H1300 H 0.46236 0.27996 0.71121 0.0
H1301 H 0.42473 0.31783 0.69828 0.0
H1302 H 0.33449 0.3069 0.73221 0.0
H1303 H 0.36494 0.3086 0.71738 0.0
C1304 C 0.00077 0.82605 0.59434 0.0
C1305 C 0.01096 0.82887 0.61218 0.0
C1306 C 0.00185 0.84182 0.5828 0.0
C1307 C 0.01516 0.89743 0.58492 0.0
H1308 H 0.01722 0.88773 0.53045 0.0
C1309 C 0.03489 0.96257 0.53988 0.0
C1310 C 0.02219 0.96314 0.52415 0.0
C1311 C 0.03396 0.94514 0.54901 0.0
C1312 C 0.01652 0.89061 0.54563 0.0
H1313 H 0.03052 0.85052 0.63168 0.0
H1314 H 0.03274 0.87775 0.61147 0.0
H1315 H 0.01446 0.8595 0.54993 0.0
H1316 H -0.00058 0.94533 0.50494 0.0
H1317 H 0.99794 0.91461 0.52094 0.0
H1318 H 0.01753 0.92851 0.5807 0.0
C1319 C 0.02351 0.86351 0.60654 0.0
C1320 C 0.01488 0.87446 0.5568 0.0
C1321 C 0.02232 0.84782 0.61813 0.0
C1322 C 0.00942 0.94539 0.51699 0.0
C1323 C 0.00854 0.92782 0.52616 0.0
C1324 C 0.01696 0.91351 0.57382 0.0
C1325 C 0.01323 0.86077 0.58876 0.0
C1326 C 0.01435 0.87771 0.57663 0.0
C1327 C 0.02037 0.92778 0.54265 0.0
C1328 C 0.01786 0.91033 0.55408 0.0
H1329 H 0.99182 0.81168 0.58931 0.0
H1330 H 0.99353 0.83922 0.56932 0.0
H1331 H 0.01429 0.9005 0.60005 0.0
H1332 H 0.04512 0.97585 0.54564 0.0
H1333 H 0.04357 0.94542 0.56143 0.0
C1334 C 0.46385 0.77194 0.86522 0.0
C1335 C 0.47292 0.78497 0.88073 0.0
C1336 C 0.44534 0.7733 0.85822 0.0
C1337 C 0.40269 0.77348 0.85082 0.0
H1338 H 0.39351 0.82704 0.84394 0.0
C1339 C 0.33003 0.78678 0.81926 0.0
C1340 C 0.33142 0.79793 0.80349 0.0
C1341 C 0.34642 0.7864 0.83094 0.0
C1342 C 0.39589 0.81202 0.84581 0.0
H1343 H 0.4694 0.80841 0.90222 0.0
H1344 H 0.43696 0.81113 0.8898 0.0
H1345 H 0.42321 0.82293 0.86112 0.0
H1346 H 0.35079 0.81827 0.78809 0.0
H1347 H 0.37955 0.81793 0.80883 0.0
H1348 H 0.37532 0.76257 0.83562 0.0
C1349 C 0.44429 0.80011 0.88281 0.0
C1350 C 0.41284 0.80964 0.8557 0.0
C1351 C 0.46276 0.79853 0.88995 0.0
C1352 C 0.34934 0.80957 0.80017 0.0
C1353 C 0.36574 0.80939 0.81204 0.0
C1354 C 0.38562 0.77586 0.84126 0.0
C1355 C 0.43551 0.78772 0.86665 0.0
C1356 C 0.41663 0.79033 0.85796 0.0
C1357 C 0.36451 0.79738 0.82724 0.0
C1358 C 0.38217 0.79514 0.8384 0.0
H1359 H 0.47128 0.76099 0.85822 0.0
H1360 H 0.43909 0.76361 0.8457 0.0
H1361 H 0.40504 0.75841 0.85251 0.0
H1362 H 0.31639 0.77769 0.8222 0.0
H1363 H 0.34502 0.77719 0.84267 0.0
C1364 C 0.49905 0.21597 0.09331 0.0
C1365 C 0.48927 0.21872 0.10979 0.0
C1366 C 0.49927 0.19673 0.08496 0.0
C1367 C 0.47348 0.1447 0.08082 0.0
H1368 H 0.52146 0.1343 0.06089 0.0
C1369 C 0.48248 0.068 0.04191 0.0
C1370 C 0.49187 0.06965 0.02494 0.0
C1371 C 0.48198 0.08519 0.05415 0.0
C1372 C 0.50795 0.13699 0.06634 0.0
H1373 H 0.4729 0.20381 0.13118 0.0
H1374 H 0.47303 0.16966 0.11634 0.0
H1375 H 0.52102 0.16614 0.07936 0.0
H1376 H 0.50795 0.09033 0.00732 0.0
H1377 H 0.50709 0.12029 0.0286 0.0
H1378 H 0.4604 0.11552 0.06745 0.0
C1379 C 0.48024 0.1825 0.10974 0.0
C1380 C 0.50769 0.1552 0.07691 0.0
C1381 C 0.48018 0.20191 0.11823 0.0
C1382 C 0.50062 0.08867 0.02033 0.0
C1383 C 0.50025 0.10578 0.03257 0.0
C1384 C 0.47376 0.12636 0.07025 0.0
C1385 C 0.48989 0.17977 0.09305 0.0
C1386 C 0.49038 0.15946 0.08386 0.0
C1387 C 0.491 0.10422 0.04964 0.0
C1388 C 0.49092 0.12257 0.06253 0.0
H1389 H 0.50657 0.22878 0.08685 0.0
H1390 H 0.50661 0.19514 0.07199 0.0
H1391 H 0.45992 0.14766 0.08592 0.0
H1392 H 0.47553 0.05345 0.0457 0.0
H1393 H 0.47481 0.08357 0.06725 0.0
C1394 C 0.07946 0.29072 0.34604 0.0
C1395 C 0.07257 0.27901 0.36053 0.0
C1396 C 0.09634 0.28815 0.33747 0.0
C1397 C 0.12838 0.25241 0.32701 0.0
H1398 H 0.16394 0.30055 0.31732 0.0
C1399 C 0.20242 0.25309 0.29243 0.0
C1400 C 0.20757 0.26799 0.28009 0.0
C1401 C 0.18562 0.25247 0.3024 0.0
C1402 C 0.15408 0.28693 0.31972 0.0
H1403 H 0.07813 0.25522 0.37725 0.0
H1404 H 0.10788 0.25069 0.36206 0.0
H1405 H 0.13603 0.30349 0.33549 0.0
H1406 H 0.1984 0.29286 0.2674 0.0
H1407 H 0.16908 0.2915 0.28436 0.0
H1408 H 0.14647 0.23589 0.31092 0.0
C1409 C 0.10002 0.26187 0.35744 0.0
C1410 C 0.13812 0.28863 0.33022 0.0
C1411 C 0.08308 0.26457 0.36621 0.0
C1412 C 0.19498 0.28137 0.27699 0.0
C1413 C 0.17824 0.28068 0.28683 0.0
C1414 C 0.14443 0.25069 0.31641 0.0
C1415 C 0.10685 0.27375 0.34305 0.0
C1416 C 0.12485 0.27145 0.33365 0.0
C1417 C 0.17369 0.26671 0.30015 0.0
C1418 C 0.15722 0.268 0.3123 0.0
H1419 H 0.07181 0.30198 0.34123 0.0
H1420 H 0.10105 0.29733 0.32624 0.0
H1421 H 0.11835 0.2389 0.32938 0.0
H1422 H 0.21188 0.24263 0.29517 0.0
H1423 H 0.18251 0.24151 0.31254 0.0
C1424 C 0.93338 0.06229 0.19265 0.0
C1425 C 0.91487 0.05022 0.19178 0.0
C1426 C 0.9435 0.06475 0.17625 0.0
C1427 C 0.93766 0.05558 0.12322 0.0
H1428 H 0.99279 0.05605 0.12794 0.0
C1429 C 0.9821 0.03438 0.06072 0.0
C1430 C -1e-05 0.04685 0.05878 0.0
C1431 C 0.97156 0.03739 0.07658 0.0
C1432 C 0.97745 0.05619 0.12643 0.0
H1433 H 0.8923 0.03157 0.17295 0.0
H1434 H 0.91006 0.03526 0.14456 0.0
H1435 H 0.9746 0.05659 0.15627 0.0
H1436 H 0.02098 0.07215 0.07204 0.0
H1437 H 0.00274 0.07709 0.10015 0.0
H1438 H 0.94054 0.05419 0.09322 0.0
C1439 C 0.91669 0.04332 0.15774 0.0
C1440 C 0.96698 0.05658 0.14269 0.0
C1441 C 0.90649 0.04109 0.17409 0.0
C1442 C 0.00719 0.06236 0.07312 0.0
C1443 C 0.9968 0.06516 0.0892 0.0
C1444 C 0.94811 0.05488 0.10696 0.0
C1445 C 0.93546 0.05497 0.15859 0.0
C1446 C 0.94687 0.05605 0.14133 0.0
C1447 C 0.97887 0.05268 0.09108 0.0
C1448 C 0.96807 0.05497 0.10838 0.0
H1449 H 0.94019 0.06963 0.20607 0.0
H1450 H 0.95772 0.0742 0.17747 0.0
H1451 H 0.92233 0.05562 0.12154 0.0
H1452 H 0.97631 0.02206 0.05008 0.0
H1453 H 0.95793 0.02737 0.07775 0.0
C1454 C 0.24511 0.65233 0.44359 0.0
C1455 C 0.25812 0.65874 0.45948 0.0
C1456 C 0.24534 0.66391 0.42831 0.0
C1457 C 0.27501 0.7001 0.4028 0.0
H1458 H 0.22737 0.71772 0.38892 0.0
C1459 C 0.27175 0.75249 0.34387 0.0
C1460 C 0.25492 0.7487 0.3318 0.0
C1461 C 0.2723 0.74302 0.36049 0.0
C1462 C 0.24073 0.71272 0.39239 0.0
H1463 H 0.28223 0.68176 0.47135 0.0
H1464 H 0.28296 0.70165 0.44425 0.0
H1465 H 0.22844 0.697 0.41511 0.0
H1466 H 0.22543 0.73236 0.32752 0.0
H1467 H 0.22654 0.71519 0.35603 0.0
H1468 H 0.28717 0.71492 0.37968 0.0
C1469 C 0.27241 0.68785 0.4439 0.0
C1470 C 0.24132 0.70095 0.40745 0.0
C1471 C 0.27193 0.6765 0.45938 0.0
C1472 C 0.23853 0.73564 0.33672 0.0
C1473 C 0.23917 0.7259 0.35315 0.0
C1474 C 0.27433 0.71154 0.38749 0.0
C1475 C 0.25886 0.68183 0.42845 0.0
C1476 C 0.25843 0.6945 0.4127 0.0
C1477 C 0.25614 0.72929 0.36516 0.0
C1478 C 0.25714 0.71793 0.38203 0.0
H1479 H 0.23435 0.6387 0.44316 0.0
H1480 H 0.23488 0.65893 0.4164 0.0
H1481 H 0.28833 0.69517 0.40661 0.0
H1482 H 0.28456 0.76259 0.34036 0.0
H1483 H 0.28548 0.74636 0.36958 0.0
C1484 C 0.60337 0.99043 0.684 0.0
C1485 C 0.59208 0.98402 0.69887 0.0
C1486 C 0.5952 0.98802 0.66548 0.0
C1487 C 0.55304 0.96564 0.63295 0.0
H1488 H 0.55856 0.01968 0.61779 0.0
C1489 C 0.50385 0.98807 0.57341 0.0
C1490 C 0.51232 0.0034 0.56277 0.0
C1491 C 0.5144 0.98276 0.58878 0.0
C1492 C 0.55714 0.00438 0.62145 0.0
H1493 H 0.56416 0.96793 0.70578 0.0
H1494 H 0.54992 0.96374 0.67336 0.0
H1495 H 0.57682 0.01368 0.64564 0.0
H1496 H 0.53839 0.02505 0.55964 0.0
H1497 H 0.55705 0.01493 0.58517 0.0
H1498 H 0.53331 0.95637 0.60854 0.0
C1499 C 0.56501 0.9707 0.67605 0.0
C1500 C 0.56763 0.00097 0.63749 0.0
C1501 C 0.57315 0.97321 0.69462 0.0
C1502 C 0.53152 0.013 0.56743 0.0
C1503 C 0.54215 0.00738 0.58232 0.0
C1504 C 0.54271 0.969 0.61657 0.0
C1505 C 0.57567 0.97903 0.66154 0.0
C1506 C 0.56567 0.98163 0.64344 0.0
C1507 C 0.53364 0.99257 0.59353 0.0
C1508 C 0.54463 0.98846 0.61066 0.0
H1509 H 0.61806 0.99863 0.6868 0.0
H1510 H 0.60376 0.99435 0.65444 0.0
H1511 H 0.5512 0.95062 0.6374 0.0
H1512 H 0.48901 0.9805 0.57012 0.0
H1513 H 0.50731 0.97143 0.59721 0.0
C1514 C 0.25886 0.35547 0.96831 0.0
C1515 C 0.25892 0.37625 0.96932 0.0
C1516 C 0.25814 0.34415 0.95074 0.0
C1517 C 0.26991 0.32835 0.9119 0.0
H1518 H 0.23523 0.33705 0.87076 0.0
C1519 C 0.27789 0.30277 0.83302 0.0
C1520 C 0.26083 0.29475 0.82177 0.0
C1521 C 0.27702 0.31098 0.85167 0.0
C1522 C 0.24488 0.3343 0.88213 0.0
H1523 H 0.25786 0.40128 0.95255 0.0
H1524 H 0.25647 0.38155 0.92208 0.0
H1525 H 0.23417 0.35438 0.90215 0.0
H1526 H 0.22946 0.28862 0.82156 0.0
H1527 H 0.22803 0.30293 0.85398 0.0
H1528 H 0.28072 0.30838 0.89176 0.0
C1529 C 0.25694 0.374 0.93485 0.0
C1530 C 0.24438 0.34436 0.90007 0.0
C1531 C 0.25785 0.38533 0.95236 0.0
C1532 C 0.24291 0.29476 0.82974 0.0
C1533 C 0.24206 0.30305 0.84832 0.0
C1534 C 0.27051 0.31839 0.89388 0.0
C1535 C 0.25723 0.35333 0.93383 0.0
C1536 C 0.25699 0.34164 0.91511 0.0
C1537 C 0.25908 0.31144 0.85944 0.0
C1538 C 0.25807 0.32136 0.87878 0.0
H1539 H 0.25974 0.34801 0.98109 0.0
H1540 H 0.25824 0.32821 0.95037 0.0
H1541 H 0.2799 0.32607 0.92319 0.0
H1542 H 0.29193 0.30298 0.82736 0.0
H1543 H 0.29039 0.31749 0.85984 0.0
C1544 C 0.89372 0.03409 0.31489 0.0
C1545 C 0.90255 0.03259 0.29759 0.0
C1546 C 0.90334 0.03123 0.33177 0.0
C1547 C 0.9401 0.00488 0.34982 0.0
H1548 H 0.93832 0.0387 0.39637 0.0
C1549 C 0.98128 0.99566 0.42033 0.0
C1550 C 0.973 0.00048 0.43735 0.0
C1551 C 0.9726 0.99866 0.40294 0.0
C1552 C 0.93869 0.02887 0.38358 0.0
H1553 H 0.92866 0.02737 0.28456 0.0
H1554 H 0.94549 0.02226 0.31417 0.0
H1555 H 0.92441 0.04719 0.36684 0.0
H1556 H 0.94859 0.01095 0.44953 0.0
H1557 H 0.93301 0.01542 0.41927 0.0
H1558 H 0.95401 0.98629 0.36659 0.0
C1559 C 0.93107 0.02565 0.31457 0.0
C1560 C 0.93083 0.03386 0.36662 0.0
C1561 C 0.92151 0.02879 0.29766 0.0
C1562 C 0.95532 0.00719 0.43662 0.0
C1563 C 0.94654 0.00999 0.41926 0.0
C1564 C 0.94783 -0.00023 0.36684 0.0
C1565 C 0.92195 0.02656 0.33176 0.0
C1566 C 0.93136 0.02188 0.34956 0.0
C1567 C 0.95537 0.00639 0.40222 0.0
C1568 C 0.94712 0.01163 0.38399 0.0
H1569 H 0.87911 0.03698 0.31534 0.0
H1570 H 0.89588 0.03191 0.34474 0.0
H1571 H 0.94049 0.9952 0.33693 0.0
H1572 H 0.995 0.99061 0.4205 0.0
H1573 H 0.9799 0.99581 0.39018 0.0
C1574 C 0.28128 0.66984 0.58305 0.0
C1575 C 0.28716 0.67716 0.56597 0.0
C1576 C 0.28562 0.68204 0.60011 0.0
C1577 C 0.29542 0.73551 0.61805 0.0
H1578 H 0.30125 0.71351 0.66605 0.0
C1579 C 0.29835 0.77939 0.6937 0.0
C1580 C 0.28491 0.76945 0.70533 0.0
C1581 C 0.3016 0.76995 0.67608 0.0
C1582 C 0.29976 0.71987 0.65272 0.0
H1583 H 0.30327 0.70255 0.55348 0.0
H1584 H 0.31116 0.72379 0.58341 0.0
H1585 H 0.30365 0.69298 0.63662 0.0
H1586 H 0.26363 0.7424 0.70732 0.0
H1587 H 0.26949 0.72598 0.67689 0.0
H1588 H 0.29129 0.76237 0.6344 0.0
C1589 C 0.30285 0.70874 0.58354 0.0
C1590 C 0.30104 0.70812 0.63588 0.0
C1591 C 0.29845 0.69652 0.56643 0.0
C1592 C 0.27421 0.75038 0.69875 0.0
C1593 C 0.27762 0.74091 0.68139 0.0
C1594 C 0.29436 0.74737 0.63497 0.0
C1595 C 0.29603 0.70182 0.60052 0.0
C1596 C 0.29819 0.71551 0.61832 0.0
C1597 C 0.29162 0.75039 0.6701 0.0
C1598 C 0.29585 0.73937 0.65238 0.0
H1599 H 0.27254 0.655 0.58317 0.0
H1600 H 0.2799 0.67626 0.61283 0.0
H1601 H 0.29299 0.74164 0.60478 0.0
H1602 H 0.30676 0.79412 0.69845 0.0
H1603 H 0.31238 0.77757 0.66748 0.0
C1604 C 0.5645 0.00241 0.79935 0.0
C1605 C 0.58255 0.01519 0.80366 0.0
C1606 C 0.55039 0.00085 0.81261 0.0
C1607 C 0.53128 0.9906 0.84935 0.0
H1608 H 0.52236 0.03797 0.87975 0.0
C1609 C 0.51277 0.99236 0.92665 0.0
C1610 C 0.50075 0.00531 0.93359 0.0
C1611 C 0.51691 0.99129 0.90764 0.0
C1612 C 0.52433 0.0246 0.87114 0.0
H1613 H 0.59976 0.03663 0.82512 0.0
H1614 H 0.5751 0.03393 0.84817 0.0
H1615 H 0.54161 0.04183 0.85216 0.0
H1616 H 0.48257 0.02627 0.92612 0.0
H1617 H 0.49013 0.02468 0.89272 0.0
H1618 H 0.51477 0.97339 0.8689 0.0
C1619 C 0.57187 0.02521 0.83451 0.0
C1620 C 0.53552 0.02682 0.8555 0.0
C1621 C 0.58605 0.0266 0.82137 0.0
C1622 C 0.4919 0.0162 0.92103 0.0
C1623 C 0.49626 0.01534 0.902 0.0
C1624 C 0.52021 0.98837 0.86511 0.0
C1625 C 0.55397 0.01223 0.8303 0.0
C1626 C 0.53961 0.00986 0.84485 0.0
C1627 C 0.50928 0.00333 0.8953 0.0
C1628 C 0.51717 0.00537 0.87648 0.0
H1629 H 0.56133 0.9934 0.78583 0.0
H1630 H 0.53669 0.99075 0.80903 0.0
H1631 H 0.53425 0.97727 0.84138 0.0
H1632 H 0.51967 0.98373 0.9361 0.0
H1633 H 0.52713 0.98205 0.90293 0.0
C1634 C 0.25525 0.37622 0.09415 0.0
C1635 C 0.24823 0.36602 0.07643 0.0
C1636 C 0.2531 0.36641 0.11064 0.0
C1637 C 0.24512 0.31521 0.12657 0.0
H1638 H 0.23828 0.3437 0.17481 0.0
C1639 C 0.23894 0.27624 0.19605 0.0
C1640 C 0.25064 0.28675 0.2116 0.0
C1641 C 0.23626 0.28564 0.1796 0.0
C1642 C 0.24024 0.33555 0.16144 0.0
H1643 H 0.23281 0.3377 0.0622 0.0
H1644 H 0.22865 0.32072 0.09097 0.0
H1645 H 0.23758 0.36064 0.14599 0.0
H1646 H 0.26854 0.31535 0.22221 0.0
H1647 H 0.26366 0.33177 0.19374 0.0
H1648 H 0.24786 0.29015 0.1421 0.0
C1649 C 0.23622 0.33618 0.09213 0.0
C1650 C 0.23991 0.34528 0.14491 0.0
C1651 C 0.23848 0.34596 0.07562 0.0
C1652 C 0.25927 0.30691 0.21054 0.0
C1653 C 0.25644 0.31635 0.19423 0.0
C1654 C 0.24532 0.30544 0.14309 0.0
C1655 C 0.24376 0.34617 0.10984 0.0
C1656 C 0.24264 0.33535 0.12728 0.0
C1657 C 0.24507 0.30578 0.17848 0.0
C1658 C 0.24318 0.3156 0.16076 0.0
H1659 H 0.26291 0.39165 0.09526 0.0
H1660 H 0.25934 0.37454 0.12394 0.0
H1661 H 0.24758 0.30714 0.11333 0.0
H1662 H 0.23212 0.26068 0.19648 0.0
H1663 H 0.2273 0.27714 0.16775 0.0
C1664 C 0.21311 0.95323 0.9919 0.0
C1665 C 0.20955 0.93318 0.99639 0.0
C1666 C 0.19926 0.96527 0.99446 0.0
C1667 C 0.16336 0.98283 0.98935 0.0
H1668 H 0.13247 0.98134 0.03318 0.0
C1669 C 0.09236 0.01239 0.99172 0.0
C1670 C 0.08778 0.02197 0.00877 0.0
C1671 C 0.10898 0.00405 0.99093 0.0
C1672 C 0.14119 0.98213 0.021 0.0
H1673 H 0.18857 0.91019 0.00729 0.0
H1674 H 0.1641 0.93125 0.01144 0.0
H1675 H 0.15774 0.96107 0.0307 0.0
H1676 H 0.09721 0.03117 0.0382 0.0
H1677 H 0.12656 0.01656 0.03683 0.0
H1678 H 0.14691 0.00387 0.97965 0.0
C1679 C 0.17781 0.93763 0.00615 0.0
C1680 C 0.15544 0.97031 0.01945 0.0
C1681 C 0.19176 0.92552 0.00363 0.0
C1682 C 0.10052 0.0239 0.02487 0.0
C1683 C 0.11717 0.0154 0.02412 0.0
C1684 C 0.14915 0.99461 0.9909 0.0
C1685 C 0.18142 0.95761 0.0015 0.0
C1686 C 0.16655 0.97041 0.00352 0.0
C1687 C 0.12133 0.00505 0.00721 0.0
C1688 C 0.13775 0.9942 0.00661 0.0
H1689 H 0.22672 0.95979 0.98651 0.0
H1690 H 0.20262 0.98069 0.99106 0.0
H1691 H 0.17155 0.98312 0.97681 0.0
H1692 H 0.08273 0.01069 0.9791 0.0
H1693 H 0.11167 0.99602 0.97775 0.0
C1694 C 0.69921 0.64427 0.98162 0.0
C1695 C 0.71556 0.63875 0.99006 0.0
C1696 C 0.68088 0.63256 0.98294 0.0
C1697 C 0.64728 0.59638 0.97787 0.0
H1698 H 0.6311 0.57957 0.02637 0.0
C1699 C 0.57859 0.53717 0.98473 0.0
C1700 C 0.56616 0.54279 0.99826 0.0
C1701 C 0.59728 0.54831 0.98427 0.0
C1702 C 0.63543 0.58417 0.01275 0.0
H1703 H 0.72579 0.61803 0.00777 0.0
H1704 H 0.69383 0.59767 0.01022 0.0
H1705 H 0.66254 0.6013 0.02461 0.0
H1706 H 0.56364 0.56388 0.02235 0.0
H1707 H 0.59637 0.58314 0.02174 0.0
H1708 H 0.62015 0.57925 0.96601 0.0
C1709 C 0.69508 0.6107 0.00229 0.0
C1710 C 0.65343 0.5965 0.01172 0.0
C1711 C 0.71334 0.6222 0.00074 0.0
C1712 C 0.57296 0.55921 0.01179 0.0
C1713 C 0.59169 0.5702 0.01146 0.0
C1714 C 0.62936 0.58385 0.97886 0.0
C1715 C 0.6787 0.61559 0.9932 0.0
C1716 C 0.65948 0.60279 0.99429 0.0
C1717 C 0.60391 0.56509 0.99748 0.0
C1718 C 0.62323 0.5777 0.99633 0.0
H1719 H 0.70067 0.65727 0.97365 0.0
H1720 H 0.66843 0.63679 0.976 0.0
H1721 H 0.65169 0.60085 0.96423 0.0
H1722 H 0.57369 0.52456 0.97414 0.0
H1723 H 0.6065 0.54391 0.97348 0.0
C1724 C 0.68609 0.4639 0.29831 0.0
C1725 C 0.67104 0.46701 0.28584 0.0
C1726 C 0.69553 0.44775 0.29461 0.0
C1727 C 0.69181 0.39836 0.26702 0.0
H1728 H 0.74765 0.4095 0.27595 0.0
C1729 C 0.73761 0.33873 0.24601 0.0
C1730 C 0.75227 0.33636 0.25929 0.0
C1731 C 0.7284 0.35526 0.24818 0.0
C1732 C 0.73206 0.40608 0.27354 0.0
H1733 H 0.65373 0.45499 0.25996 0.0
H1734 H 0.6703 0.42665 0.25347 0.0
H1735 H 0.72945 0.43642 0.282 0.0
H1736 H 0.76922 0.35005 0.2849 0.0
H1737 H 0.7531 0.37893 0.28874 0.0
H1738 H 0.6944 0.36797 0.2587 0.0
C1739 C 0.6747 0.43678 0.26618 0.0
C1740 C 0.7216 0.42151 0.27702 0.0
C1741 C 0.66519 0.45302 0.26991 0.0
C1742 C 0.75809 0.35145 0.27434 0.0
C1743 C 0.74882 0.36802 0.27654 0.0
C1744 C 0.70227 0.38291 0.26355 0.0
C1745 C 0.69026 0.43422 0.27831 0.0
C1746 C 0.70133 0.41783 0.27395 0.0
C1747 C 0.73355 0.36989 0.26371 0.0
C1748 C 0.72253 0.38654 0.26686 0.0
H1749 H 0.69091 0.47419 0.31085 0.0
H1750 H 0.70711 0.44597 0.3045 0.0
H1751 H 0.67621 0.39494 0.2647 0.0
H1752 H 0.73283 0.32751 0.23413 0.0
H1753 H 0.71703 0.35643 0.23779 0.0
C1754 C 0.79511 0.41106 0.51399 0.0
C1755 C 0.78868 0.39394 0.50124 0.0
C1756 C 0.81475 0.41915 0.51682 0.0
C1757 C 0.85867 0.42373 0.49184 0.0
H1758 H 0.88314 0.44691 0.54077 0.0
C1759 C 0.93639 0.4693 0.49885 0.0
C1760 C 0.9406 0.48595 0.51254 0.0
C1761 C 0.91883 0.45587 0.49834 0.0
C1762 C 0.87645 0.44078 0.52696 0.0
H1763 H 0.79741 0.37078 0.48255 0.0
H1764 H 0.83213 0.38529 0.48712 0.0
H1765 H 0.85085 0.42629 0.53891 0.0
H1766 H 0.92973 0.50183 0.53628 0.0
H1767 H 0.8986 0.47901 0.53483 0.0
H1768 H 0.88358 0.43906 0.47967 0.0
C1769 C 0.82192 0.39252 0.49479 0.0
C1770 C 0.85803 0.42881 0.52593 0.0
C1771 C 0.80218 0.38424 0.49217 0.0
C1772 C 0.92686 0.48907 0.52562 0.0
C1773 C 0.9091 0.47584 0.52487 0.0
C1774 C 0.87691 0.43602 0.4928 0.0
C1775 C 0.82833 0.41023 0.50695 0.0
C1776 C 0.84882 0.42048 0.50833 0.0
C1777 C 0.90489 0.45899 0.51128 0.0
C1778 C 0.88594 0.44497 0.51036 0.0
H1779 H 0.78487 0.41847 0.52144 0.0
H1780 H 0.81922 0.43291 0.52612 0.0
H1781 H 0.8519 0.41758 0.47807 0.0
H1782 H 0.94686 0.46633 0.48877 0.0
H1783 H 0.91634 0.44289 0.48792 0.0
C1784 C 0.37287 0.09139 0.27538 0.0
C1785 C 0.36176 0.0724 0.27732 0.0
C1786 C 0.36381 0.10758 0.27227 0.0
C1787 C 0.31985 0.12188 0.25413 0.0
H1788 H 0.33218 0.16743 0.29235 0.0
C1789 C 0.27717 0.18729 0.25707 0.0
C1790 C 0.28767 0.20658 0.26303 0.0
C1791 C 0.28591 0.17046 0.2582 0.0
C1792 C 0.32878 0.15505 0.28132 0.0
H1793 H 0.33254 0.0552 0.27665 0.0
H1794 H 0.31681 0.08341 0.27068 0.0
H1795 H 0.34888 0.13927 0.29405 0.0
H1796 H 0.31551 0.22365 0.27425 0.0
H1797 H 0.33095 0.1947 0.27539 0.0
H1798 H 0.30015 0.13781 0.24101 0.0
C1799 C 0.33246 0.08576 0.27181 0.0
C1800 C 0.33833 0.1389 0.28239 0.0
C1801 C 0.34148 0.0697 0.27533 0.0
C1802 C 0.30701 0.20887 0.26981 0.0
C1803 C 0.31583 0.19221 0.27059 0.0
C1804 C 0.31053 0.13825 0.25282 0.0
C1805 C 0.34355 0.10488 0.27061 0.0
C1806 C 0.33392 0.12221 0.26883 0.0
C1807 C 0.30538 0.17274 0.26501 0.0
C1808 C 0.3149 0.15506 0.26642 0.0
H1809 H 0.38851 0.0939 0.2769 0.0
H1810 H 0.3726 0.12225 0.27134 0.0
H1811 H 0.31625 0.10908 0.24353 0.0
H1812 H 0.2622 0.18521 0.2518 0.0
H1813 H 0.27733 0.1557 0.25399 0.0
C1814 C 0.32164 0.13647 0.50694 0.0
C1815 C 0.31105 0.13335 0.48934 0.0
C1816 C 0.33712 0.12656 0.51002 0.0
C1817 C 0.35531 0.08143 0.49077 0.0
H1818 H 0.40129 0.10453 0.52295 0.0
C1819 C 0.42294 0.04482 0.49478 0.0
C1820 C 0.43187 0.04455 0.5128 0.0
C1821 C 0.40787 0.05538 0.49248 0.0
C1822 C 0.38842 0.09783 0.51408 0.0
H1823 H 0.30924 0.1186 0.46079 0.0
H1824 H 0.33654 0.10202 0.46589 0.0
H1825 H 0.37661 0.12474 0.51737 0.0
H1826 H 0.43197 0.0548 0.54259 0.0
H1827 H 0.40559 0.07335 0.53855 0.0
H1828 H 0.3673 0.05467 0.48721 0.0
C1829 C 0.33252 0.11145 0.47758 0.0
C1830 C 0.37428 0.1094 0.51088 0.0
C1831 C 0.31696 0.12111 0.47459 0.0
C1832 C 0.42525 0.05469 0.52855 0.0
C1833 C 0.41029 0.06544 0.52622 0.0
C1834 C 0.3695 0.06996 0.49383 0.0
C1835 C 0.34243 0.11352 0.49549 0.0
C1836 C 0.35758 0.10137 0.49909 0.0
C1837 C 0.40157 0.06603 0.50814 0.0
C1838 C 0.38623 0.07805 0.50545 0.0
H1839 H 0.31734 0.1457 0.51862 0.0
H1840 H 0.34435 0.12846 0.52402 0.0
H1841 H 0.34243 0.07453 0.482 0.0
H1842 H 0.42789 0.03725 0.48239 0.0
H1843 H 0.40153 0.0557 0.47835 0.0
C1844 C 0.64963 0.58366 0.29475 0.0
C1845 C 0.65698 0.56761 0.28592 0.0
C1846 C 0.65908 0.60348 0.29364 0.0
C1847 C 0.69066 0.64192 0.29813 0.0
H1848 H 0.70733 0.65717 0.24931 0.0
C1849 C 0.7483 0.71238 0.28863 0.0
C1850 C 0.74535 0.72301 0.27302 0.0
C1851 C 0.73576 0.69443 0.29102 0.0
C1852 C 0.7026 0.65327 0.26302 0.0
H1853 H 0.67878 0.55935 0.26786 0.0
H1854 H 0.69524 0.59381 0.26585 0.0
H1855 H 0.68818 0.62396 0.25151 0.0
H1856 H 0.72683 0.72357 0.24793 0.0
H1857 H 0.70483 0.69247 0.25222 0.0
H1858 H 0.70526 0.6713 0.30963 0.0
C1859 C 0.68247 0.59125 0.27388 0.0
C1860 C 0.69179 0.63417 0.2643 0.0
C1861 C 0.6732 0.57156 0.27518 0.0
C1862 C 0.72944 0.71567 0.2601 0.0
C1863 C 0.71691 0.69779 0.26249 0.0
C1864 C 0.7016 0.66107 0.29687 0.0
C1865 C 0.67561 0.60741 0.2832 0.0
C1866 C 0.68587 0.62822 0.28187 0.0
C1867 C 0.72009 0.6868 0.27781 0.0
C1868 C 0.70778 0.66689 0.27929 0.0
H1869 H 0.63687 0.58084 0.30277 0.0
H1870 H 0.6534 0.61571 0.30078 0.0
H1871 H 0.68641 0.63762 0.31188 0.0
H1872 H 0.76046 0.71776 0.2988 0.0
H1873 H 0.7387 0.6862 0.30286 0.0
C1874 C 0.89095 0.47716 0.80424 0.0
C1875 C 0.88401 0.49123 0.79384 0.0
C1876 C 0.88146 0.45702 0.80209 0.0
C1877 C 0.86377 0.41323 0.78844 0.0
H1878 H 0.8083 0.40404 0.77712 0.0
C1879 C 0.79721 0.34619 0.75667 0.0
C1880 C 0.79763 0.33152 0.76934 0.0
C1881 C 0.80922 0.36496 0.76022 0.0
C1882 C 0.8238 0.40637 0.78019 0.0
H1883 H 0.86324 0.49542 0.77187 0.0
H1884 H 0.84735 0.46048 0.76739 0.0
H1885 H 0.82629 0.4381 0.78264 0.0
H1886 H 0.81172 0.32466 0.79514 0.0
H1887 H 0.83285 0.35768 0.80126 0.0
H1888 H 0.86087 0.38106 0.78596 0.0
C1889 C 0.85925 0.46482 0.77801 0.0
C1890 C 0.83417 0.42593 0.78337 0.0
C1891 C 0.86841 0.48484 0.78046 0.0
C1892 C 0.81091 0.33575 0.78523 0.0
C1893 C 0.8231 0.35454 0.78868 0.0
C1894 C 0.85328 0.39352 0.78538 0.0
C1895 C 0.86528 0.4507 0.78912 0.0
C1896 C 0.85434 0.42968 0.78718 0.0
C1897 C 0.82203 0.36942 0.7764 0.0
C1898 C 0.83326 0.39 0.78087 0.0
H1899 H 0.90321 0.48186 0.81441 0.0
H1900 H 0.88647 0.44657 0.81091 0.0
H1901 H 0.87929 0.41553 0.79119 0.0
H1902 H 0.78725 0.3434 0.74425 0.0
H1903 H 0.80832 0.37615 0.75042 0.0
C1904 C 0.99447 0.83462 0.10103 0.0
C1905 C 0.01158 0.8334 0.11144 0.0
C1906 C 0.99294 0.85172 0.092 0.0
C1907 C 0.01673 0.905 0.08918 0.0
H1908 H 0.98865 0.89678 0.03998 0.0
C1909 C 0.02344 0.96547 0.03689 0.0
C1910 C 0.00601 0.97006 0.02968 0.0
C1911 C 0.02338 0.94866 0.04683 0.0
C1912 C 0.99639 0.89929 0.05376 0.0
H1913 H 0.04043 0.84926 0.12081 0.0
H1914 H 0.0381 0.8789 0.10449 0.0
H1915 H 0.99019 0.8681 0.05791 0.0
H1916 H 0.97488 0.96011 0.02665 0.0
H1917 H 0.97489 0.9303 0.04371 0.0
H1918 H 0.0235 0.93616 0.08454 0.0
C1919 C 0.02561 0.86687 0.10368 0.0
C1920 C 0.99722 0.88289 0.06413 0.0
C1921 C 0.02701 0.84985 0.11301 0.0
C1922 C 0.98855 0.957 0.03204 0.0
C1923 C 0.98854 0.93996 0.04177 0.0
C1924 C 0.01614 0.92133 0.07867 0.0
C1925 C 0.00863 0.86793 0.09284 0.0
C1926 C 0.00743 0.88551 0.08199 0.0
C1927 C 0.00594 0.93589 0.04956 0.0
C1928 C 0.00602 0.91861 0.06085 0.0
H1929 H 0.98223 0.82226 0.09976 0.0
H1930 H 0.97945 0.85215 0.08426 0.0
H1931 H 0.0244 0.90773 0.10299 0.0
H1932 H 0.03718 0.97517 0.03539 0.0
H1933 H 0.03701 0.9457 0.05249 0.0
C1934 C 0.93102 0.24191 0.83973 0.0
C1935 C 0.93646 0.25525 0.85608 0.0
C1936 C 0.91229 0.23917 0.83136 0.0
C1937 C 0.87011 0.23214 0.81749 0.0
H1938 H 0.85219 0.28256 0.81488 0.0
C1939 C 0.79911 0.24161 0.7764 0.0
C1940 C 0.80169 0.25704 0.76433 0.0
C1941 C 0.81423 0.23934 0.78899 0.0
C1942 C 0.857 0.26836 0.81554 0.0
H1943 H 0.92631 0.27426 0.87794 0.0
H1944 H 0.89343 0.2696 0.86333 0.0
H1945 H 0.87985 0.28119 0.83616 0.0
H1946 H 0.82201 0.28196 0.7556 0.0
H1947 H 0.84842 0.27815 0.77777 0.0
H1948 H 0.84711 0.21947 0.79663 0.0
C1949 C 0.90373 0.26173 0.85657 0.0
C1950 C 0.87276 0.26749 0.82785 0.0
C1951 C 0.92249 0.26438 0.86497 0.0
C1952 C 0.81972 0.26987 0.76469 0.0
C1953 C 0.83473 0.26781 0.77748 0.0
C1954 C 0.85409 0.23294 0.80538 0.0
C1955 C 0.8986 0.24963 0.8393 0.0
C1956 C 0.87994 0.24954 0.82854 0.0
C1957 C 0.83205 0.25268 0.78988 0.0
C1958 C 0.84777 0.25121 0.80392 0.0
H1959 H 0.94147 0.23415 0.83305 0.0
H1960 H 0.90896 0.22979 0.81806 0.0
H1961 H 0.87501 0.21797 0.81792 0.0
H1962 H 0.78526 0.23158 0.77637 0.0
H1963 H 0.81182 0.2276 0.79845 0.0
C1964 C 0.53587 0.23426 0.61025 0.0
C1965 C 0.52635 0.23597 0.62705 0.0
C1966 C 0.53709 0.21539 0.60148 0.0
C1967 C 0.51148 0.16316 0.59771 0.0
H1968 H 0.55578 0.15275 0.57062 0.0
C1969 C 0.53728 0.09208 0.55349 0.0
C1970 C 0.52012 0.08436 0.54228 0.0
C1971 C 0.53949 0.11069 0.5643 0.0
C1972 C 0.54335 0.15539 0.57823 0.0
H1973 H 0.51222 0.21974 0.64894 0.0
H1974 H 0.51412 0.18643 0.6335 0.0
H1975 H 0.55778 0.18463 0.59015 0.0
H1976 H 0.4922 0.09063 0.53302 0.0
H1977 H 0.49617 0.12299 0.5517 0.0
H1978 H 0.49703 0.134 0.58579 0.0
C1979 C 0.52026 0.19967 0.62685 0.0
C1980 C 0.54444 0.17368 0.58929 0.0
C1981 C 0.51918 0.21863 0.6357 0.0
C1982 C 0.50556 0.09599 0.54159 0.0
C1983 C 0.50776 0.1145 0.55241 0.0
C1984 C 0.51036 0.14496 0.58658 0.0
C1985 C 0.52892 0.19785 0.60946 0.0
C1986 C 0.52844 0.17784 0.599 0.0
C1987 C 0.52458 0.12189 0.56416 0.0
C1988 C 0.52619 0.14096 0.57654 0.0
H1989 H 0.54202 0.24756 0.60367 0.0
H1990 H 0.54375 0.21456 0.58806 0.0
H1991 H 0.49886 0.16593 0.60488 0.0
H1992 H 0.54878 0.08351 0.55436 0.0
H1993 H 0.55261 0.11599 0.57326 0.0
C1994 C 0.54635 0.78526 0.32425 0.0
C1995 C 0.54075 0.77323 0.3389 0.0
C1996 C 0.56367 0.78448 0.31567 0.0
C1997 C 0.5981 0.75111 0.30588 0.0
H1998 H 0.6319 0.79972 0.29449 0.0
C1999 C 0.6738 0.75114 0.2777 0.0
C2000 C 0.6807 0.76534 0.26525 0.0
C2001 C 0.65613 0.75134 0.2858 0.0
C2002 C 0.62247 0.78596 0.29725 0.0
H2003 H 0.54922 0.75118 0.35625 0.0
H2004 H 0.57954 0.74979 0.34115 0.0
H2005 H 0.60296 0.80215 0.31137 0.0
H2006 H 0.6742 0.79023 0.25072 0.0
H2007 H 0.643 0.79024 0.26439 0.0
H2008 H 0.61742 0.73488 0.29155 0.0
C2009 C 0.5704 0.75977 0.33631 0.0
C2010 C 0.60595 0.78739 0.30705 0.0
C2011 C 0.55313 0.7607 0.34506 0.0
C2012 C 0.66921 0.77914 0.26032 0.0
C2013 C 0.65145 0.77927 0.26832 0.0
C2014 C 0.61456 0.74967 0.29595 0.0
C2015 C 0.57575 0.77153 0.32141 0.0
C2016 C 0.59359 0.76999 0.31149 0.0
C2017 C 0.6449 0.76568 0.28153 0.0
C2018 C 0.62698 0.76709 0.29152 0.0
H2019 H 0.5372 0.79511 0.31916 0.0
H2020 H 0.56732 0.79361 0.30414 0.0
H2021 H 0.58868 0.73743 0.30885 0.0
H2022 H 0.68242 0.74037 0.28181 0.0
H2023 H 0.65169 0.74078 0.29602 0.0
C2024 C 0.0147 0.20708 0.41117 0.0
C2025 C 0.02621 0.22519 0.4193 0.0
C2026 C 0.01354 0.18953 0.42032 0.0
C2027 C 0.0385 0.16588 0.45663 0.0
H2028 H 0.98797 0.13261 0.45917 0.0
C2029 C 0.02691 0.09747 0.50081 0.0
C2030 C 0.01471 0.07997 0.49222 0.0
C2031 C 0.02797 0.11576 0.49287 0.0
C2032 C 0.00223 0.14162 0.45846 0.0
H2033 H 0.04586 0.23898 0.44319 0.0
H2034 H 0.04387 0.20839 0.45908 0.0
H2035 H 0.99105 0.16286 0.44268 0.0
H2036 H 0.99371 0.0682 0.46872 0.0
H2037 H 0.99575 0.09979 0.4549 0.0
H2038 H 0.04973 0.14451 0.47222 0.0
C2039 C 0.0358 0.20771 0.44562 0.0
C2040 C 0.00398 0.15895 0.44897 0.0
C2041 C 0.03687 0.22526 0.43653 0.0
C2042 C 0.00327 0.08133 0.47579 0.0
C2043 C 0.00434 0.09954 0.46788 0.0
C2044 C 0.03676 0.14848 0.46607 0.0
C2045 C 0.02395 0.18969 0.43774 0.0
C2046 C 0.02215 0.17124 0.44785 0.0
C2047 C 0.01684 0.11696 0.47618 0.0
C2048 C 0.01861 0.13605 0.46701 0.0
H2049 H 0.00632 0.20653 0.3979 0.0
H2050 H 0.00449 0.17582 0.41375 0.0
H2051 H 0.05274 0.17492 0.45588 0.0
H2052 H 0.03596 0.09698 0.51344 0.0
H2053 H 0.03758 0.12895 0.49977 0.0
C2054 C 0.56885 0.27671 0.13143 0.0
C2055 C 0.55519 0.28246 0.14361 0.0
C2056 C 0.58714 0.27471 0.13867 0.0
C2057 C 0.60953 0.26154 0.18161 0.0
H2058 H 0.65883 0.28272 0.16209 0.0
C2059 C 0.6808 0.26272 0.22359 0.0
C2060 C 0.69736 0.26014 0.21415 0.0
C2061 C 0.66375 0.26399 0.21347 0.0
C2062 C 0.64515 0.27637 0.16747 0.0
H2063 H 0.55036 0.29166 0.17275 0.0
H2064 H 0.58219 0.28799 0.18536 0.0
H2065 H 0.6289 0.28948 0.14725 0.0
H2066 H 0.70903 0.25634 0.18666 0.0
H2067 H 0.67883 0.25814 0.16872 0.0
H2068 H 0.62544 0.24814 0.20158 0.0
C2069 C 0.5787 0.28495 0.17024 0.0
C2070 C 0.62806 0.28038 0.15906 0.0
C2071 C 0.56054 0.2872 0.163 0.0
C2072 C 0.6964 0.25826 0.19426 0.0
C2073 C 0.67919 0.25948 0.18404 0.0
C2074 C 0.6265 0.25732 0.18983 0.0
C2075 C 0.59197 0.27817 0.15823 0.0
C2076 C 0.61015 0.27336 0.16635 0.0
C2077 C 0.6627 0.26256 0.19358 0.0
C2078 C 0.64459 0.26507 0.18319 0.0
H2079 H 0.56516 0.27298 0.11641 0.0
H2080 H 0.59711 0.26946 0.12911 0.0
H2081 H 0.59586 0.25552 0.1872 0.0
H2082 H 0.68112 0.26435 0.23892 0.0
H2083 H 0.65155 0.26676 0.22136 0.0
C2084 C 0.54194 0.84281 0.92841 0.0
C2085 C 0.54235 0.84181 0.90859 0.0
C2086 C 0.54639 0.8613 0.93944 0.0
C2087 C 0.56012 0.90176 0.96163 0.0
H2088 H 0.53807 0.94357 0.94004 0.0
C2089 C 0.54905 0.97457 0.00645 0.0
C2090 C 0.53058 0.97904 0.0031 0.0
C2091 C 0.55553 0.96009 0.99425 0.0
C2092 C 0.54438 0.93209 0.94629 0.0
H2093 H 0.54915 0.85936 0.88492 0.0
H2094 H 0.55759 0.89157 0.90419 0.0
H2095 H 0.54058 0.91345 0.92016 0.0
H2096 H 0.50427 0.97162 0.98477 0.0
H2097 H 0.51538 0.94675 0.96384 0.0
H2098 H 0.56239 0.91995 0.98817 0.0
C2099 C 0.55319 0.87812 0.91121 0.0
C2100 C 0.54608 0.91485 0.93479 0.0
C2101 C 0.54843 0.85963 0.90014 0.0
C2102 C 0.51874 0.96883 0.98753 0.0
C2103 C 0.52517 0.95458 0.97542 0.0
C2104 C 0.55819 0.91897 0.97321 0.0
C2105 C 0.55164 0.87929 0.93096 0.0
C2106 C 0.55331 0.89909 0.94243 0.0
C2107 C 0.54364 0.95002 0.97854 0.0
C2108 C 0.54956 0.93394 0.96581 0.0
H2109 H 0.53727 0.8294 0.93542 0.0
H2110 H 0.5447 0.86149 0.95452 0.0
H2111 H 0.56623 0.89019 0.96792 0.0
H2112 H 0.55841 0.98221 0.01841 0.0
H2113 H 0.56982 0.95684 0.99704 0.0
C2114 C 0.96029 0.7962 0.68707 0.0
C2115 C 0.95932 0.78759 0.6682 0.0
C2116 C 0.94344 0.79711 0.69648 0.0
C2117 C 0.89136 0.79633 0.68865 0.0
H2118 H 0.88855 0.78038 0.73971 0.0
C2119 C 0.82675 0.80522 0.73377 0.0
C2120 C 0.81861 0.78812 0.74244 0.0
C2121 C 0.84464 0.80634 0.72577 0.0
C2122 C 0.88913 0.78487 0.72546 0.0
H2123 H 0.93972 0.77343 0.64438 0.0
H2124 H 0.91028 0.77518 0.66083 0.0
H2125 H 0.91806 0.77972 0.72305 0.0
H2126 H 0.82335 0.75915 0.75023 0.0
H2127 H 0.85462 0.76122 0.73645 0.0
H2128 H 0.86235 0.80127 0.69098 0.0
C2129 C 0.92415 0.78125 0.66829 0.0
C2130 C 0.90606 0.78464 0.71597 0.0
C2131 C 0.94103 0.78016 0.6589 0.0
C2132 C 0.82917 0.77254 0.74365 0.0
C2133 C 0.84714 0.77374 0.7358 0.0
C2134 C 0.8745 0.79675 0.69821 0.0
C2135 C 0.92519 0.7896 0.68723 0.0
C2136 C 0.90732 0.79024 0.69742 0.0
C2137 C 0.85488 0.79047 0.72643 0.0
C2138 C 0.87315 0.79091 0.71667 0.0
H2139 H 0.9741 0.80204 0.69473 0.0
H2140 H 0.94471 0.80382 0.71101 0.0
H2141 H 0.89195 0.80088 0.67442 0.0
H2142 H 0.81901 0.81748 0.73255 0.0
H2143 H 0.85037 0.81952 0.71884 0.0
C2144 C 0.12332 0.01163 0.85494 0.0
C2145 C 0.11677 0.00439 0.83617 0.0
C2146 C 0.11075 0.00979 0.8696 0.0
C2147 C 0.05821 0.00064 0.87858 0.0
H2148 H 0.07846 0.99803 0.92982 0.0
C2149 C 0.0122 0.99431 0.94548 0.0
C2150 C 0.01879 0.01019 0.95966 0.0
C2151 C 0.02328 0.99124 0.92992 0.0
C2152 C 0.0726 0.99866 0.91555 0.0
H2153 H 0.09182 0.98887 0.81829 0.0
H2154 H 0.07003 0.98487 0.84399 0.0
H2155 H 0.09936 0.99588 0.90361 0.0
H2156 H 0.04178 0.03569 0.96828 0.0
H2157 H 0.06148 0.02966 0.94179 0.0
H2158 H 0.03127 0.00298 0.89082 0.0
C2159 C 0.0848 0.99259 0.84732 0.0
C2160 C 0.08461 0.99763 0.9005 0.0
C2161 C 0.09736 0.99474 0.83255 0.0
C2162 C 0.03655 0.02297 0.95791 0.0
C2163 C 0.04779 0.01961 0.94268 0.0
C2164 C 0.04608 0.00124 0.89365 0.0
C2165 C 0.09126 0.00029 0.86606 0.0
C2166 C 0.07778 -0.00084 0.88182 0.0
C2167 C 0.04127 0.00377 0.92852 0.0
C2168 C 0.05331 0.00072 0.91231 0.0
H2169 H 0.13812 0.01927 0.85833 0.0
H2170 H 0.11631 0.01638 0.88365 0.0
H2171 H 0.05237 0.00211 0.86453 0.0
H2172 H 0.99848 0.98433 0.94638 0.0
H2173 H 0.01793 0.97895 0.91912 0.0
C2174 C 0.72916 0.36891 0.56542 0.0
C2175 C 0.72122 0.35828 0.54816 0.0
C2176 C 0.72742 0.35969 0.58223 0.0
C2177 C 0.71527 0.33862 0.61706 0.0
H2178 H 0.72931 0.28586 0.61381 0.0
C2179 C 0.72026 0.29535 0.68267 0.0
C2180 C 0.73749 0.28795 0.68499 0.0
C2181 C 0.71521 0.3021 0.66548 0.0
C2182 C 0.72531 0.30055 0.61491 0.0
H2183 H 0.70432 0.33006 0.53507 0.0
H2184 H 0.7013 0.31402 0.56443 0.0
H2185 H 0.72549 0.30216 0.58499 0.0
H2186 H 0.76257 0.28103 0.67115 0.0
H2187 H 0.75376 0.29282 0.64103 0.0
H2188 H 0.71577 0.3373 0.64706 0.0
C2189 C 0.70903 0.32938 0.56492 0.0
C2190 C 0.72293 0.30979 0.59842 0.0
C2191 C 0.71069 0.33862 0.54814 0.0
C2192 C 0.7492 0.28666 0.66967 0.0
C2193 C 0.7441 0.29332 0.65244 0.0
C2194 C 0.71754 0.32931 0.63355 0.0
C2195 C 0.71778 0.33966 0.58205 0.0
C2196 C 0.71822 0.32908 0.59936 0.0
C2197 C 0.72725 0.30145 0.65029 0.0
C2198 C 0.72293 0.31035 0.63266 0.0
H2199 H 0.73734 0.38408 0.56587 0.0
H2200 H 0.73443 0.36794 0.5952 0.0
H2201 H 0.71152 0.35342 0.61817 0.0
H2202 H 0.71093 0.29642 0.69428 0.0
H2203 H 0.70203 0.30808 0.66414 0.0
C2204 C 0.40392 0.04552 0.35795 0.0
C2205 C 0.41119 0.05158 0.34088 0.0
C2206 C 0.41503 0.05114 0.375 0.0
C2207 C 0.46634 0.06525 0.39169 0.0
H2208 H 0.44428 0.0663 0.4407 0.0
C2209 C 0.51002 0.06158 0.46241 0.0
C2210 C 0.50162 0.04481 0.47136 0.0
C2211 C 0.49968 0.06817 0.44765 0.0
C2212 C 0.45066 0.06632 0.42711 0.0
H2213 H 0.43503 0.06993 0.32856 0.0
H2214 H 0.45413 0.08028 0.35838 0.0
H2215 H 0.42419 0.06886 0.41243 0.0
H2216 H 0.47633 0.02132 0.47149 0.0
H2217 H 0.45805 0.03331 0.44647 0.0
H2218 H 0.4927 0.06228 0.40648 0.0
C2219 C 0.44016 0.07055 0.35852 0.0
C2220 C 0.43916 0.06762 0.4109 0.0
C2221 C 0.42916 0.06468 0.34143 0.0
C2222 C 0.48286 0.03474 0.46534 0.0
C2223 C 0.47243 0.04154 0.45097 0.0
C2224 C 0.47791 0.06427 0.40794 0.0
C2225 C 0.43356 0.06324 0.37542 0.0
C2226 C 0.44662 0.06621 0.3929 0.0
C2227 C 0.48074 0.05825 0.44195 0.0
C2228 C 0.46994 0.06397 0.42566 0.0
H2229 H 0.39009 0.03551 0.35807 0.0
H2230 H 0.4095 0.045 0.38764 0.0
H2231 H 0.4726 0.0639 0.3781 0.0
H2232 H 0.52454 0.0695 0.46675 0.0
H2233 H 0.50642 0.08097 0.4407 0.0
C2234 C 0.77914 0.71012 0.05121 0.0
C2235 C 0.7763 0.68917 0.04692 0.0
C2236 C 0.77867 0.71847 0.0699 0.0
C2237 C 0.78329 0.70778 0.11976 0.0
H2238 H 0.75137 0.74808 0.12911 0.0
C2239 C 0.78184 0.75054 0.1934 0.0
C2240 C 0.76361 0.75249 0.19983 0.0
C2241 C 0.78372 0.74327 0.1747 0.0
C2242 C 0.76027 0.73678 0.12672 0.0
H2243 H 0.77148 0.66058 0.05895 0.0
H2244 H 0.77097 0.67513 0.09152 0.0
H2245 H 0.75499 0.73477 0.09657 0.0
H2246 H 0.73307 0.7485 0.19144 0.0
H2247 H 0.73642 0.73588 0.15861 0.0
H2248 H 0.78848 0.70966 0.14986 0.0
C2249 C 0.77349 0.68512 0.08047 0.0
C2250 C 0.76252 0.72933 0.10809 0.0
C2251 C 0.77373 0.67679 0.06179 0.0
C2252 C 0.74731 0.74716 0.18699 0.0
C2253 C 0.74924 0.74004 0.16816 0.0
C2254 C 0.78121 0.71538 0.13835 0.0
C2255 C 0.77561 0.70603 0.0847 0.0
C2256 C 0.77397 0.71466 0.10442 0.0
C2257 C 0.76747 0.7379 0.16186 0.0
C2258 C 0.76961 0.7299 0.14205 0.0
H2259 H 0.78107 0.72005 0.04005 0.0
H2260 H 0.78055 0.73465 0.07277 0.0
H2261 H 0.79227 0.69656 0.11738 0.0
H2262 H 0.79475 0.7545 0.20285 0.0
H2263 H 0.79799 0.74202 0.17023 0.0
C2264 C 0.0956 0.00039 0.72217 0.0
C2265 C 0.11566 0.00433 0.72653 0.0
C2266 C 0.08811 0.00325 0.70423 0.0
C2267 C 0.10177 0.03134 0.66281 0.0
H2268 H 0.0544 0.99863 0.63926 0.0
C2269 C 0.07139 0.03864 0.58662 0.0
C2270 C 0.0513 0.03735 0.58413 0.0
C2271 C 0.07977 0.0351 0.60399 0.0
C2272 C 0.06756 0.00802 0.64575 0.0
H2273 H 0.14362 0.01327 0.71515 0.0
H2274 H 0.13062 0.01761 0.68374 0.0
H2275 H 0.06805 0.98993 0.66887 0.0
H2276 H 0.02431 0.03208 0.59797 0.0
H2277 H 0.03889 0.02599 0.6282 0.0
H2278 H 0.10131 0.04928 0.6395 0.0
C2279 C 0.1206 0.01291 0.69431 0.0
C2280 C 0.07539 0.00304 0.66275 0.0
C2281 C 0.12807 0.01021 0.71228 0.0
C2282 C 0.03984 0.03317 0.59948 0.0
C2283 C 0.04817 0.0295 0.61674 0.0
C2284 C 0.09401 0.03622 0.64573 0.0
C2285 C 0.10051 0.00996 0.69017 0.0
C2286 C 0.09255 0.01471 0.6716 0.0
C2287 C 0.06818 0.03004 0.6191 0.0
C2288 C 0.07672 0.02472 0.63708 0.0
H2289 H 0.08564 0.99598 0.73288 0.0
H2290 H 0.07256 0.00099 0.70167 0.0
H2291 H 0.1148 0.04093 0.66934 0.0
H2292 H 0.08055 0.04173 0.57499 0.0
H2293 H 0.09522 0.03557 0.60535 0.0
C2294 C 0.73129 0.36576 0.42296 0.0
C2295 C 0.72763 0.35906 0.44083 0.0
C2296 C 0.72876 0.3521 0.40676 0.0
C2297 C 0.73061 0.29966 0.39246 0.0
H2298 H 0.71434 0.31362 0.34329 0.0
C2299 C 0.73093 0.25958 0.31339 0.0
C2300 C 0.74632 0.27132 0.3052 0.0
C2301 C 0.72532 0.266 0.33127 0.0
C2302 C 0.71853 0.30935 0.35699 0.0
H2303 H 0.71749 0.33275 0.45548 0.0
H2304 H 0.71311 0.30899 0.42715 0.0
H2305 H 0.70893 0.33411 0.37191 0.0
H2306 H 0.76851 0.29828 0.30961 0.0
H2307 H 0.7589 0.30915 0.34069 0.0
H2308 H 0.74111 0.27546 0.37722 0.0
C2309 C 0.71811 0.3248 0.42576 0.0
C2310 C 0.71563 0.32114 0.37332 0.0
C2311 C 0.72056 0.33847 0.44197 0.0
C2312 C 0.75672 0.28881 0.3156 0.0
C2313 C 0.75119 0.29512 0.33332 0.0
C2314 C 0.73351 0.28784 0.37606 0.0
C2315 C 0.72254 0.33143 0.40805 0.0
C2316 C 0.72228 0.31685 0.39117 0.0
C2317 C 0.73515 0.28411 0.34101 0.0
C2318 C 0.72799 0.29302 0.35825 0.0
H2319 H 0.73675 0.38147 0.42152 0.0
H2320 H 0.73254 0.35767 0.39334 0.0
H2321 H 0.73605 0.29608 0.406 0.0
H2322 H 0.72261 0.24612 0.30559 0.0
H2323 H 0.71285 0.25739 0.33706 0.0
C2324 C 0.42467 0.02525 0.2197 0.0
C2325 C 0.42938 0.04064 0.23462 0.0
C2326 C 0.43549 0.02553 0.20376 0.0
C2327 C 0.46338 0.05616 0.17329 0.0
H2328 H 0.48743 0.01002 0.16097 0.0
C2329 C 0.50204 0.04748 0.10402 0.0
C2330 C 0.49853 0.02808 0.09444 0.0
C2331 C 0.49689 0.05051 0.12268 0.0
C2332 C 0.48069 0.02294 0.16408 0.0
H2333 H 0.44866 0.06871 0.24436 0.0
H2334 H 0.46725 0.06951 0.21589 0.0
H2335 H 0.47121 0.01285 0.19042 0.0
H2336 H 0.48729 0.99662 0.09675 0.0
H2337 H 0.47766 0.00185 0.12894 0.0
H2338 H 0.47165 0.06569 0.14649 0.0
C2339 C 0.45535 0.05715 0.21684 0.0
C2340 C 0.47156 0.0246 0.181 0.0
C2341 C 0.44475 0.05667 0.23305 0.0
C2342 C 0.49026 0.01171 0.10389 0.0
C2343 C 0.48487 0.01474 0.12243 0.0
C2344 C 0.47222 0.05433 0.15615 0.0
C2345 C 0.45097 0.04137 0.20228 0.0
C2346 C 0.46254 0.04101 0.18554 0.0
C2347 C 0.4879 0.03421 0.132 0.0
C2348 C 0.48062 0.03745 0.15115 0.0
H2349 H 0.41297 0.01266 0.22055 0.0
H2350 H 0.4318 0.01331 0.19257 0.0
H2351 H 0.45639 0.06888 0.17654 0.0
H2352 H 0.50847 0.06035 0.09699 0.0
H2353 H 0.49974 0.06565 0.1297 0.0
C2354 C 0.77745 0.70146 0.93902 0.0
C2355 C 0.76869 0.68099 0.93648 0.0
C2356 C 0.77885 0.71311 0.92361 0.0
C2357 C 0.75496 0.71577 0.87735 0.0
H2358 H 0.80312 0.7484 0.86533 0.0
C2359 C 0.76119 0.74951 0.80629 0.0
C2360 C 0.77225 0.76879 0.80571 0.0
C2361 C 0.76179 0.73946 0.82254 0.0
C2362 C 0.78948 0.73962 0.86862 0.0
H2363 H 0.75468 0.65678 0.9156 0.0
H2364 H 0.75683 0.67712 0.88906 0.0
H2365 H 0.80212 0.73019 0.89361 0.0
H2366 H 0.7928 0.79267 0.82171 0.0
H2367 H 0.79346 0.77539 0.85046 0.0
H2368 H 0.74209 0.72531 0.85282 0.0
C2369 C 0.76264 0.68414 0.90293 0.0
C2370 C 0.78894 0.72916 0.88481 0.0
C2371 C 0.7615 0.67247 0.91818 0.0
C2372 C 0.78418 0.77776 0.82172 0.0
C2373 C 0.78461 0.76779 0.83816 0.0
C2374 C 0.75541 0.72637 0.86138 0.0
C2375 C 0.77122 0.70459 0.90546 0.0
C2376 C 0.77173 0.71687 0.88914 0.0
C2377 C 0.77321 0.74858 0.83886 0.0
C2378 C 0.77274 0.73817 0.85655 0.0
H2379 H 0.78321 0.7085 0.95289 0.0
H2380 H 0.7855 0.72887 0.92596 0.0
H2381 H 0.7414 0.70669 0.88053 0.0
H2382 H 0.7517 0.74227 0.79428 0.0
H2383 H 0.75316 0.72453 0.8223 0.0
C2384 C 0.81594 0.11768 0.02022 0.0
C2385 C 0.80066 0.11209 0.00624 0.0
C2386 C 0.83102 0.10688 0.02087 0.0
C2387 C 0.85567 0.07347 0.99143 0.0
H2388 H 0.87398 0.05865 0.03953 0.0
C2389 C 0.91597 0.02679 0.99579 0.0
C2390 C 0.9306 0.03417 0.01005 0.0
C2391 C 0.89853 0.03388 0.99589 0.0
C2392 C 0.8691 0.06277 0.026 0.0
H2393 H 0.78943 0.09089 0.98182 0.0
H2394 H 0.81572 0.07224 0.98297 0.0
H2395 H 0.84725 0.07695 0.0384 0.0
H2396 H 0.9383 0.05389 0.03603 0.0
H2397 H 0.90815 0.06641 0.03609 0.0
H2398 H 0.87778 0.05979 0.97905 0.0
C2399 C 0.81605 0.08497 0.99339 0.0
C2400 C 0.85383 0.07327 0.02537 0.0
C2401 C 0.80094 0.09564 0.99281 0.0
C2402 C 0.92724 0.04798 0.02484 0.0
C2403 C 0.90989 0.05506 0.02493 0.0
C2404 C 0.87101 0.06307 0.99206 0.0
C2405 C 0.83118 0.0904 0.00747 0.0
C2406 C 0.84709 0.07888 0.00811 0.0
C2407 C 0.89548 0.04843 0.01026 0.0
C2408 C 0.87803 0.05778 0.00938 0.0
H2409 H 0.81616 0.13024 0.0308 0.0
H2410 H 0.84264 0.11152 0.03176 0.0
H2411 H 0.85088 0.07776 0.97794 0.0
H2412 H 0.91824 0.01609 0.98426 0.0
H2413 H 0.88758 0.02827 0.98453 0.0
C2414 C 0.31764 0.43447 0.04403 0.0
C2415 C 0.31255 0.41698 0.0315 0.0
C2416 C 0.33657 0.44531 0.04556 0.0
C2417 C 0.38675 0.44313 0.03086 0.0
H2418 H 0.39194 0.50115 0.03673 0.0
C2419 C 0.4567 0.49519 0.01423 0.0
C2420 C 0.46313 0.51266 0.02661 0.0
C2421 C 0.43838 0.48359 0.01556 0.0
C2422 C 0.39083 0.48498 0.03527 0.0
H2423 H 0.32318 0.39611 0.01177 0.0
H2424 H 0.35602 0.41555 0.01339 0.0
H2425 H 0.36077 0.48028 0.03965 0.0
H2426 H 0.45535 0.53206 0.04972 0.0
H2427 H 0.42343 0.51172 0.05223 0.0
H2428 H 0.4171 0.44804 0.02689 0.0
C2429 C 0.34569 0.42087 0.02243 0.0
C2430 C 0.37282 0.4729 0.03685 0.0
C2431 C 0.32683 0.40978 0.0213 0.0
C2432 C 0.45071 0.51869 0.03995 0.0
C2433 C 0.43241 0.50704 0.04135 0.0
C2434 C 0.40481 0.45523 0.02941 0.0
C2435 C 0.35077 0.43901 0.03435 0.0
C2436 C 0.37039 0.45179 0.03428 0.0
C2437 C 0.42613 0.48919 0.02935 0.0
C2438 C 0.40702 0.47631 0.03134 0.0
H2439 H 0.30688 0.43988 0.0525 0.0
H2440 H 0.33993 0.45877 0.05536 0.0
H2441 H 0.38569 0.42698 0.0294 0.0
H2442 H 0.46598 0.49023 0.00376 0.0
H2443 H 0.43386 0.47018 0.00583 0.0
C2444 C 0.36216 0.59377 0.74921 0.0
C2445 C 0.34975 0.57499 0.74857 0.0
C2446 C 0.35458 0.61152 0.74992 0.0
C2447 C 0.31122 0.63127 0.73755 0.0
H2448 H 0.32901 0.67326 0.77836 0.0
C2449 C 0.27225 0.69866 0.75051 0.0
C2450 C 0.2836 0.71749 0.75682 0.0
C2451 C 0.28033 0.68125 0.74982 0.0
C2452 C 0.32405 0.66189 0.76666 0.0
H2453 H 0.31965 0.56013 0.74768 0.0
H2454 H 0.30659 0.59093 0.7484 0.0
H2455 H 0.34402 0.64361 0.77541 0.0
H2456 H 0.31243 0.73277 0.76729 0.0
H2457 H 0.32657 0.70282 0.76543 0.0
H2458 H 0.29163 0.64957 0.72838 0.0
C2459 C 0.32212 0.59196 0.74855 0.0
C2460 C 0.33267 0.64487 0.76504 0.0
C2461 C 0.32966 0.57433 0.74824 0.0
C2462 C 0.30315 0.71849 0.76255 0.0
C2463 C 0.31129 0.7012 0.76157 0.0
C2464 C 0.30283 0.64843 0.73896 0.0
C2465 C 0.33448 0.61073 0.74955 0.0
C2466 C 0.32623 0.62934 0.75056 0.0
C2467 C 0.30005 0.68231 0.75512 0.0
C2468 C 0.30901 0.66395 0.75362 0.0
H2469 H 0.37769 0.59478 0.74953 0.0
H2470 H 0.36441 0.62585 0.75063 0.0
H2471 H 0.30608 0.61954 0.72618 0.0
H2472 H 0.25713 0.69736 0.74607 0.0
H2473 H 0.27107 0.66697 0.74514 0.0
C2474 C 0.20414 0.62089 0.53301 0.0
C2475 C 0.21014 0.63682 0.52213 0.0
C2476 C 0.18457 0.6146 0.53559 0.0
C2477 C 0.14251 0.60604 0.54351 0.0
H2478 H 0.10892 0.60491 0.4985 0.0
C2479 C 0.06178 0.56892 0.53947 0.0
C2480 C 0.05438 0.5575 0.52238 0.0
C2481 C 0.08009 0.58114 0.54073 0.0
C2482 C 0.11813 0.60501 0.51116 0.0
H2483 H 0.20112 0.6604 0.50743 0.0
H2484 H 0.16668 0.64958 0.51202 0.0
H2485 H 0.14221 0.62256 0.49954 0.0
H2486 H 0.06047 0.54979 0.49326 0.0
H2487 H 0.09259 0.57063 0.4956 0.0
H2488 H 0.11865 0.5876 0.55472 0.0
C2489 C 0.17695 0.64137 0.51793 0.0
C2490 C 0.13718 0.61541 0.51188 0.0
C2491 C 0.1966 0.64764 0.51535 0.0
C2492 C 0.0657 0.5585 0.5066 0.0
C2493 C 0.08407 0.57058 0.50791 0.0
C2494 C 0.12348 0.59553 0.54273 0.0
C2495 C 0.17065 0.62436 0.52758 0.0
C2496 C 0.14974 0.61568 0.5279 0.0
C2497 C 0.09147 0.58208 0.52498 0.0
C2498 C 0.11119 0.59457 0.5264 0.0
H2499 H 0.21455 0.61287 0.53899 0.0
H2500 H 0.18037 0.6014 0.543 0.0
H2501 H 0.15165 0.60624 0.55622 0.0
H2502 H 0.05335 0.56863 0.55186 0.0
H2503 H 0.08524 0.58999 0.55402 0.0
C2504 C 0.63994 0.95325 0.75665 0.0
C2505 C 0.64214 0.96854 0.77169 0.0
C2506 C 0.65174 0.93881 0.75635 0.0
C2507 C 0.68491 0.91568 0.78492 0.0
H2508 H 0.71074 0.91071 0.73813 0.0
C2509 C 0.74533 0.86916 0.77745 0.0
C2510 C 0.74356 0.85612 0.76075 0.0
C2511 C 0.73436 0.88438 0.77911 0.0
C2512 C 0.70356 0.91179 0.75124 0.0
H2513 H 0.65724 0.97965 0.79897 0.0
H2514 H 0.67761 0.95426 0.7985 0.0
H2515 H 0.68657 0.93208 0.74092 0.0
H2516 H 0.72995 0.84931 0.73235 0.0
H2517 H 0.71077 0.87555 0.73525 0.0
H2518 H 0.70161 0.89507 0.79514 0.0
C2519 C 0.66693 0.95359 0.78688 0.0
C2520 C 0.68967 0.92397 0.7528 0.0
C2521 C 0.65529 0.96815 0.7871 0.0
C2522 C 0.73158 0.8592 0.74539 0.0
C2523 C 0.72064 0.87431 0.74704 0.0
C2524 C 0.6987 0.90333 0.78331 0.0
C2525 C 0.66575 0.93925 0.77119 0.0
C2526 C 0.68011 0.92591 0.76959 0.0
C2527 C 0.72151 0.88675 0.76408 0.0
C2528 C 0.70808 0.90114 0.76638 0.0
H2529 H 0.62996 0.95313 0.74456 0.0
H2530 H 0.65036 0.92769 0.74422 0.0
H2531 H 0.67773 0.91693 0.79802 0.0
H2532 H 0.75448 0.86704 0.78949 0.0
H2533 H 0.73559 0.89395 0.7923 0.0
C2534 C 0.6978 0.91818 0.52853 0.0
C2535 C 0.7111 0.92499 0.5153 0.0
C2536 C 0.68036 0.92531 0.52957 0.0
C2537 C 0.64776 0.95134 0.50242 0.0
H2538 H 0.63343 0.97084 0.55174 0.0
C2539 C 0.59523 0.00649 0.51032 0.0
C2540 C 0.58051 0.00203 0.52276 0.0
C2541 C 0.61065 0.99614 0.51016 0.0
C2542 C 0.63716 0.96529 0.53789 0.0
H2543 H 0.71612 0.94394 0.49227 0.0
H2544 H 0.68612 0.95627 0.49416 0.0
H2545 H 0.6603 0.95264 0.54952 0.0
H2546 H 0.57065 0.98395 0.54532 0.0
H2547 H 0.59768 0.96597 0.54514 0.0
H2548 H 0.62496 0.96433 0.49075 0.0
C2549 C 0.68896 0.94541 0.50369 0.0
C2550 C 0.65246 0.95477 0.53662 0.0
C2551 C 0.70629 0.93844 0.50273 0.0
C2552 C 0.58184 0.98765 0.53556 0.0
C2553 C 0.59732 0.9774 0.5355 0.0
C2554 C 0.63258 0.96191 0.50368 0.0
C2555 C 0.67587 0.93917 0.51725 0.0
C2556 C 0.65816 0.94802 0.51884 0.0
C2557 C 0.61168 0.98124 0.52253 0.0
C2558 C 0.62733 0.96931 0.5214 0.0
H2559 H 0.70112 0.90786 0.53843 0.0
H2560 H 0.67048 0.92012 0.54009 0.0
H2561 H 0.65155 0.946 0.48852 0.0
H2562 H 0.59453 0.01752 0.50033 0.0
H2563 H 0.62169 -0.00036 0.50021 0.0
C2564 C 0.34981 0.46775 0.72087 0.0
C2565 C 0.367 0.47449 0.73206 0.0
C2566 C 0.34121 0.44743 0.71902 0.0
C2567 C 0.32361 0.40354 0.71606 0.0
H2568 H 0.33472 0.37591 0.75942 0.0
C2569 C 0.27642 0.32733 0.72869 0.0
C2570 C 0.27433 0.32301 0.74749 0.0
C2571 C 0.28988 0.34395 0.72452 0.0
C2572 C 0.33108 0.38346 0.74735 0.0
H2573 H 0.39066 0.46529 0.74724 0.0
H2574 H 0.37636 0.42965 0.74332 0.0
H2575 H 0.35411 0.40794 0.75552 0.0
H2576 H 0.28416 0.33255 0.77671 0.0
H2577 H 0.30628 0.36236 0.76982 0.0
H2578 H 0.2992 0.38001 0.70913 0.0
C2579 C 0.36847 0.43999 0.73717 0.0
C2580 C 0.34271 0.40182 0.74476 0.0
C2581 C 0.37686 0.46042 0.73929 0.0
C2582 C 0.28564 0.33559 0.76207 0.0
C2583 C 0.29856 0.35256 0.75801 0.0
C2584 C 0.31151 0.38552 0.71906 0.0
C2585 C 0.34995 0.43329 0.72792 0.0
C2586 C 0.33901 0.41241 0.72924 0.0
C2587 C 0.30106 0.35698 0.73915 0.0
C2588 C 0.31484 0.37535 0.73497 0.0
H2589 H 0.34253 0.47835 0.71427 0.0
H2590 H 0.32711 0.4433 0.71162 0.0
H2591 H 0.32045 0.41063 0.70355 0.0
H2592 H 0.26799 0.31758 0.71721 0.0
H2593 H 0.29156 0.34639 0.7098 0.0
C2594 C 0.11236 0.58028 0.24302 0.0
C2595 C 0.12262 0.56463 0.2397 0.0
C2596 C 0.12022 0.59963 0.23863 0.0
C2597 C 0.14789 0.6394 0.24424 0.0
H2598 H 0.18509 0.64977 0.20605 0.0
C2599 C 0.214 0.70202 0.25698 0.0
C2600 C 0.21976 0.71391 0.2423 0.0
C2601 C 0.19944 0.68505 0.25358 0.0
C2602 C 0.17457 0.64722 0.21664 0.0
H2603 H 0.14755 0.55587 0.22705 0.0
H2604 H 0.16168 0.5895 0.22003 0.0
H2605 H 0.16242 0.61781 0.2035 0.0
H2606 H 0.21497 0.71698 0.21237 0.0
H2607 H 0.18949 0.68708 0.20644 0.0
H2608 H 0.16025 0.66866 0.25752 0.0
C2609 C 0.14766 0.58724 0.22598 0.0
C2610 C 0.16168 0.62884 0.21529 0.0
C2611 C 0.13979 0.568 0.23034 0.0
C2612 C 0.21091 0.70812 0.22399 0.0
C2613 C 0.19632 0.69104 0.22058 0.0
C2614 C 0.16075 0.65772 0.24558 0.0
C2615 C 0.13834 0.60347 0.23067 0.0
C2616 C 0.14876 0.62437 0.22954 0.0
C2617 C 0.19026 0.67952 0.23543 0.0
C2618 C 0.17471 0.66149 0.23221 0.0
H2619 H 0.09875 0.57773 0.24972 0.0
H2620 H 0.11242 0.61168 0.24203 0.0
H2621 H 0.13815 0.63663 0.25545 0.0
H2622 H 0.22054 0.7059 0.27124 0.0
H2623 H 0.19543 0.67617 0.26521 0.0
C2624 C 0.51432 0.72128 0.41873 0.0
C2625 C 0.50539 0.71719 0.40034 0.0
C2626 C 0.5173 0.70564 0.42931 0.0
C2627 C 0.52968 0.67015 0.44618 0.0
H2628 H 0.48778 0.62421 0.44419 0.0
C2629 C 0.53423 0.59916 0.48489 0.0
C2630 C 0.51724 0.58963 0.49242 0.0
C2631 C 0.53391 0.61537 0.47409 0.0
C2632 C 0.49956 0.63701 0.44505 0.0
H2633 H 0.49318 0.69348 0.37838 0.0
H2634 H 0.49864 0.66608 0.39679 0.0
H2635 H 0.4855 0.65073 0.42385 0.0
H2636 H 0.4869 0.59049 0.49554 0.0
H2637 H 0.48647 0.61894 0.47717 0.0
H2638 H 0.54345 0.65665 0.46784 0.0
C2639 C 0.50304 0.68142 0.40314 0.0
C2640 C 0.49838 0.65208 0.43315 0.0
C2641 C 0.50001 0.69711 0.39254 0.0
C2642 C 0.5002 0.59733 0.48977 0.0
C2643 C 0.49991 0.61355 0.47909 0.0
C2644 C 0.53084 0.65507 0.45813 0.0
C2645 C 0.51147 0.6855 0.42176 0.0
C2646 C 0.51335 0.66892 0.43365 0.0
C2647 C 0.51662 0.62243 0.47069 0.0
C2648 C 0.5157 0.63841 0.45783 0.0
H2649 H 0.51863 0.73659 0.42517 0.0
H2650 H 0.5236 0.70936 0.44367 0.0
H2651 H 0.54157 0.68281 0.44679 0.0
H2652 H 0.54757 0.59354 0.48658 0.0
H2653 H 0.54702 0.6218 0.46777 0.0
C2654 C 0.58614 0.31984 0.68341 0.0
C2655 C 0.58216 0.30931 0.6653 0.0
C2656 C 0.60423 0.32139 0.69296 0.0
C2657 C 0.64694 0.32718 0.70754 0.0
H2658 H 0.66073 0.2746 0.70914 0.0
C2659 C 0.71671 0.31145 0.74636 0.0
C2660 C 0.7135 0.2957 0.75804 0.0
C2661 C 0.70164 0.31517 0.73448 0.0
C2662 C 0.65707 0.28938 0.70878 0.0
H2663 H 0.59442 0.29336 0.64247 0.0
H2664 H 0.62593 0.29592 0.65926 0.0
H2665 H 0.63356 0.27857 0.68816 0.0
H2666 H 0.6921 0.2718 0.76692 0.0
H2667 H 0.66577 0.27812 0.74596 0.0
H2668 H 0.67045 0.33786 0.72839 0.0
C2669 C 0.61502 0.30289 0.66607 0.0
C2670 C 0.64167 0.2917 0.69664 0.0
C2671 C 0.59702 0.30153 0.65643 0.0
C2672 C 0.6949 0.28407 0.75807 0.0
C2673 C 0.67992 0.28757 0.746 0.0
C2674 C 0.66258 0.32491 0.71949 0.0
C2675 C 0.61859 0.31226 0.68466 0.0
C2676 C 0.63625 0.31055 0.6961 0.0
C2677 C 0.68321 0.303 0.73394 0.0
C2678 C 0.66752 0.30589 0.72047 0.0
H2679 H 0.575 0.32604 0.69059 0.0
H2680 H 0.60655 0.32864 0.70731 0.0
H2681 H 0.64307 0.34188 0.70735 0.0
H2682 H 0.73098 0.32061 0.74613 0.0
H2683 H 0.70454 0.32709 0.72527 0.0
C2684 C 0.00079 0.32784 0.90573 0.0
C2685 C 0.99172 0.32551 0.88741 0.0
C2686 C 0.0016 0.34555 0.91757 0.0
C2687 C 0.97603 0.38672 0.92752 0.0
H2688 H 0.02415 0.41402 0.95414 0.0
C2689 C 0.98305 0.46314 0.97323 0.0
C2690 C 0.99659 0.46717 0.98885 0.0
C2691 C 0.9816 0.44552 0.96101 0.0
C2692 C 0.01049 0.40642 0.94712 0.0
H2693 H 0.97674 0.34025 0.86704 0.0
H2694 H 0.9778 0.37106 0.88799 0.0
H2695 H 0.0239 0.38441 0.93211 0.0
H2696 H 0.01831 0.45543 0.0047 0.0
H2697 H 0.01515 0.42434 0.98406 0.0
H2698 H 0.96243 0.40827 0.94291 0.0
C2699 C 0.98429 0.3591 0.89308 0.0
C2700 C 0.01042 0.38954 0.93437 0.0
C2701 C 0.98379 0.3415 0.88108 0.0
C2702 C 0.00788 0.4528 0.99263 0.0
C2703 C 0.00619 0.43506 0.98066 0.0
C2704 C 0.97602 0.40345 0.94052 0.0
C2705 C 0.99311 0.36121 0.91147 0.0
C2706 C 0.99321 0.37952 0.92447 0.0
C2707 C 0.99347 0.43144 0.96435 0.0
C2708 C 0.99325 0.4135 0.95055 0.0
H2709 H 0.00712 0.31588 0.91104 0.0
H2710 H 0.00843 0.34678 0.93171 0.0
H2711 H 0.96251 0.37911 0.92019 0.0
H2712 H 0.97429 0.47406 0.96988 0.0
H2713 H 0.97174 0.44339 0.94855 0.0
C2714 C 0.9769 0.78988 0.18445 0.0
C2715 C 0.97299 0.78012 0.16598 0.0
C2716 C 0.96211 0.79008 0.19688 0.0
C2717 C 0.92577 0.7988 0.21517 0.0
H2718 H 0.88671 0.7509 0.21685 0.0
C2719 C 0.85086 0.79949 0.24464 0.0
C2720 C 0.84228 0.78296 0.25378 0.0
C2721 C 0.86873 0.79973 0.2368 0.0
C2722 C 0.89764 0.76434 0.21677 0.0
H2723 H 0.95038 0.76275 0.14625 0.0
H2724 H 0.92463 0.76323 0.1679 0.0
H2725 H 0.91403 0.74958 0.19729 0.0
H2726 H 0.84604 0.75428 0.26296 0.0
H2727 H 0.87739 0.75477 0.24947 0.0
H2728 H 0.90927 0.81358 0.23461 0.0
C2729 C 0.93919 0.77057 0.1728 0.0
C2730 C 0.91316 0.76364 0.20536 0.0
C2731 C 0.95395 0.77043 0.16034 0.0
C2732 C 0.85233 0.76718 0.25592 0.0
C2733 C 0.87019 0.7674 0.24807 0.0
C2734 C 0.91019 0.79952 0.22656 0.0
C2735 C 0.94309 0.78044 0.19119 0.0
C2736 C 0.92726 0.78092 0.20423 0.0
C2737 C 0.87832 0.78341 0.23796 0.0
C2738 C 0.89583 0.78235 0.22731 0.0
H2739 H 0.99139 0.79748 0.18931 0.0
H2740 H 0.96561 0.79764 0.21102 0.0
H2741 H 0.93635 0.81241 0.21451 0.0
H2742 H 0.84338 0.81184 0.24277 0.0
H2743 H 0.87451 0.81221 0.22899 0.0
C2744 C 0.48641 0.32207 0.07376 0.0
C2745 C 0.4962 0.32001 0.091 0.0
C2746 C 0.49022 0.33996 0.06527 0.0
C2747 C 0.5264 0.3864 0.06395 0.0
H2748 H 0.48297 0.40579 0.04149 0.0
C2749 C 0.53144 0.46623 0.03978 0.0
C2750 C 0.52009 0.4685 0.02358 0.0
C2751 C 0.53009 0.44752 0.04682 0.0
C2752 C 0.4953 0.40043 0.04742 0.0
H2753 H 0.51782 0.33534 0.11272 0.0
H2754 H 0.52429 0.36682 0.09791 0.0
H2755 H 0.47727 0.3749 0.0569 0.0
H2756 H 0.49922 0.45257 0.00148 0.0
H2757 H 0.49704 0.41986 0.01367 0.0
H2758 H 0.54438 0.41217 0.05459 0.0
C2759 C 0.5138 0.35438 0.09093 0.0
C2760 C 0.49202 0.38274 0.05631 0.0
C2761 C 0.50999 0.33638 0.09947 0.0
C2762 C 0.50812 0.4514 0.01402 0.0
C2763 C 0.50674 0.43268 0.0211 0.0
C2764 C 0.52967 0.40417 0.05505 0.0
C2765 C 0.50388 0.35637 0.07375 0.0
C2766 C 0.50752 0.37546 0.06465 0.0
C2767 C 0.51734 0.43064 0.03786 0.0
C2768 C 0.51415 0.41136 0.04665 0.0
H2769 H 0.47582 0.30979 0.06666 0.0
H2770 H 0.48258 0.34084 0.05188 0.0
H2771 H 0.53867 0.38107 0.07003 0.0
H2772 H 0.54088 0.47907 0.04748 0.0
H2773 H 0.53837 0.44651 0.05981 0.0
C2774 C 0.96532 0.29645 0.39472 0.0
C2775 C 0.9749 0.28335 0.38406 0.0
C2776 C 0.94674 0.2988 0.38867 0.0
C2777 C 0.90382 0.2748 0.35734 0.0
H2778 H 0.89512 0.32929 0.35482 0.0
C2779 C 0.84973 0.31478 0.31183 0.0
C2780 C 0.83206 0.30222 0.31436 0.0
C2781 C 0.86621 0.31416 0.32341 0.0
C2782 C 0.89735 0.31401 0.35551 0.0
H2783 H 0.97215 0.26086 0.36008 0.0
H2784 H 0.93973 0.26485 0.34944 0.0
H2785 H 0.92538 0.32362 0.36979 0.0
H2786 H 0.81742 0.28021 0.3317 0.0
H2787 H 0.84614 0.27909 0.35178 0.0
H2788 H 0.87586 0.26517 0.34302 0.0
C2789 C 0.94655 0.27362 0.36224 0.0
C2790 C 0.91462 0.31074 0.36414 0.0
C2791 C 0.96517 0.27149 0.36816 0.0
C2792 C 0.83088 0.28998 0.32936 0.0
C2793 C 0.84733 0.28925 0.34079 0.0
C2794 C 0.88648 0.27805 0.34901 0.0
C2795 C 0.93728 0.28764 0.37217 0.0
C2796 C 0.91821 0.2911 0.36478 0.0
C2797 C 0.86528 0.30087 0.33758 0.0
C2798 C 0.88317 0.29768 0.34775 0.0
H2799 H 0.97247 0.30538 0.40731 0.0
H2800 H 0.93985 0.30946 0.3968 0.0
H2801 H 0.90604 0.25949 0.35781 0.0
H2802 H 0.85103 0.32431 0.30034 0.0
H2803 H 0.87989 0.32324 0.32059 0.0
C2804 C 0.97667 0.69824 0.61682 0.0
C2805 C 0.97165 0.71486 0.60877 0.0
C2806 C 0.9714 0.67895 0.6074 0.0
C2807 C 0.95953 0.65448 0.55874 0.0
H2808 H 0.95521 0.60618 0.5847 0.0
C2809 C 0.95883 0.5756 0.51972 0.0
C2810 C 0.97377 0.56672 0.52698 0.0
C2811 C 0.9536 0.59222 0.52988 0.0
C2812 C 0.95622 0.61954 0.57726 0.0
H2813 H 0.95587 0.72414 0.58525 0.0
H2814 H 0.94607 0.69034 0.56907 0.0
H2815 H 0.95373 0.63819 0.60256 0.0
H2816 H 0.99486 0.5682 0.55044 0.0
H2817 H 0.98526 0.59656 0.56846 0.0
H2818 H 0.96222 0.63571 0.53349 0.0
C2819 C 0.95462 0.69226 0.58238 0.0
C2820 C 0.95551 0.63791 0.58748 0.0
C2821 C 0.96011 0.71163 0.59172 0.0
C2822 C 0.983 0.57439 0.54472 0.0
C2823 C 0.97754 0.59067 0.55501 0.0
C2824 C 0.95993 0.63604 0.54849 0.0
C2825 C 0.96076 0.67576 0.58979 0.0
C2826 C 0.95788 0.65576 0.57848 0.0
C2827 C 0.96299 0.59993 0.54759 0.0
C2828 C 0.95894 0.61855 0.55777 0.0
H2829 H 0.98559 0.70022 0.62992 0.0
H2830 H 0.97666 0.66677 0.6135 0.0
H2831 H 0.96165 0.66785 0.5513 0.0
H2832 H 0.95152 0.57002 0.50603 0.0
H2833 H 0.94238 0.59917 0.52384 0.0
C2834 C 0.57908 0.79224 0.84674 0.0
C2835 C 0.57027 0.77848 0.85881 0.0
C2836 C 0.5957 0.78929 0.83791 0.0
C2837 C 0.62212 0.75115 0.82013 0.0
H2838 H 0.66323 0.79724 0.81819 0.0
C2839 C 0.6935 0.74957 0.7812 0.0
C2840 C 0.70053 0.76673 0.77207 0.0
C2841 C 0.67726 0.74896 0.792 0.0
C2842 C 0.65181 0.78425 0.81843 0.0
H2843 H 0.57212 0.75083 0.87119 0.0
H2844 H 0.60143 0.74549 0.85537 0.0
H2845 H 0.63655 0.80006 0.83818 0.0
H2846 H 0.69513 0.79596 0.76585 0.0
H2847 H 0.66674 0.7947 0.78421 0.0
H2848 H 0.63731 0.73549 0.79994 0.0
C2849 C 0.5953 0.7586 0.85291 0.0
C2850 C 0.6366 0.78584 0.82999 0.0
C2851 C 0.57866 0.76173 0.86204 0.0
C2852 C 0.69025 0.78262 0.77289 0.0
C2853 C 0.67405 0.78197 0.78356 0.0
C2854 C 0.63742 0.74955 0.80845 0.0
C2855 C 0.60395 0.77242 0.84076 0.0
C2856 C 0.62135 0.76949 0.83062 0.0
C2857 C 0.66778 0.76548 0.79381 0.0
C2858 C 0.65216 0.76628 0.80711 0.0
H2859 H 0.57306 0.80535 0.84398 0.0
H2860 H 0.60188 0.80007 0.82847 0.0
H2861 H 0.61049 0.73834 0.82028 0.0
H2862 H 0.70116 0.73711 0.78093 0.0
H2863 H 0.67277 0.73602 0.7997 0.0
C2864 C 0.40229 0.53833 0.67488 0.0
C2865 C 0.41066 0.5471 0.6927 0.0
C2866 C 0.4127 0.54049 0.65867 0.0
C2867 C 0.45392 0.57007 0.63772 0.0
H2868 H 0.45576 0.51956 0.60853 0.0
C2869 C 0.50598 0.56363 0.57696 0.0
C2870 C 0.49972 0.54893 0.5617 0.0
C2871 C 0.49481 0.56491 0.59273 0.0
C2872 C 0.45517 0.5339 0.61622 0.0
H2873 H 0.43616 0.56592 0.70732 0.0
H2874 H 0.45425 0.56998 0.67883 0.0
H2875 H 0.43643 0.51976 0.63594 0.0
H2876 H 0.47668 0.52435 0.55079 0.0
H2877 H 0.45679 0.52729 0.57748 0.0
H2878 H 0.47239 0.5843 0.61776 0.0
C2879 C 0.43966 0.56133 0.6775 0.0
C2880 C 0.44412 0.53396 0.63203 0.0
C2881 C 0.42932 0.55895 0.6938 0.0
C2882 C 0.48186 0.53595 0.56226 0.0
C2883 C 0.47057 0.53745 0.57777 0.0
C2884 C 0.4648 0.57007 0.62166 0.0
C2885 C 0.43164 0.55167 0.65985 0.0
C2886 C 0.44333 0.55201 0.64295 0.0
C2887 C 0.47704 0.55164 0.59346 0.0
C2888 C 0.46553 0.55196 0.61064 0.0
H2889 H 0.38795 0.52911 0.67351 0.0
H2890 H 0.40607 0.53306 0.64521 0.0
H2891 H 0.45352 0.58422 0.64587 0.0
H2892 H 0.51974 0.57378 0.57695 0.0
H2893 H 0.50041 0.57591 0.60456 0.0
C2894 C 0.76597 0.16565 0.94363 0.0
C2895 C 0.77071 0.17282 0.96276 0.0
C2896 C 0.77047 0.17828 0.92938 0.0
C2897 C 0.77852 0.23147 0.92145 0.0
H2898 H 0.79402 0.21164 0.87273 0.0
C2899 C 0.76211 0.26378 0.85198 0.0
C2900 C 0.7751 0.26352 0.83763 0.0
C2901 C 0.76574 0.25595 0.869 0.0
C2902 C 0.79004 0.21758 0.88635 0.0
H2903 H 0.78446 0.19882 0.98181 0.0
H2904 H 0.79229 0.22078 0.95687 0.0
H2905 H 0.79308 0.1908 0.89898 0.0
H2906 H 0.80264 0.25618 0.8301 0.0
H2907 H 0.80907 0.24258 0.85996 0.0
H2908 H 0.77515 0.2581 0.90871 0.0
C2909 C 0.78494 0.20543 0.95298 0.0
C2910 C 0.78928 0.20553 0.9013 0.0
C2911 C 0.78049 0.19279 0.96724 0.0
C2912 C 0.79233 0.25641 0.84094 0.0
C2913 C 0.79596 0.24856 0.85797 0.0
C2914 C 0.77927 0.24352 0.90648 0.0
C2915 C 0.77978 0.19837 0.93392 0.0
C2916 C 0.78302 0.21213 0.91885 0.0
C2917 C 0.78243 0.24772 0.87196 0.0
C2918 C 0.78455 0.23648 0.88863 0.0
H2919 H 0.75843 0.15038 0.93964 0.0
H2920 H 0.76606 0.17248 0.91484 0.0
H2921 H 0.77356 0.23694 0.93479 0.0
H2922 H 0.74873 0.26921 0.84975 0.0
H2923 H 0.75493 0.25534 0.8794 0.0
C2924 C 0.06926 0.47235 0.19752 0.0
C2925 C 0.08892 0.4814 0.20021 0.0
C2926 C 0.06006 0.46914 0.17934 0.0
C2927 C 0.06238 0.49802 0.14104 0.0
H2928 H 0.02865 0.45467 0.10992 0.0
C2929 C 0.032 0.51264 0.06967 0.0
C2930 C 0.01288 0.50391 0.06363 0.0
C2931 C 0.04109 0.50626 0.08513 0.0
C2932 C 0.03785 0.46694 0.1186 0.0
H2933 H 0.11493 0.49163 0.1859 0.0
H2934 H 0.09879 0.48624 0.1543 0.0
H2935 H 0.04543 0.44759 0.13903 0.0
H2936 H 0.98809 0.48167 0.06905 0.0
H2937 H 0.00372 0.47116 0.09713 0.0
H2938 H 0.05438 0.51765 0.12172 0.0
C2939 C 0.09052 0.48177 0.16621 0.0
C2940 C 0.04752 0.46283 0.13509 0.0
C2941 C 0.09971 0.4849 0.1843 0.0
C2942 C 0.0029 0.48859 0.07343 0.0
C2943 C 0.0119 0.48248 0.08937 0.0
C2944 C 0.05255 0.50217 0.12493 0.0
C2945 C 0.07046 0.47495 0.16375 0.0
C2946 C 0.06012 0.47835 0.14618 0.0
C2947 C 0.03104 0.49151 0.09554 0.0
C2948 C 0.04046 0.48668 0.11325 0.0
H2949 H 0.06061 0.46935 0.20952 0.0
H2950 H 0.04455 0.46393 0.17772 0.0
H2951 H 0.0716 0.51032 0.14971 0.0
H2952 H 0.04002 0.52466 0.06256 0.0
H2953 H 0.05599 0.51318 0.08908 0.0
C2954 C 0.75613 0.85832 0.46313 0.0
C2955 C 0.75688 0.87921 0.46393 0.0
C2956 C 0.75514 0.84676 0.44565 0.0
C2957 C 0.76674 0.82999 0.40714 0.0
H2958 H 0.73385 0.84015 0.36519 0.0
C2959 C 0.77651 0.80421 0.32883 0.0
C2960 C 0.75974 0.79704 0.31691 0.0
C2961 C 0.77519 0.81237 0.34741 0.0
C2962 C 0.74298 0.83697 0.37679 0.0
H2963 H 0.75675 0.90419 0.44688 0.0
H2964 H 0.75496 0.88408 0.41661 0.0
H2965 H 0.73253 0.85758 0.39648 0.0
H2966 H 0.72836 0.7924 0.31543 0.0
H2967 H 0.72612 0.8066 0.34776 0.0
H2968 H 0.77728 0.80947 0.38736 0.0
C2969 C 0.75506 0.87661 0.42945 0.0
C2970 C 0.74234 0.84709 0.39467 0.0
C2971 C 0.7562 0.88816 0.44686 0.0
C2972 C 0.74161 0.79788 0.32414 0.0
C2973 C 0.7403 0.8061 0.34267 0.0
C2974 C 0.76746 0.81994 0.38919 0.0
C2975 C 0.75468 0.85582 0.42863 0.0
C2976 C 0.75436 0.8439 0.41 0.0
C2977 C 0.75708 0.81361 0.35447 0.0
C2978 C 0.75571 0.82345 0.37377 0.0
H2979 H 0.75668 0.85094 0.47599 0.0
H2980 H 0.75473 0.83074 0.44544 0.0
H2981 H 0.77627 0.82732 0.41864 0.0
H2982 H 0.79071 0.80377 0.32377 0.0
H2983 H 0.7884 0.81821 0.35609 0.0
C2984 C 0.4172 0.52969 0.7992 0.0
C2985 C 0.39714 0.52922 0.79825 0.0
C2986 C 0.42707 0.52813 0.81642 0.0
C2987 C 0.418 0.50989 0.86353 0.0
H2988 H 0.47032 0.53849 0.87692 0.0
C2989 C 0.45594 0.51293 0.93809 0.0
C2990 C 0.47557 0.51147 0.93906 0.0
C2991 C 0.44636 0.5143 0.92069 0.0
C2992 C 0.45578 0.53022 0.87328 0.0
H2993 H 0.37195 0.52778 0.81492 0.0
H2994 H 0.38919 0.52565 0.84487 0.0
H2995 H 0.45386 0.54373 0.84732 0.0
H2996 H 0.50048 0.50978 0.92262 0.0
H2997 H 0.48375 0.5121 0.89221 0.0
H2998 H 0.41987 0.49658 0.88963 0.0
C2999 C 0.39724 0.52661 0.83225 0.0
C3000 C 0.44634 0.53323 0.8563 0.0
C3001 C 0.38737 0.52803 0.81506 0.0
C3002 C 0.48533 0.51086 0.92227 0.0
C3003 C 0.47579 0.51237 0.90489 0.0
C3004 C 0.42741 0.50698 0.88055 0.0
C3005 C 0.41714 0.5262 0.83311 0.0
C3006 C 0.42729 0.52314 0.85122 0.0
C3007 C 0.45626 0.51437 0.90393 0.0
C3008 C 0.4464 0.51712 0.88563 0.0
H3009 H 0.42518 0.53045 0.78653 0.0
H3010 H 0.44236 0.52771 0.81648 0.0
H3011 H 0.4035 0.5015 0.85993 0.0
H3012 H 0.4481 0.51353 0.95083 0.0
H3013 H 0.43136 0.51597 0.92046 0.0
C3014 C 0.77228 0.16766 0.08622 0.0
C3015 C 0.78123 0.17669 0.07105 0.0
C3016 C 0.77495 0.17767 0.10447 0.0
C3017 C 0.77107 0.20875 0.13676 0.0
H3018 H 0.82004 0.24078 0.15736 0.0
C3019 C 0.77654 0.26738 0.20171 0.0
C3020 C 0.79179 0.26792 0.21523 0.0
C3021 C 0.77581 0.25586 0.18427 0.0
C3022 C 0.80629 0.23179 0.15187 0.0
H3023 H 0.80075 0.20281 0.06326 0.0
H3024 H 0.80532 0.22028 0.09504 0.0
H3025 H 0.81863 0.22008 0.12728 0.0
H3026 H 0.81833 0.25711 0.22124 0.0
H3027 H 0.81704 0.23699 0.19091 0.0
H3028 H 0.75876 0.22032 0.16142 0.0
C3029 C 0.79633 0.20544 0.0929 0.0
C3030 C 0.80545 0.22007 0.13457 0.0
C3031 C 0.79365 0.19545 0.07466 0.0
C3032 C 0.80647 0.25707 0.21097 0.0
C3033 C 0.80575 0.24558 0.19359 0.0
C3034 C 0.7719 0.2205 0.15404 0.0
C3035 C 0.78663 0.19688 0.10791 0.0
C3036 C 0.78782 0.20848 0.12678 0.0
C3037 C 0.79037 0.24475 0.18008 0.0
C3038 C 0.7895 0.23222 0.16174 0.0
H3039 H 0.76268 0.15318 0.0839 0.0
H3040 H 0.76755 0.17053 0.11582 0.0
H3041 H 0.75721 0.20021 0.13102 0.0
H3042 H 0.76521 0.27584 0.2046 0.0
H3043 H 0.76392 0.25578 0.17403 0.0
C3044 C 0.07079 0.51055 0.3024 0.0
C3045 C 0.08956 0.52221 0.30465 0.0
C3046 C 0.05853 0.51007 0.31732 0.0
C3047 C 0.04186 0.50181 0.35531 0.0
H3048 H 0.04002 0.55058 0.38741 0.0
C3049 C 0.01809 0.50236 0.4316 0.0
C3050 C 0.00767 0.51702 0.43821 0.0
C3051 C 0.02485 0.50228 0.41345 0.0
C3052 C 0.04013 0.53687 0.37842 0.0
H3053 H 0.11004 0.5427 0.32435 0.0
H3054 H 0.08869 0.54171 0.35036 0.0
H3055 H 0.0583 0.55249 0.35908 0.0
H3056 H 0.99535 0.54254 0.43096 0.0
H3057 H 0.00721 0.54242 0.39909 0.0
H3058 H 0.02391 0.48616 0.37482 0.0
C3059 C 0.08342 0.53309 0.33698 0.0
C3060 C 0.05079 0.53794 0.36234 0.0
C3061 C 0.09571 0.53351 0.32211 0.0
C3062 C 0.00342 0.53112 0.42616 0.0
C3063 C 0.01027 0.5311 0.408 0.0
C3064 C 0.03127 0.50073 0.37144 0.0
C3065 C 0.06474 0.52132 0.33476 0.0
C3066 C 0.05205 0.52039 0.35083 0.0
C3067 C 0.02136 0.5169 0.40161 0.0
C3068 C 0.03059 0.51821 0.38334 0.0
H3069 H 0.06555 0.50169 0.28913 0.0
H3070 H 0.04415 0.50098 0.31518 0.0
H3071 H 0.04265 0.48802 0.34674 0.0
H3072 H 0.02153 0.49131 0.44065 0.0
H3073 H 0.03353 0.49129 0.40901 0.0
C3074 C 0.75564 0.8811 0.58899 0.0
C3075 C 0.74758 0.8709 0.57157 0.0
C3076 C 0.75388 0.87152 0.60563 0.0
C3077 C 0.72615 0.82924 0.6278 0.0
H3078 H 0.77374 0.8329 0.65859 0.0
C3079 C 0.73261 0.77982 0.68974 0.0
C3080 C 0.74522 0.78821 0.70545 0.0
C3081 C 0.73158 0.79034 0.67372 0.0
C3082 C 0.76021 0.83196 0.65042 0.0
H3083 H 0.73068 0.84292 0.55806 0.0
H3084 H 0.72744 0.82628 0.58721 0.0
H3085 H 0.77393 0.85078 0.63046 0.0
H3086 H 0.76631 0.81435 0.71688 0.0
H3087 H 0.76387 0.833 0.68955 0.0
H3088 H 0.71236 0.81059 0.64791 0.0
C3089 C 0.73515 0.84166 0.58796 0.0
C3090 C 0.76036 0.8422 0.63421 0.0
C3091 C 0.73709 0.85118 0.57126 0.0
C3092 C 0.75637 0.8075 0.70504 0.0
C3093 C 0.75515 0.8181 0.68921 0.0
C3094 C 0.72594 0.81915 0.64419 0.0
C3095 C 0.74386 0.8516 0.60526 0.0
C3096 C 0.74336 0.84096 0.6227 0.0
C3097 C 0.74304 0.80954 0.67315 0.0
C3098 C 0.74299 0.82037 0.65574 0.0
H3099 H 0.76379 0.89631 0.58973 0.0
H3100 H 0.76055 0.87965 0.61879 0.0
H3101 H 0.7128 0.82811 0.61926 0.0
H3102 H 0.72391 0.76493 0.68964 0.0
H3103 H 0.72223 0.78313 0.6616 0.0
C3104 C 0.69325 0.43474 0.48224 0.0
C3105 C 0.6967 0.42056 0.49458 0.0
C3106 C 0.68045 0.44762 0.48663 0.0
C3107 C 0.64137 0.45626 0.51768 0.0
H3108 H 0.65732 0.51136 0.50611 0.0
C3109 C 0.59693 0.51688 0.53828 0.0
C3110 C 0.59157 0.5266 0.52279 0.0
C3111 C 0.61178 0.50582 0.53701 0.0
C3112 C 0.65272 0.49604 0.50944 0.0
H3113 H 0.68883 0.40818 0.52085 0.0
H3114 H 0.66659 0.43091 0.5287 0.0
H3115 H 0.67808 0.48696 0.49902 0.0
H3116 H 0.59831 0.53372 0.49443 0.0
H3117 H 0.62451 0.51472 0.49233 0.0
H3118 H 0.61599 0.46545 0.52811 0.0
C3119 C 0.67363 0.43191 0.51549 0.0
C3120 C 0.6645 0.482 0.50526 0.0
C3121 C 0.68634 0.41885 0.51098 0.0
C3122 C 0.60224 0.5264 0.50659 0.0
C3123 C 0.61722 0.51553 0.5054 0.0
C3124 C 0.62966 0.47035 0.52202 0.0
C3125 C 0.67095 0.4468 0.50359 0.0
C3126 C 0.6588 0.46186 0.50899 0.0
C3127 C 0.62163 0.50453 0.52032 0.0
C3128 C 0.63509 0.49029 0.51766 0.0
H3129 H 0.70088 0.43629 0.46939 0.0
H3130 H 0.67828 0.45848 0.47687 0.0
H3131 H 0.63646 0.44086 0.52061 0.0
H3132 H 0.58888 0.51677 0.55091 0.0
H3133 H 0.61508 0.49766 0.54879 0.0
C3134 C 0.2102 0.12598 0.5016 0.0
C3135 C 0.21323 0.14325 0.49191 0.0
C3136 C 0.19162 0.115 0.50257 0.0
C3137 C 0.15014 0.09959 0.51044 0.0
H3138 H 0.11678 0.08868 0.46436 0.0
C3139 C 0.07203 0.05433 0.50776 0.0
C3140 C 0.06584 0.04081 0.49164 0.0
C3141 C 0.08973 0.06764 0.50847 0.0
C3142 C 0.12597 0.0915 0.47731 0.0
H3143 H 0.1994 0.16365 0.47688 0.0
H3144 H 0.16654 0.14426 0.47838 0.0
H3145 H 0.14804 0.11116 0.46473 0.0
H3146 H 0.0733 0.03026 0.46376 0.0
H3147 H 0.10442 0.05315 0.46512 0.0
H3148 H 0.12842 0.07942 0.52286 0.0
C3149 C 0.17863 0.13898 0.48489 0.0
C3150 C 0.14375 0.1046 0.4776 0.0
C3151 C 0.19732 0.15009 0.48406 0.0
C3152 C 0.07777 0.04054 0.47638 0.0
C3153 C 0.09549 0.05379 0.47709 0.0
C3154 C 0.13238 0.08649 0.51016 0.0
C3155 C 0.17564 0.1212 0.49401 0.0
C3156 C 0.15611 0.10861 0.49411 0.0
C3157 C 0.10158 0.06766 0.49305 0.0
C3158 C 0.12017 0.08212 0.49354 0.0
H3159 H 0.2223 0.12077 0.50821 0.0
H3160 H 0.18988 0.1013 0.50954 0.0
H3161 H 0.15927 0.10253 0.52344 0.0
H3162 H 0.06295 0.05507 0.51957 0.0
H3163 H 0.09388 0.07828 0.52089 0.0
C3164 C 0.16017 0.94863 0.76782 0.0
C3165 C 0.16807 0.96275 0.78316 0.0
C3166 C 0.16892 0.93212 0.76271 0.0
C3167 C 0.21636 0.91654 0.76667 0.0
H3168 H 0.18754 0.8623 0.75455 0.0
C3169 C 0.25323 0.84728 0.76356 0.0
C3170 C 0.24566 0.83058 0.75055 0.0
C3171 C 0.24393 0.86379 0.76561 0.0
C3172 C 0.19581 0.87741 0.75758 0.0
H3173 H 0.19098 0.9699 0.80562 0.0
H3174 H 0.20597 0.94133 0.79678 0.0
H3175 H 0.17026 0.88981 0.76204 0.0
H3176 H 0.22278 0.81864 0.72882 0.0
H3177 H 0.20682 0.84759 0.73214 0.0
H3178 H 0.24189 0.90431 0.76226 0.0
C3179 C 0.19323 0.94317 0.78848 0.0
C3180 C 0.18588 0.89316 0.76192 0.0
C3181 C 0.18449 0.95952 0.79363 0.0
C3182 C 0.22899 0.83118 0.73907 0.0
C3183 C 0.21972 0.84773 0.74108 0.0
C3184 C 0.22627 0.90086 0.76224 0.0
C3185 C 0.18581 0.92948 0.77276 0.0
C3186 C 0.19607 0.91285 0.76684 0.0
C3187 C 0.22685 0.86409 0.75464 0.0
C3188 C 0.21617 0.88102 0.75793 0.0
H3189 H 0.14757 0.95064 0.75941 0.0
H3190 H 0.16286 0.92181 0.75052 0.0
H3191 H 0.22463 0.93162 0.77001 0.0
H3192 H 0.26595 0.84732 0.77273 0.0
H3193 H 0.24975 0.87598 0.77635 0.0
C3194 C 0.30447 0.91001 0.01707 0.0
C3195 C 0.29629 0.89442 0.00325 0.0
C3196 C 0.32445 0.91524 0.02028 0.0
C3197 C 0.36747 0.91576 0.99449 0.0
H3198 H 0.39329 0.93678 0.0434 0.0
C3199 C 0.44449 0.96243 0.99982 0.0
C3200 C 0.44851 0.97886 0.01375 0.0
C3201 C 0.42765 0.94805 -7e-05 0.0
C3202 C 0.38625 0.93121 0.02959 0.0
H3203 H 0.30204 0.87075 0.98312 0.0
H3204 H 0.33739 0.88022 0.98837 0.0
H3205 H 0.36037 0.91767 0.04169 0.0
H3206 H 0.43828 0.99326 0.0387 0.0
H3207 H 0.40823 0.96896 0.03826 0.0
H3208 H 0.3925 0.93047 0.98217 0.0
C3209 C 0.32833 0.88852 0.99658 0.0
C3210 C 0.36747 0.92008 0.02866 0.0
C3211 C 0.30822 0.88313 0.99355 0.0
C3212 C 0.43547 0.98068 0.02783 0.0
C3213 C 0.41837 0.96658 0.02767 0.0
C3214 C 0.38604 0.9273 0.99537 0.0
C3215 C 0.33661 0.9049 0.00973 0.0
C3216 C 0.35766 0.91285 0.01105 0.0
C3217 C 0.4142 0.95006 0.0137 0.0
C3218 C 0.39548 0.93569 0.01292 0.0
H3219 H 0.29538 0.91852 0.02505 0.0
H3220 H 0.33036 0.92807 0.03031 0.0
H3221 H 0.36036 0.91024 0.98073 0.0
H3222 H 0.45454 0.9605 0.98901 0.0
H3223 H 0.42523 0.93536 0.98921 0.0
C3224 C 0.84934 0.59345 0.79826 0.0
C3225 C 0.86437 0.5879 0.78788 0.0
C3226 C 0.83814 0.60644 0.79137 0.0
C3227 C 0.83584 0.64399 0.7576 0.0
H3228 H 0.78067 0.62911 0.7631 0.0
C3229 C 0.78251 0.6922 0.73206 0.0
C3230 C 0.77087 0.69777 0.74637 0.0
C3231 C 0.7925 0.67645 0.73401 0.0
C3232 C 0.79603 0.63341 0.76143 0.0
H3233 H 0.88006 0.59247 0.76255 0.0
H3234 H 0.86035 0.61526 0.75047 0.0
H3235 H 0.80227 0.60734 0.77333 0.0
H3236 H 0.75939 0.6906 0.77323 0.0
H3237 H 0.77663 0.66299 0.77656 0.0
H3238 H 0.82957 0.67028 0.74603 0.0
C3239 C 0.85732 0.60952 0.76397 0.0
C3240 C 0.80841 0.62104 0.76737 0.0
C3241 C 0.86863 0.59652 0.77092 0.0
C3242 C 0.76828 0.68655 0.76199 0.0
C3243 C 0.77811 0.67072 0.76386 0.0
C3244 C 0.82343 0.65636 0.7516 0.0
C3245 C 0.84162 0.61413 0.77389 0.0
C3246 C 0.82849 0.62646 0.76598 0.0
C3247 C 0.79079 0.66594 0.75019 0.0
C3248 C 0.80346 0.65141 0.75387 0.0
H3249 H 0.84582 0.58728 0.81149 0.0
H3250 H 0.82649 0.61018 0.7996 0.0
H3251 H 0.85125 0.64858 0.75641 0.0
H3252 H 0.78474 0.70069 0.71988 0.0
H3253 H 0.80204 0.67292 0.72318 0.0
C3254 C 0.82178 0.62426 0.97088 0.0
C3255 C 0.81505 0.63546 0.98587 0.0
C3256 C 0.83802 0.61556 0.9737 0.0
C3257 C 0.8796 0.61407 0.00765 0.0
H3258 H 0.87513 0.56033 0.98226 0.0
C3259 C 0.93078 0.55968 0.026 0.0
C3260 C 0.93839 0.55023 0.01045 0.0
C3261 C 0.91593 0.57047 0.0232 0.0
C3262 C 0.87665 0.57537 0.98934 0.0
H3263 H 0.82051 0.64706 0.0154 0.0
H3264 H 0.84865 0.6314 0.02055 0.0
H3265 H 0.84966 0.57937 0.97688 0.0
H3266 H 0.93637 0.54436 0.97987 0.0
H3267 H 0.91017 0.56287 0.975 0.0
H3268 H 0.90647 0.60964 0.02046 0.0
C3269 C 0.84161 0.62964 0.00647 0.0
C3270 C 0.86211 0.58639 0.98618 0.0
C3271 C 0.82548 0.63864 0.00355 0.0
C3272 C 0.93065 0.55139 0.99211 0.0
C3273 C 0.91567 0.56197 0.98933 0.0
C3274 C 0.89407 0.60292 0.01096 0.0
C3275 C 0.84775 0.6175 0.9917 0.0
C3276 C 0.86344 0.60596 0.99517 0.0
C3277 C 0.9083 0.5718 0.00483 0.0
C3278 C 0.89278 0.5835 0.00175 0.0
H3279 H 0.81415 0.62175 0.95703 0.0
H3280 H 0.84265 0.60687 0.96183 0.0
H3281 H 0.88123 0.62914 0.01467 0.0
H3282 H 0.93658 0.55911 0.04028 0.0
H3283 H 0.9104 0.57775 0.03541 0.0
C3284 C 0.1516 0.08096 0.79744 0.0
C3285 C 0.15829 0.06472 0.78813 0.0
C3286 C 0.16187 0.1006 0.79701 0.0
C3287 C 0.19477 0.13818 0.80211 0.0
H3288 H 0.20993 0.15444 0.75315 0.0
C3289 C 0.25171 0.20933 0.79169 0.0
C3290 C 0.24748 0.22046 0.77684 0.0
C3291 C 0.23968 0.19107 0.7942 0.0
C3292 C 0.20568 0.15022 0.76691 0.0
H3293 H 0.17989 0.05604 0.77003 0.0
H3294 H 0.19769 0.0902 0.76911 0.0
H3295 H 0.19075 0.12117 0.75519 0.0
H3296 H 0.22718 0.22159 0.75325 0.0
H3297 H 0.20622 0.18987 0.75765 0.0
H3298 H 0.20993 0.16731 0.81382 0.0
C3299 C 0.18483 0.08788 0.77705 0.0
C3300 C 0.19484 0.13111 0.76809 0.0
C3301 C 0.17477 0.06836 0.7777 0.0
C3302 C 0.23083 0.21329 0.7648 0.0
C3303 C 0.21888 0.19508 0.76726 0.0
C3304 C 0.20582 0.15732 0.80096 0.0
C3305 C 0.17855 0.1042 0.78674 0.0
C3306 C 0.18933 0.12486 0.78568 0.0
C3307 C 0.2233 0.18362 0.78181 0.0
C3308 C 0.21138 0.16352 0.78332 0.0
H3309 H 0.13868 0.07842 0.80525 0.0
H3310 H 0.15663 0.11297 0.80443 0.0
H3311 H 0.19084 0.13363 0.81586 0.0
H3312 H 0.26444 0.21458 0.80119 0.0
H3313 H 0.24352 0.18249 0.80546 0.0
C3314 C 0.37674 0.96962 0.2708 0.0
C3315 C 0.39055 0.97859 0.28529 0.0
C3316 C 0.37007 0.94896 0.26899 0.0
C3317 C 0.36105 0.90686 0.29681 0.0
H3318 H 0.34865 0.87709 0.24729 0.0
C3319 C 0.3117 0.82773 0.28495 0.0
C3320 C 0.29799 0.82521 0.26949 0.0
C3321 C 0.32648 0.8447 0.28756 0.0
C3322 C 0.35196 0.88521 0.26123 0.0
H3323 H 0.40939 0.97326 0.30844 0.0
H3324 H 0.39719 0.93668 0.30564 0.0
H3325 H 0.36978 0.90996 0.25024 0.0
H3326 H 0.28873 0.83873 0.24495 0.0
H3327 H 0.3141 0.86837 0.24971 0.0
H3328 H 0.34227 0.88261 0.30766 0.0
C3329 C 0.39151 0.94574 0.29577 0.0
C3330 C 0.36415 0.90395 0.26291 0.0
C3331 C 0.39845 0.96653 0.29738 0.0
C3332 C 0.29913 0.84013 0.25692 0.0
C3333 C 0.31381 0.85705 0.25956 0.0
C3334 C 0.34863 0.88814 0.2951 0.0
C3335 C 0.37713 0.93683 0.28162 0.0
C3336 C 0.36815 0.91531 0.28059 0.0
C3337 C 0.3278 0.85943 0.27474 0.0
C3338 C 0.34336 0.87752 0.27717 0.0
H3339 H 0.37079 0.97868 0.26108 0.0
H3340 H 0.35879 0.9426 0.25813 0.0
H3341 H 0.36395 0.9153 0.31061 0.0
H3342 H 0.3113 0.81639 0.29479 0.0
H3343 H 0.33708 0.84609 0.29936 0.0
C3344 C 0.49727 0.33827 0.6024 0.0
C3345 C 0.51417 0.33525 0.61212 0.0
C3346 C 0.49702 0.35589 0.59382 0.0
C3347 C 0.52813 0.39409 0.5714 0.0
H3348 H 0.48655 0.42412 0.57676 0.0
C3349 C 0.52852 0.46797 0.53711 0.0
C3350 C 0.51079 0.47277 0.53104 0.0
C3351 C 0.529 0.45112 0.54688 0.0
C3352 C 0.4981 0.41573 0.57482 0.0
H3353 H 0.54397 0.34848 0.62081 0.0
H3354 H 0.54364 0.37935 0.60536 0.0
H3355 H 0.48747 0.3957 0.59523 0.0
H3356 H 0.47966 0.46311 0.52977 0.0
H3357 H 0.48049 0.4332 0.54616 0.0
H3358 H 0.53846 0.4135 0.55053 0.0
C3359 C 0.53058 0.36801 0.60456 0.0
C3360 C 0.4987 0.39957 0.58556 0.0
C3361 C 0.53073 0.35047 0.61348 0.0
C3362 C 0.49355 0.45988 0.53433 0.0
C3363 C 0.49405 0.44284 0.54391 0.0
C3364 C 0.52739 0.41006 0.56045 0.0
C3365 C 0.51375 0.37077 0.5945 0.0
C3366 C 0.51372 0.3886 0.58395 0.0
C3367 C 0.51178 0.43845 0.55064 0.0
C3368 C 0.51236 0.42112 0.562 0.0
H3369 H 0.48426 0.32683 0.60119 0.0
H3370 H 0.4839 0.35758 0.58607 0.0
H3371 H 0.53969 0.38566 0.56967 0.0
H3372 H 0.5421 0.47764 0.53498 0.0
H3373 H 0.54293 0.44848 0.55204 0.0
C3374 C 0.43354 0.74155 0.34192 0.0
C3375 C 0.4401 0.75501 0.35796 0.0
C3376 C 0.41444 0.73914 0.3346 0.0
C3377 C 0.37172 0.73308 0.32313 0.0
H3378 H 0.35579 0.78446 0.32005 0.0
C3379 C 0.30158 0.74437 0.28184 0.0
C3380 C 0.30546 0.75814 0.26826 0.0
C3381 C 0.31604 0.74251 0.29537 0.0
C3382 C 0.35998 0.76999 0.32095 0.0
H3383 H 0.43162 0.77462 0.38041 0.0
H3384 H 0.39811 0.77061 0.36761 0.0
H3385 H 0.38379 0.78242 0.34066 0.0
H3386 H 0.32717 0.78099 0.25825 0.0
H3387 H 0.35237 0.77803 0.28216 0.0
H3388 H 0.34784 0.72083 0.30311 0.0
C3389 C 0.4078 0.76233 0.3603 0.0
C3390 C 0.37594 0.76874 0.33285 0.0
C3391 C 0.42691 0.76462 0.36765 0.0
C3392 C 0.32391 0.77015 0.26848 0.0
C3393 C 0.33823 0.76858 0.28222 0.0
C3394 C 0.35548 0.73426 0.3115 0.0
C3395 C 0.40151 0.75008 0.34332 0.0
C3396 C 0.38248 0.75043 0.33353 0.0
C3397 C 0.33444 0.7547 0.29572 0.0
C3398 C 0.34989 0.75286 0.30987 0.0
H3399 H 0.44339 0.73344 0.33464 0.0
H3400 H 0.4102 0.72965 0.32148 0.0
H3401 H 0.37614 0.71867 0.32359 0.0
H3402 H 0.28741 0.73499 0.28194 0.0
H3403 H 0.31281 0.73175 0.30569 0.0
C3404 C 0.04081 0.73556 0.11294 0.0
C3405 C 0.03157 0.73751 0.12989 0.0
C3406 C 0.04281 0.71664 0.10486 0.0
C3407 C 0.01913 0.66385 0.10357 0.0
H3408 H 0.06208 0.65446 0.07389 0.0
C3409 C 0.04361 0.59344 0.05691 0.0
C3410 C 0.02618 0.58603 0.04602 0.0
C3411 C 0.04616 0.61185 0.06815 0.0
C3412 C 0.05006 0.65683 0.08224 0.0
H3413 H 0.01895 0.72181 0.15279 0.0
H3414 H 0.02225 0.68844 0.13859 0.0
H3415 H 0.06416 0.68654 0.09317 0.0
H3416 H 0.99802 0.59257 0.03798 0.0
H3417 H 0.00251 0.62446 0.0575 0.0
H3418 H 0.00492 0.6343 0.09245 0.0
C3419 C 0.02752 0.70147 0.13128 0.0
C3420 C 0.05118 0.67522 0.09318 0.0
C3421 C 0.02565 0.72049 0.13943 0.0
C3422 C 0.01161 0.5977 0.04622 0.0
C3423 C 0.0141 0.61595 0.05753 0.0
C3424 C 0.01794 0.64558 0.09252 0.0
C3425 C 0.03574 0.69929 0.11367 0.0
C3426 C 0.03558 0.67906 0.10373 0.0
C3427 C 0.03126 0.62308 0.06883 0.0
C3428 C 0.03325 0.642 0.0815 0.0
H3429 H 0.04603 0.74866 0.10568 0.0
H3430 H 0.04909 0.71556 0.09125 0.0
H3431 H 0.00684 0.66627 0.11146 0.0
H3432 H 0.05513 0.58485 0.05708 0.0
H3433 H 0.05954 0.61701 0.07674 0.0
C3434 C 0.05011 0.26095 0.84843 0.0
C3435 C 0.03779 0.27283 0.84093 0.0
C3436 C 0.0677 0.2596 0.84045 0.0
C3437 C 0.10384 0.28543 0.81049 0.0
H3438 H 0.117 0.23277 0.7998 0.0
C3439 C 0.16781 0.27482 0.76566 0.0
C3440 C 0.17986 0.26214 0.77203 0.0
C3441 C 0.14998 0.27517 0.77343 0.0
C3442 C 0.11366 0.24761 0.80286 0.0
H3443 H 0.03465 0.29307 0.81947 0.0
H3444 H 0.06524 0.29079 0.80574 0.0
H3445 H 0.08763 0.23598 0.81583 0.0
H3446 H 0.1825 0.23936 0.79097 0.0
H3447 H 0.15154 0.24014 0.80474 0.0
H3448 H 0.12987 0.29716 0.79776 0.0
C3449 C 0.06133 0.28253 0.81778 0.0
C3450 C 0.09684 0.24944 0.81207 0.0
C3451 C 0.04373 0.28375 0.82563 0.0
C3452 C 0.17344 0.24924 0.78575 0.0
C3453 C 0.15566 0.24965 0.79359 0.0
C3454 C 0.12068 0.28363 0.80138 0.0
C3455 C 0.07342 0.27027 0.82494 0.0
C3456 C 0.09169 0.26836 0.8159 0.0
C3457 C 0.14388 0.26294 0.78782 0.0
C3458 C 0.12577 0.26469 0.79734 0.0
H3459 H 0.04597 0.25228 0.86016 0.0
H3460 H 0.07681 0.25018 0.84639 0.0
H3461 H 0.10041 0.30025 0.81348 0.0
H3462 H 0.1724 0.28489 0.75506 0.0
H3463 H 0.1411 0.28527 0.76835 0.0
C3464 C 0.51011 0.71087 0.91399 0.0
C3465 C 0.5227 0.7289 0.92062 0.0
C3466 C 0.50846 0.69416 0.92441 0.0
C3467 C 0.53363 0.6717 0.96139 0.0
H3468 H 0.48239 0.64189 0.96801 0.0
C3469 C 0.52229 0.60518 0.00777 0.0
C3470 C 0.50925 0.58795 0.99985 0.0
C3471 C 0.5232 0.6235 -0.00012 0.0
C3472 C 0.49682 0.64993 0.9662 0.0
H3473 H 0.54378 0.74335 0.94317 0.0
H3474 H 0.541 0.71419 0.96121 0.0
H3475 H 0.48602 0.67089 0.94972 0.0
H3476 H 0.48623 0.57681 0.97807 0.0
H3477 H 0.48796 0.60838 0.96434 0.0
H3478 H 0.54449 0.65052 0.97751 0.0
C3479 C 0.53241 0.71294 0.94797 0.0
C3480 C 0.49889 0.66655 0.95567 0.0
C3481 C 0.53394 0.72968 0.93764 0.0
C3482 C 0.49652 0.58972 0.98453 0.0
C3483 C 0.49742 0.60795 0.97668 0.0
C3484 C 0.53157 0.65499 0.97183 0.0
C3485 C 0.51949 0.69506 0.9416 0.0
C3486 C 0.51732 0.67753 0.95301 0.0
C3487 C 0.51104 0.62499 0.98397 0.0
C3488 C 0.51314 0.64377 0.97422 0.0
H3489 H 0.50123 0.7098 0.90095 0.0
H3490 H 0.49855 0.6805 0.919 0.0
H3491 H 0.54804 0.67975 0.95948 0.0
H3492 H 0.53232 0.60434 0.01956 0.0
H3493 H 0.53366 0.63642 0.00605 0.0
C3494 C 0.06601 0.77076 0.63046 0.0
C3495 C 0.04983 0.76504 0.64086 0.0
C3496 C 0.08409 0.76707 0.63657 0.0
C3497 C 0.10757 0.73596 0.66733 0.0
H3498 H 0.15144 0.77993 0.66961 0.0
C3499 C 0.17761 0.73897 0.71383 0.0
C3500 C 0.19526 0.74787 0.70716 0.0
C3501 C 0.1602 0.73884 0.7035 0.0
C3502 C 0.13944 0.76736 0.66877 0.0
H3503 H 0.03918 0.74939 0.66459 0.0
H3504 H 0.07068 0.74304 0.67541 0.0
H3505 H 0.12034 0.78392 0.65554 0.0
H3506 H 0.20873 0.76274 0.68409 0.0
H3507 H 0.17834 0.76227 0.66589 0.0
H3508 H 0.12658 0.71952 0.68086 0.0
C3509 C 0.06963 0.7506 0.66272 0.0
C3510 C 0.1216 0.76967 0.66071 0.0
C3511 C 0.05166 0.75447 0.65671 0.0
C3512 C 0.19529 0.75581 0.68957 0.0
C3513 C 0.17789 0.75569 0.67924 0.0
C3514 C 0.12542 0.73364 0.67537 0.0
C3515 C 0.08612 0.75711 0.65289 0.0
C3516 C 0.1054 0.75409 0.66012 0.0
C3517 C 0.16011 0.74761 0.68629 0.0
C3518 C 0.14151 0.7494 0.6764 0.0
H3519 H 0.06474 0.77851 0.6179 0.0
H3520 H 0.09647 0.77199 0.62853 0.0
H3521 H 0.09543 0.72356 0.66684 0.0
H3522 H 0.17717 0.73281 0.72739 0.0
H3523 H 0.14678 0.73265 0.70944 0.0
C3524 C 0.04267 0.33868 0.43338 0.0
C3525 C 0.04093 0.33947 0.41365 0.0
C3526 C 0.04421 0.35613 0.44575 0.0
C3527 C 0.05404 0.4115 0.45038 0.0
H3528 H 0.01322 0.40607 0.4855 0.0
C3529 C 0.0381 0.47145 0.51062 0.0
C3530 C 0.0201 0.47676 0.50655 0.0
C3531 C 0.04375 0.4555 0.49975 0.0
C3532 C 0.02482 0.4077 0.47592 0.0
H3533 H 0.04098 0.35957 0.39153 0.0
H3534 H 0.04387 0.39006 0.41324 0.0
H3535 H 0.01873 0.37645 0.46594 0.0
H3536 H 0.99402 0.46985 0.4879 0.0
H3537 H 0.00368 0.44171 0.46937 0.0
H3538 H 0.0598 0.44296 0.46036 0.0
C3539 C 0.04393 0.37586 0.41904 0.0
C3540 C 0.02804 0.3908 0.46481 0.0
C3541 C 0.04219 0.35836 0.40662 0.0
C3542 C 0.00798 0.46609 0.49135 0.0
C3543 C 0.01346 0.45002 0.48076 0.0
C3544 C 0.05101 0.42841 0.4618 0.0
C3545 C 0.04428 0.37479 0.43871 0.0
C3546 C 0.04246 0.39256 0.45171 0.0
C3547 C 0.03129 0.44452 0.48495 0.0
C3548 C 0.03615 0.42662 0.47439 0.0
H3549 H 0.04187 0.32446 0.43936 0.0
H3550 H 0.04466 0.35493 0.46087 0.0
H3551 H 0.06524 0.41323 0.44038 0.0
H3552 H 0.04771 0.47953 0.52223 0.0
H3553 H 0.05755 0.45139 0.50319 0.0
C3554 C 0.4473 0.27677 0.16669 0.0
C3555 C 0.44546 0.28013 0.14753 0.0
C3556 C 0.43325 0.28073 0.17904 0.0
C3557 C 0.38239 0.2897 0.17867 0.0
H3558 H 0.39525 0.30376 0.23245 0.0
C3559 C 0.32687 0.31057 0.23046 0.0
C3560 C 0.32325 0.29678 0.24408 0.0
C3561 C 0.34324 0.31132 0.21993 0.0
C3562 C 0.39153 0.29993 0.21744 0.0
H3563 H 0.4279 0.29101 0.12641 0.0
H3564 H 0.404 0.29901 0.14805 0.0
H3565 H 0.42094 0.3001 0.21117 0.0
H3566 H 0.33448 0.27392 0.25821 0.0
H3567 H 0.36349 0.27582 0.24023 0.0
H3568 H 0.35303 0.29014 0.18505 0.0
C3569 C 0.41577 0.29247 0.15351 0.0
C3570 C 0.40619 0.29761 0.20522 0.0
C3571 C 0.42956 0.28803 0.14107 0.0
C3572 C 0.33693 0.2847 0.24782 0.0
C3573 C 0.35352 0.2858 0.23758 0.0
C3574 C 0.36786 0.29249 0.19082 0.0
C3575 C 0.41721 0.2886 0.17264 0.0
C3576 C 0.40181 0.29219 0.18565 0.0
C3577 C 0.35648 0.29866 0.22315 0.0
C3578 C 0.37226 0.29739 0.21031 0.0
H3579 H 0.45934 0.27052 0.17202 0.0
H3580 H 0.4348 0.27712 0.1935 0.0
H3581 H 0.3782 0.28506 0.16387 0.0
H3582 H 0.31649 0.31991 0.22714 0.0
H3583 H 0.34526 0.32136 0.20887 0.0
C3584 C 0.62653 0.51709 0.35575 0.0
C3585 C 0.61954 0.50893 0.3373 0.0
C3586 C 0.61459 0.51526 0.37089 0.0
C3587 C 0.56272 0.50438 0.38192 0.0
H3588 H 0.58526 0.50313 0.43255 0.0
C3589 C 0.51833 0.49732 0.44928 0.0
C3590 C 0.52512 0.51259 0.46397 0.0
C3591 C 0.52934 0.4947 0.4336 0.0
C3592 C 0.57877 0.50345 0.41848 0.0
H3593 H 0.59447 0.4919 0.32053 0.0
H3594 H 0.57377 0.48802 0.34712 0.0
H3595 H 0.60524 0.50157 0.40556 0.0
H3596 H 0.54854 0.53727 0.47356 0.0
H3597 H 0.56813 0.5321 0.44674 0.0
H3598 H 0.53611 0.50586 0.39509 0.0
C3599 C 0.5884 0.49638 0.34978 0.0
C3600 C 0.59024 0.50271 0.40297 0.0
C3601 C 0.60032 0.49847 0.33451 0.0
C3602 C 0.54316 0.52505 0.46276 0.0
C3603 C 0.55432 0.52217 0.44734 0.0
C3604 C 0.55116 0.50474 0.39744 0.0
C3605 C 0.59532 0.5049 0.36819 0.0
C3606 C 0.58253 0.50365 0.38448 0.0
C3607 C 0.54748 0.50707 0.43254 0.0
C3608 C 0.55918 0.5047 0.4159 0.0
H3609 H 0.64119 0.52538 0.35851 0.0
H3610 H 0.62043 0.52248 0.38466 0.0
H3611 H 0.55623 0.50538 0.36801 0.0
H3612 H 0.50442 0.48756 0.44977 0.0
H3613 H 0.52376 0.48294 0.42238 0.0
C3614 C 0.23257 0.87307 0.06409 0.0
C3615 C 0.22679 0.86242 0.04632 0.0
C3616 C 0.23354 0.86283 0.08014 0.0
C3617 C 0.22114 0.81381 0.09985 0.0
H3618 H 0.26937 0.83408 0.12966 0.0
C3619 C 0.24964 0.77609 0.1638 0.0
C3620 C 0.25447 0.78972 0.18009 0.0
C3621 C 0.24569 0.78309 0.14633 0.0
C3622 C 0.25586 0.82825 0.12145 0.0
H3623 H 0.21592 0.8329 0.03157 0.0
H3624 H 0.21788 0.81492 0.05968 0.0
H3625 H 0.26164 0.85034 0.10193 0.0
H3626 H 0.25912 0.82116 0.19104 0.0
H3627 H 0.25261 0.83329 0.16073 0.0
H3628 H 0.21552 0.79166 0.11967 0.0
C3629 C 0.22156 0.83118 0.06121 0.0
C3630 C 0.25133 0.83765 0.10568 0.0
C3631 C 0.22042 0.84149 0.04513 0.0
C3632 C 0.25551 0.81033 0.17867 0.0
C3633 C 0.25184 0.81729 0.16133 0.0
C3634 C 0.22574 0.8043 0.1157 0.0
C3635 C 0.22896 0.84172 0.0787 0.0
C3636 C 0.23373 0.83088 0.09497 0.0
C3637 C 0.24686 0.80379 0.145 0.0
C3638 C 0.24296 0.81177 0.12684 0.0
H3639 H 0.23735 0.88924 0.06544 0.0
H3640 H 0.23874 0.8714 0.09355 0.0
H3641 H 0.20751 0.80821 0.09179 0.0
H3642 H 0.24862 0.7601 0.16464 0.0
H3643 H 0.24189 0.77243 0.13387 0.0
C3644 C 0.93851 0.57412 0.84581 0.0
C3645 C 0.91943 0.56417 0.84752 0.0
C3646 C 0.95136 0.57954 0.86178 0.0
C3647 C 0.95408 0.58195 0.91475 0.0
H3648 H 0.00345 0.56558 0.90779 0.0
C3649 C 0.99247 0.54076 0.96624 0.0
C3650 C 0.01118 0.54971 0.97353 0.0
C3651 C 0.98342 0.54894 0.95185 0.0
C3652 C 0.98994 0.5707 0.90988 0.0
H3653 H 0.89863 0.55311 0.86752 0.0
H3654 H 0.92101 0.56186 0.89509 0.0
H3655 H 0.98286 0.56889 0.88016 0.0
H3656 H 0.03555 0.57367 0.97097 0.0
H3657 H 0.01984 0.58752 0.94476 0.0
H3658 H 0.96054 0.58177 0.94452 0.0
C3659 C 0.92608 0.56595 0.88155 0.0
C3660 C 0.97811 0.57264 0.89408 0.0
C3661 C 0.91321 0.56072 0.86564 0.0
C3662 C 0.02102 0.56663 0.96567 0.0
C3663 C 0.01208 0.57458 0.95083 0.0
C3664 C 0.96576 0.57966 0.9305 0.0
C3665 C 0.94544 0.57499 0.87979 0.0
C3666 C 0.95967 0.57745 0.89633 0.0
C3667 C 0.99311 0.56589 0.94406 0.0
C3668 C 0.98343 0.57333 0.92811 0.0
H3669 H 0.94371 0.57724 0.83206 0.0
H3670 H 0.96607 0.5868 0.85995 0.0
H3671 H 0.94021 0.58618 0.91702 0.0
H3672 H 0.98487 0.52724 0.9715 0.0
H3673 H 0.96895 0.54174 0.94647 0.0
C3674 C 0.26232 0.17546 0.56449 0.0
C3675 C 0.2733 0.18659 0.55167 0.0
C3676 C 0.26177 0.18335 0.58323 0.0
C3677 C 0.27144 0.23193 0.61383 0.0
H3678 H 0.26375 0.19667 0.65395 0.0
C3679 C 0.27592 0.25932 0.69395 0.0
C3680 C 0.26046 0.25076 0.70425 0.0
C3681 C 0.2775 0.252 0.67519 0.0
C3682 C 0.26576 0.20665 0.64284 0.0
H3683 H 0.2929 0.21446 0.54864 0.0
H3684 H 0.29266 0.22797 0.58167 0.0
H3685 H 0.26825 0.18276 0.62201 0.0
H3686 H 0.23449 0.22792 0.70297 0.0
H3687 H 0.23756 0.21473 0.67018 0.0
H3688 H 0.2696 0.25591 0.63506 0.0
C3689 C 0.28395 0.21336 0.57709 0.0
C3690 C 0.26828 0.19871 0.62449 0.0
C3691 C 0.28426 0.20555 0.55818 0.0
C3692 C 0.2465 0.23485 0.69535 0.0
C3693 C 0.24832 0.22724 0.67667 0.0
C3694 C 0.26927 0.23992 0.63228 0.0
C3695 C 0.27243 0.20249 0.58981 0.0
C3696 C 0.27094 0.21119 0.60964 0.0
C3697 C 0.26388 0.23572 0.66646 0.0
C3698 C 0.26621 0.22731 0.64691 0.0
H3699 H 0.25355 0.16087 0.55989 0.0
H3700 H 0.25242 0.17462 0.59236 0.0
H3701 H 0.27309 0.24202 0.6028 0.0
H3702 H 0.28685 0.27168 0.70042 0.0
H3703 H 0.28967 0.25873 0.66766 0.0
C3704 C 0.62734 0.5088 0.21226 0.0
C3705 C 0.61529 0.50446 0.22715 0.0
C3706 C 0.61957 0.51167 0.19446 0.0
C3707 C 0.57312 0.5062 0.16495 0.0
H3708 H 0.60262 0.54877 0.13949 0.0
C3709 C 0.54021 0.53988 0.102 0.0
C3710 C 0.55119 0.54139 0.08599 0.0
C3711 C 0.54831 0.53558 0.11917 0.0
C3712 C 0.59427 0.53675 0.14636 0.0
H3713 H 0.58552 0.49899 0.23483 0.0
H3714 H 0.57194 0.50446 0.20399 0.0
H3715 H 0.6159 0.53955 0.16901 0.0
H3716 H 0.57943 0.54035 0.07554 0.0
H3717 H 0.59375 0.53331 0.1057 0.0
H3718 H 0.55126 0.5039 0.14244 0.0
C3719 C 0.58741 0.50528 0.20584 0.0
C3720 C 0.60192 0.53133 0.16326 0.0
C3721 C 0.59519 0.50213 0.2236 0.0
C3722 C 0.57067 0.53938 0.08769 0.0
C3723 C 0.57885 0.53533 0.10494 0.0
C3724 C 0.56537 0.5118 0.14816 0.0
C3725 C 0.59953 0.51059 0.19114 0.0
C3726 C 0.59148 0.51595 0.17281 0.0
C3727 C 0.56764 0.53295 0.12076 0.0
C3728 C 0.57586 0.52715 0.13868 0.0
H3729 H 0.64289 0.51058 0.21451 0.0
H3730 H 0.62936 0.51515 0.1834 0.0
H3731 H 0.56473 0.49408 0.17164 0.0
H3732 H 0.52514 0.54128 0.10109 0.0
H3733 H 0.53939 0.53411 0.13117 0.0
C3734 C 0.24708 0.87862 0.92412 0.0
C3735 C 0.23811 0.87185 0.94024 0.0
C3736 C 0.24638 0.86558 0.90771 0.0
C3737 C 0.22171 0.8195 0.88063 0.0
H3738 H 0.27289 0.81652 0.86399 0.0
C3739 C 0.23386 0.76836 0.81405 0.0
C3740 C 0.24681 0.77818 0.80194 0.0
C3741 C 0.23251 0.77717 0.83243 0.0
C3742 C 0.25849 0.81722 0.8684 0.0
H3743 H 0.21989 0.84656 0.95113 0.0
H3744 H 0.21843 0.82393 0.92214 0.0
H3745 H 0.26946 0.83828 0.89228 0.0
H3746 H 0.26881 0.80453 0.79959 0.0
H3747 H 0.26644 0.81979 0.83122 0.0
H3748 H 0.21069 0.79905 0.85623 0.0
C3749 C 0.22623 0.83925 0.92247 0.0
C3750 C 0.25655 0.82968 0.88456 0.0
C3751 C 0.22712 0.85222 0.93903 0.0
C3752 C 0.25879 0.79651 0.80864 0.0
C3753 C 0.25749 0.80524 0.82686 0.0
C3754 C 0.22363 0.80717 0.86424 0.0
C3755 C 0.23646 0.84564 0.90696 0.0
C3756 C 0.23816 0.83128 0.89056 0.0
C3757 C 0.24419 0.79583 0.83892 0.0
C3758 C 0.24205 0.80631 0.8577 0.0
H3759 H 0.25551 0.89366 0.92444 0.0
H3760 H 0.25412 0.8709 0.89575 0.0
H3761 H 0.20739 0.82046 0.88511 0.0
H3762 H 0.22444 0.75422 0.80916 0.0
H3763 H 0.22223 0.76951 0.84146 0.0
C3764 C 0.91383 0.53213 0.72452 0.0
C3765 C 0.92226 0.54703 0.73898 0.0
C3766 C 0.92251 0.53025 0.70737 0.0
C3767 C 0.95416 0.55661 0.67536 0.0
H3768 H 0.96494 0.50397 0.65908 0.0
C3769 C 0.99395 0.54339 0.60773 0.0
C3770 C 0.98726 0.52531 0.59632 0.0
C3771 C 0.98763 0.54617 0.62595 0.0
C3772 C 0.96183 0.5187 0.66326 0.0
H3773 H 0.94589 0.57216 0.74659 0.0
H3774 H 0.96082 0.56915 0.71622 0.0
H3775 H 0.94978 0.50917 0.68882 0.0
H3776 H 0.96903 0.49585 0.59488 0.0
H3777 H 0.95742 0.50086 0.62639 0.0
H3778 H 0.9654 0.56604 0.64954 0.0
C3779 C 0.94763 0.55884 0.71836 0.0
C3780 C 0.95323 0.52167 0.68033 0.0
C3781 C 0.93912 0.56052 0.73569 0.0
C3782 C 0.97451 0.50987 0.60351 0.0
C3783 C 0.96795 0.51275 0.62161 0.0
C3784 C 0.96247 0.55357 0.65812 0.0
C3785 C 0.93959 0.54342 0.70424 0.0
C3786 C 0.94922 0.5406 0.68645 0.0
C3787 C 0.97426 0.53103 0.633 0.0
C3788 C 0.96631 0.53453 0.65179 0.0
H3789 H 0.90086 0.52149 0.72666 0.0
H3790 H 0.91596 0.51838 0.69657 0.0
H3791 H 0.95108 0.57131 0.67979 0.0
H3792 H 0.00387 0.55549 0.60248 0.0
H3793 H 0.99313 0.56027 0.63444 0.0
C3794 C 0.26591 0.1781 0.42264 0.0
C3795 C 0.27083 0.18592 0.44161 0.0
C3796 C 0.26798 0.19062 0.40806 0.0
C3797 C 0.29276 0.23873 0.39395 0.0
H3798 H 0.24894 0.23091 0.35726 0.0
C3799 C 0.28783 0.28738 0.33031 0.0
C3800 C 0.27896 0.27686 0.31331 0.0
C3801 C 0.28819 0.27758 0.3469 0.0
C3802 C 0.26141 0.23317 0.36724 0.0
H3803 H 0.28242 0.21315 0.45992 0.0
H3804 H 0.28619 0.2351 0.43419 0.0
H3805 H 0.2471 0.21162 0.38453 0.0
H3806 H 0.26438 0.24772 0.30012 0.0
H3807 H 0.26553 0.23065 0.32857 0.0
H3808 H 0.30719 0.2601 0.37631 0.0
C3809 C 0.28066 0.21918 0.43079 0.0
C3810 C 0.26032 0.22215 0.38291 0.0
C3811 C 0.27843 0.20661 0.44551 0.0
C3812 C 0.27124 0.25628 0.313 0.0
C3813 C 0.27172 0.24652 0.3294 0.0
C3814 C 0.29392 0.24976 0.3781 0.0
C3815 C 0.27513 0.21132 0.41195 0.0
C3816 C 0.27608 0.22448 0.39626 0.0
C3817 C 0.27972 0.25712 0.34669 0.0
C3818 C 0.27837 0.24677 0.36435 0.0
H3819 H 0.26008 0.16227 0.41898 0.0
H3820 H 0.26388 0.18406 0.39366 0.0
H3821 H 0.30514 0.24082 0.40403 0.0
H3822 H 0.29386 0.30328 0.33094 0.0
H3823 H 0.29446 0.28619 0.35998 0.0
C3824 C 0.31599 0.61273 0.51707 0.0
C3825 C 0.2998 0.60596 0.50431 0.0
C3826 C 0.33135 0.60233 0.51733 0.0
C3827 C 0.35536 0.56792 0.48874 0.0
H3828 H 0.37567 0.55652 0.53743 0.0
C3829 C 0.4195 0.52604 0.49519 0.0
C3830 C 0.43383 0.53489 0.50932 0.0
C3831 C 0.40146 0.53194 0.4947 0.0
C3832 C 0.37024 0.55967 0.52372 0.0
H3833 H 0.28733 0.58327 0.48144 0.0
H3834 H 0.31433 0.56533 0.4818 0.0
H3835 H 0.34799 0.57335 0.53589 0.0
H3836 H 0.44048 0.55619 0.53438 0.0
H3837 H 0.40936 0.56663 0.53341 0.0
H3838 H 0.37801 0.55488 0.47661 0.0
C3839 C 0.31502 0.57861 0.49163 0.0
C3840 C 0.35441 0.56931 0.52287 0.0
C3841 C 0.29956 0.58887 0.4915 0.0
C3842 C 0.42967 0.54912 0.52331 0.0
C3843 C 0.41175 0.555 0.52283 0.0
C3844 C 0.37134 0.55842 0.48961 0.0
C3845 C 0.33094 0.58509 0.50472 0.0
C3846 C 0.34702 0.57383 0.50541 0.0
C3847 C 0.39751 0.54672 0.50838 0.0
C3848 C 0.37918 0.55453 0.50716 0.0
H3849 H 0.31664 0.6258 0.52715 0.0
H3850 H 0.34359 0.60779 0.52741 0.0
H3851 H 0.34997 0.5713 0.4751 0.0
H3852 H 0.42241 0.51501 0.48426 0.0
H3853 H 0.39071 0.52512 0.48351 0.0
C3854 C 0.82569 0.91214 0.51508 0.0
C3855 C 0.81168 0.91993 0.52519 0.0
C3856 C 0.84471 0.9228 0.51598 0.0
C3857 C 0.87302 0.97447 0.52919 0.0
H3858 H 0.91653 0.9478 0.52137 0.0
C3859 C 0.95199 0.01775 0.53341 0.0
C3860 C 0.96472 0.01055 0.52108 0.0
C3861 C 0.93322 0.00695 0.5343 0.0
C3862 C 0.90448 0.9555 0.52324 0.0
H3863 H 0.8066 0.94353 0.54575 0.0
H3864 H 0.8399 0.96179 0.54809 0.0
H3865 H 0.88458 0.92781 0.52371 0.0
H3866 H 0.96767 0.98695 0.4994 0.0
H3867 H 0.93475 0.96848 0.50042 0.0
H3868 H 0.8929 0.00216 0.52857 0.0
C3869 C 0.83622 0.94811 0.5386 0.0
C3870 C 0.8861 0.94401 0.52463 0.0
C3871 C 0.81715 0.93765 0.53735 0.0
C3872 C 0.95814 0.99285 0.50906 0.0
C3873 C 0.93935 0.98213 0.50982 0.0
C3874 C 0.89133 0.98595 0.52764 0.0
C3875 C 0.85018 0.94113 0.52754 0.0
C3876 C 0.87003 0.95332 0.52734 0.0
C3877 C 0.92679 0.9888 0.52275 0.0
C3878 C 0.90728 0.97661 0.5245 0.0
H3879 H 0.82174 0.89828 0.50584 0.0
H3880 H 0.85488 0.91699 0.50707 0.0
H3881 H 0.86117 0.98231 0.53146 0.0
H3882 H 0.95674 0.03131 0.54291 0.0
H3883 H 0.92401 0.01246 0.54453 0.0
C3884 C 0.84969 0.09058 0.26643 0.0
C3885 C 0.85906 0.08392 0.2507 0.0
C3886 C 0.84249 0.10844 0.26671 0.0
C3887 C 0.82072 0.13888 0.23695 0.0
H3888 H 0.83506 0.18195 0.27742 0.0
C3889 C 0.78858 0.21177 0.23847 0.0
C3890 C 0.78649 0.22184 0.25617 0.0
C3891 C 0.79796 0.19526 0.23722 0.0
C3892 C 0.83055 0.16995 0.26617 0.0
H3893 H 0.86833 0.09072 0.22296 0.0
H3894 H 0.85507 0.1218 0.2232 0.0
H3895 H 0.85103 0.15299 0.27648 0.0
H3896 H 0.7918 0.22211 0.28645 0.0
H3897 H 0.80698 0.19267 0.28447 0.0
H3898 H 0.79951 0.15504 0.22712 0.0
C3899 C 0.85366 0.11328 0.2354 0.0
C3900 C 0.83992 0.15347 0.26556 0.0
C3901 C 0.86134 0.09563 0.23533 0.0
C3902 C 0.79333 0.21469 0.27261 0.0
C3903 C 0.80227 0.19791 0.27141 0.0
C3904 C 0.81101 0.15515 0.23778 0.0
C3905 C 0.84409 0.11974 0.25107 0.0
C3906 C 0.83505 0.13778 0.25098 0.0
C3907 C 0.80512 0.18816 0.25369 0.0
C3908 C 0.81569 0.17091 0.25248 0.0
H3909 H 0.84773 0.08183 0.27846 0.0
H3910 H 0.8351 0.11309 0.2789 0.0
H3911 H 0.81657 0.1268 0.22569 0.0
H3912 H 0.78368 0.21715 0.22553 0.0
H3913 H 0.80007 0.18847 0.22329 0.0
C3914 C 0.69724 0.1541 0.00848 0.0
C3915 C 0.71057 0.14349 0.01607 0.0
C3916 C 0.67738 0.14713 0.00948 0.0
C3917 C 0.63803 0.119 0.00157 0.0
H3918 H 0.618 0.0956 0.04616 0.0
C3919 C 0.56846 0.05885 0.99925 0.0
C3920 C 0.55659 0.05937 0.01458 0.0
C3921 C 0.58613 0.07219 0.9997 0.0
C3922 C 0.62324 0.1023 0.03365 0.0
H3923 H 0.71417 0.11871 0.03217 0.0
H3924 H 0.67972 0.10643 0.03385 0.0
H3925 H 0.65088 0.1146 0.04767 0.0
H3926 H 0.55358 0.07486 0.04207 0.0
H3927 H 0.58425 0.09813 0.04276 0.0
H3928 H 0.6104 0.10641 0.98749 0.0
C3929 C 0.68432 0.11994 0.02697 0.0
C3930 C 0.64214 0.11303 0.03449 0.0
C3931 C 0.70402 0.12678 0.0258 0.0
C3932 C 0.5625 0.07384 0.03013 0.0
C3933 C 0.5801 0.08719 0.03055 0.0
C3934 C 0.61909 0.10818 0.00071 0.0
C3935 C 0.67076 0.12979 0.01853 0.0
C3936 C 0.64989 0.12108 0.01834 0.0
C3937 C 0.59222 0.08636 0.01546 0.0
C3938 C 0.61163 0.09939 0.01666 0.0
H3939 H 0.70214 0.1673 0.00126 0.0
H3940 H 0.66724 0.15513 0.00302 0.0
H3941 H 0.64363 0.12496 0.98888 0.0
H3942 H 0.56431 0.04791 0.98705 0.0
H3943 H 0.59526 0.07101 0.98795 0.0
C3944 C 0.1431 0.45828 0.25744 0.0
C3945 C 0.14778 0.47595 0.2699 0.0
C3946 C 0.15464 0.44363 0.25761 0.0
C3947 C 0.19152 0.42485 0.28549 0.0
H3948 H 0.20796 0.40779 0.23627 0.0
C3949 C 0.24849 0.37396 0.27751 0.0
C3950 C 0.24402 0.35808 0.26307 0.0
C3951 C 0.23791 0.38951 0.27836 0.0
C3952 C 0.20338 0.41224 0.2501 0.0
H3953 H 0.1675 0.49148 0.29314 0.0
H3954 H 0.18749 0.46578 0.29349 0.0
H3955 H 0.18557 0.43117 0.23862 0.0
H3956 H 0.22559 0.34622 0.23783 0.0
H3957 H 0.20701 0.37303 0.23942 0.0
H3958 H 0.20904 0.40563 0.29695 0.0
C3959 C 0.17498 0.46336 0.28354 0.0
C3960 C 0.19053 0.42559 0.25143 0.0
C3961 C 0.16356 0.47809 0.28327 0.0
C3962 C 0.22936 0.35834 0.2491 0.0
C3963 C 0.21877 0.37378 0.24997 0.0
C3964 C 0.20427 0.41133 0.28415 0.0
C3965 C 0.17095 0.44628 0.27036 0.0
C3966 C 0.18438 0.43191 0.26911 0.0
C3967 C 0.22268 0.38937 0.26478 0.0
C3968 C 0.21024 0.40478 0.26641 0.0
H3969 H 0.13105 0.45614 0.24696 0.0
H3970 H 0.15108 0.43043 0.24747 0.0
H3971 H 0.18694 0.42946 0.29928 0.0
H3972 H 0.25975 0.37406 0.28844 0.0
H3973 H 0.24146 0.40148 0.28978 0.0
C3974 C 0.20665 0.43332 0.00756 0.0
C3975 C 0.21168 0.42035 0.0205 0.0
C3976 C 0.1893 0.44026 0.00845 0.0
C3977 C 0.15337 0.45076 0.04162 0.0
H3978 H 0.1259 0.46013 0.99567 0.0
C3979 C 0.08421 0.48652 0.03986 0.0
C3980 C 0.08382 0.50106 0.02703 0.0
C3981 C 0.09907 0.47542 0.04003 0.0
C3982 C 0.13349 0.45771 0.00862 0.0
H3983 H 0.20204 0.40392 0.04417 0.0
H3984 H 0.17134 0.41612 0.0457 0.0
H3985 H 0.15183 0.44089 0.99358 0.0
H3986 H 0.09888 0.51589 0.00477 0.0
H3987 H 0.12487 0.49648 0.00502 0.0
H3988 H 0.13495 0.46776 0.05661 0.0
C3989 C 0.18107 0.42097 0.03495 0.0
C3990 C 0.14831 0.44665 0.00744 0.0
C3991 C 0.19854 0.41387 0.03399 0.0
C3992 C 0.09885 0.50478 0.0148 0.0
C3993 C 0.11361 0.49355 0.01484 0.0
C3994 C 0.1384 0.46174 0.04281 0.0
C3995 C 0.17639 0.43445 0.02229 0.0
C3996 C 0.15878 0.44349 0.02388 0.0
C3997 C 0.11369 0.47852 0.02723 0.0
C3998 C 0.12865 0.46574 0.02627 0.0
H3999 H 0.21636 0.43854 0.9969 0.0
H4000 H 0.18634 0.45083 0.99865 0.0
H4001 H 0.16126 0.44875 0.05454 0.0
H4002 H 0.07276 0.48338 0.04945 0.0
H4003 H 0.09875 0.46392 0.0497 0.0
C4004 C 0.8775 0.96585 0.23999 0.0
C4005 C 0.86798 0.98032 0.23301 0.0
C4006 C 0.86855 0.94562 0.23807 0.0
C4007 C 0.84242 0.9076 0.24544 0.0
H4008 H 0.79988 0.88588 0.20867 0.0
C4009 C 0.78736 0.83773 0.25876 0.0
C4010 C 0.77679 0.82558 0.24347 0.0
C4011 C 0.7997 0.85556 0.2558 0.0
C4012 C 0.81194 0.89137 0.2189 0.0
H4013 H 0.84327 0.98497 0.21602 0.0
H4014 H 0.82686 0.95016 0.21378 0.0
H4015 H 0.82045 0.91743 0.20447 0.0
H4016 H 0.77123 0.82181 0.21306 0.0
H4017 H 0.79389 0.85209 0.20755 0.0
H4018 H 0.83495 0.88085 0.25901 0.0
C4019 C 0.84117 0.95395 0.22079 0.0
C4020 C 0.82361 0.90989 0.2167 0.0
C4021 C 0.85034 0.9741 0.22243 0.0
C4022 C 0.77912 0.83116 0.22508 0.0
C4023 C 0.79202 0.84865 0.222 0.0
C4024 C 0.83123 0.88878 0.24724 0.0
C4025 C 0.84979 0.93946 0.22926 0.0
C4026 C 0.83875 0.91859 0.23021 0.0
C4027 C 0.80236 0.8613 0.23735 0.0
C4028 C 0.81544 0.88057 0.23432 0.0
H4029 H 0.8916 0.97028 0.24746 0.0
H4030 H 0.87628 0.93495 0.24391 0.0
H4031 H 0.85357 0.91366 0.25646 0.0
H4032 H 0.78565 0.83376 0.27311 0.0
H4033 H 0.80679 0.86496 0.26813 0.0
C4034 C 0.64433 0.0649 0.73799 0.0
C4035 C 0.62686 0.06259 0.74689 0.0
C4036 C 0.65403 0.08395 0.73482 0.0
C4037 C 0.67889 0.12451 0.74303 0.0
H4038 H 0.65442 0.17064 0.7383 0.0
C4039 C 0.71892 0.20434 0.76548 0.0
C4040 C 0.71814 0.2188 0.75267 0.0
C4041 C 0.70682 0.18558 0.76245 0.0
C4042 C 0.6614 0.15782 0.7395 0.0
H4043 H 0.60492 0.07783 0.75828 0.0
H4044 H 0.62251 0.11151 0.75413 0.0
H4045 H 0.63456 0.13689 0.73552 0.0
H4046 H 0.70358 0.22516 0.72692 0.0
H4047 H 0.68221 0.19217 0.72173 0.0
H4048 H 0.70565 0.14539 0.74716 0.0
C4049 C 0.6286 0.09868 0.74904 0.0
C4050 C 0.65004 0.13851 0.73811 0.0
C4051 C 0.6186 0.07945 0.75167 0.0
C4052 C 0.70462 0.21426 0.73697 0.0
C4053 C 0.69233 0.19547 0.73405 0.0
C4054 C 0.69014 0.14371 0.74459 0.0
C4055 C 0.6467 0.10121 0.74094 0.0
C4056 C 0.65862 0.12161 0.74031 0.0
C4057 C 0.69354 0.1809 0.74664 0.0
C4058 C 0.68149 0.16057 0.74325 0.0
H4059 H 0.65062 0.05193 0.73363 0.0
H4060 H 0.6675 0.08509 0.72791 0.0
H4061 H 0.68621 0.11206 0.74467 0.0
H4062 H 0.72911 0.20734 0.77774 0.0
H4063 H 0.70785 0.17467 0.77251 0.0
loop_
_geom_bond_atom_site_label_1
_geom_bond_atom_site_label_2
_geom_bond_distance
_geom_bond_site_symmetry_2
_ccdc_geom_bond_type
Mn0 O5 2.095 . S
Mn0 O15 2.162 . S
Mn0 O16 2.297 . S
Mn0 O24 2.385 1_455 S
Mn0 O25 2.209 1_455 S
Mn0 O26 2.094 . S
Mn1 O6 2.121 . S
Mn1 N8 2.257 . S
Mn1 N17 2.282 1_455 S
Mn1 O25 2.215 1_455 S
Mn1 O27 2.117 . S
C2 O24 1.234 . S
C2 O25 1.283 . S
C3 O15 1.281 . S
C3 O16 1.236 . S
C4 O26 1.240 . S
C4 O27 1.264 . S
O5 Mn0 2.095 . S
O5 C14 1.250 . S
O6 Mn1 2.121 . S
O6 C14 1.258 . S
C7 N8 1.326 . S
C7 C11 1.460 . S
C7 H13 0.929 . S
N8 Mn1 2.257 . S
N8 C7 1.326 . S
N8 C12 1.362 1_455 S
C9 C10 1.258 . S
C9 C12 1.431 . S
C9 C29 1.449 . S
C10 C9 1.258 . S
C10 C11 1.477 1_655 S
C10 H30 0.931 . S
C11 C7 1.460 . S
C11 C10 1.477 1_455 S
C11 H31 0.930 . S
C12 N8 1.362 1_655 S
C12 C9 1.431 . S
C12 C22 1.476 . S
H13 C7 0.929 . S
C14 O5 1.250 . S
C14 O6 1.258 . S
O15 Mn0 2.162 . S
O15 C3 1.281 . S
O16 Mn0 2.297 . S
O16 C3 1.236 . S
N17 Mn1 2.282 1_655 S
N17 C18 1.328 . S
N17 C22 1.318 . S
C18 N17 1.328 . S
C18 C19 1.457 . S
C18 H23 0.929 . S
C19 C18 1.457 . S
C19 C20 1.291 . S
C19 H32 0.931 . S
C20 C19 1.291 . S
C20 C21 1.373 . S
C20 H33 0.929 . S
C21 C20 1.373 . S
C21 C22 1.396 . S
C21 C28 1.403 . S
C22 C12 1.476 . S
C22 N17 1.318 . S
C22 C21 1.396 . S
H23 C18 0.929 . S
O24 Mn0 2.385 1_655 S
O24 C2 1.234 . S
O25 Mn0 2.209 1_655 S
O25 Mn1 2.215 1_655 S
O25 C2 1.283 . S
O26 Mn0 2.094 . S
O26 C4 1.240 . S
O27 Mn1 2.117 . S
O27 C4 1.264 . S
C28 C21 1.403 . S
C28 C29 1.399 . S
C28 H34 0.929 . S
C29 C9 1.449 . S
C29 C28 1.399 . S
C29 H35 0.930 . S
H30 C10 0.931 . S
H31 C11 0.930 . S
H32 C19 0.931 . S
H33 C20 0.929 . S
H34 C28 0.929 . S
H35 C29 0.930 . S
Mn36 O41 2.095 1_455 S
Mn36 O51 2.162 . S
Mn36 O52 2.297 . S
Mn36 O60 2.385 . S
Mn36 O61 2.209 . S
Mn36 O62 2.094 . S
Mn37 O42 2.121 1_455 S
Mn37 N44 2.257 . S
Mn37 N53 2.282 . S
Mn37 O61 2.215 . S
Mn37 O63 2.117 . S
C38 O60 1.234 . S
C38 O61 1.283 . S
C39 O51 1.281 . S
C39 O52 1.236 . S
C40 O62 1.240 . S
C40 O63 1.264 . S
O41 Mn36 2.095 1_655 S
O41 C50 1.250 . S
O42 Mn37 2.121 1_655 S
O42 C50 1.258 . S
C43 N44 1.326 . S
C43 C47 1.460 . S
C43 H49 0.929 1_455 S
N44 Mn37 2.257 . S
N44 C43 1.326 . S
N44 C48 1.362 . S
C45 C46 1.258 . S
C45 C48 1.431 . S
C45 C65 1.449 . S
C46 C45 1.258 . S
C46 C47 1.477 . S
C46 H66 0.931 . S
C47 C43 1.460 . S
C47 C46 1.477 . S
C47 H67 0.930 . S
C48 N44 1.362 . S
C48 C45 1.431 . S
C48 C58 1.476 . S
H49 C43 0.929 1_655 S
C50 O41 1.250 . S
C50 O42 1.258 . S
O51 Mn36 2.162 . S
O51 C39 1.281 . S
O52 Mn36 2.297 . S
O52 C39 1.236 . S
N53 Mn37 2.282 . S
N53 C54 1.328 . S
N53 C58 1.318 . S
C54 N53 1.328 . S
C54 C55 1.457 . S
C54 H59 0.929 . S
C55 C54 1.457 . S
C55 C56 1.291 . S
C55 H68 0.931 . S
C56 C55 1.291 . S
C56 C57 1.373 . S
C56 H69 0.929 . S
C57 C56 1.373 . S
C57 C58 1.396 . S
C57 C64 1.403 . S
C58 C48 1.476 . S
C58 N53 1.318 . S
C58 C57 1.396 . S
H59 C54 0.929 . S
O60 Mn36 2.385 . S
O60 C38 1.234 . S
O61 Mn36 2.209 . S
O61 Mn37 2.215 . S
O61 C38 1.283 . S
O62 Mn36 2.094 . S
O62 C40 1.240 . S
O63 Mn37 2.117 . S
O63 C40 1.264 . S
C64 C57 1.403 . S
C64 C65 1.399 . S
C64 H70 0.929 . S
C65 C45 1.449 . S
C65 C64 1.399 . S
C65 H71 0.930 . S
H66 C46 0.931 . S
H67 C47 0.930 . S
H68 C55 0.931 . S
H69 C56 0.929 . S
H70 C64 0.929 . S
H71 C65 0.930 . S
Mn72 O77 2.095 . S
Mn72 O87 2.162 . S
Mn72 O88 2.297 . S
Mn72 O96 2.385 . S
Mn72 O97 2.209 . S
Mn72 O98 2.094 . S
Mn73 O78 2.121 . S
Mn73 N80 2.257 . S
Mn73 N89 2.282 . S
Mn73 O97 2.215 . S
Mn73 O99 2.117 . S
C74 O96 1.234 . S
C74 O97 1.283 . S
C75 O87 1.281 . S
C75 O88 1.236 . S
C76 O98 1.240 . S
C76 O99 1.264 . S
O77 Mn72 2.095 . S
O77 C86 1.250 . S
O78 Mn73 2.121 . S
O78 C86 1.258 . S
C79 N80 1.326 . S
C79 C83 1.460 . S
C79 H85 0.929 . S
N80 Mn73 2.257 . S
N80 C79 1.326 . S
N80 C84 1.362 . S
C81 C82 1.258 . S
C81 C84 1.431 . S
C81 C101 1.449 . S
C82 C81 1.258 . S
C82 C83 1.477 . S
C82 H102 0.931 . S
C83 C79 1.460 . S
C83 C82 1.477 . S
C83 H103 0.930 . S
C84 N80 1.362 . S
C84 C81 1.431 . S
C84 C94 1.476 . S
H85 C79 0.929 . S
C86 O77 1.250 . S
C86 O78 1.258 . S
O87 Mn72 2.162 . S
O87 C75 1.281 . S
O88 Mn72 2.297 . S
O88 C75 1.236 . S
N89 Mn73 2.282 . S
N89 C90 1.328 . S
N89 C94 1.318 . S
C90 N89 1.328 . S
C90 C91 1.457 . S
C90 H95 0.929 . S
C91 C90 1.457 . S
C91 C92 1.291 . S
C91 H104 0.931 . S
C92 C91 1.291 . S
C92 C93 1.373 . S
C92 H105 0.929 . S
C93 C92 1.373 . S
C93 C94 1.396 . S
C93 C100 1.403 . S
C94 C84 1.476 . S
C94 N89 1.318 . S
C94 C93 1.396 . S
H95 C90 0.929 . S
O96 Mn72 2.385 . S
O96 C74 1.234 . S
O97 Mn72 2.209 . S
O97 Mn73 2.215 . S
O97 C74 1.283 . S
O98 Mn72 2.094 . S
O98 C76 1.240 . S
O99 Mn73 2.117 . S
O99 C76 1.264 . S
C100 C93 1.403 . S
C100 C101 1.399 . S
C100 H106 0.929 . S
C101 C81 1.449 . S
C101 C100 1.399 . S
C101 H107 0.930 . S
H102 C82 0.931 . S
H103 C83 0.930 . S
H104 C91 0.931 . S
H105 C92 0.929 . S
H106 C100 0.929 . S
H107 C101 0.930 . S
Mn108 O113 2.095 . S
Mn108 O123 2.162 . S
Mn108 O124 2.297 . S
Mn108 O132 2.385 . S
Mn108 O133 2.209 . S
Mn108 O134 2.094 . S
Mn109 O114 2.121 . S
Mn109 N116 2.257 . S
Mn109 N125 2.282 . S
Mn109 O133 2.215 . S
Mn109 O135 2.117 . S
C110 O132 1.234 . S
C110 O133 1.283 . S
C111 O123 1.281 . S
C111 O124 1.236 . S
C112 O134 1.240 . S
C112 O135 1.264 . S
O113 Mn108 2.095 . S
O113 C122 1.250 . S
O114 Mn109 2.121 . S
O114 C122 1.258 . S
C115 N116 1.326 . S
C115 C119 1.460 . S
C115 H121 0.929 . S
N116 Mn109 2.257 . S
N116 C115 1.326 . S
N116 C120 1.362 . S
C117 C118 1.258 . S
C117 C120 1.431 . S
C117 C137 1.449 . S
C118 C117 1.258 . S
C118 C119 1.477 . S
C118 H138 0.931 . S
C119 C115 1.460 . S
C119 C118 1.477 . S
C119 H139 0.930 . S
C120 N116 1.362 . S
C120 C117 1.431 . S
C120 C130 1.476 . S
H121 C115 0.929 . S
C122 O113 1.250 . S
C122 O114 1.258 . S
O123 Mn108 2.162 . S
O123 C111 1.281 . S
O124 Mn108 2.297 . S
O124 C111 1.236 . S
N125 Mn109 2.282 . S
N125 C126 1.328 . S
N125 C130 1.318 . S
C126 N125 1.328 . S
C126 C127 1.457 . S
C126 H131 0.929 . S
C127 C126 1.457 . S
C127 C128 1.291 . S
C127 H140 0.931 . S
C128 C127 1.291 . S
C128 C129 1.373 . S
C128 H141 0.929 . S
C129 C128 1.373 . S
C129 C130 1.396 . S
C129 C136 1.403 . S
C130 C120 1.476 . S
C130 N125 1.318 . S
C130 C129 1.396 . S
H131 C126 0.929 . S
O132 Mn108 2.385 . S
O132 C110 1.234 . S
O133 Mn108 2.209 . S
O133 Mn109 2.215 . S
O133 C110 1.283 . S
O134 Mn108 2.094 . S
O134 C112 1.240 . S
O135 Mn109 2.117 . S
O135 C112 1.264 . S
C136 C129 1.403 . S
C136 C137 1.399 . S
C136 H142 0.929 . S
C137 C117 1.449 . S
C137 C136 1.399 . S
C137 H143 0.930 . S
H138 C118 0.931 . S
H139 C119 0.930 . S
H140 C127 0.931 . S
H141 C128 0.929 . S
H142 C136 0.929 . S
H143 C137 0.930 . S
Mn144 O149 2.095 . S
Mn144 O159 2.162 . S
Mn144 O160 2.297 . S
Mn144 O168 2.385 . S
Mn144 O169 2.209 . S
Mn144 O170 2.094 1_455 S
Mn145 O150 2.121 1_655 S
Mn145 N152 2.257 . S
Mn145 N161 2.282 . S
Mn145 O169 2.215 1_655 S
Mn145 O171 2.117 . S
C146 O168 1.234 . S
C146 O169 1.283 . S
C147 O159 1.281 . S
C147 O160 1.236 . S
C148 O170 1.240 . S
C148 O171 1.264 . S
O149 Mn144 2.095 . S
O149 C158 1.250 . S
O150 Mn145 2.121 1_455 S
O150 C158 1.258 . S
C151 N152 1.330 . S
C151 C155 1.459 . S
C151 H157 0.926 1_655 S
N152 Mn145 2.257 . S
N152 C151 1.330 . S
N152 C156 1.362 . S
C153 C154 1.258 . S
C153 C156 1.431 . S
C153 C173 1.449 . S
C154 C153 1.258 . S
C154 C155 1.477 . S
C154 H174 0.931 . S
C155 C151 1.459 . S
C155 C154 1.477 . S
C155 H175 0.930 1_655 S
C156 N152 1.362 . S
C156 C153 1.431 . S
C156 C166 1.476 . S
H157 C151 0.926 1_455 S
C158 O149 1.250 . S
C158 O150 1.258 . S
O159 Mn144 2.162 . S
O159 C147 1.281 . S
O160 Mn144 2.297 . S
O160 C147 1.236 . S
N161 Mn145 2.282 . S
N161 C162 1.328 . S
N161 C166 1.318 . S
C162 N161 1.328 . S
C162 C163 1.457 . S
C162 H167 0.929 . S
C163 C162 1.457 . S
C163 C164 1.291 . S
C163 H176 0.931 . S
C164 C163 1.291 . S
C164 C165 1.373 . S
C164 H177 0.929 . S
C165 C164 1.373 . S
C165 C166 1.396 . S
C165 C172 1.403 . S
C166 C156 1.476 . S
C166 N161 1.318 . S
C166 C165 1.396 . S
H167 C162 0.929 . S
O168 Mn144 2.385 . S
O168 C146 1.234 . S
O169 Mn144 2.209 . S
O169 Mn145 2.215 1_455 S
O169 C146 1.283 . S
O170 Mn144 2.094 1_655 S
O170 C148 1.240 . S
O171 Mn145 2.117 . S
O171 C148 1.264 . S
C172 C165 1.403 . S
C172 C173 1.399 . S
C172 H178 0.929 . S
C173 C153 1.449 . S
C173 C172 1.399 . S
C173 H179 0.930 . S
H174 C154 0.931 . S
H175 C155 0.930 1_455 S
H176 C163 0.931 . S
H177 C164 0.929 . S
H178 C172 0.929 . S
H179 C173 0.930 . S
Mn180 O185 2.095 . S
Mn180 O195 2.162 . S
Mn180 O196 2.297 . S
Mn180 O204 2.385 . S
Mn180 O205 2.209 . S
Mn180 O206 2.094 . S
Mn181 O186 2.121 . S
Mn181 N188 2.257 . S
Mn181 N197 2.282 . S
Mn181 O205 2.215 . S
Mn181 O207 2.117 . S
C182 O204 1.234 . S
C182 O205 1.283 . S
C183 O195 1.281 . S
C183 O196 1.236 . S
C184 O206 1.240 . S
C184 O207 1.264 . S
O185 Mn180 2.095 . S
O185 C194 1.250 . S
O186 Mn181 2.121 . S
O186 C194 1.258 . S
C187 N188 1.326 . S
C187 C191 1.460 . S
C187 H193 0.929 . S
N188 Mn181 2.257 . S
N188 C187 1.326 . S
N188 C192 1.362 . S
C189 C190 1.258 . S
C189 C192 1.431 . S
C189 C209 1.449 . S
C190 C189 1.258 . S
C190 C191 1.477 . S
C190 H210 0.931 . S
C191 C187 1.460 . S
C191 C190 1.477 . S
C191 H211 0.930 . S
C192 N188 1.362 . S
C192 C189 1.431 . S
C192 C202 1.476 . S
H193 C187 0.929 . S
C194 O185 1.250 . S
C194 O186 1.258 . S
O195 Mn180 2.162 . S
O195 C183 1.281 . S
O196 Mn180 2.297 . S
O196 C183 1.236 . S
N197 Mn181 2.282 . S
N197 C198 1.328 . S
N197 C202 1.318 . S
C198 N197 1.328 . S
C198 C199 1.457 . S
C198 H203 0.929 . S
C199 C198 1.457 . S
C199 C200 1.291 . S
C199 H212 0.931 . S
C200 C199 1.291 . S
C200 C201 1.373 . S
C200 H213 0.929 . S
C201 C200 1.373 . S
C201 C202 1.396 . S
C201 C208 1.403 . S
C202 C192 1.476 . S
C202 N197 1.318 . S
C202 C201 1.396 . S
H203 C198 0.929 . S
O204 Mn180 2.385 . S
O204 C182 1.234 . S
O205 Mn180 2.209 . S
O205 Mn181 2.215 . S
O205 C182 1.283 . S
O206 Mn180 2.094 . S
O206 C184 1.240 . S
O207 Mn181 2.117 . S
O207 C184 1.264 . S
C208 C201 1.403 . S
C208 C209 1.399 . S
C208 H214 0.929 . S
C209 C189 1.449 . S
C209 C208 1.399 . S
C209 H215 0.930 . S
H210 C190 0.931 . S
H211 C191 0.930 . S
H212 C199 0.931 . S
H213 C200 0.929 . S
H214 C208 0.929 . S
H215 C209 0.930 . S
Mn216 O221 2.095 . S
Mn216 O231 2.162 . S
Mn216 O232 2.297 . S
Mn216 O240 2.385 . S
Mn216 O241 2.209 . S
Mn216 O242 2.094 . S
Mn217 O222 2.121 . S
Mn217 N224 2.257 . S
Mn217 N233 2.282 . S
Mn217 O241 2.215 . S
Mn217 O243 2.117 . S
C218 O240 1.234 . S
C218 O241 1.283 . S
C219 O231 1.281 . S
C219 O232 1.236 . S
C220 O242 1.240 . S
C220 O243 1.264 . S
O221 Mn216 2.095 . S
O221 C230 1.250 . S
O222 Mn217 2.121 . S
O222 C230 1.258 . S
C223 N224 1.326 . S
C223 C227 1.460 . S
C223 H229 0.929 . S
N224 Mn217 2.257 . S
N224 C223 1.326 . S
N224 C228 1.362 . S
C225 C226 1.258 . S
C225 C228 1.431 . S
C225 C245 1.449 . S
C226 C225 1.258 . S
C226 C227 1.477 . S
C226 H246 0.931 . S
C227 C223 1.460 . S
C227 C226 1.477 . S
C227 H247 0.930 . S
C228 N224 1.362 . S
C228 C225 1.431 . S
C228 C238 1.476 . S
H229 C223 0.929 . S
C230 O221 1.250 . S
C230 O222 1.258 . S
O231 Mn216 2.162 . S
O231 C219 1.281 . S
O232 Mn216 2.297 . S
O232 C219 1.236 . S
N233 Mn217 2.282 . S
N233 C234 1.328 . S
N233 C238 1.318 . S
C234 N233 1.328 . S
C234 C235 1.457 . S
C234 H239 0.929 . S
C235 C234 1.457 . S
C235 C236 1.291 . S
C235 H248 0.931 . S
C236 C235 1.291 . S
C236 C237 1.373 . S
C236 H249 0.929 . S
C237 C236 1.373 . S
C237 C238 1.396 . S
C237 C244 1.403 . S
C238 C228 1.476 . S
C238 N233 1.318 . S
C238 C237 1.396 . S
H239 C234 0.929 . S
O240 Mn216 2.385 . S
O240 C218 1.234 . S
O241 Mn216 2.209 . S
O241 Mn217 2.215 . S
O241 C218 1.283 . S
O242 Mn216 2.094 . S
O242 C220 1.240 . S
O243 Mn217 2.117 . S
O243 C220 1.264 . S
C244 C237 1.403 . S
C244 C245 1.399 . S
C244 H250 0.929 . S
C245 C225 1.449 . S
C245 C244 1.399 . S
C245 H251 0.930 . S
H246 C226 0.931 . S
H247 C227 0.930 . S
H248 C235 0.931 . S
H249 C236 0.929 . S
H250 C244 0.929 . S
H251 C245 0.930 . S
Mn252 O257 2.095 . S
Mn252 O267 2.162 . S
Mn252 O268 2.297 1_455 S
Mn252 O276 2.385 1_455 S
Mn252 O277 2.209 1_455 S
Mn252 O278 2.094 . S
Mn253 O258 2.121 . S
Mn253 N260 2.257 1_455 S
Mn253 N269 2.282 1_455 S
Mn253 O277 2.215 1_455 S
Mn253 O279 2.117 . S
C254 O276 1.234 . S
C254 O277 1.283 . S
C255 O267 1.281 1_655 S
C255 O268 1.236 . S
C256 O278 1.240 . S
C256 O279 1.264 . S
O257 Mn252 2.095 . S
O257 C266 1.250 . S
O258 Mn253 2.121 . S
O258 C266 1.258 . S
C259 N260 1.326 1_455 S
C259 C263 1.460 1_455 S
C259 H265 0.929 . S
N260 Mn253 2.257 1_655 S
N260 C259 1.326 1_655 S
N260 C264 1.362 . S
C261 C262 1.258 . S
C261 C264 1.431 . S
C261 C281 1.449 . S
C262 C261 1.258 . S
C262 C263 1.477 . S
C262 H282 0.931 . S
C263 C259 1.460 1_655 S
C263 C262 1.477 . S
C263 H283 0.930 1_655 S
C264 N260 1.362 . S
C264 C261 1.431 . S
C264 C274 1.476 . S
H265 C259 0.929 . S
C266 O257 1.250 . S
C266 O258 1.258 . S
O267 Mn252 2.162 . S
O267 C255 1.281 1_455 S
O268 Mn252 2.297 1_655 S
O268 C255 1.236 . S
N269 Mn253 2.282 1_655 S
N269 C270 1.328 . S
N269 C274 1.318 . S
C270 N269 1.328 . S
C270 C271 1.457 . S
C270 H275 0.929 . S
C271 C270 1.457 . S
C271 C272 1.291 . S
C271 H284 0.931 . S
C272 C271 1.291 . S
C272 C273 1.373 . S
C272 H285 0.929 . S
C273 C272 1.373 . S
C273 C274 1.396 . S
C273 C280 1.403 . S
C274 C264 1.476 . S
C274 N269 1.318 . S
C274 C273 1.396 . S
H275 C270 0.929 . S
O276 Mn252 2.385 1_655 S
O276 C254 1.234 . S
O277 Mn252 2.209 1_655 S
O277 Mn253 2.215 1_655 S
O277 C254 1.283 . S
O278 Mn252 2.094 . S
O278 C256 1.240 . S
O279 Mn253 2.117 . S
O279 C256 1.264 . S
C280 C273 1.403 . S
C280 C281 1.399 . S
C280 H286 0.929 . S
C281 C261 1.449 . S
C281 C280 1.399 . S
C281 H287 0.930 . S
H282 C262 0.931 . S
H283 C263 0.930 1_455 S
H284 C271 0.931 . S
H285 C272 0.929 . S
H286 C280 0.929 . S
H287 C281 0.930 . S
Mn288 O293 2.095 . S
Mn288 O303 2.162 . S
Mn288 O304 2.297 . S
Mn288 O312 2.385 1_545 S
Mn288 O313 2.209 . S
Mn288 O314 2.094 . S
Mn289 O294 2.121 . S
Mn289 N296 2.257 . S
Mn289 N305 2.282 1_545 S
Mn289 O313 2.215 . S
Mn289 O315 2.117 . S
C290 O312 1.234 . S
C290 O313 1.283 1_565 S
C291 O303 1.281 . S
C291 O304 1.236 . S
C292 O314 1.240 . S
C292 O315 1.264 . S
O293 Mn288 2.095 . S
O293 C302 1.250 . S
O294 Mn289 2.121 . S
O294 C302 1.258 . S
C295 N296 1.326 . S
C295 C299 1.460 . S
C295 H301 0.929 . S
N296 Mn289 2.257 . S
N296 C295 1.326 . S
N296 C300 1.362 1_545 S
C297 C298 1.258 . S
C297 C300 1.431 . S
C297 C317 1.449 . S
C298 C297 1.258 . S
C298 C299 1.477 1_565 S
C298 H318 0.931 . S
C299 C295 1.460 . S
C299 C298 1.477 1_545 S
C299 H319 0.930 . S
C300 N296 1.362 1_565 S
C300 C297 1.431 . S
C300 C310 1.476 . S
H301 C295 0.929 . S
C302 O293 1.250 . S
C302 O294 1.258 . S
O303 Mn288 2.162 . S
O303 C291 1.281 . S
O304 Mn288 2.297 . S
O304 C291 1.236 . S
N305 Mn289 2.282 1_565 S
N305 C306 1.328 . S
N305 C310 1.318 . S
C306 N305 1.328 . S
C306 C307 1.457 . S
C306 H311 0.929 . S
C307 C306 1.457 . S
C307 C308 1.291 . S
C307 H320 0.931 . S
C308 C307 1.291 . S
C308 C309 1.373 . S
C308 H321 0.929 . S
C309 C308 1.373 . S
C309 C310 1.396 . S
C309 C316 1.403 . S
C310 C300 1.476 . S
C310 N305 1.318 . S
C310 C309 1.396 . S
H311 C306 0.929 . S
O312 Mn288 2.385 1_565 S
O312 C290 1.234 . S
O313 Mn288 2.209 . S
O313 Mn289 2.215 . S
O313 C290 1.283 1_545 S
O314 Mn288 2.094 . S
O314 C292 1.240 . S
O315 Mn289 2.117 . S
O315 C292 1.264 . S
C316 C309 1.403 . S
C316 C317 1.399 . S
C316 H322 0.929 . S
C317 C297 1.449 . S
C317 C316 1.399 . S
C317 H323 0.930 . S
H318 C298 0.931 . S
H319 C299 0.930 . S
H320 C307 0.931 . S
H321 C308 0.929 . S
H322 C316 0.929 . S
H323 C317 0.930 . S
Mn324 O329 2.095 . S
Mn324 O339 2.162 . S
Mn324 O340 2.297 . S
Mn324 O348 2.385 . S
Mn324 O349 2.209 . S
Mn324 O350 2.094 . S
Mn325 O330 2.121 . S
Mn325 N332 2.257 . S
Mn325 N341 2.282 . S
Mn325 O349 2.215 . S
Mn325 O351 2.117 . S
C326 O348 1.234 . S
C326 O349 1.283 . S
C327 O339 1.281 . S
C327 O340 1.236 . S
C328 O350 1.240 . S
C328 O351 1.264 . S
O329 Mn324 2.095 . S
O329 C338 1.250 . S
O330 Mn325 2.121 . S
O330 C338 1.258 . S
C331 N332 1.326 . S
C331 C335 1.460 . S
C331 H337 0.929 . S
N332 Mn325 2.257 . S
N332 C331 1.326 . S
N332 C336 1.362 . S
C333 C334 1.258 . S
C333 C336 1.431 . S
C333 C353 1.449 . S
C334 C333 1.258 . S
C334 C335 1.477 . S
C334 H354 0.931 . S
C335 C331 1.460 . S
C335 C334 1.477 . S
C335 H355 0.930 . S
C336 N332 1.362 . S
C336 C333 1.431 . S
C336 C346 1.476 . S
H337 C331 0.929 . S
C338 O329 1.250 . S
C338 O330 1.258 . S
O339 Mn324 2.162 . S
O339 C327 1.281 . S
O340 Mn324 2.297 . S
O340 C327 1.236 . S
N341 Mn325 2.282 . S
N341 C342 1.328 . S
N341 C346 1.318 . S
C342 N341 1.328 . S
C342 C343 1.457 . S
C342 H347 0.929 . S
C343 C342 1.457 . S
C343 C344 1.291 . S
C343 H356 0.931 . S
C344 C343 1.291 . S
C344 C345 1.373 . S
C344 H357 0.929 . S
C345 C344 1.373 . S
C345 C346 1.396 . S
C345 C352 1.403 . S
C346 C336 1.476 . S
C346 N341 1.318 . S
C346 C345 1.396 . S
H347 C342 0.929 . S
O348 Mn324 2.385 . S
O348 C326 1.234 . S
O349 Mn324 2.209 . S
O349 Mn325 2.215 . S
O349 C326 1.283 . S
O350 Mn324 2.094 . S
O350 C328 1.240 . S
O351 Mn325 2.117 . S
O351 C328 1.264 . S
C352 C345 1.403 . S
C352 C353 1.399 . S
C352 H358 0.929 . S
C353 C333 1.449 . S
C353 C352 1.399 . S
C353 H359 0.930 . S
H354 C334 0.931 . S
H355 C335 0.930 . S
H356 C343 0.931 . S
H357 C344 0.929 . S
H358 C352 0.929 . S
H359 C353 0.930 . S
Mn360 O365 2.096 1_545 S
Mn360 O375 2.162 1_545 S
Mn360 O376 2.297 1_545 S
Mn360 O384 2.384 . S
Mn360 O385 2.208 . S
Mn360 O386 2.094 1_545 S
Mn361 O366 2.121 1_545 S
Mn361 N368 2.257 . S
Mn361 N377 2.282 . S
Mn361 O385 2.215 . S
Mn361 O387 2.117 . S
C362 O384 1.234 . S
C362 O385 1.283 . S
C363 O375 1.281 . S
C363 O376 1.235 . S
C364 O386 1.243 1_545 S
C364 O387 1.264 . S
O365 Mn360 2.096 1_565 S
O365 C374 1.250 . S
O366 Mn361 2.121 1_565 S
O366 C374 1.258 . S
C367 N368 1.326 . S
C367 C371 1.460 . S
C367 H373 0.929 1_545 S
N368 Mn361 2.257 . S
N368 C367 1.326 . S
N368 C372 1.362 . S
C369 C370 1.258 . S
C369 C372 1.431 . S
C369 C389 1.449 . S
C370 C369 1.258 . S
C370 C371 1.477 . S
C370 H390 0.931 . S
C371 C367 1.460 . S
C371 C370 1.477 . S
C371 H391 0.930 . S
C372 N368 1.362 . S
C372 C369 1.431 . S
C372 C382 1.476 . S
H373 C367 0.929 1_565 S
C374 O365 1.250 . S
C374 O366 1.258 . S
O375 Mn360 2.162 1_565 S
O375 C363 1.281 . S
O376 Mn360 2.297 1_565 S
O376 C363 1.235 . S
N377 Mn361 2.282 . S
N377 C378 1.328 . S
N377 C382 1.318 . S
C378 N377 1.328 . S
C378 C379 1.457 . S
C378 H383 0.929 . S
C379 C378 1.457 . S
C379 C380 1.291 . S
C379 H392 0.931 . S
C380 C379 1.291 . S
C380 C381 1.373 . S
C380 H393 0.929 . S
C381 C380 1.373 . S
C381 C382 1.396 . S
C381 C388 1.403 . S
C382 C372 1.476 . S
C382 N377 1.318 . S
C382 C381 1.396 . S
H383 C378 0.929 . S
O384 Mn360 2.384 . S
O384 C362 1.234 . S
O385 Mn360 2.208 . S
O385 Mn361 2.215 . S
O385 C362 1.283 . S
O386 Mn360 2.094 1_565 S
O386 C364 1.243 1_565 S
O387 Mn361 2.117 . S
O387 C364 1.264 . S
C388 C381 1.403 . S
C388 C389 1.399 . S
C388 H394 0.929 . S
C389 C369 1.449 . S
C389 C388 1.399 . S
C389 H395 0.930 . S
H390 C370 0.931 . S
H391 C371 0.930 . S
H392 C379 0.931 . S
H393 C380 0.929 . S
H394 C388 0.929 . S
H395 C389 0.930 . S
Mn396 O401 2.095 . S
Mn396 O411 2.162 . S
Mn396 O412 2.297 . S
Mn396 O420 2.385 . S
Mn396 O421 2.209 . S
Mn396 O422 2.058 1_554 S
Mn397 O402 2.121 1_556 S
Mn397 N404 2.257 1_556 S
Mn397 N413 2.282 . S
Mn397 O421 2.215 1_556 S
Mn397 O423 2.117 . S
C398 O420 1.234 . S
C398 O421 1.283 . S
C399 O411 1.281 . S
C399 O412 1.236 . S
C400 O422 1.280 . S
C400 O423 1.264 . S
O401 Mn396 2.095 . S
O401 C410 1.250 . S
O402 Mn397 2.121 1_554 S
O402 C410 1.258 . S
C403 N404 1.326 . S
C403 C407 1.437 1_565 S
C403 H409 0.929 . S
N404 Mn397 2.257 1_554 S
N404 C403 1.326 . S
N404 C408 1.362 1_554 S
C405 C406 1.258 1_566 S
C405 C408 1.431 . S
C405 C425 1.452 . S
C406 C405 1.258 1_544 S
C406 C407 1.481 . S
C406 H426 0.931 . S
C407 C403 1.437 1_545 S
C407 C406 1.481 . S
C407 H427 0.948 . S
C408 N404 1.362 1_556 S
C408 C405 1.431 . S
C408 C418 1.476 . S
H409 C403 0.929 . S
C410 O401 1.250 . S
C410 O402 1.258 . S
O411 Mn396 2.162 . S
O411 C399 1.281 . S
O412 Mn396 2.297 . S
O412 C399 1.236 . S
N413 Mn397 2.282 . S
N413 C414 1.328 . S
N413 C418 1.318 . S
C414 N413 1.328 . S
C414 C415 1.457 . S
C414 H419 0.929 . S
C415 C414 1.457 . S
C415 C416 1.291 . S
C415 H428 0.931 . S
C416 C415 1.291 . S
C416 C417 1.373 . S
C416 H429 0.929 . S
C417 C416 1.373 . S
C417 C418 1.396 . S
C417 C424 1.403 . S
C418 C408 1.476 . S
C418 N413 1.318 . S
C418 C417 1.396 . S
H419 C414 0.929 . S
O420 Mn396 2.385 . S
O420 C398 1.234 . S
O421 Mn396 2.209 . S
O421 Mn397 2.215 1_554 S
O421 C398 1.283 . S
O422 Mn396 2.058 1_556 S
O422 C400 1.280 . S
O423 Mn397 2.117 . S
O423 C400 1.264 . S
C424 C417 1.403 . S
C424 C425 1.414 . S
C424 H430 0.929 . S
C425 C405 1.452 . S
C425 C424 1.414 . S
C425 H431 0.913 1_565 S
H426 C406 0.931 . S
H427 C407 0.948 . S
H428 C415 0.931 . S
H429 C416 0.929 . S
H430 C424 0.929 . S
H431 C425 0.913 1_545 S
Mn432 O437 2.095 . S
Mn432 O447 2.162 . S
Mn432 O448 2.297 . S
Mn432 O456 2.385 . S
Mn432 O457 2.209 . S
Mn432 O458 2.094 1_554 S
Mn433 O438 2.141 . S
Mn433 N440 2.257 . S
Mn433 N449 2.282 . S
Mn433 O457 2.215 1_556 S
Mn433 O459 2.117 . S
C434 O456 1.234 . S
C434 O457 1.283 . S
C435 O447 1.281 . S
C435 O448 1.236 . S
C436 O458 1.240 . S
C436 O459 1.264 . S
O437 Mn432 2.095 . S
O437 C446 1.250 . S
O438 Mn433 2.141 . S
O438 C446 1.239 1_556 S
C439 N440 1.325 1_554 S
C439 C443 1.460 . S
C439 H445 0.931 . S
N440 Mn433 2.257 . S
N440 C439 1.325 1_556 S
N440 C444 1.362 . S
C441 C442 1.258 . S
C441 C444 1.431 . S
C441 C461 1.449 . S
C442 C441 1.258 . S
C442 C443 1.477 1_556 S
C442 H462 0.931 . S
C443 C439 1.460 . S
C443 C442 1.477 1_554 S
C443 H463 0.930 . S
C444 N440 1.362 . S
C444 C441 1.431 . S
C444 C454 1.476 . S
H445 C439 0.931 . S
C446 O437 1.250 . S
C446 O438 1.239 1_554 S
O447 Mn432 2.162 . S
O447 C435 1.281 . S
O448 Mn432 2.297 . S
O448 C435 1.236 . S
N449 Mn433 2.282 . S
N449 C450 1.328 . S
N449 C454 1.318 . S
C450 N449 1.328 . S
C450 C451 1.457 . S
C450 H455 0.929 . S
C451 C450 1.457 . S
C451 C452 1.291 . S
C451 H464 0.931 . S
C452 C451 1.291 . S
C452 C453 1.373 . S
C452 H465 0.929 . S
C453 C452 1.373 . S
C453 C454 1.396 . S
C453 C460 1.403 . S
C454 C444 1.476 . S
C454 N449 1.318 . S
C454 C453 1.396 . S
H455 C450 0.929 . S
O456 Mn432 2.385 . S
O456 C434 1.234 . S
O457 Mn432 2.209 . S
O457 Mn433 2.215 1_554 S
O457 C434 1.283 . S
O458 Mn432 2.094 1_556 S
O458 C436 1.240 . S
O459 Mn433 2.117 . S
O459 C436 1.264 . S
C460 C453 1.403 . S
C460 C461 1.399 . S
C460 H466 0.929 . S
C461 C441 1.449 . S
C461 C460 1.399 . S
C461 H467 0.930 . S
H462 C442 0.931 . S
H463 C443 0.930 . S
H464 C451 0.931 . S
H465 C452 0.929 . S
H466 C460 0.929 . S
H467 C461 0.930 . S
Mn468 O473 2.095 1_554 S
Mn468 O483 2.162 . S
Mn468 O484 2.297 . S
Mn468 O492 2.385 . S
Mn468 O493 2.209 1_554 S
Mn468 O494 2.094 1_554 S
Mn469 O474 2.121 . S
Mn469 N476 2.257 . S
Mn469 N485 2.282 . S
Mn469 O493 2.215 . S
Mn469 O495 2.117 . S
C470 O492 1.234 1_556 S
C470 O493 1.283 . S
C471 O483 1.281 . S
C471 O484 1.236 . S
C472 O494 1.240 . S
C472 O495 1.264 . S
O473 Mn468 2.095 1_556 S
O473 C482 1.250 . S
O474 Mn469 2.121 . S
O474 C482 1.258 . S
C475 N476 1.326 . S
C475 C479 1.460 . S
C475 H481 0.929 . S
N476 Mn469 2.257 . S
N476 C475 1.326 . S
N476 C480 1.362 . S
C477 C478 1.258 . S
C477 C480 1.431 . S
C477 C497 1.449 . S
C478 C477 1.258 . S
C478 C479 1.477 . S
C478 H498 0.931 . S
C479 C475 1.460 . S
C479 C478 1.477 . S
C479 H499 0.930 . S
C480 N476 1.362 . S
C480 C477 1.431 . S
C480 C490 1.476 . S
H481 C475 0.929 . S
C482 O473 1.250 . S
C482 O474 1.258 . S
O483 Mn468 2.162 . S
O483 C471 1.281 . S
O484 Mn468 2.297 . S
O484 C471 1.236 . S
N485 Mn469 2.282 . S
N485 C486 1.328 . S
N485 C490 1.318 . S
C486 N485 1.328 . S
C486 C487 1.457 . S
C486 H491 0.929 . S
C487 C486 1.457 . S
C487 C488 1.291 . S
C487 H500 0.931 . S
C488 C487 1.291 . S
C488 C489 1.373 . S
C488 H501 0.929 . S
C489 C488 1.373 . S
C489 C490 1.396 . S
C489 C496 1.403 . S
C490 C480 1.476 . S
C490 N485 1.318 . S
C490 C489 1.396 . S
H491 C486 0.929 . S
O492 Mn468 2.385 . S
O492 C470 1.234 1_554 S
O493 Mn468 2.209 1_556 S
O493 Mn469 2.215 . S
O493 C470 1.283 . S
O494 Mn468 2.094 1_556 S
O494 C472 1.240 . S
O495 Mn469 2.117 . S
O495 C472 1.264 . S
C496 C489 1.403 . S
C496 C497 1.399 . S
C496 H502 0.929 . S
C497 C477 1.449 . S
C497 C496 1.399 . S
C497 H503 0.930 . S
H498 C478 0.931 . S
H499 C479 0.930 . S
H500 C487 0.931 . S
H501 C488 0.929 . S
H502 C496 0.929 . S
H503 C497 0.930 . S
Mn504 O509 2.095 . S
Mn504 O519 2.162 . S
Mn504 O520 2.297 . S
Mn504 O528 2.385 . S
Mn504 O529 2.209 . S
Mn504 O530 2.094 . S
Mn505 O510 2.121 . S
Mn505 N512 2.257 . S
Mn505 N521 2.282 . S
Mn505 O529 2.215 . S
Mn505 O531 2.117 . S
C506 O528 1.234 . S
C506 O529 1.283 . S
C507 O519 1.281 . S
C507 O520 1.236 . S
C508 O530 1.240 . S
C508 O531 1.264 . S
O509 Mn504 2.095 . S
O509 C518 1.250 . S
O510 Mn505 2.121 . S
O510 C518 1.258 . S
C511 N512 1.326 . S
C511 C515 1.460 . S
C511 H517 0.929 . S
N512 Mn505 2.257 . S
N512 C511 1.326 . S
N512 C516 1.362 . S
C513 C514 1.258 . S
C513 C516 1.431 . S
C513 C533 1.449 . S
C514 C513 1.258 . S
C514 C515 1.477 . S
C514 H534 0.931 . S
C515 C511 1.460 . S
C515 C514 1.477 . S
C515 H535 0.930 . S
C516 N512 1.362 . S
C516 C513 1.431 . S
C516 C526 1.476 . S
H517 C511 0.929 . S
C518 O509 1.250 . S
C518 O510 1.258 . S
O519 Mn504 2.162 . S
O519 C507 1.281 . S
O520 Mn504 2.297 . S
O520 C507 1.236 . S
N521 Mn505 2.282 . S
N521 C522 1.328 . S
N521 C526 1.318 . S
C522 N521 1.328 . S
C522 C523 1.457 . S
C522 H527 0.929 . S
C523 C522 1.457 . S
C523 C524 1.291 . S
C523 H536 0.931 . S
C524 C523 1.291 . S
C524 C525 1.373 . S
C524 H537 0.929 . S
C525 C524 1.373 . S
C525 C526 1.396 . S
C525 C532 1.403 . S
C526 C516 1.476 . S
C526 N521 1.318 . S
C526 C525 1.396 . S
H527 C522 0.929 . S
O528 Mn504 2.385 . S
O528 C506 1.234 . S
O529 Mn504 2.209 . S
O529 Mn505 2.215 . S
O529 C506 1.283 . S
O530 Mn504 2.094 . S
O530 C508 1.240 . S
O531 Mn505 2.117 . S
O531 C508 1.264 . S
C532 C525 1.403 . S
C532 C533 1.399 . S
C532 H538 0.929 . S
C533 C513 1.449 . S
C533 C532 1.399 . S
C533 H539 0.930 . S
H534 C514 0.931 . S
H535 C515 0.930 . S
H536 C523 0.931 . S
H537 C524 0.929 . S
H538 C532 0.929 . S
H539 C533 0.930 . S
Mn540 O545 2.095 . S
Mn540 O555 2.162 . S
Mn540 O556 2.297 . S
Mn540 O564 2.385 . S
Mn540 O565 2.209 . S
Mn540 O566 2.094 . S
Mn541 O546 2.121 . S
Mn541 N548 2.257 . S
Mn541 N557 2.282 . S
Mn541 O565 2.215 . S
Mn541 O567 2.117 . S
C542 O564 1.234 . S
C542 O565 1.283 . S
C543 O555 1.281 . S
C543 O556 1.236 . S
C544 O566 1.240 . S
C544 O567 1.264 . S
O545 Mn540 2.095 . S
O545 C554 1.250 . S
O546 Mn541 2.121 . S
O546 C554 1.258 . S
C547 N548 1.326 . S
C547 C551 1.460 . S
C547 H553 0.929 . S
N548 Mn541 2.257 . S
N548 C547 1.326 . S
N548 C552 1.362 . S
C549 C550 1.258 . S
C549 C552 1.431 . S
C549 C569 1.449 . S
C550 C549 1.258 . S
C550 C551 1.477 . S
C550 H570 0.931 . S
C551 C547 1.460 . S
C551 C550 1.477 . S
C551 H571 0.930 . S
C552 N548 1.362 . S
C552 C549 1.431 . S
C552 C562 1.476 . S
H553 C547 0.929 . S
C554 O545 1.250 . S
C554 O546 1.258 . S
O555 Mn540 2.162 . S
O555 C543 1.281 . S
O556 Mn540 2.297 . S
O556 C543 1.236 . S
N557 Mn541 2.282 . S
N557 C558 1.328 . S
N557 C562 1.318 . S
C558 N557 1.328 . S
C558 C559 1.457 . S
C558 H563 0.929 . S
C559 C558 1.457 . S
C559 C560 1.291 . S
C559 H572 0.931 . S
C560 C559 1.291 . S
C560 C561 1.373 . S
C560 H573 0.929 . S
C561 C560 1.373 . S
C561 C562 1.396 . S
C561 C568 1.403 . S
C562 C552 1.476 . S
C562 N557 1.318 . S
C562 C561 1.396 . S
H563 C558 0.929 . S
O564 Mn540 2.385 . S
O564 C542 1.234 . S
O565 Mn540 2.209 . S
O565 Mn541 2.215 . S
O565 C542 1.283 . S
O566 Mn540 2.094 . S
O566 C544 1.240 . S
O567 Mn541 2.117 . S
O567 C544 1.264 . S
C568 C561 1.403 . S
C568 C569 1.399 . S
C568 H574 0.929 . S
C569 C549 1.449 . S
C569 C568 1.399 . S
C569 H575 0.930 . S
H570 C550 0.931 . S
H571 C551 0.930 . S
H572 C559 0.931 . S
H573 C560 0.929 . S
H574 C568 0.929 . S
H575 C569 0.930 . S
Mn576 O581 2.095 . S
Mn576 O591 2.162 . S
Mn576 O592 2.297 . S
Mn576 O600 2.385 . S
Mn576 O601 2.209 . S
Mn576 O602 2.094 . S
Mn577 O582 2.121 . S
Mn577 N584 2.257 . S
Mn577 N593 2.282 . S
Mn577 O601 2.215 . S
Mn577 O603 2.117 . S
C578 O600 1.234 . S
C578 O601 1.283 . S
C579 O591 1.281 . S
C579 O592 1.236 . S
C580 O602 1.240 . S
C580 O603 1.264 . S
O581 Mn576 2.095 . S
O581 C590 1.250 . S
O582 Mn577 2.121 . S
O582 C590 1.258 . S
C583 N584 1.326 . S
C583 C587 1.460 . S
C583 H589 0.929 . S
N584 Mn577 2.257 . S
N584 C583 1.326 . S
N584 C588 1.362 . S
C585 C586 1.258 . S
C585 C588 1.431 . S
C585 C605 1.449 1_545 S
C586 C585 1.258 . S
C586 C587 1.477 . S
C586 H606 0.931 . S
C587 C583 1.460 . S
C587 C586 1.477 . S
C587 H607 0.930 . S
C588 N584 1.362 . S
C588 C585 1.431 . S
C588 C598 1.476 . S
H589 C583 0.929 . S
C590 O581 1.250 . S
C590 O582 1.258 . S
O591 Mn576 2.162 . S
O591 C579 1.281 . S
O592 Mn576 2.297 . S
O592 C579 1.236 . S
N593 Mn577 2.282 . S
N593 C594 1.328 . S
N593 C598 1.318 . S
C594 N593 1.328 . S
C594 C595 1.457 1_545 S
C594 H599 0.929 . S
C595 C594 1.457 1_565 S
C595 C596 1.291 . S
C595 H608 0.931 . S
C596 C595 1.291 . S
C596 C597 1.373 . S
C596 H609 0.929 . S
C597 C596 1.373 . S
C597 C598 1.396 1_565 S
C597 C604 1.403 . S
C598 C588 1.476 . S
C598 N593 1.318 . S
C598 C597 1.396 1_545 S
H599 C594 0.929 . S
O600 Mn576 2.385 . S
O600 C578 1.234 . S
O601 Mn576 2.209 . S
O601 Mn577 2.215 . S
O601 C578 1.283 . S
O602 Mn576 2.094 . S
O602 C580 1.240 . S
O603 Mn577 2.117 . S
O603 C580 1.264 . S
C604 C597 1.403 . S
C604 C605 1.399 . S
C604 H610 0.929 . S
C605 C585 1.449 1_565 S
C605 C604 1.399 . S
C605 H611 0.930 . S
H606 C586 0.931 . S
H607 C587 0.930 . S
H608 C595 0.931 . S
H609 C596 0.929 . S
H610 C604 0.929 . S
H611 C605 0.930 . S
Mn612 O617 2.095 . S
Mn612 O627 2.162 . S
Mn612 O628 2.297 . S
Mn612 O636 2.385 . S
Mn612 O637 2.209 . S
Mn612 O638 2.094 . S
Mn613 O618 2.121 . S
Mn613 N620 2.257 . S
Mn613 N629 2.282 . S
Mn613 O637 2.215 . S
Mn613 O639 2.117 . S
C614 O636 1.234 . S
C614 O637 1.283 . S
C615 O627 1.281 . S
C615 O628 1.236 . S
C616 O638 1.240 . S
C616 O639 1.264 . S
O617 Mn612 2.095 . S
O617 C626 1.250 . S
O618 Mn613 2.121 . S
O618 C626 1.258 . S
C619 N620 1.326 . S
C619 C623 1.460 . S
C619 H625 0.929 . S
N620 Mn613 2.257 . S
N620 C619 1.326 . S
N620 C624 1.362 . S
C621 C622 1.258 . S
C621 C624 1.431 . S
C621 C641 1.449 . S
C622 C621 1.258 . S
C622 C623 1.477 . S
C622 H642 0.931 . S
C623 C619 1.460 . S
C623 C622 1.477 . S
C623 H643 0.930 . S
C624 N620 1.362 . S
C624 C621 1.431 . S
C624 C634 1.476 . S
H625 C619 0.929 . S
C626 O617 1.250 . S
C626 O618 1.258 . S
O627 Mn612 2.162 . S
O627 C615 1.281 . S
O628 Mn612 2.297 . S
O628 C615 1.236 . S
N629 Mn613 2.282 . S
N629 C630 1.328 . S
N629 C634 1.318 . S
C630 N629 1.328 . S
C630 C631 1.457 . S
C630 H635 0.929 . S
C631 C630 1.457 . S
C631 C632 1.291 . S
C631 H644 0.931 . S
C632 C631 1.291 . S
C632 C633 1.373 . S
C632 H645 0.929 . S
C633 C632 1.373 . S
C633 C634 1.396 . S
C633 C640 1.403 . S
C634 C624 1.476 . S
C634 N629 1.318 . S
C634 C633 1.396 . S
H635 C630 0.929 . S
O636 Mn612 2.385 . S
O636 C614 1.234 . S
O637 Mn612 2.209 . S
O637 Mn613 2.215 . S
O637 C614 1.283 . S
O638 Mn612 2.094 . S
O638 C616 1.240 . S
O639 Mn613 2.117 . S
O639 C616 1.264 . S
C640 C633 1.403 . S
C640 C641 1.399 . S
C640 H646 0.929 . S
C641 C621 1.449 . S
C641 C640 1.399 . S
C641 H647 0.930 . S
H642 C622 0.931 . S
H643 C623 0.930 . S
H644 C631 0.931 . S
H645 C632 0.929 . S
H646 C640 0.929 . S
H647 C641 0.930 . S
Mn648 O653 2.095 . S
Mn648 O663 2.162 . S
Mn648 O664 2.297 . S
Mn648 O672 2.385 . S
Mn648 O673 2.209 . S
Mn648 O674 2.094 . S
Mn649 O654 2.121 . S
Mn649 N656 2.257 . S
Mn649 N665 2.282 . S
Mn649 O673 2.215 . S
Mn649 O675 2.117 . S
C650 O672 1.234 . S
C650 O673 1.283 . S
C651 O663 1.281 . S
C651 O664 1.236 . S
C652 O674 1.240 . S
C652 O675 1.264 . S
O653 Mn648 2.095 . S
O653 C662 1.250 . S
O654 Mn649 2.121 . S
O654 C662 1.258 . S
C655 N656 1.326 . S
C655 C659 1.460 . S
C655 H661 0.929 . S
N656 Mn649 2.257 . S
N656 C655 1.326 . S
N656 C660 1.362 . S
C657 C658 1.258 . S
C657 C660 1.431 . S
C657 C677 1.449 . S
C658 C657 1.258 . S
C658 C659 1.477 . S
C658 H678 0.931 . S
C659 C655 1.460 . S
C659 C658 1.477 . S
C659 H679 0.930 . S
C660 N656 1.362 . S
C660 C657 1.431 . S
C660 C670 1.476 . S
H661 C655 0.929 . S
C662 O653 1.250 . S
C662 O654 1.258 . S
O663 Mn648 2.162 . S
O663 C651 1.281 . S
O664 Mn648 2.297 . S
O664 C651 1.236 . S
N665 Mn649 2.282 . S
N665 C666 1.328 . S
N665 C670 1.318 . S
C666 N665 1.328 . S
C666 C667 1.457 . S
C666 H671 0.929 . S
C667 C666 1.457 . S
C667 C668 1.291 . S
C667 H680 0.931 . S
C668 C667 1.291 . S
C668 C669 1.373 . S
C668 H681 0.929 . S
C669 C668 1.373 . S
C669 C670 1.396 . S
C669 C676 1.403 . S
C670 C660 1.476 . S
C670 N665 1.318 . S
C670 C669 1.396 . S
H671 C666 0.929 . S
O672 Mn648 2.385 . S
O672 C650 1.234 . S
O673 Mn648 2.209 . S
O673 Mn649 2.215 . S
O673 C650 1.283 . S
O674 Mn648 2.094 . S
O674 C652 1.240 . S
O675 Mn649 2.117 . S
O675 C652 1.264 . S
C676 C669 1.403 . S
C676 C677 1.399 . S
C676 H682 0.929 . S
C677 C657 1.449 . S
C677 C676 1.399 . S
C677 H683 0.930 . S
H678 C658 0.931 . S
H679 C659 0.930 . S
H680 C667 0.931 . S
H681 C668 0.929 . S
H682 C676 0.929 . S
H683 C677 0.930 . S
Mn684 O689 2.119 . S
Mn684 O699 2.162 . S
Mn684 O700 2.297 . S
Mn684 O708 2.385 . S
Mn684 O709 2.209 . S
Mn684 O710 2.094 . S
Mn685 O690 2.121 . S
Mn685 N692 2.257 . S
Mn685 N701 2.282 . S
Mn685 O709 2.215 . S
Mn685 O711 2.117 . S
C686 O708 1.234 . S
C686 O709 1.283 . S
C687 O699 1.281 . S
C687 O700 1.236 . S
C688 O710 1.240 . S
C688 O711 1.264 . S
O689 Mn684 2.119 . S
O689 C698 1.240 1_545 S
O690 Mn685 2.121 . S
O690 C698 1.258 1_545 S
C691 N692 1.326 . S
C691 C695 1.460 . S
C691 H697 0.929 . S
N692 Mn685 2.257 . S
N692 C691 1.326 . S
N692 C696 1.362 . S
C693 C694 1.258 . S
C693 C696 1.431 . S
C693 C713 1.449 . S
C694 C693 1.258 . S
C694 C695 1.477 . S
C694 H714 0.931 . S
C695 C691 1.460 . S
C695 C694 1.477 . S
C695 H715 0.930 . S
C696 N692 1.362 . S
C696 C693 1.431 . S
C696 C706 1.476 . S
H697 C691 0.929 . S
C698 O689 1.240 1_565 S
C698 O690 1.258 1_565 S
O699 Mn684 2.162 . S
O699 C687 1.281 . S
O700 Mn684 2.297 . S
O700 C687 1.236 . S
N701 Mn685 2.282 . S
N701 C702 1.328 . S
N701 C706 1.318 . S
C702 N701 1.328 . S
C702 C703 1.457 . S
C702 H707 0.929 . S
C703 C702 1.457 . S
C703 C704 1.291 . S
C703 H716 0.931 . S
C704 C703 1.291 . S
C704 C705 1.373 . S
C704 H717 0.929 . S
C705 C704 1.373 . S
C705 C706 1.396 . S
C705 C712 1.403 . S
C706 C696 1.476 . S
C706 N701 1.318 . S
C706 C705 1.396 . S
H707 C702 0.929 . S
O708 Mn684 2.385 . S
O708 C686 1.234 . S
O709 Mn684 2.209 . S
O709 Mn685 2.215 . S
O709 C686 1.283 . S
O710 Mn684 2.094 . S
O710 C688 1.240 . S
O711 Mn685 2.117 . S
O711 C688 1.264 . S
C712 C705 1.403 . S
C712 C713 1.399 . S
C712 H718 0.929 . S
C713 C693 1.449 . S
C713 C712 1.399 . S
C713 H719 0.930 . S
H714 C694 0.931 . S
H715 C695 0.930 . S
H716 C703 0.931 . S
H717 C704 0.929 . S
H718 C712 0.929 . S
H719 C713 0.930 . S
Mn720 O725 2.095 . S
Mn720 O735 2.162 . S
Mn720 O736 2.297 . S
Mn720 O744 2.385 . S
Mn720 O745 2.209 . S
Mn720 O746 2.094 1_554 S
Mn721 O726 2.121 . S
Mn721 N728 2.257 . S
Mn721 N737 2.282 . S
Mn721 O745 2.215 1_556 S
Mn721 O747 2.117 . S
C722 O744 1.234 . S
C722 O745 1.283 . S
C723 O735 1.281 . S
C723 O736 1.236 . S
C724 O746 1.240 . S
C724 O747 1.264 . S
O725 Mn720 2.095 . S
O725 C734 1.250 . S
O726 Mn721 2.121 . S
O726 C734 1.258 1_556 S
C727 N728 1.326 . S
C727 C731 1.460 . S
C727 H733 0.929 . S
N728 Mn721 2.257 . S
N728 C727 1.326 . S
N728 C732 1.362 . S
C729 C730 1.258 . S
C729 C732 1.431 . S
C729 C749 1.449 . S
C730 C729 1.258 . S
C730 C731 1.477 . S
C730 H750 0.931 . S
C731 C727 1.460 . S
C731 C730 1.477 . S
C731 H751 0.930 . S
C732 N728 1.362 . S
C732 C729 1.431 . S
C732 C742 1.476 . S
H733 C727 0.929 . S
C734 O725 1.250 . S
C734 O726 1.258 1_554 S
O735 Mn720 2.162 . S
O735 C723 1.281 . S
O736 Mn720 2.297 . S
O736 C723 1.236 . S
N737 Mn721 2.282 . S
N737 C738 1.328 . S
N737 C742 1.318 . S
C738 N737 1.328 . S
C738 C739 1.457 . S
C738 H743 0.929 . S
C739 C738 1.457 . S
C739 C740 1.291 . S
C739 H752 0.931 . S
C740 C739 1.291 . S
C740 C741 1.373 . S
C740 H753 0.929 . S
C741 C740 1.373 . S
C741 C742 1.396 . S
C741 C748 1.403 . S
C742 C732 1.476 . S
C742 N737 1.318 . S
C742 C741 1.396 . S
H743 C738 0.929 . S
O744 Mn720 2.385 . S
O744 C722 1.234 . S
O745 Mn720 2.209 . S
O745 Mn721 2.215 1_554 S
O745 C722 1.283 . S
O746 Mn720 2.094 1_556 S
O746 C724 1.240 . S
O747 Mn721 2.117 . S
O747 C724 1.264 . S
C748 C741 1.403 . S
C748 C749 1.399 . S
C748 H754 0.929 . S
C749 C729 1.449 . S
C749 C748 1.399 . S
C749 H755 0.930 . S
H750 C730 0.931 . S
H751 C731 0.930 . S
H752 C739 0.931 . S
H753 C740 0.929 . S
H754 C748 0.929 . S
H755 C749 0.930 . S
Mn756 O761 2.095 . S
Mn756 O771 2.162 . S
Mn756 O772 2.297 . S
Mn756 O780 2.385 . S
Mn756 O781 2.209 . S
Mn756 O782 2.094 . S
Mn757 O762 2.121 . S
Mn757 N764 2.257 . S
Mn757 N773 2.282 . S
Mn757 O781 2.215 . S
Mn757 O783 2.117 . S
C758 O780 1.234 . S
C758 O781 1.283 . S
C759 O771 1.281 . S
C759 O772 1.236 . S
C760 O782 1.240 . S
C760 O783 1.264 . S
O761 Mn756 2.095 . S
O761 C770 1.250 . S
O762 Mn757 2.121 . S
O762 C770 1.258 . S
C763 N764 1.326 . S
C763 C767 1.460 . S
C763 H769 0.929 . S
N764 Mn757 2.257 . S
N764 C763 1.326 . S
N764 C768 1.362 . S
C765 C766 1.258 . S
C765 C768 1.431 . S
C765 C785 1.449 . S
C766 C765 1.258 . S
C766 C767 1.477 . S
C766 H786 0.931 . S
C767 C763 1.460 . S
C767 C766 1.477 . S
C767 H787 0.930 . S
C768 N764 1.362 . S
C768 C765 1.431 . S
C768 C778 1.476 . S
H769 C763 0.929 . S
C770 O761 1.250 . S
C770 O762 1.258 . S
O771 Mn756 2.162 . S
O771 C759 1.281 . S
O772 Mn756 2.297 . S
O772 C759 1.236 . S
N773 Mn757 2.282 . S
N773 C774 1.328 . S
N773 C778 1.318 . S
C774 N773 1.328 . S
C774 C775 1.457 . S
C774 H779 0.929 . S
C775 C774 1.457 . S
C775 C776 1.291 . S
C775 H788 0.931 . S
C776 C775 1.291 . S
C776 C777 1.373 . S
C776 H789 0.929 . S
C777 C776 1.373 . S
C777 C778 1.396 . S
C777 C784 1.403 . S
C778 C768 1.476 . S
C778 N773 1.318 . S
C778 C777 1.396 . S
H779 C774 0.929 . S
O780 Mn756 2.385 . S
O780 C758 1.234 . S
O781 Mn756 2.209 . S
O781 Mn757 2.215 . S
O781 C758 1.283 . S
O782 Mn756 2.094 . S
O782 C760 1.240 . S
O783 Mn757 2.117 . S
O783 C760 1.264 . S
C784 C777 1.403 . S
C784 C785 1.399 . S
C784 H790 0.929 . S
C785 C765 1.449 . S
C785 C784 1.399 . S
C785 H791 0.930 . S
H786 C766 0.931 . S
H787 C767 0.930 . S
H788 C775 0.931 . S
H789 C776 0.929 . S
H790 C784 0.929 . S
H791 C785 0.930 . S
Mn792 O797 2.095 . S
Mn792 O807 2.162 . S
Mn792 O808 2.297 . S
Mn792 O816 2.385 . S
Mn792 O817 2.209 . S
Mn792 O818 2.094 . S
Mn793 O798 2.121 . S
Mn793 N800 2.257 . S
Mn793 N809 2.282 . S
Mn793 O817 2.215 . S
Mn793 O819 2.117 . S
C794 O816 1.234 . S
C794 O817 1.283 . S
C795 O807 1.281 . S
C795 O808 1.236 . S
C796 O818 1.240 . S
C796 O819 1.264 . S
O797 Mn792 2.095 . S
O797 C806 1.250 . S
O798 Mn793 2.121 . S
O798 C806 1.258 . S
C799 N800 1.326 . S
C799 C803 1.460 . S
C799 H805 0.929 . S
N800 Mn793 2.257 . S
N800 C799 1.326 . S
N800 C804 1.362 . S
C801 C802 1.258 . S
C801 C804 1.431 . S
C801 C821 1.449 . S
C802 C801 1.258 . S
C802 C803 1.477 . S
C802 H822 0.931 . S
C803 C799 1.460 . S
C803 C802 1.477 . S
C803 H823 0.930 . S
C804 N800 1.362 . S
C804 C801 1.431 . S
C804 C814 1.476 . S
H805 C799 0.929 . S
C806 O797 1.250 . S
C806 O798 1.258 . S
O807 Mn792 2.162 . S
O807 C795 1.281 . S
O808 Mn792 2.297 . S
O808 C795 1.236 . S
N809 Mn793 2.282 . S
N809 C810 1.328 . S
N809 C814 1.318 . S
C810 N809 1.328 . S
C810 C811 1.457 . S
C810 H815 0.929 . S
C811 C810 1.457 . S
C811 C812 1.291 . S
C811 H824 0.931 . S
C812 C811 1.291 . S
C812 C813 1.373 . S
C812 H825 0.929 . S
C813 C812 1.373 . S
C813 C814 1.396 . S
C813 C820 1.403 . S
C814 C804 1.476 . S
C814 N809 1.318 . S
C814 C813 1.396 . S
H815 C810 0.929 . S
O816 Mn792 2.385 . S
O816 C794 1.234 . S
O817 Mn792 2.209 . S
O817 Mn793 2.215 . S
O817 C794 1.283 . S
O818 Mn792 2.094 . S
O818 C796 1.240 . S
O819 Mn793 2.117 . S
O819 C796 1.264 . S
C820 C813 1.403 . S
C820 C821 1.399 . S
C820 H826 0.929 . S
C821 C801 1.449 . S
C821 C820 1.399 . S
C821 H827 0.930 . S
H822 C802 0.931 . S
H823 C803 0.930 . S
H824 C811 0.931 . S
H825 C812 0.929 . S
H826 C820 0.929 . S
H827 C821 0.930 . S
Mn828 O833 2.095 . S
Mn828 O843 2.162 . S
Mn828 O844 2.297 . S
Mn828 O852 2.385 . S
Mn828 O853 2.209 . S
Mn828 O854 2.094 . S
Mn829 O834 2.121 . S
Mn829 N836 2.257 . S
Mn829 N845 2.282 . S
Mn829 O853 2.215 . S
Mn829 O855 2.117 . S
C830 O852 1.234 . S
C830 O853 1.283 . S
C831 O843 1.281 . S
C831 O844 1.236 . S
C832 O854 1.240 . S
C832 O855 1.264 . S
O833 Mn828 2.095 . S
O833 C842 1.250 . S
O834 Mn829 2.121 . S
O834 C842 1.258 . S
C835 N836 1.326 . S
C835 C839 1.460 . S
C835 H841 0.929 . S
N836 Mn829 2.257 . S
N836 C835 1.326 . S
N836 C840 1.362 . S
C837 C838 1.258 . S
C837 C840 1.431 . S
C837 C857 1.449 . S
C838 C837 1.258 . S
C838 C839 1.477 . S
C838 H858 0.931 . S
C839 C835 1.460 . S
C839 C838 1.477 . S
C839 H859 0.930 . S
C840 N836 1.362 . S
C840 C837 1.431 . S
C840 C850 1.476 . S
H841 C835 0.929 . S
C842 O833 1.250 . S
C842 O834 1.258 . S
O843 Mn828 2.162 . S
O843 C831 1.281 . S
O844 Mn828 2.297 . S
O844 C831 1.236 . S
N845 Mn829 2.282 . S
N845 C846 1.328 . S
N845 C850 1.318 . S
C846 N845 1.328 . S
C846 C847 1.457 . S
C846 H851 0.929 . S
C847 C846 1.457 . S
C847 C848 1.291 . S
C847 H860 0.931 . S
C848 C847 1.291 . S
C848 C849 1.373 . S
C848 H861 0.929 . S
C849 C848 1.373 . S
C849 C850 1.396 . S
C849 C856 1.403 . S
C850 C840 1.476 . S
C850 N845 1.318 . S
C850 C849 1.396 . S
H851 C846 0.929 . S
O852 Mn828 2.385 . S
O852 C830 1.234 . S
O853 Mn828 2.209 . S
O853 Mn829 2.215 . S
O853 C830 1.283 . S
O854 Mn828 2.094 . S
O854 C832 1.240 . S
O855 Mn829 2.117 . S
O855 C832 1.264 . S
C856 C849 1.403 . S
C856 C857 1.399 . S
C856 H862 0.929 . S
C857 C837 1.449 . S
C857 C856 1.399 . S
C857 H863 0.930 . S
H858 C838 0.931 . S
H859 C839 0.930 . S
H860 C847 0.931 . S
H861 C848 0.929 . S
H862 C856 0.929 . S
H863 C857 0.930 . S
Dy864 O868 2.410 . S
Dy864 O869 2.487 1_556 S
Dy864 O870 2.423 . S
Dy864 O871 2.670 1_655 S
Dy864 O875 2.333 . S
Dy864 O879 2.293 1_556 S
Dy864 O880 2.344 1_546 S
C865 O876 1.185 . S
C865 O877 1.355 . S
C866 O868 1.185 . S
C866 O869 1.355 1_556 S
Dy867 O871 2.310 1_554 S
Dy867 O874 2.351 . S
Dy867 O876 2.398 . S
Dy867 O877 2.491 . S
Dy867 O878 2.403 . S
Dy867 O879 2.664 1_455 S
Dy867 O881 2.326 1_545 S
O868 Dy864 2.410 . S
O868 C866 1.185 . S
O869 Dy864 2.487 1_554 S
O869 C866 1.355 1_554 S
O870 Dy864 2.423 . S
O870 C872 1.254 1_655 S
O871 Dy864 2.670 1_455 S
O871 Dy867 2.310 1_556 S
O871 C872 1.268 . S
C872 O870 1.254 1_455 S
C872 O871 1.268 . S
C873 O878 1.254 . S
C873 O879 1.268 1_455 S
O874 Dy867 2.351 . S
O874 C882 1.249 . S
O875 Dy864 2.333 . S
O875 C882 1.267 1_656 S
O876 C865 1.185 . S
O876 Dy867 2.398 . S
O877 C865 1.355 . S
O877 Dy867 2.491 . S
O878 Dy867 2.403 . S
O878 C873 1.254 . S
O879 Dy864 2.293 1_554 S
O879 Dy867 2.664 1_655 S
O879 C873 1.268 1_655 S
O880 Dy864 2.344 1_564 S
O880 C883 1.249 1_655 S
O881 Dy867 2.326 1_565 S
O881 C883 1.267 . S
C882 O874 1.249 . S
C882 O875 1.267 1_454 S
C883 O880 1.249 1_455 S
C883 O881 1.267 . S
Dy884 O888 2.398 . S
Dy884 O889 2.491 . S
Dy884 O890 2.403 . S
Dy884 O891 2.664 . S
Dy884 O895 2.326 . S
Dy884 O899 2.310 . S
Dy884 O900 2.351 . S
C885 O896 1.185 . S
C885 O897 1.355 . S
C886 O888 1.185 . S
C886 O889 1.355 . S
Dy887 O891 2.310 . S
Dy887 O894 2.351 . S
Dy887 O896 2.398 . S
Dy887 O897 2.491 . S
Dy887 O898 2.403 . S
Dy887 O899 2.664 . S
Dy887 O901 2.326 . S
O888 Dy884 2.398 . S
O888 C886 1.185 . S
O889 Dy884 2.491 . S
O889 C886 1.355 . S
O890 Dy884 2.403 . S
O890 C892 1.254 . S
O891 Dy884 2.664 . S
O891 Dy887 2.310 . S
O891 C892 1.268 . S
C892 O890 1.254 . S
C892 O891 1.268 . S
C893 O898 1.254 . S
C893 O899 1.268 . S
O894 Dy887 2.351 . S
O894 C902 1.249 . S
O895 Dy884 2.326 . S
O895 C902 1.267 . S
O896 C885 1.185 . S
O896 Dy887 2.398 . S
O897 C885 1.355 . S
O897 Dy887 2.491 . S
O898 Dy887 2.403 . S
O898 C893 1.254 . S
O899 Dy884 2.310 . S
O899 Dy887 2.664 . S
O899 C893 1.268 . S
O900 Dy884 2.351 . S
O900 C903 1.249 . S
O901 Dy887 2.326 . S
O901 C903 1.267 . S
C902 O894 1.249 . S
C902 O895 1.267 . S
C903 O900 1.249 . S
C903 O901 1.267 . S
Dy904 O908 2.398 . S
Dy904 O909 2.491 . S
Dy904 O910 2.403 . S
Dy904 O911 2.664 . S
Dy904 O915 2.326 . S
Dy904 O919 2.310 . S
Dy904 O920 2.351 . S
C905 O916 1.185 . S
C905 O917 1.355 . S
C906 O908 1.185 . S
C906 O909 1.355 . S
Dy907 O911 2.310 . S
Dy907 O914 2.351 1_545 S
Dy907 O916 2.398 . S
Dy907 O917 2.491 . S
Dy907 O918 2.403 . S
Dy907 O919 2.664 . S
Dy907 O921 2.326 . S
O908 Dy904 2.398 . S
O908 C906 1.185 . S
O909 Dy904 2.491 . S
O909 C906 1.355 . S
O910 Dy904 2.403 . S
O910 C912 1.254 . S
O911 Dy904 2.664 . S
O911 Dy907 2.310 . S
O911 C912 1.268 . S
C912 O910 1.254 . S
C912 O911 1.268 . S
C913 O918 1.254 . S
C913 O919 1.268 . S
O914 Dy907 2.351 1_565 S
O914 C922 1.249 . S
O915 Dy904 2.326 . S
O915 C922 1.267 1_545 S
O916 C905 1.185 . S
O916 Dy907 2.398 . S
O917 C905 1.355 . S
O917 Dy907 2.491 . S
O918 Dy907 2.403 . S
O918 C913 1.254 . S
O919 Dy904 2.310 . S
O919 Dy907 2.664 . S
O919 C913 1.268 . S
O920 Dy904 2.351 . S
O920 C923 1.249 . S
O921 Dy907 2.326 . S
O921 C923 1.267 . S
C922 O914 1.249 . S
C922 O915 1.267 1_565 S
C923 O920 1.249 . S
C923 O921 1.267 . S
Dy924 O928 2.398 . S
Dy924 O929 2.491 . S
Dy924 O930 2.403 . S
Dy924 O931 2.664 . S
Dy924 O935 2.326 . S
Dy924 O939 2.310 . S
Dy924 O940 2.351 . S
C925 O936 1.185 . S
C925 O937 1.355 . S
C926 O928 1.185 . S
C926 O929 1.355 . S
Dy927 O931 2.310 . S
Dy927 O934 2.351 . S
Dy927 O936 2.398 . S
Dy927 O937 2.491 . S
Dy927 O938 2.403 . S
Dy927 O939 2.664 . S
Dy927 O941 2.326 . S
O928 Dy924 2.398 . S
O928 C926 1.185 . S
O929 Dy924 2.491 . S
O929 C926 1.355 . S
O930 Dy924 2.403 . S
O930 C932 1.254 . S
O931 Dy924 2.664 . S
O931 Dy927 2.310 . S
O931 C932 1.268 . S
C932 O930 1.254 . S
C932 O931 1.268 . S
C933 O938 1.254 . S
C933 O939 1.268 . S
O934 Dy927 2.351 . S
O934 C942 1.249 . S
O935 Dy924 2.326 . S
O935 C942 1.267 . S
O936 C925 1.185 . S
O936 Dy927 2.398 . S
O937 C925 1.355 . S
O937 Dy927 2.491 . S
O938 Dy927 2.403 . S
O938 C933 1.254 . S
O939 Dy924 2.310 . S
O939 Dy927 2.664 . S
O939 C933 1.268 . S
O940 Dy924 2.351 . S
O940 C943 1.249 . S
O941 Dy927 2.326 . S
O941 C943 1.267 . S
C942 O934 1.249 . S
C942 O935 1.267 . S
C943 O940 1.249 . S
C943 O941 1.267 . S
Dy944 O948 2.398 . S
Dy944 O949 2.491 1_455 S
Dy944 O950 2.403 . S
Dy944 O951 2.664 . S
Dy944 O955 2.326 . S
Dy944 O959 2.310 1_455 S
Dy944 O960 2.351 1_545 S
C945 O956 1.185 . S
C945 O957 1.355 . S
C946 O948 1.185 1_655 S
C946 O949 1.355 . S
Dy947 O951 2.310 . S
Dy947 O954 2.351 . S
Dy947 O956 2.398 . S
Dy947 O957 2.491 . S
Dy947 O958 2.403 1_455 S
Dy947 O959 2.664 1_455 S
Dy947 O961 2.326 . S
O948 Dy944 2.398 . S
O948 C946 1.185 1_455 S
O949 Dy944 2.491 1_655 S
O949 C946 1.355 . S
O950 Dy944 2.403 . S
O950 C952 1.254 . S
O951 Dy944 2.664 . S
O951 Dy947 2.310 . S
O951 C952 1.268 . S
C952 O950 1.254 . S
C952 O951 1.268 . S
C953 O958 1.254 . S
C953 O959 1.268 . S
O954 Dy947 2.351 . S
O954 C962 1.249 . S
O955 Dy944 2.326 . S
O955 C962 1.267 . S
O956 C945 1.185 . S
O956 Dy947 2.398 . S
O957 C945 1.355 . S
O957 Dy947 2.491 . S
O958 Dy947 2.403 1_655 S
O958 C953 1.254 . S
O959 Dy944 2.310 1_655 S
O959 Dy947 2.664 1_655 S
O959 C953 1.268 . S
O960 Dy944 2.351 1_565 S
O960 C963 1.249 . S
O961 Dy947 2.326 . S
O961 C963 1.267 1_545 S
C962 O954 1.249 . S
C962 O955 1.267 . S
C963 O960 1.249 . S
C963 O961 1.267 1_565 S
Dy964 O968 2.398 . S
Dy964 O969 2.491 . S
Dy964 O970 2.403 . S
Dy964 O971 2.664 . S
Dy964 O975 2.326 . S
Dy964 O979 2.310 . S
Dy964 O980 2.351 . S
C965 O976 1.185 . S
C965 O977 1.355 . S
C966 O968 1.185 . S
C966 O969 1.355 . S
Dy967 O971 2.310 . S
Dy967 O974 2.351 . S
Dy967 O976 2.398 . S
Dy967 O977 2.491 . S
Dy967 O978 2.403 . S
Dy967 O979 2.664 . S
Dy967 O981 2.326 . S
O968 Dy964 2.398 . S
O968 C966 1.185 . S
O969 Dy964 2.491 . S
O969 C966 1.355 . S
O970 Dy964 2.403 . S
O970 C972 1.254 . S
O971 Dy964 2.664 . S
O971 Dy967 2.310 . S
O971 C972 1.268 . S
C972 O970 1.254 . S
C972 O971 1.268 . S
C973 O978 1.254 . S
C973 O979 1.268 . S
O974 Dy967 2.351 . S
O974 C982 1.249 . S
O975 Dy964 2.326 . S
O975 C982 1.267 . S
O976 C965 1.185 . S
O976 Dy967 2.398 . S
O977 C965 1.355 . S
O977 Dy967 2.491 . S
O978 Dy967 2.403 . S
O978 C973 1.254 . S
O979 Dy964 2.310 . S
O979 Dy967 2.664 . S
O979 C973 1.268 . S
O980 Dy964 2.351 . S
O980 C983 1.249 . S
O981 Dy967 2.326 . S
O981 C983 1.267 . S
C982 O974 1.249 . S
C982 O975 1.267 . S
C983 O980 1.249 . S
C983 O981 1.267 . S
Dy984 O988 2.398 . S
Dy984 O989 2.491 . S
Dy984 O990 2.403 1_545 S
Dy984 O991 2.664 . S
Dy984 O995 2.326 . S
Dy984 O999 2.310 . S
Dy984 O1000 2.351 . S
C985 O996 1.185 . S
C985 O997 1.355 . S
C986 O988 1.185 . S
C986 O989 1.355 . S
Dy987 O991 2.310 1_556 S
Dy987 O994 2.351 . S
Dy987 O996 2.398 . S
Dy987 O997 2.491 . S
Dy987 O998 2.387 1_556 S
Dy987 O999 2.664 1_556 S
Dy987 O1001 2.326 . S
O988 Dy984 2.398 . S
O988 C986 1.185 . S
O989 Dy984 2.491 . S
O989 C986 1.355 . S
O990 Dy984 2.403 1_565 S
O990 C992 1.254 . S
O991 Dy984 2.664 . S
O991 Dy987 2.310 1_554 S
O991 C992 1.268 1_545 S
C992 O990 1.254 . S
C992 O991 1.268 1_565 S
C993 O998 1.299 . S
C993 O999 1.268 . S
O994 Dy987 2.351 . S
O994 C1002 1.249 1_556 S
O995 Dy984 2.326 . S
O995 C1002 1.267 . S
O996 C985 1.185 . S
O996 Dy987 2.398 . S
O997 C985 1.355 . S
O997 Dy987 2.491 . S
O998 Dy987 2.387 1_554 S
O998 C993 1.299 . S
O999 Dy984 2.310 . S
O999 Dy987 2.664 1_554 S
O999 C993 1.268 . S
O1000 Dy984 2.351 . S
O1000 C1003 1.249 . S
O1001 Dy987 2.326 . S
O1001 C1003 1.267 1_556 S
C1002 O994 1.249 1_554 S
C1002 O995 1.267 . S
C1003 O1000 1.249 . S
C1003 O1001 1.267 1_554 S
Dy1004 O1008 2.398 . S
Dy1004 O1009 2.491 . S
Dy1004 O1010 2.403 . S
Dy1004 O1011 2.664 . S
Dy1004 O1015 2.326 . S
Dy1004 O1019 2.310 . S
Dy1004 O1020 2.351 . S
C1005 O1016 1.185 . S
C1005 O1017 1.355 . S
C1006 O1008 1.185 . S
C1006 O1009 1.355 . S
Dy1007 O1011 2.310 . S
Dy1007 O1014 2.351 . S
Dy1007 O1016 2.398 . S
Dy1007 O1017 2.491 . S
Dy1007 O1018 2.403 . S
Dy1007 O1019 2.664 . S
Dy1007 O1021 2.326 . S
O1008 Dy1004 2.398 . S
O1008 C1006 1.185 . S
O1009 Dy1004 2.491 . S
O1009 C1006 1.355 . S
O1010 Dy1004 2.403 . S
O1010 C1012 1.254 . S
O1011 Dy1004 2.664 . S
O1011 Dy1007 2.310 . S
O1011 C1012 1.268 . S
C1012 O1010 1.254 . S
C1012 O1011 1.268 . S
C1013 O1018 1.254 . S
C1013 O1019 1.268 . S
O1014 Dy1007 2.351 . S
O1014 C1022 1.249 . S
O1015 Dy1004 2.326 . S
O1015 C1022 1.267 . S
O1016 C1005 1.185 . S
O1016 Dy1007 2.398 . S
O1017 C1005 1.355 . S
O1017 Dy1007 2.491 . S
O1018 Dy1007 2.403 . S
O1018 C1013 1.254 . S
O1019 Dy1004 2.310 . S
O1019 Dy1007 2.664 . S
O1019 C1013 1.268 . S
O1020 Dy1004 2.351 . S
O1020 C1023 1.249 . S
O1021 Dy1007 2.326 . S
O1021 C1023 1.267 . S
C1022 O1014 1.249 . S
C1022 O1015 1.267 . S
C1023 O1020 1.249 . S
C1023 O1021 1.267 . S
Dy1024 O1028 2.398 . S
Dy1024 O1029 2.491 . S
Dy1024 O1030 2.403 . S
Dy1024 O1031 2.664 1_556 S
Dy1024 O1035 2.326 . S
Dy1024 O1039 2.310 1_556 S
Dy1024 O1040 2.351 1_556 S
C1025 O1036 1.185 . S
C1025 O1037 1.355 . S
C1026 O1028 1.185 . S
C1026 O1029 1.355 . S
Dy1027 O1031 2.310 . S
Dy1027 O1034 2.351 . S
Dy1027 O1036 2.398 . S
Dy1027 O1037 2.491 . S
Dy1027 O1038 2.403 . S
Dy1027 O1039 2.664 . S
Dy1027 O1041 2.326 . S
O1028 Dy1024 2.398 . S
O1028 C1026 1.185 . S
O1029 Dy1024 2.491 . S
O1029 C1026 1.355 . S
O1030 Dy1024 2.403 . S
O1030 C1032 1.254 1_556 S
O1031 Dy1024 2.664 1_554 S
O1031 Dy1027 2.310 . S
O1031 C1032 1.268 . S
C1032 O1030 1.254 1_554 S
C1032 O1031 1.268 . S
C1033 O1038 1.254 . S
C1033 O1039 1.268 . S
O1034 Dy1027 2.351 . S
O1034 C1042 1.198 1_554 S
O1035 Dy1024 2.326 . S
O1035 C1042 1.299 . S
O1036 C1025 1.185 . S
O1036 Dy1027 2.398 . S
O1037 C1025 1.355 . S
O1037 Dy1027 2.491 . S
O1038 Dy1027 2.403 . S
O1038 C1033 1.254 . S
O1039 Dy1024 2.310 1_554 S
O1039 Dy1027 2.664 . S
O1039 C1033 1.268 . S
O1040 Dy1024 2.351 1_554 S
O1040 C1043 1.249 . S
O1041 Dy1027 2.326 . S
O1041 C1043 1.267 . S
C1042 O1034 1.198 1_556 S
C1042 O1035 1.299 . S
C1043 O1040 1.249 . S
C1043 O1041 1.267 . S
Dy1044 O1048 2.398 . S
Dy1044 O1049 2.491 . S
Dy1044 O1050 2.403 . S
Dy1044 O1051 2.664 . S
Dy1044 O1055 2.326 . S
Dy1044 O1059 2.310 . S
Dy1044 O1060 2.351 . S
C1045 O1056 1.185 . S
C1045 O1057 1.355 . S
C1046 O1048 1.185 . S
C1046 O1049 1.355 . S
Dy1047 O1051 2.310 . S
Dy1047 O1054 2.351 . S
Dy1047 O1056 2.398 . S
Dy1047 O1057 2.491 . S
Dy1047 O1058 2.403 . S
Dy1047 O1059 2.664 . S
Dy1047 O1061 2.326 . S
O1048 Dy1044 2.398 . S
O1048 C1046 1.185 . S
O1049 Dy1044 2.491 . S
O1049 C1046 1.355 . S
O1050 Dy1044 2.403 . S
O1050 C1052 1.254 . S
O1051 Dy1044 2.664 . S
O1051 Dy1047 2.310 . S
O1051 C1052 1.268 . S
C1052 O1050 1.254 . S
C1052 O1051 1.268 . S
C1053 O1058 1.254 . S
C1053 O1059 1.268 . S
O1054 Dy1047 2.351 . S
O1054 C1062 1.249 . S
O1055 Dy1044 2.326 . S
O1055 C1062 1.267 . S
O1056 C1045 1.185 . S
O1056 Dy1047 2.398 . S
O1057 C1045 1.355 . S
O1057 Dy1047 2.491 . S
O1058 Dy1047 2.403 . S
O1058 C1053 1.254 . S
O1059 Dy1044 2.310 . S
O1059 Dy1047 2.664 . S
O1059 C1053 1.268 . S
O1060 Dy1044 2.351 . S
O1060 C1063 1.249 . S
O1061 Dy1047 2.326 . S
O1061 C1063 1.267 . S
C1062 O1054 1.249 . S
C1062 O1055 1.267 . S
C1063 O1060 1.249 . S
C1063 O1061 1.267 . S
Dy1064 O1068 2.398 . S
Dy1064 O1069 2.491 1_455 S
Dy1064 O1070 2.403 . S
Dy1064 O1071 2.664 . S
Dy1064 O1075 2.326 1_455 S
Dy1064 O1079 2.310 . S
Dy1064 O1080 2.351 . S
C1065 O1076 1.185 . S
C1065 O1077 1.355 . S
C1066 O1068 1.185 1_655 S
C1066 O1069 1.355 . S
Dy1067 O1071 2.310 . S
Dy1067 O1074 2.351 1_455 S
Dy1067 O1076 2.398 . S
Dy1067 O1077 2.491 . S
Dy1067 O1078 2.403 . S
Dy1067 O1079 2.664 . S
Dy1067 O1081 2.326 . S
O1068 Dy1064 2.398 . S
O1068 C1066 1.185 1_455 S
O1069 Dy1064 2.491 1_655 S
O1069 C1066 1.355 . S
O1070 Dy1064 2.403 . S
O1070 C1072 1.254 . S
O1071 Dy1064 2.664 . S
O1071 Dy1067 2.310 . S
O1071 C1072 1.268 . S
C1072 O1070 1.254 . S
C1072 O1071 1.268 . S
C1073 O1078 1.254 . S
C1073 O1079 1.268 . S
O1074 Dy1067 2.351 1_655 S
O1074 C1082 1.249 . S
O1075 Dy1064 2.326 1_655 S
O1075 C1082 1.267 . S
O1076 C1065 1.185 . S
O1076 Dy1067 2.398 . S
O1077 C1065 1.355 . S
O1077 Dy1067 2.491 . S
O1078 Dy1067 2.403 . S
O1078 C1073 1.254 . S
O1079 Dy1064 2.310 . S
O1079 Dy1067 2.664 . S
O1079 C1073 1.268 . S
O1080 Dy1064 2.351 . S
O1080 C1083 1.249 . S
O1081 Dy1067 2.326 . S
O1081 C1083 1.267 . S
C1082 O1074 1.249 . S
C1082 O1075 1.267 . S
C1083 O1080 1.249 . S
C1083 O1081 1.267 . S
Dy1084 O1088 2.398 . S
Dy1084 O1089 2.491 . S
Dy1084 O1090 2.403 . S
Dy1084 O1091 2.664 . S
Dy1084 O1095 2.326 . S
Dy1084 O1099 2.310 . S
Dy1084 O1100 2.351 . S
C1085 O1096 1.185 . S
C1085 O1097 1.355 . S
C1086 O1088 1.185 . S
C1086 O1089 1.355 . S
Dy1087 O1091 2.310 . S
Dy1087 O1094 2.351 . S
Dy1087 O1096 2.398 . S
Dy1087 O1097 2.491 . S
Dy1087 O1098 2.403 . S
Dy1087 O1099 2.664 . S
Dy1087 O1101 2.326 . S
O1088 Dy1084 2.398 . S
O1088 C1086 1.185 . S
O1089 Dy1084 2.491 . S
O1089 C1086 1.355 . S
O1090 Dy1084 2.403 . S
O1090 C1092 1.254 . S
O1091 Dy1084 2.664 . S
O1091 Dy1087 2.310 . S
O1091 C1092 1.268 . S
C1092 O1090 1.254 . S
C1092 O1091 1.268 . S
C1093 O1098 1.254 . S
C1093 O1099 1.268 . S
O1094 Dy1087 2.351 . S
O1094 C1102 1.249 . S
O1095 Dy1084 2.326 . S
O1095 C1102 1.267 . S
O1096 C1085 1.185 . S
O1096 Dy1087 2.398 . S
O1097 C1085 1.355 . S
O1097 Dy1087 2.491 . S
O1098 Dy1087 2.403 . S
O1098 C1093 1.254 . S
O1099 Dy1084 2.310 . S
O1099 Dy1087 2.664 . S
O1099 C1093 1.268 . S
O1100 Dy1084 2.351 . S
O1100 C1103 1.249 . S
O1101 Dy1087 2.326 . S
O1101 C1103 1.267 . S
C1102 O1094 1.249 . S
C1102 O1095 1.267 . S
C1103 O1100 1.249 . S
C1103 O1101 1.267 . S
Dy1104 O1108 2.398 . S
Dy1104 O1109 2.491 . S
Dy1104 O1110 2.403 . S
Dy1104 O1111 2.664 . S
Dy1104 O1115 2.326 . S
Dy1104 O1119 2.310 . S
Dy1104 O1120 2.351 . S
C1105 O1116 1.185 . S
C1105 O1117 1.355 . S
C1106 O1108 1.185 . S
C1106 O1109 1.355 . S
Dy1107 O1111 2.310 . S
Dy1107 O1114 2.351 . S
Dy1107 O1116 2.398 . S
Dy1107 O1117 2.491 . S
Dy1107 O1118 2.403 . S
Dy1107 O1119 2.664 . S
Dy1107 O1121 2.326 . S
O1108 Dy1104 2.398 . S
O1108 C1106 1.185 . S
O1109 Dy1104 2.491 . S
O1109 C1106 1.355 . S
O1110 Dy1104 2.403 . S
O1110 C1112 1.254 . S
O1111 Dy1104 2.664 . S
O1111 Dy1107 2.310 . S
O1111 C1112 1.268 . S
C1112 O1110 1.254 . S
C1112 O1111 1.268 . S
C1113 O1118 1.254 . S
C1113 O1119 1.268 . S
O1114 Dy1107 2.351 . S
O1114 C1122 1.249 . S
O1115 Dy1104 2.326 . S
O1115 C1122 1.267 . S
O1116 C1105 1.185 . S
O1116 Dy1107 2.398 . S
O1117 C1105 1.355 . S
O1117 Dy1107 2.491 . S
O1118 Dy1107 2.403 . S
O1118 C1113 1.254 . S
O1119 Dy1104 2.310 . S
O1119 Dy1107 2.664 . S
O1119 C1113 1.268 . S
O1120 Dy1104 2.351 . S
O1120 C1123 1.249 . S
O1121 Dy1107 2.326 . S
O1121 C1123 1.267 . S
C1122 O1114 1.249 . S
C1122 O1115 1.267 . S
C1123 O1120 1.249 . S
C1123 O1121 1.267 . S
Dy1124 O1128 2.398 . S
Dy1124 O1129 2.491 . S
Dy1124 O1130 2.403 . S
Dy1124 O1131 2.664 . S
Dy1124 O1135 2.326 . S
Dy1124 O1139 2.310 . S
Dy1124 O1140 2.351 . S
C1125 O1136 1.185 . S
C1125 O1137 1.355 . S
C1126 O1128 1.185 . S
C1126 O1129 1.355 . S
Dy1127 O1131 2.310 . S
Dy1127 O1134 2.351 . S
Dy1127 O1136 2.398 . S
Dy1127 O1137 2.491 . S
Dy1127 O1138 2.403 . S
Dy1127 O1139 2.664 . S
Dy1127 O1141 2.326 . S
O1128 Dy1124 2.398 . S
O1128 C1126 1.185 . S
O1129 Dy1124 2.491 . S
O1129 C1126 1.355 . S
O1130 Dy1124 2.403 . S
O1130 C1132 1.254 . S
O1131 Dy1124 2.664 . S
O1131 Dy1127 2.310 . S
O1131 C1132 1.268 . S
C1132 O1130 1.254 . S
C1132 O1131 1.268 . S
C1133 O1138 1.254 . S
C1133 O1139 1.268 . S
O1134 Dy1127 2.351 . S
O1134 C1142 1.249 . S
O1135 Dy1124 2.326 . S
O1135 C1142 1.267 . S
O1136 C1125 1.185 . S
O1136 Dy1127 2.398 . S
O1137 C1125 1.355 . S
O1137 Dy1127 2.491 . S
O1138 Dy1127 2.403 . S
O1138 C1133 1.254 . S
O1139 Dy1124 2.310 . S
O1139 Dy1127 2.664 . S
O1139 C1133 1.268 . S
O1140 Dy1124 2.351 . S
O1140 C1143 1.249 . S
O1141 Dy1127 2.326 . S
O1141 C1143 1.267 . S
C1142 O1134 1.249 . S
C1142 O1135 1.267 . S
C1143 O1140 1.249 . S
C1143 O1141 1.267 . S
Dy1144 O1148 2.398 . S
Dy1144 O1149 2.491 . S
Dy1144 O1150 2.403 . S
Dy1144 O1151 2.664 . S
Dy1144 O1155 2.326 . S
Dy1144 O1159 2.310 . S
Dy1144 O1160 2.351 . S
C1145 O1156 1.185 . S
C1145 O1157 1.355 . S
C1146 O1148 1.185 . S
C1146 O1149 1.355 . S
Dy1147 O1151 2.310 . S
Dy1147 O1154 2.351 . S
Dy1147 O1156 2.398 . S
Dy1147 O1157 2.491 . S
Dy1147 O1158 2.403 . S
Dy1147 O1159 2.664 . S
Dy1147 O1161 2.326 . S
O1148 Dy1144 2.398 . S
O1148 C1146 1.185 . S
O1149 Dy1144 2.491 . S
O1149 C1146 1.355 . S
O1150 Dy1144 2.403 . S
O1150 C1152 1.254 . S
O1151 Dy1144 2.664 . S
O1151 Dy1147 2.310 . S
O1151 C1152 1.268 . S
C1152 O1150 1.254 . S
C1152 O1151 1.268 . S
C1153 O1158 1.254 . S
C1153 O1159 1.268 . S
O1154 Dy1147 2.351 . S
O1154 C1162 1.249 . S
O1155 Dy1144 2.326 . S
O1155 C1162 1.267 . S
O1156 C1145 1.185 . S
O1156 Dy1147 2.398 . S
O1157 C1145 1.355 . S
O1157 Dy1147 2.491 . S
O1158 Dy1147 2.403 . S
O1158 C1153 1.254 . S
O1159 Dy1144 2.310 . S
O1159 Dy1147 2.664 . S
O1159 C1153 1.268 . S
O1160 Dy1144 2.351 . S
O1160 C1163 1.249 . S
O1161 Dy1147 2.326 . S
O1161 C1163 1.267 . S
C1162 O1154 1.249 . S
C1162 O1155 1.267 . S
C1163 O1160 1.249 . S
C1163 O1161 1.267 . S
Dy1164 O1168 2.398 1_554 S
Dy1164 O1169 2.491 . S
Dy1164 O1170 2.403 1_554 S
Dy1164 O1171 2.664 1_554 S
Dy1164 O1175 2.326 1_554 S
Dy1164 O1179 2.310 . S
Dy1164 O1180 2.351 . S
C1165 O1176 1.185 . S
C1165 O1177 1.355 . S
C1166 O1168 1.185 . S
C1166 O1169 1.355 1_556 S
Dy1167 O1171 2.310 1_654 S
Dy1167 O1174 2.351 . S
Dy1167 O1176 2.398 . S
Dy1167 O1177 2.491 . S
Dy1167 O1178 2.403 . S
Dy1167 O1179 2.664 1_655 S
Dy1167 O1181 2.326 1_655 S
O1168 Dy1164 2.398 1_556 S
O1168 C1166 1.185 . S
O1169 Dy1164 2.491 . S
O1169 C1166 1.355 1_554 S
O1170 Dy1164 2.403 1_556 S
O1170 C1172 1.254 . S
O1171 Dy1164 2.664 1_556 S
O1171 Dy1167 2.310 1_456 S
O1171 C1172 1.268 . S
C1172 O1170 1.254 . S
C1172 O1171 1.268 . S
C1173 O1178 1.254 1_455 S
C1173 O1179 1.268 . S
O1174 Dy1167 2.351 . S
O1174 C1182 1.267 1_655 S
O1175 Dy1164 2.326 1_556 S
O1175 C1182 1.248 1_556 S
O1176 C1165 1.185 . S
O1176 Dy1167 2.398 . S
O1177 C1165 1.355 . S
O1177 Dy1167 2.491 . S
O1178 Dy1167 2.403 . S
O1178 C1173 1.254 1_655 S
O1179 Dy1164 2.310 . S
O1179 Dy1167 2.664 1_455 S
O1179 C1173 1.268 . S
O1180 Dy1164 2.351 . S
O1180 C1183 1.249 . S
O1181 Dy1167 2.326 1_455 S
O1181 C1183 1.267 . S
C1182 O1174 1.267 1_455 S
C1182 O1175 1.248 1_554 S
C1183 O1180 1.249 . S
C1183 O1181 1.267 . S
C1184 C1185 1.349 . S
C1184 C1186 1.327 . S
C1184 H1209 0.950 . S
C1185 C1184 1.349 . S
C1185 C1201 1.349 1_655 S
C1186 C1184 1.327 . S
C1186 C1205 1.431 1_655 S
C1186 H1210 0.950 . S
C1187 C1204 1.574 . S
C1187 C1206 1.368 . S
C1187 H1211 0.949 . S
H1188 C1192 0.949 . S
C1189 C1190 1.349 . S
C1189 C1191 1.327 . S
C1189 H1212 0.950 . S
C1190 C1189 1.349 . S
C1190 C1202 1.349 1_456 S
C1191 C1189 1.327 . S
C1191 C1207 1.429 . S
C1191 H1213 0.950 . S
C1192 H1188 0.949 . S
C1192 C1200 1.574 . S
C1192 C1208 1.368 1_655 S
H1193 C1201 0.950 . S
H1194 C1199 0.950 . S
H1195 C1200 0.949 . S
H1196 C1202 0.950 . S
H1197 C1203 0.950 1_554 S
H1198 C1204 0.949 . S
C1199 H1194 0.950 . S
C1199 C1201 1.327 . S
C1199 C1205 1.427 . S
C1200 C1192 1.574 . S
C1200 H1195 0.949 . S
C1200 C1206 1.368 1_655 S
C1201 C1185 1.349 1_455 S
C1201 H1193 0.950 . S
C1201 C1199 1.327 . S
C1202 C1190 1.349 1_654 S
C1202 H1196 0.950 . S
C1202 C1203 1.327 1_554 S
C1203 H1197 0.950 1_556 S
C1203 C1202 1.327 1_556 S
C1203 C1207 1.429 1_655 S
C1204 C1187 1.574 . S
C1204 H1198 0.949 . S
C1204 C1208 1.368 . S
C1205 C1186 1.431 1_455 S
C1205 C1199 1.427 . S
C1205 C1206 1.522 . S
C1206 C1187 1.368 . S
C1206 C1200 1.368 1_455 S
C1206 C1205 1.522 . S
C1207 C1191 1.429 . S
C1207 C1203 1.429 1_455 S
C1207 C1208 1.523 . S
C1208 C1192 1.368 1_455 S
C1208 C1204 1.368 . S
C1208 C1207 1.523 . S
H1209 C1184 0.950 . S
H1210 C1186 0.950 . S
H1211 C1187 0.949 . S
H1212 C1189 0.950 . S
H1213 C1191 0.950 . S
C1214 C1215 1.349 . S
C1214 C1216 1.327 . S
C1214 H1239 0.950 . S
C1215 C1214 1.349 . S
C1215 C1231 1.349 . S
C1216 C1214 1.327 . S
C1216 C1235 1.429 . S
C1216 H1240 0.950 . S
C1217 C1234 1.574 . S
C1217 C1236 1.368 . S
C1217 H1241 0.949 . S
H1218 C1222 0.949 . S
C1219 C1220 1.349 . S
C1219 C1221 1.327 . S
C1219 H1242 0.950 . S
C1220 C1219 1.349 . S
C1220 C1232 1.349 . S
C1221 C1219 1.327 . S
C1221 C1237 1.429 . S
C1221 H1243 0.950 . S
C1222 H1218 0.949 . S
C1222 C1230 1.574 . S
C1222 C1238 1.368 . S
H1223 C1231 0.950 . S
H1224 C1229 0.950 . S
H1225 C1230 0.949 . S
H1226 C1232 0.950 . S
H1227 C1233 0.950 . S
H1228 C1234 0.949 . S
C1229 H1224 0.950 . S
C1229 C1231 1.327 . S
C1229 C1235 1.429 . S
C1230 C1222 1.574 . S
C1230 H1225 0.949 . S
C1230 C1236 1.368 . S
C1231 C1215 1.349 . S
C1231 H1223 0.950 . S
C1231 C1229 1.327 . S
C1232 C1220 1.349 . S
C1232 H1226 0.950 . S
C1232 C1233 1.327 . S
C1233 H1227 0.950 . S
C1233 C1232 1.327 . S
C1233 C1237 1.429 . S
C1234 C1217 1.574 . S
C1234 H1228 0.949 . S
C1234 C1238 1.368 . S
C1235 C1216 1.429 . S
C1235 C1229 1.429 . S
C1235 C1236 1.523 . S
C1236 C1217 1.368 . S
C1236 C1230 1.368 . S
C1236 C1235 1.523 . S
C1237 C1221 1.429 . S
C1237 C1233 1.429 . S
C1237 C1238 1.523 . S
C1238 C1222 1.368 . S
C1238 C1234 1.368 . S
C1238 C1237 1.523 . S
H1239 C1214 0.950 . S
H1240 C1216 0.950 . S
H1241 C1217 0.949 . S
H1242 C1219 0.950 . S
H1243 C1221 0.950 . S
C1244 C1245 1.349 . S
C1244 C1246 1.327 . S
C1244 H1269 0.950 . S
C1245 C1244 1.349 . S
C1245 C1261 1.349 . S
C1246 C1244 1.327 . S
C1246 C1265 1.429 . S
C1246 H1270 0.950 . S
C1247 C1264 1.574 . S
C1247 C1266 1.368 . S
C1247 H1271 0.949 . S
H1248 C1252 0.949 . S
C1249 C1250 1.349 . S
C1249 C1251 1.327 . S
C1249 H1272 0.950 . S
C1250 C1249 1.349 . S
C1250 C1262 1.349 . S
C1251 C1249 1.327 . S
C1251 C1267 1.429 . S
C1251 H1273 0.950 . S
C1252 H1248 0.949 . S
C1252 C1260 1.574 . S
C1252 C1268 1.368 . S
H1253 C1261 0.950 . S
H1254 C1259 0.950 . S
H1255 C1260 0.949 . S
H1256 C1262 0.950 . S
H1257 C1263 0.950 . S
H1258 C1264 0.949 . S
C1259 H1254 0.950 . S
C1259 C1261 1.327 . S
C1259 C1265 1.429 . S
C1260 C1252 1.574 . S
C1260 H1255 0.949 . S
C1260 C1266 1.368 . S
C1261 C1245 1.349 . S
C1261 H1253 0.950 . S
C1261 C1259 1.327 . S
C1262 C1250 1.349 . S
C1262 H1256 0.950 . S
C1262 C1263 1.327 . S
C1263 H1257 0.950 . S
C1263 C1262 1.327 . S
C1263 C1267 1.429 . S
C1264 C1247 1.574 . S
C1264 H1258 0.949 . S
C1264 C1268 1.368 . S
C1265 C1246 1.429 . S
C1265 C1259 1.429 . S
C1265 C1266 1.523 . S
C1266 C1247 1.368 . S
C1266 C1260 1.368 . S
C1266 C1265 1.523 . S
C1267 C1251 1.429 . S
C1267 C1263 1.429 . S
C1267 C1268 1.523 . S
C1268 C1252 1.368 . S
C1268 C1264 1.368 . S
C1268 C1267 1.523 . S
H1269 C1244 0.950 . S
H1270 C1246 0.950 . S
H1271 C1247 0.949 . S
H1272 C1249 0.950 . S
H1273 C1251 0.950 . S
C1274 C1275 1.349 . S
C1274 C1276 1.327 . S
C1274 H1299 0.950 . S
C1275 C1274 1.349 . S
C1275 C1291 1.349 . S
C1276 C1274 1.327 . S
C1276 C1295 1.429 . S
C1276 H1300 0.950 . S
C1277 C1294 1.574 . S
C1277 C1296 1.368 . S
C1277 H1301 0.949 . S
H1278 C1282 0.949 . S
C1279 C1280 1.349 . S
C1279 C1281 1.327 . S
C1279 H1302 0.950 . S
C1280 C1279 1.349 . S
C1280 C1292 1.349 . S
C1281 C1279 1.327 . S
C1281 C1297 1.429 . S
C1281 H1303 0.950 . S
C1282 H1278 0.949 . S
C1282 C1290 1.574 . S
C1282 C1298 1.368 . S
H1283 C1291 0.950 . S
H1284 C1289 0.950 . S
H1285 C1290 0.949 . S
H1286 C1292 0.950 . S
H1287 C1293 0.950 . S
H1288 C1294 0.949 . S
C1289 H1284 0.950 . S
C1289 C1291 1.327 . S
C1289 C1295 1.429 . S
C1290 C1282 1.574 . S
C1290 H1285 0.949 . S
C1290 C1296 1.368 . S
C1291 C1275 1.349 . S
C1291 H1283 0.950 . S
C1291 C1289 1.327 . S
C1292 C1280 1.349 . S
C1292 H1286 0.950 . S
C1292 C1293 1.327 . S
C1293 H1287 0.950 . S
C1293 C1292 1.327 . S
C1293 C1297 1.429 . S
C1294 C1277 1.574 . S
C1294 H1288 0.949 . S
C1294 C1298 1.368 . S
C1295 C1276 1.429 . S
C1295 C1289 1.429 . S
C1295 C1296 1.523 . S
C1296 C1277 1.368 . S
C1296 C1290 1.368 . S
C1296 C1295 1.523 . S
C1297 C1281 1.429 . S
C1297 C1293 1.429 . S
C1297 C1298 1.523 . S
C1298 C1282 1.368 . S
C1298 C1294 1.368 . S
C1298 C1297 1.523 . S
H1299 C1274 0.950 . S
H1300 C1276 0.950 . S
H1301 C1277 0.949 . S
H1302 C1279 0.950 . S
H1303 C1281 0.950 . S
C1304 C1305 1.349 . S
C1304 C1306 1.327 . S
C1304 H1329 0.950 . S
C1305 C1304 1.349 . S
C1305 C1321 1.349 . S
C1306 C1304 1.327 . S
C1306 C1325 1.429 . S
C1306 H1330 0.950 . S
C1307 C1324 1.574 . S
C1307 C1326 1.368 . S
C1307 H1331 0.949 . S
H1308 C1312 0.949 . S
C1309 C1310 1.349 . S
C1309 C1311 1.327 . S
C1309 H1332 0.950 . S
C1310 C1309 1.349 . S
C1310 C1322 1.349 . S
C1311 C1309 1.327 . S
C1311 C1327 1.429 . S
C1311 H1333 0.950 . S
C1312 H1308 0.949 . S
C1312 C1320 1.574 . S
C1312 C1328 1.368 . S
H1313 C1321 0.948 1_655 S
H1314 C1319 0.950 . S
H1315 C1320 0.949 . S
H1316 C1322 0.950 . S
H1317 C1323 0.950 . S
H1318 C1324 0.949 . S
C1319 H1314 0.950 . S
C1319 C1321 1.327 . S
C1319 C1325 1.429 . S
C1320 C1312 1.574 . S
C1320 H1315 0.949 . S
C1320 C1326 1.368 . S
C1321 C1305 1.349 . S
C1321 H1313 0.948 1_455 S
C1321 C1319 1.327 . S
C1322 C1310 1.349 . S
C1322 H1316 0.950 . S
C1322 C1323 1.327 . S
C1323 H1317 0.950 . S
C1323 C1322 1.327 . S
C1323 C1327 1.429 . S
C1324 C1307 1.574 . S
C1324 H1318 0.949 . S
C1324 C1328 1.368 . S
C1325 C1306 1.429 . S
C1325 C1319 1.429 . S
C1325 C1326 1.523 . S
C1326 C1307 1.368 . S
C1326 C1320 1.368 . S
C1326 C1325 1.523 . S
C1327 C1311 1.429 . S
C1327 C1323 1.429 . S
C1327 C1328 1.523 . S
C1328 C1312 1.368 . S
C1328 C1324 1.368 . S
C1328 C1327 1.523 . S
H1329 C1304 0.950 . S
H1330 C1306 0.950 . S
H1331 C1307 0.949 . S
H1332 C1309 0.950 . S
H1333 C1311 0.950 . S
C1334 C1335 1.349 . S
C1334 C1336 1.327 . S
C1334 H1359 0.950 . S
C1335 C1334 1.349 . S
C1335 C1351 1.349 . S
C1336 C1334 1.327 . S
C1336 C1355 1.429 . S
C1336 H1360 0.950 . S
C1337 C1354 1.574 . S
C1337 C1356 1.368 . S
C1337 H1361 0.949 . S
H1338 C1342 0.949 . S
C1339 C1340 1.349 . S
C1339 C1341 1.327 . S
C1339 H1362 0.950 . S
C1340 C1339 1.349 . S
C1340 C1352 1.349 . S
C1341 C1339 1.327 . S
C1341 C1357 1.429 . S
C1341 H1363 0.950 . S
C1342 H1338 0.949 . S
C1342 C1350 1.574 . S
C1342 C1358 1.368 . S
H1343 C1351 0.950 . S
H1344 C1349 0.950 . S
H1345 C1350 0.949 . S
H1346 C1352 0.950 . S
H1347 C1353 0.950 . S
H1348 C1354 0.949 . S
C1349 H1344 0.950 . S
C1349 C1351 1.327 . S
C1349 C1355 1.429 . S
C1350 C1342 1.574 . S
C1350 H1345 0.949 . S
C1350 C1356 1.368 . S
C1351 C1335 1.349 . S
C1351 H1343 0.950 . S
C1351 C1349 1.327 . S
C1352 C1340 1.349 . S
C1352 H1346 0.950 . S
C1352 C1353 1.327 . S
C1353 H1347 0.950 . S
C1353 C1352 1.327 . S
C1353 C1357 1.429 . S
C1354 C1337 1.574 . S
C1354 H1348 0.949 . S
C1354 C1358 1.368 . S
C1355 C1336 1.429 . S
C1355 C1349 1.429 . S
C1355 C1356 1.523 . S
C1356 C1337 1.368 . S
C1356 C1350 1.368 . S
C1356 C1355 1.523 . S
C1357 C1341 1.429 . S
C1357 C1353 1.429 . S
C1357 C1358 1.523 . S
C1358 C1342 1.368 . S
C1358 C1354 1.368 . S
C1358 C1357 1.523 . S
H1359 C1334 0.950 . S
H1360 C1336 0.950 . S
H1361 C1337 0.949 . S
H1362 C1339 0.950 . S
H1363 C1341 0.950 . S
C1364 C1365 1.349 . S
C1364 C1366 1.327 . S
C1364 H1389 0.950 . S
C1365 C1364 1.349 . S
C1365 C1381 1.349 . S
C1366 C1364 1.327 . S
C1366 C1385 1.429 . S
C1366 H1390 0.950 . S
C1367 C1384 1.574 . S
C1367 C1386 1.368 . S
C1367 H1391 0.949 . S
H1368 C1372 0.949 . S
C1369 C1370 1.349 . S
C1369 C1371 1.327 . S
C1369 H1392 0.950 . S
C1370 C1369 1.349 . S
C1370 C1382 1.349 . S
C1371 C1369 1.327 . S
C1371 C1387 1.429 . S
C1371 H1393 0.950 . S
C1372 H1368 0.949 . S
C1372 C1380 1.574 . S
C1372 C1388 1.368 . S
H1373 C1381 0.950 . S
H1374 C1379 0.950 . S
H1375 C1380 0.949 . S
H1376 C1382 0.950 . S
H1377 C1383 0.950 . S
H1378 C1384 0.949 . S
C1379 H1374 0.950 . S
C1379 C1381 1.327 . S
C1379 C1385 1.429 . S
C1380 C1372 1.574 . S
C1380 H1375 0.949 . S
C1380 C1386 1.368 . S
C1381 C1365 1.349 . S
C1381 H1373 0.950 . S
C1381 C1379 1.327 . S
C1382 C1370 1.349 . S
C1382 H1376 0.950 . S
C1382 C1383 1.327 . S
C1383 H1377 0.950 . S
C1383 C1382 1.327 . S
C1383 C1387 1.429 . S
C1384 C1367 1.574 . S
C1384 H1378 0.949 . S
C1384 C1388 1.368 . S
C1385 C1366 1.429 . S
C1385 C1379 1.429 . S
C1385 C1386 1.523 . S
C1386 C1367 1.368 . S
C1386 C1380 1.368 . S
C1386 C1385 1.523 . S
C1387 C1371 1.429 . S
C1387 C1383 1.429 . S
C1387 C1388 1.523 . S
C1388 C1372 1.368 . S
C1388 C1384 1.368 . S
C1388 C1387 1.523 . S
H1389 C1364 0.950 . S
H1390 C1366 0.950 . S
H1391 C1367 0.949 . S
H1392 C1369 0.950 . S
H1393 C1371 0.950 . S
C1394 C1395 1.349 . S
C1394 C1396 1.327 . S
C1394 H1419 0.950 . S
C1395 C1394 1.349 . S
C1395 C1411 1.349 . S
C1396 C1394 1.327 . S
C1396 C1415 1.429 . S
C1396 H1420 0.950 . S
C1397 C1414 1.574 . S
C1397 C1416 1.368 . S
C1397 H1421 0.949 . S
H1398 C1402 0.949 . S
C1399 C1400 1.349 . S
C1399 C1401 1.327 . S
C1399 H1422 0.950 . S
C1400 C1399 1.349 . S
C1400 C1412 1.349 . S
C1401 C1399 1.327 . S
C1401 C1417 1.429 . S
C1401 H1423 0.950 . S
C1402 H1398 0.949 . S
C1402 C1410 1.574 . S
C1402 C1418 1.368 . S
H1403 C1411 0.950 . S
H1404 C1409 0.950 . S
H1405 C1410 0.949 . S
H1406 C1412 0.950 . S
H1407 C1413 0.950 . S
H1408 C1414 0.949 . S
C1409 H1404 0.950 . S
C1409 C1411 1.327 . S
C1409 C1415 1.429 . S
C1410 C1402 1.574 . S
C1410 H1405 0.949 . S
C1410 C1416 1.368 . S
C1411 C1395 1.349 . S
C1411 H1403 0.950 . S
C1411 C1409 1.327 . S
C1412 C1400 1.349 . S
C1412 H1406 0.950 . S
C1412 C1413 1.327 . S
C1413 H1407 0.950 . S
C1413 C1412 1.327 . S
C1413 C1417 1.429 . S
C1414 C1397 1.574 . S
C1414 H1408 0.949 . S
C1414 C1418 1.368 . S
C1415 C1396 1.429 . S
C1415 C1409 1.429 . S
C1415 C1416 1.523 . S
C1416 C1397 1.368 . S
C1416 C1410 1.368 . S
C1416 C1415 1.523 . S
C1417 C1401 1.429 . S
C1417 C1413 1.429 . S
C1417 C1418 1.523 . S
C1418 C1402 1.368 . S
C1418 C1414 1.368 . S
C1418 C1417 1.523 . S
H1419 C1394 0.950 . S
H1420 C1396 0.950 . S
H1421 C1397 0.949 . S
H1422 C1399 0.950 . S
H1423 C1401 0.950 . S
C1424 C1425 1.349 . S
C1424 C1426 1.327 . S
C1424 H1449 0.950 . S
C1425 C1424 1.349 . S
C1425 C1441 1.349 . S
C1426 C1424 1.327 . S
C1426 C1445 1.429 . S
C1426 H1450 0.950 . S
C1427 C1444 1.574 . S
C1427 C1446 1.368 . S
C1427 H1451 0.949 . S
H1428 C1432 0.949 . S
C1429 C1430 1.349 . S
C1429 C1431 1.327 . S
C1429 H1452 0.950 . S
C1430 C1429 1.349 . S
C1430 C1442 1.349 1_655 S
C1431 C1429 1.327 . S
C1431 C1447 1.429 . S
C1431 H1453 0.950 . S
C1432 H1428 0.949 . S
C1432 C1440 1.574 . S
C1432 C1448 1.368 . S
H1433 C1441 0.950 . S
H1434 C1439 0.950 . S
H1435 C1440 0.949 . S
H1436 C1442 0.950 . S
H1437 C1443 0.950 1_455 S
H1438 C1444 0.949 . S
C1439 H1434 0.950 . S
C1439 C1441 1.327 . S
C1439 C1445 1.429 . S
C1440 C1432 1.574 . S
C1440 H1435 0.949 . S
C1440 C1446 1.368 . S
C1441 C1425 1.349 . S
C1441 H1433 0.950 . S
C1441 C1439 1.327 . S
C1442 C1430 1.349 1_455 S
C1442 H1436 0.950 . S
C1442 C1443 1.327 1_455 S
C1443 H1437 0.950 1_655 S
C1443 C1442 1.327 1_655 S
C1443 C1447 1.429 . S
C1444 C1427 1.574 . S
C1444 H1438 0.949 . S
C1444 C1448 1.368 . S
C1445 C1426 1.429 . S
C1445 C1439 1.429 . S
C1445 C1446 1.523 . S
C1446 C1427 1.368 . S
C1446 C1440 1.368 . S
C1446 C1445 1.523 . S
C1447 C1431 1.429 . S
C1447 C1443 1.429 . S
C1447 C1448 1.523 . S
C1448 C1432 1.368 . S
C1448 C1444 1.368 . S
C1448 C1447 1.523 . S
H1449 C1424 0.950 . S
H1450 C1426 0.950 . S
H1451 C1427 0.949 . S
H1452 C1429 0.950 . S
H1453 C1431 0.950 . S
C1454 C1455 1.349 . S
C1454 C1456 1.327 . S
C1454 H1479 0.950 . S
C1455 C1454 1.349 . S
C1455 C1471 1.349 . S
C1456 C1454 1.327 . S
C1456 C1475 1.429 . S
C1456 H1480 0.950 . S
C1457 C1474 1.574 . S
C1457 C1476 1.368 . S
C1457 H1481 0.949 . S
H1458 C1462 0.949 . S
C1459 C1460 1.349 . S
C1459 C1461 1.327 . S
C1459 H1482 0.950 . S
C1460 C1459 1.349 . S
C1460 C1472 1.349 . S
C1461 C1459 1.327 . S
C1461 C1477 1.429 . S
C1461 H1483 0.950 . S
C1462 H1458 0.949 . S
C1462 C1470 1.574 . S
C1462 C1478 1.368 . S
H1463 C1471 0.950 . S
H1464 C1469 0.950 . S
H1465 C1470 0.949 . S
H1466 C1472 0.950 . S
H1467 C1473 0.950 . S
H1468 C1474 0.949 . S
C1469 H1464 0.950 . S
C1469 C1471 1.327 . S
C1469 C1475 1.429 . S
C1470 C1462 1.574 . S
C1470 H1465 0.949 . S
C1470 C1476 1.368 . S
C1471 C1455 1.349 . S
C1471 H1463 0.950 . S
C1471 C1469 1.327 . S
C1472 C1460 1.349 . S
C1472 H1466 0.950 . S
C1472 C1473 1.327 . S
C1473 H1467 0.950 . S
C1473 C1472 1.327 . S
C1473 C1477 1.429 . S
C1474 C1457 1.574 . S
C1474 H1468 0.949 . S
C1474 C1478 1.368 . S
C1475 C1456 1.429 . S
C1475 C1469 1.429 . S
C1475 C1476 1.523 . S
C1476 C1457 1.368 . S
C1476 C1470 1.368 . S
C1476 C1475 1.523 . S
C1477 C1461 1.429 . S
C1477 C1473 1.429 . S
C1477 C1478 1.523 . S
C1478 C1462 1.368 . S
C1478 C1474 1.368 . S
C1478 C1477 1.523 . S
H1479 C1454 0.950 . S
H1480 C1456 0.950 . S
H1481 C1457 0.949 . S
H1482 C1459 0.950 . S
H1483 C1461 0.950 . S
C1484 C1485 1.349 . S
C1484 C1486 1.327 . S
C1484 H1509 0.950 . S
C1485 C1484 1.349 . S
C1485 C1501 1.349 . S
C1486 C1484 1.327 . S
C1486 C1505 1.429 . S
C1486 H1510 0.950 . S
C1487 C1504 1.574 . S
C1487 C1506 1.368 . S
C1487 H1511 0.949 1_545 S
H1488 C1492 0.949 . S
C1489 C1490 1.349 . S
C1489 C1491 1.327 . S
C1489 H1512 0.950 1_545 S
C1490 C1489 1.349 . S
C1490 C1502 1.349 . S
C1491 C1489 1.327 . S
C1491 C1507 1.429 . S
C1491 H1513 0.950 1_545 S
C1492 H1488 0.949 . S
C1492 C1500 1.574 . S
C1492 C1508 1.368 . S
H1493 C1501 0.950 1_565 S
H1494 C1499 0.950 1_565 S
H1495 C1500 0.949 . S
H1496 C1502 0.950 . S
H1497 C1503 0.950 . S
H1498 C1504 0.949 1_565 S
C1499 H1494 0.950 1_545 S
C1499 C1501 1.327 . S
C1499 C1505 1.429 . S
C1500 C1492 1.574 . S
C1500 H1495 0.949 . S
C1500 C1506 1.368 . S
C1501 C1485 1.349 . S
C1501 H1493 0.950 1_545 S
C1501 C1499 1.327 . S
C1502 C1490 1.349 . S
C1502 H1496 0.950 . S
C1502 C1503 1.327 . S
C1503 H1497 0.950 . S
C1503 C1502 1.327 . S
C1503 C1507 1.429 . S
C1504 C1487 1.574 . S
C1504 H1498 0.949 1_545 S
C1504 C1508 1.368 . S
C1505 C1486 1.429 . S
C1505 C1499 1.429 . S
C1505 C1506 1.523 . S
C1506 C1487 1.368 . S
C1506 C1500 1.368 . S
C1506 C1505 1.523 . S
C1507 C1491 1.429 . S
C1507 C1503 1.429 . S
C1507 C1508 1.523 . S
C1508 C1492 1.368 . S
C1508 C1504 1.368 . S
C1508 C1507 1.523 . S
H1509 C1484 0.950 . S
H1510 C1486 0.950 . S
H1511 C1487 0.949 1_565 S
H1512 C1489 0.950 1_565 S
H1513 C1491 0.950 1_565 S
C1514 C1515 1.349 . S
C1514 C1516 1.327 . S
C1514 H1539 0.950 . S
C1515 C1514 1.349 . S
C1515 C1531 1.349 . S
C1516 C1514 1.327 . S
C1516 C1535 1.429 . S
C1516 H1540 0.950 . S
C1517 C1534 1.574 . S
C1517 C1536 1.368 . S
C1517 H1541 0.949 . S
H1518 C1522 0.949 . S
C1519 C1520 1.349 . S
C1519 C1521 1.327 . S
C1519 H1542 0.950 . S
C1520 C1519 1.349 . S
C1520 C1532 1.349 . S
C1521 C1519 1.327 . S
C1521 C1537 1.429 . S
C1521 H1543 0.950 . S
C1522 H1518 0.949 . S
C1522 C1530 1.574 . S
C1522 C1538 1.368 . S
H1523 C1531 0.950 . S
H1524 C1529 0.950 . S
H1525 C1530 0.949 . S
H1526 C1532 0.950 . S
H1527 C1533 0.950 . S
H1528 C1534 0.949 . S
C1529 H1524 0.950 . S
C1529 C1531 1.327 . S
C1529 C1535 1.429 . S
C1530 C1522 1.574 . S
C1530 H1525 0.949 . S
C1530 C1536 1.368 . S
C1531 C1515 1.349 . S
C1531 H1523 0.950 . S
C1531 C1529 1.327 . S
C1532 C1520 1.349 . S
C1532 H1526 0.950 . S
C1532 C1533 1.327 . S
C1533 H1527 0.950 . S
C1533 C1532 1.327 . S
C1533 C1537 1.429 . S
C1534 C1517 1.574 . S
C1534 H1528 0.949 . S
C1534 C1538 1.368 . S
C1535 C1516 1.429 . S
C1535 C1529 1.429 . S
C1535 C1536 1.523 . S
C1536 C1517 1.368 . S
C1536 C1530 1.368 . S
C1536 C1535 1.523 . S
C1537 C1521 1.429 . S
C1537 C1533 1.429 . S
C1537 C1538 1.523 . S
C1538 C1522 1.368 . S
C1538 C1534 1.368 . S
C1538 C1537 1.523 . S
H1539 C1514 0.950 . S
H1540 C1516 0.950 . S
H1541 C1517 0.949 . S
H1542 C1519 0.950 . S
H1543 C1521 0.950 . S
C1544 C1545 1.349 . S
C1544 C1546 1.327 . S
C1544 H1569 0.950 . S
C1545 C1544 1.349 . S
C1545 C1561 1.349 . S
C1546 C1544 1.327 . S
C1546 C1565 1.429 . S
C1546 H1570 0.950 . S
C1547 C1564 1.574 . S
C1547 C1566 1.368 . S
C1547 H1571 0.949 . S
H1548 C1552 0.949 . S
C1549 C1550 1.349 . S
C1549 C1551 1.327 . S
C1549 H1572 0.950 . S
C1550 C1549 1.349 . S
C1550 C1562 1.349 . S
C1551 C1549 1.327 . S
C1551 C1567 1.429 . S
C1551 H1573 0.950 . S
C1552 H1548 0.949 . S
C1552 C1560 1.574 . S
C1552 C1568 1.368 . S
H1553 C1561 0.950 . S
H1554 C1559 0.950 . S
H1555 C1560 0.949 . S
H1556 C1562 0.950 . S
H1557 C1563 0.950 . S
H1558 C1564 0.949 . S
C1559 H1554 0.950 . S
C1559 C1561 1.327 . S
C1559 C1565 1.429 . S
C1560 C1552 1.574 . S
C1560 H1555 0.949 . S
C1560 C1566 1.368 . S
C1561 C1545 1.349 . S
C1561 H1553 0.950 . S
C1561 C1559 1.327 . S
C1562 C1550 1.349 . S
C1562 H1556 0.950 . S
C1562 C1563 1.327 . S
C1563 H1557 0.950 . S
C1563 C1562 1.327 . S
C1563 C1567 1.429 . S
C1564 C1547 1.574 . S
C1564 H1558 0.949 . S
C1564 C1568 1.368 . S
C1565 C1546 1.429 . S
C1565 C1559 1.429 . S
C1565 C1566 1.523 . S
C1566 C1547 1.368 . S
C1566 C1560 1.368 . S
C1566 C1565 1.523 . S
C1567 C1551 1.429 . S
C1567 C1563 1.429 . S
C1567 C1568 1.523 . S
C1568 C1552 1.368 . S
C1568 C1564 1.368 . S
C1568 C1567 1.523 . S
H1569 C1544 0.950 . S
H1570 C1546 0.950 . S
H1571 C1547 0.949 . S
H1572 C1549 0.950 . S
H1573 C1551 0.950 . S
C1574 C1575 1.349 . S
C1574 C1576 1.327 . S
C1574 H1599 0.950 . S
C1575 C1574 1.349 . S
C1575 C1591 1.349 . S
C1576 C1574 1.327 . S
C1576 C1595 1.429 . S
C1576 H1600 0.950 . S
C1577 C1594 1.574 . S
C1577 C1596 1.368 . S
C1577 H1601 0.949 . S
H1578 C1582 0.949 . S
C1579 C1580 1.349 . S
C1579 C1581 1.327 . S
C1579 H1602 0.950 . S
C1580 C1579 1.349 . S
C1580 C1592 1.349 . S
C1581 C1579 1.327 . S
C1581 C1597 1.429 . S
C1581 H1603 0.950 . S
C1582 H1578 0.949 . S
C1582 C1590 1.574 . S
C1582 C1598 1.368 . S
H1583 C1591 0.950 . S
H1584 C1589 0.950 . S
H1585 C1590 0.949 . S
H1586 C1592 0.950 . S
H1587 C1593 0.950 . S
H1588 C1594 0.949 . S
C1589 H1584 0.950 . S
C1589 C1591 1.327 . S
C1589 C1595 1.429 . S
C1590 C1582 1.574 . S
C1590 H1585 0.949 . S
C1590 C1596 1.368 . S
C1591 C1575 1.349 . S
C1591 H1583 0.950 . S
C1591 C1589 1.327 . S
C1592 C1580 1.349 . S
C1592 H1586 0.950 . S
C1592 C1593 1.327 . S
C1593 H1587 0.950 . S
C1593 C1592 1.327 . S
C1593 C1597 1.429 . S
C1594 C1577 1.574 . S
C1594 H1588 0.949 . S
C1594 C1598 1.368 . S
C1595 C1576 1.429 . S
C1595 C1589 1.429 . S
C1595 C1596 1.523 . S
C1596 C1577 1.368 . S
C1596 C1590 1.368 . S
C1596 C1595 1.523 . S
C1597 C1581 1.429 . S
C1597 C1593 1.429 . S
C1597 C1598 1.523 . S
C1598 C1582 1.368 . S
C1598 C1594 1.368 . S
C1598 C1597 1.523 . S
H1599 C1574 0.950 . S
H1600 C1576 0.950 . S
H1601 C1577 0.949 . S
H1602 C1579 0.950 . S
H1603 C1581 0.950 . S
C1604 C1605 1.349 . S
C1604 C1606 1.327 . S
C1604 H1629 0.950 . S
C1605 C1604 1.349 . S
C1605 C1621 1.349 . S
C1606 C1604 1.327 . S
C1606 C1625 1.429 . S
C1606 H1630 0.950 . S
C1607 C1624 1.574 . S
C1607 C1626 1.368 . S
C1607 H1631 0.949 . S
H1608 C1612 0.949 . S
C1609 C1610 1.349 . S
C1609 C1611 1.327 . S
C1609 H1632 0.950 . S
C1610 C1609 1.349 . S
C1610 C1622 1.349 . S
C1611 C1609 1.327 . S
C1611 C1627 1.429 . S
C1611 H1633 0.950 . S
C1612 H1608 0.949 . S
C1612 C1620 1.574 . S
C1612 C1628 1.368 . S
H1613 C1621 0.950 . S
H1614 C1619 0.950 . S
H1615 C1620 0.949 . S
H1616 C1622 0.950 . S
H1617 C1623 0.950 . S
H1618 C1624 0.949 . S
C1619 H1614 0.950 . S
C1619 C1621 1.327 . S
C1619 C1625 1.429 . S
C1620 C1612 1.574 . S
C1620 H1615 0.949 . S
C1620 C1626 1.368 . S
C1621 C1605 1.349 . S
C1621 H1613 0.950 . S
C1621 C1619 1.327 . S
C1622 C1610 1.349 . S
C1622 H1616 0.950 . S
C1622 C1623 1.327 . S
C1623 H1617 0.950 . S
C1623 C1622 1.327 . S
C1623 C1627 1.429 . S
C1624 C1607 1.574 . S
C1624 H1618 0.949 . S
C1624 C1628 1.368 . S
C1625 C1606 1.429 . S
C1625 C1619 1.429 . S
C1625 C1626 1.523 . S
C1626 C1607 1.368 . S
C1626 C1620 1.368 . S
C1626 C1625 1.523 . S
C1627 C1611 1.429 . S
C1627 C1623 1.429 . S
C1627 C1628 1.523 . S
C1628 C1612 1.368 . S
C1628 C1624 1.368 . S
C1628 C1627 1.523 . S
H1629 C1604 0.950 . S
H1630 C1606 0.950 . S
H1631 C1607 0.949 . S
H1632 C1609 0.950 . S
H1633 C1611 0.950 . S
C1634 C1635 1.349 . S
C1634 C1636 1.327 . S
C1634 H1659 0.950 . S
C1635 C1634 1.349 . S
C1635 C1651 1.349 . S
C1636 C1634 1.327 . S
C1636 C1655 1.429 . S
C1636 H1660 0.950 . S
C1637 C1654 1.574 . S
C1637 C1656 1.368 . S
C1637 H1661 0.949 . S
H1638 C1642 0.949 . S
C1639 C1640 1.349 . S
C1639 C1641 1.327 . S
C1639 H1662 0.950 . S
C1640 C1639 1.349 . S
C1640 C1652 1.349 . S
C1641 C1639 1.327 . S
C1641 C1657 1.429 . S
C1641 H1663 0.950 . S
C1642 H1638 0.949 . S
C1642 C1650 1.574 . S
C1642 C1658 1.368 . S
H1643 C1651 0.950 . S
H1644 C1649 0.950 . S
H1645 C1650 0.949 . S
H1646 C1652 0.950 . S
H1647 C1653 0.950 . S
H1648 C1654 0.949 . S
C1649 H1644 0.950 . S
C1649 C1651 1.327 . S
C1649 C1655 1.429 . S
C1650 C1642 1.574 . S
C1650 H1645 0.949 . S
C1650 C1656 1.368 . S
C1651 C1635 1.349 . S
C1651 H1643 0.950 . S
C1651 C1649 1.327 . S
C1652 C1640 1.349 . S
C1652 H1646 0.950 . S
C1652 C1653 1.327 . S
C1653 H1647 0.950 . S
C1653 C1652 1.327 . S
C1653 C1657 1.429 . S
C1654 C1637 1.574 . S
C1654 H1648 0.949 . S
C1654 C1658 1.368 . S
C1655 C1636 1.429 . S
C1655 C1649 1.429 . S
C1655 C1656 1.523 . S
C1656 C1637 1.368 . S
C1656 C1650 1.368 . S
C1656 C1655 1.523 . S
C1657 C1641 1.429 . S
C1657 C1653 1.429 . S
C1657 C1658 1.523 . S
C1658 C1642 1.368 . S
C1658 C1654 1.368 . S
C1658 C1657 1.523 . S
H1659 C1634 0.950 . S
H1660 C1636 0.950 . S
H1661 C1637 0.949 . S
H1662 C1639 0.950 . S
H1663 C1641 0.950 . S
C1664 C1665 1.349 . S
C1664 C1666 1.327 . S
C1664 H1689 0.950 . S
C1665 C1664 1.349 . S
C1665 C1681 1.349 . S
C1666 C1664 1.327 . S
C1666 C1685 1.429 . S
C1666 H1690 0.950 . S
C1667 C1684 1.574 . S
C1667 C1686 1.368 . S
C1667 H1691 0.949 . S
H1668 C1672 0.949 . S
C1669 C1670 1.349 . S
C1669 C1671 1.327 . S
C1669 H1692 0.950 . S
C1670 C1669 1.349 . S
C1670 C1682 1.349 1_565 S
C1671 C1669 1.327 . S
C1671 C1687 1.429 . S
C1671 H1693 0.950 . S
C1672 H1668 0.949 . S
C1672 C1680 1.574 . S
C1672 C1688 1.368 . S
H1673 C1681 0.972 . S
H1674 C1679 0.950 . S
H1675 C1680 0.949 . S
H1676 C1682 0.948 . S
H1677 C1683 0.950 . S
H1678 C1684 0.949 . S
C1679 H1674 0.950 . S
C1679 C1681 1.327 . S
C1679 C1685 1.429 . S
C1680 C1672 1.574 . S
C1680 H1675 0.949 . S
C1680 C1686 1.368 . S
C1681 C1665 1.349 . S
C1681 H1673 0.972 . S
C1681 C1679 1.327 . S
C1682 C1670 1.349 1_545 S
C1682 H1676 0.948 . S
C1682 C1683 1.328 1_545 S
C1683 H1677 0.950 . S
C1683 C1682 1.328 1_565 S
C1683 C1687 1.429 . S
C1684 C1667 1.574 . S
C1684 H1678 0.949 . S
C1684 C1688 1.368 . S
C1685 C1666 1.429 . S
C1685 C1679 1.429 . S
C1685 C1686 1.523 . S
C1686 C1667 1.368 . S
C1686 C1680 1.368 . S
C1686 C1685 1.523 . S
C1687 C1671 1.429 . S
C1687 C1683 1.429 . S
C1687 C1688 1.523 . S
C1688 C1672 1.368 . S
C1688 C1684 1.368 . S
C1688 C1687 1.523 . S
H1689 C1664 0.950 . S
H1690 C1666 0.950 . S
H1691 C1667 0.949 . S
H1692 C1669 0.950 . S
H1693 C1671 0.950 . S
C1694 C1695 1.349 . S
C1694 C1696 1.327 . S
C1694 H1719 0.950 . S
C1695 C1694 1.349 . S
C1695 C1711 1.349 1_554 S
C1696 C1694 1.327 . S
C1696 C1715 1.429 . S
C1696 H1720 0.950 . S
C1697 C1714 1.574 . S
C1697 C1716 1.368 1_556 S
C1697 H1721 0.949 . S
H1698 C1702 0.949 . S
C1699 C1700 1.349 1_556 S
C1699 C1701 1.327 . S
C1699 H1722 0.950 . S
C1700 C1699 1.349 1_554 S
C1700 C1712 1.349 . S
C1701 C1699 1.327 . S
C1701 C1717 1.429 1_556 S
C1701 H1723 0.950 . S
C1702 H1698 0.949 . S
C1702 C1710 1.574 . S
C1702 C1718 1.368 . S
H1703 C1711 0.950 . S
H1704 C1709 0.950 . S
H1705 C1710 0.949 . S
H1706 C1712 0.950 . S
H1707 C1713 0.950 . S
H1708 C1714 0.949 . S
C1709 H1704 0.950 . S
C1709 C1711 1.327 . S
C1709 C1715 1.429 1_556 S
C1710 C1702 1.574 . S
C1710 H1705 0.949 . S
C1710 C1716 1.368 . S
C1711 C1695 1.349 1_556 S
C1711 H1703 0.950 . S
C1711 C1709 1.327 . S
C1712 C1700 1.349 . S
C1712 H1706 0.950 . S
C1712 C1713 1.327 . S
C1713 H1707 0.950 . S
C1713 C1712 1.327 . S
C1713 C1717 1.429 . S
C1714 C1697 1.574 . S
C1714 H1708 0.949 . S
C1714 C1718 1.368 1_556 S
C1715 C1696 1.429 . S
C1715 C1709 1.429 1_554 S
C1715 C1716 1.523 . S
C1716 C1697 1.368 1_554 S
C1716 C1710 1.368 . S
C1716 C1715 1.523 . S
C1717 C1701 1.429 1_554 S
C1717 C1713 1.429 . S
C1717 C1718 1.523 . S
C1718 C1702 1.368 . S
C1718 C1714 1.368 1_554 S
C1718 C1717 1.523 . S
H1719 C1694 0.950 . S
H1720 C1696 0.950 . S
H1721 C1697 0.949 . S
H1722 C1699 0.950 . S
H1723 C1701 0.950 . S
C1724 C1725 1.349 . S
C1724 C1726 1.327 . S
C1724 H1749 0.950 . S
C1725 C1724 1.349 . S
C1725 C1741 1.349 . S
C1726 C1724 1.327 . S
C1726 C1745 1.429 . S
C1726 H1750 0.950 . S
C1727 C1744 1.574 . S
C1727 C1746 1.368 . S
C1727 H1751 0.949 . S
H1728 C1732 0.949 . S
C1729 C1730 1.349 . S
C1729 C1731 1.327 . S
C1729 H1752 0.950 . S
C1730 C1729 1.349 . S
C1730 C1742 1.349 . S
C1731 C1729 1.327 . S
C1731 C1747 1.429 . S
C1731 H1753 0.950 . S
C1732 H1728 0.949 . S
C1732 C1740 1.574 . S
C1732 C1748 1.368 . S
H1733 C1741 0.950 . S
H1734 C1739 0.950 . S
H1735 C1740 0.949 . S
H1736 C1742 0.950 . S
H1737 C1743 0.950 . S
H1738 C1744 0.949 . S
C1739 H1734 0.950 . S
C1739 C1741 1.327 . S
C1739 C1745 1.429 . S
C1740 C1732 1.574 . S
C1740 H1735 0.949 . S
C1740 C1746 1.368 . S
C1741 C1725 1.349 . S
C1741 H1733 0.950 . S
C1741 C1739 1.327 . S
C1742 C1730 1.349 . S
C1742 H1736 0.950 . S
C1742 C1743 1.327 . S
C1743 H1737 0.950 . S
C1743 C1742 1.327 . S
C1743 C1747 1.429 . S
C1744 C1727 1.574 . S
C1744 H1738 0.949 . S
C1744 C1748 1.368 . S
C1745 C1726 1.429 . S
C1745 C1739 1.429 . S
C1745 C1746 1.523 . S
C1746 C1727 1.368 . S
C1746 C1740 1.368 . S
C1746 C1745 1.523 . S
C1747 C1731 1.429 . S
C1747 C1743 1.429 . S
C1747 C1748 1.523 . S
C1748 C1732 1.368 . S
C1748 C1744 1.368 . S
C1748 C1747 1.523 . S
H1749 C1724 0.950 . S
H1750 C1726 0.950 . S
H1751 C1727 0.949 . S
H1752 C1729 0.950 . S
H1753 C1731 0.950 . S
C1754 C1755 1.349 . S
C1754 C1756 1.327 . S
C1754 H1779 0.950 . S
C1755 C1754 1.349 . S
C1755 C1771 1.349 . S
C1756 C1754 1.327 . S
C1756 C1775 1.429 . S
C1756 H1780 0.950 . S
C1757 C1774 1.574 . S
C1757 C1776 1.368 . S
C1757 H1781 0.949 . S
H1758 C1762 0.949 . S
C1759 C1760 1.349 . S
C1759 C1761 1.327 . S
C1759 H1782 0.950 . S
C1760 C1759 1.349 . S
C1760 C1772 1.349 . S
C1761 C1759 1.327 . S
C1761 C1777 1.429 . S
C1761 H1783 0.950 . S
C1762 H1758 0.949 . S
C1762 C1770 1.574 . S
C1762 C1778 1.368 . S
H1763 C1771 0.950 . S
H1764 C1769 0.950 . S
H1765 C1770 0.949 . S
H1766 C1772 0.950 . S
H1767 C1773 0.950 . S
H1768 C1774 0.949 . S
C1769 H1764 0.950 . S
C1769 C1771 1.327 . S
C1769 C1775 1.429 . S
C1770 C1762 1.574 . S
C1770 H1765 0.949 . S
C1770 C1776 1.368 . S
C1771 C1755 1.349 . S
C1771 H1763 0.950 . S
C1771 C1769 1.327 . S
C1772 C1760 1.349 . S
C1772 H1766 0.950 . S
C1772 C1773 1.327 . S
C1773 H1767 0.950 . S
C1773 C1772 1.327 . S
C1773 C1777 1.429 . S
C1774 C1757 1.574 . S
C1774 H1768 0.949 . S
C1774 C1778 1.368 . S
C1775 C1756 1.429 . S
C1775 C1769 1.429 . S
C1775 C1776 1.523 . S
C1776 C1757 1.368 . S
C1776 C1770 1.368 . S
C1776 C1775 1.523 . S
C1777 C1761 1.429 . S
C1777 C1773 1.429 . S
C1777 C1778 1.523 . S
C1778 C1762 1.368 . S
C1778 C1774 1.368 . S
C1778 C1777 1.523 . S
H1779 C1754 0.950 . S
H1780 C1756 0.950 . S
H1781 C1757 0.949 . S
H1782 C1759 0.950 . S
H1783 C1761 0.950 . S
C1784 C1785 1.349 . S
C1784 C1786 1.327 . S
C1784 H1809 0.950 . S
C1785 C1784 1.349 . S
C1785 C1801 1.349 . S
C1786 C1784 1.327 . S
C1786 C1805 1.429 . S
C1786 H1810 0.950 . S
C1787 C1804 1.574 . S
C1787 C1806 1.368 . S
C1787 H1811 0.949 . S
H1788 C1792 0.949 . S
C1789 C1790 1.349 . S
C1789 C1791 1.327 . S
C1789 H1812 0.950 . S
C1790 C1789 1.349 . S
C1790 C1802 1.349 . S
C1791 C1789 1.327 . S
C1791 C1807 1.429 . S
C1791 H1813 0.950 . S
C1792 H1788 0.949 . S
C1792 C1800 1.574 . S
C1792 C1808 1.368 . S
H1793 C1801 0.950 . S
H1794 C1799 0.950 . S
H1795 C1800 0.949 . S
H1796 C1802 0.950 . S
H1797 C1803 0.950 . S
H1798 C1804 0.949 . S
C1799 H1794 0.950 . S
C1799 C1801 1.327 . S
C1799 C1805 1.429 . S
C1800 C1792 1.574 . S
C1800 H1795 0.949 . S
C1800 C1806 1.368 . S
C1801 C1785 1.349 . S
C1801 H1793 0.950 . S
C1801 C1799 1.327 . S
C1802 C1790 1.349 . S
C1802 H1796 0.950 . S
C1802 C1803 1.327 . S
C1803 H1797 0.950 . S
C1803 C1802 1.327 . S
C1803 C1807 1.429 . S
C1804 C1787 1.574 . S
C1804 H1798 0.949 . S
C1804 C1808 1.368 . S
C1805 C1786 1.429 . S
C1805 C1799 1.429 . S
C1805 C1806 1.523 . S
C1806 C1787 1.368 . S
C1806 C1800 1.368 . S
C1806 C1805 1.523 . S
C1807 C1791 1.429 . S
C1807 C1803 1.429 . S
C1807 C1808 1.523 . S
C1808 C1792 1.368 . S
C1808 C1804 1.368 . S
C1808 C1807 1.523 . S
H1809 C1784 0.950 . S
H1810 C1786 0.950 . S
H1811 C1787 0.949 . S
H1812 C1789 0.950 . S
H1813 C1791 0.950 . S
C1814 C1815 1.349 . S
C1814 C1816 1.327 . S
C1814 H1839 0.950 . S
C1815 C1814 1.349 . S
C1815 C1831 1.349 . S
C1816 C1814 1.327 . S
C1816 C1835 1.429 . S
C1816 H1840 0.950 . S
C1817 C1834 1.574 . S
C1817 C1836 1.368 . S
C1817 H1841 0.949 . S
H1818 C1822 0.949 . S
C1819 C1820 1.349 . S
C1819 C1821 1.327 . S
C1819 H1842 0.950 . S
C1820 C1819 1.349 . S
C1820 C1832 1.349 . S
C1821 C1819 1.327 . S
C1821 C1837 1.429 . S
C1821 H1843 0.950 . S
C1822 H1818 0.949 . S
C1822 C1830 1.574 . S
C1822 C1838 1.368 . S
H1823 C1831 0.950 . S
H1824 C1829 0.950 . S
H1825 C1830 0.949 . S
H1826 C1832 0.950 . S
H1827 C1833 0.950 . S
H1828 C1834 0.949 . S
C1829 H1824 0.950 . S
C1829 C1831 1.327 . S
C1829 C1835 1.429 . S
C1830 C1822 1.574 . S
C1830 H1825 0.949 . S
C1830 C1836 1.368 . S
C1831 C1815 1.349 . S
C1831 H1823 0.950 . S
C1831 C1829 1.327 . S
C1832 C1820 1.349 . S
C1832 H1826 0.950 . S
C1832 C1833 1.327 . S
C1833 H1827 0.950 . S
C1833 C1832 1.327 . S
C1833 C1837 1.429 . S
C1834 C1817 1.574 . S
C1834 H1828 0.949 . S
C1834 C1838 1.368 . S
C1835 C1816 1.429 . S
C1835 C1829 1.429 . S
C1835 C1836 1.523 . S
C1836 C1817 1.368 . S
C1836 C1830 1.368 . S
C1836 C1835 1.523 . S
C1837 C1821 1.429 . S
C1837 C1833 1.429 . S
C1837 C1838 1.523 . S
C1838 C1822 1.368 . S
C1838 C1834 1.368 . S
C1838 C1837 1.523 . S
H1839 C1814 0.950 . S
H1840 C1816 0.950 . S
H1841 C1817 0.949 . S
H1842 C1819 0.950 . S
H1843 C1821 0.950 . S
C1844 C1845 1.349 . S
C1844 C1846 1.327 . S
C1844 H1869 0.950 . S
C1845 C1844 1.349 . S
C1845 C1861 1.349 . S
C1846 C1844 1.327 . S
C1846 C1865 1.429 . S
C1846 H1870 0.950 . S
C1847 C1864 1.574 . S
C1847 C1866 1.368 . S
C1847 H1871 0.949 . S
H1848 C1852 0.949 . S
C1849 C1850 1.349 . S
C1849 C1851 1.327 . S
C1849 H1872 0.950 . S
C1850 C1849 1.349 . S
C1850 C1862 1.349 . S
C1851 C1849 1.327 . S
C1851 C1867 1.429 . S
C1851 H1873 0.950 . S
C1852 H1848 0.949 . S
C1852 C1860 1.574 . S
C1852 C1868 1.368 . S
H1853 C1861 0.950 . S
H1854 C1859 0.950 . S
H1855 C1860 0.949 . S
H1856 C1862 0.950 . S
H1857 C1863 0.950 . S
H1858 C1864 0.949 . S
C1859 H1854 0.950 . S
C1859 C1861 1.327 . S
C1859 C1865 1.429 . S
C1860 C1852 1.574 . S
C1860 H1855 0.949 . S
C1860 C1866 1.368 . S
C1861 C1845 1.349 . S
C1861 H1853 0.950 . S
C1861 C1859 1.327 . S
C1862 C1850 1.349 . S
C1862 H1856 0.950 . S
C1862 C1863 1.327 . S
C1863 H1857 0.950 . S
C1863 C1862 1.327 . S
C1863 C1867 1.429 . S
C1864 C1847 1.574 . S
C1864 H1858 0.949 . S
C1864 C1868 1.368 . S
C1865 C1846 1.429 . S
C1865 C1859 1.429 . S
C1865 C1866 1.523 . S
C1866 C1847 1.368 . S
C1866 C1860 1.368 . S
C1866 C1865 1.523 . S
C1867 C1851 1.429 . S
C1867 C1863 1.429 . S
C1867 C1868 1.523 . S
C1868 C1852 1.368 . S
C1868 C1864 1.368 . S
C1868 C1867 1.523 . S
H1869 C1844 0.950 . S
H1870 C1846 0.950 . S
H1871 C1847 0.949 . S
H1872 C1849 0.950 . S
H1873 C1851 0.950 . S
C1874 C1875 1.349 . S
C1874 C1876 1.327 . S
C1874 H1899 0.950 . S
C1875 C1874 1.349 . S
C1875 C1891 1.349 . S
C1876 C1874 1.327 . S
C1876 C1895 1.429 . S
C1876 H1900 0.950 . S
C1877 C1894 1.574 . S
C1877 C1896 1.368 . S
C1877 H1901 0.949 . S
H1878 C1882 0.949 . S
C1879 C1880 1.349 . S
C1879 C1881 1.327 . S
C1879 H1902 0.950 . S
C1880 C1879 1.349 . S
C1880 C1892 1.349 . S
C1881 C1879 1.327 . S
C1881 C1897 1.429 . S
C1881 H1903 0.950 . S
C1882 H1878 0.949 . S
C1882 C1890 1.574 . S
C1882 C1898 1.368 . S
H1883 C1891 0.950 . S
H1884 C1889 0.950 . S
H1885 C1890 0.949 . S
H1886 C1892 0.950 . S
H1887 C1893 0.950 . S
H1888 C1894 0.949 . S
C1889 H1884 0.950 . S
C1889 C1891 1.327 . S
C1889 C1895 1.429 . S
C1890 C1882 1.574 . S
C1890 H1885 0.949 . S
C1890 C1896 1.368 . S
C1891 C1875 1.349 . S
C1891 H1883 0.950 . S
C1891 C1889 1.327 . S
C1892 C1880 1.349 . S
C1892 H1886 0.950 . S
C1892 C1893 1.327 . S
C1893 H1887 0.950 . S
C1893 C1892 1.327 . S
C1893 C1897 1.429 . S
C1894 C1877 1.574 . S
C1894 H1888 0.949 . S
C1894 C1898 1.368 . S
C1895 C1876 1.429 . S
C1895 C1889 1.429 . S
C1895 C1896 1.523 . S
C1896 C1877 1.368 . S
C1896 C1890 1.368 . S
C1896 C1895 1.523 . S
C1897 C1881 1.429 . S
C1897 C1893 1.429 . S
C1897 C1898 1.523 . S
C1898 C1882 1.368 . S
C1898 C1894 1.368 . S
C1898 C1897 1.523 . S
H1899 C1874 0.950 . S
H1900 C1876 0.950 . S
H1901 C1877 0.949 . S
H1902 C1879 0.950 . S
H1903 C1881 0.950 . S
C1904 C1905 1.349 . S
C1904 C1906 1.327 . S
C1904 H1929 0.950 1_455 S
C1905 C1904 1.349 . S
C1905 C1921 1.349 . S
C1906 C1904 1.327 . S
C1906 C1925 1.429 . S
C1906 H1930 0.950 1_455 S
C1907 C1924 1.574 . S
C1907 C1926 1.368 . S
C1907 H1931 0.949 . S
H1908 C1912 0.949 . S
C1909 C1910 1.349 . S
C1909 C1911 1.327 . S
C1909 H1932 0.950 . S
C1910 C1909 1.349 . S
C1910 C1922 1.349 1_455 S
C1911 C1909 1.327 . S
C1911 C1927 1.429 . S
C1911 H1933 0.950 . S
C1912 H1908 0.949 . S
C1912 C1920 1.574 . S
C1912 C1928 1.368 1_655 S
H1913 C1921 0.950 . S
H1914 C1919 0.950 . S
H1915 C1920 0.949 . S
H1916 C1922 0.950 . S
H1917 C1923 0.950 . S
H1918 C1924 0.949 . S
C1919 H1914 0.950 . S
C1919 C1921 1.327 . S
C1919 C1925 1.429 . S
C1920 C1912 1.574 . S
C1920 H1915 0.949 . S
C1920 C1926 1.368 1_655 S
C1921 C1905 1.349 . S
C1921 H1913 0.950 . S
C1921 C1919 1.327 . S
C1922 C1910 1.349 1_655 S
C1922 H1916 0.950 . S
C1922 C1923 1.327 . S
C1923 H1917 0.950 . S
C1923 C1922 1.327 . S
C1923 C1927 1.429 1_655 S
C1924 C1907 1.574 . S
C1924 H1918 0.949 . S
C1924 C1928 1.368 . S
C1925 C1906 1.429 . S
C1925 C1919 1.429 . S
C1925 C1926 1.523 . S
C1926 C1907 1.368 . S
C1926 C1920 1.368 1_455 S
C1926 C1925 1.523 . S
C1927 C1911 1.429 . S
C1927 C1923 1.429 1_455 S
C1927 C1928 1.523 . S
C1928 C1912 1.368 1_455 S
C1928 C1924 1.368 . S
C1928 C1927 1.523 . S
H1929 C1904 0.950 1_655 S
H1930 C1906 0.950 1_655 S
H1931 C1907 0.949 . S
H1932 C1909 0.950 . S
H1933 C1911 0.950 . S
C1934 C1935 1.349 . S
C1934 C1936 1.327 . S
C1934 H1959 0.950 . S
C1935 C1934 1.349 . S
C1935 C1951 1.349 . S
C1936 C1934 1.327 . S
C1936 C1955 1.429 . S
C1936 H1960 0.950 . S
C1937 C1954 1.574 . S
C1937 C1956 1.368 . S
C1937 H1961 0.949 . S
H1938 C1942 0.949 . S
C1939 C1940 1.349 . S
C1939 C1941 1.327 . S
C1939 H1962 0.950 . S
C1940 C1939 1.349 . S
C1940 C1952 1.349 . S
C1941 C1939 1.327 . S
C1941 C1957 1.429 . S
C1941 H1963 0.950 . S
C1942 H1938 0.949 . S
C1942 C1950 1.574 . S
C1942 C1958 1.368 . S
H1943 C1951 0.950 . S
H1944 C1949 0.950 . S
H1945 C1950 0.949 . S
H1946 C1952 0.950 . S
H1947 C1953 0.950 . S
H1948 C1954 0.949 . S
C1949 H1944 0.950 . S
C1949 C1951 1.327 . S
C1949 C1955 1.429 . S
C1950 C1942 1.574 . S
C1950 H1945 0.949 . S
C1950 C1956 1.368 . S
C1951 C1935 1.349 . S
C1951 H1943 0.950 . S
C1951 C1949 1.327 . S
C1952 C1940 1.349 . S
C1952 H1946 0.950 . S
C1952 C1953 1.327 . S
C1953 H1947 0.950 . S
C1953 C1952 1.327 . S
C1953 C1957 1.429 . S
C1954 C1937 1.574 . S
C1954 H1948 0.949 . S
C1954 C1958 1.368 . S
C1955 C1936 1.429 . S
C1955 C1949 1.429 . S
C1955 C1956 1.523 . S
C1956 C1937 1.368 . S
C1956 C1950 1.368 . S
C1956 C1955 1.523 . S
C1957 C1941 1.429 . S
C1957 C1953 1.429 . S
C1957 C1958 1.523 . S
C1958 C1942 1.368 . S
C1958 C1954 1.368 . S
C1958 C1957 1.523 . S
H1959 C1934 0.950 . S
H1960 C1936 0.950 . S
H1961 C1937 0.949 . S
H1962 C1939 0.950 . S
H1963 C1941 0.950 . S
C1964 C1965 1.349 . S
C1964 C1966 1.327 . S
C1964 H1989 0.950 . S
C1965 C1964 1.349 . S
C1965 C1981 1.349 . S
C1966 C1964 1.327 . S
C1966 C1985 1.429 . S
C1966 H1990 0.950 . S
C1967 C1984 1.574 . S
C1967 C1986 1.368 . S
C1967 H1991 0.949 . S
H1968 C1972 0.949 . S
C1969 C1970 1.349 . S
C1969 C1971 1.327 . S
C1969 H1992 0.950 . S
C1970 C1969 1.349 . S
C1970 C1982 1.349 . S
C1971 C1969 1.327 . S
C1971 C1987 1.429 . S
C1971 H1993 0.950 . S
C1972 H1968 0.949 . S
C1972 C1980 1.574 . S
C1972 C1988 1.368 . S
H1973 C1981 0.950 . S
H1974 C1979 0.950 . S
H1975 C1980 0.949 . S
H1976 C1982 0.950 . S
H1977 C1983 0.950 . S
H1978 C1984 0.949 . S
C1979 H1974 0.950 . S
C1979 C1981 1.327 . S
C1979 C1985 1.429 . S
C1980 C1972 1.574 . S
C1980 H1975 0.949 . S
C1980 C1986 1.368 . S
C1981 C1965 1.349 . S
C1981 H1973 0.950 . S
C1981 C1979 1.327 . S
C1982 C1970 1.349 . S
C1982 H1976 0.950 . S
C1982 C1983 1.327 . S
C1983 H1977 0.950 . S
C1983 C1982 1.327 . S
C1983 C1987 1.429 . S
C1984 C1967 1.574 . S
C1984 H1978 0.949 . S
C1984 C1988 1.368 . S
C1985 C1966 1.429 . S
C1985 C1979 1.429 . S
C1985 C1986 1.523 . S
C1986 C1967 1.368 . S
C1986 C1980 1.368 . S
C1986 C1985 1.523 . S
C1987 C1971 1.429 . S
C1987 C1983 1.429 . S
C1987 C1988 1.523 . S
C1988 C1972 1.368 . S
C1988 C1984 1.368 . S
C1988 C1987 1.523 . S
H1989 C1964 0.950 . S
H1990 C1966 0.950 . S
H1991 C1967 0.949 . S
H1992 C1969 0.950 . S
H1993 C1971 0.950 . S
C1994 C1995 1.349 . S
C1994 C1996 1.327 . S
C1994 H2019 0.950 . S
C1995 C1994 1.349 . S
C1995 C2011 1.349 . S
C1996 C1994 1.327 . S
C1996 C2015 1.429 . S
C1996 H2020 0.950 . S
C1997 C2014 1.574 . S
C1997 C2016 1.368 . S
C1997 H2021 0.949 . S
H1998 C2002 0.949 . S
C1999 C2000 1.349 . S
C1999 C2001 1.327 . S
C1999 H2022 0.950 . S
C2000 C1999 1.349 . S
C2000 C2012 1.349 . S
C2001 C1999 1.327 . S
C2001 C2017 1.429 . S
C2001 H2023 0.950 . S
C2002 H1998 0.949 . S
C2002 C2010 1.574 . S
C2002 C2018 1.368 . S
H2003 C2011 0.950 . S
H2004 C2009 0.950 . S
H2005 C2010 0.949 . S
H2006 C2012 0.950 . S
H2007 C2013 0.950 . S
H2008 C2014 0.949 . S
C2009 H2004 0.950 . S
C2009 C2011 1.327 . S
C2009 C2015 1.429 . S
C2010 C2002 1.574 . S
C2010 H2005 0.949 . S
C2010 C2016 1.368 . S
C2011 C1995 1.349 . S
C2011 H2003 0.950 . S
C2011 C2009 1.327 . S
C2012 C2000 1.349 . S
C2012 H2006 0.950 . S
C2012 C2013 1.327 . S
C2013 H2007 0.950 . S
C2013 C2012 1.327 . S
C2013 C2017 1.429 . S
C2014 C1997 1.574 . S
C2014 H2008 0.949 . S
C2014 C2018 1.368 . S
C2015 C1996 1.429 . S
C2015 C2009 1.429 . S
C2015 C2016 1.523 . S
C2016 C1997 1.368 . S
C2016 C2010 1.368 . S
C2016 C2015 1.523 . S
C2017 C2001 1.429 . S
C2017 C2013 1.429 . S
C2017 C2018 1.523 . S
C2018 C2002 1.368 . S
C2018 C2014 1.368 . S
C2018 C2017 1.523 . S
H2019 C1994 0.950 . S
H2020 C1996 0.950 . S
H2021 C1997 0.949 . S
H2022 C1999 0.950 . S
H2023 C2001 0.950 . S
C2024 C2025 1.349 . S
C2024 C2026 1.327 . S
C2024 H2049 0.950 . S
C2025 C2024 1.349 . S
C2025 C2041 1.349 . S
C2026 C2024 1.327 . S
C2026 C2045 1.429 . S
C2026 H2050 0.950 . S
C2027 C2044 1.574 . S
C2027 C2046 1.368 . S
C2027 H2051 0.949 . S
H2028 C2032 0.949 . S
C2029 C2030 1.349 . S
C2029 C2031 1.325 . S
C2029 H2052 0.950 . S
C2030 C2029 1.349 . S
C2030 C2042 1.344 1_655 S
C2031 C2029 1.325 . S
C2031 C2047 1.421 1_655 S
C2031 H2053 0.963 . S
C2032 H2028 0.949 . S
C2032 C2040 1.574 . S
C2032 C2048 1.368 . S
H2033 C2041 0.950 . S
H2034 C2039 0.950 . S
H2035 C2040 0.949 . S
H2036 C2042 0.943 . S
H2037 C2043 0.950 . S
H2038 C2044 0.952 . S
C2039 H2034 0.950 . S
C2039 C2041 1.327 . S
C2039 C2045 1.429 . S
C2040 C2032 1.574 . S
C2040 H2035 0.949 . S
C2040 C2046 1.368 . S
C2041 C2025 1.349 . S
C2041 H2033 0.950 . S
C2041 C2039 1.327 . S
C2042 C2030 1.344 1_455 S
C2042 H2036 0.943 . S
C2042 C2043 1.326 . S
C2043 H2037 0.950 . S
C2043 C2042 1.326 . S
C2043 C2047 1.429 . S
C2044 C2027 1.574 . S
C2044 H2038 0.952 . S
C2044 C2048 1.368 . S
C2045 C2026 1.429 . S
C2045 C2039 1.429 . S
C2045 C2046 1.523 . S
C2046 C2027 1.368 . S
C2046 C2040 1.368 . S
C2046 C2045 1.523 . S
C2047 C2031 1.421 1_455 S
C2047 C2043 1.429 . S
C2047 C2048 1.523 . S
C2048 C2032 1.368 . S
C2048 C2044 1.368 . S
C2048 C2047 1.523 . S
H2049 C2024 0.950 . S
H2050 C2026 0.950 . S
H2051 C2027 0.949 . S
H2052 C2029 0.950 . S
H2053 C2031 0.963 . S
C2054 C2055 1.349 . S
C2054 C2056 1.327 . S
C2054 H2079 0.950 . S
C2055 C2054 1.349 . S
C2055 C2071 1.349 . S
C2056 C2054 1.327 . S
C2056 C2075 1.429 . S
C2056 H2080 0.950 . S
C2057 C2074 1.574 . S
C2057 C2076 1.368 . S
C2057 H2081 0.949 . S
H2058 C2062 0.949 . S
C2059 C2060 1.349 . S
C2059 C2061 1.327 . S
C2059 H2082 0.950 . S
C2060 C2059 1.349 . S
C2060 C2072 1.349 . S
C2061 C2059 1.327 . S
C2061 C2077 1.429 . S
C2061 H2083 0.950 . S
C2062 H2058 0.949 . S
C2062 C2070 1.574 . S
C2062 C2078 1.368 . S
H2063 C2071 0.950 . S
H2064 C2069 0.950 . S
H2065 C2070 0.949 . S
H2066 C2072 0.950 . S
H2067 C2073 0.950 . S
H2068 C2074 0.949 . S
C2069 H2064 0.950 . S
C2069 C2071 1.327 . S
C2069 C2075 1.429 . S
C2070 C2062 1.574 . S
C2070 H2065 0.949 . S
C2070 C2076 1.368 . S
C2071 C2055 1.349 . S
C2071 H2063 0.950 . S
C2071 C2069 1.327 . S
C2072 C2060 1.349 . S
C2072 H2066 0.950 . S
C2072 C2073 1.327 . S
C2073 H2067 0.950 . S
C2073 C2072 1.327 . S
C2073 C2077 1.429 . S
C2074 C2057 1.574 . S
C2074 H2068 0.949 . S
C2074 C2078 1.368 . S
C2075 C2056 1.429 . S
C2075 C2069 1.429 . S
C2075 C2076 1.523 . S
C2076 C2057 1.368 . S
C2076 C2070 1.368 . S
C2076 C2075 1.523 . S
C2077 C2061 1.429 . S
C2077 C2073 1.429 . S
C2077 C2078 1.523 . S
C2078 C2062 1.368 . S
C2078 C2074 1.368 . S
C2078 C2077 1.523 . S
H2079 C2054 0.950 . S
H2080 C2056 0.950 . S
H2081 C2057 0.949 . S
H2082 C2059 0.950 . S
H2083 C2061 0.950 . S
C2084 C2085 1.349 . S
C2084 C2086 1.327 . S
C2084 H2109 0.950 . S
C2085 C2084 1.349 . S
C2085 C2101 1.349 . S
C2086 C2084 1.327 . S
C2086 C2105 1.429 . S
C2086 H2110 0.950 . S
C2087 C2104 1.574 . S
C2087 C2106 1.368 . S
C2087 H2111 0.949 . S
H2088 C2092 0.949 . S
C2089 C2090 1.349 . S
C2089 C2091 1.327 . S
C2089 H2112 0.925 1_556 S
C2090 C2089 1.349 . S
C2090 C2102 1.349 . S
C2091 C2089 1.327 . S
C2091 C2107 1.429 . S
C2091 H2113 0.950 . S
C2092 H2088 0.949 . S
C2092 C2100 1.574 . S
C2092 C2108 1.368 . S
H2093 C2101 0.950 . S
H2094 C2099 0.950 . S
H2095 C2100 0.949 . S
H2096 C2102 0.950 . S
H2097 C2103 0.950 . S
H2098 C2104 0.949 . S
C2099 H2094 0.950 . S
C2099 C2101 1.327 . S
C2099 C2105 1.429 . S
C2100 C2092 1.574 . S
C2100 H2095 0.949 . S
C2100 C2106 1.368 . S
C2101 C2085 1.349 . S
C2101 H2093 0.950 . S
C2101 C2099 1.327 . S
C2102 C2090 1.349 . S
C2102 H2096 0.950 . S
C2102 C2103 1.327 . S
C2103 H2097 0.950 . S
C2103 C2102 1.327 . S
C2103 C2107 1.429 . S
C2104 C2087 1.574 . S
C2104 H2098 0.949 . S
C2104 C2108 1.368 . S
C2105 C2086 1.429 . S
C2105 C2099 1.429 . S
C2105 C2106 1.523 . S
C2106 C2087 1.368 . S
C2106 C2100 1.368 . S
C2106 C2105 1.523 . S
C2107 C2091 1.429 . S
C2107 C2103 1.429 . S
C2107 C2108 1.523 . S
C2108 C2092 1.368 . S
C2108 C2104 1.368 . S
C2108 C2107 1.523 . S
H2109 C2084 0.950 . S
H2110 C2086 0.950 . S
H2111 C2087 0.949 . S
H2112 C2089 0.925 1_554 S
H2113 C2091 0.950 . S
C2114 C2115 1.349 . S
C2114 C2116 1.327 . S
C2114 H2139 0.950 . S
C2115 C2114 1.349 . S
C2115 C2131 1.349 . S
C2116 C2114 1.327 . S
C2116 C2135 1.429 . S
C2116 H2140 0.950 . S
C2117 C2134 1.574 . S
C2117 C2136 1.368 . S
C2117 H2141 0.949 . S
H2118 C2122 0.949 . S
C2119 C2120 1.349 . S
C2119 C2121 1.327 . S
C2119 H2142 0.950 . S
C2120 C2119 1.349 . S
C2120 C2132 1.349 . S
C2121 C2119 1.327 . S
C2121 C2137 1.429 . S
C2121 H2143 0.950 . S
C2122 H2118 0.949 . S
C2122 C2130 1.574 . S
C2122 C2138 1.368 . S
H2123 C2131 0.950 . S
H2124 C2129 0.950 . S
H2125 C2130 0.949 . S
H2126 C2132 0.950 . S
H2127 C2133 0.950 . S
H2128 C2134 0.949 . S
C2129 H2124 0.950 . S
C2129 C2131 1.327 . S
C2129 C2135 1.429 . S
C2130 C2122 1.574 . S
C2130 H2125 0.949 . S
C2130 C2136 1.368 . S
C2131 C2115 1.349 . S
C2131 H2123 0.950 . S
C2131 C2129 1.327 . S
C2132 C2120 1.349 . S
C2132 H2126 0.950 . S
C2132 C2133 1.327 . S
C2133 H2127 0.950 . S
C2133 C2132 1.327 . S
C2133 C2137 1.429 . S
C2134 C2117 1.574 . S
C2134 H2128 0.949 . S
C2134 C2138 1.368 . S
C2135 C2116 1.429 . S
C2135 C2129 1.429 . S
C2135 C2136 1.523 . S
C2136 C2117 1.368 . S
C2136 C2130 1.368 . S
C2136 C2135 1.523 . S
C2137 C2121 1.429 . S
C2137 C2133 1.429 . S
C2137 C2138 1.523 . S
C2138 C2122 1.368 . S
C2138 C2134 1.368 . S
C2138 C2137 1.523 . S
H2139 C2114 0.950 . S
H2140 C2116 0.950 . S
H2141 C2117 0.949 . S
H2142 C2119 0.950 . S
H2143 C2121 0.950 . S
C2144 C2145 1.358 . S
C2144 C2146 1.327 . S
C2144 H2169 0.950 . S
C2145 C2144 1.358 . S
C2145 C2161 1.339 1_565 S
C2146 C2144 1.327 . S
C2146 C2165 1.429 1_565 S
C2146 H2170 0.950 . S
C2147 C2164 1.574 . S
C2147 C2166 1.368 . S
C2147 H2171 0.949 . S
H2148 C2152 0.949 . S
C2149 C2150 1.349 . S
C2149 C2151 1.327 . S
C2149 H2172 0.950 . S
C2150 C2149 1.349 . S
C2150 C2162 1.349 1_545 S
C2151 C2149 1.327 . S
C2151 C2167 1.429 . S
C2151 H2173 0.950 . S
C2152 H2148 0.949 . S
C2152 C2160 1.574 . S
C2152 C2168 1.368 1_565 S
H2153 C2161 0.950 . S
H2154 C2159 0.950 . S
H2155 C2160 0.949 . S
H2156 C2162 0.950 . S
H2157 C2163 0.950 . S
H2158 C2164 0.949 . S
C2159 H2154 0.950 . S
C2159 C2161 1.327 . S
C2159 C2165 1.429 . S
C2160 C2152 1.574 . S
C2160 H2155 0.949 . S
C2160 C2166 1.368 1_565 S
C2161 C2145 1.339 1_545 S
C2161 H2153 0.950 . S
C2161 C2159 1.327 . S
C2162 C2150 1.349 1_565 S
C2162 H2156 0.950 . S
C2162 C2163 1.327 . S
C2163 H2157 0.950 . S
C2163 C2162 1.327 . S
C2163 C2167 1.429 1_565 S
C2164 C2147 1.574 . S
C2164 H2158 0.949 . S
C2164 C2168 1.368 . S
C2165 C2146 1.429 1_545 S
C2165 C2159 1.429 . S
C2165 C2166 1.523 . S
C2166 C2147 1.368 . S
C2166 C2160 1.368 1_545 S
C2166 C2165 1.523 . S
C2167 C2151 1.429 . S
C2167 C2163 1.429 1_545 S
C2167 C2168 1.523 . S
C2168 C2152 1.368 1_545 S
C2168 C2164 1.368 . S
C2168 C2167 1.523 . S
H2169 C2144 0.950 . S
H2170 C2146 0.950 . S
H2171 C2147 0.949 . S
H2172 C2149 0.950 . S
H2173 C2151 0.950 . S
C2174 C2175 1.349 . S
C2174 C2176 1.327 . S
C2174 H2199 0.950 . S
C2175 C2174 1.349 . S
C2175 C2191 1.349 . S
C2176 C2174 1.327 . S
C2176 C2195 1.429 . S
C2176 H2200 0.950 . S
C2177 C2194 1.574 . S
C2177 C2196 1.368 . S
C2177 H2201 0.949 . S
H2178 C2182 0.949 . S
C2179 C2180 1.349 . S
C2179 C2181 1.327 . S
C2179 H2202 0.950 . S
C2180 C2179 1.349 . S
C2180 C2192 1.349 . S
C2181 C2179 1.327 . S
C2181 C2197 1.429 . S
C2181 H2203 0.950 . S
C2182 H2178 0.949 . S
C2182 C2190 1.574 . S
C2182 C2198 1.368 . S
H2183 C2191 0.950 . S
H2184 C2189 0.950 . S
H2185 C2190 0.949 . S
H2186 C2192 0.950 . S
H2187 C2193 0.950 . S
H2188 C2194 0.949 . S
C2189 H2184 0.950 . S
C2189 C2191 1.327 . S
C2189 C2195 1.429 . S
C2190 C2182 1.574 . S
C2190 H2185 0.949 . S
C2190 C2196 1.368 . S
C2191 C2175 1.349 . S
C2191 H2183 0.950 . S
C2191 C2189 1.327 . S
C2192 C2180 1.349 . S
C2192 H2186 0.950 . S
C2192 C2193 1.327 . S
C2193 H2187 0.950 . S
C2193 C2192 1.327 . S
C2193 C2197 1.429 . S
C2194 C2177 1.574 . S
C2194 H2188 0.949 . S
C2194 C2198 1.368 . S
C2195 C2176 1.429 . S
C2195 C2189 1.429 . S
C2195 C2196 1.523 . S
C2196 C2177 1.368 . S
C2196 C2190 1.368 . S
C2196 C2195 1.523 . S
C2197 C2181 1.429 . S
C2197 C2193 1.429 . S
C2197 C2198 1.523 . S
C2198 C2182 1.368 . S
C2198 C2194 1.368 . S
C2198 C2197 1.523 . S
H2199 C2174 0.950 . S
H2200 C2176 0.950 . S
H2201 C2177 0.949 . S
H2202 C2179 0.950 . S
H2203 C2181 0.950 . S
C2204 C2205 1.349 . S
C2204 C2206 1.327 . S
C2204 H2229 0.950 . S
C2205 C2204 1.349 . S
C2205 C2221 1.349 . S
C2206 C2204 1.327 . S
C2206 C2225 1.429 . S
C2206 H2230 0.950 . S
C2207 C2224 1.574 . S
C2207 C2226 1.368 . S
C2207 H2231 0.949 . S
H2208 C2212 0.949 . S
C2209 C2210 1.349 . S
C2209 C2211 1.327 . S
C2209 H2232 0.950 . S
C2210 C2209 1.349 . S
C2210 C2222 1.349 . S
C2211 C2209 1.327 . S
C2211 C2227 1.429 . S
C2211 H2233 0.950 . S
C2212 H2208 0.949 . S
C2212 C2220 1.574 . S
C2212 C2228 1.368 . S
H2213 C2221 0.950 . S
H2214 C2219 0.950 . S
H2215 C2220 0.949 . S
H2216 C2222 0.950 . S
H2217 C2223 0.950 . S
H2218 C2224 0.949 . S
C2219 H2214 0.950 . S
C2219 C2221 1.327 . S
C2219 C2225 1.429 . S
C2220 C2212 1.574 . S
C2220 H2215 0.949 . S
C2220 C2226 1.368 . S
C2221 C2205 1.349 . S
C2221 H2213 0.950 . S
C2221 C2219 1.327 . S
C2222 C2210 1.349 . S
C2222 H2216 0.950 . S
C2222 C2223 1.327 . S
C2223 H2217 0.950 . S
C2223 C2222 1.327 . S
C2223 C2227 1.429 . S
C2224 C2207 1.574 . S
C2224 H2218 0.949 . S
C2224 C2228 1.368 . S
C2225 C2206 1.429 . S
C2225 C2219 1.429 . S
C2225 C2226 1.523 . S
C2226 C2207 1.368 . S
C2226 C2220 1.368 . S
C2226 C2225 1.523 . S
C2227 C2211 1.429 . S
C2227 C2223 1.429 . S
C2227 C2228 1.523 . S
C2228 C2212 1.368 . S
C2228 C2224 1.368 . S
C2228 C2227 1.523 . S
H2229 C2204 0.950 . S
H2230 C2206 0.950 . S
H2231 C2207 0.949 . S
H2232 C2209 0.950 . S
H2233 C2211 0.950 . S
C2234 C2235 1.349 . S
C2234 C2236 1.327 . S
C2234 H2259 0.950 . S
C2235 C2234 1.349 . S
C2235 C2251 1.349 . S
C2236 C2234 1.327 . S
C2236 C2255 1.429 . S
C2236 H2260 0.950 . S
C2237 C2254 1.574 . S
C2237 C2256 1.368 . S
C2237 H2261 0.949 . S
H2238 C2242 0.949 . S
C2239 C2240 1.349 . S
C2239 C2241 1.327 . S
C2239 H2262 0.950 . S
C2240 C2239 1.349 . S
C2240 C2252 1.349 . S
C2241 C2239 1.327 . S
C2241 C2257 1.429 . S
C2241 H2263 0.950 . S
C2242 H2238 0.949 . S
C2242 C2250 1.574 . S
C2242 C2258 1.368 . S
H2243 C2251 0.950 . S
H2244 C2249 0.950 . S
H2245 C2250 0.949 . S
H2246 C2252 0.950 . S
H2247 C2253 0.950 . S
H2248 C2254 0.949 . S
C2249 H2244 0.950 . S
C2249 C2251 1.327 . S
C2249 C2255 1.429 . S
C2250 C2242 1.574 . S
C2250 H2245 0.949 . S
C2250 C2256 1.368 . S
C2251 C2235 1.349 . S
C2251 H2243 0.950 . S
C2251 C2249 1.327 . S
C2252 C2240 1.349 . S
C2252 H2246 0.950 . S
C2252 C2253 1.327 . S
C2253 H2247 0.950 . S
C2253 C2252 1.327 . S
C2253 C2257 1.429 . S
C2254 C2237 1.574 . S
C2254 H2248 0.949 . S
C2254 C2258 1.368 . S
C2255 C2236 1.429 . S
C2255 C2249 1.429 . S
C2255 C2256 1.523 . S
C2256 C2237 1.368 . S
C2256 C2250 1.368 . S
C2256 C2255 1.523 . S
C2257 C2241 1.429 . S
C2257 C2253 1.429 . S
C2257 C2258 1.523 . S
C2258 C2242 1.368 . S
C2258 C2254 1.368 . S
C2258 C2257 1.523 . S
H2259 C2234 0.950 . S
H2260 C2236 0.950 . S
H2261 C2237 0.949 . S
H2262 C2239 0.950 . S
H2263 C2241 0.950 . S
C2264 C2265 1.349 . S
C2264 C2266 1.327 . S
C2264 H2289 0.950 . S
C2265 C2264 1.349 . S
C2265 C2281 1.349 1_565 S
C2266 C2264 1.327 . S
C2266 C2285 1.429 1_565 S
C2266 H2290 0.950 . S
C2267 C2284 1.574 . S
C2267 C2286 1.368 . S
C2267 H2291 0.949 . S
H2268 C2272 0.970 . S
C2269 C2270 1.349 . S
C2269 C2271 1.327 . S
C2269 H2292 0.950 . S
C2270 C2269 1.349 . S
C2270 C2282 1.349 . S
C2271 C2269 1.327 . S
C2271 C2287 1.429 . S
C2271 H2293 0.950 . S
C2272 H2268 0.970 . S
C2272 C2280 1.595 . S
C2272 C2288 1.327 1_565 S
H2273 C2281 0.950 . S
H2274 C2279 0.950 . S
H2275 C2280 0.949 . S
H2276 C2282 0.950 . S
H2277 C2283 0.950 1_565 S
H2278 C2284 0.949 . S
C2279 H2274 0.950 . S
C2279 C2281 1.327 . S
C2279 C2285 1.429 . S
C2280 C2272 1.595 . S
C2280 H2275 0.949 . S
C2280 C2286 1.368 1_565 S
C2281 C2265 1.349 1_545 S
C2281 H2273 0.950 . S
C2281 C2279 1.327 . S
C2282 C2270 1.349 . S
C2282 H2276 0.950 . S
C2282 C2283 1.327 . S
C2283 H2277 0.950 1_545 S
C2283 C2282 1.327 . S
C2283 C2287 1.429 . S
C2284 C2267 1.574 . S
C2284 H2278 0.949 . S
C2284 C2288 1.368 . S
C2285 C2266 1.429 1_545 S
C2285 C2279 1.429 . S
C2285 C2286 1.523 . S
C2286 C2267 1.368 . S
C2286 C2280 1.368 1_545 S
C2286 C2285 1.523 . S
C2287 C2271 1.429 . S
C2287 C2283 1.429 . S
C2287 C2288 1.523 . S
C2288 C2272 1.327 1_545 S
C2288 C2284 1.368 . S
C2288 C2287 1.523 . S
H2289 C2264 0.950 . S
H2290 C2266 0.950 . S
H2291 C2267 0.949 . S
H2292 C2269 0.950 . S
H2293 C2271 0.950 . S
C2294 C2295 1.349 . S
C2294 C2296 1.327 . S
C2294 H2319 0.950 . S
C2295 C2294 1.349 . S
C2295 C2311 1.349 . S
C2296 C2294 1.327 . S
C2296 C2315 1.429 . S
C2296 H2320 0.950 . S
C2297 C2314 1.574 . S
C2297 C2316 1.368 . S
C2297 H2321 0.949 . S
H2298 C2302 0.949 . S
C2299 C2300 1.349 . S
C2299 C2301 1.327 . S
C2299 H2322 0.950 . S
C2300 C2299 1.349 . S
C2300 C2312 1.349 . S
C2301 C2299 1.327 . S
C2301 C2317 1.429 . S
C2301 H2323 0.950 . S
C2302 H2298 0.949 . S
C2302 C2310 1.574 . S
C2302 C2318 1.368 . S
H2303 C2311 0.950 . S
H2304 C2309 0.950 . S
H2305 C2310 0.949 . S
H2306 C2312 0.950 . S
H2307 C2313 0.950 . S
H2308 C2314 0.949 . S
C2309 H2304 0.950 . S
C2309 C2311 1.327 . S
C2309 C2315 1.429 . S
C2310 C2302 1.574 . S
C2310 H2305 0.949 . S
C2310 C2316 1.368 . S
C2311 C2295 1.349 . S
C2311 H2303 0.950 . S
C2311 C2309 1.327 . S
C2312 C2300 1.349 . S
C2312 H2306 0.950 . S
C2312 C2313 1.327 . S
C2313 H2307 0.950 . S
C2313 C2312 1.327 . S
C2313 C2317 1.429 . S
C2314 C2297 1.574 . S
C2314 H2308 0.949 . S
C2314 C2318 1.368 . S
C2315 C2296 1.429 . S
C2315 C2309 1.429 . S
C2315 C2316 1.523 . S
C2316 C2297 1.368 . S
C2316 C2310 1.368 . S
C2316 C2315 1.523 . S
C2317 C2301 1.429 . S
C2317 C2313 1.429 . S
C2317 C2318 1.523 . S
C2318 C2302 1.368 . S
C2318 C2314 1.368 . S
C2318 C2317 1.523 . S
H2319 C2294 0.950 . S
H2320 C2296 0.950 . S
H2321 C2297 0.949 . S
H2322 C2299 0.950 . S
H2323 C2301 0.950 . S
C2324 C2325 1.349 . S
C2324 C2326 1.327 . S
C2324 H2349 0.950 . S
C2325 C2324 1.349 . S
C2325 C2341 1.349 . S
C2326 C2324 1.327 . S
C2326 C2345 1.429 . S
C2326 H2350 0.946 1_545 S
C2327 C2344 1.574 . S
C2327 C2346 1.368 . S
C2327 H2351 0.949 . S
H2328 C2332 0.949 1_565 S
C2329 C2330 1.349 . S
C2329 C2331 1.327 . S
C2329 H2352 0.950 . S
C2330 C2329 1.349 . S
C2330 C2342 1.349 1_545 S
C2331 C2329 1.327 . S
C2331 C2347 1.429 . S
C2331 H2353 0.950 . S
C2332 H2328 0.949 1_545 S
C2332 C2340 1.574 . S
C2332 C2348 1.368 . S
H2333 C2341 0.950 . S
H2334 C2339 0.950 . S
H2335 C2340 0.949 1_565 S
H2336 C2342 0.950 . S
H2337 C2343 0.958 . S
H2338 C2344 0.949 . S
C2339 H2334 0.950 . S
C2339 C2341 1.327 . S
C2339 C2345 1.429 . S
C2340 C2332 1.574 . S
C2340 H2335 0.949 1_545 S
C2340 C2346 1.368 . S
C2341 C2325 1.349 . S
C2341 H2333 0.950 . S
C2341 C2339 1.327 . S
C2342 C2330 1.349 1_565 S
C2342 H2336 0.950 . S
C2342 C2343 1.329 . S
C2343 H2337 0.958 . S
C2343 C2342 1.329 . S
C2343 C2347 1.419 1_565 S
C2344 C2327 1.574 . S
C2344 H2338 0.949 . S
C2344 C2348 1.368 . S
C2345 C2326 1.429 . S
C2345 C2339 1.429 . S
C2345 C2346 1.523 . S
C2346 C2327 1.368 . S
C2346 C2340 1.368 . S
C2346 C2345 1.523 . S
C2347 C2331 1.429 . S
C2347 C2343 1.419 1_545 S
C2347 C2348 1.523 . S
C2348 C2332 1.368 . S
C2348 C2344 1.368 . S
C2348 C2347 1.523 . S
H2349 C2324 0.950 . S
H2350 C2326 0.946 1_565 S
H2351 C2327 0.949 . S
H2352 C2329 0.950 . S
H2353 C2331 0.950 . S
C2354 C2355 1.349 . S
C2354 C2356 1.327 . S
C2354 H2379 0.950 . S
C2355 C2354 1.349 . S
C2355 C2371 1.349 . S
C2356 C2354 1.327 . S
C2356 C2375 1.429 . S
C2356 H2380 0.950 . S
C2357 C2374 1.574 . S
C2357 C2376 1.368 . S
C2357 H2381 0.949 . S
H2358 C2362 0.949 . S
C2359 C2360 1.349 . S
C2359 C2361 1.327 . S
C2359 H2382 0.950 . S
C2360 C2359 1.349 . S
C2360 C2372 1.349 . S
C2361 C2359 1.327 . S
C2361 C2377 1.429 . S
C2361 H2383 0.950 . S
C2362 H2358 0.949 . S
C2362 C2370 1.574 . S
C2362 C2378 1.368 . S
H2363 C2371 0.950 . S
H2364 C2369 0.950 . S
H2365 C2370 0.949 . S
H2366 C2372 0.950 . S
H2367 C2373 0.950 . S
H2368 C2374 0.949 . S
C2369 H2364 0.950 . S
C2369 C2371 1.327 . S
C2369 C2375 1.429 . S
C2370 C2362 1.574 . S
C2370 H2365 0.949 . S
C2370 C2376 1.368 . S
C2371 C2355 1.349 . S
C2371 H2363 0.950 . S
C2371 C2369 1.327 . S
C2372 C2360 1.349 . S
C2372 H2366 0.950 . S
C2372 C2373 1.327 . S
C2373 H2367 0.950 . S
C2373 C2372 1.327 . S
C2373 C2377 1.429 . S
C2374 C2357 1.574 . S
C2374 H2368 0.949 . S
C2374 C2378 1.368 . S
C2375 C2356 1.429 . S
C2375 C2369 1.429 . S
C2375 C2376 1.523 . S
C2376 C2357 1.368 . S
C2376 C2370 1.368 . S
C2376 C2375 1.523 . S
C2377 C2361 1.429 . S
C2377 C2373 1.429 . S
C2377 C2378 1.523 . S
C2378 C2362 1.368 . S
C2378 C2374 1.368 . S
C2378 C2377 1.523 . S
H2379 C2354 0.950 . S
H2380 C2356 0.950 . S
H2381 C2357 0.949 . S
H2382 C2359 0.950 . S
H2383 C2361 0.950 . S
C2384 C2385 1.349 1_554 S
C2384 C2386 1.327 . S
C2384 H2409 0.950 . S
C2385 C2384 1.349 1_556 S
C2385 C2401 1.349 . S
C2386 C2384 1.327 . S
C2386 C2405 1.429 1_554 S
C2386 H2410 0.950 . S
C2387 C2404 1.574 . S
C2387 C2406 1.368 . S
C2387 H2411 0.949 . S
H2388 C2392 0.949 . S
C2389 C2390 1.349 . S
C2389 C2391 1.327 . S
C2389 H2412 0.950 . S
C2390 C2389 1.349 . S
C2390 C2402 1.349 1_556 S
C2391 C2389 1.327 . S
C2391 C2407 1.429 . S
C2391 H2413 0.950 . S
C2392 H2388 0.949 . S
C2392 C2400 1.574 . S
C2392 C2408 1.368 1_554 S
H2393 C2401 0.950 . S
H2394 C2399 0.950 . S
H2395 C2400 0.949 . S
H2396 C2402 0.950 . S
H2397 C2403 0.950 . S
H2398 C2404 0.949 . S
C2399 H2394 0.950 . S
C2399 C2401 1.327 . S
C2399 C2405 1.429 . S
C2400 C2392 1.574 . S
C2400 H2395 0.949 . S
C2400 C2406 1.368 1_554 S
C2401 C2385 1.349 . S
C2401 H2393 0.950 . S
C2401 C2399 1.327 . S
C2402 C2390 1.349 1_554 S
C2402 H2396 0.950 . S
C2402 C2403 1.327 . S
C2403 H2397 0.950 . S
C2403 C2402 1.327 . S
C2403 C2407 1.429 1_554 S
C2404 C2387 1.574 . S
C2404 H2398 0.949 . S
C2404 C2408 1.368 . S
C2405 C2386 1.429 1_556 S
C2405 C2399 1.429 . S
C2405 C2406 1.523 . S
C2406 C2387 1.368 . S
C2406 C2400 1.368 1_556 S
C2406 C2405 1.523 . S
C2407 C2391 1.429 . S
C2407 C2403 1.429 1_556 S
C2407 C2408 1.523 . S
C2408 C2392 1.368 1_556 S
C2408 C2404 1.368 . S
C2408 C2407 1.523 . S
H2409 C2384 0.950 . S
H2410 C2386 0.950 . S
H2411 C2387 0.949 . S
H2412 C2389 0.950 . S
H2413 C2391 0.950 . S
C2414 C2415 1.349 . S
C2414 C2416 1.327 . S
C2414 H2439 0.950 1_554 S
C2415 C2414 1.349 . S
C2415 C2431 1.349 . S
C2416 C2414 1.327 . S
C2416 C2435 1.429 . S
C2416 H2440 0.950 1_554 S
C2417 C2434 1.574 . S
C2417 C2436 1.368 . S
C2417 H2441 0.949 . S
H2418 C2422 0.949 1_556 S
C2419 C2420 1.349 . S
C2419 C2421 1.327 . S
C2419 H2442 0.950 . S
C2420 C2419 1.349 . S
C2420 C2432 1.349 . S
C2421 C2419 1.327 . S
C2421 C2437 1.429 . S
C2421 H2443 0.950 . S
C2422 H2418 0.949 1_554 S
C2422 C2430 1.574 . S
C2422 C2438 1.368 . S
H2423 C2431 0.950 . S
H2424 C2429 0.950 . S
H2425 C2430 0.949 1_556 S
H2426 C2432 0.950 1_556 S
H2427 C2433 0.950 1_556 S
H2428 C2434 0.949 . S
C2429 H2424 0.950 . S
C2429 C2431 1.327 . S
C2429 C2435 1.429 . S
C2430 C2422 1.574 . S
C2430 H2425 0.949 1_554 S
C2430 C2436 1.368 . S
C2431 C2415 1.349 . S
C2431 H2423 0.950 . S
C2431 C2429 1.327 . S
C2432 C2420 1.349 . S
C2432 H2426 0.950 1_554 S
C2432 C2433 1.327 . S
C2433 H2427 0.950 1_554 S
C2433 C2432 1.327 . S
C2433 C2437 1.429 . S
C2434 C2417 1.574 . S
C2434 H2428 0.949 . S
C2434 C2438 1.368 . S
C2435 C2416 1.429 . S
C2435 C2429 1.429 . S
C2435 C2436 1.523 . S
C2436 C2417 1.368 . S
C2436 C2430 1.368 . S
C2436 C2435 1.523 . S
C2437 C2421 1.429 . S
C2437 C2433 1.429 . S
C2437 C2438 1.523 . S
C2438 C2422 1.368 . S
C2438 C2434 1.368 . S
C2438 C2437 1.523 . S
H2439 C2414 0.950 1_556 S
H2440 C2416 0.950 1_556 S
H2441 C2417 0.949 . S
H2442 C2419 0.950 . S
H2443 C2421 0.950 . S
C2444 C2445 1.349 . S
C2444 C2446 1.327 . S
C2444 H2469 0.950 . S
C2445 C2444 1.349 . S
C2445 C2461 1.349 . S
C2446 C2444 1.327 . S
C2446 C2465 1.429 . S
C2446 H2470 0.950 . S
C2447 C2464 1.574 . S
C2447 C2466 1.368 . S
C2447 H2471 0.949 . S
H2448 C2452 0.949 . S
C2449 C2450 1.349 . S
C2449 C2451 1.327 . S
C2449 H2472 0.950 . S
C2450 C2449 1.349 . S
C2450 C2462 1.349 . S
C2451 C2449 1.327 . S
C2451 C2467 1.429 . S
C2451 H2473 0.950 . S
C2452 H2448 0.949 . S
C2452 C2460 1.574 . S
C2452 C2468 1.368 . S
H2453 C2461 0.950 . S
H2454 C2459 0.950 . S
H2455 C2460 0.949 . S
H2456 C2462 0.950 . S
H2457 C2463 0.950 . S
H2458 C2464 0.949 . S
C2459 H2454 0.950 . S
C2459 C2461 1.327 . S
C2459 C2465 1.429 . S
C2460 C2452 1.574 . S
C2460 H2455 0.949 . S
C2460 C2466 1.368 . S
C2461 C2445 1.349 . S
C2461 H2453 0.950 . S
C2461 C2459 1.327 . S
C2462 C2450 1.349 . S
C2462 H2456 0.950 . S
C2462 C2463 1.327 . S
C2463 H2457 0.950 . S
C2463 C2462 1.327 . S
C2463 C2467 1.429 . S
C2464 C2447 1.574 . S
C2464 H2458 0.949 . S
C2464 C2468 1.368 . S
C2465 C2446 1.429 . S
C2465 C2459 1.429 . S
C2465 C2466 1.523 . S
C2466 C2447 1.368 . S
C2466 C2460 1.368 . S
C2466 C2465 1.523 . S
C2467 C2451 1.429 . S
C2467 C2463 1.429 . S
C2467 C2468 1.523 . S
C2468 C2452 1.368 . S
C2468 C2464 1.368 . S
C2468 C2467 1.523 . S
H2469 C2444 0.950 . S
H2470 C2446 0.950 . S
H2471 C2447 0.949 . S
H2472 C2449 0.950 . S
H2473 C2451 0.950 . S
C2474 C2475 1.349 . S
C2474 C2476 1.327 . S
C2474 H2499 0.950 . S
C2475 C2474 1.349 . S
C2475 C2491 1.349 . S
C2476 C2474 1.327 . S
C2476 C2495 1.429 . S
C2476 H2500 0.950 . S
C2477 C2494 1.574 . S
C2477 C2496 1.368 . S
C2477 H2501 0.949 . S
H2478 C2482 0.949 . S
C2479 C2480 1.349 . S
C2479 C2481 1.327 . S
C2479 H2502 0.950 . S
C2480 C2479 1.349 . S
C2480 C2492 1.349 . S
C2481 C2479 1.327 . S
C2481 C2497 1.429 . S
C2481 H2503 0.950 . S
C2482 H2478 0.949 . S
C2482 C2490 1.574 . S
C2482 C2498 1.368 . S
H2483 C2491 0.950 . S
H2484 C2489 0.950 . S
H2485 C2490 0.949 . S
H2486 C2492 0.950 . S
H2487 C2493 0.950 . S
H2488 C2494 0.949 . S
C2489 H2484 0.950 . S
C2489 C2491 1.327 . S
C2489 C2495 1.429 . S
C2490 C2482 1.574 . S
C2490 H2485 0.949 . S
C2490 C2496 1.368 . S
C2491 C2475 1.349 . S
C2491 H2483 0.950 . S
C2491 C2489 1.327 . S
C2492 C2480 1.349 . S
C2492 H2486 0.950 . S
C2492 C2493 1.327 . S
C2493 H2487 0.950 . S
C2493 C2492 1.327 . S
C2493 C2497 1.429 . S
C2494 C2477 1.574 . S
C2494 H2488 0.949 . S
C2494 C2498 1.368 . S
C2495 C2476 1.429 . S
C2495 C2489 1.429 . S
C2495 C2496 1.523 . S
C2496 C2477 1.368 . S
C2496 C2490 1.368 . S
C2496 C2495 1.523 . S
C2497 C2481 1.429 . S
C2497 C2493 1.429 . S
C2497 C2498 1.523 . S
C2498 C2482 1.368 . S
C2498 C2494 1.368 . S
C2498 C2497 1.523 . S
H2499 C2474 0.950 . S
H2500 C2476 0.950 . S
H2501 C2477 0.949 . S
H2502 C2479 0.950 . S
H2503 C2481 0.950 . S
C2504 C2505 1.349 . S
C2504 C2506 1.327 . S
C2504 H2529 0.950 . S
C2505 C2504 1.349 . S
C2505 C2521 1.349 . S
C2506 C2504 1.327 . S
C2506 C2525 1.429 . S
C2506 H2530 0.950 . S
C2507 C2524 1.574 . S
C2507 C2526 1.368 . S
C2507 H2531 0.949 . S
H2508 C2512 0.949 . S
C2509 C2510 1.349 . S
C2509 C2511 1.327 . S
C2509 H2532 0.950 . S
C2510 C2509 1.349 . S
C2510 C2522 1.349 . S
C2511 C2509 1.327 . S
C2511 C2527 1.429 . S
C2511 H2533 0.950 . S
C2512 H2508 0.949 . S
C2512 C2520 1.574 . S
C2512 C2528 1.368 . S
H2513 C2521 0.950 . S
H2514 C2519 0.950 . S
H2515 C2520 0.949 . S
H2516 C2522 0.950 . S
H2517 C2523 0.950 . S
H2518 C2524 0.949 . S
C2519 H2514 0.950 . S
C2519 C2521 1.327 . S
C2519 C2525 1.429 . S
C2520 C2512 1.574 . S
C2520 H2515 0.949 . S
C2520 C2526 1.368 . S
C2521 C2505 1.349 . S
C2521 H2513 0.950 . S
C2521 C2519 1.327 . S
C2522 C2510 1.349 . S
C2522 H2516 0.950 . S
C2522 C2523 1.327 . S
C2523 H2517 0.950 . S
C2523 C2522 1.327 . S
C2523 C2527 1.429 . S
C2524 C2507 1.574 . S
C2524 H2518 0.949 . S
C2524 C2528 1.368 . S
C2525 C2506 1.429 . S
C2525 C2519 1.429 . S
C2525 C2526 1.523 . S
C2526 C2507 1.368 . S
C2526 C2520 1.368 . S
C2526 C2525 1.523 . S
C2527 C2511 1.429 . S
C2527 C2523 1.429 . S
C2527 C2528 1.523 . S
C2528 C2512 1.368 . S
C2528 C2524 1.368 . S
C2528 C2527 1.523 . S
H2529 C2504 0.950 . S
H2530 C2506 0.950 . S
H2531 C2507 0.949 . S
H2532 C2509 0.950 . S
H2533 C2511 0.950 . S
C2534 C2535 1.349 . S
C2534 C2536 1.327 . S
C2534 H2559 0.950 . S
C2535 C2534 1.349 . S
C2535 C2551 1.349 . S
C2536 C2534 1.327 . S
C2536 C2555 1.429 . S
C2536 H2560 0.950 . S
C2537 C2554 1.574 . S
C2537 C2556 1.368 . S
C2537 H2561 0.949 . S
H2538 C2542 0.949 . S
C2539 C2540 1.349 . S
C2539 C2541 1.327 . S
C2539 H2562 0.950 . S
C2540 C2539 1.349 . S
C2540 C2552 1.349 . S
C2541 C2539 1.327 . S
C2541 C2557 1.429 . S
C2541 H2563 0.950 . S
C2542 H2538 0.949 . S
C2542 C2550 1.574 . S
C2542 C2558 1.368 . S
H2543 C2551 0.950 . S
H2544 C2549 0.950 . S
H2545 C2550 0.949 . S
H2546 C2552 0.953 1_545 S
H2547 C2553 0.950 . S
H2548 C2554 0.949 . S
C2549 H2544 0.950 . S
C2549 C2551 1.327 . S
C2549 C2555 1.429 . S
C2550 C2542 1.574 . S
C2550 H2545 0.949 . S
C2550 C2556 1.368 . S
C2551 C2535 1.349 . S
C2551 H2543 0.950 . S
C2551 C2549 1.327 . S
C2552 C2540 1.349 . S
C2552 H2546 0.953 1_565 S
C2552 C2553 1.324 . S
C2553 H2547 0.950 . S
C2553 C2552 1.324 . S
C2553 C2557 1.429 . S
C2554 C2537 1.574 . S
C2554 H2548 0.949 . S
C2554 C2558 1.368 . S
C2555 C2536 1.429 . S
C2555 C2549 1.429 . S
C2555 C2556 1.523 . S
C2556 C2537 1.368 . S
C2556 C2550 1.368 . S
C2556 C2555 1.523 . S
C2557 C2541 1.429 . S
C2557 C2553 1.429 . S
C2557 C2558 1.523 . S
C2558 C2542 1.368 . S
C2558 C2554 1.368 . S
C2558 C2557 1.523 . S
H2559 C2534 0.950 . S
H2560 C2536 0.950 . S
H2561 C2537 0.949 . S
H2562 C2539 0.950 . S
H2563 C2541 0.950 . S
C2564 C2565 1.349 . S
C2564 C2566 1.327 . S
C2564 H2589 0.950 . S
C2565 C2564 1.349 . S
C2565 C2581 1.349 . S
C2566 C2564 1.327 . S
C2566 C2585 1.429 . S
C2566 H2590 0.950 . S
C2567 C2584 1.574 . S
C2567 C2586 1.368 . S
C2567 H2591 0.949 . S
H2568 C2572 0.949 . S
C2569 C2570 1.349 . S
C2569 C2571 1.327 . S
C2569 H2592 0.950 . S
C2570 C2569 1.349 . S
C2570 C2582 1.349 . S
C2571 C2569 1.327 . S
C2571 C2587 1.429 . S
C2571 H2593 0.950 . S
C2572 H2568 0.949 . S
C2572 C2580 1.574 . S
C2572 C2588 1.368 . S
H2573 C2581 0.950 . S
H2574 C2579 0.950 . S
H2575 C2580 0.949 . S
H2576 C2582 0.950 . S
H2577 C2583 0.950 . S
H2578 C2584 0.949 . S
C2579 H2574 0.950 . S
C2579 C2581 1.327 . S
C2579 C2585 1.429 . S
C2580 C2572 1.574 . S
C2580 H2575 0.949 . S
C2580 C2586 1.368 . S
C2581 C2565 1.349 . S
C2581 H2573 0.950 . S
C2581 C2579 1.327 . S
C2582 C2570 1.349 . S
C2582 H2576 0.950 . S
C2582 C2583 1.327 . S
C2583 H2577 0.950 . S
C2583 C2582 1.327 . S
C2583 C2587 1.429 . S
C2584 C2567 1.574 . S
C2584 H2578 0.949 . S
C2584 C2588 1.368 . S
C2585 C2566 1.429 . S
C2585 C2579 1.429 . S
C2585 C2586 1.523 . S
C2586 C2567 1.368 . S
C2586 C2580 1.368 . S
C2586 C2585 1.523 . S
C2587 C2571 1.429 . S
C2587 C2583 1.429 . S
C2587 C2588 1.523 . S
C2588 C2572 1.368 . S
C2588 C2584 1.368 . S
C2588 C2587 1.523 . S
H2589 C2564 0.950 . S
H2590 C2566 0.950 . S
H2591 C2567 0.949 . S
H2592 C2569 0.950 . S
H2593 C2571 0.950 . S
C2594 C2595 1.349 . S
C2594 C2596 1.327 . S
C2594 H2619 0.950 . S
C2595 C2594 1.349 . S
C2595 C2611 1.349 . S
C2596 C2594 1.327 . S
C2596 C2615 1.429 . S
C2596 H2620 0.950 . S
C2597 C2614 1.574 . S
C2597 C2616 1.368 . S
C2597 H2621 0.949 . S
H2598 C2602 0.949 . S
C2599 C2600 1.349 . S
C2599 C2601 1.327 . S
C2599 H2622 0.950 . S
C2600 C2599 1.349 . S
C2600 C2612 1.349 . S
C2601 C2599 1.327 . S
C2601 C2617 1.429 . S
C2601 H2623 0.950 . S
C2602 H2598 0.949 . S
C2602 C2610 1.574 . S
C2602 C2618 1.368 . S
H2603 C2611 0.950 . S
H2604 C2609 0.950 . S
H2605 C2610 0.949 . S
H2606 C2612 0.950 . S
H2607 C2613 0.950 . S
H2608 C2614 0.949 . S
C2609 H2604 0.950 . S
C2609 C2611 1.327 . S
C2609 C2615 1.429 . S
C2610 C2602 1.574 . S
C2610 H2605 0.949 . S
C2610 C2616 1.368 . S
C2611 C2595 1.349 . S
C2611 H2603 0.950 . S
C2611 C2609 1.327 . S
C2612 C2600 1.349 . S
C2612 H2606 0.950 . S
C2612 C2613 1.327 . S
C2613 H2607 0.950 . S
C2613 C2612 1.327 . S
C2613 C2617 1.429 . S
C2614 C2597 1.574 . S
C2614 H2608 0.949 . S
C2614 C2618 1.368 . S
C2615 C2596 1.429 . S
C2615 C2609 1.429 . S
C2615 C2616 1.523 . S
C2616 C2597 1.368 . S
C2616 C2610 1.368 . S
C2616 C2615 1.523 . S
C2617 C2601 1.429 . S
C2617 C2613 1.429 . S
C2617 C2618 1.523 . S
C2618 C2602 1.368 . S
C2618 C2614 1.368 . S
C2618 C2617 1.523 . S
H2619 C2594 0.950 . S
H2620 C2596 0.950 . S
H2621 C2597 0.949 . S
H2622 C2599 0.950 . S
H2623 C2601 0.950 . S
C2624 C2625 1.349 . S
C2624 C2626 1.327 . S
C2624 H2649 0.950 . S
C2625 C2624 1.349 . S
C2625 C2641 1.349 . S
C2626 C2624 1.327 . S
C2626 C2645 1.429 . S
C2626 H2650 0.950 . S
C2627 C2644 1.574 . S
C2627 C2646 1.368 . S
C2627 H2651 0.949 . S
H2628 C2632 0.949 . S
C2629 C2630 1.349 . S
C2629 C2631 1.327 . S
C2629 H2652 0.950 . S
C2630 C2629 1.349 . S
C2630 C2642 1.349 . S
C2631 C2629 1.327 . S
C2631 C2647 1.429 . S
C2631 H2653 0.950 . S
C2632 H2628 0.949 . S
C2632 C2640 1.574 . S
C2632 C2648 1.368 . S
H2633 C2641 0.950 . S
H2634 C2639 0.950 . S
H2635 C2640 0.949 . S
H2636 C2642 0.950 . S
H2637 C2643 0.950 . S
H2638 C2644 0.949 . S
C2639 H2634 0.950 . S
C2639 C2641 1.327 . S
C2639 C2645 1.429 . S
C2640 C2632 1.574 . S
C2640 H2635 0.949 . S
C2640 C2646 1.368 . S
C2641 C2625 1.349 . S
C2641 H2633 0.950 . S
C2641 C2639 1.327 . S
C2642 C2630 1.349 . S
C2642 H2636 0.950 . S
C2642 C2643 1.327 . S
C2643 H2637 0.950 . S
C2643 C2642 1.327 . S
C2643 C2647 1.429 . S
C2644 C2627 1.574 . S
C2644 H2638 0.949 . S
C2644 C2648 1.368 . S
C2645 C2626 1.429 . S
C2645 C2639 1.429 . S
C2645 C2646 1.523 . S
C2646 C2627 1.368 . S
C2646 C2640 1.368 . S
C2646 C2645 1.523 . S
C2647 C2631 1.429 . S
C2647 C2643 1.429 . S
C2647 C2648 1.523 . S
C2648 C2632 1.368 . S
C2648 C2644 1.368 . S
C2648 C2647 1.523 . S
H2649 C2624 0.950 . S
H2650 C2626 0.950 . S
H2651 C2627 0.949 . S
H2652 C2629 0.950 . S
H2653 C2631 0.950 . S
C2654 C2655 1.349 . S
C2654 C2656 1.327 . S
C2654 H2679 0.950 . S
C2655 C2654 1.349 . S
C2655 C2671 1.349 . S
C2656 C2654 1.327 . S
C2656 C2675 1.429 . S
C2656 H2680 0.950 . S
C2657 C2674 1.574 . S
C2657 C2676 1.368 . S
C2657 H2681 0.949 . S
H2658 C2662 0.949 . S
C2659 C2660 1.349 . S
C2659 C2661 1.327 . S
C2659 H2682 0.950 . S
C2660 C2659 1.349 . S
C2660 C2672 1.349 . S
C2661 C2659 1.327 . S
C2661 C2677 1.429 . S
C2661 H2683 0.950 . S
C2662 H2658 0.949 . S
C2662 C2670 1.574 . S
C2662 C2678 1.368 . S
H2663 C2671 0.950 . S
H2664 C2669 0.950 . S
H2665 C2670 0.949 . S
H2666 C2672 0.950 . S
H2667 C2673 0.950 . S
H2668 C2674 0.949 . S
C2669 H2664 0.950 . S
C2669 C2671 1.327 . S
C2669 C2675 1.429 . S
C2670 C2662 1.574 . S
C2670 H2665 0.949 . S
C2670 C2676 1.368 . S
C2671 C2655 1.349 . S
C2671 H2663 0.950 . S
C2671 C2669 1.327 . S
C2672 C2660 1.349 . S
C2672 H2666 0.950 . S
C2672 C2673 1.327 . S
C2673 H2667 0.950 . S
C2673 C2672 1.327 . S
C2673 C2677 1.429 . S
C2674 C2657 1.574 . S
C2674 H2668 0.949 . S
C2674 C2678 1.368 . S
C2675 C2656 1.429 . S
C2675 C2669 1.429 . S
C2675 C2676 1.523 . S
C2676 C2657 1.368 . S
C2676 C2670 1.368 . S
C2676 C2675 1.523 . S
C2677 C2661 1.429 . S
C2677 C2673 1.429 . S
C2677 C2678 1.523 . S
C2678 C2662 1.368 . S
C2678 C2674 1.368 . S
C2678 C2677 1.523 . S
H2679 C2654 0.950 . S
H2680 C2656 0.950 . S
H2681 C2657 0.949 . S
H2682 C2659 0.950 . S
H2683 C2661 0.950 . S
C2684 C2685 1.349 . S
C2684 C2686 1.327 . S
C2684 H2709 0.950 . S
C2685 C2684 1.349 . S
C2685 C2701 1.349 1_455 S
C2686 C2684 1.327 . S
C2686 C2705 1.429 . S
C2686 H2710 0.950 . S
C2687 C2704 1.574 . S
C2687 C2706 1.368 1_655 S
C2687 H2711 0.949 . S
H2688 C2692 0.949 . S
C2689 C2690 1.352 1_656 S
C2689 C2691 1.327 . S
C2689 H2712 0.950 . S
C2690 C2689 1.352 1_454 S
C2690 C2702 1.347 . S
C2691 C2689 1.327 . S
C2691 C2707 1.429 1_655 S
C2691 H2713 0.950 . S
C2692 H2688 0.949 . S
C2692 C2700 1.574 . S
C2692 C2708 1.368 . S
H2693 C2701 0.950 . S
H2694 C2699 0.950 . S
H2695 C2700 0.949 . S
H2696 C2702 0.950 . S
H2697 C2703 0.927 1_554 S
H2698 C2704 0.949 . S
C2699 H2694 0.950 . S
C2699 C2701 1.327 . S
C2699 C2705 1.429 1_655 S
C2700 C2692 1.574 . S
C2700 H2695 0.949 . S
C2700 C2706 1.368 . S
C2701 C2685 1.349 1_655 S
C2701 H2693 0.950 . S
C2701 C2699 1.327 . S
C2702 C2690 1.347 . S
C2702 H2696 0.950 . S
C2702 C2703 1.309 1_554 S
C2703 H2697 0.927 1_556 S
C2703 C2702 1.309 1_556 S
C2703 C2707 1.471 . S
C2704 C2687 1.574 . S
C2704 H2698 0.949 . S
C2704 C2708 1.368 1_655 S
C2705 C2686 1.429 . S
C2705 C2699 1.429 1_455 S
C2705 C2706 1.523 . S
C2706 C2687 1.368 1_455 S
C2706 C2700 1.368 . S
C2706 C2705 1.523 . S
C2707 C2691 1.429 1_455 S
C2707 C2703 1.471 . S
C2707 C2708 1.523 . S
C2708 C2692 1.368 . S
C2708 C2704 1.368 1_455 S
C2708 C2707 1.523 . S
H2709 C2684 0.950 . S
H2710 C2686 0.950 . S
H2711 C2687 0.949 . S
H2712 C2689 0.950 . S
H2713 C2691 0.950 . S
C2714 C2715 1.349 . S
C2714 C2716 1.327 . S
C2714 H2739 0.950 . S
C2715 C2714 1.349 . S
C2715 C2731 1.349 . S
C2716 C2714 1.327 . S
C2716 C2735 1.429 . S
C2716 H2740 0.950 . S
C2717 C2734 1.574 . S
C2717 C2736 1.368 . S
C2717 H2741 0.949 . S
H2718 C2722 0.949 . S
C2719 C2720 1.349 . S
C2719 C2721 1.327 . S
C2719 H2742 0.950 . S
C2720 C2719 1.349 . S
C2720 C2732 1.349 . S
C2721 C2719 1.327 . S
C2721 C2737 1.429 . S
C2721 H2743 0.950 . S
C2722 H2718 0.949 . S
C2722 C2730 1.574 . S
C2722 C2738 1.368 . S
H2723 C2731 0.950 . S
H2724 C2729 0.950 . S
H2725 C2730 0.949 . S
H2726 C2732 0.950 . S
H2727 C2733 0.950 . S
H2728 C2734 0.949 . S
C2729 H2724 0.950 . S
C2729 C2731 1.327 . S
C2729 C2735 1.429 . S
C2730 C2722 1.574 . S
C2730 H2725 0.949 . S
C2730 C2736 1.368 . S
C2731 C2715 1.349 . S
C2731 H2723 0.950 . S
C2731 C2729 1.327 . S
C2732 C2720 1.349 . S
C2732 H2726 0.950 . S
C2732 C2733 1.327 . S
C2733 H2727 0.950 . S
C2733 C2732 1.327 . S
C2733 C2737 1.429 . S
C2734 C2717 1.574 . S
C2734 H2728 0.949 . S
C2734 C2738 1.368 . S
C2735 C2716 1.429 . S
C2735 C2729 1.429 . S
C2735 C2736 1.523 . S
C2736 C2717 1.368 . S
C2736 C2730 1.368 . S
C2736 C2735 1.523 . S
C2737 C2721 1.429 . S
C2737 C2733 1.429 . S
C2737 C2738 1.523 . S
C2738 C2722 1.368 . S
C2738 C2734 1.368 . S
C2738 C2737 1.523 . S
H2739 C2714 0.950 . S
H2740 C2716 0.950 . S
H2741 C2717 0.949 . S
H2742 C2719 0.950 . S
H2743 C2721 0.950 . S
C2744 C2745 1.349 . S
C2744 C2746 1.327 . S
C2744 H2769 0.950 . S
C2745 C2744 1.349 . S
C2745 C2761 1.349 . S
C2746 C2744 1.327 . S
C2746 C2765 1.429 . S
C2746 H2770 0.950 . S
C2747 C2764 1.574 . S
C2747 C2766 1.368 . S
C2747 H2771 0.949 . S
H2748 C2752 0.949 . S
C2749 C2750 1.349 . S
C2749 C2751 1.327 . S
C2749 H2772 0.950 . S
C2750 C2749 1.349 . S
C2750 C2762 1.349 . S
C2751 C2749 1.327 . S
C2751 C2767 1.429 . S
C2751 H2773 0.950 . S
C2752 H2748 0.949 . S
C2752 C2760 1.574 . S
C2752 C2768 1.368 . S
H2753 C2761 0.950 . S
H2754 C2759 0.950 . S
H2755 C2760 0.949 . S
H2756 C2762 0.950 . S
H2757 C2763 0.950 . S
H2758 C2764 0.949 . S
C2759 H2754 0.950 . S
C2759 C2761 1.327 . S
C2759 C2765 1.429 . S
C2760 C2752 1.574 . S
C2760 H2755 0.949 . S
C2760 C2766 1.368 . S
C2761 C2745 1.349 . S
C2761 H2753 0.950 . S
C2761 C2759 1.327 . S
C2762 C2750 1.349 . S
C2762 H2756 0.950 . S
C2762 C2763 1.327 . S
C2763 H2757 0.950 . S
C2763 C2762 1.327 . S
C2763 C2767 1.429 . S
C2764 C2747 1.574 . S
C2764 H2758 0.949 . S
C2764 C2768 1.368 . S
C2765 C2746 1.429 . S
C2765 C2759 1.429 . S
C2765 C2766 1.523 . S
C2766 C2747 1.368 . S
C2766 C2760 1.368 . S
C2766 C2765 1.523 . S
C2767 C2751 1.429 . S
C2767 C2763 1.429 . S
C2767 C2768 1.523 . S
C2768 C2752 1.368 . S
C2768 C2764 1.368 . S
C2768 C2767 1.523 . S
H2769 C2744 0.950 . S
H2770 C2746 0.950 . S
H2771 C2747 0.949 . S
H2772 C2749 0.950 . S
H2773 C2751 0.950 . S
C2774 C2775 1.349 . S
C2774 C2776 1.327 . S
C2774 H2799 0.950 . S
C2775 C2774 1.349 . S
C2775 C2791 1.349 . S
C2776 C2774 1.327 . S
C2776 C2795 1.429 . S
C2776 H2800 0.950 . S
C2777 C2794 1.574 . S
C2777 C2796 1.368 . S
C2777 H2801 0.949 . S
H2778 C2782 0.949 . S
C2779 C2780 1.349 . S
C2779 C2781 1.327 . S
C2779 H2802 0.950 . S
C2780 C2779 1.349 . S
C2780 C2792 1.349 . S
C2781 C2779 1.327 . S
C2781 C2797 1.429 . S
C2781 H2803 0.950 . S
C2782 H2778 0.949 . S
C2782 C2790 1.574 . S
C2782 C2798 1.368 . S
H2783 C2791 0.950 . S
H2784 C2789 0.950 . S
H2785 C2790 0.949 . S
H2786 C2792 0.950 . S
H2787 C2793 0.950 . S
H2788 C2794 0.949 . S
C2789 H2784 0.950 . S
C2789 C2791 1.327 . S
C2789 C2795 1.429 . S
C2790 C2782 1.574 . S
C2790 H2785 0.949 . S
C2790 C2796 1.368 . S
C2791 C2775 1.349 . S
C2791 H2783 0.950 . S
C2791 C2789 1.327 . S
C2792 C2780 1.349 . S
C2792 H2786 0.950 . S
C2792 C2793 1.327 . S
C2793 H2787 0.950 . S
C2793 C2792 1.327 . S
C2793 C2797 1.429 . S
C2794 C2777 1.574 . S
C2794 H2788 0.949 . S
C2794 C2798 1.368 . S
C2795 C2776 1.429 . S
C2795 C2789 1.429 . S
C2795 C2796 1.523 . S
C2796 C2777 1.368 . S
C2796 C2790 1.368 . S
C2796 C2795 1.523 . S
C2797 C2781 1.429 . S
C2797 C2793 1.429 . S
C2797 C2798 1.523 . S
C2798 C2782 1.368 . S
C2798 C2794 1.368 . S
C2798 C2797 1.523 . S
H2799 C2774 0.950 . S
H2800 C2776 0.950 . S
H2801 C2777 0.949 . S
H2802 C2779 0.950 . S
H2803 C2781 0.950 . S
C2804 C2805 1.349 1_655 S
C2804 C2806 1.327 . S
C2804 H2829 0.950 . S
C2805 C2804 1.349 1_455 S
C2805 C2821 1.349 . S
C2806 C2804 1.327 . S
C2806 C2825 1.429 1_655 S
C2806 H2830 0.950 . S
C2807 C2824 1.574 . S
C2807 C2826 1.368 . S
C2807 H2831 0.949 . S
H2808 C2812 0.949 . S
C2809 C2810 1.349 . S
C2809 C2811 1.327 . S
C2809 H2832 0.950 . S
C2810 C2809 1.349 . S
C2810 C2822 1.349 1_455 S
C2811 C2809 1.327 . S
C2811 C2827 1.429 . S
C2811 H2833 0.950 . S
C2812 H2808 0.949 . S
C2812 C2820 1.574 . S
C2812 C2828 1.368 1_655 S
H2813 C2821 0.950 . S
H2814 C2819 0.950 . S
H2815 C2820 0.949 . S
H2816 C2822 0.950 . S
H2817 C2823 0.950 . S
H2818 C2824 0.949 . S
C2819 H2814 0.950 . S
C2819 C2821 1.327 . S
C2819 C2825 1.429 . S
C2820 C2812 1.574 . S
C2820 H2815 0.949 . S
C2820 C2826 1.368 1_655 S
C2821 C2805 1.349 . S
C2821 H2813 0.950 . S
C2821 C2819 1.327 . S
C2822 C2810 1.349 1_655 S
C2822 H2816 0.950 . S
C2822 C2823 1.327 . S
C2823 H2817 0.950 . S
C2823 C2822 1.327 . S
C2823 C2827 1.429 1_655 S
C2824 C2807 1.574 . S
C2824 H2818 0.949 . S
C2824 C2828 1.368 . S
C2825 C2806 1.429 1_455 S
C2825 C2819 1.429 . S
C2825 C2826 1.523 . S
C2826 C2807 1.368 . S
C2826 C2820 1.368 1_455 S
C2826 C2825 1.523 . S
C2827 C2811 1.429 . S
C2827 C2823 1.429 1_455 S
C2827 C2828 1.523 . S
C2828 C2812 1.368 1_455 S
C2828 C2824 1.368 . S
C2828 C2827 1.523 . S
H2829 C2804 0.950 . S
H2830 C2806 0.950 . S
H2831 C2807 0.949 . S
H2832 C2809 0.950 . S
H2833 C2811 0.950 . S
C2834 C2835 1.349 . S
C2834 C2836 1.327 . S
C2834 H2859 0.950 . S
C2835 C2834 1.349 . S
C2835 C2851 1.349 . S
C2836 C2834 1.327 . S
C2836 C2855 1.429 . S
C2836 H2860 0.950 . S
C2837 C2854 1.574 . S
C2837 C2856 1.368 . S
C2837 H2861 0.949 . S
H2838 C2842 0.949 . S
C2839 C2840 1.349 . S
C2839 C2841 1.327 . S
C2839 H2862 0.950 . S
C2840 C2839 1.349 . S
C2840 C2852 1.349 . S
C2841 C2839 1.327 . S
C2841 C2857 1.429 . S
C2841 H2863 0.950 . S
C2842 H2838 0.949 . S
C2842 C2850 1.574 . S
C2842 C2858 1.368 . S
H2843 C2851 0.950 . S
H2844 C2849 0.950 . S
H2845 C2850 0.949 . S
H2846 C2852 0.950 . S
H2847 C2853 0.950 . S
H2848 C2854 0.949 . S
C2849 H2844 0.950 . S
C2849 C2851 1.327 . S
C2849 C2855 1.429 . S
C2850 C2842 1.574 . S
C2850 H2845 0.949 . S
C2850 C2856 1.368 . S
C2851 C2835 1.349 . S
C2851 H2843 0.950 . S
C2851 C2849 1.327 . S
C2852 C2840 1.349 . S
C2852 H2846 0.950 . S
C2852 C2853 1.327 . S
C2853 H2847 0.950 . S
C2853 C2852 1.327 . S
C2853 C2857 1.429 . S
C2854 C2837 1.574 . S
C2854 H2848 0.949 . S
C2854 C2858 1.368 . S
C2855 C2836 1.429 . S
C2855 C2849 1.429 . S
C2855 C2856 1.523 . S
C2856 C2837 1.368 . S
C2856 C2850 1.368 . S
C2856 C2855 1.523 . S
C2857 C2841 1.429 . S
C2857 C2853 1.429 . S
C2857 C2858 1.523 . S
C2858 C2842 1.368 . S
C2858 C2854 1.368 . S
C2858 C2857 1.523 . S
H2859 C2834 0.950 . S
H2860 C2836 0.950 . S
H2861 C2837 0.949 . S
H2862 C2839 0.950 . S
H2863 C2841 0.950 . S
C2864 C2865 1.349 . S
C2864 C2866 1.327 . S
C2864 H2889 0.950 . S
C2865 C2864 1.349 . S
C2865 C2881 1.349 . S
C2866 C2864 1.327 . S
C2866 C2885 1.429 . S
C2866 H2890 0.950 . S
C2867 C2884 1.574 . S
C2867 C2886 1.368 . S
C2867 H2891 0.949 . S
H2868 C2872 0.949 . S
C2869 C2870 1.349 . S
C2869 C2871 1.327 . S
C2869 H2892 0.950 . S
C2870 C2869 1.349 . S
C2870 C2882 1.349 . S
C2871 C2869 1.327 . S
C2871 C2887 1.429 . S
C2871 H2893 0.950 . S
C2872 H2868 0.949 . S
C2872 C2880 1.574 . S
C2872 C2888 1.368 . S
H2873 C2881 0.950 . S
H2874 C2879 0.950 . S
H2875 C2880 0.949 . S
H2876 C2882 0.950 . S
H2877 C2883 0.950 . S
H2878 C2884 0.949 . S
C2879 H2874 0.950 . S
C2879 C2881 1.327 . S
C2879 C2885 1.429 . S
C2880 C2872 1.574 . S
C2880 H2875 0.949 . S
C2880 C2886 1.368 . S
C2881 C2865 1.349 . S
C2881 H2873 0.950 . S
C2881 C2879 1.327 . S
C2882 C2870 1.349 . S
C2882 H2876 0.950 . S
C2882 C2883 1.327 . S
C2883 H2877 0.950 . S
C2883 C2882 1.327 . S
C2883 C2887 1.429 . S
C2884 C2867 1.574 . S
C2884 H2878 0.949 . S
C2884 C2888 1.368 . S
C2885 C2866 1.429 . S
C2885 C2879 1.429 . S
C2885 C2886 1.523 . S
C2886 C2867 1.368 . S
C2886 C2880 1.368 . S
C2886 C2885 1.523 . S
C2887 C2871 1.429 . S
C2887 C2883 1.429 . S
C2887 C2888 1.523 . S
C2888 C2872 1.368 . S
C2888 C2884 1.368 . S
C2888 C2887 1.523 . S
H2889 C2864 0.950 . S
H2890 C2866 0.950 . S
H2891 C2867 0.949 . S
H2892 C2869 0.950 . S
H2893 C2871 0.950 . S
C2894 C2895 1.349 . S
C2894 C2896 1.327 . S
C2894 H2919 0.950 . S
C2895 C2894 1.349 . S
C2895 C2911 1.349 . S
C2896 C2894 1.327 . S
C2896 C2915 1.429 . S
C2896 H2920 0.950 . S
C2897 C2914 1.574 . S
C2897 C2916 1.368 . S
C2897 H2921 0.949 . S
H2898 C2902 0.949 . S
C2899 C2900 1.349 . S
C2899 C2901 1.327 . S
C2899 H2922 0.950 . S
C2900 C2899 1.349 . S
C2900 C2912 1.349 . S
C2901 C2899 1.327 . S
C2901 C2917 1.429 . S
C2901 H2923 0.950 . S
C2902 H2898 0.949 . S
C2902 C2910 1.574 . S
C2902 C2918 1.368 . S
H2903 C2911 0.950 . S
H2904 C2909 0.950 . S
H2905 C2910 0.949 . S
H2906 C2912 0.950 . S
H2907 C2913 0.950 . S
H2908 C2914 0.949 . S
C2909 H2904 0.950 . S
C2909 C2911 1.327 . S
C2909 C2915 1.429 . S
C2910 C2902 1.574 . S
C2910 H2905 0.949 . S
C2910 C2916 1.368 . S
C2911 C2895 1.349 . S
C2911 H2903 0.950 . S
C2911 C2909 1.327 . S
C2912 C2900 1.349 . S
C2912 H2906 0.950 . S
C2912 C2913 1.327 . S
C2913 H2907 0.950 . S
C2913 C2912 1.327 . S
C2913 C2917 1.429 . S
C2914 C2897 1.574 . S
C2914 H2908 0.949 . S
C2914 C2918 1.368 . S
C2915 C2896 1.429 . S
C2915 C2909 1.429 . S
C2915 C2916 1.523 . S
C2916 C2897 1.368 . S
C2916 C2910 1.368 . S
C2916 C2915 1.523 . S
C2917 C2901 1.429 . S
C2917 C2913 1.429 . S
C2917 C2918 1.523 . S
C2918 C2902 1.368 . S
C2918 C2914 1.368 . S
C2918 C2917 1.523 . S
H2919 C2894 0.950 . S
H2920 C2896 0.950 . S
H2921 C2897 0.949 . S
H2922 C2899 0.950 . S
H2923 C2901 0.950 . S
C2924 C2925 1.349 . S
C2924 C2926 1.327 . S
C2924 H2949 0.950 . S
C2925 C2924 1.349 . S
C2925 C2941 1.349 . S
C2926 C2924 1.327 . S
C2926 C2945 1.429 . S
C2926 H2950 0.950 . S
C2927 C2944 1.574 . S
C2927 C2946 1.368 . S
C2927 H2951 0.949 . S
H2928 C2932 0.949 . S
C2929 C2930 1.349 . S
C2929 C2931 1.327 . S
C2929 H2952 0.950 . S
C2930 C2929 1.349 . S
C2930 C2942 1.349 . S
C2931 C2929 1.327 . S
C2931 C2947 1.429 . S
C2931 H2953 0.950 . S
C2932 H2928 0.949 . S
C2932 C2940 1.574 . S
C2932 C2948 1.368 . S
H2933 C2941 0.950 . S
H2934 C2939 0.950 . S
H2935 C2940 0.949 . S
H2936 C2942 0.950 . S
H2937 C2943 0.950 . S
H2938 C2944 0.949 . S
C2939 H2934 0.950 . S
C2939 C2941 1.327 . S
C2939 C2945 1.429 . S
C2940 C2932 1.574 . S
C2940 H2935 0.949 . S
C2940 C2946 1.368 . S
C2941 C2925 1.349 . S
C2941 H2933 0.950 . S
C2941 C2939 1.327 . S
C2942 C2930 1.349 . S
C2942 H2936 0.950 . S
C2942 C2943 1.327 . S
C2943 H2937 0.950 . S
C2943 C2942 1.327 . S
C2943 C2947 1.429 . S
C2944 C2927 1.574 . S
C2944 H2938 0.949 . S
C2944 C2948 1.368 . S
C2945 C2926 1.429 . S
C2945 C2939 1.429 . S
C2945 C2946 1.523 . S
C2946 C2927 1.368 . S
C2946 C2940 1.368 . S
C2946 C2945 1.523 . S
C2947 C2931 1.429 . S
C2947 C2943 1.429 . S
C2947 C2948 1.523 . S
C2948 C2932 1.368 . S
C2948 C2944 1.368 . S
C2948 C2947 1.523 . S
H2949 C2924 0.950 . S
H2950 C2926 0.950 . S
H2951 C2927 0.949 . S
H2952 C2929 0.950 . S
H2953 C2931 0.950 . S
C2954 C2955 1.349 . S
C2954 C2956 1.327 . S
C2954 H2979 0.950 . S
C2955 C2954 1.349 . S
C2955 C2971 1.349 . S
C2956 C2954 1.327 . S
C2956 C2975 1.429 . S
C2956 H2980 0.950 . S
C2957 C2974 1.574 . S
C2957 C2976 1.368 . S
C2957 H2981 0.949 . S
H2958 C2962 0.949 . S
C2959 C2960 1.349 . S
C2959 C2961 1.327 . S
C2959 H2982 0.950 . S
C2960 C2959 1.349 . S
C2960 C2972 1.349 . S
C2961 C2959 1.327 . S
C2961 C2977 1.429 . S
C2961 H2983 0.950 . S
C2962 H2958 0.949 . S
C2962 C2970 1.574 . S
C2962 C2978 1.368 . S
H2963 C2971 0.950 . S
H2964 C2969 0.950 . S
H2965 C2970 0.949 . S
H2966 C2972 0.950 . S
H2967 C2973 0.950 . S
H2968 C2974 0.949 . S
C2969 H2964 0.950 . S
C2969 C2971 1.327 . S
C2969 C2975 1.429 . S
C2970 C2962 1.574 . S
C2970 H2965 0.949 . S
C2970 C2976 1.368 . S
C2971 C2955 1.349 . S
C2971 H2963 0.950 . S
C2971 C2969 1.327 . S
C2972 C2960 1.349 . S
C2972 H2966 0.950 . S
C2972 C2973 1.327 . S
C2973 H2967 0.950 . S
C2973 C2972 1.327 . S
C2973 C2977 1.429 . S
C2974 C2957 1.574 . S
C2974 H2968 0.949 . S
C2974 C2978 1.368 . S
C2975 C2956 1.429 . S
C2975 C2969 1.429 . S
C2975 C2976 1.523 . S
C2976 C2957 1.368 . S
C2976 C2970 1.368 . S
C2976 C2975 1.523 . S
C2977 C2961 1.429 . S
C2977 C2973 1.429 . S
C2977 C2978 1.523 . S
C2978 C2962 1.368 . S
C2978 C2974 1.368 . S
C2978 C2977 1.523 . S
H2979 C2954 0.950 . S
H2980 C2956 0.950 . S
H2981 C2957 0.949 . S
H2982 C2959 0.950 . S
H2983 C2961 0.950 . S
C2984 C2985 1.349 . S
C2984 C2986 1.327 . S
C2984 H3009 0.950 . S
C2985 C2984 1.349 . S
C2985 C3001 1.349 . S
C2986 C2984 1.327 . S
C2986 C3005 1.429 . S
C2986 H3010 0.950 . S
C2987 C3004 1.574 . S
C2987 C3006 1.368 . S
C2987 H3011 0.949 . S
H2988 C2992 0.949 . S
C2989 C2990 1.349 . S
C2989 C2991 1.327 . S
C2989 H3012 0.950 . S
C2990 C2989 1.349 . S
C2990 C3002 1.349 . S
C2991 C2989 1.327 . S
C2991 C3007 1.429 . S
C2991 H3013 0.950 . S
C2992 H2988 0.949 . S
C2992 C3000 1.574 . S
C2992 C3008 1.368 . S
H2993 C3001 0.950 . S
H2994 C2999 0.950 . S
H2995 C3000 0.949 . S
H2996 C3002 0.950 . S
H2997 C3003 0.950 . S
H2998 C3004 0.949 . S
C2999 H2994 0.950 . S
C2999 C3001 1.327 . S
C2999 C3005 1.429 . S
C3000 C2992 1.574 . S
C3000 H2995 0.949 . S
C3000 C3006 1.368 . S
C3001 C2985 1.349 . S
C3001 H2993 0.950 . S
C3001 C2999 1.327 . S
C3002 C2990 1.349 . S
C3002 H2996 0.950 . S
C3002 C3003 1.327 . S
C3003 H2997 0.950 . S
C3003 C3002 1.327 . S
C3003 C3007 1.429 . S
C3004 C2987 1.574 . S
C3004 H2998 0.949 . S
C3004 C3008 1.368 . S
C3005 C2986 1.429 . S
C3005 C2999 1.429 . S
C3005 C3006 1.523 . S
C3006 C2987 1.368 . S
C3006 C3000 1.368 . S
C3006 C3005 1.523 . S
C3007 C2991 1.429 . S
C3007 C3003 1.429 . S
C3007 C3008 1.523 . S
C3008 C2992 1.368 . S
C3008 C3004 1.368 . S
C3008 C3007 1.523 . S
H3009 C2984 0.950 . S
H3010 C2986 0.950 . S
H3011 C2987 0.949 . S
H3012 C2989 0.950 . S
H3013 C2991 0.950 . S
C3014 C3015 1.349 . S
C3014 C3016 1.327 . S
C3014 H3039 0.950 . S
C3015 C3014 1.349 . S
C3015 C3031 1.349 . S
C3016 C3014 1.327 . S
C3016 C3035 1.429 . S
C3016 H3040 0.950 . S
C3017 C3034 1.574 . S
C3017 C3036 1.368 . S
C3017 H3041 0.949 . S
H3018 C3022 0.949 . S
C3019 C3020 1.349 . S
C3019 C3021 1.327 . S
C3019 H3042 0.950 . S
C3020 C3019 1.349 . S
C3020 C3032 1.349 . S
C3021 C3019 1.327 . S
C3021 C3037 1.429 . S
C3021 H3043 0.950 . S
C3022 H3018 0.949 . S
C3022 C3030 1.574 . S
C3022 C3038 1.368 . S
H3023 C3031 0.950 . S
H3024 C3029 0.950 . S
H3025 C3030 0.949 . S
H3026 C3032 0.950 . S
H3027 C3033 0.950 . S
H3028 C3034 0.949 . S
C3029 H3024 0.950 . S
C3029 C3031 1.327 . S
C3029 C3035 1.429 . S
C3030 C3022 1.574 . S
C3030 H3025 0.949 . S
C3030 C3036 1.368 . S
C3031 C3015 1.349 . S
C3031 H3023 0.950 . S
C3031 C3029 1.327 . S
C3032 C3020 1.349 . S
C3032 H3026 0.950 . S
C3032 C3033 1.327 . S
C3033 H3027 0.950 . S
C3033 C3032 1.327 . S
C3033 C3037 1.429 . S
C3034 C3017 1.574 . S
C3034 H3028 0.949 . S
C3034 C3038 1.368 . S
C3035 C3016 1.429 . S
C3035 C3029 1.429 . S
C3035 C3036 1.523 . S
C3036 C3017 1.368 . S
C3036 C3030 1.368 . S
C3036 C3035 1.523 . S
C3037 C3021 1.429 . S
C3037 C3033 1.429 . S
C3037 C3038 1.523 . S
C3038 C3022 1.368 . S
C3038 C3034 1.368 . S
C3038 C3037 1.523 . S
H3039 C3014 0.950 . S
H3040 C3016 0.950 . S
H3041 C3017 0.949 . S
H3042 C3019 0.950 . S
H3043 C3021 0.950 . S
C3044 C3045 1.349 . S
C3044 C3046 1.327 . S
C3044 H3069 0.950 . S
C3045 C3044 1.349 . S
C3045 C3061 1.349 . S
C3046 C3044 1.327 . S
C3046 C3065 1.429 . S
C3046 H3070 0.950 . S
C3047 C3064 1.574 . S
C3047 C3066 1.368 . S
C3047 H3071 0.949 . S
H3048 C3052 0.949 . S
C3049 C3050 1.349 . S
C3049 C3051 1.327 . S
C3049 H3072 0.950 . S
C3050 C3049 1.349 . S
C3050 C3062 1.349 . S
C3051 C3049 1.327 . S
C3051 C3067 1.429 . S
C3051 H3073 0.950 . S
C3052 H3048 0.949 . S
C3052 C3060 1.574 . S
C3052 C3068 1.368 . S
H3053 C3061 0.950 . S
H3054 C3059 0.950 . S
H3055 C3060 0.949 . S
H3056 C3062 0.950 . S
H3057 C3063 0.950 . S
H3058 C3064 0.949 . S
C3059 H3054 0.950 . S
C3059 C3061 1.327 . S
C3059 C3065 1.429 . S
C3060 C3052 1.574 . S
C3060 H3055 0.949 . S
C3060 C3066 1.368 . S
C3061 C3045 1.349 . S
C3061 H3053 0.950 . S
C3061 C3059 1.327 . S
C3062 C3050 1.349 . S
C3062 H3056 0.950 . S
C3062 C3063 1.327 . S
C3063 H3057 0.950 . S
C3063 C3062 1.327 . S
C3063 C3067 1.429 . S
C3064 C3047 1.574 . S
C3064 H3058 0.949 . S
C3064 C3068 1.368 . S
C3065 C3046 1.429 . S
C3065 C3059 1.429 . S
C3065 C3066 1.523 . S
C3066 C3047 1.368 . S
C3066 C3060 1.368 . S
C3066 C3065 1.523 . S
C3067 C3051 1.429 . S
C3067 C3063 1.429 . S
C3067 C3068 1.523 . S
C3068 C3052 1.368 . S
C3068 C3064 1.368 . S
C3068 C3067 1.523 . S
H3069 C3044 0.950 . S
H3070 C3046 0.950 . S
H3071 C3047 0.949 . S
H3072 C3049 0.950 . S
H3073 C3051 0.950 . S
C3074 C3075 1.349 . S
C3074 C3076 1.327 . S
C3074 H3099 0.950 . S
C3075 C3074 1.349 . S
C3075 C3091 1.349 . S
C3076 C3074 1.327 . S
C3076 C3095 1.429 . S
C3076 H3100 0.950 . S
C3077 C3094 1.574 . S
C3077 C3096 1.368 . S
C3077 H3101 0.949 . S
H3078 C3082 0.949 . S
C3079 C3080 1.349 . S
C3079 C3081 1.327 . S
C3079 H3102 0.950 . S
C3080 C3079 1.349 . S
C3080 C3092 1.349 . S
C3081 C3079 1.327 . S
C3081 C3097 1.429 . S
C3081 H3103 0.950 . S
C3082 H3078 0.949 . S
C3082 C3090 1.574 . S
C3082 C3098 1.368 . S
H3083 C3091 0.950 . S
H3084 C3089 0.950 . S
H3085 C3090 0.949 . S
H3086 C3092 0.950 . S
H3087 C3093 0.950 . S
H3088 C3094 0.949 . S
C3089 H3084 0.950 . S
C3089 C3091 1.327 . S
C3089 C3095 1.429 . S
C3090 C3082 1.574 . S
C3090 H3085 0.949 . S
C3090 C3096 1.368 . S
C3091 C3075 1.349 . S
C3091 H3083 0.950 . S
C3091 C3089 1.327 . S
C3092 C3080 1.349 . S
C3092 H3086 0.950 . S
C3092 C3093 1.327 . S
C3093 H3087 0.950 . S
C3093 C3092 1.327 . S
C3093 C3097 1.429 . S
C3094 C3077 1.574 . S
C3094 H3088 0.949 . S
C3094 C3098 1.368 . S
C3095 C3076 1.429 . S
C3095 C3089 1.429 . S
C3095 C3096 1.523 . S
C3096 C3077 1.368 . S
C3096 C3090 1.368 . S
C3096 C3095 1.523 . S
C3097 C3081 1.429 . S
C3097 C3093 1.429 . S
C3097 C3098 1.523 . S
C3098 C3082 1.368 . S
C3098 C3094 1.368 . S
C3098 C3097 1.523 . S
H3099 C3074 0.950 . S
H3100 C3076 0.950 . S
H3101 C3077 0.949 . S
H3102 C3079 0.950 . S
H3103 C3081 0.950 . S
C3104 C3105 1.349 . S
C3104 C3106 1.327 . S
C3104 H3129 0.950 . S
C3105 C3104 1.349 . S
C3105 C3121 1.349 . S
C3106 C3104 1.327 . S
C3106 C3125 1.429 . S
C3106 H3130 0.950 . S
C3107 C3124 1.574 . S
C3107 C3126 1.368 . S
C3107 H3131 0.949 . S
H3108 C3112 0.949 . S
C3109 C3110 1.349 . S
C3109 C3111 1.327 . S
C3109 H3132 0.950 . S
C3110 C3109 1.349 . S
C3110 C3122 1.349 . S
C3111 C3109 1.327 . S
C3111 C3127 1.429 . S
C3111 H3133 0.950 . S
C3112 H3108 0.949 . S
C3112 C3120 1.574 . S
C3112 C3128 1.368 . S
H3113 C3121 0.950 . S
H3114 C3119 0.950 . S
H3115 C3120 0.949 . S
H3116 C3122 0.950 . S
H3117 C3123 0.950 . S
H3118 C3124 0.949 . S
C3119 H3114 0.950 . S
C3119 C3121 1.327 . S
C3119 C3125 1.429 . S
C3120 C3112 1.574 . S
C3120 H3115 0.949 . S
C3120 C3126 1.368 . S
C3121 C3105 1.349 . S
C3121 H3113 0.950 . S
C3121 C3119 1.327 . S
C3122 C3110 1.349 . S
C3122 H3116 0.950 . S
C3122 C3123 1.327 . S
C3123 H3117 0.950 . S
C3123 C3122 1.327 . S
C3123 C3127 1.429 . S
C3124 C3107 1.574 . S
C3124 H3118 0.949 . S
C3124 C3128 1.368 . S
C3125 C3106 1.429 . S
C3125 C3119 1.429 . S
C3125 C3126 1.523 . S
C3126 C3107 1.368 . S
C3126 C3120 1.368 . S
C3126 C3125 1.523 . S
C3127 C3111 1.429 . S
C3127 C3123 1.429 . S
C3127 C3128 1.523 . S
C3128 C3112 1.368 . S
C3128 C3124 1.368 . S
C3128 C3127 1.523 . S
H3129 C3104 0.950 . S
H3130 C3106 0.950 . S
H3131 C3107 0.949 . S
H3132 C3109 0.950 . S
H3133 C3111 0.950 . S
C3134 C3135 1.349 . S
C3134 C3136 1.327 . S
C3134 H3159 0.950 . S
C3135 C3134 1.349 . S
C3135 C3151 1.349 . S
C3136 C3134 1.327 . S
C3136 C3155 1.429 . S
C3136 H3160 0.950 . S
C3137 C3154 1.574 . S
C3137 C3156 1.368 . S
C3137 H3161 0.949 . S
H3138 C3142 0.949 . S
C3139 C3140 1.349 . S
C3139 C3141 1.327 . S
C3139 H3162 0.950 . S
C3140 C3139 1.349 . S
C3140 C3152 1.349 . S
C3141 C3139 1.327 . S
C3141 C3157 1.429 . S
C3141 H3163 0.950 . S
C3142 H3138 0.949 . S
C3142 C3150 1.574 . S
C3142 C3158 1.368 . S
H3143 C3151 0.950 . S
H3144 C3149 0.950 . S
H3145 C3150 0.949 . S
H3146 C3152 0.950 . S
H3147 C3153 0.950 . S
H3148 C3154 0.949 . S
C3149 H3144 0.950 . S
C3149 C3151 1.327 . S
C3149 C3155 1.429 . S
C3150 C3142 1.574 . S
C3150 H3145 0.949 . S
C3150 C3156 1.368 . S
C3151 C3135 1.349 . S
C3151 H3143 0.950 . S
C3151 C3149 1.327 . S
C3152 C3140 1.349 . S
C3152 H3146 0.950 . S
C3152 C3153 1.327 . S
C3153 H3147 0.950 . S
C3153 C3152 1.327 . S
C3153 C3157 1.429 . S
C3154 C3137 1.574 . S
C3154 H3148 0.949 . S
C3154 C3158 1.368 . S
C3155 C3136 1.429 . S
C3155 C3149 1.429 . S
C3155 C3156 1.523 . S
C3156 C3137 1.368 . S
C3156 C3150 1.368 . S
C3156 C3155 1.523 . S
C3157 C3141 1.429 . S
C3157 C3153 1.429 . S
C3157 C3158 1.523 . S
C3158 C3142 1.368 . S
C3158 C3154 1.368 . S
C3158 C3157 1.523 . S
H3159 C3134 0.950 . S
H3160 C3136 0.950 . S
H3161 C3137 0.949 . S
H3162 C3139 0.950 . S
H3163 C3141 0.950 . S
C3164 C3165 1.349 . S
C3164 C3166 1.327 . S
C3164 H3189 0.950 . S
C3165 C3164 1.349 . S
C3165 C3181 1.349 . S
C3166 C3164 1.327 . S
C3166 C3185 1.429 . S
C3166 H3190 0.950 . S
C3167 C3184 1.574 . S
C3167 C3186 1.368 . S
C3167 H3191 0.949 . S
H3168 C3172 0.949 . S
C3169 C3170 1.349 . S
C3169 C3171 1.327 . S
C3169 H3192 0.950 . S
C3170 C3169 1.349 . S
C3170 C3182 1.349 . S
C3171 C3169 1.327 . S
C3171 C3187 1.429 . S
C3171 H3193 0.950 . S
C3172 H3168 0.949 . S
C3172 C3180 1.574 . S
C3172 C3188 1.368 . S
H3173 C3181 0.950 . S
H3174 C3179 0.950 . S
H3175 C3180 0.949 . S
H3176 C3182 0.950 . S
H3177 C3183 0.950 . S
H3178 C3184 0.949 . S
C3179 H3174 0.950 . S
C3179 C3181 1.327 . S
C3179 C3185 1.429 . S
C3180 C3172 1.574 . S
C3180 H3175 0.949 . S
C3180 C3186 1.368 . S
C3181 C3165 1.349 . S
C3181 H3173 0.950 . S
C3181 C3179 1.327 . S
C3182 C3170 1.349 . S
C3182 H3176 0.950 . S
C3182 C3183 1.327 . S
C3183 H3177 0.950 . S
C3183 C3182 1.327 . S
C3183 C3187 1.429 . S
C3184 C3167 1.574 . S
C3184 H3178 0.949 . S
C3184 C3188 1.368 . S
C3185 C3166 1.429 . S
C3185 C3179 1.429 . S
C3185 C3186 1.523 . S
C3186 C3167 1.368 . S
C3186 C3180 1.368 . S
C3186 C3185 1.523 . S
C3187 C3171 1.429 . S
C3187 C3183 1.429 . S
C3187 C3188 1.523 . S
C3188 C3172 1.368 . S
C3188 C3184 1.368 . S
C3188 C3187 1.523 . S
H3189 C3164 0.950 . S
H3190 C3166 0.950 . S
H3191 C3167 0.949 . S
H3192 C3169 0.950 . S
H3193 C3171 0.950 . S
C3194 C3195 1.349 . S
C3194 C3196 1.327 . S
C3194 H3219 0.950 . S
C3195 C3194 1.349 . S
C3195 C3211 1.349 . S
C3196 C3194 1.327 . S
C3196 C3215 1.429 . S
C3196 H3220 0.950 . S
C3197 C3214 1.574 . S
C3197 C3216 1.368 . S
C3197 H3221 0.949 1_554 S
H3198 C3202 0.949 . S
C3199 C3200 1.346 1_556 S
C3199 C3201 1.321 1_556 S
C3199 H3222 0.953 . S
C3200 C3199 1.346 1_554 S
C3200 C3212 1.349 . S
C3201 C3199 1.321 1_554 S
C3201 C3217 1.471 1_545 S
C3201 H3223 0.915 1_544 S
C3202 H3198 0.949 . S
C3202 C3210 1.574 . S
C3202 C3218 1.368 . S
H3203 C3211 0.913 1_556 S
H3204 C3209 0.950 1_556 S
H3205 C3210 0.949 . S
H3206 C3212 0.950 . S
H3207 C3213 0.950 . S
H3208 C3214 0.949 1_556 S
C3209 H3204 0.950 1_554 S
C3209 C3211 1.327 . S
C3209 C3215 1.429 . S
C3210 C3202 1.574 . S
C3210 H3205 0.949 . S
C3210 C3216 1.368 . S
C3211 C3195 1.349 . S
C3211 H3203 0.913 1_554 S
C3211 C3209 1.327 . S
C3212 C3200 1.349 . S
C3212 H3206 0.950 . S
C3212 C3213 1.327 1_545 S
C3213 H3207 0.950 . S
C3213 C3212 1.327 1_565 S
C3213 C3217 1.429 . S
C3214 C3197 1.574 . S
C3214 H3208 0.949 1_554 S
C3214 C3218 1.368 . S
C3215 C3196 1.429 . S
C3215 C3209 1.429 . S
C3215 C3216 1.523 . S
C3216 C3197 1.368 . S
C3216 C3210 1.368 . S
C3216 C3215 1.523 . S
C3217 C3201 1.471 1_565 S
C3217 C3213 1.429 . S
C3217 C3218 1.523 . S
C3218 C3202 1.368 . S
C3218 C3214 1.368 . S
C3218 C3217 1.523 . S
H3219 C3194 0.950 . S
H3220 C3196 0.950 . S
H3221 C3197 0.949 1_556 S
H3222 C3199 0.953 . S
H3223 C3201 0.915 1_566 S
C3224 C3225 1.349 . S
C3224 C3226 1.327 . S
C3224 H3249 0.950 . S
C3225 C3224 1.349 . S
C3225 C3241 1.349 . S
C3226 C3224 1.327 . S
C3226 C3245 1.429 . S
C3226 H3250 0.950 . S
C3227 C3244 1.574 . S
C3227 C3246 1.368 . S
C3227 H3251 0.949 . S
H3228 C3232 0.949 . S
C3229 C3230 1.349 . S
C3229 C3231 1.327 . S
C3229 H3252 0.950 . S
C3230 C3229 1.349 . S
C3230 C3242 1.349 . S
C3231 C3229 1.327 . S
C3231 C3247 1.429 . S
C3231 H3253 0.950 . S
C3232 H3228 0.949 . S
C3232 C3240 1.574 . S
C3232 C3248 1.368 . S
H3233 C3241 0.950 . S
H3234 C3239 0.950 . S
H3235 C3240 0.949 . S
H3236 C3242 0.950 . S
H3237 C3243 0.950 . S
H3238 C3244 0.949 . S
C3239 H3234 0.950 . S
C3239 C3241 1.327 . S
C3239 C3245 1.429 . S
C3240 C3232 1.574 . S
C3240 H3235 0.949 . S
C3240 C3246 1.368 . S
C3241 C3225 1.349 . S
C3241 H3233 0.950 . S
C3241 C3239 1.327 . S
C3242 C3230 1.349 . S
C3242 H3236 0.950 . S
C3242 C3243 1.327 . S
C3243 H3237 0.950 . S
C3243 C3242 1.327 . S
C3243 C3247 1.429 . S
C3244 C3227 1.574 . S
C3244 H3238 0.949 . S
C3244 C3248 1.368 . S
C3245 C3226 1.429 . S
C3245 C3239 1.429 . S
C3245 C3246 1.523 . S
C3246 C3227 1.368 . S
C3246 C3240 1.368 . S
C3246 C3245 1.523 . S
C3247 C3231 1.429 . S
C3247 C3243 1.429 . S
C3247 C3248 1.523 . S
C3248 C3232 1.368 . S
C3248 C3244 1.368 . S
C3248 C3247 1.523 . S
H3249 C3224 0.950 . S
H3250 C3226 0.950 . S
H3251 C3227 0.949 . S
H3252 C3229 0.950 . S
H3253 C3231 0.950 . S
C3254 C3255 1.334 1_556 S
C3254 C3256 1.323 1_556 S
C3254 H3279 0.967 . S
C3255 C3254 1.334 1_554 S
C3255 C3271 1.349 . S
C3256 C3254 1.323 1_554 S
C3256 C3275 1.473 . S
C3256 H3280 0.911 1_554 S
C3257 C3274 1.574 . S
C3257 C3276 1.368 . S
C3257 H3281 0.949 . S
H3258 C3262 0.949 1_556 S
C3259 C3260 1.349 . S
C3259 C3261 1.327 . S
C3259 H3282 0.950 . S
C3260 C3259 1.349 . S
C3260 C3272 1.349 . S
C3261 C3259 1.327 . S
C3261 C3277 1.429 . S
C3261 H3283 0.950 . S
C3262 H3258 0.949 1_554 S
C3262 C3270 1.574 . S
C3262 C3278 1.368 . S
H3263 C3271 0.950 . S
H3264 C3269 0.950 . S
H3265 C3270 0.949 1_556 S
H3266 C3272 0.950 . S
H3267 C3273 0.970 . S
H3268 C3274 0.949 . S
C3269 H3264 0.950 . S
C3269 C3271 1.327 . S
C3269 C3275 1.429 . S
C3270 C3262 1.574 . S
C3270 H3265 0.949 1_554 S
C3270 C3276 1.368 . S
C3271 C3255 1.349 . S
C3271 H3263 0.950 . S
C3271 C3269 1.327 . S
C3272 C3260 1.349 . S
C3272 H3266 0.950 . S
C3272 C3273 1.327 . S
C3273 H3267 0.970 . S
C3273 C3272 1.327 . S
C3273 C3277 1.429 . S
C3274 C3257 1.574 . S
C3274 H3268 0.949 . S
C3274 C3278 1.368 . S
C3275 C3256 1.473 . S
C3275 C3269 1.429 . S
C3275 C3276 1.523 . S
C3276 C3257 1.368 . S
C3276 C3270 1.368 . S
C3276 C3275 1.523 . S
C3277 C3261 1.429 . S
C3277 C3273 1.429 . S
C3277 C3278 1.523 . S
C3278 C3262 1.368 . S
C3278 C3274 1.368 . S
C3278 C3277 1.523 . S
H3279 C3254 0.967 . S
H3280 C3256 0.911 1_556 S
H3281 C3257 0.949 . S
H3282 C3259 0.950 . S
H3283 C3261 0.950 . S
C3284 C3285 1.349 . S
C3284 C3286 1.327 . S
C3284 H3309 0.950 . S
C3285 C3284 1.349 . S
C3285 C3301 1.349 . S
C3286 C3284 1.327 . S
C3286 C3305 1.429 . S
C3286 H3310 0.950 . S
C3287 C3304 1.574 . S
C3287 C3306 1.368 . S
C3287 H3311 0.949 . S
H3288 C3292 0.949 . S
C3289 C3290 1.349 . S
C3289 C3291 1.327 . S
C3289 H3312 0.950 . S
C3290 C3289 1.349 . S
C3290 C3302 1.349 . S
C3291 C3289 1.327 . S
C3291 C3307 1.429 . S
C3291 H3313 0.950 . S
C3292 H3288 0.949 . S
C3292 C3300 1.574 . S
C3292 C3308 1.368 . S
H3293 C3301 0.950 . S
H3294 C3299 0.950 . S
H3295 C3300 0.949 . S
H3296 C3302 0.950 . S
H3297 C3303 0.950 . S
H3298 C3304 0.949 . S
C3299 H3294 0.950 . S
C3299 C3301 1.327 . S
C3299 C3305 1.429 . S
C3300 C3292 1.574 . S
C3300 H3295 0.949 . S
C3300 C3306 1.368 . S
C3301 C3285 1.349 . S
C3301 H3293 0.950 . S
C3301 C3299 1.327 . S
C3302 C3290 1.349 . S
C3302 H3296 0.950 . S
C3302 C3303 1.327 . S
C3303 H3297 0.950 . S
C3303 C3302 1.327 . S
C3303 C3307 1.429 . S
C3304 C3287 1.574 . S
C3304 H3298 0.949 . S
C3304 C3308 1.368 . S
C3305 C3286 1.429 . S
C3305 C3299 1.429 . S
C3305 C3306 1.523 . S
C3306 C3287 1.368 . S
C3306 C3300 1.368 . S
C3306 C3305 1.523 . S
C3307 C3291 1.429 . S
C3307 C3303 1.429 . S
C3307 C3308 1.523 . S
C3308 C3292 1.368 . S
C3308 C3304 1.368 . S
C3308 C3307 1.523 . S
H3309 C3284 0.950 . S
H3310 C3286 0.950 . S
H3311 C3287 0.949 . S
H3312 C3289 0.950 . S
H3313 C3291 0.950 . S
C3314 C3315 1.349 . S
C3314 C3316 1.327 . S
C3314 H3339 0.950 . S
C3315 C3314 1.349 . S
C3315 C3331 1.349 . S
C3316 C3314 1.327 . S
C3316 C3335 1.429 . S
C3316 H3340 0.950 . S
C3317 C3334 1.574 . S
C3317 C3336 1.368 . S
C3317 H3341 0.949 . S
H3318 C3322 0.949 . S
C3319 C3320 1.349 . S
C3319 C3321 1.327 . S
C3319 H3342 0.950 . S
C3320 C3319 1.349 . S
C3320 C3332 1.349 . S
C3321 C3319 1.327 . S
C3321 C3337 1.429 . S
C3321 H3343 0.950 . S
C3322 H3318 0.949 . S
C3322 C3330 1.574 . S
C3322 C3338 1.368 . S
H3323 C3331 0.950 . S
H3324 C3329 0.950 . S
H3325 C3330 0.949 . S
H3326 C3332 0.950 . S
H3327 C3333 0.950 . S
H3328 C3334 0.949 . S
C3329 H3324 0.950 . S
C3329 C3331 1.327 . S
C3329 C3335 1.429 . S
C3330 C3322 1.574 . S
C3330 H3325 0.949 . S
C3330 C3336 1.368 . S
C3331 C3315 1.349 . S
C3331 H3323 0.950 . S
C3331 C3329 1.327 . S
C3332 C3320 1.349 . S
C3332 H3326 0.950 . S
C3332 C3333 1.327 . S
C3333 H3327 0.950 . S
C3333 C3332 1.327 . S
C3333 C3337 1.429 . S
C3334 C3317 1.574 . S
C3334 H3328 0.949 . S
C3334 C3338 1.368 . S
C3335 C3316 1.429 . S
C3335 C3329 1.429 . S
C3335 C3336 1.523 . S
C3336 C3317 1.368 . S
C3336 C3330 1.368 . S
C3336 C3335 1.523 . S
C3337 C3321 1.429 . S
C3337 C3333 1.429 . S
C3337 C3338 1.523 . S
C3338 C3322 1.368 . S
C3338 C3334 1.368 . S
C3338 C3337 1.523 . S
H3339 C3314 0.950 . S
H3340 C3316 0.950 . S
H3341 C3317 0.949 . S
H3342 C3319 0.950 . S
H3343 C3321 0.950 . S
C3344 C3345 1.349 . S
C3344 C3346 1.327 . S
C3344 H3369 0.950 . S
C3345 C3344 1.349 . S
C3345 C3361 1.349 . S
C3346 C3344 1.327 . S
C3346 C3365 1.429 . S
C3346 H3370 0.950 . S
C3347 C3364 1.574 . S
C3347 C3366 1.368 . S
C3347 H3371 0.949 . S
H3348 C3352 0.949 . S
C3349 C3350 1.349 . S
C3349 C3351 1.327 . S
C3349 H3372 0.950 . S
C3350 C3349 1.349 . S
C3350 C3362 1.349 . S
C3351 C3349 1.327 . S
C3351 C3367 1.429 . S
C3351 H3373 0.950 . S
C3352 H3348 0.949 . S
C3352 C3360 1.574 . S
C3352 C3368 1.368 . S
H3353 C3361 0.950 . S
H3354 C3359 0.950 . S
H3355 C3360 0.949 . S
H3356 C3362 0.950 . S
H3357 C3363 0.950 . S
H3358 C3364 0.949 . S
C3359 H3354 0.950 . S
C3359 C3361 1.327 . S
C3359 C3365 1.429 . S
C3360 C3352 1.574 . S
C3360 H3355 0.949 . S
C3360 C3366 1.368 . S
C3361 C3345 1.349 . S
C3361 H3353 0.950 . S
C3361 C3359 1.327 . S
C3362 C3350 1.349 . S
C3362 H3356 0.950 . S
C3362 C3363 1.327 . S
C3363 H3357 0.950 . S
C3363 C3362 1.327 . S
C3363 C3367 1.429 . S
C3364 C3347 1.574 . S
C3364 H3358 0.949 . S
C3364 C3368 1.368 . S
C3365 C3346 1.429 . S
C3365 C3359 1.429 . S
C3365 C3366 1.523 . S
C3366 C3347 1.368 . S
C3366 C3360 1.368 . S
C3366 C3365 1.523 . S
C3367 C3351 1.429 . S
C3367 C3363 1.429 . S
C3367 C3368 1.523 . S
C3368 C3352 1.368 . S
C3368 C3364 1.368 . S
C3368 C3367 1.523 . S
H3369 C3344 0.950 . S
H3370 C3346 0.950 . S
H3371 C3347 0.949 . S
H3372 C3349 0.950 . S
H3373 C3351 0.950 . S
C3374 C3375 1.349 . S
C3374 C3376 1.327 . S
C3374 H3399 0.950 . S
C3375 C3374 1.349 . S
C3375 C3391 1.349 . S
C3376 C3374 1.327 . S
C3376 C3395 1.429 . S
C3376 H3400 0.950 . S
C3377 C3394 1.574 . S
C3377 C3396 1.368 . S
C3377 H3401 0.949 . S
H3378 C3382 0.949 . S
C3379 C3380 1.349 . S
C3379 C3381 1.327 . S
C3379 H3402 0.950 . S
C3380 C3379 1.349 . S
C3380 C3392 1.349 . S
C3381 C3379 1.327 . S
C3381 C3397 1.429 . S
C3381 H3403 0.950 . S
C3382 H3378 0.949 . S
C3382 C3390 1.574 . S
C3382 C3398 1.368 . S
H3383 C3391 0.950 . S
H3384 C3389 0.950 . S
H3385 C3390 0.949 . S
H3386 C3392 0.950 . S
H3387 C3393 0.950 . S
H3388 C3394 0.949 . S
C3389 H3384 0.950 . S
C3389 C3391 1.327 . S
C3389 C3395 1.429 . S
C3390 C3382 1.574 . S
C3390 H3385 0.949 . S
C3390 C3396 1.368 . S
C3391 C3375 1.349 . S
C3391 H3383 0.950 . S
C3391 C3389 1.327 . S
C3392 C3380 1.349 . S
C3392 H3386 0.950 . S
C3392 C3393 1.327 . S
C3393 H3387 0.950 . S
C3393 C3392 1.327 . S
C3393 C3397 1.429 . S
C3394 C3377 1.574 . S
C3394 H3388 0.949 . S
C3394 C3398 1.368 . S
C3395 C3376 1.429 . S
C3395 C3389 1.429 . S
C3395 C3396 1.523 . S
C3396 C3377 1.368 . S
C3396 C3390 1.368 . S
C3396 C3395 1.523 . S
C3397 C3381 1.429 . S
C3397 C3393 1.429 . S
C3397 C3398 1.523 . S
C3398 C3382 1.368 . S
C3398 C3394 1.368 . S
C3398 C3397 1.523 . S
H3399 C3374 0.950 . S
H3400 C3376 0.950 . S
H3401 C3377 0.949 . S
H3402 C3379 0.950 . S
H3403 C3381 0.950 . S
C3404 C3405 1.349 . S
C3404 C3406 1.327 . S
C3404 H3429 0.950 . S
C3405 C3404 1.349 . S
C3405 C3421 1.349 . S
C3406 C3404 1.327 . S
C3406 C3425 1.429 . S
C3406 H3430 0.950 . S
C3407 C3424 1.574 . S
C3407 C3426 1.368 . S
C3407 H3431 0.974 . S
H3408 C3412 0.949 . S
C3409 C3410 1.349 . S
C3409 C3411 1.327 . S
C3409 H3432 0.950 . S
C3410 C3409 1.349 . S
C3410 C3422 1.349 . S
C3411 C3409 1.327 . S
C3411 C3427 1.429 . S
C3411 H3433 0.950 . S
C3412 H3408 0.949 . S
C3412 C3420 1.574 . S
C3412 C3428 1.368 . S
H3413 C3421 0.950 . S
H3414 C3419 0.967 . S
H3415 C3420 0.949 . S
H3416 C3422 0.950 . S
H3417 C3423 0.950 . S
H3418 C3424 0.966 . S
C3419 H3414 0.967 . S
C3419 C3421 1.327 . S
C3419 C3425 1.429 . S
C3420 C3412 1.574 . S
C3420 H3415 0.949 . S
C3420 C3426 1.368 . S
C3421 C3405 1.349 . S
C3421 H3413 0.950 . S
C3421 C3419 1.327 . S
C3422 C3410 1.349 . S
C3422 H3416 0.950 . S
C3422 C3423 1.327 . S
C3423 H3417 0.950 . S
C3423 C3422 1.327 . S
C3423 C3427 1.429 . S
C3424 C3407 1.574 . S
C3424 H3418 0.966 . S
C3424 C3428 1.368 . S
C3425 C3406 1.429 . S
C3425 C3419 1.429 . S
C3425 C3426 1.523 . S
C3426 C3407 1.368 . S
C3426 C3420 1.368 . S
C3426 C3425 1.523 . S
C3427 C3411 1.429 . S
C3427 C3423 1.429 . S
C3427 C3428 1.523 . S
C3428 C3412 1.368 . S
C3428 C3424 1.368 . S
C3428 C3427 1.523 . S
H3429 C3404 0.950 . S
H3430 C3406 0.950 . S
H3431 C3407 0.974 . S
H3432 C3409 0.950 . S
H3433 C3411 0.950 . S
C3434 C3435 1.349 . S
C3434 C3436 1.327 . S
C3434 H3459 0.950 . S
C3435 C3434 1.349 . S
C3435 C3451 1.349 . S
C3436 C3434 1.327 . S
C3436 C3455 1.429 . S
C3436 H3460 0.950 . S
C3437 C3454 1.574 . S
C3437 C3456 1.368 . S
C3437 H3461 0.949 . S
H3438 C3442 0.949 . S
C3439 C3440 1.349 . S
C3439 C3441 1.327 . S
C3439 H3462 0.950 . S
C3440 C3439 1.349 . S
C3440 C3452 1.349 . S
C3441 C3439 1.327 . S
C3441 C3457 1.429 . S
C3441 H3463 0.950 . S
C3442 H3438 0.949 . S
C3442 C3450 1.574 . S
C3442 C3458 1.368 . S
H3443 C3451 0.950 . S
H3444 C3449 0.950 . S
H3445 C3450 0.949 . S
H3446 C3452 0.950 . S
H3447 C3453 0.950 . S
H3448 C3454 0.949 . S
C3449 H3444 0.950 . S
C3449 C3451 1.327 . S
C3449 C3455 1.429 . S
C3450 C3442 1.574 . S
C3450 H3445 0.949 . S
C3450 C3456 1.368 . S
C3451 C3435 1.349 . S
C3451 H3443 0.950 . S
C3451 C3449 1.327 . S
C3452 C3440 1.349 . S
C3452 H3446 0.950 . S
C3452 C3453 1.327 . S
C3453 H3447 0.950 . S
C3453 C3452 1.327 . S
C3453 C3457 1.429 . S
C3454 C3437 1.574 . S
C3454 H3448 0.949 . S
C3454 C3458 1.368 . S
C3455 C3436 1.429 . S
C3455 C3449 1.429 . S
C3455 C3456 1.523 . S
C3456 C3437 1.368 . S
C3456 C3450 1.368 . S
C3456 C3455 1.523 . S
C3457 C3441 1.429 . S
C3457 C3453 1.429 . S
C3457 C3458 1.523 . S
C3458 C3442 1.368 . S
C3458 C3454 1.368 . S
C3458 C3457 1.523 . S
H3459 C3434 0.950 . S
H3460 C3436 0.950 . S
H3461 C3437 0.949 . S
H3462 C3439 0.950 . S
H3463 C3441 0.950 . S
C3464 C3465 1.349 . S
C3464 C3466 1.327 . S
C3464 H3489 0.950 . S
C3465 C3464 1.349 . S
C3465 C3481 1.349 . S
C3466 C3464 1.327 . S
C3466 C3485 1.429 . S
C3466 H3490 0.950 . S
C3467 C3484 1.574 . S
C3467 C3486 1.368 . S
C3467 H3491 0.949 . S
H3468 C3472 0.949 . S
C3469 C3470 1.349 . S
C3469 C3471 1.327 . S
C3469 H3492 0.950 1_556 S
C3470 C3469 1.349 . S
C3470 C3482 1.349 . S
C3471 C3469 1.327 . S
C3471 C3487 1.429 . S
C3471 H3493 0.950 . S
C3472 H3468 0.949 . S
C3472 C3480 1.574 . S
C3472 C3488 1.368 . S
H3473 C3481 0.950 . S
H3474 C3479 0.950 . S
H3475 C3480 0.949 . S
H3476 C3482 0.950 . S
H3477 C3483 0.950 . S
H3478 C3484 0.949 . S
C3479 H3474 0.950 . S
C3479 C3481 1.327 . S
C3479 C3485 1.429 . S
C3480 C3472 1.574 . S
C3480 H3475 0.949 . S
C3480 C3486 1.368 . S
C3481 C3465 1.349 . S
C3481 H3473 0.950 . S
C3481 C3479 1.327 . S
C3482 C3470 1.349 . S
C3482 H3476 0.950 . S
C3482 C3483 1.327 . S
C3483 H3477 0.950 . S
C3483 C3482 1.327 . S
C3483 C3487 1.429 . S
C3484 C3467 1.574 . S
C3484 H3478 0.949 . S
C3484 C3488 1.368 . S
C3485 C3466 1.429 . S
C3485 C3479 1.429 . S
C3485 C3486 1.523 . S
C3486 C3467 1.368 . S
C3486 C3480 1.368 . S
C3486 C3485 1.523 . S
C3487 C3471 1.429 . S
C3487 C3483 1.429 . S
C3487 C3488 1.523 . S
C3488 C3472 1.368 . S
C3488 C3484 1.368 . S
C3488 C3487 1.523 . S
H3489 C3464 0.950 . S
H3490 C3466 0.950 . S
H3491 C3467 0.949 . S
H3492 C3469 0.950 1_554 S
H3493 C3471 0.950 . S
C3494 C3495 1.349 . S
C3494 C3496 1.327 . S
C3494 H3519 0.950 . S
C3495 C3494 1.349 . S
C3495 C3511 1.349 . S
C3496 C3494 1.327 . S
C3496 C3515 1.429 . S
C3496 H3520 0.950 . S
C3497 C3514 1.574 . S
C3497 C3516 1.368 . S
C3497 H3521 0.949 . S
H3498 C3502 0.949 . S
C3499 C3500 1.349 . S
C3499 C3501 1.327 . S
C3499 H3522 0.950 . S
C3500 C3499 1.349 . S
C3500 C3512 1.349 . S
C3501 C3499 1.327 . S
C3501 C3517 1.429 . S
C3501 H3523 0.950 . S
C3502 H3498 0.949 . S
C3502 C3510 1.574 . S
C3502 C3518 1.368 . S
H3503 C3511 0.950 . S
H3504 C3509 0.950 . S
H3505 C3510 0.949 . S
H3506 C3512 0.950 . S
H3507 C3513 0.950 . S
H3508 C3514 0.949 . S
C3509 H3504 0.950 . S
C3509 C3511 1.327 . S
C3509 C3515 1.429 . S
C3510 C3502 1.574 . S
C3510 H3505 0.949 . S
C3510 C3516 1.368 . S
C3511 C3495 1.349 . S
C3511 H3503 0.950 . S
C3511 C3509 1.327 . S
C3512 C3500 1.349 . S
C3512 H3506 0.950 . S
C3512 C3513 1.327 . S
C3513 H3507 0.950 . S
C3513 C3512 1.327 . S
C3513 C3517 1.429 . S
C3514 C3497 1.574 . S
C3514 H3508 0.949 . S
C3514 C3518 1.368 . S
C3515 C3496 1.429 . S
C3515 C3509 1.429 . S
C3515 C3516 1.523 . S
C3516 C3497 1.368 . S
C3516 C3510 1.368 . S
C3516 C3515 1.523 . S
C3517 C3501 1.429 . S
C3517 C3513 1.429 . S
C3517 C3518 1.523 . S
C3518 C3502 1.368 . S
C3518 C3514 1.368 . S
C3518 C3517 1.523 . S
H3519 C3494 0.950 . S
H3520 C3496 0.950 . S
H3521 C3497 0.949 . S
H3522 C3499 0.950 . S
H3523 C3501 0.950 . S
C3524 C3525 1.349 . S
C3524 C3526 1.327 . S
C3524 H3549 0.950 1_455 S
C3525 C3524 1.349 . S
C3525 C3541 1.349 . S
C3526 C3524 1.327 . S
C3526 C3545 1.429 . S
C3526 H3550 0.950 1_455 S
C3527 C3544 1.574 . S
C3527 C3546 1.368 . S
C3527 H3551 0.949 . S
H3528 C3532 0.899 1_655 S
C3529 C3530 1.349 . S
C3529 C3531 1.327 . S
C3529 H3552 0.950 . S
C3530 C3529 1.349 . S
C3530 C3542 1.349 . S
C3531 C3529 1.327 . S
C3531 C3547 1.429 . S
C3531 H3553 0.950 . S
C3532 H3528 0.899 1_455 S
C3532 C3540 1.586 . S
C3532 C3548 1.413 . S
H3533 C3541 0.950 . S
H3534 C3539 0.950 . S
H3535 C3540 0.949 1_655 S
H3536 C3542 0.950 1_655 S
H3537 C3543 0.950 1_655 S
H3538 C3544 0.949 . S
C3539 H3534 0.950 . S
C3539 C3541 1.327 . S
C3539 C3545 1.429 . S
C3540 C3532 1.586 . S
C3540 H3535 0.949 1_455 S
C3540 C3546 1.368 . S
C3541 C3525 1.349 . S
C3541 H3533 0.950 . S
C3541 C3539 1.327 . S
C3542 C3530 1.349 . S
C3542 H3536 0.950 1_455 S
C3542 C3543 1.327 . S
C3543 H3537 0.950 1_455 S
C3543 C3542 1.327 . S
C3543 C3547 1.429 . S
C3544 C3527 1.574 . S
C3544 H3538 0.949 . S
C3544 C3548 1.368 . S
C3545 C3526 1.429 . S
C3545 C3539 1.429 . S
C3545 C3546 1.523 . S
C3546 C3527 1.368 . S
C3546 C3540 1.368 . S
C3546 C3545 1.523 . S
C3547 C3531 1.429 . S
C3547 C3543 1.429 . S
C3547 C3548 1.523 . S
C3548 C3532 1.413 . S
C3548 C3544 1.368 . S
C3548 C3547 1.523 . S
H3549 C3524 0.950 1_655 S
H3550 C3526 0.950 1_655 S
H3551 C3527 0.949 . S
H3552 C3529 0.950 . S
H3553 C3531 0.950 . S
C3554 C3555 1.349 . S
C3554 C3556 1.327 . S
C3554 H3579 0.950 . S
C3555 C3554 1.349 . S
C3555 C3571 1.349 . S
C3556 C3554 1.327 . S
C3556 C3575 1.429 . S
C3556 H3580 0.950 . S
C3557 C3574 1.574 . S
C3557 C3576 1.368 . S
C3557 H3581 0.949 . S
H3558 C3562 0.949 . S
C3559 C3560 1.349 . S
C3559 C3561 1.327 . S
C3559 H3582 0.950 . S
C3560 C3559 1.349 . S
C3560 C3572 1.349 . S
C3561 C3559 1.327 . S
C3561 C3577 1.429 . S
C3561 H3583 0.950 . S
C3562 H3558 0.949 . S
C3562 C3570 1.574 . S
C3562 C3578 1.368 . S
H3563 C3571 0.950 . S
H3564 C3569 0.950 . S
H3565 C3570 0.949 . S
H3566 C3572 0.950 . S
H3567 C3573 0.950 . S
H3568 C3574 0.949 . S
C3569 H3564 0.950 . S
C3569 C3571 1.327 . S
C3569 C3575 1.429 . S
C3570 C3562 1.574 . S
C3570 H3565 0.949 . S
C3570 C3576 1.368 . S
C3571 C3555 1.349 . S
C3571 H3563 0.950 . S
C3571 C3569 1.327 . S
C3572 C3560 1.349 . S
C3572 H3566 0.950 . S
C3572 C3573 1.327 . S
C3573 H3567 0.950 . S
C3573 C3572 1.327 . S
C3573 C3577 1.429 . S
C3574 C3557 1.574 . S
C3574 H3568 0.949 . S
C3574 C3578 1.368 . S
C3575 C3556 1.429 . S
C3575 C3569 1.429 . S
C3575 C3576 1.523 . S
C3576 C3557 1.368 . S
C3576 C3570 1.368 . S
C3576 C3575 1.523 . S
C3577 C3561 1.429 . S
C3577 C3573 1.429 . S
C3577 C3578 1.523 . S
C3578 C3562 1.368 . S
C3578 C3574 1.368 . S
C3578 C3577 1.523 . S
H3579 C3554 0.950 . S
H3580 C3556 0.950 . S
H3581 C3557 0.949 . S
H3582 C3559 0.950 . S
H3583 C3561 0.950 . S
C3584 C3585 1.349 . S
C3584 C3586 1.327 . S
C3584 H3609 0.950 . S
C3585 C3584 1.349 . S
C3585 C3601 1.349 . S
C3586 C3584 1.327 . S
C3586 C3605 1.429 . S
C3586 H3610 0.950 . S
C3587 C3604 1.574 . S
C3587 C3606 1.368 . S
C3587 H3611 0.949 . S
H3588 C3592 0.949 . S
C3589 C3590 1.349 . S
C3589 C3591 1.327 . S
C3589 H3612 0.950 . S
C3590 C3589 1.349 . S
C3590 C3602 1.349 . S
C3591 C3589 1.327 . S
C3591 C3607 1.429 . S
C3591 H3613 0.950 . S
C3592 H3588 0.949 . S
C3592 C3600 1.574 . S
C3592 C3608 1.368 . S
H3593 C3601 0.950 . S
H3594 C3599 0.950 . S
H3595 C3600 0.949 . S
H3596 C3602 0.950 . S
H3597 C3603 0.950 . S
H3598 C3604 0.949 . S
C3599 H3594 0.950 . S
C3599 C3601 1.327 . S
C3599 C3605 1.429 . S
C3600 C3592 1.574 . S
C3600 H3595 0.949 . S
C3600 C3606 1.368 . S
C3601 C3585 1.349 . S
C3601 H3593 0.950 . S
C3601 C3599 1.327 . S
C3602 C3590 1.349 . S
C3602 H3596 0.950 . S
C3602 C3603 1.327 . S
C3603 H3597 0.950 . S
C3603 C3602 1.327 . S
C3603 C3607 1.429 . S
C3604 C3587 1.574 . S
C3604 H3598 0.949 . S
C3604 C3608 1.368 . S
C3605 C3586 1.429 . S
C3605 C3599 1.429 . S
C3605 C3606 1.523 . S
C3606 C3587 1.368 . S
C3606 C3600 1.368 . S
C3606 C3605 1.523 . S
C3607 C3591 1.429 . S
C3607 C3603 1.429 . S
C3607 C3608 1.523 . S
C3608 C3592 1.368 . S
C3608 C3604 1.368 . S
C3608 C3607 1.523 . S
H3609 C3584 0.950 . S
H3610 C3586 0.950 . S
H3611 C3587 0.949 . S
H3612 C3589 0.950 . S
H3613 C3591 0.950 . S
C3614 C3615 1.349 . S
C3614 C3616 1.327 . S
C3614 H3639 0.950 . S
C3615 C3614 1.349 . S
C3615 C3631 1.349 . S
C3616 C3614 1.327 . S
C3616 C3635 1.429 . S
C3616 H3640 0.950 . S
C3617 C3634 1.574 . S
C3617 C3636 1.368 . S
C3617 H3641 0.949 . S
H3618 C3622 0.949 . S
C3619 C3620 1.349 . S
C3619 C3621 1.327 . S
C3619 H3642 0.950 . S
C3620 C3619 1.349 . S
C3620 C3632 1.349 . S
C3621 C3619 1.327 . S
C3621 C3637 1.429 . S
C3621 H3643 0.950 . S
C3622 H3618 0.949 . S
C3622 C3630 1.574 . S
C3622 C3638 1.368 . S
H3623 C3631 0.950 . S
H3624 C3629 0.950 . S
H3625 C3630 0.949 . S
H3626 C3632 0.950 . S
H3627 C3633 0.950 . S
H3628 C3634 0.949 . S
C3629 H3624 0.950 . S
C3629 C3631 1.327 . S
C3629 C3635 1.429 . S
C3630 C3622 1.574 . S
C3630 H3625 0.949 . S
C3630 C3636 1.368 . S
C3631 C3615 1.349 . S
C3631 H3623 0.950 . S
C3631 C3629 1.327 . S
C3632 C3620 1.349 . S
C3632 H3626 0.950 . S
C3632 C3633 1.327 . S
C3633 H3627 0.950 . S
C3633 C3632 1.327 . S
C3633 C3637 1.429 . S
C3634 C3617 1.574 . S
C3634 H3628 0.949 . S
C3634 C3638 1.368 . S
C3635 C3616 1.429 . S
C3635 C3629 1.429 . S
C3635 C3636 1.523 . S
C3636 C3617 1.368 . S
C3636 C3630 1.368 . S
C3636 C3635 1.523 . S
C3637 C3621 1.429 . S
C3637 C3633 1.429 . S
C3637 C3638 1.523 . S
C3638 C3622 1.368 . S
C3638 C3634 1.368 . S
C3638 C3637 1.523 . S
H3639 C3614 0.950 . S
H3640 C3616 0.950 . S
H3641 C3617 0.949 . S
H3642 C3619 0.950 . S
H3643 C3621 0.950 . S
C3644 C3645 1.349 . S
C3644 C3646 1.327 . S
C3644 H3669 0.950 . S
C3645 C3644 1.349 . S
C3645 C3661 1.349 . S
C3646 C3644 1.327 . S
C3646 C3665 1.429 . S
C3646 H3670 0.950 . S
C3647 C3664 1.574 . S
C3647 C3666 1.368 . S
C3647 H3671 0.949 . S
H3648 C3652 0.949 . S
C3649 C3650 1.349 . S
C3649 C3651 1.327 . S
C3649 H3672 0.950 . S
C3650 C3649 1.349 . S
C3650 C3662 1.349 . S
C3651 C3649 1.327 . S
C3651 C3667 1.429 . S
C3651 H3673 0.950 . S
C3652 H3648 0.949 . S
C3652 C3660 1.574 . S
C3652 C3668 1.368 . S
H3653 C3661 0.950 . S
H3654 C3659 0.950 . S
H3655 C3660 0.949 . S
H3656 C3662 0.950 1_455 S
H3657 C3663 0.950 . S
H3658 C3664 0.949 . S
C3659 H3654 0.950 . S
C3659 C3661 1.327 . S
C3659 C3665 1.429 . S
C3660 C3652 1.574 . S
C3660 H3655 0.949 . S
C3660 C3666 1.368 . S
C3661 C3645 1.349 . S
C3661 H3653 0.950 . S
C3661 C3659 1.327 . S
C3662 C3650 1.349 . S
C3662 H3656 0.950 1_655 S
C3662 C3663 1.327 . S
C3663 H3657 0.950 . S
C3663 C3662 1.327 . S
C3663 C3667 1.429 . S
C3664 C3647 1.574 . S
C3664 H3658 0.949 . S
C3664 C3668 1.368 . S
C3665 C3646 1.429 . S
C3665 C3659 1.429 . S
C3665 C3666 1.523 . S
C3666 C3647 1.368 . S
C3666 C3660 1.368 . S
C3666 C3665 1.523 . S
C3667 C3651 1.429 . S
C3667 C3663 1.429 . S
C3667 C3668 1.523 . S
C3668 C3652 1.368 . S
C3668 C3664 1.368 . S
C3668 C3667 1.523 . S
H3669 C3644 0.950 . S
H3670 C3646 0.950 . S
H3671 C3647 0.949 . S
H3672 C3649 0.950 . S
H3673 C3651 0.950 . S
C3674 C3675 1.349 . S
C3674 C3676 1.327 . S
C3674 H3699 0.950 . S
C3675 C3674 1.349 . S
C3675 C3691 1.349 . S
C3676 C3674 1.327 . S
C3676 C3695 1.429 . S
C3676 H3700 0.950 . S
C3677 C3694 1.574 . S
C3677 C3696 1.368 . S
C3677 H3701 0.949 . S
H3678 C3682 0.949 . S
C3679 C3680 1.349 . S
C3679 C3681 1.327 . S
C3679 H3702 0.950 . S
C3680 C3679 1.349 . S
C3680 C3692 1.349 . S
C3681 C3679 1.327 . S
C3681 C3697 1.429 . S
C3681 H3703 0.950 . S
C3682 H3678 0.949 . S
C3682 C3690 1.574 . S
C3682 C3698 1.368 . S
H3683 C3691 0.950 . S
H3684 C3689 0.950 . S
H3685 C3690 0.949 . S
H3686 C3692 0.950 . S
H3687 C3693 0.950 . S
H3688 C3694 0.949 . S
C3689 H3684 0.950 . S
C3689 C3691 1.327 . S
C3689 C3695 1.429 . S
C3690 C3682 1.574 . S
C3690 H3685 0.949 . S
C3690 C3696 1.368 . S
C3691 C3675 1.349 . S
C3691 H3683 0.950 . S
C3691 C3689 1.327 . S
C3692 C3680 1.349 . S
C3692 H3686 0.950 . S
C3692 C3693 1.327 . S
C3693 H3687 0.950 . S
C3693 C3692 1.327 . S
C3693 C3697 1.429 . S
C3694 C3677 1.574 . S
C3694 H3688 0.949 . S
C3694 C3698 1.368 . S
C3695 C3676 1.429 . S
C3695 C3689 1.429 . S
C3695 C3696 1.523 . S
C3696 C3677 1.368 . S
C3696 C3690 1.368 . S
C3696 C3695 1.523 . S
C3697 C3681 1.429 . S
C3697 C3693 1.429 . S
C3697 C3698 1.523 . S
C3698 C3682 1.368 . S
C3698 C3694 1.368 . S
C3698 C3697 1.523 . S
H3699 C3674 0.950 . S
H3700 C3676 0.950 . S
H3701 C3677 0.949 . S
H3702 C3679 0.950 . S
H3703 C3681 0.950 . S
C3704 C3705 1.349 . S
C3704 C3706 1.327 . S
C3704 H3729 0.950 . S
C3705 C3704 1.349 . S
C3705 C3721 1.349 . S
C3706 C3704 1.327 . S
C3706 C3725 1.429 . S
C3706 H3730 0.950 . S
C3707 C3724 1.574 . S
C3707 C3726 1.368 . S
C3707 H3731 0.949 . S
H3708 C3712 0.949 . S
C3709 C3710 1.349 . S
C3709 C3711 1.327 . S
C3709 H3732 0.950 . S
C3710 C3709 1.349 . S
C3710 C3722 1.349 . S
C3711 C3709 1.327 . S
C3711 C3727 1.429 . S
C3711 H3733 0.950 . S
C3712 H3708 0.949 . S
C3712 C3720 1.574 . S
C3712 C3728 1.368 . S
H3713 C3721 0.950 . S
H3714 C3719 0.950 . S
H3715 C3720 0.949 . S
H3716 C3722 0.950 . S
H3717 C3723 0.950 . S
H3718 C3724 0.949 . S
C3719 H3714 0.950 . S
C3719 C3721 1.327 . S
C3719 C3725 1.429 . S
C3720 C3712 1.574 . S
C3720 H3715 0.949 . S
C3720 C3726 1.368 . S
C3721 C3705 1.349 . S
C3721 H3713 0.950 . S
C3721 C3719 1.327 . S
C3722 C3710 1.349 . S
C3722 H3716 0.950 . S
C3722 C3723 1.327 . S
C3723 H3717 0.950 . S
C3723 C3722 1.327 . S
C3723 C3727 1.429 . S
C3724 C3707 1.574 . S
C3724 H3718 0.949 . S
C3724 C3728 1.368 . S
C3725 C3706 1.429 . S
C3725 C3719 1.429 . S
C3725 C3726 1.523 . S
C3726 C3707 1.368 . S
C3726 C3720 1.368 . S
C3726 C3725 1.523 . S
C3727 C3711 1.429 . S
C3727 C3723 1.429 . S
C3727 C3728 1.523 . S
C3728 C3712 1.368 . S
C3728 C3724 1.368 . S
C3728 C3727 1.523 . S
H3729 C3704 0.950 . S
H3730 C3706 0.950 . S
H3731 C3707 0.949 . S
H3732 C3709 0.950 . S
H3733 C3711 0.950 . S
C3734 C3735 1.349 . S
C3734 C3736 1.327 . S
C3734 H3759 0.950 . S
C3735 C3734 1.349 . S
C3735 C3751 1.349 . S
C3736 C3734 1.327 . S
C3736 C3755 1.429 . S
C3736 H3760 0.950 . S
C3737 C3754 1.574 . S
C3737 C3756 1.368 . S
C3737 H3761 0.949 . S
H3738 C3742 0.949 . S
C3739 C3740 1.349 . S
C3739 C3741 1.327 . S
C3739 H3762 0.950 . S
C3740 C3739 1.349 . S
C3740 C3752 1.349 . S
C3741 C3739 1.327 . S
C3741 C3757 1.429 . S
C3741 H3763 0.950 . S
C3742 H3738 0.949 . S
C3742 C3750 1.574 . S
C3742 C3758 1.368 . S
H3743 C3751 0.950 . S
H3744 C3749 0.950 . S
H3745 C3750 0.949 . S
H3746 C3752 0.950 . S
H3747 C3753 0.950 . S
H3748 C3754 0.949 . S
C3749 H3744 0.950 . S
C3749 C3751 1.327 . S
C3749 C3755 1.429 . S
C3750 C3742 1.574 . S
C3750 H3745 0.949 . S
C3750 C3756 1.368 . S
C3751 C3735 1.349 . S
C3751 H3743 0.950 . S
C3751 C3749 1.327 . S
C3752 C3740 1.349 . S
C3752 H3746 0.950 . S
C3752 C3753 1.327 . S
C3753 H3747 0.950 . S
C3753 C3752 1.327 . S
C3753 C3757 1.429 . S
C3754 C3737 1.574 . S
C3754 H3748 0.949 . S
C3754 C3758 1.368 . S
C3755 C3736 1.429 . S
C3755 C3749 1.429 . S
C3755 C3756 1.523 . S
C3756 C3737 1.368 . S
C3756 C3750 1.368 . S
C3756 C3755 1.523 . S
C3757 C3741 1.429 . S
C3757 C3753 1.429 . S
C3757 C3758 1.523 . S
C3758 C3742 1.368 . S
C3758 C3754 1.368 . S
C3758 C3757 1.523 . S
H3759 C3734 0.950 . S
H3760 C3736 0.950 . S
H3761 C3737 0.949 . S
H3762 C3739 0.950 . S
H3763 C3741 0.950 . S
C3764 C3765 1.349 . S
C3764 C3766 1.327 . S
C3764 H3789 0.950 . S
C3765 C3764 1.349 . S
C3765 C3781 1.349 . S
C3766 C3764 1.327 . S
C3766 C3785 1.429 . S
C3766 H3790 0.950 . S
C3767 C3784 1.574 . S
C3767 C3786 1.368 . S
C3767 H3791 0.949 . S
H3768 C3772 0.949 . S
C3769 C3770 1.349 . S
C3769 C3771 1.327 . S
C3769 H3792 0.950 1_655 S
C3770 C3769 1.349 . S
C3770 C3782 1.349 . S
C3771 C3769 1.327 . S
C3771 C3787 1.429 . S
C3771 H3793 0.950 . S
C3772 H3768 0.949 . S
C3772 C3780 1.574 . S
C3772 C3788 1.368 . S
H3773 C3781 0.950 . S
H3774 C3779 0.950 . S
H3775 C3780 0.949 . S
H3776 C3782 0.950 . S
H3777 C3783 0.950 . S
H3778 C3784 0.949 . S
C3779 H3774 0.950 . S
C3779 C3781 1.327 . S
C3779 C3785 1.429 . S
C3780 C3772 1.574 . S
C3780 H3775 0.949 . S
C3780 C3786 1.368 . S
C3781 C3765 1.349 . S
C3781 H3773 0.950 . S
C3781 C3779 1.327 . S
C3782 C3770 1.349 . S
C3782 H3776 0.950 . S
C3782 C3783 1.327 . S
C3783 H3777 0.950 . S
C3783 C3782 1.327 . S
C3783 C3787 1.429 . S
C3784 C3767 1.574 . S
C3784 H3778 0.949 . S
C3784 C3788 1.368 . S
C3785 C3766 1.429 . S
C3785 C3779 1.429 . S
C3785 C3786 1.523 . S
C3786 C3767 1.368 . S
C3786 C3780 1.368 . S
C3786 C3785 1.523 . S
C3787 C3771 1.429 . S
C3787 C3783 1.429 . S
C3787 C3788 1.523 . S
C3788 C3772 1.368 . S
C3788 C3784 1.368 . S
C3788 C3787 1.523 . S
H3789 C3764 0.950 . S
H3790 C3766 0.950 . S
H3791 C3767 0.949 . S
H3792 C3769 0.950 1_455 S
H3793 C3771 0.950 . S
C3794 C3795 1.349 . S
C3794 C3796 1.327 . S
C3794 H3819 0.950 . S
C3795 C3794 1.349 . S
C3795 C3811 1.349 . S
C3796 C3794 1.327 . S
C3796 C3815 1.429 . S
C3796 H3820 0.950 . S
C3797 C3814 1.574 . S
C3797 C3816 1.368 . S
C3797 H3821 0.949 . S
H3798 C3802 0.949 . S
C3799 C3800 1.349 . S
C3799 C3801 1.327 . S
C3799 H3822 0.950 . S
C3800 C3799 1.349 . S
C3800 C3812 1.349 . S
C3801 C3799 1.327 . S
C3801 C3817 1.429 . S
C3801 H3823 0.950 . S
C3802 H3798 0.949 . S
C3802 C3810 1.574 . S
C3802 C3818 1.368 . S
H3803 C3811 0.950 . S
H3804 C3809 0.950 . S
H3805 C3810 0.949 . S
H3806 C3812 0.950 . S
H3807 C3813 0.950 . S
H3808 C3814 0.949 . S
C3809 H3804 0.950 . S
C3809 C3811 1.327 . S
C3809 C3815 1.429 . S
C3810 C3802 1.574 . S
C3810 H3805 0.949 . S
C3810 C3816 1.368 . S
C3811 C3795 1.349 . S
C3811 H3803 0.950 . S
C3811 C3809 1.327 . S
C3812 C3800 1.349 . S
C3812 H3806 0.950 . S
C3812 C3813 1.327 . S
C3813 H3807 0.950 . S
C3813 C3812 1.327 . S
C3813 C3817 1.429 . S
C3814 C3797 1.574 . S
C3814 H3808 0.949 . S
C3814 C3818 1.368 . S
C3815 C3796 1.429 . S
C3815 C3809 1.429 . S
C3815 C3816 1.523 . S
C3816 C3797 1.368 . S
C3816 C3810 1.368 . S
C3816 C3815 1.523 . S
C3817 C3801 1.429 . S
C3817 C3813 1.429 . S
C3817 C3818 1.523 . S
C3818 C3802 1.368 . S
C3818 C3814 1.368 . S
C3818 C3817 1.523 . S
H3819 C3794 0.950 . S
H3820 C3796 0.950 . S
H3821 C3797 0.949 . S
H3822 C3799 0.950 . S
H3823 C3801 0.950 . S
C3824 C3825 1.349 . S
C3824 C3826 1.327 . S
C3824 H3849 0.950 . S
C3825 C3824 1.349 . S
C3825 C3841 1.349 . S
C3826 C3824 1.327 . S
C3826 C3845 1.429 . S
C3826 H3850 0.950 . S
C3827 C3844 1.574 . S
C3827 C3846 1.368 . S
C3827 H3851 0.949 . S
H3828 C3832 0.949 . S
C3829 C3830 1.349 . S
C3829 C3831 1.327 . S
C3829 H3852 0.950 . S
C3830 C3829 1.349 . S
C3830 C3842 1.349 . S
C3831 C3829 1.327 . S
C3831 C3847 1.429 . S
C3831 H3853 0.950 . S
C3832 H3828 0.949 . S
C3832 C3840 1.574 . S
C3832 C3848 1.368 . S
H3833 C3841 0.950 . S
H3834 C3839 0.950 . S
H3835 C3840 0.949 . S
H3836 C3842 0.950 . S
H3837 C3843 0.950 . S
H3838 C3844 0.949 . S
C3839 H3834 0.950 . S
C3839 C3841 1.327 . S
C3839 C3845 1.429 . S
C3840 C3832 1.574 . S
C3840 H3835 0.949 . S
C3840 C3846 1.368 . S
C3841 C3825 1.349 . S
C3841 H3833 0.950 . S
C3841 C3839 1.327 . S
C3842 C3830 1.349 . S
C3842 H3836 0.950 . S
C3842 C3843 1.327 . S
C3843 H3837 0.950 . S
C3843 C3842 1.327 . S
C3843 C3847 1.429 . S
C3844 C3827 1.574 . S
C3844 H3838 0.949 . S
C3844 C3848 1.368 . S
C3845 C3826 1.429 . S
C3845 C3839 1.429 . S
C3845 C3846 1.523 . S
C3846 C3827 1.368 . S
C3846 C3840 1.368 . S
C3846 C3845 1.523 . S
C3847 C3831 1.429 . S
C3847 C3843 1.429 . S
C3847 C3848 1.523 . S
C3848 C3832 1.368 . S
C3848 C3844 1.368 . S
C3848 C3847 1.523 . S
H3849 C3824 0.950 . S
H3850 C3826 0.950 . S
H3851 C3827 0.949 . S
H3852 C3829 0.950 . S
H3853 C3831 0.950 . S
C3854 C3855 1.349 . S
C3854 C3856 1.327 . S
C3854 H3879 0.950 . S
C3855 C3854 1.349 . S
C3855 C3871 1.349 . S
C3856 C3854 1.327 . S
C3856 C3875 1.429 . S
C3856 H3880 0.950 . S
C3857 C3874 1.574 . S
C3857 C3876 1.368 . S
C3857 H3881 0.949 . S
H3858 C3862 0.949 . S
C3859 C3860 1.349 . S
C3859 C3861 1.327 1_545 S
C3859 H3882 0.950 . S
C3860 C3859 1.349 . S
C3860 C3872 1.349 1_545 S
C3861 C3859 1.327 1_565 S
C3861 C3877 1.429 . S
C3861 H3883 0.950 . S
C3862 H3858 0.949 . S
C3862 C3870 1.574 . S
C3862 C3878 1.368 . S
H3863 C3871 0.950 . S
H3864 C3869 0.950 . S
H3865 C3870 0.949 . S
H3866 C3872 0.950 . S
H3867 C3873 0.950 . S
H3868 C3874 0.949 . S
C3869 H3864 0.950 . S
C3869 C3871 1.327 . S
C3869 C3875 1.429 . S
C3870 C3862 1.574 . S
C3870 H3865 0.949 . S
C3870 C3876 1.368 . S
C3871 C3855 1.349 . S
C3871 H3863 0.950 . S
C3871 C3869 1.327 . S
C3872 C3860 1.349 1_565 S
C3872 H3866 0.950 . S
C3872 C3873 1.327 . S
C3873 H3867 0.950 . S
C3873 C3872 1.327 . S
C3873 C3877 1.429 . S
C3874 C3857 1.574 . S
C3874 H3868 0.949 . S
C3874 C3878 1.368 . S
C3875 C3856 1.429 . S
C3875 C3869 1.429 . S
C3875 C3876 1.523 . S
C3876 C3857 1.368 . S
C3876 C3870 1.368 . S
C3876 C3875 1.523 . S
C3877 C3861 1.429 . S
C3877 C3873 1.429 . S
C3877 C3878 1.523 . S
C3878 C3862 1.368 . S
C3878 C3874 1.368 . S
C3878 C3877 1.523 . S
H3879 C3854 0.950 . S
H3880 C3856 0.950 . S
H3881 C3857 0.949 . S
H3882 C3859 0.950 . S
H3883 C3861 0.950 . S
C3884 C3885 1.349 . S
C3884 C3886 1.327 . S
C3884 H3909 0.950 . S
C3885 C3884 1.349 . S
C3885 C3901 1.349 . S
C3886 C3884 1.327 . S
C3886 C3905 1.429 . S
C3886 H3910 0.950 . S
C3887 C3904 1.574 . S
C3887 C3906 1.368 . S
C3887 H3911 0.949 . S
H3888 C3892 0.949 . S
C3889 C3890 1.349 . S
C3889 C3891 1.327 . S
C3889 H3912 0.950 . S
C3890 C3889 1.349 . S
C3890 C3902 1.349 . S
C3891 C3889 1.327 . S
C3891 C3907 1.429 . S
C3891 H3913 0.950 . S
C3892 H3888 0.949 . S
C3892 C3900 1.574 . S
C3892 C3908 1.368 . S
H3893 C3901 0.950 . S
H3894 C3899 0.950 . S
H3895 C3900 0.949 . S
H3896 C3902 0.950 . S
H3897 C3903 0.950 . S
H3898 C3904 0.949 . S
C3899 H3894 0.950 . S
C3899 C3901 1.327 . S
C3899 C3905 1.429 . S
C3900 C3892 1.574 . S
C3900 H3895 0.949 . S
C3900 C3906 1.368 . S
C3901 C3885 1.349 . S
C3901 H3893 0.950 . S
C3901 C3899 1.327 . S
C3902 C3890 1.349 . S
C3902 H3896 0.950 . S
C3902 C3903 1.327 . S
C3903 H3897 0.950 . S
C3903 C3902 1.327 . S
C3903 C3907 1.429 . S
C3904 C3887 1.574 . S
C3904 H3898 0.949 . S
C3904 C3908 1.368 . S
C3905 C3886 1.429 . S
C3905 C3899 1.429 . S
C3905 C3906 1.523 . S
C3906 C3887 1.368 . S
C3906 C3900 1.368 . S
C3906 C3905 1.523 . S
C3907 C3891 1.429 . S
C3907 C3903 1.429 . S
C3907 C3908 1.523 . S
C3908 C3892 1.368 . S
C3908 C3904 1.368 . S
C3908 C3907 1.523 . S
H3909 C3884 0.950 . S
H3910 C3886 0.950 . S
H3911 C3887 0.949 . S
H3912 C3889 0.950 . S
H3913 C3891 0.950 . S
C3914 C3915 1.349 1_554 S
C3914 C3916 1.327 . S
C3914 H3939 0.950 . S
C3915 C3914 1.349 1_556 S
C3915 C3931 1.349 . S
C3916 C3914 1.327 . S
C3916 C3935 1.454 . S
C3916 H3940 0.950 . S
C3917 C3934 1.574 . S
C3917 C3936 1.368 1_556 S
C3917 H3941 0.949 . S
H3918 C3922 0.949 . S
C3919 C3920 1.349 1_556 S
C3919 C3921 1.327 . S
C3919 H3942 0.950 . S
C3920 C3919 1.349 1_554 S
C3920 C3932 1.349 . S
C3921 C3919 1.327 . S
C3921 C3937 1.429 1_556 S
C3921 H3943 0.950 . S
C3922 H3918 0.949 . S
C3922 C3930 1.574 . S
C3922 C3938 1.368 . S
H3923 C3931 0.950 . S
H3924 C3929 0.950 . S
H3925 C3930 0.949 . S
H3926 C3932 0.950 . S
H3927 C3933 0.950 . S
H3928 C3934 0.949 . S
C3929 H3924 0.950 . S
C3929 C3931 1.327 . S
C3929 C3935 1.395 1_556 S
C3930 C3922 1.574 . S
C3930 H3925 0.949 . S
C3930 C3936 1.368 . S
C3931 C3915 1.349 . S
C3931 H3923 0.950 . S
C3931 C3929 1.327 . S
C3932 C3920 1.349 . S
C3932 H3926 0.950 . S
C3932 C3933 1.327 . S
C3933 H3927 0.950 . S
C3933 C3932 1.327 . S
C3933 C3937 1.429 . S
C3934 C3917 1.574 . S
C3934 H3928 0.949 . S
C3934 C3938 1.368 1_556 S
C3935 C3916 1.454 . S
C3935 C3929 1.395 1_554 S
C3935 C3936 1.534 . S
C3936 C3917 1.368 1_554 S
C3936 C3930 1.368 . S
C3936 C3935 1.534 . S
C3937 C3921 1.429 1_554 S
C3937 C3933 1.429 . S
C3937 C3938 1.523 . S
C3938 C3922 1.368 . S
C3938 C3934 1.368 1_554 S
C3938 C3937 1.523 . S
H3939 C3914 0.950 . S
H3940 C3916 0.950 . S
H3941 C3917 0.949 . S
H3942 C3919 0.950 . S
H3943 C3921 0.950 . S
C3944 C3945 1.349 . S
C3944 C3946 1.327 . S
C3944 H3969 0.950 . S
C3945 C3944 1.349 . S
C3945 C3961 1.349 . S
C3946 C3944 1.327 . S
C3946 C3965 1.429 . S
C3946 H3970 0.950 . S
C3947 C3964 1.574 . S
C3947 C3966 1.368 . S
C3947 H3971 0.949 . S
H3948 C3952 0.949 . S
C3949 C3950 1.349 . S
C3949 C3951 1.327 . S
C3949 H3972 0.950 . S
C3950 C3949 1.349 . S
C3950 C3962 1.349 . S
C3951 C3949 1.327 . S
C3951 C3967 1.429 . S
C3951 H3973 0.950 . S
C3952 H3948 0.949 . S
C3952 C3960 1.574 . S
C3952 C3968 1.368 . S
H3953 C3961 0.950 . S
H3954 C3959 0.950 . S
H3955 C3960 0.949 . S
H3956 C3962 0.950 . S
H3957 C3963 0.950 . S
H3958 C3964 0.949 . S
C3959 H3954 0.950 . S
C3959 C3961 1.327 . S
C3959 C3965 1.429 . S
C3960 C3952 1.574 . S
C3960 H3955 0.949 . S
C3960 C3966 1.368 . S
C3961 C3945 1.349 . S
C3961 H3953 0.950 . S
C3961 C3959 1.327 . S
C3962 C3950 1.349 . S
C3962 H3956 0.950 . S
C3962 C3963 1.327 . S
C3963 H3957 0.950 . S
C3963 C3962 1.327 . S
C3963 C3967 1.429 . S
C3964 C3947 1.574 . S
C3964 H3958 0.949 . S
C3964 C3968 1.368 . S
C3965 C3946 1.429 . S
C3965 C3959 1.429 . S
C3965 C3966 1.523 . S
C3966 C3947 1.368 . S
C3966 C3960 1.368 . S
C3966 C3965 1.523 . S
C3967 C3951 1.429 . S
C3967 C3963 1.429 . S
C3967 C3968 1.523 . S
C3968 C3952 1.368 . S
C3968 C3964 1.368 . S
C3968 C3967 1.523 . S
H3969 C3944 0.950 . S
H3970 C3946 0.950 . S
H3971 C3947 0.949 . S
H3972 C3949 0.950 . S
H3973 C3951 0.950 . S
C3974 C3975 1.349 1_556 S
C3974 C3976 1.327 . S
C3974 H3999 0.950 . S
C3975 C3974 1.349 1_554 S
C3975 C3991 1.349 . S
C3976 C3974 1.327 . S
C3976 C3995 1.429 1_556 S
C3976 H4000 0.950 . S
C3977 C3994 1.574 . S
C3977 C3996 1.368 . S
C3977 H4001 0.949 . S
H3978 C3982 0.949 . S
C3979 C3980 1.349 1_554 S
C3979 C3981 1.327 . S
C3979 H4002 0.950 . S
C3980 C3979 1.349 1_556 S
C3980 C3992 1.349 . S
C3981 C3979 1.327 . S
C3981 C3997 1.422 1_554 S
C3981 H4003 0.950 . S
C3982 H3978 0.949 . S
C3982 C3990 1.574 . S
C3982 C3998 1.368 1_556 S
H3983 C3991 0.950 . S
H3984 C3989 0.950 . S
H3985 C3990 0.949 . S
H3986 C3992 0.950 . S
H3987 C3993 0.950 . S
H3988 C3994 0.949 . S
C3989 H3984 0.950 . S
C3989 C3991 1.327 . S
C3989 C3995 1.429 . S
C3990 C3982 1.574 . S
C3990 H3985 0.949 . S
C3990 C3996 1.368 1_556 S
C3991 C3975 1.349 . S
C3991 H3983 0.950 . S
C3991 C3989 1.327 . S
C3992 C3980 1.349 . S
C3992 H3986 0.950 . S
C3992 C3993 1.327 . S
C3993 H3987 0.950 . S
C3993 C3992 1.327 . S
C3993 C3997 1.437 . S
C3994 C3977 1.574 . S
C3994 H3988 0.949 . S
C3994 C3998 1.368 . S
C3995 C3976 1.429 1_554 S
C3995 C3989 1.429 . S
C3995 C3996 1.523 . S
C3996 C3977 1.368 . S
C3996 C3990 1.368 1_554 S
C3996 C3995 1.523 . S
C3997 C3981 1.422 1_556 S
C3997 C3993 1.437 . S
C3997 C3998 1.522 1_556 S
C3998 C3982 1.368 1_554 S
C3998 C3994 1.368 . S
C3998 C3997 1.522 1_554 S
H3999 C3974 0.950 . S
H4000 C3976 0.950 . S
H4001 C3977 0.949 . S
H4002 C3979 0.950 . S
H4003 C3981 0.950 . S
C4004 C4005 1.349 . S
C4004 C4006 1.327 . S
C4004 H4029 0.950 . S
C4005 C4004 1.349 . S
C4005 C4021 1.349 . S
C4006 C4004 1.327 . S
C4006 C4025 1.429 . S
C4006 H4030 0.950 . S
C4007 C4024 1.574 . S
C4007 C4026 1.368 . S
C4007 H4031 0.949 . S
H4008 C4012 0.949 . S
C4009 C4010 1.349 . S
C4009 C4011 1.327 . S
C4009 H4032 0.950 . S
C4010 C4009 1.349 . S
C4010 C4022 1.349 . S
C4011 C4009 1.327 . S
C4011 C4027 1.429 . S
C4011 H4033 0.950 . S
C4012 H4008 0.949 . S
C4012 C4020 1.574 . S
C4012 C4028 1.368 . S
H4013 C4021 0.950 . S
H4014 C4019 0.950 . S
H4015 C4020 0.949 . S
H4016 C4022 0.950 . S
H4017 C4023 0.950 . S
H4018 C4024 0.949 . S
C4019 H4014 0.950 . S
C4019 C4021 1.327 . S
C4019 C4025 1.429 . S
C4020 C4012 1.574 . S
C4020 H4015 0.949 . S
C4020 C4026 1.368 . S
C4021 C4005 1.349 . S
C4021 H4013 0.950 . S
C4021 C4019 1.327 . S
C4022 C4010 1.349 . S
C4022 H4016 0.950 . S
C4022 C4023 1.327 . S
C4023 H4017 0.950 . S
C4023 C4022 1.327 . S
C4023 C4027 1.429 . S
C4024 C4007 1.574 . S
C4024 H4018 0.949 . S
C4024 C4028 1.368 . S
C4025 C4006 1.429 . S
C4025 C4019 1.429 . S
C4025 C4026 1.523 . S
C4026 C4007 1.368 . S
C4026 C4020 1.368 . S
C4026 C4025 1.523 . S
C4027 C4011 1.429 . S
C4027 C4023 1.429 . S
C4027 C4028 1.523 . S
C4028 C4012 1.368 . S
C4028 C4024 1.368 . S
C4028 C4027 1.523 . S
H4029 C4004 0.950 . S
H4030 C4006 0.950 . S
H4031 C4007 0.949 . S
H4032 C4009 0.950 . S
H4033 C4011 0.950 . S
C4034 C4035 1.349 . S
C4034 C4036 1.327 . S
C4034 H4059 0.950 . S
C4035 C4034 1.349 . S
C4035 C4051 1.349 . S
C4036 C4034 1.327 . S
C4036 C4055 1.429 . S
C4036 H4060 0.950 . S
C4037 C4054 1.574 . S
C4037 C4056 1.368 . S
C4037 H4061 0.949 . S
H4038 C4042 0.949 . S
C4039 C4040 1.349 . S
C4039 C4041 1.327 . S
C4039 H4062 0.950 . S
C4040 C4039 1.349 . S
C4040 C4052 1.349 . S
C4041 C4039 1.327 . S
C4041 C4057 1.429 . S
C4041 H4063 0.950 . S
C4042 H4038 0.949 . S
C4042 C4050 1.574 . S
C4042 C4058 1.368 . S
H4043 C4051 0.950 . S
H4044 C4049 0.950 . S
H4045 C4050 0.949 . S
H4046 C4052 0.950 . S
H4047 C4053 0.950 . S
H4048 C4054 0.949 . S
C4049 H4044 0.950 . S
C4049 C4051 1.327 . S
C4049 C4055 1.429 . S
C4050 C4042 1.574 . S
C4050 H4045 0.949 . S
C4050 C4056 1.368 . S
C4051 C4035 1.349 . S
C4051 H4043 0.950 . S
C4051 C4049 1.327 . S
C4052 C4040 1.349 . S
C4052 H4046 0.950 . S
C4052 C4053 1.327 . S
C4053 H4047 0.950 . S
C4053 C4052 1.327 . S
C4053 C4057 1.429 . S
C4054 C4037 1.574 . S
C4054 H4048 0.949 . S
C4054 C4058 1.368 . S
C4055 C4036 1.429 . S
C4055 C4049 1.429 . S
C4055 C4056 1.523 . S
C4056 C4037 1.368 . S
C4056 C4050 1.368 . S
C4056 C4055 1.523 . S
C4057 C4041 1.429 . S
C4057 C4053 1.429 . S
C4057 C4058 1.523 . S
C4058 C4042 1.368 . S
C4058 C4054 1.368 . S
C4058 C4057 1.523 . S
H4059 C4034 0.950 . S
H4060 C4036 0.950 . S
H4061 C4037 0.949 . S
H4062 C4039 0.950 . S
H4063 C4041 0.950 . S
C1185 C255 1.470 . S
C1190 C882 1.438 1_556 S
C1215 C147 1.540 . S
C1220 C893 1.539 . S
C1245 C184 0.811 . S
C1250 C922 0.807 . S
C1280 C925 1.438 . S
C1275 C220 1.447 . S
C1305 C40 1.529 . S
C1310 C963 1.480 . S
C1340 C966 0.835 . S
C1335 C74 0.833 . S
C1370 C993 1.432 . S
C1365 C110 1.432 . S
C1395 C14 1.526 . S
C1400 C1022 1.514 . S
C1430 C873 1.511 1_655 S
C1425 C579 1.520 . S
C1455 C616 0.736 . S
C1460 C885 0.737 . S
C1490 C913 1.628 . S
C1485 C687 1.641 . S
C1520 C942 1.011 . S
C1515 C436 1.013 . S
C1545 C580 0.871 . S
C1550 C946 0.876 . S
C1580 C972 1.630 . S
C1575 C615 1.653 . S
C1610 C985 0.653 . S
C1605 C688 0.648 . S
C1640 C1013 1.565 . S
C1635 C435 1.580 . S
C1670 C865 1.531 1_565 S
C1665 C410 1.509 . S
C1695 C722 1.799 . S
C1700 C1032 1.779 . S
C1730 C1063 1.536 . S
C1725 C842 1.549 . S
C1760 C1082 0.837 . S
C1755 C794 0.840 . S
C1785 C302 1.334 . S
C1790 C1005 1.349 . S
C1815 C338 1.409 . S
C1820 C905 1.433 . S
C1845 C830 1.660 . S
C1850 C1093 1.654 . S
C1880 C1122 0.852 . S
C1875 C758 0.858 . S
C1910 C883 1.393 . S
C1905 C158 1.368 . S
C1940 C1112 1.545 . S
C1935 C254 1.544 . S
C1965 C218 0.788 . S
C1970 C923 0.785 . S
C1995 C194 1.360 . S
C2000 C1086 1.404 . S
C2030 C962 1.459 1_655 S
C2025 C3 1.503 . S
C2055 C111 0.711 . S
C2060 C1045 0.711 . S
C2090 C992 1.364 1_556 S
C2085 C76 1.365 . S
C2120 C1143 1.581 . S
C2115 C50 1.576 . S
C2150 C872 1.461 . S
C2145 C364 1.465 1_565 S
C2180 C1106 0.701 . S
C2175 C795 0.697 . S
C2205 C292 1.575 . S
C2210 C912 1.571 . S
C2235 C723 0.939 . S
C2240 C1103 0.928 . S
C2265 C363 0.848 . S
C2270 C945 0.847 . S
C2300 C1053 1.612 . S
C2295 C796 1.628 . S
C2325 C291 0.610 . S
C2330 C986 0.619 . S
C2355 C724 1.557 . S
C2360 C1132 1.553 . S
C2385 C482 1.462 . S
C2390 C866 1.501 . S
C2415 C434 1.774 . S
C2420 C1033 1.755 . S
C2445 C662 1.482 . S
C2450 C982 1.499 . S
C2475 C614 0.814 . S
C2480 C1083 0.811 . S
C2510 C1126 1.339 . S
C2505 C698 1.293 . S
C2535 C554 1.374 . S
C2540 C906 1.439 1_565 S
C2570 C932 1.591 . S
C2565 C650 1.593 . S
C2600 C903 0.797 . S
C2595 C506 0.803 . S
C2625 C183 1.470 . S
C2630 C1162 1.437 . S
C2660 C1113 1.540 . S
C2655 C219 1.540 . S
C2685 C256 0.808 . S
C2690 C1182 0.807 . S
C2715 C148 1.444 . S
C2720 C1085 1.435 . S
C2745 C122 1.537 . S
C2750 C1043 1.540 . S
C2780 C1046 0.764 . S
C2775 C2 0.764 . S
C2810 C1073 1.314 . S
C2805 C39 1.318 . S
C2840 C1142 1.592 . S
C2835 C86 1.603 . S
C2870 C1153 1.527 . S
C2865 C651 1.535 . S
C2895 C472 0.734 . S
C2900 C1105 0.735 . S
C2930 C1173 1.616 . S
C2925 C507 1.629 . S
C2960 C1102 1.017 . S
C2955 C544 1.019 . S
C2990 C1026 0.881 . S
C2985 C652 0.875 . S
C3015 C471 1.635 . S
C3020 C1052 1.614 . S
C3050 C1065 0.640 . S
C3045 C508 0.635 . S
C3075 C543 1.603 . S
C3080 C1133 1.587 . S
C3110 C1145 1.551 . S
C3105 C806 1.530 . S
C3135 C326 1.778 . S
C3140 C952 1.758 . S
C3170 C983 1.508 . S
C3165 C374 1.527 . S
C3200 C1002 0.856 . S
C3195 C398 0.862 . S
C3230 C1125 1.349 . S
C3225 C770 1.333 . S
C3255 C734 1.398 . S
C3260 C1165 1.422 . S
C3290 C933 1.646 . S
C3285 C362 1.645 . S
C3320 C902 0.868 . S
C3315 C290 0.876 . S
C3345 C230 1.367 . S
C3350 C1163 1.392 . S
C3380 C892 1.551 . S
C3375 C182 1.550 . S
C3405 C146 0.788 . S
C3410 C1183 0.784 . S
C3435 C266 1.360 . S
C3440 C926 1.405 . S
C3465 C75 1.575 . S
C3470 C1042 1.557 . S
C3500 C965 0.816 . S
C3495 C38 0.815 . S
C3525 C4 1.295 . S
C3530 C1072 1.294 . S
C3555 C112 1.561 . S
C3560 C1023 1.505 . S
C3590 C1152 1.465 . S
C3585 C832 1.469 . S
C3615 C399 0.713 . S
C3620 C886 0.715 . S
C3650 C1172 1.567 1_655 S
C3645 C760 1.570 . S
C3675 C327 0.935 . S
C3680 C943 0.924 . S
C3705 C831 0.869 . S
C3710 C1025 0.870 . S
C3740 C973 1.613 . S
C3735 C400 1.629 . S
C3765 C759 0.617 . S
C3770 C1066 0.626 . S
C3800 C1012 1.564 . S
C3795 C328 1.568 . S
C3830 C1146 1.512 . S
C3825 C626 1.472 . S
C3860 C953 1.755 . S
C3855 C542 1.775 . S
C3885 C590 1.454 . S
C3890 C1062 1.470 . S
C3920 C1003 0.818 . S
C3915 C470 0.821 . S
C3945 C518 1.280 . S
C3950 C1006 1.323 . S
C3975 C446 1.364 . S
C3980 C1166 1.429 . S
C4010 C1092 1.600 . S
C4005 C578 1.601 1_565 S
C4040 C1123 0.776 . S
C4035 C686 0.779 . S
