# Generated by pormake.
# Topology ssa, (4,4)-cn, num edge types: 1
# Building blocks:
#     Node 0, Type 0, BuildingBlock: ESEHIV_clean_sbu_0, # of connection points: 4
#     Node 1, Type 0, BuildingBlock: ESEHIV_clean_sbu_0, # of connection points: 4
#     Node 2, Type 0, BuildingBlock: ESEHIV_clean_sbu_0, # of connection points: 4
#     Node 3, Type 0, BuildingBlock: ESEHIV_clean_sbu_0, # of connection points: 4
#     Node 4, Type 0, BuildingBlock: ESEHIV_clean_sbu_0, # of connection points: 4
#     Node 5, Type 0, BuildingBlock: ESEHIV_clean_sbu_0, # of connection points: 4
#     Node 6, Type 1, BuildingBlock: NAWXER_clean_sbu_0, # of connection points: 4
#     Node 7, Type 1, BuildingBlock: NAWXER_clean_sbu_0, # of connection points: 4
#     Node 8, Type 1, BuildingBlock: NAWXER_clean_sbu_0, # of connection points: 4
#     Node 9, Type 1, BuildingBlock: NAWXER_clean_sbu_0, # of connection points: 4
#     Node 10, Type 1, BuildingBlock: NAWXER_clean_sbu_0, # of connection points: 4
#     Node 11, Type 1, BuildingBlock: NAWXER_clean_sbu_0, # of connection points: 4
#     Edge 12, Type (0, 1), BuildingBlock: ZUJKAS_clean_linker_0, # of connection points: 2
#     Edge 13, Type (0, 1), BuildingBlock: ZUJKAS_clean_linker_0, # of connection points: 2
#     Edge 14, Type (0, 1), BuildingBlock: ZUJKAS_clean_linker_0, # of connection points: 2
#     Edge 15, Type (0, 1), BuildingBlock: ZUJKAS_clean_linker_0, # of connection points: 2
#     Edge 16, Type (0, 1), BuildingBlock: ZUJKAS_clean_linker_0, # of connection points: 2
#     Edge 17, Type (0, 1), BuildingBlock: ZUJKAS_clean_linker_0, # of connection points: 2
#     Edge 18, Type (0, 1), BuildingBlock: ZUJKAS_clean_linker_0, # of connection points: 2
#     Edge 19, Type (0, 1), BuildingBlock: ZUJKAS_clean_linker_0, # of connection points: 2
#     Edge 20, Type (0, 1), BuildingBlock: ZUJKAS_clean_linker_0, # of connection points: 2
#     Edge 21, Type (0, 1), BuildingBlock: ZUJKAS_clean_linker_0, # of connection points: 2
#     Edge 22, Type (0, 1), BuildingBlock: ZUJKAS_clean_linker_0, # of connection points: 2
#     Edge 23, Type (0, 1), BuildingBlock: ZUJKAS_clean_linker_0, # of connection points: 2
#     Edge 24, Type (0, 1), BuildingBlock: ZUJKAS_clean_linker_0, # of connection points: 2
#     Edge 25, Type (0, 1), BuildingBlock: ZUJKAS_clean_linker_0, # of connection points: 2
#     Edge 26, Type (0, 1), BuildingBlock: ZUJKAS_clean_linker_0, # of connection points: 2
#     Edge 27, Type (0, 1), BuildingBlock: ZUJKAS_clean_linker_0, # of connection points: 2
#     Edge 28, Type (0, 1), BuildingBlock: ZUJKAS_clean_linker_0, # of connection points: 2
#     Edge 29, Type (0, 1), BuildingBlock: ZUJKAS_clean_linker_0, # of connection points: 2
#     Edge 30, Type (0, 1), BuildingBlock: ZUJKAS_clean_linker_0, # of connection points: 2
#     Edge 31, Type (0, 1), BuildingBlock: ZUJKAS_clean_linker_0, # of connection points: 2
#     Edge 32, Type (0, 1), BuildingBlock: ZUJKAS_clean_linker_0, # of connection points: 2
#     Edge 33, Type (0, 1), BuildingBlock: ZUJKAS_clean_linker_0, # of connection points: 2
#     Edge 34, Type (0, 1), BuildingBlock: ZUJKAS_clean_linker_0, # of connection points: 2
#     Edge 35, Type (0, 1), BuildingBlock: ZUJKAS_clean_linker_0, # of connection points: 2
# Relax obj value: 0.014
# Max RMSD: 0.107
# Mean RMSD: 0.057
data_MOF--net-ssa--node1-ESEHIV_clean_sbu_0--node2-NAWXER_clean_sbu_0--edge1-ZUJKAS_clean_linker_0
_symmetry_space_group_name_H-M    P1
_symmetry_Int_Tables_number       1
_symmetry_cell_setting            triclinic
loop_
_symmetry_equiv_pos_as_xyz
'x, y, z'
_cell_length_a     58.124829
_cell_length_b     61.959591
_cell_length_c     50.157806
_cell_angle_alpha  88.422157
_cell_angle_beta   90.705824
_cell_angle_gamma 122.35492
loop_
_atom_site_label
_atom_site_type_symbol
_atom_site_fract_x
_atom_site_fract_y
_atom_site_fract_z
_atom_type_partial_charge
Cu0 Cu 0.01676 0.52068 0.99373 0.0
N1 N 0.0225 0.5055 0.96497 0.0
N2 N 0.01208 0.47507 0.93553 0.0
C3 C 1.00332 0.48229 0.95624 0.0
C4 C 0.03794 0.4947 0.93098 0.0
C5 C 0.04435 0.51343 0.94926 0.0
O6 O 0.97992 0.51339 0.98898 0.0
C7 C 0.0492 0.51514 0.02825 0.0
O8 O 0.06549 0.52829 0.00818 0.0
H9 H 0.9831 0.47113 0.96481 0.0
H10 H 0.0636 0.53139 0.95105 0.0
N11 N 0.041 0.55617 0.99524 0.0
N12 N 0.0678 0.59334 0.0155 0.0
C13 C 0.04688 0.56882 0.01821 0.0
C14 C 0.05864 0.57334 0.97711 0.0
C15 C 0.07527 0.59631 0.9896 0.0
C16 C 0.97737 0.52366 0.96769 0.0
O17 O 0.99923 0.5385 0.95315 0.0
H18 H 0.03713 0.55961 0.03699 0.0
H19 H 0.06009 0.56921 0.95662 0.0
O20 O 0.02406 0.50748 0.02631 0.0
H21 H 0.05141 0.49539 0.91581 0.0
H22 H 0.09199 0.6136 0.98048 0.0
Cu23 Cu 0.51868 0.0195 0.4999 0.0
N24 N 0.53354 0.01786 0.46792 0.0
N25 N 0.54202 0.99893 0.43567 0.0
C26 C 0.53143 0.99631 0.46015 0.0
C27 C 0.55121 0.02321 0.42762 0.0
C28 C 0.54602 0.03493 0.44769 0.0
O29 O 0.48274 0.98796 0.50085 0.0
C30 C 0.56729 0.0421 0.52614 0.0
O31 O 0.57359 0.05623 0.50418 0.0
H32 H 0.52142 0.97873 0.47199 0.0
H33 H 0.5508 0.05436 0.44738 0.0
N34 N 0.51644 0.04839 0.50169 0.0
N35 N 0.51665 0.08066 0.52077 0.0
C36 C 0.51731 0.05938 0.52472 0.0
C37 C 0.51514 0.06317 0.48231 0.0
C38 C 0.51532 0.08318 0.49406 0.0
C39 C 0.46182 0.98769 0.49237 0.0
O40 O 0.46346 0.00948 0.48824 0.0
H41 H 0.51913 0.05217 0.54401 0.0
H42 H 0.51411 0.05967 0.4612 0.0
O43 O 0.54304 0.0228 0.52877 0.0
H44 H 0.56095 0.03185 0.40867 0.0
H45 H 0.51433 0.09824 0.48376 0.0
Cu46 Cu 0.51117 0.49791 0.02825 0.0
N47 N 0.514 0.46935 0.02797 0.0
N48 N 0.51809 0.43872 0.01061 0.0
C49 C 0.51287 0.45722 1.00571 0.0
C50 C 0.52272 0.43928 0.03712 0.0
C51 C 0.52023 0.45827 0.04778 0.0
O52 O 0.5268 0.51536 0.99422 0.0
C53 C 0.45689 0.46827 0.04702 0.0
O54 O 0.46379 0.45184 0.05365 0.0
H55 H 0.5094 0.46269 0.98612 0.0
H56 H 0.52331 0.46396 0.06837 0.0
N57 N 0.53095 0.51886 0.05633 0.0
N58 N 0.54271 0.54793 0.08758 0.0
C59 C 0.52407 0.53336 0.06915 0.0
C60 C 0.55474 0.52422 0.067 0.0
C61 C 0.56212 0.54227 0.08632 0.0
C62 C 0.5474 0.5381 0.99168 0.0
O63 O 0.55605 0.55297 0.01238 0.0
H64 H 0.5062 0.53392 0.06423 0.0
H65 H 0.56615 0.51603 0.06077 0.0
O66 O 0.47369 0.48852 0.03382 0.0
H67 H 0.52774 0.42704 0.04803 0.0
H68 H 0.58041 0.55068 0.09829 0.0
Cu69 Cu 0.99649 0.50483 0.50623 0.0
N70 N 0.98985 0.48444 0.4768 0.0
N71 N 0.99947 0.46697 0.44368 0.0
C72 C 0.00885 0.48731 0.45947 0.0
C73 C 0.97326 0.45076 0.45113 0.0
C74 C 0.96739 0.46161 0.47157 0.0
O75 O 0.03301 0.53498 0.50197 0.0
C76 C 0.98962 0.4904 0.56144 0.0
O77 O 0.99675 0.51407 0.56545 0.0
H78 H 0.02974 0.50319 0.45971 0.0
H79 H 0.94864 0.45282 0.48288 0.0
N80 N 0.97201 0.51567 0.50722 0.0
N81 N 0.94293 0.52482 0.52445 0.0
C82 C 0.953 0.5096 0.52607 0.0
C83 C 0.97357 0.535 0.49274 0.0
C84 C 0.95567 0.5407 0.5033 0.0
C85 C 0.05454 0.53437 0.50146 0.0
O86 O 0.05301 0.51298 0.50816 0.0
H87 H 0.94808 0.49555 0.54186 0.0
H88 H 0.98794 0.54527 0.47669 0.0
O89 O 0.99081 0.48381 0.53796 0.0
H90 H 0.95962 0.43197 0.44323 0.0
H91 H 0.95317 0.55607 0.4966 0.0
Cu92 Cu 0.52095 0.01137 0.03068 0.0
N93 N 0.50715 0.03249 0.0309 0.0
N94 N 0.49203 0.05649 0.01404 0.0
C95 C 0.50305 0.04263 0.00871 0.0
C96 C 0.48931 0.05508 0.04089 0.0
C97 C 0.49868 0.04026 0.05124 0.0
O98 O 0.54035 0.01928 0.99671 0.0
C99 C 0.46731 0.96784 0.04047 0.0
O100 O 0.45915 0.98372 0.03618 0.0
H101 H 0.5083 0.03988 0.98903 0.0
H102 H 0.49892 0.03519 0.072 0.0
N103 N 0.54452 0.01787 0.05915 0.0
N104 N 0.56806 0.00991 0.08903 0.0
C105 C 0.55084 1.00106 0.06813 0.0
C106 C 0.55802 0.03819 0.07495 0.0
C107 C 0.57257 0.03328 0.09351 0.0
C108 C 0.56628 0.03211 0.99538 0.0
O109 O 0.58042 0.03653 0.01739 0.0
H110 H 0.54242 0.9824 0.05969 0.0
H111 H 0.5573 0.05525 0.07312 0.0
O112 O 0.49211 0.97549 0.03608 0.0
H113 H 0.48076 0.06371 0.05231 0.0
H114 H 0.58553 0.04598 0.10895 0.0
Cu115 Cu 0.49876 0.49406 0.50306 0.0
N116 N 0.52621 0.51564 0.47872 0.0
N117 N 0.5519 0.5498 0.45212 0.0
C118 C 0.52974 0.53737 0.46804 0.0
C119 C 0.56264 0.53513 0.45254 0.0
C120 C 0.54678 0.51408 0.4691 0.0
O121 O 0.46594 0.49301 0.49251 0.0
C122 C 0.53448 0.52191 0.54571 0.0
O123 O 0.55077 0.5379 0.52702 0.0
H124 H 0.51628 0.54395 0.47185 0.0
H125 H 0.55028 0.49898 0.47414 0.0
N126 N 0.49143 0.46092 0.50269 0.0
N127 N 0.48094 0.42305 0.51991 0.0
C128 C 0.48287 0.44532 0.52437 0.0
C129 C 0.49499 0.44812 0.48359 0.0
C130 C 0.48861 0.4247 0.49424 0.0
C131 C 0.46236 0.51139 0.49508 0.0
O132 O 0.48024 0.53148 0.5085 0.0
H133 H 0.47925 0.45075 0.54345 0.0
H134 H 0.5023 0.45551 0.46363 0.0
O135 O 0.51034 0.50435 0.53958 0.0
H136 H 0.58095 0.53957 0.44218 0.0
H137 H 0.48981 0.41019 0.48398 0.0
C138 C 0.28067 0.50047 0.29312 0.0
C139 C 0.21822 0.49676 0.22412 0.0
O140 O 0.26287 0.47765 0.28613 0.0
Zn141 Zn 0.23004 0.45886 0.25827 0.0
O142 O 0.28125 0.51923 0.28139 0.0
Zn143 Zn 0.25098 0.49962 0.25723 0.0
O144 O 0.21698 0.48009 0.28414 0.0
O145 O 0.19881 0.43849 0.28177 0.0
O146 O 0.2387 0.51682 0.23355 0.0
O147 O 0.21352 0.47477 0.23152 0.0
O148 O 0.24201 0.44239 0.23458 0.0
O149 O 0.26638 0.48435 0.22989 0.0
C150 C 0.19873 0.4572 0.29155 0.0
C151 C 0.26132 0.46242 0.22311 0.0
C152 C 0.7949 0.276 0.72344 0.0
C153 C 0.73595 0.21193 0.79128 0.0
O154 O 0.77439 0.27397 0.73488 0.0
Zn155 Zn 0.76482 0.2442 0.75724 0.0
O156 O 0.80158 0.25976 0.72917 0.0
Zn157 Zn 0.78856 0.2273 0.75556 0.0
O158 O 0.77823 0.19953 0.73138 0.0
O159 O 0.75092 0.21411 0.72923 0.0
O160 O 0.75521 0.20932 0.78334 0.0
O161 O 0.73411 0.23016 0.78166 0.0
O162 O 0.79904 0.25997 0.78351 0.0
O163 O 0.82056 0.23993 0.77829 0.0
C164 C 0.75741 0.19848 0.72147 0.0
C165 C 0.81878 0.25714 0.78954 0.0
C166 C 0.5478 0.80196 0.29978 0.0
C167 C 0.55144 0.74733 0.234 0.0
O168 O 0.57218 0.808 0.2948 0.0
Zn169 Zn 0.59236 0.79561 0.26969 0.0
O170 O 0.52789 0.78303 0.28829 0.0
Zn171 Zn 0.54906 0.77428 0.26695 0.0
O172 O 0.56548 0.75969 0.29551 0.0
O173 O 0.61028 0.78492 0.29473 0.0
O174 O 0.53042 0.7462 0.24288 0.0
O175 O 0.5751 0.76478 0.24216 0.0
O176 O 0.61403 0.82591 0.24714 0.0
O177 O 0.56978 0.80697 0.24062 0.0
C178 C 0.58887 0.76513 0.304 0.0
C179 C 0.59422 0.82517 0.23515 0.0
C180 C 0.76403 0.50198 0.80863 0.0
C181 C 0.7044 0.50357 0.73939 0.0
O182 O 0.74266 0.48289 0.79902 0.0
Zn183 Zn 0.73392 0.50167 0.7734 0.0
O184 O 0.77205 0.52451 0.79963 0.0
Zn185 Zn 0.75983 0.54243 0.77061 0.0
O186 O 0.75246 0.56363 0.79244 0.0
O187 O 0.72281 0.52227 0.7983 0.0
O188 O 0.72506 0.52567 0.74484 0.0
O189 O 0.70143 0.48379 0.75127 0.0
O190 O 0.76616 0.51591 0.74459 0.0
O191 O 0.78987 0.55802 0.74525 0.0
C192 C 0.73101 0.54542 0.80366 0.0
C193 C 0.78596 0.53751 0.73569 0.0
C194 C 0.30149 0.78161 0.24097 0.0
C195 C 0.24118 0.7195 0.31004 0.0
O196 O 0.28253 0.78478 0.24856 0.0
Zn197 Zn 0.24901 0.76791 0.27606 0.0
O198 O 0.30334 0.76374 0.25169 0.0
Zn199 Zn 0.272 0.75024 0.27555 0.0
O200 O 0.23891 0.73565 0.24754 0.0
O201 O 0.21831 0.75662 0.25205 0.0
O202 O 0.26135 0.72061 0.29889 0.0
O203 O 0.23492 0.7358 0.3031 0.0
O204 O 0.25918 0.79566 0.30017 0.0
O205 O 0.28573 0.78036 0.30366 0.0
C206 C 0.2202 0.73965 0.2404 0.0
C207 C 0.27926 0.79607 0.31115 0.0
C208 C 0.51603 0.28345 0.80347 0.0
C209 C 0.51488 0.2289 0.73413 0.0
O210 O 0.53644 0.28524 0.79211 0.0
Zn211 Zn 0.51618 0.25649 0.7688 0.0
O212 O 0.49191 0.26583 0.79664 0.0
Zn213 Zn 0.47275 0.23479 0.76956 0.0
O214 O 0.45321 0.2056 0.79394 0.0
O215 O 0.49787 0.22466 0.79659 0.0
O216 O 0.49098 0.2224 0.74179 0.0
O217 O 0.53564 0.24776 0.74479 0.0
O218 O 0.49725 0.26958 0.74153 0.0
O219 O 0.45269 0.24435 0.74599 0.0
C220 C 0.47398 0.20697 0.80443 0.0
C221 C 0.47321 0.26344 0.7346 0.0
H222 H 0.10065 0.5467 0.04515 0.0
H223 H 0.12333 0.54087 0.08323 0.0
H224 H 0.0487 0.47087 0.10544 0.0
H225 H 0.02542 0.47678 0.06703 0.0
H226 H 0.10459 0.52971 0.14317 0.0
H227 H 0.11352 0.45663 0.08996 0.0
H228 H 0.10944 0.47996 0.07186 0.0
H229 H 0.08138 0.45458 0.0904 0.0
C230 C 0.0889 0.5301 0.05819 0.0
C231 C 0.06132 0.512 0.05296 0.0
C232 C 0.10189 0.52692 0.08003 0.0
C233 C 0.08773 0.50543 0.09698 0.0
C234 C 0.05992 0.4876 0.09246 0.0
H235 H 0.16839 0.45737 0.20897 0.0
H236 H 0.13507 0.459 0.18056 0.0
C237 C 0.04668 0.49098 0.07063 0.0
C238 C 0.10305 0.50133 0.11813 0.0
H239 H 0.13794 0.47196 0.12974 0.0
C240 C 0.11157 0.5168 0.14056 0.0
C241 C 0.11219 0.48461 0.11445 0.0
C242 C 0.10383 0.46795 0.09039 0.0
C243 C 0.12937 0.51619 0.15935 0.0
C244 C 0.13954 0.50027 0.15507 0.0
C245 C 0.13032 0.48428 0.13296 0.0
C246 C 0.15982 0.49985 0.17308 0.0
C247 C 0.13695 0.53251 0.18362 0.0
C248 C 0.18509 0.52228 0.17819 0.0
C249 C 0.20425 0.52146 0.19471 0.0
C250 C 0.19865 0.49812 0.20602 0.0
C251 C 0.17349 0.47569 0.20051 0.0
C252 C 0.15432 0.47657 0.18429 0.0
H253 H 0.12131 0.53699 0.18817 0.0
H254 H 0.1395 0.52292 0.20141 0.0
H255 H 0.15648 0.55087 0.17978 0.0
H256 H 0.19014 0.54038 0.16916 0.0
H257 H 0.22347 0.53904 0.19846 0.0
H258 H 0.61984 0.08205 0.52449 0.0
H259 H 0.65179 0.10034 0.56106 0.0
H260 H 0.59331 0.04065 0.61437 0.0
H261 H 0.56047 0.02246 0.57758 0.0
H262 H 0.61348 0.08564 0.63571 0.0
H263 H 0.70043 0.0827 0.5987 0.0
H264 H 0.69081 0.09776 0.57391 0.0
H265 H 0.6672 0.06474 0.58351 0.0
C266 C 0.61376 0.07246 0.54385 0.0
C267 C 0.5875 0.05075 0.54806 0.0
C268 C 0.63229 0.08286 0.56477 0.0
C269 C 0.6253 0.07164 0.59044 0.0
C270 C 0.5993 0.04952 0.59467 0.0
H271 H 0.75441 0.15372 0.71073 0.0
H272 H 0.72146 0.11948 0.68173 0.0
C273 C 0.58057 0.0391 0.57363 0.0
C274 C 0.64424 0.08483 0.61301 0.0
H275 H 0.71169 0.11686 0.62956 0.0
C276 C 0.63484 0.09199 0.63462 0.0
C277 C 0.67205 0.09273 0.6121 0.0
C278 C 0.68308 0.08379 0.59093 0.0
C279 C 0.65278 0.10829 0.65419 0.0
C280 C 0.68105 0.11838 0.65166 0.0
C281 C 0.69015 0.10969 0.6312 0.0
C282 C 0.70151 0.13913 0.66893 0.0
C283 C 0.64119 0.11476 0.67718 0.0
C284 C 0.70189 0.16189 0.67071 0.0
C285 C 0.72046 0.18128 0.68733 0.0
C286 C 0.73953 0.17864 0.70219 0.0
C287 C 0.73999 0.15633 0.69953 0.0
C288 C 0.72111 0.13672 0.68305 0.0
H289 H 0.61989 0.09905 0.68158 0.0
H290 H 0.65353 0.11849 0.69553 0.0
H291 H 0.6409 0.1321 0.67181 0.0
H292 H 0.6877 0.16466 0.65929 0.0
H293 H 0.71975 0.19834 0.68863 0.0
H294 H 0.49849 0.54762 0.1046 0.0
H295 H 0.49814 0.58098 0.1291 0.0
H296 H 0.58591 0.62438 0.13163 0.0
H297 H 0.58645 0.5911 0.10697 0.0
H298 H 0.56107 0.6213 0.18051 0.0
H299 H 0.51873 0.65093 0.09759 0.0
H300 H 0.49894 0.61747 0.10637 0.0
H301 H 0.5325 0.63124 0.09258 0.0
C302 C 0.51774 0.56433 0.1102 0.0
C303 C 0.54252 0.56681 0.10358 0.0
C304 C 0.51749 0.58338 0.12418 0.0
C305 C 0.54201 0.60537 0.13167 0.0
C306 C 0.56676 0.6076 0.12584 0.0
H307 H 0.5926 0.74517 0.21151 0.0
H308 H 0.58903 0.7104 0.18631 0.0
C309 C 0.56703 0.5885 0.1119 0.0
C310 C 0.54187 0.62598 0.14579 0.0
H311 H 0.52388 0.67011 0.13927 0.0
C312 C 0.55299 0.63201 0.17149 0.0
C313 C 0.53118 0.63982 0.13398 0.0
C314 C 0.51986 0.63475 0.10602 0.0
C315 C 0.55362 0.65146 0.18578 0.0
C316 C 0.54325 0.66549 0.17385 0.0
C317 C 0.53179 0.65927 0.14831 0.0
C318 C 0.54502 0.68726 0.18737 0.0
C319 C 0.56514 0.65669 0.21366 0.0
C320 C 0.52137 0.68617 0.19536 0.0
C321 C 0.52329 0.70613 0.20974 0.0
C322 C 0.54894 0.72751 0.2162 0.0
C323 C 0.57252 0.72893 0.20707 0.0
C324 C 0.57056 0.70902 0.19277 0.0
H325 H 0.56588 0.64036 0.2223 0.0
H326 H 0.58623 0.67372 0.21308 0.0
H327 H 0.55288 0.66073 0.22704 0.0
H328 H 0.50146 0.66956 0.19115 0.0
H329 H 0.50475 0.70446 0.21643 0.0
H330 H 0.94259 0.56703 0.53717 0.0
H331 H 0.91681 0.57065 0.57297 0.0
H332 H 0.87916 0.49041 0.59237 0.0
H333 H 0.90501 0.48667 0.55666 0.0
H334 H 0.86228 0.54735 0.58254 0.0
H335 H 0.91015 0.52237 0.66377 0.0
H336 H 0.92324 0.52967 0.63011 0.0
H337 H 0.89451 0.49844 0.63884 0.0
C338 C 0.92859 0.55006 0.54879 0.0
C339 C 0.92602 0.52656 0.54408 0.0
C340 C 0.91397 0.55221 0.56939 0.0
C341 C 0.8965 0.53095 0.58577 0.0
C342 C 0.8931 0.50726 0.58051 0.0
H343 H 0.78548 0.49698 0.71512 0.0
H344 H 0.81325 0.49721 0.67891 0.0
C345 C 0.90782 0.50512 0.56 0.0
C346 C 0.88184 0.53357 0.60832 0.0
H347 H 0.87161 0.52406 0.67569 0.0
C348 C 0.86448 0.54246 0.60293 0.0
C349 C 0.88487 0.52735 0.63499 0.0
C350 C 0.9044 0.51917 0.64237 0.0
C351 C 0.84941 0.54448 0.62334 0.0
C352 C 0.85198 0.5377 0.64986 0.0
C353 C 0.86963 0.52919 0.65532 0.0
C354 C 0.83558 0.53814 0.67207 0.0
C355 C 0.8302 0.55311 0.61628 0.0
C356 C 0.83917 0.56118 0.68053 0.0
C357 C 0.82332 0.56116 0.70141 0.0
C358 C 0.80359 0.53808 0.71413 0.0
C359 C 0.80037 0.51512 0.70574 0.0
C360 C 0.81627 0.51518 0.68504 0.0
H361 H 0.82675 0.55299 0.59444 0.0
H362 H 0.81025 0.54065 0.62641 0.0
H363 H 0.83894 0.57288 0.62317 0.0
H364 H 0.85426 0.57916 0.67103 0.0
H365 H 0.82637 0.57917 0.7074 0.0
H366 H 0.47972 0.93319 0.05948 0.0
H367 H 0.45329 0.89783 0.09155 0.0
H368 H 0.38889 0.91275 0.08907 0.0
H369 H 0.41493 0.94794 0.05703 0.0
H370 H 0.41428 0.91402 0.1421 0.0
H371 H 0.37865 0.82529 0.08565 0.0
H372 H 0.41339 0.85164 0.08146 0.0
H373 H 0.38617 0.85474 0.06925 0.0
C374 C 0.45963 0.92855 0.06521 0.0
C375 C 0.44953 0.94354 0.05573 0.0
C376 C 0.44457 0.90832 0.08356 0.0
C377 C 0.41915 0.90269 0.09265 0.0
C378 C 0.40846 0.91677 0.08225 0.0
H379 H 0.29993 0.81915 0.21317 0.0
H380 H 0.33042 0.84751 0.17804 0.0
C381 C 0.42339 0.93688 0.06387 0.0
C382 C 0.40487 0.88406 0.11498 0.0
H383 H 0.36589 0.82027 0.13095 0.0
C384 C 0.40382 0.89352 0.13972 0.0
C385 C 0.39166 0.85739 0.11191 0.0
C386 C 0.39229 0.84645 0.08566 0.0
C387 C 0.38937 0.87701 0.16133 0.0
C388 C 0.37495 0.85026 0.15795 0.0
C389 C 0.37684 0.84076 0.13349 0.0
C390 C 0.35618 0.83211 0.17893 0.0
C391 C 0.3896 0.88844 0.1876 0.0
C392 C 0.35995 0.81336 0.19066 0.0
C393 C 0.34229 0.79682 0.21088 0.0
C394 C 0.3205 0.79871 0.21955 0.0
C395 C 0.31661 0.81724 0.2073 0.0
C396 C 0.33413 0.83361 0.1872 0.0
H397 H 0.40793 0.90801 0.18948 0.0
H398 H 0.3714 0.88985 0.18883 0.0
H399 H 0.38907 0.87641 0.2047 0.0
H400 H 0.37674 0.81175 0.18443 0.0
H401 H 0.34577 0.78268 0.21976 0.0
H402 H 0.49906 0.39071 0.52168 0.0
H403 H 0.49158 0.36009 0.55767 0.0
H404 H 0.44076 0.37971 0.59882 0.0
H405 H 0.44811 0.41025 0.56297 0.0
H406 H 0.4806 0.3826 0.63065 0.0
H407 H 0.42623 0.28999 0.5794 0.0
H408 H 0.45726 0.31375 0.563 0.0
H409 H 0.42949 0.31861 0.56518 0.0
C410 C 0.48581 0.38809 0.53808 0.0
C411 C 0.47432 0.40305 0.53951 0.0
C412 C 0.48151 0.37054 0.55865 0.0
C413 C 0.4654 0.36744 0.58084 0.0
C414 C 0.45325 0.38178 0.58189 0.0
H415 H 0.42585 0.25466 0.71129 0.0
H416 H 0.42158 0.27951 0.6747 0.0
C417 C 0.45759 0.39933 0.56143 0.0
C418 C 0.4631 0.35094 0.60401 0.0
H419 H 0.44483 0.29025 0.62236 0.0
C420 C 0.47251 0.36235 0.62887 0.0
C421 C 0.45223 0.32446 0.60179 0.0
C422 C 0.44047 0.31089 0.57597 0.0
C423 C 0.47225 0.34821 0.65133 0.0
C424 C 0.46271 0.32204 0.64879 0.0
C425 C 0.45234 0.31037 0.6242 0.0
C426 C 0.46492 0.30698 0.67102 0.0
C427 C 0.48234 0.36148 0.67758 0.0
C428 C 0.49065 0.31406 0.68084 0.0
C429 C 0.49316 0.30002 0.70161 0.0
C430 C 0.46995 0.27844 0.713 0.0
C431 C 0.44411 0.27125 0.70306 0.0
C432 C 0.44164 0.28536 0.68213 0.0
H433 H 0.48135 0.37888 0.67813 0.0
H434 H 0.47029 0.34853 0.69453 0.0
H435 H 0.50392 0.36745 0.68035 0.0
H436 H 0.50891 0.33039 0.67223 0.0
H437 H 0.5134 0.30608 0.70861 0.0
H438 H 0.53863 0.99299 0.38209 0.0
H439 H 0.53599 0.95778 0.35803 0.0
H440 H 0.54334 0.92538 0.43244 0.0
H441 H 0.54569 0.96023 0.45646 0.0
H442 H 0.57169 0.94278 0.3544 0.0
H443 H 0.47634 0.86456 0.40097 0.0
H444 H 0.48778 0.89779 0.40412 0.0
H445 H 0.50157 0.88353 0.42534 0.0
C446 C 0.53982 0.97841 0.39324 0.0
C447 C 0.54208 0.97922 0.42118 0.0
C448 C 0.53814 0.95824 0.37953 0.0
C449 C 0.53874 0.93859 0.39352 0.0
C450 C 0.54189 0.93984 0.42131 0.0
H451 H 0.58414 0.8379 0.33377 0.0
H452 H 0.58009 0.87005 0.35645 0.0
C453 C 0.54337 0.95984 0.435 0.0
C454 C 0.53707 0.91721 0.37911 0.0
H455 H 0.50321 0.85207 0.37792 0.0
C456 C 0.55655 0.92296 0.35936 0.0
C457 C 0.517 0.89133 0.38524 0.0
C458 C 0.49431 0.88391 0.40487 0.0
C459 C 0.55717 0.90355 0.34631 0.0
C460 C 0.53821 0.87769 0.35369 0.0
C461 C 0.51803 0.8719 0.37265 0.0
C462 C 0.53938 0.85652 0.34216 0.0
C463 C 0.57808 0.91095 0.32462 0.0
C464 C 0.5172 0.83729 0.32793 0.0
C465 C 0.51929 0.81855 0.31524 0.0
C466 C 0.54364 0.81885 0.31658 0.0
C467 C 0.56522 0.83732 0.33208 0.0
C468 C 0.56303 0.85585 0.3449 0.0
H469 H 0.58522 0.93025 0.31598 0.0
H470 H 0.59602 0.9114 0.33317 0.0
H471 H 0.56975 0.89699 0.3083 0.0
H472 H 0.49864 0.83732 0.32583 0.0
H473 H 0.50231 0.80459 0.30343 0.0
H474 H 0.54167 0.50822 0.94977 0.0
H475 H 0.5752 0.51781 0.91517 0.0
H476 H 0.62656 0.59421 0.94423 0.0
H477 H 0.59337 0.5846 0.97945 0.0
H478 H 0.59964 0.55344 0.87439 0.0
H479 H 0.67607 0.56675 0.9509 0.0
H480 H 0.64086 0.55388 0.95914 0.0
H481 H 0.66366 0.58766 0.95327 0.0
C482 C 0.55986 0.52724 0.94859 0.0
C483 C 0.56496 0.54554 0.96765 0.0
C484 C 0.57906 0.53267 0.92877 0.0
C485 C 0.60372 0.55652 0.92751 0.0
C486 C 0.60801 0.57546 0.94527 0.0
H487 H 0.74311 0.59114 0.82453 0.0
H488 H 0.71389 0.59814 0.8535 0.0
C489 C 0.58888 0.56998 0.96525 0.0
C490 C 0.62533 0.56072 0.90861 0.0
H491 H 0.68868 0.56967 0.90602 0.0
C492 C 0.61923 0.55731 0.88129 0.0
C493 C 0.65094 0.56574 0.91762 0.0
C494 C 0.65831 0.56853 0.94683 0.0
C495 C 0.63766 0.55802 0.86289 0.0
C496 C 0.66276 0.56212 0.87205 0.0
C497 C 0.66945 0.56669 0.89911 0.0
C498 C 0.68068 0.55852 0.85447 0.0
C499 C 0.62989 0.55369 0.83384 0.0
C500 C 0.67183 0.53393 0.84596 0.0
C501 C 0.68843 0.52984 0.82981 0.0
C502 C 0.71431 0.5503 0.82169 0.0
C503 C 0.72329 0.575 0.8304 0.0
C504 C 0.70665 0.57904 0.84688 0.0
H505 H 0.61344 0.55719 0.82897 0.0
H506 H 0.64777 0.56628 0.82087 0.0
H507 H 0.62243 0.53356 0.8292 0.0
H508 H 0.65203 0.5178 0.85193 0.0
H509 H 0.68076 0.51056 0.8235 0.0
H510 H 0.06353 0.58026 0.48298 0.0
H511 H 0.10015 0.61146 0.45354 0.0
H512 H 0.13766 0.56739 0.45811 0.0
H513 H 0.10083 0.53578 0.48732 0.0
H514 H 0.15671 0.64161 0.45872 0.0
H515 H 0.12656 0.57171 0.37784 0.0
H516 H 0.10513 0.56549 0.40643 0.0
H517 H 0.13417 0.56255 0.4094 0.0
C518 C 0.07973 0.57731 0.47805 0.0
C519 C 0.07907 0.55535 0.4874 0.0
C520 C 0.10066 0.59519 0.46116 0.0
C521 C 0.12135 0.5915 0.45314 0.0
C522 C 0.12159 0.57035 0.46355 0.0
H523 H 0.24749 0.6812 0.33059 0.0
H524 H 0.22086 0.65007 0.36652 0.0
C525 C 0.10063 0.55241 0.48048 0.0
C526 C 0.14196 0.60943 0.43319 0.0
H527 H 0.16383 0.61352 0.36917 0.0
C528 C 0.1584 0.63543 0.43921 0.0
C529 C 0.14423 0.60136 0.40773 0.0
C530 C 0.12648 0.57381 0.39976 0.0
C531 C 0.1767 0.6536 0.42039 0.0
C532 C 0.17832 0.64566 0.39465 0.0
C533 C 0.16258 0.61956 0.3889 0.0
C534 C 0.19466 0.66438 0.37291 0.0
C535 C 0.19408 0.6812 0.4282 0.0
C536 C 0.18844 0.68239 0.36424 0.0
C537 C 0.20347 0.70005 0.34379 0.0
C538 C 0.22508 0.7001 0.33135 0.0
C539 C 0.23107 0.68176 0.33977 0.0
C540 C 0.21588 0.66397 0.3603 0.0
H541 H 0.19657 0.683 0.45018 0.0
H542 H 0.21455 0.69077 0.4188 0.0
H543 H 0.18408 0.69141 0.42139 0.0
H544 H 0.17177 0.6827 0.37322 0.0
H545 H 0.19811 0.71373 0.33779 0.0
H546 H 0.48284 0.09443 0.02354 0.0
H547 H 0.47235 0.11777 0.99069 0.0
H548 H 0.47599 0.0735 0.92793 0.0
H549 H 0.48483 0.04919 0.96049 0.0
H550 H 0.50278 0.14802 0.95137 0.0
H551 H 0.40769 0.07013 0.90749 0.0
H552 H 0.42166 0.06568 0.93796 0.0
H553 H 0.43387 0.0632 0.90602 0.0
C554 C 0.48084 0.08922 1.00286 0.0
C555 C 0.48484 0.06984 0.99488 0.0
C556 C 0.47496 0.10272 0.98404 0.0
C557 C 0.47289 0.09714 0.95683 0.0
C558 C 0.47672 0.07776 0.94884 0.0
H559 H 0.51282 0.19858 0.82278 0.0
H560 H 0.51001 0.17182 0.86067 0.0
C561 C 0.48233 0.06412 0.96759 0.0
C562 C 0.46895 0.11282 0.93649 0.0
H563 H 0.43329 0.10869 0.88011 0.0
C564 C 0.48729 0.13941 0.93606 0.0
C565 C 0.44843 0.10177 0.91673 0.0
C566 C 0.42663 0.07365 0.91725 0.0
C567 C 0.48659 0.15504 0.9157 0.0
C568 C 0.46756 0.14372 0.8947 0.0
C569 C 0.44824 0.11733 0.8959 0.0
C570 C 0.46838 0.15883 0.87079 0.0
C571 C 0.50639 0.18357 0.91688 0.0
C572 C 0.44542 0.15941 0.86292 0.0
C573 C 0.44681 0.17445 0.84083 0.0
C574 C 0.47122 0.18917 0.82632 0.0
C575 C 0.49382 0.18778 0.83374 0.0
C576 C 0.49232 0.17262 0.85556 0.0
H577 H 0.51264 0.18968 0.93773 0.0
H578 H 0.52502 0.18894 0.90543 0.0
H579 H 0.4975 0.19419 0.90819 0.0
H580 H 0.42662 0.14867 0.87421 0.0
H581 H 0.42905 0.17509 0.83559 0.0
H582 H 0.42047 0.47216 0.46784 0.0
H583 H 0.38904 0.47436 0.43675 0.0
H584 H 0.42438 0.55373 0.45451 0.0
H585 H 0.45608 0.55179 0.48567 0.0
H586 H 0.35044 0.4898 0.44441 0.0
H587 H 0.43302 0.55285 0.37214 0.0
H588 H 0.43761 0.53514 0.39859 0.0
H589 H 0.43757 0.56329 0.40598 0.0
C590 C 0.4214 0.49004 0.46541 0.0
C591 C 0.44093 0.51185 0.47915 0.0
C592 C 0.4034 0.49125 0.44761 0.0
C593 C 0.40469 0.5143 0.44301 0.0
C594 C 0.42335 0.53585 0.45749 0.0
H595 H 0.3182 0.54542 0.31722 0.0
H596 H 0.34799 0.55079 0.35499 0.0
C597 C 0.4413 0.53463 0.47544 0.0
C598 C 0.38702 0.51574 0.42236 0.0
H599 H 0.38829 0.53975 0.35985 0.0
C600 C 0.35869 0.50088 0.42601 0.0
C601 C 0.39787 0.53033 0.39844 0.0
C602 C 0.42816 0.54622 0.3933 0.0
C603 C 0.34089 0.49987 0.40619 0.0
C604 C 0.35168 0.51361 0.38178 0.0
C605 C 0.38004 0.52919 0.37851 0.0
C606 C 0.33387 0.51067 0.35884 0.0
C607 C 0.31064 0.48404 0.41158 0.0
C608 C 0.31655 0.48649 0.34807 0.0
C609 C 0.29957 0.48336 0.32664 0.0
C610 C 0.29968 0.50442 0.31522 0.0
C611 C 0.31755 0.5288 0.32558 0.0
C612 C 0.33455 0.53189 0.34717 0.0
H613 H 0.30622 0.48172 0.43333 0.0
H614 H 0.30013 0.49279 0.40194 0.0
H615 H 0.30203 0.46471 0.40347 0.0
H616 H 0.31621 0.46995 0.35623 0.0
H617 H 0.2863 0.46434 0.31906 0.0
H618 H 0.01973 0.4665 0.88439 0.0
H619 H 0.99131 0.42738 0.85948 0.0
H620 H 0.94041 0.39129 0.92879 0.0
H621 H 0.96916 0.42984 0.95405 0.0
H622 H 0.95072 0.35858 0.90157 0.0
H623 H 0.91571 0.40722 0.83286 0.0
H624 H 0.95194 0.42159 0.83415 0.0
H625 H 0.93404 0.42149 0.86316 0.0
C626 C 1.00274 0.45015 0.89447 0.0
C627 C 0.99655 0.45155 0.92117 0.0
C628 C 0.98637 0.42784 0.88012 0.0
C629 C 0.96344 0.40656 0.89214 0.0
C630 C 0.95788 0.40753 0.91905 0.0
H631 H 0.81538 0.28894 0.82322 0.0
H632 H 0.85192 0.32352 0.84856 0.0
C633 C 0.97422 0.42974 0.9334 0.0
C634 C 0.94433 0.3837 0.87652 0.0
H635 H 0.89868 0.36391 0.82534 0.0
C636 C 0.93946 0.35972 0.88476 0.0
C637 C 0.92944 0.3852 0.85481 0.0
C638 C 0.93278 0.41018 0.84578 0.0
C639 C 0.91986 0.33719 0.87206 0.0
C640 C 0.90497 0.33875 0.85039 0.0
C641 C 0.9102 0.36277 0.8419 0.0
C642 C 0.88253 0.31575 0.83724 0.0
C643 C 0.91449 0.31184 0.88252 0.0
C644 C 0.8874 0.2994 0.82288 0.0
C645 C 0.86634 0.27933 0.80839 0.0
C646 C 0.84021 0.27553 0.80783 0.0
C647 C 0.83528 0.29138 0.82306 0.0
C648 C 0.85618 0.31123 0.83756 0.0
H649 H 0.92369 0.31344 0.90249 0.0
H650 H 0.89226 0.29751 0.88388 0.0
H651 H 0.9234 0.30464 0.86856 0.0
H652 H 0.90767 0.30274 0.82204 0.0
H653 H 0.87084 0.26759 0.79669 0.0
H654 H 0.96836 0.54638 0.92545 0.0
H655 H 0.9252 0.53479 0.90507 0.0
H656 H 0.882 0.47582 0.96542 0.0
H657 H 0.92569 0.48731 0.98623 0.0
H658 H 0.88425 0.48106 0.88725 0.0
H659 H 0.84606 0.52149 0.95976 0.0
H660 H 0.882 0.53387 0.95665 0.0
H661 H 0.85979 0.50287 0.97161 0.0
C662 C 0.94978 0.53104 0.93466 0.0
C663 C 0.95055 0.51771 0.95748 0.0
C664 C 0.92508 0.52443 0.92289 0.0
C665 C 0.90046 0.50443 0.93366 0.0
C666 C 0.90086 0.4914 0.95687 0.0
H667 H 0.75739 0.45729 0.82942 0.0
H668 H 0.7862 0.45301 0.86271 0.0
C669 C 0.92578 0.49801 0.96875 0.0
C670 C 0.87481 0.49719 0.91956 0.0
H671 H 0.82306 0.50804 0.9188 0.0
C672 C 0.87041 0.48635 0.89436 0.0
C673 C 0.85706 0.50436 0.92887 0.0
C674 C 0.86127 0.51636 0.95568 0.0
C675 C 0.84953 0.48368 0.87759 0.0
C676 C 0.83246 0.49189 0.88641 0.0
C677 C 0.83607 0.50162 0.91216 0.0
C678 C 0.81333 0.49371 0.86795 0.0
C679 C 0.84704 0.47367 0.84992 0.0
C680 C 0.81863 0.5179 0.86035 0.0
C681 C 0.80232 0.5204 0.84145 0.0
C682 C 0.78017 0.49872 0.82973 0.0
C683 C 0.77435 0.47438 0.83795 0.0
C684 C 0.79082 0.4719 0.85691 0.0
H685 H 0.86431 0.47159 0.84488 0.0
H686 H 0.8279 0.45464 0.84854 0.0
H687 H 0.84612 0.48663 0.83482 0.0
H688 H 0.83589 0.53499 0.86858 0.0
H689 H 0.80737 0.53945 0.83578 0.0
H690 H 0.4582 0.9428 0.48115 0.0
H691 H 0.42337 0.90812 0.45401 0.0
H692 H 0.37784 0.94475 0.4504 0.0
H693 H 0.41262 0.97959 0.47717 0.0
H694 H 0.36578 0.87354 0.45792 0.0
H695 H 0.39471 0.94159 0.37177 0.0
H696 H 0.41523 0.94932 0.40148 0.0
H697 H 0.38514 0.95073 0.40128 0.0
C698 C 0.44047 0.9432 0.47511 0.0
C699 C 0.43835 0.96413 0.48112 0.0
C700 C 0.42063 0.9234 0.45949 0.0
C701 C 0.39835 0.92418 0.44964 0.0
C702 C 0.39518 0.94407 0.45726 0.0
H703 H 0.27364 0.83403 0.33089 0.0
H704 H 0.30082 0.86422 0.36587 0.0
C705 C 0.41502 0.96389 0.47273 0.0
C706 C 0.37939 0.90516 0.43009 0.0
H707 H 0.35728 0.89956 0.36569 0.0
C708 C 0.36389 0.8792 0.43776 0.0
C709 C 0.37699 0.91258 0.40375 0.0
C710 C 0.39405 0.94003 0.39391 0.0
C711 C 0.34584 0.86051 0.41988 0.0
C712 C 0.34357 0.86794 0.39351 0.0
C713 C 0.35891 0.89391 0.38594 0.0
C714 C 0.32635 0.84902 0.37307 0.0
C715 C 0.32912 0.83299 0.42946 0.0
C716 C 0.33187 0.83067 0.36527 0.0
C717 C 0.31649 0.8135 0.34529 0.0
C718 C 0.29525 0.81434 0.33252 0.0
C719 C 0.28977 0.83279 0.34033 0.0
C720 C 0.30528 0.85005 0.36033 0.0
H721 H 0.32739 0.83137 0.45156 0.0
H722 H 0.30833 0.82311 0.42082 0.0
H723 H 0.33912 0.82293 0.4231 0.0
H724 H 0.34841 0.82987 0.37435 0.0
H725 H 0.32139 0.79964 0.33977 0.0
H726 H 0.49276 0.42538 0.96269 0.0
H727 H 0.49696 0.40014 0.92886 0.0
H728 H 0.55117 0.39056 0.98002 0.0
H729 H 0.54737 0.41615 0.01399 0.0
H730 H 0.54528 0.40994 0.90327 0.0
H731 H 0.49152 0.31688 0.95941 0.0
H732 H 0.48914 0.34359 0.96863 0.0
H733 H 0.51926 0.3434 0.9764 0.0
C734 C 0.50573 0.41809 0.96677 0.0
C735 C 0.51976 0.42288 0.99112 0.0
C736 C 0.50803 0.40358 0.94741 0.0
C737 C 0.52424 0.39338 0.952 0.0
C738 C 0.53824 0.39798 0.97625 0.0
H739 H 0.56372 0.32307 0.82426 0.0
H740 H 0.56854 0.35079 0.8608 0.0
C741 C 0.53597 0.41255 0.99568 0.0
C742 C 0.5264 0.37803 0.93117 0.0
H743 H 0.50863 0.31744 0.9169 0.0
C744 C 0.5375 0.38976 0.90627 0.0
C745 C 0.51604 0.3517 0.93517 0.0
C746 C 0.50312 0.33799 0.96125 0.0
C747 C 0.53809 0.37571 0.88506 0.0
C748 C 0.52753 0.34934 0.889 0.0
C749 C 0.51689 0.33772 0.91405 0.0
C750 C 0.52518 0.33295 0.86682 0.0
C751 C 0.54899 0.38894 0.85832 0.0
C752 C 0.49927 0.31365 0.85834 0.0
C753 C 0.49646 0.29786 0.83762 0.0
C754 C 0.51953 0.30092 0.82496 0.0
C755 C 0.54555 0.32029 0.8335 0.0
C756 C 0.54834 0.33618 0.8543 0.0
H757 H 0.55194 0.40821 0.85735 0.0
H758 H 0.56895 0.39118 0.85463 0.0
H759 H 0.53495 0.37733 0.84209 0.0
H760 H 0.48115 0.31086 0.86774 0.0
H761 H 0.4761 0.28314 0.83165 0.0
H762 H 0.99053 0.42082 0.42992 0.0
H763 H 0.02139 0.41335 0.40475 0.0
H764 H 0.07668 0.4946 0.39332 0.0
H765 H 0.04583 0.50229 0.41784 0.0
H766 H 0.04606 0.43249 0.35018 0.0
H767 H 0.12096 0.46716 0.43294 0.0
H768 H 0.08576 0.457 0.43772 0.0
H769 H 0.10943 0.48796 0.42319 0.0
C770 C 0.00896 0.43711 0.42162 0.0
C771 C 0.0158 0.46221 0.42623 0.0
C772 C 0.02664 0.43278 0.40737 0.0
C773 C 0.05148 0.45344 0.39764 0.0
C774 C 0.0578 0.47841 0.40111 0.0
H775 H 0.19613 0.49371 0.31762 0.0
H776 H 0.1589 0.4887 0.34432 0.0
C777 C 0.04014 0.48276 0.4152 0.0
C778 C 0.07141 0.44919 0.38458 0.0
H779 H 0.13599 0.46187 0.39116 0.0
C780 C 0.0656 0.43854 0.3592 0.0
C781 C 0.09677 0.45701 0.39656 0.0
C782 C 0.10363 0.46773 0.42421 0.0
C783 C 0.08517 0.43685 0.34479 0.0
C784 C 0.11096 0.44556 0.35641 0.0
C785 C 0.11623 0.45518 0.38229 0.0
C786 C 0.13377 0.4476 0.34109 0.0
C787 C 0.07865 0.42707 0.31676 0.0
C788 C 0.13235 0.42604 0.3308 0.0
C789 C 0.15378 0.42884 0.3153 0.0
C790 C 0.17696 0.45326 0.30997 0.0
C791 C 0.17858 0.47461 0.32115 0.0
C792 C 0.15728 0.4718 0.3365 0.0
H793 H 0.05987 0.4256 0.30904 0.0
H794 H 0.09578 0.43978 0.30303 0.0
H795 H 0.07551 0.40777 0.31652 0.0
H796 H 0.11461 0.40711 0.33454 0.0
H797 H 0.15193 0.41202 0.30704 0.0
H798 H 0.62096 0.05951 0.98597 0.0
H799 H 0.64521 0.08864 0.94839 0.0
H800 H 0.56879 0.06671 0.91097 0.0
H801 H 0.54413 0.03736 0.94869 0.0
H802 H 0.61184 0.07198 0.87557 0.0
H803 H 0.64579 0.1563 0.93826 0.0
H804 H 0.65251 0.13323 0.95234 0.0
H805 H 0.61792 0.12462 0.94767 0.0
C806 C 0.60921 0.06055 0.96962 0.0
C807 C 0.58057 0.04622 0.97048 0.0
C808 C 0.62315 0.07734 0.94822 0.0
C809 C 0.60879 0.0802 0.92721 0.0
C810 C 0.58022 0.0649 0.92714 0.0
H811 H 0.69262 0.21115 0.81408 0.0
H812 H 0.6588 0.17882 0.84542 0.0
C813 C 0.56619 0.04806 0.94865 0.0
C814 C 0.62385 0.0999 0.90596 0.0
H815 H 0.66788 0.1642 0.89617 0.0
C816 C 0.62387 0.09216 0.87995 0.0
C817 C 0.63913 0.12625 0.91164 0.0
C818 C 0.63872 0.13571 0.93892 0.0
C819 C 0.63989 0.11005 0.85977 0.0
C820 C 0.65648 0.13627 0.86589 0.0
C821 C 0.65536 0.14409 0.89156 0.0
C822 C 0.67641 0.15563 0.84648 0.0
C823 C 0.63911 0.10071 0.83211 0.0
C824 C 0.69777 0.15357 0.83712 0.0
C825 C 0.71711 0.17199 0.81945 0.0
C826 C 0.71563 0.193 0.81073 0.0
C827 C 0.69435 0.19521 0.82035 0.0
C828 C 0.67499 0.17673 0.8382 0.0
H829 H 0.62001 0.08201 0.8287 0.0
H830 H 0.64092 0.11471 0.81664 0.0
H831 H 0.65646 0.09815 0.82968 0.0
H832 H 0.69965 0.13778 0.84373 0.0
H833 H 0.73323 0.16965 0.81256 0.0
H834 H 0.54557 0.58807 0.4667 0.0
H835 H 0.5588 0.62721 0.44136 0.0
H836 H 0.5949 0.6062 0.38091 0.0
H837 H 0.58099 0.56643 0.40593 0.0
H838 H 0.60999 0.66829 0.42278 0.0
H839 H 0.53847 0.61533 0.34005 0.0
H840 H 0.5368 0.60029 0.3719 0.0
H841 H 0.56276 0.60668 0.34821 0.0
C842 C 0.55619 0.59164 0.44796 0.0
C843 C 0.56179 0.57387 0.43811 0.0
C844 C 0.56399 0.61418 0.43363 0.0
C845 C 0.57752 0.61946 0.40911 0.0
C846 C 0.58415 0.60231 0.39965 0.0
H847 H 0.63377 0.76332 0.31785 0.0
H848 H 0.63423 0.72937 0.34381 0.0
C849 C 0.57636 0.57969 0.41404 0.0
C850 C 0.58322 0.64227 0.39305 0.0
H851 H 0.56361 0.66013 0.33657 0.0
C852 C 0.60012 0.6666 0.40378 0.0
C853 C 0.57004 0.63991 0.36843 0.0
C854 C 0.55082 0.61418 0.35645 0.0
C855 C 0.60375 0.68862 0.39077 0.0
C856 C 0.5903 0.68618 0.36632 0.0
C857 C 0.57395 0.66192 0.3553 0.0
C858 C 0.59107 0.7081 0.35268 0.0
C859 C 0.62099 0.71415 0.40376 0.0
C860 C 0.56676 0.70749 0.34926 0.0
C861 C 0.56641 0.72669 0.33444 0.0
C862 C 0.5904 0.74695 0.32261 0.0
C863 C 0.615 0.74808 0.32685 0.0
C864 C 0.6153 0.72871 0.34169 0.0
H865 H 0.62591 0.71213 0.42479 0.0
H866 H 0.64039 0.72582 0.39256 0.0
H867 H 0.61043 0.7247 0.40328 0.0
H868 H 0.54785 0.6918 0.35763 0.0
H869 H 0.54712 0.72524 0.33167 0.0
H870 H 0.49889 0.06737 0.57176 0.0
H871 H 0.50193 0.09545 0.60665 0.0
H872 H 0.53997 0.15967 0.55115 0.0
H873 H 0.53698 0.13157 0.516 0.0
H874 H 0.54775 0.13797 0.6274 0.0
H875 H 0.47734 0.16337 0.58187 0.0
H876 H 0.47968 0.13727 0.57034 0.0
H877 H 0.5053 0.16965 0.56103 0.0
C878 C 0.50802 0.08747 0.56695 0.0
C879 C 0.51771 0.09722 0.54106 0.0
C880 C 0.50967 0.10349 0.58692 0.0
C881 C 0.52096 0.1296 0.58146 0.0
C882 C 0.53072 0.13948 0.55567 0.0
H883 H 0.56172 0.23947 0.70893 0.0
H884 H 0.56541 0.21688 0.67143 0.0
C885 C 0.52898 0.1234 0.5356 0.0
C886 C 0.52257 0.1463 0.60299 0.0
H887 H 0.49874 0.18333 0.62205 0.0
C888 C 0.53717 0.14802 0.62621 0.0
C889 C 0.50855 0.15919 0.60143 0.0
C890 C 0.49162 0.15719 0.57746 0.0
C891 C 0.53783 0.16202 0.64808 0.0
C892 C 0.52386 0.17496 0.64649 0.0
C893 C 0.50959 0.17353 0.62312 0.0
C894 C 0.52216 0.18864 0.66944 0.0
C895 C 0.55262 0.16208 0.67305 0.0
C896 C 0.49665 0.18046 0.68052 0.0
C897 C 0.49446 0.19334 0.70175 0.0
C898 C 0.51777 0.2148 0.71237 0.0
C899 C 0.5434 0.22292 0.70134 0.0
C900 C 0.54555 0.20999 0.67998 0.0
H901 H 0.55725 0.14685 0.67308 0.0
H902 H 0.57216 0.18078 0.67439 0.0
H903 H 0.54039 0.1594 0.69109 0.0
H904 H 0.47835 0.16403 0.67271 0.0
H905 H 0.47439 0.18653 0.70971 0.0
H906 H 0.44423 0.50475 0.05239 0.0
H907 H 0.40733 0.50118 0.07923 0.0
H908 H 0.37676 0.42162 0.09584 0.0
H909 H 0.41381 0.42513 0.06958 0.0
H910 H 0.35054 0.4705 0.07831 0.0
H911 H 0.39136 0.45096 0.17015 0.0
H912 H 0.41033 0.46205 0.13931 0.0
H913 H 0.38389 0.42893 0.14401 0.0
C914 C 0.42938 0.48638 0.06137 0.0
C915 C 0.43212 0.46528 0.05907 0.0
C916 C 0.40834 0.48439 0.07678 0.0
C917 C 0.38968 0.46129 0.09009 0.0
C918 C 0.39135 0.43981 0.08635 0.0
H919 H 0.26147 0.42026 0.20754 0.0
H920 H 0.2908 0.41875 0.17381 0.0
C921 C 0.41244 0.44181 0.07116 0.0
C922 C 0.36932 0.45996 0.10886 0.0
H923 H 0.34925 0.44798 0.17423 0.0
C924 C 0.35025 0.46558 0.09927 0.0
C925 C 0.36901 0.45362 0.13628 0.0
C926 C 0.38988 0.44878 0.14817 0.0
C927 C 0.33073 0.46477 0.11629 0.0
C928 C 0.33046 0.45843 0.14366 0.0
C929 C 0.34936 0.45261 0.1532 0.0
C930 C 0.31168 0.45897 0.16305 0.0
C931 C 0.31039 0.4705 0.10483 0.0
C932 C 0.31386 0.4821 0.16833 0.0
C933 C 0.29732 0.48307 0.18764 0.0
C934 C 0.2782 0.46089 0.20215 0.0
C935 C 0.2759 0.43766 0.19669 0.0
C936 C 0.29263 0.43676 0.17743 0.0
H937 H 0.3087 0.4685 0.08283 0.0
H938 H 0.28993 0.45762 0.11387 0.0
H939 H 0.31706 0.49046 0.10932 0.0
H940 H 0.32876 0.49956 0.15786 0.0
H941 H 0.2997 0.5013 0.1913 0.0
H942 H 0.96525 0.49356 0.60622 0.0
H943 H 0.93303 0.45829 0.63586 0.0
H944 H 0.94541 0.40616 0.59258 0.0
H945 H 0.97746 0.44121 0.56268 0.0
H946 H 0.88366 0.41108 0.61411 0.0
H947 H 0.95196 0.39203 0.67476 0.0
H948 H 0.96367 0.42267 0.65862 0.0
H949 H 0.95807 0.3963 0.63935 0.0
C950 C 0.96164 0.47472 0.60337 0.0
C951 C 0.97401 0.47021 0.58211 0.0
C952 C 0.94307 0.45457 0.62023 0.0
C953 C 0.93692 0.42967 0.61643 0.0
C954 C 0.95008 0.42529 0.59597 0.0
H955 H 0.8318 0.27985 0.68758 0.0
H956 H 0.86467 0.31738 0.66113 0.0
C957 C 0.96839 0.44535 0.57892 0.0
C958 C 0.91537 0.40792 0.63257 0.0
H959 H 0.90463 0.36197 0.67878 0.0
C960 C 0.88816 0.4004 0.62843 0.0
C961 C 0.92139 0.394 0.651 0.0
C962 C 0.95035 0.40165 0.65646 0.0
C963 C 0.86667 0.3788 0.64171 0.0
C964 C 0.87264 0.36477 0.66021 0.0
C965 C 0.89998 0.37263 0.66459 0.0
C966 C 0.85099 0.34153 0.67481 0.0
C967 C 0.83779 0.37071 0.63501 0.0
C968 C 0.83197 0.34238 0.69109 0.0
C969 C 0.81277 0.32071 0.70597 0.0
C970 C 0.81261 0.29796 0.70525 0.0
C971 C 0.83138 0.29708 0.68862 0.0
C972 C 0.85027 0.31857 0.67354 0.0
H973 H 0.83655 0.3787 0.61532 0.0
H974 H 0.8242 0.34957 0.63473 0.0
H975 H 0.83009 0.37793 0.65031 0.0
H976 H 0.83248 0.35999 0.69296 0.0
H977 H 0.79883 0.32212 0.71886 0.0
H978 H 0.57494 0.97298 0.07073 0.0
H979 H 0.58668 0.94645 0.09677 0.0
H980 H 0.59741 0.98999 0.16658 0.0
H981 H 0.58451 0.01608 0.14081 0.0
H982 H 0.63144 0.95598 0.1266 0.0
H983 H 0.53906 0.91733 0.19011 0.0
H984 H 0.54417 0.93608 0.16009 0.0
H985 H 0.56186 0.95144 0.19015 0.0
C986 C 0.57965 0.9769 0.09165 0.0
C987 C 0.57816 0.99634 0.1038 0.0
C988 C 0.58667 0.96187 0.10645 0.0
C989 C 0.59245 0.96593 0.13372 0.0
C990 C 0.59253 0.98622 0.14565 0.0
H991 H 0.63905 0.87415 0.23075 0.0
H992 H 0.642 0.91027 0.20591 0.0
C993 C 0.58537 1.00127 0.13084 0.0
C994 C 0.59655 0.94775 0.14972 0.0
H995 H 0.56719 0.90147 0.19869 0.0
C996 C 0.61758 0.9442 0.14255 0.0
C997 C 0.57819 0.9322 0.17028 0.0
C998 C 0.5544 0.93421 0.17805 0.0
C999 C 0.62042 0.92515 0.15506 0.0
C1000 C 0.60194 0.90952 0.17546 0.0
C1001 C 0.58137 0.91354 0.18306 0.0
C1002 C 0.60208 0.88765 0.18806 0.0
C1003 C 0.64241 0.92118 0.14563 0.0
C1004 C 0.57887 0.86298 0.18601 0.0
C1005 C 0.57706 0.84248 0.20024 0.0
C1006 C 0.59847 0.84618 0.21687 0.0
C1007 C 0.62233 0.87067 0.21793 0.0
C1008 C 0.62405 0.89132 0.20374 0.0
H1009 H 0.65141 0.93133 0.12631 0.0
H1010 H 0.65891 0.92859 0.16068 0.0
H1011 H 0.63423 0.90052 0.14333 0.0
H1012 H 0.56173 0.8597 0.17395 0.0
H1013 H 0.55846 0.82384 0.19887 0.0
H1014 H 0.58463 0.55631 0.56589 0.0
H1015 H 0.60735 0.5495 0.6035 0.0
H1016 H 0.53418 0.47666 0.62129 0.0
H1017 H 0.51122 0.4832 0.58361 0.0
H1018 H 0.59375 0.53758 0.65988 0.0
H1019 H 0.59329 0.45981 0.60619 0.0
H1020 H 0.58657 0.48204 0.58945 0.0
H1021 H 0.56106 0.4569 0.61053 0.0
C1022 C 0.57315 0.53905 0.57808 0.0
C1023 C 0.54617 0.52022 0.57155 0.0
C1024 C 0.5862 0.53517 0.59956 0.0
C1025 C 0.57261 0.51236 0.61482 0.0
C1026 C 0.54516 0.49422 0.60947 0.0
H1027 H 0.65233 0.46266 0.73032 0.0
H1028 H 0.61741 0.46248 0.70193 0.0
C1029 C 0.53201 0.49812 0.58804 0.0
C1030 C 0.58787 0.50717 0.6352 0.0
H1031 H 0.6163 0.47177 0.64717 0.0
C1032 C 0.59844 0.52302 0.65728 0.0
C1033 C 0.5938 0.48803 0.63182 0.0
C1034 C 0.58329 0.47075 0.60818 0.0
C1035 C 0.61536 0.52066 0.67576 0.0
C1036 C 0.62245 0.50239 0.67165 0.0
C1037 C 0.61093 0.4858 0.65021 0.0
C1038 C 0.6435 0.50176 0.68812 0.0
C1039 C 0.62566 0.53792 0.69941 0.0
C1040 C 0.66993 0.52353 0.68899 0.0
C1041 C 0.68975 0.52369 0.70507 0.0
C1042 C 0.68375 0.50195 0.72048 0.0
C1043 C 0.65758 0.47971 0.71872 0.0
C1044 C 0.63761 0.47961 0.70261 0.0
H1045 H 0.61179 0.54443 0.70444 0.0
H1046 H 0.62786 0.52816 0.71725 0.0
H1047 H 0.6459 0.55513 0.69451 0.0
H1048 H 0.6752 0.54057 0.67735 0.0
H1049 H 0.70976 0.54106 0.70564 0.0
H1050 H 0.04482 0.59551 0.06115 0.0
H1051 H 0.06808 0.62256 0.09924 0.0
H1052 H 0.14449 0.65809 0.05688 0.0
H1053 H 0.12129 0.63111 0.01866 0.0
H1054 H 0.10731 0.62307 0.12916 0.0
H1055 H 0.1468 0.71983 0.08551 0.0
H1056 H 0.12103 0.69114 0.06934 0.0
H1057 H 0.15639 0.70158 0.06674 0.0
C1058 C 0.06654 0.60921 0.05985 0.0
C1059 C 0.08117 0.61109 0.03684 0.0
C1060 C 0.07981 0.62473 0.08162 0.0
C1061 C 0.108 0.64259 0.08088 0.0
C1062 C 0.12262 0.6449 0.05773 0.0
H1063 H 0.2194 0.70212 0.21242 0.0
H1064 H 0.19067 0.6789 0.17473 0.0
C1065 C 0.10932 0.62943 0.03587 0.0
C1066 C 0.12232 0.65735 0.10502 0.0
H1067 H 0.16569 0.71774 0.12747 0.0
C1068 C 0.11987 0.64378 0.12882 0.0
C1069 C 0.13843 0.6844 0.10475 0.0
C1070 C 0.14064 0.70012 0.08029 0.0
C1071 C 0.13374 0.65643 0.15205 0.0
C1072 C 0.15095 0.6834 0.1514 0.0
C1073 C 0.1527 0.69705 0.12789 0.0
C1074 C 0.16815 0.69761 0.17457 0.0
C1075 C 0.12977 0.64074 0.17711 0.0
C1076 C 0.16551 0.71633 0.18677 0.0
C1077 C 0.18209 0.72983 0.20842 0.0
C1078 C 0.20176 0.72497 0.2181 0.0
C1079 C 0.20437 0.70628 0.20568 0.0
C1080 C 0.18784 0.69285 0.18415 0.0
H1081 H 0.11031 0.62183 0.17666 0.0
H1082 H 0.14662 0.63732 0.17888 0.0
H1083 H 0.1299 0.65084 0.19512 0.0
H1084 H 0.15054 0.72042 0.17959 0.0
H1085 H 0.17963 0.74418 0.2174 0.0
loop_
_geom_bond_atom_site_label_1
_geom_bond_atom_site_label_2
_geom_bond_distance
_geom_bond_site_symmetry_2
_ccdc_geom_bond_type
Cu0 N1 1.999 1_454 S
Cu0 O6 1.974 1_454 S
Cu0 N11 1.985 . S
Cu0 O20 1.959 . S
N1 Cu0 1.999 1_656 S
N1 C3 1.263 . S
N1 C5 1.389 1_556 S
N2 C3 1.358 . S
N2 C4 1.400 . S
C3 N1 1.263 . S
C3 N2 1.358 . S
C3 H9 0.930 . S
C4 N2 1.400 . S
C4 C5 1.351 1_556 S
C4 H21 0.930 . S
C5 N1 1.389 1_554 S
C5 C4 1.351 1_554 S
C5 H10 0.930 . S
O6 Cu0 1.974 1_656 S
O6 C16 1.282 . S
C7 O8 1.261 . S
C7 O20 1.251 . S
O8 C7 1.261 . S
H9 C3 0.930 . S
H10 C5 0.930 . S
N11 Cu0 1.985 . S
N11 C13 1.335 . S
N11 C14 1.390 . S
N12 C13 1.345 . S
N12 C15 1.336 . S
C13 N11 1.335 . S
C13 N12 1.345 . S
C13 H18 0.930 . S
C14 N11 1.390 . S
C14 C15 1.346 . S
C14 H19 0.930 1_554 S
C15 N12 1.336 . S
C15 C14 1.346 . S
C15 H22 0.929 . S
C16 O6 1.282 . S
C16 O17 1.216 1_655 S
O17 C16 1.216 1_455 S
H18 C13 0.930 . S
H19 C14 0.930 1_556 S
O20 Cu0 1.959 . S
O20 C7 1.251 . S
H21 C4 0.930 . S
H22 C15 0.929 . S
Cu23 N24 1.999 . S
Cu23 O29 1.974 . S
Cu23 N34 1.985 1_565 S
Cu23 O43 1.959 1_565 S
N24 Cu23 1.999 . S
N24 C26 1.263 . S
N24 C28 1.389 . S
N25 C26 1.358 . S
N25 C27 1.400 . S
C26 N24 1.263 . S
C26 N25 1.358 . S
C26 H32 0.930 . S
C27 N25 1.400 . S
C27 C28 1.351 . S
C27 H44 0.930 . S
C28 N24 1.389 . S
C28 C27 1.351 . S
C28 H33 0.930 . S
O29 Cu23 1.974 . S
O29 C39 1.282 . S
C30 O31 1.261 . S
C30 O43 1.251 . S
O31 C30 1.261 . S
H32 C26 0.930 . S
H33 C28 0.930 . S
N34 Cu23 1.985 1_545 S
N34 C36 1.335 . S
N34 C37 1.390 . S
N35 C36 1.345 . S
N35 C38 1.336 . S
C36 N34 1.335 . S
C36 N35 1.345 . S
C36 H41 0.930 . S
C37 N34 1.390 . S
C37 C38 1.346 . S
C37 H42 0.930 . S
C38 N35 1.336 . S
C38 C37 1.346 . S
C38 H45 0.929 . S
C39 O29 1.282 . S
C39 O40 1.216 1_565 S
O40 C39 1.216 1_545 S
H41 C36 0.930 . S
H42 C37 0.930 . S
O43 Cu23 1.959 1_545 S
O43 C30 1.251 . S
H44 C27 0.930 . S
H45 C38 0.929 . S
Cu46 N47 1.999 1_554 S
Cu46 O52 1.974 1_554 S
Cu46 N57 1.985 . S
Cu46 O66 1.959 . S
N47 Cu46 1.999 1_556 S
N47 C49 1.263 . S
N47 C51 1.389 . S
N48 C49 1.358 . S
N48 C50 1.400 . S
C49 N47 1.263 . S
C49 N48 1.358 . S
C49 H55 0.930 . S
C50 N48 1.400 . S
C50 C51 1.351 . S
C50 H67 0.930 . S
C51 N47 1.389 . S
C51 C50 1.351 . S
C51 H56 0.930 . S
O52 Cu46 1.974 1_556 S
O52 C62 1.282 . S
C53 O54 1.261 . S
C53 O66 1.251 . S
O54 C53 1.261 . S
H55 C49 0.930 . S
H56 C51 0.930 . S
N57 Cu46 1.985 . S
N57 C59 1.335 . S
N57 C60 1.390 . S
N58 C59 1.345 . S
N58 C61 1.336 . S
C59 N57 1.335 . S
C59 N58 1.345 . S
C59 H64 0.930 . S
C60 N57 1.390 . S
C60 C61 1.346 . S
C60 H65 0.930 . S
C61 N58 1.336 . S
C61 C60 1.346 . S
C61 H68 0.929 . S
C62 O52 1.282 . S
C62 O63 1.216 1_556 S
O63 C62 1.216 1_554 S
H64 C59 0.930 . S
H65 C60 0.930 . S
O66 Cu46 1.959 . S
O66 C53 1.251 . S
H67 C50 0.930 . S
H68 C61 0.929 . S
Cu69 N70 1.999 1_655 S
Cu69 O75 1.974 1_655 S
Cu69 N80 1.985 . S
Cu69 O89 1.959 . S
N70 Cu69 1.999 1_455 S
N70 C72 1.263 . S
N70 C74 1.389 1_455 S
N71 C72 1.358 . S
N71 C73 1.400 . S
C72 N70 1.263 . S
C72 N71 1.358 . S
C72 H78 0.930 . S
C73 N71 1.400 . S
C73 C74 1.351 1_455 S
C73 H90 0.934 1_455 S
C74 N70 1.389 1_655 S
C74 C73 1.351 1_655 S
C74 H79 0.930 . S
O75 Cu69 1.974 1_455 S
O75 C85 1.282 . S
C76 O77 1.261 1_655 S
C76 O89 1.251 . S
O77 C76 1.261 1_455 S
H78 C72 0.930 . S
H79 C74 0.930 . S
N80 Cu69 1.985 . S
N80 C82 1.335 . S
N80 C83 1.390 . S
N81 C82 1.345 . S
N81 C84 1.336 . S
C82 N80 1.335 . S
C82 N81 1.345 . S
C82 H87 0.930 . S
C83 N80 1.390 . S
C83 C84 1.346 . S
C83 H88 0.930 1_655 S
C84 N81 1.336 . S
C84 C83 1.346 . S
C84 H91 0.929 . S
C85 O75 1.282 . S
C85 O86 1.216 . S
O86 C85 1.216 . S
H87 C82 0.930 . S
H88 C83 0.930 1_455 S
O89 Cu69 1.959 . S
O89 C76 1.251 . S
H90 C73 0.934 1_655 S
H91 C84 0.929 . S
Cu92 N93 1.999 . S
Cu92 O98 1.974 1_554 S
Cu92 N103 1.985 1_545 S
Cu92 O112 1.959 1_545 S
N93 Cu92 1.999 . S
N93 C95 1.263 1_554 S
N93 C97 1.389 . S
N94 C95 1.358 . S
N94 C96 1.400 . S
C95 N93 1.263 1_556 S
C95 N94 1.358 . S
C95 H101 0.930 . S
C96 N94 1.400 . S
C96 C97 1.351 1_556 S
C96 H113 0.931 . S
C97 N93 1.389 . S
C97 C96 1.351 1_554 S
C97 H102 0.930 . S
O98 Cu92 1.974 1_556 S
O98 C108 1.282 . S
C99 O100 1.261 . S
C99 O112 1.251 . S
O100 C99 1.261 . S
H101 C95 0.930 . S
H102 C97 0.930 . S
N103 Cu92 1.985 1_565 S
N103 C105 1.335 . S
N103 C106 1.390 . S
N104 C105 1.345 . S
N104 C107 1.336 . S
C105 N103 1.335 . S
C105 N104 1.345 . S
C105 H110 0.930 . S
C106 N103 1.390 . S
C106 C107 1.346 . S
C106 H111 0.930 . S
C107 N104 1.336 . S
C107 C106 1.346 . S
C107 H114 0.929 . S
C108 O98 1.282 . S
C108 O109 1.216 . S
O109 C108 1.216 . S
H110 C105 0.930 . S
H111 C106 0.930 . S
O112 Cu92 1.959 1_565 S
O112 C99 1.251 . S
H113 C96 0.931 . S
H114 C107 0.929 . S
Cu115 N116 1.999 . S
Cu115 O121 1.974 . S
Cu115 N126 1.985 . S
Cu115 O135 1.959 . S
N116 Cu115 1.999 . S
N116 C118 1.263 . S
N116 C120 1.389 . S
N117 C118 1.358 . S
N117 C119 1.400 . S
C118 N116 1.263 . S
C118 N117 1.358 . S
C118 H124 0.930 . S
C119 N117 1.400 . S
C119 C120 1.351 . S
C119 H136 0.930 . S
C120 N116 1.389 . S
C120 C119 1.351 . S
C120 H125 0.930 . S
O121 Cu115 1.974 . S
O121 C131 1.282 . S
C122 O123 1.261 . S
C122 O135 1.251 . S
O123 C122 1.261 . S
H124 C118 0.930 . S
H125 C120 0.930 . S
N126 Cu115 1.985 . S
N126 C128 1.335 . S
N126 C129 1.390 . S
N127 C128 1.345 . S
N127 C130 1.336 . S
C128 N126 1.335 . S
C128 N127 1.345 . S
C128 H133 0.930 . S
C129 N126 1.390 . S
C129 C130 1.346 . S
C129 H134 0.930 . S
C130 N127 1.336 . S
C130 C129 1.346 . S
C130 H137 0.929 . S
C131 O121 1.282 . S
C131 O132 1.216 . S
O132 C131 1.216 . S
H133 C128 0.930 . S
H134 C129 0.930 . S
O135 Cu115 1.959 . S
O135 C122 1.251 . S
H136 C119 0.930 . S
H137 C130 0.929 . S
C138 O140 1.247 . S
C138 O142 1.258 . S
C139 O146 1.247 . S
C139 O147 1.258 . S
O140 C138 1.247 . S
O140 Zn141 2.028 . S
Zn141 O140 2.028 . S
Zn141 O145 2.035 . S
Zn141 O147 2.035 . S
Zn141 O148 2.028 . S
O142 C138 1.258 . S
O142 Zn143 2.035 . S
Zn143 O142 2.035 . S
Zn143 O144 2.028 . S
Zn143 O146 2.028 . S
Zn143 O149 2.035 . S
O144 Zn143 2.028 . S
O144 C150 1.247 . S
O145 Zn141 2.035 . S
O145 C150 1.258 . S
O146 C139 1.247 . S
O146 Zn143 2.028 . S
O147 C139 1.258 . S
O147 Zn141 2.035 . S
O148 Zn141 2.028 . S
O148 C151 1.247 . S
O149 Zn143 2.035 . S
O149 C151 1.258 . S
C150 O144 1.247 . S
C150 O145 1.258 . S
C151 O148 1.247 . S
C151 O149 1.258 . S
C152 O154 1.247 . S
C152 O156 1.258 . S
C153 O160 1.247 . S
C153 O161 1.258 . S
O154 C152 1.247 . S
O154 Zn155 2.028 . S
Zn155 O154 2.028 . S
Zn155 O159 2.035 . S
Zn155 O161 2.035 . S
Zn155 O162 2.028 . S
O156 C152 1.258 . S
O156 Zn157 2.035 . S
Zn157 O156 2.035 . S
Zn157 O158 2.028 . S
Zn157 O160 2.028 . S
Zn157 O163 2.035 . S
O158 Zn157 2.028 . S
O158 C164 1.247 . S
O159 Zn155 2.035 . S
O159 C164 1.258 . S
O160 C153 1.247 . S
O160 Zn157 2.028 . S
O161 C153 1.258 . S
O161 Zn155 2.035 . S
O162 Zn155 2.028 . S
O162 C165 1.247 . S
O163 Zn157 2.035 . S
O163 C165 1.258 . S
C164 O158 1.247 . S
C164 O159 1.258 . S
C165 O162 1.247 . S
C165 O163 1.258 . S
C166 O168 1.247 . S
C166 O170 1.258 . S
C167 O174 1.247 . S
C167 O175 1.258 . S
O168 C166 1.247 . S
O168 Zn169 2.028 . S
Zn169 O168 2.028 . S
Zn169 O173 2.035 . S
Zn169 O175 2.035 . S
Zn169 O176 2.028 . S
O170 C166 1.258 . S
O170 Zn171 2.035 . S
Zn171 O170 2.035 . S
Zn171 O172 2.028 . S
Zn171 O174 2.028 . S
Zn171 O177 2.035 . S
O172 Zn171 2.028 . S
O172 C178 1.247 . S
O173 Zn169 2.035 . S
O173 C178 1.258 . S
O174 C167 1.247 . S
O174 Zn171 2.028 . S
O175 C167 1.258 . S
O175 Zn169 2.035 . S
O176 Zn169 2.028 . S
O176 C179 1.247 . S
O177 Zn171 2.035 . S
O177 C179 1.258 . S
C178 O172 1.247 . S
C178 O173 1.258 . S
C179 O176 1.247 . S
C179 O177 1.258 . S
C180 O182 1.247 . S
C180 O184 1.258 . S
C181 O188 1.247 . S
C181 O189 1.258 . S
O182 C180 1.247 . S
O182 Zn183 2.028 . S
Zn183 O182 2.028 . S
Zn183 O187 2.035 . S
Zn183 O189 2.035 . S
Zn183 O190 2.028 . S
O184 C180 1.258 . S
O184 Zn185 2.035 . S
Zn185 O184 2.035 . S
Zn185 O186 2.028 . S
Zn185 O188 2.028 . S
Zn185 O191 2.035 . S
O186 Zn185 2.028 . S
O186 C192 1.247 . S
O187 Zn183 2.035 . S
O187 C192 1.258 . S
O188 C181 1.247 . S
O188 Zn185 2.028 . S
O189 C181 1.258 . S
O189 Zn183 2.035 . S
O190 Zn183 2.028 . S
O190 C193 1.247 . S
O191 Zn185 2.035 . S
O191 C193 1.258 . S
C192 O186 1.247 . S
C192 O187 1.258 . S
C193 O190 1.247 . S
C193 O191 1.258 . S
C194 O196 1.247 . S
C194 O198 1.258 . S
C195 O202 1.247 . S
C195 O203 1.258 . S
O196 C194 1.247 . S
O196 Zn197 2.028 . S
Zn197 O196 2.028 . S
Zn197 O201 2.035 . S
Zn197 O203 2.035 . S
Zn197 O204 2.028 . S
O198 C194 1.258 . S
O198 Zn199 2.035 . S
Zn199 O198 2.035 . S
Zn199 O200 2.028 . S
Zn199 O202 2.028 . S
Zn199 O205 2.035 . S
O200 Zn199 2.028 . S
O200 C206 1.247 . S
O201 Zn197 2.035 . S
O201 C206 1.258 . S
O202 C195 1.247 . S
O202 Zn199 2.028 . S
O203 C195 1.258 . S
O203 Zn197 2.035 . S
O204 Zn197 2.028 . S
O204 C207 1.247 . S
O205 Zn199 2.035 . S
O205 C207 1.258 . S
C206 O200 1.247 . S
C206 O201 1.258 . S
C207 O204 1.247 . S
C207 O205 1.258 . S
C208 O210 1.247 . S
C208 O212 1.258 . S
C209 O216 1.247 . S
C209 O217 1.258 . S
O210 C208 1.247 . S
O210 Zn211 2.028 . S
Zn211 O210 2.028 . S
Zn211 O215 2.035 . S
Zn211 O217 2.035 . S
Zn211 O218 2.028 . S
O212 C208 1.258 . S
O212 Zn213 2.035 . S
Zn213 O212 2.035 . S
Zn213 O214 2.028 . S
Zn213 O216 2.028 . S
Zn213 O219 2.035 . S
O214 Zn213 2.028 . S
O214 C220 1.247 . S
O215 Zn211 2.035 . S
O215 C220 1.258 . S
O216 C209 1.247 . S
O216 Zn213 2.028 . S
O217 C209 1.258 . S
O217 Zn211 2.035 . S
O218 Zn211 2.028 . S
O218 C221 1.247 . S
O219 Zn213 2.035 . S
O219 C221 1.258 . S
C220 O214 1.247 . S
C220 O215 1.258 . S
C221 O218 1.247 . S
C221 O219 1.258 . S
H222 C230 0.929 . S
H223 C232 0.930 . S
H224 C234 0.930 . S
H225 C237 0.929 . S
H226 C240 0.930 . S
H227 C242 0.960 . S
H228 C242 0.960 . S
H229 C242 0.960 . S
C230 H222 0.929 . S
C230 C231 1.377 . S
C230 C232 1.384 . S
C231 C230 1.377 . S
C231 C237 1.390 . S
C232 H223 0.930 . S
C232 C230 1.384 . S
C232 C233 1.372 . S
C233 C232 1.372 . S
C233 C234 1.400 . S
C233 C238 1.490 . S
C234 H224 0.930 . S
C234 C233 1.400 . S
C234 C237 1.386 . S
H235 C251 0.930 . S
H236 C252 0.931 . S
C237 H225 0.929 . S
C237 C231 1.390 . S
C237 C234 1.386 . S
C238 C233 1.490 . S
C238 C240 1.395 . S
C238 C241 1.403 . S
H239 C245 0.930 . S
C240 H226 0.930 . S
C240 C238 1.395 . S
C240 C243 1.403 . S
C241 C238 1.403 . S
C241 C242 1.524 . S
C241 C245 1.400 . S
C242 H227 0.960 . S
C242 H228 0.960 . S
C242 H229 0.960 . S
C242 C241 1.524 . S
C243 C240 1.403 . S
C243 C244 1.392 . S
C243 C247 1.495 . S
C244 C243 1.392 . S
C244 C245 1.385 . S
C244 C246 1.478 . S
C245 H239 0.930 . S
C245 C241 1.400 . S
C245 C244 1.385 . S
C246 C244 1.478 . S
C246 C248 1.381 . S
C246 C252 1.383 . S
C247 C243 1.495 . S
C247 H253 0.959 . S
C247 H254 0.961 . S
C247 H255 0.960 . S
C248 C246 1.381 . S
C248 C249 1.394 . S
C248 H256 0.930 . S
C249 C248 1.394 . S
C249 C250 1.383 . S
C249 H257 0.929 . S
C250 C249 1.383 . S
C250 C251 1.377 . S
C251 H235 0.930 . S
C251 C250 1.377 . S
C251 C252 1.379 . S
C252 H236 0.931 . S
C252 C246 1.383 . S
C252 C251 1.379 . S
H253 C247 0.959 . S
H254 C247 0.961 . S
H255 C247 0.960 . S
H256 C248 0.930 . S
H257 C249 0.929 . S
H258 C266 0.929 . S
H259 C268 0.930 . S
H260 C270 0.930 . S
H261 C273 0.929 . S
H262 C276 0.930 . S
H263 C278 0.960 . S
H264 C278 0.960 . S
H265 C278 0.960 . S
C266 H258 0.929 . S
C266 C267 1.377 . S
C266 C268 1.384 . S
C267 C266 1.377 . S
C267 C273 1.390 . S
C268 H259 0.930 . S
C268 C266 1.384 . S
C268 C269 1.372 . S
C269 C268 1.372 . S
C269 C270 1.400 . S
C269 C274 1.490 . S
C270 H260 0.930 . S
C270 C269 1.400 . S
C270 C273 1.386 . S
H271 C287 0.930 . S
H272 C288 0.931 . S
C273 H261 0.929 . S
C273 C267 1.390 . S
C273 C270 1.386 . S
C274 C269 1.490 . S
C274 C276 1.395 . S
C274 C277 1.403 . S
H275 C281 0.930 . S
C276 H262 0.930 . S
C276 C274 1.395 . S
C276 C279 1.403 . S
C277 C274 1.403 . S
C277 C278 1.524 . S
C277 C281 1.400 . S
C278 H263 0.960 . S
C278 H264 0.960 . S
C278 H265 0.960 . S
C278 C277 1.524 . S
C279 C276 1.403 . S
C279 C280 1.392 . S
C279 C283 1.495 . S
C280 C279 1.392 . S
C280 C281 1.385 . S
C280 C282 1.478 . S
C281 H275 0.930 . S
C281 C277 1.400 . S
C281 C280 1.385 . S
C282 C280 1.478 . S
C282 C284 1.381 . S
C282 C288 1.383 . S
C283 C279 1.495 . S
C283 H289 0.959 . S
C283 H290 0.961 . S
C283 H291 0.960 . S
C284 C282 1.381 . S
C284 C285 1.394 . S
C284 H292 0.930 . S
C285 C284 1.394 . S
C285 C286 1.383 . S
C285 H293 0.929 . S
C286 C285 1.383 . S
C286 C287 1.377 . S
C287 H271 0.930 . S
C287 C286 1.377 . S
C287 C288 1.379 . S
C288 H272 0.931 . S
C288 C282 1.383 . S
C288 C287 1.379 . S
H289 C283 0.959 . S
H290 C283 0.961 . S
H291 C283 0.960 . S
H292 C284 0.930 . S
H293 C285 0.929 . S
H294 C302 0.929 . S
H295 C304 0.930 . S
H296 C306 0.930 . S
H297 C309 0.929 . S
H298 C312 0.930 . S
H299 C314 0.960 . S
H300 C314 0.960 . S
H301 C314 0.960 . S
C302 H294 0.929 . S
C302 C303 1.377 . S
C302 C304 1.384 . S
C303 C302 1.377 . S
C303 C309 1.390 . S
C304 H295 0.930 . S
C304 C302 1.384 . S
C304 C305 1.372 . S
C305 C304 1.372 . S
C305 C306 1.400 . S
C305 C310 1.490 . S
C306 H296 0.930 . S
C306 C305 1.400 . S
C306 C309 1.386 . S
H307 C323 0.930 . S
H308 C324 0.931 . S
C309 H297 0.929 . S
C309 C303 1.390 . S
C309 C306 1.386 . S
C310 C305 1.490 . S
C310 C312 1.395 . S
C310 C313 1.403 . S
H311 C317 0.930 . S
C312 H298 0.930 . S
C312 C310 1.395 . S
C312 C315 1.403 . S
C313 C310 1.403 . S
C313 C314 1.524 . S
C313 C317 1.400 . S
C314 H299 0.960 . S
C314 H300 0.960 . S
C314 H301 0.960 . S
C314 C313 1.524 . S
C315 C312 1.403 . S
C315 C316 1.392 . S
C315 C319 1.495 . S
C316 C315 1.392 . S
C316 C317 1.385 . S
C316 C318 1.478 . S
C317 H311 0.930 . S
C317 C313 1.400 . S
C317 C316 1.385 . S
C318 C316 1.478 . S
C318 C320 1.381 . S
C318 C324 1.383 . S
C319 C315 1.495 . S
C319 H325 0.959 . S
C319 H326 0.961 . S
C319 H327 0.960 . S
C320 C318 1.381 . S
C320 C321 1.394 . S
C320 H328 0.930 . S
C321 C320 1.394 . S
C321 C322 1.383 . S
C321 H329 0.929 . S
C322 C321 1.383 . S
C322 C323 1.377 . S
C323 H307 0.930 . S
C323 C322 1.377 . S
C323 C324 1.379 . S
C324 H308 0.931 . S
C324 C318 1.383 . S
C324 C323 1.379 . S
H325 C319 0.959 . S
H326 C319 0.961 . S
H327 C319 0.960 . S
H328 C320 0.930 . S
H329 C321 0.929 . S
H330 C338 0.929 . S
H331 C340 0.930 . S
H332 C342 0.930 . S
H333 C345 0.929 . S
H334 C348 0.930 . S
H335 C350 0.960 . S
H336 C350 0.960 . S
H337 C350 0.960 . S
C338 H330 0.929 . S
C338 C339 1.377 . S
C338 C340 1.384 . S
C339 C338 1.377 . S
C339 C345 1.390 . S
C340 H331 0.930 . S
C340 C338 1.384 . S
C340 C341 1.372 . S
C341 C340 1.372 . S
C341 C342 1.400 . S
C341 C346 1.490 . S
C342 H332 0.930 . S
C342 C341 1.400 . S
C342 C345 1.386 . S
H343 C359 0.930 . S
H344 C360 0.931 . S
C345 H333 0.929 . S
C345 C339 1.390 . S
C345 C342 1.386 . S
C346 C341 1.490 . S
C346 C348 1.395 . S
C346 C349 1.403 . S
H347 C353 0.930 . S
C348 H334 0.930 . S
C348 C346 1.395 . S
C348 C351 1.403 . S
C349 C346 1.403 . S
C349 C350 1.524 . S
C349 C353 1.400 . S
C350 H335 0.960 . S
C350 H336 0.960 . S
C350 H337 0.960 . S
C350 C349 1.524 . S
C351 C348 1.403 . S
C351 C352 1.392 . S
C351 C355 1.495 . S
C352 C351 1.392 . S
C352 C353 1.385 . S
C352 C354 1.478 . S
C353 H347 0.930 . S
C353 C349 1.400 . S
C353 C352 1.385 . S
C354 C352 1.478 . S
C354 C356 1.381 . S
C354 C360 1.383 . S
C355 C351 1.495 . S
C355 H361 0.959 . S
C355 H362 0.961 . S
C355 H363 0.960 . S
C356 C354 1.381 . S
C356 C357 1.394 . S
C356 H364 0.930 . S
C357 C356 1.394 . S
C357 C358 1.383 . S
C357 H365 0.929 . S
C358 C357 1.383 . S
C358 C359 1.377 . S
C359 H343 0.930 . S
C359 C358 1.377 . S
C359 C360 1.379 . S
C360 H344 0.931 . S
C360 C354 1.383 . S
C360 C359 1.379 . S
H361 C355 0.959 . S
H362 C355 0.961 . S
H363 C355 0.960 . S
H364 C356 0.930 . S
H365 C357 0.929 . S
H366 C374 0.929 . S
H367 C376 0.930 . S
H368 C378 0.930 . S
H369 C381 0.929 . S
H370 C384 0.930 . S
H371 C386 0.960 . S
H372 C386 0.960 . S
H373 C386 0.960 . S
C374 H366 0.929 . S
C374 C375 1.377 . S
C374 C376 1.384 . S
C375 C374 1.377 . S
C375 C381 1.390 . S
C376 H367 0.930 . S
C376 C374 1.384 . S
C376 C377 1.372 . S
C377 C376 1.372 . S
C377 C378 1.400 . S
C377 C382 1.490 . S
C378 H368 0.930 . S
C378 C377 1.400 . S
C378 C381 1.386 . S
H379 C395 0.930 . S
H380 C396 0.931 . S
C381 H369 0.929 . S
C381 C375 1.390 . S
C381 C378 1.386 . S
C382 C377 1.490 . S
C382 C384 1.395 . S
C382 C385 1.403 . S
H383 C389 0.930 . S
C384 H370 0.930 . S
C384 C382 1.395 . S
C384 C387 1.403 . S
C385 C382 1.403 . S
C385 C386 1.524 . S
C385 C389 1.400 . S
C386 H371 0.960 . S
C386 H372 0.960 . S
C386 H373 0.960 . S
C386 C385 1.524 . S
C387 C384 1.403 . S
C387 C388 1.392 . S
C387 C391 1.495 . S
C388 C387 1.392 . S
C388 C389 1.385 . S
C388 C390 1.478 . S
C389 H383 0.930 . S
C389 C385 1.400 . S
C389 C388 1.385 . S
C390 C388 1.478 . S
C390 C392 1.381 . S
C390 C396 1.383 . S
C391 C387 1.495 . S
C391 H397 0.959 . S
C391 H398 0.961 . S
C391 H399 0.960 . S
C392 C390 1.381 . S
C392 C393 1.394 . S
C392 H400 0.930 . S
C393 C392 1.394 . S
C393 C394 1.383 . S
C393 H401 0.929 . S
C394 C393 1.383 . S
C394 C395 1.377 . S
C395 H379 0.930 . S
C395 C394 1.377 . S
C395 C396 1.379 . S
C396 H380 0.931 . S
C396 C390 1.383 . S
C396 C395 1.379 . S
H397 C391 0.959 . S
H398 C391 0.961 . S
H399 C391 0.960 . S
H400 C392 0.930 . S
H401 C393 0.929 . S
H402 C410 0.929 . S
H403 C412 0.930 . S
H404 C414 0.930 . S
H405 C417 0.929 . S
H406 C420 0.930 . S
H407 C422 0.960 . S
H408 C422 0.960 . S
H409 C422 0.960 . S
C410 H402 0.929 . S
C410 C411 1.377 . S
C410 C412 1.384 . S
C411 C410 1.377 . S
C411 C417 1.390 . S
C412 H403 0.930 . S
C412 C410 1.384 . S
C412 C413 1.372 . S
C413 C412 1.372 . S
C413 C414 1.400 . S
C413 C418 1.490 . S
C414 H404 0.930 . S
C414 C413 1.400 . S
C414 C417 1.386 . S
H415 C431 0.930 . S
H416 C432 0.931 . S
C417 H405 0.929 . S
C417 C411 1.390 . S
C417 C414 1.386 . S
C418 C413 1.490 . S
C418 C420 1.395 . S
C418 C421 1.403 . S
H419 C425 0.930 . S
C420 H406 0.930 . S
C420 C418 1.395 . S
C420 C423 1.403 . S
C421 C418 1.403 . S
C421 C422 1.524 . S
C421 C425 1.400 . S
C422 H407 0.960 . S
C422 H408 0.960 . S
C422 H409 0.960 . S
C422 C421 1.524 . S
C423 C420 1.403 . S
C423 C424 1.392 . S
C423 C427 1.495 . S
C424 C423 1.392 . S
C424 C425 1.385 . S
C424 C426 1.478 . S
C425 H419 0.930 . S
C425 C421 1.400 . S
C425 C424 1.385 . S
C426 C424 1.478 . S
C426 C428 1.381 . S
C426 C432 1.383 . S
C427 C423 1.495 . S
C427 H433 0.959 . S
C427 H434 0.961 . S
C427 H435 0.960 . S
C428 C426 1.381 . S
C428 C429 1.394 . S
C428 H436 0.930 . S
C429 C428 1.394 . S
C429 C430 1.383 . S
C429 H437 0.929 . S
C430 C429 1.383 . S
C430 C431 1.377 . S
C431 H415 0.930 . S
C431 C430 1.377 . S
C431 C432 1.379 . S
C432 H416 0.931 . S
C432 C426 1.383 . S
C432 C431 1.379 . S
H433 C427 0.959 . S
H434 C427 0.961 . S
H435 C427 0.960 . S
H436 C428 0.930 . S
H437 C429 0.929 . S
H438 C446 0.929 . S
H439 C448 0.930 . S
H440 C450 0.930 . S
H441 C453 0.929 . S
H442 C456 0.930 . S
H443 C458 0.960 . S
H444 C458 0.960 . S
H445 C458 0.960 . S
C446 H438 0.929 . S
C446 C447 1.377 . S
C446 C448 1.384 . S
C447 C446 1.377 . S
C447 C453 1.390 . S
C448 H439 0.930 . S
C448 C446 1.384 . S
C448 C449 1.372 . S
C449 C448 1.372 . S
C449 C450 1.400 . S
C449 C454 1.490 . S
C450 H440 0.930 . S
C450 C449 1.400 . S
C450 C453 1.386 . S
H451 C467 0.930 . S
H452 C468 0.931 . S
C453 H441 0.929 . S
C453 C447 1.390 . S
C453 C450 1.386 . S
C454 C449 1.490 . S
C454 C456 1.395 . S
C454 C457 1.403 . S
H455 C461 0.930 . S
C456 H442 0.930 . S
C456 C454 1.395 . S
C456 C459 1.403 . S
C457 C454 1.403 . S
C457 C458 1.524 . S
C457 C461 1.400 . S
C458 H443 0.960 . S
C458 H444 0.960 . S
C458 H445 0.960 . S
C458 C457 1.524 . S
C459 C456 1.403 . S
C459 C460 1.392 . S
C459 C463 1.495 . S
C460 C459 1.392 . S
C460 C461 1.385 . S
C460 C462 1.478 . S
C461 H455 0.930 . S
C461 C457 1.400 . S
C461 C460 1.385 . S
C462 C460 1.478 . S
C462 C464 1.381 . S
C462 C468 1.383 . S
C463 C459 1.495 . S
C463 H469 0.959 . S
C463 H470 0.961 . S
C463 H471 0.960 . S
C464 C462 1.381 . S
C464 C465 1.394 . S
C464 H472 0.930 . S
C465 C464 1.394 . S
C465 C466 1.383 . S
C465 H473 0.929 . S
C466 C465 1.383 . S
C466 C467 1.377 . S
C467 H451 0.930 . S
C467 C466 1.377 . S
C467 C468 1.379 . S
C468 H452 0.931 . S
C468 C462 1.383 . S
C468 C467 1.379 . S
H469 C463 0.959 . S
H470 C463 0.961 . S
H471 C463 0.960 . S
H472 C464 0.930 . S
H473 C465 0.929 . S
H474 C482 0.929 . S
H475 C484 0.930 . S
H476 C486 0.930 . S
H477 C489 0.929 . S
H478 C492 0.930 . S
H479 C494 0.960 . S
H480 C494 0.960 . S
H481 C494 0.960 . S
C482 H474 0.929 . S
C482 C483 1.377 . S
C482 C484 1.384 . S
C483 C482 1.377 . S
C483 C489 1.390 . S
C484 H475 0.930 . S
C484 C482 1.384 . S
C484 C485 1.372 . S
C485 C484 1.372 . S
C485 C486 1.400 . S
C485 C490 1.490 . S
C486 H476 0.930 . S
C486 C485 1.400 . S
C486 C489 1.386 . S
H487 C503 0.930 . S
H488 C504 0.931 . S
C489 H477 0.929 . S
C489 C483 1.390 . S
C489 C486 1.386 . S
C490 C485 1.490 . S
C490 C492 1.395 . S
C490 C493 1.403 . S
H491 C497 0.930 . S
C492 H478 0.930 . S
C492 C490 1.395 . S
C492 C495 1.403 . S
C493 C490 1.403 . S
C493 C494 1.524 . S
C493 C497 1.400 . S
C494 H479 0.960 . S
C494 H480 0.960 . S
C494 H481 0.960 . S
C494 C493 1.524 . S
C495 C492 1.403 . S
C495 C496 1.392 . S
C495 C499 1.495 . S
C496 C495 1.392 . S
C496 C497 1.385 . S
C496 C498 1.478 . S
C497 H491 0.930 . S
C497 C493 1.400 . S
C497 C496 1.385 . S
C498 C496 1.478 . S
C498 C500 1.381 . S
C498 C504 1.383 . S
C499 C495 1.495 . S
C499 H505 0.959 . S
C499 H506 0.961 . S
C499 H507 0.960 . S
C500 C498 1.381 . S
C500 C501 1.394 . S
C500 H508 0.930 . S
C501 C500 1.394 . S
C501 C502 1.383 . S
C501 H509 0.929 . S
C502 C501 1.383 . S
C502 C503 1.377 . S
C503 H487 0.930 . S
C503 C502 1.377 . S
C503 C504 1.379 . S
C504 H488 0.931 . S
C504 C498 1.383 . S
C504 C503 1.379 . S
H505 C499 0.959 . S
H506 C499 0.961 . S
H507 C499 0.960 . S
H508 C500 0.930 . S
H509 C501 0.929 . S
H510 C518 0.929 . S
H511 C520 0.930 . S
H512 C522 0.930 . S
H513 C525 0.929 . S
H514 C528 0.930 . S
H515 C530 0.960 . S
H516 C530 0.960 . S
H517 C530 0.960 . S
C518 H510 0.929 . S
C518 C519 1.377 . S
C518 C520 1.384 . S
C519 C518 1.377 . S
C519 C525 1.390 . S
C520 H511 0.930 . S
C520 C518 1.384 . S
C520 C521 1.372 . S
C521 C520 1.372 . S
C521 C522 1.400 . S
C521 C526 1.490 . S
C522 H512 0.930 . S
C522 C521 1.400 . S
C522 C525 1.386 . S
H523 C539 0.930 . S
H524 C540 0.931 . S
C525 H513 0.929 . S
C525 C519 1.390 . S
C525 C522 1.386 . S
C526 C521 1.490 . S
C526 C528 1.395 . S
C526 C529 1.403 . S
H527 C533 0.930 . S
C528 H514 0.930 . S
C528 C526 1.395 . S
C528 C531 1.403 . S
C529 C526 1.403 . S
C529 C530 1.524 . S
C529 C533 1.400 . S
C530 H515 0.960 . S
C530 H516 0.960 . S
C530 H517 0.960 . S
C530 C529 1.524 . S
C531 C528 1.403 . S
C531 C532 1.392 . S
C531 C535 1.495 . S
C532 C531 1.392 . S
C532 C533 1.385 . S
C532 C534 1.478 . S
C533 H527 0.930 . S
C533 C529 1.400 . S
C533 C532 1.385 . S
C534 C532 1.478 . S
C534 C536 1.381 . S
C534 C540 1.383 . S
C535 C531 1.495 . S
C535 H541 0.959 . S
C535 H542 0.961 . S
C535 H543 0.960 . S
C536 C534 1.381 . S
C536 C537 1.394 . S
C536 H544 0.930 . S
C537 C536 1.394 . S
C537 C538 1.383 . S
C537 H545 0.929 . S
C538 C537 1.383 . S
C538 C539 1.377 . S
C539 H523 0.930 . S
C539 C538 1.377 . S
C539 C540 1.379 . S
C540 H524 0.931 . S
C540 C534 1.383 . S
C540 C539 1.379 . S
H541 C535 0.959 . S
H542 C535 0.961 . S
H543 C535 0.960 . S
H544 C536 0.930 . S
H545 C537 0.929 . S
H546 C554 0.929 . S
H547 C556 0.930 . S
H548 C558 0.930 . S
H549 C561 0.929 . S
H550 C564 0.930 . S
H551 C566 0.960 . S
H552 C566 0.960 . S
H553 C566 0.960 . S
C554 H546 0.929 . S
C554 C555 1.377 . S
C554 C556 1.384 . S
C555 C554 1.377 . S
C555 C561 1.390 . S
C556 H547 0.930 . S
C556 C554 1.384 . S
C556 C557 1.372 . S
C557 C556 1.372 . S
C557 C558 1.400 . S
C557 C562 1.490 . S
C558 H548 0.930 . S
C558 C557 1.400 . S
C558 C561 1.386 . S
H559 C575 0.930 . S
H560 C576 0.931 . S
C561 H549 0.929 . S
C561 C555 1.390 . S
C561 C558 1.386 . S
C562 C557 1.490 . S
C562 C564 1.395 . S
C562 C565 1.403 . S
H563 C569 0.930 . S
C564 H550 0.930 . S
C564 C562 1.395 . S
C564 C567 1.403 . S
C565 C562 1.403 . S
C565 C566 1.524 . S
C565 C569 1.400 . S
C566 H551 0.960 . S
C566 H552 0.960 . S
C566 H553 0.960 . S
C566 C565 1.524 . S
C567 C564 1.403 . S
C567 C568 1.392 . S
C567 C571 1.495 . S
C568 C567 1.392 . S
C568 C569 1.385 . S
C568 C570 1.478 . S
C569 H563 0.930 . S
C569 C565 1.400 . S
C569 C568 1.385 . S
C570 C568 1.478 . S
C570 C572 1.381 . S
C570 C576 1.383 . S
C571 C567 1.495 . S
C571 H577 0.959 . S
C571 H578 0.961 . S
C571 H579 0.960 . S
C572 C570 1.381 . S
C572 C573 1.394 . S
C572 H580 0.930 . S
C573 C572 1.394 . S
C573 C574 1.383 . S
C573 H581 0.929 . S
C574 C573 1.383 . S
C574 C575 1.377 . S
C575 H559 0.930 . S
C575 C574 1.377 . S
C575 C576 1.379 . S
C576 H560 0.931 . S
C576 C570 1.383 . S
C576 C575 1.379 . S
H577 C571 0.959 . S
H578 C571 0.961 . S
H579 C571 0.960 . S
H580 C572 0.930 . S
H581 C573 0.929 . S
H582 C590 0.929 . S
H583 C592 0.930 . S
H584 C594 0.930 . S
H585 C597 0.929 . S
H586 C600 0.930 . S
H587 C602 0.960 . S
H588 C602 0.960 . S
H589 C602 0.960 . S
C590 H582 0.929 . S
C590 C591 1.377 . S
C590 C592 1.384 . S
C591 C590 1.377 . S
C591 C597 1.390 . S
C592 H583 0.930 . S
C592 C590 1.384 . S
C592 C593 1.372 . S
C593 C592 1.372 . S
C593 C594 1.400 . S
C593 C598 1.490 . S
C594 H584 0.930 . S
C594 C593 1.400 . S
C594 C597 1.386 . S
H595 C611 0.930 . S
H596 C612 0.931 . S
C597 H585 0.929 . S
C597 C591 1.390 . S
C597 C594 1.386 . S
C598 C593 1.490 . S
C598 C600 1.395 . S
C598 C601 1.403 . S
H599 C605 0.930 . S
C600 H586 0.930 . S
C600 C598 1.395 . S
C600 C603 1.403 . S
C601 C598 1.403 . S
C601 C602 1.524 . S
C601 C605 1.400 . S
C602 H587 0.960 . S
C602 H588 0.960 . S
C602 H589 0.960 . S
C602 C601 1.524 . S
C603 C600 1.403 . S
C603 C604 1.392 . S
C603 C607 1.495 . S
C604 C603 1.392 . S
C604 C605 1.385 . S
C604 C606 1.478 . S
C605 H599 0.930 . S
C605 C601 1.400 . S
C605 C604 1.385 . S
C606 C604 1.478 . S
C606 C608 1.381 . S
C606 C612 1.383 . S
C607 C603 1.495 . S
C607 H613 0.959 . S
C607 H614 0.961 . S
C607 H615 0.960 . S
C608 C606 1.381 . S
C608 C609 1.394 . S
C608 H616 0.930 . S
C609 C608 1.394 . S
C609 C610 1.383 . S
C609 H617 0.929 . S
C610 C609 1.383 . S
C610 C611 1.377 . S
C611 H595 0.930 . S
C611 C610 1.377 . S
C611 C612 1.379 . S
C612 H596 0.931 . S
C612 C606 1.383 . S
C612 C611 1.379 . S
H613 C607 0.959 . S
H614 C607 0.961 . S
H615 C607 0.960 . S
H616 C608 0.930 . S
H617 C609 0.929 . S
H618 C626 0.929 . S
H619 C628 0.930 . S
H620 C630 0.930 . S
H621 C633 0.929 . S
H622 C636 0.930 . S
H623 C638 0.960 . S
H624 C638 0.960 . S
H625 C638 0.960 . S
C626 H618 0.929 . S
C626 C627 1.377 . S
C626 C628 1.384 . S
C627 C626 1.377 . S
C627 C633 1.390 . S
C628 H619 0.930 . S
C628 C626 1.384 . S
C628 C629 1.372 . S
C629 C628 1.372 . S
C629 C630 1.400 . S
C629 C634 1.490 . S
C630 H620 0.930 . S
C630 C629 1.400 . S
C630 C633 1.386 . S
H631 C647 0.930 . S
H632 C648 0.931 . S
C633 H621 0.929 . S
C633 C627 1.390 . S
C633 C630 1.386 . S
C634 C629 1.490 . S
C634 C636 1.395 . S
C634 C637 1.403 . S
H635 C641 0.930 . S
C636 H622 0.930 . S
C636 C634 1.395 . S
C636 C639 1.403 . S
C637 C634 1.403 . S
C637 C638 1.524 . S
C637 C641 1.400 . S
C638 H623 0.960 . S
C638 H624 0.960 . S
C638 H625 0.960 . S
C638 C637 1.524 . S
C639 C636 1.403 . S
C639 C640 1.392 . S
C639 C643 1.495 . S
C640 C639 1.392 . S
C640 C641 1.385 . S
C640 C642 1.478 . S
C641 H635 0.930 . S
C641 C637 1.400 . S
C641 C640 1.385 . S
C642 C640 1.478 . S
C642 C644 1.381 . S
C642 C648 1.383 . S
C643 C639 1.495 . S
C643 H649 0.959 . S
C643 H650 0.961 . S
C643 H651 0.960 . S
C644 C642 1.381 . S
C644 C645 1.394 . S
C644 H652 0.930 . S
C645 C644 1.394 . S
C645 C646 1.383 . S
C645 H653 0.929 . S
C646 C645 1.383 . S
C646 C647 1.377 . S
C647 H631 0.930 . S
C647 C646 1.377 . S
C647 C648 1.379 . S
C648 H632 0.931 . S
C648 C642 1.383 . S
C648 C647 1.379 . S
H649 C643 0.959 . S
H650 C643 0.961 . S
H651 C643 0.960 . S
H652 C644 0.930 . S
H653 C645 0.929 . S
H654 C662 0.929 . S
H655 C664 0.930 . S
H656 C666 0.930 . S
H657 C669 0.929 . S
H658 C672 0.930 . S
H659 C674 0.960 . S
H660 C674 0.960 . S
H661 C674 0.960 . S
C662 H654 0.929 . S
C662 C663 1.377 . S
C662 C664 1.384 . S
C663 C662 1.377 . S
C663 C669 1.390 . S
C664 H655 0.930 . S
C664 C662 1.384 . S
C664 C665 1.372 . S
C665 C664 1.372 . S
C665 C666 1.400 . S
C665 C670 1.490 . S
C666 H656 0.930 . S
C666 C665 1.400 . S
C666 C669 1.386 . S
H667 C683 0.930 . S
H668 C684 0.931 . S
C669 H657 0.929 . S
C669 C663 1.390 . S
C669 C666 1.386 . S
C670 C665 1.490 . S
C670 C672 1.395 . S
C670 C673 1.403 . S
H671 C677 0.930 . S
C672 H658 0.930 . S
C672 C670 1.395 . S
C672 C675 1.403 . S
C673 C670 1.403 . S
C673 C674 1.524 . S
C673 C677 1.400 . S
C674 H659 0.960 . S
C674 H660 0.960 . S
C674 H661 0.960 . S
C674 C673 1.524 . S
C675 C672 1.403 . S
C675 C676 1.392 . S
C675 C679 1.495 . S
C676 C675 1.392 . S
C676 C677 1.385 . S
C676 C678 1.478 . S
C677 H671 0.930 . S
C677 C673 1.400 . S
C677 C676 1.385 . S
C678 C676 1.478 . S
C678 C680 1.381 . S
C678 C684 1.383 . S
C679 C675 1.495 . S
C679 H685 0.959 . S
C679 H686 0.961 . S
C679 H687 0.960 . S
C680 C678 1.381 . S
C680 C681 1.394 . S
C680 H688 0.930 . S
C681 C680 1.394 . S
C681 C682 1.383 . S
C681 H689 0.929 . S
C682 C681 1.383 . S
C682 C683 1.377 . S
C683 H667 0.930 . S
C683 C682 1.377 . S
C683 C684 1.379 . S
C684 H668 0.931 . S
C684 C678 1.383 . S
C684 C683 1.379 . S
H685 C679 0.959 . S
H686 C679 0.961 . S
H687 C679 0.960 . S
H688 C680 0.930 . S
H689 C681 0.929 . S
H690 C698 0.929 . S
H691 C700 0.930 . S
H692 C702 0.930 . S
H693 C705 0.929 . S
H694 C708 0.930 . S
H695 C710 0.960 . S
H696 C710 0.960 . S
H697 C710 0.960 . S
C698 H690 0.929 . S
C698 C699 1.377 . S
C698 C700 1.384 . S
C699 C698 1.377 . S
C699 C705 1.390 . S
C700 H691 0.930 . S
C700 C698 1.384 . S
C700 C701 1.372 . S
C701 C700 1.372 . S
C701 C702 1.400 . S
C701 C706 1.490 . S
C702 H692 0.930 . S
C702 C701 1.400 . S
C702 C705 1.386 . S
H703 C719 0.930 . S
H704 C720 0.931 . S
C705 H693 0.929 . S
C705 C699 1.390 . S
C705 C702 1.386 . S
C706 C701 1.490 . S
C706 C708 1.395 . S
C706 C709 1.403 . S
H707 C713 0.930 . S
C708 H694 0.930 . S
C708 C706 1.395 . S
C708 C711 1.403 . S
C709 C706 1.403 . S
C709 C710 1.524 . S
C709 C713 1.400 . S
C710 H695 0.960 . S
C710 H696 0.960 . S
C710 H697 0.960 . S
C710 C709 1.524 . S
C711 C708 1.403 . S
C711 C712 1.392 . S
C711 C715 1.495 . S
C712 C711 1.392 . S
C712 C713 1.385 . S
C712 C714 1.478 . S
C713 H707 0.930 . S
C713 C709 1.400 . S
C713 C712 1.385 . S
C714 C712 1.478 . S
C714 C716 1.381 . S
C714 C720 1.383 . S
C715 C711 1.495 . S
C715 H721 0.959 . S
C715 H722 0.961 . S
C715 H723 0.960 . S
C716 C714 1.381 . S
C716 C717 1.394 . S
C716 H724 0.930 . S
C717 C716 1.394 . S
C717 C718 1.383 . S
C717 H725 0.929 . S
C718 C717 1.383 . S
C718 C719 1.377 . S
C719 H703 0.930 . S
C719 C718 1.377 . S
C719 C720 1.379 . S
C720 H704 0.931 . S
C720 C714 1.383 . S
C720 C719 1.379 . S
H721 C715 0.959 . S
H722 C715 0.961 . S
H723 C715 0.960 . S
H724 C716 0.930 . S
H725 C717 0.929 . S
H726 C734 0.929 . S
H727 C736 0.930 . S
H728 C738 0.930 . S
H729 C741 0.929 . S
H730 C744 0.930 . S
H731 C746 0.960 . S
H732 C746 0.960 . S
H733 C746 0.960 . S
C734 H726 0.929 . S
C734 C735 1.377 . S
C734 C736 1.384 . S
C735 C734 1.377 . S
C735 C741 1.390 . S
C736 H727 0.930 . S
C736 C734 1.384 . S
C736 C737 1.372 . S
C737 C736 1.372 . S
C737 C738 1.400 . S
C737 C742 1.490 . S
C738 H728 0.930 . S
C738 C737 1.400 . S
C738 C741 1.386 . S
H739 C755 0.930 . S
H740 C756 0.931 . S
C741 H729 0.929 . S
C741 C735 1.390 . S
C741 C738 1.386 . S
C742 C737 1.490 . S
C742 C744 1.395 . S
C742 C745 1.403 . S
H743 C749 0.930 . S
C744 H730 0.930 . S
C744 C742 1.395 . S
C744 C747 1.403 . S
C745 C742 1.403 . S
C745 C746 1.524 . S
C745 C749 1.400 . S
C746 H731 0.960 . S
C746 H732 0.960 . S
C746 H733 0.960 . S
C746 C745 1.524 . S
C747 C744 1.403 . S
C747 C748 1.392 . S
C747 C751 1.495 . S
C748 C747 1.392 . S
C748 C749 1.385 . S
C748 C750 1.478 . S
C749 H743 0.930 . S
C749 C745 1.400 . S
C749 C748 1.385 . S
C750 C748 1.478 . S
C750 C752 1.381 . S
C750 C756 1.383 . S
C751 C747 1.495 . S
C751 H757 0.959 . S
C751 H758 0.961 . S
C751 H759 0.960 . S
C752 C750 1.381 . S
C752 C753 1.394 . S
C752 H760 0.930 . S
C753 C752 1.394 . S
C753 C754 1.383 . S
C753 H761 0.929 . S
C754 C753 1.383 . S
C754 C755 1.377 . S
C755 H739 0.930 . S
C755 C754 1.377 . S
C755 C756 1.379 . S
C756 H740 0.931 . S
C756 C750 1.383 . S
C756 C755 1.379 . S
H757 C751 0.959 . S
H758 C751 0.961 . S
H759 C751 0.960 . S
H760 C752 0.930 . S
H761 C753 0.929 . S
H762 C770 0.929 . S
H763 C772 0.930 . S
H764 C774 0.930 . S
H765 C777 0.929 . S
H766 C780 0.930 . S
H767 C782 0.960 . S
H768 C782 0.960 . S
H769 C782 0.960 . S
C770 H762 0.929 . S
C770 C771 1.377 . S
C770 C772 1.384 . S
C771 C770 1.377 . S
C771 C777 1.390 . S
C772 H763 0.930 . S
C772 C770 1.384 . S
C772 C773 1.372 . S
C773 C772 1.372 . S
C773 C774 1.400 . S
C773 C778 1.490 . S
C774 H764 0.930 . S
C774 C773 1.400 . S
C774 C777 1.386 . S
H775 C791 0.930 . S
H776 C792 0.931 . S
C777 H765 0.929 . S
C777 C771 1.390 . S
C777 C774 1.386 . S
C778 C773 1.490 . S
C778 C780 1.395 . S
C778 C781 1.403 . S
H779 C785 0.930 . S
C780 H766 0.930 . S
C780 C778 1.395 . S
C780 C783 1.403 . S
C781 C778 1.403 . S
C781 C782 1.524 . S
C781 C785 1.400 . S
C782 H767 0.960 . S
C782 H768 0.960 . S
C782 H769 0.960 . S
C782 C781 1.524 . S
C783 C780 1.403 . S
C783 C784 1.392 . S
C783 C787 1.495 . S
C784 C783 1.392 . S
C784 C785 1.385 . S
C784 C786 1.478 . S
C785 H779 0.930 . S
C785 C781 1.400 . S
C785 C784 1.385 . S
C786 C784 1.478 . S
C786 C788 1.381 . S
C786 C792 1.383 . S
C787 C783 1.495 . S
C787 H793 0.959 . S
C787 H794 0.961 . S
C787 H795 0.960 . S
C788 C786 1.381 . S
C788 C789 1.394 . S
C788 H796 0.930 . S
C789 C788 1.394 . S
C789 C790 1.383 . S
C789 H797 0.929 . S
C790 C789 1.383 . S
C790 C791 1.377 . S
C791 H775 0.930 . S
C791 C790 1.377 . S
C791 C792 1.379 . S
C792 H776 0.931 . S
C792 C786 1.383 . S
C792 C791 1.379 . S
H793 C787 0.959 . S
H794 C787 0.961 . S
H795 C787 0.960 . S
H796 C788 0.930 . S
H797 C789 0.929 . S
H798 C806 0.929 . S
H799 C808 0.930 . S
H800 C810 0.930 . S
H801 C813 0.929 . S
H802 C816 0.930 . S
H803 C818 0.960 . S
H804 C818 0.960 . S
H805 C818 0.960 . S
C806 H798 0.929 . S
C806 C807 1.377 . S
C806 C808 1.384 . S
C807 C806 1.377 . S
C807 C813 1.390 . S
C808 H799 0.930 . S
C808 C806 1.384 . S
C808 C809 1.372 . S
C809 C808 1.372 . S
C809 C810 1.400 . S
C809 C814 1.490 . S
C810 H800 0.930 . S
C810 C809 1.400 . S
C810 C813 1.386 . S
H811 C827 0.930 . S
H812 C828 0.931 . S
C813 H801 0.929 . S
C813 C807 1.390 . S
C813 C810 1.386 . S
C814 C809 1.490 . S
C814 C816 1.395 . S
C814 C817 1.403 . S
H815 C821 0.930 . S
C816 H802 0.930 . S
C816 C814 1.395 . S
C816 C819 1.403 . S
C817 C814 1.403 . S
C817 C818 1.524 . S
C817 C821 1.400 . S
C818 H803 0.960 . S
C818 H804 0.960 . S
C818 H805 0.960 . S
C818 C817 1.524 . S
C819 C816 1.403 . S
C819 C820 1.392 . S
C819 C823 1.495 . S
C820 C819 1.392 . S
C820 C821 1.385 . S
C820 C822 1.478 . S
C821 H815 0.930 . S
C821 C817 1.400 . S
C821 C820 1.385 . S
C822 C820 1.478 . S
C822 C824 1.381 . S
C822 C828 1.383 . S
C823 C819 1.495 . S
C823 H829 0.959 . S
C823 H830 0.961 . S
C823 H831 0.960 . S
C824 C822 1.381 . S
C824 C825 1.394 . S
C824 H832 0.930 . S
C825 C824 1.394 . S
C825 C826 1.383 . S
C825 H833 0.929 . S
C826 C825 1.383 . S
C826 C827 1.377 . S
C827 H811 0.930 . S
C827 C826 1.377 . S
C827 C828 1.379 . S
C828 H812 0.931 . S
C828 C822 1.383 . S
C828 C827 1.379 . S
H829 C823 0.959 . S
H830 C823 0.961 . S
H831 C823 0.960 . S
H832 C824 0.930 . S
H833 C825 0.929 . S
H834 C842 0.929 . S
H835 C844 0.930 . S
H836 C846 0.930 . S
H837 C849 0.929 . S
H838 C852 0.930 . S
H839 C854 0.960 . S
H840 C854 0.960 . S
H841 C854 0.960 . S
C842 H834 0.929 . S
C842 C843 1.377 . S
C842 C844 1.384 . S
C843 C842 1.377 . S
C843 C849 1.390 . S
C844 H835 0.930 . S
C844 C842 1.384 . S
C844 C845 1.372 . S
C845 C844 1.372 . S
C845 C846 1.400 . S
C845 C850 1.490 . S
C846 H836 0.930 . S
C846 C845 1.400 . S
C846 C849 1.386 . S
H847 C863 0.930 . S
H848 C864 0.931 . S
C849 H837 0.929 . S
C849 C843 1.390 . S
C849 C846 1.386 . S
C850 C845 1.490 . S
C850 C852 1.395 . S
C850 C853 1.403 . S
H851 C857 0.930 . S
C852 H838 0.930 . S
C852 C850 1.395 . S
C852 C855 1.403 . S
C853 C850 1.403 . S
C853 C854 1.524 . S
C853 C857 1.400 . S
C854 H839 0.960 . S
C854 H840 0.960 . S
C854 H841 0.960 . S
C854 C853 1.524 . S
C855 C852 1.403 . S
C855 C856 1.392 . S
C855 C859 1.495 . S
C856 C855 1.392 . S
C856 C857 1.385 . S
C856 C858 1.478 . S
C857 H851 0.930 . S
C857 C853 1.400 . S
C857 C856 1.385 . S
C858 C856 1.478 . S
C858 C860 1.381 . S
C858 C864 1.383 . S
C859 C855 1.495 . S
C859 H865 0.959 . S
C859 H866 0.961 . S
C859 H867 0.960 . S
C860 C858 1.381 . S
C860 C861 1.394 . S
C860 H868 0.930 . S
C861 C860 1.394 . S
C861 C862 1.383 . S
C861 H869 0.929 . S
C862 C861 1.383 . S
C862 C863 1.377 . S
C863 H847 0.930 . S
C863 C862 1.377 . S
C863 C864 1.379 . S
C864 H848 0.931 . S
C864 C858 1.383 . S
C864 C863 1.379 . S
H865 C859 0.959 . S
H866 C859 0.961 . S
H867 C859 0.960 . S
H868 C860 0.930 . S
H869 C861 0.929 . S
H870 C878 0.929 . S
H871 C880 0.930 . S
H872 C882 0.930 . S
H873 C885 0.929 . S
H874 C888 0.930 . S
H875 C890 0.960 . S
H876 C890 0.960 . S
H877 C890 0.960 . S
C878 H870 0.929 . S
C878 C879 1.377 . S
C878 C880 1.384 . S
C879 C878 1.377 . S
C879 C885 1.390 . S
C880 H871 0.930 . S
C880 C878 1.384 . S
C880 C881 1.372 . S
C881 C880 1.372 . S
C881 C882 1.400 . S
C881 C886 1.490 . S
C882 H872 0.930 . S
C882 C881 1.400 . S
C882 C885 1.386 . S
H883 C899 0.930 . S
H884 C900 0.931 . S
C885 H873 0.929 . S
C885 C879 1.390 . S
C885 C882 1.386 . S
C886 C881 1.490 . S
C886 C888 1.395 . S
C886 C889 1.403 . S
H887 C893 0.930 . S
C888 H874 0.930 . S
C888 C886 1.395 . S
C888 C891 1.403 . S
C889 C886 1.403 . S
C889 C890 1.524 . S
C889 C893 1.400 . S
C890 H875 0.960 . S
C890 H876 0.960 . S
C890 H877 0.960 . S
C890 C889 1.524 . S
C891 C888 1.403 . S
C891 C892 1.392 . S
C891 C895 1.495 . S
C892 C891 1.392 . S
C892 C893 1.385 . S
C892 C894 1.478 . S
C893 H887 0.930 . S
C893 C889 1.400 . S
C893 C892 1.385 . S
C894 C892 1.478 . S
C894 C896 1.381 . S
C894 C900 1.383 . S
C895 C891 1.495 . S
C895 H901 0.959 . S
C895 H902 0.961 . S
C895 H903 0.960 . S
C896 C894 1.381 . S
C896 C897 1.394 . S
C896 H904 0.930 . S
C897 C896 1.394 . S
C897 C898 1.383 . S
C897 H905 0.929 . S
C898 C897 1.383 . S
C898 C899 1.377 . S
C899 H883 0.930 . S
C899 C898 1.377 . S
C899 C900 1.379 . S
C900 H884 0.931 . S
C900 C894 1.383 . S
C900 C899 1.379 . S
H901 C895 0.959 . S
H902 C895 0.961 . S
H903 C895 0.960 . S
H904 C896 0.930 . S
H905 C897 0.929 . S
H906 C914 0.929 . S
H907 C916 0.930 . S
H908 C918 0.930 . S
H909 C921 0.929 . S
H910 C924 0.930 . S
H911 C926 0.960 . S
H912 C926 0.960 . S
H913 C926 0.960 . S
C914 H906 0.929 . S
C914 C915 1.377 . S
C914 C916 1.384 . S
C915 C914 1.377 . S
C915 C921 1.390 . S
C916 H907 0.930 . S
C916 C914 1.384 . S
C916 C917 1.372 . S
C917 C916 1.372 . S
C917 C918 1.400 . S
C917 C922 1.490 . S
C918 H908 0.930 . S
C918 C917 1.400 . S
C918 C921 1.386 . S
H919 C935 0.930 . S
H920 C936 0.931 . S
C921 H909 0.929 . S
C921 C915 1.390 . S
C921 C918 1.386 . S
C922 C917 1.490 . S
C922 C924 1.395 . S
C922 C925 1.403 . S
H923 C929 0.930 . S
C924 H910 0.930 . S
C924 C922 1.395 . S
C924 C927 1.403 . S
C925 C922 1.403 . S
C925 C926 1.524 . S
C925 C929 1.400 . S
C926 H911 0.960 . S
C926 H912 0.960 . S
C926 H913 0.960 . S
C926 C925 1.524 . S
C927 C924 1.403 . S
C927 C928 1.392 . S
C927 C931 1.495 . S
C928 C927 1.392 . S
C928 C929 1.385 . S
C928 C930 1.478 . S
C929 H923 0.930 . S
C929 C925 1.400 . S
C929 C928 1.385 . S
C930 C928 1.478 . S
C930 C932 1.381 . S
C930 C936 1.383 . S
C931 C927 1.495 . S
C931 H937 0.959 . S
C931 H938 0.961 . S
C931 H939 0.960 . S
C932 C930 1.381 . S
C932 C933 1.394 . S
C932 H940 0.930 . S
C933 C932 1.394 . S
C933 C934 1.383 . S
C933 H941 0.929 . S
C934 C933 1.383 . S
C934 C935 1.377 . S
C935 H919 0.930 . S
C935 C934 1.377 . S
C935 C936 1.379 . S
C936 H920 0.931 . S
C936 C930 1.383 . S
C936 C935 1.379 . S
H937 C931 0.959 . S
H938 C931 0.961 . S
H939 C931 0.960 . S
H940 C932 0.930 . S
H941 C933 0.929 . S
H942 C950 0.929 . S
H943 C952 0.930 . S
H944 C954 0.930 . S
H945 C957 0.929 . S
H946 C960 0.930 . S
H947 C962 0.960 . S
H948 C962 0.960 . S
H949 C962 0.960 . S
C950 H942 0.929 . S
C950 C951 1.377 . S
C950 C952 1.384 . S
C951 C950 1.377 . S
C951 C957 1.390 . S
C952 H943 0.930 . S
C952 C950 1.384 . S
C952 C953 1.372 . S
C953 C952 1.372 . S
C953 C954 1.400 . S
C953 C958 1.490 . S
C954 H944 0.930 . S
C954 C953 1.400 . S
C954 C957 1.386 . S
H955 C971 0.930 . S
H956 C972 0.931 . S
C957 H945 0.929 . S
C957 C951 1.390 . S
C957 C954 1.386 . S
C958 C953 1.490 . S
C958 C960 1.395 . S
C958 C961 1.403 . S
H959 C965 0.930 . S
C960 H946 0.930 . S
C960 C958 1.395 . S
C960 C963 1.403 . S
C961 C958 1.403 . S
C961 C962 1.524 . S
C961 C965 1.400 . S
C962 H947 0.960 . S
C962 H948 0.960 . S
C962 H949 0.960 . S
C962 C961 1.524 . S
C963 C960 1.403 . S
C963 C964 1.392 . S
C963 C967 1.495 . S
C964 C963 1.392 . S
C964 C965 1.385 . S
C964 C966 1.478 . S
C965 H959 0.930 . S
C965 C961 1.400 . S
C965 C964 1.385 . S
C966 C964 1.478 . S
C966 C968 1.381 . S
C966 C972 1.383 . S
C967 C963 1.495 . S
C967 H973 0.959 . S
C967 H974 0.961 . S
C967 H975 0.960 . S
C968 C966 1.381 . S
C968 C969 1.394 . S
C968 H976 0.930 . S
C969 C968 1.394 . S
C969 C970 1.383 . S
C969 H977 0.929 . S
C970 C969 1.383 . S
C970 C971 1.377 . S
C971 H955 0.930 . S
C971 C970 1.377 . S
C971 C972 1.379 . S
C972 H956 0.931 . S
C972 C966 1.383 . S
C972 C971 1.379 . S
H973 C967 0.959 . S
H974 C967 0.961 . S
H975 C967 0.960 . S
H976 C968 0.930 . S
H977 C969 0.929 . S
H978 C986 0.929 . S
H979 C988 0.930 . S
H980 C990 0.930 . S
H981 C993 0.929 . S
H982 C996 0.930 . S
H983 C998 0.960 . S
H984 C998 0.960 . S
H985 C998 0.960 . S
C986 H978 0.929 . S
C986 C987 1.377 . S
C986 C988 1.384 . S
C987 C986 1.377 . S
C987 C993 1.390 . S
C988 H979 0.930 . S
C988 C986 1.384 . S
C988 C989 1.372 . S
C989 C988 1.372 . S
C989 C990 1.400 . S
C989 C994 1.490 . S
C990 H980 0.930 . S
C990 C989 1.400 . S
C990 C993 1.386 . S
H991 C1007 0.930 . S
H992 C1008 0.931 . S
C993 H981 0.929 . S
C993 C987 1.390 . S
C993 C990 1.386 . S
C994 C989 1.490 . S
C994 C996 1.395 . S
C994 C997 1.403 . S
H995 C1001 0.930 . S
C996 H982 0.930 . S
C996 C994 1.395 . S
C996 C999 1.403 . S
C997 C994 1.403 . S
C997 C998 1.524 . S
C997 C1001 1.400 . S
C998 H983 0.960 . S
C998 H984 0.960 . S
C998 H985 0.960 . S
C998 C997 1.524 . S
C999 C996 1.403 . S
C999 C1000 1.392 . S
C999 C1003 1.495 . S
C1000 C999 1.392 . S
C1000 C1001 1.385 . S
C1000 C1002 1.478 . S
C1001 H995 0.930 . S
C1001 C997 1.400 . S
C1001 C1000 1.385 . S
C1002 C1000 1.478 . S
C1002 C1004 1.381 . S
C1002 C1008 1.383 . S
C1003 C999 1.495 . S
C1003 H1009 0.959 . S
C1003 H1010 0.961 . S
C1003 H1011 0.960 . S
C1004 C1002 1.381 . S
C1004 C1005 1.394 . S
C1004 H1012 0.930 . S
C1005 C1004 1.394 . S
C1005 C1006 1.383 . S
C1005 H1013 0.929 . S
C1006 C1005 1.383 . S
C1006 C1007 1.377 . S
C1007 H991 0.930 . S
C1007 C1006 1.377 . S
C1007 C1008 1.379 . S
C1008 H992 0.931 . S
C1008 C1002 1.383 . S
C1008 C1007 1.379 . S
H1009 C1003 0.959 . S
H1010 C1003 0.961 . S
H1011 C1003 0.960 . S
H1012 C1004 0.930 . S
H1013 C1005 0.929 . S
H1014 C1022 0.929 . S
H1015 C1024 0.930 . S
H1016 C1026 0.930 . S
H1017 C1029 0.929 . S
H1018 C1032 0.930 . S
H1019 C1034 0.960 . S
H1020 C1034 0.960 . S
H1021 C1034 0.960 . S
C1022 H1014 0.929 . S
C1022 C1023 1.377 . S
C1022 C1024 1.384 . S
C1023 C1022 1.377 . S
C1023 C1029 1.390 . S
C1024 H1015 0.930 . S
C1024 C1022 1.384 . S
C1024 C1025 1.372 . S
C1025 C1024 1.372 . S
C1025 C1026 1.400 . S
C1025 C1030 1.490 . S
C1026 H1016 0.930 . S
C1026 C1025 1.400 . S
C1026 C1029 1.386 . S
H1027 C1043 0.930 . S
H1028 C1044 0.931 . S
C1029 H1017 0.929 . S
C1029 C1023 1.390 . S
C1029 C1026 1.386 . S
C1030 C1025 1.490 . S
C1030 C1032 1.395 . S
C1030 C1033 1.403 . S
H1031 C1037 0.930 . S
C1032 H1018 0.930 . S
C1032 C1030 1.395 . S
C1032 C1035 1.403 . S
C1033 C1030 1.403 . S
C1033 C1034 1.524 . S
C1033 C1037 1.400 . S
C1034 H1019 0.960 . S
C1034 H1020 0.960 . S
C1034 H1021 0.960 . S
C1034 C1033 1.524 . S
C1035 C1032 1.403 . S
C1035 C1036 1.392 . S
C1035 C1039 1.495 . S
C1036 C1035 1.392 . S
C1036 C1037 1.385 . S
C1036 C1038 1.478 . S
C1037 H1031 0.930 . S
C1037 C1033 1.400 . S
C1037 C1036 1.385 . S
C1038 C1036 1.478 . S
C1038 C1040 1.381 . S
C1038 C1044 1.383 . S
C1039 C1035 1.495 . S
C1039 H1045 0.959 . S
C1039 H1046 0.961 . S
C1039 H1047 0.960 . S
C1040 C1038 1.381 . S
C1040 C1041 1.394 . S
C1040 H1048 0.930 . S
C1041 C1040 1.394 . S
C1041 C1042 1.383 . S
C1041 H1049 0.929 . S
C1042 C1041 1.383 . S
C1042 C1043 1.377 . S
C1043 H1027 0.930 . S
C1043 C1042 1.377 . S
C1043 C1044 1.379 . S
C1044 H1028 0.931 . S
C1044 C1038 1.383 . S
C1044 C1043 1.379 . S
H1045 C1039 0.959 . S
H1046 C1039 0.961 . S
H1047 C1039 0.960 . S
H1048 C1040 0.930 . S
H1049 C1041 0.929 . S
H1050 C1058 0.929 . S
H1051 C1060 0.930 . S
H1052 C1062 0.930 . S
H1053 C1065 0.929 . S
H1054 C1068 0.930 . S
H1055 C1070 0.960 . S
H1056 C1070 0.960 . S
H1057 C1070 0.960 . S
C1058 H1050 0.929 . S
C1058 C1059 1.377 . S
C1058 C1060 1.384 . S
C1059 C1058 1.377 . S
C1059 C1065 1.390 . S
C1060 H1051 0.930 . S
C1060 C1058 1.384 . S
C1060 C1061 1.372 . S
C1061 C1060 1.372 . S
C1061 C1062 1.400 . S
C1061 C1066 1.490 . S
C1062 H1052 0.930 . S
C1062 C1061 1.400 . S
C1062 C1065 1.386 . S
H1063 C1079 0.930 . S
H1064 C1080 0.931 . S
C1065 H1053 0.929 . S
C1065 C1059 1.390 . S
C1065 C1062 1.386 . S
C1066 C1061 1.490 . S
C1066 C1068 1.395 . S
C1066 C1069 1.403 . S
H1067 C1073 0.930 . S
C1068 H1054 0.930 . S
C1068 C1066 1.395 . S
C1068 C1071 1.403 . S
C1069 C1066 1.403 . S
C1069 C1070 1.524 . S
C1069 C1073 1.400 . S
C1070 H1055 0.960 . S
C1070 H1056 0.960 . S
C1070 H1057 0.960 . S
C1070 C1069 1.524 . S
C1071 C1068 1.403 . S
C1071 C1072 1.392 . S
C1071 C1075 1.495 . S
C1072 C1071 1.392 . S
C1072 C1073 1.385 . S
C1072 C1074 1.478 . S
C1073 H1067 0.930 . S
C1073 C1069 1.400 . S
C1073 C1072 1.385 . S
C1074 C1072 1.478 . S
C1074 C1076 1.381 . S
C1074 C1080 1.383 . S
C1075 C1071 1.495 . S
C1075 H1081 0.959 . S
C1075 H1082 0.961 . S
C1075 H1083 0.960 . S
C1076 C1074 1.381 . S
C1076 C1077 1.394 . S
C1076 H1084 0.930 . S
C1077 C1076 1.394 . S
C1077 C1078 1.383 . S
C1077 H1085 0.929 . S
C1078 C1077 1.383 . S
C1078 C1079 1.377 . S
C1079 H1063 0.930 . S
C1079 C1078 1.377 . S
C1079 C1080 1.379 . S
C1080 H1064 0.931 . S
C1080 C1074 1.383 . S
C1080 C1079 1.379 . S
H1081 C1075 0.959 . S
H1082 C1075 0.961 . S
H1083 C1075 0.960 . S
H1084 C1076 0.930 . S
H1085 C1077 0.929 . S
C231 C7 1.815 . S
C250 C139 1.779 . S
C267 C30 1.602 . S
C286 C164 1.569 . S
C322 C167 1.662 . S
C303 N58 1.641 . S
C358 C193 1.450 . S
C339 N81 1.427 . S
C394 C194 1.741 . S
C375 C99 1.753 . S
C430 C221 1.413 . S
C411 N127 1.419 . S
C447 N25 1.644 . S
C466 C166 1.666 . S
C483 C62 1.590 . S
C502 C192 1.582 . S
C538 C195 1.739 . S
C519 C85 1.758 . S
C574 C220 1.420 . S
C555 N94 1.426 . S
C591 C131 1.779 . S
C610 C138 1.756 . S
C646 C165 1.472 . S
C627 N2 1.450 . S
C682 C180 1.740 . S
C663 C16 1.764 . S
C699 C39 1.569 . S
C718 C207 1.562 . S
C754 C208 1.637 . S
C735 N48 1.625 . S
C771 N71 1.438 . S
C790 C150 1.466 . S
C807 C108 1.754 . S
C826 C153 1.743 . S
C843 N117 1.418 . S
C862 C178 1.446 . S
C879 N35 1.628 . S
C898 C209 1.653 . S
C934 C151 1.580 . S
C915 C53 1.603 . S
C951 C76 1.799 . S
C970 C152 1.765 . S
C987 N104 1.417 . S
C1006 C179 1.446 . S
C1023 C122 1.748 . S
C1042 C181 1.736 . S
C1059 N12 1.411 . S
C1078 C206 1.438 . S
