# Generated by pormake.
# Topology gar, (4,6)-cn, num edge types: 1
# Building blocks:
#     Node 0, Type 0, BuildingBlock: AZAVOO_clean_sbu_0, # of connection points: 4
#     Node 1, Type 0, BuildingBlock: AZAVOO_clean_sbu_0, # of connection points: 4
#     Node 2, Type 0, BuildingBlock: AZAVOO_clean_sbu_0, # of connection points: 4
#     Node 3, Type 0, BuildingBlock: AZAVOO_clean_sbu_0, # of connection points: 4
#     Node 4, Type 0, BuildingBlock: AZAVOO_clean_sbu_0, # of connection points: 4
#     Node 5, Type 0, BuildingBlock: AZAVOO_clean_sbu_0, # of connection points: 4
#     Node 6, Type 0, BuildingBlock: AZAVOO_clean_sbu_0, # of connection points: 4
#     Node 7, Type 0, BuildingBlock: AZAVOO_clean_sbu_0, # of connection points: 4
#     Node 8, Type 0, BuildingBlock: AZAVOO_clean_sbu_0, # of connection points: 4
#     Node 9, Type 0, BuildingBlock: AZAVOO_clean_sbu_0, # of connection points: 4
#     Node 10, Type 0, BuildingBlock: AZAVOO_clean_sbu_0, # of connection points: 4
#     Node 11, Type 0, BuildingBlock: AZAVOO_clean_sbu_0, # of connection points: 4
#     Node 12, Type 0, BuildingBlock: AZAVOO_clean_sbu_0, # of connection points: 4
#     Node 13, Type 0, BuildingBlock: AZAVOO_clean_sbu_0, # of connection points: 4
#     Node 14, Type 0, BuildingBlock: AZAVOO_clean_sbu_0, # of connection points: 4
#     Node 15, Type 0, BuildingBlock: AZAVOO_clean_sbu_0, # of connection points: 4
#     Node 16, Type 0, BuildingBlock: AZAVOO_clean_sbu_0, # of connection points: 4
#     Node 17, Type 0, BuildingBlock: AZAVOO_clean_sbu_0, # of connection points: 4
#     Node 18, Type 0, BuildingBlock: AZAVOO_clean_sbu_0, # of connection points: 4
#     Node 19, Type 0, BuildingBlock: AZAVOO_clean_sbu_0, # of connection points: 4
#     Node 20, Type 0, BuildingBlock: AZAVOO_clean_sbu_0, # of connection points: 4
#     Node 21, Type 0, BuildingBlock: AZAVOO_clean_sbu_0, # of connection points: 4
#     Node 22, Type 0, BuildingBlock: AZAVOO_clean_sbu_0, # of connection points: 4
#     Node 23, Type 0, BuildingBlock: AZAVOO_clean_sbu_0, # of connection points: 4
#     Node 24, Type 1, BuildingBlock: NUHQIS_clean_sbu_0, # of connection points: 6
#     Node 25, Type 1, BuildingBlock: NUHQIS_clean_sbu_0, # of connection points: 6
#     Node 26, Type 1, BuildingBlock: NUHQIS_clean_sbu_0, # of connection points: 6
#     Node 27, Type 1, BuildingBlock: NUHQIS_clean_sbu_0, # of connection points: 6
#     Node 28, Type 1, BuildingBlock: NUHQIS_clean_sbu_0, # of connection points: 6
#     Node 29, Type 1, BuildingBlock: NUHQIS_clean_sbu_0, # of connection points: 6
#     Node 30, Type 1, BuildingBlock: NUHQIS_clean_sbu_0, # of connection points: 6
#     Node 31, Type 1, BuildingBlock: NUHQIS_clean_sbu_0, # of connection points: 6
#     Node 32, Type 1, BuildingBlock: NUHQIS_clean_sbu_0, # of connection points: 6
#     Node 33, Type 1, BuildingBlock: NUHQIS_clean_sbu_0, # of connection points: 6
#     Node 34, Type 1, BuildingBlock: NUHQIS_clean_sbu_0, # of connection points: 6
#     Node 35, Type 1, BuildingBlock: NUHQIS_clean_sbu_0, # of connection points: 6
#     Node 36, Type 1, BuildingBlock: NUHQIS_clean_sbu_0, # of connection points: 6
#     Node 37, Type 1, BuildingBlock: NUHQIS_clean_sbu_0, # of connection points: 6
#     Node 38, Type 1, BuildingBlock: NUHQIS_clean_sbu_0, # of connection points: 6
#     Node 39, Type 1, BuildingBlock: NUHQIS_clean_sbu_0, # of connection points: 6
#     Edge 40, Type (0, 1), BuildingBlock: ZUJKAS_clean_linker_0, # of connection points: 2
#     Edge 41, Type (0, 1), BuildingBlock: ZUJKAS_clean_linker_0, # of connection points: 2
#     Edge 42, Type (0, 1), BuildingBlock: ZUJKAS_clean_linker_0, # of connection points: 2
#     Edge 43, Type (0, 1), BuildingBlock: ZUJKAS_clean_linker_0, # of connection points: 2
#     Edge 44, Type (0, 1), BuildingBlock: ZUJKAS_clean_linker_0, # of connection points: 2
#     Edge 45, Type (0, 1), BuildingBlock: ZUJKAS_clean_linker_0, # of connection points: 2
#     Edge 46, Type (0, 1), BuildingBlock: ZUJKAS_clean_linker_0, # of connection points: 2
#     Edge 47, Type (0, 1), BuildingBlock: ZUJKAS_clean_linker_0, # of connection points: 2
#     Edge 48, Type (0, 1), BuildingBlock: ZUJKAS_clean_linker_0, # of connection points: 2
#     Edge 49, Type (0, 1), BuildingBlock: ZUJKAS_clean_linker_0, # of connection points: 2
#     Edge 50, Type (0, 1), BuildingBlock: ZUJKAS_clean_linker_0, # of connection points: 2
#     Edge 51, Type (0, 1), BuildingBlock: ZUJKAS_clean_linker_0, # of connection points: 2
#     Edge 52, Type (0, 1), BuildingBlock: ZUJKAS_clean_linker_0, # of connection points: 2
#     Edge 53, Type (0, 1), BuildingBlock: ZUJKAS_clean_linker_0, # of connection points: 2
#     Edge 54, Type (0, 1), BuildingBlock: ZUJKAS_clean_linker_0, # of connection points: 2
#     Edge 55, Type (0, 1), BuildingBlock: ZUJKAS_clean_linker_0, # of connection points: 2
#     Edge 56, Type (0, 1), BuildingBlock: ZUJKAS_clean_linker_0, # of connection points: 2
#     Edge 57, Type (0, 1), BuildingBlock: ZUJKAS_clean_linker_0, # of connection points: 2
#     Edge 58, Type (0, 1), BuildingBlock: ZUJKAS_clean_linker_0, # of connection points: 2
#     Edge 59, Type (0, 1), BuildingBlock: ZUJKAS_clean_linker_0, # of connection points: 2
#     Edge 60, Type (0, 1), BuildingBlock: ZUJKAS_clean_linker_0, # of connection points: 2
#     Edge 61, Type (0, 1), BuildingBlock: ZUJKAS_clean_linker_0, # of connection points: 2
#     Edge 62, Type (0, 1), BuildingBlock: ZUJKAS_clean_linker_0, # of connection points: 2
#     Edge 63, Type (0, 1), BuildingBlock: ZUJKAS_clean_linker_0, # of connection points: 2
#     Edge 64, Type (0, 1), BuildingBlock: ZUJKAS_clean_linker_0, # of connection points: 2
#     Edge 65, Type (0, 1), BuildingBlock: ZUJKAS_clean_linker_0, # of connection points: 2
#     Edge 66, Type (0, 1), BuildingBlock: ZUJKAS_clean_linker_0, # of connection points: 2
#     Edge 67, Type (0, 1), BuildingBlock: ZUJKAS_clean_linker_0, # of connection points: 2
#     Edge 68, Type (0, 1), BuildingBlock: ZUJKAS_clean_linker_0, # of connection points: 2
#     Edge 69, Type (0, 1), BuildingBlock: ZUJKAS_clean_linker_0, # of connection points: 2
#     Edge 70, Type (0, 1), BuildingBlock: ZUJKAS_clean_linker_0, # of connection points: 2
#     Edge 71, Type (0, 1), BuildingBlock: ZUJKAS_clean_linker_0, # of connection points: 2
#     Edge 72, Type (0, 1), BuildingBlock: ZUJKAS_clean_linker_0, # of connection points: 2
#     Edge 73, Type (0, 1), BuildingBlock: ZUJKAS_clean_linker_0, # of connection points: 2
#     Edge 74, Type (0, 1), BuildingBlock: ZUJKAS_clean_linker_0, # of connection points: 2
#     Edge 75, Type (0, 1), BuildingBlock: ZUJKAS_clean_linker_0, # of connection points: 2
#     Edge 76, Type (0, 1), BuildingBlock: ZUJKAS_clean_linker_0, # of connection points: 2
#     Edge 77, Type (0, 1), BuildingBlock: ZUJKAS_clean_linker_0, # of connection points: 2
#     Edge 78, Type (0, 1), BuildingBlock: ZUJKAS_clean_linker_0, # of connection points: 2
#     Edge 79, Type (0, 1), BuildingBlock: ZUJKAS_clean_linker_0, # of connection points: 2
#     Edge 80, Type (0, 1), BuildingBlock: ZUJKAS_clean_linker_0, # of connection points: 2
#     Edge 81, Type (0, 1), BuildingBlock: ZUJKAS_clean_linker_0, # of connection points: 2
#     Edge 82, Type (0, 1), BuildingBlock: ZUJKAS_clean_linker_0, # of connection points: 2
#     Edge 83, Type (0, 1), BuildingBlock: ZUJKAS_clean_linker_0, # of connection points: 2
#     Edge 84, Type (0, 1), BuildingBlock: ZUJKAS_clean_linker_0, # of connection points: 2
#     Edge 85, Type (0, 1), BuildingBlock: ZUJKAS_clean_linker_0, # of connection points: 2
#     Edge 86, Type (0, 1), BuildingBlock: ZUJKAS_clean_linker_0, # of connection points: 2
#     Edge 87, Type (0, 1), BuildingBlock: ZUJKAS_clean_linker_0, # of connection points: 2
#     Edge 88, Type (0, 1), BuildingBlock: ZUJKAS_clean_linker_0, # of connection points: 2
#     Edge 89, Type (0, 1), BuildingBlock: ZUJKAS_clean_linker_0, # of connection points: 2
#     Edge 90, Type (0, 1), BuildingBlock: ZUJKAS_clean_linker_0, # of connection points: 2
#     Edge 91, Type (0, 1), BuildingBlock: ZUJKAS_clean_linker_0, # of connection points: 2
#     Edge 92, Type (0, 1), BuildingBlock: ZUJKAS_clean_linker_0, # of connection points: 2
#     Edge 93, Type (0, 1), BuildingBlock: ZUJKAS_clean_linker_0, # of connection points: 2
#     Edge 94, Type (0, 1), BuildingBlock: ZUJKAS_clean_linker_0, # of connection points: 2
#     Edge 95, Type (0, 1), BuildingBlock: ZUJKAS_clean_linker_0, # of connection points: 2
#     Edge 96, Type (0, 1), BuildingBlock: ZUJKAS_clean_linker_0, # of connection points: 2
#     Edge 97, Type (0, 1), BuildingBlock: ZUJKAS_clean_linker_0, # of connection points: 2
#     Edge 98, Type (0, 1), BuildingBlock: ZUJKAS_clean_linker_0, # of connection points: 2
#     Edge 99, Type (0, 1), BuildingBlock: ZUJKAS_clean_linker_0, # of connection points: 2
#     Edge 100, Type (0, 1), BuildingBlock: ZUJKAS_clean_linker_0, # of connection points: 2
#     Edge 101, Type (0, 1), BuildingBlock: ZUJKAS_clean_linker_0, # of connection points: 2
#     Edge 102, Type (0, 1), BuildingBlock: ZUJKAS_clean_linker_0, # of connection points: 2
#     Edge 103, Type (0, 1), BuildingBlock: ZUJKAS_clean_linker_0, # of connection points: 2
#     Edge 104, Type (0, 1), BuildingBlock: ZUJKAS_clean_linker_0, # of connection points: 2
#     Edge 105, Type (0, 1), BuildingBlock: ZUJKAS_clean_linker_0, # of connection points: 2
#     Edge 106, Type (0, 1), BuildingBlock: ZUJKAS_clean_linker_0, # of connection points: 2
#     Edge 107, Type (0, 1), BuildingBlock: ZUJKAS_clean_linker_0, # of connection points: 2
#     Edge 108, Type (0, 1), BuildingBlock: ZUJKAS_clean_linker_0, # of connection points: 2
#     Edge 109, Type (0, 1), BuildingBlock: ZUJKAS_clean_linker_0, # of connection points: 2
#     Edge 110, Type (0, 1), BuildingBlock: ZUJKAS_clean_linker_0, # of connection points: 2
#     Edge 111, Type (0, 1), BuildingBlock: ZUJKAS_clean_linker_0, # of connection points: 2
#     Edge 112, Type (0, 1), BuildingBlock: ZUJKAS_clean_linker_0, # of connection points: 2
#     Edge 113, Type (0, 1), BuildingBlock: ZUJKAS_clean_linker_0, # of connection points: 2
#     Edge 114, Type (0, 1), BuildingBlock: ZUJKAS_clean_linker_0, # of connection points: 2
#     Edge 115, Type (0, 1), BuildingBlock: ZUJKAS_clean_linker_0, # of connection points: 2
#     Edge 116, Type (0, 1), BuildingBlock: ZUJKAS_clean_linker_0, # of connection points: 2
#     Edge 117, Type (0, 1), BuildingBlock: ZUJKAS_clean_linker_0, # of connection points: 2
#     Edge 118, Type (0, 1), BuildingBlock: ZUJKAS_clean_linker_0, # of connection points: 2
#     Edge 119, Type (0, 1), BuildingBlock: ZUJKAS_clean_linker_0, # of connection points: 2
#     Edge 120, Type (0, 1), BuildingBlock: ZUJKAS_clean_linker_0, # of connection points: 2
#     Edge 121, Type (0, 1), BuildingBlock: ZUJKAS_clean_linker_0, # of connection points: 2
#     Edge 122, Type (0, 1), BuildingBlock: ZUJKAS_clean_linker_0, # of connection points: 2
#     Edge 123, Type (0, 1), BuildingBlock: ZUJKAS_clean_linker_0, # of connection points: 2
#     Edge 124, Type (0, 1), BuildingBlock: ZUJKAS_clean_linker_0, # of connection points: 2
#     Edge 125, Type (0, 1), BuildingBlock: ZUJKAS_clean_linker_0, # of connection points: 2
#     Edge 126, Type (0, 1), BuildingBlock: ZUJKAS_clean_linker_0, # of connection points: 2
#     Edge 127, Type (0, 1), BuildingBlock: ZUJKAS_clean_linker_0, # of connection points: 2
#     Edge 128, Type (0, 1), BuildingBlock: ZUJKAS_clean_linker_0, # of connection points: 2
#     Edge 129, Type (0, 1), BuildingBlock: ZUJKAS_clean_linker_0, # of connection points: 2
#     Edge 130, Type (0, 1), BuildingBlock: ZUJKAS_clean_linker_0, # of connection points: 2
#     Edge 131, Type (0, 1), BuildingBlock: ZUJKAS_clean_linker_0, # of connection points: 2
#     Edge 132, Type (0, 1), BuildingBlock: ZUJKAS_clean_linker_0, # of connection points: 2
#     Edge 133, Type (0, 1), BuildingBlock: ZUJKAS_clean_linker_0, # of connection points: 2
#     Edge 134, Type (0, 1), BuildingBlock: ZUJKAS_clean_linker_0, # of connection points: 2
#     Edge 135, Type (0, 1), BuildingBlock: ZUJKAS_clean_linker_0, # of connection points: 2
# Relax obj value: 0.197
# Max RMSD: 0.305
# Mean RMSD: 0.179
data_MOF--net-gar--node1-AZAVOO_clean_sbu_0--node2-NUHQIS_clean_sbu_0--edge1-ZUJKAS_clean_linker_0
_symmetry_space_group_name_H-M    P1
_symmetry_Int_Tables_number       1
_symmetry_cell_setting            triclinic
loop_
_symmetry_equiv_pos_as_xyz
'x, y, z'
_cell_length_a     75.341808
_cell_length_b     74.346068
_cell_length_c     73.053612
_cell_angle_alpha  95.271298
_cell_angle_beta   96.289654
_cell_angle_gamma 101.16715
loop_
_atom_site_label
_atom_site_type_symbol
_atom_site_fract_x
_atom_site_fract_y
_atom_site_fract_z
_atom_type_partial_charge
Mg0 Mg 0.0571 0.27153 0.39494 0.0
O1 O 0.06057 0.30087 0.41537 0.0
O2 O 0.03646 0.29638 0.431 0.0
Mg3 Mg 0.0169 0.26791 0.42134 0.0
C4 C 0.05092 0.30691 0.42734 0.0
C5 C 0.09667 0.28638 0.37536 0.0
O6 O 0.08782 0.29864 0.36916 0.0
O7 O 0.06039 0.24897 0.41744 0.0
O8 O 0.03519 0.24751 0.43118 0.0
O9 O 0.03832 0.28161 0.3717 0.0
O10 O 0.02713 0.26828 0.39408 0.0
C11 C 0.04973 0.24158 0.42875 0.0
C12 C 0.02392 0.27573 0.37924 0.0
O13 O 0.08882 0.2753 0.38613 0.0
Mg14 Mg 0.03945 0.78913 0.66148 0.0
O15 O 0.0421 0.76466 0.63834 0.0
O16 O 0.01511 0.75869 0.62071 0.0
Mg17 Mg 0.99689 0.77997 0.62939 0.0
C18 C 0.03069 0.75461 0.62513 0.0
C19 C 0.07894 0.79138 0.68769 0.0
O20 O 0.06719 0.78464 0.6986 0.0
O21 O 0.04073 0.8151 0.64239 0.0
O22 O 0.01484 0.8078 0.62298 0.0
O23 O 0.02327 0.80237 0.6833 0.0
O24 O 1.00905 0.78415 0.65932 0.0
C25 C 0.0299 0.81913 0.62905 0.0
C26 C 1.00768 0.79387 0.67445 0.0
O27 O 0.07244 0.79549 0.67189 0.0
Mg28 Mg 0.55764 0.77296 0.89472 0.0
O29 O 0.56064 0.8017 0.91571 0.0
O30 O 0.53555 0.79704 0.92978 0.0
Mg31 Mg 0.51629 0.76856 0.91921 0.0
C32 C 0.55036 0.80761 0.92703 0.0
C33 C 0.5938 0.77851 0.87047 0.0
O34 O 0.58009 0.77682 0.85723 0.0
O35 O 0.56078 0.75011 0.91711 0.0
O36 O 0.53429 0.74783 0.92852 0.0
O37 O 0.5398 0.78483 0.87197 0.0
O38 O 0.52759 0.76942 0.89264 0.0
C39 C 0.54909 0.74205 0.92714 0.0
C40 C 0.52504 0.77823 0.87862 0.0
O41 O 0.58986 0.77816 0.88729 0.0
Mg42 Mg 0.53871 0.2894 0.16062 0.0
O43 O 0.54181 0.26503 0.13767 0.0
O44 O 0.515 0.25908 0.11971 0.0
Mg45 Mg 0.49659 0.2803 0.12804 0.0
C46 C 0.53055 0.25499 0.12433 0.0
C47 C 0.57803 0.28465 0.18202 0.0
O48 O 0.56645 0.2702 0.18567 0.0
O49 O 0.54046 0.31537 0.14136 0.0
O50 O 0.51467 0.30815 0.12182 0.0
O51 O 0.52222 0.30272 0.18209 0.0
O52 O 0.50823 0.28429 0.15814 0.0
C53 C 0.52975 0.31942 0.12792 0.0
C54 C 0.50671 0.29407 0.17319 0.0
O55 O 0.5715 0.29588 0.17201 0.0
Mg56 Mg 0.07698 0.86182 0.17183 0.0
O57 O 0.072 0.83121 0.1607 0.0
O58 O 0.04222 0.82085 0.15139 0.0
Mg59 Mg 0.0282 0.84513 0.15636 0.0
C60 C 0.05854 0.81827 0.15382 0.0
C61 C 0.11674 0.8717 0.18745 0.0
O62 O 0.10887 0.88148 0.19877 0.0
O63 O 0.0736 0.86912 0.14225 0.0
O64 O 0.0435 0.85946 0.13437 0.0
O65 O 0.07233 0.85374 0.19951 0.0
O66 O 0.05043 0.85795 0.17856 0.0
C67 C 0.0592 0.86707 0.13063 0.0
C68 C 0.05512 0.85235 0.19423 0.0
O69 O 0.10728 0.86302 0.1727 0.0
Mg70 Mg 0.50916 0.71075 0.37802 0.0
O71 O 0.50544 0.73813 0.39286 0.0
O72 O 0.47744 0.73372 0.4013 0.0
Mg73 Mg 0.46371 0.70345 0.39266 0.0
C74 C 0.49286 0.74412 0.40041 0.0
C75 C 0.54807 0.71312 0.36907 0.0
O76 O 0.53947 0.69695 0.36052 0.0
O77 O 0.51322 0.69972 0.40582 0.0
O78 O 0.48491 0.69472 0.41349 0.0
O79 O 0.49724 0.71824 0.3514 0.0
O80 O 0.48109 0.70253 0.37043 0.0
C81 C 0.50182 0.69421 0.41684 0.0
C82 C 0.48146 0.71082 0.35569 0.0
O83 O 0.5394 0.7225 0.37887 0.0
Mg84 Mg 0.57762 0.3531 0.68153 0.0
O85 O 0.57235 0.32246 0.6704 0.0
O86 O 0.5424 0.31261 0.66174 0.0
Mg87 Mg 0.52862 0.3369 0.66797 0.0
C88 C 0.55863 0.30975 0.66361 0.0
C89 C 0.61831 0.3662 0.69309 0.0
O90 O 0.61136 0.37765 0.70357 0.0
O91 O 0.57287 0.36009 0.65224 0.0
O92 O 0.54258 0.3515 0.64514 0.0
O93 O 0.57447 0.34551 0.70959 0.0
O94 O 0.5517 0.34945 0.68946 0.0
C95 C 0.5583 0.35864 0.64106 0.0
C96 C 0.55714 0.34433 0.70517 0.0
O97 O 0.6077 0.35492 0.68063 0.0
Mg98 Mg 1.00988 0.21602 0.88112 0.0
O99 O 1.00966 0.24483 0.89536 0.0
O100 O 0.98172 0.24426 0.90325 0.0
Mg101 Mg 0.96471 0.21525 0.8951 0.0
C102 C 0.99801 0.25277 0.90248 0.0
C103 C 0.04714 0.21394 0.87077 0.0
O104 O 0.03621 0.19962 0.86081 0.0
O105 O 0.01153 0.20531 0.90902 0.0
O106 O 0.98359 0.20459 0.91694 0.0
O107 O 1.00069 0.22459 0.85431 0.0
O108 O 0.98191 0.21178 0.873 0.0
C109 C 0.99985 0.20194 0.92029 0.0
C110 C 0.98423 0.21999 0.85833 0.0
O111 O 0.04056 0.22365 0.88243 0.0
Mg112 Mg 0.49005 0.09495 0.29565 0.0
O113 O 0.47055 0.07083 0.30426 0.0
O114 O 0.4729 0.07161 0.33504 0.0
Mg115 Mg 0.49296 0.09878 0.34606 0.0
C116 C 0.466 0.06389 0.3188 0.0
C117 C 0.47118 0.0761 0.25413 0.0
O118 O 0.45822 0.07483 0.24021 0.0
O119 O 0.47128 0.11365 0.30309 0.0
O120 O 0.47157 0.11445 0.33372 0.0
O121 O 0.51131 0.07768 0.29768 0.0
O122 O 0.50663 0.09714 0.32061 0.0
C123 C 0.46555 0.11881 0.31805 0.0
C124 C 0.51472 0.0843 0.31504 0.0
O125 O 0.47287 0.08885 0.26736 0.0
Mg126 Mg 0.31961 0.14894 0.51609 0.0
O127 O 0.32168 0.16863 0.54477 0.0
O128 O 0.34761 0.18932 0.54765 0.0
Mg129 Mg 0.36304 0.18235 0.5222 0.0
C130 C 0.33287 0.1826 0.55402 0.0
C131 C 0.27624 0.12391 0.50967 0.0
O132 O 0.28272 0.11403 0.49716 0.0
O133 O 0.31574 0.17109 0.49373 0.0
O134 O 0.34339 0.18944 0.49756 0.0
O135 O 0.33661 0.12875 0.52944 0.0
O136 O 0.35002 0.15202 0.51702 0.0
C137 C 0.32728 0.1844 0.48859 0.0
C138 C 0.35173 0.13754 0.52495 0.0
O139 O 0.28712 0.1383 0.51864 0.0
Mg140 Mg 0.19256 0.02273 0.81482 0.0
O141 O 0.20151 0.05413 0.81895 0.0
O142 O 0.20213 0.06378 0.84897 0.0
Mg143 Mg 0.19234 0.0385 0.86385 0.0
C144 C 0.20442 0.06702 0.83241 0.0
C145 C 0.20254 0.02602 0.77189 0.0
O146 O 0.21452 0.02476 0.7603 0.0
O147 O 0.21962 0.02023 0.82975 0.0
O148 O 0.21858 0.0276 0.85988 0.0
O149 O 0.16306 0.0249 0.80918 0.0
O150 O 0.17765 0.0243 0.83693 0.0
C151 C 0.2267 0.02207 0.84664 0.0
C152 C 0.16308 0.02606 0.82695 0.0
O153 O 0.20573 0.02144 0.78806 0.0
Mg154 Mg 0.31302 0.89171 0.04351 0.0
O155 O 0.31004 0.87255 0.01609 0.0
O156 O 0.33484 0.86018 0.01721 0.0
Mg157 Mg 0.35403 0.87224 0.04393 0.0
C158 C 0.31956 0.86197 0.00889 0.0
C159 C 0.27643 0.89954 0.053 0.0
O160 O 0.28631 0.90166 0.06932 0.0
O161 O 0.30729 0.86756 0.06088 0.0
O162 O 0.33398 0.85854 0.06263 0.0
O163 O 0.32741 0.91535 0.03037 0.0
O164 O 0.34133 0.89646 0.04531 0.0
C165 C 0.31803 0.85765 0.0674 0.0
C166 C 0.34245 0.91037 0.03594 0.0
O167 O 0.28317 0.89402 0.03882 0.0
Mg168 Mg 0.28318 0.41655 0.03575 0.0
O169 O 0.28098 0.39504 0.00714 0.0
O170 O 0.30524 0.38204 0.01188 0.0
Mg171 Mg 0.32362 0.39373 0.03966 0.0
C172 C 0.29107 0.38389 1.00143 0.0
C173 C 0.24933 0.44074 0.03398 0.0
O174 O 0.26409 0.45368 0.03894 0.0
O175 O 0.27781 0.39414 0.05885 0.0
O176 O 0.30349 0.38325 0.06015 0.0
O177 O 0.30329 0.4397 0.02366 0.0
O178 O 0.31313 0.41931 0.03887 0.0
C179 C 0.28836 0.38409 0.06626 0.0
C180 C 0.3172 0.43342 0.03017 0.0
O181 O 0.25173 0.42392 0.03114 0.0
Mg182 Mg 0.80101 0.17563 0.01565 0.0
O183 O 0.80519 0.19497 0.04305 0.0
O184 O 0.83233 0.21382 0.04438 0.0
Mg185 Mg 0.8458 0.20565 0.01892 0.0
C186 C 0.81768 0.20827 0.05133 0.0
C187 C 0.76069 0.16083 1.00172 0.0
O188 O 0.76829 0.16182 0.98639 0.0
O189 O 0.79619 0.19819 0.99772 0.0
O190 O 0.82452 0.21424 0.9979 0.0
O191 O 0.81384 0.15535 0.03004 0.0
O192 O 0.82906 0.17742 0.01613 0.0
C193 C 0.80748 0.21077 0.99183 0.0
C194 C 0.82923 0.16353 0.02543 0.0
O195 O 0.77064 0.16649 0.01717 0.0
Mg196 Mg 0.10537 0.45699 0.2488 0.0
O197 O 0.1171 0.48772 0.25783 0.0
O198 O 0.11209 0.49462 0.28701 0.0
Mg199 Mg 0.09797 0.4678 0.29693 0.0
C200 C 0.11826 0.49932 0.27216 0.0
C201 C 0.12079 0.46069 0.20789 0.0
O202 O 0.13344 0.45731 0.19781 0.0
O203 O 0.12936 0.45035 0.26636 0.0
O204 O 0.12451 0.45692 0.29562 0.0
O205 O 0.07817 0.46405 0.24003 0.0
O206 O 0.0872 0.45707 0.26785 0.0
C207 C 0.13415 0.45138 0.28378 0.0
C208 C 0.07527 0.46262 0.25705 0.0
O209 O 0.12211 0.45705 0.22458 0.0
Mg210 Mg 0.78183 0.91636 0.53886 0.0
O211 O 0.77986 0.89569 0.50995 0.0
O212 O 0.80345 0.88158 0.51417 0.0
Mg213 Mg 0.82201 0.89301 0.54191 0.0
C214 C 0.78948 0.88422 0.50396 0.0
C215 C 0.74745 0.94005 0.53608 0.0
O216 O 0.762 0.95337 0.54026 0.0
O217 O 0.77651 0.89351 0.56152 0.0
O218 O 0.80203 0.88235 0.56233 0.0
O219 O 0.80218 0.9399 0.52757 0.0
O220 O 0.81169 0.91878 0.54189 0.0
C221 C 0.78699 0.88323 0.56861 0.0
C222 C 0.81595 0.93324 0.53373 0.0
O223 O 0.75022 0.92331 0.53412 0.0
Mg224 Mg 0.9407 0.03096 0.23104 0.0
O225 O 0.92714 1.00271 0.23896 0.0
O226 O 0.92564 1.00604 0.26942 0.0
Mg227 Mg 0.93765 0.03603 0.28084 0.0
C228 C 0.92271 0.99612 0.25376 0.0
C229 C 0.93965 0.00656 0.19478 0.0
O230 O 0.94664 0.99729 0.2072 0.0
O231 O 0.91416 0.04107 0.23273 0.0
O232 O 0.91388 0.04442 0.26346 0.0
O233 O 0.96827 0.02477 0.23771 0.0
O234 O 0.95404 0.03868 0.25786 0.0
C235 C 0.9068 0.04551 0.24698 0.0
C236 C 0.96791 0.03176 0.25451 0.0
O237 O 0.93377 0.02075 0.20033 0.0
Mg238 Mg 0.29703 0.6794 0.51461 0.0
O239 O 0.30156 0.69791 0.54265 0.0
O240 O 0.32968 0.71517 0.54497 0.0
Mg241 Mg 0.34284 0.70804 0.51911 0.0
C242 C 0.31471 0.71017 0.55157 0.0
C243 C 0.25647 0.66508 0.50052 0.0
O244 O 0.26399 0.66578 0.48513 0.0
O245 O 0.29329 0.70323 0.49799 0.0
O246 O 0.32204 0.71868 0.49936 0.0
O247 O 0.30901 0.65795 0.5281 0.0
O248 O 0.32496 0.68049 0.51538 0.0
C249 C 0.30508 0.7161 0.49315 0.0
C250 C 0.32467 0.66625 0.52422 0.0
O251 O 0.26652 0.67085 0.51589 0.0
Mg252 Mg 0.39476 0.53557 0.72761 0.0
O253 O 0.38244 0.5046 0.72825 0.0
O254 O 0.37035 0.50319 0.75488 0.0
Mg255 Mg 0.37467 0.5317 0.77074 0.0
C256 C 0.37394 0.49545 0.73979 0.0
C257 C 0.40538 0.54588 0.69107 0.0
O258 O 0.4057 0.56165 0.70096 0.0
O259 O 0.36673 0.54196 0.72049 0.0
O260 O 0.35567 0.54007 0.7476 0.0
O261 O 0.42065 0.53135 0.74188 0.0
O262 O 0.39868 0.53952 0.75647 0.0
C263 C 0.35412 0.54306 0.73061 0.0
C264 C 0.41411 0.53433 0.75727 0.0
O265 O 0.39908 0.53101 0.69754 0.0
Mg266 Mg 0.59757 0.94975 0.74491 0.0
O267 O 0.61324 0.97948 0.75391 0.0
O268 O 0.60946 0.98762 0.78324 0.0
Mg269 Mg 0.5925 0.96239 0.79339 0.0
C270 C 0.61598 0.99134 0.76828 0.0
C271 C 0.61123 0.95116 0.70343 0.0
O272 O 0.62234 0.94625 0.69216 0.0
O273 O 0.61983 0.93949 0.76173 0.0
O274 O 0.6166 0.94773 0.79116 0.0
O275 O 0.5724 0.96084 0.73693 0.0
O276 O 0.58034 0.9526 0.76449 0.0
C277 C 0.62485 0.94031 0.77909 0.0
C278 C 0.56957 0.95992 0.75403 0.0
O279 O 0.61321 0.9474 0.72005 0.0
Mg280 Mg 0.82207 0.65053 0.0197 0.0
O281 O 0.82389 0.67065 0.0481 0.0
O282 O 0.84923 0.69201 0.05019 0.0
Mg283 Mg 0.86479 0.68484 0.02494 0.0
C284 C 0.83477 0.68508 0.0569 0.0
C285 C 0.77883 0.62531 0.01225 0.0
O286 O 0.78529 0.61689 0.99865 0.0
O287 O 0.81738 0.67206 0.99686 0.0
O288 O 0.84469 0.69103 1.00036 0.0
O289 O 0.84005 0.63153 0.03387 0.0
O290 O 0.85244 0.65432 0.02013 0.0
C291 C 0.82858 0.68552 0.99152 0.0
C292 C 0.8548 0.64038 0.02868 0.0
O293 O 0.78969 0.63902 0.02238 0.0
Mg294 Mg 0.97302 0.58586 0.79694 0.0
O295 O 0.9606 0.56069 0.81008 0.0
O296 O 0.96575 0.56546 0.84096 0.0
Mg297 Mg 0.97991 0.59598 0.84734 0.0
C298 C 0.95931 0.555 0.8259 0.0
C299 C 0.95729 0.56126 0.75712 0.0
O300 O 0.94346 0.5539 0.74438 0.0
O301 O 0.94998 0.59941 0.80385 0.0
O302 O 0.95344 0.60425 0.83473 0.0
O303 O 0.99869 0.5751 0.79901 0.0
O304 O 0.99169 0.59443 0.8207 0.0
C305 C 0.94458 0.60486 0.81892 0.0
C306 C 1.0021 0.58349 0.81576 0.0
O307 O 0.95486 0.57244 0.77034 0.0
Mg308 Mg 0.8123 0.38801 0.54271 0.0
O309 O 0.80807 0.36992 0.5143 0.0
O310 O 0.83218 0.35654 0.51439 0.0
Mg311 Mg 0.8517 0.36629 0.54138 0.0
C312 C 0.81715 0.35929 0.50638 0.0
C313 C 0.7782 0.39871 0.55456 0.0
O314 O 0.78911 0.39944 0.57006 0.0
O315 O 0.80537 0.36317 0.55898 0.0
O316 O 0.83116 0.35249 0.55976 0.0
O317 O 0.82752 0.41177 0.53049 0.0
O318 O 0.8406 0.39149 0.54407 0.0
C319 C 0.81538 0.35226 0.56478 0.0
C320 C 0.84223 0.40593 0.53541 0.0
O321 O 0.7831 0.39264 0.53947 0.0
Mg322 Mg 0.68975 0.53645 0.33965 0.0
O323 O 0.70238 0.56702 0.34047 0.0
O324 O 0.71513 0.57765 0.36947 0.0
Mg325 Mg 0.70967 0.55378 0.38719 0.0
C326 C 0.71128 0.58006 0.35253 0.0
C327 C 0.67503 0.51994 0.30019 0.0
O328 O 0.66619 0.50825 0.31015 0.0
O329 O 0.7177 0.52991 0.34209 0.0
O330 O 0.72909 0.53889 0.37178 0.0
O331 O 0.66373 0.5435 0.34523 0.0
O332 O 0.68551 0.54055 0.36709 0.0
C333 C 0.73035 0.53149 0.35559 0.0
C334 C 0.66991 0.54486 0.36266 0.0
O335 O 0.68719 0.53334 0.30844 0.0
Tb336 Tb 0.01958 0.0152 0.98885 0.0
Eu337 Eu 0.06093 0.02869 0.01155 0.0
C338 C 0.05272 0.02202 0.96704 0.0
C339 C 0.0437 0.98657 0.99949 0.0
C340 C 0.97254 0.01866 0.97914 0.0
C341 C 0.95365 0.04051 0.9708 0.0
C342 C 0.96476 0.02829 0.9658 0.0
C343 C 0.96844 0.02098 0.99744 0.0
C344 C 0.9573 0.03311 1.00241 0.0
C345 C 0.95005 0.04326 0.98923 0.0
C346 C 0.98679 0.00841 0.9746 0.0
O347 O 0.01703 0.02621 0.01668 0.0
O348 O 0.04157 0.01725 0.0311 0.0
O349 O 0.04854 0.05385 0.01423 0.0
O350 O 0.02798 0.04472 0.9879 0.0
C351 C 0.02536 0.02114 0.03137 0.0
O352 O 0.07973 0.02953 0.0367 0.0
O353 O 0.0898 0.04149 0.01304 0.0
O354 O 0.0619 0.03307 0.98151 0.0
O355 O 0.03739 0.01054 0.9683 0.0
O356 O 0.02736 0.99052 0.99849 0.0
O357 O 0.05827 0.99942 0.99943 0.0
C358 C 0.03678 0.05749 1.00117 0.0
O359 O 0.99997 0.01756 0.96685 0.0
O360 O 0.99304 0.99944 0.98755 0.0
C361 C 0.10859 0.02551 0.03036 0.0
C362 C 0.13508 1.00351 0.03402 0.0
C363 C 0.13658 0.01967 0.04625 0.0
C364 C 0.12341 0.03057 0.04444 0.0
C365 C 0.1071 0.00951 0.01804 0.0
C366 C 0.12021 0.9986 0.01984 0.0
C367 C 0.09411 0.03622 0.02918 0.0
H368 H 0.94805 0.04797 0.96029 0.0
H369 H 0.9678 0.02686 0.95165 0.0
H370 H 0.97437 0.01398 0.00817 0.0
H371 H 0.95496 0.03504 0.01675 0.0
H372 H 0.14797 0.02395 0.05719 0.0
H373 H 0.12471 0.04283 0.05414 0.0
H374 H 0.09566 1.00532 0.00716 0.0
H375 H 0.11848 0.98612 0.01035 0.0
Tb376 Tb 0.30187 0.80089 0.28803 0.0
Eu377 Eu 0.27867 0.75999 0.26823 0.0
C378 C 0.26104 0.79543 0.27137 0.0
C379 C 0.28233 0.77162 0.3122 0.0
C380 C 0.32652 0.8508 0.30084 0.0
C381 C 0.32989 0.88334 0.31157 0.0
C382 C 0.32187 0.86489 0.3123 0.0
C383 C 0.33875 0.85551 0.288 0.0
C384 C 0.34684 0.87398 0.28732 0.0
C385 C 0.34285 0.88806 0.29944 0.0
C386 C 0.32002 0.83147 0.30404 0.0
O387 O 0.31723 0.78013 0.2948 0.0
O388 O 0.30864 0.76068 0.26806 0.0
O389 O 0.28489 0.77651 0.24479 0.0
O390 O 0.30746 0.80081 0.25919 0.0
C391 C 0.32056 0.76759 0.28261 0.0
O392 O 0.27651 0.73026 0.26304 0.0
O393 O 0.2556 0.74288 0.24984 0.0
O394 O 0.25849 0.77792 0.27409 0.0
O395 O 0.27748 0.80566 0.27251 0.0
O396 O 0.28656 0.78904 0.30926 0.0
O397 O 0.28087 0.75808 0.29889 0.0
C398 C 0.29763 0.79115 0.24414 0.0
O399 O 0.30252 0.82595 0.30424 0.0
O400 O 0.32721 0.81887 0.29573 0.0
C401 C 0.24708 0.71167 0.25508 0.0
C402 C 0.22118 0.68022 0.25987 0.0
C403 C 0.23041 0.6806 0.24414 0.0
C404 C 0.24321 0.69619 0.24178 0.0
C405 C 0.23794 0.71152 0.27081 0.0
C406 C 0.22505 0.69587 0.27319 0.0
C407 C 0.261 0.72754 0.25232 0.0
H408 H 0.32628 0.89387 0.32086 0.0
H409 H 0.3125 0.8616 0.32233 0.0
H410 H 0.34261 0.84492 0.27899 0.0
H411 H 0.35687 0.87712 0.27791 0.0
H412 H 0.22805 0.66869 0.2338 0.0
H413 H 0.25027 0.69608 0.22963 0.0
H414 H 0.24084 0.72341 0.28122 0.0
H415 H 0.21809 0.69604 0.28539 0.0
Tb416 Tb 0.53384 0.01473 0.52272 0.0
Eu417 Eu 0.56084 0.05531 0.53212 0.0
C418 C 0.54452 0.03284 0.56424 0.0
C419 C 0.51635 0.05164 0.52824 0.0
C420 C 0.51453 0.96518 0.50464 0.0
C421 C 0.51245 0.93216 0.50476 0.0
C422 C 0.51188 0.94935 0.51388 0.0
C423 C 0.51781 0.96355 0.48603 0.0
C424 C 0.51822 0.9463 0.47683 0.0
C425 C 0.51554 0.93043 0.48611 0.0
C426 C 0.51357 0.98307 0.51466 0.0
O427 O 0.54546 0.0196 0.49719 0.0
O428 O 0.55236 0.05107 0.50142 0.0
O429 O 0.5801 0.03564 0.52577 0.0
O430 O 0.56145 0.00803 0.52879 0.0
C431 C 0.54925 0.03549 0.49059 0.0
O432 O 0.56881 0.0837 0.52595 0.0
O433 O 0.58483 0.07381 0.54775 0.0
O434 O 0.55793 0.04493 0.55971 0.0
O435 O 0.5321 0.02229 0.55177 0.0
O436 O 0.51466 0.03431 0.5207 0.0
O437 O 0.53257 0.06134 0.53571 0.0
C438 C 0.57791 0.01778 0.52741 0.0
O439 O 0.52456 0.98821 0.5301 0.0
O440 O 0.51271 0.99681 0.50492 0.0
C441 C 0.58228 0.10499 0.55175 0.0
C442 C 0.58147 0.13791 0.5737 0.0
C443 C 0.59119 0.1383 0.55831 0.0
C444 C 0.5916 0.12195 0.54745 0.0
C445 C 0.57266 0.10447 0.56715 0.0
C446 C 0.57233 0.12081 0.57811 0.0
C447 C 0.58206 0.08808 0.5396 0.0
H448 H 0.51011 0.92015 0.5122 0.0
H449 H 0.50925 0.95025 0.5282 0.0
H450 H 0.52001 0.97555 0.47855 0.0
H451 H 0.52077 0.94539 0.4625 0.0
H452 H 0.59849 0.15125 0.5547 0.0
H453 H 0.59903 0.12257 0.53556 0.0
H454 H 0.56522 0.09147 0.57055 0.0
H455 H 0.56457 0.12011 0.58975 0.0
Tb456 Tb 0.28248 0.28207 0.76886 0.0
Eu457 Eu 0.32061 0.27284 0.78568 0.0
C458 C 0.31943 0.30877 0.76448 0.0
C459 C 0.30656 0.26274 0.74153 0.0
C460 C 0.23536 0.28728 0.76731 0.0
C461 C 0.20253 0.28245 0.76655 0.0
C462 C 0.21797 0.2849 0.75731 0.0
C463 C 0.23725 0.2877 0.78667 0.0
C464 C 0.22188 0.28531 0.79591 0.0
C465 C 0.20433 0.28232 0.78592 0.0
C466 C 0.2514 0.28758 0.75759 0.0
O467 O 0.27562 0.26043 0.78656 0.0
O468 O 0.29937 0.24675 0.78206 0.0
O469 O 0.30776 0.28222 0.81103 0.0
O470 O 0.28854 0.29843 0.79675 0.0
C471 C 0.28296 0.24587 0.78651 0.0
O472 O 0.33777 0.25267 0.78939 0.0
O473 O 0.34617 0.28004 0.8044 0.0
O474 O 0.32836 0.30138 0.77724 0.0
O475 O 0.30244 0.3016 0.75758 0.0
O476 O 0.29019 0.26462 0.7456 0.0
O477 O 0.32096 0.26783 0.75434 0.0
C478 C 0.29718 0.2944 0.81214 0.0
O479 O 0.26543 0.3008 0.76383 0.0
O480 O 0.2561 0.27166 0.75493 0.0
C481 C 0.36907 0.26515 0.79551 0.0
C482 C 0.40481 0.26805 0.78685 0.0
C483 C 0.40018 0.26166 0.80357 0.0
C484 C 0.38238 0.2602 0.80785 0.0
C485 C 0.37352 0.27128 0.77871 0.0
C486 C 0.39126 0.27272 0.77441 0.0
C487 C 0.35065 0.26421 0.80031 0.0
H488 H 0.18917 0.28031 0.75853 0.0
H489 H 0.21631 0.28443 0.74234 0.0
H490 H 0.25059 0.28926 0.7946 0.0
H491 H 0.22371 0.285 0.81079 0.0
H492 H 0.41033 0.2579 0.81335 0.0
H493 H 0.37904 0.2554 0.82087 0.0
H494 H 0.36334 0.27521 0.76908 0.0
H495 H 0.39449 0.27803 0.76158 0.0
Tb496 Tb 0.04663 0.02023 0.51059 0.0
Eu497 Eu 0.04711 0.04334 0.55037 0.0
C498 C 0.08491 0.04467 0.53132 0.0
C499 C 0.04932 0.9988 0.54749 0.0
C500 C 0.05116 0.00721 0.46129 0.0
C501 C 0.05208 0.99737 0.42893 0.0
C502 C 0.04895 0.9931 0.44666 0.0
C503 C 0.05752 0.02559 0.45832 0.0
C504 C 0.06058 0.02989 0.44057 0.0
C505 C 0.05736 0.01586 0.42559 0.0
C506 C 0.04529 1.00274 0.47906 0.0
O507 O 0.01896 0.01084 0.5181 0.0
O508 O 0.01689 0.03488 0.53893 0.0
O509 O 0.04451 0.06515 0.53056 0.0
O510 O 0.04542 0.04849 0.5027 0.0
C511 C 1.00909 0.01961 0.52815 0.0
O512 O 0.03593 0.04574 0.57665 0.0
O513 O 0.0576 0.06729 0.57094 0.0
O514 O 0.07744 0.04695 0.54669 0.0
O515 O 0.07502 0.03576 0.51599 0.0
O516 O 0.05059 0.99908 0.52956 0.0
O517 O 0.04787 0.01395 0.55774 0.0
C518 C 0.04494 0.06434 0.51248 0.0
O519 O 0.05822 1.0034 0.49267 0.0
O520 O 0.03233 0.01065 0.48422 0.0
C521 C 0.05691 0.06115 0.60209 0.0
C522 C 0.07399 0.06073 0.63828 0.0
C523 C 0.05572 0.06259 0.63528 0.0
C524 C 0.04728 0.06286 0.61732 0.0
C525 C 0.07514 0.05924 0.60502 0.0
C526 C 0.08363 0.05912 0.62297 0.0
C527 C 0.04758 0.06086 0.58327 0.0
H528 H 0.04926 0.98628 0.41765 0.0
H529 H 0.04404 0.97885 0.44878 0.0
H530 H 0.05939 0.03663 0.46956 0.0
H531 H 0.06478 0.04424 0.43841 0.0
H532 H 0.04801 0.06392 0.64683 0.0
H533 H 0.03317 0.06428 0.61529 0.0
H534 H 0.08277 0.05766 0.59344 0.0
H535 H 0.09763 0.05737 0.62484 0.0
Tb536 Tb 0.29795 0.76909 0.78155 0.0
Eu537 Eu 0.31208 0.81148 0.77441 0.0
C538 C 0.30024 0.80142 0.81393 0.0
C539 C 0.26956 0.79153 0.76397 0.0
C540 C 0.27987 0.71859 0.77299 0.0
C541 C 0.2705 0.68528 0.76877 0.0
C542 C 0.27472 0.70194 0.78035 0.0
C543 C 0.27987 0.71857 0.75378 0.0
C544 C 0.27568 0.70188 0.74215 0.0
C545 C 0.27142 0.68501 0.7496 0.0
C546 C 0.28683 0.73559 0.78562 0.0
O547 O 0.30901 0.76702 0.75515 0.0
O548 O 0.30753 0.79548 0.74615 0.0
O549 O 0.3376 0.79932 0.7803 0.0
O550 O 0.3254 0.77745 0.7978 0.0
C551 C 0.30874 0.77823 0.74225 0.0
O552 O 0.30709 0.83727 0.76484 0.0
O553 O 0.33446 0.8352 0.77529 0.0
O554 O 0.3102 0.81316 0.80491 0.0
O555 O 0.29218 0.78471 0.80625 0.0
O556 O 0.27522 0.77577 0.76329 0.0
O557 O 0.28089 0.80684 0.77167 0.0
C558 C 0.33988 0.78791 0.79275 0.0
O559 O 0.30384 0.74315 0.78511 0.0
O560 O 0.27654 0.74778 0.78588 0.0
C561 C 0.32567 0.86365 0.78229 0.0
C562 C 0.32573 0.89615 0.80556 0.0
C563 C 0.3197 0.89457 0.78642 0.0
C564 C 0.31975 0.87852 0.77492 0.0
C565 C 0.33209 0.86525 0.80129 0.0
C566 C 0.33224 0.8814 0.81279 0.0
C567 C 0.32375 0.84618 0.7703 0.0
H568 H 0.2676 0.67257 0.77505 0.0
H569 H 0.27473 0.70176 0.79517 0.0
H570 H 0.28381 0.73138 0.74788 0.0
H571 H 0.27638 0.70214 0.72744 0.0
H572 H 0.31422 0.90543 0.78037 0.0
H573 H 0.31459 0.87748 0.76034 0.0
H574 H 0.33662 0.85389 0.80736 0.0
H575 H 0.33717 0.88218 0.82739 0.0
Tb576 Tb 0.56104 0.03112 0.04038 0.0
Eu577 Eu 0.54197 0.04093 1.00133 0.0
C578 C 0.55468 1.00143 1.0042 0.0
C579 C 0.5851 0.05008 0.01181 0.0
C580 C 0.5708 0.02026 0.08907 0.0
C581 C 0.58019 0.02061 0.12199 0.0
C582 C 0.58461 0.02267 0.10411 0.0
C583 C 0.55247 0.01559 0.09202 0.0
C584 C 0.54804 0.01339 0.10985 0.0
C585 C 0.56185 0.01598 0.12504 0.0
C586 C 0.57573 0.02276 0.07045 0.0
O587 O 0.55084 0.05649 0.04908 0.0
O588 O 0.54691 0.06776 0.021 0.0
O589 O 0.51987 0.03602 0.01954 0.0
O590 O 0.53247 0.01765 0.03833 0.0
C591 C 0.54831 0.07021 0.03929 0.0
O592 O 0.54105 0.05911 0.97958 0.0
O593 O 0.51975 0.03469 0.97847 0.0
O594 O 0.54256 0.01006 0.99642 0.0
O595 O 0.56582 0.00967 0.0192 0.0
O596 O 0.58263 0.04865 0.02913 0.0
O597 O 0.57176 0.04426 0.99821 0.0
C598 C 0.51823 0.02341 0.03095 0.0
O599 O 0.5665 0.01079 0.05701 0.0
O600 O 0.57782 0.03948 0.06592 0.0
C601 C 0.52682 0.04506 0.95006 0.0
C602 C 0.52745 0.03861 0.91155 0.0
C603 C 0.51966 0.05293 0.91897 0.0
C604 C 0.51936 0.05611 0.93807 0.0
C605 C 0.53464 0.03077 0.9428 0.0
C606 C 0.53491 0.02754 0.92369 0.0
C607 C 0.52642 0.04873 0.97006 0.0
H608 H 0.59109 0.02265 0.13342 0.0
H609 H 0.59883 0.02627 0.10203 0.0
H610 H 0.54161 0.0138 0.08057 0.0
H611 H 0.53378 0.01016 0.11183 0.0
H612 H 0.51401 0.06185 0.91005 0.0
H613 H 0.51334 0.06726 0.9435 0.0
H614 H 0.54047 0.02211 0.9519 0.0
H615 H 0.54078 0.01623 0.91842 0.0
Tb616 Tb 0.31052 0.30363 0.28782 0.0
Eu617 Eu 0.29317 0.26364 0.26548 0.0
C618 C 0.31076 0.26709 0.30955 0.0
C619 C 0.33671 0.28332 0.2645 0.0
C620 C 0.31286 0.35159 0.30569 0.0
C621 C 0.30715 0.37901 0.3228 0.0
C622 C 0.31727 0.36516 0.32103 0.0
C623 C 0.29851 0.3522 0.29197 0.0
C624 C 0.28848 0.36601 0.29368 0.0
C625 C 0.29251 0.37943 0.30923 0.0
C626 C 0.32182 0.33576 0.3048 0.0
O627 O 0.30278 0.31026 0.25923 0.0
O628 O 0.28513 0.28298 0.24476 0.0
O629 O 0.26946 0.2704 0.27996 0.0
O630 O 0.28094 0.30075 0.29102 0.0
C631 C 0.29244 0.30057 0.24439 0.0
O632 O 0.29051 0.2437 0.24094 0.0
O633 O 0.27584 0.23617 0.26367 0.0
O634 O 0.30442 0.25642 0.2938 0.0
O635 O 0.31436 0.28527 0.30979 0.0
O636 O 0.33536 0.29602 0.27796 0.0
O637 O 0.3224 0.27014 0.25787 0.0
C638 C 0.26755 0.28595 0.289 0.0
O639 O 0.31391 0.32176 0.31239 0.0
O640 O 0.32601 0.33053 0.28864 0.0
C641 C 0.2898 0.2137 0.24976 0.0
C642 C 0.30946 0.18658 0.25937 0.0
C643 C 0.29211 0.18627 0.26486 0.0
C644 C 0.28233 0.19968 0.26003 0.0
C645 C 0.30649 0.21311 0.24305 0.0
C646 C 0.31621 0.19969 0.24782 0.0
C647 C 0.28164 0.23018 0.24859 0.0
H648 H 0.31057 0.3892 0.3349 0.0
H649 H 0.32819 0.36475 0.33184 0.0
H650 H 0.29467 0.34164 0.28019 0.0
H651 H 0.27706 0.36567 0.28318 0.0
H652 H 0.28645 0.17614 0.27354 0.0
H653 H 0.26941 0.19972 0.26525 0.0
H654 H 0.31264 0.22365 0.23505 0.0
H655 H 0.32959 0.20041 0.24346 0.0
Tb656 Tb 0.54855 0.52047 0.008 0.0
Eu657 Eu 0.54908 0.54304 0.04793 0.0
C658 C 0.58734 0.54258 0.03049 0.0
C659 C 0.55178 0.49886 0.0447 0.0
C660 C 0.53522 0.50179 0.95887 0.0
C661 C 0.52948 0.4947 0.92545 0.0
C662 C 0.54035 0.49481 0.94225 0.0
C663 C 0.51898 0.50839 0.95865 0.0
C664 C 0.50807 0.5082 0.94191 0.0
C665 C 0.51332 0.50154 0.92512 0.0
C666 C 0.54722 0.50305 0.97628 0.0
O667 O 0.51943 0.51419 0.01209 0.0
O668 O 0.51863 0.53425 0.03763 0.0
O669 O 0.54879 0.56525 0.02826 0.0
O670 O 0.54287 0.5475 1.00006 0.0
C671 C 0.51024 0.52123 0.02431 0.0
O672 O 0.53928 0.54502 0.07494 0.0
O673 O 0.55886 0.56768 0.06779 0.0
O674 O 0.57944 0.54563 0.04539 0.0
O675 O 0.57773 0.53344 0.01511 0.0
O676 O 0.55449 0.49988 0.02714 0.0
O677 O 0.549 0.51348 0.05479 0.0
C678 C 0.54575 0.56394 0.01002 0.0
O679 O 0.55751 0.5192 0.98176 0.0
O680 O 0.53958 0.49601 0.98982 0.0
C681 C 0.56206 0.56047 0.09851 0.0
C682 C 0.58247 0.55599 0.13172 0.0
C683 C 0.56467 0.55917 0.1317 0.0
C684 C 0.55455 0.56143 0.11519 0.0
C685 C 0.57998 0.55772 0.09855 0.0
C686 C 0.59015 0.55561 0.11505 0.0
C687 C 0.5506 0.56051 0.08097 0.0
H688 H 0.53376 0.48936 0.91272 0.0
H689 H 0.55289 0.48973 0.94223 0.0
H690 H 0.51493 0.514 0.9714 0.0
H691 H 0.49584 0.51381 0.94205 0.0
H692 H 0.55851 0.55965 0.14441 0.0
H693 H 0.54068 0.5634 0.11536 0.0
H694 H 0.58595 0.55665 0.08576 0.0
H695 H 0.60374 0.55294 0.11464 0.0
Tb696 Tb 0.79567 0.2641 0.28053 0.0
Eu697 Eu 0.81113 0.30632 0.27357 0.0
C698 C 0.79563 0.29722 0.31146 0.0
C699 C 0.76768 0.28755 0.26375 0.0
C700 C 0.78948 0.21346 0.27728 0.0
C701 C 0.79074 0.18138 0.27954 0.0
C702 C 0.78518 0.19744 0.28595 0.0
C703 C 0.79906 0.21321 0.26187 0.0
C704 C 0.80455 0.19717 0.2554 0.0
C705 C 0.8007 0.18114 0.26433 0.0
C706 C 0.78461 0.23058 0.28476 0.0
O707 O 0.79837 0.26276 0.25108 0.0
O708 O 0.81977 0.28903 0.25052 0.0
O709 O 0.8335 0.29797 0.29253 0.0
O710 O 0.82586 0.26698 0.28381 0.0
C711 C 0.81038 0.27296 0.24258 0.0
O712 O 0.8104 0.33001 0.25811 0.0
O713 O 0.83165 0.33175 0.28093 0.0
O714 O 0.79716 0.30898 0.2991 0.0
O715 O 0.79702 0.27997 0.30747 0.0
O716 O 0.77055 0.27518 0.27505 0.0
O717 O 0.78164 0.29927 0.25932 0.0
C718 C 0.8379 0.28168 0.29199 0.0
O719 O 0.79741 0.24186 0.29599 0.0
O720 O 0.77661 0.23924 0.27271 0.0
C721 C 0.82019 0.35831 0.27699 0.0
C722 C 0.81414 0.3918 0.29372 0.0
C723 C 0.82901 0.39162 0.28367 0.0
C724 C 0.832 0.37496 0.27534 0.0
C725 C 0.8054 0.35841 0.28706 0.0
C726 C 0.80238 0.37501 0.29533 0.0
C727 C 0.82381 0.34076 0.26912 0.0
H728 H 0.78779 0.16938 0.2869 0.0
H729 H 0.77786 0.19746 0.29792 0.0
H730 H 0.80251 0.22549 0.25501 0.0
H731 H 0.812 0.19738 0.24353 0.0
H732 H 0.8382 0.40437 0.28211 0.0
H733 H 0.84356 0.37504 0.26772 0.0
H734 H 0.7963 0.34561 0.28867 0.0
H735 H 0.79099 0.37468 0.30323 0.0
Tb736 Tb 0.06051 0.53061 0.5412 0.0
Eu737 Eu 0.04065 0.53971 0.50215 0.0
C738 C 0.05439 0.5004 0.50531 0.0
C739 C 0.08371 0.54971 0.51186 0.0
C740 C 0.07384 0.52815 0.59143 0.0
C741 C 0.08063 0.52314 0.62359 0.0
C742 C 0.08302 0.51985 0.60495 0.0
C743 C 0.06252 0.54007 0.59672 0.0
C744 C 0.06015 0.54339 0.61532 0.0
C745 C 0.06902 0.5348 0.62895 0.0
C746 C 0.0757 0.52384 0.57183 0.0
O747 O 0.05014 0.55585 0.5498 0.0
O748 O 0.04563 0.56675 0.52159 0.0
O749 O 0.0189 0.53434 0.5207 0.0
O750 O 0.0323 0.5158 0.53843 0.0
C751 C 0.04733 0.5694 0.5399 0.0
O752 O 0.03882 0.55738 0.48005 0.0
O753 O 0.01792 0.53279 0.47982 0.0
O754 O 0.04251 0.50913 0.49717 0.0
O755 O 0.06505 0.50836 0.52075 0.0
O756 O 0.08148 0.54836 0.52926 0.0
O757 O 0.07029 0.54358 0.49844 0.0
C758 C 0.01771 0.52127 0.53156 0.0
O759 O 0.06176 0.51286 0.56191 0.0
O760 O 0.08192 0.5378 0.56324 0.0
C761 C 0.02422 0.54244 0.45097 0.0
C762 C 0.02429 0.5349 0.41248 0.0
C763 C 0.01478 0.54796 0.41949 0.0
C764 C 0.01476 0.5517 0.43859 0.0
C765 C 0.03369 0.52936 0.44412 0.0
C766 C 0.0337 0.52559 0.42502 0.0
C767 C 0.02414 0.54665 0.47096 0.0
H768 H 0.08773 0.51642 0.63377 0.0
H769 H 0.09184 0.51063 0.60106 0.0
H770 H 0.05526 0.54652 0.58641 0.0
H771 H 0.05085 0.55219 0.61893 0.0
H772 H 1.00758 0.55552 0.41024 0.0
H773 H 1.00743 0.56188 0.44371 0.0
H774 H 0.04104 0.52207 0.45353 0.0
H775 H 0.04094 0.51526 0.42008 0.0
Tb776 Tb 0.78627 0.78774 0.27107 0.0
Eu777 Eu 0.82471 0.77925 0.28799 0.0
C778 C 0.82339 0.81447 0.26678 0.0
C779 C 0.80884 0.76754 0.2437 0.0
C780 C 0.73859 0.78952 0.27034 0.0
C781 C 0.70749 0.79215 0.27376 0.0
C782 C 0.72272 0.79559 0.26422 0.0
C783 C 0.73909 0.77995 0.286 0.0
C784 C 0.72399 0.77659 0.29555 0.0
C785 C 0.70804 0.78272 0.28961 0.0
C786 C 0.75496 0.79354 0.26104 0.0
O787 O 0.78059 0.75912 0.27687 0.0
O788 O 0.80313 0.76152 0.30083 0.0
O789 O 0.81798 0.80002 0.31002 0.0
O790 O 0.78714 0.79338 0.30169 0.0
C791 C 0.78742 0.75301 0.29176 0.0
O792 O 0.84071 0.75876 0.29477 0.0
O793 O 0.85246 0.78791 0.30227 0.0
O794 O 0.83229 0.80132 0.26975 0.0
O795 O 0.80626 0.81291 0.26959 0.0
O796 O 0.79756 0.77906 0.24558 0.0
O797 O 0.8184 0.76357 0.25856 0.0
C798 C 0.80148 0.80085 0.31405 0.0
O799 O 0.76823 0.80603 0.27026 0.0
O800 O 0.76079 0.77914 0.25461 0.0
C801 C 0.87202 0.76886 0.29314 0.0
C802 C 0.90441 0.76929 0.27729 0.0
C803 C 0.90501 0.77382 0.29651 0.0
C804 C 0.8889 0.7736 0.30436 0.0
C805 C 0.8713 0.76353 0.2741 0.0
C806 C 0.88737 0.76362 0.26626 0.0
C807 C 0.85544 0.77115 0.30103 0.0
H808 H 0.6954 0.79711 0.26893 0.0
H809 H 0.72217 0.80308 0.2522 0.0
H810 H 0.75124 0.77512 0.2909 0.0
H811 H 0.72474 0.769 0.30748 0.0
H812 H 0.91792 0.77848 0.30533 0.0
H813 H 0.88966 0.77786 0.31906 0.0
H814 H 0.85835 0.7599 0.26519 0.0
H815 H 0.88647 0.75983 0.25147 0.0
Tb816 Tb 0.79662 0.29394 0.78418 0.0
Eu817 Eu 0.78136 0.25096 0.76487 0.0
C818 C 0.75624 0.28013 0.76911 0.0
C819 C 0.78486 0.2617 0.80809 0.0
C820 C 0.82032 0.34295 0.80253 0.0
C821 C 0.83332 0.37361 0.81809 0.0
C822 C 0.81938 0.35792 0.8152 0.0
C823 C 0.83525 0.34387 0.79248 0.0
C824 C 0.84924 0.35967 0.79532 0.0
C825 C 0.84849 0.3746 0.80835 0.0
C826 C 0.80608 0.32624 0.80103 0.0
O827 O 0.82117 0.28595 0.77646 0.0
O828 O 0.81118 0.25454 0.7753 0.0
O829 O 0.79428 0.2659 0.74267 0.0
O830 O 0.79439 0.29586 0.75436 0.0
C831 C 0.82438 0.26919 0.77645 0.0
O832 O 0.78373 0.22204 0.76284 0.0
O833 O 0.76238 0.23029 0.74525 0.0
O834 O 0.76021 0.26744 0.75757 0.0
O835 O 0.76735 0.28687 0.78427 0.0
O836 O 0.7977 0.27557 0.80558 0.0
O837 O 0.77368 0.25217 0.79394 0.0
C838 C 0.79552 0.28349 0.7406 0.0
O839 O 0.79495 0.32196 0.78561 0.0
O840 O 0.81123 0.31186 0.80697 0.0
C841 C 0.75629 0.19998 0.75419 0.0
C842 C 0.73204 0.16752 0.75964 0.0
C843 C 0.74993 0.16699 0.75619 0.0
C844 C 0.76191 0.18306 0.75344 0.0
C845 C 0.73851 0.20067 0.75791 0.0
C846 C 0.72645 0.18454 0.76052 0.0
C847 C 0.76917 0.21655 0.75076 0.0
H848 H 0.8322 0.38501 0.82795 0.0
H849 H 0.80793 0.35738 0.82307 0.0
H850 H 0.83619 0.3323 0.78273 0.0
H851 H 0.8608 0.36005 0.78766 0.0
H852 H 0.75456 0.15406 0.7552 0.0
H853 H 0.77555 0.18224 0.75055 0.0
H854 H 0.73389 0.21361 0.75869 0.0
H855 H 0.7128 0.18538 0.76333 0.0
Tb856 Tb 0.81155 0.80236 0.78939 0.0
Eu857 Eu 0.79504 0.76222 0.7673 0.0
C858 C 0.81162 0.76625 0.81174 0.0
C859 C 0.83742 0.78363 0.76492 0.0
C860 C 0.81292 0.85025 0.80708 0.0
C861 C 0.80062 0.87234 0.8259 0.0
C862 C 0.81229 0.85993 0.82433 0.0
C863 C 0.80244 0.85386 0.79125 0.0
C864 C 0.7909 0.86633 0.79279 0.0
C865 C 0.78946 0.87529 0.8102 0.0
C866 C 0.82222 0.83458 0.80617 0.0
O867 O 0.80362 0.80882 0.76077 0.0
O868 O 0.78729 0.78104 0.74592 0.0
O869 O 0.77266 0.76759 0.78463 0.0
O870 O 0.78175 0.79884 0.7916 0.0
C871 C 0.79384 0.79884 0.74576 0.0
O872 O 0.80046 0.73762 0.75243 0.0
O873 O 0.77264 0.73904 0.75592 0.0
O874 O 0.80548 0.7554 0.79607 0.0
O875 O 0.81514 0.7844 0.81177 0.0
O876 O 0.8365 0.79434 0.78017 0.0
O877 O 0.82262 0.77189 0.75682 0.0
C878 C 0.76952 0.78343 0.79177 0.0
O879 O 0.81455 0.82052 0.81385 0.0
O880 O 0.82676 0.82939 0.79015 0.0
C881 C 0.782 0.71057 0.75814 0.0
C882 C 0.79155 0.67934 0.77239 0.0
C883 C 0.78646 0.67916 0.7532 0.0
C884 C 0.78196 0.69478 0.74612 0.0
C885 C 0.78474 0.70996 0.77734 0.0
C886 C 0.78959 0.69453 0.78444 0.0
C887 C 0.78368 0.72851 0.75093 0.0
H888 H 0.79985 0.87915 0.83946 0.0
H889 H 0.82016 0.85721 0.83672 0.0
H890 H 0.80243 0.84637 0.77781 0.0
H891 H 0.78228 0.86807 0.78048 0.0
H892 H 0.78724 0.66748 0.74354 0.0
H893 H 0.77985 0.69501 0.73124 0.0
H894 H 0.78472 0.72203 0.78681 0.0
H895 H 0.79339 0.6953 0.79926 0.0
Tb896 Tb 0.5358 0.53276 0.53451 0.0
Eu897 Eu 0.57833 0.54668 0.55486 0.0
C898 C 0.56835 0.54018 0.51141 0.0
C899 C 0.55992 0.50348 0.54095 0.0
C900 C 0.48883 0.5369 0.51932 0.0
C901 C 0.48207 0.56738 0.51747 0.0
C902 C 0.49453 0.55569 0.51746 0.0
C903 C 0.47047 0.52986 0.52075 0.0
C904 C 0.45798 0.54153 0.52075 0.0
C905 C 0.4637 0.56049 0.51939 0.0
C906 C 0.50226 0.52517 0.52216 0.0
O907 O 0.53924 0.52585 0.56269 0.0
O908 O 0.55919 0.5518 0.57543 0.0
O909 O 0.57011 0.57151 0.54371 0.0
O910 O 0.5394 0.56193 0.54433 0.0
C911 C 0.54508 0.53878 0.57658 0.0
O912 O 0.59875 0.54635 0.57837 0.0
O913 O 0.60654 0.56104 0.55526 0.0
O914 O 0.57885 0.5362 0.52531 0.0
O915 O 0.55199 0.54312 0.51335 0.0
O916 O 0.54632 0.5077 0.53047 0.0
O917 O 0.57148 0.51569 0.55297 0.0
C918 C 0.55354 0.57482 0.54258 0.0
O919 O 0.51522 0.52676 0.51159 0.0
O920 O 0.50862 0.5251 0.53942 0.0
C921 C 0.62628 0.54307 0.5677 0.0
C922 C 0.65191 0.52025 0.56412 0.0
C923 C 0.65565 0.53579 0.57761 0.0
C924 C 0.64291 0.5471 0.57939 0.0
C925 C 0.62258 0.52772 0.55414 0.0
C926 C 0.63523 0.51643 0.55236 0.0
C927 C 0.61224 0.55405 0.57003 0.0
H928 H 0.48689 0.58185 0.51623 0.0
H929 H 0.50871 0.56143 0.5165 0.0
H930 H 0.46591 0.51545 0.52251 0.0
H931 H 0.444 0.53581 0.52251 0.0
H932 H 0.66844 0.53921 0.58677 0.0
H933 H 0.64596 0.55885 0.58998 0.0
H934 H 0.60972 0.52429 0.54509 0.0
H935 H 0.63174 0.50444 0.54206 0.0
Tb936 Tb 0.0385 0.52044 0.02378 0.0
Eu937 Eu 0.06549 0.5605 0.03432 0.0
C938 C 0.04914 0.53726 0.06573 0.0
C939 C 0.02122 0.55705 0.03043 0.0
C940 C 0.01994 0.47161 1.00448 0.0
C941 C 0.01958 0.43886 1.00414 0.0
C942 C 0.01735 0.45546 0.01323 0.0
C943 C 0.02469 0.47088 0.98637 0.0
C944 C 0.02673 0.4542 0.97719 0.0
C945 C 0.02428 0.43807 0.98605 0.0
C946 C 0.0181 0.48903 0.01471 0.0
O947 O 0.05071 0.52593 0.99872 0.0
O948 O 0.05617 0.55725 1.00377 0.0
O949 O 0.0848 0.54088 0.02764 0.0
O950 O 0.06583 0.51313 0.02944 0.0
C951 C 0.0537 0.54204 0.99248 0.0
O952 O 0.07404 0.58871 0.02789 0.0
O953 O 0.08893 0.57913 0.05074 0.0
O954 O 0.06269 0.54939 0.06154 0.0
O955 O 0.03667 0.52713 0.05302 0.0
O956 O 0.01985 0.54042 0.02132 0.0
O957 O 0.03724 0.56607 0.03916 0.0
C958 C 0.0824 0.52287 0.02853 0.0
O959 O 0.02847 0.49386 0.03057 0.0
O960 O 0.01757 0.50304 0.00529 0.0
C961 C 0.08671 0.61044 0.05355 0.0
C962 C 0.08531 0.64398 0.07399 0.0
C963 C 0.09599 0.64375 0.05938 0.0
C964 C 0.09669 0.62709 0.04926 0.0
C965 C 0.07616 0.61053 0.06823 0.0
C966 C 0.07554 0.62719 0.07845 0.0
C967 C 0.08676 0.59324 0.04204 0.0
H968 H 0.01737 0.42657 0.01118 0.0
H969 H 0.01367 0.45571 0.02717 0.0
H970 H 0.02693 0.48316 0.97933 0.0
H971 H 0.03044 0.45395 0.96327 0.0
H972 H 0.10379 0.65647 0.05577 0.0
H973 H 0.10485 0.62723 0.03793 0.0
H974 H 0.06821 0.59776 0.07159 0.0
H975 H 0.06704 0.62698 0.0895 0.0
H976 H 0.98289 0.19995 0.95166 0.0
H977 H 0.9901 0.18358 0.97823 0.0
H978 H 0.03493 0.16805 0.95295 0.0
H979 H 0.02841 0.18499 0.92709 0.0
H980 H 0.98706 0.14943 0.97828 0.0
H981 H 0.05875 0.17767 1.00434 0.0
H982 H 0.04586 0.18968 0.98909 0.0
H983 H 0.0578 0.17273 0.9798 0.0
C984 C 0.99454 0.19338 0.95203 0.0
C985 C 1.00505 0.19371 0.93725 0.0
C986 C 0.99869 0.18409 0.96725 0.0
C987 C 0.01331 0.17486 0.96788 0.0
C988 C 0.02405 0.17563 0.95329 0.0
H989 H 0.01632 0.06974 0.974 0.0
H990 H 1.00954 0.10011 0.97291 0.0
C991 C 0.02013 0.18515 0.9383 0.0
C992 C 0.01577 0.162 0.98193 0.0
H993 H 0.04927 0.14314 1.00298 0.0
C994 C 1.00062 0.14846 0.98425 0.0
C995 C 0.03326 0.16093 0.99053 0.0
C996 C 0.04974 0.17623 0.99096 0.0
C997 C 1.00287 0.13268 0.99258 0.0
C998 C 0.02073 0.1301 0.99803 0.0
C999 C 0.03559 0.14478 0.99818 0.0
C1000 C 0.02438 0.11144 0.99989 0.0
C1001 C 0.98612 0.11838 0.99435 0.0
C1002 C 0.03573 0.10782 0.01511 0.0
C1003 C 0.03998 0.0903 0.01565 0.0
C1004 C 0.03303 0.07627 1.00091 0.0
C1005 C 0.02183 0.08011 0.98569 0.0
C1006 C 0.0177 0.09748 0.98514 0.0
H1007 H 0.97473 0.12512 0.99764 0.0
H1008 H 0.98153 0.10957 0.98091 0.0
H1009 H 0.98884 0.10947 0.00528 0.0
H1010 H 0.0413 0.11852 0.02649 0.0
H1011 H 0.04863 0.08775 0.02757 0.0
H1012 H 0.13928 0.8861 0.21937 0.0
H1013 H 0.16506 0.87427 0.23322 0.0
H1014 H 0.15963 0.83479 0.18482 0.0
H1015 H 0.1339 0.84661 0.17075 0.0
H1016 H 0.16105 0.83716 0.24065 0.0
H1017 H 0.21502 0.85585 0.19559 0.0
H1018 H 0.19579 0.86703 0.19606 0.0
H1019 H 0.19305 0.84451 0.18353 0.0
C1020 C 0.14383 0.8752 0.21146 0.0
C1021 C 0.13446 0.86722 0.194 0.0
C1022 C 0.15852 0.86842 0.21943 0.0
C1023 C 0.1642 0.85367 0.21004 0.0
C1024 C 0.15557 0.84634 0.19219 0.0
H1025 H 0.22571 0.7777 0.25874 0.0
H1026 H 0.2013 0.79144 0.24441 0.0
C1027 C 0.14085 0.85311 0.18418 0.0
C1028 C 0.17804 0.84493 0.21961 0.0
H1029 H 0.22032 0.83539 0.2177 0.0
C1030 C 0.17405 0.8368 0.23569 0.0
C1031 C 0.19493 0.84453 0.21306 0.0
C1032 C 0.20009 0.85357 0.1962 0.0
C1033 C 0.18654 0.82823 0.24542 0.0
C1034 C 0.20333 0.82762 0.23874 0.0
C1035 C 0.20734 0.83579 0.22268 0.0
C1036 C 0.21735 0.81933 0.24861 0.0
C1037 C 0.18187 0.82022 0.26295 0.0
C1038 C 0.2343 0.83049 0.25581 0.0
C1039 C 0.24819 0.82274 0.26393 0.0
C1040 C 0.24543 0.80361 0.26495 0.0
C1041 C 0.22821 0.79249 0.25828 0.0
C1042 C 0.21427 0.8003 0.25009 0.0
H1043 H 0.17016 0.82514 0.26823 0.0
H1044 H 0.17815 0.80495 0.2601 0.0
H1045 H 0.19378 0.82385 0.27396 0.0
H1046 H 0.2369 0.84521 0.25484 0.0
H1047 H 0.26126 0.83174 0.26901 0.0
H1048 H 0.52526 0.76944 0.40609 0.0
H1049 H 0.53091 0.80139 0.42054 0.0
H1050 H 0.47393 0.79523 0.42711 0.0
H1051 H 0.46821 0.76322 0.4131 0.0
H1052 H 0.51714 0.831 0.41066 0.0
H1053 H 0.49843 0.81426 0.47928 0.0
H1054 H 0.50196 0.79699 0.4618 0.0
H1055 H 0.4806 0.80453 0.46067 0.0
C1056 C 0.51392 0.77486 0.41063 0.0
C1057 C 0.4963 0.76368 0.40859 0.0
C1058 C 0.51718 0.79313 0.41888 0.0
C1059 C 0.50291 0.80058 0.42523 0.0
C1060 C 0.48524 0.78962 0.42276 0.0
H1061 H 0.49834 0.91542 0.45166 0.0
H1062 H 0.49668 0.88428 0.43651 0.0
C1063 C 0.48198 0.77133 0.41465 0.0
C1064 C 0.50643 0.81983 0.43432 0.0
H1065 H 0.50155 0.84576 0.47378 0.0
C1066 C 0.51386 0.83424 0.42451 0.0
C1067 C 0.50244 0.82402 0.45252 0.0
C1068 C 0.4956 0.80913 0.46427 0.0
C1069 C 0.51693 0.85277 0.43222 0.0
C1070 C 0.51208 0.85699 0.45006 0.0
C1071 C 0.5051 0.84254 0.46003 0.0
C1072 C 0.51396 0.87625 0.45867 0.0
C1073 C 0.52557 0.86761 0.42128 0.0
C1074 C 0.52396 0.88202 0.47631 0.0
C1075 C 0.52475 0.89972 0.48507 0.0
C1076 C 0.51556 0.91202 0.47636 0.0
C1077 C 0.50578 0.90634 0.45858 0.0
C1078 C 0.50488 0.88856 0.44989 0.0
H1079 H 0.53346 0.86204 0.4109 0.0
H1080 H 0.51469 0.87323 0.41366 0.0
H1081 H 0.53481 0.87912 0.43051 0.0
H1082 H 0.53104 0.87275 0.48337 0.0
H1083 H 0.53251 0.90378 0.4987 0.0
H1084 H 0.56439 0.32755 0.73605 0.0
H1085 H 0.54241 0.31252 0.75508 0.0
H1086 H 0.49848 0.32657 0.71995 0.0
H1087 H 0.5203 0.34186 0.70105 0.0
H1088 H 0.49827 0.33469 0.75902 0.0
H1089 H 0.5055 0.26264 0.73862 0.0
H1090 H 0.52602 0.2795 0.74703 0.0
H1091 H 0.51315 0.28134 0.72537 0.0
C1092 C 0.55004 0.32747 0.7324 0.0
C1093 C 0.54402 0.33574 0.71696 0.0
C1094 C 0.53754 0.31879 0.74322 0.0
C1095 C 0.51888 0.31827 0.73871 0.0
C1096 C 0.51287 0.32678 0.72353 0.0
H1097 H 0.41686 0.25969 0.75386 0.0
H1098 H 0.44739 0.27028 0.74562 0.0
C1099 C 0.52533 0.33544 0.71271 0.0
C1100 C 0.50542 0.30904 0.74981 0.0
H1101 H 0.48339 0.26659 0.75816 0.0
C1102 C 0.49515 0.31983 0.75913 0.0
C1103 C 0.50151 0.28966 0.74977 0.0
C1104 C 0.512 0.2775 0.7396 0.0
C1105 C 0.48042 0.31169 0.76773 0.0
C1106 C 0.47613 0.29224 0.76726 0.0
C1107 C 0.4869 0.28149 0.75861 0.0
C1108 C 0.45904 0.28288 0.77331 0.0
C1109 C 0.46889 0.32387 0.77625 0.0
C1110 C 0.45578 0.28578 0.79177 0.0
C1111 C 0.43827 0.27997 0.79647 0.0
C1112 C 0.42388 0.27109 0.78275 0.0
C1113 C 0.42762 0.26686 0.76462 0.0
C1114 C 0.44507 0.27273 0.75993 0.0
H1115 H 0.47233 0.33825 0.77271 0.0
H1116 H 0.45417 0.31827 0.77153 0.0
H1117 H 0.47114 0.32433 0.79157 0.0
H1118 H 0.46651 0.29338 0.80231 0.0
H1119 H 0.43579 0.28343 0.81056 0.0
H1120 H 0.0601 0.84936 0.63672 0.0
H1121 H 0.06445 0.87928 0.62385 0.0
H1122 H 0.01265 0.86159 0.58957 0.0
H1123 H 1.00825 0.83205 0.60223 0.0
H1124 H 0.06702 0.89116 0.589 0.0
H1125 H 1.00536 0.91049 0.61247 0.0
H1126 H 0.01424 0.89135 0.62052 0.0
H1127 H 1.00037 0.88863 0.59835 0.0
C1128 C 0.0496 0.85173 0.62641 0.0
C1129 C 0.03373 0.83775 0.6208 0.0
C1130 C 0.05211 0.86908 0.61896 0.0
C1131 C 0.03877 0.87344 0.60575 0.0
C1132 C 0.02313 0.85933 0.59996 0.0
H1133 H 0.05362 0.9643 0.53189 0.0
H1134 H 0.05168 0.93517 0.54561 0.0
C1135 C 0.02069 0.84207 0.60725 0.0
C1136 C 0.041 0.89237 0.59796 0.0
H1137 H 0.01951 0.92875 0.59091 0.0
C1138 C 0.05656 0.8993 0.58953 0.0
C1139 C 0.02773 0.90371 0.59854 0.0
C1140 C 1.01107 0.8983 0.60811 0.0
C1141 C 0.05892 0.91637 0.58152 0.0
C1142 C 0.04534 0.92738 0.58153 0.0
C1143 C 0.03001 0.92067 0.59041 0.0
C1144 C 0.04683 0.94581 0.57281 0.0
C1145 C 0.07635 0.92262 0.57345 0.0
C1146 C 0.04441 0.9622 0.58287 0.0
C1147 C 0.04555 0.97914 0.57491 0.0
C1148 C 0.04894 0.98063 0.55634 0.0
C1149 C 0.05119 0.96419 0.54622 0.0
C1150 C 0.05018 0.94728 0.55422 0.0
H1151 H 0.08744 0.91609 0.57931 0.0
H1152 H 0.07394 0.91855 0.55825 0.0
H1153 H 0.08103 0.93784 0.57605 0.0
H1154 H 0.04171 0.96197 0.59711 0.0
H1155 H 0.04354 0.99112 0.5834 0.0
H1156 H 0.49115 0.76334 0.88836 0.0
H1157 H 0.46072 0.76527 0.87392 0.0
H1158 H 0.48519 0.80018 0.83567 0.0
H1159 H 0.51561 0.79787 0.84979 0.0
H1160 H 0.44186 0.79116 0.8699 0.0
H1161 H 0.44988 0.76497 0.79868 0.0
H1162 H 0.46642 0.76432 0.81827 0.0
H1163 H 0.46679 0.78525 0.80755 0.0
C1164 C 0.49015 0.77147 0.87688 0.0
C1165 C 0.50617 0.78038 0.87035 0.0
C1166 C 0.47254 0.77257 0.86852 0.0
C1167 C 0.47013 0.78253 0.85318 0.0
C1168 C 0.48619 0.79184 0.84698 0.0
H1169 H 0.37361 0.80616 0.78498 0.0
H1170 H 0.40429 0.80499 0.79952 0.0
C1171 C 0.5038 0.79068 0.85528 0.0
C1172 C 0.45101 0.78335 0.84401 0.0
H1173 H 0.42354 0.77751 0.80202 0.0
C1174 C 0.43795 0.78804 0.85505 0.0
C1175 C 0.44536 0.77935 0.82454 0.0
C1176 C 0.45777 0.77301 0.81159 0.0
C1177 C 0.42005 0.78921 0.84738 0.0
C1178 C 0.41445 0.78528 0.82792 0.0
C1179 C 0.42749 0.78063 0.81687 0.0
C1180 C 0.39527 0.78588 0.81884 0.0
C1181 C 0.40743 0.79519 0.8603 0.0
C1182 C 0.37943 0.77536 0.82433 0.0
C1183 C 0.36171 0.77596 0.81591 0.0
C1184 C 0.359 0.78708 0.80157 0.0
C1185 C 0.37486 0.79744 0.79594 0.0
C1186 C 0.39259 0.79676 0.80431 0.0
H1187 H 0.41512 0.80285 0.87347 0.0
H1188 H 0.39894 0.8041 0.85374 0.0
H1189 H 0.39822 0.78279 0.86379 0.0
H1190 H 0.38072 0.76643 0.83508 0.0
H1191 H 0.35007 0.76764 0.82072 0.0
H1192 H 0.55558 0.2339 0.13649 0.0
H1193 H 0.55924 0.20342 0.12297 0.0
H1194 H 0.5178 0.20399 0.07771 0.0
H1195 H 0.51382 0.23416 0.09127 0.0
H1196 H 0.53025 0.16819 0.11321 0.0
H1197 H 0.56164 0.19052 0.05167 0.0
H1198 H 0.56212 0.20633 0.07214 0.0
H1199 H 0.54155 0.19901 0.05618 0.0
C1200 C 0.54737 0.22774 0.12352 0.0
C1201 C 0.53447 0.23701 0.11507 0.0
C1202 C 0.5494 0.21005 0.11579 0.0
C1203 C 0.53892 0.20099 0.09906 0.0
C1204 C 0.52629 0.21038 0.09045 0.0
H1205 H 0.53556 0.09883 0.02395 0.0
H1206 H 0.53321 0.12902 0.03868 0.0
C1207 C 0.52402 0.22786 0.09832 0.0
C1208 C 0.54081 0.18175 0.0908 0.0
H1209 H 0.55365 0.15849 0.05307 0.0
C1210 C 0.53548 0.16615 0.1001 0.0
C1211 C 0.54738 0.17856 0.07352 0.0
C1212 C 0.55365 0.19443 0.06275 0.0
C1213 C 0.53606 0.14785 0.09258 0.0
C1214 C 0.54294 0.1446 0.07536 0.0
C1215 C 0.54838 0.16036 0.06618 0.0
C1216 C 0.54421 0.12526 0.0664 0.0
C1217 C 0.52838 0.13214 0.10298 0.0
C1218 C 0.55132 0.11224 0.07651 0.0
C1219 C 0.55234 0.0945 0.06801 0.0
C1220 C 0.54676 0.08903 0.04885 0.0
C1221 C 0.54002 0.10216 0.03869 0.0
C1222 C 0.53872 0.11973 0.04723 0.0
H1223 H 0.51828 0.13596 0.11181 0.0
H1224 H 0.52163 0.11966 0.09337 0.0
H1225 H 0.53961 0.1287 0.11226 0.0
H1226 H 0.55645 0.11582 0.09106 0.0
H1227 H 0.55788 0.08516 0.07647 0.0
H1228 H 0.12024 0.31401 0.36243 0.0
H1229 H 0.14854 0.3133 0.34911 0.0
H1230 H 0.14413 0.25644 0.3586 0.0
H1231 H 0.11569 0.25718 0.37236 0.0
H1232 H 0.1831 0.30532 0.36362 0.0
H1233 H 0.151 0.25511 0.30259 0.0
H1234 H 0.13781 0.26738 0.31657 0.0
H1235 H 0.14639 0.24833 0.32489 0.0
C1236 C 0.12523 0.30129 0.36192 0.0
C1237 C 0.11527 0.28567 0.36875 0.0
C1238 C 0.14164 0.30091 0.35416 0.0
C1239 C 0.14885 0.28478 0.35237 0.0
C1240 C 0.1391 0.26914 0.35939 0.0
H1241 H 0.2403 0.25669 0.29447 0.0
H1242 H 0.21306 0.25674 0.30985 0.0
C1243 C 0.12274 0.2696 0.36752 0.0
C1244 C 0.16633 0.28457 0.34319 0.0
H1245 H 0.18281 0.26546 0.30537 0.0
C1246 C 0.18294 0.29653 0.35088 0.0
C1247 C 0.1667 0.27322 0.32651 0.0
C1248 C 0.14955 0.26034 0.31698 0.0
C1249 C 0.19952 0.29717 0.34287 0.0
C1250 C 0.19986 0.28612 0.32586 0.0
C1251 C 0.18315 0.27412 0.31822 0.0
C1252 C 0.21717 0.28641 0.31604 0.0
C1253 C 0.21666 0.30928 0.35337 0.0
C1254 C 0.22924 0.30298 0.31361 0.0
C1255 C 0.2453 0.30296 0.30493 0.0
C1256 C 0.24989 0.28638 0.29772 0.0
C1257 C 0.23755 0.26987 0.29962 0.0
C1258 C 0.2217 0.26989 0.30856 0.0
H1259 H 0.2156 0.3115 0.36843 0.0
H1260 H 0.2288 0.3032 0.35164 0.0
H1261 H 0.21876 0.32301 0.3482 0.0
H1262 H 0.22624 0.31616 0.31828 0.0
H1263 H 0.2541 0.31606 0.30378 0.0
H1264 H 0.92989 0.02511 0.1658 0.0
H1265 H 0.94154 0.02453 0.1358 0.0
H1266 H 0.96892 0.98088 0.14978 0.0
H1267 H 0.95728 0.98119 0.17969 0.0
H1268 H 0.99108 0.01786 0.14205 0.0
H1269 H 0.93369 0.98464 0.08734 0.0
H1270 H 0.92927 1.00043 0.10571 0.0
H1271 H 0.93463 0.97885 0.11089 0.0
C1272 C 0.93794 0.01501 0.16228 0.0
C1273 C 0.94286 1.00337 0.17524 0.0
C1274 C 0.94455 0.01469 0.14513 0.0
C1275 C 0.95609 1.0027 0.1407 0.0
C1276 C 0.95998 0.99019 0.15302 0.0
H1277 H 0.03398 1.0032 0.06109 0.0
H1278 H 0.01712 0.99831 0.0876 0.0
C1279 C 0.9533 0.99041 0.17009 0.0
C1280 C 0.96615 1.005 0.12456 0.0
H1281 H 0.96151 0.99809 0.07736 0.0
C1282 C 0.98469 0.01347 0.12788 0.0
C1283 C 0.95761 0.99946 0.10621 0.0
C1284 C 0.93771 0.99025 0.10216 0.0
C1285 C 0.99498 0.01679 0.11323 0.0
C1286 C 0.98657 0.01096 0.09479 0.0
C1287 C 0.96796 1.00247 0.0915 0.0
C1288 C 0.99678 0.01377 0.07872 0.0
C1289 C 0.01459 0.02701 0.11765 0.0
C1290 C 0.99069 0.02368 0.06472 0.0
C1291 C 1.00015 0.02628 0.04946 0.0
C1292 C 0.01592 0.01906 0.04796 0.0
C1293 C 0.02203 0.00916 0.062 0.0
C1294 C 0.01243 0.00639 0.07718 0.0
H1295 H 0.01722 0.03513 0.13158 0.0
H1296 H 0.02366 0.01691 0.11765 0.0
H1297 H 0.01831 0.03654 0.1072 0.0
H1298 H 0.97862 0.02946 0.06562 0.0
H1299 H 0.99507 0.03395 0.03885 0.0
H1300 H 0.32575 0.74532 0.47981 0.0
H1301 H 0.3189 0.75786 0.45074 0.0
H1302 H 0.26547 0.72237 0.44182 0.0
H1303 H 0.27208 0.70987 0.47101 0.0
H1304 H 0.31223 0.73596 0.41753 0.0
H1305 H 0.25446 0.77086 0.42622 0.0
H1306 H 0.26858 0.76528 0.44565 0.0
H1307 H 0.2508 0.74774 0.43247 0.0
C1308 C 0.31235 0.74049 0.47195 0.0
C1309 C 0.29953 0.72646 0.47775 0.0
C1310 C 0.30847 0.74767 0.45528 0.0
C1311 C 0.29166 0.74109 0.44409 0.0
C1312 C 0.27842 0.72789 0.45035 0.0
H1313 H 0.27501 0.73744 0.32428 0.0
H1314 H 0.2759 0.73028 0.35633 0.0
C1315 C 0.28226 0.72071 0.46706 0.0
C1316 C 0.28894 0.74638 0.42499 0.0
H1317 H 0.26124 0.76513 0.39529 0.0
C1318 C 0.30114 0.74244 0.41272 0.0
C1319 C 0.2745 0.75489 0.41873 0.0
C1320 C 0.26142 0.76012 0.43148 0.0
C1321 C 0.29918 0.74651 0.39433 0.0
C1322 C 0.28444 0.7545 0.38788 0.0
C1323 C 0.2724 0.75879 0.4002 0.0
C1324 C 0.28168 0.75879 0.36845 0.0
C1325 C 0.31307 0.74243 0.38198 0.0
C1326 C 0.2839 0.77717 0.3646 0.0
C1327 C 0.28337 0.78134 0.34627 0.0
C1328 C 0.28052 0.76717 0.33142 0.0
C1329 C 0.27736 0.74872 0.33533 0.0
C1330 C 0.27792 0.74458 0.35366 0.0
H1331 H 0.3257 0.74032 0.39011 0.0
H1332 H 0.30715 0.72963 0.3725 0.0
H1333 H 0.31677 0.75382 0.37339 0.0
H1334 H 0.28676 0.78834 0.37582 0.0
H1335 H 0.28579 0.7957 0.34381 0.0
H1336 H 0.5896 0.94253 0.67067 0.0
H1337 H 0.57144 0.96211 0.65539 0.0
H1338 H 0.58386 1.00185 0.70421 0.0
H1339 H 0.60195 0.98205 0.7197 0.0
H1340 H 0.54125 0.98551 0.66996 0.0
H1341 H 0.60942 0.02218 0.65582 0.0
H1342 H 0.6061 0.99824 0.65986 0.0
H1343 H 0.60587 0.01559 0.67852 0.0
C1344 C 0.58792 0.95513 0.67837 0.0
C1345 C 0.59706 0.96079 0.69637 0.0
C1346 C 0.57751 0.96625 0.66967 0.0
C1347 C 0.57633 0.98335 0.67871 0.0
C1348 C 0.58448 0.98857 0.69713 0.0
H1349 H 0.56095 0.0565 0.595 0.0
H1350 H 0.56512 0.04904 0.62693 0.0
C1351 C 0.59474 0.97726 0.70597 0.0
C1352 C 0.56935 0.99665 0.66752 0.0
H1353 H 0.58379 0.02619 0.63676 0.0
C1354 C 0.55048 0.99484 0.66302 0.0
C1355 C 0.58145 0.00895 0.65874 0.0
C1356 C 0.60187 0.0115 0.6634 0.0
C1357 C 0.54338 1.0042 0.64899 0.0
C1358 C 0.55552 0.01497 0.63877 0.0
C1359 C 0.5744 0.01789 0.64442 0.0
C1360 C 0.5494 0.02105 0.62071 0.0
C1361 C 0.52297 1.00203 0.645 0.0
C1362 C 0.53867 0.00807 0.60664 0.0
C1363 C 0.53598 0.01243 0.5885 0.0
C1364 C 0.5444 0.0297 0.58392 0.0
C1365 C 0.55438 0.04303 0.59811 0.0
C1366 C 0.55675 0.03878 0.61637 0.0
H1367 H 0.51664 1.00106 0.65801 0.0
H1368 H 0.51912 0.01372 0.63819 0.0
H1369 H 0.51722 0.98899 0.63582 0.0
H1370 H 0.53335 0.9941 0.60934 0.0
H1371 H 0.52836 1.00179 0.57785 0.0
H1372 H 0.26976 0.38942 0.9688 0.0
H1373 H 0.2686 0.37455 0.93687 0.0
H1374 H 0.30557 0.34114 0.95689 0.0
H1375 H 0.30647 0.35543 0.98835 0.0
H1376 H 0.29389 0.37305 0.91306 0.0
H1377 H 0.26921 0.30114 0.92581 0.0
H1378 H 0.26905 0.32039 0.94266 0.0
H1379 H 0.28958 0.31159 0.94109 0.0
C1380 C 0.27734 0.37862 0.96652 0.0
C1381 C 0.28802 0.37369 0.98169 0.0
C1382 C 0.27681 0.37014 0.94804 0.0
C1383 C 0.28675 0.3562 0.94395 0.0
C1384 C 0.29728 0.3513 0.95916 0.0
H1385 H 0.3128 0.28958 0.84718 0.0
H1386 H 0.30973 0.3046 0.87764 0.0
C1387 C 0.29785 0.35973 0.97744 0.0
C1388 C 0.28678 0.34716 0.92408 0.0
H1389 H 0.28251 0.30512 0.89783 0.0
C1390 C 0.29117 0.35818 0.90979 0.0
C1391 C 0.28335 0.32765 0.91921 0.0
C1392 C 0.27735 0.31451 0.93294 0.0
C1393 C 0.29284 0.3505 0.89153 0.0
C1394 C 0.28973 0.33099 0.88678 0.0
C1395 C 0.28508 0.32 0.90101 0.0
C1396 C 0.29152 0.32172 0.86747 0.0
C1397 C 0.2987 0.36357 0.8777 0.0
C1398 C 0.2822 0.32571 0.8509 0.0
C1399 C 0.28396 0.31699 0.8332 0.0
C1400 C 0.29505 0.30378 0.83118 0.0
C1401 C 0.30416 0.29962 0.84778 0.0
C1402 C 0.30237 0.3083 0.86545 0.0
H1403 H 0.30568 0.37745 0.88466 0.0
H1404 H 0.30802 0.35819 0.86885 0.0
H1405 H 0.28646 0.36525 0.86862 0.0
H1406 H 0.27328 0.33546 0.85158 0.0
H1407 H 0.2765 0.32062 0.82103 0.0
H1408 H 0.97374 0.05013 0.28929 0.0
H1409 H 0.99728 0.04857 0.3145 0.0
H1410 H 0.01855 0.01048 0.2791 0.0
H1411 H 0.99495 0.01198 0.25364 0.0
H1412 H 1.01041 0.9991 0.3144 0.0
H1413 H 0.05327 0.06948 0.32168 0.0
H1414 H 0.02925 0.0692 0.32001 0.0
H1415 H 0.03838 0.05925 0.30067 0.0
C1416 C 0.98347 0.04149 0.28681 0.0
C1417 C 0.98245 0.0311 0.26953 0.0
C1418 C 0.99703 0.04078 0.30116 0.0
C1419 C 1.00981 0.02967 0.29851 0.0
C1420 C 1.00892 0.01931 0.28128 0.0
H1421 H 0.07111 0.99938 0.39664 0.0
H1422 H 0.06473 1.00319 0.36372 0.0
C1423 C 0.99542 0.02015 0.26681 0.0
C1424 C 0.02286 0.02768 0.31441 0.0
H1425 H 0.05481 0.05301 0.34854 0.0
C1426 C 0.02049 0.01071 0.32168 0.0
C1427 C 0.03594 0.04289 0.32374 0.0
C1428 C 0.03952 0.0612 0.31604 0.0
C1429 C 0.02976 0.00894 0.33892 0.0
C1430 C 0.04208 0.02449 0.34885 0.0
C1431 C 0.04538 0.04112 0.34091 0.0
C1432 C 0.04933 0.02453 0.3685 0.0
C1433 C 0.02517 0.99086 0.34697 0.0
C1434 C 0.04381 0.03609 0.38207 0.0
C1435 C 0.04759 0.0341 0.40078 0.0
C1436 C 0.05693 0.02046 0.40627 0.0
C1437 C 0.06365 0.00982 0.39275 0.0
C1438 C 0.05998 0.01194 0.37398 0.0
H1439 H 0.01311 0.98133 0.33887 0.0
H1440 H 0.03694 0.9839 0.34697 0.0
H1441 H 0.02238 0.99324 0.36151 0.0
H1442 H 0.03558 0.0459 0.37813 0.0
H1443 H 0.04208 0.04239 0.41083 0.0
H1444 H 0.28376 0.70936 0.56859 0.0
H1445 H 0.28182 0.72154 0.6005 0.0
H1446 H 0.34035 0.73965 0.61002 0.0
H1447 H 0.34232 0.72828 0.57813 0.0
H1448 H 0.29444 0.71282 0.63271 0.0
H1449 H 0.32607 0.78573 0.62923 0.0
H1450 H 0.31946 0.76919 0.60881 0.0
H1451 H 0.34097 0.77078 0.62299 0.0
C1452 C 0.29619 0.71615 0.57742 0.0
C1453 C 0.31317 0.71803 0.57068 0.0
C1454 C 0.29507 0.72307 0.5957 0.0
C1455 C 0.3109 0.7319 0.60765 0.0
C1456 C 0.32787 0.73349 0.60099 0.0
H1457 H 0.31916 0.74663 0.72884 0.0
H1458 H 0.31952 0.73517 0.69639 0.0
C1459 C 0.32897 0.72686 0.5827 0.0
C1460 C 0.30983 0.73891 0.62723 0.0
H1461 H 0.32409 0.77663 0.65963 0.0
C1462 C 0.30079 0.72684 0.63854 0.0
C1463 C 0.31783 0.75729 0.63487 0.0
C1464 C 0.32644 0.77153 0.62328 0.0
C1465 C 0.29985 0.73247 0.65728 0.0
C1466 C 0.30874 0.75054 0.66518 0.0
C1467 C 0.31749 0.7627 0.65376 0.0
C1468 C 0.30875 0.7574 0.68506 0.0
C1469 C 0.28893 0.7191 0.66823 0.0
C1470 C 0.30331 0.7741 0.68968 0.0
C1471 C 0.3036 0.78093 0.70822 0.0
C1472 C 0.30918 0.77115 0.72265 0.0
C1473 C 0.31468 0.75445 0.71807 0.0
C1474 C 0.3147 0.74778 0.69947 0.0
H1475 H 0.27846 0.70859 0.65899 0.0
H1476 H 0.29822 0.71168 0.67593 0.0
H1477 H 0.28197 0.72634 0.67834 0.0
H1478 H 0.2987 0.78185 0.6789 0.0
H1479 H 0.29915 0.79377 0.71121 0.0
H1480 H 0.55212 0.94985 0.78282 0.0
H1481 H 0.53635 0.96835 0.8019 0.0
H1482 H 0.54214 0.01004 0.76433 0.0
H1483 H 0.55828 0.99135 0.74505 0.0
H1484 H 0.55622 0.02403 0.79917 0.0
H1485 H 0.48791 0.98292 0.80195 0.0
H1486 H 0.50411 0.9684 0.80514 0.0
H1487 H 0.50116 0.9782 0.78357 0.0
C1488 C 0.54952 0.96268 0.77827 0.0
C1489 C 0.55643 0.96922 0.76253 0.0
C1490 C 0.54032 0.97319 0.78911 0.0
C1491 C 0.53779 0.99048 0.78443 0.0
C1492 C 0.54375 0.99662 0.76806 0.0
H1493 H 0.50052 0.03962 0.88332 0.0
H1494 H 0.50101 0.03291 0.84994 0.0
C1495 C 0.55289 0.98594 0.75704 0.0
C1496 C 0.53193 1.00301 0.79847 0.0
H1497 H 0.5033 1.00109 0.8316 0.0
C1498 C 0.5443 0.01936 0.80591 0.0
C1499 C 0.51619 0.99726 0.80708 0.0
C1500 C 0.50152 0.98082 0.79883 0.0
C1501 C 0.54246 0.02884 0.82288 0.0
C1502 C 0.52814 0.02151 0.83279 0.0
C1503 C 0.51459 0.00646 0.82427 0.0
C1504 C 0.52834 0.02753 0.85275 0.0
C1505 C 0.5564 0.04611 0.83041 0.0
C1506 C 0.54348 0.02664 0.86542 0.0
C1507 C 0.5433 0.03057 0.88442 0.0
C1508 C 0.52785 0.03524 0.89124 0.0
C1509 C 0.51273 0.03629 0.87852 0.0
C1510 C 0.51295 0.0324 0.85945 0.0
H1511 H 0.56142 0.05369 0.81895 0.0
H1512 H 0.55071 0.05547 0.83981 0.0
H1513 H 0.56831 0.04225 0.83823 0.0
H1514 H 0.55532 0.0224 0.86064 0.0
H1515 H 0.55525 0.02983 0.89379 0.0
H1516 H 0.30476 0.35717 0.07982 0.0
H1517 H 0.30331 0.34393 0.10899 0.0
H1518 H 0.26351 0.37555 0.12299 0.0
H1519 H 0.2648 0.38887 0.09332 0.0
H1520 H 0.31292 0.35742 0.14329 0.0
H1521 H 0.23915 0.3279 0.13867 0.0
H1522 H 0.24942 0.33628 0.11909 0.0
H1523 H 0.24405 0.35219 0.1367 0.0
C1524 C 0.29539 0.36126 0.08883 0.0
C1525 C 0.28479 0.37422 0.08359 0.0
C1526 C 0.29466 0.3536 0.10587 0.0
C1527 C 0.28323 0.35832 0.11878 0.0
C1528 C 0.27227 0.37105 0.11352 0.0
H1529 H 0.30609 0.33657 0.2374 0.0
H1530 H 0.3035 0.35054 0.20837 0.0
C1531 C 0.273 0.37878 0.09631 0.0
C1532 C 0.28363 0.35041 0.13768 0.0
H1533 H 0.25702 0.32741 0.1674 0.0
C1534 C 0.30058 0.35093 0.14843 0.0
C1535 C 0.26779 0.34149 0.14491 0.0
C1536 C 0.24908 0.33922 0.13421 0.0
C1537 C 0.30214 0.34322 0.16559 0.0
C1538 C 0.2863 0.33469 0.17305 0.0
C1539 C 0.26933 0.33397 0.16224 0.0
C1540 C 0.28716 0.3262 0.19162 0.0
C1541 C 0.32102 0.34379 0.17525 0.0
C1542 C 0.27834 0.3078 0.1929 0.0
C1543 C 0.27972 0.2997 0.20981 0.0
C1544 C 0.28983 0.30963 0.2264 0.0
C1545 C 0.29822 0.32818 0.22521 0.0
C1546 C 0.29688 0.33625 0.20831 0.0
H1547 H 0.33139 0.34547 0.16549 0.0
H1548 H 0.32478 0.35575 0.18617 0.0
H1549 H 0.32163 0.33102 0.18187 0.0
H1550 H 0.27063 0.29944 0.18063 0.0
H1551 H 0.27299 0.28544 0.20977 0.0
H1552 H 0.25861 0.91208 0.08054 0.0
H1553 H 0.23254 0.92715 0.0773 0.0
H1554 H 0.2294 0.91806 0.01777 0.0
H1555 H 0.25533 0.90272 0.02086 0.0
H1556 H 0.23279 0.9589 0.06053 0.0
H1557 H 0.17604 0.90302 0.02579 0.0
H1558 H 0.19697 0.89847 0.03714 0.0
H1559 H 0.19614 0.90581 0.01434 0.0
C1560 C 0.25217 0.91295 0.06674 0.0
C1561 C 0.2591 0.90624 0.05095 0.0
C1562 C 0.23728 0.9216 0.06492 0.0
C1563 C 0.22895 0.92363 0.0473 0.0
C1564 C 0.23539 0.91635 0.0315 0.0
H1565 H 0.15015 0.98629 0.00665 0.0
H1566 H 0.17264 0.9667 0.0102 0.0
C1567 C 0.25028 0.90765 0.0333 0.0
C1568 C 0.21466 0.9348 0.04555 0.0
H1569 H 0.17072 0.93365 0.02712 0.0
C1570 C 0.21917 0.95334 0.05336 0.0
C1571 C 0.19695 0.92755 0.03607 0.0
C1572 C 0.19113 0.90758 0.02799 0.0
C1573 C 0.20657 0.96492 0.05168 0.0
C1574 C 0.18886 0.95769 0.0422 0.0
C1575 C 0.18432 0.93915 0.03439 0.0
C1576 C 0.17493 0.96923 0.04014 0.0
C1577 C 0.21246 0.98493 0.05967 0.0
C1578 C 0.1686 0.97695 0.05579 0.0
C1579 C 0.15573 0.98811 0.05382 0.0
C1580 C 0.14884 0.99168 0.03613 0.0
C1581 C 0.15505 0.9837 0.02046 0.0
C1582 C 0.16794 0.97255 0.02246 0.0
H1583 H 0.22756 0.98933 0.06237 0.0
H1584 H 0.20709 0.99404 0.05019 0.0
H1585 H 0.20699 0.98692 0.07304 0.0
H1586 H 0.17356 0.97425 0.06955 0.0
H1587 H 0.15097 0.99374 0.06614 0.0
H1588 H 0.7598 0.63474 0.04159 0.0
H1589 H 0.7283 0.6212 0.04645 0.0
H1590 H 0.72137 0.58627 0.99472 0.0
H1591 H 0.75255 0.59924 0.99008 0.0
H1592 H 0.69441 0.61913 0.02889 0.0
H1593 H 0.70437 0.54744 0.02627 0.0
H1594 H 0.72323 0.56676 0.02749 0.0
H1595 H 0.70982 0.55721 0.00556 0.0
C1596 C 0.7516 0.62415 0.03125 0.0
C1597 C 0.75915 0.61811 0.01549 0.0
C1598 C 0.73343 0.61633 0.03405 0.0
C1599 C 0.72216 0.60212 0.02126 0.0
C1600 C 0.72959 0.5966 0.00529 0.0
H1601 H 0.60928 0.53724 1.00322 0.0
H1602 H 0.64119 0.55171 1.00207 0.0
C1603 C 0.74763 0.60428 1.00255 0.0
C1604 C 0.70274 0.59319 0.02424 0.0
H1605 H 0.67342 0.55118 0.02318 0.0
C1606 C 0.68998 0.60427 0.02783 0.0
C1607 C 0.69644 0.57369 0.02296 0.0
C1608 C 0.70923 0.5606 0.02056 0.0
C1609 C 0.67143 0.59659 0.02945 0.0
C1610 C 0.66508 0.5771 0.02773 0.0
C1611 C 0.67789 0.56605 0.02442 0.0
C1612 C 0.64527 0.56791 0.0289 0.0
C1613 C 0.6586 0.60954 0.03233 0.0
C1614 C 0.63645 0.57156 0.04453 0.0
C1615 C 0.61802 0.56307 0.04531 0.0
C1616 C 0.6076 0.55056 0.03048 0.0
C1617 C 0.61658 0.54669 0.01501 0.0
C1618 C 0.63501 0.55506 0.0143 0.0
H1619 H 0.66408 0.62347 0.0285 0.0
H1620 H 0.64504 0.60404 0.02406 0.0
H1621 H 0.65667 0.61109 0.0472 0.0
H1622 H 0.64385 0.58097 0.05628 0.0
H1623 H 0.61185 0.56657 0.05751 0.0
H1624 H 0.73896 0.51786 0.32257 0.0
H1625 H 0.76171 0.49943 0.31762 0.0
H1626 H 0.78089 0.50788 0.37621 0.0
H1627 H 0.7577 0.52615 0.38145 0.0
H1628 H 0.79957 0.50399 0.32533 0.0
H1629 H 0.76245 0.45192 0.36553 0.0
H1630 H 0.75311 0.47119 0.35861 0.0
H1631 H 0.77145 0.4747 0.37732 0.0
C1632 C 0.74812 0.51605 0.33444 0.0
C1633 C 0.74622 0.52314 0.35247 0.0
C1634 C 0.76123 0.5056 0.33154 0.0
C1635 C 0.77275 0.50203 0.34658 0.0
C1636 C 0.77189 0.51024 0.36446 0.0
H1637 H 0.83892 0.42072 0.3138 0.0
H1638 H 0.8326 0.44915 0.32926 0.0
C1639 C 0.75868 0.52071 0.36741 0.0
C1640 C 0.78389 0.488 0.34338 0.0
H1641 H 0.78387 0.44275 0.34798 0.0
C1642 C 0.79653 0.49072 0.33061 0.0
C1643 C 0.77972 0.47068 0.35024 0.0
C1644 C 0.76589 0.46678 0.3636 0.0
C1645 C 0.80419 0.47619 0.32356 0.0
C1646 C 0.79919 0.45864 0.32965 0.0
C1647 C 0.7876 0.45628 0.34338 0.0
C1648 C 0.80356 0.44196 0.32012 0.0
C1649 C 0.8165 0.47929 0.3087 0.0
C1650 C 0.78932 0.42861 0.30996 0.0
C1651 C 0.79284 0.41249 0.30119 0.0
C1652 C 0.81071 0.40936 0.30245 0.0
C1653 C 0.82504 0.42287 0.31245 0.0
C1654 C 0.82148 0.43906 0.3213 0.0
H1655 H 0.81756 0.49329 0.30419 0.0
H1656 H 0.83038 0.47763 0.31404 0.0
H1657 H 0.81136 0.46887 0.29643 0.0
H1658 H 0.77541 0.43069 0.30883 0.0
H1659 H 0.78157 0.40247 0.29337 0.0
H1660 H 0.87573 0.39935 0.54773 0.0
H1661 H 0.90552 0.41916 0.54678 0.0
H1662 H 0.87958 0.45587 0.51588 0.0
H1663 H 0.84971 0.43629 0.51696 0.0
H1664 H 0.92395 0.43152 0.51751 0.0
H1665 H 0.9079 0.48981 0.56141 0.0
H1666 H 0.8941 0.46677 0.55875 0.0
H1667 H 0.89189 0.4816 0.54089 0.0
C1668 C 0.87637 0.4115 0.54052 0.0
C1669 C 0.86034 0.41634 0.53255 0.0
C1670 C 0.8934 0.42283 0.54004 0.0
C1671 C 0.8947 0.43918 0.53164 0.0
C1672 C 0.87882 0.44353 0.52282 0.0
H1673 H 0.98429 0.52713 0.51764 0.0
H1674 H 0.95446 0.5073 0.51831 0.0
C1675 C 0.86178 0.43225 0.52333 0.0
C1676 C 0.9126 0.45191 0.53252 0.0
H1677 H 0.93583 0.49565 0.54873 0.0
C1678 C 0.92658 0.44551 0.52439 0.0
C1679 C 0.91599 0.47015 0.54156 0.0
C1680 C 0.90175 0.47749 0.55131 0.0
C1681 C 0.94379 0.457 0.52475 0.0
C1682 C 0.94714 0.47525 0.53373 0.0
C1683 C 0.93318 0.48165 0.54186 0.0
C1684 C 0.96504 0.48795 0.53463 0.0
C1685 C 0.95813 0.44966 0.51518 0.0
C1686 C 0.98075 0.48396 0.54415 0.0
C1687 C 0.99782 0.49528 0.54386 0.0
C1688 C 0.99946 0.51082 0.53405 0.0
C1689 C 0.98355 0.51524 0.52527 0.0
C1690 C 0.96648 0.50392 0.5256 0.0
H1691 H 0.95214 0.43705 0.50541 0.0
H1692 H 0.96555 0.46024 0.50743 0.0
H1693 H 0.9682 0.44605 0.52575 0.0
H1694 H 0.97985 0.47188 0.55152 0.0
H1695 H 1.00976 0.49151 0.55086 0.0
H1696 H 0.45286 0.13461 0.28848 0.0
H1697 H 0.424 0.14471 0.2835 0.0
H1698 H 0.41347 0.13397 0.33869 0.0
H1699 H 0.44249 0.12367 0.34391 0.0
H1700 H 0.38866 0.11764 0.28955 0.0
H1701 H 0.40257 0.18793 0.32887 0.0
H1702 H 0.42063 0.17873 0.31951 0.0
H1703 H 0.41105 0.16941 0.33885 0.0
C1704 C 0.44462 0.13467 0.29973 0.0
C1705 C 0.44992 0.12818 0.31655 0.0
C1706 C 0.42813 0.14043 0.29682 0.0
C1707 C 0.41667 0.13994 0.31069 0.0
C1708 C 0.42225 0.13446 0.32788 0.0
H1709 H 0.31459 0.17927 0.29529 0.0
H1710 H 0.33814 0.16461 0.30956 0.0
C1711 C 0.43884 0.12866 0.33084 0.0
C1712 C 0.39831 0.14381 0.30634 0.0
H1713 H 0.37438 0.17814 0.30992 0.0
C1714 C 0.38537 0.13074 0.2942 0.0
C1715 C 0.39413 0.16081 0.31262 0.0
C1716 C 0.40775 0.17514 0.32568 0.0
C1717 C 0.3685 0.13457 0.28753 0.0
C1718 C 0.36473 0.15206 0.29287 0.0
C1719 C 0.37733 0.16474 0.30581 0.0
C1720 C 0.34871 0.15821 0.28393 0.0
C1721 C 0.35502 0.11996 0.27461 0.0
C1722 C 0.34662 0.15909 0.26472 0.0
C1723 C 0.33307 0.16727 0.25649 0.0
C1724 C 0.32149 0.1749 0.26736 0.0
C1725 C 0.3231 0.17326 0.28648 0.0
C1726 C 0.33664 0.16504 0.2947 0.0
H1727 H 0.35698 0.10589 0.27703 0.0
H1728 H 0.34073 0.12085 0.27628 0.0
H1729 H 0.35718 0.12188 0.26007 0.0
H1730 H 0.35601 0.15424 0.25619 0.0
H1731 H 0.3321 0.16824 0.24172 0.0
H1732 H 0.38747 0.15374 0.51963 0.0
H1733 H 0.41486 0.14002 0.52061 0.0
H1734 H 0.38357 0.0893 0.53407 0.0
H1735 H 0.35641 0.10301 0.53355 0.0
H1736 H 0.43301 0.12118 0.55192 0.0
H1737 H 0.4087 0.07373 0.48707 0.0
H1738 H 0.40005 0.09446 0.492 0.0
H1739 H 0.39286 0.07466 0.50371 0.0
C1740 C 0.38636 0.13971 0.523 0.0
C1741 C 0.36933 0.12974 0.52662 0.0
C1742 C 0.40221 0.13176 0.52351 0.0
C1743 C 0.40171 0.11332 0.52726 0.0
C1744 C 0.38474 0.10341 0.53097 0.0
H1745 H 0.47903 0.03555 0.52099 0.0
H1746 H 0.45249 0.05022 0.52139 0.0
C1747 C 0.36903 0.11143 0.53078 0.0
C1748 C 0.41865 0.10441 0.52727 0.0
H1749 H 0.43633 0.07088 0.50379 0.0
C1750 C 0.43369 0.11025 0.54128 0.0
C1751 C 0.41995 0.08981 0.51375 0.0
C1752 C 0.40465 0.08276 0.49816 0.0
C1753 C 0.44935 0.10191 0.54237 0.0
C1754 C 0.45094 0.08755 0.52854 0.0
C1755 C 0.43578 0.08176 0.51451 0.0
C1756 C 0.46781 0.07831 0.52841 0.0
C1757 C 0.46363 0.1082 0.55905 0.0
C1758 C 0.48601 0.08862 0.53189 0.0
C1759 C 0.50139 0.08006 0.53203 0.0
C1760 C 0.49955 0.06072 0.52816 0.0
C1761 C 0.4814 0.0504 0.52413 0.0
C1762 C 0.46599 0.05895 0.52431 0.0
H1763 H 0.45769 0.11378 0.57107 0.0
H1764 H 0.47008 0.09676 0.56329 0.0
H1765 H 0.47432 0.11948 0.5557 0.0
H1766 H 0.48852 0.10351 0.5343 0.0
H1767 H 0.51489 0.0888 0.53493 0.0
H1768 H 0.70249 0.59168 0.31884 0.0
H1769 H 0.71386 0.62171 0.3086 0.0
H1770 H 0.74554 0.6401 0.36215 0.0
H1771 H 0.73428 0.61016 0.37262 0.0
H1772 H 0.71257 0.65954 0.32703 0.0
H1773 H 0.78211 0.64614 0.32177 0.0
H1774 H 0.76247 0.62781 0.32166 0.0
H1775 H 0.7729 0.64159 0.34298 0.0
C1776 C 0.71184 0.60211 0.32849 0.0
C1777 C 0.71757 0.59846 0.34653 0.0
C1778 C 0.71825 0.61926 0.32261 0.0
C1779 C 0.73061 0.63297 0.33459 0.0
C1780 C 0.7361 0.62957 0.35269 0.0
H1781 H 0.79572 0.7391 0.32412 0.0
H1782 H 0.78057 0.71046 0.33438 0.0
C1783 C 0.72962 0.61247 0.35864 0.0
C1784 C 0.73818 0.65068 0.32802 0.0
H1785 H 0.77752 0.67592 0.31692 0.0
C1786 C 0.72675 0.66317 0.32475 0.0
C1787 C 0.75664 0.65523 0.32507 0.0
C1788 C 0.76929 0.64199 0.3279 0.0
C1789 C 0.73348 0.68043 0.31901 0.0
C1790 C 0.75201 0.68502 0.31611 0.0
C1791 C 0.76334 0.67238 0.31921 0.0
C1792 C 0.76016 0.70299 0.31023 0.0
C1793 C 0.72087 0.69377 0.31662 0.0
C1794 C 0.75364 0.70834 0.29325 0.0
C1795 C 0.76222 0.72483 0.28736 0.0
C1796 C 0.77762 0.73606 0.29825 0.0
C1797 C 0.78396 0.73073 0.31534 0.0
C1798 C 0.77531 0.71436 0.32125 0.0
H1799 H 0.70876 0.69019 0.324 0.0
H1800 H 0.72807 0.70813 0.32181 0.0
H1801 H 0.71595 0.69329 0.30167 0.0
H1802 H 0.74219 0.69957 0.28435 0.0
H1803 H 0.75705 0.72854 0.27411 0.0
H1804 H 0.94467 0.52911 0.7965 0.0
H1805 H 0.92912 0.49732 0.79708 0.0
H1806 H 0.93797 0.50459 0.85685 0.0
H1807 H 0.95357 0.53673 0.85651 0.0
H1808 H 0.94212 0.46803 0.81359 0.0
H1809 H 0.88198 0.48625 0.84323 0.0
H1810 H 0.89791 0.5028 0.83334 0.0
H1811 H 0.90407 0.4963 0.85585 0.0
C1812 C 0.94336 0.52405 0.80984 0.0
C1813 C 0.95022 0.53558 0.8265 0.0
C1814 C 0.93451 0.50582 0.8101 0.0
C1815 C 0.93227 0.49871 0.82698 0.0
C1816 C 0.93938 0.50996 0.84367 0.0
H1817 H 0.86451 0.3932 0.84183 0.0
H1818 H 0.88695 0.42231 0.8477 0.0
C1819 C 0.9483 0.52829 0.84345 0.0
C1820 C 0.92203 0.47961 0.82682 0.0
H1821 H 0.88146 0.45478 0.83561 0.0
C1822 C 0.92893 0.46507 0.81856 0.0
C1823 C 0.90486 0.47587 0.83332 0.0
C1824 C 0.89662 0.49108 0.84183 0.0
C1825 C 0.91893 0.44683 0.81635 0.0
C1826 C 0.90148 0.44318 0.82227 0.0
C1827 C 0.89485 0.45765 0.83107 0.0
C1828 C 0.8894 0.42465 0.81874 0.0
C1829 C 0.92713 0.43168 0.80767 0.0
C1830 C 0.88346 0.41626 0.80051 0.0
C1831 C 0.87062 0.39963 0.79711 0.0
C1832 C 0.86336 0.39126 0.81189 0.0
C1833 C 0.8697 0.39947 0.83015 0.0
C1834 C 0.88256 0.41604 0.83354 0.0
H1835 H 0.94225 0.43568 0.80914 0.0
H1836 H 0.92326 0.4187 0.81401 0.0
H1837 H 0.922 0.42894 0.79265 0.0
H1838 H 0.88825 0.4229 0.78886 0.0
H1839 H 0.86583 0.39372 0.7829 0.0
H1840 H 0.03109 0.86811 0.10406 0.0
H1841 H 0.03254 0.88291 0.07583 0.0
H1842 H 0.09126 0.89729 0.08746 0.0
H1843 H 0.08993 0.88285 0.11621 0.0
H1844 H 0.07732 0.92642 0.0809 0.0
H1845 H 0.04577 0.87045 0.02533 0.0
H1846 H 0.0313 0.87133 0.04314 0.0
H1847 H 0.0535 0.86595 0.04842 0.0
C1848 C 0.04438 0.87413 0.10054 0.0
C1849 C 0.0604 0.87438 0.11251 0.0
C1850 C 0.04519 0.88242 0.08421 0.0
C1851 C 0.06202 0.89089 0.0793 0.0
C1852 C 0.07812 0.89067 0.09089 0.0
H1853 H 0.07498 0.97299 1.00054 0.0
H1854 H 0.08137 0.94704 0.01649 0.0
C1855 C 0.07733 0.88246 0.10735 0.0
C1856 C 0.06245 0.90203 0.06348 0.0
H1857 H 0.04369 0.90161 0.01865 0.0
C1858 C 0.0704 0.9209 0.06715 0.0
C1859 C 0.0534 0.89482 0.04553 0.0
C1860 C 0.04569 0.87448 0.04034 0.0
C1861 C 0.06845 0.93297 0.05378 0.0
C1862 C 0.05844 0.92593 0.03622 0.0
C1863 C 0.05128 0.90694 0.03218 0.0
C1864 C 0.05382 0.9385 0.02278 0.0
C1865 C 0.07617 0.95336 0.05892 0.0
C1866 C 0.03596 0.94153 0.02009 0.0
C1867 C 0.03222 0.95635 0.01097 0.0
C1868 C 0.04635 0.96836 1.00448 0.0
C1869 C 0.06385 0.96417 0.00564 0.0
C1870 C 0.06755 0.94934 0.01473 0.0
H1871 H 0.08122 0.95683 0.07395 0.0
H1872 H 0.08776 0.95769 0.05105 0.0
H1873 H 0.06568 0.96152 0.05524 0.0
H1874 H 0.02518 0.93323 0.0262 0.0
H1875 H 0.01859 0.95914 0.01024 0.0
H1876 H 0.98634 0.24139 0.82998 0.0
H1877 H 0.96168 0.25283 0.81331 0.0
H1878 H 0.9233 0.22349 0.84539 0.0
H1879 H 0.9479 0.21201 0.86224 0.0
H1880 H 0.9294 0.23343 0.79203 0.0
H1881 H 0.91568 0.2769 0.85258 0.0
H1882 H 0.93616 0.26767 0.85252 0.0
H1883 H 0.91518 0.25336 0.85666 0.0
C1884 C 0.97265 0.23732 0.83349 0.0
C1885 C 0.96909 0.22597 0.8476 0.0
C1886 C 0.9586 0.2439 0.82395 0.0
C1887 C 0.94079 0.23928 0.82839 0.0
C1888 C 0.93707 0.22754 0.84209 0.0
H1889 H 0.8362 0.23682 0.77336 0.0
H1890 H 0.86658 0.23193 0.78341 0.0
C1891 C 0.95112 0.22095 0.85166 0.0
C1892 C 0.92602 0.2466 0.81859 0.0
H1893 H 0.89306 0.27102 0.82593 0.0
C1894 C 0.92156 0.24184 0.79937 0.0
C1895 C 0.91616 0.25792 0.82815 0.0
C1896 C 0.92113 0.26444 0.84859 0.0
C1897 C 0.90678 0.24728 0.78961 0.0
C1898 C 0.89612 0.25749 0.79942 0.0
C1899 C 0.9012 0.26309 0.81846 0.0
C1900 C 0.87862 0.26094 0.79075 0.0
C1901 C 0.90257 0.24183 0.76895 0.0
C1902 C 0.87531 0.27892 0.79149 0.0
C1903 C 0.85783 0.28179 0.78587 0.0
C1904 C 0.84339 0.26667 0.77964 0.0
C1905 C 0.847 0.24877 0.77815 0.0
C1906 C 0.86442 0.24594 0.78372 0.0
H1907 H 0.915 0.23987 0.76279 0.0
H1908 H 0.89253 0.22852 0.76618 0.0
H1909 H 0.89666 0.25235 0.76192 0.0
H1910 H 0.88609 0.29066 0.79701 0.0
H1911 H 0.85548 0.29574 0.78721 0.0
H1912 H 0.53406 0.28086 0.6435 0.0
H1913 H 0.5396 0.25104 0.63143 0.0
H1914 H 0.59552 0.26667 0.65719 0.0
H1915 H 0.59025 0.29679 0.66896 0.0
H1916 H 0.59332 0.2525 0.62186 0.0
H1917 H 0.54475 0.20618 0.65688 0.0
H1918 H 0.53377 0.22152 0.64433 0.0
H1919 H 0.55106 0.23076 0.66371 0.0
C1920 C 0.5475 0.27792 0.64679 0.0
C1921 C 0.56171 0.29124 0.65721 0.0
C1922 C 0.55061 0.26079 0.63998 0.0
C1923 C 0.56788 0.25649 0.64369 0.0
C1924 C 0.58205 0.26966 0.65426 0.0
H1925 H 0.58535 0.14538 0.6115 0.0
H1926 H 0.58354 0.17426 0.62962 0.0
C1927 C 0.57901 0.28688 0.66096 0.0
C1928 C 0.57144 0.23876 0.63547 0.0
H1929 H 0.55549 0.19213 0.63042 0.0
C1930 C 0.58519 0.23928 0.62392 0.0
C1931 C 0.56105 0.2215 0.6384 0.0
C1932 C 0.54697 0.21992 0.65167 0.0
C1933 C 0.58835 0.22307 0.61462 0.0
C1934 C 0.57714 0.20593 0.61657 0.0
C1935 C 0.5639 0.20532 0.62873 0.0
C1936 C 0.57854 0.18855 0.60567 0.0
C1937 C 0.6037 0.2245 0.60282 0.0
C1938 C 0.57607 0.18695 0.58623 0.0
C1939 C 0.57716 0.17055 0.57588 0.0
C1940 C 0.5805 0.15534 0.58479 0.0
C1941 C 0.58268 0.15686 0.60427 0.0
C1942 C 0.58171 0.17334 0.61462 0.0
H1943 H 0.61432 0.2372 0.60743 0.0
H1944 H 0.61023 0.21235 0.60323 0.0
H1945 H 0.59819 0.22519 0.58824 0.0
H1946 H 0.57307 0.19832 0.57902 0.0
H1947 H 0.57505 0.16966 0.56089 0.0
H1948 H 0.56981 0.69685 0.34824 0.0
H1949 H 0.59879 0.71132 0.33885 0.0
H1950 H 0.5974 0.76218 0.37167 0.0
H1951 H 0.5682 0.74786 0.38101 0.0
H1952 H 0.6033 0.76675 0.33549 0.0
H1953 H 0.65032 0.7259 0.36674 0.0
H1954 H 0.63027 0.71169 0.35338 0.0
H1955 H 0.62815 0.72603 0.37392 0.0
C1956 C 0.57578 0.71102 0.35372 0.0
C1957 C 0.56667 0.72121 0.36534 0.0
C1958 C 0.59241 0.71924 0.34842 0.0
C1959 C 0.60033 0.73776 0.35472 0.0
C1960 C 0.59154 0.74784 0.36673 0.0
H1961 H 0.70787 0.78624 0.32714 0.0
H1962 H 0.68189 0.77754 0.34414 0.0
C1963 C 0.57489 0.73962 0.37208 0.0
C1964 C 0.61697 0.74689 0.34752 0.0
H1965 H 0.6605 0.74292 0.34216 0.0
C1966 C 0.6159 0.76172 0.33715 0.0
C1967 C 0.63344 0.74044 0.34989 0.0
C1968 C 0.63572 0.72526 0.36175 0.0
C1969 C 0.63065 0.76977 0.3284 0.0
C1970 C 0.64673 0.76257 0.32985 0.0
C1971 C 0.64807 0.74828 0.34089 0.0
C1972 C 0.66212 0.7692 0.31956 0.0
C1973 C 0.62884 0.78584 0.31764 0.0
C1974 C 0.65959 0.76746 0.3001 0.0
C1975 C 0.67441 0.7724 0.29034 0.0
C1976 C 0.69205 0.77896 0.29989 0.0
C1977 C 0.69447 0.78101 0.3194 0.0
C1978 C 0.67965 0.77612 0.32913 0.0
H1979 H 0.61828 0.79308 0.32239 0.0
H1980 H 0.642 0.79594 0.31898 0.0
H1981 H 0.62468 0.78067 0.30275 0.0
H1982 H 0.64624 0.76176 0.29243 0.0
H1983 H 0.67217 0.77042 0.27533 0.0
H1984 H 0.06716 0.21264 0.41784 0.0
H1985 H 0.06665 0.18313 0.43093 0.0
H1986 H 0.03812 0.20162 0.4746 0.0
H1987 H 0.03783 0.2304 0.46113 0.0
H1988 H 0.0784 0.16899 0.45955 0.0
H1989 H 1.00433 0.15452 0.46204 0.0
H1990 H 0.01528 0.17368 0.45116 0.0
H1991 H 0.01476 0.17581 0.47592 0.0
C1992 C 0.0609 0.21056 0.43034 0.0
C1993 C 0.05252 0.22439 0.43819 0.0
C1994 C 0.06049 0.19339 0.43789 0.0
C1995 C 0.05171 0.18916 0.45368 0.0
C1996 C 0.04427 0.20348 0.46202 0.0
H1997 H 0.03793 0.09819 0.52618 0.0
H1998 H 0.0397 0.12697 0.51183 0.0
C1999 C 0.0444 0.22039 0.45436 0.0
C2000 C 0.05035 0.1702 0.46147 0.0
H2001 H 0.02118 0.13616 0.47926 0.0
C2002 C 0.06575 0.16188 0.46364 0.0
C2003 C 0.03398 0.16011 0.46696 0.0
C2004 C 0.01613 0.16638 0.46371 0.0
C2005 C 0.0654 0.14479 0.47138 0.0
C2006 C 0.04919 0.13508 0.47734 0.0
C2007 C 0.03378 0.14327 0.47505 0.0
C2008 C 0.04795 0.11672 0.4861 0.0
C2009 C 0.08274 0.13748 0.47359 0.0
C2010 C 0.05159 0.10053 0.47673 0.0
C2011 C 0.05027 0.08368 0.48493 0.0
C2012 C 0.04543 0.08217 0.50303 0.0
C2013 C 0.04171 0.09837 0.51232 0.0
C2014 C 0.04275 0.11509 0.50401 0.0
H2015 H 0.09493 0.1483 0.47263 0.0
H2016 H 0.08457 0.13192 0.48711 0.0
H2017 H 0.08195 0.12608 0.46242 0.0
H2018 H 0.05532 0.10079 0.46285 0.0
H2019 H 0.05333 0.07183 0.47708 0.0
H2020 H 0.59336 0.26284 0.20468 0.0
H2021 H 0.62496 0.26505 0.21748 0.0
H2022 H 0.64103 0.31333 0.19002 0.0
H2023 H 0.6089 0.31137 0.17729 0.0
H2024 H 0.65439 0.26168 0.20319 0.0
H2025 H 0.669 0.33253 0.23982 0.0
H2026 H 0.6462 0.32077 0.23012 0.0
H2027 H 0.66183 0.33143 0.21542 0.0
C2028 C 0.60346 0.2741 0.20131 0.0
C2029 C 0.59812 0.28697 0.18982 0.0
C2030 C 0.6218 0.27531 0.20874 0.0
C2031 C 0.63589 0.2895 0.20518 0.0
C2032 C 0.6307 0.30242 0.19359 0.0
H2033 H 0.75609 0.31185 0.24068 0.0
H2034 H 0.72512 0.31235 0.22663 0.0
C2035 C 0.61217 0.30123 0.18611 0.0
C2036 C 0.6557 0.29009 0.21327 0.0
H2037 H 0.69389 0.31739 0.23954 0.0
C2038 C 0.6629 0.27393 0.21116 0.0
C2039 C 0.66732 0.30593 0.22377 0.0
C2040 C 0.6607 0.32361 0.22761 0.0
C2041 C 0.68088 0.27318 0.21889 0.0
C2042 C 0.69241 0.28893 0.2296 0.0
C2043 C 0.68536 0.30518 0.2315 0.0
C2044 C 0.71168 0.28879 0.23878 0.0
C2045 C 0.68747 0.25548 0.21503 0.0
C2046 C 0.71506 0.27564 0.25083 0.0
C2047 C 0.73295 0.27533 0.259 0.0
C2048 C 0.7483 0.28823 0.25556 0.0
C2049 C 0.74487 0.30159 0.24378 0.0
C2050 C 0.72697 0.30192 0.23567 0.0
H2051 H 0.67962 0.24694 0.20237 0.0
H2052 H 0.70217 0.25825 0.21324 0.0
H2053 H 0.68559 0.24726 0.22686 0.0
H2054 H 0.70377 0.26556 0.25409 0.0
H2055 H 0.73474 0.26484 0.26798 0.0
H2056 H 0.57571 0.83916 0.92079 0.0
H2057 H 0.57838 0.8716 0.93371 0.0
H2058 H 0.53467 0.85474 0.96575 0.0
H2059 H 0.5323 0.82273 0.95345 0.0
H2060 H 0.55688 0.89622 0.93221 0.0
H2061 H 0.56831 0.88696 0.00619 0.0
H2062 H 0.56912 0.86897 0.98819 0.0
H2063 H 0.54756 0.87212 0.99509 0.0
C2064 C 0.56691 0.84225 0.93089 0.0
C2065 C 0.55395 0.82775 0.93607 0.0
C2066 C 0.56833 0.86104 0.93825 0.0
C2067 C 0.55699 0.8662 0.95124 0.0
C2068 C 0.54411 0.85168 0.95634 0.0
H2069 H 0.53295 0.97891 0.97418 0.0
H2070 H 0.53384 0.94747 0.96158 0.0
C2071 C 0.54269 0.83306 0.94906 0.0
C2072 C 0.55804 0.88647 0.95904 0.0
H2073 H 0.55928 0.91501 0.99944 0.0
C2074 C 0.55751 0.90021 0.94695 0.0
C2075 C 0.55918 0.89244 0.97836 0.0
C2076 C 0.56127 0.8794 0.99271 0.0
C2077 C 0.55755 0.91899 0.95335 0.0
C2078 C 0.55775 0.92474 0.97259 0.0
C2079 C 0.55882 0.9111 0.9847 0.0
C2080 C 0.55713 0.94462 0.98045 0.0
C2081 C 0.55788 0.93259 0.93923 0.0
C2082 C 0.5694 0.95413 0.99595 0.0
C2083 C 0.56875 0.97232 1.00344 0.0
C2084 C 0.55574 0.98195 0.99587 0.0
C2085 C 0.54338 0.97239 0.98047 0.0
C2086 C 0.54399 0.95419 0.97303 0.0
H2087 H 0.5638 0.92788 0.92682 0.0
H2088 H 0.5437 0.93384 0.93456 0.0
H2089 H 0.56591 0.94643 0.94514 0.0
H2090 H 0.5797 0.9475 1.00231 0.0
H2091 H 0.57851 0.97884 0.0153 0.0
H2092 H 1.0016 0.81338 0.70669 0.0
H2093 H 0.97358 0.81172 0.72126 0.0
H2094 H 0.94415 0.77266 0.67574 0.0
H2095 H 0.97228 0.77412 0.66125 0.0
H2096 H 0.94089 0.81978 0.71377 0.0
H2097 H 0.92726 0.74443 0.71649 0.0
H2098 H 0.94837 0.75672 0.71019 0.0
H2099 H 0.92824 0.75041 0.69334 0.0
C2100 C 0.98919 0.80445 0.69962 0.0
C2101 C 0.98964 0.79391 0.68256 0.0
C2102 C 0.97294 0.80347 0.7081 0.0
C2103 C 0.95625 0.79172 0.70014 0.0
C2104 C 0.95658 0.7815 0.68284 0.0
H2105 H 0.84388 0.76431 0.73269 0.0
H2106 H 0.87171 0.76675 0.71783 0.0
C2107 C 0.97285 0.78253 0.6743 0.0
C2108 C 0.93881 0.79039 0.70984 0.0
H2109 H 0.90402 0.75986 0.72462 0.0
C2110 C 0.93298 0.80659 0.71615 0.0
C2111 C 0.92792 0.77337 0.71328 0.0
C2112 C 0.93332 0.75525 0.70815 0.0
C2113 C 0.91692 0.80628 0.72504 0.0
C2114 C 0.90604 0.78925 0.72853 0.0
C2115 C 0.9119 0.77305 0.72222 0.0
C2116 C 0.88858 0.78784 0.73824 0.0
C2117 C 0.91146 0.82441 0.72997 0.0
C2118 C 0.88799 0.79852 0.75522 0.0
C2119 C 0.87177 0.79717 0.76388 0.0
C2120 C 0.85529 0.7849 0.75614 0.0
C2121 C 0.856 0.77399 0.73936 0.0
C2122 C 0.87217 0.77538 0.73072 0.0
H2123 H 0.9173 0.83506 0.72135 0.0
H2124 H 0.8964 0.82287 0.72814 0.0
H2125 H 0.91677 0.82953 0.74468 0.0
H2126 H 0.90022 0.8079 0.76205 0.0
H2127 H 0.87219 0.80582 0.77673 0.0
H2128 H 0.12718 0.012 0.81432 0.0
H2129 H 0.10116 0.01284 0.83181 0.0
H2130 H 0.13721 0.04768 0.8767 0.0
H2131 H 0.16296 0.04694 0.85939 0.0
H2132 H 0.10107 0.99929 0.86705 0.0
H2133 H 0.09226 0.0716 0.87217 0.0
H2134 H 0.1035 0.06182 0.85423 0.0
H2135 H 0.11574 0.06998 0.87697 0.0
C2136 C 0.12938 0.02021 0.82772 0.0
C2137 C 0.14707 0.02917 0.83569 0.0
C2138 C 0.11457 0.02065 0.83767 0.0
C2139 C 0.11727 0.03044 0.85547 0.0
C2140 C 0.13478 0.04027 0.86289 0.0
H2141 H 0.08523 0.04175 0.96004 0.0
H2142 H 0.09714 0.04303 0.93039 0.0
C2143 C 0.14954 0.03963 0.8531 0.0
C2144 C 0.10264 0.02855 0.86753 0.0
H2145 H 0.08278 0.05421 0.89717 0.0
C2146 C 0.0966 0.01117 0.8733 0.0
C2147 C 0.09691 0.04409 0.87562 0.0
C2148 C 0.1023 0.0629 0.86929 0.0
C2149 C 0.08624 0.0092 0.88811 0.0
C2150 C 0.08157 0.025 0.89706 0.0
C2151 C 0.0865 0.04214 0.89036 0.0
C2152 C 0.07359 0.02449 0.91468 0.0
C2153 C 0.08158 0.99051 0.89493 0.0
C2154 C 0.05631 0.01371 0.91565 0.0
C2155 C 0.04947 0.01282 0.93268 0.0
C2156 C 0.05977 0.02283 0.94896 0.0
C2157 C 0.07693 0.03384 0.94781 0.0
C2158 C 0.08375 0.03465 0.93085 0.0
H2159 H 0.08882 0.98043 0.88843 0.0
H2160 H 0.08509 0.99166 0.91022 0.0
H2161 H 0.06669 0.98495 0.89155 0.0
H2162 H 0.04813 1.00598 0.90327 0.0
H2163 H 0.03613 1.00434 0.93306 0.0
H2164 H 0.78659 0.353 0.58481 0.0
H2165 H 0.78178 0.33925 0.61355 0.0
H2166 H 0.82731 0.31276 0.60818 0.0
H2167 H 0.83232 0.32645 0.57957 0.0
H2168 H 0.77648 0.30202 0.62365 0.0
H2169 H 0.84163 0.34648 0.6582 0.0
H2170 H 0.83061 0.35046 0.63616 0.0
H2171 H 0.84352 0.33256 0.63733 0.0
C2172 C 0.79536 0.34394 0.58949 0.0
C2173 C 0.81 0.34105 0.57992 0.0
C2174 C 0.79261 0.33613 0.60598 0.0
C2175 C 0.80445 0.32533 0.61322 0.0
C2176 C 0.81824 0.32137 0.60304 0.0
H2177 H 0.79585 0.26206 0.70798 0.0
H2178 H 0.7976 0.27194 0.67708 0.0
C2179 C 0.82102 0.32915 0.5866 0.0
C2180 C 0.80315 0.31918 0.63193 0.0
H2181 H 0.82654 0.32428 0.67554 0.0
C2182 C 0.78741 0.30686 0.63501 0.0
C2183 C 0.81731 0.32574 0.64681 0.0
C2184 C 0.83417 0.33967 0.64459 0.0
C2185 C 0.78561 0.30069 0.6525 0.0
C2186 C 0.8 0.30687 0.66723 0.0
C2187 C 0.8156 0.31941 0.6642 0.0
C2188 C 0.79905 0.30081 0.68602 0.0
C2189 C 0.76818 0.28788 0.65516 0.0
C2190 C 0.79981 0.31381 0.70144 0.0
C2191 C 0.79891 0.30823 0.71917 0.0
C2192 C 0.79738 0.28952 0.7219 0.0
C2193 C 0.79698 0.27657 0.70644 0.0
C2194 C 0.79783 0.28217 0.68871 0.0
H2195 H 0.75692 0.28798 0.64402 0.0
H2196 H 0.77052 0.27358 0.65489 0.0
H2197 H 0.76381 0.29172 0.66877 0.0
H2198 H 0.80088 0.32828 0.69972 0.0
H2199 H 0.79929 0.31861 0.7307 0.0
H2200 H 0.53344 0.10068 0.34789 0.0
H2201 H 0.54502 0.08566 0.3736 0.0
H2202 H 0.52944 0.03296 0.3399 0.0
H2203 H 0.51788 0.04809 0.31384 0.0
H2204 H 0.51435 0.0351 0.37399 0.0
H2205 H 0.58896 0.06136 0.38573 0.0
H2206 H 0.57661 0.07938 0.38221 0.0
H2207 H 0.57534 0.06124 0.36372 0.0
C2208 C 0.53295 0.08597 0.34577 0.0
C2209 C 0.52481 0.07554 0.3289 0.0
C2210 C 0.53968 0.07741 0.36044 0.0
C2211 C 0.53829 0.05823 0.35859 0.0
C2212 C 0.53083 0.04781 0.3415 0.0
H2213 H 0.543 0.00632 0.46302 0.0
H2214 H 0.54222 0.00781 0.42954 0.0
C2215 C 0.52431 0.05646 0.32664 0.0
C2216 C 0.54232 0.04921 0.37537 0.0
H2217 H 0.57469 0.05283 0.41277 0.0
C2218 C 0.52766 0.03845 0.38229 0.0
C2219 C 0.55968 0.05365 0.38611 0.0
C2220 C 0.57609 0.06439 0.37897 0.0
C2221 C 0.5295 0.03346 0.40038 0.0
C2222 C 0.54658 0.03911 0.41164 0.0
C2223 C 0.56158 0.04861 0.40416 0.0
C2224 C 0.5485 0.03766 0.43184 0.0
C2225 C 0.51283 0.0235 0.40777 0.0
C2226 C 0.55285 0.0539 0.44424 0.0
C2227 C 0.55343 0.05311 0.46329 0.0
C2228 C 0.54967 0.03603 0.4704 0.0
C2229 C 0.54584 0.01971 0.458 0.0
C2230 C 0.54532 0.02052 0.43886 0.0
H2231 H 0.50011 0.02267 0.39819 0.0
H2232 H 0.51434 0.00922 0.40972 0.0
H2233 H 0.51136 0.03053 0.42143 0.0
H2234 H 0.55535 0.06727 0.43913 0.0
H2235 H 0.55651 0.06597 0.47239 0.0
H2236 H 0.80616 0.67428 0.07768 0.0
H2237 H 0.80122 0.68798 0.10819 0.0
H2238 H 0.8506 0.7289 0.11026 0.0
H2239 H 0.85538 0.71555 0.0798 0.0
H2240 H 0.81843 0.69255 0.14252 0.0
H2241 H 0.81866 0.76304 0.12454 0.0
H2242 H 0.81795 0.74397 0.10716 0.0
H2243 H 0.83934 0.75581 0.12028 0.0
C2244 C 0.81593 0.68632 0.08447 0.0
C2245 C 0.83114 0.69372 0.07572 0.0
C2246 C 0.81311 0.69421 0.10217 0.0
C2247 C 0.82525 0.70997 0.11194 0.0
C2248 C 0.84053 0.71721 0.10325 0.0
H2249 H 0.83175 0.74407 0.23378 0.0
H2250 H 0.83552 0.73048 0.20298 0.0
C2251 C 0.84336 0.70936 0.08562 0.0
C2252 C 0.82224 0.71849 0.13114 0.0
H2253 H 0.82085 0.7595 0.15675 0.0
C2254 C 0.81895 0.70721 0.14548 0.0
C2255 C 0.82249 0.73765 0.13556 0.0
C2256 C 0.8246 0.7508 0.12104 0.0
C2257 C 0.81639 0.71435 0.16362 0.0
C2258 C 0.8174 0.73363 0.16825 0.0
C2259 C 0.82026 0.74483 0.15379 0.0
C2260 C 0.81523 0.74233 0.18768 0.0
C2261 C 0.81211 0.70087 0.17752 0.0
C2262 C 0.80303 0.75437 0.19015 0.0
C2263 C 0.80094 0.76241 0.20803 0.0
C2264 C 0.81105 0.75893 0.22436 0.0
C2265 C 0.82346 0.74712 0.22186 0.0
C2266 C 0.82555 0.7391 0.20399 0.0
H2267 H 0.8061 0.68674 0.17057 0.0
H2268 H 0.82492 0.70022 0.18627 0.0
H2269 H 0.80245 0.70514 0.18666 0.0
H2270 H 0.79484 0.75746 0.17817 0.0
H2271 H 0.79128 0.7714 0.20901 0.0
H2272 H 0.16759 0.01156 0.77688 0.0
H2273 H 0.13971 0.01962 0.76214 0.0
H2274 H 0.17261 0.06176 0.73629 0.0
H2275 H 0.20029 0.05435 0.75175 0.0
H2276 H 0.14138 0.07224 0.74689 0.0
H2277 H 0.12555 1.00207 0.70722 0.0
H2278 H 0.12694 1.00302 0.732 0.0
H2279 H 0.14707 0.01107 0.72153 0.0
C2280 C 0.16875 0.0231 0.76876 0.0
C2281 C 0.18596 0.0326 0.76571 0.0
C2282 C 0.15288 0.02747 0.76007 0.0
C2283 C 0.15411 0.04111 0.74791 0.0
C2284 C 0.17134 0.05121 0.74565 0.0
H2285 H 0.108 0.07875 0.65413 0.0
H2286 H 0.12402 0.07486 0.68398 0.0
C2287 C 0.18713 0.04693 0.7544 0.0
C2288 C 0.13788 0.0437 0.73586 0.0
H2289 H 0.10816 0.02308 0.69771 0.0
C2290 C 0.13386 0.0614 0.73635 0.0
C2291 C 0.12807 0.02953 0.72212 0.0
C2292 C 0.13213 0.01037 0.7205 0.0
C2293 C 0.12094 0.06554 0.72289 0.0
C2294 C 0.11199 0.05166 0.70853 0.0
C2295 C 0.11508 0.03368 0.70877 0.0
C2296 C 0.10127 0.05589 0.69185 0.0
C2297 C 0.11741 0.08486 0.72381 0.0
C2298 C 0.08319 0.04644 0.68634 0.0
C2299 C 0.07403 0.04856 0.6692 0.0
C2300 C 0.08294 0.05994 0.65722 0.0
C2301 C 0.10086 0.06978 0.66303 0.0
C2302 C 0.10994 0.06776 0.68018 0.0
H2303 H 0.12042 0.09186 0.73824 0.0
H2304 H 0.12645 0.09305 0.71523 0.0
H2305 H 0.10303 0.08482 0.71841 0.0
H2306 H 0.07636 0.03704 0.69506 0.0
H2307 H 0.06028 0.04068 0.665 0.0
H2308 H 0.78868 0.36529 0.48215 0.0
H2309 H 0.78168 0.35483 0.44884 0.0
H2310 H 0.82537 0.32499 0.45255 0.0
H2311 H 0.83252 0.33536 0.48564 0.0
H2312 H 0.82685 0.34834 0.42458 0.0
H2313 H 0.75787 0.30372 0.4204 0.0
H2314 H 0.76072 0.32654 0.43236 0.0
H2315 H 0.773 0.3104 0.44192 0.0
C2316 C 0.79661 0.35624 0.47596 0.0
C2317 C 0.81121 0.35123 0.48668 0.0
C2318 C 0.79256 0.35024 0.45688 0.0
C2319 C 0.80295 0.33905 0.44817 0.0
C2320 C 0.81716 0.33362 0.45893 0.0
H2321 H 0.79082 0.27672 0.34053 0.0
H2322 H 0.79124 0.28785 0.37312 0.0
C2323 C 0.8212 0.33957 0.47793 0.0
C2324 C 0.79992 0.33383 0.4277 0.0
H2325 H 0.7694 0.30867 0.39202 0.0
C2326 C 0.81425 0.33974 0.41745 0.0
C2327 C 0.78353 0.3225 0.41842 0.0
C2328 C 0.76791 0.31525 0.42879 0.0
C2329 C 0.81271 0.33455 0.39825 0.0
C2330 C 0.79629 0.32331 0.38892 0.0
C2331 C 0.78191 0.31744 0.39914 0.0
C2332 C 0.79431 0.31662 0.36879 0.0
C2333 C 0.82893 0.34066 0.38822 0.0
C2334 C 0.7954 0.32902 0.35535 0.0
C2335 C 0.79516 0.3227 0.33662 0.0
C2336 C 0.79382 0.30381 0.33092 0.0
C2337 C 0.79197 0.29137 0.34435 0.0
C2338 C 0.79216 0.2977 0.36304 0.0
H2339 H 0.84167 0.34587 0.39798 0.0
H2340 H 0.83105 0.32912 0.37849 0.0
H2341 H 0.8264 0.35198 0.38003 0.0
H2342 H 0.79678 0.34366 0.35941 0.0
H2343 H 0.79655 0.3327 0.3267 0.0
H2344 H 0.50788 0.0859 0.25579 0.0
H2345 H 0.52691 0.06682 0.24152 0.0
H2346 H 0.48254 0.01945 0.23558 0.0
H2347 H 0.4632 0.03877 0.24889 0.0
H2348 H 0.5389 0.03278 0.24123 0.0
H2349 H 0.48473 0.03282 0.18284 0.0
H2350 H 0.48633 0.04659 0.20478 0.0
H2351 H 0.47688 0.02221 0.20236 0.0
C2352 C 0.50251 0.07124 0.25218 0.0
C2353 C 0.4841 0.06376 0.25309 0.0
C2354 C 0.51337 0.06034 0.24404 0.0
C2355 C 0.50592 0.04188 0.237 0.0
C2356 C 0.48839 0.03378 0.24056 0.0
H2357 H 0.53632 0.98987 0.13704 0.0
H2358 H 0.5246 0.99141 0.16697 0.0
C2359 C 0.47739 0.04477 0.24822 0.0
C2360 C 0.51465 0.03273 0.22263 0.0
H2361 H 0.50938 0.02016 0.17596 0.0
C2362 C 0.53238 0.02971 0.22699 0.0
C2363 C 0.50615 0.02895 0.204 0.0
C2364 C 0.48756 0.03293 0.19811 0.0
C2365 C 0.54197 0.02334 0.21311 0.0
C2366 C 0.53363 0.02014 0.19447 0.0
C2367 C 0.51567 0.02243 0.19029 0.0
C2368 C 0.54365 0.01657 0.17863 0.0
C2369 C 0.561 0.0204 0.21847 0.0
C2370 C 0.55857 0.02993 0.17544 0.0
C2371 C 0.56524 0.02909 0.15834 0.0
C2372 C 0.55695 0.01501 0.14408 0.0
C2373 C 0.54279 1.00101 0.14771 0.0
C2374 C 0.5362 1.00179 0.16484 0.0
H2375 H 0.56294 0.0172 0.23302 0.0
H2376 H 0.56407 0.00902 0.20918 0.0
H2377 H 0.57097 0.03324 0.21737 0.0
H2378 H 0.56422 0.04173 0.18565 0.0
H2379 H 0.57605 0.04017 0.15589 0.0
H2380 H 0.8448 0.71919 0.9814 0.0
H2381 H 0.84083 0.73202 0.95199 0.0
H2382 H 0.79977 0.68384 0.92996 0.0
H2383 H 0.80315 0.67138 0.95986 0.0
H2384 H 0.84743 0.72537 0.91985 0.0
H2385 H 0.77264 0.71784 0.90862 0.0
H2386 H 0.78432 0.71377 0.93022 0.0
H2387 H 0.77888 0.69601 0.91071 0.0
C2388 C 0.83457 0.71138 0.9705 0.0
C2389 C 0.82412 0.69418 0.97362 0.0
C2390 C 0.83238 0.71878 0.95333 0.0
C2391 C 0.81972 0.70939 0.9381 0.0
C2392 C 0.80923 0.69212 0.94118 0.0
H2393 H 0.79997 0.7299 0.81899 0.0
H2394 H 0.8019 0.71661 0.84852 0.0
C2395 C 0.81123 0.68481 0.95854 0.0
C2396 C 0.81829 0.71741 0.91919 0.0
H2397 H 0.78826 0.72526 0.88284 0.0
C2398 C 0.83436 0.72538 0.91202 0.0
C2399 C 0.80145 0.71778 0.90822 0.0
C2400 C 0.78336 0.71108 0.91491 0.0
C2401 C 0.83413 0.73317 0.89482 0.0
C2402 C 0.81734 0.73333 0.88384 0.0
C2403 C 0.80126 0.72528 0.89084 0.0
C2404 C 0.81626 0.74177 0.86528 0.0
C2405 C 0.85207 0.74086 0.88832 0.0
C2406 C 0.8235 0.76063 0.86409 0.0
C2407 C 0.82224 0.76842 0.847 0.0
C2408 C 0.81385 0.75771 0.83012 0.0
C2409 C 0.8067 0.73882 0.83133 0.0
C2410 C 0.80773 0.73111 0.84846 0.0
H2411 H 0.86354 0.73581 0.89564 0.0
H2412 H 0.85154 0.73712 0.87317 0.0
H2413 H 0.855 0.75614 0.89112 0.0
H2414 H 0.82994 0.76955 0.87655 0.0
H2415 H 0.82782 0.78298 0.84707 0.0
H2416 H 0.86106 0.17278 0.01051 0.0
H2417 H 0.88432 0.15415 0.0081 0.0
H2418 H 0.8576 0.11678 0.04313 0.0
H2419 H 0.83407 0.1351 0.04533 0.0
H2420 H 0.90887 0.13991 0.03269 0.0
H2421 H 0.85387 0.08483 0.99325 0.0
H2422 H 0.85087 0.10811 0.99879 0.0
H2423 H 0.84955 0.09237 0.0161 0.0
C2424 C 0.86037 0.16086 0.01809 0.0
C2425 C 0.84554 0.15522 0.02785 0.0
C2426 C 0.87368 0.15022 0.01667 0.0
C2427 C 0.8724 0.13385 0.02504 0.0
C2428 C 0.85859 0.12916 0.03622 0.0
H2429 H 0.92355 0.03952 0.01217 0.0
H2430 H 0.90607 0.06234 0.02199 0.0
C2431 C 0.84521 0.1397 0.03754 0.0
C2432 C 0.88427 0.12077 0.02052 0.0
H2433 H 0.88292 0.07761 0.99917 0.0
C2434 C 0.90324 0.12627 0.02538 0.0
C2435 C 0.87687 0.10307 0.01079 0.0
C2436 C 0.8567 0.09675 1.00425 0.0
C2437 C 0.91498 0.11435 0.02112 0.0
C2438 C 0.90752 0.09661 0.01152 0.0
C2439 C 0.88858 0.09118 0.00662 0.0
C2440 C 0.919 0.08334 0.00631 0.0
C2441 C 0.9352 0.12069 0.02719 0.0
C2442 C 0.93197 0.08753 0.99411 0.0
C2443 C 0.94201 0.0745 0.98849 0.0
C2444 C 0.93919 0.05702 0.99491 0.0
C2445 C 0.92617 0.0529 0.00712 0.0
C2446 C 0.91614 0.06591 0.01271 0.0
H2447 H 0.93819 0.13246 0.03837 0.0
H2448 H 0.94125 0.10927 0.0322 0.0
H2449 H 0.94199 0.12532 0.01521 0.0
H2450 H 0.93415 0.10076 0.98872 0.0
H2451 H 0.95209 0.07818 0.97925 0.0
H2452 H 0.34926 0.42509 0.04601 0.0
H2453 H 0.38087 0.44024 0.04437 0.0
H2454 H 0.36178 0.47668 0.00775 0.0
H2455 H 0.33011 0.46189 0.00986 0.0
H2456 H 0.40269 0.4441 0.01949 0.0
H2457 H 0.39591 0.515 0.04254 0.0
H2458 H 0.378 0.49524 0.04332 0.0
H2459 H 0.38057 0.50527 0.02198 0.0
C2460 C 0.3517 0.43631 0.03755 0.0
C2461 C 0.3368 0.44215 0.02811 0.0
C2462 C 0.36998 0.44508 0.03662 0.0
C2463 C 0.37422 0.46013 0.02626 0.0
C2464 C 0.35932 0.46563 0.01641 0.0
H2465 H 0.48689 0.49641 0.99729 0.0
H2466 H 0.45471 0.48224 0.9972 0.0
C2467 C 0.34101 0.45694 0.01744 0.0
C2468 C 0.39407 0.46969 0.02566 0.0
H2469 H 0.42354 0.51205 0.0308 0.0
C2470 C 0.40712 0.45898 0.022 0.0
C2471 C 0.40049 0.48917 0.02923 0.0
C2472 C 0.38807 0.50183 0.03468 0.0
C2473 C 0.42582 0.46694 0.02158 0.0
C2474 C 0.43209 0.48647 0.02441 0.0
C2475 C 0.4191 0.49717 0.02833 0.0
C2476 C 0.45197 0.49597 0.02391 0.0
C2477 C 0.43878 0.45411 0.01873 0.0
C2478 C 0.46158 0.50938 0.03839 0.0
C2479 C 0.48012 0.51787 0.03829 0.0
C2480 C 0.48989 0.51336 0.02366 0.0
C2481 C 0.48013 0.5003 0.00893 0.0
C2482 C 0.46157 0.49193 0.00898 0.0
H2483 H 0.43341 0.44022 0.02274 0.0
H2484 H 0.4405 0.45233 1.00382 0.0
H2485 H 0.45237 0.45967 0.0269 0.0
H2486 H 0.45485 0.51308 0.05012 0.0
H2487 H 0.48691 0.52774 0.04997 0.0
H2488 H 0.35347 0.56931 0.70711 0.0
H2489 H 0.32982 0.58738 0.70244 0.0
H2490 H 0.29509 0.55114 0.73268 0.0
H2491 H 0.3192 0.53371 0.73838 0.0
H2492 H 0.29409 0.58471 0.68949 0.0
H2493 H 0.30521 0.59854 0.76651 0.0
H2494 H 0.31903 0.58602 0.75385 0.0
H2495 H 0.29661 0.57476 0.75779 0.0
C2496 C 0.3406 0.56491 0.71234 0.0
C2497 C 0.33826 0.5504 0.72345 0.0
C2498 C 0.32708 0.57523 0.70964 0.0
C2499 C 0.31094 0.57096 0.71774 0.0
C2500 C 0.30769 0.55503 0.72684 0.0
H2501 H 0.24788 0.65197 0.75026 0.0
H2502 H 0.25198 0.62153 0.73794 0.0
C2503 C 0.32141 0.54504 0.73 0.0
C2504 C 0.2991 0.58468 0.71911 0.0
H2505 H 0.28572 0.61431 0.75072 0.0
C2506 C 0.29201 0.59101 0.70286 0.0
C2507 C 0.29655 0.59304 0.7366 0.0
C2508 C 0.30487 0.5879 0.75468 0.0
C2509 C 0.2829 0.60582 0.70369 0.0
C2510 C 0.28083 0.6144 0.72117 0.0
C2511 C 0.28713 0.6075 0.73732 0.0
C2512 C 0.27469 0.63211 0.72355 0.0
C2513 C 0.27597 0.61248 0.68593 0.0
C2514 C 0.28564 0.64812 0.71892 0.0
C2515 C 0.28349 0.66551 0.72611 0.0
C2516 C 0.27039 0.66716 0.73815 0.0
C2517 C 0.2583 0.65113 0.74129 0.0
C2518 C 0.2605 0.63374 0.73413 0.0
H2519 H 0.27343 0.60138 0.67411 0.0
H2520 H 0.26319 0.61755 0.68725 0.0
H2521 H 0.2864 0.62407 0.68269 0.0
H2522 H 0.29692 0.6472 0.71112 0.0
H2523 H 0.29315 0.67753 0.72354 0.0
H2524 H 0.23143 0.65185 0.46995 0.0
H2525 H 0.20052 0.63368 0.46896 0.0
H2526 H 0.20717 0.6382 0.52871 0.0
H2527 H 0.23794 0.65665 0.52985 0.0
H2528 H 0.19112 0.60034 0.4817 0.0
H2529 H 0.15756 0.65081 0.51746 0.0
H2530 H 0.17917 0.65756 0.50888 0.0
H2531 H 0.17823 0.64841 0.53081 0.0
C2532 C 0.22622 0.64924 0.4829 0.0
C2533 C 0.23715 0.65573 0.49999 0.0
C2534 C 0.20856 0.63881 0.48229 0.0
C2535 C 0.20145 0.63475 0.49875 0.0
C2536 C 0.2122 0.6415 0.51584 0.0
H2537 H 0.11442 0.5633 0.53631 0.0
H2538 H 0.1424 0.58349 0.53083 0.0
C2539 C 0.22984 0.65199 0.51646 0.0
C2540 C 0.18331 0.62242 0.49808 0.0
H2541 H 0.14258 0.61894 0.51526 0.0
C2542 C 0.18039 0.60448 0.48878 0.0
C2543 C 0.16929 0.62789 0.50725 0.0
C2544 C 0.17113 0.64728 0.5165 0.0
C2545 C 0.16415 0.5916 0.48918 0.0
C2546 C 0.15051 0.59686 0.49904 0.0
C2547 C 0.15316 0.61495 0.50779 0.0
C2548 C 0.13393 0.58349 0.50159 0.0
C2549 C 0.16195 0.57223 0.47975 0.0
C2550 C 0.11998 0.57656 0.48683 0.0
C2551 C 0.10383 0.56495 0.48991 0.0
C2552 C 0.10142 0.56016 0.5078 0.0
C2553 C 0.11573 0.56672 0.52236 0.0
C2554 C 0.13175 0.57831 0.51929 0.0
H2555 H 0.17469 0.56974 0.47457 0.0
H2556 H 0.15782 0.56203 0.48948 0.0
H2557 H 0.15099 0.56982 0.46781 0.0
H2558 H 0.12139 0.58054 0.47309 0.0
H2559 H 0.09306 0.56021 0.47841 0.0
H2560 H 0.64283 0.94378 0.81438 0.0
H2561 H 0.67133 0.93411 0.82412 0.0
H2562 H 0.6729 0.91179 0.76787 0.0
H2563 H 0.64445 0.92129 0.75794 0.0
H2564 H 0.6799 0.88827 0.79636 0.0
H2565 H 0.7222 0.95954 0.81049 0.0
H2566 H 0.70162 0.95498 0.82118 0.0
H2567 H 0.70017 0.95429 0.79644 0.0
C2568 C 0.64916 0.9367 0.80408 0.0
C2569 C 0.64138 0.93339 0.78535 0.0
C2570 C 0.66549 0.9313 0.80967 0.0
C2571 C 0.67426 0.92248 0.79665 0.0
C2572 C 0.66632 0.91868 0.77808 0.0
H2573 H 0.77965 0.9004 0.78802 0.0
H2574 H 0.75202 0.91317 0.78762 0.0
C2575 C 0.65007 0.92413 0.77245 0.0
C2576 C 0.69184 0.91724 0.80219 0.0
H2577 H 0.73725 0.93502 0.81512 0.0
C2578 C 0.69243 0.89845 0.80066 0.0
C2579 C 0.7081 0.93064 0.80762 0.0
C2580 C 0.70816 0.95102 0.80895 0.0
C2581 C 0.70898 0.89265 0.80411 0.0
C2582 C 0.72529 0.90604 0.80941 0.0
C2583 C 0.72467 0.92484 0.81123 0.0
C2584 C 0.74321 0.90069 0.81158 0.0
C2585 C 0.70901 0.87227 0.80135 0.0
C2586 C 0.74769 0.89009 0.82563 0.0
C2587 C 0.76341 0.88272 0.82585 0.0
C2588 C 0.77487 0.8859 0.81202 0.0
C2589 C 0.77094 0.89755 0.7987 0.0
C2590 C 0.75524 0.90492 0.79851 0.0
H2591 H 0.6958 0.86405 0.79409 0.0
H2592 H 0.72007 0.86968 0.79323 0.0
H2593 H 0.71153 0.86727 0.81506 0.0
H2594 H 0.73863 0.88686 0.83594 0.0
H2595 H 0.76599 0.87368 0.8362 0.0
H2596 H 0.71109 0.91862 0.5321 0.0
H2597 H 0.68202 0.92968 0.52995 0.0
H2598 H 0.71195 0.98567 0.53389 0.0
H2599 H 0.74047 0.97493 0.53584 0.0
H2600 H 0.66649 0.95299 0.55295 0.0
H2601 H 0.67607 0.98655 0.48951 0.0
H2602 H 0.69015 0.97103 0.49739 0.0
H2603 H 0.69499 0.99482 0.50733 0.0
C2604 C 0.71154 0.93328 0.53233 0.0
C2605 C 0.72865 0.94565 0.53402 0.0
C2606 C 0.69472 0.93971 0.53117 0.0
C2607 C 0.69422 0.95875 0.53135 0.0
C2608 C 0.71133 0.97096 0.53317 0.0
H2609 H 0.61461 0.03331 0.52647 0.0
H2610 H 0.64117 0.0187 0.52757 0.0
C2611 C 0.72795 0.96463 0.53443 0.0
C2612 C 0.67629 0.96615 0.52997 0.0
H2613 H 0.65324 0.99498 0.50672 0.0
C2614 C 0.6636 0.962 0.54266 0.0
C2615 C 0.67196 0.97817 0.51675 0.0
C2616 C 0.6839 0.98278 0.50186 0.0
C2617 C 0.64761 0.96977 0.54293 0.0
C2618 C 0.64338 0.98196 0.5298 0.0
C2619 C 0.65599 0.98587 0.51697 0.0
C2620 C 0.6264 0.99099 0.52924 0.0
C2621 C 0.63584 0.96536 0.55799 0.0
C2622 C 0.60847 0.98077 0.5295 0.0
C2623 C 0.59301 0.98927 0.52894 0.0
C2624 C 0.59457 0.00845 0.52789 0.0
C2625 C 0.61244 0.0186 0.52733 0.0
C2626 C 0.62788 0.01011 0.52793 0.0
H2627 H 0.6436 0.96107 0.57008 0.0
H2628 H 0.63019 0.9774 0.56288 0.0
H2629 H 0.62433 0.95372 0.5525 0.0
H2630 H 0.60624 0.966 0.52987 0.0
H2631 H 0.57971 0.98067 0.52924 0.0
H2632 H 0.34771 0.47288 0.75435 0.0
H2633 H 0.34306 0.4395 0.75388 0.0
H2634 H 0.38498 0.4382 0.71835 0.0
H2635 H 0.38965 0.47191 0.71857 0.0
H2636 H 0.35314 0.40822 0.70943 0.0
H2637 H 0.38184 0.41702 0.78347 0.0
H2638 H 0.36402 0.42959 0.77924 0.0
H2639 H 0.38481 0.43566 0.76915 0.0
C2640 C 0.35581 0.46552 0.74622 0.0
C2641 C 0.36922 0.47506 0.73669 0.0
C2642 C 0.35318 0.44645 0.74603 0.0
C2643 C 0.36401 0.4365 0.73648 0.0
C2644 C 0.37663 0.44572 0.72595 0.0
H2645 H 0.35567 0.32573 0.77115 0.0
H2646 H 0.36998 0.35519 0.76146 0.0
C2647 C 0.37922 0.46493 0.72603 0.0
C2648 C 0.36244 0.41664 0.73844 0.0
H2649 H 0.36305 0.38738 0.77167 0.0
C2650 C 0.35561 0.40357 0.72295 0.0
C2651 C 0.36618 0.41061 0.75599 0.0
C2652 C 0.37481 0.42396 0.77288 0.0
C2653 C 0.35109 0.38465 0.72485 0.0
C2654 C 0.35309 0.37881 0.74276 0.0
C2655 C 0.36125 0.3918 0.75797 0.0
C2656 C 0.34515 0.35981 0.74646 0.0
C2657 C 0.34392 0.37118 0.70771 0.0
C2658 C 0.32646 0.35258 0.74123 0.0
C2659 C 0.31829 0.33575 0.74665 0.0
C2660 C 0.32856 0.32592 0.75771 0.0
C2661 C 0.34735 0.333 0.76269 0.0
C2662 C 0.35557 0.3498 0.75711 0.0
H2663 H 0.34979 0.37633 0.6954 0.0
H2664 H 0.34709 0.3574 0.70938 0.0
H2665 H 0.32889 0.36964 0.70492 0.0
H2666 H 0.31798 0.36028 0.73357 0.0
H2667 H 0.30376 0.3308 0.74264 0.0
H2668 H 0.12832 0.52706 0.301 0.0
H2669 H 0.14403 0.55888 0.29997 0.0
H2670 H 0.14381 0.54767 0.24095 0.0
H2671 H 0.12851 0.51574 0.24188 0.0
H2672 H 0.17712 0.56498 0.25841 0.0
H2673 H 0.12453 0.60183 0.28128 0.0
H2674 H 0.13105 0.58639 0.29704 0.0
H2675 H 0.11971 0.57729 0.27417 0.0
C2676 C 0.13148 0.53138 0.28776 0.0
C2677 C 0.12715 0.51882 0.27152 0.0
C2678 C 0.14035 0.54963 0.28719 0.0
C2679 C 0.14483 0.55573 0.27034 0.0
C2680 C 0.14041 0.54327 0.25409 0.0
H2681 H 0.19579 0.6578 0.23364 0.0
H2682 H 0.1767 0.62801 0.23705 0.0
C2683 C 0.13167 0.525 0.25466 0.0
C2684 C 0.15504 0.57478 0.26972 0.0
H2685 H 0.15365 0.62035 0.27917 0.0
C2686 C 0.17194 0.57706 0.26289 0.0
C2687 C 0.14825 0.59054 0.27559 0.0
C2688 C 0.12982 0.58895 0.28227 0.0
C2689 C 0.18229 0.59468 0.26186 0.0
C2690 C 0.17555 0.61037 0.2678 0.0
C2691 C 0.15874 0.6082 0.27473 0.0
C2692 C 0.18574 0.62912 0.26632 0.0
C2693 C 0.20039 0.59649 0.25444 0.0
C2694 C 0.19682 0.63966 0.28179 0.0
C2695 C 0.20791 0.65661 0.27987 0.0
C2696 C 0.20803 0.66325 0.26244 0.0
C2697 C 0.19627 0.65293 0.24717 0.0
C2698 C 0.18527 0.63598 0.2491 0.0
H2699 H 0.20462 0.58302 0.25231 0.0
H2700 H 0.1994 0.60225 0.24097 0.0
H2701 H 0.21115 0.60622 0.26412 0.0
H2702 H 0.19734 0.63447 0.29517 0.0
H2703 H 0.21691 0.66413 0.29186 0.0
H2704 H 0.48167 0.68121 0.44361 0.0
H2705 H 0.49137 0.66564 0.46978 0.0
H2706 H 0.54568 0.67311 0.45424 0.0
H2707 H 0.5362 0.6889 0.4281 0.0
H2708 H 0.50439 0.63329 0.46541 0.0
H2709 H 0.55527 0.68786 0.51057 0.0
H2710 H 0.539 0.69298 0.49275 0.0
H2711 H 0.55914 0.68554 0.48672 0.0
C2712 C 0.49576 0.67981 0.44587 0.0
C2713 C 0.50813 0.68624 0.43365 0.0
C2714 C 0.50128 0.67093 0.46087 0.0
C2715 C 0.51928 0.66841 0.46407 0.0
C2716 C 0.53181 0.67525 0.45225 0.0
H2717 H 0.57621 0.59997 0.52621 0.0
H2718 H 0.56768 0.62464 0.50945 0.0
C2719 C 0.52632 0.68415 0.43721 0.0
C2720 C 0.52439 0.65696 0.47853 0.0
H2721 H 0.55429 0.65682 0.51718 0.0
C2722 C 0.51515 0.63848 0.47686 0.0
C2723 C 0.53851 0.66377 0.49335 0.0
C2724 C 0.54847 0.68367 0.49611 0.0
C2725 C 0.52 0.62643 0.48928 0.0
C2726 C 0.53421 0.63318 0.50408 0.0
C2727 C 0.54333 0.65174 0.5059 0.0
C2728 C 0.54036 0.62079 0.51706 0.0
C2729 C 0.51026 0.60643 0.486 0.0
C2730 C 0.52814 0.61114 0.52769 0.0
C2731 C 0.53293 0.59696 0.5372 0.0
C2732 C 0.5501 0.59236 0.53639 0.0
C2733 C 0.56288 0.60317 0.52711 0.0
C2734 C 0.55802 0.61725 0.51748 0.0
H2735 H 0.50329 0.60256 0.47157 0.0
H2736 H 0.51986 0.5971 0.48878 0.0
H2737 H 0.49971 0.60411 0.49548 0.0
H2738 H 0.51457 0.61394 0.52787 0.0
H2739 H 0.52285 0.58903 0.54442 0.0
H2740 H 0.63521 0.34063 0.67708 0.0
H2741 H 0.66185 0.33033 0.69108 0.0
H2742 H 0.66989 0.37413 0.73604 0.0
H2743 H 0.64305 0.38443 0.72229 0.0
H2744 H 0.6992 0.34661 0.70409 0.0
H2745 H 0.65854 0.32608 0.76085 0.0
H2746 H 0.64845 0.33259 0.73955 0.0
H2747 H 0.66183 0.34997 0.75702 0.0
C2748 C 0.64287 0.34837 0.68971 0.0
C2749 C 0.63678 0.36309 0.69881 0.0
C2750 C 0.6581 0.34246 0.69768 0.0
C2751 C 0.66747 0.3512 0.7148 0.0
C2752 C 0.66253 0.36699 0.723 0.0
H2753 H 0.74684 0.31002 0.78737 0.0
H2754 H 0.72565 0.32839 0.775 0.0
C2755 C 0.64726 0.3729 0.71507 0.0
C2756 C 0.68105 0.34253 0.72482 0.0
H2757 H 0.68746 0.31854 0.76183 0.0
C2758 C 0.69675 0.34061 0.7168 0.0
C2759 C 0.6777 0.33468 0.74136 0.0
C2760 C 0.66067 0.33576 0.75019 0.0
C2761 C 0.70914 0.33082 0.7248 0.0
C2762 C 0.70548 0.3225 0.74101 0.0
C2763 C 0.6901 0.32491 0.74936 0.0
C2764 C 0.71713 0.31067 0.74909 0.0
C2765 C 0.72599 0.32936 0.71581 0.0
C2766 C 0.71864 0.29424 0.73891 0.0
C2767 C 0.73061 0.28366 0.74594 0.0
C2768 C 0.74123 0.28935 0.76331 0.0
C2769 C 0.73888 0.30527 0.77394 0.0
C2770 C 0.72686 0.31584 0.76687 0.0
H2771 H 0.72922 0.34033 0.70662 0.0
H2772 H 0.73798 0.33031 0.72643 0.0
H2773 H 0.72367 0.31579 0.70724 0.0
H2774 H 0.71086 0.28983 0.72533 0.0
H2775 H 0.73202 0.27141 0.73745 0.0
H2776 H 0.03229 0.27491 0.90771 0.0
H2777 H 0.04114 0.30704 0.92196 0.0
H2778 H 0.98503 0.3072 0.92872 0.0
H2779 H 0.97607 0.27519 0.91486 0.0
H2780 H 0.02984 0.33893 0.91194 0.0
H2781 H 0.01172 0.32361 0.9811 0.0
H2782 H 0.0139 0.30586 0.9634 0.0
H2783 H 0.99324 0.31467 0.96291 0.0
C2784 C 0.02183 0.28179 0.91223 0.0
C2785 C 1.00349 0.2724 0.91033 0.0
C2786 C 0.02692 0.30014 0.92034 0.0
C2787 C 0.01379 0.30933 0.92671 0.0
C2788 C 0.99544 0.30019 0.92431 0.0
H2789 H 1.0095 0.4228 0.95101 0.0
H2790 H 1.01008 0.39206 0.93627 0.0
C2791 C 0.99034 0.28189 0.9163 0.0
C2792 C 0.01906 0.3285 0.93589 0.0
H2793 H 0.01541 0.35518 0.97524 0.0
C2794 C 0.02693 0.34251 0.92587 0.0
C2795 C 0.01559 0.33306 0.95419 0.0
C2796 C 1.00833 0.31848 0.9661 0.0
C2797 C 0.03058 0.36113 0.93337 0.0
C2798 C 0.02589 0.36577 0.95119 0.0
C2799 C 0.01883 0.35165 0.9615 0.0
C2800 C 0.0273 0.38512 0.95918 0.0
C2801 C 0.03938 0.3756 0.92214 0.0
C2802 C 0.03661 0.39138 0.97703 0.0
C2803 C 0.03604 0.4088 0.98557 0.0
C2804 C 0.0262 0.4203 0.97638 0.0
C2805 C 0.01738 0.41428 0.95829 0.0
C2806 C 0.01779 0.39677 0.94982 0.0
H2807 H 0.04755 0.36975 0.91224 0.0
H2808 H 0.02858 0.38084 0.91394 0.0
H2809 H 0.04838 0.38741 0.93119 0.0
H2810 H 0.04397 0.38259 0.98452 0.0
H2811 H 0.0431 0.41319 0.99947 0.0
H2812 H 0.06109 0.83334 0.2238 0.0
H2813 H 0.03814 0.81442 0.23914 0.0
H2814 H 0.99534 0.8293 0.20315 0.0
H2815 H 0.01809 0.84836 0.18788 0.0
H2816 H 1.00914 0.82568 0.25703 0.0
H2817 H 0.98352 0.77178 0.19736 0.0
H2818 H 1.00534 0.78752 0.19927 0.0
H2819 H 0.98471 0.79491 0.19155 0.0
C2820 C 0.04679 0.83266 0.21921 0.0
C2821 C 0.04138 0.84214 0.20444 0.0
C2822 C 0.03374 0.8218 0.22794 0.0
C2823 C 0.01514 0.82017 0.22194 0.0
C2824 C 1.00969 0.83005 0.20762 0.0
H2825 H 0.90975 0.78493 0.24559 0.0
H2826 H 0.93834 0.79371 0.23296 0.0
C2827 C 0.0227 0.84096 0.19894 0.0
C2828 C 1.00124 0.80858 0.23089 0.0
H2829 H 0.96418 0.77313 0.22123 0.0
C2830 C 0.99949 0.81394 0.24939 0.0
C2831 C 0.98886 0.79323 0.22083 0.0
C2832 C 0.99076 0.78637 0.2012 0.0
C2833 C 0.98479 0.80514 0.25773 0.0
C2834 C 0.9718 0.79045 0.2473 0.0
C2835 C 0.97419 0.78441 0.22915 0.0
C2836 C 0.95445 0.78294 0.25405 0.0
C2837 C 0.98263 0.81237 0.27718 0.0
C2838 C 0.954 0.77348 0.2698 0.0
C2839 C 0.93758 0.76833 0.27705 0.0
C2840 C 0.92141 0.7725 0.26856 0.0
C2841 C 0.92187 0.78124 0.2523 0.0
C2842 C 0.93822 0.78637 0.24511 0.0
H2843 H 0.99247 0.8255 0.2823 0.0
H2844 H 0.96857 0.8147 0.27779 0.0
H2845 H 0.98493 0.80201 0.2867 0.0
H2846 H 0.96639 0.77049 0.2767 0.0
H2847 H 0.93758 0.7614 0.28945 0.0
H2848 H 0.50698 0.33384 0.10353 0.0
H2849 H 0.51177 0.36306 0.09046 0.0
H2850 H 0.56649 0.37748 0.11914 0.0
H2851 H 0.56139 0.34818 0.13307 0.0
H2852 H 0.55533 0.40799 0.11962 0.0
H2853 H 0.53359 0.37818 0.0471 0.0
H2854 H 0.5154 0.37191 0.0606 0.0
H2855 H 0.53638 0.36385 0.06533 0.0
C2856 C 0.5202 0.343 0.10709 0.0
C2857 C 0.53379 0.33794 0.11946 0.0
C2858 C 0.52303 0.35999 0.09928 0.0
C2859 C 0.53979 0.37296 0.10296 0.0
C2860 C 0.55339 0.36811 0.11556 0.0
H2861 H 0.56023 0.46537 0.03077 0.0
H2862 H 0.55844 0.43634 0.04479 0.0
C2863 C 0.55047 0.35107 0.12361 0.0
C2864 C 0.54277 0.39144 0.09411 0.0
H2865 H 0.53508 0.4106 0.05327 0.0
C2866 C 0.55092 0.40835 0.10506 0.0
C2867 C 0.53762 0.39274 0.0749 0.0
C2868 C 0.53046 0.37569 0.06128 0.0
C2869 C 0.55352 0.42582 0.0978 0.0
C2870 C 0.54735 0.42723 0.07884 0.0
C2871 C 0.53966 0.41026 0.0678 0.0
C2872 C 0.54889 0.44579 0.07017 0.0
C2873 C 0.56357 0.44257 0.11069 0.0
C2874 C 0.54406 0.46158 0.07909 0.0
C2875 C 0.5454 0.47849 0.07109 0.0
C2876 C 0.55128 0.48061 0.05348 0.0
C2877 C 0.55578 0.46477 0.04434 0.0
C2878 C 0.55465 0.44786 0.05247 0.0
H2879 H 0.57286 0.43873 0.12188 0.0
H2880 H 0.57177 0.4528 0.10317 0.0
H2881 H 0.55355 0.44916 0.11742 0.0
H2882 H 0.53883 0.46085 0.09226 0.0
H2883 H 0.54141 0.48993 0.07872 0.0
H2884 H 0.01297 0.28587 0.345 0.0
H2885 H 0.98225 0.28621 0.33043 0.0
H2886 H 0.96022 0.26909 0.37952 0.0
H2887 H 0.99097 0.26792 0.39381 0.0
H2888 H 0.93737 0.25187 0.35214 0.0
H2889 H 0.95213 0.32331 0.3346 0.0
H2890 H 0.96626 0.30987 0.32381 0.0
H2891 H 0.96857 0.31417 0.34877 0.0
C2892 C 1.00166 0.28234 0.35286 0.0
C2893 C 1.00483 0.27708 0.37084 0.0
C2894 C 0.98387 0.28268 0.34447 0.0
C2895 C 0.9684 0.27817 0.3538 0.0
C2896 C 0.97157 0.2728 0.37177 0.0
H2897 H 0.86321 0.30798 0.3154 0.0
H2898 H 0.89345 0.30631 0.33012 0.0
C2899 C 0.98937 0.27223 0.38008 0.0
C2900 C 0.94909 0.27857 0.34477 0.0
H2901 H 0.92388 0.30457 0.32022 0.0
C2902 C 0.93453 0.26351 0.34526 0.0
C2903 C 0.9447 0.29373 0.33587 0.0
C2904 C 0.95869 0.31125 0.33589 0.0
C2905 C 0.91633 0.26305 0.33716 0.0
C2906 C 0.91213 0.27784 0.3275 0.0
C2907 C 0.92665 0.29299 0.32723 0.0
C2908 C 0.89289 0.27837 0.31833 0.0
C2909 C 0.90169 0.24686 0.33972 0.0
C2910 C 0.88177 0.26337 0.30636 0.0
C2911 C 0.86404 0.26421 0.29802 0.0
C2912 C 0.8568 0.28025 0.30094 0.0
C2913 C 0.86804 0.29532 0.31262 0.0
C2914 C 0.88559 0.29439 0.32113 0.0
H2915 H 0.90566 0.24017 0.3521 0.0
H2916 H 0.88855 0.2511 0.3413 0.0
H2917 H 0.89961 0.23637 0.32744 0.0
H2918 H 0.88686 0.25096 0.30316 0.0
H2919 H 0.85609 0.25232 0.28904 0.0
H2920 H 0.05583 0.73348 0.63695 0.0
H2921 H 0.0593 0.70296 0.62336 0.0
H2922 H 0.01735 0.70349 0.57859 0.0
H2923 H 0.01356 0.7337 0.59223 0.0
H2924 H 0.03036 0.66777 0.61406 0.0
H2925 H 0.06059 0.68978 0.5518 0.0
H2926 H 0.06134 0.70569 0.57226 0.0
H2927 H 0.04057 0.69826 0.5566 0.0
C2928 C 0.04747 0.7273 0.62407 0.0
C2929 C 0.03449 0.73659 0.61579 0.0
C2930 C 0.04939 0.70959 0.6163 0.0
C2931 C 0.03871 0.70049 0.59968 0.0
C2932 C 0.026 0.7099 0.59124 0.0
H2933 H 0.03434 0.59796 0.5246 0.0
H2934 H 0.03217 0.62823 0.53933 0.0
C2935 C 0.02384 0.72741 0.59915 0.0
C2936 C 0.04048 0.68122 0.59139 0.0
H2937 H 0.05265 0.65777 0.55337 0.0
C2938 C 0.03535 0.66567 0.60082 0.0
C2939 C 0.04673 0.67793 0.57395 0.0
C2940 C 0.05277 0.69374 0.56302 0.0
C2941 C 0.03583 0.64734 0.5933 0.0
C2942 C 0.04239 0.644 0.57592 0.0
C2943 C 0.04762 0.6597 0.56659 0.0
C2944 C 0.04356 0.62461 0.56695 0.0
C2945 C 0.02838 0.63169 0.60388 0.0
C2946 C 0.05082 0.61164 0.57701 0.0
C2947 C 0.05173 0.59386 0.56853 0.0
C2948 C 0.04588 0.58829 0.54942 0.0
C2949 C 0.039 0.60136 0.5393 0.0
C2950 C 0.0378 0.61898 0.54783 0.0
H2951 H 0.01842 0.63556 0.61289 0.0
H2952 H 0.0215 0.61916 0.5944 0.0
H2953 H 0.03975 0.62831 0.61302 0.0
H2954 H 0.05616 0.61529 0.59151 0.0
H2955 H 0.05739 0.58457 0.57695 0.0
H2956 H 0.62746 0.77538 0.89047 0.0
H2957 H 0.6572 0.77644 0.87892 0.0
H2958 H 0.63393 0.78713 0.8255 0.0
H2959 H 0.60454 0.78557 0.83669 0.0
H2960 H 0.65385 0.76464 0.81836 0.0
H2961 H 0.6981 0.81612 0.87188 0.0
H2962 H 0.68659 0.79638 0.88141 0.0
H2963 H 0.67358 0.81141 0.87064 0.0
C2964 C 0.62868 0.77815 0.87632 0.0
C2965 C 0.61312 0.78042 0.86474 0.0
C2966 C 0.64595 0.77888 0.86962 0.0
C2967 C 0.64851 0.78214 0.8511 0.0
C2968 C 0.63293 0.78453 0.83974 0.0
H2969 H 0.75587 0.81325 0.80707 0.0
H2970 H 0.72752 0.81289 0.82104 0.0
C2971 C 0.61583 0.78369 0.84633 0.0
C2972 C 0.66676 0.78245 0.84305 0.0
H2973 H 0.71313 0.80085 0.85019 0.0
C2974 C 0.66673 0.77264 0.8255 0.0
C2975 C 0.68402 0.793 0.85171 0.0
C2976 C 0.68564 0.80498 0.86985 0.0
C2977 C 0.68278 0.7729 0.8167 0.0
C2978 C 0.70014 0.7829 0.82563 0.0
C2979 C 0.70021 0.79292 0.8431 0.0
C2980 C 0.7181 0.7832 0.81704 0.0
C2981 C 0.68066 0.76286 0.79744 0.0
C2982 C 0.72315 0.76678 0.81006 0.0
C2983 C 0.73941 0.76699 0.80184 0.0
C2984 C 0.75174 0.78362 0.80033 0.0
C2985 C 0.74694 0.80008 0.80765 0.0
C2986 C 0.73055 0.79986 0.81583 0.0
H2987 H 0.66659 0.76138 0.79023 0.0
H2988 H 0.69037 0.77014 0.78885 0.0
H2989 H 0.68326 0.74876 0.79839 0.0
H2990 H 0.71456 0.75355 0.81114 0.0
H2991 H 0.74241 0.75389 0.79679 0.0
H2992 H 0.42408 0.57533 0.67662 0.0
H2993 H 0.44761 0.57491 0.65627 0.0
H2994 H 0.43544 0.51538 0.6501 0.0
H2995 H 0.41205 0.51564 0.67076 0.0
H2996 H 0.4716 0.5306 0.66274 0.0
H2997 H 0.44842 0.56243 0.60102 0.0
H2998 H 0.4481 0.57578 0.6227 0.0
H2999 H 0.43316 0.5535 0.61698 0.0
C3000 C 0.42605 0.56212 0.67057 0.0
C3001 C 0.41632 0.54551 0.67548 0.0
C3002 C 0.43948 0.56192 0.65886 0.0
C3003 C 0.44324 0.54512 0.65167 0.0
C3004 C 0.43273 0.52849 0.65555 0.0
H3005 H 0.52154 0.51076 0.58769 0.0
H3006 H 0.49829 0.5133 0.60805 0.0
C3007 C 0.41932 0.52867 0.6673 0.0
C3008 C 0.45944 0.54491 0.64196 0.0
H3009 H 0.47929 0.55887 0.60444 0.0
C3010 C 0.47324 0.5367 0.64994 0.0
C3011 C 0.46162 0.55309 0.6254 0.0
C3012 C 0.44698 0.56156 0.61591 0.0
C3013 C 0.48918 0.53641 0.64177 0.0
C3014 C 0.49128 0.54443 0.62517 0.0
C3015 C 0.47764 0.55288 0.61729 0.0
C3016 C 0.50683 0.54287 0.61492 0.0
C3017 C 0.50371 0.52758 0.65095 0.0
C3018 C 0.5195 0.55866 0.61237 0.0
C3019 C 0.53296 0.55722 0.60086 0.0
C3020 C 0.53362 0.54002 0.59154 0.0
C3021 C 0.52134 0.52418 0.59474 0.0
C3022 C 0.50808 0.52559 0.60637 0.0
H3023 H 0.50202 0.52595 0.66567 0.0
H3024 H 0.50282 0.51368 0.64348 0.0
H3025 H 0.51753 0.53589 0.65035 0.0
H3026 H 0.51863 0.57211 0.61883 0.0
H3027 H 0.54213 0.56967 0.59845 0.0
H3028 H 0.77486 0.2006 0.96901 0.0
H3029 H 0.76786 0.20972 0.93814 0.0
H3030 H 0.81898 0.2491 0.94593 0.0
H3031 H 0.82631 0.23985 0.97663 0.0
H3032 H 0.76534 0.24254 0.92265 0.0
H3033 H 0.82361 0.21413 0.90094 0.0
H3034 H 0.81497 0.21016 0.92261 0.0
H3035 H 0.83003 0.23161 0.92046 0.0
C3036 C 0.78447 0.2115 0.96436 0.0
C3037 C 0.80131 0.21928 0.97525 0.0
C3038 C 0.78044 0.21665 0.94665 0.0
C3039 C 0.79312 0.2297 0.93952 0.0
C3040 C 0.80921 0.23863 0.95096 0.0
H3041 H 0.80756 0.27765 0.83937 0.0
H3042 H 0.80741 0.26892 0.87064 0.0
C3043 C 0.81332 0.23341 0.96859 0.0
C3044 C 0.79024 0.23303 0.91975 0.0
H3045 H 0.80967 0.23122 0.87967 0.0
C3046 C 0.77493 0.23993 0.9132 0.0
C3047 C 0.80262 0.22933 0.90733 0.0
C3048 C 0.81863 0.22072 0.9131 0.0
C3049 C 0.77216 0.24399 0.89477 0.0
C3050 C 0.78495 0.24096 0.88264 0.0
C3051 C 0.79993 0.23359 0.88905 0.0
C3052 C 0.78389 0.24656 0.86364 0.0
C3053 C 0.75597 0.25209 0.8885 0.0
C3054 C 0.77065 0.23683 0.84923 0.0
C3055 C 0.77073 0.24173 0.83111 0.0
C3056 C 0.78405 0.25644 0.82717 0.0
C3057 C 0.79709 0.26623 0.84178 0.0
C3058 C 0.79704 0.26129 0.85974 0.0
H3059 H 0.74834 0.25538 0.90012 0.0
H3060 H 0.76051 0.26487 0.88205 0.0
H3061 H 0.74656 0.2421 0.87782 0.0
H3062 H 0.7605 0.22527 0.85194 0.0
H3063 H 0.76051 0.23391 0.82021 0.0
H3064 H 0.10354 0.45196 0.17301 0.0
H3065 H 0.08402 0.46938 0.15633 0.0
H3066 H 0.08564 0.50546 0.20644 0.0
H3067 H 0.10513 0.4878 0.22334 0.0
H3068 H 0.04782 0.48843 0.17092 0.0
H3069 H 0.1144 0.53029 0.15894 0.0
H3070 H 0.11288 0.50593 0.16008 0.0
H3071 H 0.11121 0.52062 0.18043 0.0
C3072 C 0.09925 0.46323 0.18062 0.0
C3073 C 0.10579 0.46856 0.19946 0.0
C3074 C 0.08806 0.47311 0.17111 0.0
C3075 C 0.08343 0.48864 0.18019 0.0
C3076 C 0.08895 0.49336 0.19929 0.0
H3077 H 0.06409 0.56092 0.09685 0.0
H3078 H 0.06842 0.55312 0.12863 0.0
C3079 C 0.10002 0.48326 0.20893 0.0
C3080 C 0.07556 0.50124 0.16878 0.0
H3081 H 0.08855 0.53151 0.13819 0.0
C3082 C 0.05661 0.49827 0.16407 0.0
C3083 C 0.08709 0.51422 0.16014 0.0
C3084 C 0.10755 0.51813 0.16514 0.0
C3085 C 0.04893 0.50714 0.14993 0.0
C3086 C 0.06061 0.51864 0.13987 0.0
C3087 C 0.0795 0.52266 0.14572 0.0
C3088 C 0.05413 0.52464 0.12188 0.0
C3089 C 0.02844 0.50371 0.14569 0.0
C3090 C 0.04409 0.51147 0.10756 0.0
C3091 C 0.04128 0.51603 0.0895 0.0
C3092 C 0.04891 0.53369 0.08527 0.0
C3093 C 0.05815 0.54715 0.09971 0.0
C3094 C 0.0606 0.5427 0.11787 0.0
H3095 H 0.02199 0.50208 0.15858 0.0
H3096 H 0.02386 0.51511 0.13895 0.0
H3097 H 0.02351 0.49063 0.13634 0.0
H3098 H 0.03946 0.49729 0.11001 0.0
H3099 H 0.03426 0.50531 0.07863 0.0
H3100 H 0.79397 0.84956 0.4916 0.0
H3101 H 0.79408 0.83573 0.46 0.0
H3102 H 0.77992 0.88398 0.43878 0.0
H3103 H 0.77878 0.89746 0.47065 0.0
H3104 H 0.76485 0.85702 0.41425 0.0
H3105 H 0.83406 0.84419 0.43036 0.0
H3106 H 0.81899 0.83169 0.44427 0.0
H3107 H 0.82367 0.85663 0.44706 0.0
C3108 C 0.79054 0.85719 0.48025 0.0
C3109 C 0.78624 0.87473 0.48406 0.0
C3110 C 0.79096 0.84932 0.46194 0.0
C3111 C 0.7878 0.85886 0.44642 0.0
C3112 C 0.78269 0.8761 0.45012 0.0
H3113 H 0.82711 0.82417 0.3404 0.0
H3114 H 0.82327 0.83844 0.37089 0.0
C3115 C 0.78189 0.88385 0.46853 0.0
C3116 C 0.78991 0.85091 0.42669 0.0
H3117 H 0.81756 0.82924 0.40157 0.0
C3118 C 0.77649 0.85106 0.4116 0.0
C3119 C 0.8052 0.84334 0.42243 0.0
C3120 C 0.82138 0.84413 0.43684 0.0
C3121 C 0.77767 0.84374 0.39309 0.0
C3122 C 0.79243 0.83516 0.38906 0.0
C3123 C 0.806 0.83536 0.40411 0.0
C3124 C 0.79448 0.82646 0.36957 0.0
C3125 C 0.76324 0.84603 0.37797 0.0
C3126 C 0.77983 0.81453 0.35788 0.0
C3127 C 0.78197 0.80658 0.34 0.0
C3128 C 0.799 0.80972 0.33312 0.0
C3129 C 0.81373 0.82128 0.34492 0.0
C3130 C 0.81151 0.8295 0.36262 0.0
H3131 H 0.75708 0.85804 0.38185 0.0
H3132 H 0.7689 0.84803 0.36472 0.0
H3133 H 0.75213 0.83355 0.37576 0.0
H3134 H 0.76663 0.81101 0.36263 0.0
H3135 H 0.77025 0.79763 0.33169 0.0
H3136 H 0.40626 0.54232 0.79246 0.0
H3137 H 0.42199 0.53558 0.82144 0.0
H3138 H 0.45849 0.51074 0.79066 0.0
H3139 H 0.44291 0.51732 0.7617 0.0
H3140 H 0.4418 0.48968 0.81911 0.0
H3141 H 0.47563 0.56264 0.84392 0.0
H3142 H 0.45144 0.55808 0.83652 0.0
H3143 H 0.46676 0.55499 0.8199 0.0
C3144 C 0.41759 0.53537 0.79187 0.0
C3145 C 0.42338 0.53038 0.77483 0.0
C3146 C 0.42657 0.5316 0.80841 0.0
C3147 C 0.4414 0.52278 0.80809 0.0
C3148 C 0.44706 0.51758 0.79111 0.0
H3149 H 0.52581 0.51348 0.89381 0.0
H3150 H 0.50771 0.51737 0.86508 0.0
C3151 C 0.43818 0.52142 0.77462 0.0
C3152 C 0.45125 0.51907 0.82544 0.0
H3153 H 0.48049 0.5402 0.86366 0.0
C3154 C 0.4502 0.50068 0.82893 0.0
C3155 C 0.46232 0.53352 0.83799 0.0
C3156 C 0.46429 0.55344 0.83444 0.0
C3157 C 0.45997 0.49635 0.84482 0.0
C3158 C 0.47092 0.51081 0.85745 0.0
C3159 C 0.47198 0.52919 0.85392 0.0
C3160 C 0.48169 0.5072 0.8743 0.0
C3161 C 0.45885 0.47637 0.84783 0.0
C3162 C 0.47296 0.50011 0.88886 0.0
C3163 C 0.48324 0.49783 0.90526 0.0
C3164 C 0.5024 0.50264 0.9073 0.0
C3165 C 0.51108 0.50943 0.89253 0.0
C3166 C 0.50079 0.51177 0.87618 0.0
H3167 H 0.45263 0.46688 0.83513 0.0
H3168 H 0.47263 0.4738 0.85223 0.0
H3169 H 0.45035 0.47305 0.85903 0.0
H3170 H 0.4582 0.49671 0.88768 0.0
H3171 H 0.47622 0.49247 0.9164 0.0
H3172 H 0.83991 0.23848 0.07229 0.0
H3173 H 0.83871 0.25006 0.1045 0.0
H3174 H 0.79053 0.20834 0.10577 0.0
H3175 H 0.79157 0.19661 0.07357 0.0
H3176 H 0.80936 0.26267 0.12176 0.0
H3177 H 0.82777 0.2007 0.14966 0.0
H3178 H 0.83139 0.20619 0.12661 0.0
H3179 H 0.80893 0.19625 0.13136 0.0
C3180 C 0.82894 0.23182 0.07933 0.0
C3181 C 0.81589 0.2165 0.07028 0.0
C3182 C 0.82829 0.23848 0.09777 0.0
C3183 C 0.81471 0.22989 0.10764 0.0
C3184 C 0.80131 0.21501 0.09851 0.0
H3185 H 0.79145 0.24153 0.22115 0.0
H3186 H 0.79297 0.23188 0.18864 0.0
C3187 C 0.80187 0.2084 0.08003 0.0
C3188 C 0.81477 0.23627 0.12758 0.0
H3189 H 0.82002 0.22283 0.17101 0.0
C3190 C 0.81175 0.25401 0.13256 0.0
C3191 C 0.8179 0.22495 0.14164 0.0
C3192 C 0.82183 0.206 0.13716 0.0
C3193 C 0.8113 0.26056 0.15118 0.0
C3194 C 0.81447 0.24924 0.16529 0.0
C3195 C 0.81762 0.23154 0.16026 0.0
C3196 C 0.81401 0.25522 0.18528 0.0
C3197 C 0.80686 0.27931 0.15546 0.0
C3198 C 0.8256 0.2714 0.19448 0.0
C3199 C 0.8247 0.27707 0.21315 0.0
C3200 C 0.8123 0.26655 0.2231 0.0
C3201 C 0.80112 0.25006 0.21398 0.0
C3202 C 0.80197 0.24448 0.19533 0.0
H3203 H 0.79993 0.2839 0.14304 0.0
H3204 H 0.79798 0.27927 0.16663 0.0
H3205 H 0.81971 0.28958 0.1602 0.0
H3206 H 0.83537 0.27969 0.18722 0.0
H3207 H 0.83361 0.28976 0.21973 0.0
H3208 H 0.05897 0.45056 0.28586 0.0
H3209 H 0.04039 0.46617 0.30433 0.0
H3210 H 0.04001 0.50667 0.26564 0.0
H3211 H 0.05907 0.49097 0.24702 0.0
H3212 H 0.05259 0.52258 0.29989 0.0
H3213 H 0.98924 0.47332 0.30431 0.0
H3214 H 1.00784 0.46177 0.30808 0.0
H3215 H 1.00312 0.47024 0.28605 0.0
C3216 C 0.05444 0.46245 0.28094 0.0
C3217 C 0.06049 0.46962 0.26509 0.0
C3218 C 0.04362 0.47128 0.29142 0.0
C3219 C 0.03853 0.48747 0.28627 0.0
C3220 C 0.0436 0.49406 0.26975 0.0
H3221 H 0.99597 0.53137 0.38444 0.0
H3222 H 0.99647 0.52411 0.3511 0.0
C3223 C 0.05442 0.48508 0.2591 0.0
C3224 C 0.031 0.49884 0.30001 0.0
H3225 H 1.00295 0.4934 0.33356 0.0
C3226 C 0.04132 0.51646 0.30688 0.0
C3227 C 0.01605 0.49118 0.30895 0.0
C3228 C 1.00334 0.47316 0.30127 0.0
C3229 C 0.03844 0.52557 0.32363 0.0
C3230 C 0.02521 0.51662 0.33392 0.0
C3231 C 0.01346 0.50007 0.32594 0.0
C3232 C 0.02506 0.52276 0.35379 0.0
C3233 C 0.05022 0.54429 0.33056 0.0
C3234 C 0.0409 0.52428 0.36637 0.0
C3235 C 0.0407 0.5285 0.38533 0.0
C3236 C 0.02455 0.53108 0.3922 0.0
C3237 C 1.00869 0.52968 0.37957 0.0
C3238 C 1.00892 0.52548 0.36054 0.0
H3239 H 0.05396 0.55208 0.31879 0.0
H3240 H 0.04325 0.5526 0.33974 0.0
H3241 H 0.06308 0.5425 0.33847 0.0
H3242 H 0.05339 0.52173 0.36157 0.0
H3243 H 0.0532 0.52967 0.39462 0.0
H3244 H 0.76447 0.88851 0.59654 0.0
H3245 H 0.76381 0.87497 0.62622 0.0
H3246 H 0.80165 0.84187 0.61002 0.0
H3247 H 0.80243 0.85519 0.58084 0.0
H3248 H 0.7551 0.83989 0.63817 0.0
H3249 H 0.82888 0.86625 0.65925 0.0
H3250 H 0.81663 0.87369 0.63969 0.0
H3251 H 0.82425 0.85218 0.6373 0.0
C3252 C 0.77244 0.87814 0.59911 0.0
C3253 C 0.78354 0.87321 0.58583 0.0
C3254 C 0.77216 0.87039 0.61633 0.0
C3255 C 0.7831 0.85753 0.62109 0.0
C3256 C 0.79346 0.85206 0.60744 0.0
H3257 H 0.77472 0.78333 0.71119 0.0
H3258 H 0.77158 0.79731 0.68219 0.0
C3259 C 0.79373 0.8597 0.5904 0.0
C3260 C 0.78406 0.84993 0.64008 0.0
H3261 H 0.81427 0.84385 0.677 0.0
C3262 C 0.7681 0.84088 0.64661 0.0
C3263 C 0.80084 0.85116 0.65176 0.0
C3264 C 0.8186 0.8615 0.64678 0.0
C3265 C 0.76848 0.83283 0.66368 0.0
C3266 C 0.78535 0.83341 0.67497 0.0
C3267 C 0.80123 0.84293 0.66866 0.0
C3268 C 0.78689 0.8246 0.69329 0.0
C3269 C 0.75056 0.8241 0.6696 0.0
C3270 C 0.79692 0.83467 0.70982 0.0
C3271 C 0.7988 0.82656 0.72665 0.0
C3272 C 0.79089 0.80787 0.72783 0.0
C3273 C 0.78092 0.79776 0.71128 0.0
C3274 C 0.77899 0.8059 0.69446 0.0
H3275 H 0.73909 0.82967 0.66301 0.0
H3276 H 0.74772 0.80902 0.66524 0.0
H3277 H 0.75093 0.82636 0.68489 0.0
H3278 H 0.80336 0.84901 0.70978 0.0
H3279 H 0.80671 0.83502 0.73878 0.0
H3280 H 0.76441 0.41242 0.58458 0.0
H3281 H 0.74142 0.43145 0.58495 0.0
H3282 H 0.7334 0.42526 0.52518 0.0
H3283 H 0.75636 0.40601 0.52465 0.0
H3284 H 0.74508 0.46495 0.56947 0.0
H3285 H 0.68092 0.41625 0.53858 0.0
H3286 H 0.70101 0.40851 0.54783 0.0
H3287 H 0.69983 0.41677 0.52548 0.0
C3288 C 0.75754 0.41479 0.57148 0.0
C3289 C 0.76229 0.40774 0.55457 0.0
C3290 C 0.74442 0.42571 0.57173 0.0
C3291 C 0.73566 0.42973 0.55511 0.0
C3292 C 0.7398 0.42211 0.53817 0.0
H3293 H 0.66126 0.50373 0.53246 0.0
H3294 H 0.68178 0.48206 0.52999 0.0
C3295 C 0.75296 0.41114 0.5379 0.0
C3296 C 0.72339 0.4431 0.55565 0.0
H3297 H 0.6795 0.44783 0.54403 0.0
C3298 C 0.73072 0.4612 0.56396 0.0
C3299 C 0.70472 0.43821 0.5483 0.0
C3300 C 0.69605 0.41885 0.53966 0.0
C3301 C 0.71992 0.47456 0.56509 0.0
C3302 C 0.70118 0.4696 0.55802 0.0
C3303 C 0.69387 0.45157 0.54948 0.0
C3304 C 0.68889 0.48289 0.55959 0.0
C3305 C 0.72874 0.49395 0.57356 0.0
C3306 C 0.686 0.49047 0.57707 0.0
C3307 C 0.67425 0.50282 0.57854 0.0
C3308 C 0.66504 0.50774 0.56256 0.0
C3309 C 0.66799 0.5001 0.54506 0.0
C3310 C 0.67974 0.48775 0.54361 0.0
H3311 H 0.74378 0.4967 0.57366 0.0
H3312 H 0.72316 0.5043 0.56591 0.0
H3313 H 0.72591 0.49586 0.58812 0.0
H3314 H 0.69264 0.48661 0.58959 0.0
H3315 H 0.67204 0.50815 0.59222 0.0
H3316 H 0.24963 0.09684 0.48916 0.0
H3317 H 0.21835 0.08511 0.49448 0.0
H3318 H 0.22622 0.12361 0.54391 0.0
H3319 H 0.25766 0.13589 0.53824 0.0
H3320 H 0.20383 0.0673 0.51931 0.0
H3321 H 0.17822 0.13225 0.52342 0.0
H3322 H 0.20006 0.13099 0.51606 0.0
H3323 H 0.19754 0.13301 0.54036 0.0
C3324 C 0.24479 0.10306 0.50113 0.0
C3325 C 0.25652 0.11755 0.51315 0.0
C3326 C 0.22667 0.0962 0.50422 0.0
C3327 C 0.21928 0.10342 0.51951 0.0
C3328 C 0.23099 0.11791 0.53166 0.0
H3329 H 0.11006 0.06876 0.55786 0.0
H3330 H 0.1421 0.08276 0.55583 0.0
C3331 C 0.2492 0.12493 0.52847 0.0
C3332 C 0.19972 0.09521 0.52275 0.0
H3333 H 0.15842 0.10574 0.53077 0.0
C3334 C 0.194 0.07585 0.52175 0.0
C3335 C 0.18642 0.10599 0.52606 0.0
C3336 C 0.19077 0.12669 0.52637 0.0
C3337 C 0.17593 0.06718 0.52394 0.0
C3338 C 0.16263 0.07792 0.52707 0.0
C3339 C 0.16835 0.09729 0.52841 0.0
C3340 C 0.14275 0.06928 0.52845 0.0
C3341 C 0.17135 0.04644 0.52315 0.0
C3342 C 0.13189 0.05699 0.51379 0.0
C3343 C 0.11347 0.04898 0.51489 0.0
C3344 C 0.10502 0.05284 0.53075 0.0
C3345 C 0.11588 0.06518 0.54545 0.0
C3346 C 0.13433 0.07333 0.54426 0.0
H3347 H 0.18378 0.04067 0.52606 0.0
H3348 H 0.16185 0.042 0.53325 0.0
H3349 H 0.16463 0.04045 0.50904 0.0
H3350 H 0.1376 0.05372 0.50122 0.0
H3351 H 0.10578 0.03977 0.50312 0.0
H3352 H 0.2519 0.01841 0.82335 0.0
H3353 H 0.27653 1.00163 0.82759 0.0
H3354 H 0.26521 0.99418 0.8833 0.0
H3355 H 0.24035 0.01103 0.87918 0.0
H3356 H 0.30886 1.00291 0.85614 0.0
H3357 H 0.25187 0.94165 0.85219 0.0
H3358 H 0.24784 0.96341 0.84549 0.0
H3359 H 0.25313 0.96084 0.86953 0.0
C3360 C 0.2549 0.01361 0.83668 0.0
C3361 C 0.24396 0.01573 0.85081 0.0
C3362 C 0.26907 1.00413 0.83912 0.0
C3363 C 0.2725 0.99651 0.85566 0.0
C3364 C 0.26266 0.99992 0.8704 0.0
H3365 H 0.3159 0.89702 0.84067 0.0
H3366 H 0.30802 0.92279 0.85886 0.0
C3367 C 0.2485 0.00955 0.86802 0.0
C3368 C 0.28416 0.98267 0.85599 0.0
H3369 H 0.28052 0.93619 0.84776 0.0
C3370 C 0.30283 0.98829 0.85478 0.0
C3371 C 0.27624 0.96364 0.85433 0.0
C3372 C 0.25617 0.95688 0.85537 0.0
C3373 C 0.31361 0.9753 0.85092 0.0
C3374 C 0.30529 0.95631 0.84763 0.0
C3375 C 0.28693 0.95072 0.85022 0.0
C3376 C 0.31431 0.94222 0.839 0.0
C3377 C 0.33364 0.98213 0.84996 0.0
C3378 C 0.3211 0.94467 0.82206 0.0
C3379 C 0.326 0.93004 0.81178 0.0
C3380 C 0.32379 0.91249 0.81799 0.0
C3381 C 0.31796 0.91034 0.83548 0.0
C3382 C 0.31334 0.92507 0.84589 0.0
H3383 H 0.33918 0.99465 0.85999 0.0
H3384 H 0.34167 0.97144 0.85291 0.0
H3385 H 0.33547 0.98605 0.83589 0.0
H3386 H 0.32158 0.95756 0.81615 0.0
H3387 H 0.33078 0.93232 0.79857 0.0
H3388 H 0.34928 0.94053 0.017 0.0
H3389 H 0.37903 0.96004 0.01499 0.0
H3390 H 0.40566 0.92411 0.04634 0.0
H3391 H 0.37614 0.9045 0.04825 0.0
H3392 H 0.4035 0.97859 0.04516 0.0
H3393 H 0.43554 0.93077 1.00334 0.0
H3394 H 0.41131 0.92659 1.00457 0.0
H3395 H 0.42664 0.92124 0.02297 0.0
C3396 C 0.3615 0.9366 0.02316 0.0
C3397 C 0.36036 0.92092 0.03271 0.0
C3398 C 0.37846 0.94778 0.02205 0.0
C3399 C 0.39454 0.94341 0.03035 0.0
C3400 C 0.39345 0.92753 0.0395 0.0
H3401 H 0.50906 0.99442 0.05098 0.0
H3402 H 0.47857 0.97607 0.05183 0.0
C3403 C 0.37653 0.91635 0.04062 0.0
C3404 C 0.41236 0.95606 0.03061 0.0
H3405 H 0.45535 0.95801 0.01919 0.0
C3406 C 0.4148 0.97417 0.03934 0.0
C3407 C 0.42707 0.9502 0.02306 0.0
C3408 C 0.425 0.9312 0.0128 0.0
C3409 C 0.43174 0.98645 0.04112 0.0
C3410 C 0.4465 0.98049 0.03381 0.0
C3411 C 0.44401 0.96246 0.02492 0.0
C3412 C 0.46463 0.99278 0.03491 0.0
C3413 C 0.43385 1.00553 0.05121 0.0
C3414 C 0.4668 0.00842 0.02536 0.0
C3415 C 0.4842 0.01896 0.02484 0.0
C3416 C 0.49973 0.01396 0.03378 0.0
C3417 C 0.49741 0.99867 0.04393 0.0
C3418 C 0.48001 0.98813 0.0444 0.0
H3419 H 0.42265 0.00647 0.05973 0.0
H3420 H 0.4471 0.00959 0.06035 0.0
H3421 H 0.43359 0.0156 0.04093 0.0
H3422 H 0.45512 0.01209 0.01773 0.0
H3423 H 0.48548 0.03061 0.01686 0.0
H3424 H 0.92553 0.61352 0.84745 0.0
H3425 H 0.8953 0.62153 0.84483 0.0
H3426 H 0.89374 0.61815 0.78542 0.0
H3427 H 0.92358 0.61004 0.78779 0.0
H3428 H 0.88373 0.65103 0.82937 0.0
H3429 H 0.84546 0.58472 0.79152 0.0
H3430 H 0.86815 0.58733 0.80376 0.0
H3431 H 0.86497 0.59395 0.78071 0.0
C3432 C 0.91875 0.61452 0.83383 0.0
C3433 C 0.92695 0.61099 0.81782 0.0
C3434 C 0.90147 0.61902 0.83237 0.0
C3435 C 0.8921 0.61993 0.81489 0.0
C3436 C 0.9005 0.61697 0.799 0.0
H3437 H 0.81602 0.66335 0.75523 0.0
H3438 H 0.83708 0.64581 0.76866 0.0
C3439 C 0.91767 0.61248 0.80042 0.0
C3440 C 0.87386 0.62471 0.81296 0.0
H3441 H 0.83174 0.61132 0.78757 0.0
C3442 C 0.87216 0.64218 0.82068 0.0
C3443 C 0.85875 0.61304 0.80174 0.0
C3444 C 0.85935 0.59363 0.79413 0.0
C3445 C 0.85626 0.64892 0.81613 0.0
C3446 C 0.84174 0.63779 0.80368 0.0
C3447 C 0.84294 0.61982 0.79706 0.0
C3448 C 0.82673 0.64566 0.7951 0.0
C3449 C 0.85558 0.66837 0.82352 0.0
C3450 C 0.8134 0.6507 0.80532 0.0
C3451 C 0.80097 0.66054 0.79753 0.0
C3452 C 0.80182 0.66561 0.77946 0.0
C3453 C 0.81459 0.65949 0.76901 0.0
C3454 C 0.82683 0.64956 0.77673 0.0
H3455 H 0.86853 0.67563 0.83209 0.0
H3456 H 0.85273 0.67643 0.81187 0.0
H3457 H 0.84433 0.66806 0.83218 0.0
H3458 H 0.81303 0.6476 0.81949 0.0
H3459 H 0.79114 0.66474 0.80589 0.0
H3460 H 0.88596 0.65033 0.01126 0.0
H3461 H 0.91315 0.63662 0.01157 0.0
H3462 H 0.89236 0.60056 0.05063 0.0
H3463 H 0.86485 0.61357 0.04955 0.0
H3464 H 0.94115 0.63385 0.03215 0.0
H3465 H 0.90455 0.56137 0.01878 0.0
H3466 H 0.89266 0.58012 0.01788 0.0
H3467 H 0.89908 0.57213 0.03978 0.0
C3468 C 0.8871 0.63948 0.01997 0.0
C3469 C 0.87275 0.63322 0.03032 0.0
C3470 C 0.90288 0.63149 0.02014 0.0
C3471 C 0.90523 0.61682 0.0307 0.0
C3472 C 0.89116 0.61112 0.04161 0.0
H3473 H 0.01637 0.58811 0.05235 0.0
H3474 H 0.98951 0.60204 0.0529 0.0
C3475 C 0.87528 0.6189 0.04123 0.0
C3476 C 0.92226 0.60786 0.03045 0.0
H3477 H 0.93645 0.56624 0.02856 0.0
C3478 C 0.93991 0.61902 0.03129 0.0
C3479 C 0.92143 0.58838 0.02891 0.0
C3480 C 0.90341 0.5748 0.02607 0.0
C3481 C 0.95611 0.61165 0.03096 0.0
C3482 C 0.95537 0.59223 0.03044 0.0
C3483 C 0.93769 0.58106 0.02928 0.0
C3484 C 0.97239 0.58323 0.03056 0.0
C3485 C 0.97382 0.62501 0.03042 0.0
C3486 C 0.97239 0.56707 0.01861 0.0
C3487 C 0.98788 0.55865 0.01864 0.0
C3488 C 1.00433 0.56596 0.03058 0.0
C3489 C 1.00431 0.58197 0.04269 0.0
C3490 C 0.98873 0.59022 0.04284 0.0
H3491 H 0.97143 0.63766 0.0244 0.0
H3492 H 0.9808 0.62935 0.04477 0.0
H3493 H 0.98301 0.61871 0.02213 0.0
H3494 H 0.96035 0.56092 0.00892 0.0
H3495 H 0.98696 0.54641 0.00906 0.0
H3496 H 0.21293 0.07918 0.79958 0.0
H3497 H 0.22397 0.1109 0.79356 0.0
H3498 H 0.22048 0.13041 0.85023 0.0
H3499 H 0.20975 0.09867 0.85655 0.0
H3500 H 0.20836 0.14184 0.79679 0.0
H3501 H 0.27335 0.15191 0.84419 0.0
H3502 H 0.25879 0.12949 0.83726 0.0
H3503 H 0.25304 0.14518 0.85478 0.0
C3504 C 0.21451 0.09018 0.81081 0.0
C3505 C 0.21064 0.08633 0.82863 0.0
C3506 C 0.22076 0.10832 0.8073 0.0
C3507 C 0.22327 0.12296 0.82151 0.0
C3508 C 0.21897 0.11926 0.83917 0.0
H3509 H 0.24967 0.23914 0.79945 0.0
H3510 H 0.23388 0.21005 0.80885 0.0
C3511 C 0.21279 0.1011 0.84273 0.0
C3512 C 0.2308 0.14201 0.81781 0.0
H3513 H 0.26784 0.17739 0.82918 0.0
C3514 C 0.22131 0.1497 0.80393 0.0
C3515 C 0.24776 0.15211 0.82707 0.0
C3516 C 0.25895 0.14425 0.84155 0.0
C3517 C 0.2285 0.16713 0.79883 0.0
C3518 C 0.24547 0.1772 0.80808 0.0
C3519 C 0.25477 0.16966 0.82221 0.0
C3520 C 0.25463 0.19489 0.80236 0.0
C3521 C 0.21824 0.1743 0.78311 0.0
C3522 C 0.27162 0.19606 0.7959 0.0
C3523 C 0.2807 0.2126 0.7907 0.0
C3524 C 0.27299 0.22838 0.79186 0.0
C3525 C 0.25593 0.22721 0.79832 0.0
C3526 C 0.24685 0.21059 0.8036 0.0
H3527 H 0.20737 0.1633 0.77501 0.0
H3528 H 0.2117 0.18535 0.78884 0.0
H3529 H 0.22767 0.1803 0.77357 0.0
H3530 H 0.27786 0.1841 0.79483 0.0
H3531 H 0.2938 0.21298 0.78577 0.0
H3532 H 0.45201 0.04433 0.34592 0.0
H3533 H 0.42983 0.01498 0.34168 0.0
H3534 H 0.42689 0.01444 0.28235 0.0
H3535 H 0.4491 0.04353 0.28634 0.0
H3536 H 0.39364 0.00648 0.32205 0.0
H3537 H 0.43869 0.96401 0.29179 0.0
H3538 H 0.44735 0.98677 0.30409 0.0
H3539 H 0.43654 0.98412 0.28055 0.0
C3540 C 0.44669 0.03796 0.33199 0.0
C3541 C 0.45243 0.04627 0.3165 0.0
C3542 C 0.434 0.02122 0.32958 0.0
C3543 C 0.42695 0.01247 0.31171 0.0
C3544 C 0.43243 0.02083 0.29625 0.0
H3545 H 0.35306 0.90759 0.27082 0.0
H3546 H 0.37227 0.93856 0.27315 0.0
C3547 C 0.44508 0.03752 0.29862 0.0
C3548 C 0.41374 0.99463 0.30915 0.0
H3549 H 0.40785 0.94939 0.29171 0.0
C3550 C 0.39672 0.99397 0.31547 0.0
C3551 C 0.41782 0.97841 0.30044 0.0
C3552 C 0.43614 0.97824 0.29395 0.0
C3553 C 0.38358 0.97747 0.31317 0.0
C3554 C 0.38774 0.9612 0.30464 0.0
C3555 C 0.40469 0.96192 0.29817 0.0
C3556 C 0.37509 0.94307 0.3031 0.0
C3557 C 0.36528 0.97763 0.31969 0.0
C3558 C 0.3704 0.93539 0.31917 0.0
C3559 C 0.35955 0.91773 0.31789 0.0
C3560 C 0.35323 0.90735 0.30051 0.0
C3561 C 0.3578 0.91518 0.2844 0.0
C3562 C 0.36869 0.93288 0.2857 0.0
H3563 H 0.36237 0.99176 0.32093 0.0
H3564 H 0.35412 0.96835 0.31008 0.0
H3565 H 0.36527 0.97271 0.33358 0.0
H3566 H 0.37559 0.94284 0.33274 0.0
H3567 H 0.35666 0.91197 0.33059 0.0
H3568 H 0.58894 0.36987 0.6248 0.0
H3569 H 0.59167 0.38857 0.59904 0.0
H3570 H 0.5335 0.38516 0.59202 0.0
H3571 H 0.53052 0.36616 0.61752 0.0
H3572 H 0.55056 0.38577 0.5576 0.0
H3573 H 0.58415 0.44161 0.61387 0.0
H3574 H 0.59434 0.4217 0.6119 0.0
H3575 H 0.57186 0.41957 0.61861 0.0
C3576 C 0.57666 0.37276 0.61753 0.0
C3577 C 0.55956 0.3669 0.62348 0.0
C3578 C 0.57826 0.38337 0.60278 0.0
C3579 C 0.56282 0.38845 0.59391 0.0
C3580 C 0.54556 0.38136 0.59875 0.0
H3581 H 0.53236 0.47305 0.53588 0.0
H3582 H 0.53478 0.44238 0.54405 0.0
C3583 C 0.54391 0.37059 0.6134 0.0
C3584 C 0.56492 0.40341 0.58188 0.0
H3585 H 0.57969 0.4499 0.58399 0.0
C3586 C 0.55713 0.39978 0.56322 0.0
C3587 C 0.57339 0.42165 0.58937 0.0
C3588 C 0.5813 0.42649 0.60955 0.0
C3589 C 0.55746 0.41408 0.55186 0.0
C3590 C 0.56552 0.43239 0.55953 0.0
C3591 C 0.57371 0.43583 0.57805 0.0
C3592 C 0.56431 0.44864 0.54954 0.0
C3593 C 0.54912 0.40948 0.53185 0.0
C3594 C 0.58009 0.4622 0.54942 0.0
C3595 C 0.57868 0.47982 0.54525 0.0
C3596 C 0.56148 0.48408 0.54085 0.0
C3597 C 0.54578 0.47004 0.53913 0.0
C3598 C 0.54717 0.45246 0.54366 0.0
H3599 H 0.54949 0.39508 0.52657 0.0
H3600 H 0.53461 0.41073 0.53068 0.0
H3601 H 0.55627 0.41902 0.52291 0.0
H3602 H 0.59344 0.45955 0.55392 0.0
H3603 H 0.591 0.4904 0.5465 0.0
H3604 H 0.47797 0.73515 0.33043 0.0
H3605 H 0.4497 0.74158 0.31521 0.0
H3606 H 0.4184 0.69871 0.3415 0.0
H3607 H 0.44663 0.69259 0.35723 0.0
H3608 H 0.42061 0.72126 0.29157 0.0
H3609 H 0.399 0.74346 0.3589 0.0
H3610 H 0.42155 0.73926 0.35705 0.0
H3611 H 0.40264 0.72025 0.35679 0.0
C3612 C 0.46507 0.72702 0.33289 0.0
C3613 C 0.46448 0.71357 0.34525 0.0
C3614 C 0.44894 0.73067 0.32414 0.0
C3615 C 0.43196 0.72086 0.32751 0.0
C3616 C 0.43136 0.70675 0.33908 0.0
H3617 H 0.32743 0.7342 0.26935 0.0
H3618 H 0.35437 0.72155 0.27876 0.0
C3619 C 0.44749 0.70325 0.34802 0.0
C3620 C 0.41499 0.72615 0.31968 0.0
H3621 H 0.37846 0.74295 0.33205 0.0
C3622 C 0.41133 0.72596 0.30038 0.0
C3623 C 0.40307 0.73247 0.33125 0.0
C3624 C 0.4068 0.73407 0.35215 0.0
C3625 C 0.39612 0.73214 0.29235 0.0
C3626 C 0.38413 0.73829 0.30394 0.0
C3627 C 0.38765 0.73815 0.32319 0.0
C3628 C 0.36847 0.74611 0.29675 0.0
C3629 C 0.39341 0.73268 0.27165 0.0
C3630 C 0.36746 0.76404 0.30376 0.0
C3631 C 0.35206 0.77111 0.29868 0.0
C3632 C 0.33738 0.76046 0.28636 0.0
C3633 C 0.33862 0.74275 0.27877 0.0
C3634 C 0.35402 0.73555 0.28407 0.0
H3635 H 0.40604 0.73171 0.26539 0.0
H3636 H 0.38254 0.72081 0.26519 0.0
H3637 H 0.3891 0.74556 0.26822 0.0
H3638 H 0.37847 0.77245 0.31351 0.0
H3639 H 0.35156 0.78487 0.30464 0.0
H3640 H 0.0349 0.78893 0.13333 0.0
H3641 H 0.04105 0.75887 0.12299 0.0
H3642 H 0.09595 0.77536 0.1514 0.0
H3643 H 0.0901 0.80571 0.16143 0.0
H3644 H 0.0956 0.75984 0.11696 0.0
H3645 H 0.04462 0.71527 0.15097 0.0
H3646 H 0.03434 0.73002 0.13693 0.0
H3647 H 0.0507 0.73999 0.15687 0.0
C3648 C 0.04824 0.78614 0.13754 0.0
C3649 C 0.062 0.79974 0.14822 0.0
C3650 C 0.05169 0.76887 0.13173 0.0
C3651 C 0.06884 0.76474 0.13673 0.0
C3652 C 0.08257 0.77823 0.14749 0.0
H3653 H 0.08717 0.65274 0.11147 0.0
H3654 H 0.08471 0.68221 0.128 0.0
C3655 C 0.0792 0.79557 0.15319 0.0
C3656 C 0.07277 0.74677 0.12972 0.0
H3657 H 0.05676 0.70021 0.12608 0.0
C3658 C 0.08724 0.7468 0.11914 0.0
C3659 C 0.06208 0.72974 0.13285 0.0
C3660 C 0.0472 0.72872 0.1452 0.0
C3661 C 0.09085 0.73029 0.11098 0.0
C3662 C 0.07937 0.71334 0.11306 0.0
C3663 C 0.06538 0.71325 0.12428 0.0
C3664 C 0.08123 0.69563 0.10317 0.0
C3665 C 0.10695 0.73121 0.10024 0.0
C3666 C 0.07981 0.69335 0.08375 0.0
C3667 C 0.08129 0.67662 0.07432 0.0
C3668 C 0.08395 0.66176 0.08413 0.0
C3669 C 0.08506 0.66395 0.10357 0.0
C3670 C 0.08371 0.68077 0.11301 0.0
H3671 H 0.11747 0.74396 0.10495 0.0
H3672 H 0.11337 0.71908 0.10166 0.0
H3673 H 0.10227 0.73142 0.08534 0.0
H3674 H 0.07734 0.70445 0.07584 0.0
H3675 H 0.08001 0.6752 0.05932 0.0
H3676 H 0.07207 0.24511 0.88597 0.0
H3677 H 0.10036 0.25845 0.87417 0.0
H3678 H 0.09211 0.21139 0.83277 0.0
H3679 H 0.06393 0.19789 0.8444 0.0
H3680 H 0.13345 0.2396 0.86483 0.0
H3681 H 0.09188 0.26182 0.80661 0.0
H3682 H 0.08347 0.25759 0.82838 0.0
H3683 H 0.08477 0.23856 0.81196 0.0
C3684 C 0.07646 0.23742 0.87459 0.0
C3685 C 0.06566 0.22053 0.86597 0.0
C3686 C 0.0926 0.24507 0.86789 0.0
C3687 C 0.09808 0.23595 0.85252 0.0
C3688 C 0.08794 0.21863 0.84459 0.0
H3689 H 0.17406 0.25526 0.77478 0.0
H3690 H 0.14846 0.24569 0.79196 0.0
C3691 C 0.07187 0.21095 0.85128 0.0
C3692 C 0.11357 0.24504 0.84374 0.0
H3693 H 0.12351 0.26535 0.80508 0.0
C3694 C 0.13138 0.24542 0.85188 0.0
C3695 C 0.11065 0.25257 0.82688 0.0
C3696 C 0.09168 0.25279 0.81791 0.0
C3697 C 0.14647 0.25259 0.84312 0.0
C3698 C 0.14352 0.25981 0.82603 0.0
C3699 C 0.12569 0.25981 0.81819 0.0
C3700 C 0.15867 0.26641 0.81548 0.0
C3701 C 0.16534 0.25169 0.85183 0.0
C3702 C 0.17262 0.28155 0.82284 0.0
C3703 C 0.18725 0.2871 0.81301 0.0
C3704 C 0.18805 0.27769 0.79561 0.0
C3705 C 0.17372 0.26293 0.78804 0.0
C3706 C 0.15915 0.25737 0.79788 0.0
H3707 H 0.16492 0.24221 0.86276 0.0
H3708 H 0.17345 0.24704 0.8412 0.0
H3709 H 0.17251 0.26566 0.85832 0.0
H3710 H 0.17226 0.28896 0.83622 0.0
H3711 H 0.198 0.29867 0.81907 0.0
H3712 H 0.52411 0.72073 0.94533 0.0
H3713 H 0.52447 0.69175 0.95788 0.0
H3714 H 0.57821 0.69246 0.94279 0.0
H3715 H 0.57756 0.72163 0.92916 0.0
H3716 H 0.56135 0.65789 0.93758 0.0
H3717 H 0.5447 0.68115 0.006 0.0
H3718 H 0.52708 0.68352 0.98843 0.0
H3719 H 0.5499 0.69699 0.9892 0.0
C3720 C 0.53627 0.71508 0.94472 0.0
C3721 C 0.55095 0.72433 0.9362 0.0
C3722 C 0.53649 0.69819 0.95223 0.0
C3723 C 0.55157 0.68949 0.95218 0.0
C3724 C 0.56629 0.69851 0.94349 0.0
H3725 H 0.55764 0.6003 0.02577 0.0
H3726 H 0.55973 0.62901 0.01166 0.0
C3727 C 0.566 0.71549 0.93569 0.0
C3728 C 0.55153 0.67107 0.96075 0.0
H3729 H 0.54016 0.64851 0.99847 0.0
C3730 C 0.5568 0.65603 0.95098 0.0
C3731 C 0.54602 0.66797 0.97851 0.0
C3732 C 0.54181 0.68333 0.99121 0.0
C3733 C 0.55632 0.63853 0.95796 0.0
C3734 C 0.54979 0.63512 0.97526 0.0
C3735 C 0.54491 0.65033 0.98516 0.0
C3736 C 0.54857 0.61651 0.98378 0.0
C3737 C 0.56352 0.62412 0.94679 0.0
C3738 C 0.54143 0.59895 0.97345 0.0
C3739 C 0.54048 0.58209 0.98164 0.0
C3740 C 0.54619 0.58187 1.00074 0.0
C3741 C 0.55295 0.59942 0.0111 0.0
C3742 C 0.55414 0.61617 1.00289 0.0
H3743 H 0.57337 0.63049 0.93779 0.0
H3744 H 0.57042 0.61568 0.95587 0.0
H3745 H 0.552 0.61489 0.93761 0.0
H3746 H 0.53626 0.59811 0.95893 0.0
H3747 H 0.53506 0.56916 0.97295 0.0
H3748 H 0.10924 0.79678 0.66782 0.0
H3749 H 0.14141 0.79698 0.67923 0.0
H3750 H 0.127 0.7908 0.73407 0.0
H3751 H 0.09525 0.79008 0.7228 0.0
H3752 H 0.16829 0.81755 0.70393 0.0
H3753 H 0.15313 0.74957 0.72966 0.0
H3754 H 0.13614 0.75814 0.71562 0.0
H3755 H 0.14075 0.76506 0.74027 0.0
C3756 C 0.11292 0.7955 0.68232 0.0
C3757 C 0.09925 0.79322 0.6942 0.0
C3758 C 0.13145 0.79558 0.6889 0.0
C3759 C 0.13701 0.79334 0.70759 0.0
C3760 C 0.12343 0.79185 0.71951 0.0
H3761 H 0.25132 0.82068 0.7652 0.0
H3762 H 0.22027 0.82131 0.75158 0.0
C3763 C 0.10504 0.79162 0.71296 0.0
C3764 C 0.15674 0.79262 0.71482 0.0
H3765 H 0.18264 0.7681 0.74056 0.0
C3766 C 0.17134 0.80664 0.71184 0.0
C3767 C 0.16131 0.77831 0.72497 0.0
C3768 C 0.14703 0.76183 0.72765 0.0
C3769 C 0.18982 0.80701 0.71898 0.0
C3770 C 0.19425 0.79322 0.72999 0.0
C3771 C 0.17968 0.77895 0.73251 0.0
C3772 C 0.21372 0.793 0.73866 0.0
C3773 C 0.20444 0.82206 0.71412 0.0
C3774 C 0.22085 0.77676 0.73693 0.0
C3775 C 0.23868 0.77629 0.7451 0.0
C3776 C 0.25027 0.79204 0.75541 0.0
C3777 C 0.24311 0.80824 0.7573 0.0
C3778 C 0.2252 0.80867 0.74925 0.0
H3779 H 0.1999 0.82746 0.70109 0.0
H3780 H 0.20748 0.83373 0.72536 0.0
H3781 H 0.21719 0.81707 0.71242 0.0
H3782 H 0.21262 0.76432 0.72905 0.0
H3783 H 0.24343 0.76348 0.7432 0.0
H3784 H 0.03734 0.32141 0.45764 0.0
H3785 H 0.03944 0.35342 0.47 0.0
H3786 H 0.07439 0.37157 0.42962 0.0
H3787 H 0.07258 0.33911 0.41724 0.0
H3788 H 0.08582 0.39425 0.46167 0.0
H3789 H 0.01135 0.38866 0.44951 0.0
H3790 H 0.01724 0.37221 0.46432 0.0
H3791 H 0.02209 0.37061 0.44067 0.0
C3792 C 0.04566 0.33207 0.45131 0.0
C3793 C 0.05474 0.32712 0.43619 0.0
C3794 C 0.04667 0.35069 0.45838 0.0
C3795 C 0.05661 0.36556 0.45063 0.0
C3796 C 0.06638 0.36074 0.436 0.0
H3797 H 0.03564 0.47959 0.4728 0.0
H3798 H 0.03696 0.44838 0.45969 0.0
C3799 C 0.06542 0.34195 0.42889 0.0
C3800 C 0.05659 0.38579 0.45778 0.0
H3801 H 0.02825 0.41545 0.46874 0.0
C3802 C 0.07316 0.39877 0.46311 0.0
C3803 C 0.04025 0.39246 0.45959 0.0
C3804 C 0.02173 0.38033 0.45304 0.0
C3805 C 0.07384 0.41747 0.47041 0.0
C3806 C 0.0575 0.42389 0.47302 0.0
C3807 C 0.04095 0.41101 0.46723 0.0
C3808 C 0.05714 0.44374 0.48124 0.0
C3809 C 0.09227 0.43029 0.47478 0.0
C3810 C 0.06781 0.45233 0.49809 0.0
C3811 C 0.06713 0.47049 0.50566 0.0
C3812 C 0.0556 0.48099 0.4969 0.0
C3813 C 0.04481 0.47234 0.48015 0.0
C3814 C 0.04553 0.45421 0.47257 0.0
H3815 H 0.10243 0.42545 0.46666 0.0
H3816 H 0.09152 0.44452 0.47181 0.0
H3817 H 0.0973 0.43069 0.48969 0.0
H3818 H 0.07654 0.44486 0.50572 0.0
H3819 H 0.07556 0.47623 0.51863 0.0
H3820 H 0.50006 0.31468 0.20451 0.0
H3821 H 0.47205 0.31278 0.21915 0.0
H3822 H 0.44365 0.27089 0.17558 0.0
H3823 H 0.47174 0.2727 0.16093 0.0
H3824 H 0.4382 0.319 0.21028 0.0
H3825 H 0.42884 0.24482 0.21886 0.0
H3826 H 0.44948 0.25754 0.21198 0.0
H3827 H 0.42951 0.24933 0.19521 0.0
C3828 C 0.48788 0.30509 0.19786 0.0
C3829 C 0.4886 0.2939 0.18128 0.0
C3830 C 0.47163 0.30397 0.20639 0.0
C3831 C 0.45525 0.29139 0.19901 0.0
C3832 C 0.45585 0.28045 0.1822 0.0
H3833 H 0.34411 0.2611 0.23457 0.0
H3834 H 0.37179 0.26347 0.2194 0.0
C3835 C 0.47209 0.28167 0.17357 0.0
C3836 C 0.43784 0.28992 0.20879 0.0
H3837 H 0.40483 0.25945 0.22613 0.0
C3838 C 0.43104 0.3059 0.21375 0.0
C3839 C 0.42791 0.27301 0.21359 0.0
C3840 C 0.43435 0.25521 0.20982 0.0
C3841 C 0.41495 0.30544 0.22263 0.0
C3842 C 0.40509 0.28854 0.22761 0.0
C3843 C 0.41192 0.27255 0.22262 0.0
C3844 C 0.38774 0.28704 0.23758 0.0
C3845 C 0.40836 0.32322 0.22588 0.0
C3846 C 0.38672 0.29908 0.2535 0.0
C3847 C 0.37057 0.29779 0.26228 0.0
C3848 C 0.35463 0.28418 0.25584 0.0
C3849 C 0.35582 0.27183 0.24024 0.0
C3850 C 0.37191 0.2732 0.23141 0.0
H3851 H 0.41331 0.33309 0.21612 0.0
H3852 H 0.39323 0.32076 0.22428 0.0
H3853 H 0.41377 0.32986 0.24015 0.0
H3854 H 0.39852 0.30957 0.25938 0.0
H3855 H 0.37063 0.30761 0.2742 0.0
H3856 H 0.63784 0.5566 0.35714 0.0
H3857 H 0.61812 0.56277 0.38038 0.0
H3858 H 0.65754 0.55209 0.42329 0.0
H3859 H 0.67741 0.5461 0.40023 0.0
H3860 H 0.60348 0.53674 0.40145 0.0
H3861 H 0.64333 0.59792 0.44699 0.0
H3862 H 0.64854 0.59164 0.42399 0.0
H3863 H 0.65668 0.5807 0.44331 0.0
C3864 C 0.64248 0.55592 0.37158 0.0
C3865 C 0.65915 0.5508 0.37688 0.0
C3866 C 0.6312 0.55949 0.38482 0.0
C3867 C 0.63649 0.55812 0.40355 0.0
C3868 C 0.65342 0.55366 0.40895 0.0
H3869 H 0.60067 0.53331 0.50245 0.0
H3870 H 0.61453 0.53999 0.47461 0.0
C3871 C 0.66471 0.55011 0.39574 0.0
C3872 C 0.62351 0.55904 0.41717 0.0
H3873 H 0.62088 0.57739 0.46103 0.0
C3874 C 0.60701 0.54596 0.41428 0.0
C3875 C 0.62812 0.57117 0.4338 0.0
C3876 C 0.64506 0.58628 0.43712 0.0
C3877 C 0.59572 0.54367 0.42828 0.0
C3878 C 0.60111 0.55484 0.44543 0.0
C3879 C 0.61692 0.56878 0.44784 0.0
C3880 C 0.59203 0.55059 0.4618 0.0
C3881 C 0.57882 0.52852 0.42519 0.0
C3882 C 0.57467 0.55417 0.46359 0.0
C3883 C 0.56661 0.55032 0.47954 0.0
C3884 C 0.5759 0.54289 0.49384 0.0
C3885 C 0.59316 0.53906 0.49174 0.0
C3886 C 0.60114 0.54291 0.47588 0.0
H3887 H 0.57712 0.52035 0.41137 0.0
H3888 H 0.5794 0.51906 0.43606 0.0
H3889 H 0.5666 0.53463 0.42631 0.0
H3890 H 0.56752 0.56017 0.45282 0.0
H3891 H 0.55335 0.55351 0.48083 0.0
H3892 H 0.33794 0.83585 0.08524 0.0
H3893 H 0.33316 0.82308 0.1142 0.0
H3894 H 0.2827 0.84226 0.11435 0.0
H3895 H 0.28762 0.85565 0.08546 0.0
H3896 H 0.30418 0.85245 0.14711 0.0
H3897 H 0.30009 0.77809 0.12682 0.0
H3898 H 0.32037 0.79205 0.12087 0.0
H3899 H 0.29836 0.79417 0.10997 0.0
C3900 C 0.3256 0.83708 0.09116 0.0
C3901 C 0.31318 0.84686 0.08295 0.0
C3902 C 0.32286 0.82965 0.10775 0.0
C3903 C 0.3075 0.83154 0.11642 0.0
C3904 C 0.29466 0.84061 0.1079 0.0
H3905 H 0.27678 0.77708 0.21117 0.0
H3906 H 0.27949 0.78751 0.18087 0.0
C3907 C 0.29743 0.84815 0.0913 0.0
C3908 C 0.30565 0.82533 0.13504 0.0
H3909 H 0.30578 0.78825 0.15935 0.0
C3910 C 0.30437 0.83837 0.14976 0.0
C3911 C 0.3058 0.80693 0.1385 0.0
C3912 C 0.30604 0.79197 0.12316 0.0
C3913 C 0.30347 0.8336 0.16787 0.0
C3914 C 0.30436 0.81539 0.17147 0.0
C3915 C 0.30539 0.80229 0.15668 0.0
C3916 C 0.30316 0.80927 0.19021 0.0
C3917 C 0.30118 0.84803 0.18286 0.0
C3918 C 0.31573 0.8179 0.20567 0.0
C3919 C 0.31414 0.81203 0.22325 0.0
C3920 C 0.30011 0.79726 0.22561 0.0
C3921 C 0.28782 0.78847 0.20998 0.0
C3922 C 0.28932 0.79441 0.19255 0.0
H3923 H 0.29589 0.85951 0.17697 0.0
H3924 H 0.29172 0.84193 0.19234 0.0
H3925 H 0.31463 0.85396 0.19115 0.0
H3926 H 0.3268 0.82912 0.20414 0.0
H3927 H 0.32388 0.81905 0.23494 0.0
H3928 H 0.0134 0.55061 0.81562 0.0
H3929 H 0.02822 0.53887 0.84236 0.0
H3930 H 0.03282 0.59125 0.8751 0.0
H3931 H 0.01803 0.60301 0.84859 0.0
H3932 H 0.06481 0.57202 0.87994 0.0
H3933 H 0.99658 0.52976 0.88678 0.0
H3934 H 1.00508 0.52812 0.86472 0.0
H3935 H 0.99889 0.54909 0.87335 0.0
C3936 C 0.01806 0.55977 0.82836 0.0
C3937 C 0.01447 0.57768 0.8301 0.0
C3938 C 0.02641 0.55301 0.84362 0.0
C3939 C 0.0314 0.56416 0.86069 0.0
C3940 C 0.02903 0.58245 0.86202 0.0
H3941 H 0.06012 0.57321 0.9752 0.0
H3942 H 0.05726 0.57558 0.94208 0.0
C3943 C 0.02057 0.58913 0.84689 0.0
C3944 C 0.03727 0.55649 0.87778 0.0
H3945 H 0.01984 0.5322 0.91145 0.0
C3946 C 0.05512 0.56301 0.88671 0.0
C3947 C 0.02458 0.54467 0.88648 0.0
C3948 C 1.00516 0.53748 0.87748 0.0
C3949 C 0.06041 0.55864 0.90452 0.0
C3950 C 0.04735 0.54791 0.91379 0.0
C3951 C 0.02982 0.54047 0.90437 0.0
C3952 C 0.05081 0.54608 0.93386 0.0
C3953 C 0.07984 0.56591 0.91337 0.0
C3954 C 0.04781 0.52868 0.94037 0.0
C3955 C 0.04924 0.52725 0.95944 0.0
C3956 C 0.05354 0.54324 0.97232 0.0
C3957 C 0.05685 0.5606 0.96572 0.0
C3958 C 0.0554 0.56199 0.94672 0.0
H3959 H 0.0893 0.5676 0.90271 0.0
H3960 H 0.08086 0.5797 0.92114 0.0
H3961 H 0.08436 0.55661 0.92315 0.0
H3962 H 0.04405 0.51622 0.93068 0.0
H3963 H 0.04656 0.51367 0.96406 0.0
H3964 H 0.35632 0.2079 0.58058 0.0
H3965 H 0.35127 0.22041 0.61129 0.0
H3966 H 0.2958 0.18965 0.60161 0.0
H3967 H 0.30112 0.17642 0.57119 0.0
H3968 H 0.33307 0.24174 0.62543 0.0
H3969 H 0.30559 0.17591 0.65127 0.0
H3970 H 0.31507 0.17657 0.6297 0.0
H3971 H 0.29182 0.17904 0.63071 0.0
C3972 C 0.34301 0.20363 0.58492 0.0
C3973 C 0.32924 0.19085 0.573 0.0
C3974 C 0.34008 0.21092 0.60275 0.0
C3975 C 0.32319 0.20591 0.60965 0.0
C3976 C 0.30925 0.19349 0.59751 0.0
H3977 H 0.28001 0.24476 0.71251 0.0
H3978 H 0.28389 0.23143 0.68146 0.0
C3979 C 0.31226 0.18598 0.57974 0.0
C3980 C 0.32028 0.21401 0.62911 0.0
H3981 H 0.30282 0.20319 0.6695 0.0
C3982 C 0.32655 0.2331 0.63497 0.0
C3983 C 0.3118 0.20324 0.64221 0.0
C3984 C 0.30586 0.18255 0.63826 0.0
C3985 C 0.3244 0.24148 0.65276 0.0
C3986 C 0.31574 0.23074 0.66569 0.0
C3987 C 0.30937 0.21171 0.65988 0.0
C3988 C 0.31336 0.23895 0.68518 0.0
C3989 C 0.33117 0.26201 0.65744 0.0
C3990 C 0.32848 0.24765 0.69833 0.0
C3991 C 0.32629 0.25516 0.71635 0.0
C3992 C 0.30884 0.25451 0.72208 0.0
C3993 C 0.29371 0.24577 0.70891 0.0
C3994 C 0.29593 0.23801 0.69097 0.0
H3995 H 0.3333 0.26903 0.64483 0.0
H3996 H 0.32143 0.26825 0.66501 0.0
H3997 H 0.34443 0.26466 0.66652 0.0
H3998 H 0.34216 0.24848 0.69475 0.0
H3999 H 0.3384 0.26162 0.72581 0.0
H4000 H 0.64509 0.49736 0.27993 0.0
H4001 H 0.63107 0.50105 0.2491 0.0
H4002 H 0.67586 0.5457 0.24484 0.0
H4003 H 0.69002 0.54221 0.27572 0.0
H4004 H 0.62301 0.53802 0.24383 0.0
H4005 H 0.66485 0.51294 0.19261 0.0
H4006 H 0.66379 0.50459 0.21503 0.0
H4007 H 0.67686 0.5271 0.21327 0.0
C4008 C 0.65221 0.50766 0.27228 0.0
C4009 C 0.66855 0.51965 0.28034 0.0
C4010 C 0.64417 0.50973 0.25467 0.0
C4011 C 0.65249 0.5236 0.24479 0.0
C4012 C 0.66938 0.53478 0.25224 0.0
H4013 H 0.61815 0.57001 0.14561 0.0
H4014 H 0.63519 0.56223 0.1733 0.0
C4015 C 0.67739 0.53281 0.2699 0.0
C4016 C 0.64234 0.52807 0.22801 0.0
H4017 H 0.64197 0.52843 0.18135 0.0
C4018 C 0.62704 0.53583 0.23013 0.0
C4019 C 0.64791 0.52542 0.21032 0.0
C4020 C 0.66419 0.51696 0.20751 0.0
C4021 C 0.61718 0.54123 0.21495 0.0
C4022 C 0.62254 0.53831 0.19714 0.0
C4023 C 0.63791 0.53059 0.19504 0.0
C4024 C 0.61224 0.54305 0.18052 0.0
C4025 C 0.60143 0.55043 0.21823 0.0
C4026 C 0.59377 0.53474 0.17542 0.0
C4027 C 0.58402 0.53926 0.15977 0.0
C4028 C 0.59265 0.55198 0.14881 0.0
C4029 C 0.6112 0.56015 0.15382 0.0
C4030 C 0.62092 0.55571 0.16958 0.0
H4031 H 0.60247 0.55639 0.23291 0.0
H4032 H 0.60076 0.56159 0.20922 0.0
H4033 H 0.58847 0.54002 0.21497 0.0
H4034 H 0.58696 0.52459 0.18344 0.0
H4035 H 0.56984 0.53247 0.15598 0.0
H4036 H 0.29377 0.86935 0.98261 0.0
H4037 H 0.2876 0.85725 0.94975 0.0
H4038 H 0.32602 0.82179 0.95854 0.0
H4039 H 0.33261 0.83414 0.99124 0.0
H4040 H 0.33287 0.84081 0.93027 0.0
H4041 H 0.25905 0.80959 0.9213 0.0
H4042 H 0.26406 0.83327 0.93127 0.0
H4043 H 0.27236 0.81621 0.94384 0.0
C4044 C 0.30065 0.85871 0.97764 0.0
C4045 C 0.31374 0.85278 0.98961 0.0
C4046 C 0.29703 0.85173 0.95882 0.0
C4047 C 0.3062 0.83845 0.95163 0.0
C4048 C 0.31875 0.83202 0.96372 0.0
H4049 H 0.28671 0.77962 0.83972 0.0
H4050 H 0.28747 0.78853 0.87297 0.0
C4051 C 0.32249 0.83909 0.98246 0.0
C4052 C 0.30402 0.83243 0.93132 0.0
H4053 H 0.27272 0.81378 0.89354 0.0
C4054 C 0.31971 0.8348 0.9223 0.0
C4055 C 0.28689 0.82442 0.92086 0.0
C4056 C 0.26965 0.82054 0.92983 0.0
C4057 C 0.31875 0.82964 0.90318 0.0
C4058 C 0.30155 0.82232 0.89258 0.0
C4059 C 0.28587 0.81962 0.90161 0.0
C4060 C 0.29972 0.81724 0.87216 0.0
C4061 C 0.33628 0.83179 0.8946 0.0
C4062 C 0.30584 0.8305 0.86052 0.0
C4063 C 0.30555 0.82544 0.84156 0.0
C4064 C 0.2989 0.80702 0.83372 0.0
C4065 C 0.29196 0.79392 0.84526 0.0
C4066 C 0.29238 0.79899 0.86429 0.0
H4067 H 0.34828 0.83253 0.90515 0.0
H4068 H 0.33579 0.82015 0.88376 0.0
H4069 H 0.33836 0.8448 0.88805 0.0
H4070 H 0.31114 0.84476 0.86617 0.0
H4071 H 0.31081 0.83596 0.8331 0.0
H4072 H 0.96526 0.52747 0.75147 0.0
H4073 H 0.99215 0.52042 0.73876 0.0
H4074 H 0.01554 0.57869 0.74313 0.0
H4075 H 0.98912 0.5856 0.75694 0.0
H4076 H 0.9962 0.53027 0.70652 0.0
H4077 H 0.06129 0.55962 0.75108 0.0
H4078 H 0.03961 0.55656 0.76003 0.0
H4079 H 0.04756 0.57666 0.74881 0.0
C4080 C 0.97659 0.53867 0.75054 0.0
C4081 C 0.97525 0.55704 0.75509 0.0
C4082 C 0.99193 0.53466 0.74326 0.0
C4083 C 1.0059 0.549 0.73988 0.0
C4084 C 1.00521 0.56734 0.74593 0.0
H4085 H 0.0659 0.56643 0.64964 0.0
H4086 H 0.05379 0.56876 0.67934 0.0
C4087 C 0.99005 0.57132 0.75372 0.0
C4088 C 0.01861 0.54508 0.72659 0.0
H4089 H 0.06288 0.5555 0.71782 0.0
C4090 C 1.01084 0.5354 0.70923 0.0
C4091 C 0.0377 0.55197 0.72996 0.0
C4092 C 0.04702 0.56161 0.74857 0.0
C4093 C 0.02141 0.53307 0.69496 0.0
C4094 C 0.04034 0.54053 0.69809 0.0
C4095 C 0.04833 0.5498 0.71553 0.0
C4096 C 0.05148 0.53985 0.68272 0.0
C4097 C 0.01211 0.52334 0.67632 0.0
C4098 C 0.05472 0.52293 0.67519 0.0
C4099 C 0.06143 0.5215 0.65815 0.0
C4100 C 0.06499 0.53699 0.64839 0.0
C4101 C 0.06298 0.5542 0.65668 0.0
C4102 C 0.05627 0.5556 0.67373 0.0
H4103 H 0.99699 0.52066 0.67546 0.0
H4104 H 0.01628 0.53167 0.66506 0.0
H4105 H 0.01627 0.5099 0.67381 0.0
H4106 H 0.05102 0.51062 0.68195 0.0
H4107 H 0.06272 0.50803 0.6521 0.0
H4108 H 0.34472 0.21765 0.47841 0.0
H4109 H 0.34093 0.23087 0.44918 0.0
H4110 H 0.29806 0.18413 0.42742 0.0
H4111 H 0.30128 0.17134 0.45713 0.0
H4112 H 0.34664 0.22435 0.41676 0.0
H4113 H 0.27217 0.21938 0.40694 0.0
H4114 H 0.28389 0.21473 0.42826 0.0
H4115 H 0.2776 0.19714 0.40861 0.0
C4116 C 0.33415 0.21025 0.46761 0.0
C4117 C 0.32314 0.19336 0.47077 0.0
C4118 C 0.33205 0.21788 0.45053 0.0
C4119 C 0.31892 0.20903 0.43543 0.0
C4120 C 0.30791 0.19205 0.43854 0.0
H4121 H 0.29837 0.2308 0.31661 0.0
H4122 H 0.30033 0.21724 0.34604 0.0
C4123 C 0.30982 0.18453 0.4558 0.0
C4124 C 0.3175 0.21728 0.41661 0.0
H4125 H 0.28749 0.22629 0.38084 0.0
C4126 C 0.33358 0.22481 0.40917 0.0
C4127 C 0.30068 0.21826 0.40594 0.0
C4128 C 0.28263 0.21214 0.41292 0.0
C4129 C 0.33335 0.23272 0.39203 0.0
C4130 C 0.31657 0.23346 0.38134 0.0
C4131 C 0.30049 0.22586 0.3886 0.0
C4132 C 0.3155 0.24206 0.36283 0.0
C4133 C 0.35128 0.23992 0.38527 0.0
C4134 C 0.32319 0.26082 0.36169 0.0
C4135 C 0.32191 0.26877 0.34467 0.0
C4136 C 0.31307 0.25832 0.32781 0.0
C4137 C 0.30549 0.23951 0.32895 0.0
C4138 C 0.30653 0.23165 0.34603 0.0
H4139 H 0.36261 0.23449 0.39236 0.0
H4140 H 0.35045 0.2362 0.37008 0.0
H4141 H 0.35465 0.2552 0.38813 0.0
H4142 H 0.32999 0.26956 0.37413 0.0
H4143 H 0.32784 0.28327 0.3448 0.0
H4144 H 0.32789 0.63548 0.54106 0.0
H4145 H 0.35398 0.62036 0.543 0.0
H4146 H 0.38502 0.66457 0.51822 0.0
H4147 H 0.35892 0.67964 0.51593 0.0
H4148 H 0.38405 0.63052 0.49999 0.0
H4149 H 0.40327 0.63042 0.5754 0.0
H4150 H 0.37943 0.62151 0.56788 0.0
H4151 H 0.38905 0.6453 0.56618 0.0
C4152 C 0.3404 0.64221 0.5364 0.0
C4153 C 0.34131 0.65875 0.5283 0.0
C4154 C 0.35534 0.63358 0.53761 0.0
C4155 C 0.3715 0.64141 0.53089 0.0
C4156 C 0.3727 0.65833 0.52355 0.0
H4157 H 0.46989 0.59526 0.53807 0.0
H4158 H 0.44829 0.61578 0.54055 0.0
C4159 C 0.35777 0.66695 0.5223 0.0
C4160 C 0.38635 0.63104 0.5297 0.0
H4161 H 0.41515 0.60979 0.55521 0.0
C4162 C 0.39098 0.62615 0.51209 0.0
C4163 C 0.39547 0.62547 0.5455 0.0
C4164 C 0.3917 0.63109 0.56483 0.0
C4165 C 0.40413 0.61541 0.50978 0.0
C4166 C 0.41265 0.60912 0.52548 0.0
C4167 C 0.40844 0.61447 0.54317 0.0
C4168 C 0.42577 0.59676 0.52376 0.0
C4169 C 0.40884 0.61095 0.49055 0.0
C4170 C 0.42022 0.57923 0.51359 0.0
C4171 C 0.43256 0.56754 0.51198 0.0
C4172 C 0.45068 0.57311 0.52065 0.0
C4173 C 0.45614 0.59066 0.53095 0.0
C4174 C 0.44378 0.60235 0.53252 0.0
H4175 H 0.40505 0.62083 0.48105 0.0
H4176 H 0.42364 0.61115 0.49084 0.0
H4177 H 0.40118 0.59693 0.48476 0.0
H4178 H 0.40629 0.57453 0.50697 0.0
H4179 H 0.42793 0.55418 0.50386 0.0
H4180 H 0.84764 0.92247 0.547 0.0
H4181 H 0.87938 0.93707 0.54545 0.0
H4182 H 0.86131 0.97877 0.51531 0.0
H4183 H 0.82939 0.96394 0.51654 0.0
H4184 H 0.88976 0.9689 0.50065 0.0
H4185 H 0.90962 0.98202 0.57651 0.0
H4186 H 0.90073 0.95804 0.56878 0.0
H4187 H 0.88615 0.97444 0.56624 0.0
C4188 C 0.8503 0.93469 0.53991 0.0
C4189 C 0.83562 0.94187 0.53188 0.0
C4190 C 0.86867 0.94324 0.53922 0.0
C4191 C 0.8732 0.95947 0.53061 0.0
C4192 C 0.85854 0.96642 0.52219 0.0
H4193 H 0.98371 0.03237 0.54813 0.0
H4194 H 0.95138 0.01848 0.54822 0.0
C4195 C 0.84012 0.95786 0.52289 0.0
C4196 C 0.89304 0.96899 0.53028 0.0
H4197 H 0.93384 0.98675 0.558 0.0
C4198 C 0.89931 0.9728 0.51326 0.0
C4199 C 0.90585 0.97458 0.54661 0.0
C4200 C 0.90024 0.97225 0.56558 0.0
C4201 C 0.91767 0.98142 0.51207 0.0
C4202 C 0.93065 0.98634 0.52833 0.0
C4203 C 0.92428 0.98292 0.54539 0.0
C4204 C 0.95072 0.99511 0.52799 0.0
C4205 C 0.92281 0.98557 0.4933 0.0
C4206 C 0.96173 0.98682 0.51678 0.0
C4207 C 0.98036 0.99483 0.51667 0.0
C4208 C 0.98886 0.01146 0.52785 0.0
C4209 C 0.97787 0.0197 0.53918 0.0
C4210 C 0.95922 0.01165 0.53929 0.0
H4211 H 0.91069 0.98641 0.48353 0.0
H4212 H 0.93292 0.99877 0.49432 0.0
H4213 H 0.92892 0.9743 0.48732 0.0
H4214 H 0.95602 0.97387 0.50825 0.0
H4215 H 0.98816 0.98781 0.50787 0.0
H4216 H 0.88166 0.04628 0.2709 0.0
H4217 H 0.858 0.06453 0.27031 0.0
H4218 H 0.87175 0.08216 0.21807 0.0
H4219 H 0.89516 0.06347 0.21832 0.0
H4220 H 0.86743 0.10111 0.27214 0.0
H4221 H 0.81662 0.07497 0.21009 0.0
H4222 H 0.83244 0.0616 0.21927 0.0
H4223 H 0.83967 0.07925 0.20481 0.0
C4224 C 0.87934 0.05367 0.25905 0.0
C4225 C 0.89039 0.05362 0.24475 0.0
C4226 C 0.86577 0.06404 0.25871 0.0
C4227 C 0.86307 0.07468 0.24414 0.0
C4228 C 0.87333 0.07378 0.22927 0.0
H4229 H 0.83448 0.18052 0.2544 0.0
H4230 H 0.84788 0.15365 0.24791 0.0
C4231 C 0.88679 0.06317 0.22949 0.0
C4232 C 0.8517 0.08875 0.24603 0.0
H4233 H 0.817 0.10564 0.2242 0.0
C4234 C 0.85626 0.10192 0.26175 0.0
C4235 C 0.83709 0.08979 0.23251 0.0
C4236 C 0.83103 0.07553 0.2158 0.0
C4237 C 0.84696 0.11635 0.2641 0.0
C4238 C 0.83295 0.1179 0.25018 0.0
C4239 C 0.82793 0.10448 0.23471 0.0
C4240 C 0.82383 0.13376 0.2515 0.0
C4241 C 0.85228 0.12993 0.28143 0.0
C4242 C 0.80565 0.13136 0.25503 0.0
C4243 C 0.79786 0.14672 0.25862 0.0
C4244 C 0.80814 0.16469 0.25866 0.0
C4245 C 0.8261 0.16691 0.25429 0.0
C4246 C 0.83384 0.15158 0.2507 0.0
H4247 H 0.86013 0.12438 0.29259 0.0
H4248 H 0.86099 0.14276 0.27815 0.0
H4249 H 0.84003 0.1336 0.28673 0.0
H4250 H 0.79774 0.11767 0.25565 0.0
H4251 H 0.78391 0.14456 0.26168 0.0
H4252 H 0.74194 0.1519 0.03079 0.0
H4253 H 0.711 0.13357 0.02921 0.0
H4254 H 0.70474 0.13031 0.96954 0.0
H4255 H 0.73575 0.14833 0.97094 0.0
H4256 H 0.67737 0.13934 0.01395 0.0
H4257 H 0.69341 0.07609 0.97849 0.0
H4258 H 0.71091 0.09554 0.989 0.0
H4259 H 0.69833 0.09637 0.96683 0.0
C4260 C 0.73395 0.14739 0.01733 0.0
C4261 C 0.74138 0.15141 1.00098 0.0
C4262 C 0.71628 0.13691 0.01645 0.0
C4263 C 0.70573 0.13026 0.99924 0.0
C4264 C 0.71281 0.13492 0.98294 0.0
H4265 H 0.59532 0.06011 0.97849 0.0
H4266 H 0.62423 0.07972 0.97355 0.0
C4267 C 0.7305 0.14533 0.98379 0.0
C4268 C 0.68744 0.11826 0.99847 0.0
H4269 H 0.66295 0.07453 0.98424 0.0
C4270 C 0.67419 0.12521 0.00737 0.0
C4271 C 0.68332 0.09982 0.98981 0.0
C4272 C 0.69726 0.0914 0.98061 0.0
C4273 C 0.657 0.11414 0.00809 0.0
C4274 C 0.65307 0.09561 0.99985 0.0
C4275 C 0.66606 0.08878 0.99046 0.0
C4276 C 0.6361 0.08279 1.00228 0.0
C4277 C 0.64322 0.12225 0.01786 0.0
C4278 C 0.63355 0.07762 0.01991 0.0
C4279 C 0.61723 0.06641 0.02276 0.0
C4280 C 0.60306 0.06013 0.00801 0.0
C4281 C 0.60593 0.06473 0.99015 0.0
C4282 C 0.62239 0.07596 0.9873 0.0
H4283 H 0.64661 0.13758 0.01955 0.0
H4284 H 0.62931 0.11748 0.01012 0.0
H4285 H 0.64305 0.11759 0.03185 0.0
H4286 H 0.64412 0.08254 0.03157 0.0
H4287 H 0.61561 0.06306 0.03668 0.0
H4288 H 0.14768 0.44771 0.3194 0.0
H4289 H 0.1773 0.44059 0.33003 0.0
H4290 H 0.19013 0.4377 0.2739 0.0
H4291 H 0.16074 0.44473 0.26311 0.0
H4292 H 0.1901 0.40803 0.31663 0.0
H4293 H 0.23542 0.47294 0.30486 0.0
H4294 H 0.21151 0.4713 0.30705 0.0
H4295 H 0.21837 0.46314 0.28553 0.0
C4296 C 0.15683 0.44561 0.30932 0.0
C4297 C 0.15182 0.44677 0.29039 0.0
C4298 C 0.17374 0.44161 0.31544 0.0
C4299 C 0.18596 0.43898 0.30278 0.0
C4300 C 0.181 0.44007 0.28392 0.0
H4301 H 0.27853 0.39866 0.28307 0.0
H4302 H 0.25411 0.41571 0.28549 0.0
C4303 C 0.16411 0.44391 0.27777 0.0
C4304 C 0.2035 0.43393 0.30885 0.0
H4305 H 0.24925 0.4466 0.30729 0.0
C4306 C 0.20312 0.41658 0.31502 0.0
C4307 C 0.22036 0.44519 0.30671 0.0
C4308 C 0.22153 0.46427 0.30084 0.0
C4309 C 0.21908 0.40958 0.31782 0.0
C4310 C 0.23588 0.42049 0.31476 0.0
C4311 C 0.23637 0.43829 0.30962 0.0
C4312 C 0.25252 0.41273 0.31449 0.0
C4313 C 0.2176 0.3901 0.32275 0.0
C4314 C 0.26024 0.40611 0.33022 0.0
C4315 C 0.27407 0.39614 0.32881 0.0
C4316 C 0.28045 0.39279 0.31168 0.0
C4317 C 0.27364 0.40071 0.29636 0.0
C4318 C 0.25978 0.41056 0.29775 0.0
H4319 H 0.20321 0.38246 0.32126 0.0
H4320 H 0.22523 0.38229 0.31384 0.0
H4321 H 0.22362 0.39052 0.33738 0.0
H4322 H 0.25505 0.40798 0.34336 0.0
H4323 H 0.27903 0.39019 0.34086 0.0
H4324 H 0.21256 0.4201 0.02858 0.0
H4325 H 0.18395 0.432 0.02687 0.0
H4326 H 0.21526 0.48764 0.03413 0.0
H4327 H 0.24333 0.47609 0.03564 0.0
H4328 H 0.16862 0.45458 0.05085 0.0
H4329 H 0.18049 0.49183 0.99002 0.0
H4330 H 0.19393 0.47543 0.99703 0.0
H4331 H 0.19918 0.49877 0.0083 0.0
C4332 C 0.21341 0.43486 0.02963 0.0
C4333 C 0.23078 0.44689 0.03211 0.0
C4334 C 0.19685 0.44178 0.02873 0.0
C4335 C 0.19688 0.461 0.02997 0.0
C4336 C 0.21424 0.47284 0.03257 0.0
H4337 H 0.11942 0.53805 0.02868 0.0
H4338 H 0.14559 0.52283 0.02916 0.0
C4339 C 0.23059 0.46603 0.03358 0.0
C4340 C 0.17925 0.46894 0.02891 0.0
H4341 H 0.15759 0.49983 0.0074 0.0
C4342 C 0.16621 0.46431 0.04115 0.0
C4343 C 0.17556 0.48191 0.01649 0.0
C4344 C 0.18792 0.48716 1.00209 0.0
C4345 C 0.1505 0.47247 0.04176 0.0
C4346 C 0.1469 0.4856 0.02943 0.0
C4347 C 0.15986 0.49002 0.01704 0.0
C4348 C 0.13019 0.49505 0.02924 0.0
C4349 C 0.13833 0.46742 0.05635 0.0
C4350 C 0.11207 0.48504 0.02882 0.0
C4351 C 0.09686 0.49389 0.02863 0.0
C4352 C 0.09885 0.51324 0.02863 0.0
C4353 C 0.11692 0.52322 0.02872 0.0
C4354 C 0.13213 0.51437 0.02897 0.0
H4355 H 0.14572 0.46232 0.06817 0.0
H4356 H 0.13288 0.4794 0.06181 0.0
H4357 H 0.1267 0.45618 0.05019 0.0
H4358 H 0.10949 0.47017 0.02835 0.0
H4359 H 0.0834 0.48541 0.02836 0.0
H4360 H 0.90905 0.97806 0.28172 0.0
H4361 H 0.89336 0.946 0.28021 0.0
H4362 H 0.89975 0.93724 0.22233 0.0
H4363 H 0.91529 0.96959 0.22358 0.0
H4364 H 0.86494 0.9227 0.22933 0.0
H4365 H 0.9159 0.90062 0.27803 0.0
H4366 H 0.90855 0.92051 0.28786 0.0
H4367 H 0.92073 0.92206 0.26799 0.0
C4368 C 0.90726 0.96936 0.26866 0.0
C4369 C 0.91355 0.97644 0.25279 0.0
C4370 C 0.89835 0.95096 0.26786 0.0
C4371 C 0.89569 0.93914 0.25126 0.0
C4372 C 0.90179 0.94612 0.23532 0.0
H4373 H 0.85715 0.82115 0.25528 0.0
H4374 H 0.87455 0.85055 0.24855 0.0
C4375 C 0.91069 0.9646 0.23609 0.0
C4376 C 0.88602 0.91968 0.25056 0.0
H4377 H 0.88615 0.88095 0.27221 0.0
C4378 C 0.86968 0.91346 0.23853 0.0
C4379 C 0.89238 0.90754 0.26232 0.0
C4380 C 0.91045 0.91295 0.27463 0.0
C4381 C 0.85909 0.89569 0.23855 0.0
C4382 C 0.86485 0.88402 0.25122 0.0
C4383 C 0.88161 0.88997 0.26265 0.0
C4384 C 0.8535 0.86585 0.25342 0.0
C4385 C 0.84187 0.88963 0.225 0.0
C4386 C 0.83582 0.86462 0.25827 0.0
C4387 C 0.82576 0.84779 0.262 0.0
C4388 C 0.83333 0.83191 0.26124 0.0
C4389 C 0.85093 0.83312 0.25606 0.0
C4390 C 0.8609 0.84991 0.25219 0.0
H4391 H 0.84257 0.89725 0.21262 0.0
H4392 H 0.83928 0.8746 0.22035 0.0
H4393 H 0.83013 0.89259 0.23182 0.0
H4394 H 0.82999 0.87681 0.25979 0.0
H4395 H 0.81231 0.84738 0.26608 0.0
H4396 H 0.62867 0.01889 0.79693 0.0
H4397 H 0.64742 0.04937 0.79569 0.0
H4398 H 0.64689 0.0367 0.7368 0.0
H4399 H 0.62854 1.00603 0.73794 0.0
H4400 H 0.68077 0.05171 0.75403 0.0
H4401 H 0.63227 0.09411 0.7762 0.0
H4402 H 0.63701 0.07828 0.7923 0.0
H4403 H 0.62552 0.06955 0.76939 0.0
C4404 C 0.63244 0.02259 0.78368 0.0
C4405 C 0.62705 0.00999 0.76753 0.0
C4406 C 0.64306 0.0401 0.78299 0.0
C4407 C 0.64828 0.04543 0.7661 0.0
C4408 C 0.64293 0.0329 0.74997 0.0
H4409 H 0.69648 0.15605 0.74403 0.0
H4410 H 0.67602 0.12654 0.74587 0.0
C4411 C 0.63243 0.01535 0.75066 0.0
C4412 C 0.65997 0.06378 0.76536 0.0
H4413 H 0.66272 0.11013 0.77519 0.0
C4414 C 0.67679 0.06449 0.75858 0.0
C4415 C 0.65465 0.08044 0.77108 0.0
C4416 C 0.6363 0.08062 0.77748 0.0
C4417 C 0.68856 0.08137 0.75761 0.0
C4418 C 0.68356 0.09801 0.76402 0.0
C4419 C 0.66662 0.09734 0.77051 0.0
C4420 C 0.69564 0.11624 0.76378 0.0
C4421 C 0.70608 0.08123 0.74941 0.0
C4422 C 0.71328 0.12041 0.77363 0.0
C4423 C 0.72499 0.13721 0.77255 0.0
C4424 C 0.7192 0.15025 0.76179 0.0
C4425 C 0.70128 0.14632 0.75251 0.0
C4426 C 0.68961 0.12946 0.7535 0.0
H4427 H 0.70545 0.06806 0.7406 0.0
H4428 H 0.70918 0.0928 0.7409 0.0
H4429 H 0.71749 0.08278 0.76078 0.0
H4430 H 0.71804 0.11061 0.78204 0.0
H4431 H 0.73861 0.13999 0.78012 0.0
loop_
_geom_bond_atom_site_label_1
_geom_bond_atom_site_label_2
_geom_bond_distance
_geom_bond_site_symmetry_2
_ccdc_geom_bond_type
Mg0 O1 2.028 . S
Mg0 O7 1.986 . S
Mg0 O9 2.114 . S
Mg0 O10 2.251 . S
Mg0 O13 2.010 . S
O1 Mg0 2.028 . S
O1 C4 1.250 . S
O2 Mg3 2.028 . S
O2 C4 1.248 . S
Mg3 O2 2.028 . S
Mg3 O8 2.032 . S
Mg3 O10 2.079 . S
C4 O1 1.250 . S
C4 O2 1.248 . S
C5 O6 1.264 . S
C5 O13 1.249 . S
O6 C5 1.264 . S
O7 Mg0 1.986 . S
O7 C11 1.246 . S
O8 Mg3 2.032 . S
O8 C11 1.259 . S
O9 Mg0 2.114 . S
O9 C12 1.252 . S
O10 Mg0 2.251 . S
O10 Mg3 2.079 . S
O10 C12 1.273 . S
C11 O7 1.246 . S
C11 O8 1.259 . S
C12 O9 1.252 . S
C12 O10 1.273 . S
O13 Mg0 2.010 . S
O13 C5 1.249 . S
Mg14 O15 2.028 . S
Mg14 O21 1.986 . S
Mg14 O23 2.114 . S
Mg14 O24 2.251 . S
Mg14 O27 2.010 . S
O15 Mg14 2.028 . S
O15 C18 1.250 . S
O16 Mg17 2.054 . S
O16 C18 1.248 . S
Mg17 O16 2.054 . S
Mg17 O22 2.053 . S
Mg17 O24 2.085 . S
C18 O15 1.250 . S
C18 O16 1.248 . S
C19 O20 1.264 . S
C19 O27 1.249 . S
O20 C19 1.264 . S
O21 Mg14 1.986 . S
O21 C25 1.246 . S
O22 Mg17 2.053 . S
O22 C25 1.259 . S
O23 Mg14 2.114 . S
O23 C26 1.252 . S
O24 Mg14 2.251 . S
O24 Mg17 2.085 . S
O24 C26 1.273 . S
C25 O21 1.246 . S
C25 O22 1.259 . S
C26 O23 1.252 . S
C26 O24 1.273 . S
O27 Mg14 2.010 . S
O27 C19 1.249 . S
Mg28 O29 2.028 . S
Mg28 O35 1.986 . S
Mg28 O37 2.114 . S
Mg28 O38 2.251 . S
Mg28 O41 2.010 . S
O29 Mg28 2.028 . S
O29 C32 1.250 . S
O30 Mg31 2.028 . S
O30 C32 1.248 . S
Mg31 O30 2.028 . S
Mg31 O36 2.032 . S
Mg31 O38 2.079 . S
C32 O29 1.250 . S
C32 O30 1.248 . S
C33 O34 1.264 . S
C33 O41 1.249 . S
O34 C33 1.264 . S
O35 Mg28 1.986 . S
O35 C39 1.246 . S
O36 Mg31 2.032 . S
O36 C39 1.259 . S
O37 Mg28 2.114 . S
O37 C40 1.252 . S
O38 Mg28 2.251 . S
O38 Mg31 2.079 . S
O38 C40 1.273 . S
C39 O35 1.246 . S
C39 O36 1.259 . S
C40 O37 1.252 . S
C40 O38 1.273 . S
O41 Mg28 2.010 . S
O41 C33 1.249 . S
Mg42 O43 2.028 . S
Mg42 O49 1.986 . S
Mg42 O51 2.114 . S
Mg42 O52 2.251 . S
Mg42 O55 2.010 . S
O43 Mg42 2.028 . S
O43 C46 1.250 . S
O44 Mg45 2.028 . S
O44 C46 1.248 . S
Mg45 O44 2.028 . S
Mg45 O50 2.032 . S
Mg45 O52 2.079 . S
C46 O43 1.250 . S
C46 O44 1.248 . S
C47 O48 1.264 . S
C47 O55 1.249 . S
O48 C47 1.264 . S
O49 Mg42 1.986 . S
O49 C53 1.246 . S
O50 Mg45 2.032 . S
O50 C53 1.259 . S
O51 Mg42 2.114 . S
O51 C54 1.252 . S
O52 Mg42 2.251 . S
O52 Mg45 2.079 . S
O52 C54 1.273 . S
C53 O49 1.246 . S
C53 O50 1.259 . S
C54 O51 1.252 . S
C54 O52 1.273 . S
O55 Mg42 2.010 . S
O55 C47 1.249 . S
Mg56 O57 2.028 . S
Mg56 O63 1.986 . S
Mg56 O65 2.114 . S
Mg56 O66 2.251 . S
Mg56 O69 2.010 . S
O57 Mg56 2.028 . S
O57 C60 1.250 . S
O58 Mg59 2.028 . S
O58 C60 1.248 . S
Mg59 O58 2.028 . S
Mg59 O64 2.032 . S
Mg59 O66 2.079 . S
C60 O57 1.250 . S
C60 O58 1.248 . S
C61 O62 1.264 . S
C61 O69 1.249 . S
O62 C61 1.264 . S
O63 Mg56 1.986 . S
O63 C67 1.246 . S
O64 Mg59 2.032 . S
O64 C67 1.259 . S
O65 Mg56 2.114 . S
O65 C68 1.252 . S
O66 Mg56 2.251 . S
O66 Mg59 2.079 . S
O66 C68 1.273 . S
C67 O63 1.246 . S
C67 O64 1.259 . S
C68 O65 1.252 . S
C68 O66 1.273 . S
O69 Mg56 2.010 . S
O69 C61 1.249 . S
Mg70 O71 2.028 . S
Mg70 O77 1.986 . S
Mg70 O79 2.114 . S
Mg70 O80 2.251 . S
Mg70 O83 2.010 . S
O71 Mg70 2.028 . S
O71 C74 1.250 . S
O72 Mg73 2.028 . S
O72 C74 1.248 . S
Mg73 O72 2.028 . S
Mg73 O78 2.032 . S
Mg73 O80 2.079 . S
C74 O71 1.250 . S
C74 O72 1.248 . S
C75 O76 1.264 . S
C75 O83 1.249 . S
O76 C75 1.264 . S
O77 Mg70 1.986 . S
O77 C81 1.246 . S
O78 Mg73 2.032 . S
O78 C81 1.259 . S
O79 Mg70 2.114 . S
O79 C82 1.252 . S
O80 Mg70 2.251 . S
O80 Mg73 2.079 . S
O80 C82 1.273 . S
C81 O77 1.246 . S
C81 O78 1.259 . S
C82 O79 1.252 . S
C82 O80 1.273 . S
O83 Mg70 2.010 . S
O83 C75 1.249 . S
Mg84 O85 2.028 . S
Mg84 O91 1.986 . S
Mg84 O93 2.114 . S
Mg84 O94 2.251 . S
Mg84 O97 2.010 . S
O85 Mg84 2.028 . S
O85 C88 1.250 . S
O86 Mg87 2.028 . S
O86 C88 1.248 . S
Mg87 O86 2.028 . S
Mg87 O92 2.032 . S
Mg87 O94 2.079 . S
C88 O85 1.250 . S
C88 O86 1.248 . S
C89 O90 1.264 . S
C89 O97 1.249 . S
O90 C89 1.264 . S
O91 Mg84 1.986 . S
O91 C95 1.246 . S
O92 Mg87 2.032 . S
O92 C95 1.259 . S
O93 Mg84 2.114 . S
O93 C96 1.252 . S
O94 Mg84 2.251 . S
O94 Mg87 2.079 . S
O94 C96 1.273 . S
C95 O91 1.246 . S
C95 O92 1.259 . S
C96 O93 1.252 . S
C96 O94 1.273 . S
O97 Mg84 2.010 . S
O97 C89 1.249 . S
Mg98 O99 2.028 1_655 S
Mg98 O105 1.986 1_655 S
Mg98 O107 2.114 . S
Mg98 O108 2.251 . S
Mg98 O111 2.010 1_655 S
O99 Mg98 2.028 1_455 S
O99 C102 1.247 1_455 S
O100 Mg101 2.028 . S
O100 C102 1.252 . S
Mg101 O100 2.028 . S
Mg101 O106 2.032 . S
Mg101 O108 2.079 . S
C102 O99 1.247 1_655 S
C102 O100 1.252 . S
C103 O104 1.264 . S
C103 O111 1.249 . S
O104 C103 1.264 . S
O105 Mg98 1.986 1_455 S
O105 C109 1.246 1_455 S
O106 Mg101 2.032 . S
O106 C109 1.259 . S
O107 Mg98 2.114 . S
O107 C110 1.252 . S
O108 Mg98 2.251 . S
O108 Mg101 2.079 . S
O108 C110 1.273 . S
C109 O105 1.246 1_655 S
C109 O106 1.259 . S
C110 O107 1.252 . S
C110 O108 1.273 . S
O111 Mg98 2.010 1_455 S
O111 C103 1.249 . S
Mg112 O113 2.028 . S
Mg112 O119 1.986 . S
Mg112 O121 2.114 . S
Mg112 O122 2.251 . S
Mg112 O125 2.010 . S
O113 Mg112 2.028 . S
O113 C116 1.250 . S
O114 Mg115 2.028 . S
O114 C116 1.248 . S
Mg115 O114 2.028 . S
Mg115 O120 2.032 . S
Mg115 O122 2.079 . S
C116 O113 1.250 . S
C116 O114 1.248 . S
C117 O118 1.264 . S
C117 O125 1.249 . S
O118 C117 1.264 . S
O119 Mg112 1.986 . S
O119 C123 1.246 . S
O120 Mg115 2.032 . S
O120 C123 1.259 . S
O121 Mg112 2.114 . S
O121 C124 1.252 . S
O122 Mg112 2.251 . S
O122 Mg115 2.079 . S
O122 C124 1.273 . S
C123 O119 1.246 . S
C123 O120 1.259 . S
C124 O121 1.252 . S
C124 O122 1.273 . S
O125 Mg112 2.010 . S
O125 C117 1.249 . S
Mg126 O127 2.028 . S
Mg126 O133 1.986 . S
Mg126 O135 2.114 . S
Mg126 O136 2.251 . S
Mg126 O139 2.010 . S
O127 Mg126 2.028 . S
O127 C130 1.250 . S
O128 Mg129 2.028 . S
O128 C130 1.248 . S
Mg129 O128 2.028 . S
Mg129 O134 2.032 . S
Mg129 O136 2.079 . S
C130 O127 1.250 . S
C130 O128 1.248 . S
C131 O132 1.264 . S
C131 O139 1.249 . S
O132 C131 1.264 . S
O133 Mg126 1.986 . S
O133 C137 1.246 . S
O134 Mg129 2.032 . S
O134 C137 1.259 . S
O135 Mg126 2.114 . S
O135 C138 1.252 . S
O136 Mg126 2.251 . S
O136 Mg129 2.079 . S
O136 C138 1.273 . S
C137 O133 1.246 . S
C137 O134 1.259 . S
C138 O135 1.252 . S
C138 O136 1.273 . S
O139 Mg126 2.010 . S
O139 C131 1.249 . S
Mg140 O141 2.028 . S
Mg140 O147 1.986 . S
Mg140 O149 2.114 . S
Mg140 O150 2.251 . S
Mg140 O153 2.010 . S
O141 Mg140 2.028 . S
O141 C144 1.250 . S
O142 Mg143 2.028 . S
O142 C144 1.248 . S
Mg143 O142 2.028 . S
Mg143 O148 2.032 . S
Mg143 O150 2.079 . S
C144 O141 1.250 . S
C144 O142 1.248 . S
C145 O146 1.264 . S
C145 O153 1.249 . S
O146 C145 1.264 . S
O147 Mg140 1.986 . S
O147 C151 1.246 . S
O148 Mg143 2.032 . S
O148 C151 1.259 . S
O149 Mg140 2.114 . S
O149 C152 1.252 . S
O150 Mg140 2.251 . S
O150 Mg143 2.079 . S
O150 C152 1.273 . S
C151 O147 1.246 . S
C151 O148 1.259 . S
C152 O149 1.252 . S
C152 O150 1.273 . S
O153 Mg140 2.010 . S
O153 C145 1.249 . S
Mg154 O155 2.028 . S
Mg154 O161 1.986 . S
Mg154 O163 2.114 . S
Mg154 O164 2.251 . S
Mg154 O167 2.010 . S
O155 Mg154 2.028 . S
O155 C158 1.250 . S
O156 Mg157 2.028 . S
O156 C158 1.248 . S
Mg157 O156 2.028 . S
Mg157 O162 2.032 . S
Mg157 O164 2.079 . S
C158 O155 1.250 . S
C158 O156 1.248 . S
C159 O160 1.264 . S
C159 O167 1.249 . S
O160 C159 1.264 . S
O161 Mg154 1.986 . S
O161 C165 1.246 . S
O162 Mg157 2.032 . S
O162 C165 1.259 . S
O163 Mg154 2.114 . S
O163 C166 1.252 . S
O164 Mg154 2.251 . S
O164 Mg157 2.079 . S
O164 C166 1.273 . S
C165 O161 1.246 . S
C165 O162 1.259 . S
C166 O163 1.252 . S
C166 O164 1.273 . S
O167 Mg154 2.010 . S
O167 C159 1.249 . S
Mg168 O169 2.028 . S
Mg168 O175 1.986 . S
Mg168 O177 2.114 . S
Mg168 O178 2.251 . S
Mg168 O181 2.010 . S
O169 Mg168 2.028 . S
O169 C172 1.271 . S
O170 Mg171 2.028 . S
O170 C172 1.259 . S
Mg171 O170 2.028 . S
Mg171 O176 2.032 . S
Mg171 O178 2.079 . S
C172 O169 1.271 . S
C172 O170 1.259 . S
C173 O174 1.264 . S
C173 O181 1.249 . S
O174 C173 1.264 . S
O175 Mg168 1.986 . S
O175 C179 1.246 . S
O176 Mg171 2.032 . S
O176 C179 1.259 . S
O177 Mg168 2.114 . S
O177 C180 1.252 . S
O178 Mg168 2.251 . S
O178 Mg171 2.079 . S
O178 C180 1.273 . S
C179 O175 1.246 . S
C179 O176 1.259 . S
C180 O177 1.252 . S
C180 O178 1.273 . S
O181 Mg168 2.010 . S
O181 C173 1.249 . S
Mg182 O183 2.028 1_556 S
Mg182 O189 1.986 . S
Mg182 O191 2.114 1_556 S
Mg182 O192 2.251 . S
Mg182 O195 2.010 . S
O183 Mg182 2.028 1_554 S
O183 C186 1.250 . S
O184 Mg185 2.028 . S
O184 C186 1.248 . S
Mg185 O184 2.028 . S
Mg185 O190 2.032 1_554 S
Mg185 O192 2.079 1_554 S
C186 O183 1.250 . S
C186 O184 1.248 . S
C187 O188 1.264 . S
C187 O195 1.249 . S
O188 C187 1.264 . S
O189 Mg182 1.986 . S
O189 C193 1.246 . S
O190 Mg185 2.032 1_556 S
O190 C193 1.259 . S
O191 Mg182 2.114 1_554 S
O191 C194 1.252 . S
O192 Mg182 2.251 . S
O192 Mg185 2.079 1_556 S
O192 C194 1.273 1_556 S
C193 O189 1.246 . S
C193 O190 1.259 . S
C194 O191 1.252 . S
C194 O192 1.273 1_554 S
O195 Mg182 2.010 . S
O195 C187 1.249 . S
Mg196 O197 2.028 . S
Mg196 O203 1.986 . S
Mg196 O205 2.114 . S
Mg196 O206 2.251 . S
Mg196 O209 2.010 . S
O197 Mg196 2.028 . S
O197 C200 1.250 . S
O198 Mg199 2.028 . S
O198 C200 1.248 . S
Mg199 O198 2.028 . S
Mg199 O204 2.032 . S
Mg199 O206 2.079 . S
C200 O197 1.250 . S
C200 O198 1.248 . S
C201 O202 1.264 . S
C201 O209 1.249 . S
O202 C201 1.264 . S
O203 Mg196 1.986 . S
O203 C207 1.246 . S
O204 Mg199 2.032 . S
O204 C207 1.259 . S
O205 Mg196 2.114 . S
O205 C208 1.252 . S
O206 Mg196 2.251 . S
O206 Mg199 2.079 . S
O206 C208 1.273 . S
C207 O203 1.246 . S
C207 O204 1.259 . S
C208 O205 1.252 . S
C208 O206 1.273 . S
O209 Mg196 2.010 . S
O209 C201 1.249 . S
Mg210 O211 2.028 . S
Mg210 O217 1.986 . S
Mg210 O219 2.114 . S
Mg210 O220 2.251 . S
Mg210 O223 2.010 . S
O211 Mg210 2.028 . S
O211 C214 1.250 . S
O212 Mg213 2.028 . S
O212 C214 1.248 . S
Mg213 O212 2.028 . S
Mg213 O218 2.032 . S
Mg213 O220 2.079 . S
C214 O211 1.250 . S
C214 O212 1.248 . S
C215 O216 1.264 . S
C215 O223 1.249 . S
O216 C215 1.264 . S
O217 Mg210 1.986 . S
O217 C221 1.246 . S
O218 Mg213 2.032 . S
O218 C221 1.259 . S
O219 Mg210 2.114 . S
O219 C222 1.252 . S
O220 Mg210 2.251 . S
O220 Mg213 2.079 . S
O220 C222 1.273 . S
C221 O217 1.246 . S
C221 O218 1.259 . S
C222 O219 1.252 . S
C222 O220 1.273 . S
O223 Mg210 2.010 . S
O223 C215 1.249 . S
Mg224 O225 2.028 1_545 S
Mg224 O231 1.986 . S
Mg224 O233 2.114 . S
Mg224 O234 2.251 . S
Mg224 O237 2.010 . S
O225 Mg224 2.028 1_565 S
O225 C228 1.250 . S
O226 Mg227 2.028 1_565 S
O226 C228 1.248 . S
Mg227 O226 2.028 1_545 S
Mg227 O232 2.032 . S
Mg227 O234 2.079 . S
C228 O225 1.250 . S
C228 O226 1.248 . S
C229 O230 1.264 . S
C229 O237 1.249 . S
O230 C229 1.264 . S
O231 Mg224 1.986 . S
O231 C235 1.246 . S
O232 Mg227 2.032 . S
O232 C235 1.259 . S
O233 Mg224 2.114 . S
O233 C236 1.252 . S
O234 Mg224 2.251 . S
O234 Mg227 2.079 . S
O234 C236 1.273 . S
C235 O231 1.246 . S
C235 O232 1.259 . S
C236 O233 1.252 . S
C236 O234 1.273 . S
O237 Mg224 2.010 . S
O237 C229 1.249 . S
Mg238 O239 2.028 . S
Mg238 O245 1.986 . S
Mg238 O247 2.114 . S
Mg238 O248 2.251 . S
Mg238 O251 2.010 . S
O239 Mg238 2.028 . S
O239 C242 1.250 . S
O240 Mg241 2.028 . S
O240 C242 1.248 . S
Mg241 O240 2.028 . S
Mg241 O246 2.032 . S
Mg241 O248 2.079 . S
C242 O239 1.250 . S
C242 O240 1.248 . S
C243 O244 1.264 . S
C243 O251 1.249 . S
O244 C243 1.264 . S
O245 Mg238 1.986 . S
O245 C249 1.246 . S
O246 Mg241 2.032 . S
O246 C249 1.259 . S
O247 Mg238 2.114 . S
O247 C250 1.252 . S
O248 Mg238 2.251 . S
O248 Mg241 2.079 . S
O248 C250 1.273 . S
C249 O245 1.246 . S
C249 O246 1.259 . S
C250 O247 1.252 . S
C250 O248 1.273 . S
O251 Mg238 2.010 . S
O251 C243 1.249 . S
Mg252 O253 2.028 . S
Mg252 O259 1.986 . S
Mg252 O261 2.114 . S
Mg252 O262 2.251 . S
Mg252 O265 2.010 . S
O253 Mg252 2.028 . S
O253 C256 1.250 . S
O254 Mg255 2.028 . S
O254 C256 1.248 . S
Mg255 O254 2.028 . S
Mg255 O260 2.032 . S
Mg255 O262 2.079 . S
C256 O253 1.250 . S
C256 O254 1.248 . S
C257 O258 1.264 . S
C257 O265 1.249 . S
O258 C257 1.264 . S
O259 Mg252 1.986 . S
O259 C263 1.246 . S
O260 Mg255 2.032 . S
O260 C263 1.259 . S
O261 Mg252 2.114 . S
O261 C264 1.252 . S
O262 Mg252 2.251 . S
O262 Mg255 2.079 . S
O262 C264 1.273 . S
C263 O259 1.246 . S
C263 O260 1.259 . S
C264 O261 1.252 . S
C264 O262 1.273 . S
O265 Mg252 2.010 . S
O265 C257 1.249 . S
Mg266 O267 2.028 1_565 S
Mg266 O273 1.986 . S
Mg266 O275 2.114 1_565 S
Mg266 O276 2.251 . S
Mg266 O279 2.010 . S
O267 Mg266 2.028 1_545 S
O267 C270 1.250 . S
O268 Mg269 2.028 . S
O268 C270 1.248 . S
Mg269 O268 2.028 . S
Mg269 O274 2.032 1_545 S
Mg269 O276 2.079 1_545 S
C270 O267 1.250 . S
C270 O268 1.248 . S
C271 O272 1.264 . S
C271 O279 1.249 . S
O272 C271 1.264 . S
O273 Mg266 1.986 . S
O273 C277 1.246 . S
O274 Mg269 2.032 1_565 S
O274 C277 1.259 . S
O275 Mg266 2.114 1_545 S
O275 C278 1.265 . S
O276 Mg266 2.251 . S
O276 Mg269 2.079 1_565 S
O276 C278 1.257 1_565 S
C277 O273 1.246 . S
C277 O274 1.259 . S
C278 O275 1.265 . S
C278 O276 1.257 1_545 S
O279 Mg266 2.010 . S
O279 C271 1.249 . S
Mg280 O281 2.028 . S
Mg280 O287 1.986 1_554 S
Mg280 O289 2.114 . S
Mg280 O290 2.251 . S
Mg280 O293 2.010 . S
O281 Mg280 2.028 . S
O281 C284 1.250 . S
O282 Mg283 2.028 . S
O282 C284 1.248 . S
Mg283 O282 2.028 . S
Mg283 O288 2.032 . S
Mg283 O290 2.079 . S
C284 O281 1.250 . S
C284 O282 1.248 . S
C285 O286 1.244 1_554 S
C285 O293 1.249 . S
O286 C285 1.244 1_556 S
O287 Mg280 1.986 1_556 S
O287 C291 1.246 . S
O288 Mg283 2.032 . S
O288 C291 1.259 1_554 S
O289 Mg280 2.114 . S
O289 C292 1.252 . S
O290 Mg280 2.251 . S
O290 Mg283 2.079 . S
O290 C292 1.273 . S
C291 O287 1.246 . S
C291 O288 1.259 1_556 S
C292 O289 1.252 . S
C292 O290 1.273 . S
O293 Mg280 2.010 . S
O293 C285 1.249 . S
Mg294 O295 2.028 . S
Mg294 O301 1.986 . S
Mg294 O303 2.137 . S
Mg294 O304 2.251 . S
Mg294 O307 2.010 . S
O295 Mg294 2.028 . S
O295 C298 1.250 . S
O296 Mg297 2.028 . S
O296 C298 1.248 . S
Mg297 O296 2.028 . S
Mg297 O302 2.032 . S
Mg297 O304 2.079 . S
C298 O295 1.250 . S
C298 O296 1.248 . S
C299 O300 1.274 . S
C299 O307 1.239 1_455 S
O300 C299 1.274 . S
O301 Mg294 1.986 . S
O301 C305 1.246 . S
O302 Mg297 2.032 . S
O302 C305 1.259 . S
O303 Mg294 2.137 . S
O303 C306 1.271 . S
O304 Mg294 2.251 . S
O304 Mg297 2.079 . S
O304 C306 1.273 . S
C305 O301 1.246 . S
C305 O302 1.259 . S
C306 O303 1.271 . S
C306 O304 1.273 . S
O307 Mg294 2.010 . S
O307 C299 1.239 1_655 S
Mg308 O309 2.028 . S
Mg308 O315 1.986 . S
Mg308 O317 2.114 . S
Mg308 O318 2.251 . S
Mg308 O321 2.010 . S
O309 Mg308 2.028 . S
O309 C312 1.250 . S
O310 Mg311 2.028 . S
O310 C312 1.248 . S
Mg311 O310 2.028 . S
Mg311 O316 2.032 . S
Mg311 O318 2.079 . S
C312 O309 1.250 . S
C312 O310 1.248 . S
C313 O314 1.264 . S
C313 O321 1.249 . S
O314 C313 1.264 . S
O315 Mg308 1.986 . S
O315 C319 1.246 . S
O316 Mg311 2.032 . S
O316 C319 1.259 . S
O317 Mg308 2.114 . S
O317 C320 1.252 . S
O318 Mg308 2.251 . S
O318 Mg311 2.079 . S
O318 C320 1.273 . S
C319 O315 1.246 . S
C319 O316 1.259 . S
C320 O317 1.252 . S
C320 O318 1.273 . S
O321 Mg308 2.010 . S
O321 C313 1.249 . S
Mg322 O323 2.028 . S
Mg322 O329 1.986 . S
Mg322 O331 2.114 . S
Mg322 O332 2.251 . S
Mg322 O335 2.010 . S
O323 Mg322 2.028 . S
O323 C326 1.250 . S
O324 Mg325 2.028 . S
O324 C326 1.248 . S
Mg325 O324 2.028 . S
Mg325 O330 2.032 . S
Mg325 O332 2.079 . S
C326 O323 1.250 . S
C326 O324 1.248 . S
C327 O328 1.264 . S
C327 O335 1.249 . S
O328 C327 1.264 . S
O329 Mg322 1.986 . S
O329 C333 1.246 . S
O330 Mg325 2.032 . S
O330 C333 1.259 . S
O331 Mg322 2.114 . S
O331 C334 1.252 . S
O332 Mg322 2.251 . S
O332 Mg325 2.079 . S
O332 C334 1.273 . S
C333 O329 1.246 . S
C333 O330 1.259 . S
C334 O331 1.252 . S
C334 O332 1.273 . S
O335 Mg322 2.010 . S
O335 C327 1.249 . S
Tb336 C346 2.825 1_454 S
Tb336 O347 2.347 . S
Tb336 O350 2.366 . S
Tb336 O355 2.418 1_554 S
Tb336 O356 2.384 1_545 S
Tb336 O359 2.479 1_454 S
Tb336 O360 2.471 1_455 S
Eu337 O348 2.418 . S
Eu337 O349 2.384 . S
Eu337 O352 2.479 . S
Eu337 O353 2.471 . S
Eu337 O354 2.347 . S
Eu337 O357 2.366 . S
Eu337 C367 2.825 . S
C338 O354 1.259 1_556 S
C338 O355 1.265 . S
C339 O356 1.255 . S
C339 O357 1.265 1_565 S
C340 C342 1.380 . S
C340 C343 1.355 1_556 S
C340 C346 1.507 . S
C341 C342 1.384 . S
C341 C345 1.387 . S
C341 H368 0.930 . S
C342 C340 1.380 . S
C342 C341 1.384 . S
C342 H369 0.931 . S
C343 C340 1.355 1_554 S
C343 C344 1.384 1_554 S
C343 H370 0.956 . S
C344 C343 1.384 1_556 S
C344 C345 1.391 . S
C344 H371 0.930 1_556 S
C345 C341 1.387 . S
C345 C344 1.391 . S
C346 Tb336 2.825 1_656 S
C346 C340 1.507 . S
C346 O359 1.238 . S
C346 O360 1.247 1_556 S
O347 Tb336 2.347 . S
O347 C351 1.259 . S
O348 Eu337 2.418 . S
O348 C351 1.265 . S
O349 Eu337 2.384 . S
O349 C358 1.255 . S
O350 Tb336 2.366 . S
O350 C358 1.265 . S
C351 O347 1.259 . S
C351 O348 1.265 . S
O352 Eu337 2.479 . S
O352 C367 1.238 . S
O353 Eu337 2.471 . S
O353 C367 1.247 . S
O354 Eu337 2.347 . S
O354 C338 1.259 1_554 S
O355 Tb336 2.418 1_556 S
O355 C338 1.265 . S
O356 Tb336 2.384 1_565 S
O356 C339 1.255 . S
O357 Eu337 2.366 . S
O357 C339 1.265 1_545 S
C358 O349 1.255 . S
C358 O350 1.265 . S
O359 Tb336 2.479 1_656 S
O359 C346 1.238 . S
O360 Tb336 2.471 1_655 S
O360 C346 1.247 1_554 S
C361 C364 1.380 . S
C361 C365 1.376 . S
C361 C367 1.507 . S
C362 C363 1.387 1_565 S
C362 C366 1.391 . S
C363 C362 1.387 1_545 S
C363 C364 1.384 . S
C363 H372 0.930 . S
C364 C361 1.380 . S
C364 C363 1.384 . S
C364 H373 0.931 . S
C365 C361 1.376 . S
C365 C366 1.388 1_545 S
C365 H374 0.930 1_545 S
C366 C362 1.391 . S
C366 C365 1.388 1_565 S
C366 H375 0.930 . S
C367 Eu337 2.825 . S
C367 O352 1.238 . S
C367 O353 1.247 . S
C367 C361 1.507 . S
H368 C341 0.930 . S
H369 C342 0.931 . S
H370 C343 0.956 . S
H371 C344 0.930 1_554 S
H372 C363 0.930 . S
H373 C364 0.931 . S
H374 C365 0.930 1_565 S
H375 C366 0.930 . S
Tb376 C386 2.825 . S
Tb376 O387 2.347 . S
Tb376 O390 2.366 . S
Tb376 O395 2.418 . S
Tb376 O396 2.384 . S
Tb376 O399 2.479 . S
Tb376 O400 2.471 . S
Eu377 O388 2.418 . S
Eu377 O389 2.384 . S
Eu377 O392 2.479 . S
Eu377 O393 2.471 . S
Eu377 O394 2.347 . S
Eu377 O397 2.366 . S
Eu377 C407 2.825 . S
C378 O394 1.259 . S
C378 O395 1.265 . S
C379 O396 1.255 . S
C379 O397 1.265 . S
C380 C382 1.380 . S
C380 C383 1.374 . S
C380 C386 1.507 . S
C381 C382 1.384 . S
C381 C385 1.387 . S
C381 H408 0.930 . S
C382 C380 1.380 . S
C382 C381 1.384 . S
C382 H409 0.931 . S
C383 C380 1.374 . S
C383 C384 1.390 . S
C383 H410 0.930 . S
C384 C383 1.390 . S
C384 C385 1.391 . S
C384 H411 0.930 . S
C385 C381 1.387 . S
C385 C384 1.391 . S
C386 Tb376 2.825 . S
C386 C380 1.507 . S
C386 O399 1.238 . S
C386 O400 1.247 . S
O387 Tb376 2.347 . S
O387 C391 1.259 . S
O388 Eu377 2.418 . S
O388 C391 1.265 . S
O389 Eu377 2.384 . S
O389 C398 1.255 . S
O390 Tb376 2.366 . S
O390 C398 1.265 . S
C391 O387 1.259 . S
C391 O388 1.265 . S
O392 Eu377 2.479 . S
O392 C407 1.238 . S
O393 Eu377 2.471 . S
O393 C407 1.247 . S
O394 Eu377 2.347 . S
O394 C378 1.259 . S
O395 Tb376 2.418 . S
O395 C378 1.265 . S
O396 Tb376 2.384 . S
O396 C379 1.255 . S
O397 Eu377 2.366 . S
O397 C379 1.265 . S
C398 O389 1.255 . S
C398 O390 1.265 . S
O399 Tb376 2.479 . S
O399 C386 1.238 . S
O400 Tb376 2.471 . S
O400 C386 1.247 . S
C401 C404 1.380 . S
C401 C405 1.374 . S
C401 C407 1.507 . S
C402 C403 1.387 . S
C402 C406 1.391 . S
C403 C402 1.387 . S
C403 C404 1.384 . S
C403 H412 0.930 . S
C404 C401 1.380 . S
C404 C403 1.384 . S
C404 H413 0.931 . S
C405 C401 1.374 . S
C405 C406 1.390 . S
C405 H414 0.930 . S
C406 C402 1.391 . S
C406 C405 1.390 . S
C406 H415 0.930 . S
C407 Eu377 2.825 . S
C407 O392 1.238 . S
C407 O393 1.247 . S
C407 C401 1.507 . S
H408 C381 0.930 . S
H409 C382 0.931 . S
H410 C383 0.930 . S
H411 C384 0.930 . S
H412 C403 0.930 . S
H413 C404 0.931 . S
H414 C405 0.930 . S
H415 C406 0.930 . S
Tb416 C426 2.825 1_545 S
Tb416 O427 2.347 . S
Tb416 O430 2.374 . S
Tb416 O435 2.418 . S
Tb416 O436 2.384 . S
Tb416 O439 2.479 1_545 S
Tb416 O440 2.471 1_545 S
Eu417 O428 2.418 . S
Eu417 O429 2.384 . S
Eu417 O432 2.479 . S
Eu417 O433 2.471 . S
Eu417 O434 2.347 . S
Eu417 O437 2.366 . S
Eu417 C447 2.825 . S
C418 O434 1.259 . S
C418 O435 1.265 . S
C419 O436 1.255 . S
C419 O437 1.265 . S
C420 C422 1.380 . S
C420 C423 1.374 . S
C420 C426 1.507 . S
C421 C422 1.384 . S
C421 C425 1.387 . S
C421 H448 0.930 . S
C422 C420 1.380 . S
C422 C421 1.384 . S
C422 H449 0.931 . S
C423 C420 1.374 . S
C423 C424 1.390 . S
C423 H450 0.930 . S
C424 C423 1.390 . S
C424 C425 1.391 . S
C424 H451 0.930 . S
C425 C421 1.387 . S
C425 C424 1.391 . S
C426 Tb416 2.825 1_565 S
C426 C420 1.507 . S
C426 O439 1.238 . S
C426 O440 1.247 . S
O427 Tb416 2.347 . S
O427 C431 1.259 . S
O428 Eu417 2.418 . S
O428 C431 1.265 . S
O429 Eu417 2.384 . S
O429 C438 1.255 . S
O430 Tb416 2.374 . S
O430 C438 1.279 . S
C431 O427 1.259 . S
C431 O428 1.265 . S
O432 Eu417 2.479 . S
O432 C447 1.238 . S
O433 Eu417 2.471 . S
O433 C447 1.247 . S
O434 Eu417 2.347 . S
O434 C418 1.259 . S
O435 Tb416 2.418 . S
O435 C418 1.265 . S
O436 Tb416 2.384 . S
O436 C419 1.255 . S
O437 Eu417 2.366 . S
O437 C419 1.265 . S
C438 O429 1.255 . S
C438 O430 1.279 . S
O439 Tb416 2.479 1_565 S
O439 C426 1.238 . S
O440 Tb416 2.471 1_565 S
O440 C426 1.247 . S
C441 C444 1.380 . S
C441 C445 1.374 . S
C441 C447 1.507 . S
C442 C443 1.387 . S
C442 C446 1.391 . S
C443 C442 1.387 . S
C443 C444 1.384 . S
C443 H452 0.930 . S
C444 C441 1.380 . S
C444 C443 1.384 . S
C444 H453 0.931 . S
C445 C441 1.374 . S
C445 C446 1.390 . S
C445 H454 0.930 . S
C446 C442 1.391 . S
C446 C445 1.390 . S
C446 H455 0.930 . S
C447 Eu417 2.825 . S
C447 O432 1.238 . S
C447 O433 1.247 . S
C447 C441 1.507 . S
H448 C421 0.930 . S
H449 C422 0.931 . S
H450 C423 0.930 . S
H451 C424 0.930 . S
H452 C443 0.930 . S
H453 C444 0.931 . S
H454 C445 0.930 . S
H455 C446 0.930 . S
Tb456 C466 2.825 . S
Tb456 O467 2.347 . S
Tb456 O470 2.366 . S
Tb456 O475 2.418 . S
Tb456 O476 2.384 . S
Tb456 O479 2.479 . S
Tb456 O480 2.471 . S
Eu457 O468 2.418 . S
Eu457 O469 2.384 . S
Eu457 O472 2.479 . S
Eu457 O473 2.471 . S
Eu457 O474 2.347 . S
Eu457 O477 2.366 . S
Eu457 C487 2.825 . S
C458 O474 1.259 . S
C458 O475 1.265 . S
C459 O476 1.255 . S
C459 O477 1.265 . S
C460 C462 1.380 . S
C460 C463 1.374 . S
C460 C466 1.507 . S
C461 C462 1.384 . S
C461 C465 1.387 . S
C461 H488 0.930 . S
C462 C460 1.380 . S
C462 C461 1.384 . S
C462 H489 0.931 . S
C463 C460 1.374 . S
C463 C464 1.390 . S
C463 H490 0.930 . S
C464 C463 1.390 . S
C464 C465 1.391 . S
C464 H491 0.930 . S
C465 C461 1.387 . S
C465 C464 1.391 . S
C466 Tb456 2.825 . S
C466 C460 1.507 . S
C466 O479 1.238 . S
C466 O480 1.247 . S
O467 Tb456 2.347 . S
O467 C471 1.259 . S
O468 Eu457 2.418 . S
O468 C471 1.265 . S
O469 Eu457 2.384 . S
O469 C478 1.255 . S
O470 Tb456 2.366 . S
O470 C478 1.265 . S
C471 O467 1.259 . S
C471 O468 1.265 . S
O472 Eu457 2.479 . S
O472 C487 1.238 . S
O473 Eu457 2.471 . S
O473 C487 1.247 . S
O474 Eu457 2.347 . S
O474 C458 1.259 . S
O475 Tb456 2.418 . S
O475 C458 1.265 . S
O476 Tb456 2.384 . S
O476 C459 1.255 . S
O477 Eu457 2.366 . S
O477 C459 1.265 . S
C478 O469 1.255 . S
C478 O470 1.265 . S
O479 Tb456 2.479 . S
O479 C466 1.238 . S
O480 Tb456 2.471 . S
O480 C466 1.247 . S
C481 C484 1.380 . S
C481 C485 1.374 . S
C481 C487 1.507 . S
C482 C483 1.387 . S
C482 C486 1.391 . S
C483 C482 1.387 . S
C483 C484 1.384 . S
C483 H492 0.930 . S
C484 C481 1.380 . S
C484 C483 1.384 . S
C484 H493 0.931 . S
C485 C481 1.374 . S
C485 C486 1.390 . S
C485 H494 0.930 . S
C486 C482 1.391 . S
C486 C485 1.390 . S
C486 H495 0.930 . S
C487 Eu457 2.825 . S
C487 O472 1.238 . S
C487 O473 1.247 . S
C487 C481 1.507 . S
H488 C461 0.930 . S
H489 C462 0.931 . S
H490 C463 0.930 . S
H491 C464 0.930 . S
H492 C483 0.930 . S
H493 C484 0.931 . S
H494 C485 0.930 . S
H495 C486 0.930 . S
Tb496 C506 2.825 . S
Tb496 O507 2.347 . S
Tb496 O510 2.366 . S
Tb496 O515 2.418 . S
Tb496 O516 2.384 1_545 S
Tb496 O519 2.479 . S
Tb496 O520 2.471 . S
Eu497 O508 2.418 . S
Eu497 O509 2.384 . S
Eu497 O512 2.479 . S
Eu497 O513 2.471 . S
Eu497 O514 2.347 . S
Eu497 O517 2.366 . S
Eu497 C527 2.825 . S
C498 O514 1.259 . S
C498 O515 1.265 . S
C499 O516 1.255 . S
C499 O517 1.265 1_565 S
C500 C502 1.380 . S
C500 C503 1.374 1_455 S
C500 C506 1.507 . S
C501 C502 1.384 . S
C501 C505 1.387 1_455 S
C501 H528 0.930 . S
C502 C500 1.380 . S
C502 C501 1.384 . S
C502 H529 0.931 . S
C503 C500 1.374 1_655 S
C503 C504 1.390 . S
C503 H530 0.930 . S
C504 C503 1.390 . S
C504 C505 1.391 . S
C504 H531 0.930 . S
C505 C501 1.387 1_655 S
C505 C504 1.391 . S
C506 Tb496 2.825 . S
C506 C500 1.507 . S
C506 O519 1.238 . S
C506 O520 1.247 . S
O507 Tb496 2.347 . S
O507 C511 1.259 1_455 S
O508 Eu497 2.418 . S
O508 C511 1.265 1_455 S
O509 Eu497 2.384 . S
O509 C518 1.255 . S
O510 Tb496 2.366 . S
O510 C518 1.265 . S
C511 O507 1.259 1_655 S
C511 O508 1.265 1_655 S
O512 Eu497 2.479 . S
O512 C527 1.238 . S
O513 Eu497 2.471 . S
O513 C527 1.247 . S
O514 Eu497 2.347 . S
O514 C498 1.259 . S
O515 Tb496 2.418 . S
O515 C498 1.265 . S
O516 Tb496 2.384 1_565 S
O516 C499 1.255 . S
O517 Eu497 2.366 . S
O517 C499 1.265 1_545 S
C518 O509 1.255 . S
C518 O510 1.265 . S
O519 Tb496 2.479 . S
O519 C506 1.238 . S
O520 Tb496 2.471 . S
O520 C506 1.247 . S
C521 C524 1.380 . S
C521 C525 1.374 . S
C521 C527 1.507 . S
C522 C523 1.387 . S
C522 C526 1.391 . S
C523 C522 1.387 . S
C523 C524 1.384 . S
C523 H532 0.930 . S
C524 C521 1.380 . S
C524 C523 1.384 . S
C524 H533 0.931 . S
C525 C521 1.374 . S
C525 C526 1.390 . S
C525 H534 0.930 . S
C526 C522 1.391 . S
C526 C525 1.390 . S
C526 H535 0.930 . S
C527 Eu497 2.825 . S
C527 O512 1.238 . S
C527 O513 1.247 . S
C527 C521 1.507 . S
H528 C501 0.930 . S
H529 C502 0.931 . S
H530 C503 0.930 . S
H531 C504 0.930 . S
H532 C523 0.930 . S
H533 C524 0.931 . S
H534 C525 0.930 . S
H535 C526 0.930 . S
Tb536 C546 2.825 . S
Tb536 O547 2.347 . S
Tb536 O550 2.366 . S
Tb536 O555 2.418 . S
Tb536 O556 2.384 . S
Tb536 O559 2.479 . S
Tb536 O560 2.471 . S
Eu537 O548 2.418 . S
Eu537 O549 2.384 . S
Eu537 O552 2.479 . S
Eu537 O553 2.471 . S
Eu537 O554 2.347 . S
Eu537 O557 2.366 . S
Eu537 C567 2.825 . S
C538 O554 1.259 . S
C538 O555 1.265 . S
C539 O556 1.255 . S
C539 O557 1.265 . S
C540 C542 1.380 . S
C540 C543 1.374 . S
C540 C546 1.507 . S
C541 C542 1.384 . S
C541 C545 1.387 . S
C541 H568 0.930 . S
C542 C540 1.380 . S
C542 C541 1.384 . S
C542 H569 0.931 . S
C543 C540 1.374 . S
C543 C544 1.390 . S
C543 H570 0.930 . S
C544 C543 1.390 . S
C544 C545 1.391 . S
C544 H571 0.930 . S
C545 C541 1.387 . S
C545 C544 1.391 . S
C546 Tb536 2.825 . S
C546 C540 1.507 . S
C546 O559 1.238 . S
C546 O560 1.247 . S
O547 Tb536 2.347 . S
O547 C551 1.259 . S
O548 Eu537 2.418 . S
O548 C551 1.265 . S
O549 Eu537 2.384 . S
O549 C558 1.255 . S
O550 Tb536 2.366 . S
O550 C558 1.265 . S
C551 O547 1.259 . S
C551 O548 1.265 . S
O552 Eu537 2.479 . S
O552 C567 1.238 . S
O553 Eu537 2.471 . S
O553 C567 1.247 . S
O554 Eu537 2.347 . S
O554 C538 1.259 . S
O555 Tb536 2.418 . S
O555 C538 1.265 . S
O556 Tb536 2.384 . S
O556 C539 1.255 . S
O557 Eu537 2.366 . S
O557 C539 1.265 . S
C558 O549 1.255 . S
C558 O550 1.265 . S
O559 Tb536 2.479 . S
O559 C546 1.238 . S
O560 Tb536 2.471 . S
O560 C546 1.247 . S
C561 C564 1.380 . S
C561 C565 1.374 . S
C561 C567 1.507 . S
C562 C563 1.387 . S
C562 C566 1.391 . S
C563 C562 1.387 . S
C563 C564 1.384 . S
C563 H572 0.930 . S
C564 C561 1.380 . S
C564 C563 1.384 . S
C564 H573 0.931 . S
C565 C561 1.374 . S
C565 C566 1.390 . S
C565 H574 0.930 . S
C566 C562 1.391 . S
C566 C565 1.390 . S
C566 H575 0.930 . S
C567 Eu537 2.825 . S
C567 O552 1.238 . S
C567 O553 1.247 . S
C567 C561 1.507 . S
H568 C541 0.930 . S
H569 C542 0.931 . S
H570 C543 0.930 . S
H571 C544 0.930 . S
H572 C563 0.930 . S
H573 C564 0.931 . S
H574 C565 0.930 . S
H575 C566 0.930 . S
Tb576 C586 2.825 . S
Tb576 O587 2.347 . S
Tb576 O590 2.366 . S
Tb576 O595 2.418 1_545 S
Tb576 O596 2.384 . S
Tb576 O599 2.479 . S
Tb576 O600 2.471 . S
Eu577 O588 2.418 1_556 S
Eu577 O589 2.384 1_556 S
Eu577 O592 2.479 . S
Eu577 O593 2.471 . S
Eu577 O594 2.347 1_556 S
Eu577 O597 2.366 1_556 S
Eu577 C607 2.825 . S
C578 O594 1.259 1_565 S
C578 O595 1.265 . S
C579 O596 1.255 . S
C579 O597 1.265 . S
C580 C582 1.380 1_545 S
C580 C583 1.374 . S
C580 C586 1.507 . S
C581 C582 1.384 . S
C581 C585 1.387 1_565 S
C581 H608 0.930 . S
C582 C580 1.380 1_565 S
C582 C581 1.384 . S
C582 H609 0.931 . S
C583 C580 1.374 . S
C583 C584 1.390 . S
C583 H610 0.930 . S
C584 C583 1.390 . S
C584 C585 1.391 . S
C584 H611 0.930 . S
C585 C581 1.387 1_545 S
C585 C584 1.391 . S
C586 Tb576 2.825 . S
C586 C580 1.507 . S
C586 O599 1.238 . S
C586 O600 1.247 . S
O587 Tb576 2.347 . S
O587 C591 1.259 . S
O588 Eu577 2.418 1_554 S
O588 C591 1.265 . S
O589 Eu577 2.384 1_554 S
O589 C598 1.255 . S
O590 Tb576 2.366 . S
O590 C598 1.265 . S
C591 O587 1.259 . S
C591 O588 1.265 . S
O592 Eu577 2.479 . S
O592 C607 1.238 . S
O593 Eu577 2.471 . S
O593 C607 1.247 . S
O594 Eu577 2.347 1_554 S
O594 C578 1.259 1_545 S
O595 Tb576 2.418 1_565 S
O595 C578 1.265 . S
O596 Tb576 2.384 . S
O596 C579 1.255 . S
O597 Eu577 2.366 1_554 S
O597 C579 1.265 . S
C598 O589 1.255 . S
C598 O590 1.265 . S
O599 Tb576 2.479 . S
O599 C586 1.238 . S
O600 Tb576 2.471 . S
O600 C586 1.247 . S
C601 C604 1.380 . S
C601 C605 1.374 . S
C601 C607 1.507 . S
C602 C603 1.387 . S
C602 C606 1.391 . S
C603 C602 1.387 . S
C603 C604 1.384 . S
C603 H612 0.930 . S
C604 C601 1.380 . S
C604 C603 1.384 . S
C604 H613 0.931 . S
C605 C601 1.374 . S
C605 C606 1.390 . S
C605 H614 0.930 . S
C606 C602 1.391 . S
C606 C605 1.390 . S
C606 H615 0.930 . S
C607 Eu577 2.825 . S
C607 O592 1.238 . S
C607 O593 1.247 . S
C607 C601 1.507 . S
H608 C581 0.930 . S
H609 C582 0.931 . S
H610 C583 0.930 . S
H611 C584 0.930 . S
H612 C603 0.930 . S
H613 C604 0.931 . S
H614 C605 0.930 . S
H615 C606 0.930 . S
Tb616 C626 2.825 . S
Tb616 O627 2.347 . S
Tb616 O630 2.366 . S
Tb616 O635 2.418 . S
Tb616 O636 2.384 . S
Tb616 O639 2.479 . S
Tb616 O640 2.471 . S
Eu617 O628 2.418 . S
Eu617 O629 2.384 . S
Eu617 O632 2.479 . S
Eu617 O633 2.471 . S
Eu617 O634 2.347 . S
Eu617 O637 2.366 . S
Eu617 C647 2.825 . S
C618 O634 1.259 . S
C618 O635 1.265 . S
C619 O636 1.255 . S
C619 O637 1.265 . S
C620 C622 1.380 . S
C620 C623 1.374 . S
C620 C626 1.507 . S
C621 C622 1.384 . S
C621 C625 1.387 . S
C621 H648 0.930 . S
C622 C620 1.380 . S
C622 C621 1.384 . S
C622 H649 0.931 . S
C623 C620 1.374 . S
C623 C624 1.390 . S
C623 H650 0.930 . S
C624 C623 1.390 . S
C624 C625 1.391 . S
C624 H651 0.930 . S
C625 C621 1.387 . S
C625 C624 1.391 . S
C626 Tb616 2.825 . S
C626 C620 1.507 . S
C626 O639 1.238 . S
C626 O640 1.247 . S
O627 Tb616 2.347 . S
O627 C631 1.259 . S
O628 Eu617 2.418 . S
O628 C631 1.265 . S
O629 Eu617 2.384 . S
O629 C638 1.255 . S
O630 Tb616 2.366 . S
O630 C638 1.265 . S
C631 O627 1.259 . S
C631 O628 1.265 . S
O632 Eu617 2.479 . S
O632 C647 1.238 . S
O633 Eu617 2.471 . S
O633 C647 1.247 . S
O634 Eu617 2.347 . S
O634 C618 1.259 . S
O635 Tb616 2.418 . S
O635 C618 1.265 . S
O636 Tb616 2.384 . S
O636 C619 1.255 . S
O637 Eu617 2.366 . S
O637 C619 1.265 . S
C638 O629 1.255 . S
C638 O630 1.265 . S
O639 Tb616 2.479 . S
O639 C626 1.238 . S
O640 Tb616 2.471 . S
O640 C626 1.247 . S
C641 C644 1.380 . S
C641 C645 1.374 . S
C641 C647 1.507 . S
C642 C643 1.387 . S
C642 C646 1.391 . S
C643 C642 1.387 . S
C643 C644 1.384 . S
C643 H652 0.930 . S
C644 C641 1.380 . S
C644 C643 1.384 . S
C644 H653 0.931 . S
C645 C641 1.374 . S
C645 C646 1.390 . S
C645 H654 0.930 . S
C646 C642 1.391 . S
C646 C645 1.390 . S
C646 H655 0.930 . S
C647 Eu617 2.825 . S
C647 O632 1.238 . S
C647 O633 1.247 . S
C647 C641 1.507 . S
H648 C621 0.930 . S
H649 C622 0.931 . S
H650 C623 0.930 . S
H651 C624 0.930 . S
H652 C643 0.930 . S
H653 C644 0.931 . S
H654 C645 0.930 . S
H655 C646 0.930 . S
Tb656 C666 2.825 . S
Tb656 O667 2.347 1_556 S
Tb656 O670 2.366 . S
Tb656 O675 2.418 1_556 S
Tb656 O676 2.384 1_556 S
Tb656 O679 2.479 . S
Tb656 O680 2.471 . S
Eu657 O668 2.418 . S
Eu657 O669 2.384 . S
Eu657 O672 2.479 . S
Eu657 O673 2.471 . S
Eu657 O674 2.347 . S
Eu657 O677 2.366 . S
Eu657 C687 2.825 . S
C658 O674 1.259 . S
C658 O675 1.265 . S
C659 O676 1.255 . S
C659 O677 1.265 . S
C660 C662 1.380 . S
C660 C663 1.374 . S
C660 C666 1.507 . S
C661 C662 1.384 . S
C661 C665 1.387 . S
C661 H688 0.930 . S
C662 C660 1.380 . S
C662 C661 1.384 . S
C662 H689 0.931 . S
C663 C660 1.374 . S
C663 C664 1.390 . S
C663 H690 0.930 . S
C664 C663 1.390 . S
C664 C665 1.391 . S
C664 H691 0.930 . S
C665 C661 1.387 . S
C665 C664 1.391 . S
C666 Tb656 2.825 . S
C666 C660 1.507 . S
C666 O679 1.238 . S
C666 O680 1.247 . S
O667 Tb656 2.347 1_554 S
O667 C671 1.259 . S
O668 Eu657 2.418 . S
O668 C671 1.265 . S
O669 Eu657 2.384 . S
O669 C678 1.255 . S
O670 Tb656 2.366 . S
O670 C678 1.265 1_556 S
C671 O667 1.259 . S
C671 O668 1.265 . S
O672 Eu657 2.479 . S
O672 C687 1.238 . S
O673 Eu657 2.471 . S
O673 C687 1.247 . S
O674 Eu657 2.347 . S
O674 C658 1.259 . S
O675 Tb656 2.418 1_554 S
O675 C658 1.265 . S
O676 Tb656 2.384 1_554 S
O676 C659 1.255 . S
O677 Eu657 2.366 . S
O677 C659 1.265 . S
C678 O669 1.255 . S
C678 O670 1.265 1_554 S
O679 Tb656 2.479 . S
O679 C666 1.238 . S
O680 Tb656 2.471 . S
O680 C666 1.247 . S
C681 C684 1.380 . S
C681 C685 1.374 . S
C681 C687 1.507 . S
C682 C683 1.387 . S
C682 C686 1.391 . S
C683 C682 1.387 . S
C683 C684 1.384 . S
C683 H692 0.930 . S
C684 C681 1.380 . S
C684 C683 1.384 . S
C684 H693 0.931 . S
C685 C681 1.374 . S
C685 C686 1.390 . S
C685 H694 0.930 . S
C686 C682 1.391 . S
C686 C685 1.390 . S
C686 H695 0.930 . S
C687 Eu657 2.825 . S
C687 O672 1.238 . S
C687 O673 1.247 . S
C687 C681 1.507 . S
H688 C661 0.930 . S
H689 C662 0.931 . S
H690 C663 0.930 . S
H691 C664 0.930 . S
H692 C683 0.930 . S
H693 C684 0.931 . S
H694 C685 0.930 . S
H695 C686 0.930 . S
Tb696 C706 2.825 . S
Tb696 O707 2.347 . S
Tb696 O710 2.366 . S
Tb696 O715 2.418 . S
Tb696 O716 2.384 . S
Tb696 O719 2.479 . S
Tb696 O720 2.471 . S
Eu697 O708 2.418 . S
Eu697 O709 2.384 . S
Eu697 O712 2.479 . S
Eu697 O713 2.471 . S
Eu697 O714 2.347 . S
Eu697 O717 2.366 . S
Eu697 C727 2.825 . S
C698 O714 1.259 . S
C698 O715 1.265 . S
C699 O716 1.255 . S
C699 O717 1.265 . S
C700 C702 1.380 . S
C700 C703 1.374 . S
C700 C706 1.507 . S
C701 C702 1.384 . S
C701 C705 1.387 . S
C701 H728 0.930 . S
C702 C700 1.380 . S
C702 C701 1.384 . S
C702 H729 0.931 . S
C703 C700 1.374 . S
C703 C704 1.390 . S
C703 H730 0.930 . S
C704 C703 1.390 . S
C704 C705 1.391 . S
C704 H731 0.930 . S
C705 C701 1.387 . S
C705 C704 1.391 . S
C706 Tb696 2.825 . S
C706 C700 1.507 . S
C706 O719 1.238 . S
C706 O720 1.247 . S
O707 Tb696 2.347 . S
O707 C711 1.259 . S
O708 Eu697 2.418 . S
O708 C711 1.265 . S
O709 Eu697 2.384 . S
O709 C718 1.255 . S
O710 Tb696 2.366 . S
O710 C718 1.265 . S
C711 O707 1.259 . S
C711 O708 1.265 . S
O712 Eu697 2.479 . S
O712 C727 1.238 . S
O713 Eu697 2.471 . S
O713 C727 1.247 . S
O714 Eu697 2.347 . S
O714 C698 1.259 . S
O715 Tb696 2.418 . S
O715 C698 1.265 . S
O716 Tb696 2.384 . S
O716 C699 1.255 . S
O717 Eu697 2.366 . S
O717 C699 1.265 . S
C718 O709 1.255 . S
C718 O710 1.265 . S
O719 Tb696 2.479 . S
O719 C706 1.238 . S
O720 Tb696 2.471 . S
O720 C706 1.247 . S
C721 C724 1.380 . S
C721 C725 1.374 . S
C721 C727 1.507 . S
C722 C723 1.387 . S
C722 C726 1.391 . S
C723 C722 1.387 . S
C723 C724 1.384 . S
C723 H732 0.930 . S
C724 C721 1.380 . S
C724 C723 1.384 . S
C724 H733 0.931 . S
C725 C721 1.374 . S
C725 C726 1.390 . S
C725 H734 0.930 . S
C726 C722 1.391 . S
C726 C725 1.390 . S
C726 H735 0.930 . S
C727 Eu697 2.825 . S
C727 O712 1.238 . S
C727 O713 1.247 . S
C727 C721 1.507 . S
H728 C701 0.930 . S
H729 C702 0.931 . S
H730 C703 0.930 . S
H731 C704 0.930 . S
H732 C723 0.930 . S
H733 C724 0.931 . S
H734 C725 0.930 . S
H735 C726 0.930 . S
Tb736 C746 2.825 . S
Tb736 O747 2.347 . S
Tb736 O750 2.366 . S
Tb736 O755 2.418 . S
Tb736 O756 2.384 . S
Tb736 O759 2.479 . S
Tb736 O760 2.471 . S
Eu737 O748 2.418 . S
Eu737 O749 2.384 . S
Eu737 O752 2.479 . S
Eu737 O753 2.471 . S
Eu737 O754 2.347 . S
Eu737 O757 2.366 . S
Eu737 C767 2.825 . S
C738 O754 1.259 . S
C738 O755 1.265 . S
C739 O756 1.255 . S
C739 O757 1.265 . S
C740 C742 1.380 . S
C740 C743 1.374 . S
C740 C746 1.507 . S
C741 C742 1.384 . S
C741 C745 1.387 . S
C741 H768 0.930 . S
C742 C740 1.380 . S
C742 C741 1.384 . S
C742 H769 0.931 . S
C743 C740 1.374 . S
C743 C744 1.390 . S
C743 H770 0.930 . S
C744 C743 1.390 . S
C744 C745 1.391 . S
C744 H771 0.884 1_455 S
C745 C741 1.387 . S
C745 C744 1.391 . S
C746 Tb736 2.825 . S
C746 C740 1.507 . S
C746 O759 1.238 . S
C746 O760 1.247 . S
O747 Tb736 2.347 . S
O747 C751 1.259 . S
O748 Eu737 2.418 . S
O748 C751 1.265 . S
O749 Eu737 2.384 . S
O749 C758 1.255 . S
O750 Tb736 2.366 . S
O750 C758 1.265 . S
C751 O747 1.259 . S
C751 O748 1.265 . S
O752 Eu737 2.479 . S
O752 C767 1.238 . S
O753 Eu737 2.471 . S
O753 C767 1.247 . S
O754 Eu737 2.347 . S
O754 C738 1.259 . S
O755 Tb736 2.418 . S
O755 C738 1.265 . S
O756 Tb736 2.384 . S
O756 C739 1.255 . S
O757 Eu737 2.366 . S
O757 C739 1.265 . S
C758 O749 1.255 . S
C758 O750 1.265 . S
O759 Tb736 2.479 . S
O759 C746 1.238 . S
O760 Tb736 2.471 . S
O760 C746 1.247 . S
C761 C764 1.380 . S
C761 C765 1.374 . S
C761 C767 1.507 . S
C762 C763 1.387 . S
C762 C766 1.391 . S
C763 C762 1.387 . S
C763 C764 1.384 . S
C763 H772 0.930 . S
C764 C761 1.380 . S
C764 C763 1.384 . S
C764 H773 0.931 . S
C765 C761 1.374 . S
C765 C766 1.390 . S
C765 H774 0.930 . S
C766 C762 1.391 . S
C766 C765 1.390 . S
C766 H775 0.930 . S
C767 Eu737 2.825 . S
C767 O752 1.238 . S
C767 O753 1.247 . S
C767 C761 1.507 . S
H768 C741 0.930 . S
H769 C742 0.931 . S
H770 C743 0.930 . S
H771 C744 0.884 1_655 S
H772 C763 0.930 . S
H773 C764 0.931 . S
H774 C765 0.930 . S
H775 C766 0.930 . S
Tb776 C786 2.825 . S
Tb776 O787 2.347 . S
Tb776 O790 2.366 . S
Tb776 O795 2.418 . S
Tb776 O796 2.384 . S
Tb776 O799 2.479 . S
Tb776 O800 2.471 . S
Eu777 O788 2.418 . S
Eu777 O789 2.384 . S
Eu777 O792 2.479 . S
Eu777 O793 2.471 . S
Eu777 O794 2.347 . S
Eu777 O797 2.366 . S
Eu777 C807 2.825 . S
C778 O794 1.259 . S
C778 O795 1.265 . S
C779 O796 1.255 . S
C779 O797 1.265 . S
C780 C782 1.380 . S
C780 C783 1.374 . S
C780 C786 1.507 . S
C781 C782 1.384 . S
C781 C785 1.387 . S
C781 H808 0.930 . S
C782 C780 1.380 . S
C782 C781 1.384 . S
C782 H809 0.931 . S
C783 C780 1.374 . S
C783 C784 1.390 . S
C783 H810 0.930 . S
C784 C783 1.390 . S
C784 C785 1.391 . S
C784 H811 0.930 . S
C785 C781 1.387 . S
C785 C784 1.391 . S
C786 Tb776 2.825 . S
C786 C780 1.507 . S
C786 O799 1.238 . S
C786 O800 1.247 . S
O787 Tb776 2.347 . S
O787 C791 1.259 . S
O788 Eu777 2.418 . S
O788 C791 1.265 . S
O789 Eu777 2.384 . S
O789 C798 1.255 . S
O790 Tb776 2.366 . S
O790 C798 1.265 . S
C791 O787 1.259 . S
C791 O788 1.265 . S
O792 Eu777 2.479 . S
O792 C807 1.238 . S
O793 Eu777 2.471 . S
O793 C807 1.247 . S
O794 Eu777 2.347 . S
O794 C778 1.259 . S
O795 Tb776 2.418 . S
O795 C778 1.265 . S
O796 Tb776 2.384 . S
O796 C779 1.255 . S
O797 Eu777 2.366 . S
O797 C779 1.265 . S
C798 O789 1.255 . S
C798 O790 1.265 . S
O799 Tb776 2.479 . S
O799 C786 1.238 . S
O800 Tb776 2.471 . S
O800 C786 1.247 . S
C801 C804 1.380 . S
C801 C805 1.374 . S
C801 C807 1.507 . S
C802 C803 1.387 . S
C802 C806 1.391 . S
C803 C802 1.387 . S
C803 C804 1.384 . S
C803 H812 0.930 . S
C804 C801 1.380 . S
C804 C803 1.384 . S
C804 H813 0.931 . S
C805 C801 1.374 . S
C805 C806 1.390 . S
C805 H814 0.930 . S
C806 C802 1.391 . S
C806 C805 1.390 . S
C806 H815 0.930 . S
C807 Eu777 2.825 . S
C807 O792 1.238 . S
C807 O793 1.247 . S
C807 C801 1.507 . S
H808 C781 0.930 . S
H809 C782 0.931 . S
H810 C783 0.930 . S
H811 C784 0.930 . S
H812 C803 0.930 . S
H813 C804 0.931 . S
H814 C805 0.930 . S
H815 C806 0.930 . S
Tb816 C826 2.825 . S
Tb816 O827 2.347 . S
Tb816 O830 2.366 . S
Tb816 O835 2.418 . S
Tb816 O836 2.384 . S
Tb816 O839 2.479 . S
Tb816 O840 2.471 . S
Eu817 O828 2.418 . S
Eu817 O829 2.384 . S
Eu817 O832 2.479 . S
Eu817 O833 2.471 . S
Eu817 O834 2.347 . S
Eu817 O837 2.366 . S
Eu817 C847 2.825 . S
C818 O834 1.259 . S
C818 O835 1.265 . S
C819 O836 1.255 . S
C819 O837 1.265 . S
C820 C822 1.380 . S
C820 C823 1.374 . S
C820 C826 1.507 . S
C821 C822 1.384 . S
C821 C825 1.387 . S
C821 H848 0.930 . S
C822 C820 1.380 . S
C822 C821 1.384 . S
C822 H849 0.931 . S
C823 C820 1.374 . S
C823 C824 1.390 . S
C823 H850 0.930 . S
C824 C823 1.390 . S
C824 C825 1.391 . S
C824 H851 0.930 . S
C825 C821 1.387 . S
C825 C824 1.391 . S
C826 Tb816 2.825 . S
C826 C820 1.507 . S
C826 O839 1.238 . S
C826 O840 1.247 . S
O827 Tb816 2.347 . S
O827 C831 1.259 . S
O828 Eu817 2.418 . S
O828 C831 1.265 . S
O829 Eu817 2.384 . S
O829 C838 1.255 . S
O830 Tb816 2.366 . S
O830 C838 1.265 . S
C831 O827 1.259 . S
C831 O828 1.265 . S
O832 Eu817 2.479 . S
O832 C847 1.238 . S
O833 Eu817 2.471 . S
O833 C847 1.247 . S
O834 Eu817 2.347 . S
O834 C818 1.259 . S
O835 Tb816 2.418 . S
O835 C818 1.265 . S
O836 Tb816 2.384 . S
O836 C819 1.255 . S
O837 Eu817 2.366 . S
O837 C819 1.265 . S
C838 O829 1.255 . S
C838 O830 1.265 . S
O839 Tb816 2.479 . S
O839 C826 1.238 . S
O840 Tb816 2.471 . S
O840 C826 1.247 . S
C841 C844 1.380 . S
C841 C845 1.374 . S
C841 C847 1.507 . S
C842 C843 1.387 . S
C842 C846 1.391 . S
C843 C842 1.387 . S
C843 C844 1.384 . S
C843 H852 0.930 . S
C844 C841 1.380 . S
C844 C843 1.384 . S
C844 H853 0.931 . S
C845 C841 1.374 . S
C845 C846 1.390 . S
C845 H854 0.930 . S
C846 C842 1.391 . S
C846 C845 1.390 . S
C846 H855 0.930 . S
C847 Eu817 2.825 . S
C847 O832 1.238 . S
C847 O833 1.247 . S
C847 C841 1.507 . S
H848 C821 0.930 . S
H849 C822 0.931 . S
H850 C823 0.930 . S
H851 C824 0.930 . S
H852 C843 0.930 . S
H853 C844 0.931 . S
H854 C845 0.930 . S
H855 C846 0.930 . S
Tb856 C866 2.825 . S
Tb856 O867 2.347 . S
Tb856 O870 2.366 . S
Tb856 O875 2.418 . S
Tb856 O876 2.384 . S
Tb856 O879 2.479 . S
Tb856 O880 2.471 . S
Eu857 O868 2.418 . S
Eu857 O869 2.384 . S
Eu857 O872 2.479 . S
Eu857 O873 2.471 . S
Eu857 O874 2.347 . S
Eu857 O877 2.366 . S
Eu857 C887 2.825 . S
C858 O874 1.259 . S
C858 O875 1.265 . S
C859 O876 1.255 . S
C859 O877 1.265 . S
C860 C862 1.380 . S
C860 C863 1.374 . S
C860 C866 1.507 . S
C861 C862 1.384 . S
C861 C865 1.387 . S
C861 H888 0.930 . S
C862 C860 1.380 . S
C862 C861 1.384 . S
C862 H889 0.931 . S
C863 C860 1.374 . S
C863 C864 1.390 . S
C863 H890 0.930 . S
C864 C863 1.390 . S
C864 C865 1.391 . S
C864 H891 0.930 . S
C865 C861 1.387 . S
C865 C864 1.391 . S
C866 Tb856 2.825 . S
C866 C860 1.507 . S
C866 O879 1.238 . S
C866 O880 1.247 . S
O867 Tb856 2.347 . S
O867 C871 1.259 . S
O868 Eu857 2.418 . S
O868 C871 1.265 . S
O869 Eu857 2.384 . S
O869 C878 1.255 . S
O870 Tb856 2.366 . S
O870 C878 1.265 . S
C871 O867 1.259 . S
C871 O868 1.265 . S
O872 Eu857 2.479 . S
O872 C887 1.238 . S
O873 Eu857 2.471 . S
O873 C887 1.247 . S
O874 Eu857 2.347 . S
O874 C858 1.259 . S
O875 Tb856 2.418 . S
O875 C858 1.265 . S
O876 Tb856 2.384 . S
O876 C859 1.255 . S
O877 Eu857 2.366 . S
O877 C859 1.265 . S
C878 O869 1.255 . S
C878 O870 1.265 . S
O879 Tb856 2.479 . S
O879 C866 1.238 . S
O880 Tb856 2.471 . S
O880 C866 1.247 . S
C881 C884 1.380 . S
C881 C885 1.374 . S
C881 C887 1.507 . S
C882 C883 1.387 . S
C882 C886 1.391 . S
C883 C882 1.387 . S
C883 C884 1.384 . S
C883 H892 0.930 . S
C884 C881 1.380 . S
C884 C883 1.384 . S
C884 H893 0.931 . S
C885 C881 1.374 . S
C885 C886 1.390 . S
C885 H894 0.930 . S
C886 C882 1.391 . S
C886 C885 1.390 . S
C886 H895 0.930 . S
C887 Eu857 2.825 . S
C887 O872 1.238 . S
C887 O873 1.247 . S
C887 C881 1.507 . S
H888 C861 0.930 . S
H889 C862 0.931 . S
H890 C863 0.930 . S
H891 C864 0.930 . S
H892 C883 0.930 . S
H893 C884 0.931 . S
H894 C885 0.930 . S
H895 C886 0.930 . S
Tb896 C906 2.825 . S
Tb896 O907 2.347 . S
Tb896 O910 2.366 . S
Tb896 O915 2.418 . S
Tb896 O916 2.384 . S
Tb896 O919 2.479 . S
Tb896 O920 2.471 . S
Eu897 O908 2.418 . S
Eu897 O909 2.384 . S
Eu897 O912 2.479 . S
Eu897 O913 2.471 . S
Eu897 O914 2.347 . S
Eu897 O917 2.366 . S
Eu897 C927 2.825 . S
C898 O914 1.259 . S
C898 O915 1.265 . S
C899 O916 1.255 . S
C899 O917 1.265 . S
C900 C902 1.380 . S
C900 C903 1.374 . S
C900 C906 1.507 . S
C901 C902 1.384 . S
C901 C905 1.387 . S
C901 H928 0.930 . S
C902 C900 1.380 . S
C902 C901 1.384 . S
C902 H929 0.931 . S
C903 C900 1.374 . S
C903 C904 1.390 . S
C903 H930 0.930 . S
C904 C903 1.390 . S
C904 C905 1.391 . S
C904 H931 0.930 . S
C905 C901 1.387 . S
C905 C904 1.391 . S
C906 Tb896 2.825 . S
C906 C900 1.507 . S
C906 O919 1.238 . S
C906 O920 1.247 . S
O907 Tb896 2.347 . S
O907 C911 1.259 . S
O908 Eu897 2.418 . S
O908 C911 1.265 . S
O909 Eu897 2.384 . S
O909 C918 1.255 . S
O910 Tb896 2.366 . S
O910 C918 1.265 . S
C911 O907 1.259 . S
C911 O908 1.265 . S
O912 Eu897 2.479 . S
O912 C927 1.238 . S
O913 Eu897 2.471 . S
O913 C927 1.247 . S
O914 Eu897 2.347 . S
O914 C898 1.259 . S
O915 Tb896 2.418 . S
O915 C898 1.265 . S
O916 Tb896 2.384 . S
O916 C899 1.255 . S
O917 Eu897 2.366 . S
O917 C899 1.265 . S
C918 O909 1.255 . S
C918 O910 1.265 . S
O919 Tb896 2.479 . S
O919 C906 1.238 . S
O920 Tb896 2.471 . S
O920 C906 1.247 . S
C921 C924 1.380 . S
C921 C925 1.374 . S
C921 C927 1.507 . S
C922 C923 1.387 . S
C922 C926 1.391 . S
C923 C922 1.387 . S
C923 C924 1.384 . S
C923 H932 0.930 . S
C924 C921 1.380 . S
C924 C923 1.384 . S
C924 H933 0.931 . S
C925 C921 1.374 . S
C925 C926 1.390 . S
C925 H934 0.930 . S
C926 C922 1.391 . S
C926 C925 1.390 . S
C926 H935 0.930 . S
C927 Eu897 2.825 . S
C927 O912 1.238 . S
C927 O913 1.247 . S
C927 C921 1.507 . S
H928 C901 0.930 . S
H929 C902 0.931 . S
H930 C903 0.930 . S
H931 C904 0.930 . S
H932 C923 0.930 . S
H933 C924 0.931 . S
H934 C925 0.930 . S
H935 C926 0.930 . S
Tb936 C946 2.825 . S
Tb936 O947 2.347 1_554 S
Tb936 O950 2.366 . S
Tb936 O955 2.418 . S
Tb936 O956 2.384 . S
Tb936 O959 2.479 . S
Tb936 O960 2.471 1_554 S
Eu937 O948 2.418 1_554 S
Eu937 O949 2.384 . S
Eu937 O952 2.479 . S
Eu937 O953 2.471 . S
Eu937 O954 2.347 . S
Eu937 O957 2.366 . S
Eu937 C967 2.825 . S
C938 O954 1.259 . S
C938 O955 1.265 . S
C939 O956 1.255 . S
C939 O957 1.265 . S
C940 C942 1.380 1_556 S
C940 C943 1.374 . S
C940 C946 1.507 1_556 S
C941 C942 1.384 1_556 S
C941 C945 1.387 . S
C941 H968 0.899 1_556 S
C942 C940 1.380 1_554 S
C942 C941 1.384 1_554 S
C942 H969 0.931 . S
C943 C940 1.374 . S
C943 C944 1.390 . S
C943 H970 0.930 . S
C944 C943 1.390 . S
C944 C945 1.391 . S
C944 H971 0.930 . S
C945 C941 1.387 . S
C945 C944 1.391 . S
C946 Tb936 2.825 . S
C946 C940 1.507 1_554 S
C946 O959 1.238 . S
C946 O960 1.247 1_554 S
O947 Tb936 2.347 1_556 S
O947 C951 1.259 . S
O948 Eu937 2.418 1_556 S
O948 C951 1.265 . S
O949 Eu937 2.384 . S
O949 C958 1.255 . S
O950 Tb936 2.366 . S
O950 C958 1.265 . S
C951 O947 1.259 . S
C951 O948 1.265 . S
O952 Eu937 2.479 . S
O952 C967 1.238 . S
O953 Eu937 2.471 . S
O953 C967 1.247 . S
O954 Eu937 2.347 . S
O954 C938 1.259 . S
O955 Tb936 2.418 . S
O955 C938 1.265 . S
O956 Tb936 2.384 . S
O956 C939 1.255 . S
O957 Eu937 2.366 . S
O957 C939 1.265 . S
C958 O949 1.255 . S
C958 O950 1.265 . S
O959 Tb936 2.479 . S
O959 C946 1.238 . S
O960 Tb936 2.471 1_556 S
O960 C946 1.247 1_556 S
C961 C964 1.380 . S
C961 C965 1.374 . S
C961 C967 1.507 . S
C962 C963 1.387 . S
C962 C966 1.391 . S
C963 C962 1.387 . S
C963 C964 1.384 . S
C963 H972 0.930 . S
C964 C961 1.380 . S
C964 C963 1.384 . S
C964 H973 0.931 . S
C965 C961 1.374 . S
C965 C966 1.390 . S
C965 H974 0.930 . S
C966 C962 1.391 . S
C966 C965 1.390 . S
C966 H975 0.930 . S
C967 Eu937 2.825 . S
C967 O952 1.238 . S
C967 O953 1.247 . S
C967 C961 1.507 . S
H968 C941 0.899 1_554 S
H969 C942 0.931 . S
H970 C943 0.930 . S
H971 C944 0.930 . S
H972 C963 0.930 . S
H973 C964 0.931 . S
H974 C965 0.930 . S
H975 C966 0.930 . S
H976 C984 0.929 . S
H977 C986 0.930 . S
H978 C988 0.930 . S
H979 C991 0.933 . S
H980 C994 0.930 . S
H981 C996 0.960 . S
H982 C996 0.960 . S
H983 C996 0.960 . S
C984 H976 0.929 . S
C984 C985 1.377 1_455 S
C984 C986 1.384 . S
C985 C984 1.377 1_655 S
C985 C991 1.408 . S
C986 H977 0.930 . S
C986 C984 1.384 . S
C986 C987 1.372 . S
C987 C986 1.372 . S
C987 C988 1.400 . S
C987 C992 1.490 . S
C988 H978 0.930 . S
C988 C987 1.400 . S
C988 C991 1.368 1_455 S
H989 C1005 0.930 . S
H990 C1006 0.931 . S
C991 H979 0.933 . S
C991 C985 1.408 . S
C991 C988 1.368 1_655 S
C992 C987 1.490 . S
C992 C994 1.395 1_455 S
C992 C995 1.403 . S
H993 C999 0.930 . S
C994 H980 0.930 . S
C994 C992 1.395 1_655 S
C994 C997 1.405 . S
C995 C992 1.403 . S
C995 C996 1.524 . S
C995 C999 1.400 . S
C996 H981 0.960 . S
C996 H982 0.960 . S
C996 H983 0.960 . S
C996 C995 1.524 . S
C997 C994 1.405 . S
C997 C998 1.385 1_655 S
C997 C1001 1.501 . S
C998 C997 1.385 1_455 S
C998 C999 1.385 . S
C998 C1000 1.478 . S
C999 H993 0.930 . S
C999 C995 1.400 . S
C999 C998 1.385 . S
C1000 C998 1.478 . S
C1000 C1002 1.381 1_556 S
C1000 C1006 1.383 . S
C1001 C997 1.501 . S
C1001 H1007 0.959 . S
C1001 H1008 0.961 . S
C1001 H1009 0.936 1_556 S
C1002 C1000 1.381 1_554 S
C1002 C1003 1.394 . S
C1002 H1010 0.930 . S
C1003 C1002 1.394 . S
C1003 C1004 1.383 . S
C1003 H1011 0.929 . S
C1004 C1003 1.383 . S
C1004 C1005 1.377 1_554 S
C1005 H989 0.930 . S
C1005 C1004 1.377 1_556 S
C1005 C1006 1.379 . S
C1006 H990 0.931 . S
C1006 C1000 1.383 . S
C1006 C1005 1.379 . S
H1007 C1001 0.959 . S
H1008 C1001 0.961 . S
H1009 C1001 0.936 1_554 S
H1010 C1002 0.930 . S
H1011 C1003 0.929 . S
H1012 C1020 0.929 . S
H1013 C1022 0.930 . S
H1014 C1024 0.930 . S
H1015 C1027 0.929 . S
H1016 C1030 0.930 . S
H1017 C1032 0.960 . S
H1018 C1032 0.960 . S
H1019 C1032 0.960 . S
C1020 H1012 0.929 . S
C1020 C1021 1.377 . S
C1020 C1022 1.384 . S
C1021 C1020 1.377 . S
C1021 C1027 1.390 . S
C1022 H1013 0.930 . S
C1022 C1020 1.384 . S
C1022 C1023 1.372 . S
C1023 C1022 1.372 . S
C1023 C1024 1.400 . S
C1023 C1028 1.490 . S
C1024 H1014 0.930 . S
C1024 C1023 1.400 . S
C1024 C1027 1.386 . S
H1025 C1041 0.930 . S
H1026 C1042 0.931 . S
C1027 H1015 0.929 . S
C1027 C1021 1.390 . S
C1027 C1024 1.386 . S
C1028 C1023 1.490 . S
C1028 C1030 1.395 . S
C1028 C1031 1.403 . S
H1029 C1035 0.930 . S
C1030 H1016 0.930 . S
C1030 C1028 1.395 . S
C1030 C1033 1.403 . S
C1031 C1028 1.403 . S
C1031 C1032 1.524 . S
C1031 C1035 1.400 . S
C1032 H1017 0.960 . S
C1032 H1018 0.960 . S
C1032 H1019 0.960 . S
C1032 C1031 1.524 . S
C1033 C1030 1.403 . S
C1033 C1034 1.392 . S
C1033 C1037 1.495 . S
C1034 C1033 1.392 . S
C1034 C1035 1.385 . S
C1034 C1036 1.478 . S
C1035 H1029 0.930 . S
C1035 C1031 1.400 . S
C1035 C1034 1.385 . S
C1036 C1034 1.478 . S
C1036 C1038 1.381 . S
C1036 C1042 1.383 . S
C1037 C1033 1.495 . S
C1037 H1043 0.959 . S
C1037 H1044 0.961 . S
C1037 H1045 0.960 . S
C1038 C1036 1.381 . S
C1038 C1039 1.394 . S
C1038 H1046 0.930 . S
C1039 C1038 1.394 . S
C1039 C1040 1.383 . S
C1039 H1047 0.929 . S
C1040 C1039 1.383 . S
C1040 C1041 1.377 . S
C1041 H1025 0.930 . S
C1041 C1040 1.377 . S
C1041 C1042 1.379 . S
C1042 H1026 0.931 . S
C1042 C1036 1.383 . S
C1042 C1041 1.379 . S
H1043 C1037 0.959 . S
H1044 C1037 0.961 . S
H1045 C1037 0.960 . S
H1046 C1038 0.930 . S
H1047 C1039 0.929 . S
H1048 C1056 0.929 . S
H1049 C1058 0.930 . S
H1050 C1060 0.930 . S
H1051 C1063 0.929 . S
H1052 C1066 0.930 . S
H1053 C1068 0.960 . S
H1054 C1068 0.960 . S
H1055 C1068 0.960 . S
C1056 H1048 0.929 . S
C1056 C1057 1.377 . S
C1056 C1058 1.384 . S
C1057 C1056 1.377 . S
C1057 C1063 1.390 . S
C1058 H1049 0.930 . S
C1058 C1056 1.384 . S
C1058 C1059 1.372 . S
C1059 C1058 1.372 . S
C1059 C1060 1.400 . S
C1059 C1064 1.490 . S
C1060 H1050 0.930 . S
C1060 C1059 1.400 . S
C1060 C1063 1.386 . S
H1061 C1077 0.930 . S
H1062 C1078 0.931 . S
C1063 H1051 0.929 . S
C1063 C1057 1.390 . S
C1063 C1060 1.386 . S
C1064 C1059 1.490 . S
C1064 C1066 1.395 . S
C1064 C1067 1.403 . S
H1065 C1071 0.930 . S
C1066 H1052 0.930 . S
C1066 C1064 1.395 . S
C1066 C1069 1.403 . S
C1067 C1064 1.403 . S
C1067 C1068 1.524 . S
C1067 C1071 1.400 . S
C1068 H1053 0.960 . S
C1068 H1054 0.960 . S
C1068 H1055 0.960 . S
C1068 C1067 1.524 . S
C1069 C1066 1.403 . S
C1069 C1070 1.392 . S
C1069 C1073 1.495 . S
C1070 C1069 1.392 . S
C1070 C1071 1.385 . S
C1070 C1072 1.478 . S
C1071 H1065 0.930 . S
C1071 C1067 1.400 . S
C1071 C1070 1.385 . S
C1072 C1070 1.478 . S
C1072 C1074 1.381 . S
C1072 C1078 1.383 . S
C1073 C1069 1.495 . S
C1073 H1079 0.959 . S
C1073 H1080 0.961 . S
C1073 H1081 0.960 . S
C1074 C1072 1.381 . S
C1074 C1075 1.394 . S
C1074 H1082 0.930 . S
C1075 C1074 1.394 . S
C1075 C1076 1.383 . S
C1075 H1083 0.929 . S
C1076 C1075 1.383 . S
C1076 C1077 1.377 . S
C1077 H1061 0.930 . S
C1077 C1076 1.377 . S
C1077 C1078 1.379 . S
C1078 H1062 0.931 . S
C1078 C1072 1.383 . S
C1078 C1077 1.379 . S
H1079 C1073 0.959 . S
H1080 C1073 0.961 . S
H1081 C1073 0.960 . S
H1082 C1074 0.930 . S
H1083 C1075 0.929 . S
H1084 C1092 0.929 . S
H1085 C1094 0.930 . S
H1086 C1096 0.930 . S
H1087 C1099 0.929 . S
H1088 C1102 0.930 . S
H1089 C1104 0.960 . S
H1090 C1104 0.960 . S
H1091 C1104 0.960 . S
C1092 H1084 0.929 . S
C1092 C1093 1.377 . S
C1092 C1094 1.384 . S
C1093 C1092 1.377 . S
C1093 C1099 1.390 . S
C1094 H1085 0.930 . S
C1094 C1092 1.384 . S
C1094 C1095 1.372 . S
C1095 C1094 1.372 . S
C1095 C1096 1.400 . S
C1095 C1100 1.490 . S
C1096 H1086 0.930 . S
C1096 C1095 1.400 . S
C1096 C1099 1.386 . S
H1097 C1113 0.930 . S
H1098 C1114 0.931 . S
C1099 H1087 0.929 . S
C1099 C1093 1.390 . S
C1099 C1096 1.386 . S
C1100 C1095 1.490 . S
C1100 C1102 1.395 . S
C1100 C1103 1.403 . S
H1101 C1107 0.930 . S
C1102 H1088 0.930 . S
C1102 C1100 1.395 . S
C1102 C1105 1.403 . S
C1103 C1100 1.403 . S
C1103 C1104 1.524 . S
C1103 C1107 1.400 . S
C1104 H1089 0.960 . S
C1104 H1090 0.960 . S
C1104 H1091 0.960 . S
C1104 C1103 1.524 . S
C1105 C1102 1.403 . S
C1105 C1106 1.392 . S
C1105 C1109 1.495 . S
C1106 C1105 1.392 . S
C1106 C1107 1.385 . S
C1106 C1108 1.478 . S
C1107 H1101 0.930 . S
C1107 C1103 1.400 . S
C1107 C1106 1.385 . S
C1108 C1106 1.478 . S
C1108 C1110 1.381 . S
C1108 C1114 1.383 . S
C1109 C1105 1.495 . S
C1109 H1115 0.959 . S
C1109 H1116 0.961 . S
C1109 H1117 0.960 . S
C1110 C1108 1.381 . S
C1110 C1111 1.394 . S
C1110 H1118 0.930 . S
C1111 C1110 1.394 . S
C1111 C1112 1.383 . S
C1111 H1119 0.929 . S
C1112 C1111 1.383 . S
C1112 C1113 1.377 . S
C1113 H1097 0.930 . S
C1113 C1112 1.377 . S
C1113 C1114 1.379 . S
C1114 H1098 0.931 . S
C1114 C1108 1.383 . S
C1114 C1113 1.379 . S
H1115 C1109 0.959 . S
H1116 C1109 0.961 . S
H1117 C1109 0.960 . S
H1118 C1110 0.930 . S
H1119 C1111 0.929 . S
H1120 C1128 0.929 . S
H1121 C1130 0.930 . S
H1122 C1132 0.930 . S
H1123 C1135 0.929 . S
H1124 C1138 0.930 . S
H1125 C1140 0.960 1_655 S
H1126 C1140 0.960 . S
H1127 C1140 0.960 . S
C1128 H1120 0.929 . S
C1128 C1129 1.377 . S
C1128 C1130 1.384 . S
C1129 C1128 1.377 . S
C1129 C1135 1.390 . S
C1130 H1121 0.930 . S
C1130 C1128 1.384 . S
C1130 C1131 1.372 . S
C1131 C1130 1.372 . S
C1131 C1132 1.400 . S
C1131 C1136 1.490 . S
C1132 H1122 0.930 . S
C1132 C1131 1.400 . S
C1132 C1135 1.386 . S
H1133 C1149 0.930 . S
H1134 C1150 0.931 . S
C1135 H1123 0.929 . S
C1135 C1129 1.390 . S
C1135 C1132 1.386 . S
C1136 C1131 1.490 . S
C1136 C1138 1.395 . S
C1136 C1139 1.403 . S
H1137 C1143 0.930 . S
C1138 H1124 0.930 . S
C1138 C1136 1.395 . S
C1138 C1141 1.403 . S
C1139 C1136 1.403 . S
C1139 C1140 1.524 . S
C1139 C1143 1.400 . S
C1140 H1125 0.960 1_455 S
C1140 H1126 0.960 . S
C1140 H1127 0.960 . S
C1140 C1139 1.524 . S
C1141 C1138 1.403 . S
C1141 C1142 1.392 . S
C1141 C1145 1.495 . S
C1142 C1141 1.392 . S
C1142 C1143 1.385 . S
C1142 C1144 1.478 . S
C1143 H1137 0.930 . S
C1143 C1139 1.400 . S
C1143 C1142 1.385 . S
C1144 C1142 1.478 . S
C1144 C1146 1.381 . S
C1144 C1150 1.383 . S
C1145 C1141 1.495 . S
C1145 H1151 0.959 . S
C1145 H1152 0.961 . S
C1145 H1153 0.960 . S
C1146 C1144 1.381 . S
C1146 C1147 1.394 . S
C1146 H1154 0.930 . S
C1147 C1146 1.394 . S
C1147 C1148 1.383 . S
C1147 H1155 0.929 . S
C1148 C1147 1.383 . S
C1148 C1149 1.377 . S
C1149 H1133 0.930 . S
C1149 C1148 1.377 . S
C1149 C1150 1.379 . S
C1150 H1134 0.931 . S
C1150 C1144 1.383 . S
C1150 C1149 1.379 . S
H1151 C1145 0.959 . S
H1152 C1145 0.961 . S
H1153 C1145 0.960 . S
H1154 C1146 0.930 . S
H1155 C1147 0.929 . S
H1156 C1164 0.929 . S
H1157 C1166 0.930 . S
H1158 C1168 0.930 . S
H1159 C1171 0.929 . S
H1160 C1174 0.930 . S
H1161 C1176 0.960 . S
H1162 C1176 0.960 . S
H1163 C1176 0.960 . S
C1164 H1156 0.929 . S
C1164 C1165 1.377 . S
C1164 C1166 1.384 . S
C1165 C1164 1.377 . S
C1165 C1171 1.390 . S
C1166 H1157 0.930 . S
C1166 C1164 1.384 . S
C1166 C1167 1.372 . S
C1167 C1166 1.372 . S
C1167 C1168 1.400 . S
C1167 C1172 1.490 . S
C1168 H1158 0.930 . S
C1168 C1167 1.400 . S
C1168 C1171 1.386 . S
H1169 C1185 0.930 . S
H1170 C1186 0.931 . S
C1171 H1159 0.929 . S
C1171 C1165 1.390 . S
C1171 C1168 1.386 . S
C1172 C1167 1.490 . S
C1172 C1174 1.395 . S
C1172 C1175 1.403 . S
H1173 C1179 0.930 . S
C1174 H1160 0.930 . S
C1174 C1172 1.395 . S
C1174 C1177 1.403 . S
C1175 C1172 1.403 . S
C1175 C1176 1.524 . S
C1175 C1179 1.400 . S
C1176 H1161 0.960 . S
C1176 H1162 0.960 . S
C1176 H1163 0.960 . S
C1176 C1175 1.524 . S
C1177 C1174 1.403 . S
C1177 C1178 1.392 . S
C1177 C1181 1.495 . S
C1178 C1177 1.392 . S
C1178 C1179 1.385 . S
C1178 C1180 1.478 . S
C1179 H1173 0.930 . S
C1179 C1175 1.400 . S
C1179 C1178 1.385 . S
C1180 C1178 1.478 . S
C1180 C1182 1.381 . S
C1180 C1186 1.383 . S
C1181 C1177 1.495 . S
C1181 H1187 0.959 . S
C1181 H1188 0.961 . S
C1181 H1189 0.960 . S
C1182 C1180 1.381 . S
C1182 C1183 1.394 . S
C1182 H1190 0.930 . S
C1183 C1182 1.394 . S
C1183 C1184 1.383 . S
C1183 H1191 0.929 . S
C1184 C1183 1.383 . S
C1184 C1185 1.377 . S
C1185 H1169 0.930 . S
C1185 C1184 1.377 . S
C1185 C1186 1.379 . S
C1186 H1170 0.931 . S
C1186 C1180 1.383 . S
C1186 C1185 1.379 . S
H1187 C1181 0.959 . S
H1188 C1181 0.961 . S
H1189 C1181 0.960 . S
H1190 C1182 0.930 . S
H1191 C1183 0.929 . S
H1192 C1200 0.929 . S
H1193 C1202 0.930 . S
H1194 C1204 0.930 . S
H1195 C1207 0.929 . S
H1196 C1210 0.930 . S
H1197 C1212 0.960 . S
H1198 C1212 0.960 . S
H1199 C1212 0.960 . S
C1200 H1192 0.929 . S
C1200 C1201 1.377 . S
C1200 C1202 1.384 . S
C1201 C1200 1.377 . S
C1201 C1207 1.390 . S
C1202 H1193 0.930 . S
C1202 C1200 1.384 . S
C1202 C1203 1.372 . S
C1203 C1202 1.372 . S
C1203 C1204 1.400 . S
C1203 C1208 1.490 . S
C1204 H1194 0.930 . S
C1204 C1203 1.400 . S
C1204 C1207 1.386 . S
H1205 C1221 0.930 . S
H1206 C1222 0.931 . S
C1207 H1195 0.929 . S
C1207 C1201 1.390 . S
C1207 C1204 1.386 . S
C1208 C1203 1.490 . S
C1208 C1210 1.395 . S
C1208 C1211 1.403 . S
H1209 C1215 0.930 . S
C1210 H1196 0.930 . S
C1210 C1208 1.395 . S
C1210 C1213 1.403 . S
C1211 C1208 1.403 . S
C1211 C1212 1.524 . S
C1211 C1215 1.400 . S
C1212 H1197 0.960 . S
C1212 H1198 0.960 . S
C1212 H1199 0.960 . S
C1212 C1211 1.524 . S
C1213 C1210 1.403 . S
C1213 C1214 1.392 . S
C1213 C1217 1.495 . S
C1214 C1213 1.392 . S
C1214 C1215 1.385 . S
C1214 C1216 1.478 . S
C1215 H1209 0.930 . S
C1215 C1211 1.400 . S
C1215 C1214 1.385 . S
C1216 C1214 1.478 . S
C1216 C1218 1.381 . S
C1216 C1222 1.383 . S
C1217 C1213 1.495 . S
C1217 H1223 0.959 . S
C1217 H1224 0.961 . S
C1217 H1225 0.960 . S
C1218 C1216 1.381 . S
C1218 C1219 1.394 . S
C1218 H1226 0.930 . S
C1219 C1218 1.394 . S
C1219 C1220 1.383 . S
C1219 H1227 0.929 . S
C1220 C1219 1.383 . S
C1220 C1221 1.377 . S
C1221 H1205 0.930 . S
C1221 C1220 1.377 . S
C1221 C1222 1.379 . S
C1222 H1206 0.931 . S
C1222 C1216 1.383 . S
C1222 C1221 1.379 . S
H1223 C1217 0.959 . S
H1224 C1217 0.961 . S
H1225 C1217 0.960 . S
H1226 C1218 0.930 . S
H1227 C1219 0.929 . S
H1228 C1236 0.929 . S
H1229 C1238 0.930 . S
H1230 C1240 0.930 . S
H1231 C1243 0.929 . S
H1232 C1246 0.930 . S
H1233 C1248 0.960 . S
H1234 C1248 0.960 . S
H1235 C1248 0.960 . S
C1236 H1228 0.929 . S
C1236 C1237 1.377 . S
C1236 C1238 1.384 . S
C1237 C1236 1.377 . S
C1237 C1243 1.390 . S
C1238 H1229 0.930 . S
C1238 C1236 1.384 . S
C1238 C1239 1.372 . S
C1239 C1238 1.372 . S
C1239 C1240 1.400 . S
C1239 C1244 1.490 . S
C1240 H1230 0.930 . S
C1240 C1239 1.400 . S
C1240 C1243 1.386 . S
H1241 C1257 0.930 . S
H1242 C1258 0.931 . S
C1243 H1231 0.929 . S
C1243 C1237 1.390 . S
C1243 C1240 1.386 . S
C1244 C1239 1.490 . S
C1244 C1246 1.395 . S
C1244 C1247 1.403 . S
H1245 C1251 0.930 . S
C1246 H1232 0.930 . S
C1246 C1244 1.395 . S
C1246 C1249 1.403 . S
C1247 C1244 1.403 . S
C1247 C1248 1.524 . S
C1247 C1251 1.400 . S
C1248 H1233 0.960 . S
C1248 H1234 0.960 . S
C1248 H1235 0.960 . S
C1248 C1247 1.524 . S
C1249 C1246 1.403 . S
C1249 C1250 1.392 . S
C1249 C1253 1.495 . S
C1250 C1249 1.392 . S
C1250 C1251 1.385 . S
C1250 C1252 1.478 . S
C1251 H1245 0.930 . S
C1251 C1247 1.400 . S
C1251 C1250 1.385 . S
C1252 C1250 1.478 . S
C1252 C1254 1.381 . S
C1252 C1258 1.383 . S
C1253 C1249 1.495 . S
C1253 H1259 0.959 . S
C1253 H1260 0.961 . S
C1253 H1261 0.960 . S
C1254 C1252 1.381 . S
C1254 C1255 1.394 . S
C1254 H1262 0.930 . S
C1255 C1254 1.394 . S
C1255 C1256 1.383 . S
C1255 H1263 0.929 . S
C1256 C1255 1.383 . S
C1256 C1257 1.377 . S
C1257 H1241 0.930 . S
C1257 C1256 1.377 . S
C1257 C1258 1.379 . S
C1258 H1242 0.931 . S
C1258 C1252 1.383 . S
C1258 C1257 1.379 . S
H1259 C1253 0.959 . S
H1260 C1253 0.961 . S
H1261 C1253 0.960 . S
H1262 C1254 0.930 . S
H1263 C1255 0.929 . S
H1264 C1272 0.929 . S
H1265 C1274 0.930 . S
H1266 C1276 0.930 . S
H1267 C1279 0.929 . S
H1268 C1282 0.930 . S
H1269 C1284 0.960 . S
H1270 C1284 0.960 . S
H1271 C1284 0.960 . S
C1272 H1264 0.929 . S
C1272 C1273 1.377 . S
C1272 C1274 1.384 . S
C1273 C1272 1.377 . S
C1273 C1279 1.390 1_545 S
C1274 H1265 0.930 . S
C1274 C1272 1.384 . S
C1274 C1275 1.372 . S
C1275 C1274 1.372 . S
C1275 C1276 1.400 1_545 S
C1275 C1280 1.490 . S
C1276 H1266 0.930 . S
C1276 C1275 1.400 1_565 S
C1276 C1279 1.386 . S
H1277 C1293 0.930 . S
H1278 C1294 0.931 . S
C1279 H1267 0.929 . S
C1279 C1273 1.390 1_565 S
C1279 C1276 1.386 . S
C1280 C1275 1.490 . S
C1280 C1282 1.395 . S
C1280 C1283 1.403 . S
H1281 C1287 0.930 1_565 S
C1282 H1268 0.930 . S
C1282 C1280 1.395 . S
C1282 C1285 1.403 . S
C1283 C1280 1.403 . S
C1283 C1284 1.524 1_545 S
C1283 C1287 1.400 . S
C1284 H1269 0.960 . S
C1284 H1270 0.960 . S
C1284 H1271 0.960 . S
C1284 C1283 1.524 1_565 S
C1285 C1282 1.403 . S
C1285 C1286 1.392 . S
C1285 C1289 1.495 1_655 S
C1286 C1285 1.392 . S
C1286 C1287 1.385 . S
C1286 C1288 1.478 . S
C1287 H1281 0.930 1_545 S
C1287 C1283 1.400 . S
C1287 C1286 1.385 . S
C1288 C1286 1.478 . S
C1288 C1290 1.381 . S
C1288 C1294 1.383 1_655 S
C1289 C1285 1.495 1_455 S
C1289 H1295 0.959 . S
C1289 H1296 0.961 . S
C1289 H1297 0.960 . S
C1290 C1288 1.381 . S
C1290 C1291 1.394 1_655 S
C1290 H1298 0.930 . S
C1291 C1290 1.394 1_455 S
C1291 C1292 1.383 . S
C1291 H1299 0.929 . S
C1292 C1291 1.383 . S
C1292 C1293 1.377 . S
C1293 H1277 0.930 . S
C1293 C1292 1.377 . S
C1293 C1294 1.379 . S
C1294 H1278 0.931 . S
C1294 C1288 1.383 1_455 S
C1294 C1293 1.379 . S
H1295 C1289 0.959 . S
H1296 C1289 0.961 . S
H1297 C1289 0.960 . S
H1298 C1290 0.930 . S
H1299 C1291 0.929 . S
H1300 C1308 0.929 . S
H1301 C1310 0.930 . S
H1302 C1312 0.930 . S
H1303 C1315 0.929 . S
H1304 C1318 0.930 . S
H1305 C1320 0.960 . S
H1306 C1320 0.960 . S
H1307 C1320 0.960 . S
C1308 H1300 0.929 . S
C1308 C1309 1.377 . S
C1308 C1310 1.384 . S
C1309 C1308 1.377 . S
C1309 C1315 1.390 . S
C1310 H1301 0.930 . S
C1310 C1308 1.384 . S
C1310 C1311 1.372 . S
C1311 C1310 1.372 . S
C1311 C1312 1.400 . S
C1311 C1316 1.490 . S
C1312 H1302 0.930 . S
C1312 C1311 1.400 . S
C1312 C1315 1.386 . S
H1313 C1329 0.930 . S
H1314 C1330 0.931 . S
C1315 H1303 0.929 . S
C1315 C1309 1.390 . S
C1315 C1312 1.386 . S
C1316 C1311 1.490 . S
C1316 C1318 1.395 . S
C1316 C1319 1.403 . S
H1317 C1323 0.930 . S
C1318 H1304 0.930 . S
C1318 C1316 1.395 . S
C1318 C1321 1.403 . S
C1319 C1316 1.403 . S
C1319 C1320 1.524 . S
C1319 C1323 1.400 . S
C1320 H1305 0.960 . S
C1320 H1306 0.960 . S
C1320 H1307 0.960 . S
C1320 C1319 1.524 . S
C1321 C1318 1.403 . S
C1321 C1322 1.392 . S
C1321 C1325 1.495 . S
C1322 C1321 1.392 . S
C1322 C1323 1.385 . S
C1322 C1324 1.478 . S
C1323 H1317 0.930 . S
C1323 C1319 1.400 . S
C1323 C1322 1.385 . S
C1324 C1322 1.478 . S
C1324 C1326 1.381 . S
C1324 C1330 1.383 . S
C1325 C1321 1.495 . S
C1325 H1331 0.959 . S
C1325 H1332 0.961 . S
C1325 H1333 0.960 . S
C1326 C1324 1.381 . S
C1326 C1327 1.394 . S
C1326 H1334 0.930 . S
C1327 C1326 1.394 . S
C1327 C1328 1.383 . S
C1327 H1335 0.929 . S
C1328 C1327 1.383 . S
C1328 C1329 1.377 . S
C1329 H1313 0.930 . S
C1329 C1328 1.377 . S
C1329 C1330 1.379 . S
C1330 H1314 0.931 . S
C1330 C1324 1.383 . S
C1330 C1329 1.379 . S
H1331 C1325 0.959 . S
H1332 C1325 0.961 . S
H1333 C1325 0.960 . S
H1334 C1326 0.930 . S
H1335 C1327 0.929 . S
H1336 C1344 0.929 . S
H1337 C1346 0.930 . S
H1338 C1348 0.930 . S
H1339 C1351 0.925 . S
H1340 C1354 0.930 . S
H1341 C1356 0.960 . S
H1342 C1356 0.960 . S
H1343 C1356 0.960 . S
C1344 H1336 0.929 . S
C1344 C1345 1.377 . S
C1344 C1346 1.384 . S
C1345 C1344 1.377 . S
C1345 C1351 1.387 1_565 S
C1346 H1337 0.930 . S
C1346 C1344 1.384 . S
C1346 C1347 1.372 1_565 S
C1347 C1346 1.372 1_545 S
C1347 C1348 1.400 . S
C1347 C1352 1.490 . S
C1348 H1338 0.930 . S
C1348 C1347 1.400 . S
C1348 C1351 1.393 . S
H1349 C1365 0.930 . S
H1350 C1366 0.931 . S
C1351 H1339 0.925 . S
C1351 C1345 1.387 1_545 S
C1351 C1348 1.393 . S
C1352 C1347 1.490 . S
C1352 C1354 1.395 . S
C1352 C1355 1.403 1_545 S
H1353 C1359 0.907 1_565 S
C1354 H1340 0.930 . S
C1354 C1352 1.395 . S
C1354 C1357 1.403 . S
C1355 C1352 1.403 1_565 S
C1355 C1356 1.524 . S
C1355 C1359 1.382 1_565 S
C1356 H1341 0.960 . S
C1356 H1342 0.960 . S
C1356 H1343 0.960 . S
C1356 C1355 1.524 . S
C1357 C1354 1.403 . S
C1357 C1358 1.392 . S
C1357 C1361 1.495 . S
C1358 C1357 1.392 . S
C1358 C1359 1.426 . S
C1358 C1360 1.478 . S
C1359 H1353 0.907 1_545 S
C1359 C1355 1.382 1_545 S
C1359 C1358 1.426 . S
C1360 C1358 1.478 . S
C1360 C1362 1.381 . S
C1360 C1366 1.383 . S
C1361 C1357 1.495 . S
C1361 H1367 0.959 . S
C1361 H1368 0.961 . S
C1361 H1369 0.960 . S
C1362 C1360 1.381 . S
C1362 C1363 1.394 . S
C1362 H1370 0.930 . S
C1363 C1362 1.394 . S
C1363 C1364 1.383 . S
C1363 H1371 0.929 . S
C1364 C1363 1.383 . S
C1364 C1365 1.377 . S
C1365 H1349 0.930 . S
C1365 C1364 1.377 . S
C1365 C1366 1.379 . S
C1366 H1350 0.931 . S
C1366 C1360 1.383 . S
C1366 C1365 1.379 . S
H1367 C1361 0.959 . S
H1368 C1361 0.961 . S
H1369 C1361 0.960 . S
H1370 C1362 0.930 . S
H1371 C1363 0.929 . S
H1372 C1380 0.929 . S
H1373 C1382 0.930 . S
H1374 C1384 0.930 . S
H1375 C1387 0.929 . S
H1376 C1390 0.930 . S
H1377 C1392 0.960 . S
H1378 C1392 0.960 . S
H1379 C1392 0.960 . S
C1380 H1372 0.929 . S
C1380 C1381 1.377 . S
C1380 C1382 1.384 . S
C1381 C1380 1.377 . S
C1381 C1387 1.390 . S
C1382 H1373 0.930 . S
C1382 C1380 1.384 . S
C1382 C1383 1.372 . S
C1383 C1382 1.372 . S
C1383 C1384 1.400 . S
C1383 C1388 1.490 . S
C1384 H1374 0.930 . S
C1384 C1383 1.400 . S
C1384 C1387 1.386 . S
H1385 C1401 0.930 . S
H1386 C1402 0.931 . S
C1387 H1375 0.929 . S
C1387 C1381 1.390 . S
C1387 C1384 1.386 . S
C1388 C1383 1.490 . S
C1388 C1390 1.395 . S
C1388 C1391 1.403 . S
H1389 C1395 0.930 . S
C1390 H1376 0.930 . S
C1390 C1388 1.395 . S
C1390 C1393 1.403 . S
C1391 C1388 1.403 . S
C1391 C1392 1.524 . S
C1391 C1395 1.400 . S
C1392 H1377 0.960 . S
C1392 H1378 0.960 . S
C1392 H1379 0.960 . S
C1392 C1391 1.524 . S
C1393 C1390 1.403 . S
C1393 C1394 1.392 . S
C1393 C1397 1.495 . S
C1394 C1393 1.392 . S
C1394 C1395 1.385 . S
C1394 C1396 1.478 . S
C1395 H1389 0.930 . S
C1395 C1391 1.400 . S
C1395 C1394 1.385 . S
C1396 C1394 1.478 . S
C1396 C1398 1.381 . S
C1396 C1402 1.383 . S
C1397 C1393 1.495 . S
C1397 H1403 0.959 . S
C1397 H1404 0.961 . S
C1397 H1405 0.960 . S
C1398 C1396 1.381 . S
C1398 C1399 1.394 . S
C1398 H1406 0.930 . S
C1399 C1398 1.394 . S
C1399 C1400 1.383 . S
C1399 H1407 0.929 . S
C1400 C1399 1.383 . S
C1400 C1401 1.377 . S
C1401 H1385 0.930 . S
C1401 C1400 1.377 . S
C1401 C1402 1.379 . S
C1402 H1386 0.931 . S
C1402 C1396 1.383 . S
C1402 C1401 1.379 . S
H1403 C1397 0.959 . S
H1404 C1397 0.961 . S
H1405 C1397 0.960 . S
H1406 C1398 0.930 . S
H1407 C1399 0.929 . S
H1408 C1416 0.929 . S
H1409 C1418 0.930 . S
H1410 C1420 0.930 . S
H1411 C1423 0.929 . S
H1412 C1426 0.930 . S
H1413 C1428 0.960 . S
H1414 C1428 0.960 . S
H1415 C1428 0.960 . S
C1416 H1408 0.929 . S
C1416 C1417 1.377 . S
C1416 C1418 1.384 . S
C1417 C1416 1.377 . S
C1417 C1423 1.390 . S
C1418 H1409 0.930 . S
C1418 C1416 1.384 . S
C1418 C1419 1.372 . S
C1419 C1418 1.372 . S
C1419 C1420 1.400 . S
C1419 C1424 1.490 . S
C1420 H1410 0.930 . S
C1420 C1419 1.400 . S
C1420 C1423 1.386 . S
H1421 C1437 0.930 . S
H1422 C1438 0.914 1_455 S
C1423 H1411 0.929 . S
C1423 C1417 1.390 . S
C1423 C1420 1.386 . S
C1424 C1419 1.490 . S
C1424 C1426 1.395 1_545 S
C1424 C1427 1.403 . S
H1425 C1431 0.930 . S
C1426 H1412 0.930 . S
C1426 C1424 1.395 1_565 S
C1426 C1429 1.403 . S
C1427 C1424 1.403 . S
C1427 C1428 1.524 . S
C1427 C1431 1.400 . S
C1428 H1413 0.960 . S
C1428 H1414 0.960 . S
C1428 H1415 0.960 . S
C1428 C1427 1.524 . S
C1429 C1426 1.403 . S
C1429 C1430 1.392 1_565 S
C1429 C1433 1.495 . S
C1430 C1429 1.392 1_545 S
C1430 C1431 1.385 . S
C1430 C1432 1.478 . S
C1431 H1425 0.930 . S
C1431 C1427 1.400 . S
C1431 C1430 1.385 . S
C1432 C1430 1.478 . S
C1432 C1434 1.381 . S
C1432 C1438 1.383 . S
C1433 C1429 1.495 . S
C1433 H1439 0.959 . S
C1433 H1440 0.961 . S
C1433 H1441 0.960 . S
C1434 C1432 1.381 . S
C1434 C1435 1.394 . S
C1434 H1442 0.930 . S
C1435 C1434 1.394 . S
C1435 C1436 1.383 . S
C1435 H1443 0.929 . S
C1436 C1435 1.383 . S
C1436 C1437 1.377 1_655 S
C1437 H1421 0.930 . S
C1437 C1436 1.377 1_455 S
C1437 C1438 1.379 1_455 S
C1438 H1422 0.914 1_655 S
C1438 C1432 1.383 . S
C1438 C1437 1.379 1_655 S
H1439 C1433 0.959 . S
H1440 C1433 0.961 . S
H1441 C1433 0.960 . S
H1442 C1434 0.930 . S
H1443 C1435 0.929 . S
H1444 C1452 0.929 . S
H1445 C1454 0.930 . S
H1446 C1456 0.930 . S
H1447 C1459 0.929 . S
H1448 C1462 0.930 . S
H1449 C1464 0.960 . S
H1450 C1464 0.960 . S
H1451 C1464 0.960 . S
C1452 H1444 0.929 . S
C1452 C1453 1.377 . S
C1452 C1454 1.384 . S
C1453 C1452 1.377 . S
C1453 C1459 1.390 . S
C1454 H1445 0.930 . S
C1454 C1452 1.384 . S
C1454 C1455 1.372 . S
C1455 C1454 1.372 . S
C1455 C1456 1.400 . S
C1455 C1460 1.490 . S
C1456 H1446 0.930 . S
C1456 C1455 1.400 . S
C1456 C1459 1.386 . S
H1457 C1473 0.930 . S
H1458 C1474 0.931 . S
C1459 H1447 0.929 . S
C1459 C1453 1.390 . S
C1459 C1456 1.386 . S
C1460 C1455 1.490 . S
C1460 C1462 1.395 . S
C1460 C1463 1.403 . S
H1461 C1467 0.930 . S
C1462 H1448 0.930 . S
C1462 C1460 1.395 . S
C1462 C1465 1.403 . S
C1463 C1460 1.403 . S
C1463 C1464 1.524 . S
C1463 C1467 1.400 . S
C1464 H1449 0.960 . S
C1464 H1450 0.960 . S
C1464 H1451 0.960 . S
C1464 C1463 1.524 . S
C1465 C1462 1.403 . S
C1465 C1466 1.392 . S
C1465 C1469 1.495 . S
C1466 C1465 1.392 . S
C1466 C1467 1.385 . S
C1466 C1468 1.478 . S
C1467 H1461 0.930 . S
C1467 C1463 1.400 . S
C1467 C1466 1.385 . S
C1468 C1466 1.478 . S
C1468 C1470 1.381 . S
C1468 C1474 1.383 . S
C1469 C1465 1.495 . S
C1469 H1475 0.959 . S
C1469 H1476 0.961 . S
C1469 H1477 0.960 . S
C1470 C1468 1.381 . S
C1470 C1471 1.394 . S
C1470 H1478 0.930 . S
C1471 C1470 1.394 . S
C1471 C1472 1.383 . S
C1471 H1479 0.929 . S
C1472 C1471 1.383 . S
C1472 C1473 1.377 . S
C1473 H1457 0.930 . S
C1473 C1472 1.377 . S
C1473 C1474 1.379 . S
C1474 H1458 0.931 . S
C1474 C1468 1.383 . S
C1474 C1473 1.379 . S
H1475 C1469 0.959 . S
H1476 C1469 0.961 . S
H1477 C1469 0.960 . S
H1478 C1470 0.930 . S
H1479 C1471 0.929 . S
H1480 C1488 0.929 . S
H1481 C1490 0.930 . S
H1482 C1492 0.930 . S
H1483 C1495 0.929 . S
H1484 C1498 0.930 . S
H1485 C1500 0.960 . S
H1486 C1500 0.960 1_565 S
H1487 C1500 0.960 . S
C1488 H1480 0.929 . S
C1488 C1489 1.377 . S
C1488 C1490 1.384 . S
C1489 C1488 1.377 . S
C1489 C1495 1.390 1_565 S
C1490 H1481 0.930 . S
C1490 C1488 1.384 . S
C1490 C1491 1.372 1_565 S
C1491 C1490 1.372 1_545 S
C1491 C1492 1.400 . S
C1491 C1496 1.490 . S
C1492 H1482 0.930 . S
C1492 C1491 1.400 . S
C1492 C1495 1.386 . S
H1493 C1509 0.930 . S
H1494 C1510 0.931 . S
C1495 H1483 0.929 . S
C1495 C1489 1.390 1_545 S
C1495 C1492 1.386 . S
C1496 C1491 1.490 . S
C1496 C1498 1.395 . S
C1496 C1499 1.403 . S
H1497 C1503 0.930 . S
C1498 H1484 0.930 . S
C1498 C1496 1.395 . S
C1498 C1501 1.403 . S
C1499 C1496 1.403 . S
C1499 C1500 1.524 . S
C1499 C1503 1.400 . S
C1500 H1485 0.960 . S
C1500 H1486 0.960 1_545 S
C1500 H1487 0.960 . S
C1500 C1499 1.524 . S
C1501 C1498 1.403 . S
C1501 C1502 1.392 . S
C1501 C1505 1.495 . S
C1502 C1501 1.392 . S
C1502 C1503 1.385 . S
C1502 C1504 1.478 . S
C1503 H1497 0.930 . S
C1503 C1499 1.400 . S
C1503 C1502 1.385 . S
C1504 C1502 1.478 . S
C1504 C1506 1.381 . S
C1504 C1510 1.383 . S
C1505 C1501 1.495 . S
C1505 H1511 0.959 . S
C1505 H1512 0.961 . S
C1505 H1513 0.960 . S
C1506 C1504 1.381 . S
C1506 C1507 1.394 . S
C1506 H1514 0.930 . S
C1507 C1506 1.394 . S
C1507 C1508 1.383 . S
C1507 H1515 0.929 . S
C1508 C1507 1.383 . S
C1508 C1509 1.377 . S
C1509 H1493 0.930 . S
C1509 C1508 1.377 . S
C1509 C1510 1.379 . S
C1510 H1494 0.931 . S
C1510 C1504 1.383 . S
C1510 C1509 1.379 . S
H1511 C1505 0.959 . S
H1512 C1505 0.961 . S
H1513 C1505 0.960 . S
H1514 C1506 0.930 . S
H1515 C1507 0.929 . S
H1516 C1524 0.929 . S
H1517 C1526 0.930 . S
H1518 C1528 0.930 . S
H1519 C1531 0.929 . S
H1520 C1534 0.930 . S
H1521 C1536 0.960 . S
H1522 C1536 0.960 . S
H1523 C1536 0.960 . S
C1524 H1516 0.929 . S
C1524 C1525 1.377 . S
C1524 C1526 1.384 . S
C1525 C1524 1.377 . S
C1525 C1531 1.390 . S
C1526 H1517 0.930 . S
C1526 C1524 1.384 . S
C1526 C1527 1.372 . S
C1527 C1526 1.372 . S
C1527 C1528 1.400 . S
C1527 C1532 1.490 . S
C1528 H1518 0.930 . S
C1528 C1527 1.400 . S
C1528 C1531 1.386 . S
H1529 C1545 0.930 . S
H1530 C1546 0.931 . S
C1531 H1519 0.929 . S
C1531 C1525 1.390 . S
C1531 C1528 1.386 . S
C1532 C1527 1.490 . S
C1532 C1534 1.395 . S
C1532 C1535 1.403 . S
H1533 C1539 0.930 . S
C1534 H1520 0.930 . S
C1534 C1532 1.395 . S
C1534 C1537 1.403 . S
C1535 C1532 1.403 . S
C1535 C1536 1.524 . S
C1535 C1539 1.400 . S
C1536 H1521 0.960 . S
C1536 H1522 0.960 . S
C1536 H1523 0.960 . S
C1536 C1535 1.524 . S
C1537 C1534 1.403 . S
C1537 C1538 1.392 . S
C1537 C1541 1.495 . S
C1538 C1537 1.392 . S
C1538 C1539 1.385 . S
C1538 C1540 1.478 . S
C1539 H1533 0.930 . S
C1539 C1535 1.400 . S
C1539 C1538 1.385 . S
C1540 C1538 1.478 . S
C1540 C1542 1.381 . S
C1540 C1546 1.383 . S
C1541 C1537 1.495 . S
C1541 H1547 0.959 . S
C1541 H1548 0.961 . S
C1541 H1549 0.960 . S
C1542 C1540 1.381 . S
C1542 C1543 1.394 . S
C1542 H1550 0.930 . S
C1543 C1542 1.394 . S
C1543 C1544 1.383 . S
C1543 H1551 0.929 . S
C1544 C1543 1.383 . S
C1544 C1545 1.377 . S
C1545 H1529 0.930 . S
C1545 C1544 1.377 . S
C1545 C1546 1.379 . S
C1546 H1530 0.931 . S
C1546 C1540 1.383 . S
C1546 C1545 1.379 . S
H1547 C1541 0.959 . S
H1548 C1541 0.961 . S
H1549 C1541 0.960 . S
H1550 C1542 0.930 . S
H1551 C1543 0.929 . S
H1552 C1560 0.929 . S
H1553 C1562 0.930 . S
H1554 C1564 0.930 . S
H1555 C1567 0.929 . S
H1556 C1570 0.930 . S
H1557 C1572 0.960 . S
H1558 C1572 0.960 . S
H1559 C1572 0.960 . S
C1560 H1552 0.929 . S
C1560 C1561 1.377 . S
C1560 C1562 1.384 . S
C1561 C1560 1.377 . S
C1561 C1567 1.390 . S
C1562 H1553 0.930 . S
C1562 C1560 1.384 . S
C1562 C1563 1.372 . S
C1563 C1562 1.372 . S
C1563 C1564 1.400 . S
C1563 C1568 1.490 . S
C1564 H1554 0.930 . S
C1564 C1563 1.400 . S
C1564 C1567 1.386 . S
H1565 C1581 0.930 . S
H1566 C1582 0.931 . S
C1567 H1555 0.929 . S
C1567 C1561 1.390 . S
C1567 C1564 1.386 . S
C1568 C1563 1.490 . S
C1568 C1570 1.395 . S
C1568 C1571 1.403 . S
H1569 C1575 0.930 . S
C1570 H1556 0.930 . S
C1570 C1568 1.395 . S
C1570 C1573 1.403 . S
C1571 C1568 1.403 . S
C1571 C1572 1.524 . S
C1571 C1575 1.400 . S
C1572 H1557 0.960 . S
C1572 H1558 0.960 . S
C1572 H1559 0.960 . S
C1572 C1571 1.524 . S
C1573 C1570 1.403 . S
C1573 C1574 1.392 . S
C1573 C1577 1.495 . S
C1574 C1573 1.392 . S
C1574 C1575 1.385 . S
C1574 C1576 1.478 . S
C1575 H1569 0.930 . S
C1575 C1571 1.400 . S
C1575 C1574 1.385 . S
C1576 C1574 1.478 . S
C1576 C1578 1.381 . S
C1576 C1582 1.383 . S
C1577 C1573 1.495 . S
C1577 H1583 0.959 . S
C1577 H1584 0.961 . S
C1577 H1585 0.960 . S
C1578 C1576 1.381 . S
C1578 C1579 1.394 . S
C1578 H1586 0.930 . S
C1579 C1578 1.394 . S
C1579 C1580 1.383 . S
C1579 H1587 0.929 . S
C1580 C1579 1.383 . S
C1580 C1581 1.377 . S
C1581 H1565 0.930 . S
C1581 C1580 1.377 . S
C1581 C1582 1.379 . S
C1582 H1566 0.931 . S
C1582 C1576 1.383 . S
C1582 C1581 1.379 . S
H1583 C1577 0.959 . S
H1584 C1577 0.961 . S
H1585 C1577 0.960 . S
H1586 C1578 0.930 . S
H1587 C1579 0.929 . S
H1588 C1596 0.929 . S
H1589 C1598 0.930 . S
H1590 C1600 0.930 . S
H1591 C1603 0.927 1_556 S
H1592 C1606 0.930 . S
H1593 C1608 0.960 . S
H1594 C1608 0.960 . S
H1595 C1608 0.960 . S
C1596 H1588 0.929 . S
C1596 C1597 1.377 . S
C1596 C1598 1.384 . S
C1597 C1596 1.377 . S
C1597 C1603 1.390 . S
C1598 H1589 0.930 . S
C1598 C1596 1.384 . S
C1598 C1599 1.372 . S
C1599 C1598 1.372 . S
C1599 C1600 1.400 . S
C1599 C1604 1.490 . S
C1600 H1590 0.930 . S
C1600 C1599 1.400 . S
C1600 C1603 1.386 . S
H1601 C1617 0.906 1_556 S
H1602 C1618 0.931 1_556 S
C1603 H1591 0.927 1_554 S
C1603 C1597 1.390 . S
C1603 C1600 1.386 . S
C1604 C1599 1.490 . S
C1604 C1606 1.395 . S
C1604 C1607 1.403 . S
H1605 C1611 0.930 . S
C1606 H1592 0.930 . S
C1606 C1604 1.395 . S
C1606 C1609 1.403 . S
C1607 C1604 1.403 . S
C1607 C1608 1.524 . S
C1607 C1611 1.400 . S
C1608 H1593 0.960 . S
C1608 H1594 0.960 . S
C1608 H1595 0.960 . S
C1608 C1607 1.524 . S
C1609 C1606 1.403 . S
C1609 C1610 1.392 . S
C1609 C1613 1.495 . S
C1610 C1609 1.392 . S
C1610 C1611 1.385 . S
C1610 C1612 1.478 . S
C1611 H1605 0.930 . S
C1611 C1607 1.400 . S
C1611 C1610 1.385 . S
C1612 C1610 1.478 . S
C1612 C1614 1.381 . S
C1612 C1618 1.383 . S
C1613 C1609 1.495 . S
C1613 H1619 0.959 . S
C1613 H1620 0.924 1_554 S
C1613 H1621 0.960 . S
C1614 C1612 1.381 . S
C1614 C1615 1.394 . S
C1614 H1622 0.930 . S
C1615 C1614 1.394 . S
C1615 C1616 1.383 . S
C1615 H1623 0.929 . S
C1616 C1615 1.383 . S
C1616 C1617 1.377 . S
C1617 H1601 0.906 1_554 S
C1617 C1616 1.377 . S
C1617 C1618 1.379 . S
C1618 H1602 0.931 1_554 S
C1618 C1612 1.383 . S
C1618 C1617 1.379 . S
H1619 C1613 0.959 . S
H1620 C1613 0.924 1_556 S
H1621 C1613 0.960 . S
H1622 C1614 0.930 . S
H1623 C1615 0.929 . S
H1624 C1632 0.929 . S
H1625 C1634 0.930 . S
H1626 C1636 0.930 . S
H1627 C1639 0.929 . S
H1628 C1642 0.930 . S
H1629 C1644 0.960 . S
H1630 C1644 0.960 . S
H1631 C1644 0.960 . S
C1632 H1624 0.929 . S
C1632 C1633 1.377 . S
C1632 C1634 1.384 . S
C1633 C1632 1.377 . S
C1633 C1639 1.390 . S
C1634 H1625 0.930 . S
C1634 C1632 1.384 . S
C1634 C1635 1.372 . S
C1635 C1634 1.372 . S
C1635 C1636 1.400 . S
C1635 C1640 1.490 . S
C1636 H1626 0.930 . S
C1636 C1635 1.400 . S
C1636 C1639 1.386 . S
H1637 C1653 0.930 . S
H1638 C1654 0.931 . S
C1639 H1627 0.929 . S
C1639 C1633 1.390 . S
C1639 C1636 1.386 . S
C1640 C1635 1.490 . S
C1640 C1642 1.395 . S
C1640 C1643 1.403 . S
H1641 C1647 0.930 . S
C1642 H1628 0.930 . S
C1642 C1640 1.395 . S
C1642 C1645 1.403 . S
C1643 C1640 1.403 . S
C1643 C1644 1.524 . S
C1643 C1647 1.400 . S
C1644 H1629 0.960 . S
C1644 H1630 0.960 . S
C1644 H1631 0.960 . S
C1644 C1643 1.524 . S
C1645 C1642 1.403 . S
C1645 C1646 1.392 . S
C1645 C1649 1.495 . S
C1646 C1645 1.392 . S
C1646 C1647 1.385 . S
C1646 C1648 1.478 . S
C1647 H1641 0.930 . S
C1647 C1643 1.400 . S
C1647 C1646 1.385 . S
C1648 C1646 1.478 . S
C1648 C1650 1.381 . S
C1648 C1654 1.383 . S
C1649 C1645 1.495 . S
C1649 H1655 0.959 . S
C1649 H1656 0.961 . S
C1649 H1657 0.960 . S
C1650 C1648 1.381 . S
C1650 C1651 1.394 . S
C1650 H1658 0.930 . S
C1651 C1650 1.394 . S
C1651 C1652 1.383 . S
C1651 H1659 0.929 . S
C1652 C1651 1.383 . S
C1652 C1653 1.377 . S
C1653 H1637 0.930 . S
C1653 C1652 1.377 . S
C1653 C1654 1.379 . S
C1654 H1638 0.931 . S
C1654 C1648 1.383 . S
C1654 C1653 1.379 . S
H1655 C1649 0.959 . S
H1656 C1649 0.961 . S
H1657 C1649 0.960 . S
H1658 C1650 0.930 . S
H1659 C1651 0.929 . S
H1660 C1668 0.929 . S
H1661 C1670 0.930 . S
H1662 C1672 0.930 . S
H1663 C1675 0.929 . S
H1664 C1678 0.930 . S
H1665 C1680 0.960 . S
H1666 C1680 0.960 . S
H1667 C1680 0.960 . S
C1668 H1660 0.929 . S
C1668 C1669 1.377 . S
C1668 C1670 1.384 . S
C1669 C1668 1.377 . S
C1669 C1675 1.390 . S
C1670 H1661 0.930 . S
C1670 C1668 1.384 . S
C1670 C1671 1.372 . S
C1671 C1670 1.372 . S
C1671 C1672 1.400 . S
C1671 C1676 1.490 . S
C1672 H1662 0.930 . S
C1672 C1671 1.400 . S
C1672 C1675 1.386 . S
H1673 C1689 0.930 . S
H1674 C1690 0.931 . S
C1675 H1663 0.929 . S
C1675 C1669 1.390 . S
C1675 C1672 1.386 . S
C1676 C1671 1.490 . S
C1676 C1678 1.395 . S
C1676 C1679 1.403 . S
H1677 C1683 0.930 . S
C1678 H1664 0.930 . S
C1678 C1676 1.395 . S
C1678 C1681 1.403 . S
C1679 C1676 1.403 . S
C1679 C1680 1.524 . S
C1679 C1683 1.400 . S
C1680 H1665 0.960 . S
C1680 H1666 0.960 . S
C1680 H1667 0.960 . S
C1680 C1679 1.524 . S
C1681 C1678 1.403 . S
C1681 C1682 1.392 . S
C1681 C1685 1.495 . S
C1682 C1681 1.392 . S
C1682 C1683 1.385 . S
C1682 C1684 1.478 . S
C1683 H1677 0.930 . S
C1683 C1679 1.400 . S
C1683 C1682 1.385 . S
C1684 C1682 1.478 . S
C1684 C1686 1.381 . S
C1684 C1690 1.383 . S
C1685 C1681 1.495 . S
C1685 H1691 0.959 . S
C1685 H1692 0.961 . S
C1685 H1693 0.960 . S
C1686 C1684 1.381 . S
C1686 C1687 1.394 . S
C1686 H1694 0.930 . S
C1687 C1686 1.394 . S
C1687 C1688 1.383 . S
C1687 H1695 0.929 . S
C1688 C1687 1.383 . S
C1688 C1689 1.377 . S
C1689 H1673 0.930 . S
C1689 C1688 1.377 . S
C1689 C1690 1.379 . S
C1690 H1674 0.931 . S
C1690 C1684 1.383 . S
C1690 C1689 1.379 . S
H1691 C1685 0.959 . S
H1692 C1685 0.961 . S
H1693 C1685 0.960 . S
H1694 C1686 0.930 . S
H1695 C1687 0.929 . S
H1696 C1704 0.929 . S
H1697 C1706 0.930 . S
H1698 C1708 0.930 . S
H1699 C1711 0.929 . S
H1700 C1714 0.930 . S
H1701 C1716 0.960 . S
H1702 C1716 0.960 . S
H1703 C1716 0.960 . S
C1704 H1696 0.929 . S
C1704 C1705 1.377 . S
C1704 C1706 1.384 . S
C1705 C1704 1.377 . S
C1705 C1711 1.390 . S
C1706 H1697 0.930 . S
C1706 C1704 1.384 . S
C1706 C1707 1.372 . S
C1707 C1706 1.372 . S
C1707 C1708 1.400 . S
C1707 C1712 1.490 . S
C1708 H1698 0.930 . S
C1708 C1707 1.400 . S
C1708 C1711 1.386 . S
H1709 C1725 0.930 . S
H1710 C1726 0.931 . S
C1711 H1699 0.929 . S
C1711 C1705 1.390 . S
C1711 C1708 1.386 . S
C1712 C1707 1.490 . S
C1712 C1714 1.395 . S
C1712 C1715 1.403 . S
H1713 C1719 0.930 . S
C1714 H1700 0.930 . S
C1714 C1712 1.395 . S
C1714 C1717 1.403 . S
C1715 C1712 1.403 . S
C1715 C1716 1.524 . S
C1715 C1719 1.400 . S
C1716 H1701 0.960 . S
C1716 H1702 0.960 . S
C1716 H1703 0.960 . S
C1716 C1715 1.524 . S
C1717 C1714 1.403 . S
C1717 C1718 1.392 . S
C1717 C1721 1.495 . S
C1718 C1717 1.392 . S
C1718 C1719 1.385 . S
C1718 C1720 1.478 . S
C1719 H1713 0.930 . S
C1719 C1715 1.400 . S
C1719 C1718 1.385 . S
C1720 C1718 1.478 . S
C1720 C1722 1.381 . S
C1720 C1726 1.383 . S
C1721 C1717 1.495 . S
C1721 H1727 0.959 . S
C1721 H1728 0.961 . S
C1721 H1729 0.960 . S
C1722 C1720 1.381 . S
C1722 C1723 1.394 . S
C1722 H1730 0.930 . S
C1723 C1722 1.394 . S
C1723 C1724 1.383 . S
C1723 H1731 0.929 . S
C1724 C1723 1.383 . S
C1724 C1725 1.377 . S
C1725 H1709 0.930 . S
C1725 C1724 1.377 . S
C1725 C1726 1.379 . S
C1726 H1710 0.931 . S
C1726 C1720 1.383 . S
C1726 C1725 1.379 . S
H1727 C1721 0.959 . S
H1728 C1721 0.961 . S
H1729 C1721 0.960 . S
H1730 C1722 0.930 . S
H1731 C1723 0.929 . S
H1732 C1740 0.929 . S
H1733 C1742 0.930 . S
H1734 C1744 0.930 . S
H1735 C1747 0.929 . S
H1736 C1750 0.930 . S
H1737 C1752 0.960 . S
H1738 C1752 0.960 . S
H1739 C1752 0.960 . S
C1740 H1732 0.929 . S
C1740 C1741 1.377 . S
C1740 C1742 1.384 . S
C1741 C1740 1.377 . S
C1741 C1747 1.390 . S
C1742 H1733 0.930 . S
C1742 C1740 1.384 . S
C1742 C1743 1.372 . S
C1743 C1742 1.372 . S
C1743 C1744 1.400 . S
C1743 C1748 1.490 . S
C1744 H1734 0.930 . S
C1744 C1743 1.400 . S
C1744 C1747 1.386 . S
H1745 C1761 0.930 . S
H1746 C1762 0.931 . S
C1747 H1735 0.929 . S
C1747 C1741 1.390 . S
C1747 C1744 1.386 . S
C1748 C1743 1.490 . S
C1748 C1750 1.395 . S
C1748 C1751 1.403 . S
H1749 C1755 0.930 . S
C1750 H1736 0.930 . S
C1750 C1748 1.395 . S
C1750 C1753 1.403 . S
C1751 C1748 1.403 . S
C1751 C1752 1.524 . S
C1751 C1755 1.400 . S
C1752 H1737 0.960 . S
C1752 H1738 0.960 . S
C1752 H1739 0.960 . S
C1752 C1751 1.524 . S
C1753 C1750 1.403 . S
C1753 C1754 1.392 . S
C1753 C1757 1.495 . S
C1754 C1753 1.392 . S
C1754 C1755 1.385 . S
C1754 C1756 1.478 . S
C1755 H1749 0.930 . S
C1755 C1751 1.400 . S
C1755 C1754 1.385 . S
C1756 C1754 1.478 . S
C1756 C1758 1.381 . S
C1756 C1762 1.383 . S
C1757 C1753 1.495 . S
C1757 H1763 0.959 . S
C1757 H1764 0.961 . S
C1757 H1765 0.960 . S
C1758 C1756 1.381 . S
C1758 C1759 1.394 . S
C1758 H1766 0.930 . S
C1759 C1758 1.394 . S
C1759 C1760 1.383 . S
C1759 H1767 0.929 . S
C1760 C1759 1.383 . S
C1760 C1761 1.377 . S
C1761 H1745 0.930 . S
C1761 C1760 1.377 . S
C1761 C1762 1.379 . S
C1762 H1746 0.931 . S
C1762 C1756 1.383 . S
C1762 C1761 1.379 . S
H1763 C1757 0.959 . S
H1764 C1757 0.961 . S
H1765 C1757 0.960 . S
H1766 C1758 0.930 . S
H1767 C1759 0.929 . S
H1768 C1776 0.929 . S
H1769 C1778 0.930 . S
H1770 C1780 0.930 . S
H1771 C1783 0.929 . S
H1772 C1786 0.930 . S
H1773 C1788 0.960 . S
H1774 C1788 0.960 . S
H1775 C1788 0.960 . S
C1776 H1768 0.929 . S
C1776 C1777 1.377 . S
C1776 C1778 1.384 . S
C1777 C1776 1.377 . S
C1777 C1783 1.390 . S
C1778 H1769 0.930 . S
C1778 C1776 1.384 . S
C1778 C1779 1.372 . S
C1779 C1778 1.372 . S
C1779 C1780 1.400 . S
C1779 C1784 1.490 . S
C1780 H1770 0.930 . S
C1780 C1779 1.400 . S
C1780 C1783 1.386 . S
H1781 C1797 0.930 . S
H1782 C1798 0.931 . S
C1783 H1771 0.929 . S
C1783 C1777 1.390 . S
C1783 C1780 1.386 . S
C1784 C1779 1.490 . S
C1784 C1786 1.395 . S
C1784 C1787 1.403 . S
H1785 C1791 0.930 . S
C1786 H1772 0.930 . S
C1786 C1784 1.395 . S
C1786 C1789 1.403 . S
C1787 C1784 1.403 . S
C1787 C1788 1.524 . S
C1787 C1791 1.400 . S
C1788 H1773 0.960 . S
C1788 H1774 0.960 . S
C1788 H1775 0.960 . S
C1788 C1787 1.524 . S
C1789 C1786 1.403 . S
C1789 C1790 1.392 . S
C1789 C1793 1.495 . S
C1790 C1789 1.392 . S
C1790 C1791 1.385 . S
C1790 C1792 1.478 . S
C1791 H1785 0.930 . S
C1791 C1787 1.400 . S
C1791 C1790 1.385 . S
C1792 C1790 1.478 . S
C1792 C1794 1.381 . S
C1792 C1798 1.383 . S
C1793 C1789 1.495 . S
C1793 H1799 0.959 . S
C1793 H1800 0.961 . S
C1793 H1801 0.960 . S
C1794 C1792 1.381 . S
C1794 C1795 1.394 . S
C1794 H1802 0.930 . S
C1795 C1794 1.394 . S
C1795 C1796 1.383 . S
C1795 H1803 0.929 . S
C1796 C1795 1.383 . S
C1796 C1797 1.377 . S
C1797 H1781 0.930 . S
C1797 C1796 1.377 . S
C1797 C1798 1.379 . S
C1798 H1782 0.931 . S
C1798 C1792 1.383 . S
C1798 C1797 1.379 . S
H1799 C1793 0.959 . S
H1800 C1793 0.961 . S
H1801 C1793 0.960 . S
H1802 C1794 0.930 . S
H1803 C1795 0.929 . S
H1804 C1812 0.929 . S
H1805 C1814 0.930 . S
H1806 C1816 0.930 . S
H1807 C1819 0.929 . S
H1808 C1822 0.930 . S
H1809 C1824 0.960 . S
H1810 C1824 0.960 . S
H1811 C1824 0.960 . S
C1812 H1804 0.929 . S
C1812 C1813 1.377 . S
C1812 C1814 1.384 . S
C1813 C1812 1.377 . S
C1813 C1819 1.390 . S
C1814 H1805 0.930 . S
C1814 C1812 1.384 . S
C1814 C1815 1.372 . S
C1815 C1814 1.372 . S
C1815 C1816 1.400 . S
C1815 C1820 1.490 . S
C1816 H1806 0.930 . S
C1816 C1815 1.400 . S
C1816 C1819 1.386 . S
H1817 C1833 0.930 . S
H1818 C1834 0.931 . S
C1819 H1807 0.929 . S
C1819 C1813 1.390 . S
C1819 C1816 1.386 . S
C1820 C1815 1.490 . S
C1820 C1822 1.395 . S
C1820 C1823 1.403 . S
H1821 C1827 0.930 . S
C1822 H1808 0.930 . S
C1822 C1820 1.395 . S
C1822 C1825 1.403 . S
C1823 C1820 1.403 . S
C1823 C1824 1.524 . S
C1823 C1827 1.400 . S
C1824 H1809 0.960 . S
C1824 H1810 0.960 . S
C1824 H1811 0.960 . S
C1824 C1823 1.524 . S
C1825 C1822 1.403 . S
C1825 C1826 1.392 . S
C1825 C1829 1.495 . S
C1826 C1825 1.392 . S
C1826 C1827 1.385 . S
C1826 C1828 1.478 . S
C1827 H1821 0.930 . S
C1827 C1823 1.400 . S
C1827 C1826 1.385 . S
C1828 C1826 1.478 . S
C1828 C1830 1.381 . S
C1828 C1834 1.383 . S
C1829 C1825 1.495 . S
C1829 H1835 0.959 . S
C1829 H1836 0.961 . S
C1829 H1837 0.960 . S
C1830 C1828 1.381 . S
C1830 C1831 1.394 . S
C1830 H1838 0.930 . S
C1831 C1830 1.394 . S
C1831 C1832 1.383 . S
C1831 H1839 0.929 . S
C1832 C1831 1.383 . S
C1832 C1833 1.377 . S
C1833 H1817 0.930 . S
C1833 C1832 1.377 . S
C1833 C1834 1.379 . S
C1834 H1818 0.931 . S
C1834 C1828 1.383 . S
C1834 C1833 1.379 . S
H1835 C1829 0.959 . S
H1836 C1829 0.961 . S
H1837 C1829 0.960 . S
H1838 C1830 0.930 . S
H1839 C1831 0.929 . S
H1840 C1848 0.929 . S
H1841 C1850 0.930 . S
H1842 C1852 0.930 . S
H1843 C1855 0.929 . S
H1844 C1858 0.930 . S
H1845 C1860 0.960 . S
H1846 C1860 0.960 . S
H1847 C1860 0.960 . S
C1848 H1840 0.929 . S
C1848 C1849 1.377 . S
C1848 C1850 1.384 . S
C1849 C1848 1.377 . S
C1849 C1855 1.390 . S
C1850 H1841 0.930 . S
C1850 C1848 1.384 . S
C1850 C1851 1.372 . S
C1851 C1850 1.372 . S
C1851 C1852 1.400 . S
C1851 C1856 1.490 . S
C1852 H1842 0.930 . S
C1852 C1851 1.400 . S
C1852 C1855 1.386 . S
H1853 C1869 0.930 . S
H1854 C1870 0.931 . S
C1855 H1843 0.929 . S
C1855 C1849 1.390 . S
C1855 C1852 1.386 . S
C1856 C1851 1.490 . S
C1856 C1858 1.395 . S
C1856 C1859 1.403 . S
H1857 C1863 0.930 . S
C1858 H1844 0.930 . S
C1858 C1856 1.395 . S
C1858 C1861 1.403 . S
C1859 C1856 1.403 . S
C1859 C1860 1.524 . S
C1859 C1863 1.400 . S
C1860 H1845 0.960 . S
C1860 H1846 0.960 . S
C1860 H1847 0.960 . S
C1860 C1859 1.524 . S
C1861 C1858 1.403 . S
C1861 C1862 1.392 . S
C1861 C1865 1.495 . S
C1862 C1861 1.392 . S
C1862 C1863 1.385 . S
C1862 C1864 1.478 . S
C1863 H1857 0.930 . S
C1863 C1859 1.400 . S
C1863 C1862 1.385 . S
C1864 C1862 1.478 . S
C1864 C1866 1.381 . S
C1864 C1870 1.383 . S
C1865 C1861 1.495 . S
C1865 H1871 0.959 . S
C1865 H1872 0.961 . S
C1865 H1873 0.960 . S
C1866 C1864 1.381 . S
C1866 C1867 1.394 . S
C1866 H1874 0.930 . S
C1867 C1866 1.394 . S
C1867 C1868 1.383 . S
C1867 H1875 0.929 . S
C1868 C1867 1.383 . S
C1868 C1869 1.377 . S
C1869 H1853 0.930 . S
C1869 C1868 1.377 . S
C1869 C1870 1.379 . S
C1870 H1854 0.931 . S
C1870 C1864 1.383 . S
C1870 C1869 1.379 . S
H1871 C1865 0.959 . S
H1872 C1865 0.961 . S
H1873 C1865 0.960 . S
H1874 C1866 0.930 . S
H1875 C1867 0.929 . S
H1876 C1884 0.929 . S
H1877 C1886 0.930 . S
H1878 C1888 0.930 . S
H1879 C1891 0.929 . S
H1880 C1894 0.930 . S
H1881 C1896 0.960 . S
H1882 C1896 0.960 . S
H1883 C1896 0.960 . S
C1884 H1876 0.929 . S
C1884 C1885 1.377 . S
C1884 C1886 1.384 . S
C1885 C1884 1.377 . S
C1885 C1891 1.390 . S
C1886 H1877 0.930 . S
C1886 C1884 1.384 . S
C1886 C1887 1.372 . S
C1887 C1886 1.372 . S
C1887 C1888 1.400 . S
C1887 C1892 1.490 . S
C1888 H1878 0.930 . S
C1888 C1887 1.400 . S
C1888 C1891 1.386 . S
H1889 C1905 0.930 . S
H1890 C1906 0.931 . S
C1891 H1879 0.929 . S
C1891 C1885 1.390 . S
C1891 C1888 1.386 . S
C1892 C1887 1.490 . S
C1892 C1894 1.395 . S
C1892 C1895 1.403 . S
H1893 C1899 0.930 . S
C1894 H1880 0.930 . S
C1894 C1892 1.395 . S
C1894 C1897 1.403 . S
C1895 C1892 1.403 . S
C1895 C1896 1.524 . S
C1895 C1899 1.400 . S
C1896 H1881 0.960 . S
C1896 H1882 0.960 . S
C1896 H1883 0.960 . S
C1896 C1895 1.524 . S
C1897 C1894 1.403 . S
C1897 C1898 1.392 . S
C1897 C1901 1.495 . S
C1898 C1897 1.392 . S
C1898 C1899 1.385 . S
C1898 C1900 1.478 . S
C1899 H1893 0.930 . S
C1899 C1895 1.400 . S
C1899 C1898 1.385 . S
C1900 C1898 1.478 . S
C1900 C1902 1.381 . S
C1900 C1906 1.383 . S
C1901 C1897 1.495 . S
C1901 H1907 0.959 . S
C1901 H1908 0.961 . S
C1901 H1909 0.960 . S
C1902 C1900 1.381 . S
C1902 C1903 1.394 . S
C1902 H1910 0.930 . S
C1903 C1902 1.394 . S
C1903 C1904 1.383 . S
C1903 H1911 0.929 . S
C1904 C1903 1.383 . S
C1904 C1905 1.377 . S
C1905 H1889 0.930 . S
C1905 C1904 1.377 . S
C1905 C1906 1.379 . S
C1906 H1890 0.931 . S
C1906 C1900 1.383 . S
C1906 C1905 1.379 . S
H1907 C1901 0.959 . S
H1908 C1901 0.961 . S
H1909 C1901 0.960 . S
H1910 C1902 0.930 . S
H1911 C1903 0.929 . S
H1912 C1920 0.929 . S
H1913 C1922 0.930 . S
H1914 C1924 0.930 . S
H1915 C1927 0.929 . S
H1916 C1930 0.930 . S
H1917 C1932 0.960 . S
H1918 C1932 0.960 . S
H1919 C1932 0.960 . S
C1920 H1912 0.929 . S
C1920 C1921 1.377 . S
C1920 C1922 1.384 . S
C1921 C1920 1.377 . S
C1921 C1927 1.390 . S
C1922 H1913 0.930 . S
C1922 C1920 1.384 . S
C1922 C1923 1.372 . S
C1923 C1922 1.372 . S
C1923 C1924 1.400 . S
C1923 C1928 1.490 . S
C1924 H1914 0.930 . S
C1924 C1923 1.400 . S
C1924 C1927 1.386 . S
H1925 C1941 0.930 . S
H1926 C1942 0.931 . S
C1927 H1915 0.929 . S
C1927 C1921 1.390 . S
C1927 C1924 1.386 . S
C1928 C1923 1.490 . S
C1928 C1930 1.395 . S
C1928 C1931 1.403 . S
H1929 C1935 0.930 . S
C1930 H1916 0.930 . S
C1930 C1928 1.395 . S
C1930 C1933 1.403 . S
C1931 C1928 1.403 . S
C1931 C1932 1.524 . S
C1931 C1935 1.400 . S
C1932 H1917 0.960 . S
C1932 H1918 0.960 . S
C1932 H1919 0.960 . S
C1932 C1931 1.524 . S
C1933 C1930 1.403 . S
C1933 C1934 1.392 . S
C1933 C1937 1.495 . S
C1934 C1933 1.392 . S
C1934 C1935 1.385 . S
C1934 C1936 1.478 . S
C1935 H1929 0.930 . S
C1935 C1931 1.400 . S
C1935 C1934 1.385 . S
C1936 C1934 1.478 . S
C1936 C1938 1.381 . S
C1936 C1942 1.383 . S
C1937 C1933 1.495 . S
C1937 H1943 0.959 . S
C1937 H1944 0.961 . S
C1937 H1945 0.960 . S
C1938 C1936 1.381 . S
C1938 C1939 1.394 . S
C1938 H1946 0.930 . S
C1939 C1938 1.394 . S
C1939 C1940 1.383 . S
C1939 H1947 0.929 . S
C1940 C1939 1.383 . S
C1940 C1941 1.377 . S
C1941 H1925 0.930 . S
C1941 C1940 1.377 . S
C1941 C1942 1.379 . S
C1942 H1926 0.931 . S
C1942 C1936 1.383 . S
C1942 C1941 1.379 . S
H1943 C1937 0.959 . S
H1944 C1937 0.961 . S
H1945 C1937 0.960 . S
H1946 C1938 0.930 . S
H1947 C1939 0.929 . S
H1948 C1956 0.929 . S
H1949 C1958 0.930 . S
H1950 C1960 0.930 . S
H1951 C1963 0.929 . S
H1952 C1966 0.930 . S
H1953 C1968 0.960 . S
H1954 C1968 0.960 . S
H1955 C1968 0.960 . S
C1956 H1948 0.929 . S
C1956 C1957 1.377 . S
C1956 C1958 1.384 . S
C1957 C1956 1.377 . S
C1957 C1963 1.390 . S
C1958 H1949 0.930 . S
C1958 C1956 1.384 . S
C1958 C1959 1.372 . S
C1959 C1958 1.372 . S
C1959 C1960 1.400 . S
C1959 C1964 1.490 . S
C1960 H1950 0.930 . S
C1960 C1959 1.400 . S
C1960 C1963 1.386 . S
H1961 C1977 0.930 . S
H1962 C1978 0.931 . S
C1963 H1951 0.929 . S
C1963 C1957 1.390 . S
C1963 C1960 1.386 . S
C1964 C1959 1.490 . S
C1964 C1966 1.395 . S
C1964 C1967 1.403 . S
H1965 C1971 0.930 . S
C1966 H1952 0.930 . S
C1966 C1964 1.395 . S
C1966 C1969 1.403 . S
C1967 C1964 1.403 . S
C1967 C1968 1.524 . S
C1967 C1971 1.400 . S
C1968 H1953 0.960 . S
C1968 H1954 0.960 . S
C1968 H1955 0.960 . S
C1968 C1967 1.524 . S
C1969 C1966 1.403 . S
C1969 C1970 1.392 . S
C1969 C1973 1.495 . S
C1970 C1969 1.392 . S
C1970 C1971 1.385 . S
C1970 C1972 1.478 . S
C1971 H1965 0.930 . S
C1971 C1967 1.400 . S
C1971 C1970 1.385 . S
C1972 C1970 1.478 . S
C1972 C1974 1.381 . S
C1972 C1978 1.383 . S
C1973 C1969 1.495 . S
C1973 H1979 0.959 . S
C1973 H1980 0.961 . S
C1973 H1981 0.960 . S
C1974 C1972 1.381 . S
C1974 C1975 1.394 . S
C1974 H1982 0.930 . S
C1975 C1974 1.394 . S
C1975 C1976 1.383 . S
C1975 H1983 0.929 . S
C1976 C1975 1.383 . S
C1976 C1977 1.377 . S
C1977 H1961 0.930 . S
C1977 C1976 1.377 . S
C1977 C1978 1.379 . S
C1978 H1962 0.931 . S
C1978 C1972 1.383 . S
C1978 C1977 1.379 . S
H1979 C1973 0.959 . S
H1980 C1973 0.961 . S
H1981 C1973 0.960 . S
H1982 C1974 0.930 . S
H1983 C1975 0.929 . S
H1984 C1992 0.929 . S
H1985 C1994 0.930 . S
H1986 C1996 0.930 . S
H1987 C1999 0.929 . S
H1988 C2002 0.930 . S
H1989 C2004 0.960 . S
H1990 C2004 0.976 . S
H1991 C2004 0.960 . S
C1992 H1984 0.929 . S
C1992 C1993 1.377 . S
C1992 C1994 1.384 . S
C1993 C1992 1.377 . S
C1993 C1999 1.390 . S
C1994 H1985 0.930 . S
C1994 C1992 1.384 . S
C1994 C1995 1.372 . S
C1995 C1994 1.372 . S
C1995 C1996 1.400 . S
C1995 C2000 1.490 . S
C1996 H1986 0.930 . S
C1996 C1995 1.400 . S
C1996 C1999 1.386 . S
H1997 C2013 0.930 . S
H1998 C2014 0.931 . S
C1999 H1987 0.929 . S
C1999 C1993 1.390 . S
C1999 C1996 1.386 . S
C2000 C1995 1.490 . S
C2000 C2002 1.395 . S
C2000 C2003 1.403 . S
H2001 C2007 0.930 . S
C2002 H1988 0.930 . S
C2002 C2000 1.395 . S
C2002 C2005 1.403 . S
C2003 C2000 1.403 . S
C2003 C2004 1.524 . S
C2003 C2007 1.400 . S
C2004 H1989 0.960 . S
C2004 H1990 0.976 . S
C2004 H1991 0.960 . S
C2004 C2003 1.524 . S
C2005 C2002 1.403 . S
C2005 C2006 1.392 . S
C2005 C2009 1.495 . S
C2006 C2005 1.392 . S
C2006 C2007 1.385 . S
C2006 C2008 1.478 . S
C2007 H2001 0.930 . S
C2007 C2003 1.400 . S
C2007 C2006 1.385 . S
C2008 C2006 1.478 . S
C2008 C2010 1.381 . S
C2008 C2014 1.383 . S
C2009 C2005 1.495 . S
C2009 H2015 0.959 . S
C2009 H2016 0.961 . S
C2009 H2017 0.960 . S
C2010 C2008 1.381 . S
C2010 C2011 1.394 . S
C2010 H2018 0.930 . S
C2011 C2010 1.394 . S
C2011 C2012 1.383 . S
C2011 H2019 0.929 . S
C2012 C2011 1.383 . S
C2012 C2013 1.377 . S
C2013 H1997 0.930 . S
C2013 C2012 1.377 . S
C2013 C2014 1.379 . S
C2014 H1998 0.931 . S
C2014 C2008 1.383 . S
C2014 C2013 1.379 . S
H2015 C2009 0.959 . S
H2016 C2009 0.961 . S
H2017 C2009 0.960 . S
H2018 C2010 0.930 . S
H2019 C2011 0.929 . S
H2020 C2028 0.929 . S
H2021 C2030 0.930 . S
H2022 C2032 0.930 . S
H2023 C2035 0.929 . S
H2024 C2038 0.930 . S
H2025 C2040 0.960 . S
H2026 C2040 0.960 . S
H2027 C2040 0.960 . S
C2028 H2020 0.929 . S
C2028 C2029 1.377 . S
C2028 C2030 1.384 . S
C2029 C2028 1.377 . S
C2029 C2035 1.390 . S
C2030 H2021 0.930 . S
C2030 C2028 1.384 . S
C2030 C2031 1.372 . S
C2031 C2030 1.372 . S
C2031 C2032 1.400 . S
C2031 C2036 1.490 . S
C2032 H2022 0.930 . S
C2032 C2031 1.400 . S
C2032 C2035 1.386 . S
H2033 C2049 0.930 . S
H2034 C2050 0.931 . S
C2035 H2023 0.929 . S
C2035 C2029 1.390 . S
C2035 C2032 1.386 . S
C2036 C2031 1.490 . S
C2036 C2038 1.395 . S
C2036 C2039 1.403 . S
H2037 C2043 0.930 . S
C2038 H2024 0.930 . S
C2038 C2036 1.395 . S
C2038 C2041 1.403 . S
C2039 C2036 1.403 . S
C2039 C2040 1.524 . S
C2039 C2043 1.400 . S
C2040 H2025 0.960 . S
C2040 H2026 0.960 . S
C2040 H2027 0.960 . S
C2040 C2039 1.524 . S
C2041 C2038 1.403 . S
C2041 C2042 1.392 . S
C2041 C2045 1.495 . S
C2042 C2041 1.392 . S
C2042 C2043 1.385 . S
C2042 C2044 1.478 . S
C2043 H2037 0.930 . S
C2043 C2039 1.400 . S
C2043 C2042 1.385 . S
C2044 C2042 1.478 . S
C2044 C2046 1.381 . S
C2044 C2050 1.383 . S
C2045 C2041 1.495 . S
C2045 H2051 0.959 . S
C2045 H2052 0.961 . S
C2045 H2053 0.960 . S
C2046 C2044 1.381 . S
C2046 C2047 1.394 . S
C2046 H2054 0.930 . S
C2047 C2046 1.394 . S
C2047 C2048 1.383 . S
C2047 H2055 0.929 . S
C2048 C2047 1.383 . S
C2048 C2049 1.377 . S
C2049 H2033 0.930 . S
C2049 C2048 1.377 . S
C2049 C2050 1.379 . S
C2050 H2034 0.931 . S
C2050 C2044 1.383 . S
C2050 C2049 1.379 . S
H2051 C2045 0.959 . S
H2052 C2045 0.961 . S
H2053 C2045 0.960 . S
H2054 C2046 0.930 . S
H2055 C2047 0.929 . S
H2056 C2064 0.929 . S
H2057 C2066 0.930 . S
H2058 C2068 0.930 . S
H2059 C2071 0.929 . S
H2060 C2074 0.930 . S
H2061 C2076 0.960 . S
H2062 C2076 0.960 . S
H2063 C2076 0.960 . S
C2064 H2056 0.929 . S
C2064 C2065 1.377 . S
C2064 C2066 1.384 . S
C2065 C2064 1.377 . S
C2065 C2071 1.390 . S
C2066 H2057 0.930 . S
C2066 C2064 1.384 . S
C2066 C2067 1.372 . S
C2067 C2066 1.372 . S
C2067 C2068 1.400 . S
C2067 C2072 1.490 . S
C2068 H2058 0.930 . S
C2068 C2067 1.400 . S
C2068 C2071 1.386 . S
H2069 C2085 0.930 . S
H2070 C2086 0.931 . S
C2071 H2059 0.929 . S
C2071 C2065 1.390 . S
C2071 C2068 1.386 . S
C2072 C2067 1.490 . S
C2072 C2074 1.395 . S
C2072 C2075 1.403 . S
H2073 C2079 0.930 . S
C2074 H2060 0.930 . S
C2074 C2072 1.395 . S
C2074 C2077 1.403 . S
C2075 C2072 1.403 . S
C2075 C2076 1.524 . S
C2075 C2079 1.400 . S
C2076 H2061 0.960 . S
C2076 H2062 0.960 . S
C2076 H2063 0.960 . S
C2076 C2075 1.524 . S
C2077 C2074 1.403 . S
C2077 C2078 1.392 . S
C2077 C2081 1.495 . S
C2078 C2077 1.392 . S
C2078 C2079 1.385 . S
C2078 C2080 1.478 . S
C2079 H2073 0.930 . S
C2079 C2075 1.400 . S
C2079 C2078 1.385 . S
C2080 C2078 1.478 . S
C2080 C2082 1.381 . S
C2080 C2086 1.383 . S
C2081 C2077 1.495 . S
C2081 H2087 0.959 . S
C2081 H2088 0.961 . S
C2081 H2089 0.960 . S
C2082 C2080 1.381 . S
C2082 C2083 1.394 . S
C2082 H2090 0.930 . S
C2083 C2082 1.394 . S
C2083 C2084 1.383 . S
C2083 H2091 0.929 . S
C2084 C2083 1.383 . S
C2084 C2085 1.377 . S
C2085 H2069 0.930 . S
C2085 C2084 1.377 . S
C2085 C2086 1.379 . S
C2086 H2070 0.931 . S
C2086 C2080 1.383 . S
C2086 C2085 1.379 . S
H2087 C2081 0.959 . S
H2088 C2081 0.961 . S
H2089 C2081 0.960 . S
H2090 C2082 0.930 . S
H2091 C2083 0.929 . S
H2092 C2100 0.929 . S
H2093 C2102 0.930 . S
H2094 C2104 0.930 . S
H2095 C2107 0.929 . S
H2096 C2110 0.930 . S
H2097 C2112 0.960 . S
H2098 C2112 0.960 . S
H2099 C2112 0.960 . S
C2100 H2092 0.929 . S
C2100 C2101 1.377 . S
C2100 C2102 1.384 . S
C2101 C2100 1.377 . S
C2101 C2107 1.390 . S
C2102 H2093 0.930 . S
C2102 C2100 1.384 . S
C2102 C2103 1.372 . S
C2103 C2102 1.372 . S
C2103 C2104 1.400 . S
C2103 C2108 1.490 . S
C2104 H2094 0.930 . S
C2104 C2103 1.400 . S
C2104 C2107 1.386 . S
H2105 C2121 0.930 . S
H2106 C2122 0.931 . S
C2107 H2095 0.929 . S
C2107 C2101 1.390 . S
C2107 C2104 1.386 . S
C2108 C2103 1.490 . S
C2108 C2110 1.395 . S
C2108 C2111 1.403 . S
H2109 C2115 0.930 . S
C2110 H2096 0.930 . S
C2110 C2108 1.395 . S
C2110 C2113 1.403 . S
C2111 C2108 1.403 . S
C2111 C2112 1.524 . S
C2111 C2115 1.400 . S
C2112 H2097 0.960 . S
C2112 H2098 0.960 . S
C2112 H2099 0.960 . S
C2112 C2111 1.524 . S
C2113 C2110 1.403 . S
C2113 C2114 1.392 . S
C2113 C2117 1.495 . S
C2114 C2113 1.392 . S
C2114 C2115 1.385 . S
C2114 C2116 1.478 . S
C2115 H2109 0.930 . S
C2115 C2111 1.400 . S
C2115 C2114 1.385 . S
C2116 C2114 1.478 . S
C2116 C2118 1.381 . S
C2116 C2122 1.383 . S
C2117 C2113 1.495 . S
C2117 H2123 0.959 . S
C2117 H2124 0.961 . S
C2117 H2125 0.960 . S
C2118 C2116 1.381 . S
C2118 C2119 1.394 . S
C2118 H2126 0.930 . S
C2119 C2118 1.394 . S
C2119 C2120 1.383 . S
C2119 H2127 0.929 . S
C2120 C2119 1.383 . S
C2120 C2121 1.377 . S
C2121 H2105 0.930 . S
C2121 C2120 1.377 . S
C2121 C2122 1.379 . S
C2122 H2106 0.931 . S
C2122 C2116 1.383 . S
C2122 C2121 1.379 . S
H2123 C2117 0.959 . S
H2124 C2117 0.961 . S
H2125 C2117 0.960 . S
H2126 C2118 0.930 . S
H2127 C2119 0.929 . S
H2128 C2136 0.929 . S
H2129 C2138 0.930 . S
H2130 C2140 0.930 . S
H2131 C2143 0.929 . S
H2132 C2146 0.930 . S
H2133 C2148 0.960 . S
H2134 C2148 0.960 . S
H2135 C2148 0.960 . S
C2136 H2128 0.929 . S
C2136 C2137 1.377 . S
C2136 C2138 1.384 . S
C2137 C2136 1.377 . S
C2137 C2143 1.390 . S
C2138 H2129 0.930 . S
C2138 C2136 1.384 . S
C2138 C2139 1.372 . S
C2139 C2138 1.372 . S
C2139 C2140 1.400 . S
C2139 C2144 1.490 . S
C2140 H2130 0.930 . S
C2140 C2139 1.400 . S
C2140 C2143 1.386 . S
H2141 C2157 0.930 1_565 S
H2142 C2158 0.898 1_565 S
C2143 H2131 0.929 . S
C2143 C2137 1.390 . S
C2143 C2140 1.386 . S
C2144 C2139 1.490 . S
C2144 C2146 1.395 . S
C2144 C2147 1.403 . S
H2145 C2151 0.930 . S
C2146 H2132 0.930 . S
C2146 C2144 1.395 . S
C2146 C2149 1.403 . S
C2147 C2144 1.403 . S
C2147 C2148 1.524 . S
C2147 C2151 1.400 . S
C2148 H2133 0.960 . S
C2148 H2134 0.960 . S
C2148 H2135 0.960 . S
C2148 C2147 1.524 . S
C2149 C2146 1.403 . S
C2149 C2150 1.392 . S
C2149 C2153 1.495 . S
C2150 C2149 1.392 . S
C2150 C2151 1.385 . S
C2150 C2152 1.478 . S
C2151 H2145 0.930 . S
C2151 C2147 1.400 . S
C2151 C2150 1.385 . S
C2152 C2150 1.478 . S
C2152 C2154 1.381 . S
C2152 C2158 1.383 . S
C2153 C2149 1.495 . S
C2153 H2159 0.959 . S
C2153 H2160 0.961 . S
C2153 H2161 0.960 . S
C2154 C2152 1.381 . S
C2154 C2155 1.394 . S
C2154 H2162 0.930 . S
C2155 C2154 1.394 . S
C2155 C2156 1.383 . S
C2155 H2163 0.929 . S
C2156 C2155 1.383 . S
C2156 C2157 1.377 . S
C2157 H2141 0.930 1_545 S
C2157 C2156 1.377 . S
C2157 C2158 1.379 . S
C2158 H2142 0.898 1_545 S
C2158 C2152 1.383 . S
C2158 C2157 1.379 . S
H2159 C2153 0.959 . S
H2160 C2153 0.961 . S
H2161 C2153 0.960 . S
H2162 C2154 0.930 . S
H2163 C2155 0.929 . S
H2164 C2172 0.929 . S
H2165 C2174 0.930 . S
H2166 C2176 0.930 . S
H2167 C2179 0.929 . S
H2168 C2182 0.930 . S
H2169 C2184 0.960 . S
H2170 C2184 0.960 . S
H2171 C2184 0.960 . S
C2172 H2164 0.929 . S
C2172 C2173 1.377 . S
C2172 C2174 1.384 . S
C2173 C2172 1.377 . S
C2173 C2179 1.390 . S
C2174 H2165 0.930 . S
C2174 C2172 1.384 . S
C2174 C2175 1.372 . S
C2175 C2174 1.372 . S
C2175 C2176 1.400 . S
C2175 C2180 1.490 . S
C2176 H2166 0.930 . S
C2176 C2175 1.400 . S
C2176 C2179 1.386 . S
H2177 C2193 0.930 . S
H2178 C2194 0.931 . S
C2179 H2167 0.929 . S
C2179 C2173 1.390 . S
C2179 C2176 1.386 . S
C2180 C2175 1.490 . S
C2180 C2182 1.395 . S
C2180 C2183 1.403 . S
H2181 C2187 0.930 . S
C2182 H2168 0.930 . S
C2182 C2180 1.395 . S
C2182 C2185 1.403 . S
C2183 C2180 1.403 . S
C2183 C2184 1.524 . S
C2183 C2187 1.400 . S
C2184 H2169 0.960 . S
C2184 H2170 0.960 . S
C2184 H2171 0.960 . S
C2184 C2183 1.524 . S
C2185 C2182 1.403 . S
C2185 C2186 1.392 . S
C2185 C2189 1.495 . S
C2186 C2185 1.392 . S
C2186 C2187 1.385 . S
C2186 C2188 1.478 . S
C2187 H2181 0.930 . S
C2187 C2183 1.400 . S
C2187 C2186 1.385 . S
C2188 C2186 1.478 . S
C2188 C2190 1.381 . S
C2188 C2194 1.383 . S
C2189 C2185 1.495 . S
C2189 H2195 0.959 . S
C2189 H2196 0.961 . S
C2189 H2197 0.960 . S
C2190 C2188 1.381 . S
C2190 C2191 1.394 . S
C2190 H2198 0.930 . S
C2191 C2190 1.394 . S
C2191 C2192 1.383 . S
C2191 H2199 0.929 . S
C2192 C2191 1.383 . S
C2192 C2193 1.377 . S
C2193 H2177 0.930 . S
C2193 C2192 1.377 . S
C2193 C2194 1.379 . S
C2194 H2178 0.931 . S
C2194 C2188 1.383 . S
C2194 C2193 1.379 . S
H2195 C2189 0.959 . S
H2196 C2189 0.961 . S
H2197 C2189 0.960 . S
H2198 C2190 0.930 . S
H2199 C2191 0.929 . S
H2200 C2208 0.929 . S
H2201 C2210 0.930 . S
H2202 C2212 0.930 . S
H2203 C2215 0.929 . S
H2204 C2218 0.930 . S
H2205 C2220 0.960 . S
H2206 C2220 0.960 . S
H2207 C2220 0.960 . S
C2208 H2200 0.929 . S
C2208 C2209 1.377 . S
C2208 C2210 1.384 . S
C2209 C2208 1.377 . S
C2209 C2215 1.390 . S
C2210 H2201 0.930 . S
C2210 C2208 1.384 . S
C2210 C2211 1.372 . S
C2211 C2210 1.372 . S
C2211 C2212 1.400 . S
C2211 C2216 1.490 . S
C2212 H2202 0.930 . S
C2212 C2211 1.400 . S
C2212 C2215 1.386 . S
H2213 C2229 0.930 . S
H2214 C2230 0.931 . S
C2215 H2203 0.929 . S
C2215 C2209 1.390 . S
C2215 C2212 1.386 . S
C2216 C2211 1.490 . S
C2216 C2218 1.395 . S
C2216 C2219 1.403 . S
H2217 C2223 0.930 . S
C2218 H2204 0.930 . S
C2218 C2216 1.395 . S
C2218 C2221 1.403 . S
C2219 C2216 1.403 . S
C2219 C2220 1.524 . S
C2219 C2223 1.400 . S
C2220 H2205 0.960 . S
C2220 H2206 0.960 . S
C2220 H2207 0.960 . S
C2220 C2219 1.524 . S
C2221 C2218 1.403 . S
C2221 C2222 1.392 . S
C2221 C2225 1.495 . S
C2222 C2221 1.392 . S
C2222 C2223 1.385 . S
C2222 C2224 1.478 . S
C2223 H2217 0.930 . S
C2223 C2219 1.400 . S
C2223 C2222 1.385 . S
C2224 C2222 1.478 . S
C2224 C2226 1.381 . S
C2224 C2230 1.383 . S
C2225 C2221 1.495 . S
C2225 H2231 0.959 . S
C2225 H2232 0.961 . S
C2225 H2233 0.960 . S
C2226 C2224 1.381 . S
C2226 C2227 1.394 . S
C2226 H2234 0.930 . S
C2227 C2226 1.394 . S
C2227 C2228 1.383 . S
C2227 H2235 0.929 . S
C2228 C2227 1.383 . S
C2228 C2229 1.377 . S
C2229 H2213 0.930 . S
C2229 C2228 1.377 . S
C2229 C2230 1.379 . S
C2230 H2214 0.931 . S
C2230 C2224 1.383 . S
C2230 C2229 1.379 . S
H2231 C2225 0.959 . S
H2232 C2225 0.961 . S
H2233 C2225 0.960 . S
H2234 C2226 0.930 . S
H2235 C2227 0.929 . S
H2236 C2244 0.929 . S
H2237 C2246 0.930 . S
H2238 C2248 0.930 . S
H2239 C2251 0.929 . S
H2240 C2254 0.930 . S
H2241 C2256 0.960 . S
H2242 C2256 0.960 . S
H2243 C2256 0.960 . S
C2244 H2236 0.929 . S
C2244 C2245 1.377 . S
C2244 C2246 1.384 . S
C2245 C2244 1.377 . S
C2245 C2251 1.390 . S
C2246 H2237 0.930 . S
C2246 C2244 1.384 . S
C2246 C2247 1.372 . S
C2247 C2246 1.372 . S
C2247 C2248 1.400 . S
C2247 C2252 1.490 . S
C2248 H2238 0.930 . S
C2248 C2247 1.400 . S
C2248 C2251 1.386 . S
H2249 C2265 0.930 . S
H2250 C2266 0.931 . S
C2251 H2239 0.929 . S
C2251 C2245 1.390 . S
C2251 C2248 1.386 . S
C2252 C2247 1.490 . S
C2252 C2254 1.395 . S
C2252 C2255 1.403 . S
H2253 C2259 0.930 . S
C2254 H2240 0.930 . S
C2254 C2252 1.395 . S
C2254 C2257 1.403 . S
C2255 C2252 1.403 . S
C2255 C2256 1.524 . S
C2255 C2259 1.400 . S
C2256 H2241 0.960 . S
C2256 H2242 0.960 . S
C2256 H2243 0.960 . S
C2256 C2255 1.524 . S
C2257 C2254 1.403 . S
C2257 C2258 1.392 . S
C2257 C2261 1.495 . S
C2258 C2257 1.392 . S
C2258 C2259 1.385 . S
C2258 C2260 1.478 . S
C2259 H2253 0.930 . S
C2259 C2255 1.400 . S
C2259 C2258 1.385 . S
C2260 C2258 1.478 . S
C2260 C2262 1.381 . S
C2260 C2266 1.383 . S
C2261 C2257 1.495 . S
C2261 H2267 0.959 . S
C2261 H2268 0.961 . S
C2261 H2269 0.960 . S
C2262 C2260 1.381 . S
C2262 C2263 1.394 . S
C2262 H2270 0.930 . S
C2263 C2262 1.394 . S
C2263 C2264 1.383 . S
C2263 H2271 0.929 . S
C2264 C2263 1.383 . S
C2264 C2265 1.377 . S
C2265 H2249 0.930 . S
C2265 C2264 1.377 . S
C2265 C2266 1.379 . S
C2266 H2250 0.931 . S
C2266 C2260 1.383 . S
C2266 C2265 1.379 . S
H2267 C2261 0.959 . S
H2268 C2261 0.961 . S
H2269 C2261 0.960 . S
H2270 C2262 0.930 . S
H2271 C2263 0.929 . S
H2272 C2280 0.929 . S
H2273 C2282 0.930 . S
H2274 C2284 0.930 . S
H2275 C2287 0.929 . S
H2276 C2290 0.930 . S
H2277 C2292 0.931 1_565 S
H2278 C2292 0.960 . S
H2279 C2292 0.960 . S
C2280 H2272 0.929 . S
C2280 C2281 1.377 . S
C2280 C2282 1.384 . S
C2281 C2280 1.377 . S
C2281 C2287 1.390 . S
C2282 H2273 0.930 . S
C2282 C2280 1.384 . S
C2282 C2283 1.372 . S
C2283 C2282 1.372 . S
C2283 C2284 1.400 . S
C2283 C2288 1.490 . S
C2284 H2274 0.930 . S
C2284 C2283 1.400 . S
C2284 C2287 1.386 . S
H2285 C2301 0.930 . S
H2286 C2302 0.931 . S
C2287 H2275 0.929 . S
C2287 C2281 1.390 . S
C2287 C2284 1.386 . S
C2288 C2283 1.490 . S
C2288 C2290 1.395 . S
C2288 C2291 1.403 . S
H2289 C2295 0.930 . S
C2290 H2276 0.930 . S
C2290 C2288 1.395 . S
C2290 C2293 1.403 . S
C2291 C2288 1.403 . S
C2291 C2292 1.524 . S
C2291 C2295 1.400 . S
C2292 H2277 0.931 1_545 S
C2292 H2278 0.960 . S
C2292 H2279 0.960 . S
C2292 C2291 1.524 . S
C2293 C2290 1.403 . S
C2293 C2294 1.392 . S
C2293 C2297 1.495 . S
C2294 C2293 1.392 . S
C2294 C2295 1.385 . S
C2294 C2296 1.478 . S
C2295 H2289 0.930 . S
C2295 C2291 1.400 . S
C2295 C2294 1.385 . S
C2296 C2294 1.478 . S
C2296 C2298 1.381 . S
C2296 C2302 1.383 . S
C2297 C2293 1.495 . S
C2297 H2303 0.959 . S
C2297 H2304 0.961 . S
C2297 H2305 0.960 . S
C2298 C2296 1.381 . S
C2298 C2299 1.394 . S
C2298 H2306 0.930 . S
C2299 C2298 1.394 . S
C2299 C2300 1.383 . S
C2299 H2307 0.929 . S
C2300 C2299 1.383 . S
C2300 C2301 1.377 . S
C2301 H2285 0.930 . S
C2301 C2300 1.377 . S
C2301 C2302 1.379 . S
C2302 H2286 0.931 . S
C2302 C2296 1.383 . S
C2302 C2301 1.379 . S
H2303 C2297 0.959 . S
H2304 C2297 0.961 . S
H2305 C2297 0.960 . S
H2306 C2298 0.930 . S
H2307 C2299 0.929 . S
H2308 C2316 0.929 . S
H2309 C2318 0.930 . S
H2310 C2320 0.930 . S
H2311 C2323 0.929 . S
H2312 C2326 0.930 . S
H2313 C2328 0.960 . S
H2314 C2328 0.960 . S
H2315 C2328 0.960 . S
C2316 H2308 0.929 . S
C2316 C2317 1.377 . S
C2316 C2318 1.384 . S
C2317 C2316 1.377 . S
C2317 C2323 1.390 . S
C2318 H2309 0.930 . S
C2318 C2316 1.384 . S
C2318 C2319 1.372 . S
C2319 C2318 1.372 . S
C2319 C2320 1.400 . S
C2319 C2324 1.490 . S
C2320 H2310 0.930 . S
C2320 C2319 1.400 . S
C2320 C2323 1.386 . S
H2321 C2337 0.930 . S
H2322 C2338 0.931 . S
C2323 H2311 0.929 . S
C2323 C2317 1.390 . S
C2323 C2320 1.386 . S
C2324 C2319 1.490 . S
C2324 C2326 1.395 . S
C2324 C2327 1.403 . S
H2325 C2331 0.930 . S
C2326 H2312 0.930 . S
C2326 C2324 1.395 . S
C2326 C2329 1.403 . S
C2327 C2324 1.403 . S
C2327 C2328 1.524 . S
C2327 C2331 1.400 . S
C2328 H2313 0.960 . S
C2328 H2314 0.960 . S
C2328 H2315 0.960 . S
C2328 C2327 1.524 . S
C2329 C2326 1.403 . S
C2329 C2330 1.392 . S
C2329 C2333 1.495 . S
C2330 C2329 1.392 . S
C2330 C2331 1.385 . S
C2330 C2332 1.478 . S
C2331 H2325 0.930 . S
C2331 C2327 1.400 . S
C2331 C2330 1.385 . S
C2332 C2330 1.478 . S
C2332 C2334 1.381 . S
C2332 C2338 1.383 . S
C2333 C2329 1.495 . S
C2333 H2339 0.959 . S
C2333 H2340 0.961 . S
C2333 H2341 0.960 . S
C2334 C2332 1.381 . S
C2334 C2335 1.394 . S
C2334 H2342 0.930 . S
C2335 C2334 1.394 . S
C2335 C2336 1.383 . S
C2335 H2343 0.929 . S
C2336 C2335 1.383 . S
C2336 C2337 1.377 . S
C2337 H2321 0.930 . S
C2337 C2336 1.377 . S
C2337 C2338 1.379 . S
C2338 H2322 0.931 . S
C2338 C2332 1.383 . S
C2338 C2337 1.379 . S
H2339 C2333 0.959 . S
H2340 C2333 0.961 . S
H2341 C2333 0.960 . S
H2342 C2334 0.930 . S
H2343 C2335 0.929 . S
H2344 C2352 0.929 . S
H2345 C2354 0.930 . S
H2346 C2356 0.930 . S
H2347 C2359 0.929 . S
H2348 C2362 0.930 . S
H2349 C2364 0.960 . S
H2350 C2364 0.960 . S
H2351 C2364 0.960 . S
C2352 H2344 0.929 . S
C2352 C2353 1.377 . S
C2352 C2354 1.384 . S
C2353 C2352 1.377 . S
C2353 C2359 1.390 . S
C2354 H2345 0.930 . S
C2354 C2352 1.384 . S
C2354 C2355 1.372 . S
C2355 C2354 1.372 . S
C2355 C2356 1.400 . S
C2355 C2360 1.490 . S
C2356 H2346 0.930 . S
C2356 C2355 1.400 . S
C2356 C2359 1.386 . S
H2357 C2373 0.930 . S
H2358 C2374 0.931 . S
C2359 H2347 0.929 . S
C2359 C2353 1.390 . S
C2359 C2356 1.386 . S
C2360 C2355 1.490 . S
C2360 C2362 1.395 . S
C2360 C2363 1.403 . S
H2361 C2367 0.930 . S
C2362 H2348 0.930 . S
C2362 C2360 1.395 . S
C2362 C2365 1.403 . S
C2363 C2360 1.403 . S
C2363 C2364 1.524 . S
C2363 C2367 1.400 . S
C2364 H2349 0.960 . S
C2364 H2350 0.960 . S
C2364 H2351 0.960 . S
C2364 C2363 1.524 . S
C2365 C2362 1.403 . S
C2365 C2366 1.392 . S
C2365 C2369 1.495 1_545 S
C2366 C2365 1.392 . S
C2366 C2367 1.385 . S
C2366 C2368 1.478 . S
C2367 H2361 0.930 . S
C2367 C2363 1.400 . S
C2367 C2366 1.385 . S
C2368 C2366 1.478 . S
C2368 C2370 1.381 . S
C2368 C2374 1.383 . S
C2369 C2365 1.495 1_565 S
C2369 H2375 0.959 . S
C2369 H2376 0.961 . S
C2369 H2377 0.960 . S
C2370 C2368 1.381 . S
C2370 C2371 1.394 1_545 S
C2370 H2378 0.930 . S
C2371 C2370 1.394 1_565 S
C2371 C2372 1.383 . S
C2371 H2379 0.929 . S
C2372 C2371 1.383 . S
C2372 C2373 1.377 1_565 S
C2373 H2357 0.930 . S
C2373 C2372 1.377 1_545 S
C2373 C2374 1.379 . S
C2374 H2358 0.931 . S
C2374 C2368 1.383 . S
C2374 C2373 1.379 . S
H2375 C2369 0.959 . S
H2376 C2369 0.961 . S
H2377 C2369 0.960 . S
H2378 C2370 0.930 . S
H2379 C2371 0.929 . S
H2380 C2388 0.929 . S
H2381 C2390 0.930 . S
H2382 C2392 0.930 . S
H2383 C2395 0.929 . S
H2384 C2398 0.930 . S
H2385 C2400 0.960 . S
H2386 C2400 0.960 . S
H2387 C2400 0.960 . S
C2388 H2380 0.929 . S
C2388 C2389 1.377 . S
C2388 C2390 1.384 . S
C2389 C2388 1.377 . S
C2389 C2395 1.390 . S
C2390 H2381 0.930 . S
C2390 C2388 1.384 . S
C2390 C2391 1.372 . S
C2391 C2390 1.372 . S
C2391 C2392 1.400 . S
C2391 C2396 1.490 . S
C2392 H2382 0.930 . S
C2392 C2391 1.400 . S
C2392 C2395 1.386 . S
H2393 C2409 0.930 . S
H2394 C2410 0.931 . S
C2395 H2383 0.929 . S
C2395 C2389 1.390 . S
C2395 C2392 1.386 . S
C2396 C2391 1.490 . S
C2396 C2398 1.395 . S
C2396 C2399 1.403 . S
H2397 C2403 0.930 . S
C2398 H2384 0.930 . S
C2398 C2396 1.395 . S
C2398 C2401 1.403 . S
C2399 C2396 1.403 . S
C2399 C2400 1.524 . S
C2399 C2403 1.400 . S
C2400 H2385 0.960 . S
C2400 H2386 0.960 . S
C2400 H2387 0.960 . S
C2400 C2399 1.524 . S
C2401 C2398 1.403 . S
C2401 C2402 1.392 . S
C2401 C2405 1.495 . S
C2402 C2401 1.392 . S
C2402 C2403 1.385 . S
C2402 C2404 1.478 . S
C2403 H2397 0.930 . S
C2403 C2399 1.400 . S
C2403 C2402 1.385 . S
C2404 C2402 1.478 . S
C2404 C2406 1.381 . S
C2404 C2410 1.383 . S
C2405 C2401 1.495 . S
C2405 H2411 0.959 . S
C2405 H2412 0.961 . S
C2405 H2413 0.960 . S
C2406 C2404 1.381 . S
C2406 C2407 1.394 . S
C2406 H2414 0.930 . S
C2407 C2406 1.394 . S
C2407 C2408 1.383 . S
C2407 H2415 0.929 . S
C2408 C2407 1.383 . S
C2408 C2409 1.377 . S
C2409 H2393 0.930 . S
C2409 C2408 1.377 . S
C2409 C2410 1.379 . S
C2410 H2394 0.931 . S
C2410 C2404 1.383 . S
C2410 C2409 1.379 . S
H2411 C2405 0.959 . S
H2412 C2405 0.961 . S
H2413 C2405 0.960 . S
H2414 C2406 0.930 . S
H2415 C2407 0.929 . S
H2416 C2424 0.929 . S
H2417 C2426 0.930 . S
H2418 C2428 0.930 . S
H2419 C2431 0.929 . S
H2420 C2434 0.933 . S
H2421 C2436 0.960 . S
H2422 C2436 0.960 . S
H2423 C2436 0.960 . S
C2424 H2416 0.929 . S
C2424 C2425 1.349 1_556 S
C2424 C2426 1.384 . S
C2425 C2424 1.349 1_554 S
C2425 C2431 1.411 . S
C2426 H2417 0.930 . S
C2426 C2424 1.384 . S
C2426 C2427 1.372 . S
C2427 C2426 1.372 . S
C2427 C2428 1.400 1_556 S
C2427 C2432 1.490 . S
C2428 H2418 0.930 . S
C2428 C2427 1.400 1_554 S
C2428 C2431 1.386 . S
H2429 C2445 0.930 . S
H2430 C2446 0.931 1_554 S
C2431 H2419 0.929 . S
C2431 C2425 1.411 . S
C2431 C2428 1.386 . S
C2432 C2427 1.490 . S
C2432 C2434 1.395 . S
C2432 C2435 1.403 . S
H2433 C2439 0.930 . S
C2434 H2420 0.933 . S
C2434 C2432 1.395 . S
C2434 C2437 1.403 . S
C2435 C2432 1.403 . S
C2435 C2436 1.524 . S
C2435 C2439 1.400 . S
C2436 H2421 0.960 . S
C2436 H2422 0.960 . S
C2436 H2423 0.960 . S
C2436 C2435 1.524 . S
C2437 C2434 1.403 . S
C2437 C2438 1.392 . S
C2437 C2441 1.495 . S
C2438 C2437 1.392 . S
C2438 C2439 1.385 . S
C2438 C2440 1.478 . S
C2439 H2433 0.930 . S
C2439 C2435 1.400 . S
C2439 C2438 1.385 . S
C2440 C2438 1.478 . S
C2440 C2442 1.381 . S
C2440 C2446 1.383 . S
C2441 C2437 1.495 . S
C2441 H2447 0.959 1_556 S
C2441 H2448 0.961 1_556 S
C2441 H2449 0.960 . S
C2442 C2440 1.381 . S
C2442 C2443 1.394 . S
C2442 H2450 0.930 . S
C2443 C2442 1.394 . S
C2443 C2444 1.383 . S
C2443 H2451 0.929 . S
C2444 C2443 1.383 . S
C2444 C2445 1.377 . S
C2445 H2429 0.930 . S
C2445 C2444 1.377 . S
C2445 C2446 1.379 . S
C2446 H2430 0.931 1_556 S
C2446 C2440 1.383 . S
C2446 C2445 1.379 . S
H2447 C2441 0.959 1_554 S
H2448 C2441 0.961 1_554 S
H2449 C2441 0.960 . S
H2450 C2442 0.930 . S
H2451 C2443 0.929 . S
H2452 C2460 0.929 . S
H2453 C2462 0.930 . S
H2454 C2464 0.930 . S
H2455 C2467 0.929 . S
H2456 C2470 0.930 . S
H2457 C2472 0.960 . S
H2458 C2472 0.960 . S
H2459 C2472 0.960 . S
C2460 H2452 0.929 . S
C2460 C2461 1.377 . S
C2460 C2462 1.384 . S
C2461 C2460 1.377 . S
C2461 C2467 1.390 . S
C2462 H2453 0.930 . S
C2462 C2460 1.384 . S
C2462 C2463 1.372 . S
C2463 C2462 1.372 . S
C2463 C2464 1.400 . S
C2463 C2468 1.490 . S
C2464 H2454 0.930 . S
C2464 C2463 1.400 . S
C2464 C2467 1.386 . S
H2465 C2481 0.943 . S
H2466 C2482 0.967 . S
C2467 H2455 0.929 . S
C2467 C2461 1.390 . S
C2467 C2464 1.386 . S
C2468 C2463 1.490 . S
C2468 C2470 1.395 . S
C2468 C2471 1.403 . S
H2469 C2475 0.930 . S
C2470 H2456 0.930 . S
C2470 C2468 1.395 . S
C2470 C2473 1.403 . S
C2471 C2468 1.403 . S
C2471 C2472 1.524 . S
C2471 C2475 1.400 . S
C2472 H2457 0.960 . S
C2472 H2458 0.960 . S
C2472 H2459 0.960 . S
C2472 C2471 1.524 . S
C2473 C2470 1.403 . S
C2473 C2474 1.392 . S
C2473 C2477 1.495 . S
C2474 C2473 1.392 . S
C2474 C2475 1.385 . S
C2474 C2476 1.478 . S
C2475 H2469 0.930 . S
C2475 C2471 1.400 . S
C2475 C2474 1.385 . S
C2476 C2474 1.478 . S
C2476 C2478 1.381 . S
C2476 C2482 1.383 . S
C2477 C2473 1.495 . S
C2477 H2483 0.959 . S
C2477 H2484 0.961 . S
C2477 H2485 0.960 . S
C2478 C2476 1.381 . S
C2478 C2479 1.394 . S
C2478 H2486 0.930 . S
C2479 C2478 1.394 . S
C2479 C2480 1.383 . S
C2479 H2487 0.929 . S
C2480 C2479 1.383 . S
C2480 C2481 1.377 . S
C2481 H2465 0.943 . S
C2481 C2480 1.377 . S
C2481 C2482 1.379 . S
C2482 H2466 0.967 . S
C2482 C2476 1.383 . S
C2482 C2481 1.379 . S
H2483 C2477 0.959 . S
H2484 C2477 0.961 . S
H2485 C2477 0.960 . S
H2486 C2478 0.930 . S
H2487 C2479 0.929 . S
H2488 C2496 0.929 . S
H2489 C2498 0.930 . S
H2490 C2500 0.930 . S
H2491 C2503 0.929 . S
H2492 C2506 0.930 . S
H2493 C2508 0.960 . S
H2494 C2508 0.960 . S
H2495 C2508 0.960 . S
C2496 H2488 0.929 . S
C2496 C2497 1.377 . S
C2496 C2498 1.384 . S
C2497 C2496 1.377 . S
C2497 C2503 1.390 . S
C2498 H2489 0.930 . S
C2498 C2496 1.384 . S
C2498 C2499 1.372 . S
C2499 C2498 1.372 . S
C2499 C2500 1.400 . S
C2499 C2504 1.490 . S
C2500 H2490 0.930 . S
C2500 C2499 1.400 . S
C2500 C2503 1.386 . S
H2501 C2517 0.930 . S
H2502 C2518 0.931 . S
C2503 H2491 0.929 . S
C2503 C2497 1.390 . S
C2503 C2500 1.386 . S
C2504 C2499 1.490 . S
C2504 C2506 1.395 . S
C2504 C2507 1.403 . S
H2505 C2511 0.930 . S
C2506 H2492 0.930 . S
C2506 C2504 1.395 . S
C2506 C2509 1.403 . S
C2507 C2504 1.403 . S
C2507 C2508 1.524 . S
C2507 C2511 1.400 . S
C2508 H2493 0.960 . S
C2508 H2494 0.960 . S
C2508 H2495 0.960 . S
C2508 C2507 1.524 . S
C2509 C2506 1.403 . S
C2509 C2510 1.392 . S
C2509 C2513 1.495 . S
C2510 C2509 1.392 . S
C2510 C2511 1.385 . S
C2510 C2512 1.478 . S
C2511 H2505 0.930 . S
C2511 C2507 1.400 . S
C2511 C2510 1.385 . S
C2512 C2510 1.478 . S
C2512 C2514 1.381 . S
C2512 C2518 1.383 . S
C2513 C2509 1.495 . S
C2513 H2519 0.959 . S
C2513 H2520 0.961 . S
C2513 H2521 0.960 . S
C2514 C2512 1.381 . S
C2514 C2515 1.394 . S
C2514 H2522 0.930 . S
C2515 C2514 1.394 . S
C2515 C2516 1.383 . S
C2515 H2523 0.929 . S
C2516 C2515 1.383 . S
C2516 C2517 1.377 . S
C2517 H2501 0.930 . S
C2517 C2516 1.377 . S
C2517 C2518 1.379 . S
C2518 H2502 0.931 . S
C2518 C2512 1.383 . S
C2518 C2517 1.379 . S
H2519 C2513 0.959 . S
H2520 C2513 0.961 . S
H2521 C2513 0.960 . S
H2522 C2514 0.930 . S
H2523 C2515 0.929 . S
H2524 C2532 0.929 . S
H2525 C2534 0.930 . S
H2526 C2536 0.930 . S
H2527 C2539 0.929 . S
H2528 C2542 0.930 . S
H2529 C2544 0.960 . S
H2530 C2544 0.960 . S
H2531 C2544 0.960 . S
C2532 H2524 0.929 . S
C2532 C2533 1.377 . S
C2532 C2534 1.384 . S
C2533 C2532 1.377 . S
C2533 C2539 1.390 . S
C2534 H2525 0.930 . S
C2534 C2532 1.384 . S
C2534 C2535 1.372 . S
C2535 C2534 1.372 . S
C2535 C2536 1.400 . S
C2535 C2540 1.490 . S
C2536 H2526 0.930 . S
C2536 C2535 1.400 . S
C2536 C2539 1.386 . S
H2537 C2553 0.930 . S
H2538 C2554 0.931 . S
C2539 H2527 0.929 . S
C2539 C2533 1.390 . S
C2539 C2536 1.386 . S
C2540 C2535 1.490 . S
C2540 C2542 1.395 . S
C2540 C2543 1.403 . S
H2541 C2547 0.930 . S
C2542 H2528 0.930 . S
C2542 C2540 1.395 . S
C2542 C2545 1.403 . S
C2543 C2540 1.403 . S
C2543 C2544 1.524 . S
C2543 C2547 1.400 . S
C2544 H2529 0.960 . S
C2544 H2530 0.960 . S
C2544 H2531 0.960 . S
C2544 C2543 1.524 . S
C2545 C2542 1.403 . S
C2545 C2546 1.392 . S
C2545 C2549 1.495 . S
C2546 C2545 1.392 . S
C2546 C2547 1.385 . S
C2546 C2548 1.478 . S
C2547 H2541 0.930 . S
C2547 C2543 1.400 . S
C2547 C2546 1.385 . S
C2548 C2546 1.478 . S
C2548 C2550 1.381 . S
C2548 C2554 1.383 . S
C2549 C2545 1.495 . S
C2549 H2555 0.959 . S
C2549 H2556 0.961 . S
C2549 H2557 0.960 . S
C2550 C2548 1.381 . S
C2550 C2551 1.394 . S
C2550 H2558 0.930 . S
C2551 C2550 1.394 . S
C2551 C2552 1.383 . S
C2551 H2559 0.929 . S
C2552 C2551 1.383 . S
C2552 C2553 1.377 . S
C2553 H2537 0.930 . S
C2553 C2552 1.377 . S
C2553 C2554 1.379 . S
C2554 H2538 0.931 . S
C2554 C2548 1.383 . S
C2554 C2553 1.379 . S
H2555 C2549 0.959 . S
H2556 C2549 0.961 . S
H2557 C2549 0.960 . S
H2558 C2550 0.930 . S
H2559 C2551 0.929 . S
H2560 C2568 0.929 . S
H2561 C2570 0.930 . S
H2562 C2572 0.930 . S
H2563 C2575 0.929 . S
H2564 C2578 0.930 . S
H2565 C2580 0.960 . S
H2566 C2580 0.960 . S
H2567 C2580 0.960 . S
C2568 H2560 0.929 . S
C2568 C2569 1.377 . S
C2568 C2570 1.384 . S
C2569 C2568 1.377 . S
C2569 C2575 1.390 . S
C2570 H2561 0.930 . S
C2570 C2568 1.384 . S
C2570 C2571 1.372 . S
C2571 C2570 1.372 . S
C2571 C2572 1.400 . S
C2571 C2576 1.490 . S
C2572 H2562 0.930 . S
C2572 C2571 1.400 . S
C2572 C2575 1.386 . S
H2573 C2589 0.930 . S
H2574 C2590 0.931 . S
C2575 H2563 0.929 . S
C2575 C2569 1.390 . S
C2575 C2572 1.386 . S
C2576 C2571 1.490 . S
C2576 C2578 1.395 . S
C2576 C2579 1.403 . S
H2577 C2583 0.930 . S
C2578 H2564 0.930 . S
C2578 C2576 1.395 . S
C2578 C2581 1.403 . S
C2579 C2576 1.403 . S
C2579 C2580 1.524 . S
C2579 C2583 1.400 . S
C2580 H2565 0.960 . S
C2580 H2566 0.960 . S
C2580 H2567 0.960 . S
C2580 C2579 1.524 . S
C2581 C2578 1.403 . S
C2581 C2582 1.392 . S
C2581 C2585 1.495 . S
C2582 C2581 1.392 . S
C2582 C2583 1.385 . S
C2582 C2584 1.478 . S
C2583 H2577 0.930 . S
C2583 C2579 1.400 . S
C2583 C2582 1.385 . S
C2584 C2582 1.478 . S
C2584 C2586 1.381 . S
C2584 C2590 1.383 . S
C2585 C2581 1.495 . S
C2585 H2591 0.959 . S
C2585 H2592 0.961 . S
C2585 H2593 0.960 . S
C2586 C2584 1.381 . S
C2586 C2587 1.394 . S
C2586 H2594 0.930 . S
C2587 C2586 1.394 . S
C2587 C2588 1.383 . S
C2587 H2595 0.929 . S
C2588 C2587 1.383 . S
C2588 C2589 1.377 . S
C2589 H2573 0.930 . S
C2589 C2588 1.377 . S
C2589 C2590 1.379 . S
C2590 H2574 0.931 . S
C2590 C2584 1.383 . S
C2590 C2589 1.379 . S
H2591 C2585 0.959 . S
H2592 C2585 0.961 . S
H2593 C2585 0.960 . S
H2594 C2586 0.930 . S
H2595 C2587 0.929 . S
H2596 C2604 0.929 . S
H2597 C2606 0.930 . S
H2598 C2608 0.930 . S
H2599 C2611 0.929 . S
H2600 C2614 0.930 . S
H2601 C2616 0.960 . S
H2602 C2616 0.960 . S
H2603 C2616 0.960 . S
C2604 H2596 0.929 . S
C2604 C2605 1.377 . S
C2604 C2606 1.384 . S
C2605 C2604 1.377 . S
C2605 C2611 1.390 . S
C2606 H2597 0.930 . S
C2606 C2604 1.384 . S
C2606 C2607 1.372 . S
C2607 C2606 1.372 . S
C2607 C2608 1.400 . S
C2607 C2612 1.490 . S
C2608 H2598 0.930 . S
C2608 C2607 1.400 . S
C2608 C2611 1.386 . S
H2609 C2625 0.930 . S
H2610 C2626 0.918 1_545 S
C2611 H2599 0.929 . S
C2611 C2605 1.390 . S
C2611 C2608 1.386 . S
C2612 C2607 1.490 . S
C2612 C2614 1.395 . S
C2612 C2615 1.403 . S
H2613 C2619 0.930 . S
C2614 H2600 0.930 . S
C2614 C2612 1.395 . S
C2614 C2617 1.403 . S
C2615 C2612 1.403 . S
C2615 C2616 1.524 . S
C2615 C2619 1.400 . S
C2616 H2601 0.960 . S
C2616 H2602 0.960 . S
C2616 H2603 0.960 . S
C2616 C2615 1.524 . S
C2617 C2614 1.403 . S
C2617 C2618 1.392 . S
C2617 C2621 1.495 . S
C2618 C2617 1.392 . S
C2618 C2619 1.385 . S
C2618 C2620 1.478 . S
C2619 H2613 0.930 . S
C2619 C2615 1.400 . S
C2619 C2618 1.385 . S
C2620 C2618 1.478 . S
C2620 C2622 1.381 . S
C2620 C2626 1.383 . S
C2621 C2617 1.495 . S
C2621 H2627 0.959 . S
C2621 H2628 0.961 . S
C2621 H2629 0.960 . S
C2622 C2620 1.381 . S
C2622 C2623 1.394 . S
C2622 H2630 0.930 . S
C2623 C2622 1.394 . S
C2623 C2624 1.383 . S
C2623 H2631 0.929 . S
C2624 C2623 1.383 . S
C2624 C2625 1.377 1_565 S
C2625 H2609 0.930 . S
C2625 C2624 1.377 1_545 S
C2625 C2626 1.379 1_545 S
C2626 H2610 0.918 1_565 S
C2626 C2620 1.383 . S
C2626 C2625 1.379 1_565 S
H2627 C2621 0.959 . S
H2628 C2621 0.961 . S
H2629 C2621 0.960 . S
H2630 C2622 0.930 . S
H2631 C2623 0.929 . S
H2632 C2640 0.929 . S
H2633 C2642 0.930 . S
H2634 C2644 0.930 . S
H2635 C2647 0.929 . S
H2636 C2650 0.930 . S
H2637 C2652 0.960 . S
H2638 C2652 0.960 . S
H2639 C2652 0.960 . S
C2640 H2632 0.929 . S
C2640 C2641 1.377 . S
C2640 C2642 1.384 . S
C2641 C2640 1.377 . S
C2641 C2647 1.390 . S
C2642 H2633 0.930 . S
C2642 C2640 1.384 . S
C2642 C2643 1.372 . S
C2643 C2642 1.372 . S
C2643 C2644 1.400 . S
C2643 C2648 1.490 . S
C2644 H2634 0.930 . S
C2644 C2643 1.400 . S
C2644 C2647 1.386 . S
H2645 C2661 0.930 . S
H2646 C2662 0.931 . S
C2647 H2635 0.929 . S
C2647 C2641 1.390 . S
C2647 C2644 1.386 . S
C2648 C2643 1.490 . S
C2648 C2650 1.395 . S
C2648 C2651 1.403 . S
H2649 C2655 0.930 . S
C2650 H2636 0.930 . S
C2650 C2648 1.395 . S
C2650 C2653 1.403 . S
C2651 C2648 1.403 . S
C2651 C2652 1.524 . S
C2651 C2655 1.400 . S
C2652 H2637 0.960 . S
C2652 H2638 0.960 . S
C2652 H2639 0.960 . S
C2652 C2651 1.524 . S
C2653 C2650 1.403 . S
C2653 C2654 1.392 . S
C2653 C2657 1.495 . S
C2654 C2653 1.392 . S
C2654 C2655 1.385 . S
C2654 C2656 1.478 . S
C2655 H2649 0.930 . S
C2655 C2651 1.400 . S
C2655 C2654 1.385 . S
C2656 C2654 1.478 . S
C2656 C2658 1.381 . S
C2656 C2662 1.383 . S
C2657 C2653 1.495 . S
C2657 H2663 0.959 . S
C2657 H2664 0.961 . S
C2657 H2665 0.960 . S
C2658 C2656 1.381 . S
C2658 C2659 1.394 . S
C2658 H2666 0.930 . S
C2659 C2658 1.394 . S
C2659 C2660 1.383 . S
C2659 H2667 0.929 . S
C2660 C2659 1.383 . S
C2660 C2661 1.377 . S
C2661 H2645 0.930 . S
C2661 C2660 1.377 . S
C2661 C2662 1.379 . S
C2662 H2646 0.931 . S
C2662 C2656 1.383 . S
C2662 C2661 1.379 . S
H2663 C2657 0.959 . S
H2664 C2657 0.961 . S
H2665 C2657 0.960 . S
H2666 C2658 0.930 . S
H2667 C2659 0.929 . S
H2668 C2676 0.929 . S
H2669 C2678 0.930 . S
H2670 C2680 0.930 . S
H2671 C2683 0.929 . S
H2672 C2686 0.930 . S
H2673 C2688 0.960 . S
H2674 C2688 0.960 . S
H2675 C2688 0.960 . S
C2676 H2668 0.929 . S
C2676 C2677 1.377 . S
C2676 C2678 1.384 . S
C2677 C2676 1.377 . S
C2677 C2683 1.390 . S
C2678 H2669 0.930 . S
C2678 C2676 1.384 . S
C2678 C2679 1.372 . S
C2679 C2678 1.372 . S
C2679 C2680 1.400 . S
C2679 C2684 1.490 . S
C2680 H2670 0.930 . S
C2680 C2679 1.400 . S
C2680 C2683 1.386 . S
H2681 C2697 0.930 . S
H2682 C2698 0.931 . S
C2683 H2671 0.929 . S
C2683 C2677 1.390 . S
C2683 C2680 1.386 . S
C2684 C2679 1.490 . S
C2684 C2686 1.395 . S
C2684 C2687 1.403 . S
H2685 C2691 0.930 . S
C2686 H2672 0.930 . S
C2686 C2684 1.395 . S
C2686 C2689 1.403 . S
C2687 C2684 1.403 . S
C2687 C2688 1.524 . S
C2687 C2691 1.400 . S
C2688 H2673 0.960 . S
C2688 H2674 0.960 . S
C2688 H2675 0.960 . S
C2688 C2687 1.524 . S
C2689 C2686 1.403 . S
C2689 C2690 1.392 . S
C2689 C2693 1.495 . S
C2690 C2689 1.392 . S
C2690 C2691 1.385 . S
C2690 C2692 1.478 . S
C2691 H2685 0.930 . S
C2691 C2687 1.400 . S
C2691 C2690 1.385 . S
C2692 C2690 1.478 . S
C2692 C2694 1.381 . S
C2692 C2698 1.383 . S
C2693 C2689 1.495 . S
C2693 H2699 0.959 . S
C2693 H2700 0.961 . S
C2693 H2701 0.960 . S
C2694 C2692 1.381 . S
C2694 C2695 1.394 . S
C2694 H2702 0.930 . S
C2695 C2694 1.394 . S
C2695 C2696 1.383 . S
C2695 H2703 0.929 . S
C2696 C2695 1.383 . S
C2696 C2697 1.377 . S
C2697 H2681 0.930 . S
C2697 C2696 1.377 . S
C2697 C2698 1.379 . S
C2698 H2682 0.931 . S
C2698 C2692 1.383 . S
C2698 C2697 1.379 . S
H2699 C2693 0.959 . S
H2700 C2693 0.961 . S
H2701 C2693 0.960 . S
H2702 C2694 0.930 . S
H2703 C2695 0.929 . S
H2704 C2712 0.929 . S
H2705 C2714 0.930 . S
H2706 C2716 0.930 . S
H2707 C2719 0.929 . S
H2708 C2722 0.930 . S
H2709 C2724 0.960 . S
H2710 C2724 0.960 . S
H2711 C2724 0.960 . S
C2712 H2704 0.929 . S
C2712 C2713 1.377 . S
C2712 C2714 1.384 . S
C2713 C2712 1.377 . S
C2713 C2719 1.390 . S
C2714 H2705 0.930 . S
C2714 C2712 1.384 . S
C2714 C2715 1.372 . S
C2715 C2714 1.372 . S
C2715 C2716 1.400 . S
C2715 C2720 1.490 . S
C2716 H2706 0.930 . S
C2716 C2715 1.400 . S
C2716 C2719 1.386 . S
H2717 C2733 0.930 . S
H2718 C2734 0.931 . S
C2719 H2707 0.929 . S
C2719 C2713 1.390 . S
C2719 C2716 1.386 . S
C2720 C2715 1.490 . S
C2720 C2722 1.395 . S
C2720 C2723 1.403 . S
H2721 C2727 0.930 . S
C2722 H2708 0.930 . S
C2722 C2720 1.395 . S
C2722 C2725 1.403 . S
C2723 C2720 1.403 . S
C2723 C2724 1.524 . S
C2723 C2727 1.400 . S
C2724 H2709 0.960 . S
C2724 H2710 0.960 . S
C2724 H2711 0.960 . S
C2724 C2723 1.524 . S
C2725 C2722 1.403 . S
C2725 C2726 1.392 . S
C2725 C2729 1.495 . S
C2726 C2725 1.392 . S
C2726 C2727 1.385 . S
C2726 C2728 1.478 . S
C2727 H2721 0.930 . S
C2727 C2723 1.400 . S
C2727 C2726 1.385 . S
C2728 C2726 1.478 . S
C2728 C2730 1.381 . S
C2728 C2734 1.383 . S
C2729 C2725 1.495 . S
C2729 H2735 0.959 . S
C2729 H2736 0.961 . S
C2729 H2737 0.960 . S
C2730 C2728 1.381 . S
C2730 C2731 1.394 . S
C2730 H2738 0.930 . S
C2731 C2730 1.394 . S
C2731 C2732 1.383 . S
C2731 H2739 0.929 . S
C2732 C2731 1.383 . S
C2732 C2733 1.377 . S
C2733 H2717 0.930 . S
C2733 C2732 1.377 . S
C2733 C2734 1.379 . S
C2734 H2718 0.931 . S
C2734 C2728 1.383 . S
C2734 C2733 1.379 . S
H2735 C2729 0.959 . S
H2736 C2729 0.961 . S
H2737 C2729 0.960 . S
H2738 C2730 0.930 . S
H2739 C2731 0.929 . S
H2740 C2748 0.929 . S
H2741 C2750 0.930 . S
H2742 C2752 0.930 . S
H2743 C2755 0.929 . S
H2744 C2758 0.930 . S
H2745 C2760 0.960 . S
H2746 C2760 0.960 . S
H2747 C2760 0.960 . S
C2748 H2740 0.929 . S
C2748 C2749 1.377 . S
C2748 C2750 1.384 . S
C2749 C2748 1.377 . S
C2749 C2755 1.390 . S
C2750 H2741 0.930 . S
C2750 C2748 1.384 . S
C2750 C2751 1.372 . S
C2751 C2750 1.372 . S
C2751 C2752 1.400 . S
C2751 C2756 1.490 . S
C2752 H2742 0.930 . S
C2752 C2751 1.400 . S
C2752 C2755 1.386 . S
H2753 C2769 0.930 . S
H2754 C2770 0.931 . S
C2755 H2743 0.929 . S
C2755 C2749 1.390 . S
C2755 C2752 1.386 . S
C2756 C2751 1.490 . S
C2756 C2758 1.395 . S
C2756 C2759 1.403 . S
H2757 C2763 0.930 . S
C2758 H2744 0.930 . S
C2758 C2756 1.395 . S
C2758 C2761 1.403 . S
C2759 C2756 1.403 . S
C2759 C2760 1.524 . S
C2759 C2763 1.400 . S
C2760 H2745 0.960 . S
C2760 H2746 0.960 . S
C2760 H2747 0.960 . S
C2760 C2759 1.524 . S
C2761 C2758 1.403 . S
C2761 C2762 1.392 . S
C2761 C2765 1.495 . S
C2762 C2761 1.392 . S
C2762 C2763 1.385 . S
C2762 C2764 1.478 . S
C2763 H2757 0.930 . S
C2763 C2759 1.400 . S
C2763 C2762 1.385 . S
C2764 C2762 1.478 . S
C2764 C2766 1.381 . S
C2764 C2770 1.383 . S
C2765 C2761 1.495 . S
C2765 H2771 0.959 . S
C2765 H2772 0.961 . S
C2765 H2773 0.960 . S
C2766 C2764 1.381 . S
C2766 C2767 1.394 . S
C2766 H2774 0.930 . S
C2767 C2766 1.394 . S
C2767 C2768 1.383 . S
C2767 H2775 0.929 . S
C2768 C2767 1.383 . S
C2768 C2769 1.377 . S
C2769 H2753 0.930 . S
C2769 C2768 1.377 . S
C2769 C2770 1.379 . S
C2770 H2754 0.931 . S
C2770 C2764 1.383 . S
C2770 C2769 1.379 . S
H2771 C2765 0.959 . S
H2772 C2765 0.961 . S
H2773 C2765 0.960 . S
H2774 C2766 0.930 . S
H2775 C2767 0.929 . S
H2776 C2784 0.929 . S
H2777 C2786 0.930 . S
H2778 C2788 0.930 . S
H2779 C2791 0.929 . S
H2780 C2794 0.930 . S
H2781 C2796 0.960 . S
H2782 C2796 0.960 . S
H2783 C2796 0.960 . S
C2784 H2776 0.929 . S
C2784 C2785 1.377 . S
C2784 C2786 1.384 . S
C2785 C2784 1.377 . S
C2785 C2791 1.390 1_455 S
C2786 H2777 0.930 . S
C2786 C2784 1.384 . S
C2786 C2787 1.372 . S
C2787 C2786 1.372 . S
C2787 C2788 1.400 1_455 S
C2787 C2792 1.490 . S
C2788 H2778 0.930 . S
C2788 C2787 1.400 1_655 S
C2788 C2791 1.386 . S
H2789 C2805 0.930 . S
H2790 C2806 0.931 . S
C2791 H2779 0.929 . S
C2791 C2785 1.390 1_655 S
C2791 C2788 1.386 . S
C2792 C2787 1.490 . S
C2792 C2794 1.395 . S
C2792 C2795 1.403 1_455 S
H2793 C2799 0.930 1_655 S
C2794 H2780 0.930 . S
C2794 C2792 1.395 . S
C2794 C2797 1.403 . S
C2795 C2792 1.403 1_655 S
C2795 C2796 1.524 . S
C2795 C2799 1.400 1_655 S
C2796 H2781 0.960 . S
C2796 H2782 0.960 . S
C2796 H2783 0.960 . S
C2796 C2795 1.524 . S
C2797 C2794 1.403 . S
C2797 C2798 1.392 . S
C2797 C2801 1.495 . S
C2798 C2797 1.392 . S
C2798 C2799 1.385 . S
C2798 C2800 1.478 . S
C2799 H2793 0.930 1_455 S
C2799 C2795 1.400 1_455 S
C2799 C2798 1.385 . S
C2800 C2798 1.478 . S
C2800 C2802 1.381 . S
C2800 C2806 1.383 . S
C2801 C2797 1.495 . S
C2801 H2807 0.959 . S
C2801 H2808 0.961 . S
C2801 H2809 0.960 . S
C2802 C2800 1.381 . S
C2802 C2803 1.394 . S
C2802 H2810 0.930 . S
C2803 C2802 1.394 . S
C2803 C2804 1.383 . S
C2803 H2811 0.929 . S
C2804 C2803 1.383 . S
C2804 C2805 1.377 . S
C2805 H2789 0.930 . S
C2805 C2804 1.377 . S
C2805 C2806 1.379 . S
C2806 H2790 0.931 . S
C2806 C2800 1.383 . S
C2806 C2805 1.379 . S
H2807 C2801 0.959 . S
H2808 C2801 0.961 . S
H2809 C2801 0.960 . S
H2810 C2802 0.930 . S
H2811 C2803 0.929 . S
H2812 C2820 0.929 . S
H2813 C2822 0.930 . S
H2814 C2824 0.924 . S
H2815 C2827 0.929 . S
H2816 C2830 0.930 . S
H2817 C2832 0.960 . S
H2818 C2832 0.960 . S
H2819 C2832 0.960 . S
C2820 H2812 0.929 . S
C2820 C2821 1.377 . S
C2820 C2822 1.384 . S
C2821 C2820 1.377 . S
C2821 C2827 1.390 . S
C2822 H2813 0.930 . S
C2822 C2820 1.384 . S
C2822 C2823 1.372 . S
C2823 C2822 1.372 . S
C2823 C2824 1.400 . S
C2823 C2828 1.490 1_455 S
C2824 H2814 0.924 . S
C2824 C2823 1.400 . S
C2824 C2827 1.386 . S
H2825 C2841 0.930 . S
H2826 C2842 0.931 . S
C2827 H2815 0.929 . S
C2827 C2821 1.390 . S
C2827 C2824 1.386 . S
C2828 C2823 1.490 1_655 S
C2828 C2830 1.395 . S
C2828 C2831 1.403 . S
H2829 C2835 0.930 . S
C2830 H2816 0.930 . S
C2830 C2828 1.395 . S
C2830 C2833 1.403 . S
C2831 C2828 1.403 . S
C2831 C2832 1.524 . S
C2831 C2835 1.400 . S
C2832 H2817 0.960 . S
C2832 H2818 0.960 . S
C2832 H2819 0.960 . S
C2832 C2831 1.524 . S
C2833 C2830 1.403 . S
C2833 C2834 1.392 . S
C2833 C2837 1.495 . S
C2834 C2833 1.392 . S
C2834 C2835 1.385 . S
C2834 C2836 1.478 . S
C2835 H2829 0.930 . S
C2835 C2831 1.400 . S
C2835 C2834 1.385 . S
C2836 C2834 1.478 . S
C2836 C2838 1.381 . S
C2836 C2842 1.383 . S
C2837 C2833 1.495 . S
C2837 H2843 0.959 . S
C2837 H2844 0.961 . S
C2837 H2845 0.960 . S
C2838 C2836 1.381 . S
C2838 C2839 1.394 . S
C2838 H2846 0.930 . S
C2839 C2838 1.394 . S
C2839 C2840 1.383 . S
C2839 H2847 0.929 . S
C2840 C2839 1.383 . S
C2840 C2841 1.377 . S
C2841 H2825 0.930 . S
C2841 C2840 1.377 . S
C2841 C2842 1.379 . S
C2842 H2826 0.931 . S
C2842 C2836 1.383 . S
C2842 C2841 1.379 . S
H2843 C2837 0.959 . S
H2844 C2837 0.961 . S
H2845 C2837 0.960 . S
H2846 C2838 0.930 . S
H2847 C2839 0.929 . S
H2848 C2856 0.929 . S
H2849 C2858 0.930 . S
H2850 C2860 0.930 . S
H2851 C2863 0.929 . S
H2852 C2866 0.930 . S
H2853 C2868 0.960 . S
H2854 C2868 0.960 . S
H2855 C2868 0.960 . S
C2856 H2848 0.929 . S
C2856 C2857 1.377 . S
C2856 C2858 1.384 . S
C2857 C2856 1.377 . S
C2857 C2863 1.390 . S
C2858 H2849 0.930 . S
C2858 C2856 1.384 . S
C2858 C2859 1.372 . S
C2859 C2858 1.372 . S
C2859 C2860 1.400 . S
C2859 C2864 1.490 . S
C2860 H2850 0.930 . S
C2860 C2859 1.400 . S
C2860 C2863 1.386 . S
H2861 C2877 0.930 . S
H2862 C2878 0.931 . S
C2863 H2851 0.929 . S
C2863 C2857 1.390 . S
C2863 C2860 1.386 . S
C2864 C2859 1.490 . S
C2864 C2866 1.395 . S
C2864 C2867 1.403 . S
H2865 C2871 0.930 . S
C2866 H2852 0.930 . S
C2866 C2864 1.395 . S
C2866 C2869 1.403 . S
C2867 C2864 1.403 . S
C2867 C2868 1.524 . S
C2867 C2871 1.400 . S
C2868 H2853 0.960 . S
C2868 H2854 0.960 . S
C2868 H2855 0.960 . S
C2868 C2867 1.524 . S
C2869 C2866 1.403 . S
C2869 C2870 1.392 . S
C2869 C2873 1.495 . S
C2870 C2869 1.392 . S
C2870 C2871 1.385 . S
C2870 C2872 1.478 . S
C2871 H2865 0.930 . S
C2871 C2867 1.400 . S
C2871 C2870 1.385 . S
C2872 C2870 1.478 . S
C2872 C2874 1.381 . S
C2872 C2878 1.383 . S
C2873 C2869 1.495 . S
C2873 H2879 0.959 . S
C2873 H2880 0.961 . S
C2873 H2881 0.960 . S
C2874 C2872 1.381 . S
C2874 C2875 1.394 . S
C2874 H2882 0.930 . S
C2875 C2874 1.394 . S
C2875 C2876 1.383 . S
C2875 H2883 0.929 . S
C2876 C2875 1.383 . S
C2876 C2877 1.377 . S
C2877 H2861 0.930 . S
C2877 C2876 1.377 . S
C2877 C2878 1.379 . S
C2878 H2862 0.931 . S
C2878 C2872 1.383 . S
C2878 C2877 1.379 . S
H2879 C2873 0.959 . S
H2880 C2873 0.961 . S
H2881 C2873 0.960 . S
H2882 C2874 0.930 . S
H2883 C2875 0.929 . S
H2884 C2892 0.929 . S
H2885 C2894 0.930 . S
H2886 C2896 0.930 . S
H2887 C2899 0.929 . S
H2888 C2902 0.930 . S
H2889 C2904 0.960 . S
H2890 C2904 0.960 . S
H2891 C2904 0.960 . S
C2892 H2884 0.929 . S
C2892 C2893 1.377 . S
C2892 C2894 1.384 . S
C2893 C2892 1.377 . S
C2893 C2899 1.390 . S
C2894 H2885 0.930 . S
C2894 C2892 1.384 . S
C2894 C2895 1.372 . S
C2895 C2894 1.372 . S
C2895 C2896 1.400 . S
C2895 C2900 1.490 . S
C2896 H2886 0.930 . S
C2896 C2895 1.400 . S
C2896 C2899 1.386 . S
H2897 C2913 0.930 . S
H2898 C2914 0.931 . S
C2899 H2887 0.929 . S
C2899 C2893 1.390 . S
C2899 C2896 1.386 . S
C2900 C2895 1.490 . S
C2900 C2902 1.395 . S
C2900 C2903 1.403 . S
H2901 C2907 0.930 . S
C2902 H2888 0.930 . S
C2902 C2900 1.395 . S
C2902 C2905 1.403 . S
C2903 C2900 1.403 . S
C2903 C2904 1.524 . S
C2903 C2907 1.400 . S
C2904 H2889 0.960 . S
C2904 H2890 0.960 . S
C2904 H2891 0.960 . S
C2904 C2903 1.524 . S
C2905 C2902 1.403 . S
C2905 C2906 1.392 . S
C2905 C2909 1.495 . S
C2906 C2905 1.392 . S
C2906 C2907 1.385 . S
C2906 C2908 1.478 . S
C2907 H2901 0.930 . S
C2907 C2903 1.400 . S
C2907 C2906 1.385 . S
C2908 C2906 1.478 . S
C2908 C2910 1.381 . S
C2908 C2914 1.383 . S
C2909 C2905 1.495 . S
C2909 H2915 0.959 . S
C2909 H2916 0.961 . S
C2909 H2917 0.960 . S
C2910 C2908 1.381 . S
C2910 C2911 1.394 . S
C2910 H2918 0.930 . S
C2911 C2910 1.394 . S
C2911 C2912 1.383 . S
C2911 H2919 0.929 . S
C2912 C2911 1.383 . S
C2912 C2913 1.377 . S
C2913 H2897 0.930 . S
C2913 C2912 1.377 . S
C2913 C2914 1.379 . S
C2914 H2898 0.931 . S
C2914 C2908 1.383 . S
C2914 C2913 1.379 . S
H2915 C2909 0.959 . S
H2916 C2909 0.961 . S
H2917 C2909 0.960 . S
H2918 C2910 0.930 . S
H2919 C2911 0.929 . S
H2920 C2928 0.929 . S
H2921 C2930 0.930 . S
H2922 C2932 0.930 . S
H2923 C2935 0.929 . S
H2924 C2938 0.930 . S
H2925 C2940 0.960 . S
H2926 C2940 0.960 . S
H2927 C2940 0.960 . S
C2928 H2920 0.929 . S
C2928 C2929 1.377 . S
C2928 C2930 1.384 . S
C2929 C2928 1.377 . S
C2929 C2935 1.390 . S
C2930 H2921 0.930 . S
C2930 C2928 1.384 . S
C2930 C2931 1.372 . S
C2931 C2930 1.372 . S
C2931 C2932 1.400 . S
C2931 C2936 1.490 . S
C2932 H2922 0.930 . S
C2932 C2931 1.400 . S
C2932 C2935 1.386 . S
H2933 C2949 0.930 . S
H2934 C2950 0.931 . S
C2935 H2923 0.929 . S
C2935 C2929 1.390 . S
C2935 C2932 1.386 . S
C2936 C2931 1.490 . S
C2936 C2938 1.395 . S
C2936 C2939 1.403 . S
H2937 C2943 0.930 . S
C2938 H2924 0.930 . S
C2938 C2936 1.395 . S
C2938 C2941 1.403 . S
C2939 C2936 1.403 . S
C2939 C2940 1.524 . S
C2939 C2943 1.400 . S
C2940 H2925 0.960 . S
C2940 H2926 0.960 . S
C2940 H2927 0.960 . S
C2940 C2939 1.524 . S
C2941 C2938 1.403 . S
C2941 C2942 1.392 . S
C2941 C2945 1.495 . S
C2942 C2941 1.392 . S
C2942 C2943 1.385 . S
C2942 C2944 1.478 . S
C2943 H2937 0.930 . S
C2943 C2939 1.400 . S
C2943 C2942 1.385 . S
C2944 C2942 1.478 . S
C2944 C2946 1.381 . S
C2944 C2950 1.383 . S
C2945 C2941 1.495 . S
C2945 H2951 0.959 . S
C2945 H2952 0.961 . S
C2945 H2953 0.960 . S
C2946 C2944 1.381 . S
C2946 C2947 1.394 . S
C2946 H2954 0.930 . S
C2947 C2946 1.394 . S
C2947 C2948 1.383 . S
C2947 H2955 0.929 . S
C2948 C2947 1.383 . S
C2948 C2949 1.377 . S
C2949 H2933 0.930 . S
C2949 C2948 1.377 . S
C2949 C2950 1.379 . S
C2950 H2934 0.931 . S
C2950 C2944 1.383 . S
C2950 C2949 1.379 . S
H2951 C2945 0.959 . S
H2952 C2945 0.961 . S
H2953 C2945 0.960 . S
H2954 C2946 0.930 . S
H2955 C2947 0.929 . S
H2956 C2964 0.929 . S
H2957 C2966 0.930 . S
H2958 C2968 0.930 . S
H2959 C2971 0.929 . S
H2960 C2974 0.930 . S
H2961 C2976 0.960 . S
H2962 C2976 0.960 . S
H2963 C2976 0.960 . S
C2964 H2956 0.929 . S
C2964 C2965 1.377 . S
C2964 C2966 1.384 . S
C2965 C2964 1.377 . S
C2965 C2971 1.390 . S
C2966 H2957 0.930 . S
C2966 C2964 1.384 . S
C2966 C2967 1.372 . S
C2967 C2966 1.372 . S
C2967 C2968 1.400 . S
C2967 C2972 1.490 . S
C2968 H2958 0.930 . S
C2968 C2967 1.400 . S
C2968 C2971 1.386 . S
H2969 C2985 0.930 . S
H2970 C2986 0.931 . S
C2971 H2959 0.929 . S
C2971 C2965 1.390 . S
C2971 C2968 1.386 . S
C2972 C2967 1.490 . S
C2972 C2974 1.395 . S
C2972 C2975 1.403 . S
H2973 C2979 0.930 . S
C2974 H2960 0.930 . S
C2974 C2972 1.395 . S
C2974 C2977 1.403 . S
C2975 C2972 1.403 . S
C2975 C2976 1.524 . S
C2975 C2979 1.400 . S
C2976 H2961 0.960 . S
C2976 H2962 0.960 . S
C2976 H2963 0.960 . S
C2976 C2975 1.524 . S
C2977 C2974 1.403 . S
C2977 C2978 1.392 . S
C2977 C2981 1.495 . S
C2978 C2977 1.392 . S
C2978 C2979 1.385 . S
C2978 C2980 1.478 . S
C2979 H2973 0.930 . S
C2979 C2975 1.400 . S
C2979 C2978 1.385 . S
C2980 C2978 1.478 . S
C2980 C2982 1.381 . S
C2980 C2986 1.383 . S
C2981 C2977 1.495 . S
C2981 H2987 0.959 . S
C2981 H2988 0.961 . S
C2981 H2989 0.960 . S
C2982 C2980 1.381 . S
C2982 C2983 1.394 . S
C2982 H2990 0.930 . S
C2983 C2982 1.394 . S
C2983 C2984 1.383 . S
C2983 H2991 0.929 . S
C2984 C2983 1.383 . S
C2984 C2985 1.377 . S
C2985 H2969 0.930 . S
C2985 C2984 1.377 . S
C2985 C2986 1.379 . S
C2986 H2970 0.931 . S
C2986 C2980 1.383 . S
C2986 C2985 1.379 . S
H2987 C2981 0.959 . S
H2988 C2981 0.961 . S
H2989 C2981 0.960 . S
H2990 C2982 0.930 . S
H2991 C2983 0.929 . S
H2992 C3000 0.929 . S
H2993 C3002 0.930 . S
H2994 C3004 0.930 . S
H2995 C3007 0.929 . S
H2996 C3010 0.930 . S
H2997 C3012 0.960 . S
H2998 C3012 0.960 . S
H2999 C3012 0.960 . S
C3000 H2992 0.929 . S
C3000 C3001 1.377 . S
C3000 C3002 1.384 . S
C3001 C3000 1.377 . S
C3001 C3007 1.390 . S
C3002 H2993 0.930 . S
C3002 C3000 1.384 . S
C3002 C3003 1.372 . S
C3003 C3002 1.372 . S
C3003 C3004 1.400 . S
C3003 C3008 1.490 . S
C3004 H2994 0.930 . S
C3004 C3003 1.400 . S
C3004 C3007 1.386 . S
H3005 C3021 0.930 . S
H3006 C3022 0.931 . S
C3007 H2995 0.929 . S
C3007 C3001 1.390 . S
C3007 C3004 1.386 . S
C3008 C3003 1.490 . S
C3008 C3010 1.395 . S
C3008 C3011 1.403 . S
H3009 C3015 0.930 . S
C3010 H2996 0.930 . S
C3010 C3008 1.395 . S
C3010 C3013 1.403 . S
C3011 C3008 1.403 . S
C3011 C3012 1.524 . S
C3011 C3015 1.400 . S
C3012 H2997 0.960 . S
C3012 H2998 0.960 . S
C3012 H2999 0.960 . S
C3012 C3011 1.524 . S
C3013 C3010 1.403 . S
C3013 C3014 1.392 . S
C3013 C3017 1.495 . S
C3014 C3013 1.392 . S
C3014 C3015 1.385 . S
C3014 C3016 1.478 . S
C3015 H3009 0.930 . S
C3015 C3011 1.400 . S
C3015 C3014 1.385 . S
C3016 C3014 1.478 . S
C3016 C3018 1.381 . S
C3016 C3022 1.383 . S
C3017 C3013 1.495 . S
C3017 H3023 0.959 . S
C3017 H3024 0.961 . S
C3017 H3025 0.960 . S
C3018 C3016 1.381 . S
C3018 C3019 1.394 . S
C3018 H3026 0.930 . S
C3019 C3018 1.394 . S
C3019 C3020 1.383 . S
C3019 H3027 0.929 . S
C3020 C3019 1.383 . S
C3020 C3021 1.377 . S
C3021 H3005 0.930 . S
C3021 C3020 1.377 . S
C3021 C3022 1.379 . S
C3022 H3006 0.931 . S
C3022 C3016 1.383 . S
C3022 C3021 1.379 . S
H3023 C3017 0.959 . S
H3024 C3017 0.961 . S
H3025 C3017 0.960 . S
H3026 C3018 0.930 . S
H3027 C3019 0.929 . S
H3028 C3036 0.929 . S
H3029 C3038 0.930 . S
H3030 C3040 0.930 . S
H3031 C3043 0.929 . S
H3032 C3046 0.930 . S
H3033 C3048 0.960 . S
H3034 C3048 0.960 . S
H3035 C3048 0.960 . S
C3036 H3028 0.929 . S
C3036 C3037 1.377 . S
C3036 C3038 1.384 . S
C3037 C3036 1.377 . S
C3037 C3043 1.390 . S
C3038 H3029 0.930 . S
C3038 C3036 1.384 . S
C3038 C3039 1.372 . S
C3039 C3038 1.372 . S
C3039 C3040 1.400 . S
C3039 C3044 1.490 . S
C3040 H3030 0.930 . S
C3040 C3039 1.400 . S
C3040 C3043 1.386 . S
H3041 C3057 0.930 . S
H3042 C3058 0.931 . S
C3043 H3031 0.929 . S
C3043 C3037 1.390 . S
C3043 C3040 1.386 . S
C3044 C3039 1.490 . S
C3044 C3046 1.395 . S
C3044 C3047 1.403 . S
H3045 C3051 0.930 . S
C3046 H3032 0.930 . S
C3046 C3044 1.395 . S
C3046 C3049 1.403 . S
C3047 C3044 1.403 . S
C3047 C3048 1.524 . S
C3047 C3051 1.400 . S
C3048 H3033 0.960 . S
C3048 H3034 0.960 . S
C3048 H3035 0.960 . S
C3048 C3047 1.524 . S
C3049 C3046 1.403 . S
C3049 C3050 1.392 . S
C3049 C3053 1.495 . S
C3050 C3049 1.392 . S
C3050 C3051 1.385 . S
C3050 C3052 1.478 . S
C3051 H3045 0.930 . S
C3051 C3047 1.400 . S
C3051 C3050 1.385 . S
C3052 C3050 1.478 . S
C3052 C3054 1.381 . S
C3052 C3058 1.383 . S
C3053 C3049 1.495 . S
C3053 H3059 0.959 . S
C3053 H3060 0.961 . S
C3053 H3061 0.960 . S
C3054 C3052 1.381 . S
C3054 C3055 1.394 . S
C3054 H3062 0.930 . S
C3055 C3054 1.394 . S
C3055 C3056 1.383 . S
C3055 H3063 0.929 . S
C3056 C3055 1.383 . S
C3056 C3057 1.377 . S
C3057 H3041 0.930 . S
C3057 C3056 1.377 . S
C3057 C3058 1.379 . S
C3058 H3042 0.931 . S
C3058 C3052 1.383 . S
C3058 C3057 1.379 . S
H3059 C3053 0.959 . S
H3060 C3053 0.961 . S
H3061 C3053 0.960 . S
H3062 C3054 0.930 . S
H3063 C3055 0.929 . S
H3064 C3072 0.929 . S
H3065 C3074 0.930 . S
H3066 C3076 0.930 . S
H3067 C3079 0.929 . S
H3068 C3082 0.930 . S
H3069 C3084 0.960 . S
H3070 C3084 0.960 . S
H3071 C3084 0.960 . S
C3072 H3064 0.929 . S
C3072 C3073 1.377 . S
C3072 C3074 1.384 . S
C3073 C3072 1.377 . S
C3073 C3079 1.390 . S
C3074 H3065 0.930 . S
C3074 C3072 1.384 . S
C3074 C3075 1.372 . S
C3075 C3074 1.372 . S
C3075 C3076 1.400 . S
C3075 C3080 1.490 . S
C3076 H3066 0.930 . S
C3076 C3075 1.400 . S
C3076 C3079 1.386 . S
H3077 C3093 0.930 . S
H3078 C3094 0.931 . S
C3079 H3067 0.929 . S
C3079 C3073 1.390 . S
C3079 C3076 1.386 . S
C3080 C3075 1.490 . S
C3080 C3082 1.395 . S
C3080 C3083 1.403 . S
H3081 C3087 0.930 . S
C3082 H3068 0.930 . S
C3082 C3080 1.395 . S
C3082 C3085 1.403 . S
C3083 C3080 1.403 . S
C3083 C3084 1.524 . S
C3083 C3087 1.400 . S
C3084 H3069 0.960 . S
C3084 H3070 0.960 . S
C3084 H3071 0.960 . S
C3084 C3083 1.524 . S
C3085 C3082 1.403 . S
C3085 C3086 1.392 . S
C3085 C3089 1.495 . S
C3086 C3085 1.392 . S
C3086 C3087 1.385 . S
C3086 C3088 1.478 . S
C3087 H3081 0.930 . S
C3087 C3083 1.400 . S
C3087 C3086 1.385 . S
C3088 C3086 1.478 . S
C3088 C3090 1.381 . S
C3088 C3094 1.383 . S
C3089 C3085 1.495 . S
C3089 H3095 0.959 . S
C3089 H3096 0.961 . S
C3089 H3097 0.960 . S
C3090 C3088 1.381 . S
C3090 C3091 1.394 . S
C3090 H3098 0.930 . S
C3091 C3090 1.394 . S
C3091 C3092 1.383 . S
C3091 H3099 0.929 . S
C3092 C3091 1.383 . S
C3092 C3093 1.377 . S
C3093 H3077 0.930 . S
C3093 C3092 1.377 . S
C3093 C3094 1.379 . S
C3094 H3078 0.931 . S
C3094 C3088 1.383 . S
C3094 C3093 1.379 . S
H3095 C3089 0.959 . S
H3096 C3089 0.961 . S
H3097 C3089 0.960 . S
H3098 C3090 0.930 . S
H3099 C3091 0.929 . S
H3100 C3108 0.929 . S
H3101 C3110 0.930 . S
H3102 C3112 0.930 . S
H3103 C3115 0.929 . S
H3104 C3118 0.930 . S
H3105 C3120 0.960 . S
H3106 C3120 0.960 . S
H3107 C3120 0.960 . S
C3108 H3100 0.929 . S
C3108 C3109 1.377 . S
C3108 C3110 1.384 . S
C3109 C3108 1.377 . S
C3109 C3115 1.390 . S
C3110 H3101 0.930 . S
C3110 C3108 1.384 . S
C3110 C3111 1.372 . S
C3111 C3110 1.372 . S
C3111 C3112 1.400 . S
C3111 C3116 1.490 . S
C3112 H3102 0.930 . S
C3112 C3111 1.400 . S
C3112 C3115 1.386 . S
H3113 C3129 0.930 . S
H3114 C3130 0.931 . S
C3115 H3103 0.929 . S
C3115 C3109 1.390 . S
C3115 C3112 1.386 . S
C3116 C3111 1.490 . S
C3116 C3118 1.395 . S
C3116 C3119 1.403 . S
H3117 C3123 0.930 . S
C3118 H3104 0.930 . S
C3118 C3116 1.395 . S
C3118 C3121 1.403 . S
C3119 C3116 1.403 . S
C3119 C3120 1.524 . S
C3119 C3123 1.400 . S
C3120 H3105 0.960 . S
C3120 H3106 0.960 . S
C3120 H3107 0.960 . S
C3120 C3119 1.524 . S
C3121 C3118 1.403 . S
C3121 C3122 1.392 . S
C3121 C3125 1.495 . S
C3122 C3121 1.392 . S
C3122 C3123 1.385 . S
C3122 C3124 1.478 . S
C3123 H3117 0.930 . S
C3123 C3119 1.400 . S
C3123 C3122 1.385 . S
C3124 C3122 1.478 . S
C3124 C3126 1.381 . S
C3124 C3130 1.383 . S
C3125 C3121 1.495 . S
C3125 H3131 0.959 . S
C3125 H3132 0.961 . S
C3125 H3133 0.960 . S
C3126 C3124 1.381 . S
C3126 C3127 1.394 . S
C3126 H3134 0.930 . S
C3127 C3126 1.394 . S
C3127 C3128 1.383 . S
C3127 H3135 0.929 . S
C3128 C3127 1.383 . S
C3128 C3129 1.377 . S
C3129 H3113 0.930 . S
C3129 C3128 1.377 . S
C3129 C3130 1.379 . S
C3130 H3114 0.931 . S
C3130 C3124 1.383 . S
C3130 C3129 1.379 . S
H3131 C3125 0.959 . S
H3132 C3125 0.961 . S
H3133 C3125 0.960 . S
H3134 C3126 0.930 . S
H3135 C3127 0.929 . S
H3136 C3144 0.929 . S
H3137 C3146 0.930 . S
H3138 C3148 0.930 . S
H3139 C3151 0.929 . S
H3140 C3154 0.930 . S
H3141 C3156 0.960 . S
H3142 C3156 0.960 . S
H3143 C3156 0.960 . S
C3144 H3136 0.929 . S
C3144 C3145 1.377 . S
C3144 C3146 1.384 . S
C3145 C3144 1.377 . S
C3145 C3151 1.390 . S
C3146 H3137 0.930 . S
C3146 C3144 1.384 . S
C3146 C3147 1.372 . S
C3147 C3146 1.372 . S
C3147 C3148 1.400 . S
C3147 C3152 1.490 . S
C3148 H3138 0.930 . S
C3148 C3147 1.400 . S
C3148 C3151 1.386 . S
H3149 C3165 0.930 . S
H3150 C3166 0.931 . S
C3151 H3139 0.929 . S
C3151 C3145 1.390 . S
C3151 C3148 1.386 . S
C3152 C3147 1.490 . S
C3152 C3154 1.395 . S
C3152 C3155 1.403 . S
H3153 C3159 0.930 . S
C3154 H3140 0.930 . S
C3154 C3152 1.395 . S
C3154 C3157 1.403 . S
C3155 C3152 1.403 . S
C3155 C3156 1.524 . S
C3155 C3159 1.400 . S
C3156 H3141 0.960 . S
C3156 H3142 0.960 . S
C3156 H3143 0.960 . S
C3156 C3155 1.524 . S
C3157 C3154 1.403 . S
C3157 C3158 1.392 . S
C3157 C3161 1.495 . S
C3158 C3157 1.392 . S
C3158 C3159 1.385 . S
C3158 C3160 1.478 . S
C3159 H3153 0.930 . S
C3159 C3155 1.400 . S
C3159 C3158 1.385 . S
C3160 C3158 1.478 . S
C3160 C3162 1.381 . S
C3160 C3166 1.383 . S
C3161 C3157 1.495 . S
C3161 H3167 0.959 . S
C3161 H3168 0.961 . S
C3161 H3169 0.960 . S
C3162 C3160 1.381 . S
C3162 C3163 1.394 . S
C3162 H3170 0.930 . S
C3163 C3162 1.394 . S
C3163 C3164 1.383 . S
C3163 H3171 0.929 . S
C3164 C3163 1.383 . S
C3164 C3165 1.377 . S
C3165 H3149 0.930 . S
C3165 C3164 1.377 . S
C3165 C3166 1.379 . S
C3166 H3150 0.931 . S
C3166 C3160 1.383 . S
C3166 C3165 1.379 . S
H3167 C3161 0.959 . S
H3168 C3161 0.961 . S
H3169 C3161 0.960 . S
H3170 C3162 0.930 . S
H3171 C3163 0.929 . S
H3172 C3180 0.929 . S
H3173 C3182 0.930 . S
H3174 C3184 0.930 . S
H3175 C3187 0.929 . S
H3176 C3190 0.930 . S
H3177 C3192 0.960 . S
H3178 C3192 0.960 . S
H3179 C3192 0.960 . S
C3180 H3172 0.929 . S
C3180 C3181 1.377 . S
C3180 C3182 1.384 . S
C3181 C3180 1.377 . S
C3181 C3187 1.390 . S
C3182 H3173 0.930 . S
C3182 C3180 1.384 . S
C3182 C3183 1.372 . S
C3183 C3182 1.372 . S
C3183 C3184 1.400 . S
C3183 C3188 1.490 . S
C3184 H3174 0.930 . S
C3184 C3183 1.400 . S
C3184 C3187 1.386 . S
H3185 C3201 0.930 . S
H3186 C3202 0.931 . S
C3187 H3175 0.929 . S
C3187 C3181 1.390 . S
C3187 C3184 1.386 . S
C3188 C3183 1.490 . S
C3188 C3190 1.395 . S
C3188 C3191 1.403 . S
H3189 C3195 0.930 . S
C3190 H3176 0.930 . S
C3190 C3188 1.395 . S
C3190 C3193 1.403 . S
C3191 C3188 1.403 . S
C3191 C3192 1.524 . S
C3191 C3195 1.400 . S
C3192 H3177 0.960 . S
C3192 H3178 0.960 . S
C3192 H3179 0.960 . S
C3192 C3191 1.524 . S
C3193 C3190 1.403 . S
C3193 C3194 1.392 . S
C3193 C3197 1.495 . S
C3194 C3193 1.392 . S
C3194 C3195 1.385 . S
C3194 C3196 1.478 . S
C3195 H3189 0.930 . S
C3195 C3191 1.400 . S
C3195 C3194 1.385 . S
C3196 C3194 1.478 . S
C3196 C3198 1.381 . S
C3196 C3202 1.383 . S
C3197 C3193 1.495 . S
C3197 H3203 0.959 . S
C3197 H3204 0.961 . S
C3197 H3205 0.960 . S
C3198 C3196 1.381 . S
C3198 C3199 1.394 . S
C3198 H3206 0.930 . S
C3199 C3198 1.394 . S
C3199 C3200 1.383 . S
C3199 H3207 0.929 . S
C3200 C3199 1.383 . S
C3200 C3201 1.377 . S
C3201 H3185 0.930 . S
C3201 C3200 1.377 . S
C3201 C3202 1.379 . S
C3202 H3186 0.931 . S
C3202 C3196 1.383 . S
C3202 C3201 1.379 . S
H3203 C3197 0.959 . S
H3204 C3197 0.961 . S
H3205 C3197 0.960 . S
H3206 C3198 0.930 . S
H3207 C3199 0.929 . S
H3208 C3216 0.929 . S
H3209 C3218 0.930 . S
H3210 C3220 0.930 . S
H3211 C3223 0.929 . S
H3212 C3226 0.930 . S
H3213 C3228 0.960 . S
H3214 C3228 0.960 . S
H3215 C3228 0.960 . S
C3216 H3208 0.929 . S
C3216 C3217 1.377 . S
C3216 C3218 1.384 . S
C3217 C3216 1.377 . S
C3217 C3223 1.390 . S
C3218 H3209 0.930 . S
C3218 C3216 1.384 . S
C3218 C3219 1.372 . S
C3219 C3218 1.372 . S
C3219 C3220 1.400 . S
C3219 C3224 1.490 . S
C3220 H3210 0.930 . S
C3220 C3219 1.400 . S
C3220 C3223 1.386 . S
H3221 C3237 0.930 . S
H3222 C3238 0.931 . S
C3223 H3211 0.929 . S
C3223 C3217 1.390 . S
C3223 C3220 1.386 . S
C3224 C3219 1.490 . S
C3224 C3226 1.395 . S
C3224 C3227 1.403 . S
H3225 C3231 0.930 . S
C3226 H3212 0.930 . S
C3226 C3224 1.395 . S
C3226 C3229 1.403 . S
C3227 C3224 1.403 . S
C3227 C3228 1.524 . S
C3227 C3231 1.400 . S
C3228 H3213 0.960 . S
C3228 H3214 0.960 . S
C3228 H3215 0.960 . S
C3228 C3227 1.524 . S
C3229 C3226 1.403 . S
C3229 C3230 1.392 . S
C3229 C3233 1.495 . S
C3230 C3229 1.392 . S
C3230 C3231 1.385 . S
C3230 C3232 1.478 . S
C3231 H3225 0.930 . S
C3231 C3227 1.400 . S
C3231 C3230 1.385 . S
C3232 C3230 1.478 . S
C3232 C3234 1.381 . S
C3232 C3238 1.383 . S
C3233 C3229 1.495 . S
C3233 H3239 0.959 . S
C3233 H3240 0.961 . S
C3233 H3241 0.960 . S
C3234 C3232 1.381 . S
C3234 C3235 1.394 . S
C3234 H3242 0.930 . S
C3235 C3234 1.394 . S
C3235 C3236 1.383 . S
C3235 H3243 0.929 . S
C3236 C3235 1.383 . S
C3236 C3237 1.377 . S
C3237 H3221 0.930 . S
C3237 C3236 1.377 . S
C3237 C3238 1.379 . S
C3238 H3222 0.931 . S
C3238 C3232 1.383 . S
C3238 C3237 1.379 . S
H3239 C3233 0.959 . S
H3240 C3233 0.961 . S
H3241 C3233 0.960 . S
H3242 C3234 0.930 . S
H3243 C3235 0.929 . S
H3244 C3252 0.929 . S
H3245 C3254 0.930 . S
H3246 C3256 0.930 . S
H3247 C3259 0.929 . S
H3248 C3262 0.930 . S
H3249 C3264 0.960 . S
H3250 C3264 0.960 . S
H3251 C3264 0.960 . S
C3252 H3244 0.929 . S
C3252 C3253 1.377 . S
C3252 C3254 1.384 . S
C3253 C3252 1.377 . S
C3253 C3259 1.390 . S
C3254 H3245 0.930 . S
C3254 C3252 1.384 . S
C3254 C3255 1.372 . S
C3255 C3254 1.372 . S
C3255 C3256 1.400 . S
C3255 C3260 1.490 . S
C3256 H3246 0.930 . S
C3256 C3255 1.400 . S
C3256 C3259 1.386 . S
H3257 C3273 0.930 . S
H3258 C3274 0.931 . S
C3259 H3247 0.929 . S
C3259 C3253 1.390 . S
C3259 C3256 1.386 . S
C3260 C3255 1.490 . S
C3260 C3262 1.395 . S
C3260 C3263 1.403 . S
H3261 C3267 0.930 . S
C3262 H3248 0.930 . S
C3262 C3260 1.395 . S
C3262 C3265 1.403 . S
C3263 C3260 1.403 . S
C3263 C3264 1.524 . S
C3263 C3267 1.400 . S
C3264 H3249 0.960 . S
C3264 H3250 0.960 . S
C3264 H3251 0.960 . S
C3264 C3263 1.524 . S
C3265 C3262 1.403 . S
C3265 C3266 1.392 . S
C3265 C3269 1.495 . S
C3266 C3265 1.392 . S
C3266 C3267 1.385 . S
C3266 C3268 1.478 . S
C3267 H3261 0.930 . S
C3267 C3263 1.400 . S
C3267 C3266 1.385 . S
C3268 C3266 1.478 . S
C3268 C3270 1.381 . S
C3268 C3274 1.383 . S
C3269 C3265 1.495 . S
C3269 H3275 0.959 . S
C3269 H3276 0.961 . S
C3269 H3277 0.960 . S
C3270 C3268 1.381 . S
C3270 C3271 1.394 . S
C3270 H3278 0.930 . S
C3271 C3270 1.394 . S
C3271 C3272 1.383 . S
C3271 H3279 0.929 . S
C3272 C3271 1.383 . S
C3272 C3273 1.377 . S
C3273 H3257 0.930 . S
C3273 C3272 1.377 . S
C3273 C3274 1.379 . S
C3274 H3258 0.931 . S
C3274 C3268 1.383 . S
C3274 C3273 1.379 . S
H3275 C3269 0.959 . S
H3276 C3269 0.961 . S
H3277 C3269 0.960 . S
H3278 C3270 0.930 . S
H3279 C3271 0.929 . S
H3280 C3288 0.929 . S
H3281 C3290 0.930 . S
H3282 C3292 0.930 . S
H3283 C3295 0.929 . S
H3284 C3298 0.930 . S
H3285 C3300 0.960 . S
H3286 C3300 0.960 . S
H3287 C3300 0.960 . S
C3288 H3280 0.929 . S
C3288 C3289 1.377 . S
C3288 C3290 1.384 . S
C3289 C3288 1.377 . S
C3289 C3295 1.390 . S
C3290 H3281 0.930 . S
C3290 C3288 1.384 . S
C3290 C3291 1.372 . S
C3291 C3290 1.372 . S
C3291 C3292 1.400 . S
C3291 C3296 1.490 . S
C3292 H3282 0.930 . S
C3292 C3291 1.400 . S
C3292 C3295 1.386 . S
H3293 C3309 0.930 . S
H3294 C3310 0.931 . S
C3295 H3283 0.929 . S
C3295 C3289 1.390 . S
C3295 C3292 1.386 . S
C3296 C3291 1.490 . S
C3296 C3298 1.395 . S
C3296 C3299 1.403 . S
H3297 C3303 0.930 . S
C3298 H3284 0.930 . S
C3298 C3296 1.395 . S
C3298 C3301 1.403 . S
C3299 C3296 1.403 . S
C3299 C3300 1.524 . S
C3299 C3303 1.400 . S
C3300 H3285 0.960 . S
C3300 H3286 0.960 . S
C3300 H3287 0.960 . S
C3300 C3299 1.524 . S
C3301 C3298 1.403 . S
C3301 C3302 1.392 . S
C3301 C3305 1.495 . S
C3302 C3301 1.392 . S
C3302 C3303 1.385 . S
C3302 C3304 1.478 . S
C3303 H3297 0.930 . S
C3303 C3299 1.400 . S
C3303 C3302 1.385 . S
C3304 C3302 1.478 . S
C3304 C3306 1.381 . S
C3304 C3310 1.383 . S
C3305 C3301 1.495 . S
C3305 H3311 0.959 . S
C3305 H3312 0.961 . S
C3305 H3313 0.960 . S
C3306 C3304 1.381 . S
C3306 C3307 1.394 . S
C3306 H3314 0.930 . S
C3307 C3306 1.394 . S
C3307 C3308 1.383 . S
C3307 H3315 0.929 . S
C3308 C3307 1.383 . S
C3308 C3309 1.377 . S
C3309 H3293 0.930 . S
C3309 C3308 1.377 . S
C3309 C3310 1.379 . S
C3310 H3294 0.931 . S
C3310 C3304 1.383 . S
C3310 C3309 1.379 . S
H3311 C3305 0.959 . S
H3312 C3305 0.961 . S
H3313 C3305 0.960 . S
H3314 C3306 0.930 . S
H3315 C3307 0.929 . S
H3316 C3324 0.929 . S
H3317 C3326 0.930 . S
H3318 C3328 0.930 . S
H3319 C3331 0.929 . S
H3320 C3334 0.930 . S
H3321 C3336 0.960 . S
H3322 C3336 0.960 . S
H3323 C3336 0.960 . S
C3324 H3316 0.929 . S
C3324 C3325 1.377 . S
C3324 C3326 1.384 . S
C3325 C3324 1.377 . S
C3325 C3331 1.390 . S
C3326 H3317 0.930 . S
C3326 C3324 1.384 . S
C3326 C3327 1.372 . S
C3327 C3326 1.372 . S
C3327 C3328 1.400 . S
C3327 C3332 1.490 . S
C3328 H3318 0.930 . S
C3328 C3327 1.400 . S
C3328 C3331 1.386 . S
H3329 C3345 0.930 . S
H3330 C3346 0.931 . S
C3331 H3319 0.929 . S
C3331 C3325 1.390 . S
C3331 C3328 1.386 . S
C3332 C3327 1.490 . S
C3332 C3334 1.395 . S
C3332 C3335 1.403 . S
H3333 C3339 0.930 . S
C3334 H3320 0.930 . S
C3334 C3332 1.395 . S
C3334 C3337 1.403 . S
C3335 C3332 1.403 . S
C3335 C3336 1.524 . S
C3335 C3339 1.400 . S
C3336 H3321 0.960 . S
C3336 H3322 0.960 . S
C3336 H3323 0.960 . S
C3336 C3335 1.524 . S
C3337 C3334 1.403 . S
C3337 C3338 1.392 . S
C3337 C3341 1.495 . S
C3338 C3337 1.392 . S
C3338 C3339 1.385 . S
C3338 C3340 1.478 . S
C3339 H3333 0.930 . S
C3339 C3335 1.400 . S
C3339 C3338 1.385 . S
C3340 C3338 1.478 . S
C3340 C3342 1.381 . S
C3340 C3346 1.383 . S
C3341 C3337 1.495 . S
C3341 H3347 0.959 . S
C3341 H3348 0.961 . S
C3341 H3349 0.960 . S
C3342 C3340 1.381 . S
C3342 C3343 1.394 . S
C3342 H3350 0.930 . S
C3343 C3342 1.394 . S
C3343 C3344 1.383 . S
C3343 H3351 0.929 . S
C3344 C3343 1.383 . S
C3344 C3345 1.377 . S
C3345 H3329 0.930 . S
C3345 C3344 1.377 . S
C3345 C3346 1.379 . S
C3346 H3330 0.931 . S
C3346 C3340 1.383 . S
C3346 C3345 1.379 . S
H3347 C3341 0.959 . S
H3348 C3341 0.961 . S
H3349 C3341 0.960 . S
H3350 C3342 0.930 . S
H3351 C3343 0.929 . S
H3352 C3360 0.929 . S
H3353 C3362 0.930 . S
H3354 C3364 0.930 . S
H3355 C3367 0.929 . S
H3356 C3370 0.930 . S
H3357 C3372 0.960 . S
H3358 C3372 0.960 . S
H3359 C3372 0.960 . S
C3360 H3352 0.929 . S
C3360 C3361 1.377 . S
C3360 C3362 1.384 1_545 S
C3361 C3360 1.377 . S
C3361 C3367 1.390 1_545 S
C3362 H3353 0.930 . S
C3362 C3360 1.384 1_565 S
C3362 C3363 1.372 . S
C3363 C3362 1.372 . S
C3363 C3364 1.400 . S
C3363 C3368 1.490 . S
C3364 H3354 0.930 . S
C3364 C3363 1.400 . S
C3364 C3367 1.386 . S
H3365 C3381 0.930 . S
H3366 C3382 0.931 . S
C3367 H3355 0.929 . S
C3367 C3361 1.390 1_565 S
C3367 C3364 1.386 . S
C3368 C3363 1.490 . S
C3368 C3370 1.395 . S
C3368 C3371 1.403 . S
H3369 C3375 0.930 . S
C3370 H3356 0.930 . S
C3370 C3368 1.395 . S
C3370 C3373 1.403 . S
C3371 C3368 1.403 . S
C3371 C3372 1.524 . S
C3371 C3375 1.400 . S
C3372 H3357 0.960 . S
C3372 H3358 0.960 . S
C3372 H3359 0.960 . S
C3372 C3371 1.524 . S
C3373 C3370 1.403 . S
C3373 C3374 1.392 . S
C3373 C3377 1.495 . S
C3374 C3373 1.392 . S
C3374 C3375 1.385 . S
C3374 C3376 1.478 . S
C3375 H3369 0.930 . S
C3375 C3371 1.400 . S
C3375 C3374 1.385 . S
C3376 C3374 1.478 . S
C3376 C3378 1.381 . S
C3376 C3382 1.383 . S
C3377 C3373 1.495 . S
C3377 H3383 0.959 . S
C3377 H3384 0.961 . S
C3377 H3385 0.960 . S
C3378 C3376 1.381 . S
C3378 C3379 1.394 . S
C3378 H3386 0.930 . S
C3379 C3378 1.394 . S
C3379 C3380 1.383 . S
C3379 H3387 0.929 . S
C3380 C3379 1.383 . S
C3380 C3381 1.377 . S
C3381 H3365 0.930 . S
C3381 C3380 1.377 . S
C3381 C3382 1.379 . S
C3382 H3366 0.931 . S
C3382 C3376 1.383 . S
C3382 C3381 1.379 . S
H3383 C3377 0.959 . S
H3384 C3377 0.961 . S
H3385 C3377 0.960 . S
H3386 C3378 0.930 . S
H3387 C3379 0.929 . S
H3388 C3396 0.929 . S
H3389 C3398 0.930 . S
H3390 C3400 0.930 . S
H3391 C3403 0.929 . S
H3392 C3406 0.930 . S
H3393 C3408 0.960 . S
H3394 C3408 0.960 . S
H3395 C3408 0.960 . S
C3396 H3388 0.929 . S
C3396 C3397 1.377 . S
C3396 C3398 1.384 . S
C3397 C3396 1.377 . S
C3397 C3403 1.390 . S
C3398 H3389 0.930 . S
C3398 C3396 1.384 . S
C3398 C3399 1.372 . S
C3399 C3398 1.372 . S
C3399 C3400 1.400 . S
C3399 C3404 1.490 . S
C3400 H3390 0.930 . S
C3400 C3399 1.400 . S
C3400 C3403 1.386 . S
H3401 C3417 0.930 . S
H3402 C3418 0.931 . S
C3403 H3391 0.929 . S
C3403 C3397 1.390 . S
C3403 C3400 1.386 . S
C3404 C3399 1.490 . S
C3404 C3406 1.395 . S
C3404 C3407 1.403 . S
H3405 C3411 0.930 . S
C3406 H3392 0.930 . S
C3406 C3404 1.395 . S
C3406 C3409 1.403 . S
C3407 C3404 1.403 . S
C3407 C3408 1.524 . S
C3407 C3411 1.400 . S
C3408 H3393 0.960 . S
C3408 H3394 0.960 . S
C3408 H3395 0.960 . S
C3408 C3407 1.524 . S
C3409 C3406 1.403 . S
C3409 C3410 1.392 . S
C3409 C3413 1.495 . S
C3410 C3409 1.392 . S
C3410 C3411 1.385 . S
C3410 C3412 1.478 . S
C3411 H3405 0.930 . S
C3411 C3407 1.400 . S
C3411 C3410 1.385 . S
C3412 C3410 1.478 . S
C3412 C3414 1.381 . S
C3412 C3418 1.383 . S
C3413 C3409 1.495 . S
C3413 H3419 0.959 . S
C3413 H3420 0.961 . S
C3413 H3421 0.960 . S
C3414 C3412 1.381 . S
C3414 C3415 1.394 . S
C3414 H3422 0.930 . S
C3415 C3414 1.394 . S
C3415 C3416 1.383 1_565 S
C3415 H3423 0.929 . S
C3416 C3415 1.383 1_545 S
C3416 C3417 1.377 . S
C3417 H3401 0.930 . S
C3417 C3416 1.377 . S
C3417 C3418 1.379 1_545 S
C3418 H3402 0.931 . S
C3418 C3412 1.383 . S
C3418 C3417 1.379 1_565 S
H3419 C3413 0.959 . S
H3420 C3413 0.961 . S
H3421 C3413 0.960 . S
H3422 C3414 0.930 . S
H3423 C3415 0.929 . S
H3424 C3432 0.929 . S
H3425 C3434 0.930 . S
H3426 C3436 0.930 . S
H3427 C3439 0.929 . S
H3428 C3442 0.930 . S
H3429 C3444 0.960 . S
H3430 C3444 0.960 . S
H3431 C3444 0.960 . S
C3432 H3424 0.929 . S
C3432 C3433 1.377 . S
C3432 C3434 1.384 . S
C3433 C3432 1.377 . S
C3433 C3439 1.390 . S
C3434 H3425 0.930 . S
C3434 C3432 1.384 . S
C3434 C3435 1.372 . S
C3435 C3434 1.372 . S
C3435 C3436 1.400 . S
C3435 C3440 1.490 . S
C3436 H3426 0.930 . S
C3436 C3435 1.400 . S
C3436 C3439 1.386 . S
H3437 C3453 0.930 . S
H3438 C3454 0.931 . S
C3439 H3427 0.929 . S
C3439 C3433 1.390 . S
C3439 C3436 1.386 . S
C3440 C3435 1.490 . S
C3440 C3442 1.395 . S
C3440 C3443 1.403 . S
H3441 C3447 0.930 . S
C3442 H3428 0.930 . S
C3442 C3440 1.395 . S
C3442 C3445 1.403 . S
C3443 C3440 1.403 . S
C3443 C3444 1.524 . S
C3443 C3447 1.400 . S
C3444 H3429 0.960 . S
C3444 H3430 0.960 . S
C3444 H3431 0.960 . S
C3444 C3443 1.524 . S
C3445 C3442 1.403 . S
C3445 C3446 1.392 . S
C3445 C3449 1.495 . S
C3446 C3445 1.392 . S
C3446 C3447 1.385 . S
C3446 C3448 1.478 . S
C3447 H3441 0.930 . S
C3447 C3443 1.400 . S
C3447 C3446 1.385 . S
C3448 C3446 1.478 . S
C3448 C3450 1.381 . S
C3448 C3454 1.383 . S
C3449 C3445 1.495 . S
C3449 H3455 0.959 . S
C3449 H3456 0.961 . S
C3449 H3457 0.960 . S
C3450 C3448 1.381 . S
C3450 C3451 1.394 . S
C3450 H3458 0.930 . S
C3451 C3450 1.394 . S
C3451 C3452 1.383 . S
C3451 H3459 0.929 . S
C3452 C3451 1.383 . S
C3452 C3453 1.377 . S
C3453 H3437 0.930 . S
C3453 C3452 1.377 . S
C3453 C3454 1.379 . S
C3454 H3438 0.931 . S
C3454 C3448 1.383 . S
C3454 C3453 1.379 . S
H3455 C3449 0.959 . S
H3456 C3449 0.961 . S
H3457 C3449 0.960 . S
H3458 C3450 0.930 . S
H3459 C3451 0.929 . S
H3460 C3468 0.929 1_556 S
H3461 C3470 0.930 1_556 S
H3462 C3472 0.930 . S
H3463 C3475 0.929 . S
H3464 C3478 0.930 . S
H3465 C3480 0.960 . S
H3466 C3480 0.960 . S
H3467 C3480 0.960 . S
C3468 H3460 0.929 1_554 S
C3468 C3469 1.377 . S
C3468 C3470 1.384 . S
C3469 C3468 1.377 . S
C3469 C3475 1.390 . S
C3470 H3461 0.930 1_554 S
C3470 C3468 1.384 . S
C3470 C3471 1.372 . S
C3471 C3470 1.372 . S
C3471 C3472 1.400 . S
C3471 C3476 1.490 . S
C3472 H3462 0.930 . S
C3472 C3471 1.400 . S
C3472 C3475 1.386 . S
H3473 C3489 0.930 . S
H3474 C3490 0.931 . S
C3475 H3463 0.929 . S
C3475 C3469 1.390 . S
C3475 C3472 1.386 . S
C3476 C3471 1.490 . S
C3476 C3478 1.395 . S
C3476 C3479 1.403 . S
H3477 C3483 0.930 . S
C3478 H3464 0.930 . S
C3478 C3476 1.395 . S
C3478 C3481 1.403 . S
C3479 C3476 1.403 . S
C3479 C3480 1.524 . S
C3479 C3483 1.400 . S
C3480 H3465 0.960 . S
C3480 H3466 0.960 . S
C3480 H3467 0.960 . S
C3480 C3479 1.524 . S
C3481 C3478 1.403 . S
C3481 C3482 1.392 . S
C3481 C3485 1.495 . S
C3482 C3481 1.392 . S
C3482 C3483 1.385 . S
C3482 C3484 1.478 . S
C3483 H3477 0.930 . S
C3483 C3479 1.400 . S
C3483 C3482 1.385 . S
C3484 C3482 1.478 . S
C3484 C3486 1.381 . S
C3484 C3490 1.383 . S
C3485 C3481 1.495 . S
C3485 H3491 0.959 1_554 S
C3485 H3492 0.961 . S
C3485 H3493 0.960 1_554 S
C3486 C3484 1.381 . S
C3486 C3487 1.394 . S
C3486 H3494 0.930 1_554 S
C3487 C3486 1.394 . S
C3487 C3488 1.383 . S
C3487 H3495 0.931 1_554 S
C3488 C3487 1.383 . S
C3488 C3489 1.377 . S
C3489 H3473 0.930 . S
C3489 C3488 1.377 . S
C3489 C3490 1.379 . S
C3490 H3474 0.931 . S
C3490 C3484 1.383 . S
C3490 C3489 1.379 . S
H3491 C3485 0.959 1_556 S
H3492 C3485 0.961 . S
H3493 C3485 0.960 1_556 S
H3494 C3486 0.930 1_556 S
H3495 C3487 0.931 1_556 S
H3496 C3504 0.929 . S
H3497 C3506 0.930 . S
H3498 C3508 0.930 . S
H3499 C3511 0.929 . S
H3500 C3514 0.930 . S
H3501 C3516 0.960 . S
H3502 C3516 0.960 . S
H3503 C3516 0.960 . S
C3504 H3496 0.929 . S
C3504 C3505 1.377 . S
C3504 C3506 1.384 . S
C3505 C3504 1.377 . S
C3505 C3511 1.390 . S
C3506 H3497 0.930 . S
C3506 C3504 1.384 . S
C3506 C3507 1.372 . S
C3507 C3506 1.372 . S
C3507 C3508 1.400 . S
C3507 C3512 1.490 . S
C3508 H3498 0.930 . S
C3508 C3507 1.400 . S
C3508 C3511 1.386 . S
H3509 C3525 0.930 . S
H3510 C3526 0.931 . S
C3511 H3499 0.929 . S
C3511 C3505 1.390 . S
C3511 C3508 1.386 . S
C3512 C3507 1.490 . S
C3512 C3514 1.395 . S
C3512 C3515 1.403 . S
H3513 C3519 0.930 . S
C3514 H3500 0.930 . S
C3514 C3512 1.395 . S
C3514 C3517 1.403 . S
C3515 C3512 1.403 . S
C3515 C3516 1.524 . S
C3515 C3519 1.400 . S
C3516 H3501 0.960 . S
C3516 H3502 0.960 . S
C3516 H3503 0.960 . S
C3516 C3515 1.524 . S
C3517 C3514 1.403 . S
C3517 C3518 1.392 . S
C3517 C3521 1.495 . S
C3518 C3517 1.392 . S
C3518 C3519 1.385 . S
C3518 C3520 1.478 . S
C3519 H3513 0.930 . S
C3519 C3515 1.400 . S
C3519 C3518 1.385 . S
C3520 C3518 1.478 . S
C3520 C3522 1.381 . S
C3520 C3526 1.383 . S
C3521 C3517 1.495 . S
C3521 H3527 0.959 . S
C3521 H3528 0.961 . S
C3521 H3529 0.960 . S
C3522 C3520 1.381 . S
C3522 C3523 1.394 . S
C3522 H3530 0.930 . S
C3523 C3522 1.394 . S
C3523 C3524 1.383 . S
C3523 H3531 0.929 . S
C3524 C3523 1.383 . S
C3524 C3525 1.377 . S
C3525 H3509 0.930 . S
C3525 C3524 1.377 . S
C3525 C3526 1.379 . S
C3526 H3510 0.931 . S
C3526 C3520 1.383 . S
C3526 C3525 1.379 . S
H3527 C3521 0.959 . S
H3528 C3521 0.961 . S
H3529 C3521 0.960 . S
H3530 C3522 0.930 . S
H3531 C3523 0.929 . S
H3532 C3540 0.929 . S
H3533 C3542 0.930 . S
H3534 C3544 0.930 . S
H3535 C3547 0.929 . S
H3536 C3550 0.930 . S
H3537 C3552 0.960 . S
H3538 C3552 0.960 . S
H3539 C3552 0.960 . S
C3540 H3532 0.929 . S
C3540 C3541 1.377 . S
C3540 C3542 1.384 . S
C3541 C3540 1.377 . S
C3541 C3547 1.390 . S
C3542 H3533 0.930 . S
C3542 C3540 1.384 . S
C3542 C3543 1.372 1_545 S
C3543 C3542 1.372 1_565 S
C3543 C3544 1.400 . S
C3543 C3548 1.490 . S
C3544 H3534 0.930 . S
C3544 C3543 1.400 . S
C3544 C3547 1.386 1_565 S
H3545 C3561 0.930 . S
H3546 C3562 0.931 . S
C3547 H3535 0.929 . S
C3547 C3541 1.390 . S
C3547 C3544 1.386 1_545 S
C3548 C3543 1.490 . S
C3548 C3550 1.395 . S
C3548 C3551 1.403 . S
H3549 C3555 0.930 . S
C3550 H3536 0.930 . S
C3550 C3548 1.395 . S
C3550 C3553 1.403 . S
C3551 C3548 1.403 . S
C3551 C3552 1.524 . S
C3551 C3555 1.400 . S
C3552 H3537 0.960 . S
C3552 H3538 0.960 . S
C3552 H3539 0.960 . S
C3552 C3551 1.524 . S
C3553 C3550 1.403 . S
C3553 C3554 1.392 . S
C3553 C3557 1.495 . S
C3554 C3553 1.392 . S
C3554 C3555 1.385 . S
C3554 C3556 1.478 . S
C3555 H3549 0.930 . S
C3555 C3551 1.400 . S
C3555 C3554 1.385 . S
C3556 C3554 1.478 . S
C3556 C3558 1.381 . S
C3556 C3562 1.383 . S
C3557 C3553 1.495 . S
C3557 H3563 0.959 . S
C3557 H3564 0.961 . S
C3557 H3565 0.960 . S
C3558 C3556 1.381 . S
C3558 C3559 1.394 . S
C3558 H3566 0.930 . S
C3559 C3558 1.394 . S
C3559 C3560 1.383 . S
C3559 H3567 0.929 . S
C3560 C3559 1.383 . S
C3560 C3561 1.377 . S
C3561 H3545 0.930 . S
C3561 C3560 1.377 . S
C3561 C3562 1.379 . S
C3562 H3546 0.931 . S
C3562 C3556 1.383 . S
C3562 C3561 1.379 . S
H3563 C3557 0.959 . S
H3564 C3557 0.961 . S
H3565 C3557 0.960 . S
H3566 C3558 0.930 . S
H3567 C3559 0.929 . S
H3568 C3576 0.929 . S
H3569 C3578 0.930 . S
H3570 C3580 0.930 . S
H3571 C3583 0.929 . S
H3572 C3586 0.930 . S
H3573 C3588 0.960 . S
H3574 C3588 0.960 . S
H3575 C3588 0.960 . S
C3576 H3568 0.929 . S
C3576 C3577 1.377 . S
C3576 C3578 1.384 . S
C3577 C3576 1.377 . S
C3577 C3583 1.390 . S
C3578 H3569 0.930 . S
C3578 C3576 1.384 . S
C3578 C3579 1.372 . S
C3579 C3578 1.372 . S
C3579 C3580 1.400 . S
C3579 C3584 1.490 . S
C3580 H3570 0.930 . S
C3580 C3579 1.400 . S
C3580 C3583 1.386 . S
H3581 C3597 0.930 . S
H3582 C3598 0.931 . S
C3583 H3571 0.929 . S
C3583 C3577 1.390 . S
C3583 C3580 1.386 . S
C3584 C3579 1.490 . S
C3584 C3586 1.395 . S
C3584 C3587 1.403 . S
H3585 C3591 0.930 . S
C3586 H3572 0.930 . S
C3586 C3584 1.395 . S
C3586 C3589 1.403 . S
C3587 C3584 1.403 . S
C3587 C3588 1.524 . S
C3587 C3591 1.400 . S
C3588 H3573 0.960 . S
C3588 H3574 0.960 . S
C3588 H3575 0.960 . S
C3588 C3587 1.524 . S
C3589 C3586 1.403 . S
C3589 C3590 1.392 . S
C3589 C3593 1.495 . S
C3590 C3589 1.392 . S
C3590 C3591 1.385 . S
C3590 C3592 1.478 . S
C3591 H3585 0.930 . S
C3591 C3587 1.400 . S
C3591 C3590 1.385 . S
C3592 C3590 1.478 . S
C3592 C3594 1.381 . S
C3592 C3598 1.383 . S
C3593 C3589 1.495 . S
C3593 H3599 0.959 . S
C3593 H3600 0.961 . S
C3593 H3601 0.960 . S
C3594 C3592 1.381 . S
C3594 C3595 1.394 . S
C3594 H3602 0.930 . S
C3595 C3594 1.394 . S
C3595 C3596 1.383 . S
C3595 H3603 0.929 . S
C3596 C3595 1.383 . S
C3596 C3597 1.377 . S
C3597 H3581 0.930 . S
C3597 C3596 1.377 . S
C3597 C3598 1.379 . S
C3598 H3582 0.931 . S
C3598 C3592 1.383 . S
C3598 C3597 1.379 . S
H3599 C3593 0.959 . S
H3600 C3593 0.961 . S
H3601 C3593 0.960 . S
H3602 C3594 0.930 . S
H3603 C3595 0.929 . S
H3604 C3612 0.929 . S
H3605 C3614 0.930 . S
H3606 C3616 0.930 . S
H3607 C3619 0.929 . S
H3608 C3622 0.930 . S
H3609 C3624 0.960 . S
H3610 C3624 0.960 . S
H3611 C3624 0.960 . S
C3612 H3604 0.929 . S
C3612 C3613 1.377 . S
C3612 C3614 1.384 . S
C3613 C3612 1.377 . S
C3613 C3619 1.390 . S
C3614 H3605 0.930 . S
C3614 C3612 1.384 . S
C3614 C3615 1.372 . S
C3615 C3614 1.372 . S
C3615 C3616 1.400 . S
C3615 C3620 1.490 . S
C3616 H3606 0.930 . S
C3616 C3615 1.400 . S
C3616 C3619 1.386 . S
H3617 C3633 0.930 . S
H3618 C3634 0.931 . S
C3619 H3607 0.929 . S
C3619 C3613 1.390 . S
C3619 C3616 1.386 . S
C3620 C3615 1.490 . S
C3620 C3622 1.395 . S
C3620 C3623 1.403 . S
H3621 C3627 0.930 . S
C3622 H3608 0.930 . S
C3622 C3620 1.395 . S
C3622 C3625 1.403 . S
C3623 C3620 1.403 . S
C3623 C3624 1.524 . S
C3623 C3627 1.400 . S
C3624 H3609 0.960 . S
C3624 H3610 0.960 . S
C3624 H3611 0.960 . S
C3624 C3623 1.524 . S
C3625 C3622 1.403 . S
C3625 C3626 1.392 . S
C3625 C3629 1.495 . S
C3626 C3625 1.392 . S
C3626 C3627 1.385 . S
C3626 C3628 1.478 . S
C3627 H3621 0.930 . S
C3627 C3623 1.400 . S
C3627 C3626 1.385 . S
C3628 C3626 1.478 . S
C3628 C3630 1.381 . S
C3628 C3634 1.383 . S
C3629 C3625 1.495 . S
C3629 H3635 0.959 . S
C3629 H3636 0.961 . S
C3629 H3637 0.960 . S
C3630 C3628 1.381 . S
C3630 C3631 1.394 . S
C3630 H3638 0.930 . S
C3631 C3630 1.394 . S
C3631 C3632 1.383 . S
C3631 H3639 0.929 . S
C3632 C3631 1.383 . S
C3632 C3633 1.377 . S
C3633 H3617 0.930 . S
C3633 C3632 1.377 . S
C3633 C3634 1.379 . S
C3634 H3618 0.931 . S
C3634 C3628 1.383 . S
C3634 C3633 1.379 . S
H3635 C3629 0.959 . S
H3636 C3629 0.961 . S
H3637 C3629 0.960 . S
H3638 C3630 0.930 . S
H3639 C3631 0.929 . S
H3640 C3648 0.929 . S
H3641 C3650 0.930 . S
H3642 C3652 0.930 . S
H3643 C3655 0.929 . S
H3644 C3658 0.930 . S
H3645 C3660 0.960 . S
H3646 C3660 0.960 . S
H3647 C3660 0.960 . S
C3648 H3640 0.929 . S
C3648 C3649 1.377 . S
C3648 C3650 1.384 . S
C3649 C3648 1.377 . S
C3649 C3655 1.390 . S
C3650 H3641 0.930 . S
C3650 C3648 1.384 . S
C3650 C3651 1.372 . S
C3651 C3650 1.372 . S
C3651 C3652 1.400 . S
C3651 C3656 1.490 . S
C3652 H3642 0.930 . S
C3652 C3651 1.400 . S
C3652 C3655 1.386 . S
H3653 C3669 0.930 . S
H3654 C3670 0.931 . S
C3655 H3643 0.929 . S
C3655 C3649 1.390 . S
C3655 C3652 1.386 . S
C3656 C3651 1.490 . S
C3656 C3658 1.395 . S
C3656 C3659 1.403 . S
H3657 C3663 0.930 . S
C3658 H3644 0.930 . S
C3658 C3656 1.395 . S
C3658 C3661 1.403 . S
C3659 C3656 1.403 . S
C3659 C3660 1.524 . S
C3659 C3663 1.400 . S
C3660 H3645 0.960 . S
C3660 H3646 0.960 . S
C3660 H3647 0.960 . S
C3660 C3659 1.524 . S
C3661 C3658 1.403 . S
C3661 C3662 1.392 . S
C3661 C3665 1.495 . S
C3662 C3661 1.392 . S
C3662 C3663 1.385 . S
C3662 C3664 1.478 . S
C3663 H3657 0.930 . S
C3663 C3659 1.400 . S
C3663 C3662 1.385 . S
C3664 C3662 1.478 . S
C3664 C3666 1.381 . S
C3664 C3670 1.383 . S
C3665 C3661 1.495 . S
C3665 H3671 0.959 . S
C3665 H3672 0.961 . S
C3665 H3673 0.960 . S
C3666 C3664 1.381 . S
C3666 C3667 1.394 . S
C3666 H3674 0.930 . S
C3667 C3666 1.394 . S
C3667 C3668 1.383 . S
C3667 H3675 0.929 . S
C3668 C3667 1.383 . S
C3668 C3669 1.377 . S
C3669 H3653 0.930 . S
C3669 C3668 1.377 . S
C3669 C3670 1.379 . S
C3670 H3654 0.931 . S
C3670 C3664 1.383 . S
C3670 C3669 1.379 . S
H3671 C3665 0.959 . S
H3672 C3665 0.961 . S
H3673 C3665 0.960 . S
H3674 C3666 0.930 . S
H3675 C3667 0.929 . S
H3676 C3684 0.929 . S
H3677 C3686 0.930 . S
H3678 C3688 0.930 . S
H3679 C3691 0.929 . S
H3680 C3694 0.930 . S
H3681 C3696 0.960 . S
H3682 C3696 0.960 . S
H3683 C3696 0.960 . S
C3684 H3676 0.929 . S
C3684 C3685 1.377 . S
C3684 C3686 1.384 . S
C3685 C3684 1.377 . S
C3685 C3691 1.390 . S
C3686 H3677 0.930 . S
C3686 C3684 1.384 . S
C3686 C3687 1.372 . S
C3687 C3686 1.372 . S
C3687 C3688 1.400 . S
C3687 C3692 1.490 . S
C3688 H3678 0.930 . S
C3688 C3687 1.400 . S
C3688 C3691 1.386 . S
H3689 C3705 0.930 . S
H3690 C3706 0.931 . S
C3691 H3679 0.929 . S
C3691 C3685 1.390 . S
C3691 C3688 1.386 . S
C3692 C3687 1.490 . S
C3692 C3694 1.395 . S
C3692 C3695 1.403 . S
H3693 C3699 0.930 . S
C3694 H3680 0.930 . S
C3694 C3692 1.395 . S
C3694 C3697 1.403 . S
C3695 C3692 1.403 . S
C3695 C3696 1.524 . S
C3695 C3699 1.400 . S
C3696 H3681 0.960 . S
C3696 H3682 0.960 . S
C3696 H3683 0.960 . S
C3696 C3695 1.524 . S
C3697 C3694 1.403 . S
C3697 C3698 1.392 . S
C3697 C3701 1.495 . S
C3698 C3697 1.392 . S
C3698 C3699 1.385 . S
C3698 C3700 1.478 . S
C3699 H3693 0.930 . S
C3699 C3695 1.400 . S
C3699 C3698 1.385 . S
C3700 C3698 1.478 . S
C3700 C3702 1.381 . S
C3700 C3706 1.383 . S
C3701 C3697 1.495 . S
C3701 H3707 0.959 . S
C3701 H3708 0.961 . S
C3701 H3709 0.960 . S
C3702 C3700 1.381 . S
C3702 C3703 1.394 . S
C3702 H3710 0.930 . S
C3703 C3702 1.394 . S
C3703 C3704 1.383 . S
C3703 H3711 0.929 . S
C3704 C3703 1.383 . S
C3704 C3705 1.377 . S
C3705 H3689 0.930 . S
C3705 C3704 1.377 . S
C3705 C3706 1.379 . S
C3706 H3690 0.931 . S
C3706 C3700 1.383 . S
C3706 C3705 1.379 . S
H3707 C3701 0.959 . S
H3708 C3701 0.961 . S
H3709 C3701 0.960 . S
H3710 C3702 0.930 . S
H3711 C3703 0.929 . S
H3712 C3720 0.929 . S
H3713 C3722 0.930 . S
H3714 C3724 0.930 . S
H3715 C3727 0.929 . S
H3716 C3730 0.930 . S
H3717 C3732 0.960 . S
H3718 C3732 0.960 . S
H3719 C3732 0.960 . S
C3720 H3712 0.929 . S
C3720 C3721 1.377 . S
C3720 C3722 1.384 . S
C3721 C3720 1.377 . S
C3721 C3727 1.390 . S
C3722 H3713 0.930 . S
C3722 C3720 1.384 . S
C3722 C3723 1.372 . S
C3723 C3722 1.372 . S
C3723 C3724 1.400 . S
C3723 C3728 1.490 . S
C3724 H3714 0.930 . S
C3724 C3723 1.400 . S
C3724 C3727 1.386 . S
H3725 C3741 0.907 1_554 S
H3726 C3742 0.931 . S
C3727 H3715 0.929 . S
C3727 C3721 1.390 . S
C3727 C3724 1.386 . S
C3728 C3723 1.490 . S
C3728 C3730 1.395 . S
C3728 C3731 1.403 . S
H3729 C3735 0.930 . S
C3730 H3716 0.930 . S
C3730 C3728 1.395 . S
C3730 C3733 1.403 . S
C3731 C3728 1.403 . S
C3731 C3732 1.524 . S
C3731 C3735 1.400 . S
C3732 H3717 0.960 . S
C3732 H3718 0.960 . S
C3732 H3719 0.960 . S
C3732 C3731 1.524 . S
C3733 C3730 1.403 . S
C3733 C3734 1.392 . S
C3733 C3737 1.495 . S
C3734 C3733 1.392 . S
C3734 C3735 1.385 . S
C3734 C3736 1.478 . S
C3735 H3729 0.930 . S
C3735 C3731 1.400 . S
C3735 C3734 1.385 . S
C3736 C3734 1.478 . S
C3736 C3738 1.381 . S
C3736 C3742 1.383 . S
C3737 C3733 1.495 . S
C3737 H3743 0.959 . S
C3737 H3744 0.961 . S
C3737 H3745 0.960 . S
C3738 C3736 1.381 . S
C3738 C3739 1.394 . S
C3738 H3746 0.930 . S
C3739 C3738 1.394 . S
C3739 C3740 1.383 . S
C3739 H3747 0.929 . S
C3740 C3739 1.383 . S
C3740 C3741 1.377 . S
C3741 H3725 0.907 1_556 S
C3741 C3740 1.377 . S
C3741 C3742 1.379 . S
C3742 H3726 0.931 . S
C3742 C3736 1.383 . S
C3742 C3741 1.379 . S
H3743 C3737 0.959 . S
H3744 C3737 0.961 . S
H3745 C3737 0.960 . S
H3746 C3738 0.930 . S
H3747 C3739 0.929 . S
H3748 C3756 0.929 . S
H3749 C3758 0.930 . S
H3750 C3760 0.930 . S
H3751 C3763 0.929 . S
H3752 C3766 0.930 . S
H3753 C3768 0.960 . S
H3754 C3768 0.960 . S
H3755 C3768 0.960 . S
C3756 H3748 0.929 . S
C3756 C3757 1.377 . S
C3756 C3758 1.384 . S
C3757 C3756 1.377 . S
C3757 C3763 1.390 . S
C3758 H3749 0.930 . S
C3758 C3756 1.384 . S
C3758 C3759 1.372 . S
C3759 C3758 1.372 . S
C3759 C3760 1.400 . S
C3759 C3764 1.490 . S
C3760 H3750 0.930 . S
C3760 C3759 1.400 . S
C3760 C3763 1.386 . S
H3761 C3777 0.930 . S
H3762 C3778 0.931 . S
C3763 H3751 0.929 . S
C3763 C3757 1.390 . S
C3763 C3760 1.386 . S
C3764 C3759 1.490 . S
C3764 C3766 1.395 . S
C3764 C3767 1.403 . S
H3765 C3771 0.930 . S
C3766 H3752 0.930 . S
C3766 C3764 1.395 . S
C3766 C3769 1.403 . S
C3767 C3764 1.403 . S
C3767 C3768 1.524 . S
C3767 C3771 1.400 . S
C3768 H3753 0.960 . S
C3768 H3754 0.960 . S
C3768 H3755 0.960 . S
C3768 C3767 1.524 . S
C3769 C3766 1.403 . S
C3769 C3770 1.392 . S
C3769 C3773 1.495 . S
C3770 C3769 1.392 . S
C3770 C3771 1.385 . S
C3770 C3772 1.478 . S
C3771 H3765 0.930 . S
C3771 C3767 1.400 . S
C3771 C3770 1.385 . S
C3772 C3770 1.478 . S
C3772 C3774 1.381 . S
C3772 C3778 1.383 . S
C3773 C3769 1.495 . S
C3773 H3779 0.959 . S
C3773 H3780 0.961 . S
C3773 H3781 0.960 . S
C3774 C3772 1.381 . S
C3774 C3775 1.394 . S
C3774 H3782 0.930 . S
C3775 C3774 1.394 . S
C3775 C3776 1.383 . S
C3775 H3783 0.929 . S
C3776 C3775 1.383 . S
C3776 C3777 1.377 . S
C3777 H3761 0.930 . S
C3777 C3776 1.377 . S
C3777 C3778 1.379 . S
C3778 H3762 0.931 . S
C3778 C3772 1.383 . S
C3778 C3777 1.379 . S
H3779 C3773 0.959 . S
H3780 C3773 0.961 . S
H3781 C3773 0.960 . S
H3782 C3774 0.930 . S
H3783 C3775 0.929 . S
H3784 C3792 0.929 . S
H3785 C3794 0.930 . S
H3786 C3796 0.930 . S
H3787 C3799 0.929 . S
H3788 C3802 0.930 . S
H3789 C3804 0.960 . S
H3790 C3804 0.960 . S
H3791 C3804 0.960 . S
C3792 H3784 0.929 . S
C3792 C3793 1.377 . S
C3792 C3794 1.384 . S
C3793 C3792 1.377 . S
C3793 C3799 1.390 . S
C3794 H3785 0.930 . S
C3794 C3792 1.384 . S
C3794 C3795 1.372 . S
C3795 C3794 1.372 . S
C3795 C3796 1.400 . S
C3795 C3800 1.490 . S
C3796 H3786 0.930 . S
C3796 C3795 1.400 . S
C3796 C3799 1.386 . S
H3797 C3813 0.930 . S
H3798 C3814 0.931 . S
C3799 H3787 0.929 . S
C3799 C3793 1.390 . S
C3799 C3796 1.386 . S
C3800 C3795 1.490 . S
C3800 C3802 1.395 . S
C3800 C3803 1.403 . S
H3801 C3807 0.930 . S
C3802 H3788 0.930 . S
C3802 C3800 1.395 . S
C3802 C3805 1.403 . S
C3803 C3800 1.403 . S
C3803 C3804 1.524 . S
C3803 C3807 1.400 . S
C3804 H3789 0.960 . S
C3804 H3790 0.960 . S
C3804 H3791 0.960 . S
C3804 C3803 1.524 . S
C3805 C3802 1.403 . S
C3805 C3806 1.392 . S
C3805 C3809 1.495 . S
C3806 C3805 1.392 . S
C3806 C3807 1.385 . S
C3806 C3808 1.478 . S
C3807 H3801 0.930 . S
C3807 C3803 1.400 . S
C3807 C3806 1.385 . S
C3808 C3806 1.478 . S
C3808 C3810 1.381 . S
C3808 C3814 1.383 . S
C3809 C3805 1.495 . S
C3809 H3815 0.959 . S
C3809 H3816 0.961 . S
C3809 H3817 0.960 . S
C3810 C3808 1.381 . S
C3810 C3811 1.394 . S
C3810 H3818 0.930 . S
C3811 C3810 1.394 . S
C3811 C3812 1.383 . S
C3811 H3819 0.929 . S
C3812 C3811 1.383 . S
C3812 C3813 1.377 . S
C3813 H3797 0.930 . S
C3813 C3812 1.377 . S
C3813 C3814 1.379 . S
C3814 H3798 0.931 . S
C3814 C3808 1.383 . S
C3814 C3813 1.379 . S
H3815 C3809 0.959 . S
H3816 C3809 0.961 . S
H3817 C3809 0.960 . S
H3818 C3810 0.930 . S
H3819 C3811 0.929 . S
H3820 C3828 0.929 . S
H3821 C3830 0.930 . S
H3822 C3832 0.930 . S
H3823 C3835 0.929 . S
H3824 C3838 0.930 . S
H3825 C3840 0.960 . S
H3826 C3840 0.960 . S
H3827 C3840 0.960 . S
C3828 H3820 0.929 . S
C3828 C3829 1.377 . S
C3828 C3830 1.384 . S
C3829 C3828 1.377 . S
C3829 C3835 1.390 . S
C3830 H3821 0.930 . S
C3830 C3828 1.384 . S
C3830 C3831 1.372 . S
C3831 C3830 1.372 . S
C3831 C3832 1.400 . S
C3831 C3836 1.490 . S
C3832 H3822 0.930 . S
C3832 C3831 1.400 . S
C3832 C3835 1.386 . S
H3833 C3849 0.930 . S
H3834 C3850 0.931 . S
C3835 H3823 0.929 . S
C3835 C3829 1.390 . S
C3835 C3832 1.386 . S
C3836 C3831 1.490 . S
C3836 C3838 1.395 . S
C3836 C3839 1.403 . S
H3837 C3843 0.930 . S
C3838 H3824 0.930 . S
C3838 C3836 1.395 . S
C3838 C3841 1.403 . S
C3839 C3836 1.403 . S
C3839 C3840 1.524 . S
C3839 C3843 1.400 . S
C3840 H3825 0.960 . S
C3840 H3826 0.960 . S
C3840 H3827 0.960 . S
C3840 C3839 1.524 . S
C3841 C3838 1.403 . S
C3841 C3842 1.392 . S
C3841 C3845 1.495 . S
C3842 C3841 1.392 . S
C3842 C3843 1.385 . S
C3842 C3844 1.478 . S
C3843 H3837 0.930 . S
C3843 C3839 1.400 . S
C3843 C3842 1.385 . S
C3844 C3842 1.478 . S
C3844 C3846 1.381 . S
C3844 C3850 1.383 . S
C3845 C3841 1.495 . S
C3845 H3851 0.959 . S
C3845 H3852 0.961 . S
C3845 H3853 0.960 . S
C3846 C3844 1.381 . S
C3846 C3847 1.394 . S
C3846 H3854 0.930 . S
C3847 C3846 1.394 . S
C3847 C3848 1.383 . S
C3847 H3855 0.929 . S
C3848 C3847 1.383 . S
C3848 C3849 1.377 . S
C3849 H3833 0.930 . S
C3849 C3848 1.377 . S
C3849 C3850 1.379 . S
C3850 H3834 0.931 . S
C3850 C3844 1.383 . S
C3850 C3849 1.379 . S
H3851 C3845 0.959 . S
H3852 C3845 0.961 . S
H3853 C3845 0.960 . S
H3854 C3846 0.930 . S
H3855 C3847 0.929 . S
H3856 C3864 0.929 . S
H3857 C3866 0.930 . S
H3858 C3868 0.930 . S
H3859 C3871 0.929 . S
H3860 C3874 0.930 . S
H3861 C3876 0.960 . S
H3862 C3876 0.960 . S
H3863 C3876 0.960 . S
C3864 H3856 0.929 . S
C3864 C3865 1.377 . S
C3864 C3866 1.384 . S
C3865 C3864 1.377 . S
C3865 C3871 1.390 . S
C3866 H3857 0.930 . S
C3866 C3864 1.384 . S
C3866 C3867 1.372 . S
C3867 C3866 1.372 . S
C3867 C3868 1.400 . S
C3867 C3872 1.490 . S
C3868 H3858 0.930 . S
C3868 C3867 1.400 . S
C3868 C3871 1.386 . S
H3869 C3885 0.930 . S
H3870 C3886 0.931 . S
C3871 H3859 0.929 . S
C3871 C3865 1.390 . S
C3871 C3868 1.386 . S
C3872 C3867 1.490 . S
C3872 C3874 1.395 . S
C3872 C3875 1.403 . S
H3873 C3879 0.930 . S
C3874 H3860 0.930 . S
C3874 C3872 1.395 . S
C3874 C3877 1.403 . S
C3875 C3872 1.403 . S
C3875 C3876 1.524 . S
C3875 C3879 1.400 . S
C3876 H3861 0.960 . S
C3876 H3862 0.960 . S
C3876 H3863 0.960 . S
C3876 C3875 1.524 . S
C3877 C3874 1.403 . S
C3877 C3878 1.392 . S
C3877 C3881 1.495 . S
C3878 C3877 1.392 . S
C3878 C3879 1.385 . S
C3878 C3880 1.478 . S
C3879 H3873 0.930 . S
C3879 C3875 1.400 . S
C3879 C3878 1.385 . S
C3880 C3878 1.478 . S
C3880 C3882 1.381 . S
C3880 C3886 1.383 . S
C3881 C3877 1.495 . S
C3881 H3887 0.959 . S
C3881 H3888 0.961 . S
C3881 H3889 0.960 . S
C3882 C3880 1.381 . S
C3882 C3883 1.394 . S
C3882 H3890 0.930 . S
C3883 C3882 1.394 . S
C3883 C3884 1.383 . S
C3883 H3891 0.929 . S
C3884 C3883 1.383 . S
C3884 C3885 1.377 . S
C3885 H3869 0.930 . S
C3885 C3884 1.377 . S
C3885 C3886 1.379 . S
C3886 H3870 0.931 . S
C3886 C3880 1.383 . S
C3886 C3885 1.379 . S
H3887 C3881 0.959 . S
H3888 C3881 0.961 . S
H3889 C3881 0.960 . S
H3890 C3882 0.930 . S
H3891 C3883 0.929 . S
H3892 C3900 0.929 . S
H3893 C3902 0.930 . S
H3894 C3904 0.930 . S
H3895 C3907 0.929 . S
H3896 C3910 0.930 . S
H3897 C3912 0.960 . S
H3898 C3912 0.960 . S
H3899 C3912 0.960 . S
C3900 H3892 0.929 . S
C3900 C3901 1.377 . S
C3900 C3902 1.384 . S
C3901 C3900 1.377 . S
C3901 C3907 1.390 . S
C3902 H3893 0.930 . S
C3902 C3900 1.384 . S
C3902 C3903 1.372 . S
C3903 C3902 1.372 . S
C3903 C3904 1.400 . S
C3903 C3908 1.490 . S
C3904 H3894 0.930 . S
C3904 C3903 1.400 . S
C3904 C3907 1.386 . S
H3905 C3921 0.930 . S
H3906 C3922 0.931 . S
C3907 H3895 0.929 . S
C3907 C3901 1.390 . S
C3907 C3904 1.386 . S
C3908 C3903 1.490 . S
C3908 C3910 1.395 . S
C3908 C3911 1.403 . S
H3909 C3915 0.930 . S
C3910 H3896 0.930 . S
C3910 C3908 1.395 . S
C3910 C3913 1.403 . S
C3911 C3908 1.403 . S
C3911 C3912 1.524 . S
C3911 C3915 1.400 . S
C3912 H3897 0.960 . S
C3912 H3898 0.960 . S
C3912 H3899 0.960 . S
C3912 C3911 1.524 . S
C3913 C3910 1.403 . S
C3913 C3914 1.392 . S
C3913 C3917 1.495 . S
C3914 C3913 1.392 . S
C3914 C3915 1.385 . S
C3914 C3916 1.478 . S
C3915 H3909 0.930 . S
C3915 C3911 1.400 . S
C3915 C3914 1.385 . S
C3916 C3914 1.478 . S
C3916 C3918 1.381 . S
C3916 C3922 1.383 . S
C3917 C3913 1.495 . S
C3917 H3923 0.959 . S
C3917 H3924 0.961 . S
C3917 H3925 0.960 . S
C3918 C3916 1.381 . S
C3918 C3919 1.394 . S
C3918 H3926 0.930 . S
C3919 C3918 1.394 . S
C3919 C3920 1.383 . S
C3919 H3927 0.929 . S
C3920 C3919 1.383 . S
C3920 C3921 1.377 . S
C3921 H3905 0.930 . S
C3921 C3920 1.377 . S
C3921 C3922 1.379 . S
C3922 H3906 0.931 . S
C3922 C3916 1.383 . S
C3922 C3921 1.379 . S
H3923 C3917 0.959 . S
H3924 C3917 0.961 . S
H3925 C3917 0.960 . S
H3926 C3918 0.930 . S
H3927 C3919 0.929 . S
H3928 C3936 0.929 . S
H3929 C3938 0.930 . S
H3930 C3940 0.930 . S
H3931 C3943 0.929 . S
H3932 C3946 0.930 . S
H3933 C3948 0.960 . S
H3934 C3948 0.960 1_655 S
H3935 C3948 0.960 . S
C3936 H3928 0.929 . S
C3936 C3937 1.377 . S
C3936 C3938 1.384 . S
C3937 C3936 1.377 . S
C3937 C3943 1.390 1_655 S
C3938 H3929 0.930 . S
C3938 C3936 1.384 . S
C3938 C3939 1.372 1_655 S
C3939 C3938 1.372 1_455 S
C3939 C3940 1.400 . S
C3939 C3944 1.490 . S
C3940 H3930 0.930 . S
C3940 C3939 1.400 . S
C3940 C3943 1.386 . S
H3941 C3957 0.930 . S
H3942 C3958 0.931 . S
C3943 H3931 0.929 . S
C3943 C3937 1.390 1_455 S
C3943 C3940 1.386 . S
C3944 C3939 1.490 . S
C3944 C3946 1.395 . S
C3944 C3947 1.403 . S
H3945 C3951 0.930 . S
C3946 H3932 0.930 . S
C3946 C3944 1.395 . S
C3946 C3949 1.403 . S
C3947 C3944 1.403 . S
C3947 C3948 1.524 . S
C3947 C3951 1.400 . S
C3948 H3933 0.960 . S
C3948 H3934 0.960 1_455 S
C3948 H3935 0.960 . S
C3948 C3947 1.524 . S
C3949 C3946 1.403 . S
C3949 C3950 1.392 . S
C3949 C3953 1.495 . S
C3950 C3949 1.392 . S
C3950 C3951 1.385 . S
C3950 C3952 1.478 . S
C3951 H3945 0.930 . S
C3951 C3947 1.400 . S
C3951 C3950 1.385 . S
C3952 C3950 1.478 . S
C3952 C3954 1.381 . S
C3952 C3958 1.383 . S
C3953 C3949 1.495 . S
C3953 H3959 0.959 . S
C3953 H3960 0.961 . S
C3953 H3961 0.960 . S
C3954 C3952 1.381 . S
C3954 C3955 1.394 . S
C3954 H3962 0.930 1_455 S
C3955 C3954 1.394 . S
C3955 C3956 1.383 . S
C3955 H3963 0.929 . S
C3956 C3955 1.383 . S
C3956 C3957 1.377 . S
C3957 H3941 0.930 . S
C3957 C3956 1.377 . S
C3957 C3958 1.379 . S
C3958 H3942 0.931 . S
C3958 C3952 1.383 . S
C3958 C3957 1.379 . S
H3959 C3953 0.959 . S
H3960 C3953 0.961 . S
H3961 C3953 0.960 . S
H3962 C3954 0.930 1_655 S
H3963 C3955 0.929 . S
H3964 C3972 0.929 . S
H3965 C3974 0.930 . S
H3966 C3976 0.930 . S
H3967 C3979 0.929 . S
H3968 C3982 0.930 . S
H3969 C3984 0.960 . S
H3970 C3984 0.960 . S
H3971 C3984 0.960 . S
C3972 H3964 0.929 . S
C3972 C3973 1.377 . S
C3972 C3974 1.384 . S
C3973 C3972 1.377 . S
C3973 C3979 1.390 . S
C3974 H3965 0.930 . S
C3974 C3972 1.384 . S
C3974 C3975 1.372 . S
C3975 C3974 1.372 . S
C3975 C3976 1.400 . S
C3975 C3980 1.490 . S
C3976 H3966 0.930 . S
C3976 C3975 1.400 . S
C3976 C3979 1.386 . S
H3977 C3993 0.930 . S
H3978 C3994 0.931 . S
C3979 H3967 0.929 . S
C3979 C3973 1.390 . S
C3979 C3976 1.386 . S
C3980 C3975 1.490 . S
C3980 C3982 1.395 . S
C3980 C3983 1.403 . S
H3981 C3987 0.930 . S
C3982 H3968 0.930 . S
C3982 C3980 1.395 . S
C3982 C3985 1.403 . S
C3983 C3980 1.403 . S
C3983 C3984 1.524 . S
C3983 C3987 1.400 . S
C3984 H3969 0.960 . S
C3984 H3970 0.960 . S
C3984 H3971 0.960 . S
C3984 C3983 1.524 . S
C3985 C3982 1.403 . S
C3985 C3986 1.392 . S
C3985 C3989 1.495 . S
C3986 C3985 1.392 . S
C3986 C3987 1.385 . S
C3986 C3988 1.478 . S
C3987 H3981 0.930 . S
C3987 C3983 1.400 . S
C3987 C3986 1.385 . S
C3988 C3986 1.478 . S
C3988 C3990 1.381 . S
C3988 C3994 1.383 . S
C3989 C3985 1.495 . S
C3989 H3995 0.959 . S
C3989 H3996 0.961 . S
C3989 H3997 0.960 . S
C3990 C3988 1.381 . S
C3990 C3991 1.394 . S
C3990 H3998 0.930 . S
C3991 C3990 1.394 . S
C3991 C3992 1.383 . S
C3991 H3999 0.929 . S
C3992 C3991 1.383 . S
C3992 C3993 1.377 . S
C3993 H3977 0.930 . S
C3993 C3992 1.377 . S
C3993 C3994 1.379 . S
C3994 H3978 0.931 . S
C3994 C3988 1.383 . S
C3994 C3993 1.379 . S
H3995 C3989 0.959 . S
H3996 C3989 0.961 . S
H3997 C3989 0.960 . S
H3998 C3990 0.930 . S
H3999 C3991 0.929 . S
H4000 C4008 0.929 . S
H4001 C4010 0.930 . S
H4002 C4012 0.930 . S
H4003 C4015 0.929 . S
H4004 C4018 0.930 . S
H4005 C4020 0.960 . S
H4006 C4020 0.960 . S
H4007 C4020 0.960 . S
C4008 H4000 0.929 . S
C4008 C4009 1.377 . S
C4008 C4010 1.384 . S
C4009 C4008 1.377 . S
C4009 C4015 1.390 . S
C4010 H4001 0.930 . S
C4010 C4008 1.384 . S
C4010 C4011 1.372 . S
C4011 C4010 1.372 . S
C4011 C4012 1.400 . S
C4011 C4016 1.490 . S
C4012 H4002 0.930 . S
C4012 C4011 1.400 . S
C4012 C4015 1.386 . S
H4013 C4029 0.930 . S
H4014 C4030 0.931 . S
C4015 H4003 0.929 . S
C4015 C4009 1.390 . S
C4015 C4012 1.386 . S
C4016 C4011 1.490 . S
C4016 C4018 1.395 . S
C4016 C4019 1.403 . S
H4017 C4023 0.930 . S
C4018 H4004 0.930 . S
C4018 C4016 1.395 . S
C4018 C4021 1.403 . S
C4019 C4016 1.403 . S
C4019 C4020 1.524 . S
C4019 C4023 1.400 . S
C4020 H4005 0.960 . S
C4020 H4006 0.960 . S
C4020 H4007 0.960 . S
C4020 C4019 1.524 . S
C4021 C4018 1.403 . S
C4021 C4022 1.392 . S
C4021 C4025 1.495 . S
C4022 C4021 1.392 . S
C4022 C4023 1.385 . S
C4022 C4024 1.478 . S
C4023 H4017 0.930 . S
C4023 C4019 1.400 . S
C4023 C4022 1.385 . S
C4024 C4022 1.478 . S
C4024 C4026 1.381 . S
C4024 C4030 1.383 . S
C4025 C4021 1.495 . S
C4025 H4031 0.959 . S
C4025 H4032 0.961 . S
C4025 H4033 0.960 . S
C4026 C4024 1.381 . S
C4026 C4027 1.394 . S
C4026 H4034 0.930 . S
C4027 C4026 1.394 . S
C4027 C4028 1.383 . S
C4027 H4035 0.929 . S
C4028 C4027 1.383 . S
C4028 C4029 1.377 . S
C4029 H4013 0.930 . S
C4029 C4028 1.377 . S
C4029 C4030 1.379 . S
C4030 H4014 0.931 . S
C4030 C4024 1.383 . S
C4030 C4029 1.379 . S
H4031 C4025 0.959 . S
H4032 C4025 0.961 . S
H4033 C4025 0.960 . S
H4034 C4026 0.930 . S
H4035 C4027 0.929 . S
H4036 C4044 0.929 . S
H4037 C4046 0.930 . S
H4038 C4048 0.930 . S
H4039 C4051 0.929 . S
H4040 C4054 0.930 . S
H4041 C4056 0.960 . S
H4042 C4056 0.960 . S
H4043 C4056 0.960 . S
C4044 H4036 0.929 . S
C4044 C4045 1.377 . S
C4044 C4046 1.384 . S
C4045 C4044 1.377 . S
C4045 C4051 1.390 . S
C4046 H4037 0.930 . S
C4046 C4044 1.384 . S
C4046 C4047 1.372 . S
C4047 C4046 1.372 . S
C4047 C4048 1.400 . S
C4047 C4052 1.490 . S
C4048 H4038 0.930 . S
C4048 C4047 1.400 . S
C4048 C4051 1.386 . S
H4049 C4065 0.930 . S
H4050 C4066 0.931 . S
C4051 H4039 0.929 . S
C4051 C4045 1.390 . S
C4051 C4048 1.386 . S
C4052 C4047 1.490 . S
C4052 C4054 1.395 . S
C4052 C4055 1.403 . S
H4053 C4059 0.930 . S
C4054 H4040 0.930 . S
C4054 C4052 1.395 . S
C4054 C4057 1.403 . S
C4055 C4052 1.403 . S
C4055 C4056 1.524 . S
C4055 C4059 1.400 . S
C4056 H4041 0.960 . S
C4056 H4042 0.960 . S
C4056 H4043 0.960 . S
C4056 C4055 1.524 . S
C4057 C4054 1.403 . S
C4057 C4058 1.392 . S
C4057 C4061 1.495 . S
C4058 C4057 1.392 . S
C4058 C4059 1.385 . S
C4058 C4060 1.478 . S
C4059 H4053 0.930 . S
C4059 C4055 1.400 . S
C4059 C4058 1.385 . S
C4060 C4058 1.478 . S
C4060 C4062 1.381 . S
C4060 C4066 1.383 . S
C4061 C4057 1.495 . S
C4061 H4067 0.959 . S
C4061 H4068 0.961 . S
C4061 H4069 0.960 . S
C4062 C4060 1.381 . S
C4062 C4063 1.394 . S
C4062 H4070 0.930 . S
C4063 C4062 1.394 . S
C4063 C4064 1.383 . S
C4063 H4071 0.929 . S
C4064 C4063 1.383 . S
C4064 C4065 1.377 . S
C4065 H4049 0.930 . S
C4065 C4064 1.377 . S
C4065 C4066 1.379 . S
C4066 H4050 0.931 . S
C4066 C4060 1.383 . S
C4066 C4065 1.379 . S
H4067 C4061 0.959 . S
H4068 C4061 0.961 . S
H4069 C4061 0.960 . S
H4070 C4062 0.930 . S
H4071 C4063 0.929 . S
H4072 C4080 0.929 . S
H4073 C4082 0.930 . S
H4074 C4084 0.930 . S
H4075 C4087 0.929 . S
H4076 C4090 0.930 . S
H4077 C4092 0.960 . S
H4078 C4092 0.960 . S
H4079 C4092 0.960 . S
C4080 H4072 0.929 . S
C4080 C4081 1.377 . S
C4080 C4082 1.384 . S
C4081 C4080 1.377 . S
C4081 C4087 1.390 1_655 S
C4082 H4073 0.930 . S
C4082 C4080 1.384 . S
C4082 C4083 1.372 . S
C4083 C4082 1.372 . S
C4083 C4084 1.400 1_655 S
C4083 C4088 1.490 . S
C4084 H4074 0.930 . S
C4084 C4083 1.400 1_455 S
C4084 C4087 1.386 . S
H4085 C4101 0.930 . S
H4086 C4102 0.931 . S
C4087 H4075 0.929 . S
C4087 C4081 1.390 1_455 S
C4087 C4084 1.386 . S
C4088 C4083 1.490 . S
C4088 C4090 1.395 . S
C4088 C4091 1.403 1_655 S
H4089 C4095 0.930 . S
C4090 H4076 0.930 . S
C4090 C4088 1.395 . S
C4090 C4093 1.403 . S
C4091 C4088 1.403 1_455 S
C4091 C4092 1.524 . S
C4091 C4095 1.400 . S
C4092 H4077 0.960 . S
C4092 H4078 0.960 . S
C4092 H4079 0.960 . S
C4092 C4091 1.524 . S
C4093 C4090 1.403 . S
C4093 C4094 1.444 . S
C4093 C4097 1.495 . S
C4094 C4093 1.444 . S
C4094 C4095 1.347 1_655 S
C4094 C4096 1.455 1_655 S
C4095 H4089 0.930 . S
C4095 C4091 1.400 . S
C4095 C4094 1.347 1_455 S
C4096 C4094 1.455 1_455 S
C4096 C4098 1.365 1_455 S
C4096 C4102 1.412 . S
C4097 C4093 1.495 . S
C4097 H4103 0.959 . S
C4097 H4104 0.961 . S
C4097 H4105 0.960 . S
C4098 C4096 1.365 1_655 S
C4098 C4099 1.394 . S
C4098 H4106 0.930 . S
C4099 C4098 1.394 . S
C4099 C4100 1.383 1_655 S
C4099 H4107 0.929 . S
C4100 C4099 1.383 1_455 S
C4100 C4101 1.377 . S
C4101 H4085 0.930 . S
C4101 C4100 1.377 . S
C4101 C4102 1.379 . S
C4102 H4086 0.931 . S
C4102 C4096 1.412 . S
C4102 C4101 1.379 . S
H4103 C4097 0.959 . S
H4104 C4097 0.961 . S
H4105 C4097 0.960 . S
H4106 C4098 0.930 . S
H4107 C4099 0.929 . S
H4108 C4116 0.929 . S
H4109 C4118 0.930 . S
H4110 C4120 0.930 . S
H4111 C4123 0.929 . S
H4112 C4126 0.930 . S
H4113 C4128 0.960 . S
H4114 C4128 0.960 . S
H4115 C4128 0.960 . S
C4116 H4108 0.929 . S
C4116 C4117 1.377 . S
C4116 C4118 1.384 . S
C4117 C4116 1.377 . S
C4117 C4123 1.390 . S
C4118 H4109 0.930 . S
C4118 C4116 1.384 . S
C4118 C4119 1.372 . S
C4119 C4118 1.372 . S
C4119 C4120 1.400 . S
C4119 C4124 1.490 . S
C4120 H4110 0.930 . S
C4120 C4119 1.400 . S
C4120 C4123 1.386 . S
H4121 C4137 0.930 . S
H4122 C4138 0.931 . S
C4123 H4111 0.929 . S
C4123 C4117 1.390 . S
C4123 C4120 1.386 . S
C4124 C4119 1.490 . S
C4124 C4126 1.395 . S
C4124 C4127 1.403 . S
H4125 C4131 0.930 . S
C4126 H4112 0.930 . S
C4126 C4124 1.395 . S
C4126 C4129 1.403 . S
C4127 C4124 1.403 . S
C4127 C4128 1.524 . S
C4127 C4131 1.400 . S
C4128 H4113 0.960 . S
C4128 H4114 0.960 . S
C4128 H4115 0.960 . S
C4128 C4127 1.524 . S
C4129 C4126 1.403 . S
C4129 C4130 1.392 . S
C4129 C4133 1.495 . S
C4130 C4129 1.392 . S
C4130 C4131 1.385 . S
C4130 C4132 1.478 . S
C4131 H4125 0.930 . S
C4131 C4127 1.400 . S
C4131 C4130 1.385 . S
C4132 C4130 1.478 . S
C4132 C4134 1.381 . S
C4132 C4138 1.383 . S
C4133 C4129 1.495 . S
C4133 H4139 0.959 . S
C4133 H4140 0.961 . S
C4133 H4141 0.960 . S
C4134 C4132 1.381 . S
C4134 C4135 1.394 . S
C4134 H4142 0.930 . S
C4135 C4134 1.394 . S
C4135 C4136 1.383 . S
C4135 H4143 0.929 . S
C4136 C4135 1.383 . S
C4136 C4137 1.377 . S
C4137 H4121 0.930 . S
C4137 C4136 1.377 . S
C4137 C4138 1.379 . S
C4138 H4122 0.931 . S
C4138 C4132 1.383 . S
C4138 C4137 1.379 . S
H4139 C4133 0.959 . S
H4140 C4133 0.961 . S
H4141 C4133 0.960 . S
H4142 C4134 0.930 . S
H4143 C4135 0.929 . S
H4144 C4152 0.929 . S
H4145 C4154 0.930 . S
H4146 C4156 0.930 . S
H4147 C4159 0.929 . S
H4148 C4162 0.930 . S
H4149 C4164 0.960 . S
H4150 C4164 0.960 . S
H4151 C4164 0.960 . S
C4152 H4144 0.929 . S
C4152 C4153 1.377 . S
C4152 C4154 1.384 . S
C4153 C4152 1.377 . S
C4153 C4159 1.390 . S
C4154 H4145 0.930 . S
C4154 C4152 1.384 . S
C4154 C4155 1.372 . S
C4155 C4154 1.372 . S
C4155 C4156 1.400 . S
C4155 C4160 1.490 . S
C4156 H4146 0.930 . S
C4156 C4155 1.400 . S
C4156 C4159 1.386 . S
H4157 C4173 0.930 . S
H4158 C4174 0.931 . S
C4159 H4147 0.929 . S
C4159 C4153 1.390 . S
C4159 C4156 1.386 . S
C4160 C4155 1.490 . S
C4160 C4162 1.395 . S
C4160 C4163 1.403 . S
H4161 C4167 0.930 . S
C4162 H4148 0.930 . S
C4162 C4160 1.395 . S
C4162 C4165 1.403 . S
C4163 C4160 1.403 . S
C4163 C4164 1.524 . S
C4163 C4167 1.400 . S
C4164 H4149 0.960 . S
C4164 H4150 0.960 . S
C4164 H4151 0.960 . S
C4164 C4163 1.524 . S
C4165 C4162 1.403 . S
C4165 C4166 1.392 . S
C4165 C4169 1.495 . S
C4166 C4165 1.392 . S
C4166 C4167 1.385 . S
C4166 C4168 1.478 . S
C4167 H4161 0.930 . S
C4167 C4163 1.400 . S
C4167 C4166 1.385 . S
C4168 C4166 1.478 . S
C4168 C4170 1.381 . S
C4168 C4174 1.383 . S
C4169 C4165 1.495 . S
C4169 H4175 0.959 . S
C4169 H4176 0.961 . S
C4169 H4177 0.960 . S
C4170 C4168 1.381 . S
C4170 C4171 1.394 . S
C4170 H4178 0.930 . S
C4171 C4170 1.394 . S
C4171 C4172 1.383 . S
C4171 H4179 0.929 . S
C4172 C4171 1.383 . S
C4172 C4173 1.377 . S
C4173 H4157 0.930 . S
C4173 C4172 1.377 . S
C4173 C4174 1.379 . S
C4174 H4158 0.931 . S
C4174 C4168 1.383 . S
C4174 C4173 1.379 . S
H4175 C4169 0.959 . S
H4176 C4169 0.961 . S
H4177 C4169 0.960 . S
H4178 C4170 0.930 . S
H4179 C4171 0.929 . S
H4180 C4188 0.929 . S
H4181 C4190 0.930 . S
H4182 C4192 0.930 . S
H4183 C4195 0.929 . S
H4184 C4198 0.930 . S
H4185 C4200 0.960 . S
H4186 C4200 0.960 . S
H4187 C4200 0.960 . S
C4188 H4180 0.929 . S
C4188 C4189 1.377 . S
C4188 C4190 1.384 . S
C4189 C4188 1.377 . S
C4189 C4195 1.390 . S
C4190 H4181 0.930 . S
C4190 C4188 1.384 . S
C4190 C4191 1.372 . S
C4191 C4190 1.372 . S
C4191 C4192 1.400 . S
C4191 C4196 1.490 . S
C4192 H4182 0.930 . S
C4192 C4191 1.400 . S
C4192 C4195 1.386 . S
H4193 C4209 0.930 . S
H4194 C4210 0.931 . S
C4195 H4183 0.929 . S
C4195 C4189 1.390 . S
C4195 C4192 1.386 . S
C4196 C4191 1.490 . S
C4196 C4198 1.395 . S
C4196 C4199 1.403 . S
H4197 C4203 0.930 . S
C4198 H4184 0.930 . S
C4198 C4196 1.395 . S
C4198 C4201 1.403 . S
C4199 C4196 1.403 . S
C4199 C4200 1.524 . S
C4199 C4203 1.400 . S
C4200 H4185 0.960 . S
C4200 H4186 0.960 . S
C4200 H4187 0.960 . S
C4200 C4199 1.524 . S
C4201 C4198 1.403 . S
C4201 C4202 1.392 . S
C4201 C4205 1.495 . S
C4202 C4201 1.392 . S
C4202 C4203 1.385 . S
C4202 C4204 1.478 . S
C4203 H4197 0.930 . S
C4203 C4199 1.400 . S
C4203 C4202 1.385 . S
C4204 C4202 1.478 . S
C4204 C4206 1.381 . S
C4204 C4210 1.383 1_565 S
C4205 C4201 1.495 . S
C4205 H4211 0.959 . S
C4205 H4212 0.961 . S
C4205 H4213 0.960 . S
C4206 C4204 1.381 . S
C4206 C4207 1.394 . S
C4206 H4214 0.930 . S
C4207 C4206 1.394 . S
C4207 C4208 1.383 1_565 S
C4207 H4215 0.929 . S
C4208 C4207 1.383 1_545 S
C4208 C4209 1.377 . S
C4209 H4193 0.930 . S
C4209 C4208 1.377 . S
C4209 C4210 1.379 . S
C4210 H4194 0.931 . S
C4210 C4204 1.383 1_545 S
C4210 C4209 1.379 . S
H4211 C4205 0.959 . S
H4212 C4205 0.961 . S
H4213 C4205 0.960 . S
H4214 C4206 0.930 . S
H4215 C4207 0.929 . S
H4216 C4224 0.929 . S
H4217 C4226 0.930 . S
H4218 C4228 0.930 . S
H4219 C4231 0.929 . S
H4220 C4234 0.930 . S
H4221 C4236 0.960 . S
H4222 C4236 0.960 . S
H4223 C4236 0.960 . S
C4224 H4216 0.929 . S
C4224 C4225 1.377 . S
C4224 C4226 1.384 . S
C4225 C4224 1.377 . S
C4225 C4231 1.390 . S
C4226 H4217 0.930 . S
C4226 C4224 1.384 . S
C4226 C4227 1.372 . S
C4227 C4226 1.372 . S
C4227 C4228 1.400 . S
C4227 C4232 1.490 . S
C4228 H4218 0.930 . S
C4228 C4227 1.400 . S
C4228 C4231 1.386 . S
H4229 C4245 0.930 . S
H4230 C4246 0.931 . S
C4231 H4219 0.929 . S
C4231 C4225 1.390 . S
C4231 C4228 1.386 . S
C4232 C4227 1.490 . S
C4232 C4234 1.395 . S
C4232 C4235 1.403 . S
H4233 C4239 0.930 . S
C4234 H4220 0.930 . S
C4234 C4232 1.395 . S
C4234 C4237 1.403 . S
C4235 C4232 1.403 . S
C4235 C4236 1.524 . S
C4235 C4239 1.400 . S
C4236 H4221 0.960 . S
C4236 H4222 0.960 . S
C4236 H4223 0.960 . S
C4236 C4235 1.524 . S
C4237 C4234 1.403 . S
C4237 C4238 1.392 . S
C4237 C4241 1.495 . S
C4238 C4237 1.392 . S
C4238 C4239 1.385 . S
C4238 C4240 1.478 . S
C4239 H4233 0.930 . S
C4239 C4235 1.400 . S
C4239 C4238 1.385 . S
C4240 C4238 1.478 . S
C4240 C4242 1.381 . S
C4240 C4246 1.383 . S
C4241 C4237 1.495 . S
C4241 H4247 0.959 . S
C4241 H4248 0.961 . S
C4241 H4249 0.960 . S
C4242 C4240 1.381 . S
C4242 C4243 1.394 . S
C4242 H4250 0.930 . S
C4243 C4242 1.394 . S
C4243 C4244 1.383 . S
C4243 H4251 0.929 . S
C4244 C4243 1.383 . S
C4244 C4245 1.377 . S
C4245 H4229 0.930 . S
C4245 C4244 1.377 . S
C4245 C4246 1.379 . S
C4246 H4230 0.931 . S
C4246 C4240 1.383 . S
C4246 C4245 1.379 . S
H4247 C4241 0.959 . S
H4248 C4241 0.961 . S
H4249 C4241 0.960 . S
H4250 C4242 0.930 . S
H4251 C4243 0.929 . S
H4252 C4260 0.929 . S
H4253 C4262 0.930 . S
H4254 C4264 0.930 . S
H4255 C4267 0.929 . S
H4256 C4270 0.930 . S
H4257 C4272 0.960 . S
H4258 C4272 0.960 1_554 S
H4259 C4272 0.960 . S
C4260 H4252 0.929 . S
C4260 C4261 1.336 1_554 S
C4260 C4262 1.384 . S
C4261 C4260 1.336 1_556 S
C4261 C4267 1.420 . S
C4262 H4253 0.930 . S
C4262 C4260 1.384 . S
C4262 C4263 1.372 . S
C4263 C4262 1.372 . S
C4263 C4264 1.400 1_554 S
C4263 C4268 1.490 . S
C4264 H4254 0.930 . S
C4264 C4263 1.400 1_556 S
C4264 C4267 1.386 . S
H4265 C4281 0.930 . S
H4266 C4282 0.931 . S
C4267 H4255 0.929 . S
C4267 C4261 1.420 . S
C4267 C4264 1.386 . S
C4268 C4263 1.490 . S
C4268 C4270 1.395 . S
C4268 C4271 1.403 . S
H4269 C4275 0.930 . S
C4270 H4256 0.930 . S
C4270 C4268 1.395 . S
C4270 C4273 1.403 . S
C4271 C4268 1.403 . S
C4271 C4272 1.524 1_554 S
C4271 C4275 1.400 . S
C4272 H4257 0.960 . S
C4272 H4258 0.960 1_556 S
C4272 H4259 0.960 . S
C4272 C4271 1.524 1_556 S
C4273 C4270 1.403 . S
C4273 C4274 1.392 . S
C4273 C4277 1.495 . S
C4274 C4273 1.392 . S
C4274 C4275 1.385 . S
C4274 C4276 1.478 . S
C4275 H4269 0.930 . S
C4275 C4271 1.400 . S
C4275 C4274 1.385 . S
C4276 C4274 1.478 . S
C4276 C4278 1.381 . S
C4276 C4282 1.383 1_554 S
C4277 C4273 1.495 . S
C4277 H4283 0.959 . S
C4277 H4284 0.961 . S
C4277 H4285 0.960 . S
C4278 C4276 1.381 . S
C4278 C4279 1.394 . S
C4278 H4286 0.930 . S
C4279 C4278 1.394 . S
C4279 C4280 1.383 . S
C4279 H4287 0.929 . S
C4280 C4279 1.383 . S
C4280 C4281 1.377 1_554 S
C4281 H4265 0.930 . S
C4281 C4280 1.377 1_556 S
C4281 C4282 1.379 . S
C4282 H4266 0.931 . S
C4282 C4276 1.383 1_556 S
C4282 C4281 1.379 . S
H4283 C4277 0.959 . S
H4284 C4277 0.961 . S
H4285 C4277 0.960 . S
H4286 C4278 0.930 . S
H4287 C4279 0.929 . S
H4288 C4296 0.929 . S
H4289 C4298 0.930 . S
H4290 C4300 0.930 . S
H4291 C4303 0.929 . S
H4292 C4306 0.930 . S
H4293 C4308 0.960 . S
H4294 C4308 0.960 . S
H4295 C4308 0.960 . S
C4296 H4288 0.929 . S
C4296 C4297 1.377 . S
C4296 C4298 1.384 . S
C4297 C4296 1.377 . S
C4297 C4303 1.390 . S
C4298 H4289 0.930 . S
C4298 C4296 1.384 . S
C4298 C4299 1.372 . S
C4299 C4298 1.372 . S
C4299 C4300 1.400 . S
C4299 C4304 1.490 . S
C4300 H4290 0.930 . S
C4300 C4299 1.400 . S
C4300 C4303 1.386 . S
H4301 C4317 0.930 . S
H4302 C4318 0.931 . S
C4303 H4291 0.929 . S
C4303 C4297 1.390 . S
C4303 C4300 1.386 . S
C4304 C4299 1.490 . S
C4304 C4306 1.395 . S
C4304 C4307 1.403 . S
H4305 C4311 0.930 . S
C4306 H4292 0.930 . S
C4306 C4304 1.395 . S
C4306 C4309 1.403 . S
C4307 C4304 1.403 . S
C4307 C4308 1.524 . S
C4307 C4311 1.400 . S
C4308 H4293 0.960 . S
C4308 H4294 0.960 . S
C4308 H4295 0.960 . S
C4308 C4307 1.524 . S
C4309 C4306 1.403 . S
C4309 C4310 1.392 . S
C4309 C4313 1.495 . S
C4310 C4309 1.392 . S
C4310 C4311 1.385 . S
C4310 C4312 1.478 . S
C4311 H4305 0.930 . S
C4311 C4307 1.400 . S
C4311 C4310 1.385 . S
C4312 C4310 1.478 . S
C4312 C4314 1.381 . S
C4312 C4318 1.383 . S
C4313 C4309 1.495 . S
C4313 H4319 0.959 . S
C4313 H4320 0.961 . S
C4313 H4321 0.960 . S
C4314 C4312 1.381 . S
C4314 C4315 1.394 . S
C4314 H4322 0.930 . S
C4315 C4314 1.394 . S
C4315 C4316 1.383 . S
C4315 H4323 0.929 . S
C4316 C4315 1.383 . S
C4316 C4317 1.377 . S
C4317 H4301 0.930 . S
C4317 C4316 1.377 . S
C4317 C4318 1.379 . S
C4318 H4302 0.931 . S
C4318 C4312 1.383 . S
C4318 C4317 1.379 . S
H4319 C4313 0.959 . S
H4320 C4313 0.961 . S
H4321 C4313 0.960 . S
H4322 C4314 0.930 . S
H4323 C4315 0.929 . S
H4324 C4332 0.929 . S
H4325 C4334 0.930 . S
H4326 C4336 0.930 . S
H4327 C4339 0.929 . S
H4328 C4342 0.930 . S
H4329 C4344 0.960 . S
H4330 C4344 0.960 . S
H4331 C4344 0.960 1_554 S
C4332 H4324 0.929 . S
C4332 C4333 1.377 . S
C4332 C4334 1.384 . S
C4333 C4332 1.377 . S
C4333 C4339 1.390 . S
C4334 H4325 0.930 . S
C4334 C4332 1.384 . S
C4334 C4335 1.372 . S
C4335 C4334 1.372 . S
C4335 C4336 1.400 . S
C4335 C4340 1.490 . S
C4336 H4326 0.930 . S
C4336 C4335 1.400 . S
C4336 C4339 1.386 . S
H4337 C4353 0.930 . S
H4338 C4354 0.931 . S
C4339 H4327 0.929 . S
C4339 C4333 1.390 . S
C4339 C4336 1.386 . S
C4340 C4335 1.490 . S
C4340 C4342 1.395 . S
C4340 C4343 1.403 . S
H4341 C4347 0.930 . S
C4342 H4328 0.930 . S
C4342 C4340 1.395 . S
C4342 C4345 1.403 . S
C4343 C4340 1.403 . S
C4343 C4344 1.524 1_554 S
C4343 C4347 1.400 . S
C4344 H4329 0.960 . S
C4344 H4330 0.960 . S
C4344 H4331 0.960 1_556 S
C4344 C4343 1.524 1_556 S
C4345 C4342 1.403 . S
C4345 C4346 1.392 . S
C4345 C4349 1.495 . S
C4346 C4345 1.392 . S
C4346 C4347 1.385 . S
C4346 C4348 1.478 . S
C4347 H4341 0.930 . S
C4347 C4343 1.400 . S
C4347 C4346 1.385 . S
C4348 C4346 1.478 . S
C4348 C4350 1.381 . S
C4348 C4354 1.383 . S
C4349 C4345 1.495 . S
C4349 H4355 0.959 . S
C4349 H4356 0.961 . S
C4349 H4357 0.960 . S
C4350 C4348 1.381 . S
C4350 C4351 1.394 . S
C4350 H4358 0.930 . S
C4351 C4350 1.394 . S
C4351 C4352 1.383 . S
C4351 H4359 0.922 1_554 S
C4352 C4351 1.383 . S
C4352 C4353 1.377 . S
C4353 H4337 0.930 . S
C4353 C4352 1.377 . S
C4353 C4354 1.379 . S
C4354 H4338 0.931 . S
C4354 C4348 1.383 . S
C4354 C4353 1.379 . S
H4355 C4349 0.959 . S
H4356 C4349 0.961 . S
H4357 C4349 0.960 . S
H4358 C4350 0.930 . S
H4359 C4351 0.922 1_556 S
H4360 C4368 0.929 . S
H4361 C4370 0.930 . S
H4362 C4372 0.930 . S
H4363 C4375 0.929 . S
H4364 C4378 0.930 . S
H4365 C4380 0.960 . S
H4366 C4380 0.960 . S
H4367 C4380 0.960 . S
C4368 H4360 0.929 . S
C4368 C4369 1.377 . S
C4368 C4370 1.384 . S
C4369 C4368 1.377 . S
C4369 C4375 1.390 . S
C4370 H4361 0.930 . S
C4370 C4368 1.384 . S
C4370 C4371 1.372 . S
C4371 C4370 1.372 . S
C4371 C4372 1.400 . S
C4371 C4376 1.490 . S
C4372 H4362 0.930 . S
C4372 C4371 1.400 . S
C4372 C4375 1.386 . S
H4373 C4389 0.930 . S
H4374 C4390 0.931 . S
C4375 H4363 0.929 . S
C4375 C4369 1.390 . S
C4375 C4372 1.386 . S
C4376 C4371 1.490 . S
C4376 C4378 1.395 . S
C4376 C4379 1.403 . S
H4377 C4383 0.930 . S
C4378 H4364 0.930 . S
C4378 C4376 1.395 . S
C4378 C4381 1.403 . S
C4379 C4376 1.403 . S
C4379 C4380 1.524 . S
C4379 C4383 1.400 . S
C4380 H4365 0.960 . S
C4380 H4366 0.960 . S
C4380 H4367 0.960 . S
C4380 C4379 1.524 . S
C4381 C4378 1.403 . S
C4381 C4382 1.392 . S
C4381 C4385 1.495 . S
C4382 C4381 1.392 . S
C4382 C4383 1.385 . S
C4382 C4384 1.478 . S
C4383 H4377 0.930 . S
C4383 C4379 1.400 . S
C4383 C4382 1.385 . S
C4384 C4382 1.478 . S
C4384 C4386 1.381 . S
C4384 C4390 1.383 . S
C4385 C4381 1.495 . S
C4385 H4391 0.959 . S
C4385 H4392 0.961 . S
C4385 H4393 0.960 . S
C4386 C4384 1.381 . S
C4386 C4387 1.394 . S
C4386 H4394 0.930 . S
C4387 C4386 1.394 . S
C4387 C4388 1.383 . S
C4387 H4395 0.929 . S
C4388 C4387 1.383 . S
C4388 C4389 1.377 . S
C4389 H4373 0.930 . S
C4389 C4388 1.377 . S
C4389 C4390 1.379 . S
C4390 H4374 0.931 . S
C4390 C4384 1.383 . S
C4390 C4389 1.379 . S
H4391 C4385 0.959 . S
H4392 C4385 0.961 . S
H4393 C4385 0.960 . S
H4394 C4386 0.930 . S
H4395 C4387 0.929 . S
H4396 C4404 0.929 . S
H4397 C4406 0.930 . S
H4398 C4408 0.930 . S
H4399 C4411 0.929 . S
H4400 C4414 0.930 . S
H4401 C4416 0.960 . S
H4402 C4416 0.960 . S
H4403 C4416 0.960 . S
C4404 H4396 0.929 . S
C4404 C4405 1.377 . S
C4404 C4406 1.384 . S
C4405 C4404 1.377 . S
C4405 C4411 1.390 . S
C4406 H4397 0.930 . S
C4406 C4404 1.384 . S
C4406 C4407 1.372 . S
C4407 C4406 1.372 . S
C4407 C4408 1.400 . S
C4407 C4412 1.490 . S
C4408 H4398 0.930 . S
C4408 C4407 1.400 . S
C4408 C4411 1.386 . S
H4409 C4425 0.930 . S
H4410 C4426 0.931 . S
C4411 H4399 0.929 . S
C4411 C4405 1.390 . S
C4411 C4408 1.386 . S
C4412 C4407 1.490 . S
C4412 C4414 1.395 . S
C4412 C4415 1.403 . S
H4413 C4419 0.930 . S
C4414 H4400 0.930 . S
C4414 C4412 1.395 . S
C4414 C4417 1.403 . S
C4415 C4412 1.403 . S
C4415 C4416 1.524 . S
C4415 C4419 1.400 . S
C4416 H4401 0.960 . S
C4416 H4402 0.960 . S
C4416 H4403 0.960 . S
C4416 C4415 1.524 . S
C4417 C4414 1.403 . S
C4417 C4418 1.392 . S
C4417 C4421 1.495 . S
C4418 C4417 1.392 . S
C4418 C4419 1.385 . S
C4418 C4420 1.478 . S
C4419 H4413 0.930 . S
C4419 C4415 1.400 . S
C4419 C4418 1.385 . S
C4420 C4418 1.478 . S
C4420 C4422 1.381 . S
C4420 C4426 1.383 . S
C4421 C4417 1.495 . S
C4421 H4427 0.959 . S
C4421 H4428 0.961 . S
C4421 H4429 0.960 . S
C4422 C4420 1.381 . S
C4422 C4423 1.394 . S
C4422 H4430 0.930 . S
C4423 C4422 1.394 . S
C4423 C4424 1.383 . S
C4423 H4431 0.929 . S
C4424 C4423 1.383 . S
C4424 C4425 1.377 . S
C4425 H4409 0.930 . S
C4425 C4424 1.377 . S
C4425 C4426 1.379 . S
C4426 H4410 0.931 . S
C4426 C4420 1.383 . S
C4426 C4425 1.379 . S
H4427 C4421 0.959 . S
H4428 C4421 0.961 . S
H4429 C4421 0.960 . S
H4430 C4422 0.930 . S
H4431 C4423 0.929 . S
C985 C109 1.560 . S
C1004 C358 1.543 . S
C1021 C61 0.937 . S
C1040 C378 1.022 . S
C1057 C74 0.567 . S
C1076 C425 0.565 . S
C1112 C482 0.944 . S
C1093 C96 0.987 . S
C1129 C25 2.457 . S
C1148 C499 2.473 . S
C1184 C558 1.632 . S
C1165 C40 1.642 . S
C1220 C591 2.646 . S
C1201 C46 2.642 . S
C1237 C5 2.079 . S
C1256 C638 2.403 . S
C1292 C351 1.178 . S
C1273 C229 0.957 . S
C1309 C249 1.191 . S
C1328 C379 1.186 . S
C1364 C418 0.531 . S
C1345 C271 0.549 . S
C1400 C478 2.094 . S
C1381 C172 1.973 1_556 S
C1417 C236 0.205 . S
C1436 C505 0.184 . S
C1472 C551 2.509 . S
C1453 C242 2.497 . S
C1508 C602 0.567 . S
C1489 C278 0.414 1_565 S
C1544 C631 2.301 . S
C1525 C179 2.291 . S
C1580 C362 1.584 . S
C1561 C159 1.270 . S
C1597 C285 1.932 . S
C1616 C658 2.132 . S
C1652 C722 0.964 . S
C1633 C333 0.951 . S
C1688 C758 1.168 1_655 S
C1669 C320 1.183 . S
C1705 C123 0.992 . S
C1724 C642 1.009 . S
C1741 C138 2.559 . S
C1760 C419 2.547 . S
C1777 C326 1.379 . S
C1796 C791 1.375 . S
C1832 C825 0.210 . S
C1813 C298 0.330 . S
C1868 C339 1.533 . S
C1849 C67 1.518 . S
C1904 C831 0.902 . S
C1885 C110 0.891 . S
C1921 C88 0.568 . S
C1940 C442 0.549 . S
C1957 C75 0.839 . S
C1976 C785 0.914 . S
C2012 C518 2.366 . S
C1993 C11 2.369 . S
C2029 C47 1.481 . S
C2048 C699 1.664 . S
C2084 C578 2.539 1_556 S
C2065 C32 2.474 . S
C2120 C859 2.471 . S
C2101 C26 2.488 1_655 S
C2156 C338 1.320 . S
C2137 C152 1.336 . S
C2192 C838 1.185 . S
C2173 C319 1.211 . S
C2209 C124 0.469 . S
C2228 C431 0.450 . S
C2245 C284 2.087 . S
C2264 C779 2.088 . S
C2281 C145 0.725 . S
C2300 C522 0.147 . S
C2336 C698 2.387 . S
C2317 C312 2.362 . S
C2353 C117 0.654 . S
C2372 C585 0.684 1_565 S
C2389 C291 2.207 . S
C2408 C858 2.199 . S
C2425 C194 1.704 . S
C2444 C345 1.660 . S
C2461 C180 2.131 . S
C2480 C671 2.104 . S
C2497 C263 0.872 . S
C2516 C545 0.898 . S
C2533 C243 0.961 . S
C2552 C739 1.082 . S
C2588 C865 1.043 . S
C2569 C277 1.007 . S
C2605 C215 2.218 . S
C2624 C438 2.536 1_565 S
C2660 C458 1.255 . S
C2641 C256 1.190 . S
C2696 C402 0.322 . S
C2677 C200 0.381 . S
C2713 C81 1.559 . S
C2732 C918 1.521 . S
C2768 C818 0.978 . S
C2749 C89 0.955 . S
C2785 C102 0.560 1_455 S
C2804 C945 0.571 . S
C2821 C68 0.983 . S
C2840 C802 0.963 . S
C2857 C53 2.456 . S
C2876 C659 2.470 . S
C2912 C718 1.642 . S
C2893 C12 1.641 1_655 S
C2948 C751 2.648 . S
C2929 C18 2.641 . S
C2984 C878 2.414 . S
C2965 C33 2.082 . S
C3020 C911 1.163 . S
C3001 C257 0.942 . S
C3037 C193 1.188 . S
C3056 C819 1.215 . S
C3092 C938 0.416 . S
C3073 C201 0.583 . S
C3128 C798 2.095 . S
C3109 C214 2.005 . S
C3164 C665 0.187 . S
C3145 C264 0.206 . S
C3181 C186 2.494 . S
C3200 C711 2.491 . S
C3236 C762 0.589 . S
C3217 C208 0.422 . S
C3253 C221 2.287 . S
C3272 C871 2.310 . S
C3308 C922 1.575 . S
C3289 C313 1.263 . S
C3325 C131 1.923 . S
C3344 C498 2.132 . S
C3380 C562 0.920 . S
C3361 C151 0.950 . S
C3416 C598 1.182 . S
C3397 C166 1.182 . S
C3452 C882 0.965 . S
C3433 C305 0.986 . S
C3469 C292 2.559 . S
C3488 C939 2.543 1_655 S
C3524 C471 1.380 . S
C3505 C144 1.378 . S
C3560 C385 0.275 . S
C3541 C116 0.298 . S
C3577 C95 1.529 . S
C3596 C899 1.570 . S
C3632 C391 0.917 . S
C3613 C82 0.893 . S
C3649 C60 0.570 . S
C3668 C962 0.536 . S
C3685 C103 0.857 . S
C3704 C465 0.845 . S
C3721 C39 2.369 . S
C3740 C678 2.371 1_556 S
C3776 C539 1.653 . S
C3757 C19 1.497 . S
C3793 C4 2.471 . S
C3812 C738 2.535 . S
C3829 C54 2.488 . S
C3848 C619 2.469 . S
C3884 C898 1.316 . S
C3865 C334 1.335 . S
C3901 C165 1.208 . S
C3920 C398 1.203 . S
C3956 C951 0.525 . S
C3937 C306 0.445 . S
C3973 C130 2.085 . S
C3992 C459 2.091 . S
C4009 C327 0.729 . S
C4028 C682 0.227 . S
C4064 C538 2.381 . S
C4045 C158 2.362 1_556 S
C4081 C299 0.671 1_655 S
C4100 C745 0.633 . S
C4136 C618 2.209 . S
C4117 C137 2.204 . S
C4172 C905 1.671 . S
C4153 C250 1.703 . S
C4208 C511 2.113 . S
C4189 C222 2.130 . S
C4225 C235 0.880 . S
C4244 C705 0.928 . S
C4280 C579 1.051 . S
C4261 C187 0.990 . S
C4297 C207 1.000 . S
C4316 C625 1.043 . S
C4333 C173 2.217 . S
C4352 C958 2.536 . S
C4388 C778 1.256 . S
C4369 C228 1.191 . S
C4424 C842 0.248 . S
C4405 C270 0.361 . S
