# Generated by pormake.
# Topology bcu-b, (8,8)-cn, num edge types: 1
# Building blocks:
#     Node 0, Type 0, BuildingBlock: TAGTUT_clean_sbu_1, # of connection points: 8
#     Node 1, Type 1, BuildingBlock: GIZVER_clean_sbu_0, # of connection points: 8
#     Edge 2, Type (0, 1), BuildingBlock: FUNLAD_clean_linker_1, # of connection points: 2
#     Edge 3, Type (0, 1), BuildingBlock: FUNLAD_clean_linker_1, # of connection points: 2
#     Edge 4, Type (0, 1), BuildingBlock: FUNLAD_clean_linker_1, # of connection points: 2
#     Edge 5, Type (0, 1), BuildingBlock: FUNLAD_clean_linker_1, # of connection points: 2
#     Edge 6, Type (0, 1), BuildingBlock: FUNLAD_clean_linker_1, # of connection points: 2
#     Edge 7, Type (0, 1), BuildingBlock: FUNLAD_clean_linker_1, # of connection points: 2
#     Edge 8, Type (0, 1), BuildingBlock: FUNLAD_clean_linker_1, # of connection points: 2
#     Edge 9, Type (0, 1), BuildingBlock: FUNLAD_clean_linker_1, # of connection points: 2
# Relax obj value: 0.106
# Max RMSD: 0.176
# Mean RMSD: 0.169
data_MOF--net-bcu-b--node1-TAGTUT_clean_sbu_1--node2-GIZVER_clean_sbu_0--edge1-FUNLAD_clean_linker_1
_symmetry_space_group_name_H-M    P1
_symmetry_Int_Tables_number       1
_symmetry_cell_setting            triclinic
loop_
_symmetry_equiv_pos_as_xyz
'x, y, z'
_cell_length_a     21.795329
_cell_length_b     22.831333
_cell_length_c     18.149469
_cell_angle_alpha  87.758894
_cell_angle_beta   93.85908
_cell_angle_gamma 108.58421
loop_
_atom_site_label
_atom_site_type_symbol
_atom_site_fract_x
_atom_site_fract_y
_atom_site_fract_z
_atom_type_partial_charge
C0 C 0.89193 0.15998 0.11184 0.0
C1 C 0.93992 0.15891 0.88739 0.0
C2 C 0.89566 0.92093 0.91089 0.0
Mg3 Mg 0.0135 0.15664 0.03439 0.0
O4 O 0.97337 0.07195 0.05216 0.0
Mg5 Mg 0.883 0.03773 0.00573 0.0
Mg6 Mg 0.01621 0.01867 0.00576 0.0
O7 O 0.05953 0.9662 0.95834 0.0
Mg8 Mg 0.02063 0.88019 0.96081 0.0
Mg9 Mg 0.1485 1.00004 0.00795 0.0
C10 C 0.13842 0.11968 0.08724 0.0
C11 C 0.12271 0.1061 0.89657 0.0
O12 O 0.85814 0.10737 0.08396 0.0
O13 O 0.9518 0.18627 0.09997 0.0
O14 O 0.89677 0.11149 0.91234 0.0
O15 O 0.99471 0.18174 0.92191 0.0
O16 O 0.11133 0.16148 0.07273 0.0
O17 O 0.10891 0.06178 0.07726 0.0
C18 C 0.91089 0.93167 0.11667 0.0
O19 O 0.96786 0.94441 0.09263 0.0
O20 O 0.8722 0.96185 0.09462 0.0
O21 O 0.17883 0.93621 0.93017 0.0
O22 O 0.08914 0.85855 0.89497 0.0
O23 O 0.12941 0.92202 0.09733 0.0
C24 C 0.1502 0.88701 0.89331 0.0
O25 O 0.03543 0.84808 0.07187 0.0
O26 O 0.9243 0.87938 0.91626 0.0
C27 C 0.08622 0.87111 0.1138 0.0
O28 O 0.92309 0.97588 0.93506 0.0
O29 O 0.06496 0.09274 0.9186 0.0
O30 O 0.16164 0.07691 0.92097 0.0
Co31 Co 0.57614 0.39662 0.47565 0.0
Co32 Co 0.60664 0.45562 0.59853 0.0
Co33 Co 0.51255 0.51109 0.49539 0.0
O34 O 0.58907 0.48027 0.50327 0.0
H35 H 0.62737 0.50947 0.48371 0.0
O36 O 0.43498 0.54011 0.48713 0.0
Co37 Co 0.43457 0.61443 0.53158 0.0
Co38 Co 0.42057 0.57669 0.39877 0.0
H39 H 0.39622 0.50644 0.49723 0.0
O40 O 0.6884 0.45047 0.62747 0.0
O41 O 0.60327 0.37578 0.57679 0.0
O42 O 0.54052 0.44696 0.66781 0.0
O43 O 0.46785 0.45982 0.58137 0.0
O44 O 0.56092 0.57851 0.56429 0.0
O45 O 0.42661 0.67915 0.57637 0.0
O46 O 0.35059 0.58716 0.55349 0.0
O47 O 0.52352 0.65199 0.51646 0.0
O48 O 0.55799 0.56398 0.41002 0.0
O49 O 0.49089 0.5987 0.33507 0.0
O50 O 0.41182 0.64827 0.4345 0.0
O51 O 0.33824 0.57575 0.36511 0.0
C52 C 0.62887 0.35031 0.42752 0.0
C53 C 0.45304 0.38615 0.45147 0.0
C54 C 0.48268 0.44276 0.64625 0.0
C55 C 0.66178 0.39362 0.60709 0.0
C56 C 0.3678 0.6419 0.58226 0.0
C57 C 0.5647 0.63523 0.55744 0.0
C58 C 0.54623 0.59325 0.35187 0.0
C59 C 0.35669 0.62949 0.39596 0.0
O60 O 0.57016 0.32191 0.44617 0.0
O61 O 0.65642 0.40859 0.4433 0.0
O62 O 0.46394 0.44183 0.42824 0.0
O63 O 0.49011 0.37362 0.50196 0.0
H64 H 0.23512 0.18561 0.09949 0.0
C65 C 0.20455 0.14124 0.1202 0.0
H66 H 0.18399 0.08158 0.21275 0.0
H67 H 0.46546 0.31575 0.2714 0.0
H68 H 0.51183 0.26309 0.1881 0.0
H69 H 0.44452 0.16742 0.1268 0.0
H70 H 0.32996 0.12322 0.14977 0.0
C71 C 0.21742 0.1229 0.18886 0.0
C72 C 0.26175 0.17005 0.23883 0.0
C73 C 0.32838 0.19496 0.22529 0.0
C74 C 0.36715 0.25002 0.26054 0.0
C75 C 0.43363 0.27407 0.24589 0.0
C76 C 0.4609 0.24432 0.19811 0.0
C77 C 0.42296 0.19043 0.16367 0.0
C78 C 0.35736 0.16578 0.17692 0.0
H79 H 0.39086 0.28968 0.4448 0.0
C80 C 0.40377 0.33405 0.41552 0.0
H81 H 0.39571 0.3797 0.31364 0.0
H82 H 0.13699 0.13029 0.28435 0.0
H83 H 0.09223 0.17992 0.37257 0.0
H84 H 0.15952 0.27614 0.43266 0.0
H85 H 0.27204 0.32331 0.40449 0.0
C86 C 0.38002 0.33714 0.34619 0.0
C87 C 0.3392 0.27962 0.30972 0.0
C88 C 0.27355 0.25275 0.32679 0.0
C89 C 0.23482 0.19748 0.29182 0.0
C90 C 0.16898 0.17212 0.30911 0.0
C91 C 0.14253 0.20019 0.35978 0.0
C92 C 0.18038 0.25434 0.3936 0.0
C93 C 0.24501 0.28078 0.37714 0.0
H94 H 0.89412 0.23996 0.17587 0.0
C95 C 0.86325 0.19421 0.15916 0.0
H96 H 0.7701 0.12855 0.16606 0.0
H97 H 0.8159 0.3335 0.43842 0.0
H98 H 0.8982 0.29028 0.49036 0.0
H99 H 0.92416 0.2089 0.42551 0.0
H100 H 0.86956 0.17163 0.30736 0.0
C101 C 0.80317 0.17315 0.18325 0.0
C102 C 0.77973 0.21394 0.22885 0.0
C103 C 0.80986 0.23296 0.29972 0.0
C104 C 0.79276 0.27773 0.33892 0.0
C105 C 0.82604 0.29842 0.40744 0.0
C106 C 0.87349 0.27419 0.43766 0.0
C107 C 0.88816 0.22844 0.40109 0.0
C108 C 0.85678 0.20777 0.33304 0.0
H109 H 0.63599 0.26585 0.38053 0.0
C110 C 0.66167 0.31484 0.38769 0.0
H111 H 0.74521 0.38863 0.3613 0.0
H112 H 0.71378 0.18922 0.09397 0.0
H113 H 0.63435 0.2353 0.04112 0.0
H114 H 0.60421 0.31207 0.10988 0.0
H115 H 0.65211 0.34222 0.23291 0.0
C116 C 0.718 0.33993 0.35551 0.0
C117 C 0.74286 0.30061 0.30956 0.0
C118 C 0.71333 0.28233 0.23844 0.0
C119 C 0.73154 0.23877 0.19823 0.0
C120 C 0.70187 0.22213 0.12693 0.0
C121 C 0.65621 0.24825 0.09589 0.0
C122 C 0.63907 0.29133 0.13474 0.0
C123 C 0.66677 0.30806 0.20538 0.0
H124 H 0.92017 0.85235 0.18617 0.0
C125 C 0.88699 0.87703 0.1661 0.0
H126 H 0.78984 0.87691 0.15742 0.0
H127 H 0.65635 0.59298 0.19271 0.0
H128 H 0.66251 0.5983 0.05923 0.0
H129 H 0.72978 0.69294 0.9975 0.0
H130 H 0.79099 0.78302 0.06862 0.0
C131 C 0.8239 0.85421 0.18042 0.0
C132 C 0.79543 0.79361 0.21852 0.0
C133 C 0.7593 0.74178 0.17616 0.0
C134 C 0.71977 0.68756 0.21164 0.0
C135 C 0.68545 0.63595 0.16813 0.0
C136 C 0.68901 0.63824 0.09165 0.0
C137 C 0.72685 0.69156 0.05687 0.0
C138 C 0.76159 0.74294 0.0983 0.0
H139 H 0.58813 0.65653 0.26084 0.0
C140 C 0.60002 0.62922 0.30676 0.0
H141 H 0.67551 0.61087 0.37267 0.0
H142 H 0.86739 0.88072 0.31595 0.0
H143 H 0.86738 0.87289 0.44982 0.0
H144 H 0.79741 0.77973 0.51172 0.0
H145 H 0.72712 0.6941 0.44063 0.0
C146 C 0.66275 0.63611 0.32531 0.0
C147 C 0.71509 0.68592 0.28934 0.0
C148 C 0.75647 0.73537 0.33223 0.0
C149 C 0.79672 0.78932 0.29662 0.0
C150 C 0.83608 0.83877 0.34035 0.0
C151 C 0.8365 0.83487 0.41716 0.0
C152 C 0.79709 0.78242 0.45201 0.0
C153 C 0.75701 0.7334 0.41039 0.0
H154 H 0.06631 0.78617 0.18296 0.0
C155 C 0.10065 0.83212 0.17524 0.0
H156 H 0.19593 0.89087 0.2 0.0
H157 H 0.21296 0.68183 0.4517 0.0
H158 H 0.15648 0.73176 0.52657 0.0
H159 H 0.11338 0.81271 0.47296 0.0
H160 H 0.12553 0.84362 0.3435 0.0
C161 C 0.15994 0.84624 0.20988 0.0
C162 C 0.18435 0.79675 0.2432 0.0
C163 C 0.17769 0.77993 0.31888 0.0
C164 C 0.20353 0.73389 0.35007 0.0
C165 C 0.19507 0.71707 0.42549 0.0
C166 C 0.16255 0.74519 0.46896 0.0
C167 C 0.1382 0.79076 0.43874 0.0
C168 C 0.14556 0.80814 0.36455 0.0
H169 H 0.34047 0.72009 0.39881 0.0
C170 C 0.31957 0.67295 0.37969 0.0
H171 H 0.24421 0.61097 0.31536 0.0
H172 H 0.20531 0.81817 0.09569 0.0
H173 H 0.26002 0.76735 0.02045 0.0
H174 H 0.30446 0.6874 0.07419 0.0
H175 H 0.29485 0.6582 0.20375 0.0
C176 C 0.26432 0.65744 0.33673 0.0
C177 C 0.23623 0.70517 0.30538 0.0
C178 C 0.242 0.72144 0.22933 0.0
C179 C 0.21639 0.76749 0.19833 0.0
C180 C 0.22362 0.78338 0.12232 0.0
C181 C 0.25497 0.75455 0.07833 0.0
C182 C 0.28001 0.70958 0.1086 0.0
C183 C 0.27395 0.69317 0.18314 0.0
H184 H 0.24099 0.88858 0.84477 0.0
C185 C 0.18982 0.8626 0.84772 0.0
H186 H 0.11475 0.78128 0.81572 0.0
H187 H 0.32353 0.79962 0.56042 0.0
H188 H 0.28803 0.88397 0.50923 0.0
H189 H 0.2138 0.92253 0.57537 0.0
H190 H 0.17525 0.87744 0.69365 0.0
C191 C 0.16515 0.8092 0.81141 0.0
C192 C 0.20714 0.78413 0.76935 0.0
C193 C 0.22857 0.81056 0.69993 0.0
C194 C 0.27078 0.78786 0.66143 0.0
C195 C 0.29185 0.81537 0.59238 0.0
C196 C 0.27171 0.86373 0.56223 0.0
C197 C 0.22986 0.88539 0.59944 0.0
C198 C 0.20826 0.85922 0.6674 0.0
H199 H 0.27132 0.63047 0.62357 0.0
C200 C 0.32052 0.66187 0.62062 0.0
H201 H 0.38611 0.74956 0.64864 0.0
H202 H 0.17317 0.72216 0.90011 0.0
H203 H 0.20978 0.63879 0.9524 0.0
H204 H 0.28468 0.60063 0.8869 0.0
H205 H 0.32311 0.64528 0.76868 0.0
C206 C 0.33752 0.71721 0.65293 0.0
C207 C 0.29065 0.73821 0.69189 0.0
C208 C 0.26876 0.71141 0.76111 0.0
C209 C 0.2264 0.73406 0.79948 0.0
C210 C 0.20542 0.70677 0.86864 0.0
C211 C 0.22614 0.65894 0.89937 0.0
C212 C 0.26826 0.63743 0.86246 0.0
C213 C 0.28965 0.66329 0.7943 0.0
H214 H 0.11473 0.18539 0.82612 0.0
C215 C 0.14695 0.15957 0.84574 0.0
H216 H 0.24189 0.15355 0.84712 0.0
H217 H 0.33221 0.31333 0.56318 0.0
H218 H 0.28487 0.21454 0.50371 0.0
H219 H 0.21391 0.12509 0.57045 0.0
H220 H 0.19085 0.13359 0.69806 0.0
C221 C 0.20924 0.17901 0.82787 0.0
C222 C 0.23777 0.23598 0.78326 0.0
C223 C 0.24907 0.23097 0.70824 0.0
C224 C 0.28908 0.28296 0.66947 0.0
C225 C 0.30158 0.27576 0.59526 0.0
C226 C 0.27466 0.21927 0.56031 0.0
C227 C 0.23486 0.16881 0.59798 0.0
C228 C 0.22218 0.17425 0.67116 0.0
H229 H 0.44348 0.38793 0.74511 0.0
C230 C 0.43007 0.40733 0.69318 0.0
H231 H 0.35344 0.40816 0.61577 0.0
H232 H 0.22072 0.26249 0.92481 0.0
H233 H 0.26328 0.36253 0.98284 0.0
H234 H 0.32904 0.45381 0.914 0.0
H235 H 0.35349 0.4453 0.78691 0.0
C236 C 0.36723 0.39098 0.66891 0.0
C237 C 0.31754 0.33995 0.70608 0.0
C238 C 0.30174 0.34623 0.77923 0.0
C239 C 0.2624 0.29396 0.81822 0.0
C240 C 0.2497 0.30084 0.89233 0.0
C241 C 0.27378 0.35802 0.92627 0.0
C242 C 0.31091 0.40939 0.88756 0.0
C243 C 0.32489 0.40384 0.81486 0.0
H244 H 0.95897 0.2362 0.80615 0.0
C245 C 0.92231 0.1945 0.82453 0.0
H246 H 0.82248 0.14288 0.81905 0.0
H247 H 0.80079 0.4207 0.76188 0.0
H248 H 0.84467 0.4388 0.88778 0.0
H249 H 0.88367 0.36147 0.95746 0.0
H250 H 0.87985 0.26628 0.90128 0.0
C251 C 0.85997 0.18399 0.80087 0.0
C252 C 0.83816 0.2314 0.75809 0.0
C253 C 0.84015 0.28689 0.79248 0.0
C254 C 0.81608 0.33076 0.75294 0.0
C255 C 0.81855 0.38569 0.78877 0.0
C256 C 0.84338 0.39667 0.86141 0.0
C257 C 0.86544 0.35323 0.90056 0.0
C258 C 0.86356 0.29883 0.86707 0.0
H259 H 0.66346 0.29925 0.63383 0.0
C260 C 0.69381 0.34704 0.62752 0.0
H261 H 0.78821 0.41038 0.63627 0.0
H262 H 0.82575 0.12924 0.67749 0.0
H263 H 0.77647 0.10825 0.55323 0.0
H264 H 0.73274 0.18333 0.48531 0.0
H265 H 0.73923 0.28031 0.54038 0.0
C266 C 0.75806 0.36252 0.64255 0.0
C267 C 0.78767 0.31805 0.68023 0.0
C268 C 0.78495 0.26222 0.64623 0.0
C269 C 0.81022 0.21888 0.68534 0.0
C270 C 0.80682 0.16347 0.65037 0.0
C271 C 0.77877 0.1509 0.57909 0.0
C272 C 0.75406 0.19312 0.54091 0.0
C273 C 0.75767 0.2485 0.57343 0.0
H274 H 0.80877 0.94164 0.86077 0.0
C275 C 0.83177 0.90595 0.86987 0.0
H276 H 0.82828 0.8149 0.84671 0.0
H277 H 0.54577 0.69328 0.73236 0.0
H278 H 0.53113 0.66571 0.86228 0.0
H279 H 0.61556 0.71625 0.95773 0.0
H280 H 0.71531 0.7948 0.92377 0.0
C281 C 0.8059 0.85098 0.83703 0.0
C282 C 0.7483 0.83583 0.78423 0.0
C283 C 0.69041 0.79064 0.80492 0.0
C284 C 0.64204 0.76129 0.74996 0.0
C285 C 0.5846 0.71611 0.77201 0.0
C286 C 0.57547 0.70017 0.84632 0.0
C287 C 0.62303 0.72863 0.90007 0.0
C288 C 0.68004 0.77332 0.87992 0.0
H289 H 0.64616 0.66378 0.64069 0.0
C290 C 0.61159 0.68 0.60668 0.0
H291 H 0.57534 0.75503 0.58318 0.0
H292 H 0.84942 0.92757 0.72657 0.0
H293 H 0.85906 0.96113 0.59821 0.0
H294 H 0.77329 0.91191 0.50358 0.0
H295 H 0.67804 0.82745 0.53659 0.0
C296 C 0.60924 0.73736 0.61625 0.0
C297 C 0.65212 0.77702 0.67442 0.0
C298 C 0.70616 0.82739 0.65458 0.0
C299 C 0.75491 0.85653 0.70951 0.0
C300 C 0.81041 0.90436 0.68752 0.0
C301 C 0.81657 0.92408 0.61393 0.0
C302 C 0.76832 0.89631 0.56061 0.0
C303 C 0.71393 0.84802 0.58024 0.0
loop_
_geom_bond_atom_site_label_1
_geom_bond_atom_site_label_2
_geom_bond_distance
_geom_bond_site_symmetry_2
_ccdc_geom_bond_type
C0 O12 1.241 . S
C0 O13 1.280 . S
C1 O14 1.277 . S
C1 O15 1.245 . S
C2 O26 1.247 . S
C2 O28 1.289 . S
Mg3 O4 1.926 . S
Mg3 O13 1.984 . S
Mg3 O15 1.988 1_554 S
Mg3 O16 2.061 1_655 S
O4 Mg3 1.926 . S
O4 Mg5 1.988 1_554 S
O4 Mg6 1.917 1_655 S
Mg5 O4 1.988 1_556 S
Mg5 O12 2.048 1_556 S
Mg5 O14 2.046 . S
Mg5 O20 2.033 1_546 S
Mg5 O28 2.232 1_545 S
Mg6 O4 1.917 1_455 S
Mg6 O7 1.917 1_544 S
Mg6 O17 2.107 . S
Mg6 O19 2.079 1_445 S
Mg6 O28 2.106 1_444 S
Mg6 O29 2.079 1_554 S
O7 Mg6 1.917 1_566 S
O7 Mg8 1.926 . S
O7 Mg9 1.987 1_556 S
Mg8 O7 1.926 . S
Mg8 O22 1.984 . S
Mg8 O25 1.988 1_556 S
Mg8 O26 2.061 1_455 S
Mg9 O7 1.987 1_554 S
Mg9 O17 2.235 1_565 S
Mg9 O21 2.045 1_554 S
Mg9 O23 2.043 . S
Mg9 O30 2.036 1_564 S
C10 O16 1.247 . S
C10 O17 1.289 . S
C11 O29 1.245 . S
C11 O30 1.274 . S
O12 C0 1.241 . S
O12 Mg5 2.048 1_554 S
O13 C0 1.280 . S
O13 Mg3 1.984 . S
O14 C1 1.277 . S
O14 Mg5 2.046 . S
O15 C1 1.245 . S
O15 Mg3 1.988 1_556 S
O16 Mg3 2.061 1_455 S
O16 C10 1.247 . S
O17 Mg6 2.107 . S
O17 Mg9 2.235 1_545 S
O17 C10 1.289 . S
C18 O19 1.245 . S
C18 O20 1.274 . S
O19 Mg6 2.079 1_665 S
O19 C18 1.245 . S
O20 Mg5 2.033 1_564 S
O20 C18 1.274 . S
O21 Mg9 2.045 1_556 S
O21 C24 1.241 . S
O22 Mg8 1.984 . S
O22 C24 1.280 . S
O23 Mg9 2.043 . S
O23 C27 1.277 . S
C24 O21 1.241 . S
C24 O22 1.280 . S
O25 Mg8 1.988 1_554 S
O25 C27 1.245 . S
O26 C2 1.247 . S
O26 Mg8 2.061 1_655 S
C27 O23 1.277 . S
C27 O25 1.245 . S
O28 C2 1.289 . S
O28 Mg5 2.232 1_565 S
O28 Mg6 2.106 1_666 S
O29 Mg6 2.079 1_556 S
O29 C11 1.245 . S
O30 Mg9 2.036 1_546 S
O30 C11 1.274 . S
Co31 O34 2.042 . S
Co31 O41 2.264 . S
Co31 O60 2.286 . S
Co31 O61 2.069 . S
Co31 O63 2.015 . S
Co32 O34 2.122 . S
Co32 O40 2.073 . S
Co32 O41 2.327 . S
Co32 O42 1.976 . S
Co33 O34 2.087 . S
Co33 O36 2.087 . S
Co33 O43 2.111 . S
Co33 O44 2.143 . S
Co33 O48 2.111 . S
Co33 O62 2.143 . S
O34 Co31 2.042 . S
O34 Co32 2.122 . S
O34 Co33 2.087 . S
O34 H35 0.980 . S
H35 O34 0.980 . S
O36 Co33 2.087 . S
O36 Co37 2.042 . S
O36 Co38 2.122 . S
O36 H39 0.980 . S
Co37 O36 2.042 . S
Co37 O45 2.286 . S
Co37 O46 2.069 . S
Co37 O47 2.015 . S
Co37 O50 2.264 . S
Co38 O36 2.122 . S
Co38 O49 1.976 . S
Co38 O50 2.327 . S
Co38 O51 2.073 . S
H39 O36 0.980 . S
O40 Co32 2.073 . S
O40 C55 1.245 . S
O41 Co31 2.264 . S
O41 Co32 2.327 . S
O41 C55 1.257 . S
O42 Co32 1.976 . S
O42 C54 1.251 . S
O43 Co33 2.111 . S
O43 C54 1.274 . S
O44 Co33 2.143 . S
O44 C57 1.246 . S
O45 Co37 2.286 . S
O45 C56 1.259 . S
O46 Co37 2.069 . S
O46 C56 1.289 . S
O47 Co37 2.015 . S
O47 C57 1.257 . S
O48 Co33 2.111 . S
O48 C58 1.274 . S
O49 Co38 1.976 . S
O49 C58 1.251 . S
O50 Co37 2.264 . S
O50 Co38 2.327 . S
O50 C59 1.257 . S
O51 Co38 2.073 . S
O51 C59 1.245 . S
C52 O60 1.259 . S
C52 O61 1.289 . S
C53 O62 1.246 . S
C53 O63 1.257 . S
C54 O42 1.251 . S
C54 O43 1.274 . S
C55 O40 1.245 . S
C55 O41 1.257 . S
C56 O45 1.259 . S
C56 O46 1.289 . S
C57 O44 1.246 . S
C57 O47 1.257 . S
C58 O48 1.274 . S
C58 O49 1.251 . S
C59 O50 1.257 . S
C59 O51 1.245 . S
O60 Co31 2.286 . S
O60 C52 1.259 . S
O61 Co31 2.069 . S
O61 C52 1.289 . S
O62 Co33 2.143 . S
O62 C53 1.246 . S
O63 Co31 2.015 . S
O63 C53 1.257 . S
H64 C65 0.951 . S
C65 H64 0.951 . S
C65 C71 1.265 . S
H66 C71 0.950 . S
H67 C75 0.949 . S
H68 C76 0.950 . S
H69 C77 0.951 . S
H70 C78 0.951 . S
C71 C65 1.265 . S
C71 H66 0.950 . S
C71 C72 1.478 . S
C72 C71 1.478 . S
C72 C73 1.397 . S
C72 C89 1.394 . S
C73 C72 1.397 . S
C73 C74 1.438 . S
C73 C78 1.429 . S
C74 C73 1.438 . S
C74 C75 1.428 . S
C74 C87 1.394 . S
C75 H67 0.949 . S
C75 C74 1.428 . S
C75 C76 1.345 . S
C76 H68 0.950 . S
C76 C75 1.345 . S
C76 C77 1.424 . S
C77 H69 0.951 . S
C77 C76 1.424 . S
C77 C78 1.347 . S
C78 H70 0.951 . S
C78 C73 1.429 . S
C78 C77 1.347 . S
H79 C80 0.951 . S
C80 H79 0.951 . S
C80 C86 1.265 . S
H81 C86 0.950 . S
H82 C90 0.949 . S
H83 C91 0.950 . S
H84 C92 0.951 . S
H85 C93 0.951 . S
C86 C80 1.265 . S
C86 H81 0.950 . S
C86 C87 1.478 . S
C87 C74 1.394 . S
C87 C86 1.478 . S
C87 C88 1.397 . S
C88 C87 1.397 . S
C88 C89 1.438 . S
C88 C93 1.429 . S
C89 C72 1.394 . S
C89 C88 1.438 . S
C89 C90 1.428 . S
C90 H82 0.949 . S
C90 C89 1.428 . S
C90 C91 1.345 . S
C91 H83 0.950 . S
C91 C90 1.345 . S
C91 C92 1.424 . S
C92 H84 0.951 . S
C92 C91 1.424 . S
C92 C93 1.347 . S
C93 H85 0.951 . S
C93 C88 1.429 . S
C93 C92 1.347 . S
H94 C95 0.951 . S
C95 H94 0.951 . S
C95 C101 1.265 . S
H96 C101 0.950 . S
H97 C105 0.949 . S
H98 C106 0.950 . S
H99 C107 0.951 . S
H100 C108 0.951 . S
C101 C95 1.265 . S
C101 H96 0.950 . S
C101 C102 1.478 . S
C102 C101 1.478 . S
C102 C103 1.397 . S
C102 C119 1.394 . S
C103 C102 1.397 . S
C103 C104 1.438 . S
C103 C108 1.429 . S
C104 C103 1.438 . S
C104 C105 1.428 . S
C104 C117 1.394 . S
C105 H97 0.949 . S
C105 C104 1.428 . S
C105 C106 1.345 . S
C106 H98 0.950 . S
C106 C105 1.345 . S
C106 C107 1.424 . S
C107 H99 0.951 . S
C107 C106 1.424 . S
C107 C108 1.347 . S
C108 H100 0.951 . S
C108 C103 1.429 . S
C108 C107 1.347 . S
H109 C110 0.951 . S
C110 H109 0.951 . S
C110 C116 1.265 . S
H111 C116 0.950 . S
H112 C120 0.949 . S
H113 C121 0.950 . S
H114 C122 0.951 . S
H115 C123 0.951 . S
C116 C110 1.265 . S
C116 H111 0.950 . S
C116 C117 1.478 . S
C117 C104 1.394 . S
C117 C116 1.478 . S
C117 C118 1.397 . S
C118 C117 1.397 . S
C118 C119 1.438 . S
C118 C123 1.429 . S
C119 C102 1.394 . S
C119 C118 1.438 . S
C119 C120 1.428 . S
C120 H112 0.949 . S
C120 C119 1.428 . S
C120 C121 1.345 . S
C121 H113 0.950 . S
C121 C120 1.345 . S
C121 C122 1.424 . S
C122 H114 0.951 . S
C122 C121 1.424 . S
C122 C123 1.347 . S
C123 H115 0.951 . S
C123 C118 1.429 . S
C123 C122 1.347 . S
H124 C125 0.951 . S
C125 H124 0.951 . S
C125 C131 1.265 . S
H126 C131 0.950 . S
H127 C135 0.949 . S
H128 C136 0.950 . S
H129 C137 0.951 . S
H130 C138 0.951 . S
C131 C125 1.265 . S
C131 H126 0.950 . S
C131 C132 1.478 . S
C132 C131 1.478 . S
C132 C133 1.397 . S
C132 C149 1.394 . S
C133 C132 1.397 . S
C133 C134 1.438 . S
C133 C138 1.429 . S
C134 C133 1.438 . S
C134 C135 1.428 . S
C134 C147 1.394 . S
C135 H127 0.949 . S
C135 C134 1.428 . S
C135 C136 1.345 . S
C136 H128 0.950 . S
C136 C135 1.345 . S
C136 C137 1.424 . S
C137 H129 0.951 . S
C137 C136 1.424 . S
C137 C138 1.347 . S
C138 H130 0.951 . S
C138 C133 1.429 . S
C138 C137 1.347 . S
H139 C140 0.951 . S
C140 H139 0.951 . S
C140 C146 1.265 . S
H141 C146 0.950 . S
H142 C150 0.949 . S
H143 C151 0.950 . S
H144 C152 0.951 . S
H145 C153 0.951 . S
C146 C140 1.265 . S
C146 H141 0.950 . S
C146 C147 1.478 . S
C147 C134 1.394 . S
C147 C146 1.478 . S
C147 C148 1.397 . S
C148 C147 1.397 . S
C148 C149 1.438 . S
C148 C153 1.429 . S
C149 C132 1.394 . S
C149 C148 1.438 . S
C149 C150 1.428 . S
C150 H142 0.949 . S
C150 C149 1.428 . S
C150 C151 1.345 . S
C151 H143 0.950 . S
C151 C150 1.345 . S
C151 C152 1.424 . S
C152 H144 0.951 . S
C152 C151 1.424 . S
C152 C153 1.347 . S
C153 H145 0.951 . S
C153 C148 1.429 . S
C153 C152 1.347 . S
H154 C155 0.951 . S
C155 H154 0.951 . S
C155 C161 1.265 . S
H156 C161 0.950 . S
H157 C165 0.949 . S
H158 C166 0.950 . S
H159 C167 0.951 . S
H160 C168 0.951 . S
C161 C155 1.265 . S
C161 H156 0.950 . S
C161 C162 1.478 . S
C162 C161 1.478 . S
C162 C163 1.397 . S
C162 C179 1.394 . S
C163 C162 1.397 . S
C163 C164 1.438 . S
C163 C168 1.429 . S
C164 C163 1.438 . S
C164 C165 1.428 . S
C164 C177 1.394 . S
C165 H157 0.949 . S
C165 C164 1.428 . S
C165 C166 1.345 . S
C166 H158 0.950 . S
C166 C165 1.345 . S
C166 C167 1.424 . S
C167 H159 0.951 . S
C167 C166 1.424 . S
C167 C168 1.347 . S
C168 H160 0.951 . S
C168 C163 1.429 . S
C168 C167 1.347 . S
H169 C170 0.951 . S
C170 H169 0.951 . S
C170 C176 1.265 . S
H171 C176 0.950 . S
H172 C180 0.949 . S
H173 C181 0.950 . S
H174 C182 0.951 . S
H175 C183 0.951 . S
C176 C170 1.265 . S
C176 H171 0.950 . S
C176 C177 1.478 . S
C177 C164 1.394 . S
C177 C176 1.478 . S
C177 C178 1.397 . S
C178 C177 1.397 . S
C178 C179 1.438 . S
C178 C183 1.429 . S
C179 C162 1.394 . S
C179 C178 1.438 . S
C179 C180 1.428 . S
C180 H172 0.949 . S
C180 C179 1.428 . S
C180 C181 1.345 . S
C181 H173 0.950 . S
C181 C180 1.345 . S
C181 C182 1.424 . S
C182 H174 0.951 . S
C182 C181 1.424 . S
C182 C183 1.347 . S
C183 H175 0.951 . S
C183 C178 1.429 . S
C183 C182 1.347 . S
H184 C185 0.951 . S
C185 H184 0.951 . S
C185 C191 1.265 . S
H186 C191 0.950 . S
H187 C195 0.949 . S
H188 C196 0.950 . S
H189 C197 0.951 . S
H190 C198 0.951 . S
C191 C185 1.265 . S
C191 H186 0.950 . S
C191 C192 1.478 . S
C192 C191 1.478 . S
C192 C193 1.397 . S
C192 C209 1.394 . S
C193 C192 1.397 . S
C193 C194 1.438 . S
C193 C198 1.429 . S
C194 C193 1.438 . S
C194 C195 1.428 . S
C194 C207 1.394 . S
C195 H187 0.949 . S
C195 C194 1.428 . S
C195 C196 1.345 . S
C196 H188 0.950 . S
C196 C195 1.345 . S
C196 C197 1.424 . S
C197 H189 0.951 . S
C197 C196 1.424 . S
C197 C198 1.347 . S
C198 H190 0.951 . S
C198 C193 1.429 . S
C198 C197 1.347 . S
H199 C200 0.951 . S
C200 H199 0.951 . S
C200 C206 1.265 . S
H201 C206 0.950 . S
H202 C210 0.949 . S
H203 C211 0.950 . S
H204 C212 0.951 . S
H205 C213 0.951 . S
C206 C200 1.265 . S
C206 H201 0.950 . S
C206 C207 1.478 . S
C207 C194 1.394 . S
C207 C206 1.478 . S
C207 C208 1.397 . S
C208 C207 1.397 . S
C208 C209 1.438 . S
C208 C213 1.429 . S
C209 C192 1.394 . S
C209 C208 1.438 . S
C209 C210 1.428 . S
C210 H202 0.949 . S
C210 C209 1.428 . S
C210 C211 1.345 . S
C211 H203 0.950 . S
C211 C210 1.345 . S
C211 C212 1.424 . S
C212 H204 0.951 . S
C212 C211 1.424 . S
C212 C213 1.347 . S
C213 H205 0.951 . S
C213 C208 1.429 . S
C213 C212 1.347 . S
H214 C215 0.951 . S
C215 H214 0.951 . S
C215 C221 1.265 . S
H216 C221 0.950 . S
H217 C225 0.949 . S
H218 C226 0.950 . S
H219 C227 0.951 . S
H220 C228 0.951 . S
C221 C215 1.265 . S
C221 H216 0.950 . S
C221 C222 1.478 . S
C222 C221 1.478 . S
C222 C223 1.397 . S
C222 C239 1.394 . S
C223 C222 1.397 . S
C223 C224 1.438 . S
C223 C228 1.429 . S
C224 C223 1.438 . S
C224 C225 1.428 . S
C224 C237 1.394 . S
C225 H217 0.949 . S
C225 C224 1.428 . S
C225 C226 1.345 . S
C226 H218 0.950 . S
C226 C225 1.345 . S
C226 C227 1.424 . S
C227 H219 0.951 . S
C227 C226 1.424 . S
C227 C228 1.347 . S
C228 H220 0.951 . S
C228 C223 1.429 . S
C228 C227 1.347 . S
H229 C230 0.951 . S
C230 H229 0.951 . S
C230 C236 1.265 . S
H231 C236 0.950 . S
H232 C240 0.949 . S
H233 C241 0.950 . S
H234 C242 0.951 . S
H235 C243 0.951 . S
C236 C230 1.265 . S
C236 H231 0.950 . S
C236 C237 1.478 . S
C237 C224 1.394 . S
C237 C236 1.478 . S
C237 C238 1.397 . S
C238 C237 1.397 . S
C238 C239 1.438 . S
C238 C243 1.429 . S
C239 C222 1.394 . S
C239 C238 1.438 . S
C239 C240 1.428 . S
C240 H232 0.949 . S
C240 C239 1.428 . S
C240 C241 1.345 . S
C241 H233 0.950 . S
C241 C240 1.345 . S
C241 C242 1.424 . S
C242 H234 0.951 . S
C242 C241 1.424 . S
C242 C243 1.347 . S
C243 H235 0.951 . S
C243 C238 1.429 . S
C243 C242 1.347 . S
H244 C245 0.951 . S
C245 H244 0.951 . S
C245 C251 1.265 . S
H246 C251 0.950 . S
H247 C255 0.949 . S
H248 C256 0.950 . S
H249 C257 0.951 . S
H250 C258 0.951 . S
C251 C245 1.265 . S
C251 H246 0.950 . S
C251 C252 1.478 . S
C252 C251 1.478 . S
C252 C253 1.397 . S
C252 C269 1.394 . S
C253 C252 1.397 . S
C253 C254 1.438 . S
C253 C258 1.429 . S
C254 C253 1.438 . S
C254 C255 1.428 . S
C254 C267 1.394 . S
C255 H247 0.949 . S
C255 C254 1.428 . S
C255 C256 1.345 . S
C256 H248 0.950 . S
C256 C255 1.345 . S
C256 C257 1.424 . S
C257 H249 0.951 . S
C257 C256 1.424 . S
C257 C258 1.347 . S
C258 H250 0.951 . S
C258 C253 1.429 . S
C258 C257 1.347 . S
H259 C260 0.951 . S
C260 H259 0.951 . S
C260 C266 1.265 . S
H261 C266 0.950 . S
H262 C270 0.949 . S
H263 C271 0.950 . S
H264 C272 0.951 . S
H265 C273 0.951 . S
C266 C260 1.265 . S
C266 H261 0.950 . S
C266 C267 1.478 . S
C267 C254 1.394 . S
C267 C266 1.478 . S
C267 C268 1.397 . S
C268 C267 1.397 . S
C268 C269 1.438 . S
C268 C273 1.429 . S
C269 C252 1.394 . S
C269 C268 1.438 . S
C269 C270 1.428 . S
C270 H262 0.949 . S
C270 C269 1.428 . S
C270 C271 1.345 . S
C271 H263 0.950 . S
C271 C270 1.345 . S
C271 C272 1.424 . S
C272 H264 0.951 . S
C272 C271 1.424 . S
C272 C273 1.347 . S
C273 H265 0.951 . S
C273 C268 1.429 . S
C273 C272 1.347 . S
H274 C275 0.951 . S
C275 H274 0.951 . S
C275 C281 1.265 . S
H276 C281 0.950 . S
H277 C285 0.949 . S
H278 C286 0.950 . S
H279 C287 0.951 . S
H280 C288 0.951 . S
C281 C275 1.265 . S
C281 H276 0.950 . S
C281 C282 1.478 . S
C282 C281 1.478 . S
C282 C283 1.397 . S
C282 C299 1.394 . S
C283 C282 1.397 . S
C283 C284 1.438 . S
C283 C288 1.429 . S
C284 C283 1.438 . S
C284 C285 1.428 . S
C284 C297 1.394 . S
C285 H277 0.949 . S
C285 C284 1.428 . S
C285 C286 1.345 . S
C286 H278 0.950 . S
C286 C285 1.345 . S
C286 C287 1.424 . S
C287 H279 0.951 . S
C287 C286 1.424 . S
C287 C288 1.347 . S
C288 H280 0.951 . S
C288 C283 1.429 . S
C288 C287 1.347 . S
H289 C290 0.951 . S
C290 H289 0.951 . S
C290 C296 1.265 . S
H291 C296 0.950 . S
H292 C300 0.949 . S
H293 C301 0.950 . S
H294 C302 0.951 . S
H295 C303 0.951 . S
C296 C290 1.265 . S
C296 H291 0.950 . S
C296 C297 1.478 . S
C297 C284 1.394 . S
C297 C296 1.478 . S
C297 C298 1.397 . S
C298 C297 1.397 . S
C298 C299 1.438 . S
C298 C303 1.429 . S
C299 C282 1.394 . S
C299 C298 1.438 . S
C299 C300 1.428 . S
C300 H292 0.949 . S
C300 C299 1.428 . S
C300 C301 1.345 . S
C301 H293 0.950 . S
C301 C300 1.345 . S
C301 C302 1.424 . S
C302 H294 0.951 . S
C302 C301 1.424 . S
C302 C303 1.347 . S
C303 H295 0.951 . S
C303 C298 1.429 . S
C303 C302 1.347 . S
C65 C10 1.100 . S
C80 C53 1.092 . S
C95 C0 1.603 . S
C110 C52 1.683 . S
C125 C18 1.463 . S
C140 C58 1.455 . S
C155 C27 1.608 . S
C170 C59 1.529 . S
C185 C24 1.613 . S
C200 C56 1.718 . S
C230 C54 1.427 . S
C215 C11 1.487 . S
C245 C1 1.613 . S
C260 C55 1.524 . S
C290 C57 1.115 . S
C275 C2 1.178 . S
