# Generated by pormake.
# Topology llj, (12,3)-cn, num edge types: 1
# Building blocks:
#     Node 0, Type 0, BuildingBlock: QEWDON_clean_sbu_0, # of connection points: 12
#     Node 1, Type 0, BuildingBlock: QEWDON_clean_sbu_0, # of connection points: 12
#     Node 2, Type 1, BuildingBlock: WUSLED_clean_sbu_0, # of connection points: 3
#     Node 3, Type 1, BuildingBlock: WUSLED_clean_sbu_0, # of connection points: 3
#     Node 4, Type 1, BuildingBlock: WUSLED_clean_sbu_0, # of connection points: 3
#     Node 5, Type 1, BuildingBlock: WUSLED_clean_sbu_0, # of connection points: 3
#     Node 6, Type 1, BuildingBlock: WUSLED_clean_sbu_0, # of connection points: 3
#     Node 7, Type 1, BuildingBlock: WUSLED_clean_sbu_0, # of connection points: 3
#     Node 8, Type 1, BuildingBlock: WUSLED_clean_sbu_0, # of connection points: 3
#     Node 9, Type 1, BuildingBlock: WUSLED_clean_sbu_0, # of connection points: 3
#     Edge 10, Type (0, 1), None
#     Edge 11, Type (0, 1), None
#     Edge 12, Type (0, 1), None
#     Edge 13, Type (0, 1), None
#     Edge 14, Type (0, 1), None
#     Edge 15, Type (0, 1), None
#     Edge 16, Type (0, 1), None
#     Edge 17, Type (0, 1), None
#     Edge 18, Type (0, 1), None
#     Edge 19, Type (0, 1), None
#     Edge 20, Type (0, 1), None
#     Edge 21, Type (0, 1), None
#     Edge 22, Type (0, 1), None
#     Edge 23, Type (0, 1), None
#     Edge 24, Type (0, 1), None
#     Edge 25, Type (0, 1), None
#     Edge 26, Type (0, 1), None
#     Edge 27, Type (0, 1), None
#     Edge 28, Type (0, 1), None
#     Edge 29, Type (0, 1), None
#     Edge 30, Type (0, 1), None
#     Edge 31, Type (0, 1), None
#     Edge 32, Type (0, 1), None
#     Edge 33, Type (0, 1), None
# Relax obj value: 0.010
# Max RMSD: 0.057
# Mean RMSD: 0.052
data_MOF--net-llj--node1-QEWDON_clean_sbu_0--node2-WUSLED_clean_sbu_0--edge1-none
_symmetry_space_group_name_H-M    P1
_symmetry_Int_Tables_number       1
_symmetry_cell_setting            triclinic
loop_
_symmetry_equiv_pos_as_xyz
'x, y, z'
_cell_length_a     29.675684
_cell_length_b     29.647127
_cell_length_c     19.950239
_cell_angle_alpha  90.309099
_cell_angle_beta   90.575389
_cell_angle_gamma 90.152294
loop_
_atom_site_label
_atom_site_type_symbol
_atom_site_fract_x
_atom_site_fract_y
_atom_site_fract_z
_atom_type_partial_charge
Zn0 Zn 0.93347 0.10598 0.95213 0.0
Zn1 Zn 0.94548 0.10982 0.11493 0.0
O2 O 0.94787 0.06947 0.03481 0.0
H3 H 0.96477 0.04177 0.035 0.0
C4 C 0.85437 0.01302 0.86135 0.0
O5 O 0.84332 0.02268 0.92341 0.0
Zn6 Zn 0.06536 0.89031 0.12102 0.0
Zn7 Zn 0.05456 0.90419 0.96251 0.0
O8 O 0.04195 0.93391 0.05269 0.0
H9 H 0.03565 0.96539 0.06124 0.0
Zn10 Zn 0.89394 0.93943 0.93323 0.0
O11 O 0.93206 0.96407 0.0082 0.0
Zn12 Zn 0.90669 0.94738 0.09785 0.0
H13 H 0.96383 0.96852 1.00098 0.0
Zn14 Zn 0.11182 0.07715 0.9563 0.0
O15 O 0.07098 0.05773 0.03233 0.0
H16 H 0.04188 0.04358 0.02658 0.0
Zn17 Zn 0.1089 0.0577 0.11639 0.0
C18 C 0.15085 1.00313 0.88141 0.0
O19 O 0.16473 0.99404 0.94261 0.0
O20 O 0.90587 0.16615 0.9783 0.0
O21 O 0.91896 0.17357 0.08823 0.0
O22 O 0.09141 0.84589 0.96793 0.0
O23 O 0.0964 0.83433 0.07776 0.0
O24 O 0.84046 0.90602 0.9711 0.0
O25 O 0.84623 0.91018 0.08284 0.0
C26 C 0.0423 0.11551 0.19592 0.0
O27 O 0.16654 0.11182 0.99261 0.0
O28 O 0.17031 0.08856 0.09864 0.0
O29 O 0.01533 0.91219 0.87613 0.0
C30 C 0.90377 0.18908 0.03228 0.0
O31 O 0.97852 0.11319 0.87364 0.0
C32 C 0.97298 0.88502 0.18227 0.0
O33 O 0.87884 0.97873 0.85047 0.0
C34 C 0.10468 0.82221 0.01735 0.0
O35 O 0.12482 0.0366 0.87257 0.0
C36 C 0.88836 0.04052 0.18786 0.0
O37 O 0.01054 0.10733 0.15368 0.0
O38 O 0.08088 0.09769 0.18734 0.0
C39 C 0.82539 0.8973 0.02911 0.0
O40 O 0.01392 0.87177 0.18326 0.0
O41 O 0.95987 0.91101 0.13535 0.0
C42 C 0.12548 0.96125 0.1883 0.0
O43 O 0.90009 0.00948 0.14667 0.0
O44 O 0.90325 0.08069 0.18102 0.0
C45 C 0.18638 0.11102 0.0495 0.0
O46 O 0.11105 0.9911 0.14732 0.0
O47 O 0.11175 0.92063 0.18195 0.0
C48 C 0.98798 0.88066 0.86043 0.0
O49 O 0.98267 0.84705 0.90232 0.0
C50 C 0.00983 0.14173 0.88434 0.0
O51 O 0.01374 0.15985 0.9444 0.0
Zn52 Zn 0.43375 0.60589 0.45217 0.0
Zn53 Zn 0.44544 0.60978 0.61501 0.0
O54 O 0.44798 0.56939 0.53495 0.0
H55 H 0.46457 0.54156 0.53531 0.0
C56 C 0.35428 0.51275 0.36121 0.0
O57 O 0.3433 0.52249 0.42328 0.0
Zn58 Zn 0.56523 0.39031 0.62101 0.0
Zn59 Zn 0.55526 0.40481 0.46244 0.0
O60 O 0.54184 0.43395 0.55276 0.0
H61 H 0.53518 0.46532 0.56155 0.0
Zn62 Zn 0.39374 0.43916 0.4332 0.0
O63 O 0.43189 0.46386 0.50809 0.0
Zn64 Zn 0.40654 0.4473 0.59782 0.0
H65 H 0.46366 0.46835 0.50082 0.0
Zn66 Zn 0.61146 0.5771 0.45626 0.0
O67 O 0.57071 0.55765 0.53239 0.0
H68 H 0.5417 0.54338 0.52666 0.0
Zn69 Zn 0.60873 0.55763 0.61637 0.0
C70 C 0.65038 0.503 0.38139 0.0
O71 O 0.66418 0.49385 0.44262 0.0
O72 O 0.40605 0.66604 0.47818 0.0
O73 O 0.4189 0.6735 0.58817 0.0
O74 O 0.5921 0.3465 0.46792 0.0
O75 O 0.5963 0.33438 0.57768 0.0
O76 O 0.34024 0.40588 0.47119 0.0
O77 O 0.34603 0.41015 0.58292 0.0
C78 C 0.54228 0.6155 0.69613 0.0
O79 O 0.66621 0.61177 0.49244 0.0
O80 O 0.67012 0.58847 0.59845 0.0
O81 O 0.516 0.41255 0.37602 0.0
C82 C 0.40381 0.68898 0.53214 0.0
O83 O 0.47892 0.61306 0.37381 0.0
C84 C 0.47286 0.38498 0.68231 0.0
O85 O 0.37867 0.47841 0.35036 0.0
C86 C 0.60497 0.32254 0.51728 0.0
O87 O 0.62444 0.53654 0.37254 0.0
C88 C 0.38826 0.54045 0.6877 0.0
O89 O 0.51044 0.60738 0.654 0.0
O90 O 0.58082 0.59763 0.6874 0.0
C91 C 0.32517 0.39724 0.52923 0.0
O92 O 0.5138 0.37175 0.68327 0.0
O93 O 0.45971 0.41094 0.63538 0.0
C94 C 0.62535 0.4612 0.68831 0.0
O95 O 0.40005 0.50947 0.64645 0.0
O96 O 0.40314 0.58064 0.681 0.0
C97 C 0.68612 0.61094 0.54929 0.0
O98 O 0.61091 0.49104 0.64732 0.0
O99 O 0.61162 0.42058 0.68197 0.0
C100 C 0.48876 0.38091 0.3604 0.0
O101 O 0.4836 0.34732 0.40236 0.0
C102 C 0.51023 0.64159 0.38453 0.0
O103 O 0.5141 0.65975 0.44458 0.0
C104 C 0.39154 0.33179 0.84048 0.0
C105 C 0.43549 0.34734 0.85342 0.0
C106 C 0.44288 0.37072 0.73718 0.0
C107 C 0.461 0.36618 0.80217 0.0
C108 C 0.398 0.3576 0.72506 0.0
C109 C 0.37257 0.33796 0.77635 0.0
U110 U 0.37173 0.30336 0.0237 0.0
O111 O 0.31091 0.2851 0.07973 0.0
O112 O 0.36683 0.23717 0.07266 0.0
C113 C 0.32554 0.24429 0.09329 0.0
C114 C 0.36711 0.30615 0.89211 0.0
C115 C 0.29321 0.20744 0.08074 0.0
C116 C 0.24427 0.16487 1.00544 0.0
C117 C 0.27747 0.19783 0.0158 0.0
C118 C 0.2435 0.14948 0.12459 0.0
C119 C 0.22615 0.14092 0.05989 0.0
C120 C 0.2767 0.18253 0.13485 0.0
C121 C 0.43815 0.36713 0.15867 0.0
C122 C 0.43957 0.34234 0.27454 0.0
C123 C 0.48025 0.40979 0.24281 0.0
C124 C 0.46534 0.40408 0.17651 0.0
C125 C 0.46832 0.37842 0.29231 0.0
C126 C 0.42459 0.33677 0.20828 0.0
C127 C 0.42557 0.35962 0.08799 0.0
O128 O 0.3919 0.27706 0.92552 0.0
O129 O 0.34007 0.32945 0.93089 0.0
O130 O 0.38369 0.36939 0.07191 0.0
O131 O 0.43917 0.32118 0.06213 0.0
H132 H 0.45074 0.34336 0.9026 0.0
H133 H 0.49542 0.37631 0.81305 0.0
H134 H 0.3835 0.36015 0.6753 0.0
H135 H 0.3387 0.32617 0.7653 0.0
H136 H 0.23189 0.15914 0.95484 0.0
H137 H 0.29004 0.21657 0.97339 0.0
H138 H 0.23032 0.13187 0.16763 0.0
H139 H 0.2887 0.18944 0.18535 0.0
H140 H 0.42957 0.31767 0.3114 0.0
H141 H 0.50229 0.43795 0.25472 0.0
H142 H 0.47593 0.42796 0.13883 0.0
H143 H 0.40333 0.30817 0.19541 0.0
C144 C 0.7112 0.43276 0.21607 0.0
C145 C 0.68324 0.46998 0.20373 0.0
C146 C 0.6688 0.47747 0.32364 0.0
C147 C 0.6621 0.49216 0.25719 0.0
C148 C 0.69594 0.43943 0.33509 0.0
C149 C 0.71685 0.41736 0.28185 0.0
U150 U 0.74306 0.4074 0.03094 0.0
O151 O 0.81011 0.389 0.99264 0.0
O152 O 0.75436 0.34034 0.98644 0.0
C153 C 0.79763 0.34754 0.97781 0.0
C154 C 0.73553 0.40945 0.16216 0.0
C155 C 0.82857 0.31096 0.99874 0.0
C156 C 0.85196 0.25069 0.07486 0.0
C157 C 0.82507 0.28874 0.06077 0.0
C158 C 0.88709 0.25825 0.96654 0.0
C159 C 0.88229 0.23426 0.02678 0.0
C160 C 0.8607 0.29608 0.95285 0.0
C161 C 0.68674 0.46916 0.88167 0.0
C162 C 0.6859 0.43898 0.76825 0.0
C163 C 0.64151 0.5051 0.79388 0.0
C164 C 0.6577 0.50385 0.86039 0.0
C165 C 0.65389 0.47134 0.74801 0.0
C166 C 0.70223 0.43794 0.83429 0.0
C167 C 0.69546 0.46221 0.95413 0.0
O168 O 0.71127 0.3829 0.12309 0.0
O169 O 0.7654 0.43339 0.12943 0.0
O170 O 0.73603 0.47211 0.977 0.0
O171 O 0.67998 0.42405 0.97809 0.0
H172 H 0.67833 0.48218 0.1531 0.0
H173 H 0.64145 0.52139 0.24666 0.0
H174 H 0.70171 0.42704 0.38542 0.0
H175 H 0.7381 0.38849 0.29224 0.0
H176 H 0.84714 0.23271 0.12136 0.0
H177 H 0.80051 0.29978 0.09713 0.0
H178 H 0.91022 0.24663 0.92848 0.0
H179 H 0.86421 0.31273 0.90494 0.0
H180 H 0.6957 0.41224 0.73417 0.0
H181 H 0.61623 0.5298 0.7803 0.0
H182 H 0.64521 0.52825 0.89625 0.0
H183 H 0.72457 0.4109 0.84945 0.0
C184 C 0.58522 0.70016 0.2236 0.0
C185 C 0.55059 0.66917 0.20922 0.0
C186 C 0.53796 0.6589 0.32886 0.0
C187 C 0.52715 0.64857 0.26156 0.0
C188 C 0.57355 0.68906 0.34258 0.0
C189 C 0.59692 0.70944 0.29042 0.0
U190 U 0.61049 0.72988 0.03903 0.0
O191 O 0.62924 0.7961 0.99786 0.0
O192 O 0.67749 0.74008 0.99502 0.0
C193 C 0.67066 0.78335 0.98503 0.0
C194 C 0.60947 0.72378 0.17037 0.0
C195 C 0.70703 0.81496 1.00604 0.0
C196 C 0.77495 0.83448 0.07087 0.0
C197 C 0.73775 0.80574 0.05864 0.0
C198 C 0.74949 0.88272 0.98071 0.0
C199 C 0.78187 0.87249 0.03032 0.0
C200 C 0.71262 0.85442 0.96885 0.0
C201 C 0.54477 0.67432 0.89173 0.0
C202 C 0.57293 0.67104 0.77804 0.0
C203 C 0.50293 0.63328 0.80431 0.0
C204 C 0.50697 0.64885 0.8709 0.0
C205 C 0.53694 0.64276 0.75801 0.0
C206 C 0.57675 0.68678 0.84406 0.0
C207 C 0.55332 0.68293 0.96392 0.0
O208 O 0.63501 0.69855 0.1321 0.0
O209 O 0.58636 0.7541 0.13676 0.0
O210 O 0.54474 0.72375 0.9864 0.0
O211 O 0.59155 0.66685 0.98741 0.0
H212 H 0.54129 0.66152 0.15774 0.0
H213 H 0.4998 0.62561 0.24931 0.0
H214 H 0.58286 0.69766 0.39372 0.0
H215 H 0.62378 0.73309 0.30234 0.0
H216 H 0.79958 0.82551 0.10892 0.0
H217 H 0.73399 0.77557 0.08846 0.0
H218 H 0.75381 0.9118 0.94868 0.0
H219 H 0.68938 0.86246 0.92842 0.0
H220 H 0.59986 0.67857 0.7435 0.0
H221 H 0.47535 0.61092 0.79071 0.0
H222 H 0.48191 0.63879 0.90704 0.0
H223 H 0.60611 0.70639 0.85883 0.0
C224 C 0.29166 0.58473 0.19907 0.0
C225 C 0.31966 0.54784 0.18539 0.0
C226 C 0.33476 0.53876 0.30489 0.0
C227 C 0.34112 0.52499 0.23797 0.0
C228 C 0.30739 0.57638 0.31788 0.0
C229 C 0.28605 0.59912 0.26539 0.0
U230 U 0.26416 0.60667 0.01369 0.0
O231 O 0.19955 0.62641 0.96721 0.0
O232 O 0.25762 0.67221 0.96328 0.0
C233 C 0.21429 0.66679 0.95144 0.0
C234 C 0.26812 0.60888 0.14518 0.0
C235 C 0.18514 0.70497 0.9706 0.0
C236 C 0.15436 0.757 0.05356 0.0
C237 C 0.18124 0.7195 0.03752 0.0
C238 C 0.13475 0.76512 0.93615 0.0
C239 C 0.13114 0.78062 1.00281 0.0
C240 C 0.16136 0.72781 0.92037 0.0
C241 C 0.32219 0.53786 0.87535 0.0
C242 C 0.32654 0.5655 0.76147 0.0
C243 C 0.36931 0.4994 0.79336 0.0
C244 C 0.35132 0.50234 0.85816 0.0
C245 C 0.35862 0.53234 0.74551 0.0
C246 C 0.30838 0.56818 0.82568 0.0
C247 C 0.31176 0.54701 0.9463 0.0
O248 O 0.29388 0.63372 0.10691 0.0
O249 O 0.2377 0.58555 0.11131 0.0
O250 O 0.27005 0.53971 0.96518 0.0
O251 O 0.3282 0.58524 0.96969 0.0
H252 H 0.32454 0.53652 0.13425 0.0
H253 H 0.36198 0.49612 0.22628 0.0
H254 H 0.30188 0.58796 0.36872 0.0
H255 H 0.26477 0.62778 0.27667 0.0
H256 H 0.15245 0.76794 0.10531 0.0
H257 H 0.19934 0.70218 0.07713 0.0
H258 H 0.11728 0.78211 0.89561 0.0
H259 H 0.16377 0.71707 0.86852 0.0
H260 H 0.31802 0.59152 0.72559 0.0
H261 H 0.3945 0.47401 0.78275 0.0
H262 H 0.36247 0.47865 0.89599 0.0
H263 H 0.28602 0.59581 0.83786 0.0
C264 C 0.89153 0.83172 0.3402 0.0
C265 C 0.93545 0.84731 0.35326 0.0
C266 C 0.94296 0.87072 0.23706 0.0
C267 C 0.961 0.86619 0.30209 0.0
C268 C 0.89811 0.85756 0.22481 0.0
C269 C 0.87263 0.83788 0.27601 0.0
U270 U 0.8715 0.80331 0.52335 0.0
O271 O 0.81063 0.78503 0.57924 0.0
O272 O 0.86658 0.73712 0.57233 0.0
C273 C 0.82527 0.74423 0.59288 0.0
C274 C 0.86705 0.80607 0.39175 0.0
C275 C 0.79297 0.70736 0.58035 0.0
C276 C 0.74397 0.6648 0.50512 0.0
C277 C 0.77717 0.69777 0.51543 0.0
C278 C 0.74332 0.64937 0.62427 0.0
C279 C 0.72591 0.64084 0.55958 0.0
C280 C 0.77653 0.68243 0.63447 0.0
C281 C 0.93766 0.8671 0.65852 0.0
C282 C 0.93879 0.84229 0.77438 0.0
C283 C 0.97971 0.90963 0.74285 0.0
C284 C 0.96491 0.90398 0.67649 0.0
C285 C 0.96761 0.87827 0.79228 0.0
C286 C 0.92392 0.83677 0.70806 0.0
C287 C 0.92521 0.85961 0.58779 0.0
O288 O 0.89181 0.77701 0.42524 0.0
O289 O 0.83993 0.82935 0.43044 0.0
O290 O 0.88335 0.86935 0.57156 0.0
O291 O 0.93888 0.82119 0.56196 0.0
H292 H 0.95064 0.84334 0.40249 0.0
H293 H 0.9954 0.87635 0.31306 0.0
H294 H 0.88366 0.86009 0.175 0.0
H295 H 0.83879 0.82606 0.26487 0.0
H296 H 0.73154 0.65909 0.45453 0.0
H297 H 0.78969 0.71653 0.47302 0.0
H298 H 0.7302 0.63175 0.66731 0.0
H299 H 0.78857 0.68932 0.68496 0.0
H300 H 0.92867 0.81762 0.81118 0.0
H301 H 1.00181 0.93772 0.75487 0.0
H302 H 0.97564 0.92783 0.63887 0.0
H303 H 0.90261 0.80823 0.69508 0.0
C304 C 0.21153 0.93281 0.71604 0.0
C305 C 0.18351 0.96999 0.70371 0.0
C306 C 0.16924 0.97758 0.82365 0.0
C307 C 0.16242 0.9922 0.75719 0.0
C308 C 0.19644 0.93959 0.83509 0.0
C309 C 0.2173 0.91749 0.78183 0.0
U310 U 0.2432 0.90739 0.53085 0.0
O311 O 0.31019 0.8889 0.49243 0.0
O312 O 0.25438 0.84031 0.48635 0.0
C313 C 0.29765 0.84746 0.47762 0.0
C314 C 0.23578 0.90946 0.66209 0.0
C315 C 0.32856 0.81084 0.4985 0.0
C316 C 0.35206 0.75066 0.57471 0.0
C317 C 0.32517 0.78872 0.56062 0.0
C318 C 0.38696 0.75802 0.46618 0.0
C319 C 0.38227 0.73413 0.52654 0.0
C320 C 0.36057 0.79586 0.45249 0.0
C321 C 0.18688 0.9692 0.38165 0.0
C322 C 0.18603 0.93902 0.26823 0.0
C323 C 0.14164 0.00514 0.29387 0.0
C324 C 0.15785 1.00389 0.36037 0.0
C325 C 0.15402 0.97138 0.248 0.0
C326 C 0.20237 0.93797 0.33427 0.0
C327 C 0.19562 0.96226 0.4541 0.0
O328 O 0.21145 0.88295 0.62306 0.0
O329 O 0.26566 0.93336 0.6293 0.0
O330 O 0.23622 0.97211 0.47692 0.0
O331 O 0.18011 0.92412 0.47809 0.0
H332 H 0.17851 0.98214 0.65307 0.0
H333 H 0.14172 0.0214 0.74666 0.0
H334 H 0.20231 0.92726 0.88543 0.0
H335 H 0.2386 0.88866 0.79221 0.0
H336 H 0.34734 0.73276 0.6213 0.0
H337 H 0.30072 0.79984 0.59707 0.0
H338 H 0.41 0.74634 0.42806 0.0
H339 H 0.364 0.81243 0.40452 0.0
H340 H 0.19582 0.91228 0.23415 0.0
H341 H 0.11637 0.02984 0.28029 0.0
H342 H 0.14536 0.02829 0.39624 0.0
H343 H 0.2247 0.91094 0.34942 0.0
C344 C 0.08481 0.20029 0.72339 0.0
C345 C 0.05016 0.16931 0.70902 0.0
C346 C 0.03754 0.15904 0.82865 0.0
C347 C 0.02672 0.14871 0.76136 0.0
C348 C 0.07313 0.1892 0.84237 0.0
C349 C 0.0965 0.20957 0.79021 0.0
U350 U 0.11017 0.22997 0.53883 0.0
O351 O 0.12897 0.29618 0.49768 0.0
O352 O 0.1772 0.24014 0.4949 0.0
C353 C 0.1704 0.28342 0.48494 0.0
C354 C 0.10908 0.22389 0.67016 0.0
C355 C 0.20676 0.31501 0.50608 0.0
C356 C 0.27475 0.33438 0.57086 0.0
C357 C 0.23754 0.30566 0.55854 0.0
C358 C 0.24917 0.38285 0.48105 0.0
C359 C 0.28161 0.37249 0.5305 0.0
C360 C 0.2123 0.35458 0.4691 0.0
C361 C 0.04452 0.17438 0.39146 0.0
C362 C 0.07271 0.1712 0.27779 0.0
C363 C 1.00284 0.13319 0.30404 0.0
C364 C 0.00681 0.14878 0.37063 0.0
C365 C 0.03683 0.14279 0.25775 0.0
C366 C 0.07647 0.18696 0.3438 0.0
C367 C 0.05304 0.18301 0.46366 0.0
O368 O 0.13463 0.19864 0.63193 0.0
O369 O 0.08598 0.2542 0.63651 0.0
O370 O 0.04445 0.22384 0.48611 0.0
O371 O 0.09125 0.16693 0.4872 0.0
H372 H 0.04086 0.16165 0.65754 0.0
H373 H 0.99937 0.12575 0.74912 0.0
H374 H 0.08245 0.19781 0.89351 0.0
H375 H 0.12337 0.23321 0.80212 0.0
H376 H 0.29942 0.3253 0.60876 0.0
H377 H 0.23382 0.2754 0.5882 0.0
H378 H 0.25347 0.41202 0.44915 0.0
H379 H 0.18902 0.36271 0.42878 0.0
H380 H 0.09962 0.17882 0.24326 0.0
H381 H 0.97535 0.11072 0.29043 0.0
H382 H 0.98178 0.13863 0.40676 0.0
H383 H 0.10576 0.20667 0.35858 0.0
C384 C 0.79173 0.085 0.69922 0.0
C385 C 0.81981 0.04817 0.68553 0.0
C386 C 0.83484 0.03903 0.80503 0.0
C387 C 0.84128 0.02532 0.73811 0.0
C388 C 0.80739 0.07659 0.81804 0.0
C389 C 0.78604 0.09933 0.76555 0.0
U390 U 0.76427 0.1069 0.51383 0.0
O391 O 0.69969 0.12666 0.4673 0.0
O392 O 0.75779 0.17242 0.46334 0.0
C393 C 0.71446 0.16702 0.45148 0.0
C394 C 0.7682 0.10916 0.64532 0.0
C395 C 0.68534 0.20523 0.47057 0.0
C396 C 0.65415 0.25698 0.55356 0.0
C397 C 0.681 0.21945 0.53757 0.0
C398 C 0.63547 0.26578 0.43595 0.0
C399 C 0.63141 0.28094 0.50271 0.0
C400 C 0.66204 0.22843 0.4202 0.0
C401 C 0.82232 0.03806 0.37557 0.0
C402 C 0.82674 0.06572 0.26171 0.0
C403 C 0.86938 0.99953 0.29357 0.0
C404 C 0.85139 1.00249 0.35837 0.0
C405 C 0.85876 0.03249 0.24573 0.0
C406 C 0.80858 0.06841 0.32591 0.0
C407 C 0.81187 0.04721 0.44652 0.0
O408 O 0.79397 0.13398 0.60705 0.0
O409 O 0.73778 0.08582 0.61145 0.0
O410 O 0.77016 0.03992 0.46537 0.0
O411 O 0.82832 0.08543 0.46991 0.0
H412 H 0.82475 0.0369 0.63438 0.0
H413 H 0.8622 0.99651 0.7264 0.0
H414 H 0.80181 0.08812 0.86889 0.0
H415 H 0.7647 0.12794 0.77684 0.0
H416 H 0.6519 0.26767 0.6054 0.0
H417 H 0.69873 0.20186 0.57727 0.0
H418 H 0.61837 0.28303 0.39532 0.0
H419 H 0.6648 0.21794 0.36828 0.0
H420 H 0.81826 0.09175 0.22583 0.0
H421 H 0.89451 0.97409 0.28295 0.0
H422 H 0.86249 0.97878 0.39619 0.0
H423 H 0.78626 0.09608 0.33809 0.0
loop_
_geom_bond_atom_site_label_1
_geom_bond_atom_site_label_2
_geom_bond_distance
_geom_bond_site_symmetry_2
_ccdc_geom_bond_type
Zn0 O2 1.933 1_556 S
Zn0 O20 1.985 . S
Zn0 O31 1.955 . S
Zn1 O2 1.911 . S
Zn1 O21 1.970 . S
Zn1 O37 1.945 . S
Zn1 O44 1.981 . S
O2 Zn0 1.933 1_554 S
O2 Zn1 1.911 . S
O2 H3 0.841 1_655 S
H3 O2 0.841 1_455 S
C4 O5 1.246 . S
C4 O33 1.276 1_545 S
O5 C4 1.246 . S
Zn6 O8 1.911 . S
Zn6 O23 1.970 . S
Zn6 O40 1.945 . S
Zn6 O47 1.981 . S
Zn7 O8 1.933 1_556 S
Zn7 O22 1.985 . S
Zn7 O29 1.955 . S
O8 Zn6 1.911 . S
O8 Zn7 1.933 1_554 S
O8 H9 0.841 1_455 S
H9 O8 0.841 1_655 S
Zn10 O11 1.933 1_556 S
Zn10 O24 1.985 . S
Zn10 O33 1.955 . S
O11 Zn10 1.933 1_554 S
O11 Zn12 1.911 . S
O11 H13 0.841 1_565 S
Zn12 O11 1.911 . S
Zn12 O25 1.970 . S
Zn12 O41 1.981 . S
Zn12 O43 1.945 . S
H13 O11 0.841 1_545 S
Zn14 O15 1.933 1_556 S
Zn14 O27 1.985 . S
Zn14 O35 1.955 . S
O15 Zn14 1.933 1_554 S
O15 H16 0.841 1_545 S
O15 Zn17 1.911 . S
H16 O15 0.841 1_565 S
Zn17 O15 1.911 . S
Zn17 O28 1.970 . S
Zn17 O38 1.981 . S
Zn17 O46 1.945 . S
C18 O19 1.246 . S
C18 O35 1.276 1_565 S
O19 C18 1.246 . S
O20 Zn0 1.985 . S
O20 C30 1.245 1_556 S
O21 Zn1 1.970 . S
O21 C30 1.263 . S
O22 Zn7 1.985 . S
O22 C34 1.245 1_556 S
O23 Zn6 1.970 . S
O23 C34 1.263 . S
O24 Zn10 1.985 . S
O24 C39 1.245 1_556 S
O25 Zn12 1.970 . S
O25 C39 1.263 . S
C26 O37 1.262 1_455 S
C26 O38 1.245 . S
O27 Zn14 1.985 . S
O27 C45 1.245 1_556 S
O28 Zn17 1.970 . S
O28 C45 1.263 . S
O29 Zn7 1.955 . S
O29 C48 1.276 1_455 S
C30 O20 1.245 1_554 S
C30 O21 1.263 . S
O31 Zn0 1.955 . S
O31 C50 1.276 1_655 S
C32 O40 1.262 1_655 S
C32 O41 1.245 . S
O33 C4 1.276 1_565 S
O33 Zn10 1.955 . S
C34 O22 1.245 1_554 S
C34 O23 1.263 . S
O35 Zn14 1.955 . S
O35 C18 1.276 1_545 S
C36 O43 1.262 1_545 S
C36 O44 1.245 . S
O37 Zn1 1.945 . S
O37 C26 1.262 1_655 S
O38 Zn17 1.981 . S
O38 C26 1.245 . S
C39 O24 1.245 1_554 S
C39 O25 1.263 . S
O40 Zn6 1.945 . S
O40 C32 1.262 1_455 S
O41 Zn12 1.981 . S
O41 C32 1.245 . S
C42 O46 1.262 1_565 S
C42 O47 1.245 . S
O43 Zn12 1.945 . S
O43 C36 1.262 1_565 S
O44 Zn1 1.981 . S
O44 C36 1.245 . S
C45 O27 1.245 1_554 S
C45 O28 1.263 . S
O46 Zn17 1.945 . S
O46 C42 1.262 1_545 S
O47 Zn6 1.981 . S
O47 C42 1.245 . S
C48 O29 1.276 1_655 S
C48 O49 1.246 . S
O49 C48 1.246 . S
C50 O31 1.276 1_455 S
C50 O51 1.246 . S
O51 C50 1.246 . S
Zn52 O54 1.933 . S
Zn52 O72 1.985 . S
Zn52 O83 1.955 . S
Zn53 O54 1.911 . S
Zn53 O73 1.970 . S
Zn53 O89 1.945 . S
Zn53 O96 1.981 . S
O54 Zn52 1.933 . S
O54 Zn53 1.911 . S
O54 H55 0.841 . S
H55 O54 0.841 . S
C56 O57 1.246 . S
C56 O85 1.276 . S
O57 C56 1.246 . S
Zn58 O60 1.911 . S
Zn58 O75 1.970 . S
Zn58 O92 1.945 . S
Zn58 O99 1.981 . S
Zn59 O60 1.933 . S
Zn59 O74 1.985 . S
Zn59 O81 1.955 . S
O60 Zn58 1.911 . S
O60 Zn59 1.933 . S
O60 H61 0.841 . S
H61 O60 0.841 . S
Zn62 O63 1.933 . S
Zn62 O76 1.985 . S
Zn62 O85 1.955 . S
O63 Zn62 1.933 . S
O63 Zn64 1.911 . S
O63 H65 0.841 . S
Zn64 O63 1.911 . S
Zn64 O77 1.970 . S
Zn64 O93 1.981 . S
Zn64 O95 1.945 . S
H65 O63 0.841 . S
Zn66 O67 1.933 . S
Zn66 O79 1.985 . S
Zn66 O87 1.955 . S
O67 Zn66 1.933 . S
O67 H68 0.841 . S
O67 Zn69 1.911 . S
H68 O67 0.841 . S
Zn69 O67 1.911 . S
Zn69 O80 1.970 . S
Zn69 O90 1.981 . S
Zn69 O98 1.945 . S
C70 O71 1.246 . S
C70 O87 1.276 . S
O71 C70 1.246 . S
O72 Zn52 1.985 . S
O72 C82 1.245 . S
O73 Zn53 1.970 . S
O73 C82 1.263 . S
O74 Zn59 1.985 . S
O74 C86 1.245 . S
O75 Zn58 1.970 . S
O75 C86 1.263 . S
O76 Zn62 1.985 . S
O76 C91 1.245 . S
O77 Zn64 1.970 . S
O77 C91 1.263 . S
C78 O89 1.262 . S
C78 O90 1.245 . S
O79 Zn66 1.985 . S
O79 C97 1.245 . S
O80 Zn69 1.970 . S
O80 C97 1.263 . S
O81 Zn59 1.955 . S
O81 C100 1.276 . S
C82 O72 1.245 . S
C82 O73 1.263 . S
O83 Zn52 1.955 . S
O83 C102 1.276 . S
C84 O92 1.262 . S
C84 O93 1.245 . S
O85 C56 1.276 . S
O85 Zn62 1.955 . S
C86 O74 1.245 . S
C86 O75 1.263 . S
O87 Zn66 1.955 . S
O87 C70 1.276 . S
C88 O95 1.262 . S
C88 O96 1.245 . S
O89 Zn53 1.945 . S
O89 C78 1.262 . S
O90 Zn69 1.981 . S
O90 C78 1.245 . S
C91 O76 1.245 . S
C91 O77 1.263 . S
O92 Zn58 1.945 . S
O92 C84 1.262 . S
O93 Zn64 1.981 . S
O93 C84 1.245 . S
C94 O98 1.262 . S
C94 O99 1.245 . S
O95 Zn64 1.945 . S
O95 C88 1.262 . S
O96 Zn53 1.981 . S
O96 C88 1.245 . S
C97 O79 1.245 . S
C97 O80 1.263 . S
O98 Zn69 1.945 . S
O98 C94 1.262 . S
O99 Zn58 1.981 . S
O99 C94 1.245 . S
C100 O81 1.276 . S
C100 O101 1.246 . S
O101 C100 1.246 . S
C102 O83 1.276 . S
C102 O103 1.246 . S
O103 C102 1.246 . S
C104 C105 1.264 . S
C104 C109 1.479 . S
C104 C114 1.465 . S
C105 C104 1.264 . S
C105 C107 1.339 . S
C105 H132 0.931 . S
C106 C107 1.395 . S
C106 C108 1.320 . S
C107 C105 1.339 . S
C107 C106 1.395 . S
C107 H133 0.929 . S
C108 C106 1.320 . S
C108 C109 1.405 . S
C108 H134 0.930 . S
C109 C104 1.479 . S
C109 C108 1.405 . S
C109 H135 0.931 . S
U110 O111 2.454 1_554 S
U110 O112 2.458 . S
U110 C113 2.984 . S
U110 C114 2.847 1_554 S
U110 C127 2.882 . S
U110 O128 2.441 1_554 S
U110 O129 2.420 1_554 S
U110 O130 2.455 . S
U110 O131 2.449 . S
O111 U110 2.454 1_556 S
O111 C113 1.353 1_556 S
O112 U110 2.458 . S
O112 C113 1.286 . S
C113 U110 2.984 . S
C113 O111 1.353 1_554 S
C113 O112 1.286 . S
C113 C115 1.363 . S
C114 C104 1.465 . S
C114 U110 2.847 1_556 S
C114 O128 1.249 . S
C114 O129 1.202 . S
C115 C113 1.363 . S
C115 C117 1.408 1_554 S
C115 C120 1.342 . S
C116 C117 1.310 . S
C116 C119 1.461 1_556 S
C116 H136 0.932 . S
C117 C115 1.408 1_556 S
C117 C116 1.310 . S
C117 H137 0.930 . S
C118 C119 1.474 . S
C118 C120 1.285 . S
C118 H138 0.929 . S
C119 C116 1.461 1_554 S
C119 C118 1.474 . S
C120 C115 1.342 . S
C120 C118 1.285 . S
C120 H139 0.930 . S
C121 C124 1.424 . S
C121 C126 1.245 . S
C121 C127 1.428 . S
C122 C125 1.260 . S
C122 C126 1.477 . S
C122 H140 0.932 . S
C123 C124 1.384 . S
C123 C125 1.479 . S
C123 H141 0.929 . S
C124 C121 1.424 . S
C124 C123 1.384 . S
C124 H142 0.928 . S
C125 C122 1.260 . S
C125 C123 1.479 . S
C126 C121 1.245 . S
C126 C122 1.477 . S
C126 H143 0.932 . S
C127 U110 2.882 . S
C127 C121 1.428 . S
C127 O130 1.301 . S
C127 O131 1.282 . S
O128 U110 2.441 1_556 S
O128 C114 1.249 . S
O129 U110 2.420 1_556 S
O129 C114 1.202 . S
O130 U110 2.455 . S
O130 C127 1.301 . S
O131 U110 2.449 . S
O131 C127 1.282 . S
H132 C105 0.931 . S
H133 C107 0.929 . S
H134 C108 0.930 . S
H135 C109 0.931 . S
H136 C116 0.932 . S
H137 C117 0.930 . S
H138 C118 0.929 . S
H139 C120 0.930 . S
H140 C122 0.932 . S
H141 C123 0.929 . S
H142 C124 0.928 . S
H143 C126 0.932 . S
C144 C145 1.264 . S
C144 C149 1.479 . S
C144 C154 1.465 . S
C145 C144 1.264 . S
C145 C147 1.339 . S
C145 H172 0.931 . S
C146 C147 1.395 . S
C146 C148 1.320 . S
C147 C145 1.339 . S
C147 C146 1.395 . S
C147 H173 0.929 . S
C148 C146 1.320 . S
C148 C149 1.405 . S
C148 H174 0.930 . S
C149 C144 1.479 . S
C149 C148 1.405 . S
C149 H175 0.931 . S
U150 O151 2.454 . S
U150 O152 2.458 1_554 S
U150 C153 2.984 . S
U150 C154 2.847 . S
U150 C167 2.882 1_554 S
U150 O168 2.441 . S
U150 O169 2.420 . S
U150 O170 2.455 1_554 S
U150 O171 2.449 1_554 S
O151 U150 2.454 . S
O151 C153 1.353 . S
O152 U150 2.458 1_556 S
O152 C153 1.286 1_556 S
C153 U150 2.984 . S
C153 O151 1.353 . S
C153 O152 1.286 1_554 S
C153 C155 1.363 . S
C154 C144 1.465 . S
C154 U150 2.847 . S
C154 O168 1.249 . S
C154 O169 1.202 . S
C155 C153 1.363 . S
C155 C157 1.408 . S
C155 C160 1.342 1_554 S
C156 C157 1.310 . S
C156 C159 1.461 . S
C156 H176 0.932 . S
C157 C155 1.408 . S
C157 C156 1.310 . S
C157 H177 0.930 . S
C158 C159 1.474 1_556 S
C158 C160 1.285 . S
C158 H178 0.929 . S
C159 C156 1.461 . S
C159 C158 1.474 1_554 S
C160 C155 1.342 1_556 S
C160 C158 1.285 . S
C160 H179 0.930 . S
C161 C164 1.424 . S
C161 C166 1.245 . S
C161 C167 1.428 . S
C162 C165 1.260 . S
C162 C166 1.477 . S
C162 H180 0.932 . S
C163 C164 1.384 . S
C163 C165 1.479 . S
C163 H181 0.929 . S
C164 C161 1.424 . S
C164 C163 1.384 . S
C164 H182 0.928 . S
C165 C162 1.260 . S
C165 C163 1.479 . S
C166 C161 1.245 . S
C166 C162 1.477 . S
C166 H183 0.932 . S
C167 U150 2.882 1_556 S
C167 C161 1.428 . S
C167 O170 1.301 . S
C167 O171 1.282 . S
O168 U150 2.441 . S
O168 C154 1.249 . S
O169 U150 2.420 . S
O169 C154 1.202 . S
O170 U150 2.455 1_556 S
O170 C167 1.301 . S
O171 U150 2.449 1_556 S
O171 C167 1.282 . S
H172 C145 0.931 . S
H173 C147 0.929 . S
H174 C148 0.930 . S
H175 C149 0.931 . S
H176 C156 0.932 . S
H177 C157 0.930 . S
H178 C158 0.929 . S
H179 C160 0.930 . S
H180 C162 0.932 . S
H181 C163 0.929 . S
H182 C164 0.928 . S
H183 C166 0.932 . S
C184 C185 1.264 . S
C184 C189 1.479 . S
C184 C194 1.465 . S
C185 C184 1.264 . S
C185 C187 1.339 . S
C185 H212 0.931 . S
C186 C187 1.395 . S
C186 C188 1.320 . S
C187 C185 1.339 . S
C187 C186 1.395 . S
C187 H213 0.929 . S
C188 C186 1.320 . S
C188 C189 1.405 . S
C188 H214 0.930 . S
C189 C184 1.479 . S
C189 C188 1.405 . S
C189 H215 0.931 . S
U190 O191 2.454 . S
U190 O192 2.458 1_554 S
U190 C193 2.984 . S
U190 C194 2.847 . S
U190 C207 2.882 1_554 S
U190 O208 2.441 . S
U190 O209 2.420 . S
U190 O210 2.455 1_554 S
U190 O211 2.449 1_554 S
O191 U190 2.454 . S
O191 C193 1.353 . S
O192 U190 2.458 1_556 S
O192 C193 1.286 1_556 S
C193 U190 2.984 . S
C193 O191 1.353 . S
C193 O192 1.286 1_554 S
C193 C195 1.363 . S
C194 C184 1.465 . S
C194 U190 2.847 . S
C194 O208 1.249 . S
C194 O209 1.202 . S
C195 C193 1.363 . S
C195 C197 1.408 . S
C195 C200 1.342 1_554 S
C196 C197 1.310 . S
C196 C199 1.461 . S
C196 H216 0.932 . S
C197 C195 1.408 . S
C197 C196 1.310 . S
C197 H217 0.930 . S
C198 C199 1.474 1_556 S
C198 C200 1.285 . S
C198 H218 0.929 . S
C199 C196 1.461 . S
C199 C198 1.474 1_554 S
C200 C195 1.342 1_556 S
C200 C198 1.285 . S
C200 H219 0.930 . S
C201 C204 1.424 . S
C201 C206 1.245 . S
C201 C207 1.428 . S
C202 C205 1.260 . S
C202 C206 1.477 . S
C202 H220 0.932 . S
C203 C204 1.384 . S
C203 C205 1.479 . S
C203 H221 0.929 . S
C204 C201 1.424 . S
C204 C203 1.384 . S
C204 H222 0.928 . S
C205 C202 1.260 . S
C205 C203 1.479 . S
C206 C201 1.245 . S
C206 C202 1.477 . S
C206 H223 0.932 . S
C207 U190 2.882 1_556 S
C207 C201 1.428 . S
C207 O210 1.301 . S
C207 O211 1.282 . S
O208 U190 2.441 . S
O208 C194 1.249 . S
O209 U190 2.420 . S
O209 C194 1.202 . S
O210 U190 2.455 1_556 S
O210 C207 1.301 . S
O211 U190 2.449 1_556 S
O211 C207 1.282 . S
H212 C185 0.931 . S
H213 C187 0.929 . S
H214 C188 0.930 . S
H215 C189 0.931 . S
H216 C196 0.932 . S
H217 C197 0.930 . S
H218 C198 0.929 . S
H219 C200 0.930 . S
H220 C202 0.932 . S
H221 C203 0.929 . S
H222 C204 0.928 . S
H223 C206 0.932 . S
C224 C225 1.264 . S
C224 C229 1.479 . S
C224 C234 1.465 . S
C225 C224 1.264 . S
C225 C227 1.339 . S
C225 H252 0.931 . S
C226 C227 1.395 . S
C226 C228 1.320 . S
C227 C225 1.339 . S
C227 C226 1.395 . S
C227 H253 0.929 . S
C228 C226 1.320 . S
C228 C229 1.405 . S
C228 H254 0.930 . S
C229 C224 1.479 . S
C229 C228 1.405 . S
C229 H255 0.931 . S
U230 O231 2.454 . S
U230 O232 2.458 1_554 S
U230 C233 2.984 . S
U230 C234 2.847 . S
U230 C247 2.882 1_554 S
U230 O248 2.441 . S
U230 O249 2.420 . S
U230 O250 2.455 1_554 S
U230 O251 2.449 1_554 S
O231 U230 2.454 . S
O231 C233 1.353 . S
O232 U230 2.458 1_556 S
O232 C233 1.286 1_556 S
C233 U230 2.984 . S
C233 O231 1.353 . S
C233 O232 1.286 1_554 S
C233 C235 1.363 . S
C234 C224 1.465 . S
C234 U230 2.847 . S
C234 O248 1.249 . S
C234 O249 1.202 . S
C235 C233 1.363 . S
C235 C237 1.408 . S
C235 C240 1.342 1_554 S
C236 C237 1.310 . S
C236 C239 1.461 . S
C236 H256 0.932 . S
C237 C235 1.408 . S
C237 C236 1.310 . S
C237 H257 0.930 . S
C238 C239 1.474 1_556 S
C238 C240 1.285 . S
C238 H258 0.929 . S
C239 C236 1.461 . S
C239 C238 1.474 1_554 S
C240 C235 1.342 1_556 S
C240 C238 1.285 . S
C240 H259 0.930 . S
C241 C244 1.424 . S
C241 C246 1.245 . S
C241 C247 1.428 . S
C242 C245 1.260 . S
C242 C246 1.477 . S
C242 H260 0.932 . S
C243 C244 1.384 . S
C243 C245 1.479 . S
C243 H261 0.929 . S
C244 C241 1.424 . S
C244 C243 1.384 . S
C244 H262 0.928 . S
C245 C242 1.260 . S
C245 C243 1.479 . S
C246 C241 1.245 . S
C246 C242 1.477 . S
C246 H263 0.932 . S
C247 U230 2.882 1_556 S
C247 C241 1.428 . S
C247 O250 1.301 . S
C247 O251 1.282 . S
O248 U230 2.441 . S
O248 C234 1.249 . S
O249 U230 2.420 . S
O249 C234 1.202 . S
O250 U230 2.455 1_556 S
O250 C247 1.301 . S
O251 U230 2.449 1_556 S
O251 C247 1.282 . S
H252 C225 0.931 . S
H253 C227 0.929 . S
H254 C228 0.930 . S
H255 C229 0.931 . S
H256 C236 0.932 . S
H257 C237 0.930 . S
H258 C238 0.929 . S
H259 C240 0.930 . S
H260 C242 0.932 . S
H261 C243 0.929 . S
H262 C244 0.928 . S
H263 C246 0.932 . S
C264 C265 1.264 . S
C264 C269 1.479 . S
C264 C274 1.465 . S
C265 C264 1.264 . S
C265 C267 1.339 . S
C265 H292 0.931 . S
C266 C267 1.395 . S
C266 C268 1.320 . S
C267 C265 1.339 . S
C267 C266 1.395 . S
C267 H293 0.931 . S
C268 C266 1.320 . S
C268 C269 1.405 . S
C268 H294 0.930 . S
C269 C264 1.479 . S
C269 C268 1.405 . S
C269 H295 0.931 . S
U270 O271 2.454 . S
U270 O272 2.458 . S
U270 C273 2.984 . S
U270 C274 2.847 . S
U270 C287 2.882 . S
U270 O288 2.441 . S
U270 O289 2.420 . S
U270 O290 2.455 . S
U270 O291 2.449 . S
O271 U270 2.454 . S
O271 C273 1.353 . S
O272 U270 2.458 . S
O272 C273 1.286 . S
C273 U270 2.984 . S
C273 O271 1.353 . S
C273 O272 1.286 . S
C273 C275 1.363 . S
C274 C264 1.465 . S
C274 U270 2.847 . S
C274 O288 1.249 . S
C274 O289 1.202 . S
C275 C273 1.363 . S
C275 C277 1.408 . S
C275 C280 1.342 . S
C276 C277 1.310 . S
C276 C279 1.461 . S
C276 H296 0.932 . S
C277 C275 1.408 . S
C277 C276 1.310 . S
C277 H297 0.930 . S
C278 C279 1.474 . S
C278 C280 1.285 . S
C278 H298 0.929 . S
C279 C276 1.461 . S
C279 C278 1.474 . S
C280 C275 1.342 . S
C280 C278 1.285 . S
C280 H299 0.930 . S
C281 C284 1.424 . S
C281 C286 1.245 . S
C281 C287 1.428 . S
C282 C285 1.260 . S
C282 C286 1.477 . S
C282 H300 0.932 . S
C283 C284 1.384 . S
C283 C285 1.479 . S
C283 H301 0.929 1_655 S
C284 C281 1.424 . S
C284 C283 1.384 . S
C284 H302 0.928 . S
C285 C282 1.260 . S
C285 C283 1.479 . S
C286 C281 1.245 . S
C286 C282 1.477 . S
C286 H303 0.932 . S
C287 U270 2.882 . S
C287 C281 1.428 . S
C287 O290 1.301 . S
C287 O291 1.282 . S
O288 U270 2.441 . S
O288 C274 1.249 . S
O289 U270 2.420 . S
O289 C274 1.202 . S
O290 U270 2.455 . S
O290 C287 1.301 . S
O291 U270 2.449 . S
O291 C287 1.282 . S
H292 C265 0.931 . S
H293 C267 0.931 . S
H294 C268 0.930 . S
H295 C269 0.931 . S
H296 C276 0.932 . S
H297 C277 0.930 . S
H298 C278 0.929 . S
H299 C280 0.930 . S
H300 C282 0.932 . S
H301 C283 0.929 1_455 S
H302 C284 0.928 . S
H303 C286 0.932 . S
C304 C305 1.264 . S
C304 C309 1.479 . S
C304 C314 1.465 . S
C305 C304 1.264 . S
C305 C307 1.339 1_565 S
C305 H332 0.931 1_565 S
C306 C307 1.395 1_565 S
C306 C308 1.320 . S
C307 C305 1.339 1_545 S
C307 C306 1.395 1_545 S
C307 H333 0.929 . S
C308 C306 1.320 . S
C308 C309 1.405 . S
C308 H334 0.930 . S
C309 C304 1.479 . S
C309 C308 1.405 . S
C309 H335 0.931 . S
U310 O311 2.454 . S
U310 O312 2.458 . S
U310 C313 2.984 . S
U310 C314 2.847 . S
U310 C327 2.882 . S
U310 O328 2.441 . S
U310 O329 2.420 . S
U310 O330 2.455 . S
U310 O331 2.449 . S
O311 U310 2.454 . S
O311 C313 1.353 . S
O312 U310 2.458 . S
O312 C313 1.286 . S
C313 U310 2.984 . S
C313 O311 1.353 . S
C313 O312 1.286 . S
C313 C315 1.363 . S
C314 C304 1.465 . S
C314 U310 2.847 . S
C314 O328 1.249 . S
C314 O329 1.202 . S
C315 C313 1.363 . S
C315 C317 1.408 . S
C315 C320 1.342 . S
C316 C317 1.310 . S
C316 C319 1.461 . S
C316 H336 0.932 . S
C317 C315 1.408 . S
C317 C316 1.310 . S
C317 H337 0.930 . S
C318 C319 1.474 . S
C318 C320 1.285 . S
C318 H338 0.929 . S
C319 C316 1.461 . S
C319 C318 1.474 . S
C320 C315 1.342 . S
C320 C318 1.285 . S
C320 H339 0.930 . S
C321 C324 1.424 . S
C321 C326 1.245 . S
C321 C327 1.428 . S
C322 C325 1.260 . S
C322 C326 1.477 . S
C322 H340 0.932 . S
C323 C324 1.376 1_545 S
C323 C325 1.469 1_545 S
C323 H341 0.947 . S
C324 C321 1.424 . S
C324 C323 1.376 1_565 S
C324 H342 0.928 . S
C325 C322 1.260 . S
C325 C323 1.469 1_565 S
C326 C321 1.245 . S
C326 C322 1.477 . S
C326 H343 0.932 . S
C327 U310 2.882 . S
C327 C321 1.428 . S
C327 O330 1.301 . S
C327 O331 1.282 . S
O328 U310 2.441 . S
O328 C314 1.249 . S
O329 U310 2.420 . S
O329 C314 1.202 . S
O330 U310 2.455 . S
O330 C327 1.301 . S
O331 U310 2.449 . S
O331 C327 1.282 . S
H332 C305 0.931 1_545 S
H333 C307 0.929 . S
H334 C308 0.930 . S
H335 C309 0.931 . S
H336 C316 0.932 . S
H337 C317 0.930 . S
H338 C318 0.929 . S
H339 C320 0.930 . S
H340 C322 0.932 . S
H341 C323 0.947 . S
H342 C324 0.928 . S
H343 C326 0.932 . S
C344 C345 1.264 . S
C344 C349 1.479 . S
C344 C354 1.465 . S
C345 C344 1.264 . S
C345 C347 1.332 1_455 S
C345 H372 0.931 1_455 S
C346 C347 1.384 1_455 S
C346 C348 1.320 . S
C347 C345 1.332 1_655 S
C347 C346 1.384 1_655 S
C347 H373 0.948 . S
C348 C346 1.320 . S
C348 C349 1.405 . S
C348 H374 0.930 . S
C349 C344 1.479 . S
C349 C348 1.405 . S
C349 H375 0.931 . S
U350 O351 2.454 . S
U350 O352 2.458 . S
U350 C353 2.984 . S
U350 C354 2.847 . S
U350 C367 2.882 . S
U350 O368 2.441 . S
U350 O369 2.420 . S
U350 O370 2.455 . S
U350 O371 2.449 . S
O351 U350 2.454 . S
O351 C353 1.353 . S
O352 U350 2.458 . S
O352 C353 1.286 . S
C353 U350 2.984 . S
C353 O351 1.353 . S
C353 O352 1.286 . S
C353 C355 1.363 . S
C354 C344 1.465 . S
C354 U350 2.847 . S
C354 O368 1.249 . S
C354 O369 1.202 . S
C355 C353 1.363 . S
C355 C357 1.408 . S
C355 C360 1.342 . S
C356 C357 1.310 . S
C356 C359 1.461 . S
C356 H376 0.932 . S
C357 C355 1.408 . S
C357 C356 1.310 . S
C357 H377 0.930 . S
C358 C359 1.474 . S
C358 C360 1.285 . S
C358 H378 0.929 . S
C359 C356 1.461 . S
C359 C358 1.474 . S
C360 C355 1.342 . S
C360 C358 1.285 . S
C360 H379 0.930 . S
C361 C364 1.424 . S
C361 C366 1.245 . S
C361 C367 1.428 . S
C362 C365 1.260 . S
C362 C366 1.477 . S
C362 H380 0.932 . S
C363 C364 1.379 1_655 S
C363 C365 1.473 1_655 S
C363 H381 0.940 . S
C364 C361 1.424 . S
C364 C363 1.379 1_455 S
C364 H382 0.928 . S
C365 C362 1.260 . S
C365 C363 1.473 1_455 S
C366 C361 1.245 . S
C366 C362 1.477 . S
C366 H383 0.932 . S
C367 U350 2.882 . S
C367 C361 1.428 . S
C367 O370 1.301 . S
C367 O371 1.282 . S
O368 U350 2.441 . S
O368 C354 1.249 . S
O369 U350 2.420 . S
O369 C354 1.202 . S
O370 U350 2.455 . S
O370 C367 1.301 . S
O371 U350 2.449 . S
O371 C367 1.282 . S
H372 C345 0.931 1_655 S
H373 C347 0.948 . S
H374 C348 0.930 . S
H375 C349 0.931 . S
H376 C356 0.932 . S
H377 C357 0.930 . S
H378 C358 0.929 . S
H379 C360 0.930 . S
H380 C362 0.932 . S
H381 C363 0.940 . S
H382 C364 0.928 . S
H383 C366 0.932 . S
C384 C385 1.264 . S
C384 C389 1.479 . S
C384 C394 1.465 . S
C385 C384 1.264 . S
C385 C387 1.339 1_545 S
C385 H412 0.931 1_545 S
C386 C387 1.395 1_545 S
C386 C388 1.320 . S
C387 C385 1.339 1_565 S
C387 C386 1.395 1_565 S
C387 H413 0.929 . S
C388 C386 1.320 . S
C388 C389 1.405 . S
C388 H414 0.930 . S
C389 C384 1.479 . S
C389 C388 1.405 . S
C389 H415 0.931 . S
U390 O391 2.454 . S
U390 O392 2.458 . S
U390 C393 2.984 . S
U390 C394 2.847 . S
U390 C407 2.882 . S
U390 O408 2.441 . S
U390 O409 2.420 . S
U390 O410 2.455 . S
U390 O411 2.449 . S
O391 U390 2.454 . S
O391 C393 1.353 . S
O392 U390 2.458 . S
O392 C393 1.286 . S
C393 U390 2.984 . S
C393 O391 1.353 . S
C393 O392 1.286 . S
C393 C395 1.363 . S
C394 C384 1.465 . S
C394 U390 2.847 . S
C394 O408 1.249 . S
C394 O409 1.202 . S
C395 C393 1.363 . S
C395 C397 1.408 . S
C395 C400 1.342 . S
C396 C397 1.310 . S
C396 C399 1.461 . S
C396 H416 0.932 . S
C397 C395 1.408 . S
C397 C396 1.310 . S
C397 H417 0.930 . S
C398 C399 1.474 . S
C398 C400 1.285 . S
C398 H418 0.929 . S
C399 C396 1.461 . S
C399 C398 1.474 . S
C400 C395 1.342 . S
C400 C398 1.285 . S
C400 H419 0.930 . S
C401 C404 1.424 . S
C401 C406 1.245 . S
C401 C407 1.428 . S
C402 C405 1.260 . S
C402 C406 1.477 . S
C402 H420 0.932 . S
C403 C404 1.383 1_565 S
C403 C405 1.478 1_565 S
C403 H421 0.930 . S
C404 C401 1.424 . S
C404 C403 1.383 1_545 S
C404 H422 0.928 . S
C405 C402 1.260 . S
C405 C403 1.478 1_545 S
C406 C401 1.245 . S
C406 C402 1.477 . S
C406 H423 0.932 . S
C407 U390 2.882 . S
C407 C401 1.428 . S
C407 O410 1.301 . S
C407 O411 1.282 . S
O408 U390 2.441 . S
O408 C394 1.249 . S
O409 U390 2.420 . S
O409 C394 1.202 . S
O410 U390 2.455 . S
O410 C407 1.301 . S
O411 U390 2.449 . S
O411 C407 1.282 . S
H412 C385 0.931 1_565 S
H413 C387 0.929 . S
H414 C388 0.930 . S
H415 C389 0.931 . S
H416 C396 0.932 . S
H417 C397 0.930 . S
H418 C398 0.929 . S
H419 C400 0.930 . S
H420 C402 0.932 . S
H421 C403 0.930 . S
H422 C404 0.928 . S
H423 C406 0.932 . S
C45 C119 2.071 . S
C30 C159 2.100 . S
C39 C199 2.095 . S
C239 C34 2.099 . S
C97 C279 2.071 . S
C319 C82 2.100 . S
C359 C91 2.095 . S
C399 C86 2.100 . S
C365 C26 1.989 . S
C405 C36 2.027 . S
C266 C32 1.737 . S
C325 C42 2.015 . S
C18 C306 2.172 . S
C346 C50 2.198 . S
C4 C386 2.159 . S
C48 C285 1.933 . S
C205 C78 1.988 . S
C88 C245 2.027 . S
C106 C84 1.736 . S
C165 C94 2.015 . S
C146 C70 2.172 . S
C186 C102 2.197 . S
C56 C226 2.159 . S
C100 C125 1.933 . S
