# Generated by pormake.
# Topology apo, (3,6)-cn, num edge types: 1
# Building blocks:
#     Node 0, Type 0, BuildingBlock: WUSLED_clean_sbu_0, # of connection points: 3
#     Node 1, Type 0, BuildingBlock: WUSLED_clean_sbu_0, # of connection points: 3
#     Node 2, Type 0, BuildingBlock: WUSLED_clean_sbu_0, # of connection points: 3
#     Node 3, Type 0, BuildingBlock: WUSLED_clean_sbu_0, # of connection points: 3
#     Node 4, Type 0, BuildingBlock: WUSLED_clean_sbu_0, # of connection points: 3
#     Node 5, Type 0, BuildingBlock: WUSLED_clean_sbu_0, # of connection points: 3
#     Node 6, Type 0, BuildingBlock: WUSLED_clean_sbu_0, # of connection points: 3
#     Node 7, Type 0, BuildingBlock: WUSLED_clean_sbu_0, # of connection points: 3
#     Node 8, Type 1, BuildingBlock: KUMBUR_clean_sbu_1, # of connection points: 6
#     Node 9, Type 1, BuildingBlock: KUMBUR_clean_sbu_1, # of connection points: 6
#     Node 10, Type 1, BuildingBlock: KUMBUR_clean_sbu_1, # of connection points: 6
#     Node 11, Type 1, BuildingBlock: KUMBUR_clean_sbu_1, # of connection points: 6
#     Edge 12, Type (0, 1), BuildingBlock: EZIPEK_clean_linker_0, # of connection points: 2
#     Edge 13, Type (0, 1), BuildingBlock: EZIPEK_clean_linker_0, # of connection points: 2
#     Edge 14, Type (0, 1), BuildingBlock: EZIPEK_clean_linker_0, # of connection points: 2
#     Edge 15, Type (0, 1), BuildingBlock: EZIPEK_clean_linker_0, # of connection points: 2
#     Edge 16, Type (0, 1), BuildingBlock: EZIPEK_clean_linker_0, # of connection points: 2
#     Edge 17, Type (0, 1), BuildingBlock: EZIPEK_clean_linker_0, # of connection points: 2
#     Edge 18, Type (0, 1), BuildingBlock: EZIPEK_clean_linker_0, # of connection points: 2
#     Edge 19, Type (0, 1), BuildingBlock: EZIPEK_clean_linker_0, # of connection points: 2
#     Edge 20, Type (0, 1), BuildingBlock: EZIPEK_clean_linker_0, # of connection points: 2
#     Edge 21, Type (0, 1), BuildingBlock: EZIPEK_clean_linker_0, # of connection points: 2
#     Edge 22, Type (0, 1), BuildingBlock: EZIPEK_clean_linker_0, # of connection points: 2
#     Edge 23, Type (0, 1), BuildingBlock: EZIPEK_clean_linker_0, # of connection points: 2
#     Edge 24, Type (0, 1), BuildingBlock: EZIPEK_clean_linker_0, # of connection points: 2
#     Edge 25, Type (0, 1), BuildingBlock: EZIPEK_clean_linker_0, # of connection points: 2
#     Edge 26, Type (0, 1), BuildingBlock: EZIPEK_clean_linker_0, # of connection points: 2
#     Edge 27, Type (0, 1), BuildingBlock: EZIPEK_clean_linker_0, # of connection points: 2
#     Edge 28, Type (0, 1), BuildingBlock: EZIPEK_clean_linker_0, # of connection points: 2
#     Edge 29, Type (0, 1), BuildingBlock: EZIPEK_clean_linker_0, # of connection points: 2
#     Edge 30, Type (0, 1), BuildingBlock: EZIPEK_clean_linker_0, # of connection points: 2
#     Edge 31, Type (0, 1), BuildingBlock: EZIPEK_clean_linker_0, # of connection points: 2
#     Edge 32, Type (0, 1), BuildingBlock: EZIPEK_clean_linker_0, # of connection points: 2
#     Edge 33, Type (0, 1), BuildingBlock: EZIPEK_clean_linker_0, # of connection points: 2
#     Edge 34, Type (0, 1), BuildingBlock: EZIPEK_clean_linker_0, # of connection points: 2
#     Edge 35, Type (0, 1), BuildingBlock: EZIPEK_clean_linker_0, # of connection points: 2
# Relax obj value: 0.008
# Max RMSD: 0.111
# Mean RMSD: 0.083
data_MOF--net-apo--node1-WUSLED_clean_sbu_0--node2-KUMBUR_clean_sbu_1--edge1-EZIPEK_clean_linker_0
_symmetry_space_group_name_H-M    P1
_symmetry_Int_Tables_number       1
_symmetry_cell_setting            triclinic
loop_
_symmetry_equiv_pos_as_xyz
'x, y, z'
_cell_length_a     25.425632
_cell_length_b     43.133526
_cell_length_c     53.480319
_cell_angle_alpha  90.289014
_cell_angle_beta   89.89468
_cell_angle_gamma 90.575615
loop_
_atom_site_label
_atom_site_type_symbol
_atom_site_fract_x
_atom_site_fract_y
_atom_site_fract_z
_atom_type_partial_charge
C0 C 0.31395 0.45558 0.37898 0.0
C1 C 0.36038 0.4672 0.38999 0.0
C2 C 0.3642 0.50885 0.35941 0.0
C3 C 0.38541 0.49363 0.38021 0.0
C4 C 0.31695 0.49781 0.34899 0.0
C5 C 0.29208 0.47141 0.35869 0.0
U6 U 0.27423 0.39428 0.42842 0.0
O7 O 0.19998 0.36783 0.43151 0.0
O8 O 0.2739 0.34333 0.425 0.0
C9 C 0.22229 0.34125 0.42604 0.0
C10 C 0.28907 0.42623 0.38719 0.0
C11 C 0.19611 0.32141 0.40675 0.0
C12 C 0.11859 0.30704 0.38219 0.0
C13 C 0.14436 0.32732 0.39879 0.0
C14 C 0.19565 0.2746 0.38085 0.0
C15 C 0.14388 0.28041 0.37324 0.0
C16 C 0.22142 0.29481 0.39748 0.0
C17 C 0.3123 0.40958 0.49832 0.0
C18 C 0.34024 0.37846 0.53384 0.0
C19 C 0.30092 0.42864 0.54093 0.0
C20 C 0.29525 0.43251 0.51514 0.0
C21 C 0.32385 0.40177 0.5505 0.0
C22 C 0.33455 0.38233 0.50791 0.0
C23 C 0.31036 0.41625 0.47114 0.0
O24 O 0.32087 0.4043 0.39469 0.0
O25 O 0.24674 0.42874 0.40116 0.0
O26 O 0.26422 0.42357 0.46195 0.0
O27 O 0.33813 0.39866 0.45602 0.0
H28 H 0.37792 0.45543 0.40571 0.0
H29 H 0.42202 0.50173 0.3884 0.0
H30 H 0.30018 0.50913 0.33286 0.0
H31 H 0.25636 0.46285 0.34992 0.0
H32 H 0.0785 0.31179 0.37667 0.0
H33 H 0.12329 0.34729 0.40573 0.0
H34 H 0.21571 0.25407 0.37427 0.0
H35 H 0.26088 0.28927 0.40347 0.0
H36 H 0.35816 0.35759 0.5409 0.0
H37 H 0.28816 0.4469 0.55347 0.0
H38 H 0.27853 0.45384 0.50828 0.0
H39 H 0.3484 0.36431 0.49544 0.0
C40 C 0.20799 0.16451 1.00283 0.0
C41 C 0.17042 0.14186 1.00896 0.0
C42 C 0.19709 0.14376 0.0532 0.0
C43 C 0.16363 0.13253 0.03386 0.0
C44 C 0.22889 0.16982 0.04695 0.0
C45 C 0.23551 0.17933 1.02214 0.0
U46 U 0.20675 0.14625 0.93261 0.0
O47 O 0.19251 0.17654 0.90023 0.0
O48 O 0.26837 0.15326 0.90427 0.0
C49 C 0.24022 0.17281 0.89126 0.0
C50 C 0.21926 0.17288 0.9766 0.0
C51 C 0.26793 0.20084 0.88228 0.0
C52 C 0.32842 0.24439 0.88831 0.0
C53 C 0.29918 0.21945 0.89812 0.0
C54 C 0.29456 0.23266 0.84697 0.0
C55 C 0.32672 0.25088 0.86259 0.0
C56 C 0.26538 0.2079 0.85674 0.0
C57 C 0.14814 0.06887 0.90961 0.0
C58 C 0.15707 0.04979 0.86692 0.0
C59 C 0.10016 0.02269 0.89611 0.0
C60 C 0.11318 0.04433 0.91474 0.0
C61 C 0.12204 0.02524 0.8721 0.0
C62 C 0.16998 0.07152 0.88555 0.0
C63 C 0.16143 0.09126 0.9296 0.0
O64 O 0.25579 0.1563 0.96562 0.0
O65 O 0.17831 0.17768 0.96218 0.0
O66 O 0.1351 0.11732 0.9294 0.0
O67 O 0.21187 0.0954 0.93398 0.0
H68 H 0.14624 0.13135 0.9945 0.0
H69 H 0.13128 0.11686 0.03734 0.0
H70 H 0.24927 0.18326 0.06107 0.0
H71 H 0.26257 0.19821 1.01804 0.0
H72 H 0.3532 0.25817 0.90061 0.0
H73 H 0.30178 0.21431 0.91789 0.0
H74 H 0.2929 0.23725 0.82709 0.0
H75 H 0.24168 0.19376 0.84421 0.0
H76 H 0.17417 0.05215 0.84845 0.0
H77 H 0.07296 1.00395 0.9004 0.0
H78 H 0.09592 0.04193 0.93317 0.0
H79 H 0.19695 0.09036 0.88122 0.0
C80 C 0.8244 0.09859 0.69355 0.0
C81 C 0.79961 0.06997 0.68822 0.0
C82 C 0.85893 0.04352 0.71653 0.0
C83 C 0.81673 0.0427 0.69963 0.0
C84 C 0.88362 0.07199 0.72193 0.0
C85 C 0.8664 0.09926 0.71064 0.0
U86 U 0.80304 0.1575 0.63994 0.0
O87 O 0.73401 0.18647 0.63235 0.0
O88 O 0.81008 0.20838 0.64097 0.0
C89 C 0.75933 0.21239 0.63772 0.0
C90 C 0.80504 0.12812 0.68293 0.0
C91 C 0.73248 0.23365 0.65542 0.0
C92 C 0.65246 0.25972 0.66874 0.0
C93 C 0.67892 0.24026 0.65201 0.0
C94 C 0.73297 0.2673 0.69221 0.0
C95 C 0.67925 0.27321 0.68901 0.0
C96 C 0.75941 0.24767 0.67558 0.0
C97 C 0.85292 0.1396 0.57334 0.0
C98 C 0.85839 0.17697 0.53945 0.0
C99 C 0.87716 0.12284 0.53141 0.0
C100 C 0.86707 0.11603 0.55653 0.0
C101 C 0.87327 0.15338 0.52273 0.0
C102 C 0.84821 0.17012 0.56462 0.0
C103 C 0.84476 0.13189 0.5999 0.0
O104 O 0.84109 0.14848 0.67613 0.0
O105 O 0.76529 0.12639 0.66726 0.0
O106 O 0.79581 0.12699 0.60689 0.0
O107 O 0.87183 0.14863 0.61607 0.0
H108 H 0.76675 0.06859 0.6754 0.0
H109 H 0.79715 0.02092 0.69525 0.0
H110 H 0.91623 0.07309 0.73493 0.0
H111 H 0.88574 0.12098 0.71543 0.0
H112 H 0.61089 0.2639 0.66611 0.0
H113 H 0.65731 0.23002 0.63655 0.0
H114 H 0.75409 0.27736 0.7079 0.0
H115 H 0.80071 0.24326 0.67873 0.0
H116 H 0.85521 0.20066 0.53305 0.0
H117 H 0.88854 0.10437 0.51878 0.0
H118 H 0.87087 0.09235 0.56291 0.0
H119 H 0.83725 0.18863 0.57731 0.0
C120 C 0.6821 0.36307 0.07519 0.0
C121 C 0.65922 0.391 0.06798 0.0
C122 C 0.67199 0.37785 1.02357 0.0
C123 C 0.65242 0.3978 0.04257 0.0
C124 C 0.68678 0.34786 0.03154 0.0
C125 C 0.69341 0.34097 0.05685 0.0
U126 U 0.68946 0.38598 0.14466 0.0
O127 O 0.7551 0.38148 0.17096 0.0
O128 O 0.68047 0.35715 0.17843 0.0
C129 C 0.72957 0.36174 0.1853 0.0
C130 C 0.69589 0.35689 0.10144 0.0
C131 C 0.75889 0.33424 0.19359 0.0
C132 C 0.83249 0.29877 0.18991 0.0
C133 C 0.80214 0.32277 0.1801 0.0
C134 C 0.77578 0.29669 0.22633 0.0
C135 C 0.81988 0.28586 0.21325 0.0
C136 C 0.74564 0.32071 0.2166 0.0
C137 C 0.63608 0.46337 0.16791 0.0
C138 C 0.66044 0.48674 0.20782 0.0
C139 C 0.58945 0.50842 0.18351 0.0
C140 C 0.5967 0.48561 0.16517 0.0
C141 C 0.62158 0.50932 0.20483 0.0
C142 C 0.66749 0.46379 0.18952 0.0
C143 C 0.6448 0.44049 0.1478 0.0
O144 O 0.73375 0.3745 0.1106 0.0
O145 O 0.65649 0.35292 0.11709 0.0
O146 O 0.61845 0.41425 0.14983 0.0
O147 O 0.69408 0.43665 0.14108 0.0
H148 H 0.64699 0.40767 0.08201 0.0
H149 H 0.63117 0.4186 0.03855 0.0
H150 H 0.69436 0.32942 1.01831 0.0
H151 H 0.70832 0.31846 0.06206 0.0
H152 H 0.86642 0.2907 0.17957 0.0
H153 H 0.81323 0.3328 0.1623 0.0
H154 H 0.76547 0.287 0.24436 0.0
H155 H 0.71265 0.32928 0.22737 0.0
H156 H 0.68577 0.48722 0.22408 0.0
H157 H 0.55948 0.52577 0.18085 0.0
H158 H 0.57208 0.48562 0.14866 0.0
H159 H 0.69798 0.44673 0.19202 0.0
C160 C 0.69038 0.58466 0.68985 0.0
C161 C 0.6367 0.57809 0.68581 0.0
C162 C 0.64313 0.53095 0.71041 0.0
C163 C 0.6133 0.55148 0.69607 0.0
C164 C 0.697 0.53695 0.71385 0.0
C165 C 0.72034 0.56365 0.70374 0.0
U166 U 0.72483 0.64581 0.63956 0.0
O167 O 0.72523 0.69667 0.64236 0.0
O168 O 0.79876 0.67235 0.63436 0.0
C169 C 0.77655 0.69896 0.63975 0.0
C170 C 0.71526 0.61395 0.68116 0.0
C171 C 0.80426 0.71894 0.65817 0.0
C172 C 0.81292 0.74106 0.70002 0.0
C173 C 0.78825 0.72037 0.68334 0.0
C174 C 0.87099 0.75845 0.66686 0.0
C175 C 0.85409 0.76047 0.69181 0.0
C176 C 0.84618 0.7379 0.65018 0.0
C177 C 0.67332 0.63043 0.57166 0.0
C178 C 0.70488 0.648 0.53099 0.0
C179 C 0.61962 0.62282 0.53446 0.0
C180 C 0.62679 0.61987 0.56025 0.0
C181 C 0.65891 0.63639 0.51953 0.0
C182 C 0.71213 0.64498 0.55691 0.0
C183 C 0.68124 0.62368 0.59848 0.0
O184 O 0.75556 0.61119 0.66591 0.0
O185 O 0.68352 0.63651 0.67493 0.0
O186 O 0.65608 0.64123 0.61461 0.0
O187 O 0.72924 0.61692 0.60562 0.0
H188 H 0.61255 0.59376 0.67514 0.0
H189 H 0.5717 0.54717 0.6932 0.0
H190 H 0.7206 0.52135 0.72487 0.0
H191 H 0.76168 0.56821 0.70718 0.0
H192 H 0.79942 0.74228 0.71922 0.0
H193 H 0.75616 0.70589 0.69 0.0
H194 H 0.90271 0.77323 0.66021 0.0
H195 H 0.85917 0.73717 0.63088 0.0
H196 H 0.7356 0.65861 0.51978 0.0
H197 H 0.58389 0.61377 0.52602 0.0
H198 H 0.59642 0.60852 0.57123 0.0
H199 H 0.74838 0.65332 0.56528 0.0
C200 C 0.76468 0.87833 0.05964 0.0
C201 C 0.80981 0.89526 0.05251 0.0
C202 C 0.78653 0.88913 1.00854 0.0
C203 C 0.82076 0.90049 1.02714 0.0
C204 C 0.74136 0.87238 1.01572 0.0
C205 C 0.73061 0.867 0.04102 0.0
U206 U 0.76627 0.90008 0.12949 0.0
O207 O 0.70557 0.894 0.15843 0.0
O208 O 0.78174 0.87109 0.16252 0.0
C209 C 0.7342 0.8749 0.17165 0.0
C210 C 0.75254 0.87191 0.08621 0.0
C211 C 0.70721 0.84695 0.18138 0.0
C212 C 0.64207 0.80535 0.17787 0.0
C213 C 0.66989 0.83027 0.1672 0.0
C214 C 0.68939 0.81306 0.21673 0.0
C215 C 0.6513 0.79681 0.2028 0.0
C216 C 0.71709 0.83789 0.2061 0.0
C217 C 0.82919 0.97797 0.14946 0.0
C218 C 0.82902 0.99835 0.19201 0.0
C219 C 0.88 0.02428 0.15983 0.0
C220 C 0.86297 1.00224 0.1423 0.0
C221 C 0.86336 0.02244 0.18481 0.0
C222 C 0.81204 0.97618 0.17442 0.0
C223 C 0.81321 0.95469 0.13062 0.0
O224 O 0.79298 0.86691 0.10089 0.0
O225 O 0.71675 0.88962 0.09661 0.0
O226 O 0.76234 0.95095 0.1273 0.0
O227 O 0.83877 0.92838 0.13114 0.0
H228 H 0.83662 0.90436 0.06652 0.0
H229 H 0.8558 0.91347 1.022 0.0
H230 H 0.71446 0.86344 1.00168 0.0
H231 H 0.69562 0.85391 0.04608 0.0
H232 H 0.61271 0.79309 0.16687 0.0
H233 H 0.66159 0.83687 0.1481 0.0
H234 H 0.69697 0.80683 0.23598 0.0
H235 H 0.74558 0.85048 0.21738 0.0
H236 H 0.81616 0.99647 0.21127 0.0
H237 H 0.90677 0.04257 0.154 0.0
H238 H 0.87666 1.00397 0.12315 0.0
H239 H 0.78605 0.95753 0.1803 0.0
C240 C 0.18486 0.94392 0.36975 0.0
C241 C 0.15071 0.96244 0.38395 0.0
C242 C 0.14383 0.99868 0.34937 0.0
C243 C 0.13029 0.9897 0.37379 0.0
C244 C 0.17884 0.98048 0.33546 0.0
C245 C 0.1992 0.95331 0.34559 0.0
U246 U 0.20589 0.88284 0.42125 0.0
O247 O 0.19801 0.83215 0.41859 0.0
O248 O 0.27486 0.85312 0.42719 0.0
C249 C 0.24877 0.82768 0.42125 0.0
C250 C 0.20434 0.91416 0.37918 0.0
C251 C 0.27375 0.80759 0.40225 0.0
C252 C 0.27892 0.78698 0.35985 0.0
C253 C 0.25545 0.80661 0.37745 0.0
C254 C 0.34013 0.76951 0.39133 0.0
C255 C 0.32148 0.7683 0.36664 0.0
C256 C 0.31634 0.78895 0.409 0.0
C257 C 0.15521 0.89747 0.4883 0.0
C258 C 0.16095 0.86042 0.52234 0.0
C259 C 0.11886 0.90992 0.52919 0.0
C260 C 0.12917 0.91807 0.50436 0.0
C261 C 0.13446 0.88101 0.53834 0.0
C262 C 0.17127 0.8686 0.49744 0.0
C263 C 0.16405 0.90643 0.46206 0.0
O264 O 0.24348 0.91574 0.39517 0.0
O265 O 0.1681 0.89368 0.38544 0.0
O266 O 0.13696 0.89066 0.44531 0.0
O267 O 0.21323 0.91132 0.4554 0.0
H268 H 0.13921 0.95553 0.40264 0.0
H269 H 0.10312 1.00344 0.38473 0.0
H270 H 0.18953 0.98701 0.31657 0.0
H271 H 0.22545 0.9393 0.33436 0.0
H272 H 0.26405 0.7864 0.34088 0.0
H273 H 0.2229 0.82092 0.3717 0.0
H274 H 0.37298 0.75532 0.3969 0.0
H275 H 0.33114 0.7894 0.42799 0.0
H276 H 0.17319 0.83799 0.52909 0.0
H277 H 0.09836 0.92606 0.54124 0.0
H278 H 0.11643 0.94042 0.49763 0.0
H279 H 0.19135 0.85238 0.48528 0.0
C280 C 0.32732 0.68631 0.98926 0.0
C281 C 0.35266 0.65991 0.99848 0.0
C282 C 0.36131 0.68452 0.03943 0.0
C283 C 0.36948 0.65901 1.02346 0.0
C284 C 0.33585 0.71077 0.03014 0.0
C285 C 0.31902 0.71164 1.00527 0.0
U286 U 0.31378 0.65498 0.92178 0.0
O287 O 0.24536 0.65669 0.89653 0.0
O288 O 0.31931 0.68003 0.88618 0.0
C289 C 0.26956 0.67509 0.8806 0.0
C290 C 0.3091 0.68812 0.96315 0.0
C291 C 0.23934 0.70187 0.8713 0.0
C292 C 0.23355 0.75627 0.85956 0.0
C293 C 0.26105 0.73203 0.87073 0.0
C294 C 0.16174 0.72094 0.84985 0.0
C295 C 0.18391 0.75083 0.84885 0.0
C296 C 0.1893 0.69668 0.86089 0.0
C297 C 0.37366 0.57756 0.90171 0.0
C298 C 0.34668 0.54485 0.86663 0.0
C299 C 0.43301 0.53876 0.88497 0.0
C300 C 0.42231 0.56254 0.90205 0.0
C301 C 0.39512 0.52951 0.8673 0.0
C302 C 0.3361 0.56885 0.88363 0.0
C303 C 0.36283 0.60172 0.92066 0.0
O304 O 0.34591 0.69187 0.94612 0.0
O305 O 0.27262 0.66792 0.95649 0.0
O306 O 0.31352 0.60458 0.92771 0.0
O307 O 0.38691 0.62848 0.91727 0.0
H308 H 0.35938 0.64012 0.98639 0.0
H309 H 0.38896 0.63853 0.03032 0.0
H310 H 0.32912 0.73064 0.04216 0.0
H311 H 0.2995 0.73217 0.99852 0.0
H312 H 0.25127 0.7792 0.85894 0.0
H313 H 0.29963 0.73682 0.87847 0.0
H314 H 0.12347 0.7163 0.8417 0.0
H315 H 0.1719 0.67364 0.86084 0.0
H316 H 0.31688 0.53791 0.85322 0.0
H317 H 0.47049 0.52708 0.88586 0.0
H318 H 0.45184 0.56893 0.91577 0.0
H319 H 0.29838 0.58025 0.88287 0.0
Tb320 Tb 0.06029 0.1547 0.25711 0.0
C321 C 0.82686 0.12486 0.29089 0.0
N322 N 0.85587 0.15114 0.29448 0.0
C323 C 0.78133 0.18183 0.28302 0.0
C324 C 0.77449 0.12598 0.28232 0.0
C325 C 0.83284 0.17952 0.29189 0.0
C326 C 0.75223 0.15495 0.27787 0.0
C327 C 0.82018 0.06894 0.29431 0.0
C328 C 0.84923 0.09676 0.29669 0.0
C329 C 0.76877 0.06974 0.28478 0.0
C330 C 0.74596 0.09822 0.27879 0.0
Tb331 Tb 0.94062 0.14383 0.30798 0.0
N332 N 0.8991 0.09689 0.30562 0.0
C333 C 0.8432 0.04135 0.30232 0.0
C334 C 0.91988 0.07063 0.31557 0.0
C335 C 0.89291 0.04231 0.31345 0.0
H336 H 0.85359 0.20057 0.29702 0.0
H337 H 0.91028 0.02132 0.32058 0.0
H338 H 0.15737 0.12519 0.28925 0.0
H339 H 0.04394 0.26468 0.20893 0.0
H340 H 0.9576 0.07158 0.32477 0.0
H341 H 0.82222 0.01944 0.30082 0.0
H342 H 0.02024 0.21059 0.21782 0.0
H343 H 0.76384 0.20438 0.28051 0.0
H344 H 0.74591 0.04857 0.28254 0.0
H345 H 0.70589 0.09858 0.27194 0.0
H346 H 0.2395 0.14377 0.30946 0.0
H347 H 0.7122 0.15682 0.27118 0.0
H348 H 0.12062 0.28921 0.22976 0.0
N349 N 0.13701 0.16968 0.27571 0.0
C350 C 0.15321 0.19928 0.27175 0.0
C351 C 0.21528 0.15974 0.29915 0.0
C352 C 0.19996 0.21089 0.28253 0.0
C353 C 0.16868 0.14932 0.28789 0.0
C354 C 0.23057 0.19082 0.29681 0.0
N355 N 0.07938 0.20491 0.24576 0.0
C356 C 0.05222 0.22118 0.22813 0.0
C357 C 0.13951 0.24819 0.25097 0.0
C358 C 0.12336 0.21753 0.25625 0.0
C359 C 0.10968 0.26554 0.23424 0.0
C360 C 0.06624 0.25181 0.22255 0.0
H361 H 0.26679 0.19882 0.30544 0.0
H362 H 0.25072 0.25129 0.28646 0.0
H363 H 0.19773 0.28401 0.25877 0.0
O364 O 0.09162 0.15804 0.2201 0.0
O365 O 0.0688 0.17064 0.29627 0.0
O366 O 0.98708 0.18696 0.30885 0.0
O367 O 0.10375 0.11743 0.24306 0.0
O368 O 0.98476 0.17661 0.24794 0.0
O369 O 0.93964 0.18593 0.285 0.0
O370 O 0.95943 0.13479 0.34558 0.0
O371 O 0.94868 0.10945 0.27733 0.0
O372 O 0.98533 0.1355 0.2437 0.0
O373 O 0.8872 0.1567 0.33629 0.0
O374 O 0.01659 0.12232 0.31608 0.0
O375 O 0.05767 0.11106 0.2783 0.0
C376 C 0.0386 0.18981 0.30881 0.0
C377 C 0.14262 0.11541 0.20158 0.0
C378 C 0.17288 0.11119 0.15822 0.0
C379 C 0.19991 0.0841 0.16444 0.0
C380 C 0.17004 0.08816 0.20719 0.0
C381 C 0.19849 0.07272 0.18874 0.0
C382 C 0.1442 0.12701 0.17689 0.0
C383 C 0.94844 0.19127 0.26106 0.0
C384 C 0.11174 0.1306 0.22162 0.0
C385 C 0.21519 0.24178 0.27815 0.0
C386 C 0.18506 0.26039 0.26236 0.0
C387 C 0.95686 0.11277 0.25312 0.0
C388 C 0.92581 0.17046 0.37486 0.0
C389 C 0.9231 0.18271 0.41945 0.0
C390 C 0.94318 0.21244 0.41435 0.0
C391 C 0.94497 0.20048 0.37006 0.0
C392 C 0.91458 0.16171 0.39962 0.0
C393 C 0.95397 0.22124 0.38976 0.0
C394 C 0.04728 0.10509 0.30198 0.0
C395 C 0.91762 0.14804 0.35432 0.0
H396 H 0.22215 0.0717 0.15034 0.0
H397 H 0.1695 0.07867 0.2259 0.0
H398 H 0.21944 0.05178 0.1933 0.0
H399 H 0.12309 0.14786 0.17214 0.0
H400 H 0.95017 0.22884 0.42942 0.0
H401 H 0.95312 0.20785 0.35114 0.0
H402 H 0.89943 0.13864 0.40348 0.0
H403 H 0.96929 0.24424 0.38593 0.0
Tb404 Tb 0.44075 0.37772 0.75797 0.0
C405 C 0.68047 0.3778 0.78755 0.0
N406 N 0.64241 0.35741 0.79455 0.0
C407 C 0.69858 0.31501 0.7836 0.0
C408 C 0.72837 0.36774 0.7772 0.0
C409 C 0.65204 0.3263 0.79412 0.0
C410 C 0.73648 0.33584 0.77458 0.0
C411 C 0.71294 0.43068 0.78833 0.0
C412 C 0.67286 0.40866 0.79282 0.0
C413 C 0.75959 0.42124 0.77653 0.0
C414 C 0.76726 0.38977 0.7709 0.0
Tb415 Tb 0.5653 0.37825 0.80888 0.0
N416 N 0.62743 0.4166 0.80436 0.0
C417 C 0.70582 0.46106 0.79696 0.0
C418 C 0.62239 0.44537 0.81496 0.0
C419 C 0.66091 0.46823 0.8109 0.0
H420 H 0.62334 0.31018 0.80159 0.0
H421 H 0.65594 0.49131 0.81851 0.0
H422 H 0.3324 0.402 0.78503 0.0
H423 H 0.48286 0.2673 0.71286 0.0
H424 H 0.58786 0.45076 0.82591 0.0
H425 H 0.73567 0.47874 0.79392 0.0
H426 H 0.49196 0.32344 0.71909 0.0
H427 H 0.70523 0.2903 0.78254 0.0
H428 H 0.79071 0.43785 0.77255 0.0
H429 H 0.80414 0.38259 0.76264 0.0
H430 H 0.25169 0.37871 0.8033 0.0
H431 H 0.77266 0.32708 0.76663 0.0
H432 H 0.41368 0.23792 0.73541 0.0
N433 N 0.36377 0.35863 0.77369 0.0
C434 C 0.35564 0.32765 0.77147 0.0
C435 C 0.28072 0.36407 0.79448 0.0
C436 C 0.31047 0.31332 0.78166 0.0
C437 C 0.32629 0.37718 0.7841 0.0
C438 C 0.27312 0.33194 0.79359 0.0
N439 N 0.4343 0.32569 0.74818 0.0
C440 C 0.46398 0.31088 0.73047 0.0
C441 C 0.38399 0.2785 0.75454 0.0
C442 C 0.39233 0.31056 0.75842 0.0
C443 C 0.41861 0.26255 0.73888 0.0
C444 C 0.45785 0.27902 0.72623 0.0
H445 H 0.23794 0.32181 0.80175 0.0
H446 H 0.26962 0.26956 0.78721 0.0
H447 H 0.3339 0.23901 0.76328 0.0
O448 O 0.41058 0.37214 0.72111 0.0
O449 O 0.42896 0.36534 0.79738 0.0
O450 O 0.50465 0.34125 0.8096 0.0
O451 O 0.39322 0.41301 0.74326 0.0
O452 O 0.52047 0.36348 0.74656 0.0
O453 O 0.54665 0.34106 0.78264 0.0
O454 O 0.54868 0.38834 0.84685 0.0
O455 O 0.56728 0.41489 0.77997 0.0
O456 O 0.49996 0.41316 0.74984 0.0
O457 O 0.61021 0.35745 0.8371 0.0
O458 O 0.50575 0.41379 0.81521 0.0
O459 O 0.43406 0.4138 0.78707 0.0
C460 C 0.45309 0.34443 0.81073 0.0
C461 C 0.35428 0.411 0.70169 0.0
C462 C 0.32976 0.41363 0.65751 0.0
C463 C 0.29217 0.43607 0.66352 0.0
C464 C 0.3166 0.43367 0.70714 0.0
C465 C 0.28566 0.44598 0.68818 0.0
C466 C 0.36064 0.40086 0.67671 0.0
C467 C 0.55233 0.34486 0.75853 0.0
C468 C 0.38656 0.39846 0.72223 0.0
C469 C 0.30373 0.2811 0.77925 0.0
C470 C 0.34042 0.26371 0.76568 0.0
C471 C 0.54337 0.425 0.7596 0.0
C472 C 0.62349 0.38745 0.87341 0.0
C473 C 0.65327 0.39669 0.91631 0.0
C474 C 0.69489 0.41496 0.9071 0.0
C475 C 0.66707 0.40462 0.86479 0.0
C476 C 0.61683 0.3833 0.89942 0.0
C477 C 0.70175 0.41881 0.88149 0.0
C478 C 0.46065 0.42459 0.80668 0.0
C479 C 0.58758 0.37216 0.85527 0.0
H480 H 0.2681 0.4461 0.64901 0.0
H481 H 0.31079 0.44179 0.72614 0.0
H482 H 0.25665 0.46337 0.6926 0.0
H483 H 0.38979 0.38357 0.67213 0.0
H484 H 0.72323 0.42538 0.91979 0.0
H485 H 0.67546 0.40639 0.84514 0.0
H486 H 0.58478 0.36902 0.90642 0.0
H487 H 0.73492 0.43214 0.87453 0.0
Tb488 Tb 0.06078 0.89382 0.75124 0.0
C489 C 0.86519 0.83385 0.7982 0.0
N490 N 0.87327 0.86485 0.79635 0.0
C491 C 0.7874 0.87059 0.77847 0.0
C492 C 0.81875 0.81966 0.78921 0.0
C493 C 0.83428 0.88353 0.78762 0.0
C494 C 0.77994 0.83845 0.77887 0.0
C495 C 0.89542 0.78456 0.81354 0.0
C496 C 0.90314 0.81664 0.80988 0.0
C497 C 0.8505 0.76987 0.80356 0.0
C498 C 0.81222 0.78741 0.79136 0.0
Tb499 Tb 0.95356 0.88348 0.80909 0.0
N500 N 0.94608 0.83175 0.81906 0.0
C501 C 0.93224 0.7685 0.82777 0.0
C502 C 0.97862 0.81681 0.83528 0.0
C503 C 0.97334 0.78488 0.83921 0.0
H504 H 0.83982 0.90836 0.78703 0.0
H505 H 0.00043 0.77307 0.85141 0.0
H506 H 0.13739 0.83157 0.74715 0.0
H507 H 0.12582 1.0132 0.7445 0.0
H508 H 0.00824 0.82949 0.84561 0.0
H509 H 0.92789 0.74383 0.831 0.0
H510 H 0.06609 0.96846 0.73644 0.0
H511 H 0.75718 0.88539 0.77099 0.0
H512 H 0.84427 0.74515 0.8058 0.0
H513 H 0.77714 0.77595 0.78427 0.0
H514 H 0.22592 0.81663 0.76173 0.0
H515 H 0.74367 0.82847 0.77171 0.0
H516 H 0.2106 1.00514 0.76618 0.0
N517 N 0.14465 0.87806 0.76011 0.0
C518 C 0.17872 0.90063 0.76751 0.0
C519 C 0.21285 0.84029 0.76392 0.0
C520 C 0.23022 0.8937 0.7752 0.0
C521 C 0.16248 0.84866 0.75607 0.0
C522 C 0.24641 0.86279 0.77424 0.0
N523 N 0.11566 0.9361 0.75456 0.0
C524 C 0.10323 0.96489 0.74578 0.0
C525 C 0.19922 0.95548 0.76928 0.0
C526 C 0.16366 0.93094 0.76452 0.0
C527 C 0.18448 0.98558 0.76279 0.0
C528 C 0.13677 0.9902 0.75043 0.0
H529 H 0.28566 0.8564 0.77999 0.0
H530 H 0.30411 0.91317 0.78844 0.0
H531 H 0.27679 0.96745 0.78332 0.0
O532 O 0.02309 0.89237 0.71629 0.0
O533 O 0.05155 0.9315 0.77856 0.0
O534 O 0.03056 0.90601 0.81459 0.0
O535 O 0.10674 0.89178 0.7184 0.0
O536 O 0.99431 0.92603 0.75041 0.0
O537 O 0.93385 0.92182 0.78369 0.0
O538 O 0.92881 0.87712 0.84631 0.0
O539 O 0.93408 0.87137 0.7703 0.0
O540 O 0.01054 0.85226 0.75413 0.0
O541 O 0.92419 0.92174 0.82934 0.0
O542 O 0.03378 0.86568 0.8137 0.0
O543 O 0.06529 0.85221 0.77481 0.0
C544 C 0.04725 0.93096 0.80295 0.0
C545 C 0.06795 0.86532 0.68453 0.0
C546 C 0.08289 0.84975 0.64118 0.0
C547 C 0.07138 0.8189 0.64761 0.0
C548 C 0.05669 0.83436 0.6907 0.0
C549 C 0.05832 0.81131 0.67226 0.0
C550 C 0.08107 0.87293 0.65975 0.0
C551 C 0.95103 0.93438 0.76253 0.0
C552 C 0.06645 0.88988 0.7037 0.0
C553 C 0.26463 0.918 0.78205 0.0
C554 C 0.2491 0.94891 0.7791 0.0
C555 C 0.95886 0.8524 0.75523 0.0
C556 C 0.86412 0.91024 0.86253 0.0
C557 C 0.81437 0.90908 0.90176 0.0
C558 C 0.76912 0.91785 0.88867 0.0
C559 C 0.81855 0.91927 0.84985 0.0
C560 C 0.86186 0.90534 0.88855 0.0
C561 C 0.77132 0.92296 0.86289 0.0
C562 C 0.06412 0.84853 0.79925 0.0
C563 C 0.91446 0.90559 0.8493 0.0
H564 H 0.07248 0.80077 0.63354 0.0
H565 H 0.04671 0.82804 0.70971 0.0
H566 H 0.04945 0.78748 0.67709 0.0
H567 H 0.0898 0.89681 0.65487 0.0
H568 H 0.73217 0.92085 0.89846 0.0
H569 H 0.8194 0.92356 0.82995 0.0
H570 H 0.89694 0.89854 0.89855 0.0
H571 H 0.73628 0.92986 0.85299 0.0
Tb572 Tb 0.45337 0.64762 0.25136 0.0
C573 C 0.64085 0.71607 0.29331 0.0
N574 N 0.63434 0.68486 0.29106 0.0
C575 C 0.71822 0.68076 0.2709 0.0
C576 C 0.68564 0.73106 0.28339 0.0
C577 C 0.67311 0.66691 0.2811 0.0
C578 C 0.72423 0.71301 0.27179 0.0
C579 C 0.60796 0.76523 0.30849 0.0
C580 C 0.60189 0.7329 0.30531 0.0
C581 C 0.652 0.78044 0.29816 0.0
C582 C 0.69062 0.76342 0.28555 0.0
Tb583 Tb 0.55891 0.665 0.30772 0.0
N584 N 0.5589 0.71754 0.3144 0.0
C585 C 0.56985 0.78124 0.32217 0.0
C586 C 0.52375 0.73281 0.32932 0.0
C587 C 0.52803 0.76487 0.33294 0.0
H588 H 0.6686 0.64197 0.28059 0.0
H589 H 0.4995 0.77686 0.3444 0.0
H590 H 0.34644 0.68682 0.27006 0.0
H591 H 0.47296 0.53241 0.2134 0.0
H592 H 0.49319 0.72041 0.3392 0.0
H593 H 0.57307 0.80607 0.32506 0.0
H594 H 0.50169 0.58597 0.22274 0.0
H595 H 0.74833 0.66659 0.26242 0.0
H596 H 0.65686 0.80532 0.30008 0.0
H597 H 0.72456 0.77543 0.27788 0.0
H598 H 0.2561 0.67402 0.28295 0.0
H599 H 0.75918 0.72368 0.26385 0.0
H600 H 0.38434 0.51433 0.22643 0.0
N601 N 0.36697 0.63999 0.26201 0.0
C602 C 0.34844 0.61054 0.25867 0.0
C603 C 0.2819 0.65585 0.27647 0.0
C604 C 0.29626 0.60239 0.26493 0.0
C605 C 0.33378 0.66291 0.26964 0.0
C606 C 0.26325 0.62538 0.27444 0.0
N607 N 0.43165 0.59749 0.24241 0.0
C608 C 0.46358 0.57815 0.22914 0.0
C609 C 0.3633 0.5584 0.24307 0.0
C610 C 0.38162 0.5887 0.24815 0.0
C611 C 0.39698 0.5378 0.23078 0.0
C612 C 0.44709 0.54788 0.22346 0.0
H613 H 0.2229 0.62007 0.27952 0.0
H614 H 0.23857 0.56505 0.26579 0.0
H615 H 0.29714 0.52661 0.24646 0.0
O616 O 0.47909 0.64631 0.21397 0.0
O617 O 0.44605 0.61591 0.2835 0.0
O618 O 0.50457 0.62699 0.3162 0.0
O619 O 0.40108 0.66139 0.22311 0.0
O620 O 0.5342 0.62969 0.24943 0.0
O621 O 0.57128 0.62094 0.28832 0.0
O622 O 0.57227 0.67582 0.34573 0.0
O623 O 0.57061 0.67978 0.26849 0.0
O624 O 0.48958 0.69371 0.25463 0.0
O625 O 0.6178 0.6412 0.32734 0.0
O626 O 0.4749 0.67541 0.31413 0.0
O627 O 0.43969 0.68787 0.27553 0.0
C628 C 0.46559 0.61102 0.30604 0.0
C629 C 0.43929 0.68125 0.18613 0.0
C630 C 0.42757 0.69734 0.14278 0.0
C631 C 0.44651 0.72703 0.14915 0.0
C632 C 0.45774 0.71111 0.19219 0.0
C633 C 0.46159 0.7338 0.17371 0.0
C634 C 0.42442 0.6744 0.16137 0.0
C635 C 0.5614 0.61246 0.26507 0.0
C636 C 0.43507 0.65696 0.20528 0.0
C637 C 0.27845 0.5718 0.26095 0.0
C638 C 0.31181 0.5499 0.24994 0.0
C639 C 0.54038 0.69874 0.25601 0.0
C640 C 0.59838 0.63354 0.37018 0.0
C641 C 0.60697 0.62285 0.41487 0.0
C642 C 0.57924 0.59486 0.41139 0.0
C643 C 0.5711 0.60528 0.36716 0.0
C644 C 0.61644 0.64225 0.39416 0.0
C645 C 0.56143 0.58618 0.38768 0.0
C646 C 0.43942 0.68928 0.30013 0.0
C647 C 0.60691 0.65431 0.34862 0.0
H648 H 0.44937 0.74497 0.13509 0.0
H649 H 0.4689 0.71692 0.21113 0.0
H650 H 0.47605 0.75677 0.17849 0.0
H651 H 0.41002 0.65139 0.15656 0.0
H652 H 0.57159 0.57966 0.42708 0.0
H653 H 0.55727 0.59786 0.34896 0.0
H654 H 0.63767 0.66394 0.39673 0.0
H655 H 0.54015 0.56453 0.38517 0.0
C656 C 0.07676 0.02155 0.32072 0.0
C657 C 0.11902 0.02612 0.33762 0.0
C658 C 0.1131 0.0825 0.33209 0.0
C659 C 0.07313 0.07787 0.31381 0.0
N660 N 0.02146 0.04261 0.28844 0.0
N661 N 0.18256 0.06008 0.35717 0.0
C662 C 0.05662 0.04725 0.30736 0.0
C663 C 0.13851 0.0564 0.34278 0.0
N664 N 0.0543 0.99274 0.31823 0.0
N665 N 0.1268 0.1119 0.3393 0.0
H666 H 0.2016 0.04154 0.36559 0.0
H667 H 0.20258 0.08107 0.35937 0.0
H668 H 0.11258 0.13151 0.33044 0.0
H669 H 0.15036 0.117 0.3547 0.0
H670 H 0.0194 0.98848 0.3086 0.0
H671 H 0.06804 0.97327 0.32757 0.0
H672 H 0.01337 0.02103 0.28043 0.0
H673 H 0.00197 0.06068 0.27988 0.0
C674 C 0.40777 0.47245 0.86165 0.0
C675 C 0.40537 0.50225 0.85082 0.0
C676 C 0.42658 0.47969 0.80975 0.0
C677 C 0.43728 0.45073 0.82138 0.0
N678 N 0.44167 0.42058 0.85953 0.0
N679 N 0.41758 0.53531 0.8151 0.0
C680 C 0.42887 0.44742 0.84764 0.0
C681 C 0.41552 0.50613 0.82494 0.0
N682 N 0.38826 0.46782 0.88521 0.0
N683 N 0.42781 0.48234 0.7843 0.0
H684 H 0.40959 0.55519 0.82556 0.0
H685 H 0.4313 0.54009 0.79715 0.0
H686 H 0.44011 0.4648 0.7723 0.0
H687 H 0.41377 0.50163 0.77487 0.0
H688 H 0.38333 0.44595 0.89311 0.0
H689 H 0.37188 0.48553 0.89596 0.0
H690 H 0.44377 0.41868 0.87892 0.0
H691 H 0.45305 0.40053 0.85026 0.0
C692 C 0.60195 0.50604 0.74814 0.0
C693 C 0.61729 0.50381 0.72272 0.0
C694 C 0.58221 0.45043 0.72065 0.0
C695 C 0.56776 0.45232 0.74645 0.0
N696 N 0.5512 0.48495 0.78232 0.0
N697 N 0.62913 0.47328 0.68545 0.0
C698 C 0.57463 0.48089 0.75958 0.0
C699 C 0.60894 0.47591 0.7091 0.0
N700 N 0.61484 0.53203 0.76166 0.0
N701 N 0.56885 0.42481 0.70681 0.0
H702 H 0.64797 0.49158 0.67628 0.0
H703 H 0.63096 0.45254 0.67549 0.0
H704 H 0.55189 0.4049 0.71429 0.0
H705 H 0.57153 0.42368 0.68742 0.0
H706 H 0.61188 0.5334 0.78106 0.0
H707 H 0.63214 0.55171 0.75376 0.0
H708 H 0.54815 0.50626 0.7914 0.0
H709 H 0.53079 0.46735 0.79138 0.0
C710 C 0.85728 0.07228 0.2096 0.0
C711 C 0.88499 0.04484 0.20351 0.0
C712 C 0.96125 0.06368 0.2272 0.0
C713 C 0.93227 0.08983 0.23546 0.0
N714 N 0.85277 0.11962 0.23434 0.0
N715 N 0.9594 1.01172 0.20993 0.0
C716 C 0.88009 0.09421 0.22666 0.0
C717 C 0.93575 0.03977 0.21337 0.0
N718 N 0.80986 0.07765 0.19847 0.0
N719 N 0.01405 0.06236 0.23133 0.0
H720 H 0.94232 0.99366 0.19964 0.0
H721 H 0.99369 1.00538 0.21914 0.0
H722 H 0.03409 0.07933 0.24131 0.0
H723 H 0.03851 0.04596 0.2231 0.0
H724 H 0.78944 0.09835 0.19991 0.0
H725 H 0.79168 0.06167 0.18651 0.0
H726 H 0.81324 0.12329 0.23057 0.0
H727 H 0.86954 0.13694 0.24547 0.0
C728 C 0.87087 1.00945 0.75426 0.0
C729 C 0.87809 1.01448 0.72832 0.0
C730 C 0.91887 0.96357 0.72464 0.0
C731 C 0.92104 0.96088 0.75123 0.0
N732 N 0.9043 0.98555 0.79153 0.0
N733 N 0.91718 0.99828 0.68933 0.0
C734 C 0.8979 0.98478 0.76618 0.0
C735 C 0.90443 0.9921 0.71366 0.0
N736 N 0.83774 0.0281 0.76755 0.0
N737 N 0.92804 0.9385 0.70965 0.0
H738 H 0.90767 1.01898 0.6805 0.0
H739 H 0.94157 0.98404 0.67872 0.0
H740 H 0.93493 0.91653 0.71665 0.0
H741 H 0.9221 0.93866 0.69037 0.0
H742 H 0.82636 0.02347 0.7859 0.0
H743 H 0.81749 0.04641 0.75946 0.0
H744 H 0.89292 1.00426 0.80261 0.0
H745 H 0.92651 0.96977 0.80142 0.0
C746 C 0.63473 0.56535 0.21631 0.0
C747 C 0.61656 0.53531 0.22307 0.0
C748 C 0.58646 0.55582 0.2634 0.0
C749 C 0.5923 0.58635 0.25404 0.0
N750 N 0.63576 0.62065 0.22535 0.0
N751 N 0.57397 0.50161 0.25294 0.0
C752 C 0.62094 0.59121 0.23157 0.0
C753 C 0.59295 0.53032 0.24678 0.0
N754 N 0.66562 0.56884 0.19551 0.0
N755 N 0.57615 0.55102 0.28814 0.0
H756 H 0.57798 0.48227 0.24133 0.0
H757 H 0.55073 0.49756 0.26868 0.0
H758 H 0.57186 0.569 0.30099 0.0
H759 H 0.57652 0.52913 0.29629 0.0
H760 H 0.68265 0.58967 0.18989 0.0
H761 H 0.67714 0.55017 0.18437 0.0
H762 H 0.65223 0.62701 0.20831 0.0
H763 H 0.63194 0.63901 0.23793 0.0
C764 C 0.39446 0.56477 0.35764 0.0
C765 C 0.39358 0.53464 0.347 0.0
C766 C 0.4411 0.55403 0.31021 0.0
C767 C 0.44315 0.58439 0.32091 0.0
N768 N 0.43388 0.6159 0.35846 0.0
N769 N 0.42682 0.49883 0.31635 0.0
C770 C 0.42383 0.58892 0.34577 0.0
C771 C 0.42 0.52879 0.32418 0.0
N772 N 0.36529 0.57074 0.37858 0.0
N773 N 0.46014 0.54901 0.28674 0.0
H774 H 0.4121 0.47975 0.32612 0.0
H775 H 0.45111 0.49249 0.30153 0.0
H776 H 0.48163 0.56559 0.27706 0.0
H777 H 0.45383 0.52866 0.27661 0.0
H778 H 0.35884 0.59303 0.38544 0.0
H779 H 0.34386 0.55364 0.38798 0.0
H780 H 0.42714 0.61846 0.37758 0.0
H781 H 0.4521 0.63522 0.35068 0.0
C782 C 0.06744 1.00968 0.83483 0.0
C783 C 0.10742 1.00238 0.85225 0.0
C784 C 0.11638 0.95087 0.83301 0.0
C785 C 0.07226 0.95683 0.81764 0.0
N786 N 0.02249 0.99611 0.79647 0.0
N787 N 0.17025 0.96622 0.86847 0.0
C788 C 0.05266 0.98751 0.81627 0.0
C789 C 0.13237 0.97311 0.85131 0.0
N790 N 0.04165 0.03726 0.83681 0.0
N791 N 0.14584 0.92518 0.82844 0.0
H792 H 0.18478 0.98239 0.88135 0.0
H793 H 0.18519 0.94406 0.87091 0.0
H794 H 0.13657 0.90953 0.81417 0.0
H795 H 0.18186 0.92089 0.83688 0.0
H796 H 0.00757 0.04226 0.82691 0.0
H797 H 0.05195 0.05442 0.84977 0.0
H798 H 0.01194 1.01893 0.79293 0.0
H799 H 0.01263 0.9811 0.78196 0.0
C800 C 0.23334 0.14098 0.09822 0.0
C801 C 0.19609 0.13091 0.07996 0.0
C802 C 0.14385 0.10708 0.11362 0.0
C803 C 0.1759 0.12193 0.1318 0.0
N804 N 0.25016 0.15495 0.1414 0.0
N805 N 0.14656 0.08374 0.07286 0.0
C806 C 0.22017 0.13963 0.12406 0.0
C807 C 0.15869 0.10829 0.08801 0.0
N808 N 0.28433 0.14626 0.0913 0.0
N809 N 0.09987 0.09102 0.12078 0.0
H810 H 0.16821 0.07922 0.05667 0.0
H811 H 0.12269 0.06526 0.07851 0.0
H812 H 0.08809 0.08936 0.13944 0.0
H813 H 0.07303 0.0819 0.10791 0.0
H814 H 0.31442 0.15083 0.10404 0.0
H815 H 0.29764 0.14134 0.07325 0.0
H816 H 0.28 0.17053 0.13649 0.0
H817 H 0.24197 0.15419 0.16052 0.0
C818 C 0.37447 0.4154 0.58938 0.0
C819 C 0.33197 0.39907 0.57804 0.0
C820 C 0.29912 0.38416 0.61956 0.0
C821 C 0.33642 0.40459 0.63073 0.0
N822 N 0.40937 0.44031 0.62673 0.0
N823 N 0.25309 0.36804 0.58182 0.0
C824 C 0.37463 0.42003 0.61578 0.0
C825 C 0.29447 0.38306 0.593 0.0
N826 N 0.41477 0.42631 0.57482 0.0
N827 N 0.26831 0.36581 0.63447 0.0
H828 H 0.24929 0.36607 0.56246 0.0
H829 H 0.22104 0.35899 0.59158 0.0
H830 H 0.27102 0.36625 0.65394 0.0
H831 H 0.24357 0.34835 0.62769 0.0
H832 H 0.44942 0.43581 0.582 0.0
H833 H 0.41555 0.42341 0.55545 0.0
H834 H 0.43387 0.45523 0.61671 0.0
H835 H 0.4118 0.44348 0.64604 0.0
C836 C 0.649 0.41292 0.98569 0.0
C837 C 0.67386 0.38629 0.99571 0.0
C838 C 0.68602 0.36676 0.9528 0.0
C839 C 0.65258 0.39016 0.94363 0.0
N840 N 0.59848 0.43456 0.95177 0.0
N841 N 0.74774 0.35414 0.98518 0.0
C842 C 0.63237 0.4127 0.9603 0.0
C843 C 0.70139 0.36733 0.97831 0.0
N844 N 0.65242 0.44056 0.99806 0.0
N845 N 0.70374 0.34408 0.93709 0.0
H846 H 0.76515 0.35889 1.00246 0.0
H847 H 0.77224 0.34252 0.97269 0.0
H848 H 0.69372 0.34307 0.91819 0.0
H849 H 0.72426 0.32486 0.94343 0.0
H850 H 0.63818 0.46123 0.99081 0.0
H851 H 0.67862 0.44376 1.01287 0.0
H852 H 0.57937 0.44999 0.96372 0.0
H853 H 0.58608 0.43525 0.93319 0.0
C854 C 0.84486 0.16521 0.47868 0.0
C855 C 0.88605 0.16065 0.49616 0.0
C856 C 0.95166 0.16677 0.46265 0.0
C857 C 0.91073 0.17382 0.44572 0.0
N858 N 0.8212 0.18367 0.437 0.0
N859 N 0.97869 0.16099 0.50586 0.0
C860 C 0.85783 0.17395 0.45371 0.0
C861 C 0.93954 0.16243 0.48842 0.0
N862 N 0.7938 0.16025 0.48581 0.0
N863 N 0.00185 0.16342 0.4539 0.0
H864 H 0.9714 0.15769 0.52487 0.0
H865 H 0.01814 0.16543 0.5019 0.0
H866 H 0.01189 0.16658 0.43515 0.0
H867 H 0.03267 0.15511 0.46466 0.0
H868 H 0.76225 0.15968 0.47346 0.0
H869 H 0.78314 0.15426 0.50402 0.0
H870 H 0.78155 0.18697 0.44108 0.0
H871 H 0.78155 0.18697 0.44108 0.0
C872 C 0.79173 0.92478 0.97124 0.0
C873 C 0.79762 0.89468 0.98146 0.0
C874 C 0.81426 0.87374 0.93935 0.0
C875 C 0.81161 0.90415 0.92938 0.0
N876 N 0.80928 0.95935 0.93651 0.0
N877 N 0.82542 0.84179 0.97614 0.0
C878 C 0.80382 0.92991 0.94557 0.0
C879 C 0.81222 0.86953 0.96575 0.0
N880 N 0.77244 0.94823 0.98579 0.0
N881 N 0.8165 0.84875 0.92358 0.0
H882 H 0.82473 0.83793 0.99538 0.0
H883 H 0.84166 0.82359 0.96595 0.0
H884 H 0.81797 0.8508 0.90417 0.0
H885 H 0.81255 0.82592 0.9296 0.0
H886 H 0.76168 0.96969 0.9787 0.0
H887 H 0.76289 0.94545 1.00462 0.0
H888 H 0.80953 0.97903 0.94787 0.0
H889 H 0.81857 0.96399 0.91789 0.0
C890 C 0.61495 0.65708 0.48096 0.0
C891 C 0.65214 0.63683 0.49179 0.0
C892 C 0.6694 0.61414 0.45038 0.0
C893 C 0.62661 0.6309 0.44042 0.0
N894 N 0.55607 0.66716 0.44631 0.0
N895 N 0.71186 0.59399 0.48735 0.0
C896 C 0.59902 0.65237 0.45565 0.0
C897 C 0.67911 0.61502 0.47659 0.0
N898 N 0.59536 0.68101 0.49486 0.0
N899 N 0.70101 0.59754 0.43466 0.0
H900 H 0.72032 0.59386 0.50641 0.0
H901 H 0.72765 0.5752 0.47773 0.0
H902 H 0.69493 0.59649 0.41538 0.0
H903 H 0.73592 0.58729 0.44031 0.0
H904 H 0.57206 0.69842 0.48748 0.0
H905 H 0.60637 0.68501 0.5134 0.0
H906 H 0.53055 0.68023 0.45724 0.0
H907 H 0.54383 0.66474 0.42779 0.0
C908 C 0.34132 0.68152 0.08545 0.0
C909 C 0.37914 0.68415 0.066 0.0
C910 C 0.44936 0.68895 0.09732 0.0
C911 C 0.41088 0.6906 0.11654 0.0
N912 N 0.31954 0.69197 0.12881 0.0
N913 N 0.46878 0.69369 0.05308 0.0
C914 C 0.35661 0.6876 0.11062 0.0
C915 C 0.43318 0.68855 0.07184 0.0
N916 N 0.29091 0.67266 0.07985 0.0
N917 N 0.50139 0.68712 0.10349 0.0
H918 H 0.45864 0.69334 0.0342 0.0
H919 H 0.50754 0.70063 0.05626 0.0
H920 H 0.51456 0.68717 0.12195 0.0
H921 H 0.53098 0.68268 0.0905 0.0
H922 H 0.26283 0.66719 0.09337 0.0
H923 H 0.27844 0.66799 0.06163 0.0
H924 H 0.27947 0.6936 0.12513 0.0
H925 H 0.329 0.69648 0.14745 0.0
C926 C 0.1614 0.87387 0.58328 0.0
C927 C 0.12183 0.87221 0.56461 0.0
C928 C 0.05606 0.85851 0.59651 0.0
C929 C 0.09636 0.85776 0.61482 0.0
N930 N 0.18856 0.85995 0.62521 0.0
N931 N 0.03349 0.85814 0.55245 0.0
C932 C 0.14942 0.86413 0.60809 0.0
C933 C 0.06967 0.86315 0.57096 0.0
N934 N 0.20999 0.88567 0.57747 0.0
N935 N 0.00456 0.8558 0.60366 0.0
H936 H 0.04193 0.86141 0.53354 0.0
H937 H 0.99654 0.84825 0.55557 0.0
H938 H 0.99303 0.85231 0.62218 0.0
H939 H 0.97308 0.85956 0.59167 0.0
H940 H 0.23866 0.89078 0.59078 0.0
H941 H 0.2204 0.89265 0.55947 0.0
H942 H 0.22841 0.86086 0.62075 0.0
H943 H 0.18128 0.85308 0.64358 0.0
C944 C 0.09746 0.22911 0.36705 0.0
C945 C 0.11526 0.25769 0.35692 0.0
C946 C 0.07498 0.24373 0.31665 0.0
C947 C 0.06353 0.21351 0.3257 0.0
N948 N 0.06661 0.17673 0.35946 0.0
N949 N 0.12667 0.29096 0.32122 0.0
C950 C 0.07565 0.20602 0.3509 0.0
C951 C 0.10541 0.26471 0.33149 0.0
N952 N 0.09938 0.22453 0.39232 0.0
N953 N 0.0554 0.25281 0.29415 0.0
H954 H 0.14915 0.30687 0.33147 0.0
H955 H 0.12559 0.29569 0.30215 0.0
H956 H 0.03461 0.2378 0.28242 0.0
H957 H 0.05658 0.27566 0.28795 0.0
H958 H 0.08135 0.20582 0.40124 0.0
H959 H 0.11487 0.24091 0.40476 0.0
H960 H 0.08054 0.16859 0.37648 0.0
H961 H 0.0476 0.15991 0.3488 0.0
C962 C 0.3437 0.30682 0.85117 0.0
C963 C 0.3605 0.2756 0.85139 0.0
C964 C 0.43155 0.28889 0.82243 0.0
C965 C 0.41986 0.32095 0.82463 0.0
N966 N 0.36473 0.36059 0.84313 0.0
N967 N 0.42626 0.23789 0.84084 0.0
C968 C 0.37588 0.32999 0.83959 0.0
C969 C 0.40658 0.26707 0.83835 0.0
N970 N 0.29584 0.31417 0.86114 0.0
N971 N 0.46213 0.27874 0.80323 0.0
H972 H 0.40863 0.22105 0.85211 0.0
H973 H 0.46265 0.23147 0.83356 0.0
H974 H 0.47312 0.29352 0.78886 0.0
H975 H 0.46857 0.25539 0.79931 0.0
H976 H 0.27802 0.33557 0.85865 0.0
H977 H 0.27196 0.29805 0.87035 0.0
H978 H 0.33828 0.36848 0.85656 0.0
H979 H 0.38336 0.37843 0.83356 0.0
C980 C 0.64951 0.32431 0.70678 0.0
C981 C 0.65005 0.29154 0.70803 0.0
C982 C 0.59306 0.29306 0.7451 0.0
C983 C 0.59142 0.32611 0.74363 0.0
N984 N 0.63462 0.37241 0.72892 0.0
N985 N 0.63177 0.2448 0.73097 0.0
C986 C 0.62433 0.34152 0.72606 0.0
C987 C 0.6244 0.27595 0.72791 0.0
N988 N 0.67213 0.33906 0.68687 0.0
N989 N 0.56467 0.27771 0.7628 0.0
H990 H 0.65345 0.23129 0.71852 0.0
H991 H 0.61977 0.23257 0.74675 0.0
H992 H 0.55301 0.28821 0.77925 0.0
H993 H 0.55456 0.25429 0.76158 0.0
H994 H 0.6677 0.36266 0.68347 0.0
H995 H 0.692 0.32728 0.67269 0.0
H996 H 0.66267 0.38444 0.71846 0.0
H997 H 0.6194 0.38518 0.74376 0.0
C998 C 0.88506 0.26978 0.24578 0.0
C999 C 0.85413 0.26197 0.2247 0.0
C1000 C 0.89068 0.20957 0.22494 0.0
C1001 C 0.91646 0.21589 0.24828 0.0
N1002 N 0.92847 0.25243 0.2829 0.0
N1003 N 0.81963 0.22285 0.19689 0.0
C1004 C 0.91066 0.24602 0.25933 0.0
C1005 C 0.85483 0.23146 0.215 0.0
N1006 N 0.89158 0.30022 0.25248 0.0
N1007 N 0.9 0.18293 0.21183 0.0
H1008 H 0.79287 0.23819 0.18907 0.0
H1009 H 0.81356 0.19991 0.19132 0.0
H1010 H 0.92274 0.16488 0.21819 0.0
H1011 H 0.88778 0.17959 0.19342 0.0
H1012 H 0.91884 0.30769 0.26579 0.0
H1013 H 0.87381 0.31838 0.24296 0.0
H1014 H 0.91841 0.2725 0.29265 0.0
H1015 H 0.94968 0.23731 0.29382 0.0
C1016 C 0.91805 0.77467 0.726 0.0
C1017 C 0.87826 0.7838 0.70915 0.0
C1018 C 0.88574 0.83764 0.72451 0.0
C1019 C 0.92776 0.82873 0.74055 0.0
N1020 N 0.96875 0.78718 0.7629 0.0
N1021 N 0.8251 0.82365 0.69103 0.0
C1022 C 0.9399 0.79679 0.74296 0.0
C1023 C 0.86203 0.81518 0.70823 0.0
N1024 N 0.93648 0.74501 0.72519 0.0
N1025 N 0.86675 0.86715 0.72554 0.0
H1026 H 0.80472 0.8077 0.67988 0.0
H1027 H 0.81638 0.84648 0.68663 0.0
H1028 H 0.88223 0.88445 0.73694 0.0
H1029 H 0.83253 0.87424 0.71673 0.0
H1030 H 0.96998 0.73796 0.73469 0.0
H1031 H 0.92076 0.72792 0.71344 0.0
H1032 H 0.97414 0.76399 0.76747 0.0
H1033 H 0.98223 0.80242 0.77667 0.0
C1034 C 0.57889 0.77952 0.23186 0.0
C1035 C 0.61967 0.77171 0.21487 0.0
C1036 C 0.59886 0.71665 0.22066 0.0
C1037 C 0.56469 0.72411 0.24072 0.0
N1038 N 0.52266 0.76302 0.266 0.0
N1039 N 0.67253 0.73261 0.1949 0.0
C1040 C 0.55437 0.75572 0.2463 0.0
C1041 C 0.63076 0.74019 0.20974 0.0
N1042 N 0.56317 0.80965 0.2339 0.0
N1043 N 0.59815 0.68745 0.21083 0.0
H1044 H 0.69647 0.74918 0.18626 0.0
H1045 H 0.68581 0.70996 0.19282 0.0
H1046 H 0.57222 0.67043 0.21722 0.0
H1047 H 0.61826 0.68136 0.19457 0.0
H1048 H 0.53016 0.81656 0.24394 0.0
H1049 H 0.58054 0.82763 0.22374 0.0
H1050 H 0.51685 0.78548 0.27255 0.0
H1051 H 0.50585 0.74613 0.27735 0.0
C1052 C 0.37575 0.76052 0.32778 0.0
C1053 C 0.34655 0.7475 0.34781 0.0
C1054 C 0.36771 0.69519 0.33251 0.0
C1055 C 0.39879 0.70855 0.3132 0.0
N1056 N 0.40763 0.75278 0.28582 0.0
N1057 N 0.30461 0.70284 0.36633 0.0
C1058 C 0.39534 0.74085 0.30868 0.0
C1059 C 0.3394 0.71483 0.3493 0.0
N1060 N 0.38665 0.79161 0.32737 0.0
N1061 N 0.36386 0.66367 0.334 0.0
H1062 H 0.28278 0.71669 0.37846 0.0
H1063 H 0.29462 0.67948 0.36765 0.0
H1064 H 0.37912 0.64916 0.32018 0.0
H1065 H 0.34573 0.65176 0.34856 0.0
H1066 H 0.41281 0.80157 0.31462 0.0
H1067 H 0.37372 0.80694 0.34116 0.0
H1068 H 0.40168 0.77593 0.28123 0.0
H1069 H 0.41666 0.73904 0.27042 0.0
C1070 C 0.14807 0.77505 0.80983 0.0
C1071 C 0.15552 0.77624 0.83597 0.0
C1072 C 0.11459 0.82727 0.83693 0.0
C1073 C 0.09814 0.82395 0.81135 0.0
N1074 N 0.09232 0.78824 0.7756 0.0
N1075 N 0.13567 0.80075 0.87533 0.0
C1076 C 0.11305 0.79614 0.79832 0.0
C1077 C 0.13568 0.80149 0.84979 0.0
N1078 N 0.17522 0.7541 0.7957 0.0
N1079 N 0.11247 0.85513 0.84908 0.0
H1080 H 0.15056 0.78223 0.88551 0.0
H1081 H 0.11612 0.81708 0.88627 0.0
H1082 H 0.09992 0.87541 0.84095 0.0
H1083 H 0.12924 0.85889 0.86663 0.0
H1084 H 0.17571 0.75463 0.77621 0.0
H1085 H 0.20151 0.73837 0.80337 0.0
H1086 H 0.0972 0.76636 0.76759 0.0
H1087 H 0.06691 0.8017 0.76537 0.0
loop_
_geom_bond_atom_site_label_1
_geom_bond_atom_site_label_2
_geom_bond_distance
_geom_bond_site_symmetry_2
_ccdc_geom_bond_type
C0 C1 1.264 . S
C0 C5 1.479 . S
C0 C10 1.465 . S
C1 C0 1.264 . S
C1 C3 1.339 . S
C1 H28 0.931 . S
C2 C3 1.395 . S
C2 C4 1.320 . S
C3 C1 1.339 . S
C3 C2 1.395 . S
C3 H29 0.929 . S
C4 C2 1.320 . S
C4 C5 1.405 . S
C4 H30 0.930 . S
C5 C0 1.479 . S
C5 C4 1.405 . S
C5 H31 0.931 . S
U6 O7 2.454 . S
U6 O8 2.458 . S
U6 C9 2.984 . S
U6 C10 2.847 . S
U6 C23 2.882 . S
U6 O24 2.441 . S
U6 O25 2.420 . S
U6 O26 2.455 . S
U6 O27 2.449 . S
O7 U6 2.454 . S
O7 C9 1.353 . S
O8 U6 2.458 . S
O8 C9 1.286 . S
C9 U6 2.984 . S
C9 O7 1.353 . S
C9 O8 1.286 . S
C9 C11 1.363 . S
C10 C0 1.465 . S
C10 U6 2.847 . S
C10 O24 1.249 . S
C10 O25 1.202 . S
C11 C9 1.363 . S
C11 C13 1.408 . S
C11 C16 1.342 . S
C12 C13 1.310 . S
C12 C15 1.461 . S
C12 H32 0.932 . S
C13 C11 1.408 . S
C13 C12 1.310 . S
C13 H33 0.930 . S
C14 C15 1.474 . S
C14 C16 1.285 . S
C14 H34 0.929 . S
C15 C12 1.461 . S
C15 C14 1.474 . S
C16 C11 1.342 . S
C16 C14 1.285 . S
C16 H35 0.930 . S
C17 C20 1.424 . S
C17 C22 1.245 . S
C17 C23 1.428 . S
C18 C21 1.260 . S
C18 C22 1.477 . S
C18 H36 0.932 . S
C19 C20 1.384 . S
C19 C21 1.479 . S
C19 H37 0.929 . S
C20 C17 1.424 . S
C20 C19 1.384 . S
C20 H38 0.928 . S
C21 C18 1.260 . S
C21 C19 1.479 . S
C22 C17 1.245 . S
C22 C18 1.477 . S
C22 H39 0.932 . S
C23 U6 2.882 . S
C23 C17 1.428 . S
C23 O26 1.301 . S
C23 O27 1.282 . S
O24 U6 2.441 . S
O24 C10 1.249 . S
O25 U6 2.420 . S
O25 C10 1.202 . S
O26 U6 2.455 . S
O26 C23 1.301 . S
O27 U6 2.449 . S
O27 C23 1.282 . S
H28 C1 0.931 . S
H29 C3 0.929 . S
H30 C4 0.930 . S
H31 C5 0.931 . S
H32 C12 0.932 . S
H33 C13 0.930 . S
H34 C14 0.929 . S
H35 C16 0.930 . S
H36 C18 0.932 . S
H37 C19 0.929 . S
H38 C20 0.928 . S
H39 C22 0.932 . S
C40 C41 1.264 . S
C40 C45 1.479 . S
C40 C50 1.465 . S
C41 C40 1.264 . S
C41 C43 1.339 1_556 S
C41 H68 0.931 . S
C42 C43 1.395 . S
C42 C44 1.320 . S
C43 C41 1.339 1_554 S
C43 C42 1.395 . S
C43 H69 0.929 . S
C44 C42 1.320 . S
C44 C45 1.405 1_554 S
C44 H70 0.930 . S
C45 C40 1.479 . S
C45 C44 1.405 1_556 S
C45 H71 0.931 . S
U46 O47 2.454 . S
U46 O48 2.458 . S
U46 C49 2.984 . S
U46 C50 2.847 . S
U46 C63 2.882 . S
U46 O64 2.441 . S
U46 O65 2.420 . S
U46 O66 2.455 . S
U46 O67 2.449 . S
O47 U46 2.454 . S
O47 C49 1.353 . S
O48 U46 2.458 . S
O48 C49 1.286 . S
C49 U46 2.984 . S
C49 O47 1.353 . S
C49 O48 1.286 . S
C49 C51 1.363 . S
C50 C40 1.465 . S
C50 U46 2.847 . S
C50 O64 1.249 . S
C50 O65 1.202 . S
C51 C49 1.363 . S
C51 C53 1.408 . S
C51 C56 1.342 . S
C52 C53 1.310 . S
C52 C55 1.461 . S
C52 H72 0.932 . S
C53 C51 1.408 . S
C53 C52 1.310 . S
C53 H73 0.930 . S
C54 C55 1.474 . S
C54 C56 1.285 . S
C54 H74 0.929 . S
C55 C52 1.461 . S
C55 C54 1.474 . S
C56 C51 1.342 . S
C56 C54 1.285 . S
C56 H75 0.930 . S
C57 C60 1.424 . S
C57 C62 1.245 . S
C57 C63 1.428 . S
C58 C61 1.260 1_545 S
C58 C62 1.477 . S
C58 H76 0.932 . S
C59 C60 1.378 1_565 S
C59 C61 1.480 . S
C59 H77 0.933 . S
C60 C57 1.424 . S
C60 C59 1.378 1_545 S
C60 H78 0.928 . S
C61 C58 1.260 1_565 S
C61 C59 1.480 . S
C62 C57 1.245 . S
C62 C58 1.477 . S
C62 H79 0.932 . S
C63 U46 2.882 . S
C63 C57 1.428 . S
C63 O66 1.301 . S
C63 O67 1.282 . S
O64 U46 2.441 . S
O64 C50 1.249 . S
O65 U46 2.420 . S
O65 C50 1.202 . S
O66 U46 2.455 . S
O66 C63 1.301 . S
O67 U46 2.449 . S
O67 C63 1.282 . S
H68 C41 0.931 . S
H69 C43 0.929 . S
H70 C44 0.930 . S
H71 C45 0.931 . S
H72 C52 0.932 . S
H73 C53 0.930 . S
H74 C54 0.929 . S
H75 C56 0.930 . S
H76 C58 0.932 . S
H77 C59 0.933 . S
H78 C60 0.928 . S
H79 C62 0.932 . S
C80 C81 1.264 . S
C80 C85 1.479 . S
C80 C90 1.465 . S
C81 C80 1.264 . S
C81 C83 1.339 1_545 S
C81 H108 0.931 . S
C82 C83 1.395 . S
C82 C84 1.320 1_565 S
C83 C81 1.339 1_565 S
C83 C82 1.395 . S
C83 H109 0.929 . S
C84 C82 1.320 1_545 S
C84 C85 1.405 . S
C84 H110 0.930 . S
C85 C80 1.479 . S
C85 C84 1.405 . S
C85 H111 0.931 . S
U86 O87 2.454 . S
U86 O88 2.458 . S
U86 C89 2.984 . S
U86 C90 2.847 . S
U86 C103 2.882 . S
U86 O104 2.441 . S
U86 O105 2.420 . S
U86 O106 2.455 . S
U86 O107 2.449 . S
O87 U86 2.454 . S
O87 C89 1.353 . S
O88 U86 2.458 . S
O88 C89 1.286 . S
C89 U86 2.984 . S
C89 O87 1.353 . S
C89 O88 1.286 . S
C89 C91 1.363 . S
C90 C80 1.465 . S
C90 U86 2.847 . S
C90 O104 1.249 . S
C90 O105 1.202 . S
C91 C89 1.363 . S
C91 C93 1.408 . S
C91 C96 1.342 . S
C92 C93 1.310 . S
C92 C95 1.461 . S
C92 H112 0.932 . S
C93 C91 1.408 . S
C93 C92 1.310 . S
C93 H113 0.930 . S
C94 C95 1.474 . S
C94 C96 1.285 . S
C94 H114 0.929 . S
C95 C92 1.461 . S
C95 C94 1.474 . S
C96 C91 1.342 . S
C96 C94 1.285 . S
C96 H115 0.930 . S
C97 C100 1.424 . S
C97 C102 1.245 . S
C97 C103 1.428 . S
C98 C101 1.260 . S
C98 C102 1.477 . S
C98 H116 0.932 . S
C99 C100 1.384 . S
C99 C101 1.479 . S
C99 H117 0.929 . S
C100 C97 1.424 . S
C100 C99 1.384 . S
C100 H118 0.928 . S
C101 C98 1.260 . S
C101 C99 1.479 . S
C102 C97 1.245 . S
C102 C98 1.477 . S
C102 H119 0.932 . S
C103 U86 2.882 . S
C103 C97 1.428 . S
C103 O106 1.301 . S
C103 O107 1.282 . S
O104 U86 2.441 . S
O104 C90 1.249 . S
O105 U86 2.420 . S
O105 C90 1.202 . S
O106 U86 2.455 . S
O106 C103 1.301 . S
O107 U86 2.449 . S
O107 C103 1.282 . S
H108 C81 0.931 . S
H109 C83 0.929 . S
H110 C84 0.930 . S
H111 C85 0.931 . S
H112 C92 0.932 . S
H113 C93 0.930 . S
H114 C94 0.929 . S
H115 C96 0.930 . S
H116 C98 0.932 . S
H117 C99 0.929 . S
H118 C100 0.928 . S
H119 C102 0.932 . S
C120 C121 1.264 . S
C120 C125 1.479 . S
C120 C130 1.465 . S
C121 C120 1.264 . S
C121 C123 1.339 1_554 S
C121 H148 0.931 . S
C122 C123 1.395 . S
C122 C124 1.320 . S
C123 C121 1.339 1_556 S
C123 C122 1.395 . S
C123 H149 0.929 . S
C124 C122 1.320 . S
C124 C125 1.405 1_556 S
C124 H150 0.930 . S
C125 C120 1.479 . S
C125 C124 1.405 1_554 S
C125 H151 0.931 . S
U126 O127 2.454 . S
U126 O128 2.458 . S
U126 C129 2.984 . S
U126 C130 2.847 . S
U126 C143 2.882 . S
U126 O144 2.441 . S
U126 O145 2.420 . S
U126 O146 2.455 . S
U126 O147 2.449 . S
O127 U126 2.454 . S
O127 C129 1.353 . S
O128 U126 2.458 . S
O128 C129 1.286 . S
C129 U126 2.984 . S
C129 O127 1.353 . S
C129 O128 1.286 . S
C129 C131 1.363 . S
C130 C120 1.465 . S
C130 U126 2.847 . S
C130 O144 1.249 . S
C130 O145 1.202 . S
C131 C129 1.363 . S
C131 C133 1.408 . S
C131 C136 1.342 . S
C132 C133 1.310 . S
C132 C135 1.461 . S
C132 H152 0.932 . S
C133 C131 1.408 . S
C133 C132 1.310 . S
C133 H153 0.930 . S
C134 C135 1.474 . S
C134 C136 1.285 . S
C134 H154 0.929 . S
C135 C132 1.461 . S
C135 C134 1.474 . S
C136 C131 1.342 . S
C136 C134 1.285 . S
C136 H155 0.930 . S
C137 C140 1.424 . S
C137 C142 1.245 . S
C137 C143 1.428 . S
C138 C141 1.260 . S
C138 C142 1.477 . S
C138 H156 0.932 . S
C139 C140 1.384 . S
C139 C141 1.479 . S
C139 H157 0.929 . S
C140 C137 1.424 . S
C140 C139 1.384 . S
C140 H158 0.928 . S
C141 C138 1.260 . S
C141 C139 1.479 . S
C142 C137 1.245 . S
C142 C138 1.477 . S
C142 H159 0.932 . S
C143 U126 2.882 . S
C143 C137 1.428 . S
C143 O146 1.301 . S
C143 O147 1.282 . S
O144 U126 2.441 . S
O144 C130 1.249 . S
O145 U126 2.420 . S
O145 C130 1.202 . S
O146 U126 2.455 . S
O146 C143 1.301 . S
O147 U126 2.449 . S
O147 C143 1.282 . S
H148 C121 0.931 . S
H149 C123 0.929 . S
H150 C124 0.930 . S
H151 C125 0.931 . S
H152 C132 0.932 . S
H153 C133 0.930 . S
H154 C134 0.929 . S
H155 C136 0.930 . S
H156 C138 0.932 . S
H157 C139 0.929 . S
H158 C140 0.928 . S
H159 C142 0.932 . S
C160 C161 1.264 . S
C160 C165 1.479 . S
C160 C170 1.465 . S
C161 C160 1.264 . S
C161 C163 1.339 . S
C161 H188 0.931 . S
C162 C163 1.395 . S
C162 C164 1.320 . S
C163 C161 1.339 . S
C163 C162 1.395 . S
C163 H189 0.929 . S
C164 C162 1.320 . S
C164 C165 1.405 . S
C164 H190 0.930 . S
C165 C160 1.479 . S
C165 C164 1.405 . S
C165 H191 0.931 . S
U166 O167 2.454 . S
U166 O168 2.458 . S
U166 C169 2.984 . S
U166 C170 2.847 . S
U166 C183 2.882 . S
U166 O184 2.441 . S
U166 O185 2.420 . S
U166 O186 2.455 . S
U166 O187 2.449 . S
O167 U166 2.454 . S
O167 C169 1.353 . S
O168 U166 2.458 . S
O168 C169 1.286 . S
C169 U166 2.984 . S
C169 O167 1.353 . S
C169 O168 1.286 . S
C169 C171 1.363 . S
C170 C160 1.465 . S
C170 U166 2.847 . S
C170 O184 1.249 . S
C170 O185 1.202 . S
C171 C169 1.363 . S
C171 C173 1.408 . S
C171 C176 1.342 . S
C172 C173 1.310 . S
C172 C175 1.461 . S
C172 H192 0.932 . S
C173 C171 1.408 . S
C173 C172 1.310 . S
C173 H193 0.930 . S
C174 C175 1.474 . S
C174 C176 1.285 . S
C174 H194 0.929 . S
C175 C172 1.461 . S
C175 C174 1.474 . S
C176 C171 1.342 . S
C176 C174 1.285 . S
C176 H195 0.930 . S
C177 C180 1.424 . S
C177 C182 1.245 . S
C177 C183 1.428 . S
C178 C181 1.260 . S
C178 C182 1.477 . S
C178 H196 0.932 . S
C179 C180 1.384 . S
C179 C181 1.479 . S
C179 H197 0.929 . S
C180 C177 1.424 . S
C180 C179 1.384 . S
C180 H198 0.928 . S
C181 C178 1.260 . S
C181 C179 1.479 . S
C182 C177 1.245 . S
C182 C178 1.477 . S
C182 H199 0.932 . S
C183 U166 2.882 . S
C183 C177 1.428 . S
C183 O186 1.301 . S
C183 O187 1.282 . S
O184 U166 2.441 . S
O184 C170 1.249 . S
O185 U166 2.420 . S
O185 C170 1.202 . S
O186 U166 2.455 . S
O186 C183 1.301 . S
O187 U166 2.449 . S
O187 C183 1.282 . S
H188 C161 0.931 . S
H189 C163 0.929 . S
H190 C164 0.930 . S
H191 C165 0.931 . S
H192 C172 0.932 . S
H193 C173 0.930 . S
H194 C174 0.929 . S
H195 C176 0.930 . S
H196 C178 0.932 . S
H197 C179 0.929 . S
H198 C180 0.928 . S
H199 C182 0.932 . S
C200 C201 1.264 . S
C200 C205 1.479 . S
C200 C210 1.465 . S
C201 C200 1.264 . S
C201 C203 1.339 1_554 S
C201 H228 0.931 . S
C202 C203 1.395 . S
C202 C204 1.320 . S
C203 C201 1.339 1_556 S
C203 C202 1.395 . S
C203 H229 0.929 . S
C204 C202 1.320 . S
C204 C205 1.405 1_556 S
C204 H230 0.930 . S
C205 C200 1.479 . S
C205 C204 1.405 1_554 S
C205 H231 0.931 . S
U206 O207 2.454 . S
U206 O208 2.458 . S
U206 C209 2.984 . S
U206 C210 2.847 . S
U206 C223 2.882 . S
U206 O224 2.441 . S
U206 O225 2.420 . S
U206 O226 2.455 . S
U206 O227 2.449 . S
O207 U206 2.454 . S
O207 C209 1.353 . S
O208 U206 2.458 . S
O208 C209 1.286 . S
C209 U206 2.984 . S
C209 O207 1.353 . S
C209 O208 1.286 . S
C209 C211 1.363 . S
C210 C200 1.465 . S
C210 U206 2.847 . S
C210 O224 1.249 . S
C210 O225 1.202 . S
C211 C209 1.363 . S
C211 C213 1.408 . S
C211 C216 1.342 . S
C212 C213 1.310 . S
C212 C215 1.461 . S
C212 H232 0.932 . S
C213 C211 1.408 . S
C213 C212 1.310 . S
C213 H233 0.930 . S
C214 C215 1.474 . S
C214 C216 1.285 . S
C214 H234 0.929 . S
C215 C212 1.461 . S
C215 C214 1.474 . S
C216 C211 1.342 . S
C216 C214 1.285 . S
C216 H235 0.930 . S
C217 C220 1.424 . S
C217 C222 1.245 . S
C217 C223 1.428 . S
C218 C221 1.260 1_565 S
C218 C222 1.477 . S
C218 H236 0.932 . S
C219 C220 1.384 1_545 S
C219 C221 1.479 . S
C219 H237 0.929 . S
C220 C217 1.424 . S
C220 C219 1.384 1_565 S
C220 H238 0.928 . S
C221 C218 1.260 1_545 S
C221 C219 1.479 . S
C222 C217 1.245 . S
C222 C218 1.477 . S
C222 H239 0.932 . S
C223 U206 2.882 . S
C223 C217 1.428 . S
C223 O226 1.301 . S
C223 O227 1.282 . S
O224 U206 2.441 . S
O224 C210 1.249 . S
O225 U206 2.420 . S
O225 C210 1.202 . S
O226 U206 2.455 . S
O226 C223 1.301 . S
O227 U206 2.449 . S
O227 C223 1.282 . S
H228 C201 0.931 . S
H229 C203 0.929 . S
H230 C204 0.930 . S
H231 C205 0.931 . S
H232 C212 0.932 . S
H233 C213 0.930 . S
H234 C214 0.929 . S
H235 C216 0.930 . S
H236 C218 0.932 . S
H237 C219 0.929 . S
H238 C220 0.928 . S
H239 C222 0.932 . S
C240 C241 1.264 . S
C240 C245 1.479 . S
C240 C250 1.465 . S
C241 C240 1.264 . S
C241 C243 1.339 . S
C241 H268 0.931 . S
C242 C243 1.395 1_545 S
C242 C244 1.320 1_545 S
C243 C241 1.339 . S
C243 C242 1.395 1_565 S
C243 H269 0.929 1_565 S
C244 C242 1.320 1_565 S
C244 C245 1.405 . S
C244 H270 0.930 . S
C245 C240 1.479 . S
C245 C244 1.405 . S
C245 H271 0.931 . S
U246 O247 2.454 . S
U246 O248 2.458 . S
U246 C249 2.984 . S
U246 C250 2.847 . S
U246 C263 2.882 . S
U246 O264 2.441 . S
U246 O265 2.420 . S
U246 O266 2.455 . S
U246 O267 2.449 . S
O247 U246 2.454 . S
O247 C249 1.353 . S
O248 U246 2.458 . S
O248 C249 1.286 . S
C249 U246 2.984 . S
C249 O247 1.353 . S
C249 O248 1.286 . S
C249 C251 1.363 . S
C250 C240 1.465 . S
C250 U246 2.847 . S
C250 O264 1.249 . S
C250 O265 1.202 . S
C251 C249 1.363 . S
C251 C253 1.408 . S
C251 C256 1.342 . S
C252 C253 1.310 . S
C252 C255 1.461 . S
C252 H272 0.932 . S
C253 C251 1.408 . S
C253 C252 1.310 . S
C253 H273 0.930 . S
C254 C255 1.474 . S
C254 C256 1.285 . S
C254 H274 0.929 . S
C255 C252 1.461 . S
C255 C254 1.474 . S
C256 C251 1.342 . S
C256 C254 1.285 . S
C256 H275 0.930 . S
C257 C260 1.424 . S
C257 C262 1.245 . S
C257 C263 1.428 . S
C258 C261 1.260 . S
C258 C262 1.477 . S
C258 H276 0.932 . S
C259 C260 1.384 . S
C259 C261 1.479 . S
C259 H277 0.929 . S
C260 C257 1.424 . S
C260 C259 1.384 . S
C260 H278 0.928 . S
C261 C258 1.260 . S
C261 C259 1.479 . S
C262 C257 1.245 . S
C262 C258 1.477 . S
C262 H279 0.932 . S
C263 U246 2.882 . S
C263 C257 1.428 . S
C263 O266 1.301 . S
C263 O267 1.282 . S
O264 U246 2.441 . S
O264 C250 1.249 . S
O265 U246 2.420 . S
O265 C250 1.202 . S
O266 U246 2.455 . S
O266 C263 1.301 . S
O267 U246 2.449 . S
O267 C263 1.282 . S
H268 C241 0.931 . S
H269 C243 0.929 1_545 S
H270 C244 0.930 . S
H271 C245 0.931 . S
H272 C252 0.932 . S
H273 C253 0.930 . S
H274 C254 0.929 . S
H275 C256 0.930 . S
H276 C258 0.932 . S
H277 C259 0.929 . S
H278 C260 0.928 . S
H279 C262 0.932 . S
C280 C281 1.264 . S
C280 C285 1.479 . S
C280 C290 1.465 . S
C281 C280 1.264 . S
C281 C283 1.339 1_556 S
C281 H308 0.931 . S
C282 C283 1.395 . S
C282 C284 1.320 . S
C283 C281 1.339 1_554 S
C283 C282 1.395 . S
C283 H309 0.929 . S
C284 C282 1.320 . S
C284 C285 1.405 1_554 S
C284 H310 0.930 . S
C285 C280 1.479 . S
C285 C284 1.405 1_556 S
C285 H311 0.931 . S
U286 O287 2.454 . S
U286 O288 2.458 . S
U286 C289 2.984 . S
U286 C290 2.847 . S
U286 C303 2.882 . S
U286 O304 2.441 . S
U286 O305 2.420 . S
U286 O306 2.455 . S
U286 O307 2.449 . S
O287 U286 2.454 . S
O287 C289 1.353 . S
O288 U286 2.458 . S
O288 C289 1.286 . S
C289 U286 2.984 . S
C289 O287 1.353 . S
C289 O288 1.286 . S
C289 C291 1.363 . S
C290 C280 1.465 . S
C290 U286 2.847 . S
C290 O304 1.249 . S
C290 O305 1.202 . S
C291 C289 1.363 . S
C291 C293 1.408 . S
C291 C296 1.342 . S
C292 C293 1.310 . S
C292 C295 1.461 . S
C292 H312 0.932 . S
C293 C291 1.408 . S
C293 C292 1.310 . S
C293 H313 0.930 . S
C294 C295 1.474 . S
C294 C296 1.285 . S
C294 H314 0.929 . S
C295 C292 1.461 . S
C295 C294 1.474 . S
C296 C291 1.342 . S
C296 C294 1.285 . S
C296 H315 0.930 . S
C297 C300 1.424 . S
C297 C302 1.245 . S
C297 C303 1.428 . S
C298 C301 1.260 . S
C298 C302 1.477 . S
C298 H316 0.932 . S
C299 C300 1.384 . S
C299 C301 1.479 . S
C299 H317 0.929 . S
C300 C297 1.424 . S
C300 C299 1.384 . S
C300 H318 0.928 . S
C301 C298 1.260 . S
C301 C299 1.479 . S
C302 C297 1.245 . S
C302 C298 1.477 . S
C302 H319 0.932 . S
C303 U286 2.882 . S
C303 C297 1.428 . S
C303 O306 1.301 . S
C303 O307 1.282 . S
O304 U286 2.441 . S
O304 C290 1.249 . S
O305 U286 2.420 . S
O305 C290 1.202 . S
O306 U286 2.455 . S
O306 C303 1.301 . S
O307 U286 2.449 . S
O307 C303 1.282 . S
H308 C281 0.931 . S
H309 C283 0.929 . S
H310 C284 0.930 . S
H311 C285 0.931 . S
H312 C292 0.932 . S
H313 C293 0.930 . S
H314 C294 0.929 . S
H315 C296 0.930 . S
H316 C298 0.932 . S
H317 C299 0.929 . S
H318 C300 0.928 . S
H319 C302 0.932 . S
Tb320 N349 2.617 . S
Tb320 N355 2.572 . S
Tb320 O364 2.465 . S
Tb320 O365 2.387 . S
Tb320 O367 2.428 . S
Tb320 O368 2.293 1_455 S
Tb320 O372 2.349 . S
Tb320 O375 2.393 . S
Tb320 C384 2.802 . S
C321 N322 1.379 . S
C321 C324 1.416 . S
C321 C328 1.424 . S
N322 C321 1.379 . S
N322 C325 1.334 . S
N322 Tb331 2.617 . S
C323 C325 1.390 . S
C323 C326 1.339 . S
C323 H343 0.930 . S
C324 C321 1.416 . S
C324 C326 1.416 . S
C324 C330 1.448 . S
C325 N322 1.334 . S
C325 C323 1.390 . S
C325 H336 0.930 . S
C326 C323 1.339 . S
C326 C324 1.416 . S
C326 H347 0.930 . S
C327 C328 1.413 . S
C327 C329 1.427 . S
C327 C333 1.416 . S
C328 C321 1.424 . S
C328 C327 1.413 . S
C328 N332 1.361 . S
C329 C327 1.427 . S
C329 C330 1.328 . S
C329 H344 0.929 . S
C330 C324 1.448 . S
C330 C329 1.328 . S
C330 H345 0.930 . S
Tb331 N322 2.617 . S
Tb331 N332 2.572 . S
Tb331 O366 2.349 1_655 S
Tb331 O369 2.393 . S
Tb331 O370 2.465 . S
Tb331 O371 2.387 . S
Tb331 O373 2.428 . S
Tb331 O374 2.308 1_655 S
Tb331 C395 2.802 . S
N332 C328 1.361 . S
N332 Tb331 2.572 . S
N332 C334 1.340 . S
C333 C327 1.416 . S
C333 C335 1.332 . S
C333 H341 0.931 . S
C334 N332 1.340 . S
C334 C335 1.407 . S
C334 H340 0.930 . S
C335 C333 1.332 . S
C335 C334 1.407 . S
C335 H337 0.929 . S
H336 C325 0.930 . S
H337 C335 0.929 . S
H338 C353 0.930 . S
H339 C360 0.929 . S
H340 C334 0.930 . S
H341 C333 0.931 . S
H342 C356 0.930 . S
H343 C323 0.930 . S
H344 C329 0.929 . S
H345 C330 0.930 . S
H346 C351 0.930 . S
H347 C326 0.930 . S
H348 C359 0.931 . S
N349 Tb320 2.617 . S
N349 C350 1.379 . S
N349 C353 1.334 . S
C350 N349 1.379 . S
C350 C352 1.416 . S
C350 C358 1.424 . S
C351 H346 0.930 . S
C351 C353 1.390 . S
C351 C354 1.339 . S
C352 C350 1.416 . S
C352 C354 1.416 . S
C352 C385 1.448 . S
C353 H338 0.930 . S
C353 N349 1.334 . S
C353 C351 1.390 . S
C354 C351 1.339 . S
C354 C352 1.416 . S
C354 H361 0.930 . S
N355 Tb320 2.572 . S
N355 C356 1.340 . S
N355 C358 1.361 . S
C356 H342 0.930 . S
C356 N355 1.340 . S
C356 C360 1.407 . S
C357 C358 1.413 . S
C357 C359 1.416 . S
C357 C386 1.427 . S
C358 C350 1.424 . S
C358 N355 1.361 . S
C358 C357 1.413 . S
C359 H348 0.931 . S
C359 C357 1.416 . S
C359 C360 1.332 . S
C360 H339 0.929 . S
C360 C356 1.407 . S
C360 C359 1.332 . S
H361 C354 0.930 . S
H362 C385 0.930 . S
H363 C386 0.929 . S
O364 Tb320 2.465 . S
O364 C384 1.264 . S
O365 Tb320 2.387 . S
O365 C376 1.264 . S
O366 Tb331 2.349 1_455 S
O366 C376 1.243 . S
O367 Tb320 2.428 . S
O367 C384 1.256 . S
O368 Tb320 2.293 1_655 S
O368 C383 1.284 . S
O369 Tb331 2.393 . S
O369 C383 1.248 . S
O370 Tb331 2.465 . S
O370 C395 1.264 . S
O371 Tb331 2.387 . S
O371 C387 1.264 . S
O372 Tb320 2.349 . S
O372 C387 1.243 1_455 S
O373 Tb331 2.428 . S
O373 C395 1.256 . S
O374 Tb331 2.308 1_455 S
O374 C394 1.266 . S
O375 Tb320 2.393 . S
O375 C394 1.248 . S
C376 O365 1.264 . S
C376 O366 1.243 . S
C377 C380 1.399 . S
C377 C382 1.383 . S
C377 C384 1.496 . S
C378 C379 1.399 . S
C378 C382 1.389 . S
C379 C378 1.399 . S
C379 C381 1.380 . S
C379 H396 0.929 . S
C380 C377 1.399 . S
C380 C381 1.392 . S
C380 H397 0.929 . S
C381 C379 1.380 . S
C381 C380 1.392 . S
C381 H398 0.929 . S
C382 C377 1.383 . S
C382 C378 1.389 . S
C382 H399 0.931 . S
C383 O368 1.284 . S
C383 O369 1.248 . S
C384 Tb320 2.802 . S
C384 O364 1.264 . S
C384 O367 1.256 . S
C384 C377 1.496 . S
C385 C352 1.448 . S
C385 H362 0.930 . S
C385 C386 1.328 . S
C386 C357 1.427 . S
C386 H363 0.929 . S
C386 C385 1.328 . S
C387 O371 1.264 . S
C387 O372 1.243 1_655 S
C388 C391 1.399 . S
C388 C392 1.383 . S
C388 C395 1.496 . S
C389 C390 1.399 . S
C389 C392 1.389 . S
C390 C389 1.399 . S
C390 C393 1.380 . S
C390 H400 0.929 . S
C391 C388 1.399 . S
C391 C393 1.392 . S
C391 H401 0.929 . S
C392 C388 1.383 . S
C392 C389 1.389 . S
C392 H402 0.931 . S
C393 C390 1.380 . S
C393 C391 1.392 . S
C393 H403 0.929 . S
C394 O374 1.266 . S
C394 O375 1.248 . S
C395 Tb331 2.802 . S
C395 O370 1.264 . S
C395 O373 1.256 . S
C395 C388 1.496 . S
H396 C379 0.929 . S
H397 C380 0.929 . S
H398 C381 0.929 . S
H399 C382 0.931 . S
H400 C390 0.929 . S
H401 C391 0.929 . S
H402 C392 0.931 . S
H403 C393 0.929 . S
Tb404 N433 2.617 . S
Tb404 N439 2.572 . S
Tb404 O448 2.465 . S
Tb404 O449 2.387 . S
Tb404 O451 2.428 . S
Tb404 O452 2.308 . S
Tb404 O456 2.349 . S
Tb404 O459 2.393 . S
Tb404 C468 2.802 . S
C405 N406 1.379 . S
C405 C408 1.416 . S
C405 C412 1.424 . S
N406 C405 1.379 . S
N406 C409 1.334 . S
N406 Tb415 2.617 . S
C407 C409 1.390 . S
C407 C410 1.339 . S
C407 H427 0.930 . S
C408 C405 1.416 . S
C408 C410 1.416 . S
C408 C414 1.448 . S
C409 N406 1.334 . S
C409 C407 1.390 . S
C409 H420 0.930 . S
C410 C407 1.339 . S
C410 C408 1.416 . S
C410 H431 0.930 . S
C411 C412 1.413 . S
C411 C413 1.427 . S
C411 C417 1.416 . S
C412 C405 1.424 . S
C412 C411 1.413 . S
C412 N416 1.361 . S
C413 C411 1.427 . S
C413 C414 1.328 . S
C413 H428 0.929 . S
C414 C408 1.448 . S
C414 C413 1.328 . S
C414 H429 0.930 . S
Tb415 N406 2.617 . S
Tb415 N416 2.572 . S
Tb415 O450 2.349 . S
Tb415 O453 2.393 . S
Tb415 O454 2.465 . S
Tb415 O455 2.387 . S
Tb415 O457 2.428 . S
Tb415 O458 2.308 . S
Tb415 C479 2.802 . S
N416 C412 1.361 . S
N416 Tb415 2.572 . S
N416 C418 1.340 . S
C417 C411 1.416 . S
C417 C419 1.332 . S
C417 H425 0.931 . S
C418 N416 1.340 . S
C418 C419 1.407 . S
C418 H424 0.930 . S
C419 C417 1.332 . S
C419 C418 1.407 . S
C419 H421 0.929 . S
H420 C409 0.930 . S
H421 C419 0.929 . S
H422 C437 0.930 . S
H423 C444 0.929 . S
H424 C418 0.930 . S
H425 C417 0.931 . S
H426 C440 0.930 . S
H427 C407 0.930 . S
H428 C413 0.929 . S
H429 C414 0.930 . S
H430 C435 0.930 . S
H431 C410 0.930 . S
H432 C443 0.931 . S
N433 Tb404 2.617 . S
N433 C434 1.379 . S
N433 C437 1.334 . S
C434 N433 1.379 . S
C434 C436 1.416 . S
C434 C442 1.424 . S
C435 H430 0.930 . S
C435 C437 1.390 . S
C435 C438 1.339 . S
C436 C434 1.416 . S
C436 C438 1.416 . S
C436 C469 1.448 . S
C437 H422 0.930 . S
C437 N433 1.334 . S
C437 C435 1.390 . S
C438 C435 1.339 . S
C438 C436 1.416 . S
C438 H445 0.930 . S
N439 Tb404 2.572 . S
N439 C440 1.340 . S
N439 C442 1.361 . S
C440 H426 0.930 . S
C440 N439 1.340 . S
C440 C444 1.407 . S
C441 C442 1.413 . S
C441 C443 1.416 . S
C441 C470 1.427 . S
C442 C434 1.424 . S
C442 N439 1.361 . S
C442 C441 1.413 . S
C443 H432 0.931 . S
C443 C441 1.416 . S
C443 C444 1.332 . S
C444 H423 0.929 . S
C444 C440 1.407 . S
C444 C443 1.332 . S
H445 C438 0.930 . S
H446 C469 0.930 . S
H447 C470 0.929 . S
O448 Tb404 2.465 . S
O448 C468 1.264 . S
O449 Tb404 2.387 . S
O449 C460 1.264 . S
O450 Tb415 2.349 . S
O450 C460 1.243 . S
O451 Tb404 2.428 . S
O451 C468 1.256 . S
O452 Tb404 2.308 . S
O452 C467 1.266 . S
O453 Tb415 2.393 . S
O453 C467 1.248 . S
O454 Tb415 2.465 . S
O454 C479 1.264 . S
O455 Tb415 2.387 . S
O455 C471 1.264 . S
O456 Tb404 2.349 . S
O456 C471 1.243 . S
O457 Tb415 2.428 . S
O457 C479 1.256 . S
O458 Tb415 2.308 . S
O458 C478 1.266 . S
O459 Tb404 2.393 . S
O459 C478 1.248 . S
C460 O449 1.264 . S
C460 O450 1.243 . S
C461 C464 1.399 . S
C461 C466 1.383 . S
C461 C468 1.496 . S
C462 C463 1.399 . S
C462 C466 1.389 . S
C463 C462 1.399 . S
C463 C465 1.380 . S
C463 H480 0.929 . S
C464 C461 1.399 . S
C464 C465 1.392 . S
C464 H481 0.929 . S
C465 C463 1.380 . S
C465 C464 1.392 . S
C465 H482 0.929 . S
C466 C461 1.383 . S
C466 C462 1.389 . S
C466 H483 0.931 . S
C467 O452 1.266 . S
C467 O453 1.248 . S
C468 Tb404 2.802 . S
C468 O448 1.264 . S
C468 O451 1.256 . S
C468 C461 1.496 . S
C469 C436 1.448 . S
C469 H446 0.930 . S
C469 C470 1.328 . S
C470 C441 1.427 . S
C470 H447 0.929 . S
C470 C469 1.328 . S
C471 O455 1.264 . S
C471 O456 1.243 . S
C472 C475 1.399 . S
C472 C476 1.383 . S
C472 C479 1.496 . S
C473 C474 1.399 . S
C473 C476 1.389 . S
C474 C473 1.399 . S
C474 C477 1.380 . S
C474 H484 0.929 . S
C475 C472 1.399 . S
C475 C477 1.392 . S
C475 H485 0.929 . S
C476 C472 1.383 . S
C476 C473 1.389 . S
C476 H486 0.931 . S
C477 C474 1.380 . S
C477 C475 1.392 . S
C477 H487 0.929 . S
C478 O458 1.266 . S
C478 O459 1.248 . S
C479 Tb415 2.802 . S
C479 O454 1.264 . S
C479 O457 1.256 . S
C479 C472 1.496 . S
H480 C463 0.929 . S
H481 C464 0.929 . S
H482 C465 0.929 . S
H483 C466 0.931 . S
H484 C474 0.929 . S
H485 C475 0.929 . S
H486 C476 0.931 . S
H487 C477 0.929 . S
Tb488 N517 2.617 . S
Tb488 N523 2.572 . S
Tb488 O532 2.465 . S
Tb488 O533 2.387 . S
Tb488 O535 2.428 . S
Tb488 O536 2.308 . S
Tb488 O540 2.349 . S
Tb488 O543 2.393 . S
Tb488 C552 2.802 . S
C489 N490 1.379 . S
C489 C492 1.416 . S
C489 C496 1.424 . S
N490 C489 1.379 . S
N490 C493 1.334 . S
N490 Tb499 2.617 . S
C491 C493 1.390 . S
C491 C494 1.339 . S
C491 H511 0.930 . S
C492 C489 1.416 . S
C492 C494 1.416 . S
C492 C498 1.448 . S
C493 N490 1.334 . S
C493 C491 1.390 . S
C493 H504 0.930 . S
C494 C491 1.339 . S
C494 C492 1.416 . S
C494 H515 0.930 . S
C495 C496 1.413 . S
C495 C497 1.427 . S
C495 C501 1.416 . S
C496 C489 1.424 . S
C496 C495 1.413 . S
C496 N500 1.361 . S
C497 C495 1.427 . S
C497 C498 1.328 . S
C497 H512 0.929 . S
C498 C492 1.448 . S
C498 C497 1.328 . S
C498 H513 0.930 . S
Tb499 N490 2.617 . S
Tb499 N500 2.572 . S
Tb499 O534 2.349 1_655 S
Tb499 O537 2.393 . S
Tb499 O538 2.465 . S
Tb499 O539 2.387 . S
Tb499 O541 2.428 . S
Tb499 O542 2.308 1_655 S
Tb499 C563 2.802 . S
N500 C496 1.361 . S
N500 Tb499 2.572 . S
N500 C502 1.340 . S
C501 C495 1.416 . S
C501 C503 1.332 . S
C501 H509 0.931 . S
C502 N500 1.340 . S
C502 C503 1.407 . S
C502 H508 0.930 . S
C503 C501 1.332 . S
C503 C502 1.407 . S
C503 H505 0.929 . S
H504 C493 0.930 . S
H505 C503 0.929 . S
H506 C521 0.930 . S
H507 C528 0.929 . S
H508 C502 0.930 . S
H509 C501 0.931 . S
H510 C524 0.930 . S
H511 C491 0.930 . S
H512 C497 0.929 . S
H513 C498 0.930 . S
H514 C519 0.930 . S
H515 C494 0.930 . S
H516 C527 0.931 . S
N517 Tb488 2.617 . S
N517 C518 1.379 . S
N517 C521 1.334 . S
C518 N517 1.379 . S
C518 C520 1.416 . S
C518 C526 1.424 . S
C519 H514 0.930 . S
C519 C521 1.390 . S
C519 C522 1.339 . S
C520 C518 1.416 . S
C520 C522 1.416 . S
C520 C553 1.448 . S
C521 H506 0.930 . S
C521 N517 1.334 . S
C521 C519 1.390 . S
C522 C519 1.339 . S
C522 C520 1.416 . S
C522 H529 0.930 . S
N523 Tb488 2.572 . S
N523 C524 1.340 . S
N523 C526 1.361 . S
C524 H510 0.930 . S
C524 N523 1.340 . S
C524 C528 1.407 . S
C525 C526 1.413 . S
C525 C527 1.416 . S
C525 C554 1.427 . S
C526 C518 1.424 . S
C526 N523 1.361 . S
C526 C525 1.413 . S
C527 H516 0.931 . S
C527 C525 1.416 . S
C527 C528 1.332 . S
C528 H507 0.929 . S
C528 C524 1.407 . S
C528 C527 1.332 . S
H529 C522 0.930 . S
H530 C553 0.930 . S
H531 C554 0.929 . S
O532 Tb488 2.465 . S
O532 C552 1.264 . S
O533 Tb488 2.387 . S
O533 C544 1.264 . S
O534 Tb499 2.349 1_455 S
O534 C544 1.243 . S
O535 Tb488 2.428 . S
O535 C552 1.256 . S
O536 Tb488 2.308 . S
O536 C551 1.266 1_455 S
O537 Tb499 2.393 . S
O537 C551 1.248 . S
O538 Tb499 2.465 . S
O538 C563 1.264 . S
O539 Tb499 2.387 . S
O539 C555 1.264 . S
O540 Tb488 2.349 . S
O540 C555 1.243 1_455 S
O541 Tb499 2.428 . S
O541 C563 1.256 . S
O542 Tb499 2.308 1_455 S
O542 C562 1.266 . S
O543 Tb488 2.393 . S
O543 C562 1.248 . S
C544 O533 1.264 . S
C544 O534 1.243 . S
C545 C548 1.399 . S
C545 C550 1.383 . S
C545 C552 1.496 . S
C546 C547 1.399 . S
C546 C550 1.389 . S
C547 C546 1.399 . S
C547 C549 1.380 . S
C547 H564 0.929 . S
C548 C545 1.399 . S
C548 C549 1.392 . S
C548 H565 0.929 . S
C549 C547 1.380 . S
C549 C548 1.392 . S
C549 H566 0.929 . S
C550 C545 1.383 . S
C550 C546 1.389 . S
C550 H567 0.931 . S
C551 O536 1.266 1_655 S
C551 O537 1.248 . S
C552 Tb488 2.802 . S
C552 O532 1.264 . S
C552 O535 1.256 . S
C552 C545 1.496 . S
C553 C520 1.448 . S
C553 H530 0.930 . S
C553 C554 1.328 . S
C554 C525 1.427 . S
C554 H531 0.929 . S
C554 C553 1.328 . S
C555 O539 1.264 . S
C555 O540 1.243 1_655 S
C556 C559 1.399 . S
C556 C560 1.383 . S
C556 C563 1.496 . S
C557 C558 1.399 . S
C557 C560 1.389 . S
C558 C557 1.399 . S
C558 C561 1.380 . S
C558 H568 0.929 . S
C559 C556 1.399 . S
C559 C561 1.392 . S
C559 H569 0.929 . S
C560 C556 1.383 . S
C560 C557 1.389 . S
C560 H570 0.931 . S
C561 C558 1.380 . S
C561 C559 1.392 . S
C561 H571 0.929 . S
C562 O542 1.266 . S
C562 O543 1.248 . S
C563 Tb499 2.802 . S
C563 O538 1.264 . S
C563 O541 1.256 . S
C563 C556 1.496 . S
H564 C547 0.929 . S
H565 C548 0.929 . S
H566 C549 0.929 . S
H567 C550 0.931 . S
H568 C558 0.929 . S
H569 C559 0.929 . S
H570 C560 0.931 . S
H571 C561 0.929 . S
Tb572 N601 2.617 . S
Tb572 N607 2.572 . S
Tb572 O616 2.465 . S
Tb572 O617 2.387 . S
Tb572 O619 2.428 . S
Tb572 O620 2.308 . S
Tb572 O624 2.349 . S
Tb572 O627 2.393 . S
Tb572 C636 2.802 . S
C573 N574 1.379 . S
C573 C576 1.416 . S
C573 C580 1.424 . S
N574 C573 1.379 . S
N574 C577 1.334 . S
N574 Tb583 2.617 . S
C575 C577 1.390 . S
C575 C578 1.339 . S
C575 H595 0.930 . S
C576 C573 1.416 . S
C576 C578 1.416 . S
C576 C582 1.448 . S
C577 N574 1.334 . S
C577 C575 1.390 . S
C577 H588 0.930 . S
C578 C575 1.339 . S
C578 C576 1.416 . S
C578 H599 0.930 . S
C579 C580 1.413 . S
C579 C581 1.427 . S
C579 C585 1.416 . S
C580 C573 1.424 . S
C580 C579 1.413 . S
C580 N584 1.361 . S
C581 C579 1.427 . S
C581 C582 1.328 . S
C581 H596 0.929 . S
C582 C576 1.448 . S
C582 C581 1.328 . S
C582 H597 0.930 . S
Tb583 N574 2.617 . S
Tb583 N584 2.572 . S
Tb583 O618 2.349 . S
Tb583 O621 2.393 . S
Tb583 O622 2.465 . S
Tb583 O623 2.387 . S
Tb583 O625 2.428 . S
Tb583 O626 2.308 . S
Tb583 C647 2.802 . S
N584 C580 1.361 . S
N584 Tb583 2.572 . S
N584 C586 1.340 . S
C585 C579 1.416 . S
C585 C587 1.332 . S
C585 H593 0.931 . S
C586 N584 1.340 . S
C586 C587 1.407 . S
C586 H592 0.930 . S
C587 C585 1.332 . S
C587 C586 1.407 . S
C587 H589 0.929 . S
H588 C577 0.930 . S
H589 C587 0.929 . S
H590 C605 0.930 . S
H591 C612 0.929 . S
H592 C586 0.930 . S
H593 C585 0.931 . S
H594 C608 0.930 . S
H595 C575 0.930 . S
H596 C581 0.929 . S
H597 C582 0.930 . S
H598 C603 0.930 . S
H599 C578 0.930 . S
H600 C611 0.931 . S
N601 Tb572 2.617 . S
N601 C602 1.379 . S
N601 C605 1.334 . S
C602 N601 1.379 . S
C602 C604 1.416 . S
C602 C610 1.424 . S
C603 H598 0.930 . S
C603 C605 1.390 . S
C603 C606 1.339 . S
C604 C602 1.416 . S
C604 C606 1.416 . S
C604 C637 1.448 . S
C605 H590 0.930 . S
C605 N601 1.334 . S
C605 C603 1.390 . S
C606 C603 1.339 . S
C606 C604 1.416 . S
C606 H613 0.930 . S
N607 Tb572 2.572 . S
N607 C608 1.340 . S
N607 C610 1.361 . S
C608 H594 0.930 . S
C608 N607 1.340 . S
C608 C612 1.407 . S
C609 C610 1.413 . S
C609 C611 1.416 . S
C609 C638 1.427 . S
C610 C602 1.424 . S
C610 N607 1.361 . S
C610 C609 1.413 . S
C611 H600 0.931 . S
C611 C609 1.416 . S
C611 C612 1.332 . S
C612 H591 0.929 . S
C612 C608 1.407 . S
C612 C611 1.332 . S
H613 C606 0.930 . S
H614 C637 0.930 . S
H615 C638 0.929 . S
O616 Tb572 2.465 . S
O616 C636 1.264 . S
O617 Tb572 2.387 . S
O617 C628 1.264 . S
O618 Tb583 2.349 . S
O618 C628 1.243 . S
O619 Tb572 2.428 . S
O619 C636 1.256 . S
O620 Tb572 2.308 . S
O620 C635 1.266 . S
O621 Tb583 2.393 . S
O621 C635 1.248 . S
O622 Tb583 2.465 . S
O622 C647 1.264 . S
O623 Tb583 2.387 . S
O623 C639 1.264 . S
O624 Tb572 2.349 . S
O624 C639 1.243 . S
O625 Tb583 2.428 . S
O625 C647 1.256 . S
O626 Tb583 2.308 . S
O626 C646 1.266 . S
O627 Tb572 2.393 . S
O627 C646 1.248 . S
C628 O617 1.264 . S
C628 O618 1.243 . S
C629 C632 1.399 . S
C629 C634 1.383 . S
C629 C636 1.496 . S
C630 C631 1.399 . S
C630 C634 1.389 . S
C631 C630 1.399 . S
C631 C633 1.380 . S
C631 H648 0.929 . S
C632 C629 1.399 . S
C632 C633 1.392 . S
C632 H649 0.929 . S
C633 C631 1.380 . S
C633 C632 1.392 . S
C633 H650 0.929 . S
C634 C629 1.383 . S
C634 C630 1.389 . S
C634 H651 0.931 . S
C635 O620 1.266 . S
C635 O621 1.248 . S
C636 Tb572 2.802 . S
C636 O616 1.264 . S
C636 O619 1.256 . S
C636 C629 1.496 . S
C637 C604 1.448 . S
C637 H614 0.930 . S
C637 C638 1.328 . S
C638 C609 1.427 . S
C638 H615 0.929 . S
C638 C637 1.328 . S
C639 O623 1.264 . S
C639 O624 1.243 . S
C640 C643 1.399 . S
C640 C644 1.383 . S
C640 C647 1.496 . S
C641 C642 1.399 . S
C641 C644 1.389 . S
C642 C641 1.399 . S
C642 C645 1.380 . S
C642 H652 0.929 . S
C643 C640 1.399 . S
C643 C645 1.392 . S
C643 H653 0.929 . S
C644 C640 1.383 . S
C644 C641 1.389 . S
C644 H654 0.931 . S
C645 C642 1.380 . S
C645 C643 1.392 . S
C645 H655 0.929 . S
C646 O626 1.266 . S
C646 O627 1.248 . S
C647 Tb583 2.802 . S
C647 O622 1.264 . S
C647 O625 1.256 . S
C647 C640 1.496 . S
H648 C631 0.929 . S
H649 C632 0.929 . S
H650 C633 0.929 . S
H651 C634 0.931 . S
H652 C642 0.929 . S
H653 C643 0.929 . S
H654 C644 0.931 . S
H655 C645 0.929 . S
C656 C657 1.363 . S
C656 C662 1.379 . S
C656 N664 1.356 . S
C657 C656 1.363 . S
C657 C663 1.363 . S
C658 C659 1.363 . S
C658 C663 1.379 . S
C658 N665 1.356 . S
C659 C658 1.363 . S
C659 C662 1.363 . S
N660 C662 1.356 1_655 S
N660 H672 0.984 . S
N660 H673 0.985 . S
N661 C663 1.356 . S
N661 H666 0.984 . S
N661 H667 0.985 . S
C662 C656 1.379 . S
C662 C659 1.363 . S
C662 N660 1.356 1_455 S
C663 C657 1.363 . S
C663 C658 1.379 . S
C663 N661 1.356 . S
N664 C656 1.356 . S
N664 H670 0.984 . S
N664 H671 0.967 1_545 S
N665 C658 1.356 . S
N665 H668 0.984 . S
N665 H669 0.985 . S
H666 N661 0.984 . S
H667 N661 0.985 . S
H668 N665 0.984 . S
H669 N665 0.985 . S
H670 N664 0.984 . S
H671 N664 0.967 1_565 S
H672 N660 0.984 . S
H673 N660 0.985 . S
C674 C675 1.363 . S
C674 C680 1.379 . S
C674 N682 1.356 . S
C675 C674 1.363 . S
C675 C681 1.363 . S
C676 C677 1.363 . S
C676 C681 1.379 . S
C676 N683 1.356 . S
C677 C676 1.363 . S
C677 C680 1.363 . S
N678 C680 1.356 . S
N678 H690 0.984 . S
N678 H691 0.985 . S
N679 C681 1.356 . S
N679 H684 0.984 . S
N679 H685 0.985 . S
C680 C674 1.379 . S
C680 C677 1.363 . S
C680 N678 1.356 . S
C681 C675 1.363 . S
C681 C676 1.379 . S
C681 N679 1.356 . S
N682 C674 1.356 . S
N682 H688 0.984 . S
N682 H689 0.984 . S
N683 C676 1.356 . S
N683 H686 0.984 . S
N683 H687 0.985 . S
H684 N679 0.984 . S
H685 N679 0.985 . S
H686 N683 0.984 . S
H687 N683 0.985 . S
H688 N682 0.984 . S
H689 N682 0.984 . S
H690 N678 0.984 . S
H691 N678 0.985 . S
C692 C693 1.363 . S
C692 C698 1.379 . S
C692 N700 1.356 . S
C693 C692 1.363 . S
C693 C699 1.363 . S
C694 C695 1.363 . S
C694 C699 1.379 . S
C694 N701 1.356 . S
C695 C694 1.363 . S
C695 C698 1.363 . S
N696 C698 1.356 . S
N696 H708 0.984 . S
N696 H709 0.985 . S
N697 C699 1.356 . S
N697 H702 0.984 . S
N697 H703 0.985 . S
C698 C692 1.379 . S
C698 C695 1.363 . S
C698 N696 1.356 . S
C699 C693 1.363 . S
C699 C694 1.379 . S
C699 N697 1.356 . S
N700 C692 1.356 . S
N700 H706 0.984 . S
N700 H707 0.984 . S
N701 C694 1.356 . S
N701 H704 0.984 . S
N701 H705 0.985 . S
H702 N697 0.984 . S
H703 N697 0.985 . S
H704 N701 0.984 . S
H705 N701 0.985 . S
H706 N700 0.984 . S
H707 N700 0.984 . S
H708 N696 0.984 . S
H709 N696 0.985 . S
C710 C711 1.363 . S
C710 C716 1.379 . S
C710 N718 1.356 . S
C711 C710 1.363 . S
C711 C717 1.363 . S
C712 C713 1.363 . S
C712 C717 1.379 . S
C712 N719 1.356 . S
C713 C712 1.363 . S
C713 C716 1.363 . S
N714 C716 1.356 . S
N714 H726 0.984 . S
N714 H727 0.985 . S
N715 C717 1.356 1_565 S
N715 H720 0.984 . S
N715 H721 0.985 . S
C716 C710 1.379 . S
C716 C713 1.363 . S
C716 N714 1.356 . S
C717 C711 1.363 . S
C717 C712 1.379 . S
C717 N715 1.356 1_545 S
N718 C710 1.356 . S
N718 H724 0.984 . S
N718 H725 0.984 . S
N719 C712 1.356 . S
N719 H722 0.984 . S
N719 H723 0.985 . S
H720 N715 0.984 . S
H721 N715 0.985 . S
H722 N719 0.984 . S
H723 N719 0.985 . S
H724 N718 0.984 . S
H725 N718 0.984 . S
H726 N714 0.984 . S
H727 N714 0.985 . S
C728 C729 1.363 . S
C728 C734 1.379 . S
C728 N736 1.356 . S
C729 C728 1.363 . S
C729 C735 1.363 . S
C730 C731 1.363 . S
C730 C735 1.379 . S
C730 N737 1.356 . S
C731 C730 1.363 . S
C731 C734 1.363 . S
N732 C734 1.356 . S
N732 H744 0.984 . S
N732 H745 0.985 . S
N733 C735 1.356 . S
N733 H738 0.984 . S
N733 H739 0.985 . S
C734 C728 1.379 . S
C734 C731 1.363 . S
C734 N732 1.356 . S
C735 C729 1.363 . S
C735 C730 1.379 . S
C735 N733 1.356 . S
N736 C728 1.356 . S
N736 H742 0.984 . S
N736 H743 0.984 . S
N737 C730 1.356 . S
N737 H740 0.984 1_655 S
N737 H741 0.985 1_655 S
H738 N733 0.984 . S
H739 N733 0.985 . S
H740 N737 0.984 1_455 S
H741 N737 0.985 1_455 S
H742 N736 0.984 . S
H743 N736 0.984 . S
H744 N732 0.984 . S
H745 N732 0.985 . S
C746 C747 1.363 . S
C746 C752 1.379 . S
C746 N754 1.356 . S
C747 C746 1.363 . S
C747 C753 1.363 . S
C748 C749 1.363 . S
C748 C753 1.379 . S
C748 N755 1.356 . S
C749 C748 1.363 . S
C749 C752 1.363 . S
N750 C752 1.356 . S
N750 H762 0.984 . S
N750 H763 0.985 . S
N751 C753 1.356 . S
N751 H756 0.984 . S
N751 H757 0.985 . S
C752 C746 1.379 . S
C752 C749 1.363 . S
C752 N750 1.356 . S
C753 C747 1.363 . S
C753 C748 1.379 . S
C753 N751 1.356 . S
N754 C746 1.356 . S
N754 H760 0.984 . S
N754 H761 0.984 . S
N755 C748 1.356 . S
N755 H758 0.984 . S
N755 H759 0.985 . S
H756 N751 0.984 . S
H757 N751 0.985 . S
H758 N755 0.984 . S
H759 N755 0.985 . S
H760 N754 0.984 . S
H761 N754 0.984 . S
H762 N750 0.984 . S
H763 N750 0.985 . S
C764 C765 1.363 . S
C764 C770 1.379 . S
C764 N772 1.356 . S
C765 C764 1.363 . S
C765 C771 1.363 . S
C766 C767 1.363 . S
C766 C771 1.379 . S
C766 N773 1.356 . S
C767 C766 1.363 . S
C767 C770 1.363 . S
N768 C770 1.356 . S
N768 H780 0.984 . S
N768 H781 0.985 . S
N769 C771 1.356 . S
N769 H774 0.984 . S
N769 H775 0.985 . S
C770 C764 1.379 . S
C770 C767 1.363 . S
C770 N768 1.356 . S
C771 C765 1.363 . S
C771 C766 1.379 . S
C771 N769 1.356 . S
N772 C764 1.356 . S
N772 H778 0.984 . S
N772 H779 0.984 . S
N773 C766 1.356 . S
N773 H776 0.984 . S
N773 H777 0.985 . S
H774 N769 0.984 . S
H775 N769 0.985 . S
H776 N773 0.984 . S
H777 N773 0.985 . S
H778 N772 0.984 . S
H779 N772 0.984 . S
H780 N768 0.984 . S
H781 N768 0.985 . S
C782 C783 1.363 . S
C782 C788 1.379 . S
C782 N790 1.356 1_565 S
C783 C782 1.363 . S
C783 C789 1.363 . S
C784 C785 1.363 . S
C784 C789 1.379 . S
C784 N791 1.356 . S
C785 C784 1.363 . S
C785 C788 1.363 . S
N786 C788 1.356 . S
N786 H798 0.984 . S
N786 H799 0.985 . S
N787 C789 1.356 . S
N787 H792 0.984 . S
N787 H793 0.985 . S
C788 C782 1.379 . S
C788 C785 1.363 . S
C788 N786 1.356 . S
C789 C783 1.363 . S
C789 C784 1.379 . S
C789 N787 1.356 . S
N790 C782 1.356 1_545 S
N790 H796 0.984 . S
N790 H797 0.984 . S
N791 C784 1.356 . S
N791 H794 0.984 . S
N791 H795 0.985 . S
H792 N787 0.984 . S
H793 N787 0.985 . S
H794 N791 0.984 . S
H795 N791 0.985 . S
H796 N790 0.984 . S
H797 N790 0.984 . S
H798 N786 0.984 . S
H799 N786 0.985 . S
C800 C801 1.363 . S
C800 C806 1.379 . S
C800 N808 1.356 . S
C801 C800 1.363 . S
C801 C807 1.363 . S
C802 C803 1.363 . S
C802 C807 1.379 . S
C802 N809 1.356 . S
C803 C802 1.363 . S
C803 C806 1.363 . S
N804 C806 1.356 . S
N804 H816 0.984 . S
N804 H817 0.985 . S
N805 C807 1.356 . S
N805 H810 0.984 . S
N805 H811 0.985 . S
C806 C800 1.379 . S
C806 C803 1.363 . S
C806 N804 1.356 . S
C807 C801 1.363 . S
C807 C802 1.379 . S
C807 N805 1.356 . S
N808 C800 1.356 . S
N808 H814 0.984 . S
N808 H815 0.984 . S
N809 C802 1.356 . S
N809 H812 0.984 . S
N809 H813 0.985 . S
H810 N805 0.984 . S
H811 N805 0.985 . S
H812 N809 0.984 . S
H813 N809 0.985 . S
H814 N808 0.984 . S
H815 N808 0.984 . S
H816 N804 0.984 . S
H817 N804 0.985 . S
C818 C819 1.363 . S
C818 C824 1.379 . S
C818 N826 1.356 . S
C819 C818 1.363 . S
C819 C825 1.363 . S
C820 C821 1.363 . S
C820 C825 1.379 . S
C820 N827 1.356 . S
C821 C820 1.363 . S
C821 C824 1.363 . S
N822 C824 1.356 . S
N822 H834 0.984 . S
N822 H835 0.985 . S
N823 C825 1.356 . S
N823 H828 0.984 . S
N823 H829 0.985 . S
C824 C818 1.379 . S
C824 C821 1.363 . S
C824 N822 1.356 . S
C825 C819 1.363 . S
C825 C820 1.379 . S
C825 N823 1.356 . S
N826 C818 1.356 . S
N826 H832 0.984 . S
N826 H833 0.984 . S
N827 C820 1.356 . S
N827 H830 0.984 . S
N827 H831 0.985 . S
H828 N823 0.984 . S
H829 N823 0.985 . S
H830 N827 0.984 . S
H831 N827 0.985 . S
H832 N826 0.984 . S
H833 N826 0.984 . S
H834 N822 0.984 . S
H835 N822 0.985 . S
C836 C837 1.363 . S
C836 C842 1.379 . S
C836 N844 1.356 . S
C837 C836 1.363 . S
C837 C843 1.363 . S
C838 C839 1.363 . S
C838 C843 1.379 . S
C838 N845 1.356 . S
C839 C838 1.363 . S
C839 C842 1.363 . S
N840 C842 1.356 . S
N840 H852 0.984 . S
N840 H853 0.985 . S
N841 C843 1.356 . S
N841 H846 0.984 . S
N841 H847 0.985 . S
C842 C836 1.379 . S
C842 C839 1.363 . S
C842 N840 1.356 . S
C843 C837 1.363 . S
C843 C838 1.379 . S
C843 N841 1.356 . S
N844 C836 1.356 . S
N844 H850 0.984 . S
N844 H851 0.984 . S
N845 C838 1.356 . S
N845 H848 0.984 . S
N845 H849 0.985 . S
H846 N841 0.984 . S
H847 N841 0.985 . S
H848 N845 0.984 . S
H849 N845 0.985 . S
H850 N844 0.984 . S
H851 N844 0.984 . S
H852 N840 0.984 . S
H853 N840 0.985 . S
C854 C855 1.363 . S
C854 C860 1.379 . S
C854 N862 1.356 . S
C855 C854 1.363 . S
C855 C861 1.363 . S
C856 C857 1.363 . S
C856 C861 1.379 . S
C856 N863 1.356 . S
C857 C856 1.363 . S
C857 C860 1.363 . S
N858 C860 1.356 . S
N858 H870 0.984 . S
N858 H871 0.985 . S
N859 C861 1.356 . S
N859 H864 0.984 . S
N859 H865 0.985 . S
C860 C854 1.379 . S
C860 C857 1.363 . S
C860 N858 1.356 . S
C861 C855 1.363 . S
C861 C856 1.379 . S
C861 N859 1.356 . S
N862 C854 1.356 . S
N862 H868 0.984 . S
N862 H869 0.984 . S
N863 C856 1.356 . S
N863 H866 0.984 . S
N863 H867 0.985 . S
H864 N859 0.984 . S
H865 N859 0.985 . S
H866 N863 0.984 . S
H867 N863 0.985 . S
H868 N862 0.984 . S
H869 N862 0.984 . S
H870 N858 0.984 . S
H871 N858 0.985 . S
C872 C873 1.363 . S
C872 C878 1.379 . S
C872 N880 1.356 . S
C873 C872 1.363 . S
C873 C879 1.363 . S
C874 C875 1.363 . S
C874 C879 1.379 . S
C874 N881 1.356 . S
C875 C874 1.363 . S
C875 C878 1.363 . S
N876 C878 1.356 . S
N876 H888 0.984 . S
N876 H889 0.985 . S
N877 C879 1.356 . S
N877 H882 0.984 . S
N877 H883 0.985 . S
C878 C872 1.379 . S
C878 C875 1.363 . S
C878 N876 1.356 . S
C879 C873 1.363 . S
C879 C874 1.379 . S
C879 N877 1.356 . S
N880 C872 1.356 . S
N880 H886 0.984 . S
N880 H887 0.984 . S
N881 C874 1.356 . S
N881 H884 0.984 . S
N881 H885 0.985 . S
H882 N877 0.984 . S
H883 N877 0.985 . S
H884 N881 0.984 . S
H885 N881 0.985 . S
H886 N880 0.984 . S
H887 N880 0.984 . S
H888 N876 0.984 . S
H889 N876 0.985 . S
C890 C891 1.363 . S
C890 C896 1.379 . S
C890 N898 1.356 . S
C891 C890 1.363 . S
C891 C897 1.363 . S
C892 C893 1.363 . S
C892 C897 1.379 . S
C892 N899 1.356 . S
C893 C892 1.363 . S
C893 C896 1.363 . S
N894 C896 1.356 . S
N894 H906 0.984 . S
N894 H907 0.985 . S
N895 C897 1.356 . S
N895 H900 0.984 . S
N895 H901 0.985 . S
C896 C890 1.379 . S
C896 C893 1.363 . S
C896 N894 1.356 . S
C897 C891 1.363 . S
C897 C892 1.379 . S
C897 N895 1.356 . S
N898 C890 1.356 . S
N898 H904 0.984 . S
N898 H905 0.984 . S
N899 C892 1.356 . S
N899 H902 0.984 . S
N899 H903 0.985 . S
H900 N895 0.984 . S
H901 N895 0.985 . S
H902 N899 0.984 . S
H903 N899 0.985 . S
H904 N898 0.984 . S
H905 N898 0.984 . S
H906 N894 0.984 . S
H907 N894 0.985 . S
C908 C909 1.363 . S
C908 C914 1.379 . S
C908 N916 1.356 . S
C909 C908 1.363 . S
C909 C915 1.363 . S
C910 C911 1.363 . S
C910 C915 1.379 . S
C910 N917 1.356 . S
C911 C910 1.363 . S
C911 C914 1.363 . S
N912 C914 1.356 . S
N912 H924 0.984 . S
N912 H925 0.985 . S
N913 C915 1.356 . S
N913 H918 0.984 . S
N913 H919 0.985 . S
C914 C908 1.379 . S
C914 C911 1.363 . S
C914 N912 1.356 . S
C915 C909 1.363 . S
C915 C910 1.379 . S
C915 N913 1.356 . S
N916 C908 1.356 . S
N916 H922 0.984 . S
N916 H923 0.984 . S
N917 C910 1.356 . S
N917 H920 0.984 . S
N917 H921 0.985 . S
H918 N913 0.984 . S
H919 N913 0.985 . S
H920 N917 0.984 . S
H921 N917 0.985 . S
H922 N916 0.984 . S
H923 N916 0.984 . S
H924 N912 0.984 . S
H925 N912 0.985 . S
C926 C927 1.363 . S
C926 C932 1.379 . S
C926 N934 1.356 . S
C927 C926 1.363 . S
C927 C933 1.363 . S
C928 C929 1.363 . S
C928 C933 1.379 . S
C928 N935 1.356 . S
C929 C928 1.363 . S
C929 C932 1.363 . S
N930 C932 1.356 . S
N930 H942 0.984 . S
N930 H943 0.985 . S
N931 C933 1.356 . S
N931 H936 0.984 . S
N931 H937 0.985 . S
C932 C926 1.379 . S
C932 C929 1.363 . S
C932 N930 1.356 . S
C933 C927 1.363 . S
C933 C928 1.379 . S
C933 N931 1.356 . S
N934 C926 1.356 . S
N934 H940 0.984 . S
N934 H941 0.984 . S
N935 C928 1.356 . S
N935 H938 0.984 . S
N935 H939 0.985 . S
H936 N931 0.984 . S
H937 N931 0.985 . S
H938 N935 0.984 . S
H939 N935 0.985 . S
H940 N934 0.984 . S
H941 N934 0.984 . S
H942 N930 0.984 . S
H943 N930 0.985 . S
C944 C945 1.363 . S
C944 C950 1.379 . S
C944 N952 1.356 . S
C945 C944 1.363 . S
C945 C951 1.363 . S
C946 C947 1.363 . S
C946 C951 1.379 . S
C946 N953 1.356 . S
C947 C946 1.363 . S
C947 C950 1.363 . S
N948 C950 1.356 . S
N948 H960 0.984 1_455 S
N948 H961 0.985 . S
N949 C951 1.356 . S
N949 H954 0.984 . S
N949 H955 0.985 . S
C950 C944 1.379 . S
C950 C947 1.363 . S
C950 N948 1.356 . S
C951 C945 1.363 . S
C951 C946 1.379 . S
C951 N949 1.356 . S
N952 C944 1.356 . S
N952 H958 0.984 . S
N952 H959 0.984 . S
N953 C946 1.356 . S
N953 H956 0.984 . S
N953 H957 0.985 . S
H954 N949 0.984 . S
H955 N949 0.985 . S
H956 N953 0.984 . S
H957 N953 0.985 . S
H958 N952 0.984 . S
H959 N952 0.984 . S
H960 N948 0.984 1_655 S
H961 N948 0.985 . S
C962 C963 1.363 . S
C962 C968 1.379 . S
C962 N970 1.356 . S
C963 C962 1.363 . S
C963 C969 1.363 . S
C964 C965 1.363 . S
C964 C969 1.379 . S
C964 N971 1.356 . S
C965 C964 1.363 . S
C965 C968 1.363 . S
N966 C968 1.356 . S
N966 H978 0.984 . S
N966 H979 0.985 . S
N967 C969 1.356 . S
N967 H972 0.984 . S
N967 H973 0.985 . S
C968 C962 1.379 . S
C968 C965 1.363 . S
C968 N966 1.356 . S
C969 C963 1.363 . S
C969 C964 1.379 . S
C969 N967 1.356 . S
N970 C962 1.356 . S
N970 H976 0.984 . S
N970 H977 0.984 . S
N971 C964 1.356 . S
N971 H974 0.984 . S
N971 H975 0.985 . S
H972 N967 0.984 . S
H973 N967 0.985 . S
H974 N971 0.984 . S
H975 N971 0.985 . S
H976 N970 0.984 . S
H977 N970 0.984 . S
H978 N966 0.984 . S
H979 N966 0.985 . S
C980 C981 1.363 . S
C980 C986 1.379 . S
C980 N988 1.356 . S
C981 C980 1.363 . S
C981 C987 1.363 . S
C982 C983 1.363 . S
C982 C987 1.379 . S
C982 N989 1.356 . S
C983 C982 1.363 . S
C983 C986 1.363 . S
N984 C986 1.356 . S
N984 H996 0.984 . S
N984 H997 0.985 . S
N985 C987 1.356 . S
N985 H990 0.984 . S
N985 H991 0.985 . S
C986 C980 1.379 . S
C986 C983 1.363 . S
C986 N984 1.356 . S
C987 C981 1.363 . S
C987 C982 1.379 . S
C987 N985 1.356 . S
N988 C980 1.356 . S
N988 H994 0.984 . S
N988 H995 0.984 . S
N989 C982 1.356 . S
N989 H992 0.984 . S
N989 H993 0.985 . S
H990 N985 0.984 . S
H991 N985 0.985 . S
H992 N989 0.984 . S
H993 N989 0.985 . S
H994 N988 0.984 . S
H995 N988 0.984 . S
H996 N984 0.984 . S
H997 N984 0.985 . S
C998 C999 1.363 . S
C998 C1004 1.379 . S
C998 N1006 1.356 . S
C999 C998 1.363 . S
C999 C1005 1.363 . S
C1000 C1001 1.363 . S
C1000 C1005 1.379 . S
C1000 N1007 1.356 . S
C1001 C1000 1.363 . S
C1001 C1004 1.363 . S
N1002 C1004 1.356 . S
N1002 H1014 0.984 . S
N1002 H1015 0.985 . S
N1003 C1005 1.356 . S
N1003 H1008 0.984 . S
N1003 H1009 0.985 . S
C1004 C998 1.379 . S
C1004 C1001 1.363 . S
C1004 N1002 1.356 . S
C1005 C999 1.363 . S
C1005 C1000 1.379 . S
C1005 N1003 1.356 . S
N1006 C998 1.356 . S
N1006 H1012 0.984 . S
N1006 H1013 0.984 . S
N1007 C1000 1.356 . S
N1007 H1010 0.984 . S
N1007 H1011 0.985 . S
H1008 N1003 0.984 . S
H1009 N1003 0.985 . S
H1010 N1007 0.984 . S
H1011 N1007 0.985 . S
H1012 N1006 0.984 . S
H1013 N1006 0.984 . S
H1014 N1002 0.984 . S
H1015 N1002 0.985 . S
C1016 C1017 1.363 . S
C1016 C1022 1.379 . S
C1016 N1024 1.356 . S
C1017 C1016 1.363 . S
C1017 C1023 1.363 . S
C1018 C1019 1.363 . S
C1018 C1023 1.379 . S
C1018 N1025 1.356 . S
C1019 C1018 1.363 . S
C1019 C1022 1.363 . S
N1020 C1022 1.356 . S
N1020 H1032 0.984 . S
N1020 H1033 0.985 . S
N1021 C1023 1.356 . S
N1021 H1026 0.984 . S
N1021 H1027 0.985 . S
C1022 C1016 1.379 . S
C1022 C1019 1.363 . S
C1022 N1020 1.356 . S
C1023 C1017 1.363 . S
C1023 C1018 1.379 . S
C1023 N1021 1.356 . S
N1024 C1016 1.356 . S
N1024 H1030 0.984 . S
N1024 H1031 0.984 . S
N1025 C1018 1.356 . S
N1025 H1028 0.984 . S
N1025 H1029 0.985 . S
H1026 N1021 0.984 . S
H1027 N1021 0.985 . S
H1028 N1025 0.984 . S
H1029 N1025 0.985 . S
H1030 N1024 0.984 . S
H1031 N1024 0.984 . S
H1032 N1020 0.984 . S
H1033 N1020 0.985 . S
C1034 C1035 1.363 . S
C1034 C1040 1.379 . S
C1034 N1042 1.356 . S
C1035 C1034 1.363 . S
C1035 C1041 1.363 . S
C1036 C1037 1.363 . S
C1036 C1041 1.379 . S
C1036 N1043 1.356 . S
C1037 C1036 1.363 . S
C1037 C1040 1.363 . S
N1038 C1040 1.356 . S
N1038 H1050 0.984 . S
N1038 H1051 0.985 . S
N1039 C1041 1.356 . S
N1039 H1044 0.984 . S
N1039 H1045 0.985 . S
C1040 C1034 1.379 . S
C1040 C1037 1.363 . S
C1040 N1038 1.356 . S
C1041 C1035 1.363 . S
C1041 C1036 1.379 . S
C1041 N1039 1.356 . S
N1042 C1034 1.356 . S
N1042 H1048 0.984 . S
N1042 H1049 0.984 . S
N1043 C1036 1.356 . S
N1043 H1046 0.984 . S
N1043 H1047 0.985 . S
H1044 N1039 0.984 . S
H1045 N1039 0.985 . S
H1046 N1043 0.984 . S
H1047 N1043 0.985 . S
H1048 N1042 0.984 . S
H1049 N1042 0.984 . S
H1050 N1038 0.984 . S
H1051 N1038 0.985 . S
C1052 C1053 1.363 . S
C1052 C1058 1.379 . S
C1052 N1060 1.356 . S
C1053 C1052 1.363 . S
C1053 C1059 1.363 . S
C1054 C1055 1.363 . S
C1054 C1059 1.379 . S
C1054 N1061 1.356 . S
C1055 C1054 1.363 . S
C1055 C1058 1.363 . S
N1056 C1058 1.356 . S
N1056 H1068 0.984 . S
N1056 H1069 0.985 . S
N1057 C1059 1.356 . S
N1057 H1062 0.984 . S
N1057 H1063 0.985 . S
C1058 C1052 1.379 . S
C1058 C1055 1.363 . S
C1058 N1056 1.356 . S
C1059 C1053 1.363 . S
C1059 C1054 1.379 . S
C1059 N1057 1.356 . S
N1060 C1052 1.356 . S
N1060 H1066 0.984 . S
N1060 H1067 0.984 . S
N1061 C1054 1.356 . S
N1061 H1064 0.984 . S
N1061 H1065 0.985 . S
H1062 N1057 0.984 . S
H1063 N1057 0.985 . S
H1064 N1061 0.984 . S
H1065 N1061 0.985 . S
H1066 N1060 0.984 . S
H1067 N1060 0.984 . S
H1068 N1056 0.984 . S
H1069 N1056 0.985 . S
C1070 C1071 1.363 . S
C1070 C1076 1.379 . S
C1070 N1078 1.356 . S
C1071 C1070 1.363 . S
C1071 C1077 1.363 . S
C1072 C1073 1.363 . S
C1072 C1077 1.379 . S
C1072 N1079 1.356 . S
C1073 C1072 1.363 . S
C1073 C1076 1.363 . S
N1074 C1076 1.356 . S
N1074 H1086 0.984 . S
N1074 H1087 0.985 . S
N1075 C1077 1.356 . S
N1075 H1080 0.984 . S
N1075 H1081 0.985 . S
C1076 C1070 1.379 . S
C1076 C1073 1.363 . S
C1076 N1074 1.356 . S
C1077 C1071 1.363 . S
C1077 C1072 1.379 . S
C1077 N1075 1.356 . S
N1078 C1070 1.356 . S
N1078 H1084 0.984 . S
N1078 H1085 0.984 . S
N1079 C1072 1.356 . S
N1079 H1082 0.984 . S
N1079 H1083 0.985 1_455 S
H1080 N1075 0.984 . S
H1081 N1075 0.985 . S
H1082 N1079 0.984 . S
H1083 N1079 0.985 1_655 S
H1084 N1078 0.984 . S
H1085 N1078 0.984 . S
H1086 N1074 0.984 . S
H1087 N1074 0.985 . S
C657 C242 1.467 . S
C659 C394 1.497 . S
C677 C478 1.490 . S
C675 C301 1.505 . S
C695 C471 1.503 . S
C693 C162 1.463 . S
C711 C221 1.507 . S
C713 C387 1.496 . S
C731 C551 1.498 . S
C729 C82 1.505 . S
C749 C635 1.490 . S
C747 C141 1.473 . S
C765 C2 1.508 . S
C767 C628 1.503 . S
C783 C61 1.466 . S
C785 C544 1.496 . S
C803 C378 1.324 . S
C801 C42 1.497 . S
C821 C462 1.322 . S
C819 C21 1.547 . S
C839 C473 1.398 . S
C837 C122 1.513 . S
C857 C389 1.400 . S
C855 C101 1.557 . S
C875 C557 1.324 . S
C873 C202 1.539 . S
C891 C181 1.496 . S
C893 C641 1.322 . S
C911 C630 1.399 . S
C909 C282 1.548 . S
C927 C261 1.513 . S
C929 C546 1.400 . S
C947 C376 1.616 . S
C945 C15 1.603 . S
C965 C460 1.599 . S
C963 C55 1.586 . S
C981 C95 1.587 . S
C983 C467 1.601 . S
C1001 C383 1.583 . S
C999 C135 1.572 . S
C1019 C555 1.616 . S
C1017 C175 1.598 . S
C1035 C215 1.590 . S
C1037 C639 1.599 . S
C1053 C255 1.583 . S
C1055 C646 1.601 . S
C1071 C295 1.576 . S
C1073 C562 1.583 . S
