# Generated by pormake.
# Topology pth, (4,4)-cn, num edge types: 1
# Building blocks:
#     Node 0, Type 0, BuildingBlock: GALJAG_clean_sbu_0, # of connection points: 4
#     Node 1, Type 0, BuildingBlock: GALJAG_clean_sbu_0, # of connection points: 4
#     Node 2, Type 0, BuildingBlock: GALJAG_clean_sbu_0, # of connection points: 4
#     Node 3, Type 1, BuildingBlock: MUDLON_clean_sbu_0, # of connection points: 4
#     Node 4, Type 1, BuildingBlock: MUDLON_clean_sbu_0, # of connection points: 4
#     Node 5, Type 1, BuildingBlock: MUDLON_clean_sbu_0, # of connection points: 4
#     Edge 6, Type (0, 1), BuildingBlock: XIVTED_clean_linker_0, # of connection points: 2
#     Edge 7, Type (0, 1), BuildingBlock: XIVTED_clean_linker_0, # of connection points: 2
#     Edge 8, Type (0, 1), BuildingBlock: XIVTED_clean_linker_0, # of connection points: 2
#     Edge 9, Type (0, 1), BuildingBlock: XIVTED_clean_linker_0, # of connection points: 2
#     Edge 10, Type (0, 1), BuildingBlock: XIVTED_clean_linker_0, # of connection points: 2
#     Edge 11, Type (0, 1), BuildingBlock: XIVTED_clean_linker_0, # of connection points: 2
#     Edge 12, Type (0, 1), BuildingBlock: XIVTED_clean_linker_0, # of connection points: 2
#     Edge 13, Type (0, 1), BuildingBlock: XIVTED_clean_linker_0, # of connection points: 2
#     Edge 14, Type (0, 1), BuildingBlock: XIVTED_clean_linker_0, # of connection points: 2
#     Edge 15, Type (0, 1), BuildingBlock: XIVTED_clean_linker_0, # of connection points: 2
#     Edge 16, Type (0, 1), BuildingBlock: XIVTED_clean_linker_0, # of connection points: 2
#     Edge 17, Type (0, 1), BuildingBlock: XIVTED_clean_linker_0, # of connection points: 2
# Relax obj value: 0.043
# Max RMSD: 0.088
# Mean RMSD: 0.080
data_MOF--net-pth--node1-GALJAG_clean_sbu_0--node2-MUDLON_clean_sbu_0--edge1-XIVTED_clean_linker_0
_symmetry_space_group_name_H-M    P1
_symmetry_Int_Tables_number       1
_symmetry_cell_setting            triclinic
loop_
_symmetry_equiv_pos_as_xyz
'x, y, z'
_cell_length_a     23.304757
_cell_length_b     23.135179
_cell_length_c     58.304737
_cell_angle_alpha  89.973261
_cell_angle_beta   90.310452
_cell_angle_gamma 119.97359
loop_
_atom_site_label
_atom_site_type_symbol
_atom_site_fract_x
_atom_site_fract_y
_atom_site_fract_z
_atom_type_partial_charge
In0 In 1.00583 0.02142 0.09064 0.0
O1 O 0.9654 0.03142 0.12522 0.0
O2 O 0.98495 0.10534 0.10017 0.0
C3 C 0.9035 0.96337 0.0602 0.0
C4 C 0.1225 0.10179 0.06951 0.0
C5 C 0.03738 0.93828 0.11305 0.0
O6 O 0.89903 0.94352 0.08061 0.0
O7 O 0.95912 0.01242 0.05523 0.0
O8 O 0.0599 0.99832 0.11891 0.0
O9 O 0.99891 0.92008 0.09592 0.0
C10 C 0.96526 0.08435 0.12018 0.0
O11 O 0.08803 0.04021 0.0653 0.0
O12 O 0.09842 0.12284 0.08447 0.0
In13 In 0.02557 0.03232 0.41995 0.0
O14 O 0.09427 0.14306 0.41107 0.0
O15 O 0.01647 0.08287 0.38782 0.0
C16 C 0.10574 0.00953 0.44763 0.0
C17 C 0.93826 0.04816 0.44589 0.0
C18 C 0.99249 0.92796 0.39148 0.0
O19 O 0.12818 0.05607 0.43305 0.0
O20 O 0.04345 0.97586 0.44848 0.0
O21 O 0.95634 0.92432 0.40814 0.0
O22 O 0.04429 0.98396 0.38917 0.0
C23 C 0.06465 0.13983 0.39247 0.0
O24 O 0.92076 0.00989 0.42867 0.0
O25 O 0.99947 0.07763 0.4502 0.0
In26 In 1.00185 0.99735 0.76125 0.0
O27 O 0.96054 0.89095 0.77456 0.0
O28 O 0.93993 0.95709 0.79358 0.0
C29 C 0.09275 1.00257 0.73135 0.0
C30 C 0.90331 0.98724 0.73359 0.0
C31 C 0.08181 0.09316 0.79128 0.0
O32 O 0.06083 0.9539 0.74469 0.0
O33 O 0.07782 0.04781 0.73275 0.0
O34 O 0.03545 0.09607 0.7809 0.0
O35 O 0.08688 0.04282 0.7864 0.0
C36 C 0.93285 0.89943 0.79181 0.0
O37 O 0.95025 0.04306 0.7402 0.0
O38 O 0.90592 0.93763 0.74111 0.0
Mg39 Mg 0.02072 0.5261 0.25264 0.0
C40 C 0.0928 0.50353 0.29371 0.0
O41 O 0.08615 0.55023 0.30407 0.0
C42 C 0.06946 0.59642 0.20717 0.0
O43 O 0.03611 0.53457 0.19975 0.0
C44 C 0.941 0.38243 0.2374 0.0
O45 O 0.95766 0.37346 0.2581 0.0
O46 O 0.95367 0.44064 0.23159 0.0
O47 O 0.07572 0.4902 0.27276 0.0
O48 O 0.97695 0.57052 0.2742 0.0
C49 C 0.95083 0.55388 0.29394 0.0
O50 O 0.94134 0.49811 0.30328 0.0
O51 O 0.07781 0.60703 0.22867 0.0
Mg52 Mg 0.51814 0.01672 0.5887 0.0
C53 C 0.38876 0.92555 0.55686 0.0
O54 O 0.36789 0.87238 0.56981 0.0
C55 C 0.54504 0.94325 0.62777 0.0
O56 O 0.49986 0.95013 0.63876 0.0
C57 C 0.42038 1.00553 0.62024 0.0
O58 O 0.40015 0.94728 0.6105 0.0
O59 O 0.47631 0.05422 0.61431 0.0
O60 O 0.44209 0.97884 0.56186 0.0
O61 O 0.60496 0.0799 0.5679 0.0
C62 C 0.60386 0.04307 0.55143 0.0
O63 O 0.55516 0.98096 0.55049 0.0
O64 O 0.55473 0.95806 0.60657 0.0
Mg65 Mg 0.50527 0.53069 0.93214 0.0
C66 C 0.40987 0.42302 0.90364 0.0
O67 O 0.44788 0.40297 0.9133 0.0
C68 C 0.57416 0.6781 0.94258 0.0
O69 O 0.60159 0.68079 0.9227 0.0
C70 C 0.48262 0.41257 0.9658 0.0
O71 O 0.51429 0.39449 0.95156 0.0
O72 O 0.47715 0.46347 0.96143 0.0
O73 O 0.42192 0.48201 0.90794 0.0
O74 O 0.59801 0.55791 0.91458 0.0
C75 C 0.59914 0.5498 0.89302 0.0
O76 O 0.54294 0.51444 0.88194 0.0
O77 O 0.52497 0.62297 0.94888 0.0
H78 H 0.92807 0.05216 0.1649 0.0
H79 H 0.92787 0.39183 0.19087 0.0
H80 H 0.96117 0.19945 0.1134 0.0
H81 H 0.9166 0.25464 0.24326 0.0
H82 H 0.92127 0.31316 0.16157 0.0
H83 H 0.90661 0.11748 0.19298 0.0
C84 C 0.93027 0.09799 0.15945 0.0
C85 C 0.94699 0.1207 0.13682 0.0
C86 C 0.9194 0.2999 0.17948 0.0
C87 C 0.92253 0.19586 0.1689 0.0
C88 C 0.92276 0.34467 0.19625 0.0
C89 C 0.92362 0.33028 0.21962 0.0
C90 C 0.91681 0.24022 0.18608 0.0
C91 C 0.91674 0.26822 0.22548 0.0
C92 C 0.91803 0.1353 0.1755 0.0
C93 C 0.94888 0.18032 0.1307 0.0
N94 N 0.91434 0.22588 0.20885 0.0
N95 N 0.93725 0.21605 0.14668 0.0
H96 H 0.80628 0.99794 0.43793 0.0
H97 H 0.73873 0.12711 0.55664 0.0
H98 H 0.96256 0.12069 0.48558 0.0
H99 H 0.58833 1.00546 0.50711 0.0
H100 H 0.82409 0.13881 0.52924 0.0
H101 H 0.72786 0.0113 0.46166 0.0
C102 C 0.8241 0.02784 0.45339 0.0
C103 C 0.89087 0.05772 0.45989 0.0
C104 C 0.77239 0.11057 0.52427 0.0
C105 C 0.80121 0.07336 0.48731 0.0
C106 C 0.72386 0.10452 0.5398 0.0
C107 C 0.65659 0.0649 0.53412 0.0
C108 C 0.75302 0.07686 0.50305 0.0
C109 C 0.63973 0.03591 0.51223 0.0
C110 C 0.77934 0.0357 0.46694 0.0
C111 C 0.91133 0.09644 0.48003 0.0
N112 N 0.68744 0.04194 0.49763 0.0
N113 N 0.86657 0.10275 0.49314 0.0
H114 H 0.89716 0.91199 0.8352 0.0
H115 H 0.62576 0.53395 0.84857 0.0
H116 H 0.87826 0.7646 0.78582 0.0
H117 H 0.71022 0.6643 0.90711 0.0
H118 H 0.71608 0.61648 0.82489 0.0
H119 H 0.82596 0.82218 0.86145 0.0
C120 C 0.87826 0.86067 0.82994 0.0
C121 C 0.89329 0.84561 0.80828 0.0
C122 C 0.71543 0.62645 0.843 0.0
C123 C 0.81132 0.74269 0.83811 0.0
C124 C 0.66396 0.57936 0.85654 0.0
C125 C 0.6601 0.59242 0.87982 0.0
C126 C 0.76254 0.68764 0.85271 0.0
C127 C 0.71105 0.65212 0.88924 0.0
C128 C 0.83798 0.80948 0.84498 0.0
C129 C 0.86781 0.77829 0.80238 0.0
N130 N 0.75944 0.69807 0.87555 0.0
N131 N 0.82724 0.72921 0.81708 0.0
H132 H 0.10892 0.96234 0.15284 0.0
H133 H 0.04575 0.58942 0.16095 0.0
H134 H 1.00239 0.80997 0.10185 0.0
H135 H 0.12148 0.72962 0.21726 0.0
H136 H 0.04775 0.67622 0.13661 0.0
H137 H 0.12992 0.88366 0.17431 0.0
C138 C 0.09031 0.91246 0.14609 0.0
C139 C 0.0534 0.89247 0.12562 0.0
C140 C 0.06461 0.68824 0.15422 0.0
C141 C 0.0775 0.80234 0.15003 0.0
C142 C 0.06386 0.63875 0.16813 0.0
C143 C 0.08272 0.65188 0.19131 0.0
C144 C 0.08442 0.75153 0.16349 0.0
C145 C 0.10604 0.71699 0.19955 0.0
C146 C 0.1023 0.86759 0.15836 0.0
C147 C 0.03067 0.82733 0.11764 0.0
N148 N 0.10558 0.76418 0.18573 0.0
N149 N 0.04288 0.78457 0.12989 0.0
H150 H 0.24129 0.07526 0.44969 0.0
H151 H 0.25577 0.84096 0.54848 0.0
H152 H 0.06742 0.90858 0.47875 0.0
H153 H 0.42674 0.01774 0.52273 0.0
H154 H 0.1865 0.85745 0.52037 0.0
H155 H 0.31064 0.04878 0.47414 0.0
C156 C 0.21773 0.03309 0.46122 0.0
C157 C 0.14854 0.99434 0.46229 0.0
C158 C 0.23929 0.89227 0.52078 0.0
C159 C 0.2275 0.96338 0.49027 0.0
C160 C 0.27888 0.88259 0.53672 0.0
C161 C 0.34704 0.92833 0.53811 0.0
C162 C 0.26821 0.94789 0.50611 0.0
C163 C 0.37428 0.98158 0.52247 0.0
C164 C 0.2573 0.01786 0.47515 0.0
C165 C 0.12063 0.94002 0.47747 0.0
N166 N 0.33481 0.99006 0.50726 0.0
N167 N 0.16017 0.92623 0.4909 0.0
H168 H 0.17293 0.08535 0.81796 0.0
H169 H 0.32622 0.44669 0.87593 0.0
H170 H 0.09401 0.21496 0.80302 0.0
H171 H 0.37244 0.29405 0.89496 0.0
H172 H 0.24258 0.36738 0.8486 0.0
H173 H 0.24886 0.16618 0.84539 0.0
C174 C 0.17154 0.13103 0.82047 0.0
C175 C 0.127 0.14335 0.80814 0.0
C176 C 0.27105 0.35157 0.85889 0.0
C177 C 0.21475 0.23725 0.83985 0.0
C178 C 0.31868 0.3967 0.87446 0.0
C179 C 0.3568 0.37723 0.88766 0.0
C180 C 0.262 0.28697 0.8566 0.0
C181 C 0.3449 0.31184 0.8851 0.0
C182 C 0.21502 0.17737 0.83625 0.0
C183 C 0.12759 0.20355 0.81222 0.0
N184 N 0.29901 0.26954 0.8699 0.0
N185 N 0.17108 0.2486 0.82772 0.0
H186 H 0.90697 0.07664 0.70196 0.0
H187 H 0.52841 0.8779 0.6684 0.0
H188 H 0.7794 0.87966 0.72901 0.0
H189 H 0.67688 0.99762 0.61857 0.0
H190 H 0.61626 0.88562 0.69389 0.0
H191 H 0.81927 0.05906 0.67444 0.0
C192 C 0.86036 0.03001 0.70221 0.0
C193 C 0.85023 0.97954 0.71774 0.0
C194 C 0.62933 0.90933 0.67722 0.0
C195 C 0.75014 0.95942 0.68662 0.0
C196 C 0.57934 0.90473 0.66267 0.0
C197 C 0.59537 0.93672 0.6413 0.0
C198 C 0.69583 0.94794 0.67063 0.0
C199 C 0.66226 0.97153 0.63479 0.0
C200 C 0.81072 0.0198 0.68642 0.0
C201 C 0.78914 0.91976 0.71726 0.0
N202 N 0.7102 0.97723 0.64958 0.0
N203 N 0.74108 0.91155 0.7021 0.0
H204 H 0.90495 0.9939 0.01483 0.0
H205 H 0.54838 0.67753 0.98856 0.0
H206 H 0.77853 0.85727 0.06674 0.0
H207 H 0.68604 0.79932 0.93614 0.0
H208 H 0.62338 0.75447 0.0177 0.0
H209 H 0.8177 0.93379 0.98629 0.0
C210 C 0.8586 0.95152 0.02026 0.0
C211 C 0.84921 0.93019 0.04317 0.0
C212 C 0.63675 0.76485 0.9998 0.0
C213 C 0.74896 0.86108 1.01055 0.0
C214 C 0.59367 0.72116 0.9831 0.0
C215 C 0.61121 0.73141 0.95981 0.0
C216 C 0.6978 0.81932 0.99321 0.0
C217 C 0.67063 0.78897 0.95386 0.0
C218 C 0.80877 0.91721 1.00395 0.0
C219 C 0.78803 0.87514 0.04924 0.0
N220 N 0.71207 0.83027 0.97045 0.0
N221 N 0.7404 0.84224 0.03301 0.0
H222 H 0.04413 0.93246 0.34939 0.0
H223 H 0.90455 0.54285 0.33814 0.0
H224 H 0.90664 0.79437 0.39871 0.0
H225 H 0.97906 0.67869 0.28085 0.0
H226 H 0.906 0.63208 0.36143 0.0
H227 H 0.02396 0.83865 0.32488 0.0
C228 C 0.0094 0.88228 0.35501 0.0
C229 C 0.97707 0.87113 0.37611 0.0
C230 C 0.92119 0.64184 0.34367 0.0
C231 C 0.95418 0.76316 0.34821 0.0
C232 C 0.92035 0.59098 0.33036 0.0
C233 C 0.94228 0.60331 0.30753 0.0
C234 C 0.94495 0.70557 0.33414 0.0
C235 C 0.96216 0.66674 0.29838 0.0
C236 C 0.99769 0.8287 0.34097 0.0
C237 C 0.93242 0.80504 0.38251 0.0
N238 N 0.96378 0.71552 0.31177 0.0
N239 N 0.92279 0.75335 0.36872 0.0
H240 H 0.17557 0.10697 0.70371 0.0
H241 H 0.33267 0.90485 0.64679 0.0
H242 H 0.12864 0.90863 0.72379 0.0
H243 H 0.41412 0.1158 0.6354 0.0
H244 H 0.25702 0.9069 0.67471 0.0
H245 H 0.26155 0.1126 0.67813 0.0
C246 C 0.18333 0.06462 0.70272 0.0
C247 C 0.14465 1.00701 0.71579 0.0
C248 C 0.29153 0.95303 0.66629 0.0
C249 C 0.24277 0.01327 0.68668 0.0
C250 C 0.3348 0.9519 0.65025 0.0
C251 C 0.37949 0.01022 0.63862 0.0
C252 C 0.29195 0.0128 0.67069 0.0
C253 C 0.38042 0.06978 0.64403 0.0
C254 C 0.23259 0.06805 0.68822 0.0
C255 C 0.15704 0.95386 0.71398 0.0
N256 N 0.33663 0.06946 0.65956 0.0
N257 N 0.20473 0.95819 0.69964 0.0
H258 H 0.18543 0.06769 0.03721 0.0
H259 H 0.43479 0.44569 1.00305 0.0
H260 H 0.20007 0.23721 0.0734 0.0
H261 H 0.43914 0.27902 0.97171 0.0
H262 H 0.35507 0.37001 0.03093 0.0
H263 H 0.28306 0.14339 0.01481 0.0
C264 C 0.20951 0.12081 0.04057 0.0
C265 C 0.1843 0.14627 0.05707 0.0
C266 C 0.37394 0.3499 0.01816 0.0
C267 C 0.29585 0.23317 0.03145 0.0
C268 C 0.41961 0.39318 1.00223 0.0
C269 C 0.44328 0.36858 0.98489 0.0
C270 C 0.35087 0.28115 0.01664 0.0
C271 C 0.42217 0.30013 0.98478 0.0
C272 C 0.26531 0.16398 0.0278 0.0
C273 C 0.21759 0.21544 0.06077 0.0
N274 N 0.37641 0.25862 1.00021 0.0
N275 N 0.27124 0.25646 0.04794 0.0
H276 H 0.13795 0.27313 0.40335 0.0
H277 H 0.08956 0.38968 0.27892 0.0
H278 H 0.03148 0.13864 0.34762 0.0
H279 H 0.1265 0.51123 0.33942 0.0
H280 H 0.09428 0.30501 0.30245 0.0
H281 H 0.15807 0.36773 0.37866 0.0
C282 C 0.11958 0.26362 0.38586 0.0
C283 C 0.08264 0.19803 0.37753 0.0
C284 C 0.10205 0.35053 0.31054 0.0
C285 C 0.10595 0.30547 0.34929 0.0
C286 C 0.09975 0.3992 0.2971 0.0
C287 C 0.10687 0.45754 0.30722 0.0
C288 C 0.11206 0.36017 0.33431 0.0
C289 C 0.12019 0.46685 0.3309 0.0
C290 C 0.13084 0.31747 0.37185 0.0
C291 C 0.05975 0.18838 0.35478 0.0
N292 N 0.12188 0.41842 0.34369 0.0
N293 N 0.07176 0.24142 0.34148 0.0
loop_
_geom_bond_atom_site_label_1
_geom_bond_atom_site_label_2
_geom_bond_distance
_geom_bond_site_symmetry_2
_ccdc_geom_bond_type
In0 O1 2.294 1_455 S
In0 O2 2.326 . S
In0 O6 2.266 1_445 S
In0 O7 2.326 1_445 S
In0 O8 2.266 1_545 S
In0 O9 2.326 1_445 S
In0 O11 2.294 . S
In0 O12 2.326 . S
O1 In0 2.294 1_655 S
O1 C10 1.240 1_655 S
O2 In0 2.326 . S
O2 C10 1.252 . S
C3 O6 1.252 . S
C3 O7 1.260 . S
C4 O11 1.240 . S
C4 O12 1.252 . S
C5 O8 1.245 1_655 S
C5 O9 1.271 . S
O6 In0 2.266 1_665 S
O6 C3 1.252 . S
O7 In0 2.326 1_665 S
O7 C3 1.260 . S
O8 In0 2.266 1_565 S
O8 C5 1.245 1_455 S
O9 In0 2.326 1_665 S
O9 C5 1.271 . S
C10 O1 1.240 1_455 S
C10 O2 1.252 . S
O11 In0 2.294 . S
O11 C4 1.240 . S
O12 In0 2.326 . S
O12 C4 1.252 . S
In13 O14 2.294 . S
In13 O15 2.326 1_455 S
In13 O19 2.266 . S
In13 O20 2.326 1_545 S
In13 O21 2.266 1_445 S
In13 O22 2.326 1_545 S
In13 O24 2.294 1_445 S
In13 O25 2.326 1_455 S
O14 In13 2.294 . S
O14 C23 1.240 1_455 S
O15 In13 2.326 1_655 S
O15 C23 1.252 . S
C16 O19 1.252 1_565 S
C16 O20 1.260 . S
C17 O24 1.240 1_545 S
C17 O25 1.252 . S
C18 O21 1.252 1_455 S
C18 O22 1.260 . S
O19 In13 2.266 . S
O19 C16 1.252 1_545 S
O20 In13 2.326 1_565 S
O20 C16 1.260 . S
O21 In13 2.266 1_665 S
O21 C18 1.252 1_655 S
O22 In13 2.326 1_565 S
O22 C18 1.260 . S
C23 O14 1.240 1_655 S
C23 O15 1.252 . S
O24 In13 2.294 1_665 S
O24 C17 1.240 1_565 S
O25 In13 2.326 1_655 S
O25 C17 1.252 . S
In26 O27 2.294 1_445 S
In26 O28 2.326 1_445 S
In26 O32 2.266 1_545 S
In26 O33 2.326 . S
In26 O34 2.266 . S
In26 O35 2.326 . S
In26 O37 2.294 1_455 S
In26 O38 2.326 1_445 S
O27 In26 2.294 1_665 S
O27 C36 1.240 . S
O28 In26 2.326 1_665 S
O28 C36 1.252 . S
C29 O32 1.252 1_545 S
C29 O33 1.260 . S
C30 O37 1.240 1_565 S
C30 O38 1.252 . S
C31 O34 1.252 . S
C31 O35 1.260 . S
O32 In26 2.266 1_565 S
O32 C29 1.252 1_565 S
O33 In26 2.326 . S
O33 C29 1.260 . S
O34 In26 2.266 . S
O34 C31 1.252 . S
O35 In26 2.326 . S
O35 C31 1.260 . S
C36 O27 1.240 . S
C36 O28 1.252 . S
O37 In26 2.294 1_655 S
O37 C30 1.240 1_545 S
O38 In26 2.326 1_665 S
O38 C30 1.252 . S
Mg39 O46 2.141 . S
Mg39 O47 2.048 . S
Mg39 O48 2.048 . S
Mg39 O51 2.141 . S
C40 O41 1.313 . S
C40 O47 1.195 1_655 S
O41 C40 1.313 . S
C42 O43 1.245 . S
C42 O51 1.289 1_655 S
O43 C42 1.245 . S
C44 O45 1.245 . S
C44 O46 1.289 1_655 S
O45 C44 1.245 . S
O46 Mg39 2.141 . S
O46 C44 1.289 1_455 S
O47 Mg39 2.048 . S
O47 C40 1.195 1_455 S
O48 Mg39 2.048 . S
O48 C49 1.195 1_455 S
C49 O48 1.195 1_655 S
C49 O50 1.313 . S
O50 C49 1.313 . S
O51 Mg39 2.141 . S
O51 C42 1.289 1_455 S
Mg52 O59 2.141 . S
Mg52 O60 2.048 . S
Mg52 O61 2.048 . S
Mg52 O64 2.141 . S
C53 O54 1.313 . S
C53 O60 1.195 1_565 S
O54 C53 1.313 . S
C55 O56 1.245 . S
C55 O64 1.289 1_565 S
O56 C55 1.245 . S
C57 O58 1.245 . S
C57 O59 1.289 1_565 S
O58 C57 1.245 . S
O59 Mg52 2.141 . S
O59 C57 1.289 1_545 S
O60 Mg52 2.048 . S
O60 C53 1.195 1_545 S
O61 Mg52 2.048 . S
O61 C62 1.195 1_545 S
C62 O61 1.195 1_565 S
C62 O63 1.313 . S
O63 C62 1.313 . S
O64 Mg52 2.141 . S
O64 C55 1.289 1_545 S
Mg65 O72 2.141 . S
Mg65 O73 2.048 . S
Mg65 O74 2.048 . S
Mg65 O77 2.141 . S
C66 O67 1.313 . S
C66 O73 1.195 . S
O67 C66 1.313 . S
C68 O69 1.245 . S
C68 O77 1.289 . S
O69 C68 1.245 . S
C70 O71 1.245 . S
C70 O72 1.289 . S
O71 C70 1.245 . S
O72 Mg65 2.141 . S
O72 C70 1.289 . S
O73 Mg65 2.048 . S
O73 C66 1.195 . S
O74 Mg65 2.048 . S
O74 C75 1.195 . S
C75 O74 1.195 . S
C75 O76 1.313 . S
O76 C75 1.313 . S
O77 Mg65 2.141 . S
O77 C68 1.289 . S
H78 C84 0.930 . S
H79 C88 0.930 . S
H80 C93 0.929 . S
H81 C91 0.929 . S
H82 C86 0.929 . S
H83 C92 0.929 . S
C84 H78 0.930 . S
C84 C85 1.367 1_655 S
C84 C92 1.378 . S
C85 C84 1.367 1_455 S
C85 C93 1.433 . S
C86 H82 0.929 . S
C86 C88 1.378 . S
C86 C90 1.350 . S
C87 C90 1.463 . S
C87 C92 1.350 1_455 S
C87 N95 1.427 . S
C88 H79 0.930 . S
C88 C86 1.378 . S
C88 C89 1.367 . S
C89 C88 1.367 . S
C89 C91 1.433 1_455 S
C90 C86 1.350 . S
C90 C87 1.463 . S
C90 N94 1.427 1_455 S
C91 H81 0.929 . S
C91 C89 1.433 1_655 S
C91 N94 1.384 . S
C92 H83 0.929 . S
C92 C84 1.378 . S
C92 C87 1.350 1_655 S
C93 H80 0.929 . S
C93 C85 1.433 . S
C93 N95 1.384 . S
N94 C90 1.427 1_655 S
N94 C91 1.384 . S
N95 C87 1.427 . S
N95 C93 1.384 . S
H96 C102 0.930 . S
H97 C106 0.930 . S
H98 C111 0.929 . S
H99 C109 0.929 . S
H100 C104 0.929 . S
H101 C110 0.929 . S
C102 H96 0.930 . S
C102 C103 1.367 1_565 S
C102 C110 1.378 . S
C103 C102 1.367 1_545 S
C103 C111 1.433 . S
C104 H100 0.929 . S
C104 C106 1.378 . S
C104 C108 1.350 . S
C105 C108 1.463 . S
C105 C110 1.350 1_545 S
C105 N113 1.427 . S
C106 H97 0.930 . S
C106 C104 1.378 . S
C106 C107 1.367 . S
C107 C106 1.367 . S
C107 C109 1.433 1_545 S
C108 C104 1.350 . S
C108 C105 1.463 . S
C108 N112 1.427 1_545 S
C109 H99 0.929 . S
C109 C107 1.433 1_565 S
C109 N112 1.384 . S
C110 H101 0.929 . S
C110 C102 1.378 . S
C110 C105 1.350 1_565 S
C111 H98 0.929 . S
C111 C103 1.433 . S
C111 N113 1.384 . S
N112 C108 1.427 1_565 S
N112 C109 1.384 . S
N113 C105 1.427 . S
N113 C111 1.384 . S
H114 C120 0.930 . S
H115 C124 0.930 . S
H116 C129 0.929 . S
H117 C127 0.929 . S
H118 C122 0.929 . S
H119 C128 0.929 . S
C120 H114 0.930 . S
C120 C121 1.367 . S
C120 C128 1.378 . S
C121 C120 1.367 . S
C121 C129 1.433 . S
C122 H118 0.929 . S
C122 C124 1.378 . S
C122 C126 1.350 . S
C123 C126 1.463 . S
C123 C128 1.350 . S
C123 N131 1.427 . S
C124 H115 0.930 . S
C124 C122 1.378 . S
C124 C125 1.367 . S
C125 C124 1.367 . S
C125 C127 1.433 . S
C126 C122 1.350 . S
C126 C123 1.463 . S
C126 N130 1.427 . S
C127 H117 0.929 . S
C127 C125 1.433 . S
C127 N130 1.384 . S
C128 H119 0.929 . S
C128 C120 1.378 . S
C128 C123 1.350 . S
C129 H116 0.929 . S
C129 C121 1.433 . S
C129 N131 1.384 . S
N130 C126 1.427 . S
N130 C127 1.384 . S
N131 C123 1.427 . S
N131 C129 1.384 . S
H132 C138 0.930 . S
H133 C142 0.930 . S
H134 C147 0.929 . S
H135 C145 0.929 . S
H136 C140 0.929 . S
H137 C146 0.929 . S
C138 H132 0.930 . S
C138 C139 1.367 . S
C138 C146 1.378 . S
C139 C138 1.367 . S
C139 C147 1.433 1_455 S
C140 H136 0.929 . S
C140 C142 1.378 . S
C140 C144 1.345 1_655 S
C141 C144 1.457 . S
C141 C146 1.350 . S
C141 N149 1.427 1_455 S
C142 H133 0.930 . S
C142 C140 1.378 . S
C142 C143 1.367 1_655 S
C143 C142 1.367 1_455 S
C143 C145 1.433 . S
C144 C140 1.345 1_455 S
C144 C141 1.457 . S
C144 N148 1.438 . S
C145 H135 0.929 . S
C145 C143 1.433 . S
C145 N148 1.384 . S
C146 H137 0.929 . S
C146 C138 1.378 . S
C146 C141 1.350 . S
C147 H134 0.929 . S
C147 C139 1.433 1_655 S
C147 N149 1.384 . S
N148 C144 1.438 . S
N148 C145 1.384 . S
N149 C141 1.427 1_655 S
N149 C147 1.384 . S
H150 C156 0.930 . S
H151 C160 0.930 . S
H152 C165 0.929 . S
H153 C163 0.929 . S
H154 C158 0.929 . S
H155 C164 0.929 . S
C156 H150 0.930 . S
C156 C157 1.375 . S
C156 C164 1.378 . S
C157 C156 1.375 . S
C157 C165 1.421 1_545 S
C158 H154 0.929 . S
C158 C160 1.378 . S
C158 C162 1.352 . S
C159 C162 1.461 1_545 S
C159 C164 1.350 . S
C159 N167 1.427 1_545 S
C160 H151 0.930 . S
C160 C158 1.378 . S
C160 C161 1.367 1_565 S
C161 C160 1.367 1_545 S
C161 C163 1.433 . S
C162 C158 1.352 . S
C162 C159 1.461 1_565 S
C162 N166 1.426 1_565 S
C163 H153 0.929 . S
C163 C161 1.433 . S
C163 N166 1.384 . S
C164 H155 0.929 . S
C164 C156 1.378 . S
C164 C159 1.350 . S
C165 H152 0.929 . S
C165 C157 1.421 1_565 S
C165 N167 1.384 . S
N166 C162 1.426 1_545 S
N166 C163 1.384 . S
N167 C159 1.427 1_565 S
N167 C165 1.384 . S
H168 C174 0.930 . S
H169 C178 0.930 . S
H170 C183 0.929 . S
H171 C181 0.929 . S
H172 C176 0.929 . S
H173 C182 0.929 . S
C174 H168 0.930 . S
C174 C175 1.367 . S
C174 C182 1.378 . S
C175 C174 1.367 . S
C175 C183 1.433 . S
C176 H172 0.929 . S
C176 C178 1.378 . S
C176 C180 1.350 . S
C177 C180 1.463 . S
C177 C182 1.350 . S
C177 N185 1.427 . S
C178 H169 0.930 . S
C178 C176 1.378 . S
C178 C179 1.367 . S
C179 C178 1.367 . S
C179 C181 1.433 . S
C180 C176 1.350 . S
C180 C177 1.463 . S
C180 N184 1.427 . S
C181 H171 0.929 . S
C181 C179 1.433 . S
C181 N184 1.384 . S
C182 H173 0.929 . S
C182 C174 1.378 . S
C182 C177 1.350 . S
C183 H170 0.929 . S
C183 C175 1.433 . S
C183 N185 1.384 . S
N184 C180 1.427 . S
N184 C181 1.384 . S
N185 C177 1.427 . S
N185 C183 1.384 . S
H186 C192 0.930 . S
H187 C196 0.930 . S
H188 C201 0.929 . S
H189 C199 0.929 . S
H190 C194 0.929 . S
H191 C200 0.929 . S
C192 H186 0.930 . S
C192 C193 1.367 1_545 S
C192 C200 1.378 . S
C193 C192 1.367 1_565 S
C193 C201 1.433 . S
C194 H190 0.929 . S
C194 C196 1.378 . S
C194 C198 1.350 . S
C195 C198 1.462 1_545 S
C195 C200 1.350 . S
C195 N203 1.427 1_545 S
C196 H187 0.930 . S
C196 C194 1.378 . S
C196 C197 1.367 1_565 S
C197 C196 1.367 1_545 S
C197 C199 1.433 . S
C198 C194 1.350 . S
C198 C195 1.462 1_565 S
C198 N202 1.427 1_565 S
C199 H189 0.929 . S
C199 C197 1.433 . S
C199 N202 1.384 . S
C200 H191 0.929 . S
C200 C192 1.378 . S
C200 C195 1.350 . S
C201 H188 0.929 . S
C201 C193 1.433 . S
C201 N203 1.384 . S
N202 C198 1.427 1_545 S
N202 C199 1.384 . S
N203 C195 1.427 1_565 S
N203 C201 1.384 . S
H204 C210 0.930 . S
H205 C214 0.930 . S
H206 C219 0.929 . S
H207 C217 0.929 . S
H208 C212 0.929 . S
H209 C218 0.929 . S
C210 H204 0.930 . S
C210 C211 1.367 . S
C210 C218 1.378 . S
C211 C210 1.367 . S
C211 C219 1.433 . S
C212 H208 0.929 . S
C212 C214 1.378 . S
C212 C216 1.350 . S
C213 C216 1.463 1_554 S
C213 C218 1.350 . S
C213 N221 1.427 . S
C214 H205 0.930 . S
C214 C212 1.378 . S
C214 C215 1.367 . S
C215 C214 1.367 . S
C215 C217 1.433 . S
C216 C212 1.350 . S
C216 C213 1.463 1_556 S
C216 N220 1.427 . S
C217 H207 0.929 . S
C217 C215 1.433 . S
C217 N220 1.384 . S
C218 H209 0.929 . S
C218 C210 1.378 . S
C218 C213 1.350 . S
C219 H206 0.929 . S
C219 C211 1.433 . S
C219 N221 1.384 . S
N220 C216 1.427 . S
N220 C217 1.384 . S
N221 C213 1.427 . S
N221 C219 1.384 . S
H222 C228 0.930 . S
H223 C232 0.930 . S
H224 C237 0.929 . S
H225 C235 0.929 . S
H226 C230 0.929 . S
H227 C236 0.929 . S
C228 H222 0.930 . S
C228 C229 1.367 . S
C228 C236 1.378 . S
C229 C228 1.367 . S
C229 C237 1.433 1_455 S
C230 H226 0.929 . S
C230 C232 1.378 . S
C230 C234 1.350 1_655 S
C231 C234 1.463 . S
C231 C236 1.350 . S
C231 N239 1.427 1_455 S
C232 H223 0.930 . S
C232 C230 1.378 . S
C232 C233 1.367 1_655 S
C233 C232 1.367 1_455 S
C233 C235 1.433 . S
C234 C230 1.350 1_455 S
C234 C231 1.463 . S
C234 N238 1.427 . S
C235 H225 0.929 . S
C235 C233 1.433 . S
C235 N238 1.384 . S
C236 H227 0.929 . S
C236 C228 1.378 . S
C236 C231 1.350 . S
C237 H224 0.929 . S
C237 C229 1.433 1_655 S
C237 N239 1.384 . S
N238 C234 1.427 . S
N238 C235 1.384 . S
N239 C231 1.427 1_655 S
N239 C237 1.384 . S
H240 C246 0.930 . S
H241 C250 0.930 . S
H242 C255 0.929 . S
H243 C253 0.929 . S
H244 C248 0.929 . S
H245 C254 0.929 . S
C246 H240 0.930 . S
C246 C247 1.367 . S
C246 C254 1.378 . S
C247 C246 1.367 . S
C247 C255 1.433 1_545 S
C248 H244 0.929 . S
C248 C250 1.378 . S
C248 C252 1.350 1_565 S
C249 C252 1.463 . S
C249 C254 1.350 . S
C249 N257 1.427 1_545 S
C250 H241 0.930 . S
C250 C248 1.378 . S
C250 C251 1.367 1_565 S
C251 C250 1.367 1_545 S
C251 C253 1.433 . S
C252 C248 1.350 1_545 S
C252 C249 1.463 . S
C252 N256 1.427 . S
C253 H243 0.929 . S
C253 C251 1.433 . S
C253 N256 1.384 . S
C254 H245 0.929 . S
C254 C246 1.378 . S
C254 C249 1.350 . S
C255 H242 0.929 . S
C255 C247 1.433 1_565 S
C255 N257 1.384 . S
N256 C252 1.427 . S
N256 C253 1.384 . S
N257 C249 1.427 1_565 S
N257 C255 1.384 . S
H258 C264 0.930 . S
H259 C268 0.930 . S
H260 C273 0.929 . S
H261 C271 0.929 . S
H262 C266 0.929 1_554 S
H263 C272 0.929 1_556 S
C264 H258 0.930 . S
C264 C265 1.367 . S
C264 C272 1.378 . S
C265 C264 1.367 . S
C265 C273 1.433 . S
C266 H262 0.929 1_556 S
C266 C268 1.378 . S
C266 C270 1.350 . S
C267 C270 1.463 1_554 S
C267 C272 1.350 . S
C267 N275 1.427 . S
C268 H259 0.930 . S
C268 C266 1.378 . S
C268 C269 1.367 . S
C269 C268 1.367 . S
C269 C271 1.433 . S
C270 C266 1.350 . S
C270 C267 1.463 1_556 S
C270 N274 1.427 . S
C271 H261 0.929 . S
C271 C269 1.433 . S
C271 N274 1.384 . S
C272 H263 0.929 1_554 S
C272 C264 1.378 . S
C272 C267 1.350 . S
C273 H260 0.929 . S
C273 C265 1.433 . S
C273 N275 1.384 . S
N274 C270 1.427 . S
N274 C271 1.384 . S
N275 C267 1.427 . S
N275 C273 1.384 . S
H276 C282 0.930 . S
H277 C286 0.930 . S
H278 C291 0.929 . S
H279 C289 0.929 . S
H280 C284 0.929 . S
H281 C290 0.929 . S
C282 H276 0.930 . S
C282 C283 1.367 . S
C282 C290 1.378 . S
C283 C282 1.367 . S
C283 C291 1.433 1_655 S
C284 H280 0.929 . S
C284 C286 1.378 . S
C284 C288 1.350 . S
C285 C288 1.470 1_655 S
C285 C290 1.356 . S
C285 N293 1.414 1_655 S
C286 H277 0.930 . S
C286 C284 1.378 . S
C286 C287 1.367 . S
C287 C286 1.367 . S
C287 C289 1.433 1_455 S
C288 C284 1.350 . S
C288 C285 1.470 1_455 S
C288 N292 1.427 1_455 S
C289 H279 0.929 . S
C289 C287 1.433 1_655 S
C289 N292 1.384 . S
C290 H281 0.929 . S
C290 C282 1.378 . S
C290 C285 1.356 . S
C291 H278 0.929 . S
C291 C283 1.433 1_455 S
C291 N293 1.384 . S
N292 C288 1.427 1_655 S
N292 C289 1.384 . S
N293 C285 1.414 1_455 S
N293 C291 1.384 . S
C89 C44 1.446 1_455 S
C85 C10 1.452 . S
C103 C17 1.518 . S
C107 C62 1.516 1_545 S
C121 C36 1.524 . S
C125 C75 1.519 . S
C139 C5 1.449 1_455 S
C143 C42 1.441 1_455 S
C161 C53 1.512 1_545 S
C157 C16 1.525 1_545 S
C175 C31 1.526 . S
C179 C66 1.523 . S
C197 C55 1.434 1_545 S
C193 C30 1.448 . S
C211 C3 1.456 . S
C215 C68 1.448 . S
C233 C49 1.517 1_455 S
C229 C18 1.521 . S
C251 C57 1.438 1_545 S
C247 C29 1.450 . S
C269 C70 1.448 . S
C265 C4 1.453 . S
C283 C23 1.520 . S
C287 C40 1.513 1_455 S
