# Generated by pormake.
# Topology pyr, (3,6)-cn, num edge types: 1
# Building blocks:
#     Node 0, Type 0, BuildingBlock: WUSLED_clean_sbu_0, # of connection points: 3
#     Node 1, Type 0, BuildingBlock: WUSLED_clean_sbu_0, # of connection points: 3
#     Node 2, Type 0, BuildingBlock: WUSLED_clean_sbu_0, # of connection points: 3
#     Node 3, Type 0, BuildingBlock: WUSLED_clean_sbu_0, # of connection points: 3
#     Node 4, Type 0, BuildingBlock: WUSLED_clean_sbu_0, # of connection points: 3
#     Node 5, Type 0, BuildingBlock: WUSLED_clean_sbu_0, # of connection points: 3
#     Node 6, Type 0, BuildingBlock: WUSLED_clean_sbu_0, # of connection points: 3
#     Node 7, Type 0, BuildingBlock: WUSLED_clean_sbu_0, # of connection points: 3
#     Node 8, Type 1, BuildingBlock: MIDCAF_clean_sbu_0, # of connection points: 6
#     Node 9, Type 1, BuildingBlock: MIDCAF_clean_sbu_0, # of connection points: 6
#     Node 10, Type 1, BuildingBlock: MIDCAF_clean_sbu_0, # of connection points: 6
#     Node 11, Type 1, BuildingBlock: MIDCAF_clean_sbu_0, # of connection points: 6
#     Edge 12, Type (0, 1), BuildingBlock: CIFDUS_clean_linker_0, # of connection points: 2
#     Edge 13, Type (0, 1), BuildingBlock: CIFDUS_clean_linker_0, # of connection points: 2
#     Edge 14, Type (0, 1), BuildingBlock: CIFDUS_clean_linker_0, # of connection points: 2
#     Edge 15, Type (0, 1), BuildingBlock: CIFDUS_clean_linker_0, # of connection points: 2
#     Edge 16, Type (0, 1), BuildingBlock: CIFDUS_clean_linker_0, # of connection points: 2
#     Edge 17, Type (0, 1), BuildingBlock: CIFDUS_clean_linker_0, # of connection points: 2
#     Edge 18, Type (0, 1), BuildingBlock: CIFDUS_clean_linker_0, # of connection points: 2
#     Edge 19, Type (0, 1), BuildingBlock: CIFDUS_clean_linker_0, # of connection points: 2
#     Edge 20, Type (0, 1), BuildingBlock: CIFDUS_clean_linker_0, # of connection points: 2
#     Edge 21, Type (0, 1), BuildingBlock: CIFDUS_clean_linker_0, # of connection points: 2
#     Edge 22, Type (0, 1), BuildingBlock: CIFDUS_clean_linker_0, # of connection points: 2
#     Edge 23, Type (0, 1), BuildingBlock: CIFDUS_clean_linker_0, # of connection points: 2
#     Edge 24, Type (0, 1), BuildingBlock: CIFDUS_clean_linker_0, # of connection points: 2
#     Edge 25, Type (0, 1), BuildingBlock: CIFDUS_clean_linker_0, # of connection points: 2
#     Edge 26, Type (0, 1), BuildingBlock: CIFDUS_clean_linker_0, # of connection points: 2
#     Edge 27, Type (0, 1), BuildingBlock: CIFDUS_clean_linker_0, # of connection points: 2
#     Edge 28, Type (0, 1), BuildingBlock: CIFDUS_clean_linker_0, # of connection points: 2
#     Edge 29, Type (0, 1), BuildingBlock: CIFDUS_clean_linker_0, # of connection points: 2
#     Edge 30, Type (0, 1), BuildingBlock: CIFDUS_clean_linker_0, # of connection points: 2
#     Edge 31, Type (0, 1), BuildingBlock: CIFDUS_clean_linker_0, # of connection points: 2
#     Edge 32, Type (0, 1), BuildingBlock: CIFDUS_clean_linker_0, # of connection points: 2
#     Edge 33, Type (0, 1), BuildingBlock: CIFDUS_clean_linker_0, # of connection points: 2
#     Edge 34, Type (0, 1), BuildingBlock: CIFDUS_clean_linker_0, # of connection points: 2
#     Edge 35, Type (0, 1), BuildingBlock: CIFDUS_clean_linker_0, # of connection points: 2
# Relax obj value: 0.020
# Max RMSD: 0.063
# Mean RMSD: 0.028
data_MOF--net-pyr--node1-WUSLED_clean_sbu_0--node2-MIDCAF_clean_sbu_0--edge1-CIFDUS_clean_linker_0
_symmetry_space_group_name_H-M    P1
_symmetry_Int_Tables_number       1
_symmetry_cell_setting            triclinic
loop_
_symmetry_equiv_pos_as_xyz
'x, y, z'
_cell_length_a     41.855654
_cell_length_b     41.987107
_cell_length_c     41.982495
_cell_angle_alpha  89.413307
_cell_angle_beta   90.271992
_cell_angle_gamma 90.411836
loop_
_atom_site_label
_atom_site_type_symbol
_atom_site_fract_x
_atom_site_fract_y
_atom_site_fract_z
_atom_type_partial_charge
C0 C 0.21739 0.31023 0.17378 0.0
C1 C 0.18416 0.31208 0.17772 0.0
C2 C 0.1833 0.36351 0.14982 0.0
C3 C 0.16729 0.33843 0.16584 0.0
C4 C 0.21672 0.36187 0.14681 0.0
C5 C 0.23352 0.33552 0.15862 0.0
U6 U 0.23554 0.23566 0.22641 0.0
O7 O 0.24946 0.18787 0.21107 0.0
O8 O 0.28274 0.21634 0.23969 0.0
C9 C 0.27839 0.19023 0.22318 0.0
C10 C 0.23555 0.2815 0.18314 0.0
C11 C 0.30461 0.18127 0.20174 0.0
C12 C 0.32942 0.18217 0.14949 0.0
C13 C 0.30619 0.19326 0.17047 0.0
C14 C 0.35075 0.14804 0.19117 0.0
C15 C 0.3516 0.15894 0.15939 0.0
C16 C 0.32739 0.15905 0.2121 0.0
C17 C 0.18485 0.21174 0.29885 0.0
C18 C 0.16429 0.20329 0.35255 0.0
C19 C 0.17946 0.15811 0.32079 0.0
C20 C 0.18826 0.17868 0.29585 0.0
C21 C 0.16735 0.17006 0.34957 0.0
C22 C 0.1729 0.22386 0.32743 0.0
C23 C 0.19285 0.23372 0.27221 0.0
O24 O 0.25213 0.28302 0.20977 0.0
O25 O 0.22093 0.25396 0.17937 0.0
O26 O 0.18753 0.22278 0.24341 0.0
O27 O 0.22015 0.24922 0.27465 0.0
H28 H 0.17115 0.29283 0.18928 0.0
H29 H 0.14156 0.3386 0.16831 0.0
H30 H 0.22995 0.38087 0.13511 0.0
H31 H 0.25916 0.33461 0.15534 0.0
H32 H 0.32968 0.19137 0.1253 0.0
H33 H 0.28896 0.21059 0.16205 0.0
H34 H 0.36727 0.13001 0.19948 0.0
H35 H 0.32655 0.14951 0.23616 0.0
H36 H 0.15549 0.21347 0.37438 0.0
H37 H 0.18166 0.13272 0.31722 0.0
H38 H 0.19743 0.16866 0.27407 0.0
H39 H 0.17013 0.24931 0.3303 0.0
C40 C 0.24771 0.82901 0.68209 0.0
C41 C 0.22155 0.81165 0.67035 0.0
C42 C 0.19567 0.86064 0.6527 0.0
C43 C 0.19581 0.82724 0.65589 0.0
C44 C 0.22111 0.87818 0.66609 0.0
C45 C 0.24695 0.86249 0.68063 0.0
U46 U 0.32148 0.81548 0.7366 0.0
O47 O 0.34074 0.77022 0.75551 0.0
O48 O 0.36967 0.80019 0.72341 0.0
C49 C 0.36719 0.77292 0.7389 0.0
C50 C 0.27627 0.81145 0.69313 0.0
C51 C 0.37786 0.74419 0.72196 0.0
C52 C 0.40474 0.69309 0.72474 0.0
C53 C 0.39039 0.71878 0.73984 0.0
C54 C 0.39286 0.71689 0.67332 0.0
C55 C 0.40705 0.69226 0.69133 0.0
C56 C 0.37842 0.74267 0.6885 0.0
C57 C 0.3408 0.87597 0.80353 0.0
C58 C 0.36841 0.87117 0.85472 0.0
C59 C 0.3614 0.92302 0.83004 0.0
C60 C 0.34583 0.90896 0.80426 0.0
C61 C 0.37225 0.90446 0.85596 0.0
C62 C 0.35268 0.857 0.82873 0.0
C63 C 0.32154 0.86281 0.77706 0.0
O64 O 0.30409 0.8253 0.68806 0.0
O65 O 0.27435 0.79725 0.72111 0.0
O66 O 0.3064 0.8357 0.78225 0.0
O67 O 0.33426 0.86493 0.74855 0.0
H68 H 0.22154 0.78585 0.67135 0.0
H69 H 0.1764 0.81304 0.64627 0.0
H70 H 0.22184 0.90389 0.66389 0.0
H71 H 0.26682 0.87646 0.68965 0.0
H72 H 0.41497 0.67428 0.73932 0.0
H73 H 0.39012 0.71936 0.76564 0.0
H74 H 0.39437 0.71709 0.64758 0.0
H75 H 0.3688 0.76193 0.67411 0.0
H76 H 0.37653 0.85625 0.87429 0.0
H77 H 0.36457 0.94865 0.82988 0.0
H78 H 0.33704 0.92405 0.78509 0.0
H79 H 0.34923 0.83141 0.82868 0.0
C80 C 0.69088 0.34258 0.7456 0.0
C81 C 0.6972 0.3754 0.74689 0.0
C82 C 0.67266 0.38315 0.6945 0.0
C83 C 0.68805 0.39547 0.72172 0.0
C84 C 0.66687 0.35012 0.69315 0.0
C85 C 0.67585 0.33008 0.71849 0.0
U86 U 0.7422 0.31958 0.81817 0.0
O87 O 0.72765 0.3024 0.86555 0.0
O88 O 0.75693 0.272 0.83533 0.0
C89 C 0.74017 0.27408 0.86161 0.0
C90 C 0.69888 0.3213 0.77264 0.0
C91 C 0.71909 0.24669 0.8691 0.0
C92 C 0.66624 0.22246 0.87181 0.0
C93 C 0.6861 0.24801 0.86319 0.0
C94 C 0.71211 0.19342 0.8916 0.0
C95 C 0.67891 0.19479 0.88622 0.0
C96 C 0.73195 0.21915 0.88317 0.0
C97 C 0.81347 0.37204 0.84264 0.0
C98 C 0.83577 0.37662 0.896 0.0
C99 C 0.8665 0.39496 0.85059 0.0
C100 C 0.8415 0.38577 0.83027 0.0
C101 C 0.8639 0.39071 0.8838 0.0
C102 C 0.81095 0.36723 0.87566 0.0
C103 C 0.78679 0.36388 0.82099 0.0
O104 O 0.72574 0.30548 0.77028 0.0
O105 O 0.69445 0.33314 0.80114 0.0
O106 O 0.75792 0.36732 0.83263 0.0
O107 O 0.78997 0.33759 0.80459 0.0
H108 H 0.70879 0.38561 0.76757 0.0
H109 H 0.69245 0.42079 0.72397 0.0
H110 H 0.6555 0.33968 0.67248 0.0
H111 H 0.67085 0.30478 0.71701 0.0
H112 H 0.64079 0.22475 0.86776 0.0
H113 H 0.67558 0.269 0.85231 0.0
H114 H 0.72282 0.17243 0.90222 0.0
H115 H 0.75738 0.21762 0.88785 0.0
H116 H 0.83251 0.37344 0.9214 0.0
H117 H 0.88789 0.40528 0.84025 0.0
H118 H 0.84397 0.38961 0.80483 0.0
H119 H 0.78958 0.35665 0.88583 0.0
C120 C 0.74965 0.68559 0.33496 0.0
C121 C 0.73289 0.70851 0.35218 0.0
C122 C 0.70045 0.6668 0.37722 0.0
C123 C 0.70842 0.69923 0.37296 0.0
C124 C 0.71714 0.64401 0.35956 0.0
C125 C 0.74144 0.65335 0.33862 0.0
U126 U 0.81966 0.74027 0.31282 0.0
O127 O 0.86786 0.72857 0.29638 0.0
O128 O 0.83619 0.75686 0.26561 0.0
C129 C 0.86322 0.74125 0.26798 0.0
C130 C 0.77638 0.69468 0.31394 0.0
C131 C 0.87102 0.72064 0.24092 0.0
C132 C 0.8722 0.66841 0.21658 0.0
C133 C 0.86353 0.68802 0.24176 0.0
C134 C 0.89515 0.71388 0.18883 0.0
C135 C 0.88822 0.68101 0.18977 0.0
C136 C 0.88667 0.73347 0.21421 0.0
C137 C 0.84012 0.81095 0.36669 0.0
C138 C 0.86452 0.84271 0.40847 0.0
C139 C 0.87621 0.8546 0.35316 0.0
C140 C 0.85608 0.82959 0.34375 0.0
C141 C 0.88103 0.86124 0.38568 0.0
C142 C 0.84425 0.81789 0.39903 0.0
C143 C 0.82006 0.78346 0.35767 0.0
O144 O 0.77298 0.72132 0.29755 0.0
O145 O 0.80498 0.69159 0.32657 0.0
O146 O 0.83376 0.75555 0.36088 0.0
O147 O 0.80338 0.7863 0.33116 0.0
H148 H 0.73891 0.73356 0.3498 0.0
H149 H 0.69586 0.71748 0.38583 0.0
H150 H 0.71211 0.61883 0.36258 0.0
H151 H 0.75424 0.6353 0.32567 0.0
H152 H 0.86693 0.64318 0.21853 0.0
H153 H 0.85138 0.6776 0.26212 0.0
H154 H 0.90705 0.72454 0.16846 0.0
H155 H 0.89251 0.75863 0.21306 0.0
H156 H 0.86801 0.84666 0.4337 0.0
H157 H 0.88819 0.86858 0.33492 0.0
H158 H 0.85332 0.8246 0.31862 0.0
H159 H 0.83227 0.80365 0.41709 0.0
C160 C 0.88563 0.81118 0.94135 0.0
C161 C 0.91714 0.80325 0.93365 0.0
C162 C 0.91433 0.75651 0.96868 0.0
C163 C 0.93137 0.77622 0.94722 0.0
C164 C 0.88267 0.76454 0.97614 0.0
C165 C 0.86851 0.79165 0.96264 0.0
U166 U 0.88208 0.88058 0.88111 0.0
O167 O 0.84045 0.90102 0.85604 0.0
O168 O 0.86889 0.93056 0.88848 0.0
C169 C 0.84312 0.92849 0.87057 0.0
C170 C 0.87035 0.83976 0.92764 0.0
C171 C 0.81352 0.94103 0.88451 0.0
C172 C 0.77734 0.947 0.92917 0.0
C173 C 0.80511 0.93415 0.91617 0.0
C174 C 0.7657 0.97332 0.87889 0.0
C175 C 0.75732 0.96684 0.91072 0.0
C176 C 0.79358 0.9606 0.86597 0.0
C177 C 0.94815 0.89185 0.8181 0.0
C178 C 0.95506 0.90076 0.76097 0.0
C179 C 0.98521 0.93251 0.79848 0.0
C180 C 0.97105 0.91583 0.8238 0.0
C181 C 0.97708 0.92552 0.76675 0.0
C182 C 0.94081 0.88408 0.78634 0.0
C183 C 0.93294 0.87438 0.84515 0.0
O184 O 0.88595 0.86672 0.93164 0.0
O185 O 0.8586 0.83671 0.89873 0.0
O186 O 0.90556 0.85994 0.83929 0.0
O187 O 0.93336 0.88873 0.87286 0.0
H188 H 0.9307 0.81795 0.91712 0.0
H189 H 0.95559 0.77047 0.9405 0.0
H190 H 0.86895 0.75007 0.99271 0.0
H191 H 0.84416 0.79743 0.9689 0.0
H192 H 0.77132 0.94104 0.95358 0.0
H193 H 0.82005 0.91892 0.93085 0.0
H194 H 0.75095 0.98861 0.86409 0.0
H195 H 0.79968 0.96619 0.84148 0.0
H196 H 0.94807 0.8949 0.73685 0.0
H197 H 1.00246 0.95108 0.80378 0.0
H198 H 0.97791 0.92197 0.84789 0.0
H199 H 0.92374 0.86534 0.78103 0.0
C200 C 0.61055 0.15956 0.31734 0.0
C201 C 0.6333 0.14265 0.3 0.0
C202 C 0.59437 0.13341 0.25765 0.0
C203 C 0.62532 0.12981 0.2704 0.0
C204 C 0.57139 0.14964 0.27549 0.0
C205 C 0.57948 0.16272 0.30505 0.0
U206 U 0.66361 0.16536 0.39134 0.0
O207 O 0.68338 0.20748 0.41542 0.0
O208 O 0.65124 0.17497 0.44123 0.0
C209 C 0.66647 0.2025 0.44135 0.0
C210 C 0.61911 0.1744 0.34788 0.0
C211 C 0.64876 0.2303 0.45372 0.0
C212 C 0.605 0.25223 0.48449 0.0
C213 C 0.62159 0.22598 0.47292 0.0
C214 C 0.64293 0.28778 0.45889 0.0
C215 C 0.61524 0.28348 0.47731 0.0
C216 C 0.65954 0.26152 0.44733 0.0
C217 C 0.73304 0.10656 0.40284 0.0
C218 C 0.79063 0.10008 0.40874 0.0
C219 C 0.75495 0.07611 0.44746 0.0
C220 C 0.72866 0.08807 0.43063 0.0
C221 C 0.78629 0.08229 0.43699 0.0
C222 C 0.7643 0.11197 0.39183 0.0
C223 C 0.70537 0.11945 0.38471 0.0
O224 O 0.61478 0.15652 0.37339 0.0
O225 O 0.64643 0.19007 0.34824 0.0
O226 O 0.70912 0.14802 0.37207 0.0
O227 O 0.67697 0.11512 0.39738 0.0
H228 H 0.65733 0.13964 0.30922 0.0
H229 H 0.6434 0.11698 0.25747 0.0
H230 H 0.54741 0.15287 0.26625 0.0
H231 H 0.56158 0.17562 0.31817 0.0
H232 H 0.58408 0.24803 0.49906 0.0
H233 H 0.61299 0.2023 0.47895 0.0
H234 H 0.65135 0.31147 0.45264 0.0
H235 H 0.6807 0.26574 0.43311 0.0
H236 H 0.8144 0.10557 0.40012 0.0
H237 H 0.75067 0.06203 0.4688 0.0
H238 H 0.70494 0.0829 0.43957 0.0
H239 H 0.76844 0.12572 0.37025 0.0
C240 C 0.32782 0.60369 0.15787 0.0
C241 C 0.33274 0.5789 0.1362 0.0
C242 C 0.27549 0.57459 0.12625 0.0
C243 C 0.30692 0.56465 0.12046 0.0
C244 C 0.27043 0.59852 0.14883 0.0
C245 C 0.29629 0.61289 0.16449 0.0
U246 U 0.39 0.67123 0.16656 0.0
O247 O 0.41002 0.69315 0.20982 0.0
O248 O 0.4415 0.66857 0.17669 0.0
C249 C 0.43871 0.68164 0.20488 0.0
C250 C 0.35556 0.61906 0.17388 0.0
C251 C 0.4537 0.66435 0.2321 0.0
C252 C 0.46029 0.65635 0.28938 0.0
C253 C 0.44741 0.67345 0.2636 0.0
C254 C 0.48731 0.62165 0.25275 0.0
C255 C 0.47991 0.62986 0.28426 0.0
C256 C 0.47443 0.63869 0.22701 0.0
C257 C 0.3892 0.74181 0.10795 0.0
C258 C 0.43295 0.77984 0.1032 0.0
C259 C 0.38349 0.78909 0.07447 0.0
C260 C 0.37086 0.76075 0.08722 0.0
C261 C 0.4148 0.79884 0.08211 0.0
C262 C 0.42025 0.75163 0.11604 0.0
C263 C 0.37591 0.71162 0.12041 0.0
O264 O 0.38228 0.62023 0.15755 0.0
O265 O 0.35004 0.64552 0.1894 0.0
O266 O 0.36309 0.71283 0.1489 0.0
O267 O 0.3939 0.68644 0.11649 0.0
H268 H 0.35664 0.57072 0.1311 0.0
H269 H 0.31158 0.546 0.10351 0.0
H270 H 0.24654 0.60692 0.15361 0.0
H271 H 0.29153 0.63153 0.18143 0.0
H272 H 0.45391 0.6632 0.31331 0.0
H273 H 0.43197 0.69342 0.26835 0.0
H274 H 0.50281 0.60173 0.24795 0.0
H275 H 0.48039 0.63136 0.20312 0.0
H276 H 0.45692 0.78695 0.11005 0.0
H277 H 0.36896 0.80309 0.05823 0.0
H278 H 0.34683 0.7535 0.0807 0.0
H279 H 0.43471 0.73742 0.13217 0.0
C280 C 0.1277 0.31232 0.64179 0.0
C281 C 0.15514 0.29616 0.6318 0.0
C282 C 0.12197 0.2568 0.60474 0.0
C283 C 0.15228 0.26849 0.61359 0.0
C284 C 0.09467 0.27354 0.61422 0.0
C285 C 0.09753 0.30096 0.63259 0.0
U286 U 0.16616 0.39183 0.66454 0.0
O287 O 0.14359 0.43702 0.67733 0.0
O288 O 0.17534 0.4129 0.7115 0.0
C289 C 0.1548 0.43606 0.70665 0.0
C290 C 0.12971 0.34088 0.66188 0.0
C291 C 0.13166 0.44231 0.73249 0.0
C292 C 0.11834 0.44183 0.78896 0.0
C293 C 0.13791 0.4322 0.76395 0.0
C294 C 0.08512 0.47085 0.7515 0.0
C295 C 0.09225 0.46201 0.78312 0.0
C296 C 0.10465 0.46122 0.72651 0.0
C297 C 0.23759 0.42204 0.6147 0.0
C298 C 0.27521 0.46462 0.62746 0.0
C299 C 0.27165 0.44457 0.57363 0.0
C300 C 0.24792 0.42309 0.58308 0.0
C301 C 0.28564 0.46563 0.59563 0.0
C302 C 0.25119 0.44305 0.63691 0.0
C303 C 0.21282 0.39856 0.62346 0.0
O304 O 0.15477 0.34314 0.68079 0.0
O305 O 0.12244 0.36785 0.64755 0.0
O306 O 0.18327 0.40706 0.61729 0.0
O307 O 0.21619 0.38395 0.65112 0.0
H308 H 0.17874 0.30468 0.63833 0.0
H309 H 0.17373 0.25618 0.60654 0.0
H310 H 0.07095 0.26488 0.60831 0.0
H311 H 0.07609 0.31309 0.64 0.0
H312 H 0.12479 0.43498 0.81308 0.0
H313 H 0.15867 0.41789 0.76951 0.0
H314 H 0.06506 0.4862 0.7462 0.0
H315 H 0.09921 0.46962 0.70263 0.0
H316 H 0.28549 0.48054 0.64492 0.0
H317 H 0.27957 0.44414 0.54911 0.0
H318 H 0.23779 0.407 0.56564 0.0
H319 H 0.24338 0.44268 0.66148 0.0
Zn320 Zn 0.99601 0.06282 0.56559 0.0
Zn321 Zn 0.06462 0.99263 0.48905 0.0
Zn322 Zn 0.02973 0.02756 0.52777 0.0
C323 C 0.08276 0.05577 0.47744 0.0
C324 C 1.00013 0.9809 0.47392 0.0
O325 O 0.03258 1.00638 0.57703 0.0
O326 O 1.00048 0.03704 0.60476 0.0
C327 C 0.04362 0.10218 0.54168 0.0
O328 O 0.06298 0.05984 0.50057 0.0
O329 O 0.08798 0.02806 0.46736 0.0
O330 O 0.02795 0.97205 0.46676 0.0
O331 O 0.99623 1.00255 0.49514 0.0
O332 O 0.02134 0.10234 0.56177 0.0
O333 O 0.04972 0.07684 0.52578 0.0
O334 O 0.97945 0.02753 0.50962 0.0
O335 O 0.9552 0.06072 0.54194 0.0
C336 C 0.95432 0.04307 0.5178 0.0
O337 O 0.05628 0.99247 0.55811 0.0
O338 O 0.08661 0.96792 0.52315 0.0
C339 C 0.01841 0.01308 0.60339 0.0
C340 C 0.07813 0.97198 0.55166 0.0
Zn341 Zn 0.50138 0.05815 0.98993 0.0
Zn342 Zn 0.57068 0.98794 0.0668 0.0
Zn343 Zn 0.53462 0.02308 0.02902 0.0
C344 C 0.61145 0.01096 0.02038 0.0
C345 C 0.52408 0.94735 0.04167 0.0
O346 O 0.50781 0.0581 0.0589 0.0
O347 O 0.47765 0.08189 0.02256 0.0
C348 C 0.56439 0.07027 0.97409 0.0
O349 O 0.58517 0.02426 0.01121 0.0
O350 O 0.61196 0.99368 0.04511 0.0
O351 O 0.54767 0.94723 0.06051 0.0
O352 O 0.5157 0.97331 0.02729 0.0
O353 O 0.53671 0.07954 0.96657 0.0
O354 O 0.56796 0.04861 0.99586 0.0
O355 O 0.50012 0.99091 1.00341 0.0
O356 O 0.47727 0.02381 0.96888 0.0
C357 C 0.48041 0.99604 0.9802 0.0
O358 O 0.53138 0.0429 0.07803 0.0
O359 O 0.56413 0.01219 0.10617 0.0
C360 C 0.48533 0.07781 0.05142 0.0
C361 C 0.54541 0.03555 0.10453 0.0
Zn362 Zn 0.56889 0.56222 0.56006 0.0
Zn363 Zn 0.49053 0.49382 0.48862 0.0
Zn364 Zn 0.52864 0.52782 0.52483 0.0
C365 C 0.53688 0.45199 0.51092 0.0
C366 C 0.51406 0.5418 0.44941 0.0
O367 O 0.4995 0.55412 0.56025 0.0
O368 O 0.53536 0.58392 0.58512 0.0
C369 C 0.58335 0.49798 0.57145 0.0
O370 O 0.54576 0.4775 0.52556 0.0
O371 O 0.51261 0.45252 0.49296 0.0
O372 O 0.49541 0.51808 0.44852 0.0
O373 O 0.52927 0.54841 0.47539 0.0
O374 O 0.5914 0.5256 0.58019 0.0
O375 O 0.56136 0.49433 0.5501 0.0
O376 O 0.55563 0.56061 0.4926 0.0
O377 O 0.58998 0.58529 0.52424 0.0
C378 C 0.57926 0.58012 0.49658 0.0
O379 O 0.47989 0.53156 0.54511 0.0
O380 O 0.45117 0.50088 0.51316 0.0
C381 C 0.50658 0.57556 0.58099 0.0
C382 C 0.453 0.51867 0.53715 0.0
Zn383 Zn 0.07325 0.57138 0.99351 0.0
Zn384 Zn 0.99232 0.50127 0.06205 0.0
Zn385 Zn 0.03364 0.53588 0.02697 0.0
C386 C 0.05431 0.48732 0.08448 0.0
C387 C 0.98461 0.48275 0.99822 0.0
O388 O 0.01729 0.58663 0.02753 0.0
O389 O 0.0535 0.6134 0.99968 0.0
C390 C 0.10981 0.54285 0.04125 0.0
O391 O 0.0619 0.50804 0.06281 0.0
O392 O 0.0253 0.48029 0.08926 0.0
O393 O 0.97365 0.47717 0.02573 0.0
O394 O 1.0074 0.50328 0.99433 0.0
O395 O 0.11261 0.56129 0.01748 0.0
O396 O 0.08229 0.53071 0.0483 0.0
O397 O 0.03245 0.51803 0.97727 0.0
O398 O 0.06609 0.55041 0.9522 0.0
C399 C 0.04709 0.52694 0.95169 0.0
O400 O 1.00063 0.569 0.05103 0.0
O401 O 0.9685 0.53804 0.07962 0.0
C402 C 0.02783 0.61302 0.01531 0.0
C403 C 0.97748 0.56558 0.07099 0.0
H404 H 0.11678 0.17492 0.39097 0.0
H405 H 0.19671 0.11484 0.36826 0.0
H406 H 0.17889 0.07563 0.4075 0.0
H407 H 0.13878 0.05644 0.44555 0.0
H408 H 0.05914 0.11605 0.46923 0.0
H409 H 0.07939 0.15787 0.43343 0.0
C410 C 0.13069 0.15356 0.39495 0.0
C411 C 0.1578 0.14775 0.37599 0.0
C412 C 0.12048 0.13104 0.41799 0.0
C413 C 0.17527 0.1197 0.38163 0.0
C414 C 0.16524 0.09729 0.40434 0.0
C415 C 0.1261 0.07879 0.44325 0.0
C416 C 0.09756 0.08317 0.46022 0.0
C417 C 0.13757 0.1024 0.42217 0.0
C418 C 0.08148 0.11229 0.45701 0.0
C419 C 0.09285 0.13605 0.43615 0.0
H420 H 0.42626 0.88898 0.89066 0.0
H421 H 0.34866 0.95608 0.88569 0.0
H422 H 0.37357 0.98786 0.92716 0.0
H423 H 0.41996 1.00023 0.95997 0.0
H424 H 0.49853 0.93477 0.96612 0.0
H425 H 0.47036 0.89819 0.92998 0.0
C426 C 0.4146 0.91025 0.89911 0.0
C427 C 0.38602 0.92058 0.88443 0.0
C428 C 0.42924 0.9287 0.92317 0.0
C429 C 0.37109 0.94808 0.89585 0.0
C430 C 0.38522 0.96621 0.91972 0.0
C431 C 0.43066 0.97763 0.95389 0.0
C432 C 0.46134 0.9703 0.96534 0.0
C433 C 0.4147 0.95731 0.93277 0.0
C434 C 0.47483 0.94085 0.95766 0.0
C435 C 0.45886 0.92014 0.93672 0.0
H436 H 0.6179 0.37985 0.6583 0.0
H437 H 0.70413 0.43558 0.67086 0.0
H438 H 0.68507 0.47451 0.63198 0.0
H439 H 0.64239 0.49495 0.5975 0.0
H440 H 0.55642 0.4395 0.58387 0.0
H441 H 0.57746 0.39767 0.61908 0.0
C442 C 0.63286 0.40015 0.65212 0.0
C443 C 0.66223 0.40494 0.66812 0.0
C444 C 0.62186 0.42248 0.62939 0.0
C445 C 0.68106 0.43161 0.65975 0.0
C446 C 0.67029 0.45384 0.63728 0.0
C447 C 0.62843 0.47349 0.60189 0.0
C448 C 0.59789 0.47035 0.58813 0.0
C449 C 0.64046 0.44987 0.62249 0.0
C450 C 0.58014 0.44236 0.5939 0.0
C451 C 0.59206 0.41858 0.61429 0.0
H452 H 0.9435 0.68366 0.15498 0.0
H453 H 0.85559 0.63007 0.16513 0.0
H454 H 0.87446 0.59118 0.12705 0.0
H455 H 0.9176 0.56987 0.09443 0.0
H456 H 1.00529 0.6233 0.08361 0.0
H457 H 0.98427 0.6654 0.11725 0.0
C458 C 0.92812 0.66389 0.1484 0.0
C459 C 0.89836 0.6596 0.16354 0.0
C460 C 0.93902 0.6416 0.12617 0.0
C461 C 0.87897 0.6336 0.15468 0.0
C462 C 0.88964 0.6114 0.13268 0.0
C463 C 0.93192 0.59098 0.09904 0.0
C464 C 0.96294 0.59346 0.08649 0.0
C465 C 0.91991 0.61475 0.11889 0.0
C466 C 0.98116 0.621 0.09254 0.0
C467 C 0.96928 0.64492 0.11213 0.0
H468 H 0.41542 0.14487 0.16661 0.0
H469 H 0.33712 0.13963 0.0995 0.0
H470 H 0.37166 0.1145 0.0608 0.0
H471 H 0.42334 0.09311 0.04607 0.0
H472 H 0.50312 0.09998 0.11067 0.0
H473 H 0.46877 0.12451 0.15069 0.0
C474 C 0.40597 0.13816 0.14353 0.0
C475 C 0.37368 0.14439 0.13595 0.0
C476 C 0.42612 0.1236 0.12115 0.0
C477 C 0.36191 0.1357 0.10583 0.0
C478 C 0.3816 0.12109 0.08372 0.0
C479 C 0.43335 0.10007 0.06887 0.0
C480 C 0.46564 0.09375 0.07584 0.0
C481 C 0.41365 0.11491 0.09112 0.0
C482 C 0.4781 0.10309 0.10541 0.0
C483 C 0.4585 0.11766 0.12801 0.0
H484 H 0.16245 0.91581 0.6643 0.0
H485 H 0.17375 0.84138 0.59511 0.0
H486 H 0.13622 0.86783 0.55949 0.0
H487 H 0.10313 0.91352 0.54604 0.0
H488 H 0.09117 0.98901 0.61362 0.0
H489 H 0.12545 0.9606 0.65195 0.0
C490 C 0.15654 0.90538 0.64148 0.0
C491 C 0.17095 0.87654 0.6325 0.0
C492 C 0.13477 0.92087 0.62081 0.0
C493 C 0.16278 0.86323 0.60292 0.0
C494 C 0.14143 0.87845 0.58237 0.0
C495 C 0.10775 0.92366 0.56929 0.0
C496 C 0.09471 0.95337 0.57693 0.0
C497 C 0.12767 0.90744 0.59085 0.0
C498 C 0.10069 0.96603 0.60725 0.0
C499 C 0.12054 0.94991 0.62904 0.0
H500 H 0.9021 0.44403 0.8788 0.0
H501 H 0.88463 0.36144 0.93861 0.0
H502 H 0.92242 0.38154 0.97793 0.0
H503 H 0.95711 0.4244 0.99743 0.0
H504 H 0.97578 0.50658 0.93785 0.0
H505 H 0.94191 0.48418 0.89583 0.0
C506 C 0.90699 0.43004 0.90009 0.0
C507 C 0.88985 0.40149 0.90587 0.0
C508 C 0.92915 0.4416 0.92263 0.0
C509 C 0.89659 0.38392 0.93382 0.0
C510 C 0.91844 0.39527 0.95628 0.0
C511 C 0.95414 0.43719 0.97504 0.0
C512 C 0.96895 0.46709 0.97075 0.0
C513 C 0.93427 0.4244 0.95128 0.0
C514 C 0.96503 0.48332 0.94158 0.0
C515 C 0.94534 0.47067 0.91769 0.0
H516 H 0.65598 0.61874 0.37275 0.0
H517 H 0.69051 0.6918 0.43619 0.0
H518 H 0.65357 0.67343 0.47714 0.0
H519 H 0.6145 0.63435 0.49661 0.0
H520 H 0.58292 0.5585 0.4353 0.0
H521 H 0.61529 0.58037 0.39186 0.0
C522 C 0.65548 0.63063 0.39554 0.0
C523 C 0.67617 0.65664 0.40124 0.0
C524 C 0.63459 0.61948 0.41941 0.0
C525 C 0.67468 0.67205 0.43081 0.0
C526 C 0.65369 0.66139 0.45442 0.0
C527 C 0.61444 0.62276 0.47363 0.0
C528 C 0.59587 0.5951 0.46908 0.0
C529 C 0.63395 0.63484 0.44918 0.0
C530 C 0.59622 0.58031 0.43921 0.0
C531 C 0.61511 0.59258 0.41448 0.0
H532 H 0.13166 0.39447 0.17398 0.0
H533 H 0.19383 0.39343 0.0923 0.0
H534 H 0.16199 0.43489 0.06652 0.0
H535 H 0.11318 0.4678 0.06481 0.0
H536 H 0.04976 0.46624 0.14546 0.0
H537 H 0.08518 0.42962 0.17376 0.0
C538 C 0.13826 0.40322 0.15051 0.0
C539 C 0.16506 0.3905 0.13514 0.0
C540 C 0.11947 0.42667 0.13548 0.0
C541 C 0.17354 0.40281 0.10496 0.0
C542 C 0.15518 0.42645 0.09003 0.0
C543 C 0.10756 0.45998 0.08885 0.0
C544 C 0.07889 0.46974 0.10301 0.0
C545 C 0.12771 0.43815 0.10478 0.0
C546 C 0.07165 0.45901 0.134 0.0
C547 C 0.09184 0.43797 0.15018 0.0
H548 H 0.68304 0.15663 0.93963 0.0
H549 H 0.62606 0.17218 0.85489 0.0
H550 H 0.58718 0.1329 0.87347 0.0
H551 H 0.56698 0.0975 0.91559 0.0
H552 H 0.62367 0.08099 1.00007 0.0
H553 H 0.66563 0.11618 0.97914 0.0
C554 C 0.66249 0.15101 0.92486 0.0
C555 C 0.6573 0.16801 0.89612 0.0
C556 C 0.6402 0.12803 0.93556 0.0
C557 C 0.63032 0.16031 0.87752 0.0
C558 C 0.60813 0.13761 0.888 0.0
C559 C 0.58875 0.10122 0.92922 0.0
C560 C 0.59219 0.08664 0.95934 0.0
C561 C 0.61243 0.12191 0.9173 0.0
C562 C 0.6206 0.09152 0.97663 0.0
C563 C 0.64444 0.11199 0.96482 0.0
H564 H 0.87658 0.90279 0.43547 0.0
H565 H 0.93911 0.87503 0.3592 0.0
H566 H 0.97976 0.91215 0.37794 0.0
H567 H 0.99946 0.94918 0.41819 0.0
H568 H 0.93916 0.97416 0.49698 0.0
H569 H 0.89578 0.94172 0.47495 0.0
C570 C 0.8991 0.90481 0.42294 0.0
C571 C 0.90464 0.88594 0.39593 0.0
C572 C 0.92285 0.92577 0.43431 0.0
C573 C 0.93383 0.88944 0.37974 0.0
C574 C 0.9573 0.91051 0.39061 0.0
C575 C 0.97673 0.94779 0.43042 0.0
C576 C 0.97249 0.96439 0.45903 0.0
C577 C 0.95229 0.92834 0.41816 0.0
C578 C 0.94288 0.96223 0.47457 0.0
C579 C 0.91816 0.94337 0.46216 0.0
H580 H 0.3944 0.65815 0.6369 0.0
H581 H 0.46538 0.67163 0.71061 0.0
H582 H 0.50076 0.63454 0.68446 0.0
H583 H 0.51347 0.60127 0.63911 0.0
H584 H 0.4441 0.58759 0.56422 0.0
H585 H 0.40606 0.62117 0.59252 0.0
C586 C 0.41755 0.65281 0.64725 0.0
C587 C 0.4271 0.6677 0.67579 0.0
C588 C 0.43809 0.63136 0.63191 0.0
C589 C 0.45712 0.66027 0.689 0.0
C590 C 0.47754 0.63918 0.67394 0.0
C591 C 0.48989 0.60536 0.62909 0.0
C592 C 0.48164 0.59193 0.5996 0.0
C593 C 0.46849 0.62498 0.64521 0.0
C594 C 0.45091 0.59724 0.58709 0.0
C595 C 0.42929 0.61676 0.60312 0.0
H596 H 0.99891 0.90642 0.70829 0.0
H597 H 0.98319 0.99001 0.76506 0.0
H598 H 0.99929 0.02406 0.72067 0.0
H599 H 0.01246 0.03058 0.6645 0.0
H600 H 0.02658 0.94813 0.60604 0.0
H601 H 0.01726 0.9132 0.65236 0.0
C602 C 0.99918 0.93208 0.71094 0.0
C603 C 0.98968 0.94557 0.74004 0.0
C604 C 1.00827 0.95175 0.68503 0.0
C605 C 0.99063 0.97888 0.74317 0.0
C606 C 0.99968 0.99845 0.7177 0.0
C607 C 0.01404 1.00495 0.66197 0.0
C608 C 0.02005 0.99196 0.63186 0.0
C609 C 1.00786 0.98519 0.68838 0.0
C610 C 0.02227 0.95874 0.62901 0.0
C611 C 0.01655 0.93877 0.65544 0.0
H612 H 0.54157 0.09921 0.23926 0.0
H613 H 0.62983 0.13949 0.20387 0.0
H614 H 0.62003 0.11571 0.15195 0.0
H615 H 0.58891 0.07987 0.11798 0.0
H616 H 0.50216 0.03694 0.15313 0.0
H617 H 0.50822 0.06586 0.20351 0.0
C618 C 0.55838 0.10312 0.22001 0.0
C619 C 0.58661 0.12077 0.22554 0.0
C620 C 0.55275 0.089 0.19018 0.0
C621 C 0.60825 0.12551 0.20042 0.0
C622 C 0.6026 0.11207 0.17067 0.0
C623 C 0.571 0.07752 0.13649 0.0
C624 C 0.54491 0.05692 0.13197 0.0
C625 C 0.5753 0.09329 0.16548 0.0
C626 C 0.52214 0.05319 0.15614 0.0
C627 C 0.52579 0.06951 0.18493 0.0
H628 H 0.50256 0.64819 0.34288 0.0
H629 H 0.48054 0.56511 0.28685 0.0
H630 H 0.49318 0.53069 0.33205 0.0
H631 H 0.50553 0.52407 0.38852 0.0
H632 H 0.52556 0.60627 0.44615 0.0
H633 H 0.51919 0.64108 0.3993 0.0
C634 C 0.50066 0.62255 0.34057 0.0
C635 C 0.4905 0.60934 0.31143 0.0
C636 C 0.50762 0.60272 0.36695 0.0
C637 C 0.48863 0.57601 0.30875 0.0
C638 C 0.49565 0.55624 0.3347 0.0
C639 C 0.50891 0.54959 0.39077 0.0
C640 C 0.51592 0.56258 0.42075 0.0
C641 C 0.50451 0.56934 0.36402 0.0
C642 C 0.52043 0.59565 0.42327 0.0
C643 C 0.51648 0.61557 0.39654 0.0
H644 H 0.07115 0.43422 0.83874 0.0
H645 H 0.07628 0.52429 0.78838 0.0
H646 H 0.05715 0.5517 0.83522 0.0
H647 H 0.0469 0.55129 0.89238 0.0
H648 H 0.04265 0.46231 0.94422 0.0
H649 H 0.05284 0.43318 0.89493 0.0
C650 C 0.06763 0.45977 0.83796 0.0
C651 C 0.07544 0.47717 0.81012 0.0
C652 C 0.05694 0.4756 0.8653 0.0
C653 C 0.07028 0.51022 0.80931 0.0
C654 C 0.05956 0.52602 0.83621 0.0
C655 C 0.04748 0.52545 0.89271 0.0
C656 C 0.04448 0.50892 0.92179 0.0
C657 C 0.05392 0.50911 0.86457 0.0
C658 C 0.04488 0.47549 0.92202 0.0
C659 C 0.05103 0.4589 0.89391 0.0
H660 H 0.74994 0.99269 0.96936 0.0
H661 H 0.69787 0.97126 0.88324 0.0
H662 H 0.64823 0.98875 0.90788 0.0
H663 H 0.61857 1.00394 0.95635 0.0
H664 H 0.6709 0.02162 0.04309 0.0
H665 H 0.72132 0.01244 0.01579 0.0
C666 C 0.72774 0.99189 0.95594 0.0
C667 C 0.72762 0.98022 0.92466 0.0
C668 C 0.69923 1.00148 0.97042 0.0
C669 C 0.69873 0.98013 0.90736 0.0
C670 C 0.67026 0.99002 0.92149 0.0
C671 C 0.64112 1.00666 0.9689 0.0
C672 C 0.64114 0.01344 1.00163 0.0
C673 C 0.67006 1.00002 0.9533 0.0
C674 C 0.67041 0.01644 0.01786 0.0
C675 C 0.69921 0.01094 1.00233 0.0
H676 H 0.84332 0.05801 0.41644 0.0
H677 H 0.79236 0.08344 0.50161 0.0
H678 H 0.83865 0.06974 0.53404 0.0
H679 H 0.89467 0.05476 0.5382 0.0
H680 H 0.94761 0.03226 0.45361 0.0
H681 H 0.89946 0.04008 0.42107 0.0
C682 C 0.84236 0.06054 0.4421 0.0
C683 C 0.81427 0.07182 0.45647 0.0
C684 C 0.86942 0.05305 0.46074 0.0
C685 C 0.81337 0.07446 0.48983 0.0
C686 C 0.83995 0.06682 0.50845 0.0
C687 C 0.89563 0.0512 0.51265 0.0
C688 C 0.92466 0.04279 0.49837 0.0
C689 C 0.86821 0.05663 0.49414 0.0
C690 C 0.92547 0.03823 0.46527 0.0
C691 C 0.89801 0.04306 0.44663 0.0
H692 H 0.2159 0.55609 0.14645 0.0
H693 H 0.27427 0.56526 0.0623 0.0
H694 H 0.22876 0.55094 0.02895 0.0
H695 H 0.1713 0.54251 0.02302 0.0
H696 H 0.11165 0.53498 0.10619 0.0
H697 H 0.15873 0.54111 0.14061 0.0
C698 C 0.21865 0.55466 0.12083 0.0
C699 C 0.24842 0.56203 0.10689 0.0
C700 C 0.19216 0.54667 0.10162 0.0
C701 C 0.25176 0.55956 0.07371 0.0
C702 C 0.22567 0.55154 0.05456 0.0
C703 C 0.16869 0.54157 0.04872 0.0
C704 C 0.13808 0.53853 0.06206 0.0
C705 C 0.19563 0.54594 0.06817 0.0
C706 C 0.13501 0.53705 0.09535 0.0
C707 C 0.16189 0.54096 0.11501 0.0
H708 H 0.34205 0.47899 0.6263 0.0
H709 H 0.28834 0.50092 0.54092 0.0
H710 H 0.33547 0.52559 0.51712 0.0
H711 H 0.39367 0.53141 0.51677 0.0
H712 H 0.44815 0.51012 0.60146 0.0
H713 H 0.39887 0.49581 0.62986 0.0
C714 C 0.34041 0.49004 0.6029 0.0
C715 C 0.31196 0.48719 0.585 0.0
C716 C 0.3678 0.50414 0.58919 0.0
C717 C 0.31022 0.50186 0.55478 0.0
C718 C 0.33713 0.51609 0.54118 0.0
C719 C 0.39454 0.52471 0.5418 0.0
C720 C 0.42426 0.52135 0.55699 0.0
C721 C 0.36634 0.51593 0.55755 0.0
C722 C 0.42538 0.51288 0.58939 0.0
C723 C 0.39726 0.50432 0.60545 0.0
H724 H 0.97493 0.7503 0.99168 0.0
H725 H 0.88755 0.69721 0.97725 0.0
H726 H 0.91366 0.6485 0.99585 0.0
H727 H 0.96325 0.61978 0.01017 0.0
H728 H 0.05104 0.67296 0.02112 0.0
H729 H 0.02291 0.72267 0.0104 0.0
C730 C 0.96156 0.72809 0.99262 0.0
C731 C 0.92943 0.72743 0.98264 0.0
C732 C 0.97687 0.70007 1.00281 0.0
C733 C 0.91229 0.69851 0.98481 0.0
C734 C 0.92726 0.67056 0.99532 0.0
C735 C 0.97595 0.64237 0.01104 0.0
C736 C 1.00916 0.64276 0.01635 0.0
C737 C 0.95978 0.67088 1.00367 0.0
C738 C 0.02547 0.67211 0.01701 0.0
C739 C 0.00944 0.70052 0.01068 0.0
H740 H 0.47431 0.80795 0.05816 0.0
H741 H 0.38608 0.8571 0.07545 0.0
H742 H 0.41072 0.90747 0.05843 0.0
H743 H 0.45965 0.93858 0.04542 0.0
H744 H 0.54832 0.88902 0.03215 0.0
H745 H 0.52127 0.8379 0.04019 0.0
C746 C 0.46043 0.82967 0.05812 0.0
C747 C 0.42858 0.82882 0.06858 0.0
C748 C 0.4749 0.85856 0.0489 0.0
C749 C 0.41067 0.85706 0.06757 0.0
C750 C 0.4248 0.88592 0.05795 0.0
C751 C 0.4727 0.91648 0.04338 0.0
C752 C 0.50586 0.9174 0.03824 0.0
C753 C 0.45718 0.88713 0.0494 0.0
C754 C 0.52275 0.88874 0.03608 0.0
C755 C 0.50735 0.85955 0.04092 0.0
H756 H 0.08228 0.24347 0.55504 0.0
H757 H 0.15316 0.20098 0.61674 0.0
H758 H 0.13973 0.14829 0.59625 0.0
H759 H 0.10092 0.11374 0.56845 0.0
H760 H 0.02723 0.15617 0.51053 0.0
H761 H 0.04889 0.20932 0.52116 0.0
C762 C 0.0951 0.2227 0.56363 0.0
C763 C 0.11827 0.22607 0.58778 0.0
C764 C 0.08665 0.1924 0.55236 0.0
C765 C 0.13519 0.19907 0.59819 0.0
C766 C 0.12737 0.16887 0.58663 0.0
C767 C 0.09059 0.13463 0.55713 0.0
C768 C 0.0629 0.13131 0.53844 0.0
C769 C 0.10225 0.16513 0.56471 0.0
C770 C 0.04893 0.15837 0.52456 0.0
C771 C 0.06105 0.18871 0.53099 0.0
H772 H 0.63674 0.34079 0.50024 0.0
H773 H 0.55041 0.28908 0.47666 0.0
H774 H 0.51856 0.33563 0.48885 0.0
H775 H 0.5153 0.39213 0.50153 0.0
H776 H 0.60117 0.44542 0.52243 0.0
H777 H 0.63301 0.39715 0.51651 0.0
C778 C 0.61096 0.33971 0.49783 0.0
C779 C 0.59607 0.31139 0.48738 0.0
C780 C 0.59266 0.36686 0.50448 0.0
C781 C 0.56256 0.31031 0.48494 0.0
C782 C 0.54428 0.33704 0.49171 0.0
C783 C 0.54097 0.39312 0.50519 0.0
C784 C 0.55581 0.42232 0.51254 0.0
C785 C 0.5591 0.36556 0.50088 0.0
C786 C 0.58906 0.42318 0.51729 0.0
C787 C 0.60732 0.39563 0.51352 0.0
loop_
_geom_bond_atom_site_label_1
_geom_bond_atom_site_label_2
_geom_bond_distance
_geom_bond_site_symmetry_2
_ccdc_geom_bond_type
C0 C1 1.264 . S
C0 C5 1.479 . S
C0 C10 1.465 . S
C1 C0 1.264 . S
C1 C3 1.339 . S
C1 H28 0.931 . S
C2 C3 1.395 . S
C2 C4 1.320 . S
C3 C1 1.339 . S
C3 C2 1.395 . S
C3 H29 0.929 . S
C4 C2 1.320 . S
C4 C5 1.405 . S
C4 H30 0.930 . S
C5 C0 1.479 . S
C5 C4 1.405 . S
C5 H31 0.931 . S
U6 O7 2.454 . S
U6 O8 2.458 . S
U6 C9 2.984 . S
U6 C10 2.847 . S
U6 C23 2.882 . S
U6 O24 2.441 . S
U6 O25 2.420 . S
U6 O26 2.455 . S
U6 O27 2.449 . S
O7 U6 2.454 . S
O7 C9 1.353 . S
O8 U6 2.458 . S
O8 C9 1.286 . S
C9 U6 2.984 . S
C9 O7 1.353 . S
C9 O8 1.286 . S
C9 C11 1.363 . S
C10 C0 1.465 . S
C10 U6 2.847 . S
C10 O24 1.249 . S
C10 O25 1.202 . S
C11 C9 1.363 . S
C11 C13 1.408 . S
C11 C16 1.342 . S
C12 C13 1.310 . S
C12 C15 1.461 . S
C12 H32 0.932 . S
C13 C11 1.408 . S
C13 C12 1.310 . S
C13 H33 0.930 . S
C14 C15 1.474 . S
C14 C16 1.285 . S
C14 H34 0.929 . S
C15 C12 1.461 . S
C15 C14 1.474 . S
C16 C11 1.342 . S
C16 C14 1.285 . S
C16 H35 0.930 . S
C17 C20 1.424 . S
C17 C22 1.245 . S
C17 C23 1.428 . S
C18 C21 1.260 . S
C18 C22 1.477 . S
C18 H36 0.932 . S
C19 C20 1.384 . S
C19 C21 1.479 . S
C19 H37 0.929 . S
C20 C17 1.424 . S
C20 C19 1.384 . S
C20 H38 0.928 . S
C21 C18 1.260 . S
C21 C19 1.479 . S
C22 C17 1.245 . S
C22 C18 1.477 . S
C22 H39 0.932 . S
C23 U6 2.882 . S
C23 C17 1.428 . S
C23 O26 1.301 . S
C23 O27 1.282 . S
O24 U6 2.441 . S
O24 C10 1.249 . S
O25 U6 2.420 . S
O25 C10 1.202 . S
O26 U6 2.455 . S
O26 C23 1.301 . S
O27 U6 2.449 . S
O27 C23 1.282 . S
H28 C1 0.931 . S
H29 C3 0.929 . S
H30 C4 0.930 . S
H31 C5 0.931 . S
H32 C12 0.932 . S
H33 C13 0.930 . S
H34 C14 0.929 . S
H35 C16 0.930 . S
H36 C18 0.932 . S
H37 C19 0.929 . S
H38 C20 0.928 . S
H39 C22 0.932 . S
C40 C41 1.264 . S
C40 C45 1.479 . S
C40 C50 1.465 . S
C41 C40 1.264 . S
C41 C43 1.339 . S
C41 H68 0.931 . S
C42 C43 1.395 . S
C42 C44 1.320 . S
C43 C41 1.339 . S
C43 C42 1.395 . S
C43 H69 0.929 . S
C44 C42 1.320 . S
C44 C45 1.405 . S
C44 H70 0.930 . S
C45 C40 1.479 . S
C45 C44 1.405 . S
C45 H71 0.931 . S
U46 O47 2.454 . S
U46 O48 2.458 . S
U46 C49 2.984 . S
U46 C50 2.847 . S
U46 C63 2.882 . S
U46 O64 2.441 . S
U46 O65 2.420 . S
U46 O66 2.455 . S
U46 O67 2.449 . S
O47 U46 2.454 . S
O47 C49 1.353 . S
O48 U46 2.458 . S
O48 C49 1.286 . S
C49 U46 2.984 . S
C49 O47 1.353 . S
C49 O48 1.286 . S
C49 C51 1.363 . S
C50 C40 1.465 . S
C50 U46 2.847 . S
C50 O64 1.249 . S
C50 O65 1.202 . S
C51 C49 1.363 . S
C51 C53 1.408 . S
C51 C56 1.342 . S
C52 C53 1.310 . S
C52 C55 1.461 . S
C52 H72 0.932 . S
C53 C51 1.408 . S
C53 C52 1.310 . S
C53 H73 0.930 . S
C54 C55 1.474 . S
C54 C56 1.285 . S
C54 H74 0.929 . S
C55 C52 1.461 . S
C55 C54 1.474 . S
C56 C51 1.342 . S
C56 C54 1.285 . S
C56 H75 0.930 . S
C57 C60 1.424 . S
C57 C62 1.245 . S
C57 C63 1.428 . S
C58 C61 1.260 . S
C58 C62 1.477 . S
C58 H76 0.932 . S
C59 C60 1.384 . S
C59 C61 1.479 . S
C59 H77 0.929 . S
C60 C57 1.424 . S
C60 C59 1.384 . S
C60 H78 0.928 . S
C61 C58 1.260 . S
C61 C59 1.479 . S
C62 C57 1.245 . S
C62 C58 1.477 . S
C62 H79 0.932 . S
C63 U46 2.882 . S
C63 C57 1.428 . S
C63 O66 1.301 . S
C63 O67 1.282 . S
O64 U46 2.441 . S
O64 C50 1.249 . S
O65 U46 2.420 . S
O65 C50 1.202 . S
O66 U46 2.455 . S
O66 C63 1.301 . S
O67 U46 2.449 . S
O67 C63 1.282 . S
H68 C41 0.931 . S
H69 C43 0.929 . S
H70 C44 0.930 . S
H71 C45 0.931 . S
H72 C52 0.932 . S
H73 C53 0.930 . S
H74 C54 0.929 . S
H75 C56 0.930 . S
H76 C58 0.932 . S
H77 C59 0.929 . S
H78 C60 0.928 . S
H79 C62 0.932 . S
C80 C81 1.264 . S
C80 C85 1.479 . S
C80 C90 1.465 . S
C81 C80 1.264 . S
C81 C83 1.339 . S
C81 H108 0.931 . S
C82 C83 1.395 . S
C82 C84 1.320 . S
C83 C81 1.339 . S
C83 C82 1.395 . S
C83 H109 0.929 . S
C84 C82 1.320 . S
C84 C85 1.405 . S
C84 H110 0.930 . S
C85 C80 1.479 . S
C85 C84 1.405 . S
C85 H111 0.931 . S
U86 O87 2.454 . S
U86 O88 2.458 . S
U86 C89 2.984 . S
U86 C90 2.847 . S
U86 C103 2.882 . S
U86 O104 2.441 . S
U86 O105 2.420 . S
U86 O106 2.455 . S
U86 O107 2.449 . S
O87 U86 2.454 . S
O87 C89 1.353 . S
O88 U86 2.458 . S
O88 C89 1.286 . S
C89 U86 2.984 . S
C89 O87 1.353 . S
C89 O88 1.286 . S
C89 C91 1.363 . S
C90 C80 1.465 . S
C90 U86 2.847 . S
C90 O104 1.249 . S
C90 O105 1.202 . S
C91 C89 1.363 . S
C91 C93 1.408 . S
C91 C96 1.342 . S
C92 C93 1.310 . S
C92 C95 1.461 . S
C92 H112 0.932 . S
C93 C91 1.408 . S
C93 C92 1.310 . S
C93 H113 0.930 . S
C94 C95 1.474 . S
C94 C96 1.285 . S
C94 H114 0.929 . S
C95 C92 1.461 . S
C95 C94 1.474 . S
C96 C91 1.342 . S
C96 C94 1.285 . S
C96 H115 0.930 . S
C97 C100 1.424 . S
C97 C102 1.245 . S
C97 C103 1.428 . S
C98 C101 1.260 . S
C98 C102 1.477 . S
C98 H116 0.932 . S
C99 C100 1.384 . S
C99 C101 1.479 . S
C99 H117 0.929 . S
C100 C97 1.424 . S
C100 C99 1.384 . S
C100 H118 0.928 . S
C101 C98 1.260 . S
C101 C99 1.479 . S
C102 C97 1.245 . S
C102 C98 1.477 . S
C102 H119 0.932 . S
C103 U86 2.882 . S
C103 C97 1.428 . S
C103 O106 1.301 . S
C103 O107 1.282 . S
O104 U86 2.441 . S
O104 C90 1.249 . S
O105 U86 2.420 . S
O105 C90 1.202 . S
O106 U86 2.455 . S
O106 C103 1.301 . S
O107 U86 2.449 . S
O107 C103 1.282 . S
H108 C81 0.931 . S
H109 C83 0.929 . S
H110 C84 0.930 . S
H111 C85 0.931 . S
H112 C92 0.932 . S
H113 C93 0.930 . S
H114 C94 0.929 . S
H115 C96 0.930 . S
H116 C98 0.932 . S
H117 C99 0.929 . S
H118 C100 0.928 . S
H119 C102 0.932 . S
C120 C121 1.264 . S
C120 C125 1.479 . S
C120 C130 1.465 . S
C121 C120 1.264 . S
C121 C123 1.339 . S
C121 H148 0.931 . S
C122 C123 1.395 . S
C122 C124 1.320 . S
C123 C121 1.339 . S
C123 C122 1.395 . S
C123 H149 0.929 . S
C124 C122 1.320 . S
C124 C125 1.405 . S
C124 H150 0.930 . S
C125 C120 1.479 . S
C125 C124 1.405 . S
C125 H151 0.931 . S
U126 O127 2.454 . S
U126 O128 2.458 . S
U126 C129 2.984 . S
U126 C130 2.847 . S
U126 C143 2.882 . S
U126 O144 2.441 . S
U126 O145 2.420 . S
U126 O146 2.455 . S
U126 O147 2.449 . S
O127 U126 2.454 . S
O127 C129 1.353 . S
O128 U126 2.458 . S
O128 C129 1.286 . S
C129 U126 2.984 . S
C129 O127 1.353 . S
C129 O128 1.286 . S
C129 C131 1.363 . S
C130 C120 1.465 . S
C130 U126 2.847 . S
C130 O144 1.249 . S
C130 O145 1.202 . S
C131 C129 1.363 . S
C131 C133 1.408 . S
C131 C136 1.342 . S
C132 C133 1.310 . S
C132 C135 1.461 . S
C132 H152 0.932 . S
C133 C131 1.408 . S
C133 C132 1.310 . S
C133 H153 0.930 . S
C134 C135 1.474 . S
C134 C136 1.285 . S
C134 H154 0.929 . S
C135 C132 1.461 . S
C135 C134 1.474 . S
C136 C131 1.342 . S
C136 C134 1.285 . S
C136 H155 0.930 . S
C137 C140 1.424 . S
C137 C142 1.245 . S
C137 C143 1.428 . S
C138 C141 1.260 . S
C138 C142 1.477 . S
C138 H156 0.932 . S
C139 C140 1.384 . S
C139 C141 1.479 . S
C139 H157 0.929 . S
C140 C137 1.424 . S
C140 C139 1.384 . S
C140 H158 0.928 . S
C141 C138 1.260 . S
C141 C139 1.479 . S
C142 C137 1.245 . S
C142 C138 1.477 . S
C142 H159 0.932 . S
C143 U126 2.882 . S
C143 C137 1.428 . S
C143 O146 1.301 . S
C143 O147 1.282 . S
O144 U126 2.441 . S
O144 C130 1.249 . S
O145 U126 2.420 . S
O145 C130 1.202 . S
O146 U126 2.455 . S
O146 C143 1.301 . S
O147 U126 2.449 . S
O147 C143 1.282 . S
H148 C121 0.931 . S
H149 C123 0.929 . S
H150 C124 0.930 . S
H151 C125 0.931 . S
H152 C132 0.932 . S
H153 C133 0.930 . S
H154 C134 0.929 . S
H155 C136 0.930 . S
H156 C138 0.932 . S
H157 C139 0.929 . S
H158 C140 0.928 . S
H159 C142 0.932 . S
C160 C161 1.264 . S
C160 C165 1.479 . S
C160 C170 1.465 . S
C161 C160 1.264 . S
C161 C163 1.339 1_655 S
C161 H188 0.931 . S
C162 C163 1.395 . S
C162 C164 1.320 1_456 S
C163 C161 1.339 1_455 S
C163 C162 1.395 . S
C163 H189 0.929 . S
C164 C162 1.320 1_654 S
C164 C165 1.405 1_554 S
C164 H190 0.930 . S
C165 C160 1.479 . S
C165 C164 1.405 1_556 S
C165 H191 0.931 . S
U166 O167 2.454 . S
U166 O168 2.458 . S
U166 C169 2.984 . S
U166 C170 2.847 . S
U166 C183 2.882 . S
U166 O184 2.441 . S
U166 O185 2.420 . S
U166 O186 2.455 . S
U166 O187 2.449 . S
O167 U166 2.454 . S
O167 C169 1.353 . S
O168 U166 2.458 . S
O168 C169 1.286 . S
C169 U166 2.984 . S
C169 O167 1.353 . S
C169 O168 1.286 . S
C169 C171 1.363 . S
C170 C160 1.465 . S
C170 U166 2.847 . S
C170 O184 1.249 . S
C170 O185 1.202 . S
C171 C169 1.363 . S
C171 C173 1.408 . S
C171 C176 1.342 . S
C172 C173 1.310 1_554 S
C172 C175 1.457 1_554 S
C172 H192 0.932 . S
C173 C171 1.408 . S
C173 C172 1.310 1_556 S
C173 H193 0.930 1_556 S
C174 C175 1.483 1_545 S
C174 C176 1.285 1_545 S
C174 H194 0.929 . S
C175 C172 1.457 1_556 S
C175 C174 1.483 1_565 S
C176 C171 1.342 . S
C176 C174 1.285 1_565 S
C176 H195 0.930 1_565 S
C177 C180 1.424 . S
C177 C182 1.245 . S
C177 C183 1.428 . S
C178 C181 1.251 1_545 S
C178 C182 1.477 1_545 S
C178 H196 0.932 . S
C179 C180 1.384 1_455 S
C179 C181 1.512 1_455 S
C179 H197 0.929 . S
C180 C177 1.424 . S
C180 C179 1.384 1_655 S
C180 H198 0.928 . S
C181 C178 1.251 1_565 S
C181 C179 1.512 1_655 S
C182 C177 1.245 . S
C182 C178 1.477 1_565 S
C182 H199 0.931 1_565 S
C183 U166 2.882 . S
C183 C177 1.428 . S
C183 O186 1.301 . S
C183 O187 1.282 . S
O184 U166 2.441 . S
O184 C170 1.249 . S
O185 U166 2.420 . S
O185 C170 1.202 . S
O186 U166 2.455 . S
O186 C183 1.301 . S
O187 U166 2.449 . S
O187 C183 1.282 . S
H188 C161 0.931 . S
H189 C163 0.929 . S
H190 C164 0.930 . S
H191 C165 0.931 . S
H192 C172 0.932 . S
H193 C173 0.930 1_554 S
H194 C174 0.929 . S
H195 C176 0.930 1_545 S
H196 C178 0.932 . S
H197 C179 0.929 . S
H198 C180 0.928 . S
H199 C182 0.931 1_545 S
C200 C201 1.264 . S
C200 C205 1.479 . S
C200 C210 1.465 . S
C201 C200 1.264 . S
C201 C203 1.339 . S
C201 H228 0.931 . S
C202 C203 1.395 . S
C202 C204 1.320 . S
C203 C201 1.339 . S
C203 C202 1.395 . S
C203 H229 0.929 . S
C204 C202 1.320 . S
C204 C205 1.405 . S
C204 H230 0.930 . S
C205 C200 1.479 . S
C205 C204 1.405 . S
C205 H231 0.931 . S
U206 O207 2.454 . S
U206 O208 2.458 . S
U206 C209 2.984 . S
U206 C210 2.847 . S
U206 C223 2.882 . S
U206 O224 2.441 . S
U206 O225 2.420 . S
U206 O226 2.455 . S
U206 O227 2.449 . S
O207 U206 2.454 . S
O207 C209 1.353 . S
O208 U206 2.458 . S
O208 C209 1.286 . S
C209 U206 2.984 . S
C209 O207 1.353 . S
C209 O208 1.286 . S
C209 C211 1.363 . S
C210 C200 1.465 . S
C210 U206 2.847 . S
C210 O224 1.249 . S
C210 O225 1.202 . S
C211 C209 1.363 . S
C211 C213 1.408 . S
C211 C216 1.342 . S
C212 C213 1.310 . S
C212 C215 1.461 . S
C212 H232 0.932 . S
C213 C211 1.408 . S
C213 C212 1.310 . S
C213 H233 0.930 . S
C214 C215 1.474 . S
C214 C216 1.285 . S
C214 H234 0.929 . S
C215 C212 1.461 . S
C215 C214 1.474 . S
C216 C211 1.342 . S
C216 C214 1.285 . S
C216 H235 0.930 . S
C217 C220 1.424 . S
C217 C222 1.245 . S
C217 C223 1.428 . S
C218 C221 1.260 . S
C218 C222 1.477 . S
C218 H236 0.932 . S
C219 C220 1.384 . S
C219 C221 1.479 . S
C219 H237 0.929 . S
C220 C217 1.424 . S
C220 C219 1.384 . S
C220 H238 0.928 . S
C221 C218 1.260 . S
C221 C219 1.479 . S
C222 C217 1.245 . S
C222 C218 1.477 . S
C222 H239 0.932 . S
C223 U206 2.882 . S
C223 C217 1.428 . S
C223 O226 1.301 . S
C223 O227 1.282 . S
O224 U206 2.441 . S
O224 C210 1.249 . S
O225 U206 2.420 . S
O225 C210 1.202 . S
O226 U206 2.455 . S
O226 C223 1.301 . S
O227 U206 2.449 . S
O227 C223 1.282 . S
H228 C201 0.931 . S
H229 C203 0.929 . S
H230 C204 0.930 . S
H231 C205 0.931 . S
H232 C212 0.932 . S
H233 C213 0.930 . S
H234 C214 0.929 . S
H235 C216 0.930 . S
H236 C218 0.932 . S
H237 C219 0.929 . S
H238 C220 0.928 . S
H239 C222 0.932 . S
C240 C241 1.264 . S
C240 C245 1.479 . S
C240 C250 1.465 . S
C241 C240 1.264 . S
C241 C243 1.339 . S
C241 H268 0.931 . S
C242 C243 1.395 . S
C242 C244 1.320 . S
C243 C241 1.339 . S
C243 C242 1.395 . S
C243 H269 0.929 . S
C244 C242 1.320 . S
C244 C245 1.405 . S
C244 H270 0.930 . S
C245 C240 1.479 . S
C245 C244 1.405 . S
C245 H271 0.931 . S
U246 O247 2.454 . S
U246 O248 2.458 . S
U246 C249 2.984 . S
U246 C250 2.847 . S
U246 C263 2.882 . S
U246 O264 2.441 . S
U246 O265 2.420 . S
U246 O266 2.455 . S
U246 O267 2.449 . S
O247 U246 2.454 . S
O247 C249 1.353 . S
O248 U246 2.458 . S
O248 C249 1.286 . S
C249 U246 2.984 . S
C249 O247 1.353 . S
C249 O248 1.286 . S
C249 C251 1.363 . S
C250 C240 1.465 . S
C250 U246 2.847 . S
C250 O264 1.249 . S
C250 O265 1.202 . S
C251 C249 1.363 . S
C251 C253 1.408 . S
C251 C256 1.342 . S
C252 C253 1.310 . S
C252 C255 1.461 . S
C252 H272 0.932 . S
C253 C251 1.408 . S
C253 C252 1.310 . S
C253 H273 0.930 . S
C254 C255 1.474 . S
C254 C256 1.285 . S
C254 H274 0.929 . S
C255 C252 1.461 . S
C255 C254 1.474 . S
C256 C251 1.342 . S
C256 C254 1.285 . S
C256 H275 0.930 . S
C257 C260 1.424 . S
C257 C262 1.245 . S
C257 C263 1.428 . S
C258 C261 1.260 . S
C258 C262 1.477 . S
C258 H276 0.932 . S
C259 C260 1.384 . S
C259 C261 1.479 . S
C259 H277 0.929 . S
C260 C257 1.424 . S
C260 C259 1.384 . S
C260 H278 0.928 . S
C261 C258 1.260 . S
C261 C259 1.479 . S
C262 C257 1.245 . S
C262 C258 1.477 . S
C262 H279 0.932 . S
C263 U246 2.882 . S
C263 C257 1.428 . S
C263 O266 1.301 . S
C263 O267 1.282 . S
O264 U246 2.441 . S
O264 C250 1.249 . S
O265 U246 2.420 . S
O265 C250 1.202 . S
O266 U246 2.455 . S
O266 C263 1.301 . S
O267 U246 2.449 . S
O267 C263 1.282 . S
H268 C241 0.931 . S
H269 C243 0.929 . S
H270 C244 0.930 . S
H271 C245 0.931 . S
H272 C252 0.932 . S
H273 C253 0.930 . S
H274 C254 0.929 . S
H275 C256 0.930 . S
H276 C258 0.932 . S
H277 C259 0.929 . S
H278 C260 0.928 . S
H279 C262 0.932 . S
C280 C281 1.264 . S
C280 C285 1.479 . S
C280 C290 1.465 . S
C281 C280 1.264 . S
C281 C283 1.339 . S
C281 H308 0.931 . S
C282 C283 1.395 . S
C282 C284 1.320 . S
C283 C281 1.339 . S
C283 C282 1.395 . S
C283 H309 0.929 . S
C284 C282 1.320 . S
C284 C285 1.405 . S
C284 H310 0.930 . S
C285 C280 1.479 . S
C285 C284 1.405 . S
C285 H311 0.931 . S
U286 O287 2.454 . S
U286 O288 2.458 . S
U286 C289 2.984 . S
U286 C290 2.847 . S
U286 C303 2.882 . S
U286 O304 2.441 . S
U286 O305 2.420 . S
U286 O306 2.455 . S
U286 O307 2.449 . S
O287 U286 2.454 . S
O287 C289 1.353 . S
O288 U286 2.458 . S
O288 C289 1.286 . S
C289 U286 2.984 . S
C289 O287 1.353 . S
C289 O288 1.286 . S
C289 C291 1.363 . S
C290 C280 1.465 . S
C290 U286 2.847 . S
C290 O304 1.249 . S
C290 O305 1.202 . S
C291 C289 1.363 . S
C291 C293 1.408 . S
C291 C296 1.342 . S
C292 C293 1.310 . S
C292 C295 1.461 . S
C292 H312 0.932 . S
C293 C291 1.408 . S
C293 C292 1.310 . S
C293 H313 0.930 . S
C294 C295 1.474 . S
C294 C296 1.285 . S
C294 H314 0.929 . S
C295 C292 1.461 . S
C295 C294 1.474 . S
C296 C291 1.342 . S
C296 C294 1.285 . S
C296 H315 0.930 . S
C297 C300 1.424 . S
C297 C302 1.245 . S
C297 C303 1.428 . S
C298 C301 1.260 . S
C298 C302 1.477 . S
C298 H316 0.932 . S
C299 C300 1.384 . S
C299 C301 1.479 . S
C299 H317 0.929 . S
C300 C297 1.424 . S
C300 C299 1.384 . S
C300 H318 0.928 . S
C301 C298 1.260 . S
C301 C299 1.479 . S
C302 C297 1.245 . S
C302 C298 1.477 . S
C302 H319 0.932 . S
C303 U286 2.882 . S
C303 C297 1.428 . S
C303 O306 1.301 . S
C303 O307 1.282 . S
O304 U286 2.441 . S
O304 C290 1.249 . S
O305 U286 2.420 . S
O305 C290 1.202 . S
O306 U286 2.455 . S
O306 C303 1.301 . S
O307 U286 2.449 . S
O307 C303 1.282 . S
H308 C281 0.931 . S
H309 C283 0.929 . S
H310 C284 0.930 . S
H311 C285 0.931 . S
H312 C292 0.932 . S
H313 C293 0.930 . S
H314 C294 0.929 . S
H315 C296 0.930 . S
H316 C298 0.932 . S
H317 C299 0.929 . S
H318 C300 0.928 . S
H319 C302 0.932 . S
Zn320 O326 1.920 . S
Zn320 O332 1.898 . S
Zn320 O335 1.905 . S
Zn321 O329 1.905 1_565 S
Zn321 O330 1.898 . S
Zn321 O338 1.920 . S
Zn322 O325 2.080 1_455 S
Zn322 O328 2.114 . S
Zn322 O331 2.120 1_445 S
Zn322 O333 2.120 . S
Zn322 O334 2.114 1_455 S
Zn322 O337 2.080 . S
C323 O328 1.166 . S
C323 O329 1.182 . S
C324 O330 1.167 1_655 S
C324 O331 1.299 . S
O325 Zn322 2.080 1_655 S
O325 C339 1.305 . S
O326 Zn320 1.920 . S
O326 C339 1.234 . S
C327 O332 1.167 1_455 S
C327 O333 1.299 . S
O328 Zn322 2.114 . S
O328 C323 1.166 . S
O329 Zn321 1.905 1_545 S
O329 C323 1.182 . S
O330 Zn321 1.898 . S
O330 C324 1.167 1_455 S
O331 Zn322 2.120 1_665 S
O331 C324 1.299 . S
O332 Zn320 1.898 . S
O332 C327 1.167 1_655 S
O333 Zn322 2.120 . S
O333 C327 1.299 . S
O334 Zn322 2.114 1_655 S
O334 C336 1.166 . S
O335 Zn320 1.905 . S
O335 C336 1.182 . S
C336 O334 1.166 . S
C336 O335 1.182 . S
O337 Zn322 2.080 . S
O337 C340 1.305 1_545 S
O338 Zn321 1.920 . S
O338 C340 1.234 . S
C339 O325 1.305 . S
C339 O326 1.234 . S
C340 O337 1.305 1_565 S
C340 O338 1.234 . S
Zn341 O347 1.920 1_556 S
Zn341 O353 1.898 . S
Zn341 O356 1.905 . S
Zn342 O350 1.905 . S
Zn342 O351 1.898 . S
Zn342 O359 1.920 . S
Zn343 O346 2.080 . S
Zn343 O349 2.114 1_545 S
Zn343 O352 2.120 1_545 S
Zn343 O354 2.120 . S
Zn343 O355 2.114 1_544 S
Zn343 O358 2.080 . S
C344 O349 1.166 . S
C344 O350 1.182 . S
C345 O351 1.167 . S
C345 O352 1.299 . S
O346 Zn343 2.080 . S
O346 C360 1.305 . S
O347 Zn341 1.920 1_554 S
O347 C360 1.234 . S
C348 O353 1.167 . S
C348 O354 1.299 1_556 S
O349 Zn343 2.114 1_565 S
O349 C344 1.166 . S
O350 Zn342 1.905 . S
O350 C344 1.182 . S
O351 Zn342 1.898 . S
O351 C345 1.167 . S
O352 Zn343 2.120 1_565 S
O352 C345 1.299 . S
O353 Zn341 1.898 . S
O353 C348 1.167 . S
O354 Zn343 2.120 . S
O354 C348 1.299 1_554 S
O355 Zn343 2.114 1_566 S
O355 C357 1.166 . S
O356 Zn341 1.905 . S
O356 C357 1.182 1_545 S
C357 O355 1.166 . S
C357 O356 1.182 1_565 S
O358 Zn343 2.080 . S
O358 C361 1.305 . S
O359 Zn342 1.920 . S
O359 C361 1.234 1_565 S
C360 O346 1.305 . S
C360 O347 1.234 . S
C361 O358 1.305 . S
C361 O359 1.234 1_545 S
Zn362 O368 1.920 . S
Zn362 O374 1.898 . S
Zn362 O377 1.905 . S
Zn363 O371 1.905 . S
Zn363 O372 1.898 . S
Zn363 O380 1.920 . S
Zn364 O367 2.080 . S
Zn364 O370 2.114 . S
Zn364 O373 2.120 . S
Zn364 O375 2.120 . S
Zn364 O376 2.114 . S
Zn364 O379 2.080 . S
C365 O370 1.166 . S
C365 O371 1.182 . S
C366 O372 1.167 . S
C366 O373 1.299 . S
O367 Zn364 2.080 . S
O367 C381 1.305 . S
O368 Zn362 1.920 . S
O368 C381 1.234 . S
C369 O374 1.167 . S
C369 O375 1.299 . S
O370 Zn364 2.114 . S
O370 C365 1.166 . S
O371 Zn363 1.905 . S
O371 C365 1.182 . S
O372 Zn363 1.898 . S
O372 C366 1.167 . S
O373 Zn364 2.120 . S
O373 C366 1.299 . S
O374 Zn362 1.898 . S
O374 C369 1.167 . S
O375 Zn364 2.120 . S
O375 C369 1.299 . S
O376 Zn364 2.114 . S
O376 C378 1.166 . S
O377 Zn362 1.905 . S
O377 C378 1.182 . S
C378 O376 1.166 . S
C378 O377 1.182 . S
O379 Zn364 2.080 . S
O379 C382 1.305 . S
O380 Zn363 1.920 . S
O380 C382 1.234 . S
C381 O367 1.305 . S
C381 O368 1.234 . S
C382 O379 1.305 . S
C382 O380 1.234 . S
Zn383 O389 1.920 . S
Zn383 O395 1.898 . S
Zn383 O398 1.905 . S
Zn384 O392 1.905 1_655 S
Zn384 O393 1.898 . S
Zn384 O401 1.920 . S
Zn385 O388 2.080 1_554 S
Zn385 O391 2.114 . S
Zn385 O394 2.120 1_454 S
Zn385 O396 2.120 . S
Zn385 O397 2.114 1_554 S
Zn385 O400 2.080 . S
C386 O391 1.166 . S
C386 O392 1.182 . S
C387 O393 1.167 1_556 S
C387 O394 1.299 . S
O388 Zn385 2.080 1_556 S
O388 C402 1.305 . S
O389 Zn383 1.920 . S
O389 C402 1.234 . S
C390 O395 1.167 1_554 S
C390 O396 1.299 . S
O391 Zn385 2.114 . S
O391 C386 1.166 . S
O392 Zn384 1.905 1_455 S
O392 C386 1.182 . S
O393 Zn384 1.898 . S
O393 C387 1.167 1_554 S
O394 Zn385 2.120 1_656 S
O394 C387 1.299 . S
O395 Zn383 1.898 . S
O395 C390 1.167 1_556 S
O396 Zn385 2.120 . S
O396 C390 1.299 . S
O397 Zn385 2.114 1_556 S
O397 C399 1.166 . S
O398 Zn383 1.905 . S
O398 C399 1.182 . S
C399 O397 1.166 . S
C399 O398 1.182 . S
O400 Zn385 2.080 . S
O400 C403 1.305 1_455 S
O401 Zn384 1.920 . S
O401 C403 1.234 . S
C402 O388 1.305 . S
C402 O389 1.234 . S
C403 O400 1.305 1_655 S
C403 O401 1.234 . S
H404 C410 0.930 . S
H405 C413 0.930 . S
H406 C414 0.930 . S
H407 C415 0.930 . S
H408 C418 0.930 . S
H409 C419 0.930 . S
C410 H404 0.930 . S
C410 C411 1.355 . S
C410 C412 1.415 . S
C411 C410 1.355 . S
C411 C413 1.419 . S
C412 C410 1.415 . S
C412 C417 1.425 . S
C412 C419 1.409 . S
C413 H405 0.930 . S
C413 C411 1.419 . S
C413 C414 1.362 . S
C414 H406 0.930 . S
C414 C413 1.362 . S
C414 C417 1.409 . S
C415 H407 0.930 . S
C415 C416 1.355 . S
C415 C417 1.415 . S
C416 C415 1.355 . S
C416 C418 1.419 . S
C417 C412 1.425 . S
C417 C414 1.409 . S
C417 C415 1.415 . S
C418 H408 0.930 . S
C418 C416 1.419 . S
C418 C419 1.362 . S
C419 H409 0.930 . S
C419 C412 1.409 . S
C419 C418 1.362 . S
H420 C426 0.930 . S
H421 C429 0.930 . S
H422 C430 0.930 . S
H423 C431 0.930 . S
H424 C434 0.930 . S
H425 C435 0.930 . S
C426 H420 0.930 . S
C426 C427 1.355 . S
C426 C428 1.415 . S
C427 C426 1.355 . S
C427 C429 1.419 . S
C428 C426 1.415 . S
C428 C433 1.425 . S
C428 C435 1.409 . S
C429 H421 0.930 . S
C429 C427 1.419 . S
C429 C430 1.362 . S
C430 H422 0.930 . S
C430 C429 1.362 . S
C430 C433 1.409 . S
C431 H423 0.930 . S
C431 C432 1.355 . S
C431 C433 1.415 . S
C432 C431 1.355 . S
C432 C434 1.419 . S
C433 C428 1.425 . S
C433 C430 1.409 . S
C433 C431 1.415 . S
C434 H424 0.930 . S
C434 C432 1.419 . S
C434 C435 1.362 . S
C435 H425 0.930 . S
C435 C428 1.409 . S
C435 C434 1.362 . S
H436 C442 0.930 . S
H437 C445 0.930 . S
H438 C446 0.930 . S
H439 C447 0.930 . S
H440 C450 0.930 . S
H441 C451 0.930 . S
C442 H436 0.930 . S
C442 C443 1.355 . S
C442 C444 1.415 . S
C443 C442 1.355 . S
C443 C445 1.419 . S
C444 C442 1.415 . S
C444 C449 1.425 . S
C444 C451 1.409 . S
C445 H437 0.930 . S
C445 C443 1.419 . S
C445 C446 1.362 . S
C446 H438 0.930 . S
C446 C445 1.362 . S
C446 C449 1.409 . S
C447 H439 0.930 . S
C447 C448 1.355 . S
C447 C449 1.415 . S
C448 C447 1.355 . S
C448 C450 1.419 . S
C449 C444 1.425 . S
C449 C446 1.409 . S
C449 C447 1.415 . S
C450 H440 0.930 . S
C450 C448 1.419 . S
C450 C451 1.362 . S
C451 H441 0.930 . S
C451 C444 1.409 . S
C451 C450 1.362 . S
H452 C458 0.930 . S
H453 C461 0.930 . S
H454 C462 0.930 . S
H455 C463 0.930 . S
H456 C466 0.930 . S
H457 C467 0.908 1_455 S
C458 H452 0.930 . S
C458 C459 1.355 . S
C458 C460 1.415 . S
C459 C458 1.355 . S
C459 C461 1.419 . S
C460 C458 1.415 . S
C460 C465 1.425 . S
C460 C467 1.441 . S
C461 H453 0.930 . S
C461 C459 1.419 . S
C461 C462 1.362 . S
C462 H454 0.930 . S
C462 C461 1.362 . S
C462 C465 1.409 . S
C463 H455 0.930 . S
C463 C464 1.355 . S
C463 C465 1.415 . S
C464 C463 1.355 . S
C464 C466 1.419 1_655 S
C465 C460 1.425 . S
C465 C462 1.409 . S
C465 C463 1.415 . S
C466 H456 0.930 . S
C466 C464 1.419 1_455 S
C466 C467 1.353 1_455 S
C467 H457 0.908 1_655 S
C467 C460 1.441 . S
C467 C466 1.353 1_655 S
H468 C474 0.930 . S
H469 C477 0.930 . S
H470 C478 0.930 . S
H471 C479 0.930 . S
H472 C482 0.930 . S
H473 C483 0.930 . S
C474 H468 0.930 . S
C474 C475 1.355 . S
C474 C476 1.415 . S
C475 C474 1.355 . S
C475 C477 1.419 . S
C476 C474 1.415 . S
C476 C481 1.425 . S
C476 C483 1.409 . S
C477 H469 0.930 . S
C477 C475 1.419 . S
C477 C478 1.362 . S
C478 H470 0.930 . S
C478 C477 1.362 . S
C478 C481 1.409 . S
C479 H471 0.930 . S
C479 C480 1.355 . S
C479 C481 1.415 . S
C480 C479 1.355 . S
C480 C482 1.419 . S
C481 C476 1.425 . S
C481 C478 1.409 . S
C481 C479 1.415 . S
C482 H472 0.930 . S
C482 C480 1.419 . S
C482 C483 1.362 . S
C483 H473 0.930 . S
C483 C476 1.409 . S
C483 C482 1.362 . S
H484 C490 0.930 . S
H485 C493 0.930 . S
H486 C494 0.930 . S
H487 C495 0.930 . S
H488 C498 0.930 1_545 S
H489 C499 0.930 . S
C490 H484 0.930 . S
C490 C491 1.355 . S
C490 C492 1.415 . S
C491 C490 1.355 . S
C491 C493 1.419 . S
C492 C490 1.415 . S
C492 C497 1.425 . S
C492 C499 1.409 . S
C493 H485 0.930 . S
C493 C491 1.419 . S
C493 C494 1.362 . S
C494 H486 0.930 . S
C494 C493 1.362 . S
C494 C497 1.409 . S
C495 H487 0.930 . S
C495 C496 1.355 . S
C495 C497 1.415 . S
C496 C495 1.355 . S
C496 C498 1.419 . S
C497 C492 1.425 . S
C497 C494 1.409 . S
C497 C495 1.415 . S
C498 H488 0.930 1_565 S
C498 C496 1.419 . S
C498 C499 1.362 . S
C499 H489 0.930 . S
C499 C492 1.409 . S
C499 C498 1.362 . S
H500 C506 0.930 . S
H501 C509 0.930 . S
H502 C510 0.930 . S
H503 C511 0.930 . S
H504 C514 0.930 1_554 S
H505 C515 0.930 . S
C506 H500 0.930 . S
C506 C507 1.355 . S
C506 C508 1.415 . S
C507 C506 1.355 . S
C507 C509 1.419 . S
C508 C506 1.415 . S
C508 C513 1.425 . S
C508 C515 1.409 . S
C509 H501 0.930 . S
C509 C507 1.419 . S
C509 C510 1.362 . S
C510 H502 0.930 . S
C510 C509 1.362 . S
C510 C513 1.409 . S
C511 H503 0.930 . S
C511 C512 1.355 . S
C511 C513 1.415 . S
C512 C511 1.355 . S
C512 C514 1.419 . S
C513 C508 1.425 . S
C513 C510 1.409 . S
C513 C511 1.415 . S
C514 H504 0.930 1_556 S
C514 C512 1.419 . S
C514 C515 1.362 . S
C515 H505 0.930 . S
C515 C508 1.409 . S
C515 C514 1.362 . S
H516 C522 0.930 . S
H517 C525 0.930 . S
H518 C526 0.930 . S
H519 C527 0.930 . S
H520 C530 0.930 . S
H521 C531 0.930 . S
C522 H516 0.930 . S
C522 C523 1.355 . S
C522 C524 1.415 . S
C523 C522 1.355 . S
C523 C525 1.419 . S
C524 C522 1.415 . S
C524 C529 1.425 . S
C524 C531 1.409 . S
C525 H517 0.930 . S
C525 C523 1.419 . S
C525 C526 1.362 . S
C526 H518 0.930 . S
C526 C525 1.362 . S
C526 C529 1.409 . S
C527 H519 0.930 . S
C527 C528 1.355 . S
C527 C529 1.415 . S
C528 C527 1.355 . S
C528 C530 1.419 . S
C529 C524 1.425 . S
C529 C526 1.409 . S
C529 C527 1.415 . S
C530 H520 0.930 . S
C530 C528 1.419 . S
C530 C531 1.362 . S
C531 H521 0.930 . S
C531 C524 1.409 . S
C531 C530 1.362 . S
H532 C538 0.930 . S
H533 C541 0.930 . S
H534 C542 0.930 . S
H535 C543 0.930 . S
H536 C546 0.930 . S
H537 C547 0.930 . S
C538 H532 0.930 . S
C538 C539 1.355 . S
C538 C540 1.415 . S
C539 C538 1.355 . S
C539 C541 1.419 . S
C540 C538 1.415 . S
C540 C545 1.425 . S
C540 C547 1.409 . S
C541 H533 0.930 . S
C541 C539 1.419 . S
C541 C542 1.362 . S
C542 H534 0.930 . S
C542 C541 1.362 . S
C542 C545 1.409 . S
C543 H535 0.930 . S
C543 C544 1.355 . S
C543 C545 1.415 . S
C544 C543 1.355 . S
C544 C546 1.419 . S
C545 C540 1.425 . S
C545 C542 1.409 . S
C545 C543 1.415 . S
C546 H536 0.930 . S
C546 C544 1.419 . S
C546 C547 1.362 . S
C547 H537 0.930 . S
C547 C540 1.409 . S
C547 C546 1.362 . S
H548 C554 0.930 . S
H549 C557 0.930 . S
H550 C558 0.930 . S
H551 C559 0.930 . S
H552 C562 0.930 . S
H553 C563 0.930 1_554 S
C554 H548 0.930 . S
C554 C555 1.355 . S
C554 C556 1.415 . S
C555 C554 1.355 . S
C555 C557 1.419 . S
C556 C554 1.415 . S
C556 C561 1.425 . S
C556 C563 1.409 . S
C557 H549 0.930 . S
C557 C555 1.419 . S
C557 C558 1.362 . S
C558 H550 0.930 . S
C558 C557 1.362 . S
C558 C561 1.409 . S
C559 H551 0.930 . S
C559 C560 1.355 . S
C559 C561 1.415 . S
C560 C559 1.355 . S
C560 C562 1.419 1_556 S
C561 C556 1.425 . S
C561 C558 1.409 . S
C561 C559 1.415 . S
C562 H552 0.930 . S
C562 C560 1.419 1_554 S
C562 C563 1.362 1_554 S
C563 H553 0.930 1_556 S
C563 C556 1.409 . S
C563 C562 1.362 1_556 S
H564 C570 0.930 . S
H565 C573 0.930 . S
H566 C574 0.930 . S
H567 C575 0.930 . S
H568 C578 0.930 1_455 S
H569 C579 0.930 1_455 S
C570 H564 0.930 . S
C570 C571 1.355 . S
C570 C572 1.415 . S
C571 C570 1.355 . S
C571 C573 1.419 . S
C572 C570 1.415 . S
C572 C577 1.425 . S
C572 C579 1.409 . S
C573 H565 0.930 . S
C573 C571 1.419 . S
C573 C574 1.362 . S
C574 H566 0.930 . S
C574 C573 1.362 . S
C574 C577 1.409 . S
C575 H567 0.930 . S
C575 C576 1.355 . S
C575 C577 1.415 . S
C576 C575 1.355 . S
C576 C578 1.419 . S
C577 C572 1.425 . S
C577 C574 1.409 . S
C577 C575 1.415 . S
C578 H568 0.930 1_655 S
C578 C576 1.419 . S
C578 C579 1.362 . S
C579 H569 0.930 1_655 S
C579 C572 1.409 . S
C579 C578 1.362 . S
H580 C586 0.930 . S
H581 C589 0.930 . S
H582 C590 0.930 . S
H583 C591 0.930 . S
H584 C594 0.930 . S
H585 C595 0.930 . S
C586 H580 0.930 . S
C586 C587 1.355 . S
C586 C588 1.415 . S
C587 C586 1.355 . S
C587 C589 1.419 . S
C588 C586 1.415 . S
C588 C593 1.425 . S
C588 C595 1.409 . S
C589 H581 0.930 . S
C589 C587 1.419 . S
C589 C590 1.362 . S
C590 H582 0.930 . S
C590 C589 1.362 . S
C590 C593 1.409 . S
C591 H583 0.930 . S
C591 C592 1.355 . S
C591 C593 1.415 . S
C592 C591 1.355 . S
C592 C594 1.419 . S
C593 C588 1.425 . S
C593 C590 1.409 . S
C593 C591 1.415 . S
C594 H584 0.930 . S
C594 C592 1.419 . S
C594 C595 1.362 . S
C595 H585 0.930 . S
C595 C588 1.409 . S
C595 C594 1.362 . S
H596 C602 0.930 . S
H597 C605 0.932 . S
H598 C606 0.941 . S
H599 C607 0.930 . S
H600 C610 0.930 . S
H601 C611 0.930 . S
C602 H596 0.930 . S
C602 C603 1.355 1_655 S
C602 C604 1.415 . S
C603 C602 1.355 1_455 S
C603 C605 1.416 1_545 S
C604 C602 1.415 . S
C604 C609 1.425 1_655 S
C604 C611 1.409 . S
C605 H597 0.932 . S
C605 C603 1.416 1_565 S
C605 C606 1.362 . S
C606 H598 0.941 . S
C606 C605 1.362 . S
C606 C609 1.400 1_565 S
C607 H599 0.930 . S
C607 C608 1.355 1_455 S
C607 C609 1.415 . S
C608 C607 1.355 1_655 S
C608 C610 1.419 . S
C609 C604 1.425 1_455 S
C609 C606 1.400 1_545 S
C609 C607 1.415 . S
C610 H600 0.930 . S
C610 C608 1.419 . S
C610 C611 1.362 . S
C611 H601 0.930 . S
C611 C604 1.409 . S
C611 C610 1.362 . S
H612 C618 0.930 . S
H613 C621 0.930 . S
H614 C622 0.930 . S
H615 C623 0.930 . S
H616 C626 0.930 . S
H617 C627 0.930 . S
C618 H612 0.930 . S
C618 C619 1.355 . S
C618 C620 1.415 . S
C619 C618 1.355 . S
C619 C621 1.419 . S
C620 C618 1.415 . S
C620 C625 1.425 . S
C620 C627 1.409 . S
C621 H613 0.930 . S
C621 C619 1.419 . S
C621 C622 1.362 . S
C622 H614 0.930 . S
C622 C621 1.362 . S
C622 C625 1.409 . S
C623 H615 0.930 . S
C623 C624 1.355 . S
C623 C625 1.415 . S
C624 C623 1.355 . S
C624 C626 1.419 . S
C625 C620 1.425 . S
C625 C622 1.409 . S
C625 C623 1.415 . S
C626 H616 0.930 . S
C626 C624 1.419 . S
C626 C627 1.362 . S
C627 H617 0.930 . S
C627 C620 1.409 . S
C627 C626 1.362 . S
H628 C634 0.930 . S
H629 C637 0.930 . S
H630 C638 0.930 . S
H631 C639 0.930 . S
H632 C642 0.930 . S
H633 C643 0.930 . S
C634 H628 0.930 . S
C634 C635 1.355 . S
C634 C636 1.415 . S
C635 C634 1.355 . S
C635 C637 1.419 . S
C636 C634 1.415 . S
C636 C641 1.425 . S
C636 C643 1.409 . S
C637 H629 0.930 . S
C637 C635 1.419 . S
C637 C638 1.362 . S
C638 H630 0.930 . S
C638 C637 1.362 . S
C638 C641 1.409 . S
C639 H631 0.930 . S
C639 C640 1.355 . S
C639 C641 1.415 . S
C640 C639 1.355 . S
C640 C642 1.419 . S
C641 C636 1.425 . S
C641 C638 1.409 . S
C641 C639 1.415 . S
C642 H632 0.930 . S
C642 C640 1.419 . S
C642 C643 1.362 . S
C643 H633 0.930 . S
C643 C636 1.409 . S
C643 C642 1.362 . S
H644 C650 0.930 . S
H645 C653 0.930 . S
H646 C654 0.930 . S
H647 C655 0.930 . S
H648 C658 0.930 . S
H649 C659 0.930 1_655 S
C650 H644 0.930 . S
C650 C651 1.355 . S
C650 C652 1.415 . S
C651 C650 1.355 . S
C651 C653 1.419 . S
C652 C650 1.415 . S
C652 C657 1.425 . S
C652 C659 1.409 . S
C653 H645 0.930 . S
C653 C651 1.419 . S
C653 C654 1.362 . S
C654 H646 0.930 . S
C654 C653 1.362 . S
C654 C657 1.409 . S
C655 H647 0.930 . S
C655 C656 1.355 . S
C655 C657 1.415 . S
C656 C655 1.355 . S
C656 C658 1.419 . S
C657 C652 1.425 . S
C657 C654 1.409 . S
C657 C655 1.415 . S
C658 H648 0.930 . S
C658 C656 1.419 . S
C658 C659 1.362 . S
C659 H649 0.930 1_455 S
C659 C652 1.409 . S
C659 C658 1.362 . S
H660 C666 0.930 . S
H661 C669 0.930 . S
H662 C670 0.930 . S
H663 C671 0.928 1_545 S
H664 C674 0.930 . S
H665 C675 0.930 . S
C666 H660 0.930 . S
C666 C667 1.355 . S
C666 C668 1.415 . S
C667 C666 1.355 . S
C667 C669 1.419 1_564 S
C668 C666 1.415 . S
C668 C673 1.425 1_554 S
C668 C675 1.409 . S
C669 H661 0.930 . S
C669 C667 1.419 1_546 S
C669 C670 1.362 . S
C670 H662 0.930 . S
C670 C669 1.362 . S
C670 C673 1.409 1_545 S
C671 H663 0.928 1_565 S
C671 C672 1.355 1_556 S
C671 C673 1.415 . S
C672 C671 1.355 1_554 S
C672 C674 1.419 . S
C673 C668 1.425 1_556 S
C673 C670 1.409 1_565 S
C673 C671 1.415 . S
C674 H664 0.930 . S
C674 C672 1.419 . S
C674 C675 1.362 . S
C675 H665 0.930 . S
C675 C668 1.409 . S
C675 C674 1.362 . S
H676 C682 0.930 . S
H677 C685 0.930 1_565 S
H678 C686 0.930 1_565 S
H679 C687 0.930 . S
H680 C690 0.930 . S
H681 C691 0.930 . S
C682 H676 0.930 . S
C682 C683 1.355 . S
C682 C684 1.415 . S
C683 C682 1.355 . S
C683 C685 1.419 . S
C684 C682 1.415 . S
C684 C689 1.425 . S
C684 C691 1.409 . S
C685 H677 0.930 1_545 S
C685 C683 1.419 . S
C685 C686 1.362 . S
C686 H678 0.930 1_545 S
C686 C685 1.362 . S
C686 C689 1.409 . S
C687 H679 0.930 . S
C687 C688 1.355 . S
C687 C689 1.415 . S
C688 C687 1.355 . S
C688 C690 1.419 . S
C689 C684 1.425 . S
C689 C686 1.409 . S
C689 C687 1.415 . S
C690 H680 0.930 . S
C690 C688 1.419 . S
C690 C691 1.362 . S
C691 H681 0.930 . S
C691 C684 1.409 . S
C691 C690 1.362 . S
H692 C698 0.930 . S
H693 C701 0.930 . S
H694 C702 0.930 . S
H695 C703 0.930 . S
H696 C706 0.930 . S
H697 C707 0.930 . S
C698 H692 0.930 . S
C698 C699 1.355 . S
C698 C700 1.415 . S
C699 C698 1.355 . S
C699 C701 1.419 . S
C700 C698 1.415 . S
C700 C705 1.425 . S
C700 C707 1.409 . S
C701 H693 0.930 . S
C701 C699 1.419 . S
C701 C702 1.362 . S
C702 H694 0.930 . S
C702 C701 1.362 . S
C702 C705 1.409 . S
C703 H695 0.930 . S
C703 C704 1.355 . S
C703 C705 1.415 . S
C704 C703 1.355 . S
C704 C706 1.419 . S
C705 C700 1.425 . S
C705 C702 1.409 . S
C705 C703 1.415 . S
C706 H696 0.930 . S
C706 C704 1.419 . S
C706 C707 1.362 . S
C707 H697 0.930 . S
C707 C700 1.409 . S
C707 C706 1.362 . S
H708 C714 0.930 . S
H709 C717 0.930 . S
H710 C718 0.930 . S
H711 C719 0.930 . S
H712 C722 0.930 . S
H713 C723 0.930 . S
C714 H708 0.930 . S
C714 C715 1.355 . S
C714 C716 1.415 . S
C715 C714 1.355 . S
C715 C717 1.419 . S
C716 C714 1.415 . S
C716 C721 1.425 . S
C716 C723 1.409 . S
C717 H709 0.930 . S
C717 C715 1.419 . S
C717 C718 1.362 . S
C718 H710 0.930 . S
C718 C717 1.362 . S
C718 C721 1.409 . S
C719 H711 0.930 . S
C719 C720 1.355 . S
C719 C721 1.415 . S
C720 C719 1.355 . S
C720 C722 1.419 . S
C721 C716 1.425 . S
C721 C718 1.409 . S
C721 C719 1.415 . S
C722 H712 0.930 . S
C722 C720 1.419 . S
C722 C723 1.362 . S
C723 H713 0.930 . S
C723 C716 1.409 . S
C723 C722 1.362 . S
H724 C730 0.930 . S
H725 C733 0.933 . S
H726 C734 0.930 . S
H727 C735 0.930 . S
H728 C738 0.930 . S
H729 C739 0.930 . S
C730 H724 0.930 . S
C730 C731 1.355 . S
C730 C732 1.415 . S
C731 C730 1.355 . S
C731 C733 1.419 1_455 S
C732 C730 1.415 . S
C732 C737 1.425 . S
C732 C739 1.409 . S
C733 H725 0.933 . S
C733 C731 1.419 1_655 S
C733 C734 1.362 . S
C734 H726 0.930 . S
C734 C733 1.362 . S
C734 C737 1.409 1_655 S
C735 H727 0.930 . S
C735 C736 1.355 1_655 S
C735 C737 1.415 1_655 S
C736 C735 1.355 1_455 S
C736 C738 1.419 . S
C737 C732 1.425 . S
C737 C734 1.409 1_455 S
C737 C735 1.415 1_455 S
C738 H728 0.930 . S
C738 C736 1.419 . S
C738 C739 1.362 . S
C739 H729 0.930 . S
C739 C732 1.409 . S
C739 C738 1.362 . S
H740 C746 0.930 . S
H741 C749 0.930 . S
H742 C750 0.930 . S
H743 C751 0.930 . S
H744 C754 0.930 . S
H745 C755 0.930 . S
C746 H740 0.930 . S
C746 C747 1.355 . S
C746 C748 1.415 . S
C747 C746 1.355 . S
C747 C749 1.419 . S
C748 C746 1.415 . S
C748 C753 1.425 . S
C748 C755 1.409 . S
C749 H741 0.930 . S
C749 C747 1.419 . S
C749 C750 1.362 . S
C750 H742 0.930 . S
C750 C749 1.362 . S
C750 C753 1.409 . S
C751 H743 0.930 . S
C751 C752 1.355 . S
C751 C753 1.415 . S
C752 C751 1.355 . S
C752 C754 1.419 . S
C753 C748 1.425 . S
C753 C750 1.409 . S
C753 C751 1.415 . S
C754 H744 0.930 . S
C754 C752 1.419 . S
C754 C755 1.362 . S
C755 H745 0.930 . S
C755 C748 1.409 . S
C755 C754 1.362 . S
H756 C762 0.930 . S
H757 C765 0.930 . S
H758 C766 0.930 . S
H759 C767 0.930 . S
H760 C770 0.930 1_655 S
H761 C771 0.930 1_655 S
C762 H756 0.930 . S
C762 C763 1.355 . S
C762 C764 1.415 . S
C763 C762 1.355 . S
C763 C765 1.419 . S
C764 C762 1.415 . S
C764 C769 1.425 . S
C764 C771 1.409 . S
C765 H757 0.930 . S
C765 C763 1.419 . S
C765 C766 1.362 . S
C766 H758 0.930 . S
C766 C765 1.362 . S
C766 C769 1.409 . S
C767 H759 0.930 . S
C767 C768 1.355 . S
C767 C769 1.415 . S
C768 C767 1.355 . S
C768 C770 1.419 . S
C769 C764 1.425 . S
C769 C766 1.409 . S
C769 C767 1.415 . S
C770 H760 0.930 1_455 S
C770 C768 1.419 . S
C770 C771 1.362 . S
C771 H761 0.930 1_455 S
C771 C764 1.409 . S
C771 C770 1.362 . S
H772 C778 0.930 . S
H773 C781 0.930 . S
H774 C782 0.930 . S
H775 C783 0.930 . S
H776 C786 0.930 . S
H777 C787 0.930 . S
C778 H772 0.930 . S
C778 C779 1.355 . S
C778 C780 1.415 . S
C779 C778 1.355 . S
C779 C781 1.419 . S
C780 C778 1.415 . S
C780 C785 1.425 . S
C780 C787 1.409 . S
C781 H773 0.930 . S
C781 C779 1.419 . S
C781 C782 1.362 . S
C782 H774 0.930 . S
C782 C781 1.362 . S
C782 C785 1.409 . S
C783 H775 0.930 . S
C783 C784 1.355 . S
C783 C785 1.415 . S
C784 C783 1.355 . S
C784 C786 1.419 . S
C785 C780 1.425 . S
C785 C782 1.409 . S
C785 C783 1.415 . S
C786 H776 0.930 . S
C786 C784 1.419 . S
C786 C787 1.362 . S
C787 H777 0.930 . S
C787 C780 1.409 . S
C787 C786 1.362 . S
C411 C21 1.539 . S
C416 C323 1.457 . S
C427 C61 1.503 . S
C432 C357 1.390 . S
C448 C369 1.373 . S
C443 C82 1.447 . S
C459 C135 1.517 . S
C464 C403 1.393 . S
C480 C360 1.473 . S
C475 C15 1.526 . S
C496 C340 1.388 . S
C491 C42 1.510 . S
C512 C387 1.345 . S
C507 C101 1.496 . S
C528 C378 1.431 . S
C523 C122 1.469 . S
C539 C2 1.531 . S
C544 C386 1.439 . S
C560 C348 1.376 . S
C555 C95 1.454 . S
C571 C141 1.515 . S
C576 C324 1.357 . S
C587 C55 1.502 . S
C592 C381 1.348 . S
C608 C339 1.713 . S
C603 C181 1.744 1_445 S
C619 C202 1.702 . S
C624 C361 1.741 . S
C635 C255 1.793 . S
C640 C366 1.682 . S
C651 C295 1.807 . S
C656 C399 1.771 . S
C667 C175 1.768 1_554 S
C672 C344 1.709 . S
C688 C336 1.749 . S
C683 C221 1.790 . S
C704 C390 1.748 . S
C699 C242 1.706 . S
C720 C382 1.701 . S
C715 C301 1.880 . S
C731 C162 1.653 . S
C736 C402 1.658 . S
C752 C345 1.695 . S
C747 C261 1.689 . S
C768 C327 1.726 . S
C763 C282 1.813 . S
C779 C215 1.788 . S
C784 C365 1.771 . S
