# Generated by pormake.
# Topology gar, (4,6)-cn, num edge types: 1
# Building blocks:
#     Node 0, Type 0, BuildingBlock: KUFVIS_clean_sbu_0, # of connection points: 4
#     Node 1, Type 0, BuildingBlock: KUFVIS_clean_sbu_0, # of connection points: 4
#     Node 2, Type 0, BuildingBlock: KUFVIS_clean_sbu_0, # of connection points: 4
#     Node 3, Type 0, BuildingBlock: KUFVIS_clean_sbu_0, # of connection points: 4
#     Node 4, Type 0, BuildingBlock: KUFVIS_clean_sbu_0, # of connection points: 4
#     Node 5, Type 0, BuildingBlock: KUFVIS_clean_sbu_0, # of connection points: 4
#     Node 6, Type 0, BuildingBlock: KUFVIS_clean_sbu_0, # of connection points: 4
#     Node 7, Type 0, BuildingBlock: KUFVIS_clean_sbu_0, # of connection points: 4
#     Node 8, Type 0, BuildingBlock: KUFVIS_clean_sbu_0, # of connection points: 4
#     Node 9, Type 0, BuildingBlock: KUFVIS_clean_sbu_0, # of connection points: 4
#     Node 10, Type 0, BuildingBlock: KUFVIS_clean_sbu_0, # of connection points: 4
#     Node 11, Type 0, BuildingBlock: KUFVIS_clean_sbu_0, # of connection points: 4
#     Node 12, Type 0, BuildingBlock: KUFVIS_clean_sbu_0, # of connection points: 4
#     Node 13, Type 0, BuildingBlock: KUFVIS_clean_sbu_0, # of connection points: 4
#     Node 14, Type 0, BuildingBlock: KUFVIS_clean_sbu_0, # of connection points: 4
#     Node 15, Type 0, BuildingBlock: KUFVIS_clean_sbu_0, # of connection points: 4
#     Node 16, Type 0, BuildingBlock: KUFVIS_clean_sbu_0, # of connection points: 4
#     Node 17, Type 0, BuildingBlock: KUFVIS_clean_sbu_0, # of connection points: 4
#     Node 18, Type 0, BuildingBlock: KUFVIS_clean_sbu_0, # of connection points: 4
#     Node 19, Type 0, BuildingBlock: KUFVIS_clean_sbu_0, # of connection points: 4
#     Node 20, Type 0, BuildingBlock: KUFVIS_clean_sbu_0, # of connection points: 4
#     Node 21, Type 0, BuildingBlock: KUFVIS_clean_sbu_0, # of connection points: 4
#     Node 22, Type 0, BuildingBlock: KUFVIS_clean_sbu_0, # of connection points: 4
#     Node 23, Type 0, BuildingBlock: KUFVIS_clean_sbu_0, # of connection points: 4
#     Node 24, Type 1, BuildingBlock: NUHQIS_clean_sbu_0, # of connection points: 6
#     Node 25, Type 1, BuildingBlock: NUHQIS_clean_sbu_0, # of connection points: 6
#     Node 26, Type 1, BuildingBlock: NUHQIS_clean_sbu_0, # of connection points: 6
#     Node 27, Type 1, BuildingBlock: NUHQIS_clean_sbu_0, # of connection points: 6
#     Node 28, Type 1, BuildingBlock: NUHQIS_clean_sbu_0, # of connection points: 6
#     Node 29, Type 1, BuildingBlock: NUHQIS_clean_sbu_0, # of connection points: 6
#     Node 30, Type 1, BuildingBlock: NUHQIS_clean_sbu_0, # of connection points: 6
#     Node 31, Type 1, BuildingBlock: NUHQIS_clean_sbu_0, # of connection points: 6
#     Node 32, Type 1, BuildingBlock: NUHQIS_clean_sbu_0, # of connection points: 6
#     Node 33, Type 1, BuildingBlock: NUHQIS_clean_sbu_0, # of connection points: 6
#     Node 34, Type 1, BuildingBlock: NUHQIS_clean_sbu_0, # of connection points: 6
#     Node 35, Type 1, BuildingBlock: NUHQIS_clean_sbu_0, # of connection points: 6
#     Node 36, Type 1, BuildingBlock: NUHQIS_clean_sbu_0, # of connection points: 6
#     Node 37, Type 1, BuildingBlock: NUHQIS_clean_sbu_0, # of connection points: 6
#     Node 38, Type 1, BuildingBlock: NUHQIS_clean_sbu_0, # of connection points: 6
#     Node 39, Type 1, BuildingBlock: NUHQIS_clean_sbu_0, # of connection points: 6
#     Edge 40, Type (0, 1), BuildingBlock: KIFKEQ_clean_linker_1, # of connection points: 2
#     Edge 41, Type (0, 1), BuildingBlock: KIFKEQ_clean_linker_1, # of connection points: 2
#     Edge 42, Type (0, 1), BuildingBlock: KIFKEQ_clean_linker_1, # of connection points: 2
#     Edge 43, Type (0, 1), BuildingBlock: KIFKEQ_clean_linker_1, # of connection points: 2
#     Edge 44, Type (0, 1), BuildingBlock: KIFKEQ_clean_linker_1, # of connection points: 2
#     Edge 45, Type (0, 1), BuildingBlock: KIFKEQ_clean_linker_1, # of connection points: 2
#     Edge 46, Type (0, 1), BuildingBlock: KIFKEQ_clean_linker_1, # of connection points: 2
#     Edge 47, Type (0, 1), BuildingBlock: KIFKEQ_clean_linker_1, # of connection points: 2
#     Edge 48, Type (0, 1), BuildingBlock: KIFKEQ_clean_linker_1, # of connection points: 2
#     Edge 49, Type (0, 1), BuildingBlock: KIFKEQ_clean_linker_1, # of connection points: 2
#     Edge 50, Type (0, 1), BuildingBlock: KIFKEQ_clean_linker_1, # of connection points: 2
#     Edge 51, Type (0, 1), BuildingBlock: KIFKEQ_clean_linker_1, # of connection points: 2
#     Edge 52, Type (0, 1), BuildingBlock: KIFKEQ_clean_linker_1, # of connection points: 2
#     Edge 53, Type (0, 1), BuildingBlock: KIFKEQ_clean_linker_1, # of connection points: 2
#     Edge 54, Type (0, 1), BuildingBlock: KIFKEQ_clean_linker_1, # of connection points: 2
#     Edge 55, Type (0, 1), BuildingBlock: KIFKEQ_clean_linker_1, # of connection points: 2
#     Edge 56, Type (0, 1), BuildingBlock: KIFKEQ_clean_linker_1, # of connection points: 2
#     Edge 57, Type (0, 1), BuildingBlock: KIFKEQ_clean_linker_1, # of connection points: 2
#     Edge 58, Type (0, 1), BuildingBlock: KIFKEQ_clean_linker_1, # of connection points: 2
#     Edge 59, Type (0, 1), BuildingBlock: KIFKEQ_clean_linker_1, # of connection points: 2
#     Edge 60, Type (0, 1), BuildingBlock: KIFKEQ_clean_linker_1, # of connection points: 2
#     Edge 61, Type (0, 1), BuildingBlock: KIFKEQ_clean_linker_1, # of connection points: 2
#     Edge 62, Type (0, 1), BuildingBlock: KIFKEQ_clean_linker_1, # of connection points: 2
#     Edge 63, Type (0, 1), BuildingBlock: KIFKEQ_clean_linker_1, # of connection points: 2
#     Edge 64, Type (0, 1), BuildingBlock: KIFKEQ_clean_linker_1, # of connection points: 2
#     Edge 65, Type (0, 1), BuildingBlock: KIFKEQ_clean_linker_1, # of connection points: 2
#     Edge 66, Type (0, 1), BuildingBlock: KIFKEQ_clean_linker_1, # of connection points: 2
#     Edge 67, Type (0, 1), BuildingBlock: KIFKEQ_clean_linker_1, # of connection points: 2
#     Edge 68, Type (0, 1), BuildingBlock: KIFKEQ_clean_linker_1, # of connection points: 2
#     Edge 69, Type (0, 1), BuildingBlock: KIFKEQ_clean_linker_1, # of connection points: 2
#     Edge 70, Type (0, 1), BuildingBlock: KIFKEQ_clean_linker_1, # of connection points: 2
#     Edge 71, Type (0, 1), BuildingBlock: KIFKEQ_clean_linker_1, # of connection points: 2
#     Edge 72, Type (0, 1), BuildingBlock: KIFKEQ_clean_linker_1, # of connection points: 2
#     Edge 73, Type (0, 1), BuildingBlock: KIFKEQ_clean_linker_1, # of connection points: 2
#     Edge 74, Type (0, 1), BuildingBlock: KIFKEQ_clean_linker_1, # of connection points: 2
#     Edge 75, Type (0, 1), BuildingBlock: KIFKEQ_clean_linker_1, # of connection points: 2
#     Edge 76, Type (0, 1), BuildingBlock: KIFKEQ_clean_linker_1, # of connection points: 2
#     Edge 77, Type (0, 1), BuildingBlock: KIFKEQ_clean_linker_1, # of connection points: 2
#     Edge 78, Type (0, 1), BuildingBlock: KIFKEQ_clean_linker_1, # of connection points: 2
#     Edge 79, Type (0, 1), BuildingBlock: KIFKEQ_clean_linker_1, # of connection points: 2
#     Edge 80, Type (0, 1), BuildingBlock: KIFKEQ_clean_linker_1, # of connection points: 2
#     Edge 81, Type (0, 1), BuildingBlock: KIFKEQ_clean_linker_1, # of connection points: 2
#     Edge 82, Type (0, 1), BuildingBlock: KIFKEQ_clean_linker_1, # of connection points: 2
#     Edge 83, Type (0, 1), BuildingBlock: KIFKEQ_clean_linker_1, # of connection points: 2
#     Edge 84, Type (0, 1), BuildingBlock: KIFKEQ_clean_linker_1, # of connection points: 2
#     Edge 85, Type (0, 1), BuildingBlock: KIFKEQ_clean_linker_1, # of connection points: 2
#     Edge 86, Type (0, 1), BuildingBlock: KIFKEQ_clean_linker_1, # of connection points: 2
#     Edge 87, Type (0, 1), BuildingBlock: KIFKEQ_clean_linker_1, # of connection points: 2
#     Edge 88, Type (0, 1), BuildingBlock: KIFKEQ_clean_linker_1, # of connection points: 2
#     Edge 89, Type (0, 1), BuildingBlock: KIFKEQ_clean_linker_1, # of connection points: 2
#     Edge 90, Type (0, 1), BuildingBlock: KIFKEQ_clean_linker_1, # of connection points: 2
#     Edge 91, Type (0, 1), BuildingBlock: KIFKEQ_clean_linker_1, # of connection points: 2
#     Edge 92, Type (0, 1), BuildingBlock: KIFKEQ_clean_linker_1, # of connection points: 2
#     Edge 93, Type (0, 1), BuildingBlock: KIFKEQ_clean_linker_1, # of connection points: 2
#     Edge 94, Type (0, 1), BuildingBlock: KIFKEQ_clean_linker_1, # of connection points: 2
#     Edge 95, Type (0, 1), BuildingBlock: KIFKEQ_clean_linker_1, # of connection points: 2
#     Edge 96, Type (0, 1), BuildingBlock: KIFKEQ_clean_linker_1, # of connection points: 2
#     Edge 97, Type (0, 1), BuildingBlock: KIFKEQ_clean_linker_1, # of connection points: 2
#     Edge 98, Type (0, 1), BuildingBlock: KIFKEQ_clean_linker_1, # of connection points: 2
#     Edge 99, Type (0, 1), BuildingBlock: KIFKEQ_clean_linker_1, # of connection points: 2
#     Edge 100, Type (0, 1), BuildingBlock: KIFKEQ_clean_linker_1, # of connection points: 2
#     Edge 101, Type (0, 1), BuildingBlock: KIFKEQ_clean_linker_1, # of connection points: 2
#     Edge 102, Type (0, 1), BuildingBlock: KIFKEQ_clean_linker_1, # of connection points: 2
#     Edge 103, Type (0, 1), BuildingBlock: KIFKEQ_clean_linker_1, # of connection points: 2
#     Edge 104, Type (0, 1), BuildingBlock: KIFKEQ_clean_linker_1, # of connection points: 2
#     Edge 105, Type (0, 1), BuildingBlock: KIFKEQ_clean_linker_1, # of connection points: 2
#     Edge 106, Type (0, 1), BuildingBlock: KIFKEQ_clean_linker_1, # of connection points: 2
#     Edge 107, Type (0, 1), BuildingBlock: KIFKEQ_clean_linker_1, # of connection points: 2
#     Edge 108, Type (0, 1), BuildingBlock: KIFKEQ_clean_linker_1, # of connection points: 2
#     Edge 109, Type (0, 1), BuildingBlock: KIFKEQ_clean_linker_1, # of connection points: 2
#     Edge 110, Type (0, 1), BuildingBlock: KIFKEQ_clean_linker_1, # of connection points: 2
#     Edge 111, Type (0, 1), BuildingBlock: KIFKEQ_clean_linker_1, # of connection points: 2
#     Edge 112, Type (0, 1), BuildingBlock: KIFKEQ_clean_linker_1, # of connection points: 2
#     Edge 113, Type (0, 1), BuildingBlock: KIFKEQ_clean_linker_1, # of connection points: 2
#     Edge 114, Type (0, 1), BuildingBlock: KIFKEQ_clean_linker_1, # of connection points: 2
#     Edge 115, Type (0, 1), BuildingBlock: KIFKEQ_clean_linker_1, # of connection points: 2
#     Edge 116, Type (0, 1), BuildingBlock: KIFKEQ_clean_linker_1, # of connection points: 2
#     Edge 117, Type (0, 1), BuildingBlock: KIFKEQ_clean_linker_1, # of connection points: 2
#     Edge 118, Type (0, 1), BuildingBlock: KIFKEQ_clean_linker_1, # of connection points: 2
#     Edge 119, Type (0, 1), BuildingBlock: KIFKEQ_clean_linker_1, # of connection points: 2
#     Edge 120, Type (0, 1), BuildingBlock: KIFKEQ_clean_linker_1, # of connection points: 2
#     Edge 121, Type (0, 1), BuildingBlock: KIFKEQ_clean_linker_1, # of connection points: 2
#     Edge 122, Type (0, 1), BuildingBlock: KIFKEQ_clean_linker_1, # of connection points: 2
#     Edge 123, Type (0, 1), BuildingBlock: KIFKEQ_clean_linker_1, # of connection points: 2
#     Edge 124, Type (0, 1), BuildingBlock: KIFKEQ_clean_linker_1, # of connection points: 2
#     Edge 125, Type (0, 1), BuildingBlock: KIFKEQ_clean_linker_1, # of connection points: 2
#     Edge 126, Type (0, 1), BuildingBlock: KIFKEQ_clean_linker_1, # of connection points: 2
#     Edge 127, Type (0, 1), BuildingBlock: KIFKEQ_clean_linker_1, # of connection points: 2
#     Edge 128, Type (0, 1), BuildingBlock: KIFKEQ_clean_linker_1, # of connection points: 2
#     Edge 129, Type (0, 1), BuildingBlock: KIFKEQ_clean_linker_1, # of connection points: 2
#     Edge 130, Type (0, 1), BuildingBlock: KIFKEQ_clean_linker_1, # of connection points: 2
#     Edge 131, Type (0, 1), BuildingBlock: KIFKEQ_clean_linker_1, # of connection points: 2
#     Edge 132, Type (0, 1), BuildingBlock: KIFKEQ_clean_linker_1, # of connection points: 2
#     Edge 133, Type (0, 1), BuildingBlock: KIFKEQ_clean_linker_1, # of connection points: 2
#     Edge 134, Type (0, 1), BuildingBlock: KIFKEQ_clean_linker_1, # of connection points: 2
#     Edge 135, Type (0, 1), BuildingBlock: KIFKEQ_clean_linker_1, # of connection points: 2
# Relax obj value: 0.205
# Max RMSD: 0.316
# Mean RMSD: 0.135
data_MOF--net-gar--node1-KUFVIS_clean_sbu_0--node2-NUHQIS_clean_sbu_0--edge1-KIFKEQ_clean_linker_1
_symmetry_space_group_name_H-M    P1
_symmetry_Int_Tables_number       1
_symmetry_cell_setting            triclinic
loop_
_symmetry_equiv_pos_as_xyz
'x, y, z'
_cell_length_a     57.184384
_cell_length_b     59.847178
_cell_length_c     58.342563
_cell_angle_alpha  93.439024
_cell_angle_beta   95.960228
_cell_angle_gamma 99.820129
loop_
_atom_site_label
_atom_site_type_symbol
_atom_site_fract_x
_atom_site_fract_y
_atom_site_fract_z
_atom_type_partial_charge
Mn0 Mn 0.0927 0.29188 0.4251 0.0
Mn1 Mn 0.08871 0.32557 0.37972 0.0
C2 C 0.05371 0.29556 0.4049 0.0
C3 C 0.09462 0.25372 0.44226 0.0
C4 C 0.0985 0.34678 0.43029 0.0
O5 O 0.12797 0.29556 0.41301 0.0
O6 O 0.12102 0.31605 0.38272 0.0
C7 C 0.08983 0.29004 0.34237 0.0
N8 N 0.0792 0.30667 0.35153 0.0
C9 C 0.0482 0.30065 0.31942 0.0
C10 C 0.05918 0.28388 0.30938 0.0
C11 C 0.07999 0.27845 0.32099 0.0
C12 C 0.05884 0.31165 0.34076 0.0
H13 H 0.10556 0.2855 0.3514 0.0
C14 C 0.13481 0.30505 0.3946 0.0
O15 O 0.10126 0.27348 0.45365 0.0
O16 O 0.08792 0.25594 0.42067 0.0
N17 N 0.05892 0.33594 0.37348 0.0
C18 C 0.04979 0.35172 0.38597 0.0
C19 C 1.02864 0.35862 0.377 0.0
C20 C 1.01717 0.34941 0.35521 0.0
C21 C 1.02701 0.33343 0.34253 0.0
C22 C 0.04828 0.32738 0.35223 0.0
H23 H 0.05847 0.35901 0.40269 0.0
O24 O 0.05609 0.28905 0.42571 0.0
O25 O 0.07411 0.29987 0.39651 0.0
O26 O 0.09768 0.32735 0.43952 0.0
O27 O 0.09742 0.34738 0.40823 0.0
C28 C 1.01632 0.32301 0.32079 0.0
C29 C 1.02685 0.30654 0.3093 0.0
H30 H 0.05159 0.27483 0.29293 0.0
H31 H 0.08837 0.26528 0.31353 0.0
H32 H 1.02116 0.37098 0.3869 0.0
H33 H 1.00074 0.35462 0.34844 0.0
H34 H 0.99979 0.32725 0.31295 0.0
H35 H 1.01823 0.29834 0.29279 0.0
Mn36 Mn 0.07528 0.80061 0.65873 0.0
Mn37 Mn 0.08725 0.8415 0.70391 0.0
C38 C 0.11573 0.81185 0.67923 0.0
C39 C 0.06865 0.75972 0.6407 0.0
C40 C 0.0788 0.85488 0.65351 0.0
O41 O 0.04057 0.79981 0.67199 0.0
O42 O 0.05209 0.82776 0.7007 0.0
C43 C 0.0776 0.81235 0.74242 0.0
N44 N 0.0928 0.82785 0.73235 0.0
C45 C 0.12382 0.82917 0.76389 0.0
C46 C 0.10843 0.81335 0.77464 0.0
C47 C 0.08524 0.80489 0.76383 0.0
C48 C 0.11516 0.83612 0.74263 0.0
H49 H 0.05978 0.80568 0.73419 0.0
C50 C 0.0357 0.81225 0.68963 0.0
O51 O 0.06388 0.77694 0.62975 0.0
O52 O 0.0752 0.7657 0.66249 0.0
N53 N 0.1202 0.85569 0.70969 0.0
C54 C 0.13346 0.86947 0.69625 0.0
C55 C 0.1574 0.87865 0.70418 0.0
C56 C 0.16746 0.87362 0.72583 0.0
C57 C 0.15347 0.85945 0.73938 0.0
C58 C 0.12965 0.85091 0.73066 0.0
H59 H 0.12592 0.87332 0.67952 0.0
O60 O 0.11181 0.80376 0.6578 0.0
O61 O 0.09601 0.81453 0.68761 0.0
O62 O 0.07504 0.83392 0.64438 0.0
O63 O 0.08274 0.8587 0.67556 0.0
C64 C 0.16241 0.85301 0.76095 0.0
C65 C 0.1476 0.83789 0.7732 0.0
H66 H 0.11431 0.80742 0.79108 0.0
H67 H 0.0733 0.79258 0.77196 0.0
H68 H 0.16812 0.88949 0.69356 0.0
H69 H 0.18601 0.88055 0.73178 0.0
H70 H 0.18078 0.85929 0.76809 0.0
H71 H 0.15479 0.83279 0.78959 0.0
Mn72 Mn 0.58441 0.79239 0.92488 0.0
Mn73 Mn 0.581 0.82726 0.88026 0.0
C74 C 0.54538 0.79656 0.90431 0.0
C75 C 0.58614 0.7534 0.94142 0.0
C76 C 0.58998 0.84764 0.93123 0.0
O77 O 0.61993 0.7963 0.91295 0.0
O78 O 0.61348 0.81794 0.88351 0.0
C79 C 0.58326 0.7927 0.84231 0.0
N80 N 0.57217 0.80888 0.85167 0.0
C81 C 0.5418 0.80331 0.81902 0.0
C82 C 0.55319 0.78694 0.80884 0.0
C83 C 0.57393 0.78152 0.82061 0.0
C84 C 0.55193 0.8139 0.84069 0.0
H85 H 0.59902 0.78823 0.85138 0.0
C86 C 0.62714 0.80649 0.89499 0.0
O87 O 0.59268 0.77303 0.95308 0.0
O88 O 0.57956 0.75621 0.91994 0.0
N89 N 0.55119 0.83752 0.8737 0.0
C90 C 0.54169 0.85298 0.88625 0.0
C91 C 0.52065 0.85994 0.87705 0.0
C92 C 0.50966 0.85109 0.85498 0.0
C93 C 0.51987 0.83543 0.84226 0.0
C94 C 0.54101 0.82931 0.85221 0.0
H95 H 0.54995 0.85993 0.90321 0.0
O96 O 0.54757 0.78955 0.92493 0.0
O97 O 0.566 0.80108 0.89631 0.0
O98 O 0.58933 0.82794 0.94005 0.0
O99 O 0.58899 0.84858 0.90921 0.0
C100 C 0.50967 0.82538 0.82023 0.0
C101 C 0.52056 0.80925 0.80867 0.0
H102 H 0.54601 0.77823 0.79214 0.0
H103 H 0.58267 0.7687 0.81301 0.0
H104 H 0.51287 0.87203 0.887 0.0
H105 H 0.4933 0.85632 0.84804 0.0
H106 H 0.49325 0.82968 0.81219 0.0
H107 H 0.51235 0.80137 0.79191 0.0
Mn108 Mn 0.58286 0.30293 0.16438 0.0
Mn109 Mn 0.53793 0.29453 0.12074 0.0
C110 C 0.56992 0.26433 0.1444 0.0
C111 C 0.62485 0.30958 0.18291 0.0
C112 C 0.52771 0.30098 0.17173 0.0
O113 O 0.58384 0.33679 0.15188 0.0
O114 O 0.55296 0.32854 0.12373 0.0
C115 C 0.56557 0.30498 0.08125 0.0
N116 N 0.55001 0.2902 0.09173 0.0
C117 C 0.54629 0.26167 0.06003 0.0
C118 C 0.56209 0.27667 0.04883 0.0
C119 C 0.5718 0.2984 0.05951 0.0
C120 C 0.54053 0.26925 0.08157 0.0
H121 H 0.57323 0.32165 0.0894 0.0
C122 C 0.5703 0.34318 0.1349 0.0
O123 O 0.60695 0.31342 0.19343 0.0
O124 O 0.61889 0.30345 0.16104 0.0
N125 N 0.52227 0.26344 0.11509 0.0
C126 C 0.50902 0.25029 0.12904 0.0
C127 C 0.49896 0.22767 0.12138 0.0
C128 C 0.50262 0.2188 0.09947 0.0
C129 C 0.51637 0.23261 0.08544 0.0
C130 C 0.52586 0.25507 0.09395 0.0
H131 H 0.50629 0.25692 0.14599 0.0
O132 O 0.57935 0.26799 0.16579 0.0
O133 O 0.56685 0.28363 0.13563 0.0
O134 O 0.55003 0.30337 0.17974 0.0
O135 O 0.52173 0.29806 0.1498 0.0
C136 C 0.52159 0.22477 0.06362 0.0
C137 C 0.53651 0.2393 0.05091 0.0
H138 H 0.56711 0.27159 0.03215 0.0
H139 H 0.58413 0.31002 0.05105 0.0
H140 H 0.48852 0.21707 0.13238 0.0
H141 H 0.49502 0.20127 0.09371 0.0
H142 H 0.51455 0.20747 0.05662 0.0
H143 H 0.54069 0.23296 0.03431 0.0
Mn144 Mn 0.13249 0.85975 0.16697 0.0
Mn145 Mn 0.10252 0.82626 0.12083 0.0
C146 C 0.13722 0.82251 0.16201 0.0
C147 C 0.16445 0.8853 0.18659 0.0
C148 C 0.08017 0.83559 0.1639 0.0
O149 O 0.12212 0.88278 0.1461 0.0
O150 O 0.10041 0.85881 0.11755 0.0
C151 C 0.13526 0.84399 0.08735 0.0
N152 N 0.12384 0.82611 0.09768 0.0
C153 C 0.14023 0.79943 0.07439 0.0
C154 C 0.15208 0.81755 0.06343 0.0
C155 C 0.14967 0.83993 0.07002 0.0
C156 C 0.12637 0.80455 0.09175 0.0
H157 H 0.13337 0.86121 0.09227 0.0
C158 C 0.10834 0.87884 0.12718 0.0
O159 O 0.14315 0.88338 0.19285 0.0
O160 O 0.16686 0.87346 0.16782 0.0
N161 N 0.10244 0.79427 0.12067 0.0
C162 C 0.08936 0.77866 0.13254 0.0
C163 C 0.08952 0.75541 0.12777 0.0
C164 C 0.10265 0.74841 0.11047 0.0
C165 C 0.1155 0.76473 0.09809 0.0
C166 C 0.11468 0.78765 0.10363 0.0
H167 H 0.07892 0.7839 0.1456 0.0
O168 O 0.14188 0.83348 0.18226 0.0
O169 O 0.13037 0.83374 0.14478 0.0
O170 O 0.09819 0.84975 0.17355 0.0
O171 O 0.07972 0.825 0.14415 0.0
C172 C 0.12901 0.75915 0.0804 0.0
C173 C 0.14155 0.7765 0.06871 0.0
H174 H 0.16308 0.81447 0.04994 0.0
H175 H 0.1588 0.85401 0.06168 0.0
H176 H 0.07945 0.74291 0.13731 0.0
H177 H 0.10266 0.73045 0.10679 0.0
H178 H 0.12993 0.74156 0.07568 0.0
H179 H 0.15202 0.772 0.05527 0.0
Mn180 Mn 0.52136 0.7394 0.39911 0.0
Mn181 Mn 0.51764 0.752 0.34317 0.0
C182 C 0.48414 0.73916 0.3796 0.0
C183 C 0.52811 0.71402 0.42648 0.0
C184 C 0.5311 0.78755 0.38387 0.0
O185 O 0.55476 0.73959 0.3905 0.0
O186 O 0.54847 0.74234 0.35227 0.0
C187 C 0.51552 0.70514 0.32269 0.0
N188 N 0.50618 0.72459 0.32386 0.0
C189 C 0.47525 0.7097 0.29296 0.0
C190 C 0.48458 0.68953 0.29131 0.0
C191 C 0.50472 0.6872 0.30634 0.0
C192 C 0.48649 0.7268 0.30989 0.0
H193 H 0.53109 0.70338 0.33413 0.0
C194 C 0.56167 0.73962 0.37053 0.0
O195 O 0.53312 0.73582 0.43147 0.0
O196 O 0.51832 0.70681 0.40562 0.0
N197 N 0.48935 0.76193 0.33041 0.0
C198 C 0.48368 0.78307 0.33314 0.0
C199 C 0.46504 0.78884 0.31837 0.0
C200 C 0.45234 0.77286 0.30093 0.0
C201 C 0.45883 0.75141 0.29804 0.0
C202 C 0.47801 0.74685 0.3129 0.0
H203 H 0.49357 0.7956 0.34623 0.0
O204 O 0.48704 0.73895 0.40193 0.0
O205 O 0.50283 0.73743 0.36895 0.0
O206 O 0.52739 0.77385 0.39956 0.0
O207 O 0.529 0.78123 0.36227 0.0
C208 C 0.4473 0.73452 0.28075 0.0
C209 C 0.45535 0.71358 0.27837 0.0
H210 H 0.47645 0.67575 0.27856 0.0
H211 H 0.51201 0.67168 0.30521 0.0
H212 H 0.46066 0.80568 0.3203 0.0
H213 H 0.43782 0.77733 0.2897 0.0
H214 H 0.43227 0.73749 0.26917 0.0
H215 H 0.44631 0.7007 0.26506 0.0
Mn216 Mn 0.64537 0.36453 0.67483 0.0
Mn217 Mn 0.61023 0.33009 0.63197 0.0
C218 C 0.64781 0.32649 0.67087 0.0
C219 C 0.68044 0.38873 0.69019 0.0
C220 C 0.59277 0.34427 0.67682 0.0
O221 O 0.63368 0.38717 0.65386 0.0
O222 O 0.61128 0.36258 0.62608 0.0
C223 C 0.64107 0.34092 0.59493 0.0
N224 N 0.62884 0.32527 0.60735 0.0
C225 C 0.63976 0.29436 0.58497 0.0
C226 C 0.65232 0.31014 0.57181 0.0
C227 C 0.65306 0.33352 0.57689 0.0
C228 C 0.62826 0.30276 0.60281 0.0
H229 H 0.64168 0.3589 0.59879 0.0
C230 C 0.61992 0.38277 0.6349 0.0
O231 O 0.66051 0.38897 0.69893 0.0
O232 O 0.67942 0.37593 0.6712 0.0
N233 N 0.60702 0.29803 0.63463 0.0
C234 C 0.59451 0.28506 0.64925 0.0
C235 C 0.59202 0.26126 0.64649 0.0
C236 C 0.60206 0.25103 0.62851 0.0
C237 C 0.61456 0.26469 0.61348 0.0
C238 C 0.61631 0.28831 0.61698 0.0
H239 H 0.58652 0.2928 0.66294 0.0
O240 O 0.65512 0.3384 0.69034 0.0
O241 O 0.6397 0.33722 0.65379 0.0
O242 O 0.61233 0.35685 0.68546 0.0
O243 O 0.58988 0.33355 0.65683 0.0
C244 C 0.62565 0.25583 0.59539 0.0
C245 C 0.63836 0.27066 0.58122 0.0
H246 H 0.66157 0.3045 0.55786 0.0
H247 H 0.66282 0.3458 0.56688 0.0
H248 H 0.58235 0.25083 0.65816 0.0
H249 H 0.60017 0.23268 0.62648 0.0
H250 H 0.62476 0.23765 0.59239 0.0
H251 H 0.64704 0.26366 0.56753 0.0
Mn252 Mn 1.01712 0.23445 0.88906 0.0
Mn253 Mn 1.00602 0.25663 0.83768 0.0
C254 C 0.97867 0.22755 0.87003 0.0
C255 C 1.03051 0.20766 0.91211 0.0
C256 C 1.01133 0.28406 0.8835 0.0
O257 O 0.05038 0.24367 0.87962 0.0
O258 O 0.04062 0.2575 0.84566 0.0
C259 C 1.02021 0.22007 0.80867 0.0
N260 N 1.00388 0.23328 0.81343 0.0
C261 C 0.97804 0.2178 0.77896 0.0
C262 C 0.99457 0.20401 0.77362 0.0
C263 C 1.01567 0.20503 0.78865 0.0
C264 C 0.98326 0.23198 0.79945 0.0
H265 H 0.0366 0.22112 0.82003 0.0
C266 C 0.05593 0.25299 0.86144 0.0
O267 O 1.03137 0.22851 0.91994 0.0
O268 O 1.02164 0.20208 0.89066 0.0
N269 N 0.97368 0.25794 0.82671 0.0
C270 C 0.95996 0.27284 0.83409 0.0
C271 C 0.9388 0.27484 0.8205 0.0
C272 C 0.93227 0.26195 0.7992 0.0
C273 C 0.94663 0.24672 0.79193 0.0
C274 C 0.96757 0.24553 0.80616 0.0
H275 H 0.96534 0.28341 0.85006 0.0
O276 O 0.98253 0.22528 0.89202 0.0
O277 O 0.9975 0.23309 0.85935 0.0
O278 O 1.01509 0.26791 0.89586 0.0
O279 O 1.00755 0.28175 0.86148 0.0
C280 C 0.94124 0.23297 0.77093 0.0
C281 C 0.95675 0.21826 0.76462 0.0
H282 H 0.9913 0.19265 0.75802 0.0
H283 H 1.02852 0.19446 0.78465 0.0
H284 H 0.92779 0.28663 0.82621 0.0
H285 H 0.91625 0.264 0.78851 0.0
H286 H 0.92516 0.23351 0.75955 0.0
H287 H 0.9523 0.20763 0.74854 0.0
Mn288 Mn 0.53902 0.12836 0.32666 0.0
Mn289 Mn 0.48793 0.11925 0.35154 0.0
C290 C 0.52167 0.09179 0.33312 0.0
C291 C 0.55932 0.13318 0.29444 0.0
C292 C 0.53643 0.13801 0.37821 0.0
O293 O 0.5258 0.15741 0.32204 0.0
O294 O 0.49072 0.1485 0.33676 0.0
C295 C 0.45282 0.11398 0.30962 0.0
N296 N 0.4619 0.10546 0.32909 0.0
C297 C 0.43234 0.07125 0.32214 0.0
C298 C 0.42261 0.07971 0.30209 0.0
C299 C 0.43295 0.10113 0.29577 0.0
C300 C 0.4522 0.08478 0.33522 0.0
H301 H 0.46065 0.13044 0.30467 0.0
C302 C 0.5053 0.16145 0.32593 0.0
O303 O 0.56936 0.14128 0.3149 0.0
O304 O 0.53737 0.12248 0.29268 0.0
N305 N 0.48279 0.09104 0.36574 0.0
C306 C 0.49498 0.08483 0.38496 0.0
C307 C 0.48728 0.06356 0.39322 0.0
C308 C 0.46705 0.04898 0.38175 0.0
C309 C 0.45472 0.05578 0.36209 0.0
C310 C 0.46319 0.07719 0.35468 0.0
H311 H 0.51052 0.09593 0.39389 0.0
O312 O 0.54427 0.09648 0.33076 0.0
O313 O 0.51011 0.10861 0.33175 0.0
O314 O 0.54832 0.13701 0.36104 0.0
O315 O 0.51367 0.13274 0.3764 0.0
C316 C 0.43447 0.04208 0.34945 0.0
C317 C 0.42328 0.04982 0.3295 0.0
H318 H 0.40729 0.06985 0.29136 0.0
H319 H 0.4256 0.10775 0.28028 0.0
H320 H 0.49693 0.05842 0.40839 0.0
H321 H 0.46124 0.03254 0.38811 0.0
H322 H 0.42751 0.02543 0.35476 0.0
H323 H 0.40788 0.03901 0.31977 0.0
Mn324 Mn 0.35384 0.18182 0.54753 0.0
Mn325 Mn 0.34172 0.13798 0.50565 0.0
C326 C 0.3129 0.16154 0.53679 0.0
C327 C 0.35952 0.19866 0.58891 0.0
C328 C 0.35307 0.18789 0.49274 0.0
O329 O 0.38783 0.16972 0.54754 0.0
O330 O 0.37654 0.1417 0.51893 0.0
C331 C 0.34833 0.09978 0.53434 0.0
N332 N 0.33429 0.10961 0.5191 0.0
C333 C 0.30199 0.07777 0.51765 0.0
C334 C 0.31618 0.06726 0.53318 0.0
C335 C 0.33943 0.07834 0.54159 0.0
C336 C 0.3119 0.09905 0.51084 0.0
H337 H 0.36617 0.10821 0.54097 0.0
C338 C 0.39263 0.15277 0.5346 0.0
O339 O 0.36598 0.20994 0.57162 0.0
O340 O 0.3518 0.17729 0.58264 0.0
N341 N 0.30915 0.13179 0.49187 0.0
C342 C 0.29699 0.14511 0.47874 0.0
C343 C 0.27305 0.13699 0.46993 0.0
C344 C 0.26186 0.11527 0.47467 0.0
C345 C 0.27471 0.10187 0.48822 0.0
C346 C 0.29859 0.1108 0.49642 0.0
H347 H 0.30539 0.16189 0.47516 0.0
O348 O 0.31775 0.18259 0.54515 0.0
O349 O 0.3322 0.15336 0.53351 0.0
O350 O 0.35645 0.19657 0.51411 0.0
O351 O 0.34825 0.16622 0.48852 0.0
C352 C 0.26455 0.08027 0.49446 0.0
C353 C 0.27819 0.06822 0.50914 0.0
H354 H 0.30932 0.05081 0.53898 0.0
H355 H 0.35044 0.07039 0.55369 0.0
H356 H 0.2632 0.14749 0.4596 0.0
H357 H 0.24332 0.10916 0.46804 0.0
H358 H 0.24613 0.07296 0.48841 0.0
H359 H 0.27005 0.05181 0.51414 0.0
Mn360 Mn 0.21368 0.08517 0.86642 0.0
Mn361 Mn 0.26608 0.09624 0.90083 0.0
C362 C 0.23339 0.12201 0.87459 0.0
C363 C 0.19129 0.07593 0.83072 0.0
C364 C 0.2183 0.08252 0.91828 0.0
O365 O 0.2248 0.05477 0.86595 0.0
O366 O 0.26137 0.06466 0.88636 0.0
C367 C 0.29997 0.09443 0.86597 0.0
N368 N 0.2917 0.10623 0.88317 0.0
C369 C 0.32113 0.13949 0.88005 0.0
C370 C 0.33002 0.12766 0.86239 0.0
C371 C 0.31937 0.10504 0.85531 0.0
C372 C 0.30189 0.12797 0.89019 0.0
H373 H 0.29178 0.07708 0.86038 0.0
C374 C 0.24509 0.05037 0.87378 0.0
O375 O 0.18219 0.07137 0.84972 0.0
O376 O 0.21369 0.0854 0.83244 0.0
N377 N 0.27239 0.1267 0.91498 0.0
C378 C 0.26048 0.13628 0.9309 0.0
C379 C 0.26819 0.15918 0.93904 0.0
C380 C 0.28803 0.172 0.93073 0.0
C381 C 0.3 0.16178 0.91434 0.0
C382 C 0.29161 0.13884 0.90698 0.0
H383 H 0.2451 0.12657 0.93721 0.0
O384 O 0.21052 0.11793 0.86824 0.0
O385 O 0.24368 0.10436 0.87627 0.0
O386 O 0.20582 0.08256 0.89905 0.0
O387 O 0.24108 0.08642 0.92111 0.0
C388 C 0.31959 0.1736 0.90464 0.0
C389 C 0.3302 0.16244 0.88757 0.0
H390 H 0.34484 0.13585 0.85397 0.0
H391 H 0.32606 0.09584 0.84161 0.0
H392 H 0.25878 0.16699 0.9516 0.0
H393 H 0.29379 0.18972 0.9369 0.0
H394 H 0.32644 0.19137 0.90995 0.0
H395 H 0.34506 0.17179 0.88004 0.0
Mn396 Mn 0.33892 0.90671 0.04982 0.0
Mn397 Mn 0.34454 0.95058 1.01558 0.0
C398 C 0.37659 0.92571 0.04377 0.0
C399 C 0.33553 0.89388 0.0873 0.0
C400 C 0.32998 0.90114 0.9964 0.0
O401 O 0.30599 0.91626 0.04821 0.0
O402 O 0.31301 0.94684 0.0274 0.0
C403 C 0.34483 0.98873 0.05041 0.0
N404 N 0.35557 0.97872 0.03379 0.0
C405 C 0.3878 1.01074 0.0368 0.0
C406 C 0.37705 0.02144 0.05389 0.0
C407 C 0.35553 1.01033 0.06079 0.0
C408 C 0.37639 0.98916 0.02718 0.0
H409 H 0.32821 0.98031 0.05564 0.0
C410 C 0.2997 0.93358 0.03909 0.0
O411 O 0.32837 0.88031 0.06871 0.0
O412 O 0.34414 0.91473 0.08404 0.0
N413 N 0.37457 0.95619 1.00331 0.0
C414 C 0.38336 0.94294 0.98768 0.0
C415 C 0.40532 0.95115 0.97972 0.0
C416 C 0.41784 0.97298 0.98767 0.0
C417 C 0.40832 0.98637 1.00359 0.0
C418 C 0.38644 0.97723 1.01101 0.0
H419 H 0.37373 0.92622 0.98138 0.0
O420 O 0.37393 0.9052 0.0504 0.0
O421 O 0.35723 0.93417 0.04063 0.0
O422 O 0.33191 0.89203 1.01574 0.0
O423 O 0.33355 0.92263 0.99498 0.0
C424 C 0.41977 1.00834 1.01253 0.0
C425 C 0.40951 0.02053 0.02912 0.0
H426 H 0.38523 0.03812 0.06192 0.0
H427 H 0.34716 1.01844 0.07402 0.0
H428 H 0.41255 0.9407 0.96744 0.0
H429 H 0.43479 0.97925 0.98151 0.0
H430 H 0.43667 1.0159 1.00704 0.0
H431 H 0.41868 0.03727 0.03613 0.0
Mn432 Mn 0.32228 0.41982 0.05582 0.0
Mn433 Mn 0.32842 0.46303 0.01961 0.0
C434 C 0.36196 0.44065 0.05024 0.0
C435 C 0.31893 0.40282 0.09454 0.0
C436 C 0.31854 0.41265 1.00044 0.0
O437 O 0.28725 0.4304 0.05278 0.0
O438 O 0.2955 0.45925 0.0302 0.0
C439 C 0.32659 0.50088 0.05421 0.0
N440 N 0.33768 0.49171 0.03735 0.0
C441 C 0.36876 0.52478 0.04081 0.0
C442 C 0.3573 0.53481 0.05776 0.0
C443 C 0.33622 0.52273 0.06461 0.0
C444 C 0.35826 0.50298 0.03099 0.0
H445 H 0.31065 0.49152 0.05986 0.0
C446 C 0.28101 0.44768 0.04238 0.0
O447 O 0.31219 0.39161 0.07459 0.0
O448 O 0.32631 0.42428 0.0923 0.0
N449 N 0.35883 0.46989 1.0081 0.0
C450 C 0.36875 0.45716 0.99289 0.0
C451 C 0.39052 0.46638 0.98513 0.0
C452 C 0.40178 0.48866 0.99286 0.0
C453 C 0.39114 0.50155 1.00826 0.0
C454 C 0.36933 0.49152 1.0153 0.0
H455 H 0.36025 0.44004 0.98678 0.0
O456 O 0.35872 0.42037 0.05745 0.0
O457 O 0.34194 0.44826 0.04635 0.0
O458 O 0.31828 0.40454 0.0206 0.0
O459 O 0.32002 0.43411 0.99866 0.0
C460 C 0.40163 0.52375 1.01738 0.0
C461 C 0.3905 0.53532 0.03371 0.0
H462 H 0.36475 0.55161 0.06592 0.0
H463 H 0.32748 0.53021 0.07795 0.0
H464 H 0.39864 0.4563 0.97326 0.0
H465 H 0.41871 0.49561 0.98703 0.0
H466 H 0.41853 0.53188 1.01233 0.0
H467 H 0.399 0.55219 0.04096 0.0
Mn468 Mn 0.80327 0.22039 0.04019 0.0
Mn469 Mn 0.78895 0.1759 0.99944 0.0
C470 C 0.76434 0.19991 0.0329 0.0
C471 C 0.81626 0.23456 0.07921 0.0
C472 C 0.79481 0.22478 0.98721 0.0
O473 O 0.83602 0.21263 0.03566 0.0
O474 O 0.82394 0.18464 1.00716 0.0
C475 C 0.80598 0.14209 0.02911 0.0
N476 N 0.78824 0.14864 1.01506 0.0
C477 C 0.76172 0.11337 1.018 0.0
C478 C 0.77974 0.10622 0.03242 0.0
C479 C 0.80192 0.1207 0.0381 0.0
C480 C 0.76668 0.13502 1.00987 0.0
H481 H 0.82311 0.15308 0.03341 0.0
C482 C 0.84022 0.19782 0.02068 0.0
O483 O 0.8183 0.24768 0.06229 0.0
O484 O 0.80713 0.21341 0.07342 0.0
N485 N 0.7557 0.16485 0.98993 0.0
C486 C 0.74025 0.17418 0.97567 0.0
C487 C 0.71735 0.16174 0.96806 0.0
C488 C 0.71069 0.13966 0.97489 0.0
C489 C 0.72702 0.13023 0.98921 0.0
C490 C 0.74958 0.14345 0.99624 0.0
H491 H 0.74528 0.19104 0.97034 0.0
O492 O 0.76831 0.22057 0.0424 0.0
O493 O 0.78303 0.19199 0.02783 0.0
O494 O 0.80148 0.23395 1.00788 0.0
O495 O 0.78882 0.2033 0.98235 0.0
C496 C 0.72183 0.10818 0.99671 0.0
C497 C 0.73907 0.09984 1.0113 0.0
H498 H 0.77673 0.08966 0.03923 0.0
H499 H 0.8159 0.11533 0.04925 0.0
H500 H 0.70488 0.16915 0.95697 0.0
H501 H 0.69299 0.13014 0.96906 0.0
H502 H 0.70454 0.09756 0.99153 0.0
H503 H 0.73475 0.08298 1.01721 0.0
Mn504 Mn 0.14616 0.50198 0.25049 0.0
Mn505 Mn 0.19241 0.53105 0.28745 0.0
C506 C 0.16224 0.53886 0.24452 0.0
C507 C 0.12998 0.47804 0.21771 0.0
C508 C 0.1411 0.52693 0.29679 0.0
O509 O 0.15802 0.47661 0.26736 0.0
O510 O 0.18699 0.49818 0.29211 0.0
C511 C 0.22997 0.5103 0.26741 0.0
N512 N 0.22122 0.52915 0.27409 0.0
C513 C 0.25602 0.55385 0.26451 0.0
C514 C 0.26546 0.53471 0.25761 0.0
C515 C 0.25231 0.51284 0.25895 0.0
C516 C 0.23349 0.55026 0.27242 0.0
H517 H 0.22005 0.49345 0.26856 0.0
C518 C 0.1746 0.47897 0.28413 0.0
O519 O 0.11772 0.48069 0.23486 0.0
O520 O 0.15217 0.48819 0.22027 0.0
N521 N 0.2008 0.5632 0.28575 0.0
C522 C 0.18968 0.57988 0.29407 0.0
C523 C 0.20079 0.60274 0.29458 0.0
C524 C 0.22349 0.60821 0.28712 0.0
C525 C 0.23486 0.59076 0.27917 0.0
C526 C 0.22291 0.56828 0.27906 0.0
H527 H 0.17246 0.5758 0.30031 0.0
O528 O 0.1408 0.52983 0.23548 0.0
O529 O 0.1743 0.52591 0.25636 0.0
O530 O 0.13222 0.51344 0.27907 0.0
O531 O 0.16344 0.53439 0.30172 0.0
C532 C 0.25772 0.59477 0.2716 0.0
C533 C 0.26818 0.57634 0.26404 0.0
H534 H 0.28279 0.5366 0.25129 0.0
H535 H 0.25946 0.49797 0.25365 0.0
H536 H 0.19197 0.6161 0.3009 0.0
H537 H 0.23207 0.62586 0.28772 0.0
H538 H 0.2674 0.61197 0.2715 0.0
H539 H 0.28569 0.57965 0.25814 0.0
Mn540 Mn 0.8259 0.92109 0.55462 0.0
Mn541 Mn 0.83159 0.96365 0.51756 0.0
C542 C 0.86543 0.94184 0.54873 0.0
C543 C 0.82205 0.9044 0.59346 0.0
C544 C 0.82243 0.91323 0.49913 0.0
O545 O 0.7911 0.93172 0.55167 0.0
O546 O 0.79817 0.95899 0.52704 0.0
C547 C 0.82728 1.00171 0.5509 0.0
N548 N 0.83967 0.99246 0.53519 0.0
C549 C 0.87044 0.02583 0.53979 0.0
C550 C 0.8579 0.03577 0.55585 0.0
C551 C 0.83627 0.02362 0.56149 0.0
C552 C 0.86061 1.00393 0.5298 0.0
H553 H 0.81069 0.99247 0.55538 0.0
C554 C 0.78418 0.94791 0.53999 0.0
O555 O 0.81559 0.89306 0.57355 0.0
O556 O 0.82969 0.92581 0.5911 0.0
N557 N 0.8623 0.97121 0.5068 0.0
C558 C 0.8727 0.95895 0.49159 0.0
C559 C 0.89465 0.96859 0.48445 0.0
C560 C 0.90558 0.9908 0.4928 0.0
C561 C 0.89439 1.00323 0.50813 0.0
C562 C 0.87243 0.9928 0.51453 0.0
H563 H 0.86442 0.9419 0.48499 0.0
O564 O 0.86228 0.92168 0.55625 0.0
O565 O 0.84535 0.94941 0.54474 0.0
O566 O 0.82183 0.90545 0.51945 0.0
O567 O 0.8243 0.93462 0.49694 0.0
C568 C 0.90438 0.02542 0.51765 0.0
C569 C 0.89246 0.03667 0.53353 0.0
H570 H 0.86479 0.05265 0.56409 0.0
H571 H 0.82655 0.03113 0.57398 0.0
H572 H 0.90316 0.95889 0.47259 0.0
H573 H 0.92264 0.99809 0.48745 0.0
H574 H 0.9214 0.03386 0.51312 0.0
H575 H 0.90048 0.05361 0.54096 0.0
Mn576 Mn 0.93921 1.01244 0.23998 0.0
Mn577 Mn 0.88991 0.98468 0.26029 0.0
C578 C 0.92647 0.97458 0.22793 0.0
C579 C 0.95606 0.03715 0.2147 0.0
C580 C 0.93897 0.99484 0.28779 0.0
O581 O 0.92488 0.03755 0.25473 0.0
O582 O 0.88988 1.01772 0.26195 0.0
C583 C 0.85382 0.99397 0.22361 0.0
N584 N 0.86335 0.979 0.23679 0.0
C585 C 0.83171 0.94829 0.22153 0.0
C586 C 0.82148 0.96335 0.20778 0.0
C587 C 0.83269 0.98625 0.20869 0.0
C588 C 0.85306 0.95686 0.23563 0.0
H589 H 0.86224 1.01165 0.22461 0.0
C590 C 0.90413 0.03642 0.261 0.0
O591 O 0.96741 0.03492 0.23463 0.0
O592 O 0.93481 0.02509 0.20947 0.0
N593 N 0.8861 0.95238 0.26066 0.0
C594 C 0.89836 0.94009 0.27498 0.0
C595 C 0.88884 0.91724 0.27727 0.0
C596 C 0.86681 0.90721 0.26486 0.0
C597 C 0.85465 0.92004 0.24999 0.0
C598 C 0.86471 0.94291 0.24887 0.0
H599 H 0.91494 0.94783 0.28512 0.0
O600 O 0.94775 0.98485 0.22518 0.0
O601 O 0.91235 0.98718 0.23643 0.0
O602 O 0.95049 1.00313 0.27177 0.0
O603 O 0.91625 0.98915 0.28573 0.0
C604 C 0.83287 0.9111 0.23636 0.0
C605 C 0.82157 0.92514 0.22189 0.0
H606 H 0.80503 0.95752 0.19646 0.0
H607 H 0.82491 0.99798 0.19813 0.0
H608 H 0.89829 0.90745 0.28884 0.0
H609 H 0.85938 0.88968 0.2669 0.0
H610 H 0.82477 0.8934 0.23671 0.0
H611 H 0.80498 0.91802 0.21128 0.0
Mn612 Mn 0.30546 0.72611 0.53691 0.0
Mn613 Mn 0.2923 0.68315 0.4943 0.0
C614 C 0.26737 0.70358 0.53002 0.0
C615 C 0.31815 0.73942 0.57634 0.0
C616 C 0.29667 0.73278 0.48436 0.0
O617 O 0.33864 0.71978 0.53145 0.0
O618 O 0.32729 0.69189 0.50259 0.0
C619 C 0.30958 0.64726 0.52077 0.0
N620 N 0.29175 0.65469 0.50767 0.0
C621 C 0.2653 0.61889 0.50826 0.0
C622 C 0.28342 0.61082 0.52167 0.0
C623 C 0.30562 0.6251 0.52801 0.0
C624 C 0.27028 0.64112 0.50157 0.0
H625 H 0.3267 0.65813 0.52566 0.0
C626 C 0.34328 0.70505 0.51654 0.0
O627 O 0.31905 0.75313 0.55987 0.0
O628 O 0.31049 0.71812 0.56984 0.0
N629 N 0.25896 0.67255 0.48484 0.0
C630 C 0.24279 0.68349 0.47347 0.0
C631 C 0.2195 0.67174 0.46629 0.0
C632 C 0.21309 0.64887 0.47085 0.0
C633 C 0.22997 0.638 0.48275 0.0
C634 C 0.25297 0.65052 0.48929 0.0
H635 H 0.24755 0.7011 0.4702 0.0
O636 O 0.27024 0.72403 0.53991 0.0
O637 O 0.2865 0.69733 0.52379 0.0
O638 O 0.30248 0.74117 0.50539 0.0
O639 O 0.29192 0.71143 0.47867 0.0
C640 C 0.22473 0.6154 0.48882 0.0
C641 C 0.24236 0.60588 0.50164 0.0
H642 H 0.28042 0.59377 0.52734 0.0
H643 H 0.31967 0.61903 0.53843 0.0
H644 H 0.2065 0.68033 0.45736 0.0
H645 H 0.19508 0.6399 0.46541 0.0
H646 H 0.20707 0.60534 0.48409 0.0
H647 H 0.23798 0.58863 0.50656 0.0
Mn648 Mn 0.43746 0.52308 0.73039 0.0
Mn649 Mn 0.40188 0.50168 0.76945 0.0
C650 C 0.43276 0.485 0.73602 0.0
C651 C 0.44452 0.53461 0.69447 0.0
C652 C 0.45141 0.52943 0.78248 0.0
O653 O 0.41744 0.54731 0.73545 0.0
O654 O 0.39289 0.53047 0.7596 0.0
C655 C 0.35584 0.49079 0.73927 0.0
N656 N 0.37278 0.48414 0.7542 0.0
C657 C 0.34928 0.44669 0.75391 0.0
C658 C 0.33153 0.45315 0.73857 0.0
C659 C 0.33489 0.47526 0.73113 0.0
C660 C 0.36987 0.46283 0.76123 0.0
H661 H 0.35829 0.50783 0.73367 0.0
C662 C 0.39979 0.54671 0.74719 0.0
O663 O 0.45823 0.54346 0.71297 0.0
O664 O 0.42618 0.51905 0.69666 0.0
N665 N 0.40822 0.47364 0.78054 0.0
C666 C 0.42757 0.46979 0.79444 0.0
C667 C 0.42711 0.44852 0.80346 0.0
C668 C 0.40669 0.43154 0.79833 0.0
C669 C 0.38709 0.43579 0.78381 0.0
C670 C 0.38852 0.45737 0.77545 0.0
H671 H 0.44312 0.48294 0.79882 0.0
O672 O 0.4515 0.49488 0.72735 0.0
O673 O 0.41738 0.49764 0.74115 0.0
O674 O 0.45608 0.53176 0.76191 0.0
O675 O 0.43142 0.51897 0.78742 0.0
C676 C 0.36626 0.41946 0.77718 0.0
C677 C 0.34745 0.42483 0.76208 0.0
H678 H 0.31532 0.44126 0.73232 0.0
H679 H 0.3213 0.48036 0.71925 0.0
H680 H 0.44234 0.4453 0.81457 0.0
H681 H 0.40628 0.41527 0.8056 0.0
H682 H 0.36466 0.4026 0.78332 0.0
H683 H 0.33171 0.41201 0.75678 0.0
Mn684 Mn 0.65035 0.9873 0.74647 0.0
Mn685 Mn 0.69052 0.0204 0.78624 0.0
C686 C 0.66193 0.02556 0.74205 0.0
C687 C 0.6379 0.96482 0.71199 0.0
C688 C 0.63871 1.0087 0.79223 0.0
O689 O 0.66519 0.96334 0.76338 0.0
O690 O 0.68724 0.98768 0.7915 0.0
C691 C 0.73235 1.00333 0.77051 0.0
N692 N 0.72116 0.02105 0.77563 0.0
C693 C 0.75497 0.04821 0.76783 0.0
C694 C 0.76688 0.03027 0.76254 0.0
C695 C 0.75547 1.00772 0.76378 0.0
C696 C 0.7318 0.04277 0.77405 0.0
H697 H 0.72377 0.98598 0.77158 0.0
C698 C 0.67856 0.96755 0.7826 0.0
O699 O 0.62479 0.96411 0.72889 0.0
O700 O 0.65929 0.97681 0.71609 0.0
N701 N 0.69638 0.05264 0.78422 0.0
C702 C 0.68293 0.06804 0.79097 0.0
C703 C 0.69206 0.0914 0.79142 0.0
C704 C 0.71515 0.0987 0.7855 0.0
C705 C 0.72892 0.08257 0.77918 0.0
C706 C 0.71887 0.05951 0.77906 0.0
H707 H 0.66533 0.06255 0.7959 0.0
O708 O 0.64152 1.01456 0.73228 0.0
O709 O 0.67538 1.014 0.75415 0.0
O710 O 0.63348 0.99424 0.7747 0.0
O711 O 0.6594 0.02087 0.79768 0.0
C712 C 0.75234 0.08845 0.77329 0.0
C713 C 0.76526 0.07129 0.76737 0.0
H714 H 0.7848 0.0336 0.75755 0.0
H715 H 0.76452 0.99377 0.7597 0.0
H716 H 0.68138 0.10375 0.79646 0.0
H717 H 0.72218 0.11674 0.78599 0.0
H718 H 0.7606 0.10614 0.77325 0.0
H719 H 0.7832 0.07603 0.76275 0.0
Mn720 Mn 0.84888 0.6801 0.0453 0.0
Mn721 Mn 0.83737 0.63611 1.00377 0.0
C722 C 0.80813 0.65914 0.03478 0.0
C723 C 0.85474 0.69704 0.08651 0.0
C724 C 0.8479 0.68606 0.99046 0.0
O725 O 0.88322 0.6686 0.04523 0.0
O726 O 0.8722 0.64 1.01721 0.0
C727 C 0.84399 0.59845 0.03323 0.0
N728 N 0.82988 0.60807 1.01786 0.0
C729 C 0.79696 0.57717 1.01839 0.0
C730 C 0.81121 0.56688 0.03408 0.0
C731 C 0.83482 0.57758 0.04154 0.0
C732 C 0.80712 0.59789 1.01056 0.0
H733 H 0.8621 0.60662 0.03919 0.0
C734 C 0.8882 0.65143 0.03276 0.0
O735 O 0.86027 0.70844 0.06902 0.0
O736 O 0.84776 0.67552 0.08051 0.0
N737 N 0.80477 0.62974 0.98999 0.0
C738 C 0.79289 0.64244 0.97581 0.0
C739 C 0.76887 0.63432 0.96725 0.0
C740 C 0.7573 0.61327 0.97336 0.0
C741 C 0.76988 0.60046 0.98791 0.0
C742 C 0.79388 0.6093 0.99571 0.0
H743 H 0.80156 0.65872 0.97115 0.0
O744 O 0.81257 0.68014 0.04324 0.0
O745 O 0.82769 0.65145 0.03147 0.0
O746 O 0.85073 0.69473 1.0118 0.0
O747 O 0.84388 0.66434 0.98628 0.0
C748 C 0.75939 0.5795 0.99534 0.0
C749 C 0.77292 0.56787 1.01058 0.0
H750 H 0.80416 0.55086 0.04066 0.0
H751 H 0.8459 0.56981 0.05374 0.0
H752 H 0.75925 0.64435 0.9561 0.0
H753 H 0.73869 0.6072 0.96695 0.0
H754 H 0.74084 0.57233 0.98969 0.0
H755 H 0.76458 0.5519 1.01639 0.0
Mn756 Mn 1.02064 0.5999 0.84919 0.0
Mn757 Mn 0.9775 0.59194 0.88433 0.0
C758 C 1.01249 0.56611 0.86652 0.0
C759 C 0.03298 0.5967 0.81288 0.0
C760 C 1.02536 0.62314 0.89756 0.0
O761 O 1.00026 0.62328 0.84005 0.0
O762 O 0.97022 0.61432 0.86204 0.0
C763 C 0.93621 0.57056 0.85067 0.0
N764 N 0.95135 0.56947 0.87005 0.0
C765 C 0.93204 0.53126 0.87468 0.0
C766 C 0.9162 0.53204 0.85483 0.0
C767 C 0.91829 0.55178 0.8428 0.0
C768 C 0.94937 0.55061 0.88188 0.0
H769 H 0.93786 0.58559 0.84119 0.0
C770 C 0.97973 0.62511 0.84598 0.0
O771 O 0.04505 0.61142 0.82891 0.0
O772 O 1.01338 0.58452 0.81777 0.0
N773 N 0.98286 0.56972 0.90572 0.0
C774 C 1.0006 0.57106 0.92353 0.0
C775 C 1.00152 0.55241 0.93688 0.0
C776 C 0.98429 0.53253 0.93173 0.0
C777 C 0.96624 0.53151 0.91329 0.0
C778 C 0.96606 0.55074 0.90075 0.0
H779 H 1.01408 0.58616 0.92741 0.0
O780 O 0.03346 0.57258 0.86001 0.0
O781 O 0.99789 0.58027 0.86365 0.0
O782 O 0.03432 0.61848 0.8792 0.0
O783 O 1.00397 0.61483 0.9009 0.0
C784 C 0.94881 0.51195 0.90649 0.0
C785 C 0.93172 0.51183 0.88721 0.0
H786 H 0.90253 0.51749 0.84855 0.0
H787 H 0.90621 0.55247 0.8274 0.0
H788 H 1.01559 0.55328 0.95099 0.0
H789 H 0.98525 0.51807 0.94188 0.0
H790 H 0.9486 0.49679 0.91578 0.0
H791 H 0.91863 0.49657 0.88196 0.0
Mn792 Mn 0.85505 0.39487 0.55541 0.0
Mn793 Mn 0.86333 0.44111 0.5244 0.0
C794 C 0.89349 0.41333 0.55123 0.0
C795 C 0.8502 0.37934 0.59145 0.0
C796 C 0.84745 0.39296 0.50192 0.0
O797 O 0.82264 0.40546 0.55409 0.0
O798 O 0.83125 0.43707 0.53501 0.0
C799 C 0.86361 0.47689 0.56179 0.0
N800 N 0.87448 0.46798 0.54461 0.0
C801 C 0.90739 0.49948 0.55039 0.0
C802 C 0.89652 0.50905 0.5681 0.0
C803 C 0.87459 0.49766 0.57389 0.0
C804 C 0.89567 0.47869 0.53904 0.0
H805 H 0.8467 0.46822 0.5662 0.0
C806 C 0.81714 0.42331 0.54548 0.0
O807 O 0.84281 0.36728 0.57197 0.0
O808 O 0.85979 0.40034 0.58997 0.0
N809 N 0.89381 0.4472 0.51308 0.0
C810 C 0.9025 0.43505 0.49644 0.0
C811 C 0.92446 0.44392 0.48884 0.0
C812 C 0.9371 0.46526 0.49824 0.0
C813 C 0.92783 0.47741 0.51539 0.0
C814 C 0.90582 0.46777 0.52219 0.0
H815 H 0.89269 0.41879 0.48893 0.0
O816 O 0.8898 0.39226 0.55623 0.0
O817 O 0.87464 0.42266 0.54839 0.0
O818 O 0.84824 0.38256 0.52055 0.0
O819 O 0.85227 0.41458 0.5019 0.0
C820 C 0.93967 0.49862 0.52616 0.0
C821 C 0.92953 0.50957 0.54375 0.0
H822 H 0.90492 0.52506 0.57747 0.0
H823 H 0.86613 0.5049 0.58759 0.0
H824 H 0.93153 0.43442 0.47564 0.0
H825 H 0.95393 0.47212 0.49218 0.0
H826 H 0.95675 0.5065 0.52129 0.0
H827 H 0.939 0.52567 0.55218 0.0
Mn828 Mn 0.7266 0.58584 0.36577 0.0
Mn829 Mn 0.77056 0.599 0.40993 0.0
C830 C 0.74001 0.62316 0.37886 0.0
C831 C 0.71375 0.57795 0.32681 0.0
C832 C 0.7198 0.57739 0.41547 0.0
O833 O 0.74159 0.55783 0.36687 0.0
O834 O 0.77309 0.56908 0.39422 0.0
C835 C 0.81333 0.60497 0.38482 0.0
N836 N 0.7994 0.6137 0.39936 0.0
C837 C 0.82541 0.65018 0.40339 0.0
C838 C 0.84007 0.64155 0.38852 0.0
C839 C 0.83401 0.61884 0.37923 0.0
C840 C 0.80523 0.63544 0.40865 0.0
H841 H 0.80864 0.58759 0.37745 0.0
C842 C 0.76087 0.55475 0.37831 0.0
O843 O 0.7005 0.57041 0.34244 0.0
O844 O 0.73471 0.58991 0.33386 0.0
N845 N 0.76985 0.62793 0.42551 0.0
C846 C 0.75277 0.63415 0.43792 0.0
C847 C 0.75555 0.65665 0.44755 0.0
C848 C 0.77579 0.67252 0.44424 0.0
C849 C 0.79309 0.66575 0.43133 0.0
C850 C 0.78949 0.64303 0.42236 0.0
H851 H 0.73702 0.62211 0.44027 0.0
O852 O 0.71867 0.61695 0.36794 0.0
O853 O 0.75236 0.60707 0.38221 0.0
O854 O 0.71145 0.57824 0.3946 0.0
O855 O 0.74174 0.5843 0.42315 0.0
C856 C 0.81345 0.68079 0.42652 0.0
C857 C 0.82963 0.673 0.4126 0.0
H858 H 0.85586 0.65228 0.38392 0.0
H859 H 0.84516 0.6121 0.36765 0.0
H860 H 0.74204 0.66179 0.45736 0.0
H861 H 0.77773 0.68993 0.45148 0.0
H862 H 0.81667 0.69847 0.43317 0.0
H863 H 0.84502 0.68481 0.40874 0.0
Tb864 Tb 0.03912 0.05031 0.03041 0.0
Eu865 Eu 0.08951 0.06819 0.0641 0.0
C866 C 0.08854 0.04348 1.01569 0.0
C867 C 0.05962 1.01725 0.06221 0.0
C868 C 0.98197 0.05901 1.00547 0.0
C869 C 0.96045 0.08562 0.98614 0.0
C870 C 0.97369 0.06801 0.98514 0.0
C871 C 0.97614 0.06745 0.02676 0.0
C872 C 0.96292 0.08496 0.02778 0.0
C873 C 0.95535 0.0946 1.00755 0.0
C874 C 1.00013 0.04423 1.00498 0.0
O875 O 1.03002 0.05715 0.06519 0.0
O876 O 0.06254 0.08311 0.08255 0.0
O877 O 0.08533 0.09327 0.03686 0.0
O878 O 0.04534 0.08679 0.03648 0.0
C879 C 0.04015 0.07288 0.08174 0.0
O880 O 0.11355 0.06692 0.09557 0.0
O881 O 0.12634 0.08645 0.06799 0.0
O882 O 0.09513 0.04196 0.0375 0.0
O883 O 0.06857 0.05064 1.00934 0.0
O884 O 0.0496 1.01898 0.04121 0.0
O885 O 0.07078 0.03521 0.07551 0.0
C886 C 0.06459 0.09896 0.03059 0.0
O887 O 1.02024 0.054 0.99842 0.0
O888 O 1.00364 0.03293 0.02315 0.0
C889 C 0.15129 0.0623 0.08462 0.0
C890 C 0.18078 0.02948 0.07798 0.0
C891 C 0.17149 0.03231 0.09915 0.0
C892 C 0.15685 0.04854 0.10242 0.0
C893 C 0.16175 0.06028 0.06397 0.0
C894 C 0.17626 0.04408 0.06071 0.0
C895 C 0.13229 0.07626 0.08633 0.0
H896 H 0.95503 0.09278 0.97026 0.0
H897 H 0.97841 0.06214 0.96859 0.0
H898 H 0.98259 0.06116 0.04279 0.0
H899 H 0.95894 0.09118 0.04449 0.0
H900 H 0.17469 0.02135 0.11282 0.0
H901 H 0.14905 0.04966 0.1185 0.0
H902 H 0.15801 0.07057 0.04985 0.0
H903 H 0.18363 0.0427 0.04442 0.0
Tb904 Tb 0.33511 0.84778 0.30524 0.0
Eu905 Eu 0.29723 0.80426 0.27729 0.0
C906 C 0.28361 0.85281 0.28934 0.0
C907 C 0.30567 0.8102 0.33388 0.0
C908 C 0.3861 0.89727 0.3218 0.0
C909 C 0.40404 0.92695 0.29917 0.0
C910 C 0.38625 0.90825 0.30121 0.0
C911 C 0.4047 0.90431 0.3397 0.0
C912 C 0.42256 0.92291 0.33763 0.0
C913 C 0.42199 0.93486 0.31763 0.0
C914 C 0.36565 0.88014 0.32603 0.0
O915 O 0.35421 0.82175 0.29293 0.0
O916 O 0.32699 0.78958 0.29494 0.0
O917 O 0.32134 0.81957 0.25185 0.0
O918 O 0.33235 0.85589 0.26886 0.0
C919 C 0.34914 0.80026 0.29726 0.0
O920 O 0.28957 0.77674 0.25009 0.0
O921 O 0.26063 0.78617 0.26792 0.0
O922 O 0.28274 0.83642 0.27327 0.0
O923 O 0.2999 0.85607 0.30724 0.0
O924 O 0.32323 0.82753 0.33328 0.0
O925 O 0.29221 0.80018 0.31503 0.0
C926 C 0.32898 0.84135 0.2504 0.0
O927 O 0.34477 0.88238 0.31618 0.0
O928 O 0.36846 0.85899 0.32516 0.0
C929 C 0.25503 0.74892 0.24961 0.0
C930 C 0.23399 0.70271 0.24225 0.0
C931 C 0.25104 0.71051 0.26151 0.0
C932 C 0.26153 0.7335 0.26515 0.0
C933 C 0.23786 0.74132 0.23062 0.0
C934 C 0.2274 0.71841 0.22694 0.0
C935 C 0.2667 0.77276 0.25192 0.0
H936 H 0.40335 0.93566 0.28343 0.0
H937 H 0.37213 0.90297 0.28709 0.0
H938 H 0.40484 0.89603 0.35573 0.0
H939 H 0.43602 0.92869 0.35221 0.0
H940 H 0.2562 0.69887 0.2738 0.0
H941 H 0.27483 0.73919 0.27989 0.0
H942 H 0.23282 0.75309 0.21838 0.0
H943 H 0.21454 0.71292 0.21183 0.0
Tb944 Tb 0.57796 0.03595 0.52328 0.0
Eu945 Eu 0.60247 0.06726 0.56869 0.0
C946 C 0.57809 1.01644 0.57222 0.0
C947 C 0.5488 0.07443 0.54674 0.0
C948 C 0.55649 0.99076 0.47512 0.0
C949 C 0.56445 0.95224 0.47423 0.0
C950 C 0.56433 0.97296 0.48652 0.0
C951 C 0.54929 0.98785 0.4513 0.0
C952 C 0.54956 0.96721 0.43895 0.0
C953 C 0.55696 0.9491 0.45031 0.0
C954 C 0.556 1.01259 0.48763 0.0
O955 O 0.60048 0.06457 0.51094 0.0
O956 O 0.60081 0.0911 0.54049 0.0
O957 O 0.63015 0.04381 0.56016 0.0
O958 O 0.61234 0.02244 0.52701 0.0
C959 C 0.60228 0.08578 0.51873 0.0
O960 O 0.63546 0.08783 0.58541 0.0
O961 O 0.6048 0.08092 0.60467 0.0
O962 O 0.58001 0.03721 0.58141 0.0
O963 O 0.58016 1.01245 0.55027 0.0
O964 O 0.54982 0.05709 0.53149 0.0
O965 O 0.56728 0.08156 0.56272 0.0
C966 C 0.63079 0.02776 0.54345 0.0
O967 O 0.54862 1.01182 0.50805 0.0
O968 O 0.57485 0.02818 0.48742 0.0
C969 C 0.63136 0.11601 0.6142 0.0
C970 C 0.64216 0.16124 0.63372 0.0
C971 C 0.6443 0.15627 0.61028 0.0
C972 C 0.63882 0.13386 0.60056 0.0
C973 C 0.62927 0.12095 0.63763 0.0
C974 C 0.63449 0.14341 0.64731 0.0
C975 C 0.62646 0.09218 0.60452 0.0
H976 H 0.56994 0.93855 0.48358 0.0
H977 H 0.57013 0.97501 0.50493 0.0
H978 H 0.54343 1.00156 0.44223 0.0
H979 H 0.54404 0.96547 0.42051 0.0
H980 H 0.6498 0.16977 0.59937 0.0
H981 H 0.64047 0.13055 0.58239 0.0
H982 H 0.62366 0.1074 0.64846 0.0
H983 H 0.63276 0.14685 0.66544 0.0
Tb984 Tb 0.31801 0.3046 0.78822 0.0
Eu985 Eu 0.36837 0.29412 0.80952 0.0
C986 C 0.36535 0.33553 0.77901 0.0
C987 C 0.34757 0.27681 0.75505 0.0
C988 C 0.25546 0.31032 0.78497 0.0
C989 C 0.21385 0.29346 0.78517 0.0
C990 C 0.23375 0.29876 0.77327 0.0
C991 C 0.2568 0.31739 0.80857 0.0
C992 C 0.23679 0.31235 0.82041 0.0
C993 C 0.21536 0.29982 0.80893 0.0
C994 C 0.27719 0.31143 0.77346 0.0
O995 O 0.30906 0.28019 0.81339 0.0
O996 O 0.34187 0.26328 0.81403 0.0
O997 O 0.35328 0.30851 0.84168 0.0
O998 O 0.32516 0.32577 0.82243 0.0
C999 C 0.32007 0.26344 0.81868 0.0
O1000 O 0.39275 0.27024 0.81568 0.0
O1001 O 0.40388 0.30556 0.82832 0.0
O1002 O 0.37555 0.3292 0.79798 0.0
O1003 O 0.34387 0.32558 0.77017 0.0
O1004 O 0.32641 0.27974 0.76105 0.0
O1005 O 0.36682 0.28425 0.77006 0.0
C1006 C 0.33767 0.32258 0.8422 0.0
O1007 O 0.29502 0.32783 0.78095 0.0
O1008 O 0.28411 0.2919 0.77067 0.0
C1009 C 0.43202 0.28789 0.8113 0.0
C1010 C 0.47029 0.29802 0.78479 0.0
C1011 C 0.47256 0.30655 0.80805 0.0
C1012 C 0.45356 0.30146 0.82123 0.0
C1013 C 0.43014 0.2786 0.78834 0.0
C1014 C 0.44913 0.28354 0.77526 0.0
C1015 C 0.4107 0.28627 0.82362 0.0
H1016 H 0.19738 0.28403 0.77592 0.0
H1017 H 0.23248 0.29292 0.75517 0.0
H1018 H 0.27352 0.32595 0.81808 0.0
H1019 H 0.23835 0.31736 0.83874 0.0
H1020 H 0.4888 0.31761 0.81585 0.0
H1021 H 0.4553 0.30894 0.83884 0.0
H1022 H 0.41362 0.26835 0.78007 0.0
H1023 H 0.44675 0.27696 0.7573 0.0
Tb1024 Tb 0.09069 0.03995 0.52075 0.0
Eu1025 Eu 0.08802 0.06636 0.56791 0.0
C1026 C 0.1386 0.07267 0.54429 0.0
C1027 C 0.09021 1.01046 0.5667 0.0
C1028 C 0.07731 1.00224 0.46605 0.0
C1029 C 0.06634 0.98705 0.42632 0.0
C1030 C 0.0834 0.99863 0.44371 0.0
C1031 C 0.0548 0.99214 0.47151 0.0
C1032 C 0.03767 0.98049 0.4541 0.0
C1033 C 0.04288 0.97901 0.43106 0.0
C1034 C 0.09231 0.02035 0.48157 0.0
O1035 O 0.05168 0.02959 0.52443 0.0
O1036 O 0.04983 0.04604 0.56046 0.0
O1037 O 0.0812 0.09391 0.54294 0.0
O1038 O 0.09137 0.07631 0.51069 0.0
C1039 C 0.03944 0.03255 0.54219 0.0
O1040 O 0.06969 0.08371 0.59286 0.0
O1041 O 0.10722 0.08154 0.60055 0.0
O1042 O 0.12486 0.08187 0.5575 0.0
O1043 O 0.12943 0.05333 0.53192 0.0
O1044 O 0.0881 1.01066 0.54375 0.0
O1045 O 0.09309 0.03032 0.57917 0.0
C1046 C 0.08623 0.09495 0.52134 0.0
O1047 O 0.08263 0.03825 0.48495 0.0
O1048 O 0.10283 1.01469 0.5007 0.0
C1049 C 0.08502 0.08196 0.6319 0.0
C1050 C 0.0918 0.07591 0.67924 0.0
C1051 C 0.08515 0.09606 0.67165 0.0
C1052 C 0.08197 0.09912 0.64809 0.0
C1053 C 0.08881 0.06084 0.63927 0.0
C1054 C 0.09225 0.05784 0.66283 0.0
C1055 C 0.08844 0.08759 0.60829 0.0
H1056 H 0.07098 0.98642 0.40879 0.0
H1057 H 0.10069 1.00646 0.43924 0.0
H1058 H 0.04986 0.99481 0.48877 0.0
H1059 H 1.01988 0.97414 0.45836 0.0
H1060 H 0.08416 0.11008 0.68394 0.0
H1061 H 0.07884 0.11545 0.64262 0.0
H1062 H 0.09107 0.04735 0.6269 0.0
H1063 H 0.09737 0.04214 0.66807 0.0
Tb1064 Tb 0.32189 0.78441 0.79775 0.0
Eu1065 Eu 0.34197 0.83444 0.78492 0.0
C1066 C 0.32128 0.82618 0.83366 0.0
C1067 C 0.28471 0.81226 0.77187 0.0
C1068 C 0.31325 0.72296 0.79508 0.0
C1069 C 0.31016 0.68206 0.79191 0.0
C1070 C 0.30342 0.70158 0.8016 0.0
C1071 C 0.32939 0.72474 0.77848 0.0
C1072 C 0.33602 0.70535 0.76876 0.0
C1073 C 0.32677 0.68385 0.77562 0.0
C1074 C 0.30709 0.74365 0.80543 0.0
O1075 O 0.32612 0.7804 0.76091 0.0
O1076 O 0.3529 0.81237 0.75655 0.0
O1077 O 0.3736 0.82501 0.80786 0.0
O1078 O 0.36173 0.78646 0.80471 0.0
C1079 C 0.3406 0.79243 0.74834 0.0
O1080 O 0.34394 0.86084 0.76058 0.0
O1081 O 0.36323 0.86817 0.79473 0.0
O1082 O 0.32323 0.8396 0.81669 0.0
O1083 O 0.3226 0.80459 0.83033 0.0
O1084 O 0.28816 0.79743 0.78736 0.0
O1085 O 0.30334 0.8266 0.76675 0.0
C1086 C 0.37835 0.80465 0.81181 0.0
O1087 O 0.32459 0.75697 0.81813 0.0
O1088 O 0.29569 0.75492 0.79109 0.0
C1089 C 0.34168 0.89504 0.7809 0.0
C1090 C 0.31768 0.92935 0.79624 0.0
C1091 C 0.34032 0.93501 0.78844 0.0
C1092 C 0.35233 0.9179 0.78093 0.0
C1093 C 0.31878 0.88942 0.78778 0.0
C1094 C 0.30695 0.90635 0.79546 0.0
C1095 C 0.35481 0.87666 0.77624 0.0
H1096 H 0.30297 0.66569 0.79767 0.0
H1097 H 0.29091 0.70004 0.81438 0.0
H1098 H 0.33711 0.74119 0.77327 0.0
H1099 H 0.34861 0.70719 0.75605 0.0
H1100 H 0.34894 0.9526 0.78856 0.0
H1101 H 0.37007 0.92246 0.77578 0.0
H1102 H 0.31039 0.8718 0.78807 0.0
H1103 H 0.28982 0.90127 0.80175 0.0
Tb1104 Tb 0.58961 0.04748 0.06289 0.0
Eu1105 Eu 0.56006 0.06026 1.0177 0.0
C1106 C 0.582 1.01057 1.01755 0.0
C1107 C 0.61655 0.0799 0.02887 0.0
C1108 C 0.62109 0.05589 0.12092 0.0
C1109 C 0.63145 0.09516 0.13686 0.0
C1110 C 0.62688 0.07919 0.11779 0.0
C1111 C 0.62197 0.04863 0.14327 0.0
C1112 C 0.62657 0.06458 0.16236 0.0
C1113 C 0.63016 0.08804 0.15929 0.0
C1114 C 0.60958 0.03996 0.10139 0.0
O1115 O 0.58043 0.08205 0.07426 0.0
O1116 O 0.56308 0.09366 0.04088 0.0
O1117 O 0.535 0.05085 0.04415 0.0
O1118 O 0.55548 0.0244 0.05673 0.0
C1119 C 0.57155 0.09824 0.06301 0.0
O1120 O 0.5526 0.07991 0.9884 0.0
O1121 O 0.52668 0.05088 0.99477 0.0
O1122 O 0.56957 0.02457 1.00661 0.0
O1123 O 0.59228 1.01703 0.03907 0.0
O1124 O 0.6173 0.06896 0.04765 0.0
O1125 O 0.5972 0.07818 1.01422 0.0
C1126 C 0.53518 0.03145 0.05309 0.0
O1127 O 0.58668 0.03967 0.09706 0.0
O1128 O 0.62016 0.04072 0.0826 0.0
C1129 C 0.53113 0.05787 0.95571 0.0
C1130 C 0.53507 0.04175 0.91014 0.0
C1131 C 0.52448 0.02694 0.92549 0.0
C1132 C 0.52261 0.0349 0.9481 0.0
C1133 C 0.53981 0.073 0.93985 0.0
C1134 C 0.54193 0.06503 0.91737 0.0
C1135 C 0.533 0.06597 0.98032 0.0
H1136 H 0.63437 0.11309 0.13398 0.0
H1137 H 0.62615 0.0851 0.10058 0.0
H1138 H 0.6173 0.03073 0.14593 0.0
H1139 H 0.62516 0.0585 0.17937 0.0
H1140 H 0.51854 1.00902 0.92033 0.0
H1141 H 0.51543 0.02285 0.95983 0.0
H1142 H 0.54621 0.09084 0.9452 0.0
H1143 H 0.55041 0.07696 0.90621 0.0
Tb1144 Tb 0.34916 0.3196 0.30776 0.0
Eu1145 Eu 0.32542 0.27337 0.28069 0.0
C1146 C 0.3466 0.27524 0.33706 0.0
C1147 C 0.38233 0.29652 0.27463 0.0
C1148 C 0.34679 0.37699 0.32618 0.0
C1149 C 0.31743 0.39579 0.34312 0.0
C1150 C 0.33676 0.38426 0.34567 0.0
C1151 C 0.33842 0.38314 0.30435 0.0
C1152 C 0.31905 0.39442 0.30178 0.0
C1153 C 0.30771 0.40016 0.32101 0.0
C1154 C 0.36145 0.35893 0.32782 0.0
O1155 O 0.33582 0.33107 0.2731 0.0
O1156 O 0.32225 0.29745 0.25143 0.0
O1157 O 0.29192 0.28304 0.29509 0.0
O1158 O 0.31181 0.31387 0.31849 0.0
C1159 C 0.32779 0.3199 0.25254 0.0
O1160 O 0.30568 0.2499 0.25199 0.0
O1161 O 0.32371 0.23693 0.28133 0.0
O1162 O 0.33192 0.26472 0.3191 0.0
O1163 O 0.35858 0.29588 0.33455 0.0
O1164 O 0.38158 0.3116 0.29212 0.0
O1165 O 0.3631 0.28081 0.26814 0.0
C1166 C 0.29179 0.29898 0.31185 0.0
O1167 O 0.35217 0.34142 0.33801 0.0
O1168 O 0.3696 0.35255 0.30895 0.0
C1169 C 0.32892 0.22102 0.24569 0.0
C1170 C 0.37288 0.20831 0.23891 0.0
C1171 C 0.36658 0.22765 0.22922 0.0
C1172 C 0.34476 0.23409 0.23269 0.0
C1173 C 0.33345 0.19967 0.25168 0.0
C1174 C 0.35539 0.19337 0.2484 0.0
C1175 C 0.31407 0.23254 0.25998 0.0
H1176 H 0.30952 0.40047 0.35839 0.0
H1177 H 0.34282 0.37967 0.36268 0.0
H1178 H 0.34565 0.3778 0.28891 0.0
H1179 H 0.31206 0.39725 0.28444 0.0
H1180 H 0.37957 0.23894 0.22114 0.0
H1181 H 0.34169 0.25059 0.22772 0.0
H1182 H 0.32156 0.18935 0.26177 0.0
H1183 H 0.3597 0.17825 0.25592 0.0
Tb1184 Tb 0.58516 0.53724 1.01722 0.0
Eu1185 Eu 0.58446 0.56235 0.06496 0.0
C1186 C 0.63432 0.56807 0.04162 0.0
C1187 C 0.58776 0.50674 0.06249 0.0
C1188 C 0.58881 0.5257 0.95513 0.0
C1189 C 0.57759 0.51794 0.91395 0.0
C1190 C 0.58263 0.51018 0.93567 0.0
C1191 C 0.59259 0.54914 0.95241 0.0
C1192 C 0.58729 0.55692 0.93073 0.0
C1193 C 0.57839 0.5413 0.91159 0.0
C1194 C 0.58537 0.51758 0.97788 0.0
O1195 O 0.54859 0.52344 0.02601 0.0
O1196 O 0.54428 0.55016 0.05385 0.0
O1197 O 0.5811 0.59172 0.04084 0.0
O1198 O 0.5793 0.57199 1.00587 0.0
C1199 C 0.53496 0.53182 0.04006 0.0
O1200 O 0.57266 0.56374 0.09933 0.0
O1201 O 0.59623 0.5925 0.08896 0.0
O1202 O 0.62491 0.56557 0.06129 0.0
O1203 O 0.62054 0.5604 0.02222 0.0
O1204 O 0.59242 0.5094 0.04073 0.0
O1205 O 0.58356 0.5248 0.07468 0.0
C1206 C 0.57995 0.59183 1.018 0.0
O1207 O 0.60386 0.52133 0.99361 0.0
O1208 O 0.56633 0.52269 0.98587 0.0
C1209 C 0.60236 0.58323 0.12769 0.0
C1210 C 0.63195 0.57906 0.16815 0.0
C1211 C 0.607 0.5737 0.1675 0.0
C1212 C 0.59232 0.57589 0.14745 0.0
C1213 C 0.62735 0.58899 0.12845 0.0
C1214 C 0.64202 0.58707 0.14862 0.0
C1215 C 0.58665 0.58301 0.10606 0.0
H1216 H 0.57063 0.50549 0.89955 0.0
H1217 H 0.57951 0.49204 0.93755 0.0
H1218 H 0.59748 0.56134 0.96731 0.0
H1219 H 0.58825 0.57501 0.92929 0.0
H1220 H 0.59886 0.5678 0.18251 0.0
H1221 H 0.57312 0.57135 0.1472 0.0
H1222 H 0.63561 0.59451 0.11338 0.0
H1223 H 0.66124 0.59123 0.14876 0.0
Tb1224 Tb 0.83065 0.28163 0.29948 0.0
Eu1225 Eu 0.8507 0.3322 0.28714 0.0
C1226 C 0.83137 0.32321 0.33609 0.0
C1227 C 0.79408 0.30959 0.27311 0.0
C1228 C 0.82381 0.22036 0.30394 0.0
C1229 C 0.81979 0.17958 0.30508 0.0
C1230 C 0.81112 0.19966 0.30946 0.0
C1231 C 0.84517 0.22096 0.294 0.0
C1232 C 0.85387 0.20097 0.28969 0.0
C1233 C 0.84125 0.18008 0.29514 0.0
C1234 C 0.81491 0.24142 0.30832 0.0
O1235 O 0.83719 0.27705 0.26326 0.0
O1236 O 0.86033 0.31111 0.25746 0.0
O1237 O 0.88224 0.32181 0.30917 0.0
O1238 O 0.87023 0.28321 0.30653 0.0
C1239 C 0.84987 0.29028 0.25011 0.0
O1240 O 0.85029 0.36056 0.26533 0.0
O1241 O 0.87499 0.36453 0.2964 0.0
O1242 O 0.83224 0.33673 0.3192 0.0
O1243 O 0.8331 0.30179 0.33234 0.0
O1244 O 0.79732 0.29534 0.28924 0.0
O1245 O 0.81277 0.32362 0.26775 0.0
C1246 C 0.88688 0.30144 0.31319 0.0
O1247 O 0.82874 0.25638 0.32301 0.0
O1248 O 0.80748 0.25057 0.28993 0.0
C1249 C 0.85417 0.39391 0.28926 0.0
C1250 C 0.83486 0.42908 0.31009 0.0
C1251 C 0.85612 0.43405 0.29966 0.0
C1252 C 0.86583 0.41648 0.28942 0.0
C1253 C 0.83289 0.38902 0.29933 0.0
C1254 C 0.82351 0.40632 0.30989 0.0
C1255 C 0.86451 0.37489 0.28043 0.0
H1256 H 0.80959 0.16365 0.3092 0.0
H1257 H 0.79454 0.19903 0.31706 0.0
H1258 H 0.85513 0.23691 0.28964 0.0
H1259 H 0.87061 0.20192 0.28233 0.0
H1260 H 0.86517 0.45144 0.29932 0.0
H1261 H 0.8824 0.42047 0.28182 0.0
H1262 H 0.82362 0.37167 0.29933 0.0
H1263 H 0.80748 0.40172 0.3182 0.0
Tb1264 Tb 0.09596 0.54697 0.55892 0.0
Eu1265 Eu 0.06898 0.55878 0.51119 0.0
C1266 C 0.09005 0.50959 0.51391 0.0
C1267 C 0.12439 0.5777 0.52582 0.0
C1268 C 0.11008 0.54675 0.62057 0.0
C1269 C 0.11397 0.54565 0.66223 0.0
C1270 C 0.1208 0.53936 0.64073 0.0
C1271 C 0.09291 0.56074 0.62203 0.0
C1272 C 0.08632 0.5672 0.64331 0.0
C1273 C 0.09638 0.55938 0.6636 0.0
C1274 C 0.11572 0.53953 0.59772 0.0
O1275 O 0.08943 0.58241 0.56839 0.0
O1276 O 0.06496 0.58914 0.53685 0.0
O1277 O 0.04461 0.53068 0.52441 0.0
O1278 O 0.0579 0.53769 0.5626 0.0
C1279 C 0.07616 0.59593 0.55793 0.0
O1280 O 0.03926 0.57161 0.49223 0.0
O1281 O 0.06479 0.55648 0.474 0.0
O1282 O 0.08237 0.52511 0.50103 0.0
O1283 O 0.09536 0.51461 0.53662 0.0
O1284 O 0.12439 0.56034 0.53857 0.0
O1285 O 0.10458 0.58172 0.5149 0.0
C1286 C 0.04214 0.52703 0.54587 0.0
O1287 O 0.09877 0.52507 0.5855 0.0
O1288 O 0.12416 0.55604 0.58569 0.0
C1289 C 0.04538 0.58205 0.45395 0.0
C1290 C 0.05013 0.59308 0.40855 0.0
C1291 C 1.02752 0.58409 0.41483 0.0
C1292 C 1.02524 0.57835 0.43744 0.0
C1293 C 0.06668 0.59517 0.44886 0.0
C1294 C 0.06907 0.60065 0.42622 0.0
C1295 C 0.04609 0.56634 0.47223 0.0
H1296 H 0.12189 0.53927 0.67761 0.0
H1297 H 0.13402 0.52846 0.63981 0.0
H1298 H 0.08424 0.56639 0.60665 0.0
H1299 H 0.07307 0.57813 0.64383 0.0
H1300 H 1.01236 0.57881 0.40175 0.0
H1301 H 1.00854 0.56847 0.44118 0.0
H1302 H 0.08238 0.59841 0.46152 0.0
H1303 H 0.08671 0.60789 0.42221 0.0
Tb1304 Tb 0.81594 0.80256 0.28722 0.0
Eu1305 Eu 0.86686 0.7911 0.30774 0.0
C1306 C 0.86348 0.83047 0.27248 0.0
C1307 C 0.8431 0.77381 0.25297 0.0
C1308 C 0.75441 0.80419 0.29092 0.0
C1309 C 0.71252 0.80054 0.29611 0.0
C1310 C 0.73137 0.80755 0.28319 0.0
C1311 C 0.75862 0.79444 0.31192 0.0
C1312 C 0.73983 0.78707 0.32453 0.0
C1313 C 0.71662 0.78979 0.31657 0.0
C1314 C 0.77403 0.80895 0.27674 0.0
O1315 O 0.80858 0.76966 0.30164 0.0
O1316 O 0.84066 0.77309 0.32884 0.0
O1317 O 0.85848 0.81366 0.33844 0.0
O1318 O 0.82182 0.8202 0.32323 0.0
C1319 C 0.81864 0.76427 0.32123 0.0
O1320 O 0.88856 0.76497 0.31415 0.0
O1321 O 0.90379 0.8006 0.32325 0.0
O1322 O 0.87665 0.82065 0.28702 0.0
O1323 O 0.84005 0.82622 0.27013 0.0
O1324 O 0.82733 0.78748 0.25512 0.0
O1325 O 0.8572 0.77047 0.27161 0.0
C1326 C 0.83913 0.82266 0.34082 0.0
O1327 O 0.79151 0.82514 0.28544 0.0
O1328 O 0.78183 0.79084 0.26954 0.0
C1329 C 0.92785 0.7785 0.30567 0.0
C1330 C 0.96202 0.78578 0.27438 0.0
C1331 C 0.96716 0.79583 0.29713 0.0
C1332 C 0.95023 0.79212 0.31271 0.0
C1333 C 0.92341 0.7671 0.28342 0.0
C1334 C 0.94046 0.77061 0.26794 0.0
C1335 C 0.90812 0.78002 0.31965 0.0
H1336 H 0.69463 0.80268 0.28971 0.0
H1337 H 0.72788 0.815 0.267 0.0
H1338 H 0.77637 0.79189 0.31823 0.0
H1339 H 0.74334 0.77895 0.34033 0.0
H1340 H 0.98382 0.80744 0.3025 0.0
H1341 H 0.95398 0.80115 0.32972 0.0
H1342 H 0.90621 0.75666 0.27741 0.0
H1343 H 0.93608 0.76276 0.25045 0.0
Tb1344 Tb 0.8428 0.31986 0.80423 0.0
Eu1345 Eu 0.79408 0.28664 0.7773 0.0
C1346 C 0.79857 0.34057 0.78679 0.0
C1347 C 0.80599 0.29084 0.83216 0.0
C1348 C 0.89726 0.36316 0.83058 0.0
C1349 C 0.91122 0.40151 0.82076 0.0
C1350 C 0.89482 0.38112 0.81672 0.0
C1351 C 0.91645 0.36552 0.84807 0.0
C1352 C 0.93278 0.38588 0.85218 0.0
C1353 C 0.93017 0.40419 0.83876 0.0
C1354 C 0.8793 0.34237 0.82843 0.0
O1355 O 0.8476 0.28493 0.80759 0.0
O1356 O 0.82141 0.26367 0.7785 0.0
O1357 O 0.8113 0.30566 0.74952 0.0
O1358 O 0.84863 0.32229 0.7677 0.0
C1359 C 0.83973 0.26601 0.79447 0.0
O1360 O 0.77416 0.26786 0.74622 0.0
O1361 O 0.75645 0.27155 0.77695 0.0
O1362 O 0.78533 0.32068 0.7886 0.0
O1363 O 0.82195 0.34331 0.78879 0.0
O1364 O 0.81779 0.31129 0.82976 0.0
O1365 O 0.79795 0.27654 0.81397 0.0
C1366 C 0.83299 0.31702 0.749 0.0
O1367 O 0.85744 0.34486 0.83086 0.0
O1368 O 0.8802 0.327 0.81187 0.0
C1369 C 0.74363 0.23809 0.75199 0.0
C1370 C 0.72453 0.19155 0.74194 0.0
C1371 C 0.74134 0.19896 0.76147 0.0
C1372 C 0.7509 0.22202 0.76638 0.0
C1373 C 0.72665 0.23091 0.73274 0.0
C1374 C 0.71714 0.20782 0.72773 0.0
C1375 C 0.75472 0.26215 0.75592 0.0
H1376 H 0.90861 0.41544 0.81031 0.0
H1377 H 0.87998 0.37954 0.80323 0.0
H1378 H 0.91851 0.35174 0.85892 0.0
H1379 H 0.94734 0.38737 0.86596 0.0
H1380 H 0.7471 0.18692 0.773 0.0
H1381 H 0.76414 0.2273 0.78125 0.0
H1382 H 0.72105 0.24313 0.72133 0.0
H1383 H 0.70444 0.20269 0.71245 0.0
Tb1384 Tb 0.84318 0.82311 0.80839 0.0
Eu1385 Eu 0.81942 0.77787 0.78027 0.0
C1386 C 0.84064 0.77734 0.83666 0.0
C1387 C 0.87736 0.80056 0.7762 0.0
C1388 C 0.84087 0.87385 0.84455 0.0
C1389 C 0.80248 0.86943 0.85965 0.0
C1390 C 0.82296 0.8608 0.85533 0.0
C1391 C 0.83984 0.89675 0.84165 0.0
C1392 C 0.81946 0.90544 0.84613 0.0
C1393 C 0.79987 0.89126 0.85349 0.0
C1394 C 0.85455 0.86226 0.82915 0.0
O1395 O 0.83879 0.83264 0.77124 0.0
O1396 O 0.81059 0.80348 0.75396 0.0
O1397 O 0.78578 0.78729 0.79485 0.0
O1398 O 0.806 0.81659 0.81983 0.0
C1399 C 0.82383 0.82367 0.75268 0.0
O1400 O 0.81278 0.75608 0.74795 0.0
O1401 O 0.80206 0.74222 0.7791 0.0
O1402 O 0.83092 0.766 0.8167 0.0
O1403 O 0.84778 0.79969 0.8368 0.0
O1404 O 0.87617 0.81557 0.79365 0.0
O1405 O 0.85796 0.78522 0.76892 0.0
C1406 C 0.78573 0.8023 0.81249 0.0
O1407 O 0.8631 0.84469 0.83629 0.0
O1408 O 0.84351 0.858 0.80832 0.0
C1409 C 0.82402 0.72182 0.75697 0.0
C1410 C 0.85815 0.69321 0.7567 0.0
C1411 C 0.835 0.68578 0.7451 0.0
C1412 C 0.818 0.70022 0.74499 0.0
C1413 C 0.84701 0.72892 0.76863 0.0
C1414 C 0.86394 0.71497 0.76826 0.0
C1415 C 0.80716 0.73761 0.75832 0.0
H1416 H 0.78783 0.8584 0.86588 0.0
H1417 H 0.82349 0.84312 0.85795 0.0
H1418 H 0.85335 0.90706 0.83319 0.0
H1419 H 0.81801 0.92238 0.84125 0.0
H1420 H 0.83007 0.66885 0.73645 0.0
H1421 H 0.80024 0.69443 0.73605 0.0
H1422 H 0.85176 0.74514 0.77866 0.0
H1423 H 0.8813 0.72085 0.77805 0.0
Tb1424 Tb 0.54556 0.54981 0.53023 0.0
Eu1425 Eu 0.60675 0.56997 0.5634 0.0
C1426 C 0.58662 0.54391 0.5115 0.0
C1427 C 0.57542 0.51699 0.55928 0.0
C1428 C 0.48643 0.56491 0.51848 0.0
C1429 C 0.46128 0.5879 0.49789 0.0
C1430 C 0.47418 0.57003 0.49792 0.0
C1431 C 0.48533 0.57792 0.53914 0.0
C1432 C 0.47226 0.59568 0.53915 0.0
C1433 C 0.46015 0.60101 0.51851 0.0
C1434 C 0.50165 0.54725 0.51778 0.0
O1435 O 0.55516 0.57326 0.56116 0.0
O1436 O 0.58274 0.57105 0.591 0.0
O1437 O 0.59572 0.60062 0.54754 0.0
O1438 O 0.56109 0.58423 0.52196 0.0
C1439 C 0.56022 0.56772 0.58234 0.0
O1440 O 0.63817 0.57361 0.5889 0.0
O1441 O 0.64228 0.57518 0.55224 0.0
O1442 O 0.58691 0.55248 0.53227 0.0
O1443 O 0.56473 0.53714 0.50263 0.0
O1444 O 0.55499 0.52062 0.54822 0.0
O1445 O 0.59547 0.53207 0.56425 0.0
C1446 C 0.57852 0.60126 0.53054 0.0
O1447 O 0.51789 0.55004 0.50354 0.0
O1448 O 0.51012 0.54113 0.5376 0.0
C1449 C 0.66847 0.55634 0.57416 0.0
C1450 C 0.69807 0.5232 0.57141 0.0
C1451 C 0.70771 0.54656 0.57192 0.0
C1452 C 0.69301 0.56295 0.5732 0.0
C1453 C 0.65885 0.53314 0.57435 0.0
C1454 C 0.6735 0.51672 0.57304 0.0
C1455 C 0.65272 0.57341 0.57292 0.0
H1456 H 0.45256 0.59169 0.48158 0.0
H1457 H 0.47497 0.56046 0.48174 0.0
H1458 H 0.49476 0.57457 0.5553 0.0
H1459 H 0.47155 0.60513 0.55541 0.0
H1460 H 0.7266 0.55218 0.57104 0.0
H1461 H 0.70075 0.58075 0.57293 0.0
H1462 H 0.63991 0.52765 0.57492 0.0
H1463 H 0.66541 0.49893 0.57243 0.0
Tb1464 Tb 0.07319 0.53395 0.0265 0.0
Eu1465 Eu 0.09718 0.56422 0.07286 0.0
C1466 C 0.07006 0.51407 0.07471 0.0
C1467 C 0.04482 0.57335 0.04896 0.0
C1468 C 0.04671 0.48801 0.98008 0.0
C1469 C 0.04871 0.44807 0.9822 0.0
C1470 C 0.05337 0.4703 0.99245 0.0
C1471 C 0.03565 0.48342 0.95733 0.0
C1472 C 1.0311 0.46123 0.94701 0.0
C1473 C 0.03745 0.44327 0.95938 0.0
C1474 C 0.05041 0.51122 0.99085 0.0
O1475 O 0.09431 0.56371 1.01423 0.0
O1476 O 0.10097 0.58918 0.04618 0.0
O1477 O 0.12545 0.54187 0.06322 0.0
O1478 O 0.10661 0.51886 0.03149 0.0
C1479 C 0.1006 0.58451 0.024 0.0
O1480 O 0.13045 0.57949 0.09354 0.0
O1481 O 0.09707 0.57955 0.10793 0.0
O1482 O 0.07218 0.53489 0.08374 0.0
O1483 O 0.07372 0.51003 0.05322 0.0
O1484 O 0.04516 0.55503 0.03481 0.0
O1485 O 0.06369 0.58092 0.06443 0.0
C1486 C 0.12559 0.52502 0.04721 0.0
O1487 O 0.04167 0.51354 1.01046 0.0
O1488 O 0.07179 0.52319 0.99135 0.0
C1489 C 0.1282 0.61132 0.11871 0.0
C1490 C 0.14226 0.65784 0.13356 0.0
C1491 C 0.1525 0.64822 0.11536 0.0
C1492 C 0.14553 0.62525 0.10797 0.0
C1493 C 0.11862 0.62068 0.13748 0.0
C1494 C 0.12553 0.64375 0.14481 0.0
C1495 C 0.12005 0.58717 0.11044 0.0
H1496 H 0.05356 0.4346 0.99229 0.0
H1497 H 0.06187 0.47362 1.0101 0.0
H1498 H 1.03043 0.497 0.94759 0.0
H1499 H 1.02275 0.45819 0.92931 0.0
H1500 H 0.16572 0.65855 0.10659 0.0
H1501 H 0.15352 0.61854 0.09362 0.0
H1502 H 0.10542 0.61024 0.14617 0.0
H1503 H 0.11714 0.6507 0.15875 0.0
H1504 H 0.06132 0.21714 0.95154 0.0
H1505 H 1.01853 0.16118 0.90756 0.0
H1506 H 0.0721 0.19069 0.97942 0.0
H1507 H 1.0291 0.1347 0.93576 0.0
H1508 H 1.02302 0.10657 1.00805 0.0
H1509 H 1.01759 0.13178 0.97769 0.0
H1510 H 0.0938 0.15528 0.98359 0.0
H1511 H 0.09952 0.1294 1.01407 0.0
C1512 C 0.05442 0.19914 0.94772 0.0
C1513 C 0.03891 0.1912 0.92748 0.0
C1514 C 0.06074 0.18402 0.96362 0.0
C1515 C 0.05134 0.16073 0.95978 0.0
C1516 C 0.03648 0.15265 0.93915 0.0
C1517 C 1.0305 0.16775 0.92301 0.0
C1518 C 0.03874 0.11711 1.00306 0.0
C1519 C 0.06178 0.11601 1.01359 0.0
C1520 C 0.03557 0.1314 0.98545 0.0
C1521 C 0.05528 0.14523 0.97811 0.0
C1522 C 0.07832 0.14467 0.98893 0.0
C1523 C 0.08158 0.12997 1.00639 0.0
H1524 H 0.16451 0.90565 0.22972 0.0
H1525 H 0.21169 0.88833 0.18087 0.0
H1526 H 0.19698 0.90933 0.261 0.0
H1527 H 0.24409 0.89215 0.21211 0.0
H1528 H 0.2981 0.89129 0.26934 0.0
H1529 H 0.27169 0.91219 0.24684 0.0
H1530 H 0.21077 0.87306 0.27287 0.0
H1531 H 0.2372 0.85211 0.29491 0.0
C1532 C 0.18204 0.90357 0.22547 0.0
C1533 C 0.18539 0.89598 0.20295 0.0
C1534 C 0.20062 0.90568 0.24344 0.0
C1535 C 0.22286 0.90052 0.23907 0.0
C1536 C 0.22712 0.89622 0.21604 0.0
C1537 C 0.20849 0.89392 0.19809 0.0
C1538 C 0.27916 0.8881 0.27112 0.0
C1539 C 0.26951 0.87038 0.28392 0.0
C1540 C 0.26408 0.89992 0.25816 0.0
C1541 C 0.2392 0.89418 0.258 0.0
C1542 C 0.22989 0.8781 0.27287 0.0
C1543 C 0.24495 0.86608 0.28552 0.0
H1544 H 0.54748 0.80643 0.42739 0.0
H1545 H 0.53057 0.82412 0.35753 0.0
H1546 H 0.55643 0.84645 0.4408 0.0
H1547 H 0.53952 0.86447 0.37122 0.0
H1548 H 0.58937 0.9204 0.45514 0.0
H1549 H 0.58585 0.88208 0.43676 0.0
H1550 H 0.51945 0.88909 0.39775 0.0
H1551 H 0.52258 0.92717 0.41645 0.0
C1552 C 0.54577 0.81885 0.41484 0.0
C1553 C 0.53802 0.81203 0.39141 0.0
C1554 C 0.55112 0.8418 0.42253 0.0
C1555 C 0.54868 0.85851 0.40704 0.0
C1556 C 0.54141 0.85185 0.38352 0.0
C1557 C 0.53633 0.82879 0.37571 0.0
C1558 C 0.57402 0.91379 0.44265 0.0
C1559 C 0.55612 0.92675 0.43747 0.0
C1560 C 0.5721 0.89192 0.43205 0.0
C1561 C 0.55234 0.88266 0.41593 0.0
C1562 C 0.535 0.89595 0.40992 0.0
C1563 C 0.53682 0.91776 0.42065 0.0
H1564 H 0.59246 0.36239 0.72093 0.0
H1565 H 0.54899 0.31668 0.66656 0.0
H1566 H 0.56288 0.35175 0.74716 0.0
H1567 H 0.51914 0.30649 0.69278 0.0
H1568 H 0.48831 0.27184 0.75351 0.0
H1569 H 0.51687 0.28464 0.7267 0.0
H1570 H 0.52246 0.35399 0.75507 0.0
H1571 H 0.49406 0.34112 0.78201 0.0
C1572 C 0.57643 0.35036 0.71442 0.0
C1573 C 0.57324 0.34024 0.69165 0.0
C1574 C 0.55942 0.34432 0.72948 0.0
C1575 C 0.53882 0.32809 0.72212 0.0
C1576 C 0.53509 0.31872 0.69908 0.0
C1577 C 0.55211 0.32473 0.684 0.0
C1578 C 0.49571 0.2898 0.75401 0.0
C1579 C 0.48905 0.30548 0.76986 0.0
C1580 C 0.51191 0.29716 0.73858 0.0
C1581 C 0.52173 0.32035 0.73864 0.0
C1582 C 0.51536 0.33598 0.75476 0.0
C1583 C 0.4992 0.32861 0.77024 0.0
H1584 H 0.07159 0.8607 0.60434 0.0
H1585 H 0.0887 0.90077 0.66942 0.0
H1586 H 0.07407 0.89589 0.58419 0.0
H1587 H 0.09158 0.93534 0.64986 0.0
H1588 H 0.09154 1.00193 0.61396 0.0
H1589 H 0.08832 0.96657 0.63283 0.0
H1590 H 0.08216 0.92889 0.56651 0.0
H1591 H 0.08501 0.96466 0.54773 0.0
C1592 C 0.07586 0.87682 0.61464 0.0
C1593 C 0.07969 0.87672 0.63917 0.0
C1594 C 0.07744 0.89763 0.60283 0.0
C1595 C 0.08305 0.92002 0.61458 0.0
C1596 C 0.08692 0.91958 0.63908 0.0
C1597 C 0.08528 0.89899 0.65074 0.0
C1598 C 0.08959 0.98623 0.60314 0.0
C1599 C 0.08877 0.98729 0.57878 0.0
C1600 C 0.08774 0.96521 0.61425 0.0
C1601 C 0.08496 0.94326 0.60201 0.0
C1602 C 0.08413 0.94443 0.57752 0.0
C1603 C 0.08592 0.96552 0.5664 0.0
H1604 H 0.52436 0.7741 0.86177 0.0
H1605 H 0.50887 0.81908 0.91613 0.0
H1606 H 0.4852 0.77496 0.84019 0.0
H1607 H 0.47001 0.82052 0.89441 0.0
H1608 H 0.41192 0.83788 0.83851 0.0
H1609 H 0.45026 0.83527 0.86021 0.0
H1610 H 0.44054 0.76428 0.83713 0.0
H1611 H 0.4017 0.76679 0.81576 0.0
C1612 C 0.51275 0.78436 0.86918 0.0
C1613 C 0.52069 0.79704 0.89073 0.0
C1614 C 0.48989 0.78474 0.85674 0.0
C1615 C 0.47373 0.79807 0.86496 0.0
C1616 C 0.48153 0.81027 0.88683 0.0
C1617 C 0.5041 0.8094 0.89953 0.0
C1618 C 0.41774 0.82158 0.83791 0.0
C1619 C 0.40293 0.8026 0.82493 0.0
C1620 C 0.44004 0.82004 0.85069 0.0
C1621 C 0.4493 0.79951 0.85096 0.0
C1622 C 0.43469 0.78056 0.83765 0.0
C1623 C 0.41205 0.78198 0.82526 0.0
H1624 H 0.57954 0.25103 0.09887 0.0
H1625 H 0.55895 0.22094 0.16029 0.0
H1626 H 0.57907 0.213 0.08012 0.0
H1627 H 0.55946 0.183 0.14212 0.0
H1628 H 0.56132 0.13816 0.04388 0.0
H1629 H 0.56047 0.17604 0.06191 0.0
H1630 H 0.57951 0.15327 0.12874 0.0
H1631 H 0.58067 0.11534 0.11053 0.0
C1632 C 0.57412 0.23642 0.10837 0.0
C1633 C 0.56806 0.24008 0.13118 0.0
C1634 C 0.57422 0.21407 0.09753 0.0
C1635 C 0.56915 0.19362 0.10898 0.0
C1636 C 0.56363 0.19743 0.13201 0.0
C1637 C 0.56313 0.2197 0.14263 0.0
C1638 C 0.56538 0.14092 0.06248 0.0
C1639 C 0.57098 0.12252 0.07521 0.0
C1640 C 0.56501 0.16324 0.07307 0.0
C1641 C 0.56985 0.169 0.09737 0.0
C1642 C 0.57533 0.15052 0.11016 0.0
C1643 C 0.5761 0.12824 0.09949 0.0
H1644 H 0.18084 0.29733 0.41505 0.0
H1645 H 0.14465 0.30832 0.34936 0.0
H1646 H 0.21772 0.29618 0.39641 0.0
H1647 H 0.18051 0.30625 0.331 0.0
H1648 H 0.24334 0.28017 0.29765 0.0
H1649 H 0.20775 0.28101 0.31775 0.0
H1650 H 0.25164 0.31941 0.37612 0.0
H1651 H 0.28717 0.31926 0.35563 0.0
C1652 C 0.18032 0.29925 0.39668 0.0
C1653 C 0.15872 0.30282 0.3842 0.0
C1654 C 0.20186 0.29871 0.3858 0.0
C1655 C 0.20293 0.30098 0.36165 0.0
C1656 C 0.18122 0.30414 0.34934 0.0
C1657 C 0.16017 0.30535 0.36021 0.0
C1658 C 0.24566 0.289 0.3147 0.0
C1659 C 0.26894 0.29979 0.32443 0.0
C1660 C 0.22487 0.2895 0.32648 0.0
C1661 C 0.22593 0.30023 0.34913 0.0
C1662 C 0.2493 0.31072 0.35901 0.0
C1663 C 0.27002 0.31076 0.34696 0.0
H1664 H 1.0036 0.05205 0.21406 0.0
H1665 H 0.9345 0.05446 0.17761 0.0
H1666 H 1.02297 0.06896 0.18256 0.0
H1667 H 0.95386 0.07271 0.14654 0.0
H1668 H 0.99309 0.05709 0.08386 0.0
H1669 H 0.97206 0.05641 0.11747 0.0
H1670 H 0.03407 0.09761 0.15752 0.0
H1671 H 0.05572 0.0975 0.12354 0.0
C1672 C 0.99258 0.05688 0.19959 0.0
C1673 C 0.96758 0.05145 0.19793 0.0
C1674 C 1.0037 0.06682 0.18158 0.0
C1675 C 0.98998 0.07184 0.16173 0.0
C1676 C 0.96495 0.06845 0.16125 0.0
C1677 C 0.95384 0.05806 0.17905 0.0
C1678 C 1.00222 0.06641 0.09965 0.0
C1679 C 1.0263 0.07691 0.10111 0.0
C1680 C 0.98997 0.06624 0.11902 0.0
C1681 C 1.0014 0.07674 0.1404 0.0
C1682 C 1.02488 0.08896 0.14142 0.0
C1683 C 0.03725 0.08902 0.12193 0.0
H1684 H 0.32858 0.77106 0.4767 0.0
H1685 H 0.26295 0.72794 0.44704 0.0
H1686 H 0.3301 0.79067 0.44105 0.0
H1687 H 0.26339 0.74808 0.41236 0.0
H1688 H 0.28312 0.76766 0.34224 0.0
H1689 H 0.28054 0.75104 0.37905 0.0
H1690 H 0.3174 0.81475 0.41467 0.0
H1691 H 0.32106 0.83089 0.37753 0.0
C1692 C 0.3141 0.76622 0.46286 0.0
C1693 C 0.29566 0.74786 0.46485 0.0
C1694 C 0.31491 0.77745 0.44227 0.0
C1695 C 0.29708 0.77087 0.42322 0.0
C1696 C 0.27799 0.75334 0.42599 0.0
C1697 C 0.2775 0.74189 0.44623 0.0
C1698 C 0.29048 0.77822 0.35792 0.0
C1699 C 0.3022 0.80069 0.35674 0.0
C1700 C 0.28891 0.7687 0.37927 0.0
C1701 C 0.29861 0.78143 0.40034 0.0
C1702 C 0.30999 0.8041 0.39909 0.0
C1703 C 0.31191 0.81349 0.37767 0.0
H1704 H 0.65948 0.96756 0.67232 0.0
H1705 H 0.59099 0.94768 0.69722 0.0
H1706 H 0.63942 0.97062 0.63405 0.0
H1707 H 0.57096 0.95082 0.65889 0.0
H1708 H 0.59956 0.97937 0.56721 0.0
H1709 H 0.6109 0.95583 0.59794 0.0
H1710 H 0.57101 0.98955 0.6439 0.0
H1711 H 0.56002 1.01315 0.61341 0.0
C1712 C 0.6402 0.96288 0.66941 0.0
C1713 C 0.62683 0.95796 0.68796 0.0
C1714 C 0.62866 0.96459 0.64741 0.0
C1715 C 0.60359 0.96147 0.64363 0.0
C1716 C 0.59031 0.95367 0.66143 0.0
C1717 C 0.60184 0.95178 0.68338 0.0
C1718 C 0.59247 0.98111 0.58361 0.0
C1719 C 0.57903 0.99818 0.58803 0.0
C1720 C 0.59909 0.96773 0.60122 0.0
C1721 C 0.59196 0.97091 0.62335 0.0
C1722 C 0.5766 0.98649 0.62698 0.0
C1723 C 0.57038 1.00011 0.60956 0.0
H1724 H 0.32725 0.36735 0.99288 0.0
H1725 H 0.31213 0.42351 0.95468 0.0
H1726 H 0.33137 0.34608 0.95648 0.0
H1727 H 0.31631 0.40261 0.91869 0.0
H1728 H 0.30951 0.35573 0.85116 0.0
H1729 H 0.30396 0.37537 0.8877 0.0
H1730 H 0.35206 0.33816 0.92442 0.0
H1731 H 0.35746 0.31848 0.88775 0.0
C1732 C 0.32444 0.37526 0.97685 0.0
C1733 C 0.31895 0.39755 0.97761 0.0
C1734 C 0.32711 0.36296 0.95556 0.0
C1735 C 0.32427 0.37203 0.93355 0.0
C1736 C 0.31846 0.3942 0.93447 0.0
C1737 C 0.31605 0.40649 0.95564 0.0
C1738 C 0.31906 0.35161 0.86691 0.0
C1739 C 0.33414 0.33513 0.8656 0.0
C1740 C 0.31593 0.36318 0.88834 0.0
C1741 C 0.32748 0.35899 0.91011 0.0
C1742 C 0.34239 0.34229 0.90876 0.0
C1743 C 0.34568 0.33086 0.88728 0.0
H1744 H 0.92126 0.97993 0.32708 0.0
H1745 H 0.9874 0.99837 0.29725 0.0
H1746 H 0.94353 0.97028 0.36191 0.0
H1747 H 1.00952 0.98892 0.33218 0.0
H1748 H 0.04278 0.95485 0.38947 0.0
H1749 H 1.01552 0.95549 0.35447 0.0
H1750 H 0.97207 0.99217 0.39363 0.0
H1751 H 0.99927 0.99189 0.42834 0.0
C1752 C 0.94053 0.98202 0.32795 0.0
C1753 C 0.95256 0.9901 0.3094 0.0
C1754 C 0.95324 0.97642 0.34789 0.0
C1755 C 0.9782 0.97863 0.34965 0.0
C1756 C 0.99023 0.98662 0.33112 0.0
C1757 C 0.97756 0.99234 0.31123 0.0
C1758 C 1.02713 0.96263 0.39067 0.0
C1759 C 1.0234 0.97357 0.41164 0.0
C1760 C 1.0116 0.96306 0.37065 0.0
C1761 C 0.99197 0.97426 0.3713 0.0
C1762 C 0.98702 0.98334 0.39263 0.0
C1763 C 1.00259 0.98304 0.4126 0.0
H1764 H 0.32803 0.78344 0.59658 0.0
H1765 H 0.32239 0.71363 0.61324 0.0
H1766 H 0.33534 0.79597 0.6378 0.0
H1767 H 0.33051 0.72601 0.65421 0.0
H1768 H 0.31677 0.7522 0.72575 0.0
H1769 H 0.31295 0.74007 0.68491 0.0
H1770 H 0.36095 0.8012 0.67313 0.0
H1771 H 0.3641 0.81376 0.7142 0.0
C1772 C 0.32866 0.77075 0.60901 0.0
C1773 C 0.32445 0.74748 0.60144 0.0
C1774 C 0.33299 0.77795 0.63277 0.0
C1775 C 0.33339 0.7621 0.64974 0.0
C1776 C 0.32984 0.73885 0.64198 0.0
C1777 C 0.32535 0.73169 0.61831 0.0
C1778 C 0.32674 0.76306 0.71458 0.0
C1779 C 0.34078 0.78405 0.72355 0.0
C1780 C 0.32464 0.75599 0.69095 0.0
C1781 C 0.3366 0.76954 0.6753 0.0
C1782 C 0.35112 0.79034 0.68436 0.0
C1783 C 0.35316 0.79748 0.70808 0.0
H1784 H 0.59861 0.97818 0.79755 0.0
H1785 H 0.63574 0.04648 0.8194 0.0
H1786 H 0.56746 0.98358 0.8222 0.0
H1787 H 0.60443 0.05191 0.84334 0.0
H1788 H 0.55159 1.00209 0.90171 0.0
H1789 H 0.57195 0.99198 0.86908 0.0
H1790 H 0.55677 0.0516 0.8366 0.0
H1791 H 0.53519 0.06132 0.86871 0.0
C1792 C 0.59998 0.99439 0.80738 0.0
C1793 C 0.61965 1.0119 0.80663 0.0
C1794 C 0.58218 0.99743 0.82137 0.0
C1795 C 0.58351 1.01823 0.8343 0.0
C1796 C 0.60287 0.03586 0.83317 0.0
C1797 C 0.62089 0.03266 0.81965 0.0
C1798 C 0.55157 1.01257 0.88722 0.0
C1799 C 0.54209 0.03279 0.88807 0.0
C1800 C 0.56336 1.00677 0.86857 0.0
C1801 C 0.56613 0.02122 0.85064 0.0
C1802 C 0.55501 0.04037 0.85046 0.0
C1803 C 0.54284 0.04597 0.86889 0.0
H1804 H 0.30255 0.35759 0.10366 0.0
H1805 H 0.33658 0.42109 0.14028 0.0
H1806 H 0.30377 0.339 0.13966 0.0
H1807 H 0.33852 0.40256 0.17654 0.0
H1808 H 0.33508 0.36711 0.24559 0.0
H1809 H 0.33253 0.38644 0.20987 0.0
H1810 H 0.31362 0.3213 0.17057 0.0
H1811 H 0.31566 0.30236 0.20626 0.0
C1812 C 0.3104 0.36783 0.11939 0.0
C1813 C 0.31931 0.39133 0.11812 0.0
C1814 C 0.31133 0.35688 0.14065 0.0
C1815 C 0.32143 0.3685 0.16246 0.0
C1816 C 0.3303 0.39216 0.16108 0.0
C1817 C 0.32924 0.40313 0.13976 0.0
C1818 C 0.33019 0.35674 0.2294 0.0
C1819 C 0.32546 0.33266 0.2298 0.0
C1820 C 0.32883 0.36806 0.2083 0.0
C1821 C 0.32276 0.35618 0.18588 0.0
C1822 C 0.31806 0.33203 0.18651 0.0
C1823 C 0.31931 0.32078 0.20757 0.0
H1824 H 0.27224 0.95571 1.01105 0.0
H1825 H 0.27647 0.92852 0.07793 0.0
H1826 H 0.24055 0.97525 0.0213 0.0
H1827 H 0.24411 0.94799 0.08825 0.0
H1828 H 0.21645 1.01625 0.10648 0.0
H1829 H 0.2411 0.98809 0.09718 0.0
H1830 H 0.20011 0.97231 0.02994 0.0
H1831 H 0.17582 1.00061 0.03913 0.0
C1832 C 0.26591 0.95342 0.02777 0.0
C1833 C 0.27691 0.94062 0.0437 0.0
C1834 C 0.24762 0.96459 0.03365 0.0
C1835 C 0.23983 0.96337 0.05569 0.0
C1836 C 0.24989 0.94949 0.07123 0.0
C1837 C 0.26818 0.9381 0.06522 0.0
C1838 C 0.21253 1.00652 0.08986 0.0
C1839 C 0.19449 1.01097 0.07339 0.0
C1840 C 0.22656 0.99028 0.08455 0.0
C1841 C 0.22276 0.97806 0.0627 0.0
C1842 C 0.20387 0.98172 0.04674 0.0
C1843 C 0.18998 0.99799 0.05199 0.0
H1844 H 0.76402 0.66656 1.01466 0.0
H1845 H 0.79416 0.6189 0.05567 0.0
H1846 H 0.72374 0.64469 1.01604 0.0
H1847 H 0.75381 0.59731 0.05774 0.0
H1848 H 0.6735 0.57819 0.07649 0.0
H1849 H 0.71442 0.59851 0.07442 0.0
H1850 H 0.69568 0.60797 1.00273 0.0
H1851 H 0.65518 0.58718 1.00462 0.0
C1852 C 0.76221 0.65131 0.02389 0.0
C1853 C 0.78301 0.64449 0.03447 0.0
C1854 C 0.73882 0.63858 0.02472 0.0
C1855 C 0.73472 0.6188 0.03704 0.0
C1856 C 0.75556 0.61229 0.0481 0.0
C1857 C 0.77902 0.62469 0.04672 0.0
C1858 C 0.67799 0.58442 0.06017 0.0
C1859 C 0.66031 0.58057 0.04074 0.0
C1860 C 0.7018 0.59618 0.05893 0.0
C1861 C 0.70912 0.60534 0.03836 0.0
C1862 C 0.69133 0.60162 0.01904 0.0
C1863 C 0.66778 0.58941 0.02012 0.0
H1864 H 0.79891 0.53808 0.3994 0.0
H1865 H 0.74548 0.52627 0.33969 0.0
H1866 H 0.81688 0.5068 0.38434 0.0
H1867 H 0.76391 0.49626 0.32434 0.0
H1868 H 0.78754 0.43114 0.30944 0.0
H1869 H 0.76956 0.45927 0.32919 0.0
H1870 H 0.8397 0.49768 0.35388 0.0
H1871 H 0.85789 0.46815 0.33573 0.0
C1872 C 0.79093 0.52876 0.3832 0.0
C1873 C 0.77069 0.5346 0.37086 0.0
C1874 C 0.80135 0.51102 0.37446 0.0
C1875 C 0.79183 0.49901 0.35314 0.0
C1876 C 0.77143 0.50474 0.34105 0.0
C1877 C 0.76088 0.52212 0.34988 0.0
C1878 C 0.79923 0.44531 0.31944 0.0
C1879 C 0.8242 0.44728 0.3211 0.0
C1880 C 0.78887 0.46167 0.33052 0.0
C1881 C 0.80317 0.48085 0.34299 0.0
C1882 C 0.82817 0.48296 0.34463 0.0
C1883 C 0.8386 0.46627 0.33387 0.0
H1884 H 0.93319 0.40461 0.53261 0.0
H1885 H 0.90865 0.45208 0.57887 0.0
H1886 H 0.97229 0.42947 0.53585 0.0
H1887 H 0.94715 0.4775 0.58151 0.0
H1888 H 1.02226 0.51852 0.58658 0.0
H1889 H 0.98912 0.48797 0.59198 0.0
H1890 H 0.98558 0.4636 0.52022 0.0
H1891 H 1.01789 0.49355 0.51495 0.0
C1892 C 0.93628 0.42036 0.54353 0.0
C1893 C 0.91775 0.42704 0.55463 0.0
C1894 C 0.95859 0.43469 0.54536 0.0
C1895 C 0.96278 0.45591 0.55845 0.0
C1896 C 0.94473 0.46143 0.57124 0.0
C1897 C 0.9225 0.44705 0.56942 0.0
C1898 C 1.01429 0.50656 0.57206 0.0
C1899 C 1.02244 0.50877 0.55026 0.0
C1900 C 0.99531 0.48906 0.5751 0.0
C1901 C 0.98448 0.47324 0.5565 0.0
C1902 C 0.99338 0.47518 0.53504 0.0
C1903 C 1.01187 0.4927 0.53193 0.0
H1904 H 0.51107 0.1703 0.28165 0.0
H1905 H 0.47491 0.18886 0.3394 0.0
H1906 H 0.48328 0.18648 0.25552 0.0
H1907 H 0.44779 0.20585 0.31334 0.0
H1908 H 0.40808 0.2417 0.25966 0.0
H1909 H 0.44678 0.23706 0.27887 0.0
H1910 H 0.43384 0.1669 0.25161 0.0
H1911 H 0.39471 0.17132 0.23274 0.0
C1912 C 0.49804 0.17894 0.28895 0.0
C1913 C 0.49514 0.17839 0.31258 0.0
C1914 C 0.48204 0.18798 0.27394 0.0
C1915 C 0.46345 0.19725 0.28249 0.0
C1916 C 0.46214 0.19891 0.30642 0.0
C1917 C 0.47769 0.1893 0.32133 0.0
C1918 C 0.41386 0.22552 0.25698 0.0
C1919 C 0.3984 0.20683 0.24465 0.0
C1920 C 0.43595 0.22289 0.2681 0.0
C1921 C 0.44318 0.20168 0.26664 0.0
C1922 C 0.42868 0.1835 0.25273 0.0
C1923 C 0.40633 0.18598 0.24199 0.0
H1924 H 0.43295 0.16076 0.57029 0.0
H1925 H 0.40909 0.12254 0.50485 0.0
H1926 H 0.46882 0.14293 0.57361 0.0
H1927 H 0.44441 0.10539 0.50767 0.0
H1928 H 0.50502 0.06411 0.51775 0.0
H1929 H 0.4701 0.08247 0.51572 0.0
H1930 H 0.50512 0.13193 0.57076 0.0
H1931 H 0.53991 0.11291 0.573 0.0
C1932 C 0.43519 0.14883 0.55635 0.0
C1933 C 0.41708 0.14368 0.53718 0.0
C1934 C 0.45624 0.13826 0.55824 0.0
C1935 C 0.46076 0.1218 0.54111 0.0
C1936 C 0.44268 0.11717 0.5219 0.0
C1937 C 0.42183 0.12752 0.52011 0.0
C1938 C 0.50553 0.07888 0.52957 0.0
C1939 C 0.52624 0.08645 0.5456 0.0
C1940 C 0.48501 0.08991 0.52832 0.0
C1941 C 0.48348 0.10958 0.54289 0.0
C1942 C 0.50432 0.11708 0.55901 0.0
C1943 C 0.52485 0.10595 0.56031 0.0
H1944 H 0.7236 0.66261 0.38875 0.0
H1945 H 0.782 0.63582 0.36274 0.0
H1946 H 0.74152 0.70095 0.37918 0.0
H1947 H 0.80043 0.67367 0.3548 0.0
H1948 H 0.83663 0.74557 0.35905 0.0
H1949 H 0.81659 0.7147 0.37912 0.0
H1950 H 0.75119 0.71357 0.3346 0.0
H1951 H 0.77124 0.74455 0.3141 0.0
C1952 C 0.74066 0.66511 0.38187 0.0
C1953 C 0.7521 0.64658 0.37751 0.0
C1954 C 0.75078 0.68685 0.37638 0.0
C1955 C 0.77248 0.69011 0.36671 0.0
C1956 C 0.78399 0.67162 0.3628 0.0
C1957 C 0.77363 0.65002 0.36766 0.0
C1958 C 0.81789 0.73904 0.35366 0.0
C1959 C 0.80564 0.74712 0.33461 0.0
C1960 C 0.80643 0.72153 0.36533 0.0
C1961 C 0.78247 0.71197 0.35836 0.0
C1962 C 0.76966 0.72097 0.34037 0.0
C1963 C 0.78121 0.73841 0.32848 0.0
H1964 H 1.0269 0.53256 0.89212 0.0
H1965 H 0.97651 0.54495 0.83603 0.0
H1966 H 1.00995 0.49151 0.8865 0.0
H1967 H 0.95972 0.50477 0.83054 0.0
H1968 H 0.95107 0.43169 0.80829 0.0
H1969 H 0.97421 0.47 0.81653 0.0
H1970 H 0.96931 0.46517 0.88949 0.0
H1971 H 0.94611 0.42667 0.88126 0.0
C1972 C 1.01222 0.52647 0.87874 0.0
C1973 C 1.00264 0.54173 0.86477 0.0
C1974 C 1.00254 0.50316 0.87553 0.0
C1975 C 0.98374 0.49501 0.85788 0.0
C1976 C 0.97447 0.51047 0.84397 0.0
C1977 C 0.98388 0.5335 0.8473 0.0
C1978 C 0.95506 0.43873 0.82609 0.0
C1979 C 0.9465 0.42634 0.84407 0.0
C1980 C 0.96835 0.4606 0.83082 0.0
C1981 C 0.97328 0.47058 0.85362 0.0
C1982 C 0.96589 0.45779 0.87179 0.0
C1983 C 0.95258 0.43581 0.86704 0.0
H1984 H 0.12413 0.92413 0.13928 0.0
H1985 H 0.07433 0.87761 0.09016 0.0
H1986 H 0.10945 0.95604 0.12263 0.0
H1987 H 0.05924 0.90968 0.07388 0.0
H1988 H 0.0598 0.97732 0.03688 0.0
H1989 H 0.07059 0.94263 0.05181 0.0
H1990 H 0.07355 0.97231 0.12168 0.0
H1991 H 0.06349 1.00697 0.10679 0.0
C1992 C 0.11002 0.92068 0.12497 0.0
C1993 C 0.10032 0.89828 0.11618 0.0
C1994 C 0.10146 0.93898 0.11553 0.0
C1995 C 0.0829 0.93535 0.09718 0.0
C1996 C 0.07358 0.91301 0.08797 0.0
C1997 C 0.08222 0.89466 0.09736 0.0
C1998 C 0.06225 0.97615 0.05541 0.0
C1999 C 0.06109 0.99484 0.07071 0.0
C2000 C 0.06848 0.95635 0.06396 0.0
C2001 C 0.07344 0.95497 0.08792 0.0
C2002 C 0.07054 0.97312 0.10313 0.0
C2003 C 0.06457 0.99288 0.09461 0.0
H2004 H 0.94303 0.24638 0.88477 0.0
H2005 H 0.95856 0.2006 0.83089 0.0
H2006 H 0.90312 0.24444 0.86551 0.0
H2007 H 0.91785 0.19785 0.8114 0.0
H2008 H 0.86753 0.24201 0.77084 0.0
H2009 H 0.89654 0.22122 0.78939 0.0
H2010 H 0.86453 0.22587 0.85299 0.0
H2011 H 0.83558 0.24636 0.8343 0.0
C2012 C 0.93759 0.23551 0.86891 0.0
C2013 C 0.95397 0.22437 0.85877 0.0
C2014 C 0.9145 0.23406 0.85792 0.0
C2015 C 0.90698 0.22093 0.83672 0.0
C2016 C 0.92301 0.20835 0.82749 0.0
C2017 C 0.94633 0.21 0.83851 0.0
C2018 C 0.8661 0.2376 0.78845 0.0
C2019 C 0.84985 0.24617 0.80139 0.0
C2020 C 0.88288 0.22588 0.79924 0.0
C2021 C 0.88404 0.22347 0.82321 0.0
C2022 C 0.86506 0.22862 0.83486 0.0
C2023 C 0.84828 0.24013 0.8241 0.0
H2024 H 0.63576 0.29411 0.69995 0.0
H2025 H 0.66924 0.30632 0.63796 0.0
H2026 H 0.63953 0.25409 0.69562 0.0
H2027 H 0.67206 0.26617 0.6327 0.0
H2028 H 0.6811 0.19374 0.63028 0.0
H2029 H 0.6872 0.23402 0.64345 0.0
H2030 H 0.6194 0.22269 0.6715 0.0
H2031 H 0.61395 0.18248 0.6591 0.0
C2032 C 0.64385 0.28807 0.68533 0.0
C2033 C 0.65104 0.30274 0.66855 0.0
C2034 C 0.64596 0.2652 0.68278 0.0
C2035 C 0.65548 0.25667 0.66346 0.0
C2036 C 0.66461 0.272 0.64779 0.0
C2037 C 0.66256 0.2949 0.65046 0.0
C2038 C 0.66771 0.19994 0.63953 0.0
C2039 C 0.647 0.18512 0.64359 0.0
C2040 C 0.67113 0.223 0.647 0.0
C2041 C 0.65373 0.23174 0.6584 0.0
C2042 C 0.63344 0.21661 0.66318 0.0
C2043 C 0.63019 0.19354 0.65596 0.0
H2044 H 0.58067 0.72023 0.33525 0.0
H2045 H 0.59956 0.76091 0.40034 0.0
H2046 H 0.62199 0.7297 0.32663 0.0
H2047 H 0.64075 0.77092 0.39131 0.0
H2048 H 0.68409 0.8121 0.33418 0.0
H2049 H 0.6494 0.79553 0.35285 0.0
H2050 H 0.66915 0.72929 0.34464 0.0
H2051 H 0.70427 0.74599 0.32654 0.0
C2052 C 0.59386 0.73057 0.348 0.0
C2053 C 0.58705 0.73994 0.36838 0.0
C2054 C 0.61741 0.73594 0.3431 0.0
C2055 C 0.63426 0.75113 0.35828 0.0
C2056 C 0.62792 0.75915 0.37944 0.0
C2057 C 0.60447 0.75333 0.38461 0.0
C2058 C 0.68113 0.79409 0.33671 0.0
C2059 C 0.69658 0.78023 0.32895 0.0
C2060 C 0.66154 0.78469 0.34752 0.0
C2061 C 0.65693 0.76125 0.35026 0.0
C2062 C 0.6726 0.74744 0.34284 0.0
C2063 C 0.69251 0.75694 0.3325 0.0
H2064 H 0.08358 0.20831 0.42193 0.0
H2065 H 0.10348 0.24427 0.48894 0.0
H2066 H 0.08151 0.17191 0.43963 0.0
H2067 H 0.1015 0.20805 0.50676 0.0
H2068 H 0.0815 0.13869 0.53918 0.0
H2069 H 0.08352 0.17471 0.52108 0.0
H2070 H 0.09527 0.14131 0.45695 0.0
H2071 H 0.09317 0.10521 0.47523 0.0
C2072 C 0.08766 0.20873 0.4405 0.0
C2073 C 0.09382 0.23024 0.4535 0.0
C2074 C 0.08654 0.18736 0.45094 0.0
C2075 C 0.09121 0.18575 0.47527 0.0
C2076 C 0.09734 0.20738 0.48819 0.0
C2077 C 0.09868 0.22872 0.47773 0.0
C2078 C 0.08447 0.13871 0.52115 0.0
C2079 C 0.08701 0.11797 0.50918 0.0
C2080 C 0.08584 0.15995 0.51051 0.0
C2081 C 0.08969 0.16222 0.48692 0.0
C2082 C 0.09206 0.14135 0.47489 0.0
C2083 C 0.09091 0.12012 0.48563 0.0
H2084 H 0.63897 0.31273 0.23018 0.0
H2085 H 0.66867 0.30785 0.16563 0.0
H2086 H 0.67822 0.3125 0.25133 0.0
H2087 H 0.7082 0.30797 0.18681 0.0
H2088 H 0.78199 0.32971 0.2328 0.0
H2089 H 0.74278 0.32977 0.21151 0.0
H2090 H 0.7091 0.2902 0.26225 0.0
H2091 H 0.7485 0.28988 0.28341 0.0
C2092 C 0.65385 0.31174 0.22032 0.0
C2093 C 0.65002 0.31042 0.19584 0.0
C2094 C 0.67665 0.31143 0.23263 0.0
C2095 C 0.69715 0.31018 0.22122 0.0
C2096 C 0.69338 0.30916 0.19668 0.0
C2097 C 0.67041 0.30903 0.18434 0.0
C2098 C 0.76632 0.32098 0.23961 0.0
C2099 C 0.76909 0.30985 0.26025 0.0
C2100 C 0.74351 0.32089 0.22712 0.0
C2101 C 0.722 0.31 0.23472 0.0
C2102 C 0.72475 0.29904 0.25553 0.0
C2103 C 0.74765 0.29877 0.26781 0.0
H2104 H 0.59091 0.85989 0.98038 0.0
H2105 H 0.58927 0.89079 0.91572 0.0
H2106 H 0.58937 0.89705 1.00056 0.0
H2107 H 0.58764 0.92723 0.93545 0.0
H2108 H 0.56717 0.99144 0.97159 0.0
H2109 H 0.56931 0.9542 0.95299 0.0
H2110 H 0.60305 0.93573 1.01676 0.0
H2111 H 0.60088 0.97321 0.03533 0.0
C2112 C 0.59038 0.87436 0.97019 0.0
C2113 C 0.59037 0.87111 0.94576 0.0
C2114 C 0.58947 0.89623 0.982 0.0
C2115 C 0.58811 0.91645 0.97028 0.0
C2116 C 0.58821 0.913 0.94595 0.0
C2117 C 0.58938 0.89143 0.93431 0.0
C2118 C 0.57524 0.97969 0.98189 0.0
C2119 C 0.58394 0.98656 1.00547 0.0
C2120 C 0.57661 0.95775 0.97095 0.0
C2121 C 0.58655 0.94061 0.98268 0.0
C2122 C 0.59505 0.94744 1.00638 0.0
C2123 C 0.59392 0.96954 1.01727 0.0
H2124 H 1.01939 0.84221 0.71968 0.0
H2125 H 0.99426 0.77596 0.68441 0.0
H2126 H 0.98382 0.83924 0.73898 0.0
H2127 H 0.95803 0.77258 0.70443 0.0
H2128 H 0.88638 0.77315 0.73801 0.0
H2129 H 0.92158 0.77514 0.7171 0.0
H2130 H 0.95781 0.83152 0.76431 0.0
H2131 H 0.92244 0.82971 0.7846 0.0
C2132 C 1.0063 0.82674 0.71578 0.0
C2133 C 1.01082 0.80949 0.69974 0.0
C2134 C 0.98529 0.82488 0.72743 0.0
C2135 C 0.96676 0.80545 0.72436 0.0
C2136 C 0.97099 0.78813 0.70797 0.0
C2137 C 0.99223 0.79007 0.69609 0.0
C2138 C 0.90181 0.78607 0.74413 0.0
C2139 C 0.90059 0.80122 0.7636 0.0
C2140 C 0.92257 0.78723 0.73185 0.0
C2141 C 0.94385 0.80368 0.73804 0.0
C2142 C 0.94256 0.81864 0.75778 0.0
C2143 C 0.9218 0.8175 0.76998 0.0
H2144 H 0.19001 0.10834 0.93655 0.0
H2145 H 0.21516 0.0447 0.94198 0.0
H2146 H 0.1583 0.09548 0.96014 0.0
H2147 H 0.18293 0.03135 0.96527 0.0
H2148 H 0.1309 0.02842 0.02322 0.0
H2149 H 0.1652 0.03749 1.00177 0.0
H2150 H 0.12184 0.0666 0.95058 0.0
H2151 H 0.0877 0.05814 0.97228 0.0
C2152 C 0.18909 0.09184 0.94349 0.0
C2153 C 0.20494 0.07753 0.93784 0.0
C2154 C 0.17075 0.0843 0.95657 0.0
C2155 C 0.16776 0.06216 0.96389 0.0
C2156 C 0.18478 0.04845 0.95972 0.0
C2157 C 0.20332 0.05612 0.94667 0.0
C2158 C 0.12856 0.03638 1.00715 0.0
C2159 C 0.10676 0.04306 0.99967 0.0
C2160 C 0.14823 0.04155 0.99491 0.0
C2161 C 0.14634 0.0534 0.97498 0.0
C2162 C 0.12394 0.05809 0.96635 0.0
C2163 C 0.1043 0.05297 0.97859 0.0
H2164 H 0.81857 0.34284 0.6028 0.0
H2165 H 0.87824 0.3941 0.63208 0.0
H2166 H 0.81539 0.32809 0.64057 0.0
H2167 H 0.87656 0.37849 0.66947 0.0
H2168 H 0.85579 0.35924 0.74011 0.0
H2169 H 0.85979 0.37425 0.7025 0.0
H2170 H 0.82807 0.30791 0.66902 0.0
H2171 H 0.82248 0.29381 0.70662 0.0
C2172 C 0.83125 0.35076 0.6173 0.0
C2173 C 0.84856 0.36972 0.61438 0.0
C2174 C 0.82965 0.34216 0.63911 0.0
C2175 C 0.84577 0.35184 0.65864 0.0
C2176 C 0.86335 0.37066 0.6554 0.0
C2177 C 0.86449 0.3796 0.63374 0.0
C2178 C 0.84998 0.34788 0.72464 0.0
C2179 C 0.83894 0.32532 0.72636 0.0
C2180 C 0.85229 0.35645 0.70288 0.0
C2181 C 0.84414 0.34253 0.68213 0.0
C2182 C 0.83398 0.31962 0.68417 0.0
C2183 C 0.83107 0.3113 0.70587 0.0
H2184 H 0.51864 0.13667 0.42014 0.0
H2185 H 0.585 0.14778 0.38957 0.0
H2186 H 0.54056 0.13237 0.45714 0.0
H2187 H 0.60682 0.14363 0.4267 0.0
H2188 H 0.58358 0.12468 0.5226 0.0
H2189 H 0.57162 0.14666 0.49076 0.0
H2190 H 0.60557 0.10678 0.44444 0.0
H2191 H 0.61738 0.08491 0.47608 0.0
C2192 C 0.53795 0.13895 0.42143 0.0
C2193 C 0.54994 0.14196 0.40166 0.0
C2194 C 0.55056 0.1366 0.44274 0.0
C2195 C 0.57539 0.13725 0.44471 0.0
C2196 C 0.58764 0.14267 0.42558 0.0
C2197 C 0.57507 0.14508 0.40429 0.0
C2198 C 0.58927 0.12122 0.5058 0.0
C2199 C 0.60125 0.10297 0.50173 0.0
C2200 C 0.58224 0.13369 0.48756 0.0
C2201 C 0.58745 0.12832 0.46507 0.0
C2202 C 0.60143 0.1115 0.46158 0.0
C2203 C 0.60813 0.09887 0.4797 0.0
H2204 H 0.85109 0.67718 0.12888 0.0
H2205 H 0.85693 0.74281 0.10159 0.0
H2206 H 0.84892 0.69481 0.16762 0.0
H2207 H 0.85423 0.7604 0.14011 0.0
H2208 H 0.82553 0.7838 0.20879 0.0
H2209 H 0.82899 0.76617 0.17053 0.0
H2210 H 0.86872 0.71904 0.20247 0.0
H2211 H 0.86567 0.73708 0.2408 0.0
C2212 C 0.85203 0.69542 0.13095 0.0
C2213 C 0.85441 0.70822 0.11133 0.0
C2214 C 0.8508 0.70573 0.15355 0.0
C2215 C 0.85126 0.72946 0.15793 0.0
C2216 C 0.85353 0.74219 0.13822 0.0
C2217 C 0.85529 0.73196 0.11575 0.0
C2218 C 0.83506 0.76967 0.20791 0.0
C2219 C 0.84516 0.7622 0.22874 0.0
C2220 C 0.83721 0.75945 0.18555 0.0
C2221 C 0.84919 0.74073 0.18246 0.0
C2222 C 0.85912 0.73311 0.20334 0.0
C2223 C 0.85741 0.74367 0.22572 0.0
H2224 H 0.20439 0.08722 0.78878 0.0
H2225 H 0.14409 0.05666 0.82216 0.0
H2226 H 0.1783 0.08579 0.75275 0.0
H2227 H 0.11796 0.05546 0.78603 0.0
H2228 H 0.08644 0.04049 0.70738 0.0
H2229 H 0.11031 0.03811 0.74428 0.0
H2230 H 0.14564 0.10758 0.74193 0.0
H2231 H 0.12259 0.10982 0.70514 0.0
C2232 C 0.18564 0.07996 0.78835 0.0
C2233 C 0.17622 0.07229 0.80831 0.0
C2234 C 0.17069 0.07929 0.76779 0.0
C2235 C 0.14608 0.07087 0.76679 0.0
C2236 C 0.13686 0.06204 0.78639 0.0
C2237 C 0.15182 0.0628 0.80703 0.0
C2238 C 0.09912 0.05529 0.71494 0.0
C2239 C 0.1026 0.07533 0.70335 0.0
C2240 C 0.11271 0.05394 0.73601 0.0
C2241 C 0.13008 0.07253 0.74565 0.0
C2242 C 0.13269 0.09285 0.73463 0.0
C2243 C 0.11913 0.09424 0.71373 0.0
H2244 H 0.85642 0.35059 0.48727 0.0
H2245 H 0.82478 0.4067 0.46345 0.0
H2246 H 0.8511 0.33322 0.44748 0.0
H2247 H 0.81853 0.38919 0.42422 0.0
H2248 H 0.83642 0.36793 0.35287 0.0
H2249 H 0.83884 0.38313 0.39283 0.0
H2250 H 0.82632 0.31479 0.41465 0.0
H2251 H 0.82484 0.29967 0.37468 0.0
C2252 C 0.84784 0.35896 0.47366 0.0
C2253 C 0.84119 0.38013 0.47864 0.0
C2254 C 0.84475 0.34902 0.45073 0.0
C2255 C 0.83468 0.35987 0.43221 0.0
C2256 C 0.82702 0.3805 0.4376 0.0
C2257 C 0.83039 0.3905 0.4603 0.0
C2258 C 0.83394 0.35611 0.36612 0.0
C2259 C 0.83037 0.33252 0.36034 0.0
C2260 C 0.83524 0.36484 0.38922 0.0
C2261 C 0.83276 0.3503 0.40737 0.0
C2262 C 0.82872 0.32667 0.40145 0.0
C2263 C 0.82763 0.31794 0.37836 0.0
H2264 H 0.60746 0.14598 0.29403 0.0
H2265 H 0.54145 0.12378 0.24922 0.0
H2266 H 0.63001 0.14332 0.26086 0.0
H2267 H 0.56387 0.12109 0.21627 0.0
H2268 H 0.64962 0.0899 0.20449 0.0
H2269 H 0.63565 0.10854 0.23744 0.0
H2270 H 0.59119 0.14156 0.19094 0.0
H2271 H 0.60452 0.12246 0.15805 0.0
C2272 C 0.59777 0.14097 0.27705 0.0
C2273 C 0.57273 0.13478 0.2742 0.0
C2274 C 0.61067 0.13944 0.25811 0.0
C2275 C 0.59871 0.13199 0.23602 0.0
C2276 C 0.5736 0.12718 0.23303 0.0
C2277 C 0.56074 0.12849 0.25194 0.0
C2278 C 0.63738 0.10163 0.20134 0.0
C2279 C 0.62784 0.10434 0.17871 0.0
C2280 C 0.62952 0.11246 0.2202 0.0
C2281 C 0.61198 0.12614 0.2167 0.0
C2282 C 0.60445 0.13081 0.19409 0.0
C2283 C 0.61231 0.12002 0.17525 0.0
H2284 H 0.84318 0.67192 0.94339 0.0
H2285 H 0.85285 0.73446 0.9863 0.0
H2286 H 0.84227 0.69268 0.90899 0.0
H2287 H 0.85151 0.75567 0.95143 0.0
H2288 H 0.85831 0.79389 0.88313 0.0
H2289 H 0.86058 0.77389 0.91861 0.0
H2290 H 0.82937 0.71084 0.87901 0.0
H2291 H 0.82762 0.73083 0.84385 0.0
C2292 C 0.84515 0.69025 0.94582 0.0
C2293 C 0.84823 0.70083 0.96875 0.0
C2294 C 0.8444 0.70255 0.92543 0.0
C2295 C 0.84657 0.72667 0.926 0.0
C2296 C 0.84983 0.73739 0.94903 0.0
C2297 C 0.85059 0.72496 0.9696 0.0
C2298 C 0.85204 0.77569 0.88174 0.0
C2299 C 0.84292 0.76452 0.85954 0.0
C2300 C 0.8532 0.7639 0.90264 0.0
C2301 C 0.84534 0.73995 0.90306 0.0
C2302 C 0.8362 0.72891 0.88072 0.0
C2303 C 0.83504 0.74068 0.85991 0.0
H2304 H 0.86294 0.19364 0.9828 0.0
H2305 H 0.87089 0.18924 0.05661 0.0
H2306 H 0.89556 0.1727 0.97921 0.0
H2307 H 0.90309 0.16754 0.05309 0.0
H2308 H 0.96487 0.13169 0.0392 0.0
H2309 H 0.94236 0.16272 0.04264 0.0
H2310 H 0.89426 0.13256 0.98251 0.0
H2311 H 0.91667 0.1017 0.97911 0.0
C2312 C 0.87233 0.18888 0.99835 0.0
C2313 C 0.86451 0.19302 0.01997 0.0
C2314 C 0.89075 0.1766 0.99629 0.0
C2315 C 0.90147 0.16788 1.01577 0.0
C2316 C 0.89524 0.17401 0.03772 0.0
C2317 C 0.87691 0.18658 0.03981 0.0
C2318 C 0.94945 0.13171 0.02673 0.0
C2319 C 0.94245 0.11412 1.00895 0.0
C2320 C 0.93664 0.14954 0.02867 0.0
C2321 C 0.91659 0.15023 1.01281 0.0
C2322 C 0.90993 0.13288 0.99475 0.0
C2323 C 0.92272 0.11509 0.99283 0.0
H2324 H 0.38273 0.48432 0.06925 0.0
H2325 H 0.39982 0.42764 0.02974 0.0
H2326 H 0.42249 0.50615 0.06663 0.0
H2327 H 0.43992 0.44885 0.0276 0.0
H2328 H 0.50788 0.49532 1.01165 0.0
H2329 H 0.46775 0.47456 1.01397 0.0
H2330 H 0.46251 0.51799 0.0743 0.0
H2331 H 0.50238 0.53922 0.07124 0.0
C2332 C 0.39491 0.47646 0.05978 0.0
C2333 C 0.38717 0.45428 0.04891 0.0
C2334 C 0.41826 0.48902 0.05849 0.0
C2335 C 0.43544 0.48001 0.04649 0.0
C2336 C 0.4278 0.45733 0.03646 0.0
C2337 C 0.40448 0.44481 0.03784 0.0
C2338 C 0.49822 0.50066 0.02539 0.0
C2339 C 0.50907 0.5194 0.04114 0.0
C2340 C 0.47482 0.48838 0.02695 0.0
C2341 C 0.46082 0.49385 0.04454 0.0
C2342 C 0.47173 0.51279 0.06019 0.0
C2343 C 0.49509 0.52519 0.0585 0.0
H2344 H 0.35995 0.55077 0.76797 0.0
H2345 H 0.40974 0.58598 0.72547 0.0
H2346 H 0.34045 0.58363 0.77046 0.0
H2347 H 0.38971 0.61875 0.72762 0.0
H2348 H 0.37283 0.68041 0.77122 0.0
H2349 H 0.38838 0.64667 0.7597 0.0
H2350 H 0.31663 0.60773 0.74914 0.0
H2351 H 0.30098 0.64173 0.76079 0.0
C2352 C 0.36659 0.5654 0.75892 0.0
C2353 C 0.3867 0.56591 0.74686 0.0
C2354 C 0.3552 0.58414 0.76015 0.0
C2355 C 0.36364 0.60375 0.74932 0.0
C2356 C 0.38304 0.60391 0.73637 0.0
C2357 C 0.39447 0.58515 0.73513 0.0
C2358 C 0.36032 0.66477 0.76597 0.0
C2359 C 0.33571 0.66363 0.76694 0.0
C2360 C 0.36922 0.64547 0.7593 0.0
C2361 C 0.3537 0.62461 0.75349 0.0
C2362 C 0.32899 0.62358 0.75376 0.0
C2363 C 0.32006 0.64296 0.76047 0.0
H2364 H 0.22029 0.70621 0.51766 0.0
H2365 H 0.2661 0.66313 0.54812 0.0
H2366 H 0.18559 0.67588 0.51798 0.0
H2367 H 0.23215 0.63256 0.54759 0.0
H2368 H 0.13415 0.6098 0.49505 0.0
H2369 H 0.16795 0.64104 0.4981 0.0
H2370 H 0.19742 0.61678 0.56124 0.0
H2371 H 0.16415 0.58503 0.5575 0.0
C2372 C 0.22284 0.69025 0.52449 0.0
C2373 C 0.24585 0.6866 0.53206 0.0
C2374 C 0.20307 0.67275 0.52448 0.0
C2375 C 0.20596 0.65138 0.5323 0.0
C2376 C 0.22894 0.6486 0.54146 0.0
C2377 C 0.24855 0.66606 0.54151 0.0
C2378 C 0.14807 0.61095 0.50938 0.0
C2379 C 0.14653 0.59478 0.52592 0.0
C2380 C 0.16735 0.62911 0.51134 0.0
C2381 C 0.18548 0.6318 0.53009 0.0
C2382 C 0.1841 0.61528 0.54637 0.0
C2383 C 0.16498 0.59694 0.54422 0.0
H2384 H 0.69263 0.92913 0.765 0.0
H2385 H 0.68314 0.96501 0.8288 0.0
H2386 H 0.71686 0.90578 0.78682 0.0
H2387 H 0.70692 0.94159 0.85059 0.0
H2388 H 0.78696 0.93181 0.86597 0.0
H2389 H 0.75066 0.94498 0.85126 0.0
H2390 H 0.72246 0.87832 0.81715 0.0
H2391 H 0.75895 0.86519 0.83175 0.0
C2392 C 0.69487 0.93132 0.78371 0.0
C2393 C 0.68636 0.94901 0.79522 0.0
C2394 C 0.70876 0.91801 0.79624 0.0
C2395 C 0.71417 0.9222 0.82041 0.0
C2396 C 0.70345 0.93828 0.83198 0.0
C2397 C 0.68975 0.95159 0.81951 0.0
C2398 C 0.77272 0.91982 0.8559 0.0
C2399 C 0.77585 0.89756 0.84995 0.0
C2400 C 0.75186 0.92729 0.84752 0.0
C2401 C 0.73376 0.9127 0.83286 0.0
C2402 C 0.73618 0.88997 0.82824 0.0
C2403 C 0.75697 0.88242 0.83683 0.0
H2404 H 0.75553 0.95191 0.57715 0.0
H2405 H 0.75644 0.96485 0.50556 0.0
H2406 H 0.71999 0.97019 0.57849 0.0
H2407 H 0.72109 0.98252 0.50669 0.0
H2408 H 0.64463 1.00023 0.50811 0.0
H2409 H 0.67888 0.98051 0.50779 0.0
H2410 H 0.70211 1.00524 0.57867 0.0
H2411 H 0.668 0.02536 0.57878 0.0
C2412 C 0.74806 0.95808 0.56144 0.0
C2413 C 0.75951 0.95604 0.54108 0.0
C2414 C 0.72746 0.96905 0.56225 0.0
C2415 C 0.71662 0.97834 0.54268 0.0
C2416 C 0.72787 0.97576 0.52233 0.0
C2417 C 0.74861 0.96534 0.52166 0.0
C2418 C 0.65694 1.00169 0.52375 0.0
C2419 C 0.65273 1.01502 0.54341 0.0
C2420 C 0.67708 0.99021 0.52357 0.0
C2421 C 0.69431 0.99073 0.5432 0.0
C2422 C 0.68984 1.00377 0.56301 0.0
C2423 C 0.66995 1.01566 0.56303 0.0
H2424 H 0.39137 0.45877 0.71771 0.0
H2425 H 0.46171 0.45555 0.75026 0.0
H2426 H 0.37859 0.41872 0.72158 0.0
H2427 H 0.44977 0.41465 0.75279 0.0
H2428 H 0.40791 0.36243 0.79492 0.0
H2429 H 0.42856 0.39428 0.77742 0.0
H2430 H 0.37507 0.38068 0.71767 0.0
H2431 H 0.35378 0.34915 0.73597 0.0
C2432 C 0.40418 0.44918 0.72543 0.0
C2433 C 0.42693 0.46019 0.73508 0.0
C2434 C 0.39708 0.42601 0.72721 0.0
C2435 C 0.41285 0.41331 0.73835 0.0
C2436 C 0.43674 0.424 0.74516 0.0
C2437 C 0.4437 0.44736 0.74362 0.0
C2438 C 0.40057 0.36617 0.778 0.0
C2439 C 0.37876 0.35378 0.76719 0.0
C2440 C 0.41269 0.38435 0.76766 0.0
C2441 C 0.40327 0.39069 0.74625 0.0
C2442 C 0.38245 0.37699 0.73458 0.0
C2443 C 0.37018 0.35887 0.74505 0.0
H2444 H 0.20336 0.55394 0.22632 0.0
H2445 H 0.14205 0.57578 0.25155 0.0
H2446 H 0.21979 0.59327 0.21992 0.0
H2447 H 0.15874 0.61514 0.24652 0.0
H2448 H 0.18728 0.68411 0.22777 0.0
H2449 H 0.16928 0.644 0.22257 0.0
H2450 H 0.23834 0.62619 0.24237 0.0
H2451 H 0.25635 0.66615 0.24674 0.0
C2452 C 0.19356 0.5673 0.2306 0.0
C2453 C 0.17199 0.56224 0.24017 0.0
C2454 C 0.20288 0.58978 0.22696 0.0
C2455 C 0.19081 0.60753 0.233 0.0
C2456 C 0.16848 0.60203 0.24138 0.0
C2457 C 0.15901 0.57954 0.24457 0.0
C2458 C 0.19864 0.67158 0.23073 0.0
C2459 C 0.22317 0.6783 0.23808 0.0
C2460 C 0.18829 0.64856 0.22796 0.0
C2461 C 0.20221 0.63176 0.23259 0.0
C2462 C 0.22696 0.63854 0.23878 0.0
C2463 C 0.23729 0.66152 0.2416 0.0
H2464 H 0.53034 0.66905 0.41857 0.0
H2465 H 0.54283 0.72397 0.47242 0.0
H2466 H 0.54614 0.64441 0.44587 0.0
H2467 H 0.55868 0.69932 0.49965 0.0
H2468 H 0.55554 0.63491 0.54351 0.0
H2469 H 0.54387 0.66389 0.51894 0.0
H2470 H 0.58612 0.64243 0.46729 0.0
H2471 H 0.59754 0.61342 0.49191 0.0
C2472 C 0.53624 0.67578 0.43627 0.0
C2473 C 0.53535 0.6984 0.44337 0.0
C2474 C 0.54555 0.66178 0.45181 0.0
C2475 C 0.55394 0.67009 0.47478 0.0
C2476 C 0.55238 0.69251 0.48205 0.0
C2477 C 0.54329 0.70657 0.46646 0.0
C2478 C 0.56307 0.63715 0.52732 0.0
C2479 C 0.5778 0.62249 0.51966 0.0
C2480 C 0.55627 0.65353 0.5132 0.0
C2481 C 0.56387 0.65517 0.49111 0.0
C2482 C 0.57976 0.6413 0.48411 0.0
C2483 C 0.58661 0.62501 0.49828 0.0
H2484 H 0.68797 0.41008 0.73374 0.0
H2485 H 0.72516 0.38568 0.67927 0.0
H2486 H 0.72235 0.40899 0.76179 0.0
H2487 H 0.75934 0.38443 0.70729 0.0
H2488 H 0.81565 0.37482 0.76078 0.0
H2489 H 0.79199 0.39882 0.73929 0.0
H2490 H 0.73049 0.37121 0.7725 0.0
H2491 H 0.75397 0.34733 0.79372 0.0
C2492 C 0.70383 0.40542 0.72756 0.0
C2493 C 0.70356 0.39722 0.70441 0.0
C2494 C 0.7235 0.40472 0.74368 0.0
C2495 C 0.74322 0.39596 0.73686 0.0
C2496 C 0.74437 0.39116 0.71315 0.0
C2497 C 0.72468 0.3918 0.69704 0.0
C2498 C 0.79731 0.37454 0.76408 0.0
C2499 C 0.78651 0.35904 0.7787 0.0
C2500 C 0.78377 0.38821 0.75171 0.0
C2501 C 0.75936 0.38684 0.75408 0.0
C2502 C 0.7493 0.37291 0.77042 0.0
C2503 C 0.76269 0.35905 0.78247 0.0
H2504 H 1.02517 0.29774 0.92918 0.0
H2505 H 1.0001 0.32216 0.86441 0.0
H2506 H 1.02991 0.33596 0.94788 0.0
H2507 H 1.00513 0.36044 0.88321 0.0
H2508 H 0.06596 0.41104 0.96283 0.0
H2509 H 0.05761 0.3722 0.94517 0.0
H2510 H 0.98931 0.3832 0.91335 0.0
H2511 H 0.99743 0.42204 0.93132 0.0
C2512 C 1.02051 0.31119 0.91894 0.0
C2513 C 1.01243 0.30689 0.89523 0.0
C2514 C 1.02337 0.33311 0.92966 0.0
C2515 C 1.0181 0.35118 0.91695 0.0
C2516 C 1.00923 0.3468 0.89345 0.0
C2517 C 1.00648 0.32488 0.88267 0.0
C2518 C 0.04902 0.40512 0.95233 0.0
C2519 C 1.03235 0.41963 0.94854 0.0
C2520 C 0.04425 0.38287 0.94221 0.0
C2521 C 1.02277 0.37467 0.92798 0.0
C2522 C 1.00611 0.38915 0.92408 0.0
C2523 C 1.01081 0.4114 0.93432 0.0
H2524 H 0.07429 0.85587 0.20542 0.0
H2525 H 0.04015 0.80237 0.15348 0.0
H2526 H 0.04434 0.84375 0.23048 0.0
H2527 H 1.00933 0.79068 0.17856 0.0
H2528 H 0.98001 0.75924 0.24323 0.0
H2529 H 1.0062 0.77216 0.2142 0.0
H2530 H 1.00374 0.842 0.23598 0.0
H2531 H 0.97847 0.82905 0.26534 0.0
C2532 C 0.06013 0.84174 0.19912 0.0
C2533 C 0.05978 0.82998 0.17745 0.0
C2534 C 0.04279 0.83487 0.21351 0.0
C2535 C 1.02444 0.81619 0.20657 0.0
C2536 C 1.02346 0.80493 0.18453 0.0
C2537 C 0.04098 0.81177 0.17008 0.0
C2538 C 0.98521 0.77732 0.24172 0.0
C2539 C 0.97775 0.79319 0.25676 0.0
C2540 C 0.99996 0.78473 0.225 0.0
C2541 C 1.00719 0.80813 0.22288 0.0
C2542 C 0.99897 0.82389 0.23749 0.0
C2543 C 0.98456 0.8165 0.25434 0.0
H2544 H 0.5367 0.37051 0.12096 0.0
H2545 H 0.61274 0.37403 0.12759 0.0
H2546 H 0.54132 0.40795 0.10509 0.0
H2547 H 0.61732 0.41115 0.11048 0.0
H2548 H 0.61133 0.46886 0.05398 0.0
H2549 H 0.6086 0.43218 0.07179 0.0
H2550 H 0.55692 0.45163 0.11386 0.0
H2551 H 0.56059 0.48861 0.097 0.0
C2552 C 0.55462 0.37913 0.1193 0.0
C2553 C 0.57422 0.36828 0.12654 0.0
C2554 C 0.55732 0.40111 0.1099 0.0
C2555 C 0.57981 0.41377 0.10591 0.0
C2556 C 0.59949 0.4028 0.11281 0.0
C2557 C 0.59684 0.38111 0.12305 0.0
C2558 C 0.59943 0.46566 0.06715 0.0
C2559 C 0.58638 0.48291 0.07361 0.0
C2560 C 0.59786 0.44415 0.07765 0.0
C2561 C 0.58241 0.43775 0.09483 0.0
C2562 C 0.5691 0.45488 0.10093 0.0
C2563 C 0.57131 0.47665 0.09107 0.0
H2564 H 0.03269 0.27201 0.3631 0.0
H2565 H 1.0174 0.31815 0.41655 0.0
H2566 H 0.99335 0.27224 0.34161 0.0
H2567 H 0.97832 0.3189 0.39495 0.0
H2568 H 0.92054 0.33515 0.33868 0.0
H2569 H 0.95896 0.33294 0.3603 0.0
H2570 H 0.94879 0.2614 0.33937 0.0
H2571 H 0.90983 0.26352 0.318 0.0
C2572 C 1.02105 0.28237 0.3703 0.0
C2573 C 1.02901 0.2956 0.3915 0.0
C2574 C 0.99814 0.28238 0.35795 0.0
C2575 C 0.98205 0.29583 0.366 0.0
C2576 C 0.98986 0.30855 0.38757 0.0
C2577 C 1.0125 0.30809 0.40017 0.0
C2578 C 0.92629 0.31881 0.33853 0.0
C2579 C 0.9114 0.29955 0.32618 0.0
C2580 C 0.9486 0.31752 0.35125 0.0
C2581 C 0.95768 0.29696 0.35206 0.0
C2582 C 0.94299 0.27769 0.3394 0.0
C2583 C 0.92033 0.27889 0.32703 0.0
H2584 H 0.05728 0.7426 0.59387 0.0
H2585 H 0.0803 0.71999 0.65957 0.0
H2586 H 0.05884 0.70533 0.57497 0.0
H2587 H 0.08154 0.68252 0.64095 0.0
H2588 H 0.09607 0.61661 0.60212 0.0
H2589 H 0.09414 0.65373 0.62102 0.0
H2590 H 0.04963 0.66795 0.56138 0.0
H2591 H 0.05204 0.63091 0.54247 0.0
C2592 C 0.06252 0.72972 0.60458 0.0
C2593 C 0.06849 0.73529 0.62877 0.0
C2594 C 0.06339 0.70772 0.5935 0.0
C2595 C 0.07039 0.68949 0.60571 0.0
C2596 C 0.07627 0.69518 0.63001 0.0
C2597 C 0.07537 0.71718 0.64107 0.0
C2598 C 0.08576 0.62749 0.59282 0.0
C2599 C 0.07426 0.61969 0.57024 0.0
C2600 C 0.08449 0.64933 0.60397 0.0
C2601 C 0.07164 0.66526 0.59345 0.0
C2602 C 0.0601 0.65732 0.5708 0.0
C2603 C 0.06135 0.63545 0.55968 0.0
H2604 H 0.63847 0.81364 0.85061 0.0
H2605 H 0.67242 0.79572 0.91452 0.0
H2606 H 0.6745 0.81217 0.83233 0.0
H2607 H 0.70945 0.79496 0.89602 0.0
H2608 H 0.78108 0.81645 0.85859 0.0
H2609 H 0.74529 0.81658 0.87871 0.0
H2610 H 0.7009 0.789 0.81594 0.0
H2611 H 0.73669 0.78851 0.79606 0.0
C2612 C 0.65353 0.80929 0.86111 0.0
C2613 C 0.65131 0.8047 0.88461 0.0
C2614 C 0.67472 0.80838 0.85026 0.0
C2615 C 0.69593 0.80337 0.86205 0.0
C2616 C 0.69409 0.79901 0.88573 0.0
C2617 C 0.67242 0.79934 0.89657 0.0
C2618 C 0.76376 0.81053 0.84882 0.0
C2619 C 0.76269 0.80276 0.82509 0.0
C2620 C 0.74282 0.81037 0.86066 0.0
C2621 C 0.71916 0.80285 0.84953 0.0
C2622 C 0.71816 0.7952 0.82575 0.0
C2623 C 0.7391 0.79486 0.81408 0.0
H2624 H 0.45058 0.50475 0.66016 0.0
H2625 H 0.45753 0.57636 0.67982 0.0
H2626 H 0.47712 0.51323 0.63075 0.0
H2627 H 0.48261 0.5853 0.6491 0.0
H2628 H 0.55536 0.59123 0.62246 0.0
H2629 H 0.52234 0.58378 0.64593 0.0
H2630 H 0.48862 0.527 0.59737 0.0
H2631 H 0.52315 0.53294 0.57615 0.0
C2632 C 0.45679 0.52237 0.65722 0.0
C2633 C 0.45221 0.53993 0.67207 0.0
C2634 C 0.47212 0.52733 0.6404 0.0
C2635 C 0.4826 0.55001 0.63787 0.0
C2636 C 0.47562 0.56764 0.65112 0.0
C2637 C 0.46089 0.5626 0.66838 0.0
C2638 C 0.54087 0.57712 0.61708 0.0
C2639 C 0.54109 0.56314 0.59707 0.0
C2640 C 0.5217 0.57305 0.63019 0.0
C2641 C 0.50236 0.55507 0.62329 0.0
C2642 C 0.50301 0.54102 0.60328 0.0
C2643 C 0.52245 0.54476 0.59065 0.0
H2644 H 0.76083 0.2197 0.95024 0.0
H2645 H 0.82791 0.26158 0.97813 0.0
H2646 H 0.76239 0.23758 0.91422 0.0
H2647 H 0.83007 0.27928 0.94127 0.0
H2648 H 0.81866 0.31587 0.87423 0.0
H2649 H 0.81494 0.30279 0.91285 0.0
H2650 H 0.7837 0.23544 0.88214 0.0
H2651 H 0.78675 0.2486 0.84386 0.0
C2652 C 0.7759 0.2329 0.94876 0.0
C2653 C 0.79429 0.23905 0.96713 0.0
C2654 C 0.77694 0.24307 0.92788 0.0
C2655 C 0.79666 0.25954 0.92439 0.0
C2656 C 0.81455 0.26668 0.94322 0.0
C2657 C 0.81332 0.25659 0.96441 0.0
C2658 C 0.81075 0.29832 0.87574 0.0
C2659 C 0.80276 0.28339 0.8558 0.0
C2660 C 0.8088 0.29077 0.89796 0.0
C2661 C 0.79883 0.26805 0.90084 0.0
C2662 C 0.79095 0.25318 0.88081 0.0
C2663 C 0.79279 0.26074 0.8587 0.0
H2664 H 0.08273 0.45987 0.20592 0.0
H2665 H 0.14995 0.47454 0.17743 0.0
H2666 H 0.06141 0.45644 0.1671 0.0
H2667 H 0.12872 0.47154 0.13884 0.0
H2668 H 0.09084 0.47631 0.07219 0.0
H2669 H 0.10105 0.45459 0.10485 0.0
H2670 H 0.05861 0.49024 0.14638 0.0
H2671 H 0.04848 0.51166 0.11393 0.0
C2672 C 0.09301 0.46156 0.19134 0.0
C2673 C 0.11799 0.46818 0.19476 0.0
C2674 C 0.08076 0.45964 0.16909 0.0
C2675 C 0.09331 0.46433 0.14994 0.0
C2676 C 0.11843 0.46783 0.15316 0.0
C2677 C 0.13067 0.46972 0.17539 0.0
C2678 C 0.08284 0.47869 0.088 0.0
C2679 C 0.0692 0.4959 0.09074 0.0
C2680 C 0.08882 0.46638 0.10674 0.0
C2681 C 0.08102 0.47096 0.12834 0.0
C2682 C 0.06489 0.48614 0.13002 0.0
C2683 C 0.05916 0.49858 0.11144 0.0
H2684 H 0.8107 0.92167 0.45336 0.0
H2685 H 0.83576 0.86976 0.49208 0.0
H2686 H 0.81436 0.90052 0.41723 0.0
H2687 H 0.83973 0.84845 0.45558 0.0
H2688 H 0.86585 0.82496 0.38461 0.0
H2689 H 0.86094 0.84453 0.42158 0.0
H2690 H 0.80081 0.86962 0.38849 0.0
H2691 H 0.80559 0.84984 0.35171 0.0
C2692 C 0.81676 0.90554 0.45441 0.0
C2693 C 0.82251 0.89778 0.47652 0.0
C2694 C 0.81889 0.89314 0.43322 0.0
C2695 C 0.82744 0.87222 0.43248 0.0
C2696 C 0.83322 0.86435 0.45461 0.0
C2697 C 0.83065 0.87663 0.47594 0.0
C2698 C 0.85152 0.83464 0.38499 0.0
C2699 C 0.83631 0.83548 0.36428 0.0
C2700 C 0.84854 0.84595 0.40664 0.0
C2701 C 0.83039 0.85922 0.409 0.0
C2702 C 0.81527 0.86011 0.3882 0.0
C2703 C 0.818 0.84849 0.36668 0.0
H2704 H 0.4974 0.54884 0.7781 0.0
H2705 H 0.44983 0.52911 0.82931 0.0
H2706 H 0.53082 0.55842 0.80842 0.0
H2707 H 0.48348 0.53888 0.85961 0.0
H2708 H 0.54516 0.56869 0.91117 0.0
H2709 H 0.51531 0.57178 0.87907 0.0
H2710 H 0.55041 0.53192 0.83389 0.0
H2711 H 0.58043 0.5289 0.86602 0.0
C2712 C 0.49394 0.54686 0.79584 0.0
C2713 C 0.47091 0.53793 0.80125 0.0
C2714 C 0.51315 0.55236 0.81315 0.0
C2715 C 0.50971 0.54933 0.83626 0.0
C2716 C 0.48654 0.54159 0.84189 0.0
C2717 C 0.46731 0.53586 0.82453 0.0
C2718 C 0.54708 0.56136 0.89418 0.0
C2719 C 0.56505 0.54845 0.89105 0.0
C2720 C 0.52982 0.56292 0.87591 0.0
C2721 C 0.53041 0.55183 0.85417 0.0
C2722 C 0.54961 0.54069 0.8505 0.0
C2723 C 0.56674 0.53891 0.86885 0.0
H2724 H 0.80208 0.21408 0.11718 0.0
H2725 H 0.84608 0.27422 0.09767 0.0
H2726 H 0.81201 0.22749 0.15762 0.0
H2727 H 0.8575 0.28724 0.13844 0.0
H2728 H 0.85471 0.31589 0.21289 0.0
H2729 H 0.84773 0.30287 0.17204 0.0
H2730 H 0.83816 0.23311 0.19012 0.0
H2731 H 0.84356 0.24636 0.2309 0.0
C2732 C 0.81422 0.2301 0.12157 0.0
C2733 C 0.82323 0.24304 0.10406 0.0
C2734 C 0.8202 0.23779 0.14499 0.0
C2735 C 0.83588 0.25853 0.15188 0.0
C2736 C 0.84509 0.27139 0.13421 0.0
C2737 C 0.83868 0.26386 0.11068 0.0
C2738 C 0.85144 0.29776 0.20812 0.0
C2739 C 0.84969 0.2822 0.2253 0.0
C2740 C 0.84744 0.29019 0.1845 0.0
C2741 C 0.84197 0.26676 0.17723 0.0
C2742 C 0.84149 0.25126 0.19461 0.0
C2743 C 0.84495 0.25885 0.21819 0.0
H2744 H 0.09213 0.52124 0.2891 0.0
H2745 H 0.15294 0.55554 0.33606 0.0
H2746 H 0.06591 0.54103 0.31011 0.0
H2747 H 0.1268 0.57499 0.35692 0.0
H2748 H 0.08153 0.6192 0.38379 0.0
H2749 H 0.10129 0.60435 0.35255 0.0
H2750 H 0.05204 0.54058 0.3486 0.0
H2751 H 1.03257 0.55507 0.3796 0.0
C2752 C 0.0999 0.53279 0.30399 0.0
C2753 C 0.12467 0.53671 0.31091 0.0
C2754 C 0.08489 0.54425 0.31588 0.0
C2755 C 0.09437 0.55993 0.33484 0.0
C2756 C 0.11903 0.56354 0.34195 0.0
C2757 C 0.13398 0.55207 0.33017 0.0
C2758 C 0.07446 0.60228 0.37575 0.0
C2759 C 0.05583 0.58821 0.38466 0.0
C2760 C 0.08584 0.59374 0.35796 0.0
C2761 C 0.07864 0.57107 0.34867 0.0
C2762 C 0.05807 0.55808 0.35545 0.0
C2763 C 0.04677 0.56656 0.37325 0.0
H2764 H 0.83677 0.92342 0.63949 0.0
H2765 H 0.80674 0.85896 0.60255 0.0
H2766 H 0.8368 0.90532 0.67612 0.0
H2767 H 0.80704 0.84066 0.63889 0.0
H2768 H 0.79652 0.81019 0.70936 0.0
H2769 H 0.79563 0.82889 0.67323 0.0
H2770 H 0.84872 0.88465 0.7059 0.0
H2771 H 0.84918 0.86593 0.7421 0.0
C2772 C 0.83008 0.90532 0.63893 0.0
C2773 C 0.82164 0.89314 0.61714 0.0
C2774 C 0.83023 0.89461 0.66041 0.0
C2775 C 0.82191 0.87087 0.66175 0.0
C2776 C 0.81342 0.8588 0.63982 0.0
C2777 C 0.81333 0.86951 0.6184 0.0
C2778 C 0.80804 0.82651 0.70911 0.0
C2779 C 0.82285 0.83609 0.72964 0.0
C2780 C 0.80769 0.83747 0.68782 0.0
C2781 C 0.82214 0.85893 0.68534 0.0
C2782 C 0.83688 0.86853 0.70603 0.0
C2783 C 0.83725 0.85751 0.72731 0.0
H2784 H 0.79617 0.42651 0.58536 0.0
H2785 H 0.78691 0.43667 0.51266 0.0
H2786 H 0.76456 0.44843 0.5918 0.0
H2787 H 0.75495 0.45776 0.51876 0.0
H2788 H 0.73264 0.52371 0.54248 0.0
H2789 H 0.75771 0.49558 0.53631 0.0
H2790 H 0.72261 0.45409 0.58518 0.0
H2791 H 0.69791 0.48294 0.59208 0.0
C2792 C 0.78667 0.43261 0.57065 0.0
C2793 C 0.79395 0.43002 0.54854 0.0
C2794 C 0.76865 0.44527 0.57432 0.0
C2795 C 0.75764 0.45536 0.55587 0.0
C2796 C 0.76353 0.45082 0.53346 0.0
C2797 C 0.78161 0.43849 0.52989 0.0
C2798 C 0.73038 0.50875 0.55215 0.0
C2799 C 0.71334 0.50572 0.5679 0.0
C2800 C 0.74452 0.49238 0.54832 0.0
C2801 C 0.74199 0.47237 0.56003 0.0
C2802 C 0.72503 0.4693 0.5759 0.0
C2803 C 0.71077 0.48575 0.57972 0.0
H2804 H 0.26887 0.17371 0.52393 0.0
H2805 H 0.29828 0.11796 0.55102 0.0
H2806 H 0.2283 0.15269 0.52557 0.0
H2807 H 0.25772 0.09634 0.5516 0.0
H2808 H 0.17812 0.05584 0.52945 0.0
H2809 H 0.21908 0.07609 0.5274 0.0
H2810 H 0.1994 0.1384 0.5531 0.0
H2811 H 0.15888 0.11812 0.55577 0.0
C2812 C 0.26683 0.15676 0.52985 0.0
C2813 C 0.28749 0.14744 0.5363 0.0
C2814 C 0.24328 0.14458 0.53092 0.0
C2815 C 0.23896 0.12231 0.5385 0.0
C2816 C 0.25967 0.11309 0.54519 0.0
C2817 C 0.28324 0.1255 0.54457 0.0
C2818 C 0.18242 0.07384 0.53481 0.0
C2819 C 0.16451 0.08496 0.54294 0.0
C2820 C 0.20622 0.0856 0.53369 0.0
C2821 C 0.21328 0.10927 0.54 0.0
C2822 C 0.19524 0.12037 0.54784 0.0
C2823 C 0.1717 0.10854 0.54952 0.0
H2824 H 0.27964 0.02864 0.89306 0.0
H2825 H 0.22616 0.02443 0.83415 0.0
H2826 H 0.29582 0.99797 0.87463 0.0
H2827 H 0.24297 0.99466 0.81525 0.0
H2828 H 0.26988 0.93116 0.79234 0.0
H2829 H 0.25017 0.9573 0.81346 0.0
H2830 H 0.31904 0.99452 0.84391 0.0
H2831 H 0.33863 0.96727 0.82429 0.0
C2832 C 0.27116 0.02095 0.87631 0.0
C2833 C 0.25172 0.02899 0.86501 0.0
C2834 C 0.2806 1.00358 0.8656 0.0
C2835 C 0.27104 0.99419 0.84322 0.0
C2836 C 0.25071 1.00136 0.83254 0.0
C2837 C 0.24103 1.01845 0.84341 0.0
C2838 C 0.28082 0.94479 0.80373 0.0
C2839 C 0.30585 0.94699 0.80674 0.0
C2840 C 0.2695 0.95994 0.81567 0.0
C2841 C 0.28297 0.9779 0.8306 0.0
C2842 C 0.30805 0.98055 0.833 0.0
C2843 C 0.31935 0.9652 0.82133 0.0
H2844 H 0.39011 0.96526 0.07014 0.0
H2845 H 0.41669 0.91842 0.0248 0.0
H2846 H 0.42889 0.99041 0.07496 0.0
H2847 H 0.45561 0.94386 0.02898 0.0
H2848 H 0.5284 0.98547 0.05594 0.0
H2849 H 0.49064 0.95926 0.05533 0.0
H2850 H 0.45304 1.01603 0.05383 0.0
H2851 H 0.49068 0.04211 0.05396 0.0
C2852 C 0.40432 0.96051 0.06104 0.0
C2853 C 0.40036 0.94033 0.04657 0.0
C2854 C 0.42654 0.9749 0.06377 0.0
C2855 C 0.44539 0.96935 0.05217 0.0
C2856 C 0.44158 0.94862 0.03833 0.0
C2857 C 0.41932 0.93411 0.03577 0.0
C2858 C 0.51204 0.99236 0.0556 0.0
C2859 C 0.51249 1.01587 0.05486 0.0
C2860 C 0.49036 0.97729 0.05502 0.0
C2861 C 0.46864 0.98541 0.05402 0.0
C2862 C 0.46929 1.00906 0.05429 0.0
C2863 C 0.49091 0.02408 0.05442 0.0
H2864 H 0.98654 0.63965 0.80307 0.0
H2865 H 0.93732 0.63686 0.85479 0.0
H2866 H 0.95703 0.65204 0.77569 0.0
H2867 H 0.90818 0.64945 0.82758 0.0
H2868 H 0.85109 0.65129 0.77288 0.0
H2869 H 0.88231 0.63342 0.79202 0.0
H2870 H 0.93623 0.68423 0.76917 0.0
H2871 H 0.90498 0.70158 0.74948 0.0
C2872 C 0.96967 0.64214 0.80879 0.0
C2873 C 0.96426 0.63715 0.83113 0.0
C2874 C 0.95271 0.64902 0.793 0.0
C2875 C 0.93006 0.65104 0.79928 0.0
C2876 C 0.92518 0.64726 0.82197 0.0
C2877 C 0.94206 0.6404 0.8377 0.0
C2878 C 0.86959 0.65793 0.77103 0.0
C2879 C 0.87571 0.67794 0.76004 0.0
C2880 C 0.88747 0.64798 0.78231 0.0
C2881 C 0.91167 0.65794 0.78274 0.0
C2882 C 0.91776 0.67628 0.76931 0.0
C2883 C 0.89988 0.68618 0.75799 0.0
H2884 H 0.9287 0.66082 0.06835 0.0
H2885 H 0.90479 0.62004 1.00436 0.0
H2886 H 0.96472 0.64323 0.0726 0.0
H2887 H 0.94024 0.60309 1.0081 0.0
H2888 H 1.00095 0.56219 0.02034 0.0
H2889 H 0.96604 0.58052 1.01736 0.0
H2890 H 1.00127 0.63212 0.0703 0.0
H2891 H 0.03615 0.61314 0.0735 0.0
C2892 C 0.93094 0.64836 0.05491 0.0
C2893 C 0.91276 0.64245 0.03585 0.0
C2894 C 0.95209 0.63793 0.05735 0.0
C2895 C 0.95667 0.62082 0.04094 0.0
C2896 C 0.93851 0.61541 0.02183 0.0
C2897 C 0.91757 0.62565 0.01948 0.0
C2898 C 1.00154 0.57745 0.0315 0.0
C2899 C 1.02236 0.5856 0.04724 0.0
C2900 C 0.98099 0.58845 0.02967 0.0
C2901 C 0.9795 0.60869 0.04336 0.0
C2902 C 1.00044 0.61681 0.0592 0.0
C2903 C 1.02103 0.60571 0.06106 0.0
H2904 H 0.26781 0.12865 0.84684 0.0
H2905 H 0.22855 0.16448 0.89147 0.0
H2906 H 0.28964 0.16449 0.83691 0.0
H2907 H 0.25062 0.201 0.88144 0.0
H2908 H 0.27337 0.25512 0.82755 0.0
H2909 H 0.25312 0.22222 0.84511 0.0
H2910 H 0.31952 0.19692 0.85514 0.0
H2911 H 0.33964 0.22934 0.83738 0.0
C2912 C 0.26433 0.14433 0.85495 0.0
C2913 C 0.24724 0.144 0.87052 0.0
C2914 C 0.27676 0.16484 0.84925 0.0
C2915 C 0.27208 0.1855 0.8587 0.0
C2916 C 0.25461 0.18525 0.87403 0.0
C2917 C 0.24212 0.16452 0.87982 0.0
C2918 C 0.28366 0.2426 0.83368 0.0
C2919 C 0.30798 0.24456 0.83067 0.0
C2920 C 0.27212 0.22392 0.84393 0.0
C2921 C 0.28475 0.20699 0.85131 0.0
C2922 C 0.3093 0.20959 0.84931 0.0
C2923 C 0.32078 0.22813 0.83906 0.0
H2924 H 0.4875 0.074 0.29872 0.0
H2925 H 0.52838 0.05641 0.35911 0.0
H2926 H 0.46589 0.03515 0.29212 0.0
H2927 H 0.50552 1.0176 0.35379 0.0
H2928 H 0.47028 0.945 0.33132 0.0
H2929 H 0.49626 0.98212 0.33335 0.0
H2930 H 0.43607 1.0113 0.30574 0.0
H2931 H 0.41065 0.97443 0.30336 0.0
C2932 C 0.49158 0.06171 0.31076 0.0
C2933 C 0.50903 0.06814 0.32976 0.0
C2934 C 0.47911 0.03943 0.3071 0.0
C2935 C 0.48351 0.02311 0.32264 0.0
C2936 C 0.50172 0.02951 0.34127 0.0
C2937 C 0.51466 0.05177 0.34455 0.0
C2938 C 0.46277 0.95942 0.32557 0.0
C2939 C 0.43846 0.95679 0.31709 0.0
C2940 C 0.47759 0.98075 0.32687 0.0
C2941 C 0.46836 0.99998 0.31995 0.0
C2942 C 0.4441 0.99705 0.31101 0.0
C2943 C 0.4294 0.97579 0.30957 0.0
H2944 H 0.60708 0.38337 0.58871 0.0
H2945 H 0.61572 0.42475 0.65337 0.0
H2946 H 0.59302 0.41401 0.56841 0.0
H2947 H 0.60112 0.45521 0.63298 0.0
H2948 H 0.54968 0.49315 0.58933 0.0
H2949 H 0.55927 0.45917 0.6074 0.0
H2950 H 0.61532 0.45666 0.5636 0.0
H2951 H 0.60616 0.49077 0.54612 0.0
C2952 C 0.60594 0.39899 0.59858 0.0
C2953 C 0.61261 0.40175 0.62261 0.0
C2954 C 0.59785 0.41643 0.58696 0.0
C2955 C 0.59576 0.43673 0.59924 0.0
C2956 C 0.60231 0.43952 0.62324 0.0
C2957 C 0.6109 0.42225 0.63482 0.0
C2958 C 0.56354 0.48484 0.5832 0.0
C2959 C 0.57702 0.49417 0.56623 0.0
C2960 C 0.56919 0.46568 0.59364 0.0
C2961 C 0.58805 0.45548 0.58685 0.0
C2962 C 0.6006 0.46416 0.56897 0.0
C2963 C 0.59532 0.48353 0.55894 0.0
H2964 H 0.46603 0.77601 0.39117 0.0
H2965 H 0.45187 0.71504 0.34504 0.0
H2966 H 0.43087 0.78837 0.37255 0.0
H2967 H 0.41686 0.72775 0.32547 0.0
H2968 H 0.34709 0.75502 0.30412 0.0
H2969 H 0.37744 0.73782 0.32588 0.0
H2970 H 0.42388 0.80348 0.33653 0.0
H2971 H 0.39416 0.82034 0.31466 0.0
C2972 C 0.45526 0.76529 0.37694 0.0
C2973 C 0.46208 0.7452 0.36867 0.0
C2974 C 0.43521 0.77237 0.36621 0.0
C2975 C 0.42154 0.75946 0.34697 0.0
C2976 C 0.42713 0.7382 0.3401 0.0
C2977 C 0.4473 0.73107 0.351 0.0
C2978 C 0.364 0.76563 0.31082 0.0
C2979 C 0.36828 0.78903 0.30759 0.0
C2980 C 0.38134 0.75579 0.3233 0.0
C2981 C 0.40305 0.76927 0.33311 0.0
C2982 C 0.40733 0.79255 0.32943 0.0
C2983 C 0.39031 0.80225 0.31666 0.0
H2984 H 0.12143 0.78763 0.18682 0.0
H2985 H 0.16501 0.80592 0.13252 0.0
H2986 H 0.12801 0.74853 0.18209 0.0
H2987 H 0.17277 0.76701 0.12831 0.0
H2988 H 0.14664 0.69124 0.10379 0.0
H2989 H 0.15094 0.73178 0.11267 0.0
H2990 H 0.15379 0.72177 0.1856 0.0
H2991 H 0.14968 0.68081 0.17661 0.0
C2992 C 0.13265 0.78318 0.17402 0.0
C2993 C 0.1419 0.79926 0.15932 0.0
C2994 C 0.13674 0.7609 0.1715 0.0
C2995 C 0.15077 0.75448 0.15465 0.0
C2996 C 0.16141 0.77119 0.14107 0.0
C2997 C 0.15695 0.7934 0.14337 0.0
C2998 C 0.14874 0.69767 0.12178 0.0
C2999 C 0.14755 0.68276 0.13948 0.0
C3000 C 0.15117 0.72103 0.12689 0.0
C3001 C 0.15223 0.73011 0.14982 0.0
C3002 C 0.15237 0.71531 0.16768 0.0
C3003 C 0.15 0.69185 0.16256 0.0
H3004 H 0.09397 0.23253 0.87519 0.0
H3005 H 0.07485 0.29013 0.84121 0.0
H3006 H 0.13555 0.24407 0.86717 0.0
H3007 H 0.116 0.30171 0.83364 0.0
H3008 H 0.19497 0.32639 0.8377 0.0
H3009 H 0.15833 0.31515 0.85572 0.0
H3010 H 0.15302 0.24604 0.82697 0.0
H3011 H 0.18954 0.25728 0.80893 0.0
C3012 C 0.09875 0.24776 0.86634 0.0
C3013 C 0.08126 0.2603 0.85855 0.0
C3014 C 0.1224 0.25433 0.86176 0.0
C3015 C 0.12887 0.27382 0.84991 0.0
C3016 C 0.11153 0.28678 0.84304 0.0
C3017 C 0.08795 0.28 0.84715 0.0
C3018 C 0.18614 0.30875 0.83561 0.0
C3019 C 0.19474 0.29274 0.8217 0.0
C3020 C 0.16528 0.30234 0.84587 0.0
C3021 C 0.15296 0.27976 0.84266 0.0
C3022 C 0.16234 0.2635 0.82985 0.0
C3023 C 0.183 0.26997 0.81933 0.0
H3024 H 0.57292 0.70793 0.92068 0.0
H3025 H 0.59752 0.74269 0.98755 0.0
H3026 H 0.57113 0.67117 0.93757 0.0
H3027 H 0.59603 0.70616 1.00456 0.0
H3028 H 0.58243 0.63669 0.0377 0.0
H3029 H 0.58378 0.67294 0.02035 0.0
H3030 H 0.57983 0.63834 0.95283 0.0
H3031 H 0.57824 0.60193 0.97045 0.0
C3032 C 0.57813 0.70805 0.93907 0.0
C3033 C 0.58546 0.72947 0.9522 0.0
C3034 C 0.57715 0.68636 0.94908 0.0
C3035 C 0.58331 0.68413 0.97317 0.0
C3036 C 0.59068 0.7057 0.9862 0.0
C3037 C 0.59173 0.72734 0.97617 0.0
C3038 C 0.58172 0.63645 0.01907 0.0
C3039 C 0.58003 0.61514 1.00608 0.0
C3040 C 0.5827 0.65792 1.00877 0.0
C3041 C 0.58206 0.66015 0.98444 0.0
C3042 C 0.58025 0.63871 0.97141 0.0
C3043 C 0.57934 0.61718 0.98177 0.0
H3044 H 0.16141 0.82975 0.66897 0.0
H3045 H 0.12669 0.79473 0.72175 0.0
H3046 H 0.20042 0.82995 0.69075 0.0
H3047 H 0.16552 0.79538 0.74411 0.0
H3048 H 0.2407 0.7836 0.77425 0.0
H3049 H 0.20145 0.78359 0.753 0.0
H3050 H 0.23122 0.84242 0.71947 0.0
H3051 H 0.27038 0.84195 0.74029 0.0
C3052 C 0.16196 0.82231 0.68544 0.0
C3053 C 0.14026 0.81293 0.69363 0.0
C3054 C 0.18469 0.82251 0.69827 0.0
C3055 C 0.18719 0.81288 0.71992 0.0
C3056 C 0.16532 0.80298 0.72775 0.0
C3057 C 0.1426 0.80289 0.71492 0.0
C3058 C 0.239 0.79665 0.76242 0.0
C3059 C 0.25948 0.81276 0.75941 0.0
C3060 C 0.21606 0.79674 0.75005 0.0
C3061 C 0.21212 0.81296 0.73384 0.0
C3062 C 0.23267 0.8292 0.73111 0.0
C3063 C 0.25556 0.82907 0.74343 0.0
H3064 H 0.10249 0.39026 0.41479 0.0
H3065 H 0.09531 0.3585 0.47849 0.0
H3066 H 0.10107 0.42688 0.4341 0.0
H3067 H 0.09356 0.39573 0.4982 0.0
H3068 H 0.10304 0.47063 0.53384 0.0
H3069 H 0.10563 0.43311 0.51578 0.0
H3070 H 0.0838 0.45498 0.44913 0.0
H3071 H 0.0816 0.49229 0.46719 0.0
C3072 C 0.10067 0.3908 0.43309 0.0
C3073 C 0.09922 0.37028 0.4445 0.0
C3074 C 0.09957 0.41243 0.44445 0.0
C3075 C 0.09687 0.41559 0.46833 0.0
C3076 C 0.09576 0.39511 0.48 0.0
C3077 C 0.0968 0.37323 0.46849 0.0
C3078 C 0.09887 0.46766 0.51526 0.0
C3079 C 0.09223 0.48558 0.50244 0.0
C3080 C 0.10024 0.44558 0.50465 0.0
C3081 C 0.09517 0.43973 0.48035 0.0
C3082 C 0.08846 0.45777 0.46764 0.0
C3083 C 0.08702 0.47974 0.47825 0.0
H3084 H 0.52937 0.30779 0.22093 0.0
H3085 H 0.4781 0.29384 0.16026 0.0
H3086 H 0.49656 0.30686 0.24526 0.0
H3087 H 0.44561 0.2932 0.18415 0.0
H3088 H 0.38516 0.27798 0.2303 0.0
H3089 H 0.41871 0.27833 0.20771 0.0
H3090 H 0.46516 0.31913 0.26321 0.0
H3091 H 0.43122 0.3179 0.28617 0.0
C3092 C 0.51121 0.30457 0.21251 0.0
C3093 C 0.50729 0.30093 0.18796 0.0
C3094 C 0.49193 0.30411 0.22673 0.0
C3095 C 0.4673 0.29979 0.21748 0.0
C3096 C 0.4636 0.29622 0.19292 0.0
C3097 C 0.48276 0.29678 0.17879 0.0
C3098 C 0.40254 0.28666 0.23812 0.0
C3099 C 0.40467 0.29735 0.26082 0.0
C3100 C 0.42225 0.28729 0.22469 0.0
C3101 C 0.44582 0.29888 0.23279 0.0
C3102 C 0.44799 0.30969 0.25562 0.0
C3103 C 0.4281 0.30908 0.26908 0.0
H3104 H 0.725 0.58252 0.4629 0.0
H3105 H 0.67601 0.55127 0.40368 0.0
H3106 H 0.69438 0.57057 0.48819 0.0
H3107 H 0.64561 0.53987 0.42872 0.0
H3108 H 0.59788 0.51218 0.48106 0.0
H3109 H 0.63317 0.51631 0.45991 0.0
H3110 H 0.6565 0.58451 0.49225 0.0
H3111 H 0.62132 0.58032 0.51284 0.0
C3112 C 0.70788 0.57287 0.45534 0.0
C3113 C 0.70276 0.5682 0.4313 0.0
C3114 C 0.69037 0.5661 0.46976 0.0
C3115 C 0.6676 0.55444 0.46035 0.0
C3116 C 0.66303 0.54864 0.43649 0.0
C3117 C 0.68041 0.55546 0.42212 0.0
C3118 C 0.61078 0.52789 0.48365 0.0
C3119 C 0.6075 0.54575 0.4989 0.0
C3120 C 0.63091 0.53025 0.47171 0.0
C3121 C 0.64778 0.5506 0.47479 0.0
C3122 C 0.64427 0.56839 0.49011 0.0
C3123 C 0.62421 0.566 0.50192 0.0
H3124 H 0.35544 0.91755 0.1282 0.0
H3125 H 0.3138 0.85273 0.10069 0.0
H3126 H 0.35523 0.90522 0.16716 0.0
H3127 H 0.31264 0.84057 0.13984 0.0
H3128 H 0.33215 0.81621 0.21035 0.0
H3129 H 0.33418 0.82874 0.1716 0.0
H3130 H 0.33317 0.89756 0.19803 0.0
H3131 H 0.33212 0.88503 0.237 0.0
C3132 C 0.34601 0.90068 0.13047 0.0
C3133 C 0.33464 0.88615 0.11118 0.0
C3134 C 0.34574 0.8936 0.15298 0.0
C3135 C 0.3339 0.8718 0.15704 0.0
C3136 C 0.32236 0.85732 0.13765 0.0
C3137 C 0.32284 0.86435 0.11508 0.0
C3138 C 0.33259 0.83408 0.20797 0.0
C3139 C 0.33208 0.84959 0.22697 0.0
C3140 C 0.3335 0.84128 0.18556 0.0
C3141 C 0.33364 0.86424 0.18127 0.0
C3142 C 0.33344 0.87981 0.20041 0.0
C3143 C 0.33279 0.87261 0.2229 0.0
H3144 H 0.07299 0.64086 0.8986 0.0
H3145 H 1.0155 0.6325 0.94175 0.0
H3146 H 0.10197 0.6454 0.93287 0.0
H3147 H 0.04444 0.63695 0.97579 0.0
H3148 H 0.11394 0.58398 0.9806 0.0
H3149 H 0.10345 0.60895 0.95151 0.0
H3150 H 0.08091 0.65233 1.00368 0.0
H3151 H 0.0917 0.62729 0.03298 0.0
C3152 C 0.06649 0.64091 0.91539 0.0
C3153 C 0.0419 0.63513 0.91742 0.0
C3154 C 0.08317 0.64364 0.93502 0.0
C3155 C 0.07547 0.64072 0.95689 0.0
C3156 C 0.051 0.63909 0.95914 0.0
C3157 C 0.0343 0.63631 0.93952 0.0
C3158 C 0.10779 0.5994 0.98603 0.0
C3159 C 0.103 0.60337 1.00884 0.0
C3160 C 0.10195 0.6139 0.96939 0.0
C3161 C 0.09085 0.63237 0.97527 0.0
C3162 C 0.0892 0.63808 0.99867 0.0
C3163 C 0.09541 0.62372 1.01542 0.0
H3164 H 0.38305 0.24118 0.61048 0.0
H3165 H 0.33401 0.18222 0.62482 0.0
H3166 H 0.38077 0.25905 0.64912 0.0
H3167 H 0.33112 0.2003 0.66312 0.0
H3168 H 0.3126 0.24894 0.72334 0.0
H3169 H 0.3159 0.23052 0.6853 0.0
H3170 H 0.39069 0.25967 0.69203 0.0
H3171 H 0.3875 0.27752 0.7304 0.0
C3172 C 0.37176 0.23181 0.62175 0.0
C3173 C 0.35892 0.20978 0.61376 0.0
C3174 C 0.37044 0.24221 0.64431 0.0
C3175 C 0.35565 0.23158 0.66018 0.0
C3176 C 0.34267 0.20961 0.65204 0.0
C3177 C 0.34448 0.19898 0.62973 0.0
C3178 C 0.32989 0.25147 0.71695 0.0
C3179 C 0.34971 0.26507 0.73083 0.0
C3180 C 0.33185 0.24066 0.69476 0.0
C3181 C 0.35364 0.24317 0.68463 0.0
C3182 C 0.37341 0.25702 0.69843 0.0
C3183 C 0.37158 0.26737 0.72088 0.0
H3184 H 0.73717 0.59116 0.29 0.0
H3185 H 0.66967 0.55641 0.30795 0.0
H3186 H 0.72034 0.58829 0.24949 0.0
H3187 H 0.65271 0.5542 0.26787 0.0
H3188 H 0.62956 0.54179 0.19275 0.0
H3189 H 0.65268 0.53804 0.22945 0.0
H3190 H 0.69161 0.60645 0.22783 0.0
H3191 H 0.66893 0.6098 0.19079 0.0
C3192 C 0.71883 0.58275 0.28526 0.0
C3193 C 0.70465 0.57419 0.30212 0.0
C3194 C 0.70917 0.58121 0.26211 0.0
C3195 C 0.68516 0.57115 0.25549 0.0
C3196 C 0.67136 0.56176 0.27229 0.0
C3197 C 0.68103 0.56319 0.29534 0.0
C3198 C 0.64323 0.5559 0.20023 0.0
C3199 C 0.64734 0.57618 0.18923 0.0
C3200 C 0.65644 0.55378 0.22118 0.0
C3201 C 0.67379 0.57203 0.23166 0.0
C3202 C 0.67858 0.59197 0.22009 0.0
C3203 C 0.66553 0.59398 0.19898 0.0
H3204 H 0.30566 0.91123 0.95698 0.0
H3205 H 0.34212 0.85943 0.98423 0.0
H3206 H 0.30121 0.89218 0.91849 0.0
H3207 H 0.33844 0.84049 0.94519 0.0
H3208 H 0.31519 0.80354 0.87297 0.0
H3209 H 0.31476 0.81956 0.91236 0.0
H3210 H 0.32386 0.88703 0.88829 0.0
H3211 H 0.3235 0.87095 0.84895 0.0
C3212 C 0.31264 0.8956 0.95477 0.0
C3213 C 0.32432 0.88694 0.97383 0.0
C3214 C 0.31031 0.88474 0.9325 0.0
C3215 C 0.31987 0.86491 0.92829 0.0
C3216 C 0.33069 0.85563 0.94756 0.0
C3217 C 0.3328 0.86646 0.97005 0.0
C3218 C 0.31683 0.82179 0.87602 0.0
C3219 C 0.31924 0.83587 0.85755 0.0
C3220 C 0.31681 0.83105 0.89878 0.0
C3221 C 0.31926 0.85471 0.90386 0.0
C3222 C 0.32144 0.86872 0.88528 0.0
C3223 C 0.32134 0.85947 0.86254 0.0
H3224 H 0.07268 0.61989 0.79679 0.0
H3225 H 1.01375 0.56384 0.77889 0.0
H3226 H 0.08854 0.61116 0.76062 0.0
H3227 H 1.02989 0.55473 0.74335 0.0
H3228 H 0.05028 0.55898 0.67126 0.0
H3229 H 0.0353 0.56977 0.7069 0.0
H3230 H 0.1071 0.58176 0.74227 0.0
H3231 H 0.12237 0.57207 0.70599 0.0
C3232 C 0.0631 0.60578 0.78511 0.0
C3233 C 0.04194 0.59261 0.79056 0.0
C3234 C 0.07229 0.60066 0.76455 0.0
C3235 C 0.06047 0.58225 0.74918 0.0
C3236 C 0.03922 0.56924 0.75465 0.0
C3237 C 1.02999 0.57443 0.77506 0.0
C3238 C 0.06294 0.56419 0.68656 0.0
C3239 C 0.08753 0.56488 0.6858 0.0
C3240 C 0.05431 0.57011 0.70705 0.0
C3241 C 0.07001 0.57657 0.72739 0.0
C3242 C 0.09462 0.57709 0.72677 0.0
C3243 C 0.10332 0.57127 0.70612 0.0
H3244 H 0.34436 0.17302 0.446 0.0
H3245 H 0.36254 0.2364 0.48802 0.0
H3246 H 0.34372 0.19322 0.41127 0.0
H3247 H 0.36165 0.25709 0.45264 0.0
H3248 H 0.37187 0.2912 0.38151 0.0
H3249 H 0.37393 0.27223 0.41781 0.0
H3250 H 0.32769 0.21276 0.38326 0.0
H3251 H 0.32598 0.23155 0.34739 0.0
C3252 C 0.34829 0.19142 0.44817 0.0
C3253 C 0.35358 0.20242 0.47094 0.0
C3254 C 0.34769 0.20336 0.42761 0.0
C3255 C 0.35236 0.2275 0.42785 0.0
C3256 C 0.35795 0.2387 0.45065 0.0
C3257 C 0.35843 0.22661 0.47145 0.0
C3258 C 0.36219 0.27399 0.38143 0.0
C3259 C 0.34887 0.26335 0.36045 0.0
C3260 C 0.36324 0.26289 0.40276 0.0
C3261 C 0.35118 0.24023 0.40469 0.0
C3262 C 0.33788 0.22977 0.3836 0.0
C3263 C 0.33673 0.24086 0.36244 0.0
H3264 H 0.37469 0.70191 0.55439 0.0
H3265 H 0.36566 0.69434 0.47983 0.0
H3266 H 0.4069 0.6796 0.55497 0.0
H3267 H 0.39789 0.67243 0.48034 0.0
H3268 H 0.4175 0.60233 0.49306 0.0
H3269 H 0.39465 0.63297 0.49246 0.0
H3270 H 0.44742 0.67324 0.54369 0.0
H3271 H 0.4709 0.64263 0.54391 0.0
C3272 C 0.38037 0.69644 0.53815 0.0
C3273 C 0.3676 0.69971 0.51707 0.0
C3274 C 0.39869 0.68351 0.53846 0.0
C3275 C 0.40446 0.67376 0.51769 0.0
C3276 C 0.39344 0.67925 0.49663 0.0
C3277 C 0.37517 0.69202 0.49633 0.0
C3278 C 0.42458 0.61783 0.50391 0.0
C3279 C 0.4462 0.61995 0.5184 0.0
C3280 C 0.41143 0.63544 0.50356 0.0
C3281 C 0.41938 0.65568 0.51781 0.0
C3282 C 0.44085 0.65785 0.53253 0.0
C3283 C 0.4542 0.64023 0.53272 0.0
H3284 H 0.90302 0.92911 0.52739 0.0
H3285 H 0.88656 0.98523 0.56833 0.0
H3286 H 0.94336 0.95032 0.52546 0.0
H3287 H 0.92673 1.00672 0.56637 0.0
H3288 H 1.01078 0.99989 0.50961 0.0
H3289 H 0.9702 0.97895 0.511 0.0
H3290 H 0.96784 1.01449 0.57696 0.0
H3291 H 1.00805 0.0355 0.57532 0.0
C3292 C 0.90786 0.94609 0.53592 0.0
C3293 C 0.89069 0.95545 0.54737 0.0
C3294 C 0.93129 0.95853 0.53471 0.0
C3295 C 0.9392 0.98086 0.54548 0.0
C3296 C 0.92217 0.98978 0.55775 0.0
C3297 C 0.89865 0.97742 0.55869 0.0
C3298 C 1.00166 1.00344 0.52441 0.0
C3299 C 1.01343 1.01986 0.54227 0.0
C3300 C 0.97808 0.9911 0.52536 0.0
C3301 C 0.96479 0.99447 0.54418 0.0
C3302 C 0.97658 1.0111 0.56188 0.0
C3303 C 1.00013 0.02332 0.56098 0.0
H3304 H 0.86305 0.04101 0.27929 0.0
H3305 H 0.92599 0.08001 0.25618 0.0
H3306 H 0.84825 0.07594 0.28791 0.0
H3307 H 0.91113 0.11501 0.26512 0.0
H3308 H 0.86061 0.16729 0.25674 0.0
H3309 H 0.8768 0.13276 0.24933 0.0
H3310 H 0.85897 0.1106 0.31548 0.0
H3311 H 0.84298 0.14527 0.32305 0.0
C3312 C 0.87381 0.05702 0.27616 0.0
C3313 C 0.8957 0.05772 0.26701 0.0
C3314 C 0.86536 0.07701 0.28123 0.0
C3315 C 0.87857 0.09809 0.27717 0.0
C3316 C 0.90053 0.09889 0.2682 0.0
C3317 C 0.90907 0.07888 0.26322 0.0
C3318 C 0.86036 0.15514 0.26979 0.0
C3319 C 0.85058 0.15894 0.29048 0.0
C3320 C 0.86963 0.13543 0.26555 0.0
C3321 C 0.86917 0.11913 0.28188 0.0
C3322 C 0.8593 0.12285 0.30253 0.0
C3323 C 0.8501 0.14261 0.30681 0.0
H3324 H 0.75744 0.16283 0.0568 0.0
H3325 H 0.71992 0.20303 1.01217 0.0
H3326 H 0.7212 0.13531 0.05686 0.0
H3327 H 0.68387 0.17428 1.00969 0.0
H3328 H 0.61717 0.12304 1.01664 0.0
H3329 H 0.6514 0.15371 0.02001 0.0
H3330 H 0.6978 0.10571 0.0383 0.0
H3331 H 0.66324 0.0759 0.03664 0.0
C3332 C 0.74126 0.16555 0.04677 0.0
C3333 C 0.74147 0.18461 0.03396 0.0
C3334 C 0.7204 0.14952 0.04642 0.0
C3335 C 0.6993 0.15164 0.03248 0.0
C3336 C 0.69938 0.17167 0.02075 0.0
C3337 C 0.72014 0.18821 0.02193 0.0
C3338 C 0.63485 0.11913 0.02093 0.0
C3339 C 0.63765 0.09709 0.02615 0.0
C3340 C 0.65466 0.13679 0.02294 0.0
C3341 C 0.67791 0.13273 0.02969 0.0
C3342 C 0.68049 0.11019 0.0338 0.0
C3343 C 0.66064 0.09276 0.03241 0.0
H3344 H 0.1906 0.47176 0.32805 0.0
H3345 H 0.18118 0.44228 0.25763 0.0
H3346 H 0.21988 0.44761 0.33843 0.0
H3347 H 0.2109 0.41853 0.26793 0.0
H3348 H 0.29521 0.42947 0.28949 0.0
H3349 H 0.2567 0.44117 0.28138 0.0
H3350 H 0.23006 0.40382 0.33703 0.0
H3351 H 0.26828 0.39081 0.3445 0.0
C3352 C 0.19397 0.45933 0.31508 0.0
C3353 C 0.18378 0.4589 0.29204 0.0
C3354 C 0.21075 0.4456 0.321 0.0
C3355 C 0.21781 0.4316 0.30385 0.0
C3356 C 0.20573 0.42935 0.28138 0.0
C3357 C 0.18858 0.44274 0.27555 0.0
C3358 C 0.28112 0.42335 0.2998 0.0
C3359 C 0.28492 0.40905 0.31757 0.0
C3360 C 0.25905 0.43004 0.2951 0.0
C3361 C 0.24039 0.42296 0.3083 0.0
C3362 C 0.24419 0.40925 0.3265 0.0
C3363 C 0.26619 0.40213 0.33094 0.0
H3364 H 0.27237 0.49146 0.03777 0.0
H3365 H 0.23363 0.42645 0.05162 0.0
H3366 H 0.23679 0.50828 0.03978 0.0
H3367 H 0.19705 0.44346 0.05263 0.0
H3368 H 0.12939 0.48102 0.02859 0.0
H3369 H 0.16429 0.46175 0.02887 0.0
H3370 H 0.20854 0.52118 0.06536 0.0
H3371 H 0.17362 0.54 0.06582 0.0
C3372 C 0.25636 0.48043 0.04139 0.0
C3373 C 0.2571 0.45712 0.04476 0.0
C3374 C 0.23542 0.4904 0.04254 0.0
C3375 C 0.21305 0.4778 0.04642 0.0
C3376 C 0.2134 0.4543 0.04951 0.0
C3377 C 0.23479 0.44435 0.04906 0.0
C3378 C 0.14647 0.49015 0.03682 0.0
C3379 C 0.1478 0.5126 0.04713 0.0
C3380 C 0.16685 0.47883 0.03709 0.0
C3381 C 0.19021 0.4894 0.0471 0.0
C3382 C 0.19148 0.51191 0.05724 0.0
C3383 C 0.17103 0.52293 0.05756 0.0
H3384 H 0.8855 0.94896 0.20516 0.0
H3385 H 0.95589 0.94472 0.23654 0.0
H3386 H 0.87346 0.90808 0.20587 0.0
H3387 H 0.94535 0.90365 0.23458 0.0
H3388 H 0.90836 0.85455 0.28155 0.0
H3389 H 0.92753 0.88384 0.26025 0.0
H3390 H 0.86679 0.87062 0.20707 0.0
H3391 H 0.84696 0.84191 0.22984 0.0
C3392 C 0.89834 0.93906 0.21213 0.0
C3393 C 0.92058 0.94985 0.22319 0.0
C3394 C 0.89179 0.91545 0.21199 0.0
C3395 C 0.90781 0.90248 0.22241 0.0
C3396 C 0.93175 0.91315 0.22854 0.0
C3397 C 0.93793 0.93672 0.22949 0.0
C3398 C 0.89918 0.85778 0.26521 0.0
C3399 C 0.87582 0.84667 0.25782 0.0
C3400 C 0.91043 0.87445 0.25249 0.0
C3401 C 0.8987 0.88036 0.2318 0.0
C3402 C 0.87617 0.86741 0.22327 0.0
C3403 C 0.8647 0.85094 0.23633 0.0
H3404 H 0.70312 0.04318 0.72545 0.0
H3405 H 0.63788 0.0605 0.74616 0.0
H3406 H 0.71706 0.08278 0.71851 0.0
H3407 H 0.65221 0.10037 0.74103 0.0
H3408 H 0.67856 0.17113 0.72581 0.0
H3409 H 0.66259 0.1306 0.7194 0.0
H3410 H 0.73295 0.11599 0.73995 0.0
H3411 H 0.74892 0.15623 0.74515 0.0
C3412 C 0.6919 0.05564 0.72865 0.0
C3413 C 0.66991 0.04921 0.73712 0.0
C3414 C 0.69983 0.07834 0.72476 0.0
C3415 C 0.68608 0.0951 0.72968 0.0
C3416 C 0.66332 0.08814 0.73679 0.0
C3417 C 0.65516 0.06533 0.74007 0.0
C3418 C 0.69066 0.15921 0.72859 0.0
C3419 C 0.71494 0.16693 0.73646 0.0
C3420 C 0.68144 0.13591 0.72517 0.0
C3421 C 0.69627 0.11978 0.72972 0.0
C3422 C 0.72081 0.12766 0.73634 0.0
C3423 C 0.73 0.15087 0.73968 0.0
loop_
_geom_bond_atom_site_label_1
_geom_bond_atom_site_label_2
_geom_bond_distance
_geom_bond_site_symmetry_2
_ccdc_geom_bond_type
Mn0 O5 2.095 . S
Mn0 O15 2.162 . S
Mn0 O16 2.297 . S
Mn0 O24 2.385 . S
Mn0 O25 2.209 . S
Mn0 O26 2.094 . S
Mn1 O6 2.121 . S
Mn1 N8 2.257 . S
Mn1 N17 2.282 . S
Mn1 O25 2.215 . S
Mn1 O27 2.117 . S
C2 O24 1.234 . S
C2 O25 1.283 . S
C3 O15 1.281 . S
C3 O16 1.236 . S
C4 O26 1.240 . S
C4 O27 1.264 . S
O5 Mn0 2.095 . S
O5 C14 1.250 . S
O6 Mn1 2.121 . S
O6 C14 1.258 . S
C7 N8 1.326 . S
C7 C11 1.460 . S
C7 H13 0.929 . S
N8 Mn1 2.257 . S
N8 C7 1.326 . S
N8 C12 1.362 . S
C9 C10 1.258 . S
C9 C12 1.431 . S
C9 C29 1.449 1_455 S
C10 C9 1.258 . S
C10 C11 1.477 . S
C10 H30 0.931 . S
C11 C7 1.460 . S
C11 C10 1.477 . S
C11 H31 0.930 . S
C12 N8 1.362 . S
C12 C9 1.431 . S
C12 C22 1.476 . S
H13 C7 0.929 . S
C14 O5 1.250 . S
C14 O6 1.258 . S
O15 Mn0 2.162 . S
O15 C3 1.281 . S
O16 Mn0 2.297 . S
O16 C3 1.236 . S
N17 Mn1 2.282 . S
N17 C18 1.328 . S
N17 C22 1.318 . S
C18 N17 1.328 . S
C18 C19 1.457 1_455 S
C18 H23 0.929 . S
C19 C18 1.457 1_655 S
C19 C20 1.291 . S
C19 H32 0.931 . S
C20 C19 1.291 . S
C20 C21 1.373 . S
C20 H33 0.929 . S
C21 C20 1.373 . S
C21 C22 1.396 1_655 S
C21 C28 1.403 . S
C22 C12 1.476 . S
C22 N17 1.318 . S
C22 C21 1.396 1_455 S
H23 C18 0.929 . S
O24 Mn0 2.385 . S
O24 C2 1.234 . S
O25 Mn0 2.209 . S
O25 Mn1 2.215 . S
O25 C2 1.283 . S
O26 Mn0 2.094 . S
O26 C4 1.240 . S
O27 Mn1 2.117 . S
O27 C4 1.264 . S
C28 C21 1.403 . S
C28 C29 1.399 . S
C28 H34 0.929 . S
C29 C9 1.449 1_655 S
C29 C28 1.399 . S
C29 H35 0.930 . S
H30 C10 0.931 . S
H31 C11 0.930 . S
H32 C19 0.931 . S
H33 C20 0.929 . S
H34 C28 0.929 . S
H35 C29 0.930 . S
Mn36 O41 2.095 . S
Mn36 O51 2.162 . S
Mn36 O52 2.297 . S
Mn36 O60 2.385 . S
Mn36 O61 2.209 . S
Mn36 O62 2.094 . S
Mn37 O42 2.121 . S
Mn37 N44 2.257 . S
Mn37 N53 2.282 . S
Mn37 O61 2.215 . S
Mn37 O63 2.117 . S
C38 O60 1.234 . S
C38 O61 1.283 . S
C39 O51 1.281 . S
C39 O52 1.236 . S
C40 O62 1.240 . S
C40 O63 1.264 . S
O41 Mn36 2.095 . S
O41 C50 1.250 . S
O42 Mn37 2.121 . S
O42 C50 1.258 . S
C43 N44 1.326 . S
C43 C47 1.460 . S
C43 H49 0.929 . S
N44 Mn37 2.257 . S
N44 C43 1.326 . S
N44 C48 1.362 . S
C45 C46 1.258 . S
C45 C48 1.431 . S
C45 C65 1.449 . S
C46 C45 1.258 . S
C46 C47 1.477 . S
C46 H66 0.931 . S
C47 C43 1.460 . S
C47 C46 1.477 . S
C47 H67 0.930 . S
C48 N44 1.362 . S
C48 C45 1.431 . S
C48 C58 1.476 . S
H49 C43 0.929 . S
C50 O41 1.250 . S
C50 O42 1.258 . S
O51 Mn36 2.162 . S
O51 C39 1.281 . S
O52 Mn36 2.297 . S
O52 C39 1.236 . S
N53 Mn37 2.282 . S
N53 C54 1.328 . S
N53 C58 1.318 . S
C54 N53 1.328 . S
C54 C55 1.457 . S
C54 H59 0.929 . S
C55 C54 1.457 . S
C55 C56 1.291 . S
C55 H68 0.931 . S
C56 C55 1.291 . S
C56 C57 1.373 . S
C56 H69 0.929 . S
C57 C56 1.373 . S
C57 C58 1.396 . S
C57 C64 1.403 . S
C58 C48 1.476 . S
C58 N53 1.318 . S
C58 C57 1.396 . S
H59 C54 0.929 . S
O60 Mn36 2.385 . S
O60 C38 1.234 . S
O61 Mn36 2.209 . S
O61 Mn37 2.215 . S
O61 C38 1.283 . S
O62 Mn36 2.094 . S
O62 C40 1.240 . S
O63 Mn37 2.117 . S
O63 C40 1.264 . S
C64 C57 1.403 . S
C64 C65 1.399 . S
C64 H70 0.929 . S
C65 C45 1.449 . S
C65 C64 1.399 . S
C65 H71 0.930 . S
H66 C46 0.931 . S
H67 C47 0.930 . S
H68 C55 0.931 . S
H69 C56 0.929 . S
H70 C64 0.929 . S
H71 C65 0.930 . S
Mn72 O77 2.095 . S
Mn72 O87 2.162 . S
Mn72 O88 2.297 . S
Mn72 O96 2.385 . S
Mn72 O97 2.209 . S
Mn72 O98 2.094 . S
Mn73 O78 2.121 . S
Mn73 N80 2.257 . S
Mn73 N89 2.282 . S
Mn73 O97 2.215 . S
Mn73 O99 2.117 . S
C74 O96 1.234 . S
C74 O97 1.283 . S
C75 O87 1.281 . S
C75 O88 1.236 . S
C76 O98 1.240 . S
C76 O99 1.264 . S
O77 Mn72 2.095 . S
O77 C86 1.250 . S
O78 Mn73 2.121 . S
O78 C86 1.258 . S
C79 N80 1.326 . S
C79 C83 1.460 . S
C79 H85 0.929 . S
N80 Mn73 2.257 . S
N80 C79 1.326 . S
N80 C84 1.362 . S
C81 C82 1.258 . S
C81 C84 1.431 . S
C81 C101 1.449 . S
C82 C81 1.258 . S
C82 C83 1.477 . S
C82 H102 0.931 . S
C83 C79 1.460 . S
C83 C82 1.477 . S
C83 H103 0.930 . S
C84 N80 1.362 . S
C84 C81 1.431 . S
C84 C94 1.476 . S
H85 C79 0.929 . S
C86 O77 1.250 . S
C86 O78 1.258 . S
O87 Mn72 2.162 . S
O87 C75 1.281 . S
O88 Mn72 2.297 . S
O88 C75 1.236 . S
N89 Mn73 2.282 . S
N89 C90 1.328 . S
N89 C94 1.318 . S
C90 N89 1.328 . S
C90 C91 1.457 . S
C90 H95 0.929 . S
C91 C90 1.457 . S
C91 C92 1.291 . S
C91 H104 0.931 . S
C92 C91 1.291 . S
C92 C93 1.373 . S
C92 H105 0.929 . S
C93 C92 1.373 . S
C93 C94 1.396 . S
C93 C100 1.403 . S
C94 C84 1.476 . S
C94 N89 1.318 . S
C94 C93 1.396 . S
H95 C90 0.929 . S
O96 Mn72 2.385 . S
O96 C74 1.234 . S
O97 Mn72 2.209 . S
O97 Mn73 2.215 . S
O97 C74 1.283 . S
O98 Mn72 2.094 . S
O98 C76 1.240 . S
O99 Mn73 2.117 . S
O99 C76 1.264 . S
C100 C93 1.403 . S
C100 C101 1.399 . S
C100 H106 0.929 . S
C101 C81 1.449 . S
C101 C100 1.399 . S
C101 H107 0.930 . S
H102 C82 0.931 . S
H103 C83 0.930 . S
H104 C91 0.931 . S
H105 C92 0.929 . S
H106 C100 0.929 . S
H107 C101 0.930 . S
Mn108 O113 2.095 . S
Mn108 O123 2.162 . S
Mn108 O124 2.297 . S
Mn108 O132 2.385 . S
Mn108 O133 2.209 . S
Mn108 O134 2.094 . S
Mn109 O114 2.121 . S
Mn109 N116 2.257 . S
Mn109 N125 2.282 . S
Mn109 O133 2.215 . S
Mn109 O135 2.117 . S
C110 O132 1.234 . S
C110 O133 1.283 . S
C111 O123 1.281 . S
C111 O124 1.236 . S
C112 O134 1.240 . S
C112 O135 1.264 . S
O113 Mn108 2.095 . S
O113 C122 1.250 . S
O114 Mn109 2.121 . S
O114 C122 1.258 . S
C115 N116 1.326 . S
C115 C119 1.460 . S
C115 H121 0.929 . S
N116 Mn109 2.257 . S
N116 C115 1.326 . S
N116 C120 1.362 . S
C117 C118 1.258 . S
C117 C120 1.431 . S
C117 C137 1.449 . S
C118 C117 1.258 . S
C118 C119 1.477 . S
C118 H138 0.931 . S
C119 C115 1.460 . S
C119 C118 1.477 . S
C119 H139 0.930 . S
C120 N116 1.362 . S
C120 C117 1.431 . S
C120 C130 1.476 . S
H121 C115 0.929 . S
C122 O113 1.250 . S
C122 O114 1.258 . S
O123 Mn108 2.162 . S
O123 C111 1.281 . S
O124 Mn108 2.297 . S
O124 C111 1.236 . S
N125 Mn109 2.282 . S
N125 C126 1.328 . S
N125 C130 1.318 . S
C126 N125 1.328 . S
C126 C127 1.457 . S
C126 H131 0.929 . S
C127 C126 1.457 . S
C127 C128 1.291 . S
C127 H140 0.931 . S
C128 C127 1.291 . S
C128 C129 1.373 . S
C128 H141 0.929 . S
C129 C128 1.373 . S
C129 C130 1.396 . S
C129 C136 1.403 . S
C130 C120 1.476 . S
C130 N125 1.318 . S
C130 C129 1.396 . S
H131 C126 0.929 . S
O132 Mn108 2.385 . S
O132 C110 1.234 . S
O133 Mn108 2.209 . S
O133 Mn109 2.215 . S
O133 C110 1.283 . S
O134 Mn108 2.094 . S
O134 C112 1.240 . S
O135 Mn109 2.117 . S
O135 C112 1.264 . S
C136 C129 1.403 . S
C136 C137 1.399 . S
C136 H142 0.929 . S
C137 C117 1.449 . S
C137 C136 1.399 . S
C137 H143 0.930 . S
H138 C118 0.931 . S
H139 C119 0.930 . S
H140 C127 0.931 . S
H141 C128 0.929 . S
H142 C136 0.929 . S
H143 C137 0.930 . S
Mn144 O149 2.095 . S
Mn144 O159 2.162 . S
Mn144 O160 2.297 . S
Mn144 O168 2.385 . S
Mn144 O169 2.209 . S
Mn144 O170 2.094 . S
Mn145 O150 2.121 . S
Mn145 N152 2.257 . S
Mn145 N161 2.282 . S
Mn145 O169 2.215 . S
Mn145 O171 2.117 . S
C146 O168 1.234 . S
C146 O169 1.283 . S
C147 O159 1.281 . S
C147 O160 1.236 . S
C148 O170 1.240 . S
C148 O171 1.264 . S
O149 Mn144 2.095 . S
O149 C158 1.250 . S
O150 Mn145 2.121 . S
O150 C158 1.258 . S
C151 N152 1.326 . S
C151 C155 1.460 . S
C151 H157 0.929 . S
N152 Mn145 2.257 . S
N152 C151 1.326 . S
N152 C156 1.362 . S
C153 C154 1.258 . S
C153 C156 1.431 . S
C153 C173 1.449 . S
C154 C153 1.258 . S
C154 C155 1.477 . S
C154 H174 0.931 . S
C155 C151 1.460 . S
C155 C154 1.477 . S
C155 H175 0.930 . S
C156 N152 1.362 . S
C156 C153 1.431 . S
C156 C166 1.476 . S
H157 C151 0.929 . S
C158 O149 1.250 . S
C158 O150 1.258 . S
O159 Mn144 2.162 . S
O159 C147 1.281 . S
O160 Mn144 2.297 . S
O160 C147 1.236 . S
N161 Mn145 2.282 . S
N161 C162 1.328 . S
N161 C166 1.318 . S
C162 N161 1.328 . S
C162 C163 1.457 . S
C162 H167 0.929 . S
C163 C162 1.457 . S
C163 C164 1.291 . S
C163 H176 0.931 . S
C164 C163 1.291 . S
C164 C165 1.373 . S
C164 H177 0.929 . S
C165 C164 1.373 . S
C165 C166 1.396 . S
C165 C172 1.403 . S
C166 C156 1.476 . S
C166 N161 1.318 . S
C166 C165 1.396 . S
H167 C162 0.929 . S
O168 Mn144 2.385 . S
O168 C146 1.234 . S
O169 Mn144 2.209 . S
O169 Mn145 2.215 . S
O169 C146 1.283 . S
O170 Mn144 2.094 . S
O170 C148 1.240 . S
O171 Mn145 2.117 . S
O171 C148 1.264 . S
C172 C165 1.403 . S
C172 C173 1.399 . S
C172 H178 0.929 . S
C173 C153 1.449 . S
C173 C172 1.399 . S
C173 H179 0.930 . S
H174 C154 0.931 . S
H175 C155 0.930 . S
H176 C163 0.931 . S
H177 C164 0.929 . S
H178 C172 0.929 . S
H179 C173 0.930 . S
Mn180 O185 2.095 . S
Mn180 O195 2.162 . S
Mn180 O196 2.297 . S
Mn180 O204 2.385 . S
Mn180 O205 2.209 . S
Mn180 O206 2.094 . S
Mn181 O186 2.121 . S
Mn181 N188 2.257 . S
Mn181 N197 2.282 . S
Mn181 O205 2.215 . S
Mn181 O207 2.117 . S
C182 O204 1.234 . S
C182 O205 1.283 . S
C183 O195 1.281 . S
C183 O196 1.236 . S
C184 O206 1.240 . S
C184 O207 1.264 . S
O185 Mn180 2.095 . S
O185 C194 1.250 . S
O186 Mn181 2.121 . S
O186 C194 1.258 . S
C187 N188 1.326 . S
C187 C191 1.460 . S
C187 H193 0.929 . S
N188 Mn181 2.257 . S
N188 C187 1.326 . S
N188 C192 1.362 . S
C189 C190 1.258 . S
C189 C192 1.431 . S
C189 C209 1.449 . S
C190 C189 1.258 . S
C190 C191 1.477 . S
C190 H210 0.931 . S
C191 C187 1.460 . S
C191 C190 1.477 . S
C191 H211 0.930 . S
C192 N188 1.362 . S
C192 C189 1.431 . S
C192 C202 1.476 . S
H193 C187 0.929 . S
C194 O185 1.250 . S
C194 O186 1.258 . S
O195 Mn180 2.162 . S
O195 C183 1.281 . S
O196 Mn180 2.297 . S
O196 C183 1.236 . S
N197 Mn181 2.282 . S
N197 C198 1.328 . S
N197 C202 1.318 . S
C198 N197 1.328 . S
C198 C199 1.457 . S
C198 H203 0.929 . S
C199 C198 1.457 . S
C199 C200 1.291 . S
C199 H212 0.931 . S
C200 C199 1.291 . S
C200 C201 1.373 . S
C200 H213 0.929 . S
C201 C200 1.373 . S
C201 C202 1.396 . S
C201 C208 1.403 . S
C202 C192 1.476 . S
C202 N197 1.318 . S
C202 C201 1.396 . S
H203 C198 0.929 . S
O204 Mn180 2.385 . S
O204 C182 1.234 . S
O205 Mn180 2.209 . S
O205 Mn181 2.215 . S
O205 C182 1.283 . S
O206 Mn180 2.094 . S
O206 C184 1.240 . S
O207 Mn181 2.117 . S
O207 C184 1.264 . S
C208 C201 1.403 . S
C208 C209 1.399 . S
C208 H214 0.929 . S
C209 C189 1.449 . S
C209 C208 1.399 . S
C209 H215 0.930 . S
H210 C190 0.931 . S
H211 C191 0.930 . S
H212 C199 0.931 . S
H213 C200 0.929 . S
H214 C208 0.929 . S
H215 C209 0.930 . S
Mn216 O221 2.095 . S
Mn216 O231 2.162 . S
Mn216 O232 2.297 . S
Mn216 O240 2.385 . S
Mn216 O241 2.209 . S
Mn216 O242 2.094 . S
Mn217 O222 2.121 . S
Mn217 N224 2.257 . S
Mn217 N233 2.282 . S
Mn217 O241 2.215 . S
Mn217 O243 2.117 . S
C218 O240 1.234 . S
C218 O241 1.283 . S
C219 O231 1.281 . S
C219 O232 1.236 . S
C220 O242 1.240 . S
C220 O243 1.264 . S
O221 Mn216 2.095 . S
O221 C230 1.250 . S
O222 Mn217 2.121 . S
O222 C230 1.258 . S
C223 N224 1.326 . S
C223 C227 1.460 . S
C223 H229 0.929 . S
N224 Mn217 2.257 . S
N224 C223 1.326 . S
N224 C228 1.362 . S
C225 C226 1.258 . S
C225 C228 1.431 . S
C225 C245 1.449 . S
C226 C225 1.258 . S
C226 C227 1.477 . S
C226 H246 0.931 . S
C227 C223 1.460 . S
C227 C226 1.477 . S
C227 H247 0.930 . S
C228 N224 1.362 . S
C228 C225 1.431 . S
C228 C238 1.476 . S
H229 C223 0.929 . S
C230 O221 1.250 . S
C230 O222 1.258 . S
O231 Mn216 2.162 . S
O231 C219 1.281 . S
O232 Mn216 2.297 . S
O232 C219 1.236 . S
N233 Mn217 2.282 . S
N233 C234 1.328 . S
N233 C238 1.318 . S
C234 N233 1.328 . S
C234 C235 1.457 . S
C234 H239 0.929 . S
C235 C234 1.457 . S
C235 C236 1.291 . S
C235 H248 0.931 . S
C236 C235 1.291 . S
C236 C237 1.373 . S
C236 H249 0.929 . S
C237 C236 1.373 . S
C237 C238 1.396 . S
C237 C244 1.403 . S
C238 C228 1.476 . S
C238 N233 1.318 . S
C238 C237 1.396 . S
H239 C234 0.929 . S
O240 Mn216 2.385 . S
O240 C218 1.234 . S
O241 Mn216 2.209 . S
O241 Mn217 2.215 . S
O241 C218 1.283 . S
O242 Mn216 2.094 . S
O242 C220 1.240 . S
O243 Mn217 2.117 . S
O243 C220 1.264 . S
C244 C237 1.403 . S
C244 C245 1.399 . S
C244 H250 0.929 . S
C245 C225 1.449 . S
C245 C244 1.399 . S
C245 H251 0.930 . S
H246 C226 0.931 . S
H247 C227 0.930 . S
H248 C235 0.931 . S
H249 C236 0.929 . S
H250 C244 0.929 . S
H251 C245 0.930 . S
Mn252 O257 2.064 1_655 S
Mn252 O267 2.159 1_655 S
Mn252 O268 2.293 . S
Mn252 O276 2.419 . S
Mn252 O277 2.223 . S
Mn252 O278 2.098 1_655 S
Mn253 O258 2.121 1_655 S
Mn253 N260 2.257 . S
Mn253 N269 2.282 . S
Mn253 O277 2.215 . S
Mn253 O279 2.117 1_655 S
C254 O276 1.234 . S
C254 O277 1.283 . S
C255 O267 1.281 1_655 S
C255 O268 1.236 . S
C256 O278 1.240 . S
C256 O279 1.264 . S
O257 Mn252 2.064 1_455 S
O257 C266 1.250 . S
O258 Mn253 2.121 1_455 S
O258 C266 1.258 . S
C259 N260 1.326 . S
C259 C263 1.460 . S
C259 H265 0.929 1_655 S
N260 Mn253 2.257 . S
N260 C259 1.326 . S
N260 C264 1.362 . S
C261 C262 1.258 . S
C261 C264 1.431 . S
C261 C281 1.449 . S
C262 C261 1.258 . S
C262 C263 1.477 . S
C262 H282 0.931 . S
C263 C259 1.460 . S
C263 C262 1.477 . S
C263 H283 0.930 . S
C264 N260 1.362 . S
C264 C261 1.431 . S
C264 C274 1.476 . S
H265 C259 0.929 1_455 S
C266 O257 1.250 . S
C266 O258 1.258 . S
O267 Mn252 2.159 1_455 S
O267 C255 1.281 1_455 S
O268 Mn252 2.293 . S
O268 C255 1.236 . S
N269 Mn253 2.282 . S
N269 C270 1.328 . S
N269 C274 1.318 . S
C270 N269 1.328 . S
C270 C271 1.457 . S
C270 H275 0.929 . S
C271 C270 1.457 . S
C271 C272 1.291 . S
C271 H284 0.931 . S
C272 C271 1.291 . S
C272 C273 1.373 . S
C272 H285 0.929 . S
C273 C272 1.373 . S
C273 C274 1.396 . S
C273 C280 1.403 . S
C274 C264 1.476 . S
C274 N269 1.318 . S
C274 C273 1.396 . S
H275 C270 0.929 . S
O276 Mn252 2.419 . S
O276 C254 1.234 . S
O277 Mn252 2.223 . S
O277 Mn253 2.215 . S
O277 C254 1.283 . S
O278 Mn252 2.098 1_455 S
O278 C256 1.240 . S
O279 Mn253 2.117 1_455 S
O279 C256 1.264 . S
C280 C273 1.403 . S
C280 C281 1.399 . S
C280 H286 0.929 . S
C281 C261 1.449 . S
C281 C280 1.399 . S
C281 H287 0.930 . S
H282 C262 0.931 . S
H283 C263 0.930 . S
H284 C271 0.931 . S
H285 C272 0.929 . S
H286 C280 0.929 . S
H287 C281 0.930 . S
Mn288 O293 2.095 . S
Mn288 O303 2.162 . S
Mn288 O304 2.297 . S
Mn288 O312 2.385 . S
Mn288 O313 2.209 . S
Mn288 O314 2.094 . S
Mn289 O294 2.121 . S
Mn289 N296 2.257 . S
Mn289 N305 2.282 . S
Mn289 O313 2.215 . S
Mn289 O315 2.117 . S
C290 O312 1.234 . S
C290 O313 1.283 . S
C291 O303 1.281 . S
C291 O304 1.236 . S
C292 O314 1.240 . S
C292 O315 1.264 . S
O293 Mn288 2.095 . S
O293 C302 1.250 . S
O294 Mn289 2.121 . S
O294 C302 1.258 . S
C295 N296 1.326 . S
C295 C299 1.460 . S
C295 H301 0.929 . S
N296 Mn289 2.257 . S
N296 C295 1.326 . S
N296 C300 1.362 . S
C297 C298 1.258 . S
C297 C300 1.431 . S
C297 C317 1.449 1_545 S
C298 C297 1.258 . S
C298 C299 1.477 . S
C298 H318 0.931 . S
C299 C295 1.460 . S
C299 C298 1.477 . S
C299 H319 0.930 . S
C300 N296 1.362 . S
C300 C297 1.431 . S
C300 C310 1.476 . S
H301 C295 0.929 . S
C302 O293 1.250 . S
C302 O294 1.258 . S
O303 Mn288 2.162 . S
O303 C291 1.281 . S
O304 Mn288 2.297 . S
O304 C291 1.236 . S
N305 Mn289 2.282 . S
N305 C306 1.328 . S
N305 C310 1.318 . S
C306 N305 1.328 . S
C306 C307 1.457 1_545 S
C306 H311 0.929 . S
C307 C306 1.457 1_565 S
C307 C308 1.291 . S
C307 H320 0.931 . S
C308 C307 1.291 . S
C308 C309 1.373 . S
C308 H321 0.929 . S
C309 C308 1.373 . S
C309 C310 1.396 1_565 S
C309 C316 1.403 . S
C310 C300 1.476 . S
C310 N305 1.318 . S
C310 C309 1.396 1_545 S
H311 C306 0.929 . S
O312 Mn288 2.385 . S
O312 C290 1.234 . S
O313 Mn288 2.209 . S
O313 Mn289 2.215 . S
O313 C290 1.283 . S
O314 Mn288 2.094 . S
O314 C292 1.240 . S
O315 Mn289 2.117 . S
O315 C292 1.264 . S
C316 C309 1.403 . S
C316 C317 1.399 . S
C316 H322 0.929 . S
C317 C297 1.449 1_565 S
C317 C316 1.399 . S
C317 H323 0.930 . S
H318 C298 0.931 . S
H319 C299 0.930 . S
H320 C307 0.931 . S
H321 C308 0.929 . S
H322 C316 0.929 . S
H323 C317 0.930 . S
Mn324 O329 2.095 . S
Mn324 O339 2.162 . S
Mn324 O340 2.297 . S
Mn324 O348 2.385 . S
Mn324 O349 2.209 . S
Mn324 O350 2.094 . S
Mn325 O330 2.121 . S
Mn325 N332 2.257 . S
Mn325 N341 2.282 . S
Mn325 O349 2.215 . S
Mn325 O351 2.117 . S
C326 O348 1.234 . S
C326 O349 1.283 . S
C327 O339 1.281 . S
C327 O340 1.236 . S
C328 O350 1.240 . S
C328 O351 1.264 . S
O329 Mn324 2.095 . S
O329 C338 1.250 . S
O330 Mn325 2.121 . S
O330 C338 1.258 . S
C331 N332 1.326 . S
C331 C335 1.460 . S
C331 H337 0.929 . S
N332 Mn325 2.257 . S
N332 C331 1.326 . S
N332 C336 1.362 . S
C333 C334 1.258 . S
C333 C336 1.431 . S
C333 C353 1.449 . S
C334 C333 1.258 . S
C334 C335 1.477 . S
C334 H354 0.931 . S
C335 C331 1.460 . S
C335 C334 1.477 . S
C335 H355 0.930 . S
C336 N332 1.362 . S
C336 C333 1.431 . S
C336 C346 1.476 . S
H337 C331 0.929 . S
C338 O329 1.250 . S
C338 O330 1.258 . S
O339 Mn324 2.162 . S
O339 C327 1.281 . S
O340 Mn324 2.297 . S
O340 C327 1.236 . S
N341 Mn325 2.282 . S
N341 C342 1.328 . S
N341 C346 1.318 . S
C342 N341 1.328 . S
C342 C343 1.457 . S
C342 H347 0.929 . S
C343 C342 1.457 . S
C343 C344 1.291 . S
C343 H356 0.931 . S
C344 C343 1.291 . S
C344 C345 1.373 . S
C344 H357 0.929 . S
C345 C344 1.373 . S
C345 C346 1.396 . S
C345 C352 1.403 . S
C346 C336 1.476 . S
C346 N341 1.318 . S
C346 C345 1.396 . S
H347 C342 0.929 . S
O348 Mn324 2.385 . S
O348 C326 1.234 . S
O349 Mn324 2.209 . S
O349 Mn325 2.215 . S
O349 C326 1.283 . S
O350 Mn324 2.094 . S
O350 C328 1.240 . S
O351 Mn325 2.117 . S
O351 C328 1.264 . S
C352 C345 1.403 . S
C352 C353 1.399 . S
C352 H358 0.929 . S
C353 C333 1.449 . S
C353 C352 1.399 . S
C353 H359 0.930 . S
H354 C334 0.931 . S
H355 C335 0.930 . S
H356 C343 0.931 . S
H357 C344 0.929 . S
H358 C352 0.929 . S
H359 C353 0.930 . S
Mn360 O365 2.095 . S
Mn360 O375 2.162 . S
Mn360 O376 2.297 . S
Mn360 O384 2.385 . S
Mn360 O385 2.209 . S
Mn360 O386 2.094 . S
Mn361 O366 2.121 . S
Mn361 N368 2.257 . S
Mn361 N377 2.282 . S
Mn361 O385 2.215 . S
Mn361 O387 2.117 . S
C362 O384 1.234 . S
C362 O385 1.283 . S
C363 O375 1.281 . S
C363 O376 1.236 . S
C364 O386 1.240 . S
C364 O387 1.264 . S
O365 Mn360 2.095 . S
O365 C374 1.250 . S
O366 Mn361 2.121 . S
O366 C374 1.258 . S
C367 N368 1.326 . S
C367 C371 1.460 . S
C367 H373 0.929 . S
N368 Mn361 2.257 . S
N368 C367 1.326 . S
N368 C372 1.362 . S
C369 C370 1.258 . S
C369 C372 1.431 . S
C369 C389 1.449 . S
C370 C369 1.258 . S
C370 C371 1.477 . S
C370 H390 0.931 . S
C371 C367 1.460 . S
C371 C370 1.477 . S
C371 H391 0.930 . S
C372 N368 1.362 . S
C372 C369 1.431 . S
C372 C382 1.476 . S
H373 C367 0.929 . S
C374 O365 1.250 . S
C374 O366 1.258 . S
O375 Mn360 2.162 . S
O375 C363 1.281 . S
O376 Mn360 2.297 . S
O376 C363 1.236 . S
N377 Mn361 2.282 . S
N377 C378 1.328 . S
N377 C382 1.318 . S
C378 N377 1.328 . S
C378 C379 1.457 . S
C378 H383 0.929 . S
C379 C378 1.457 . S
C379 C380 1.291 . S
C379 H392 0.931 . S
C380 C379 1.291 . S
C380 C381 1.373 . S
C380 H393 0.929 . S
C381 C380 1.373 . S
C381 C382 1.396 . S
C381 C388 1.403 . S
C382 C372 1.476 . S
C382 N377 1.318 . S
C382 C381 1.396 . S
H383 C378 0.929 . S
O384 Mn360 2.385 . S
O384 C362 1.234 . S
O385 Mn360 2.209 . S
O385 Mn361 2.215 . S
O385 C362 1.283 . S
O386 Mn360 2.094 . S
O386 C364 1.240 . S
O387 Mn361 2.117 . S
O387 C364 1.264 . S
C388 C381 1.403 . S
C388 C389 1.399 . S
C388 H394 0.929 . S
C389 C369 1.449 . S
C389 C388 1.399 . S
C389 H395 0.930 . S
H390 C370 0.931 . S
H391 C371 0.930 . S
H392 C379 0.931 . S
H393 C380 0.929 . S
H394 C388 0.929 . S
H395 C389 0.930 . S
Mn396 O401 2.095 . S
Mn396 O411 2.162 . S
Mn396 O412 2.297 . S
Mn396 O420 2.385 . S
Mn396 O421 2.209 . S
Mn396 O422 2.094 . S
Mn397 O402 2.121 . S
Mn397 N404 2.257 . S
Mn397 N413 2.282 . S
Mn397 O421 2.215 . S
Mn397 O423 2.108 1_554 S
C398 O420 1.234 . S
C398 O421 1.283 . S
C399 O411 1.281 . S
C399 O412 1.236 . S
C400 O422 1.240 . S
C400 O423 1.259 1_554 S
O401 Mn396 2.095 . S
O401 C410 1.250 . S
O402 Mn397 2.121 . S
O402 C410 1.258 . S
C403 N404 1.326 . S
C403 C407 1.460 . S
C403 H409 0.929 . S
N404 Mn397 2.257 . S
N404 C403 1.326 . S
N404 C408 1.362 . S
C405 C406 1.258 . S
C405 C408 1.431 . S
C405 C425 1.449 . S
C406 C405 1.258 . S
C406 C407 1.477 . S
C406 H426 0.931 1_565 S
C407 C403 1.460 . S
C407 C406 1.477 . S
C407 H427 0.967 . S
C408 N404 1.362 . S
C408 C405 1.431 . S
C408 C418 1.476 . S
H409 C403 0.929 . S
C410 O401 1.250 . S
C410 O402 1.258 . S
O411 Mn396 2.162 . S
O411 C399 1.281 . S
O412 Mn396 2.297 . S
O412 C399 1.236 . S
N413 Mn397 2.282 . S
N413 C414 1.328 1_554 S
N413 C418 1.318 . S
C414 N413 1.328 1_556 S
C414 C415 1.457 . S
C414 H419 0.929 . S
C415 C414 1.457 . S
C415 C416 1.291 . S
C415 H428 0.931 . S
C416 C415 1.291 . S
C416 C417 1.373 . S
C416 H429 0.929 . S
C417 C416 1.373 . S
C417 C418 1.396 1_556 S
C417 C424 1.403 . S
C418 C408 1.476 . S
C418 N413 1.318 . S
C418 C417 1.396 1_554 S
H419 C414 0.929 . S
O420 Mn396 2.385 . S
O420 C398 1.234 . S
O421 Mn396 2.209 . S
O421 Mn397 2.215 . S
O421 C398 1.283 . S
O422 Mn396 2.094 . S
O422 C400 1.240 . S
O423 Mn397 2.108 1_556 S
O423 C400 1.259 1_556 S
C424 C417 1.403 . S
C424 C425 1.397 1_556 S
C424 H430 0.931 . S
C425 C405 1.449 . S
C425 C424 1.397 1_554 S
C425 H431 0.930 1_565 S
H426 C406 0.931 1_545 S
H427 C407 0.967 . S
H428 C415 0.931 . S
H429 C416 0.929 . S
H430 C424 0.931 . S
H431 C425 0.930 1_545 S
Mn432 O437 2.095 . S
Mn432 O447 2.162 . S
Mn432 O448 2.297 . S
Mn432 O456 2.385 . S
Mn432 O457 2.209 . S
Mn432 O458 2.120 . S
Mn433 O438 2.121 1_556 S
Mn433 N440 2.257 1_556 S
Mn433 N449 2.282 . S
Mn433 O457 2.215 1_556 S
Mn433 O459 2.117 . S
C434 O456 1.234 . S
C434 O457 1.283 . S
C435 O447 1.281 . S
C435 O448 1.236 . S
C436 O458 1.212 1_556 S
C436 O459 1.264 . S
O437 Mn432 2.095 . S
O437 C446 1.250 . S
O438 Mn433 2.121 1_554 S
O438 C446 1.258 . S
C439 N440 1.326 . S
C439 C443 1.460 . S
C439 H445 0.929 . S
N440 Mn433 2.257 1_554 S
N440 C439 1.326 . S
N440 C444 1.362 1_554 S
C441 C442 1.258 1_556 S
C441 C444 1.431 . S
C441 C461 1.449 . S
C442 C441 1.258 1_554 S
C442 C443 1.477 . S
C442 H462 0.931 . S
C443 C439 1.460 . S
C443 C442 1.477 . S
C443 H463 0.930 . S
C444 N440 1.362 1_556 S
C444 C441 1.431 . S
C444 C454 1.476 . S
H445 C439 0.929 . S
C446 O437 1.250 . S
C446 O438 1.258 . S
O447 Mn432 2.162 . S
O447 C435 1.281 . S
O448 Mn432 2.297 . S
O448 C435 1.236 . S
N449 Mn433 2.282 . S
N449 C450 1.328 . S
N449 C454 1.318 . S
C450 N449 1.328 . S
C450 C451 1.457 . S
C450 H455 0.929 . S
C451 C450 1.457 . S
C451 C452 1.291 . S
C451 H464 0.931 . S
C452 C451 1.291 . S
C452 C453 1.373 . S
C452 H465 0.929 . S
C453 C452 1.373 . S
C453 C454 1.396 . S
C453 C460 1.403 . S
C454 C444 1.476 . S
C454 N449 1.318 . S
C454 C453 1.396 . S
H455 C450 0.929 . S
O456 Mn432 2.385 . S
O456 C434 1.234 . S
O457 Mn432 2.209 . S
O457 Mn433 2.215 1_554 S
O457 C434 1.283 . S
O458 Mn432 2.120 . S
O458 C436 1.212 1_554 S
O459 Mn433 2.117 . S
O459 C436 1.264 . S
C460 C453 1.403 . S
C460 C461 1.399 . S
C460 H466 0.929 . S
C461 C441 1.449 . S
C461 C460 1.399 . S
C461 H467 0.930 . S
H462 C442 0.931 . S
H463 C443 0.930 . S
H464 C451 0.931 . S
H465 C452 0.929 . S
H466 C460 0.929 . S
H467 C461 0.930 . S
Mn468 O473 2.095 1_554 S
Mn468 O483 2.162 . S
Mn468 O484 2.297 . S
Mn468 O492 2.385 . S
Mn468 O493 2.209 1_554 S
Mn468 O494 2.094 1_554 S
Mn469 O474 2.121 . S
Mn469 N476 2.257 . S
Mn469 N485 2.282 . S
Mn469 O493 2.215 . S
Mn469 O495 2.117 . S
C470 O492 1.234 1_556 S
C470 O493 1.283 . S
C471 O483 1.281 . S
C471 O484 1.236 . S
C472 O494 1.240 . S
C472 O495 1.264 . S
O473 Mn468 2.095 1_556 S
O473 C482 1.250 . S
O474 Mn469 2.121 . S
O474 C482 1.258 . S
C475 N476 1.326 . S
C475 C479 1.460 . S
C475 H481 0.929 . S
N476 Mn469 2.257 . S
N476 C475 1.326 . S
N476 C480 1.362 . S
C477 C478 1.258 . S
C477 C480 1.431 . S
C477 C497 1.449 . S
C478 C477 1.258 . S
C478 C479 1.477 . S
C478 H498 0.931 . S
C479 C475 1.460 . S
C479 C478 1.477 . S
C479 H499 0.930 . S
C480 N476 1.362 . S
C480 C477 1.431 . S
C480 C490 1.476 . S
H481 C475 0.929 . S
C482 O473 1.250 . S
C482 O474 1.258 . S
O483 Mn468 2.162 . S
O483 C471 1.281 . S
O484 Mn468 2.297 . S
O484 C471 1.236 . S
N485 Mn469 2.282 . S
N485 C486 1.328 . S
N485 C490 1.318 . S
C486 N485 1.328 . S
C486 C487 1.457 . S
C486 H491 0.929 . S
C487 C486 1.457 . S
C487 C488 1.291 . S
C487 H500 0.931 . S
C488 C487 1.291 . S
C488 C489 1.373 . S
C488 H501 0.929 . S
C489 C488 1.373 . S
C489 C490 1.396 . S
C489 C496 1.403 . S
C490 C480 1.476 . S
C490 N485 1.318 . S
C490 C489 1.396 . S
H491 C486 0.929 . S
O492 Mn468 2.385 . S
O492 C470 1.234 1_554 S
O493 Mn468 2.209 1_556 S
O493 Mn469 2.215 . S
O493 C470 1.283 . S
O494 Mn468 2.094 1_556 S
O494 C472 1.240 . S
O495 Mn469 2.117 . S
O495 C472 1.264 . S
C496 C489 1.403 . S
C496 C497 1.399 . S
C496 H502 0.929 . S
C497 C477 1.449 . S
C497 C496 1.399 . S
C497 H503 0.930 . S
H498 C478 0.931 . S
H499 C479 0.930 . S
H500 C487 0.931 . S
H501 C488 0.929 . S
H502 C496 0.929 . S
H503 C497 0.930 . S
Mn504 O509 2.095 . S
Mn504 O519 2.162 . S
Mn504 O520 2.297 . S
Mn504 O528 2.385 . S
Mn504 O529 2.209 . S
Mn504 O530 2.094 . S
Mn505 O510 2.121 . S
Mn505 N512 2.257 . S
Mn505 N521 2.282 . S
Mn505 O529 2.215 . S
Mn505 O531 2.117 . S
C506 O528 1.234 . S
C506 O529 1.283 . S
C507 O519 1.281 . S
C507 O520 1.236 . S
C508 O530 1.240 . S
C508 O531 1.264 . S
O509 Mn504 2.095 . S
O509 C518 1.250 . S
O510 Mn505 2.121 . S
O510 C518 1.258 . S
C511 N512 1.326 . S
C511 C515 1.460 . S
C511 H517 0.929 . S
N512 Mn505 2.257 . S
N512 C511 1.326 . S
N512 C516 1.362 . S
C513 C514 1.258 . S
C513 C516 1.431 . S
C513 C533 1.449 . S
C514 C513 1.258 . S
C514 C515 1.477 . S
C514 H534 0.931 . S
C515 C511 1.460 . S
C515 C514 1.477 . S
C515 H535 0.930 . S
C516 N512 1.362 . S
C516 C513 1.431 . S
C516 C526 1.476 . S
H517 C511 0.929 . S
C518 O509 1.250 . S
C518 O510 1.258 . S
O519 Mn504 2.162 . S
O519 C507 1.281 . S
O520 Mn504 2.297 . S
O520 C507 1.236 . S
N521 Mn505 2.282 . S
N521 C522 1.328 . S
N521 C526 1.318 . S
C522 N521 1.328 . S
C522 C523 1.457 . S
C522 H527 0.929 . S
C523 C522 1.457 . S
C523 C524 1.291 . S
C523 H536 0.931 . S
C524 C523 1.291 . S
C524 C525 1.373 . S
C524 H537 0.929 . S
C525 C524 1.373 . S
C525 C526 1.396 . S
C525 C532 1.403 . S
C526 C516 1.476 . S
C526 N521 1.318 . S
C526 C525 1.396 . S
H527 C522 0.929 . S
O528 Mn504 2.385 . S
O528 C506 1.234 . S
O529 Mn504 2.209 . S
O529 Mn505 2.215 . S
O529 C506 1.283 . S
O530 Mn504 2.094 . S
O530 C508 1.240 . S
O531 Mn505 2.117 . S
O531 C508 1.264 . S
C532 C525 1.403 . S
C532 C533 1.399 . S
C532 H538 0.929 . S
C533 C513 1.449 . S
C533 C532 1.399 . S
C533 H539 0.930 . S
H534 C514 0.931 . S
H535 C515 0.930 . S
H536 C523 0.931 . S
H537 C524 0.929 . S
H538 C532 0.929 . S
H539 C533 0.930 . S
Mn540 O545 2.095 . S
Mn540 O555 2.162 . S
Mn540 O556 2.297 . S
Mn540 O564 2.385 . S
Mn540 O565 2.209 . S
Mn540 O566 2.094 . S
Mn541 O546 2.121 . S
Mn541 N548 2.257 . S
Mn541 N557 2.282 . S
Mn541 O565 2.215 . S
Mn541 O567 2.117 . S
C542 O564 1.234 . S
C542 O565 1.283 . S
C543 O555 1.281 . S
C543 O556 1.236 . S
C544 O566 1.240 . S
C544 O567 1.264 . S
O545 Mn540 2.095 . S
O545 C554 1.250 . S
O546 Mn541 2.121 . S
O546 C554 1.258 . S
C547 N548 1.326 . S
C547 C551 1.460 1_565 S
C547 H553 0.929 . S
N548 Mn541 2.257 . S
N548 C547 1.326 . S
N548 C552 1.362 . S
C549 C550 1.258 . S
C549 C552 1.431 1_545 S
C549 C569 1.449 . S
C550 C549 1.258 . S
C550 C551 1.477 . S
C550 H570 0.931 . S
C551 C547 1.460 1_545 S
C551 C550 1.477 . S
C551 H571 0.930 . S
C552 N548 1.362 . S
C552 C549 1.431 1_565 S
C552 C562 1.476 . S
H553 C547 0.929 . S
C554 O545 1.250 . S
C554 O546 1.258 . S
O555 Mn540 2.162 . S
O555 C543 1.281 . S
O556 Mn540 2.297 . S
O556 C543 1.236 . S
N557 Mn541 2.282 . S
N557 C558 1.328 . S
N557 C562 1.318 . S
C558 N557 1.328 . S
C558 C559 1.457 . S
C558 H563 0.929 . S
C559 C558 1.457 . S
C559 C560 1.291 . S
C559 H572 0.931 . S
C560 C559 1.291 . S
C560 C561 1.373 . S
C560 H573 0.929 . S
C561 C560 1.373 . S
C561 C562 1.396 . S
C561 C568 1.403 . S
C562 C552 1.476 . S
C562 N557 1.318 . S
C562 C561 1.396 . S
H563 C558 0.929 . S
O564 Mn540 2.385 . S
O564 C542 1.234 . S
O565 Mn540 2.209 . S
O565 Mn541 2.215 . S
O565 C542 1.283 . S
O566 Mn540 2.094 . S
O566 C544 1.240 . S
O567 Mn541 2.117 . S
O567 C544 1.264 . S
C568 C561 1.403 . S
C568 C569 1.399 1_565 S
C568 H574 0.929 . S
C569 C549 1.449 . S
C569 C568 1.399 1_545 S
C569 H575 0.930 . S
H570 C550 0.931 . S
H571 C551 0.930 . S
H572 C559 0.931 . S
H573 C560 0.929 . S
H574 C568 0.929 . S
H575 C569 0.930 . S
Mn576 O581 2.095 1_565 S
Mn576 O591 2.162 1_565 S
Mn576 O592 2.297 . S
Mn576 O600 2.385 . S
Mn576 O601 2.209 . S
Mn576 O602 2.094 1_565 S
Mn577 O582 2.121 1_565 S
Mn577 N584 2.257 . S
Mn577 N593 2.282 . S
Mn577 O601 2.215 . S
Mn577 O603 2.117 1_565 S
C578 O600 1.234 . S
C578 O601 1.283 . S
C579 O591 1.281 . S
C579 O592 1.236 1_545 S
C580 O602 1.240 . S
C580 O603 1.264 . S
O581 Mn576 2.095 1_545 S
O581 C590 1.250 . S
O582 Mn577 2.121 1_545 S
O582 C590 1.258 . S
C583 N584 1.326 . S
C583 C587 1.460 . S
C583 H589 0.929 1_565 S
N584 Mn577 2.257 . S
N584 C583 1.326 . S
N584 C588 1.362 . S
C585 C586 1.258 . S
C585 C588 1.431 . S
C585 C605 1.449 . S
C586 C585 1.258 . S
C586 C587 1.477 . S
C586 H606 0.931 . S
C587 C583 1.460 . S
C587 C586 1.477 . S
C587 H607 0.930 . S
C588 N584 1.362 . S
C588 C585 1.431 . S
C588 C598 1.476 . S
H589 C583 0.929 1_545 S
C590 O581 1.250 . S
C590 O582 1.258 . S
O591 Mn576 2.162 1_545 S
O591 C579 1.281 . S
O592 Mn576 2.297 . S
O592 C579 1.236 1_565 S
N593 Mn577 2.282 . S
N593 C594 1.328 . S
N593 C598 1.318 . S
C594 N593 1.328 . S
C594 C595 1.457 . S
C594 H599 0.929 . S
C595 C594 1.457 . S
C595 C596 1.291 . S
C595 H608 0.931 . S
C596 C595 1.291 . S
C596 C597 1.373 . S
C596 H609 0.929 . S
C597 C596 1.373 . S
C597 C598 1.396 . S
C597 C604 1.403 . S
C598 C588 1.476 . S
C598 N593 1.318 . S
C598 C597 1.396 . S
H599 C594 0.929 . S
O600 Mn576 2.385 . S
O600 C578 1.234 . S
O601 Mn576 2.209 . S
O601 Mn577 2.215 . S
O601 C578 1.283 . S
O602 Mn576 2.094 1_545 S
O602 C580 1.240 . S
O603 Mn577 2.117 1_545 S
O603 C580 1.264 . S
C604 C597 1.403 . S
C604 C605 1.399 . S
C604 H610 0.929 . S
C605 C585 1.449 . S
C605 C604 1.399 . S
C605 H611 0.930 . S
H606 C586 0.931 . S
H607 C587 0.930 . S
H608 C595 0.931 . S
H609 C596 0.929 . S
H610 C604 0.929 . S
H611 C605 0.930 . S
Mn612 O617 2.095 . S
Mn612 O627 2.162 . S
Mn612 O628 2.297 . S
Mn612 O636 2.385 . S
Mn612 O637 2.209 . S
Mn612 O638 2.094 . S
Mn613 O618 2.121 . S
Mn613 N620 2.257 . S
Mn613 N629 2.282 . S
Mn613 O637 2.215 . S
Mn613 O639 2.117 . S
C614 O636 1.234 . S
C614 O637 1.283 . S
C615 O627 1.281 . S
C615 O628 1.236 . S
C616 O638 1.240 . S
C616 O639 1.264 . S
O617 Mn612 2.095 . S
O617 C626 1.250 . S
O618 Mn613 2.121 . S
O618 C626 1.258 . S
C619 N620 1.326 . S
C619 C623 1.460 . S
C619 H625 0.929 . S
N620 Mn613 2.257 . S
N620 C619 1.326 . S
N620 C624 1.362 . S
C621 C622 1.258 . S
C621 C624 1.431 . S
C621 C641 1.449 . S
C622 C621 1.258 . S
C622 C623 1.477 . S
C622 H642 0.931 . S
C623 C619 1.460 . S
C623 C622 1.477 . S
C623 H643 0.930 . S
C624 N620 1.362 . S
C624 C621 1.431 . S
C624 C634 1.476 . S
H625 C619 0.929 . S
C626 O617 1.250 . S
C626 O618 1.258 . S
O627 Mn612 2.162 . S
O627 C615 1.281 . S
O628 Mn612 2.297 . S
O628 C615 1.236 . S
N629 Mn613 2.282 . S
N629 C630 1.328 . S
N629 C634 1.318 . S
C630 N629 1.328 . S
C630 C631 1.457 . S
C630 H635 0.929 . S
C631 C630 1.457 . S
C631 C632 1.291 . S
C631 H644 0.931 . S
C632 C631 1.291 . S
C632 C633 1.373 . S
C632 H645 0.929 . S
C633 C632 1.373 . S
C633 C634 1.396 . S
C633 C640 1.403 . S
C634 C624 1.476 . S
C634 N629 1.318 . S
C634 C633 1.396 . S
H635 C630 0.929 . S
O636 Mn612 2.385 . S
O636 C614 1.234 . S
O637 Mn612 2.209 . S
O637 Mn613 2.215 . S
O637 C614 1.283 . S
O638 Mn612 2.094 . S
O638 C616 1.240 . S
O639 Mn613 2.117 . S
O639 C616 1.264 . S
C640 C633 1.403 . S
C640 C641 1.399 . S
C640 H646 0.929 . S
C641 C621 1.449 . S
C641 C640 1.399 . S
C641 H647 0.930 . S
H642 C622 0.931 . S
H643 C623 0.930 . S
H644 C631 0.931 . S
H645 C632 0.929 . S
H646 C640 0.929 . S
H647 C641 0.930 . S
Mn648 O653 2.095 . S
Mn648 O663 2.162 . S
Mn648 O664 2.297 . S
Mn648 O672 2.385 . S
Mn648 O673 2.209 . S
Mn648 O674 2.094 . S
Mn649 O654 2.121 . S
Mn649 N656 2.257 . S
Mn649 N665 2.282 . S
Mn649 O673 2.215 . S
Mn649 O675 2.117 . S
C650 O672 1.234 . S
C650 O673 1.283 . S
C651 O663 1.281 . S
C651 O664 1.236 . S
C652 O674 1.240 . S
C652 O675 1.264 . S
O653 Mn648 2.095 . S
O653 C662 1.250 . S
O654 Mn649 2.121 . S
O654 C662 1.258 . S
C655 N656 1.326 . S
C655 C659 1.460 . S
C655 H661 0.929 . S
N656 Mn649 2.257 . S
N656 C655 1.326 . S
N656 C660 1.362 . S
C657 C658 1.258 . S
C657 C660 1.431 . S
C657 C677 1.449 . S
C658 C657 1.258 . S
C658 C659 1.477 . S
C658 H678 0.931 . S
C659 C655 1.460 . S
C659 C658 1.477 . S
C659 H679 0.930 . S
C660 N656 1.362 . S
C660 C657 1.431 . S
C660 C670 1.476 . S
H661 C655 0.929 . S
C662 O653 1.250 . S
C662 O654 1.258 . S
O663 Mn648 2.162 . S
O663 C651 1.281 . S
O664 Mn648 2.297 . S
O664 C651 1.236 . S
N665 Mn649 2.282 . S
N665 C666 1.328 . S
N665 C670 1.318 . S
C666 N665 1.328 . S
C666 C667 1.457 . S
C666 H671 0.929 . S
C667 C666 1.457 . S
C667 C668 1.291 . S
C667 H680 0.931 . S
C668 C667 1.291 . S
C668 C669 1.373 . S
C668 H681 0.929 . S
C669 C668 1.373 . S
C669 C670 1.396 . S
C669 C676 1.403 . S
C670 C660 1.476 . S
C670 N665 1.318 . S
C670 C669 1.396 . S
H671 C666 0.929 . S
O672 Mn648 2.385 . S
O672 C650 1.234 . S
O673 Mn648 2.209 . S
O673 Mn649 2.215 . S
O673 C650 1.283 . S
O674 Mn648 2.094 . S
O674 C652 1.240 . S
O675 Mn649 2.117 . S
O675 C652 1.264 . S
C676 C669 1.403 . S
C676 C677 1.399 . S
C676 H682 0.929 . S
C677 C657 1.449 . S
C677 C676 1.399 . S
C677 H683 0.930 . S
H678 C658 0.931 . S
H679 C659 0.930 . S
H680 C667 0.931 . S
H681 C668 0.929 . S
H682 C676 0.929 . S
H683 C677 0.930 . S
Mn684 O689 2.095 1_545 S
Mn684 O699 2.162 . S
Mn684 O700 2.297 . S
Mn684 O708 2.385 . S
Mn684 O709 2.209 . S
Mn684 O710 2.094 . S
Mn685 O690 2.121 1_545 S
Mn685 N692 2.257 . S
Mn685 N701 2.282 . S
Mn685 O709 2.215 . S
Mn685 O711 2.117 . S
C686 O708 1.234 . S
C686 O709 1.283 . S
C687 O699 1.281 . S
C687 O700 1.236 . S
C688 O710 1.240 . S
C688 O711 1.264 . S
O689 Mn684 2.095 1_565 S
O689 C698 1.250 . S
O690 Mn685 2.121 1_565 S
O690 C698 1.258 . S
C691 N692 1.326 . S
C691 C695 1.460 . S
C691 H697 0.929 . S
N692 Mn685 2.257 . S
N692 C691 1.326 . S
N692 C696 1.362 . S
C693 C694 1.258 . S
C693 C696 1.431 . S
C693 C713 1.449 . S
C694 C693 1.258 . S
C694 C695 1.477 . S
C694 H714 0.931 . S
C695 C691 1.460 . S
C695 C694 1.477 . S
C695 H715 0.930 . S
C696 N692 1.362 . S
C696 C693 1.431 . S
C696 C706 1.476 . S
H697 C691 0.929 . S
C698 O689 1.250 . S
C698 O690 1.258 . S
O699 Mn684 2.162 . S
O699 C687 1.281 . S
O700 Mn684 2.297 . S
O700 C687 1.236 . S
N701 Mn685 2.282 . S
N701 C702 1.328 . S
N701 C706 1.318 . S
C702 N701 1.328 . S
C702 C703 1.457 . S
C702 H707 0.929 . S
C703 C702 1.457 . S
C703 C704 1.291 . S
C703 H716 0.931 . S
C704 C703 1.291 . S
C704 C705 1.373 . S
C704 H717 0.929 . S
C705 C704 1.373 . S
C705 C706 1.396 . S
C705 C712 1.403 . S
C706 C696 1.476 . S
C706 N701 1.318 . S
C706 C705 1.396 . S
H707 C702 0.929 . S
O708 Mn684 2.385 . S
O708 C686 1.234 . S
O709 Mn684 2.209 . S
O709 Mn685 2.215 . S
O709 C686 1.283 . S
O710 Mn684 2.094 . S
O710 C688 1.240 . S
O711 Mn685 2.117 . S
O711 C688 1.264 . S
C712 C705 1.403 . S
C712 C713 1.399 . S
C712 H718 0.929 . S
C713 C693 1.449 . S
C713 C712 1.399 . S
C713 H719 0.930 . S
H714 C694 0.931 . S
H715 C695 0.930 . S
H716 C703 0.931 . S
H717 C704 0.929 . S
H718 C712 0.929 . S
H719 C713 0.930 . S
Mn720 O725 2.095 . S
Mn720 O735 2.162 . S
Mn720 O736 2.297 . S
Mn720 O744 2.385 . S
Mn720 O745 2.209 . S
Mn720 O746 2.094 1_554 S
Mn721 O726 2.121 1_556 S
Mn721 N728 2.257 . S
Mn721 N737 2.282 . S
Mn721 O745 2.215 1_556 S
Mn721 O747 2.117 . S
C722 O744 1.234 . S
C722 O745 1.283 . S
C723 O735 1.281 . S
C723 O736 1.236 . S
C724 O746 1.240 . S
C724 O747 1.264 . S
O725 Mn720 2.095 . S
O725 C734 1.250 . S
O726 Mn721 2.121 1_554 S
O726 C734 1.258 . S
C727 N728 1.326 . S
C727 C731 1.460 . S
C727 H733 0.929 1_556 S
N728 Mn721 2.257 . S
N728 C727 1.326 . S
N728 C732 1.362 . S
C729 C730 1.258 . S
C729 C732 1.431 . S
C729 C749 1.449 . S
C730 C729 1.258 . S
C730 C731 1.477 . S
C730 H750 0.931 . S
C731 C727 1.460 . S
C731 C730 1.477 . S
C731 H751 0.930 1_556 S
C732 N728 1.362 . S
C732 C729 1.431 . S
C732 C742 1.476 . S
H733 C727 0.929 1_554 S
C734 O725 1.250 . S
C734 O726 1.258 . S
O735 Mn720 2.162 . S
O735 C723 1.281 . S
O736 Mn720 2.297 . S
O736 C723 1.236 . S
N737 Mn721 2.282 . S
N737 C738 1.328 . S
N737 C742 1.318 . S
C738 N737 1.328 . S
C738 C739 1.457 . S
C738 H743 0.929 . S
C739 C738 1.457 . S
C739 C740 1.291 . S
C739 H752 0.931 . S
C740 C739 1.291 . S
C740 C741 1.373 . S
C740 H753 0.929 . S
C741 C740 1.373 . S
C741 C742 1.396 . S
C741 C748 1.403 . S
C742 C732 1.476 . S
C742 N737 1.318 . S
C742 C741 1.396 . S
H743 C738 0.929 . S
O744 Mn720 2.385 . S
O744 C722 1.234 . S
O745 Mn720 2.209 . S
O745 Mn721 2.215 1_554 S
O745 C722 1.283 . S
O746 Mn720 2.094 1_556 S
O746 C724 1.240 . S
O747 Mn721 2.117 . S
O747 C724 1.264 . S
C748 C741 1.403 . S
C748 C749 1.399 . S
C748 H754 0.929 . S
C749 C729 1.449 . S
C749 C748 1.399 . S
C749 H755 0.930 . S
H750 C730 0.931 . S
H751 C731 0.930 1_554 S
H752 C739 0.931 . S
H753 C740 0.929 . S
H754 C748 0.929 . S
H755 C749 0.930 . S
Mn756 O761 2.095 1_455 S
Mn756 O771 2.162 . S
Mn756 O772 2.297 1_455 S
Mn756 O780 2.385 1_455 S
Mn756 O781 2.209 1_455 S
Mn756 O782 2.094 . S
Mn757 O762 2.121 . S
Mn757 N764 2.257 . S
Mn757 N773 2.282 . S
Mn757 O781 2.215 . S
Mn757 O783 2.117 . S
C758 O780 1.234 . S
C758 O781 1.283 . S
C759 O771 1.281 . S
C759 O772 1.236 1_455 S
C760 O782 1.240 . S
C760 O783 1.264 1_455 S
O761 Mn756 2.095 1_655 S
O761 C770 1.250 . S
O762 Mn757 2.121 . S
O762 C770 1.258 . S
C763 N764 1.326 . S
C763 C767 1.460 . S
C763 H769 0.929 . S
N764 Mn757 2.257 . S
N764 C763 1.326 . S
N764 C768 1.362 . S
C765 C766 1.258 . S
C765 C768 1.431 . S
C765 C785 1.449 . S
C766 C765 1.258 . S
C766 C767 1.477 . S
C766 H786 0.931 . S
C767 C763 1.460 . S
C767 C766 1.477 . S
C767 H787 0.930 . S
C768 N764 1.362 . S
C768 C765 1.431 . S
C768 C778 1.476 . S
H769 C763 0.929 . S
C770 O761 1.250 . S
C770 O762 1.258 . S
O771 Mn756 2.162 . S
O771 C759 1.281 . S
O772 Mn756 2.297 1_655 S
O772 C759 1.236 1_655 S
N773 Mn757 2.282 . S
N773 C774 1.328 . S
N773 C778 1.318 . S
C774 N773 1.328 . S
C774 C775 1.457 . S
C774 H779 0.929 . S
C775 C774 1.457 . S
C775 C776 1.291 . S
C775 H788 0.931 . S
C776 C775 1.291 . S
C776 C777 1.373 . S
C776 H789 0.929 . S
C777 C776 1.373 . S
C777 C778 1.396 . S
C777 C784 1.403 . S
C778 C768 1.476 . S
C778 N773 1.318 . S
C778 C777 1.396 . S
H779 C774 0.929 . S
O780 Mn756 2.385 1_655 S
O780 C758 1.234 . S
O781 Mn756 2.209 1_655 S
O781 Mn757 2.215 . S
O781 C758 1.283 . S
O782 Mn756 2.094 . S
O782 C760 1.240 . S
O783 Mn757 2.117 . S
O783 C760 1.264 1_655 S
C784 C777 1.403 . S
C784 C785 1.399 . S
C784 H790 0.929 . S
C785 C765 1.449 . S
C785 C784 1.399 . S
C785 H791 0.930 . S
H786 C766 0.931 . S
H787 C767 0.930 . S
H788 C775 0.931 . S
H789 C776 0.929 . S
H790 C784 0.929 . S
H791 C785 0.930 . S
Mn792 O797 2.095 . S
Mn792 O807 2.162 . S
Mn792 O808 2.297 . S
Mn792 O816 2.385 . S
Mn792 O817 2.209 . S
Mn792 O818 2.094 . S
Mn793 O798 2.121 . S
Mn793 N800 2.257 . S
Mn793 N809 2.282 . S
Mn793 O817 2.215 . S
Mn793 O819 2.117 . S
C794 O816 1.234 . S
C794 O817 1.283 . S
C795 O807 1.281 . S
C795 O808 1.236 . S
C796 O818 1.240 . S
C796 O819 1.264 . S
O797 Mn792 2.095 . S
O797 C806 1.250 . S
O798 Mn793 2.121 . S
O798 C806 1.258 . S
C799 N800 1.326 . S
C799 C803 1.460 . S
C799 H805 0.929 . S
N800 Mn793 2.257 . S
N800 C799 1.326 . S
N800 C804 1.362 . S
C801 C802 1.258 . S
C801 C804 1.431 . S
C801 C821 1.449 . S
C802 C801 1.258 . S
C802 C803 1.477 . S
C802 H822 0.931 . S
C803 C799 1.460 . S
C803 C802 1.477 . S
C803 H823 0.930 . S
C804 N800 1.362 . S
C804 C801 1.431 . S
C804 C814 1.476 . S
H805 C799 0.929 . S
C806 O797 1.250 . S
C806 O798 1.258 . S
O807 Mn792 2.162 . S
O807 C795 1.281 . S
O808 Mn792 2.297 . S
O808 C795 1.236 . S
N809 Mn793 2.282 . S
N809 C810 1.328 . S
N809 C814 1.318 . S
C810 N809 1.328 . S
C810 C811 1.457 . S
C810 H815 0.929 . S
C811 C810 1.457 . S
C811 C812 1.291 . S
C811 H824 0.931 . S
C812 C811 1.291 . S
C812 C813 1.373 . S
C812 H825 0.929 . S
C813 C812 1.373 . S
C813 C814 1.396 . S
C813 C820 1.403 . S
C814 C804 1.476 . S
C814 N809 1.318 . S
C814 C813 1.396 . S
H815 C810 0.929 . S
O816 Mn792 2.385 . S
O816 C794 1.234 . S
O817 Mn792 2.209 . S
O817 Mn793 2.215 . S
O817 C794 1.283 . S
O818 Mn792 2.094 . S
O818 C796 1.240 . S
O819 Mn793 2.117 . S
O819 C796 1.264 . S
C820 C813 1.403 . S
C820 C821 1.399 . S
C820 H826 0.929 . S
C821 C801 1.449 . S
C821 C820 1.399 . S
C821 H827 0.930 . S
H822 C802 0.931 . S
H823 C803 0.930 . S
H824 C811 0.931 . S
H825 C812 0.929 . S
H826 C820 0.929 . S
H827 C821 0.930 . S
Mn828 O833 2.095 . S
Mn828 O843 2.162 . S
Mn828 O844 2.297 . S
Mn828 O852 2.385 . S
Mn828 O853 2.209 . S
Mn828 O854 2.094 . S
Mn829 O834 2.121 . S
Mn829 N836 2.257 . S
Mn829 N845 2.282 . S
Mn829 O853 2.215 . S
Mn829 O855 2.117 . S
C830 O852 1.234 . S
C830 O853 1.283 . S
C831 O843 1.281 . S
C831 O844 1.236 . S
C832 O854 1.240 . S
C832 O855 1.264 . S
O833 Mn828 2.095 . S
O833 C842 1.250 . S
O834 Mn829 2.121 . S
O834 C842 1.258 . S
C835 N836 1.326 . S
C835 C839 1.460 . S
C835 H841 0.929 . S
N836 Mn829 2.257 . S
N836 C835 1.326 . S
N836 C840 1.362 . S
C837 C838 1.258 . S
C837 C840 1.431 . S
C837 C857 1.449 . S
C838 C837 1.258 . S
C838 C839 1.477 . S
C838 H858 0.931 . S
C839 C835 1.460 . S
C839 C838 1.477 . S
C839 H859 0.930 . S
C840 N836 1.362 . S
C840 C837 1.431 . S
C840 C850 1.476 . S
H841 C835 0.929 . S
C842 O833 1.250 . S
C842 O834 1.258 . S
O843 Mn828 2.162 . S
O843 C831 1.281 . S
O844 Mn828 2.297 . S
O844 C831 1.236 . S
N845 Mn829 2.282 . S
N845 C846 1.328 . S
N845 C850 1.318 . S
C846 N845 1.328 . S
C846 C847 1.457 . S
C846 H851 0.929 . S
C847 C846 1.457 . S
C847 C848 1.291 . S
C847 H860 0.931 . S
C848 C847 1.291 . S
C848 C849 1.373 . S
C848 H861 0.929 . S
C849 C848 1.373 . S
C849 C850 1.396 . S
C849 C856 1.403 . S
C850 C840 1.476 . S
C850 N845 1.318 . S
C850 C849 1.396 . S
H851 C846 0.929 . S
O852 Mn828 2.385 . S
O852 C830 1.234 . S
O853 Mn828 2.209 . S
O853 Mn829 2.215 . S
O853 C830 1.283 . S
O854 Mn828 2.094 . S
O854 C832 1.240 . S
O855 Mn829 2.117 . S
O855 C832 1.264 . S
C856 C849 1.403 . S
C856 C857 1.399 . S
C856 H862 0.929 . S
C857 C837 1.449 . S
C857 C856 1.399 . S
C857 H863 0.930 . S
H858 C838 0.931 . S
H859 C839 0.930 . S
H860 C847 0.931 . S
H861 C848 0.929 . S
H862 C856 0.929 . S
H863 C857 0.930 . S
Tb864 C874 2.825 1_454 S
Tb864 O875 2.347 . S
Tb864 O878 2.362 1_554 S
Tb864 O883 2.418 1_554 S
Tb864 O884 2.384 1_545 S
Tb864 O887 2.479 1_454 S
Tb864 O888 2.471 1_455 S
Eu865 O876 2.418 . S
Eu865 O877 2.384 . S
Eu865 O880 2.479 . S
Eu865 O881 2.471 . S
Eu865 O882 2.335 1_554 S
Eu865 O885 2.366 1_545 S
Eu865 C895 2.825 . S
C866 O882 1.272 . S
C866 O883 1.265 . S
C867 O884 1.255 . S
C867 O885 1.265 . S
C868 C870 1.380 . S
C868 C871 1.374 . S
C868 C874 1.507 . S
C869 C870 1.384 . S
C869 C873 1.387 . S
C869 H896 0.930 . S
C870 C868 1.380 . S
C870 C869 1.384 . S
C870 H897 0.931 . S
C871 C868 1.374 . S
C871 C872 1.390 . S
C871 H898 0.930 1_556 S
C872 C871 1.390 . S
C872 C873 1.391 . S
C872 H899 0.930 . S
C873 C869 1.387 . S
C873 C872 1.391 . S
C874 Tb864 2.825 1_656 S
C874 C868 1.507 . S
C874 O887 1.238 . S
C874 O888 1.247 1_556 S
O875 Tb864 2.347 . S
O875 C879 1.259 . S
O876 Eu865 2.418 . S
O876 C879 1.265 . S
O877 Eu865 2.384 . S
O877 C886 1.255 . S
O878 Tb864 2.362 1_556 S
O878 C886 1.254 1_556 S
C879 O875 1.259 . S
C879 O876 1.265 . S
O880 Eu865 2.479 . S
O880 C895 1.238 . S
O881 Eu865 2.471 . S
O881 C895 1.247 . S
O882 Eu865 2.335 1_556 S
O882 C866 1.272 . S
O883 Tb864 2.418 1_556 S
O883 C866 1.265 . S
O884 Tb864 2.384 1_565 S
O884 C867 1.255 . S
O885 Eu865 2.366 1_565 S
O885 C867 1.265 . S
C886 O877 1.255 . S
C886 O878 1.254 1_554 S
O887 Tb864 2.479 1_656 S
O887 C874 1.238 . S
O888 Tb864 2.471 1_655 S
O888 C874 1.247 1_554 S
C889 C892 1.380 . S
C889 C893 1.374 1_545 S
C889 C895 1.507 . S
C890 C891 1.387 1_565 S
C890 C894 1.391 . S
C891 C890 1.387 1_545 S
C891 C892 1.384 . S
C891 H900 0.930 . S
C892 C889 1.380 . S
C892 C891 1.384 . S
C892 H901 0.931 . S
C893 C889 1.374 1_565 S
C893 C894 1.390 . S
C893 H902 0.930 . S
C894 C890 1.391 . S
C894 C893 1.390 . S
C894 H903 0.930 . S
C895 Eu865 2.825 . S
C895 O880 1.238 . S
C895 O881 1.247 . S
C895 C889 1.507 . S
H896 C869 0.930 . S
H897 C870 0.931 . S
H898 C871 0.930 1_554 S
H899 C872 0.930 . S
H900 C891 0.930 . S
H901 C892 0.931 . S
H902 C893 0.930 . S
H903 C894 0.930 . S
Tb904 C914 2.825 . S
Tb904 O915 2.347 . S
Tb904 O918 2.366 . S
Tb904 O923 2.418 . S
Tb904 O924 2.384 . S
Tb904 O927 2.479 . S
Tb904 O928 2.471 . S
Eu905 O916 2.418 . S
Eu905 O917 2.384 . S
Eu905 O920 2.479 . S
Eu905 O921 2.471 . S
Eu905 O922 2.347 . S
Eu905 O925 2.366 . S
Eu905 C935 2.825 . S
C906 O922 1.259 . S
C906 O923 1.265 . S
C907 O924 1.255 . S
C907 O925 1.265 . S
C908 C910 1.380 . S
C908 C911 1.374 . S
C908 C914 1.507 . S
C909 C910 1.384 . S
C909 C913 1.387 . S
C909 H936 0.930 . S
C910 C908 1.380 . S
C910 C909 1.384 . S
C910 H937 0.931 . S
C911 C908 1.374 . S
C911 C912 1.390 . S
C911 H938 0.930 . S
C912 C911 1.390 . S
C912 C913 1.391 . S
C912 H939 0.930 . S
C913 C909 1.387 . S
C913 C912 1.391 . S
C914 Tb904 2.825 . S
C914 C908 1.507 . S
C914 O927 1.238 . S
C914 O928 1.247 . S
O915 Tb904 2.347 . S
O915 C919 1.259 . S
O916 Eu905 2.418 . S
O916 C919 1.265 . S
O917 Eu905 2.384 . S
O917 C926 1.255 . S
O918 Tb904 2.366 . S
O918 C926 1.265 . S
C919 O915 1.259 . S
C919 O916 1.265 . S
O920 Eu905 2.479 . S
O920 C935 1.238 . S
O921 Eu905 2.471 . S
O921 C935 1.247 . S
O922 Eu905 2.347 . S
O922 C906 1.259 . S
O923 Tb904 2.418 . S
O923 C906 1.265 . S
O924 Tb904 2.384 . S
O924 C907 1.255 . S
O925 Eu905 2.366 . S
O925 C907 1.265 . S
C926 O917 1.255 . S
C926 O918 1.265 . S
O927 Tb904 2.479 . S
O927 C914 1.238 . S
O928 Tb904 2.471 . S
O928 C914 1.247 . S
C929 C932 1.380 . S
C929 C933 1.374 . S
C929 C935 1.507 . S
C930 C931 1.387 . S
C930 C934 1.391 . S
C931 C930 1.387 . S
C931 C932 1.384 . S
C931 H940 0.930 . S
C932 C929 1.380 . S
C932 C931 1.384 . S
C932 H941 0.931 . S
C933 C929 1.374 . S
C933 C934 1.390 . S
C933 H942 0.930 . S
C934 C930 1.391 . S
C934 C933 1.390 . S
C934 H943 0.930 . S
C935 Eu905 2.825 . S
C935 O920 1.238 . S
C935 O921 1.247 . S
C935 C929 1.507 . S
H936 C909 0.930 . S
H937 C910 0.931 . S
H938 C911 0.930 . S
H939 C912 0.930 . S
H940 C931 0.930 . S
H941 C932 0.931 . S
H942 C933 0.930 . S
H943 C934 0.930 . S
Tb944 C954 2.825 1_545 S
Tb944 O955 2.347 . S
Tb944 O958 2.366 . S
Tb944 O963 2.418 . S
Tb944 O964 2.384 . S
Tb944 O967 2.479 1_545 S
Tb944 O968 2.471 1_545 S
Eu945 O956 2.418 . S
Eu945 O957 2.384 . S
Eu945 O960 2.479 . S
Eu945 O961 2.471 . S
Eu945 O962 2.347 . S
Eu945 O965 2.366 . S
Eu945 C975 2.825 . S
C946 O962 1.259 . S
C946 O963 1.265 . S
C947 O964 1.255 . S
C947 O965 1.265 . S
C948 C950 1.380 . S
C948 C951 1.374 . S
C948 C954 1.507 . S
C949 C950 1.384 . S
C949 C953 1.387 . S
C949 H976 0.930 . S
C950 C948 1.380 . S
C950 C949 1.384 . S
C950 H977 0.931 . S
C951 C948 1.374 . S
C951 C952 1.390 . S
C951 H978 0.930 . S
C952 C951 1.390 . S
C952 C953 1.391 . S
C952 H979 0.930 . S
C953 C949 1.387 . S
C953 C952 1.391 . S
C954 Tb944 2.825 1_565 S
C954 C948 1.507 . S
C954 O967 1.238 . S
C954 O968 1.247 . S
O955 Tb944 2.347 . S
O955 C959 1.259 . S
O956 Eu945 2.418 . S
O956 C959 1.265 . S
O957 Eu945 2.384 . S
O957 C966 1.255 . S
O958 Tb944 2.366 . S
O958 C966 1.265 . S
C959 O955 1.259 . S
C959 O956 1.265 . S
O960 Eu945 2.479 . S
O960 C975 1.238 . S
O961 Eu945 2.471 . S
O961 C975 1.247 . S
O962 Eu945 2.347 . S
O962 C946 1.259 . S
O963 Tb944 2.418 . S
O963 C946 1.265 . S
O964 Tb944 2.384 . S
O964 C947 1.255 . S
O965 Eu945 2.366 . S
O965 C947 1.265 . S
C966 O957 1.255 . S
C966 O958 1.265 . S
O967 Tb944 2.479 1_565 S
O967 C954 1.238 . S
O968 Tb944 2.471 1_565 S
O968 C954 1.247 . S
C969 C972 1.380 . S
C969 C973 1.374 . S
C969 C975 1.507 . S
C970 C971 1.387 . S
C970 C974 1.391 . S
C971 C970 1.387 . S
C971 C972 1.384 . S
C971 H980 0.930 . S
C972 C969 1.380 . S
C972 C971 1.384 . S
C972 H981 0.931 . S
C973 C969 1.374 . S
C973 C974 1.390 . S
C973 H982 0.930 . S
C974 C970 1.391 . S
C974 C973 1.390 . S
C974 H983 0.930 . S
C975 Eu945 2.825 . S
C975 O960 1.238 . S
C975 O961 1.247 . S
C975 C969 1.507 . S
H976 C949 0.930 . S
H977 C950 0.931 . S
H978 C951 0.930 . S
H979 C952 0.930 . S
H980 C971 0.930 . S
H981 C972 0.931 . S
H982 C973 0.930 . S
H983 C974 0.930 . S
Tb984 C994 2.825 . S
Tb984 O995 2.347 . S
Tb984 O998 2.366 . S
Tb984 O1003 2.418 . S
Tb984 O1004 2.384 . S
Tb984 O1007 2.479 . S
Tb984 O1008 2.471 . S
Eu985 O996 2.418 . S
Eu985 O997 2.384 . S
Eu985 O1000 2.479 . S
Eu985 O1001 2.471 . S
Eu985 O1002 2.347 . S
Eu985 O1005 2.366 . S
Eu985 C1015 2.825 . S
C986 O1002 1.259 . S
C986 O1003 1.265 . S
C987 O1004 1.255 . S
C987 O1005 1.265 . S
C988 C990 1.380 . S
C988 C991 1.374 . S
C988 C994 1.507 . S
C989 C990 1.384 . S
C989 C993 1.387 . S
C989 H1016 0.930 . S
C990 C988 1.380 . S
C990 C989 1.384 . S
C990 H1017 0.931 . S
C991 C988 1.374 . S
C991 C992 1.390 . S
C991 H1018 0.930 . S
C992 C991 1.390 . S
C992 C993 1.391 . S
C992 H1019 0.930 . S
C993 C989 1.387 . S
C993 C992 1.391 . S
C994 Tb984 2.825 . S
C994 C988 1.507 . S
C994 O1007 1.238 . S
C994 O1008 1.247 . S
O995 Tb984 2.347 . S
O995 C999 1.259 . S
O996 Eu985 2.418 . S
O996 C999 1.265 . S
O997 Eu985 2.384 . S
O997 C1006 1.255 . S
O998 Tb984 2.366 . S
O998 C1006 1.265 . S
C999 O995 1.259 . S
C999 O996 1.265 . S
O1000 Eu985 2.479 . S
O1000 C1015 1.238 . S
O1001 Eu985 2.471 . S
O1001 C1015 1.247 . S
O1002 Eu985 2.347 . S
O1002 C986 1.259 . S
O1003 Tb984 2.418 . S
O1003 C986 1.265 . S
O1004 Tb984 2.384 . S
O1004 C987 1.255 . S
O1005 Eu985 2.366 . S
O1005 C987 1.265 . S
C1006 O997 1.255 . S
C1006 O998 1.265 . S
O1007 Tb984 2.479 . S
O1007 C994 1.238 . S
O1008 Tb984 2.471 . S
O1008 C994 1.247 . S
C1009 C1012 1.380 . S
C1009 C1013 1.374 . S
C1009 C1015 1.507 . S
C1010 C1011 1.387 . S
C1010 C1014 1.391 . S
C1011 C1010 1.387 . S
C1011 C1012 1.384 . S
C1011 H1020 0.930 . S
C1012 C1009 1.380 . S
C1012 C1011 1.384 . S
C1012 H1021 0.931 . S
C1013 C1009 1.374 . S
C1013 C1014 1.390 . S
C1013 H1022 0.930 . S
C1014 C1010 1.391 . S
C1014 C1013 1.390 . S
C1014 H1023 0.930 . S
C1015 Eu985 2.825 . S
C1015 O1000 1.238 . S
C1015 O1001 1.247 . S
C1015 C1009 1.507 . S
H1016 C989 0.930 . S
H1017 C990 0.931 . S
H1018 C991 0.930 . S
H1019 C992 0.930 . S
H1020 C1011 0.930 . S
H1021 C1012 0.931 . S
H1022 C1013 0.930 . S
H1023 C1014 0.930 . S
Tb1024 C1034 2.825 . S
Tb1024 O1035 2.347 . S
Tb1024 O1038 2.366 . S
Tb1024 O1043 2.418 . S
Tb1024 O1044 2.384 1_545 S
Tb1024 O1047 2.479 . S
Tb1024 O1048 2.471 . S
Eu1025 O1036 2.418 . S
Eu1025 O1037 2.384 . S
Eu1025 O1040 2.479 . S
Eu1025 O1041 2.471 . S
Eu1025 O1042 2.347 . S
Eu1025 O1045 2.366 . S
Eu1025 C1055 2.825 . S
C1026 O1042 1.259 . S
C1026 O1043 1.265 . S
C1027 O1044 1.255 . S
C1027 O1045 1.265 1_565 S
C1028 C1030 1.380 . S
C1028 C1031 1.374 1_455 S
C1028 C1034 1.507 . S
C1029 C1030 1.384 . S
C1029 C1033 1.387 . S
C1029 H1056 0.930 . S
C1030 C1028 1.380 . S
C1030 C1029 1.384 . S
C1030 H1057 0.931 . S
C1031 C1028 1.374 1_655 S
C1031 C1032 1.390 . S
C1031 H1058 0.930 . S
C1032 C1031 1.390 . S
C1032 C1033 1.391 1_655 S
C1032 H1059 0.930 . S
C1033 C1029 1.387 . S
C1033 C1032 1.391 1_455 S
C1034 Tb1024 2.825 . S
C1034 C1028 1.507 . S
C1034 O1047 1.238 . S
C1034 O1048 1.247 . S
O1035 Tb1024 2.347 . S
O1035 C1039 1.259 . S
O1036 Eu1025 2.418 . S
O1036 C1039 1.265 . S
O1037 Eu1025 2.384 . S
O1037 C1046 1.255 . S
O1038 Tb1024 2.366 . S
O1038 C1046 1.265 . S
C1039 O1035 1.259 . S
C1039 O1036 1.265 . S
O1040 Eu1025 2.479 . S
O1040 C1055 1.238 . S
O1041 Eu1025 2.471 . S
O1041 C1055 1.247 . S
O1042 Eu1025 2.347 . S
O1042 C1026 1.259 . S
O1043 Tb1024 2.418 . S
O1043 C1026 1.265 . S
O1044 Tb1024 2.384 1_565 S
O1044 C1027 1.255 . S
O1045 Eu1025 2.366 . S
O1045 C1027 1.265 1_545 S
C1046 O1037 1.255 . S
C1046 O1038 1.265 . S
O1047 Tb1024 2.479 . S
O1047 C1034 1.238 . S
O1048 Tb1024 2.471 . S
O1048 C1034 1.247 . S
C1049 C1052 1.380 . S
C1049 C1053 1.374 . S
C1049 C1055 1.507 . S
C1050 C1051 1.387 . S
C1050 C1054 1.391 . S
C1051 C1050 1.387 . S
C1051 C1052 1.384 . S
C1051 H1060 0.930 . S
C1052 C1049 1.380 . S
C1052 C1051 1.384 . S
C1052 H1061 0.931 . S
C1053 C1049 1.374 . S
C1053 C1054 1.390 . S
C1053 H1062 0.930 . S
C1054 C1050 1.391 . S
C1054 C1053 1.390 . S
C1054 H1063 0.930 . S
C1055 Eu1025 2.825 . S
C1055 O1040 1.238 . S
C1055 O1041 1.247 . S
C1055 C1049 1.507 . S
H1056 C1029 0.930 . S
H1057 C1030 0.931 . S
H1058 C1031 0.930 . S
H1059 C1032 0.930 . S
H1060 C1051 0.930 . S
H1061 C1052 0.931 . S
H1062 C1053 0.930 . S
H1063 C1054 0.930 . S
Tb1064 C1074 2.825 . S
Tb1064 O1075 2.347 . S
Tb1064 O1078 2.366 . S
Tb1064 O1083 2.418 . S
Tb1064 O1084 2.384 . S
Tb1064 O1087 2.479 . S
Tb1064 O1088 2.471 . S
Eu1065 O1076 2.418 . S
Eu1065 O1077 2.384 . S
Eu1065 O1080 2.479 . S
Eu1065 O1081 2.471 . S
Eu1065 O1082 2.347 . S
Eu1065 O1085 2.366 . S
Eu1065 C1095 2.825 . S
C1066 O1082 1.259 . S
C1066 O1083 1.265 . S
C1067 O1084 1.255 . S
C1067 O1085 1.265 . S
C1068 C1070 1.380 . S
C1068 C1071 1.374 . S
C1068 C1074 1.507 . S
C1069 C1070 1.384 . S
C1069 C1073 1.387 . S
C1069 H1096 0.930 . S
C1070 C1068 1.380 . S
C1070 C1069 1.384 . S
C1070 H1097 0.931 . S
C1071 C1068 1.374 . S
C1071 C1072 1.390 . S
C1071 H1098 0.930 . S
C1072 C1071 1.390 . S
C1072 C1073 1.391 . S
C1072 H1099 0.930 . S
C1073 C1069 1.387 . S
C1073 C1072 1.391 . S
C1074 Tb1064 2.825 . S
C1074 C1068 1.507 . S
C1074 O1087 1.238 . S
C1074 O1088 1.247 . S
O1075 Tb1064 2.347 . S
O1075 C1079 1.259 . S
O1076 Eu1065 2.418 . S
O1076 C1079 1.265 . S
O1077 Eu1065 2.384 . S
O1077 C1086 1.255 . S
O1078 Tb1064 2.366 . S
O1078 C1086 1.265 . S
C1079 O1075 1.259 . S
C1079 O1076 1.265 . S
O1080 Eu1065 2.479 . S
O1080 C1095 1.238 . S
O1081 Eu1065 2.471 . S
O1081 C1095 1.247 . S
O1082 Eu1065 2.347 . S
O1082 C1066 1.259 . S
O1083 Tb1064 2.418 . S
O1083 C1066 1.265 . S
O1084 Tb1064 2.384 . S
O1084 C1067 1.255 . S
O1085 Eu1065 2.366 . S
O1085 C1067 1.265 . S
C1086 O1077 1.255 . S
C1086 O1078 1.265 . S
O1087 Tb1064 2.479 . S
O1087 C1074 1.238 . S
O1088 Tb1064 2.471 . S
O1088 C1074 1.247 . S
C1089 C1092 1.380 . S
C1089 C1093 1.374 . S
C1089 C1095 1.507 . S
C1090 C1091 1.387 . S
C1090 C1094 1.391 . S
C1091 C1090 1.387 . S
C1091 C1092 1.384 . S
C1091 H1100 0.930 . S
C1092 C1089 1.380 . S
C1092 C1091 1.384 . S
C1092 H1101 0.931 . S
C1093 C1089 1.374 . S
C1093 C1094 1.390 . S
C1093 H1102 0.930 . S
C1094 C1090 1.391 . S
C1094 C1093 1.390 . S
C1094 H1103 0.930 . S
C1095 Eu1065 2.825 . S
C1095 O1080 1.238 . S
C1095 O1081 1.247 . S
C1095 C1089 1.507 . S
H1096 C1069 0.930 . S
H1097 C1070 0.931 . S
H1098 C1071 0.930 . S
H1099 C1072 0.930 . S
H1100 C1091 0.930 . S
H1101 C1092 0.931 . S
H1102 C1093 0.930 . S
H1103 C1094 0.930 . S
Tb1104 C1114 2.825 . S
Tb1104 O1115 2.347 . S
Tb1104 O1118 2.366 . S
Tb1104 O1123 2.418 1_545 S
Tb1104 O1124 2.384 . S
Tb1104 O1127 2.479 . S
Tb1104 O1128 2.471 . S
Eu1105 O1116 2.418 1_556 S
Eu1105 O1117 2.384 1_556 S
Eu1105 O1120 2.479 . S
Eu1105 O1121 2.471 . S
Eu1105 O1122 2.347 1_556 S
Eu1105 O1125 2.366 1_556 S
Eu1105 C1135 2.825 . S
C1106 O1122 1.259 1_565 S
C1106 O1123 1.265 . S
C1107 O1124 1.255 . S
C1107 O1125 1.265 . S
C1108 C1110 1.380 . S
C1108 C1111 1.374 . S
C1108 C1114 1.507 . S
C1109 C1110 1.384 1_565 S
C1109 C1113 1.387 1_565 S
C1109 H1136 0.930 . S
C1110 C1108 1.380 . S
C1110 C1109 1.384 1_545 S
C1110 H1137 0.931 1_545 S
C1111 C1108 1.374 . S
C1111 C1112 1.390 . S
C1111 H1138 0.930 . S
C1112 C1111 1.390 . S
C1112 C1113 1.391 . S
C1112 H1139 0.930 . S
C1113 C1109 1.387 1_545 S
C1113 C1112 1.391 . S
C1114 Tb1104 2.825 . S
C1114 C1108 1.507 . S
C1114 O1127 1.238 . S
C1114 O1128 1.247 . S
O1115 Tb1104 2.347 . S
O1115 C1119 1.259 . S
O1116 Eu1105 2.418 1_554 S
O1116 C1119 1.265 . S
O1117 Eu1105 2.384 1_554 S
O1117 C1126 1.255 . S
O1118 Tb1104 2.366 . S
O1118 C1126 1.265 . S
C1119 O1115 1.259 . S
C1119 O1116 1.265 . S
O1120 Eu1105 2.479 . S
O1120 C1135 1.238 . S
O1121 Eu1105 2.471 . S
O1121 C1135 1.247 . S
O1122 Eu1105 2.347 1_554 S
O1122 C1106 1.259 1_545 S
O1123 Tb1104 2.418 1_565 S
O1123 C1106 1.265 . S
O1124 Tb1104 2.384 . S
O1124 C1107 1.255 . S
O1125 Eu1105 2.366 1_554 S
O1125 C1107 1.265 . S
C1126 O1117 1.255 . S
C1126 O1118 1.265 . S
O1127 Tb1104 2.479 . S
O1127 C1114 1.238 . S
O1128 Tb1104 2.471 . S
O1128 C1114 1.247 . S
C1129 C1132 1.380 . S
C1129 C1133 1.374 . S
C1129 C1135 1.507 . S
C1130 C1131 1.387 . S
C1130 C1134 1.391 . S
C1131 C1130 1.387 . S
C1131 C1132 1.384 . S
C1131 H1140 0.930 . S
C1132 C1129 1.380 . S
C1132 C1131 1.384 . S
C1132 H1141 0.931 . S
C1133 C1129 1.374 . S
C1133 C1134 1.390 . S
C1133 H1142 0.930 . S
C1134 C1130 1.391 . S
C1134 C1133 1.390 . S
C1134 H1143 0.930 . S
C1135 Eu1105 2.825 . S
C1135 O1120 1.238 . S
C1135 O1121 1.247 . S
C1135 C1129 1.507 . S
H1136 C1109 0.930 . S
H1137 C1110 0.931 1_565 S
H1138 C1111 0.930 . S
H1139 C1112 0.930 . S
H1140 C1131 0.930 . S
H1141 C1132 0.931 . S
H1142 C1133 0.930 . S
H1143 C1134 0.930 . S
Tb1144 C1154 2.825 . S
Tb1144 O1155 2.347 . S
Tb1144 O1158 2.366 . S
Tb1144 O1163 2.418 . S
Tb1144 O1164 2.384 . S
Tb1144 O1167 2.479 . S
Tb1144 O1168 2.471 . S
Eu1145 O1156 2.418 . S
Eu1145 O1157 2.384 . S
Eu1145 O1160 2.479 . S
Eu1145 O1161 2.471 . S
Eu1145 O1162 2.347 . S
Eu1145 O1165 2.366 . S
Eu1145 C1175 2.825 . S
C1146 O1162 1.259 . S
C1146 O1163 1.265 . S
C1147 O1164 1.255 . S
C1147 O1165 1.265 . S
C1148 C1150 1.380 . S
C1148 C1151 1.374 . S
C1148 C1154 1.507 . S
C1149 C1150 1.384 . S
C1149 C1153 1.387 . S
C1149 H1176 0.930 . S
C1150 C1148 1.380 . S
C1150 C1149 1.384 . S
C1150 H1177 0.931 . S
C1151 C1148 1.374 . S
C1151 C1152 1.390 . S
C1151 H1178 0.930 . S
C1152 C1151 1.390 . S
C1152 C1153 1.391 . S
C1152 H1179 0.930 . S
C1153 C1149 1.387 . S
C1153 C1152 1.391 . S
C1154 Tb1144 2.825 . S
C1154 C1148 1.507 . S
C1154 O1167 1.238 . S
C1154 O1168 1.247 . S
O1155 Tb1144 2.347 . S
O1155 C1159 1.259 . S
O1156 Eu1145 2.418 . S
O1156 C1159 1.265 . S
O1157 Eu1145 2.384 . S
O1157 C1166 1.255 . S
O1158 Tb1144 2.366 . S
O1158 C1166 1.265 . S
C1159 O1155 1.259 . S
C1159 O1156 1.265 . S
O1160 Eu1145 2.479 . S
O1160 C1175 1.238 . S
O1161 Eu1145 2.471 . S
O1161 C1175 1.247 . S
O1162 Eu1145 2.347 . S
O1162 C1146 1.259 . S
O1163 Tb1144 2.418 . S
O1163 C1146 1.265 . S
O1164 Tb1144 2.384 . S
O1164 C1147 1.255 . S
O1165 Eu1145 2.366 . S
O1165 C1147 1.265 . S
C1166 O1157 1.255 . S
C1166 O1158 1.265 . S
O1167 Tb1144 2.479 . S
O1167 C1154 1.238 . S
O1168 Tb1144 2.471 . S
O1168 C1154 1.247 . S
C1169 C1172 1.380 . S
C1169 C1173 1.374 . S
C1169 C1175 1.507 . S
C1170 C1171 1.387 . S
C1170 C1174 1.391 . S
C1171 C1170 1.387 . S
C1171 C1172 1.384 . S
C1171 H1180 0.930 . S
C1172 C1169 1.380 . S
C1172 C1171 1.384 . S
C1172 H1181 0.931 . S
C1173 C1169 1.374 . S
C1173 C1174 1.390 . S
C1173 H1182 0.930 . S
C1174 C1170 1.391 . S
C1174 C1173 1.390 . S
C1174 H1183 0.930 . S
C1175 Eu1145 2.825 . S
C1175 O1160 1.238 . S
C1175 O1161 1.247 . S
C1175 C1169 1.507 . S
H1176 C1149 0.930 . S
H1177 C1150 0.931 . S
H1178 C1151 0.930 . S
H1179 C1152 0.930 . S
H1180 C1171 0.930 . S
H1181 C1172 0.931 . S
H1182 C1173 0.930 . S
H1183 C1174 0.930 . S
Tb1184 C1194 2.825 . S
Tb1184 O1195 2.347 1_556 S
Tb1184 O1198 2.366 . S
Tb1184 O1203 2.418 . S
Tb1184 O1204 2.384 1_556 S
Tb1184 O1207 2.479 . S
Tb1184 O1208 2.471 . S
Eu1185 O1196 2.418 . S
Eu1185 O1197 2.384 . S
Eu1185 O1200 2.479 . S
Eu1185 O1201 2.471 . S
Eu1185 O1202 2.347 . S
Eu1185 O1205 2.366 . S
Eu1185 C1215 2.825 . S
C1186 O1202 1.259 . S
C1186 O1203 1.265 1_554 S
C1187 O1204 1.255 . S
C1187 O1205 1.265 . S
C1188 C1190 1.380 . S
C1188 C1191 1.374 . S
C1188 C1194 1.507 . S
C1189 C1190 1.384 . S
C1189 C1193 1.387 . S
C1189 H1216 0.930 . S
C1190 C1188 1.380 . S
C1190 C1189 1.384 . S
C1190 H1217 0.931 . S
C1191 C1188 1.374 . S
C1191 C1192 1.390 . S
C1191 H1218 0.930 . S
C1192 C1191 1.390 . S
C1192 C1193 1.391 . S
C1192 H1219 0.930 . S
C1193 C1189 1.387 . S
C1193 C1192 1.391 . S
C1194 Tb1184 2.825 . S
C1194 C1188 1.507 . S
C1194 O1207 1.238 . S
C1194 O1208 1.247 . S
O1195 Tb1184 2.347 1_554 S
O1195 C1199 1.259 . S
O1196 Eu1185 2.418 . S
O1196 C1199 1.265 . S
O1197 Eu1185 2.384 . S
O1197 C1206 1.255 . S
O1198 Tb1184 2.366 . S
O1198 C1206 1.265 1_556 S
C1199 O1195 1.259 . S
C1199 O1196 1.265 . S
O1200 Eu1185 2.479 . S
O1200 C1215 1.238 . S
O1201 Eu1185 2.471 . S
O1201 C1215 1.247 . S
O1202 Eu1185 2.347 . S
O1202 C1186 1.259 . S
O1203 Tb1184 2.418 . S
O1203 C1186 1.265 1_556 S
O1204 Tb1184 2.384 1_554 S
O1204 C1187 1.255 . S
O1205 Eu1185 2.366 . S
O1205 C1187 1.265 . S
C1206 O1197 1.255 . S
C1206 O1198 1.265 1_554 S
O1207 Tb1184 2.479 . S
O1207 C1194 1.238 . S
O1208 Tb1184 2.471 . S
O1208 C1194 1.247 . S
C1209 C1212 1.380 . S
C1209 C1213 1.374 . S
C1209 C1215 1.507 . S
C1210 C1211 1.387 . S
C1210 C1214 1.391 . S
C1211 C1210 1.387 . S
C1211 C1212 1.384 . S
C1211 H1220 0.930 . S
C1212 C1209 1.380 . S
C1212 C1211 1.384 . S
C1212 H1221 0.931 . S
C1213 C1209 1.374 . S
C1213 C1214 1.390 . S
C1213 H1222 0.930 . S
C1214 C1210 1.391 . S
C1214 C1213 1.390 . S
C1214 H1223 0.930 . S
C1215 Eu1185 2.825 . S
C1215 O1200 1.238 . S
C1215 O1201 1.247 . S
C1215 C1209 1.507 . S
H1216 C1189 0.930 . S
H1217 C1190 0.931 . S
H1218 C1191 0.930 . S
H1219 C1192 0.930 . S
H1220 C1211 0.930 . S
H1221 C1212 0.931 . S
H1222 C1213 0.930 . S
H1223 C1214 0.930 . S
Tb1224 C1234 2.825 . S
Tb1224 O1235 2.347 . S
Tb1224 O1238 2.366 . S
Tb1224 O1243 2.418 . S
Tb1224 O1244 2.384 . S
Tb1224 O1247 2.479 . S
Tb1224 O1248 2.471 . S
Eu1225 O1236 2.418 . S
Eu1225 O1237 2.384 . S
Eu1225 O1240 2.479 . S
Eu1225 O1241 2.471 . S
Eu1225 O1242 2.347 . S
Eu1225 O1245 2.366 . S
Eu1225 C1255 2.825 . S
C1226 O1242 1.259 . S
C1226 O1243 1.265 . S
C1227 O1244 1.255 . S
C1227 O1245 1.265 . S
C1228 C1230 1.380 . S
C1228 C1231 1.374 . S
C1228 C1234 1.507 . S
C1229 C1230 1.384 . S
C1229 C1233 1.387 . S
C1229 H1256 0.930 . S
C1230 C1228 1.380 . S
C1230 C1229 1.384 . S
C1230 H1257 0.931 . S
C1231 C1228 1.374 . S
C1231 C1232 1.390 . S
C1231 H1258 0.930 . S
C1232 C1231 1.390 . S
C1232 C1233 1.391 . S
C1232 H1259 0.930 . S
C1233 C1229 1.387 . S
C1233 C1232 1.391 . S
C1234 Tb1224 2.825 . S
C1234 C1228 1.507 . S
C1234 O1247 1.238 . S
C1234 O1248 1.247 . S
O1235 Tb1224 2.347 . S
O1235 C1239 1.259 . S
O1236 Eu1225 2.418 . S
O1236 C1239 1.265 . S
O1237 Eu1225 2.384 . S
O1237 C1246 1.255 . S
O1238 Tb1224 2.366 . S
O1238 C1246 1.265 . S
C1239 O1235 1.259 . S
C1239 O1236 1.265 . S
O1240 Eu1225 2.479 . S
O1240 C1255 1.238 . S
O1241 Eu1225 2.471 . S
O1241 C1255 1.247 . S
O1242 Eu1225 2.347 . S
O1242 C1226 1.259 . S
O1243 Tb1224 2.418 . S
O1243 C1226 1.265 . S
O1244 Tb1224 2.384 . S
O1244 C1227 1.255 . S
O1245 Eu1225 2.366 . S
O1245 C1227 1.265 . S
C1246 O1237 1.255 . S
C1246 O1238 1.265 . S
O1247 Tb1224 2.479 . S
O1247 C1234 1.238 . S
O1248 Tb1224 2.471 . S
O1248 C1234 1.247 . S
C1249 C1252 1.380 . S
C1249 C1253 1.374 . S
C1249 C1255 1.507 . S
C1250 C1251 1.387 . S
C1250 C1254 1.391 . S
C1251 C1250 1.387 . S
C1251 C1252 1.384 . S
C1251 H1260 0.930 . S
C1252 C1249 1.380 . S
C1252 C1251 1.384 . S
C1252 H1261 0.931 . S
C1253 C1249 1.374 . S
C1253 C1254 1.390 . S
C1253 H1262 0.930 . S
C1254 C1250 1.391 . S
C1254 C1253 1.390 . S
C1254 H1263 0.930 . S
C1255 Eu1225 2.825 . S
C1255 O1240 1.238 . S
C1255 O1241 1.247 . S
C1255 C1249 1.507 . S
H1256 C1229 0.930 . S
H1257 C1230 0.931 . S
H1258 C1231 0.930 . S
H1259 C1232 0.930 . S
H1260 C1251 0.930 . S
H1261 C1252 0.931 . S
H1262 C1253 0.930 . S
H1263 C1254 0.930 . S
Tb1264 C1274 2.825 . S
Tb1264 O1275 2.347 . S
Tb1264 O1278 2.366 . S
Tb1264 O1283 2.418 . S
Tb1264 O1284 2.384 . S
Tb1264 O1287 2.479 . S
Tb1264 O1288 2.471 . S
Eu1265 O1276 2.418 . S
Eu1265 O1277 2.384 . S
Eu1265 O1280 2.479 . S
Eu1265 O1281 2.471 . S
Eu1265 O1282 2.347 . S
Eu1265 O1285 2.366 . S
Eu1265 C1295 2.825 . S
C1266 O1282 1.259 . S
C1266 O1283 1.265 . S
C1267 O1284 1.255 . S
C1267 O1285 1.265 . S
C1268 C1270 1.380 . S
C1268 C1271 1.374 . S
C1268 C1274 1.507 . S
C1269 C1270 1.384 . S
C1269 C1273 1.387 . S
C1269 H1296 0.930 . S
C1270 C1268 1.380 . S
C1270 C1269 1.384 . S
C1270 H1297 0.931 . S
C1271 C1268 1.374 . S
C1271 C1272 1.390 . S
C1271 H1298 0.930 . S
C1272 C1271 1.390 . S
C1272 C1273 1.391 . S
C1272 H1299 0.930 . S
C1273 C1269 1.387 . S
C1273 C1272 1.391 . S
C1274 Tb1264 2.825 . S
C1274 C1268 1.507 . S
C1274 O1287 1.238 . S
C1274 O1288 1.247 . S
O1275 Tb1264 2.347 . S
O1275 C1279 1.259 . S
O1276 Eu1265 2.418 . S
O1276 C1279 1.265 . S
O1277 Eu1265 2.384 . S
O1277 C1286 1.255 . S
O1278 Tb1264 2.366 . S
O1278 C1286 1.265 . S
C1279 O1275 1.259 . S
C1279 O1276 1.265 . S
O1280 Eu1265 2.479 . S
O1280 C1295 1.238 . S
O1281 Eu1265 2.471 . S
O1281 C1295 1.247 . S
O1282 Eu1265 2.347 . S
O1282 C1266 1.259 . S
O1283 Tb1264 2.418 . S
O1283 C1266 1.265 . S
O1284 Tb1264 2.384 . S
O1284 C1267 1.255 . S
O1285 Eu1265 2.366 . S
O1285 C1267 1.265 . S
C1286 O1277 1.255 . S
C1286 O1278 1.265 . S
O1287 Tb1264 2.479 . S
O1287 C1274 1.238 . S
O1288 Tb1264 2.471 . S
O1288 C1274 1.247 . S
C1289 C1292 1.380 . S
C1289 C1293 1.374 . S
C1289 C1295 1.507 . S
C1290 C1291 1.387 . S
C1290 C1294 1.391 . S
C1291 C1290 1.387 . S
C1291 C1292 1.384 . S
C1291 H1300 0.930 . S
C1292 C1289 1.380 . S
C1292 C1291 1.384 . S
C1292 H1301 0.931 . S
C1293 C1289 1.374 . S
C1293 C1294 1.390 . S
C1293 H1302 0.930 . S
C1294 C1290 1.391 . S
C1294 C1293 1.390 . S
C1294 H1303 0.930 . S
C1295 Eu1265 2.825 . S
C1295 O1280 1.238 . S
C1295 O1281 1.247 . S
C1295 C1289 1.507 . S
H1296 C1269 0.930 . S
H1297 C1270 0.931 . S
H1298 C1271 0.930 . S
H1299 C1272 0.930 . S
H1300 C1291 0.930 . S
H1301 C1292 0.931 . S
H1302 C1293 0.930 . S
H1303 C1294 0.930 . S
Tb1304 C1314 2.825 . S
Tb1304 O1315 2.347 . S
Tb1304 O1318 2.366 . S
Tb1304 O1323 2.418 . S
Tb1304 O1324 2.384 . S
Tb1304 O1327 2.479 . S
Tb1304 O1328 2.471 . S
Eu1305 O1316 2.418 . S
Eu1305 O1317 2.384 . S
Eu1305 O1320 2.479 . S
Eu1305 O1321 2.471 . S
Eu1305 O1322 2.347 . S
Eu1305 O1325 2.366 . S
Eu1305 C1335 2.825 . S
C1306 O1322 1.259 . S
C1306 O1323 1.265 . S
C1307 O1324 1.255 . S
C1307 O1325 1.265 . S
C1308 C1310 1.380 . S
C1308 C1311 1.374 . S
C1308 C1314 1.507 . S
C1309 C1310 1.384 . S
C1309 C1313 1.387 . S
C1309 H1336 0.930 . S
C1310 C1308 1.380 . S
C1310 C1309 1.384 . S
C1310 H1337 0.931 . S
C1311 C1308 1.374 . S
C1311 C1312 1.390 . S
C1311 H1338 0.930 . S
C1312 C1311 1.390 . S
C1312 C1313 1.391 . S
C1312 H1339 0.930 . S
C1313 C1309 1.387 . S
C1313 C1312 1.391 . S
C1314 Tb1304 2.825 . S
C1314 C1308 1.507 . S
C1314 O1327 1.238 . S
C1314 O1328 1.247 . S
O1315 Tb1304 2.347 . S
O1315 C1319 1.259 . S
O1316 Eu1305 2.418 . S
O1316 C1319 1.265 . S
O1317 Eu1305 2.384 . S
O1317 C1326 1.255 . S
O1318 Tb1304 2.366 . S
O1318 C1326 1.265 . S
C1319 O1315 1.259 . S
C1319 O1316 1.265 . S
O1320 Eu1305 2.479 . S
O1320 C1335 1.238 . S
O1321 Eu1305 2.471 . S
O1321 C1335 1.247 . S
O1322 Eu1305 2.347 . S
O1322 C1306 1.259 . S
O1323 Tb1304 2.418 . S
O1323 C1306 1.265 . S
O1324 Tb1304 2.384 . S
O1324 C1307 1.255 . S
O1325 Eu1305 2.366 . S
O1325 C1307 1.265 . S
C1326 O1317 1.255 . S
C1326 O1318 1.265 . S
O1327 Tb1304 2.479 . S
O1327 C1314 1.238 . S
O1328 Tb1304 2.471 . S
O1328 C1314 1.247 . S
C1329 C1332 1.380 . S
C1329 C1333 1.374 . S
C1329 C1335 1.507 . S
C1330 C1331 1.387 . S
C1330 C1334 1.391 . S
C1331 C1330 1.387 . S
C1331 C1332 1.384 . S
C1331 H1340 0.930 . S
C1332 C1329 1.380 . S
C1332 C1331 1.384 . S
C1332 H1341 0.931 . S
C1333 C1329 1.374 . S
C1333 C1334 1.390 . S
C1333 H1342 0.930 . S
C1334 C1330 1.391 . S
C1334 C1333 1.390 . S
C1334 H1343 0.930 . S
C1335 Eu1305 2.825 . S
C1335 O1320 1.238 . S
C1335 O1321 1.247 . S
C1335 C1329 1.507 . S
H1336 C1309 0.930 . S
H1337 C1310 0.931 . S
H1338 C1311 0.930 . S
H1339 C1312 0.930 . S
H1340 C1331 0.930 . S
H1341 C1332 0.931 . S
H1342 C1333 0.930 . S
H1343 C1334 0.930 . S
Tb1344 C1354 2.825 . S
Tb1344 O1355 2.347 . S
Tb1344 O1358 2.366 . S
Tb1344 O1363 2.418 . S
Tb1344 O1364 2.384 . S
Tb1344 O1367 2.479 . S
Tb1344 O1368 2.471 . S
Eu1345 O1356 2.418 . S
Eu1345 O1357 2.384 . S
Eu1345 O1360 2.479 . S
Eu1345 O1361 2.471 . S
Eu1345 O1362 2.347 . S
Eu1345 O1365 2.366 . S
Eu1345 C1375 2.825 . S
C1346 O1362 1.259 . S
C1346 O1363 1.265 . S
C1347 O1364 1.255 . S
C1347 O1365 1.265 . S
C1348 C1350 1.380 . S
C1348 C1351 1.374 . S
C1348 C1354 1.507 . S
C1349 C1350 1.384 . S
C1349 C1353 1.387 . S
C1349 H1376 0.930 . S
C1350 C1348 1.380 . S
C1350 C1349 1.384 . S
C1350 H1377 0.931 . S
C1351 C1348 1.374 . S
C1351 C1352 1.390 . S
C1351 H1378 0.930 . S
C1352 C1351 1.390 . S
C1352 C1353 1.391 . S
C1352 H1379 0.930 . S
C1353 C1349 1.387 . S
C1353 C1352 1.391 . S
C1354 Tb1344 2.825 . S
C1354 C1348 1.507 . S
C1354 O1367 1.238 . S
C1354 O1368 1.247 . S
O1355 Tb1344 2.347 . S
O1355 C1359 1.259 . S
O1356 Eu1345 2.418 . S
O1356 C1359 1.265 . S
O1357 Eu1345 2.384 . S
O1357 C1366 1.255 . S
O1358 Tb1344 2.366 . S
O1358 C1366 1.265 . S
C1359 O1355 1.259 . S
C1359 O1356 1.265 . S
O1360 Eu1345 2.479 . S
O1360 C1375 1.238 . S
O1361 Eu1345 2.471 . S
O1361 C1375 1.247 . S
O1362 Eu1345 2.347 . S
O1362 C1346 1.259 . S
O1363 Tb1344 2.418 . S
O1363 C1346 1.265 . S
O1364 Tb1344 2.384 . S
O1364 C1347 1.255 . S
O1365 Eu1345 2.366 . S
O1365 C1347 1.265 . S
C1366 O1357 1.255 . S
C1366 O1358 1.265 . S
O1367 Tb1344 2.479 . S
O1367 C1354 1.238 . S
O1368 Tb1344 2.471 . S
O1368 C1354 1.247 . S
C1369 C1372 1.380 . S
C1369 C1373 1.374 . S
C1369 C1375 1.507 . S
C1370 C1371 1.387 . S
C1370 C1374 1.391 . S
C1371 C1370 1.387 . S
C1371 C1372 1.384 . S
C1371 H1380 0.930 . S
C1372 C1369 1.380 . S
C1372 C1371 1.384 . S
C1372 H1381 0.931 . S
C1373 C1369 1.374 . S
C1373 C1374 1.390 . S
C1373 H1382 0.930 . S
C1374 C1370 1.391 . S
C1374 C1373 1.390 . S
C1374 H1383 0.930 . S
C1375 Eu1345 2.825 . S
C1375 O1360 1.238 . S
C1375 O1361 1.247 . S
C1375 C1369 1.507 . S
H1376 C1349 0.930 . S
H1377 C1350 0.931 . S
H1378 C1351 0.930 . S
H1379 C1352 0.930 . S
H1380 C1371 0.930 . S
H1381 C1372 0.931 . S
H1382 C1373 0.930 . S
H1383 C1374 0.930 . S
Tb1384 C1394 2.825 . S
Tb1384 O1395 2.347 . S
Tb1384 O1398 2.366 . S
Tb1384 O1403 2.418 . S
Tb1384 O1404 2.384 . S
Tb1384 O1407 2.479 . S
Tb1384 O1408 2.471 . S
Eu1385 O1396 2.418 . S
Eu1385 O1397 2.384 . S
Eu1385 O1400 2.479 . S
Eu1385 O1401 2.471 . S
Eu1385 O1402 2.347 . S
Eu1385 O1405 2.366 . S
Eu1385 C1415 2.825 . S
C1386 O1402 1.259 . S
C1386 O1403 1.265 . S
C1387 O1404 1.255 . S
C1387 O1405 1.265 . S
C1388 C1390 1.380 . S
C1388 C1391 1.374 . S
C1388 C1394 1.507 . S
C1389 C1390 1.384 . S
C1389 C1393 1.387 . S
C1389 H1416 0.930 . S
C1390 C1388 1.380 . S
C1390 C1389 1.384 . S
C1390 H1417 0.931 . S
C1391 C1388 1.374 . S
C1391 C1392 1.390 . S
C1391 H1418 0.930 . S
C1392 C1391 1.390 . S
C1392 C1393 1.391 . S
C1392 H1419 0.930 . S
C1393 C1389 1.387 . S
C1393 C1392 1.391 . S
C1394 Tb1384 2.825 . S
C1394 C1388 1.507 . S
C1394 O1407 1.238 . S
C1394 O1408 1.247 . S
O1395 Tb1384 2.347 . S
O1395 C1399 1.259 . S
O1396 Eu1385 2.418 . S
O1396 C1399 1.265 . S
O1397 Eu1385 2.384 . S
O1397 C1406 1.255 . S
O1398 Tb1384 2.366 . S
O1398 C1406 1.265 . S
C1399 O1395 1.259 . S
C1399 O1396 1.265 . S
O1400 Eu1385 2.479 . S
O1400 C1415 1.238 . S
O1401 Eu1385 2.471 . S
O1401 C1415 1.247 . S
O1402 Eu1385 2.347 . S
O1402 C1386 1.259 . S
O1403 Tb1384 2.418 . S
O1403 C1386 1.265 . S
O1404 Tb1384 2.384 . S
O1404 C1387 1.255 . S
O1405 Eu1385 2.366 . S
O1405 C1387 1.265 . S
C1406 O1397 1.255 . S
C1406 O1398 1.265 . S
O1407 Tb1384 2.479 . S
O1407 C1394 1.238 . S
O1408 Tb1384 2.471 . S
O1408 C1394 1.247 . S
C1409 C1412 1.380 . S
C1409 C1413 1.374 . S
C1409 C1415 1.507 . S
C1410 C1411 1.387 . S
C1410 C1414 1.391 . S
C1411 C1410 1.387 . S
C1411 C1412 1.384 . S
C1411 H1420 0.930 . S
C1412 C1409 1.380 . S
C1412 C1411 1.384 . S
C1412 H1421 0.931 . S
C1413 C1409 1.374 . S
C1413 C1414 1.390 . S
C1413 H1422 0.930 . S
C1414 C1410 1.391 . S
C1414 C1413 1.390 . S
C1414 H1423 0.930 . S
C1415 Eu1385 2.825 . S
C1415 O1400 1.238 . S
C1415 O1401 1.247 . S
C1415 C1409 1.507 . S
H1416 C1389 0.930 . S
H1417 C1390 0.931 . S
H1418 C1391 0.930 . S
H1419 C1392 0.930 . S
H1420 C1411 0.930 . S
H1421 C1412 0.931 . S
H1422 C1413 0.930 . S
H1423 C1414 0.930 . S
Tb1424 C1434 2.825 . S
Tb1424 O1435 2.347 . S
Tb1424 O1438 2.366 . S
Tb1424 O1443 2.418 . S
Tb1424 O1444 2.384 . S
Tb1424 O1447 2.479 . S
Tb1424 O1448 2.471 . S
Eu1425 O1436 2.418 . S
Eu1425 O1437 2.384 . S
Eu1425 O1440 2.479 . S
Eu1425 O1441 2.471 . S
Eu1425 O1442 2.347 . S
Eu1425 O1445 2.366 . S
Eu1425 C1455 2.825 . S
C1426 O1442 1.259 . S
C1426 O1443 1.265 . S
C1427 O1444 1.255 . S
C1427 O1445 1.265 . S
C1428 C1430 1.380 . S
C1428 C1431 1.374 . S
C1428 C1434 1.507 . S
C1429 C1430 1.384 . S
C1429 C1433 1.387 . S
C1429 H1456 0.930 . S
C1430 C1428 1.380 . S
C1430 C1429 1.384 . S
C1430 H1457 0.931 . S
C1431 C1428 1.374 . S
C1431 C1432 1.390 . S
C1431 H1458 0.930 . S
C1432 C1431 1.390 . S
C1432 C1433 1.391 . S
C1432 H1459 0.930 . S
C1433 C1429 1.387 . S
C1433 C1432 1.391 . S
C1434 Tb1424 2.825 . S
C1434 C1428 1.507 . S
C1434 O1447 1.238 . S
C1434 O1448 1.247 . S
O1435 Tb1424 2.347 . S
O1435 C1439 1.259 . S
O1436 Eu1425 2.418 . S
O1436 C1439 1.265 . S
O1437 Eu1425 2.384 . S
O1437 C1446 1.255 . S
O1438 Tb1424 2.366 . S
O1438 C1446 1.265 . S
C1439 O1435 1.259 . S
C1439 O1436 1.265 . S
O1440 Eu1425 2.479 . S
O1440 C1455 1.238 . S
O1441 Eu1425 2.471 . S
O1441 C1455 1.247 . S
O1442 Eu1425 2.347 . S
O1442 C1426 1.259 . S
O1443 Tb1424 2.418 . S
O1443 C1426 1.265 . S
O1444 Tb1424 2.384 . S
O1444 C1427 1.255 . S
O1445 Eu1425 2.366 . S
O1445 C1427 1.265 . S
C1446 O1437 1.255 . S
C1446 O1438 1.265 . S
O1447 Tb1424 2.479 . S
O1447 C1434 1.238 . S
O1448 Tb1424 2.471 . S
O1448 C1434 1.247 . S
C1449 C1452 1.380 . S
C1449 C1453 1.374 . S
C1449 C1455 1.507 . S
C1450 C1451 1.387 . S
C1450 C1454 1.391 . S
C1451 C1450 1.387 . S
C1451 C1452 1.384 . S
C1451 H1460 0.930 . S
C1452 C1449 1.380 . S
C1452 C1451 1.384 . S
C1452 H1461 0.931 . S
C1453 C1449 1.374 . S
C1453 C1454 1.390 . S
C1453 H1462 0.930 . S
C1454 C1450 1.391 . S
C1454 C1453 1.390 . S
C1454 H1463 0.930 . S
C1455 Eu1425 2.825 . S
C1455 O1440 1.238 . S
C1455 O1441 1.247 . S
C1455 C1449 1.507 . S
H1456 C1429 0.930 . S
H1457 C1430 0.931 . S
H1458 C1431 0.930 . S
H1459 C1432 0.930 . S
H1460 C1451 0.930 . S
H1461 C1452 0.931 . S
H1462 C1453 0.930 . S
H1463 C1454 0.930 . S
Tb1464 C1474 2.825 . S
Tb1464 O1475 2.347 1_554 S
Tb1464 O1478 2.366 . S
Tb1464 O1483 2.418 . S
Tb1464 O1484 2.384 . S
Tb1464 O1487 2.479 . S
Tb1464 O1488 2.471 1_554 S
Eu1465 O1476 2.418 1_554 S
Eu1465 O1477 2.384 . S
Eu1465 O1480 2.479 . S
Eu1465 O1481 2.471 . S
Eu1465 O1482 2.347 . S
Eu1465 O1485 2.366 . S
Eu1465 C1495 2.825 . S
C1466 O1482 1.259 . S
C1466 O1483 1.265 . S
C1467 O1484 1.255 . S
C1467 O1485 1.265 . S
C1468 C1470 1.380 1_556 S
C1468 C1471 1.374 . S
C1468 C1474 1.507 1_556 S
C1469 C1470 1.384 1_556 S
C1469 C1473 1.387 . S
C1469 H1496 0.930 1_556 S
C1470 C1468 1.380 1_554 S
C1470 C1469 1.384 1_554 S
C1470 H1497 0.931 . S
C1471 C1468 1.374 . S
C1471 C1472 1.390 . S
C1471 H1498 0.930 . S
C1472 C1471 1.390 . S
C1472 C1473 1.391 . S
C1472 H1499 0.930 . S
C1473 C1469 1.387 . S
C1473 C1472 1.391 . S
C1474 Tb1464 2.825 . S
C1474 C1468 1.507 1_554 S
C1474 O1487 1.238 . S
C1474 O1488 1.247 1_554 S
O1475 Tb1464 2.347 1_556 S
O1475 C1479 1.259 . S
O1476 Eu1465 2.418 1_556 S
O1476 C1479 1.265 . S
O1477 Eu1465 2.384 . S
O1477 C1486 1.255 . S
O1478 Tb1464 2.366 . S
O1478 C1486 1.265 . S
C1479 O1475 1.259 . S
C1479 O1476 1.265 . S
O1480 Eu1465 2.479 . S
O1480 C1495 1.238 . S
O1481 Eu1465 2.471 . S
O1481 C1495 1.247 . S
O1482 Eu1465 2.347 . S
O1482 C1466 1.259 . S
O1483 Tb1464 2.418 . S
O1483 C1466 1.265 . S
O1484 Tb1464 2.384 . S
O1484 C1467 1.255 . S
O1485 Eu1465 2.366 . S
O1485 C1467 1.265 . S
C1486 O1477 1.255 . S
C1486 O1478 1.265 . S
O1487 Tb1464 2.479 . S
O1487 C1474 1.238 . S
O1488 Tb1464 2.471 1_556 S
O1488 C1474 1.247 1_556 S
C1489 C1492 1.380 . S
C1489 C1493 1.374 . S
C1489 C1495 1.507 . S
C1490 C1491 1.387 . S
C1490 C1494 1.391 . S
C1491 C1490 1.387 . S
C1491 C1492 1.384 . S
C1491 H1500 0.930 . S
C1492 C1489 1.380 . S
C1492 C1491 1.384 . S
C1492 H1501 0.931 . S
C1493 C1489 1.374 . S
C1493 C1494 1.390 . S
C1493 H1502 0.930 . S
C1494 C1490 1.391 . S
C1494 C1493 1.390 . S
C1494 H1503 0.930 . S
C1495 Eu1465 2.825 . S
C1495 O1480 1.238 . S
C1495 O1481 1.247 . S
C1495 C1489 1.507 . S
H1496 C1469 0.930 1_554 S
H1497 C1470 0.931 . S
H1498 C1471 0.930 . S
H1499 C1472 0.930 . S
H1500 C1491 0.930 . S
H1501 C1492 0.931 . S
H1502 C1493 0.930 . S
H1503 C1494 0.930 . S
H1504 C1512 0.950 . S
H1505 C1517 0.950 . S
H1506 C1514 0.950 . S
H1507 C1516 0.950 . S
H1508 C1518 0.950 . S
H1509 C1520 0.950 1_655 S
H1510 C1522 0.950 . S
H1511 C1523 0.968 . S
C1512 H1504 0.950 . S
C1512 C1513 1.386 1_455 S
C1512 C1514 1.391 . S
C1513 C1512 1.386 1_655 S
C1513 C1517 1.393 . S
C1514 H1506 0.950 . S
C1514 C1512 1.391 . S
C1514 C1515 1.400 . S
C1515 C1514 1.400 . S
C1515 C1516 1.398 1_455 S
C1515 C1521 1.491 . S
C1516 H1507 0.950 . S
C1516 C1515 1.398 1_655 S
C1516 C1517 1.391 . S
C1517 H1505 0.950 . S
C1517 C1513 1.393 . S
C1517 C1516 1.391 . S
C1518 H1508 0.950 . S
C1518 C1519 1.386 . S
C1518 C1520 1.391 . S
C1519 C1518 1.386 . S
C1519 C1523 1.392 1_556 S
C1520 H1509 0.950 1_455 S
C1520 C1518 1.391 . S
C1520 C1521 1.400 . S
C1521 C1515 1.491 . S
C1521 C1520 1.400 . S
C1521 C1522 1.398 . S
C1522 H1510 0.950 . S
C1522 C1521 1.398 . S
C1522 C1523 1.374 1_556 S
C1523 H1511 0.968 . S
C1523 C1519 1.392 1_554 S
C1523 C1522 1.374 1_554 S
H1524 C1532 0.950 . S
H1525 C1537 0.950 . S
H1526 C1534 0.950 . S
H1527 C1536 0.950 . S
H1528 C1538 0.950 . S
H1529 C1540 0.950 . S
H1530 C1542 0.950 . S
H1531 C1543 0.950 . S
C1532 H1524 0.950 . S
C1532 C1533 1.386 . S
C1532 C1534 1.391 . S
C1533 C1532 1.386 . S
C1533 C1537 1.393 . S
C1534 H1526 0.950 . S
C1534 C1532 1.391 . S
C1534 C1535 1.400 . S
C1535 C1534 1.400 . S
C1535 C1536 1.398 . S
C1535 C1541 1.491 . S
C1536 H1527 0.950 . S
C1536 C1535 1.398 . S
C1536 C1537 1.391 . S
C1537 H1525 0.950 . S
C1537 C1533 1.393 . S
C1537 C1536 1.391 . S
C1538 H1528 0.950 . S
C1538 C1539 1.386 . S
C1538 C1540 1.391 . S
C1539 C1538 1.386 . S
C1539 C1543 1.393 . S
C1540 H1529 0.950 . S
C1540 C1538 1.391 . S
C1540 C1541 1.400 . S
C1541 C1535 1.491 . S
C1541 C1540 1.400 . S
C1541 C1542 1.398 . S
C1542 H1530 0.950 . S
C1542 C1541 1.398 . S
C1542 C1543 1.391 . S
C1543 H1531 0.950 . S
C1543 C1539 1.393 . S
C1543 C1542 1.391 . S
H1544 C1552 0.950 . S
H1545 C1557 0.950 . S
H1546 C1554 0.950 . S
H1547 C1556 0.950 . S
H1548 C1558 0.950 . S
H1549 C1560 0.950 . S
H1550 C1562 0.950 . S
H1551 C1563 0.950 . S
C1552 H1544 0.950 . S
C1552 C1553 1.386 . S
C1552 C1554 1.391 . S
C1553 C1552 1.386 . S
C1553 C1557 1.393 . S
C1554 H1546 0.950 . S
C1554 C1552 1.391 . S
C1554 C1555 1.400 . S
C1555 C1554 1.400 . S
C1555 C1556 1.398 . S
C1555 C1561 1.491 . S
C1556 H1547 0.950 . S
C1556 C1555 1.398 . S
C1556 C1557 1.391 . S
C1557 H1545 0.950 . S
C1557 C1553 1.393 . S
C1557 C1556 1.391 . S
C1558 H1548 0.950 . S
C1558 C1559 1.386 . S
C1558 C1560 1.391 . S
C1559 C1558 1.386 . S
C1559 C1563 1.393 . S
C1560 H1549 0.950 . S
C1560 C1558 1.391 . S
C1560 C1561 1.400 . S
C1561 C1555 1.491 . S
C1561 C1560 1.400 . S
C1561 C1562 1.398 . S
C1562 H1550 0.950 . S
C1562 C1561 1.398 . S
C1562 C1563 1.391 . S
C1563 H1551 0.950 . S
C1563 C1559 1.393 . S
C1563 C1562 1.391 . S
H1564 C1572 0.950 . S
H1565 C1577 0.950 . S
H1566 C1574 0.950 . S
H1567 C1576 0.950 . S
H1568 C1578 0.950 . S
H1569 C1580 0.950 . S
H1570 C1582 0.950 . S
H1571 C1583 0.950 . S
C1572 H1564 0.950 . S
C1572 C1573 1.386 . S
C1572 C1574 1.391 . S
C1573 C1572 1.386 . S
C1573 C1577 1.393 . S
C1574 H1566 0.950 . S
C1574 C1572 1.391 . S
C1574 C1575 1.400 . S
C1575 C1574 1.400 . S
C1575 C1576 1.398 . S
C1575 C1581 1.491 . S
C1576 H1567 0.950 . S
C1576 C1575 1.398 . S
C1576 C1577 1.391 . S
C1577 H1565 0.950 . S
C1577 C1573 1.393 . S
C1577 C1576 1.391 . S
C1578 H1568 0.950 . S
C1578 C1579 1.386 . S
C1578 C1580 1.391 . S
C1579 C1578 1.386 . S
C1579 C1583 1.393 . S
C1580 H1569 0.950 . S
C1580 C1578 1.391 . S
C1580 C1581 1.400 . S
C1581 C1575 1.491 . S
C1581 C1580 1.400 . S
C1581 C1582 1.398 . S
C1582 H1570 0.950 . S
C1582 C1581 1.398 . S
C1582 C1583 1.391 . S
C1583 H1571 0.950 . S
C1583 C1579 1.393 . S
C1583 C1582 1.391 . S
H1584 C1592 0.950 . S
H1585 C1597 0.950 . S
H1586 C1594 0.950 . S
H1587 C1596 0.950 . S
H1588 C1598 0.950 . S
H1589 C1600 0.950 . S
H1590 C1602 0.950 . S
H1591 C1603 0.950 . S
C1592 H1584 0.950 . S
C1592 C1593 1.386 . S
C1592 C1594 1.391 . S
C1593 C1592 1.386 . S
C1593 C1597 1.393 . S
C1594 H1586 0.950 . S
C1594 C1592 1.391 . S
C1594 C1595 1.400 . S
C1595 C1594 1.400 . S
C1595 C1596 1.398 . S
C1595 C1601 1.491 . S
C1596 H1587 0.950 . S
C1596 C1595 1.398 . S
C1596 C1597 1.391 . S
C1597 H1585 0.950 . S
C1597 C1593 1.393 . S
C1597 C1596 1.391 . S
C1598 H1588 0.950 . S
C1598 C1599 1.386 . S
C1598 C1600 1.391 . S
C1599 C1598 1.386 . S
C1599 C1603 1.393 . S
C1600 H1589 0.950 . S
C1600 C1598 1.391 . S
C1600 C1601 1.400 . S
C1601 C1595 1.491 . S
C1601 C1600 1.400 . S
C1601 C1602 1.398 . S
C1602 H1590 0.950 . S
C1602 C1601 1.398 . S
C1602 C1603 1.391 . S
C1603 H1591 0.950 . S
C1603 C1599 1.393 . S
C1603 C1602 1.391 . S
H1604 C1612 0.950 . S
H1605 C1617 0.950 . S
H1606 C1614 0.950 . S
H1607 C1616 0.950 . S
H1608 C1618 0.950 . S
H1609 C1620 0.950 . S
H1610 C1622 0.950 . S
H1611 C1623 0.950 . S
C1612 H1604 0.950 . S
C1612 C1613 1.386 . S
C1612 C1614 1.391 . S
C1613 C1612 1.386 . S
C1613 C1617 1.393 . S
C1614 H1606 0.950 . S
C1614 C1612 1.391 . S
C1614 C1615 1.400 . S
C1615 C1614 1.400 . S
C1615 C1616 1.398 . S
C1615 C1621 1.491 . S
C1616 H1607 0.950 . S
C1616 C1615 1.398 . S
C1616 C1617 1.391 . S
C1617 H1605 0.950 . S
C1617 C1613 1.393 . S
C1617 C1616 1.391 . S
C1618 H1608 0.950 . S
C1618 C1619 1.386 . S
C1618 C1620 1.391 . S
C1619 C1618 1.386 . S
C1619 C1623 1.393 . S
C1620 H1609 0.950 . S
C1620 C1618 1.391 . S
C1620 C1621 1.400 . S
C1621 C1615 1.491 . S
C1621 C1620 1.400 . S
C1621 C1622 1.398 . S
C1622 H1610 0.950 . S
C1622 C1621 1.398 . S
C1622 C1623 1.391 . S
C1623 H1611 0.950 . S
C1623 C1619 1.393 . S
C1623 C1622 1.391 . S
H1624 C1632 0.950 . S
H1625 C1637 0.950 . S
H1626 C1634 0.950 . S
H1627 C1636 0.950 . S
H1628 C1638 0.950 . S
H1629 C1640 0.950 . S
H1630 C1642 0.950 . S
H1631 C1643 0.950 . S
C1632 H1624 0.950 . S
C1632 C1633 1.386 . S
C1632 C1634 1.391 . S
C1633 C1632 1.386 . S
C1633 C1637 1.393 . S
C1634 H1626 0.950 . S
C1634 C1632 1.391 . S
C1634 C1635 1.400 . S
C1635 C1634 1.400 . S
C1635 C1636 1.398 . S
C1635 C1641 1.491 . S
C1636 H1627 0.950 . S
C1636 C1635 1.398 . S
C1636 C1637 1.391 . S
C1637 H1625 0.950 . S
C1637 C1633 1.393 . S
C1637 C1636 1.391 . S
C1638 H1628 0.950 . S
C1638 C1639 1.386 . S
C1638 C1640 1.391 . S
C1639 C1638 1.386 . S
C1639 C1643 1.393 . S
C1640 H1629 0.950 . S
C1640 C1638 1.391 . S
C1640 C1641 1.400 . S
C1641 C1635 1.491 . S
C1641 C1640 1.400 . S
C1641 C1642 1.398 . S
C1642 H1630 0.950 . S
C1642 C1641 1.398 . S
C1642 C1643 1.391 . S
C1643 H1631 0.950 . S
C1643 C1639 1.393 . S
C1643 C1642 1.391 . S
H1644 C1652 0.950 . S
H1645 C1657 0.950 . S
H1646 C1654 0.950 . S
H1647 C1656 0.950 . S
H1648 C1658 0.950 . S
H1649 C1660 0.950 . S
H1650 C1662 0.950 . S
H1651 C1663 0.950 . S
C1652 H1644 0.950 . S
C1652 C1653 1.386 . S
C1652 C1654 1.391 . S
C1653 C1652 1.386 . S
C1653 C1657 1.393 . S
C1654 H1646 0.950 . S
C1654 C1652 1.391 . S
C1654 C1655 1.400 . S
C1655 C1654 1.400 . S
C1655 C1656 1.398 . S
C1655 C1661 1.491 . S
C1656 H1647 0.950 . S
C1656 C1655 1.398 . S
C1656 C1657 1.391 . S
C1657 H1645 0.950 . S
C1657 C1653 1.393 . S
C1657 C1656 1.391 . S
C1658 H1648 0.950 . S
C1658 C1659 1.386 . S
C1658 C1660 1.391 . S
C1659 C1658 1.386 . S
C1659 C1663 1.393 . S
C1660 H1649 0.950 . S
C1660 C1658 1.391 . S
C1660 C1661 1.400 . S
C1661 C1655 1.491 . S
C1661 C1660 1.400 . S
C1661 C1662 1.398 . S
C1662 H1650 0.950 . S
C1662 C1661 1.398 . S
C1662 C1663 1.391 . S
C1663 H1651 0.950 . S
C1663 C1659 1.393 . S
C1663 C1662 1.391 . S
H1664 C1672 0.950 . S
H1665 C1677 0.950 . S
H1666 C1674 0.935 1_565 S
H1667 C1676 0.950 . S
H1668 C1678 0.950 . S
H1669 C1680 0.950 . S
H1670 C1682 0.950 . S
H1671 C1683 0.950 . S
C1672 H1664 0.950 . S
C1672 C1673 1.386 1_565 S
C1672 C1674 1.391 1_565 S
C1673 C1672 1.386 1_545 S
C1673 C1677 1.393 . S
C1674 H1666 0.935 1_545 S
C1674 C1672 1.391 1_545 S
C1674 C1675 1.400 . S
C1675 C1674 1.400 . S
C1675 C1676 1.398 . S
C1675 C1681 1.491 . S
C1676 H1667 0.950 . S
C1676 C1675 1.398 . S
C1676 C1677 1.391 . S
C1677 H1665 0.950 . S
C1677 C1673 1.393 . S
C1677 C1676 1.391 . S
C1678 H1668 0.950 . S
C1678 C1679 1.386 1_655 S
C1678 C1680 1.391 . S
C1679 C1678 1.386 1_455 S
C1679 C1683 1.393 . S
C1680 H1669 0.950 . S
C1680 C1678 1.391 . S
C1680 C1681 1.400 . S
C1681 C1675 1.491 . S
C1681 C1680 1.400 . S
C1681 C1682 1.398 1_655 S
C1682 H1670 0.950 . S
C1682 C1681 1.398 1_455 S
C1682 C1683 1.391 . S
C1683 H1671 0.950 . S
C1683 C1679 1.393 . S
C1683 C1682 1.391 . S
H1684 C1692 0.950 . S
H1685 C1697 0.950 . S
H1686 C1694 0.950 . S
H1687 C1696 0.950 . S
H1688 C1698 0.950 . S
H1689 C1700 0.950 . S
H1690 C1702 0.950 . S
H1691 C1703 0.950 . S
C1692 H1684 0.950 . S
C1692 C1693 1.386 . S
C1692 C1694 1.391 . S
C1693 C1692 1.386 . S
C1693 C1697 1.393 . S
C1694 H1686 0.950 . S
C1694 C1692 1.391 . S
C1694 C1695 1.400 . S
C1695 C1694 1.400 . S
C1695 C1696 1.398 . S
C1695 C1701 1.491 . S
C1696 H1687 0.950 . S
C1696 C1695 1.398 . S
C1696 C1697 1.391 . S
C1697 H1685 0.950 . S
C1697 C1693 1.393 . S
C1697 C1696 1.391 . S
C1698 H1688 0.950 . S
C1698 C1699 1.386 . S
C1698 C1700 1.391 . S
C1699 C1698 1.386 . S
C1699 C1703 1.393 . S
C1700 H1689 0.950 . S
C1700 C1698 1.391 . S
C1700 C1701 1.400 . S
C1701 C1695 1.491 . S
C1701 C1700 1.400 . S
C1701 C1702 1.398 . S
C1702 H1690 0.950 . S
C1702 C1701 1.398 . S
C1702 C1703 1.391 . S
C1703 H1691 0.950 . S
C1703 C1699 1.393 . S
C1703 C1702 1.391 . S
H1704 C1712 0.950 . S
H1705 C1717 0.950 . S
H1706 C1714 0.950 . S
H1707 C1716 0.950 . S
H1708 C1718 0.950 . S
H1709 C1720 0.950 . S
H1710 C1722 0.950 1_565 S
H1711 C1723 0.950 . S
C1712 H1704 0.950 . S
C1712 C1713 1.386 1_565 S
C1712 C1714 1.391 . S
C1713 C1712 1.386 1_545 S
C1713 C1717 1.393 . S
C1714 H1706 0.950 . S
C1714 C1712 1.391 . S
C1714 C1715 1.400 1_565 S
C1715 C1714 1.400 1_545 S
C1715 C1716 1.398 . S
C1715 C1721 1.491 . S
C1716 H1707 0.950 . S
C1716 C1715 1.398 . S
C1716 C1717 1.391 . S
C1717 H1705 0.950 . S
C1717 C1713 1.393 . S
C1717 C1716 1.391 . S
C1718 H1708 0.950 . S
C1718 C1719 1.386 . S
C1718 C1720 1.391 . S
C1719 C1718 1.386 . S
C1719 C1723 1.393 . S
C1720 H1709 0.950 . S
C1720 C1718 1.391 . S
C1720 C1721 1.400 . S
C1721 C1715 1.491 . S
C1721 C1720 1.400 . S
C1721 C1722 1.398 . S
C1722 H1710 0.950 1_545 S
C1722 C1721 1.398 . S
C1722 C1723 1.391 . S
C1723 H1711 0.950 . S
C1723 C1719 1.393 . S
C1723 C1722 1.391 . S
H1724 C1732 0.950 . S
H1725 C1737 0.950 . S
H1726 C1734 0.950 . S
H1727 C1736 0.950 . S
H1728 C1738 0.950 . S
H1729 C1740 0.950 . S
H1730 C1742 0.950 . S
H1731 C1743 0.950 . S
C1732 H1724 0.950 . S
C1732 C1733 1.386 . S
C1732 C1734 1.391 . S
C1733 C1732 1.386 . S
C1733 C1737 1.393 . S
C1734 H1726 0.950 . S
C1734 C1732 1.391 . S
C1734 C1735 1.400 . S
C1735 C1734 1.400 . S
C1735 C1736 1.398 . S
C1735 C1741 1.491 . S
C1736 H1727 0.950 . S
C1736 C1735 1.398 . S
C1736 C1737 1.391 . S
C1737 H1725 0.950 . S
C1737 C1733 1.393 . S
C1737 C1736 1.391 . S
C1738 H1728 0.950 . S
C1738 C1739 1.386 . S
C1738 C1740 1.391 . S
C1739 C1738 1.386 . S
C1739 C1743 1.393 . S
C1740 H1729 0.950 . S
C1740 C1738 1.391 . S
C1740 C1741 1.400 . S
C1741 C1735 1.491 . S
C1741 C1740 1.400 . S
C1741 C1742 1.398 . S
C1742 H1730 0.950 . S
C1742 C1741 1.398 . S
C1742 C1743 1.391 . S
C1743 H1731 0.950 . S
C1743 C1739 1.393 . S
C1743 C1742 1.391 . S
H1744 C1752 0.950 . S
H1745 C1757 0.935 1_565 S
H1746 C1754 0.950 . S
H1747 C1756 0.950 . S
H1748 C1758 0.950 . S
H1749 C1760 0.950 1_455 S
H1750 C1762 0.950 . S
H1751 C1763 0.950 . S
C1752 H1744 0.950 . S
C1752 C1753 1.386 . S
C1752 C1754 1.391 . S
C1753 C1752 1.386 . S
C1753 C1757 1.393 . S
C1754 H1746 0.950 . S
C1754 C1752 1.391 . S
C1754 C1755 1.400 . S
C1755 C1754 1.400 . S
C1755 C1756 1.398 . S
C1755 C1761 1.491 . S
C1756 H1747 0.950 . S
C1756 C1755 1.398 . S
C1756 C1757 1.391 . S
C1757 H1745 0.935 1_545 S
C1757 C1753 1.393 . S
C1757 C1756 1.391 . S
C1758 H1748 0.950 . S
C1758 C1759 1.378 1_455 S
C1758 C1760 1.391 1_455 S
C1759 C1758 1.378 1_655 S
C1759 C1763 1.406 . S
C1760 H1749 0.950 1_655 S
C1760 C1758 1.391 1_655 S
C1760 C1761 1.400 . S
C1761 C1755 1.491 . S
C1761 C1760 1.400 . S
C1761 C1762 1.398 . S
C1762 H1750 0.950 . S
C1762 C1761 1.398 . S
C1762 C1763 1.391 . S
C1763 H1751 0.950 . S
C1763 C1759 1.406 . S
C1763 C1762 1.391 . S
H1764 C1772 0.950 . S
H1765 C1777 0.950 . S
H1766 C1774 0.950 . S
H1767 C1776 0.950 . S
H1768 C1778 0.950 . S
H1769 C1780 0.950 . S
H1770 C1782 0.950 . S
H1771 C1783 0.950 . S
C1772 H1764 0.950 . S
C1772 C1773 1.386 . S
C1772 C1774 1.391 . S
C1773 C1772 1.386 . S
C1773 C1777 1.393 . S
C1774 H1766 0.950 . S
C1774 C1772 1.391 . S
C1774 C1775 1.400 . S
C1775 C1774 1.400 . S
C1775 C1776 1.398 . S
C1775 C1781 1.491 . S
C1776 H1767 0.950 . S
C1776 C1775 1.398 . S
C1776 C1777 1.391 . S
C1777 H1765 0.950 . S
C1777 C1773 1.393 . S
C1777 C1776 1.391 . S
C1778 H1768 0.950 . S
C1778 C1779 1.386 . S
C1778 C1780 1.391 . S
C1779 C1778 1.386 . S
C1779 C1783 1.393 . S
C1780 H1769 0.950 . S
C1780 C1778 1.391 . S
C1780 C1781 1.400 . S
C1781 C1775 1.491 . S
C1781 C1780 1.400 . S
C1781 C1782 1.398 . S
C1782 H1770 0.950 . S
C1782 C1781 1.398 . S
C1782 C1783 1.391 . S
C1783 H1771 0.950 . S
C1783 C1779 1.393 . S
C1783 C1782 1.391 . S
H1784 C1792 0.950 . S
H1785 C1797 0.950 . S
H1786 C1794 0.950 . S
H1787 C1796 0.950 . S
H1788 C1798 0.950 . S
H1789 C1800 0.950 . S
H1790 C1802 0.950 . S
H1791 C1803 0.950 . S
C1792 H1784 0.950 . S
C1792 C1793 1.386 . S
C1792 C1794 1.391 . S
C1793 C1792 1.386 . S
C1793 C1797 1.393 1_545 S
C1794 H1786 0.950 . S
C1794 C1792 1.391 . S
C1794 C1795 1.400 . S
C1795 C1794 1.400 . S
C1795 C1796 1.398 . S
C1795 C1801 1.491 . S
C1796 H1787 0.950 . S
C1796 C1795 1.398 . S
C1796 C1797 1.391 1_545 S
C1797 H1785 0.950 . S
C1797 C1793 1.393 1_565 S
C1797 C1796 1.391 1_565 S
C1798 H1788 0.950 . S
C1798 C1799 1.386 . S
C1798 C1800 1.391 . S
C1799 C1798 1.386 . S
C1799 C1803 1.393 . S
C1800 H1789 0.950 . S
C1800 C1798 1.391 . S
C1800 C1801 1.400 . S
C1801 C1795 1.491 . S
C1801 C1800 1.400 . S
C1801 C1802 1.398 . S
C1802 H1790 0.950 . S
C1802 C1801 1.398 . S
C1802 C1803 1.391 . S
C1803 H1791 0.950 . S
C1803 C1799 1.393 . S
C1803 C1802 1.391 . S
H1804 C1812 0.950 . S
H1805 C1817 0.950 . S
H1806 C1814 0.950 . S
H1807 C1816 0.950 . S
H1808 C1818 0.950 . S
H1809 C1820 0.950 . S
H1810 C1822 0.950 . S
H1811 C1823 0.950 . S
C1812 H1804 0.950 . S
C1812 C1813 1.386 . S
C1812 C1814 1.391 . S
C1813 C1812 1.386 . S
C1813 C1817 1.393 . S
C1814 H1806 0.950 . S
C1814 C1812 1.391 . S
C1814 C1815 1.400 . S
C1815 C1814 1.400 . S
C1815 C1816 1.398 . S
C1815 C1821 1.491 . S
C1816 H1807 0.950 . S
C1816 C1815 1.398 . S
C1816 C1817 1.391 . S
C1817 H1805 0.950 . S
C1817 C1813 1.393 . S
C1817 C1816 1.391 . S
C1818 H1808 0.950 . S
C1818 C1819 1.386 . S
C1818 C1820 1.391 . S
C1819 C1818 1.386 . S
C1819 C1823 1.393 . S
C1820 H1809 0.950 . S
C1820 C1818 1.391 . S
C1820 C1821 1.400 . S
C1821 C1815 1.491 . S
C1821 C1820 1.400 . S
C1821 C1822 1.398 . S
C1822 H1810 0.950 . S
C1822 C1821 1.398 . S
C1822 C1823 1.391 . S
C1823 H1811 0.950 . S
C1823 C1819 1.393 . S
C1823 C1822 1.391 . S
H1824 C1832 0.950 . S
H1825 C1837 0.950 . S
H1826 C1834 0.950 . S
H1827 C1836 0.950 . S
H1828 C1838 0.904 1_545 S
H1829 C1840 0.950 . S
H1830 C1842 0.950 . S
H1831 C1843 0.950 . S
C1832 H1824 0.950 . S
C1832 C1833 1.386 . S
C1832 C1834 1.391 . S
C1833 C1832 1.386 . S
C1833 C1837 1.393 . S
C1834 H1826 0.950 . S
C1834 C1832 1.391 . S
C1834 C1835 1.400 . S
C1835 C1834 1.400 . S
C1835 C1836 1.398 . S
C1835 C1841 1.491 . S
C1836 H1827 0.950 . S
C1836 C1835 1.398 . S
C1836 C1837 1.391 . S
C1837 H1825 0.950 . S
C1837 C1833 1.393 . S
C1837 C1836 1.391 . S
C1838 H1828 0.904 1_565 S
C1838 C1839 1.386 . S
C1838 C1840 1.391 . S
C1839 C1838 1.386 . S
C1839 C1843 1.393 . S
C1840 H1829 0.950 . S
C1840 C1838 1.391 . S
C1840 C1841 1.400 . S
C1841 C1835 1.491 . S
C1841 C1840 1.400 . S
C1841 C1842 1.398 . S
C1842 H1830 0.950 . S
C1842 C1841 1.398 . S
C1842 C1843 1.391 . S
C1843 H1831 0.950 . S
C1843 C1839 1.393 . S
C1843 C1842 1.391 . S
H1844 C1852 0.961 . S
H1845 C1857 0.950 . S
H1846 C1854 0.936 1_556 S
H1847 C1856 0.950 . S
H1848 C1858 0.950 . S
H1849 C1860 0.950 . S
H1850 C1862 0.950 1_556 S
H1851 C1863 0.950 1_556 S
C1852 H1844 0.961 . S
C1852 C1853 1.377 1_556 S
C1852 C1854 1.385 1_556 S
C1853 C1852 1.377 1_554 S
C1853 C1857 1.393 . S
C1854 H1846 0.936 1_554 S
C1854 C1852 1.385 1_554 S
C1854 C1855 1.418 . S
C1855 C1854 1.418 . S
C1855 C1856 1.398 . S
C1855 C1861 1.491 . S
C1856 H1847 0.950 . S
C1856 C1855 1.398 . S
C1856 C1857 1.391 . S
C1857 H1845 0.950 . S
C1857 C1853 1.393 . S
C1857 C1856 1.391 . S
C1858 H1848 0.950 . S
C1858 C1859 1.386 . S
C1858 C1860 1.391 . S
C1859 C1858 1.386 . S
C1859 C1863 1.393 . S
C1860 H1849 0.950 . S
C1860 C1858 1.391 . S
C1860 C1861 1.400 . S
C1861 C1855 1.491 . S
C1861 C1860 1.400 . S
C1861 C1862 1.398 . S
C1862 H1850 0.950 1_554 S
C1862 C1861 1.398 . S
C1862 C1863 1.391 . S
C1863 H1851 0.950 1_554 S
C1863 C1859 1.393 . S
C1863 C1862 1.391 . S
H1864 C1872 0.950 . S
H1865 C1877 0.950 . S
H1866 C1874 0.950 . S
H1867 C1876 0.950 . S
H1868 C1878 0.950 . S
H1869 C1880 0.950 . S
H1870 C1882 0.950 . S
H1871 C1883 0.950 . S
C1872 H1864 0.950 . S
C1872 C1873 1.386 . S
C1872 C1874 1.391 . S
C1873 C1872 1.386 . S
C1873 C1877 1.393 . S
C1874 H1866 0.950 . S
C1874 C1872 1.391 . S
C1874 C1875 1.400 . S
C1875 C1874 1.400 . S
C1875 C1876 1.398 . S
C1875 C1881 1.491 . S
C1876 H1867 0.950 . S
C1876 C1875 1.398 . S
C1876 C1877 1.391 . S
C1877 H1865 0.950 . S
C1877 C1873 1.393 . S
C1877 C1876 1.391 . S
C1878 H1868 0.950 . S
C1878 C1879 1.386 . S
C1878 C1880 1.391 . S
C1879 C1878 1.386 . S
C1879 C1883 1.393 . S
C1880 H1869 0.950 . S
C1880 C1878 1.391 . S
C1880 C1881 1.400 . S
C1881 C1875 1.491 . S
C1881 C1880 1.400 . S
C1881 C1882 1.398 . S
C1882 H1870 0.950 . S
C1882 C1881 1.398 . S
C1882 C1883 1.391 . S
C1883 H1871 0.950 . S
C1883 C1879 1.393 . S
C1883 C1882 1.391 . S
H1884 C1892 0.950 . S
H1885 C1897 0.950 . S
H1886 C1894 0.950 . S
H1887 C1896 0.950 . S
H1888 C1898 0.950 . S
H1889 C1900 0.950 . S
H1890 C1902 0.950 . S
H1891 C1903 0.950 . S
C1892 H1884 0.950 . S
C1892 C1893 1.386 . S
C1892 C1894 1.391 . S
C1893 C1892 1.386 . S
C1893 C1897 1.393 . S
C1894 H1886 0.950 . S
C1894 C1892 1.391 . S
C1894 C1895 1.400 . S
C1895 C1894 1.400 . S
C1895 C1896 1.398 . S
C1895 C1901 1.491 . S
C1896 H1887 0.950 . S
C1896 C1895 1.398 . S
C1896 C1897 1.391 . S
C1897 H1885 0.950 . S
C1897 C1893 1.393 . S
C1897 C1896 1.391 . S
C1898 H1888 0.950 . S
C1898 C1899 1.386 . S
C1898 C1900 1.391 . S
C1899 C1898 1.386 . S
C1899 C1903 1.393 . S
C1900 H1889 0.950 . S
C1900 C1898 1.391 . S
C1900 C1901 1.400 . S
C1901 C1895 1.491 . S
C1901 C1900 1.400 . S
C1901 C1902 1.398 . S
C1902 H1890 0.950 . S
C1902 C1901 1.398 . S
C1902 C1903 1.391 . S
C1903 H1891 0.950 . S
C1903 C1899 1.393 . S
C1903 C1902 1.391 . S
H1904 C1912 0.950 . S
H1905 C1917 0.950 . S
H1906 C1914 0.950 . S
H1907 C1916 0.950 . S
H1908 C1918 0.950 . S
H1909 C1920 0.950 . S
H1910 C1922 0.950 . S
H1911 C1923 0.950 . S
C1912 H1904 0.950 . S
C1912 C1913 1.386 . S
C1912 C1914 1.391 . S
C1913 C1912 1.386 . S
C1913 C1917 1.393 . S
C1914 H1906 0.950 . S
C1914 C1912 1.391 . S
C1914 C1915 1.400 . S
C1915 C1914 1.400 . S
C1915 C1916 1.398 . S
C1915 C1921 1.491 . S
C1916 H1907 0.950 . S
C1916 C1915 1.398 . S
C1916 C1917 1.391 . S
C1917 H1905 0.950 . S
C1917 C1913 1.393 . S
C1917 C1916 1.391 . S
C1918 H1908 0.950 . S
C1918 C1919 1.386 . S
C1918 C1920 1.391 . S
C1919 C1918 1.386 . S
C1919 C1923 1.393 . S
C1920 H1909 0.950 . S
C1920 C1918 1.391 . S
C1920 C1921 1.400 . S
C1921 C1915 1.491 . S
C1921 C1920 1.400 . S
C1921 C1922 1.398 . S
C1922 H1910 0.950 . S
C1922 C1921 1.398 . S
C1922 C1923 1.391 . S
C1923 H1911 0.950 . S
C1923 C1919 1.393 . S
C1923 C1922 1.391 . S
H1924 C1932 0.950 . S
H1925 C1937 0.950 . S
H1926 C1934 0.950 . S
H1927 C1936 0.950 . S
H1928 C1938 0.950 . S
H1929 C1940 0.950 . S
H1930 C1942 0.950 . S
H1931 C1943 0.950 . S
C1932 H1924 0.950 . S
C1932 C1933 1.386 . S
C1932 C1934 1.391 . S
C1933 C1932 1.386 . S
C1933 C1937 1.393 . S
C1934 H1926 0.950 . S
C1934 C1932 1.391 . S
C1934 C1935 1.400 . S
C1935 C1934 1.400 . S
C1935 C1936 1.398 . S
C1935 C1941 1.491 . S
C1936 H1927 0.950 . S
C1936 C1935 1.398 . S
C1936 C1937 1.391 . S
C1937 H1925 0.950 . S
C1937 C1933 1.393 . S
C1937 C1936 1.391 . S
C1938 H1928 0.950 . S
C1938 C1939 1.386 . S
C1938 C1940 1.391 . S
C1939 C1938 1.386 . S
C1939 C1943 1.393 . S
C1940 H1929 0.950 . S
C1940 C1938 1.391 . S
C1940 C1941 1.400 . S
C1941 C1935 1.491 . S
C1941 C1940 1.400 . S
C1941 C1942 1.398 . S
C1942 H1930 0.950 . S
C1942 C1941 1.398 . S
C1942 C1943 1.391 . S
C1943 H1931 0.950 . S
C1943 C1939 1.393 . S
C1943 C1942 1.391 . S
H1944 C1952 0.950 . S
H1945 C1957 0.950 . S
H1946 C1954 0.950 . S
H1947 C1956 0.950 . S
H1948 C1958 0.950 . S
H1949 C1960 0.950 . S
H1950 C1962 0.950 . S
H1951 C1963 0.950 . S
C1952 H1944 0.950 . S
C1952 C1953 1.386 . S
C1952 C1954 1.391 . S
C1953 C1952 1.386 . S
C1953 C1957 1.393 . S
C1954 H1946 0.950 . S
C1954 C1952 1.391 . S
C1954 C1955 1.400 . S
C1955 C1954 1.400 . S
C1955 C1956 1.398 . S
C1955 C1961 1.491 . S
C1956 H1947 0.950 . S
C1956 C1955 1.398 . S
C1956 C1957 1.391 . S
C1957 H1945 0.950 . S
C1957 C1953 1.393 . S
C1957 C1956 1.391 . S
C1958 H1948 0.950 . S
C1958 C1959 1.386 . S
C1958 C1960 1.391 . S
C1959 C1958 1.386 . S
C1959 C1963 1.393 . S
C1960 H1949 0.950 . S
C1960 C1958 1.391 . S
C1960 C1961 1.400 . S
C1961 C1955 1.491 . S
C1961 C1960 1.400 . S
C1961 C1962 1.398 . S
C1962 H1950 0.950 . S
C1962 C1961 1.398 . S
C1962 C1963 1.391 . S
C1963 H1951 0.950 . S
C1963 C1959 1.393 . S
C1963 C1962 1.391 . S
H1964 C1972 0.950 . S
H1965 C1977 0.950 . S
H1966 C1974 0.950 . S
H1967 C1976 0.950 . S
H1968 C1978 0.950 . S
H1969 C1980 0.950 . S
H1970 C1982 0.950 . S
H1971 C1983 0.950 . S
C1972 H1964 0.950 . S
C1972 C1973 1.386 . S
C1972 C1974 1.391 . S
C1973 C1972 1.386 . S
C1973 C1977 1.393 . S
C1974 H1966 0.950 . S
C1974 C1972 1.391 . S
C1974 C1975 1.400 . S
C1975 C1974 1.400 . S
C1975 C1976 1.398 . S
C1975 C1981 1.491 . S
C1976 H1967 0.950 . S
C1976 C1975 1.398 . S
C1976 C1977 1.391 . S
C1977 H1965 0.950 . S
C1977 C1973 1.393 . S
C1977 C1976 1.391 . S
C1978 H1968 0.950 . S
C1978 C1979 1.386 . S
C1978 C1980 1.391 . S
C1979 C1978 1.386 . S
C1979 C1983 1.393 . S
C1980 H1969 0.950 . S
C1980 C1978 1.391 . S
C1980 C1981 1.400 . S
C1981 C1975 1.491 . S
C1981 C1980 1.400 . S
C1981 C1982 1.398 . S
C1982 H1970 0.950 . S
C1982 C1981 1.398 . S
C1982 C1983 1.391 . S
C1983 H1971 0.950 . S
C1983 C1979 1.393 . S
C1983 C1982 1.391 . S
H1984 C1992 0.950 . S
H1985 C1997 0.950 . S
H1986 C1994 0.950 . S
H1987 C1996 0.950 . S
H1988 C1998 0.950 . S
H1989 C2000 0.950 . S
H1990 C2002 0.950 . S
H1991 C2003 0.950 . S
C1992 H1984 0.950 . S
C1992 C1993 1.386 . S
C1992 C1994 1.391 . S
C1993 C1992 1.386 . S
C1993 C1997 1.393 . S
C1994 H1986 0.950 . S
C1994 C1992 1.391 . S
C1994 C1995 1.400 . S
C1995 C1994 1.400 . S
C1995 C1996 1.398 . S
C1995 C2001 1.491 . S
C1996 H1987 0.950 . S
C1996 C1995 1.398 . S
C1996 C1997 1.391 . S
C1997 H1985 0.950 . S
C1997 C1993 1.393 . S
C1997 C1996 1.391 . S
C1998 H1988 0.950 . S
C1998 C1999 1.386 . S
C1998 C2000 1.391 . S
C1999 C1998 1.386 . S
C1999 C2003 1.393 . S
C2000 H1989 0.950 . S
C2000 C1998 1.391 . S
C2000 C2001 1.400 . S
C2001 C1995 1.491 . S
C2001 C2000 1.400 . S
C2001 C2002 1.398 . S
C2002 H1990 0.950 . S
C2002 C2001 1.398 . S
C2002 C2003 1.391 . S
C2003 H1991 0.950 . S
C2003 C1999 1.393 . S
C2003 C2002 1.391 . S
H2004 C2012 0.950 . S
H2005 C2017 0.950 . S
H2006 C2014 0.950 . S
H2007 C2016 0.950 . S
H2008 C2018 0.950 . S
H2009 C2020 0.950 . S
H2010 C2022 0.950 . S
H2011 C2023 0.950 . S
C2012 H2004 0.950 . S
C2012 C2013 1.386 . S
C2012 C2014 1.391 . S
C2013 C2012 1.386 . S
C2013 C2017 1.393 . S
C2014 H2006 0.950 . S
C2014 C2012 1.391 . S
C2014 C2015 1.400 . S
C2015 C2014 1.400 . S
C2015 C2016 1.398 . S
C2015 C2021 1.491 . S
C2016 H2007 0.950 . S
C2016 C2015 1.398 . S
C2016 C2017 1.391 . S
C2017 H2005 0.950 . S
C2017 C2013 1.393 . S
C2017 C2016 1.391 . S
C2018 H2008 0.950 . S
C2018 C2019 1.386 . S
C2018 C2020 1.391 . S
C2019 C2018 1.386 . S
C2019 C2023 1.393 . S
C2020 H2009 0.950 . S
C2020 C2018 1.391 . S
C2020 C2021 1.400 . S
C2021 C2015 1.491 . S
C2021 C2020 1.400 . S
C2021 C2022 1.398 . S
C2022 H2010 0.950 . S
C2022 C2021 1.398 . S
C2022 C2023 1.391 . S
C2023 H2011 0.950 . S
C2023 C2019 1.393 . S
C2023 C2022 1.391 . S
H2024 C2032 0.950 . S
H2025 C2037 0.950 . S
H2026 C2034 0.950 . S
H2027 C2036 0.950 . S
H2028 C2038 0.950 . S
H2029 C2040 0.950 . S
H2030 C2042 0.950 . S
H2031 C2043 0.950 . S
C2032 H2024 0.950 . S
C2032 C2033 1.386 . S
C2032 C2034 1.391 . S
C2033 C2032 1.386 . S
C2033 C2037 1.393 . S
C2034 H2026 0.950 . S
C2034 C2032 1.391 . S
C2034 C2035 1.400 . S
C2035 C2034 1.400 . S
C2035 C2036 1.398 . S
C2035 C2041 1.491 . S
C2036 H2027 0.950 . S
C2036 C2035 1.398 . S
C2036 C2037 1.391 . S
C2037 H2025 0.950 . S
C2037 C2033 1.393 . S
C2037 C2036 1.391 . S
C2038 H2028 0.950 . S
C2038 C2039 1.386 . S
C2038 C2040 1.391 . S
C2039 C2038 1.386 . S
C2039 C2043 1.393 . S
C2040 H2029 0.950 . S
C2040 C2038 1.391 . S
C2040 C2041 1.400 . S
C2041 C2035 1.491 . S
C2041 C2040 1.400 . S
C2041 C2042 1.398 . S
C2042 H2030 0.950 . S
C2042 C2041 1.398 . S
C2042 C2043 1.391 . S
C2043 H2031 0.950 . S
C2043 C2039 1.393 . S
C2043 C2042 1.391 . S
H2044 C2052 0.950 . S
H2045 C2057 0.950 . S
H2046 C2054 0.950 . S
H2047 C2056 0.950 . S
H2048 C2058 0.950 . S
H2049 C2060 0.950 . S
H2050 C2062 0.950 . S
H2051 C2063 0.950 . S
C2052 H2044 0.950 . S
C2052 C2053 1.386 . S
C2052 C2054 1.391 . S
C2053 C2052 1.386 . S
C2053 C2057 1.393 . S
C2054 H2046 0.950 . S
C2054 C2052 1.391 . S
C2054 C2055 1.400 . S
C2055 C2054 1.400 . S
C2055 C2056 1.398 . S
C2055 C2061 1.491 . S
C2056 H2047 0.950 . S
C2056 C2055 1.398 . S
C2056 C2057 1.391 . S
C2057 H2045 0.950 . S
C2057 C2053 1.393 . S
C2057 C2056 1.391 . S
C2058 H2048 0.950 . S
C2058 C2059 1.386 . S
C2058 C2060 1.391 . S
C2059 C2058 1.386 . S
C2059 C2063 1.393 . S
C2060 H2049 0.950 . S
C2060 C2058 1.391 . S
C2060 C2061 1.400 . S
C2061 C2055 1.491 . S
C2061 C2060 1.400 . S
C2061 C2062 1.398 . S
C2062 H2050 0.950 . S
C2062 C2061 1.398 . S
C2062 C2063 1.391 . S
C2063 H2051 0.950 . S
C2063 C2059 1.393 . S
C2063 C2062 1.391 . S
H2064 C2072 0.950 . S
H2065 C2077 0.950 . S
H2066 C2074 0.950 . S
H2067 C2076 0.950 . S
H2068 C2078 0.950 . S
H2069 C2080 0.950 . S
H2070 C2082 0.950 . S
H2071 C2083 0.950 . S
C2072 H2064 0.950 . S
C2072 C2073 1.386 . S
C2072 C2074 1.391 . S
C2073 C2072 1.386 . S
C2073 C2077 1.393 . S
C2074 H2066 0.950 . S
C2074 C2072 1.391 . S
C2074 C2075 1.400 . S
C2075 C2074 1.400 . S
C2075 C2076 1.398 . S
C2075 C2081 1.491 . S
C2076 H2067 0.950 . S
C2076 C2075 1.398 . S
C2076 C2077 1.391 . S
C2077 H2065 0.950 . S
C2077 C2073 1.393 . S
C2077 C2076 1.391 . S
C2078 H2068 0.950 . S
C2078 C2079 1.386 . S
C2078 C2080 1.391 . S
C2079 C2078 1.386 . S
C2079 C2083 1.393 . S
C2080 H2069 0.950 . S
C2080 C2078 1.391 . S
C2080 C2081 1.400 . S
C2081 C2075 1.491 . S
C2081 C2080 1.400 . S
C2081 C2082 1.398 . S
C2082 H2070 0.950 . S
C2082 C2081 1.398 . S
C2082 C2083 1.391 . S
C2083 H2071 0.950 . S
C2083 C2079 1.393 . S
C2083 C2082 1.391 . S
H2084 C2092 0.950 . S
H2085 C2097 0.950 . S
H2086 C2094 0.950 . S
H2087 C2096 0.950 . S
H2088 C2098 0.950 . S
H2089 C2100 0.950 . S
H2090 C2102 0.950 . S
H2091 C2103 0.950 . S
C2092 H2084 0.950 . S
C2092 C2093 1.386 . S
C2092 C2094 1.391 . S
C2093 C2092 1.386 . S
C2093 C2097 1.393 . S
C2094 H2086 0.950 . S
C2094 C2092 1.391 . S
C2094 C2095 1.400 . S
C2095 C2094 1.400 . S
C2095 C2096 1.398 . S
C2095 C2101 1.491 . S
C2096 H2087 0.950 . S
C2096 C2095 1.398 . S
C2096 C2097 1.391 . S
C2097 H2085 0.950 . S
C2097 C2093 1.393 . S
C2097 C2096 1.391 . S
C2098 H2088 0.950 . S
C2098 C2099 1.386 . S
C2098 C2100 1.391 . S
C2099 C2098 1.386 . S
C2099 C2103 1.393 . S
C2100 H2089 0.950 . S
C2100 C2098 1.391 . S
C2100 C2101 1.400 . S
C2101 C2095 1.491 . S
C2101 C2100 1.400 . S
C2101 C2102 1.398 . S
C2102 H2090 0.950 . S
C2102 C2101 1.398 . S
C2102 C2103 1.391 . S
C2103 H2091 0.950 . S
C2103 C2099 1.393 . S
C2103 C2102 1.391 . S
H2104 C2112 0.950 . S
H2105 C2117 0.950 . S
H2106 C2114 0.950 . S
H2107 C2116 0.950 . S
H2108 C2118 0.950 . S
H2109 C2120 0.950 . S
H2110 C2122 0.950 . S
H2111 C2123 0.950 1_554 S
C2112 H2104 0.950 . S
C2112 C2113 1.386 . S
C2112 C2114 1.391 . S
C2113 C2112 1.386 . S
C2113 C2117 1.393 . S
C2114 H2106 0.950 . S
C2114 C2112 1.391 . S
C2114 C2115 1.400 . S
C2115 C2114 1.400 . S
C2115 C2116 1.398 . S
C2115 C2121 1.491 . S
C2116 H2107 0.950 . S
C2116 C2115 1.398 . S
C2116 C2117 1.391 . S
C2117 H2105 0.950 . S
C2117 C2113 1.393 . S
C2117 C2116 1.391 . S
C2118 H2108 0.950 . S
C2118 C2119 1.386 . S
C2118 C2120 1.391 . S
C2119 C2118 1.386 . S
C2119 C2123 1.393 . S
C2120 H2109 0.950 . S
C2120 C2118 1.391 . S
C2120 C2121 1.400 . S
C2121 C2115 1.491 . S
C2121 C2120 1.400 . S
C2121 C2122 1.398 . S
C2122 H2110 0.950 . S
C2122 C2121 1.398 . S
C2122 C2123 1.391 . S
C2123 H2111 0.950 1_556 S
C2123 C2119 1.393 . S
C2123 C2122 1.391 . S
H2124 C2132 0.950 . S
H2125 C2137 0.950 . S
H2126 C2134 0.950 . S
H2127 C2136 0.950 . S
H2128 C2138 0.950 . S
H2129 C2140 0.950 . S
H2130 C2142 0.950 . S
H2131 C2143 0.950 . S
C2132 H2124 0.950 . S
C2132 C2133 1.386 . S
C2132 C2134 1.391 . S
C2133 C2132 1.386 . S
C2133 C2137 1.393 . S
C2134 H2126 0.950 . S
C2134 C2132 1.391 . S
C2134 C2135 1.400 . S
C2135 C2134 1.400 . S
C2135 C2136 1.398 . S
C2135 C2141 1.491 . S
C2136 H2127 0.950 . S
C2136 C2135 1.398 . S
C2136 C2137 1.391 . S
C2137 H2125 0.950 . S
C2137 C2133 1.393 . S
C2137 C2136 1.391 . S
C2138 H2128 0.950 . S
C2138 C2139 1.386 . S
C2138 C2140 1.391 . S
C2139 C2138 1.386 . S
C2139 C2143 1.393 . S
C2140 H2129 0.950 . S
C2140 C2138 1.391 . S
C2140 C2141 1.400 . S
C2141 C2135 1.491 . S
C2141 C2140 1.400 . S
C2141 C2142 1.398 . S
C2142 H2130 0.950 . S
C2142 C2141 1.398 . S
C2142 C2143 1.391 . S
C2143 H2131 0.950 . S
C2143 C2139 1.393 . S
C2143 C2142 1.391 . S
H2144 C2152 0.950 . S
H2145 C2157 0.950 . S
H2146 C2154 0.950 . S
H2147 C2156 0.950 . S
H2148 C2158 0.950 . S
H2149 C2160 0.950 . S
H2150 C2162 0.950 . S
H2151 C2163 0.950 . S
C2152 H2144 0.950 . S
C2152 C2153 1.386 . S
C2152 C2154 1.391 . S
C2153 C2152 1.386 . S
C2153 C2157 1.393 . S
C2154 H2146 0.950 . S
C2154 C2152 1.391 . S
C2154 C2155 1.400 . S
C2155 C2154 1.400 . S
C2155 C2156 1.398 . S
C2155 C2161 1.491 . S
C2156 H2147 0.950 . S
C2156 C2155 1.398 . S
C2156 C2157 1.391 . S
C2157 H2145 0.950 . S
C2157 C2153 1.393 . S
C2157 C2156 1.391 . S
C2158 H2148 0.950 . S
C2158 C2159 1.386 . S
C2158 C2160 1.391 . S
C2159 C2158 1.386 . S
C2159 C2163 1.393 . S
C2160 H2149 0.950 . S
C2160 C2158 1.391 . S
C2160 C2161 1.400 . S
C2161 C2155 1.491 . S
C2161 C2160 1.400 . S
C2161 C2162 1.398 . S
C2162 H2150 0.950 . S
C2162 C2161 1.398 . S
C2162 C2163 1.391 . S
C2163 H2151 0.950 . S
C2163 C2159 1.393 . S
C2163 C2162 1.391 . S
H2164 C2172 0.950 . S
H2165 C2177 0.950 . S
H2166 C2174 0.950 . S
H2167 C2176 0.950 . S
H2168 C2178 0.950 . S
H2169 C2180 0.950 . S
H2170 C2182 0.950 . S
H2171 C2183 0.950 . S
C2172 H2164 0.950 . S
C2172 C2173 1.386 . S
C2172 C2174 1.391 . S
C2173 C2172 1.386 . S
C2173 C2177 1.393 . S
C2174 H2166 0.950 . S
C2174 C2172 1.391 . S
C2174 C2175 1.400 . S
C2175 C2174 1.400 . S
C2175 C2176 1.398 . S
C2175 C2181 1.491 . S
C2176 H2167 0.950 . S
C2176 C2175 1.398 . S
C2176 C2177 1.391 . S
C2177 H2165 0.950 . S
C2177 C2173 1.393 . S
C2177 C2176 1.391 . S
C2178 H2168 0.950 . S
C2178 C2179 1.386 . S
C2178 C2180 1.391 . S
C2179 C2178 1.386 . S
C2179 C2183 1.393 . S
C2180 H2169 0.950 . S
C2180 C2178 1.391 . S
C2180 C2181 1.400 . S
C2181 C2175 1.491 . S
C2181 C2180 1.400 . S
C2181 C2182 1.398 . S
C2182 H2170 0.950 . S
C2182 C2181 1.398 . S
C2182 C2183 1.391 . S
C2183 H2171 0.950 . S
C2183 C2179 1.393 . S
C2183 C2182 1.391 . S
H2184 C2192 0.950 . S
H2185 C2197 0.950 . S
H2186 C2194 0.950 . S
H2187 C2196 0.950 . S
H2188 C2198 0.950 . S
H2189 C2200 0.950 . S
H2190 C2202 0.950 . S
H2191 C2203 0.950 . S
C2192 H2184 0.950 . S
C2192 C2193 1.386 . S
C2192 C2194 1.391 . S
C2193 C2192 1.386 . S
C2193 C2197 1.393 . S
C2194 H2186 0.950 . S
C2194 C2192 1.391 . S
C2194 C2195 1.400 . S
C2195 C2194 1.400 . S
C2195 C2196 1.398 . S
C2195 C2201 1.491 . S
C2196 H2187 0.950 . S
C2196 C2195 1.398 . S
C2196 C2197 1.391 . S
C2197 H2185 0.950 . S
C2197 C2193 1.393 . S
C2197 C2196 1.391 . S
C2198 H2188 0.950 . S
C2198 C2199 1.386 . S
C2198 C2200 1.391 . S
C2199 C2198 1.386 . S
C2199 C2203 1.393 . S
C2200 H2189 0.950 . S
C2200 C2198 1.391 . S
C2200 C2201 1.400 . S
C2201 C2195 1.491 . S
C2201 C2200 1.400 . S
C2201 C2202 1.398 . S
C2202 H2190 0.950 . S
C2202 C2201 1.398 . S
C2202 C2203 1.391 . S
C2203 H2191 0.950 . S
C2203 C2199 1.393 . S
C2203 C2202 1.391 . S
H2204 C2212 0.950 . S
H2205 C2217 0.950 . S
H2206 C2214 0.950 . S
H2207 C2216 0.950 . S
H2208 C2218 0.950 . S
H2209 C2220 0.950 . S
H2210 C2222 0.950 . S
H2211 C2223 0.950 . S
C2212 H2204 0.950 . S
C2212 C2213 1.386 . S
C2212 C2214 1.391 . S
C2213 C2212 1.386 . S
C2213 C2217 1.393 . S
C2214 H2206 0.950 . S
C2214 C2212 1.391 . S
C2214 C2215 1.400 . S
C2215 C2214 1.400 . S
C2215 C2216 1.398 . S
C2215 C2221 1.491 . S
C2216 H2207 0.950 . S
C2216 C2215 1.398 . S
C2216 C2217 1.391 . S
C2217 H2205 0.950 . S
C2217 C2213 1.393 . S
C2217 C2216 1.391 . S
C2218 H2208 0.950 . S
C2218 C2219 1.386 . S
C2218 C2220 1.391 . S
C2219 C2218 1.386 . S
C2219 C2223 1.393 . S
C2220 H2209 0.950 . S
C2220 C2218 1.391 . S
C2220 C2221 1.400 . S
C2221 C2215 1.491 . S
C2221 C2220 1.400 . S
C2221 C2222 1.398 . S
C2222 H2210 0.950 . S
C2222 C2221 1.398 . S
C2222 C2223 1.391 . S
C2223 H2211 0.950 . S
C2223 C2219 1.393 . S
C2223 C2222 1.391 . S
H2224 C2232 0.950 . S
H2225 C2237 0.950 . S
H2226 C2234 0.950 . S
H2227 C2236 0.950 . S
H2228 C2238 0.950 . S
H2229 C2240 0.950 . S
H2230 C2242 0.950 . S
H2231 C2243 0.950 . S
C2232 H2224 0.950 . S
C2232 C2233 1.386 . S
C2232 C2234 1.391 . S
C2233 C2232 1.386 . S
C2233 C2237 1.393 . S
C2234 H2226 0.950 . S
C2234 C2232 1.391 . S
C2234 C2235 1.400 . S
C2235 C2234 1.400 . S
C2235 C2236 1.398 . S
C2235 C2241 1.491 . S
C2236 H2227 0.950 . S
C2236 C2235 1.398 . S
C2236 C2237 1.391 . S
C2237 H2225 0.950 . S
C2237 C2233 1.393 . S
C2237 C2236 1.391 . S
C2238 H2228 0.950 . S
C2238 C2239 1.386 . S
C2238 C2240 1.391 . S
C2239 C2238 1.386 . S
C2239 C2243 1.393 . S
C2240 H2229 0.950 . S
C2240 C2238 1.391 . S
C2240 C2241 1.400 . S
C2241 C2235 1.491 . S
C2241 C2240 1.400 . S
C2241 C2242 1.398 . S
C2242 H2230 0.950 . S
C2242 C2241 1.398 . S
C2242 C2243 1.391 . S
C2243 H2231 0.950 . S
C2243 C2239 1.393 . S
C2243 C2242 1.391 . S
H2244 C2252 0.950 . S
H2245 C2257 0.950 . S
H2246 C2254 0.950 . S
H2247 C2256 0.950 . S
H2248 C2258 0.950 . S
H2249 C2260 0.950 . S
H2250 C2262 0.950 . S
H2251 C2263 0.950 . S
C2252 H2244 0.950 . S
C2252 C2253 1.386 . S
C2252 C2254 1.391 . S
C2253 C2252 1.386 . S
C2253 C2257 1.393 . S
C2254 H2246 0.950 . S
C2254 C2252 1.391 . S
C2254 C2255 1.400 . S
C2255 C2254 1.400 . S
C2255 C2256 1.398 . S
C2255 C2261 1.491 . S
C2256 H2247 0.950 . S
C2256 C2255 1.398 . S
C2256 C2257 1.391 . S
C2257 H2245 0.950 . S
C2257 C2253 1.393 . S
C2257 C2256 1.391 . S
C2258 H2248 0.950 . S
C2258 C2259 1.386 . S
C2258 C2260 1.391 . S
C2259 C2258 1.386 . S
C2259 C2263 1.393 . S
C2260 H2249 0.950 . S
C2260 C2258 1.391 . S
C2260 C2261 1.400 . S
C2261 C2255 1.491 . S
C2261 C2260 1.400 . S
C2261 C2262 1.398 . S
C2262 H2250 0.950 . S
C2262 C2261 1.398 . S
C2262 C2263 1.391 . S
C2263 H2251 0.950 . S
C2263 C2259 1.393 . S
C2263 C2262 1.391 . S
H2264 C2272 0.950 . S
H2265 C2277 0.950 . S
H2266 C2274 0.950 . S
H2267 C2276 0.950 . S
H2268 C2278 0.950 . S
H2269 C2280 0.950 . S
H2270 C2282 0.950 . S
H2271 C2283 0.950 . S
C2272 H2264 0.950 . S
C2272 C2273 1.386 . S
C2272 C2274 1.391 . S
C2273 C2272 1.386 . S
C2273 C2277 1.393 . S
C2274 H2266 0.950 . S
C2274 C2272 1.391 . S
C2274 C2275 1.400 . S
C2275 C2274 1.400 . S
C2275 C2276 1.398 . S
C2275 C2281 1.491 . S
C2276 H2267 0.950 . S
C2276 C2275 1.398 . S
C2276 C2277 1.391 . S
C2277 H2265 0.950 . S
C2277 C2273 1.393 . S
C2277 C2276 1.391 . S
C2278 H2268 0.950 . S
C2278 C2279 1.386 . S
C2278 C2280 1.391 . S
C2279 C2278 1.386 . S
C2279 C2283 1.393 . S
C2280 H2269 0.950 . S
C2280 C2278 1.391 . S
C2280 C2281 1.400 . S
C2281 C2275 1.491 . S
C2281 C2280 1.400 . S
C2281 C2282 1.398 . S
C2282 H2270 0.950 . S
C2282 C2281 1.398 . S
C2282 C2283 1.391 . S
C2283 H2271 0.950 . S
C2283 C2279 1.393 . S
C2283 C2282 1.391 . S
H2284 C2292 0.950 . S
H2285 C2297 0.950 . S
H2286 C2294 0.950 . S
H2287 C2296 0.950 . S
H2288 C2298 0.950 . S
H2289 C2300 0.950 . S
H2290 C2302 0.950 . S
H2291 C2303 0.950 . S
C2292 H2284 0.950 . S
C2292 C2293 1.386 . S
C2292 C2294 1.391 . S
C2293 C2292 1.386 . S
C2293 C2297 1.393 . S
C2294 H2286 0.950 . S
C2294 C2292 1.391 . S
C2294 C2295 1.400 . S
C2295 C2294 1.400 . S
C2295 C2296 1.398 . S
C2295 C2301 1.491 . S
C2296 H2287 0.950 . S
C2296 C2295 1.398 . S
C2296 C2297 1.391 . S
C2297 H2285 0.950 . S
C2297 C2293 1.393 . S
C2297 C2296 1.391 . S
C2298 H2288 0.950 . S
C2298 C2299 1.386 . S
C2298 C2300 1.391 . S
C2299 C2298 1.386 . S
C2299 C2303 1.393 . S
C2300 H2289 0.950 . S
C2300 C2298 1.391 . S
C2300 C2301 1.400 . S
C2301 C2295 1.491 . S
C2301 C2300 1.400 . S
C2301 C2302 1.398 . S
C2302 H2290 0.950 . S
C2302 C2301 1.398 . S
C2302 C2303 1.391 . S
C2303 H2291 0.950 . S
C2303 C2299 1.393 . S
C2303 C2302 1.391 . S
H2304 C2312 0.950 . S
H2305 C2317 0.950 . S
H2306 C2314 0.950 . S
H2307 C2316 0.950 . S
H2308 C2318 0.950 . S
H2309 C2320 0.950 1_554 S
H2310 C2322 0.950 . S
H2311 C2323 0.950 . S
C2312 H2304 0.950 . S
C2312 C2313 1.386 . S
C2312 C2314 1.391 . S
C2313 C2312 1.386 . S
C2313 C2317 1.393 1_556 S
C2314 H2306 0.950 . S
C2314 C2312 1.391 . S
C2314 C2315 1.400 . S
C2315 C2314 1.400 . S
C2315 C2316 1.398 1_556 S
C2315 C2321 1.491 . S
C2316 H2307 0.950 . S
C2316 C2315 1.398 1_554 S
C2316 C2317 1.391 . S
C2317 H2305 0.950 . S
C2317 C2313 1.393 1_554 S
C2317 C2316 1.391 . S
C2318 H2308 0.950 . S
C2318 C2319 1.386 . S
C2318 C2320 1.391 . S
C2319 C2318 1.386 . S
C2319 C2323 1.393 . S
C2320 H2309 0.950 1_556 S
C2320 C2318 1.391 . S
C2320 C2321 1.400 . S
C2321 C2315 1.491 . S
C2321 C2320 1.400 . S
C2321 C2322 1.398 . S
C2322 H2310 0.950 . S
C2322 C2321 1.398 . S
C2322 C2323 1.391 . S
C2323 H2311 0.950 . S
C2323 C2319 1.393 . S
C2323 C2322 1.391 . S
H2324 C2332 0.950 . S
H2325 C2337 0.950 1_556 S
H2326 C2334 0.950 . S
H2327 C2336 0.950 1_556 S
H2328 C2338 0.950 1_556 S
H2329 C2340 0.950 1_556 S
H2330 C2342 0.950 . S
H2331 C2343 0.950 . S
C2332 H2324 0.950 . S
C2332 C2333 1.386 . S
C2332 C2334 1.391 . S
C2333 C2332 1.386 . S
C2333 C2337 1.393 . S
C2334 H2326 0.950 . S
C2334 C2332 1.391 . S
C2334 C2335 1.400 . S
C2335 C2334 1.400 . S
C2335 C2336 1.398 . S
C2335 C2341 1.491 . S
C2336 H2327 0.950 1_554 S
C2336 C2335 1.398 . S
C2336 C2337 1.391 . S
C2337 H2325 0.950 1_554 S
C2337 C2333 1.393 . S
C2337 C2336 1.391 . S
C2338 H2328 0.950 1_554 S
C2338 C2339 1.386 . S
C2338 C2340 1.391 . S
C2339 C2338 1.386 . S
C2339 C2343 1.393 . S
C2340 H2329 0.950 1_554 S
C2340 C2338 1.391 . S
C2340 C2341 1.400 . S
C2341 C2335 1.491 . S
C2341 C2340 1.400 . S
C2341 C2342 1.398 . S
C2342 H2330 0.950 . S
C2342 C2341 1.398 . S
C2342 C2343 1.391 . S
C2343 H2331 0.950 . S
C2343 C2339 1.393 . S
C2343 C2342 1.391 . S
H2344 C2352 0.950 . S
H2345 C2357 0.950 . S
H2346 C2354 0.950 . S
H2347 C2356 0.950 . S
H2348 C2358 0.950 . S
H2349 C2360 0.950 . S
H2350 C2362 0.950 . S
H2351 C2363 0.950 . S
C2352 H2344 0.950 . S
C2352 C2353 1.386 . S
C2352 C2354 1.391 . S
C2353 C2352 1.386 . S
C2353 C2357 1.393 . S
C2354 H2346 0.950 . S
C2354 C2352 1.391 . S
C2354 C2355 1.400 . S
C2355 C2354 1.400 . S
C2355 C2356 1.398 . S
C2355 C2361 1.491 . S
C2356 H2347 0.950 . S
C2356 C2355 1.398 . S
C2356 C2357 1.391 . S
C2357 H2345 0.950 . S
C2357 C2353 1.393 . S
C2357 C2356 1.391 . S
C2358 H2348 0.950 . S
C2358 C2359 1.386 . S
C2358 C2360 1.391 . S
C2359 C2358 1.386 . S
C2359 C2363 1.393 . S
C2360 H2349 0.950 . S
C2360 C2358 1.391 . S
C2360 C2361 1.400 . S
C2361 C2355 1.491 . S
C2361 C2360 1.400 . S
C2361 C2362 1.398 . S
C2362 H2350 0.950 . S
C2362 C2361 1.398 . S
C2362 C2363 1.391 . S
C2363 H2351 0.950 . S
C2363 C2359 1.393 . S
C2363 C2362 1.391 . S
H2364 C2372 0.950 . S
H2365 C2377 0.950 . S
H2366 C2374 0.950 . S
H2367 C2376 0.950 . S
H2368 C2378 0.950 . S
H2369 C2380 0.950 . S
H2370 C2382 0.950 . S
H2371 C2383 0.950 . S
C2372 H2364 0.950 . S
C2372 C2373 1.386 . S
C2372 C2374 1.391 . S
C2373 C2372 1.386 . S
C2373 C2377 1.393 . S
C2374 H2366 0.950 . S
C2374 C2372 1.391 . S
C2374 C2375 1.400 . S
C2375 C2374 1.400 . S
C2375 C2376 1.398 . S
C2375 C2381 1.491 . S
C2376 H2367 0.950 . S
C2376 C2375 1.398 . S
C2376 C2377 1.391 . S
C2377 H2365 0.950 . S
C2377 C2373 1.393 . S
C2377 C2376 1.391 . S
C2378 H2368 0.950 . S
C2378 C2379 1.386 . S
C2378 C2380 1.391 . S
C2379 C2378 1.386 . S
C2379 C2383 1.393 . S
C2380 H2369 0.950 . S
C2380 C2378 1.391 . S
C2380 C2381 1.400 . S
C2381 C2375 1.491 . S
C2381 C2380 1.400 . S
C2381 C2382 1.398 . S
C2382 H2370 0.950 . S
C2382 C2381 1.398 . S
C2382 C2383 1.391 . S
C2383 H2371 0.950 . S
C2383 C2379 1.393 . S
C2383 C2382 1.391 . S
H2384 C2392 0.950 . S
H2385 C2397 0.950 . S
H2386 C2394 0.950 . S
H2387 C2396 0.950 . S
H2388 C2398 0.950 . S
H2389 C2400 0.950 . S
H2390 C2402 0.950 . S
H2391 C2403 0.950 . S
C2392 H2384 0.950 . S
C2392 C2393 1.386 . S
C2392 C2394 1.391 . S
C2393 C2392 1.386 . S
C2393 C2397 1.393 . S
C2394 H2386 0.950 . S
C2394 C2392 1.391 . S
C2394 C2395 1.400 . S
C2395 C2394 1.400 . S
C2395 C2396 1.398 . S
C2395 C2401 1.491 . S
C2396 H2387 0.950 . S
C2396 C2395 1.398 . S
C2396 C2397 1.391 . S
C2397 H2385 0.950 . S
C2397 C2393 1.393 . S
C2397 C2396 1.391 . S
C2398 H2388 0.950 . S
C2398 C2399 1.386 . S
C2398 C2400 1.391 . S
C2399 C2398 1.386 . S
C2399 C2403 1.393 . S
C2400 H2389 0.950 . S
C2400 C2398 1.391 . S
C2400 C2401 1.400 . S
C2401 C2395 1.491 . S
C2401 C2400 1.400 . S
C2401 C2402 1.398 . S
C2402 H2390 0.950 . S
C2402 C2401 1.398 . S
C2402 C2403 1.391 . S
C2403 H2391 0.950 . S
C2403 C2399 1.393 . S
C2403 C2402 1.391 . S
H2404 C2412 0.950 . S
H2405 C2417 0.950 . S
H2406 C2414 0.950 . S
H2407 C2416 0.950 . S
H2408 C2418 0.950 . S
H2409 C2420 0.950 . S
H2410 C2422 0.950 . S
H2411 C2423 0.919 1_545 S
C2412 H2404 0.950 . S
C2412 C2413 1.386 . S
C2412 C2414 1.391 . S
C2413 C2412 1.386 . S
C2413 C2417 1.393 . S
C2414 H2406 0.950 . S
C2414 C2412 1.391 . S
C2414 C2415 1.400 . S
C2415 C2414 1.400 . S
C2415 C2416 1.398 . S
C2415 C2421 1.491 . S
C2416 H2407 0.950 . S
C2416 C2415 1.398 . S
C2416 C2417 1.391 . S
C2417 H2405 0.950 . S
C2417 C2413 1.393 . S
C2417 C2416 1.391 . S
C2418 H2408 0.950 . S
C2418 C2419 1.386 . S
C2418 C2420 1.391 . S
C2419 C2418 1.386 . S
C2419 C2423 1.391 . S
C2420 H2409 0.950 . S
C2420 C2418 1.391 . S
C2420 C2421 1.400 . S
C2421 C2415 1.491 . S
C2421 C2420 1.400 . S
C2421 C2422 1.398 . S
C2422 H2410 0.950 . S
C2422 C2421 1.398 . S
C2422 C2423 1.426 . S
C2423 H2411 0.919 1_565 S
C2423 C2419 1.391 . S
C2423 C2422 1.426 . S
H2424 C2432 0.950 . S
H2425 C2437 0.950 . S
H2426 C2434 0.950 . S
H2427 C2436 0.950 . S
H2428 C2438 0.950 . S
H2429 C2440 0.950 . S
H2430 C2442 0.950 . S
H2431 C2443 0.950 . S
C2432 H2424 0.950 . S
C2432 C2433 1.386 . S
C2432 C2434 1.391 . S
C2433 C2432 1.386 . S
C2433 C2437 1.393 . S
C2434 H2426 0.950 . S
C2434 C2432 1.391 . S
C2434 C2435 1.400 . S
C2435 C2434 1.400 . S
C2435 C2436 1.398 . S
C2435 C2441 1.491 . S
C2436 H2427 0.950 . S
C2436 C2435 1.398 . S
C2436 C2437 1.391 . S
C2437 H2425 0.950 . S
C2437 C2433 1.393 . S
C2437 C2436 1.391 . S
C2438 H2428 0.950 . S
C2438 C2439 1.386 . S
C2438 C2440 1.391 . S
C2439 C2438 1.386 . S
C2439 C2443 1.393 . S
C2440 H2429 0.950 . S
C2440 C2438 1.391 . S
C2440 C2441 1.400 . S
C2441 C2435 1.491 . S
C2441 C2440 1.400 . S
C2441 C2442 1.398 . S
C2442 H2430 0.950 . S
C2442 C2441 1.398 . S
C2442 C2443 1.391 . S
C2443 H2431 0.950 . S
C2443 C2439 1.393 . S
C2443 C2442 1.391 . S
H2444 C2452 0.950 . S
H2445 C2457 0.950 . S
H2446 C2454 0.950 . S
H2447 C2456 0.950 . S
H2448 C2458 0.950 . S
H2449 C2460 0.950 . S
H2450 C2462 0.950 . S
H2451 C2463 0.950 . S
C2452 H2444 0.950 . S
C2452 C2453 1.386 . S
C2452 C2454 1.391 . S
C2453 C2452 1.386 . S
C2453 C2457 1.393 . S
C2454 H2446 0.950 . S
C2454 C2452 1.391 . S
C2454 C2455 1.400 . S
C2455 C2454 1.400 . S
C2455 C2456 1.398 . S
C2455 C2461 1.491 . S
C2456 H2447 0.950 . S
C2456 C2455 1.398 . S
C2456 C2457 1.391 . S
C2457 H2445 0.950 . S
C2457 C2453 1.393 . S
C2457 C2456 1.391 . S
C2458 H2448 0.950 . S
C2458 C2459 1.386 . S
C2458 C2460 1.391 . S
C2459 C2458 1.386 . S
C2459 C2463 1.393 . S
C2460 H2449 0.950 . S
C2460 C2458 1.391 . S
C2460 C2461 1.400 . S
C2461 C2455 1.491 . S
C2461 C2460 1.400 . S
C2461 C2462 1.398 . S
C2462 H2450 0.950 . S
C2462 C2461 1.398 . S
C2462 C2463 1.391 . S
C2463 H2451 0.950 . S
C2463 C2459 1.393 . S
C2463 C2462 1.391 . S
H2464 C2472 0.950 . S
H2465 C2477 0.950 . S
H2466 C2474 0.950 . S
H2467 C2476 0.950 . S
H2468 C2478 0.950 . S
H2469 C2480 0.950 . S
H2470 C2482 0.950 . S
H2471 C2483 0.950 . S
C2472 H2464 0.950 . S
C2472 C2473 1.386 . S
C2472 C2474 1.391 . S
C2473 C2472 1.386 . S
C2473 C2477 1.393 . S
C2474 H2466 0.950 . S
C2474 C2472 1.391 . S
C2474 C2475 1.400 . S
C2475 C2474 1.400 . S
C2475 C2476 1.398 . S
C2475 C2481 1.491 . S
C2476 H2467 0.950 . S
C2476 C2475 1.398 . S
C2476 C2477 1.391 . S
C2477 H2465 0.950 . S
C2477 C2473 1.393 . S
C2477 C2476 1.391 . S
C2478 H2468 0.950 . S
C2478 C2479 1.386 . S
C2478 C2480 1.391 . S
C2479 C2478 1.386 . S
C2479 C2483 1.393 . S
C2480 H2469 0.950 . S
C2480 C2478 1.391 . S
C2480 C2481 1.400 . S
C2481 C2475 1.491 . S
C2481 C2480 1.400 . S
C2481 C2482 1.398 . S
C2482 H2470 0.950 . S
C2482 C2481 1.398 . S
C2482 C2483 1.391 . S
C2483 H2471 0.950 . S
C2483 C2479 1.393 . S
C2483 C2482 1.391 . S
H2484 C2492 0.950 . S
H2485 C2497 0.950 . S
H2486 C2494 0.950 . S
H2487 C2496 0.950 . S
H2488 C2498 0.950 . S
H2489 C2500 0.950 . S
H2490 C2502 0.950 . S
H2491 C2503 0.950 . S
C2492 H2484 0.950 . S
C2492 C2493 1.386 . S
C2492 C2494 1.391 . S
C2493 C2492 1.386 . S
C2493 C2497 1.393 . S
C2494 H2486 0.950 . S
C2494 C2492 1.391 . S
C2494 C2495 1.400 . S
C2495 C2494 1.400 . S
C2495 C2496 1.398 . S
C2495 C2501 1.491 . S
C2496 H2487 0.950 . S
C2496 C2495 1.398 . S
C2496 C2497 1.391 . S
C2497 H2485 0.950 . S
C2497 C2493 1.393 . S
C2497 C2496 1.391 . S
C2498 H2488 0.950 . S
C2498 C2499 1.386 . S
C2498 C2500 1.391 . S
C2499 C2498 1.386 . S
C2499 C2503 1.393 . S
C2500 H2489 0.950 . S
C2500 C2498 1.391 . S
C2500 C2501 1.400 . S
C2501 C2495 1.491 . S
C2501 C2500 1.400 . S
C2501 C2502 1.398 . S
C2502 H2490 0.950 . S
C2502 C2501 1.398 . S
C2502 C2503 1.391 . S
C2503 H2491 0.950 . S
C2503 C2499 1.393 . S
C2503 C2502 1.391 . S
H2504 C2512 0.950 . S
H2505 C2517 0.950 . S
H2506 C2514 0.950 . S
H2507 C2516 0.950 . S
H2508 C2518 0.950 . S
H2509 C2520 0.950 . S
H2510 C2522 0.950 1_655 S
H2511 C2523 0.950 1_655 S
C2512 H2504 0.950 . S
C2512 C2513 1.386 1_655 S
C2512 C2514 1.391 . S
C2513 C2512 1.386 1_455 S
C2513 C2517 1.393 . S
C2514 H2506 0.950 . S
C2514 C2512 1.391 . S
C2514 C2515 1.400 1_655 S
C2515 C2514 1.400 1_455 S
C2515 C2516 1.398 . S
C2515 C2521 1.491 . S
C2516 H2507 0.950 . S
C2516 C2515 1.398 . S
C2516 C2517 1.391 . S
C2517 H2505 0.950 . S
C2517 C2513 1.393 . S
C2517 C2516 1.391 . S
C2518 H2508 0.950 . S
C2518 C2519 1.386 . S
C2518 C2520 1.391 . S
C2519 C2518 1.386 . S
C2519 C2523 1.393 . S
C2520 H2509 0.950 . S
C2520 C2518 1.391 . S
C2520 C2521 1.400 . S
C2521 C2515 1.491 . S
C2521 C2520 1.400 . S
C2521 C2522 1.398 . S
C2522 H2510 0.950 1_455 S
C2522 C2521 1.398 . S
C2522 C2523 1.391 . S
C2523 H2511 0.950 1_455 S
C2523 C2519 1.393 . S
C2523 C2522 1.391 . S
H2524 C2532 0.950 . S
H2525 C2537 0.950 . S
H2526 C2534 0.950 . S
H2527 C2536 0.950 1_655 S
H2528 C2538 0.950 . S
H2529 C2540 0.950 . S
H2530 C2542 0.950 . S
H2531 C2543 0.950 . S
C2532 H2524 0.950 . S
C2532 C2533 1.386 . S
C2532 C2534 1.391 . S
C2533 C2532 1.386 . S
C2533 C2537 1.393 . S
C2534 H2526 0.950 . S
C2534 C2532 1.391 . S
C2534 C2535 1.400 . S
C2535 C2534 1.400 . S
C2535 C2536 1.398 . S
C2535 C2541 1.491 1_455 S
C2536 H2527 0.950 1_455 S
C2536 C2535 1.398 . S
C2536 C2537 1.391 . S
C2537 H2525 0.950 . S
C2537 C2533 1.393 . S
C2537 C2536 1.391 . S
C2538 H2528 0.950 . S
C2538 C2539 1.386 . S
C2538 C2540 1.391 . S
C2539 C2538 1.386 . S
C2539 C2543 1.393 . S
C2540 H2529 0.950 . S
C2540 C2538 1.391 . S
C2540 C2541 1.400 . S
C2541 C2535 1.491 1_655 S
C2541 C2540 1.400 . S
C2541 C2542 1.398 . S
C2542 H2530 0.950 . S
C2542 C2541 1.398 . S
C2542 C2543 1.391 . S
C2543 H2531 0.950 . S
C2543 C2539 1.393 . S
C2543 C2542 1.391 . S
H2544 C2552 0.950 . S
H2545 C2557 0.950 . S
H2546 C2554 0.950 . S
H2547 C2556 0.950 . S
H2548 C2558 0.950 . S
H2549 C2560 0.950 . S
H2550 C2562 0.950 . S
H2551 C2563 0.950 . S
C2552 H2544 0.950 . S
C2552 C2553 1.386 . S
C2552 C2554 1.391 . S
C2553 C2552 1.386 . S
C2553 C2557 1.393 . S
C2554 H2546 0.950 . S
C2554 C2552 1.391 . S
C2554 C2555 1.400 . S
C2555 C2554 1.400 . S
C2555 C2556 1.398 . S
C2555 C2561 1.491 . S
C2556 H2547 0.950 . S
C2556 C2555 1.398 . S
C2556 C2557 1.391 . S
C2557 H2545 0.950 . S
C2557 C2553 1.393 . S
C2557 C2556 1.391 . S
C2558 H2548 0.950 . S
C2558 C2559 1.386 . S
C2558 C2560 1.391 . S
C2559 C2558 1.386 . S
C2559 C2563 1.393 . S
C2560 H2549 0.950 . S
C2560 C2558 1.391 . S
C2560 C2561 1.400 . S
C2561 C2555 1.491 . S
C2561 C2560 1.400 . S
C2561 C2562 1.398 . S
C2562 H2550 0.950 . S
C2562 C2561 1.398 . S
C2562 C2563 1.391 . S
C2563 H2551 0.950 . S
C2563 C2559 1.393 . S
C2563 C2562 1.391 . S
H2564 C2572 0.950 . S
H2565 C2577 0.950 . S
H2566 C2574 0.950 . S
H2567 C2576 0.950 . S
H2568 C2578 0.950 . S
H2569 C2580 0.950 . S
H2570 C2582 0.950 . S
H2571 C2583 0.950 . S
C2572 H2564 0.950 . S
C2572 C2573 1.386 . S
C2572 C2574 1.391 . S
C2573 C2572 1.386 . S
C2573 C2577 1.393 . S
C2574 H2566 0.950 . S
C2574 C2572 1.391 . S
C2574 C2575 1.400 . S
C2575 C2574 1.400 . S
C2575 C2576 1.398 . S
C2575 C2581 1.491 . S
C2576 H2567 0.950 . S
C2576 C2575 1.398 . S
C2576 C2577 1.391 . S
C2577 H2565 0.950 . S
C2577 C2573 1.393 . S
C2577 C2576 1.391 . S
C2578 H2568 0.950 . S
C2578 C2579 1.386 . S
C2578 C2580 1.391 . S
C2579 C2578 1.386 . S
C2579 C2583 1.393 . S
C2580 H2569 0.950 . S
C2580 C2578 1.391 . S
C2580 C2581 1.400 . S
C2581 C2575 1.491 . S
C2581 C2580 1.400 . S
C2581 C2582 1.398 . S
C2582 H2570 0.950 . S
C2582 C2581 1.398 . S
C2582 C2583 1.391 . S
C2583 H2571 0.950 . S
C2583 C2579 1.393 . S
C2583 C2582 1.391 . S
H2584 C2592 0.950 . S
H2585 C2597 0.950 . S
H2586 C2594 0.950 . S
H2587 C2596 0.950 . S
H2588 C2598 0.950 . S
H2589 C2600 0.950 . S
H2590 C2602 0.950 . S
H2591 C2603 0.950 . S
C2592 H2584 0.950 . S
C2592 C2593 1.386 . S
C2592 C2594 1.391 . S
C2593 C2592 1.386 . S
C2593 C2597 1.393 . S
C2594 H2586 0.950 . S
C2594 C2592 1.391 . S
C2594 C2595 1.400 . S
C2595 C2594 1.400 . S
C2595 C2596 1.398 . S
C2595 C2601 1.491 . S
C2596 H2587 0.950 . S
C2596 C2595 1.398 . S
C2596 C2597 1.391 . S
C2597 H2585 0.950 . S
C2597 C2593 1.393 . S
C2597 C2596 1.391 . S
C2598 H2588 0.950 . S
C2598 C2599 1.386 . S
C2598 C2600 1.391 . S
C2599 C2598 1.386 . S
C2599 C2603 1.393 . S
C2600 H2589 0.950 . S
C2600 C2598 1.391 . S
C2600 C2601 1.400 . S
C2601 C2595 1.491 . S
C2601 C2600 1.400 . S
C2601 C2602 1.398 . S
C2602 H2590 0.950 . S
C2602 C2601 1.398 . S
C2602 C2603 1.391 . S
C2603 H2591 0.950 . S
C2603 C2599 1.393 . S
C2603 C2602 1.391 . S
H2604 C2612 0.950 . S
H2605 C2617 0.950 . S
H2606 C2614 0.950 . S
H2607 C2616 0.950 . S
H2608 C2618 0.950 . S
H2609 C2620 0.950 . S
H2610 C2622 0.950 . S
H2611 C2623 0.950 . S
C2612 H2604 0.950 . S
C2612 C2613 1.386 . S
C2612 C2614 1.391 . S
C2613 C2612 1.386 . S
C2613 C2617 1.393 . S
C2614 H2606 0.950 . S
C2614 C2612 1.391 . S
C2614 C2615 1.400 . S
C2615 C2614 1.400 . S
C2615 C2616 1.398 . S
C2615 C2621 1.491 . S
C2616 H2607 0.950 . S
C2616 C2615 1.398 . S
C2616 C2617 1.391 . S
C2617 H2605 0.950 . S
C2617 C2613 1.393 . S
C2617 C2616 1.391 . S
C2618 H2608 0.950 . S
C2618 C2619 1.386 . S
C2618 C2620 1.391 . S
C2619 C2618 1.386 . S
C2619 C2623 1.393 . S
C2620 H2609 0.950 . S
C2620 C2618 1.391 . S
C2620 C2621 1.400 . S
C2621 C2615 1.491 . S
C2621 C2620 1.400 . S
C2621 C2622 1.398 . S
C2622 H2610 0.950 . S
C2622 C2621 1.398 . S
C2622 C2623 1.391 . S
C2623 H2611 0.950 . S
C2623 C2619 1.393 . S
C2623 C2622 1.391 . S
H2624 C2632 0.950 . S
H2625 C2637 0.950 . S
H2626 C2634 0.950 . S
H2627 C2636 0.950 . S
H2628 C2638 0.950 . S
H2629 C2640 0.950 . S
H2630 C2642 0.950 . S
H2631 C2643 0.950 . S
C2632 H2624 0.950 . S
C2632 C2633 1.386 . S
C2632 C2634 1.391 . S
C2633 C2632 1.386 . S
C2633 C2637 1.393 . S
C2634 H2626 0.950 . S
C2634 C2632 1.391 . S
C2634 C2635 1.400 . S
C2635 C2634 1.400 . S
C2635 C2636 1.398 . S
C2635 C2641 1.491 . S
C2636 H2627 0.950 . S
C2636 C2635 1.398 . S
C2636 C2637 1.391 . S
C2637 H2625 0.950 . S
C2637 C2633 1.393 . S
C2637 C2636 1.391 . S
C2638 H2628 0.950 . S
C2638 C2639 1.386 . S
C2638 C2640 1.391 . S
C2639 C2638 1.386 . S
C2639 C2643 1.393 . S
C2640 H2629 0.950 . S
C2640 C2638 1.391 . S
C2640 C2641 1.400 . S
C2641 C2635 1.491 . S
C2641 C2640 1.400 . S
C2641 C2642 1.398 . S
C2642 H2630 0.950 . S
C2642 C2641 1.398 . S
C2642 C2643 1.391 . S
C2643 H2631 0.950 . S
C2643 C2639 1.393 . S
C2643 C2642 1.391 . S
H2644 C2652 0.950 . S
H2645 C2657 0.950 . S
H2646 C2654 0.950 . S
H2647 C2656 0.950 . S
H2648 C2658 0.950 . S
H2649 C2660 0.950 . S
H2650 C2662 0.950 . S
H2651 C2663 0.950 . S
C2652 H2644 0.950 . S
C2652 C2653 1.386 . S
C2652 C2654 1.391 . S
C2653 C2652 1.386 . S
C2653 C2657 1.393 . S
C2654 H2646 0.950 . S
C2654 C2652 1.391 . S
C2654 C2655 1.400 . S
C2655 C2654 1.400 . S
C2655 C2656 1.398 . S
C2655 C2661 1.491 . S
C2656 H2647 0.950 . S
C2656 C2655 1.398 . S
C2656 C2657 1.391 . S
C2657 H2645 0.950 . S
C2657 C2653 1.393 . S
C2657 C2656 1.391 . S
C2658 H2648 0.950 . S
C2658 C2659 1.386 . S
C2658 C2660 1.391 . S
C2659 C2658 1.386 . S
C2659 C2663 1.393 . S
C2660 H2649 0.950 . S
C2660 C2658 1.391 . S
C2660 C2661 1.400 . S
C2661 C2655 1.491 . S
C2661 C2660 1.400 . S
C2661 C2662 1.398 . S
C2662 H2650 0.950 . S
C2662 C2661 1.398 . S
C2662 C2663 1.391 . S
C2663 H2651 0.950 . S
C2663 C2659 1.393 . S
C2663 C2662 1.391 . S
H2664 C2672 0.950 . S
H2665 C2677 0.950 . S
H2666 C2674 0.950 . S
H2667 C2676 0.950 . S
H2668 C2678 0.950 . S
H2669 C2680 0.950 . S
H2670 C2682 0.950 . S
H2671 C2683 0.950 . S
C2672 H2664 0.950 . S
C2672 C2673 1.386 . S
C2672 C2674 1.391 . S
C2673 C2672 1.386 . S
C2673 C2677 1.393 . S
C2674 H2666 0.950 . S
C2674 C2672 1.391 . S
C2674 C2675 1.400 . S
C2675 C2674 1.400 . S
C2675 C2676 1.398 . S
C2675 C2681 1.491 . S
C2676 H2667 0.950 . S
C2676 C2675 1.398 . S
C2676 C2677 1.391 . S
C2677 H2665 0.950 . S
C2677 C2673 1.393 . S
C2677 C2676 1.391 . S
C2678 H2668 0.950 . S
C2678 C2679 1.386 . S
C2678 C2680 1.391 . S
C2679 C2678 1.386 . S
C2679 C2683 1.393 . S
C2680 H2669 0.950 . S
C2680 C2678 1.391 . S
C2680 C2681 1.400 . S
C2681 C2675 1.491 . S
C2681 C2680 1.400 . S
C2681 C2682 1.398 . S
C2682 H2670 0.950 . S
C2682 C2681 1.398 . S
C2682 C2683 1.391 . S
C2683 H2671 0.950 . S
C2683 C2679 1.393 . S
C2683 C2682 1.391 . S
H2684 C2692 0.950 . S
H2685 C2697 0.950 . S
H2686 C2694 0.950 . S
H2687 C2696 0.950 . S
H2688 C2698 0.950 . S
H2689 C2700 0.950 . S
H2690 C2702 0.950 . S
H2691 C2703 0.950 . S
C2692 H2684 0.950 . S
C2692 C2693 1.386 . S
C2692 C2694 1.391 . S
C2693 C2692 1.386 . S
C2693 C2697 1.393 . S
C2694 H2686 0.950 . S
C2694 C2692 1.391 . S
C2694 C2695 1.400 . S
C2695 C2694 1.400 . S
C2695 C2696 1.398 . S
C2695 C2701 1.491 . S
C2696 H2687 0.950 . S
C2696 C2695 1.398 . S
C2696 C2697 1.391 . S
C2697 H2685 0.950 . S
C2697 C2693 1.393 . S
C2697 C2696 1.391 . S
C2698 H2688 0.950 . S
C2698 C2699 1.386 . S
C2698 C2700 1.391 . S
C2699 C2698 1.386 . S
C2699 C2703 1.393 . S
C2700 H2689 0.950 . S
C2700 C2698 1.391 . S
C2700 C2701 1.400 . S
C2701 C2695 1.491 . S
C2701 C2700 1.400 . S
C2701 C2702 1.398 . S
C2702 H2690 0.950 . S
C2702 C2701 1.398 . S
C2702 C2703 1.391 . S
C2703 H2691 0.950 . S
C2703 C2699 1.393 . S
C2703 C2702 1.391 . S
H2704 C2712 0.950 . S
H2705 C2717 0.950 . S
H2706 C2714 0.950 . S
H2707 C2716 0.950 . S
H2708 C2718 0.950 . S
H2709 C2720 0.950 . S
H2710 C2722 0.950 . S
H2711 C2723 0.950 . S
C2712 H2704 0.950 . S
C2712 C2713 1.386 . S
C2712 C2714 1.391 . S
C2713 C2712 1.386 . S
C2713 C2717 1.393 . S
C2714 H2706 0.950 . S
C2714 C2712 1.391 . S
C2714 C2715 1.400 . S
C2715 C2714 1.400 . S
C2715 C2716 1.398 . S
C2715 C2721 1.491 . S
C2716 H2707 0.950 . S
C2716 C2715 1.398 . S
C2716 C2717 1.391 . S
C2717 H2705 0.950 . S
C2717 C2713 1.393 . S
C2717 C2716 1.391 . S
C2718 H2708 0.950 . S
C2718 C2719 1.386 . S
C2718 C2720 1.391 . S
C2719 C2718 1.386 . S
C2719 C2723 1.393 . S
C2720 H2709 0.950 . S
C2720 C2718 1.391 . S
C2720 C2721 1.400 . S
C2721 C2715 1.491 . S
C2721 C2720 1.400 . S
C2721 C2722 1.398 . S
C2722 H2710 0.950 . S
C2722 C2721 1.398 . S
C2722 C2723 1.391 . S
C2723 H2711 0.950 . S
C2723 C2719 1.393 . S
C2723 C2722 1.391 . S
H2724 C2732 0.950 . S
H2725 C2737 0.950 . S
H2726 C2734 0.950 . S
H2727 C2736 0.950 . S
H2728 C2738 0.950 . S
H2729 C2740 0.950 . S
H2730 C2742 0.950 . S
H2731 C2743 0.950 . S
C2732 H2724 0.950 . S
C2732 C2733 1.386 . S
C2732 C2734 1.391 . S
C2733 C2732 1.386 . S
C2733 C2737 1.393 . S
C2734 H2726 0.950 . S
C2734 C2732 1.391 . S
C2734 C2735 1.400 . S
C2735 C2734 1.400 . S
C2735 C2736 1.398 . S
C2735 C2741 1.491 . S
C2736 H2727 0.950 . S
C2736 C2735 1.398 . S
C2736 C2737 1.391 . S
C2737 H2725 0.950 . S
C2737 C2733 1.393 . S
C2737 C2736 1.391 . S
C2738 H2728 0.950 . S
C2738 C2739 1.386 . S
C2738 C2740 1.391 . S
C2739 C2738 1.386 . S
C2739 C2743 1.393 . S
C2740 H2729 0.950 . S
C2740 C2738 1.391 . S
C2740 C2741 1.400 . S
C2741 C2735 1.491 . S
C2741 C2740 1.400 . S
C2741 C2742 1.398 . S
C2742 H2730 0.950 . S
C2742 C2741 1.398 . S
C2742 C2743 1.391 . S
C2743 H2731 0.950 . S
C2743 C2739 1.393 . S
C2743 C2742 1.391 . S
H2744 C2752 0.950 . S
H2745 C2757 0.950 . S
H2746 C2754 0.950 . S
H2747 C2756 0.950 . S
H2748 C2758 0.950 . S
H2749 C2760 0.950 . S
H2750 C2762 0.950 . S
H2751 C2763 0.950 . S
C2752 H2744 0.950 . S
C2752 C2753 1.386 . S
C2752 C2754 1.391 . S
C2753 C2752 1.386 . S
C2753 C2757 1.393 . S
C2754 H2746 0.950 . S
C2754 C2752 1.391 . S
C2754 C2755 1.400 . S
C2755 C2754 1.400 . S
C2755 C2756 1.398 . S
C2755 C2761 1.491 . S
C2756 H2747 0.950 . S
C2756 C2755 1.398 . S
C2756 C2757 1.391 . S
C2757 H2745 0.950 . S
C2757 C2753 1.393 . S
C2757 C2756 1.391 . S
C2758 H2748 0.950 . S
C2758 C2759 1.386 . S
C2758 C2760 1.391 . S
C2759 C2758 1.386 . S
C2759 C2763 1.393 . S
C2760 H2749 0.950 . S
C2760 C2758 1.391 . S
C2760 C2761 1.400 . S
C2761 C2755 1.491 . S
C2761 C2760 1.400 . S
C2761 C2762 1.398 . S
C2762 H2750 0.950 . S
C2762 C2761 1.398 . S
C2762 C2763 1.391 . S
C2763 H2751 0.950 . S
C2763 C2759 1.393 . S
C2763 C2762 1.391 . S
H2764 C2772 0.950 . S
H2765 C2777 0.950 . S
H2766 C2774 0.950 . S
H2767 C2776 0.950 . S
H2768 C2778 0.950 . S
H2769 C2780 0.950 . S
H2770 C2782 0.950 . S
H2771 C2783 0.950 . S
C2772 H2764 0.950 . S
C2772 C2773 1.386 . S
C2772 C2774 1.391 . S
C2773 C2772 1.386 . S
C2773 C2777 1.393 . S
C2774 H2766 0.950 . S
C2774 C2772 1.391 . S
C2774 C2775 1.400 . S
C2775 C2774 1.400 . S
C2775 C2776 1.398 . S
C2775 C2781 1.491 . S
C2776 H2767 0.950 . S
C2776 C2775 1.398 . S
C2776 C2777 1.391 . S
C2777 H2765 0.950 . S
C2777 C2773 1.393 . S
C2777 C2776 1.391 . S
C2778 H2768 0.950 . S
C2778 C2779 1.386 . S
C2778 C2780 1.391 . S
C2779 C2778 1.386 . S
C2779 C2783 1.393 . S
C2780 H2769 0.950 . S
C2780 C2778 1.391 . S
C2780 C2781 1.400 . S
C2781 C2775 1.491 . S
C2781 C2780 1.400 . S
C2781 C2782 1.398 . S
C2782 H2770 0.950 . S
C2782 C2781 1.398 . S
C2782 C2783 1.391 . S
C2783 H2771 0.950 . S
C2783 C2779 1.393 . S
C2783 C2782 1.391 . S
H2784 C2792 0.950 . S
H2785 C2797 0.950 . S
H2786 C2794 0.950 . S
H2787 C2796 0.950 . S
H2788 C2798 0.950 . S
H2789 C2800 0.950 . S
H2790 C2802 0.950 . S
H2791 C2803 0.950 . S
C2792 H2784 0.950 . S
C2792 C2793 1.386 . S
C2792 C2794 1.391 . S
C2793 C2792 1.386 . S
C2793 C2797 1.393 . S
C2794 H2786 0.950 . S
C2794 C2792 1.391 . S
C2794 C2795 1.400 . S
C2795 C2794 1.400 . S
C2795 C2796 1.398 . S
C2795 C2801 1.491 . S
C2796 H2787 0.950 . S
C2796 C2795 1.398 . S
C2796 C2797 1.391 . S
C2797 H2785 0.950 . S
C2797 C2793 1.393 . S
C2797 C2796 1.391 . S
C2798 H2788 0.950 . S
C2798 C2799 1.386 . S
C2798 C2800 1.391 . S
C2799 C2798 1.386 . S
C2799 C2803 1.393 . S
C2800 H2789 0.950 . S
C2800 C2798 1.391 . S
C2800 C2801 1.400 . S
C2801 C2795 1.491 . S
C2801 C2800 1.400 . S
C2801 C2802 1.398 . S
C2802 H2790 0.950 . S
C2802 C2801 1.398 . S
C2802 C2803 1.391 . S
C2803 H2791 0.950 . S
C2803 C2799 1.393 . S
C2803 C2802 1.391 . S
H2804 C2812 0.950 . S
H2805 C2817 0.950 . S
H2806 C2814 0.950 . S
H2807 C2816 0.950 . S
H2808 C2818 0.950 . S
H2809 C2820 0.950 . S
H2810 C2822 0.950 . S
H2811 C2823 0.950 . S
C2812 H2804 0.950 . S
C2812 C2813 1.386 . S
C2812 C2814 1.391 . S
C2813 C2812 1.386 . S
C2813 C2817 1.393 . S
C2814 H2806 0.950 . S
C2814 C2812 1.391 . S
C2814 C2815 1.400 . S
C2815 C2814 1.400 . S
C2815 C2816 1.398 . S
C2815 C2821 1.491 . S
C2816 H2807 0.950 . S
C2816 C2815 1.398 . S
C2816 C2817 1.391 . S
C2817 H2805 0.950 . S
C2817 C2813 1.393 . S
C2817 C2816 1.391 . S
C2818 H2808 0.950 . S
C2818 C2819 1.386 . S
C2818 C2820 1.391 . S
C2819 C2818 1.386 . S
C2819 C2823 1.393 . S
C2820 H2809 0.950 . S
C2820 C2818 1.391 . S
C2820 C2821 1.400 . S
C2821 C2815 1.491 . S
C2821 C2820 1.400 . S
C2821 C2822 1.398 . S
C2822 H2810 0.950 . S
C2822 C2821 1.398 . S
C2822 C2823 1.391 . S
C2823 H2811 0.950 . S
C2823 C2819 1.393 . S
C2823 C2822 1.391 . S
H2824 C2832 0.950 . S
H2825 C2837 0.950 . S
H2826 C2834 0.950 . S
H2827 C2836 0.950 . S
H2828 C2838 0.950 . S
H2829 C2840 0.950 . S
H2830 C2842 0.950 . S
H2831 C2843 0.950 . S
C2832 H2824 0.950 . S
C2832 C2833 1.386 . S
C2832 C2834 1.391 1_545 S
C2833 C2832 1.386 . S
C2833 C2837 1.393 1_545 S
C2834 H2826 0.950 . S
C2834 C2832 1.391 1_565 S
C2834 C2835 1.400 . S
C2835 C2834 1.400 . S
C2835 C2836 1.398 . S
C2835 C2841 1.491 . S
C2836 H2827 0.950 . S
C2836 C2835 1.398 . S
C2836 C2837 1.391 . S
C2837 H2825 0.950 . S
C2837 C2833 1.393 1_565 S
C2837 C2836 1.391 . S
C2838 H2828 0.950 . S
C2838 C2839 1.386 . S
C2838 C2840 1.391 . S
C2839 C2838 1.386 . S
C2839 C2843 1.393 . S
C2840 H2829 0.950 . S
C2840 C2838 1.391 . S
C2840 C2841 1.400 . S
C2841 C2835 1.491 . S
C2841 C2840 1.400 . S
C2841 C2842 1.398 . S
C2842 H2830 0.950 . S
C2842 C2841 1.398 . S
C2842 C2843 1.391 . S
C2843 H2831 0.950 . S
C2843 C2839 1.393 . S
C2843 C2842 1.391 . S
H2844 C2852 0.950 . S
H2845 C2857 0.950 . S
H2846 C2854 0.950 . S
H2847 C2856 0.950 . S
H2848 C2858 0.950 . S
H2849 C2860 0.950 . S
H2850 C2862 0.950 . S
H2851 C2863 0.950 . S
C2852 H2844 0.950 . S
C2852 C2853 1.386 . S
C2852 C2854 1.391 . S
C2853 C2852 1.386 . S
C2853 C2857 1.393 . S
C2854 H2846 0.950 . S
C2854 C2852 1.391 . S
C2854 C2855 1.400 . S
C2855 C2854 1.400 . S
C2855 C2856 1.398 . S
C2855 C2861 1.491 . S
C2856 H2847 0.950 . S
C2856 C2855 1.398 . S
C2856 C2857 1.391 . S
C2857 H2845 0.950 . S
C2857 C2853 1.393 . S
C2857 C2856 1.391 . S
C2858 H2848 0.950 . S
C2858 C2859 1.386 1_565 S
C2858 C2860 1.391 . S
C2859 C2858 1.386 1_545 S
C2859 C2863 1.393 . S
C2860 H2849 0.950 . S
C2860 C2858 1.391 . S
C2860 C2861 1.400 . S
C2861 C2855 1.491 . S
C2861 C2860 1.400 . S
C2861 C2862 1.398 . S
C2862 H2850 0.950 . S
C2862 C2861 1.398 . S
C2862 C2863 1.391 1_565 S
C2863 H2851 0.950 . S
C2863 C2859 1.393 . S
C2863 C2862 1.391 1_545 S
H2864 C2872 0.950 . S
H2865 C2877 0.950 . S
H2866 C2874 0.950 . S
H2867 C2876 0.950 . S
H2868 C2878 0.950 . S
H2869 C2880 0.950 . S
H2870 C2882 0.950 . S
H2871 C2883 0.950 . S
C2872 H2864 0.950 . S
C2872 C2873 1.386 . S
C2872 C2874 1.391 . S
C2873 C2872 1.386 . S
C2873 C2877 1.393 . S
C2874 H2866 0.950 . S
C2874 C2872 1.391 . S
C2874 C2875 1.400 . S
C2875 C2874 1.400 . S
C2875 C2876 1.398 . S
C2875 C2881 1.491 . S
C2876 H2867 0.950 . S
C2876 C2875 1.398 . S
C2876 C2877 1.391 . S
C2877 H2865 0.950 . S
C2877 C2873 1.393 . S
C2877 C2876 1.391 . S
C2878 H2868 0.950 . S
C2878 C2879 1.386 . S
C2878 C2880 1.391 . S
C2879 C2878 1.386 . S
C2879 C2883 1.393 . S
C2880 H2869 0.950 . S
C2880 C2878 1.391 . S
C2880 C2881 1.400 . S
C2881 C2875 1.491 . S
C2881 C2880 1.400 . S
C2881 C2882 1.398 . S
C2882 H2870 0.950 . S
C2882 C2881 1.398 . S
C2882 C2883 1.391 . S
C2883 H2871 0.950 . S
C2883 C2879 1.393 . S
C2883 C2882 1.391 . S
H2884 C2892 0.950 . S
H2885 C2897 0.950 . S
H2886 C2894 0.950 . S
H2887 C2896 0.950 . S
H2888 C2898 0.950 . S
H2889 C2900 0.950 . S
H2890 C2902 0.950 . S
H2891 C2903 0.950 . S
C2892 H2884 0.950 . S
C2892 C2893 1.386 . S
C2892 C2894 1.391 . S
C2893 C2892 1.386 . S
C2893 C2897 1.393 . S
C2894 H2886 0.950 . S
C2894 C2892 1.391 . S
C2894 C2895 1.400 . S
C2895 C2894 1.400 . S
C2895 C2896 1.398 . S
C2895 C2901 1.491 . S
C2896 H2887 0.950 . S
C2896 C2895 1.398 . S
C2896 C2897 1.391 . S
C2897 H2885 0.950 . S
C2897 C2893 1.393 . S
C2897 C2896 1.391 . S
C2898 H2888 0.950 . S
C2898 C2899 1.386 . S
C2898 C2900 1.391 . S
C2899 C2898 1.386 . S
C2899 C2903 1.393 . S
C2900 H2889 0.950 . S
C2900 C2898 1.391 . S
C2900 C2901 1.400 . S
C2901 C2895 1.491 . S
C2901 C2900 1.400 . S
C2901 C2902 1.398 . S
C2902 H2890 0.950 . S
C2902 C2901 1.398 . S
C2902 C2903 1.391 . S
C2903 H2891 0.950 . S
C2903 C2899 1.393 . S
C2903 C2902 1.391 . S
H2904 C2912 0.950 . S
H2905 C2917 0.950 . S
H2906 C2914 0.950 . S
H2907 C2916 0.950 . S
H2908 C2918 0.950 . S
H2909 C2920 0.950 . S
H2910 C2922 0.950 . S
H2911 C2923 0.950 . S
C2912 H2904 0.950 . S
C2912 C2913 1.386 . S
C2912 C2914 1.391 . S
C2913 C2912 1.386 . S
C2913 C2917 1.393 . S
C2914 H2906 0.950 . S
C2914 C2912 1.391 . S
C2914 C2915 1.400 . S
C2915 C2914 1.400 . S
C2915 C2916 1.398 . S
C2915 C2921 1.491 . S
C2916 H2907 0.950 . S
C2916 C2915 1.398 . S
C2916 C2917 1.391 . S
C2917 H2905 0.950 . S
C2917 C2913 1.393 . S
C2917 C2916 1.391 . S
C2918 H2908 0.950 . S
C2918 C2919 1.386 . S
C2918 C2920 1.391 . S
C2919 C2918 1.386 . S
C2919 C2923 1.393 . S
C2920 H2909 0.950 . S
C2920 C2918 1.391 . S
C2920 C2921 1.400 . S
C2921 C2915 1.491 . S
C2921 C2920 1.400 . S
C2921 C2922 1.398 . S
C2922 H2910 0.950 . S
C2922 C2921 1.398 . S
C2922 C2923 1.391 . S
C2923 H2911 0.950 . S
C2923 C2919 1.393 . S
C2923 C2922 1.391 . S
H2924 C2932 0.950 . S
H2925 C2937 0.945 . S
H2926 C2934 0.950 . S
H2927 C2936 0.950 . S
H2928 C2938 0.950 . S
H2929 C2940 0.950 . S
H2930 C2942 0.950 . S
H2931 C2943 0.950 . S
C2932 H2924 0.950 . S
C2932 C2933 1.386 . S
C2932 C2934 1.391 1_545 S
C2933 C2932 1.386 . S
C2933 C2937 1.434 . S
C2934 H2926 0.950 . S
C2934 C2932 1.391 1_565 S
C2934 C2935 1.400 . S
C2935 C2934 1.400 . S
C2935 C2936 1.398 . S
C2935 C2941 1.491 . S
C2936 H2927 0.950 . S
C2936 C2935 1.398 . S
C2936 C2937 1.356 1_565 S
C2937 H2925 0.945 . S
C2937 C2933 1.434 . S
C2937 C2936 1.356 1_545 S
C2938 H2928 0.950 . S
C2938 C2939 1.386 . S
C2938 C2940 1.391 . S
C2939 C2938 1.386 . S
C2939 C2943 1.393 . S
C2940 H2929 0.950 . S
C2940 C2938 1.391 . S
C2940 C2941 1.400 . S
C2941 C2935 1.491 . S
C2941 C2940 1.400 . S
C2941 C2942 1.398 . S
C2942 H2930 0.950 . S
C2942 C2941 1.398 . S
C2942 C2943 1.391 . S
C2943 H2931 0.950 . S
C2943 C2939 1.393 . S
C2943 C2942 1.391 . S
H2944 C2952 0.950 . S
H2945 C2957 0.950 . S
H2946 C2954 0.950 . S
H2947 C2956 0.950 . S
H2948 C2958 0.950 . S
H2949 C2960 0.950 . S
H2950 C2962 0.950 . S
H2951 C2963 0.950 . S
C2952 H2944 0.950 . S
C2952 C2953 1.386 . S
C2952 C2954 1.391 . S
C2953 C2952 1.386 . S
C2953 C2957 1.393 . S
C2954 H2946 0.950 . S
C2954 C2952 1.391 . S
C2954 C2955 1.400 . S
C2955 C2954 1.400 . S
C2955 C2956 1.398 . S
C2955 C2961 1.491 . S
C2956 H2947 0.950 . S
C2956 C2955 1.398 . S
C2956 C2957 1.391 . S
C2957 H2945 0.950 . S
C2957 C2953 1.393 . S
C2957 C2956 1.391 . S
C2958 H2948 0.950 . S
C2958 C2959 1.386 . S
C2958 C2960 1.391 . S
C2959 C2958 1.386 . S
C2959 C2963 1.393 . S
C2960 H2949 0.950 . S
C2960 C2958 1.391 . S
C2960 C2961 1.400 . S
C2961 C2955 1.491 . S
C2961 C2960 1.400 . S
C2961 C2962 1.398 . S
C2962 H2950 0.950 . S
C2962 C2961 1.398 . S
C2962 C2963 1.391 . S
C2963 H2951 0.950 . S
C2963 C2959 1.393 . S
C2963 C2962 1.391 . S
H2964 C2972 0.950 . S
H2965 C2977 0.950 . S
H2966 C2974 0.950 . S
H2967 C2976 0.950 . S
H2968 C2978 0.950 . S
H2969 C2980 0.950 . S
H2970 C2982 0.950 . S
H2971 C2983 0.950 . S
C2972 H2964 0.950 . S
C2972 C2973 1.386 . S
C2972 C2974 1.391 . S
C2973 C2972 1.386 . S
C2973 C2977 1.393 . S
C2974 H2966 0.950 . S
C2974 C2972 1.391 . S
C2974 C2975 1.400 . S
C2975 C2974 1.400 . S
C2975 C2976 1.398 . S
C2975 C2981 1.491 . S
C2976 H2967 0.950 . S
C2976 C2975 1.398 . S
C2976 C2977 1.391 . S
C2977 H2965 0.950 . S
C2977 C2973 1.393 . S
C2977 C2976 1.391 . S
C2978 H2968 0.950 . S
C2978 C2979 1.386 . S
C2978 C2980 1.391 . S
C2979 C2978 1.386 . S
C2979 C2983 1.393 . S
C2980 H2969 0.950 . S
C2980 C2978 1.391 . S
C2980 C2981 1.400 . S
C2981 C2975 1.491 . S
C2981 C2980 1.400 . S
C2981 C2982 1.398 . S
C2982 H2970 0.950 . S
C2982 C2981 1.398 . S
C2982 C2983 1.391 . S
C2983 H2971 0.950 . S
C2983 C2979 1.393 . S
C2983 C2982 1.391 . S
H2984 C2992 0.950 . S
H2985 C2997 0.950 . S
H2986 C2994 0.950 . S
H2987 C2996 0.950 . S
H2988 C2998 0.950 . S
H2989 C3000 0.950 . S
H2990 C3002 0.950 . S
H2991 C3003 0.950 . S
C2992 H2984 0.950 . S
C2992 C2993 1.386 . S
C2992 C2994 1.391 . S
C2993 C2992 1.386 . S
C2993 C2997 1.393 . S
C2994 H2986 0.950 . S
C2994 C2992 1.391 . S
C2994 C2995 1.400 . S
C2995 C2994 1.400 . S
C2995 C2996 1.398 . S
C2995 C3001 1.491 . S
C2996 H2987 0.950 . S
C2996 C2995 1.398 . S
C2996 C2997 1.391 . S
C2997 H2985 0.950 . S
C2997 C2993 1.393 . S
C2997 C2996 1.391 . S
C2998 H2988 0.950 . S
C2998 C2999 1.386 . S
C2998 C3000 1.391 . S
C2999 C2998 1.386 . S
C2999 C3003 1.393 . S
C3000 H2989 0.950 . S
C3000 C2998 1.391 . S
C3000 C3001 1.400 . S
C3001 C2995 1.491 . S
C3001 C3000 1.400 . S
C3001 C3002 1.398 . S
C3002 H2990 0.950 . S
C3002 C3001 1.398 . S
C3002 C3003 1.391 . S
C3003 H2991 0.950 . S
C3003 C2999 1.393 . S
C3003 C3002 1.391 . S
H3004 C3012 0.950 . S
H3005 C3017 0.950 . S
H3006 C3014 0.950 . S
H3007 C3016 0.950 . S
H3008 C3018 0.950 . S
H3009 C3020 0.950 . S
H3010 C3022 0.950 . S
H3011 C3023 0.950 . S
C3012 H3004 0.950 . S
C3012 C3013 1.386 . S
C3012 C3014 1.391 . S
C3013 C3012 1.386 . S
C3013 C3017 1.393 . S
C3014 H3006 0.950 . S
C3014 C3012 1.391 . S
C3014 C3015 1.400 . S
C3015 C3014 1.400 . S
C3015 C3016 1.398 . S
C3015 C3021 1.491 . S
C3016 H3007 0.950 . S
C3016 C3015 1.398 . S
C3016 C3017 1.391 . S
C3017 H3005 0.950 . S
C3017 C3013 1.393 . S
C3017 C3016 1.391 . S
C3018 H3008 0.950 . S
C3018 C3019 1.386 . S
C3018 C3020 1.391 . S
C3019 C3018 1.386 . S
C3019 C3023 1.393 . S
C3020 H3009 0.950 . S
C3020 C3018 1.391 . S
C3020 C3021 1.400 . S
C3021 C3015 1.491 . S
C3021 C3020 1.400 . S
C3021 C3022 1.398 . S
C3022 H3010 0.950 . S
C3022 C3021 1.398 . S
C3022 C3023 1.391 . S
C3023 H3011 0.950 . S
C3023 C3019 1.393 . S
C3023 C3022 1.391 . S
H3024 C3032 0.950 . S
H3025 C3037 0.950 . S
H3026 C3034 0.950 . S
H3027 C3036 0.950 . S
H3028 C3038 0.950 1_554 S
H3029 C3040 0.950 . S
H3030 C3042 0.950 . S
H3031 C3043 0.950 . S
C3032 H3024 0.950 . S
C3032 C3033 1.386 . S
C3032 C3034 1.391 . S
C3033 C3032 1.386 . S
C3033 C3037 1.393 . S
C3034 H3026 0.950 . S
C3034 C3032 1.391 . S
C3034 C3035 1.400 . S
C3035 C3034 1.400 . S
C3035 C3036 1.398 . S
C3035 C3041 1.491 . S
C3036 H3027 0.950 . S
C3036 C3035 1.398 . S
C3036 C3037 1.391 . S
C3037 H3025 0.950 . S
C3037 C3033 1.393 . S
C3037 C3036 1.391 . S
C3038 H3028 0.950 1_556 S
C3038 C3039 1.386 . S
C3038 C3040 1.391 . S
C3039 C3038 1.386 . S
C3039 C3043 1.393 . S
C3040 H3029 0.950 . S
C3040 C3038 1.391 . S
C3040 C3041 1.400 . S
C3041 C3035 1.491 . S
C3041 C3040 1.400 . S
C3041 C3042 1.398 . S
C3042 H3030 0.950 . S
C3042 C3041 1.398 . S
C3042 C3043 1.391 . S
C3043 H3031 0.950 . S
C3043 C3039 1.393 . S
C3043 C3042 1.391 . S
H3044 C3052 0.950 . S
H3045 C3057 0.950 . S
H3046 C3054 0.950 . S
H3047 C3056 0.950 . S
H3048 C3058 0.950 . S
H3049 C3060 0.950 . S
H3050 C3062 0.950 . S
H3051 C3063 0.950 . S
C3052 H3044 0.950 . S
C3052 C3053 1.386 . S
C3052 C3054 1.391 . S
C3053 C3052 1.386 . S
C3053 C3057 1.393 . S
C3054 H3046 0.950 . S
C3054 C3052 1.391 . S
C3054 C3055 1.400 . S
C3055 C3054 1.400 . S
C3055 C3056 1.398 . S
C3055 C3061 1.491 . S
C3056 H3047 0.950 . S
C3056 C3055 1.398 . S
C3056 C3057 1.391 . S
C3057 H3045 0.950 . S
C3057 C3053 1.393 . S
C3057 C3056 1.391 . S
C3058 H3048 0.950 . S
C3058 C3059 1.386 . S
C3058 C3060 1.391 . S
C3059 C3058 1.386 . S
C3059 C3063 1.393 . S
C3060 H3049 0.950 . S
C3060 C3058 1.391 . S
C3060 C3061 1.400 . S
C3061 C3055 1.491 . S
C3061 C3060 1.400 . S
C3061 C3062 1.398 . S
C3062 H3050 0.950 . S
C3062 C3061 1.398 . S
C3062 C3063 1.391 . S
C3063 H3051 0.950 . S
C3063 C3059 1.393 . S
C3063 C3062 1.391 . S
H3064 C3072 0.950 . S
H3065 C3077 0.950 . S
H3066 C3074 0.950 . S
H3067 C3076 0.950 . S
H3068 C3078 0.950 . S
H3069 C3080 0.950 . S
H3070 C3082 0.950 . S
H3071 C3083 0.950 . S
C3072 H3064 0.950 . S
C3072 C3073 1.386 . S
C3072 C3074 1.391 . S
C3073 C3072 1.386 . S
C3073 C3077 1.393 . S
C3074 H3066 0.950 . S
C3074 C3072 1.391 . S
C3074 C3075 1.400 . S
C3075 C3074 1.400 . S
C3075 C3076 1.398 . S
C3075 C3081 1.491 . S
C3076 H3067 0.950 . S
C3076 C3075 1.398 . S
C3076 C3077 1.391 . S
C3077 H3065 0.950 . S
C3077 C3073 1.393 . S
C3077 C3076 1.391 . S
C3078 H3068 0.950 . S
C3078 C3079 1.386 . S
C3078 C3080 1.391 . S
C3079 C3078 1.386 . S
C3079 C3083 1.393 . S
C3080 H3069 0.950 . S
C3080 C3078 1.391 . S
C3080 C3081 1.400 . S
C3081 C3075 1.491 . S
C3081 C3080 1.400 . S
C3081 C3082 1.398 . S
C3082 H3070 0.950 . S
C3082 C3081 1.398 . S
C3082 C3083 1.391 . S
C3083 H3071 0.950 . S
C3083 C3079 1.393 . S
C3083 C3082 1.391 . S
H3084 C3092 0.950 . S
H3085 C3097 0.950 . S
H3086 C3094 0.950 . S
H3087 C3096 0.950 . S
H3088 C3098 0.950 . S
H3089 C3100 0.950 . S
H3090 C3102 0.950 . S
H3091 C3103 0.950 . S
C3092 H3084 0.950 . S
C3092 C3093 1.386 . S
C3092 C3094 1.391 . S
C3093 C3092 1.386 . S
C3093 C3097 1.393 . S
C3094 H3086 0.950 . S
C3094 C3092 1.391 . S
C3094 C3095 1.400 . S
C3095 C3094 1.400 . S
C3095 C3096 1.398 . S
C3095 C3101 1.491 . S
C3096 H3087 0.950 . S
C3096 C3095 1.398 . S
C3096 C3097 1.391 . S
C3097 H3085 0.950 . S
C3097 C3093 1.393 . S
C3097 C3096 1.391 . S
C3098 H3088 0.950 . S
C3098 C3099 1.386 . S
C3098 C3100 1.391 . S
C3099 C3098 1.386 . S
C3099 C3103 1.393 . S
C3100 H3089 0.950 . S
C3100 C3098 1.391 . S
C3100 C3101 1.400 . S
C3101 C3095 1.491 . S
C3101 C3100 1.400 . S
C3101 C3102 1.398 . S
C3102 H3090 0.950 . S
C3102 C3101 1.398 . S
C3102 C3103 1.391 . S
C3103 H3091 0.950 . S
C3103 C3099 1.393 . S
C3103 C3102 1.391 . S
H3104 C3112 0.950 . S
H3105 C3117 0.950 . S
H3106 C3114 0.950 . S
H3107 C3116 0.950 . S
H3108 C3118 0.950 . S
H3109 C3120 0.950 . S
H3110 C3122 0.950 . S
H3111 C3123 0.950 . S
C3112 H3104 0.950 . S
C3112 C3113 1.386 . S
C3112 C3114 1.391 . S
C3113 C3112 1.386 . S
C3113 C3117 1.393 . S
C3114 H3106 0.950 . S
C3114 C3112 1.391 . S
C3114 C3115 1.400 . S
C3115 C3114 1.400 . S
C3115 C3116 1.398 . S
C3115 C3121 1.491 . S
C3116 H3107 0.950 . S
C3116 C3115 1.398 . S
C3116 C3117 1.391 . S
C3117 H3105 0.950 . S
C3117 C3113 1.393 . S
C3117 C3116 1.391 . S
C3118 H3108 0.950 . S
C3118 C3119 1.386 . S
C3118 C3120 1.391 . S
C3119 C3118 1.386 . S
C3119 C3123 1.393 . S
C3120 H3109 0.950 . S
C3120 C3118 1.391 . S
C3120 C3121 1.400 . S
C3121 C3115 1.491 . S
C3121 C3120 1.400 . S
C3121 C3122 1.398 . S
C3122 H3110 0.950 . S
C3122 C3121 1.398 . S
C3122 C3123 1.391 . S
C3123 H3111 0.950 . S
C3123 C3119 1.393 . S
C3123 C3122 1.391 . S
H3124 C3132 0.950 . S
H3125 C3137 0.950 . S
H3126 C3134 0.950 . S
H3127 C3136 0.950 . S
H3128 C3138 0.950 . S
H3129 C3140 0.950 . S
H3130 C3142 0.950 . S
H3131 C3143 0.950 . S
C3132 H3124 0.950 . S
C3132 C3133 1.386 . S
C3132 C3134 1.391 . S
C3133 C3132 1.386 . S
C3133 C3137 1.393 . S
C3134 H3126 0.950 . S
C3134 C3132 1.391 . S
C3134 C3135 1.400 . S
C3135 C3134 1.400 . S
C3135 C3136 1.398 . S
C3135 C3141 1.491 . S
C3136 H3127 0.950 . S
C3136 C3135 1.398 . S
C3136 C3137 1.391 . S
C3137 H3125 0.950 . S
C3137 C3133 1.393 . S
C3137 C3136 1.391 . S
C3138 H3128 0.950 . S
C3138 C3139 1.386 . S
C3138 C3140 1.391 . S
C3139 C3138 1.386 . S
C3139 C3143 1.393 . S
C3140 H3129 0.950 . S
C3140 C3138 1.391 . S
C3140 C3141 1.400 . S
C3141 C3135 1.491 . S
C3141 C3140 1.400 . S
C3141 C3142 1.398 . S
C3142 H3130 0.950 . S
C3142 C3141 1.398 . S
C3142 C3143 1.391 . S
C3143 H3131 0.950 . S
C3143 C3139 1.393 . S
C3143 C3142 1.391 . S
H3144 C3152 0.950 . S
H3145 C3157 0.950 1_655 S
H3146 C3154 0.950 . S
H3147 C3156 0.950 . S
H3148 C3158 0.950 . S
H3149 C3160 0.950 . S
H3150 C3162 0.950 . S
H3151 C3163 0.950 . S
C3152 H3144 0.950 . S
C3152 C3153 1.386 . S
C3152 C3154 1.391 . S
C3153 C3152 1.386 . S
C3153 C3157 1.393 . S
C3154 H3146 0.950 . S
C3154 C3152 1.391 . S
C3154 C3155 1.400 . S
C3155 C3154 1.400 . S
C3155 C3156 1.398 . S
C3155 C3161 1.491 . S
C3156 H3147 0.950 . S
C3156 C3155 1.398 . S
C3156 C3157 1.391 . S
C3157 H3145 0.950 1_455 S
C3157 C3153 1.393 . S
C3157 C3156 1.391 . S
C3158 H3148 0.950 . S
C3158 C3159 1.386 . S
C3158 C3160 1.391 . S
C3159 C3158 1.386 . S
C3159 C3163 1.393 . S
C3160 H3149 0.950 . S
C3160 C3158 1.391 . S
C3160 C3161 1.400 . S
C3161 C3155 1.491 . S
C3161 C3160 1.400 . S
C3161 C3162 1.398 . S
C3162 H3150 0.950 . S
C3162 C3161 1.398 . S
C3162 C3163 1.391 . S
C3163 H3151 0.950 . S
C3163 C3159 1.393 . S
C3163 C3162 1.391 . S
H3164 C3172 0.950 . S
H3165 C3177 0.950 . S
H3166 C3174 0.950 . S
H3167 C3176 0.950 . S
H3168 C3178 0.950 . S
H3169 C3180 0.950 . S
H3170 C3182 0.950 . S
H3171 C3183 0.950 . S
C3172 H3164 0.950 . S
C3172 C3173 1.386 . S
C3172 C3174 1.391 . S
C3173 C3172 1.386 . S
C3173 C3177 1.393 . S
C3174 H3166 0.950 . S
C3174 C3172 1.391 . S
C3174 C3175 1.400 . S
C3175 C3174 1.400 . S
C3175 C3176 1.398 . S
C3175 C3181 1.491 . S
C3176 H3167 0.950 . S
C3176 C3175 1.398 . S
C3176 C3177 1.391 . S
C3177 H3165 0.950 . S
C3177 C3173 1.393 . S
C3177 C3176 1.391 . S
C3178 H3168 0.950 . S
C3178 C3179 1.386 . S
C3178 C3180 1.391 . S
C3179 C3178 1.386 . S
C3179 C3183 1.393 . S
C3180 H3169 0.950 . S
C3180 C3178 1.391 . S
C3180 C3181 1.400 . S
C3181 C3175 1.491 . S
C3181 C3180 1.400 . S
C3181 C3182 1.398 . S
C3182 H3170 0.950 . S
C3182 C3181 1.398 . S
C3182 C3183 1.391 . S
C3183 H3171 0.950 . S
C3183 C3179 1.393 . S
C3183 C3182 1.391 . S
H3184 C3192 0.950 . S
H3185 C3197 0.950 . S
H3186 C3194 0.950 . S
H3187 C3196 0.950 . S
H3188 C3198 0.950 . S
H3189 C3200 0.950 . S
H3190 C3202 0.950 . S
H3191 C3203 0.950 . S
C3192 H3184 0.950 . S
C3192 C3193 1.386 . S
C3192 C3194 1.391 . S
C3193 C3192 1.386 . S
C3193 C3197 1.393 . S
C3194 H3186 0.950 . S
C3194 C3192 1.391 . S
C3194 C3195 1.400 . S
C3195 C3194 1.400 . S
C3195 C3196 1.398 . S
C3195 C3201 1.491 . S
C3196 H3187 0.950 . S
C3196 C3195 1.398 . S
C3196 C3197 1.391 . S
C3197 H3185 0.950 . S
C3197 C3193 1.393 . S
C3197 C3196 1.391 . S
C3198 H3188 0.950 . S
C3198 C3199 1.386 . S
C3198 C3200 1.391 . S
C3199 C3198 1.386 . S
C3199 C3203 1.393 . S
C3200 H3189 0.950 . S
C3200 C3198 1.391 . S
C3200 C3201 1.400 . S
C3201 C3195 1.491 . S
C3201 C3200 1.400 . S
C3201 C3202 1.398 . S
C3202 H3190 0.950 . S
C3202 C3201 1.398 . S
C3202 C3203 1.391 . S
C3203 H3191 0.950 . S
C3203 C3199 1.393 . S
C3203 C3202 1.391 . S
H3204 C3212 0.950 . S
H3205 C3217 0.950 . S
H3206 C3214 0.950 . S
H3207 C3216 0.950 . S
H3208 C3218 0.950 . S
H3209 C3220 0.950 . S
H3210 C3222 0.950 . S
H3211 C3223 0.950 . S
C3212 H3204 0.950 . S
C3212 C3213 1.386 . S
C3212 C3214 1.391 . S
C3213 C3212 1.386 . S
C3213 C3217 1.393 . S
C3214 H3206 0.950 . S
C3214 C3212 1.391 . S
C3214 C3215 1.400 . S
C3215 C3214 1.400 . S
C3215 C3216 1.398 . S
C3215 C3221 1.491 . S
C3216 H3207 0.950 . S
C3216 C3215 1.398 . S
C3216 C3217 1.391 . S
C3217 H3205 0.950 . S
C3217 C3213 1.393 . S
C3217 C3216 1.391 . S
C3218 H3208 0.950 . S
C3218 C3219 1.386 . S
C3218 C3220 1.391 . S
C3219 C3218 1.386 . S
C3219 C3223 1.393 . S
C3220 H3209 0.950 . S
C3220 C3218 1.391 . S
C3220 C3221 1.400 . S
C3221 C3215 1.491 . S
C3221 C3220 1.400 . S
C3221 C3222 1.398 . S
C3222 H3210 0.950 . S
C3222 C3221 1.398 . S
C3222 C3223 1.391 . S
C3223 H3211 0.950 . S
C3223 C3219 1.393 . S
C3223 C3222 1.391 . S
H3224 C3232 0.950 . S
H3225 C3237 0.950 1_655 S
H3226 C3234 0.950 . S
H3227 C3236 0.950 1_655 S
H3228 C3238 0.957 . S
H3229 C3240 0.953 1_655 S
H3230 C3242 0.950 . S
H3231 C3243 0.950 . S
C3232 H3224 0.950 . S
C3232 C3233 1.386 . S
C3232 C3234 1.391 . S
C3233 C3232 1.386 . S
C3233 C3237 1.393 . S
C3234 H3226 0.950 . S
C3234 C3232 1.391 . S
C3234 C3235 1.400 . S
C3235 C3234 1.400 . S
C3235 C3236 1.398 . S
C3235 C3241 1.491 . S
C3236 H3227 0.950 1_455 S
C3236 C3235 1.398 . S
C3236 C3237 1.391 . S
C3237 H3225 0.950 1_455 S
C3237 C3233 1.393 . S
C3237 C3236 1.391 . S
C3238 H3228 0.957 . S
C3238 C3239 1.376 1_655 S
C3238 C3240 1.393 1_655 S
C3239 C3238 1.376 1_455 S
C3239 C3243 1.393 . S
C3240 H3229 0.953 1_455 S
C3240 C3238 1.393 1_455 S
C3240 C3241 1.398 . S
C3241 C3235 1.491 . S
C3241 C3240 1.398 . S
C3241 C3242 1.398 . S
C3242 H3230 0.950 . S
C3242 C3241 1.398 . S
C3242 C3243 1.391 . S
C3243 H3231 0.950 . S
C3243 C3239 1.393 . S
C3243 C3242 1.391 . S
H3244 C3252 0.950 . S
H3245 C3257 0.950 . S
H3246 C3254 0.950 . S
H3247 C3256 0.950 . S
H3248 C3258 0.950 . S
H3249 C3260 0.950 . S
H3250 C3262 0.950 . S
H3251 C3263 0.950 . S
C3252 H3244 0.950 . S
C3252 C3253 1.386 . S
C3252 C3254 1.391 . S
C3253 C3252 1.386 . S
C3253 C3257 1.393 . S
C3254 H3246 0.950 . S
C3254 C3252 1.391 . S
C3254 C3255 1.400 . S
C3255 C3254 1.400 . S
C3255 C3256 1.398 . S
C3255 C3261 1.491 . S
C3256 H3247 0.950 . S
C3256 C3255 1.398 . S
C3256 C3257 1.391 . S
C3257 H3245 0.950 . S
C3257 C3253 1.393 . S
C3257 C3256 1.391 . S
C3258 H3248 0.950 . S
C3258 C3259 1.386 . S
C3258 C3260 1.391 . S
C3259 C3258 1.386 . S
C3259 C3263 1.393 . S
C3260 H3249 0.950 . S
C3260 C3258 1.391 . S
C3260 C3261 1.400 . S
C3261 C3255 1.491 . S
C3261 C3260 1.400 . S
C3261 C3262 1.398 . S
C3262 H3250 0.950 . S
C3262 C3261 1.398 . S
C3262 C3263 1.391 . S
C3263 H3251 0.950 . S
C3263 C3259 1.393 . S
C3263 C3262 1.391 . S
H3264 C3272 0.950 . S
H3265 C3277 0.950 . S
H3266 C3274 0.950 . S
H3267 C3276 0.950 . S
H3268 C3278 0.950 . S
H3269 C3280 0.950 . S
H3270 C3282 0.950 . S
H3271 C3283 0.950 . S
C3272 H3264 0.950 . S
C3272 C3273 1.386 . S
C3272 C3274 1.391 . S
C3273 C3272 1.386 . S
C3273 C3277 1.393 . S
C3274 H3266 0.950 . S
C3274 C3272 1.391 . S
C3274 C3275 1.400 . S
C3275 C3274 1.400 . S
C3275 C3276 1.398 . S
C3275 C3281 1.491 . S
C3276 H3267 0.950 . S
C3276 C3275 1.398 . S
C3276 C3277 1.391 . S
C3277 H3265 0.950 . S
C3277 C3273 1.393 . S
C3277 C3276 1.391 . S
C3278 H3268 0.950 . S
C3278 C3279 1.386 . S
C3278 C3280 1.391 . S
C3279 C3278 1.386 . S
C3279 C3283 1.393 . S
C3280 H3269 0.950 . S
C3280 C3278 1.391 . S
C3280 C3281 1.400 . S
C3281 C3275 1.491 . S
C3281 C3280 1.400 . S
C3281 C3282 1.398 . S
C3282 H3270 0.950 . S
C3282 C3281 1.398 . S
C3282 C3283 1.391 . S
C3283 H3271 0.950 . S
C3283 C3279 1.393 . S
C3283 C3282 1.391 . S
H3284 C3292 0.950 . S
H3285 C3297 0.950 . S
H3286 C3294 0.950 . S
H3287 C3296 0.950 . S
H3288 C3298 0.950 . S
H3289 C3300 0.950 . S
H3290 C3302 0.950 . S
H3291 C3303 0.950 . S
C3292 H3284 0.950 . S
C3292 C3293 1.386 . S
C3292 C3294 1.391 . S
C3293 C3292 1.386 . S
C3293 C3297 1.393 . S
C3294 H3286 0.950 . S
C3294 C3292 1.391 . S
C3294 C3295 1.400 . S
C3295 C3294 1.400 . S
C3295 C3296 1.398 . S
C3295 C3301 1.491 . S
C3296 H3287 0.950 . S
C3296 C3295 1.398 . S
C3296 C3297 1.391 . S
C3297 H3285 0.950 . S
C3297 C3293 1.393 . S
C3297 C3296 1.391 . S
C3298 H3288 0.950 . S
C3298 C3299 1.386 . S
C3298 C3300 1.391 1_545 S
C3299 C3298 1.386 . S
C3299 C3303 1.393 1_545 S
C3300 H3289 0.950 . S
C3300 C3298 1.391 1_565 S
C3300 C3301 1.400 . S
C3301 C3295 1.491 . S
C3301 C3300 1.400 . S
C3301 C3302 1.398 . S
C3302 H3290 0.950 . S
C3302 C3301 1.398 . S
C3302 C3303 1.391 . S
C3303 H3291 0.950 . S
C3303 C3299 1.393 1_565 S
C3303 C3302 1.391 . S
H3304 C3312 0.950 . S
H3305 C3317 0.950 . S
H3306 C3314 0.950 . S
H3307 C3316 0.950 . S
H3308 C3318 0.950 . S
H3309 C3320 0.950 . S
H3310 C3322 0.950 . S
H3311 C3323 0.950 . S
C3312 H3304 0.950 . S
C3312 C3313 1.386 . S
C3312 C3314 1.391 . S
C3313 C3312 1.386 . S
C3313 C3317 1.393 . S
C3314 H3306 0.950 . S
C3314 C3312 1.391 . S
C3314 C3315 1.400 . S
C3315 C3314 1.400 . S
C3315 C3316 1.398 . S
C3315 C3321 1.491 . S
C3316 H3307 0.950 . S
C3316 C3315 1.398 . S
C3316 C3317 1.391 . S
C3317 H3305 0.950 . S
C3317 C3313 1.393 . S
C3317 C3316 1.391 . S
C3318 H3308 0.950 . S
C3318 C3319 1.386 . S
C3318 C3320 1.391 . S
C3319 C3318 1.386 . S
C3319 C3323 1.393 . S
C3320 H3309 0.950 . S
C3320 C3318 1.391 . S
C3320 C3321 1.400 . S
C3321 C3315 1.491 . S
C3321 C3320 1.400 . S
C3321 C3322 1.398 . S
C3322 H3310 0.950 . S
C3322 C3321 1.398 . S
C3322 C3323 1.391 . S
C3323 H3311 0.950 . S
C3323 C3319 1.393 . S
C3323 C3322 1.391 . S
H3324 C3332 0.950 . S
H3325 C3337 0.950 . S
H3326 C3334 0.950 . S
H3327 C3336 0.950 . S
H3328 C3338 0.950 . S
H3329 C3340 0.950 . S
H3330 C3342 0.950 . S
H3331 C3343 0.950 . S
C3332 H3324 0.950 . S
C3332 C3333 1.386 . S
C3332 C3334 1.391 . S
C3333 C3332 1.386 . S
C3333 C3337 1.393 1_556 S
C3334 H3326 0.950 . S
C3334 C3332 1.391 . S
C3334 C3335 1.400 1_556 S
C3335 C3334 1.400 1_554 S
C3335 C3336 1.398 . S
C3335 C3341 1.491 . S
C3336 H3327 0.950 . S
C3336 C3335 1.398 . S
C3336 C3337 1.391 . S
C3337 H3325 0.950 . S
C3337 C3333 1.393 1_554 S
C3337 C3336 1.391 . S
C3338 H3328 0.950 . S
C3338 C3339 1.386 . S
C3338 C3340 1.391 . S
C3339 C3338 1.386 . S
C3339 C3343 1.393 1_554 S
C3340 H3329 0.950 . S
C3340 C3338 1.391 . S
C3340 C3341 1.400 . S
C3341 C3335 1.491 . S
C3341 C3340 1.400 . S
C3341 C3342 1.398 1_554 S
C3342 H3330 0.950 . S
C3342 C3341 1.398 1_556 S
C3342 C3343 1.391 . S
C3343 H3331 0.950 . S
C3343 C3339 1.393 1_556 S
C3343 C3342 1.391 . S
H3344 C3352 0.950 . S
H3345 C3357 0.950 . S
H3346 C3354 0.950 . S
H3347 C3356 0.950 . S
H3348 C3358 0.950 . S
H3349 C3360 0.950 . S
H3350 C3362 0.950 . S
H3351 C3363 0.950 . S
C3352 H3344 0.950 . S
C3352 C3353 1.386 . S
C3352 C3354 1.391 . S
C3353 C3352 1.386 . S
C3353 C3357 1.393 . S
C3354 H3346 0.950 . S
C3354 C3352 1.391 . S
C3354 C3355 1.400 . S
C3355 C3354 1.400 . S
C3355 C3356 1.398 . S
C3355 C3361 1.491 . S
C3356 H3347 0.950 . S
C3356 C3355 1.398 . S
C3356 C3357 1.391 . S
C3357 H3345 0.950 . S
C3357 C3353 1.393 . S
C3357 C3356 1.391 . S
C3358 H3348 0.950 . S
C3358 C3359 1.386 . S
C3358 C3360 1.391 . S
C3359 C3358 1.386 . S
C3359 C3363 1.393 . S
C3360 H3349 0.950 . S
C3360 C3358 1.391 . S
C3360 C3361 1.400 . S
C3361 C3355 1.491 . S
C3361 C3360 1.400 . S
C3361 C3362 1.398 . S
C3362 H3350 0.950 . S
C3362 C3361 1.398 . S
C3362 C3363 1.391 . S
C3363 H3351 0.950 . S
C3363 C3359 1.393 . S
C3363 C3362 1.391 . S
H3364 C3372 0.950 . S
H3365 C3377 0.950 . S
H3366 C3374 0.950 . S
H3367 C3376 0.950 . S
H3368 C3378 0.950 . S
H3369 C3380 0.950 . S
H3370 C3382 0.950 . S
H3371 C3383 0.950 . S
C3372 H3364 0.950 . S
C3372 C3373 1.386 . S
C3372 C3374 1.391 . S
C3373 C3372 1.386 . S
C3373 C3377 1.393 . S
C3374 H3366 0.950 . S
C3374 C3372 1.391 . S
C3374 C3375 1.400 . S
C3375 C3374 1.400 . S
C3375 C3376 1.398 . S
C3375 C3381 1.491 . S
C3376 H3367 0.950 . S
C3376 C3375 1.398 . S
C3376 C3377 1.391 . S
C3377 H3365 0.950 . S
C3377 C3373 1.393 . S
C3377 C3376 1.391 . S
C3378 H3368 0.950 . S
C3378 C3379 1.386 . S
C3378 C3380 1.391 . S
C3379 C3378 1.386 . S
C3379 C3383 1.393 . S
C3380 H3369 0.950 . S
C3380 C3378 1.391 . S
C3380 C3381 1.400 . S
C3381 C3375 1.491 . S
C3381 C3380 1.400 . S
C3381 C3382 1.398 . S
C3382 H3370 0.950 . S
C3382 C3381 1.398 . S
C3382 C3383 1.391 . S
C3383 H3371 0.950 . S
C3383 C3379 1.393 . S
C3383 C3382 1.391 . S
H3384 C3392 0.950 . S
H3385 C3397 0.950 . S
H3386 C3394 0.950 . S
H3387 C3396 0.950 . S
H3388 C3398 0.950 . S
H3389 C3400 0.950 . S
H3390 C3402 0.950 . S
H3391 C3403 0.950 . S
C3392 H3384 0.950 . S
C3392 C3393 1.386 . S
C3392 C3394 1.391 . S
C3393 C3392 1.386 . S
C3393 C3397 1.393 . S
C3394 H3386 0.950 . S
C3394 C3392 1.391 . S
C3394 C3395 1.400 . S
C3395 C3394 1.400 . S
C3395 C3396 1.398 . S
C3395 C3401 1.491 . S
C3396 H3387 0.950 . S
C3396 C3395 1.398 . S
C3396 C3397 1.391 . S
C3397 H3385 0.950 . S
C3397 C3393 1.393 . S
C3397 C3396 1.391 . S
C3398 H3388 0.950 . S
C3398 C3399 1.386 . S
C3398 C3400 1.391 . S
C3399 C3398 1.386 . S
C3399 C3403 1.393 . S
C3400 H3389 0.950 . S
C3400 C3398 1.391 . S
C3400 C3401 1.400 . S
C3401 C3395 1.491 . S
C3401 C3400 1.400 . S
C3401 C3402 1.398 . S
C3402 H3390 0.950 . S
C3402 C3401 1.398 . S
C3402 C3403 1.391 . S
C3403 H3391 0.950 . S
C3403 C3399 1.393 . S
C3403 C3402 1.391 . S
H3404 C3412 0.950 . S
H3405 C3417 0.950 . S
H3406 C3414 0.950 . S
H3407 C3416 0.950 . S
H3408 C3418 0.950 . S
H3409 C3420 0.950 . S
H3410 C3422 0.950 . S
H3411 C3423 0.950 . S
C3412 H3404 0.950 . S
C3412 C3413 1.386 . S
C3412 C3414 1.391 . S
C3413 C3412 1.386 . S
C3413 C3417 1.393 . S
C3414 H3406 0.950 . S
C3414 C3412 1.391 . S
C3414 C3415 1.400 . S
C3415 C3414 1.400 . S
C3415 C3416 1.398 . S
C3415 C3421 1.491 . S
C3416 H3407 0.950 . S
C3416 C3415 1.398 . S
C3416 C3417 1.391 . S
C3417 H3405 0.950 . S
C3417 C3413 1.393 . S
C3417 C3416 1.391 . S
C3418 H3408 0.950 . S
C3418 C3419 1.386 . S
C3418 C3420 1.391 . S
C3419 C3418 1.386 . S
C3419 C3423 1.393 . S
C3420 H3409 0.950 . S
C3420 C3418 1.391 . S
C3420 C3421 1.400 . S
C3421 C3415 1.491 . S
C3421 C3420 1.400 . S
C3421 C3422 1.398 . S
C3422 H3410 0.950 . S
C3422 C3421 1.398 . S
C3422 C3423 1.391 . S
C3423 H3411 0.950 . S
C3423 C3419 1.393 . S
C3423 C3422 1.391 . S
C1513 C255 1.729 . S
C1519 C886 1.729 1_556 S
C1533 C147 1.171 . S
C1539 C906 1.149 . S
C1553 C184 0.671 . S
C1559 C953 0.666 . S
C1579 C1010 1.064 . S
C1573 C220 1.063 . S
C1593 C40 2.547 . S
C1599 C1027 2.538 . S
C1619 C1086 1.835 . S
C1613 C74 1.826 . S
C1639 C1119 2.721 . S
C1633 C110 2.711 . S
C1653 C14 2.398 . S
C1659 C1166 2.411 . S
C1679 C879 1.543 . S
C1673 C579 1.527 . S
C1693 C616 1.525 . S
C1699 C907 1.522 . S
C1719 C946 0.587 . S
C1713 C687 0.568 . S
C1739 C1006 2.190 . S
C1733 C436 2.171 . S
C1753 C580 0.416 . S
C1759 C1033 0.465 1_655 S
C1779 C1079 2.342 . S
C1773 C615 2.353 . S
C1799 C1130 0.549 . S
C1793 C688 0.566 . S
C1819 C1159 2.344 . S
C1813 C435 2.345 . S
C1839 C890 1.666 . S
C1833 C410 1.687 . S
C1853 C722 2.252 . S
C1859 C1186 2.229 . S
C1879 C1250 1.305 . S
C1873 C842 1.356 . S
C1899 C1286 1.389 1_655 S
C1893 C794 1.401 . S
C1913 C302 1.346 . S
C1919 C1170 1.365 . S
C1933 C338 2.542 . S
C1939 C947 2.602 . S
C1953 C830 1.474 . S
C1959 C1319 1.498 . S
C1979 C1353 0.442 . S
C1973 C758 0.378 . S
C1999 C867 1.741 . S
C1993 C158 1.610 . S
C2019 C1359 1.088 . S
C2013 C254 1.107 . S
C2033 C218 0.681 . S
C2039 C970 0.668 . S
C2053 C194 0.968 . S
C2059 C1313 1.032 . S
C2079 C1046 2.501 . S
C2073 C3 2.507 . S
C2093 C111 1.740 . S
C2099 C1227 1.732 . S
C2119 C1106 2.628 1_556 S
C2113 C76 2.622 . S
C2139 C1387 2.502 . S
C2133 C50 2.438 1_655 S
C2159 C866 1.545 . S
C2153 C364 1.550 . S
C2179 C1366 1.400 . S
C2173 C795 1.428 . S
C2193 C292 0.518 . S
C2199 C959 0.497 . S
C2213 C723 2.112 . S
C2219 C1307 2.115 . S
C2233 C363 0.394 . S
C2239 C1050 0.406 . S
C2259 C1226 2.310 . S
C2253 C796 2.308 . S
C2273 C291 0.405 . S
C2279 C1113 0.489 . S
C2293 C724 2.324 . S
C2299 C1386 2.320 . S
C2313 C482 1.692 . S
C2319 C873 1.780 . S
C2333 C434 2.238 . S
C2339 C1199 2.227 . S
C2353 C662 1.184 . S
C2359 C1073 1.277 . S
C2373 C614 1.412 . S
C2379 C1267 1.398 . S
C2399 C1393 1.339 . S
C2393 C698 1.201 . S
C2413 C554 2.523 . S
C2419 C966 2.599 1_565 S
C2439 C986 1.415 . S
C2433 C650 1.385 . S
C2459 C930 0.421 . S
C2453 C506 0.352 . S
C2473 C183 1.714 . S
C2479 C1446 1.726 . S
C2499 C1346 1.154 . S
C2493 C219 1.175 . S
C2513 C256 0.671 . S
C2519 C1473 0.662 . S
C2533 C148 1.066 . S
C2539 C1330 1.066 . S
C2553 C122 2.570 . S
C2559 C1187 2.609 . S
C2579 C1246 1.774 . S
C2573 C2 1.767 1_655 S
C2599 C1279 2.587 . S
C2593 C39 2.590 . S
C2619 C1406 2.477 . S
C2613 C86 2.451 . S
C2639 C1439 1.555 . S
C2633 C651 1.537 . S
C2653 C472 1.529 . S
C2659 C1347 1.515 . S
C2679 C1466 0.538 . S
C2673 C507 0.519 . S
C2699 C1326 2.193 . S
C2693 C544 2.165 . S
C2719 C1193 0.441 . S
C2713 C652 0.399 . S
C2733 C471 2.337 . S
C2739 C1239 2.323 . S
C2759 C1290 0.577 . S
C2753 C508 0.574 . S
C2773 C543 2.356 . S
C2779 C1399 2.354 . S
C2799 C1450 1.689 . S
C2793 C806 1.705 . S
C2813 C326 2.234 . S
C2819 C1026 2.221 . S
C2839 C1090 1.305 . S
C2833 C374 1.340 . S
C2859 C1126 1.408 . S
C2853 C398 1.433 . S
C2879 C1410 1.331 . S
C2873 C770 1.326 . S
C2893 C734 2.537 . S
C2899 C1467 2.592 1_655 S
C2919 C999 1.479 . S
C2913 C362 1.443 . S
C2939 C913 0.383 . S
C2933 C290 0.353 . S
C2953 C230 1.599 . S
C2959 C1427 1.721 . S
C2979 C919 1.094 . S
C2973 C182 1.105 . S
C2993 C146 0.649 . S
C2999 C1490 0.658 . S
C3013 C266 0.969 . S
C3019 C993 1.027 . S
C3033 C75 2.562 . S
C3039 C1206 2.555 1_556 S
C3059 C1067 1.850 . S
C3053 C38 1.852 . S
C3073 C4 2.564 . S
C3079 C1266 2.573 . S
C3093 C112 2.447 . S
C3099 C1147 2.412 . S
C3119 C1426 1.553 . S
C3113 C832 1.553 . S
C3133 C399 1.434 . S
C3139 C926 1.427 . S
C3159 C1479 0.555 . S
C3153 C760 0.572 . S
C3173 C327 2.105 . S
C3179 C987 2.112 . S
C3193 C831 0.386 . S
C3199 C1210 0.395 . S
C3219 C1066 2.312 . S
C3213 C400 2.308 1_556 S
C3233 C759 0.441 . S
C3239 C1273 0.520 . S
C3259 C1146 2.326 . S
C3253 C328 2.327 . S
C3279 C1433 1.784 . S
C3273 C626 1.691 . S
C3299 C1039 2.223 1_655 S
C3293 C542 2.238 . S
C3313 C590 1.184 . S
C3319 C1233 1.265 . S
C3339 C1107 1.391 . S
C3333 C470 1.399 . S
C3353 C518 1.198 . S
C3359 C1153 1.326 . S
C3373 C446 2.514 . S
C3379 C1486 2.586 . S
C3399 C1306 1.420 . S
C3393 C578 1.391 . S
C3419 C1370 0.408 . S
C3413 C686 0.333 . S
