# Generated by pormake.
# Topology myd, (4,6)-cn, num edge types: 1
# Building blocks:
#     Node 0, Type 0, BuildingBlock: NAWXER_clean_sbu_0, # of connection points: 4
#     Node 1, Type 0, BuildingBlock: NAWXER_clean_sbu_0, # of connection points: 4
#     Node 2, Type 0, BuildingBlock: NAWXER_clean_sbu_0, # of connection points: 4
#     Node 3, Type 0, BuildingBlock: NAWXER_clean_sbu_0, # of connection points: 4
#     Node 4, Type 0, BuildingBlock: NAWXER_clean_sbu_0, # of connection points: 4
#     Node 5, Type 0, BuildingBlock: NAWXER_clean_sbu_0, # of connection points: 4
#     Node 6, Type 0, BuildingBlock: NAWXER_clean_sbu_0, # of connection points: 4
#     Node 7, Type 0, BuildingBlock: NAWXER_clean_sbu_0, # of connection points: 4
#     Node 8, Type 0, BuildingBlock: NAWXER_clean_sbu_0, # of connection points: 4
#     Node 9, Type 0, BuildingBlock: NAWXER_clean_sbu_0, # of connection points: 4
#     Node 10, Type 0, BuildingBlock: NAWXER_clean_sbu_0, # of connection points: 4
#     Node 11, Type 0, BuildingBlock: NAWXER_clean_sbu_0, # of connection points: 4
#     Node 12, Type 1, BuildingBlock: CIFDUS_clean_sbu_1, # of connection points: 6
#     Node 13, Type 1, BuildingBlock: CIFDUS_clean_sbu_1, # of connection points: 6
#     Node 14, Type 1, BuildingBlock: CIFDUS_clean_sbu_1, # of connection points: 6
#     Node 15, Type 1, BuildingBlock: CIFDUS_clean_sbu_1, # of connection points: 6
#     Node 16, Type 1, BuildingBlock: CIFDUS_clean_sbu_1, # of connection points: 6
#     Node 17, Type 1, BuildingBlock: CIFDUS_clean_sbu_1, # of connection points: 6
#     Node 18, Type 1, BuildingBlock: CIFDUS_clean_sbu_1, # of connection points: 6
#     Node 19, Type 1, BuildingBlock: CIFDUS_clean_sbu_1, # of connection points: 6
#     Edge 20, Type (0, 1), BuildingBlock: KIFKEQ_clean_linker_1, # of connection points: 2
#     Edge 21, Type (0, 1), BuildingBlock: KIFKEQ_clean_linker_1, # of connection points: 2
#     Edge 22, Type (0, 1), BuildingBlock: KIFKEQ_clean_linker_1, # of connection points: 2
#     Edge 23, Type (0, 1), BuildingBlock: KIFKEQ_clean_linker_1, # of connection points: 2
#     Edge 24, Type (0, 1), BuildingBlock: KIFKEQ_clean_linker_1, # of connection points: 2
#     Edge 25, Type (0, 1), BuildingBlock: KIFKEQ_clean_linker_1, # of connection points: 2
#     Edge 26, Type (0, 1), BuildingBlock: KIFKEQ_clean_linker_1, # of connection points: 2
#     Edge 27, Type (0, 1), BuildingBlock: KIFKEQ_clean_linker_1, # of connection points: 2
#     Edge 28, Type (0, 1), BuildingBlock: KIFKEQ_clean_linker_1, # of connection points: 2
#     Edge 29, Type (0, 1), BuildingBlock: KIFKEQ_clean_linker_1, # of connection points: 2
#     Edge 30, Type (0, 1), BuildingBlock: KIFKEQ_clean_linker_1, # of connection points: 2
#     Edge 31, Type (0, 1), BuildingBlock: KIFKEQ_clean_linker_1, # of connection points: 2
#     Edge 32, Type (0, 1), BuildingBlock: KIFKEQ_clean_linker_1, # of connection points: 2
#     Edge 33, Type (0, 1), BuildingBlock: KIFKEQ_clean_linker_1, # of connection points: 2
#     Edge 34, Type (0, 1), BuildingBlock: KIFKEQ_clean_linker_1, # of connection points: 2
#     Edge 35, Type (0, 1), BuildingBlock: KIFKEQ_clean_linker_1, # of connection points: 2
#     Edge 36, Type (0, 1), BuildingBlock: KIFKEQ_clean_linker_1, # of connection points: 2
#     Edge 37, Type (0, 1), BuildingBlock: KIFKEQ_clean_linker_1, # of connection points: 2
#     Edge 38, Type (0, 1), BuildingBlock: KIFKEQ_clean_linker_1, # of connection points: 2
#     Edge 39, Type (0, 1), BuildingBlock: KIFKEQ_clean_linker_1, # of connection points: 2
#     Edge 40, Type (0, 1), BuildingBlock: KIFKEQ_clean_linker_1, # of connection points: 2
#     Edge 41, Type (0, 1), BuildingBlock: KIFKEQ_clean_linker_1, # of connection points: 2
#     Edge 42, Type (0, 1), BuildingBlock: KIFKEQ_clean_linker_1, # of connection points: 2
#     Edge 43, Type (0, 1), BuildingBlock: KIFKEQ_clean_linker_1, # of connection points: 2
#     Edge 44, Type (0, 1), BuildingBlock: KIFKEQ_clean_linker_1, # of connection points: 2
#     Edge 45, Type (0, 1), BuildingBlock: KIFKEQ_clean_linker_1, # of connection points: 2
#     Edge 46, Type (0, 1), BuildingBlock: KIFKEQ_clean_linker_1, # of connection points: 2
#     Edge 47, Type (0, 1), BuildingBlock: KIFKEQ_clean_linker_1, # of connection points: 2
#     Edge 48, Type (0, 1), BuildingBlock: KIFKEQ_clean_linker_1, # of connection points: 2
#     Edge 49, Type (0, 1), BuildingBlock: KIFKEQ_clean_linker_1, # of connection points: 2
#     Edge 50, Type (0, 1), BuildingBlock: KIFKEQ_clean_linker_1, # of connection points: 2
#     Edge 51, Type (0, 1), BuildingBlock: KIFKEQ_clean_linker_1, # of connection points: 2
#     Edge 52, Type (0, 1), BuildingBlock: KIFKEQ_clean_linker_1, # of connection points: 2
#     Edge 53, Type (0, 1), BuildingBlock: KIFKEQ_clean_linker_1, # of connection points: 2
#     Edge 54, Type (0, 1), BuildingBlock: KIFKEQ_clean_linker_1, # of connection points: 2
#     Edge 55, Type (0, 1), BuildingBlock: KIFKEQ_clean_linker_1, # of connection points: 2
#     Edge 56, Type (0, 1), BuildingBlock: KIFKEQ_clean_linker_1, # of connection points: 2
#     Edge 57, Type (0, 1), BuildingBlock: KIFKEQ_clean_linker_1, # of connection points: 2
#     Edge 58, Type (0, 1), BuildingBlock: KIFKEQ_clean_linker_1, # of connection points: 2
#     Edge 59, Type (0, 1), BuildingBlock: KIFKEQ_clean_linker_1, # of connection points: 2
#     Edge 60, Type (0, 1), BuildingBlock: KIFKEQ_clean_linker_1, # of connection points: 2
#     Edge 61, Type (0, 1), BuildingBlock: KIFKEQ_clean_linker_1, # of connection points: 2
#     Edge 62, Type (0, 1), BuildingBlock: KIFKEQ_clean_linker_1, # of connection points: 2
#     Edge 63, Type (0, 1), BuildingBlock: KIFKEQ_clean_linker_1, # of connection points: 2
#     Edge 64, Type (0, 1), BuildingBlock: KIFKEQ_clean_linker_1, # of connection points: 2
#     Edge 65, Type (0, 1), BuildingBlock: KIFKEQ_clean_linker_1, # of connection points: 2
#     Edge 66, Type (0, 1), BuildingBlock: KIFKEQ_clean_linker_1, # of connection points: 2
#     Edge 67, Type (0, 1), BuildingBlock: KIFKEQ_clean_linker_1, # of connection points: 2
# Relax obj value: 0.215
# Max RMSD: 0.185
# Mean RMSD: 0.133
data_MOF--net-myd--node1-NAWXER_clean_sbu_0--node2-CIFDUS_clean_sbu_1--edge1-KIFKEQ_clean_linker_1
_symmetry_space_group_name_H-M    P1
_symmetry_Int_Tables_number       1
_symmetry_cell_setting            triclinic
loop_
_symmetry_equiv_pos_as_xyz
'x, y, z'
_cell_length_a     45.399333
_cell_length_b     46.045768
_cell_length_c     45.213756
_cell_angle_alpha  90.494228
_cell_angle_beta   91.30401
_cell_angle_gamma 91.712336
loop_
_atom_site_label
_atom_site_type_symbol
_atom_site_fract_x
_atom_site_fract_y
_atom_site_fract_z
_atom_type_partial_charge
C0 C 0.05333 0.23611 0.26633 0.0
C1 C 0.03754 0.31131 0.34273 0.0
O2 O 0.07482 0.24884 0.28047 0.0
Zn3 Zn 0.04954 0.27069 0.30796 0.0
O4 O 0.02699 0.24095 0.27364 0.0
Zn5 Zn 1.00151 0.26453 0.30234 0.0
O6 O 0.98082 0.28715 0.27198 0.0
O7 O 0.02871 0.29714 0.27619 0.0
O8 O 0.01422 0.29822 0.33238 0.0
O9 O 0.06269 0.30174 0.33616 0.0
O10 O 0.03196 0.23538 0.33271 0.0
O11 O 0.98391 0.23225 0.32414 0.0
C12 C 1.0036 0.30187 0.26415 0.0
C13 C 0.00706 0.22218 0.33616 0.0
C14 C 0.99339 0.80185 0.23295 0.0
C15 C 0.99097 0.72408 0.15852 0.0
O16 O 0.0187 0.79303 0.22576 0.0
Zn17 Zn 0.03806 0.76192 0.19822 0.0
O18 O 0.97008 0.78938 0.22223 0.0
Zn19 Zn 0.9905 0.76267 0.19621 0.0
O20 O 0.00809 0.73243 0.22674 0.0
O21 O 0.05661 0.73598 0.22736 0.0
O22 O 0.96888 0.73659 0.16915 0.0
O23 O 0.01712 0.73198 0.16723 0.0
O24 O 0.06071 0.78906 0.17361 0.0
O25 O 0.01258 0.79293 0.16764 0.0
C26 C 0.03299 0.72408 0.23682 0.0
C27 C 0.03887 0.80152 0.16154 0.0
C28 C 0.33423 0.99997 0.20414 0.0
C29 C 0.26197 0.99166 0.28461 0.0
O30 O 0.32285 0.97605 0.21306 0.0
Zn31 Zn 0.29914 0.99126 0.24599 0.0
O32 O 0.32861 0.02353 0.2177 0.0
Zn33 Zn 0.30294 0.03896 0.25185 0.0
O34 O 0.33112 0.05352 0.28268 0.0
O35 O 0.32839 1.00551 0.28108 0.0
O36 O 0.27303 0.01679 0.2791 0.0
O37 O 0.26991 0.96947 0.2699 0.0
O38 O 0.26825 0.01483 0.22202 0.0
O39 O 0.27444 0.06224 0.2292 0.0
C40 C 0.3382 0.02911 0.29344 0.0
C41 C 0.26027 0.04068 0.21719 0.0
C42 C 0.73803 0.52568 0.20984 0.0
C43 C 0.67049 0.52926 0.29379 0.0
O44 O 0.72861 0.50091 0.21898 0.0
Zn45 Zn 0.69967 0.48276 0.25109 0.0
O46 O 0.72934 0.54878 0.22224 0.0
Zn47 Zn 0.70305 0.52938 0.2504 0.0
O48 O 0.73489 0.50817 0.27776 0.0
O49 O 0.72623 0.46056 0.27533 0.0
O50 O 0.68083 0.55103 0.27982 0.0
O51 O 0.67567 0.50359 0.28456 0.0
O52 O 0.67088 0.46268 0.22577 0.0
O53 O 0.67039 0.51034 0.22064 0.0
C54 C 0.74123 0.48234 0.28547 0.0
C55 C 0.66078 0.48485 0.21295 0.0
C56 C 0.20598 0.34844 1.0004 0.0
C57 C 0.27951 0.27 0.99467 0.0
O58 O 0.21502 0.33799 0.97607 0.0
Zn59 Zn 0.24497 0.31127 0.99244 0.0
O60 O 0.21888 0.34172 0.02471 0.0
Zn61 Zn 0.25196 0.31424 0.04122 0.0
O62 O 0.28598 0.34052 0.05394 0.0
O63 O 0.28128 0.33817 0.00543 0.0
O64 O 0.27534 0.28162 0.01993 0.0
O65 O 0.26564 0.27942 0.97194 0.0
O66 O 0.21606 0.28618 0.01758 0.0
O67 O 0.22524 0.28912 0.06572 0.0
C68 C 0.29553 0.34744 0.0285 0.0
C69 C 0.20936 0.2793 0.04389 0.0
C70 C 0.2133 0.75241 0.49606 0.0
C71 C 0.2912 0.68007 0.50131 0.0
O72 O 0.22586 0.7418 0.47359 0.0
Zn73 Zn 0.25076 0.71477 0.49543 0.0
O74 O 0.22071 0.74402 0.52201 0.0
Zn75 Zn 0.24878 0.71454 0.54382 0.0
O76 O 0.27481 0.74168 0.5665 0.0
O77 O 0.28001 0.74376 0.51804 0.0
O78 O 0.2813 0.6877 0.52634 0.0
O79 O 0.27914 0.68902 0.47749 0.0
O80 O 0.21752 0.68776 0.51229 0.0
O81 O 0.2192 0.68816 0.56118 0.0
C82 C 0.28799 0.75207 0.54411 0.0
C83 C 0.20686 0.67973 0.53689 0.0
C84 C 0.71134 0.84814 0.50572 0.0
C85 C 0.78452 0.77163 0.49747 0.0
O86 O 0.72006 0.83752 0.4814 0.0
Zn87 Zn 0.74984 0.81164 0.49805 0.0
O88 O 0.72459 0.84157 0.5299 0.0
Zn89 Zn 0.75761 0.814 0.54584 0.0
O90 O 0.7897 0.83976 0.5605 0.0
O91 O 0.78681 0.83838 0.5116 0.0
O92 O 0.78142 0.78229 0.52336 0.0
O93 O 0.76951 0.7813 0.47567 0.0
O94 O 0.72164 0.7853 0.52353 0.0
O95 O 0.73341 0.78903 0.57125 0.0
C96 C 0.79988 0.84713 0.53557 0.0
C97 C 0.71696 0.77847 0.55034 0.0
C98 C 0.49679 0.79513 0.76006 0.0
C99 C 0.51029 0.72111 0.83777 0.0
O100 O 0.47534 0.78182 0.77244 0.0
Zn101 Zn 0.49929 0.76154 0.80229 0.0
O102 O 0.52311 0.79201 0.76971 0.0
Zn103 Zn 0.54725 0.76999 0.80236 0.0
O104 O 0.5709 0.74706 0.77428 0.0
O105 O 0.52316 0.73573 0.77354 0.0
O106 O 0.53388 0.73502 0.83047 0.0
O107 O 0.48543 0.73025 0.82869 0.0
O108 O 0.51246 0.79753 0.82874 0.0
O109 O 0.56055 0.80417 0.8276 0.0
C110 C 0.54901 0.73143 0.76435 0.0
C111 C 0.53557 0.81263 0.83614 0.0
C112 C 0.49211 0.22946 0.72949 0.0
C113 C 0.49868 0.30678 0.65459 0.0
O114 O 0.47024 0.24352 0.71961 0.0
Zn115 Zn 0.49206 0.26701 0.69071 0.0
O116 O 0.51793 0.2351 0.72 0.0
Zn117 Zn 0.53987 0.26274 0.68996 0.0
O118 O 0.5644 0.28691 0.71735 0.0
O119 O 0.51664 0.29509 0.71948 0.0
O120 O 0.5232 0.2958 0.66239 0.0
O121 O 0.47461 0.29572 0.664 0.0
O122 O 0.50657 0.23423 0.66218 0.0
O123 O 0.55515 0.23373 0.66282 0.0
C124 C 0.5432 0.30105 0.7278 0.0
C125 C 0.53038 0.22301 0.65358 0.0
C126 C 0.76787 0.54213 0.70879 0.0
C127 C 0.83786 0.5299 0.79259 0.0
O128 O 0.77733 0.56313 0.72543 0.0
Zn129 Zn 0.80392 0.53961 0.74956 0.0
O130 O 0.77642 0.51635 0.71321 0.0
Zn131 Zn 0.80469 0.49268 0.74116 0.0
O132 O 0.77504 0.46791 0.76126 0.0
O133 O 0.77153 0.51482 0.77085 0.0
O134 O 0.83126 0.50666 0.77786 0.0
O135 O 0.82797 0.554 0.78371 0.0
O136 O 0.83281 0.5274 0.71583 0.0
O137 O 0.83153 0.47973 0.71042 0.0
C138 C 0.76216 0.48868 0.77403 0.0
C139 C 0.8406 0.5047 0.70184 0.0
C140 C 0.23172 0.9915 0.71066 0.0
C141 C 0.15754 0.99684 0.78956 0.0
O142 O 0.2207 0.9692 0.72344 0.0
Zn143 Zn 0.19398 0.99045 0.74983 0.0
O144 O 0.22377 0.01673 0.71846 0.0
Zn145 Zn 0.19551 0.03794 0.74689 0.0
O146 O 0.22345 0.05984 0.77222 0.0
O147 O 0.22458 0.01224 0.77888 0.0
O148 O 0.16642 0.02094 0.7785 0.0
O149 O 0.16711 0.97309 0.77926 0.0
O150 O 0.16486 0.00812 0.71783 0.0
O151 O 0.17015 0.05604 0.71776 0.0
C152 C 0.23376 0.03801 0.78559 0.0
C153 C 0.15813 0.03277 0.70712 0.0
C154 C 0.71124 0.1738 0.03645 0.0
C155 C 0.7864 0.25026 0.05772 0.0
O156 O 0.71953 0.18281 0.06211 0.0
Zn157 Zn 0.75004 0.21076 0.04995 0.0
O158 O 0.72452 0.18331 0.01363 0.0
Zn159 Zn 0.75807 0.21423 1.00278 0.0
O160 O 0.7905 0.19128 0.98709 0.0
O161 O 0.78603 0.18619 0.03521 0.0
O162 O 0.78274 0.24342 0.03044 0.0
O163 O 0.77157 0.23721 0.07748 0.0
O164 O 0.72302 0.24024 0.02707 0.0
O165 O 0.7348 0.24235 0.98002 0.0
C166 C 0.79994 0.18096 0.0115 0.0
C167 C 0.7188 0.25052 1.00122 0.0
O168 O 0.04987 0.0789 0.08282 0.0
Mn169 Mn 0.05405 0.05887 0.04191 0.0
O170 O 0.09175 0.1076 0.08277 0.0
Mn171 Mn 0.11186 0.09193 0.05077 0.0
O172 O 0.0629 0.04161 1.00024 0.0
O173 O 0.00916 0.06041 0.03176 0.0
Mn174 Mn 1.00254 0.02445 0.01673 0.0
O175 O 0.05075 0.01699 0.06093 0.0
O176 O 0.02261 0.01849 0.98205 0.0
O177 O 0.05711 0.10164 0.02492 0.0
O178 O 0.10332 0.10411 0.01312 0.0
O179 O 0.96692 0.04028 0.0141 0.0
O180 O 0.00777 0.99688 0.04536 0.0
C181 C 0.12415 0.04944 0.06001 0.0
C182 C 0.06752 0.0987 0.09437 0.0
C183 C 0.04925 0.0271 0.97959 0.0
C184 C 0.9808 0.06271 0.02577 0.0
C185 C 0.03111 0.99627 0.06124 0.0
C186 C 0.07838 0.11521 0.0123 0.0
O187 O 0.09783 0.0563 0.05145 0.0
O188 O 0.14388 0.07024 0.05862 0.0
O189 O 0.98681 0.45038 0.08355 0.0
Mn190 Mn 0.96023 0.46891 0.04997 0.0
O191 O 0.96616 0.46459 0.12344 0.0
Mn192 Mn 0.93386 0.4517 0.10184 0.0
O193 O 0.93473 0.48521 0.01344 0.0
O194 O 0.99632 0.46172 0.02333 0.0
Mn195 Mn 0.99442 0.49529 1.00299 0.0
O196 O 0.97492 0.50978 0.06378 0.0
O197 O 0.96531 0.4887 0.97535 0.0
O198 O 0.94322 0.42747 0.03968 0.0
O199 O 0.93381 0.41438 0.0861 0.0
O200 O 0.03243 0.48652 1.00178 0.0
O201 O 0.99071 0.53037 0.02307 0.0
C202 C 0.90125 0.47914 0.09423 0.0
C203 C 0.98798 0.45389 0.1116 0.0
C204 C 0.93948 0.48807 0.98544 0.0
C205 C 0.02488 0.46632 0.02016 0.0
C206 C 0.98346 0.53217 0.0498 0.0
C207 C 0.93551 0.40831 0.05871 0.0
O208 O 0.92302 0.47781 0.07531 0.0
O209 O 0.90018 0.46178 0.11665 0.0
O210 O 0.07774 0.99464 0.42849 0.0
Mn211 Mn 0.04452 0.9709 0.45138 0.0
O212 O 0.11516 0.97441 0.44715 0.0
Mn213 Mn 0.09046 0.9449 0.43365 0.0
O214 O 0.00891 0.94924 0.47236 0.0
O215 O 0.02176 0.00828 0.44321 0.0
Mn216 Mn 1.00237 0.01285 0.47653 0.0
O217 O 0.06125 0.98774 0.49203 0.0
O218 O 0.97588 0.98291 0.48191 0.0
O219 O 0.02904 0.95321 0.41154 0.0
O220 O 0.07365 0.94478 0.39562 0.0
O221 O 0.99082 0.04301 0.4547 0.0
O222 O 0.02848 0.01956 0.50769 0.0
C223 C 0.08567 0.91025 0.45831 0.0
C224 C 0.10542 0.99555 0.43364 0.0
C225 C 0.98354 0.95673 0.48144 0.0
C226 C 0.00861 0.03224 0.43574 0.0
C227 C 0.05234 1.00618 0.51111 0.0
C228 C 0.04592 0.94481 0.39114 0.0
O229 O 0.06659 0.93139 0.46146 0.0
O230 O 0.10666 0.91178 0.4394 0.0
O231 O 0.93485 0.5919 0.47116 0.0
Mn232 Mn 0.9592 0.55869 0.45119 0.0
O233 O 0.92041 0.62099 0.4347 0.0
Mn234 Mn 0.92962 0.59456 0.40651 0.0
O235 O 0.98261 0.52465 0.43131 0.0
O236 O 0.95274 0.53582 0.48951 0.0
Mn237 Mn 0.98716 0.52023 0.49737 0.0
O238 O 0.9982 0.57886 0.46885 0.0
O239 O 0.99678 0.49516 0.46778 0.0
O240 O 0.92074 0.53728 0.43458 0.0
O241 O 0.90207 0.56535 0.3993 0.0
O242 O 0.96426 0.50717 0.52685 0.0
O243 O 0.01365 0.55017 0.50572 0.0
C244 C 0.97003 0.59714 0.38765 0.0
C245 C 0.92272 0.61508 0.46182 0.0
C246 C 0.99455 0.50125 0.44057 0.0
C247 C 0.94484 0.52312 0.514 0.0
C248 C 0.01575 0.57336 0.4908 0.0
C249 C 0.9014 0.54239 0.4144 0.0
O250 O 0.96625 0.58221 0.41224 0.0
O251 O 0.94743 0.60911 0.37528 0.0
O252 O 0.4895 0.94942 0.58333 0.0
Mn253 Mn 0.46375 0.96859 0.54857 0.0
O254 O 0.47307 0.97547 0.61708 0.0
Mn255 Mn 0.4415 0.95703 0.59785 0.0
O256 O 0.44043 0.98486 0.51116 0.0
O257 O 0.50055 0.96084 0.52441 0.0
Mn258 Mn 0.50547 0.99289 0.50317 0.0
O259 O 0.48018 0.01022 0.56094 0.0
O260 O 0.47405 0.99759 0.4777 0.0
O261 O 0.44671 0.92759 0.53884 0.0
O262 O 0.44162 0.91781 0.58641 0.0
O263 O 0.5351 0.97042 0.49172 0.0
O264 O 0.51426 0.02368 0.52841 0.0
C265 C 0.404 0.97665 0.59223 0.0
C266 C 0.49126 0.95707 0.61043 0.0
C267 C 0.44751 0.99427 0.4854 0.0
C268 C 0.52436 0.95281 0.51118 0.0
C269 C 0.50017 0.02819 0.55186 0.0
C270 C 0.44068 0.90965 0.55945 0.0
O271 O 0.42343 0.97823 0.57065 0.0
O272 O 0.40946 0.96337 0.61677 0.0
O273 O 0.52039 0.58092 0.58339 0.0
Mn274 Mn 0.54197 0.56407 0.54544 0.0
O275 O 0.54991 0.56714 0.61799 0.0
Mn276 Mn 0.5751 0.58426 0.59224 0.0
O277 O 0.5623 0.55047 0.50638 0.0
O278 O 0.5015 0.56739 0.52439 0.0
Mn279 Mn 0.49846 0.5346 0.50289 0.0
O280 O 0.53148 0.52123 0.55868 0.0
O281 O 0.527 0.53402 0.47472 0.0
O282 O 0.55404 0.60619 0.53357 0.0
O283 O 0.56778 0.62131 0.57865 0.0
O284 O 0.46477 0.55261 0.49407 0.0
O285 O 0.49614 0.50319 0.52783 0.0
C286 C 0.60895 0.56116 0.5803 0.0
C287 C 0.52552 0.57709 0.61106 0.0
C288 C 0.55368 0.54109 0.48068 0.0
C289 C 0.47537 0.57192 0.51276 0.0
C290 C 0.51288 0.50095 0.5505 0.0
C291 C 0.56257 0.62647 0.55158 0.0
O292 O 0.58401 0.5584 0.56471 0.0
O293 O 0.61224 0.58018 0.60157 0.0
O294 O 0.58551 0.48395 0.92903 0.0
Mn295 Mn 0.54822 0.46344 0.94935 0.0
O296 O 0.61992 0.45295 0.93622 0.0
Mn297 Mn 0.58883 0.42967 0.92439 0.0
O298 O 0.5098 0.44459 0.96854 0.0
O299 O 0.53009 0.50433 0.94506 0.0
Mn300 Mn 0.51453 0.50853 0.98077 0.0
O301 O 0.56685 0.4733 0.99106 0.0
O302 O 0.48489 0.4814 0.98718 0.0
O303 O 0.52989 0.45156 0.90813 0.0
O304 O 0.57138 0.43808 0.88836 0.0
O305 O 0.50481 0.5414 0.96241 0.0
O306 O 0.5436 0.51095 0.00992 0.0
C307 C 0.57951 0.39692 0.951 0.0
C308 C 0.61303 0.47819 0.9296 0.0
C309 C 0.48722 0.45452 0.98169 0.0
C310 C 0.51931 0.53031 0.94093 0.0
C311 C 0.5635 0.49225 0.01151 0.0
C312 C 0.54449 0.44392 0.88571 0.0
O313 O 0.56666 0.42207 0.95564 0.0
O314 O 0.59445 0.39246 0.92736 0.0
O315 O 0.43357 0.09243 0.97876 0.0
Mn316 Mn 0.45659 0.05984 0.95454 0.0
O317 O 0.44044 0.13075 0.95212 0.0
Mn318 Mn 0.43092 0.10294 0.92455 0.0
O319 O 0.47757 0.02607 0.93038 0.0
O320 O 0.45201 0.03646 0.99366 0.0
Mn321 Mn 0.48555 0.0173 0.99251 0.0
O322 O 0.49744 0.07813 0.96985 0.0
O323 O 0.48685 0.99102 0.96236 0.0
O324 O 0.41668 0.04153 0.93907 0.0
O325 O 0.39541 0.08278 0.92854 0.0
O326 O 0.46972 1.00388 0.02551 0.0
O327 O 0.51765 0.04257 0.99623 0.0
C328 C 0.45767 0.09953 0.89095 0.0
C329 C 0.43282 0.12019 0.97618 0.0
C330 C 0.48561 1.00005 0.93619 0.0
C331 C 0.44917 0.02166 0.01838 0.0
C332 C 0.51889 0.06788 0.98527 0.0
C333 C 0.39387 0.05557 0.93188 0.0
O334 O 0.46274 0.08334 0.91466 0.0
O335 O 0.43441 0.11508 0.88846 0.0
H336 H 0.04183 0.20271 0.38149 0.0
H337 H 0.97373 0.17477 0.31873 0.0
H338 H 0.04563 0.15309 0.39913 0.0
H339 H 0.97899 0.12482 0.33423 0.0
H340 H 0.969 0.04583 0.39404 0.0
H341 H 0.969 0.09149 0.36839 0.0
H342 H 0.06081 0.10658 0.39353 0.0
H343 H 0.05965 0.06112 0.42112 0.0
C344 C 0.02754 0.18586 0.37159 0.0
C345 C 0.00687 0.19278 0.34934 0.0
C346 C 0.03012 0.15716 0.38123 0.0
C347 C 0.01276 0.13432 0.36819 0.0
C348 C 0.99232 0.14148 0.34559 0.0
C349 C 0.98915 0.1703 0.33663 0.0
C350 C 0.98961 0.05822 0.39279 0.0
C351 C 0.01438 0.04967 0.40923 0.0
C352 C 0.98962 0.08484 0.37822 0.0
C353 C 0.01471 0.10363 0.3792 0.0
C354 C 0.04066 0.0934 0.39294 0.0
C355 C 0.04042 0.06679 0.40801 0.0
H356 H 0.08061 0.35221 0.36 0.0
H357 H 0.98636 0.33589 0.35861 0.0
H358 H 0.0731 0.40154 0.37866 0.0
H359 H 0.97902 0.3846 0.37713 0.0
H360 H 0.9693 0.48036 0.38839 0.0
H361 H 0.98217 0.43545 0.36265 0.0
H362 H 0.05682 0.42657 0.42254 0.0
H363 H 0.04425 0.47128 0.44758 0.0
C364 C 0.05839 0.35891 0.36406 0.0
C365 C 0.03418 0.33986 0.35793 0.0
C366 C 0.05403 0.38727 0.37455 0.0
C367 C 0.02538 0.3973 0.37892 0.0
C368 C 1.00133 0.37801 0.37333 0.0
C369 C 1.00565 0.34978 0.36309 0.0
C370 C 0.98901 0.4693 0.39525 0.0
C371 C 1.00578 0.47928 0.41994 0.0
C372 C 0.99618 0.44335 0.38087 0.0
C373 C 0.02033 0.42709 0.39081 0.0
C374 C 0.03822 0.43844 0.41411 0.0
C375 C 0.03098 0.46411 0.42851 0.0
H376 H 0.08407 0.8428 0.16399 0.0
H377 H 1.00151 0.82094 0.11892 0.0
H378 H 0.08448 0.89084 0.14105 0.0
H379 H 1.00246 0.8679 0.09501 0.0
H380 H 0.98871 0.96219 0.08541 0.0
H381 H 0.99354 0.91534 0.10851 0.0
H382 H 0.08805 0.92173 0.09893 0.0
H383 H 0.08307 0.9699 0.07674 0.0
C384 C 0.06646 0.84794 0.14852 0.0
C385 C 0.04269 0.82809 0.14339 0.0
C386 C 0.06663 0.87554 0.13539 0.0
C387 C 0.04313 0.88377 0.11664 0.0
C388 C 0.02045 0.86298 0.11011 0.0
C389 C 0.02007 0.83576 0.12352 0.0
C390 C 0.01061 0.95382 0.08853 0.0
C391 C 0.03548 0.96974 0.07908 0.0
C392 C 0.01339 0.92663 0.10147 0.0
C393 C 0.04113 0.91406 0.10491 0.0
C394 C 0.0663 0.93056 0.09665 0.0
C395 C 0.0635 0.95822 0.08398 0.0
H396 H 0.94218 0.688 0.15078 0.0
H397 H 0.0314 0.70205 0.12167 0.0
H398 H 0.93884 0.64208 0.12298 0.0
H399 H 0.02812 0.65636 0.09416 0.0
H400 H 1.00418 0.58398 0.02832 0.0
H401 H 1.00313 0.63175 0.05174 0.0
H402 H 0.96201 0.59378 0.12806 0.0
H403 H 0.96269 0.54589 0.10452 0.0
C404 C 0.96085 0.68156 0.13803 0.0
C405 C 0.98707 0.69861 0.13846 0.0
C406 C 0.95905 0.65515 0.12239 0.0
C407 C 0.98329 0.6455 0.10657 0.0
C408 C 0.00899 0.66324 0.10596 0.0
C409 C 0.0109 0.68939 0.12182 0.0
C410 C 0.99497 0.58574 0.05012 0.0
C411 C 0.98377 0.56103 0.06462 0.0
C412 C 0.99439 0.61315 0.06354 0.0
C413 C 0.98248 0.61655 0.09173 0.0
C414 C 0.97102 0.59191 0.10617 0.0
C415 C 0.97173 0.56442 0.09281 0.0
H416 H 0.37552 0.04137 0.19229 0.0
H417 H 0.33135 0.96542 0.15367 0.0
H418 H 0.39902 0.05149 0.14591 0.0
H419 H 0.35611 0.97491 0.10676 0.0
H420 H 0.38883 0.01153 0.01887 0.0
H421 H 0.35972 1.00632 0.06399 0.0
H422 H 0.43595 0.03542 0.11646 0.0
H423 H 0.46363 0.04205 0.07196 0.0
C424 C 0.37125 0.02644 0.17392 0.0
C425 C 0.35181 1.00236 0.17687 0.0
C426 C 0.38483 0.03224 0.14716 0.0
C427 C 0.37964 0.01406 0.1223 0.0
C428 C 0.36043 0.98963 0.12526 0.0
C429 C 0.34668 0.98381 0.1523 0.0
C430 C 0.39863 0.01818 0.04002 0.0
C431 C 0.42819 0.02801 0.04187 0.0
C432 C 0.38229 0.01449 0.06596 0.0
C433 C 0.39543 0.02021 0.09413 0.0
C434 C 0.42463 0.03131 0.09544 0.0
C435 C 0.44057 0.03535 0.06977 0.0
H436 H 0.66337 0.44316 0.17032 0.0
H437 H 0.6175 0.52032 0.19413 0.0
H438 H 0.64126 0.44426 0.12088 0.0
H439 H 0.59334 0.52036 0.14553 0.0
H440 H 0.58135 0.53634 0.04875 0.0
H441 H 0.60342 0.53243 0.09796 0.0
H442 H 0.60242 0.43876 0.08816 0.0
H443 H 0.58248 0.44319 0.03805 0.0
C444 C 0.64763 0.45974 0.16525 0.0
C445 C 0.64211 0.48167 0.18596 0.0
C446 C 0.63491 0.46045 0.13681 0.0
C447 C 0.61581 0.48276 0.12869 0.0
C448 C 0.60874 0.50345 0.15037 0.0
C449 C 0.62214 0.50319 0.17848 0.0
C450 C 0.58642 0.51501 0.05702 0.0
C451 C 0.5804 0.49012 0.03959 0.0
C452 C 0.59861 0.51263 0.08549 0.0
C453 C 0.60425 0.48519 0.09762 0.0
C454 C 0.59879 0.46031 0.07972 0.0
C455 C 0.58735 0.4628 0.0509 0.0
H456 H 0.38978 0.05556 0.31505 0.0
H457 H 0.31794 0.99783 0.33897 0.0
H458 H 0.41335 0.04823 0.36352 0.0
H459 H 0.33986 0.99206 0.38796 0.0
H460 H 0.40287 0.96017 0.46067 0.0
H461 H 0.37556 0.9699 0.41486 0.0
H462 H 0.4153 0.05651 0.41336 0.0
H463 H 0.44368 0.0457 0.45795 0.0
C464 C 0.37885 0.04172 0.33093 0.0
C465 C 0.35228 0.02704 0.3232 0.0
C466 C 0.39215 0.03759 0.35891 0.0
C467 C 0.37873 0.01933 0.38012 0.0
C468 C 0.35152 1.00558 0.37235 0.0
C469 C 0.33874 0.00908 0.34424 0.0
C470 C 0.40499 0.9815 0.45089 0.0
C471 C 0.42504 1.00231 0.46302 0.0
C472 C 0.38943 0.9872 0.42444 0.0
C473 C 0.39329 0.01402 0.40974 0.0
C474 C 0.41216 0.03533 0.42319 0.0
C475 C 0.42805 0.0294 0.44919 0.0
H476 H 0.64345 0.5776 0.31624 0.0
H477 H 0.66253 0.48835 0.33579 0.0
H478 H 0.61725 0.58121 0.3631 0.0
H479 H 0.63741 0.49216 0.38227 0.0
H480 H 0.55801 0.49671 0.44179 0.0
H481 H 0.58694 0.49541 0.39717 0.0
H482 H 0.6242 0.58071 0.41841 0.0
H483 H 0.59495 0.5818 0.46354 0.0
C484 C 0.64218 0.55887 0.33052 0.0
C485 C 0.65467 0.53258 0.322 0.0
C486 C 0.62739 0.56097 0.35743 0.0
C487 C 0.62502 0.53688 0.37636 0.0
C488 C 0.6382 0.51095 0.36802 0.0
C489 C 0.65266 0.50879 0.34125 0.0
C490 C 0.57279 0.51495 0.43719 0.0
C491 C 0.57466 0.53911 0.4563 0.0
C492 C 0.58937 0.51426 0.4116 0.0
C493 C 0.60798 0.53794 0.40417 0.0
C494 C 0.61001 0.56217 0.42343 0.0
C495 C 0.59366 0.56263 0.44945 0.0
H496 H 0.16092 0.33388 0.03577 0.0
H497 H 0.18704 0.39713 0.97088 0.0
H498 H 0.11497 0.3591 0.0433 0.0
H499 H 0.1414 0.42335 0.97955 0.0
H500 H 0.08068 0.47941 0.03638 0.0
H501 H 0.12334 0.44934 0.03003 0.0
H502 H 0.06576 0.37522 0.01026 0.0
H503 H 0.02247 0.40595 0.01565 0.0
C504 C 0.15665 0.35306 0.02284 0.0
C505 C 0.17748 0.36338 1.00246 0.0
C506 C 0.1303 0.36745 0.02721 0.0
C507 C 0.12452 0.39314 0.01204 0.0
C508 C 0.14526 0.40349 0.99151 0.0
C509 C 0.1713 0.3885 0.98642 0.0
C510 C 0.07698 0.45647 0.03155 0.0
C511 C 0.04812 0.44508 0.02673 0.0
C512 C 0.10149 0.43939 0.02743 0.0
C513 C 0.09795 0.41014 0.01893 0.0
C514 C 0.06911 0.39785 0.01657 0.0
C515 C 0.04432 0.41526 0.02016 0.0
H516 H 0.16134 0.70049 0.50633 0.0
H517 H 0.18514 0.63014 0.56369 0.0
H518 H 0.113 0.67791 0.49713 0.0
H519 H 0.13664 0.60652 0.55364 0.0
H520 H 0.04 0.58104 0.54564 0.0
H521 H 0.08459 0.60863 0.55983 0.0
H522 H 0.09271 0.63782 0.46965 0.0
H523 H 0.0473 0.61075 0.45568 0.0
C524 C 0.15602 0.68011 0.51709 0.0
C525 C 0.17687 0.66684 0.53557 0.0
C526 C 0.12841 0.66705 0.51159 0.0
C527 C 0.12104 0.64014 0.52414 0.0
C528 C 0.14154 0.62738 0.54372 0.0
C529 C 0.16927 0.64077 0.54954 0.0
C530 C 0.05113 0.59367 0.52889 0.0
C531 C 0.04028 0.59365 0.49946 0.0
C532 C 0.07685 0.60927 0.53702 0.0
C533 C 0.09252 0.62514 0.51589 0.0
C534 C 0.08104 0.62605 0.48662 0.0
C535 C 0.05502 0.61059 0.47853 0.0
H536 H 0.8152 0.90442 0.54417 0.0
H537 H 0.84978 0.82156 0.52015 0.0
H538 H 0.86259 0.92817 0.53322 0.0
H539 H 0.89765 0.8448 0.51033 0.0
H540 H 0.96415 0.90366 0.45872 0.0
H541 H 0.92085 0.87537 0.47491 0.0
H542 H 0.91222 0.93468 0.54868 0.0
H543 H 0.95441 0.96307 0.53187 0.0
C544 C 0.83329 0.89129 0.53732 0.0
C545 C 0.82919 0.86127 0.53336 0.0
C546 C 0.86048 0.90476 0.53106 0.0
C547 C 0.88414 0.8884 0.52091 0.0
C548 C 0.87996 0.85816 0.51769 0.0
C549 C 0.8527 0.8448 0.52364 0.0
C550 C 0.95332 0.91006 0.47876 0.0
C551 C 0.96241 0.93553 0.49398 0.0
C552 C 0.92846 0.89398 0.48806 0.0
C553 C 0.91257 0.90307 0.51284 0.0
C554 C 0.92323 0.92746 0.52906 0.0
C555 C 0.94766 0.94355 0.51963 0.0
H556 H 0.3434 0.70643 0.51458 0.0
H557 H 0.30347 0.62315 0.49071 0.0
H558 H 0.39107 0.68384 0.52263 0.0
H559 H 0.35118 0.60029 0.49893 0.0
H560 H 0.42892 0.56391 0.54718 0.0
H561 H 0.38416 0.59188 0.54424 0.0
H562 H 0.42989 0.65703 0.49305 0.0
H563 H 0.47471 0.62852 0.49571 0.0
C564 C 0.34511 0.68332 0.51043 0.0
C565 C 0.32011 0.6665 0.50137 0.0
C566 C 0.37228 0.67043 0.5152 0.0
C567 C 0.37483 0.64032 0.5116 0.0
C568 C 0.34979 0.62354 0.50216 0.0
C569 C 0.32263 0.63655 0.49705 0.0
C570 C 0.42981 0.58496 0.53663 0.0
C571 C 0.45542 0.59446 0.52229 0.0
C572 C 0.40401 0.60062 0.53435 0.0
C573 C 0.40336 0.62629 0.51786 0.0
C574 C 0.42976 0.63726 0.50586 0.0
C575 C 0.45557 0.62128 0.50782 0.0
H576 H 0.56084 0.69297 0.85199 0.0
H577 H 0.46618 0.68288 0.8557 0.0
H578 H 0.56619 0.64405 0.87023 0.0
H579 H 0.47148 0.63413 0.87553 0.0
H580 H 0.48353 0.54027 0.89345 0.0
H581 H 0.48224 0.58601 0.86661 0.0
H582 H 0.5643 0.61364 0.91004 0.0
H583 H 0.56597 0.56731 0.93531 0.0
C584 C 0.54105 0.68053 0.85725 0.0
C585 C 0.513 0.69225 0.85253 0.0
C586 C 0.54416 0.65221 0.86784 0.0
C587 C 0.51935 0.63455 0.87443 0.0
C588 C 0.49125 0.6465 0.87019 0.0
C589 C 0.48813 0.67481 0.85923 0.0
C590 C 0.50214 0.55547 0.89579 0.0
C591 C 0.52538 0.54966 0.9157 0.0
C592 C 0.501 0.58222 0.88111 0.0
C593 C 0.52278 0.60427 0.88644 0.0
C594 C 0.54713 0.59748 0.90483 0.0
C595 C 0.54841 0.57056 0.91914 0.0
H596 H 0.57634 0.85805 0.84692 0.0
H597 H 0.48477 0.8333 0.85792 0.0
H598 H 0.56639 0.90698 0.86553 0.0
H599 H 0.47503 0.88145 0.87643 0.0
H600 H 0.45583 0.975 0.88833 0.0
H601 H 0.47015 0.93105 0.86181 0.0
H602 H 0.55375 0.93356 0.90948 0.0
H603 H 0.53954 0.97749 0.93521 0.0
C604 C 0.55424 0.86282 0.85364 0.0
C605 C 0.53148 0.84146 0.85092 0.0
C606 C 0.54844 0.89098 0.86417 0.0
C607 C 0.51969 0.89856 0.87203 0.0
C608 C 0.49724 0.87693 0.86987 0.0
C609 C 0.50301 0.84897 0.85958 0.0
C610 C 0.47771 0.96681 0.8921 0.0
C611 C 0.49673 0.97994 0.91349 0.0
C612 C 0.48578 0.94127 0.87737 0.0
C613 C 0.51302 0.92827 0.88379 0.0
C614 C 0.53276 0.94279 0.90368 0.0
C615 C 0.52465 0.96813 0.91839 0.0
H616 H 0.5399 0.34961 0.66191 0.0
H617 H 0.46015 0.32748 0.61214 0.0
H618 H 0.54243 0.39668 0.63917 0.0
H619 H 0.46415 0.37378 0.58638 0.0
H620 H 0.46355 0.46784 0.55983 0.0
H621 H 0.4593 0.42182 0.58519 0.0
H622 H 0.55383 0.42452 0.60135 0.0
H623 H 0.55715 0.47193 0.57834 0.0
C624 C 0.52308 0.35474 0.64555 0.0
C625 C 0.49976 0.33485 0.63885 0.0
C626 C 0.52474 0.38182 0.63205 0.0
C627 C 0.50375 0.38961 0.61036 0.0
C628 C 0.48053 0.36931 0.60333 0.0
C629 C 0.47826 0.34248 0.61784 0.0
C630 C 0.48332 0.45865 0.56923 0.0
C631 C 0.51065 0.47356 0.56733 0.0
C632 C 0.48101 0.43189 0.5835 0.0
C633 C 0.50615 0.4187 0.59551 0.0
C634 C 0.53362 0.43382 0.59332 0.0
C635 C 0.53572 0.4611 0.57989 0.0
H636 H 0.47995 0.19454 0.63496 0.0
H637 H 0.57481 0.18862 0.63379 0.0
H638 H 0.47442 0.14694 0.61203 0.0
H639 H 0.56906 0.14039 0.61055 0.0
H640 H 0.54192 0.06999 0.53946 0.0
H641 H 0.55071 0.11682 0.56371 0.0
H642 H 0.48254 0.09608 0.62585 0.0
H643 H 0.47329 0.04909 0.60129 0.0
C644 C 0.49973 0.18322 0.62958 0.0
C645 C 0.52791 0.19551 0.63627 0.0
C646 C 0.49647 0.1557 0.61671 0.0
C647 C 0.52125 0.1397 0.60992 0.0
C648 C 0.54952 0.15225 0.61559 0.0
C649 C 0.55283 0.17987 0.6288 0.0
C650 C 0.52884 0.07522 0.55841 0.0
C651 C 0.50667 0.05578 0.56825 0.0
C652 C 0.53409 0.10206 0.57242 0.0
C653 C 0.51726 0.11022 0.59657 0.0
C654 C 0.49561 0.09053 0.60698 0.0
C655 C 0.49039 0.06357 0.59301 0.0
H656 H 0.85951 0.4633 0.66247 0.0
H657 H 0.85325 0.55603 0.6748 0.0
H658 H 0.87858 0.47146 0.61305 0.0
H659 H 0.87026 0.56409 0.62531 0.0
H660 H 0.93644 0.56888 0.54962 0.0
H661 H 0.91009 0.56497 0.59553 0.0
H662 H 0.86846 0.4843 0.56441 0.0
H663 H 0.89665 0.48772 0.51921 0.0
C664 C 0.86233 0.48539 0.65475 0.0
C665 C 0.85522 0.50891 0.67295 0.0
C666 C 0.87275 0.49015 0.62611 0.0
C667 C 0.87585 0.51854 0.61471 0.0
C668 C 0.86877 0.54195 0.63311 0.0
C669 C 0.85891 0.53724 0.66176 0.0
C670 C 0.92036 0.55121 0.55192 0.0
C671 C 0.91819 0.5289 0.53059 0.0
C672 C 0.90545 0.54862 0.57859 0.0
C673 C 0.88754 0.52382 0.58436 0.0
C674 C 0.88276 0.50323 0.56139 0.0
C675 C 0.89815 0.50561 0.53495 0.0
H676 H 0.16222 0.06977 0.66038 0.0
H677 H 0.11369 0.99459 0.69197 0.0
H678 H 0.13754 0.06362 0.61167 0.0
H679 H 0.08873 0.98894 0.64374 0.0
H680 H 0.02821 0.01468 0.56419 0.0
H681 H 0.05307 0.02329 0.61188 0.0
H682 H 0.13746 0.01739 0.57059 0.0
H683 H 0.11235 0.00794 0.52233 0.0
C684 C 0.14575 0.05247 0.65713 0.0
C685 C 0.13957 0.03285 0.67996 0.0
C686 C 0.13204 0.0487 0.62924 0.0
C687 C 0.11155 0.02567 0.62406 0.0
C688 C 0.10451 1.00683 0.64725 0.0
C689 C 0.11862 0.0102 0.67483 0.0
C690 C 0.05209 0.01526 0.56519 0.0
C691 C 0.06841 0.01074 0.53958 0.0
C692 C 0.06624 0.02014 0.59248 0.0
C693 C 0.09706 0.0212 0.59473 0.0
C694 C 0.11359 0.0169 0.56919 0.0
C695 C 0.09933 0.0113 0.54177 0.0
H696 H 0.87216 0.48569 0.81052 0.0
H697 H 0.83805 0.56696 0.84081 0.0
H698 H 0.89194 0.47658 0.85978 0.0
H699 H 0.85722 0.55745 0.89075 0.0
H700 H 0.92604 0.54172 0.96737 0.0
H701 H 0.90064 0.55376 0.92112 0.0
H702 H 0.87677 0.46294 0.90752 0.0
H703 H 0.9032 0.45113 0.95342 0.0
C704 C 0.86903 0.50176 0.82772 0.0
C705 C 0.85357 0.52712 0.82162 0.0
C706 C 0.88002 0.49631 0.85619 0.0
C707 C 0.87567 0.51591 0.87962 0.0
C708 C 0.86107 0.54183 0.87333 0.0
C709 C 0.8502 0.5474 0.84464 0.0
C710 C 0.91427 0.52457 0.95501 0.0
C711 C 0.91592 0.4956 0.96422 0.0
C712 C 0.89989 0.5314 0.92834 0.0
C713 C 0.88699 0.50932 0.91015 0.0
C714 C 0.88699 0.4805 0.92055 0.0
C715 C 0.90153 0.4737 0.94718 0.0
H716 H 0.13329 0.04485 0.81275 0.0
H717 H 0.13919 0.9524 0.82672 0.0
H718 H 0.10758 0.04988 0.85869 0.0
H719 H 0.11263 0.95769 0.8733 0.0
H720 H 0.03566 0.98433 0.93843 0.0
H721 H 0.06111 0.97423 0.89237 0.0
H722 H 0.12365 0.04443 0.91252 0.0
H723 H 0.09857 0.05439 0.9585 0.0
C724 C 0.1289 0.02542 0.82546 0.0
C725 C 0.13855 0.99815 0.81594 0.0
C726 C 0.11424 0.02845 0.85198 0.0
C727 C 0.10846 1.0043 0.86981 0.0
C728 C 0.11686 0.9767 0.85994 0.0
C729 C 0.13197 0.97367 0.83328 0.0
C730 C 0.05491 0.99754 0.93304 0.0
C731 C 0.06498 0.02031 0.95205 0.0
C732 C 0.06958 0.99157 0.90681 0.0
C733 C 0.09427 0.00859 0.8988 0.0
C734 C 0.10453 0.03107 0.91801 0.0
C735 C 0.09021 0.03672 0.9444 0.0
H736 H 0.67236 0.86305 0.46091 0.0
H737 H 0.68582 0.86741 0.55576 0.0
H738 H 0.62384 0.88377 0.46629 0.0
H739 H 0.63719 0.88609 0.56132 0.0
H740 H 0.56221 0.95093 0.55756 0.0
H741 H 0.60821 0.92545 0.55655 0.0
H742 H 0.57554 0.87541 0.48062 0.0
H743 H 0.53028 0.90264 0.48085 0.0
C744 C 0.66509 0.86857 0.48284 0.0
C745 C 0.68325 0.8638 0.50778 0.0
C746 C 0.63698 0.87997 0.48608 0.0
C747 C 0.62613 0.88644 0.51437 0.0
C748 C 0.6446 0.8819 0.53915 0.0
C749 C 0.67271 0.87104 0.53589 0.0
C750 C 0.5643 0.93336 0.5417 0.0
C751 C 0.54242 0.92825 0.51973 0.0
C752 C 0.59096 0.91891 0.54075 0.0
C753 C 0.59616 0.89862 0.51803 0.0
C754 C 0.57288 0.89146 0.49791 0.0
C755 C 0.54646 0.90636 0.49857 0.0
H756 H 0.70043 0.13338 0.99333 0.0
H757 H 0.66006 0.17523 0.06725 0.0
H758 H 0.65334 0.10933 0.97976 0.0
H759 H 0.61252 0.15137 0.05333 0.0
H760 H 0.52774 0.12718 0.99355 0.0
H761 H 0.57463 0.15269 0.00759 0.0
H762 H 0.61948 0.0715 1.00306 0.0
H763 H 0.57333 0.04632 0.98946 0.0
C764 C 0.68154 0.13704 0.00696 0.0
C765 C 0.68402 0.15575 0.03165 0.0
C766 C 0.65455 0.12343 0.99909 0.0
C767 C 0.6292 0.12868 0.01534 0.0
C768 C 0.63165 0.14717 0.04025 0.0
C769 C 0.65892 0.16039 0.04851 0.0
C770 C 0.54773 0.11499 0.99526 0.0
C771 C 0.54686 0.08478 0.99048 0.0
C772 C 0.57443 0.12946 1.00359 0.0
C773 C 0.60066 0.114 0.00659 0.0
C774 C 0.59973 0.08401 1.00087 0.0
C775 C 0.57322 0.06961 0.99312 0.0
H776 H 0.33699 0.3682 0.07046 0.0
H777 H 0.32009 0.3623 0.97614 0.0
H778 H 0.38559 0.39089 0.06121 0.0
H779 H 0.36797 0.38459 0.96714 0.0
H780 H 0.46594 0.40249 0.95709 0.0
H781 H 0.42089 0.37523 0.97049 0.0
H782 H 0.40747 0.43614 0.04171 0.0
H783 H 0.45211 0.46297 0.02852 0.0
C784 C 0.34342 0.37188 0.04785 0.0
C785 C 0.32434 0.36341 0.02416 0.0
C786 C 0.37134 0.3848 0.0425 0.0
C787 C 0.38099 0.38924 0.01334 0.0
C788 C 0.36174 0.38098 0.98983 0.0
C789 C 0.33395 0.36842 0.99513 0.0
C790 C 0.45363 0.40967 0.9759 0.0
C791 C 0.46256 0.43504 0.99154 0.0
C792 C 0.42766 0.39424 0.98348 0.0
C793 C 0.41029 0.4036 0.00711 0.0
C794 C 0.4202 0.42811 0.02356 0.0
C795 C 0.4458 0.44363 0.01581 0.0
H796 H 0.83223 0.17144 0.06171 0.0
H797 H 0.83312 0.15703 0.96728 0.0
H798 H 0.8796 0.14915 0.06719 0.0
H799 H 0.88037 0.13312 0.97286 0.0
H800 H 0.97413 0.10631 0.9865 0.0
H801 H 0.93141 0.13735 0.98293 0.0
H802 H 0.90212 0.10498 0.06714 0.0
H803 H 0.94526 0.07509 0.07075 0.0
C804 C 0.84233 0.16306 0.04203 0.0
C805 C 0.8285 0.16578 0.01402 0.0
C806 C 0.86969 0.15012 0.04523 0.0
C807 C 0.88415 0.13899 0.02058 0.0
C808 C 0.87035 0.14177 0.99243 0.0
C809 C 0.84301 0.15519 0.98918 0.0
C810 C 0.95938 0.10723 0.00496 0.0
C811 C 0.96371 0.08919 0.0295 0.0
C812 C 0.93435 0.12438 1.00258 0.0
C813 C 0.91278 0.12364 0.02454 0.0
C814 C 0.91819 0.10675 0.04988 0.0
C815 C 0.94324 0.08976 0.05225 0.0
H816 H 0.01066 0.2192 0.22706 0.0
H817 H 0.10279 0.20698 0.2483 0.0
H818 H 0.01193 0.18334 0.18849 0.0
H819 H 0.10455 0.17139 0.2075 0.0
H820 H 0.09109 0.09047 0.14897 0.0
H821 H 0.08848 0.12359 0.19148 0.0
H822 H 0.02841 0.17645 0.14125 0.0
H823 H 0.02972 0.14228 0.10002 0.0
C824 C 0.03148 0.20902 0.22332 0.0
C825 C 0.0567 0.21595 0.24102 0.0
C826 C 0.0322 0.18849 0.20077 0.0
C827 C 0.05833 0.17446 0.19458 0.0
C828 C 0.0839 0.18157 0.2119 0.0
C829 C 0.08309 0.2022 0.23499 0.0
C830 C 0.07646 0.10862 0.14773 0.0
C831 C 0.05993 0.11357 0.12175 0.0
C832 C 0.07548 0.12793 0.17173 0.0
C833 C 0.05846 0.1529 0.16983 0.0
C834 C 0.04135 0.15724 0.14388 0.0
C835 C 0.04191 0.13763 0.12022 0.0
H836 H 0.04225 0.34698 0.25885 0.0
H837 H 0.96364 0.30789 0.21779 0.0
H838 H 0.04504 0.38255 0.21976 0.0
H839 H 0.96631 0.34429 0.17833 0.0
H840 H 0.99534 0.39682 0.09894 0.0
H841 H 0.99994 0.35878 0.13592 0.0
H842 H 0.01587 0.42428 0.20381 0.0
H843 H 0.01089 0.46224 0.16692 0.0
C844 C 0.0254 0.34607 0.24147 0.0
C845 C 1.00264 0.32463 0.24138 0.0
C846 C 0.02706 0.36653 0.2191 0.0
C847 C 0.00607 0.36608 0.19592 0.0
C848 C 0.98305 0.34483 0.19579 0.0
C849 C 0.98124 0.3243 0.2185 0.0
C850 C 1.00126 0.40306 0.12151 0.0
C851 C 1.00314 0.43254 0.13005 0.0
C852 C 1.00319 0.38128 0.14276 0.0
C853 C 0.00767 0.38862 0.17277 0.0
C854 C 0.0124 0.41797 0.18082 0.0
C855 C 0.01 0.43973 0.15968 0.0
H856 H 0.02636 0.85027 0.22595 0.0
H857 H 0.95975 0.81252 0.28162 0.0
H858 H 0.03412 0.89043 0.26058 0.0
H859 H 0.96843 0.85248 0.31754 0.0
H860 H 0.98766 0.935 0.37376 0.0
H861 H 0.96925 0.90453 0.33205 0.0
H862 H 0.059 0.89016 0.30703 0.0
H863 H 0.07704 0.92098 0.34708 0.0
C864 C 0.01304 0.85089 0.24554 0.0
C865 C 0.99274 0.82824 0.25143 0.0
C866 C 0.01761 0.8738 0.26549 0.0
C867 C 1.00249 0.87429 0.29225 0.0
C868 C 0.98045 0.85274 0.29713 0.0
C869 C 0.97548 0.82986 0.27668 0.0
C870 C 1.00332 0.92588 0.35882 0.0
C871 C 0.03381 0.93062 0.36373 0.0
C872 C 0.99279 0.9082 0.33515 0.0
C873 C 0.0126 0.895 0.31608 0.0
C874 C 0.04298 0.90048 0.32071 0.0
C875 C 0.05339 0.91818 0.34394 0.0
H876 H 0.07466 0.71275 0.28057 0.0
H877 H 0.99118 0.68164 0.24305 0.0
H878 H 0.07094 0.67558 0.31936 0.0
H879 H 0.98771 0.64482 0.28098 0.0
H880 H 0.98838 0.57141 0.33814 0.0
H881 H 0.01178 0.59966 0.29937 0.0
H882 H 0.03506 0.66739 0.36288 0.0
H883 H 0.01147 0.63893 0.40165 0.0
C884 C 0.05584 0.69772 0.2803 0.0
C885 C 0.03316 0.70024 0.25882 0.0
C886 C 0.05367 0.67653 0.30251 0.0
C887 C 0.02918 0.65702 0.30313 0.0
C888 C 0.00714 0.65907 0.28096 0.0
C889 C 0.00901 0.68042 0.2593 0.0
C890 C 1.0004 0.59132 0.34431 0.0
C891 C 0.99828 0.60275 0.37307 0.0
C892 C 0.01323 0.60789 0.3219 0.0
C893 C 0.02464 0.63613 0.32787 0.0
C894 C 0.02648 0.64574 0.3575 0.0
C895 C 0.01339 0.62916 0.37992 0.0
H896 H 0.25722 0.06591 0.16312 0.0
H897 H 0.20601 0.01838 0.22677 0.0
H898 H 0.21842 0.0561 0.12542 0.0
H899 H 0.16708 0.00868 0.18926 0.0
H900 H 0.09756 0.03885 0.11193 0.0
H901 H 0.13004 0.03576 0.15546 0.0
H902 H 0.20017 0.00789 0.10001 0.0
H903 H 0.16761 0.01099 0.05669 0.0
C904 C 0.23713 0.05444 0.16928 0.0
C905 C 0.23414 0.04356 0.19789 0.0
C906 C 0.21527 0.04817 0.14765 0.0
C907 C 0.19008 0.03104 0.15435 0.0
C908 C 0.1863 0.02176 0.18349 0.0
C909 C 0.20833 0.02769 0.20497 0.0
C910 C 0.11918 0.02991 0.1093 0.0
C911 C 0.13056 0.02627 0.0809 0.0
C912 C 0.13804 0.02885 0.13421 0.0
C913 C 0.16801 0.02314 0.13073 0.0
C914 C 0.17741 0.01345 0.10307 0.0
C915 C 0.15847 0.01433 0.07836 0.0
H916 H 0.74986 0.48109 0.17291 0.0
H917 H 0.77354 0.57125 0.19044 0.0
H918 H 0.78684 0.47896 0.13559 0.0
H919 H 0.81069 0.56937 0.1519 0.0
H920 H 0.90164 0.5303 0.12311 0.0
H921 H 0.85776 0.54802 0.14624 0.0
H922 H 0.80358 0.49221 0.08854 0.0
H923 H 0.84789 0.47358 0.0666 0.0
C924 C 0.76273 0.50071 0.16849 0.0
C925 C 0.75891 0.52629 0.185 0.0
C926 C 0.7838 0.49959 0.14661 0.0
C927 C 0.80179 0.52406 0.14035 0.0
C928 C 0.79733 0.55006 0.15615 0.0
C929 C 0.776 0.55119 0.17818 0.0
C930 C 0.88026 0.52326 0.11407 0.0
C931 C 0.87816 0.50073 0.09292 0.0
C932 C 0.85497 0.53317 0.12763 0.0
C933 C 0.82704 0.52091 0.11997 0.0
C934 C 0.82478 0.50155 0.09563 0.0
C935 C 0.85014 0.49139 0.0824 0.0
H936 H 0.26307 0.02512 0.33332 0.0
H937 H 0.21126 0.95719 0.28858 0.0
H938 H 0.22385 0.03264 0.36744 0.0
H939 H 0.17177 0.96375 0.32425 0.0
H940 H 0.0958 1.0003 0.37407 0.0
H941 H 0.13459 0.99858 0.33759 0.0
H942 H 0.20021 0.01169 0.4076 0.0
H943 H 0.16154 0.01423 0.44357 0.0
C944 C 0.2434 0.01125 0.33124 0.0
C945 C 0.24022 0.99048 0.30832 0.0
C946 C 0.22086 0.01558 0.35091 0.0
C947 C 0.19449 0.99901 0.34853 0.0
C948 C 0.19164 0.97729 0.32631 0.0
C949 C 0.2144 0.97304 0.3063 0.0
C950 C 0.11845 1.00437 0.38139 0.0
C951 C 0.1257 0.00767 0.41168 0.0
C952 C 0.14072 1.00254 0.36059 0.0
C953 C 0.17056 1.00426 0.36971 0.0
C954 C 0.17753 0.01036 0.39965 0.0
C955 C 0.15535 0.01223 0.42033 0.0
H956 H 0.79796 0.49762 0.27709 0.0
H957 H 0.73887 0.46157 0.34146 0.0
H958 H 0.83737 0.50156 0.3148 0.0
H959 H 0.7782 0.46653 0.37978 0.0
H960 H 0.84334 0.54621 0.42451 0.0
H961 H 0.80376 0.52077 0.39613 0.0
H962 H 0.86787 0.46753 0.35451 0.0
H963 H 0.9074 0.49251 0.38363 0.0
C964 C 0.79382 0.48969 0.29916 0.0
C965 C 0.76582 0.4788 0.30646 0.0
C966 C 0.81627 0.49189 0.32067 0.0
C967 C 0.8108 0.484 0.35001 0.0
C968 C 0.78295 0.47231 0.35717 0.0
C969 C 0.76063 0.46938 0.33536 0.0
C970 C 0.84868 0.52792 0.41058 0.0
C971 C 0.87816 0.52084 0.40649 0.0
C972 C 0.82612 0.51345 0.39431 0.0
C973 C 0.83291 0.49224 0.37324 0.0
C974 C 0.86219 0.48364 0.37086 0.0
C975 C 0.8847 0.49773 0.3876 0.0
H976 H 0.16046 0.28558 0.0106 0.0
H977 H 0.19511 0.23415 0.08208 0.0
H978 H 0.11902 0.25157 1.00393 0.0
H979 H 0.15265 0.19972 0.0754 0.0
H980 H 0.06274 0.15022 0.05793 0.0
H981 H 0.09047 0.19493 0.07175 0.0
H982 H 0.12757 0.1974 0.98481 0.0
H983 H 0.10156 0.15178 0.97184 0.0
C984 C 0.15874 0.26741 0.02561 0.0
C985 C 0.18128 0.26238 0.04675 0.0
C986 C 0.13492 0.24794 0.02167 0.0
C987 C 0.13276 0.22296 0.0389 0.0
C988 C 0.15378 0.21903 0.06191 0.0
C989 C 0.17802 0.23868 0.06582 0.0
C990 C 0.07592 0.1609 0.0414 0.0
C991 C 0.08021 0.14727 0.01387 0.0
C992 C 0.09211 0.18626 0.04952 0.0
C993 C 0.11164 0.19919 0.02958 0.0
C994 C 0.11278 0.18776 1.00069 0.0
C995 C 0.09742 0.16193 0.993 0.0
H996 H 0.18751 0.77438 0.44545 0.0
H997 H 0.18364 0.77718 0.54089 0.0
H998 H 0.14735 0.80866 0.44249 0.0
H999 H 0.14355 0.81072 0.53784 0.0
H1000 H 0.10994 0.90397 0.51275 0.0
H1001 H 0.13851 0.86141 0.52415 0.0
H1002 H 0.09432 0.81446 0.45205 0.0
H1003 H 0.06586 0.85724 0.44082 0.0
C1004 C 0.17809 0.78218 0.46572 0.0
C1005 C 0.18909 0.77325 0.49333 0.0
C1006 C 0.15484 0.80153 0.46407 0.0
C1007 C 0.14213 0.81231 0.49 0.0
C1008 C 0.15292 0.80302 0.5175 0.0
C1009 C 0.17601 0.78376 0.51915 0.0
C1010 C 0.10477 0.88389 0.50079 0.0
C1011 C 0.08554 0.88384 0.47606 0.0
C1012 C 0.12163 0.8596 0.50687 0.0
C1013 C 0.11933 0.83484 0.48837 0.0
C1014 C 0.09709 0.83345 0.46626 0.0
C1015 C 0.08012 0.85767 0.46039 0.0
H1016 H 0.78449 0.72696 0.45661 0.0
H1017 H 0.83334 0.76425 0.53151 0.0
H1018 H 0.81906 0.68691 0.45519 0.0
H1019 H 0.86765 0.72466 0.52993 0.0
H1020 H 0.93992 0.66814 0.48296 0.0
H1021 H 0.90584 0.70682 0.49374 0.0
H1022 H 0.83303 0.64434 0.48962 0.0
H1023 H 0.86731 0.60567 0.47946 0.0
C1024 C 0.80269 0.72672 0.47251 0.0
C1025 C 0.80619 0.74862 0.49416 0.0
C1026 C 0.82222 0.70372 0.47196 0.0
C1027 C 0.84578 0.70258 0.49273 0.0
C1028 C 0.84967 0.72494 0.51377 0.0
C1029 C 0.82998 0.74756 0.51462 0.0
C1030 C 0.91688 0.66249 0.4862 0.0
C1031 C 0.90627 0.63389 0.48129 0.0
C1032 C 0.8973 0.68465 0.49182 0.0
C1033 C 0.86677 0.67858 0.49192 0.0
C1034 C 0.85643 0.64961 0.48927 0.0
C1035 C 0.87608 0.62741 0.4842 0.0
H1036 H 0.3089 0.78352 0.59287 0.0
H1037 H 0.32648 0.76499 0.50109 0.0
H1038 H 0.35136 0.81777 0.59466 0.0
H1039 H 0.36862 0.79826 0.50313 0.0
H1040 H 0.4099 0.89207 0.50963 0.0
H1041 H 0.37534 0.85061 0.50606 0.0
H1042 H 0.40558 0.8212 0.59172 0.0
H1043 H 0.43988 0.86285 0.59543 0.0
C1044 C 0.32187 0.78657 0.57327 0.0
C1045 C 0.31398 0.77198 0.5468 0.0
C1046 C 0.34627 0.80594 0.57429 0.0
C1047 C 0.36317 0.81078 0.5489 0.0
C1048 C 0.35575 0.7954 0.52285 0.0
C1049 C 0.33149 0.77632 0.52178 0.0
C1050 C 0.40994 0.87617 0.52716 0.0
C1051 C 0.42732 0.88077 0.55289 0.0
C1052 C 0.39 0.85251 0.52526 0.0
C1053 C 0.38733 0.83305 0.54898 0.0
C1054 C 0.40665 0.83627 0.57349 0.0
C1055 C 0.4265 0.8599 0.57541 0.0
H1056 H 0.52886 0.67759 0.77382 0.0
H1057 H 0.57091 0.73053 0.70793 0.0
H1058 H 0.51554 0.6411 0.73691 0.0
H1059 H 0.55945 0.69262 0.67048 0.0
H1060 H 0.51263 0.63437 0.6032 0.0
H1061 H 0.52059 0.67173 0.64139 0.0
H1062 H 0.5289 0.60457 0.70713 0.0
H1063 H 0.51936 0.56789 0.66938 0.0
C1064 C 0.53649 0.68071 0.75147 0.0
C1065 C 0.55142 0.70662 0.74384 0.0
C1066 C 0.52869 0.65974 0.73011 0.0
C1067 C 0.53607 0.6637 0.70035 0.0
C1068 C 0.55272 0.68898 0.69299 0.0
C1069 C 0.56013 0.71039 0.71454 0.0
C1070 C 0.51445 0.62772 0.62607 0.0
C1071 C 0.51522 0.59807 0.63325 0.0
C1072 C 0.52002 0.64916 0.64794 0.0
C1073 C 0.52638 0.64141 0.67746 0.0
C1074 C 0.52404 0.61178 0.68489 0.0
C1075 C 0.51812 0.59052 0.66319 0.0
H1076 H 0.45804 0.83889 0.75608 0.0
H1077 H 0.52871 0.79878 0.71043 0.0
H1078 H 0.45935 0.87876 0.72138 0.0
H1079 H 0.52859 0.83716 0.67374 0.0
H1080 H 0.53946 0.92332 0.62468 0.0
H1081 H 0.54071 0.88358 0.66063 0.0
H1082 H 0.44817 0.89518 0.67701 0.0
H1083 H 0.44834 0.93595 0.64515 0.0
C1084 C 0.47297 0.83807 0.73775 0.0
C1085 C 0.49275 0.81555 0.73551 0.0
C1086 C 0.47388 0.86099 0.71764 0.0
C1087 C 0.49398 0.86147 0.69412 0.0
C1088 C 0.51315 0.83818 0.69157 0.0
C1089 C 0.51282 0.81577 0.71226 0.0
C1090 C 0.51976 0.91757 0.63663 0.0
C1091 C 0.49404 0.93327 0.63231 0.0
C1092 C 0.5202 0.8945 0.65698 0.0
C1093 C 0.49454 0.886 0.67244 0.0
C1094 C 0.46881 0.90136 0.667 0.0
C1095 C 0.46881 0.92486 0.64805 0.0
H1096 H 0.55883 0.30011 0.78614 0.0
H1097 H 0.53388 0.35684 0.7151 0.0
H1098 H 0.55137 0.33945 0.82196 0.0
H1099 H 0.52664 0.39619 0.7506 0.0
H1100 H 0.55638 0.46144 0.83034 0.0
H1101 H 0.55637 0.42748 0.78859 0.0
H1102 H 0.50464 0.36565 0.83835 0.0
H1103 H 0.50436 0.3999 0.87993 0.0
C1104 C 0.55287 0.32133 0.7782 0.0
C1105 C 0.54774 0.32587 0.74797 0.0
C1106 C 0.54794 0.34358 0.7986 0.0
C1107 C 0.53786 0.37064 0.78898 0.0
C1108 C 0.53431 0.37556 0.75858 0.0
C1109 C 0.53888 0.35323 0.73829 0.0
C1110 C 0.54333 0.4414 0.83154 0.0
C1111 C 0.53021 0.43332 0.85819 0.0
C1112 C 0.54381 0.42172 0.80788 0.0
C1113 C 0.53136 0.39365 0.81074 0.0
C1114 C 0.51499 0.38698 0.83594 0.0
C1115 C 0.51413 0.40687 0.85942 0.0
H1116 H 0.51653 0.17672 0.72759 0.0
H1117 H 0.46199 0.23022 0.78124 0.0
H1118 H 0.51696 0.13966 0.76624 0.0
H1119 H 0.46329 0.19348 0.82042 0.0
H1120 H 0.50131 0.1398 0.89472 0.0
H1121 H 0.51179 0.17128 0.85278 0.0
H1122 H 0.47065 0.10763 0.79348 0.0
H1123 H 0.45911 0.07665 0.83566 0.0
C1124 C 0.50443 0.18038 0.74761 0.0
C1125 C 0.48892 0.20611 0.75142 0.0
C1126 C 0.50486 0.15929 0.76968 0.0
C1127 C 0.49056 0.16399 0.79634 0.0
C1128 C 0.47477 0.18959 0.80009 0.0
C1129 C 0.47368 0.21037 0.77764 0.0
C1130 C 0.49632 0.13162 0.87256 0.0
C1131 C 0.47964 0.10564 0.86843 0.0
C1132 C 0.50163 0.14999 0.84865 0.0
C1133 C 0.49136 0.14208 0.82012 0.0
C1134 C 0.47864 0.11422 0.81535 0.0
C1135 C 0.47267 0.09617 0.83941 0.0
H1136 H 0.77869 0.53011 0.65191 0.0
H1137 H 0.7111 0.55919 0.70976 0.0
H1138 H 0.74218 0.52398 0.61132 0.0
H1139 H 0.67438 0.5525 0.66933 0.0
H1140 H 0.61153 0.50996 0.60764 0.0
H1141 H 0.65542 0.50321 0.63858 0.0
H1142 H 0.70507 0.56119 0.58273 0.0
H1143 H 0.66077 0.56875 0.55254 0.0
C1144 C 0.75611 0.53599 0.65557 0.0
C1145 C 0.74766 0.54597 0.68353 0.0
C1146 C 0.73528 0.53204 0.63257 0.0
C1147 C 0.70555 0.5372 0.63749 0.0
C1148 C 0.69721 0.54792 0.66525 0.0
C1149 C 0.71818 0.55239 0.68811 0.0
C1150 C 0.63232 0.51952 0.60062 0.0
C1151 C 0.63267 0.54062 0.57839 0.0
C1152 C 0.65724 0.51626 0.61883 0.0
C1153 C 0.68311 0.53267 0.6136 0.0
C1154 C 0.68515 0.5487 0.58745 0.0
C1155 C 0.65995 0.55246 0.56969 0.0
H1156 H 0.25115 0.036 0.67664 0.0
H1157 H 0.26059 0.94372 0.68896 0.0
H1158 H 0.28737 0.03585 0.63838 0.0
H1159 H 0.29792 0.94377 0.65049 0.0
H1160 H 0.35551 0.94697 0.5725 0.0
H1161 H 0.30878 0.95044 0.59785 0.0
H1162 H 0.33955 0.03183 0.63746 0.0
H1163 H 0.38579 0.02824 0.61188 0.0
C1164 C 0.26096 0.01552 0.67122 0.0
C1165 C 0.25312 0.98984 0.6863 0.0
C1166 C 0.28185 0.01554 0.64914 0.0
C1167 C 0.29577 0.98992 0.64136 0.0
C1168 C 0.28737 0.9639 0.65568 0.0
C1169 C 0.26618 0.96385 0.67792 0.0
C1170 C 0.35136 0.9666 0.58496 0.0
C1171 C 0.37412 0.98761 0.58984 0.0
C1172 C 0.32495 0.96813 0.60025 0.0
C1173 C 0.32065 0.99099 0.62033 0.0
C1174 C 0.34194 0.01389 0.62214 0.0
C1175 C 0.36834 0.01223 0.60695 0.0
H1176 H 0.755 0.45034 0.81955 0.0
H1177 H 0.71294 0.51948 0.7725 0.0
H1178 H 0.71801 0.4533 0.85815 0.0
H1179 H 0.67653 0.52295 0.81094 0.0
H1180 H 0.60052 0.49831 0.87455 0.0
H1181 H 0.63539 0.49924 0.83438 0.0
H1182 H 0.70707 0.48799 0.89734 0.0
H1183 H 0.67197 0.48638 0.9374 0.0
C1184 C 0.73732 0.46548 0.81706 0.0
C1185 C 0.73653 0.48443 0.79301 0.0
C1186 C 0.71652 0.46768 0.83938 0.0
C1187 C 0.69462 0.48879 0.83789 0.0
C1188 C 0.69298 0.50647 0.81283 0.0
C1189 C 0.71376 0.50437 0.79074 0.0
C1190 C 0.62386 0.49759 0.87999 0.0
C1191 C 0.63356 0.49252 0.90918 0.0
C1192 C 0.64386 0.49758 0.85687 0.0
C1193 C 0.67393 0.49276 0.86257 0.0
C1194 C 0.68394 0.49082 0.89211 0.0
C1195 C 0.66396 0.49071 0.91516 0.0
H1196 H 0.29298 0.04357 0.78177 0.0
H1197 H 0.22241 0.03645 0.8437 0.0
H1198 H 0.32915 0.03939 0.82242 0.0
H1199 H 0.25838 0.03201 0.88455 0.0
H1200 H 0.33834 0.07013 0.94401 0.0
H1201 H 0.29648 0.06286 0.90994 0.0
H1202 H 0.34648 1.00286 0.85864 0.0
H1203 H 0.38859 0.01047 0.89285 0.0
C1204 C 0.28538 0.04178 0.80425 0.0
C1205 C 0.25523 0.04128 0.81001 0.0
C1206 C 0.30591 0.03871 0.8274 0.0
C1207 C 0.29654 0.03492 0.85663 0.0
C1208 C 0.26624 0.03491 0.86229 0.0
C1209 C 0.24573 0.03781 0.83909 0.0
C1210 C 0.33979 0.05423 0.92632 0.0
C1211 C 0.3666 0.04095 0.92089 0.0
C1212 C 0.31591 0.05023 0.90665 0.0
C1213 C 0.31857 0.03296 0.88116 0.0
C1214 C 0.34415 0.01684 0.87779 0.0
C1215 C 0.36803 0.0207 0.89767 0.0
H1216 H 0.661 0.79169 0.53774 0.0
H1217 H 0.71491 0.72314 0.57109 0.0
H1218 H 0.61866 0.75756 0.53284 0.0
H1219 H 0.6726 0.68872 0.56562 0.0
H1220 H 0.60547 0.6326 0.51189 0.0
H1221 H 0.64236 0.67246 0.51321 0.0
H1222 H 0.58784 0.7212 0.57139 0.0
H1223 H 0.55143 0.6808 0.57099 0.0
C1224 C 0.6634 0.76947 0.54495 0.0
C1225 C 0.69082 0.76001 0.55552 0.0
C1226 C 0.63936 0.74999 0.5418 0.0
C1227 C 0.64265 0.72061 0.54845 0.0
C1228 C 0.66977 0.71132 0.56007 0.0
C1229 C 0.69373 0.73098 0.56372 0.0
C1230 C 0.60063 0.65246 0.52363 0.0
C1231 C 0.57546 0.6539 0.541 0.0
C1232 C 0.622 0.67494 0.52491 0.0
C1233 C 0.61804 0.69945 0.54291 0.0
C1234 C 0.59134 0.70238 0.5575 0.0
C1235 C 0.57033 0.67956 0.55685 0.0
H1236 H 0.71609 0.29731 0.9639 0.0
H1237 H 0.66719 0.25056 0.03009 0.0
H1238 H 0.67709 0.33332 0.96129 0.0
H1239 H 0.62808 0.28594 0.02673 0.0
H1240 H 0.56041 0.34093 0.95589 0.0
H1241 H 0.59415 0.30341 0.97205 0.0
H1242 H 0.65259 0.36943 0.0108 0.0
H1243 H 0.6182 0.4068 0.99586 0.0
C1244 C 0.69693 0.29455 0.97755 0.0
C1245 C 0.69466 0.27116 0.99712 0.0
C1246 C 0.67482 0.31522 0.9763 0.0
C1247 C 0.64986 0.31241 0.9941 0.0
C1248 C 0.64722 0.28864 0.01303 0.0
C1249 C 0.66957 0.26844 0.01481 0.0
C1250 C 0.57927 0.34719 0.96988 0.0
C1251 C 0.58645 0.37675 0.97492 0.0
C1252 C 0.59894 0.3258 0.97848 0.0
C1253 C 0.62618 0.33376 0.99194 0.0
C1254 C 0.63178 0.36288 1.00018 0.0
C1255 C 0.6117 0.38416 0.99229 0.0
H1256 H 0.28622 0.22708 0.95189 0.0
H1257 H 0.32288 0.26005 0.03502 0.0
H1258 H 0.32236 0.18815 0.95286 0.0
H1259 H 0.35837 0.22179 0.03585 0.0
H1260 H 0.44055 0.17352 1.0013 0.0
H1261 H 0.4022 0.20921 0.00626 0.0
H1262 H 0.33578 0.14308 0.98419 0.0
H1263 H 0.37429 0.10718 0.98004 0.0
C1264 C 0.30192 0.22612 0.97022 0.0
C1265 C 0.30153 0.2467 0.99334 0.0
C1266 C 0.32242 0.20371 0.97096 0.0
C1267 C 0.34316 0.20182 0.99456 0.0
C1268 C 0.34283 0.22262 0.01735 0.0
C1269 C 0.32231 0.24456 0.01683 0.0
C1270 C 0.41767 0.16628 0.99915 0.0
C1271 C 0.41047 0.13734 0.99119 0.0
C1272 C 0.39567 0.18682 1.00143 0.0
C1273 C 0.36594 0.17908 0.99516 0.0
C1274 C 0.35851 0.14979 0.98882 0.0
C1275 C 0.38051 0.12907 0.98717 0.0
H1276 H 0.78188 0.30846 0.05668 0.0
H1277 H 0.84344 0.24008 0.06982 0.0
H1278 H 0.82281 0.34362 0.05156 0.0
H1279 H 0.88462 0.27489 0.06396 0.0
H1280 H 0.94552 0.35716 0.08506 0.0
H1281 H 0.9101 0.31655 0.08624 0.0
H1282 H 0.85995 0.3549 0.015 0.0
H1283 H 0.89528 0.39606 0.01448 0.0
C1284 C 0.80427 0.30127 0.05958 0.0
C1285 C 0.80969 0.27196 0.06477 0.0
C1286 C 0.8277 0.32114 0.05583 0.0
C1287 C 0.85699 0.31193 0.0567 0.0
C1288 C 0.86235 0.28272 0.06323 0.0
C1289 C 0.83887 0.26288 0.06709 0.0
C1290 C 0.92764 0.35619 0.06874 0.0
C1291 C 0.923 0.37971 0.04977 0.0
C1292 C 0.90718 0.33304 0.06958 0.0
C1293 C 0.8817 0.33299 0.05139 0.0
C1294 C 0.87895 0.35482 0.02992 0.0
C1295 C 0.89952 0.37804 0.02908 0.0
loop_
_geom_bond_atom_site_label_1
_geom_bond_atom_site_label_2
_geom_bond_distance
_geom_bond_site_symmetry_2
_ccdc_geom_bond_type
C0 O2 1.247 . S
C0 O4 1.258 . S
C1 O8 1.247 . S
C1 O9 1.258 . S
O2 C0 1.247 . S
O2 Zn3 2.028 . S
Zn3 O2 2.028 . S
Zn3 O7 2.035 . S
Zn3 O9 2.035 . S
Zn3 O10 2.028 . S
O4 C0 1.258 . S
O4 Zn5 2.049 . S
Zn5 O4 2.049 . S
Zn5 O6 2.029 . S
Zn5 O8 2.028 . S
Zn5 O11 2.048 . S
O6 Zn5 2.029 . S
O6 C12 1.247 . S
O7 Zn3 2.035 . S
O7 C12 1.258 . S
O8 C1 1.247 . S
O8 Zn5 2.028 . S
O9 C1 1.258 . S
O9 Zn3 2.035 . S
O10 Zn3 2.028 . S
O10 C13 1.247 . S
O11 Zn5 2.048 . S
O11 C13 1.258 . S
C12 O6 1.247 . S
C12 O7 1.258 . S
C13 O10 1.247 . S
C13 O11 1.258 . S
C14 O16 1.247 . S
C14 O18 1.258 1_455 S
C15 O22 1.247 1_455 S
C15 O23 1.258 . S
O16 C14 1.247 . S
O16 Zn17 2.028 . S
Zn17 O16 2.028 . S
Zn17 O21 2.035 . S
Zn17 O23 2.035 . S
Zn17 O24 2.028 . S
O18 C14 1.258 1_655 S
O18 Zn19 2.035 . S
Zn19 O18 2.035 . S
Zn19 O20 2.028 . S
Zn19 O22 2.028 . S
Zn19 O25 2.035 . S
O20 Zn19 2.028 . S
O20 C26 1.247 1_655 S
O21 Zn17 2.035 . S
O21 C26 1.258 . S
O22 C15 1.247 1_655 S
O22 Zn19 2.028 . S
O23 C15 1.258 . S
O23 Zn17 2.035 . S
O24 Zn17 2.028 . S
O24 C27 1.247 . S
O25 Zn19 2.035 . S
O25 C27 1.258 1_655 S
C26 O20 1.247 1_455 S
C26 O21 1.258 . S
C27 O24 1.247 . S
C27 O25 1.258 1_455 S
C28 O30 1.247 1_545 S
C28 O32 1.258 . S
C29 O36 1.247 1_565 S
C29 O37 1.258 . S
O30 C28 1.247 1_565 S
O30 Zn31 2.028 . S
Zn31 O30 2.028 . S
Zn31 O35 2.035 . S
Zn31 O37 2.035 . S
Zn31 O38 2.028 . S
O32 C28 1.258 . S
O32 Zn33 2.035 . S
Zn33 O32 2.035 . S
Zn33 O34 2.028 . S
Zn33 O36 2.028 . S
Zn33 O39 2.035 . S
O34 Zn33 2.028 . S
O34 C40 1.247 1_545 S
O35 Zn31 2.035 . S
O35 C40 1.258 . S
O36 C29 1.247 1_545 S
O36 Zn33 2.028 . S
O37 C29 1.258 . S
O37 Zn31 2.035 . S
O38 Zn31 2.028 . S
O38 C41 1.247 1_565 S
O39 Zn33 2.035 . S
O39 C41 1.258 . S
C40 O34 1.247 1_565 S
C40 O35 1.258 . S
C41 O38 1.247 1_545 S
C41 O39 1.258 . S
C42 O44 1.247 . S
C42 O46 1.258 . S
C43 O50 1.247 . S
C43 O51 1.258 . S
O44 C42 1.247 . S
O44 Zn45 2.028 . S
Zn45 O44 2.028 . S
Zn45 O49 2.035 . S
Zn45 O51 2.035 . S
Zn45 O52 2.028 . S
O46 C42 1.258 . S
O46 Zn47 2.035 . S
Zn47 O46 2.035 . S
Zn47 O48 2.028 . S
Zn47 O50 2.028 . S
Zn47 O53 2.035 . S
O48 Zn47 2.028 . S
O48 C54 1.247 . S
O49 Zn45 2.035 . S
O49 C54 1.258 . S
O50 C43 1.247 . S
O50 Zn47 2.028 . S
O51 C43 1.258 . S
O51 Zn45 2.035 . S
O52 Zn45 2.028 . S
O52 C55 1.247 . S
O53 Zn47 2.035 . S
O53 C55 1.258 . S
C54 O48 1.247 . S
C54 O49 1.258 . S
C55 O52 1.247 . S
C55 O53 1.258 . S
C56 O58 1.247 . S
C56 O60 1.258 . S
C57 O64 1.247 . S
C57 O65 1.258 1_554 S
O58 C56 1.247 . S
O58 Zn59 2.028 1_554 S
Zn59 O58 2.028 1_556 S
Zn59 O63 2.035 . S
Zn59 O65 2.035 . S
Zn59 O66 2.028 1_556 S
O60 C56 1.258 . S
O60 Zn61 2.035 . S
Zn61 O60 2.035 . S
Zn61 O62 2.028 . S
Zn61 O64 2.028 . S
Zn61 O67 2.035 . S
O62 Zn61 2.028 . S
O62 C68 1.247 . S
O63 Zn59 2.035 . S
O63 C68 1.258 1_556 S
O64 C57 1.247 . S
O64 Zn61 2.028 . S
O65 C57 1.258 1_556 S
O65 Zn59 2.035 . S
O66 Zn59 2.028 1_554 S
O66 C69 1.247 . S
O67 Zn61 2.035 . S
O67 C69 1.258 . S
C68 O62 1.247 . S
C68 O63 1.258 1_554 S
C69 O66 1.247 . S
C69 O67 1.258 . S
C70 O72 1.247 . S
C70 O74 1.258 . S
C71 O78 1.247 . S
C71 O79 1.258 . S
O72 C70 1.247 . S
O72 Zn73 2.028 . S
Zn73 O72 2.028 . S
Zn73 O77 2.035 . S
Zn73 O79 2.035 . S
Zn73 O80 2.028 . S
O74 C70 1.258 . S
O74 Zn75 2.035 . S
Zn75 O74 2.035 . S
Zn75 O76 2.028 . S
Zn75 O78 2.028 . S
Zn75 O81 2.035 . S
O76 Zn75 2.028 . S
O76 C82 1.247 . S
O77 Zn73 2.035 . S
O77 C82 1.258 . S
O78 C71 1.247 . S
O78 Zn75 2.028 . S
O79 C71 1.258 . S
O79 Zn73 2.035 . S
O80 Zn73 2.028 . S
O80 C83 1.247 . S
O81 Zn75 2.035 . S
O81 C83 1.258 . S
C82 O76 1.247 . S
C82 O77 1.258 . S
C83 O80 1.247 . S
C83 O81 1.258 . S
C84 O86 1.247 . S
C84 O88 1.258 . S
C85 O92 1.247 . S
C85 O93 1.258 . S
O86 C84 1.247 . S
O86 Zn87 2.028 . S
Zn87 O86 2.028 . S
Zn87 O91 2.035 . S
Zn87 O93 2.035 . S
Zn87 O94 2.028 . S
O88 C84 1.258 . S
O88 Zn89 2.035 . S
Zn89 O88 2.035 . S
Zn89 O90 2.028 . S
Zn89 O92 2.028 . S
Zn89 O95 2.035 . S
O90 Zn89 2.028 . S
O90 C96 1.247 . S
O91 Zn87 2.035 . S
O91 C96 1.258 . S
O92 C85 1.247 . S
O92 Zn89 2.028 . S
O93 C85 1.258 . S
O93 Zn87 2.035 . S
O94 Zn87 2.028 . S
O94 C97 1.247 . S
O95 Zn89 2.035 . S
O95 C97 1.258 . S
C96 O90 1.247 . S
C96 O91 1.258 . S
C97 O94 1.247 . S
C97 O95 1.258 . S
C98 O100 1.247 . S
C98 O102 1.258 . S
C99 O106 1.247 . S
C99 O107 1.258 . S
O100 C98 1.247 . S
O100 Zn101 2.028 . S
Zn101 O100 2.028 . S
Zn101 O105 2.035 . S
Zn101 O107 2.035 . S
Zn101 O108 2.028 . S
O102 C98 1.258 . S
O102 Zn103 2.035 . S
Zn103 O102 2.035 . S
Zn103 O104 2.028 . S
Zn103 O106 2.028 . S
Zn103 O109 2.035 . S
O104 Zn103 2.028 . S
O104 C110 1.247 . S
O105 Zn101 2.035 . S
O105 C110 1.258 . S
O106 C99 1.247 . S
O106 Zn103 2.028 . S
O107 C99 1.258 . S
O107 Zn101 2.035 . S
O108 Zn101 2.028 . S
O108 C111 1.247 . S
O109 Zn103 2.035 . S
O109 C111 1.258 . S
C110 O104 1.247 . S
C110 O105 1.258 . S
C111 O108 1.247 . S
C111 O109 1.258 . S
C112 O114 1.247 . S
C112 O116 1.258 . S
C113 O120 1.247 . S
C113 O121 1.258 . S
O114 C112 1.247 . S
O114 Zn115 2.028 . S
Zn115 O114 2.028 . S
Zn115 O119 2.035 . S
Zn115 O121 2.035 . S
Zn115 O122 2.028 . S
O116 C112 1.258 . S
O116 Zn117 2.035 . S
Zn117 O116 2.035 . S
Zn117 O118 2.028 . S
Zn117 O120 2.028 . S
Zn117 O123 2.035 . S
O118 Zn117 2.028 . S
O118 C124 1.247 . S
O119 Zn115 2.035 . S
O119 C124 1.258 . S
O120 C113 1.247 . S
O120 Zn117 2.028 . S
O121 C113 1.258 . S
O121 Zn115 2.035 . S
O122 Zn115 2.028 . S
O122 C125 1.247 . S
O123 Zn117 2.035 . S
O123 C125 1.258 . S
C124 O118 1.247 . S
C124 O119 1.258 . S
C125 O122 1.247 . S
C125 O123 1.258 . S
C126 O128 1.247 . S
C126 O130 1.258 . S
C127 O134 1.247 . S
C127 O135 1.258 . S
O128 C126 1.247 . S
O128 Zn129 2.028 . S
Zn129 O128 2.028 . S
Zn129 O133 2.035 . S
Zn129 O135 2.035 . S
Zn129 O136 2.028 . S
O130 C126 1.258 . S
O130 Zn131 2.035 . S
Zn131 O130 2.035 . S
Zn131 O132 2.028 . S
Zn131 O134 2.028 . S
Zn131 O137 2.035 . S
O132 Zn131 2.028 . S
O132 C138 1.247 . S
O133 Zn129 2.035 . S
O133 C138 1.258 . S
O134 C127 1.247 . S
O134 Zn131 2.028 . S
O135 C127 1.258 . S
O135 Zn129 2.035 . S
O136 Zn129 2.028 . S
O136 C139 1.247 . S
O137 Zn131 2.035 . S
O137 C139 1.258 . S
C138 O132 1.247 . S
C138 O133 1.258 . S
C139 O136 1.247 . S
C139 O137 1.258 . S
C140 O142 1.247 . S
C140 O144 1.258 1_565 S
C141 O148 1.247 . S
C141 O149 1.258 1_545 S
O142 C140 1.247 . S
O142 Zn143 2.028 . S
Zn143 O142 2.028 . S
Zn143 O147 2.035 . S
Zn143 O149 2.035 . S
Zn143 O150 2.028 . S
O144 C140 1.258 1_545 S
O144 Zn145 2.035 . S
Zn145 O144 2.035 . S
Zn145 O146 2.028 . S
Zn145 O148 2.028 . S
Zn145 O151 2.035 . S
O146 Zn145 2.028 . S
O146 C152 1.247 . S
O147 Zn143 2.035 . S
O147 C152 1.258 1_565 S
O148 C141 1.247 . S
O148 Zn145 2.028 . S
O149 C141 1.258 1_565 S
O149 Zn143 2.035 . S
O150 Zn143 2.028 . S
O150 C153 1.247 . S
O151 Zn145 2.035 . S
O151 C153 1.258 1_545 S
C152 O146 1.247 . S
C152 O147 1.258 1_545 S
C153 O150 1.247 . S
C153 O151 1.258 1_565 S
C154 O156 1.247 . S
C154 O158 1.258 1_554 S
C155 O162 1.247 . S
C155 O163 1.258 . S
O156 C154 1.247 . S
O156 Zn157 2.028 . S
Zn157 O156 2.028 . S
Zn157 O161 2.035 . S
Zn157 O163 2.035 . S
Zn157 O164 2.028 . S
O158 C154 1.258 1_556 S
O158 Zn159 2.035 . S
Zn159 O158 2.035 . S
Zn159 O160 2.028 1_556 S
Zn159 O162 2.028 1_556 S
Zn159 O165 2.035 . S
O160 Zn159 2.028 1_554 S
O160 C166 1.247 . S
O161 Zn157 2.035 . S
O161 C166 1.258 . S
O162 C155 1.247 . S
O162 Zn159 2.028 1_554 S
O163 C155 1.258 . S
O163 Zn157 2.035 . S
O164 Zn157 2.028 . S
O164 C167 1.247 . S
O165 Zn159 2.035 . S
O165 C167 1.258 1_556 S
C166 O160 1.247 . S
C166 O161 1.258 . S
C167 O164 1.247 . S
C167 O165 1.258 1_554 S
O168 Mn169 2.163 . S
O168 C182 1.244 . S
Mn169 O168 2.163 . S
Mn169 O172 2.157 1_554 S
Mn169 O173 2.236 . S
Mn169 O175 2.163 . S
Mn169 O177 2.160 . S
Mn169 O187 2.221 . S
O170 Mn171 2.087 . S
O170 C182 1.256 . S
Mn171 O170 2.087 . S
Mn171 O178 2.089 . S
Mn171 O187 2.290 . S
Mn171 O188 2.251 . S
O172 Mn169 2.157 1_556 S
O172 C183 1.241 . S
O173 Mn169 2.236 . S
O173 Mn174 2.286 1_454 S
O173 C184 1.261 1_455 S
Mn174 O173 2.286 1_656 S
Mn174 O176 2.089 1_655 S
Mn174 O179 2.251 1_556 S
Mn174 O180 2.087 1_546 S
O175 Mn169 2.163 . S
O175 C185 1.244 1_545 S
O176 Mn174 2.089 1_455 S
O176 C183 1.256 . S
O177 Mn169 2.160 . S
O177 C186 1.239 . S
O178 Mn171 2.089 . S
O178 C186 1.256 . S
O179 Mn174 2.251 1_554 S
O179 C184 1.241 . S
O180 Mn174 2.087 1_564 S
O180 C185 1.256 1_655 S
C181 O187 1.278 . S
C181 O188 1.241 . S
C182 O168 1.244 . S
C182 O170 1.256 . S
C183 O172 1.241 . S
C183 O176 1.256 . S
C184 O173 1.261 1_655 S
C184 O179 1.241 . S
C185 O175 1.244 1_565 S
C185 O180 1.256 1_455 S
C186 O177 1.239 . S
C186 O178 1.256 . S
O187 Mn169 2.221 . S
O187 Mn171 2.290 . S
O187 C181 1.278 . S
O188 Mn171 2.251 . S
O188 C181 1.241 . S
O189 Mn190 2.163 . S
O189 C203 1.244 . S
Mn190 O189 2.163 . S
Mn190 O193 2.160 . S
Mn190 O194 2.221 . S
Mn190 O196 2.163 . S
Mn190 O198 2.160 . S
Mn190 O208 2.221 . S
O191 Mn192 2.087 . S
O191 C203 1.256 . S
Mn192 O191 2.087 . S
Mn192 O199 2.089 . S
Mn192 O208 2.290 . S
Mn192 O209 2.251 . S
O193 Mn190 2.160 . S
O193 C204 1.239 1_554 S
O194 Mn190 2.221 . S
O194 Mn195 2.288 1_654 S
O194 C205 1.278 1_655 S
Mn195 O194 2.288 1_456 S
Mn195 O197 2.080 1_455 S
Mn195 O200 2.258 1_556 S
Mn195 O201 2.086 1_456 S
O196 Mn190 2.163 . S
O196 C206 1.244 . S
O197 Mn195 2.080 1_655 S
O197 C204 1.256 . S
O198 Mn190 2.160 . S
O198 C207 1.239 . S
O199 Mn192 2.089 . S
O199 C207 1.256 . S
O200 Mn195 2.258 1_554 S
O200 C205 1.241 . S
O201 Mn195 2.086 1_654 S
O201 C206 1.256 . S
C202 O208 1.278 . S
C202 O209 1.241 . S
C203 O189 1.244 . S
C203 O191 1.256 . S
C204 O193 1.239 1_556 S
C204 O197 1.256 . S
C205 O194 1.278 1_455 S
C205 O200 1.241 . S
C206 O196 1.244 . S
C206 O201 1.256 . S
C207 O198 1.239 . S
C207 O199 1.256 . S
O208 Mn190 2.221 . S
O208 Mn192 2.290 . S
O208 C202 1.278 . S
O209 Mn192 2.251 . S
O209 C202 1.241 . S
O210 Mn211 2.163 . S
O210 C224 1.244 . S
Mn211 O210 2.163 . S
Mn211 O214 2.160 . S
Mn211 O215 2.221 . S
Mn211 O217 2.163 . S
Mn211 O219 2.160 . S
Mn211 O229 2.221 . S
O212 Mn213 2.087 . S
O212 C224 1.256 . S
Mn213 O212 2.087 . S
Mn213 O220 2.089 . S
Mn213 O229 2.290 . S
Mn213 O230 2.251 . S
O214 Mn211 2.160 . S
O214 C225 1.239 1_455 S
O215 Mn211 2.221 . S
O215 Mn216 2.290 1_565 S
O215 C226 1.278 1_565 S
Mn216 O215 2.290 1_545 S
Mn216 O218 2.089 1_445 S
Mn216 O221 2.251 . S
Mn216 O222 2.087 . S
O217 Mn211 2.163 . S
O217 C227 1.244 . S
O218 Mn216 2.089 1_665 S
O218 C225 1.256 . S
O219 Mn211 2.160 . S
O219 C228 1.239 . S
O220 Mn213 2.089 . S
O220 C228 1.256 . S
O221 Mn216 2.251 . S
O221 C226 1.241 . S
O222 Mn216 2.087 . S
O222 C227 1.256 1_545 S
C223 O229 1.278 . S
C223 O230 1.241 . S
C224 O210 1.244 . S
C224 O212 1.256 . S
C225 O214 1.239 1_655 S
C225 O218 1.256 . S
C226 O215 1.278 1_545 S
C226 O221 1.241 . S
C227 O217 1.244 . S
C227 O222 1.256 1_565 S
C228 O219 1.239 . S
C228 O220 1.256 . S
O229 Mn211 2.221 . S
O229 Mn213 2.290 . S
O229 C223 1.278 . S
O230 Mn213 2.251 . S
O230 C223 1.241 . S
O231 Mn232 2.163 . S
O231 C245 1.244 . S
Mn232 O231 2.163 . S
Mn232 O235 2.160 . S
Mn232 O236 2.221 . S
Mn232 O238 2.163 . S
Mn232 O240 2.160 . S
Mn232 O250 2.221 . S
O233 Mn234 2.087 . S
O233 C245 1.256 . S
Mn234 O233 2.087 . S
Mn234 O241 2.089 . S
Mn234 O250 2.290 . S
Mn234 O251 2.251 . S
O235 Mn232 2.160 . S
O235 C246 1.239 . S
O236 Mn232 2.221 . S
O236 Mn237 2.290 . S
O236 C247 1.278 . S
Mn237 O236 2.290 . S
Mn237 O239 2.089 . S
Mn237 O242 2.251 . S
Mn237 O243 2.087 1_655 S
O238 Mn232 2.163 . S
O238 C248 1.244 1_655 S
O239 Mn237 2.089 . S
O239 C246 1.256 . S
O240 Mn232 2.160 . S
O240 C249 1.239 . S
O241 Mn234 2.089 . S
O241 C249 1.256 . S
O242 Mn237 2.251 . S
O242 C247 1.241 . S
O243 Mn237 2.087 1_455 S
O243 C248 1.256 . S
C244 O250 1.278 . S
C244 O251 1.241 . S
C245 O231 1.244 . S
C245 O233 1.256 . S
C246 O235 1.239 . S
C246 O239 1.256 . S
C247 O236 1.278 . S
C247 O242 1.241 . S
C248 O238 1.244 1_455 S
C248 O243 1.256 . S
C249 O240 1.239 . S
C249 O241 1.256 . S
O250 Mn232 2.221 . S
O250 Mn234 2.290 . S
O250 C244 1.278 . S
O251 Mn234 2.251 . S
O251 C244 1.241 . S
O252 Mn253 2.163 . S
O252 C266 1.244 . S
Mn253 O252 2.163 . S
Mn253 O256 2.160 . S
Mn253 O257 2.221 . S
Mn253 O259 2.163 . S
Mn253 O261 2.160 . S
Mn253 O271 2.221 . S
O254 Mn255 2.087 . S
O254 C266 1.256 . S
Mn255 O254 2.087 . S
Mn255 O262 2.089 . S
Mn255 O271 2.290 . S
Mn255 O272 2.251 . S
O256 Mn253 2.160 . S
O256 C267 1.239 . S
O257 Mn253 2.221 . S
O257 Mn258 2.290 . S
O257 C268 1.278 . S
Mn258 O257 2.290 . S
Mn258 O260 2.089 1_565 S
Mn258 O263 2.251 . S
Mn258 O264 2.087 1_565 S
O259 Mn253 2.163 . S
O259 C269 1.244 1_565 S
O260 Mn258 2.089 1_545 S
O260 C267 1.256 1_545 S
O261 Mn253 2.160 . S
O261 C270 1.239 . S
O262 Mn255 2.089 . S
O262 C270 1.256 . S
O263 Mn258 2.251 . S
O263 C268 1.241 . S
O264 Mn258 2.087 1_545 S
O264 C269 1.256 . S
C265 O271 1.278 . S
C265 O272 1.241 . S
C266 O252 1.244 . S
C266 O254 1.256 . S
C267 O256 1.239 . S
C267 O260 1.256 1_565 S
C268 O257 1.278 . S
C268 O263 1.241 . S
C269 O259 1.244 1_545 S
C269 O264 1.256 . S
C270 O261 1.239 . S
C270 O262 1.256 . S
O271 Mn253 2.221 . S
O271 Mn255 2.290 . S
O271 C265 1.278 . S
O272 Mn255 2.251 . S
O272 C265 1.241 . S
O273 Mn274 2.163 . S
O273 C287 1.244 . S
Mn274 O273 2.163 . S
Mn274 O277 2.160 . S
Mn274 O278 2.221 . S
Mn274 O280 2.163 . S
Mn274 O282 2.160 . S
Mn274 O292 2.221 . S
O275 Mn276 2.087 . S
O275 C287 1.256 . S
Mn276 O275 2.087 . S
Mn276 O283 2.089 . S
Mn276 O292 2.290 . S
Mn276 O293 2.251 . S
O277 Mn274 2.160 . S
O277 C288 1.239 . S
O278 Mn274 2.221 . S
O278 Mn279 2.290 . S
O278 C289 1.278 . S
Mn279 O278 2.290 . S
Mn279 O281 2.089 . S
Mn279 O284 2.251 . S
Mn279 O285 2.087 . S
O280 Mn274 2.163 . S
O280 C290 1.244 . S
O281 Mn279 2.089 . S
O281 C288 1.256 . S
O282 Mn274 2.160 . S
O282 C291 1.239 . S
O283 Mn276 2.089 . S
O283 C291 1.256 . S
O284 Mn279 2.251 . S
O284 C289 1.241 . S
O285 Mn279 2.087 . S
O285 C290 1.256 . S
C286 O292 1.278 . S
C286 O293 1.241 . S
C287 O273 1.244 . S
C287 O275 1.256 . S
C288 O277 1.239 . S
C288 O281 1.256 . S
C289 O278 1.278 . S
C289 O284 1.241 . S
C290 O280 1.244 . S
C290 O285 1.256 . S
C291 O282 1.239 . S
C291 O283 1.256 . S
O292 Mn274 2.221 . S
O292 Mn276 2.290 . S
O292 C286 1.278 . S
O293 Mn276 2.251 . S
O293 C286 1.241 . S
O294 Mn295 2.163 . S
O294 C308 1.244 . S
Mn295 O294 2.163 . S
Mn295 O298 2.160 . S
Mn295 O299 2.221 . S
Mn295 O301 2.163 . S
Mn295 O303 2.160 . S
Mn295 O313 2.221 . S
O296 Mn297 2.087 . S
O296 C308 1.256 . S
Mn297 O296 2.087 . S
Mn297 O304 2.089 . S
Mn297 O313 2.290 . S
Mn297 O314 2.251 . S
O298 Mn295 2.160 . S
O298 C309 1.239 . S
O299 Mn295 2.221 . S
O299 Mn300 2.290 . S
O299 C310 1.278 . S
Mn300 O299 2.290 . S
Mn300 O302 2.089 . S
Mn300 O305 2.251 . S
Mn300 O306 2.087 1_556 S
O301 Mn295 2.163 . S
O301 C311 1.244 1_556 S
O302 Mn300 2.089 . S
O302 C309 1.256 . S
O303 Mn295 2.160 . S
O303 C312 1.239 . S
O304 Mn297 2.089 . S
O304 C312 1.256 . S
O305 Mn300 2.251 . S
O305 C310 1.241 . S
O306 Mn300 2.087 1_554 S
O306 C311 1.256 . S
C307 O313 1.278 . S
C307 O314 1.241 . S
C308 O294 1.244 . S
C308 O296 1.256 . S
C309 O298 1.239 . S
C309 O302 1.256 . S
C310 O299 1.278 . S
C310 O305 1.241 . S
C311 O301 1.244 1_554 S
C311 O306 1.256 . S
C312 O303 1.239 . S
C312 O304 1.256 . S
O313 Mn295 2.221 . S
O313 Mn297 2.290 . S
O313 C307 1.278 . S
O314 Mn297 2.251 . S
O314 C307 1.241 . S
O315 Mn316 2.163 . S
O315 C329 1.244 . S
Mn316 O315 2.163 . S
Mn316 O319 2.160 . S
Mn316 O320 2.221 . S
Mn316 O322 2.163 . S
Mn316 O324 2.160 . S
Mn316 O334 2.221 . S
O317 Mn318 2.087 . S
O317 C329 1.256 . S
Mn318 O317 2.087 . S
Mn318 O325 2.089 . S
Mn318 O334 2.290 . S
Mn318 O335 2.251 . S
O319 Mn316 2.160 . S
O319 C330 1.239 . S
O320 Mn316 2.221 . S
O320 Mn321 2.285 1_556 S
O320 C331 1.278 1_556 S
Mn321 O320 2.285 1_554 S
Mn321 O323 2.064 1_544 S
Mn321 O326 2.267 . S
Mn321 O327 2.086 1_554 S
O322 Mn316 2.163 . S
O322 C332 1.244 . S
O323 Mn321 2.064 1_566 S
O323 C330 1.254 1_565 S
O324 Mn316 2.160 . S
O324 C333 1.239 . S
O325 Mn318 2.089 . S
O325 C333 1.256 . S
O326 Mn321 2.267 . S
O326 C331 1.241 . S
O327 Mn321 2.086 1_556 S
O327 C332 1.256 . S
C328 O334 1.278 . S
C328 O335 1.241 . S
C329 O315 1.244 . S
C329 O317 1.256 . S
C330 O319 1.239 . S
C330 O323 1.254 1_545 S
C331 O320 1.278 1_554 S
C331 O326 1.241 . S
C332 O322 1.244 . S
C332 O327 1.256 . S
C333 O324 1.239 . S
C333 O325 1.256 . S
O334 Mn316 2.221 . S
O334 Mn318 2.290 . S
O334 C328 1.278 . S
O335 Mn318 2.251 . S
O335 C328 1.241 . S
H336 C344 0.950 . S
H337 C349 0.950 . S
H338 C346 0.950 . S
H339 C348 0.950 . S
H340 C350 0.950 . S
H341 C352 0.950 . S
H342 C354 0.950 . S
H343 C355 0.950 . S
C344 H336 0.950 . S
C344 C345 1.386 . S
C344 C346 1.391 . S
C345 C344 1.386 . S
C345 C349 1.393 . S
C346 H338 0.950 . S
C346 C344 1.391 . S
C346 C347 1.400 . S
C347 C346 1.400 . S
C347 C348 1.398 . S
C347 C353 1.491 . S
C348 H339 0.950 . S
C348 C347 1.398 . S
C348 C349 1.391 . S
C349 H337 0.950 . S
C349 C345 1.393 . S
C349 C348 1.391 . S
C350 H340 0.950 . S
C350 C351 1.386 . S
C350 C352 1.391 . S
C351 C350 1.386 . S
C351 C355 1.393 . S
C352 H341 0.950 . S
C352 C350 1.391 . S
C352 C353 1.400 . S
C353 C347 1.491 . S
C353 C352 1.400 . S
C353 C354 1.398 . S
C354 H342 0.950 . S
C354 C353 1.398 . S
C354 C355 1.391 . S
C355 H343 0.950 . S
C355 C351 1.393 . S
C355 C354 1.391 . S
H356 C364 0.950 . S
H357 C369 0.968 . S
H358 C366 0.950 . S
H359 C368 0.950 . S
H360 C370 0.950 . S
H361 C372 0.950 . S
H362 C374 0.950 . S
H363 C375 0.950 . S
C364 H356 0.950 . S
C364 C365 1.386 . S
C364 C366 1.391 . S
C365 C364 1.386 . S
C365 C369 1.367 1_455 S
C366 H358 0.950 . S
C366 C364 1.391 . S
C366 C367 1.400 . S
C367 C366 1.400 . S
C367 C368 1.398 1_455 S
C367 C373 1.491 . S
C368 H359 0.950 . S
C368 C367 1.398 1_655 S
C368 C369 1.400 . S
C369 H357 0.968 . S
C369 C365 1.367 1_655 S
C369 C368 1.400 . S
C370 H360 0.950 . S
C370 C371 1.386 . S
C370 C372 1.391 . S
C371 C370 1.386 . S
C371 C375 1.393 1_655 S
C372 H361 0.950 . S
C372 C370 1.391 . S
C372 C373 1.400 1_655 S
C373 C367 1.491 . S
C373 C372 1.400 1_455 S
C373 C374 1.398 . S
C374 H362 0.950 . S
C374 C373 1.398 . S
C374 C375 1.391 . S
C375 H363 0.950 . S
C375 C371 1.393 1_455 S
C375 C374 1.391 . S
H376 C384 0.950 . S
H377 C389 0.947 1_655 S
H378 C386 0.950 . S
H379 C388 0.950 . S
H380 C390 0.950 . S
H381 C392 0.950 . S
H382 C394 0.950 . S
H383 C395 0.950 . S
C384 H376 0.950 . S
C384 C385 1.386 . S
C384 C386 1.391 . S
C385 C384 1.386 . S
C385 C389 1.396 . S
C386 H378 0.950 . S
C386 C384 1.391 . S
C386 C387 1.400 . S
C387 C386 1.400 . S
C387 C388 1.398 1_455 S
C387 C393 1.491 . S
C388 H379 0.950 . S
C388 C387 1.398 1_655 S
C388 C389 1.390 1_655 S
C389 H377 0.947 1_455 S
C389 C385 1.396 . S
C389 C388 1.390 1_455 S
C390 H380 0.950 . S
C390 C391 1.386 1_655 S
C390 C392 1.391 . S
C391 C390 1.386 1_455 S
C391 C395 1.393 . S
C392 H381 0.950 . S
C392 C390 1.391 . S
C392 C393 1.400 1_655 S
C393 C387 1.491 . S
C393 C392 1.400 1_455 S
C393 C394 1.398 . S
C394 H382 0.950 . S
C394 C393 1.398 . S
C394 C395 1.391 . S
C395 H383 0.950 . S
C395 C391 1.393 . S
C395 C394 1.391 . S
H396 C404 0.950 . S
H397 C409 0.950 . S
H398 C406 0.950 . S
H399 C408 0.950 . S
H400 C410 0.950 1_455 S
H401 C412 0.943 1_455 S
H402 C414 0.950 . S
H403 C415 0.950 . S
C404 H396 0.950 . S
C404 C405 1.386 1_655 S
C404 C406 1.391 . S
C405 C404 1.386 1_455 S
C405 C409 1.393 . S
C406 H398 0.950 . S
C406 C404 1.391 . S
C406 C407 1.400 . S
C407 C406 1.400 . S
C407 C408 1.398 1_655 S
C407 C413 1.491 . S
C408 H399 0.950 . S
C408 C407 1.398 1_455 S
C408 C409 1.391 . S
C409 H397 0.950 . S
C409 C405 1.393 . S
C409 C408 1.391 . S
C410 H400 0.950 1_655 S
C410 C411 1.386 . S
C410 C412 1.392 . S
C411 C410 1.386 . S
C411 C415 1.393 . S
C412 H401 0.943 1_655 S
C412 C410 1.392 . S
C412 C413 1.406 . S
C413 C407 1.491 . S
C413 C412 1.406 . S
C413 C414 1.398 . S
C414 H402 0.950 . S
C414 C413 1.398 . S
C414 C415 1.391 . S
C415 H403 0.950 . S
C415 C411 1.393 . S
C415 C414 1.391 . S
H416 C424 0.950 . S
H417 C429 0.950 . S
H418 C426 0.950 . S
H419 C428 0.950 . S
H420 C430 0.950 . S
H421 C432 0.950 . S
H422 C434 0.950 . S
H423 C435 0.950 . S
C424 H416 0.950 . S
C424 C425 1.386 . S
C424 C426 1.391 . S
C425 C424 1.386 . S
C425 C429 1.393 . S
C426 H418 0.950 . S
C426 C424 1.391 . S
C426 C427 1.400 . S
C427 C426 1.400 . S
C427 C428 1.398 . S
C427 C433 1.491 . S
C428 H419 0.950 . S
C428 C427 1.398 . S
C428 C429 1.391 . S
C429 H417 0.950 . S
C429 C425 1.393 . S
C429 C428 1.391 . S
C430 H420 0.950 . S
C430 C431 1.386 . S
C430 C432 1.391 . S
C431 C430 1.386 . S
C431 C435 1.393 . S
C432 H421 0.950 . S
C432 C430 1.391 . S
C432 C433 1.400 . S
C433 C427 1.491 . S
C433 C432 1.400 . S
C433 C434 1.398 . S
C434 H422 0.950 . S
C434 C433 1.398 . S
C434 C435 1.391 . S
C435 H423 0.950 . S
C435 C431 1.393 . S
C435 C434 1.391 . S
H436 C444 0.950 . S
H437 C449 0.950 . S
H438 C446 0.950 . S
H439 C448 0.950 . S
H440 C450 0.950 . S
H441 C452 0.950 . S
H442 C454 0.950 . S
H443 C455 0.950 . S
C444 H436 0.950 . S
C444 C445 1.386 . S
C444 C446 1.391 . S
C445 C444 1.386 . S
C445 C449 1.393 . S
C446 H438 0.950 . S
C446 C444 1.391 . S
C446 C447 1.400 . S
C447 C446 1.400 . S
C447 C448 1.398 . S
C447 C453 1.491 . S
C448 H439 0.950 . S
C448 C447 1.398 . S
C448 C449 1.391 . S
C449 H437 0.950 . S
C449 C445 1.393 . S
C449 C448 1.391 . S
C450 H440 0.950 . S
C450 C451 1.386 . S
C450 C452 1.391 . S
C451 C450 1.386 . S
C451 C455 1.393 . S
C452 H441 0.950 . S
C452 C450 1.391 . S
C452 C453 1.400 . S
C453 C447 1.491 . S
C453 C452 1.400 . S
C453 C454 1.398 . S
C454 H442 0.950 . S
C454 C453 1.398 . S
C454 C455 1.391 . S
C455 H443 0.950 . S
C455 C451 1.393 . S
C455 C454 1.391 . S
H456 C464 0.950 . S
H457 C469 0.950 . S
H458 C466 0.950 . S
H459 C468 0.950 . S
H460 C470 0.950 . S
H461 C472 0.950 . S
H462 C474 0.950 . S
H463 C475 0.950 . S
C464 H456 0.950 . S
C464 C465 1.386 1_545 S
C464 C466 1.391 . S
C465 C464 1.386 1_565 S
C465 C469 1.393 . S
C466 H458 0.950 . S
C466 C464 1.391 . S
C466 C467 1.400 1_545 S
C467 C466 1.400 1_565 S
C467 C468 1.398 . S
C467 C473 1.491 . S
C468 H459 0.950 . S
C468 C467 1.398 . S
C468 C469 1.391 . S
C469 H457 0.950 . S
C469 C465 1.393 . S
C469 C468 1.391 . S
C470 H460 0.950 . S
C470 C471 1.386 . S
C470 C472 1.391 . S
C471 C470 1.386 . S
C471 C475 1.393 1_565 S
C472 H461 0.950 . S
C472 C470 1.391 . S
C472 C473 1.400 . S
C473 C467 1.491 . S
C473 C472 1.400 . S
C473 C474 1.398 1_565 S
C474 H462 0.950 . S
C474 C473 1.398 1_545 S
C474 C475 1.391 . S
C475 H463 0.950 . S
C475 C471 1.393 1_545 S
C475 C474 1.391 . S
H476 C484 0.950 . S
H477 C489 0.950 . S
H478 C486 0.950 . S
H479 C488 0.950 . S
H480 C490 0.950 . S
H481 C492 0.950 . S
H482 C494 0.950 . S
H483 C495 0.950 . S
C484 H476 0.950 . S
C484 C485 1.386 . S
C484 C486 1.391 . S
C485 C484 1.386 . S
C485 C489 1.393 . S
C486 H478 0.950 . S
C486 C484 1.391 . S
C486 C487 1.400 . S
C487 C486 1.400 . S
C487 C488 1.398 . S
C487 C493 1.491 . S
C488 H479 0.950 . S
C488 C487 1.398 . S
C488 C489 1.391 . S
C489 H477 0.950 . S
C489 C485 1.393 . S
C489 C488 1.391 . S
C490 H480 0.950 . S
C490 C491 1.386 . S
C490 C492 1.391 . S
C491 C490 1.386 . S
C491 C495 1.393 . S
C492 H481 0.950 . S
C492 C490 1.391 . S
C492 C493 1.400 . S
C493 C487 1.491 . S
C493 C492 1.400 . S
C493 C494 1.398 . S
C494 H482 0.950 . S
C494 C493 1.398 . S
C494 C495 1.391 . S
C495 H483 0.950 . S
C495 C491 1.393 . S
C495 C494 1.391 . S
H496 C504 0.950 . S
H497 C509 0.950 . S
H498 C506 0.950 . S
H499 C508 0.950 . S
H500 C510 0.950 . S
H501 C512 0.950 . S
H502 C514 0.950 . S
H503 C515 0.950 . S
C504 H496 0.950 . S
C504 C505 1.386 . S
C504 C506 1.391 . S
C505 C504 1.386 . S
C505 C509 1.393 . S
C506 H498 0.950 . S
C506 C504 1.391 . S
C506 C507 1.400 . S
C507 C506 1.400 . S
C507 C508 1.398 . S
C507 C513 1.491 . S
C508 H499 0.950 . S
C508 C507 1.398 . S
C508 C509 1.391 . S
C509 H497 0.950 . S
C509 C505 1.393 . S
C509 C508 1.391 . S
C510 H500 0.950 . S
C510 C511 1.386 . S
C510 C512 1.391 . S
C511 C510 1.386 . S
C511 C515 1.393 . S
C512 H501 0.950 . S
C512 C510 1.391 . S
C512 C513 1.400 . S
C513 C507 1.491 . S
C513 C512 1.400 . S
C513 C514 1.398 . S
C514 H502 0.950 . S
C514 C513 1.398 . S
C514 C515 1.391 . S
C515 H503 0.950 . S
C515 C511 1.393 . S
C515 C514 1.391 . S
H516 C524 0.950 . S
H517 C529 0.950 . S
H518 C526 0.950 . S
H519 C528 0.950 . S
H520 C530 0.950 . S
H521 C532 0.950 . S
H522 C534 0.950 . S
H523 C535 0.950 . S
C524 H516 0.950 . S
C524 C525 1.386 . S
C524 C526 1.391 . S
C525 C524 1.386 . S
C525 C529 1.393 . S
C526 H518 0.950 . S
C526 C524 1.391 . S
C526 C527 1.400 . S
C527 C526 1.400 . S
C527 C528 1.398 . S
C527 C533 1.491 . S
C528 H519 0.950 . S
C528 C527 1.398 . S
C528 C529 1.391 . S
C529 H517 0.950 . S
C529 C525 1.393 . S
C529 C528 1.391 . S
C530 H520 0.950 . S
C530 C531 1.386 . S
C530 C532 1.391 . S
C531 C530 1.386 . S
C531 C535 1.393 . S
C532 H521 0.950 . S
C532 C530 1.391 . S
C532 C533 1.400 . S
C533 C527 1.491 . S
C533 C532 1.400 . S
C533 C534 1.398 . S
C534 H522 0.950 . S
C534 C533 1.398 . S
C534 C535 1.391 . S
C535 H523 0.950 . S
C535 C531 1.393 . S
C535 C534 1.391 . S
H536 C544 0.950 . S
H537 C549 0.950 . S
H538 C546 0.950 . S
H539 C548 0.950 . S
H540 C550 0.950 . S
H541 C552 0.950 . S
H542 C554 0.950 . S
H543 C555 0.950 . S
C544 H536 0.950 . S
C544 C545 1.386 . S
C544 C546 1.391 . S
C545 C544 1.386 . S
C545 C549 1.393 . S
C546 H538 0.950 . S
C546 C544 1.391 . S
C546 C547 1.400 . S
C547 C546 1.400 . S
C547 C548 1.398 . S
C547 C553 1.491 . S
C548 H539 0.950 . S
C548 C547 1.398 . S
C548 C549 1.391 . S
C549 H537 0.950 . S
C549 C545 1.393 . S
C549 C548 1.391 . S
C550 H540 0.950 . S
C550 C551 1.386 . S
C550 C552 1.391 . S
C551 C550 1.386 . S
C551 C555 1.393 . S
C552 H541 0.950 . S
C552 C550 1.391 . S
C552 C553 1.400 . S
C553 C547 1.491 . S
C553 C552 1.400 . S
C553 C554 1.398 . S
C554 H542 0.950 . S
C554 C553 1.398 . S
C554 C555 1.391 . S
C555 H543 0.950 . S
C555 C551 1.393 . S
C555 C554 1.391 . S
H556 C564 0.950 . S
H557 C569 0.950 . S
H558 C566 0.950 . S
H559 C568 0.950 . S
H560 C570 0.950 . S
H561 C572 0.950 . S
H562 C574 0.950 . S
H563 C575 0.950 . S
C564 H556 0.950 . S
C564 C565 1.386 . S
C564 C566 1.391 . S
C565 C564 1.386 . S
C565 C569 1.393 . S
C566 H558 0.950 . S
C566 C564 1.391 . S
C566 C567 1.400 . S
C567 C566 1.400 . S
C567 C568 1.398 . S
C567 C573 1.491 . S
C568 H559 0.950 . S
C568 C567 1.398 . S
C568 C569 1.391 . S
C569 H557 0.950 . S
C569 C565 1.393 . S
C569 C568 1.391 . S
C570 H560 0.950 . S
C570 C571 1.386 . S
C570 C572 1.391 . S
C571 C570 1.386 . S
C571 C575 1.393 . S
C572 H561 0.950 . S
C572 C570 1.391 . S
C572 C573 1.400 . S
C573 C567 1.491 . S
C573 C572 1.400 . S
C573 C574 1.398 . S
C574 H562 0.950 . S
C574 C573 1.398 . S
C574 C575 1.391 . S
C575 H563 0.950 . S
C575 C571 1.393 . S
C575 C574 1.391 . S
H576 C584 0.950 . S
H577 C589 0.950 . S
H578 C586 0.950 . S
H579 C588 0.950 . S
H580 C590 0.950 . S
H581 C592 0.950 . S
H582 C594 0.950 . S
H583 C595 0.950 . S
C584 H576 0.950 . S
C584 C585 1.386 . S
C584 C586 1.391 . S
C585 C584 1.386 . S
C585 C589 1.393 . S
C586 H578 0.950 . S
C586 C584 1.391 . S
C586 C587 1.400 . S
C587 C586 1.400 . S
C587 C588 1.398 . S
C587 C593 1.491 . S
C588 H579 0.950 . S
C588 C587 1.398 . S
C588 C589 1.391 . S
C589 H577 0.950 . S
C589 C585 1.393 . S
C589 C588 1.391 . S
C590 H580 0.950 . S
C590 C591 1.386 . S
C590 C592 1.391 . S
C591 C590 1.386 . S
C591 C595 1.393 . S
C592 H581 0.950 . S
C592 C590 1.391 . S
C592 C593 1.400 . S
C593 C587 1.491 . S
C593 C592 1.400 . S
C593 C594 1.398 . S
C594 H582 0.950 . S
C594 C593 1.398 . S
C594 C595 1.391 . S
C595 H583 0.950 . S
C595 C591 1.393 . S
C595 C594 1.391 . S
H596 C604 0.950 . S
H597 C609 0.950 . S
H598 C606 0.950 . S
H599 C608 0.950 . S
H600 C610 0.950 . S
H601 C612 0.950 . S
H602 C614 0.950 . S
H603 C615 0.950 . S
C604 H596 0.950 . S
C604 C605 1.386 . S
C604 C606 1.391 . S
C605 C604 1.386 . S
C605 C609 1.393 . S
C606 H598 0.950 . S
C606 C604 1.391 . S
C606 C607 1.400 . S
C607 C606 1.400 . S
C607 C608 1.398 . S
C607 C613 1.491 . S
C608 H599 0.950 . S
C608 C607 1.398 . S
C608 C609 1.391 . S
C609 H597 0.950 . S
C609 C605 1.393 . S
C609 C608 1.391 . S
C610 H600 0.950 . S
C610 C611 1.386 . S
C610 C612 1.391 . S
C611 C610 1.386 . S
C611 C615 1.393 . S
C612 H601 0.950 . S
C612 C610 1.391 . S
C612 C613 1.400 . S
C613 C607 1.491 . S
C613 C612 1.400 . S
C613 C614 1.398 . S
C614 H602 0.950 . S
C614 C613 1.398 . S
C614 C615 1.391 . S
C615 H603 0.950 . S
C615 C611 1.393 . S
C615 C614 1.391 . S
H616 C624 0.950 . S
H617 C629 0.950 . S
H618 C626 0.950 . S
H619 C628 0.950 . S
H620 C630 0.950 . S
H621 C632 0.950 . S
H622 C634 0.950 . S
H623 C635 0.950 . S
C624 H616 0.950 . S
C624 C625 1.386 . S
C624 C626 1.391 . S
C625 C624 1.386 . S
C625 C629 1.393 . S
C626 H618 0.950 . S
C626 C624 1.391 . S
C626 C627 1.400 . S
C627 C626 1.400 . S
C627 C628 1.398 . S
C627 C633 1.491 . S
C628 H619 0.950 . S
C628 C627 1.398 . S
C628 C629 1.391 . S
C629 H617 0.950 . S
C629 C625 1.393 . S
C629 C628 1.391 . S
C630 H620 0.950 . S
C630 C631 1.386 . S
C630 C632 1.391 . S
C631 C630 1.386 . S
C631 C635 1.393 . S
C632 H621 0.950 . S
C632 C630 1.391 . S
C632 C633 1.400 . S
C633 C627 1.491 . S
C633 C632 1.400 . S
C633 C634 1.398 . S
C634 H622 0.950 . S
C634 C633 1.398 . S
C634 C635 1.391 . S
C635 H623 0.950 . S
C635 C631 1.393 . S
C635 C634 1.391 . S
H636 C644 0.950 . S
H637 C649 0.950 . S
H638 C646 0.950 . S
H639 C648 0.950 . S
H640 C650 0.950 . S
H641 C652 0.950 . S
H642 C654 0.950 . S
H643 C655 0.950 . S
C644 H636 0.950 . S
C644 C645 1.386 . S
C644 C646 1.391 . S
C645 C644 1.386 . S
C645 C649 1.393 . S
C646 H638 0.950 . S
C646 C644 1.391 . S
C646 C647 1.400 . S
C647 C646 1.400 . S
C647 C648 1.398 . S
C647 C653 1.491 . S
C648 H639 0.950 . S
C648 C647 1.398 . S
C648 C649 1.391 . S
C649 H637 0.950 . S
C649 C645 1.393 . S
C649 C648 1.391 . S
C650 H640 0.950 . S
C650 C651 1.386 . S
C650 C652 1.391 . S
C651 C650 1.386 . S
C651 C655 1.393 . S
C652 H641 0.950 . S
C652 C650 1.391 . S
C652 C653 1.400 . S
C653 C647 1.491 . S
C653 C652 1.400 . S
C653 C654 1.398 . S
C654 H642 0.950 . S
C654 C653 1.398 . S
C654 C655 1.391 . S
C655 H643 0.950 . S
C655 C651 1.393 . S
C655 C654 1.391 . S
H656 C664 0.950 . S
H657 C669 0.950 . S
H658 C666 0.950 . S
H659 C668 0.950 . S
H660 C670 0.950 . S
H661 C672 0.950 . S
H662 C674 0.950 . S
H663 C675 0.950 . S
C664 H656 0.950 . S
C664 C665 1.386 . S
C664 C666 1.391 . S
C665 C664 1.386 . S
C665 C669 1.393 . S
C666 H658 0.950 . S
C666 C664 1.391 . S
C666 C667 1.400 . S
C667 C666 1.400 . S
C667 C668 1.398 . S
C667 C673 1.491 . S
C668 H659 0.950 . S
C668 C667 1.398 . S
C668 C669 1.391 . S
C669 H657 0.950 . S
C669 C665 1.393 . S
C669 C668 1.391 . S
C670 H660 0.950 . S
C670 C671 1.386 . S
C670 C672 1.391 . S
C671 C670 1.386 . S
C671 C675 1.393 . S
C672 H661 0.950 . S
C672 C670 1.391 . S
C672 C673 1.400 . S
C673 C667 1.491 . S
C673 C672 1.400 . S
C673 C674 1.398 . S
C674 H662 0.950 . S
C674 C673 1.398 . S
C674 C675 1.391 . S
C675 H663 0.950 . S
C675 C671 1.393 . S
C675 C674 1.391 . S
H676 C684 0.950 . S
H677 C689 0.950 . S
H678 C686 0.950 . S
H679 C688 0.950 . S
H680 C690 0.950 . S
H681 C692 0.950 . S
H682 C694 0.950 . S
H683 C695 0.950 . S
C684 H676 0.950 . S
C684 C685 1.386 1_545 S
C684 C686 1.391 . S
C685 C684 1.386 1_565 S
C685 C689 1.393 . S
C686 H678 0.950 . S
C686 C684 1.391 . S
C686 C687 1.400 1_545 S
C687 C686 1.400 1_565 S
C687 C688 1.398 . S
C687 C693 1.491 . S
C688 H679 0.950 . S
C688 C687 1.398 . S
C688 C689 1.391 . S
C689 H677 0.950 . S
C689 C685 1.393 . S
C689 C688 1.391 . S
C690 H680 0.950 . S
C690 C691 1.386 . S
C690 C692 1.391 . S
C691 C690 1.386 . S
C691 C695 1.393 1_565 S
C692 H681 0.950 . S
C692 C690 1.391 . S
C692 C693 1.400 . S
C693 C687 1.491 . S
C693 C692 1.400 . S
C693 C694 1.398 1_565 S
C694 H682 0.950 . S
C694 C693 1.398 1_545 S
C694 C695 1.391 . S
C695 H683 0.950 . S
C695 C691 1.393 1_545 S
C695 C694 1.391 . S
H696 C704 0.950 . S
H697 C709 0.950 . S
H698 C706 0.950 . S
H699 C708 0.950 . S
H700 C710 0.950 . S
H701 C712 0.950 . S
H702 C714 0.950 . S
H703 C715 0.950 . S
C704 H696 0.950 . S
C704 C705 1.386 . S
C704 C706 1.391 . S
C705 C704 1.386 . S
C705 C709 1.393 . S
C706 H698 0.950 . S
C706 C704 1.391 . S
C706 C707 1.400 . S
C707 C706 1.400 . S
C707 C708 1.398 . S
C707 C713 1.491 . S
C708 H699 0.950 . S
C708 C707 1.398 . S
C708 C709 1.391 . S
C709 H697 0.950 . S
C709 C705 1.393 . S
C709 C708 1.391 . S
C710 H700 0.950 . S
C710 C711 1.386 . S
C710 C712 1.391 . S
C711 C710 1.386 . S
C711 C715 1.393 . S
C712 H701 0.950 . S
C712 C710 1.391 . S
C712 C713 1.400 . S
C713 C707 1.491 . S
C713 C712 1.400 . S
C713 C714 1.398 . S
C714 H702 0.950 . S
C714 C713 1.398 . S
C714 C715 1.391 . S
C715 H703 0.950 . S
C715 C711 1.393 . S
C715 C714 1.391 . S
H716 C724 0.950 . S
H717 C729 0.950 . S
H718 C726 0.950 . S
H719 C728 0.950 . S
H720 C730 0.950 . S
H721 C732 0.950 . S
H722 C734 0.950 . S
H723 C735 0.950 . S
C724 H716 0.950 . S
C724 C725 1.386 . S
C724 C726 1.391 . S
C725 C724 1.386 . S
C725 C729 1.393 1_545 S
C726 H718 0.950 . S
C726 C724 1.391 . S
C726 C727 1.400 . S
C727 C726 1.400 . S
C727 C728 1.398 1_545 S
C727 C733 1.491 . S
C728 H719 0.950 . S
C728 C727 1.398 1_565 S
C728 C729 1.391 . S
C729 H717 0.950 . S
C729 C725 1.393 1_565 S
C729 C728 1.391 . S
C730 H720 0.950 . S
C730 C731 1.386 1_565 S
C730 C732 1.391 . S
C731 C730 1.386 1_545 S
C731 C735 1.393 . S
C732 H721 0.950 . S
C732 C730 1.391 . S
C732 C733 1.400 1_565 S
C733 C727 1.491 . S
C733 C732 1.400 1_545 S
C733 C734 1.398 . S
C734 H722 0.950 . S
C734 C733 1.398 . S
C734 C735 1.391 . S
C735 H723 0.950 . S
C735 C731 1.393 . S
C735 C734 1.391 . S
H736 C744 0.950 . S
H737 C749 0.950 . S
H738 C746 0.950 . S
H739 C748 0.950 . S
H740 C750 0.950 . S
H741 C752 0.950 . S
H742 C754 0.950 . S
H743 C755 0.950 . S
C744 H736 0.950 . S
C744 C745 1.386 . S
C744 C746 1.391 . S
C745 C744 1.386 . S
C745 C749 1.393 . S
C746 H738 0.950 . S
C746 C744 1.391 . S
C746 C747 1.400 . S
C747 C746 1.400 . S
C747 C748 1.398 . S
C747 C753 1.491 . S
C748 H739 0.950 . S
C748 C747 1.398 . S
C748 C749 1.391 . S
C749 H737 0.950 . S
C749 C745 1.393 . S
C749 C748 1.391 . S
C750 H740 0.950 . S
C750 C751 1.386 . S
C750 C752 1.391 . S
C751 C750 1.386 . S
C751 C755 1.393 . S
C752 H741 0.950 . S
C752 C750 1.391 . S
C752 C753 1.400 . S
C753 C747 1.491 . S
C753 C752 1.400 . S
C753 C754 1.398 . S
C754 H742 0.950 . S
C754 C753 1.398 . S
C754 C755 1.391 . S
C755 H743 0.950 . S
C755 C751 1.393 . S
C755 C754 1.391 . S
H756 C764 0.950 . S
H757 C769 0.950 . S
H758 C766 0.950 1_556 S
H759 C768 0.950 . S
H760 C770 0.950 . S
H761 C772 0.950 . S
H762 C774 0.950 . S
H763 C775 0.950 . S
C764 H756 0.950 . S
C764 C765 1.386 . S
C764 C766 1.391 . S
C765 C764 1.386 . S
C765 C769 1.393 . S
C766 H758 0.950 1_554 S
C766 C764 1.391 . S
C766 C767 1.400 . S
C767 C766 1.400 . S
C767 C768 1.399 . S
C767 C773 1.490 1_554 S
C768 H759 0.950 . S
C768 C767 1.399 . S
C768 C769 1.391 . S
C769 H757 0.950 . S
C769 C765 1.393 . S
C769 C768 1.391 . S
C770 H760 0.950 . S
C770 C771 1.386 . S
C770 C772 1.391 . S
C771 C770 1.386 . S
C771 C775 1.393 . S
C772 H761 0.950 . S
C772 C770 1.391 . S
C772 C773 1.400 . S
C773 C767 1.490 1_556 S
C773 C772 1.400 . S
C773 C774 1.398 . S
C774 H762 0.950 . S
C774 C773 1.398 . S
C774 C775 1.391 . S
C775 H763 0.950 . S
C775 C771 1.393 . S
C775 C774 1.391 . S
H776 C784 0.950 . S
H777 C789 0.950 . S
H778 C786 0.950 . S
H779 C788 0.950 . S
H780 C790 0.950 . S
H781 C792 0.950 . S
H782 C794 0.950 . S
H783 C795 0.950 . S
C784 H776 0.950 . S
C784 C785 1.386 . S
C784 C786 1.391 . S
C785 C784 1.386 . S
C785 C789 1.393 1_554 S
C786 H778 0.950 . S
C786 C784 1.391 . S
C786 C787 1.400 . S
C787 C786 1.400 . S
C787 C788 1.398 1_554 S
C787 C793 1.491 1_554 S
C788 H779 0.950 . S
C788 C787 1.398 1_556 S
C788 C789 1.391 . S
C789 H777 0.950 . S
C789 C785 1.393 1_556 S
C789 C788 1.391 . S
C790 H780 0.950 . S
C790 C791 1.386 . S
C790 C792 1.391 . S
C791 C790 1.386 . S
C791 C795 1.393 1_556 S
C792 H781 0.950 . S
C792 C790 1.391 . S
C792 C793 1.400 . S
C793 C787 1.491 1_556 S
C793 C792 1.400 . S
C793 C794 1.398 1_556 S
C794 H782 0.950 . S
C794 C793 1.398 1_554 S
C794 C795 1.391 . S
C795 H783 0.950 . S
C795 C791 1.393 1_554 S
C795 C794 1.391 . S
H796 C804 0.950 . S
H797 C809 0.950 1_556 S
H798 C806 0.950 . S
H799 C808 0.950 1_556 S
H800 C810 0.934 1_556 S
H801 C812 0.950 1_556 S
H802 C814 0.950 . S
H803 C815 0.950 . S
C804 H796 0.950 . S
C804 C805 1.386 . S
C804 C806 1.391 . S
C805 C804 1.386 . S
C805 C809 1.393 . S
C806 H798 0.950 . S
C806 C804 1.391 . S
C806 C807 1.400 . S
C807 C806 1.400 . S
C807 C808 1.398 . S
C807 C813 1.491 . S
C808 H799 0.950 1_554 S
C808 C807 1.398 . S
C808 C809 1.391 . S
C809 H797 0.950 1_554 S
C809 C805 1.393 . S
C809 C808 1.391 . S
C810 H800 0.934 1_554 S
C810 C811 1.399 . S
C810 C812 1.394 . S
C811 C810 1.399 . S
C811 C815 1.393 . S
C812 H801 0.950 1_554 S
C812 C810 1.394 . S
C812 C813 1.400 . S
C813 C807 1.491 . S
C813 C812 1.400 . S
C813 C814 1.398 . S
C814 H802 0.950 . S
C814 C813 1.398 . S
C814 C815 1.391 . S
C815 H803 0.950 . S
C815 C811 1.393 . S
C815 C814 1.391 . S
H816 C824 0.978 . S
H817 C829 0.950 . S
H818 C826 0.950 1_655 S
H819 C828 0.950 . S
H820 C830 0.950 . S
H821 C832 0.950 . S
H822 C834 0.950 1_655 S
H823 C835 0.984 . S
C824 H816 0.978 . S
C824 C825 1.386 . S
C824 C826 1.391 . S
C825 C824 1.386 . S
C825 C829 1.393 . S
C826 H818 0.950 1_455 S
C826 C824 1.391 . S
C826 C827 1.400 . S
C827 C826 1.400 . S
C827 C828 1.398 . S
C827 C833 1.491 . S
C828 H819 0.950 . S
C828 C827 1.398 . S
C828 C829 1.391 . S
C829 H817 0.950 . S
C829 C825 1.393 . S
C829 C828 1.391 . S
C830 H820 0.950 . S
C830 C831 1.386 . S
C830 C832 1.391 . S
C831 C830 1.386 . S
C831 C835 1.361 1_455 S
C832 H821 0.950 . S
C832 C830 1.391 . S
C832 C833 1.400 . S
C833 C827 1.491 . S
C833 C832 1.400 . S
C833 C834 1.398 . S
C834 H822 0.950 1_455 S
C834 C833 1.398 . S
C834 C835 1.388 1_455 S
C835 H823 0.984 . S
C835 C831 1.361 1_655 S
C835 C834 1.388 1_655 S
H836 C844 0.950 . S
H837 C849 0.950 . S
H838 C846 0.950 . S
H839 C848 0.950 . S
H840 C850 0.950 . S
H841 C852 0.950 . S
H842 C854 0.950 . S
H843 C855 0.950 . S
C844 H836 0.950 . S
C844 C845 1.386 . S
C844 C846 1.391 . S
C845 C844 1.386 . S
C845 C849 1.393 1_455 S
C846 H838 0.950 . S
C846 C844 1.391 . S
C846 C847 1.400 . S
C847 C846 1.400 . S
C847 C848 1.398 1_455 S
C847 C853 1.491 1_455 S
C848 H839 0.950 . S
C848 C847 1.398 1_655 S
C848 C849 1.391 . S
C849 H837 0.950 . S
C849 C845 1.393 1_655 S
C849 C848 1.391 . S
C850 H840 0.950 . S
C850 C851 1.386 . S
C850 C852 1.391 . S
C851 C850 1.386 . S
C851 C855 1.393 1_655 S
C852 H841 0.950 . S
C852 C850 1.391 . S
C852 C853 1.400 . S
C853 C847 1.491 1_655 S
C853 C852 1.400 . S
C853 C854 1.398 1_655 S
C854 H842 0.950 . S
C854 C853 1.398 1_455 S
C854 C855 1.391 . S
C855 H843 0.950 . S
C855 C851 1.393 1_455 S
C855 C854 1.391 . S
H856 C864 0.950 . S
H857 C869 0.950 1_655 S
H858 C866 0.950 . S
H859 C868 0.950 1_655 S
H860 C870 0.950 1_655 S
H861 C872 0.950 1_655 S
H862 C874 0.950 . S
H863 C875 0.950 . S
C864 H856 0.950 . S
C864 C865 1.386 . S
C864 C866 1.391 . S
C865 C864 1.386 . S
C865 C869 1.393 . S
C866 H858 0.950 . S
C866 C864 1.391 . S
C866 C867 1.400 . S
C867 C866 1.400 . S
C867 C868 1.398 . S
C867 C873 1.491 . S
C868 H859 0.950 1_455 S
C868 C867 1.398 . S
C868 C869 1.391 . S
C869 H857 0.950 1_455 S
C869 C865 1.393 . S
C869 C868 1.391 . S
C870 H860 0.950 1_455 S
C870 C871 1.386 . S
C870 C872 1.391 . S
C871 C870 1.386 . S
C871 C875 1.393 . S
C872 H861 0.950 1_455 S
C872 C870 1.391 . S
C872 C873 1.400 . S
C873 C867 1.491 . S
C873 C872 1.400 . S
C873 C874 1.398 . S
C874 H862 0.950 . S
C874 C873 1.398 . S
C874 C875 1.391 . S
C875 H863 0.950 . S
C875 C871 1.393 . S
C875 C874 1.391 . S
H876 C884 0.950 . S
H877 C889 0.950 . S
H878 C886 0.950 . S
H879 C888 0.950 . S
H880 C890 0.950 . S
H881 C892 0.950 . S
H882 C894 0.950 . S
H883 C895 0.950 . S
C884 H876 0.950 . S
C884 C885 1.386 . S
C884 C886 1.391 . S
C885 C884 1.386 . S
C885 C889 1.393 1_455 S
C886 H878 0.950 . S
C886 C884 1.391 . S
C886 C887 1.400 1_455 S
C887 C886 1.400 1_655 S
C887 C888 1.398 . S
C887 C893 1.491 . S
C888 H879 0.950 . S
C888 C887 1.398 . S
C888 C889 1.391 . S
C889 H877 0.950 . S
C889 C885 1.393 1_655 S
C889 C888 1.391 . S
C890 H880 0.950 . S
C890 C891 1.386 . S
C890 C892 1.391 . S
C891 C890 1.386 . S
C891 C895 1.393 1_655 S
C892 H881 0.950 . S
C892 C890 1.391 . S
C892 C893 1.400 . S
C893 C887 1.491 . S
C893 C892 1.400 . S
C893 C894 1.398 1_655 S
C894 H882 0.950 . S
C894 C893 1.398 1_455 S
C894 C895 1.391 . S
C895 H883 0.950 . S
C895 C891 1.393 1_455 S
C895 C894 1.391 . S
H896 C904 0.950 . S
H897 C909 0.950 1_565 S
H898 C906 0.950 . S
H899 C908 0.950 1_565 S
H900 C910 0.950 . S
H901 C912 0.950 . S
H902 C914 0.950 . S
H903 C915 0.950 . S
C904 H896 0.950 . S
C904 C905 1.386 . S
C904 C906 1.391 . S
C905 C904 1.386 . S
C905 C909 1.393 . S
C906 H898 0.950 . S
C906 C904 1.391 . S
C906 C907 1.400 . S
C907 C906 1.400 . S
C907 C908 1.398 . S
C907 C913 1.491 . S
C908 H899 0.950 1_545 S
C908 C907 1.398 . S
C908 C909 1.391 . S
C909 H897 0.950 1_545 S
C909 C905 1.393 . S
C909 C908 1.391 . S
C910 H900 0.950 . S
C910 C911 1.386 . S
C910 C912 1.391 . S
C911 C910 1.386 . S
C911 C915 1.393 . S
C912 H901 0.950 . S
C912 C910 1.391 . S
C912 C913 1.400 . S
C913 C907 1.491 . S
C913 C912 1.400 . S
C913 C914 1.398 . S
C914 H902 0.950 . S
C914 C913 1.398 . S
C914 C915 1.391 . S
C915 H903 0.950 . S
C915 C911 1.393 . S
C915 C914 1.391 . S
H916 C924 0.950 . S
H917 C929 0.950 . S
H918 C926 0.950 . S
H919 C928 0.950 . S
H920 C930 0.950 . S
H921 C932 0.950 . S
H922 C934 0.950 . S
H923 C935 0.950 . S
C924 H916 0.950 . S
C924 C925 1.386 . S
C924 C926 1.391 . S
C925 C924 1.386 . S
C925 C929 1.393 . S
C926 H918 0.950 . S
C926 C924 1.391 . S
C926 C927 1.400 . S
C927 C926 1.400 . S
C927 C928 1.398 . S
C927 C933 1.491 . S
C928 H919 0.950 . S
C928 C927 1.398 . S
C928 C929 1.391 . S
C929 H917 0.950 . S
C929 C925 1.393 . S
C929 C928 1.391 . S
C930 H920 0.950 . S
C930 C931 1.386 . S
C930 C932 1.391 . S
C931 C930 1.386 . S
C931 C935 1.393 . S
C932 H921 0.950 . S
C932 C930 1.391 . S
C932 C933 1.400 . S
C933 C927 1.491 . S
C933 C932 1.400 . S
C933 C934 1.398 . S
C934 H922 0.950 . S
C934 C933 1.398 . S
C934 C935 1.391 . S
C935 H923 0.950 . S
C935 C931 1.393 . S
C935 C934 1.391 . S
H936 C944 0.950 . S
H937 C949 0.950 . S
H938 C946 0.950 . S
H939 C948 0.950 . S
H940 C950 0.950 . S
H941 C952 0.950 . S
H942 C954 0.950 . S
H943 C955 0.950 . S
C944 H936 0.950 . S
C944 C945 1.386 1_545 S
C944 C946 1.391 . S
C945 C944 1.386 1_565 S
C945 C949 1.393 . S
C946 H938 0.950 . S
C946 C944 1.391 . S
C946 C947 1.400 1_545 S
C947 C946 1.400 1_565 S
C947 C948 1.398 . S
C947 C953 1.491 . S
C948 H939 0.950 . S
C948 C947 1.398 . S
C948 C949 1.391 . S
C949 H937 0.950 . S
C949 C945 1.393 . S
C949 C948 1.391 . S
C950 H940 0.950 . S
C950 C951 1.386 . S
C950 C952 1.391 . S
C951 C950 1.386 . S
C951 C955 1.393 1_565 S
C952 H941 0.950 . S
C952 C950 1.391 . S
C952 C953 1.400 . S
C953 C947 1.491 . S
C953 C952 1.400 . S
C953 C954 1.398 1_565 S
C954 H942 0.950 . S
C954 C953 1.398 1_545 S
C954 C955 1.391 . S
C955 H943 0.950 . S
C955 C951 1.393 1_545 S
C955 C954 1.391 . S
H956 C964 0.950 . S
H957 C969 0.950 . S
H958 C966 0.950 . S
H959 C968 0.950 . S
H960 C970 0.950 . S
H961 C972 0.950 . S
H962 C974 0.950 . S
H963 C975 0.950 . S
C964 H956 0.950 . S
C964 C965 1.386 . S
C964 C966 1.391 . S
C965 C964 1.386 . S
C965 C969 1.393 . S
C966 H958 0.950 . S
C966 C964 1.391 . S
C966 C967 1.400 . S
C967 C966 1.400 . S
C967 C968 1.398 . S
C967 C973 1.491 . S
C968 H959 0.950 . S
C968 C967 1.398 . S
C968 C969 1.391 . S
C969 H957 0.950 . S
C969 C965 1.393 . S
C969 C968 1.391 . S
C970 H960 0.950 . S
C970 C971 1.386 . S
C970 C972 1.391 . S
C971 C970 1.386 . S
C971 C975 1.393 . S
C972 H961 0.950 . S
C972 C970 1.391 . S
C972 C973 1.400 . S
C973 C967 1.491 . S
C973 C972 1.400 . S
C973 C974 1.398 . S
C974 H962 0.950 . S
C974 C973 1.398 . S
C974 C975 1.391 . S
C975 H963 0.950 . S
C975 C971 1.393 . S
C975 C974 1.391 . S
H976 C984 0.950 1_556 S
H977 C989 0.950 . S
H978 C986 0.950 1_556 S
H979 C988 0.950 . S
H980 C990 0.950 . S
H981 C992 0.950 . S
H982 C994 0.950 1_556 S
H983 C995 0.948 . S
C984 H976 0.950 1_554 S
C984 C985 1.386 . S
C984 C986 1.391 . S
C985 C984 1.386 . S
C985 C989 1.393 . S
C986 H978 0.950 1_554 S
C986 C984 1.391 . S
C986 C987 1.400 . S
C987 C986 1.400 . S
C987 C988 1.398 . S
C987 C993 1.491 . S
C988 H979 0.950 . S
C988 C987 1.398 . S
C988 C989 1.391 . S
C989 H977 0.950 . S
C989 C985 1.393 . S
C989 C988 1.391 . S
C990 H980 0.950 . S
C990 C991 1.386 . S
C990 C992 1.391 . S
C991 C990 1.386 . S
C991 C995 1.395 1_554 S
C992 H981 0.950 . S
C992 C990 1.391 . S
C992 C993 1.400 . S
C993 C987 1.491 . S
C993 C992 1.400 . S
C993 C994 1.398 . S
C994 H982 0.950 1_554 S
C994 C993 1.398 . S
C994 C995 1.391 1_554 S
C995 H983 0.948 . S
C995 C991 1.395 1_556 S
C995 C994 1.391 1_556 S
H996 C1004 0.950 . S
H997 C1009 0.950 . S
H998 C1006 0.950 . S
H999 C1008 0.950 . S
H1000 C1010 0.950 . S
H1001 C1012 0.950 . S
H1002 C1014 0.950 . S
H1003 C1015 0.950 . S
C1004 H996 0.950 . S
C1004 C1005 1.386 . S
C1004 C1006 1.391 . S
C1005 C1004 1.386 . S
C1005 C1009 1.393 . S
C1006 H998 0.950 . S
C1006 C1004 1.391 . S
C1006 C1007 1.400 . S
C1007 C1006 1.400 . S
C1007 C1008 1.398 . S
C1007 C1013 1.491 . S
C1008 H999 0.950 . S
C1008 C1007 1.398 . S
C1008 C1009 1.391 . S
C1009 H997 0.950 . S
C1009 C1005 1.393 . S
C1009 C1008 1.391 . S
C1010 H1000 0.950 . S
C1010 C1011 1.386 . S
C1010 C1012 1.391 . S
C1011 C1010 1.386 . S
C1011 C1015 1.393 . S
C1012 H1001 0.950 . S
C1012 C1010 1.391 . S
C1012 C1013 1.400 . S
C1013 C1007 1.491 . S
C1013 C1012 1.400 . S
C1013 C1014 1.398 . S
C1014 H1002 0.950 . S
C1014 C1013 1.398 . S
C1014 C1015 1.391 . S
C1015 H1003 0.950 . S
C1015 C1011 1.393 . S
C1015 C1014 1.391 . S
H1016 C1024 0.950 . S
H1017 C1029 0.950 . S
H1018 C1026 0.950 . S
H1019 C1028 0.950 . S
H1020 C1030 0.950 . S
H1021 C1032 0.950 . S
H1022 C1034 0.950 . S
H1023 C1035 0.950 . S
C1024 H1016 0.950 . S
C1024 C1025 1.386 . S
C1024 C1026 1.391 . S
C1025 C1024 1.386 . S
C1025 C1029 1.393 . S
C1026 H1018 0.950 . S
C1026 C1024 1.391 . S
C1026 C1027 1.400 . S
C1027 C1026 1.400 . S
C1027 C1028 1.398 . S
C1027 C1033 1.491 . S
C1028 H1019 0.950 . S
C1028 C1027 1.398 . S
C1028 C1029 1.391 . S
C1029 H1017 0.950 . S
C1029 C1025 1.393 . S
C1029 C1028 1.391 . S
C1030 H1020 0.950 . S
C1030 C1031 1.386 . S
C1030 C1032 1.391 . S
C1031 C1030 1.386 . S
C1031 C1035 1.393 . S
C1032 H1021 0.950 . S
C1032 C1030 1.391 . S
C1032 C1033 1.400 . S
C1033 C1027 1.491 . S
C1033 C1032 1.400 . S
C1033 C1034 1.398 . S
C1034 H1022 0.950 . S
C1034 C1033 1.398 . S
C1034 C1035 1.391 . S
C1035 H1023 0.950 . S
C1035 C1031 1.393 . S
C1035 C1034 1.391 . S
H1036 C1044 0.950 . S
H1037 C1049 0.950 . S
H1038 C1046 0.950 . S
H1039 C1048 0.950 . S
H1040 C1050 0.950 . S
H1041 C1052 0.950 . S
H1042 C1054 0.950 . S
H1043 C1055 0.950 . S
C1044 H1036 0.950 . S
C1044 C1045 1.386 . S
C1044 C1046 1.391 . S
C1045 C1044 1.386 . S
C1045 C1049 1.393 . S
C1046 H1038 0.950 . S
C1046 C1044 1.391 . S
C1046 C1047 1.400 . S
C1047 C1046 1.400 . S
C1047 C1048 1.398 . S
C1047 C1053 1.491 . S
C1048 H1039 0.950 . S
C1048 C1047 1.398 . S
C1048 C1049 1.391 . S
C1049 H1037 0.950 . S
C1049 C1045 1.393 . S
C1049 C1048 1.391 . S
C1050 H1040 0.950 . S
C1050 C1051 1.386 . S
C1050 C1052 1.391 . S
C1051 C1050 1.386 . S
C1051 C1055 1.393 . S
C1052 H1041 0.950 . S
C1052 C1050 1.391 . S
C1052 C1053 1.400 . S
C1053 C1047 1.491 . S
C1053 C1052 1.400 . S
C1053 C1054 1.398 . S
C1054 H1042 0.950 . S
C1054 C1053 1.398 . S
C1054 C1055 1.391 . S
C1055 H1043 0.950 . S
C1055 C1051 1.393 . S
C1055 C1054 1.391 . S
H1056 C1064 0.950 . S
H1057 C1069 0.950 . S
H1058 C1066 0.950 . S
H1059 C1068 0.950 . S
H1060 C1070 0.950 . S
H1061 C1072 0.950 . S
H1062 C1074 0.950 . S
H1063 C1075 0.950 . S
C1064 H1056 0.950 . S
C1064 C1065 1.386 . S
C1064 C1066 1.391 . S
C1065 C1064 1.386 . S
C1065 C1069 1.393 . S
C1066 H1058 0.950 . S
C1066 C1064 1.391 . S
C1066 C1067 1.400 . S
C1067 C1066 1.400 . S
C1067 C1068 1.398 . S
C1067 C1073 1.491 . S
C1068 H1059 0.950 . S
C1068 C1067 1.398 . S
C1068 C1069 1.391 . S
C1069 H1057 0.950 . S
C1069 C1065 1.393 . S
C1069 C1068 1.391 . S
C1070 H1060 0.950 . S
C1070 C1071 1.386 . S
C1070 C1072 1.391 . S
C1071 C1070 1.386 . S
C1071 C1075 1.393 . S
C1072 H1061 0.950 . S
C1072 C1070 1.391 . S
C1072 C1073 1.400 . S
C1073 C1067 1.491 . S
C1073 C1072 1.400 . S
C1073 C1074 1.398 . S
C1074 H1062 0.950 . S
C1074 C1073 1.398 . S
C1074 C1075 1.391 . S
C1075 H1063 0.950 . S
C1075 C1071 1.393 . S
C1075 C1074 1.391 . S
H1076 C1084 0.950 . S
H1077 C1089 0.950 . S
H1078 C1086 0.950 . S
H1079 C1088 0.950 . S
H1080 C1090 0.950 . S
H1081 C1092 0.950 . S
H1082 C1094 0.950 . S
H1083 C1095 0.950 . S
C1084 H1076 0.950 . S
C1084 C1085 1.386 . S
C1084 C1086 1.391 . S
C1085 C1084 1.386 . S
C1085 C1089 1.393 . S
C1086 H1078 0.950 . S
C1086 C1084 1.391 . S
C1086 C1087 1.400 . S
C1087 C1086 1.400 . S
C1087 C1088 1.398 . S
C1087 C1093 1.491 . S
C1088 H1079 0.950 . S
C1088 C1087 1.398 . S
C1088 C1089 1.391 . S
C1089 H1077 0.950 . S
C1089 C1085 1.393 . S
C1089 C1088 1.391 . S
C1090 H1080 0.950 . S
C1090 C1091 1.386 . S
C1090 C1092 1.391 . S
C1091 C1090 1.386 . S
C1091 C1095 1.393 . S
C1092 H1081 0.950 . S
C1092 C1090 1.391 . S
C1092 C1093 1.400 . S
C1093 C1087 1.491 . S
C1093 C1092 1.400 . S
C1093 C1094 1.398 . S
C1094 H1082 0.950 . S
C1094 C1093 1.398 . S
C1094 C1095 1.391 . S
C1095 H1083 0.950 . S
C1095 C1091 1.393 . S
C1095 C1094 1.391 . S
H1096 C1104 0.950 . S
H1097 C1109 0.950 . S
H1098 C1106 0.950 . S
H1099 C1108 0.950 . S
H1100 C1110 0.950 . S
H1101 C1112 0.950 . S
H1102 C1114 0.950 . S
H1103 C1115 0.950 . S
C1104 H1096 0.950 . S
C1104 C1105 1.386 . S
C1104 C1106 1.391 . S
C1105 C1104 1.386 . S
C1105 C1109 1.393 . S
C1106 H1098 0.950 . S
C1106 C1104 1.391 . S
C1106 C1107 1.400 . S
C1107 C1106 1.400 . S
C1107 C1108 1.398 . S
C1107 C1113 1.491 . S
C1108 H1099 0.950 . S
C1108 C1107 1.398 . S
C1108 C1109 1.391 . S
C1109 H1097 0.950 . S
C1109 C1105 1.393 . S
C1109 C1108 1.391 . S
C1110 H1100 0.950 . S
C1110 C1111 1.386 . S
C1110 C1112 1.391 . S
C1111 C1110 1.386 . S
C1111 C1115 1.393 . S
C1112 H1101 0.950 . S
C1112 C1110 1.391 . S
C1112 C1113 1.400 . S
C1113 C1107 1.491 . S
C1113 C1112 1.400 . S
C1113 C1114 1.398 . S
C1114 H1102 0.950 . S
C1114 C1113 1.398 . S
C1114 C1115 1.391 . S
C1115 H1103 0.950 . S
C1115 C1111 1.393 . S
C1115 C1114 1.391 . S
H1116 C1124 0.950 . S
H1117 C1129 0.950 . S
H1118 C1126 0.950 . S
H1119 C1128 0.950 . S
H1120 C1130 0.950 . S
H1121 C1132 0.950 . S
H1122 C1134 0.950 . S
H1123 C1135 0.950 . S
C1124 H1116 0.950 . S
C1124 C1125 1.386 . S
C1124 C1126 1.391 . S
C1125 C1124 1.386 . S
C1125 C1129 1.393 . S
C1126 H1118 0.950 . S
C1126 C1124 1.391 . S
C1126 C1127 1.400 . S
C1127 C1126 1.400 . S
C1127 C1128 1.398 . S
C1127 C1133 1.491 . S
C1128 H1119 0.950 . S
C1128 C1127 1.398 . S
C1128 C1129 1.391 . S
C1129 H1117 0.950 . S
C1129 C1125 1.393 . S
C1129 C1128 1.391 . S
C1130 H1120 0.950 . S
C1130 C1131 1.386 . S
C1130 C1132 1.391 . S
C1131 C1130 1.386 . S
C1131 C1135 1.393 . S
C1132 H1121 0.950 . S
C1132 C1130 1.391 . S
C1132 C1133 1.400 . S
C1133 C1127 1.491 . S
C1133 C1132 1.400 . S
C1133 C1134 1.398 . S
C1134 H1122 0.950 . S
C1134 C1133 1.398 . S
C1134 C1135 1.391 . S
C1135 H1123 0.950 . S
C1135 C1131 1.393 . S
C1135 C1134 1.391 . S
H1136 C1144 0.950 . S
H1137 C1149 0.950 . S
H1138 C1146 0.950 . S
H1139 C1148 0.950 . S
H1140 C1150 0.950 . S
H1141 C1152 0.950 . S
H1142 C1154 0.950 . S
H1143 C1155 0.950 . S
C1144 H1136 0.950 . S
C1144 C1145 1.386 . S
C1144 C1146 1.391 . S
C1145 C1144 1.386 . S
C1145 C1149 1.393 . S
C1146 H1138 0.950 . S
C1146 C1144 1.391 . S
C1146 C1147 1.400 . S
C1147 C1146 1.400 . S
C1147 C1148 1.398 . S
C1147 C1153 1.491 . S
C1148 H1139 0.950 . S
C1148 C1147 1.398 . S
C1148 C1149 1.391 . S
C1149 H1137 0.950 . S
C1149 C1145 1.393 . S
C1149 C1148 1.391 . S
C1150 H1140 0.950 . S
C1150 C1151 1.386 . S
C1150 C1152 1.391 . S
C1151 C1150 1.386 . S
C1151 C1155 1.393 . S
C1152 H1141 0.950 . S
C1152 C1150 1.391 . S
C1152 C1153 1.400 . S
C1153 C1147 1.491 . S
C1153 C1152 1.400 . S
C1153 C1154 1.398 . S
C1154 H1142 0.950 . S
C1154 C1153 1.398 . S
C1154 C1155 1.391 . S
C1155 H1143 0.950 . S
C1155 C1151 1.393 . S
C1155 C1154 1.391 . S
H1156 C1164 0.950 . S
H1157 C1169 0.950 . S
H1158 C1166 0.950 . S
H1159 C1168 0.950 . S
H1160 C1170 0.950 . S
H1161 C1172 0.950 . S
H1162 C1174 0.950 . S
H1163 C1175 0.950 . S
C1164 H1156 0.950 . S
C1164 C1165 1.386 1_545 S
C1164 C1166 1.391 . S
C1165 C1164 1.386 1_565 S
C1165 C1169 1.393 . S
C1166 H1158 0.950 . S
C1166 C1164 1.391 . S
C1166 C1167 1.400 1_545 S
C1167 C1166 1.400 1_565 S
C1167 C1168 1.398 . S
C1167 C1173 1.491 . S
C1168 H1159 0.950 . S
C1168 C1167 1.398 . S
C1168 C1169 1.391 . S
C1169 H1157 0.950 . S
C1169 C1165 1.393 . S
C1169 C1168 1.391 . S
C1170 H1160 0.950 . S
C1170 C1171 1.386 . S
C1170 C1172 1.391 . S
C1171 C1170 1.386 . S
C1171 C1175 1.393 1_565 S
C1172 H1161 0.950 . S
C1172 C1170 1.391 . S
C1172 C1173 1.400 . S
C1173 C1167 1.491 . S
C1173 C1172 1.400 . S
C1173 C1174 1.398 1_565 S
C1174 H1162 0.950 . S
C1174 C1173 1.398 1_545 S
C1174 C1175 1.391 . S
C1175 H1163 0.950 . S
C1175 C1171 1.393 1_545 S
C1175 C1174 1.391 . S
H1176 C1184 0.950 . S
H1177 C1189 0.950 . S
H1178 C1186 0.950 . S
H1179 C1188 0.950 . S
H1180 C1190 0.950 . S
H1181 C1192 0.950 . S
H1182 C1194 0.950 . S
H1183 C1195 0.950 . S
C1184 H1176 0.950 . S
C1184 C1185 1.386 . S
C1184 C1186 1.391 . S
C1185 C1184 1.386 . S
C1185 C1189 1.393 . S
C1186 H1178 0.950 . S
C1186 C1184 1.391 . S
C1186 C1187 1.400 . S
C1187 C1186 1.400 . S
C1187 C1188 1.398 . S
C1187 C1193 1.491 . S
C1188 H1179 0.950 . S
C1188 C1187 1.398 . S
C1188 C1189 1.391 . S
C1189 H1177 0.950 . S
C1189 C1185 1.393 . S
C1189 C1188 1.391 . S
C1190 H1180 0.950 . S
C1190 C1191 1.386 . S
C1190 C1192 1.391 . S
C1191 C1190 1.386 . S
C1191 C1195 1.393 . S
C1192 H1181 0.950 . S
C1192 C1190 1.391 . S
C1192 C1193 1.400 . S
C1193 C1187 1.491 . S
C1193 C1192 1.400 . S
C1193 C1194 1.398 . S
C1194 H1182 0.950 . S
C1194 C1193 1.398 . S
C1194 C1195 1.391 . S
C1195 H1183 0.950 . S
C1195 C1191 1.393 . S
C1195 C1194 1.391 . S
H1196 C1204 0.950 1_565 S
H1197 C1209 0.950 . S
H1198 C1206 0.950 . S
H1199 C1208 0.950 . S
H1200 C1210 0.950 . S
H1201 C1212 0.950 . S
H1202 C1214 0.950 . S
H1203 C1215 0.950 . S
C1204 H1196 0.950 1_545 S
C1204 C1205 1.386 . S
C1204 C1206 1.391 . S
C1205 C1204 1.386 . S
C1205 C1209 1.393 . S
C1206 H1198 0.950 . S
C1206 C1204 1.391 . S
C1206 C1207 1.400 . S
C1207 C1206 1.400 . S
C1207 C1208 1.398 . S
C1207 C1213 1.491 . S
C1208 H1199 0.950 . S
C1208 C1207 1.398 . S
C1208 C1209 1.391 . S
C1209 H1197 0.950 . S
C1209 C1205 1.393 . S
C1209 C1208 1.391 . S
C1210 H1200 0.950 . S
C1210 C1211 1.386 . S
C1210 C1212 1.391 . S
C1211 C1210 1.386 . S
C1211 C1215 1.393 . S
C1212 H1201 0.950 . S
C1212 C1210 1.391 . S
C1212 C1213 1.400 . S
C1213 C1207 1.491 . S
C1213 C1212 1.400 . S
C1213 C1214 1.398 . S
C1214 H1202 0.950 . S
C1214 C1213 1.398 . S
C1214 C1215 1.391 . S
C1215 H1203 0.950 . S
C1215 C1211 1.393 . S
C1215 C1214 1.391 . S
H1216 C1224 0.950 . S
H1217 C1229 0.950 . S
H1218 C1226 0.950 . S
H1219 C1228 0.950 . S
H1220 C1230 0.950 . S
H1221 C1232 0.950 . S
H1222 C1234 0.950 . S
H1223 C1235 0.950 . S
C1224 H1216 0.950 . S
C1224 C1225 1.386 . S
C1224 C1226 1.391 . S
C1225 C1224 1.386 . S
C1225 C1229 1.393 . S
C1226 H1218 0.950 . S
C1226 C1224 1.391 . S
C1226 C1227 1.400 . S
C1227 C1226 1.400 . S
C1227 C1228 1.398 . S
C1227 C1233 1.491 . S
C1228 H1219 0.950 . S
C1228 C1227 1.398 . S
C1228 C1229 1.391 . S
C1229 H1217 0.950 . S
C1229 C1225 1.393 . S
C1229 C1228 1.391 . S
C1230 H1220 0.950 . S
C1230 C1231 1.386 . S
C1230 C1232 1.391 . S
C1231 C1230 1.386 . S
C1231 C1235 1.393 . S
C1232 H1221 0.950 . S
C1232 C1230 1.391 . S
C1232 C1233 1.400 . S
C1233 C1227 1.491 . S
C1233 C1232 1.400 . S
C1233 C1234 1.398 . S
C1234 H1222 0.950 . S
C1234 C1233 1.398 . S
C1234 C1235 1.391 . S
C1235 H1223 0.950 . S
C1235 C1231 1.393 . S
C1235 C1234 1.391 . S
H1236 C1244 0.950 . S
H1237 C1249 0.950 . S
H1238 C1246 0.950 . S
H1239 C1248 0.950 . S
H1240 C1250 0.949 . S
H1241 C1252 0.950 . S
H1242 C1254 0.950 . S
H1243 C1255 0.950 . S
C1244 H1236 0.950 . S
C1244 C1245 1.386 1_556 S
C1244 C1246 1.391 . S
C1245 C1244 1.386 1_554 S
C1245 C1249 1.393 . S
C1246 H1238 0.950 . S
C1246 C1244 1.391 . S
C1246 C1247 1.402 . S
C1247 C1246 1.402 . S
C1247 C1248 1.395 1_556 S
C1247 C1253 1.491 . S
C1248 H1239 0.950 . S
C1248 C1247 1.395 1_554 S
C1248 C1249 1.391 . S
C1249 H1237 0.950 . S
C1249 C1245 1.393 . S
C1249 C1248 1.391 . S
C1250 H1240 0.949 . S
C1250 C1251 1.386 1_554 S
C1250 C1252 1.391 . S
C1251 C1250 1.386 1_556 S
C1251 C1255 1.393 . S
C1252 H1241 0.950 . S
C1252 C1250 1.391 . S
C1252 C1253 1.400 1_554 S
C1253 C1247 1.491 . S
C1253 C1252 1.400 1_556 S
C1253 C1254 1.398 . S
C1254 H1242 0.950 . S
C1254 C1253 1.398 . S
C1254 C1255 1.391 . S
C1255 H1243 0.950 . S
C1255 C1251 1.393 . S
C1255 C1254 1.391 . S
H1256 C1264 0.950 . S
H1257 C1269 0.950 . S
H1258 C1266 0.950 . S
H1259 C1268 0.950 . S
H1260 C1270 0.950 . S
H1261 C1272 0.950 . S
H1262 C1274 0.950 . S
H1263 C1275 0.950 . S
C1264 H1256 0.950 . S
C1264 C1265 1.386 1_556 S
C1264 C1266 1.391 . S
C1265 C1264 1.386 1_554 S
C1265 C1269 1.393 . S
C1266 H1258 0.950 . S
C1266 C1264 1.391 . S
C1266 C1267 1.400 . S
C1267 C1266 1.400 . S
C1267 C1268 1.398 1_556 S
C1267 C1273 1.491 . S
C1268 H1259 0.950 . S
C1268 C1267 1.398 1_554 S
C1268 C1269 1.391 . S
C1269 H1257 0.950 . S
C1269 C1265 1.393 . S
C1269 C1268 1.391 . S
C1270 H1260 0.950 . S
C1270 C1271 1.386 1_554 S
C1270 C1272 1.391 . S
C1271 C1270 1.386 1_556 S
C1271 C1275 1.393 . S
C1272 H1261 0.950 . S
C1272 C1270 1.391 . S
C1272 C1273 1.400 1_554 S
C1273 C1267 1.491 . S
C1273 C1272 1.400 1_556 S
C1273 C1274 1.398 . S
C1274 H1262 0.950 . S
C1274 C1273 1.398 . S
C1274 C1275 1.391 . S
C1275 H1263 0.950 . S
C1275 C1271 1.393 . S
C1275 C1274 1.391 . S
H1276 C1284 0.950 . S
H1277 C1289 0.950 . S
H1278 C1286 0.950 . S
H1279 C1288 0.950 . S
H1280 C1290 0.950 . S
H1281 C1292 0.950 . S
H1282 C1294 0.950 . S
H1283 C1295 0.950 . S
C1284 H1276 0.950 . S
C1284 C1285 1.386 . S
C1284 C1286 1.391 . S
C1285 C1284 1.386 . S
C1285 C1289 1.393 . S
C1286 H1278 0.950 . S
C1286 C1284 1.391 . S
C1286 C1287 1.400 . S
C1287 C1286 1.400 . S
C1287 C1288 1.398 . S
C1287 C1293 1.491 . S
C1288 H1279 0.950 . S
C1288 C1287 1.398 . S
C1288 C1289 1.391 . S
C1289 H1277 0.950 . S
C1289 C1285 1.393 . S
C1289 C1288 1.391 . S
C1290 H1280 0.950 . S
C1290 C1291 1.386 . S
C1290 C1292 1.391 . S
C1291 C1290 1.386 . S
C1291 C1295 1.393 . S
C1292 H1281 0.950 . S
C1292 C1290 1.391 . S
C1292 C1293 1.400 . S
C1293 C1287 1.491 . S
C1293 C1292 1.400 . S
C1293 C1294 1.398 . S
C1294 H1282 0.950 . S
C1294 C1293 1.398 . S
C1294 C1295 1.391 . S
C1295 H1283 0.950 . S
C1295 C1291 1.393 . S
C1295 C1294 1.391 . S
C345 C13 1.855 . S
C351 C226 1.703 . S
C371 C246 1.726 . S
C365 C1 1.771 . S
C391 C185 1.582 . S
C385 C27 1.562 . S
C405 C15 1.505 . S
C411 C206 1.501 . S
C425 C28 1.491 . S
C431 C331 1.354 . S
C445 C55 1.416 . S
C451 C311 1.424 . S
C471 C267 1.668 . S
C465 C40 1.718 . S
C485 C43 1.482 . S
C491 C288 1.451 . S
C511 C205 1.443 . S
C505 C56 1.566 . S
C531 C248 1.469 . S
C525 C83 1.479 . S
C545 C96 1.680 . S
C551 C225 1.640 . S
C565 C71 1.542 . S
C571 C289 1.412 . S
C591 C310 1.707 . S
C585 C99 1.858 . S
C611 C330 1.725 1_565 S
C605 C111 1.770 . S
C625 C113 1.568 . S
C631 C290 1.581 . S
C651 C269 1.503 . S
C645 C125 1.506 . S
C665 C139 1.494 . S
C671 C247 1.341 . S
C685 C153 1.411 . S
C691 C227 1.416 . S
C711 C204 1.685 . S
C705 C127 1.728 . S
C725 C141 1.486 . S
C731 C183 1.457 . S
C751 C268 1.427 . S
C745 C84 1.561 . S
C771 C332 1.474 . S
C765 C154 1.475 . S
C785 C68 1.678 . S
C791 C309 1.638 . S
C805 C166 1.541 . S
C811 C184 1.427 . S
C831 C182 1.166 . S
C825 C0 1.245 . S
C845 C12 1.190 . S
C851 C203 1.149 . S
C871 C228 1.192 . S
C865 C14 1.326 . S
C891 C244 1.428 . S
C885 C26 1.753 . S
C905 C41 1.137 . S
C911 C181 0.857 . S
C925 C42 1.730 . S
C931 C202 1.301 . S
C951 C224 1.122 . S
C945 C29 1.189 . S
C965 C54 1.101 . S
C971 C249 1.038 . S
C985 C69 1.060 . S
C991 C186 0.992 . S
C1011 C223 1.387 . S
C1005 C70 1.724 . S
C1025 C85 1.552 . S
C1031 C245 1.506 . S
C1045 C82 1.115 . S
C1051 C270 0.993 . S
C1071 C287 1.132 . S
C1065 C110 1.237 . S
C1085 C98 1.203 . S
C1091 C266 1.160 . S
C1105 C124 1.325 . S
C1111 C312 1.210 . S
C1125 C112 1.759 . S
C1131 C328 1.393 . S
C1145 C126 1.129 . S
C1151 C286 0.883 . S
C1171 C265 1.346 . S
C1165 C140 1.725 . S
C1185 C138 1.195 . S
C1191 C308 1.113 . S
C1211 C333 1.055 . S
C1205 C152 1.092 . S
C1231 C291 0.988 . S
C1225 C97 1.059 . S
C1251 C307 1.394 . S
C1245 C167 1.723 . S
C1271 C329 1.500 . S
C1265 C57 1.555 . S
C1285 C155 1.112 . S
C1291 C207 1.041 . S
