# Generated by pormake.
# Topology gar, (4,6)-cn, num edge types: 1
# Building blocks:
#     Node 0, Type 0, BuildingBlock: UXUYUI_clean_sbu_0, # of connection points: 4
#     Node 1, Type 0, BuildingBlock: UXUYUI_clean_sbu_0, # of connection points: 4
#     Node 2, Type 0, BuildingBlock: UXUYUI_clean_sbu_0, # of connection points: 4
#     Node 3, Type 0, BuildingBlock: UXUYUI_clean_sbu_0, # of connection points: 4
#     Node 4, Type 0, BuildingBlock: UXUYUI_clean_sbu_0, # of connection points: 4
#     Node 5, Type 0, BuildingBlock: UXUYUI_clean_sbu_0, # of connection points: 4
#     Node 6, Type 0, BuildingBlock: UXUYUI_clean_sbu_0, # of connection points: 4
#     Node 7, Type 0, BuildingBlock: UXUYUI_clean_sbu_0, # of connection points: 4
#     Node 8, Type 0, BuildingBlock: UXUYUI_clean_sbu_0, # of connection points: 4
#     Node 9, Type 0, BuildingBlock: UXUYUI_clean_sbu_0, # of connection points: 4
#     Node 10, Type 0, BuildingBlock: UXUYUI_clean_sbu_0, # of connection points: 4
#     Node 11, Type 0, BuildingBlock: UXUYUI_clean_sbu_0, # of connection points: 4
#     Node 12, Type 0, BuildingBlock: UXUYUI_clean_sbu_0, # of connection points: 4
#     Node 13, Type 0, BuildingBlock: UXUYUI_clean_sbu_0, # of connection points: 4
#     Node 14, Type 0, BuildingBlock: UXUYUI_clean_sbu_0, # of connection points: 4
#     Node 15, Type 0, BuildingBlock: UXUYUI_clean_sbu_0, # of connection points: 4
#     Node 16, Type 0, BuildingBlock: UXUYUI_clean_sbu_0, # of connection points: 4
#     Node 17, Type 0, BuildingBlock: UXUYUI_clean_sbu_0, # of connection points: 4
#     Node 18, Type 0, BuildingBlock: UXUYUI_clean_sbu_0, # of connection points: 4
#     Node 19, Type 0, BuildingBlock: UXUYUI_clean_sbu_0, # of connection points: 4
#     Node 20, Type 0, BuildingBlock: UXUYUI_clean_sbu_0, # of connection points: 4
#     Node 21, Type 0, BuildingBlock: UXUYUI_clean_sbu_0, # of connection points: 4
#     Node 22, Type 0, BuildingBlock: UXUYUI_clean_sbu_0, # of connection points: 4
#     Node 23, Type 0, BuildingBlock: UXUYUI_clean_sbu_0, # of connection points: 4
#     Node 24, Type 1, BuildingBlock: PAMTOO_clean_sbu_0, # of connection points: 6
#     Node 25, Type 1, BuildingBlock: PAMTOO_clean_sbu_0, # of connection points: 6
#     Node 26, Type 1, BuildingBlock: PAMTOO_clean_sbu_0, # of connection points: 6
#     Node 27, Type 1, BuildingBlock: PAMTOO_clean_sbu_0, # of connection points: 6
#     Node 28, Type 1, BuildingBlock: PAMTOO_clean_sbu_0, # of connection points: 6
#     Node 29, Type 1, BuildingBlock: PAMTOO_clean_sbu_0, # of connection points: 6
#     Node 30, Type 1, BuildingBlock: PAMTOO_clean_sbu_0, # of connection points: 6
#     Node 31, Type 1, BuildingBlock: PAMTOO_clean_sbu_0, # of connection points: 6
#     Node 32, Type 1, BuildingBlock: PAMTOO_clean_sbu_0, # of connection points: 6
#     Node 33, Type 1, BuildingBlock: PAMTOO_clean_sbu_0, # of connection points: 6
#     Node 34, Type 1, BuildingBlock: PAMTOO_clean_sbu_0, # of connection points: 6
#     Node 35, Type 1, BuildingBlock: PAMTOO_clean_sbu_0, # of connection points: 6
#     Node 36, Type 1, BuildingBlock: PAMTOO_clean_sbu_0, # of connection points: 6
#     Node 37, Type 1, BuildingBlock: PAMTOO_clean_sbu_0, # of connection points: 6
#     Node 38, Type 1, BuildingBlock: PAMTOO_clean_sbu_0, # of connection points: 6
#     Node 39, Type 1, BuildingBlock: PAMTOO_clean_sbu_0, # of connection points: 6
#     Edge 40, Type (0, 1), BuildingBlock: OJICUG_clean_linker_0, # of connection points: 2
#     Edge 41, Type (0, 1), BuildingBlock: OJICUG_clean_linker_0, # of connection points: 2
#     Edge 42, Type (0, 1), BuildingBlock: OJICUG_clean_linker_0, # of connection points: 2
#     Edge 43, Type (0, 1), BuildingBlock: OJICUG_clean_linker_0, # of connection points: 2
#     Edge 44, Type (0, 1), BuildingBlock: OJICUG_clean_linker_0, # of connection points: 2
#     Edge 45, Type (0, 1), BuildingBlock: OJICUG_clean_linker_0, # of connection points: 2
#     Edge 46, Type (0, 1), BuildingBlock: OJICUG_clean_linker_0, # of connection points: 2
#     Edge 47, Type (0, 1), BuildingBlock: OJICUG_clean_linker_0, # of connection points: 2
#     Edge 48, Type (0, 1), BuildingBlock: OJICUG_clean_linker_0, # of connection points: 2
#     Edge 49, Type (0, 1), BuildingBlock: OJICUG_clean_linker_0, # of connection points: 2
#     Edge 50, Type (0, 1), BuildingBlock: OJICUG_clean_linker_0, # of connection points: 2
#     Edge 51, Type (0, 1), BuildingBlock: OJICUG_clean_linker_0, # of connection points: 2
#     Edge 52, Type (0, 1), BuildingBlock: OJICUG_clean_linker_0, # of connection points: 2
#     Edge 53, Type (0, 1), BuildingBlock: OJICUG_clean_linker_0, # of connection points: 2
#     Edge 54, Type (0, 1), BuildingBlock: OJICUG_clean_linker_0, # of connection points: 2
#     Edge 55, Type (0, 1), BuildingBlock: OJICUG_clean_linker_0, # of connection points: 2
#     Edge 56, Type (0, 1), BuildingBlock: OJICUG_clean_linker_0, # of connection points: 2
#     Edge 57, Type (0, 1), BuildingBlock: OJICUG_clean_linker_0, # of connection points: 2
#     Edge 58, Type (0, 1), BuildingBlock: OJICUG_clean_linker_0, # of connection points: 2
#     Edge 59, Type (0, 1), BuildingBlock: OJICUG_clean_linker_0, # of connection points: 2
#     Edge 60, Type (0, 1), BuildingBlock: OJICUG_clean_linker_0, # of connection points: 2
#     Edge 61, Type (0, 1), BuildingBlock: OJICUG_clean_linker_0, # of connection points: 2
#     Edge 62, Type (0, 1), BuildingBlock: OJICUG_clean_linker_0, # of connection points: 2
#     Edge 63, Type (0, 1), BuildingBlock: OJICUG_clean_linker_0, # of connection points: 2
#     Edge 64, Type (0, 1), BuildingBlock: OJICUG_clean_linker_0, # of connection points: 2
#     Edge 65, Type (0, 1), BuildingBlock: OJICUG_clean_linker_0, # of connection points: 2
#     Edge 66, Type (0, 1), BuildingBlock: OJICUG_clean_linker_0, # of connection points: 2
#     Edge 67, Type (0, 1), BuildingBlock: OJICUG_clean_linker_0, # of connection points: 2
#     Edge 68, Type (0, 1), BuildingBlock: OJICUG_clean_linker_0, # of connection points: 2
#     Edge 69, Type (0, 1), BuildingBlock: OJICUG_clean_linker_0, # of connection points: 2
#     Edge 70, Type (0, 1), BuildingBlock: OJICUG_clean_linker_0, # of connection points: 2
#     Edge 71, Type (0, 1), BuildingBlock: OJICUG_clean_linker_0, # of connection points: 2
#     Edge 72, Type (0, 1), BuildingBlock: OJICUG_clean_linker_0, # of connection points: 2
#     Edge 73, Type (0, 1), BuildingBlock: OJICUG_clean_linker_0, # of connection points: 2
#     Edge 74, Type (0, 1), BuildingBlock: OJICUG_clean_linker_0, # of connection points: 2
#     Edge 75, Type (0, 1), BuildingBlock: OJICUG_clean_linker_0, # of connection points: 2
#     Edge 76, Type (0, 1), BuildingBlock: OJICUG_clean_linker_0, # of connection points: 2
#     Edge 77, Type (0, 1), BuildingBlock: OJICUG_clean_linker_0, # of connection points: 2
#     Edge 78, Type (0, 1), BuildingBlock: OJICUG_clean_linker_0, # of connection points: 2
#     Edge 79, Type (0, 1), BuildingBlock: OJICUG_clean_linker_0, # of connection points: 2
#     Edge 80, Type (0, 1), BuildingBlock: OJICUG_clean_linker_0, # of connection points: 2
#     Edge 81, Type (0, 1), BuildingBlock: OJICUG_clean_linker_0, # of connection points: 2
#     Edge 82, Type (0, 1), BuildingBlock: OJICUG_clean_linker_0, # of connection points: 2
#     Edge 83, Type (0, 1), BuildingBlock: OJICUG_clean_linker_0, # of connection points: 2
#     Edge 84, Type (0, 1), BuildingBlock: OJICUG_clean_linker_0, # of connection points: 2
#     Edge 85, Type (0, 1), BuildingBlock: OJICUG_clean_linker_0, # of connection points: 2
#     Edge 86, Type (0, 1), BuildingBlock: OJICUG_clean_linker_0, # of connection points: 2
#     Edge 87, Type (0, 1), BuildingBlock: OJICUG_clean_linker_0, # of connection points: 2
#     Edge 88, Type (0, 1), BuildingBlock: OJICUG_clean_linker_0, # of connection points: 2
#     Edge 89, Type (0, 1), BuildingBlock: OJICUG_clean_linker_0, # of connection points: 2
#     Edge 90, Type (0, 1), BuildingBlock: OJICUG_clean_linker_0, # of connection points: 2
#     Edge 91, Type (0, 1), BuildingBlock: OJICUG_clean_linker_0, # of connection points: 2
#     Edge 92, Type (0, 1), BuildingBlock: OJICUG_clean_linker_0, # of connection points: 2
#     Edge 93, Type (0, 1), BuildingBlock: OJICUG_clean_linker_0, # of connection points: 2
#     Edge 94, Type (0, 1), BuildingBlock: OJICUG_clean_linker_0, # of connection points: 2
#     Edge 95, Type (0, 1), BuildingBlock: OJICUG_clean_linker_0, # of connection points: 2
#     Edge 96, Type (0, 1), BuildingBlock: OJICUG_clean_linker_0, # of connection points: 2
#     Edge 97, Type (0, 1), BuildingBlock: OJICUG_clean_linker_0, # of connection points: 2
#     Edge 98, Type (0, 1), BuildingBlock: OJICUG_clean_linker_0, # of connection points: 2
#     Edge 99, Type (0, 1), BuildingBlock: OJICUG_clean_linker_0, # of connection points: 2
#     Edge 100, Type (0, 1), BuildingBlock: OJICUG_clean_linker_0, # of connection points: 2
#     Edge 101, Type (0, 1), BuildingBlock: OJICUG_clean_linker_0, # of connection points: 2
#     Edge 102, Type (0, 1), BuildingBlock: OJICUG_clean_linker_0, # of connection points: 2
#     Edge 103, Type (0, 1), BuildingBlock: OJICUG_clean_linker_0, # of connection points: 2
#     Edge 104, Type (0, 1), BuildingBlock: OJICUG_clean_linker_0, # of connection points: 2
#     Edge 105, Type (0, 1), BuildingBlock: OJICUG_clean_linker_0, # of connection points: 2
#     Edge 106, Type (0, 1), BuildingBlock: OJICUG_clean_linker_0, # of connection points: 2
#     Edge 107, Type (0, 1), BuildingBlock: OJICUG_clean_linker_0, # of connection points: 2
#     Edge 108, Type (0, 1), BuildingBlock: OJICUG_clean_linker_0, # of connection points: 2
#     Edge 109, Type (0, 1), BuildingBlock: OJICUG_clean_linker_0, # of connection points: 2
#     Edge 110, Type (0, 1), BuildingBlock: OJICUG_clean_linker_0, # of connection points: 2
#     Edge 111, Type (0, 1), BuildingBlock: OJICUG_clean_linker_0, # of connection points: 2
#     Edge 112, Type (0, 1), BuildingBlock: OJICUG_clean_linker_0, # of connection points: 2
#     Edge 113, Type (0, 1), BuildingBlock: OJICUG_clean_linker_0, # of connection points: 2
#     Edge 114, Type (0, 1), BuildingBlock: OJICUG_clean_linker_0, # of connection points: 2
#     Edge 115, Type (0, 1), BuildingBlock: OJICUG_clean_linker_0, # of connection points: 2
#     Edge 116, Type (0, 1), BuildingBlock: OJICUG_clean_linker_0, # of connection points: 2
#     Edge 117, Type (0, 1), BuildingBlock: OJICUG_clean_linker_0, # of connection points: 2
#     Edge 118, Type (0, 1), BuildingBlock: OJICUG_clean_linker_0, # of connection points: 2
#     Edge 119, Type (0, 1), BuildingBlock: OJICUG_clean_linker_0, # of connection points: 2
#     Edge 120, Type (0, 1), BuildingBlock: OJICUG_clean_linker_0, # of connection points: 2
#     Edge 121, Type (0, 1), BuildingBlock: OJICUG_clean_linker_0, # of connection points: 2
#     Edge 122, Type (0, 1), BuildingBlock: OJICUG_clean_linker_0, # of connection points: 2
#     Edge 123, Type (0, 1), BuildingBlock: OJICUG_clean_linker_0, # of connection points: 2
#     Edge 124, Type (0, 1), BuildingBlock: OJICUG_clean_linker_0, # of connection points: 2
#     Edge 125, Type (0, 1), BuildingBlock: OJICUG_clean_linker_0, # of connection points: 2
#     Edge 126, Type (0, 1), BuildingBlock: OJICUG_clean_linker_0, # of connection points: 2
#     Edge 127, Type (0, 1), BuildingBlock: OJICUG_clean_linker_0, # of connection points: 2
#     Edge 128, Type (0, 1), BuildingBlock: OJICUG_clean_linker_0, # of connection points: 2
#     Edge 129, Type (0, 1), BuildingBlock: OJICUG_clean_linker_0, # of connection points: 2
#     Edge 130, Type (0, 1), BuildingBlock: OJICUG_clean_linker_0, # of connection points: 2
#     Edge 131, Type (0, 1), BuildingBlock: OJICUG_clean_linker_0, # of connection points: 2
#     Edge 132, Type (0, 1), BuildingBlock: OJICUG_clean_linker_0, # of connection points: 2
#     Edge 133, Type (0, 1), BuildingBlock: OJICUG_clean_linker_0, # of connection points: 2
#     Edge 134, Type (0, 1), BuildingBlock: OJICUG_clean_linker_0, # of connection points: 2
#     Edge 135, Type (0, 1), BuildingBlock: OJICUG_clean_linker_0, # of connection points: 2
# Relax obj value: 0.173
# Max RMSD: 0.261
# Mean RMSD: 0.203
data_MOF--net-gar--node1-UXUYUI_clean_sbu_0--node2-PAMTOO_clean_sbu_0--edge1-OJICUG_clean_linker_0
_symmetry_space_group_name_H-M    P1
_symmetry_Int_Tables_number       1
_symmetry_cell_setting            triclinic
loop_
_symmetry_equiv_pos_as_xyz
'x, y, z'
_cell_length_a     57.778925
_cell_length_b     57.826599
_cell_length_c     55.640829
_cell_angle_alpha  97.02084
_cell_angle_beta   96.195398
_cell_angle_gamma 105.7694
loop_
_atom_site_label
_atom_site_type_symbol
_atom_site_fract_x
_atom_site_fract_y
_atom_site_fract_z
_atom_type_partial_charge
Li0 Li 0.02843 0.32587 0.35231 0.0
Li1 Li 0.05801 0.35683 0.3859 0.0
Li2 Li 0.07606 0.32925 0.35565 0.0
Li3 Li 0.05223 0.31243 0.38766 0.0
C4 C 0.054 0.3639 0.32836 0.0
N5 N 0.04693 0.38304 0.28599 0.0
C6 C 0.04783 0.38571 0.32928 0.0
C7 C 0.05686 0.35196 0.30598 0.0
C8 C 0.04425 0.39505 0.30763 0.0
C9 C 0.05312 0.36189 0.28473 0.0
C10 C 0.01608 0.34048 0.40514 0.0
C11 C 0.01524 0.35839 0.44644 0.0
N12 N 0.99318 0.36143 0.43913 0.0
C13 C 0.99335 0.34373 0.39807 0.0
C14 C 0.02708 0.34781 0.42955 0.0
C15 C 0.98208 0.35435 0.41551 0.0
C16 C 0.97693 0.2994 0.33712 0.0
N17 N 0.99402 0.3203 0.33494 0.0
C18 C 0.96185 0.33548 0.31739 0.0
C19 C 0.98674 0.33813 0.32507 0.0
C20 C 0.94362 0.31432 0.31995 0.0
C21 C 0.95187 0.29607 0.32981 0.0
H22 H 0.98261 0.28559 0.34562 0.0
H23 H 1.00011 0.35495 0.32389 0.0
C24 C 0.07904 0.40235 0.42185 0.0
N25 N 0.06008 0.38919 0.40437 0.0
C26 C 0.0778 0.42368 0.43631 0.0
C27 C 0.03783 0.41786 0.41443 0.0
C28 C 0.04005 0.39709 0.40006 0.0
C29 C 0.05671 0.43139 0.43311 0.0
H30 H 0.09493 0.39606 0.42503 0.0
H31 H 0.02529 0.38674 0.3859 0.0
C32 C 0.04685 0.28473 0.33063 0.0
N33 N 0.04828 0.25498 0.28834 0.0
C34 C 0.06054 0.2682 0.33136 0.0
C35 C 0.0338 0.28605 0.30844 0.0
C36 C 0.06104 0.25333 0.30977 0.0
C37 C 0.0348 0.27089 0.28724 0.0
C38 C 0.09656 0.33324 0.41147 0.0
C39 C 0.1092 0.31611 0.40677 0.0
C40 C 0.09694 0.34358 0.43561 0.0
C41 C 0.12191 0.30951 0.42633 0.0
C42 C 0.10985 0.3365 0.45468 0.0
N43 N 0.12196 0.31974 0.44969 0.0
C44 C 0.12898 0.338 0.35461 0.0
C45 C 0.10654 0.31414 0.31791 0.0
C46 C 0.15099 0.33546 0.34718 0.0
N47 N 0.10696 0.32708 0.34034 0.0
C48 C 0.12821 0.31124 0.30971 0.0
C49 C 0.15122 0.32169 0.32441 0.0
H50 H 0.12959 0.3484 0.37231 0.0
H51 H 0.08934 0.30569 0.30624 0.0
C52 C 0.03441 0.28684 0.42669 0.0
N53 N 0.04903 0.2874 0.40902 0.0
C54 C 0.03181 0.269 0.44196 0.0
C55 C 0.05904 0.25212 0.42052 0.0
C56 C 0.06108 0.27029 0.40564 0.0
C57 C 0.0442 0.25121 0.43906 0.0
H58 H 0.02452 0.30011 0.42892 0.0
H59 H 0.07232 0.27067 0.39132 0.0
O60 O 0.05758 0.35447 0.34933 0.0
O61 O 0.02781 0.33083 0.38816 0.0
O62 O 0.04603 0.29939 0.35155 0.0
O63 O 0.0837 0.33964 0.39254 0.0
H64 H 0.04572 0.39525 0.34651 0.0
H65 H 0.06196 0.33525 0.30504 0.0
H66 H 0.03935 0.41185 0.30803 0.0
H67 H 0.05519 0.3528 0.26725 0.0
H68 H 0.02364 0.36425 0.46535 0.0
H69 H 0.98456 0.33834 0.37929 0.0
H70 H 0.04465 0.3455 0.43534 0.0
H71 H 0.96454 0.35705 0.41025 0.0
H72 H 0.95704 0.35014 0.3097 0.0
H73 H 0.93909 0.27955 0.33284 0.0
H74 H 0.09282 0.43351 0.45049 0.0
H75 H 0.02135 0.4232 0.41105 0.0
H76 H 0.07086 0.26703 0.34833 0.0
H77 H 0.02309 0.29872 0.30757 0.0
H78 H 0.07165 0.24053 0.31003 0.0
H79 H 0.02485 0.27178 0.26992 0.0
H80 H 0.10884 0.30765 0.38823 0.0
H81 H 0.08739 0.35694 0.43962 0.0
H82 H 0.13163 0.29615 0.42295 0.0
H83 H 0.11025 0.34432 0.47345 0.0
H84 H 0.16765 0.34386 0.35974 0.0
H85 H 0.12675 0.30085 0.29179 0.0
H86 H 0.0203 0.26931 0.45604 0.0
H87 H 0.06867 0.23867 0.41719 0.0
Li88 Li 0.02982 0.78505 0.68826 0.0
Li89 Li 0.05172 0.77065 0.72078 0.0
Li90 Li 0.02233 0.73988 0.68711 0.0
Li91 Li 1.00471 0.76752 0.71988 0.0
C92 C 0.06947 0.76957 0.67067 0.0
N93 N 0.10472 0.77867 0.64042 0.0
C94 C 0.09125 0.78805 0.67855 0.0
C95 C 0.06568 0.75561 0.64746 0.0
C96 C 0.10883 0.79239 0.66297 0.0
C97 C 0.0837 0.76054 0.63242 0.0
C98 C 0.0497 0.81817 0.73657 0.0
C99 C 0.06314 0.84834 0.77298 0.0
N100 N 0.08128 0.86116 0.76198 0.0
C101 C 0.06846 0.83164 0.7256 0.0
C102 C 0.04697 0.82654 0.76043 0.0
C103 C 0.08424 0.85334 0.73875 0.0
C104 C 0.02687 0.83106 0.67632 0.0
N105 N 0.03267 0.81058 0.66775 0.0
C106 C 0.04281 0.82675 0.63127 0.0
C107 C 0.04022 0.80806 0.64549 0.0
C108 C 0.03742 0.84834 0.63983 0.0
C109 C 0.02913 0.85019 0.66266 0.0
H110 H 0.02064 0.83265 0.69393 0.0
H111 H 0.04406 0.79147 0.63857 0.0
C112 C 0.09624 0.75727 0.72829 0.0
N113 N 0.08607 0.77457 0.73745 0.0
C114 C 0.12106 0.75936 0.73509 0.0
C115 C 0.1252 0.79696 0.76117 0.0
C116 C 0.10016 0.79411 0.75394 0.0
C117 C 0.13634 0.77959 0.75156 0.0
H118 H 0.08523 0.74209 0.71484 0.0
H119 H 0.0923 0.80796 0.76112 0.0
C120 C 0.98613 0.76673 0.66394 0.0
N121 N 0.96489 0.78486 0.62651 0.0
C122 C 0.97192 0.78227 0.66907 0.0
C123 C 0.98955 0.76037 0.63981 0.0
C124 C 0.96133 0.79125 0.64987 0.0
C125 C 0.97865 0.76973 0.62113 0.0
C126 C 0.03263 0.73612 0.74577 0.0
C127 C 0.04479 0.71827 0.74546 0.0
C128 C 0.03111 0.74923 0.76807 0.0
C129 C 0.0553 0.71383 0.76759 0.0
C130 C 0.04185 0.74423 0.78981 0.0
N131 N 0.05363 0.72679 0.78912 0.0
C132 C 0.03866 0.69915 0.67034 0.0
C133 C 1.00136 0.69796 0.64741 0.0
C134 C 0.03996 0.67854 0.6549 0.0
N135 N 0.01965 0.70861 0.6664 0.0
C136 C 1.00205 0.67739 0.63137 0.0
C137 C 0.02167 0.66739 0.63479 0.0
H138 H 0.05334 0.70811 0.68509 0.0
H139 H 0.98646 0.70573 0.64431 0.0
C140 C 0.97282 0.79282 0.74494 0.0
N141 N 0.9743 0.77042 0.73536 0.0
C142 C 0.95128 0.79594 0.75317 0.0
C143 C 0.93254 0.75301 0.74186 0.0
C144 C 0.95446 0.75067 0.73387 0.0
C145 C 0.93028 0.77596 0.75163 0.0
H146 H 0.98822 0.80862 0.74564 0.0
H147 H 0.95533 0.73293 0.72597 0.0
O148 O 0.05209 0.76482 0.68569 0.0
O149 O 0.03407 0.79686 0.72406 0.0
O150 O 0.99738 0.75849 0.68257 0.0
O151 O 0.02282 0.74128 0.72433 0.0
H152 H 0.09463 0.79884 0.69654 0.0
H153 H 0.0489 0.74129 0.64102 0.0
H154 H 0.12578 0.80663 0.66884 0.0
H155 H 0.08097 0.74996 0.61438 0.0
H156 H 0.06128 0.85504 0.79148 0.0
H157 H 0.07077 0.82545 0.70714 0.0
H158 H 0.03257 0.81626 0.76918 0.0
H159 H 0.09884 0.86394 0.7305 0.0
H160 H 0.04874 0.82417 0.61359 0.0
H161 H 0.02485 0.86646 0.67015 0.0
H162 H 0.12834 0.74552 0.72666 0.0
H163 H 0.13573 0.81279 0.77416 0.0
H164 H 0.96931 0.78753 0.6877 0.0
H165 H 1.00086 0.7487 0.63562 0.0
H166 H 0.95036 0.80337 0.65356 0.0
H167 H 0.98125 0.7651 0.60238 0.0
H168 H 0.04618 0.70803 0.72833 0.0
H169 H 0.02189 0.76323 0.76854 0.0
H170 H 0.06482 0.7001 0.76766 0.0
H171 H 0.04087 0.75427 0.80722 0.0
H172 H 0.05567 0.67196 0.65824 0.0
H173 H 0.98734 0.66945 0.61635 0.0
H174 H 0.95098 0.81418 0.76001 0.0
H175 H 0.91745 0.73675 0.74032 0.0
Li176 Li 0.53378 0.82876 0.85411 0.0
Li177 Li 0.5629 0.85817 0.88817 0.0
Li178 Li 0.58126 0.83219 0.85689 0.0
Li179 Li 0.55714 0.81368 0.88838 0.0
C180 C 0.55844 0.8657 0.83004 0.0
N181 N 0.54958 0.88179 0.78618 0.0
C182 C 0.54844 0.88509 0.82922 0.0
C183 C 0.56427 0.85472 0.80865 0.0
C184 C 0.54399 0.89289 0.80684 0.0
C185 C 0.55956 0.86305 0.78662 0.0
C186 C 0.52239 0.84117 0.90842 0.0
C187 C 0.52444 0.85744 0.95091 0.0
N188 N 0.50231 0.86114 0.94569 0.0
C189 C 0.49957 0.84494 0.90353 0.0
C190 C 0.53484 0.84729 0.93234 0.0
C191 C 0.48975 0.8551 0.92261 0.0
C192 C 0.48399 0.80141 0.82885 0.0
N193 N 0.49969 0.8241 0.83673 0.0
C194 C 0.46623 0.84135 0.82957 0.0
C195 C 0.49111 0.8439 0.83683 0.0
C196 C 0.44932 0.81812 0.82188 0.0
C197 C 0.45897 0.79805 0.82121 0.0
H198 H 0.49065 0.78568 0.82929 0.0
H199 H 0.50329 0.86179 0.84401 0.0
C200 C 0.58246 0.90083 0.92736 0.0
N201 N 0.56478 0.8897 0.90797 0.0
C202 C 0.58099 0.92148 0.94273 0.0
C203 C 0.54358 0.91941 0.91766 0.0
C204 C 0.54579 0.8989 0.90279 0.0
C205 C 0.56114 0.93098 0.93827 0.0
H206 H 0.59749 0.89345 0.93128 0.0
H207 H 0.53172 0.88971 0.88753 0.0
C208 C 0.55043 0.78697 0.83101 0.0
N209 N 0.54845 0.7559 0.78849 0.0
C210 C 0.56004 0.76731 0.83177 0.0
C211 C 0.53963 0.79072 0.80868 0.0
C212 C 0.55891 0.75183 0.81005 0.0
C213 C 0.53887 0.77485 0.78736 0.0
C214 C 0.603 0.83345 0.91076 0.0
C215 C 0.61609 0.81754 0.90301 0.0
C216 C 0.60464 0.84161 0.93576 0.0
C217 C 0.6305 0.80997 0.92042 0.0
C218 C 0.61924 0.8336 0.95261 0.0
N219 N 0.63176 0.81807 0.94465 0.0
C220 C 0.63428 0.84558 0.85335 0.0
C221 C 0.61189 0.8144 0.82145 0.0
C222 C 0.65649 0.84366 0.84584 0.0
N223 N 0.61226 0.83084 0.84148 0.0
C224 C 0.63367 0.81182 0.81341 0.0
C225 C 0.65676 0.82629 0.82573 0.0
H226 H 0.63479 0.85849 0.86934 0.0
H227 H 0.59468 0.80283 0.81169 0.0
C228 C 0.53765 0.78545 0.92479 0.0
N229 N 0.55377 0.78773 0.90847 0.0
C230 C 0.53474 0.76686 0.93917 0.0
C231 C 0.56459 0.75269 0.91944 0.0
C232 C 0.567 0.77163 0.9055 0.0
C233 C 0.5483 0.75008 0.93666 0.0
H234 H 0.52671 0.79782 0.9265 0.0
H235 H 0.57945 0.77339 0.89224 0.0
O236 O 0.5629 0.85775 0.85175 0.0
O237 O 0.53274 0.83201 0.88984 0.0
O238 O 0.55126 0.80228 0.85206 0.0
O239 O 0.58862 0.84087 0.89393 0.0
H240 H 0.54413 0.89399 0.84569 0.0
H241 H 0.57236 0.83993 0.80905 0.0
H242 H 0.53614 0.9078 0.8059 0.0
H243 H 0.56388 0.85464 0.76989 0.0
H244 H 0.53399 0.86242 0.96945 0.0
H245 H 0.4895 0.84006 0.88526 0.0
H246 H 0.55242 0.84436 0.93645 0.0
H247 H 0.47215 0.8582 0.91905 0.0
H248 H 0.46027 0.85758 0.83111 0.0
H249 H 0.44729 0.77969 0.81514 0.0
H250 H 0.59529 0.92982 0.95803 0.0
H251 H 0.52773 0.92556 0.91345 0.0
H252 H 0.56841 0.7641 0.84889 0.0
H253 H 0.5319 0.80572 0.8078 0.0
H254 H 0.56637 0.7366 0.81034 0.0
H255 H 0.53063 0.77758 0.76994 0.0
H256 H 0.61476 0.8107 0.88379 0.0
H257 H 0.5948 0.85399 0.94215 0.0
H258 H 0.64058 0.79754 0.91466 0.0
H259 H 0.62063 0.83974 0.97201 0.0
H260 H 0.67338 0.85526 0.85638 0.0
H261 H 0.63229 0.79844 0.79752 0.0
H262 H 0.52159 0.76538 0.95179 0.0
H263 H 0.57557 0.74036 0.91688 0.0
Li264 Li 0.52451 0.28295 0.18443 0.0
Li265 Li 0.54736 0.26746 0.21819 0.0
Li266 Li 0.51677 0.2391 0.18561 0.0
Li267 Li 0.49911 0.26404 0.21575 0.0
C268 C 0.55616 0.25245 0.16398 0.0
N269 N 0.57188 0.22805 0.12612 0.0
C270 C 0.57248 0.23912 0.16903 0.0
C271 C 0.54789 0.25344 0.13968 0.0
C272 C 0.58017 0.22687 0.14964 0.0
C273 C 0.55607 0.24099 0.1208 0.0
C274 C 0.53506 0.31841 0.22373 0.0
C275 C 0.52564 0.35606 0.23509 0.0
N276 N 0.54609 0.36838 0.22689 0.0
C277 C 0.55609 0.33147 0.21563 0.0
C278 C 0.51977 0.3308 0.23368 0.0
C279 C 0.5613 0.35671 0.21727 0.0
C280 C 0.51011 0.31948 0.16054 0.0
N281 N 0.52798 0.30847 0.16404 0.0
C282 C 0.5519 0.33393 0.13937 0.0
C283 C 0.54866 0.31543 0.15385 0.0
C284 C 0.53383 0.34576 0.13538 0.0
C285 C 0.51268 0.33821 0.14629 0.0
H286 H 0.49392 0.31385 0.16902 0.0
H287 H 0.56278 0.30667 0.15706 0.0
C288 C 0.5884 0.25141 0.23955 0.0
N289 N 0.58137 0.27151 0.23552 0.0
C290 C 0.61314 0.25303 0.2467 0.0
C291 C 0.62334 0.29608 0.24629 0.0
C292 C 0.59846 0.29367 0.23924 0.0
C293 C 0.63137 0.27555 0.24969 0.0
H294 H 0.57496 0.23376 0.23603 0.0
H295 H 0.59303 0.30958 0.23591 0.0
C296 C 0.47199 0.24294 0.16546 0.0
N297 N 0.43003 0.21225 0.13753 0.0
C298 C 0.45729 0.22408 0.17527 0.0
C299 C 0.46538 0.24629 0.14151 0.0
C300 C 0.43612 0.20874 0.16083 0.0
C301 C 0.44409 0.23054 0.12766 0.0
C302 C 0.51952 0.2355 0.24578 0.0
C303 C 0.52229 0.21374 0.25236 0.0
C304 C 0.51848 0.25407 0.26388 0.0
C305 C 0.5239 0.21088 0.277 0.0
C306 C 0.52012 0.25049 0.28831 0.0
N307 N 0.52278 0.22915 0.29431 0.0
C308 C 0.52301 0.19128 0.17465 0.0
C309 C 0.50463 0.20371 0.14043 0.0
C310 C 0.52507 0.17063 0.1598 0.0
N311 N 0.5132 0.20758 0.16482 0.0
C312 C 0.50653 0.18343 0.12491 0.0
C313 C 0.51726 0.16665 0.13438 0.0
H314 H 0.53032 0.19487 0.1939 0.0
H315 H 0.49743 0.21702 0.1327 0.0
C316 C 0.45838 0.28421 0.22341 0.0
N317 N 0.46818 0.26664 0.23045 0.0
C318 C 0.43668 0.28722 0.23117 0.0
C319 C 0.43423 0.25351 0.25289 0.0
C320 C 0.45624 0.25127 0.24491 0.0
C321 C 0.42391 0.27183 0.24624 0.0
H322 H 0.46729 0.29594 0.21137 0.0
H323 H 0.46354 0.23696 0.25016 0.0
O324 O 0.54781 0.26393 0.18269 0.0
O325 O 0.52939 0.29363 0.2218 0.0
O326 O 0.49285 0.25802 0.17918 0.0
O327 O 0.51808 0.23862 0.22176 0.0
H328 H 0.5789 0.23799 0.18771 0.0
H329 H 0.53492 0.26331 0.13543 0.0
H330 H 0.59268 0.21635 0.15328 0.0
H331 H 0.54969 0.24146 0.10191 0.0
H332 H 0.51396 0.36588 0.24273 0.0
H333 H 0.56796 0.32214 0.20759 0.0
H334 H 0.50365 0.32104 0.24043 0.0
H335 H 0.57738 0.36699 0.2108 0.0
H336 H 0.56838 0.33867 0.13119 0.0
H337 H 0.49835 0.34691 0.14419 0.0
H338 H 0.61797 0.23649 0.24876 0.0
H339 H 0.63623 0.314 0.24874 0.0
H340 H 0.46225 0.22127 0.19378 0.0
H341 H 0.47666 0.26083 0.13371 0.0
H342 H 0.42457 0.19402 0.16814 0.0
H343 H 0.43875 0.23284 0.10907 0.0
H344 H 0.52321 0.19922 0.23858 0.0
H345 H 0.51635 0.27105 0.25915 0.0
H346 H 0.52604 0.19413 0.28237 0.0
H347 H 0.51928 0.26467 0.3025 0.0
H348 H 0.53374 0.1585 0.16804 0.0
H349 H 0.50001 0.18118 0.10553 0.0
H350 H 0.4297 0.30133 0.22484 0.0
H351 H 0.42553 0.24105 0.26445 0.0
Li352 Li 0.07839 0.8426 0.11191 0.0
Li353 Li 0.10255 0.82513 0.14283 0.0
Li354 Li 0.07419 0.794 0.11017 0.0
Li355 Li 0.05896 0.8182 0.1435 0.0
C356 C 0.10784 0.82129 0.0828 0.0
N357 N 0.11637 0.81787 0.03477 0.0
C358 C 0.13117 0.82256 0.07739 0.0
C359 C 0.08882 0.81823 0.06381 0.0
C360 C 0.13512 0.8208 0.05298 0.0
C361 C 0.09352 0.81657 0.03964 0.0
C362 C 0.09837 0.86708 0.16716 0.0
C363 C 0.1057 0.88795 0.20873 0.0
N364 N 0.12781 0.90152 0.20486 0.0
C365 C 0.12117 0.88123 0.16358 0.0
C366 C 0.09055 0.87041 0.1899 0.0
C367 C 0.13579 0.89856 0.18288 0.0
C368 C 0.08435 0.89519 0.11081 0.0
N369 N 0.07545 0.87298 0.09621 0.0
C370 C 0.05947 0.89301 0.06493 0.0
C371 C 0.06311 0.87181 0.07343 0.0
C372 C 0.06843 0.91624 0.07974 0.0
C373 C 0.08117 0.91672 0.10304 0.0
H374 H 0.09351 0.89639 0.12904 0.0
H375 H 0.05552 0.85432 0.06184 0.0
C376 C 0.15068 0.81912 0.15503 0.0
N377 N 0.13352 0.82815 0.16447 0.0
C378 C 0.17092 0.81719 0.17037 0.0
C379 C 0.15609 0.83448 0.20494 0.0
C380 C 0.13605 0.8358 0.18903 0.0
C381 C 0.17384 0.82463 0.19591 0.0
H382 H 0.14815 0.81238 0.13564 0.0
H383 H 0.122 0.84202 0.19663 0.0
C384 C 0.02443 0.81089 0.10543 0.0
N385 N 0.97585 0.80775 0.10541 0.0
C386 C 1.00727 0.78822 0.10363 0.0
C387 C 0.01689 0.83197 0.10712 0.0
C388 C 0.98279 0.78701 0.10369 0.0
C389 C 0.99225 0.83 0.10708 0.0
C390 C 0.08808 0.78493 0.16322 0.0
C391 C 0.10164 0.76908 0.15679 0.0
C392 C 0.08609 0.79121 0.18782 0.0
C393 C 0.11317 0.75988 0.17517 0.0
C394 C 0.09787 0.78159 0.20565 0.0
N395 N 0.11107 0.76628 0.19901 0.0
C396 C 0.085 0.75144 0.0812 0.0
C397 C 0.05062 0.74192 0.10139 0.0
C398 C 0.08271 0.72634 0.07458 0.0
N399 N 0.06906 0.75895 0.09447 0.0
C400 C 0.04755 0.71676 0.095 0.0
C401 C 0.0638 0.70831 0.08156 0.0
H402 H 0.10009 0.76489 0.07636 0.0
H403 H 0.0387 0.74782 0.11288 0.0
C404 C 0.02373 0.83354 0.16909 0.0
N405 N 0.03305 0.81473 0.16316 0.0
C406 C 1.0048 0.83084 0.18324 0.0
C407 C 1.00543 0.7895 0.185 0.0
C408 C 0.02414 0.79291 0.17061 0.0
C409 C 0.9955 0.80862 0.19158 0.0
H410 H 0.03103 0.85068 0.16283 0.0
H411 H 0.0316 0.77811 0.16537 0.0
O412 O 0.10369 0.82281 0.10659 0.0
O413 O 0.08386 0.84993 0.14855 0.0
O414 O 0.04858 0.81257 0.10622 0.0
O415 O 0.07728 0.79472 0.14558 0.0
H416 H 0.14607 0.82487 0.0919 0.0
H417 H 0.07063 0.81709 0.06763 0.0
H418 H 0.15308 0.82175 0.04852 0.0
H419 H 0.07898 0.81422 0.02475 0.0
H420 H 0.09991 0.8907 0.22644 0.0
H421 H 0.12753 0.87872 0.14612 0.0
H422 H 0.07305 0.85947 0.19303 0.0
H423 H 0.15349 0.9096 0.18041 0.0
H424 H 0.04964 0.89105 0.04676 0.0
H425 H 0.08816 0.93357 0.11576 0.0
H426 H 0.18361 0.80905 0.16225 0.0
H427 H 0.15734 0.84089 0.22427 0.0
H428 H 0.01279 0.77175 0.10234 0.0
H429 H 0.02997 0.84969 0.10881 0.0
H430 H 0.96932 0.76959 0.1024 0.0
H431 H 0.98617 0.84617 0.10852 0.0
H432 H 0.10351 0.76421 0.13784 0.0
H433 H 0.07589 0.8037 0.19311 0.0
H434 H 0.12386 0.74772 0.17049 0.0
H435 H 0.09663 0.78641 0.22477 0.0
H436 H 0.09578 0.72115 0.06417 0.0
H437 H 0.03298 0.70406 0.10146 0.0
H438 H 0.99782 0.84612 0.18796 0.0
H439 H 0.9986 0.77194 0.19066 0.0
Li440 Li 0.51276 0.80805 0.47327 0.0
Li441 Li 0.48095 0.77858 0.4387 0.0
Li442 Li 0.50856 0.76061 0.46957 0.0
Li443 Li 0.52562 0.78436 0.43899 0.0
C444 C 0.4749 0.78607 0.49684 0.0
N445 N 0.45875 0.80061 0.53947 0.0
C446 C 0.4547 0.79499 0.4958 0.0
C447 C 0.4868 0.78437 0.51949 0.0
C448 C 0.44684 0.80231 0.51758 0.0
C449 C 0.47838 0.79186 0.54086 0.0
C450 C 0.51633 0.82233 0.42124 0.0
C451 C 0.51583 0.83137 0.38005 0.0
N452 N 0.53681 0.8497 0.38747 0.0
C453 C 0.53786 0.84127 0.42848 0.0
C454 C 0.50519 0.8173 0.39686 0.0
C455 C 0.54794 0.8549 0.41112 0.0
C456 C 0.53983 0.85833 0.49883 0.0
N457 N 0.51738 0.84254 0.49005 0.0
C458 C 0.49984 0.87611 0.49538 0.0
C459 C 0.49759 0.85119 0.48834 0.0
C460 C 0.52282 0.89303 0.50398 0.0
C461 C 0.54292 0.8835 0.50587 0.0
H462 H 0.55561 0.85165 0.49947 0.0
H463 H 0.47998 0.83892 0.48038 0.0
C464 C 0.43278 0.75784 0.40679 0.0
N465 N 0.44988 0.77799 0.41959 0.0
C466 C 0.41209 0.76005 0.39232 0.0
C467 C 0.42679 0.80353 0.40456 0.0
C468 C 0.44692 0.80049 0.41891 0.0
C469 C 0.40902 0.78323 0.3907 0.0
H470 H 0.43534 0.74006 0.40741 0.0
H471 H 0.46056 0.81631 0.42925 0.0
C472 C 0.55391 0.78688 0.49307 0.0
N473 N 0.58493 0.77961 0.53086 0.0
C474 C 0.56806 0.77115 0.48851 0.0
C475 C 0.55557 0.79899 0.51679 0.0
C476 C 0.58363 0.7677 0.50788 0.0
C477 C 0.57136 0.79505 0.53566 0.0
C478 C 0.50445 0.73986 0.41358 0.0
C479 C 0.52445 0.73079 0.41705 0.0
C480 C 0.49064 0.73545 0.3904 0.0
C481 C 0.53044 0.71758 0.39713 0.0
C482 C 0.49721 0.72213 0.37095 0.0
N483 N 0.51681 0.71356 0.37468 0.0
C484 C 0.50175 0.70772 0.46859 0.0
C485 C 0.52227 0.7296 0.50687 0.0
C486 C 0.5046 0.68572 0.47547 0.0
N487 N 0.51079 0.72947 0.48398 0.0
C488 C 0.52554 0.70795 0.51449 0.0
C489 C 0.51689 0.68524 0.49872 0.0
H490 H 0.49259 0.70731 0.45049 0.0
H491 H 0.52938 0.7466 0.51932 0.0
C492 C 0.57445 0.79655 0.42873 0.0
N493 N 0.55085 0.78816 0.41783 0.0
C494 C 0.59343 0.79983 0.41463 0.0
C495 C 0.56363 0.78594 0.37818 0.0
C496 C 0.54523 0.78318 0.39298 0.0
C497 C 0.58818 0.79436 0.38895 0.0
H498 H 0.5786 0.80082 0.44846 0.0
H499 H 0.52643 0.77718 0.38454 0.0
O500 O 0.4831 0.77915 0.47578 0.0
O501 O 0.50656 0.80838 0.43781 0.0
O502 O 0.53856 0.79047 0.47437 0.0
O503 O 0.49839 0.75296 0.4328 0.0
H504 H 0.4453 0.79637 0.47835 0.0
H505 H 0.5024 0.77739 0.52054 0.0
H506 H 0.43129 0.80935 0.51709 0.0
H507 H 0.48744 0.79072 0.55854 0.0
H508 H 0.50747 0.82763 0.3611 0.0
H509 H 0.54682 0.8452 0.44724 0.0
H510 H 0.48867 0.8025 0.39092 0.0
H511 H 0.56465 0.86955 0.41642 0.0
H512 H 0.48371 0.88217 0.49301 0.0
H513 H 0.56107 0.89542 0.51247 0.0
H514 H 0.39902 0.74383 0.38193 0.0
H515 H 0.42519 0.82173 0.40434 0.0
H516 H 0.56694 0.76163 0.47022 0.0
H517 H 0.54471 0.81122 0.52057 0.0
H518 H 0.59463 0.75551 0.50466 0.0
H519 H 0.5728 0.80425 0.55414 0.0
H520 H 0.53533 0.7341 0.4349 0.0
H521 H 0.47515 0.74242 0.38743 0.0
H522 H 0.54594 0.71055 0.3995 0.0
H523 H 0.48676 0.71865 0.35287 0.0
H524 H 0.49766 0.66928 0.46216 0.0
H525 H 0.53477 0.70914 0.53277 0.0
H526 H 0.61204 0.80627 0.42378 0.0
H527 H 0.55868 0.7819 0.35847 0.0
Li528 Li 0.57781 0.34002 0.60773 0.0
Li529 Li 0.60544 0.32243 0.6398 0.0
Li530 Li 0.57533 0.29182 0.60588 0.0
Li531 Li 0.56042 0.31475 0.63816 0.0
C532 C 0.6107 0.31386 0.58103 0.0
N533 N 0.62295 0.29719 0.5369 0.0
C534 C 0.62813 0.30121 0.58055 0.0
C535 C 0.59949 0.31806 0.55912 0.0
C536 C 0.63406 0.29291 0.55803 0.0
C537 C 0.60596 0.3095 0.53698 0.0
C538 C 0.5794 0.35736 0.66518 0.0
C539 C 0.57612 0.36 0.70821 0.0
N540 N 0.56337 0.37644 0.70601 0.0
C541 C 0.56638 0.37437 0.66336 0.0
C542 C 0.58442 0.35019 0.68778 0.0
C543 C 0.55841 0.38378 0.68422 0.0
C544 C 0.55452 0.37737 0.59416 0.0
N545 N 0.57516 0.37044 0.59233 0.0
C546 C 0.59127 0.40662 0.57403 0.0
C547 C 0.59343 0.38486 0.58239 0.0
C548 C 0.57005 0.41418 0.57562 0.0
C549 C 0.5516 0.3988 0.58596 0.0
H550 H 0.54029 0.36654 0.60266 0.0
H551 H 0.60999 0.37976 0.58115 0.0
C552 C 0.64692 0.3071 0.65565 0.0
N553 N 0.63684 0.32566 0.66007 0.0
C554 C 0.66771 0.3063 0.6708 0.0
C555 C 0.66778 0.34382 0.69499 0.0
C556 C 0.64704 0.344 0.67924 0.0
C557 C 0.6784 0.32465 0.69109 0.0
H558 H 0.6383 0.29235 0.64076 0.0
H559 H 0.63876 0.35852 0.68274 0.0
C560 C 0.52455 0.29949 0.59839 0.0
N561 N 0.47463 0.28008 0.59276 0.0
C562 C 0.51435 0.27754 0.60647 0.0
C563 C 0.50937 0.3114 0.58709 0.0
C564 C 0.48907 0.26807 0.60358 0.0
C565 C 0.48417 0.30134 0.5845 0.0
C566 C 0.57861 0.27514 0.65613 0.0
C567 C 0.5627 0.25175 0.64844 0.0
C568 C 0.5927 0.28075 0.67929 0.0
C569 C 0.56114 0.23439 0.66404 0.0
C570 C 0.59061 0.26288 0.69436 0.0
N571 N 0.57501 0.24026 0.68649 0.0
C572 C 0.58968 0.24749 0.59684 0.0
C573 C 0.55176 0.24327 0.57365 0.0
C574 C 0.58729 0.22252 0.58991 0.0
N575 N 0.57198 0.25755 0.589 0.0
C576 C 0.5487 0.21817 0.56613 0.0
C577 C 0.5664 0.20701 0.57451 0.0
H578 H 0.60536 0.25864 0.60956 0.0
H579 H 0.5375 0.25109 0.56779 0.0
C580 C 0.51681 0.32317 0.65373 0.0
N581 N 0.53419 0.31181 0.65866 0.0
C582 C 0.49761 0.3212 0.66756 0.0
C583 C 0.51472 0.29648 0.69188 0.0
C584 C 0.53347 0.2988 0.67752 0.0
C585 C 0.4963 0.30765 0.68699 0.0
H586 H 0.51784 0.33387 0.63904 0.0
H587 H 0.54745 0.29021 0.68165 0.0
O588 O 0.60426 0.32174 0.60279 0.0
O589 O 0.58664 0.34726 0.64483 0.0
O590 O 0.54927 0.3092 0.60144 0.0
O591 O 0.58057 0.29241 0.64106 0.0
H592 H 0.63693 0.29778 0.59735 0.0
H593 H 0.58587 0.32775 0.55923 0.0
H594 H 0.64749 0.28304 0.55736 0.0
H595 H 0.59743 0.3126 0.51987 0.0
H596 H 0.57972 0.35447 0.72578 0.0
H597 H 0.56235 0.38013 0.64603 0.0
H598 H 0.59431 0.33692 0.68945 0.0
H599 H 0.54822 0.39687 0.68306 0.0
H600 H 0.60617 0.41731 0.5662 0.0
H601 H 0.53502 0.40352 0.58839 0.0
H602 H 0.67478 0.29091 0.66711 0.0
H603 H 0.67534 0.35855 0.71017 0.0
H604 H 0.52583 0.2681 0.61518 0.0
H605 H 0.51694 0.32815 0.58029 0.0
H606 H 0.48095 0.2512 0.60996 0.0
H607 H 0.4722 0.3104 0.57587 0.0
H608 H 0.5517 0.24694 0.6306 0.0
H609 H 0.60502 0.29873 0.68567 0.0
H610 H 0.54893 0.21622 0.65829 0.0
H611 H 0.60138 0.26701 0.71232 0.0
H612 H 0.60144 0.21536 0.59749 0.0
H613 H 0.53236 0.20761 0.55397 0.0
H614 H 0.48414 0.33051 0.66327 0.0
H615 H 0.51452 0.28568 0.70648 0.0
Li616 Li 1.0117 0.30993 0.97503 0.0
Li617 Li 0.98189 0.28018 0.94174 0.0
Li618 Li 1.00819 0.26231 0.97222 0.0
Li619 Li 0.02606 0.28593 0.93997 0.0
C620 C 0.97793 0.28504 1.00221 0.0
N621 N 0.96816 0.29241 0.04964 0.0
C622 C 0.95933 0.29524 0.00733 0.0
C623 C 0.99149 0.27852 0.02121 0.0
C624 C 0.95467 0.29883 0.03143 0.0
C625 C 0.98631 0.28243 0.04506 0.0
C626 C 0.99511 0.3218 0.92478 0.0
C627 C 0.98144 0.33015 0.8851 0.0
N628 N 0.96828 0.3437 0.89574 0.0
C629 C 0.98144 0.33582 0.93531 0.0
C630 C 0.99512 0.31894 0.89946 0.0
C631 C 0.96803 0.34675 0.92033 0.0
C632 C 0.032 0.36179 0.98011 0.0
N633 N 0.0185 0.34483 0.99201 0.0
C634 C 1.01187 0.37748 0.01958 0.0
C635 C 1.00869 0.3524 0.01171 0.0
C636 C 0.02524 0.39544 0.0072 0.0
C637 C 0.03551 0.3869 0.98726 0.0
H638 H 0.03946 0.35578 0.96428 0.0
H639 H 0.99794 0.33908 0.02117 0.0
C640 C 0.94676 0.26938 0.89696 0.0
N641 N 0.95028 0.27741 0.92152 0.0
C642 C 0.9268 0.27172 0.88162 0.0
C643 C 0.91341 0.28946 0.917 0.0
C644 C 0.93377 0.28697 0.93165 0.0
C645 C 0.90989 0.28231 0.89144 0.0
H646 H 0.95999 0.26204 0.88899 0.0
H647 H 0.93698 0.29383 0.951 0.0
C648 C 0.0556 0.29414 0.9948 0.0
N649 N 0.09202 0.29845 0.03302 0.0
C650 C 0.0756 0.28581 0.99067 0.0
C651 C 0.05432 0.30504 0.01826 0.0
C652 C 0.09376 0.28804 0.01026 0.0
C653 C 0.07286 0.30695 0.03737 0.0
C654 C 1.00463 0.24061 0.91637 0.0
C655 C 1.01 0.21897 0.91974 0.0
C656 C 1.00527 0.24821 0.89349 0.0
C657 C 0.01615 0.20539 0.90019 0.0
C658 C 1.01154 0.23415 0.8744 0.0
N659 N 0.01681 0.21322 0.87812 0.0
C660 C 0.99291 0.21698 0.99657 0.0
C661 C 0.03252 0.22583 0.98645 0.0
C662 C 0.99525 0.19523 1.00475 0.0
N663 N 1.01143 0.23206 0.98755 0.0
C664 C 0.03561 0.20437 0.99443 0.0
C665 C 0.01688 0.1883 1.00382 0.0
H666 H 0.976 0.22153 0.99717 0.0
H667 H 0.04693 0.23713 0.97856 0.0
C668 C 0.05758 0.30864 0.90775 0.0
N669 N 0.0519 0.28905 0.91957 0.0
C670 C 0.07604 0.3116 0.89299 0.0
C671 C 0.08303 0.27446 0.90313 0.0
C672 C 0.06435 0.27216 0.91764 0.0
C673 C 0.0892 0.29442 0.89047 0.0
H674 H 0.04784 0.32211 0.90983 0.0
H675 H 0.05984 0.25689 0.92746 0.0
O676 O 0.98268 0.28119 0.97872 0.0
O677 O 1.00765 0.31023 0.93908 0.0
O678 O 0.03768 0.29222 0.97586 0.0
O679 O 0.99895 0.25435 0.93542 0.0
H680 H 0.9487 0.30053 0.99295 0.0
H681 H 1.00594 0.2706 0.01762 0.0
H682 H 0.94038 0.30677 0.03566 0.0
H683 H 0.99673 0.27752 0.05993 0.0
H684 H 0.98119 0.32798 0.86548 0.0
H685 H 0.98077 0.33782 0.95479 0.0
H686 H 1.00531 0.30792 0.89091 0.0
H687 H 0.95725 0.35751 0.92823 0.0
H688 H 1.00378 0.38265 0.03528 0.0
H689 H 0.0456 0.39941 0.97655 0.0
H690 H 0.92486 0.2656 0.86213 0.0
H691 H 0.90118 0.29798 0.92554 0.0
H692 H 0.07701 0.27761 0.97254 0.0
H693 H 0.03922 0.31207 0.02165 0.0
H694 H 0.10927 0.28152 0.00737 0.0
H695 H 0.07205 0.31526 0.05565 0.0
H696 H 1.00934 0.21266 0.93722 0.0
H697 H 1.00153 0.26507 0.89065 0.0
H698 H 0.02038 0.18863 0.90256 0.0
H699 H 1.01233 0.23996 0.85667 0.0
H700 H 0.98012 0.18402 0.01186 0.0
H701 H 0.05252 0.20016 0.9925 0.0
H702 H 0.07977 0.32716 0.88348 0.0
H703 H 0.09278 0.2609 0.90223 0.0
Li704 Li 0.4315 0.06196 0.33585 0.0
Li705 Li 0.39263 0.03098 0.32529 0.0
Li706 Li 0.416 0.04731 0.29459 0.0
Li707 Li 0.39716 0.07244 0.31921 0.0
C708 C 0.43511 0.01272 0.30669 0.0
N709 N 0.45512 0.98144 0.2801 0.0
C710 C 0.42482 0.98755 0.30416 0.0
C711 C 0.45597 0.02193 0.29618 0.0
C712 C 0.43512 0.97205 0.29054 0.0
C713 C 0.46569 1.00585 0.28265 0.0
C714 C 0.40294 0.05408 0.3736 0.0
C715 C 0.39588 0.05835 0.41566 0.0
N716 N 0.408 0.04178 0.41998 0.0
C717 C 0.41527 0.03702 0.37847 0.0
C718 C 0.39318 0.06483 0.39236 0.0
C719 C 0.41767 0.0311 0.40203 0.0
C720 C 0.46128 0.08873 0.3794 0.0
N721 N 0.45979 0.07203 0.35941 0.0
C722 C 0.49271 0.06007 0.37827 0.0
C723 C 0.47574 0.05864 0.35807 0.0
C724 C 0.4931 0.07542 0.39987 0.0
C725 C 0.47811 0.09083 0.40009 0.0
H726 H 0.44801 0.09878 0.38005 0.0
H727 H 0.47394 0.04529 0.34219 0.0
C728 C 0.36368 0.98608 0.30812 0.0
N729 N 0.37044 1.00167 0.32959 0.0
C730 C 0.34779 0.96307 0.30687 0.0
C731 C 0.34526 0.97259 0.34991 0.0
C732 C 0.3613 0.99569 0.35028 0.0
C733 C 0.33846 0.95595 0.32795 0.0
H734 H 0.37116 0.99147 0.29198 0.0
H735 H 0.36643 0.00863 0.36703 0.0
C736 C 0.44923 0.10144 0.31913 0.0
N737 N 0.48852 0.14061 0.34002 0.0
C738 C 0.4457 0.12129 0.33372 0.0
C739 C 0.4727 0.10155 0.31503 0.0
C740 C 0.46582 0.14092 0.34415 0.0
C741 C 0.49234 0.12151 0.32581 0.0
C742 C 0.3567 0.03833 0.29209 0.0
C743 C 0.34393 0.03281 0.26834 0.0
C744 C 0.34422 0.04013 0.3121 0.0
C745 C 0.3188 0.02918 0.26498 0.0
C746 C 0.31911 0.03639 0.30797 0.0
N747 N 0.30702 0.03104 0.28469 0.0
C748 C 0.41132 0.01567 0.25117 0.0
C749 C 0.43852 0.0551 0.253 0.0
C750 C 0.41815 1.0076 0.22915 0.0
N751 N 0.42212 0.03879 0.26285 0.0
C752 C 0.44561 0.04793 0.23084 0.0
C753 C 0.4358 0.02376 0.21904 0.0
H754 H 0.39826 1.00322 0.25957 0.0
H755 H 0.44672 0.07336 0.26281 0.0
C756 C 0.36722 0.10188 0.33353 0.0
N757 N 0.37964 0.09471 0.31608 0.0
C758 C 0.35071 0.11478 0.32777 0.0
C759 C 0.36069 0.11275 0.28652 0.0
C760 C 0.37705 0.10016 0.29312 0.0
C761 C 0.347 0.11994 0.30383 0.0
H762 H 0.3694 0.09671 0.35148 0.0
H763 H 0.38683 0.09353 0.27961 0.0
O764 O 0.42501 0.0282 0.31968 0.0
O765 O 0.401 0.06099 0.35095 0.0
O766 O 0.42981 0.08188 0.30916 0.0
O767 O 0.38136 0.0423 0.29558 0.0
H768 H 0.40919 0.98 0.31277 0.0
H769 H 0.46429 0.04135 0.29804 0.0
H770 H 0.42723 0.95254 0.28833 0.0
H771 H 0.48158 0.01278 0.27411 0.0
H772 H 0.38842 0.06655 0.43034 0.0
H773 H 0.42301 0.02845 0.36435 0.0
H774 H 0.3837 0.07815 0.38897 0.0
H775 H 0.42725 0.01802 0.40604 0.0
H776 H 0.50392 0.04778 0.37774 0.0
H777 H 0.47777 0.10253 0.41673 0.0
H778 H 0.34351 0.9507 0.28968 0.0
H779 H 0.33834 0.96777 0.3665 0.0
H780 H 0.42766 0.12144 0.33715 0.0
H781 H 0.47573 0.0863 0.30383 0.0
H782 H 0.46338 0.15636 0.35558 0.0
H783 H 0.51062 0.12181 0.3229 0.0
H784 H 0.35336 0.03143 0.25268 0.0
H785 H 0.35382 0.04449 0.33061 0.0
H786 H 0.30868 0.02492 0.24669 0.0
H787 H 0.30923 0.03778 0.32327 0.0
H788 H 0.41018 0.98887 0.22041 0.0
H789 H 0.45946 0.0608 0.22363 0.0
H790 H 0.34066 0.12021 0.34169 0.0
H791 H 0.35807 0.11588 0.26776 0.0
Li792 Li 0.28668 0.22556 0.55064 0.0
Li793 Li 0.30231 0.19397 0.52911 0.0
Li794 Li 0.28798 0.22259 0.50533 0.0
Li795 Li 0.25902 0.19174 0.52364 0.0
C796 C 0.33769 0.23844 0.54792 0.0
N797 N 0.38175 0.25386 0.57852 0.0
C798 C 0.34058 0.22874 0.56948 0.0
C799 C 0.35722 0.2559 0.54186 0.0
C800 C 0.36299 0.2368 0.58472 0.0
C801 C 0.37934 0.26349 0.5576 0.0
C802 C 0.26864 0.16961 0.56089 0.0
C803 C 0.25453 0.12574 0.5535 0.0
N804 N 0.2438 0.12615 0.57407 0.0
C805 C 0.25754 0.1696 0.58199 0.0
C806 C 0.26719 0.14752 0.54654 0.0
C807 C 0.24504 0.14743 0.58833 0.0
C808 C 0.26661 0.23809 0.59267 0.0
N809 N 0.28752 0.24472 0.58273 0.0
C810 C 0.30746 0.27129 0.62023 0.0
C811 C 0.30758 0.26162 0.5958 0.0
C812 C 0.28638 0.26393 0.63128 0.0
C813 C 0.26558 0.24757 0.61683 0.0
H814 H 0.25085 0.22467 0.58205 0.0
H815 H 0.32395 0.26714 0.58766 0.0
C816 C 0.3374 0.17201 0.5122 0.0
N817 N 0.32552 0.17571 0.53147 0.0
C818 C 0.35401 0.15832 0.5134 0.0
C819 C 0.34582 0.1525 0.55423 0.0
C820 C 0.32952 0.16638 0.55229 0.0
C821 C 0.35839 0.14823 0.53463 0.0
H822 H 0.33393 0.17967 0.49586 0.0
H823 H 0.31989 0.16955 0.5674 0.0
C824 C 0.25708 0.24798 0.53271 0.0
N825 N 0.25026 0.29131 0.55277 0.0
C826 C 0.23458 0.24841 0.53947 0.0
C827 C 0.27606 0.26958 0.536 0.0
C828 C 0.23151 0.27051 0.54962 0.0
C829 C 0.27226 0.2913 0.54622 0.0
C830 C 0.26589 0.17715 0.47554 0.0
C831 C 0.24724 0.18685 0.46766 0.0
C832 C 0.27078 0.15867 0.46012 0.0
C833 C 0.23378 0.17786 0.44438 0.0
C834 C 0.2569 0.15016 0.43697 0.0
N835 N 0.23885 0.15986 0.42965 0.0
C836 C 0.30289 0.22552 0.45842 0.0
C837 C 0.28451 0.25617 0.47027 0.0
C838 C 0.30445 0.23251 0.43524 0.0
N839 N 0.29269 0.23705 0.47534 0.0
C840 C 0.28625 0.26415 0.44744 0.0
C841 C 0.29596 0.25201 0.42936 0.0
H842 H 0.30929 0.21036 0.46269 0.0
H843 H 0.27611 0.26494 0.48367 0.0
C844 C 0.21351 0.17675 0.53796 0.0
N845 N 0.22689 0.16999 0.52127 0.0
C846 C 0.19067 0.16156 0.53977 0.0
C847 C 0.19557 0.13249 0.50708 0.0
C848 C 0.21849 0.14827 0.50601 0.0
C849 C 0.18129 0.13907 0.52416 0.0
H850 H 0.22096 0.1937 0.55042 0.0
H851 H 0.22973 0.1429 0.49337 0.0
O852 O 0.31608 0.23053 0.53246 0.0
O853 O 0.28028 0.19111 0.55387 0.0
O854 O 0.26071 0.22647 0.52335 0.0
O855 O 0.27953 0.18579 0.49814 0.0
H856 H 0.32564 0.21531 0.57453 0.0
H857 H 0.35528 0.26347 0.52515 0.0
H858 H 0.36546 0.2295 0.6015 0.0
H859 H 0.39461 0.27702 0.55316 0.0
H860 H 0.25314 0.10852 0.54249 0.0
H861 H 0.25849 0.1865 0.59332 0.0
H862 H 0.27543 0.14721 0.52997 0.0
H863 H 0.2363 0.14714 0.60458 0.0
H864 H 0.32386 0.28413 0.63051 0.0
H865 H 0.24896 0.2412 0.62448 0.0
H866 H 0.36345 0.15587 0.49793 0.0
H867 H 0.34818 0.14485 0.57082 0.0
H868 H 0.21966 0.23187 0.53693 0.0
H869 H 0.29363 0.26951 0.53097 0.0
H870 H 0.21422 0.27111 0.55501 0.0
H871 H 0.28683 0.30814 0.549 0.0
H872 H 0.2432 0.20118 0.47933 0.0
H873 H 0.2852 0.15102 0.46597 0.0
H874 H 0.21932 0.18521 0.43801 0.0
H875 H 0.26049 0.13587 0.42482 0.0
H876 H 0.31223 0.22272 0.42199 0.0
H877 H 0.2793 0.27915 0.44368 0.0
H878 H 0.18074 0.16719 0.55369 0.0
H879 H 0.18911 0.11539 0.49465 0.0
Li880 Li 0.15075 0.08438 0.80488 0.0
Li881 Li 0.11699 0.05899 0.82462 0.0
Li882 Li 0.14436 0.04085 0.79976 0.0
Li883 Li 0.11463 0.05751 0.77876 0.0
C884 C 0.17117 0.08075 0.84723 0.0
N885 N 0.20739 0.11594 0.87889 0.0
C886 C 0.16534 0.09426 0.86706 0.0
C887 C 0.19543 0.08517 0.84348 0.0
C888 C 0.18392 0.11194 0.88288 0.0
C889 C 0.21348 0.10304 0.85969 0.0
C890 C 0.10156 0.09714 0.79436 0.0
C891 C 0.06118 0.0995 0.78145 0.0
N892 N 0.07086 0.11935 0.77104 0.0
C893 C 0.11113 0.11765 0.78367 0.0
C894 C 0.07641 0.08805 0.79339 0.0
C895 C 0.0953 0.1286 0.77191 0.0
C896 C 0.19265 0.11743 0.79386 0.0
N897 N 0.17458 0.11536 0.80792 0.0
C898 C 0.18895 0.15796 0.8235 0.0
C899 C 0.17261 0.13498 0.82284 0.0
C900 C 0.20755 0.16065 0.80879 0.0
C901 C 0.20953 0.13994 0.79417 0.0
H902 H 0.19359 0.10173 0.78182 0.0
H903 H 0.15797 0.13286 0.83374 0.0
C904 C 0.11007 0.04193 0.86961 0.0
N905 N 0.10267 0.05648 0.85484 0.0
C906 C 0.10277 0.0405 0.89277 0.0
C907 C 0.07993 0.06876 0.8852 0.0
C908 C 0.08781 0.06978 0.86219 0.0
C909 C 0.08756 0.05411 0.90105 0.0
H910 H 0.12209 0.03171 0.86355 0.0
H911 H 0.08244 0.08157 0.85042 0.0
C912 C 0.15999 0.05031 0.75873 0.0
N913 N 0.18199 0.02509 0.72739 0.0
C914 C 0.1467 0.03621 0.73682 0.0
C915 C 0.18448 0.05149 0.76471 0.0
C916 C 0.15816 0.02365 0.7212 0.0
C917 C 0.19526 0.03861 0.74864 0.0
C918 C 0.0858 0.01378 0.78956 0.0
C919 C 0.08335 0.99346 0.77201 0.0
C920 C 0.06526 0.01752 0.79863 0.0
C921 C 0.06025 0.97733 0.76357 0.0
C922 C 0.04248 1.001 0.7897 0.0
N923 N 0.04046 0.98142 0.7725 0.0
C924 C 0.17857 0.01826 0.81785 0.0
C925 C 0.15574 0.99744 0.77971 0.0
C926 C 0.19268 1.00213 0.8177 0.0
N927 N 0.16078 0.01595 0.79887 0.0
C928 C 0.1694 0.98079 0.77882 0.0
C929 C 0.18836 0.98314 0.79791 0.0
H930 H 0.18209 0.03288 0.83303 0.0
H931 H 0.1415 0.99589 0.76482 0.0
C932 C 0.10659 0.07549 0.73506 0.0
N933 N 0.09573 0.05705 0.74687 0.0
C934 C 0.09728 0.07662 0.71105 0.0
C935 C 0.06571 0.03954 0.71119 0.0
C936 C 0.0753 0.03944 0.73551 0.0
C937 C 0.07686 0.05821 0.69853 0.0
H938 H 0.12313 0.08899 0.74405 0.0
H939 H 0.06675 0.02489 0.74489 0.0
O940 O 0.15317 0.06382 0.83114 0.0
O941 O 0.11675 0.08592 0.80555 0.0
O942 O 0.14904 0.06258 0.77442 0.0
O943 O 0.10827 0.0296 0.79825 0.0
H944 H 0.14665 0.09133 0.87009 0.0
H945 H 0.20025 0.07518 0.828 0.0
H946 H 0.17965 0.12256 0.89826 0.0
H947 H 0.2323 0.10674 0.85693 0.0
H948 H 0.04167 0.09259 0.78045 0.0
H949 H 0.13055 0.12487 0.78417 0.0
H950 H 0.06872 0.07225 0.80163 0.0
H951 H 0.10243 0.14439 0.76342 0.0
H952 H 0.18684 0.17351 0.83507 0.0
H953 H 0.22332 0.14129 0.78226 0.0
H954 H 0.10895 0.02871 0.90402 0.0
H955 H 0.06846 0.07985 0.89075 0.0
H956 H 0.12769 0.03471 0.73196 0.0
H957 H 0.19494 0.06178 0.78184 0.0
H958 H 0.14807 0.01266 0.70422 0.0
H959 H 0.21413 0.03924 0.75314 0.0
H960 H 0.09906 0.99026 0.76486 0.0
H961 H 0.06691 0.03293 0.8125 0.0
H962 H 0.05805 0.96159 0.74991 0.0
H963 H 0.0264 1.0037 0.7965 0.0
H964 H 0.20723 1.00495 0.83271 0.0
H965 H 0.16514 0.96628 0.76334 0.0
H966 H 0.10669 0.09116 0.70196 0.0
H967 H 0.04988 0.02498 0.70225 0.0
Li968 Li 0.26383 0.9445 0.9989 0.0
Li969 Li 0.28336 0.9266 0.02904 0.0
Li970 Li 0.3064 0.95001 1.00161 0.0
Li971 Li 0.27831 0.90994 0.98687 0.0
C972 C 0.28057 0.97859 0.03828 0.0
N973 N 0.26036 0.01264 0.05973 0.0
C974 C 0.26603 0.97302 0.05651 0.0
C975 C 0.28491 1.00152 0.03104 0.0
C976 C 0.25597 0.99048 0.06711 0.0
C977 C 0.27451 0.01847 0.04209 0.0
C978 C 0.23491 0.8905 0.99645 0.0
C979 C 0.21903 0.84673 0.98914 0.0
N980 N 0.20028 0.84839 0.97309 0.0
C981 C 0.2155 0.89178 0.97985 0.0
C982 C 0.2367 0.8678 1.00116 0.0
C983 C 0.19816 0.87028 0.96825 0.0
C984 C 0.24208 0.98004 0.98411 0.0
N985 N 0.23939 0.96004 0.99528 0.0
C986 C 0.20658 0.96792 0.0139 0.0
C987 C 0.22159 0.95332 0.00923 0.0
C988 C 0.21017 0.98975 1.00431 0.0
C989 C 0.22756 0.99539 0.98851 0.0
H990 H 0.25669 0.9851 0.97346 0.0
H991 H 0.22041 0.93768 0.0184 0.0
C992 C 0.30477 0.93585 0.07728 0.0
N993 N 0.28598 0.92029 0.06129 0.0
C994 C 0.31106 0.93 0.10012 0.0
C995 C 0.27731 0.89318 0.0902 0.0
C996 C 0.27175 0.89969 0.06746 0.0
C997 C 0.29767 0.90807 0.10645 0.0
H998 H 0.31567 0.95212 0.0717 0.0
H999 H 0.25691 0.88777 0.05431 0.0
C1000 C 0.29564 0.95 0.95511 0.0
N1001 N 0.32526 0.97087 0.92303 0.0
C1002 C 0.30335 0.93535 0.93769 0.0
C1003 C 0.30293 0.97527 0.95616 0.0
C1004 C 0.31832 0.94625 0.92162 0.0
C1005 C 0.31795 0.98547 0.93982 0.0
C1006 C 0.32195 0.91124 0.02767 0.0
C1007 C 0.34389 0.92735 0.03994 0.0
C1008 C 0.31385 0.88803 0.03404 0.0
C1009 C 0.35728 0.91999 0.05842 0.0
C1010 C 0.32774 0.88139 0.05268 0.0
N1011 N 0.34898 0.89737 0.06438 0.0
C1012 C 0.34676 0.992 0.01419 0.0
C1013 C 0.35208 0.9591 0.98756 0.0
C1014 C 0.37156 1.00405 0.01707 0.0
N1015 N 0.33774 0.96979 0.99999 0.0
C1016 C 0.37696 0.9704 0.99004 0.0
C1017 C 0.38701 0.9928 1.00553 0.0
H1018 H 0.33504 0.99963 0.02448 0.0
H1019 H 0.34441 0.94111 0.97697 0.0
C1020 C 0.25704 0.87587 0.94397 0.0
N1021 N 0.27421 0.88165 0.96416 0.0
C1022 C 0.25707 0.85765 0.92509 0.0
C1023 C 0.2919 0.85125 0.94862 0.0
C1024 C 0.29111 0.86945 0.96704 0.0
C1025 C 0.27525 0.8458 0.92702 0.0
H1026 H 0.24433 0.88643 0.94186 0.0
H1027 H 0.30497 0.87486 0.9829 0.0
O1028 O 0.29009 0.96152 0.02722 0.0
O1029 O 0.25217 0.91133 0.00788 0.0
O1030 O 0.28113 0.9397 0.97113 0.0
O1031 O 0.30819 0.9183 0.00992 0.0
H1032 H 0.2622 0.95529 0.06214 0.0
H1033 H 0.29577 1.00602 0.01668 0.0
H1034 H 0.24455 0.98635 0.08111 0.0
H1035 H 0.27754 0.0362 0.03652 0.0
H1036 H 0.22027 0.82904 0.99252 0.0
H1037 H 0.21395 0.90914 0.97572 0.0
H1038 H 0.25177 0.86643 0.01367 0.0
H1039 H 0.18309 0.871 0.95532 0.0
H1040 H 0.19366 0.96313 0.02651 0.0
H1041 H 0.23074 0.01207 0.98074 0.0
H1042 H 0.3267 0.94205 0.11234 0.0
H1043 H 0.26664 0.87605 0.09444 0.0
H1044 H 0.29798 0.91578 0.93663 0.0
H1045 H 0.29746 0.98691 0.96977 0.0
H1046 H 0.32446 0.93513 0.90808 0.0
H1047 H 0.32388 1.005 0.94055 0.0
H1048 H 0.35037 0.94548 0.03559 0.0
H1049 H 0.29678 0.87542 0.025 0.0
H1050 H 0.37421 0.93233 0.06814 0.0
H1051 H 0.32155 0.86358 0.05792 0.0
H1052 H 0.37877 0.02119 0.02939 0.0
H1053 H 0.38835 0.96127 0.98078 0.0
H1054 H 0.24427 0.85425 0.90842 0.0
H1055 H 0.30627 0.84256 0.95059 0.0
Li1056 Li 0.28114 0.40284 0.04811 0.0
Li1057 Li 0.29601 0.37546 0.07127 0.0
Li1058 Li 0.32361 0.40747 0.05222 0.0
Li1059 Li 0.29612 0.3723 0.02398 0.0
C1060 C 0.29644 0.42761 0.09332 0.0
N1061 N 0.27937 0.46015 0.12183 0.0
C1062 C 0.28326 0.42012 0.11205 0.0
C1063 C 0.30102 0.4517 0.0892 0.0
C1064 C 0.27479 0.43684 0.12626 0.0
C1065 C 0.29218 0.46785 0.10375 0.0
C1066 C 0.24363 0.36286 0.04292 0.0
C1067 C 0.20433 0.3588 0.02027 0.0
N1068 N 0.19437 0.35713 0.04128 0.0
C1069 C 0.23299 0.36107 0.06428 0.0
C1070 C 0.22918 0.36165 0.02072 0.0
C1071 C 0.20807 0.35817 0.06308 0.0
C1072 C 0.25624 0.43334 0.02712 0.0
N1073 N 0.25709 0.42053 0.04596 0.0
C1074 C 0.226 0.43507 0.06223 0.0
C1075 C 0.24205 0.42087 0.06314 0.0
C1076 C 0.22534 0.4492 0.04346 0.0
C1077 C 0.24059 0.44795 0.02559 0.0
H1078 H 0.26799 0.43254 0.01341 0.0
H1079 H 0.24267 0.41038 0.07781 0.0
C1080 C 0.31009 0.37241 0.12092 0.0
N1081 N 0.29397 0.36001 0.10076 0.0
C1082 C 0.30826 0.36481 0.14381 0.0
C1083 C 0.27385 0.33106 0.12486 0.0
C1084 C 0.27633 0.33935 0.10228 0.0
C1085 C 0.28971 0.34404 0.14625 0.0
H1086 H 0.32399 0.38879 0.11938 0.0
H1087 H 0.26367 0.32966 0.08611 0.0
C1088 C 0.31638 0.42355 0.0107 0.0
N1089 N 0.34755 0.45701 0.98871 0.0
C1090 C 0.32812 0.41565 0.992 0.0
C1091 C 0.32037 0.44849 0.01805 0.0
C1092 C 0.34382 0.43285 0.98114 0.0
C1093 C 0.33624 0.46511 0.00677 0.0
C1094 C 0.32643 0.35014 0.05047 0.0
C1095 C 0.34998 0.34785 0.05247 0.0
C1096 C 0.30655 0.3294 0.04806 0.0
C1097 C 0.35329 0.32475 0.05198 0.0
C1098 C 0.31062 0.30663 0.04767 0.0
N1099 N 0.3337 0.30479 0.04961 0.0
C1100 C 0.36372 0.45094 0.06953 0.0
C1101 C 0.36991 0.42132 0.03954 0.0
C1102 C 0.38675 0.46661 0.06869 0.0
N1103 N 0.35572 0.42891 0.05482 0.0
C1104 C 0.39283 0.43642 0.0379 0.0
C1105 C 0.4016 0.45951 0.05255 0.0
H1106 H 0.35218 0.45649 0.08169 0.0
H1107 H 0.36304 0.40372 0.02801 0.0
C1108 C 0.27803 0.35816 0.97349 0.0
N1109 N 0.29387 0.35402 0.99124 0.0
C1110 C 0.27766 0.34955 0.94875 0.0
C1111 C 0.31012 0.33256 0.96052 0.0
C1112 C 0.30978 0.34142 0.98516 0.0
C1113 C 0.294 0.33672 0.94179 0.0
H1114 H 0.26645 0.36927 0.9784 0.0
H1115 H 0.32292 0.339 0.99926 0.0
O1116 O 0.30483 0.41148 0.07916 0.0
O1117 O 0.26804 0.36582 0.04378 0.0
O1118 O 0.3014 0.40701 0.02204 0.0
O1119 O 0.32297 0.37265 0.05089 0.0
H1120 H 0.27918 0.40151 0.11534 0.0
H1121 H 0.31107 0.45783 0.07477 0.0
H1122 H 0.26445 0.43124 0.14071 0.0
H1123 H 0.29547 0.4865 0.10063 0.0
H1124 H 0.19296 0.35793 1.00322 0.0
H1125 H 0.24393 0.36245 0.08171 0.0
H1126 H 0.23706 0.36302 1.00403 0.0
H1127 H 0.19965 0.35693 0.0795 0.0
H1128 H 0.21425 0.43496 0.07614 0.0
H1129 H 0.24093 0.45859 0.01085 0.0
H1130 H 0.32129 0.37521 0.15947 0.0
H1131 H 0.25917 0.31502 0.12562 0.0
H1132 H 0.3255 0.39649 0.98617 0.0
H1133 H 0.31144 0.45497 0.03243 0.0
H1134 H 0.35314 0.42698 0.96678 0.0
H1135 H 0.33959 0.48445 0.0124 0.0
H1136 H 0.36554 0.36376 0.05433 0.0
H1137 H 0.28819 0.3308 0.04645 0.0
H1138 H 0.37142 0.32269 0.05348 0.0
H1139 H 0.29542 0.29041 0.04581 0.0
H1140 H 0.39284 0.48403 0.08061 0.0
H1141 H 0.40327 0.43022 0.02482 0.0
H1142 H 0.26529 0.35383 0.93512 0.0
H1143 H 0.32305 0.32277 0.95619 0.0
Li1144 Li 0.80806 0.17498 0.07987 0.0
Li1145 Li 0.81312 0.15107 0.04302 0.0
Li1146 Li 0.79423 0.18301 0.04009 0.0
Li1147 Li 0.77412 0.14505 0.05432 0.0
C1148 C 0.85247 0.19147 0.06266 0.0
N1149 N 0.9014 0.20049 0.07936 0.0
C1150 C 0.8602 0.17709 0.07843 0.0
C1151 C 0.86965 0.21042 0.05539 0.0
C1152 C 0.88501 0.18195 0.08666 0.0
C1153 C 0.8943 0.2147 0.06404 0.0
C1154 C 0.7917 0.11786 0.08085 0.0
C1155 C 0.76993 0.07509 0.07147 0.0
N1156 N 0.76898 0.07451 0.09571 0.0
C1157 C 0.79088 0.11673 0.1057 0.0
C1158 C 0.7815 0.09678 0.06364 0.0
C1159 C 0.77918 0.09469 0.11284 0.0
C1160 C 0.79998 0.18235 0.12641 0.0
N1161 N 0.81741 0.19067 0.11253 0.0
C1162 C 0.83634 0.2256 0.14295 0.0
C1163 C 0.83566 0.21168 0.12033 0.0
C1164 C 0.81801 0.21772 0.1573 0.0
C1165 C 0.8 0.19552 0.14898 0.0
H1166 H 0.78487 0.1665 0.11898 0.0
H1167 H 0.84861 0.21849 0.10838 0.0
C1168 C 0.84131 0.1391 0.00683 0.0
N1169 N 0.83334 0.13441 0.02835 0.0
C1170 C 0.85297 0.12393 0.99471 0.0
C1171 C 0.85011 0.1011 0.02843 0.0
C1172 C 0.8381 0.11631 0.03955 0.0
C1173 C 0.85706 0.10426 1.00531 0.0
H1174 H 0.83786 0.15407 0.99865 0.0
H1175 H 0.83227 0.11346 0.05702 0.0
C1176 C 0.77337 0.19975 0.07939 0.0
N1177 N 0.76814 0.24232 0.10348 0.0
C1178 C 0.75238 0.19949 0.08982 0.0
C1179 C 0.79169 0.22169 0.08116 0.0
C1180 C 0.75007 0.2212 0.10193 0.0
C1181 C 0.7887 0.243 0.09343 0.0
C1182 C 0.78522 0.14076 0.99844 0.0
C1183 C 0.79095 0.15656 0.98142 0.0
C1184 C 0.78195 0.11587 0.99145 0.0
C1185 C 0.79366 0.14726 0.95784 0.0
C1186 C 0.78487 0.1073 0.96771 0.0
N1187 N 0.79063 0.12304 0.95155 0.0
C1188 C 0.80593 0.2235 0.01519 0.0
C1189 C 0.76454 0.20797 0.02007 0.0
C1190 C 0.80037 0.24085 1.00209 0.0
N1191 N 0.78796 0.20733 0.02342 0.0
C1192 C 0.75822 0.22517 0.00739 0.0
C1193 C 0.77615 0.24154 0.99771 0.0
H1194 H 0.82439 0.22245 0.01825 0.0
H1195 H 0.75074 0.19488 0.02706 0.0
C1196 C 0.73211 0.12655 0.07478 0.0
N1197 N 0.74302 0.12402 0.05458 0.0
C1198 C 0.70759 0.11434 0.07407 0.0
C1199 C 0.7066 0.09612 0.0323 0.0
C1200 C 0.73104 0.10883 0.03375 0.0
C1201 C 0.69436 0.09946 0.05234 0.0
H1202 H 0.74218 0.13898 0.091 0.0
H1203 H 0.74016 0.10739 0.01794 0.0
O1204 O 0.82832 0.1871 0.0541 0.0
O1205 O 0.8029 0.13934 0.07343 0.0
O1206 O 0.77616 0.17849 0.06808 0.0
O1207 O 0.7824 0.14956 0.02161 0.0
H1208 H 0.84729 0.1624 0.08437 0.0
H1209 H 0.864 0.22171 0.04318 0.0
H1210 H 0.89123 0.17098 0.09888 0.0
H1211 H 0.90778 0.22931 0.05855 0.0
H1212 H 0.76174 0.05873 0.05829 0.0
H1213 H 0.79944 0.13256 0.11941 0.0
H1214 H 0.78235 0.09723 0.04441 0.0
H1215 H 0.77831 0.09359 0.13201 0.0
H1216 H 0.85043 0.24271 0.14871 0.0
H1217 H 0.78508 0.18913 0.15901 0.0
H1218 H 0.85814 0.12726 0.97705 0.0
H1219 H 0.85385 0.08697 0.03795 0.0
H1220 H 0.73807 0.18265 0.08869 0.0
H1221 H 0.80816 0.22221 0.07339 0.0
H1222 H 0.73395 0.22126 0.11014 0.0
H1223 H 0.80278 0.26007 0.09504 0.0
H1224 H 0.7934 0.17581 0.98632 0.0
H1225 H 0.77745 0.1033 1.00422 0.0
H1226 H 0.79821 0.15932 0.94455 0.0
H1227 H 0.78259 0.08812 0.96217 0.0
H1228 H 0.8147 0.25285 0.99462 0.0
H1229 H 0.73941 0.22529 1.00473 0.0
H1230 H 0.69881 0.11761 0.08986 0.0
H1231 H 0.69718 0.0845 0.01534 0.0
Li1232 Li 0.20982 0.58336 0.25102 0.0
Li1233 Li 0.18584 0.57511 0.28246 0.0
Li1234 Li 0.20691 0.5473 0.26702 0.0
Li1235 Li 0.17233 0.55294 0.24172 0.0
C1236 C 0.23289 0.60263 0.29897 0.0
N1237 N 0.25667 0.64722 0.32738 0.0
C1238 C 0.22554 0.62322 0.29524 0.0
C1239 C 0.25229 0.60474 0.31722 0.0
C1240 C 0.23782 0.64559 0.30974 0.0
C1241 C 0.26408 0.62743 0.33139 0.0
C1242 C 0.15551 0.5925 0.25286 0.0
C1243 C 0.11414 0.58145 0.26126 0.0
N1244 N 0.11102 0.60173 0.25296 0.0
C1245 C 0.15188 0.61322 0.24442 0.0
C1246 C 0.13648 0.57646 0.26136 0.0
C1247 C 0.12926 0.61757 0.24463 0.0
C1248 C 0.21848 0.62074 0.22395 0.0
N1249 N 0.23011 0.60915 0.23875 0.0
C1250 C 0.26544 0.64325 0.24769 0.0
C1251 C 0.25374 0.61906 0.24902 0.0
C1252 C 0.25251 0.65683 0.23553 0.0
C1253 C 0.22958 0.64479 0.22181 0.0
H1254 H 0.19971 0.61219 0.21596 0.0
H1255 H 0.26246 0.60925 0.26065 0.0
C1256 C 0.17439 0.5738 0.32929 0.0
N1257 N 0.17611 0.58772 0.31124 0.0
C1258 C 0.1661 0.58101 0.35074 0.0
C1259 C 0.16209 0.61708 0.33481 0.0
C1260 C 0.17067 0.60926 0.31375 0.0
C1261 C 0.15943 0.60269 0.35345 0.0
H1262 H 0.17899 0.55682 0.32672 0.0
H1263 H 0.17255 0.62018 0.29925 0.0
C1264 C 0.22081 0.55603 0.21692 0.0
N1265 N 0.25582 0.56866 0.18694 0.0
C1266 C 0.21414 0.55905 0.19286 0.0
C1267 C 0.24526 0.5593 0.2257 0.0
C1268 C 0.23212 0.56547 0.178 0.0
C1269 C 0.2627 0.56572 0.21026 0.0
C1270 C 0.16186 0.51471 0.26903 0.0
C1271 C 0.1665 0.50021 0.24917 0.0
C1272 C 0.14648 0.50388 0.2848 0.0
C1273 C 0.15565 0.47508 0.24545 0.0
C1274 C 0.13595 0.47868 0.28044 0.0
N1275 N 0.14072 0.46492 0.26102 0.0
C1276 C 0.23148 0.52912 0.30144 0.0
C1277 C 0.22975 0.51008 0.26071 0.0
C1278 C 0.24573 0.51531 0.31048 0.0
N1279 N 0.22399 0.52631 0.27701 0.0
C1280 C 0.24396 0.49585 0.26895 0.0
C1281 C 0.25224 0.49852 0.29412 0.0
H1282 H 0.22662 0.54239 0.31381 0.0
H1283 H 0.22353 0.50841 0.24137 0.0
C1284 C 0.14679 0.55622 0.20007 0.0
N1285 N 0.1451 0.54116 0.21709 0.0
C1286 C 0.12743 0.55306 0.18177 0.0
C1287 C 0.10486 0.51833 0.19828 0.0
C1288 C 0.12468 0.5225 0.21675 0.0
C1289 C 0.10621 0.53404 0.18086 0.0
H1290 H 0.16303 0.57125 0.20127 0.0
H1291 H 0.12346 0.51127 0.23097 0.0
O1292 O 0.22131 0.58043 0.285 0.0
O1293 O 0.17757 0.58802 0.25246 0.0
O1294 O 0.20356 0.55014 0.2319 0.0
O1295 O 0.1723 0.53937 0.27331 0.0
H1296 H 0.21068 0.62208 0.28116 0.0
H1297 H 0.2582 0.58899 0.32037 0.0
H1298 H 0.2324 0.66167 0.30693 0.0
H1299 H 0.27913 0.62931 0.34557 0.0
H1300 H 0.09928 0.56919 0.26776 0.0
H1301 H 0.1664 0.62582 0.23779 0.0
H1302 H 0.13884 0.56032 0.26796 0.0
H1303 H 0.12621 0.63354 0.23814 0.0
H1304 H 0.28313 0.65187 0.25852 0.0
H1305 H 0.21928 0.65461 0.21184 0.0
H1306 H 0.16399 0.56928 0.3646 0.0
H1307 H 0.15724 0.63397 0.33637 0.0
H1308 H 0.19529 0.55646 0.18573 0.0
H1309 H 0.25076 0.55727 0.24435 0.0
H1310 H 0.22723 0.56792 0.15936 0.0
H1311 H 0.2817 0.56846 0.21686 0.0
H1312 H 0.17819 0.50818 0.23664 0.0
H1313 H 0.14271 0.51486 0.30026 0.0
H1314 H 0.15906 0.46365 0.23014 0.0
H1315 H 0.124 0.47005 0.29249 0.0
H1316 H 0.2519 0.518 0.32998 0.0
H1317 H 0.24827 0.48279 0.25581 0.0
H1318 H 0.12899 0.5653 0.16836 0.0
H1319 H 0.08864 0.50342 0.19782 0.0
Li1320 Li 0.78012 0.90209 0.54723 0.0
Li1321 Li 0.79691 0.87524 0.57191 0.0
Li1322 Li 0.8235 0.90873 0.55363 0.0
Li1323 Li 0.79705 0.87174 0.52571 0.0
C1324 C 0.81705 0.93001 0.59572 0.0
N1325 N 0.84877 0.9679 0.62874 0.0
C1326 C 0.82782 0.92552 0.61771 0.0
C1327 C 0.82226 0.95382 0.59063 0.0
C1328 C 0.84384 0.94491 0.63415 0.0
C1329 C 0.83839 0.97271 0.60751 0.0
C1330 C 0.75629 0.8415 0.54304 0.0
C1331 C 0.75612 0.79946 0.53844 0.0
N1332 N 0.73233 0.7929 0.54159 0.0
C1333 C 0.73184 0.83438 0.5462 0.0
C1334 C 0.76856 0.82394 0.53912 0.0
C1335 C 0.72004 0.8097 0.54542 0.0
C1336 C 0.73794 0.91279 0.5246 0.0
N1337 N 0.75531 0.91854 0.54468 0.0
C1338 C 0.74009 0.95074 0.56118 0.0
C1339 C 0.75638 0.93684 0.56298 0.0
C1340 C 0.72247 0.94582 0.54029 0.0
C1341 C 0.7214 0.92639 0.52192 0.0
H1342 H 0.73724 0.89794 0.51042 0.0
H1343 H 0.77013 0.94093 0.57889 0.0
C1344 C 0.81396 0.85698 0.61432 0.0
N1345 N 0.79379 0.85942 0.60103 0.0
C1346 C 0.81276 0.8491 0.63717 0.0
C1347 C 0.76985 0.84527 0.63196 0.0
C1348 C 0.77192 0.8535 0.60933 0.0
C1349 C 0.79055 0.84344 0.64655 0.0
H1350 H 0.83125 0.86211 0.60764 0.0
H1351 H 0.75617 0.85596 0.59876 0.0
C1352 C 0.79264 0.91875 0.50688 0.0
N1353 N 0.77111 0.9433 0.47582 0.0
C1354 C 0.77908 0.90647 0.48438 0.0
C1355 C 0.7954 0.94358 0.51347 0.0
C1356 C 0.76832 0.91919 0.46894 0.0
C1357 C 0.78432 0.95564 0.49757 0.0
C1358 C 0.84106 0.86267 0.54906 0.0
C1359 C 0.86123 0.87365 0.53839 0.0
C1360 C 0.83879 0.83986 0.5561 0.0
C1361 C 0.87861 0.8614 0.53452 0.0
C1362 C 0.85656 0.8282 0.55193 0.0
N1363 N 0.87592 0.83912 0.5413 0.0
C1364 C 0.87254 0.93445 0.57614 0.0
C1365 C 0.85891 0.94612 0.53907 0.0
C1366 C 0.89552 0.95109 0.57746 0.0
N1367 N 0.8548 0.93232 0.55714 0.0
C1368 C 0.88152 0.96293 0.53966 0.0
C1369 C 0.9003 0.96555 0.55895 0.0
H1370 H 0.86895 0.92301 0.5901 0.0
H1371 H 0.84479 0.94369 0.52383 0.0
C1372 C 0.7751 0.83762 0.48064 0.0
N1373 N 0.79624 0.85244 0.49396 0.0
C1374 C 0.77444 0.8277 0.45613 0.0
C1375 C 0.81738 0.84764 0.4596 0.0
C1376 C 0.81716 0.85742 0.48387 0.0
C1377 C 0.79572 0.83297 0.44511 0.0
H1378 H 0.75846 0.83444 0.4886 0.0
H1379 H 0.83351 0.87008 0.49423 0.0
O1380 O 0.80163 0.91119 0.57919 0.0
O1381 O 0.76817 0.86561 0.54413 0.0
O1382 O 0.80297 0.9065 0.52245 0.0
O1383 O 0.82402 0.87451 0.55333 0.0
H1384 H 0.82394 0.90729 0.62206 0.0
H1385 H 0.8141 0.95765 0.57374 0.0
H1386 H 0.85236 0.94167 0.6512 0.0
H1387 H 0.8427 0.99119 0.60372 0.0
H1388 H 0.76539 0.78566 0.53538 0.0
H1389 H 0.72213 0.8478 0.54933 0.0
H1390 H 0.78741 0.82915 0.53646 0.0
H1391 H 0.70112 0.80392 0.54788 0.0
H1392 H 0.74171 0.96561 0.57572 0.0
H1393 H 0.70791 0.92175 0.50566 0.0
H1394 H 0.82919 0.84776 0.64754 0.0
H1395 H 0.75238 0.84136 0.63842 0.0
H1396 H 0.77668 0.8873 0.47892 0.0
H1397 H 0.80581 0.9534 0.53078 0.0
H1398 H 0.75769 0.90988 0.45153 0.0
H1399 H 0.78617 0.97481 0.50254 0.0
H1400 H 0.86338 0.89137 0.53298 0.0
H1401 H 0.82351 0.83127 0.56477 0.0
H1402 H 0.89423 0.86963 0.52615 0.0
H1403 H 0.85499 0.81051 0.55722 0.0
H1404 H 0.9094 0.95254 0.59275 0.0
H1405 H 0.88446 0.97321 0.52468 0.0
H1406 H 0.75729 0.8165 0.44573 0.0
H1407 H 0.83412 0.85266 0.45185 0.0
Li1408 Li 0.96866 0.04521 0.30715 0.0
Li1409 Li 0.93222 0.01842 0.2796 0.0
Li1410 Li 0.9651 0.04628 0.26139 0.0
Li1411 Li 0.93728 0.06222 0.28467 0.0
C1412 C 0.98694 0.01076 0.28297 0.0
N1413 N 0.02785 0.99503 0.29024 0.0
C1414 C 0.98479 0.98713 0.28767 0.0
C1415 C 1.00985 0.02635 0.28189 0.0
C1416 C 1.00571 0.97952 0.29132 0.0
C1417 C 0.03032 0.01807 0.28563 0.0
C1418 C 0.91568 0.02779 0.32151 0.0
C1419 C 0.87328 1.0076 0.32189 0.0
N1420 N 0.87925 1.00059 0.3436 0.0
C1421 C 0.92133 0.02061 0.34397 0.0
C1422 C 0.89141 0.02145 0.31051 0.0
C1423 C 0.90268 1.0068 0.3548 0.0
C1424 C 0.9986 0.06794 0.35359 0.0
N1425 N 0.98746 0.04631 0.33884 0.0
C1426 C 0.9948 0.02479 0.37185 0.0
C1427 C 0.98594 0.02494 0.34739 0.0
C1428 C 1.00572 0.04686 0.38791 0.0
C1429 C 1.00818 0.06863 0.37803 0.0
H1430 H 0.99922 0.08477 0.3467 0.0
H1431 H 0.97636 1.00793 0.33565 0.0
C1432 C 0.89041 0.97725 0.25904 0.0
N1433 N 0.91015 0.98647 0.27671 0.0
C1434 C 0.87434 0.95422 0.25912 0.0
C1435 C 0.8994 0.95073 0.2954 0.0
C1436 C 0.91494 0.97364 0.29455 0.0
C1437 C 0.87877 0.94061 0.2775 0.0
H1438 H 0.88708 0.98776 0.24496 0.0
H1439 H 0.93069 0.98149 0.30845 0.0
C1440 C 0.99341 0.09144 0.28414 0.0
N1441 N 0.03285 0.12589 0.27337 0.0
C1442 C 0.99014 0.10596 0.26648 0.0
C1443 C 0.01674 0.09447 0.29634 0.0
C1444 C 1.01031 0.12326 0.26128 0.0
C1445 C 0.03644 0.11198 0.29064 0.0
C1446 C 0.91381 0.04773 0.23936 0.0
C1447 C 0.92347 0.06446 0.22429 0.0
C1448 C 0.88877 0.04074 0.23994 0.0
C1449 C 0.90792 0.07395 0.21012 0.0
C1450 C 0.87382 0.05071 0.22556 0.0
N1451 N 0.88363 0.06696 0.21106 0.0
C1452 C 0.96556 0.03497 0.21069 0.0
C1453 C 1.00359 0.06141 0.22989 0.0
C1454 C 0.97309 0.03582 0.18762 0.0
N1455 N 0.98051 0.04803 0.23132 0.0
C1456 C 1.01197 0.06262 0.2071 0.0
C1457 C 0.9966 0.04988 0.18536 0.0
H1458 H 0.94738 0.02423 0.21205 0.0
H1459 H 0.01559 0.07131 0.24632 0.0
C1460 C 0.90434 0.08449 0.30545 0.0
N1461 N 0.91943 0.08616 0.28818 0.0
C1462 C 0.8893 0.09968 0.30757 0.0
C1463 C 0.9064 0.11916 0.27495 0.0
C1464 C 0.92103 0.10345 0.27337 0.0
C1465 C 0.88995 0.11711 0.29198 0.0
H1466 H 0.9038 0.07127 0.3176 0.0
H1467 H 0.93329 0.10485 0.25998 0.0
O1468 O 0.96672 0.01863 0.2797 0.0
O1469 O 0.93377 0.04085 0.31029 0.0
O1470 O 0.97387 0.07453 0.28964 0.0
O1471 O 0.9288 0.03837 0.25353 0.0
H1472 H 0.96718 0.97482 0.28855 0.0
H1473 H 1.01179 0.04465 0.27829 0.0
H1474 H 1.00433 0.9613 0.29503 0.0
H1475 H 0.04818 0.02998 0.28488 0.0
H1476 H 0.85447 1.0024 0.31343 0.0
H1477 H 0.93987 0.0257 0.35304 0.0
H1478 H 0.88668 0.02701 0.29326 0.0
H1479 H 0.90684 1.00104 0.37213 0.0
H1480 H 0.99193 1.00746 0.37829 0.0
H1481 H 0.01692 0.08619 0.38916 0.0
H1482 H 0.85883 0.94705 0.24481 0.0
H1483 H 0.90338 0.94121 0.31018 0.0
H1484 H 0.97231 0.10367 0.25664 0.0
H1485 H 0.01965 0.0833 0.30995 0.0
H1486 H 1.00805 0.13453 0.24757 0.0
H1487 H 0.0546 0.11447 0.2999 0.0
H1488 H 0.94283 0.07045 0.22386 0.0
H1489 H 0.88089 0.02781 0.25139 0.0
H1490 H 0.91519 0.08701 0.1985 0.0
H1491 H 0.85442 0.0455 0.22591 0.0
H1492 H 0.96024 0.02587 0.17166 0.0
H1493 H 0.03042 0.07333 0.20663 0.0
H1494 H 0.87734 0.09783 0.32136 0.0
H1495 H 0.9075 0.13232 0.26253 0.0
Li1496 Li 0.29629 0.67645 0.59679 0.0
Li1497 Li 0.31016 0.64449 0.57641 0.0
Li1498 Li 0.28652 0.66501 0.55329 0.0
Li1499 Li 0.26847 0.63672 0.57991 0.0
C1500 C 0.33745 0.69911 0.58356 0.0
N1501 N 0.37401 0.73936 0.60775 0.0
C1502 C 0.3588 0.69628 0.59558 0.0
C1503 C 0.33471 0.72244 0.58385 0.0
C1504 C 0.37708 0.71686 0.60768 0.0
C1505 C 0.35338 0.74254 0.59621 0.0
C1506 C 0.28512 0.63229 0.62401 0.0
C1507 C 0.26662 0.59442 0.6376 0.0
N1508 N 0.26136 0.60701 0.65756 0.0
C1509 C 0.27959 0.64486 0.64468 0.0
C1510 C 0.27868 0.60687 0.62047 0.0
C1511 C 0.26756 0.63174 0.66142 0.0
C1512 C 0.28539 0.71462 0.62393 0.0
N1513 N 0.30246 0.70254 0.6228 0.0
C1514 C 0.32585 0.72706 0.65968 0.0
C1515 C 0.3224 0.70823 0.64019 0.0
C1516 C 0.30841 0.73982 0.66129 0.0
C1517 C 0.28805 0.73347 0.64301 0.0
H1518 H 0.26932 0.7092 0.61038 0.0
H1519 H 0.3354 0.6979 0.6391 0.0
C1520 C 0.34983 0.63762 0.55685 0.0
N1521 N 0.33524 0.63003 0.57361 0.0
C1522 C 0.36507 0.62428 0.54904 0.0
C1523 C 0.35088 0.59628 0.57692 0.0
C1524 C 0.33597 0.61031 0.58431 0.0
C1525 C 0.3651 0.60292 0.55856 0.0
H1526 H 0.34838 0.65314 0.54838 0.0
H1527 H 0.32393 0.60464 0.59741 0.0
C1528 C 0.24814 0.67737 0.56333 0.0
N1529 N 0.21633 0.69359 0.53365 0.0
C1530 C 0.22574 0.66139 0.55205 0.0
C1531 C 0.25432 0.70163 0.55952 0.0
C1532 C 0.2099 0.66995 0.53716 0.0
C1533 C 0.23802 0.70946 0.54442 0.0
C1534 C 0.28991 0.61397 0.53536 0.0
C1535 C 0.30041 0.62122 0.515 0.0
C1536 C 0.28861 0.59079 0.54102 0.0
C1537 C 0.30966 0.60521 0.50075 0.0
C1538 C 0.29813 0.57534 0.52635 0.0
N1539 N 0.30837 0.58282 0.50669 0.0
C1540 C 0.2947 0.69781 0.51972 0.0
C1541 C 0.26099 0.66266 0.5068 0.0
C1542 C 0.28864 0.70772 0.49921 0.0
N1543 N 0.28052 0.67599 0.52338 0.0
C1544 C 0.25431 0.67184 0.48593 0.0
C1545 C 0.26793 0.6949 0.48231 0.0
H1546 H 0.3103 0.7078 0.53306 0.0
H1547 H 0.25014 0.6453 0.51028 0.0
C1548 C 0.22575 0.62294 0.59945 0.0
N1549 N 0.23879 0.61481 0.5832 0.0
C1550 C 0.20106 0.6113 0.59804 0.0
C1551 C 0.20423 0.58207 0.5644 0.0
C1552 C 0.22888 0.59437 0.5664 0.0
C1553 C 0.18987 0.59131 0.57958 0.0
H1554 H 0.23404 0.63967 0.61211 0.0
H1555 H 0.23955 0.58883 0.55324 0.0
O1556 O 0.31927 0.67917 0.57172 0.0
O1557 O 0.2968 0.6448 0.60735 0.0
O1558 O 0.2642 0.66922 0.57754 0.0
O1559 O 0.28135 0.62963 0.54993 0.0
H1560 H 0.36118 0.67839 0.5958 0.0
H1561 H 0.31815 0.72498 0.57504 0.0
H1562 H 0.39367 0.71492 0.6171 0.0
H1563 H 0.35142 0.76067 0.59672 0.0
H1564 H 0.26137 0.57474 0.635 0.0
H1565 H 0.2844 0.66451 0.64774 0.0
H1566 H 0.28257 0.59684 0.60444 0.0
H1567 H 0.26312 0.64123 0.67747 0.0
H1568 H 0.34177 0.73137 0.67345 0.0
H1569 H 0.27381 0.74231 0.64392 0.0
H1570 H 0.37557 0.62981 0.53465 0.0
H1571 H 0.35067 0.58003 0.58482 0.0
H1572 H 0.22069 0.6425 0.55445 0.0
H1573 H 0.27172 0.71418 0.56777 0.0
H1574 H 0.19256 0.65776 0.52827 0.0
H1575 H 0.24267 0.72811 0.54115 0.0
H1576 H 0.30176 0.63915 0.51045 0.0
H1577 H 0.2808 0.58497 0.55688 0.0
H1578 H 0.31799 0.61065 0.48504 0.0
H1579 H 0.2975 0.55746 0.53068 0.0
H1580 H 0.29985 0.72537 0.49675 0.0
H1581 H 0.23819 0.66147 0.4733 0.0
H1582 H 0.19047 0.61888 0.61003 0.0
H1583 H 0.19609 0.56692 0.54973 0.0
Li1584 Li 0.43569 0.51426 0.77068 0.0
Li1585 Li 0.47336 0.54168 0.79682 0.0
Li1586 Li 0.4424 0.55917 0.77336 0.0
Li1587 Li 0.46884 0.54056 0.75101 0.0
C1588 C 0.42297 0.53575 0.81669 0.0
N1589 N 0.39153 0.52983 0.85111 0.0
C1590 C 0.42968 0.52874 0.83898 0.0
C1591 C 0.40036 0.54009 0.81213 0.0
C1592 C 0.41351 0.52573 0.85607 0.0
C1593 C 0.38471 0.53692 0.8297 0.0
C1594 C 0.4864 0.50104 0.77423 0.0
C1595 C 0.52785 0.49945 0.77997 0.0
N1596 N 0.51986 0.47577 0.78313 0.0
C1597 C 0.47856 0.47669 0.77746 0.0
C1598 C 0.5112 0.51253 0.77544 0.0
C1599 C 0.49579 0.46423 0.78197 0.0
C1600 C 0.39973 0.46987 0.74787 0.0
N1601 N 0.41232 0.48335 0.76943 0.0
C1602 C 0.3915 0.45339 0.79181 0.0
C1603 C 0.40884 0.47532 0.7911 0.0
C1604 C 0.378 0.43923 0.76993 0.0
C1605 C 0.38243 0.44754 0.74769 0.0
H1606 H 0.4031 0.47646 0.73083 0.0
H1607 H 0.41973 0.48582 0.80786 0.0
C1608 C 0.49984 0.56477 0.8445 0.0
N1609 N 0.49202 0.54328 0.82884 0.0
C1610 C 0.50863 0.56545 0.86921 0.0
C1611 C 0.50209 0.52208 0.86122 0.0
C1612 C 0.49334 0.5222 0.83673 0.0
C1613 C 0.50934 0.54381 0.87812 0.0
H1614 H 0.4982 0.58126 0.8381 0.0
H1615 H 0.48615 0.50513 0.82446 0.0
C1616 C 0.41035 0.53047 0.73083 0.0
N1617 N 0.36491 0.52438 0.70498 0.0
C1618 C 0.40799 0.53399 0.70637 0.0
C1619 C 0.38955 0.52347 0.74198 0.0
C1620 C 0.38488 0.53095 0.69365 0.0
C1621 C 0.36676 0.52057 0.72866 0.0
C1622 C 0.49674 0.58606 0.76927 0.0
C1623 C 0.4908 0.60236 0.75484 0.0
C1624 C 0.52099 0.58634 0.77474 0.0
C1625 C 0.50924 0.6184 0.74568 0.0
C1626 C 0.53892 0.60267 0.76525 0.0
N1627 N 0.53272 0.6182 0.751 0.0
C1628 C 0.42308 0.59543 0.79586 0.0
C1629 C 0.41754 0.58976 0.75254 0.0
C1630 C 0.40945 0.61208 0.79648 0.0
N1631 N 0.42633 0.58421 0.77408 0.0
C1632 C 0.40374 0.6062 0.75228 0.0
C1633 C 0.39915 0.61735 0.77445 0.0
H1634 H 0.43063 0.59105 0.81278 0.0
H1635 H 0.4209 0.58114 0.73546 0.0
C1636 C 0.49832 0.52991 0.71341 0.0
N1637 N 0.48338 0.54309 0.72085 0.0
C1638 C 0.50639 0.53128 0.69052 0.0
C1639 C 0.48357 0.55962 0.68323 0.0
C1640 C 0.4761 0.55783 0.70625 0.0
C1641 C 0.49883 0.54612 0.67488 0.0
H1642 H 0.5036 0.51792 0.72494 0.0
H1643 H 0.46404 0.56799 0.71232 0.0
O1644 O 0.43874 0.53897 0.79981 0.0
O1645 O 0.46979 0.51356 0.77012 0.0
O1646 O 0.43289 0.53358 0.74363 0.0
O1647 O 0.4789 0.57002 0.77813 0.0
H1648 H 0.44706 0.52539 0.84299 0.0
H1649 H 0.39499 0.54618 0.79539 0.0
H1650 H 0.41844 0.52014 0.87328 0.0
H1651 H 0.36717 0.54021 0.82635 0.0
H1652 H 0.54712 0.50811 0.78098 0.0
H1653 H 0.45939 0.46757 0.77662 0.0
H1654 H 0.5175 0.53133 0.77289 0.0
H1655 H 0.49001 0.44539 0.78458 0.0
H1656 H 0.38905 0.4473 0.80927 0.0
H1657 H 0.37247 0.43699 0.73041 0.0
H1658 H 0.51424 0.58274 0.88135 0.0
H1659 H 0.50182 0.50486 0.86712 0.0
H1660 H 0.42381 0.53908 0.69727 0.0
H1661 H 0.39094 0.51991 0.76057 0.0
H1662 H 0.38282 0.53377 0.67477 0.0
H1663 H 0.35052 0.51517 0.73711 0.0
H1664 H 0.4721 0.60247 0.7506 0.0
H1665 H 0.52592 0.57413 0.78626 0.0
H1666 H 0.50489 0.63098 0.73432 0.0
H1667 H 0.55777 0.60302 0.76924 0.0
H1668 H 0.40692 0.62061 0.81404 0.0
H1669 H 0.39618 0.60955 0.73483 0.0
H1670 H 0.5179 0.52028 0.68487 0.0
H1671 H 0.47747 0.57156 0.67213 0.0
Li1672 Li 0.67618 0.06163 0.77772 0.0
Li1673 Li 0.70383 0.07934 0.75229 0.0
Li1674 Li 0.67041 0.04556 0.73518 0.0
Li1675 Li 0.70419 0.0413 0.76276 0.0
C1676 C 0.6458 0.07867 0.74772 0.0
N1677 N 0.59813 0.08017 0.74268 0.0
C1678 C 0.64007 0.0993 0.74133 0.0
C1679 C 0.62724 0.05879 0.7516 0.0
C1680 C 0.61588 0.09971 0.73886 0.0
C1681 C 0.60327 0.05991 0.74895 0.0
C1682 C 0.71941 0.09252 0.80299 0.0
C1683 C 0.74341 0.11437 0.84134 0.0
N1684 N 0.73455 0.13354 0.83848 0.0
C1685 C 0.71056 0.11245 0.80045 0.0
C1686 C 0.736 0.09349 0.82359 0.0
C1687 C 0.71843 0.13301 0.81857 0.0
C1688 C 0.65294 0.04939 0.81774 0.0
N1689 N 0.6596 0.06733 0.80408 0.0
C1690 C 0.63891 0.09155 0.826 0.0
C1691 C 0.65315 0.08826 0.80799 0.0
C1692 C 0.63124 0.0731 0.84002 0.0
C1693 C 0.63864 0.0519 0.83596 0.0
H1694 H 0.65837 0.03297 0.81414 0.0
H1695 H 0.65844 0.10214 0.79667 0.0
C1696 C 0.71129 0.12171 0.73216 0.0
N1697 N 0.72281 0.10934 0.74612 0.0
C1698 C 0.72199 0.14632 0.73192 0.0
C1699 C 0.75707 0.14422 0.75868 0.0
C1700 C 0.74568 0.11964 0.75838 0.0
C1701 C 0.74464 0.15805 0.74626 0.0
H1702 H 0.69314 0.11284 0.72254 0.0
H1703 H 0.75426 0.10925 0.76941 0.0
C1704 C 0.66211 1.00231 0.75517 0.0
N1705 N 0.64909 0.95274 0.73906 0.0
C1706 C 0.67059 0.99316 0.7345 0.0
C1707 C 0.64698 0.98623 0.76759 0.0
C1708 C 0.66382 0.96805 0.72667 0.0
C1709 C 0.64059 0.96124 0.75917 0.0
C1710 C 0.72361 0.06072 0.71832 0.0
C1711 C 0.71947 0.06725 0.69522 0.0
C1712 C 0.74744 0.06541 0.73002 0.0
C1713 C 0.73929 0.07855 0.68427 0.0
C1714 C 0.76678 0.07672 0.71845 0.0
N1715 N 0.76233 0.08302 0.69601 0.0
C1716 C 0.64807 0.0518 0.69297 0.0
C1717 C 0.62722 0.01391 0.70364 0.0
C1718 C 0.6295 0.04951 0.67407 0.0
N1719 N 0.64652 0.03432 0.70741 0.0
C1720 C 0.60833 0.0106 0.68443 0.0
C1721 C 0.60929 0.0289 0.6699 0.0
H1722 H 0.66323 0.06817 0.69705 0.0
H1723 H 0.62591 1.00076 0.71602 0.0
C1724 C 0.73105 0.02312 0.79551 0.0
N1725 N 0.72423 0.02226 0.77123 0.0
C1726 C 0.74746 0.01091 0.80334 0.0
C1727 C 0.74907 0.99683 0.76091 0.0
C1728 C 0.73274 0.00947 0.75391 0.0
C1729 C 0.75673 0.9976 0.78593 0.0
H1730 H 0.72397 0.03361 0.80875 0.0
H1731 H 0.72707 0.00934 0.73472 0.0
O1732 O 0.66947 0.07804 0.74987 0.0
O1733 O 0.71217 0.07214 0.78547 0.0
O1734 O 0.66851 0.02681 0.76342 0.0
O1735 O 0.70446 0.05004 0.72956 0.0
H1736 H 0.65419 0.11486 0.73829 0.0
H1737 H 0.6312 0.04264 0.75655 0.0
H1738 H 0.6112 0.11557 0.7339 0.0
H1739 H 0.58875 0.04465 0.75186 0.0
H1740 H 0.75623 0.11535 0.85738 0.0
H1741 H 0.69789 0.1122 0.78459 0.0
H1742 H 0.74313 0.07828 0.82583 0.0
H1743 H 0.71175 0.14857 0.81677 0.0
H1744 H 0.63336 0.10803 0.8284 0.0
H1745 H 0.63334 0.0374 0.84667 0.0
H1746 H 0.71205 0.15637 0.72185 0.0
H1747 H 0.77448 0.15268 0.77009 0.0
H1748 H 0.68208 1.00522 0.72444 0.0
H1749 H 0.6402 0.993 0.78359 0.0
H1750 H 0.67023 0.96073 0.7107 0.0
H1751 H 0.62889 0.94859 0.76862 0.0
H1752 H 0.70116 0.06365 0.68585 0.0
H1753 H 0.75097 0.06073 0.74803 0.0
H1754 H 0.73636 0.08376 0.66642 0.0
H1755 H 0.78531 0.0806 0.72736 0.0
H1756 H 0.63078 0.06381 0.66293 0.0
H1757 H 0.59287 0.99447 0.68146 0.0
H1758 H 0.75306 0.01217 0.82278 0.0
H1759 H 0.75544 0.98643 0.7469 0.0
Li1760 Li 0.78745 0.72598 0.05276 0.0
Li1761 Li 0.80355 0.6952 0.03158 0.0
Li1762 Li 0.7869 0.7225 0.00616 0.0
Li1763 Li 0.75985 0.68915 0.02529 0.0
C1764 C 0.83123 0.75401 0.04132 0.0
N1765 N 0.86286 0.79996 0.05754 0.0
C1766 C 0.8523 0.75709 0.05776 0.0
C1767 C 0.82645 0.77423 0.03281 0.0
C1768 C 0.868 0.78048 0.06585 0.0
C1769 C 0.84261 0.79733 0.0413 0.0
C1770 C 0.78864 0.6755 0.06939 0.0
C1771 C 0.793 0.63553 0.07215 0.0
N1772 N 0.80539 0.64386 0.09517 0.0
C1773 C 0.80124 0.6836 0.09316 0.0
C1774 C 0.78431 0.65121 0.05888 0.0
C1775 C 0.80961 0.66735 0.10587 0.0
C1776 C 0.7692 0.75017 0.09233 0.0
N1777 N 0.78953 0.74565 0.08502 0.0
C1778 C 0.81077 0.76001 0.1261 0.0
C1779 C 0.81023 0.75078 0.10141 0.0
C1780 C 0.78983 0.76428 0.13436 0.0
C1781 C 0.76905 0.75974 0.11673 0.0
H1782 H 0.7526 0.74534 0.07961 0.0
H1783 H 0.82595 0.74619 0.09577 0.0
C1784 C 0.82772 0.66098 0.0153 0.0
N1785 N 0.82816 0.67861 0.03404 0.0
C1786 C 0.844 0.64707 0.01711 0.0
C1787 C 0.86154 0.67025 0.05715 0.0
C1788 C 0.84486 0.68368 0.05458 0.0
C1789 C 0.86111 0.65142 0.03835 0.0
H1790 H 0.81448 0.65744 0.99905 0.0
H1791 H 0.84492 0.69787 0.0692 0.0
C1792 C 0.74509 0.73788 0.0302 0.0
N1793 N 0.71494 0.76653 0.04014 0.0
C1794 C 0.72153 0.72731 0.03485 0.0
C1795 C 0.7533 0.76301 0.03063 0.0
C1796 C 0.70657 0.74211 0.03982 0.0
C1797 C 0.73779 0.77719 0.03569 0.0
C1798 C 0.76602 0.66886 0.98171 0.0
C1799 C 0.75393 0.67582 0.96193 0.0
C1800 C 0.76209 0.64412 0.98302 0.0
C1801 C 0.73816 0.65793 0.94381 0.0
C1802 C 0.74613 0.62679 0.96457 0.0
N1803 N 0.7346 0.63399 0.9455 0.0
C1804 C 0.8044 0.72847 0.96085 0.0
C1805 C 0.77814 0.75251 0.96916 0.0
C1806 C 0.80619 0.73563 0.93773 0.0
N1807 N 0.79043 0.73679 0.97604 0.0
C1808 C 0.77967 0.7604 0.9463 0.0
C1809 C 0.79369 0.7518 0.93003 0.0
H1810 H 0.81378 0.71573 0.96648 0.0
H1811 H 0.76673 0.7586 0.98116 0.0
C1812 C 0.72369 0.6531 0.04079 0.0
N1813 N 0.72838 0.66584 0.02201 0.0
C1814 C 0.70103 0.63635 0.04016 0.0
C1815 C 0.68805 0.6463 1.00099 0.0
C1816 C 0.71104 0.66289 1.00238 0.0
C1817 C 0.68278 0.63277 0.02011 0.0
H1818 H 0.73734 0.65631 0.05662 0.0
H1819 H 0.71488 0.67374 0.98802 0.0
O1820 O 0.81566 0.73125 0.0332 0.0
O1821 O 0.78081 0.69128 0.05637 0.0
O1822 O 0.75999 0.72365 0.02538 0.0
O1823 O 0.78144 0.68613 0.99975 0.0
H1824 H 0.85641 0.74158 0.06432 0.0
H1825 H 0.81054 0.77209 0.01965 0.0
H1826 H 0.88429 0.78316 0.07872 0.0
H1827 H 0.83908 0.81316 0.03492 0.0
H1828 H 0.78992 0.61674 0.06414 0.0
H1829 H 0.80462 0.70223 0.10171 0.0
H1830 H 0.77447 0.64459 0.0406 0.0
H1831 H 0.81949 0.67343 0.12423 0.0
H1832 H 0.82719 0.76257 0.13873 0.0
H1833 H 0.75249 0.763 0.12173 0.0
H1834 H 0.84273 0.63264 1.00222 0.0
H1835 H 0.87462 0.67458 0.0737 0.0
H1836 H 0.7149 0.70793 0.0348 0.0
H1837 H 0.77148 0.77154 0.02724 0.0
H1838 H 0.68832 0.73418 0.04349 0.0
H1839 H 0.74394 0.79667 0.03612 0.0
H1840 H 0.75633 0.6948 0.96072 0.0
H1841 H 0.77122 0.63831 0.99812 0.0
H1842 H 0.72863 0.66309 0.92847 0.0
H1843 H 0.74291 0.6076 0.96541 0.0
H1844 H 0.81739 0.72865 0.92606 0.0
H1845 H 0.76945 0.77264 0.94116 0.0
H1846 H 0.69764 0.62685 0.05561 0.0
H1847 H 0.67452 0.64418 0.98519 0.0
Li1848 Li 0.89928 0.53838 0.83169 0.0
Li1849 Li 0.93881 0.56888 0.84403 0.0
Li1850 Li 0.9053 0.58089 0.82927 0.0
Li1851 Li 0.92404 0.55836 0.8021 0.0
C1852 C 0.90973 0.55756 0.88095 0.0
N1853 N 0.91403 0.54091 0.92526 0.0
C1854 C 0.922 0.54006 0.88398 0.0
C1855 C 0.89965 0.56653 0.90048 0.0
C1856 C 0.92401 0.53193 0.90653 0.0
C1857 C 0.90197 0.55785 0.92272 0.0
C1858 C 0.94171 0.52156 0.81064 0.0
C1859 C 0.97243 0.5162 0.7861 0.0
N1860 N 0.96115 0.49186 0.7812 0.0
C1861 C 0.93068 0.49643 0.80569 0.0
C1862 C 0.96301 0.53146 0.8011 0.0
C1863 C 0.94069 0.48175 0.79066 0.0
C1864 C 0.86973 0.49481 0.81073 0.0
N1865 N 0.8768 0.50838 0.83333 0.0
C1866 C 0.85395 0.47576 0.85136 0.0
C1867 C 0.86875 0.49971 0.8535 0.0
C1868 C 0.84744 0.4609 0.82828 0.0
C1869 C 0.85523 0.47093 0.80777 0.0
H1870 H 0.87639 0.50229 0.79506 0.0
H1871 H 0.87412 0.51104 0.87124 0.0
C1872 C 0.96862 0.59266 0.8883 0.0
N1873 N 0.96679 0.57665 0.86767 0.0
C1874 C 0.98537 0.59367 0.90867 0.0
C1875 C 0.99895 0.56292 0.88547 0.0
C1876 C 0.98213 0.56266 0.86554 0.0
C1877 C 0.99984 0.57776 0.90758 0.0
H1878 H 0.95573 0.6031 0.8896 0.0
H1879 H 0.98 0.54982 0.84915 0.0
C1880 C 0.86993 0.55735 0.79202 0.0
N1881 N 0.8308 0.56952 0.76967 0.0
C1882 C 0.87268 0.57069 0.77267 0.0
C1883 C 0.84725 0.5499 0.7998 0.0
C1884 C 0.85268 0.57674 0.76166 0.0
C1885 C 0.82769 0.55631 0.78831 0.0
C1886 C 0.95818 0.60998 0.83088 0.0
C1887 C 0.95575 0.62903 0.84752 0.0
C1888 C 0.98127 0.60962 0.82584 0.0
C1889 C 0.97654 0.64739 0.85897 0.0
C1890 C 1.00161 0.6283 0.83769 0.0
N1891 N 0.99885 0.64663 0.85388 0.0
C1892 C 0.86765 0.6009 0.83961 0.0
C1893 C 0.8947 0.62082 0.81433 0.0
C1894 C 0.85156 0.61419 0.83376 0.0
N1895 N 0.88829 0.60401 0.82925 0.0
C1896 C 0.8793 0.63455 0.80811 0.0
C1897 C 0.85707 0.63073 0.81725 0.0
H1898 H 0.8629 0.58691 0.85097 0.0
H1899 H 0.91093 0.62227 0.80587 0.0
C1900 C 0.91747 0.52996 0.75691 0.0
N1901 N 0.93019 0.55198 0.77004 0.0
C1902 C 0.92347 0.5224 0.73432 0.0
C1903 C 0.95451 0.56106 0.73862 0.0
C1904 C 0.948 0.5678 0.76125 0.0
C1905 C 0.94253 0.53787 0.72521 0.0
H1906 H 0.90338 0.51788 0.76453 0.0
H1907 H 0.95771 0.5852 0.77221 0.0
O1908 O 0.90824 0.56668 0.85942 0.0
O1909 O 0.93186 0.53631 0.82494 0.0
O1910 O 0.88947 0.55197 0.80356 0.0
O1911 O 0.93806 0.59167 0.81976 0.0
H1912 H 0.92994 0.5328 0.86921 0.0
H1913 H 0.89024 0.58018 0.8985 0.0
H1914 H 0.93352 0.51848 0.90913 0.0
H1915 H 0.89427 0.56467 0.93799 0.0
H1916 H 0.98868 0.52371 0.7783 0.0
H1917 H 0.91469 0.48827 0.8135 0.0
H1918 H 0.97193 0.55083 0.80488 0.0
H1919 H 0.93223 0.4623 0.78658 0.0
H1920 H 0.84803 0.46885 0.86759 0.0
H1921 H 0.85118 0.46017 0.78968 0.0
H1922 H 0.98537 0.605 0.92569 0.0
H1923 H 1.00977 0.55029 0.88423 0.0
H1924 H 0.89016 0.57661 0.76649 0.0
H1925 H 0.84488 0.53959 0.8148 0.0
H1926 H 0.85457 0.58727 0.74683 0.0
H1927 H 0.81007 0.55088 0.79428 0.0
H1928 H 0.93804 0.62949 0.8518 0.0
H1929 H 0.9835 0.59499 0.81307 0.0
H1930 H 0.97494 0.66218 0.87198 0.0
H1931 H 0.0196 0.62819 0.83406 0.0
H1932 H 0.83463 0.61089 0.84124 0.0
H1933 H 0.884 0.6468 0.795 0.0
H1934 H 0.91369 0.50451 0.72432 0.0
H1935 H 0.96943 0.5734 0.73222 0.0
Li1936 Li 0.79673 0.43344 0.52928 0.0
Li1937 Li 0.7692 0.45387 0.5123 0.0
Li1938 Li 0.78287 0.42495 0.48655 0.0
Li1939 Li 0.80997 0.46465 0.504 0.0
C1940 C 0.74482 0.39878 0.50197 0.0
N1941 N 0.70834 0.35862 0.47749 0.0
C1942 C 0.72246 0.40134 0.49229 0.0
C1943 C 0.74862 0.37578 0.49919 0.0
C1944 C 0.70424 0.38081 0.48001 0.0
C1945 C 0.72996 0.35572 0.48673 0.0
C1946 C 0.79254 0.48164 0.55439 0.0
C1947 C 0.7846 0.51865 0.57147 0.0
N1948 N 0.77676 0.50801 0.59075 0.0
C1949 C 0.78441 0.47108 0.57439 0.0
C1950 C 0.79262 0.50563 0.55291 0.0
C1951 C 0.77651 0.4847 0.59257 0.0
C1952 C 0.82675 0.43332 0.57231 0.0
N1953 N 0.80594 0.42085 0.55703 0.0
C1954 C 0.79758 0.38979 0.58191 0.0
C1955 C 0.79131 0.39958 0.56142 0.0
C1956 C 0.81904 0.40214 0.59795 0.0
C1957 C 0.83384 0.4241 0.59297 0.0
H1958 H 0.83773 0.45044 0.56845 0.0
H1959 H 0.77471 0.39034 0.54912 0.0
C1960 C 0.74271 0.48796 0.51503 0.0
N1961 N 0.74397 0.46626 0.52108 0.0
C1962 C 0.72937 0.50087 0.52754 0.0
C1963 C 0.71715 0.46775 0.55056 0.0
C1964 C 0.73107 0.45566 0.53789 0.0
C1965 C 0.71708 0.49101 0.54603 0.0
H1966 H 0.75352 0.49605 0.50191 0.0
H1967 H 0.733 0.43864 0.54269 0.0
C1968 C 0.83458 0.42479 0.51361 0.0
N1969 N 0.87046 0.40895 0.53758 0.0
C1970 C 0.85735 0.44119 0.52305 0.0
C1971 C 0.83011 0.40031 0.51639 0.0
C1972 C 0.87524 0.43282 0.53506 0.0
C1973 C 0.84846 0.39268 0.52858 0.0
C1974 C 0.78857 0.4712 0.46317 0.0
C1975 C 0.79351 0.46052 0.44112 0.0
C1976 C 0.7936 0.4965 0.46832 0.0
C1977 C 0.8035 0.47537 0.42461 0.0
C1978 C 0.80364 0.51071 0.45135 0.0
N1979 N 0.80834 0.49994 0.43003 0.0
C1980 C 0.75473 0.39546 0.44264 0.0
C1981 C 0.79278 0.38915 0.45527 0.0
C1982 C 0.75086 0.37821 0.42163 0.0
N1983 N 0.77549 0.40056 0.45884 0.0
C1984 C 0.78965 0.3718 0.43471 0.0
C1985 C 0.76864 0.36635 0.41743 0.0
H1986 H 0.74151 0.4052 0.44576 0.0
H1987 H 0.80943 0.39409 0.46793 0.0
C1988 C 0.84709 0.50887 0.51667 0.0
N1989 N 0.8377 0.48877 0.49939 0.0
C1990 C 0.87093 0.52309 0.51753 0.0
C1991 C 0.87436 0.49649 0.48182 0.0
C1992 C 0.85033 0.48294 0.4815 0.0
C1993 C 0.88528 0.51606 0.50083 0.0
H1994 H 0.83688 0.5127 0.531 0.0
H1995 H 0.84253 0.46644 0.4684 0.0
O1996 O 0.76298 0.41869 0.51388 0.0
O1997 O 0.79997 0.46846 0.53616 0.0
O1998 O 0.81661 0.43269 0.50213 0.0
O1999 O 0.77907 0.45701 0.47972 0.0
H2000 H 0.71927 0.41901 0.49401 0.0
H2001 H 0.76593 0.3735 0.50624 0.0
H2002 H 0.68687 0.38253 0.47238 0.0
H2003 H 0.7327 0.33785 0.48433 0.0
H2004 H 0.78441 0.53716 0.57044 0.0
H2005 H 0.78381 0.45245 0.57574 0.0
H2006 H 0.79823 0.51396 0.53729 0.0
H2007 H 0.77005 0.4767 0.60807 0.0
H2008 H 0.7858 0.37274 0.58516 0.0
H2009 H 0.85034 0.43424 0.60517 0.0
H2010 H 0.72936 0.51872 0.52349 0.0
H2011 H 0.7078 0.45973 0.56473 0.0
H2012 H 0.86114 0.46024 0.52151 0.0
H2013 H 0.81249 0.38741 0.50964 0.0
H2014 H 0.89289 0.44534 0.54252 0.0
H2015 H 0.84516 0.37383 0.531 0.0
H2016 H 0.78985 0.44102 0.43683 0.0
H2017 H 0.79028 0.50512 0.48545 0.0
H2018 H 0.80749 0.46735 0.40751 0.0
H2019 H 0.80779 0.53032 0.45519 0.0
H2020 H 0.73446 0.37454 0.40861 0.0
H2021 H 0.80412 0.36363 0.43181 0.0
H2022 H 0.87864 0.53823 0.53229 0.0
H2023 H 0.88485 0.49026 0.46879 0.0
Li2024 Li 0.61743 0.55116 0.31372 0.0
Li2025 Li 0.65157 0.57788 0.29495 0.0
Li2026 Li 0.6159 0.55131 0.26863 0.0
Li2027 Li 0.64487 0.53281 0.28779 0.0
C2028 C 0.60439 0.59346 0.28829 0.0
N2029 N 0.57786 0.62389 0.27399 0.0
C2030 C 0.61385 0.61108 0.27406 0.0
C2031 C 0.58148 0.59131 0.2953 0.0
C2032 C 0.60013 0.62629 0.26699 0.0
C2033 C 0.56835 0.60688 0.28788 0.0
C2034 C 0.66995 0.56557 0.34048 0.0
C2035 C 0.70844 0.57063 0.36531 0.0
N2036 N 0.70234 0.58522 0.38311 0.0
C2037 C 0.66404 0.58051 0.35908 0.0
C2038 C 0.6923 0.56047 0.34367 0.0
C2039 C 0.68066 0.59032 0.38046 0.0
C2040 C 0.59906 0.5278 0.3534 0.0
N2041 N 0.60227 0.54868 0.34354 0.0
C2042 C 0.58946 0.56775 0.3785 0.0
C2043 C 0.5973 0.56837 0.3555 0.0
C2044 C 0.58652 0.54663 0.38948 0.0
C2045 C 0.59106 0.52633 0.3763 0.0
H2046 H 0.60342 0.51246 0.34381 0.0
H2047 H 0.6003 0.58494 0.34762 0.0
C2048 C 0.68253 0.61686 0.27745 0.0
N2049 N 0.67477 0.60971 0.29835 0.0
C2050 C 0.69867 0.63981 0.27796 0.0
C2051 C 0.69783 0.64849 0.32135 0.0
C2052 C 0.68189 0.62514 0.32005 0.0
C2053 C 0.70652 0.656 0.30009 0.0
H2054 H 0.67571 0.60501 0.26013 0.0
H2055 H 0.67484 0.61962 0.33628 0.0
C2056 C 0.58803 0.50905 0.27118 0.0
N2057 N 0.54682 0.48387 0.23857 0.0
C2058 C 0.58901 0.49075 0.25278 0.0
C2059 C 0.56612 0.5145 0.27311 0.0
C2060 C 0.56796 0.47823 0.23644 0.0
C2061 C 0.54547 0.50157 0.25641 0.0
C2062 C 0.6723 0.55781 0.25658 0.0
C2063 C 0.67426 0.55485 0.23164 0.0
C2064 C 0.69311 0.56265 0.27387 0.0
C2065 C 0.69702 0.55657 0.22443 0.0
C2066 C 0.71554 0.56425 0.26595 0.0
N2067 N 0.71701 0.56118 0.24159 0.0
C2068 C 0.58016 0.5608 0.23095 0.0
C2069 C 0.60424 0.53586 0.21805 0.0
C2070 C 0.57093 0.56077 0.20649 0.0
N2071 N 0.597 0.54891 0.23631 0.0
C2072 C 0.59529 0.53508 0.19347 0.0
C2073 C 0.57871 0.54801 0.18727 0.0
H2074 H 0.57413 0.57076 0.24545 0.0
H2075 H 0.61755 0.52646 0.22259 0.0
C2076 C 0.66992 0.49983 0.30418 0.0
N2077 N 0.661 0.50774 0.28412 0.0
C2078 C 0.6835 0.48318 0.30175 0.0
C2079 C 0.67794 0.48262 0.25803 0.0
C2080 C 0.66431 0.49911 0.26127 0.0
C2081 C 0.688 0.47462 0.27845 0.0
H2082 H 0.66688 0.5068 0.32214 0.0
H2083 H 0.6567 0.50534 0.24555 0.0
O2084 O 0.61761 0.57859 0.29566 0.0
O2085 O 0.65367 0.55544 0.31958 0.0
O2086 O 0.60857 0.52205 0.28683 0.0
O2087 O 0.65007 0.55582 0.26395 0.0
H2088 H 0.63149 0.61289 0.26839 0.0
H2089 H 0.57388 0.57767 0.30623 0.0
H2090 H 0.60718 0.63998 0.25591 0.0
H2091 H 0.55057 0.60541 0.29311 0.0
H2092 H 0.7258 0.56686 0.36798 0.0
H2093 H 0.647 0.58488 0.35687 0.0
H2094 H 0.69717 0.54874 0.32966 0.0
H2095 H 0.67635 0.60205 0.39491 0.0
H2096 H 0.58596 0.5838 0.3877 0.0
H2097 H 0.58933 0.50973 0.38398 0.0
H2098 H 0.70436 0.64511 0.26102 0.0
H2099 H 0.70328 0.66054 0.33876 0.0
H2100 H 0.60592 0.48646 0.251 0.0
H2101 H 0.56517 0.52876 0.2872 0.0
H2102 H 0.56845 0.46409 0.22202 0.0
H2103 H 0.5284 0.50567 0.25757 0.0
H2104 H 0.65839 0.55124 0.21796 0.0
H2105 H 0.69197 0.56531 0.29317 0.0
H2106 H 0.69878 0.55426 0.20519 0.0
H2107 H 0.73178 0.56797 0.27916 0.0
H2108 H 0.55787 0.57068 0.20266 0.0
H2109 H 0.60197 0.52506 0.17942 0.0
H2110 H 0.69097 0.47761 0.31803 0.0
H2111 H 0.68055 0.4762 0.23969 0.0
Dy2112 Dy 0.06811 0.06737 0.05542 0.0
Dy2113 Dy 0.01411 0.0369 0.03 0.0
C2114 C 0.05669 0.05051 0.99788 0.0
O2115 O 0.05376 0.09623 0.04027 0.0
O2116 O 0.01297 0.0764 0.03205 0.0
O2117 O 0.10215 0.09376 0.05364 0.0
O2118 O 0.0968 0.07765 0.08641 0.0
O2119 O 0.015 0.03598 0.07026 0.0
O2120 O 0.04414 0.07194 0.08387 0.0
O2121 O 0.03178 1.00675 0.03571 0.0
O2122 O 0.0662 0.02883 0.06203 0.0
O2123 O 0.97566 0.02494 0.03108 0.0
O2124 O 0.99005 0.01287 0.99899 0.0
C2125 C 0.03123 0.09645 0.03356 0.0
O2126 O 0.07179 0.05113 0.01754 0.0
O2127 O 0.03421 0.05007 0.99984 0.0
C2128 C 0.13411 0.08092 0.07133 0.0
C2129 C 0.1649 0.05554 0.05249 0.0
C2130 C 0.16586 0.07866 0.04662 0.0
C2131 C 0.15055 0.09132 0.05605 0.0
C2132 C 0.13532 0.0591 0.07937 0.0
C2133 C 0.15059 0.04653 0.07 0.0
C2134 C 0.11262 0.08956 0.07394 0.0
C2135 C 0.02616 0.05404 0.08795 0.0
C2136 C 0.05116 1.0076 0.05124 0.0
C2137 C 0.95328 0.023 0.99331 0.0
C2138 C 0.91719 0.04452 0.97813 0.0
C2139 C 0.9419 0.05816 0.98266 0.0
C2140 C 0.95976 0.04739 0.98992 0.0
C2141 C 0.92923 1.00858 0.98619 0.0
C2142 C 0.91133 0.01917 0.97815 0.0
C2143 C 0.97061 0.01434 0.00828 0.0
H2144 H 0.17692 0.08604 0.03327 0.0
H2145 H 0.15003 0.10817 0.04968 0.0
H2146 H 0.1231 0.05066 0.09134 0.0
H2147 H 0.15005 0.02898 0.07527 0.0
H2148 H 0.94751 0.07763 0.98295 0.0
H2149 H 0.97839 0.05868 0.99495 0.0
H2150 H 0.92402 0.98957 0.98838 0.0
H2151 H 0.8927 1.00777 0.97374 0.0
Dy2152 Dy 0.31032 0.81262 0.27571 0.0
Dy2153 Dy 0.27318 0.79925 0.31505 0.0
C2154 C 0.2985 0.85354 0.31028 0.0
O2155 O 0.33327 0.81359 0.3114 0.0
O2156 O 0.30534 0.78653 0.328 0.0
O2157 O 0.3436 0.83637 0.26811 0.0
O2158 O 0.32208 0.80596 0.24068 0.0
O2159 O 0.26541 0.76657 0.28645 0.0
O2160 O 0.30285 0.77277 0.2744 0.0
O2161 O 0.25226 0.81348 0.28671 0.0
O2162 O 0.2732 0.80802 0.25463 0.0
O2163 O 0.23909 0.77837 0.32408 0.0
O2164 O 0.26459 0.80576 0.35157 0.0
C2165 C 0.32812 0.79819 0.32697 0.0
O2166 O 0.2997 0.8458 0.28755 0.0
O2167 O 0.2943 0.83844 0.32603 0.0
C2168 C 0.33842 0.84279 0.22741 0.0
C2169 C 0.32909 0.86916 0.19029 0.0
C2170 C 0.32029 0.87251 0.21259 0.0
C2171 C 0.32484 0.85937 0.23097 0.0
C2172 C 0.34818 0.84015 0.20563 0.0
C2173 C 0.34361 0.85335 0.18715 0.0
C2174 C 0.33964 0.82633 0.24514 0.0
C2175 C 0.28126 0.75849 0.27541 0.0
C2176 C 0.2539 0.81196 0.26314 0.0
C2177 C 0.24275 0.77044 0.36441 0.0
C2178 C 0.24425 0.7413 0.401 0.0
C2179 C 0.25607 0.73836 0.38053 0.0
C2180 C 0.25539 0.7529 0.3624 0.0
C2181 C 0.23005 0.77272 0.38418 0.0
C2182 C 0.23077 0.75822 0.40238 0.0
C2183 C 0.24465 0.78776 0.34718 0.0
H2184 H 0.3093 0.88479 0.21557 0.0
H2185 H 0.31697 0.86151 0.2476 0.0
H2186 H 0.35844 0.8272 0.20254 0.0
H2187 H 0.35041 0.85029 0.17 0.0
H2188 H 0.26685 0.7257 0.37915 0.0
H2189 H 0.26546 0.75109 0.34727 0.0
H2190 H 0.22028 0.78625 0.38595 0.0
H2191 H 0.22133 0.76068 0.41786 0.0
Dy2192 Dy 0.51528 0.04546 0.54418 0.0
Dy2193 Dy 0.57164 0.0541 0.533 0.0
C2194 C 0.53068 0.05761 0.49301 0.0
O2195 O 0.51941 1.00724 0.53914 0.0
O2196 O 0.55214 0.01438 0.51801 0.0
O2197 O 0.47644 0.03094 0.53274 0.0
O2198 O 0.49035 0.05263 0.56848 0.0
O2199 O 0.56817 0.03447 0.56476 0.0
O2200 O 0.53793 0.04749 0.57996 0.0
O2201 O 0.57067 0.09103 0.55202 0.0
O2202 O 0.52965 0.0859 0.54388 0.0
O2203 O 0.61019 0.0665 0.54608 0.0
O2204 O 0.59708 0.05026 0.50807 0.0
C2205 C 0.53408 0.99907 0.52586 0.0
O2206 O 0.51497 0.04327 0.50394 0.0
O2207 O 0.55313 0.06805 0.50337 0.0
C2208 C 0.45428 0.05717 0.54819 0.0
C2209 C 0.42327 0.08717 0.54275 0.0
C2210 C 0.43823 0.08399 0.52501 0.0
C2211 C 0.45371 0.06925 0.52778 0.0
C2212 C 0.43919 0.06009 0.56573 0.0
C2213 C 0.42389 0.07496 0.56309 0.0
C2214 C 0.47121 0.04242 0.55213 0.0
C2215 C 0.55586 0.03777 0.58256 0.0
C2216 C 0.55203 0.10027 0.55077 0.0
C2217 C 0.63096 0.04093 0.52744 0.0
C2218 C 0.65998 0.00887 0.53086 0.0
C2219 C 0.63839 1.00493 0.54131 0.0
C2220 C 0.62397 0.02075 0.53953 0.0
C2221 C 0.65238 0.04491 0.51689 0.0
C2222 C 0.66675 0.029 0.51854 0.0
C2223 C 0.61574 0.05755 0.52548 0.0
H2224 H 0.43837 0.09332 0.50927 0.0
H2225 H 0.46543 0.06754 0.51413 0.0
H2226 H 0.4394 0.05102 0.58165 0.0
H2227 H 0.41241 0.07679 0.57694 0.0
H2228 H 0.63247 0.98945 0.55064 0.0
H2229 H 0.60734 0.01721 0.54757 0.0
H2230 H 0.65801 0.06033 0.50742 0.0
H2231 H 0.68338 0.03269 0.5105 0.0
Dy2232 Dy 0.31737 0.29329 0.78962 0.0
Dy2233 Dy 0.26479 0.3077 0.78395 0.0
C2234 C 0.31502 0.34505 0.77835 0.0
O2235 O 0.3143 0.31121 0.82727 0.0
O2236 O 0.27283 0.30315 0.82293 0.0
O2237 O 0.35615 0.30523 0.80181 0.0
O2238 O 0.3391 0.26869 0.78243 0.0
O2239 O 0.25509 0.26758 0.7828 0.0
O2240 O 0.29059 0.26212 0.80112 0.0
O2241 O 0.27323 0.30268 0.74523 0.0
O2242 O 0.30008 0.27993 0.75059 0.0
O2243 O 0.22658 0.30027 0.76992 0.0
O2244 O 0.24501 0.33284 0.79578 0.0
C2245 C 0.29408 0.30962 0.83685 0.0
O2246 O 0.32306 0.32647 0.77196 0.0
O2247 O 0.29516 0.34238 0.78849 0.0
C2248 C 0.37892 0.28847 0.77523 0.0
C2249 C 0.4169 0.29514 0.74591 0.0
C2250 C 0.39731 0.30491 0.74113 0.0
C2251 C 0.37854 0.30161 0.75561 0.0
C2252 C 0.39821 0.27851 0.77993 0.0
C2253 C 0.41694 0.28175 0.76546 0.0
C2254 C 0.3596 0.28532 0.79109 0.0
C2255 C 0.26692 0.25449 0.79392 0.0
C2256 C 0.28611 0.28883 0.7363 0.0
C2257 C 0.20396 0.31402 0.79907 0.0
C2258 C 0.16645 0.30685 0.8289 0.0
C2259 C 0.18149 0.29131 0.82761 0.0
C2260 C 0.20012 0.29494 0.81296 0.0
C2261 C 0.18891 0.32938 0.80013 0.0
C2262 C 0.17041 0.32588 0.81486 0.0
C2263 C 0.22413 0.31881 0.78428 0.0
H2264 H 0.39665 0.31553 0.72646 0.0
H2265 H 0.36382 0.30948 0.75162 0.0
H2266 H 0.39883 0.26821 0.79488 0.0
H2267 H 0.43136 0.27353 0.76952 0.0
H2268 H 0.17921 0.27665 0.83835 0.0
H2269 H 0.21169 0.28301 0.81269 0.0
H2270 H 0.19158 0.34427 0.78966 0.0
H2271 H 0.15907 0.33802 0.81511 0.0
Dy2272 Dy 0.04907 0.02627 0.53994 0.0
Dy2273 Dy 0.03327 0.07836 0.54658 0.0
C2274 C 0.99623 0.02707 0.55144 0.0
O2275 O 0.03149 0.02885 0.50244 0.0
O2276 O 0.03706 0.07011 0.5072 0.0
O2277 O 0.03884 0.9876 0.52662 0.0
O2278 O 0.07464 1.00572 0.54692 0.0
O2279 O 0.0735 0.08875 0.5484 0.0
O2280 O 0.07987 0.05398 0.52894 0.0
O2281 O 0.03815 0.07016 0.58511 0.0
O2282 O 0.06023 0.04249 0.57959 0.0
O2283 O 0.04051 0.11669 0.56071 0.0
O2284 O 1.00785 0.09782 0.53546 0.0
C2285 C 0.03164 0.04883 0.4932 0.0
O2286 O 0.01469 0.01843 0.55606 0.0
O2287 O 0.99882 0.04794 0.54338 0.0
C2288 C 0.05588 0.96538 0.55287 0.0
C2289 C 0.04984 0.92746 0.58171 0.0
C2290 C 0.04376 0.94894 0.58942 0.0
C2291 C 0.04671 0.96766 0.57513 0.0
C2292 C 0.06193 0.94407 0.54507 0.0
C2293 C 0.05894 0.92533 0.55927 0.0
C2294 C 0.05886 0.98487 0.53751 0.0
C2295 C 0.08707 0.07757 0.53691 0.0
C2296 C 0.05142 0.05687 0.59388 0.0
C2297 C 0.02645 0.13872 0.53181 0.0
C2298 C 0.03308 0.17572 0.50179 0.0
C2299 C 0.04467 0.15725 0.49862 0.0
C2300 C 0.04135 0.13893 0.51343 0.0
C2301 C 0.01508 0.15719 0.53523 0.0
C2302 C 0.01835 0.17547 0.52044 0.0
C2303 C 0.02181 0.11887 0.54676 0.0
H2304 H 0.03698 0.95147 0.60665 0.0
H2305 H 0.04184 0.98394 0.58147 0.0
H2306 H 0.06887 0.94186 0.52787 0.0
H2307 H 0.06345 0.90899 0.55245 0.0
H2308 H 0.05591 0.1566 0.48433 0.0
H2309 H 0.05019 0.12476 0.51034 0.0
H2310 H 1.00348 0.15738 0.54927 0.0
H2311 H 1.00941 0.18951 0.52374 0.0
Dy2312 Dy 0.29862 0.83236 0.78849 0.0
Dy2313 Dy 0.28718 0.7677 0.78732 0.0
C2314 C 0.28951 0.80299 0.83403 0.0
O2315 O 0.33596 0.82526 0.79384 0.0
O2316 O 0.3279 0.78435 0.7997 0.0
O2317 O 0.29521 0.86136 0.81488 0.0
O2318 O 0.30954 0.86956 0.78154 0.0
O2319 O 0.29521 0.79544 0.76511 0.0
O2320 O 0.30361 0.82654 0.74843 0.0
O2321 O 0.24961 0.77163 0.77688 0.0
O2322 O 0.25754 0.81386 0.77865 0.0
O2323 O 0.28486 0.73729 0.75931 0.0
O2324 O 0.28157 0.73204 0.79718 0.0
C2325 C 0.34327 0.80611 0.79902 0.0
O2326 O 0.30541 0.81817 0.82376 0.0
O2327 O 0.27833 0.78071 0.82307 0.0
C2328 C 0.2861 0.89373 0.79835 0.0
C2329 C 0.25348 0.92225 0.79657 0.0
C2330 C 0.274 0.92881 0.8148 0.0
C2331 C 0.29014 0.91469 0.81564 0.0
C2332 C 0.26585 0.88721 0.77989 0.0
C2333 C 0.24975 0.90147 0.7789 0.0
C2334 C 0.30204 0.87795 0.80118 0.0
C2335 C 0.30108 0.80352 0.74546 0.0
C2336 C 0.24228 0.79138 0.77515 0.0
C2337 C 0.3025 0.70833 0.77509 0.0
C2338 C 0.3352 0.67964 0.77432 0.0
C2339 C 0.32239 0.68244 0.75238 0.0
C2340 C 0.30614 0.69656 0.75279 0.0
C2341 C 0.31568 0.70588 0.79696 0.0
C2342 C 0.33178 0.69171 0.79657 0.0
C2343 C 0.28466 0.72258 0.77552 0.0
H2344 H 0.27753 0.94485 0.82849 0.0
H2345 H 0.30557 0.91989 0.83012 0.0
H2346 H 0.26222 0.87086 0.76658 0.0
H2347 H 0.234 0.89584 0.76479 0.0
H2348 H 0.3245 0.67325 0.73495 0.0
H2349 H 0.29622 0.69809 0.73566 0.0
H2350 H 0.31352 0.71479 0.81451 0.0
H2351 H 0.34163 0.69026 0.81375 0.0
Dy2352 Dy 0.53842 0.06465 0.01473 0.0
Dy2353 Dy 0.54146 0.03317 0.05878 0.0
C2354 C 0.54761 0.01175 1.00505 0.0
O2355 O 0.50145 0.05439 0.0251 0.0
O2356 O 0.50406 0.01911 0.03759 0.0
O2357 O 0.51934 0.06863 0.98072 0.0
O2358 O 0.55253 0.09625 0.99787 0.0
O2359 O 0.52791 0.0642 0.07433 0.0
O2360 O 0.54277 0.09128 0.04903 0.0
O2361 O 0.57911 0.05753 0.06119 0.0
O2362 O 0.57701 0.06457 0.02149 0.0
O2363 O 0.55128 0.03047 0.09667 0.0
O2364 O 0.53319 0.99797 0.07043 0.0
C2365 C 0.49102 0.03262 0.02948 0.0
O2366 O 0.53606 0.02661 0.99671 0.0
O2367 O 0.55572 0.0144 0.02852 0.0
C2368 C 0.54712 0.08529 0.95552 0.0
C2369 C 0.57105 0.0817 0.9146 0.0
C2370 C 0.56649 0.0628 0.92863 0.0
C2371 C 0.55473 0.06464 0.94897 0.0
C2372 C 0.55122 0.10406 0.94142 0.0
C2373 C 0.56318 0.1023 0.92103 0.0
C2374 C 0.53663 0.08766 0.97809 0.0
C2375 C 0.53384 0.08657 0.06926 0.0
C2376 C 0.58965 0.06486 0.04262 0.0
C2377 C 0.52054 1.00106 0.10895 0.0
C2378 C 0.48629 0.9988 0.14129 0.0
C2379 C 0.47998 1.00071 0.1167 0.0
C2380 C 0.497 1.00192 0.10067 0.0
C2381 C 0.52645 0.99757 0.13303 0.0
C2382 C 0.50936 0.99635 0.14914 0.0
C2383 C 0.53954 1.00737 0.09352 0.0
H2384 H 0.57276 0.04694 0.9244 0.0
H2385 H 0.55208 0.05016 0.95994 0.0
H2386 H 0.54561 0.1202 0.94644 0.0
H2387 H 0.56644 0.11707 0.91041 0.0
H2388 H 0.46226 1.00244 0.11018 0.0
H2389 H 0.49216 1.00483 0.08216 0.0
H2390 H 0.54462 0.99712 0.13971 0.0
H2391 H 0.51474 0.99513 0.1681 0.0
Dy2392 Dy 0.2727 0.26899 0.27436 0.0
Dy2393 Dy 0.30332 0.32356 0.2998 0.0
C2394 C 0.29511 0.27998 0.33186 0.0
O2395 O 0.24335 0.28789 0.2795 0.0
O2396 O 0.26494 0.32102 0.30773 0.0
O2397 O 0.24194 0.23743 0.27292 0.0
O2398 O 0.26597 0.23818 0.24571 0.0
O2399 O 0.28787 0.32843 0.26241 0.0
O2400 O 0.27913 0.28924 0.24285 0.0
O2401 O 0.33131 0.3089 0.2826 0.0
O2402 O 0.31225 0.26792 0.27657 0.0
O2403 O 0.32724 0.35899 0.29776 0.0
O2404 O 0.31633 0.35047 0.33235 0.0
C2405 C 0.24388 0.30648 0.29614 0.0
O2406 O 0.27848 0.26597 0.31422 0.0
O2407 O 0.30942 0.30085 0.32846 0.0
C2408 C 0.25289 0.20174 0.26101 0.0
C2409 C 0.27486 0.16627 0.2731 0.0
C2410 C 0.2666 0.17963 0.2913 0.0
C2411 C 0.25578 0.19737 0.28533 0.0
C2412 C 0.25866 0.18647 0.24248 0.0
C2413 C 0.26972 0.1689 0.2485 0.0
C2414 C 0.24884 0.22469 0.25563 0.0
C2415 C 0.283 0.31254 0.24214 0.0
C2416 C 0.33191 0.28629 0.27673 0.0
C2417 C 0.31907 0.38972 0.32372 0.0
C2418 C 0.30242 0.43088 0.32253 0.0
C2419 C 0.28662 0.40867 0.3258 0.0
C2420 C 0.29485 0.38824 0.32629 0.0
C2421 C 0.33523 0.41208 0.32165 0.0
C2422 C 0.32696 0.43259 0.32104 0.0
C2423 C 0.32662 0.36751 0.32038 0.0
H2424 H 0.27048 0.17795 0.31039 0.0
H2425 H 0.25151 0.20887 0.30004 0.0
H2426 H 0.25653 0.18952 0.22364 0.0
H2427 H 0.27579 0.15856 0.23418 0.0
H2428 H 0.26753 0.40667 0.32655 0.0
H2429 H 0.28199 0.37106 0.3276 0.0
H2430 H 0.35395 0.41344 0.31951 0.0
H2431 H 0.33951 0.44956 0.31863 0.0
Dy2432 Dy 0.54918 0.52003 0.02971 0.0
Dy2433 Dy 0.53391 0.57202 0.03702 0.0
C2434 C 0.49559 0.52111 0.03958 0.0
O2435 O 0.54554 0.52967 0.99164 0.0
O2436 O 0.52115 0.5548 0.99778 0.0
O2437 O 0.54193 0.48188 0.0149 0.0
O2438 O 0.57431 0.50022 0.04081 0.0
O2439 O 0.56804 0.57938 0.02049 0.0
O2440 O 0.58378 0.5505 0.03462 0.0
O2441 O 0.55149 0.56881 0.07435 0.0
O2442 O 0.5443 0.52739 0.06884 0.0
O2443 O 0.54449 0.61065 0.05046 0.0
O2444 O 0.50869 0.593 0.02995 0.0
C2445 C 0.53107 0.54193 0.98307 0.0
O2446 O 0.50889 0.51005 0.02747 0.0
O2447 O 0.50312 0.54455 0.04822 0.0
C2448 C 0.55518 0.45926 0.04382 0.0
C2449 C 0.54744 0.42223 0.07379 0.0
C2450 C 0.53116 0.43634 0.07124 0.0
C2451 C 0.53507 0.45475 0.05655 0.0
C2452 C 0.57131 0.44512 0.04614 0.0
C2453 C 0.56753 0.42686 0.06096 0.0
C2454 C 0.56027 0.47935 0.02915 0.0
C2455 C 0.58658 0.57113 0.02607 0.0
C2456 C 0.55041 0.54847 0.08327 0.0
C2457 C 0.5281 0.63319 0.02396 0.0
C2458 C 0.53487 0.67119 0.99515 0.0
C2459 C 0.5471 0.65323 0.99197 0.0
C2460 C 0.54371 0.63444 0.00617 0.0
C2461 C 0.51574 0.65087 0.02711 0.0
C2462 C 0.51904 0.66962 0.01289 0.0
C2463 C 0.5247 0.6137 0.03936 0.0
H2464 H 0.51567 0.43352 0.08104 0.0
H2465 H 0.52256 0.46566 0.05537 0.0
H2466 H 0.58701 0.44834 0.03664 0.0
H2467 H 0.5803 0.41624 0.06223 0.0
H2468 H 0.55964 0.65388 0.97878 0.0
H2469 H 0.55342 0.62095 1.00336 0.0
H2470 H 0.5035 0.65019 0.04063 0.0
H2471 H 0.50894 0.68274 0.01565 0.0
Dy2472 Dy 0.79192 0.32019 0.27341 0.0
Dy2473 Dy 0.78262 0.26736 0.29326 0.0
C2474 C 0.7777 0.31379 0.32644 0.0
O2475 O 0.82895 0.32088 0.29313 0.0
O2476 O 0.82287 0.2798 0.29136 0.0
O2477 O 0.80709 0.35922 0.2808 0.0
O2478 O 0.78558 0.34189 0.24559 0.0
O2479 O 0.78137 0.26059 0.25299 0.0
O2480 O 0.80518 0.29714 0.24609 0.0
O2481 O 0.7448 0.27221 0.28732 0.0
O2482 O 0.75207 0.29993 0.26069 0.0
O2483 O 0.76667 0.22829 0.28761 0.0
O2484 O 0.79084 0.2465 0.32098 0.0
C2485 C 0.83768 0.30212 0.29501 0.0
O2486 O 0.77441 0.32336 0.30672 0.0
O2487 O 0.78588 0.29477 0.32612 0.0
C2488 C 0.78001 0.37913 0.26332 0.0
C2489 C 0.74959 0.41015 0.26783 0.0
C2490 C 0.75807 0.40098 0.28827 0.0
C2491 C 0.77297 0.38561 0.28603 0.0
C2492 C 0.77171 0.38831 0.24291 0.0
C2493 C 0.75665 0.40359 0.2451 0.0
C2494 C 0.79528 0.36232 0.26063 0.0
C2495 C 0.79621 0.27346 0.24015 0.0
C2496 C 0.73672 0.28449 0.27139 0.0
C2497 C 0.79453 0.20888 0.30368 0.0
C2498 C 0.82521 0.17841 0.29888 0.0
C2499 C 0.82702 0.19763 0.28523 0.0
C2500 C 0.81193 0.21276 0.28771 0.0
C2501 C 0.79244 0.18968 0.31717 0.0
C2502 C 0.80763 0.17458 0.31482 0.0
C2503 C 0.77963 0.22569 0.30725 0.0
H2504 H 0.75342 0.40585 0.30615 0.0
H2505 H 0.77895 0.37878 0.30215 0.0
H2506 H 0.7767 0.38346 0.22516 0.0
H2507 H 0.75024 0.40994 0.22885 0.0
H2508 H 0.84006 0.20098 0.27253 0.0
H2509 H 0.814 0.22768 0.27732 0.0
H2510 H 0.77932 0.18659 0.32982 0.0
H2511 H 0.80593 0.16026 0.32593 0.0
Dy2512 Dy 0.04266 0.5679 0.51222 0.0
Dy2513 Dy 0.03408 0.53115 0.55204 0.0
C2514 C 0.04406 0.5131 0.4986 0.0
O2515 O 1.00331 0.54713 0.50441 0.0
O2516 O 0.99885 0.53879 0.54297 0.0
O2517 O 0.03651 0.57495 0.47528 0.0
O2518 O 0.05883 0.60369 0.50376 0.0
O2519 O 0.03872 0.56852 0.57341 0.0
O2520 O 0.02815 0.58743 0.54185 0.0
O2521 O 0.07331 0.53916 0.54868 0.0
O2522 O 0.07723 0.57673 0.53805 0.0
O2523 O 0.04373 0.52133 0.58717 0.0
O2524 O 0.01426 0.4967 0.56086 0.0
C2525 C 0.98954 0.54109 0.5212 0.0
O2526 O 0.05521 0.53592 0.49728 0.0
O2527 O 0.03006 0.50796 0.51547 0.0
C2528 C 0.07029 0.60235 0.46474 0.0
C2529 C 0.10485 0.61076 0.43258 0.0
C2530 C 0.10328 0.59206 0.44685 0.0
C2531 C 0.08619 0.58796 0.46286 0.0
C2532 C 0.07222 0.6215 0.45125 0.0
C2533 C 0.08945 0.62574 0.43528 0.0
C2534 C 0.05139 0.59693 0.48036 0.0
C2535 C 0.03212 0.58674 0.56546 0.0
C2536 C 0.08676 0.56095 0.54713 0.0
C2537 C 1.00877 0.50123 0.6021 0.0
C2538 C 0.98202 0.50765 0.64027 0.0
C2539 C 0.97489 0.51263 0.61701 0.0
C2540 C 0.98821 0.50954 0.59811 0.0
C2541 C 0.01525 0.49505 0.62491 0.0
C2542 C 1.0019 0.49818 0.64391 0.0
C2543 C 0.02496 0.50202 0.58354 0.0
H2544 H 0.11454 0.57992 0.44494 0.0
H2545 H 0.08494 0.57314 0.47331 0.0
H2546 H 0.06016 0.63288 0.45274 0.0
H2547 H 0.09043 0.64046 0.42476 0.0
H2548 H 0.95947 0.51966 0.61365 0.0
H2549 H 0.98298 0.51456 0.58065 0.0
H2550 H 0.03122 0.48886 0.62832 0.0
H2551 H 1.00789 0.49441 0.66176 0.0
Dy2552 Dy 0.81715 0.79102 0.29254 0.0
Dy2553 Dy 0.76548 0.80615 0.28625 0.0
C2554 C 0.81665 0.84506 0.28517 0.0
O2555 O 0.80745 0.79419 0.33079 0.0
O2556 O 0.78154 0.81787 0.32578 0.0
O2557 O 0.85479 0.79751 0.30805 0.0
O2558 O 0.83704 0.76609 0.28045 0.0
O2559 O 0.75771 0.77158 0.30186 0.0
O2560 O 0.78668 0.75643 0.28655 0.0
O2561 O 0.76904 0.7884 0.24883 0.0
O2562 O 0.81052 0.79713 0.25376 0.0
O2563 O 0.72709 0.79592 0.27243 0.0
O2564 O 0.74458 0.8315 0.29389 0.0
C2565 C 0.79484 0.8082 0.33992 0.0
O2566 O 0.82738 0.83139 0.29666 0.0
O2567 O 0.79335 0.83749 0.27612 0.0
C2568 C 0.87847 0.78505 0.27942 0.0
C2569 C 0.91728 0.79385 0.25136 0.0
C2570 C 0.90457 0.81121 0.25592 0.0
C2571 C 0.88532 0.80681 0.2697 0.0
C2572 C 0.89108 0.76776 0.27502 0.0
C2573 C 0.9102 0.77205 0.26113 0.0
C2574 C 0.8576 0.77956 0.29313 0.0
C2575 C 0.76615 0.75322 0.29552 0.0
C2576 C 0.78943 0.79053 0.23952 0.0
C2577 C 0.70413 0.81207 0.29968 0.0
C2578 C 0.66626 0.80631 0.32903 0.0
C2579 C 0.67498 0.78658 0.32121 0.0
C2580 C 0.69376 0.78944 0.30682 0.0
C2581 C 0.69546 0.83177 0.30746 0.0
C2582 C 0.67683 0.82897 0.32203 0.0
C2583 C 0.72396 0.81549 0.28432 0.0
H2584 H 0.90958 0.82832 0.249 0.0
H2585 H 0.8757 0.82035 0.27265 0.0
H2586 H 0.88591 0.75072 0.28208 0.0
H2587 H 0.91911 0.75801 0.25768 0.0
H2588 H 0.6675 0.76896 0.3265 0.0
H2589 H 0.70016 0.77392 0.30136 0.0
H2590 H 0.70311 0.8494 0.30223 0.0
H2591 H 0.67044 0.8445 0.32752 0.0
Dy2592 Dy 0.81428 0.3123 0.77306 0.0
Dy2593 Dy 0.77778 0.30651 0.81367 0.0
C2594 C 0.8101 0.3571 0.80785 0.0
O2595 O 0.83779 0.31167 0.80777 0.0
O2596 O 0.80907 0.29481 0.83103 0.0
O2597 O 0.84886 0.33144 0.76388 0.0
O2598 O 0.82411 0.30153 0.73797 0.0
O2599 O 0.76543 0.27313 0.7854 0.0
O2600 O 0.80279 0.27316 0.77613 0.0
O2601 O 0.75821 0.31939 0.78317 0.0
O2602 O 0.77784 0.30945 0.75143 0.0
O2603 O 0.75305 0.28417 0.83359 0.0
O2604 O 0.75865 0.32318 0.83865 0.0
C2605 C 0.83181 0.30121 0.82685 0.0
O2606 O 0.80838 0.34812 0.7848 0.0
O2607 O 0.80562 0.34261 0.8241 0.0
C2608 C 0.84523 0.33552 0.72253 0.0
C2609 C 0.84178 0.36153 0.68368 0.0
C2610 C 0.8329 0.36756 0.70537 0.0
C2611 C 0.8345 0.35457 0.72459 0.0
C2612 C 0.85519 0.33017 0.70142 0.0
C2613 C 0.85354 0.34319 0.68206 0.0
C2614 C 0.84374 0.31996 0.7414 0.0
C2615 C 0.7801 0.26158 0.77667 0.0
C2616 C 0.75944 0.31578 0.75955 0.0
C2617 C 0.75223 0.30326 0.87265 0.0
C2618 C 0.75762 0.29456 0.92108 0.0
C2619 C 0.77816 0.30205 0.90937 0.0
C2620 C 0.77546 0.30636 0.88527 0.0
C2621 C 0.73192 0.29772 0.8848 0.0
C2622 C 0.7346 0.2935 0.90896 0.0
C2623 C 0.74888 0.30277 0.84622 0.0
H2624 H 0.82401 0.38181 0.70715 0.0
H2625 H 0.82658 0.35884 0.74075 0.0
H2626 H 0.86336 0.31538 0.69957 0.0
H2627 H 0.86034 0.33811 0.66541 0.0
H2628 H 0.79608 0.30275 0.91807 0.0
H2629 H 0.79131 0.31061 0.87602 0.0
H2630 H 0.71388 0.29536 0.87521 0.0
H2631 H 0.71852 0.28803 0.91768 0.0
Dy2632 Dy 0.77793 0.77313 0.77617 0.0
Dy2633 Dy 0.80882 0.82712 0.80237 0.0
C2634 C 0.79761 0.78344 0.83399 0.0
O2635 O 0.74961 0.7881 0.79217 0.0
O2636 O 0.76949 0.82893 0.79932 0.0
O2637 O 0.75179 0.73879 0.7775 0.0
O2638 O 0.76732 0.74497 0.74444 0.0
O2639 O 0.80512 0.82934 0.76226 0.0
O2640 O 0.77205 0.79651 0.74801 0.0
O2641 O 0.83772 0.80745 0.79818 0.0
O2642 O 0.81634 0.77629 0.76785 0.0
O2643 O 0.83984 0.85854 0.80435 0.0
O2644 O 0.81547 0.85775 0.83124 0.0
C2645 C 0.74941 0.8108 0.79829 0.0
O2646 O 0.79336 0.76785 0.81356 0.0
O2647 O 0.80112 0.8067 0.83347 0.0
C2648 C 0.7638 0.70692 0.75744 0.0
C2649 C 0.78937 0.67493 0.77202 0.0
C2650 C 0.76734 0.67471 0.78054 0.0
C2651 C 0.75457 0.6906 0.77323 0.0
C2652 C 0.78424 0.7049 0.74668 0.0
C2653 C 0.79693 0.68905 0.75397 0.0
C2654 C 0.7555 0.72878 0.75653 0.0
C2655 C 0.7879 0.81647 0.74453 0.0
C2656 C 0.83735 0.78987 0.78043 0.0
C2657 C 0.83064 0.89479 0.81773 0.0
C2658 C 0.816 0.93611 0.81017 0.0
C2659 C 0.81713 0.91939 0.7901 0.0
C2660 C 0.82424 0.8988 0.79385 0.0
C2661 C 0.83116 0.9123 0.83772 0.0
C2662 C 0.82383 0.93283 0.83398 0.0
C2663 C 0.83326 0.87108 0.82204 0.0
H2664 H 0.76109 0.66383 0.79438 0.0
H2665 H 0.73871 0.69165 0.78158 0.0
H2666 H 0.79166 0.71692 0.73415 0.0
H2667 H 0.81361 0.68905 0.74673 0.0
H2668 H 0.81088 0.92131 0.77158 0.0
H2669 H 0.82341 0.8854 0.77811 0.0
H2670 H 0.83595 0.90941 0.85626 0.0
H2671 H 0.82322 0.94557 0.84971 0.0
Dy2672 Dy 0.57174 0.56473 0.54567 0.0
Dy2673 Dy 0.51818 0.53335 0.52069 0.0
C2674 C 0.55985 0.54576 0.48814 0.0
O2675 O 0.55301 0.59409 0.54092 0.0
O2676 O 0.51963 0.57175 0.5135 0.0
O2677 O 0.60971 0.57807 0.543 0.0
O2678 O 0.59622 0.58938 0.57604 0.0
O2679 O 0.5142 0.54928 0.55856 0.0
O2680 O 0.55231 0.55197 0.57635 0.0
O2681 O 0.533 0.50514 0.53666 0.0
O2682 O 0.57367 0.52559 0.54556 0.0
O2683 O 0.48396 0.50721 0.52236 0.0
O2684 O 0.49032 0.52193 0.48899 0.0
C2685 C 0.53398 0.59308 0.52491 0.0
O2686 O 0.57029 0.56464 0.50515 0.0
O2687 O 0.54251 0.52779 0.49301 0.0
C2688 C 0.6342 0.58121 0.57959 0.0
C2689 C 0.66718 0.55444 0.58801 0.0
C2690 C 0.67464 0.57697 0.57966 0.0
C2691 C 0.65821 0.59027 0.57551 0.0
C2692 C 0.62763 0.56056 0.59106 0.0
C2693 C 0.64416 0.54739 0.59553 0.0
C2694 C 0.61536 0.58879 0.56574 0.0
C2695 C 0.52962 0.55064 0.57824 0.0
C2696 C 0.55557 0.50536 0.54401 0.0
C2697 C 0.45181 0.51781 0.50162 0.0
C2698 C 0.41718 0.54127 0.51412 0.0
C2699 C 0.41794 0.51985 0.52323 0.0
C2700 C 0.43509 0.50814 0.51694 0.0
C2701 C 0.44926 0.5377 0.49047 0.0
C2702 C 0.43205 0.5493 0.49666 0.0
C2703 C 0.47411 0.51017 0.50118 0.0
H2704 H 0.69217 0.58305 0.5736 0.0
H2705 H 0.66348 0.60611 0.56652 0.0
H2706 H 0.60907 0.55324 0.59429 0.0
H2707 H 0.63809 0.53047 0.60261 0.0
H2708 H 0.40662 0.51322 0.53667 0.0
H2709 H 0.43657 0.4927 0.52559 0.0
H2710 H 0.46163 0.54543 0.47831 0.0
H2711 H 0.43136 0.56542 0.48887 0.0
Dy2712 Dy 0.01632 0.54672 0.05058 0.0
Dy2713 Dy 0.07369 0.55675 0.04336 0.0
C2714 C 0.03497 0.55912 1.00102 0.0
O2715 O 0.02091 0.50875 0.04581 0.0
O2716 O 0.05532 0.517 0.0272 0.0
O2717 O 0.97824 0.53488 0.03484 0.0
O2718 O 0.98876 0.54883 0.07342 0.0
O2719 O 0.06844 0.53674 0.07479 0.0
O2720 O 0.03712 0.5495 0.0876 0.0
O2721 O 0.07125 0.59337 0.06165 0.0
O2722 O 0.03025 0.58741 0.05154 0.0
O2723 O 0.11178 0.56935 0.0584 0.0
O2724 O 0.10062 0.55453 0.01976 0.0
C2725 C 0.03657 0.50119 0.03353 0.0
O2726 O 0.01909 0.5437 0.01076 0.0
O2727 O 0.05641 0.57086 0.01313 0.0
C2728 C 0.95526 0.55884 0.05291 0.0
C2729 C 0.92488 0.58961 0.04824 0.0
C2730 C 0.92193 0.56923 0.03032 0.0
C2731 C 0.93687 0.55396 0.0327 0.0
C2732 C 0.95819 0.57922 0.07086 0.0
C2733 C 0.94315 0.59438 0.06856 0.0
C2734 C 0.97122 0.5427 0.05497 0.0
C2735 C 0.05499 0.53994 0.09159 0.0
C2736 C 0.05233 0.60215 0.05936 0.0
C2737 C 0.1345 0.54563 0.03968 0.0
C2738 C 0.16404 0.51395 0.04108 0.0
C2739 C 0.14681 0.51349 0.05719 0.0
C2740 C 0.13207 0.52907 0.0564 0.0
C2741 C 0.15173 0.54623 0.02368 0.0
C2742 C 0.16633 0.5305 0.02431 0.0
C2743 C 0.1185 0.56154 0.03799 0.0
H2744 H 0.90783 0.56487 0.0146 0.0
H2745 H 0.93405 0.53832 0.01867 0.0
H2746 H 0.97218 0.58358 0.08668 0.0
H2747 H 0.94606 0.61006 0.08255 0.0
H2748 H 0.14441 0.50075 0.0701 0.0
H2749 H 0.11863 0.52801 0.06869 0.0
H2750 H 0.15378 0.55876 0.01056 0.0
H2751 H 0.17957 0.53143 0.01182 0.0
C2752 C 1.00027 0.14346 0.01065 0.0
C2753 C 0.02003 0.16474 0.0122 0.0
H2754 H 0.98791 0.10584 0.01583 0.0
C2755 C 0.04317 0.16305 0.02162 0.0
H2756 H 0.9821 0.14339 1.00338 0.0
C2757 C 0.04648 0.14133 0.0287 0.0
C2758 C 0.02687 0.12 0.02685 0.0
H2759 H 0.05901 0.17871 0.0238 0.0
H2760 H 0.06473 0.1413 0.0356 0.0
C2761 C 1.00362 0.12161 0.01777 0.0
C2762 C 0.19166 0.81699 0.23712 0.0
C2763 C 0.19459 0.82145 0.21307 0.0
H2764 H 0.20761 0.81068 0.27145 0.0
C2765 C 0.21748 0.8226 0.20572 0.0
H2766 H 0.17436 0.8153 0.24358 0.0
C2767 C 0.23659 0.81941 0.22177 0.0
C2768 C 0.23358 0.81519 0.24582 0.0
H2769 H 0.22086 0.82631 0.18762 0.0
H2770 H 0.25386 0.82056 0.21538 0.0
C2771 C 0.21081 0.8141 0.25321 0.0
C2772 C 0.50797 0.9292 0.52035 0.0
C2773 C 0.52577 0.92028 0.50996 0.0
H2774 H 0.49647 0.96029 0.53358 0.0
C2775 C 0.54624 0.9378 0.50486 0.0
H2776 H 0.49202 0.91663 0.52488 0.0
C2777 C 0.54872 0.96301 0.50976 0.0
C2778 C 0.53094 0.9719 0.52017 0.0
H2779 H 0.56031 0.93207 0.4966 0.0
H2780 H 0.56479 0.97559 0.50544 0.0
C2781 C 0.51057 0.95445 0.52547 0.0
C2782 C 0.48042 0.30543 0.72753 0.0
C2783 C 0.47598 0.30512 0.70209 0.0
H2784 H 0.46575 0.30312 0.76117 0.0
C2785 C 0.45193 0.30198 0.69124 0.0
H2786 H 0.49871 0.30827 0.73668 0.0
C2787 C 0.43286 0.2989 0.70535 0.0
C2788 C 0.43727 0.29893 0.73077 0.0
H2789 H 0.44769 0.30133 0.67168 0.0
H2790 H 0.41456 0.29596 0.69618 0.0
C2791 C 0.46141 0.30243 0.74162 0.0
C2792 C 0.06058 0.87482 0.61231 0.0
C2793 C 0.04061 0.86875 0.62512 0.0
H2794 H 0.07945 0.89814 0.58922 0.0
C2795 C 0.02381 0.88236 0.62373 0.0
H2796 H 0.07416 0.8651 0.61326 0.0
C2797 C 0.02679 0.90135 0.6098 0.0
C2798 C 0.04673 0.90736 0.59688 0.0
H2799 H 1.00803 0.87805 0.63306 0.0
H2800 H 0.01318 0.91103 0.6088 0.0
C2801 C 0.06361 0.89384 0.59845 0.0
C2802 C 0.40437 0.79357 0.81873 0.0
C2803 C 0.42203 0.81489 0.81553 0.0
H2804 H 0.36654 0.77404 0.81624 0.0
C2805 C 0.41314 0.83325 0.80665 0.0
H2806 H 0.40987 0.779 0.8259 0.0
C2807 C 0.38792 0.83051 0.80145 0.0
C2808 C 0.37038 0.8092 0.8047 0.0
H2809 H 0.42564 0.84984 0.80336 0.0
H2810 H 0.38221 0.84515 0.79468 0.0
C2811 C 0.37918 0.79076 0.81334 0.0
C2812 C 0.51808 0.12267 0.12464 0.0
C2813 C 0.52127 0.14589 0.11775 0.0
H2814 H 0.51926 0.08588 0.11497 0.0
C2815 C 0.52878 0.14927 0.09484 0.0
H2816 H 0.51219 0.11922 0.14202 0.0
C2817 C 0.53296 0.13018 0.07937 0.0
C2818 C 0.52963 0.10692 0.08615 0.0
H2819 H 0.53184 0.16689 0.08895 0.0
H2820 H 0.53876 0.13372 0.06197 0.0
C2821 C 0.52207 0.10346 0.10903 0.0
C2822 C 0.198 0.33513 0.32552 0.0
C2823 C 0.17499 0.31814 0.31643 0.0
H2824 H 0.23691 0.34511 0.32658 0.0
C2825 C 0.17523 0.29752 0.29991 0.0
H2826 H 0.19927 0.35157 0.33781 0.0
C2827 C 0.19719 0.294 0.2931 0.0
C2828 C 0.2201 0.31083 0.30252 0.0
H2829 H 0.15842 0.28359 0.29248 0.0
H2830 H 0.19616 0.2777 0.28065 0.0
C2831 C 0.21994 0.33152 0.31882 0.0
C2832 C 0.02086 0.07239 0.15527 0.0
C2833 C 1.00476 0.05109 0.16055 0.0
H2834 H 0.0402 0.09017 0.12851 0.0
C2835 C 0.9961 0.03092 0.14163 0.0
H2836 H 0.02778 0.08846 0.16908 0.0
C2837 C 1.0029 0.03209 0.11826 0.0
C2838 C 0.01886 0.05336 0.11295 0.0
H2839 H 0.98418 0.01396 0.14484 0.0
H2840 H 0.99577 0.01608 0.10438 0.0
C2841 C 0.02788 0.07347 0.13185 0.0
C2842 C 0.25342 0.6927 0.43776 0.0
C2843 C 0.26024 0.70606 0.46152 0.0
H2844 H 0.24275 0.6934 0.3998 0.0
C2845 C 0.26014 0.73047 0.46539 0.0
H2846 H 0.25336 0.67384 0.43433 0.0
C2847 C 0.25409 0.7416 0.44578 0.0
C2848 C 0.24805 0.72854 0.42188 0.0
H2849 H 0.26496 0.74106 0.4836 0.0
H2850 H 0.25496 0.76068 0.44925 0.0
C2851 C 0.24748 0.7039 0.41805 0.0
C2852 C 0.58757 0.01011 0.62844 0.0
C2853 C 0.58998 0.02675 0.64969 0.0
H2854 H 0.5745 1.0007 0.59007 0.0
C2855 C 0.57748 0.04446 0.64968 0.0
H2856 H 0.59729 0.9965 0.62814 0.0
C2857 C 0.56422 0.04673 0.62804 0.0
C2858 C 0.56391 0.03166 0.60621 0.0
H2859 H 0.57936 0.05753 0.66601 0.0
H2860 H 0.55604 0.06151 0.62799 0.0
C2861 C 0.57474 0.01267 0.60674 0.0
C2862 C 0.31641 0.33009 0.90571 0.0
C2863 C 0.2944 0.32843 0.91516 0.0
H2864 H 0.33378 0.32567 0.87379 0.0
C2865 C 0.27257 0.31961 0.89869 0.0
H2866 H 0.33363 0.33698 0.91773 0.0
C2867 C 0.27266 0.31323 0.8736 0.0
C2868 C 0.29462 0.31542 0.86396 0.0
H2869 H 0.25523 0.31763 0.90517 0.0
H2870 H 0.25533 0.30677 0.8617 0.0
C2871 C 0.31652 0.32372 0.88044 0.0
C2872 C 0.02022 0.02799 0.42379 0.0
C2873 C 0.01306 0.04728 0.41491 0.0
H2874 H 0.03145 0.0131 0.45517 0.0
C2875 C 1.01217 0.0668 0.43229 0.0
H2876 H 0.02155 0.01272 0.41125 0.0
C2877 C 0.01841 0.0672 0.45741 0.0
C2878 C 0.02533 0.0479 0.46623 0.0
H2879 H 1.00614 0.08173 0.42669 0.0
H2880 H 0.01734 0.08261 0.46999 0.0
C2881 C 0.02606 0.02821 0.44908 0.0
C2882 C 0.30275 0.77921 0.68006 0.0
C2883 C 0.31005 0.75824 0.68283 0.0
H2884 H 0.29417 0.81017 0.69805 0.0
C2885 C 0.31678 0.75387 0.7065 0.0
H2886 H 0.29795 0.78331 0.66203 0.0
C2887 C 0.31482 0.76936 0.72693 0.0
C2888 C 0.30581 0.78917 0.72403 0.0
H2889 H 0.32252 0.73793 0.70928 0.0
H2890 H 0.32007 0.76568 0.74501 0.0
C2891 C 0.3007 0.79462 0.70057 0.0
C2892 C 0.5953 0.05604 0.86034 0.0
C2893 C 0.61515 0.07573 0.8584 0.0
H2894 H 0.56537 0.04273 0.87932 0.0
C2895 C 0.61949 0.09791 0.87409 0.0
H2896 H 0.59124 0.0389 0.84812 0.0
C2897 C 0.6046 0.10014 0.89185 0.0
C2898 C 0.58517 0.08021 0.8942 0.0
H2899 H 0.63478 0.11333 0.87309 0.0
H2900 H 0.60884 0.11715 0.90429 0.0
C2901 C 0.58044 0.05826 0.87807 0.0
C2902 C 0.29171 0.35322 0.19247 0.0
C2903 C 0.28698 0.33608 0.17084 0.0
H2904 H 0.29396 0.35948 0.23166 0.0
C2905 C 0.27987 0.31123 0.17303 0.0
H2906 H 0.29683 0.37253 0.19164 0.0
C2907 C 0.27801 0.30376 0.19599 0.0
C2908 C 0.28316 0.32086 0.21764 0.0
H2909 H 0.27631 0.29741 0.15701 0.0
H2910 H 0.27291 0.28443 0.19674 0.0
C2911 C 0.28983 0.34573 0.2155 0.0
C2912 C 0.21126 0.03197 0.02199 0.0
C2913 C 0.19784 1.00759 0.01338 0.0
H2914 H 0.21136 0.06638 0.04153 0.0
C2915 C 0.17328 0.99969 0.01635 0.0
H2916 H 0.23034 0.03843 0.02021 0.0
C2917 C 0.16264 0.01549 0.02877 0.0
C2918 C 0.17633 0.03952 0.03843 0.0
H2919 H 0.16248 0.98108 0.00963 0.0
H2920 H 0.14371 0.00883 0.03106 0.0
C2921 C 0.20053 0.04787 0.03437 0.0
C2922 C 0.65515 0.59373 0.02878 0.0
C2923 C 0.6581 0.61601 0.01995 0.0
H2924 H 0.63036 0.56201 0.03752 0.0
C2925 C 0.63725 0.62273 0.01212 0.0
H2926 H 0.67082 0.58785 0.03466 0.0
C2927 C 0.6141 0.6079 0.01367 0.0
C2928 C 0.61116 0.58593 0.02308 0.0
H2929 H 0.63883 0.63987 1.00551 0.0
H2930 H 0.59852 0.61396 0.00788 0.0
C2931 C 0.63195 0.57885 0.03031 0.0
C2932 C 0.70118 0.43843 0.28884 0.0
C2933 C 0.70347 0.45786 0.27549 0.0
H2934 H 0.71327 0.40787 0.29647 0.0
C2935 C 0.72088 0.46134 0.25942 0.0
H2936 H 0.68775 0.43501 0.30112 0.0
C2937 C 0.73574 0.44593 0.25691 0.0
C2938 C 0.73351 0.42647 0.27028 0.0
H2939 H 0.7234 0.47635 0.24913 0.0
H2940 H 0.74931 0.4496 0.24481 0.0
C2941 C 0.71591 0.42289 0.2862 0.0
C2942 C 0.92384 0.52841 0.53003 0.0
C2943 C 0.91209 0.52578 0.50597 0.0
H2944 H 0.95734 0.53531 0.55362 0.0
C2945 C 0.92617 0.52968 0.48697 0.0
H2946 H 0.91355 0.52503 0.54504 0.0
C2947 C 0.95151 0.53533 0.49189 0.0
C2948 C 0.96307 0.53697 0.51586 0.0
H2949 H 0.91757 0.5278 0.46827 0.0
H2950 H 0.96193 0.53772 0.47686 0.0
C2951 C 0.949 0.53395 0.53491 0.0
C2952 C 0.30565 0.12596 0.30472 0.0
C2953 C 0.32838 0.13192 0.29641 0.0
H2954 H 0.27055 0.13207 0.30355 0.0
C2955 C 0.33293 0.14875 0.28007 0.0
H2956 H 0.30148 0.11278 0.31705 0.0
C2957 C 0.3151 0.15916 0.27194 0.0
C2958 C 0.29244 0.15321 0.28021 0.0
H2959 H 0.3504 0.15412 0.27373 0.0
H2960 H 0.31929 0.17243 0.25969 0.0
C2961 C 0.28787 0.1367 0.29681 0.0
C2962 C 0.39015 0.13422 0.55875 0.0
C2963 C 0.37571 0.13319 0.53636 0.0
H2964 H 0.41646 0.12076 0.57824 0.0
C2965 C 0.37763 0.11731 0.51584 0.0
H2966 H 0.38965 0.14657 0.57483 0.0
C2967 C 0.39328 0.10265 0.51779 0.0
C2968 C 0.40726 0.10335 0.54033 0.0
H2969 H 0.36662 0.11572 0.49837 0.0
H2970 H 0.39398 0.09031 0.50177 0.0
C2971 C 0.40561 0.11944 0.56072 0.0
C2972 C 0.74309 0.68436 0.288 0.0
C2973 C 0.72284 0.68087 0.30052 0.0
H2974 H 0.77278 0.70985 0.27681 0.0
C2975 C 0.71757 0.70135 0.31229 0.0
H2976 H 0.74769 0.6689 0.27891 0.0
C2977 C 0.73182 0.72484 0.31093 0.0
C2978 C 0.75182 0.72835 0.29801 0.0
H2979 H 0.70197 0.69923 0.32189 0.0
H2980 H 0.72696 0.74024 0.3198 0.0
C2981 C 0.7575 0.70783 0.28688 0.0
C2982 C 0.81826 0.42306 0.80382 0.0
C2983 C 0.83436 0.4346 0.82539 0.0
H2984 H 0.79833 0.38936 0.78127 0.0
C2985 C 0.84003 0.42031 0.84262 0.0
H2986 H 0.8129 0.43352 0.7905 0.0
C2987 C 0.83107 0.39493 0.83756 0.0
C2988 C 0.81673 0.38357 0.81505 0.0
H2989 H 0.8525 0.42858 0.85934 0.0
H2990 H 0.8365 0.38422 0.85059 0.0
C2991 C 0.80984 0.39779 0.79854 0.0
C2992 C 0.08086 0.96287 0.08042 0.0
C2993 C 0.06432 0.93956 0.07148 0.0
H2994 H 0.09009 1.00169 0.08128 0.0
C2995 C 0.04364 0.93913 0.055 0.0
H2996 H 0.09731 0.9646 0.09268 0.0
C2997 C 0.03956 0.9608 0.04821 0.0
C2998 C 0.05595 0.98404 0.0575 0.0
H2999 H 0.03011 0.922 0.04765 0.0
H3000 H 0.02323 0.95929 0.03584 0.0
C3001 C 0.07678 0.98447 0.07364 0.0
C3002 C 0.86613 0.28374 0.88167 0.0
C3003 C 0.88957 0.28692 0.87504 0.0
H3004 H 0.82959 0.28544 0.87189 0.0
C3005 C 0.89364 0.29501 0.85257 0.0
H3006 H 0.86215 0.27744 0.89873 0.0
C3007 C 0.87503 0.29972 0.83726 0.0
C3008 C 0.85154 0.29637 0.84372 0.0
H3009 H 0.91143 0.29812 0.84689 0.0
H3010 H 0.87913 0.30594 0.8202 0.0
C3011 C 0.84736 0.28825 0.86618 0.0
C3012 C 0.58279 0.16978 0.56721 0.0
C3013 C 0.56286 0.17959 0.56802 0.0
H3014 H 0.59533 0.13792 0.56138 0.0
C3015 C 0.53943 0.16265 0.56301 0.0
H3016 H 0.6012 0.18172 0.57047 0.0
C3017 C 0.53609 0.13733 0.55748 0.0
C3018 C 0.556 0.12759 0.55682 0.0
H3019 H 0.52341 0.16883 0.56378 0.0
H3020 H 0.51768 0.1253 0.55389 0.0
C3021 C 0.57943 0.14438 0.5618 0.0
C3022 C 0.60696 0.7798 0.35331 0.0
C3023 C 0.60815 0.79747 0.37355 0.0
H3024 H 0.62422 0.76866 0.32352 0.0
C3025 C 0.62864 0.81809 0.37899 0.0
H3026 H 0.59157 0.7636 0.34869 0.0
C3027 C 0.64735 0.821 0.36453 0.0
C3028 C 0.64624 0.80326 0.34438 0.0
H3029 H 0.63008 0.83216 0.3943 0.0
H3030 H 0.66288 0.83705 0.36934 0.0
C3031 C 0.6258 0.78259 0.33901 0.0
C3032 C 0.06119 0.22329 0.46293 0.0
C3033 C 0.04141 0.23175 0.45503 0.0
H3034 H 0.07428 0.19949 0.48395 0.0
C3035 C 0.01887 0.22142 0.46255 0.0
H3036 H 0.07893 0.23097 0.45787 0.0
C3037 C 0.01622 0.20335 0.47758 0.0
C3038 C 0.036 0.19497 0.48558 0.0
H3039 H 1.00306 0.227 0.45652 0.0
H3040 H 0.99847 0.19567 0.48261 0.0
C3041 C 0.05852 0.20518 0.47795 0.0
C3042 C 0.67607 0.2945 0.24567 0.0
C3043 C 0.65839 0.27757 0.25537 0.0
H3044 H 0.71375 0.30981 0.24273 0.0
C3045 C 0.66697 0.26259 0.27024 0.0
H3046 H 0.6706 0.30618 0.2338 0.0
C3047 C 0.69208 0.26465 0.27536 0.0
C3048 C 0.70967 0.28163 0.26564 0.0
H3049 H 0.65429 0.24942 0.27835 0.0
H3050 H 0.69771 0.25291 0.28706 0.0
C3051 C 0.70108 0.29645 0.25065 0.0
C3052 C 0.56571 0.95526 0.98072 0.0
C3053 C 0.55831 0.95222 0.95526 0.0
H3054 H 0.56817 0.97596 0.0161 0.0
C3055 C 0.54761 0.96935 0.94636 0.0
H3056 H 0.57364 0.94241 0.98852 0.0
C3057 C 0.54424 0.98862 0.96235 0.0
C3058 C 0.55147 0.99147 0.98779 0.0
H3059 H 0.54196 0.96803 0.92693 0.0
H3060 H 0.53591 1.00128 0.95469 0.0
C3061 C 0.56238 0.97453 0.99667 0.0
C3062 C 0.90615 0.79803 0.77827 0.0
C3063 C 0.9064 0.7791 0.7596 0.0
H3064 H 0.88518 0.81615 0.79949 0.0
C3065 C 0.88333 0.76343 0.74846 0.0
H3066 H 0.9231 0.81047 0.78783 0.0
C3067 C 0.86132 0.76668 0.75536 0.0
C3068 C 0.86115 0.78572 0.77384 0.0
H3069 H 0.8821 0.74878 0.73384 0.0
H3070 H 0.84429 0.75426 0.74591 0.0
C3071 C 0.88413 0.80123 0.78522 0.0
C3072 C 0.05609 0.0532 0.92956 0.0
C3073 C 0.07979 0.05306 0.92598 0.0
H3074 H 0.03029 0.0523 0.95455 0.0
C3075 C 0.09591 0.05184 0.94644 0.0
H3076 H 0.04301 0.05378 0.91434 0.0
C3077 C 0.08856 0.05094 0.96972 0.0
C3078 C 0.06483 0.05108 0.97321 0.0
H3079 H 0.11441 0.05197 0.94458 0.0
H3080 H 0.10153 0.05022 0.98499 0.0
C3081 C 0.04873 0.05217 0.95273 0.0
C3082 C 0.84905 0.39101 0.62682 0.0
C3083 C 0.82539 0.39246 0.62022 0.0
H3084 H 0.87289 0.37993 0.65233 0.0
C3085 C 0.8075 0.38429 0.63486 0.0
H3086 H 0.86309 0.39712 0.61568 0.0
C3087 C 0.81305 0.37455 0.65561 0.0
C3088 C 0.8366 0.37278 0.66212 0.0
H3089 H 0.78919 0.38546 0.63028 0.0
H3090 H 0.79875 0.36796 0.66632 0.0
C3091 C 0.8546 0.38108 0.64759 0.0
C3092 C 0.49496 0.04839 0.43045 0.0
C3093 C 0.50439 0.07096 0.42303 0.0
H3094 H 0.49594 0.02658 0.45863 0.0
C3095 C 0.5232 0.08904 0.4383 0.0
H3096 H 0.48021 0.03435 0.41893 0.0
C3097 C 0.53253 0.08445 0.46091 0.0
C3098 C 0.52259 0.06202 0.46856 0.0
H3099 H 0.53048 0.10661 0.43282 0.0
H3100 H 0.54688 0.09866 0.47271 0.0
C3101 C 0.50384 0.04401 0.45312 0.0
C3102 C 0.81056 0.78644 0.17684 0.0
C3103 C 0.78933 0.77217 0.16117 0.0
H3104 H 0.82725 0.80332 0.21338 0.0
C3105 C 0.76779 0.76486 0.17165 0.0
H3106 H 0.82745 0.79299 0.16973 0.0
C3107 C 0.76759 0.77133 0.19682 0.0
C3108 C 0.78898 0.78501 0.21244 0.0
H3109 H 0.75108 0.7535 0.1606 0.0
H3110 H 0.75078 0.76499 0.20416 0.0
C3111 C 0.81042 0.79259 0.20203 0.0
C3112 C 0.06565 0.0366 0.655 0.0
C3113 C 0.06856 0.05765 0.67196 0.0
H3114 H 0.05836 0.02004 0.61732 0.0
C3115 C 0.06491 0.0784 0.6631 0.0
H3116 H 0.06854 0.0204 0.66114 0.0
C3117 C 0.05858 0.07809 0.63786 0.0
C3118 C 0.05647 0.05723 0.62086 0.0
H3119 H 0.06702 0.09491 0.67571 0.0
H3120 H 0.05606 0.09437 0.63161 0.0
C3121 C 0.05997 0.03648 0.62983 0.0
C3122 C 0.77475 0.3294 0.39371 0.0
C3123 C 0.76695 0.35043 0.39407 0.0
H3124 H 0.78432 0.30124 0.37197 0.0
C3125 C 0.76047 0.35785 0.37187 0.0
H3126 H 0.77956 0.32313 0.4106 0.0
C3127 C 0.76316 0.34535 0.34981 0.0
C3128 C 0.77242 0.32523 0.34954 0.0
H3129 H 0.75462 0.37411 0.3716 0.0
H3130 H 0.75877 0.35205 0.33306 0.0
C3131 C 0.77748 0.3169 0.37162 0.0
C3132 C 0.45394 0.99455 0.19679 0.0
C3133 C 0.44548 0.01517 0.19734 0.0
H3134 H 0.47358 0.97304 0.17833 0.0
C3135 C 0.44847 0.02886 0.17819 0.0
H3136 H 0.452 0.98386 0.21154 0.0
C3137 C 0.46068 0.02267 0.15929 0.0
C3138 C 0.47028 1.00279 0.15933 0.0
H3139 H 0.44201 0.04479 0.17825 0.0
H3140 H 0.46369 0.03421 0.14531 0.0
C3141 C 0.46639 0.98847 0.17796 0.0
C3142 C 0.79455 0.74313 0.88419 0.0
C3143 C 0.79527 0.7597 0.90533 0.0
H3144 H 0.79451 0.73734 0.8452 0.0
C3145 C 0.7974 0.78402 0.90266 0.0
H3146 H 0.79273 0.7242 0.88544 0.0
C3147 C 0.79861 0.79156 0.8797 0.0
C3148 C 0.79751 0.77501 0.85846 0.0
H3149 H 0.79835 0.7974 0.91844 0.0
H3150 H 0.80012 0.81047 0.87863 0.0
C3151 C 0.7955 0.75065 0.86105 0.0
C3152 C 0.8881 0.09585 0.97963 0.0
C3153 C 0.86911 0.08739 0.99305 0.0
H3154 H 0.91721 0.08832 0.96261 0.0
C3155 C 0.86297 0.06291 0.99648 0.0
H3156 H 0.89317 0.11448 0.97625 0.0
C3157 C 0.87741 0.04822 0.98965 0.0
C3158 C 0.89803 0.05739 0.97852 0.0
H3159 H 0.84775 0.05539 1.00574 0.0
H3160 H 0.87327 0.03034 0.99497 0.0
C3161 C 0.90216 0.08086 0.97209 0.0
C3162 C 0.44513 0.46595 0.04626 0.0
C3163 C 0.42602 0.47586 0.05068 0.0
H3164 H 0.4817 0.47233 0.03917 0.0
C3165 C 0.43034 0.50125 0.05246 0.0
H3166 H 0.44283 0.44664 0.04545 0.0
C3167 C 0.45305 0.51621 0.04932 0.0
C3168 C 0.47174 0.50601 0.04401 0.0
H3169 H 0.41602 0.50954 0.05563 0.0
H3170 H 0.45576 0.53561 0.05042 0.0
C3171 C 0.46756 0.48076 0.04277 0.0
C3172 C 0.36687 0.63316 0.79172 0.0
C3173 C 0.38312 0.63372 0.77455 0.0
H3174 H 0.33893 0.64686 0.80488 0.0
C3175 C 0.38341 0.64957 0.75719 0.0
H3176 H 0.3657 0.62085 0.80502 0.0
C3177 C 0.36783 0.66437 0.75699 0.0
C3178 C 0.35169 0.66382 0.77423 0.0
H3179 H 0.39588 0.65076 0.74389 0.0
H3180 H 0.36868 0.67654 0.74355 0.0
C3181 C 0.35143 0.64804 0.7916 0.0
C3182 C 0.15032 0.55826 0.56835 0.0
C3183 C 0.16317 0.5831 0.57332 0.0
H3184 H 0.11574 0.53166 0.55631 0.0
C3185 C 0.15067 0.60045 0.57011 0.0
H3186 H 0.15967 0.54459 0.57055 0.0
C3187 C 0.12584 0.59315 0.56167 0.0
C3188 C 0.11294 0.56834 0.55648 0.0
H3189 H 0.16026 0.61971 0.57334 0.0
H3190 H 0.1168 0.607 0.55911 0.0
C3191 C 0.12529 0.55092 0.5602 0.0
C3192 C 0.77008 0.97124 0.81362 0.0
C3193 C 0.77377 0.98402 0.79379 0.0
H3194 H 0.78076 0.94618 0.8344 0.0
C3195 C 0.79319 0.98286 0.78095 0.0
H3196 H 0.7551 0.97151 0.82369 0.0
C3197 C 0.80786 0.96824 0.78706 0.0
C3198 C 0.80347 0.95471 0.80623 0.0
H3199 H 0.79679 0.99291 0.7659 0.0
H3200 H 0.82225 0.96703 0.77642 0.0
C3201 C 0.78483 0.95678 0.81982 0.0
C3202 C 0.70083 0.96918 0.51519 0.0
C3203 C 0.70574 0.96123 0.53758 0.0
H3204 H 0.68259 0.99037 0.49549 0.0
C3205 C 0.69513 0.96874 0.55759 0.0
H3206 H 0.7089 0.96392 0.49948 0.0
C3207 C 0.68013 0.98395 0.55533 0.0
C3208 C 0.67549 0.99219 0.53304 0.0
H3209 H 0.69837 0.96281 0.57504 0.0
H3210 H 0.67251 0.98963 0.5712 0.0
C3211 C 0.68597 0.98455 0.51297 0.0
C3212 C 0.34314 0.41338 0.78688 0.0
C3213 C 0.36021 0.41544 0.77047 0.0
H3214 H 0.31505 0.38949 0.80194 0.0
C3215 C 0.36117 0.39439 0.75562 0.0
H3216 H 0.34196 0.42939 0.79845 0.0
C3217 C 0.34605 0.3716 0.75783 0.0
C3218 C 0.32936 0.36942 0.77466 0.0
H3219 H 0.37426 0.39545 0.74294 0.0
H3220 H 0.34771 0.35562 0.74659 0.0
C3221 C 0.32768 0.3906 0.78879 0.0
C3222 C 0.28436 0.69746 0.24474 0.0
C3223 C 0.25991 0.68359 0.24224 0.0
H3224 H 0.31042 0.73232 0.2572 0.0
C3225 C 0.24261 0.69487 0.24967 0.0
H3226 H 0.29805 0.68913 0.23928 0.0
C3227 C 0.24962 0.71925 0.26009 0.0
C3228 C 0.27411 0.733 0.26329 0.0
H3229 H 0.22371 0.68457 0.2486 0.0
H3230 H 0.23582 0.72716 0.26605 0.0
C3231 C 0.2914 0.72207 0.25505 0.0
C3232 C 0.5411 0.66167 0.523 0.0
C3233 C 0.52085 0.66156 0.50612 0.0
H3234 H 0.5611 0.64114 0.54202 0.0
C3235 C 0.50467 0.63832 0.49609 0.0
H3236 H 0.55439 0.67871 0.53113 0.0
C3237 C 0.50869 0.61648 0.50233 0.0
C3238 C 0.52907 0.61667 0.51896 0.0
H3239 H 0.48856 0.63682 0.48342 0.0
H3240 H 0.49571 0.59931 0.49392 0.0
C3241 C 0.54509 0.63982 0.52925 0.0
C3242 C 0.71843 0.31442 0.69995 0.0
C3243 C 0.69979 0.32324 0.70848 0.0
H3244 H 0.75173 0.3054 0.70897 0.0
C3245 C 0.70144 0.33004 0.73394 0.0
H3246 H 0.71808 0.30922 0.68052 0.0
C3247 C 0.72075 0.32778 0.75029 0.0
C3248 C 0.73927 0.31879 0.74181 0.0
H3249 H 0.68743 0.3366 0.7414 0.0
H3250 H 0.72103 0.33298 0.76972 0.0
C3251 C 0.73789 0.31234 0.71632 0.0
C3252 C 0.04892 0.44058 0.01043 0.0
C3253 C 0.02822 0.42261 0.0145 0.0
H3254 H 0.06776 0.47856 0.01294 0.0
C3255 C 1.01029 0.4311 0.02517 0.0
H3256 H 0.06355 0.43535 1.00281 0.0
C3257 C 0.0129 0.45629 0.0313 0.0
C3258 C 0.0335 0.47411 0.02693 0.0
H3259 H 0.99387 0.41829 0.02846 0.0
H3260 H 0.99859 0.46176 0.03934 0.0
C3261 C 0.05146 0.46569 0.01643 0.0
C3262 C 0.97667 0.79327 0.22748 0.0
C3263 C 0.97569 0.80536 0.20711 0.0
H3264 H 0.95966 0.78081 0.25767 0.0
C3265 C 0.95557 0.81409 0.20166 0.0
H3266 H 0.99208 0.78667 0.23247 0.0
C3267 C 0.93674 0.81049 0.21599 0.0
C3268 C 0.93761 0.79823 0.23631 0.0
H3269 H 0.95409 0.82324 0.18594 0.0
H3270 H 0.92125 0.81689 0.21078 0.0
C3271 C 0.95797 0.78986 0.24193 0.0
C3272 C 0.5603 0.38187 0.11993 0.0
C3273 C 0.53711 0.36575 0.11998 0.0
H3274 H 0.58168 0.41218 0.10573 0.0
C3275 C 0.51722 0.36879 0.10495 0.0
H3276 H 0.57603 0.38064 0.13159 0.0
C3277 C 0.52048 0.38717 0.09023 0.0
C3278 C 0.54374 0.40297 0.08993 0.0
H3279 H 0.49913 0.35663 0.10411 0.0
H3280 H 0.50481 0.38865 0.07863 0.0
C3281 C 0.56357 0.4001 0.10509 0.0
C3282 C 0.90705 0.33175 0.31397 0.0
C3283 C 0.91646 0.31147 0.31301 0.0
H3284 H 0.87562 0.34502 0.30923 0.0
C3285 C 0.89936 0.28828 0.30567 0.0
H3286 H 0.91909 0.34998 0.3198 0.0
C3287 C 0.87422 0.28547 0.29992 0.0
C3288 C 0.86486 0.30568 0.30101 0.0
H3289 H 0.90531 0.27204 0.30405 0.0
H3290 H 0.86207 0.2672 0.29446 0.0
C3291 C 0.88183 0.32891 0.30802 0.0
C3292 C 0.01668 0.64427 0.59174 0.0
C3293 C 0.02358 0.64616 0.61715 0.0
H3294 H 0.01405 0.62457 0.5558 0.0
C3295 C 0.03295 0.62791 0.62539 0.0
H3296 H 1.00968 0.65799 0.58451 0.0
C3297 C 0.03546 0.60857 0.60881 0.0
C3298 C 0.02889 0.60693 0.58338 0.0
H3299 H 0.03825 0.62845 0.64477 0.0
H3300 H 0.04278 0.595 0.61596 0.0
C3301 C 0.01937 0.62507 0.57517 0.0
C3302 C 0.68204 0.79968 0.80797 0.0
C3303 C 0.6806 0.82281 0.81812 0.0
H3304 H 0.70387 0.77786 0.79405 0.0
C3305 C 0.70236 0.84225 0.82119 0.0
H3306 H 0.66623 0.78396 0.80549 0.0
C3307 C 0.72438 0.83868 0.81448 0.0
C3308 C 0.72573 0.81546 0.80457 0.0
H3309 H 0.70244 0.86046 0.82864 0.0
H3310 H 0.74046 0.85418 0.81734 0.0
C3311 C 0.70399 0.7961 0.80146 0.0
C3312 C 0.49038 0.54848 0.62961 0.0
C3313 C 0.50662 0.54744 0.65003 0.0
H3314 H 0.48465 0.55016 0.5911 0.0
C3315 C 0.53042 0.54771 0.64648 0.0
H3316 H 0.47181 0.54803 0.63148 0.0
C3317 C 0.53778 0.54899 0.62334 0.0
C3318 C 0.52154 0.54989 0.60289 0.0
H3319 H 0.54356 0.54724 0.66171 0.0
H3320 H 0.5563 0.54916 0.62152 0.0
C3321 C 0.4977 0.5496 0.60636 0.0
C3322 C 0.74828 0.24808 0.96343 0.0
C3323 C 0.76926 0.25738 0.98098 0.0
H3324 H 0.72817 0.25265 0.93086 0.0
C3325 C 0.7846 0.28081 0.98069 0.0
H3326 H 0.73626 0.22996 0.96286 0.0
C3327 C 0.77992 0.29391 0.96216 0.0
C3328 C 0.75981 0.28381 0.94369 0.0
H3329 H 0.80066 0.28864 0.99426 0.0
H3330 H 0.79258 0.31147 0.96168 0.0
C3331 C 0.74359 0.26116 0.94504 0.0
C3332 C 0.08486 0.51342 0.13992 0.0
C3333 C 0.08653 0.53049 0.16062 0.0
H3334 H 0.07319 0.50313 0.10136 0.0
C3335 C 0.07386 0.54798 0.1594 0.0
H3336 H 0.09483 0.50005 0.14053 0.0
C3337 C 0.06128 0.54965 0.13709 0.0
C3338 C 0.06186 0.53421 0.11582 0.0
H3339 H 0.07534 0.56151 0.17523 0.0
H3340 H 0.0531 0.56435 0.1361 0.0
C3341 C 0.07271 0.51536 0.11758 0.0
C3342 C 0.77626 0.82729 0.40121 0.0
C3343 C 0.79502 0.82505 0.41827 0.0
H3344 H 0.76161 0.82395 0.36355 0.0
C3345 C 0.81359 0.81647 0.4093 0.0
H3346 H 0.76184 0.83411 0.40732 0.0
C3347 C 0.81341 0.81043 0.38396 0.0
C3348 C 0.79492 0.81329 0.36695 0.0
H3349 H 0.82829 0.81443 0.4219 0.0
H3350 H 0.82803 0.80404 0.3777 0.0
C3351 C 0.77628 0.82165 0.376 0.0
C3352 C 0.50784 0.55825 0.92247 0.0
C3353 C 0.51577 0.54359 0.905 0.0
H3354 H 0.5062 0.56914 0.96019 0.0
C3355 C 0.52894 0.52817 0.91353 0.0
H3356 H 0.49729 0.57003 0.91678 0.0
C3357 C 0.53402 0.52752 0.93874 0.0
C3358 C 0.52588 0.54211 0.95612 0.0
H3359 H 0.53551 0.5167 0.90071 0.0
H3360 H 0.54425 0.51552 0.94458 0.0
C3361 C 0.51277 0.55751 0.94753 0.0
C3362 C 0.80829 0.22219 0.19983 0.0
C3363 C 0.81594 0.23313 0.17978 0.0
H3364 H 0.79566 0.22625 0.23419 0.0
C3365 C 0.81875 0.25817 0.18039 0.0
H3366 H 0.8064 0.20307 0.20012 0.0
C3367 C 0.81289 0.27169 0.20027 0.0
C3368 C 0.8038 0.26022 0.21954 0.0
H3369 H 0.8244 0.26704 0.16507 0.0
H3370 H 0.81461 0.29079 0.20013 0.0
C3371 C 0.80206 0.2355 0.21934 0.0
C3372 C 0.12568 0.61475 0.37081 0.0
C3373 C 0.1477 0.60891 0.37461 0.0
H3374 H 0.09471 0.61963 0.38613 0.0
C3375 C 0.157 0.60664 0.39829 0.0
H3376 H 0.118 0.61635 0.35266 0.0
C3377 C 0.14379 0.60879 0.41758 0.0
C3378 C 0.12092 0.61296 0.41345 0.0
H3379 H 0.17412 0.60248 0.40171 0.0
H3380 H 0.15108 0.60634 0.43555 0.0
C3381 C 0.11237 0.61668 0.39003 0.0
C3382 C 0.80767 0.84923 0.69135 0.0
C3383 C 0.78929 0.83672 0.67174 0.0
H3384 H 0.82146 0.85308 0.72936 0.0
C3385 C 0.76977 0.818 0.67655 0.0
H3386 H 0.82277 0.86401 0.68854 0.0
C3387 C 0.76901 0.81162 0.70015 0.0
C3388 C 0.78758 0.824 0.71968 0.0
H3389 H 0.75531 0.8079 0.66194 0.0
H3390 H 0.75396 0.79681 0.703 0.0
C3391 C 0.80678 0.84306 0.71492 0.0
C3392 C 0.71824 0.52888 0.5732 0.0
C3393 C 0.70508 0.50552 0.56106 0.0
H3394 H 0.7167 0.56243 0.59288 0.0
C3395 C 0.68016 0.49684 0.56198 0.0
H3396 H 0.73764 0.53566 0.57309 0.0
C3397 C 0.66807 0.51221 0.57288 0.0
C3398 C 0.68084 0.53642 0.58331 0.0
H3399 H 0.66977 0.47877 0.55282 0.0
H3400 H 0.64846 0.50562 0.57128 0.0
C3401 C 0.70626 0.54412 0.58452 0.0
C3402 C 0.13799 0.13282 0.53113 0.0
C3403 C 0.15685 0.12277 0.52604 0.0
H3404 H 0.10152 0.12658 0.53849 0.0
C3405 C 0.15225 0.09731 0.52356 0.0
H3406 H 0.14058 0.15222 0.53255 0.0
C3407 C 0.1295 0.08239 0.52668 0.0
C3408 C 0.111 0.09268 0.53257 0.0
H3409 H 0.16639 0.08894 0.51982 0.0
H3410 H 0.12659 0.06292 0.52504 0.0
C3411 C 0.11548 0.11803 0.53447 0.0
C3412 C 0.21105 0.95809 0.77505 0.0
C3413 C 0.20391 0.96632 0.79716 0.0
H3414 H 0.23237 0.93782 0.75752 0.0
C3415 C 0.21249 0.95905 0.8188 0.0
H3416 H 0.20508 0.96354 0.75808 0.0
C3417 C 0.22832 0.94459 0.81849 0.0
C3418 C 0.23586 0.93682 0.79651 0.0
H3419 H 0.20698 0.96453 0.83608 0.0
H3420 H 0.23462 0.9394 0.83551 0.0
C3421 C 0.22677 0.94342 0.77472 0.0
C3422 C 0.42471 0.02799 0.01145 0.0
C3423 C 0.41364 1.00318 0.01144 0.0
H3424 H 0.458 0.0568 0.01712 0.0
C3425 C 0.42808 0.98827 0.01796 0.0
H3426 H 0.41391 0.03983 0.00654 0.0
C3427 C 0.45318 0.99795 0.02422 0.0
C3428 C 0.46436 0.02268 0.02388 0.0
H3429 H 0.41989 0.96916 0.01853 0.0
H3430 H 0.46382 0.98596 0.02911 0.0
C3431 C 0.44989 0.03764 0.01749 0.0
C3432 C 0.84669 0.6668 0.80411 0.0
C3433 C 0.83906 0.64247 0.80774 0.0
H3434 H 0.83682 0.696 0.7899 0.0
C3435 C 0.81458 0.62889 0.80023 0.0
H3436 H 0.86535 0.67777 0.81004 0.0
C3437 C 0.79819 0.63937 0.78869 0.0
C3438 C 0.80615 0.66343 0.7843 0.0
H3439 H 0.80831 0.60997 0.8025 0.0
H3440 H 0.7795 0.62853 0.78266 0.0
C3441 C 0.83042 0.67716 0.79246 0.0
C3442 C 0.88788 0.62779 0.02077 0.0
C3443 C 0.87799 0.6361 0.04102 0.0
H3444 H 0.91049 0.60686 0.00719 0.0
C3445 C 0.88394 0.62917 0.06373 0.0
H3446 H 0.88407 0.63306 1.00308 0.0
C3447 C 0.89925 0.61427 0.0661 0.0
C3448 C 0.9089 0.60578 0.04579 0.0
H3449 H 0.87636 0.63481 0.07964 0.0
H3450 H 0.90313 0.60897 0.08376 0.0
C3451 C 0.90307 0.61277 0.02311 0.0
C3452 C 0.24859 0.18944 0.80692 0.0
C3453 C 0.22341 0.18512 0.80692 0.0
H3454 H 0.28232 0.21494 0.80312 0.0
C3455 C 0.21302 0.20397 0.80346 0.0
H3456 H 0.25708 0.17522 0.80963 0.0
C3457 C 0.22729 0.22642 0.79942 0.0
C3458 C 0.2524 0.23071 0.79902 0.0
H3459 H 0.19365 0.20113 0.80308 0.0
H3460 H 0.21854 0.2404 0.79649 0.0
C3461 C 0.26302 0.21214 0.80324 0.0
C3462 C 0.30644 0.91911 0.30577 0.0
C3463 C 0.32329 0.9306 0.32682 0.0
H3464 H 0.28544 0.88535 0.28403 0.0
C3465 C 0.32824 0.91666 0.34468 0.0
H3466 H 0.3018 0.92948 0.29199 0.0
C3467 C 0.31838 0.89134 0.34032 0.0
C3468 C 0.30378 0.87982 0.31796 0.0
H3469 H 0.34119 0.92503 0.36106 0.0
H3470 H 0.32378 0.88072 0.35346 0.0
C3471 C 0.29702 0.89391 0.30123 0.0
C3472 C 0.54377 0.43928 0.55759 0.0
C3473 C 0.56695 0.4376 0.56682 0.0
H3474 H 0.52213 0.4608 0.54332 0.0
C3475 C 0.58675 0.45874 0.56777 0.0
H3476 H 0.5279 0.42373 0.55589 0.0
C3477 C 0.58337 0.48046 0.56029 0.0
C3478 C 0.56006 0.48203 0.55134 0.0
H3479 H 0.60496 0.45877 0.57482 0.0
H3480 H 0.59909 0.49616 0.5618 0.0
C3481 C 0.54043 0.46083 0.55008 0.0
C3482 C 0.36415 0.77116 0.37245 0.0
C3483 C 0.38804 0.78659 0.37425 0.0
H3484 H 0.32656 0.76282 0.35664 0.0
C3485 C 0.39181 0.80568 0.36029 0.0
H3486 H 0.36043 0.75636 0.38299 0.0
C3487 C 0.37247 0.80929 0.3451 0.0
C3488 C 0.34854 0.7941 0.34346 0.0
H3489 H 0.4099 0.81778 0.36084 0.0
H3490 H 0.37635 0.82417 0.33467 0.0
C3491 C 0.34466 0.77497 0.35742 0.0
C3492 C 0.038 0.66372 0.0703 0.0
C3493 C 0.06115 0.68111 0.07546 0.0
H3494 H 0.0171 0.6261 0.06127 0.0
C3495 C 0.08153 0.672 0.07521 0.0
H3496 H 0.02171 0.66958 0.06991 0.0
C3497 C 0.07885 0.64667 0.07026 0.0
C3498 C 0.05566 0.62938 0.06512 0.0
H3499 H 0.09972 0.68444 0.07929 0.0
H3500 H 0.09504 0.64066 0.07041 0.0
C3501 C 0.03533 0.63851 0.06517 0.0
C3502 C 0.11355 0.27718 0.86137 0.0
C3503 C 0.10926 0.29746 0.87494 0.0
H3504 H 0.13458 0.26414 0.83622 0.0
C3505 C 0.1243 0.32077 0.87343 0.0
H3506 H 0.10224 0.25894 0.86168 0.0
C3507 C 0.14275 0.32374 0.85865 0.0
C3508 C 0.14692 0.3035 0.84497 0.0
H3509 H 0.12207 0.33685 0.88394 0.0
H3510 H 0.15402 0.34197 0.85821 0.0
C3511 C 0.13214 0.28015 0.84668 0.0
C3512 C 0.54504 0.70638 0.94139 0.0
C3513 C 0.54523 0.72993 0.95169 0.0
H3514 H 0.54116 0.66948 0.94659 0.0
C3515 C 0.54222 0.73399 0.97648 0.0
H3516 H 0.54694 0.70241 0.9223 0.0
C3517 C 0.53901 0.71509 0.9905 0.0
C3518 C 0.53861 0.69146 0.98017 0.0
H3519 H 0.54266 0.75194 0.9852 0.0
H3520 H 0.53718 0.71915 0.00959 0.0
C3521 C 0.54173 0.68743 0.95539 0.0
C3522 C 0.17266 0.7624 0.75913 0.0
C3523 C 0.16354 0.78268 0.75806 0.0
H3524 H 0.20374 0.74897 0.76522 0.0
C3525 C 0.18088 0.80588 0.76276 0.0
H3526 H 0.16027 0.74418 0.75604 0.0
C3527 C 0.20609 0.80864 0.76812 0.0
C3528 C 0.21516 0.78834 0.76912 0.0
H3529 H 0.17507 0.82207 0.76187 0.0
H3530 H 0.21852 0.82687 0.77146 0.0
C3531 C 0.19786 0.76517 0.76457 0.0
C3532 C 0.03272 0.45016 0.46096 0.0
C3533 C 0.05373 0.45264 0.44968 0.0
H3534 H 0.01338 0.46692 0.48523 0.0
C3535 C 0.07154 0.47545 0.45435 0.0
H3536 H 0.0187 0.43287 0.45793 0.0
C3537 C 0.06824 0.49528 0.46966 0.0
C3538 C 0.04734 0.49262 0.48124 0.0
H3539 H 0.08789 0.47804 0.4459 0.0
H3540 H 0.08227 0.51256 0.47282 0.0
C3541 C 0.0297 0.46973 0.4767 0.0
C3542 C 0.39696 0.29844 0.25962 0.0
C3543 C 0.40034 0.2751 0.25473 0.0
H3544 H 0.37387 0.32019 0.27031 0.0
C3545 C 0.38074 0.25522 0.25775 0.0
H3546 H 0.41134 0.31444 0.25806 0.0
C3547 C 0.35876 0.25858 0.26485 0.0
C3548 C 0.35548 0.282 0.26959 0.0
H3549 H 0.38213 0.23686 0.2541 0.0
H3550 H 0.34426 0.24271 0.26655 0.0
C3551 C 0.37521 0.3018 0.26693 0.0
C3552 C 0.56346 0.52535 0.42084 0.0
C3553 C 0.57963 0.54614 0.41478 0.0
H3554 H 0.54442 0.50886 0.4484 0.0
C3555 C 0.58946 0.56651 0.43328 0.0
H3556 H 0.55537 0.50935 0.40712 0.0
C3557 C 0.58328 0.56619 0.45698 0.0
C3558 C 0.56692 0.54553 0.46299 0.0
H3559 H 0.60226 0.58273 0.42956 0.0
H3560 H 0.59126 0.58231 0.47058 0.0
C3561 C 0.5571 0.52509 0.44455 0.0
C3562 C 0.28929 0.88941 0.14391 0.0
C3563 C 0.306 0.8998 0.12897 0.0
H3564 H 0.28357 0.87147 0.17505 0.0
C3565 C 0.33061 0.90095 0.13482 0.0
H3566 H 0.27024 0.88837 0.13978 0.0
C3567 C 0.33828 0.89138 0.15502 0.0
C3568 C 0.32148 0.88064 0.16974 0.0
H3569 H 0.3438 0.90859 0.12335 0.0
H3570 H 0.35729 0.8922 0.15902 0.0
C3571 C 0.29697 0.87996 0.16416 0.0
C3572 C 0.02849 0.5914 0.94694 0.0
C3573 C 1.01146 0.57279 0.93035 0.0
H3574 H 0.04989 0.60136 0.98259 0.0
C3575 C 1.00337 0.54944 0.93656 0.0
H3576 H 0.03469 0.60957 0.94245 0.0
C3577 C 1.01151 0.5449 0.95943 0.0
C3578 C 0.0282 0.56354 0.97626 0.0
H3579 H 0.98991 0.53495 0.92409 0.0
H3580 H 1.00447 0.5269 0.9641 0.0
C3581 C 0.03711 0.58669 0.96972 0.0
C3582 C 0.26689 0.27846 0.66681 0.0
C3583 C 0.28655 0.27175 0.65805 0.0
H3584 H 0.25137 0.28952 0.69821 0.0
C3585 C 0.30607 0.27136 0.67528 0.0
H3586 H 0.25158 0.27905 0.65407 0.0
C3587 C 0.30576 0.27696 0.70045 0.0
C3588 C 0.28607 0.28349 0.70929 0.0
H3589 H 0.32138 0.26605 0.66933 0.0
H3590 H 0.32109 0.27616 0.71304 0.0
C3591 C 0.26678 0.28453 0.69211 0.0
C3592 C 0.56851 0.56988 0.15245 0.0
C3593 C 0.57002 0.54824 0.16093 0.0
H3594 H 0.56142 0.58716 0.12143 0.0
C3595 C 0.56414 0.52681 0.14375 0.0
H3596 H 0.57308 0.58678 0.16512 0.0
C3597 C 0.55742 0.52701 0.11886 0.0
C3598 C 0.55649 0.5487 0.11017 0.0
H3599 H 0.56476 0.50976 0.14956 0.0
H3600 H 0.55329 0.51005 0.10636 0.0
C3601 C 0.56195 0.57013 0.12736 0.0
C3602 C 0.30262 0.83784 0.89774 0.0
C3603 C 0.27955 0.83139 0.90514 0.0
H3604 H 0.32383 0.83375 0.86923 0.0
C3605 C 0.26041 0.81337 0.89009 0.0
H3606 H 0.31759 0.85193 0.90889 0.0
C3607 C 0.2641 0.8027 0.86744 0.0
C3608 C 0.28679 0.8104 0.85946 0.0
H3609 H 0.24247 0.80821 0.89548 0.0
H3610 H 0.24887 0.78959 0.85558 0.0
C3611 C 0.30615 0.82758 0.87501 0.0
C3612 C 0.95632 0.54473 0.68502 0.0
C3613 C 0.95088 0.52937 0.70255 0.0
H3614 H 0.97051 0.54982 0.65156 0.0
C3615 C 0.95464 0.50626 0.69895 0.0
H3616 H 0.95345 0.56257 0.68735 0.0
C3617 C 0.9643 0.49889 0.67842 0.0
C3618 C 0.97017 0.51445 0.66112 0.0
H3619 H 0.95083 0.49419 0.71238 0.0
H3620 H 0.9674 0.48114 0.67619 0.0
C3621 C 0.96583 0.53732 0.66446 0.0
C3622 C 0.28791 0.24144 0.38318 0.0
C3623 C 0.29664 0.25912 0.40435 0.0
H3624 H 0.28037 0.23404 0.34389 0.0
C3625 C 0.30573 0.28361 0.40136 0.0
H3626 H 0.28066 0.22243 0.38479 0.0
C3627 C 0.30606 0.29023 0.37788 0.0
C3628 C 0.29677 0.27261 0.35671 0.0
H3629 H 0.31271 0.29767 0.41724 0.0
H3630 H 0.31298 0.30929 0.37633 0.0
C3631 C 0.28771 0.24811 0.35971 0.0
C3632 C 0.40224 0.59688 0.54303 0.0
C3633 C 0.37863 0.58689 0.54803 0.0
H3634 H 0.43292 0.59019 0.52853 0.0
C3635 C 0.3675 0.56171 0.54159 0.0
H3636 H 0.41129 0.6162 0.54803 0.0
C3637 C 0.3798 0.54679 0.53021 0.0
C3638 C 0.40337 0.55685 0.52503 0.0
H3639 H 0.3491 0.55365 0.54487 0.0
H3640 H 0.37082 0.52746 0.52523 0.0
C3641 C 0.41451 0.58201 0.53169 0.0
C3642 C 0.92786 1.00498 0.55091 0.0
C3643 C 0.92498 0.9823 0.55887 0.0
H3644 H 0.95247 0.03697 0.54243 0.0
C3645 C 0.94586 0.97514 0.56548 0.0
H3646 H 0.91219 0.01123 0.54599 0.0
C3647 C 0.96893 0.98993 0.56354 0.0
C3648 C 0.97177 0.0123 0.55494 0.0
H3649 H 0.94436 0.95769 0.57138 0.0
H3650 H 0.98451 0.98351 0.56836 0.0
C3651 C 0.95098 0.01981 0.54898 0.0
C3652 C 0.84889 0.12289 0.29604 0.0
C3653 C 0.87338 0.13282 0.2934 0.0
H3654 H 0.81445 0.12918 0.29924 0.0
C3655 C 0.88186 0.1578 0.29225 0.0
H3656 H 0.84167 0.10363 0.29657 0.0
C3657 C 0.8663 0.17254 0.294 0.0
C3658 C 0.84178 0.16265 0.29674 0.0
H3659 H 0.90069 0.16607 0.29051 0.0
H3660 H 0.87364 0.19182 0.29367 0.0
C3661 C 0.83328 0.13758 0.29762 0.0
C3662 C 0.65624 0.08021 0.0691 0.0
C3663 C 0.66758 0.08943 0.04975 0.0
H3664 H 0.62265 0.06515 0.08207 0.0
C3665 C 0.65307 0.09023 0.02808 0.0
H3666 H 0.66695 0.07923 0.08596 0.0
C3667 C 0.62783 0.0821 0.0258 0.0
C3668 C 0.61644 0.0731 0.04519 0.0
H3669 H 0.6612 0.09771 0.01302 0.0
H3670 H 0.61728 0.0832 0.00889 0.0
C3671 C 0.63089 0.07211 0.06684 0.0
C3672 C 0.28567 0.47909 0.29057 0.0
C3673 C 0.26717 0.48349 0.30324 0.0
H3674 H 0.31149 0.45903 0.28691 0.0
C3675 C 0.26231 0.47256 0.32406 0.0
H3676 H 0.29008 0.48763 0.27471 0.0
C3677 C 0.27483 0.4565 0.33128 0.0
C3678 C 0.29241 0.45108 0.3178 0.0
H3679 H 0.24809 0.47558 0.33414 0.0
H3680 H 0.27018 0.44765 0.3469 0.0
C3681 C 0.29819 0.46303 0.29778 0.0
C3682 C 0.19787 0.46893 0.02041 0.0
C3683 C 0.20924 0.46548 0.04282 0.0
H3684 H 0.17465 0.48676 1.00231 0.0
C3685 C 0.2054 0.47803 0.06466 0.0
H3686 H 0.20002 0.45928 1.00324 0.0
C3687 C 0.19062 0.49359 0.0641 0.0
C3688 C 0.17949 0.49717 0.04168 0.0
H3689 H 0.21418 0.47624 0.08225 0.0
H3690 H 0.1883 0.5032 0.08122 0.0
C3691 C 0.18327 0.48465 0.01985 0.0
C3692 C 0.87239 0.89758 0.28478 0.0
C3693 C 0.86241 0.91588 0.27808 0.0
H3694 H 0.86599 0.8613 0.29222 0.0
C3695 C 0.83692 0.91042 0.27272 0.0
H3696 H 0.8919 0.90085 0.28843 0.0
C3697 C 0.82184 0.88735 0.27466 0.0
C3698 C 0.83197 0.86939 0.28212 0.0
H3699 H 0.82862 0.92413 0.26762 0.0
H3700 H 0.8023 0.88376 0.27078 0.0
C3701 C 0.85743 0.87477 0.28687 0.0
C3702 C 0.73744 0.19824 0.75739 0.0
C3703 C 0.75353 0.18486 0.75128 0.0
H3704 H 0.73324 0.23296 0.77034 0.0
C3705 C 0.7783 0.19706 0.75249 0.0
H3706 H 0.71831 0.18925 0.75706 0.0
C3707 C 0.78691 0.22214 0.76027 0.0
C3708 C 0.7709 0.23537 0.76715 0.0
H3709 H 0.79104 0.18713 0.74782 0.0
H3710 H 0.80618 0.23103 0.76141 0.0
C3711 C 0.74604 0.22325 0.76528 0.0
loop_
_geom_bond_atom_site_label_1
_geom_bond_atom_site_label_2
_geom_bond_distance
_geom_bond_site_symmetry_2
_ccdc_geom_bond_type
Li0 N17 1.990 1_455 S
Li0 O60 1.956 . S
Li0 O61 1.970 . S
Li0 O62 1.961 . S
Li1 N25 1.990 . S
Li1 O60 1.970 . S
Li1 O61 1.956 . S
Li1 O63 1.961 . S
Li2 N47 1.990 . S
Li2 O60 1.961 . S
Li2 O62 1.956 . S
Li2 O63 1.970 . S
Li3 N53 1.990 . S
Li3 O61 1.961 . S
Li3 O62 1.970 . S
Li3 O63 1.956 . S
C4 C6 1.348 . S
C4 C7 1.356 . S
C4 O60 1.325 . S
N5 C8 1.314 . S
N5 C9 1.279 . S
C6 C4 1.348 . S
C6 C8 1.353 . S
C6 H64 0.929 . S
C7 C4 1.356 . S
C7 C9 1.358 . S
C7 H65 0.930 . S
C8 N5 1.314 . S
C8 C6 1.353 . S
C8 H66 0.930 . S
C9 N5 1.279 . S
C9 C7 1.358 . S
C9 H67 0.930 . S
C10 C13 1.348 . S
C10 C14 1.356 . S
C10 O61 1.325 1_655 S
C11 N12 1.279 . S
C11 C14 1.358 . S
C11 H68 0.930 . S
N12 C11 1.279 . S
N12 C15 1.314 . S
C13 C10 1.348 . S
C13 C15 1.353 . S
C13 H69 0.929 . S
C14 C10 1.356 . S
C14 C11 1.358 . S
C14 H70 0.930 1_655 S
C15 N12 1.314 . S
C15 C13 1.353 . S
C15 H71 0.930 . S
C16 N17 1.314 . S
C16 C21 1.353 . S
C16 H22 0.930 . S
N17 Li0 1.990 1_655 S
N17 C16 1.314 . S
N17 C19 1.279 . S
C18 C19 1.358 . S
C18 C20 1.356 . S
C18 H72 0.930 . S
C19 N17 1.279 . S
C19 C18 1.358 . S
C19 H23 0.930 . S
C20 C18 1.356 . S
C20 C21 1.348 . S
C21 C16 1.353 . S
C21 C20 1.348 . S
C21 H73 0.929 . S
H22 C16 0.930 . S
H23 C19 0.930 . S
C24 N25 1.314 . S
C24 C26 1.353 . S
C24 H30 0.930 . S
N25 Li1 1.990 . S
N25 C24 1.314 . S
N25 C28 1.279 . S
C26 C24 1.353 . S
C26 C29 1.348 . S
C26 H74 0.929 . S
C27 C28 1.358 . S
C27 C29 1.356 . S
C27 H75 0.930 . S
C28 N25 1.279 . S
C28 C27 1.358 . S
C28 H31 0.930 . S
C29 C26 1.348 . S
C29 C27 1.356 . S
H30 C24 0.930 . S
H31 C28 0.930 . S
C32 C34 1.348 . S
C32 C35 1.356 . S
C32 O62 1.325 . S
N33 C36 1.314 . S
N33 C37 1.279 . S
C34 C32 1.348 . S
C34 C36 1.353 . S
C34 H76 0.929 . S
C35 C32 1.356 . S
C35 C37 1.358 . S
C35 H77 0.930 . S
C36 N33 1.314 . S
C36 C34 1.353 . S
C36 H78 0.930 . S
C37 N33 1.279 . S
C37 C35 1.358 . S
C37 H79 0.930 . S
C38 C39 1.348 . S
C38 C40 1.356 . S
C38 O63 1.325 . S
C39 C38 1.348 . S
C39 C41 1.353 . S
C39 H80 0.929 . S
C40 C38 1.356 . S
C40 C42 1.358 . S
C40 H81 0.930 . S
C41 C39 1.353 . S
C41 N43 1.314 . S
C41 H82 0.930 . S
C42 C40 1.358 . S
C42 N43 1.279 . S
C42 H83 0.930 . S
N43 C41 1.314 . S
N43 C42 1.279 . S
C44 C46 1.353 . S
C44 N47 1.314 . S
C44 H50 0.930 . S
C45 N47 1.279 . S
C45 C48 1.358 . S
C45 H51 0.930 . S
C46 C44 1.353 . S
C46 C49 1.348 . S
C46 H84 0.929 . S
N47 Li2 1.990 . S
N47 C44 1.314 . S
N47 C45 1.279 . S
C48 C45 1.358 . S
C48 C49 1.356 . S
C48 H85 0.930 . S
C49 C46 1.348 . S
C49 C48 1.356 . S
H50 C44 0.930 . S
H51 C45 0.930 . S
C52 N53 1.314 . S
C52 C54 1.353 . S
C52 H58 0.930 1_455 S
N53 Li3 1.990 . S
N53 C52 1.314 . S
N53 C56 1.279 . S
C54 C52 1.353 . S
C54 C57 1.348 . S
C54 H86 0.929 1_455 S
C55 C56 1.358 . S
C55 C57 1.356 . S
C55 H87 0.930 . S
C56 N53 1.279 . S
C56 C55 1.358 . S
C56 H59 0.930 . S
C57 C54 1.348 . S
C57 C55 1.356 . S
H58 C52 0.930 1_655 S
H59 C56 0.930 . S
O60 Li0 1.956 . S
O60 Li1 1.970 . S
O60 Li2 1.961 . S
O60 C4 1.325 . S
O61 Li0 1.970 . S
O61 Li1 1.956 . S
O61 Li3 1.961 . S
O61 C10 1.325 1_455 S
O62 Li0 1.961 . S
O62 Li2 1.956 . S
O62 Li3 1.970 . S
O62 C32 1.325 . S
O63 Li1 1.961 . S
O63 Li2 1.970 . S
O63 Li3 1.956 . S
O63 C38 1.325 . S
H64 C6 0.929 . S
H65 C7 0.930 . S
H66 C8 0.930 . S
H67 C9 0.930 . S
H68 C11 0.930 . S
H69 C13 0.929 . S
H70 C14 0.930 1_455 S
H71 C15 0.930 . S
H72 C18 0.930 . S
H73 C21 0.929 . S
H74 C26 0.929 . S
H75 C27 0.930 . S
H76 C34 0.929 . S
H77 C35 0.930 . S
H78 C36 0.930 . S
H79 C37 0.930 . S
H80 C39 0.929 . S
H81 C40 0.930 . S
H82 C41 0.930 . S
H83 C42 0.930 . S
H84 C46 0.929 . S
H85 C48 0.930 . S
H86 C54 0.929 1_655 S
H87 C55 0.930 . S
Li88 N105 1.990 . S
Li88 O148 1.956 . S
Li88 O149 1.970 . S
Li88 O150 1.961 1_455 S
Li89 N113 1.990 . S
Li89 O148 1.970 . S
Li89 O149 1.956 . S
Li89 O151 1.961 . S
Li90 N135 1.990 . S
Li90 O148 1.961 . S
Li90 O150 1.956 1_455 S
Li90 O151 1.970 . S
Li91 N141 1.990 1_455 S
Li91 O149 1.961 . S
Li91 O150 1.970 1_455 S
Li91 O151 1.956 . S
C92 C94 1.348 . S
C92 C95 1.356 . S
C92 O148 1.325 . S
N93 C96 1.314 . S
N93 C97 1.279 . S
C94 C92 1.348 . S
C94 C96 1.353 . S
C94 H152 0.929 . S
C95 C92 1.356 . S
C95 C97 1.358 . S
C95 H153 0.930 . S
C96 N93 1.314 . S
C96 C94 1.353 . S
C96 H154 0.930 . S
C97 N93 1.279 . S
C97 C95 1.358 . S
C97 H155 0.930 . S
C98 C101 1.348 . S
C98 C102 1.356 . S
C98 O149 1.325 . S
C99 N100 1.279 . S
C99 C102 1.358 . S
C99 H156 0.930 . S
N100 C99 1.279 . S
N100 C103 1.314 . S
C101 C98 1.348 . S
C101 C103 1.353 . S
C101 H157 0.929 . S
C102 C98 1.356 . S
C102 C99 1.358 . S
C102 H158 0.930 . S
C103 N100 1.314 . S
C103 C101 1.353 . S
C103 H159 0.930 . S
C104 N105 1.314 . S
C104 C109 1.353 . S
C104 H110 0.891 1_455 S
N105 Li88 1.990 . S
N105 C104 1.314 . S
N105 C107 1.279 . S
C106 C107 1.358 . S
C106 C108 1.356 . S
C106 H160 0.930 . S
C107 N105 1.279 . S
C107 C106 1.358 . S
C107 H111 0.930 . S
C108 C106 1.356 . S
C108 C109 1.348 . S
C109 C104 1.353 . S
C109 C108 1.348 . S
C109 H161 0.909 1_455 S
H110 C104 0.891 1_655 S
H111 C107 0.930 . S
C112 N113 1.314 . S
C112 C114 1.353 . S
C112 H118 0.930 . S
N113 Li89 1.990 . S
N113 C112 1.314 . S
N113 C116 1.279 . S
C114 C112 1.353 . S
C114 C117 1.348 . S
C114 H162 0.929 . S
C115 C116 1.358 . S
C115 C117 1.356 . S
C115 H163 0.930 . S
C116 N113 1.279 . S
C116 C115 1.358 . S
C116 H119 0.930 . S
C117 C114 1.348 . S
C117 C115 1.356 . S
H118 C112 0.930 . S
H119 C116 0.930 . S
C120 C122 1.348 . S
C120 C123 1.356 . S
C120 O150 1.325 . S
N121 C124 1.314 . S
N121 C125 1.279 . S
C122 C120 1.348 . S
C122 C124 1.353 . S
C122 H164 0.929 . S
C123 C120 1.356 . S
C123 C125 1.358 . S
C123 H165 0.930 . S
C124 N121 1.314 . S
C124 C122 1.353 . S
C124 H166 0.930 . S
C125 N121 1.279 . S
C125 C123 1.358 . S
C125 H167 0.930 . S
C126 C127 1.348 . S
C126 C128 1.356 . S
C126 O151 1.325 . S
C127 C126 1.348 . S
C127 C129 1.353 . S
C127 H168 0.929 . S
C128 C126 1.356 . S
C128 C130 1.358 . S
C128 H169 0.930 . S
C129 C127 1.353 . S
C129 N131 1.314 . S
C129 H170 0.930 . S
C130 C128 1.358 . S
C130 N131 1.279 . S
C130 H171 0.930 . S
N131 C129 1.314 . S
N131 C130 1.279 . S
C132 C134 1.353 . S
C132 N135 1.314 . S
C132 H138 0.930 . S
C133 N135 1.279 1_655 S
C133 C136 1.358 . S
C133 H139 0.930 . S
C134 C132 1.353 . S
C134 C137 1.348 . S
C134 H172 0.929 . S
N135 Li90 1.990 . S
N135 C132 1.314 . S
N135 C133 1.279 1_455 S
C136 C133 1.358 . S
C136 C137 1.356 1_655 S
C136 H173 0.930 . S
C137 C134 1.348 . S
C137 C136 1.356 1_455 S
H138 C132 0.930 . S
H139 C133 0.930 . S
C140 N141 1.314 . S
C140 C142 1.353 . S
C140 H146 0.930 . S
N141 Li91 1.990 1_655 S
N141 C140 1.314 . S
N141 C144 1.279 . S
C142 C140 1.353 . S
C142 C145 1.348 . S
C142 H174 0.929 . S
C143 C144 1.358 . S
C143 C145 1.356 . S
C143 H175 0.930 . S
C144 N141 1.279 . S
C144 C143 1.358 . S
C144 H147 0.930 . S
C145 C142 1.348 . S
C145 C143 1.356 . S
H146 C140 0.930 . S
H147 C144 0.930 . S
O148 Li88 1.956 . S
O148 Li89 1.970 . S
O148 Li90 1.961 . S
O148 C92 1.325 . S
O149 Li88 1.970 . S
O149 Li89 1.956 . S
O149 Li91 1.961 . S
O149 C98 1.325 . S
O150 Li88 1.961 1_655 S
O150 Li90 1.956 1_655 S
O150 Li91 1.970 1_655 S
O150 C120 1.325 . S
O151 Li89 1.961 . S
O151 Li90 1.970 . S
O151 Li91 1.956 . S
O151 C126 1.325 . S
H152 C94 0.929 . S
H153 C95 0.930 . S
H154 C96 0.930 . S
H155 C97 0.930 . S
H156 C99 0.930 . S
H157 C101 0.929 . S
H158 C102 0.930 . S
H159 C103 0.930 . S
H160 C106 0.930 . S
H161 C109 0.909 1_655 S
H162 C114 0.929 . S
H163 C115 0.930 . S
H164 C122 0.929 . S
H165 C123 0.930 . S
H166 C124 0.930 . S
H167 C125 0.930 . S
H168 C127 0.929 . S
H169 C128 0.930 . S
H170 C129 0.930 . S
H171 C130 0.930 . S
H172 C134 0.929 . S
H173 C136 0.930 . S
H174 C142 0.929 . S
H175 C143 0.930 . S
Li176 N193 1.990 . S
Li176 O236 1.956 . S
Li176 O237 1.970 . S
Li176 O238 1.961 . S
Li177 N201 1.990 . S
Li177 O236 1.970 . S
Li177 O237 1.956 . S
Li177 O239 1.961 . S
Li178 N223 1.990 . S
Li178 O236 1.961 . S
Li178 O238 1.956 . S
Li178 O239 1.970 . S
Li179 N229 1.990 . S
Li179 O237 1.961 . S
Li179 O238 1.970 . S
Li179 O239 1.956 . S
C180 C182 1.348 . S
C180 C183 1.356 . S
C180 O236 1.325 . S
N181 C184 1.314 . S
N181 C185 1.279 . S
C182 C180 1.348 . S
C182 C184 1.353 . S
C182 H240 0.929 . S
C183 C180 1.356 . S
C183 C185 1.358 . S
C183 H241 0.930 . S
C184 N181 1.314 . S
C184 C182 1.353 . S
C184 H242 0.930 . S
C185 N181 1.279 . S
C185 C183 1.358 . S
C185 H243 0.930 . S
C186 C189 1.348 . S
C186 C190 1.356 . S
C186 O237 1.325 . S
C187 N188 1.279 . S
C187 C190 1.358 . S
C187 H244 0.930 . S
N188 C187 1.279 . S
N188 C191 1.314 . S
C189 C186 1.348 . S
C189 C191 1.353 . S
C189 H245 0.929 . S
C190 C186 1.356 . S
C190 C187 1.358 . S
C190 H246 0.930 . S
C191 N188 1.314 . S
C191 C189 1.353 . S
C191 H247 0.930 . S
C192 N193 1.314 . S
C192 C197 1.353 . S
C192 H198 0.930 . S
N193 Li176 1.990 . S
N193 C192 1.314 . S
N193 C195 1.279 . S
C194 C195 1.358 . S
C194 C196 1.356 . S
C194 H248 0.930 . S
C195 N193 1.279 . S
C195 C194 1.358 . S
C195 H199 0.930 . S
C196 C194 1.356 . S
C196 C197 1.348 . S
C197 C192 1.353 . S
C197 C196 1.348 . S
C197 H249 0.929 . S
H198 C192 0.930 . S
H199 C195 0.930 . S
C200 N201 1.314 . S
C200 C202 1.353 . S
C200 H206 0.930 . S
N201 Li177 1.990 . S
N201 C200 1.314 . S
N201 C204 1.279 . S
C202 C200 1.353 . S
C202 C205 1.348 . S
C202 H250 0.929 . S
C203 C204 1.358 . S
C203 C205 1.356 . S
C203 H251 0.930 . S
C204 N201 1.279 . S
C204 C203 1.358 . S
C204 H207 0.930 . S
C205 C202 1.348 . S
C205 C203 1.356 . S
H206 C200 0.930 . S
H207 C204 0.930 . S
C208 C210 1.348 . S
C208 C211 1.356 . S
C208 O238 1.325 . S
N209 C212 1.314 . S
N209 C213 1.279 . S
C210 C208 1.348 . S
C210 C212 1.353 . S
C210 H252 0.929 . S
C211 C208 1.356 . S
C211 C213 1.358 . S
C211 H253 0.930 . S
C212 N209 1.314 . S
C212 C210 1.353 . S
C212 H254 0.930 . S
C213 N209 1.279 . S
C213 C211 1.358 . S
C213 H255 0.930 . S
C214 C215 1.348 . S
C214 C216 1.356 . S
C214 O239 1.325 . S
C215 C214 1.348 . S
C215 C217 1.353 . S
C215 H256 0.929 . S
C216 C214 1.356 . S
C216 C218 1.358 . S
C216 H257 0.930 . S
C217 C215 1.353 . S
C217 N219 1.314 . S
C217 H258 0.930 . S
C218 C216 1.358 . S
C218 N219 1.279 . S
C218 H259 0.930 . S
N219 C217 1.314 . S
N219 C218 1.279 . S
C220 C222 1.353 . S
C220 N223 1.314 . S
C220 H226 0.930 . S
C221 N223 1.279 . S
C221 C224 1.358 . S
C221 H227 0.930 . S
C222 C220 1.353 . S
C222 C225 1.348 . S
C222 H260 0.929 . S
N223 Li178 1.990 . S
N223 C220 1.314 . S
N223 C221 1.279 . S
C224 C221 1.358 . S
C224 C225 1.356 . S
C224 H261 0.930 . S
C225 C222 1.348 . S
C225 C224 1.356 . S
H226 C220 0.930 . S
H227 C221 0.930 . S
C228 N229 1.314 . S
C228 C230 1.353 . S
C228 H234 0.930 . S
N229 Li179 1.990 . S
N229 C228 1.314 . S
N229 C232 1.279 . S
C230 C228 1.353 . S
C230 C233 1.348 . S
C230 H262 0.929 . S
C231 C232 1.358 . S
C231 C233 1.356 . S
C231 H263 0.930 . S
C232 N229 1.279 . S
C232 C231 1.358 . S
C232 H235 0.930 . S
C233 C230 1.348 . S
C233 C231 1.356 . S
H234 C228 0.930 . S
H235 C232 0.930 . S
O236 Li176 1.956 . S
O236 Li177 1.970 . S
O236 Li178 1.961 . S
O236 C180 1.325 . S
O237 Li176 1.970 . S
O237 Li177 1.956 . S
O237 Li179 1.961 . S
O237 C186 1.325 . S
O238 Li176 1.961 . S
O238 Li178 1.956 . S
O238 Li179 1.970 . S
O238 C208 1.325 . S
O239 Li177 1.961 . S
O239 Li178 1.970 . S
O239 Li179 1.956 . S
O239 C214 1.325 . S
H240 C182 0.929 . S
H241 C183 0.930 . S
H242 C184 0.930 . S
H243 C185 0.930 . S
H244 C187 0.930 . S
H245 C189 0.929 . S
H246 C190 0.930 . S
H247 C191 0.930 . S
H248 C194 0.930 . S
H249 C197 0.929 . S
H250 C202 0.929 . S
H251 C203 0.930 . S
H252 C210 0.929 . S
H253 C211 0.930 . S
H254 C212 0.930 . S
H255 C213 0.930 . S
H256 C215 0.929 . S
H257 C216 0.930 . S
H258 C217 0.930 . S
H259 C218 0.930 . S
H260 C222 0.929 . S
H261 C224 0.930 . S
H262 C230 0.929 . S
H263 C231 0.930 . S
Li264 N281 1.990 . S
Li264 O324 1.956 . S
Li264 O325 1.970 . S
Li264 O326 1.961 . S
Li265 N289 1.990 . S
Li265 O324 1.970 . S
Li265 O325 1.956 . S
Li265 O327 1.961 . S
Li266 N311 1.990 . S
Li266 O324 1.961 . S
Li266 O326 1.956 . S
Li266 O327 1.970 . S
Li267 N317 1.990 . S
Li267 O325 1.961 . S
Li267 O326 1.970 . S
Li267 O327 1.956 . S
C268 C270 1.348 . S
C268 C271 1.356 . S
C268 O324 1.325 . S
N269 C272 1.314 . S
N269 C273 1.279 . S
C270 C268 1.348 . S
C270 C272 1.353 . S
C270 H328 0.929 . S
C271 C268 1.356 . S
C271 C273 1.358 . S
C271 H329 0.930 . S
C272 N269 1.314 . S
C272 C270 1.353 . S
C272 H330 0.930 . S
C273 N269 1.279 . S
C273 C271 1.358 . S
C273 H331 0.930 . S
C274 C277 1.348 . S
C274 C278 1.356 . S
C274 O325 1.325 . S
C275 N276 1.279 . S
C275 C278 1.358 . S
C275 H332 0.930 . S
N276 C275 1.279 . S
N276 C279 1.314 . S
C277 C274 1.348 . S
C277 C279 1.353 . S
C277 H333 0.929 . S
C278 C274 1.356 . S
C278 C275 1.358 . S
C278 H334 0.930 . S
C279 N276 1.314 . S
C279 C277 1.353 . S
C279 H335 0.930 . S
C280 N281 1.314 . S
C280 C285 1.353 . S
C280 H286 0.930 . S
N281 Li264 1.990 . S
N281 C280 1.314 . S
N281 C283 1.279 . S
C282 C283 1.358 . S
C282 C284 1.356 . S
C282 H336 0.930 . S
C283 N281 1.279 . S
C283 C282 1.358 . S
C283 H287 0.930 . S
C284 C282 1.356 . S
C284 C285 1.348 . S
C285 C280 1.353 . S
C285 C284 1.348 . S
C285 H337 0.929 . S
H286 C280 0.930 . S
H287 C283 0.930 . S
C288 N289 1.314 . S
C288 C290 1.353 . S
C288 H294 0.930 . S
N289 Li265 1.990 . S
N289 C288 1.314 . S
N289 C292 1.279 . S
C290 C288 1.353 . S
C290 C293 1.348 . S
C290 H338 0.929 . S
C291 C292 1.358 . S
C291 C293 1.356 . S
C291 H339 0.930 . S
C292 N289 1.279 . S
C292 C291 1.358 . S
C292 H295 0.930 . S
C293 C290 1.348 . S
C293 C291 1.356 . S
H294 C288 0.930 . S
H295 C292 0.930 . S
C296 C298 1.348 . S
C296 C299 1.356 . S
C296 O326 1.325 . S
N297 C300 1.314 . S
N297 C301 1.279 . S
C298 C296 1.348 . S
C298 C300 1.353 . S
C298 H340 0.929 . S
C299 C296 1.356 . S
C299 C301 1.358 . S
C299 H341 0.930 . S
C300 N297 1.314 . S
C300 C298 1.353 . S
C300 H342 0.930 . S
C301 N297 1.279 . S
C301 C299 1.358 . S
C301 H343 0.930 . S
C302 C303 1.348 . S
C302 C304 1.356 . S
C302 O327 1.325 . S
C303 C302 1.348 . S
C303 C305 1.353 . S
C303 H344 0.929 . S
C304 C302 1.356 . S
C304 C306 1.358 . S
C304 H345 0.930 . S
C305 C303 1.353 . S
C305 N307 1.314 . S
C305 H346 0.930 . S
C306 C304 1.358 . S
C306 N307 1.279 . S
C306 H347 0.930 . S
N307 C305 1.314 . S
N307 C306 1.279 . S
C308 C310 1.353 . S
C308 N311 1.314 . S
C308 H314 0.930 . S
C309 N311 1.279 . S
C309 C312 1.358 . S
C309 H315 0.930 . S
C310 C308 1.353 . S
C310 C313 1.348 . S
C310 H348 0.929 . S
N311 Li266 1.990 . S
N311 C308 1.314 . S
N311 C309 1.279 . S
C312 C309 1.358 . S
C312 C313 1.356 . S
C312 H349 0.930 . S
C313 C310 1.348 . S
C313 C312 1.356 . S
H314 C308 0.930 . S
H315 C309 0.930 . S
C316 N317 1.314 . S
C316 C318 1.353 . S
C316 H322 0.930 . S
N317 Li267 1.990 . S
N317 C316 1.314 . S
N317 C320 1.279 . S
C318 C316 1.353 . S
C318 C321 1.348 . S
C318 H350 0.929 . S
C319 C320 1.358 . S
C319 C321 1.356 . S
C319 H351 0.930 . S
C320 N317 1.279 . S
C320 C319 1.358 . S
C320 H323 0.930 . S
C321 C318 1.348 . S
C321 C319 1.356 . S
H322 C316 0.930 . S
H323 C320 0.930 . S
O324 Li264 1.956 . S
O324 Li265 1.970 . S
O324 Li266 1.961 . S
O324 C268 1.325 . S
O325 Li264 1.970 . S
O325 Li265 1.956 . S
O325 Li267 1.961 . S
O325 C274 1.325 . S
O326 Li264 1.961 . S
O326 Li266 1.956 . S
O326 Li267 1.970 . S
O326 C296 1.325 . S
O327 Li265 1.961 . S
O327 Li266 1.970 . S
O327 Li267 1.956 . S
O327 C302 1.325 . S
H328 C270 0.929 . S
H329 C271 0.930 . S
H330 C272 0.930 . S
H331 C273 0.930 . S
H332 C275 0.930 . S
H333 C277 0.929 . S
H334 C278 0.930 . S
H335 C279 0.930 . S
H336 C282 0.930 . S
H337 C285 0.929 . S
H338 C290 0.929 . S
H339 C291 0.930 . S
H340 C298 0.929 . S
H341 C299 0.930 . S
H342 C300 0.930 . S
H343 C301 0.930 . S
H344 C303 0.929 . S
H345 C304 0.930 . S
H346 C305 0.930 . S
H347 C306 0.930 . S
H348 C310 0.929 . S
H349 C312 0.930 . S
H350 C318 0.929 . S
H351 C319 0.930 . S
Li352 N369 1.990 . S
Li352 O412 1.956 . S
Li352 O413 1.970 . S
Li352 O414 1.961 . S
Li353 N377 1.990 . S
Li353 O412 1.970 . S
Li353 O413 1.956 . S
Li353 O415 1.961 . S
Li354 N399 1.990 . S
Li354 O412 1.961 . S
Li354 O414 1.956 . S
Li354 O415 1.970 . S
Li355 N405 1.990 . S
Li355 O413 1.961 . S
Li355 O414 1.970 . S
Li355 O415 1.956 . S
C356 C358 1.348 . S
C356 C359 1.356 . S
C356 O412 1.325 . S
N357 C360 1.314 . S
N357 C361 1.279 . S
C358 C356 1.348 . S
C358 C360 1.353 . S
C358 H416 0.929 . S
C359 C356 1.356 . S
C359 C361 1.358 . S
C359 H417 0.930 . S
C360 N357 1.314 . S
C360 C358 1.353 . S
C360 H418 0.930 . S
C361 N357 1.279 . S
C361 C359 1.358 . S
C361 H419 0.930 . S
C362 C365 1.348 . S
C362 C366 1.356 . S
C362 O413 1.325 . S
C363 N364 1.279 . S
C363 C366 1.358 . S
C363 H420 0.930 . S
N364 C363 1.279 . S
N364 C367 1.314 . S
C365 C362 1.348 . S
C365 C367 1.353 . S
C365 H421 0.929 . S
C366 C362 1.356 . S
C366 C363 1.358 . S
C366 H422 0.930 . S
C367 N364 1.314 . S
C367 C365 1.353 . S
C367 H423 0.930 . S
C368 N369 1.314 . S
C368 C373 1.353 . S
C368 H374 0.930 . S
N369 Li352 1.990 . S
N369 C368 1.314 . S
N369 C371 1.279 . S
C370 C371 1.358 . S
C370 C372 1.356 . S
C370 H424 0.930 . S
C371 N369 1.279 . S
C371 C370 1.358 . S
C371 H375 0.930 . S
C372 C370 1.356 . S
C372 C373 1.348 . S
C373 C368 1.353 . S
C373 C372 1.348 . S
C373 H425 0.929 . S
H374 C368 0.930 . S
H375 C371 0.930 . S
C376 N377 1.314 . S
C376 C378 1.353 . S
C376 H382 0.930 . S
N377 Li353 1.990 . S
N377 C376 1.314 . S
N377 C380 1.279 . S
C378 C376 1.353 . S
C378 C381 1.348 . S
C378 H426 0.929 . S
C379 C380 1.358 . S
C379 C381 1.356 . S
C379 H427 0.930 . S
C380 N377 1.279 . S
C380 C379 1.358 . S
C380 H383 0.930 . S
C381 C378 1.348 . S
C381 C379 1.356 . S
H382 C376 0.930 . S
H383 C380 0.930 . S
C384 C386 1.348 1_455 S
C384 C387 1.356 . S
C384 O414 1.325 . S
N385 C388 1.314 . S
N385 C389 1.279 . S
C386 C384 1.348 1_655 S
C386 C388 1.353 . S
C386 H428 0.929 . S
C387 C384 1.356 . S
C387 C389 1.358 1_455 S
C387 H429 0.930 . S
C388 N385 1.314 . S
C388 C386 1.353 . S
C388 H430 0.930 . S
C389 N385 1.279 . S
C389 C387 1.358 1_655 S
C389 H431 0.930 . S
C390 C391 1.348 . S
C390 C392 1.356 . S
C390 O415 1.325 . S
C391 C390 1.348 . S
C391 C393 1.353 . S
C391 H432 0.929 . S
C392 C390 1.356 . S
C392 C394 1.358 . S
C392 H433 0.930 . S
C393 C391 1.353 . S
C393 N395 1.314 . S
C393 H434 0.930 . S
C394 C392 1.358 . S
C394 N395 1.279 . S
C394 H435 0.930 . S
N395 C393 1.314 . S
N395 C394 1.279 . S
C396 C398 1.353 . S
C396 N399 1.314 . S
C396 H402 0.930 . S
C397 N399 1.279 . S
C397 C400 1.358 . S
C397 H403 0.930 . S
C398 C396 1.353 . S
C398 C401 1.348 . S
C398 H436 0.929 . S
N399 Li354 1.990 . S
N399 C396 1.314 . S
N399 C397 1.279 . S
C400 C397 1.358 . S
C400 C401 1.356 . S
C400 H437 0.930 . S
C401 C398 1.348 . S
C401 C400 1.356 . S
H402 C396 0.930 . S
H403 C397 0.930 . S
C404 N405 1.314 . S
C404 C406 1.353 1_455 S
C404 H410 0.930 . S
N405 Li355 1.990 . S
N405 C404 1.314 . S
N405 C408 1.279 . S
C406 C404 1.353 1_655 S
C406 C409 1.348 . S
C406 H438 0.929 . S
C407 C408 1.358 1_655 S
C407 C409 1.356 . S
C407 H439 0.930 . S
C408 N405 1.279 . S
C408 C407 1.358 1_455 S
C408 H411 0.930 . S
C409 C406 1.348 . S
C409 C407 1.356 . S
H410 C404 0.930 . S
H411 C408 0.930 . S
O412 Li352 1.956 . S
O412 Li353 1.970 . S
O412 Li354 1.961 . S
O412 C356 1.325 . S
O413 Li352 1.970 . S
O413 Li353 1.956 . S
O413 Li355 1.961 . S
O413 C362 1.325 . S
O414 Li352 1.961 . S
O414 Li354 1.956 . S
O414 Li355 1.970 . S
O414 C384 1.325 . S
O415 Li353 1.961 . S
O415 Li354 1.970 . S
O415 Li355 1.956 . S
O415 C390 1.325 . S
H416 C358 0.929 . S
H417 C359 0.930 . S
H418 C360 0.930 . S
H419 C361 0.930 . S
H420 C363 0.930 . S
H421 C365 0.929 . S
H422 C366 0.930 . S
H423 C367 0.930 . S
H424 C370 0.930 . S
H425 C373 0.929 . S
H426 C378 0.929 . S
H427 C379 0.930 . S
H428 C386 0.929 . S
H429 C387 0.930 . S
H430 C388 0.930 . S
H431 C389 0.930 . S
H432 C391 0.929 . S
H433 C392 0.930 . S
H434 C393 0.930 . S
H435 C394 0.930 . S
H436 C398 0.929 . S
H437 C400 0.930 . S
H438 C406 0.929 . S
H439 C407 0.930 . S
Li440 N457 1.990 . S
Li440 O500 1.956 . S
Li440 O501 1.970 . S
Li440 O502 1.961 . S
Li441 N465 1.990 . S
Li441 O500 1.970 . S
Li441 O501 1.956 . S
Li441 O503 1.961 . S
Li442 N487 1.990 . S
Li442 O500 1.961 . S
Li442 O502 1.956 . S
Li442 O503 1.970 . S
Li443 N493 1.990 . S
Li443 O501 1.961 . S
Li443 O502 1.970 . S
Li443 O503 1.956 . S
C444 C446 1.348 . S
C444 C447 1.356 . S
C444 O500 1.325 . S
N445 C448 1.314 . S
N445 C449 1.279 . S
C446 C444 1.348 . S
C446 C448 1.353 . S
C446 H504 0.929 . S
C447 C444 1.356 . S
C447 C449 1.358 . S
C447 H505 0.930 . S
C448 N445 1.314 . S
C448 C446 1.353 . S
C448 H506 0.930 . S
C449 N445 1.279 . S
C449 C447 1.358 . S
C449 H507 0.930 . S
C450 C453 1.348 . S
C450 C454 1.356 . S
C450 O501 1.325 . S
C451 N452 1.279 . S
C451 C454 1.358 . S
C451 H508 0.930 . S
N452 C451 1.279 . S
N452 C455 1.314 . S
C453 C450 1.348 . S
C453 C455 1.353 . S
C453 H509 0.929 . S
C454 C450 1.356 . S
C454 C451 1.358 . S
C454 H510 0.930 . S
C455 N452 1.314 . S
C455 C453 1.353 . S
C455 H511 0.930 . S
C456 N457 1.314 . S
C456 C461 1.353 . S
C456 H462 0.930 . S
N457 Li440 1.990 . S
N457 C456 1.314 . S
N457 C459 1.279 . S
C458 C459 1.358 . S
C458 C460 1.356 . S
C458 H512 0.930 . S
C459 N457 1.279 . S
C459 C458 1.358 . S
C459 H463 0.930 . S
C460 C458 1.356 . S
C460 C461 1.348 . S
C461 C456 1.353 . S
C461 C460 1.348 . S
C461 H513 0.929 . S
H462 C456 0.930 . S
H463 C459 0.930 . S
C464 N465 1.314 . S
C464 C466 1.353 . S
C464 H470 0.930 . S
N465 Li441 1.990 . S
N465 C464 1.314 . S
N465 C468 1.279 . S
C466 C464 1.353 . S
C466 C469 1.348 . S
C466 H514 0.929 . S
C467 C468 1.358 . S
C467 C469 1.356 . S
C467 H515 0.930 . S
C468 N465 1.279 . S
C468 C467 1.358 . S
C468 H471 0.930 . S
C469 C466 1.348 . S
C469 C467 1.356 . S
H470 C464 0.930 . S
H471 C468 0.930 . S
C472 C474 1.348 . S
C472 C475 1.356 . S
C472 O502 1.325 . S
N473 C476 1.314 . S
N473 C477 1.279 . S
C474 C472 1.348 . S
C474 C476 1.353 . S
C474 H516 0.929 . S
C475 C472 1.356 . S
C475 C477 1.358 . S
C475 H517 0.930 . S
C476 N473 1.314 . S
C476 C474 1.353 . S
C476 H518 0.930 . S
C477 N473 1.279 . S
C477 C475 1.358 . S
C477 H519 0.930 . S
C478 C479 1.348 . S
C478 C480 1.356 . S
C478 O503 1.325 . S
C479 C478 1.348 . S
C479 C481 1.353 . S
C479 H520 0.929 . S
C480 C478 1.356 . S
C480 C482 1.358 . S
C480 H521 0.930 . S
C481 C479 1.353 . S
C481 N483 1.314 . S
C481 H522 0.930 . S
C482 C480 1.358 . S
C482 N483 1.279 . S
C482 H523 0.930 . S
N483 C481 1.314 . S
N483 C482 1.279 . S
C484 C486 1.353 . S
C484 N487 1.314 . S
C484 H490 0.930 . S
C485 N487 1.279 . S
C485 C488 1.358 . S
C485 H491 0.930 . S
C486 C484 1.353 . S
C486 C489 1.348 . S
C486 H524 0.929 . S
N487 Li442 1.990 . S
N487 C484 1.314 . S
N487 C485 1.279 . S
C488 C485 1.358 . S
C488 C489 1.356 . S
C488 H525 0.930 . S
C489 C486 1.348 . S
C489 C488 1.356 . S
H490 C484 0.930 . S
H491 C485 0.930 . S
C492 N493 1.314 . S
C492 C494 1.353 . S
C492 H498 0.930 . S
N493 Li443 1.990 . S
N493 C492 1.314 . S
N493 C496 1.279 . S
C494 C492 1.353 . S
C494 C497 1.348 . S
C494 H526 0.929 . S
C495 C496 1.358 . S
C495 C497 1.356 . S
C495 H527 0.930 . S
C496 N493 1.279 . S
C496 C495 1.358 . S
C496 H499 0.930 . S
C497 C494 1.348 . S
C497 C495 1.356 . S
H498 C492 0.930 . S
H499 C496 0.930 . S
O500 Li440 1.956 . S
O500 Li441 1.970 . S
O500 Li442 1.961 . S
O500 C444 1.325 . S
O501 Li440 1.970 . S
O501 Li441 1.956 . S
O501 Li443 1.961 . S
O501 C450 1.325 . S
O502 Li440 1.961 . S
O502 Li442 1.956 . S
O502 Li443 1.970 . S
O502 C472 1.325 . S
O503 Li441 1.961 . S
O503 Li442 1.970 . S
O503 Li443 1.956 . S
O503 C478 1.325 . S
H504 C446 0.929 . S
H505 C447 0.930 . S
H506 C448 0.930 . S
H507 C449 0.930 . S
H508 C451 0.930 . S
H509 C453 0.929 . S
H510 C454 0.930 . S
H511 C455 0.930 . S
H512 C458 0.930 . S
H513 C461 0.929 . S
H514 C466 0.929 . S
H515 C467 0.930 . S
H516 C474 0.929 . S
H517 C475 0.930 . S
H518 C476 0.930 . S
H519 C477 0.930 . S
H520 C479 0.929 . S
H521 C480 0.930 . S
H522 C481 0.930 . S
H523 C482 0.930 . S
H524 C486 0.929 . S
H525 C488 0.930 . S
H526 C494 0.929 . S
H527 C495 0.930 . S
Li528 N545 1.990 . S
Li528 O588 1.956 . S
Li528 O589 1.970 . S
Li528 O590 1.961 . S
Li529 N553 1.990 . S
Li529 O588 1.970 . S
Li529 O589 1.956 . S
Li529 O591 1.961 . S
Li530 N575 1.990 . S
Li530 O588 1.961 . S
Li530 O590 1.956 . S
Li530 O591 1.970 . S
Li531 N581 1.990 . S
Li531 O589 1.961 . S
Li531 O590 1.970 . S
Li531 O591 1.956 . S
C532 C534 1.348 . S
C532 C535 1.356 . S
C532 O588 1.325 . S
N533 C536 1.314 . S
N533 C537 1.279 . S
C534 C532 1.348 . S
C534 C536 1.353 . S
C534 H592 0.929 . S
C535 C532 1.356 . S
C535 C537 1.358 . S
C535 H593 0.930 . S
C536 N533 1.314 . S
C536 C534 1.353 . S
C536 H594 0.930 . S
C537 N533 1.279 . S
C537 C535 1.358 . S
C537 H595 0.930 . S
C538 C541 1.348 . S
C538 C542 1.356 . S
C538 O589 1.325 . S
C539 N540 1.279 . S
C539 C542 1.358 . S
C539 H596 0.930 . S
N540 C539 1.279 . S
N540 C543 1.314 . S
C541 C538 1.348 . S
C541 C543 1.353 . S
C541 H597 0.929 . S
C542 C538 1.356 . S
C542 C539 1.358 . S
C542 H598 0.930 . S
C543 N540 1.314 . S
C543 C541 1.353 . S
C543 H599 0.930 . S
C544 N545 1.314 . S
C544 C549 1.353 . S
C544 H550 0.930 . S
N545 Li528 1.990 . S
N545 C544 1.314 . S
N545 C547 1.279 . S
C546 C547 1.358 . S
C546 C548 1.356 . S
C546 H600 0.930 . S
C547 N545 1.279 . S
C547 C546 1.358 . S
C547 H551 0.930 . S
C548 C546 1.356 . S
C548 C549 1.348 . S
C549 C544 1.353 . S
C549 C548 1.348 . S
C549 H601 0.929 . S
H550 C544 0.930 . S
H551 C547 0.930 . S
C552 N553 1.314 . S
C552 C554 1.353 . S
C552 H558 0.930 . S
N553 Li529 1.990 . S
N553 C552 1.314 . S
N553 C556 1.279 . S
C554 C552 1.353 . S
C554 C557 1.348 . S
C554 H602 0.929 . S
C555 C556 1.358 . S
C555 C557 1.356 . S
C555 H603 0.930 . S
C556 N553 1.279 . S
C556 C555 1.358 . S
C556 H559 0.930 . S
C557 C554 1.348 . S
C557 C555 1.356 . S
H558 C552 0.930 . S
H559 C556 0.930 . S
C560 C562 1.348 . S
C560 C563 1.356 . S
C560 O590 1.325 . S
N561 C564 1.314 . S
N561 C565 1.279 . S
C562 C560 1.348 . S
C562 C564 1.353 . S
C562 H604 0.929 . S
C563 C560 1.356 . S
C563 C565 1.358 . S
C563 H605 0.930 . S
C564 N561 1.314 . S
C564 C562 1.353 . S
C564 H606 0.930 . S
C565 N561 1.279 . S
C565 C563 1.358 . S
C565 H607 0.930 . S
C566 C567 1.348 . S
C566 C568 1.356 . S
C566 O591 1.325 . S
C567 C566 1.348 . S
C567 C569 1.353 . S
C567 H608 0.929 . S
C568 C566 1.356 . S
C568 C570 1.358 . S
C568 H609 0.930 . S
C569 C567 1.353 . S
C569 N571 1.314 . S
C569 H610 0.930 . S
C570 C568 1.358 . S
C570 N571 1.279 . S
C570 H611 0.930 . S
N571 C569 1.314 . S
N571 C570 1.279 . S
C572 C574 1.353 . S
C572 N575 1.314 . S
C572 H578 0.930 . S
C573 N575 1.279 . S
C573 C576 1.358 . S
C573 H579 0.930 . S
C574 C572 1.353 . S
C574 C577 1.348 . S
C574 H612 0.929 . S
N575 Li530 1.990 . S
N575 C572 1.314 . S
N575 C573 1.279 . S
C576 C573 1.358 . S
C576 C577 1.356 . S
C576 H613 0.930 . S
C577 C574 1.348 . S
C577 C576 1.356 . S
H578 C572 0.930 . S
H579 C573 0.930 . S
C580 N581 1.314 . S
C580 C582 1.353 . S
C580 H586 0.930 . S
N581 Li531 1.990 . S
N581 C580 1.314 . S
N581 C584 1.279 . S
C582 C580 1.353 . S
C582 C585 1.348 . S
C582 H614 0.929 . S
C583 C584 1.358 . S
C583 C585 1.356 . S
C583 H615 0.930 . S
C584 N581 1.279 . S
C584 C583 1.358 . S
C584 H587 0.930 . S
C585 C582 1.348 . S
C585 C583 1.356 . S
H586 C580 0.930 . S
H587 C584 0.930 . S
O588 Li528 1.956 . S
O588 Li529 1.970 . S
O588 Li530 1.961 . S
O588 C532 1.325 . S
O589 Li528 1.970 . S
O589 Li529 1.956 . S
O589 Li531 1.961 . S
O589 C538 1.325 . S
O590 Li528 1.961 . S
O590 Li530 1.956 . S
O590 Li531 1.970 . S
O590 C560 1.325 . S
O591 Li529 1.961 . S
O591 Li530 1.970 . S
O591 Li531 1.956 . S
O591 C566 1.325 . S
H592 C534 0.929 . S
H593 C535 0.930 . S
H594 C536 0.930 . S
H595 C537 0.930 . S
H596 C539 0.930 . S
H597 C541 0.929 . S
H598 C542 0.930 . S
H599 C543 0.930 . S
H600 C546 0.930 . S
H601 C549 0.929 . S
H602 C554 0.929 . S
H603 C555 0.930 . S
H604 C562 0.929 . S
H605 C563 0.930 . S
H606 C564 0.930 . S
H607 C565 0.930 . S
H608 C567 0.929 . S
H609 C568 0.930 . S
H610 C569 0.930 . S
H611 C570 0.930 . S
H612 C574 0.929 . S
H613 C576 0.930 . S
H614 C582 0.929 . S
H615 C583 0.930 . S
Li616 N633 1.990 1_556 S
Li616 O676 1.956 1_455 S
Li616 O677 1.970 . S
Li616 O678 1.961 . S
Li617 N641 1.990 . S
Li617 O676 1.970 . S
Li617 O677 1.956 1_655 S
Li617 O679 1.961 . S
Li618 N663 1.986 1_556 S
Li618 O676 2.004 . S
Li618 O678 1.925 1_655 S
Li618 O679 1.970 . S
Li619 N669 1.990 . S
Li619 O677 1.961 . S
Li619 O678 1.970 . S
Li619 O679 1.956 1_455 S
C620 C622 1.348 . S
C620 C623 1.356 1_556 S
C620 O676 1.325 . S
N621 C624 1.360 . S
N621 C625 1.279 . S
C622 C620 1.348 . S
C622 C624 1.321 1_556 S
C622 H680 0.929 . S
C623 C620 1.356 1_554 S
C623 C625 1.358 . S
C623 H681 0.930 . S
C624 N621 1.360 . S
C624 C622 1.321 1_554 S
C624 H682 0.915 1_554 S
C625 N621 1.279 . S
C625 C623 1.358 . S
C625 H683 0.930 . S
C626 C629 1.348 . S
C626 C630 1.356 . S
C626 O677 1.325 . S
C627 N628 1.279 . S
C627 C630 1.358 . S
C627 H684 0.930 . S
N628 C627 1.279 . S
N628 C631 1.314 . S
C629 C626 1.348 . S
C629 C631 1.353 . S
C629 H685 0.929 1_455 S
C630 C626 1.356 . S
C630 C627 1.358 . S
C630 H686 0.930 . S
C631 N628 1.314 . S
C631 C629 1.353 . S
C631 H687 0.930 . S
C632 N633 1.314 . S
C632 C637 1.353 . S
C632 H638 0.930 . S
N633 Li616 1.990 1_554 S
N633 C632 1.314 . S
N633 C635 1.279 1_455 S
C634 C635 1.358 . S
C634 C636 1.356 1_655 S
C634 H688 0.930 . S
C635 N633 1.279 1_655 S
C635 C634 1.358 . S
C635 H639 0.930 . S
C636 C634 1.356 1_455 S
C636 C637 1.348 . S
C637 C632 1.353 . S
C637 C636 1.348 . S
C637 H689 0.929 . S
H638 C632 0.930 . S
H639 C635 0.930 . S
C640 N641 1.314 . S
C640 C642 1.353 . S
C640 H646 0.930 . S
N641 Li617 1.990 . S
N641 C640 1.314 . S
N641 C644 1.279 . S
C642 C640 1.353 . S
C642 C645 1.348 . S
C642 H690 0.929 . S
C643 C644 1.358 . S
C643 C645 1.356 . S
C643 H691 0.930 . S
C644 N641 1.279 . S
C644 C643 1.358 . S
C644 H647 0.930 . S
C645 C642 1.348 . S
C645 C643 1.356 . S
H646 C640 0.930 . S
H647 C644 0.930 . S
C648 C650 1.346 . S
C648 C651 1.359 1_556 S
C648 O678 1.323 . S
N649 C652 1.314 . S
N649 C653 1.279 . S
C650 C648 1.346 . S
C650 C652 1.353 1_556 S
C650 H692 0.929 . S
C651 C648 1.359 1_554 S
C651 C653 1.358 . S
C651 H693 0.930 . S
C652 N649 1.314 . S
C652 C650 1.353 1_554 S
C652 H694 0.930 . S
C653 N649 1.279 . S
C653 C651 1.358 . S
C653 H695 0.930 . S
C654 C655 1.348 . S
C654 C656 1.356 . S
C654 O679 1.325 . S
C655 C654 1.348 . S
C655 C657 1.353 . S
C655 H696 0.921 1_655 S
C656 C654 1.356 . S
C656 C658 1.358 . S
C656 H697 0.930 . S
C657 C655 1.353 . S
C657 N659 1.314 . S
C657 H698 0.930 . S
C658 C656 1.358 . S
C658 N659 1.279 . S
C658 H699 0.930 . S
N659 C657 1.314 . S
N659 C658 1.279 . S
C660 C662 1.353 . S
C660 N663 1.314 . S
C660 H666 0.930 1_554 S
C661 N663 1.279 1_455 S
C661 C664 1.358 . S
C661 H667 0.930 . S
C662 C660 1.353 . S
C662 C665 1.348 . S
C662 H700 0.929 . S
N663 Li618 1.986 1_554 S
N663 C660 1.314 . S
N663 C661 1.279 1_655 S
C664 C661 1.358 . S
C664 C665 1.356 1_455 S
C664 H701 0.930 . S
C665 C662 1.348 . S
C665 C664 1.356 1_655 S
H666 C660 0.930 1_556 S
H667 C661 0.930 . S
C668 N669 1.314 . S
C668 C670 1.353 . S
C668 H674 0.930 . S
N669 Li619 1.990 . S
N669 C668 1.314 . S
N669 C672 1.279 . S
C670 C668 1.353 . S
C670 C673 1.348 . S
C670 H702 0.929 . S
C671 C672 1.358 . S
C671 C673 1.356 . S
C671 H703 0.930 . S
C672 N669 1.279 . S
C672 C671 1.358 . S
C672 H675 0.930 . S
C673 C670 1.348 . S
C673 C671 1.356 . S
H674 C668 0.930 . S
H675 C672 0.930 . S
O676 Li616 1.956 1_655 S
O676 Li617 1.970 . S
O676 Li618 2.004 . S
O676 C620 1.325 . S
O677 Li616 1.970 . S
O677 Li617 1.956 1_455 S
O677 Li619 1.961 . S
O677 C626 1.325 . S
O678 Li616 1.961 . S
O678 Li618 1.925 1_455 S
O678 Li619 1.970 . S
O678 C648 1.323 . S
O679 Li617 1.961 . S
O679 Li618 1.970 . S
O679 Li619 1.956 1_655 S
O679 C654 1.325 . S
H680 C622 0.929 . S
H681 C623 0.930 . S
H682 C624 0.915 1_556 S
H683 C625 0.930 . S
H684 C627 0.930 . S
H685 C629 0.929 1_655 S
H686 C630 0.930 . S
H687 C631 0.930 . S
H688 C634 0.930 . S
H689 C637 0.929 . S
H690 C642 0.929 . S
H691 C643 0.930 . S
H692 C650 0.929 . S
H693 C651 0.930 . S
H694 C652 0.930 . S
H695 C653 0.930 . S
H696 C655 0.921 1_455 S
H697 C656 0.930 . S
H698 C657 0.930 . S
H699 C658 0.930 . S
H700 C662 0.929 . S
H701 C664 0.930 . S
H702 C670 0.929 . S
H703 C671 0.930 . S
Li704 N721 1.990 . S
Li704 O764 1.956 1_545 S
Li704 O765 1.975 1_545 S
Li704 O766 1.961 . S
Li705 N729 1.990 . S
Li705 O764 1.970 . S
Li705 O765 1.974 . S
Li705 O767 1.961 . S
Li706 N751 1.990 . S
Li706 O764 1.961 1_545 S
Li706 O766 1.956 . S
Li706 O767 1.970 1_545 S
Li707 N757 1.990 . S
Li707 O765 1.941 1_545 S
Li707 O766 1.970 . S
Li707 O767 1.956 1_545 S
C708 C710 1.348 . S
C708 C711 1.356 . S
C708 O764 1.325 . S
N709 C712 1.314 . S
N709 C713 1.279 . S
C710 C708 1.348 . S
C710 C712 1.353 . S
C710 H768 0.929 . S
C711 C708 1.356 . S
C711 C713 1.358 . S
C711 H769 0.930 . S
C712 N709 1.314 . S
C712 C710 1.353 . S
C712 H770 0.930 . S
C713 N709 1.279 . S
C713 C711 1.358 . S
C713 H771 0.930 . S
C714 C717 1.348 . S
C714 C718 1.356 . S
C714 O765 1.325 . S
C715 N716 1.279 . S
C715 C718 1.358 . S
C715 H772 0.930 . S
N716 C715 1.279 . S
N716 C719 1.314 . S
C717 C714 1.348 . S
C717 C719 1.353 . S
C717 H773 0.929 . S
C718 C714 1.356 . S
C718 C715 1.358 . S
C718 H774 0.930 . S
C719 N716 1.314 . S
C719 C717 1.353 . S
C719 H775 0.930 . S
C720 N721 1.314 . S
C720 C725 1.353 . S
C720 H726 0.930 . S
N721 Li704 1.990 . S
N721 C720 1.314 . S
N721 C723 1.279 1_545 S
C722 C723 1.353 . S
C722 C724 1.319 1_565 S
C722 H776 0.974 . S
C723 N721 1.279 1_565 S
C723 C722 1.353 . S
C723 H727 0.930 . S
C724 C722 1.319 1_545 S
C724 C725 1.348 . S
C725 C720 1.353 . S
C725 C724 1.348 . S
C725 H777 0.929 . S
H726 C720 0.930 . S
H727 C723 0.930 . S
C728 N729 1.314 . S
C728 C730 1.353 . S
C728 H734 0.930 . S
N729 Li705 1.990 . S
N729 C728 1.314 . S
N729 C732 1.279 . S
C730 C728 1.353 . S
C730 C733 1.348 . S
C730 H778 0.929 . S
C731 C732 1.358 . S
C731 C733 1.356 . S
C731 H779 0.930 . S
C732 N729 1.279 . S
C732 C731 1.358 . S
C732 H735 0.930 . S
C733 C730 1.348 . S
C733 C731 1.356 . S
H734 C728 0.930 . S
H735 C732 0.930 . S
C736 C738 1.348 . S
C736 C739 1.356 . S
C736 O766 1.325 . S
N737 C740 1.314 . S
N737 C741 1.279 . S
C738 C736 1.348 . S
C738 C740 1.353 . S
C738 H780 0.929 . S
C739 C736 1.356 . S
C739 C741 1.358 . S
C739 H781 0.930 . S
C740 N737 1.314 . S
C740 C738 1.353 . S
C740 H782 0.930 . S
C741 N737 1.279 . S
C741 C739 1.358 . S
C741 H783 0.930 . S
C742 C743 1.348 . S
C742 C744 1.356 . S
C742 O767 1.325 . S
C743 C742 1.348 . S
C743 C745 1.353 . S
C743 H784 0.929 1_565 S
C744 C742 1.356 . S
C744 C746 1.358 . S
C744 H785 0.930 . S
C745 C743 1.353 . S
C745 N747 1.314 . S
C745 H786 0.930 . S
C746 C744 1.358 . S
C746 N747 1.279 . S
C746 H787 0.930 . S
N747 C745 1.314 . S
N747 C746 1.279 . S
C748 C750 1.353 . S
C748 N751 1.314 1_565 S
C748 H754 0.930 . S
C749 N751 1.279 . S
C749 C752 1.358 . S
C749 H755 0.930 . S
C750 C748 1.353 . S
C750 C753 1.348 1_565 S
C750 H788 0.929 . S
N751 Li706 1.990 . S
N751 C748 1.314 1_545 S
N751 C749 1.279 . S
C752 C749 1.358 . S
C752 C753 1.356 . S
C752 H789 0.930 . S
C753 C750 1.348 1_545 S
C753 C752 1.356 . S
H754 C748 0.930 . S
H755 C749 0.930 . S
C756 N757 1.314 . S
C756 C758 1.353 . S
C756 H762 0.930 . S
N757 Li707 1.990 . S
N757 C756 1.314 . S
N757 C760 1.279 . S
C758 C756 1.353 . S
C758 C761 1.348 . S
C758 H790 0.929 . S
C759 C760 1.358 . S
C759 C761 1.356 . S
C759 H791 0.930 . S
C760 N757 1.279 . S
C760 C759 1.358 . S
C760 H763 0.930 . S
C761 C758 1.348 . S
C761 C759 1.356 . S
H762 C756 0.930 . S
H763 C760 0.930 . S
O764 Li704 1.956 1_565 S
O764 Li705 1.970 . S
O764 Li706 1.961 1_565 S
O764 C708 1.325 . S
O765 Li704 1.975 1_565 S
O765 Li705 1.974 . S
O765 Li707 1.941 1_565 S
O765 C714 1.325 . S
O766 Li704 1.961 . S
O766 Li706 1.956 . S
O766 Li707 1.970 . S
O766 C736 1.325 . S
O767 Li705 1.961 . S
O767 Li706 1.970 1_565 S
O767 Li707 1.956 1_565 S
O767 C742 1.325 . S
H768 C710 0.929 . S
H769 C711 0.930 . S
H770 C712 0.930 . S
H771 C713 0.930 . S
H772 C715 0.930 . S
H773 C717 0.929 . S
H774 C718 0.930 . S
H775 C719 0.930 . S
H776 C722 0.974 . S
H777 C725 0.929 . S
H778 C730 0.929 . S
H779 C731 0.930 . S
H780 C738 0.929 . S
H781 C739 0.930 . S
H782 C740 0.930 . S
H783 C741 0.930 . S
H784 C743 0.929 1_545 S
H785 C744 0.930 . S
H786 C745 0.930 . S
H787 C746 0.930 . S
H788 C750 0.929 . S
H789 C752 0.930 . S
H790 C758 0.929 . S
H791 C759 0.930 . S
Li792 N809 1.990 . S
Li792 O852 1.956 . S
Li792 O853 1.970 . S
Li792 O854 1.961 . S
Li793 N817 1.990 . S
Li793 O852 1.970 . S
Li793 O853 1.956 . S
Li793 O855 1.961 . S
Li794 N839 1.990 . S
Li794 O852 1.961 . S
Li794 O854 1.956 . S
Li794 O855 1.970 . S
Li795 N845 1.990 . S
Li795 O853 1.961 . S
Li795 O854 1.970 . S
Li795 O855 1.956 . S
C796 C798 1.348 . S
C796 C799 1.356 . S
C796 O852 1.325 . S
N797 C800 1.314 . S
N797 C801 1.279 . S
C798 C796 1.348 . S
C798 C800 1.353 . S
C798 H856 0.929 . S
C799 C796 1.356 . S
C799 C801 1.358 . S
C799 H857 0.930 . S
C800 N797 1.314 . S
C800 C798 1.353 . S
C800 H858 0.930 . S
C801 N797 1.279 . S
C801 C799 1.358 . S
C801 H859 0.930 . S
C802 C805 1.348 . S
C802 C806 1.356 . S
C802 O853 1.325 . S
C803 N804 1.279 . S
C803 C806 1.358 . S
C803 H860 0.930 . S
N804 C803 1.279 . S
N804 C807 1.314 . S
C805 C802 1.348 . S
C805 C807 1.353 . S
C805 H861 0.929 . S
C806 C802 1.356 . S
C806 C803 1.358 . S
C806 H862 0.930 . S
C807 N804 1.314 . S
C807 C805 1.353 . S
C807 H863 0.930 . S
C808 N809 1.314 . S
C808 C813 1.353 . S
C808 H814 0.930 . S
N809 Li792 1.990 . S
N809 C808 1.314 . S
N809 C811 1.279 . S
C810 C811 1.358 . S
C810 C812 1.356 . S
C810 H864 0.930 . S
C811 N809 1.279 . S
C811 C810 1.358 . S
C811 H815 0.930 . S
C812 C810 1.356 . S
C812 C813 1.348 . S
C813 C808 1.353 . S
C813 C812 1.348 . S
C813 H865 0.929 . S
H814 C808 0.930 . S
H815 C811 0.930 . S
C816 N817 1.314 . S
C816 C818 1.353 . S
C816 H822 0.930 . S
N817 Li793 1.990 . S
N817 C816 1.314 . S
N817 C820 1.279 . S
C818 C816 1.353 . S
C818 C821 1.348 . S
C818 H866 0.929 . S
C819 C820 1.358 . S
C819 C821 1.356 . S
C819 H867 0.930 . S
C820 N817 1.279 . S
C820 C819 1.358 . S
C820 H823 0.930 . S
C821 C818 1.348 . S
C821 C819 1.356 . S
H822 C816 0.930 . S
H823 C820 0.930 . S
C824 C826 1.348 . S
C824 C827 1.356 . S
C824 O854 1.325 . S
N825 C828 1.314 . S
N825 C829 1.279 . S
C826 C824 1.348 . S
C826 C828 1.353 . S
C826 H868 0.929 . S
C827 C824 1.356 . S
C827 C829 1.358 . S
C827 H869 0.930 . S
C828 N825 1.314 . S
C828 C826 1.353 . S
C828 H870 0.930 . S
C829 N825 1.279 . S
C829 C827 1.358 . S
C829 H871 0.930 . S
C830 C831 1.348 . S
C830 C832 1.356 . S
C830 O855 1.325 . S
C831 C830 1.348 . S
C831 C833 1.353 . S
C831 H872 0.929 . S
C832 C830 1.356 . S
C832 C834 1.358 . S
C832 H873 0.930 . S
C833 C831 1.353 . S
C833 N835 1.314 . S
C833 H874 0.930 . S
C834 C832 1.358 . S
C834 N835 1.279 . S
C834 H875 0.930 . S
N835 C833 1.314 . S
N835 C834 1.279 . S
C836 C838 1.353 . S
C836 N839 1.314 . S
C836 H842 0.930 . S
C837 N839 1.279 . S
C837 C840 1.358 . S
C837 H843 0.930 . S
C838 C836 1.353 . S
C838 C841 1.348 . S
C838 H876 0.929 . S
N839 Li794 1.990 . S
N839 C836 1.314 . S
N839 C837 1.279 . S
C840 C837 1.358 . S
C840 C841 1.356 . S
C840 H877 0.930 . S
C841 C838 1.348 . S
C841 C840 1.356 . S
H842 C836 0.930 . S
H843 C837 0.930 . S
C844 N845 1.314 . S
C844 C846 1.353 . S
C844 H850 0.930 . S
N845 Li795 1.990 . S
N845 C844 1.314 . S
N845 C848 1.279 . S
C846 C844 1.353 . S
C846 C849 1.348 . S
C846 H878 0.929 . S
C847 C848 1.358 . S
C847 C849 1.356 . S
C847 H879 0.930 . S
C848 N845 1.279 . S
C848 C847 1.358 . S
C848 H851 0.930 . S
C849 C846 1.348 . S
C849 C847 1.356 . S
H850 C844 0.930 . S
H851 C848 0.930 . S
O852 Li792 1.956 . S
O852 Li793 1.970 . S
O852 Li794 1.961 . S
O852 C796 1.325 . S
O853 Li792 1.970 . S
O853 Li793 1.956 . S
O853 Li795 1.961 . S
O853 C802 1.325 . S
O854 Li792 1.961 . S
O854 Li794 1.956 . S
O854 Li795 1.970 . S
O854 C824 1.325 . S
O855 Li793 1.961 . S
O855 Li794 1.970 . S
O855 Li795 1.956 . S
O855 C830 1.325 . S
H856 C798 0.929 . S
H857 C799 0.930 . S
H858 C800 0.930 . S
H859 C801 0.930 . S
H860 C803 0.930 . S
H861 C805 0.929 . S
H862 C806 0.930 . S
H863 C807 0.930 . S
H864 C810 0.930 . S
H865 C813 0.929 . S
H866 C818 0.929 . S
H867 C819 0.930 . S
H868 C826 0.929 . S
H869 C827 0.930 . S
H870 C828 0.930 . S
H871 C829 0.930 . S
H872 C831 0.929 . S
H873 C832 0.930 . S
H874 C833 0.930 . S
H875 C834 0.930 . S
H876 C838 0.929 . S
H877 C840 0.930 . S
H878 C846 0.929 . S
H879 C847 0.930 . S
Li880 N897 1.990 . S
Li880 O940 1.956 . S
Li880 O941 1.970 . S
Li880 O942 1.961 . S
Li881 N905 1.990 . S
Li881 O940 1.970 . S
Li881 O941 1.956 . S
Li881 O943 1.961 . S
Li882 N927 1.990 . S
Li882 O940 1.961 . S
Li882 O942 1.956 . S
Li882 O943 1.970 . S
Li883 N933 1.990 . S
Li883 O941 1.961 . S
Li883 O942 1.970 . S
Li883 O943 1.956 . S
C884 C886 1.348 . S
C884 C887 1.356 . S
C884 O940 1.325 . S
N885 C888 1.314 . S
N885 C889 1.279 . S
C886 C884 1.348 . S
C886 C888 1.353 . S
C886 H944 0.929 . S
C887 C884 1.356 . S
C887 C889 1.358 . S
C887 H945 0.930 . S
C888 N885 1.314 . S
C888 C886 1.353 . S
C888 H946 0.930 . S
C889 N885 1.279 . S
C889 C887 1.358 . S
C889 H947 0.930 . S
C890 C893 1.348 . S
C890 C894 1.356 . S
C890 O941 1.325 . S
C891 N892 1.279 . S
C891 C894 1.358 . S
C891 H948 0.930 . S
N892 C891 1.279 . S
N892 C895 1.314 . S
C893 C890 1.348 . S
C893 C895 1.353 . S
C893 H949 0.929 . S
C894 C890 1.356 . S
C894 C891 1.358 . S
C894 H950 0.930 . S
C895 N892 1.314 . S
C895 C893 1.353 . S
C895 H951 0.930 . S
C896 N897 1.314 . S
C896 C901 1.353 . S
C896 H902 0.930 . S
N897 Li880 1.990 . S
N897 C896 1.314 . S
N897 C899 1.279 . S
C898 C899 1.358 . S
C898 C900 1.356 . S
C898 H952 0.930 . S
C899 N897 1.279 . S
C899 C898 1.358 . S
C899 H903 0.930 . S
C900 C898 1.356 . S
C900 C901 1.348 . S
C901 C896 1.353 . S
C901 C900 1.348 . S
C901 H953 0.929 . S
H902 C896 0.930 . S
H903 C899 0.930 . S
C904 N905 1.314 . S
C904 C906 1.353 . S
C904 H910 0.930 . S
N905 Li881 1.990 . S
N905 C904 1.314 . S
N905 C908 1.279 . S
C906 C904 1.353 . S
C906 C909 1.348 . S
C906 H954 0.929 . S
C907 C908 1.358 . S
C907 C909 1.356 . S
C907 H955 0.930 . S
C908 N905 1.279 . S
C908 C907 1.358 . S
C908 H911 0.930 . S
C909 C906 1.348 . S
C909 C907 1.356 . S
H910 C904 0.930 . S
H911 C908 0.930 . S
C912 C914 1.348 . S
C912 C915 1.356 . S
C912 O942 1.325 . S
N913 C916 1.314 . S
N913 C917 1.279 . S
C914 C912 1.348 . S
C914 C916 1.353 . S
C914 H956 0.929 . S
C915 C912 1.356 . S
C915 C917 1.358 . S
C915 H957 0.930 . S
C916 N913 1.314 . S
C916 C914 1.353 . S
C916 H958 0.930 . S
C917 N913 1.279 . S
C917 C915 1.358 . S
C917 H959 0.930 . S
C918 C919 1.348 1_545 S
C918 C920 1.356 1_545 S
C918 O943 1.325 . S
C919 C918 1.348 1_565 S
C919 C921 1.353 . S
C919 H960 0.929 . S
C920 C918 1.356 1_565 S
C920 C922 1.358 . S
C920 H961 0.930 1_565 S
C921 C919 1.353 . S
C921 N923 1.314 . S
C921 H962 0.930 . S
C922 C920 1.358 . S
C922 N923 1.279 . S
C922 H963 0.930 . S
N923 C921 1.314 . S
N923 C922 1.279 . S
C924 C926 1.353 . S
C924 N927 1.314 1_565 S
C924 H930 0.930 1_565 S
C925 N927 1.279 . S
C925 C928 1.358 1_545 S
C925 H931 0.930 . S
C926 C924 1.353 . S
C926 C929 1.348 . S
C926 H964 0.929 . S
N927 Li882 1.990 . S
N927 C924 1.314 1_545 S
N927 C925 1.279 . S
C928 C925 1.358 1_565 S
C928 C929 1.356 . S
C928 H965 0.930 . S
C929 C926 1.348 . S
C929 C928 1.356 . S
H930 C924 0.930 1_545 S
H931 C925 0.930 . S
C932 N933 1.314 . S
C932 C934 1.353 . S
C932 H938 0.930 . S
N933 Li883 1.990 . S
N933 C932 1.314 . S
N933 C936 1.279 . S
C934 C932 1.353 . S
C934 C937 1.348 . S
C934 H966 0.929 . S
C935 C936 1.358 . S
C935 C937 1.356 . S
C935 H967 0.930 1_545 S
C936 N933 1.279 . S
C936 C935 1.358 . S
C936 H939 0.930 . S
C937 C934 1.348 . S
C937 C935 1.356 . S
H938 C932 0.930 . S
H939 C936 0.930 . S
O940 Li880 1.956 . S
O940 Li881 1.970 . S
O940 Li882 1.961 . S
O940 C884 1.325 . S
O941 Li880 1.970 . S
O941 Li881 1.956 . S
O941 Li883 1.961 . S
O941 C890 1.325 . S
O942 Li880 1.961 . S
O942 Li882 1.956 . S
O942 Li883 1.970 . S
O942 C912 1.325 . S
O943 Li881 1.961 . S
O943 Li882 1.970 . S
O943 Li883 1.956 . S
O943 C918 1.325 . S
H944 C886 0.929 . S
H945 C887 0.930 . S
H946 C888 0.930 . S
H947 C889 0.930 . S
H948 C891 0.930 . S
H949 C893 0.929 . S
H950 C894 0.930 . S
H951 C895 0.930 . S
H952 C898 0.930 . S
H953 C901 0.929 . S
H954 C906 0.929 . S
H955 C907 0.930 . S
H956 C914 0.929 . S
H957 C915 0.930 . S
H958 C916 0.930 . S
H959 C917 0.930 . S
H960 C919 0.929 . S
H961 C920 0.930 1_545 S
H962 C921 0.930 . S
H963 C922 0.930 . S
H964 C926 0.929 . S
H965 C928 0.930 . S
H966 C934 0.929 . S
H967 C935 0.930 1_565 S
Li968 N985 1.992 . S
Li968 O1028 1.986 . S
Li968 O1029 1.972 1_554 S
Li968 O1030 1.926 1_554 S
Li969 N993 1.990 . S
Li969 O1028 1.970 . S
Li969 O1029 1.956 1_554 S
Li969 O1031 1.991 . S
Li970 N1015 1.990 . S
Li970 O1028 1.961 . S
Li970 O1030 1.956 1_554 S
Li970 O1031 1.967 . S
Li971 N1021 1.990 . S
Li971 O1029 1.961 . S
Li971 O1030 1.970 . S
Li971 O1031 1.929 1_556 S
C972 C974 1.348 . S
C972 C975 1.356 . S
C972 O1028 1.325 . S
N973 C976 1.314 . S
N973 C977 1.279 . S
C974 C972 1.348 . S
C974 C976 1.353 . S
C974 H1032 0.929 . S
C975 C972 1.356 . S
C975 C977 1.358 . S
C975 H1033 0.930 . S
C976 N973 1.314 . S
C976 C974 1.353 . S
C976 H1034 0.930 . S
C977 N973 1.279 . S
C977 C975 1.358 . S
C977 H1035 0.930 1_565 S
C978 C981 1.346 . S
C978 C982 1.356 . S
C978 O1029 1.325 . S
C979 N980 1.279 . S
C979 C982 1.358 . S
C979 H1036 0.930 . S
N980 C979 1.279 . S
N980 C983 1.314 . S
C981 C978 1.346 . S
C981 C983 1.353 . S
C981 H1037 0.931 1_556 S
C982 C978 1.356 . S
C982 C979 1.358 . S
C982 H1038 0.930 . S
C983 N980 1.314 . S
C983 C981 1.353 . S
C983 H1039 0.919 1_556 S
C984 N985 1.314 1_556 S
C984 C989 1.353 . S
C984 H990 0.930 . S
N985 Li968 1.992 . S
N985 C984 1.314 1_554 S
N985 C987 1.279 . S
C986 C987 1.358 . S
C986 C988 1.360 . S
C986 H1040 0.930 . S
C987 N985 1.279 . S
C987 C986 1.358 . S
C987 H991 0.930 . S
C988 C986 1.360 . S
C988 C989 1.343 1_554 S
C989 C984 1.353 . S
C989 C988 1.343 1_556 S
C989 H1041 0.929 . S
H990 C984 0.930 . S
H991 C987 0.930 . S
C992 N993 1.314 . S
C992 C994 1.353 . S
C992 H998 0.930 . S
N993 Li969 1.990 . S
N993 C992 1.314 . S
N993 C996 1.279 . S
C994 C992 1.353 . S
C994 C997 1.348 . S
C994 H1042 0.929 . S
C995 C996 1.358 . S
C995 C997 1.356 . S
C995 H1043 0.930 . S
C996 N993 1.279 . S
C996 C995 1.358 . S
C996 H999 0.930 . S
C997 C994 1.348 . S
C997 C995 1.356 . S
H998 C992 0.930 . S
H999 C996 0.930 . S
C1000 C1002 1.348 . S
C1000 C1003 1.356 . S
C1000 O1030 1.325 . S
N1001 C1004 1.314 . S
N1001 C1005 1.279 . S
C1002 C1000 1.348 . S
C1002 C1004 1.353 . S
C1002 H1044 0.929 . S
C1003 C1000 1.356 . S
C1003 C1005 1.358 . S
C1003 H1045 0.930 . S
C1004 N1001 1.314 . S
C1004 C1002 1.353 . S
C1004 H1046 0.930 . S
C1005 N1001 1.279 . S
C1005 C1003 1.358 . S
C1005 H1047 0.888 1_565 S
C1006 C1007 1.347 1_554 S
C1006 C1008 1.357 . S
C1006 O1031 1.324 . S
C1007 C1006 1.347 1_556 S
C1007 C1009 1.353 . S
C1007 H1048 0.929 . S
C1008 C1006 1.357 . S
C1008 C1010 1.358 . S
C1008 H1049 0.930 . S
C1009 C1007 1.353 . S
C1009 N1011 1.314 . S
C1009 H1050 0.930 . S
C1010 C1008 1.358 . S
C1010 N1011 1.279 1_554 S
C1010 H1051 0.930 . S
N1011 C1009 1.314 . S
N1011 C1010 1.279 1_556 S
C1012 C1014 1.353 . S
C1012 N1015 1.314 . S
C1012 H1018 0.930 . S
C1013 N1015 1.279 1_556 S
C1013 C1016 1.358 . S
C1013 H1019 0.930 . S
C1014 C1012 1.353 . S
C1014 C1017 1.348 . S
C1014 H1052 0.929 . S
N1015 Li970 1.990 . S
N1015 C1012 1.314 . S
N1015 C1013 1.279 1_554 S
C1016 C1013 1.358 . S
C1016 C1017 1.356 1_556 S
C1016 H1053 0.939 . S
C1017 C1014 1.348 . S
C1017 C1016 1.356 1_554 S
H1018 C1012 0.930 . S
H1019 C1013 0.930 . S
C1020 N1021 1.314 . S
C1020 C1022 1.353 . S
C1020 H1026 0.930 . S
N1021 Li971 1.990 . S
N1021 C1020 1.314 . S
N1021 C1024 1.279 . S
C1022 C1020 1.353 . S
C1022 C1025 1.348 . S
C1022 H1054 0.929 . S
C1023 C1024 1.358 . S
C1023 C1025 1.356 . S
C1023 H1055 0.930 . S
C1024 N1021 1.279 . S
C1024 C1023 1.358 . S
C1024 H1027 0.930 . S
C1025 C1022 1.348 . S
C1025 C1023 1.356 . S
H1026 C1020 0.930 . S
H1027 C1024 0.930 . S
O1028 Li968 1.986 . S
O1028 Li969 1.970 . S
O1028 Li970 1.961 . S
O1028 C972 1.325 . S
O1029 Li968 1.972 1_556 S
O1029 Li969 1.956 1_556 S
O1029 Li971 1.961 . S
O1029 C978 1.325 . S
O1030 Li968 1.926 1_556 S
O1030 Li970 1.956 1_556 S
O1030 Li971 1.970 . S
O1030 C1000 1.325 . S
O1031 Li969 1.991 . S
O1031 Li970 1.967 . S
O1031 Li971 1.929 1_554 S
O1031 C1006 1.324 . S
H1032 C974 0.929 . S
H1033 C975 0.930 . S
H1034 C976 0.930 . S
H1035 C977 0.930 1_545 S
H1036 C979 0.930 . S
H1037 C981 0.931 1_554 S
H1038 C982 0.930 . S
H1039 C983 0.919 1_554 S
H1040 C986 0.930 . S
H1041 C989 0.929 . S
H1042 C994 0.929 . S
H1043 C995 0.930 . S
H1044 C1002 0.929 . S
H1045 C1003 0.930 . S
H1046 C1004 0.930 . S
H1047 C1005 0.888 1_545 S
H1048 C1007 0.929 . S
H1049 C1008 0.930 . S
H1050 C1009 0.930 . S
H1051 C1010 0.930 . S
H1052 C1014 0.929 . S
H1053 C1016 0.939 . S
H1054 C1022 0.929 . S
H1055 C1023 0.930 . S
Li1056 N1073 1.990 . S
Li1056 O1116 1.956 . S
Li1056 O1117 1.970 . S
Li1056 O1118 1.961 . S
Li1057 N1081 1.990 . S
Li1057 O1116 1.970 . S
Li1057 O1117 1.956 . S
Li1057 O1119 1.961 . S
Li1058 N1103 1.990 . S
Li1058 O1116 1.961 . S
Li1058 O1118 1.956 . S
Li1058 O1119 1.970 . S
Li1059 N1109 1.990 1_554 S
Li1059 O1117 1.961 . S
Li1059 O1118 1.970 . S
Li1059 O1119 1.956 . S
C1060 C1062 1.348 . S
C1060 C1063 1.356 . S
C1060 O1116 1.325 . S
N1061 C1064 1.314 . S
N1061 C1065 1.279 . S
C1062 C1060 1.348 . S
C1062 C1064 1.353 . S
C1062 H1120 0.929 . S
C1063 C1060 1.356 . S
C1063 C1065 1.358 . S
C1063 H1121 0.930 . S
C1064 N1061 1.314 . S
C1064 C1062 1.353 . S
C1064 H1122 0.930 . S
C1065 N1061 1.279 . S
C1065 C1063 1.358 . S
C1065 H1123 0.930 . S
C1066 C1069 1.348 . S
C1066 C1070 1.356 . S
C1066 O1117 1.325 . S
C1067 N1068 1.279 . S
C1067 C1070 1.358 . S
C1067 H1124 0.930 . S
N1068 C1067 1.279 . S
N1068 C1071 1.314 . S
C1069 C1066 1.348 . S
C1069 C1071 1.353 . S
C1069 H1125 0.929 . S
C1070 C1066 1.356 . S
C1070 C1067 1.358 . S
C1070 H1126 0.930 . S
C1071 N1068 1.314 . S
C1071 C1069 1.353 . S
C1071 H1127 0.930 . S
C1072 N1073 1.314 . S
C1072 C1077 1.353 . S
C1072 H1078 0.930 . S
N1073 Li1056 1.990 . S
N1073 C1072 1.314 . S
N1073 C1075 1.279 . S
C1074 C1075 1.358 . S
C1074 C1076 1.356 . S
C1074 H1128 0.930 . S
C1075 N1073 1.279 . S
C1075 C1074 1.358 . S
C1075 H1079 0.930 . S
C1076 C1074 1.356 . S
C1076 C1077 1.348 . S
C1077 C1072 1.353 . S
C1077 C1076 1.348 . S
C1077 H1129 0.964 . S
H1078 C1072 0.930 . S
H1079 C1075 0.930 . S
C1080 N1081 1.314 . S
C1080 C1082 1.353 . S
C1080 H1086 0.930 . S
N1081 Li1057 1.990 . S
N1081 C1080 1.314 . S
N1081 C1084 1.279 . S
C1082 C1080 1.353 . S
C1082 C1085 1.348 . S
C1082 H1130 0.929 . S
C1083 C1084 1.358 . S
C1083 C1085 1.356 . S
C1083 H1131 0.930 . S
C1084 N1081 1.279 . S
C1084 C1083 1.358 . S
C1084 H1087 0.930 . S
C1085 C1082 1.348 . S
C1085 C1083 1.356 . S
H1086 C1080 0.930 . S
H1087 C1084 0.930 . S
C1088 C1090 1.348 . S
C1088 C1091 1.356 . S
C1088 O1118 1.325 1_556 S
N1089 C1092 1.314 . S
N1089 C1093 1.279 . S
C1090 C1088 1.348 . S
C1090 C1092 1.353 . S
C1090 H1132 0.929 . S
C1091 C1088 1.356 . S
C1091 C1093 1.358 . S
C1091 H1133 0.930 1_556 S
C1092 N1089 1.314 . S
C1092 C1090 1.353 . S
C1092 H1134 0.930 . S
C1093 N1089 1.279 . S
C1093 C1091 1.358 . S
C1093 H1135 0.930 . S
C1094 C1095 1.348 . S
C1094 C1096 1.356 . S
C1094 O1119 1.325 . S
C1095 C1094 1.348 . S
C1095 C1097 1.353 . S
C1095 H1136 0.929 . S
C1096 C1094 1.356 . S
C1096 C1098 1.358 . S
C1096 H1137 0.930 . S
C1097 C1095 1.353 . S
C1097 N1099 1.314 . S
C1097 H1138 0.930 . S
C1098 C1096 1.358 . S
C1098 N1099 1.279 . S
C1098 H1139 0.930 . S
N1099 C1097 1.314 . S
N1099 C1098 1.279 . S
C1100 C1102 1.353 . S
C1100 N1103 1.314 . S
C1100 H1106 0.930 . S
C1101 N1103 1.279 . S
C1101 C1104 1.358 . S
C1101 H1107 0.930 . S
C1102 C1100 1.353 . S
C1102 C1105 1.348 . S
C1102 H1140 0.929 . S
N1103 Li1058 1.990 . S
N1103 C1100 1.314 . S
N1103 C1101 1.279 . S
C1104 C1101 1.358 . S
C1104 C1105 1.356 . S
C1104 H1141 0.930 . S
C1105 C1102 1.348 . S
C1105 C1104 1.356 . S
H1106 C1100 0.930 . S
H1107 C1101 0.930 . S
C1108 N1109 1.314 . S
C1108 C1110 1.353 . S
C1108 H1114 0.930 . S
N1109 Li1059 1.990 1_556 S
N1109 C1108 1.314 . S
N1109 C1112 1.279 . S
C1110 C1108 1.353 . S
C1110 C1113 1.348 . S
C1110 H1142 0.929 . S
C1111 C1112 1.358 . S
C1111 C1113 1.356 . S
C1111 H1143 0.930 . S
C1112 N1109 1.279 . S
C1112 C1111 1.358 . S
C1112 H1115 0.930 . S
C1113 C1110 1.348 . S
C1113 C1111 1.356 . S
H1114 C1108 0.930 . S
H1115 C1112 0.930 . S
O1116 Li1056 1.956 . S
O1116 Li1057 1.970 . S
O1116 Li1058 1.961 . S
O1116 C1060 1.325 . S
O1117 Li1056 1.970 . S
O1117 Li1057 1.956 . S
O1117 Li1059 1.961 . S
O1117 C1066 1.325 . S
O1118 Li1056 1.961 . S
O1118 Li1058 1.956 . S
O1118 Li1059 1.970 . S
O1118 C1088 1.325 1_554 S
O1119 Li1057 1.961 . S
O1119 Li1058 1.970 . S
O1119 Li1059 1.956 . S
O1119 C1094 1.325 . S
H1120 C1062 0.929 . S
H1121 C1063 0.930 . S
H1122 C1064 0.930 . S
H1123 C1065 0.930 . S
H1124 C1067 0.930 . S
H1125 C1069 0.929 . S
H1126 C1070 0.930 . S
H1127 C1071 0.930 . S
H1128 C1074 0.930 . S
H1129 C1077 0.964 . S
H1130 C1082 0.929 . S
H1131 C1083 0.930 . S
H1132 C1090 0.929 . S
H1133 C1091 0.930 1_554 S
H1134 C1092 0.930 . S
H1135 C1093 0.930 . S
H1136 C1095 0.929 . S
H1137 C1096 0.930 . S
H1138 C1097 0.930 . S
H1139 C1098 0.930 . S
H1140 C1102 0.929 . S
H1141 C1104 0.930 . S
H1142 C1110 0.929 . S
H1143 C1111 0.930 . S
Li1144 N1161 1.990 . S
Li1144 O1204 1.956 . S
Li1144 O1205 1.970 . S
Li1144 O1206 1.961 . S
Li1145 N1169 1.990 . S
Li1145 O1204 1.970 . S
Li1145 O1205 1.956 . S
Li1145 O1207 1.961 . S
Li1146 N1191 1.990 . S
Li1146 O1204 1.961 . S
Li1146 O1206 1.956 . S
Li1146 O1207 1.970 . S
Li1147 N1197 1.990 . S
Li1147 O1205 1.961 . S
Li1147 O1206 1.970 . S
Li1147 O1207 1.956 . S
C1148 C1150 1.348 . S
C1148 C1151 1.356 . S
C1148 O1204 1.325 . S
N1149 C1152 1.314 . S
N1149 C1153 1.279 . S
C1150 C1148 1.348 . S
C1150 C1152 1.353 . S
C1150 H1208 0.929 . S
C1151 C1148 1.356 . S
C1151 C1153 1.358 . S
C1151 H1209 0.930 . S
C1152 N1149 1.314 . S
C1152 C1150 1.353 . S
C1152 H1210 0.930 . S
C1153 N1149 1.279 . S
C1153 C1151 1.358 . S
C1153 H1211 0.930 . S
C1154 C1157 1.348 . S
C1154 C1158 1.356 . S
C1154 O1205 1.325 . S
C1155 N1156 1.279 . S
C1155 C1158 1.358 . S
C1155 H1212 0.930 . S
N1156 C1155 1.279 . S
N1156 C1159 1.314 . S
C1157 C1154 1.348 . S
C1157 C1159 1.353 . S
C1157 H1213 0.929 . S
C1158 C1154 1.356 . S
C1158 C1155 1.358 . S
C1158 H1214 0.930 . S
C1159 N1156 1.314 . S
C1159 C1157 1.353 . S
C1159 H1215 0.930 . S
C1160 N1161 1.314 . S
C1160 C1165 1.353 . S
C1160 H1166 0.930 . S
N1161 Li1144 1.990 . S
N1161 C1160 1.314 . S
N1161 C1163 1.279 . S
C1162 C1163 1.358 . S
C1162 C1164 1.356 . S
C1162 H1216 0.930 . S
C1163 N1161 1.279 . S
C1163 C1162 1.358 . S
C1163 H1167 0.930 . S
C1164 C1162 1.356 . S
C1164 C1165 1.348 . S
C1165 C1160 1.353 . S
C1165 C1164 1.348 . S
C1165 H1217 0.929 . S
H1166 C1160 0.930 . S
H1167 C1163 0.930 . S
C1168 N1169 1.314 . S
C1168 C1170 1.353 . S
C1168 H1174 0.930 . S
N1169 Li1145 1.990 . S
N1169 C1168 1.314 . S
N1169 C1172 1.279 . S
C1170 C1168 1.353 . S
C1170 C1173 1.348 . S
C1170 H1218 0.929 . S
C1171 C1172 1.358 . S
C1171 C1173 1.356 . S
C1171 H1219 0.930 . S
C1172 N1169 1.279 . S
C1172 C1171 1.358 . S
C1172 H1175 0.930 . S
C1173 C1170 1.348 . S
C1173 C1171 1.356 . S
H1174 C1168 0.930 . S
H1175 C1172 0.930 . S
C1176 C1178 1.348 . S
C1176 C1179 1.356 . S
C1176 O1206 1.325 . S
N1177 C1180 1.314 . S
N1177 C1181 1.279 . S
C1178 C1176 1.348 . S
C1178 C1180 1.353 . S
C1178 H1220 0.929 . S
C1179 C1176 1.356 . S
C1179 C1181 1.358 . S
C1179 H1221 0.930 . S
C1180 N1177 1.314 . S
C1180 C1178 1.353 . S
C1180 H1222 0.930 . S
C1181 N1177 1.279 . S
C1181 C1179 1.358 . S
C1181 H1223 0.930 . S
C1182 C1183 1.348 1_554 S
C1182 C1184 1.356 . S
C1182 O1207 1.325 . S
C1183 C1182 1.348 1_556 S
C1183 C1185 1.353 . S
C1183 H1224 0.929 . S
C1184 C1182 1.356 . S
C1184 C1186 1.358 1_554 S
C1184 H1225 0.930 . S
C1185 C1183 1.353 . S
C1185 N1187 1.314 . S
C1185 H1226 0.930 . S
C1186 C1184 1.358 1_556 S
C1186 N1187 1.279 . S
C1186 H1227 0.930 . S
N1187 C1185 1.314 . S
N1187 C1186 1.279 . S
C1188 C1190 1.353 1_554 S
C1188 N1191 1.314 . S
C1188 H1194 0.930 . S
C1189 N1191 1.279 . S
C1189 C1192 1.358 1_554 S
C1189 H1195 0.930 . S
C1190 C1188 1.353 1_556 S
C1190 C1193 1.348 . S
C1190 H1228 0.929 . S
N1191 Li1146 1.990 . S
N1191 C1188 1.314 . S
N1191 C1189 1.279 . S
C1192 C1189 1.358 1_556 S
C1192 C1193 1.356 . S
C1192 H1229 0.930 . S
C1193 C1190 1.348 . S
C1193 C1192 1.356 . S
H1194 C1188 0.930 . S
H1195 C1189 0.930 . S
C1196 N1197 1.314 . S
C1196 C1198 1.353 . S
C1196 H1202 0.930 . S
N1197 Li1147 1.990 . S
N1197 C1196 1.314 . S
N1197 C1200 1.279 . S
C1198 C1196 1.353 . S
C1198 C1201 1.348 . S
C1198 H1230 0.929 . S
C1199 C1200 1.358 . S
C1199 C1201 1.356 . S
C1199 H1231 0.930 . S
C1200 N1197 1.279 . S
C1200 C1199 1.358 . S
C1200 H1203 0.930 . S
C1201 C1198 1.348 . S
C1201 C1199 1.356 . S
H1202 C1196 0.930 . S
H1203 C1200 0.930 . S
O1204 Li1144 1.956 . S
O1204 Li1145 1.970 . S
O1204 Li1146 1.961 . S
O1204 C1148 1.325 . S
O1205 Li1144 1.970 . S
O1205 Li1145 1.956 . S
O1205 Li1147 1.961 . S
O1205 C1154 1.325 . S
O1206 Li1144 1.961 . S
O1206 Li1146 1.956 . S
O1206 Li1147 1.970 . S
O1206 C1176 1.325 . S
O1207 Li1145 1.961 . S
O1207 Li1146 1.970 . S
O1207 Li1147 1.956 . S
O1207 C1182 1.325 . S
H1208 C1150 0.929 . S
H1209 C1151 0.930 . S
H1210 C1152 0.930 . S
H1211 C1153 0.930 . S
H1212 C1155 0.930 . S
H1213 C1157 0.929 . S
H1214 C1158 0.930 . S
H1215 C1159 0.930 . S
H1216 C1162 0.930 . S
H1217 C1165 0.929 . S
H1218 C1170 0.929 . S
H1219 C1171 0.930 . S
H1220 C1178 0.929 . S
H1221 C1179 0.930 . S
H1222 C1180 0.930 . S
H1223 C1181 0.930 . S
H1224 C1183 0.929 . S
H1225 C1184 0.930 . S
H1226 C1185 0.930 . S
H1227 C1186 0.930 . S
H1228 C1190 0.929 . S
H1229 C1192 0.930 . S
H1230 C1198 0.929 . S
H1231 C1199 0.930 . S
Li1232 N1249 1.990 . S
Li1232 O1292 1.956 . S
Li1232 O1293 1.970 . S
Li1232 O1294 1.961 . S
Li1233 N1257 1.990 . S
Li1233 O1292 1.970 . S
Li1233 O1293 1.956 . S
Li1233 O1295 1.961 . S
Li1234 N1279 1.990 . S
Li1234 O1292 1.961 . S
Li1234 O1294 1.956 . S
Li1234 O1295 1.970 . S
Li1235 N1285 1.990 . S
Li1235 O1293 1.961 . S
Li1235 O1294 1.970 . S
Li1235 O1295 1.956 . S
C1236 C1238 1.348 . S
C1236 C1239 1.356 . S
C1236 O1292 1.325 . S
N1237 C1240 1.314 . S
N1237 C1241 1.279 . S
C1238 C1236 1.348 . S
C1238 C1240 1.353 . S
C1238 H1296 0.929 . S
C1239 C1236 1.356 . S
C1239 C1241 1.358 . S
C1239 H1297 0.930 . S
C1240 N1237 1.314 . S
C1240 C1238 1.353 . S
C1240 H1298 0.930 . S
C1241 N1237 1.279 . S
C1241 C1239 1.358 . S
C1241 H1299 0.930 . S
C1242 C1245 1.348 . S
C1242 C1246 1.356 . S
C1242 O1293 1.325 . S
C1243 N1244 1.279 . S
C1243 C1246 1.358 . S
C1243 H1300 0.930 . S
N1244 C1243 1.279 . S
N1244 C1247 1.314 . S
C1245 C1242 1.348 . S
C1245 C1247 1.353 . S
C1245 H1301 0.929 . S
C1246 C1242 1.356 . S
C1246 C1243 1.358 . S
C1246 H1302 0.930 . S
C1247 N1244 1.314 . S
C1247 C1245 1.353 . S
C1247 H1303 0.930 . S
C1248 N1249 1.314 . S
C1248 C1253 1.353 . S
C1248 H1254 0.930 . S
N1249 Li1232 1.990 . S
N1249 C1248 1.314 . S
N1249 C1251 1.279 . S
C1250 C1251 1.358 . S
C1250 C1252 1.356 . S
C1250 H1304 0.930 . S
C1251 N1249 1.279 . S
C1251 C1250 1.358 . S
C1251 H1255 0.930 . S
C1252 C1250 1.356 . S
C1252 C1253 1.348 . S
C1253 C1248 1.353 . S
C1253 C1252 1.348 . S
C1253 H1305 0.929 . S
H1254 C1248 0.930 . S
H1255 C1251 0.930 . S
C1256 N1257 1.314 . S
C1256 C1258 1.353 . S
C1256 H1262 0.930 . S
N1257 Li1233 1.990 . S
N1257 C1256 1.314 . S
N1257 C1260 1.279 . S
C1258 C1256 1.353 . S
C1258 C1261 1.348 . S
C1258 H1306 0.929 . S
C1259 C1260 1.358 . S
C1259 C1261 1.356 . S
C1259 H1307 0.930 . S
C1260 N1257 1.279 . S
C1260 C1259 1.358 . S
C1260 H1263 0.930 . S
C1261 C1258 1.348 . S
C1261 C1259 1.356 . S
H1262 C1256 0.930 . S
H1263 C1260 0.930 . S
C1264 C1266 1.348 . S
C1264 C1267 1.356 . S
C1264 O1294 1.325 . S
N1265 C1268 1.314 . S
N1265 C1269 1.279 . S
C1266 C1264 1.348 . S
C1266 C1268 1.353 . S
C1266 H1308 0.929 . S
C1267 C1264 1.356 . S
C1267 C1269 1.358 . S
C1267 H1309 0.930 . S
C1268 N1265 1.314 . S
C1268 C1266 1.353 . S
C1268 H1310 0.930 . S
C1269 N1265 1.279 . S
C1269 C1267 1.358 . S
C1269 H1311 0.930 . S
C1270 C1271 1.348 . S
C1270 C1272 1.356 . S
C1270 O1295 1.325 . S
C1271 C1270 1.348 . S
C1271 C1273 1.353 . S
C1271 H1312 0.929 . S
C1272 C1270 1.356 . S
C1272 C1274 1.358 . S
C1272 H1313 0.930 . S
C1273 C1271 1.353 . S
C1273 N1275 1.314 . S
C1273 H1314 0.930 . S
C1274 C1272 1.358 . S
C1274 N1275 1.279 . S
C1274 H1315 0.930 . S
N1275 C1273 1.314 . S
N1275 C1274 1.279 . S
C1276 C1278 1.353 . S
C1276 N1279 1.314 . S
C1276 H1282 0.930 . S
C1277 N1279 1.279 . S
C1277 C1280 1.358 . S
C1277 H1283 0.930 . S
C1278 C1276 1.353 . S
C1278 C1281 1.348 . S
C1278 H1316 0.929 . S
N1279 Li1234 1.990 . S
N1279 C1276 1.314 . S
N1279 C1277 1.279 . S
C1280 C1277 1.358 . S
C1280 C1281 1.356 . S
C1280 H1317 0.930 . S
C1281 C1278 1.348 . S
C1281 C1280 1.356 . S
H1282 C1276 0.930 . S
H1283 C1277 0.930 . S
C1284 N1285 1.314 . S
C1284 C1286 1.353 . S
C1284 H1290 0.930 . S
N1285 Li1235 1.990 . S
N1285 C1284 1.314 . S
N1285 C1288 1.279 . S
C1286 C1284 1.353 . S
C1286 C1289 1.348 . S
C1286 H1318 0.929 . S
C1287 C1288 1.358 . S
C1287 C1289 1.356 . S
C1287 H1319 0.930 . S
C1288 N1285 1.279 . S
C1288 C1287 1.358 . S
C1288 H1291 0.930 . S
C1289 C1286 1.348 . S
C1289 C1287 1.356 . S
H1290 C1284 0.930 . S
H1291 C1288 0.930 . S
O1292 Li1232 1.956 . S
O1292 Li1233 1.970 . S
O1292 Li1234 1.961 . S
O1292 C1236 1.325 . S
O1293 Li1232 1.970 . S
O1293 Li1233 1.956 . S
O1293 Li1235 1.961 . S
O1293 C1242 1.325 . S
O1294 Li1232 1.961 . S
O1294 Li1234 1.956 . S
O1294 Li1235 1.970 . S
O1294 C1264 1.325 . S
O1295 Li1233 1.961 . S
O1295 Li1234 1.970 . S
O1295 Li1235 1.956 . S
O1295 C1270 1.325 . S
H1296 C1238 0.929 . S
H1297 C1239 0.930 . S
H1298 C1240 0.930 . S
H1299 C1241 0.930 . S
H1300 C1243 0.930 . S
H1301 C1245 0.929 . S
H1302 C1246 0.930 . S
H1303 C1247 0.930 . S
H1304 C1250 0.930 . S
H1305 C1253 0.929 . S
H1306 C1258 0.929 . S
H1307 C1259 0.930 . S
H1308 C1266 0.929 . S
H1309 C1267 0.930 . S
H1310 C1268 0.930 . S
H1311 C1269 0.930 . S
H1312 C1271 0.929 . S
H1313 C1272 0.930 . S
H1314 C1273 0.930 . S
H1315 C1274 0.930 . S
H1316 C1278 0.929 . S
H1317 C1280 0.930 . S
H1318 C1286 0.929 . S
H1319 C1287 0.930 . S
Li1320 N1337 1.990 . S
Li1320 O1380 1.956 . S
Li1320 O1381 1.970 . S
Li1320 O1382 1.961 . S
Li1321 N1345 1.990 . S
Li1321 O1380 1.970 . S
Li1321 O1381 1.956 . S
Li1321 O1383 1.961 . S
Li1322 N1367 1.990 . S
Li1322 O1380 1.961 . S
Li1322 O1382 1.956 . S
Li1322 O1383 1.970 . S
Li1323 N1373 1.990 . S
Li1323 O1381 1.961 . S
Li1323 O1382 1.970 . S
Li1323 O1383 1.956 . S
C1324 C1326 1.348 . S
C1324 C1327 1.356 . S
C1324 O1380 1.325 . S
N1325 C1328 1.314 . S
N1325 C1329 1.279 . S
C1326 C1324 1.348 . S
C1326 C1328 1.353 . S
C1326 H1384 0.929 . S
C1327 C1324 1.356 . S
C1327 C1329 1.358 . S
C1327 H1385 0.930 . S
C1328 N1325 1.314 . S
C1328 C1326 1.353 . S
C1328 H1386 0.930 . S
C1329 N1325 1.279 . S
C1329 C1327 1.358 . S
C1329 H1387 0.930 . S
C1330 C1333 1.348 . S
C1330 C1334 1.356 . S
C1330 O1381 1.325 . S
C1331 N1332 1.279 . S
C1331 C1334 1.358 . S
C1331 H1388 0.930 . S
N1332 C1331 1.279 . S
N1332 C1335 1.314 . S
C1333 C1330 1.348 . S
C1333 C1335 1.353 . S
C1333 H1389 0.929 . S
C1334 C1330 1.356 . S
C1334 C1331 1.358 . S
C1334 H1390 0.930 . S
C1335 N1332 1.314 . S
C1335 C1333 1.353 . S
C1335 H1391 0.930 . S
C1336 N1337 1.314 . S
C1336 C1341 1.353 . S
C1336 H1342 0.930 . S
N1337 Li1320 1.990 . S
N1337 C1336 1.314 . S
N1337 C1339 1.279 . S
C1338 C1339 1.358 . S
C1338 C1340 1.356 . S
C1338 H1392 0.930 . S
C1339 N1337 1.279 . S
C1339 C1338 1.358 . S
C1339 H1343 0.930 . S
C1340 C1338 1.356 . S
C1340 C1341 1.348 . S
C1341 C1336 1.353 . S
C1341 C1340 1.348 . S
C1341 H1393 0.929 . S
H1342 C1336 0.930 . S
H1343 C1339 0.930 . S
C1344 N1345 1.314 . S
C1344 C1346 1.353 . S
C1344 H1350 0.930 . S
N1345 Li1321 1.990 . S
N1345 C1344 1.314 . S
N1345 C1348 1.279 . S
C1346 C1344 1.353 . S
C1346 C1349 1.348 . S
C1346 H1394 0.929 . S
C1347 C1348 1.358 . S
C1347 C1349 1.356 . S
C1347 H1395 0.930 . S
C1348 N1345 1.279 . S
C1348 C1347 1.358 . S
C1348 H1351 0.930 . S
C1349 C1346 1.348 . S
C1349 C1347 1.356 . S
H1350 C1344 0.930 . S
H1351 C1348 0.930 . S
C1352 C1354 1.348 . S
C1352 C1355 1.356 . S
C1352 O1382 1.325 . S
N1353 C1356 1.314 . S
N1353 C1357 1.279 . S
C1354 C1352 1.348 . S
C1354 C1356 1.353 . S
C1354 H1396 0.929 . S
C1355 C1352 1.356 . S
C1355 C1357 1.358 . S
C1355 H1397 0.930 . S
C1356 N1353 1.314 . S
C1356 C1354 1.353 . S
C1356 H1398 0.930 . S
C1357 N1353 1.279 . S
C1357 C1355 1.358 . S
C1357 H1399 0.930 . S
C1358 C1359 1.348 . S
C1358 C1360 1.356 . S
C1358 O1383 1.325 . S
C1359 C1358 1.348 . S
C1359 C1361 1.353 . S
C1359 H1400 0.929 . S
C1360 C1358 1.356 . S
C1360 C1362 1.358 . S
C1360 H1401 0.930 . S
C1361 C1359 1.353 . S
C1361 N1363 1.314 . S
C1361 H1402 0.930 . S
C1362 C1360 1.358 . S
C1362 N1363 1.279 . S
C1362 H1403 0.930 . S
N1363 C1361 1.314 . S
N1363 C1362 1.279 . S
C1364 C1366 1.353 . S
C1364 N1367 1.314 . S
C1364 H1370 0.930 . S
C1365 N1367 1.279 . S
C1365 C1368 1.358 . S
C1365 H1371 0.930 . S
C1366 C1364 1.353 . S
C1366 C1369 1.348 . S
C1366 H1404 0.929 . S
N1367 Li1322 1.990 . S
N1367 C1364 1.314 . S
N1367 C1365 1.279 . S
C1368 C1365 1.358 . S
C1368 C1369 1.356 . S
C1368 H1405 0.930 . S
C1369 C1366 1.348 . S
C1369 C1368 1.356 . S
H1370 C1364 0.930 . S
H1371 C1365 0.930 . S
C1372 N1373 1.314 . S
C1372 C1374 1.353 . S
C1372 H1378 0.930 . S
N1373 Li1323 1.990 . S
N1373 C1372 1.314 . S
N1373 C1376 1.279 . S
C1374 C1372 1.353 . S
C1374 C1377 1.348 . S
C1374 H1406 0.929 . S
C1375 C1376 1.358 . S
C1375 C1377 1.356 . S
C1375 H1407 0.930 . S
C1376 N1373 1.279 . S
C1376 C1375 1.358 . S
C1376 H1379 0.930 . S
C1377 C1374 1.348 . S
C1377 C1375 1.356 . S
H1378 C1372 0.930 . S
H1379 C1376 0.930 . S
O1380 Li1320 1.956 . S
O1380 Li1321 1.970 . S
O1380 Li1322 1.961 . S
O1380 C1324 1.325 . S
O1381 Li1320 1.970 . S
O1381 Li1321 1.956 . S
O1381 Li1323 1.961 . S
O1381 C1330 1.325 . S
O1382 Li1320 1.961 . S
O1382 Li1322 1.956 . S
O1382 Li1323 1.970 . S
O1382 C1352 1.325 . S
O1383 Li1321 1.961 . S
O1383 Li1322 1.970 . S
O1383 Li1323 1.956 . S
O1383 C1358 1.325 . S
H1384 C1326 0.929 . S
H1385 C1327 0.930 . S
H1386 C1328 0.930 . S
H1387 C1329 0.930 . S
H1388 C1331 0.930 . S
H1389 C1333 0.929 . S
H1390 C1334 0.930 . S
H1391 C1335 0.930 . S
H1392 C1338 0.930 . S
H1393 C1341 0.929 . S
H1394 C1346 0.929 . S
H1395 C1347 0.930 . S
H1396 C1354 0.929 . S
H1397 C1355 0.930 . S
H1398 C1356 0.930 . S
H1399 C1357 0.930 . S
H1400 C1359 0.929 . S
H1401 C1360 0.930 . S
H1402 C1361 0.930 . S
H1403 C1362 0.930 . S
H1404 C1366 0.929 . S
H1405 C1368 0.930 . S
H1406 C1374 0.929 . S
H1407 C1375 0.930 . S
Li1408 N1425 1.990 . S
Li1408 O1468 1.956 . S
Li1408 O1469 1.970 . S
Li1408 O1470 1.961 . S
Li1409 N1433 1.990 1_545 S
Li1409 O1468 1.970 . S
Li1409 O1469 1.956 . S
Li1409 O1471 1.961 . S
Li1410 N1455 1.990 . S
Li1410 O1468 1.961 . S
Li1410 O1470 1.956 . S
Li1410 O1471 1.970 . S
Li1411 N1461 1.990 . S
Li1411 O1469 1.961 . S
Li1411 O1470 1.970 . S
Li1411 O1471 1.956 . S
C1412 C1414 1.348 . S
C1412 C1415 1.356 1_565 S
C1412 O1468 1.325 1_565 S
N1413 C1416 1.314 . S
N1413 C1417 1.279 1_655 S
C1414 C1412 1.348 . S
C1414 C1416 1.353 . S
C1414 H1472 0.929 . S
C1415 C1412 1.356 1_545 S
C1415 C1417 1.352 1_645 S
C1415 H1473 0.936 1_655 S
C1416 N1413 1.314 . S
C1416 C1414 1.353 . S
C1416 H1474 0.930 . S
C1417 N1413 1.279 1_455 S
C1417 C1415 1.352 1_465 S
C1417 H1475 0.930 . S
C1418 C1421 1.348 . S
C1418 C1422 1.356 . S
C1418 O1469 1.325 . S
C1419 N1420 1.279 . S
C1419 C1422 1.358 . S
C1419 H1476 0.930 . S
N1420 C1419 1.279 . S
N1420 C1423 1.314 . S
C1421 C1418 1.348 . S
C1421 C1423 1.353 . S
C1421 H1477 0.929 . S
C1422 C1418 1.356 . S
C1422 C1419 1.358 . S
C1422 H1478 0.930 . S
C1423 N1420 1.314 . S
C1423 C1421 1.353 . S
C1423 H1479 0.930 . S
C1424 N1425 1.314 . S
C1424 C1429 1.353 1_655 S
C1424 H1430 0.930 . S
N1425 Li1408 1.990 . S
N1425 C1424 1.314 . S
N1425 C1427 1.279 . S
C1426 C1427 1.358 1_455 S
C1426 C1428 1.356 . S
C1426 H1480 0.930 . S
C1427 N1425 1.279 . S
C1427 C1426 1.358 1_655 S
C1427 H1431 0.930 . S
C1428 C1426 1.356 . S
C1428 C1429 1.348 . S
C1429 C1424 1.353 1_455 S
C1429 C1428 1.348 . S
C1429 H1481 0.929 . S
H1430 C1424 0.930 . S
H1431 C1427 0.930 . S
C1432 N1433 1.314 . S
C1432 C1434 1.353 . S
C1432 H1438 0.930 . S
N1433 Li1409 1.990 1_565 S
N1433 C1432 1.314 . S
N1433 C1436 1.279 . S
C1434 C1432 1.353 . S
C1434 C1437 1.348 . S
C1434 H1482 0.929 . S
C1435 C1436 1.358 . S
C1435 C1437 1.356 . S
C1435 H1483 0.930 . S
C1436 N1433 1.279 . S
C1436 C1435 1.358 . S
C1436 H1439 0.930 . S
C1437 C1434 1.348 . S
C1437 C1435 1.356 . S
H1438 C1432 0.930 . S
H1439 C1436 0.930 . S
C1440 C1442 1.348 . S
C1440 C1443 1.356 1_655 S
C1440 O1470 1.325 . S
N1441 C1444 1.314 1_455 S
N1441 C1445 1.279 . S
C1442 C1440 1.348 . S
C1442 C1444 1.353 . S
C1442 H1484 0.929 . S
C1443 C1440 1.356 1_455 S
C1443 C1445 1.358 . S
C1443 H1485 0.930 . S
C1444 N1441 1.314 1_655 S
C1444 C1442 1.353 . S
C1444 H1486 0.930 . S
C1445 N1441 1.279 . S
C1445 C1443 1.358 . S
C1445 H1487 0.930 . S
C1446 C1447 1.348 . S
C1446 C1448 1.356 . S
C1446 O1471 1.325 . S
C1447 C1446 1.348 . S
C1447 C1449 1.353 . S
C1447 H1488 0.929 . S
C1448 C1446 1.356 . S
C1448 C1450 1.358 . S
C1448 H1489 0.930 . S
C1449 C1447 1.353 . S
C1449 N1451 1.314 . S
C1449 H1490 0.930 . S
C1450 C1448 1.358 . S
C1450 N1451 1.279 . S
C1450 H1491 0.930 . S
N1451 C1449 1.314 . S
N1451 C1450 1.279 . S
C1452 C1454 1.353 . S
C1452 N1455 1.314 . S
C1452 H1458 0.930 . S
C1453 N1455 1.279 . S
C1453 C1456 1.358 1_655 S
C1453 H1459 0.930 . S
C1454 C1452 1.353 . S
C1454 C1457 1.348 1_655 S
C1454 H1492 0.929 . S
N1455 Li1410 1.990 . S
N1455 C1452 1.314 . S
N1455 C1453 1.279 . S
C1456 C1453 1.358 1_455 S
C1456 C1457 1.356 . S
C1456 H1493 0.930 . S
C1457 C1454 1.348 1_455 S
C1457 C1456 1.356 . S
H1458 C1452 0.930 . S
H1459 C1453 0.930 . S
C1460 N1461 1.314 . S
C1460 C1462 1.353 . S
C1460 H1466 0.930 . S
N1461 Li1411 1.990 . S
N1461 C1460 1.314 . S
N1461 C1464 1.279 . S
C1462 C1460 1.353 . S
C1462 C1465 1.348 . S
C1462 H1494 0.929 . S
C1463 C1464 1.358 . S
C1463 C1465 1.356 . S
C1463 H1495 0.930 . S
C1464 N1461 1.279 . S
C1464 C1463 1.358 . S
C1464 H1467 0.930 . S
C1465 C1462 1.348 . S
C1465 C1463 1.356 . S
H1466 C1460 0.930 . S
H1467 C1464 0.930 . S
O1468 Li1408 1.956 . S
O1468 Li1409 1.970 . S
O1468 Li1410 1.961 . S
O1468 C1412 1.325 1_545 S
O1469 Li1408 1.970 . S
O1469 Li1409 1.956 . S
O1469 Li1411 1.961 . S
O1469 C1418 1.325 . S
O1470 Li1408 1.961 . S
O1470 Li1410 1.956 . S
O1470 Li1411 1.970 . S
O1470 C1440 1.325 . S
O1471 Li1409 1.961 . S
O1471 Li1410 1.970 . S
O1471 Li1411 1.956 . S
O1471 C1446 1.325 . S
H1472 C1414 0.929 . S
H1473 C1415 0.936 1_455 S
H1474 C1416 0.930 . S
H1475 C1417 0.930 . S
H1476 C1419 0.930 . S
H1477 C1421 0.929 . S
H1478 C1422 0.930 . S
H1479 C1423 0.930 . S
H1480 C1426 0.930 . S
H1481 C1429 0.929 . S
H1482 C1434 0.929 . S
H1483 C1435 0.930 . S
H1484 C1442 0.929 . S
H1485 C1443 0.930 . S
H1486 C1444 0.930 . S
H1487 C1445 0.930 . S
H1488 C1447 0.929 . S
H1489 C1448 0.930 . S
H1490 C1449 0.930 . S
H1491 C1450 0.930 . S
H1492 C1454 0.929 . S
H1493 C1456 0.930 . S
H1494 C1462 0.929 . S
H1495 C1463 0.930 . S
Li1496 N1513 1.990 . S
Li1496 O1556 1.956 . S
Li1496 O1557 1.970 . S
Li1496 O1558 1.961 . S
Li1497 N1521 1.990 . S
Li1497 O1556 1.970 . S
Li1497 O1557 1.956 . S
Li1497 O1559 1.961 . S
Li1498 N1543 1.990 . S
Li1498 O1556 1.961 . S
Li1498 O1558 1.956 . S
Li1498 O1559 1.970 . S
Li1499 N1549 1.990 . S
Li1499 O1557 1.961 . S
Li1499 O1558 1.970 . S
Li1499 O1559 1.956 . S
C1500 C1502 1.348 . S
C1500 C1503 1.356 . S
C1500 O1556 1.325 . S
N1501 C1504 1.314 . S
N1501 C1505 1.279 . S
C1502 C1500 1.348 . S
C1502 C1504 1.353 . S
C1502 H1560 0.929 . S
C1503 C1500 1.356 . S
C1503 C1505 1.358 . S
C1503 H1561 0.930 . S
C1504 N1501 1.314 . S
C1504 C1502 1.353 . S
C1504 H1562 0.930 . S
C1505 N1501 1.279 . S
C1505 C1503 1.358 . S
C1505 H1563 0.930 . S
C1506 C1509 1.348 . S
C1506 C1510 1.356 . S
C1506 O1557 1.325 . S
C1507 N1508 1.279 . S
C1507 C1510 1.358 . S
C1507 H1564 0.930 . S
N1508 C1507 1.279 . S
N1508 C1511 1.314 . S
C1509 C1506 1.348 . S
C1509 C1511 1.353 . S
C1509 H1565 0.929 . S
C1510 C1506 1.356 . S
C1510 C1507 1.358 . S
C1510 H1566 0.930 . S
C1511 N1508 1.314 . S
C1511 C1509 1.353 . S
C1511 H1567 0.930 . S
C1512 N1513 1.314 . S
C1512 C1517 1.353 . S
C1512 H1518 0.930 . S
N1513 Li1496 1.990 . S
N1513 C1512 1.314 . S
N1513 C1515 1.279 . S
C1514 C1515 1.358 . S
C1514 C1516 1.356 . S
C1514 H1568 0.930 . S
C1515 N1513 1.279 . S
C1515 C1514 1.358 . S
C1515 H1519 0.930 . S
C1516 C1514 1.356 . S
C1516 C1517 1.348 . S
C1517 C1512 1.353 . S
C1517 C1516 1.348 . S
C1517 H1569 0.929 . S
H1518 C1512 0.930 . S
H1519 C1515 0.930 . S
C1520 N1521 1.314 . S
C1520 C1522 1.353 . S
C1520 H1526 0.930 . S
N1521 Li1497 1.990 . S
N1521 C1520 1.314 . S
N1521 C1524 1.279 . S
C1522 C1520 1.353 . S
C1522 C1525 1.348 . S
C1522 H1570 0.929 . S
C1523 C1524 1.358 . S
C1523 C1525 1.356 . S
C1523 H1571 0.930 . S
C1524 N1521 1.279 . S
C1524 C1523 1.358 . S
C1524 H1527 0.930 . S
C1525 C1522 1.348 . S
C1525 C1523 1.356 . S
H1526 C1520 0.930 . S
H1527 C1524 0.930 . S
C1528 C1530 1.348 . S
C1528 C1531 1.356 . S
C1528 O1558 1.325 . S
N1529 C1532 1.314 . S
N1529 C1533 1.279 . S
C1530 C1528 1.348 . S
C1530 C1532 1.353 . S
C1530 H1572 0.929 . S
C1531 C1528 1.356 . S
C1531 C1533 1.358 . S
C1531 H1573 0.930 . S
C1532 N1529 1.314 . S
C1532 C1530 1.353 . S
C1532 H1574 0.930 . S
C1533 N1529 1.279 . S
C1533 C1531 1.358 . S
C1533 H1575 0.930 . S
C1534 C1535 1.348 . S
C1534 C1536 1.356 . S
C1534 O1559 1.325 . S
C1535 C1534 1.348 . S
C1535 C1537 1.353 . S
C1535 H1576 0.929 . S
C1536 C1534 1.356 . S
C1536 C1538 1.358 . S
C1536 H1577 0.930 . S
C1537 C1535 1.353 . S
C1537 N1539 1.314 . S
C1537 H1578 0.930 . S
C1538 C1536 1.358 . S
C1538 N1539 1.279 . S
C1538 H1579 0.930 . S
N1539 C1537 1.314 . S
N1539 C1538 1.279 . S
C1540 C1542 1.353 . S
C1540 N1543 1.314 . S
C1540 H1546 0.930 . S
C1541 N1543 1.279 . S
C1541 C1544 1.358 . S
C1541 H1547 0.930 . S
C1542 C1540 1.353 . S
C1542 C1545 1.348 . S
C1542 H1580 0.929 . S
N1543 Li1498 1.990 . S
N1543 C1540 1.314 . S
N1543 C1541 1.279 . S
C1544 C1541 1.358 . S
C1544 C1545 1.356 . S
C1544 H1581 0.930 . S
C1545 C1542 1.348 . S
C1545 C1544 1.356 . S
H1546 C1540 0.930 . S
H1547 C1541 0.930 . S
C1548 N1549 1.314 . S
C1548 C1550 1.353 . S
C1548 H1554 0.930 . S
N1549 Li1499 1.990 . S
N1549 C1548 1.314 . S
N1549 C1552 1.279 . S
C1550 C1548 1.353 . S
C1550 C1553 1.348 . S
C1550 H1582 0.929 . S
C1551 C1552 1.358 . S
C1551 C1553 1.356 . S
C1551 H1583 0.930 . S
C1552 N1549 1.279 . S
C1552 C1551 1.358 . S
C1552 H1555 0.930 . S
C1553 C1550 1.348 . S
C1553 C1551 1.356 . S
H1554 C1548 0.930 . S
H1555 C1552 0.930 . S
O1556 Li1496 1.956 . S
O1556 Li1497 1.970 . S
O1556 Li1498 1.961 . S
O1556 C1500 1.325 . S
O1557 Li1496 1.970 . S
O1557 Li1497 1.956 . S
O1557 Li1499 1.961 . S
O1557 C1506 1.325 . S
O1558 Li1496 1.961 . S
O1558 Li1498 1.956 . S
O1558 Li1499 1.970 . S
O1558 C1528 1.325 . S
O1559 Li1497 1.961 . S
O1559 Li1498 1.970 . S
O1559 Li1499 1.956 . S
O1559 C1534 1.325 . S
H1560 C1502 0.929 . S
H1561 C1503 0.930 . S
H1562 C1504 0.930 . S
H1563 C1505 0.930 . S
H1564 C1507 0.930 . S
H1565 C1509 0.929 . S
H1566 C1510 0.930 . S
H1567 C1511 0.930 . S
H1568 C1514 0.930 . S
H1569 C1517 0.929 . S
H1570 C1522 0.929 . S
H1571 C1523 0.930 . S
H1572 C1530 0.929 . S
H1573 C1531 0.930 . S
H1574 C1532 0.930 . S
H1575 C1533 0.930 . S
H1576 C1535 0.929 . S
H1577 C1536 0.930 . S
H1578 C1537 0.930 . S
H1579 C1538 0.930 . S
H1580 C1542 0.929 . S
H1581 C1544 0.930 . S
H1582 C1550 0.929 . S
H1583 C1551 0.930 . S
Li1584 N1601 1.990 . S
Li1584 O1644 1.956 . S
Li1584 O1645 1.970 . S
Li1584 O1646 1.961 . S
Li1585 N1609 1.990 . S
Li1585 O1644 1.970 . S
Li1585 O1645 1.956 . S
Li1585 O1647 1.961 . S
Li1586 N1631 1.990 . S
Li1586 O1644 1.961 . S
Li1586 O1646 1.956 . S
Li1586 O1647 1.970 . S
Li1587 N1637 1.990 . S
Li1587 O1645 1.961 . S
Li1587 O1646 1.970 . S
Li1587 O1647 1.956 . S
C1588 C1590 1.348 . S
C1588 C1591 1.356 . S
C1588 O1644 1.325 . S
N1589 C1592 1.314 . S
N1589 C1593 1.279 . S
C1590 C1588 1.348 . S
C1590 C1592 1.353 . S
C1590 H1648 0.929 . S
C1591 C1588 1.356 . S
C1591 C1593 1.358 . S
C1591 H1649 0.930 . S
C1592 N1589 1.314 . S
C1592 C1590 1.353 . S
C1592 H1650 0.930 . S
C1593 N1589 1.279 . S
C1593 C1591 1.358 . S
C1593 H1651 0.930 . S
C1594 C1597 1.348 . S
C1594 C1598 1.356 . S
C1594 O1645 1.325 . S
C1595 N1596 1.279 . S
C1595 C1598 1.358 . S
C1595 H1652 0.930 . S
N1596 C1595 1.279 . S
N1596 C1599 1.314 . S
C1597 C1594 1.348 . S
C1597 C1599 1.353 . S
C1597 H1653 0.929 . S
C1598 C1594 1.356 . S
C1598 C1595 1.358 . S
C1598 H1654 0.930 . S
C1599 N1596 1.314 . S
C1599 C1597 1.353 . S
C1599 H1655 0.930 . S
C1600 N1601 1.314 . S
C1600 C1605 1.353 . S
C1600 H1606 0.930 . S
N1601 Li1584 1.990 . S
N1601 C1600 1.314 . S
N1601 C1603 1.279 . S
C1602 C1603 1.358 . S
C1602 C1604 1.356 . S
C1602 H1656 0.930 . S
C1603 N1601 1.279 . S
C1603 C1602 1.358 . S
C1603 H1607 0.930 . S
C1604 C1602 1.356 . S
C1604 C1605 1.348 . S
C1605 C1600 1.353 . S
C1605 C1604 1.348 . S
C1605 H1657 0.929 . S
H1606 C1600 0.930 . S
H1607 C1603 0.930 . S
C1608 N1609 1.314 . S
C1608 C1610 1.353 . S
C1608 H1614 0.930 . S
N1609 Li1585 1.990 . S
N1609 C1608 1.314 . S
N1609 C1612 1.279 . S
C1610 C1608 1.353 . S
C1610 C1613 1.348 . S
C1610 H1658 0.929 . S
C1611 C1612 1.358 . S
C1611 C1613 1.356 . S
C1611 H1659 0.930 . S
C1612 N1609 1.279 . S
C1612 C1611 1.358 . S
C1612 H1615 0.930 . S
C1613 C1610 1.348 . S
C1613 C1611 1.356 . S
H1614 C1608 0.930 . S
H1615 C1612 0.930 . S
C1616 C1618 1.348 . S
C1616 C1619 1.356 . S
C1616 O1646 1.325 . S
N1617 C1620 1.314 . S
N1617 C1621 1.279 . S
C1618 C1616 1.348 . S
C1618 C1620 1.353 . S
C1618 H1660 0.929 . S
C1619 C1616 1.356 . S
C1619 C1621 1.358 . S
C1619 H1661 0.930 . S
C1620 N1617 1.314 . S
C1620 C1618 1.353 . S
C1620 H1662 0.930 . S
C1621 N1617 1.279 . S
C1621 C1619 1.358 . S
C1621 H1663 0.930 . S
C1622 C1623 1.348 . S
C1622 C1624 1.356 . S
C1622 O1647 1.325 . S
C1623 C1622 1.348 . S
C1623 C1625 1.353 . S
C1623 H1664 0.929 . S
C1624 C1622 1.356 . S
C1624 C1626 1.358 . S
C1624 H1665 0.930 . S
C1625 C1623 1.353 . S
C1625 N1627 1.314 . S
C1625 H1666 0.930 . S
C1626 C1624 1.358 . S
C1626 N1627 1.279 . S
C1626 H1667 0.930 . S
N1627 C1625 1.314 . S
N1627 C1626 1.279 . S
C1628 C1630 1.353 . S
C1628 N1631 1.314 . S
C1628 H1634 0.930 . S
C1629 N1631 1.279 . S
C1629 C1632 1.358 . S
C1629 H1635 0.930 . S
C1630 C1628 1.353 . S
C1630 C1633 1.348 . S
C1630 H1668 0.929 . S
N1631 Li1586 1.990 . S
N1631 C1628 1.314 . S
N1631 C1629 1.279 . S
C1632 C1629 1.358 . S
C1632 C1633 1.356 . S
C1632 H1669 0.930 . S
C1633 C1630 1.348 . S
C1633 C1632 1.356 . S
H1634 C1628 0.930 . S
H1635 C1629 0.930 . S
C1636 N1637 1.314 . S
C1636 C1638 1.353 . S
C1636 H1642 0.930 . S
N1637 Li1587 1.990 . S
N1637 C1636 1.314 . S
N1637 C1640 1.279 . S
C1638 C1636 1.353 . S
C1638 C1641 1.348 . S
C1638 H1670 0.929 . S
C1639 C1640 1.358 . S
C1639 C1641 1.356 . S
C1639 H1671 0.930 . S
C1640 N1637 1.279 . S
C1640 C1639 1.358 . S
C1640 H1643 0.930 . S
C1641 C1638 1.348 . S
C1641 C1639 1.356 . S
H1642 C1636 0.930 . S
H1643 C1640 0.930 . S
O1644 Li1584 1.956 . S
O1644 Li1585 1.970 . S
O1644 Li1586 1.961 . S
O1644 C1588 1.325 . S
O1645 Li1584 1.970 . S
O1645 Li1585 1.956 . S
O1645 Li1587 1.961 . S
O1645 C1594 1.325 . S
O1646 Li1584 1.961 . S
O1646 Li1586 1.956 . S
O1646 Li1587 1.970 . S
O1646 C1616 1.325 . S
O1647 Li1585 1.961 . S
O1647 Li1586 1.970 . S
O1647 Li1587 1.956 . S
O1647 C1622 1.325 . S
H1648 C1590 0.929 . S
H1649 C1591 0.930 . S
H1650 C1592 0.930 . S
H1651 C1593 0.930 . S
H1652 C1595 0.930 . S
H1653 C1597 0.929 . S
H1654 C1598 0.930 . S
H1655 C1599 0.930 . S
H1656 C1602 0.930 . S
H1657 C1605 0.929 . S
H1658 C1610 0.929 . S
H1659 C1611 0.930 . S
H1660 C1618 0.929 . S
H1661 C1619 0.930 . S
H1662 C1620 0.930 . S
H1663 C1621 0.930 . S
H1664 C1623 0.929 . S
H1665 C1624 0.930 . S
H1666 C1625 0.930 . S
H1667 C1626 0.930 . S
H1668 C1630 0.929 . S
H1669 C1632 0.930 . S
H1670 C1638 0.929 . S
H1671 C1639 0.930 . S
Li1672 N1689 1.990 . S
Li1672 O1732 1.956 . S
Li1672 O1733 1.970 . S
Li1672 O1734 1.961 . S
Li1673 N1697 1.990 . S
Li1673 O1732 1.970 . S
Li1673 O1733 1.956 . S
Li1673 O1735 1.961 . S
Li1674 N1719 1.990 . S
Li1674 O1732 1.961 . S
Li1674 O1734 1.956 . S
Li1674 O1735 1.970 . S
Li1675 N1725 1.990 . S
Li1675 O1733 1.961 . S
Li1675 O1734 1.970 . S
Li1675 O1735 1.956 . S
C1676 C1678 1.348 . S
C1676 C1679 1.356 . S
C1676 O1732 1.325 . S
N1677 C1680 1.314 . S
N1677 C1681 1.279 . S
C1678 C1676 1.348 . S
C1678 C1680 1.353 . S
C1678 H1736 0.929 . S
C1679 C1676 1.356 . S
C1679 C1681 1.358 . S
C1679 H1737 0.930 . S
C1680 N1677 1.314 . S
C1680 C1678 1.353 . S
C1680 H1738 0.930 . S
C1681 N1677 1.279 . S
C1681 C1679 1.358 . S
C1681 H1739 0.930 . S
C1682 C1685 1.348 . S
C1682 C1686 1.356 . S
C1682 O1733 1.325 . S
C1683 N1684 1.279 . S
C1683 C1686 1.358 . S
C1683 H1740 0.930 . S
N1684 C1683 1.279 . S
N1684 C1687 1.314 . S
C1685 C1682 1.348 . S
C1685 C1687 1.353 . S
C1685 H1741 0.929 . S
C1686 C1682 1.356 . S
C1686 C1683 1.358 . S
C1686 H1742 0.930 . S
C1687 N1684 1.314 . S
C1687 C1685 1.353 . S
C1687 H1743 0.930 . S
C1688 N1689 1.314 . S
C1688 C1693 1.353 . S
C1688 H1694 0.930 . S
N1689 Li1672 1.990 . S
N1689 C1688 1.314 . S
N1689 C1691 1.279 . S
C1690 C1691 1.358 . S
C1690 C1692 1.356 . S
C1690 H1744 0.930 . S
C1691 N1689 1.279 . S
C1691 C1690 1.358 . S
C1691 H1695 0.930 . S
C1692 C1690 1.356 . S
C1692 C1693 1.348 . S
C1693 C1688 1.353 . S
C1693 C1692 1.348 . S
C1693 H1745 0.929 . S
H1694 C1688 0.930 . S
H1695 C1691 0.930 . S
C1696 N1697 1.314 . S
C1696 C1698 1.353 . S
C1696 H1702 0.930 . S
N1697 Li1673 1.990 . S
N1697 C1696 1.314 . S
N1697 C1700 1.279 . S
C1698 C1696 1.353 . S
C1698 C1701 1.348 . S
C1698 H1746 0.929 . S
C1699 C1700 1.358 . S
C1699 C1701 1.356 . S
C1699 H1747 0.930 . S
C1700 N1697 1.279 . S
C1700 C1699 1.358 . S
C1700 H1703 0.930 . S
C1701 C1698 1.348 . S
C1701 C1699 1.356 . S
H1702 C1696 0.930 . S
H1703 C1700 0.930 . S
C1704 C1706 1.348 . S
C1704 C1707 1.356 . S
C1704 O1734 1.325 . S
N1705 C1708 1.314 . S
N1705 C1709 1.279 1_565 S
C1706 C1704 1.348 . S
C1706 C1708 1.353 1_545 S
C1706 H1748 0.929 . S
C1707 C1704 1.356 . S
C1707 C1709 1.358 . S
C1707 H1749 0.930 . S
C1708 N1705 1.314 . S
C1708 C1706 1.353 1_565 S
C1708 H1750 0.930 . S
C1709 N1705 1.279 1_545 S
C1709 C1707 1.358 . S
C1709 H1751 0.930 . S
C1710 C1711 1.348 . S
C1710 C1712 1.356 . S
C1710 O1735 1.325 . S
C1711 C1710 1.348 . S
C1711 C1713 1.353 . S
C1711 H1752 0.929 . S
C1712 C1710 1.356 . S
C1712 C1714 1.358 . S
C1712 H1753 0.930 . S
C1713 C1711 1.353 . S
C1713 N1715 1.314 . S
C1713 H1754 0.930 . S
C1714 C1712 1.358 . S
C1714 N1715 1.279 . S
C1714 H1755 0.930 . S
N1715 C1713 1.314 . S
N1715 C1714 1.279 . S
C1716 C1718 1.353 . S
C1716 N1719 1.314 . S
C1716 H1722 0.930 . S
C1717 N1719 1.279 . S
C1717 C1720 1.358 . S
C1717 H1723 0.930 . S
C1718 C1716 1.353 . S
C1718 C1721 1.348 . S
C1718 H1756 0.929 . S
N1719 Li1674 1.990 . S
N1719 C1716 1.314 . S
N1719 C1717 1.279 . S
C1720 C1717 1.358 . S
C1720 C1721 1.356 . S
C1720 H1757 0.930 . S
C1721 C1718 1.348 . S
C1721 C1720 1.356 . S
H1722 C1716 0.930 . S
H1723 C1717 0.930 . S
C1724 N1725 1.314 . S
C1724 C1726 1.353 . S
C1724 H1730 0.930 . S
N1725 Li1675 1.990 . S
N1725 C1724 1.314 . S
N1725 C1728 1.279 . S
C1726 C1724 1.353 . S
C1726 C1729 1.348 . S
C1726 H1758 0.929 . S
C1727 C1728 1.358 . S
C1727 C1729 1.356 . S
C1727 H1759 0.930 . S
C1728 N1725 1.279 . S
C1728 C1727 1.358 . S
C1728 H1731 0.930 . S
C1729 C1726 1.348 . S
C1729 C1727 1.356 . S
H1730 C1724 0.930 . S
H1731 C1728 0.930 . S
O1732 Li1672 1.956 . S
O1732 Li1673 1.970 . S
O1732 Li1674 1.961 . S
O1732 C1676 1.325 . S
O1733 Li1672 1.970 . S
O1733 Li1673 1.956 . S
O1733 Li1675 1.961 . S
O1733 C1682 1.325 . S
O1734 Li1672 1.961 . S
O1734 Li1674 1.956 . S
O1734 Li1675 1.970 . S
O1734 C1704 1.325 . S
O1735 Li1673 1.961 . S
O1735 Li1674 1.970 . S
O1735 Li1675 1.956 . S
O1735 C1710 1.325 . S
H1736 C1678 0.929 . S
H1737 C1679 0.930 . S
H1738 C1680 0.930 . S
H1739 C1681 0.930 . S
H1740 C1683 0.930 . S
H1741 C1685 0.929 . S
H1742 C1686 0.930 . S
H1743 C1687 0.930 . S
H1744 C1690 0.930 . S
H1745 C1693 0.929 . S
H1746 C1698 0.929 . S
H1747 C1699 0.930 . S
H1748 C1706 0.929 . S
H1749 C1707 0.930 . S
H1750 C1708 0.930 . S
H1751 C1709 0.930 . S
H1752 C1711 0.929 . S
H1753 C1712 0.930 . S
H1754 C1713 0.930 . S
H1755 C1714 0.930 . S
H1756 C1718 0.929 . S
H1757 C1720 0.930 . S
H1758 C1726 0.929 . S
H1759 C1727 0.930 . S
Li1760 N1777 1.990 . S
Li1760 O1820 1.956 . S
Li1760 O1821 1.970 . S
Li1760 O1822 1.961 . S
Li1761 N1785 1.990 . S
Li1761 O1820 1.970 . S
Li1761 O1821 1.956 . S
Li1761 O1823 1.961 . S
Li1762 N1807 1.990 1_554 S
Li1762 O1820 1.961 . S
Li1762 O1822 1.956 . S
Li1762 O1823 1.970 . S
Li1763 N1813 1.990 . S
Li1763 O1821 1.961 . S
Li1763 O1822 1.970 . S
Li1763 O1823 1.956 . S
C1764 C1766 1.348 . S
C1764 C1767 1.356 . S
C1764 O1820 1.325 . S
N1765 C1768 1.314 . S
N1765 C1769 1.279 . S
C1766 C1764 1.348 . S
C1766 C1768 1.353 . S
C1766 H1824 0.929 . S
C1767 C1764 1.356 . S
C1767 C1769 1.358 . S
C1767 H1825 0.930 . S
C1768 N1765 1.314 . S
C1768 C1766 1.353 . S
C1768 H1826 0.930 . S
C1769 N1765 1.279 . S
C1769 C1767 1.358 . S
C1769 H1827 0.930 . S
C1770 C1773 1.348 . S
C1770 C1774 1.356 . S
C1770 O1821 1.325 . S
C1771 N1772 1.279 . S
C1771 C1774 1.358 . S
C1771 H1828 0.930 . S
N1772 C1771 1.279 . S
N1772 C1775 1.314 . S
C1773 C1770 1.348 . S
C1773 C1775 1.353 . S
C1773 H1829 0.929 . S
C1774 C1770 1.356 . S
C1774 C1771 1.358 . S
C1774 H1830 0.930 . S
C1775 N1772 1.314 . S
C1775 C1773 1.353 . S
C1775 H1831 0.930 . S
C1776 N1777 1.314 . S
C1776 C1781 1.353 . S
C1776 H1782 0.930 . S
N1777 Li1760 1.990 . S
N1777 C1776 1.314 . S
N1777 C1779 1.279 . S
C1778 C1779 1.358 . S
C1778 C1780 1.356 . S
C1778 H1832 0.930 . S
C1779 N1777 1.279 . S
C1779 C1778 1.358 . S
C1779 H1783 0.930 . S
C1780 C1778 1.356 . S
C1780 C1781 1.348 . S
C1781 C1776 1.353 . S
C1781 C1780 1.348 . S
C1781 H1833 0.929 . S
H1782 C1776 0.930 . S
H1783 C1779 0.930 . S
C1784 N1785 1.314 . S
C1784 C1786 1.353 . S
C1784 H1790 0.930 1_554 S
N1785 Li1761 1.990 . S
N1785 C1784 1.314 . S
N1785 C1788 1.279 . S
C1786 C1784 1.353 . S
C1786 C1789 1.348 . S
C1786 H1834 0.929 1_554 S
C1787 C1788 1.358 . S
C1787 C1789 1.356 . S
C1787 H1835 0.930 . S
C1788 N1785 1.279 . S
C1788 C1787 1.358 . S
C1788 H1791 0.930 . S
C1789 C1786 1.348 . S
C1789 C1787 1.356 . S
H1790 C1784 0.930 1_556 S
H1791 C1788 0.930 . S
C1792 C1794 1.348 . S
C1792 C1795 1.356 . S
C1792 O1822 1.325 . S
N1793 C1796 1.314 . S
N1793 C1797 1.279 . S
C1794 C1792 1.348 . S
C1794 C1796 1.353 . S
C1794 H1836 0.929 . S
C1795 C1792 1.356 . S
C1795 C1797 1.358 . S
C1795 H1837 0.930 . S
C1796 N1793 1.314 . S
C1796 C1794 1.353 . S
C1796 H1838 0.930 . S
C1797 N1793 1.279 . S
C1797 C1795 1.358 . S
C1797 H1839 0.930 . S
C1798 C1799 1.348 . S
C1798 C1800 1.356 . S
C1798 O1823 1.325 1_556 S
C1799 C1798 1.348 . S
C1799 C1801 1.353 . S
C1799 H1840 0.929 . S
C1800 C1798 1.356 . S
C1800 C1802 1.358 . S
C1800 H1841 0.930 . S
C1801 C1799 1.353 . S
C1801 N1803 1.314 . S
C1801 H1842 0.930 . S
C1802 C1800 1.358 . S
C1802 N1803 1.279 . S
C1802 H1843 0.930 . S
N1803 C1801 1.314 . S
N1803 C1802 1.279 . S
C1804 C1806 1.353 . S
C1804 N1807 1.314 . S
C1804 H1810 0.930 . S
C1805 N1807 1.279 . S
C1805 C1808 1.358 . S
C1805 H1811 0.930 . S
C1806 C1804 1.353 . S
C1806 C1809 1.348 . S
C1806 H1844 0.929 . S
N1807 Li1762 1.990 1_556 S
N1807 C1804 1.314 . S
N1807 C1805 1.279 . S
C1808 C1805 1.358 . S
C1808 C1809 1.356 . S
C1808 H1845 0.930 . S
C1809 C1806 1.348 . S
C1809 C1808 1.356 . S
H1810 C1804 0.930 . S
H1811 C1805 0.930 . S
C1812 N1813 1.314 . S
C1812 C1814 1.353 . S
C1812 H1818 0.930 . S
N1813 Li1763 1.990 . S
N1813 C1812 1.314 . S
N1813 C1816 1.279 . S
C1814 C1812 1.353 . S
C1814 C1817 1.348 . S
C1814 H1846 0.929 . S
C1815 C1816 1.358 1_556 S
C1815 C1817 1.356 1_556 S
C1815 H1847 0.930 . S
C1816 N1813 1.279 . S
C1816 C1815 1.358 1_554 S
C1816 H1819 0.930 1_554 S
C1817 C1814 1.348 . S
C1817 C1815 1.356 1_554 S
H1818 C1812 0.930 . S
H1819 C1816 0.930 1_556 S
O1820 Li1760 1.956 . S
O1820 Li1761 1.970 . S
O1820 Li1762 1.961 . S
O1820 C1764 1.325 . S
O1821 Li1760 1.970 . S
O1821 Li1761 1.956 . S
O1821 Li1763 1.961 . S
O1821 C1770 1.325 . S
O1822 Li1760 1.961 . S
O1822 Li1762 1.956 . S
O1822 Li1763 1.970 . S
O1822 C1792 1.325 . S
O1823 Li1761 1.961 . S
O1823 Li1762 1.970 . S
O1823 Li1763 1.956 . S
O1823 C1798 1.325 1_554 S
H1824 C1766 0.929 . S
H1825 C1767 0.930 . S
H1826 C1768 0.930 . S
H1827 C1769 0.930 . S
H1828 C1771 0.930 . S
H1829 C1773 0.929 . S
H1830 C1774 0.930 . S
H1831 C1775 0.930 . S
H1832 C1778 0.930 . S
H1833 C1781 0.929 . S
H1834 C1786 0.929 1_556 S
H1835 C1787 0.930 . S
H1836 C1794 0.929 . S
H1837 C1795 0.930 . S
H1838 C1796 0.930 . S
H1839 C1797 0.930 . S
H1840 C1799 0.929 . S
H1841 C1800 0.930 . S
H1842 C1801 0.930 . S
H1843 C1802 0.930 . S
H1844 C1806 0.929 . S
H1845 C1808 0.930 . S
H1846 C1814 0.929 . S
H1847 C1815 0.930 . S
Li1848 N1865 1.990 . S
Li1848 O1908 1.956 . S
Li1848 O1909 1.970 . S
Li1848 O1910 1.961 . S
Li1849 N1873 1.990 . S
Li1849 O1908 1.970 . S
Li1849 O1909 1.956 . S
Li1849 O1911 1.961 . S
Li1850 N1895 1.990 . S
Li1850 O1908 1.961 . S
Li1850 O1910 1.956 . S
Li1850 O1911 1.970 . S
Li1851 N1901 1.990 . S
Li1851 O1909 1.961 . S
Li1851 O1910 1.970 . S
Li1851 O1911 1.956 . S
C1852 C1854 1.348 . S
C1852 C1855 1.356 . S
C1852 O1908 1.325 . S
N1853 C1856 1.314 . S
N1853 C1857 1.279 . S
C1854 C1852 1.348 . S
C1854 C1856 1.353 . S
C1854 H1912 0.929 . S
C1855 C1852 1.356 . S
C1855 C1857 1.358 . S
C1855 H1913 0.930 . S
C1856 N1853 1.314 . S
C1856 C1854 1.353 . S
C1856 H1914 0.930 . S
C1857 N1853 1.279 . S
C1857 C1855 1.358 . S
C1857 H1915 0.930 . S
C1858 C1861 1.348 . S
C1858 C1862 1.356 . S
C1858 O1909 1.325 . S
C1859 N1860 1.279 . S
C1859 C1862 1.358 . S
C1859 H1916 0.930 . S
N1860 C1859 1.279 . S
N1860 C1863 1.314 . S
C1861 C1858 1.348 . S
C1861 C1863 1.353 . S
C1861 H1917 0.929 . S
C1862 C1858 1.356 . S
C1862 C1859 1.358 . S
C1862 H1918 0.930 . S
C1863 N1860 1.314 . S
C1863 C1861 1.353 . S
C1863 H1919 0.930 . S
C1864 N1865 1.314 . S
C1864 C1869 1.353 . S
C1864 H1870 0.930 . S
N1865 Li1848 1.990 . S
N1865 C1864 1.314 . S
N1865 C1867 1.279 . S
C1866 C1867 1.358 . S
C1866 C1868 1.356 . S
C1866 H1920 0.930 . S
C1867 N1865 1.279 . S
C1867 C1866 1.358 . S
C1867 H1871 0.930 . S
C1868 C1866 1.356 . S
C1868 C1869 1.348 . S
C1869 C1864 1.353 . S
C1869 C1868 1.348 . S
C1869 H1921 0.929 . S
H1870 C1864 0.930 . S
H1871 C1867 0.930 . S
C1872 N1873 1.314 . S
C1872 C1874 1.353 . S
C1872 H1878 0.930 . S
N1873 Li1849 1.990 . S
N1873 C1872 1.314 . S
N1873 C1876 1.279 . S
C1874 C1872 1.353 . S
C1874 C1877 1.348 . S
C1874 H1922 0.929 . S
C1875 C1876 1.358 . S
C1875 C1877 1.356 . S
C1875 H1923 0.930 . S
C1876 N1873 1.279 . S
C1876 C1875 1.358 . S
C1876 H1879 0.930 . S
C1877 C1874 1.348 . S
C1877 C1875 1.356 . S
H1878 C1872 0.930 . S
H1879 C1876 0.930 . S
C1880 C1882 1.348 . S
C1880 C1883 1.356 . S
C1880 O1910 1.325 . S
N1881 C1884 1.314 . S
N1881 C1885 1.279 . S
C1882 C1880 1.348 . S
C1882 C1884 1.353 . S
C1882 H1924 0.929 . S
C1883 C1880 1.356 . S
C1883 C1885 1.358 . S
C1883 H1925 0.930 . S
C1884 N1881 1.314 . S
C1884 C1882 1.353 . S
C1884 H1926 0.930 . S
C1885 N1881 1.279 . S
C1885 C1883 1.358 . S
C1885 H1927 0.930 . S
C1886 C1887 1.348 . S
C1886 C1888 1.356 . S
C1886 O1911 1.325 . S
C1887 C1886 1.348 . S
C1887 C1889 1.353 . S
C1887 H1928 0.929 . S
C1888 C1886 1.356 . S
C1888 C1890 1.358 . S
C1888 H1929 0.930 . S
C1889 C1887 1.353 . S
C1889 N1891 1.314 . S
C1889 H1930 0.930 . S
C1890 C1888 1.358 . S
C1890 N1891 1.279 . S
C1890 H1931 0.930 . S
N1891 C1889 1.314 . S
N1891 C1890 1.279 . S
C1892 C1894 1.353 . S
C1892 N1895 1.314 . S
C1892 H1898 0.930 . S
C1893 N1895 1.279 . S
C1893 C1896 1.358 . S
C1893 H1899 0.930 . S
C1894 C1892 1.353 . S
C1894 C1897 1.348 . S
C1894 H1932 0.929 . S
N1895 Li1850 1.990 . S
N1895 C1892 1.314 . S
N1895 C1893 1.279 . S
C1896 C1893 1.358 . S
C1896 C1897 1.356 . S
C1896 H1933 0.930 . S
C1897 C1894 1.348 . S
C1897 C1896 1.356 . S
H1898 C1892 0.930 . S
H1899 C1893 0.930 . S
C1900 N1901 1.314 . S
C1900 C1902 1.353 . S
C1900 H1906 0.930 . S
N1901 Li1851 1.990 . S
N1901 C1900 1.314 . S
N1901 C1904 1.279 . S
C1902 C1900 1.353 . S
C1902 C1905 1.348 . S
C1902 H1934 0.929 . S
C1903 C1904 1.358 . S
C1903 C1905 1.356 . S
C1903 H1935 0.930 . S
C1904 N1901 1.279 . S
C1904 C1903 1.358 . S
C1904 H1907 0.930 . S
C1905 C1902 1.348 . S
C1905 C1903 1.356 . S
H1906 C1900 0.930 . S
H1907 C1904 0.930 . S
O1908 Li1848 1.956 . S
O1908 Li1849 1.970 . S
O1908 Li1850 1.961 . S
O1908 C1852 1.325 . S
O1909 Li1848 1.970 . S
O1909 Li1849 1.956 . S
O1909 Li1851 1.961 . S
O1909 C1858 1.325 . S
O1910 Li1848 1.961 . S
O1910 Li1850 1.956 . S
O1910 Li1851 1.970 . S
O1910 C1880 1.325 . S
O1911 Li1849 1.961 . S
O1911 Li1850 1.970 . S
O1911 Li1851 1.956 . S
O1911 C1886 1.325 . S
H1912 C1854 0.929 . S
H1913 C1855 0.930 . S
H1914 C1856 0.930 . S
H1915 C1857 0.930 . S
H1916 C1859 0.930 . S
H1917 C1861 0.929 . S
H1918 C1862 0.930 . S
H1919 C1863 0.930 . S
H1920 C1866 0.930 . S
H1921 C1869 0.929 . S
H1922 C1874 0.929 . S
H1923 C1875 0.930 . S
H1924 C1882 0.929 . S
H1925 C1883 0.930 . S
H1926 C1884 0.930 . S
H1927 C1885 0.930 . S
H1928 C1887 0.929 . S
H1929 C1888 0.930 . S
H1930 C1889 0.930 . S
H1931 C1890 0.930 . S
H1932 C1894 0.929 . S
H1933 C1896 0.930 . S
H1934 C1902 0.929 . S
H1935 C1903 0.930 . S
Li1936 N1953 1.990 . S
Li1936 O1996 1.956 . S
Li1936 O1997 1.970 . S
Li1936 O1998 1.961 . S
Li1937 N1961 1.990 . S
Li1937 O1996 1.970 . S
Li1937 O1997 1.956 . S
Li1937 O1999 1.961 . S
Li1938 N1983 1.990 . S
Li1938 O1996 1.961 . S
Li1938 O1998 1.956 . S
Li1938 O1999 1.970 . S
Li1939 N1989 1.990 . S
Li1939 O1997 1.961 . S
Li1939 O1998 1.970 . S
Li1939 O1999 1.956 . S
C1940 C1942 1.348 . S
C1940 C1943 1.356 . S
C1940 O1996 1.325 . S
N1941 C1944 1.314 . S
N1941 C1945 1.279 . S
C1942 C1940 1.348 . S
C1942 C1944 1.353 . S
C1942 H2000 0.929 . S
C1943 C1940 1.356 . S
C1943 C1945 1.358 . S
C1943 H2001 0.930 . S
C1944 N1941 1.314 . S
C1944 C1942 1.353 . S
C1944 H2002 0.930 . S
C1945 N1941 1.279 . S
C1945 C1943 1.358 . S
C1945 H2003 0.930 . S
C1946 C1949 1.348 . S
C1946 C1950 1.356 . S
C1946 O1997 1.325 . S
C1947 N1948 1.279 . S
C1947 C1950 1.358 . S
C1947 H2004 0.930 . S
N1948 C1947 1.279 . S
N1948 C1951 1.314 . S
C1949 C1946 1.348 . S
C1949 C1951 1.353 . S
C1949 H2005 0.929 . S
C1950 C1946 1.356 . S
C1950 C1947 1.358 . S
C1950 H2006 0.930 . S
C1951 N1948 1.314 . S
C1951 C1949 1.353 . S
C1951 H2007 0.930 . S
C1952 N1953 1.314 . S
C1952 C1957 1.353 . S
C1952 H1958 0.930 . S
N1953 Li1936 1.990 . S
N1953 C1952 1.314 . S
N1953 C1955 1.279 . S
C1954 C1955 1.358 . S
C1954 C1956 1.356 . S
C1954 H2008 0.930 . S
C1955 N1953 1.279 . S
C1955 C1954 1.358 . S
C1955 H1959 0.930 . S
C1956 C1954 1.356 . S
C1956 C1957 1.348 . S
C1957 C1952 1.353 . S
C1957 C1956 1.348 . S
C1957 H2009 0.929 . S
H1958 C1952 0.930 . S
H1959 C1955 0.930 . S
C1960 N1961 1.314 . S
C1960 C1962 1.353 . S
C1960 H1966 0.930 . S
N1961 Li1937 1.990 . S
N1961 C1960 1.314 . S
N1961 C1964 1.279 . S
C1962 C1960 1.353 . S
C1962 C1965 1.348 . S
C1962 H2010 0.929 . S
C1963 C1964 1.358 . S
C1963 C1965 1.356 . S
C1963 H2011 0.930 . S
C1964 N1961 1.279 . S
C1964 C1963 1.358 . S
C1964 H1967 0.930 . S
C1965 C1962 1.348 . S
C1965 C1963 1.356 . S
H1966 C1960 0.930 . S
H1967 C1964 0.930 . S
C1968 C1970 1.348 . S
C1968 C1971 1.356 . S
C1968 O1998 1.325 . S
N1969 C1972 1.314 . S
N1969 C1973 1.279 . S
C1970 C1968 1.348 . S
C1970 C1972 1.353 . S
C1970 H2012 0.929 . S
C1971 C1968 1.356 . S
C1971 C1973 1.358 . S
C1971 H2013 0.930 . S
C1972 N1969 1.314 . S
C1972 C1970 1.353 . S
C1972 H2014 0.930 . S
C1973 N1969 1.279 . S
C1973 C1971 1.358 . S
C1973 H2015 0.930 . S
C1974 C1975 1.348 . S
C1974 C1976 1.356 . S
C1974 O1999 1.325 . S
C1975 C1974 1.348 . S
C1975 C1977 1.353 . S
C1975 H2016 0.929 . S
C1976 C1974 1.356 . S
C1976 C1978 1.358 . S
C1976 H2017 0.930 . S
C1977 C1975 1.353 . S
C1977 N1979 1.314 . S
C1977 H2018 0.930 . S
C1978 C1976 1.358 . S
C1978 N1979 1.279 . S
C1978 H2019 0.930 . S
N1979 C1977 1.314 . S
N1979 C1978 1.279 . S
C1980 C1982 1.353 . S
C1980 N1983 1.314 . S
C1980 H1986 0.930 . S
C1981 N1983 1.279 . S
C1981 C1984 1.358 . S
C1981 H1987 0.930 . S
C1982 C1980 1.353 . S
C1982 C1985 1.348 . S
C1982 H2020 0.929 . S
N1983 Li1938 1.990 . S
N1983 C1980 1.314 . S
N1983 C1981 1.279 . S
C1984 C1981 1.358 . S
C1984 C1985 1.356 . S
C1984 H2021 0.930 . S
C1985 C1982 1.348 . S
C1985 C1984 1.356 . S
H1986 C1980 0.930 . S
H1987 C1981 0.930 . S
C1988 N1989 1.314 . S
C1988 C1990 1.353 . S
C1988 H1994 0.930 . S
N1989 Li1939 1.990 . S
N1989 C1988 1.314 . S
N1989 C1992 1.279 . S
C1990 C1988 1.353 . S
C1990 C1993 1.348 . S
C1990 H2022 0.929 . S
C1991 C1992 1.358 . S
C1991 C1993 1.356 . S
C1991 H2023 0.930 . S
C1992 N1989 1.279 . S
C1992 C1991 1.358 . S
C1992 H1995 0.930 . S
C1993 C1990 1.348 . S
C1993 C1991 1.356 . S
H1994 C1988 0.930 . S
H1995 C1992 0.930 . S
O1996 Li1936 1.956 . S
O1996 Li1937 1.970 . S
O1996 Li1938 1.961 . S
O1996 C1940 1.325 . S
O1997 Li1936 1.970 . S
O1997 Li1937 1.956 . S
O1997 Li1939 1.961 . S
O1997 C1946 1.325 . S
O1998 Li1936 1.961 . S
O1998 Li1938 1.956 . S
O1998 Li1939 1.970 . S
O1998 C1968 1.325 . S
O1999 Li1937 1.961 . S
O1999 Li1938 1.970 . S
O1999 Li1939 1.956 . S
O1999 C1974 1.325 . S
H2000 C1942 0.929 . S
H2001 C1943 0.930 . S
H2002 C1944 0.930 . S
H2003 C1945 0.930 . S
H2004 C1947 0.930 . S
H2005 C1949 0.929 . S
H2006 C1950 0.930 . S
H2007 C1951 0.930 . S
H2008 C1954 0.930 . S
H2009 C1957 0.929 . S
H2010 C1962 0.929 . S
H2011 C1963 0.930 . S
H2012 C1970 0.929 . S
H2013 C1971 0.930 . S
H2014 C1972 0.930 . S
H2015 C1973 0.930 . S
H2016 C1975 0.929 . S
H2017 C1976 0.930 . S
H2018 C1977 0.930 . S
H2019 C1978 0.930 . S
H2020 C1982 0.929 . S
H2021 C1984 0.930 . S
H2022 C1990 0.929 . S
H2023 C1991 0.930 . S
Li2024 N2041 1.990 . S
Li2024 O2084 1.956 . S
Li2024 O2085 1.970 . S
Li2024 O2086 1.961 . S
Li2025 N2049 1.990 . S
Li2025 O2084 1.970 . S
Li2025 O2085 1.956 . S
Li2025 O2087 1.961 . S
Li2026 N2071 1.990 . S
Li2026 O2084 1.961 . S
Li2026 O2086 1.956 . S
Li2026 O2087 1.970 . S
Li2027 N2077 1.990 . S
Li2027 O2085 1.961 . S
Li2027 O2086 1.970 . S
Li2027 O2087 1.956 . S
C2028 C2030 1.348 . S
C2028 C2031 1.356 . S
C2028 O2084 1.325 . S
N2029 C2032 1.314 . S
N2029 C2033 1.279 . S
C2030 C2028 1.348 . S
C2030 C2032 1.353 . S
C2030 H2088 0.929 . S
C2031 C2028 1.356 . S
C2031 C2033 1.358 . S
C2031 H2089 0.930 . S
C2032 N2029 1.314 . S
C2032 C2030 1.353 . S
C2032 H2090 0.930 . S
C2033 N2029 1.279 . S
C2033 C2031 1.358 . S
C2033 H2091 0.930 . S
C2034 C2037 1.348 . S
C2034 C2038 1.356 . S
C2034 O2085 1.325 . S
C2035 N2036 1.279 . S
C2035 C2038 1.358 . S
C2035 H2092 0.930 . S
N2036 C2035 1.279 . S
N2036 C2039 1.314 . S
C2037 C2034 1.348 . S
C2037 C2039 1.353 . S
C2037 H2093 0.929 . S
C2038 C2034 1.356 . S
C2038 C2035 1.358 . S
C2038 H2094 0.930 . S
C2039 N2036 1.314 . S
C2039 C2037 1.353 . S
C2039 H2095 0.930 . S
C2040 N2041 1.314 . S
C2040 C2045 1.353 . S
C2040 H2046 0.930 . S
N2041 Li2024 1.990 . S
N2041 C2040 1.314 . S
N2041 C2043 1.279 . S
C2042 C2043 1.358 . S
C2042 C2044 1.356 . S
C2042 H2096 0.930 . S
C2043 N2041 1.279 . S
C2043 C2042 1.358 . S
C2043 H2047 0.930 . S
C2044 C2042 1.356 . S
C2044 C2045 1.348 . S
C2045 C2040 1.353 . S
C2045 C2044 1.348 . S
C2045 H2097 0.929 . S
H2046 C2040 0.930 . S
H2047 C2043 0.930 . S
C2048 N2049 1.314 . S
C2048 C2050 1.353 . S
C2048 H2054 0.930 . S
N2049 Li2025 1.990 . S
N2049 C2048 1.314 . S
N2049 C2052 1.279 . S
C2050 C2048 1.353 . S
C2050 C2053 1.348 . S
C2050 H2098 0.929 . S
C2051 C2052 1.358 . S
C2051 C2053 1.356 . S
C2051 H2099 0.930 . S
C2052 N2049 1.279 . S
C2052 C2051 1.358 . S
C2052 H2055 0.930 . S
C2053 C2050 1.348 . S
C2053 C2051 1.356 . S
H2054 C2048 0.930 . S
H2055 C2052 0.930 . S
C2056 C2058 1.348 . S
C2056 C2059 1.356 . S
C2056 O2086 1.325 . S
N2057 C2060 1.314 . S
N2057 C2061 1.279 . S
C2058 C2056 1.348 . S
C2058 C2060 1.353 . S
C2058 H2100 0.929 . S
C2059 C2056 1.356 . S
C2059 C2061 1.358 . S
C2059 H2101 0.930 . S
C2060 N2057 1.314 . S
C2060 C2058 1.353 . S
C2060 H2102 0.930 . S
C2061 N2057 1.279 . S
C2061 C2059 1.358 . S
C2061 H2103 0.930 . S
C2062 C2063 1.348 . S
C2062 C2064 1.356 . S
C2062 O2087 1.325 . S
C2063 C2062 1.348 . S
C2063 C2065 1.353 . S
C2063 H2104 0.929 . S
C2064 C2062 1.356 . S
C2064 C2066 1.358 . S
C2064 H2105 0.930 . S
C2065 C2063 1.353 . S
C2065 N2067 1.314 . S
C2065 H2106 0.930 . S
C2066 C2064 1.358 . S
C2066 N2067 1.279 . S
C2066 H2107 0.930 . S
N2067 C2065 1.314 . S
N2067 C2066 1.279 . S
C2068 C2070 1.353 . S
C2068 N2071 1.314 . S
C2068 H2074 0.930 . S
C2069 N2071 1.279 . S
C2069 C2072 1.358 . S
C2069 H2075 0.930 . S
C2070 C2068 1.353 . S
C2070 C2073 1.348 . S
C2070 H2108 0.929 . S
N2071 Li2026 1.990 . S
N2071 C2068 1.314 . S
N2071 C2069 1.279 . S
C2072 C2069 1.358 . S
C2072 C2073 1.356 . S
C2072 H2109 0.930 . S
C2073 C2070 1.348 . S
C2073 C2072 1.356 . S
H2074 C2068 0.930 . S
H2075 C2069 0.930 . S
C2076 N2077 1.314 . S
C2076 C2078 1.353 . S
C2076 H2082 0.930 . S
N2077 Li2027 1.990 . S
N2077 C2076 1.314 . S
N2077 C2080 1.279 . S
C2078 C2076 1.353 . S
C2078 C2081 1.348 . S
C2078 H2110 0.929 . S
C2079 C2080 1.358 . S
C2079 C2081 1.356 . S
C2079 H2111 0.930 . S
C2080 N2077 1.279 . S
C2080 C2079 1.358 . S
C2080 H2083 0.930 . S
C2081 C2078 1.348 . S
C2081 C2079 1.356 . S
H2082 C2076 0.930 . S
H2083 C2080 0.930 . S
O2084 Li2024 1.956 . S
O2084 Li2025 1.970 . S
O2084 Li2026 1.961 . S
O2084 C2028 1.325 . S
O2085 Li2024 1.970 . S
O2085 Li2025 1.956 . S
O2085 Li2027 1.961 . S
O2085 C2034 1.325 . S
O2086 Li2024 1.961 . S
O2086 Li2026 1.956 . S
O2086 Li2027 1.970 . S
O2086 C2056 1.325 . S
O2087 Li2025 1.961 . S
O2087 Li2026 1.970 . S
O2087 Li2027 1.956 . S
O2087 C2062 1.325 . S
H2088 C2030 0.929 . S
H2089 C2031 0.930 . S
H2090 C2032 0.930 . S
H2091 C2033 0.930 . S
H2092 C2035 0.930 . S
H2093 C2037 0.929 . S
H2094 C2038 0.930 . S
H2095 C2039 0.930 . S
H2096 C2042 0.930 . S
H2097 C2045 0.929 . S
H2098 C2050 0.929 . S
H2099 C2051 0.930 . S
H2100 C2058 0.929 . S
H2101 C2059 0.930 . S
H2102 C2060 0.930 . S
H2103 C2061 0.930 . S
H2104 C2063 0.929 . S
H2105 C2064 0.930 . S
H2106 C2065 0.930 . S
H2107 C2066 0.930 . S
H2108 C2070 0.929 . S
H2109 C2072 0.930 . S
H2110 C2078 0.929 . S
H2111 C2079 0.930 . S
Dy2112 O2115 2.307 . S
Dy2112 O2117 2.395 . S
Dy2112 O2118 2.379 . S
Dy2112 O2120 2.339 . S
Dy2112 O2122 2.298 . S
Dy2112 O2126 2.275 . S
Dy2112 C2134 2.738 . S
Dy2113 O2116 2.298 1_655 S
Dy2113 O2119 2.275 1_655 S
Dy2113 O2121 2.321 1_655 S
Dy2113 O2123 2.395 . S
Dy2113 O2124 2.379 1_554 S
Dy2113 O2127 2.339 1_654 S
Dy2113 C2143 2.738 . S
C2114 O2126 1.254 1_556 S
C2114 O2127 1.257 . S
O2115 Dy2112 2.307 . S
O2115 C2125 1.266 . S
O2116 Dy2113 2.298 1_455 S
O2116 C2125 1.236 . S
O2117 Dy2112 2.395 . S
O2117 C2134 1.255 . S
O2118 Dy2112 2.379 . S
O2118 C2134 1.249 . S
O2119 Dy2113 2.275 1_455 S
O2119 C2135 1.254 . S
O2120 Dy2112 2.339 . S
O2120 C2135 1.257 . S
O2121 Dy2113 2.321 1_455 S
O2121 C2136 1.260 1_545 S
O2122 Dy2112 2.298 . S
O2122 C2136 1.236 1_545 S
O2123 Dy2113 2.395 . S
O2123 C2143 1.255 . S
O2124 Dy2113 2.379 1_556 S
O2124 C2143 1.249 1_556 S
C2125 O2115 1.266 . S
C2125 O2116 1.236 . S
O2126 Dy2112 2.275 . S
O2126 C2114 1.254 1_554 S
O2127 Dy2113 2.339 1_456 S
O2127 C2114 1.257 . S
C2128 C2131 1.344 . S
C2128 C2132 1.328 . S
C2128 C2134 1.516 . S
C2129 C2130 1.304 . S
C2129 C2133 1.323 . S
C2130 C2129 1.304 . S
C2130 C2131 1.371 . S
C2130 H2144 0.930 1_545 S
C2131 C2128 1.344 . S
C2131 C2130 1.371 . S
C2131 H2145 0.931 . S
C2132 C2128 1.328 . S
C2132 C2133 1.433 . S
C2132 H2146 0.931 . S
C2133 C2129 1.323 . S
C2133 C2132 1.433 . S
C2133 H2147 0.933 . S
C2134 Dy2112 2.738 . S
C2134 O2117 1.255 . S
C2134 O2118 1.249 . S
C2134 C2128 1.516 . S
C2135 O2119 1.254 . S
C2135 O2120 1.257 . S
C2136 O2121 1.260 1_565 S
C2136 O2122 1.236 1_565 S
C2137 C2140 1.344 . S
C2137 C2141 1.328 1_554 S
C2137 C2143 1.516 . S
C2138 C2139 1.304 . S
C2138 C2142 1.323 1_554 S
C2139 C2138 1.304 . S
C2139 C2140 1.371 . S
C2139 H2148 0.930 . S
C2140 C2137 1.344 . S
C2140 C2139 1.371 . S
C2140 H2149 0.931 . S
C2141 C2137 1.328 1_556 S
C2141 C2142 1.433 . S
C2141 H2150 0.931 . S
C2142 C2138 1.323 1_556 S
C2142 C2141 1.433 . S
C2142 H2151 0.933 . S
C2143 Dy2113 2.738 . S
C2143 O2123 1.255 . S
C2143 O2124 1.249 1_554 S
C2143 C2137 1.516 . S
H2144 C2130 0.930 1_565 S
H2145 C2131 0.931 . S
H2146 C2132 0.931 . S
H2147 C2133 0.933 . S
H2148 C2139 0.930 . S
H2149 C2140 0.931 . S
H2150 C2141 0.931 . S
H2151 C2142 0.933 . S
Dy2152 O2155 2.307 . S
Dy2152 O2157 2.395 . S
Dy2152 O2158 2.379 . S
Dy2152 O2160 2.339 . S
Dy2152 O2162 2.298 . S
Dy2152 O2166 2.275 . S
Dy2152 C2174 2.738 . S
Dy2153 O2156 2.298 . S
Dy2153 O2159 2.275 . S
Dy2153 O2161 2.307 . S
Dy2153 O2163 2.395 . S
Dy2153 O2164 2.379 . S
Dy2153 O2167 2.339 . S
Dy2153 C2183 2.738 . S
C2154 O2166 1.254 . S
C2154 O2167 1.257 . S
O2155 Dy2152 2.307 . S
O2155 C2165 1.266 . S
O2156 Dy2153 2.298 . S
O2156 C2165 1.236 . S
O2157 Dy2152 2.395 . S
O2157 C2174 1.255 . S
O2158 Dy2152 2.379 . S
O2158 C2174 1.249 . S
O2159 Dy2153 2.275 . S
O2159 C2175 1.254 . S
O2160 Dy2152 2.339 . S
O2160 C2175 1.257 . S
O2161 Dy2153 2.307 . S
O2161 C2176 1.266 . S
O2162 Dy2152 2.298 . S
O2162 C2176 1.236 . S
O2163 Dy2153 2.395 . S
O2163 C2183 1.255 . S
O2164 Dy2153 2.379 . S
O2164 C2183 1.249 . S
C2165 O2155 1.266 . S
C2165 O2156 1.236 . S
O2166 Dy2152 2.275 . S
O2166 C2154 1.254 . S
O2167 Dy2153 2.339 . S
O2167 C2154 1.257 . S
C2168 C2171 1.344 . S
C2168 C2172 1.328 . S
C2168 C2174 1.516 . S
C2169 C2170 1.304 . S
C2169 C2173 1.323 . S
C2170 C2169 1.304 . S
C2170 C2171 1.371 . S
C2170 H2184 0.930 . S
C2171 C2168 1.344 . S
C2171 C2170 1.371 . S
C2171 H2185 0.931 . S
C2172 C2168 1.328 . S
C2172 C2173 1.433 . S
C2172 H2186 0.931 . S
C2173 C2169 1.323 . S
C2173 C2172 1.433 . S
C2173 H2187 0.933 . S
C2174 Dy2152 2.738 . S
C2174 O2157 1.255 . S
C2174 O2158 1.249 . S
C2174 C2168 1.516 . S
C2175 O2159 1.254 . S
C2175 O2160 1.257 . S
C2176 O2161 1.266 . S
C2176 O2162 1.236 . S
C2177 C2180 1.344 . S
C2177 C2181 1.328 . S
C2177 C2183 1.516 . S
C2178 C2179 1.304 . S
C2178 C2182 1.323 . S
C2179 C2178 1.304 . S
C2179 C2180 1.371 . S
C2179 H2188 0.930 . S
C2180 C2177 1.344 . S
C2180 C2179 1.371 . S
C2180 H2189 0.931 . S
C2181 C2177 1.328 . S
C2181 C2182 1.433 . S
C2181 H2190 0.931 . S
C2182 C2178 1.323 . S
C2182 C2181 1.433 . S
C2182 H2191 0.933 . S
C2183 Dy2153 2.738 . S
C2183 O2163 1.255 . S
C2183 O2164 1.249 . S
C2183 C2177 1.516 . S
H2184 C2170 0.930 . S
H2185 C2171 0.931 . S
H2186 C2172 0.931 . S
H2187 C2173 0.933 . S
H2188 C2179 0.930 . S
H2189 C2180 0.931 . S
H2190 C2181 0.931 . S
H2191 C2182 0.933 . S
Dy2192 O2195 2.307 . S
Dy2192 O2197 2.395 . S
Dy2192 O2198 2.379 . S
Dy2192 O2200 2.339 . S
Dy2192 O2202 2.298 . S
Dy2192 O2206 2.275 . S
Dy2192 C2214 2.738 . S
Dy2193 O2196 2.298 . S
Dy2193 O2199 2.275 . S
Dy2193 O2201 2.307 . S
Dy2193 O2203 2.395 . S
Dy2193 O2204 2.379 . S
Dy2193 O2207 2.339 . S
Dy2193 C2223 2.738 . S
C2194 O2206 1.254 . S
C2194 O2207 1.257 . S
O2195 Dy2192 2.307 . S
O2195 C2205 1.266 1_545 S
O2196 Dy2193 2.298 . S
O2196 C2205 1.236 1_545 S
O2197 Dy2192 2.395 . S
O2197 C2214 1.255 . S
O2198 Dy2192 2.379 . S
O2198 C2214 1.249 . S
O2199 Dy2193 2.275 . S
O2199 C2215 1.254 . S
O2200 Dy2192 2.339 . S
O2200 C2215 1.257 . S
O2201 Dy2193 2.307 . S
O2201 C2216 1.266 . S
O2202 Dy2192 2.298 . S
O2202 C2216 1.236 . S
O2203 Dy2193 2.395 . S
O2203 C2223 1.255 . S
O2204 Dy2193 2.379 . S
O2204 C2223 1.249 . S
C2205 O2195 1.266 1_565 S
C2205 O2196 1.236 1_565 S
O2206 Dy2192 2.275 . S
O2206 C2194 1.254 . S
O2207 Dy2193 2.339 . S
O2207 C2194 1.257 . S
C2208 C2211 1.344 . S
C2208 C2212 1.328 . S
C2208 C2214 1.516 . S
C2209 C2210 1.304 . S
C2209 C2213 1.323 . S
C2210 C2209 1.304 . S
C2210 C2211 1.371 . S
C2210 H2224 0.930 . S
C2211 C2208 1.344 . S
C2211 C2210 1.371 . S
C2211 H2225 0.931 . S
C2212 C2208 1.328 . S
C2212 C2213 1.433 . S
C2212 H2226 0.931 . S
C2213 C2209 1.323 . S
C2213 C2212 1.433 . S
C2213 H2227 0.933 . S
C2214 Dy2192 2.738 . S
C2214 O2197 1.255 . S
C2214 O2198 1.249 . S
C2214 C2208 1.516 . S
C2215 O2199 1.254 . S
C2215 O2200 1.257 . S
C2216 O2201 1.266 . S
C2216 O2202 1.236 . S
C2217 C2220 1.344 1_545 S
C2217 C2221 1.328 . S
C2217 C2223 1.516 . S
C2218 C2219 1.304 . S
C2218 C2222 1.323 . S
C2219 C2218 1.304 . S
C2219 C2220 1.371 . S
C2219 H2228 0.930 . S
C2220 C2217 1.344 1_565 S
C2220 C2219 1.371 . S
C2220 H2229 0.931 . S
C2221 C2217 1.328 . S
C2221 C2222 1.433 1_545 S
C2221 H2230 0.931 . S
C2222 C2218 1.323 . S
C2222 C2221 1.433 1_565 S
C2222 H2231 0.933 . S
C2223 Dy2193 2.738 . S
C2223 O2203 1.255 . S
C2223 O2204 1.249 . S
C2223 C2217 1.516 . S
H2224 C2210 0.930 . S
H2225 C2211 0.931 . S
H2226 C2212 0.931 . S
H2227 C2213 0.933 . S
H2228 C2219 0.930 . S
H2229 C2220 0.931 . S
H2230 C2221 0.931 . S
H2231 C2222 0.933 . S
Dy2232 O2235 2.307 . S
Dy2232 O2237 2.395 . S
Dy2232 O2238 2.379 . S
Dy2232 O2240 2.339 . S
Dy2232 O2242 2.298 . S
Dy2232 O2246 2.275 . S
Dy2232 C2254 2.738 . S
Dy2233 O2236 2.298 . S
Dy2233 O2239 2.275 . S
Dy2233 O2241 2.307 . S
Dy2233 O2243 2.395 . S
Dy2233 O2244 2.379 . S
Dy2233 O2247 2.339 . S
Dy2233 C2263 2.738 . S
C2234 O2246 1.254 . S
C2234 O2247 1.257 . S
O2235 Dy2232 2.307 . S
O2235 C2245 1.266 . S
O2236 Dy2233 2.298 . S
O2236 C2245 1.236 . S
O2237 Dy2232 2.395 . S
O2237 C2254 1.255 . S
O2238 Dy2232 2.379 . S
O2238 C2254 1.249 . S
O2239 Dy2233 2.275 . S
O2239 C2255 1.254 . S
O2240 Dy2232 2.339 . S
O2240 C2255 1.257 . S
O2241 Dy2233 2.307 . S
O2241 C2256 1.266 . S
O2242 Dy2232 2.298 . S
O2242 C2256 1.236 . S
O2243 Dy2233 2.395 . S
O2243 C2263 1.255 . S
O2244 Dy2233 2.379 . S
O2244 C2263 1.249 . S
C2245 O2235 1.266 . S
C2245 O2236 1.236 . S
O2246 Dy2232 2.275 . S
O2246 C2234 1.254 . S
O2247 Dy2233 2.339 . S
O2247 C2234 1.257 . S
C2248 C2251 1.344 . S
C2248 C2252 1.328 . S
C2248 C2254 1.516 . S
C2249 C2250 1.304 . S
C2249 C2253 1.323 . S
C2250 C2249 1.304 . S
C2250 C2251 1.371 . S
C2250 H2264 0.930 . S
C2251 C2248 1.344 . S
C2251 C2250 1.371 . S
C2251 H2265 0.931 . S
C2252 C2248 1.328 . S
C2252 C2253 1.433 . S
C2252 H2266 0.931 . S
C2253 C2249 1.323 . S
C2253 C2252 1.433 . S
C2253 H2267 0.933 . S
C2254 Dy2232 2.738 . S
C2254 O2237 1.255 . S
C2254 O2238 1.249 . S
C2254 C2248 1.516 . S
C2255 O2239 1.254 . S
C2255 O2240 1.257 . S
C2256 O2241 1.266 . S
C2256 O2242 1.236 . S
C2257 C2260 1.344 . S
C2257 C2261 1.328 . S
C2257 C2263 1.516 . S
C2258 C2259 1.304 . S
C2258 C2262 1.323 . S
C2259 C2258 1.304 . S
C2259 C2260 1.371 . S
C2259 H2268 0.930 . S
C2260 C2257 1.344 . S
C2260 C2259 1.371 . S
C2260 H2269 0.931 . S
C2261 C2257 1.328 . S
C2261 C2262 1.433 . S
C2261 H2270 0.931 . S
C2262 C2258 1.323 . S
C2262 C2261 1.433 . S
C2262 H2271 0.933 . S
C2263 Dy2233 2.738 . S
C2263 O2243 1.255 . S
C2263 O2244 1.249 . S
C2263 C2257 1.516 . S
H2264 C2250 0.930 . S
H2265 C2251 0.931 . S
H2266 C2252 0.931 . S
H2267 C2253 0.933 . S
H2268 C2259 0.930 . S
H2269 C2260 0.931 . S
H2270 C2261 0.931 . S
H2271 C2262 0.933 . S
Dy2272 O2275 2.307 . S
Dy2272 O2277 2.395 1_545 S
Dy2272 O2278 2.379 1_545 S
Dy2272 O2280 2.339 . S
Dy2272 O2282 2.298 . S
Dy2272 O2286 2.275 . S
Dy2272 C2294 2.738 1_545 S
Dy2273 O2276 2.298 . S
Dy2273 O2279 2.275 . S
Dy2273 O2281 2.307 . S
Dy2273 O2283 2.395 . S
Dy2273 O2284 2.379 1_455 S
Dy2273 O2287 2.339 1_455 S
Dy2273 C2303 2.738 . S
C2274 O2286 1.254 1_655 S
C2274 O2287 1.257 . S
O2275 Dy2272 2.307 . S
O2275 C2285 1.266 . S
O2276 Dy2273 2.298 . S
O2276 C2285 1.236 . S
O2277 Dy2272 2.395 1_565 S
O2277 C2294 1.255 . S
O2278 Dy2272 2.379 1_565 S
O2278 C2294 1.249 . S
O2279 Dy2273 2.275 . S
O2279 C2295 1.254 . S
O2280 Dy2272 2.339 . S
O2280 C2295 1.257 . S
O2281 Dy2273 2.307 . S
O2281 C2296 1.266 . S
O2282 Dy2272 2.298 . S
O2282 C2296 1.236 . S
O2283 Dy2273 2.395 . S
O2283 C2303 1.255 . S
O2284 Dy2273 2.379 1_655 S
O2284 C2303 1.249 1_655 S
C2285 O2275 1.266 . S
C2285 O2276 1.236 . S
O2286 Dy2272 2.275 . S
O2286 C2274 1.254 1_455 S
O2287 Dy2273 2.339 1_655 S
O2287 C2274 1.257 . S
C2288 C2291 1.344 . S
C2288 C2292 1.328 . S
C2288 C2294 1.516 . S
C2289 C2290 1.304 . S
C2289 C2293 1.323 . S
C2290 C2289 1.304 . S
C2290 C2291 1.371 . S
C2290 H2304 0.930 . S
C2291 C2288 1.344 . S
C2291 C2290 1.371 . S
C2291 H2305 0.931 . S
C2292 C2288 1.328 . S
C2292 C2293 1.433 . S
C2292 H2306 0.931 . S
C2293 C2289 1.323 . S
C2293 C2292 1.433 . S
C2293 H2307 0.933 . S
C2294 Dy2272 2.738 1_565 S
C2294 O2277 1.255 . S
C2294 O2278 1.249 . S
C2294 C2288 1.516 . S
C2295 O2279 1.254 . S
C2295 O2280 1.257 . S
C2296 O2281 1.266 . S
C2296 O2282 1.236 . S
C2297 C2300 1.344 . S
C2297 C2301 1.328 1_455 S
C2297 C2303 1.516 . S
C2298 C2299 1.304 . S
C2298 C2302 1.323 1_455 S
C2299 C2298 1.304 . S
C2299 C2300 1.371 . S
C2299 H2308 0.930 . S
C2300 C2297 1.344 . S
C2300 C2299 1.371 . S
C2300 H2309 0.931 . S
C2301 C2297 1.328 1_655 S
C2301 C2302 1.433 . S
C2301 H2310 0.931 . S
C2302 C2298 1.323 1_655 S
C2302 C2301 1.433 . S
C2302 H2311 0.933 . S
C2303 Dy2273 2.738 . S
C2303 O2283 1.255 . S
C2303 O2284 1.249 1_455 S
C2303 C2297 1.516 . S
H2304 C2290 0.930 . S
H2305 C2291 0.931 . S
H2306 C2292 0.931 . S
H2307 C2293 0.933 . S
H2308 C2299 0.930 . S
H2309 C2300 0.931 . S
H2310 C2301 0.931 . S
H2311 C2302 0.933 . S
Dy2312 O2315 2.307 . S
Dy2312 O2317 2.395 . S
Dy2312 O2318 2.379 . S
Dy2312 O2320 2.339 . S
Dy2312 O2322 2.298 . S
Dy2312 O2326 2.275 . S
Dy2312 C2334 2.738 . S
Dy2313 O2316 2.298 . S
Dy2313 O2319 2.275 . S
Dy2313 O2321 2.307 . S
Dy2313 O2323 2.395 . S
Dy2313 O2324 2.379 . S
Dy2313 O2327 2.339 . S
Dy2313 C2343 2.738 . S
C2314 O2326 1.254 . S
C2314 O2327 1.257 . S
O2315 Dy2312 2.307 . S
O2315 C2325 1.266 . S
O2316 Dy2313 2.298 . S
O2316 C2325 1.236 . S
O2317 Dy2312 2.395 . S
O2317 C2334 1.255 . S
O2318 Dy2312 2.379 . S
O2318 C2334 1.249 . S
O2319 Dy2313 2.275 . S
O2319 C2335 1.254 . S
O2320 Dy2312 2.339 . S
O2320 C2335 1.257 . S
O2321 Dy2313 2.307 . S
O2321 C2336 1.266 . S
O2322 Dy2312 2.298 . S
O2322 C2336 1.236 . S
O2323 Dy2313 2.395 . S
O2323 C2343 1.255 . S
O2324 Dy2313 2.379 . S
O2324 C2343 1.249 . S
C2325 O2315 1.266 . S
C2325 O2316 1.236 . S
O2326 Dy2312 2.275 . S
O2326 C2314 1.254 . S
O2327 Dy2313 2.339 . S
O2327 C2314 1.257 . S
C2328 C2331 1.344 . S
C2328 C2332 1.328 . S
C2328 C2334 1.516 . S
C2329 C2330 1.304 . S
C2329 C2333 1.323 . S
C2330 C2329 1.304 . S
C2330 C2331 1.371 . S
C2330 H2344 0.930 . S
C2331 C2328 1.344 . S
C2331 C2330 1.371 . S
C2331 H2345 0.931 . S
C2332 C2328 1.328 . S
C2332 C2333 1.433 . S
C2332 H2346 0.931 . S
C2333 C2329 1.323 . S
C2333 C2332 1.433 . S
C2333 H2347 0.933 . S
C2334 Dy2312 2.738 . S
C2334 O2317 1.255 . S
C2334 O2318 1.249 . S
C2334 C2328 1.516 . S
C2335 O2319 1.254 . S
C2335 O2320 1.257 . S
C2336 O2321 1.266 . S
C2336 O2322 1.236 . S
C2337 C2340 1.344 . S
C2337 C2341 1.328 . S
C2337 C2343 1.516 . S
C2338 C2339 1.304 . S
C2338 C2342 1.323 . S
C2339 C2338 1.304 . S
C2339 C2340 1.371 . S
C2339 H2348 0.930 . S
C2340 C2337 1.344 . S
C2340 C2339 1.371 . S
C2340 H2349 0.931 . S
C2341 C2337 1.328 . S
C2341 C2342 1.433 . S
C2341 H2350 0.931 . S
C2342 C2338 1.323 . S
C2342 C2341 1.433 . S
C2342 H2351 0.933 . S
C2343 Dy2313 2.738 . S
C2343 O2323 1.255 . S
C2343 O2324 1.249 . S
C2343 C2337 1.516 . S
H2344 C2330 0.930 . S
H2345 C2331 0.931 . S
H2346 C2332 0.931 . S
H2347 C2333 0.933 . S
H2348 C2339 0.930 . S
H2349 C2340 0.931 . S
H2350 C2341 0.931 . S
H2351 C2342 0.933 . S
Dy2352 O2355 2.307 . S
Dy2352 O2357 2.395 1_554 S
Dy2352 O2358 2.379 1_554 S
Dy2352 O2360 2.339 . S
Dy2352 O2362 2.298 . S
Dy2352 O2366 2.275 . S
Dy2352 C2374 2.738 1_554 S
Dy2353 O2356 2.298 . S
Dy2353 O2359 2.275 . S
Dy2353 O2361 2.307 . S
Dy2353 O2363 2.395 . S
Dy2353 O2364 2.360 1_545 S
Dy2353 O2367 2.339 1_545 S
Dy2353 C2383 2.738 . S
C2354 O2366 1.254 . S
C2354 O2367 1.257 1_545 S
O2355 Dy2352 2.307 . S
O2355 C2365 1.266 . S
O2356 Dy2353 2.298 . S
O2356 C2365 1.236 . S
O2357 Dy2352 2.395 1_556 S
O2357 C2374 1.255 . S
O2358 Dy2352 2.379 1_556 S
O2358 C2374 1.249 . S
O2359 Dy2353 2.275 . S
O2359 C2375 1.254 . S
O2360 Dy2352 2.339 . S
O2360 C2375 1.257 . S
O2361 Dy2353 2.307 . S
O2361 C2376 1.266 . S
O2362 Dy2352 2.298 . S
O2362 C2376 1.236 . S
O2363 Dy2353 2.395 . S
O2363 C2383 1.255 . S
O2364 Dy2353 2.360 1_565 S
O2364 C2383 1.230 1_565 S
C2365 O2355 1.266 . S
C2365 O2356 1.236 . S
O2366 Dy2352 2.275 . S
O2366 C2354 1.254 . S
O2367 Dy2353 2.339 1_565 S
O2367 C2354 1.257 1_565 S
C2368 C2371 1.344 . S
C2368 C2372 1.328 . S
C2368 C2374 1.516 . S
C2369 C2370 1.304 . S
C2369 C2373 1.323 . S
C2370 C2369 1.304 . S
C2370 C2371 1.371 . S
C2370 H2384 0.930 . S
C2371 C2368 1.344 . S
C2371 C2370 1.371 . S
C2371 H2385 0.931 . S
C2372 C2368 1.328 . S
C2372 C2373 1.433 . S
C2372 H2386 0.931 . S
C2373 C2369 1.323 . S
C2373 C2372 1.433 . S
C2373 H2387 0.933 . S
C2374 Dy2352 2.738 1_556 S
C2374 O2357 1.255 . S
C2374 O2358 1.249 . S
C2374 C2368 1.516 . S
C2375 O2359 1.254 . S
C2375 O2360 1.257 . S
C2376 O2361 1.266 . S
C2376 O2362 1.236 . S
C2377 C2380 1.344 . S
C2377 C2381 1.328 1_545 S
C2377 C2383 1.516 . S
C2378 C2379 1.304 1_565 S
C2378 C2382 1.323 . S
C2379 C2378 1.304 1_545 S
C2379 C2380 1.371 . S
C2379 H2388 0.930 . S
C2380 C2377 1.344 . S
C2380 C2379 1.371 . S
C2380 H2389 0.931 . S
C2381 C2377 1.328 1_565 S
C2381 C2382 1.433 . S
C2381 H2390 0.931 . S
C2382 C2378 1.323 . S
C2382 C2381 1.433 . S
C2382 H2391 0.933 . S
C2383 Dy2353 2.738 . S
C2383 O2363 1.255 . S
C2383 O2364 1.230 1_545 S
C2383 C2377 1.516 . S
H2384 C2370 0.930 . S
H2385 C2371 0.931 . S
H2386 C2372 0.931 . S
H2387 C2373 0.933 . S
H2388 C2379 0.930 . S
H2389 C2380 0.931 . S
H2390 C2381 0.931 . S
H2391 C2382 0.933 . S
Dy2392 O2395 2.307 . S
Dy2392 O2397 2.395 . S
Dy2392 O2398 2.379 . S
Dy2392 O2400 2.339 . S
Dy2392 O2402 2.298 . S
Dy2392 O2406 2.275 . S
Dy2392 C2414 2.738 . S
Dy2393 O2396 2.298 . S
Dy2393 O2399 2.275 . S
Dy2393 O2401 2.307 . S
Dy2393 O2403 2.395 . S
Dy2393 O2404 2.379 . S
Dy2393 O2407 2.339 . S
Dy2393 C2423 2.738 . S
C2394 O2406 1.254 . S
C2394 O2407 1.257 . S
O2395 Dy2392 2.307 . S
O2395 C2405 1.266 . S
O2396 Dy2393 2.298 . S
O2396 C2405 1.236 . S
O2397 Dy2392 2.395 . S
O2397 C2414 1.255 . S
O2398 Dy2392 2.379 . S
O2398 C2414 1.249 . S
O2399 Dy2393 2.275 . S
O2399 C2415 1.254 . S
O2400 Dy2392 2.339 . S
O2400 C2415 1.257 . S
O2401 Dy2393 2.307 . S
O2401 C2416 1.266 . S
O2402 Dy2392 2.298 . S
O2402 C2416 1.236 . S
O2403 Dy2393 2.395 . S
O2403 C2423 1.255 . S
O2404 Dy2393 2.379 . S
O2404 C2423 1.249 . S
C2405 O2395 1.266 . S
C2405 O2396 1.236 . S
O2406 Dy2392 2.275 . S
O2406 C2394 1.254 . S
O2407 Dy2393 2.339 . S
O2407 C2394 1.257 . S
C2408 C2411 1.344 . S
C2408 C2412 1.328 . S
C2408 C2414 1.516 . S
C2409 C2410 1.304 . S
C2409 C2413 1.323 . S
C2410 C2409 1.304 . S
C2410 C2411 1.371 . S
C2410 H2424 0.930 . S
C2411 C2408 1.344 . S
C2411 C2410 1.371 . S
C2411 H2425 0.931 . S
C2412 C2408 1.328 . S
C2412 C2413 1.433 . S
C2412 H2426 0.931 . S
C2413 C2409 1.323 . S
C2413 C2412 1.433 . S
C2413 H2427 0.933 . S
C2414 Dy2392 2.738 . S
C2414 O2397 1.255 . S
C2414 O2398 1.249 . S
C2414 C2408 1.516 . S
C2415 O2399 1.254 . S
C2415 O2400 1.257 . S
C2416 O2401 1.266 . S
C2416 O2402 1.236 . S
C2417 C2420 1.344 . S
C2417 C2421 1.328 . S
C2417 C2423 1.516 . S
C2418 C2419 1.304 . S
C2418 C2422 1.323 . S
C2419 C2418 1.304 . S
C2419 C2420 1.371 . S
C2419 H2428 0.930 . S
C2420 C2417 1.344 . S
C2420 C2419 1.371 . S
C2420 H2429 0.931 . S
C2421 C2417 1.328 . S
C2421 C2422 1.433 . S
C2421 H2430 0.931 . S
C2422 C2418 1.323 . S
C2422 C2421 1.433 . S
C2422 H2431 0.933 . S
C2423 Dy2393 2.738 . S
C2423 O2403 1.255 . S
C2423 O2404 1.249 . S
C2423 C2417 1.516 . S
H2424 C2410 0.930 . S
H2425 C2411 0.931 . S
H2426 C2412 0.931 . S
H2427 C2413 0.933 . S
H2428 C2419 0.930 . S
H2429 C2420 0.931 . S
H2430 C2421 0.931 . S
H2431 C2422 0.933 . S
Dy2432 O2435 2.307 1_554 S
Dy2432 O2437 2.395 . S
Dy2432 O2438 2.379 . S
Dy2432 O2440 2.339 . S
Dy2432 O2442 2.298 . S
Dy2432 O2446 2.275 . S
Dy2432 C2454 2.738 . S
Dy2433 O2436 2.298 1_554 S
Dy2433 O2439 2.275 . S
Dy2433 O2441 2.307 . S
Dy2433 O2443 2.395 . S
Dy2433 O2444 2.379 . S
Dy2433 O2447 2.339 . S
Dy2433 C2463 2.738 . S
C2434 O2446 1.254 . S
C2434 O2447 1.257 . S
O2435 Dy2432 2.307 1_556 S
O2435 C2445 1.266 . S
O2436 Dy2433 2.298 1_556 S
O2436 C2445 1.236 . S
O2437 Dy2432 2.395 . S
O2437 C2454 1.255 . S
O2438 Dy2432 2.379 . S
O2438 C2454 1.249 . S
O2439 Dy2433 2.275 . S
O2439 C2455 1.254 . S
O2440 Dy2432 2.339 . S
O2440 C2455 1.257 . S
O2441 Dy2433 2.307 . S
O2441 C2456 1.266 . S
O2442 Dy2432 2.298 . S
O2442 C2456 1.236 . S
O2443 Dy2433 2.395 . S
O2443 C2463 1.255 . S
O2444 Dy2433 2.379 . S
O2444 C2463 1.249 . S
C2445 O2435 1.266 . S
C2445 O2436 1.236 . S
O2446 Dy2432 2.275 . S
O2446 C2434 1.254 . S
O2447 Dy2433 2.339 . S
O2447 C2434 1.257 . S
C2448 C2451 1.344 . S
C2448 C2452 1.328 . S
C2448 C2454 1.516 . S
C2449 C2450 1.304 . S
C2449 C2453 1.323 . S
C2450 C2449 1.304 . S
C2450 C2451 1.371 . S
C2450 H2464 0.930 . S
C2451 C2448 1.344 . S
C2451 C2450 1.371 . S
C2451 H2465 0.931 . S
C2452 C2448 1.328 . S
C2452 C2453 1.433 . S
C2452 H2466 0.931 . S
C2453 C2449 1.323 . S
C2453 C2452 1.433 . S
C2453 H2467 0.933 . S
C2454 Dy2432 2.738 . S
C2454 O2437 1.255 . S
C2454 O2438 1.249 . S
C2454 C2448 1.516 . S
C2455 O2439 1.254 . S
C2455 O2440 1.257 . S
C2456 O2441 1.266 . S
C2456 O2442 1.236 . S
C2457 C2460 1.344 . S
C2457 C2461 1.328 . S
C2457 C2463 1.516 1_556 S
C2458 C2459 1.304 . S
C2458 C2462 1.323 . S
C2459 C2458 1.304 . S
C2459 C2460 1.371 . S
C2459 H2468 0.930 . S
C2460 C2457 1.344 . S
C2460 C2459 1.371 . S
C2460 H2469 0.931 . S
C2461 C2457 1.328 . S
C2461 C2462 1.433 . S
C2461 H2470 0.931 1_556 S
C2462 C2458 1.323 . S
C2462 C2461 1.433 . S
C2462 H2471 0.933 . S
C2463 Dy2433 2.738 . S
C2463 O2443 1.255 . S
C2463 O2444 1.249 . S
C2463 C2457 1.516 1_554 S
H2464 C2450 0.930 . S
H2465 C2451 0.931 . S
H2466 C2452 0.931 . S
H2467 C2453 0.933 . S
H2468 C2459 0.930 . S
H2469 C2460 0.931 . S
H2470 C2461 0.931 1_554 S
H2471 C2462 0.933 . S
Dy2472 O2475 2.307 . S
Dy2472 O2477 2.395 . S
Dy2472 O2478 2.379 . S
Dy2472 O2480 2.339 . S
Dy2472 O2482 2.298 . S
Dy2472 O2486 2.275 . S
Dy2472 C2494 2.738 . S
Dy2473 O2476 2.298 . S
Dy2473 O2479 2.275 . S
Dy2473 O2481 2.307 . S
Dy2473 O2483 2.395 . S
Dy2473 O2484 2.379 . S
Dy2473 O2487 2.339 . S
Dy2473 C2503 2.738 . S
C2474 O2486 1.254 . S
C2474 O2487 1.257 . S
O2475 Dy2472 2.307 . S
O2475 C2485 1.266 . S
O2476 Dy2473 2.298 . S
O2476 C2485 1.236 . S
O2477 Dy2472 2.395 . S
O2477 C2494 1.255 . S
O2478 Dy2472 2.379 . S
O2478 C2494 1.249 . S
O2479 Dy2473 2.275 . S
O2479 C2495 1.254 . S
O2480 Dy2472 2.339 . S
O2480 C2495 1.257 . S
O2481 Dy2473 2.307 . S
O2481 C2496 1.266 . S
O2482 Dy2472 2.298 . S
O2482 C2496 1.236 . S
O2483 Dy2473 2.395 . S
O2483 C2503 1.255 . S
O2484 Dy2473 2.379 . S
O2484 C2503 1.249 . S
C2485 O2475 1.266 . S
C2485 O2476 1.236 . S
O2486 Dy2472 2.275 . S
O2486 C2474 1.254 . S
O2487 Dy2473 2.339 . S
O2487 C2474 1.257 . S
C2488 C2491 1.344 . S
C2488 C2492 1.328 . S
C2488 C2494 1.516 . S
C2489 C2490 1.304 . S
C2489 C2493 1.323 . S
C2490 C2489 1.304 . S
C2490 C2491 1.371 . S
C2490 H2504 0.930 . S
C2491 C2488 1.344 . S
C2491 C2490 1.371 . S
C2491 H2505 0.931 . S
C2492 C2488 1.328 . S
C2492 C2493 1.433 . S
C2492 H2506 0.931 . S
C2493 C2489 1.323 . S
C2493 C2492 1.433 . S
C2493 H2507 0.933 . S
C2494 Dy2472 2.738 . S
C2494 O2477 1.255 . S
C2494 O2478 1.249 . S
C2494 C2488 1.516 . S
C2495 O2479 1.254 . S
C2495 O2480 1.257 . S
C2496 O2481 1.266 . S
C2496 O2482 1.236 . S
C2497 C2500 1.344 . S
C2497 C2501 1.328 . S
C2497 C2503 1.516 . S
C2498 C2499 1.304 . S
C2498 C2502 1.323 . S
C2499 C2498 1.304 . S
C2499 C2500 1.371 . S
C2499 H2508 0.930 . S
C2500 C2497 1.344 . S
C2500 C2499 1.371 . S
C2500 H2509 0.931 . S
C2501 C2497 1.328 . S
C2501 C2502 1.433 . S
C2501 H2510 0.931 . S
C2502 C2498 1.323 . S
C2502 C2501 1.433 . S
C2502 H2511 0.933 . S
C2503 Dy2473 2.738 . S
C2503 O2483 1.255 . S
C2503 O2484 1.249 . S
C2503 C2497 1.516 . S
H2504 C2490 0.930 . S
H2505 C2491 0.931 . S
H2506 C2492 0.931 . S
H2507 C2493 0.933 . S
H2508 C2499 0.930 . S
H2509 C2500 0.931 . S
H2510 C2501 0.931 . S
H2511 C2502 0.933 . S
Dy2512 O2515 2.307 1_455 S
Dy2512 O2517 2.395 . S
Dy2512 O2518 2.379 . S
Dy2512 O2520 2.339 . S
Dy2512 O2522 2.298 . S
Dy2512 O2526 2.275 . S
Dy2512 C2534 2.738 . S
Dy2513 O2516 2.298 1_455 S
Dy2513 O2519 2.275 . S
Dy2513 O2521 2.307 . S
Dy2513 O2523 2.395 . S
Dy2513 O2524 2.379 . S
Dy2513 O2527 2.339 . S
Dy2513 C2543 2.738 . S
C2514 O2526 1.254 . S
C2514 O2527 1.257 . S
O2515 Dy2512 2.307 1_655 S
O2515 C2525 1.266 . S
O2516 Dy2513 2.298 1_655 S
O2516 C2525 1.236 . S
O2517 Dy2512 2.395 . S
O2517 C2534 1.255 . S
O2518 Dy2512 2.379 . S
O2518 C2534 1.249 . S
O2519 Dy2513 2.275 . S
O2519 C2535 1.254 . S
O2520 Dy2512 2.339 . S
O2520 C2535 1.257 . S
O2521 Dy2513 2.307 . S
O2521 C2536 1.266 . S
O2522 Dy2512 2.298 . S
O2522 C2536 1.236 . S
O2523 Dy2513 2.395 . S
O2523 C2543 1.255 . S
O2524 Dy2513 2.379 . S
O2524 C2543 1.249 . S
C2525 O2515 1.266 . S
C2525 O2516 1.236 . S
O2526 Dy2512 2.275 . S
O2526 C2514 1.254 . S
O2527 Dy2513 2.339 . S
O2527 C2514 1.257 . S
C2528 C2531 1.344 . S
C2528 C2532 1.328 . S
C2528 C2534 1.516 . S
C2529 C2530 1.304 . S
C2529 C2533 1.323 . S
C2530 C2529 1.304 . S
C2530 C2531 1.371 . S
C2530 H2544 0.930 . S
C2531 C2528 1.344 . S
C2531 C2530 1.371 . S
C2531 H2545 0.931 . S
C2532 C2528 1.328 . S
C2532 C2533 1.433 . S
C2532 H2546 0.931 . S
C2533 C2529 1.323 . S
C2533 C2532 1.433 . S
C2533 H2547 0.933 . S
C2534 Dy2512 2.738 . S
C2534 O2517 1.255 . S
C2534 O2518 1.249 . S
C2534 C2528 1.516 . S
C2535 O2519 1.254 . S
C2535 O2520 1.257 . S
C2536 O2521 1.266 . S
C2536 O2522 1.236 . S
C2537 C2540 1.344 . S
C2537 C2541 1.328 . S
C2537 C2543 1.516 1_655 S
C2538 C2539 1.304 . S
C2538 C2542 1.323 . S
C2539 C2538 1.304 . S
C2539 C2540 1.371 . S
C2539 H2548 0.930 . S
C2540 C2537 1.344 . S
C2540 C2539 1.371 . S
C2540 H2549 0.931 . S
C2541 C2537 1.328 . S
C2541 C2542 1.433 . S
C2541 H2550 0.931 . S
C2542 C2538 1.323 . S
C2542 C2541 1.433 . S
C2542 H2551 0.933 . S
C2543 Dy2513 2.738 . S
C2543 O2523 1.255 . S
C2543 O2524 1.249 . S
C2543 C2537 1.516 1_455 S
H2544 C2530 0.930 . S
H2545 C2531 0.931 . S
H2546 C2532 0.931 . S
H2547 C2533 0.933 . S
H2548 C2539 0.930 . S
H2549 C2540 0.931 . S
H2550 C2541 0.931 . S
H2551 C2542 0.933 . S
Dy2552 O2555 2.307 . S
Dy2552 O2557 2.395 . S
Dy2552 O2558 2.379 . S
Dy2552 O2560 2.339 . S
Dy2552 O2562 2.298 . S
Dy2552 O2566 2.275 . S
Dy2552 C2574 2.738 . S
Dy2553 O2556 2.298 . S
Dy2553 O2559 2.275 . S
Dy2553 O2561 2.307 . S
Dy2553 O2563 2.395 . S
Dy2553 O2564 2.379 . S
Dy2553 O2567 2.339 . S
Dy2553 C2583 2.738 . S
C2554 O2566 1.254 . S
C2554 O2567 1.257 . S
O2555 Dy2552 2.307 . S
O2555 C2565 1.266 . S
O2556 Dy2553 2.298 . S
O2556 C2565 1.236 . S
O2557 Dy2552 2.395 . S
O2557 C2574 1.255 . S
O2558 Dy2552 2.379 . S
O2558 C2574 1.249 . S
O2559 Dy2553 2.275 . S
O2559 C2575 1.254 . S
O2560 Dy2552 2.339 . S
O2560 C2575 1.257 . S
O2561 Dy2553 2.307 . S
O2561 C2576 1.266 . S
O2562 Dy2552 2.298 . S
O2562 C2576 1.236 . S
O2563 Dy2553 2.395 . S
O2563 C2583 1.255 . S
O2564 Dy2553 2.379 . S
O2564 C2583 1.249 . S
C2565 O2555 1.266 . S
C2565 O2556 1.236 . S
O2566 Dy2552 2.275 . S
O2566 C2554 1.254 . S
O2567 Dy2553 2.339 . S
O2567 C2554 1.257 . S
C2568 C2571 1.344 . S
C2568 C2572 1.328 . S
C2568 C2574 1.516 . S
C2569 C2570 1.304 . S
C2569 C2573 1.323 . S
C2570 C2569 1.304 . S
C2570 C2571 1.371 . S
C2570 H2584 0.930 . S
C2571 C2568 1.344 . S
C2571 C2570 1.371 . S
C2571 H2585 0.931 . S
C2572 C2568 1.328 . S
C2572 C2573 1.433 . S
C2572 H2586 0.931 . S
C2573 C2569 1.323 . S
C2573 C2572 1.433 . S
C2573 H2587 0.933 . S
C2574 Dy2552 2.738 . S
C2574 O2557 1.255 . S
C2574 O2558 1.249 . S
C2574 C2568 1.516 . S
C2575 O2559 1.254 . S
C2575 O2560 1.257 . S
C2576 O2561 1.266 . S
C2576 O2562 1.236 . S
C2577 C2580 1.344 . S
C2577 C2581 1.328 . S
C2577 C2583 1.516 . S
C2578 C2579 1.304 . S
C2578 C2582 1.323 . S
C2579 C2578 1.304 . S
C2579 C2580 1.371 . S
C2579 H2588 0.930 . S
C2580 C2577 1.344 . S
C2580 C2579 1.371 . S
C2580 H2589 0.931 . S
C2581 C2577 1.328 . S
C2581 C2582 1.433 . S
C2581 H2590 0.931 . S
C2582 C2578 1.323 . S
C2582 C2581 1.433 . S
C2582 H2591 0.933 . S
C2583 Dy2553 2.738 . S
C2583 O2563 1.255 . S
C2583 O2564 1.249 . S
C2583 C2577 1.516 . S
H2584 C2570 0.930 . S
H2585 C2571 0.931 . S
H2586 C2572 0.931 . S
H2587 C2573 0.933 . S
H2588 C2579 0.930 . S
H2589 C2580 0.931 . S
H2590 C2581 0.931 . S
H2591 C2582 0.933 . S
Dy2592 O2595 2.307 . S
Dy2592 O2597 2.395 . S
Dy2592 O2598 2.379 . S
Dy2592 O2600 2.339 . S
Dy2592 O2602 2.298 . S
Dy2592 O2606 2.275 . S
Dy2592 C2614 2.738 . S
Dy2593 O2596 2.298 . S
Dy2593 O2599 2.275 . S
Dy2593 O2601 2.307 . S
Dy2593 O2603 2.395 . S
Dy2593 O2604 2.379 . S
Dy2593 O2607 2.339 . S
Dy2593 C2623 2.738 . S
C2594 O2606 1.254 . S
C2594 O2607 1.257 . S
O2595 Dy2592 2.307 . S
O2595 C2605 1.266 . S
O2596 Dy2593 2.298 . S
O2596 C2605 1.236 . S
O2597 Dy2592 2.395 . S
O2597 C2614 1.255 . S
O2598 Dy2592 2.379 . S
O2598 C2614 1.249 . S
O2599 Dy2593 2.275 . S
O2599 C2615 1.254 . S
O2600 Dy2592 2.339 . S
O2600 C2615 1.257 . S
O2601 Dy2593 2.307 . S
O2601 C2616 1.266 . S
O2602 Dy2592 2.298 . S
O2602 C2616 1.236 . S
O2603 Dy2593 2.395 . S
O2603 C2623 1.255 . S
O2604 Dy2593 2.379 . S
O2604 C2623 1.249 . S
C2605 O2595 1.266 . S
C2605 O2596 1.236 . S
O2606 Dy2592 2.275 . S
O2606 C2594 1.254 . S
O2607 Dy2593 2.339 . S
O2607 C2594 1.257 . S
C2608 C2611 1.344 . S
C2608 C2612 1.328 . S
C2608 C2614 1.516 . S
C2609 C2610 1.304 . S
C2609 C2613 1.323 . S
C2610 C2609 1.304 . S
C2610 C2611 1.371 . S
C2610 H2624 0.930 . S
C2611 C2608 1.344 . S
C2611 C2610 1.371 . S
C2611 H2625 0.931 . S
C2612 C2608 1.328 . S
C2612 C2613 1.433 . S
C2612 H2626 0.931 . S
C2613 C2609 1.323 . S
C2613 C2612 1.433 . S
C2613 H2627 0.933 . S
C2614 Dy2592 2.738 . S
C2614 O2597 1.255 . S
C2614 O2598 1.249 . S
C2614 C2608 1.516 . S
C2615 O2599 1.254 . S
C2615 O2600 1.257 . S
C2616 O2601 1.266 . S
C2616 O2602 1.236 . S
C2617 C2620 1.344 . S
C2617 C2621 1.328 . S
C2617 C2623 1.516 . S
C2618 C2619 1.304 . S
C2618 C2622 1.323 . S
C2619 C2618 1.304 . S
C2619 C2620 1.371 . S
C2619 H2628 0.930 . S
C2620 C2617 1.344 . S
C2620 C2619 1.371 . S
C2620 H2629 0.931 . S
C2621 C2617 1.328 . S
C2621 C2622 1.433 . S
C2621 H2630 0.931 . S
C2622 C2618 1.323 . S
C2622 C2621 1.433 . S
C2622 H2631 0.933 . S
C2623 Dy2593 2.738 . S
C2623 O2603 1.255 . S
C2623 O2604 1.249 . S
C2623 C2617 1.516 . S
H2624 C2610 0.930 . S
H2625 C2611 0.931 . S
H2626 C2612 0.931 . S
H2627 C2613 0.933 . S
H2628 C2619 0.930 . S
H2629 C2620 0.931 . S
H2630 C2621 0.931 . S
H2631 C2622 0.933 . S
Dy2632 O2635 2.307 . S
Dy2632 O2637 2.395 . S
Dy2632 O2638 2.379 . S
Dy2632 O2640 2.339 . S
Dy2632 O2642 2.298 . S
Dy2632 O2646 2.275 . S
Dy2632 C2654 2.738 . S
Dy2633 O2636 2.298 . S
Dy2633 O2639 2.275 . S
Dy2633 O2641 2.307 . S
Dy2633 O2643 2.395 . S
Dy2633 O2644 2.379 . S
Dy2633 O2647 2.339 . S
Dy2633 C2663 2.738 . S
C2634 O2646 1.254 . S
C2634 O2647 1.257 . S
O2635 Dy2632 2.307 . S
O2635 C2645 1.266 . S
O2636 Dy2633 2.298 . S
O2636 C2645 1.236 . S
O2637 Dy2632 2.395 . S
O2637 C2654 1.255 . S
O2638 Dy2632 2.379 . S
O2638 C2654 1.249 . S
O2639 Dy2633 2.275 . S
O2639 C2655 1.254 . S
O2640 Dy2632 2.339 . S
O2640 C2655 1.257 . S
O2641 Dy2633 2.307 . S
O2641 C2656 1.266 . S
O2642 Dy2632 2.298 . S
O2642 C2656 1.236 . S
O2643 Dy2633 2.395 . S
O2643 C2663 1.255 . S
O2644 Dy2633 2.379 . S
O2644 C2663 1.249 . S
C2645 O2635 1.266 . S
C2645 O2636 1.236 . S
O2646 Dy2632 2.275 . S
O2646 C2634 1.254 . S
O2647 Dy2633 2.339 . S
O2647 C2634 1.257 . S
C2648 C2651 1.344 . S
C2648 C2652 1.328 . S
C2648 C2654 1.516 . S
C2649 C2650 1.304 . S
C2649 C2653 1.323 . S
C2650 C2649 1.304 . S
C2650 C2651 1.371 . S
C2650 H2664 0.930 . S
C2651 C2648 1.344 . S
C2651 C2650 1.371 . S
C2651 H2665 0.931 . S
C2652 C2648 1.328 . S
C2652 C2653 1.433 . S
C2652 H2666 0.931 . S
C2653 C2649 1.323 . S
C2653 C2652 1.433 . S
C2653 H2667 0.933 . S
C2654 Dy2632 2.738 . S
C2654 O2637 1.255 . S
C2654 O2638 1.249 . S
C2654 C2648 1.516 . S
C2655 O2639 1.254 . S
C2655 O2640 1.257 . S
C2656 O2641 1.266 . S
C2656 O2642 1.236 . S
C2657 C2660 1.344 . S
C2657 C2661 1.328 . S
C2657 C2663 1.516 . S
C2658 C2659 1.304 . S
C2658 C2662 1.323 . S
C2659 C2658 1.304 . S
C2659 C2660 1.371 . S
C2659 H2668 0.930 . S
C2660 C2657 1.344 . S
C2660 C2659 1.371 . S
C2660 H2669 0.931 . S
C2661 C2657 1.328 . S
C2661 C2662 1.433 . S
C2661 H2670 0.931 . S
C2662 C2658 1.323 . S
C2662 C2661 1.433 . S
C2662 H2671 0.933 . S
C2663 Dy2633 2.738 . S
C2663 O2643 1.255 . S
C2663 O2644 1.249 . S
C2663 C2657 1.516 . S
H2664 C2650 0.930 . S
H2665 C2651 0.931 . S
H2666 C2652 0.931 . S
H2667 C2653 0.933 . S
H2668 C2659 0.930 . S
H2669 C2660 0.931 . S
H2670 C2661 0.931 . S
H2671 C2662 0.933 . S
Dy2672 O2675 2.307 . S
Dy2672 O2677 2.395 . S
Dy2672 O2678 2.379 . S
Dy2672 O2680 2.339 . S
Dy2672 O2682 2.298 . S
Dy2672 O2686 2.275 . S
Dy2672 C2694 2.738 . S
Dy2673 O2676 2.298 . S
Dy2673 O2679 2.275 . S
Dy2673 O2681 2.307 . S
Dy2673 O2683 2.395 . S
Dy2673 O2684 2.379 . S
Dy2673 O2687 2.339 . S
Dy2673 C2703 2.738 . S
C2674 O2686 1.254 . S
C2674 O2687 1.257 . S
O2675 Dy2672 2.307 . S
O2675 C2685 1.266 . S
O2676 Dy2673 2.298 . S
O2676 C2685 1.236 . S
O2677 Dy2672 2.395 . S
O2677 C2694 1.255 . S
O2678 Dy2672 2.379 . S
O2678 C2694 1.249 . S
O2679 Dy2673 2.275 . S
O2679 C2695 1.254 . S
O2680 Dy2672 2.339 . S
O2680 C2695 1.257 . S
O2681 Dy2673 2.307 . S
O2681 C2696 1.266 . S
O2682 Dy2672 2.298 . S
O2682 C2696 1.236 . S
O2683 Dy2673 2.395 . S
O2683 C2703 1.255 . S
O2684 Dy2673 2.379 . S
O2684 C2703 1.249 . S
C2685 O2675 1.266 . S
C2685 O2676 1.236 . S
O2686 Dy2672 2.275 . S
O2686 C2674 1.254 . S
O2687 Dy2673 2.339 . S
O2687 C2674 1.257 . S
C2688 C2691 1.344 . S
C2688 C2692 1.328 . S
C2688 C2694 1.516 . S
C2689 C2690 1.304 . S
C2689 C2693 1.323 . S
C2690 C2689 1.304 . S
C2690 C2691 1.371 . S
C2690 H2704 0.930 . S
C2691 C2688 1.344 . S
C2691 C2690 1.371 . S
C2691 H2705 0.931 . S
C2692 C2688 1.328 . S
C2692 C2693 1.433 . S
C2692 H2706 0.931 . S
C2693 C2689 1.323 . S
C2693 C2692 1.433 . S
C2693 H2707 0.933 . S
C2694 Dy2672 2.738 . S
C2694 O2677 1.255 . S
C2694 O2678 1.249 . S
C2694 C2688 1.516 . S
C2695 O2679 1.254 . S
C2695 O2680 1.257 . S
C2696 O2681 1.266 . S
C2696 O2682 1.236 . S
C2697 C2700 1.344 . S
C2697 C2701 1.328 . S
C2697 C2703 1.516 . S
C2698 C2699 1.304 . S
C2698 C2702 1.323 . S
C2699 C2698 1.304 . S
C2699 C2700 1.371 . S
C2699 H2708 0.930 . S
C2700 C2697 1.344 . S
C2700 C2699 1.371 . S
C2700 H2709 0.931 . S
C2701 C2697 1.328 . S
C2701 C2702 1.433 . S
C2701 H2710 0.931 . S
C2702 C2698 1.323 . S
C2702 C2701 1.433 . S
C2702 H2711 0.933 . S
C2703 Dy2673 2.738 . S
C2703 O2683 1.255 . S
C2703 O2684 1.249 . S
C2703 C2697 1.516 . S
H2704 C2690 0.930 . S
H2705 C2691 0.931 . S
H2706 C2692 0.931 . S
H2707 C2693 0.933 . S
H2708 C2699 0.930 . S
H2709 C2700 0.931 . S
H2710 C2701 0.931 . S
H2711 C2702 0.933 . S
Dy2712 O2715 2.307 . S
Dy2712 O2717 2.396 1_455 S
Dy2712 O2718 2.380 1_455 S
Dy2712 O2720 2.338 . S
Dy2712 O2722 2.297 . S
Dy2712 O2726 2.275 . S
Dy2712 C2734 2.739 1_455 S
Dy2713 O2716 2.298 . S
Dy2713 O2719 2.275 . S
Dy2713 O2721 2.307 . S
Dy2713 O2723 2.395 . S
Dy2713 O2724 2.379 1_554 S
Dy2713 O2727 2.339 1_554 S
Dy2713 C2743 2.738 . S
C2714 O2726 1.254 1_556 S
C2714 O2727 1.257 . S
O2715 Dy2712 2.307 . S
O2715 C2725 1.266 . S
O2716 Dy2713 2.298 . S
O2716 C2725 1.236 . S
O2717 Dy2712 2.396 1_655 S
O2717 C2734 1.255 . S
O2718 Dy2712 2.380 1_655 S
O2718 C2734 1.249 . S
O2719 Dy2713 2.275 . S
O2719 C2735 1.254 . S
O2720 Dy2712 2.338 . S
O2720 C2735 1.257 . S
O2721 Dy2713 2.307 . S
O2721 C2736 1.266 . S
O2722 Dy2712 2.297 . S
O2722 C2736 1.236 . S
O2723 Dy2713 2.395 . S
O2723 C2743 1.255 . S
O2724 Dy2713 2.379 1_556 S
O2724 C2743 1.249 1_556 S
C2725 O2715 1.266 . S
C2725 O2716 1.236 . S
O2726 Dy2712 2.275 . S
O2726 C2714 1.254 1_554 S
O2727 Dy2713 2.339 1_556 S
O2727 C2714 1.257 . S
C2728 C2731 1.344 . S
C2728 C2732 1.328 . S
C2728 C2734 1.516 . S
C2729 C2730 1.304 . S
C2729 C2733 1.323 . S
C2730 C2729 1.304 . S
C2730 C2731 1.371 . S
C2730 H2744 0.930 . S
C2731 C2728 1.344 . S
C2731 C2730 1.371 . S
C2731 H2745 0.931 . S
C2732 C2728 1.328 . S
C2732 C2733 1.433 . S
C2732 H2746 0.931 . S
C2733 C2729 1.323 . S
C2733 C2732 1.433 . S
C2733 H2747 0.933 . S
C2734 Dy2712 2.739 1_655 S
C2734 O2717 1.255 . S
C2734 O2718 1.249 . S
C2734 C2728 1.516 . S
C2735 O2719 1.254 . S
C2735 O2720 1.257 . S
C2736 O2721 1.266 . S
C2736 O2722 1.236 . S
C2737 C2740 1.344 . S
C2737 C2741 1.328 1_554 S
C2737 C2743 1.516 . S
C2738 C2739 1.304 . S
C2738 C2742 1.323 1_554 S
C2739 C2738 1.304 . S
C2739 C2740 1.371 . S
C2739 H2748 0.930 . S
C2740 C2737 1.344 . S
C2740 C2739 1.371 . S
C2740 H2749 0.931 . S
C2741 C2737 1.328 1_556 S
C2741 C2742 1.433 . S
C2741 H2750 0.931 . S
C2742 C2738 1.323 1_556 S
C2742 C2741 1.433 . S
C2742 H2751 0.933 . S
C2743 Dy2713 2.738 . S
C2743 O2723 1.255 . S
C2743 O2724 1.249 1_554 S
C2743 C2737 1.516 . S
H2744 C2730 0.930 . S
H2745 C2731 0.931 . S
H2746 C2732 0.931 . S
H2747 C2733 0.933 . S
H2748 C2739 0.930 . S
H2749 C2740 0.931 . S
H2750 C2741 0.931 . S
H2751 C2742 0.933 . S
C2752 C2753 1.387 . S
C2752 H2756 0.958 1_554 S
C2752 C2761 1.390 . S
C2753 C2752 1.387 . S
C2753 C2755 1.387 . S
H2754 C2761 0.950 1_556 S
C2755 C2753 1.387 . S
C2755 C2757 1.390 . S
C2755 H2759 0.950 . S
H2756 C2752 0.958 1_556 S
C2757 C2755 1.390 . S
C2757 C2758 1.387 . S
C2757 H2760 0.950 . S
C2758 C2757 1.387 . S
C2758 C2761 1.387 . S
H2759 C2755 0.950 . S
H2760 C2757 0.950 . S
C2761 C2752 1.390 . S
C2761 H2754 0.950 1_554 S
C2761 C2758 1.387 . S
C2762 C2763 1.387 . S
C2762 H2766 0.950 . S
C2762 C2771 1.390 . S
C2763 C2762 1.387 . S
C2763 C2765 1.387 . S
H2764 C2771 0.950 . S
C2765 C2763 1.387 . S
C2765 C2767 1.390 . S
C2765 H2769 0.950 . S
H2766 C2762 0.950 . S
C2767 C2765 1.390 . S
C2767 C2768 1.387 . S
C2767 H2770 0.950 . S
C2768 C2767 1.387 . S
C2768 C2771 1.387 . S
H2769 C2765 0.950 . S
H2770 C2767 0.950 . S
C2771 C2762 1.390 . S
C2771 H2764 0.950 . S
C2771 C2768 1.387 . S
C2772 C2773 1.387 . S
C2772 H2776 0.950 . S
C2772 C2781 1.390 . S
C2773 C2772 1.387 . S
C2773 C2775 1.387 . S
H2774 C2781 0.950 . S
C2775 C2773 1.387 . S
C2775 C2777 1.390 . S
C2775 H2779 0.950 . S
H2776 C2772 0.950 . S
C2777 C2775 1.390 . S
C2777 C2778 1.387 . S
C2777 H2780 0.950 . S
C2778 C2777 1.387 . S
C2778 C2781 1.387 . S
H2779 C2775 0.950 . S
H2780 C2777 0.950 . S
C2781 C2772 1.390 . S
C2781 H2774 0.950 . S
C2781 C2778 1.387 . S
C2782 C2783 1.387 . S
C2782 H2786 0.950 . S
C2782 C2791 1.390 . S
C2783 C2782 1.387 . S
C2783 C2785 1.387 . S
H2784 C2791 0.950 . S
C2785 C2783 1.387 . S
C2785 C2787 1.390 . S
C2785 H2789 0.950 . S
H2786 C2782 0.950 . S
C2787 C2785 1.390 . S
C2787 C2788 1.387 . S
C2787 H2790 0.950 . S
C2788 C2787 1.387 . S
C2788 C2791 1.387 . S
H2789 C2785 0.950 . S
H2790 C2787 0.950 . S
C2791 C2782 1.390 . S
C2791 H2784 0.950 . S
C2791 C2788 1.387 . S
C2792 C2793 1.387 . S
C2792 H2796 0.950 . S
C2792 C2801 1.390 . S
C2793 C2792 1.387 . S
C2793 C2795 1.387 . S
H2794 C2801 0.950 . S
C2795 C2793 1.387 . S
C2795 C2797 1.390 . S
C2795 H2799 0.950 . S
H2796 C2792 0.950 . S
C2797 C2795 1.390 . S
C2797 C2798 1.387 . S
C2797 H2800 0.950 . S
C2798 C2797 1.387 . S
C2798 C2801 1.387 . S
H2799 C2795 0.950 . S
H2800 C2797 0.950 . S
C2801 C2792 1.390 . S
C2801 H2794 0.950 . S
C2801 C2798 1.387 . S
C2802 C2803 1.387 . S
C2802 H2806 0.950 . S
C2802 C2811 1.390 . S
C2803 C2802 1.387 . S
C2803 C2805 1.387 . S
H2804 C2811 0.950 . S
C2805 C2803 1.387 . S
C2805 C2807 1.390 . S
C2805 H2809 0.950 . S
H2806 C2802 0.950 . S
C2807 C2805 1.390 . S
C2807 C2808 1.387 . S
C2807 H2810 0.950 . S
C2808 C2807 1.387 . S
C2808 C2811 1.387 . S
H2809 C2805 0.950 . S
H2810 C2807 0.950 . S
C2811 C2802 1.390 . S
C2811 H2804 0.950 . S
C2811 C2808 1.387 . S
C2812 C2813 1.387 . S
C2812 H2816 0.950 . S
C2812 C2821 1.390 . S
C2813 C2812 1.387 . S
C2813 C2815 1.387 . S
H2814 C2821 0.950 . S
C2815 C2813 1.387 . S
C2815 C2817 1.390 . S
C2815 H2819 0.950 . S
H2816 C2812 0.950 . S
C2817 C2815 1.390 . S
C2817 C2818 1.387 . S
C2817 H2820 0.950 . S
C2818 C2817 1.387 . S
C2818 C2821 1.387 . S
H2819 C2815 0.950 . S
H2820 C2817 0.950 . S
C2821 C2812 1.390 . S
C2821 H2814 0.950 . S
C2821 C2818 1.387 . S
C2822 C2823 1.387 . S
C2822 H2826 0.950 . S
C2822 C2831 1.390 . S
C2823 C2822 1.387 . S
C2823 C2825 1.387 . S
H2824 C2831 0.950 . S
C2825 C2823 1.387 . S
C2825 C2827 1.390 . S
C2825 H2829 0.950 . S
H2826 C2822 0.950 . S
C2827 C2825 1.390 . S
C2827 C2828 1.387 . S
C2827 H2830 0.950 . S
C2828 C2827 1.387 . S
C2828 C2831 1.387 . S
H2829 C2825 0.950 . S
H2830 C2827 0.950 . S
C2831 C2822 1.390 . S
C2831 H2824 0.950 . S
C2831 C2828 1.387 . S
C2832 C2833 1.387 . S
C2832 H2836 0.950 . S
C2832 C2841 1.390 . S
C2833 C2832 1.387 . S
C2833 C2835 1.387 . S
H2834 C2841 0.950 . S
C2835 C2833 1.387 . S
C2835 C2837 1.390 . S
C2835 H2839 0.950 . S
H2836 C2832 0.950 . S
C2837 C2835 1.390 . S
C2837 C2838 1.387 . S
C2837 H2840 0.950 . S
C2838 C2837 1.387 . S
C2838 C2841 1.387 . S
H2839 C2835 0.950 . S
H2840 C2837 0.950 . S
C2841 C2832 1.390 . S
C2841 H2834 0.950 . S
C2841 C2838 1.387 . S
C2842 C2843 1.387 . S
C2842 H2846 0.950 . S
C2842 C2851 1.390 . S
C2843 C2842 1.387 . S
C2843 C2845 1.387 . S
H2844 C2851 0.950 . S
C2845 C2843 1.387 . S
C2845 C2847 1.390 . S
C2845 H2849 0.950 . S
H2846 C2842 0.950 . S
C2847 C2845 1.390 . S
C2847 C2848 1.387 . S
C2847 H2850 0.950 . S
C2848 C2847 1.387 . S
C2848 C2851 1.387 . S
H2849 C2845 0.950 . S
H2850 C2847 0.950 . S
C2851 C2842 1.390 . S
C2851 H2844 0.950 . S
C2851 C2848 1.387 . S
C2852 C2853 1.387 . S
C2852 H2856 0.950 . S
C2852 C2861 1.390 . S
C2853 C2852 1.387 . S
C2853 C2855 1.387 . S
H2854 C2861 0.950 . S
C2855 C2853 1.387 . S
C2855 C2857 1.390 . S
C2855 H2859 0.950 . S
H2856 C2852 0.950 . S
C2857 C2855 1.390 . S
C2857 C2858 1.387 . S
C2857 H2860 0.950 . S
C2858 C2857 1.387 . S
C2858 C2861 1.387 . S
H2859 C2855 0.950 . S
H2860 C2857 0.950 . S
C2861 C2852 1.390 . S
C2861 H2854 0.950 . S
C2861 C2858 1.387 . S
C2862 C2863 1.387 . S
C2862 H2866 0.950 . S
C2862 C2871 1.390 . S
C2863 C2862 1.387 . S
C2863 C2865 1.387 . S
H2864 C2871 0.950 . S
C2865 C2863 1.387 . S
C2865 C2867 1.390 . S
C2865 H2869 0.950 . S
H2866 C2862 0.950 . S
C2867 C2865 1.390 . S
C2867 C2868 1.387 . S
C2867 H2870 0.950 . S
C2868 C2867 1.387 . S
C2868 C2871 1.387 . S
H2869 C2865 0.950 . S
H2870 C2867 0.950 . S
C2871 C2862 1.390 . S
C2871 H2864 0.950 . S
C2871 C2868 1.387 . S
C2872 C2873 1.387 . S
C2872 H2876 0.950 . S
C2872 C2881 1.390 . S
C2873 C2872 1.387 . S
C2873 C2875 1.387 . S
H2874 C2881 0.950 . S
C2875 C2873 1.387 . S
C2875 C2877 1.390 . S
C2875 H2879 0.950 . S
H2876 C2872 0.950 . S
C2877 C2875 1.390 . S
C2877 C2878 1.387 . S
C2877 H2880 0.950 . S
C2878 C2877 1.387 . S
C2878 C2881 1.387 . S
H2879 C2875 0.950 . S
H2880 C2877 0.950 . S
C2881 C2872 1.390 . S
C2881 H2874 0.950 . S
C2881 C2878 1.387 . S
C2882 C2883 1.387 . S
C2882 H2886 0.950 . S
C2882 C2891 1.390 . S
C2883 C2882 1.387 . S
C2883 C2885 1.387 . S
H2884 C2891 0.950 . S
C2885 C2883 1.387 . S
C2885 C2887 1.390 . S
C2885 H2889 0.950 . S
H2886 C2882 0.950 . S
C2887 C2885 1.390 . S
C2887 C2888 1.387 . S
C2887 H2890 0.950 . S
C2888 C2887 1.387 . S
C2888 C2891 1.387 . S
H2889 C2885 0.950 . S
H2890 C2887 0.950 . S
C2891 C2882 1.390 . S
C2891 H2884 0.950 . S
C2891 C2888 1.387 . S
C2892 C2893 1.387 . S
C2892 H2896 0.950 . S
C2892 C2901 1.390 . S
C2893 C2892 1.387 . S
C2893 C2895 1.387 . S
H2894 C2901 0.950 . S
C2895 C2893 1.387 . S
C2895 C2897 1.390 . S
C2895 H2899 0.950 . S
H2896 C2892 0.950 . S
C2897 C2895 1.390 . S
C2897 C2898 1.387 . S
C2897 H2900 0.950 . S
C2898 C2897 1.387 . S
C2898 C2901 1.387 . S
H2899 C2895 0.950 . S
H2900 C2897 0.950 . S
C2901 C2892 1.390 . S
C2901 H2894 0.950 . S
C2901 C2898 1.387 . S
C2902 C2903 1.387 . S
C2902 H2906 0.950 . S
C2902 C2911 1.390 . S
C2903 C2902 1.387 . S
C2903 C2905 1.387 . S
H2904 C2911 0.950 . S
C2905 C2903 1.387 . S
C2905 C2907 1.390 . S
C2905 H2909 0.950 . S
H2906 C2902 0.950 . S
C2907 C2905 1.390 . S
C2907 C2908 1.387 . S
C2907 H2910 0.950 . S
C2908 C2907 1.387 . S
C2908 C2911 1.387 . S
H2909 C2905 0.950 . S
H2910 C2907 0.950 . S
C2911 C2902 1.390 . S
C2911 H2904 0.950 . S
C2911 C2908 1.387 . S
C2912 C2913 1.387 1_545 S
C2912 H2916 0.950 1_554 S
C2912 C2921 1.390 . S
C2913 C2912 1.387 1_565 S
C2913 C2915 1.387 . S
H2914 C2921 0.950 . S
C2915 C2913 1.387 . S
C2915 C2917 1.390 . S
C2915 H2919 0.950 . S
H2916 C2912 0.950 1_556 S
C2917 C2915 1.390 . S
C2917 C2918 1.387 1_565 S
C2917 H2920 0.950 . S
C2918 C2917 1.387 1_545 S
C2918 C2921 1.387 . S
H2919 C2915 0.950 . S
H2920 C2917 0.950 . S
C2921 C2912 1.390 . S
C2921 H2914 0.950 . S
C2921 C2918 1.387 . S
C2922 C2923 1.387 . S
C2922 H2926 0.950 . S
C2922 C2931 1.390 . S
C2923 C2922 1.387 . S
C2923 C2925 1.387 1_554 S
H2924 C2931 0.950 . S
C2925 C2923 1.387 1_556 S
C2925 C2927 1.377 1_556 S
C2925 H2929 0.950 . S
H2926 C2922 0.950 . S
C2927 C2925 1.377 1_554 S
C2927 C2928 1.429 . S
C2927 H2930 0.923 1_554 S
C2928 C2927 1.429 . S
C2928 C2931 1.387 . S
H2929 C2925 0.950 . S
H2930 C2927 0.923 1_556 S
C2931 C2922 1.390 . S
C2931 H2924 0.950 . S
C2931 C2928 1.387 . S
C2932 C2933 1.387 . S
C2932 H2936 0.950 . S
C2932 C2941 1.390 . S
C2933 C2932 1.387 . S
C2933 C2935 1.387 . S
H2934 C2941 0.950 . S
C2935 C2933 1.387 . S
C2935 C2937 1.390 . S
C2935 H2939 0.950 . S
H2936 C2932 0.950 . S
C2937 C2935 1.390 . S
C2937 C2938 1.387 . S
C2937 H2940 0.950 . S
C2938 C2937 1.387 . S
C2938 C2941 1.387 . S
H2939 C2935 0.950 . S
H2940 C2937 0.950 . S
C2941 C2932 1.390 . S
C2941 H2934 0.950 . S
C2941 C2938 1.387 . S
C2942 C2943 1.387 . S
C2942 H2946 0.950 . S
C2942 C2951 1.390 . S
C2943 C2942 1.387 . S
C2943 C2945 1.387 . S
H2944 C2951 0.950 . S
C2945 C2943 1.387 . S
C2945 C2947 1.390 . S
C2945 H2949 0.950 . S
H2946 C2942 0.950 . S
C2947 C2945 1.390 . S
C2947 C2948 1.387 . S
C2947 H2950 0.950 . S
C2948 C2947 1.387 . S
C2948 C2951 1.387 . S
H2949 C2945 0.950 . S
H2950 C2947 0.950 . S
C2951 C2942 1.390 . S
C2951 H2944 0.950 . S
C2951 C2948 1.387 . S
C2952 C2953 1.387 . S
C2952 H2956 0.950 . S
C2952 C2961 1.390 . S
C2953 C2952 1.387 . S
C2953 C2955 1.387 . S
H2954 C2961 0.950 . S
C2955 C2953 1.387 . S
C2955 C2957 1.390 . S
C2955 H2959 0.950 . S
H2956 C2952 0.950 . S
C2957 C2955 1.390 . S
C2957 C2958 1.387 . S
C2957 H2960 0.950 . S
C2958 C2957 1.387 . S
C2958 C2961 1.387 . S
H2959 C2955 0.950 . S
H2960 C2957 0.950 . S
C2961 C2952 1.390 . S
C2961 H2954 0.950 . S
C2961 C2958 1.387 . S
C2962 C2963 1.387 . S
C2962 H2966 0.950 . S
C2962 C2971 1.390 . S
C2963 C2962 1.387 . S
C2963 C2965 1.387 . S
H2964 C2971 0.950 . S
C2965 C2963 1.387 . S
C2965 C2967 1.390 . S
C2965 H2969 0.950 . S
H2966 C2962 0.950 . S
C2967 C2965 1.390 . S
C2967 C2968 1.387 . S
C2967 H2970 0.950 . S
C2968 C2967 1.387 . S
C2968 C2971 1.387 . S
H2969 C2965 0.950 . S
H2970 C2967 0.950 . S
C2971 C2962 1.390 . S
C2971 H2964 0.950 . S
C2971 C2968 1.387 . S
C2972 C2973 1.387 . S
C2972 H2976 0.950 . S
C2972 C2981 1.390 . S
C2973 C2972 1.387 . S
C2973 C2975 1.387 . S
H2974 C2981 0.950 . S
C2975 C2973 1.387 . S
C2975 C2977 1.390 . S
C2975 H2979 0.950 . S
H2976 C2972 0.950 . S
C2977 C2975 1.390 . S
C2977 C2978 1.387 . S
C2977 H2980 0.950 . S
C2978 C2977 1.387 . S
C2978 C2981 1.387 . S
H2979 C2975 0.950 . S
H2980 C2977 0.950 . S
C2981 C2972 1.390 . S
C2981 H2974 0.950 . S
C2981 C2978 1.387 . S
C2982 C2983 1.387 . S
C2982 H2986 0.950 . S
C2982 C2991 1.390 . S
C2983 C2982 1.387 . S
C2983 C2985 1.387 . S
H2984 C2991 0.950 . S
C2985 C2983 1.387 . S
C2985 C2987 1.390 . S
C2985 H2989 0.950 . S
H2986 C2982 0.950 . S
C2987 C2985 1.390 . S
C2987 C2988 1.387 . S
C2987 H2990 0.950 . S
C2988 C2987 1.387 . S
C2988 C2991 1.387 . S
H2989 C2985 0.950 . S
H2990 C2987 0.950 . S
C2991 C2982 1.390 . S
C2991 H2984 0.950 . S
C2991 C2988 1.387 . S
C2992 C2993 1.387 . S
C2992 H2996 0.950 . S
C2992 C3001 1.390 . S
C2993 C2992 1.387 . S
C2993 C2995 1.387 . S
H2994 C3001 0.950 . S
C2995 C2993 1.387 . S
C2995 C2997 1.390 . S
C2995 H2999 0.950 1_554 S
H2996 C2992 0.950 . S
C2997 C2995 1.390 . S
C2997 C2998 1.387 . S
C2997 H3000 0.950 1_554 S
C2998 C2997 1.387 . S
C2998 C3001 1.387 . S
H2999 C2995 0.950 1_556 S
H3000 C2997 0.950 1_556 S
C3001 C2992 1.390 . S
C3001 H2994 0.950 . S
C3001 C2998 1.387 . S
C3002 C3003 1.387 . S
C3002 H3006 0.950 . S
C3002 C3011 1.390 . S
C3003 C3002 1.387 . S
C3003 C3005 1.387 . S
H3004 C3011 0.950 . S
C3005 C3003 1.387 . S
C3005 C3007 1.390 . S
C3005 H3009 0.950 . S
H3006 C3002 0.950 . S
C3007 C3005 1.390 . S
C3007 C3008 1.387 . S
C3007 H3010 0.950 . S
C3008 C3007 1.387 . S
C3008 C3011 1.387 . S
H3009 C3005 0.950 . S
H3010 C3007 0.950 . S
C3011 C3002 1.390 . S
C3011 H3004 0.950 . S
C3011 C3008 1.387 . S
C3012 C3013 1.387 . S
C3012 H3016 0.950 . S
C3012 C3021 1.390 . S
C3013 C3012 1.387 . S
C3013 C3015 1.387 . S
H3014 C3021 0.950 . S
C3015 C3013 1.387 . S
C3015 C3017 1.390 . S
C3015 H3019 0.950 . S
H3016 C3012 0.950 . S
C3017 C3015 1.390 . S
C3017 C3018 1.387 . S
C3017 H3020 0.950 . S
C3018 C3017 1.387 . S
C3018 C3021 1.387 . S
H3019 C3015 0.950 . S
H3020 C3017 0.950 . S
C3021 C3012 1.390 . S
C3021 H3014 0.950 . S
C3021 C3018 1.387 . S
C3022 C3023 1.387 . S
C3022 H3026 0.950 . S
C3022 C3031 1.390 . S
C3023 C3022 1.387 . S
C3023 C3025 1.387 . S
H3024 C3031 0.950 . S
C3025 C3023 1.387 . S
C3025 C3027 1.390 . S
C3025 H3029 0.950 . S
H3026 C3022 0.950 . S
C3027 C3025 1.390 . S
C3027 C3028 1.387 . S
C3027 H3030 0.950 . S
C3028 C3027 1.387 . S
C3028 C3031 1.387 . S
H3029 C3025 0.950 . S
H3030 C3027 0.950 . S
C3031 C3022 1.390 . S
C3031 H3024 0.950 . S
C3031 C3028 1.387 . S
C3032 C3033 1.387 . S
C3032 H3036 0.950 . S
C3032 C3041 1.390 . S
C3033 C3032 1.387 . S
C3033 C3035 1.387 1_455 S
H3034 C3041 0.950 . S
C3035 C3033 1.387 1_655 S
C3035 C3037 1.390 . S
C3035 H3039 0.950 . S
H3036 C3032 0.950 . S
C3037 C3035 1.390 . S
C3037 C3038 1.387 1_655 S
C3037 H3040 0.950 . S
C3038 C3037 1.387 1_455 S
C3038 C3041 1.387 . S
H3039 C3035 0.950 . S
H3040 C3037 0.950 . S
C3041 C3032 1.390 . S
C3041 H3034 0.950 . S
C3041 C3038 1.387 . S
C3042 C3043 1.387 . S
C3042 H3046 0.950 . S
C3042 C3051 1.390 . S
C3043 C3042 1.387 . S
C3043 C3045 1.387 . S
H3044 C3051 0.950 . S
C3045 C3043 1.387 . S
C3045 C3047 1.390 . S
C3045 H3049 0.950 . S
H3046 C3042 0.950 . S
C3047 C3045 1.390 . S
C3047 C3048 1.387 . S
C3047 H3050 0.950 . S
C3048 C3047 1.387 . S
C3048 C3051 1.387 . S
H3049 C3045 0.950 . S
H3050 C3047 0.950 . S
C3051 C3042 1.390 . S
C3051 H3044 0.950 . S
C3051 C3048 1.387 . S
C3052 C3053 1.387 . S
C3052 H3056 0.950 . S
C3052 C3061 1.382 1_556 S
C3053 C3052 1.387 . S
C3053 C3055 1.387 . S
H3054 C3061 0.962 . S
C3055 C3053 1.387 . S
C3055 C3057 1.390 . S
C3055 H3059 0.950 . S
H3056 C3052 0.950 . S
C3057 C3055 1.390 . S
C3057 C3058 1.387 . S
C3057 H3060 0.950 . S
C3058 C3057 1.387 . S
C3058 C3061 1.383 1_556 S
H3059 C3055 0.950 . S
H3060 C3057 0.950 . S
C3061 C3052 1.382 1_554 S
C3061 H3054 0.962 . S
C3061 C3058 1.383 1_554 S
C3062 C3063 1.387 . S
C3062 H3066 0.950 . S
C3062 C3071 1.390 . S
C3063 C3062 1.387 . S
C3063 C3065 1.387 . S
H3064 C3071 0.950 . S
C3065 C3063 1.387 . S
C3065 C3067 1.390 . S
C3065 H3069 0.950 . S
H3066 C3062 0.950 . S
C3067 C3065 1.390 . S
C3067 C3068 1.387 . S
C3067 H3070 0.950 . S
C3068 C3067 1.387 . S
C3068 C3071 1.387 . S
H3069 C3065 0.950 . S
H3070 C3067 0.950 . S
C3071 C3062 1.390 . S
C3071 H3064 0.950 . S
C3071 C3068 1.387 . S
C3072 C3073 1.387 . S
C3072 H3076 0.950 . S
C3072 C3081 1.390 . S
C3073 C3072 1.387 . S
C3073 C3075 1.387 . S
H3074 C3081 0.950 . S
C3075 C3073 1.387 . S
C3075 C3077 1.390 . S
C3075 H3079 0.950 . S
H3076 C3072 0.950 . S
C3077 C3075 1.390 . S
C3077 C3078 1.387 . S
C3077 H3080 0.950 . S
C3078 C3077 1.387 . S
C3078 C3081 1.387 . S
H3079 C3075 0.950 . S
H3080 C3077 0.950 . S
C3081 C3072 1.390 . S
C3081 H3074 0.950 . S
C3081 C3078 1.387 . S
C3082 C3083 1.387 . S
C3082 H3086 0.950 . S
C3082 C3091 1.390 . S
C3083 C3082 1.387 . S
C3083 C3085 1.387 . S
H3084 C3091 0.950 . S
C3085 C3083 1.387 . S
C3085 C3087 1.390 . S
C3085 H3089 0.950 . S
H3086 C3082 0.950 . S
C3087 C3085 1.390 . S
C3087 C3088 1.387 . S
C3087 H3090 0.950 . S
C3088 C3087 1.387 . S
C3088 C3091 1.387 . S
H3089 C3085 0.950 . S
H3090 C3087 0.950 . S
C3091 C3082 1.390 . S
C3091 H3084 0.950 . S
C3091 C3088 1.387 . S
C3092 C3093 1.387 . S
C3092 H3096 0.950 1_545 S
C3092 C3101 1.390 . S
C3093 C3092 1.387 . S
C3093 C3095 1.387 . S
H3094 C3101 0.950 . S
C3095 C3093 1.387 . S
C3095 C3097 1.390 . S
C3095 H3099 0.950 . S
H3096 C3092 0.950 1_565 S
C3097 C3095 1.390 . S
C3097 C3098 1.387 . S
C3097 H3100 0.950 . S
C3098 C3097 1.387 . S
C3098 C3101 1.387 . S
H3099 C3095 0.950 . S
H3100 C3097 0.950 . S
C3101 C3092 1.390 . S
C3101 H3094 0.950 . S
C3101 C3098 1.387 . S
C3102 C3103 1.387 . S
C3102 H3106 0.950 . S
C3102 C3111 1.390 . S
C3103 C3102 1.387 . S
C3103 C3105 1.387 . S
H3104 C3111 0.950 . S
C3105 C3103 1.387 . S
C3105 C3107 1.390 . S
C3105 H3109 0.950 . S
H3106 C3102 0.950 . S
C3107 C3105 1.390 . S
C3107 C3108 1.387 . S
C3107 H3110 0.950 . S
C3108 C3107 1.387 . S
C3108 C3111 1.387 . S
H3109 C3105 0.950 . S
H3110 C3107 0.950 . S
C3111 C3102 1.390 . S
C3111 H3104 0.950 . S
C3111 C3108 1.387 . S
C3112 C3113 1.387 . S
C3112 H3116 0.950 . S
C3112 C3121 1.390 . S
C3113 C3112 1.387 . S
C3113 C3115 1.387 . S
H3114 C3121 0.950 . S
C3115 C3113 1.387 . S
C3115 C3117 1.390 . S
C3115 H3119 0.950 . S
H3116 C3112 0.950 . S
C3117 C3115 1.390 . S
C3117 C3118 1.387 . S
C3117 H3120 0.950 . S
C3118 C3117 1.387 . S
C3118 C3121 1.387 . S
H3119 C3115 0.950 . S
H3120 C3117 0.950 . S
C3121 C3112 1.390 . S
C3121 H3114 0.950 . S
C3121 C3118 1.387 . S
C3122 C3123 1.387 . S
C3122 H3126 0.950 . S
C3122 C3131 1.390 . S
C3123 C3122 1.387 . S
C3123 C3125 1.387 . S
H3124 C3131 0.950 . S
C3125 C3123 1.387 . S
C3125 C3127 1.390 . S
C3125 H3129 0.950 . S
H3126 C3122 0.950 . S
C3127 C3125 1.390 . S
C3127 C3128 1.387 . S
C3127 H3130 0.950 . S
C3128 C3127 1.387 . S
C3128 C3131 1.387 . S
H3129 C3125 0.950 . S
H3130 C3127 0.950 . S
C3131 C3122 1.390 . S
C3131 H3124 0.950 . S
C3131 C3128 1.387 . S
C3132 C3133 1.387 1_565 S
C3132 H3136 0.950 . S
C3132 C3141 1.390 . S
C3133 C3132 1.387 1_545 S
C3133 C3135 1.387 . S
H3134 C3141 0.950 . S
C3135 C3133 1.387 . S
C3135 C3137 1.390 . S
C3135 H3139 0.950 . S
H3136 C3132 0.950 . S
C3137 C3135 1.390 . S
C3137 C3138 1.387 1_545 S
C3137 H3140 0.950 . S
C3138 C3137 1.387 1_565 S
C3138 C3141 1.387 . S
H3139 C3135 0.950 . S
H3140 C3137 0.950 . S
C3141 C3132 1.390 . S
C3141 H3134 0.950 . S
C3141 C3138 1.387 . S
C3142 C3143 1.387 . S
C3142 H3146 0.950 . S
C3142 C3151 1.390 . S
C3143 C3142 1.387 . S
C3143 C3145 1.387 . S
H3144 C3151 0.950 . S
C3145 C3143 1.387 . S
C3145 C3147 1.390 . S
C3145 H3149 0.950 . S
H3146 C3142 0.950 . S
C3147 C3145 1.390 . S
C3147 C3148 1.387 . S
C3147 H3150 0.950 . S
C3148 C3147 1.387 . S
C3148 C3151 1.387 . S
H3149 C3145 0.950 . S
H3150 C3147 0.950 . S
C3151 C3142 1.390 . S
C3151 H3144 0.950 . S
C3151 C3148 1.387 . S
C3152 C3153 1.387 . S
C3152 H3156 0.950 . S
C3152 C3161 1.390 . S
C3153 C3152 1.387 . S
C3153 C3155 1.387 . S
H3154 C3161 0.950 . S
C3155 C3153 1.387 . S
C3155 C3157 1.390 . S
C3155 H3159 0.950 . S
H3156 C3152 0.950 . S
C3157 C3155 1.390 . S
C3157 C3158 1.387 . S
C3157 H3160 0.950 . S
C3158 C3157 1.387 . S
C3158 C3161 1.387 . S
H3159 C3155 0.950 . S
H3160 C3157 0.950 . S
C3161 C3152 1.390 . S
C3161 H3154 0.950 . S
C3161 C3158 1.387 . S
C3162 C3163 1.387 . S
C3162 H3166 0.950 . S
C3162 C3171 1.390 . S
C3163 C3162 1.387 . S
C3163 C3165 1.387 . S
H3164 C3171 0.950 . S
C3165 C3163 1.387 . S
C3165 C3167 1.390 . S
C3165 H3169 0.950 . S
H3166 C3162 0.950 . S
C3167 C3165 1.390 . S
C3167 C3168 1.387 . S
C3167 H3170 0.950 . S
C3168 C3167 1.387 . S
C3168 C3171 1.387 . S
H3169 C3165 0.950 . S
H3170 C3167 0.950 . S
C3171 C3162 1.390 . S
C3171 H3164 0.950 . S
C3171 C3168 1.387 . S
C3172 C3173 1.387 . S
C3172 H3176 0.950 . S
C3172 C3181 1.390 . S
C3173 C3172 1.387 . S
C3173 C3175 1.387 . S
H3174 C3181 0.950 . S
C3175 C3173 1.387 . S
C3175 C3177 1.390 . S
C3175 H3179 0.950 . S
H3176 C3172 0.950 . S
C3177 C3175 1.390 . S
C3177 C3178 1.387 . S
C3177 H3180 0.950 . S
C3178 C3177 1.387 . S
C3178 C3181 1.387 . S
H3179 C3175 0.950 . S
H3180 C3177 0.950 . S
C3181 C3172 1.390 . S
C3181 H3174 0.950 . S
C3181 C3178 1.387 . S
C3182 C3183 1.387 . S
C3182 H3186 0.950 . S
C3182 C3191 1.390 . S
C3183 C3182 1.387 . S
C3183 C3185 1.387 . S
H3184 C3191 0.950 . S
C3185 C3183 1.387 . S
C3185 C3187 1.390 . S
C3185 H3189 0.950 . S
H3186 C3182 0.950 . S
C3187 C3185 1.390 . S
C3187 C3188 1.387 . S
C3187 H3190 0.950 . S
C3188 C3187 1.387 . S
C3188 C3191 1.387 . S
H3189 C3185 0.950 . S
H3190 C3187 0.950 . S
C3191 C3182 1.390 . S
C3191 H3184 0.950 . S
C3191 C3188 1.387 . S
C3192 C3193 1.387 . S
C3192 H3196 0.950 . S
C3192 C3201 1.390 . S
C3193 C3192 1.387 . S
C3193 C3195 1.387 . S
H3194 C3201 0.950 . S
C3195 C3193 1.387 . S
C3195 C3197 1.390 . S
C3195 H3199 0.950 . S
H3196 C3192 0.950 . S
C3197 C3195 1.390 . S
C3197 C3198 1.387 . S
C3197 H3200 0.950 . S
C3198 C3197 1.387 . S
C3198 C3201 1.387 . S
H3199 C3195 0.950 . S
H3200 C3197 0.950 . S
C3201 C3192 1.390 . S
C3201 H3194 0.950 . S
C3201 C3198 1.387 . S
C3202 C3203 1.387 . S
C3202 H3206 0.950 . S
C3202 C3211 1.390 . S
C3203 C3202 1.387 . S
C3203 C3205 1.387 . S
H3204 C3211 0.950 . S
C3205 C3203 1.387 . S
C3205 C3207 1.390 . S
C3205 H3209 0.950 . S
H3206 C3202 0.950 . S
C3207 C3205 1.390 . S
C3207 C3208 1.387 . S
C3207 H3210 0.950 . S
C3208 C3207 1.387 . S
C3208 C3211 1.387 . S
H3209 C3205 0.950 . S
H3210 C3207 0.950 . S
C3211 C3202 1.390 . S
C3211 H3204 0.950 . S
C3211 C3208 1.387 . S
C3212 C3213 1.387 . S
C3212 H3216 0.950 . S
C3212 C3221 1.390 . S
C3213 C3212 1.387 . S
C3213 C3215 1.387 . S
H3214 C3221 0.950 . S
C3215 C3213 1.387 . S
C3215 C3217 1.390 . S
C3215 H3219 0.950 . S
H3216 C3212 0.950 . S
C3217 C3215 1.390 . S
C3217 C3218 1.387 . S
C3217 H3220 0.950 . S
C3218 C3217 1.387 . S
C3218 C3221 1.387 . S
H3219 C3215 0.950 . S
H3220 C3217 0.950 . S
C3221 C3212 1.390 . S
C3221 H3214 0.950 . S
C3221 C3218 1.387 . S
C3222 C3223 1.387 . S
C3222 H3226 0.950 . S
C3222 C3231 1.390 . S
C3223 C3222 1.387 . S
C3223 C3225 1.387 . S
H3224 C3231 0.950 . S
C3225 C3223 1.387 . S
C3225 C3227 1.390 . S
C3225 H3229 0.950 . S
H3226 C3222 0.950 . S
C3227 C3225 1.390 . S
C3227 C3228 1.387 . S
C3227 H3230 0.950 . S
C3228 C3227 1.387 . S
C3228 C3231 1.387 . S
H3229 C3225 0.950 . S
H3230 C3227 0.950 . S
C3231 C3222 1.390 . S
C3231 H3224 0.950 . S
C3231 C3228 1.387 . S
C3232 C3233 1.387 . S
C3232 H3236 0.950 . S
C3232 C3241 1.390 . S
C3233 C3232 1.387 . S
C3233 C3235 1.387 . S
H3234 C3241 0.950 . S
C3235 C3233 1.387 . S
C3235 C3237 1.390 . S
C3235 H3239 0.950 . S
H3236 C3232 0.950 . S
C3237 C3235 1.390 . S
C3237 C3238 1.387 . S
C3237 H3240 0.950 . S
C3238 C3237 1.387 . S
C3238 C3241 1.387 . S
H3239 C3235 0.950 . S
H3240 C3237 0.950 . S
C3241 C3232 1.390 . S
C3241 H3234 0.950 . S
C3241 C3238 1.387 . S
C3242 C3243 1.387 . S
C3242 H3246 0.950 . S
C3242 C3251 1.390 . S
C3243 C3242 1.387 . S
C3243 C3245 1.387 . S
H3244 C3251 0.950 . S
C3245 C3243 1.387 . S
C3245 C3247 1.390 . S
C3245 H3249 0.950 . S
H3246 C3242 0.950 . S
C3247 C3245 1.390 . S
C3247 C3248 1.387 . S
C3247 H3250 0.950 . S
C3248 C3247 1.387 . S
C3248 C3251 1.387 . S
H3249 C3245 0.950 . S
H3250 C3247 0.950 . S
C3251 C3242 1.390 . S
C3251 H3244 0.950 . S
C3251 C3248 1.387 . S
C3252 C3253 1.387 . S
C3252 H3256 0.950 . S
C3252 C3261 1.390 . S
C3253 C3252 1.387 . S
C3253 C3255 1.387 . S
H3254 C3261 0.950 . S
C3255 C3253 1.387 . S
C3255 C3257 1.390 . S
C3255 H3259 0.950 . S
H3256 C3252 0.950 . S
C3257 C3255 1.390 . S
C3257 C3258 1.387 . S
C3257 H3260 0.950 . S
C3258 C3257 1.387 . S
C3258 C3261 1.387 . S
H3259 C3255 0.950 . S
H3260 C3257 0.950 . S
C3261 C3252 1.390 . S
C3261 H3254 0.950 . S
C3261 C3258 1.387 . S
C3262 C3263 1.387 . S
C3262 H3266 0.950 . S
C3262 C3271 1.390 . S
C3263 C3262 1.387 . S
C3263 C3265 1.387 . S
H3264 C3271 0.950 . S
C3265 C3263 1.387 . S
C3265 C3267 1.390 . S
C3265 H3269 0.950 . S
H3266 C3262 0.950 . S
C3267 C3265 1.390 . S
C3267 C3268 1.387 . S
C3267 H3270 0.950 . S
C3268 C3267 1.387 . S
C3268 C3271 1.387 . S
H3269 C3265 0.950 . S
H3270 C3267 0.950 . S
C3271 C3262 1.390 . S
C3271 H3264 0.950 . S
C3271 C3268 1.387 . S
C3272 C3273 1.387 . S
C3272 H3276 0.950 . S
C3272 C3281 1.390 . S
C3273 C3272 1.387 . S
C3273 C3275 1.387 . S
H3274 C3281 0.950 . S
C3275 C3273 1.387 . S
C3275 C3277 1.390 . S
C3275 H3279 0.950 . S
H3276 C3272 0.950 . S
C3277 C3275 1.390 . S
C3277 C3278 1.387 . S
C3277 H3280 0.950 . S
C3278 C3277 1.387 . S
C3278 C3281 1.387 . S
H3279 C3275 0.950 . S
H3280 C3277 0.950 . S
C3281 C3272 1.390 . S
C3281 H3274 0.950 . S
C3281 C3278 1.387 . S
C3282 C3283 1.387 . S
C3282 H3286 0.950 . S
C3282 C3291 1.390 . S
C3283 C3282 1.387 . S
C3283 C3285 1.387 . S
H3284 C3291 0.950 . S
C3285 C3283 1.387 . S
C3285 C3287 1.390 . S
C3285 H3289 0.950 . S
H3286 C3282 0.950 . S
C3287 C3285 1.390 . S
C3287 C3288 1.387 . S
C3287 H3290 0.950 . S
C3288 C3287 1.387 . S
C3288 C3291 1.387 . S
H3289 C3285 0.950 . S
H3290 C3287 0.950 . S
C3291 C3282 1.390 . S
C3291 H3284 0.950 . S
C3291 C3288 1.387 . S
C3292 C3293 1.387 1_655 S
C3292 H3296 0.950 . S
C3292 C3301 1.393 1_655 S
C3293 C3292 1.387 1_455 S
C3293 C3295 1.387 . S
H3294 C3301 0.951 1_655 S
C3295 C3293 1.387 . S
C3295 C3297 1.390 . S
C3295 H3299 0.950 . S
H3296 C3292 0.950 . S
C3297 C3295 1.390 . S
C3297 C3298 1.387 . S
C3297 H3300 0.950 . S
C3298 C3297 1.387 . S
C3298 C3301 1.383 . S
H3299 C3295 0.950 . S
H3300 C3297 0.950 . S
C3301 C3292 1.393 1_455 S
C3301 H3294 0.951 1_455 S
C3301 C3298 1.383 . S
C3302 C3303 1.387 . S
C3302 H3306 0.950 . S
C3302 C3311 1.390 . S
C3303 C3302 1.387 . S
C3303 C3305 1.387 . S
H3304 C3311 0.950 . S
C3305 C3303 1.387 . S
C3305 C3307 1.390 . S
C3305 H3309 0.950 . S
H3306 C3302 0.950 . S
C3307 C3305 1.390 . S
C3307 C3308 1.387 . S
C3307 H3310 0.950 . S
C3308 C3307 1.387 . S
C3308 C3311 1.387 . S
H3309 C3305 0.950 . S
H3310 C3307 0.950 . S
C3311 C3302 1.390 . S
C3311 H3304 0.950 . S
C3311 C3308 1.387 . S
C3312 C3313 1.387 . S
C3312 H3316 0.950 . S
C3312 C3321 1.390 . S
C3313 C3312 1.387 . S
C3313 C3315 1.387 . S
H3314 C3321 0.950 . S
C3315 C3313 1.387 . S
C3315 C3317 1.390 . S
C3315 H3319 0.950 . S
H3316 C3312 0.950 . S
C3317 C3315 1.390 . S
C3317 C3318 1.387 . S
C3317 H3320 0.950 . S
C3318 C3317 1.387 . S
C3318 C3321 1.387 . S
H3319 C3315 0.950 . S
H3320 C3317 0.950 . S
C3321 C3312 1.390 . S
C3321 H3314 0.950 . S
C3321 C3318 1.387 . S
C3322 C3323 1.387 . S
C3322 H3326 0.950 . S
C3322 C3331 1.390 . S
C3323 C3322 1.387 . S
C3323 C3325 1.387 . S
H3324 C3331 0.950 . S
C3325 C3323 1.387 . S
C3325 C3327 1.390 . S
C3325 H3329 0.950 . S
H3326 C3322 0.950 . S
C3327 C3325 1.390 . S
C3327 C3328 1.387 . S
C3327 H3330 0.950 . S
C3328 C3327 1.387 . S
C3328 C3331 1.387 . S
H3329 C3325 0.950 . S
H3330 C3327 0.950 . S
C3331 C3322 1.390 . S
C3331 H3324 0.950 . S
C3331 C3328 1.387 . S
C3332 C3333 1.387 . S
C3332 H3336 0.950 . S
C3332 C3341 1.390 . S
C3333 C3332 1.387 . S
C3333 C3335 1.387 . S
H3334 C3341 0.950 . S
C3335 C3333 1.387 . S
C3335 C3337 1.390 . S
C3335 H3339 0.950 . S
H3336 C3332 0.950 . S
C3337 C3335 1.390 . S
C3337 C3338 1.387 . S
C3337 H3340 0.950 . S
C3338 C3337 1.387 . S
C3338 C3341 1.387 . S
H3339 C3335 0.950 . S
H3340 C3337 0.950 . S
C3341 C3332 1.390 . S
C3341 H3334 0.950 . S
C3341 C3338 1.387 . S
C3342 C3343 1.387 . S
C3342 H3346 0.950 . S
C3342 C3351 1.390 . S
C3343 C3342 1.387 . S
C3343 C3345 1.387 . S
H3344 C3351 0.950 . S
C3345 C3343 1.387 . S
C3345 C3347 1.390 . S
C3345 H3349 0.950 . S
H3346 C3342 0.950 . S
C3347 C3345 1.390 . S
C3347 C3348 1.387 . S
C3347 H3350 0.950 . S
C3348 C3347 1.387 . S
C3348 C3351 1.387 . S
H3349 C3345 0.950 . S
H3350 C3347 0.950 . S
C3351 C3342 1.390 . S
C3351 H3344 0.950 . S
C3351 C3348 1.387 . S
C3352 C3353 1.387 . S
C3352 H3356 0.950 . S
C3352 C3361 1.390 . S
C3353 C3352 1.387 . S
C3353 C3355 1.387 . S
H3354 C3361 0.950 . S
C3355 C3353 1.387 . S
C3355 C3357 1.390 . S
C3355 H3359 0.950 . S
H3356 C3352 0.950 . S
C3357 C3355 1.390 . S
C3357 C3358 1.387 . S
C3357 H3360 0.950 . S
C3358 C3357 1.387 . S
C3358 C3361 1.387 . S
H3359 C3355 0.950 . S
H3360 C3357 0.950 . S
C3361 C3352 1.390 . S
C3361 H3354 0.950 . S
C3361 C3358 1.387 . S
C3362 C3363 1.387 . S
C3362 H3366 0.950 . S
C3362 C3371 1.390 . S
C3363 C3362 1.387 . S
C3363 C3365 1.387 . S
H3364 C3371 0.950 . S
C3365 C3363 1.387 . S
C3365 C3367 1.390 . S
C3365 H3369 0.950 . S
H3366 C3362 0.950 . S
C3367 C3365 1.390 . S
C3367 C3368 1.387 . S
C3367 H3370 0.950 . S
C3368 C3367 1.387 . S
C3368 C3371 1.387 . S
H3369 C3365 0.950 . S
H3370 C3367 0.950 . S
C3371 C3362 1.390 . S
C3371 H3364 0.950 . S
C3371 C3368 1.387 . S
C3372 C3373 1.387 . S
C3372 H3376 0.950 . S
C3372 C3381 1.390 . S
C3373 C3372 1.387 . S
C3373 C3375 1.387 . S
H3374 C3381 0.950 . S
C3375 C3373 1.387 . S
C3375 C3377 1.390 . S
C3375 H3379 0.950 . S
H3376 C3372 0.950 . S
C3377 C3375 1.390 . S
C3377 C3378 1.387 . S
C3377 H3380 0.950 . S
C3378 C3377 1.387 . S
C3378 C3381 1.387 . S
H3379 C3375 0.950 . S
H3380 C3377 0.950 . S
C3381 C3372 1.390 . S
C3381 H3374 0.950 . S
C3381 C3378 1.387 . S
C3382 C3383 1.387 . S
C3382 H3386 0.950 . S
C3382 C3391 1.390 . S
C3383 C3382 1.387 . S
C3383 C3385 1.387 . S
H3384 C3391 0.950 . S
C3385 C3383 1.387 . S
C3385 C3387 1.390 . S
C3385 H3389 0.950 . S
H3386 C3382 0.950 . S
C3387 C3385 1.390 . S
C3387 C3388 1.387 . S
C3387 H3390 0.950 . S
C3388 C3387 1.387 . S
C3388 C3391 1.387 . S
H3389 C3385 0.950 . S
H3390 C3387 0.950 . S
C3391 C3382 1.390 . S
C3391 H3384 0.950 . S
C3391 C3388 1.387 . S
C3392 C3393 1.387 . S
C3392 H3396 0.950 . S
C3392 C3401 1.390 . S
C3393 C3392 1.387 . S
C3393 C3395 1.387 . S
H3394 C3401 0.950 . S
C3395 C3393 1.387 . S
C3395 C3397 1.390 . S
C3395 H3399 0.950 . S
H3396 C3392 0.950 . S
C3397 C3395 1.390 . S
C3397 C3398 1.387 . S
C3397 H3400 0.950 . S
C3398 C3397 1.387 . S
C3398 C3401 1.387 . S
H3399 C3395 0.950 . S
H3400 C3397 0.950 . S
C3401 C3392 1.390 . S
C3401 H3394 0.950 . S
C3401 C3398 1.387 . S
C3402 C3403 1.387 . S
C3402 H3406 0.950 . S
C3402 C3411 1.390 . S
C3403 C3402 1.387 . S
C3403 C3405 1.387 . S
H3404 C3411 0.950 . S
C3405 C3403 1.387 . S
C3405 C3407 1.390 . S
C3405 H3409 0.950 . S
H3406 C3402 0.950 . S
C3407 C3405 1.390 . S
C3407 C3408 1.387 . S
C3407 H3410 0.950 . S
C3408 C3407 1.387 . S
C3408 C3411 1.387 . S
H3409 C3405 0.950 . S
H3410 C3407 0.950 . S
C3411 C3402 1.390 . S
C3411 H3404 0.950 . S
C3411 C3408 1.387 . S
C3412 C3413 1.387 . S
C3412 H3416 0.950 . S
C3412 C3421 1.390 . S
C3413 C3412 1.387 . S
C3413 C3415 1.387 . S
H3414 C3421 0.950 . S
C3415 C3413 1.387 . S
C3415 C3417 1.390 . S
C3415 H3419 0.950 . S
H3416 C3412 0.950 . S
C3417 C3415 1.390 . S
C3417 C3418 1.387 . S
C3417 H3420 0.950 . S
C3418 C3417 1.387 . S
C3418 C3421 1.387 . S
H3419 C3415 0.950 . S
H3420 C3417 0.950 . S
C3421 C3412 1.390 . S
C3421 H3414 0.950 . S
C3421 C3418 1.387 . S
C3422 C3423 1.387 . S
C3422 H3426 0.937 1_554 S
C3422 C3431 1.390 . S
C3423 C3422 1.387 . S
C3423 C3425 1.387 1_545 S
H3424 C3431 0.950 . S
C3425 C3423 1.387 1_565 S
C3425 C3427 1.390 1_565 S
C3425 H3429 0.950 . S
H3426 C3422 0.937 1_556 S
C3427 C3425 1.390 1_545 S
C3427 C3428 1.406 . S
C3427 H3430 0.931 1_545 S
C3428 C3427 1.406 . S
C3428 C3431 1.387 . S
H3429 C3425 0.950 . S
H3430 C3427 0.931 1_565 S
C3431 C3422 1.390 . S
C3431 H3424 0.950 . S
C3431 C3428 1.387 . S
C3432 C3433 1.387 . S
C3432 H3436 0.950 . S
C3432 C3441 1.390 . S
C3433 C3432 1.387 . S
C3433 C3435 1.387 . S
H3434 C3441 0.950 . S
C3435 C3433 1.387 . S
C3435 C3437 1.390 . S
C3435 H3439 0.950 . S
H3436 C3432 0.950 . S
C3437 C3435 1.390 . S
C3437 C3438 1.387 . S
C3437 H3440 0.950 . S
C3438 C3437 1.387 . S
C3438 C3441 1.387 . S
H3439 C3435 0.950 . S
H3440 C3437 0.950 . S
C3441 C3432 1.390 . S
C3441 H3434 0.950 . S
C3441 C3438 1.387 . S
C3442 C3443 1.387 . S
C3442 H3446 0.950 . S
C3442 C3451 1.390 . S
C3443 C3442 1.387 . S
C3443 C3445 1.387 . S
H3444 C3451 0.950 . S
C3445 C3443 1.387 . S
C3445 C3447 1.390 . S
C3445 H3449 0.950 . S
H3446 C3442 0.950 . S
C3447 C3445 1.390 . S
C3447 C3448 1.387 . S
C3447 H3450 0.950 . S
C3448 C3447 1.387 . S
C3448 C3451 1.387 . S
H3449 C3445 0.950 . S
H3450 C3447 0.950 . S
C3451 C3442 1.390 . S
C3451 H3444 0.950 . S
C3451 C3448 1.387 . S
C3452 C3453 1.387 . S
C3452 H3456 0.950 . S
C3452 C3461 1.390 . S
C3453 C3452 1.387 . S
C3453 C3455 1.387 . S
H3454 C3461 0.950 . S
C3455 C3453 1.387 . S
C3455 C3457 1.390 . S
C3455 H3459 0.950 . S
H3456 C3452 0.950 . S
C3457 C3455 1.390 . S
C3457 C3458 1.387 . S
C3457 H3460 0.950 . S
C3458 C3457 1.387 . S
C3458 C3461 1.387 . S
H3459 C3455 0.950 . S
H3460 C3457 0.950 . S
C3461 C3452 1.390 . S
C3461 H3454 0.950 . S
C3461 C3458 1.387 . S
C3462 C3463 1.387 . S
C3462 H3466 0.950 . S
C3462 C3471 1.390 . S
C3463 C3462 1.387 . S
C3463 C3465 1.387 . S
H3464 C3471 0.950 . S
C3465 C3463 1.387 . S
C3465 C3467 1.390 . S
C3465 H3469 0.950 . S
H3466 C3462 0.950 . S
C3467 C3465 1.390 . S
C3467 C3468 1.387 . S
C3467 H3470 0.950 . S
C3468 C3467 1.387 . S
C3468 C3471 1.387 . S
H3469 C3465 0.950 . S
H3470 C3467 0.950 . S
C3471 C3462 1.390 . S
C3471 H3464 0.950 . S
C3471 C3468 1.387 . S
C3472 C3473 1.387 . S
C3472 H3476 0.950 . S
C3472 C3481 1.390 . S
C3473 C3472 1.387 . S
C3473 C3475 1.387 . S
H3474 C3481 0.950 . S
C3475 C3473 1.387 . S
C3475 C3477 1.390 . S
C3475 H3479 0.950 . S
H3476 C3472 0.950 . S
C3477 C3475 1.390 . S
C3477 C3478 1.387 . S
C3477 H3480 0.950 . S
C3478 C3477 1.387 . S
C3478 C3481 1.387 . S
H3479 C3475 0.950 . S
H3480 C3477 0.950 . S
C3481 C3472 1.390 . S
C3481 H3474 0.950 . S
C3481 C3478 1.387 . S
C3482 C3483 1.387 . S
C3482 H3486 0.950 . S
C3482 C3491 1.390 . S
C3483 C3482 1.387 . S
C3483 C3485 1.387 . S
H3484 C3491 0.950 . S
C3485 C3483 1.387 . S
C3485 C3487 1.390 . S
C3485 H3489 0.950 . S
H3486 C3482 0.950 . S
C3487 C3485 1.390 . S
C3487 C3488 1.387 . S
C3487 H3490 0.950 . S
C3488 C3487 1.387 . S
C3488 C3491 1.387 . S
H3489 C3485 0.950 . S
H3490 C3487 0.950 . S
C3491 C3482 1.390 . S
C3491 H3484 0.950 . S
C3491 C3488 1.387 . S
C3492 C3493 1.387 . S
C3492 H3496 0.950 1_554 S
C3492 C3501 1.390 . S
C3493 C3492 1.387 . S
C3493 C3495 1.387 . S
H3494 C3501 0.950 1_556 S
C3495 C3493 1.387 . S
C3495 C3497 1.390 . S
C3495 H3499 0.950 . S
H3496 C3492 0.950 1_556 S
C3497 C3495 1.390 . S
C3497 C3498 1.387 . S
C3497 H3500 0.950 . S
C3498 C3497 1.387 . S
C3498 C3501 1.387 . S
H3499 C3495 0.950 . S
H3500 C3497 0.950 . S
C3501 C3492 1.390 . S
C3501 H3494 0.950 1_554 S
C3501 C3498 1.387 . S
C3502 C3503 1.387 . S
C3502 H3506 0.950 . S
C3502 C3511 1.390 . S
C3503 C3502 1.387 . S
C3503 C3505 1.387 . S
H3504 C3511 0.950 . S
C3505 C3503 1.387 . S
C3505 C3507 1.390 . S
C3505 H3509 0.950 . S
H3506 C3502 0.950 . S
C3507 C3505 1.390 . S
C3507 C3508 1.387 . S
C3507 H3510 0.950 . S
C3508 C3507 1.387 . S
C3508 C3511 1.387 . S
H3509 C3505 0.950 . S
H3510 C3507 0.950 . S
C3511 C3502 1.390 . S
C3511 H3504 0.950 . S
C3511 C3508 1.387 . S
C3512 C3513 1.387 . S
C3512 H3516 0.950 . S
C3512 C3521 1.390 . S
C3513 C3512 1.387 . S
C3513 C3515 1.387 . S
H3514 C3521 0.950 . S
C3515 C3513 1.387 . S
C3515 C3517 1.390 . S
C3515 H3519 0.950 . S
H3516 C3512 0.950 . S
C3517 C3515 1.390 . S
C3517 C3518 1.387 . S
C3517 H3520 0.950 . S
C3518 C3517 1.387 . S
C3518 C3521 1.387 . S
H3519 C3515 0.950 . S
H3520 C3517 0.950 . S
C3521 C3512 1.390 . S
C3521 H3514 0.950 . S
C3521 C3518 1.387 . S
C3522 C3523 1.387 . S
C3522 H3526 0.950 . S
C3522 C3531 1.390 . S
C3523 C3522 1.387 . S
C3523 C3525 1.387 . S
H3524 C3531 0.950 . S
C3525 C3523 1.387 . S
C3525 C3527 1.390 . S
C3525 H3529 0.950 . S
H3526 C3522 0.950 . S
C3527 C3525 1.390 . S
C3527 C3528 1.387 . S
C3527 H3530 0.950 . S
C3528 C3527 1.387 . S
C3528 C3531 1.387 . S
H3529 C3525 0.950 . S
H3530 C3527 0.950 . S
C3531 C3522 1.390 . S
C3531 H3524 0.950 . S
C3531 C3528 1.387 . S
C3532 C3533 1.387 . S
C3532 H3536 0.950 . S
C3532 C3541 1.390 . S
C3533 C3532 1.387 . S
C3533 C3535 1.387 . S
H3534 C3541 0.950 . S
C3535 C3533 1.387 . S
C3535 C3537 1.390 . S
C3535 H3539 0.950 . S
H3536 C3532 0.950 . S
C3537 C3535 1.390 . S
C3537 C3538 1.387 . S
C3537 H3540 0.950 . S
C3538 C3537 1.387 . S
C3538 C3541 1.387 . S
H3539 C3535 0.950 . S
H3540 C3537 0.950 . S
C3541 C3532 1.390 . S
C3541 H3534 0.950 . S
C3541 C3538 1.387 . S
C3542 C3543 1.387 . S
C3542 H3546 0.950 . S
C3542 C3551 1.390 . S
C3543 C3542 1.387 . S
C3543 C3545 1.387 . S
H3544 C3551 0.950 . S
C3545 C3543 1.387 . S
C3545 C3547 1.390 . S
C3545 H3549 0.950 . S
H3546 C3542 0.950 . S
C3547 C3545 1.390 . S
C3547 C3548 1.387 . S
C3547 H3550 0.950 . S
C3548 C3547 1.387 . S
C3548 C3551 1.387 . S
H3549 C3545 0.950 . S
H3550 C3547 0.950 . S
C3551 C3542 1.390 . S
C3551 H3544 0.950 . S
C3551 C3548 1.387 . S
C3552 C3553 1.387 . S
C3552 H3556 0.950 . S
C3552 C3561 1.390 . S
C3553 C3552 1.387 . S
C3553 C3555 1.387 . S
H3554 C3561 0.950 . S
C3555 C3553 1.387 . S
C3555 C3557 1.390 . S
C3555 H3559 0.950 . S
H3556 C3552 0.950 . S
C3557 C3555 1.390 . S
C3557 C3558 1.387 . S
C3557 H3560 0.950 . S
C3558 C3557 1.387 . S
C3558 C3561 1.387 . S
H3559 C3555 0.950 . S
H3560 C3557 0.950 . S
C3561 C3552 1.390 . S
C3561 H3554 0.950 . S
C3561 C3558 1.387 . S
C3562 C3563 1.387 . S
C3562 H3566 0.950 . S
C3562 C3571 1.390 . S
C3563 C3562 1.387 . S
C3563 C3565 1.387 . S
H3564 C3571 0.950 . S
C3565 C3563 1.387 . S
C3565 C3567 1.390 . S
C3565 H3569 0.950 . S
H3566 C3562 0.950 . S
C3567 C3565 1.390 . S
C3567 C3568 1.387 . S
C3567 H3570 0.950 . S
C3568 C3567 1.387 . S
C3568 C3571 1.387 . S
H3569 C3565 0.950 . S
H3570 C3567 0.950 . S
C3571 C3562 1.390 . S
C3571 H3564 0.950 . S
C3571 C3568 1.387 . S
C3572 C3573 1.387 . S
C3572 H3576 0.950 . S
C3572 C3581 1.390 . S
C3573 C3572 1.387 . S
C3573 C3575 1.387 . S
H3574 C3581 0.946 1_455 S
C3575 C3573 1.387 . S
C3575 C3577 1.390 . S
C3575 H3579 0.950 . S
H3576 C3572 0.950 . S
C3577 C3575 1.390 . S
C3577 C3578 1.395 . S
C3577 H3580 0.950 . S
C3578 C3577 1.395 . S
C3578 C3581 1.406 . S
H3579 C3575 0.950 . S
H3580 C3577 0.950 . S
C3581 C3572 1.390 . S
C3581 H3574 0.946 1_655 S
C3581 C3578 1.406 . S
C3582 C3583 1.387 . S
C3582 H3586 0.950 . S
C3582 C3591 1.390 . S
C3583 C3582 1.387 . S
C3583 C3585 1.387 . S
H3584 C3591 0.950 . S
C3585 C3583 1.387 . S
C3585 C3587 1.390 . S
C3585 H3589 0.950 . S
H3586 C3582 0.950 . S
C3587 C3585 1.390 . S
C3587 C3588 1.387 . S
C3587 H3590 0.950 . S
C3588 C3587 1.387 . S
C3588 C3591 1.387 . S
H3589 C3585 0.950 . S
H3590 C3587 0.950 . S
C3591 C3582 1.390 . S
C3591 H3584 0.950 . S
C3591 C3588 1.387 . S
C3592 C3593 1.387 . S
C3592 H3596 0.950 . S
C3592 C3601 1.390 . S
C3593 C3592 1.387 . S
C3593 C3595 1.387 . S
H3594 C3601 0.950 . S
C3595 C3593 1.387 . S
C3595 C3597 1.390 . S
C3595 H3599 0.950 . S
H3596 C3592 0.950 . S
C3597 C3595 1.390 . S
C3597 C3598 1.387 . S
C3597 H3600 0.950 . S
C3598 C3597 1.387 . S
C3598 C3601 1.387 . S
H3599 C3595 0.950 . S
H3600 C3597 0.950 . S
C3601 C3592 1.390 . S
C3601 H3594 0.950 . S
C3601 C3598 1.387 . S
C3602 C3603 1.387 . S
C3602 H3606 0.950 . S
C3602 C3611 1.390 . S
C3603 C3602 1.387 . S
C3603 C3605 1.387 . S
H3604 C3611 0.950 . S
C3605 C3603 1.387 . S
C3605 C3607 1.390 . S
C3605 H3609 0.950 . S
H3606 C3602 0.950 . S
C3607 C3605 1.390 . S
C3607 C3608 1.387 . S
C3607 H3610 0.950 . S
C3608 C3607 1.387 . S
C3608 C3611 1.387 . S
H3609 C3605 0.950 . S
H3610 C3607 0.950 . S
C3611 C3602 1.390 . S
C3611 H3604 0.950 . S
C3611 C3608 1.387 . S
C3612 C3613 1.387 . S
C3612 H3616 0.950 . S
C3612 C3621 1.390 . S
C3613 C3612 1.387 . S
C3613 C3615 1.387 . S
H3614 C3621 0.950 . S
C3615 C3613 1.387 . S
C3615 C3617 1.390 . S
C3615 H3619 0.950 . S
H3616 C3612 0.950 . S
C3617 C3615 1.390 . S
C3617 C3618 1.387 . S
C3617 H3620 0.950 . S
C3618 C3617 1.387 . S
C3618 C3621 1.387 . S
H3619 C3615 0.950 . S
H3620 C3617 0.950 . S
C3621 C3612 1.390 . S
C3621 H3614 0.950 . S
C3621 C3618 1.387 . S
C3622 C3623 1.387 . S
C3622 H3626 0.950 . S
C3622 C3631 1.390 . S
C3623 C3622 1.387 . S
C3623 C3625 1.387 . S
H3624 C3631 0.950 . S
C3625 C3623 1.387 . S
C3625 C3627 1.390 . S
C3625 H3629 0.950 . S
H3626 C3622 0.950 . S
C3627 C3625 1.390 . S
C3627 C3628 1.387 . S
C3627 H3630 0.950 . S
C3628 C3627 1.387 . S
C3628 C3631 1.387 . S
H3629 C3625 0.950 . S
H3630 C3627 0.950 . S
C3631 C3622 1.390 . S
C3631 H3624 0.950 . S
C3631 C3628 1.387 . S
C3632 C3633 1.387 . S
C3632 H3636 0.950 . S
C3632 C3641 1.390 . S
C3633 C3632 1.387 . S
C3633 C3635 1.387 . S
H3634 C3641 0.950 . S
C3635 C3633 1.387 . S
C3635 C3637 1.390 . S
C3635 H3639 0.950 . S
H3636 C3632 0.950 . S
C3637 C3635 1.390 . S
C3637 C3638 1.387 . S
C3637 H3640 0.950 . S
C3638 C3637 1.387 . S
C3638 C3641 1.387 . S
H3639 C3635 0.950 . S
H3640 C3637 0.950 . S
C3641 C3632 1.390 . S
C3641 H3634 0.950 . S
C3641 C3638 1.387 . S
C3642 C3643 1.387 . S
C3642 H3646 0.950 . S
C3642 C3651 1.390 1_565 S
C3643 C3642 1.387 . S
C3643 C3645 1.387 . S
H3644 C3651 0.950 . S
C3645 C3643 1.387 . S
C3645 C3647 1.390 . S
C3645 H3649 0.950 . S
H3646 C3642 0.950 . S
C3647 C3645 1.390 . S
C3647 C3648 1.387 1_565 S
C3647 H3650 0.950 . S
C3648 C3647 1.387 1_545 S
C3648 C3651 1.387 . S
H3649 C3645 0.950 . S
H3650 C3647 0.950 . S
C3651 C3642 1.390 1_545 S
C3651 H3644 0.950 . S
C3651 C3648 1.387 . S
C3652 C3653 1.387 . S
C3652 H3656 0.950 . S
C3652 C3661 1.390 . S
C3653 C3652 1.387 . S
C3653 C3655 1.387 . S
H3654 C3661 0.950 . S
C3655 C3653 1.387 . S
C3655 C3657 1.390 . S
C3655 H3659 0.950 . S
H3656 C3652 0.950 . S
C3657 C3655 1.390 . S
C3657 C3658 1.387 . S
C3657 H3660 0.950 . S
C3658 C3657 1.387 . S
C3658 C3661 1.387 . S
H3659 C3655 0.950 . S
H3660 C3657 0.950 . S
C3661 C3652 1.390 . S
C3661 H3654 0.950 . S
C3661 C3658 1.387 . S
C3662 C3663 1.387 . S
C3662 H3666 0.950 . S
C3662 C3671 1.390 . S
C3663 C3662 1.387 . S
C3663 C3665 1.387 . S
H3664 C3671 0.950 . S
C3665 C3663 1.387 . S
C3665 C3667 1.390 . S
C3665 H3669 0.950 . S
H3666 C3662 0.950 . S
C3667 C3665 1.390 . S
C3667 C3668 1.387 . S
C3667 H3670 0.950 . S
C3668 C3667 1.387 . S
C3668 C3671 1.387 . S
H3669 C3665 0.950 . S
H3670 C3667 0.950 . S
C3671 C3662 1.390 . S
C3671 H3664 0.950 . S
C3671 C3668 1.387 . S
C3672 C3673 1.387 . S
C3672 H3676 0.950 . S
C3672 C3681 1.390 . S
C3673 C3672 1.387 . S
C3673 C3675 1.387 . S
H3674 C3681 0.950 . S
C3675 C3673 1.387 . S
C3675 C3677 1.390 . S
C3675 H3679 0.950 . S
H3676 C3672 0.950 . S
C3677 C3675 1.390 . S
C3677 C3678 1.387 . S
C3677 H3680 0.950 . S
C3678 C3677 1.387 . S
C3678 C3681 1.387 . S
H3679 C3675 0.950 . S
H3680 C3677 0.950 . S
C3681 C3672 1.390 . S
C3681 H3674 0.950 . S
C3681 C3678 1.387 . S
C3682 C3683 1.387 . S
C3682 H3686 0.950 . S
C3682 C3691 1.389 . S
C3683 C3682 1.387 . S
C3683 C3685 1.387 . S
H3684 C3691 0.951 1_556 S
C3685 C3683 1.387 . S
C3685 C3687 1.390 . S
C3685 H3689 0.950 . S
H3686 C3682 0.950 . S
C3687 C3685 1.390 . S
C3687 C3688 1.387 . S
C3687 H3690 0.950 . S
C3688 C3687 1.387 . S
C3688 C3691 1.387 . S
H3689 C3685 0.950 . S
H3690 C3687 0.950 . S
C3691 C3682 1.389 . S
C3691 H3684 0.951 1_554 S
C3691 C3688 1.387 . S
C3692 C3693 1.387 . S
C3692 H3696 0.950 . S
C3692 C3701 1.390 . S
C3693 C3692 1.387 . S
C3693 C3695 1.387 . S
H3694 C3701 0.950 . S
C3695 C3693 1.387 . S
C3695 C3697 1.390 . S
C3695 H3699 0.950 . S
H3696 C3692 0.950 . S
C3697 C3695 1.390 . S
C3697 C3698 1.387 . S
C3697 H3700 0.950 . S
C3698 C3697 1.387 . S
C3698 C3701 1.387 . S
H3699 C3695 0.950 . S
H3700 C3697 0.950 . S
C3701 C3692 1.390 . S
C3701 H3694 0.950 . S
C3701 C3698 1.387 . S
C3702 C3703 1.387 . S
C3702 H3706 0.950 . S
C3702 C3711 1.390 . S
C3703 C3702 1.387 . S
C3703 C3705 1.387 . S
H3704 C3711 0.950 . S
C3705 C3703 1.387 . S
C3705 C3707 1.390 . S
C3705 H3709 0.950 . S
H3706 C3702 0.950 . S
C3707 C3705 1.390 . S
C3707 C3708 1.387 . S
C3707 H3710 0.950 . S
C3708 C3707 1.387 . S
C3708 C3711 1.387 . S
H3709 C3705 0.950 . S
H3710 C3707 0.950 . S
C3711 C3702 1.390 . S
C3711 H3704 0.950 . S
C3711 C3708 1.387 . S
C2753 C665 2.368 1_455 S
C2758 C2125 2.472 . S
C2763 C381 2.076 . S
C2768 C2176 2.104 . S
C2773 C460 1.830 . S
C2778 C2205 1.978 . S
C2788 C2249 1.407 . S
C2783 C585 1.479 . S
C2793 C108 1.359 . S
C2798 C2289 1.299 . S
C2808 C2325 1.880 . S
C2803 C196 1.772 . S
C2818 C2375 1.890 . S
C2813 C313 1.848 . S
C2823 C49 2.449 . S
C2828 C2405 2.531 . S
C2838 C2135 1.977 . S
C2833 C1457 2.012 . S
C2843 C1545 0.533 . S
C2848 C2178 0.588 . S
C2858 C2215 1.195 . S
C2853 C1721 1.208 . S
C2868 C2245 1.705 . S
C2863 C1113 1.601 . S
C2873 C1428 1.619 . S
C2878 C2285 1.715 . S
C2888 C2335 0.850 . S
C2883 C1516 0.854 . S
C2898 C2369 0.852 . S
C2893 C1692 0.878 . S
C2908 C2415 1.985 . S
C2903 C1085 2.018 . S
C2918 C2129 1.275 . S
C2913 C988 1.348 . S
C2923 C1817 1.664 . S
C2928 C2455 1.668 . S
C2938 C2489 1.423 . S
C2933 C2081 1.499 . S
C2948 C2525 0.845 . S
C2943 C1993 0.841 . S
C2953 C761 1.604 . S
C2958 C2409 1.555 . S
C2963 C821 1.585 . S
C2968 C2209 1.495 . S
C2973 C2053 1.591 . S
C2978 C2575 1.596 . S
C2988 C2594 0.502 . S
C2983 C1868 0.576 . S
C2998 C2136 2.466 . S
C2993 C372 2.369 . S
C3008 C2605 2.102 . S
C3003 C645 2.069 . S
C3013 C577 1.828 . S
C3018 C2216 1.972 . S
C3023 C497 1.482 . S
C3028 C2578 1.408 . S
C3038 C2298 1.296 . S
C3033 C57 1.360 . S
C3043 C293 1.766 . S
C3048 C2496 1.873 . S
C3058 C2354 1.890 1_566 S
C3053 C205 1.842 . S
C3068 C2656 2.526 . S
C3063 C145 2.452 . S
C3078 C2114 1.974 . S
C3073 C909 2.011 . S
C3088 C2609 0.588 . S
C3083 C1956 0.532 . S
C3093 C724 1.205 . S
C3098 C2194 1.193 . S
C3103 C1780 1.600 . S
C3108 C2576 1.699 . S
C3113 C937 1.618 . S
C3118 C2296 1.708 . S
C3128 C2474 0.846 . S
C3123 C1985 0.849 . S
C3133 C753 0.877 . S
C3138 C2378 0.848 . S
C3143 C1809 2.016 . S
C3148 C2634 1.979 . S
C3153 C1173 1.357 . S
C3158 C2138 1.274 . S
C3163 C1105 1.660 . S
C3168 C2434 1.666 . S
C3173 C1633 1.504 . S
C3178 C2338 1.423 . S
C3183 C1553 0.836 . S
C3188 C2536 0.840 . S
C3198 C2658 1.557 . S
C3193 C1729 1.610 1_565 S
C3203 C1340 1.588 . S
C3208 C2218 1.492 . S
C3218 C2234 1.593 . S
C3213 C1604 1.585 . S
C3228 C2175 0.497 . S
C3223 C1252 0.571 . S
C3233 C489 2.366 . S
C3238 C2685 2.471 . S
C3248 C2616 2.104 . S
C3243 C557 2.074 . S
C3253 C636 1.832 . S
C3258 C2725 1.978 . S
C3263 C409 1.480 . S
C3268 C2569 1.407 . S
C3273 C284 1.359 . S
C3278 C2449 1.298 . S
C3288 C2485 1.880 . S
C3283 C20 1.769 . S
C3298 C2535 1.890 . S
C3293 C137 1.850 . S
C3308 C2645 2.532 . S
C3303 C225 2.449 . S
C3318 C2695 1.977 . S
C3313 C1641 2.012 . S
C3323 C1193 0.533 . S
C3328 C2618 0.590 . S
C3338 C2735 1.195 . S
C3333 C1289 1.208 . S
C3348 C2565 1.705 . S
C3343 C1377 1.602 . S
C3358 C2445 1.715 . S
C3353 C1613 1.623 . S
C3363 C1164 0.853 . S
C3368 C2495 0.851 . S
C3378 C2529 0.849 . S
C3373 C1261 0.876 . S
C3383 C1349 2.019 . S
C3388 C2655 1.985 . S
C3398 C2689 1.275 . S
C3393 C1965 1.349 . S
C3403 C849 1.663 . S
C3408 C2295 1.668 . S
C3418 C2329 1.422 . S
C3413 C929 1.498 . S
C3428 C2365 0.847 . S
C3423 C1017 0.841 1_545 S
C3438 C2649 1.563 . S
C3433 C1897 1.605 . S
C3443 C1789 1.584 . S
C3448 C2729 1.494 . S
C3458 C2255 1.595 . S
C3453 C900 1.591 . S
C3468 C2154 0.502 . S
C3463 C733 0.577 . S
C3473 C548 2.371 . S
C3478 C2696 2.467 . S
C3488 C2165 2.102 . S
C3483 C469 2.068 . S
C3493 C401 1.827 . S
C3498 C2736 1.972 . S
C3503 C673 1.482 . S
C3508 C2258 1.408 . S
C3513 C233 1.358 . S
C3518 C2458 1.293 . S
C3528 C2336 1.874 . S
C3523 C117 1.769 . S
C3533 C29 1.842 . S
C3538 C2514 1.889 . S
C3543 C321 2.451 . S
C3548 C2416 2.526 . S
C3558 C2674 1.975 . S
C3553 C2044 2.012 . S
C3563 C997 0.530 . S
C3568 C2169 0.582 . S
C3578 C2714 1.166 1_655 S
C3573 C1877 1.205 . S
C3583 C812 1.600 . S
C3588 C2256 1.699 . S
C3593 C2073 1.619 . S
C3598 C2456 1.708 . S
C3608 C2314 0.848 . S
C3603 C1025 0.857 . S
C3613 C1905 0.875 . S
C3618 C2538 0.850 . S
C3628 C2394 1.980 . S
C3623 C841 2.016 . S
C3638 C2698 1.275 . S
C3633 C1525 1.358 . S
C3648 C2274 1.666 . S
C3643 C1369 1.659 . S
C3653 C1465 1.504 . S
C3658 C2498 1.423 . S
C3668 C2376 0.840 . S
C3663 C1201 0.837 . S
C3673 C1281 1.612 . S
C3678 C2418 1.561 . S
C3683 C1076 1.588 . S
C3688 C2738 1.491 . S
C3698 C2554 1.593 . S
C3693 C1437 1.586 . S
C3708 C2615 0.487 . S
C3703 C1701 0.559 . S
