# Generated by pormake.
# Topology zzz, (3,6)-cn, num edge types: 1
# Building blocks:
#     Node 0, Type 0, BuildingBlock: OLANEW_clean_sbu_2, # of connection points: 3
#     Node 1, Type 0, BuildingBlock: OLANEW_clean_sbu_2, # of connection points: 3
#     Node 2, Type 0, BuildingBlock: OLANEW_clean_sbu_2, # of connection points: 3
#     Node 3, Type 0, BuildingBlock: OLANEW_clean_sbu_2, # of connection points: 3
#     Node 4, Type 0, BuildingBlock: OLANEW_clean_sbu_2, # of connection points: 3
#     Node 5, Type 0, BuildingBlock: OLANEW_clean_sbu_2, # of connection points: 3
#     Node 6, Type 0, BuildingBlock: OLANEW_clean_sbu_2, # of connection points: 3
#     Node 7, Type 0, BuildingBlock: OLANEW_clean_sbu_2, # of connection points: 3
#     Node 8, Type 1, BuildingBlock: HISSIN_clean_sbu_0, # of connection points: 6
#     Node 9, Type 1, BuildingBlock: HISSIN_clean_sbu_0, # of connection points: 6
#     Node 10, Type 1, BuildingBlock: HISSIN_clean_sbu_0, # of connection points: 6
#     Node 11, Type 1, BuildingBlock: HISSIN_clean_sbu_0, # of connection points: 6
#     Edge 12, Type (0, 1), BuildingBlock: XUDNAN_clean_linker_2, # of connection points: 2
#     Edge 13, Type (0, 1), BuildingBlock: XUDNAN_clean_linker_2, # of connection points: 2
#     Edge 14, Type (0, 1), BuildingBlock: XUDNAN_clean_linker_2, # of connection points: 2
#     Edge 15, Type (0, 1), BuildingBlock: XUDNAN_clean_linker_2, # of connection points: 2
#     Edge 16, Type (0, 1), BuildingBlock: XUDNAN_clean_linker_2, # of connection points: 2
#     Edge 17, Type (0, 1), BuildingBlock: XUDNAN_clean_linker_2, # of connection points: 2
#     Edge 18, Type (0, 1), BuildingBlock: XUDNAN_clean_linker_2, # of connection points: 2
#     Edge 19, Type (0, 1), BuildingBlock: XUDNAN_clean_linker_2, # of connection points: 2
#     Edge 20, Type (0, 1), BuildingBlock: XUDNAN_clean_linker_2, # of connection points: 2
#     Edge 21, Type (0, 1), BuildingBlock: XUDNAN_clean_linker_2, # of connection points: 2
#     Edge 22, Type (0, 1), BuildingBlock: XUDNAN_clean_linker_2, # of connection points: 2
#     Edge 23, Type (0, 1), BuildingBlock: XUDNAN_clean_linker_2, # of connection points: 2
#     Edge 24, Type (0, 1), BuildingBlock: XUDNAN_clean_linker_2, # of connection points: 2
#     Edge 25, Type (0, 1), BuildingBlock: XUDNAN_clean_linker_2, # of connection points: 2
#     Edge 26, Type (0, 1), BuildingBlock: XUDNAN_clean_linker_2, # of connection points: 2
#     Edge 27, Type (0, 1), BuildingBlock: XUDNAN_clean_linker_2, # of connection points: 2
#     Edge 28, Type (0, 1), BuildingBlock: XUDNAN_clean_linker_2, # of connection points: 2
#     Edge 29, Type (0, 1), BuildingBlock: XUDNAN_clean_linker_2, # of connection points: 2
#     Edge 30, Type (0, 1), BuildingBlock: XUDNAN_clean_linker_2, # of connection points: 2
#     Edge 31, Type (0, 1), BuildingBlock: XUDNAN_clean_linker_2, # of connection points: 2
#     Edge 32, Type (0, 1), BuildingBlock: XUDNAN_clean_linker_2, # of connection points: 2
#     Edge 33, Type (0, 1), BuildingBlock: XUDNAN_clean_linker_2, # of connection points: 2
#     Edge 34, Type (0, 1), BuildingBlock: XUDNAN_clean_linker_2, # of connection points: 2
#     Edge 35, Type (0, 1), BuildingBlock: XUDNAN_clean_linker_2, # of connection points: 2
# Relax obj value: 0.224
# Max RMSD: 0.188
# Mean RMSD: 0.098
data_MOF--net-zzz--node1-OLANEW_clean_sbu_2--node2-HISSIN_clean_sbu_0--edge1-XUDNAN_clean_linker_2
_symmetry_space_group_name_H-M    P1
_symmetry_Int_Tables_number       1
_symmetry_cell_setting            triclinic
loop_
_symmetry_equiv_pos_as_xyz
'x, y, z'
_cell_length_a     53.424089
_cell_length_b     53.385057
_cell_length_c     18.354453
_cell_angle_alpha  89.188449
_cell_angle_beta   92.953016
_cell_angle_gamma 90.437009
loop_
_atom_site_label
_atom_site_type_symbol
_atom_site_fract_x
_atom_site_fract_y
_atom_site_fract_z
_atom_type_partial_charge
O0 O 0.76507 0.63707 0.06806 0.0
Cd1 Cd 0.72629 0.65926 0.08645 0.0
O2 O 0.75335 0.61838 0.16776 0.0
Cd3 Cd 0.76183 0.59187 0.25657 0.0
O4 O 0.79073 0.57522 0.32877 0.0
C5 C 0.79248 0.58202 0.39479 0.0
O6 O 0.7757 0.59741 0.41829 0.0
C7 C 0.7683 0.61991 0.11614 0.0
C8 C 0.68876 0.62636 0.0377 0.0
O9 O 0.69471 0.64533 0.99853 0.0
O10 O 0.69963 0.62359 0.10104 0.0
O11 O 0.928 0.75589 0.13431 0.0
Cd12 Cd 0.90488 0.71663 0.14718 0.0
O13 O 0.94826 0.75182 0.24072 0.0
Cd14 Cd 0.9781 0.75891 0.32467 0.0
O15 O 0.00904 0.75222 0.40636 0.0
C16 C 0.01902 0.76626 0.45555 0.0
O17 O 0.03679 0.75686 0.49973 0.0
C18 C 0.94439 0.76391 0.18102 0.0
C19 C 0.92372 0.68371 0.04753 0.0
O20 O 0.90688 0.69976 0.02802 0.0
O21 O 0.93111 0.6825 0.11502 0.0
O22 O 0.79995 0.95777 0.18098 0.0
Cd23 Cd 0.84307 0.9631 0.22843 0.0
O24 O 0.78622 0.96808 0.28689 0.0
Cd25 Cd 0.75609 0.97295 0.36082 0.0
O26 O 0.72124 0.97237 0.41674 0.0
C27 C 0.70503 0.95571 0.39894 0.0
O28 O 0.71008 0.93961 0.3483 0.0
C29 C 0.78174 0.96209 0.22066 0.0
C30 C 0.87249 0.97622 0.11292 0.0
O31 O 0.87079 0.95337 0.13461 0.0
O32 O 0.86072 0.9929 0.14693 0.0
O33 O 0.52497 0.76388 0.23881 0.0
Cd34 Cd 0.51788 0.80684 0.27691 0.0
O35 O 0.48997 0.75336 0.28856 0.0
Cd36 Cd 0.46068 0.72737 0.32079 0.0
O37 O 0.42401 0.70637 0.33738 0.0
C38 C 0.42034 0.68691 0.37728 0.0
O39 O 0.42329 0.70668 0.33614 0.0
C40 C 0.50876 0.74723 0.25311 0.0
C41 C 0.50707 0.83917 0.1586 0.0
O42 O 0.5296 0.83636 0.18483 0.0
O43 O 0.48964 0.82661 0.18815 0.0
O44 O 0.27365 0.52363 0.16253 0.0
Cd45 Cd 0.31391 0.52142 0.1074 0.0
O46 O 0.27041 0.48597 0.11809 0.0
Cd47 Cd 0.24916 0.45316 0.08169 0.0
O48 O 0.21542 0.44398 0.01691 0.0
C49 C 0.20708 0.46249 0.97909 0.0
O50 O 0.21958 0.48379 0.98202 0.0
C51 C 0.2611 0.50351 0.15413 0.0
C52 C 0.34915 0.50714 0.21573 0.0
O53 O 0.34709 0.53011 0.19513 0.0
O54 O 0.33494 0.49078 0.18386 0.0
O55 O 0.02194 0.26969 0.14735 0.0
Cd56 Cd 0.01704 0.31292 0.10531 0.0
O57 O 0.04427 0.2618 0.05362 0.0
Cd58 Cd 0.0613 0.23605 0.97976 0.0
O59 O 0.06761 0.2024 0.91819 0.0
C60 C 0.07257 0.20324 0.85127 0.0
O61 O 0.07498 0.22513 0.81866 0.0
C62 C 0.03412 0.25424 0.11123 0.0
C63 C 0.00526 0.3432 0.2205 0.0
O64 O 0.98805 0.33148 0.18324 0.0
O65 O 0.02799 0.34075 0.20275 0.0
O66 O 0.2499 0.11175 0.20697 0.0
Cd67 Cd 0.20694 0.12545 0.18138 0.0
O68 O 0.26463 0.13213 0.11327 0.0
Cd69 Cd 0.29559 0.13824 0.04188 0.0
O70 O 0.32911 0.12943 0.98488 0.0
C71 C 0.32966 0.13304 0.91647 0.0
O72 O 0.31015 0.14317 0.88122 0.0
C73 C 0.26816 0.11774 0.16855 0.0
C74 C 0.17524 0.09043 0.24356 0.0
O75 O 0.18153 0.08832 0.17749 0.0
O76 O 0.18347 0.10944 0.27958 0.0
O77 O 0.55401 0.25464 0.13791 0.0
Cd78 Cd 0.55617 0.21029 0.10699 0.0
O79 O 0.52746 0.26291 0.04585 0.0
Cd80 Cd 0.49995 0.28505 0.98044 0.0
O81 O 0.46265 0.28408 0.91415 0.0
C82 C 0.45867 0.29432 0.85124 0.0
O83 O 0.46174 0.28353 0.91521 0.0
C84 C 0.54067 0.27036 0.10101 0.0
C85 C 0.55235 0.17944 0.23001 0.0
O86 O 0.57311 0.1901 0.21549 0.0
O87 O 0.53325 0.18321 0.1862 0.0
Eu88 Eu 0.00619 1.00106 0.5494 0.0
Eu89 Eu 0.0402 0.97839 0.69004 0.0
C90 C 0.03971 0.037 0.65187 0.0
C91 C 0.99141 0.04278 0.38908 0.0
C92 C 0.01664 0.0504 0.39368 0.0
C93 C 0.98215 0.07658 0.30238 0.0
C94 C 0.02454 0.07112 0.35352 0.0
C95 C 0.97425 0.05581 0.34276 0.0
C96 C 0.00734 0.08466 0.30804 0.0
C97 C 0.9829 0.02256 0.43709 0.0
O98 O 0.99986 0.97288 0.71438 0.0
O99 O 0.98411 0.00642 0.64956 0.0
C100 C 0.98274 0.99008 0.70325 0.0
O101 O 0.9933 0.96104 0.55881 0.0
O102 O 0.04943 0.97874 0.80703 0.0
O103 O 0.06749 0.95211 0.73932 0.0
O104 O 0.02922 0.94594 0.6179 0.0
C105 C 0.00805 0.94239 0.57953 0.0
O106 O 0.04219 0.98618 0.50885 0.0
O107 O 0.06797 0.99247 0.61038 0.0
O108 O 0.03827 0.02024 0.7046 0.0
O109 O 0.99472 1.00136 0.43347 0.0
O110 O 0.98006 0.02911 0.50427 0.0
O111 O 0.03329 0.03148 0.58412 0.0
C112 C 0.05414 0.93803 0.85313 0.0
C113 C 0.03229 0.92463 0.83236 0.0
C114 C 0.05663 0.91497 0.96822 0.0
C115 C 0.02261 0.90662 0.87916 0.0
C116 C 0.06631 0.93309 0.92118 0.0
C117 C 0.03459 0.9016 0.94781 0.0
C118 C 0.06274 0.95839 0.80574 0.0
C119 C 0.06452 0.99043 0.53936 0.0
H120 H 0.03012 0.04068 0.42981 0.0
H121 H 0.96851 0.08644 0.26722 0.0
H122 H 0.04396 0.07703 0.36009 0.0
H123 H 0.95469 0.05023 0.33891 0.0
H124 H 0.02243 0.92846 0.78036 0.0
H125 H 0.0664 0.91139 0.02045 0.0
H126 H 0.00537 0.89706 0.86219 0.0
H127 H 0.08306 0.94345 0.93828 0.0
Eu128 Eu 0.5276 0.02384 0.76354 0.0
Eu129 Eu 0.49209 1.00027 0.62852 0.0
C130 C 0.50184 0.97075 0.77897 0.0
C131 C 0.57623 0.02552 0.9198 0.0
C132 C 0.57659 0.99933 0.92818 0.0
C133 C 0.61657 0.02799 0.98661 0.0
C134 C 0.59686 0.98755 0.96515 0.0
C135 C 0.59621 0.03977 0.94987 0.0
C136 C 0.61728 1.0017 0.99389 0.0
C137 C 0.55594 0.03788 0.87594 0.0
O138 O 0.47271 0.03491 0.66214 0.0
O139 O 0.48776 0.03578 0.781 0.0
C140 C 0.47125 0.04264 0.7291 0.0
O141 O 0.52444 0.0556 0.68228 0.0
O142 O 0.45579 0.98518 0.59067 0.0
O143 O 0.48618 0.987 0.51698 0.0
O144 O 0.51233 0.03328 0.57941 0.0
C145 C 0.52114 0.05375 0.61107 0.0
O146 O 0.55373 0.00781 0.68392 0.0
O147 O 0.52772 0.97816 0.63082 0.0
O148 O 0.48429 0.9783 0.73126 0.0
O149 O 0.56087 0.04334 0.80867 0.0
O150 O 0.53353 0.02829 0.88102 0.0
O151 O 0.52328 0.98268 0.78532 0.0
C152 C 0.44508 0.99609 0.46799 0.0
C153 C 0.45437 0.01014 0.40972 0.0
C154 C 0.40289 0.00927 0.43009 0.0
C155 C 0.43808 0.02391 0.36277 0.0
C156 C 0.41913 0.99532 0.47646 0.0
C157 C 0.41218 0.02407 0.37331 0.0
C158 C 0.46213 0.98367 0.52312 0.0
C159 C 0.55018 0.9877 0.64411 0.0
H160 H 0.5614 0.98794 0.90505 0.0
H161 H 0.63213 0.03945 0.00705 0.0
H162 H 0.59663 0.96732 0.97054 0.0
H163 H 0.59634 0.05998 0.94339 0.0
H164 H 0.47428 0.01101 0.40126 0.0
H165 H 0.38315 0.00916 0.44079 0.0
H166 H 0.44586 0.03471 0.31885 0.0
H167 H 0.41142 0.98459 0.5207 0.0
Eu168 Eu 0.50747 0.51204 0.74904 0.0
Eu169 Eu 0.54376 0.50208 0.61222 0.0
C170 C 0.56535 0.52504 0.75999 0.0
C171 C 0.48754 0.54591 0.91137 0.0
C172 C 0.50552 0.56402 0.89395 0.0
C173 C 0.47907 0.56899 0.02041 0.0
C174 C 0.51064 0.58412 0.94001 0.0
C175 C 0.47417 0.54856 0.97452 0.0
C176 C 0.49768 0.58669 0.00404 0.0
C177 C 0.48415 0.52379 0.86514 0.0
O178 O 0.52839 0.46457 0.64493 0.0
O179 O 0.52223 0.47271 0.76446 0.0
C180 C 0.52489 0.45678 0.71164 0.0
O181 O 0.48166 0.49218 0.66764 0.0
O182 O 0.57571 0.4828 0.57019 0.0
O183 O 0.55382 0.5079 0.49932 0.0
O184 O 0.50391 0.50178 0.56642 0.0
C185 C 0.4832 0.4946 0.59662 0.0
O186 O 0.50124 0.54392 0.66905 0.0
O187 O 0.53851 0.54406 0.61205 0.0
O188 O 0.56903 0.50736 0.71317 0.0
O189 O 0.47503 0.52806 0.79884 0.0
O190 O 0.50345 0.50893 0.86636 0.0
O191 O 0.54303 0.53419 0.7667 0.0
C192 C 0.56719 0.47042 0.44939 0.0
C193 C 0.54901 0.45178 0.45963 0.0
C194 C 0.57807 0.45042 0.33739 0.0
C195 C 0.54562 0.43241 0.40987 0.0
C196 C 0.58161 0.46977 0.38778 0.0
C197 C 0.5602 0.43141 0.34844 0.0
C198 C 0.57074 0.49041 0.50317 0.0
C199 C 0.51735 0.5549 0.62703 0.0
H200 H 0.51587 0.56243 0.84511 0.0
H201 H 0.46883 0.57062 0.06952 0.0
H202 H 0.52474 0.59773 0.92547 0.0
H203 H 0.46027 0.5347 0.9888 0.0
H204 H 0.53746 0.45217 0.50636 0.0
H205 H 0.58964 0.45003 0.29066 0.0
H206 H 0.53145 0.41827 0.41924 0.0
H207 H 0.59563 0.4841 0.37892 0.0
Eu208 Eu 0.01292 0.52522 0.6104 0.0
Eu209 Eu 0.98545 0.49796 0.74815 0.0
C210 C 0.0437 0.49269 0.73227 0.0
C211 C 0.05938 0.53691 0.46488 0.0
C212 C 0.07475 0.51768 0.49403 0.0
C213 C 0.08626 0.54124 0.36271 0.0
C214 C 0.09579 0.5103 0.45782 0.0
C215 C 0.06522 0.54865 0.39913 0.0
C216 C 0.10176 0.52192 0.39155 0.0
C217 C 0.03694 0.54427 0.50204 0.0
O218 O 0.99989 0.53578 0.78611 0.0
O219 O 0.99923 0.55676 0.67659 0.0
C220 C 0.99835 0.55675 0.74782 0.0
O221 O 0.97107 0.52675 0.58162 0.0
O222 O 0.98561 0.4894 0.86487 0.0
O223 O 0.95486 0.47654 0.79308 0.0
O224 O 0.95718 0.52435 0.69777 0.0
C225 C 0.95343 0.52969 0.62828 0.0
O226 O 0.01364 0.48388 0.59155 0.0
O227 O 0.97855 0.47281 0.65104 0.0
O228 O 0.02313 0.48029 0.745 0.0
O229 O 0.0177 0.52921 0.4935 0.0
O230 O 0.04067 0.55132 0.56959 0.0
O231 O 0.04307 0.51406 0.69572 0.0
C232 C 0.94493 0.49266 0.9057 0.0
C233 C 0.93524 0.51601 0.88332 0.0
C234 C 0.91901 0.49306 0.01038 0.0
C235 C 0.91709 0.52752 0.92291 0.0
C236 C 0.93702 0.48136 0.96992 0.0
C237 C 0.90854 0.51613 0.98669 0.0
C238 C 0.96286 0.48026 0.86049 0.0
C239 C 0.99495 0.46843 0.60189 0.0
H240 H 0.07044 0.50837 0.54478 0.0
H241 H 0.09014 0.55037 0.31141 0.0
H242 H 0.10751 0.49564 0.48219 0.0
H243 H 0.05342 0.56342 0.3757 0.0
H244 H 0.9413 0.52513 0.83412 0.0
H245 H 0.91316 0.48393 0.05979 0.0
H246 H 0.90922 0.54496 0.90191 0.0
H247 H 0.94452 0.46342 0.98827 0.0
H248 H 0.16007 0.08899 0.38408 0.0
H249 H 0.15468 0.04832 0.18057 0.0
H250 H 0.12879 0.01589 0.2383 0.0
H251 H 0.16395 0.03487 0.50513 0.0
H252 H 0.14503 0.04864 0.57234 0.0
H253 H 0.16377 0.06838 0.51588 0.0
H254 H 0.12421 0.09356 0.47224 0.0
H255 H 0.10566 0.07416 0.52988 0.0
H256 H 0.0972 0.07703 0.43382 0.0
H257 H 0.10128 0.98945 0.31551 0.0
H258 H 0.07349 0.97134 0.40659 0.0
H259 H 0.09849 0.02807 0.56106 0.0
C260 C 0.15354 0.07323 0.35165 0.0
C261 C 0.15943 0.07117 0.2778 0.0
C262 C 0.15042 0.05029 0.23725 0.0
C263 C 0.13578 0.03172 0.26962 0.0
C264 C 0.13044 0.03426 0.34264 0.0
C265 C 0.13899 0.0545 0.38313 0.0
C266 C 0.12989 0.05322 0.45989 0.0
C267 C 0.15198 0.05115 0.51665 0.0
C268 C 0.11325 0.07583 0.47477 0.0
C269 C 0.11475 0.02916 0.45611 0.0
C270 C 0.11528 0.01852 0.38795 0.0
C271 C 0.10108 0.99733 0.36948 0.0
C272 C 0.08545 0.98712 0.42147 0.0
C273 C 0.08445 0.99795 0.49116 0.0
C274 C 0.09969 0.01888 0.50911 0.0
H275 H 0.51977 0.14035 0.25168 0.0
H276 H 0.5812 0.18227 0.3563 0.0
H277 H 0.57862 0.15568 0.46694 0.0
H278 H 0.48423 0.12877 0.41211 0.0
H279 H 0.4755 0.09729 0.38659 0.0
H280 H 0.4811 0.12055 0.31713 0.0
H281 H 0.51417 0.09176 0.26343 0.0
H282 H 0.50861 0.06847 0.33278 0.0
H283 H 0.5399 0.08032 0.32174 0.0
H284 H 0.56904 0.12518 0.56645 0.0
H285 H 0.55571 0.09012 0.64495 0.0
H286 H 0.50252 0.06592 0.47296 0.0
C287 C 0.53251 0.14402 0.29819 0.0
C288 C 0.55056 0.16347 0.29588 0.0
C289 C 0.56724 0.16746 0.35711 0.0
C290 C 0.56584 0.15254 0.42021 0.0
C291 C 0.5479 0.13348 0.42076 0.0
C292 C 0.53171 0.12894 0.36113 0.0
C293 C 0.51516 0.10632 0.37461 0.0
C294 C 0.48735 0.11368 0.3725 0.0
C295 C 0.51975 0.08548 0.3199 0.0
C296 C 0.52458 0.0989 0.45111 0.0
C297 C 0.54321 0.11504 0.47702 0.0
C298 C 0.55454 0.11233 0.54671 0.0
C299 C 0.54679 0.09243 0.59096 0.0
C300 C 0.52819 0.07528 0.56489 0.0
C301 C 0.51694 0.07864 0.49406 0.0
H302 H 0.39354 0.52983 0.25401 0.0
H303 H 0.34478 0.46832 0.31298 0.0
H304 H 0.37362 0.45805 0.41913 0.0
H305 H 0.4515 0.49695 0.3 0.0
H306 H 0.46756 0.52479 0.33226 0.0
H307 H 0.44287 0.52718 0.26199 0.0
H308 H 0.41945 0.55855 0.34076 0.0
H309 H 0.44422 0.55615 0.41069 0.0
H310 H 0.41227 0.54971 0.43258 0.0
H311 H 0.40677 0.45678 0.52431 0.0
H312 H 0.44394 0.46149 0.61038 0.0
H313 H 0.47165 0.52165 0.47454 0.0
C314 C 0.38898 0.51417 0.28923 0.0
C315 C 0.36696 0.49994 0.27602 0.0
C316 C 0.36169 0.47937 0.32243 0.0
C317 C 0.37786 0.4735 0.38288 0.0
C318 C 0.39937 0.48811 0.39493 0.0
C319 C 0.40514 0.50773 0.34853 0.0
C320 C 0.42977 0.52002 0.37163 0.0
C321 C 0.44906 0.51704 0.31299 0.0
C322 C 0.42618 0.54774 0.39002 0.0
C323 C 0.43673 0.5046 0.43912 0.0
C324 C 0.41893 0.48642 0.45239 0.0
C325 C 0.421 0.47073 0.51391 0.0
C326 C 0.44201 0.47357 0.56255 0.0
C327 C 0.46066 0.49165 0.5482 0.0
C328 C 0.45786 0.50732 0.48592 0.0
H329 H 0.03584 0.37703 0.29244 0.0
H330 H 0.96067 0.34544 0.28743 0.0
H331 H 0.95044 0.37224 0.39041 0.0
H332 H 0.0442 0.38337 0.4886 0.0
H333 H 0.06082 0.41277 0.48222 0.0
H334 H 0.06258 0.39009 0.41093 0.0
H335 H 0.04702 0.42338 0.3151 0.0
H336 H 0.04533 0.44613 0.38606 0.0
H337 H 0.01803 0.43947 0.32753 0.0
H338 H 0.94831 0.40325 0.4929 0.0
H339 H 0.95368 0.43783 0.58092 0.0
H340 H 0.0299 0.44931 0.51531 0.0
C341 C 0.01728 0.37557 0.31335 0.0
C342 C 0.99908 0.35907 0.28225 0.0
C343 C 0.97491 0.35797 0.31053 0.0
C344 C 0.96896 0.37303 0.36916 0.0
C345 C 0.98736 0.38913 0.39854 0.0
C346 C 0.01098 0.3906 0.37124 0.0
C347 C 0.027 0.41027 0.40996 0.0
C348 C 0.05001 0.39841 0.45033 0.0
C349 C 0.03479 0.43104 0.35647 0.0
C350 C 0.00864 0.41981 0.46286 0.0
C351 C 0.98596 0.40724 0.45616 0.0
C352 C 0.96602 0.41318 0.49879 0.0
C353 C 0.96926 0.43277 0.54875 0.0
C354 C 0.99217 0.44627 0.55487 0.0
C355 C 0.01212 0.43939 0.51189 0.0
H356 H 0.90722 0.94779 0.04765 0.0
H357 H 0.87039 0.02003 0.03396 0.0
H358 H 0.89329 0.03082 0.92412 0.0
H359 H 0.96746 0.97029 0.99421 0.0
H360 H 0.97394 0.94258 0.94363 0.0
H361 H 0.95426 0.9405 0.02023 0.0
H362 H 0.91897 0.92047 0.93751 0.0
H363 H 0.93853 0.92272 0.86062 0.0
H364 H 0.90787 0.9367 0.85542 0.0
H365 H 0.91962 0.03336 0.8143 0.0
H366 H 0.9502 0.02891 0.71878 0.0
H367 H 0.97058 0.95555 0.80727 0.0
C368 C 0.90397 0.96587 0.02153 0.0
C369 C 0.88696 0.98304 0.04906 0.0
C370 C 0.88338 0.00661 0.0138 0.0
C371 C 0.89621 0.01287 0.95124 0.0
C372 C 0.91268 0.99543 0.92512 0.0
C373 C 0.91683 0.97253 0.95963 0.0
C374 C 0.93611 0.95746 0.92185 0.0
C375 C 0.95931 0.95243 0.97302 0.0
C376 C 0.92467 0.93289 0.89208 0.0
C377 C 0.9421 0.97544 0.86064 0.0
C378 C 0.92826 0.99714 0.86301 0.0
C379 C 0.93061 0.01647 0.81192 0.0
C380 C 0.94793 0.01373 0.7577 0.0
C381 C 0.96277 0.99191 0.75558 0.0
C382 C 0.95953 0.97248 0.8074 0.0
H383 H 0.53909 0.87237 0.09547 0.0
H384 H 0.46207 0.84564 0.0821 0.0
H385 H 0.45245 0.87535 0.98014 0.0
H386 H 0.52518 0.93682 0.06172 0.0
H387 H 0.55219 0.9426 0.00882 0.0
H388 H 0.55318 0.91855 0.07861 0.0
H389 H 0.56529 0.88585 0.98365 0.0
H390 H 0.56436 0.90987 0.91367 0.0
H391 H 0.54563 0.88186 0.90175 0.0
H392 H 0.45117 0.90879 0.88051 0.0
H393 H 0.4582 0.94387 0.7941 0.0
H394 H 0.53592 0.94845 0.87481 0.0
C395 C 0.52023 0.87262 0.07086 0.0
C396 C 0.50135 0.85661 0.09662 0.0
C397 C 0.47685 0.85771 0.06324 0.0
C398 C 0.47122 0.87449 0.00522 0.0
C399 C 0.49026 0.89008 0.98134 0.0
C400 C 0.51426 0.88931 0.01327 0.0
C401 C 0.53119 0.9085 0.97898 0.0
C402 C 0.541 0.92775 0.0354 0.0
C403 C 0.5529 0.89575 0.94233 0.0
C404 C 0.51295 0.92027 0.92305 0.0
C405 C 0.48946 0.90936 0.92484 0.0
C406 C 0.46952 0.91744 0.87854 0.0
C407 C 0.47368 0.93734 0.82959 0.0
C408 C 0.49757 0.94897 0.8277 0.0
C409 C 0.5174 0.94007 0.87484 0.0
H410 H 0.64399 0.63321 0.96155 0.0
H411 H 0.69543 0.57613 0.04578 0.0
H412 H 0.66941 0.54345 0.98363 0.0
H413 H 0.587 0.59438 0.98384 0.0
H414 H 0.57132 0.6077 0.90327 0.0
H415 H 0.59378 0.62615 0.95624 0.0
H416 H 0.61848 0.63425 0.8399 0.0
H417 H 0.5963 0.61543 0.78723 0.0
H418 H 0.62918 0.60798 0.78954 0.0
H419 H 0.64035 0.51792 0.90048 0.0
H420 H 0.60631 0.50028 0.81918 0.0
H421 H 0.57161 0.57342 0.80109 0.0
C422 C 0.6495 0.61377 0.9675 0.0
C423 C 0.67162 0.60701 0.00786 0.0
C424 C 0.67837 0.58149 0.01522 0.0
C425 C 0.66382 0.56289 0.9799 0.0
C426 C 0.64228 0.57016 0.93929 0.0
C427 C 0.63474 0.5949 0.93468 0.0
C428 C 0.61043 0.59763 0.88931 0.0
C429 C 0.58939 0.60701 0.93597 0.0
C430 C 0.61382 0.61484 0.82254 0.0
C431 C 0.60597 0.57073 0.86707 0.0
C432 C 0.62466 0.55518 0.89574 0.0
C433 C 0.62534 0.5298 0.8788 0.0
C434 C 0.60612 0.52 0.8323 0.0
C435 C 0.5864 0.5355 0.80473 0.0
C436 C 0.58637 0.56113 0.82239 0.0
H437 H 0.94563 0.63758 0.068 0.0
H438 H 0.92774 0.69479 0.90362 0.0
H439 H 0.94864 0.67006 0.81207 0.0
H440 H 0.00613 0.61962 0.00594 0.0
H441 H 1.00133 0.58663 0.02284 0.0
H442 H 0.98627 0.60936 0.07722 0.0
H443 H 0.94268 0.58966 0.04232 0.0
H444 H 0.95787 0.5666 0.98954 0.0
H445 H 0.93353 0.58585 0.9471 0.0
H446 H 0.97115 0.63944 0.73859 0.0
H447 H 0.98921 0.60243 0.68325 0.0
H448 H 0.99087 0.56382 0.89346 0.0
C449 C 0.94629 0.64492 0.01281 0.0
C450 C 0.93528 0.66815 0.99283 0.0
C451 C 0.93604 0.67699 0.91989 0.0
C452 C 0.94804 0.66319 0.86771 0.0
C453 C 0.95891 0.64046 0.88918 0.0
C454 C 0.95781 0.63115 0.95959 0.0
C455 C 0.96936 0.60532 0.96674 0.0
C456 C 0.99213 0.60524 0.02144 0.0
C457 C 0.9497 0.58569 0.98774 0.0
C458 C 0.97717 0.60165 0.88943 0.0
C459 C 0.97124 0.62231 0.84593 0.0
C460 C 0.97593 0.62315 0.77206 0.0
C461 C 0.98628 0.60201 0.7412 0.0
C462 C 0.99155 0.58018 0.78394 0.0
C463 C 0.98734 0.58027 0.8594 0.0
H464 H 0.99799 0.22775 0.17884 0.0
H465 H 0.07261 0.22096 0.09908 0.0
H466 H 0.07311 0.17614 0.13479 0.0
H467 H 0.00895 0.18834 0.3368 0.0
H468 H 0.9778 0.17507 0.3323 0.0
H469 H 0.98305 0.20623 0.29725 0.0
H470 H 0.96268 0.1934 0.1719 0.0
H471 H 0.95749 0.16215 0.20647 0.0
H472 H 0.97477 0.16688 0.12556 0.0
H473 H 0.06553 0.1321 0.18134 0.0
H474 H 0.05108 0.09273 0.23842 0.0
H475 H 0.98214 0.12913 0.29204 0.0
C476 C 0.01441 0.2168 0.16872 0.0
C477 C 0.03494 0.22759 0.13401 0.0
C478 C 0.05623 0.21278 0.12257 0.0
C479 C 0.05679 0.18739 0.14349 0.0
C480 C 0.03603 0.17722 0.17646 0.0
C481 C 0.0153 0.19151 0.18944 0.0
C482 C 0.99571 0.17632 0.22756 0.0
C483 C 0.99112 0.18713 0.30295 0.0
C484 C 0.97121 0.17459 0.18001 0.0
C485 C 0.00866 0.15124 0.23427 0.0
C486 C 0.03186 0.15209 0.20431 0.0
C487 C 0.0474 0.13123 0.20502 0.0
C488 C 0.03908 0.10899 0.23783 0.0
C489 C 0.01545 0.10779 0.26962 0.0
C490 C 1.00009 0.12925 0.26718 0.0
H491 H 0.27894 0.07 0.21287 0.0
H492 H 0.31333 0.14208 0.16894 0.0
H493 H 0.35501 0.12469 0.20518 0.0
H494 H 0.31552 0.05494 0.37035 0.0
H495 H 0.31779 0.022 0.35164 0.0
H496 H 0.29117 0.03949 0.31571 0.0
H497 H 0.30016 0.02565 0.18483 0.0
H498 H 0.32684 0.00806 0.22043 0.0
H499 H 0.33065 0.03151 0.15016 0.0
H500 H 0.39205 0.10057 0.25793 0.0
H501 H 0.42173 0.07163 0.32183 0.0
H502 H 0.36342 0.01451 0.32516 0.0
C503 C 0.29533 0.08199 0.2101 0.0
C504 C 0.29312 0.10722 0.18706 0.0
C505 C 0.31482 0.1225 0.18467 0.0
C506 C 0.3385 0.11282 0.20544 0.0
C507 C 0.34008 0.0878 0.2279 0.0
C508 C 0.31909 0.07254 0.22982 0.0
C509 C 0.3257 0.04664 0.25895 0.0
C510 C 0.31172 0.04042 0.32827 0.0
C511 C 0.32053 0.0268 0.20006 0.0
C512 C 0.35353 0.05 0.27581 0.0
C513 C 0.36152 0.07378 0.25693 0.0
C514 C 0.38613 0.08173 0.27167 0.0
C515 C 0.40292 0.06505 0.30764 0.0
C516 C 0.39504 0.04065 0.3284 0.0
C517 C 0.37009 0.03302 0.31066 0.0
H518 H 0.54406 0.28805 0.23939 0.0
H519 H 0.53883 0.31208 0.01251 0.0
H520 H 0.54373 0.35624 0.05085 0.0
H521 H 0.50872 0.33984 0.30951 0.0
H522 H 0.52807 0.34153 0.39271 0.0
H523 H 0.52373 0.31205 0.34701 0.0
H524 H 0.57191 0.30762 0.34225 0.0
H525 H 0.57639 0.33717 0.38735 0.0
H526 H 0.58978 0.33224 0.30058 0.0
H527 H 0.55001 0.39783 0.11424 0.0
H528 H 0.55658 0.43339 0.19865 0.0
H529 H 0.55654 0.38166 0.38304 0.0
C530 C 0.54349 0.30268 0.19782 0.0
C531 C 0.54079 0.29679 0.12313 0.0
C532 C 0.5403 0.31631 0.07011 0.0
C533 C 0.5431 0.34139 0.09128 0.0
C534 C 0.54573 0.34659 0.1655 0.0
C535 C 0.54569 0.32777 0.21796 0.0
C536 C 0.54912 0.33819 0.29403 0.0
C537 C 0.52603 0.33257 0.33841 0.0
C538 C 0.57324 0.32821 0.33333 0.0
C539 C 0.55134 0.36583 0.27625 0.0
C540 C 0.54944 0.37036 0.20186 0.0
C541 C 0.55144 0.39451 0.17261 0.0
C542 C 0.5553 0.41455 0.22082 0.0
C543 C 0.55693 0.41026 0.29725 0.0
C544 C 0.55501 0.38554 0.3249 0.0
H545 H 0.22796 0.54079 0.18058 0.0
H546 H 0.23875 0.46055 0.20257 0.0
H547 H 0.19775 0.45621 0.25722 0.0
H548 H 0.20139 0.54817 0.35148 0.0
H549 H 0.17948 0.57201 0.3203 0.0
H550 H 0.20851 0.56854 0.27601 0.0
H551 H 0.18397 0.56328 0.15157 0.0
H552 H 0.15482 0.56674 0.19549 0.0
H553 H 0.16004 0.53939 0.14201 0.0
H554 H 0.15663 0.46079 0.31527 0.0
H555 H 0.1186 0.47404 0.37462 0.0
H556 H 0.13555 0.55163 0.32119 0.0
C557 C 0.22151 0.52227 0.196 0.0
C558 C 0.23612 0.50087 0.18468 0.0
C559 C 0.22733 0.47703 0.2071 0.0
C560 C 0.20418 0.47442 0.23917 0.0
C561 C 0.19016 0.49587 0.24914 0.0
C562 C 0.19849 0.51936 0.22842 0.0
C563 C 0.18043 0.53953 0.24886 0.0
C564 C 0.19322 0.55815 0.30235 0.0
C565 C 0.16915 0.55302 0.1804 0.0
C566 C 0.16089 0.52374 0.28546 0.0
C567 C 0.16676 0.4986 0.28451 0.0
C568 C 0.15181 0.48043 0.31631 0.0
C569 C 0.13035 0.48817 0.3504 0.0
C570 C 0.12409 0.51389 0.35292 0.0
C571 C 0.13958 0.53181 0.31942 0.0
H572 H 0.96065 0.77661 0.04764 0.0
H573 H 0.9612 0.80152 0.27116 0.0
H574 H 0.98657 0.83881 0.23782 0.0
H575 H 0.02345 0.79699 0.00913 0.0
H576 H 0.01468 0.8066 0.91684 0.0
H577 H 0.99784 0.78154 0.95975 0.0
H578 H 0.95611 0.80526 0.93319 0.0
H579 H 0.97285 0.83036 0.89029 0.0
H580 H 0.95321 0.8369 0.9646 0.0
H581 H 0.01054 0.8741 0.17778 0.0
H582 H 0.03047 0.90473 0.09616 0.0
H583 H 0.01383 0.85598 0.91244 0.0
C584 C 0.96626 0.78985 0.0897 0.0
C585 C 0.95968 0.78599 0.16251 0.0
C586 C 0.96705 0.80377 0.21588 0.0
C587 C 0.98114 0.82505 0.19721 0.0
C588 C 0.98755 0.82819 0.12489 0.0
C589 C 0.9803 0.81105 0.072 0.0
C590 C 0.98891 0.81898 0.99786 0.0
C591 C 0.00732 0.79989 0.96924 0.0
C592 C 0.96643 0.82312 0.9433 0.0
C593 C 1.00195 0.84342 0.01696 0.0
C594 C 1.00108 0.84843 0.09045 0.0
C595 C 0.01148 0.87026 0.12025 0.0
C596 C 0.0229 0.88748 0.07354 0.0
C597 C 0.02376 0.88277 0.99788 0.0
C598 C 0.01329 0.86029 0.96982 0.0
H599 H 0.74267 0.99309 0.24641 0.0
H600 H 0.76312 0.92944 0.11861 0.0
H601 H 0.72116 0.92996 0.05504 0.0
H602 H 0.67501 0.97587 0.26135 0.0
H603 H 0.66536 0.00808 0.25249 0.0
H604 H 0.69556 1.00056 0.29497 0.0
H605 H 0.71693 0.03002 0.20337 0.0
H606 H 0.6869 0.03755 0.16019 0.0
H607 H 0.71129 0.02531 0.10681 0.0
H608 H 0.67893 0.93995 0.99751 0.0
H609 H 0.63975 0.95917 0.94793 0.0
H610 H 0.6464 0.01611 0.11455 0.0
C611 C 0.73793 0.97859 0.20739 0.0
C612 C 0.75583 0.96075 0.18882 0.0
C613 C 0.74949 0.94303 0.1342 0.0
C614 C 0.7257 0.94312 0.0981 0.0
C615 C 0.70853 0.96111 0.11718 0.0
C616 C 0.71429 0.97848 0.17075 0.0
C617 C 0.69338 0.9973 0.17603 0.0
C618 C 0.68163 0.99531 0.25065 0.0
C619 C 0.70269 0.02412 0.16066 0.0
C620 C 0.67532 0.98825 0.11558 0.0
C621 C 0.68425 0.96716 0.08305 0.0
C622 C 0.67152 0.9562 0.02337 0.0
C623 C 0.6492 0.96722 0.99578 0.0
C624 C 0.63984 0.98908 0.02756 0.0
C625 C 0.65304 0.99946 0.08887 0.0
H626 H 0.47201 0.71464 0.203 0.0
H627 H 0.55246 0.72214 0.24137 0.0
H628 H 0.55809 0.67988 0.19156 0.0
H629 H 0.46765 0.64617 0.24543 0.0
H630 H 0.4437 0.64154 0.17417 0.0
H631 H 0.44603 0.67105 0.22054 0.0
H632 H 0.44925 0.69391 0.09566 0.0
H633 H 0.44735 0.66439 0.04956 0.0
H634 H 0.47354 0.68516 0.03646 0.0
H635 H 0.55525 0.63874 0.12866 0.0
H636 H 0.54413 0.60134 0.05579 0.0
H637 H 0.46539 0.62006 0.06065 0.0
C638 C 0.49071 0.707 0.20373 0.0
C639 C 0.51178 0.72134 0.22791 0.0
C640 C 0.53609 0.71129 0.22375 0.0
C641 C 0.53944 0.6873 0.19597 0.0
C642 C 0.51828 0.67362 0.17257 0.0
C643 C 0.49436 0.68303 0.17637 0.0
C644 C 0.47493 0.66534 0.14214 0.0
C645 C 0.45703 0.65545 0.19902 0.0
C646 C 0.46043 0.67796 0.0771 0.0
C647 C 0.49171 0.64473 0.11733 0.0
C648 C 0.51663 0.64982 0.13583 0.0
C649 C 0.53579 0.63437 0.11479 0.0
C650 C 0.52932 0.61327 0.07322 0.0
C651 C 0.50392 0.60782 0.05319 0.0
C652 C 0.4849 0.62357 0.07651 0.0
H653 H 0.81654 0.62725 0.074 0.0
H654 H 0.76424 0.57002 0.14159 0.0
H655 H 0.79648 0.53774 0.1307 0.0
H656 H 0.84331 0.59192 0.93886 0.0
H657 H 0.87485 0.60351 0.95553 0.0
H658 H 0.84867 0.62261 0.9767 0.0
H659 H 0.86678 0.62649 0.10993 0.0
H660 H 0.89297 0.6073 0.08873 0.0
H661 H 0.87377 0.59851 0.16303 0.0
H662 H 0.83247 0.51124 0.10114 0.0
H663 H 0.86961 0.49211 0.05133 0.0
H664 H 0.89951 0.56628 0.0064 0.0
C665 C 0.81212 0.60796 0.08755 0.0
C666 C 0.78822 0.60116 0.1109 0.0
C667 C 0.78279 0.57571 0.12651 0.0
C668 C 0.80092 0.55722 0.12009 0.0
C669 C 0.82442 0.56448 0.09777 0.0
C670 C 0.83014 0.58922 0.08177 0.0
C671 C 0.85632 0.59164 0.05425 0.0
C672 C 0.85573 0.60308 0.97673 0.0
C673 C 0.87347 0.60688 0.10717 0.0
C674 C 0.8639 0.56434 0.05464 0.0
C675 C 0.84537 0.54904 0.08082 0.0
C676 C 0.84736 0.52303 0.08176 0.0
C677 C 0.86866 0.51233 0.05373 0.0
C678 C 0.8877 0.52762 0.02505 0.0
C679 C 0.88538 0.55399 0.02741 0.0
H680 H 0.06585 0.15538 0.90226 0.0
H681 H 0.07974 0.19817 0.70527 0.0
H682 H 0.07623 0.15933 0.6337 0.0
H683 H 0.09903 0.09805 0.85284 0.0
H684 H 0.07625 0.07791 0.89368 0.0
H685 H 0.08272 0.10858 0.93021 0.0
H686 H 0.03552 0.11936 0.91434 0.0
H687 H 0.02892 0.08886 0.87735 0.0
H688 H 0.01963 0.11653 0.82573 0.0
H689 H 0.06704 0.11666 0.58221 0.0
H690 H 0.05375 0.07328 0.55502 0.0
H691 H 0.04606 0.05858 0.78616 0.0
C692 C 0.06864 0.15658 0.84428 0.0
C693 C 0.0731 0.17982 0.80934 0.0
C694 C 0.07638 0.18056 0.73325 0.0
C695 C 0.07446 0.1586 0.69216 0.0
C696 C 0.06944 0.13609 0.72814 0.0
C697 C 0.06679 0.1349 0.8026 0.0
C698 C 0.05994 0.10871 0.82753 0.0
C699 C 0.08073 0.09766 0.87911 0.0
C700 C 0.03449 0.10836 0.86331 0.0
C701 C 0.05841 0.09547 0.75513 0.0
C702 C 0.06418 0.11151 0.69853 0.0
C703 C 0.06276 0.10386 0.62618 0.0
C704 C 0.05506 0.07922 0.6113 0.0
C705 C 0.04887 0.06255 0.66854 0.0
C706 C 0.0509 0.07079 0.74134 0.0
H707 H 0.37118 0.10781 0.97203 0.0
H708 H 0.33635 0.13741 0.77006 0.0
H709 H 0.37034 0.11951 0.70165 0.0
H710 H 0.43653 0.11733 0.92298 0.0
H711 H 0.44691 0.08863 0.96731 0.0
H712 H 0.42093 0.10547 1.00128 0.0
H713 H 0.39318 0.0656 0.98909 0.0
H714 H 0.41899 0.04866 0.95477 0.0
H715 H 0.38959 0.05031 0.90217 0.0
H716 H 0.40585 0.09585 0.65426 0.0
H717 H 0.44151 0.0688 0.63042 0.0
H718 H 0.45394 0.0547 0.86312 0.0
C719 C 0.37089 0.11088 0.91354 0.0
C720 C 0.3511 0.12406 0.87638 0.0
C721 C 0.35131 0.12743 0.79974 0.0
C722 C 0.37055 0.11736 0.7604 0.0
C723 C 0.38951 0.1041 0.79854 0.0
C724 C 0.38996 0.10097 0.87341 0.0
C725 C 0.41193 0.08496 0.90067 0.0
C726 C 0.43015 0.1 0.95103 0.0
C727 C 0.40287 0.06096 0.93891 0.0
C728 C 0.42345 0.07917 0.82916 0.0
C729 C 0.41025 0.09052 0.77107 0.0
C730 C 0.41651 0.08708 0.6993 0.0
C731 C 0.43675 0.07157 0.68638 0.0
C732 C 0.45057 0.05966 0.74495 0.0
C733 C 0.44392 0.06375 0.81732 0.0
H734 H 0.47395 0.33689 0.92251 0.0
H735 H 0.47881 0.29705 0.71994 0.0
H736 H 0.50182 0.33287 0.66754 0.0
H737 H 0.45851 0.39365 0.83621 0.0
H738 H 0.47462 0.4133 0.9028 0.0
H739 H 0.46316 0.38294 0.92949 0.0
H740 H 0.50743 0.37099 0.9791 0.0
H741 H 0.51954 0.40112 0.95209 0.0
H742 H 0.53346 0.3729 0.92025 0.0
H743 H 0.52027 0.37407 0.63325 0.0
H744 H 0.53046 0.41872 0.61572 0.0
H745 H 0.51091 0.4333 0.83795 0.0
C746 C 0.48079 0.33545 0.86821 0.0
C747 C 0.47555 0.31403 0.82572 0.0
C748 C 0.48335 0.31315 0.75352 0.0
C749 C 0.4964 0.33336 0.7235 0.0
C750 C 0.5009 0.35451 0.76606 0.0
C751 C 0.49314 0.35582 0.83665 0.0
C752 C 0.49698 0.38196 0.86667 0.0
C753 C 0.47183 0.39364 0.88482 0.0
C754 C 0.51549 0.38172 0.93348 0.0
C755 C 0.50806 0.39512 0.802 0.0
C756 C 0.51043 0.37885 0.74491 0.0
C757 C 0.51877 0.38693 0.67784 0.0
C758 C 0.52446 0.4124 0.66841 0.0
C759 C 0.52156 0.42958 0.72552 0.0
C760 C 0.51364 0.42064 0.79352 0.0
H761 H 0.18406 0.49952 0.89669 0.0
H762 H 0.17555 0.42188 0.96547 0.0
H763 H 0.13393 0.4203 0.90049 0.0
H764 H 0.12245 0.51739 0.92115 0.0
H765 H 0.11996 0.53816 0.84285 0.0
H766 H 0.15007 0.53247 0.88822 0.0
H767 H 0.16744 0.51819 0.76632 0.0
H768 H 0.13735 0.52391 0.7204 0.0
H769 H 0.15161 0.49352 0.71566 0.0
H770 H 0.09208 0.42827 0.83803 0.0
H771 H 0.05282 0.44495 0.78082 0.0
H772 H 0.0888 0.51735 0.75138 0.0
C773 C 0.17365 0.48204 0.89718 0.0
C774 C 0.18305 0.46079 0.93601 0.0
C775 C 0.16873 0.43836 0.93588 0.0
C776 C 0.14511 0.43727 0.89902 0.0
C777 C 0.13624 0.4587 0.86226 0.0
C778 C 0.15011 0.48062 0.86065 0.0
C779 C 0.13572 0.50141 0.82072 0.0
C780 C 0.13182 0.52366 0.87127 0.0
C781 C 0.14881 0.50974 0.75167 0.0
C782 C 0.1113 0.48793 0.8017 0.0
C783 C 0.11208 0.46327 0.8257 0.0
C784 C 0.09133 0.44745 0.8182 0.0
C785 C 0.06909 0.45715 0.78592 0.0
C786 C 0.06779 0.48245 0.76157 0.0
C787 C 0.08932 0.49788 0.76866 0.0
H788 H 0.02754 0.79546 0.57545 0.0
H789 H 0.99519 0.79736 0.35444 0.0
H790 H 0.9826 0.84123 0.36987 0.0
H791 H 0.98425 0.8393 0.65805 0.0
H792 H 0.00913 0.85397 0.71253 0.0
H793 H 0.01133 0.82141 0.6891 0.0
H794 H 0.05406 0.83019 0.6325 0.0
H795 H 0.05199 0.86266 0.656 0.0
H796 H 0.05615 0.85413 0.56274 0.0
H797 H 0.97656 0.88587 0.40595 0.0
H798 H 0.98143 0.92867 0.455 0.0
H799 H 0.02159 0.89856 0.64779 0.0
C800 C 0.01736 0.80493 0.53069 0.0
C801 C 0.01108 0.7925 0.46468 0.0
C802 C 0.99858 0.80588 0.40679 0.0
C803 C 0.99175 0.83097 0.41481 0.0
C804 C 0.99807 0.8426 0.48071 0.0
C805 C 0.01089 0.8301 0.53739 0.0
C806 C 0.01814 0.84762 0.59924 0.0
C807 C 0.00492 0.84012 0.66884 0.0
C808 C 0.04678 0.84871 0.61339 0.0
C809 C 0.00807 0.87206 0.56746 0.0
C810 C 0.99599 0.86869 0.49989 0.0
C811 C 0.98582 0.88873 0.45905 0.0
C812 C 0.9886 0.91293 0.48736 0.0
C813 C 1.00192 0.91682 0.55494 0.0
C814 C 0.01134 0.89606 0.59589 0.0
H815 H 0.68809 0.98768 0.50069 0.0
H816 H 0.66657 0.92222 0.37376 0.0
H817 H 0.62536 0.92158 0.42889 0.0
H818 H 0.65661 0.96972 0.66483 0.0
H819 H 0.64725 1.00132 0.68271 0.0
H820 H 0.67554 0.9958 0.63616 0.0
H821 H 0.65926 0.02422 0.52844 0.0
H822 H 0.631 0.02988 0.57472 0.0
H823 H 0.62916 0.01757 0.48365 0.0
H824 H 0.58584 0.92924 0.49395 0.0
H825 H 0.55066 0.94526 0.56149 0.0
H826 H 0.59839 0.00557 0.64578 0.0
C827 C 0.67483 0.97305 0.48492 0.0
C828 C 0.6806 0.95491 0.43319 0.0
C829 C 0.6626 0.93625 0.41352 0.0
C830 C 0.63916 0.93569 0.44463 0.0
C831 C 0.63407 0.95389 0.49538 0.0
C832 C 0.65139 0.97222 0.51536 0.0
C833 C 0.64094 0.99023 0.5688 0.0
C834 C 0.65598 0.98919 0.64249 0.0
C835 C 0.64003 0.01706 0.53697 0.0
C836 C 0.61491 0.97934 0.5751 0.0
C837 C 0.61135 0.95831 0.53273 0.0
C838 C 0.58847 0.94559 0.52776 0.0
C839 C 0.5686 0.95484 0.56635 0.0
C840 C 0.57176 0.97664 0.60917 0.0
C841 C 0.59538 0.98875 0.61415 0.0
H842 H 0.417 0.65559 0.49033 0.0
H843 H 0.47041 0.6845 0.33999 0.0
H844 H 0.50282 0.65631 0.39514 0.0
H845 H 0.46185 0.64689 0.64854 0.0
H846 H 0.44637 0.61857 0.67721 0.0
H847 H 0.42858 0.64298 0.63023 0.0
H848 H 0.41235 0.61096 0.53423 0.0
H849 H 0.43045 0.58641 0.57896 0.0
H850 H 0.43447 0.59373 0.4841 0.0
H851 H 0.52817 0.62128 0.46083 0.0
H852 H 0.54368 0.58392 0.53062 0.0
H853 H 0.47333 0.57958 0.63858 0.0
C854 C 0.43571 0.65639 0.47021 0.0
C855 C 0.44132 0.67258 0.41212 0.0
C856 C 0.46584 0.67283 0.38598 0.0
C857 C 0.48436 0.6567 0.41676 0.0
C858 C 0.47808 0.64074 0.47402 0.0
C859 C 0.45435 0.64073 0.50084 0.0
C860 C 0.4517 0.62102 0.55983 0.0
C861 C 0.44684 0.63309 0.63331 0.0
C862 C 0.43103 0.6019 0.53798 0.0
C863 C 0.47741 0.60941 0.56093 0.0
C864 C 0.49251 0.62101 0.51152 0.0
C865 C 0.5166 0.61232 0.50045 0.0
C866 C 0.52527 0.5911 0.54034 0.0
C867 C 0.50984 0.57885 0.59053 0.0
C868 C 0.4858 0.58855 0.60139 0.0
H869 H 0.83544 0.55899 0.35528 0.0
H870 H 0.79922 0.58891 0.5416 0.0
H871 H 0.83681 0.57913 0.62021 0.0
H872 H 0.86786 0.50811 0.45207 0.0
H873 H 0.89561 0.51128 0.40076 0.0
H874 H 0.86553 0.51986 0.3594 0.0
H875 H 0.8828 0.56412 0.33004 0.0
H876 H 0.91288 0.55578 0.37186 0.0
H877 H 0.89666 0.58281 0.40277 0.0
H878 H 0.87785 0.56679 0.678 0.0
H879 H 0.92016 0.55177 0.7135 0.0
H880 H 0.93076 0.53053 0.48956 0.0
C881 C 0.8353 0.56324 0.41278 0.0
C882 C 0.81436 0.57464 0.44249 0.0
C883 C 0.81503 0.58017 0.51775 0.0
C884 C 0.83629 0.57471 0.56279 0.0
C885 C 0.85672 0.56384 0.5316 0.0
C886 C 0.85645 0.55809 0.45847 0.0
C887 C 0.88114 0.54681 0.43872 0.0
C888 C 0.8773 0.51992 0.41113 0.0
C889 C 0.89413 0.56338 0.38253 0.0
C890 C 0.89532 0.54714 0.51236 0.0
C891 C 0.88078 0.55701 0.565 0.0
C892 C 0.88943 0.559 0.63739 0.0
C893 C 0.9135 0.55036 0.65693 0.0
C894 C 0.92874 0.53993 0.60424 0.0
C895 C 0.9196 0.53858 0.53081 0.0
loop_
_geom_bond_atom_site_label_1
_geom_bond_atom_site_label_2
_geom_bond_distance
_geom_bond_site_symmetry_2
_ccdc_geom_bond_type
O0 Cd1 2.300 . S
O0 C7 1.275 . S
Cd1 O0 2.300 . S
Cd1 O9 2.381 . S
Cd1 O10 2.378 . S
O2 Cd3 2.385 . S
O2 C7 1.255 . S
Cd3 O2 2.385 . S
Cd3 O4 2.317 . S
O4 Cd3 2.317 . S
O4 C5 1.232 . S
C5 O4 1.232 . S
C5 O6 1.218 . S
O6 C5 1.218 . S
C7 O0 1.275 . S
C7 O2 1.255 . S
C8 O9 1.258 . S
C8 O10 1.256 . S
O9 Cd1 2.381 . S
O9 C8 1.258 . S
O10 Cd1 2.378 . S
O10 C8 1.256 . S
O11 Cd12 2.300 . S
O11 C18 1.275 . S
Cd12 O11 2.300 . S
Cd12 O20 2.381 . S
Cd12 O21 2.378 . S
O13 Cd14 2.385 1_655 S
O13 C18 1.255 . S
Cd14 O13 2.385 1_455 S
Cd14 O15 2.317 1_455 S
O15 Cd14 2.317 1_655 S
O15 C16 1.232 . S
C16 O15 1.232 . S
C16 O17 1.218 . S
O17 C16 1.218 . S
C18 O11 1.275 . S
C18 O13 1.255 . S
C19 O20 1.258 . S
C19 O21 1.256 . S
O20 Cd12 2.381 . S
O20 C19 1.258 . S
O21 Cd12 2.378 . S
O21 C19 1.256 . S
O22 Cd23 2.300 . S
O22 C29 1.275 . S
Cd23 O22 2.300 . S
Cd23 O31 2.381 . S
Cd23 O32 2.378 . S
O24 Cd25 2.385 1_565 S
O24 C29 1.255 . S
Cd25 O24 2.385 1_545 S
Cd25 O26 2.317 1_545 S
O26 Cd25 2.317 1_565 S
O26 C27 1.232 . S
C27 O26 1.232 . S
C27 O28 1.218 . S
O28 C27 1.218 . S
C29 O22 1.275 . S
C29 O24 1.255 . S
C30 O31 1.258 . S
C30 O32 1.256 . S
O31 Cd23 2.381 . S
O31 C30 1.258 . S
O32 Cd23 2.378 . S
O32 C30 1.256 . S
O33 Cd34 2.300 . S
O33 C40 1.275 . S
Cd34 O33 2.300 . S
Cd34 O42 2.381 . S
Cd34 O43 2.378 . S
O35 Cd36 2.385 . S
O35 C40 1.255 . S
Cd36 O35 2.385 . S
Cd36 O37 2.317 . S
O37 Cd36 2.317 . S
O37 C38 1.232 . S
C38 O37 1.232 . S
C38 O39 1.218 . S
O39 C38 1.218 . S
C40 O33 1.275 . S
C40 O35 1.255 . S
C41 O42 1.258 . S
C41 O43 1.256 . S
O42 Cd34 2.381 . S
O42 C41 1.258 . S
O43 Cd34 2.378 . S
O43 C41 1.256 . S
O44 Cd45 2.300 . S
O44 C51 1.275 . S
Cd45 O44 2.300 . S
Cd45 O53 2.381 . S
Cd45 O54 2.378 . S
O46 Cd47 2.385 . S
O46 C51 1.255 . S
Cd47 O46 2.385 . S
Cd47 O48 2.317 1_554 S
O48 Cd47 2.317 1_556 S
O48 C49 1.232 . S
C49 O48 1.232 . S
C49 O50 1.218 . S
O50 C49 1.218 . S
C51 O44 1.275 . S
C51 O46 1.255 . S
C52 O53 1.258 . S
C52 O54 1.256 . S
O53 Cd45 2.381 . S
O53 C52 1.258 . S
O54 Cd45 2.378 . S
O54 C52 1.256 . S
O55 Cd56 2.300 . S
O55 C62 1.275 . S
Cd56 O55 2.300 . S
Cd56 O64 2.381 . S
Cd56 O65 2.378 . S
O57 Cd58 2.385 . S
O57 C62 1.255 . S
Cd58 O57 2.385 . S
Cd58 O59 2.317 1_554 S
O59 Cd58 2.317 1_556 S
O59 C60 1.232 . S
C60 O59 1.232 . S
C60 O61 1.218 . S
O61 C60 1.218 . S
C62 O55 1.275 . S
C62 O57 1.255 . S
C63 O64 1.258 . S
C63 O65 1.256 . S
O64 Cd56 2.381 . S
O64 C63 1.258 . S
O65 Cd56 2.378 . S
O65 C63 1.256 . S
O66 Cd67 2.300 . S
O66 C73 1.275 . S
Cd67 O66 2.300 . S
Cd67 O75 2.381 . S
Cd67 O76 2.378 . S
O68 Cd69 2.385 1_554 S
O68 C73 1.255 . S
Cd69 O68 2.385 1_556 S
Cd69 O70 2.317 . S
O70 Cd69 2.317 . S
O70 C71 1.232 . S
C71 O70 1.232 . S
C71 O72 1.218 . S
O72 C71 1.218 . S
C73 O66 1.275 . S
C73 O68 1.255 . S
C74 O75 1.258 . S
C74 O76 1.256 . S
O75 Cd67 2.381 . S
O75 C74 1.258 . S
O76 Cd67 2.378 . S
O76 C74 1.256 . S
O77 Cd78 2.300 . S
O77 C84 1.275 . S
Cd78 O77 2.300 . S
Cd78 O86 2.381 . S
Cd78 O87 2.378 . S
O79 Cd80 2.385 . S
O79 C84 1.255 . S
Cd80 O79 2.385 . S
Cd80 O81 2.317 1_554 S
O81 Cd80 2.317 1_556 S
O81 C82 1.232 . S
C82 O81 1.232 . S
C82 O83 1.218 . S
O83 C82 1.218 . S
C84 O77 1.275 . S
C84 O79 1.255 . S
C85 O86 1.258 . S
C85 O87 1.256 . S
O86 Cd78 2.381 . S
O86 C85 1.258 . S
O87 Cd78 2.378 . S
O87 C85 1.256 . S
Eu88 C97 2.828 . S
Eu88 O99 2.392 . S
Eu88 O101 2.418 1_545 S
Eu88 O106 2.373 1_655 S
Eu88 O109 2.488 . S
Eu88 O110 2.483 . S
Eu88 O111 2.349 1_655 S
Eu89 O98 2.373 1_455 S
Eu89 O102 2.488 . S
Eu89 O103 2.471 . S
Eu89 O104 2.349 . S
Eu89 O107 2.392 1_565 S
Eu89 O108 2.418 1_565 S
Eu89 C118 2.828 . S
C90 O108 1.244 . S
C90 O111 1.265 . S
C91 C92 1.379 1_655 S
C91 C95 1.373 . S
C91 C97 1.505 . S
C92 C91 1.379 1_455 S
C92 C94 1.369 . S
C92 H120 0.930 . S
C93 C95 1.383 . S
C93 C96 1.382 1_655 S
C93 H121 0.930 . S
C94 C92 1.369 . S
C94 C96 1.392 . S
C94 H122 0.930 . S
C95 C91 1.373 . S
C95 C93 1.383 . S
C95 H123 0.931 . S
C96 C93 1.382 1_455 S
C96 C94 1.392 . S
C97 Eu88 2.828 . S
C97 C91 1.505 . S
C97 O109 1.249 . S
C97 O110 1.252 . S
O98 Eu89 2.373 1_655 S
O98 C100 1.258 1_565 S
O99 Eu88 2.392 . S
O99 C100 1.242 . S
C100 O98 1.258 1_545 S
C100 O99 1.242 . S
O101 Eu88 2.418 1_565 S
O101 C105 1.244 . S
O102 Eu89 2.488 . S
O102 C118 1.249 . S
O103 Eu89 2.471 . S
O103 C118 1.244 . S
O104 Eu89 2.349 . S
O104 C105 1.265 1_455 S
C105 O101 1.244 . S
C105 O104 1.265 1_655 S
O106 Eu88 2.373 1_455 S
O106 C119 1.258 . S
O107 Eu89 2.392 1_545 S
O107 C119 1.242 . S
O108 Eu89 2.418 1_545 S
O108 C90 1.244 . S
O109 Eu88 2.488 . S
O109 C97 1.249 . S
O110 Eu88 2.483 . S
O110 C97 1.252 . S
O111 Eu88 2.349 1_455 S
O111 C90 1.265 . S
C112 C113 1.379 . S
C112 C116 1.373 . S
C112 C118 1.505 . S
C113 C112 1.379 . S
C113 C115 1.362 1_455 S
C113 H124 0.930 1_455 S
C114 C116 1.383 1_554 S
C114 C117 1.382 . S
C114 H125 0.930 . S
C115 C113 1.362 1_655 S
C115 C117 1.379 1_656 S
C115 H126 0.951 . S
C116 C112 1.373 . S
C116 C114 1.383 1_556 S
C116 H127 0.931 . S
C117 C114 1.382 . S
C117 C115 1.379 1_454 S
C118 Eu89 2.828 . S
C118 O102 1.249 . S
C118 O103 1.244 . S
C118 C112 1.505 . S
C119 O106 1.258 . S
C119 O107 1.242 . S
H120 C92 0.930 . S
H121 C93 0.930 . S
H122 C94 0.930 . S
H123 C95 0.931 . S
H124 C113 0.930 1_655 S
H125 C114 0.930 . S
H126 C115 0.951 . S
H127 C116 0.931 . S
Eu128 C137 2.828 . S
Eu128 O139 2.392 . S
Eu128 O141 2.418 . S
Eu128 O146 2.373 . S
Eu128 O149 2.488 . S
Eu128 O150 2.471 . S
Eu128 O151 2.349 1_545 S
Eu129 O138 2.373 1_565 S
Eu129 O142 2.488 . S
Eu129 O143 2.471 1_565 S
Eu129 O144 2.349 1_565 S
Eu129 O147 2.392 . S
Eu129 O148 2.418 . S
Eu129 C158 2.828 . S
C130 O148 1.244 . S
C130 O151 1.265 . S
C131 C132 1.379 . S
C131 C135 1.373 . S
C131 C137 1.505 . S
C132 C131 1.379 . S
C132 C134 1.369 . S
C132 H160 0.930 1_545 S
C133 C135 1.383 . S
C133 C136 1.382 . S
C133 H161 0.930 . S
C134 C132 1.369 . S
C134 C136 1.392 . S
C134 H162 0.930 1_545 S
C135 C131 1.373 . S
C135 C133 1.383 . S
C135 H163 0.931 . S
C136 C133 1.382 . S
C136 C134 1.392 . S
C137 Eu128 2.828 . S
C137 C131 1.505 . S
C137 O149 1.249 . S
C137 O150 1.244 . S
O138 Eu129 2.373 1_545 S
O138 C140 1.258 . S
O139 Eu128 2.392 . S
O139 C140 1.242 . S
C140 O138 1.258 . S
C140 O139 1.242 . S
O141 Eu128 2.418 . S
O141 C145 1.244 . S
O142 Eu129 2.488 . S
O142 C158 1.249 . S
O143 Eu129 2.471 1_545 S
O143 C158 1.244 1_545 S
O144 Eu129 2.349 1_545 S
O144 C145 1.265 . S
C145 O141 1.244 . S
C145 O144 1.265 . S
O146 Eu128 2.373 . S
O146 C159 1.258 1_545 S
O147 Eu129 2.392 . S
O147 C159 1.242 . S
O148 Eu129 2.418 . S
O148 C130 1.244 . S
O149 Eu128 2.488 . S
O149 C137 1.249 . S
O150 Eu128 2.471 . S
O150 C137 1.244 . S
O151 Eu128 2.349 1_565 S
O151 C130 1.265 . S
C152 C153 1.379 1_565 S
C152 C156 1.373 . S
C152 C158 1.505 . S
C153 C152 1.379 1_545 S
C153 C155 1.369 . S
C153 H164 0.930 . S
C154 C156 1.383 . S
C154 C157 1.401 . S
C154 H165 0.930 . S
C155 C153 1.369 . S
C155 C157 1.375 1_545 S
C155 H166 0.930 . S
C156 C152 1.373 . S
C156 C154 1.383 . S
C156 H167 0.931 . S
C157 C154 1.401 . S
C157 C155 1.375 1_565 S
C158 Eu129 2.828 . S
C158 O142 1.249 . S
C158 O143 1.244 1_565 S
C158 C152 1.505 . S
C159 O146 1.258 1_565 S
C159 O147 1.242 . S
H160 C132 0.930 1_565 S
H161 C133 0.930 . S
H162 C134 0.930 1_565 S
H163 C135 0.931 . S
H164 C153 0.930 . S
H165 C154 0.930 . S
H166 C155 0.930 . S
H167 C156 0.931 . S
Eu168 C177 2.828 . S
Eu168 O179 2.392 . S
Eu168 O181 2.418 . S
Eu168 O186 2.373 . S
Eu168 O189 2.488 . S
Eu168 O190 2.471 . S
Eu168 O191 2.349 . S
Eu169 O178 2.373 . S
Eu169 O182 2.488 . S
Eu169 O183 2.471 . S
Eu169 O184 2.349 . S
Eu169 O187 2.392 . S
Eu169 O188 2.418 . S
Eu169 C198 2.828 . S
C170 O188 1.244 . S
C170 O191 1.265 . S
C171 C172 1.379 . S
C171 C175 1.373 . S
C171 C177 1.505 . S
C172 C171 1.379 . S
C172 C174 1.369 . S
C172 H200 0.930 . S
C173 C175 1.383 . S
C173 C176 1.382 . S
C173 H201 0.930 . S
C174 C172 1.369 . S
C174 C176 1.392 . S
C174 H202 0.930 . S
C175 C171 1.373 . S
C175 C173 1.383 . S
C175 H203 0.931 . S
C176 C173 1.382 . S
C176 C174 1.392 . S
C177 Eu168 2.828 . S
C177 C171 1.505 . S
C177 O189 1.249 . S
C177 O190 1.244 . S
O178 Eu169 2.373 . S
O178 C180 1.258 . S
O179 Eu168 2.392 . S
O179 C180 1.242 . S
C180 O178 1.258 . S
C180 O179 1.242 . S
O181 Eu168 2.418 . S
O181 C185 1.244 . S
O182 Eu169 2.488 . S
O182 C198 1.249 . S
O183 Eu169 2.471 . S
O183 C198 1.244 . S
O184 Eu169 2.349 . S
O184 C185 1.265 . S
C185 O181 1.244 . S
C185 O184 1.265 . S
O186 Eu168 2.373 . S
O186 C199 1.258 . S
O187 Eu169 2.392 . S
O187 C199 1.242 . S
O188 Eu169 2.418 . S
O188 C170 1.244 . S
O189 Eu168 2.488 . S
O189 C177 1.249 . S
O190 Eu168 2.471 . S
O190 C177 1.244 . S
O191 Eu168 2.349 . S
O191 C170 1.265 . S
C192 C193 1.379 . S
C192 C196 1.373 . S
C192 C198 1.505 . S
C193 C192 1.379 . S
C193 C195 1.369 . S
C193 H204 0.930 . S
C194 C196 1.383 . S
C194 C197 1.382 . S
C194 H205 0.930 . S
C195 C193 1.369 . S
C195 C197 1.392 . S
C195 H206 0.930 . S
C196 C192 1.373 . S
C196 C194 1.383 . S
C196 H207 0.931 . S
C197 C194 1.382 . S
C197 C195 1.392 . S
C198 Eu169 2.828 . S
C198 O182 1.249 . S
C198 O183 1.244 . S
C198 C192 1.505 . S
C199 O186 1.258 . S
C199 O187 1.242 . S
H200 C172 0.930 . S
H201 C173 0.930 . S
H202 C174 0.930 . S
H203 C175 0.931 . S
H204 C193 0.930 . S
H205 C194 0.930 . S
H206 C195 0.930 . S
H207 C196 0.931 . S
Eu208 C217 2.828 . S
Eu208 O219 2.392 . S
Eu208 O221 2.418 1_455 S
Eu208 O226 2.373 . S
Eu208 O229 2.488 . S
Eu208 O230 2.471 . S
Eu208 O231 2.349 . S
Eu209 O218 2.373 . S
Eu209 O222 2.488 . S
Eu209 O223 2.471 . S
Eu209 O224 2.349 . S
Eu209 O227 2.392 1_655 S
Eu209 O228 2.418 1_655 S
Eu209 C238 2.828 . S
C210 O228 1.244 . S
C210 O231 1.265 . S
C211 C212 1.379 . S
C211 C215 1.373 . S
C211 C217 1.505 . S
C212 C211 1.379 . S
C212 C214 1.369 . S
C212 H240 0.930 . S
C213 C215 1.383 . S
C213 C216 1.382 . S
C213 H241 0.930 . S
C214 C212 1.369 . S
C214 C216 1.392 . S
C214 H242 0.930 . S
C215 C211 1.373 . S
C215 C213 1.383 . S
C215 H243 0.931 . S
C216 C213 1.382 . S
C216 C214 1.392 . S
C217 Eu208 2.828 . S
C217 C211 1.505 . S
C217 O229 1.249 . S
C217 O230 1.244 . S
O218 Eu209 2.373 . S
O218 C220 1.252 1_655 S
O219 Eu208 2.392 . S
O219 C220 1.256 . S
C220 O218 1.252 1_455 S
C220 O219 1.256 . S
O221 Eu208 2.418 1_655 S
O221 C225 1.244 . S
O222 Eu209 2.488 . S
O222 C238 1.249 . S
O223 Eu209 2.471 . S
O223 C238 1.244 . S
O224 Eu209 2.349 . S
O224 C225 1.265 . S
C225 O221 1.244 . S
C225 O224 1.265 . S
O226 Eu208 2.373 . S
O226 C239 1.258 . S
O227 Eu209 2.392 1_455 S
O227 C239 1.242 . S
O228 Eu209 2.418 1_455 S
O228 C210 1.244 . S
O229 Eu208 2.488 . S
O229 C217 1.249 . S
O230 Eu208 2.471 . S
O230 C217 1.244 . S
O231 Eu208 2.349 . S
O231 C210 1.265 . S
C232 C233 1.379 . S
C232 C236 1.373 . S
C232 C238 1.505 . S
C233 C232 1.379 . S
C233 C235 1.369 . S
C233 H244 0.930 . S
C234 C236 1.383 1_554 S
C234 C237 1.382 1_554 S
C234 H245 0.930 . S
C235 C233 1.369 . S
C235 C237 1.392 . S
C235 H246 0.930 . S
C236 C232 1.373 . S
C236 C234 1.383 1_556 S
C236 H247 0.931 . S
C237 C234 1.382 1_556 S
C237 C235 1.392 . S
C238 Eu209 2.828 . S
C238 O222 1.249 . S
C238 O223 1.244 . S
C238 C232 1.505 . S
C239 O226 1.258 . S
C239 O227 1.242 . S
H240 C212 0.930 . S
H241 C213 0.930 . S
H242 C214 0.930 . S
H243 C215 0.931 . S
H244 C233 0.930 . S
H245 C234 0.930 . S
H246 C235 0.930 . S
H247 C236 0.931 . S
H248 C260 0.930 . S
H249 C262 0.930 . S
H250 C263 0.930 1_565 S
H251 C267 0.959 . S
H252 C267 0.959 . S
H253 C267 0.961 . S
H254 C268 0.960 . S
H255 C268 0.961 . S
H256 C268 0.959 . S
H257 C271 0.929 1_565 S
H258 C272 0.931 1_565 S
H259 C274 0.930 . S
C260 H248 0.930 . S
C260 C261 1.399 . S
C260 C265 1.399 . S
C261 C260 1.399 . S
C261 C262 1.376 . S
C262 H249 0.930 . S
C262 C261 1.376 . S
C262 C263 1.388 . S
C263 H250 0.930 1_545 S
C263 C262 1.388 . S
C263 C264 1.390 . S
C264 C263 1.390 . S
C264 C265 1.394 . S
C264 C270 1.465 . S
C265 C260 1.399 . S
C265 C264 1.394 . S
C265 C266 1.516 . S
C266 C265 1.516 . S
C266 C267 1.502 . S
C266 C268 1.561 . S
C266 C269 1.526 . S
C267 H251 0.959 . S
C267 H252 0.959 . S
C267 H253 0.961 . S
C267 C266 1.502 . S
C268 H254 0.960 . S
C268 H255 0.961 . S
C268 H256 0.959 . S
C268 C266 1.561 . S
C269 C266 1.526 . S
C269 C270 1.396 . S
C269 C274 1.390 . S
C270 C264 1.465 . S
C270 C269 1.396 . S
C270 C271 1.399 . S
C271 H257 0.929 1_545 S
C271 C270 1.399 . S
C271 C272 1.385 . S
C272 H258 0.931 1_545 S
C272 C271 1.385 . S
C272 C273 1.389 . S
C273 C272 1.389 . S
C273 C274 1.387 . S
C274 H259 0.930 . S
C274 C269 1.390 . S
C274 C273 1.387 . S
H275 C287 0.930 . S
H276 C289 0.930 . S
H277 C290 0.930 . S
H278 C294 0.959 . S
H279 C294 0.959 . S
H280 C294 0.961 . S
H281 C295 0.960 . S
H282 C295 0.961 . S
H283 C295 0.959 . S
H284 C298 0.929 . S
H285 C299 0.931 . S
H286 C301 0.930 . S
C287 H275 0.930 . S
C287 C288 1.399 . S
C287 C292 1.399 . S
C288 C287 1.399 . S
C288 C289 1.376 . S
C289 H276 0.930 . S
C289 C288 1.376 . S
C289 C290 1.388 . S
C290 H277 0.930 . S
C290 C289 1.388 . S
C290 C291 1.390 . S
C291 C290 1.390 . S
C291 C292 1.394 . S
C291 C297 1.465 . S
C292 C287 1.399 . S
C292 C291 1.394 . S
C292 C293 1.516 . S
C293 C292 1.516 . S
C293 C294 1.502 . S
C293 C295 1.561 . S
C293 C296 1.526 . S
C294 H278 0.959 . S
C294 H279 0.959 . S
C294 H280 0.961 . S
C294 C293 1.502 . S
C295 H281 0.960 . S
C295 H282 0.961 . S
C295 H283 0.959 . S
C295 C293 1.561 . S
C296 C293 1.526 . S
C296 C297 1.396 . S
C296 C301 1.390 . S
C297 C291 1.465 . S
C297 C296 1.396 . S
C297 C298 1.399 . S
C298 H284 0.929 . S
C298 C297 1.399 . S
C298 C299 1.385 . S
C299 H285 0.931 . S
C299 C298 1.385 . S
C299 C300 1.389 . S
C300 C299 1.389 . S
C300 C301 1.387 . S
C301 H286 0.930 . S
C301 C296 1.390 . S
C301 C300 1.387 . S
H302 C314 0.930 . S
H303 C316 0.930 . S
H304 C317 0.930 . S
H305 C321 0.959 . S
H306 C321 0.959 . S
H307 C321 0.961 . S
H308 C322 0.960 . S
H309 C322 0.961 . S
H310 C322 0.959 . S
H311 C325 0.929 . S
H312 C326 0.931 . S
H313 C328 0.930 . S
C314 H302 0.930 . S
C314 C315 1.399 . S
C314 C319 1.399 . S
C315 C314 1.399 . S
C315 C316 1.376 . S
C316 H303 0.930 . S
C316 C315 1.376 . S
C316 C317 1.388 . S
C317 H304 0.930 . S
C317 C316 1.388 . S
C317 C318 1.390 . S
C318 C317 1.390 . S
C318 C319 1.394 . S
C318 C324 1.465 . S
C319 C314 1.399 . S
C319 C318 1.394 . S
C319 C320 1.516 . S
C320 C319 1.516 . S
C320 C321 1.502 . S
C320 C322 1.561 . S
C320 C323 1.526 . S
C321 H305 0.959 . S
C321 H306 0.959 . S
C321 H307 0.961 . S
C321 C320 1.502 . S
C322 H308 0.960 . S
C322 H309 0.961 . S
C322 H310 0.959 . S
C322 C320 1.561 . S
C323 C320 1.526 . S
C323 C324 1.396 . S
C323 C328 1.390 . S
C324 C318 1.465 . S
C324 C323 1.396 . S
C324 C325 1.399 . S
C325 H311 0.929 . S
C325 C324 1.399 . S
C325 C326 1.385 . S
C326 H312 0.931 . S
C326 C325 1.385 . S
C326 C327 1.389 . S
C327 C326 1.389 . S
C327 C328 1.387 . S
C328 H313 0.930 . S
C328 C323 1.390 . S
C328 C327 1.387 . S
H329 C341 0.930 . S
H330 C343 0.930 . S
H331 C344 0.930 . S
H332 C348 0.959 . S
H333 C348 0.959 . S
H334 C348 0.961 . S
H335 C349 0.960 . S
H336 C349 0.961 . S
H337 C349 0.959 . S
H338 C352 0.929 . S
H339 C353 0.931 . S
H340 C355 0.930 . S
C341 H329 0.930 . S
C341 C342 1.399 . S
C341 C346 1.399 . S
C342 C341 1.399 . S
C342 C343 1.376 . S
C343 H330 0.930 . S
C343 C342 1.376 . S
C343 C344 1.388 . S
C344 H331 0.930 . S
C344 C343 1.388 . S
C344 C345 1.390 . S
C345 C344 1.390 . S
C345 C346 1.394 . S
C345 C351 1.465 . S
C346 C341 1.399 . S
C346 C345 1.394 . S
C346 C347 1.516 . S
C347 C346 1.516 . S
C347 C348 1.502 . S
C347 C349 1.561 . S
C347 C350 1.526 . S
C348 H332 0.959 . S
C348 H333 0.959 . S
C348 H334 0.961 . S
C348 C347 1.502 . S
C349 H335 0.960 . S
C349 H336 0.961 . S
C349 H337 0.959 . S
C349 C347 1.561 . S
C350 C347 1.526 . S
C350 C351 1.396 . S
C350 C355 1.390 . S
C351 C345 1.465 . S
C351 C350 1.396 . S
C351 C352 1.399 . S
C352 H338 0.929 . S
C352 C351 1.399 . S
C352 C353 1.385 . S
C353 H339 0.931 . S
C353 C352 1.385 . S
C353 C354 1.389 . S
C354 C353 1.389 . S
C354 C355 1.387 . S
C355 H340 0.930 . S
C355 C350 1.390 . S
C355 C354 1.387 . S
H356 C368 0.930 . S
H357 C370 0.930 . S
H358 C371 0.930 . S
H359 C375 0.959 . S
H360 C375 0.959 1_556 S
H361 C375 0.961 . S
H362 C376 0.960 . S
H363 C376 0.961 . S
H364 C376 0.959 . S
H365 C379 0.929 . S
H366 C380 0.931 . S
H367 C382 0.930 . S
C368 H356 0.930 . S
C368 C369 1.399 . S
C368 C373 1.399 . S
C369 C368 1.399 . S
C369 C370 1.376 1_565 S
C370 H357 0.930 . S
C370 C369 1.376 1_545 S
C370 C371 1.388 . S
C371 H358 0.930 . S
C371 C370 1.388 . S
C371 C372 1.390 1_545 S
C372 C371 1.390 1_565 S
C372 C373 1.394 . S
C372 C378 1.464 1_564 S
C373 C368 1.399 . S
C373 C372 1.394 . S
C373 C374 1.516 1_554 S
C374 C373 1.516 1_556 S
C374 C375 1.502 1_556 S
C374 C376 1.561 . S
C374 C377 1.526 . S
C375 H359 0.959 . S
C375 H360 0.959 1_554 S
C375 H361 0.961 . S
C375 C374 1.502 1_554 S
C376 H362 0.960 . S
C376 H363 0.961 . S
C376 H364 0.959 . S
C376 C374 1.561 . S
C377 C374 1.526 . S
C377 C378 1.388 1_565 S
C377 C382 1.390 . S
C378 C372 1.464 1_546 S
C378 C377 1.388 1_545 S
C378 C379 1.406 . S
C379 H365 0.929 . S
C379 C378 1.406 . S
C379 C380 1.385 . S
C380 H366 0.931 . S
C380 C379 1.385 . S
C380 C381 1.389 1_545 S
C381 C380 1.389 1_565 S
C381 C382 1.387 . S
C382 H367 0.930 . S
C382 C377 1.390 . S
C382 C381 1.387 . S
H383 C395 0.930 . S
H384 C397 0.930 . S
H385 C398 0.930 . S
H386 C402 0.959 . S
H387 C402 0.959 . S
H388 C402 0.961 . S
H389 C403 0.960 . S
H390 C403 0.961 . S
H391 C403 0.959 . S
H392 C406 0.929 . S
H393 C407 0.931 . S
H394 C409 0.930 . S
C395 H383 0.930 . S
C395 C396 1.399 . S
C395 C400 1.399 1_554 S
C396 C395 1.399 . S
C396 C397 1.376 . S
C397 H384 0.930 . S
C397 C396 1.376 . S
C397 C398 1.388 . S
C398 H385 0.930 . S
C398 C397 1.388 . S
C398 C399 1.390 . S
C399 C398 1.390 . S
C399 C400 1.394 1_554 S
C399 C405 1.465 1_554 S
C400 C395 1.399 1_556 S
C400 C399 1.394 1_556 S
C400 C401 1.516 . S
C401 C400 1.516 . S
C401 C402 1.502 . S
C401 C403 1.561 . S
C401 C404 1.526 . S
C402 H386 0.959 . S
C402 H387 0.959 . S
C402 H388 0.961 . S
C402 C401 1.502 . S
C403 H389 0.960 . S
C403 H390 0.961 . S
C403 H391 0.959 . S
C403 C401 1.561 . S
C404 C401 1.526 . S
C404 C405 1.396 . S
C404 C409 1.390 . S
C405 C399 1.465 1_556 S
C405 C404 1.396 . S
C405 C406 1.399 . S
C406 H392 0.929 . S
C406 C405 1.399 . S
C406 C407 1.385 . S
C407 H393 0.931 . S
C407 C406 1.385 . S
C407 C408 1.389 . S
C408 C407 1.389 . S
C408 C409 1.387 . S
C409 H394 0.930 . S
C409 C404 1.390 . S
C409 C408 1.387 . S
H410 C422 0.930 . S
H411 C424 0.930 . S
H412 C425 0.930 . S
H413 C429 0.959 . S
H414 C429 0.959 . S
H415 C429 0.961 . S
H416 C430 0.960 1_554 S
H417 C430 0.961 . S
H418 C430 0.959 . S
H419 C433 0.929 . S
H420 C434 0.931 . S
H421 C436 0.930 . S
C422 H410 0.930 . S
C422 C423 1.399 . S
C422 C427 1.399 . S
C423 C422 1.399 . S
C423 C424 1.376 . S
C424 H411 0.930 . S
C424 C423 1.376 . S
C424 C425 1.388 1_554 S
C425 H412 0.930 . S
C425 C424 1.388 1_556 S
C425 C426 1.390 . S
C426 C425 1.390 . S
C426 C427 1.394 1_556 S
C426 C432 1.465 . S
C427 C422 1.399 . S
C427 C426 1.394 1_554 S
C427 C428 1.516 1_554 S
C428 C427 1.516 1_556 S
C428 C429 1.502 1_556 S
C428 C430 1.561 . S
C428 C431 1.526 . S
C429 H413 0.959 . S
C429 H414 0.959 . S
C429 H415 0.961 . S
C429 C428 1.502 1_554 S
C430 H416 0.960 1_556 S
C430 H417 0.961 . S
C430 H418 0.959 . S
C430 C428 1.561 . S
C431 C428 1.526 . S
C431 C432 1.396 . S
C431 C436 1.390 . S
C432 C426 1.465 . S
C432 C431 1.396 . S
C432 C433 1.399 . S
C433 H419 0.929 . S
C433 C432 1.399 . S
C433 C434 1.385 . S
C434 H420 0.931 . S
C434 C433 1.385 . S
C434 C435 1.389 . S
C435 C434 1.389 . S
C435 C436 1.387 . S
C436 H421 0.930 . S
C436 C431 1.390 . S
C436 C435 1.387 . S
H437 C449 0.930 . S
H438 C451 0.930 . S
H439 C452 0.930 . S
H440 C456 0.993 . S
H441 C456 0.963 . S
H442 C456 0.954 1_655 S
H443 C457 0.960 . S
H444 C457 0.961 . S
H445 C457 0.959 . S
H446 C460 0.929 . S
H447 C461 0.931 . S
H448 C463 0.930 . S
C449 H437 0.930 . S
C449 C450 1.399 . S
C449 C454 1.399 . S
C450 C449 1.399 . S
C450 C451 1.376 . S
C451 H438 0.930 . S
C451 C450 1.376 . S
C451 C452 1.388 1_554 S
C452 H439 0.930 . S
C452 C451 1.388 1_556 S
C452 C453 1.390 . S
C453 C452 1.390 . S
C453 C454 1.394 1_556 S
C453 C459 1.465 . S
C454 C449 1.399 . S
C454 C453 1.394 1_554 S
C454 C455 1.516 . S
C455 C454 1.516 . S
C455 C456 1.474 1_655 S
C455 C457 1.561 . S
C455 C458 1.526 1_554 S
C456 H440 0.993 . S
C456 H441 0.963 . S
C456 H442 0.954 1_455 S
C456 C455 1.474 1_455 S
C457 H443 0.960 . S
C457 H444 0.961 . S
C457 H445 0.959 . S
C457 C455 1.561 . S
C458 C455 1.526 1_556 S
C458 C459 1.396 . S
C458 C463 1.390 . S
C459 C453 1.465 . S
C459 C458 1.396 . S
C459 C460 1.399 . S
C460 H446 0.929 . S
C460 C459 1.399 . S
C460 C461 1.385 . S
C461 H447 0.931 . S
C461 C460 1.385 . S
C461 C462 1.389 . S
C462 C461 1.389 . S
C462 C463 1.387 . S
C463 H448 0.930 . S
C463 C458 1.390 . S
C463 C462 1.387 . S
H464 C476 0.930 . S
H465 C478 0.930 . S
H466 C479 0.930 . S
H467 C483 0.959 . S
H468 C483 0.959 . S
H469 C483 0.961 . S
H470 C484 0.960 . S
H471 C484 0.990 . S
H472 C484 0.959 . S
H473 C487 0.929 . S
H474 C488 0.931 . S
H475 C490 0.930 1_655 S
C476 H464 0.930 . S
C476 C477 1.399 . S
C476 C481 1.399 . S
C477 C476 1.399 . S
C477 C478 1.376 . S
C478 H465 0.930 . S
C478 C477 1.376 . S
C478 C479 1.388 . S
C479 H466 0.930 . S
C479 C478 1.388 . S
C479 C480 1.390 . S
C480 C479 1.390 . S
C480 C481 1.394 . S
C480 C486 1.465 . S
C481 C476 1.399 . S
C481 C480 1.394 . S
C481 C482 1.516 . S
C482 C481 1.516 . S
C482 C483 1.502 1_455 S
C482 C484 1.561 . S
C482 C485 1.526 . S
C483 H467 0.959 . S
C483 H468 0.959 . S
C483 H469 0.961 . S
C483 C482 1.502 1_655 S
C484 H470 0.960 . S
C484 H471 0.990 . S
C484 H472 0.959 . S
C484 C482 1.561 . S
C485 C482 1.526 . S
C485 C486 1.396 . S
C485 C490 1.390 . S
C486 C480 1.465 . S
C486 C485 1.396 . S
C486 C487 1.399 . S
C487 H473 0.929 . S
C487 C486 1.399 . S
C487 C488 1.385 . S
C488 H474 0.931 . S
C488 C487 1.385 . S
C488 C489 1.389 . S
C489 C488 1.389 . S
C489 C490 1.387 . S
C490 H475 0.930 1_455 S
C490 C485 1.390 . S
C490 C489 1.387 . S
H491 C503 0.930 . S
H492 C505 0.930 . S
H493 C506 0.930 . S
H494 C510 0.959 . S
H495 C510 0.959 . S
H496 C510 0.961 . S
H497 C511 0.960 . S
H498 C511 0.961 . S
H499 C511 0.959 . S
H500 C514 0.929 . S
H501 C515 0.931 . S
H502 C517 0.930 . S
C503 H491 0.930 . S
C503 C504 1.399 . S
C503 C508 1.399 . S
C504 C503 1.399 . S
C504 C505 1.376 . S
C505 H492 0.930 . S
C505 C504 1.376 . S
C505 C506 1.388 . S
C506 H493 0.930 . S
C506 C505 1.388 . S
C506 C507 1.390 . S
C507 C506 1.390 . S
C507 C508 1.394 . S
C507 C513 1.465 . S
C508 C503 1.399 . S
C508 C507 1.394 . S
C508 C509 1.516 1_545 S
C509 C508 1.516 1_565 S
C509 C510 1.502 . S
C509 C511 1.561 . S
C509 C512 1.526 1_565 S
C510 H494 0.959 . S
C510 H495 0.959 . S
C510 H496 0.961 . S
C510 C509 1.502 . S
C511 H497 0.960 . S
C511 H498 0.961 . S
C511 H499 0.959 . S
C511 C509 1.561 . S
C512 C509 1.526 1_545 S
C512 C513 1.396 . S
C512 C517 1.390 1_545 S
C513 C507 1.465 . S
C513 C512 1.396 . S
C513 C514 1.399 . S
C514 H500 0.929 . S
C514 C513 1.399 . S
C514 C515 1.385 . S
C515 H501 0.931 . S
C515 C514 1.385 . S
C515 C516 1.389 . S
C516 C515 1.389 . S
C516 C517 1.387 1_545 S
C517 H502 0.930 . S
C517 C512 1.390 1_565 S
C517 C516 1.387 1_565 S
H518 C530 0.930 . S
H519 C532 0.930 . S
H520 C533 0.930 . S
H521 C537 0.959 . S
H522 C537 0.959 . S
H523 C537 0.961 . S
H524 C538 0.960 . S
H525 C538 0.961 . S
H526 C538 0.959 . S
H527 C541 0.929 . S
H528 C542 0.931 . S
H529 C544 0.930 . S
C530 H518 0.930 . S
C530 C531 1.399 . S
C530 C535 1.399 . S
C531 C530 1.399 . S
C531 C532 1.376 . S
C532 H519 0.930 . S
C532 C531 1.376 . S
C532 C533 1.388 . S
C533 H520 0.930 . S
C533 C532 1.388 . S
C533 C534 1.390 . S
C534 C533 1.390 . S
C534 C535 1.394 . S
C534 C540 1.465 . S
C535 C530 1.399 . S
C535 C534 1.394 . S
C535 C536 1.516 . S
C536 C535 1.516 . S
C536 C537 1.502 . S
C536 C538 1.561 . S
C536 C539 1.526 . S
C537 H521 0.959 . S
C537 H522 0.959 . S
C537 H523 0.961 . S
C537 C536 1.502 . S
C538 H524 0.960 . S
C538 H525 0.961 . S
C538 H526 0.959 . S
C538 C536 1.561 . S
C539 C536 1.526 . S
C539 C540 1.396 . S
C539 C544 1.390 . S
C540 C534 1.465 . S
C540 C539 1.396 . S
C540 C541 1.399 . S
C541 H527 0.929 . S
C541 C540 1.399 . S
C541 C542 1.385 . S
C542 H528 0.931 . S
C542 C541 1.385 . S
C542 C543 1.389 . S
C543 C542 1.389 . S
C543 C544 1.387 . S
C544 H529 0.930 . S
C544 C539 1.390 . S
C544 C543 1.387 . S
H545 C557 0.930 . S
H546 C559 0.930 . S
H547 C560 0.930 . S
H548 C564 0.959 . S
H549 C564 0.959 . S
H550 C564 0.961 . S
H551 C565 0.960 . S
H552 C565 0.961 . S
H553 C565 0.959 . S
H554 C568 0.929 . S
H555 C569 0.931 . S
H556 C571 0.930 . S
C557 H545 0.930 . S
C557 C558 1.399 . S
C557 C562 1.399 . S
C558 C557 1.399 . S
C558 C559 1.376 . S
C559 H546 0.930 . S
C559 C558 1.376 . S
C559 C560 1.388 . S
C560 H547 0.930 . S
C560 C559 1.388 . S
C560 C561 1.390 . S
C561 C560 1.390 . S
C561 C562 1.394 . S
C561 C567 1.465 . S
C562 C557 1.399 . S
C562 C561 1.394 . S
C562 C563 1.516 . S
C563 C562 1.516 . S
C563 C564 1.502 . S
C563 C565 1.561 . S
C563 C566 1.526 . S
C564 H548 0.959 . S
C564 H549 0.959 . S
C564 H550 0.961 . S
C564 C563 1.502 . S
C565 H551 0.960 . S
C565 H552 0.961 . S
C565 H553 0.959 . S
C565 C563 1.561 . S
C566 C563 1.526 . S
C566 C567 1.396 . S
C566 C571 1.390 . S
C567 C561 1.465 . S
C567 C566 1.396 . S
C567 C568 1.399 . S
C568 H554 0.929 . S
C568 C567 1.399 . S
C568 C569 1.385 . S
C569 H555 0.931 . S
C569 C568 1.385 . S
C569 C570 1.389 . S
C570 C569 1.389 . S
C570 C571 1.387 . S
C571 H556 0.930 . S
C571 C566 1.390 . S
C571 C570 1.387 . S
H572 C584 0.930 . S
H573 C586 0.930 . S
H574 C587 0.930 . S
H575 C591 0.959 . S
H576 C591 0.959 . S
H577 C591 0.961 . S
H578 C592 0.960 . S
H579 C592 0.961 . S
H580 C592 0.959 . S
H581 C595 0.929 . S
H582 C596 0.931 . S
H583 C598 0.930 1_556 S
C584 H572 0.930 . S
C584 C585 1.399 . S
C584 C589 1.399 . S
C585 C584 1.399 . S
C585 C586 1.376 . S
C586 H573 0.930 . S
C586 C585 1.376 . S
C586 C587 1.388 . S
C587 H574 0.930 . S
C587 C586 1.388 . S
C587 C588 1.390 . S
C588 C587 1.390 . S
C588 C589 1.394 . S
C588 C594 1.465 . S
C589 C584 1.399 . S
C589 C588 1.394 . S
C589 C590 1.516 . S
C590 C589 1.516 . S
C590 C591 1.502 1_655 S
C590 C592 1.561 1_554 S
C590 C593 1.526 . S
C591 H575 0.959 . S
C591 H576 0.959 . S
C591 H577 0.961 . S
C591 C590 1.502 1_455 S
C592 H578 0.960 . S
C592 H579 0.961 . S
C592 H580 0.959 . S
C592 C590 1.561 1_556 S
C593 C590 1.526 . S
C593 C594 1.396 . S
C593 C598 1.390 1_655 S
C594 C588 1.465 . S
C594 C593 1.396 . S
C594 C595 1.399 . S
C595 H581 0.929 . S
C595 C594 1.399 . S
C595 C596 1.385 . S
C596 H582 0.931 . S
C596 C595 1.385 . S
C596 C597 1.389 1_655 S
C597 C596 1.389 1_455 S
C597 C598 1.387 . S
C598 H583 0.930 1_554 S
C598 C593 1.390 1_455 S
C598 C597 1.387 . S
H599 C611 0.930 . S
H600 C613 0.930 . S
H601 C614 0.930 . S
H602 C618 0.959 1_565 S
H603 C618 0.959 . S
H604 C618 0.961 . S
H605 C619 0.960 . S
H606 C619 0.961 . S
H607 C619 0.959 . S
H608 C622 0.929 . S
H609 C623 0.931 . S
H610 C625 0.930 . S
C611 H599 0.930 . S
C611 C612 1.399 . S
C611 C616 1.399 . S
C612 C611 1.399 . S
C612 C613 1.376 . S
C613 H600 0.930 . S
C613 C612 1.376 . S
C613 C614 1.388 . S
C614 H601 0.930 . S
C614 C613 1.388 . S
C614 C615 1.390 . S
C615 C614 1.390 . S
C615 C616 1.394 . S
C615 C621 1.465 . S
C616 C611 1.399 . S
C616 C615 1.394 . S
C616 C617 1.516 1_565 S
C617 C616 1.516 1_545 S
C617 C618 1.502 . S
C617 C619 1.561 . S
C617 C620 1.526 . S
C618 H602 0.959 1_545 S
C618 H603 0.959 . S
C618 H604 0.961 . S
C618 C617 1.502 . S
C619 H605 0.960 . S
C619 H606 0.961 . S
C619 H607 0.959 . S
C619 C617 1.561 . S
C620 C617 1.526 . S
C620 C621 1.396 1_545 S
C620 C625 1.390 . S
C621 C615 1.465 . S
C621 C620 1.396 1_565 S
C621 C622 1.399 1_554 S
C622 H608 0.929 . S
C622 C621 1.399 1_556 S
C622 C623 1.385 1_565 S
C623 H609 0.931 . S
C623 C622 1.385 1_545 S
C623 C624 1.389 . S
C624 C623 1.389 . S
C624 C625 1.387 1_556 S
C625 H610 0.930 . S
C625 C620 1.390 . S
C625 C624 1.387 1_554 S
H626 C638 0.930 . S
H627 C640 0.930 . S
H628 C641 0.930 . S
H629 C645 0.959 . S
H630 C645 0.959 . S
H631 C645 0.961 . S
H632 C646 0.960 . S
H633 C646 0.961 . S
H634 C646 0.959 . S
H635 C649 0.929 1_554 S
H636 C650 0.931 . S
H637 C652 0.930 . S
C638 H626 0.930 . S
C638 C639 1.399 . S
C638 C643 1.399 . S
C639 C638 1.399 . S
C639 C640 1.376 . S
C640 H627 0.930 . S
C640 C639 1.376 . S
C640 C641 1.388 . S
C641 H628 0.930 . S
C641 C640 1.388 . S
C641 C642 1.390 . S
C642 C641 1.390 . S
C642 C643 1.394 . S
C642 C648 1.465 . S
C643 C638 1.399 . S
C643 C642 1.394 . S
C643 C644 1.516 . S
C644 C643 1.516 . S
C644 C645 1.502 . S
C644 C646 1.561 1_554 S
C644 C647 1.526 1_554 S
C645 H629 0.959 . S
C645 H630 0.959 . S
C645 H631 0.961 . S
C645 C644 1.502 . S
C646 H632 0.960 . S
C646 H633 0.961 . S
C646 H634 0.959 . S
C646 C644 1.561 1_556 S
C647 C644 1.526 1_556 S
C647 C648 1.396 1_556 S
C647 C652 1.390 . S
C648 C642 1.465 . S
C648 C647 1.396 1_554 S
C648 C649 1.399 1_554 S
C649 H635 0.929 1_556 S
C649 C648 1.399 1_556 S
C649 C650 1.385 . S
C650 H636 0.931 . S
C650 C649 1.385 . S
C650 C651 1.389 . S
C651 C650 1.389 . S
C651 C652 1.387 . S
C652 H637 0.930 . S
C652 C647 1.390 . S
C652 C651 1.387 . S
H653 C665 0.930 . S
H654 C667 0.930 . S
H655 C668 0.930 . S
H656 C672 0.959 . S
H657 C672 0.959 . S
H658 C672 0.961 . S
H659 C673 0.960 . S
H660 C673 0.961 . S
H661 C673 0.959 . S
H662 C676 0.929 . S
H663 C677 0.931 . S
H664 C679 0.930 1_556 S
C665 H653 0.930 . S
C665 C666 1.399 . S
C665 C670 1.399 . S
C666 C665 1.399 . S
C666 C667 1.376 . S
C667 H654 0.930 . S
C667 C666 1.376 . S
C667 C668 1.388 . S
C668 H655 0.930 . S
C668 C667 1.388 . S
C668 C669 1.390 . S
C669 C668 1.390 . S
C669 C670 1.394 . S
C669 C675 1.465 . S
C670 C665 1.399 . S
C670 C669 1.394 . S
C670 C671 1.516 . S
C671 C670 1.516 . S
C671 C672 1.502 1_554 S
C671 C673 1.561 . S
C671 C674 1.526 . S
C672 H656 0.959 . S
C672 H657 0.959 . S
C672 H658 0.961 . S
C672 C671 1.502 1_556 S
C673 H659 0.960 . S
C673 H660 0.961 . S
C673 H661 0.959 . S
C673 C671 1.561 . S
C674 C671 1.526 . S
C674 C675 1.396 . S
C674 C679 1.390 . S
C675 C669 1.465 . S
C675 C674 1.396 . S
C675 C676 1.399 . S
C676 H662 0.929 . S
C676 C675 1.399 . S
C676 C677 1.385 . S
C677 H663 0.931 . S
C677 C676 1.385 . S
C677 C678 1.389 . S
C678 C677 1.389 . S
C678 C679 1.387 . S
C679 H664 0.930 1_554 S
C679 C674 1.390 . S
C679 C678 1.387 . S
H680 C692 0.930 . S
H681 C694 0.930 . S
H682 C695 0.930 . S
H683 C699 0.959 . S
H684 C699 0.959 . S
H685 C699 0.961 . S
H686 C700 0.960 . S
H687 C700 0.961 . S
H688 C700 0.959 . S
H689 C703 0.929 1_655 S
H690 C704 0.931 1_655 S
H691 C706 0.930 . S
C692 H680 0.930 . S
C692 C693 1.399 . S
C692 C697 1.399 . S
C693 C692 1.399 . S
C693 C694 1.376 . S
C694 H681 0.930 . S
C694 C693 1.376 . S
C694 C695 1.388 . S
C695 H682 0.930 . S
C695 C694 1.388 . S
C695 C696 1.390 . S
C696 C695 1.390 . S
C696 C697 1.394 . S
C696 C702 1.465 . S
C697 C692 1.399 . S
C697 C696 1.394 . S
C697 C698 1.516 . S
C698 C697 1.516 . S
C698 C699 1.502 . S
C698 C700 1.561 . S
C698 C701 1.526 . S
C699 H683 0.959 . S
C699 H684 0.959 . S
C699 H685 0.961 . S
C699 C698 1.502 . S
C700 H686 0.960 . S
C700 H687 0.961 . S
C700 H688 0.959 . S
C700 C698 1.561 . S
C701 C698 1.526 . S
C701 C702 1.396 . S
C701 C706 1.390 . S
C702 C696 1.465 . S
C702 C701 1.396 . S
C702 C703 1.399 . S
C703 H689 0.929 1_455 S
C703 C702 1.399 . S
C703 C704 1.385 . S
C704 H690 0.931 1_455 S
C704 C703 1.385 . S
C704 C705 1.389 . S
C705 C704 1.389 . S
C705 C706 1.387 . S
C706 H691 0.930 . S
C706 C701 1.390 . S
C706 C705 1.387 . S
H707 C719 0.930 . S
H708 C721 0.930 . S
H709 C722 0.930 1_565 S
H710 C726 0.959 . S
H711 C726 0.959 . S
H712 C726 0.961 . S
H713 C727 0.960 . S
H714 C727 0.961 . S
H715 C727 0.959 . S
H716 C730 0.929 1_565 S
H717 C731 0.931 1_565 S
H718 C733 0.930 . S
C719 H707 0.930 . S
C719 C720 1.399 . S
C719 C724 1.399 . S
C720 C719 1.399 . S
C720 C721 1.376 . S
C721 H708 0.930 . S
C721 C720 1.376 . S
C721 C722 1.388 . S
C722 H709 0.930 1_545 S
C722 C721 1.388 . S
C722 C723 1.390 . S
C723 C722 1.390 . S
C723 C724 1.394 . S
C723 C729 1.465 . S
C724 C719 1.399 . S
C724 C723 1.394 . S
C724 C725 1.516 . S
C725 C724 1.516 . S
C725 C726 1.502 . S
C725 C727 1.561 . S
C725 C728 1.526 . S
C726 H710 0.959 . S
C726 H711 0.959 . S
C726 H712 0.961 . S
C726 C725 1.502 . S
C727 H713 0.960 . S
C727 H714 0.961 . S
C727 H715 0.959 . S
C727 C725 1.561 . S
C728 C725 1.526 . S
C728 C729 1.396 . S
C728 C733 1.390 . S
C729 C723 1.465 . S
C729 C728 1.396 . S
C729 C730 1.399 . S
C730 H716 0.929 1_545 S
C730 C729 1.399 . S
C730 C731 1.385 . S
C731 H717 0.931 1_545 S
C731 C730 1.385 . S
C731 C732 1.389 . S
C732 C731 1.389 . S
C732 C733 1.387 . S
C733 H718 0.930 . S
C733 C728 1.390 . S
C733 C732 1.387 . S
H734 C746 0.930 . S
H735 C748 0.930 . S
H736 C749 0.930 . S
H737 C753 0.959 . S
H738 C753 0.959 . S
H739 C753 0.961 . S
H740 C754 0.960 . S
H741 C754 0.961 . S
H742 C754 0.959 . S
H743 C757 0.929 . S
H744 C758 0.931 . S
H745 C760 0.930 . S
C746 H734 0.930 . S
C746 C747 1.399 . S
C746 C751 1.399 . S
C747 C746 1.399 . S
C747 C748 1.376 . S
C748 H735 0.930 . S
C748 C747 1.376 . S
C748 C749 1.388 . S
C749 H736 0.930 . S
C749 C748 1.388 . S
C749 C750 1.390 . S
C750 C749 1.390 . S
C750 C751 1.394 . S
C750 C756 1.465 . S
C751 C746 1.399 . S
C751 C750 1.394 . S
C751 C752 1.516 . S
C752 C751 1.516 . S
C752 C753 1.502 . S
C752 C754 1.561 . S
C752 C755 1.526 . S
C753 H737 0.959 . S
C753 H738 0.959 . S
C753 H739 0.961 . S
C753 C752 1.502 . S
C754 H740 0.960 . S
C754 H741 0.961 . S
C754 H742 0.959 . S
C754 C752 1.561 . S
C755 C752 1.526 . S
C755 C756 1.396 . S
C755 C760 1.390 . S
C756 C750 1.465 . S
C756 C755 1.396 . S
C756 C757 1.399 . S
C757 H743 0.929 . S
C757 C756 1.399 . S
C757 C758 1.385 . S
C758 H744 0.931 . S
C758 C757 1.385 . S
C758 C759 1.389 . S
C759 C758 1.389 . S
C759 C760 1.387 . S
C760 H745 0.930 . S
C760 C755 1.390 . S
C760 C759 1.387 . S
H761 C773 0.930 . S
H762 C775 0.930 . S
H763 C776 0.930 . S
H764 C780 0.959 . S
H765 C780 0.959 . S
H766 C780 0.961 . S
H767 C781 0.960 . S
H768 C781 0.961 . S
H769 C781 0.959 . S
H770 C784 0.929 . S
H771 C785 0.931 . S
H772 C787 0.930 . S
C773 H761 0.930 . S
C773 C774 1.399 . S
C773 C778 1.399 . S
C774 C773 1.399 . S
C774 C775 1.376 . S
C775 H762 0.930 . S
C775 C774 1.376 . S
C775 C776 1.388 . S
C776 H763 0.930 . S
C776 C775 1.388 . S
C776 C777 1.390 . S
C777 C776 1.390 . S
C777 C778 1.394 . S
C777 C783 1.465 . S
C778 C773 1.399 . S
C778 C777 1.394 . S
C778 C779 1.516 . S
C779 C778 1.516 . S
C779 C780 1.502 . S
C779 C781 1.561 . S
C779 C782 1.526 . S
C780 H764 0.959 . S
C780 H765 0.959 . S
C780 H766 0.961 . S
C780 C779 1.502 . S
C781 H767 0.960 . S
C781 H768 0.961 . S
C781 H769 0.959 . S
C781 C779 1.561 . S
C782 C779 1.526 . S
C782 C783 1.396 . S
C782 C787 1.390 . S
C783 C777 1.465 . S
C783 C782 1.396 . S
C783 C784 1.399 . S
C784 H770 0.929 . S
C784 C783 1.399 . S
C784 C785 1.385 . S
C785 H771 0.931 . S
C785 C784 1.385 . S
C785 C786 1.389 . S
C786 C785 1.389 . S
C786 C787 1.387 . S
C787 H772 0.930 . S
C787 C782 1.390 . S
C787 C786 1.387 . S
H788 C800 0.930 . S
H789 C802 0.930 . S
H790 C803 0.930 1_455 S
H791 C807 0.959 . S
H792 C807 0.959 . S
H793 C807 0.961 . S
H794 C808 0.960 . S
H795 C808 0.961 . S
H796 C808 0.959 . S
H797 C811 0.929 . S
H798 C812 0.931 . S
H799 C814 0.930 . S
C800 H788 0.930 . S
C800 C801 1.399 . S
C800 C805 1.399 . S
C801 C800 1.399 . S
C801 C802 1.376 . S
C802 H789 0.930 . S
C802 C801 1.376 . S
C802 C803 1.388 . S
C803 H790 0.930 1_655 S
C803 C802 1.388 . S
C803 C804 1.390 . S
C804 C803 1.390 . S
C804 C805 1.394 . S
C804 C810 1.465 . S
C805 C800 1.399 . S
C805 C804 1.394 . S
C805 C806 1.516 . S
C806 C805 1.516 . S
C806 C807 1.502 . S
C806 C808 1.561 . S
C806 C809 1.526 . S
C807 H791 0.959 . S
C807 H792 0.959 . S
C807 H793 0.961 . S
C807 C806 1.502 . S
C808 H794 0.960 . S
C808 H795 0.961 . S
C808 H796 0.959 . S
C808 C806 1.561 . S
C809 C806 1.526 . S
C809 C810 1.396 . S
C809 C814 1.390 . S
C810 C804 1.465 . S
C810 C809 1.396 . S
C810 C811 1.399 1_655 S
C811 H797 0.929 . S
C811 C810 1.399 1_455 S
C811 C812 1.385 . S
C812 H798 0.931 . S
C812 C811 1.385 . S
C812 C813 1.389 1_455 S
C813 C812 1.389 1_655 S
C813 C814 1.387 . S
C814 H799 0.930 . S
C814 C809 1.390 . S
C814 C813 1.387 . S
H815 C827 0.930 1_545 S
H816 C829 0.930 . S
H817 C830 0.930 . S
H818 C834 0.959 . S
H819 C834 0.959 . S
H820 C834 0.961 . S
H821 C835 0.960 . S
H822 C835 0.961 . S
H823 C835 0.959 1_565 S
H824 C838 0.929 . S
H825 C839 0.931 . S
H826 C841 0.930 . S
C827 H815 0.930 1_565 S
C827 C828 1.399 . S
C827 C832 1.399 . S
C828 C827 1.399 . S
C828 C829 1.376 . S
C829 H816 0.930 . S
C829 C828 1.376 . S
C829 C830 1.388 . S
C830 H817 0.930 . S
C830 C829 1.388 . S
C830 C831 1.390 . S
C831 C830 1.390 . S
C831 C832 1.394 . S
C831 C837 1.465 . S
C832 C827 1.399 . S
C832 C831 1.394 . S
C832 C833 1.516 1_565 S
C833 C832 1.516 1_545 S
C833 C834 1.502 . S
C833 C835 1.561 . S
C833 C836 1.526 1_545 S
C834 H818 0.959 . S
C834 H819 0.959 . S
C834 H820 0.961 . S
C834 C833 1.502 . S
C835 H821 0.960 . S
C835 H822 0.961 . S
C835 H823 0.959 1_545 S
C835 C833 1.561 . S
C836 C833 1.526 1_565 S
C836 C837 1.396 . S
C836 C841 1.390 1_565 S
C837 C831 1.465 . S
C837 C836 1.396 . S
C837 C838 1.399 . S
C838 H824 0.929 . S
C838 C837 1.399 . S
C838 C839 1.385 . S
C839 H825 0.931 . S
C839 C838 1.385 . S
C839 C840 1.389 . S
C840 C839 1.389 . S
C840 C841 1.387 1_565 S
C841 H826 0.930 . S
C841 C836 1.390 1_545 S
C841 C840 1.387 1_545 S
H842 C854 0.930 . S
H843 C856 0.930 . S
H844 C857 0.930 . S
H845 C861 0.959 . S
H846 C861 0.959 . S
H847 C861 0.961 . S
H848 C862 0.960 . S
H849 C862 0.961 . S
H850 C862 0.959 . S
H851 C865 0.929 . S
H852 C866 0.931 . S
H853 C868 0.930 . S
C854 H842 0.930 . S
C854 C855 1.399 . S
C854 C859 1.399 . S
C855 C854 1.399 . S
C855 C856 1.376 . S
C856 H843 0.930 . S
C856 C855 1.376 . S
C856 C857 1.388 . S
C857 H844 0.930 . S
C857 C856 1.388 . S
C857 C858 1.390 . S
C858 C857 1.390 . S
C858 C859 1.394 . S
C858 C864 1.465 . S
C859 C854 1.399 . S
C859 C858 1.394 . S
C859 C860 1.516 . S
C860 C859 1.516 . S
C860 C861 1.502 . S
C860 C862 1.561 . S
C860 C863 1.526 . S
C861 H845 0.959 . S
C861 H846 0.959 . S
C861 H847 0.961 . S
C861 C860 1.502 . S
C862 H848 0.960 . S
C862 H849 0.961 . S
C862 H850 0.959 . S
C862 C860 1.561 . S
C863 C860 1.526 . S
C863 C864 1.396 . S
C863 C868 1.390 . S
C864 C858 1.465 . S
C864 C863 1.396 . S
C864 C865 1.399 . S
C865 H851 0.929 . S
C865 C864 1.399 . S
C865 C866 1.385 . S
C866 H852 0.931 . S
C866 C865 1.385 . S
C866 C867 1.389 . S
C867 C866 1.389 . S
C867 C868 1.387 . S
C868 H853 0.930 . S
C868 C863 1.390 . S
C868 C867 1.387 . S
H869 C881 0.930 . S
H870 C883 0.930 . S
H871 C884 0.930 . S
H872 C888 0.959 . S
H873 C888 0.959 . S
H874 C888 0.961 . S
H875 C889 0.960 . S
H876 C889 0.961 . S
H877 C889 0.959 . S
H878 C892 0.929 . S
H879 C893 0.931 . S
H880 C895 0.930 . S
C881 H869 0.930 . S
C881 C882 1.399 . S
C881 C886 1.399 . S
C882 C881 1.399 . S
C882 C883 1.376 . S
C883 H870 0.930 . S
C883 C882 1.376 . S
C883 C884 1.388 . S
C884 H871 0.930 . S
C884 C883 1.388 . S
C884 C885 1.390 . S
C885 C884 1.390 . S
C885 C886 1.394 . S
C885 C891 1.465 . S
C886 C881 1.399 . S
C886 C885 1.394 . S
C886 C887 1.516 . S
C887 C886 1.516 . S
C887 C888 1.502 . S
C887 C889 1.561 . S
C887 C890 1.526 . S
C888 H872 0.959 . S
C888 H873 0.959 . S
C888 H874 0.961 . S
C888 C887 1.502 . S
C889 H875 0.960 . S
C889 H876 0.961 . S
C889 H877 0.959 . S
C889 C887 1.561 . S
C890 C887 1.526 . S
C890 C891 1.396 . S
C890 C895 1.390 . S
C891 C885 1.465 . S
C891 C890 1.396 . S
C891 C892 1.399 . S
C892 H878 0.929 . S
C892 C891 1.399 . S
C892 C893 1.385 . S
C893 H879 0.931 . S
C893 C892 1.385 . S
C893 C894 1.389 . S
C894 C893 1.389 . S
C894 C895 1.387 . S
C895 H880 0.930 . S
C895 C890 1.390 . S
C895 C894 1.387 . S
C261 C74 2.197 . S
C273 C119 2.269 . S
C300 C145 1.789 . S
C288 C85 1.666 . S
C327 C185 1.877 . S
C315 C52 1.754 . S
C354 C239 2.323 . S
C342 C63 2.202 . S
C381 C100 2.284 1_565 S
C369 C30 2.098 . S
C396 C41 1.721 . S
C408 C130 1.787 . S
C423 C8 1.717 . S
C435 C170 1.868 . S
C450 C19 2.160 . S
C462 C220 2.318 1_655 S
C489 C96 0.503 . S
C477 C62 0.544 . S
C516 C157 0.748 1_545 S
C504 C73 0.839 . S
C543 C197 0.664 . S
C531 C84 0.721 . S
C558 C51 0.392 . S
C570 C216 0.407 . S
C585 C18 0.708 . S
C597 C117 0.605 . S
C624 C136 0.832 . S
C612 C29 0.746 . S
C651 C176 0.628 . S
C639 C40 0.725 . S
C666 C7 0.463 . S
C678 C237 0.513 1_554 S
C693 C60 1.743 . S
C705 C90 2.082 . S
C720 C71 2.164 . S
C732 C140 2.577 . S
C759 C180 2.348 . S
C747 C82 1.863 . S
C786 C210 1.826 . S
C774 C49 1.489 . S
C801 C16 1.450 . S
C813 C105 2.082 . S
C840 C159 2.591 . S
C828 C27 2.076 . S
C867 C199 2.351 . S
C855 C38 1.923 . S
C882 C5 1.419 . S
C894 C225 1.824 . S
