# Generated by pormake.
# Topology pyr, (3,6)-cn, num edge types: 1
# Building blocks:
#     Node 0, Type 0, BuildingBlock: WUSLED_clean_sbu_0, # of connection points: 3
#     Node 1, Type 0, BuildingBlock: WUSLED_clean_sbu_0, # of connection points: 3
#     Node 2, Type 0, BuildingBlock: WUSLED_clean_sbu_0, # of connection points: 3
#     Node 3, Type 0, BuildingBlock: WUSLED_clean_sbu_0, # of connection points: 3
#     Node 4, Type 0, BuildingBlock: WUSLED_clean_sbu_0, # of connection points: 3
#     Node 5, Type 0, BuildingBlock: WUSLED_clean_sbu_0, # of connection points: 3
#     Node 6, Type 0, BuildingBlock: WUSLED_clean_sbu_0, # of connection points: 3
#     Node 7, Type 0, BuildingBlock: WUSLED_clean_sbu_0, # of connection points: 3
#     Node 8, Type 1, BuildingBlock: INOVEN_clean_sbu_0, # of connection points: 6
#     Node 9, Type 1, BuildingBlock: INOVEN_clean_sbu_0, # of connection points: 6
#     Node 10, Type 1, BuildingBlock: INOVEN_clean_sbu_0, # of connection points: 6
#     Node 11, Type 1, BuildingBlock: INOVEN_clean_sbu_0, # of connection points: 6
#     Edge 12, Type (0, 1), BuildingBlock: XUDNAN_clean_linker_2, # of connection points: 2
#     Edge 13, Type (0, 1), BuildingBlock: XUDNAN_clean_linker_2, # of connection points: 2
#     Edge 14, Type (0, 1), BuildingBlock: XUDNAN_clean_linker_2, # of connection points: 2
#     Edge 15, Type (0, 1), BuildingBlock: XUDNAN_clean_linker_2, # of connection points: 2
#     Edge 16, Type (0, 1), BuildingBlock: XUDNAN_clean_linker_2, # of connection points: 2
#     Edge 17, Type (0, 1), BuildingBlock: XUDNAN_clean_linker_2, # of connection points: 2
#     Edge 18, Type (0, 1), BuildingBlock: XUDNAN_clean_linker_2, # of connection points: 2
#     Edge 19, Type (0, 1), BuildingBlock: XUDNAN_clean_linker_2, # of connection points: 2
#     Edge 20, Type (0, 1), BuildingBlock: XUDNAN_clean_linker_2, # of connection points: 2
#     Edge 21, Type (0, 1), BuildingBlock: XUDNAN_clean_linker_2, # of connection points: 2
#     Edge 22, Type (0, 1), BuildingBlock: XUDNAN_clean_linker_2, # of connection points: 2
#     Edge 23, Type (0, 1), BuildingBlock: XUDNAN_clean_linker_2, # of connection points: 2
#     Edge 24, Type (0, 1), BuildingBlock: XUDNAN_clean_linker_2, # of connection points: 2
#     Edge 25, Type (0, 1), BuildingBlock: XUDNAN_clean_linker_2, # of connection points: 2
#     Edge 26, Type (0, 1), BuildingBlock: XUDNAN_clean_linker_2, # of connection points: 2
#     Edge 27, Type (0, 1), BuildingBlock: XUDNAN_clean_linker_2, # of connection points: 2
#     Edge 28, Type (0, 1), BuildingBlock: XUDNAN_clean_linker_2, # of connection points: 2
#     Edge 29, Type (0, 1), BuildingBlock: XUDNAN_clean_linker_2, # of connection points: 2
#     Edge 30, Type (0, 1), BuildingBlock: XUDNAN_clean_linker_2, # of connection points: 2
#     Edge 31, Type (0, 1), BuildingBlock: XUDNAN_clean_linker_2, # of connection points: 2
#     Edge 32, Type (0, 1), BuildingBlock: XUDNAN_clean_linker_2, # of connection points: 2
#     Edge 33, Type (0, 1), BuildingBlock: XUDNAN_clean_linker_2, # of connection points: 2
#     Edge 34, Type (0, 1), BuildingBlock: XUDNAN_clean_linker_2, # of connection points: 2
#     Edge 35, Type (0, 1), BuildingBlock: XUDNAN_clean_linker_2, # of connection points: 2
# Relax obj value: 0.083
# Max RMSD: 0.125
# Mean RMSD: 0.056
data_MOF--net-pyr--node1-WUSLED_clean_sbu_0--node2-INOVEN_clean_sbu_0--edge1-XUDNAN_clean_linker_2
_symmetry_space_group_name_H-M    P1
_symmetry_Int_Tables_number       1
_symmetry_cell_setting            triclinic
loop_
_symmetry_equiv_pos_as_xyz
'x, y, z'
_cell_length_a     49.044784
_cell_length_b     51.811522
_cell_length_c     45.795095
_cell_angle_alpha  90.586502
_cell_angle_beta   88.317871
_cell_angle_gamma 100.53662
loop_
_atom_site_label
_atom_site_type_symbol
_atom_site_fract_x
_atom_site_fract_y
_atom_site_fract_z
_atom_type_partial_charge
C0 C 0.31749 0.32832 0.16755 0.0
C1 C 0.31762 0.35081 0.18503 0.0
C2 C 0.27851 0.36136 0.15894 0.0
C3 C 0.29848 0.36724 0.18063 0.0
C4 C 0.27951 0.3397 0.14038 0.0
C5 C 0.29887 0.32344 0.14459 0.0
U6 U 0.33273 0.28287 0.22511 0.0
O7 O 0.33304 0.24043 0.22425 0.0
O8 O 0.36967 0.26816 0.23868 0.0
C9 C 0.35894 0.24363 0.23233 0.0
C10 C 0.33327 0.30787 0.17573 0.0
C11 C 0.37692 0.2281 0.21615 0.0
C12 C 0.4204 0.22413 0.1911 0.0
C13 C 0.40268 0.23976 0.20363 0.0
C14 C 0.38656 0.18509 0.20255 0.0
C15 C 0.41267 0.19661 0.19076 0.0
C16 C 0.36894 0.20068 0.21521 0.0
C17 C 0.29348 0.28555 0.29731 0.0
C18 C 0.28996 0.24971 0.33164 0.0
C19 C 0.26306 0.28409 0.3402 0.0
C20 C 0.27474 0.29673 0.31477 0.0
C21 C 0.26985 0.25999 0.34831 0.0
C22 C 0.3017 0.26242 0.30631 0.0
C23 C 0.30163 0.29619 0.26821 0.0
O24 O 0.35247 0.31445 0.19536 0.0
O25 O 0.31772 0.28475 0.18058 0.0
O26 O 0.29191 0.2805 0.24674 0.0
O27 O 0.3279 0.30693 0.26425 0.0
H28 H 0.33165 0.35514 0.20299 0.0
H29 H 0.29876 0.38408 0.19489 0.0
H30 H 0.26436 0.33436 0.12362 0.0
H31 H 0.29823 0.30614 0.13095 0.0
H32 H 0.44025 0.23359 0.18184 0.0
H33 H 0.40941 0.26086 0.20399 0.0
H34 H 0.38011 0.16395 0.2029 0.0
H35 H 0.34929 0.19123 0.22496 0.0
H36 H 0.29573 0.23128 0.33756 0.0
H37 H 0.24743 0.29231 0.35246 0.0
H38 H 0.2681 0.31452 0.30797 0.0
H39 H 0.31616 0.25354 0.29299 0.0
C40 C 0.20193 0.85485 0.62372 0.0
C41 C 0.18088 0.85504 0.64525 0.0
C42 C 0.15719 0.88025 0.61336 0.0
C43 C 0.15862 0.86757 0.64004 0.0
C44 C 0.17693 0.8782 0.59105 0.0
C45 C 0.19902 0.86542 0.59612 0.0
U46 U 0.2671 0.87057 0.66582 0.0
O47 O 0.29165 0.84649 0.68939 0.0
O48 O 0.31083 0.87167 0.65324 0.0
C49 C 0.31353 0.85333 0.67198 0.0
C50 C 0.22866 0.84758 0.63102 0.0
C51 C 0.32539 0.83161 0.65962 0.0
C52 C 0.32184 0.79276 0.62897 0.0
C53 C 0.31009 0.81328 0.64082 0.0
C54 C 0.36425 0.80898 0.65454 0.0
C55 C 0.34902 0.79036 0.63583 0.0
C56 C 0.35248 0.82943 0.66635 0.0
C57 C 0.2779 0.92929 0.71494 0.0
C58 C 0.32101 0.93814 0.74085 0.0
C59 C 0.28662 0.96586 0.74893 0.0
C60 C 0.2694 0.95079 0.72885 0.0
C61 C 0.31248 0.95947 0.75533 0.0
C62 C 0.30386 0.92317 0.72085 0.0
C63 C 0.25979 0.91278 0.69462 0.0
O64 O 0.25064 0.86426 0.62172 0.0
O65 O 0.23077 0.83975 0.65799 0.0
O66 O 0.25014 0.88889 0.70407 0.0
O67 O 0.26942 0.91333 0.66751 0.0
H68 H 0.18236 0.84694 0.66672 0.0
H69 H 0.14362 0.86891 0.65757 0.0
H70 H 0.17597 0.88753 0.57013 0.0
H71 H 0.21479 0.8653 0.57906 0.0
H72 H 0.30957 0.77859 0.61481 0.0
H73 H 0.2891 0.81486 0.63539 0.0
H74 H 0.3854 0.80791 0.65981 0.0
H75 H 0.36457 0.84361 0.68067 0.0
H76 H 0.34097 0.93297 0.74501 0.0
H77 H 0.27943 0.98206 0.75996 0.0
H78 H 0.24937 0.9557 0.72447 0.0
H79 H 0.31074 0.90665 0.71015 0.0
C80 C 0.64914 0.3916 0.79306 0.0
C81 C 0.66552 0.41642 0.78793 0.0
C82 C 0.63569 0.42468 0.74787 0.0
C83 C 0.65894 0.43268 0.76565 0.0
C84 C 0.61978 0.3995 0.75279 0.0
C85 C 0.62639 0.38329 0.77504 0.0
U86 U 0.68782 0.37026 0.86107 0.0
O87 O 0.66847 0.34756 0.89945 0.0
O88 O 0.69722 0.33102 0.87034 0.0
C89 C 0.68082 0.32749 0.89375 0.0
C90 C 0.65472 0.37402 0.81705 0.0
C91 C 0.66595 0.30018 0.90061 0.0
C92 C 0.66998 0.25534 0.91353 0.0
C93 C 0.68191 0.28049 0.90356 0.0
C94 C 0.62524 0.26838 0.91763 0.0
C95 C 0.64139 0.24862 0.92077 0.0
C96 C 0.63737 0.29384 0.90783 0.0
C97 C 0.75334 0.41666 0.89244 0.0
C98 C 0.77404 0.419 0.94056 0.0
C99 C 0.80092 0.44 0.89949 0.0
C100 C 0.77833 0.43153 0.88132 0.0
C101 C 0.79926 0.43382 0.92946 0.0
C102 C 0.75145 0.41053 0.92234 0.0
C103 C 0.72949 0.40902 0.87255 0.0
O104 O 0.67733 0.36381 0.81455 0.0
O105 O 0.64974 0.38116 0.84403 0.0
O106 O 0.70426 0.40742 0.88384 0.0
O107 O 0.7313 0.3903 0.85342 0.0
H108 H 0.68328 0.42333 0.80128 0.0
H109 H 0.67214 0.45165 0.76244 0.0
H110 H 0.60162 0.39255 0.74006 0.0
H111 H 0.61337 0.36423 0.77845 0.0
H112 H 0.68361 0.24137 0.91631 0.0
H113 H 0.70407 0.28481 0.89897 0.0
H114 H 0.60319 0.26423 0.92269 0.0
H115 H 0.62445 0.3086 0.90631 0.0
H116 H 0.77157 0.41409 0.96352 0.0
H117 H 0.81989 0.451 0.88985 0.0
H118 H 0.78039 0.43669 0.85839 0.0
H119 H 0.73246 0.39931 0.93171 0.0
C120 C 0.80572 0.65462 0.38921 0.0
C121 C 0.79343 0.66996 0.40946 0.0
C122 C 0.75368 0.63398 0.41716 0.0
C123 C 0.7677 0.65966 0.42345 0.0
C124 C 0.76662 0.61867 0.39743 0.0
C125 C 0.79218 0.62883 0.38374 0.0
U126 U 0.8744 0.70365 0.36465 0.0
O127 O 0.91402 0.69248 0.35016 0.0
O128 O 0.89017 0.71024 0.31899 0.0
C129 C 0.91192 0.69924 0.32283 0.0
C130 C 0.83184 0.6646 0.37227 0.0
C131 C 0.91847 0.6804 0.29983 0.0
C132 C 0.9133 0.63627 0.27877 0.0
C133 C 0.90525 0.65397 0.29946 0.0
C134 C 0.94745 0.67115 0.25776 0.0
C135 C 0.93493 0.6444 0.25786 0.0
C136 C 0.93936 0.68882 0.27848 0.0
C137 C 0.89359 0.77214 0.40717 0.0
C138 C 0.93305 0.80853 0.40357 0.0
C139 C 0.89515 0.81152 0.43758 0.0
C140 C 0.8817 0.7865 0.42871 0.0
C141 C 0.92105 0.82311 0.42514 0.0
C142 C 0.91951 0.78335 0.39471 0.0
C143 C 0.87815 0.74565 0.39885 0.0
O144 O 0.83183 0.68424 0.35434 0.0
O145 O 0.85547 0.66605 0.38554 0.0
O146 O 0.8891 0.72506 0.40491 0.0
O147 O 0.86523 0.74324 0.37395 0.0
H148 H 0.80344 0.68994 0.41407 0.0
H149 H 0.75836 0.67205 0.43842 0.0
H150 H 0.75683 0.59873 0.39233 0.0
H151 H 0.80121 0.61654 0.36835 0.0
H152 H 0.90265 0.61604 0.2794 0.0
H153 H 0.88898 0.64688 0.31548 0.0
H154 H 0.96425 0.6783 0.24238 0.0
H155 H 0.94997 0.70909 0.27821 0.0
H156 H 0.95309 0.81645 0.39363 0.0
H157 H 0.88486 0.822 0.45381 0.0
H158 H 0.86172 0.77834 0.4387 0.0
H159 H 0.92926 0.7727 0.37819 0.0
C160 C 0.73697 0.73564 0.93109 0.0
C161 C 0.73599 0.71303 0.91359 0.0
C162 C 0.77478 0.70126 0.9393 0.0
C163 C 0.75457 0.69598 0.91778 0.0
C164 C 0.77492 0.7233 0.95756 0.0
C165 C 0.75614 0.7402 0.95357 0.0
U166 U 0.71898 0.78384 0.87724 0.0
O167 O 0.68033 0.79805 0.86759 0.0
O168 O 0.71745 0.82567 0.88098 0.0
C169 C 0.69109 0.82242 0.87456 0.0
C170 C 0.72043 0.75593 0.92431 0.0
C171 C 0.67372 0.83768 0.89214 0.0
C172 C 0.67104 0.87347 0.92626 0.0
C173 C 0.68518 0.85444 0.91475 0.0
C174 C 0.63257 0.85792 0.89484 0.0
C175 C 0.64509 0.87597 0.91567 0.0
C176 C 0.64688 0.83902 0.883 0.0
C177 C 0.7586 0.78943 0.80434 0.0
C178 C 0.74829 0.81588 0.76398 0.0
C179 C 0.79576 0.81152 0.7724 0.0
C180 C 0.78674 0.79499 0.79594 0.0
C181 C 0.77674 0.82266 0.75642 0.0
C182 C 0.73931 0.7996 0.78789 0.0
C183 C 0.75065 0.7758 0.83219 0.0
O184 O 0.73508 0.77967 0.92091 0.0
O185 O 0.70126 0.74979 0.90457 0.0
O186 O 0.72478 0.76353 0.83556 0.0
O187 O 0.75993 0.78954 0.85524 0.0
H188 H 0.72147 0.70888 0.89605 0.0
H189 H 0.75341 0.67891 0.90371 0.0
H190 H 0.79032 0.72824 0.97415 0.0
H191 H 0.75739 0.75751 0.9673 0.0
H192 H 0.68102 0.88715 0.94244 0.0
H193 H 0.70579 0.85399 0.92236 0.0
H194 H 0.61263 0.85962 0.88623 0.0
H195 H 0.63768 0.82653 0.86543 0.0
H196 H 0.73298 0.8237 0.75193 0.0
H197 H 0.81786 0.81659 0.76779 0.0
H198 H 0.80197 0.78755 0.80854 0.0
H199 H 0.71747 0.79573 0.79408 0.0
C200 C 0.69312 0.2067 0.40988 0.0
C201 C 0.70324 0.18368 0.40284 0.0
C202 C 0.67083 0.17447 0.36345 0.0
C203 C 0.69204 0.16762 0.37999 0.0
C204 C 0.66128 0.19793 0.36987 0.0
C205 C 0.67227 0.21389 0.39313 0.0
U206 U 0.7518 0.22659 0.46058 0.0
O207 O 0.76856 0.26374 0.48284 0.0
O208 O 0.75259 0.22832 0.50849 0.0
C209 C 0.76077 0.25396 0.5088 0.0
C210 C 0.70424 0.22276 0.43492 0.0
C211 C 0.74288 0.26871 0.52594 0.0
C212 C 0.69669 0.27519 0.54091 0.0
C213 C 0.71408 0.2597 0.52779 0.0
C214 C 0.73663 0.30874 0.5512 0.0
C215 C 0.7077 0.30014 0.55212 0.0
C216 C 0.7541 0.29309 0.53825 0.0
C217 C 0.81564 0.19486 0.4455 0.0
C218 C 0.86005 0.18453 0.42931 0.0
C219 C 0.84489 0.17857 0.48006 0.0
C220 C 0.82084 0.18809 0.47416 0.0
C221 C 0.8643 0.1761 0.45754 0.0
C222 C 0.83572 0.19371 0.42329 0.0
C223 C 0.78846 0.20063 0.43794 0.0
O224 O 0.7077 0.20915 0.45814 0.0
O225 O 0.72549 0.24158 0.42892 0.0
O226 O 0.78776 0.22503 0.43088 0.0
O227 O 0.76747 0.18988 0.45494 0.0
H228 H 0.71962 0.17797 0.41526 0.0
H229 H 0.70006 0.14986 0.37512 0.0
H230 H 0.64496 0.20359 0.35732 0.0
H231 H 0.66436 0.23168 0.39819 0.0
H232 H 0.67448 0.26822 0.54075 0.0
H233 H 0.70486 0.24111 0.51807 0.0
H234 H 0.74565 0.32789 0.5597 0.0
H235 H 0.77625 0.30042 0.53687 0.0
H236 H 0.87477 0.18264 0.41166 0.0
H237 H 0.84793 0.17228 0.50203 0.0
H238 H 0.80579 0.18906 0.49174 0.0
H239 H 0.83206 0.19889 0.40106 0.0
C240 C 0.30648 0.68346 0.17582 0.0
C241 C 0.29275 0.68943 0.15092 0.0
C242 C 0.25654 0.65041 0.15757 0.0
C243 C 0.2682 0.67323 0.14193 0.0
C244 C 0.27029 0.64462 0.18281 0.0
C245 C 0.29491 0.66094 0.19182 0.0
U246 U 0.37458 0.71028 0.22025 0.0
O247 O 0.36467 0.69476 0.26482 0.0
O248 O 0.39048 0.67535 0.23529 0.0
C249 C 0.37941 0.67604 0.26174 0.0
C250 C 0.33239 0.70151 0.18433 0.0
C251 C 0.39535 0.66974 0.28761 0.0
C252 C 0.39723 0.66447 0.34064 0.0
C253 C 0.38521 0.67346 0.31611 0.0
C254 C 0.43021 0.6475 0.30926 0.0
C255 C 0.42 0.65132 0.33784 0.0
C256 C 0.41803 0.65648 0.28456 0.0
C257 C 0.41894 0.77909 0.19712 0.0
C258 C 0.45427 0.81688 0.18227 0.0
C259 C 0.4069 0.81456 0.16799 0.0
C260 C 0.39919 0.79025 0.18242 0.0
C261 C 0.43457 0.82852 0.16791 0.0
C262 C 0.44656 0.79262 0.19659 0.0
C263 C 0.4115 0.75438 0.21454 0.0
O264 O 0.35621 0.69392 0.1789 0.0
O265 O 0.33193 0.71418 0.20929 0.0
O266 O 0.38935 0.75188 0.2319 0.0
O267 O 0.41417 0.73221 0.20152 0.0
H268 H 0.30117 0.70671 0.13818 0.0
H269 H 0.25872 0.67833 0.12225 0.0
H270 H 0.26193 0.62751 0.1958 0.0
H271 H 0.30489 0.65594 0.21123 0.0
H272 H 0.38801 0.66733 0.36192 0.0
H273 H 0.36728 0.68273 0.31955 0.0
H274 H 0.4477 0.63764 0.30591 0.0
H275 H 0.4261 0.65258 0.26303 0.0
H276 H 0.47564 0.82684 0.18329 0.0
H277 H 0.39104 0.82239 0.15687 0.0
H278 H 0.37774 0.78034 0.18236 0.0
H279 H 0.46225 0.78463 0.20787 0.0
C280 C 0.13837 0.30731 0.70623 0.0
C281 C 0.15428 0.29656 0.68478 0.0
C282 C 0.11862 0.25651 0.68187 0.0
C283 C 0.14441 0.27146 0.67259 0.0
C284 C 0.10266 0.26786 0.70274 0.0
C285 C 0.11236 0.29276 0.71464 0.0
U286 U 0.18631 0.37601 0.72444 0.0
O287 O 0.17171 0.41209 0.73896 0.0
O288 O 0.19551 0.39255 0.76863 0.0
C289 C 0.18207 0.412 0.76511 0.0
C290 C 0.14798 0.33288 0.72141 0.0
C291 C 0.16527 0.4195 0.79053 0.0
C292 C 0.12149 0.419 0.81778 0.0
C293 C 0.13659 0.4103 0.79409 0.0
C294 C 0.16338 0.4463 0.83472 0.0
C295 C 0.13463 0.43724 0.83852 0.0
C296 C 0.1784 0.43753 0.81117 0.0
C297 C 0.25538 0.40097 0.6781 0.0
C298 C 0.29086 0.44035 0.684 0.0
C299 C 0.29594 0.40977 0.6449 0.0
C300 C 0.27081 0.39395 0.65394 0.0
C301 C 0.30653 0.43326 0.65975 0.0
C302 C 0.26559 0.4244 0.69306 0.0
C303 C 0.22918 0.38302 0.68699 0.0
O304 O 0.17003 0.33502 0.73753 0.0
O305 O 0.1466 0.35465 0.70749 0.0
O306 O 0.20565 0.39077 0.68215 0.0
O307 O 0.22881 0.37071 0.71199 0.0
H308 H 0.17444 0.30733 0.67784 0.0
H309 H 0.15735 0.26339 0.65666 0.0
H310 H 0.08258 0.2573 0.71019 0.0
H311 H 0.09957 0.30053 0.73099 0.0
H312 H 0.09938 0.4117 0.81955 0.0
H313 H 0.1258 0.39656 0.77845 0.0
H314 H 0.17449 0.45995 0.85022 0.0
H315 H 0.20048 0.44506 0.80897 0.0
H316 H 0.29797 0.45836 0.69591 0.0
H317 H 0.30736 0.40319 0.62656 0.0
H318 H 0.2635 0.37592 0.64208 0.0
H319 H 0.25411 0.43031 0.71175 0.0
Gd320 Gd 0.04113 0.05096 0.52721 0.0
Gd321 Gd 0.99841 1.03199 0.57403 0.0
C322 C 0.04467 0.08602 0.58446 0.0
C323 C 0.06938 0.06758 0.4805 0.0
C324 C 0.09122 0.09005 0.47247 0.0
C325 C 0.11601 0.08523 0.45943 0.0
C326 C 0.08809 0.11608 0.47817 0.0
C327 C 0.13417 0.13215 0.45705 0.0
C328 C 0.10936 0.13694 0.47042 0.0
C329 C 0.13732 0.10602 0.45196 0.0
C330 C 0.05774 1.02058 0.56817 0.0
C331 C 0.9959 0.99622 0.51678 0.0
C332 C 0.96958 1.01578 0.6206 0.0
C333 C 0.94523 0.99551 0.62831 0.0
C334 C 0.91937 0.9951 0.61561 0.0
C335 C 0.94768 0.97665 0.64934 0.0
C336 C 0.89867 0.95782 0.6457 0.0
C337 C 0.92466 0.95791 0.65789 0.0
C338 C 0.89629 0.97648 0.62434 0.0
C339 C 0.98107 0.06055 0.53206 0.0
O340 O 0.05082 0.08664 0.55618 0.0
O341 O 0.02803 0.06534 0.59623 0.0
O342 O 0.07675 0.05072 0.4983 0.0
O343 O 0.04447 0.07231 0.48645 0.0
O344 O 0.07375 0.04089 0.55668 0.0
O345 O 0.03439 1.01708 0.55675 0.0
O346 O 0.9886 0.99628 0.54483 0.0
O347 O 1.01318 1.01648 0.50504 0.0
O348 O 0.96519 1.03554 0.60498 0.0
O349 O 0.99233 1.00746 0.61268 0.0
O350 O 0.96576 0.04 0.54385 0.0
O351 O 1.00438 0.06552 0.54378 0.0
H352 H 0.11894 0.0653 0.45512 0.0
H353 H 0.06923 0.12034 0.48846 0.0
H354 H 0.1061 0.15681 0.47437 0.0
H355 H 0.15633 0.10155 0.44225 0.0
H356 H 0.91685 1.00929 0.59917 0.0
H357 H 0.96736 0.97664 0.6595 0.0
H358 H 0.92704 0.94398 0.67468 0.0
H359 H 0.87655 0.97672 0.61443 0.0
Gd360 Gd 0.55997 0.04367 0.06239 0.0
Gd361 Gd 0.50881 0.0392 1.03386 0.0
C362 C 0.51213 0.07094 0.09192 0.0
C363 C 0.60493 0.05901 0.09073 0.0
C364 C 0.61019 0.06651 0.12128 0.0
C365 C 0.59051 0.05719 0.14336 0.0
C366 C 0.63419 0.08435 0.12828 0.0
C367 C 0.6189 0.08346 0.17932 0.0
C368 C 0.63851 0.09283 0.15711 0.0
C369 C 0.59493 0.06546 0.17221 0.0
C370 C 0.52368 0.9988 0.07783 0.0
C371 C 0.55743 1.01256 1.00421 0.0
C372 C 0.46236 1.02579 1.0074 0.0
C373 C 0.45127 1.02457 0.97779 0.0
C374 C 0.43055 0.03903 0.97184 0.0
C375 C 0.46019 1.00871 0.95575 0.0
C376 C 0.42698 1.02116 0.9226 0.0
C377 C 0.44806 1.00697 0.92838 0.0
C378 C 0.41859 0.03744 0.94448 0.0
C379 C 0.54564 0.08357 1.01736 0.0
O380 O 0.53901 0.07267 0.08752 0.0
O381 O 0.49484 0.05398 0.07674 0.0
O382 O 0.59455 1.03433 0.08591 0.0
O383 O 0.59278 0.07494 0.07606 0.0
O384 O 0.54994 1.00016 0.07244 0.0
O385 O 0.51764 1.02141 0.0754 0.0
O386 O 0.53031 1.01002 1.00843 0.0
O387 O 0.57434 1.02949 1.01979 0.0
O388 O 0.47103 0.04924 1.0179 0.0
O389 O 0.47819 1.0091 1.01408 0.0
O390 O 0.51946 0.08256 1.02249 0.0
O391 O 0.55109 0.06087 1.02038 0.0
H392 H 0.57159 0.04375 0.13823 0.0
H393 H 0.64942 0.09191 0.1114 0.0
H394 H 0.65725 0.10657 0.16208 0.0
H395 H 0.57934 0.0582 0.18885 0.0
H396 H 0.42326 0.05127 0.98858 0.0
H397 H 0.47623 0.99741 0.9597 0.0
H398 H 0.45503 0.9944 0.9118 0.0
H399 H 0.40211 0.04829 0.9408 0.0
Gd400 Gd 0.52935 0.52099 0.52738 0.0
Gd401 Gd 0.53212 0.56682 0.56394 0.0
C402 C 0.55899 0.52215 0.59177 0.0
C403 C 0.5422 0.48136 0.49919 0.0
C404 C 0.55332 0.45876 0.50956 0.0
C405 C 0.54796 0.44996 0.53844 0.0
C406 C 0.57217 0.44805 0.49181 0.0
C407 C 0.58172 0.42123 0.53231 0.0
C408 C 0.58619 0.42937 0.50304 0.0
C409 C 0.56198 0.43128 0.5497 0.0
C410 C 0.48242 0.51899 0.56086 0.0
C411 C 0.50189 0.56632 0.50138 0.0
C412 C 0.52178 0.60643 0.5943 0.0
C413 C 0.50176 0.62411 0.59308 0.0
C414 C 0.50756 0.64857 0.60699 0.0
C415 C 0.4769 0.6168 0.57818 0.0
C416 C 0.46335 0.65814 0.59191 0.0
C417 C 0.45785 0.63376 0.57751 0.0
C418 C 0.48849 0.66548 0.60645 0.0
C419 C 0.57859 0.56811 0.52955 0.0
O420 O 0.55425 0.51013 0.56618 0.0
O421 O 0.55069 0.54452 0.59698 0.0
O422 O 0.51677 0.48261 0.50762 0.0
O423 O 0.55914 0.50385 0.50147 0.0
O424 O 0.48291 0.51167 0.5337 0.0
O425 O 0.50701 0.52686 0.56925 0.0
O426 O 0.50253 0.57421 0.52896 0.0
O427 O 0.51414 0.5465 0.49349 0.0
O428 O 0.54033 0.60863 0.57302 0.0
O429 O 0.51145 0.58204 0.60082 0.0
O430 O 0.57884 0.57538 0.55674 0.0
O431 O 0.5538 0.56082 0.5219 0.0
H432 H 0.53365 0.45819 0.55263 0.0
H433 H 0.57669 0.45475 0.46955 0.0
H434 H 0.60085 0.42157 0.4889 0.0
H435 H 0.55814 0.42548 0.57232 0.0
H436 H 0.52675 0.65452 0.61841 0.0
H437 H 0.47209 0.59789 0.56738 0.0
H438 H 0.43856 0.62754 0.56635 0.0
H439 H 0.49342 0.68433 0.61738 0.0
Gd440 Gd 0.03069 0.50446 0.06362 0.0
Gd441 Gd 0.02485 0.5583 1.03801 0.0
C442 C 0.08014 0.5556 0.07328 0.0
C443 C 0.04855 0.46076 0.06683 0.0
C444 C 0.06946 0.45089 0.08361 0.0
C445 C 0.08319 0.46595 0.10624 0.0
C446 C 0.07777 0.42745 0.07497 0.0
C447 C 0.11429 0.43462 0.11062 0.0
C448 C 0.09998 0.41935 0.08837 0.0
C449 C 0.10539 0.45782 0.11974 0.0
C450 C 1.01185 0.53348 0.10758 0.0
C451 C 0.97331 0.50732 1.032 0.0
C452 C 1.00714 0.60058 1.02448 0.0
C453 C 0.98176 0.60702 1.01233 0.0
C454 C 0.96609 0.5903 0.99219 0.0
C455 C 0.97287 0.63011 1.02135 0.0
C456 C 0.93329 0.62025 0.98959 0.0
C457 C 0.94885 0.63667 1.01013 0.0
C458 C 0.94211 0.59692 0.98082 0.0
C459 C 0.05038 0.52683 1.00261 0.0
O460 O 0.07253 0.52973 0.0718 0.0
O461 O 0.06396 0.5715 0.06384 0.0
O462 O 0.02631 0.46516 0.08126 0.0
O463 O 0.05875 0.47942 0.04836 0.0
O464 O 1.0165 0.50975 0.11037 0.0
O465 O 1.01754 0.54037 0.08129 0.0
O466 O 0.98257 0.53287 1.02774 0.0
O467 O 0.98856 0.49224 1.04467 0.0
O468 O 0.02267 0.58897 1.00689 0.0
O469 O 1.00451 0.59064 0.05076 0.0
O470 O 0.05809 0.55222 1.00395 0.0
O471 O 0.02943 0.52002 1.01936 0.0
H472 H 0.07724 0.48432 0.11288 0.0
H473 H 0.06751 0.41574 0.05736 0.0
H474 H 0.1061 0.40121 0.08115 0.0
H475 H 0.11616 0.47013 0.13661 0.0
H476 H 0.97241 0.5722 0.98518 0.0
H477 H 0.98462 0.64317 1.03699 0.0
H478 H 0.94278 0.65491 1.01708 0.0
H479 H 0.9304 0.58373 0.96529 0.0
H480 H 0.24655 0.20836 0.34519 0.0
H481 H 0.25484 0.27595 0.40305 0.0
H482 H 0.22297 0.24972 0.43921 0.0
H483 H 0.1758 0.1874 0.35752 0.0
H484 H 0.17688 0.15284 0.35553 0.0
H485 H 0.20268 0.17598 0.33606 0.0
H486 H 0.24173 0.15852 0.36234 0.0
H487 H 0.21601 0.13515 0.38177 0.0
H488 H 0.24133 0.15765 0.40169 0.0
H489 H 0.18769 0.2164 0.46746 0.0
H490 H 0.15201 0.17935 0.48508 0.0
H491 H 0.16621 0.13503 0.40687 0.0
C492 C 0.24234 0.21744 0.36584 0.0
C493 C 0.25345 0.24403 0.37158 0.0
C494 C 0.24662 0.25552 0.39837 0.0
C495 C 0.22864 0.24077 0.41901 0.0
C496 C 0.21767 0.21466 0.41238 0.0
C497 C 0.22436 0.20314 0.38643 0.0
C498 C 0.20834 0.17547 0.38339 0.0
C499 C 0.18983 0.17279 0.35654 0.0
C500 C 0.22803 0.15552 0.38224 0.0
C501 C 0.19125 0.17326 0.41151 0.0
C502 C 0.19704 0.1959 0.42814 0.0
C503 C 0.1831 0.19854 0.45466 0.0
C504 C 0.16271 0.17748 0.46436 0.0
C505 C 0.15632 0.15419 0.44743 0.0
C506 C 0.17094 0.15225 0.42071 0.0
H507 H 0.34004 0.93937 0.798 0.0
H508 H 0.32463 1.0129 0.76351 0.0
H509 H 0.35425 0.03721 0.80134 0.0
H510 H 0.33838 0.95732 0.87283 0.0
H511 H 0.36545 0.93997 0.88256 0.0
H512 H 0.3438 0.92875 0.85224 0.0
H513 H 0.38751 0.93162 0.81833 0.0
H514 H 0.40932 0.94297 0.84855 0.0
H515 H 0.41189 0.96215 0.81563 0.0
H516 H 0.38472 0.05315 0.84384 0.0
H517 H 0.41256 0.05944 0.88842 0.0
H518 H 0.40789 0.9752 0.89411 0.0
C519 C 0.3432 0.96061 0.79811 0.0
C520 C 0.33021 0.9743 0.77774 0.0
C521 C 0.33429 1.00206 0.77906 0.0
C522 C 0.3512 1.016 0.80031 0.0
C523 C 0.36379 1.00184 0.81998 0.0
C524 C 0.35992 0.97475 0.81908 0.0
C525 C 0.37497 0.96406 0.84322 0.0
C526 C 0.35442 0.9465 0.86394 0.0
C527 C 0.39725 0.94933 0.83067 0.0
C528 C 0.38788 0.98936 0.858 0.0
C529 C 0.38128 1.01096 0.84427 0.0
C530 C 0.39012 1.03639 0.85468 0.0
C531 C 0.40581 0.03976 0.88001 0.0
C532 C 0.41248 1.01781 0.89455 0.0
C533 C 0.40359 0.99237 0.88312 0.0
H534 H 0.61182 0.41352 0.69283 0.0
H535 H 0.63936 0.47801 0.7527 0.0
H536 H 0.62503 0.50871 0.71836 0.0
H537 H 0.63228 0.45057 0.62523 0.0
H538 H 0.6024 0.43513 0.60542 0.0
H539 H 0.61566 0.41743 0.63381 0.0
H540 H 0.56761 0.40916 0.66018 0.0
H541 H 0.55405 0.42657 0.63175 0.0
H542 H 0.55098 0.43658 0.66934 0.0
H543 H 0.60628 0.53273 0.67938 0.0
H544 H 0.58416 0.54899 0.63776 0.0
H545 H 0.56747 0.47033 0.60084 0.0
C546 C 0.6149 0.4341 0.69875 0.0
C547 C 0.62725 0.44312 0.72575 0.0
C548 C 0.63076 0.47036 0.73219 0.0
C549 C 0.62243 0.48808 0.71279 0.0
C550 C 0.6105 0.4786 0.68662 0.0
C551 C 0.60672 0.45229 0.67938 0.0
C552 C 0.59278 0.44758 0.6498 0.0
C553 C 0.61192 0.43705 0.62723 0.0
C554 C 0.56469 0.42886 0.65297 0.0
C555 C 0.58895 0.4753 0.64196 0.0
C556 C 0.59951 0.49274 0.66365 0.0
C557 C 0.59804 0.51926 0.66224 0.0
C558 C 0.58527 0.52832 0.63835 0.0
C559 C 0.5739 0.51112 0.61567 0.0
C560 C 0.57611 0.48414 0.61749 0.0
H561 H 0.95443 0.64962 0.19925 0.0
H562 H 0.94046 0.59428 0.27117 0.0
H563 H 0.95785 0.56151 0.2403 0.0
H564 H 0.935 0.60143 0.14123 0.0
H565 H 0.96147 0.61663 0.1155 0.0
H566 H 0.94756 0.63635 0.14279 0.0
H567 H 0.99707 0.65383 0.16075 0.0
H568 H 1.0111 0.63415 0.1335 0.0
H569 H 1.01843 0.63088 0.17149 0.0
H570 H 0.97721 0.53461 0.20314 0.0
H571 H 0.99691 0.5142 0.16107 0.0
H572 H 0.99977 0.58521 0.11058 0.0
C573 C 0.95506 0.63063 0.20853 0.0
C574 C 0.94551 0.62469 0.2379 0.0
C575 C 0.94681 0.59942 0.24882 0.0
C576 C 0.95695 0.5806 0.23143 0.0
C577 C 0.96595 0.587 0.20282 0.0
C578 C 0.96514 0.61132 0.19125 0.0
C579 C 0.97629 0.61266 0.15957 0.0
C580 C 0.95373 0.61703 0.13853 0.0
C581 C 1.00227 0.63416 0.15613 0.0
C582 C 0.98352 0.58534 0.15536 0.0
C583 C 0.97731 0.57109 0.18083 0.0
C584 C 0.98208 0.54556 0.18308 0.0
C585 C 0.99338 0.53411 0.15884 0.0
C586 C 0.99997 0.54785 0.13216 0.0
C587 C 0.99493 0.57402 0.13047 0.0
H588 H 0.40092 0.15289 0.1556 0.0
H589 H 0.46835 0.20238 0.2 0.0
H590 H 0.50064 0.17407 0.1818 0.0
H591 H 0.42256 0.09087 0.16887 0.0
H592 H 0.41236 0.07744 0.13354 0.0
H593 H 0.39437 0.10124 0.15059 0.0
H594 H 0.40491 0.13093 0.10492 0.0
H595 H 0.42274 0.10715 0.08768 0.0
H596 H 0.44031 0.14066 0.09185 0.0
H597 H 0.52567 0.14073 0.15831 0.0
H598 H 0.54224 0.10625 0.12886 0.0
H599 H 0.45838 0.07831 0.09998 0.0
C600 C 0.42243 0.15764 0.16169 0.0
C601 C 0.43213 0.17986 0.17922 0.0
C602 C 0.46053 0.18565 0.18632 0.0
C603 C 0.47897 0.16956 0.1763 0.0
C604 C 0.46869 0.14775 0.1592 0.0
C605 C 0.44113 0.14184 0.15181 0.0
C606 C 0.43558 0.11776 0.13232 0.0
C607 C 0.415 0.09551 0.14723 0.0
C608 C 0.42529 0.12454 0.10242 0.0
C609 C 0.46439 0.11116 0.12972 0.0
C610 C 0.48314 0.12859 0.14556 0.0
C611 C 0.51116 0.12691 0.14589 0.0
C612 C 0.52036 0.10723 0.12911 0.0
C613 C 0.50161 0.08953 0.11215 0.0
C614 C 0.47319 0.09135 0.11291 0.0
H615 H 0.16877 0.9308 0.59494 0.0
H616 H 0.10114 0.8702 0.62534 0.0
H617 H 0.06853 0.90128 0.62131 0.0
H618 H 0.14534 0.98514 0.63249 0.0
H619 H 0.1566 1.00785 0.60312 0.0
H620 H 0.17457 0.98108 0.60923 0.0
H621 H 0.16641 0.96527 0.55575 0.0
H622 H 0.14876 0.99214 0.5494 0.0
H623 H 0.1316 0.95892 0.54235 0.0
H624 H 0.04324 0.93789 0.61043 0.0
H625 H 0.02681 0.97723 0.59338 0.0
H626 H 0.11166 1.01463 0.5729 0.0
C627 C 0.14704 0.92403 0.60055 0.0
C628 C 0.13726 0.89811 0.61011 0.0
C629 C 0.10888 0.89003 0.61788 0.0
C630 C 0.09032 0.90753 0.61575 0.0
C631 C 0.1007 0.93303 0.6063 0.0
C632 C 0.12842 0.94128 0.59893 0.0
C633 C 0.13427 0.96951 0.58885 0.0
C634 C 0.15385 0.98692 0.60967 0.0
C635 C 0.14594 0.97156 0.55721 0.0
C636 C 0.10536 0.97572 0.59096 0.0
C637 C 0.08631 0.95446 0.6012 0.0
C638 C 0.058 0.95483 0.60293 0.0
C639 C 0.04889 0.97729 0.59333 0.0
C640 C 0.06804 0.99909 0.5824 0.0
C641 C 0.09665 0.99848 0.58183 0.0
H642 H 0.83937 0.48003 0.92871 0.0
H643 H 0.81584 0.40568 0.97402 0.0
H644 H 0.85582 0.4177 1.00574 0.0
H645 H 0.91334 0.48195 0.9295 0.0
H646 H 0.92214 0.5169 0.93541 0.0
H647 H 0.891 0.50318 0.91663 0.0
H648 H 0.86204 0.52546 0.95399 0.0
H649 H 0.89311 0.5391 0.97299 0.0
H650 H 0.86436 0.51932 0.99244 0.0
H651 H 0.89905 0.43646 1.03171 0.0
H652 H 0.94298 0.46069 0.05028 0.0
H653 H 0.94039 0.52372 0.98921 0.0
C654 C 0.84259 0.46622 0.94526 0.0
C655 C 0.82388 0.44185 0.94881 0.0
C656 C 0.82915 0.42462 0.971 0.0
C657 C 0.85205 0.43122 0.98912 0.0
C658 C 0.86987 0.45524 0.98508 0.0
C659 C 0.86551 0.47256 0.96375 0.0
C660 C 0.88836 0.49696 0.96395 0.0
C661 C 0.90467 0.49991 0.93463 0.0
C662 C 0.87624 0.52167 0.97128 0.0
C663 C 0.90631 0.49046 0.98853 0.0
C664 C 0.89507 0.46626 1.00033 0.0
C665 C 0.90795 0.45546 1.02268 0.0
C666 C 0.93306 0.46946 1.03309 0.0
C667 C 0.94541 0.49426 1.02141 0.0
C668 C 0.93151 0.50499 0.99893 0.0
H669 H 0.73289 0.63621 0.47446 0.0
H670 H 0.70953 0.60718 0.38782 0.0
H671 H 0.6632 0.58709 0.40717 0.0
H672 H 0.69685 0.57947 0.51368 0.0
H673 H 0.68586 0.5979 0.54401 0.0
H674 H 0.71724 0.61076 0.52351 0.0
H675 H 0.69861 0.65334 0.51336 0.0
H676 H 0.66725 0.64066 0.53397 0.0
H677 H 0.66536 0.65118 0.4968 0.0
H678 H 0.61916 0.56961 0.43561 0.0
H679 H 0.58039 0.55662 0.47129 0.0
H680 H 0.63129 0.59597 0.54021 0.0
C681 C 0.71793 0.62584 0.45954 0.0
C682 C 0.72514 0.62321 0.42952 0.0
C683 C 0.70486 0.60922 0.4109 0.0
C684 C 0.67834 0.59778 0.42169 0.0
C685 C 0.67206 0.60032 0.45132 0.0
C686 C 0.6912 0.61403 0.47005 0.0
C687 C 0.679 0.61342 0.50108 0.0
C688 C 0.69574 0.59956 0.52179 0.0
C689 C 0.67746 0.64131 0.51194 0.0
C690 C 0.65012 0.59729 0.49679 0.0
C691 C 0.64661 0.59 0.46785 0.0
C692 C 0.62171 0.57522 0.45834 0.0
C693 C 0.59977 0.56786 0.47879 0.0
C694 C 0.60269 0.57514 0.50859 0.0
C695 C 0.62838 0.58995 0.51763 0.0
H696 H 0.2532 0.37498 0.10976 0.0
H697 H 0.25058 0.38081 0.20447 0.0
H698 H 0.21007 0.40255 0.20226 0.0
H699 H 0.23043 0.43678 0.09483 0.0
H700 H 0.20975 0.42318 0.06455 0.0
H701 H 0.24027 0.4104 0.07341 0.0
H702 H 0.21068 0.36363 0.07755 0.0
H703 H 0.18008 0.37628 0.06887 0.0
H704 H 0.18075 0.35802 0.10205 0.0
H705 H 0.16794 0.42123 0.19006 0.0
H706 H 0.12738 0.43526 0.1685 0.0
H707 H 0.15671 0.41602 0.08208 0.0
C708 C 0.24425 0.38093 0.13007 0.0
C709 C 0.25539 0.37634 0.15727 0.0
C710 C 0.24298 0.38461 0.18327 0.0
C711 C 0.21977 0.39683 0.18229 0.0
C712 C 0.2091 0.40063 0.15516 0.0
C713 C 0.22096 0.39299 0.12951 0.0
C714 C 0.20466 0.39816 0.1033 0.0
C715 C 0.22233 0.41833 0.08282 0.0
C716 C 0.19337 0.37249 0.08699 0.0
C717 C 0.1815 0.40944 0.11829 0.0
C718 C 0.18456 0.41095 0.14817 0.0
C719 C 0.16542 0.42032 0.16665 0.0
C720 C 0.14252 0.42831 0.15422 0.0
C721 C 0.13885 0.42667 0.12365 0.0
C722 C 0.15876 0.41723 0.10556 0.0
H723 H 0.59695 0.2323 0.96062 0.0
H724 H 0.65729 0.20183 0.90513 0.0
H725 H 0.64067 0.15773 0.92489 0.0
H726 H 0.59959 0.19108 1.02267 0.0
H727 H 0.56284 0.18579 1.03093 0.0
H728 H 0.57963 0.21555 1.01305 0.0
H729 H 0.54533 0.20622 0.97072 0.0
H730 H 0.5283 0.17655 0.98859 0.0
H731 H 0.54156 0.17524 0.95158 0.0
H732 H 0.61924 0.11659 0.95249 0.0
H733 H 0.59087 0.081 0.98165 0.0
H734 H 0.54123 0.13606 1.01629 0.0
C735 C 0.60655 0.2164 0.95229 0.0
C736 C 0.62913 0.22123 0.93157 0.0
C737 C 0.64077 0.19939 0.92161 0.0
C738 C 0.63128 0.17398 0.93258 0.0
C739 C 0.6096 0.17011 0.95334 0.0
C740 C 0.59701 0.1906 0.96276 0.0
C741 C 0.5735 0.18075 0.98471 0.0
C742 C 0.57924 0.19409 1.01461 0.0
C743 C 0.54551 0.18494 0.9732 0.0
C744 C 0.57493 0.15162 0.98609 0.0
C745 C 0.5962 0.14602 0.96809 0.0
C746 C 0.60235 0.12074 0.96642 0.0
C747 C 0.58617 0.10061 0.98319 0.0
C748 C 0.56367 0.10557 1.00115 0.0
C749 C 0.55813 0.13155 1.00259 0.0
H750 H 0.922 0.84718 0.48011 0.0
H751 H 0.95128 0.86184 0.39034 0.0
H752 H 0.97293 0.90693 0.40396 0.0
H753 H 0.90532 0.91143 0.49409 0.0
H754 H 0.91668 0.9132 0.53126 0.0
H755 H 0.90382 0.88177 0.51478 0.0
H756 H 0.94942 0.86612 0.52672 0.0
H757 H 0.96237 0.89749 0.54328 0.0
H758 H 0.98214 0.88514 0.51428 0.0
H759 H 0.99109 0.95114 0.42708 0.0
H760 H 1.00531 0.99025 0.45796 0.0
H761 H 0.96406 0.94795 0.53307 0.0
C762 C 0.93281 0.85984 0.46319 0.0
C763 C 0.93485 0.8505 0.43398 0.0
C764 C 0.94965 0.86798 0.41289 0.0
C765 C 0.9619 0.89385 0.42039 0.0
C766 C 0.95935 0.90234 0.4492 0.0
C767 C 0.94524 0.88584 0.47033 0.0
C768 C 0.94569 0.89994 0.49976 0.0
C769 C 0.91612 0.90168 0.51061 0.0
C770 C 0.96081 0.88636 0.52234 0.0
C771 C 0.96216 0.92695 0.49186 0.0
C772 C 0.9698 0.92786 0.46254 0.0
C773 C 0.9852 0.95057 0.45005 0.0
C774 C 0.99319 0.97281 0.46788 0.0
C775 C 0.98588 0.97251 0.49811 0.0
C776 C 0.96997 0.9491 0.51009 0.0
H777 H 0.37999 0.76069 0.66474 0.0
H778 H 0.34664 0.77089 0.57976 0.0
H779 H 0.37007 0.73595 0.55945 0.0
H780 H 0.44615 0.75261 0.63916 0.0
H781 H 0.45002 0.72853 0.66612 0.0
H782 H 0.42861 0.75255 0.67432 0.0
H783 H 0.3869 0.71536 0.68667 0.0
H784 H 0.40824 0.6912 0.67861 0.0
H785 H 0.37611 0.68993 0.66007 0.0
H786 H 0.39979 0.70173 0.54801 0.0
H787 H 0.43324 0.67121 0.5465 0.0
H788 H 0.44691 0.68449 0.63905 0.0
C789 C 0.37755 0.75556 0.64186 0.0
C790 C 0.36158 0.76849 0.62379 0.0
C791 C 0.35858 0.76099 0.59405 0.0
C792 C 0.37187 0.74127 0.58232 0.0
C793 C 0.38788 0.72924 0.6007 0.0
C794 C 0.39064 0.73606 0.62986 0.0
C795 C 0.40989 0.72107 0.64479 0.0
C796 C 0.43516 0.73981 0.65679 0.0
C797 C 0.39435 0.70334 0.66896 0.0
C798 C 0.41805 0.70511 0.61934 0.0
C799 C 0.405 0.70984 0.59413 0.0
C800 C 0.40996 0.69772 0.56768 0.0
C801 C 0.42889 0.6804 0.56703 0.0
C802 C 0.44268 0.67564 0.59263 0.0
C803 C 0.43691 0.68801 0.61907 0.0
H804 H 0.82176 0.8252 0.71834 0.0
H805 H 0.75584 0.86707 0.74447 0.0
H806 H 0.77668 0.90377 0.71262 0.0
H807 H 0.87425 0.87862 0.72378 0.0
H808 H 0.89506 0.87015 0.69331 0.0
H809 H 0.87203 0.84477 0.7129 0.0
H810 H 0.84791 0.82853 0.66475 0.0
H811 H 0.87104 0.85383 0.64492 0.0
H812 H 0.83403 0.85129 0.64252 0.0
H813 H 0.80788 0.93845 0.68359 0.0
H814 H 0.84748 0.96847 0.66067 0.0
H815 H 0.89439 0.90517 0.6558 0.0
C816 C 0.81139 0.84187 0.71709 0.0
C817 C 0.78698 0.843 0.73392 0.0
C818 C 0.77413 0.86527 0.73138 0.0
C819 C 0.78592 0.88637 0.71341 0.0
C820 C 0.81056 0.88499 0.69807 0.0
C821 C 0.8231 0.86326 0.69965 0.0
C822 C 0.8511 0.86785 0.68382 0.0
C823 C 0.87447 0.8652 0.70471 0.0
C824 C 0.851 0.84927 0.65743 0.0
C825 C 0.85286 0.89596 0.67416 0.0
C826 C 0.82901 0.9053 0.682 0.0
C827 C 0.82646 0.93122 0.67689 0.0
C828 C 0.84903 0.94811 0.66382 0.0
C829 C 0.87393 0.93909 0.6564 0.0
C830 C 0.87559 0.91256 0.66124 0.0
H831 H 0.66403 0.18742 0.30666 0.0
H832 H 0.65142 0.12187 0.36672 0.0
H833 H 0.63452 0.09159 0.32641 0.0
H834 H 0.60414 0.16363 0.26091 0.0
H835 H 0.62263 0.17539 0.22766 0.0
H836 H 0.6314 0.19214 0.26172 0.0
H837 H 0.68254 0.18656 0.25368 0.0
H838 H 0.6739 0.16964 0.21974 0.0
H839 H 0.69026 0.15417 0.24775 0.0
H840 H 0.62102 0.06834 0.27949 0.0
H841 H 0.61275 0.05338 0.22854 0.0
H842 H 0.63521 0.13391 0.19879 0.0
C843 C 0.65718 0.16676 0.31134 0.0
C844 C 0.65882 0.15688 0.3397 0.0
C845 C 0.6503 0.1297 0.34503 0.0
C846 C 0.64061 0.11242 0.32235 0.0
C847 C 0.63968 0.12268 0.2945 0.0
C848 C 0.64772 0.1492 0.28887 0.0
C849 C 0.6462 0.1549 0.25666 0.0
C850 C 0.62481 0.17256 0.25144 0.0
C851 C 0.67494 0.16703 0.24371 0.0
C852 C 0.63645 0.12741 0.24504 0.0
C853 C 0.6325 0.10916 0.26727 0.0
C854 C 0.62387 0.08244 0.26189 0.0
C855 C 0.61917 0.07415 0.23296 0.0
C856 C 0.62339 0.0925 0.20984 0.0
C857 C 0.63206 0.11945 0.21606 0.0
H858 H 0.44383 0.60634 0.34611 0.0
H859 H 0.42609 0.67578 0.39138 0.0
H860 H 0.44374 0.66081 0.43656 0.0
H861 H 0.42631 0.56116 0.40613 0.0
H862 H 0.45429 0.54355 0.39893 0.0
H863 H 0.44017 0.55924 0.36943 0.0
H864 H 0.48904 0.58529 0.35606 0.0
H865 H 0.50333 0.56957 0.38542 0.0
H866 H 0.50877 0.60489 0.38366 0.0
H867 H 0.46175 0.6384 0.47767 0.0
H868 H 0.48205 0.61145 0.51159 0.0
H869 H 0.49145 0.55632 0.44149 0.0
C870 C 0.44387 0.61857 0.36541 0.0
C871 C 0.43282 0.64221 0.36481 0.0
C872 C 0.43345 0.65731 0.39094 0.0
C873 C 0.44371 0.64904 0.41689 0.0
C874 C 0.45382 0.6256 0.41685 0.0
C875 C 0.45434 0.61063 0.3918 0.0
C876 C 0.46684 0.58632 0.39813 0.0
C877 C 0.44564 0.56107 0.39284 0.0
C878 C 0.49359 0.58654 0.37972 0.0
C879 C 0.47306 0.59002 0.43061 0.0
C880 C 0.46514 0.61283 0.44077 0.0
C881 C 0.46814 0.62057 0.46988 0.0
C882 C 0.4797 0.6049 0.48913 0.0
C883 C 0.48853 0.58149 0.47962 0.0
C884 C 0.48503 0.57401 0.44971 0.0
H885 H 0.14116 0.48683 0.8648 0.0
H886 H 0.09178 0.40839 0.8712 0.0
H887 H 0.06576 0.42262 0.91343 0.0
H888 H 0.14589 0.49932 0.94277 0.0
H889 H 0.14328 0.53345 0.9399 0.0
H890 H 0.15809 0.51728 0.90998 0.0
H891 H 0.12253 0.53066 0.87512 0.0
H892 H 0.10764 0.54689 0.90492 0.0
H893 H 0.08598 0.52189 0.88407 0.0
H894 H 0.04494 0.44526 0.95571 0.0
H895 H 0.03029 0.47473 0.9934 0.0
H896 H 0.09296 0.53878 0.96065 0.0
C897 C 0.12501 0.47252 0.87514 0.0
C898 C 0.11865 0.44633 0.86422 0.0
C899 C 0.09698 0.42859 0.87849 0.0
C900 C 0.08214 0.43647 0.90278 0.0
C901 C 0.08897 0.46229 0.91289 0.0
C902 C 0.10986 0.4801 0.89948 0.0
C903 C 0.11283 0.5068 0.91459 0.0
C904 C 0.14174 0.51467 0.92758 0.0
C905 C 0.10688 0.5278 0.89341 0.0
C906 C 0.09037 0.50123 0.93858 0.0
C907 C 0.07693 0.47537 0.93721 0.0
C908 C 0.05538 0.46552 0.95692 0.0
C909 C 0.04722 0.48245 0.97838 0.0
C910 C 0.06045 0.50913 0.98023 0.0
C911 C 0.08243 0.51851 0.95998 0.0
H912 H 0.59392 0.87883 0.94114 0.0
H913 H 0.67016 0.92624 0.90726 0.0
H914 H 0.65247 0.96653 0.92037 0.0
H915 H 0.54655 0.92366 0.92036 0.0
H916 H 0.52579 0.91783 0.95359 0.0
H917 H 0.54273 0.89242 0.93847 0.0
H918 H 0.56699 0.88931 0.98749 0.0
H919 H 0.54998 0.91452 1.00275 0.0
H920 H 0.58726 0.91852 1.00298 0.0
H921 H 0.62932 1.00113 0.9406 0.0
H922 H 0.60281 1.02871 0.96987 0.0
H923 H 0.54079 0.96012 0.99153 0.0
C924 C 0.60656 0.89776 0.93615 0.0
C925 C 0.63336 0.8996 0.92319 0.0
C926 C 0.64964 0.92456 0.91732 0.0
C927 C 0.63968 0.9475 0.92445 0.0
C928 C 0.61336 0.94517 0.93749 0.0
C929 C 0.59699 0.92102 0.94349 0.0
C930 C 0.57055 0.9243 0.9601 0.0
C931 C 0.54488 0.91393 0.94204 0.0
C932 C 0.5686 0.91087 0.99011 0.0
C933 C 0.57508 0.954 0.96314 0.0
C934 C 0.59976 0.96554 0.94947 0.0
C935 C 0.60975 0.99243 0.951 0.0
C936 C 0.59458 1.00792 0.96767 0.0
C937 C 0.56967 0.99653 0.98253 0.0
C938 C 0.55938 0.96934 0.97964 0.0
H939 H 0.8592 0.12659 0.47739 0.0
H940 H 0.92029 0.19389 0.44996 0.0
H941 H 0.95807 0.17007 0.46226 0.0
H942 H 0.89336 0.10951 0.53782 0.0
H943 H 0.88325 0.07457 0.53264 0.0
H944 H 0.86172 0.09633 0.51956 0.0
H945 H 0.86443 0.07671 0.46745 0.0
H946 H 0.88605 0.05485 0.48039 0.0
H947 H 0.89787 0.0764 0.45015 0.0
H948 H 0.98858 0.14011 0.48279 0.0
H949 H 1.00909 0.10624 0.50765 0.0
H950 H 0.92725 0.05818 0.51845 0.0
C951 C 0.88057 0.13618 0.47378 0.0
C952 C 0.8871 0.162 0.46306 0.0
C953 C 0.91513 0.17403 0.45824 0.0
C954 C 0.93658 0.16066 0.4651 0.0
C955 C 0.92942 0.13521 0.47611 0.0
C956 C 0.90204 0.12303 0.48002 0.0
C957 C 0.89959 0.09599 0.49294 0.0
C958 C 0.88355 0.094 0.52249 0.0
C959 C 0.8862 0.07473 0.47144 0.0
C960 C 0.92986 0.09508 0.49667 0.0
C961 C 0.94685 0.11778 0.48677 0.0
C962 C 0.97551 0.12207 0.49008 0.0
C963 C 0.98697 0.10277 0.5042 0.0
C964 C 0.96973 0.07957 0.51463 0.0
C965 C 0.94096 0.07556 0.51028 0.0
H966 H 0.20978 0.66278 0.13106 0.0
H967 H 0.24515 0.59648 0.15918 0.0
H968 H 0.20441 0.56622 0.14115 0.0
H969 H 0.13792 0.6346 0.14915 0.0
H970 H 0.12423 0.64795 0.11771 0.0
H971 H 0.15599 0.66483 0.13319 0.0
H972 H 0.18128 0.66369 0.08294 0.0
H973 H 0.14961 0.64678 0.06731 0.0
H974 H 0.18057 0.63267 0.0645 0.0
H975 H 0.16058 0.54269 0.11927 0.0
H976 H 0.11605 0.52722 0.09624 0.0
H977 H 0.10721 0.60794 0.08123 0.0
C978 C 0.20907 0.6419 0.13337 0.0
C979 C 0.231 0.63225 0.14693 0.0
C980 C 0.22873 0.60466 0.14956 0.0
C981 C 0.20564 0.5872 0.13911 0.0
C982 C 0.18461 0.59735 0.12593 0.0
C983 C 0.18598 0.62405 0.12306 0.0
C984 C 0.1603 0.62959 0.10794 0.0
C985 C 0.14363 0.64516 0.12821 0.0
C986 C 0.16843 0.64404 0.07895 0.0
C987 C 0.14439 0.60182 0.10268 0.0
C988 C 0.15899 0.58364 0.11326 0.0
C989 C 0.14898 0.55679 0.11097 0.0
C990 C 0.12346 0.54819 0.0977 0.0
C991 C 0.10768 0.5662 0.08668 0.0
C992 C 0.11852 0.59353 0.08929 0.0
H993 H 0.32908 0.44248 0.60353 0.0
H994 H 0.34703 0.46133 0.69436 0.0
H995 H 0.39273 0.48683 0.67916 0.0
H996 H 0.39731 0.43316 0.58202 0.0
H997 H 0.39653 0.44731 0.54632 0.0
H998 H 0.36471 0.43172 0.5643 0.0
H999 H 0.34462 0.47426 0.55897 0.0
H1000 H 0.37641 0.49 0.54102 0.0
H1001 H 0.36343 0.50479 0.57307 0.0
H1002 H 0.43823 0.50918 0.65368 0.0
H1003 H 0.47831 0.52587 0.62046 0.0
H1004 H 0.43077 0.49209 0.54657 0.0
C1005 C 0.34255 0.45186 0.62036 0.0
C1006 C 0.33402 0.44973 0.65031 0.0
C1007 C 0.35252 0.46281 0.67129 0.0
C1008 C 0.37874 0.47729 0.66285 0.0
C1009 C 0.38648 0.47874 0.63324 0.0
C1010 C 0.36882 0.46639 0.61232 0.0
C1011 C 0.38224 0.4705 0.58197 0.0
C1012 C 0.38538 0.4441 0.56783 0.0
C1013 C 0.36569 0.4858 0.56262 0.0
C1014 C 0.4103 0.48684 0.58902 0.0
C1015 C 0.41238 0.49149 0.61871 0.0
C1016 C 0.43668 0.5057 0.63039 0.0
C1017 C 0.45938 0.51516 0.61135 0.0
C1018 C 0.4578 0.51042 0.58086 0.0
C1019 C 0.43272 0.49623 0.56972 0.0
H1020 H 0.79908 0.68711 0.98894 0.0
H1021 H 0.80102 0.67902 0.89442 0.0
H1022 H 0.83922 0.65433 0.89745 0.0
H1023 H 0.87165 0.69967 0.99638 0.0
H1024 H 0.87107 0.68195 1.03013 0.0
H1025 H 0.84181 0.69647 1.02093 0.0
H1026 H 0.80935 0.65121 1.02647 0.0
H1027 H 0.83855 0.63655 1.03574 0.0
H1028 H 0.81707 0.62348 1.00584 0.0
H1029 H 0.87926 0.63292 0.91034 0.0
H1030 H 0.91884 0.6175 0.93218 0.0
H1031 H 0.89192 0.64082 1.01801 0.0
C1032 C 0.8074 0.68008 0.96884 0.0
C1033 C 0.7967 0.68488 0.94145 0.0
C1034 C 0.80825 0.67513 0.91576 0.0
C1035 C 0.83014 0.6612 0.91721 0.0
C1036 C 0.84037 0.65715 0.9445 0.0
C1037 C 0.82939 0.6663 0.96986 0.0
C1038 C 0.8452 0.66063 0.99627 0.0
C1039 C 0.8582 0.6862 1.01183 0.0
C1040 C 0.82642 0.64185 1.01732 0.0
C1041 C 0.86717 0.64741 0.98171 0.0
C1042 C 0.8638 0.64527 0.95189 0.0
C1043 C 0.88196 0.63428 0.93371 0.0
C1044 C 0.90431 0.62548 0.94632 0.0
C1045 C 0.90846 0.62793 0.97679 0.0
C1046 C 0.88941 0.63883 0.99464 0.0
H1047 H 0.48446 0.85107 0.13959 0.0
H1048 H 0.40343 0.8678 0.16489 0.0
H1049 H 0.41659 0.91198 0.1436 0.0
H1050 H 0.52304 0.91512 0.15631 0.0
H1051 H 0.54726 0.9156 0.12586 0.0
H1052 H 0.53109 0.88479 0.14192 0.0
H1053 H 0.51294 0.86803 0.09137 0.0
H1054 H 0.52903 0.89882 0.07515 0.0
H1055 H 0.49243 0.88687 0.07118 0.0
H1056 H 0.43926 0.9557 0.12024 0.0
H1057 H 0.46942 0.99427 0.09737 0.0
H1058 H 0.53601 0.94984 0.08818 0.0
C1059 C 0.46941 0.86395 0.14083 0.0
C1060 C 0.44265 0.85539 0.154 0.0
C1061 C 0.42378 0.87322 0.15458 0.0
C1062 C 0.43118 0.89862 0.14266 0.0
C1063 C 0.45764 0.90634 0.13005 0.0
C1064 C 0.47647 0.88948 0.12904 0.0
C1065 C 0.50376 0.90275 0.11463 0.0
C1066 C 0.5277 0.90468 0.13595 0.0
C1067 C 0.50989 0.88825 0.08641 0.0
C1068 C 0.49747 0.92976 0.10796 0.0
C1069 C 0.47069 0.93142 0.11691 0.0
C1070 C 0.46025 0.95451 0.11316 0.0
C1071 C 0.47754 0.97639 0.10012 0.0
C1072 C 0.50516 0.97527 0.09096 0.0
C1073 C 0.51505 0.95146 0.09492 0.0
H1074 H 0.11772 0.23517 0.62518 0.0
H1075 H 0.09661 0.2144 0.71567 0.0
H1076 H 0.07706 0.16923 0.70062 0.0
H1077 H 0.0565 0.19659 0.59493 0.0
H1078 H 0.07379 0.18635 0.56273 0.0
H1079 H 0.08752 0.21705 0.58031 0.0
H1080 H 0.13483 0.20236 0.58522 0.0
H1081 H 0.12123 0.17164 0.56756 0.0
H1082 H 0.13621 0.17178 0.60305 0.0
H1083 H 0.05794 0.12657 0.67627 0.0
H1084 H 0.04101 0.08901 0.64414 0.0
H1085 H 0.07397 0.1356 0.56847 0.0
C1086 C 0.1093 0.22101 0.64183 0.0
C1087 C 0.10864 0.22866 0.67175 0.0
C1088 C 0.09711 0.20939 0.69266 0.0
C1089 C 0.08602 0.18352 0.68432 0.0
C1090 C 0.08648 0.17677 0.65481 0.0
C1091 C 0.09788 0.19484 0.63379 0.0
C1092 C 0.09488 0.18227 0.60346 0.0
C1093 C 0.07711 0.19641 0.58422 0.0
C1094 C 0.1235 0.182 0.58897 0.0
C1095 C 0.07992 0.15449 0.61081 0.0
C1096 C 0.07539 0.15185 0.64063 0.0
C1097 C 0.0615 0.12839 0.65289 0.0
C1098 C 0.05189 0.10707 0.63434 0.0
C1099 C 0.05608 0.10901 0.60361 0.0
C1100 C 0.0705 0.1332 0.59182 0.0
H1101 H 0.71146 0.35116 0.53638 0.0
H1102 H 0.66023 0.28904 0.58648 0.0
H1103 H 0.62415 0.31645 0.59282 0.0
H1104 H 0.68861 0.40822 0.57678 0.0
H1105 H 0.68972 0.42637 0.54327 0.0
H1106 H 0.7136 0.40423 0.5482 0.0
H1107 H 0.69693 0.38012 0.50029 0.0
H1108 H 0.67271 0.40176 0.49548 0.0
H1109 H 0.66057 0.36677 0.49656 0.0
H1110 H 0.59093 0.34746 0.5867 0.0
H1111 H 0.5637 0.37961 0.5691 0.0
H1112 H 0.63709 0.42148 0.52345 0.0
C1113 C 0.69321 0.3438 0.54982 0.0
C1114 C 0.68872 0.31812 0.56119 0.0
C1115 C 0.66406 0.30873 0.57766 0.0
C1116 C 0.64355 0.3242 0.58149 0.0
C1117 C 0.64814 0.34906 0.56891 0.0
C1118 C 0.67255 0.35893 0.55371 0.0
C1119 C 0.67114 0.38478 0.53933 0.0
C1120 C 0.69201 0.40723 0.5527 0.0
C1121 C 0.67558 0.38323 0.50595 0.0
C1122 C 0.64165 0.38724 0.5475 0.0
C1123 C 0.62886 0.36677 0.56506 0.0
C1124 C 0.6009 0.36387 0.57345 0.0
C1125 C 0.5856 0.3822 0.56333 0.0
C1126 C 0.59824 0.40294 0.54476 0.0
C1127 C 0.62676 0.40568 0.53736 0.0
loop_
_geom_bond_atom_site_label_1
_geom_bond_atom_site_label_2
_geom_bond_distance
_geom_bond_site_symmetry_2
_ccdc_geom_bond_type
C0 C1 1.264 . S
C0 C5 1.479 . S
C0 C10 1.465 . S
C1 C0 1.264 . S
C1 C3 1.339 . S
C1 H28 0.931 . S
C2 C3 1.395 . S
C2 C4 1.320 . S
C3 C1 1.339 . S
C3 C2 1.395 . S
C3 H29 0.929 . S
C4 C2 1.320 . S
C4 C5 1.405 . S
C4 H30 0.930 . S
C5 C0 1.479 . S
C5 C4 1.405 . S
C5 H31 0.931 . S
U6 O7 2.454 . S
U6 O8 2.458 . S
U6 C9 2.984 . S
U6 C10 2.847 . S
U6 C23 2.882 . S
U6 O24 2.441 . S
U6 O25 2.420 . S
U6 O26 2.455 . S
U6 O27 2.449 . S
O7 U6 2.454 . S
O7 C9 1.353 . S
O8 U6 2.458 . S
O8 C9 1.286 . S
C9 U6 2.984 . S
C9 O7 1.353 . S
C9 O8 1.286 . S
C9 C11 1.363 . S
C10 C0 1.465 . S
C10 U6 2.847 . S
C10 O24 1.249 . S
C10 O25 1.202 . S
C11 C9 1.363 . S
C11 C13 1.408 . S
C11 C16 1.342 . S
C12 C13 1.310 . S
C12 C15 1.461 . S
C12 H32 0.932 . S
C13 C11 1.408 . S
C13 C12 1.310 . S
C13 H33 0.930 . S
C14 C15 1.474 . S
C14 C16 1.285 . S
C14 H34 0.929 . S
C15 C12 1.461 . S
C15 C14 1.474 . S
C16 C11 1.342 . S
C16 C14 1.285 . S
C16 H35 0.930 . S
C17 C20 1.424 . S
C17 C22 1.245 . S
C17 C23 1.428 . S
C18 C21 1.260 . S
C18 C22 1.477 . S
C18 H36 0.932 . S
C19 C20 1.384 . S
C19 C21 1.479 . S
C19 H37 0.929 . S
C20 C17 1.424 . S
C20 C19 1.384 . S
C20 H38 0.928 . S
C21 C18 1.260 . S
C21 C19 1.479 . S
C22 C17 1.245 . S
C22 C18 1.477 . S
C22 H39 0.932 . S
C23 U6 2.882 . S
C23 C17 1.428 . S
C23 O26 1.301 . S
C23 O27 1.282 . S
O24 U6 2.441 . S
O24 C10 1.249 . S
O25 U6 2.420 . S
O25 C10 1.202 . S
O26 U6 2.455 . S
O26 C23 1.301 . S
O27 U6 2.449 . S
O27 C23 1.282 . S
H28 C1 0.931 . S
H29 C3 0.929 . S
H30 C4 0.930 . S
H31 C5 0.931 . S
H32 C12 0.932 . S
H33 C13 0.930 . S
H34 C14 0.929 . S
H35 C16 0.930 . S
H36 C18 0.932 . S
H37 C19 0.929 . S
H38 C20 0.928 . S
H39 C22 0.932 . S
C40 C41 1.264 . S
C40 C45 1.479 . S
C40 C50 1.465 . S
C41 C40 1.264 . S
C41 C43 1.339 . S
C41 H68 0.931 . S
C42 C43 1.395 . S
C42 C44 1.320 . S
C43 C41 1.339 . S
C43 C42 1.395 . S
C43 H69 0.929 . S
C44 C42 1.320 . S
C44 C45 1.405 . S
C44 H70 0.930 . S
C45 C40 1.479 . S
C45 C44 1.405 . S
C45 H71 0.931 . S
U46 O47 2.454 . S
U46 O48 2.458 . S
U46 C49 2.984 . S
U46 C50 2.847 . S
U46 C63 2.882 . S
U46 O64 2.441 . S
U46 O65 2.420 . S
U46 O66 2.455 . S
U46 O67 2.449 . S
O47 U46 2.454 . S
O47 C49 1.353 . S
O48 U46 2.458 . S
O48 C49 1.286 . S
C49 U46 2.984 . S
C49 O47 1.353 . S
C49 O48 1.286 . S
C49 C51 1.363 . S
C50 C40 1.465 . S
C50 U46 2.847 . S
C50 O64 1.249 . S
C50 O65 1.202 . S
C51 C49 1.363 . S
C51 C53 1.408 . S
C51 C56 1.342 . S
C52 C53 1.310 . S
C52 C55 1.461 . S
C52 H72 0.932 . S
C53 C51 1.408 . S
C53 C52 1.310 . S
C53 H73 0.930 . S
C54 C55 1.474 . S
C54 C56 1.285 . S
C54 H74 0.929 . S
C55 C52 1.461 . S
C55 C54 1.474 . S
C56 C51 1.342 . S
C56 C54 1.285 . S
C56 H75 0.930 . S
C57 C60 1.424 . S
C57 C62 1.245 . S
C57 C63 1.428 . S
C58 C61 1.260 . S
C58 C62 1.477 . S
C58 H76 0.932 . S
C59 C60 1.384 . S
C59 C61 1.479 . S
C59 H77 0.929 . S
C60 C57 1.424 . S
C60 C59 1.384 . S
C60 H78 0.928 . S
C61 C58 1.260 . S
C61 C59 1.479 . S
C62 C57 1.245 . S
C62 C58 1.477 . S
C62 H79 0.932 . S
C63 U46 2.882 . S
C63 C57 1.428 . S
C63 O66 1.301 . S
C63 O67 1.282 . S
O64 U46 2.441 . S
O64 C50 1.249 . S
O65 U46 2.420 . S
O65 C50 1.202 . S
O66 U46 2.455 . S
O66 C63 1.301 . S
O67 U46 2.449 . S
O67 C63 1.282 . S
H68 C41 0.931 . S
H69 C43 0.929 . S
H70 C44 0.930 . S
H71 C45 0.931 . S
H72 C52 0.932 . S
H73 C53 0.930 . S
H74 C54 0.929 . S
H75 C56 0.930 . S
H76 C58 0.932 . S
H77 C59 0.929 . S
H78 C60 0.928 . S
H79 C62 0.932 . S
C80 C81 1.264 . S
C80 C85 1.479 . S
C80 C90 1.465 . S
C81 C80 1.264 . S
C81 C83 1.339 . S
C81 H108 0.931 . S
C82 C83 1.395 . S
C82 C84 1.320 . S
C83 C81 1.339 . S
C83 C82 1.395 . S
C83 H109 0.929 . S
C84 C82 1.320 . S
C84 C85 1.405 . S
C84 H110 0.930 . S
C85 C80 1.479 . S
C85 C84 1.405 . S
C85 H111 0.931 . S
U86 O87 2.454 . S
U86 O88 2.458 . S
U86 C89 2.984 . S
U86 C90 2.847 . S
U86 C103 2.882 . S
U86 O104 2.441 . S
U86 O105 2.420 . S
U86 O106 2.455 . S
U86 O107 2.449 . S
O87 U86 2.454 . S
O87 C89 1.353 . S
O88 U86 2.458 . S
O88 C89 1.286 . S
C89 U86 2.984 . S
C89 O87 1.353 . S
C89 O88 1.286 . S
C89 C91 1.363 . S
C90 C80 1.465 . S
C90 U86 2.847 . S
C90 O104 1.249 . S
C90 O105 1.202 . S
C91 C89 1.363 . S
C91 C93 1.408 . S
C91 C96 1.342 . S
C92 C93 1.310 . S
C92 C95 1.461 . S
C92 H112 0.932 . S
C93 C91 1.408 . S
C93 C92 1.310 . S
C93 H113 0.930 . S
C94 C95 1.474 . S
C94 C96 1.285 . S
C94 H114 0.929 . S
C95 C92 1.461 . S
C95 C94 1.474 . S
C96 C91 1.342 . S
C96 C94 1.285 . S
C96 H115 0.930 . S
C97 C100 1.424 . S
C97 C102 1.245 . S
C97 C103 1.428 . S
C98 C101 1.260 . S
C98 C102 1.477 . S
C98 H116 0.932 . S
C99 C100 1.384 . S
C99 C101 1.479 . S
C99 H117 0.929 . S
C100 C97 1.424 . S
C100 C99 1.384 . S
C100 H118 0.928 . S
C101 C98 1.260 . S
C101 C99 1.479 . S
C102 C97 1.245 . S
C102 C98 1.477 . S
C102 H119 0.932 . S
C103 U86 2.882 . S
C103 C97 1.428 . S
C103 O106 1.301 . S
C103 O107 1.282 . S
O104 U86 2.441 . S
O104 C90 1.249 . S
O105 U86 2.420 . S
O105 C90 1.202 . S
O106 U86 2.455 . S
O106 C103 1.301 . S
O107 U86 2.449 . S
O107 C103 1.282 . S
H108 C81 0.931 . S
H109 C83 0.929 . S
H110 C84 0.930 . S
H111 C85 0.931 . S
H112 C92 0.932 . S
H113 C93 0.930 . S
H114 C94 0.929 . S
H115 C96 0.930 . S
H116 C98 0.932 . S
H117 C99 0.929 . S
H118 C100 0.928 . S
H119 C102 0.932 . S
C120 C121 1.264 . S
C120 C125 1.479 . S
C120 C130 1.465 . S
C121 C120 1.264 . S
C121 C123 1.339 . S
C121 H148 0.931 . S
C122 C123 1.395 . S
C122 C124 1.320 . S
C123 C121 1.339 . S
C123 C122 1.395 . S
C123 H149 0.929 . S
C124 C122 1.320 . S
C124 C125 1.405 . S
C124 H150 0.930 . S
C125 C120 1.479 . S
C125 C124 1.405 . S
C125 H151 0.931 . S
U126 O127 2.454 . S
U126 O128 2.458 . S
U126 C129 2.984 . S
U126 C130 2.847 . S
U126 C143 2.882 . S
U126 O144 2.441 . S
U126 O145 2.420 . S
U126 O146 2.455 . S
U126 O147 2.449 . S
O127 U126 2.454 . S
O127 C129 1.353 . S
O128 U126 2.458 . S
O128 C129 1.286 . S
C129 U126 2.984 . S
C129 O127 1.353 . S
C129 O128 1.286 . S
C129 C131 1.363 . S
C130 C120 1.465 . S
C130 U126 2.847 . S
C130 O144 1.249 . S
C130 O145 1.202 . S
C131 C129 1.363 . S
C131 C133 1.408 . S
C131 C136 1.342 . S
C132 C133 1.310 . S
C132 C135 1.461 . S
C132 H152 0.932 . S
C133 C131 1.408 . S
C133 C132 1.310 . S
C133 H153 0.930 . S
C134 C135 1.474 . S
C134 C136 1.285 . S
C134 H154 0.929 . S
C135 C132 1.461 . S
C135 C134 1.474 . S
C136 C131 1.342 . S
C136 C134 1.285 . S
C136 H155 0.930 . S
C137 C140 1.424 . S
C137 C142 1.245 . S
C137 C143 1.428 . S
C138 C141 1.260 . S
C138 C142 1.477 . S
C138 H156 0.932 . S
C139 C140 1.384 . S
C139 C141 1.479 . S
C139 H157 0.929 . S
C140 C137 1.424 . S
C140 C139 1.384 . S
C140 H158 0.928 . S
C141 C138 1.260 . S
C141 C139 1.479 . S
C142 C137 1.245 . S
C142 C138 1.477 . S
C142 H159 0.932 . S
C143 U126 2.882 . S
C143 C137 1.428 . S
C143 O146 1.301 . S
C143 O147 1.282 . S
O144 U126 2.441 . S
O144 C130 1.249 . S
O145 U126 2.420 . S
O145 C130 1.202 . S
O146 U126 2.455 . S
O146 C143 1.301 . S
O147 U126 2.449 . S
O147 C143 1.282 . S
H148 C121 0.931 . S
H149 C123 0.929 . S
H150 C124 0.930 . S
H151 C125 0.931 . S
H152 C132 0.932 . S
H153 C133 0.930 . S
H154 C134 0.929 . S
H155 C136 0.930 . S
H156 C138 0.932 . S
H157 C139 0.929 . S
H158 C140 0.928 . S
H159 C142 0.932 . S
C160 C161 1.264 . S
C160 C165 1.479 . S
C160 C170 1.465 . S
C161 C160 1.264 . S
C161 C163 1.339 . S
C161 H188 0.931 . S
C162 C163 1.395 . S
C162 C164 1.320 . S
C163 C161 1.339 . S
C163 C162 1.395 . S
C163 H189 0.929 . S
C164 C162 1.320 . S
C164 C165 1.405 . S
C164 H190 0.930 . S
C165 C160 1.479 . S
C165 C164 1.405 . S
C165 H191 0.931 . S
U166 O167 2.454 . S
U166 O168 2.458 . S
U166 C169 2.984 . S
U166 C170 2.847 . S
U166 C183 2.882 . S
U166 O184 2.441 . S
U166 O185 2.420 . S
U166 O186 2.455 . S
U166 O187 2.449 . S
O167 U166 2.454 . S
O167 C169 1.353 . S
O168 U166 2.458 . S
O168 C169 1.286 . S
C169 U166 2.984 . S
C169 O167 1.353 . S
C169 O168 1.286 . S
C169 C171 1.363 . S
C170 C160 1.465 . S
C170 U166 2.847 . S
C170 O184 1.249 . S
C170 O185 1.202 . S
C171 C169 1.363 . S
C171 C173 1.408 . S
C171 C176 1.342 . S
C172 C173 1.310 . S
C172 C175 1.461 . S
C172 H192 0.932 . S
C173 C171 1.408 . S
C173 C172 1.310 . S
C173 H193 0.930 . S
C174 C175 1.474 . S
C174 C176 1.285 . S
C174 H194 0.929 . S
C175 C172 1.461 . S
C175 C174 1.474 . S
C176 C171 1.342 . S
C176 C174 1.285 . S
C176 H195 0.930 . S
C177 C180 1.424 . S
C177 C182 1.245 . S
C177 C183 1.428 . S
C178 C181 1.260 . S
C178 C182 1.477 . S
C178 H196 0.932 . S
C179 C180 1.384 . S
C179 C181 1.479 . S
C179 H197 0.929 . S
C180 C177 1.424 . S
C180 C179 1.384 . S
C180 H198 0.928 . S
C181 C178 1.260 . S
C181 C179 1.479 . S
C182 C177 1.245 . S
C182 C178 1.477 . S
C182 H199 0.932 . S
C183 U166 2.882 . S
C183 C177 1.428 . S
C183 O186 1.301 . S
C183 O187 1.282 . S
O184 U166 2.441 . S
O184 C170 1.249 . S
O185 U166 2.420 . S
O185 C170 1.202 . S
O186 U166 2.455 . S
O186 C183 1.301 . S
O187 U166 2.449 . S
O187 C183 1.282 . S
H188 C161 0.931 . S
H189 C163 0.929 . S
H190 C164 0.930 . S
H191 C165 0.931 . S
H192 C172 0.932 . S
H193 C173 0.930 . S
H194 C174 0.929 . S
H195 C176 0.930 . S
H196 C178 0.932 . S
H197 C179 0.929 . S
H198 C180 0.928 . S
H199 C182 0.932 . S
C200 C201 1.264 . S
C200 C205 1.479 . S
C200 C210 1.465 . S
C201 C200 1.264 . S
C201 C203 1.339 . S
C201 H228 0.931 . S
C202 C203 1.395 . S
C202 C204 1.320 . S
C203 C201 1.339 . S
C203 C202 1.395 . S
C203 H229 0.929 . S
C204 C202 1.320 . S
C204 C205 1.405 . S
C204 H230 0.930 . S
C205 C200 1.479 . S
C205 C204 1.405 . S
C205 H231 0.931 . S
U206 O207 2.454 . S
U206 O208 2.458 . S
U206 C209 2.984 . S
U206 C210 2.847 . S
U206 C223 2.882 . S
U206 O224 2.441 . S
U206 O225 2.420 . S
U206 O226 2.455 . S
U206 O227 2.449 . S
O207 U206 2.454 . S
O207 C209 1.353 . S
O208 U206 2.458 . S
O208 C209 1.286 . S
C209 U206 2.984 . S
C209 O207 1.353 . S
C209 O208 1.286 . S
C209 C211 1.363 . S
C210 C200 1.465 . S
C210 U206 2.847 . S
C210 O224 1.249 . S
C210 O225 1.202 . S
C211 C209 1.363 . S
C211 C213 1.408 . S
C211 C216 1.342 . S
C212 C213 1.310 . S
C212 C215 1.461 . S
C212 H232 0.932 . S
C213 C211 1.408 . S
C213 C212 1.310 . S
C213 H233 0.930 . S
C214 C215 1.474 . S
C214 C216 1.285 . S
C214 H234 0.929 . S
C215 C212 1.461 . S
C215 C214 1.474 . S
C216 C211 1.342 . S
C216 C214 1.285 . S
C216 H235 0.930 . S
C217 C220 1.424 . S
C217 C222 1.245 . S
C217 C223 1.428 . S
C218 C221 1.260 . S
C218 C222 1.477 . S
C218 H236 0.932 . S
C219 C220 1.384 . S
C219 C221 1.479 . S
C219 H237 0.929 . S
C220 C217 1.424 . S
C220 C219 1.384 . S
C220 H238 0.928 . S
C221 C218 1.260 . S
C221 C219 1.479 . S
C222 C217 1.245 . S
C222 C218 1.477 . S
C222 H239 0.932 . S
C223 U206 2.882 . S
C223 C217 1.428 . S
C223 O226 1.301 . S
C223 O227 1.282 . S
O224 U206 2.441 . S
O224 C210 1.249 . S
O225 U206 2.420 . S
O225 C210 1.202 . S
O226 U206 2.455 . S
O226 C223 1.301 . S
O227 U206 2.449 . S
O227 C223 1.282 . S
H228 C201 0.931 . S
H229 C203 0.929 . S
H230 C204 0.930 . S
H231 C205 0.931 . S
H232 C212 0.932 . S
H233 C213 0.930 . S
H234 C214 0.929 . S
H235 C216 0.930 . S
H236 C218 0.932 . S
H237 C219 0.929 . S
H238 C220 0.928 . S
H239 C222 0.932 . S
C240 C241 1.264 . S
C240 C245 1.479 . S
C240 C250 1.465 . S
C241 C240 1.264 . S
C241 C243 1.339 . S
C241 H268 0.931 . S
C242 C243 1.395 . S
C242 C244 1.320 . S
C243 C241 1.339 . S
C243 C242 1.395 . S
C243 H269 0.929 . S
C244 C242 1.320 . S
C244 C245 1.405 . S
C244 H270 0.930 . S
C245 C240 1.479 . S
C245 C244 1.405 . S
C245 H271 0.931 . S
U246 O247 2.454 . S
U246 O248 2.458 . S
U246 C249 2.984 . S
U246 C250 2.847 . S
U246 C263 2.882 . S
U246 O264 2.441 . S
U246 O265 2.420 . S
U246 O266 2.455 . S
U246 O267 2.449 . S
O247 U246 2.454 . S
O247 C249 1.353 . S
O248 U246 2.458 . S
O248 C249 1.286 . S
C249 U246 2.984 . S
C249 O247 1.353 . S
C249 O248 1.286 . S
C249 C251 1.363 . S
C250 C240 1.465 . S
C250 U246 2.847 . S
C250 O264 1.249 . S
C250 O265 1.202 . S
C251 C249 1.363 . S
C251 C253 1.408 . S
C251 C256 1.342 . S
C252 C253 1.310 . S
C252 C255 1.461 . S
C252 H272 0.932 . S
C253 C251 1.408 . S
C253 C252 1.310 . S
C253 H273 0.930 . S
C254 C255 1.474 . S
C254 C256 1.285 . S
C254 H274 0.929 . S
C255 C252 1.461 . S
C255 C254 1.474 . S
C256 C251 1.342 . S
C256 C254 1.285 . S
C256 H275 0.930 . S
C257 C260 1.424 . S
C257 C262 1.245 . S
C257 C263 1.428 . S
C258 C261 1.260 . S
C258 C262 1.477 . S
C258 H276 0.932 . S
C259 C260 1.384 . S
C259 C261 1.479 . S
C259 H277 0.929 . S
C260 C257 1.424 . S
C260 C259 1.384 . S
C260 H278 0.928 . S
C261 C258 1.260 . S
C261 C259 1.479 . S
C262 C257 1.245 . S
C262 C258 1.477 . S
C262 H279 0.932 . S
C263 U246 2.882 . S
C263 C257 1.428 . S
C263 O266 1.301 . S
C263 O267 1.282 . S
O264 U246 2.441 . S
O264 C250 1.249 . S
O265 U246 2.420 . S
O265 C250 1.202 . S
O266 U246 2.455 . S
O266 C263 1.301 . S
O267 U246 2.449 . S
O267 C263 1.282 . S
H268 C241 0.931 . S
H269 C243 0.929 . S
H270 C244 0.930 . S
H271 C245 0.931 . S
H272 C252 0.932 . S
H273 C253 0.930 . S
H274 C254 0.929 . S
H275 C256 0.930 . S
H276 C258 0.932 . S
H277 C259 0.929 . S
H278 C260 0.928 . S
H279 C262 0.932 . S
C280 C281 1.264 . S
C280 C285 1.479 . S
C280 C290 1.465 . S
C281 C280 1.264 . S
C281 C283 1.339 . S
C281 H308 0.931 . S
C282 C283 1.395 . S
C282 C284 1.320 . S
C283 C281 1.339 . S
C283 C282 1.395 . S
C283 H309 0.929 . S
C284 C282 1.320 . S
C284 C285 1.405 . S
C284 H310 0.930 . S
C285 C280 1.479 . S
C285 C284 1.405 . S
C285 H311 0.931 . S
U286 O287 2.454 . S
U286 O288 2.458 . S
U286 C289 2.984 . S
U286 C290 2.847 . S
U286 C303 2.882 . S
U286 O304 2.441 . S
U286 O305 2.420 . S
U286 O306 2.455 . S
U286 O307 2.449 . S
O287 U286 2.454 . S
O287 C289 1.353 . S
O288 U286 2.458 . S
O288 C289 1.286 . S
C289 U286 2.984 . S
C289 O287 1.353 . S
C289 O288 1.286 . S
C289 C291 1.363 . S
C290 C280 1.465 . S
C290 U286 2.847 . S
C290 O304 1.249 . S
C290 O305 1.202 . S
C291 C289 1.363 . S
C291 C293 1.408 . S
C291 C296 1.342 . S
C292 C293 1.310 . S
C292 C295 1.461 . S
C292 H312 0.932 . S
C293 C291 1.408 . S
C293 C292 1.310 . S
C293 H313 0.930 . S
C294 C295 1.474 . S
C294 C296 1.285 . S
C294 H314 0.929 . S
C295 C292 1.461 . S
C295 C294 1.474 . S
C296 C291 1.342 . S
C296 C294 1.285 . S
C296 H315 0.930 . S
C297 C300 1.424 . S
C297 C302 1.245 . S
C297 C303 1.428 . S
C298 C301 1.260 . S
C298 C302 1.477 . S
C298 H316 0.932 . S
C299 C300 1.384 . S
C299 C301 1.479 . S
C299 H317 0.929 . S
C300 C297 1.424 . S
C300 C299 1.384 . S
C300 H318 0.928 . S
C301 C298 1.260 . S
C301 C299 1.479 . S
C302 C297 1.245 . S
C302 C298 1.477 . S
C302 H319 0.932 . S
C303 U286 2.882 . S
C303 C297 1.428 . S
C303 O306 1.301 . S
C303 O307 1.282 . S
O304 U286 2.441 . S
O304 C290 1.249 . S
O305 U286 2.420 . S
O305 C290 1.202 . S
O306 U286 2.455 . S
O306 C303 1.301 . S
O307 U286 2.449 . S
O307 C303 1.282 . S
H308 C281 0.931 . S
H309 C283 0.929 . S
H310 C284 0.930 . S
H311 C285 0.931 . S
H312 C292 0.932 . S
H313 C293 0.930 . S
H314 C294 0.929 . S
H315 C296 0.930 . S
H316 C298 0.932 . S
H317 C299 0.929 . S
H318 C300 0.928 . S
H319 C302 0.932 . S
Gd320 C323 2.818 . S
Gd320 O340 2.377 . S
Gd320 O342 2.448 . S
Gd320 O343 2.506 . S
Gd320 O344 2.435 1_545 S
Gd320 O345 2.717 1_545 S
Gd320 O347 2.395 1_445 S
Gd320 O351 2.327 1_455 S
Gd321 C332 2.811 1_545 S
Gd321 O341 2.404 1_655 S
Gd321 O345 2.323 1_645 S
Gd321 O346 2.370 1_545 S
Gd321 O348 2.445 1_545 S
Gd321 O349 2.496 1_545 S
Gd321 O350 2.441 . S
Gd321 O351 2.722 . S
C322 O340 1.240 . S
C322 O341 1.240 . S
C323 Gd320 2.818 . S
C323 C324 1.510 . S
C323 O342 1.249 . S
C323 O343 1.252 . S
C324 C323 1.510 . S
C324 C325 1.404 . S
C324 C326 1.352 . S
C325 C324 1.404 . S
C325 C329 1.389 . S
C325 H352 0.930 . S
C326 C324 1.352 . S
C326 C328 1.374 . S
C326 H353 0.931 . S
C327 C328 1.359 . S
C327 C329 1.364 . S
C328 C326 1.374 . S
C328 C327 1.359 . S
C328 H354 0.931 . S
C329 C325 1.389 . S
C329 C327 1.364 . S
C329 H355 0.931 . S
C330 O344 1.256 . S
C330 O345 1.257 . S
C331 O346 1.240 . S
C331 O347 1.240 . S
C332 Gd321 2.811 1_565 S
C332 C333 1.510 . S
C332 O348 1.249 . S
C332 O349 1.252 . S
C333 C332 1.510 . S
C333 C334 1.404 . S
C333 C335 1.352 . S
C334 C333 1.404 . S
C334 C338 1.389 . S
C334 H356 0.930 . S
C335 C333 1.352 . S
C335 C337 1.374 . S
C335 H357 0.931 . S
C336 C337 1.359 . S
C336 C338 1.364 . S
C337 C335 1.374 . S
C337 C336 1.359 . S
C337 H358 0.931 . S
C338 C334 1.389 . S
C338 C336 1.364 . S
C338 H359 0.931 . S
C339 O350 1.256 . S
C339 O351 1.257 . S
O340 Gd320 2.377 . S
O340 C322 1.240 . S
O341 Gd321 2.404 1_455 S
O341 C322 1.240 . S
O342 Gd320 2.448 . S
O342 C323 1.249 . S
O343 Gd320 2.506 . S
O343 C323 1.252 . S
O344 Gd320 2.435 1_565 S
O344 C330 1.256 . S
O345 Gd320 2.717 1_565 S
O345 Gd321 2.323 1_465 S
O345 C330 1.257 . S
O346 Gd321 2.370 1_565 S
O346 C331 1.240 . S
O347 Gd320 2.395 1_665 S
O347 C331 1.240 . S
O348 Gd321 2.445 1_565 S
O348 C332 1.249 . S
O349 Gd321 2.496 1_565 S
O349 C332 1.252 . S
O350 Gd321 2.441 . S
O350 C339 1.256 . S
O351 Gd320 2.327 1_655 S
O351 Gd321 2.722 . S
O351 C339 1.257 . S
H352 C325 0.930 . S
H353 C326 0.931 . S
H354 C328 0.931 . S
H355 C329 0.931 . S
H356 C334 0.930 . S
H357 C335 0.931 . S
H358 C337 0.931 . S
H359 C338 0.931 . S
Gd360 C363 2.834 . S
Gd360 O380 2.394 . S
Gd360 O382 2.451 . S
Gd360 O383 2.531 . S
Gd360 O384 2.414 1_545 S
Gd360 O385 2.707 1_545 S
Gd360 O387 2.377 1_544 S
Gd360 O391 2.348 1_554 S
Gd361 C372 2.818 1_545 S
Gd361 O381 2.395 1_556 S
Gd361 O385 2.327 1_546 S
Gd361 O386 2.377 1_545 S
Gd361 O388 2.448 1_545 S
Gd361 O389 2.506 1_545 S
Gd361 O390 2.435 . S
Gd361 O391 2.717 . S
C362 O380 1.240 . S
C362 O381 1.240 . S
C363 Gd360 2.834 . S
C363 C364 1.510 . S
C363 O382 1.249 . S
C363 O383 1.252 . S
C364 C363 1.510 . S
C364 C365 1.404 . S
C364 C366 1.352 . S
C365 C364 1.404 . S
C365 C369 1.389 . S
C365 H392 0.930 . S
C366 C364 1.352 . S
C366 C368 1.374 . S
C366 H393 0.931 . S
C367 C368 1.359 . S
C367 C369 1.364 . S
C368 C366 1.374 . S
C368 C367 1.359 . S
C368 H394 0.931 . S
C369 C365 1.389 . S
C369 C367 1.364 . S
C369 H395 0.931 . S
C370 O384 1.256 . S
C370 O385 1.257 . S
C371 O386 1.240 . S
C371 O387 1.240 . S
C372 Gd361 2.818 1_565 S
C372 C373 1.510 . S
C372 O388 1.249 . S
C372 O389 1.252 . S
C373 C372 1.510 . S
C373 C374 1.404 . S
C373 C375 1.352 . S
C374 C373 1.404 . S
C374 C378 1.389 . S
C374 H396 0.930 . S
C375 C373 1.352 . S
C375 C377 1.374 . S
C375 H397 0.931 . S
C376 C377 1.359 . S
C376 C378 1.364 . S
C377 C375 1.374 . S
C377 C376 1.359 . S
C377 H398 0.931 . S
C378 C374 1.389 . S
C378 C376 1.364 . S
C378 H399 0.931 . S
C379 O390 1.256 . S
C379 O391 1.257 . S
O380 Gd360 2.394 . S
O380 C362 1.240 . S
O381 Gd361 2.395 1_554 S
O381 C362 1.240 . S
O382 Gd360 2.451 . S
O382 C363 1.249 . S
O383 Gd360 2.531 . S
O383 C363 1.252 . S
O384 Gd360 2.414 1_565 S
O384 C370 1.256 . S
O385 Gd360 2.707 1_565 S
O385 Gd361 2.327 1_564 S
O385 C370 1.257 . S
O386 Gd361 2.377 1_565 S
O386 C371 1.240 . S
O387 Gd360 2.377 1_566 S
O387 C371 1.240 . S
O388 Gd361 2.448 1_565 S
O388 C372 1.249 . S
O389 Gd361 2.506 1_565 S
O389 C372 1.252 . S
O390 Gd361 2.435 . S
O390 C379 1.256 . S
O391 Gd360 2.348 1_556 S
O391 Gd361 2.717 . S
O391 C379 1.257 . S
H392 C365 0.930 . S
H393 C366 0.931 . S
H394 C368 0.931 . S
H395 C369 0.931 . S
H396 C374 0.930 . S
H397 C375 0.931 . S
H398 C377 0.931 . S
H399 C378 0.931 . S
Gd400 C403 2.818 . S
Gd400 O420 2.377 . S
Gd400 O422 2.448 . S
Gd400 O423 2.506 . S
Gd400 O424 2.435 . S
Gd400 O425 2.717 . S
Gd400 O427 2.395 . S
Gd400 O431 2.327 . S
Gd401 C412 2.818 . S
Gd401 O421 2.395 . S
Gd401 O425 2.327 . S
Gd401 O426 2.377 . S
Gd401 O428 2.448 . S
Gd401 O429 2.506 . S
Gd401 O430 2.435 . S
Gd401 O431 2.717 . S
C402 O420 1.240 . S
C402 O421 1.240 . S
C403 Gd400 2.818 . S
C403 C404 1.510 . S
C403 O422 1.249 . S
C403 O423 1.252 . S
C404 C403 1.510 . S
C404 C405 1.404 . S
C404 C406 1.352 . S
C405 C404 1.404 . S
C405 C409 1.389 . S
C405 H432 0.930 . S
C406 C404 1.352 . S
C406 C408 1.374 . S
C406 H433 0.931 . S
C407 C408 1.359 . S
C407 C409 1.364 . S
C408 C406 1.374 . S
C408 C407 1.359 . S
C408 H434 0.931 . S
C409 C405 1.389 . S
C409 C407 1.364 . S
C409 H435 0.931 . S
C410 O424 1.256 . S
C410 O425 1.257 . S
C411 O426 1.240 . S
C411 O427 1.240 . S
C412 Gd401 2.818 . S
C412 C413 1.510 . S
C412 O428 1.249 . S
C412 O429 1.252 . S
C413 C412 1.510 . S
C413 C414 1.404 . S
C413 C415 1.352 . S
C414 C413 1.404 . S
C414 C418 1.389 . S
C414 H436 0.930 . S
C415 C413 1.352 . S
C415 C417 1.374 . S
C415 H437 0.931 . S
C416 C417 1.359 . S
C416 C418 1.364 . S
C417 C415 1.374 . S
C417 C416 1.359 . S
C417 H438 0.931 . S
C418 C414 1.389 . S
C418 C416 1.364 . S
C418 H439 0.931 . S
C419 O430 1.256 . S
C419 O431 1.257 . S
O420 Gd400 2.377 . S
O420 C402 1.240 . S
O421 Gd401 2.395 . S
O421 C402 1.240 . S
O422 Gd400 2.448 . S
O422 C403 1.249 . S
O423 Gd400 2.506 . S
O423 C403 1.252 . S
O424 Gd400 2.435 . S
O424 C410 1.256 . S
O425 Gd400 2.717 . S
O425 Gd401 2.327 . S
O425 C410 1.257 . S
O426 Gd401 2.377 . S
O426 C411 1.240 . S
O427 Gd400 2.395 . S
O427 C411 1.240 . S
O428 Gd401 2.448 . S
O428 C412 1.249 . S
O429 Gd401 2.506 . S
O429 C412 1.252 . S
O430 Gd401 2.435 . S
O430 C419 1.256 . S
O431 Gd400 2.327 . S
O431 Gd401 2.717 . S
O431 C419 1.257 . S
H432 C405 0.930 . S
H433 C406 0.931 . S
H434 C408 0.931 . S
H435 C409 0.931 . S
H436 C414 0.930 . S
H437 C415 0.931 . S
H438 C417 0.931 . S
H439 C418 0.931 . S
Gd440 C443 2.818 . S
Gd440 O460 2.377 . S
Gd440 O462 2.448 . S
Gd440 O463 2.506 . S
Gd440 O464 2.435 1_455 S
Gd440 O465 2.717 1_455 S
Gd440 O467 2.377 1_454 S
Gd440 O471 2.327 1_554 S
Gd441 C452 2.818 1_455 S
Gd441 O461 2.395 1_556 S
Gd441 O465 2.327 1_456 S
Gd441 O466 2.377 1_455 S
Gd441 O468 2.448 1_455 S
Gd441 O469 2.506 1_455 S
Gd441 O470 2.435 . S
Gd441 O471 2.717 . S
C442 O460 1.240 . S
C442 O461 1.240 . S
C443 Gd440 2.818 . S
C443 C444 1.510 . S
C443 O462 1.249 . S
C443 O463 1.252 . S
C444 C443 1.510 . S
C444 C445 1.404 . S
C444 C446 1.352 . S
C445 C444 1.404 . S
C445 C449 1.389 . S
C445 H472 0.930 . S
C446 C444 1.352 . S
C446 C448 1.374 . S
C446 H473 0.931 . S
C447 C448 1.359 . S
C447 C449 1.364 . S
C448 C446 1.374 . S
C448 C447 1.359 . S
C448 H474 0.931 . S
C449 C445 1.389 . S
C449 C447 1.364 . S
C449 H475 0.931 . S
C450 O464 1.256 . S
C450 O465 1.257 . S
C451 O466 1.240 . S
C451 O467 1.267 . S
C452 Gd441 2.818 1_655 S
C452 C453 1.510 . S
C452 O468 1.249 . S
C452 O469 1.252 . S
C453 C452 1.510 . S
C453 C454 1.404 . S
C453 C455 1.352 . S
C454 C453 1.404 . S
C454 C458 1.389 . S
C454 H476 0.930 . S
C455 C453 1.352 . S
C455 C457 1.374 . S
C455 H477 0.931 . S
C456 C457 1.359 . S
C456 C458 1.364 . S
C457 C455 1.374 . S
C457 C456 1.359 . S
C457 H478 0.931 . S
C458 C454 1.389 . S
C458 C456 1.364 . S
C458 H479 0.931 . S
C459 O470 1.256 . S
C459 O471 1.257 . S
O460 Gd440 2.377 . S
O460 C442 1.240 . S
O461 Gd441 2.395 1_554 S
O461 C442 1.240 . S
O462 Gd440 2.448 . S
O462 C443 1.249 . S
O463 Gd440 2.506 . S
O463 C443 1.252 . S
O464 Gd440 2.435 1_655 S
O464 C450 1.256 . S
O465 Gd440 2.717 1_655 S
O465 Gd441 2.327 1_654 S
O465 C450 1.257 . S
O466 Gd441 2.377 1_655 S
O466 C451 1.240 . S
O467 Gd440 2.377 1_656 S
O467 C451 1.267 . S
O468 Gd441 2.448 1_655 S
O468 C452 1.249 . S
O469 Gd441 2.506 1_655 S
O469 C452 1.252 . S
O470 Gd441 2.435 . S
O470 C459 1.256 . S
O471 Gd440 2.327 1_556 S
O471 Gd441 2.717 . S
O471 C459 1.257 . S
H472 C445 0.930 . S
H473 C446 0.931 . S
H474 C448 0.931 . S
H475 C449 0.931 . S
H476 C454 0.930 . S
H477 C455 0.931 . S
H478 C457 0.931 . S
H479 C458 0.931 . S
H480 C492 0.930 . S
H481 C494 0.930 . S
H482 C495 0.930 . S
H483 C499 0.959 . S
H484 C499 0.959 . S
H485 C499 0.961 . S
H486 C500 0.960 . S
H487 C500 0.961 . S
H488 C500 0.959 . S
H489 C503 0.929 . S
H490 C504 0.931 . S
H491 C506 0.930 . S
C492 H480 0.930 . S
C492 C493 1.399 . S
C492 C497 1.399 . S
C493 C492 1.399 . S
C493 C494 1.376 . S
C494 H481 0.930 . S
C494 C493 1.376 . S
C494 C495 1.388 . S
C495 H482 0.930 . S
C495 C494 1.388 . S
C495 C496 1.390 . S
C496 C495 1.390 . S
C496 C497 1.394 . S
C496 C502 1.465 . S
C497 C492 1.399 . S
C497 C496 1.394 . S
C497 C498 1.516 . S
C498 C497 1.516 . S
C498 C499 1.502 . S
C498 C500 1.561 . S
C498 C501 1.526 . S
C499 H483 0.959 . S
C499 H484 0.959 . S
C499 H485 0.961 . S
C499 C498 1.502 . S
C500 H486 0.960 . S
C500 H487 0.961 . S
C500 H488 0.959 . S
C500 C498 1.561 . S
C501 C498 1.526 . S
C501 C502 1.396 . S
C501 C506 1.390 . S
C502 C496 1.465 . S
C502 C501 1.396 . S
C502 C503 1.399 . S
C503 H489 0.929 . S
C503 C502 1.399 . S
C503 C504 1.385 . S
C504 H490 0.931 . S
C504 C503 1.385 . S
C504 C505 1.389 . S
C505 C504 1.389 . S
C505 C506 1.387 . S
C506 H491 0.930 . S
C506 C501 1.390 . S
C506 C505 1.387 . S
H507 C519 0.930 . S
H508 C521 0.930 . S
H509 C522 0.930 . S
H510 C526 0.959 . S
H511 C526 0.959 . S
H512 C526 0.961 . S
H513 C527 0.960 . S
H514 C527 0.961 . S
H515 C527 0.959 . S
H516 C530 0.929 . S
H517 C531 0.931 . S
H518 C533 0.930 . S
C519 H507 0.930 . S
C519 C520 1.399 . S
C519 C524 1.399 . S
C520 C519 1.399 . S
C520 C521 1.376 . S
C521 H508 0.930 . S
C521 C520 1.376 . S
C521 C522 1.388 . S
C522 H509 0.930 . S
C522 C521 1.388 . S
C522 C523 1.390 . S
C523 C522 1.390 . S
C523 C524 1.394 . S
C523 C529 1.465 . S
C524 C519 1.399 . S
C524 C523 1.394 . S
C524 C525 1.516 . S
C525 C524 1.516 . S
C525 C526 1.502 . S
C525 C527 1.561 . S
C525 C528 1.526 . S
C526 H510 0.959 . S
C526 H511 0.959 . S
C526 H512 0.961 . S
C526 C525 1.502 . S
C527 H513 0.960 . S
C527 H514 0.961 . S
C527 H515 0.959 . S
C527 C525 1.561 . S
C528 C525 1.526 . S
C528 C529 1.396 . S
C528 C533 1.390 . S
C529 C523 1.465 . S
C529 C528 1.396 . S
C529 C530 1.399 . S
C530 H516 0.929 . S
C530 C529 1.399 . S
C530 C531 1.385 . S
C531 H517 0.931 . S
C531 C530 1.385 . S
C531 C532 1.389 . S
C532 C531 1.389 . S
C532 C533 1.387 . S
C533 H518 0.930 . S
C533 C528 1.390 . S
C533 C532 1.387 . S
H534 C546 0.930 . S
H535 C548 0.930 . S
H536 C549 0.930 . S
H537 C553 0.959 . S
H538 C553 0.959 . S
H539 C553 0.961 . S
H540 C554 0.960 . S
H541 C554 0.961 . S
H542 C554 0.959 . S
H543 C557 0.929 . S
H544 C558 0.931 . S
H545 C560 0.930 . S
C546 H534 0.930 . S
C546 C547 1.399 . S
C546 C551 1.399 . S
C547 C546 1.399 . S
C547 C548 1.376 . S
C548 H535 0.930 . S
C548 C547 1.376 . S
C548 C549 1.388 . S
C549 H536 0.930 . S
C549 C548 1.388 . S
C549 C550 1.390 . S
C550 C549 1.390 . S
C550 C551 1.394 . S
C550 C556 1.465 . S
C551 C546 1.399 . S
C551 C550 1.394 . S
C551 C552 1.516 . S
C552 C551 1.516 . S
C552 C553 1.502 . S
C552 C554 1.561 . S
C552 C555 1.526 . S
C553 H537 0.959 . S
C553 H538 0.959 . S
C553 H539 0.961 . S
C553 C552 1.502 . S
C554 H540 0.960 . S
C554 H541 0.961 . S
C554 H542 0.959 . S
C554 C552 1.561 . S
C555 C552 1.526 . S
C555 C556 1.396 . S
C555 C560 1.390 . S
C556 C550 1.465 . S
C556 C555 1.396 . S
C556 C557 1.399 . S
C557 H543 0.929 . S
C557 C556 1.399 . S
C557 C558 1.385 . S
C558 H544 0.931 . S
C558 C557 1.385 . S
C558 C559 1.389 . S
C559 C558 1.389 . S
C559 C560 1.387 . S
C560 H545 0.930 . S
C560 C555 1.390 . S
C560 C559 1.387 . S
H561 C573 0.930 . S
H562 C575 0.930 . S
H563 C576 0.930 . S
H564 C580 0.959 . S
H565 C580 0.959 . S
H566 C580 0.961 . S
H567 C581 0.960 . S
H568 C581 0.961 . S
H569 C581 0.959 . S
H570 C584 0.929 . S
H571 C585 0.931 . S
H572 C587 0.930 . S
C573 H561 0.930 . S
C573 C574 1.399 . S
C573 C578 1.399 . S
C574 C573 1.399 . S
C574 C575 1.376 . S
C575 H562 0.930 . S
C575 C574 1.376 . S
C575 C576 1.388 . S
C576 H563 0.930 . S
C576 C575 1.388 . S
C576 C577 1.390 . S
C577 C576 1.390 . S
C577 C578 1.394 . S
C577 C583 1.465 . S
C578 C573 1.399 . S
C578 C577 1.394 . S
C578 C579 1.516 . S
C579 C578 1.516 . S
C579 C580 1.502 . S
C579 C581 1.561 . S
C579 C582 1.526 . S
C580 H564 0.959 . S
C580 H565 0.959 . S
C580 H566 0.961 . S
C580 C579 1.502 . S
C581 H567 0.960 . S
C581 H568 0.961 . S
C581 H569 0.959 . S
C581 C579 1.561 . S
C582 C579 1.526 . S
C582 C583 1.396 . S
C582 C587 1.390 . S
C583 C577 1.465 . S
C583 C582 1.396 . S
C583 C584 1.399 . S
C584 H570 0.929 . S
C584 C583 1.399 . S
C584 C585 1.385 . S
C585 H571 0.931 . S
C585 C584 1.385 . S
C585 C586 1.389 . S
C586 C585 1.389 . S
C586 C587 1.387 . S
C587 H572 0.930 . S
C587 C582 1.390 . S
C587 C586 1.387 . S
H588 C600 0.930 . S
H589 C602 0.930 . S
H590 C603 0.930 . S
H591 C607 0.959 . S
H592 C607 0.959 . S
H593 C607 0.961 . S
H594 C608 0.960 . S
H595 C608 0.961 . S
H596 C608 0.959 . S
H597 C611 0.929 . S
H598 C612 0.931 . S
H599 C614 0.930 . S
C600 H588 0.930 . S
C600 C601 1.399 . S
C600 C605 1.399 . S
C601 C600 1.399 . S
C601 C602 1.376 . S
C602 H589 0.930 . S
C602 C601 1.376 . S
C602 C603 1.388 . S
C603 H590 0.930 . S
C603 C602 1.388 . S
C603 C604 1.390 . S
C604 C603 1.390 . S
C604 C605 1.394 . S
C604 C610 1.465 . S
C605 C600 1.399 . S
C605 C604 1.394 . S
C605 C606 1.516 . S
C606 C605 1.516 . S
C606 C607 1.502 . S
C606 C608 1.561 . S
C606 C609 1.526 . S
C607 H591 0.959 . S
C607 H592 0.959 . S
C607 H593 0.961 . S
C607 C606 1.502 . S
C608 H594 0.960 . S
C608 H595 0.961 . S
C608 H596 0.959 . S
C608 C606 1.561 . S
C609 C606 1.526 . S
C609 C610 1.396 . S
C609 C614 1.390 . S
C610 C604 1.465 . S
C610 C609 1.396 . S
C610 C611 1.399 . S
C611 H597 0.929 . S
C611 C610 1.399 . S
C611 C612 1.385 . S
C612 H598 0.931 . S
C612 C611 1.385 . S
C612 C613 1.389 . S
C613 C612 1.389 . S
C613 C614 1.387 . S
C614 H599 0.930 . S
C614 C609 1.390 . S
C614 C613 1.387 . S
H615 C627 0.930 . S
H616 C629 0.930 . S
H617 C630 0.930 . S
H618 C634 0.959 . S
H619 C634 0.959 . S
H620 C634 0.961 . S
H621 C635 0.960 . S
H622 C635 0.961 . S
H623 C635 0.959 . S
H624 C638 0.929 . S
H625 C639 0.931 . S
H626 C641 0.930 . S
C627 H615 0.930 . S
C627 C628 1.399 . S
C627 C632 1.399 . S
C628 C627 1.399 . S
C628 C629 1.376 . S
C629 H616 0.930 . S
C629 C628 1.376 . S
C629 C630 1.388 . S
C630 H617 0.930 . S
C630 C629 1.388 . S
C630 C631 1.390 . S
C631 C630 1.390 . S
C631 C632 1.394 . S
C631 C637 1.465 . S
C632 C627 1.399 . S
C632 C631 1.394 . S
C632 C633 1.516 . S
C633 C632 1.516 . S
C633 C634 1.502 . S
C633 C635 1.561 . S
C633 C636 1.526 . S
C634 H618 0.959 . S
C634 H619 0.959 . S
C634 H620 0.961 . S
C634 C633 1.502 . S
C635 H621 0.960 . S
C635 H622 0.961 . S
C635 H623 0.959 . S
C635 C633 1.561 . S
C636 C633 1.526 . S
C636 C637 1.396 . S
C636 C641 1.390 . S
C637 C631 1.465 . S
C637 C636 1.396 . S
C637 C638 1.399 . S
C638 H624 0.929 . S
C638 C637 1.399 . S
C638 C639 1.385 . S
C639 H625 0.931 . S
C639 C638 1.385 . S
C639 C640 1.389 . S
C640 C639 1.389 . S
C640 C641 1.387 . S
C641 H626 0.930 . S
C641 C636 1.390 . S
C641 C640 1.387 . S
H642 C654 0.930 . S
H643 C656 0.930 . S
H644 C657 0.930 . S
H645 C661 0.959 . S
H646 C661 0.959 . S
H647 C661 0.961 . S
H648 C662 0.960 . S
H649 C662 0.961 . S
H650 C662 0.959 . S
H651 C665 0.929 . S
H652 C666 0.931 . S
H653 C668 0.930 . S
C654 H642 0.930 . S
C654 C655 1.399 . S
C654 C659 1.399 . S
C655 C654 1.399 . S
C655 C656 1.376 . S
C656 H643 0.930 . S
C656 C655 1.376 . S
C656 C657 1.388 . S
C657 H644 0.930 . S
C657 C656 1.388 . S
C657 C658 1.390 . S
C658 C657 1.390 . S
C658 C659 1.394 . S
C658 C664 1.465 . S
C659 C654 1.399 . S
C659 C658 1.394 . S
C659 C660 1.516 . S
C660 C659 1.516 . S
C660 C661 1.502 . S
C660 C662 1.561 . S
C660 C663 1.526 . S
C661 H645 0.959 . S
C661 H646 0.959 . S
C661 H647 0.961 . S
C661 C660 1.502 . S
C662 H648 0.960 . S
C662 H649 0.961 . S
C662 H650 0.959 . S
C662 C660 1.561 . S
C663 C660 1.526 . S
C663 C664 1.396 . S
C663 C668 1.390 . S
C664 C658 1.465 . S
C664 C663 1.396 . S
C664 C665 1.399 . S
C665 H651 0.929 . S
C665 C664 1.399 . S
C665 C666 1.385 . S
C666 H652 0.931 . S
C666 C665 1.385 . S
C666 C667 1.389 . S
C667 C666 1.389 . S
C667 C668 1.387 . S
C668 H653 0.930 . S
C668 C663 1.390 . S
C668 C667 1.387 . S
H669 C681 0.930 . S
H670 C683 0.930 . S
H671 C684 0.930 . S
H672 C688 0.959 . S
H673 C688 0.959 . S
H674 C688 0.961 . S
H675 C689 0.960 . S
H676 C689 0.961 . S
H677 C689 0.959 . S
H678 C692 0.929 . S
H679 C693 0.931 . S
H680 C695 0.930 . S
C681 H669 0.930 . S
C681 C682 1.399 . S
C681 C686 1.399 . S
C682 C681 1.399 . S
C682 C683 1.376 . S
C683 H670 0.930 . S
C683 C682 1.376 . S
C683 C684 1.388 . S
C684 H671 0.930 . S
C684 C683 1.388 . S
C684 C685 1.390 . S
C685 C684 1.390 . S
C685 C686 1.394 . S
C685 C691 1.465 . S
C686 C681 1.399 . S
C686 C685 1.394 . S
C686 C687 1.516 . S
C687 C686 1.516 . S
C687 C688 1.502 . S
C687 C689 1.561 . S
C687 C690 1.526 . S
C688 H672 0.959 . S
C688 H673 0.959 . S
C688 H674 0.961 . S
C688 C687 1.502 . S
C689 H675 0.960 . S
C689 H676 0.961 . S
C689 H677 0.959 . S
C689 C687 1.561 . S
C690 C687 1.526 . S
C690 C691 1.396 . S
C690 C695 1.390 . S
C691 C685 1.465 . S
C691 C690 1.396 . S
C691 C692 1.399 . S
C692 H678 0.929 . S
C692 C691 1.399 . S
C692 C693 1.385 . S
C693 H679 0.931 . S
C693 C692 1.385 . S
C693 C694 1.389 . S
C694 C693 1.389 . S
C694 C695 1.387 . S
C695 H680 0.930 . S
C695 C690 1.390 . S
C695 C694 1.387 . S
H696 C708 0.930 . S
H697 C710 0.930 . S
H698 C711 0.930 . S
H699 C715 0.959 . S
H700 C715 0.959 . S
H701 C715 0.961 . S
H702 C716 0.960 . S
H703 C716 0.961 . S
H704 C716 0.959 . S
H705 C719 0.929 . S
H706 C720 0.931 . S
H707 C722 0.930 . S
C708 H696 0.930 . S
C708 C709 1.399 . S
C708 C713 1.399 . S
C709 C708 1.399 . S
C709 C710 1.376 . S
C710 H697 0.930 . S
C710 C709 1.376 . S
C710 C711 1.388 . S
C711 H698 0.930 . S
C711 C710 1.388 . S
C711 C712 1.390 . S
C712 C711 1.390 . S
C712 C713 1.394 . S
C712 C718 1.465 . S
C713 C708 1.399 . S
C713 C712 1.394 . S
C713 C714 1.516 . S
C714 C713 1.516 . S
C714 C715 1.502 . S
C714 C716 1.561 . S
C714 C717 1.526 . S
C715 H699 0.959 . S
C715 H700 0.959 . S
C715 H701 0.961 . S
C715 C714 1.502 . S
C716 H702 0.960 . S
C716 H703 0.961 . S
C716 H704 0.959 . S
C716 C714 1.561 . S
C717 C714 1.526 . S
C717 C718 1.396 . S
C717 C722 1.390 . S
C718 C712 1.465 . S
C718 C717 1.396 . S
C718 C719 1.399 . S
C719 H705 0.929 . S
C719 C718 1.399 . S
C719 C720 1.385 . S
C720 H706 0.931 . S
C720 C719 1.385 . S
C720 C721 1.389 . S
C721 C720 1.389 . S
C721 C722 1.387 . S
C722 H707 0.930 . S
C722 C717 1.390 . S
C722 C721 1.387 . S
H723 C735 0.930 . S
H724 C737 0.930 . S
H725 C738 0.930 . S
H726 C742 0.959 . S
H727 C742 0.959 . S
H728 C742 0.961 . S
H729 C743 0.960 . S
H730 C743 0.961 . S
H731 C743 0.959 . S
H732 C746 0.929 . S
H733 C747 0.931 . S
H734 C749 0.930 . S
C735 H723 0.930 . S
C735 C736 1.399 . S
C735 C740 1.399 . S
C736 C735 1.399 . S
C736 C737 1.376 . S
C737 H724 0.930 . S
C737 C736 1.376 . S
C737 C738 1.388 . S
C738 H725 0.930 . S
C738 C737 1.388 . S
C738 C739 1.390 . S
C739 C738 1.390 . S
C739 C740 1.394 . S
C739 C745 1.465 . S
C740 C735 1.399 . S
C740 C739 1.394 . S
C740 C741 1.516 . S
C741 C740 1.516 . S
C741 C742 1.502 . S
C741 C743 1.561 . S
C741 C744 1.526 . S
C742 H726 0.959 . S
C742 H727 0.959 . S
C742 H728 0.961 . S
C742 C741 1.502 . S
C743 H729 0.960 . S
C743 H730 0.961 . S
C743 H731 0.959 . S
C743 C741 1.561 . S
C744 C741 1.526 . S
C744 C745 1.396 . S
C744 C749 1.390 . S
C745 C739 1.465 . S
C745 C744 1.396 . S
C745 C746 1.399 . S
C746 H732 0.929 . S
C746 C745 1.399 . S
C746 C747 1.385 . S
C747 H733 0.931 . S
C747 C746 1.385 . S
C747 C748 1.389 . S
C748 C747 1.389 . S
C748 C749 1.387 . S
C749 H734 0.930 . S
C749 C744 1.390 . S
C749 C748 1.387 . S
H750 C762 0.930 . S
H751 C764 0.930 . S
H752 C765 0.930 . S
H753 C769 0.959 . S
H754 C769 0.959 . S
H755 C769 0.961 . S
H756 C770 0.960 . S
H757 C770 0.961 . S
H758 C770 0.959 . S
H759 C773 0.929 . S
H760 C774 0.931 . S
H761 C776 0.930 . S
C762 H750 0.930 . S
C762 C763 1.399 . S
C762 C767 1.399 . S
C763 C762 1.399 . S
C763 C764 1.376 . S
C764 H751 0.930 . S
C764 C763 1.376 . S
C764 C765 1.388 . S
C765 H752 0.930 . S
C765 C764 1.388 . S
C765 C766 1.390 . S
C766 C765 1.390 . S
C766 C767 1.394 . S
C766 C772 1.465 . S
C767 C762 1.399 . S
C767 C766 1.394 . S
C767 C768 1.516 . S
C768 C767 1.516 . S
C768 C769 1.502 . S
C768 C770 1.561 . S
C768 C771 1.526 . S
C769 H753 0.959 . S
C769 H754 0.959 . S
C769 H755 0.961 . S
C769 C768 1.502 . S
C770 H756 0.960 . S
C770 H757 0.961 . S
C770 H758 0.959 . S
C770 C768 1.561 . S
C771 C768 1.526 . S
C771 C772 1.396 . S
C771 C776 1.390 . S
C772 C766 1.465 . S
C772 C771 1.396 . S
C772 C773 1.399 . S
C773 H759 0.929 . S
C773 C772 1.399 . S
C773 C774 1.385 . S
C774 H760 0.931 . S
C774 C773 1.385 . S
C774 C775 1.389 . S
C775 C774 1.389 . S
C775 C776 1.387 . S
C776 H761 0.930 . S
C776 C771 1.390 . S
C776 C775 1.387 . S
H777 C789 0.930 . S
H778 C791 0.930 . S
H779 C792 0.930 . S
H780 C796 0.959 . S
H781 C796 0.959 . S
H782 C796 0.961 . S
H783 C797 0.960 . S
H784 C797 0.961 . S
H785 C797 0.959 . S
H786 C800 0.929 . S
H787 C801 0.931 . S
H788 C803 0.930 . S
C789 H777 0.930 . S
C789 C790 1.399 . S
C789 C794 1.399 . S
C790 C789 1.399 . S
C790 C791 1.376 . S
C791 H778 0.930 . S
C791 C790 1.376 . S
C791 C792 1.388 . S
C792 H779 0.930 . S
C792 C791 1.388 . S
C792 C793 1.390 . S
C793 C792 1.390 . S
C793 C794 1.394 . S
C793 C799 1.465 . S
C794 C789 1.399 . S
C794 C793 1.394 . S
C794 C795 1.516 . S
C795 C794 1.516 . S
C795 C796 1.502 . S
C795 C797 1.561 . S
C795 C798 1.526 . S
C796 H780 0.959 . S
C796 H781 0.959 . S
C796 H782 0.961 . S
C796 C795 1.502 . S
C797 H783 0.960 . S
C797 H784 0.961 . S
C797 H785 0.959 . S
C797 C795 1.561 . S
C798 C795 1.526 . S
C798 C799 1.396 . S
C798 C803 1.390 . S
C799 C793 1.465 . S
C799 C798 1.396 . S
C799 C800 1.399 . S
C800 H786 0.929 . S
C800 C799 1.399 . S
C800 C801 1.385 . S
C801 H787 0.931 . S
C801 C800 1.385 . S
C801 C802 1.389 . S
C802 C801 1.389 . S
C802 C803 1.387 . S
C803 H788 0.930 . S
C803 C798 1.390 . S
C803 C802 1.387 . S
H804 C816 0.930 . S
H805 C818 0.930 . S
H806 C819 0.930 . S
H807 C823 0.959 . S
H808 C823 0.959 . S
H809 C823 0.961 . S
H810 C824 0.960 . S
H811 C824 0.961 . S
H812 C824 0.959 . S
H813 C827 0.929 . S
H814 C828 0.931 . S
H815 C830 0.930 . S
C816 H804 0.930 . S
C816 C817 1.399 . S
C816 C821 1.399 . S
C817 C816 1.399 . S
C817 C818 1.376 . S
C818 H805 0.930 . S
C818 C817 1.376 . S
C818 C819 1.388 . S
C819 H806 0.930 . S
C819 C818 1.388 . S
C819 C820 1.390 . S
C820 C819 1.390 . S
C820 C821 1.394 . S
C820 C826 1.465 . S
C821 C816 1.399 . S
C821 C820 1.394 . S
C821 C822 1.516 . S
C822 C821 1.516 . S
C822 C823 1.502 . S
C822 C824 1.561 . S
C822 C825 1.526 . S
C823 H807 0.959 . S
C823 H808 0.959 . S
C823 H809 0.961 . S
C823 C822 1.502 . S
C824 H810 0.960 . S
C824 H811 0.961 . S
C824 H812 0.959 . S
C824 C822 1.561 . S
C825 C822 1.526 . S
C825 C826 1.396 . S
C825 C830 1.390 . S
C826 C820 1.465 . S
C826 C825 1.396 . S
C826 C827 1.399 . S
C827 H813 0.929 . S
C827 C826 1.399 . S
C827 C828 1.385 . S
C828 H814 0.931 . S
C828 C827 1.385 . S
C828 C829 1.389 . S
C829 C828 1.389 . S
C829 C830 1.387 . S
C830 H815 0.930 . S
C830 C825 1.390 . S
C830 C829 1.387 . S
H831 C843 0.930 . S
H832 C845 0.930 . S
H833 C846 0.930 . S
H834 C850 0.959 . S
H835 C850 0.959 . S
H836 C850 0.961 . S
H837 C851 0.960 . S
H838 C851 0.961 . S
H839 C851 0.959 . S
H840 C854 0.929 . S
H841 C855 0.931 . S
H842 C857 0.930 . S
C843 H831 0.930 . S
C843 C844 1.399 . S
C843 C848 1.399 . S
C844 C843 1.399 . S
C844 C845 1.376 . S
C845 H832 0.930 . S
C845 C844 1.376 . S
C845 C846 1.388 . S
C846 H833 0.930 . S
C846 C845 1.388 . S
C846 C847 1.390 . S
C847 C846 1.390 . S
C847 C848 1.394 . S
C847 C853 1.465 . S
C848 C843 1.399 . S
C848 C847 1.394 . S
C848 C849 1.516 . S
C849 C848 1.516 . S
C849 C850 1.502 . S
C849 C851 1.561 . S
C849 C852 1.526 . S
C850 H834 0.959 . S
C850 H835 0.959 . S
C850 H836 0.961 . S
C850 C849 1.502 . S
C851 H837 0.960 . S
C851 H838 0.961 . S
C851 H839 0.959 . S
C851 C849 1.561 . S
C852 C849 1.526 . S
C852 C853 1.396 . S
C852 C857 1.390 . S
C853 C847 1.465 . S
C853 C852 1.396 . S
C853 C854 1.399 . S
C854 H840 0.929 . S
C854 C853 1.399 . S
C854 C855 1.385 . S
C855 H841 0.931 . S
C855 C854 1.385 . S
C855 C856 1.389 . S
C856 C855 1.389 . S
C856 C857 1.387 . S
C857 H842 0.930 . S
C857 C852 1.390 . S
C857 C856 1.387 . S
H858 C870 0.930 . S
H859 C872 0.930 . S
H860 C873 0.930 . S
H861 C877 0.959 . S
H862 C877 0.959 . S
H863 C877 0.961 . S
H864 C878 0.960 . S
H865 C878 0.961 . S
H866 C878 0.959 . S
H867 C881 0.929 . S
H868 C882 0.931 . S
H869 C884 0.930 . S
C870 H858 0.930 . S
C870 C871 1.399 . S
C870 C875 1.399 . S
C871 C870 1.399 . S
C871 C872 1.376 . S
C872 H859 0.930 . S
C872 C871 1.376 . S
C872 C873 1.388 . S
C873 H860 0.930 . S
C873 C872 1.388 . S
C873 C874 1.390 . S
C874 C873 1.390 . S
C874 C875 1.394 . S
C874 C880 1.465 . S
C875 C870 1.399 . S
C875 C874 1.394 . S
C875 C876 1.516 . S
C876 C875 1.516 . S
C876 C877 1.502 . S
C876 C878 1.561 . S
C876 C879 1.526 . S
C877 H861 0.959 . S
C877 H862 0.959 . S
C877 H863 0.961 . S
C877 C876 1.502 . S
C878 H864 0.960 . S
C878 H865 0.961 . S
C878 H866 0.959 . S
C878 C876 1.561 . S
C879 C876 1.526 . S
C879 C880 1.396 . S
C879 C884 1.390 . S
C880 C874 1.465 . S
C880 C879 1.396 . S
C880 C881 1.399 . S
C881 H867 0.929 . S
C881 C880 1.399 . S
C881 C882 1.385 . S
C882 H868 0.931 . S
C882 C881 1.385 . S
C882 C883 1.389 . S
C883 C882 1.389 . S
C883 C884 1.387 . S
C884 H869 0.930 . S
C884 C879 1.390 . S
C884 C883 1.387 . S
H885 C897 0.930 . S
H886 C899 0.930 . S
H887 C900 0.930 . S
H888 C904 0.959 . S
H889 C904 0.959 . S
H890 C904 0.961 . S
H891 C905 0.960 . S
H892 C905 0.961 . S
H893 C905 0.959 . S
H894 C908 0.929 . S
H895 C909 0.931 . S
H896 C911 0.930 . S
C897 H885 0.930 . S
C897 C898 1.399 . S
C897 C902 1.399 . S
C898 C897 1.399 . S
C898 C899 1.376 . S
C899 H886 0.930 . S
C899 C898 1.376 . S
C899 C900 1.388 . S
C900 H887 0.930 . S
C900 C899 1.388 . S
C900 C901 1.390 . S
C901 C900 1.390 . S
C901 C902 1.394 . S
C901 C907 1.465 . S
C902 C897 1.399 . S
C902 C901 1.394 . S
C902 C903 1.516 . S
C903 C902 1.516 . S
C903 C904 1.502 . S
C903 C905 1.561 . S
C903 C906 1.526 . S
C904 H888 0.959 . S
C904 H889 0.959 . S
C904 H890 0.961 . S
C904 C903 1.502 . S
C905 H891 0.960 . S
C905 H892 0.961 . S
C905 H893 0.959 . S
C905 C903 1.561 . S
C906 C903 1.526 . S
C906 C907 1.396 . S
C906 C911 1.390 . S
C907 C901 1.465 . S
C907 C906 1.396 . S
C907 C908 1.399 . S
C908 H894 0.929 . S
C908 C907 1.399 . S
C908 C909 1.385 . S
C909 H895 0.931 . S
C909 C908 1.385 . S
C909 C910 1.389 . S
C910 C909 1.389 . S
C910 C911 1.387 . S
C911 H896 0.930 . S
C911 C906 1.390 . S
C911 C910 1.387 . S
H912 C924 0.930 . S
H913 C926 0.930 . S
H914 C927 0.930 . S
H915 C931 0.959 . S
H916 C931 0.959 . S
H917 C931 0.961 . S
H918 C932 0.960 . S
H919 C932 0.961 . S
H920 C932 0.959 . S
H921 C935 0.929 . S
H922 C936 0.931 . S
H923 C938 0.930 . S
C924 H912 0.930 . S
C924 C925 1.399 . S
C924 C929 1.399 . S
C925 C924 1.399 . S
C925 C926 1.376 . S
C926 H913 0.930 . S
C926 C925 1.376 . S
C926 C927 1.388 . S
C927 H914 0.930 . S
C927 C926 1.388 . S
C927 C928 1.390 . S
C928 C927 1.390 . S
C928 C929 1.394 . S
C928 C934 1.465 . S
C929 C924 1.399 . S
C929 C928 1.394 . S
C929 C930 1.516 . S
C930 C929 1.516 . S
C930 C931 1.502 . S
C930 C932 1.561 . S
C930 C933 1.526 . S
C931 H915 0.959 . S
C931 H916 0.959 . S
C931 H917 0.961 . S
C931 C930 1.502 . S
C932 H918 0.960 . S
C932 H919 0.961 . S
C932 H920 0.959 . S
C932 C930 1.561 . S
C933 C930 1.526 . S
C933 C934 1.396 . S
C933 C938 1.390 . S
C934 C928 1.465 . S
C934 C933 1.396 . S
C934 C935 1.399 . S
C935 H921 0.929 . S
C935 C934 1.399 . S
C935 C936 1.385 . S
C936 H922 0.931 . S
C936 C935 1.385 . S
C936 C937 1.389 . S
C937 C936 1.389 . S
C937 C938 1.387 . S
C938 H923 0.930 . S
C938 C933 1.390 . S
C938 C937 1.387 . S
H939 C951 0.930 . S
H940 C953 0.930 . S
H941 C954 0.930 . S
H942 C958 0.959 . S
H943 C958 0.959 . S
H944 C958 0.961 . S
H945 C959 0.960 . S
H946 C959 0.961 . S
H947 C959 0.959 . S
H948 C962 0.929 . S
H949 C963 0.931 . S
H950 C965 0.930 . S
C951 H939 0.930 . S
C951 C952 1.399 . S
C951 C956 1.399 . S
C952 C951 1.399 . S
C952 C953 1.376 . S
C953 H940 0.930 . S
C953 C952 1.376 . S
C953 C954 1.388 . S
C954 H941 0.930 . S
C954 C953 1.388 . S
C954 C955 1.390 . S
C955 C954 1.390 . S
C955 C956 1.394 . S
C955 C961 1.465 . S
C956 C951 1.399 . S
C956 C955 1.394 . S
C956 C957 1.516 . S
C957 C956 1.516 . S
C957 C958 1.502 . S
C957 C959 1.561 . S
C957 C960 1.526 . S
C958 H942 0.959 . S
C958 H943 0.959 . S
C958 H944 0.961 . S
C958 C957 1.502 . S
C959 H945 0.960 . S
C959 H946 0.961 . S
C959 H947 0.959 . S
C959 C957 1.561 . S
C960 C957 1.526 . S
C960 C961 1.396 . S
C960 C965 1.390 . S
C961 C955 1.465 . S
C961 C960 1.396 . S
C961 C962 1.399 . S
C962 H948 0.929 . S
C962 C961 1.399 . S
C962 C963 1.385 . S
C963 H949 0.931 . S
C963 C962 1.385 . S
C963 C964 1.389 . S
C964 C963 1.389 . S
C964 C965 1.387 . S
C965 H950 0.930 . S
C965 C960 1.390 . S
C965 C964 1.387 . S
H966 C978 0.930 . S
H967 C980 0.930 . S
H968 C981 0.930 . S
H969 C985 0.959 . S
H970 C985 0.959 . S
H971 C985 0.961 . S
H972 C986 0.960 . S
H973 C986 0.961 . S
H974 C986 0.959 . S
H975 C989 0.929 . S
H976 C990 0.931 . S
H977 C992 0.930 . S
C978 H966 0.930 . S
C978 C979 1.399 . S
C978 C983 1.399 . S
C979 C978 1.399 . S
C979 C980 1.376 . S
C980 H967 0.930 . S
C980 C979 1.376 . S
C980 C981 1.388 . S
C981 H968 0.930 . S
C981 C980 1.388 . S
C981 C982 1.390 . S
C982 C981 1.390 . S
C982 C983 1.394 . S
C982 C988 1.465 . S
C983 C978 1.399 . S
C983 C982 1.394 . S
C983 C984 1.516 . S
C984 C983 1.516 . S
C984 C985 1.502 . S
C984 C986 1.561 . S
C984 C987 1.526 . S
C985 H969 0.959 . S
C985 H970 0.959 . S
C985 H971 0.961 . S
C985 C984 1.502 . S
C986 H972 0.960 . S
C986 H973 0.961 . S
C986 H974 0.959 . S
C986 C984 1.561 . S
C987 C984 1.526 . S
C987 C988 1.396 . S
C987 C992 1.390 . S
C988 C982 1.465 . S
C988 C987 1.396 . S
C988 C989 1.399 . S
C989 H975 0.929 . S
C989 C988 1.399 . S
C989 C990 1.385 . S
C990 H976 0.931 . S
C990 C989 1.385 . S
C990 C991 1.389 . S
C991 C990 1.389 . S
C991 C992 1.387 . S
C992 H977 0.930 . S
C992 C987 1.390 . S
C992 C991 1.387 . S
H993 C1005 0.930 . S
H994 C1007 0.930 . S
H995 C1008 0.930 . S
H996 C1012 0.959 . S
H997 C1012 0.959 . S
H998 C1012 0.961 . S
H999 C1013 0.960 . S
H1000 C1013 0.961 . S
H1001 C1013 0.959 . S
H1002 C1016 0.929 . S
H1003 C1017 0.931 . S
H1004 C1019 0.930 . S
C1005 H993 0.930 . S
C1005 C1006 1.399 . S
C1005 C1010 1.399 . S
C1006 C1005 1.399 . S
C1006 C1007 1.376 . S
C1007 H994 0.930 . S
C1007 C1006 1.376 . S
C1007 C1008 1.388 . S
C1008 H995 0.930 . S
C1008 C1007 1.388 . S
C1008 C1009 1.390 . S
C1009 C1008 1.390 . S
C1009 C1010 1.394 . S
C1009 C1015 1.465 . S
C1010 C1005 1.399 . S
C1010 C1009 1.394 . S
C1010 C1011 1.516 . S
C1011 C1010 1.516 . S
C1011 C1012 1.502 . S
C1011 C1013 1.561 . S
C1011 C1014 1.526 . S
C1012 H996 0.959 . S
C1012 H997 0.959 . S
C1012 H998 0.961 . S
C1012 C1011 1.502 . S
C1013 H999 0.960 . S
C1013 H1000 0.961 . S
C1013 H1001 0.959 . S
C1013 C1011 1.561 . S
C1014 C1011 1.526 . S
C1014 C1015 1.396 . S
C1014 C1019 1.390 . S
C1015 C1009 1.465 . S
C1015 C1014 1.396 . S
C1015 C1016 1.399 . S
C1016 H1002 0.929 . S
C1016 C1015 1.399 . S
C1016 C1017 1.385 . S
C1017 H1003 0.931 . S
C1017 C1016 1.385 . S
C1017 C1018 1.389 . S
C1018 C1017 1.389 . S
C1018 C1019 1.387 . S
C1019 H1004 0.930 . S
C1019 C1014 1.390 . S
C1019 C1018 1.387 . S
H1020 C1032 0.930 . S
H1021 C1034 0.930 . S
H1022 C1035 0.930 . S
H1023 C1039 0.959 . S
H1024 C1039 0.959 . S
H1025 C1039 0.961 . S
H1026 C1040 0.960 . S
H1027 C1040 0.961 . S
H1028 C1040 0.959 . S
H1029 C1043 0.929 . S
H1030 C1044 0.931 . S
H1031 C1046 0.930 . S
C1032 H1020 0.930 . S
C1032 C1033 1.399 . S
C1032 C1037 1.399 . S
C1033 C1032 1.399 . S
C1033 C1034 1.376 . S
C1034 H1021 0.930 . S
C1034 C1033 1.376 . S
C1034 C1035 1.388 . S
C1035 H1022 0.930 . S
C1035 C1034 1.388 . S
C1035 C1036 1.390 . S
C1036 C1035 1.390 . S
C1036 C1037 1.394 . S
C1036 C1042 1.465 . S
C1037 C1032 1.399 . S
C1037 C1036 1.394 . S
C1037 C1038 1.516 . S
C1038 C1037 1.516 . S
C1038 C1039 1.502 . S
C1038 C1040 1.561 . S
C1038 C1041 1.526 . S
C1039 H1023 0.959 . S
C1039 H1024 0.959 . S
C1039 H1025 0.961 . S
C1039 C1038 1.502 . S
C1040 H1026 0.960 . S
C1040 H1027 0.961 . S
C1040 H1028 0.959 . S
C1040 C1038 1.561 . S
C1041 C1038 1.526 . S
C1041 C1042 1.396 . S
C1041 C1046 1.390 . S
C1042 C1036 1.465 . S
C1042 C1041 1.396 . S
C1042 C1043 1.399 . S
C1043 H1029 0.929 . S
C1043 C1042 1.399 . S
C1043 C1044 1.385 . S
C1044 H1030 0.931 . S
C1044 C1043 1.385 . S
C1044 C1045 1.389 . S
C1045 C1044 1.389 . S
C1045 C1046 1.387 . S
C1046 H1031 0.930 . S
C1046 C1041 1.390 . S
C1046 C1045 1.387 . S
H1047 C1059 0.930 . S
H1048 C1061 0.930 . S
H1049 C1062 0.930 . S
H1050 C1066 0.959 . S
H1051 C1066 0.959 . S
H1052 C1066 0.961 . S
H1053 C1067 0.960 . S
H1054 C1067 0.961 . S
H1055 C1067 0.959 . S
H1056 C1070 0.929 . S
H1057 C1071 0.931 . S
H1058 C1073 0.930 . S
C1059 H1047 0.930 . S
C1059 C1060 1.399 . S
C1059 C1064 1.399 . S
C1060 C1059 1.399 . S
C1060 C1061 1.376 . S
C1061 H1048 0.930 . S
C1061 C1060 1.376 . S
C1061 C1062 1.388 . S
C1062 H1049 0.930 . S
C1062 C1061 1.388 . S
C1062 C1063 1.390 . S
C1063 C1062 1.390 . S
C1063 C1064 1.394 . S
C1063 C1069 1.465 . S
C1064 C1059 1.399 . S
C1064 C1063 1.394 . S
C1064 C1065 1.516 . S
C1065 C1064 1.516 . S
C1065 C1066 1.502 . S
C1065 C1067 1.561 . S
C1065 C1068 1.526 . S
C1066 H1050 0.959 . S
C1066 H1051 0.959 . S
C1066 H1052 0.961 . S
C1066 C1065 1.502 . S
C1067 H1053 0.960 . S
C1067 H1054 0.961 . S
C1067 H1055 0.959 . S
C1067 C1065 1.561 . S
C1068 C1065 1.526 . S
C1068 C1069 1.396 . S
C1068 C1073 1.390 . S
C1069 C1063 1.465 . S
C1069 C1068 1.396 . S
C1069 C1070 1.399 . S
C1070 H1056 0.929 . S
C1070 C1069 1.399 . S
C1070 C1071 1.385 . S
C1071 H1057 0.931 . S
C1071 C1070 1.385 . S
C1071 C1072 1.389 . S
C1072 C1071 1.389 . S
C1072 C1073 1.387 . S
C1073 H1058 0.930 . S
C1073 C1068 1.390 . S
C1073 C1072 1.387 . S
H1074 C1086 0.930 . S
H1075 C1088 0.930 . S
H1076 C1089 0.930 . S
H1077 C1093 0.959 . S
H1078 C1093 0.959 . S
H1079 C1093 0.961 . S
H1080 C1094 0.960 . S
H1081 C1094 0.961 . S
H1082 C1094 0.959 . S
H1083 C1097 0.929 . S
H1084 C1098 0.931 . S
H1085 C1100 0.930 . S
C1086 H1074 0.930 . S
C1086 C1087 1.399 . S
C1086 C1091 1.399 . S
C1087 C1086 1.399 . S
C1087 C1088 1.376 . S
C1088 H1075 0.930 . S
C1088 C1087 1.376 . S
C1088 C1089 1.388 . S
C1089 H1076 0.930 . S
C1089 C1088 1.388 . S
C1089 C1090 1.390 . S
C1090 C1089 1.390 . S
C1090 C1091 1.394 . S
C1090 C1096 1.465 . S
C1091 C1086 1.399 . S
C1091 C1090 1.394 . S
C1091 C1092 1.516 . S
C1092 C1091 1.516 . S
C1092 C1093 1.502 . S
C1092 C1094 1.561 . S
C1092 C1095 1.526 . S
C1093 H1077 0.959 . S
C1093 H1078 0.959 . S
C1093 H1079 0.961 . S
C1093 C1092 1.502 . S
C1094 H1080 0.960 . S
C1094 H1081 0.961 . S
C1094 H1082 0.959 . S
C1094 C1092 1.561 . S
C1095 C1092 1.526 . S
C1095 C1096 1.396 . S
C1095 C1100 1.390 . S
C1096 C1090 1.465 . S
C1096 C1095 1.396 . S
C1096 C1097 1.399 . S
C1097 H1083 0.929 . S
C1097 C1096 1.399 . S
C1097 C1098 1.385 . S
C1098 H1084 0.931 . S
C1098 C1097 1.385 . S
C1098 C1099 1.389 . S
C1099 C1098 1.389 . S
C1099 C1100 1.387 . S
C1100 H1085 0.930 . S
C1100 C1095 1.390 . S
C1100 C1099 1.387 . S
H1101 C1113 0.930 . S
H1102 C1115 0.930 . S
H1103 C1116 0.930 . S
H1104 C1120 0.959 . S
H1105 C1120 0.959 . S
H1106 C1120 0.961 . S
H1107 C1121 0.960 . S
H1108 C1121 0.961 . S
H1109 C1121 0.959 . S
H1110 C1124 0.929 . S
H1111 C1125 0.931 . S
H1112 C1127 0.930 . S
C1113 H1101 0.930 . S
C1113 C1114 1.399 . S
C1113 C1118 1.399 . S
C1114 C1113 1.399 . S
C1114 C1115 1.376 . S
C1115 H1102 0.930 . S
C1115 C1114 1.376 . S
C1115 C1116 1.388 . S
C1116 H1103 0.930 . S
C1116 C1115 1.388 . S
C1116 C1117 1.390 . S
C1117 C1116 1.390 . S
C1117 C1118 1.394 . S
C1117 C1123 1.465 . S
C1118 C1113 1.399 . S
C1118 C1117 1.394 . S
C1118 C1119 1.516 . S
C1119 C1118 1.516 . S
C1119 C1120 1.502 . S
C1119 C1121 1.561 . S
C1119 C1122 1.526 . S
C1120 H1104 0.959 . S
C1120 H1105 0.959 . S
C1120 H1106 0.961 . S
C1120 C1119 1.502 . S
C1121 H1107 0.960 . S
C1121 H1108 0.961 . S
C1121 H1109 0.959 . S
C1121 C1119 1.561 . S
C1122 C1119 1.526 . S
C1122 C1123 1.396 . S
C1122 C1127 1.390 . S
C1123 C1117 1.465 . S
C1123 C1122 1.396 . S
C1123 C1124 1.399 . S
C1124 H1110 0.929 . S
C1124 C1123 1.399 . S
C1124 C1125 1.385 . S
C1125 H1111 0.931 . S
C1125 C1124 1.385 . S
C1125 C1126 1.389 . S
C1126 C1125 1.389 . S
C1126 C1127 1.387 . S
C1127 H1112 0.930 . S
C1127 C1122 1.390 . S
C1127 C1126 1.387 . S
C493 C21 1.360 . S
C505 C327 1.414 . S
C520 C61 1.038 . S
C532 C376 1.048 . S
C559 C402 2.362 . S
C547 C82 2.368 . S
C574 C135 2.361 . S
C586 C450 2.275 . S
C613 C362 2.667 . S
C601 C15 2.525 . S
C640 C330 1.008 . S
C628 C42 0.941 . S
C667 C451 1.861 . S
C655 C101 1.902 . S
C694 C419 1.491 . S
C682 C122 1.537 . S
C709 C2 1.718 . S
C721 C447 1.891 . S
C748 C379 2.215 . S
C736 C95 2.308 . S
C763 C141 2.352 . S
C775 C331 2.346 . S
C790 C55 0.962 . S
C802 C416 0.903 . S
C829 C336 1.439 . S
C817 C181 1.405 . S
C844 C202 1.036 . S
C856 C367 0.968 . S
C871 C255 2.414 . S
C883 C411 2.401 . S
C898 C295 2.336 . S
C910 C459 2.285 . S
C925 C175 2.485 . S
C937 C371 2.652 . S
C964 C339 0.917 . S
C952 C221 1.008 . S
C991 C442 1.824 . S
C979 C242 1.844 . S
C1018 C410 1.595 . S
C1006 C301 1.592 . S
C1033 C162 1.828 . S
C1045 C456 1.878 . S
C1072 C370 2.297 . S
C1060 C261 2.329 . S
C1099 C322 2.323 . S
C1087 C282 2.333 . S
C1114 C215 0.882 . S
C1126 C407 0.960 . S
