# Generated by pormake.
# Topology bcu-b, (8,8)-cn, num edge types: 1
# Building blocks:
#     Node 0, Type 0, BuildingBlock: TAGTUT_clean_sbu_3, # of connection points: 8
#     Node 1, Type 1, BuildingBlock: GIZVER_clean_sbu_0, # of connection points: 8
#     Edge 2, Type (0, 1), BuildingBlock: FUNLAD_clean_linker_1, # of connection points: 2
#     Edge 3, Type (0, 1), BuildingBlock: FUNLAD_clean_linker_1, # of connection points: 2
#     Edge 4, Type (0, 1), BuildingBlock: FUNLAD_clean_linker_1, # of connection points: 2
#     Edge 5, Type (0, 1), BuildingBlock: FUNLAD_clean_linker_1, # of connection points: 2
#     Edge 6, Type (0, 1), BuildingBlock: FUNLAD_clean_linker_1, # of connection points: 2
#     Edge 7, Type (0, 1), BuildingBlock: FUNLAD_clean_linker_1, # of connection points: 2
#     Edge 8, Type (0, 1), BuildingBlock: FUNLAD_clean_linker_1, # of connection points: 2
#     Edge 9, Type (0, 1), BuildingBlock: FUNLAD_clean_linker_1, # of connection points: 2
# Relax obj value: 0.090
# Max RMSD: 0.158
# Mean RMSD: 0.156
data_MOF--net-bcu-b--node1-TAGTUT_clean_sbu_3--node2-GIZVER_clean_sbu_0--edge1-FUNLAD_clean_linker_1
_symmetry_space_group_name_H-M    P1
_symmetry_Int_Tables_number       1
_symmetry_cell_setting            triclinic
loop_
_symmetry_equiv_pos_as_xyz
'x, y, z'
_cell_length_a     21.202808
_cell_length_b     23.637736
_cell_length_c     17.909583
_cell_angle_alpha  89.285977
_cell_angle_beta   90.811459
_cell_angle_gamma 107.737
loop_
_atom_site_label
_atom_site_type_symbol
_atom_site_fract_x
_atom_site_fract_y
_atom_site_fract_z
_atom_type_partial_charge
C0 C 0.11989 0.09347 0.10386 0.0
C1 C 0.17696 0.89527 0.09591 0.0
C2 C 0.10365 0.8811 0.87015 0.0
Mg3 Mg 1.00781 0.13687 0.02245 0.0
Mg4 Mg 0.86371 0.04156 0.99049 0.0
O5 O 0.95426 0.06233 0.96987 0.0
Mg6 Mg 1.00435 0.00555 0.99932 0.0
O7 O 0.0624 0.95601 0.03053 0.0
Mg8 Mg 0.14924 1.00143 0.98441 0.0
Mg9 Mg 0.03753 0.87332 0.02175 0.0
C10 C 0.87331 0.92642 0.90572 0.0
O11 O 0.92661 0.94983 0.08227 0.0
O12 O 0.94757 0.18503 0.95011 0.0
O13 O 0.94027 0.85875 0.07062 0.0
O14 O 0.93341 0.12988 0.11765 0.0
O15 O 0.84778 0.11634 0.93316 0.0
O16 O 0.84392 0.05157 0.10644 0.0
O17 O 0.08736 0.05247 0.91754 0.0
O18 O 0.08369 0.14536 0.93119 0.0
C19 C 0.10844 0.10796 0.90186 0.0
C20 C 0.88821 0.16845 0.92328 0.0
O21 O 0.93692 0.93882 0.91328 0.0
O22 O 0.19792 0.94547 0.06145 0.0
O23 O 0.83938 0.9562 0.93671 0.0
O24 O 0.13881 0.93265 0.89104 0.0
O25 O 0.11713 0.86122 0.08974 0.0
O26 O 0.05504 0.84985 0.90887 0.0
O27 O 0.05908 0.07632 0.08403 0.0
O28 O 0.16121 0.06988 0.07664 0.0
C29 C 0.87804 0.09698 0.14239 0.0
C30 C 0.90856 0.89335 0.09484 0.0
Co31 Co 0.59398 0.40991 0.45626 0.0
Co32 Co 0.61083 0.45933 0.58757 0.0
Co33 Co 0.50701 0.50451 0.5053 0.0
O34 O 0.59086 0.48443 0.49462 0.0
H35 H 0.62695 0.5177 0.47735 0.0
O36 O 0.42448 0.52601 0.51522 0.0
Co37 Co 0.42034 0.60112 0.55162 0.0
Co38 Co 0.40607 0.55084 0.42121 0.0
H39 H 0.3879 0.49293 0.53196 0.0
O40 O 0.6949 0.46217 0.61346 0.0
O41 O 0.61626 0.38623 0.55825 0.0
O42 O 0.54622 0.4466 0.66571 0.0
O43 O 0.46723 0.43961 0.58081 0.0
O44 O 0.54931 0.55971 0.58562 0.0
O45 O 0.40561 0.66647 0.5878 0.0
O46 O 0.33187 0.57708 0.5644 0.0
O47 O 0.51642 0.63663 0.54886 0.0
O48 O 0.54618 0.56976 0.43056 0.0
O49 O 0.46937 0.55651 0.34207 0.0
O50 O 0.4076 0.6272 0.44651 0.0
O51 O 0.32398 0.55383 0.39406 0.0
C52 C 0.66519 0.37816 0.41163 0.0
C53 C 0.4598 0.39275 0.43108 0.0
C54 C 0.48598 0.42866 0.64594 0.0
C55 C 0.67394 0.4074 0.59115 0.0
C56 C 0.34491 0.63116 0.589 0.0
C57 C 0.55827 0.61523 0.58184 0.0
C58 C 0.52896 0.57691 0.36355 0.0
C59 C 0.35119 0.6095 0.40992 0.0
O60 O 0.60452 0.34413 0.41901 0.0
O61 O 0.68129 0.4334 0.43317 0.0
O62 O 0.46438 0.44768 0.42549 0.0
O63 O 0.50107 0.37541 0.47059 0.0
H64 H 0.10937 0.16619 0.17483 0.0
C65 C 0.14424 0.14489 0.15379 0.0
H66 H 0.24425 0.14632 0.14945 0.0
H67 H 0.383 0.411 0.22216 0.0
H68 H 0.38671 0.41693 0.08691 0.0
H69 H 0.32081 0.33328 0.01009 0.0
H70 H 0.25063 0.24307 0.06821 0.0
C71 C 0.20873 0.16613 0.1722 0.0
C72 C 0.23604 0.22 0.2181 0.0
C73 C 0.27517 0.27295 0.1833 0.0
C74 C 0.31255 0.32135 0.22759 0.0
C75 C 0.35305 0.37301 0.19133 0.0
C76 C 0.35567 0.37702 0.11366 0.0
C77 C 0.31857 0.32992 0.07039 0.0
C78 C 0.27876 0.27834 0.10446 0.0
H79 H 0.40691 0.30222 0.39368 0.0
C80 C 0.40629 0.34806 0.39182 0.0
H81 H 0.35828 0.40794 0.34842 0.0
H82 H 0.16127 0.12647 0.3022 0.0
H83 H 0.15154 0.12309 0.43715 0.0
H84 H 0.21225 0.20909 0.51368 0.0
H85 H 0.28367 0.29874 0.45557 0.0
C86 C 0.35873 0.36215 0.35232 0.0
C87 C 0.31048 0.31645 0.30655 0.0
C88 C 0.26648 0.26562 0.34112 0.0
C89 C 0.22991 0.21684 0.29685 0.0
C90 C 0.18919 0.16528 0.333 0.0
C91 C 0.1832 0.16274 0.41046 0.0
C92 C 0.21748 0.2111 0.45357 0.0
C93 C 0.25864 0.26209 0.4196 0.0
H94 H 0.7966 0.09318 0.22008 0.0
C95 C 0.84666 0.1188 0.20469 0.0
H96 H 0.92118 0.20152 0.21262 0.0
H97 H 0.71427 0.34308 0.23342 0.0
H98 H 0.74884 0.36175 0.10495 0.0
H99 H 0.82138 0.31013 0.04885 0.0
H100 H 0.85928 0.23918 0.12082 0.0
C101 C 0.87252 0.17447 0.23077 0.0
C102 C 0.83031 0.20633 0.26683 0.0
C103 C 0.81 0.24911 0.22459 0.0
C104 C 0.76897 0.27963 0.25731 0.0
C105 C 0.74688 0.3198 0.21242 0.0
C106 C 0.76604 0.33072 0.13823 0.0
C107 C 0.80684 0.30165 0.10663 0.0
C108 C 0.82844 0.26112 0.14883 0.0
H109 H 0.765 0.38318 0.3703 0.0
C110 C 0.71561 0.35345 0.38093 0.0
H111 H 0.65248 0.26493 0.37899 0.0
H112 H 0.86325 0.12969 0.36398 0.0
H113 H 0.8304 0.11207 0.49379 0.0
H114 H 0.76095 0.16609 0.55134 0.0
H115 H 0.72352 0.23787 0.47973 0.0
C116 C 0.70098 0.29515 0.36552 0.0
C117 C 0.74943 0.26827 0.33289 0.0
C118 C 0.77091 0.22638 0.37549 0.0
C119 C 0.81125 0.1953 0.34239 0.0
C120 C 0.83223 0.1541 0.38637 0.0
C121 C 0.81388 0.14371 0.4609 0.0
C122 C 0.7747 0.1741 0.49333 0.0
C123 C 0.75335 0.21502 0.45148 0.0
H124 H 0.82102 0.89486 0.16023 0.0
C125 C 0.84902 0.86666 0.13999 0.0
H126 H 0.85873 0.78014 0.13956 0.0
H127 H 0.70833 0.68651 0.43432 0.0
H128 H 0.82026 0.71903 0.48336 0.0
H129 H 0.91201 0.78125 0.40731 0.0
H130 H 0.89207 0.81061 0.28098 0.0
C131 C 0.83003 0.80846 0.15745 0.0
C132 C 0.77313 0.78073 0.20653 0.0
C133 C 0.78522 0.76539 0.28087 0.0
C134 C 0.73207 0.73071 0.32515 0.0
C135 C 0.74626 0.71382 0.39826 0.0
C136 C 0.81055 0.73198 0.4272 0.0
C137 C 0.86219 0.76697 0.3844 0.0
C138 C 0.85005 0.78342 0.31197 0.0
H139 H 0.58142 0.60501 0.25739 0.0
C140 C 0.57671 0.61803 0.3145 0.0
H141 H 0.60578 0.6841 0.39654 0.0
H142 H 0.7335 0.8032 0.06595 0.0
H143 H 0.62048 0.77707 0.01901 0.0
H144 H 0.52684 0.72523 0.09975 0.0
H145 H 0.54583 0.69798 0.22724 0.0
C146 C 0.61273 0.67159 0.33971 0.0
C147 C 0.6667 0.71244 0.29516 0.0
C148 C 0.65404 0.73191 0.22266 0.0
C149 C 0.70767 0.7646 0.17746 0.0
C150 C 0.69441 0.77975 0.10337 0.0
C151 C 0.62976 0.76503 0.07571 0.0
C152 C 0.57707 0.73563 0.12107 0.0
C153 C 0.58872 0.7196 0.1939 0.0
H154 H 0.26848 0.91055 0.16418 0.0
C155 C 0.22276 0.87735 0.14728 0.0
H156 H 0.16182 0.78884 0.15823 0.0
H157 H 0.44414 0.76255 0.29624 0.0
H158 H 0.49686 0.80658 0.18139 0.0
H159 H 0.43561 0.84567 0.08621 0.0
H160 H 0.32229 0.84303 0.10643 0.0
C161 C 0.20817 0.82156 0.17438 0.0
C162 C 0.24882 0.80292 0.23274 0.0
C163 C 0.31485 0.80357 0.21868 0.0
C164 C 0.34934 0.77856 0.27212 0.0
C165 C 0.41537 0.78027 0.25733 0.0
C166 C 0.44622 0.80519 0.19143 0.0
C167 C 0.41183 0.82749 0.13804 0.0
C168 C 0.34678 0.8263 0.15085 0.0
H169 H 0.27235 0.63386 0.35022 0.0
C170 C 0.31887 0.65212 0.38046 0.0
H171 H 0.39442 0.73054 0.40943 0.0
H172 H 0.12693 0.80236 0.28259 0.0
H173 H 0.07448 0.75776 0.39754 0.0
H174 H 0.13192 0.70871 0.48584 0.0
H175 H 0.24277 0.70528 0.46042 0.0
C176 C 0.34657 0.71126 0.38246 0.0
C177 C 0.31652 0.74986 0.33702 0.0
C178 C 0.25178 0.75155 0.35258 0.0
C179 C 0.21831 0.77883 0.30097 0.0
C180 C 0.15411 0.78088 0.31884 0.0
C181 C 0.12348 0.75567 0.38482 0.0
C182 C 0.15575 0.72799 0.43445 0.0
C183 C 0.21925 0.72608 0.41899 0.0
H184 H 0.17619 0.88155 0.78418 0.0
C185 C 0.12943 0.85466 0.80753 0.0
H186 H 0.06013 0.76948 0.813 0.0
H187 H 0.29794 0.78755 0.55333 0.0
H188 H 0.26045 0.86362 0.49164 0.0
H189 H 0.16775 0.89333 0.54232 0.0
H190 H 0.11379 0.84875 0.65682 0.0
C191 C 0.10578 0.7971 0.78829 0.0
C192 C 0.14839 0.76817 0.74632 0.0
C193 C 0.17653 0.79167 0.67676 0.0
C194 C 0.22744 0.77203 0.64518 0.0
C195 C 0.258 0.7997 0.57881 0.0
C196 C 0.23698 0.84348 0.54282 0.0
C197 C 0.18487 0.86025 0.5714 0.0
C198 C 0.15472 0.83471 0.63745 0.0
H199 H 0.24073 0.62078 0.61711 0.0
C200 C 0.29057 0.65176 0.61767 0.0
H201 H 0.3505 0.73799 0.64624 0.0
H202 H 0.1021 0.70949 0.87765 0.0
H203 H 0.13643 0.63091 0.93586 0.0
H204 H 0.22203 0.59489 0.87896 0.0
H205 H 0.27388 0.63753 0.76352 0.0
C206 C 0.30121 0.7061 0.647 0.0
C207 C 0.24668 0.72545 0.67979 0.0
C208 C 0.216 0.69951 0.74722 0.0
C209 C 0.16685 0.72077 0.78042 0.0
C210 C 0.13901 0.69516 0.8491 0.0
C211 C 0.15844 0.64992 0.88354 0.0
C212 C 0.20655 0.62959 0.85147 0.0
C213 C 0.23551 0.6542 0.78456 0.0
H214 H 0.15872 0.11944 0.79355 0.0
C215 C 0.16479 0.13168 0.85207 0.0
H216 H 0.2203 0.18793 0.93471 0.0
H217 H 0.40063 0.25865 0.62057 0.0
H218 H 0.39986 0.15589 0.6156 0.0
H219 H 0.33744 0.08233 0.70776 0.0
H220 H 0.27461 0.11083 0.80461 0.0
C221 C 0.21647 0.17682 0.8757 0.0
C222 C 0.25899 0.22088 0.82303 0.0
C223 C 0.29721 0.20365 0.76838 0.0
C224 C 0.33509 0.24649 0.71687 0.0
C225 C 0.37156 0.22803 0.66159 0.0
C226 C 0.37163 0.16921 0.65816 0.0
C227 C 0.33636 0.12777 0.70993 0.0
C228 C 0.29988 0.14461 0.76481 0.0
H229 H 0.45349 0.38505 0.75434 0.0
C230 C 0.43858 0.38816 0.69646 0.0
H231 H 0.36624 0.35167 0.61321 0.0
H232 H 0.18935 0.26948 0.91912 0.0
H233 H 0.1937 0.37252 0.92576 0.0
H234 H 0.26304 0.447 0.83925 0.0
H235 H 0.32829 0.41836 0.74522 0.0
C236 C 0.38038 0.35188 0.67181 0.0
C237 C 0.33716 0.30678 0.72241 0.0
C238 C 0.2997 0.32425 0.77739 0.0
C239 C 0.26022 0.28127 0.82751 0.0
C240 C 0.22163 0.29996 0.88046 0.0
C241 C 0.22324 0.35917 0.88469 0.0
C242 C 0.26226 0.40109 0.83603 0.0
C243 C 0.2998 0.38405 0.78259 0.0
H244 H 0.81418 0.21033 0.88661 0.0
C245 C 0.86453 0.20958 0.87753 0.0
H246 H 0.94738 0.23537 0.80658 0.0
H247 H 0.66236 0.26558 0.66411 0.0
H248 H 0.62275 0.15855 0.6676 0.0
H249 H 0.69578 0.10043 0.70964 0.0
H250 H 0.80845 0.15015 0.75154 0.0
C251 C 0.89787 0.23744 0.81772 0.0
C252 C 0.8661 0.26992 0.76496 0.0
C253 C 0.80338 0.24028 0.73274 0.0
C254 C 0.76371 0.27366 0.70182 0.0
C255 C 0.69727 0.24298 0.68158 0.0
C256 C 0.67331 0.18117 0.68448 0.0
C257 C 0.71421 0.14847 0.70863 0.0
C258 C 0.77847 0.17747 0.73289 0.0
H259 H 0.71339 0.33277 0.56905 0.0
C260 C 0.71437 0.36815 0.60763 0.0
H261 H 0.74832 0.40971 0.70988 0.0
H262 H 0.98972 0.33857 0.80823 0.0
H263 H 0.03713 0.44474 0.78793 0.0
H264 H 0.9735 0.5021 0.72185 0.0
H265 H 0.86174 0.45386 0.67685 0.0
C266 C 0.74867 0.37407 0.67216 0.0
C267 C 0.79058 0.33641 0.69493 0.0
C268 C 0.85717 0.36487 0.71747 0.0
C269 C 0.89459 0.33169 0.75374 0.0
C270 C 0.95945 0.36167 0.77962 0.0
C271 C 0.98731 0.42256 0.7682 0.0
C272 C 0.95146 0.45486 0.73109 0.0
C273 C 0.88718 0.42664 0.7059 0.0
H274 H 0.78046 0.86568 0.86558 0.0
C275 C 0.83391 0.87694 0.8594 0.0
H276 H 0.90981 0.86146 0.79515 0.0
H277 H 0.60185 0.66307 0.76007 0.0
H278 H 0.6174 0.6349 0.88781 0.0
H279 H 0.72201 0.68185 0.95575 0.0
H280 H 0.81113 0.75845 0.89629 0.0
C281 C 0.85715 0.84906 0.80652 0.0
C282 C 0.80788 0.8063 0.7573 0.0
C283 C 0.75872 0.75787 0.79002 0.0
C284 C 0.70022 0.72829 0.74919 0.0
C285 C 0.64899 0.68475 0.78661 0.0
C286 C 0.65698 0.66848 0.86036 0.0
C287 C 0.71572 0.69506 0.89872 0.0
C288 C 0.76618 0.7392 0.86421 0.0
H289 H 0.65533 0.63126 0.63595 0.0
C290 C 0.62014 0.65334 0.61575 0.0
H291 H 0.59962 0.7353 0.60906 0.0
H292 H 0.8967 0.89117 0.67437 0.0
H293 H 0.88544 0.91455 0.54342 0.0
H294 H 0.7868 0.85958 0.47028 0.0
H295 H 0.69842 0.78123 0.52777 0.0
C296 C 0.63297 0.71141 0.62922 0.0
C297 C 0.69335 0.74376 0.67318 0.0
C298 C 0.74502 0.78884 0.6386 0.0
C299 C 0.80232 0.82019 0.68069 0.0
C300 C 0.85229 0.86594 0.64508 0.0
C301 C 0.8465 0.87971 0.5699 0.0
C302 C 0.79093 0.8488 0.52872 0.0
C303 C 0.74059 0.8039 0.56238 0.0
loop_
_geom_bond_atom_site_label_1
_geom_bond_atom_site_label_2
_geom_bond_distance
_geom_bond_site_symmetry_2
_ccdc_geom_bond_type
C0 O27 1.312 . S
C0 O28 1.208 . S
C1 O22 1.331 . S
C1 O25 1.244 . S
C2 O24 1.264 . S
C2 O26 1.273 . S
Mg3 O5 1.936 . S
Mg3 O12 2.081 . S
Mg3 O14 2.023 1_556 S
Mg3 O18 2.031 1_655 S
Mg3 O27 2.291 1_656 S
Mg4 O5 1.963 . S
Mg4 O15 1.942 . S
Mg4 O16 1.955 1_556 S
Mg4 O23 1.986 1_545 S
O5 Mg3 1.936 . S
O5 Mg4 1.963 . S
O5 Mg6 1.927 1_556 S
Mg6 O5 1.927 1_554 S
Mg6 O7 1.902 1_645 S
Mg6 O11 2.029 1_545 S
Mg6 O17 2.096 1_654 S
Mg6 O21 2.010 1_544 S
Mg6 O27 2.116 1_655 S
O7 Mg6 1.902 1_465 S
O7 Mg8 1.936 1_565 S
O7 Mg9 1.963 . S
Mg8 O7 1.936 1_545 S
Mg8 O17 2.291 1_554 S
Mg8 O22 2.081 1_545 S
Mg8 O24 2.023 1_544 S
Mg8 O28 2.031 . S
Mg9 O7 1.963 . S
Mg9 O13 1.986 1_455 S
Mg9 O25 1.942 . S
Mg9 O26 1.955 1_554 S
C10 O21 1.191 . S
C10 O23 1.307 . S
O11 Mg6 2.029 1_565 S
O11 C30 1.191 . S
O12 Mg3 2.081 . S
O12 C20 1.331 . S
O13 Mg9 1.986 1_655 S
O13 C30 1.307 . S
O14 Mg3 2.023 1_554 S
O14 C29 1.264 . S
O15 Mg4 1.942 . S
O15 C20 1.244 . S
O16 Mg4 1.955 1_554 S
O16 C29 1.273 . S
O17 Mg6 2.096 1_456 S
O17 Mg8 2.291 1_556 S
O17 C19 1.312 . S
O18 Mg3 2.031 1_455 S
O18 C19 1.208 . S
C19 O17 1.312 . S
C19 O18 1.208 . S
C20 O12 1.331 . S
C20 O15 1.244 . S
O21 Mg6 2.010 1_566 S
O21 C10 1.191 . S
O22 C1 1.331 . S
O22 Mg8 2.081 1_565 S
O23 Mg4 1.986 1_565 S
O23 C10 1.307 . S
O24 C2 1.264 . S
O24 Mg8 2.023 1_566 S
O25 C1 1.244 . S
O25 Mg9 1.942 . S
O26 C2 1.273 . S
O26 Mg9 1.955 1_556 S
O27 C0 1.312 . S
O27 Mg3 2.291 1_454 S
O27 Mg6 2.116 1_455 S
O28 C0 1.208 . S
O28 Mg8 2.031 . S
C29 O14 1.264 . S
C29 O16 1.273 . S
C30 O11 1.191 . S
C30 O13 1.307 . S
Co31 O34 2.042 . S
Co31 O41 2.264 . S
Co31 O60 2.286 . S
Co31 O61 2.069 . S
Co31 O63 2.015 . S
Co32 O34 2.122 . S
Co32 O40 2.073 . S
Co32 O41 2.327 . S
Co32 O42 1.976 . S
Co33 O34 2.087 . S
Co33 O36 2.087 . S
Co33 O43 2.111 . S
Co33 O44 2.143 . S
Co33 O48 2.111 . S
Co33 O62 2.143 . S
O34 Co31 2.042 . S
O34 Co32 2.122 . S
O34 Co33 2.087 . S
O34 H35 0.980 . S
H35 O34 0.980 . S
O36 Co33 2.087 . S
O36 Co37 2.042 . S
O36 Co38 2.122 . S
O36 H39 0.980 . S
Co37 O36 2.042 . S
Co37 O45 2.286 . S
Co37 O46 2.069 . S
Co37 O47 2.015 . S
Co37 O50 2.264 . S
Co38 O36 2.122 . S
Co38 O49 1.976 . S
Co38 O50 2.327 . S
Co38 O51 2.073 . S
H39 O36 0.980 . S
O40 Co32 2.073 . S
O40 C55 1.245 . S
O41 Co31 2.264 . S
O41 Co32 2.327 . S
O41 C55 1.257 . S
O42 Co32 1.976 . S
O42 C54 1.251 . S
O43 Co33 2.111 . S
O43 C54 1.274 . S
O44 Co33 2.143 . S
O44 C57 1.246 . S
O45 Co37 2.286 . S
O45 C56 1.259 . S
O46 Co37 2.069 . S
O46 C56 1.289 . S
O47 Co37 2.015 . S
O47 C57 1.257 . S
O48 Co33 2.111 . S
O48 C58 1.274 . S
O49 Co38 1.976 . S
O49 C58 1.251 . S
O50 Co37 2.264 . S
O50 Co38 2.327 . S
O50 C59 1.257 . S
O51 Co38 2.073 . S
O51 C59 1.245 . S
C52 O60 1.259 . S
C52 O61 1.289 . S
C53 O62 1.246 . S
C53 O63 1.257 . S
C54 O42 1.251 . S
C54 O43 1.274 . S
C55 O40 1.245 . S
C55 O41 1.257 . S
C56 O45 1.259 . S
C56 O46 1.289 . S
C57 O44 1.246 . S
C57 O47 1.257 . S
C58 O48 1.274 . S
C58 O49 1.251 . S
C59 O50 1.257 . S
C59 O51 1.245 . S
O60 Co31 2.286 . S
O60 C52 1.259 . S
O61 Co31 2.069 . S
O61 C52 1.289 . S
O62 Co33 2.143 . S
O62 C53 1.246 . S
O63 Co31 2.015 . S
O63 C53 1.257 . S
H64 C65 0.951 . S
C65 H64 0.951 . S
C65 C71 1.265 . S
H66 C71 0.950 . S
H67 C75 0.949 . S
H68 C76 0.950 . S
H69 C77 0.951 . S
H70 C78 0.951 . S
C71 C65 1.265 . S
C71 H66 0.950 . S
C71 C72 1.478 . S
C72 C71 1.478 . S
C72 C73 1.397 . S
C72 C89 1.394 . S
C73 C72 1.397 . S
C73 C74 1.438 . S
C73 C78 1.429 . S
C74 C73 1.438 . S
C74 C75 1.428 . S
C74 C87 1.394 . S
C75 H67 0.949 . S
C75 C74 1.428 . S
C75 C76 1.345 . S
C76 H68 0.950 . S
C76 C75 1.345 . S
C76 C77 1.424 . S
C77 H69 0.951 . S
C77 C76 1.424 . S
C77 C78 1.347 . S
C78 H70 0.951 . S
C78 C73 1.429 . S
C78 C77 1.347 . S
H79 C80 0.951 . S
C80 H79 0.951 . S
C80 C86 1.265 . S
H81 C86 0.950 . S
H82 C90 0.949 . S
H83 C91 0.950 . S
H84 C92 0.951 . S
H85 C93 0.951 . S
C86 C80 1.265 . S
C86 H81 0.950 . S
C86 C87 1.478 . S
C87 C74 1.394 . S
C87 C86 1.478 . S
C87 C88 1.397 . S
C88 C87 1.397 . S
C88 C89 1.438 . S
C88 C93 1.429 . S
C89 C72 1.394 . S
C89 C88 1.438 . S
C89 C90 1.428 . S
C90 H82 0.949 . S
C90 C89 1.428 . S
C90 C91 1.345 . S
C91 H83 0.950 . S
C91 C90 1.345 . S
C91 C92 1.424 . S
C92 H84 0.951 . S
C92 C91 1.424 . S
C92 C93 1.347 . S
C93 H85 0.951 . S
C93 C88 1.429 . S
C93 C92 1.347 . S
H94 C95 0.951 . S
C95 H94 0.951 . S
C95 C101 1.265 . S
H96 C101 0.950 . S
H97 C105 0.949 . S
H98 C106 0.950 . S
H99 C107 0.951 . S
H100 C108 0.951 . S
C101 C95 1.265 . S
C101 H96 0.950 . S
C101 C102 1.478 . S
C102 C101 1.478 . S
C102 C103 1.397 . S
C102 C119 1.394 . S
C103 C102 1.397 . S
C103 C104 1.438 . S
C103 C108 1.429 . S
C104 C103 1.438 . S
C104 C105 1.428 . S
C104 C117 1.394 . S
C105 H97 0.949 . S
C105 C104 1.428 . S
C105 C106 1.345 . S
C106 H98 0.950 . S
C106 C105 1.345 . S
C106 C107 1.424 . S
C107 H99 0.951 . S
C107 C106 1.424 . S
C107 C108 1.347 . S
C108 H100 0.951 . S
C108 C103 1.429 . S
C108 C107 1.347 . S
H109 C110 0.951 . S
C110 H109 0.951 . S
C110 C116 1.265 . S
H111 C116 0.950 . S
H112 C120 0.949 . S
H113 C121 0.950 . S
H114 C122 0.951 . S
H115 C123 0.951 . S
C116 C110 1.265 . S
C116 H111 0.950 . S
C116 C117 1.478 . S
C117 C104 1.394 . S
C117 C116 1.478 . S
C117 C118 1.397 . S
C118 C117 1.397 . S
C118 C119 1.438 . S
C118 C123 1.429 . S
C119 C102 1.394 . S
C119 C118 1.438 . S
C119 C120 1.428 . S
C120 H112 0.949 . S
C120 C119 1.428 . S
C120 C121 1.345 . S
C121 H113 0.950 . S
C121 C120 1.345 . S
C121 C122 1.424 . S
C122 H114 0.951 . S
C122 C121 1.424 . S
C122 C123 1.347 . S
C123 H115 0.951 . S
C123 C118 1.429 . S
C123 C122 1.347 . S
H124 C125 0.951 . S
C125 H124 0.951 . S
C125 C131 1.265 . S
H126 C131 0.950 . S
H127 C135 0.949 . S
H128 C136 0.950 . S
H129 C137 0.951 . S
H130 C138 0.951 . S
C131 C125 1.265 . S
C131 H126 0.950 . S
C131 C132 1.478 . S
C132 C131 1.478 . S
C132 C133 1.397 . S
C132 C149 1.394 . S
C133 C132 1.397 . S
C133 C134 1.438 . S
C133 C138 1.429 . S
C134 C133 1.438 . S
C134 C135 1.428 . S
C134 C147 1.394 . S
C135 H127 0.949 . S
C135 C134 1.428 . S
C135 C136 1.345 . S
C136 H128 0.950 . S
C136 C135 1.345 . S
C136 C137 1.424 . S
C137 H129 0.951 . S
C137 C136 1.424 . S
C137 C138 1.347 . S
C138 H130 0.951 . S
C138 C133 1.429 . S
C138 C137 1.347 . S
H139 C140 0.951 . S
C140 H139 0.951 . S
C140 C146 1.265 . S
H141 C146 0.950 . S
H142 C150 0.949 . S
H143 C151 0.950 . S
H144 C152 0.951 . S
H145 C153 0.951 . S
C146 C140 1.265 . S
C146 H141 0.950 . S
C146 C147 1.478 . S
C147 C134 1.394 . S
C147 C146 1.478 . S
C147 C148 1.397 . S
C148 C147 1.397 . S
C148 C149 1.438 . S
C148 C153 1.429 . S
C149 C132 1.394 . S
C149 C148 1.438 . S
C149 C150 1.428 . S
C150 H142 0.949 . S
C150 C149 1.428 . S
C150 C151 1.345 . S
C151 H143 0.950 . S
C151 C150 1.345 . S
C151 C152 1.424 . S
C152 H144 0.951 . S
C152 C151 1.424 . S
C152 C153 1.347 . S
C153 H145 0.951 . S
C153 C148 1.429 . S
C153 C152 1.347 . S
H154 C155 0.951 . S
C155 H154 0.951 . S
C155 C161 1.265 . S
H156 C161 0.950 . S
H157 C165 0.949 . S
H158 C166 0.950 . S
H159 C167 0.951 . S
H160 C168 0.951 . S
C161 C155 1.265 . S
C161 H156 0.950 . S
C161 C162 1.478 . S
C162 C161 1.478 . S
C162 C163 1.397 . S
C162 C179 1.394 . S
C163 C162 1.397 . S
C163 C164 1.438 . S
C163 C168 1.429 . S
C164 C163 1.438 . S
C164 C165 1.428 . S
C164 C177 1.394 . S
C165 H157 0.949 . S
C165 C164 1.428 . S
C165 C166 1.345 . S
C166 H158 0.950 . S
C166 C165 1.345 . S
C166 C167 1.424 . S
C167 H159 0.951 . S
C167 C166 1.424 . S
C167 C168 1.347 . S
C168 H160 0.951 . S
C168 C163 1.429 . S
C168 C167 1.347 . S
H169 C170 0.951 . S
C170 H169 0.951 . S
C170 C176 1.265 . S
H171 C176 0.950 . S
H172 C180 0.949 . S
H173 C181 0.950 . S
H174 C182 0.951 . S
H175 C183 0.951 . S
C176 C170 1.265 . S
C176 H171 0.950 . S
C176 C177 1.478 . S
C177 C164 1.394 . S
C177 C176 1.478 . S
C177 C178 1.397 . S
C178 C177 1.397 . S
C178 C179 1.438 . S
C178 C183 1.429 . S
C179 C162 1.394 . S
C179 C178 1.438 . S
C179 C180 1.428 . S
C180 H172 0.949 . S
C180 C179 1.428 . S
C180 C181 1.345 . S
C181 H173 0.950 . S
C181 C180 1.345 . S
C181 C182 1.424 . S
C182 H174 0.951 . S
C182 C181 1.424 . S
C182 C183 1.347 . S
C183 H175 0.951 . S
C183 C178 1.429 . S
C183 C182 1.347 . S
H184 C185 0.951 . S
C185 H184 0.951 . S
C185 C191 1.265 . S
H186 C191 0.950 . S
H187 C195 0.949 . S
H188 C196 0.950 . S
H189 C197 0.951 . S
H190 C198 0.951 . S
C191 C185 1.265 . S
C191 H186 0.950 . S
C191 C192 1.478 . S
C192 C191 1.478 . S
C192 C193 1.397 . S
C192 C209 1.394 . S
C193 C192 1.397 . S
C193 C194 1.438 . S
C193 C198 1.429 . S
C194 C193 1.438 . S
C194 C195 1.428 . S
C194 C207 1.394 . S
C195 H187 0.949 . S
C195 C194 1.428 . S
C195 C196 1.345 . S
C196 H188 0.950 . S
C196 C195 1.345 . S
C196 C197 1.424 . S
C197 H189 0.951 . S
C197 C196 1.424 . S
C197 C198 1.347 . S
C198 H190 0.951 . S
C198 C193 1.429 . S
C198 C197 1.347 . S
H199 C200 0.951 . S
C200 H199 0.951 . S
C200 C206 1.265 . S
H201 C206 0.950 . S
H202 C210 0.949 . S
H203 C211 0.950 . S
H204 C212 0.951 . S
H205 C213 0.951 . S
C206 C200 1.265 . S
C206 H201 0.950 . S
C206 C207 1.478 . S
C207 C194 1.394 . S
C207 C206 1.478 . S
C207 C208 1.397 . S
C208 C207 1.397 . S
C208 C209 1.438 . S
C208 C213 1.429 . S
C209 C192 1.394 . S
C209 C208 1.438 . S
C209 C210 1.428 . S
C210 H202 0.949 . S
C210 C209 1.428 . S
C210 C211 1.345 . S
C211 H203 0.950 . S
C211 C210 1.345 . S
C211 C212 1.424 . S
C212 H204 0.951 . S
C212 C211 1.424 . S
C212 C213 1.347 . S
C213 H205 0.951 . S
C213 C208 1.429 . S
C213 C212 1.347 . S
H214 C215 0.951 . S
C215 H214 0.951 . S
C215 C221 1.265 . S
H216 C221 0.950 . S
H217 C225 0.949 . S
H218 C226 0.950 . S
H219 C227 0.951 . S
H220 C228 0.951 . S
C221 C215 1.265 . S
C221 H216 0.950 . S
C221 C222 1.478 . S
C222 C221 1.478 . S
C222 C223 1.397 . S
C222 C239 1.394 . S
C223 C222 1.397 . S
C223 C224 1.438 . S
C223 C228 1.429 . S
C224 C223 1.438 . S
C224 C225 1.428 . S
C224 C237 1.394 . S
C225 H217 0.949 . S
C225 C224 1.428 . S
C225 C226 1.345 . S
C226 H218 0.950 . S
C226 C225 1.345 . S
C226 C227 1.424 . S
C227 H219 0.951 . S
C227 C226 1.424 . S
C227 C228 1.347 . S
C228 H220 0.951 . S
C228 C223 1.429 . S
C228 C227 1.347 . S
H229 C230 0.951 . S
C230 H229 0.951 . S
C230 C236 1.265 . S
H231 C236 0.950 . S
H232 C240 0.949 . S
H233 C241 0.950 . S
H234 C242 0.951 . S
H235 C243 0.951 . S
C236 C230 1.265 . S
C236 H231 0.950 . S
C236 C237 1.478 . S
C237 C224 1.394 . S
C237 C236 1.478 . S
C237 C238 1.397 . S
C238 C237 1.397 . S
C238 C239 1.438 . S
C238 C243 1.429 . S
C239 C222 1.394 . S
C239 C238 1.438 . S
C239 C240 1.428 . S
C240 H232 0.949 . S
C240 C239 1.428 . S
C240 C241 1.345 . S
C241 H233 0.950 . S
C241 C240 1.345 . S
C241 C242 1.424 . S
C242 H234 0.951 . S
C242 C241 1.424 . S
C242 C243 1.347 . S
C243 H235 0.951 . S
C243 C238 1.429 . S
C243 C242 1.347 . S
H244 C245 0.951 . S
C245 H244 0.951 . S
C245 C251 1.265 . S
H246 C251 0.950 . S
H247 C255 0.949 . S
H248 C256 0.950 . S
H249 C257 0.951 . S
H250 C258 0.951 . S
C251 C245 1.265 . S
C251 H246 0.950 . S
C251 C252 1.478 . S
C252 C251 1.478 . S
C252 C253 1.397 . S
C252 C269 1.394 . S
C253 C252 1.397 . S
C253 C254 1.438 . S
C253 C258 1.429 . S
C254 C253 1.438 . S
C254 C255 1.428 . S
C254 C267 1.394 . S
C255 H247 0.949 . S
C255 C254 1.428 . S
C255 C256 1.345 . S
C256 H248 0.950 . S
C256 C255 1.345 . S
C256 C257 1.424 . S
C257 H249 0.951 . S
C257 C256 1.424 . S
C257 C258 1.347 . S
C258 H250 0.951 . S
C258 C253 1.429 . S
C258 C257 1.347 . S
H259 C260 0.951 . S
C260 H259 0.951 . S
C260 C266 1.265 . S
H261 C266 0.950 . S
H262 C270 0.949 . S
H263 C271 0.950 . S
H264 C272 0.951 . S
H265 C273 0.951 . S
C266 C260 1.265 . S
C266 H261 0.950 . S
C266 C267 1.478 . S
C267 C254 1.394 . S
C267 C266 1.478 . S
C267 C268 1.397 . S
C268 C267 1.397 . S
C268 C269 1.438 . S
C268 C273 1.429 . S
C269 C252 1.394 . S
C269 C268 1.438 . S
C269 C270 1.428 . S
C270 H262 0.949 . S
C270 C269 1.428 . S
C270 C271 1.345 . S
C271 H263 0.950 . S
C271 C270 1.345 . S
C271 C272 1.424 . S
C272 H264 0.951 . S
C272 C271 1.424 . S
C272 C273 1.347 . S
C273 H265 0.951 . S
C273 C268 1.429 . S
C273 C272 1.347 . S
H274 C275 0.951 . S
C275 H274 0.951 . S
C275 C281 1.265 . S
H276 C281 0.950 . S
H277 C285 0.949 . S
H278 C286 0.950 . S
H279 C287 0.951 . S
H280 C288 0.951 . S
C281 C275 1.265 . S
C281 H276 0.950 . S
C281 C282 1.478 . S
C282 C281 1.478 . S
C282 C283 1.397 . S
C282 C299 1.394 . S
C283 C282 1.397 . S
C283 C284 1.438 . S
C283 C288 1.429 . S
C284 C283 1.438 . S
C284 C285 1.428 . S
C284 C297 1.394 . S
C285 H277 0.949 . S
C285 C284 1.428 . S
C285 C286 1.345 . S
C286 H278 0.950 . S
C286 C285 1.345 . S
C286 C287 1.424 . S
C287 H279 0.951 . S
C287 C286 1.424 . S
C287 C288 1.347 . S
C288 H280 0.951 . S
C288 C283 1.429 . S
C288 C287 1.347 . S
H289 C290 0.951 . S
C290 H289 0.951 . S
C290 C296 1.265 . S
H291 C296 0.950 . S
H292 C300 0.949 . S
H293 C301 0.950 . S
H294 C302 0.951 . S
H295 C303 0.951 . S
C296 C290 1.265 . S
C296 H291 0.950 . S
C296 C297 1.478 . S
C297 C284 1.394 . S
C297 C296 1.478 . S
C297 C298 1.397 . S
C298 C297 1.397 . S
C298 C299 1.438 . S
C298 C303 1.429 . S
C299 C282 1.394 . S
C299 C298 1.438 . S
C299 C300 1.428 . S
C300 H292 0.949 . S
C300 C299 1.428 . S
C300 C301 1.345 . S
C301 H293 0.950 . S
C301 C300 1.345 . S
C301 C302 1.424 . S
C302 H294 0.951 . S
C302 C301 1.424 . S
C302 C303 1.347 . S
C303 H295 0.951 . S
C303 C298 1.429 . S
C303 C302 1.347 . S
C65 C0 1.375 . S
C80 C53 1.300 . S
C95 C29 1.725 . S
C110 C52 1.776 . S
C125 C30 1.331 . S
C140 C58 1.288 . S
C155 C1 1.564 . S
C170 C59 1.437 . S
C185 C2 1.687 . S
C200 C56 1.775 . S
C230 C54 1.236 . S
C215 C19 1.275 . S
C245 C20 1.469 . S
C260 C55 1.518 . S
C290 C57 1.359 . S
C275 C10 1.276 . S
