# Generated by pormake.
# Topology tsx, (6,3)-cn, num edge types: 1
# Building blocks:
#     Node 0, Type 0, BuildingBlock: MIDCAF_clean_sbu_0, # of connection points: 6
#     Node 1, Type 0, BuildingBlock: MIDCAF_clean_sbu_0, # of connection points: 6
#     Node 2, Type 1, BuildingBlock: OLANEW_clean_sbu_2, # of connection points: 3
#     Node 3, Type 1, BuildingBlock: OLANEW_clean_sbu_2, # of connection points: 3
#     Node 4, Type 1, BuildingBlock: OLANEW_clean_sbu_2, # of connection points: 3
#     Node 5, Type 1, BuildingBlock: OLANEW_clean_sbu_2, # of connection points: 3
#     Edge 6, Type (0, 1), BuildingBlock: UVAHIK_clean_linker_0, # of connection points: 2
#     Edge 7, Type (0, 1), BuildingBlock: UVAHIK_clean_linker_0, # of connection points: 2
#     Edge 8, Type (0, 1), BuildingBlock: UVAHIK_clean_linker_0, # of connection points: 2
#     Edge 9, Type (0, 1), BuildingBlock: UVAHIK_clean_linker_0, # of connection points: 2
#     Edge 10, Type (0, 1), BuildingBlock: UVAHIK_clean_linker_0, # of connection points: 2
#     Edge 11, Type (0, 1), BuildingBlock: UVAHIK_clean_linker_0, # of connection points: 2
#     Edge 12, Type (0, 1), BuildingBlock: UVAHIK_clean_linker_0, # of connection points: 2
#     Edge 13, Type (0, 1), BuildingBlock: UVAHIK_clean_linker_0, # of connection points: 2
#     Edge 14, Type (0, 1), BuildingBlock: UVAHIK_clean_linker_0, # of connection points: 2
#     Edge 15, Type (0, 1), BuildingBlock: UVAHIK_clean_linker_0, # of connection points: 2
#     Edge 16, Type (0, 1), BuildingBlock: UVAHIK_clean_linker_0, # of connection points: 2
#     Edge 17, Type (0, 1), BuildingBlock: UVAHIK_clean_linker_0, # of connection points: 2
# Relax obj value: 0.070
# Max RMSD: 0.154
# Mean RMSD: 0.100
data_MOF--net-tsx--node1-MIDCAF_clean_sbu_0--node2-OLANEW_clean_sbu_2--edge1-UVAHIK_clean_linker_0
_symmetry_space_group_name_H-M    P1
_symmetry_Int_Tables_number       1
_symmetry_cell_setting            triclinic
loop_
_symmetry_equiv_pos_as_xyz
'x, y, z'
_cell_length_a     27.602269
_cell_length_b     28.662819
_cell_length_c     46.674376
_cell_angle_alpha  96.133504
_cell_angle_beta   96.723825
_cell_angle_gamma 89.092564
loop_
_atom_site_label
_atom_site_type_symbol
_atom_site_fract_x
_atom_site_fract_y
_atom_site_fract_z
_atom_type_partial_charge
Zn0 Zn 0.97081 0.00501 0.97464 0.0
Zn1 Zn 0.12773 0.0215 0.05091 0.0
Zn2 Zn 0.04812 0.01706 0.01374 0.0
C3 C 0.14786 0.0692 1.00491 0.0
C4 C 0.11316 0.92726 0.03408 0.0
O5 O 0.02659 0.94197 0.00695 0.0
O6 O 0.96116 0.93696 0.9746 0.0
C7 C 0.94495 0.06728 0.02156 0.0
O8 O 0.10373 0.05672 0.99541 0.0
O9 O 0.16748 0.05794 0.029 0.0
O10 O 0.14264 0.95388 0.05071 0.0
O11 O 0.07563 0.94483 0.01975 0.0
O12 O 0.92838 0.04744 0.997 0.0
O13 O 0.98916 0.05965 0.03234 0.0
O14 O 0.06505 0.04555 0.97365 0.0
O15 O 0.99922 0.02952 0.94232 0.0
C16 C 0.04169 0.04619 0.94811 0.0
O17 O 0.02746 0.05377 0.0548 0.0
O18 O 0.09696 0.05403 0.08377 0.0
C19 C 0.9914 0.91771 0.99212 0.0
C20 C 0.05203 0.06366 0.0799 0.0
Zn21 Zn 0.62451 0.51666 0.54979 0.0
Zn22 Zn 0.47248 0.49887 0.47029 0.0
Zn23 Zn 0.54756 0.51147 0.51084 0.0
C24 C 0.54372 0.54362 0.44603 0.0
C25 C 0.44208 0.55831 0.51705 0.0
O26 O 0.52384 0.54739 0.55138 0.0
O27 O 0.59204 0.55018 0.58158 0.0
C28 C 0.61138 0.42221 0.53334 0.0
O29 O 0.56644 0.54167 0.47163 0.0
O30 O 0.50137 0.52697 0.43949 0.0
O31 O 0.42676 0.53777 0.49244 0.0
O32 O 0.48646 0.55243 0.52818 0.0
O33 O 0.63917 0.44917 0.55088 0.0
O34 O 0.57529 0.43944 0.5176 0.0
O35 O 0.60434 0.55185 0.49404 0.0
O36 O 0.66644 0.55222 0.52867 0.0
C37 C 0.64824 0.56389 0.50439 0.0
O38 O 0.52786 0.43602 0.50238 0.0
O39 O 0.46594 0.43015 0.46754 0.0
C40 C 0.54693 0.55848 0.57678 0.0
C41 C 0.49529 0.41112 0.48562 0.0
O42 O 0.02858 0.9846 0.3838 0.0
Cd43 Cd 0.03111 0.97474 0.43582 0.0
O44 O 0.04703 0.0595 0.39314 0.0
Cd45 Cd 0.03303 0.06171 0.43829 0.0
O46 O 0.97429 0.0807 0.4649 0.0
C47 C 0.93176 0.07005 0.4526 0.0
O48 O 0.92745 0.04623 0.42676 0.0
C49 C 0.03848 0.02347 0.37493 0.0
C50 C 0.09843 0.90921 0.45761 0.0
O51 O 0.05458 0.89739 0.44762 0.0
O52 O 0.11096 0.95187 0.45671 0.0
O53 O 0.0592 0.14188 0.64513 0.0
Cd54 Cd 0.04903 0.14335 0.59268 0.0
O55 O 0.04023 0.06834 0.63346 0.0
Cd56 Cd 0.01835 0.99605 0.6354 0.0
O57 O 0.98082 0.93461 0.61146 0.0
C58 C 0.94068 0.94164 0.59612 0.0
O59 O 0.92304 0.98453 0.59645 0.0
C60 C 0.05196 0.10183 0.65307 0.0
C61 C 0.13582 0.16514 0.57241 0.0
O62 O 0.10444 0.197 0.57856 0.0
O63 O 0.12618 0.12265 0.57587 0.0
O64 O 0.52397 0.47915 0.88011 0.0
Cd65 Cd 0.52671 0.4707 0.93234 0.0
O66 O 0.5362 0.55526 0.88895 0.0
Cd67 Cd 0.52154 0.55754 0.93399 0.0
O68 O 0.46323 0.5771 0.96079 0.0
C69 C 0.42039 0.56749 0.94859 0.0
O70 O 0.41532 0.54423 0.92259 0.0
C71 C 0.53088 0.51858 0.871 0.0
C72 C 0.59594 0.40803 0.95551 0.0
O73 O 0.55243 0.39476 0.94574 0.0
O74 O 0.60726 0.45074 0.95369 0.0
O75 O 0.53993 0.65938 0.14677 0.0
Cd76 Cd 0.53354 0.6705 0.09546 0.0
O77 O 0.52337 0.58599 0.13224 0.0
Cd78 Cd 0.50413 0.51224 0.13151 0.0
O79 O 0.46907 0.44979 0.1072 0.0
C80 C 0.42854 0.45547 0.09192 0.0
O81 O 0.40912 0.49766 0.09237 0.0
C82 C 0.53375 0.61802 0.153 0.0
C83 C 0.62581 0.68776 0.08066 0.0
O84 O 0.59821 0.72126 0.08962 0.0
O85 O 0.60942 0.64576 0.07822 0.0
C86 C 0.22456 0.09438 0.98902 0.0
C87 C 0.17464 0.10224 0.99066 0.0
C88 C 0.25566 0.13193 0.9881 0.0
C89 C 0.26339 0.26209 0.98855 0.0
H90 H 0.36341 0.24792 0.05271 0.0
C91 C 0.3551 0.41987 0.06119 0.0
C92 C 0.40362 0.41546 0.07365 0.0
C93 C 0.331 0.38181 0.04457 0.0
C94 C 0.3366 0.25247 0.03433 0.0
H95 H 0.11687 0.15406 0.989 0.0
H96 H 0.17129 0.22015 0.98805 0.0
H97 H 0.31497 0.18096 0.03127 0.0
H98 H 0.46563 0.36823 0.07735 0.0
H99 H 0.42414 0.30221 0.04783 0.0
H100 H 0.28455 0.33434 0.99238 0.0
C101 C 0.18658 0.18507 0.98711 0.0
C102 C 0.30869 0.21383 0.02192 0.0
C103 C 0.15527 0.14719 0.98752 0.0
C104 C 0.42802 0.37258 0.0684 0.0
C105 C 0.40412 0.33468 0.05151 0.0
C106 C 0.29168 0.30092 1.00092 0.0
C107 C 0.23746 0.17811 0.98951 0.0
C108 C 0.27119 0.2182 0.9992 0.0
C109 C 0.35502 0.33852 0.03976 0.0
C110 C 0.32805 0.29674 0.02436 0.0
H111 H 0.24022 0.05989 0.99136 0.0
H112 H 0.29453 0.12526 0.98907 0.0
H113 H 0.23489 0.26658 0.97102 0.0
H114 H 0.33526 0.45248 0.0648 0.0
H115 H 0.29305 0.38598 0.03629 0.0
C116 C 0.16008 0.857 0.04903 0.0
C117 C 0.12542 0.87675 0.02927 0.0
C118 C 0.17943 0.81248 0.0422 0.0
C119 C 0.20217 0.73501 0.97702 0.0
H120 H 0.2623 0.65653 0.03412 0.0
C121 C 0.33089 0.58468 0.94494 0.0
C122 C 0.37711 0.58804 0.96127 0.0
C123 C 0.29124 0.60985 0.95476 0.0
C124 C 0.24545 0.678 0.01794 0.0
H125 H 0.08192 0.86396 0.98746 0.0
H126 H 0.11363 0.78526 0.97616 0.0
H127 H 0.20495 0.7181 0.04844 0.0
H128 H 0.41707 0.61777 1.00171 0.0
H129 H 0.34765 0.66163 0.01892 0.0
H130 H 0.24321 0.69542 0.94668 0.0
C131 C 0.12689 0.8047 0.99668 0.0
C132 C 0.21274 0.71339 0.02611 0.0
C133 C 0.10801 0.84962 1.00337 0.0
C134 C 0.38202 0.61465 0.98854 0.0
C135 C 0.34219 0.63954 0.99848 0.0
C136 C 0.23429 0.69931 0.96881 0.0
C137 C 0.16434 0.78634 0.01548 0.0
C138 C 0.19187 0.74337 0.00595 0.0
C139 C 0.29682 0.63856 0.98125 0.0
C140 C 0.25734 0.67133 0.98934 0.0
H141 H 0.17422 0.87695 0.06923 0.0
H142 H 0.20849 0.80002 0.05717 0.0
H143 H 0.18773 0.75771 0.96094 0.0
H144 H 0.3257 0.56423 0.92392 0.0
H145 H 0.25654 0.60807 0.94119 0.0
C146 C 0.99635 0.85603 0.02651 0.0
C147 C 0.98041 0.87008 0.99902 0.0
C148 C 0.97422 0.81822 0.03639 0.0
C149 C 0.87426 0.72869 0.01609 0.0
H150 H 0.83748 0.77717 0.09128 0.0
C151 C 0.69316 0.74363 0.07806 0.0
C152 C 0.67532 0.69752 0.0737 0.0
C153 C 0.73975 0.75337 0.07165 0.0
C154 C 0.84751 0.76295 0.07033 0.0
H155 H 0.93309 0.85206 0.95905 0.0
H156 H 0.89331 0.78777 0.9765 0.0
H157 H 0.90707 0.81019 0.07366 0.0
H158 H 0.69256 0.62531 0.0593 0.0
H159 H 0.77438 0.64255 0.04793 0.0
H160 H 0.81173 0.68407 0.01204 0.0
C161 C 0.92322 0.8051 0.99048 0.0
C162 C 0.88806 0.78136 0.06034 0.0
C163 C 0.94581 0.84242 0.98048 0.0
C164 C 0.70528 0.66124 0.06285 0.0
C165 C 0.75205 0.67107 0.0563 0.0
C166 C 0.83334 0.71045 0.02606 0.0
C167 C 0.93505 0.79441 0.0192 0.0
C168 C 0.9007 0.766 0.03252 0.0
C169 C 0.76979 0.71728 0.06071 0.0
C170 C 0.81831 0.72901 0.05272 0.0
H171 H 0.02276 0.87659 0.04143 0.0
H172 H 0.9852 0.8101 0.05835 0.0
H173 H 0.8835 0.71536 0.99481 0.0
H174 H 0.67104 0.77241 0.08633 0.0
H175 H 0.75184 0.78952 0.07469 0.0
C176 C 0.86489 0.0932 0.03618 0.0
C177 C 0.914 0.1037 0.03491 0.0
C178 C 0.82982 0.12882 0.03652 0.0
C179 C 0.80824 0.2581 0.03789 0.0
H180 H 0.70407 0.21776 0.97758 0.0
C181 C 0.68066 0.38819 0.97711 0.0
C182 C 0.63166 0.37515 0.96893 0.0
C183 C 0.7142 0.35683 0.98961 0.0
C184 C 0.73224 0.22965 0.99484 0.0
H185 H 0.96587 0.15973 0.03583 0.0
H186 H 0.90452 0.22228 0.03606 0.0
H187 H 0.76332 0.1611 0.99491 0.0
H188 H 0.57925 0.31939 0.96833 0.0
H189 H 0.63722 0.26523 0.99047 0.0
H190 H 0.77719 0.32715 0.0372 0.0
C191 C 0.89298 0.18665 0.03718 0.0
C192 C 0.76634 0.19698 1.0049 0.0
C193 C 0.92827 0.15087 0.03727 0.0
C194 C 0.61681 0.33041 0.97403 0.0
C195 C 0.65019 0.29924 0.98667 0.0
C196 C 0.77382 0.29096 0.02784 0.0
C197 C 0.84303 0.1756 0.03496 0.0
C198 C 0.80492 0.21065 0.02648 0.0
C199 C 0.69947 0.31177 0.99435 0.0
C200 C 0.73548 0.27713 0.00605 0.0
H201 H 0.85302 0.05702 0.03423 0.0
H202 H 0.79184 0.11922 0.0357 0.0
H203 H 0.83744 0.26982 0.05454 0.0
H204 H 0.69329 0.42245 0.97353 0.0
H205 H 0.75191 0.36755 0.99491 0.0
C206 C 0.72628 0.58757 0.48952 0.0
C207 C 0.67647 0.59664 0.4908 0.0
C208 C 0.7586 0.6244 0.4893 0.0
C209 C 0.77037 0.75441 0.49109 0.0
H210 H 0.86838 0.73637 0.55564 0.0
C211 C 0.86625 0.90856 0.56519 0.0
C212 C 0.91445 0.90249 0.57775 0.0
C213 C 0.84102 0.87141 0.5483 0.0
C214 C 0.84215 0.74198 0.53718 0.0
H215 H 0.62023 0.64999 0.48927 0.0
H216 H 0.67678 0.71482 0.48951 0.0
H217 H 0.81818 0.6711 0.53335 0.0
H218 H 0.97469 0.85323 0.58143 0.0
H219 H 0.93124 0.78878 0.55147 0.0
H220 H 0.79391 0.82602 0.49566 0.0
C221 C 0.69105 0.67934 0.48832 0.0
C222 C 0.81324 0.70431 0.52427 0.0
C223 C 0.65853 0.6422 0.48804 0.0
C224 C 0.93735 0.85885 0.57241 0.0
C225 C 0.91233 0.82186 0.55525 0.0
C226 C 0.79968 0.79225 0.50395 0.0
C227 C 0.74173 0.67105 0.49104 0.0
C228 C 0.77646 0.7101 0.50137 0.0
C229 C 0.86356 0.82739 0.54334 0.0
C230 C 0.83537 0.78666 0.52753 0.0
H231 H 0.74085 0.5526 0.49162 0.0
H232 H 0.7973 0.61673 0.49051 0.0
H233 H 0.74245 0.75998 0.47345 0.0
H234 H 0.84756 0.9418 0.56887 0.0
H235 H 0.80334 0.87688 0.53991 0.0
C236 C 0.61028 0.34478 0.50254 0.0
C237 C 0.62468 0.37189 0.52894 0.0
C238 C 0.63093 0.30051 0.49631 0.0
C239 C 0.71825 0.21157 0.52747 0.0
H240 H 0.75315 0.19548 0.44894 0.0
C241 C 0.89185 0.11706 0.49201 0.0
C242 C 0.88788 0.08999 0.46489 0.0
C243 C 0.85131 0.14129 0.50154 0.0
C244 C 0.74307 0.1989 0.47082 0.0
H245 H 0.66999 0.37259 0.57021 0.0
H246 H 0.70763 0.29699 0.55892 0.0
H247 H 0.69526 0.25605 0.46222 0.0
H248 H 0.83747 0.06473 0.42739 0.0
H249 H 0.76714 0.10749 0.44391 0.0
H250 H 0.76922 0.15605 0.53623 0.0
C251 C 0.67942 0.30884 0.5432 0.0
C252 C 0.70952 0.23357 0.47847 0.0
C253 C 0.65809 0.35263 0.54961 0.0
C254 C 0.84194 0.08554 0.44829 0.0
C255 C 0.80162 0.11008 0.45769 0.0
C256 C 0.75251 0.17728 0.51987 0.0
C257 C 0.66748 0.28289 0.51602 0.0
C258 C 0.69734 0.24115 0.50707 0.0
C259 C 0.8062 0.1392 0.48402 0.0
C260 C 0.76586 0.17123 0.49159 0.0
H261 H 0.58562 0.35885 0.48584 0.0
H262 H 0.61992 0.28118 0.4754 0.0
H263 H 0.70915 0.21564 0.54954 0.0
H264 H 0.92667 0.12102 0.50537 0.0
H265 H 0.85595 0.16372 0.52187 0.0
C266 C 0.48776 0.35045 0.51916 0.0
C267 C 0.48557 0.36244 0.49065 0.0
C268 C 0.46224 0.31142 0.52498 0.0
C269 C 0.39966 0.22834 0.53318 0.0
H270 H 0.27243 0.24071 0.48953 0.0
C271 C 0.21975 0.14445 0.55917 0.0
C272 C 0.18148 0.17722 0.56128 0.0
C273 C 0.26269 0.15632 0.54841 0.0
C274 C 0.30782 0.2365 0.50174 0.0
H275 H 0.46214 0.33947 0.44554 0.0
H276 H 0.41955 0.27018 0.4555 0.0
H277 H 0.34285 0.27574 0.47398 0.0
H278 H 0.15826 0.24802 0.55385 0.0
H279 H 0.23263 0.26839 0.53485 0.0
H280 H 0.36299 0.19127 0.56196 0.0
C281 C 0.43896 0.29184 0.47351 0.0
C282 C 0.34849 0.25602 0.49263 0.0
C283 C 0.46362 0.3313 0.46776 0.0
C284 C 0.18698 0.22196 0.55247 0.0
C285 C 0.22945 0.23354 0.54142 0.0
C286 C 0.3587 0.20853 0.54227 0.0
C287 C 0.43477 0.2836 0.5023 0.0
C288 C 0.39471 0.25363 0.50874 0.0
C289 C 0.26762 0.20084 0.53915 0.0
C290 C 0.31219 0.21407 0.52718 0.0
H291 H 0.50455 0.3739 0.53721 0.0
H292 H 0.46005 0.30614 0.54742 0.0
H293 H 0.43478 0.22553 0.54593 0.0
H294 H 0.2166 0.10973 0.56591 0.0
H295 H 0.29166 0.13054 0.54688 0.0
C296 C 0.36006 0.5834 0.52901 0.0
C297 C 0.4097 0.59395 0.52993 0.0
C298 C 0.32526 0.61924 0.52971 0.0
C299 C 0.30537 0.74913 0.53634 0.0
H300 H 0.20393 0.71572 0.47298 0.0
C301 C 0.18222 0.88673 0.47933 0.0
C302 C 0.13322 0.87471 0.47014 0.0
C303 C 0.21491 0.85382 0.49094 0.0
C304 C 0.23136 0.72562 0.49107 0.0
H305 H 0.46252 0.65004 0.53511 0.0
H306 H 0.40165 0.71302 0.53586 0.0
H307 H 0.26177 0.65669 0.4887 0.0
H308 H 0.07992 0.81901 0.46673 0.0
H309 H 0.13649 0.76206 0.4872 0.0
H310 H 0.27506 0.81868 0.53806 0.0
C311 C 0.38945 0.67712 0.53497 0.0
C312 C 0.26463 0.69158 0.50021 0.0
C313 C 0.42445 0.64106 0.53474 0.0
C314 C 0.1175 0.82934 0.47328 0.0
C315 C 0.15006 0.79658 0.48496 0.0
C316 C 0.27183 0.78338 0.52717 0.0
C317 C 0.33931 0.6664 0.53068 0.0
C318 C 0.30216 0.70276 0.52293 0.0
C319 C 0.19933 0.80816 0.49367 0.0
C320 C 0.23448 0.77201 0.50432 0.0
H321 H 0.34783 0.54728 0.52525 0.0
H322 H 0.28705 0.60977 0.5273 0.0
H323 H 0.33374 0.75895 0.55391 0.0
H324 H 0.19552 0.92142 0.47728 0.0
H325 H 0.25266 0.86385 0.4971 0.0
C326 C 0.05281 0.10778 0.12862 0.0
C327 C 0.02786 0.07806 0.10598 0.0
C328 C 0.04097 0.10845 0.15694 0.0
C329 C 1.00407 0.02393 0.20147 0.0
H330 H 0.00713 0.12872 0.26141 0.0
C331 C 0.00875 0.99617 0.32303 0.0
C332 C 0.03543 0.02842 0.34346 0.0
C333 C 1.001 0.00397 0.29373 0.0
C334 C 0.00683 0.09897 0.24502 0.0
H335 H 0.96828 0.02885 0.0946 0.0
H336 H 0.94791 0.02943 0.14438 0.0
H337 H 1.00032 0.1434 0.21054 0.0
H338 H 0.07652 0.09321 0.34894 0.0
H339 H 0.06515 0.10568 0.29786 0.0
H340 H 0.01348 0.97945 0.23564 0.0
C341 C 0.97648 0.05236 0.14014 0.0
C342 C 1.00233 0.10749 0.21585 0.0
C343 C 0.9877 0.05247 0.11162 0.0
C344 C 0.05556 0.0678 0.33378 0.0
C345 C 0.04846 0.07524 0.30446 0.0
C346 C 0.0093 0.01541 0.23062 0.0
C347 C 1.00456 0.0787 0.16322 0.0
C348 C 1.00157 0.07007 0.19378 0.0
C349 C 0.02035 0.0439 0.28405 0.0
C350 C 0.0116 0.05283 0.25287 0.0
H351 H 0.08416 0.12755 0.12482 0.0
H352 H 0.06334 0.12901 0.17424 0.0
H353 H 1.00454 0.99439 0.18496 0.0
H354 H 0.99227 0.96575 0.32983 0.0
H355 H 0.97871 0.97924 0.27885 0.0
C356 C 0.04326 0.09998 0.91017 0.0
C357 C 0.06462 0.06264 0.92426 0.0
C358 C 0.05457 0.10733 0.8826 0.0
C359 C 0.07661 0.03811 0.81753 0.0
H360 H 0.10424 0.15544 0.78859 0.0
C361 C 0.0729 0.05291 0.69433 0.0
C362 C 0.05671 0.09554 0.68428 0.0
C363 C 0.0811 0.04884 0.72417 0.0
C364 C 0.09579 0.12247 0.79619 0.0
H365 H 0.11571 0.00479 0.92156 0.0
H366 H 0.1347 0.01685 0.87275 0.0
H367 H 0.10923 0.15117 0.84078 0.0
H368 H 0.03498 0.16686 0.69735 0.0
H369 H 0.04644 0.15923 0.749 0.0
H370 H 0.05982 0.00992 0.7733 0.0
C371 C 0.11005 0.04096 0.8833 0.0
C372 C 0.09931 0.12001 0.82613 0.0
C373 C 0.0996 0.03436 0.91122 0.0
C374 C 0.04779 0.13362 0.70451 0.0
C375 C 0.05499 0.12934 0.73422 0.0
C376 C 0.07208 0.04076 0.78759 0.0
C377 C 0.08637 0.07657 0.86841 0.0
C378 C 0.08921 0.07796 0.83704 0.0
C379 C 0.07246 0.08712 0.74457 0.0
C380 C 0.08082 0.08321 0.77645 0.0
H381 H 0.01552 0.1216 0.9197 0.0
H382 H 0.03555 0.13477 0.87148 0.0
H383 H 0.06787 0.00543 0.82544 0.0
H384 H 0.0809 0.02324 0.67921 0.0
H385 H 0.09521 0.01595 0.73116 0.0
C386 C 0.54382 0.60343 0.62493 0.0
C387 C 0.521 0.57237 0.60222 0.0
C388 C 0.53122 0.60367 0.65306 0.0
C389 C 0.49826 0.51729 0.69742 0.0
H390 H 0.49448 0.62189 0.75701 0.0
C391 C 0.50355 0.48944 0.81905 0.0
C392 C 0.52801 0.52317 0.8395 0.0
C393 C 0.49561 0.49682 0.78968 0.0
C394 C 0.49612 0.59222 0.74072 0.0
H395 H 0.46419 0.52031 0.59045 0.0
H396 H 0.44253 0.52017 0.6399 0.0
H397 H 0.48748 0.63638 0.7061 0.0
H398 H 0.56507 0.59019 0.84499 0.0
H399 H 0.55348 0.60202 0.79383 0.0
H400 H 0.50987 0.47324 0.73175 0.0
C401 C 0.47 0.54446 0.63586 0.0
C402 C 0.49149 0.6006 0.71153 0.0
C403 C 0.48193 0.54497 0.60752 0.0
C404 C 0.54584 0.56362 0.8298 0.0
C405 C 0.53858 0.57067 0.80043 0.0
C406 C 0.50364 0.50894 0.7266 0.0
C407 C 0.49622 0.57217 0.65908 0.0
C408 C 0.4932 0.56328 0.68959 0.0
C409 C 0.51256 0.53782 0.77997 0.0
C410 C 0.50352 0.54636 0.74874 0.0
H411 H 0.57433 0.62458 0.62139 0.0
H412 H 0.55214 0.62533 0.67049 0.0
H413 H 0.50067 0.48788 0.68101 0.0
H414 H 0.48886 0.45814 0.82587 0.0
H415 H 0.47499 0.47088 0.77476 0.0
C416 C 0.54844 0.60149 0.41082 0.0
C417 C 0.56724 0.5612 0.42276 0.0
C418 C 0.55769 0.61003 0.38305 0.0
C419 C 0.56965 0.54218 0.31501 0.0
H420 H 0.59513 0.66133 0.28765 0.0
C421 C 0.55654 0.56532 0.19219 0.0
C422 C 0.5391 0.60865 0.18375 0.0
C423 C 0.5666 0.55897 0.22167 0.0
C424 C 0.58732 0.62787 0.29486 0.0
H425 H 0.61205 0.49933 0.41607 0.0
H426 H 0.6279 0.51387 0.36716 0.0
H427 H 0.60563 0.65391 0.3396 0.0
H428 H 0.5168 0.67869 0.19938 0.0
H429 H 0.53189 0.66711 0.25044 0.0
H430 H 0.54859 0.51661 0.27065 0.0
C431 C 0.60663 0.53918 0.3794 0.0
C432 C 0.5939 0.62361 0.32463 0.0
C433 C 0.59811 0.53117 0.40744 0.0
C434 C 0.53052 0.64495 0.20525 0.0
C435 C 0.53979 0.63844 0.23459 0.0
C436 C 0.56231 0.5466 0.28526 0.0
C437 C 0.58488 0.5777 0.36654 0.0
C438 C 0.58451 0.5809 0.33501 0.0
C439 C 0.55884 0.59568 0.24329 0.0
C440 C 0.57019 0.58977 0.27478 0.0
H441 H 0.52365 0.62447 0.42209 0.0
H442 H 0.54018 0.63979 0.37359 0.0
H443 H 0.56138 0.509 0.32246 0.0
H444 H 0.56436 0.537 0.17609 0.0
H445 H 0.5817 0.52569 0.22744 0.0
loop_
_geom_bond_atom_site_label_1
_geom_bond_atom_site_label_2
_geom_bond_distance
_geom_bond_site_symmetry_2
_ccdc_geom_bond_type
Zn0 O6 1.920 1_545 S
Zn0 O12 1.898 . S
Zn0 O15 1.905 1_545 S
Zn1 O9 1.905 . S
Zn1 O10 1.898 1_545 S
Zn1 O18 1.920 1_545 S
Zn2 O5 2.080 1_445 S
Zn2 O8 2.114 . S
Zn2 O11 2.120 1_545 S
Zn2 O13 2.120 1_455 S
Zn2 O14 2.114 1_554 S
Zn2 O17 2.080 . S
C3 O8 1.166 . S
C3 O9 1.182 . S
C4 O10 1.167 . S
C4 O11 1.299 . S
O5 Zn2 2.080 1_665 S
O5 C19 1.305 . S
O6 Zn0 1.920 1_565 S
O6 C19 1.234 1_556 S
C7 O12 1.167 . S
C7 O13 1.299 1_556 S
O8 Zn2 2.114 . S
O8 C3 1.166 . S
O9 Zn1 1.905 . S
O9 C3 1.182 . S
O10 Zn1 1.898 1_565 S
O10 C4 1.167 . S
O11 Zn2 2.120 1_565 S
O11 C4 1.299 . S
O12 Zn0 1.898 . S
O12 C7 1.167 . S
O13 Zn2 2.120 1_655 S
O13 C7 1.299 1_554 S
O14 Zn2 2.114 1_556 S
O14 C16 1.166 1_545 S
O15 Zn0 1.905 1_565 S
O15 C16 1.182 1_655 S
C16 O14 1.166 1_565 S
C16 O15 1.182 1_455 S
O17 Zn2 2.080 . S
O17 C20 1.305 1_545 S
O18 Zn1 1.920 1_565 S
O18 C20 1.234 . S
C19 O5 1.305 . S
C19 O6 1.234 1_554 S
C20 O17 1.305 1_565 S
C20 O18 1.234 . S
Zn21 O27 1.920 . S
Zn21 O33 1.898 . S
Zn21 O36 1.905 . S
Zn22 O30 1.905 . S
Zn22 O31 1.898 . S
Zn22 O39 1.920 . S
Zn23 O26 2.080 . S
Zn23 O29 2.114 . S
Zn23 O32 2.120 . S
Zn23 O34 2.120 . S
Zn23 O35 2.114 . S
Zn23 O38 2.080 . S
C24 O29 1.166 . S
C24 O30 1.182 . S
C25 O31 1.167 . S
C25 O32 1.299 . S
O26 Zn23 2.080 . S
O26 C40 1.305 . S
O27 Zn21 1.920 . S
O27 C40 1.234 . S
C28 O33 1.167 . S
C28 O34 1.299 . S
O29 Zn23 2.114 . S
O29 C24 1.166 . S
O30 Zn22 1.905 . S
O30 C24 1.182 . S
O31 Zn22 1.898 . S
O31 C25 1.167 . S
O32 Zn23 2.120 . S
O32 C25 1.299 . S
O33 Zn21 1.898 . S
O33 C28 1.167 . S
O34 Zn23 2.120 . S
O34 C28 1.299 . S
O35 Zn23 2.114 . S
O35 C37 1.166 . S
O36 Zn21 1.905 . S
O36 C37 1.182 . S
C37 O35 1.166 . S
C37 O36 1.182 . S
O38 Zn23 2.080 . S
O38 C41 1.305 . S
O39 Zn22 1.920 . S
O39 C41 1.234 . S
C40 O26 1.305 . S
C40 O27 1.234 . S
C41 O38 1.305 . S
C41 O39 1.234 . S
O42 Cd43 2.300 . S
O42 C49 1.275 . S
Cd43 O42 2.300 . S
Cd43 O51 2.381 1_545 S
Cd43 O52 2.378 1_545 S
O44 Cd45 2.385 . S
O44 C49 1.255 . S
Cd45 O44 2.385 . S
Cd45 O46 2.317 . S
O46 Cd45 2.317 . S
O46 C47 1.237 . S
C47 O46 1.237 . S
C47 O48 1.219 . S
O48 C47 1.219 . S
C49 O42 1.275 . S
C49 O44 1.255 . S
C50 O51 1.258 . S
C50 O52 1.256 . S
O51 Cd43 2.381 1_565 S
O51 C50 1.258 . S
O52 Cd43 2.378 1_565 S
O52 C50 1.256 . S
O53 Cd54 2.300 . S
O53 C60 1.275 . S
Cd54 O53 2.300 . S
Cd54 O62 2.381 . S
Cd54 O63 2.378 . S
O55 Cd56 2.385 . S
O55 C60 1.255 1_565 S
Cd56 O55 2.385 . S
Cd56 O57 2.317 1_455 S
O57 Cd56 2.317 1_655 S
O57 C58 1.232 . S
C58 O57 1.232 . S
C58 O59 1.218 . S
O59 C58 1.218 . S
C60 O53 1.275 . S
C60 O55 1.255 1_545 S
C61 O62 1.258 . S
C61 O63 1.256 . S
O62 Cd54 2.381 . S
O62 C61 1.258 . S
O63 Cd54 2.378 . S
O63 C61 1.256 . S
O64 Cd65 2.300 . S
O64 C71 1.275 . S
Cd65 O64 2.300 . S
Cd65 O73 2.381 . S
Cd65 O74 2.378 . S
O66 Cd67 2.385 . S
O66 C71 1.255 . S
Cd67 O66 2.385 . S
Cd67 O68 2.317 . S
O68 Cd67 2.317 . S
O68 C69 1.232 . S
C69 O68 1.232 . S
C69 O70 1.218 . S
O70 C69 1.218 . S
C71 O64 1.275 . S
C71 O66 1.255 . S
C72 O73 1.258 . S
C72 O74 1.256 . S
O73 Cd65 2.381 . S
O73 C72 1.258 . S
O74 Cd65 2.378 . S
O74 C72 1.256 . S
O75 Cd76 2.300 . S
O75 C82 1.275 . S
Cd76 O75 2.300 . S
Cd76 O84 2.381 . S
Cd76 O85 2.378 . S
O77 Cd78 2.385 . S
O77 C82 1.255 . S
Cd78 O77 2.385 . S
Cd78 O79 2.317 . S
O79 Cd78 2.317 . S
O79 C80 1.232 . S
C80 O79 1.232 . S
C80 O81 1.218 . S
O81 C80 1.218 . S
C82 O75 1.275 . S
C82 O77 1.255 . S
C83 O84 1.258 . S
C83 O85 1.256 . S
O84 Cd76 2.381 . S
O84 C83 1.258 . S
O85 Cd76 2.378 . S
O85 C83 1.256 . S
C86 C87 1.349 . S
C86 C88 1.327 . S
C86 H111 0.950 . S
C87 C86 1.349 . S
C87 C103 1.349 . S
C88 C86 1.327 . S
C88 C107 1.429 . S
C88 H112 0.950 . S
C89 C106 1.574 . S
C89 C108 1.368 . S
C89 H113 0.949 . S
H90 C94 0.949 . S
C91 C92 1.349 . S
C91 C93 1.327 . S
C91 H114 0.950 . S
C92 C91 1.349 . S
C92 C104 1.349 . S
C93 C91 1.327 . S
C93 C109 1.429 . S
C93 H115 0.950 . S
C94 H90 0.949 . S
C94 C102 1.574 . S
C94 C110 1.368 . S
H95 C103 0.950 . S
H96 C101 0.950 . S
H97 C102 0.949 . S
H98 C104 0.950 . S
H99 C105 0.950 . S
H100 C106 0.949 . S
C101 H96 0.950 . S
C101 C103 1.327 . S
C101 C107 1.429 . S
C102 C94 1.574 . S
C102 H97 0.949 . S
C102 C108 1.368 . S
C103 C87 1.349 . S
C103 H95 0.950 . S
C103 C101 1.327 . S
C104 C92 1.349 . S
C104 H98 0.950 . S
C104 C105 1.327 . S
C105 H99 0.950 . S
C105 C104 1.327 . S
C105 C109 1.429 . S
C106 C89 1.574 . S
C106 H100 0.949 . S
C106 C110 1.368 . S
C107 C88 1.429 . S
C107 C101 1.429 . S
C107 C108 1.523 . S
C108 C89 1.368 . S
C108 C102 1.368 . S
C108 C107 1.523 . S
C109 C93 1.429 . S
C109 C105 1.429 . S
C109 C110 1.523 . S
C110 C94 1.368 . S
C110 C106 1.368 . S
C110 C109 1.523 . S
H111 C86 0.950 . S
H112 C88 0.950 . S
H113 C89 0.949 . S
H114 C91 0.950 . S
H115 C93 0.950 . S
C116 C117 1.349 1_554 S
C116 C118 1.333 . S
C116 H141 0.950 . S
C117 C116 1.349 1_556 S
C117 C133 1.349 . S
C118 C116 1.333 . S
C118 C137 1.401 1_554 S
C118 H142 0.973 . S
C119 C136 1.574 . S
C119 C138 1.368 . S
C119 H143 0.949 . S
H120 C124 0.949 . S
C121 C122 1.349 . S
C121 C123 1.327 . S
C121 H144 0.950 . S
C122 C121 1.349 . S
C122 C134 1.349 . S
C123 C121 1.327 . S
C123 C139 1.429 . S
C123 H145 0.950 . S
C124 H120 0.949 . S
C124 C132 1.574 . S
C124 C140 1.368 . S
H125 C133 0.950 . S
H126 C131 0.950 . S
H127 C132 0.949 1_554 S
H128 C134 0.950 . S
H129 C135 0.950 . S
H130 C136 0.949 . S
C131 H126 0.950 . S
C131 C133 1.327 . S
C131 C137 1.429 . S
C132 C124 1.574 . S
C132 H127 0.949 1_556 S
C132 C138 1.368 . S
C133 C117 1.349 . S
C133 H125 0.950 . S
C133 C131 1.327 . S
C134 C122 1.349 . S
C134 H128 0.950 . S
C134 C135 1.327 . S
C135 H129 0.950 . S
C135 C134 1.327 . S
C135 C139 1.429 . S
C136 C119 1.574 . S
C136 H130 0.949 . S
C136 C140 1.368 . S
C137 C118 1.401 1_556 S
C137 C131 1.429 . S
C137 C138 1.523 . S
C138 C119 1.368 . S
C138 C132 1.368 . S
C138 C137 1.523 . S
C139 C123 1.429 . S
C139 C135 1.429 . S
C139 C140 1.523 . S
C140 C124 1.368 . S
C140 C136 1.368 . S
C140 C139 1.523 . S
H141 C116 0.950 . S
H142 C118 0.973 . S
H143 C119 0.949 . S
H144 C121 0.950 . S
H145 C123 0.950 . S
C146 C147 1.349 . S
C146 C148 1.327 . S
C146 H171 0.950 . S
C147 C146 1.349 . S
C147 C163 1.349 . S
C148 C146 1.327 . S
C148 C167 1.429 . S
C148 H172 0.950 . S
C149 C166 1.574 . S
C149 C168 1.368 . S
C149 H173 0.949 . S
H150 C154 0.949 . S
C151 C152 1.349 . S
C151 C153 1.327 . S
C151 H174 0.950 . S
C152 C151 1.349 . S
C152 C164 1.349 . S
C153 C151 1.327 . S
C153 C169 1.429 . S
C153 H175 0.950 . S
C154 H150 0.949 . S
C154 C162 1.574 . S
C154 C170 1.368 . S
H155 C163 0.950 1_556 S
H156 C161 0.950 . S
H157 C162 0.949 . S
H158 C164 0.950 . S
H159 C165 0.950 . S
H160 C166 0.949 . S
C161 H156 0.950 . S
C161 C163 1.327 . S
C161 C167 1.429 . S
C162 C154 1.574 . S
C162 H157 0.949 . S
C162 C168 1.368 . S
C163 C147 1.349 . S
C163 H155 0.950 1_554 S
C163 C161 1.327 . S
C164 C152 1.349 . S
C164 H158 0.950 . S
C164 C165 1.327 . S
C165 H159 0.950 . S
C165 C164 1.327 . S
C165 C169 1.429 . S
C166 C149 1.574 . S
C166 H160 0.949 . S
C166 C170 1.368 . S
C167 C148 1.429 . S
C167 C161 1.429 . S
C167 C168 1.523 . S
C168 C149 1.368 . S
C168 C162 1.368 . S
C168 C167 1.523 . S
C169 C153 1.429 . S
C169 C165 1.429 . S
C169 C170 1.523 . S
C170 C154 1.368 . S
C170 C166 1.368 . S
C170 C169 1.523 . S
H171 C146 0.950 . S
H172 C148 0.950 . S
H173 C149 0.949 . S
H174 C151 0.950 . S
H175 C153 0.950 . S
C176 C177 1.359 . S
C176 C178 1.327 . S
C176 H201 0.950 . S
C177 C176 1.359 . S
C177 C193 1.342 1_556 S
C178 C176 1.327 . S
C178 C197 1.429 . S
C178 H202 0.950 . S
C179 C196 1.582 . S
C179 C198 1.384 . S
C179 H203 0.928 1_556 S
H180 C184 0.949 . S
C181 C182 1.349 . S
C181 C183 1.327 . S
C181 H204 0.950 . S
C182 C181 1.349 . S
C182 C194 1.349 . S
C183 C181 1.327 . S
C183 C199 1.429 . S
C183 H205 0.950 . S
C184 H180 0.949 . S
C184 C192 1.574 . S
C184 C200 1.368 . S
H185 C193 0.950 . S
H186 C191 0.950 . S
H187 C192 0.949 . S
H188 C194 0.950 . S
H189 C195 0.950 . S
H190 C196 0.949 1_554 S
C191 H186 0.950 . S
C191 C193 1.327 . S
C191 C197 1.429 1_554 S
C192 C184 1.574 . S
C192 H187 0.949 . S
C192 C198 1.368 . S
C193 C177 1.342 1_554 S
C193 H185 0.950 . S
C193 C191 1.327 . S
C194 C182 1.349 . S
C194 H188 0.950 . S
C194 C195 1.327 . S
C195 H189 0.950 . S
C195 C194 1.327 . S
C195 C199 1.429 . S
C196 C179 1.582 . S
C196 H190 0.949 1_556 S
C196 C200 1.368 . S
C197 C178 1.429 . S
C197 C191 1.429 1_556 S
C197 C198 1.523 . S
C198 C179 1.384 . S
C198 C192 1.368 . S
C198 C197 1.523 . S
C199 C183 1.429 . S
C199 C195 1.429 . S
C199 C200 1.523 . S
C200 C184 1.368 . S
C200 C196 1.368 . S
C200 C199 1.523 . S
H201 C176 0.950 . S
H202 C178 0.950 . S
H203 C179 0.928 1_554 S
H204 C181 0.950 . S
H205 C183 0.950 . S
C206 C207 1.349 . S
C206 C208 1.327 . S
C206 H231 0.950 . S
C207 C206 1.349 . S
C207 C223 1.349 . S
C208 C206 1.327 . S
C208 C227 1.429 . S
C208 H232 0.950 . S
C209 C226 1.574 . S
C209 C228 1.368 . S
C209 H233 0.949 . S
H210 C214 0.949 . S
C211 C212 1.349 . S
C211 C213 1.327 . S
C211 H234 0.950 . S
C212 C211 1.349 . S
C212 C224 1.349 . S
C213 C211 1.327 . S
C213 C229 1.429 . S
C213 H235 0.950 . S
C214 H210 0.949 . S
C214 C222 1.574 . S
C214 C230 1.368 . S
H215 C223 0.950 . S
H216 C221 0.950 . S
H217 C222 0.949 . S
H218 C224 0.950 . S
H219 C225 0.950 . S
H220 C226 0.949 . S
C221 H216 0.950 . S
C221 C223 1.327 . S
C221 C227 1.429 . S
C222 C214 1.574 . S
C222 H217 0.949 . S
C222 C228 1.368 . S
C223 C207 1.349 . S
C223 H215 0.950 . S
C223 C221 1.327 . S
C224 C212 1.349 . S
C224 H218 0.950 . S
C224 C225 1.327 . S
C225 H219 0.950 . S
C225 C224 1.327 . S
C225 C229 1.429 . S
C226 C209 1.574 . S
C226 H220 0.949 . S
C226 C230 1.368 . S
C227 C208 1.429 . S
C227 C221 1.429 . S
C227 C228 1.523 . S
C228 C209 1.368 . S
C228 C222 1.368 . S
C228 C227 1.523 . S
C229 C213 1.429 . S
C229 C225 1.429 . S
C229 C230 1.523 . S
C230 C214 1.368 . S
C230 C226 1.368 . S
C230 C229 1.523 . S
H231 C206 0.950 . S
H232 C208 0.950 . S
H233 C209 0.949 . S
H234 C211 0.950 . S
H235 C213 0.950 . S
C236 C237 1.349 . S
C236 C238 1.327 . S
C236 H261 0.950 . S
C237 C236 1.349 . S
C237 C253 1.349 . S
C238 C236 1.327 . S
C238 C257 1.429 . S
C238 H262 0.950 . S
C239 C256 1.574 . S
C239 C258 1.368 . S
C239 H263 0.949 . S
H240 C244 0.949 . S
C241 C242 1.349 . S
C241 C243 1.327 . S
C241 H264 0.950 . S
C242 C241 1.349 . S
C242 C254 1.349 . S
C243 C241 1.327 . S
C243 C259 1.429 . S
C243 H265 0.950 . S
C244 H240 0.949 . S
C244 C252 1.574 . S
C244 C260 1.368 . S
H245 C253 0.950 . S
H246 C251 0.950 . S
H247 C252 0.949 . S
H248 C254 0.950 . S
H249 C255 0.950 . S
H250 C256 0.949 . S
C251 H246 0.950 . S
C251 C253 1.327 . S
C251 C257 1.429 . S
C252 C244 1.574 . S
C252 H247 0.949 . S
C252 C258 1.368 . S
C253 C237 1.349 . S
C253 H245 0.950 . S
C253 C251 1.327 . S
C254 C242 1.349 . S
C254 H248 0.950 . S
C254 C255 1.327 . S
C255 H249 0.950 . S
C255 C254 1.327 . S
C255 C259 1.429 . S
C256 C239 1.574 . S
C256 H250 0.949 . S
C256 C260 1.368 . S
C257 C238 1.429 . S
C257 C251 1.429 . S
C257 C258 1.523 . S
C258 C239 1.368 . S
C258 C252 1.368 . S
C258 C257 1.523 . S
C259 C243 1.429 . S
C259 C255 1.429 . S
C259 C260 1.523 . S
C260 C244 1.368 . S
C260 C256 1.368 . S
C260 C259 1.523 . S
H261 C236 0.950 . S
H262 C238 0.950 . S
H263 C239 0.949 . S
H264 C241 0.950 . S
H265 C243 0.950 . S
C266 C267 1.349 . S
C266 C268 1.327 . S
C266 H291 0.950 . S
C267 C266 1.349 . S
C267 C283 1.349 . S
C268 C266 1.327 . S
C268 C287 1.429 . S
C268 H292 0.950 . S
C269 C286 1.574 . S
C269 C288 1.368 . S
C269 H293 0.949 . S
H270 C274 0.949 . S
C271 C272 1.349 . S
C271 C273 1.327 . S
C271 H294 0.950 . S
C272 C271 1.349 . S
C272 C284 1.349 . S
C273 C271 1.327 . S
C273 C289 1.429 . S
C273 H295 0.950 . S
C274 H270 0.949 . S
C274 C282 1.574 . S
C274 C290 1.368 . S
H275 C283 0.950 . S
H276 C281 0.950 . S
H277 C282 0.949 . S
H278 C284 0.950 . S
H279 C285 0.950 . S
H280 C286 0.949 . S
C281 H276 0.950 . S
C281 C283 1.327 . S
C281 C287 1.429 . S
C282 C274 1.574 . S
C282 H277 0.949 . S
C282 C288 1.368 . S
C283 C267 1.349 . S
C283 H275 0.950 . S
C283 C281 1.327 . S
C284 C272 1.349 . S
C284 H278 0.950 . S
C284 C285 1.327 . S
C285 H279 0.950 . S
C285 C284 1.327 . S
C285 C289 1.429 . S
C286 C269 1.574 . S
C286 H280 0.949 . S
C286 C290 1.368 . S
C287 C268 1.429 . S
C287 C281 1.429 . S
C287 C288 1.523 . S
C288 C269 1.368 . S
C288 C282 1.368 . S
C288 C287 1.523 . S
C289 C273 1.429 . S
C289 C285 1.429 . S
C289 C290 1.523 . S
C290 C274 1.368 . S
C290 C286 1.368 . S
C290 C289 1.523 . S
H291 C266 0.950 . S
H292 C268 0.950 . S
H293 C269 0.949 . S
H294 C271 0.950 . S
H295 C273 0.950 . S
C296 C297 1.349 . S
C296 C298 1.327 . S
C296 H321 0.950 . S
C297 C296 1.349 . S
C297 C313 1.349 . S
C298 C296 1.327 . S
C298 C317 1.429 . S
C298 H322 0.950 . S
C299 C316 1.574 . S
C299 C318 1.368 . S
C299 H323 0.949 . S
H300 C304 0.949 . S
C301 C302 1.349 . S
C301 C303 1.327 . S
C301 H324 0.950 . S
C302 C301 1.349 . S
C302 C314 1.349 . S
C303 C301 1.327 . S
C303 C319 1.429 . S
C303 H325 0.950 . S
C304 H300 0.949 . S
C304 C312 1.574 . S
C304 C320 1.368 . S
H305 C313 0.950 . S
H306 C311 0.950 . S
H307 C312 0.949 . S
H308 C314 0.950 . S
H309 C315 0.950 . S
H310 C316 0.949 . S
C311 H306 0.950 . S
C311 C313 1.327 . S
C311 C317 1.429 . S
C312 C304 1.574 . S
C312 H307 0.949 . S
C312 C318 1.368 . S
C313 C297 1.349 . S
C313 H305 0.950 . S
C313 C311 1.327 . S
C314 C302 1.349 . S
C314 H308 0.950 . S
C314 C315 1.327 . S
C315 H309 0.950 . S
C315 C314 1.327 . S
C315 C319 1.429 . S
C316 C299 1.574 . S
C316 H310 0.949 . S
C316 C320 1.368 . S
C317 C298 1.429 . S
C317 C311 1.429 . S
C317 C318 1.523 . S
C318 C299 1.368 . S
C318 C312 1.368 . S
C318 C317 1.523 . S
C319 C303 1.429 . S
C319 C315 1.429 . S
C319 C320 1.523 . S
C320 C304 1.368 . S
C320 C316 1.368 . S
C320 C319 1.523 . S
H321 C296 0.950 . S
H322 C298 0.950 . S
H323 C299 0.949 . S
H324 C301 0.950 . S
H325 C303 0.950 . S
C326 C327 1.349 1_545 S
C326 C328 1.327 . S
C326 H351 0.950 1_455 S
C327 C326 1.349 1_565 S
C327 C343 1.349 . S
C328 C326 1.327 . S
C328 C347 1.429 . S
C328 H352 0.950 1_455 S
C329 C346 1.574 . S
C329 C348 1.368 1_565 S
C329 H353 0.949 . S
H330 C334 0.949 . S
C331 C332 1.349 . S
C331 C333 1.327 . S
C331 H354 0.950 1_545 S
C332 C331 1.349 . S
C332 C344 1.349 . S
C333 C331 1.327 . S
C333 C349 1.429 . S
C333 H355 0.950 1_545 S
C334 H330 0.949 . S
C334 C342 1.574 . S
C334 C350 1.368 . S
H335 C343 0.950 . S
H336 C341 0.950 . S
H337 C342 0.949 1_655 S
H338 C344 0.950 . S
H339 C345 0.950 . S
H340 C346 0.949 . S
C341 H336 0.950 . S
C341 C343 1.327 . S
C341 C347 1.429 1_565 S
C342 C334 1.574 . S
C342 H337 0.949 1_455 S
C342 C348 1.368 . S
C343 C327 1.349 . S
C343 H335 0.950 . S
C343 C341 1.327 . S
C344 C332 1.349 . S
C344 H338 0.950 . S
C344 C345 1.327 . S
C345 H339 0.950 . S
C345 C344 1.327 . S
C345 C349 1.429 . S
C346 C329 1.574 . S
C346 H340 0.949 . S
C346 C350 1.368 1_565 S
C347 C328 1.429 . S
C347 C341 1.429 1_545 S
C347 C348 1.523 . S
C348 C329 1.368 1_545 S
C348 C342 1.368 . S
C348 C347 1.523 . S
C349 C333 1.429 . S
C349 C345 1.429 . S
C349 C350 1.523 . S
C350 C334 1.368 . S
C350 C346 1.368 1_545 S
C350 C349 1.523 . S
H351 C326 0.950 1_655 S
H352 C328 0.950 1_655 S
H353 C329 0.949 . S
H354 C331 0.950 1_565 S
H355 C333 0.950 1_565 S
C356 C357 1.349 1_545 S
C356 C358 1.327 . S
C356 H381 0.950 . S
C357 C356 1.349 1_565 S
C357 C373 1.350 1_455 S
C358 C356 1.327 . S
C358 C377 1.429 1_545 S
C358 H382 0.950 . S
C359 C376 1.574 . S
C359 C378 1.368 1_655 S
C359 H383 0.949 . S
H360 C364 0.949 . S
C361 C362 1.354 1_565 S
C361 C363 1.327 . S
C361 H384 0.950 . S
C362 C361 1.354 1_545 S
C362 C374 1.344 1_655 S
C363 C361 1.327 . S
C363 C379 1.429 1_665 S
C363 H385 0.950 . S
C364 H360 0.949 . S
C364 C372 1.574 . S
C364 C380 1.368 . S
H365 C373 0.949 . S
H366 C371 0.950 . S
H367 C372 0.949 . S
H368 C374 0.950 . S
H369 C375 0.950 . S
H370 C376 0.949 . S
C371 H366 0.950 . S
C371 C373 1.327 . S
C371 C377 1.429 1_655 S
C372 C364 1.574 . S
C372 H367 0.949 . S
C372 C378 1.368 1_545 S
C373 C357 1.350 1_655 S
C373 H365 0.949 . S
C373 C371 1.327 . S
C374 C362 1.344 1_455 S
C374 H368 0.950 . S
C374 C375 1.327 . S
C375 H369 0.950 . S
C375 C374 1.327 . S
C375 C379 1.429 . S
C376 C359 1.574 . S
C376 H370 0.949 . S
C376 C380 1.368 1_665 S
C377 C358 1.429 1_565 S
C377 C371 1.429 1_455 S
C377 C378 1.523 . S
C378 C359 1.368 1_455 S
C378 C372 1.368 1_565 S
C378 C377 1.523 . S
C379 C363 1.429 1_445 S
C379 C375 1.429 . S
C379 C380 1.523 . S
C380 C364 1.368 . S
C380 C376 1.368 1_445 S
C380 C379 1.523 . S
H381 C356 0.950 . S
H382 C358 0.950 . S
H383 C359 0.949 . S
H384 C361 0.950 . S
H385 C363 0.950 . S
C386 C387 1.349 . S
C386 C388 1.327 . S
C386 H411 0.950 . S
C387 C386 1.349 . S
C387 C403 1.349 . S
C388 C386 1.327 . S
C388 C407 1.429 . S
C388 H412 0.950 . S
C389 C406 1.574 . S
C389 C408 1.368 . S
C389 H413 0.949 . S
H390 C394 0.949 . S
C391 C392 1.349 . S
C391 C393 1.327 . S
C391 H414 0.950 . S
C392 C391 1.349 . S
C392 C404 1.349 . S
C393 C391 1.327 . S
C393 C409 1.429 . S
C393 H415 0.950 . S
C394 H390 0.949 . S
C394 C402 1.574 . S
C394 C410 1.368 . S
H395 C403 0.950 . S
H396 C401 0.950 . S
H397 C402 0.949 . S
H398 C404 0.950 . S
H399 C405 0.950 . S
H400 C406 0.949 . S
C401 H396 0.950 . S
C401 C403 1.327 . S
C401 C407 1.429 . S
C402 C394 1.574 . S
C402 H397 0.949 . S
C402 C408 1.368 . S
C403 C387 1.349 . S
C403 H395 0.950 . S
C403 C401 1.327 . S
C404 C392 1.349 . S
C404 H398 0.950 . S
C404 C405 1.327 . S
C405 H399 0.950 . S
C405 C404 1.327 . S
C405 C409 1.429 . S
C406 C389 1.574 . S
C406 H400 0.949 . S
C406 C410 1.368 . S
C407 C388 1.429 . S
C407 C401 1.429 . S
C407 C408 1.523 . S
C408 C389 1.368 . S
C408 C402 1.368 . S
C408 C407 1.523 . S
C409 C393 1.429 . S
C409 C405 1.429 . S
C409 C410 1.523 . S
C410 C394 1.368 . S
C410 C406 1.368 . S
C410 C409 1.523 . S
H411 C386 0.950 . S
H412 C388 0.950 . S
H413 C389 0.949 . S
H414 C391 0.950 . S
H415 C393 0.950 . S
C416 C417 1.349 . S
C416 C418 1.327 . S
C416 H441 0.950 . S
C417 C416 1.349 . S
C417 C433 1.349 . S
C418 C416 1.327 . S
C418 C437 1.429 . S
C418 H442 0.950 . S
C419 C436 1.574 . S
C419 C438 1.368 . S
C419 H443 0.949 . S
H420 C424 0.949 . S
C421 C422 1.349 . S
C421 C423 1.327 . S
C421 H444 0.950 . S
C422 C421 1.349 . S
C422 C434 1.349 . S
C423 C421 1.327 . S
C423 C439 1.429 . S
C423 H445 0.950 . S
C424 H420 0.949 . S
C424 C432 1.574 . S
C424 C440 1.368 . S
H425 C433 0.950 . S
H426 C431 0.950 . S
H427 C432 0.949 . S
H428 C434 0.950 . S
H429 C435 0.950 . S
H430 C436 0.949 . S
C431 H426 0.950 . S
C431 C433 1.327 . S
C431 C437 1.429 . S
C432 C424 1.574 . S
C432 H427 0.949 . S
C432 C438 1.368 . S
C433 C417 1.349 . S
C433 H425 0.950 . S
C433 C431 1.327 . S
C434 C422 1.349 . S
C434 H428 0.950 . S
C434 C435 1.327 . S
C435 H429 0.950 . S
C435 C434 1.327 . S
C435 C439 1.429 . S
C436 C419 1.574 . S
C436 H430 0.949 . S
C436 C440 1.368 . S
C437 C418 1.429 . S
C437 C431 1.429 . S
C437 C438 1.523 . S
C438 C419 1.368 . S
C438 C432 1.368 . S
C438 C437 1.523 . S
C439 C423 1.429 . S
C439 C435 1.429 . S
C439 C440 1.523 . S
C440 C424 1.368 . S
C440 C436 1.368 . S
C440 C439 1.523 . S
H441 C416 0.950 . S
H442 C418 0.950 . S
H443 C419 0.949 . S
H444 C421 0.950 . S
H445 C423 0.950 . S
C92 C80 1.084 . S
C87 C3 1.137 . S
C117 C4 1.557 1_556 S
C122 C69 1.488 . S
C147 C19 1.508 . S
C152 C83 1.587 . S
C177 C7 1.080 . S
C182 C72 1.188 . S
C207 C37 1.137 . S
C212 C58 1.084 . S
C237 C28 1.557 . S
C242 C47 1.482 1_655 S
C272 C61 1.587 . S
C267 C41 1.508 . S
C302 C50 1.188 . S
C297 C25 1.079 . S
C327 C20 1.306 . S
C332 C49 1.411 . S
C357 C16 1.365 . S
C362 C60 1.464 1_655 S
C392 C71 1.411 . S
C387 C40 1.306 . S
C417 C24 1.365 . S
C422 C82 1.468 . S
