# Generated by pormake.
# Topology llk, (3,12)-cn, num edge types: 1
# Building blocks:
#     Node 0, Type 0, BuildingBlock: OLANEW_clean_sbu_2, # of connection points: 3
#     Node 1, Type 0, BuildingBlock: OLANEW_clean_sbu_2, # of connection points: 3
#     Node 2, Type 0, BuildingBlock: OLANEW_clean_sbu_2, # of connection points: 3
#     Node 3, Type 0, BuildingBlock: OLANEW_clean_sbu_2, # of connection points: 3
#     Node 4, Type 0, BuildingBlock: OLANEW_clean_sbu_2, # of connection points: 3
#     Node 5, Type 0, BuildingBlock: OLANEW_clean_sbu_2, # of connection points: 3
#     Node 6, Type 0, BuildingBlock: OLANEW_clean_sbu_2, # of connection points: 3
#     Node 7, Type 0, BuildingBlock: OLANEW_clean_sbu_2, # of connection points: 3
#     Node 8, Type 0, BuildingBlock: OLANEW_clean_sbu_2, # of connection points: 3
#     Node 9, Type 0, BuildingBlock: OLANEW_clean_sbu_2, # of connection points: 3
#     Node 10, Type 0, BuildingBlock: OLANEW_clean_sbu_2, # of connection points: 3
#     Node 11, Type 0, BuildingBlock: OLANEW_clean_sbu_2, # of connection points: 3
#     Node 12, Type 0, BuildingBlock: OLANEW_clean_sbu_2, # of connection points: 3
#     Node 13, Type 0, BuildingBlock: OLANEW_clean_sbu_2, # of connection points: 3
#     Node 14, Type 0, BuildingBlock: OLANEW_clean_sbu_2, # of connection points: 3
#     Node 15, Type 0, BuildingBlock: OLANEW_clean_sbu_2, # of connection points: 3
#     Node 16, Type 0, BuildingBlock: OLANEW_clean_sbu_2, # of connection points: 3
#     Node 17, Type 0, BuildingBlock: OLANEW_clean_sbu_2, # of connection points: 3
#     Node 18, Type 0, BuildingBlock: OLANEW_clean_sbu_2, # of connection points: 3
#     Node 19, Type 0, BuildingBlock: OLANEW_clean_sbu_2, # of connection points: 3
#     Node 20, Type 0, BuildingBlock: OLANEW_clean_sbu_2, # of connection points: 3
#     Node 21, Type 0, BuildingBlock: OLANEW_clean_sbu_2, # of connection points: 3
#     Node 22, Type 0, BuildingBlock: OLANEW_clean_sbu_2, # of connection points: 3
#     Node 23, Type 0, BuildingBlock: OLANEW_clean_sbu_2, # of connection points: 3
#     Node 24, Type 1, BuildingBlock: QEWDON_clean_sbu_0, # of connection points: 12
#     Node 25, Type 1, BuildingBlock: QEWDON_clean_sbu_0, # of connection points: 12
#     Node 26, Type 1, BuildingBlock: QEWDON_clean_sbu_0, # of connection points: 12
#     Node 27, Type 1, BuildingBlock: QEWDON_clean_sbu_0, # of connection points: 12
#     Node 28, Type 1, BuildingBlock: QEWDON_clean_sbu_0, # of connection points: 12
#     Node 29, Type 1, BuildingBlock: QEWDON_clean_sbu_0, # of connection points: 12
#     Edge 30, Type (0, 1), BuildingBlock: TEMPAE_clean_linker_10, # of connection points: 2
#     Edge 31, Type (0, 1), BuildingBlock: TEMPAE_clean_linker_10, # of connection points: 2
#     Edge 32, Type (0, 1), BuildingBlock: TEMPAE_clean_linker_10, # of connection points: 2
#     Edge 33, Type (0, 1), BuildingBlock: TEMPAE_clean_linker_10, # of connection points: 2
#     Edge 34, Type (0, 1), BuildingBlock: TEMPAE_clean_linker_10, # of connection points: 2
#     Edge 35, Type (0, 1), BuildingBlock: TEMPAE_clean_linker_10, # of connection points: 2
#     Edge 36, Type (0, 1), BuildingBlock: TEMPAE_clean_linker_10, # of connection points: 2
#     Edge 37, Type (0, 1), BuildingBlock: TEMPAE_clean_linker_10, # of connection points: 2
#     Edge 38, Type (0, 1), BuildingBlock: TEMPAE_clean_linker_10, # of connection points: 2
#     Edge 39, Type (0, 1), BuildingBlock: TEMPAE_clean_linker_10, # of connection points: 2
#     Edge 40, Type (0, 1), BuildingBlock: TEMPAE_clean_linker_10, # of connection points: 2
#     Edge 41, Type (0, 1), BuildingBlock: TEMPAE_clean_linker_10, # of connection points: 2
#     Edge 42, Type (0, 1), BuildingBlock: TEMPAE_clean_linker_10, # of connection points: 2
#     Edge 43, Type (0, 1), BuildingBlock: TEMPAE_clean_linker_10, # of connection points: 2
#     Edge 44, Type (0, 1), BuildingBlock: TEMPAE_clean_linker_10, # of connection points: 2
#     Edge 45, Type (0, 1), BuildingBlock: TEMPAE_clean_linker_10, # of connection points: 2
#     Edge 46, Type (0, 1), BuildingBlock: TEMPAE_clean_linker_10, # of connection points: 2
#     Edge 47, Type (0, 1), BuildingBlock: TEMPAE_clean_linker_10, # of connection points: 2
#     Edge 48, Type (0, 1), BuildingBlock: TEMPAE_clean_linker_10, # of connection points: 2
#     Edge 49, Type (0, 1), BuildingBlock: TEMPAE_clean_linker_10, # of connection points: 2
#     Edge 50, Type (0, 1), BuildingBlock: TEMPAE_clean_linker_10, # of connection points: 2
#     Edge 51, Type (0, 1), BuildingBlock: TEMPAE_clean_linker_10, # of connection points: 2
#     Edge 52, Type (0, 1), BuildingBlock: TEMPAE_clean_linker_10, # of connection points: 2
#     Edge 53, Type (0, 1), BuildingBlock: TEMPAE_clean_linker_10, # of connection points: 2
#     Edge 54, Type (0, 1), BuildingBlock: TEMPAE_clean_linker_10, # of connection points: 2
#     Edge 55, Type (0, 1), BuildingBlock: TEMPAE_clean_linker_10, # of connection points: 2
#     Edge 56, Type (0, 1), BuildingBlock: TEMPAE_clean_linker_10, # of connection points: 2
#     Edge 57, Type (0, 1), BuildingBlock: TEMPAE_clean_linker_10, # of connection points: 2
#     Edge 58, Type (0, 1), BuildingBlock: TEMPAE_clean_linker_10, # of connection points: 2
#     Edge 59, Type (0, 1), BuildingBlock: TEMPAE_clean_linker_10, # of connection points: 2
#     Edge 60, Type (0, 1), BuildingBlock: TEMPAE_clean_linker_10, # of connection points: 2
#     Edge 61, Type (0, 1), BuildingBlock: TEMPAE_clean_linker_10, # of connection points: 2
#     Edge 62, Type (0, 1), BuildingBlock: TEMPAE_clean_linker_10, # of connection points: 2
#     Edge 63, Type (0, 1), BuildingBlock: TEMPAE_clean_linker_10, # of connection points: 2
#     Edge 64, Type (0, 1), BuildingBlock: TEMPAE_clean_linker_10, # of connection points: 2
#     Edge 65, Type (0, 1), BuildingBlock: TEMPAE_clean_linker_10, # of connection points: 2
#     Edge 66, Type (0, 1), BuildingBlock: TEMPAE_clean_linker_10, # of connection points: 2
#     Edge 67, Type (0, 1), BuildingBlock: TEMPAE_clean_linker_10, # of connection points: 2
#     Edge 68, Type (0, 1), BuildingBlock: TEMPAE_clean_linker_10, # of connection points: 2
#     Edge 69, Type (0, 1), BuildingBlock: TEMPAE_clean_linker_10, # of connection points: 2
#     Edge 70, Type (0, 1), BuildingBlock: TEMPAE_clean_linker_10, # of connection points: 2
#     Edge 71, Type (0, 1), BuildingBlock: TEMPAE_clean_linker_10, # of connection points: 2
#     Edge 72, Type (0, 1), BuildingBlock: TEMPAE_clean_linker_10, # of connection points: 2
#     Edge 73, Type (0, 1), BuildingBlock: TEMPAE_clean_linker_10, # of connection points: 2
#     Edge 74, Type (0, 1), BuildingBlock: TEMPAE_clean_linker_10, # of connection points: 2
#     Edge 75, Type (0, 1), BuildingBlock: TEMPAE_clean_linker_10, # of connection points: 2
#     Edge 76, Type (0, 1), BuildingBlock: TEMPAE_clean_linker_10, # of connection points: 2
#     Edge 77, Type (0, 1), BuildingBlock: TEMPAE_clean_linker_10, # of connection points: 2
#     Edge 78, Type (0, 1), BuildingBlock: TEMPAE_clean_linker_10, # of connection points: 2
#     Edge 79, Type (0, 1), BuildingBlock: TEMPAE_clean_linker_10, # of connection points: 2
#     Edge 80, Type (0, 1), BuildingBlock: TEMPAE_clean_linker_10, # of connection points: 2
#     Edge 81, Type (0, 1), BuildingBlock: TEMPAE_clean_linker_10, # of connection points: 2
#     Edge 82, Type (0, 1), BuildingBlock: TEMPAE_clean_linker_10, # of connection points: 2
#     Edge 83, Type (0, 1), BuildingBlock: TEMPAE_clean_linker_10, # of connection points: 2
#     Edge 84, Type (0, 1), BuildingBlock: TEMPAE_clean_linker_10, # of connection points: 2
#     Edge 85, Type (0, 1), BuildingBlock: TEMPAE_clean_linker_10, # of connection points: 2
#     Edge 86, Type (0, 1), BuildingBlock: TEMPAE_clean_linker_10, # of connection points: 2
#     Edge 87, Type (0, 1), BuildingBlock: TEMPAE_clean_linker_10, # of connection points: 2
#     Edge 88, Type (0, 1), BuildingBlock: TEMPAE_clean_linker_10, # of connection points: 2
#     Edge 89, Type (0, 1), BuildingBlock: TEMPAE_clean_linker_10, # of connection points: 2
#     Edge 90, Type (0, 1), BuildingBlock: TEMPAE_clean_linker_10, # of connection points: 2
#     Edge 91, Type (0, 1), BuildingBlock: TEMPAE_clean_linker_10, # of connection points: 2
#     Edge 92, Type (0, 1), BuildingBlock: TEMPAE_clean_linker_10, # of connection points: 2
#     Edge 93, Type (0, 1), BuildingBlock: TEMPAE_clean_linker_10, # of connection points: 2
#     Edge 94, Type (0, 1), BuildingBlock: TEMPAE_clean_linker_10, # of connection points: 2
#     Edge 95, Type (0, 1), BuildingBlock: TEMPAE_clean_linker_10, # of connection points: 2
#     Edge 96, Type (0, 1), BuildingBlock: TEMPAE_clean_linker_10, # of connection points: 2
#     Edge 97, Type (0, 1), BuildingBlock: TEMPAE_clean_linker_10, # of connection points: 2
#     Edge 98, Type (0, 1), BuildingBlock: TEMPAE_clean_linker_10, # of connection points: 2
#     Edge 99, Type (0, 1), BuildingBlock: TEMPAE_clean_linker_10, # of connection points: 2
#     Edge 100, Type (0, 1), BuildingBlock: TEMPAE_clean_linker_10, # of connection points: 2
#     Edge 101, Type (0, 1), BuildingBlock: TEMPAE_clean_linker_10, # of connection points: 2
# Relax obj value: 0.069
# Max RMSD: 0.119
# Mean RMSD: 0.076
data_MOF--net-llk--node1-OLANEW_clean_sbu_2--node2-QEWDON_clean_sbu_0--edge1-TEMPAE_clean_linker_10
_symmetry_space_group_name_H-M    P1
_symmetry_Int_Tables_number       1
_symmetry_cell_setting            triclinic
loop_
_symmetry_equiv_pos_as_xyz
'x, y, z'
_cell_length_a     47.80155
_cell_length_b     52.607528
_cell_length_c     50.404073
_cell_angle_alpha  90.065533
_cell_angle_beta   90.020333
_cell_angle_gamma 89.561197
loop_
_atom_site_label
_atom_site_type_symbol
_atom_site_fract_x
_atom_site_fract_y
_atom_site_fract_z
_atom_type_partial_charge
O0 O 0.07778 0.27996 0.34624 0.0
Cd1 Cd 0.08637 0.24259 0.31866 0.0
O2 O 0.0544 0.30446 0.31823 0.0
Cd3 Cd 0.05722 0.28354 0.28081 0.0
O4 O 0.05394 0.29596 0.23939 0.0
C5 C 0.07414 0.30911 0.23066 0.0
O6 O 0.09626 0.31199 0.24584 0.0
C7 C 0.06444 0.3004 0.34123 0.0
C8 C 0.07165 0.20013 0.34868 0.0
O9 O 0.09591 0.21008 0.35094 0.0
O10 O 0.05467 0.20977 0.3317 0.0
O11 O 0.69179 0.12428 0.22232 0.0
Cd12 Cd 0.72211 0.14969 0.194 0.0
O13 O 0.7077 0.14111 0.25908 0.0
Cd14 Cd 0.71126 0.14583 0.3022 0.0
O15 O 0.72814 0.13221 0.33991 0.0
C16 C 0.7488 0.11718 0.33671 0.0
O17 O 0.75722 0.11227 0.3124 0.0
C18 C 0.69199 0.12512 0.24747 0.0
C19 C 0.72048 0.12525 0.14517 0.0
O20 O 0.73951 0.11971 0.16218 0.0
O21 O 0.70338 0.14337 0.15075 0.0
O22 O 0.99899 0.72975 0.31402 0.0
Cd23 Cd 0.99718 0.76593 0.28375 0.0
O24 O 0.04284 0.72078 0.30453 0.0
Cd25 Cd 0.0371 0.73663 0.2649 0.0
O26 O 0.02728 0.71799 0.2272 0.0
C27 C 0.01461 0.69694 0.22967 0.0
O28 O 0.00751 0.68947 0.2536 0.0
C29 C 0.02151 0.71771 0.31917 0.0
C30 C 0.98807 0.81004 0.31373 0.0
O31 O 0.96761 0.79763 0.30377 0.0
O32 O 0.01292 0.80188 0.30906 0.0
O33 O 0.28647 0.04631 0.27749 0.0
Cd34 Cd 0.25449 0.04675 0.23977 0.0
O35 O 0.26678 0.00968 0.28421 0.0
Cd36 Cd 0.25656 0.97408 0.30366 0.0
O37 O 0.21905 0.95875 0.32141 0.0
C38 C 0.19654 0.96217 0.30842 0.0
O39 O 0.19801 0.97205 0.28453 0.0
C40 C 0.28417 0.02644 0.29154 0.0
C41 C 0.28232 0.02947 0.1948 0.0
O42 O 0.28046 0.05323 0.20026 0.0
O43 O 0.27052 0.0137 0.21051 0.0
O44 O 0.04101 0.71009 0.72453 0.0
Cd45 Cd 0.03868 0.74452 0.7568 0.0
O46 O 0.99551 0.70865 0.71879 0.0
Cd47 Cd 0.98973 0.72619 0.75763 0.0
O48 O 0.98722 0.71221 0.79831 0.0
C49 C 0.00905 0.70888 0.81235 0.0
O50 O 0.03331 0.71645 0.80316 0.0
C51 C 0.01998 0.7019 0.71175 0.0
C52 C 0.04729 0.78955 0.7291 0.0
O53 O 0.0679 0.77669 0.73851 0.0
O54 O 0.02249 0.78147 0.7335 0.0
O55 O 0.35388 0.91228 0.74478 0.0
Cd56 Cd 0.32682 0.89054 0.77855 0.0
O57 O 0.33058 0.94737 0.75408 0.0
Cd58 Cd 0.32016 0.98646 0.74284 0.0
O59 O 0.29489 0.01007 0.71632 0.0
C60 C 0.30259 0.0146 0.69264 0.0
O61 O 0.32752 0.00695 0.68491 0.0
C62 C 0.35002 0.93599 0.74153 0.0
C63 C 0.34822 0.90995 0.82546 0.0
O64 O 0.35858 0.88973 0.81506 0.0
O65 O 0.32664 0.92002 0.81447 0.0
O66 O 0.00173 0.29671 0.70055 0.0
Cd67 Cd 0.98244 0.26435 0.7296 0.0
O68 O 0.04094 0.30426 0.72215 0.0
Cd69 Cd 0.02989 0.28675 0.75992 0.0
O70 O 0.02997 0.30184 0.80041 0.0
C71 C 0.00705 0.30814 0.81143 0.0
O72 O 0.98348 0.30285 0.79926 0.0
C73 C 0.0254 0.30746 0.70192 0.0
C74 C 0.98479 0.21914 0.70072 0.0
O75 O 0.96421 0.23465 0.69792 0.0
O76 O 0.00366 0.22455 0.71786 0.0
O77 O 0.70165 0.15646 0.73167 0.0
Cd78 Cd 0.70793 0.17083 0.77739 0.0
O79 O 0.71523 0.11957 0.74738 0.0
Cd80 Cd 0.72965 0.08065 0.74126 0.0
O81 O 0.76353 0.05584 0.72811 0.0
C82 C 0.76902 0.05616 0.70347 0.0
O83 O 0.75275 0.06951 0.68763 0.0
C84 C 0.70718 0.13308 0.72792 0.0
C85 C 0.67579 0.14155 0.81176 0.0
O86 O 0.66736 0.16366 0.80454 0.0
O87 O 0.69941 0.13348 0.80308 0.0
O88 O 0.27717 0.31183 0.97933 0.0
Cd89 Cd 0.24595 0.27663 0.96974 0.0
O90 O 0.2807 0.2961 0.01962 0.0
Cd91 Cd 0.23701 0.28401 0.01679 0.0
O92 O 0.19466 0.29815 0.00847 0.0
C93 C 0.19297 0.32222 0.01021 0.0
O94 O 0.21551 0.33479 0.01709 0.0
C95 C 0.29016 0.31029 0.00132 0.0
C96 C 0.28171 0.23478 0.97376 0.0
O97 O 0.27506 0.24369 0.95094 0.0
O98 O 0.27017 0.24456 0.99433 0.0
O99 O 0.28508 0.7454 0.08008 0.0
Cd100 Cd 0.25252 0.78163 0.07789 0.0
O101 O 0.25373 0.71706 0.09175 0.0
Cd102 Cd 0.2169 0.74173 0.09285 0.0
O103 O 0.17449 0.729 0.08465 0.0
C104 C 0.16626 0.71044 0.09867 0.0
O105 O 0.18202 0.70294 0.1186 0.0
C106 C 0.27877 0.7226 0.08577 0.0
C107 C 0.28155 0.82609 0.06566 0.0
O108 O 0.27457 0.8211 0.08963 0.0
O109 O 0.27446 0.81035 0.04749 0.0
O110 O 0.77932 0.2936 0.00286 0.0
Cd111 Cd 0.81209 0.25853 0.99406 0.0
O112 O 0.80098 0.31919 0.9754 0.0
Cd113 Cd 0.83839 0.29515 0.97276 0.0
O114 O 0.88149 0.3002 0.9858 0.0
C115 C 0.88309 0.30832 0.00949 0.0
O116 O 0.86003 0.30944 0.02367 0.0
C117 C 0.78051 0.31477 0.99077 0.0
C118 C 0.78181 0.21379 0.98806 0.0
O119 O 0.79329 0.2194 0.01027 0.0
O120 O 0.78525 0.229 0.96852 0.0
O121 O 0.74175 0.72302 0.91555 0.0
Cd122 Cd 0.76979 0.75421 0.89196 0.0
O123 O 0.73964 0.74985 0.94883 0.0
Cd124 Cd 0.78355 0.75822 0.9409 0.0
O125 O 0.82034 0.73477 0.95013 0.0
C126 C 0.81363 0.71463 0.96246 0.0
O127 O 0.78706 0.71088 0.96772 0.0
C128 C 0.72982 0.73072 0.93665 0.0
C129 C 0.73597 0.7976 0.89331 0.0
O130 O 0.73236 0.78043 0.87562 0.0
O131 O 0.75662 0.79504 0.90932 0.0
O132 O 0.56153 0.8087 0.80516 0.0
Cd133 Cd 0.56332 0.77196 0.77546 0.0
O134 O 0.52635 0.82663 0.78387 0.0
Cd135 Cd 0.52909 0.80383 0.74779 0.0
O136 O 0.53349 0.81657 0.70683 0.0
C137 C 0.55669 0.82705 0.70158 0.0
O138 O 0.57644 0.82657 0.71972 0.0
C139 C 0.54307 0.82616 0.80349 0.0
C140 C 0.549 0.72952 0.80566 0.0
O141 O 0.57464 0.73588 0.80269 0.0
O142 O 0.53029 0.74271 0.79358 0.0
O143 O 0.25979 0.54564 0.78965 0.0
Cd144 Cd 0.30363 0.54729 0.76445 0.0
O145 O 0.25056 0.5859 0.78124 0.0
Cd146 Cd 0.29525 0.59186 0.77444 0.0
O147 O 0.33601 0.58221 0.79184 0.0
C148 C 0.33368 0.57317 0.81511 0.0
O149 O 0.30853 0.57161 0.8255 0.0
C150 C 0.24278 0.5644 0.79 0.0
C151 C 0.28939 0.54684 0.71087 0.0
O152 O 0.2986 0.52665 0.7222 0.0
O153 O 0.2879 0.56733 0.72454 0.0
O154 O 0.43788 0.22518 0.81058 0.0
Cd155 Cd 0.43059 0.26188 0.78151 0.0
O156 O 0.43971 0.19316 0.78211 0.0
Cd157 Cd 0.4363 0.21146 0.74331 0.0
O158 O 0.44988 0.19955 0.70359 0.0
C159 C 0.43375 0.18764 0.68789 0.0
O160 O 0.40742 0.18462 0.69457 0.0
C161 C 0.44044 0.20151 0.8058 0.0
C162 C 0.44494 0.30598 0.80962 0.0
O163 O 0.4198 0.29768 0.80983 0.0
O164 O 0.46303 0.29379 0.79569 0.0
O165 O 0.79008 0.60249 0.80177 0.0
Cd166 Cd 0.77537 0.6107 0.75654 0.0
O167 O 0.76568 0.56779 0.79741 0.0
Cd168 Cd 0.74802 0.531 0.8079 0.0
O169 O 0.70968 0.51425 0.8228 0.0
C170 C 0.68832 0.51251 0.80788 0.0
O171 O 0.69092 0.51781 0.78253 0.0
C172 C 0.78203 0.58142 0.81125 0.0
C173 C 0.81908 0.59268 0.7255 0.0
O174 O 0.81597 0.6166 0.72948 0.0
O175 O 0.80096 0.57751 0.73522 0.0
O176 O 0.47866 0.25859 0.20952 0.0
Cd177 Cd 0.48071 0.29304 0.24191 0.0
O178 O 0.48403 0.22675 0.23744 0.0
Cd179 Cd 0.48654 0.24792 0.27463 0.0
O180 O 0.49269 0.23289 0.3146 0.0
C181 C 0.48294 0.21055 0.31635 0.0
O182 O 0.47005 0.20101 0.2956 0.0
C183 C 0.48088 0.23488 0.2139 0.0
C184 C 0.4909 0.33693 0.2127 0.0
O185 O 0.51095 0.32237 0.22033 0.0
O186 O 0.46597 0.33138 0.21986 0.0
O187 O 0.80595 0.48275 0.27275 0.0
Cd188 Cd 0.76304 0.47333 0.29754 0.0
O189 O 0.78235 0.5086 0.2467 0.0
Cd190 Cd 0.74135 0.49511 0.2588 0.0
O191 O 0.70764 0.48226 0.23329 0.0
C192 C 0.71655 0.47183 0.21213 0.0
O193 O 0.74359 0.46777 0.20963 0.0
C194 C 0.80555 0.49918 0.25428 0.0
C195 C 0.77455 0.4847 0.35009 0.0
O196 O 0.77458 0.46157 0.34208 0.0
O197 O 0.76774 0.5022 0.33361 0.0
O198 O 0.62406 0.78773 0.18857 0.0
Cd199 Cd 0.62808 0.75196 0.21924 0.0
O200 O 0.63701 0.82019 0.21346 0.0
Cd201 Cd 0.64008 0.80208 0.25236 0.0
O202 O 0.63159 0.81593 0.2926 0.0
C203 C 0.60837 0.81138 0.30386 0.0
O204 O 0.59066 0.79605 0.29211 0.0
C205 C 0.62926 0.81128 0.1912 0.0
C206 C 0.61183 0.70833 0.1915 0.0
O207 O 0.59391 0.72234 0.20367 0.0
O208 O 0.63767 0.71447 0.19309 0.0
O209 O 0.24703 0.62608 0.19825 0.0
Cd210 Cd 0.26736 0.63866 0.24037 0.0
O211 O 0.2818 0.59933 0.1911 0.0
Cd212 Cd 0.30927 0.6123 0.22286 0.0
O213 O 0.35375 0.60377 0.22412 0.0
C214 C 0.36944 0.61666 0.209 0.0
O215 O 0.35898 0.63714 0.1977 0.0
C216 C 0.25815 0.60845 0.18449 0.0
C217 C 0.23106 0.6201 0.27861 0.0
O218 O 0.23079 0.64377 0.27261 0.0
O219 O 0.2491 0.60556 0.26738 0.0
O220 O 0.83503 0.79022 0.45498 0.0
Cd221 Cd 0.81187 0.74956 0.44816 0.0
O222 O 0.82068 0.79207 0.49636 0.0
Cd223 Cd 0.78289 0.77067 0.48771 0.0
O224 O 0.74244 0.7898 0.48217 0.0
C225 C 0.74316 0.81311 0.48892 0.0
O226 O 0.76661 0.82213 0.4986 0.0
C227 C 0.83628 0.80027 0.47789 0.0
C228 C 0.84929 0.71065 0.46222 0.0
O229 O 0.84863 0.71951 0.43855 0.0
O230 O 0.83189 0.71985 0.4791 0.0
O231 O 0.82859 0.23993 0.4996 0.0
Cd232 Cd 0.7916 0.27148 0.49173 0.0
O233 O 0.82895 0.22681 0.45826 0.0
Cd234 Cd 0.7866 0.24174 0.45414 0.0
O235 O 0.74647 0.2262 0.46655 0.0
C236 C 0.74862 0.20699 0.48177 0.0
O237 O 0.77372 0.19943 0.4891 0.0
C238 C 0.8398 0.22667 0.48128 0.0
C239 C 0.81486 0.31981 0.49481 0.0
O240 O 0.80434 0.30901 0.51526 0.0
O241 O 0.81376 0.30796 0.47261 0.0
O242 O 0.2123 0.80245 0.59371 0.0
Cd243 Cd 0.2412 0.7647 0.60076 0.0
O244 O 0.22716 0.80651 0.55263 0.0
Cd245 Cd 0.26637 0.78562 0.55849 0.0
O246 O 0.31052 0.79643 0.55671 0.0
C247 C 0.3135 0.82043 0.55629 0.0
O248 O 0.29094 0.83484 0.5574 0.0
C249 C 0.2102 0.81276 0.571 0.0
C250 C 0.20975 0.72284 0.58457 0.0
O251 O 0.20852 0.731 0.60852 0.0
O252 O 0.2264 0.73406 0.56854 0.0
O253 O 0.20933 0.21638 0.51875 0.0
Cd254 Cd 0.24554 0.24882 0.52053 0.0
O255 O 0.22415 0.19866 0.55569 0.0
Cd256 Cd 0.26677 0.21184 0.54927 0.0
O257 O 0.3059 0.19166 0.54055 0.0
C258 C 0.31371 0.18637 0.51704 0.0
O259 O 0.29932 0.1954 0.49689 0.0
C260 C 0.20562 0.20091 0.53777 0.0
C261 C 0.22051 0.29682 0.51595 0.0
O262 O 0.23066 0.28532 0.49565 0.0
O263 O 0.22255 0.2858 0.53854 0.0
Zn264 Zn 0.91687 0.99179 0.47013 0.0
Zn265 Zn 0.937 0.04729 0.48884 0.0
O266 O 0.95048 0.01216 0.48097 0.0
H267 H 0.96903 0.00518 0.48358 0.0
C268 C 0.93915 0.95767 0.52953 0.0
O269 O 0.92648 0.97993 0.52911 0.0
Zn270 Zn 0.07905 0.03708 0.5675 0.0
Zn271 Zn 0.0886 0.97892 0.57398 0.0
O272 O 0.05965 0.00633 0.58113 0.0
H273 H 0.03972 0.00372 0.58247 0.0
Zn274 Zn 0.97323 0.98552 0.56665 0.0
O275 O 0.98099 0.01784 0.54656 0.0
Zn276 Zn 0.98178 0.04531 0.5737 0.0
H277 H 0.98258 0.01958 0.52756 0.0
Zn278 Zn 0.02791 0.97162 0.48949 0.0
O279 O 0.0298 0.00571 0.50806 0.0
H280 H 0.0309 0.00764 0.52708 0.0
Zn281 Zn 0.03344 0.03231 0.48007 0.0
C282 C 0.07222 0.94875 0.51931 0.0
O283 O 0.08112 0.97215 0.51639 0.0
O284 O 0.88223 0.01461 0.46181 0.0
O285 O 0.89636 0.05181 0.47816 0.0
O286 O 0.12853 0.9929 0.57749 0.0
O287 O 0.12111 0.0345 0.57384 0.0
O288 O 0.95058 0.99297 0.60062 0.0
O289 O 0.95908 0.03423 0.60579 0.0
C290 C 0.98531 0.06816 0.46553 0.0
O291 O 0.03847 0.97405 0.44987 0.0
O292 O 0.04678 0.0155 0.44607 0.0
O293 O 0.08113 0.94478 0.59283 0.0
C294 C 0.87781 0.03811 0.46694 0.0
O295 O 0.92675 0.95964 0.44778 0.0
C296 C 0.03741 0.0695 0.58862 0.0
O297 O 0.96063 0.95477 0.5441 0.0
C298 C 0.13761 0.01563 0.57754 0.0
O299 O 0.04857 0.94283 0.50968 0.0
C300 C 0.94995 0.07557 0.53763 0.0
O301 O 0.95925 0.07233 0.46777 0.0
O302 O 0.9952 0.0478 0.47553 0.0
C303 C 0.94743 0.01371 0.61343 0.0
O304 O 0.06383 0.06785 0.58645 0.0
O305 O 0.02282 0.05123 0.57984 0.0
C306 C 0.07185 0.05898 0.51422 0.0
O307 O 0.96396 0.07714 0.55895 0.0
O308 O 0.94661 0.05396 0.52697 0.0
C309 C 0.04671 0.99305 0.43638 0.0
O310 O 0.06002 0.05982 0.49167 0.0
O311 O 0.06824 0.03989 0.52908 0.0
C312 C 0.08254 0.94539 0.61797 0.0
O313 O 0.08877 0.96696 0.62966 0.0
C314 C 0.9415 0.9627 0.42705 0.0
O315 O 0.94829 0.98586 0.41989 0.0
Zn316 Zn 0.45225 0.05689 0.0336 0.0
Zn317 Zn 0.47439 0.06453 0.97486 0.0
O318 O 0.48233 0.04578 0.0086 0.0
H319 H 0.49728 0.03376 0.01204 0.0
C320 C 0.52908 0.11165 0.06844 0.0
O321 O 0.51215 0.10416 0.04949 0.0
Zn322 Zn 0.56267 0.97533 0.95722 0.0
Zn323 Zn 0.59845 0.96271 0.00999 0.0
O324 O 0.57095 0.98731 0.99372 0.0
H325 H 0.55997 0.99966 0.00348 0.0
Zn326 Zn 0.57242 0.08343 0.03754 0.0
O327 O 0.54803 0.07012 0.0083 0.0
Zn328 Zn 0.57097 0.06884 0.97497 0.0
H329 H 0.52789 0.07076 0.0095 0.0
Zn330 Zn 0.49284 0.96522 0.04936 0.0
O331 O 0.50459 0.9755 0.0123 0.0
H332 H 0.50122 0.97092 0.03053 0.0
Zn333 Zn 0.47043 0.97427 0.98948 0.0
C334 C 0.54381 0.93573 0.06461 0.0
O335 O 0.55161 0.93999 0.04003 0.0
O336 O 0.42794 0.08644 0.02003 0.0
O337 O 0.44773 0.09462 0.98102 0.0
O338 O 0.6098 0.9334 0.98502 0.0
O339 O 0.58567 0.94338 0.94855 0.0
O340 O 0.60946 0.09651 0.02311 0.0
O341 O 0.61011 0.08375 0.98089 0.0
C342 C 0.45372 0.01743 0.95514 0.0
O343 O 0.45226 0.9526 0.05102 0.0
O344 O 0.43711 0.95944 0.00985 0.0
O345 O 0.6284 0.9805 0.03267 0.0
C346 C 0.42972 0.09972 0.99899 0.0
O347 O 0.43434 0.03135 0.05914 0.0
C348 C 0.57683 0.02603 0.93881 0.0
O349 O 0.55466 0.10489 0.06776 0.0
C350 C 0.60287 0.92903 0.96103 0.0
O351 O 0.52072 0.94492 0.07286 0.0
C352 C 0.52488 0.08872 0.94546 0.0
O353 O 0.45576 0.04071 0.94887 0.0
O354 O 0.46414 0.01 0.97697 0.0
C355 C 0.62155 0.09484 0.00068 0.0
O356 O 0.57375 0.00309 0.9314 0.0
O357 O 0.57126 0.03232 0.96256 0.0
C358 C 0.504 0.95321 0.94834 0.0
O359 O 0.5514 0.08976 0.94667 0.0
O360 O 0.51258 0.07479 0.96229 0.0
C361 C 0.43308 0.95158 0.03351 0.0
O362 O 0.4794 0.95227 0.95783 0.0
O363 O 0.52105 0.96882 0.95864 0.0
C364 C 0.64423 0.99649 0.02136 0.0
O365 O 0.64235 0.99949 0.99554 0.0
C366 C 0.41594 0.01577 0.05125 0.0
O367 O 0.40972 0.01482 0.02587 0.0
Zn368 Zn 0.95237 0.48754 0.96917 0.0
Zn369 Zn 0.95079 0.54722 0.98236 0.0
O370 O 0.97656 0.51712 0.9807 0.0
H371 H 0.99462 0.51575 0.98922 0.0
C372 C 0.99541 0.45483 0.04494 0.0
O373 O 0.99293 0.47304 0.02725 0.0
Zn374 Zn 0.06807 0.5418 0.04778 0.0
Zn375 Zn 0.08148 0.48273 0.05755 0.0
O376 O 0.04964 0.5083 0.05293 0.0
H377 H 0.02988 0.50486 0.05099 0.0
Zn378 Zn 0.98718 0.49825 0.07992 0.0
O379 O 0.96281 0.51858 0.05401 0.0
Zn380 Zn 0.96966 0.55024 0.07485 0.0
H381 H 0.94506 0.51292 0.04706 0.0
Zn382 Zn 0.04856 0.49762 0.93365 0.0
O383 O 0.05574 0.51789 0.96753 0.0
H384 H 0.06919 0.51315 0.98098 0.0
Zn385 Zn 0.0475 0.55242 0.95316 0.0
C386 C 0.04877 0.44686 0.95791 0.0
O387 O 0.03387 0.45884 0.97598 0.0
O388 O 0.91357 0.49813 0.95461 0.0
O389 O 0.91218 0.5383 0.96826 0.0
O390 O 0.11926 0.49978 0.06666 0.0
O391 O 0.10964 0.53955 0.0546 0.0
O392 O 0.97256 0.50424 0.11783 0.0
O393 O 0.95789 0.54413 0.11316 0.0
C394 C 0.99002 0.57532 0.9504 0.0
O395 O 0.06586 0.51586 0.90111 0.0
O396 O 0.06533 0.55539 0.91673 0.0
O397 O 0.0731 0.44802 0.07551 0.0
C398 C 0.90073 0.51933 0.95697 0.0
O399 O 0.97147 0.45597 0.95229 0.0
C400 C 0.02947 0.56921 0.08253 0.0
O401 O 0.99495 0.46066 0.0694 0.0
C402 C 0.12673 0.52276 0.06321 0.0
O403 O 0.05655 0.45893 0.93738 0.0
C404 C 0.94242 0.57861 0.0335 0.0
O405 O 0.96516 0.57536 0.9591 0.0
O406 O 0.00589 0.5566 0.95584 0.0
C407 C 0.96062 0.52405 0.1272 0.0
O408 O 0.05469 0.56669 0.07515 0.0
O409 O 0.01102 0.55578 0.07115 0.0
C410 C 0.06649 0.57538 0.00124 0.0
O411 O 0.94765 0.57925 0.05822 0.0
O412 O 0.95058 0.55913 0.02052 0.0
C413 C 0.07158 0.53938 0.89857 0.0
O414 O 0.06356 0.57949 0.97661 0.0
O415 O 0.06059 0.55368 0.01055 0.0
C416 C 0.05946 0.4482 0.09715 0.0
O417 O 0.05038 0.47006 0.10655 0.0
C418 C 0.98178 0.45765 0.92916 0.0
O419 O 0.98067 0.47963 0.91683 0.0
Zn420 Zn 0.48019 0.46665 0.98363 0.0
Zn421 Zn 0.47929 0.4716 0.04457 0.0
O422 O 0.47498 0.4935 0.01238 0.0
H423 H 0.48093 0.51084 0.00996 0.0
C424 C 0.52309 0.43978 0.93025 0.0
O425 O 0.52912 0.46278 0.92201 0.0
Zn426 Zn 0.57462 0.56493 0.03136 0.0
Zn427 Zn 0.54608 0.57151 0.97947 0.0
O428 O 0.56799 0.54408 0.99924 0.0
H429 H 0.56464 0.52607 0.99805 0.0
Zn430 Zn 0.56287 0.45276 0.97311 0.0
O431 O 0.54971 0.47547 0.00292 0.0
Zn432 Zn 0.57882 0.47376 0.03167 0.0
H433 H 0.53466 0.48778 0.00164 0.0
Zn434 Zn 0.46484 0.57943 0.98935 0.0
O435 O 0.49436 0.56428 0.01318 0.0
H436 H 0.50878 0.55293 0.00667 0.0
Zn437 Zn 0.47778 0.56239 0.04951 0.0
C438 C 0.49128 0.61819 0.95728 0.0
O439 O 0.49505 0.62777 0.98109 0.0
O440 O 0.46222 0.43268 0.99493 0.0
O441 O 0.45785 0.43902 0.03842 0.0
O442 O 0.5649 0.60672 0.98409 0.0
O443 O 0.58998 0.59878 0.02026 0.0
O444 O 0.6012 0.43633 0.9805 0.0
O445 O 0.6128 0.45226 0.01992 0.0
C446 C 0.46694 0.51392 0.07755 0.0
O447 O 0.43172 0.59487 0.01025 0.0
O448 O 0.44021 0.58132 0.05136 0.0
O449 O 0.53852 0.55985 0.94103 0.0
C450 C 0.45359 0.42561 0.01769 0.0
O451 O 0.4703 0.4794 0.94573 0.0
C452 C 0.60233 0.52291 0.05714 0.0
O453 O 0.53424 0.43158 0.95151 0.0
C454 C 0.58314 0.61342 0.00113 0.0
O455 O 0.47853 0.5972 0.955 0.0
C456 C 0.53556 0.45667 0.06644 0.0
O457 O 0.46565 0.48983 0.07766 0.0
O458 O 0.47497 0.52507 0.05672 0.0
C459 C 0.61828 0.43821 -0.00017 0.0
O460 O 0.60076 0.54705 0.05645 0.0
O461 O 0.58819 0.51039 0.04025 0.0
C462 C 0.52943 0.57937 0.06998 0.0
O463 O 0.56194 0.45747 0.06412 0.0
O464 O 0.52056 0.46585 0.04799 0.0
C465 C 0.42507 0.5936 0.03472 0.0
O466 O 0.5037 0.57869 0.07596 0.0
O467 O 0.53728 0.569 0.0485 0.0
C468 C 0.54771 0.57399 0.9227 0.0
O469 O 0.55761 0.5964 0.92914 0.0
C470 C 0.47659 0.50175 0.93835 0.0
O471 O 0.49115 0.51622 0.95442 0.0
Zn472 Zn 0.98454 0.4824 0.48291 0.0
Zn473 Zn 0.97477 0.54032 0.47574 0.0
O474 O 0.00283 0.5133 0.46645 0.0
H475 H 0.01452 0.51284 0.45081 0.0
C476 C 0.93853 0.46657 0.53655 0.0
O477 O 0.92954 0.49002 0.53995 0.0
Zn478 Zn 0.10704 0.54216 0.54807 0.0
Zn479 Zn 0.11308 0.48099 0.54708 0.0
O480 O 0.08513 0.51005 0.54828 0.0
H481 H 0.06557 0.50842 0.54378 0.0
Zn482 Zn 0.98588 0.48778 0.56427 0.0
O483 O 0.00588 0.51379 0.54228 0.0
Zn484 Zn 0.00927 0.545 0.56493 0.0
H485 H 0.01593 0.51035 0.52602 0.0
Zn486 Zn 0.09302 0.50312 0.45586 0.0
O487 O 0.07204 0.52528 0.48154 0.0
H488 H 0.06045 0.51912 0.49582 0.0
Zn489 Zn 0.06685 0.55854 0.46298 0.0
C490 C 0.12827 0.46708 0.48532 0.0
O491 O 0.13858 0.48825 0.49497 0.0
O492 O 0.94202 0.48456 0.47774 0.0
O493 O 0.93547 0.52612 0.47187 0.0
O494 O 0.15171 0.49249 0.56012 0.0
O495 O 0.14799 0.53466 0.55707 0.0
O496 O 0.96738 0.50386 0.59683 0.0
O497 O 0.98887 0.54118 0.60026 0.0
C498 C 0.00717 0.57585 0.44946 0.0
O499 O 0.1106 0.5227 0.42492 0.0
O500 O 0.08636 0.55908 0.42699 0.0
O501 O 0.09898 0.4467 0.56188 0.0
C502 C 0.92599 0.50354 0.47337 0.0
O503 O 0.00155 0.44737 0.4731 0.0
C504 C 0.06539 0.56681 0.5791 0.0
O505 O 0.96276 0.46048 0.54488 0.0
C506 C 0.16215 0.51461 0.56237 0.0
O507 O 0.1088 0.46832 0.46819 0.0
C508 C 0.98021 0.57206 0.52418 0.0
O509 O 0.98143 0.57073 0.45229 0.0
O510 O 0.02507 0.5617 0.46082 0.0
C511 C 0.97149 0.52479 0.60888 0.0
O512 O 0.0916 0.56672 0.57517 0.0
O513 O 0.05059 0.55036 0.56746 0.0
C514 C 0.09711 0.58108 0.50601 0.0
O515 O 0.99067 0.57516 0.54708 0.0
O516 O 0.98333 0.5506 0.513 0.0
C517 C 0.10428 0.54455 0.41566 0.0
O518 O 0.08403 0.58681 0.48486 0.0
O519 O 0.09866 0.55779 0.51259 0.0
C520 C 0.07928 0.44819 0.57874 0.0
O521 O 0.06908 0.47071 0.58485 0.0
C522 C 0.02663 0.4451 0.46507 0.0
O523 O 0.04264 0.46528 0.46457 0.0
Zn524 Zn 0.48217 0.97591 0.44496 0.0
Zn525 Zn 0.46974 0.03172 0.46668 0.0
O526 O 0.50124 0.00777 0.4582 0.0
H527 H 0.51942 0.00791 0.46659 0.0
C528 C 0.4851 0.92593 0.54299 0.0
O529 O 0.48827 0.93901 0.52102 0.0
Zn530 Zn 0.58166 0.06312 0.52867 0.0
Zn531 Zn 0.60733 0.00869 0.54418 0.0
O532 O 0.57231 0.02648 0.53112 0.0
H533 H 0.55695 0.01835 0.52208 0.0
Zn534 Zn 0.50991 0.97147 0.56894 0.0
O535 O 0.49822 0.99708 0.54029 0.0
Zn536 Zn 0.49222 0.02969 0.56013 0.0
H537 H 0.50276 0.99553 0.52168 0.0
Zn538 Zn 0.57865 0.99331 0.4225 0.0
O539 O 0.57575 0.01929 0.45257 0.0
H540 H 0.57923 0.01649 0.47123 0.0
Zn541 Zn 0.56215 0.05138 0.43547 0.0
C542 C 0.59743 0.94696 0.4511 0.0
O543 O 0.58056 0.95586 0.46952 0.0
O544 O 0.44209 0.98293 0.43168 0.0
O545 O 0.43346 0.02127 0.44854 0.0
O546 O 0.63509 0.03336 0.56255 0.0
O547 O 0.61794 0.07034 0.54815 0.0
O548 O 0.49921 0.98373 0.60651 0.0
O549 O 0.4817 0.02208 0.59801 0.0
C550 C 0.50268 0.07296 0.44608 0.0
O551 O 0.58367 0.01035 0.38578 0.0
O552 O 0.56863 0.04932 0.39573 0.0
O553 O 0.59943 0.97367 0.56133 0.0
C554 C 0.42585 0.002 0.43496 0.0
O555 O 0.5059 0.95015 0.42313 0.0
C556 C 0.53043 0.07433 0.55713 0.0
O557 O 0.49418 0.93507 0.56465 0.0
C558 C 0.63594 0.05758 0.56143 0.0
O559 O 0.59996 0.95921 0.4295 0.0
C560 C 0.45561 0.04973 0.52025 0.0
O561 O 0.47855 0.06699 0.45439 0.0
O562 O 0.52153 0.05575 0.44566 0.0
C563 C 0.48621 0.00372 0.61392 0.0
O564 O 0.55221 0.08428 0.54731 0.0
O565 O 0.527 0.05048 0.55468 0.0
C566 C 0.59198 0.08427 0.47207 0.0
O567 O 0.4611 0.05064 0.54482 0.0
O568 O 0.46761 0.033 0.50606 0.0
C569 C 0.57801 0.03315 0.37896 0.0
O570 O 0.58577 0.08046 0.44792 0.0
O571 O 0.58087 0.0701 0.48944 0.0
C572 C 0.57995 0.97321 0.57847 0.0
O573 O 0.56695 0.99452 0.5846 0.0
C574 C 0.52146 0.93327 0.43369 0.0
O575 O 0.52285 0.93183 0.45968 0.0
C576 C 0.16915 0.17673 0.5134 0.0
C577 C 0.18153 0.18351 0.53756 0.0
C578 C 0.14919 0.1574 0.5122 0.0
C579 C 0.14089 0.14506 0.53584 0.0
C580 C 0.15191 0.153 0.56052 0.0
C581 C 0.17249 0.1719 0.56105 0.0
C582 C 0.13819 0.14921 0.48545 0.0
C583 C 0.14263 0.14097 0.58621 0.0
C584 C 0.07657 0.10435 0.52666 0.0
C585 C 0.0888 0.08036 0.52314 0.0
C586 C 0.09311 0.12546 0.53281 0.0
C587 C 0.12255 0.12247 0.53424 0.0
C588 C 0.13478 0.09796 0.53152 0.0
C589 C 0.11761 0.07708 0.52633 0.0
C590 C 0.07912 0.15101 0.5366 0.0
C591 C 0.1661 0.09399 0.53245 0.0
H592 H 0.17616 0.18558 0.49518 0.0
H593 H 0.18184 0.1773 0.57981 0.0
H594 H 0.1448 0.12931 0.48138 0.0
H595 H 0.11501 0.14968 0.48541 0.0
H596 H 0.14582 0.16147 0.46909 0.0
H597 H 0.1504 0.15151 0.60382 0.0
H598 H 0.11945 0.1402 0.58711 0.0
H599 H 0.15058 0.12114 0.5873 0.0
H600 H 0.05413 0.10661 0.52434 0.0
H601 H 0.12683 0.05839 0.5234 0.0
H602 H 0.08059 0.16208 0.51794 0.0
H603 H 0.08954 0.16208 0.55249 0.0
H604 H 0.05662 0.14902 0.54168 0.0
H605 H 0.17593 0.104 0.51551 0.0
H606 H 0.17207 0.07356 0.53146 0.0
H607 H 0.17487 0.10218 0.55091 0.0
C608 C 0.87013 0.20406 0.51412 0.0
C609 C 0.86293 0.20878 0.48758 0.0
C610 C 0.88821 0.18398 0.52087 0.0
C611 C 0.8996 0.16847 0.50057 0.0
C612 C 0.89433 0.17444 0.47366 0.0
C613 C 0.87587 0.19446 0.46745 0.0
C614 C 0.89354 0.17831 0.54982 0.0
C615 C 0.90714 0.15886 0.45155 0.0
C616 C 0.95459 0.12043 0.52265 0.0
C617 C 0.93832 0.09858 0.52538 0.0
C618 C 0.94268 0.14317 0.51322 0.0
C619 C 0.91365 0.14413 0.5076 0.0
C620 C 0.8973 0.12191 0.51021 0.0
C621 C 0.90999 0.09927 0.51866 0.0
C622 C 0.96102 0.16623 0.51045 0.0
C623 C 0.86605 0.12238 0.50566 0.0
H624 H 0.86045 0.21516 0.5298 0.0
H625 H 0.87077 0.19824 0.44687 0.0
H626 H 0.88392 0.15986 0.5551 0.0
H627 H 0.91632 0.17655 0.55362 0.0
H628 H 0.88479 0.19325 0.56309 0.0
H629 H 0.90187 0.16654 0.43163 0.0
H630 H 0.93023 0.15831 0.45379 0.0
H631 H 0.89974 0.13895 0.45274 0.0
H632 H 0.97656 0.11976 0.52802 0.0
H633 H 0.89741 0.08243 0.52148 0.0
H634 H 0.9596 0.17777 0.52884 0.0
H635 H 0.95431 0.17838 0.4936 0.0
H636 H 0.9833 0.16071 0.50757 0.0
H637 H 0.85587 0.13438 0.52104 0.0
H638 H 0.85679 0.10309 0.50651 0.0
H639 H 0.86107 0.13095 0.48614 0.0
C640 C 0.86616 0.83578 0.46135 0.0
C641 C 0.8542 0.82263 0.48267 0.0
C642 C 0.88132 0.85818 0.46551 0.0
C643 C 0.88473 0.86756 0.49166 0.0
C644 C 0.87301 0.85415 0.51327 0.0
C645 C 0.85792 0.83188 0.50852 0.0
C646 C 0.89247 0.87204 0.44163 0.0
C647 C 0.87579 0.8637 0.54142 0.0
C648 C 0.9416 0.91261 0.51374 0.0
C649 C 0.92667 0.93558 0.51589 0.0
C650 C 0.92871 0.89062 0.50401 0.0
C651 C 0.90009 0.89153 0.49684 0.0
C652 C 0.88548 0.91502 0.49729 0.0
C653 C 0.89902 0.93683 0.50664 0.0
C654 C 0.94534 0.86614 0.50282 0.0
C655 C 0.85511 0.91682 0.48926 0.0
H656 H 0.86307 0.82899 0.44126 0.0
H657 H 0.84869 0.82187 0.5251 0.0
H658 H 0.87569 0.88442 0.43341 0.0
H659 H 0.91053 0.88415 0.44662 0.0
H660 H 0.89873 0.85844 0.4258 0.0
H661 H 0.86511 0.85123 0.55596 0.0
H662 H 0.89821 0.86492 0.54694 0.0
H663 H 0.86673 0.88313 0.54303 0.0
H664 H 0.96316 0.91161 0.52036 0.0
H665 H 0.88747 0.95461 0.50788 0.0
H666 H 0.94 0.85507 0.4848 0.0
H667 H 0.94019 0.85431 0.52033 0.0
H668 H 0.96823 0.86968 0.50294 0.0
H669 H 0.85232 0.90908 0.46897 0.0
H670 H 0.84708 0.93669 0.48967 0.0
H671 H 0.84224 0.90518 0.50289 0.0
C672 C 0.173 0.84305 0.58688 0.0
C673 C 0.18849 0.83241 0.56592 0.0
C674 C 0.15315 0.86237 0.58225 0.0
C675 C 0.14827 0.8708 0.55598 0.0
C676 C 0.1636 0.85991 0.53474 0.0
C677 C 0.1836 0.84096 0.53998 0.0
C678 C 0.13717 0.87331 0.60547 0.0
C679 C 0.15904 0.86841 0.50643 0.0
C680 C 0.08141 0.90411 0.53445 0.0
C681 C 0.09053 0.92924 0.53161 0.0
C682 C 0.09959 0.88504 0.5438 0.0
C683 C 0.1275 0.89127 0.55035 0.0
C684 C 0.13632 0.91685 0.54896 0.0
C685 C 0.11776 0.93551 0.53952 0.0
C686 C 0.08932 0.85803 0.54542 0.0
C687 C 0.16568 0.92434 0.55659 0.0
H688 H 0.17661 0.83653 0.60699 0.0
H689 H 0.1954 0.83281 0.52365 0.0
H690 H 0.13388 0.89411 0.60336 0.0
H691 H 0.11635 0.86426 0.60631 0.0
H692 H 0.148 0.86958 0.62459 0.0
H693 H 0.17235 0.85772 0.49214 0.0
H694 H 0.13679 0.86585 0.5008 0.0
H695 H 0.16376 0.88895 0.50457 0.0
H696 H 0.06029 0.89916 0.5287 0.0
H697 H 0.12489 0.95493 0.5377 0.0
H698 H 0.0951 0.84946 0.56477 0.0
H699 H 0.09949 0.84647 0.52967 0.0
H700 H 0.06627 0.85683 0.5429 0.0
H701 H 0.17019 0.91815 0.5772 0.0
H702 H 0.16896 0.94517 0.55519 0.0
H703 H 0.181 0.91464 0.54341 0.0
C704 C 0.48735 0.22523 0.16563 0.0
C705 C 0.48205 0.21667 0.19148 0.0
C706 C 0.49221 0.20795 0.14486 0.0
C707 C 0.49139 0.18151 0.15002 0.0
C708 C 0.4844 0.17278 0.1757 0.0
C709 C 0.47999 0.19046 0.19616 0.0
C710 C 0.49977 0.218 0.11776 0.0
C711 C 0.48291 0.14474 0.18189 0.0
C712 C 0.49066 0.13586 0.0914 0.0
C713 C 0.51899 0.12886 0.08972 0.0
C714 C 0.48121 0.15282 0.11108 0.0
C715 C 0.50061 0.1631 0.12933 0.0
C716 C 0.52917 0.15595 0.12782 0.0
C717 C 0.53798 0.13887 0.10812 0.0
C718 C 0.45056 0.15984 0.11226 0.0
C719 C 0.55055 0.16655 0.14687 0.0
H720 H 0.48898 0.24544 0.16183 0.0
H721 H 0.47561 0.18369 0.21603 0.0
H722 H 0.52193 0.21319 0.11332 0.0
H723 H 0.48675 0.20891 0.10226 0.0
H724 H 0.49706 0.23895 0.11638 0.0
H725 H 0.47412 0.14112 0.20192 0.0
H726 H 0.46988 0.13483 0.16695 0.0
H727 H 0.5042 0.13625 0.18096 0.0
H728 H 0.47584 0.12817 0.07729 0.0
H729 H 0.55992 0.13362 0.10698 0.0
H730 H 0.44788 0.18061 0.10929 0.0
H731 H 0.442 0.15529 0.13214 0.0
H732 H 0.43807 0.14972 0.09701 0.0
H733 H 0.55091 0.18759 0.14538 0.0
H734 H 0.57197 0.15911 0.14296 0.0
H735 H 0.54475 0.16175 0.16756 0.0
C736 C 0.82986 0.51418 0.21367 0.0
C737 C 0.8315 0.50614 0.24012 0.0
C738 C 0.85405 0.51892 0.19887 0.0
C739 C 0.88064 0.5163 0.21103 0.0
C740 C 0.88241 0.50957 0.2382 0.0
C741 C 0.85779 0.50408 0.25233 0.0
C742 C 0.85113 0.5255 0.16981 0.0
C743 C 0.91028 0.50753 0.25213 0.0
C744 C 0.9363 0.49814 0.16123 0.0
C745 C 0.94545 0.52206 0.15271 0.0
C746 C 0.91647 0.49588 0.18153 0.0
C747 C 0.9062 0.51805 0.19428 0.0
C748 C 0.91759 0.54203 0.1877 0.0
C749 C 0.93672 0.54384 0.1666 0.0
C750 C 0.90457 0.46997 0.18744 0.0
C751 C 0.90822 0.56599 0.20169 0.0
H752 H 0.8096 0.51573 0.2041 0.0
H753 H 0.85911 0.49816 0.27289 0.0
H754 H 0.86161 0.54377 0.16556 0.0
H755 H 0.86151 0.51064 0.15755 0.0
H756 H 0.82891 0.52711 0.1635 0.0
H757 H 0.90786 0.50673 0.27403 0.0
H758 H 0.92135 0.49003 0.24556 0.0
H759 H 0.92371 0.52392 0.24698 0.0
H760 H 0.94292 0.48119 0.15063 0.0
H761 H 0.94402 0.56236 0.16034 0.0
H762 H 0.88252 0.46928 0.18057 0.0
H763 H 0.90456 0.4663 0.20909 0.0
H764 H 0.91646 0.45445 0.17747 0.0
H765 H 0.88769 0.57222 0.19365 0.0
H766 H 0.92336 0.58167 0.19883 0.0
H767 H 0.90556 0.56257 0.22327 0.0
C768 C 0.63145 0.85456 0.17068 0.0
C769 C 0.6234 0.829 0.169 0.0
C770 C 0.62232 0.87243 0.15185 0.0
C771 C 0.60445 0.8646 0.13105 0.0
C772 C 0.59766 0.83857 0.12831 0.0
C773 C 0.60736 0.82106 0.14723 0.0
C774 C 0.63038 0.89994 0.1552 0.0
C775 C 0.57853 0.82948 0.10648 0.0
C776 C 0.54977 0.91161 0.10683 0.0
C777 C 0.56043 0.91874 0.08204 0.0
C778 C 0.56412 0.89425 0.12301 0.0
C779 C 0.58997 0.8839 0.11434 0.0
C780 C 0.60128 0.89148 0.08965 0.0
C781 C 0.5863 0.90877 0.0737 0.0
C782 C 0.55126 0.88658 0.14916 0.0
C783 C 0.62894 0.88105 0.07993 0.0
H784 H 0.64411 0.86083 0.18725 0.0
H785 H 0.60108 0.80135 0.1457 0.0
H786 H 0.63716 0.90809 0.13598 0.0
H787 H 0.61194 0.91108 0.16202 0.0
H788 H 0.64747 0.90233 0.16992 0.0
H789 H 0.57778 0.80841 0.10533 0.0
H790 H 0.55703 0.83678 0.1101 0.0
H791 H 0.58539 0.83696 0.08699 0.0
H792 H 0.52982 0.91919 0.11346 0.0
H793 H 0.59473 0.91427 0.05461 0.0
H794 H 0.5659 0.8907 0.16567 0.0
H795 H 0.54739 0.86581 0.14926 0.0
H796 H 0.53116 0.89663 0.15312 0.0
H797 H 0.64543 0.88426 0.09503 0.0
H798 H 0.63556 0.88989 0.06095 0.0
H799 H 0.62739 0.86021 0.07693 0.0
C800 C 0.25687 0.58263 0.14281 0.0
C801 C 0.24266 0.5968 0.16228 0.0
C802 C 0.24214 0.56932 0.12317 0.0
C803 C 0.21255 0.56983 0.12341 0.0
C804 C 0.19816 0.5845 0.14274 0.0
C805 C 0.2134 0.598 0.16178 0.0
C806 C 0.25817 0.55431 0.10257 0.0
C807 C 0.1666 0.58501 0.14419 0.0
C808 C 0.16468 0.55501 0.06603 0.0
C809 C 0.15381 0.53149 0.07391 0.0
C810 C 0.18609 0.56665 0.08057 0.0
C811 C 0.19622 0.55481 0.10389 0.0
C812 C 0.18712 0.53009 0.11056 0.0
C813 C 0.16618 0.51858 0.09529 0.0
C814 C 0.19588 0.59266 0.07233 0.0
C815 C 0.19753 0.51675 0.1352 0.0
H816 H 0.27954 0.58174 0.1431 0.0
H817 H 0.20232 0.60863 0.17699 0.0
H818 H 0.25392 0.53374 0.105 0.0
H819 H 0.25113 0.55973 0.08236 0.0
H820 H 0.2811 0.55731 0.10402 0.0
H821 H 0.15866 0.60022 0.15759 0.0
H822 H 0.15737 0.58784 0.12425 0.0
H823 H 0.15912 0.56645 0.1517 0.0
H824 H 0.15539 0.56501 0.04936 0.0
H825 H 0.15792 0.5004 0.1015 0.0
H826 H 0.21844 0.59527 0.07662 0.0
H827 H 0.18404 0.6073 0.08366 0.0
H828 H 0.19237 0.59592 0.05083 0.0
H829 H 0.22058 0.51829 0.13695 0.0
H830 H 0.19181 0.49632 0.13538 0.0
H831 H 0.18819 0.52598 0.15296 0.0
C832 C 0.55515 0.84351 0.84848 0.0
C833 C 0.54065 0.84591 0.82437 0.0
C834 C 0.55148 0.86145 0.86889 0.0
C835 C 0.53341 0.88255 0.86482 0.0
C836 C 0.51957 0.88556 0.84019 0.0
C837 C 0.52322 0.86715 0.82036 0.0
C838 C 0.5667 0.85763 0.89486 0.0
C839 C 0.49995 0.90768 0.83514 0.0
C840 C 0.49724 0.91263 0.92394 0.0
C841 C 0.51253 0.93502 0.92745 0.0
C842 C 0.50421 0.89523 0.90395 0.0
C843 C 0.52701 0.90035 0.88694 0.0
C844 C 0.54277 0.92278 0.89052 0.0
C845 C 0.53519 0.94 0.91067 0.0
C846 C 0.48727 0.87124 0.90113 0.0
C847 C 0.56722 0.92879 0.87274 0.0
H848 H 0.56884 0.82728 0.85167 0.0
H849 H 0.51211 0.86931 0.80174 0.0
H850 H 0.58419 0.8713 0.89617 0.0
H851 H 0.55267 0.86126 0.912 0.0
H852 H 0.57534 0.83807 0.8967 0.0
H853 H 0.49346 0.9089 0.81401 0.0
H854 H 0.48092 0.90551 0.84748 0.0
H855 H 0.50989 0.92586 0.84089 0.0
H856 H 0.47975 0.90862 0.93693 0.0
H857 H 0.54664 0.95755 0.91294 0.0
H858 H 0.50087 0.85444 0.90492 0.0
H859 H 0.47915 0.86947 0.8806 0.0
H860 H 0.46932 0.87072 0.91511 0.0
H861 H 0.58221 0.91259 0.87244 0.0
H862 H 0.57843 0.94616 0.87919 0.0
H863 H 0.55974 0.93164 0.85211 0.0
C864 C 0.19189 0.57597 0.79284 0.0
C865 C 0.21473 0.56153 0.80193 0.0
C866 C 0.16539 0.57376 0.80474 0.0
C867 C 0.16204 0.55745 0.82684 0.0
C868 C 0.18511 0.54281 0.83599 0.0
C869 C 0.21102 0.54471 0.82313 0.0
C870 C 0.14108 0.58894 0.79381 0.0
C871 C 0.18269 0.52565 0.85989 0.0
C872 C 0.10726 0.56872 0.8799 0.0
C873 C 0.09015 0.54739 0.87661 0.0
C874 C 0.12987 0.57316 0.86281 0.0
C875 C 0.13496 0.5563 0.8414 0.0
C876 C 0.11601 0.53629 0.83637 0.0
C877 C 0.09405 0.53183 0.85427 0.0
C878 C 0.14975 0.59448 0.86923 0.0
C879 C 0.12001 0.51853 0.81312 0.0
H880 H 0.19469 0.58882 0.77627 0.0
H881 H 0.22871 0.53367 0.8303 0.0
H882 H 0.12308 0.57627 0.78994 0.0
H883 H 0.13413 0.60327 0.8086 0.0
H884 H 0.14655 0.59894 0.77514 0.0
H885 H 0.20276 0.51594 0.86474 0.0
H886 H 0.1759 0.53691 0.87741 0.0
H887 H 0.16659 0.51098 0.85629 0.0
H888 H 0.10441 0.5809 0.89708 0.0
H889 H 0.08068 0.5155 0.85138 0.0
H890 H 0.15457 0.6057 0.85123 0.0
H891 H 0.16977 0.58631 0.87661 0.0
H892 H 0.14122 0.60752 0.88463 0.0
H893 H 0.12562 0.5293 0.79499 0.0
H894 H 0.10091 0.50727 0.80905 0.0
H895 H 0.13745 0.50513 0.81741 0.0
C896 C 0.4494 0.19236 0.85395 0.0
C897 C 0.44679 0.18358 0.82776 0.0
C898 C 0.4589 0.17617 0.87424 0.0
C899 C 0.46616 0.15068 0.86814 0.0
C900 C 0.46211 0.14134 0.84211 0.0
C901 C 0.45239 0.15786 0.82226 0.0
C902 C 0.46277 0.18684 0.90179 0.0
C903 C 0.46952 0.11425 0.83484 0.0
C904 C 0.52422 0.12029 0.90862 0.0
C905 C 0.50942 0.10412 0.92557 0.0
C906 C 0.51037 0.13538 0.8898 0.0
C907 C 0.48084 0.13463 0.88812 0.0
C908 C 0.46567 0.1184 0.90515 0.0
C909 C 0.48022 0.10299 0.92335 0.0
C910 C 0.52739 0.15214 0.87173 0.0
C911 C 0.43413 0.11745 0.90429 0.0
H912 H 0.44497 0.21212 0.8585 0.0
H913 H 0.45026 0.15079 0.80216 0.0
H914 H 0.45649 0.17288 0.9171 0.0
H915 H 0.48523 0.19111 0.90495 0.0
H916 H 0.45054 0.20467 0.90475 0.0
H917 H 0.46275 0.10929 0.81441 0.0
H918 H 0.49252 0.11146 0.83622 0.0
H919 H 0.45974 0.10082 0.84896 0.0
H920 H 0.54676 0.1212 0.91005 0.0
H921 H 0.4687 0.09006 0.93573 0.0
H922 H 0.52087 0.17229 0.87421 0.0
H923 H 0.52356 0.14688 0.85072 0.0
H924 H 0.55019 0.15061 0.87568 0.0
H925 H 0.42527 0.13668 0.90807 0.0
H926 H 0.42545 0.10411 0.91919 0.0
H927 H 0.42706 0.11151 0.88427 0.0
C928 C 0.82141 0.57825 0.84304 0.0
C929 C 0.79373 0.57225 0.83664 0.0
C930 C 0.83429 0.56819 0.86569 0.0
C931 C 0.81891 0.55209 0.88272 0.0
C932 C 0.7905 0.54689 0.87706 0.0
C933 C 0.77825 0.55692 0.85389 0.0
C934 C 0.86472 0.57413 0.87083 0.0
C935 C 0.77323 0.53047 0.89521 0.0
C936 C 0.86815 0.50869 0.92003 0.0
C937 C 0.87436 0.52373 0.94222 0.0
C938 C 0.8481 0.51662 0.90142 0.0
C939 C 0.83353 0.53985 0.90546 0.0
C940 C 0.83735 0.5535 0.92938 0.0
C941 C 0.85798 0.54543 0.94739 0.0
C942 C 0.84487 0.50156 0.8761 0.0
C943 C 0.82152 0.57788 0.93487 0.0
H944 H 0.83343 0.5901 0.82972 0.0
H945 H 0.75658 0.5529 0.84941 0.0
H946 H 0.86711 0.58318 0.89058 0.0
H947 H 0.87722 0.55626 0.871 0.0
H948 H 0.87362 0.58702 0.85563 0.0
H949 H 0.75084 0.53018 0.88932 0.0
H950 H 0.78144 0.5107 0.89491 0.0
H951 H 0.7748 0.5374 0.91595 0.0
H952 H 0.88063 0.49184 0.91593 0.0
H953 H 0.86237 0.55695 0.96473 0.0
H954 H 0.8553 0.5118 0.85964 0.0
H955 H 0.8225 0.49959 0.87074 0.0
H956 H 0.85439 0.48228 0.87767 0.0
H957 H 0.83075 0.59351 0.92308 0.0
H958 H 0.82248 0.58324 0.95618 0.0
H959 H 0.79927 0.57615 0.9289 0.0
C960 C 0.70091 0.69169 0.93986 0.0
C961 C 0.70557 0.71692 0.94745 0.0
C962 C 0.67871 0.67785 0.95055 0.0
C963 C 0.66035 0.6897 0.96892 0.0
C964 C 0.66449 0.71539 0.97619 0.0
C965 C 0.6873 0.72865 0.96557 0.0
C966 C 0.67521 0.65037 0.94252 0.0
C967 C 0.64492 0.72878 0.99519 0.0
C968 C 0.5932 0.65272 0.97495 0.0
C969 C 0.59941 0.63686 0.99656 0.0
C970 C 0.61188 0.6717 0.96703 0.0
C971 C 0.63742 0.67463 0.98085 0.0
C972 C 0.64262 0.66021 0.00405 0.0
C973 C 0.62342 0.64162 0.01175 0.0
C974 C 0.6052 0.68721 0.94264 0.0
C975 C 0.6696 0.66274 0.01939 0.0
H976 H 0.71505 0.68251 0.92595 0.0
H977 H 0.6907 0.74825 0.9713 0.0
H978 H 0.67626 0.638 0.96032 0.0
H979 H 0.65437 0.64764 0.93329 0.0
H980 H 0.69149 0.64395 0.92823 0.0
H981 H 0.65022 0.74916 0.99777 0.0
H982 H 0.62306 0.72744 0.98793 0.0
H983 H 0.6457 0.71939 0.01487 0.0
H984 H 0.57447 0.64947 0.96332 0.0
H985 H 0.62823 0.62972 0.02872 0.0
H986 H 0.61724 0.67961 0.92553 0.0
H987 H 0.61124 0.70735 0.94543 0.0
H988 H 0.58261 0.68647 0.93767 0.0
H989 H 0.68698 0.65428 0.00765 0.0
H990 H 0.66871 0.65291 0.03887 0.0
H991 H 0.67465 0.68301 0.02281 0.0
C992 C 0.29129 0.67651 0.08131 0.0
C993 C 0.29988 0.70194 0.08307 0.0
C994 C 0.31046 0.65694 0.07552 0.0
C995 C 0.339 0.66289 0.07174 0.0
C996 C 0.34805 0.6883 0.0749 0.0
C997 C 0.32835 0.70756 0.0803 0.0
C998 C 0.29993 0.63012 0.07217 0.0
C999 C 0.37843 0.6953 0.0716 0.0
C1000 C 0.39495 0.61105 0.07152 0.0
C1001 C 0.40072 0.60877 0.04429 0.0
C1002 C 0.37442 0.62816 0.08081 0.0
C1003 C 0.35905 0.64303 0.06241 0.0
C1004 C 0.3637 0.63979 0.03489 0.0
C1005 C 0.3845 0.6228 0.02618 0.0
C1006 C 0.37002 0.63119 0.1103 0.0
C1007 C 0.34738 0.65495 0.0146 0.0
H1008 H 0.26932 0.67195 0.08338 0.0
H1009 H 0.33519 0.72711 0.08184 0.0
H1010 H 0.30204 0.62431 0.05109 0.0
H1011 H 0.31266 0.61666 0.08413 0.0
H1012 H 0.27764 0.62826 0.07806 0.0
H1013 H 0.38244 0.71542 0.07705 0.0
H1014 H 0.39186 0.68282 0.08405 0.0
H1015 H 0.38482 0.69237 0.05065 0.0
H1016 H 0.40706 0.60006 0.08565 0.0
H1017 H 0.38852 0.62105 0.0051 0.0
H1018 H 0.34747 0.63019 0.1153 0.0
H1019 H 0.37753 0.65015 0.11668 0.0
H1020 H 0.3814 0.61649 0.12184 0.0
H1021 H 0.32459 0.65289 0.01805 0.0
H1022 H 0.35216 0.64893 0.99394 0.0
H1023 H 0.35237 0.67542 0.01663 0.0
C1024 C 0.33791 0.31456 0.02088 0.0
C1025 C 0.31615 0.32468 0.00541 0.0
C1026 C 0.36303 0.32789 0.02428 0.0
C1027 C 0.36592 0.35222 0.01267 0.0
C1028 C 0.34379 0.36259 0.9973 0.0
C1029 C 0.31935 0.34849 0.9935 0.0
C1030 C 0.38651 0.31588 0.04003 0.0
C1031 C 0.34576 0.38875 0.98513 0.0
C1032 C 0.41527 0.40177 0.03986 0.0
C1033 C 0.43494 0.40337 0.0193 0.0
C1034 C 0.39344 0.38415 0.03873 0.0
C1035 C 0.3917 0.36732 0.01685 0.0
C1036 C 0.413 0.36729 0.99732 0.0
C1037 C 0.4342 0.38555 0.9986 0.0
C1038 C 0.37096 0.38508 0.05976 0.0
C1039 C 0.41244 0.34909 0.97415 0.0
H1040 H 0.33553 0.29596 0.02981 0.0
H1041 H 0.30245 0.35634 0.98164 0.0
H1042 H 0.40574 0.31483 0.02772 0.0
H1043 H 0.39142 0.32777 0.05758 0.0
H1044 H 0.3813 0.29643 0.04692 0.0
H1045 H 0.3263 0.39437 0.97451 0.0
H1046 H 0.35 0.40305 0.0008 0.0
H1047 H 0.36342 0.38933 0.97089 0.0
H1048 H 0.41573 0.41546 0.05594 0.0
H1049 H 0.44958 0.38649 0.98283 0.0
H1050 H 0.36631 0.36573 0.06715 0.0
H1051 H 0.35138 0.39286 0.05101 0.0
H1052 H 0.37694 0.39721 0.07688 0.0
H1053 H 0.40745 0.32958 0.98094 0.0
H1054 H 0.43271 0.34858 0.96336 0.0
H1055 H 0.39585 0.35503 0.96001 0.0
C1056 C 0.73352 0.32838 0.00815 0.0
C1057 C 0.75821 0.33426 0.99448 0.0
C1058 C 0.71185 0.34639 0.01082 0.0
C1059 C 0.715 0.37094 -0.00025 0.0
C1060 C 0.74023 0.37727 0.98674 0.0
C1061 C 0.76146 0.35883 0.98415 0.0
C1062 C 0.68517 0.33885 0.02467 0.0
C1063 C 0.74449 0.40328 0.97484 0.0
C1064 C 0.64882 0.40539 0.97829 0.0
C1065 C 0.6441 0.4223 0.99942 0.0
C1066 C 0.67186 0.38878 0.97817 0.0
C1067 C 0.69097 0.38914 -0.00039 0.0
C1068 C 0.68679 0.40652 0.02077 0.0
C1069 C 0.66333 0.42286 0.02049 0.0
C1070 C 0.67545 0.37047 0.95527 0.0
C1071 C 0.70687 0.40763 0.04385 0.0
H1072 H 0.73084 0.30949 0.01628 0.0
H1073 H 0.78056 0.36366 0.97379 0.0
H1074 H 0.67982 0.35282 0.04039 0.0
H1075 H 0.66764 0.33888 0.01022 0.0
H1076 H 0.68672 0.31966 0.03376 0.0
H1077 H 0.76617 0.40591 0.96745 0.0
H1078 H 0.7298 0.40612 0.95803 0.0
H1079 H 0.73983 0.41826 0.98974 0.0
H1080 H 0.63415 0.40471 0.96189 0.0
H1081 H 0.6599 0.43582 0.03691 0.0
H1082 H 0.67508 0.35062 0.96268 0.0
H1083 H 0.69604 0.37336 0.94564 0.0
H1084 H 0.65881 0.37273 0.94004 0.0
H1085 H 0.70728 0.38908 0.05429 0.0
H1086 H 0.70113 0.42273 0.05834 0.0
H1087 H 0.72839 0.41118 0.03657 0.0
C1088 C 0.00141 0.67524 0.67444 0.0
C1089 C 0.02411 0.68358 0.68976 0.0
C1090 C 0.00512 0.65677 0.65457 0.0
C1091 C 0.03209 0.64634 0.65013 0.0
C1092 C 0.05512 0.65499 0.66522 0.0
C1093 C 0.05086 0.67355 0.68475 0.0
C1094 C 0.98017 0.64808 0.63867 0.0
C1095 C 0.08415 0.64401 0.6614 0.0
C1096 C 0.04231 0.58063 0.62071 0.0
C1097 C 0.05277 0.58663 0.59564 0.0
C1098 C 0.03449 0.59998 0.63844 0.0
C1099 C 0.03643 0.62572 0.6304 0.0
C1100 C 0.04547 0.63167 0.60441 0.0
C1101 C 0.05399 0.61197 0.58743 0.0
C1102 C 0.02583 0.59302 0.66628 0.0
C1103 C 0.04733 0.65883 0.59499 0.0
H1104 H 0.98068 0.68293 0.67816 0.0
H1105 H 0.06851 0.67977 0.69653 0.0
H1106 H 0.98455 0.64978 0.61713 0.0
H1107 H 0.97607 0.62773 0.64277 0.0
H1108 H 0.96097 0.65923 0.64338 0.0
H1109 H 0.10024 0.65463 0.67269 0.0
H1110 H 0.08451 0.62392 0.66811 0.0
H1111 H 0.08995 0.64407 0.64012 0.0
H1112 H 0.04172 0.56091 0.62693 0.0
H1113 H 0.06217 0.61637 0.56792 0.0
H1114 H 0.04107 0.6008 0.68071 0.0
H1115 H 0.02469 0.57213 0.66921 0.0
H1116 H 0.00519 0.60165 0.67093 0.0
H1117 H 0.02667 0.66838 0.5971 0.0
H1118 H 0.05409 0.66014 0.57395 0.0
H1119 H 0.06237 0.66946 0.60747 0.0
C1120 C 0.37619 0.941 0.69923 0.0
C1121 C 0.36879 0.95042 0.7242 0.0
C1122 C 0.39573 0.95377 0.68348 0.0
C1123 C 0.40892 0.97586 0.69352 0.0
C1124 C 0.40135 0.98548 0.71874 0.0
C1125 C 0.38101 0.9728 0.73366 0.0
C1126 C 0.40259 0.94337 0.65628 0.0
C1127 C 0.41559 0.00842 0.73047 0.0
C1128 C 0.47788 0.98521 0.65867 0.0
C1129 C 0.47022 0.00263 0.63893 0.0
C1130 C 0.45879 0.97808 0.67835 0.0
C1131 C 0.43123 0.98814 0.67772 0.0
C1132 C 0.42426 0.00752 0.65937 0.0
C1133 C 0.44406 0.01485 0.64042 0.0
C1134 C 0.4674 0.95814 0.69832 0.0
C1135 C 0.39503 0.01854 0.65782 0.0
H1136 H 0.36666 0.92366 0.69205 0.0
H1137 H 0.37554 0.97975 0.75326 0.0
H1138 H 0.40043 0.95857 0.64115 0.0
H1139 H 0.42462 0.93659 0.6558 0.0
H1140 H 0.38884 0.92731 0.65061 0.0
H1141 H 0.40571 0.01467 0.74935 0.0
H1142 H 0.43789 0.00376 0.7344 0.0
H1143 H 0.41518 0.02452 0.7163 0.0
H1144 H 0.49818 0.97595 0.65772 0.0
H1145 H 0.43798 0.02837 0.62521 0.0
H1146 H 0.45817 0.93961 0.6927 0.0
H1147 H 0.45952 0.96313 0.71837 0.0
H1148 H 0.4905 0.95575 0.69925 0.0
H1149 H 0.3808 0.00416 0.64918 0.0
H1150 H 0.39413 0.03586 0.64524 0.0
H1151 H 0.38699 0.02338 0.67783 0.0
C1152 C 0.01829 0.3276 0.65734 0.0
C1153 C 0.03431 0.32492 0.68054 0.0
C1154 C 0.02529 0.34565 0.638 0.0
C1155 C 0.04869 0.36149 0.6421 0.0
C1156 C 0.06554 0.35821 0.66494 0.0
C1157 C 0.05821 0.3399 0.68383 0.0
C1158 C 0.00718 0.34831 0.6136 0.0
C1159 C 0.09068 0.37476 0.66999 0.0
C1160 C 0.08087 0.40127 0.58736 0.0
C1161 C 0.06953 0.42536 0.593 0.0
C1162 C 0.07334 0.37994 0.60241 0.0
C1163 C 0.05433 0.38292 0.62375 0.0
C1164 C 0.04204 0.40699 0.62884 0.0
C1165 C 0.0497 0.42788 0.61333 0.0
C1166 C 0.08668 0.35454 0.59613 0.0
C1167 C 0.02163 0.41094 0.65139 0.0
H1168 H -6e-05 0.31593 0.65449 0.0
H1169 H 0.07079 0.33792 0.70162 0.0
H1170 H 0.99624 0.36698 0.61393 0.0
H1171 H 0.02031 0.34778 0.59545 0.0
H1172 H 0.99126 0.3331 0.61223 0.0
H1173 H 0.10243 0.36891 0.68802 0.0
H1174 H 0.10507 0.37403 0.65274 0.0
H1175 H 0.08381 0.39482 0.67245 0.0
H1176 H 0.0961 0.39913 0.57157 0.0
H1177 H 0.04068 0.44638 0.61771 0.0
H1178 H 0.07141 0.33889 0.59818 0.0
H1179 H 0.104 0.35087 0.61031 0.0
H1180 H 0.09543 0.35407 0.57572 0.0
H1181 H 0.00413 0.39731 0.64979 0.0
H1182 H 0.01282 0.43054 0.6518 0.0
H1183 H 0.03232 0.40727 0.67058 0.0
C1184 C 0.68648 0.1 0.69916 0.0
C1185 C 0.7033 0.1215 0.7016 0.0
C1186 C 0.67984 0.09008 0.67414 0.0
C1187 C 0.69131 0.10133 0.65107 0.0
C1188 C 0.7099 0.12205 0.65362 0.0
C1189 C 0.71511 0.13235 0.67889 0.0
C1190 C 0.65931 0.06844 0.67238 0.0
C1191 C 0.72367 0.13371 0.62966 0.0
C1192 C 0.67859 0.0601 0.59048 0.0
C1193 C 0.65424 0.0714 0.58016 0.0
C1194 C 0.69262 0.071 0.61221 0.0
C1195 C 0.68127 0.09302 0.62448 0.0
C1196 C 0.65771 0.10529 0.61309 0.0
C1197 C 0.64483 0.09458 0.59081 0.0
C1198 C 0.71861 0.05816 0.6229 0.0
C1199 C 0.64443 0.12844 0.62581 0.0
H1200 H 0.67735 0.09173 0.71683 0.0
H1201 H 0.72841 0.14883 0.68093 0.0
H1202 H 0.64057 0.07461 0.66101 0.0
H1203 H 0.66881 0.05215 0.66162 0.0
H1204 H 0.65245 0.06179 0.69223 0.0
H1205 H 0.74115 0.14642 0.63531 0.0
H1206 H 0.73184 0.11865 0.61623 0.0
H1207 H 0.70809 0.14501 0.61831 0.0
H1208 H 0.68611 0.0423 0.58217 0.0
H1209 H 0.62591 0.10335 0.5831 0.0
H1210 H 0.71336 0.04737 0.64109 0.0
H1211 H 0.73457 0.07245 0.62838 0.0
H1212 H 0.72786 0.0447 0.60828 0.0
H1213 H 0.63563 0.12314 0.64541 0.0
H1214 H 0.62734 0.13666 0.61349 0.0
H1215 H 0.66025 0.14335 0.62931 0.0
C1216 C 0.0721 0.31642 0.38766 0.0
C1217 C 0.06065 0.3199 0.36224 0.0
C1218 C 0.06868 0.33495 0.40753 0.0
C1219 C 0.05368 0.35758 0.40173 0.0
C1220 C 0.04205 0.36116 0.37615 0.0
C1221 C 0.04565 0.3423 0.35678 0.0
C1222 C 0.08173 0.33044 0.4344 0.0
C1223 C 0.02578 0.38498 0.36918 0.0
C1224 C 0.01868 0.39961 0.45303 0.0
C1225 C 0.03606 0.42098 0.45271 0.0
C1226 C 0.0252 0.37798 0.43788 0.0
C1227 C 0.0497 0.37772 0.42213 0.0
C1228 C 0.06844 0.39838 0.42342 0.0
C1229 C 0.06128 0.41988 0.43853 0.0
C1230 C 0.00507 0.35601 0.43756 0.0
C1231 C 0.09525 0.39842 0.40763 0.0
H1232 H 0.08387 0.29924 0.39207 0.0
H1233 H 0.03669 0.34522 0.33725 0.0
H1234 H 0.10207 0.3404 0.43527 0.0
H1235 H 0.06837 0.33798 0.45064 0.0
H1236 H 0.08575 0.3099 0.43799 0.0
H1237 H 0.01808 0.38481 0.34838 0.0
H1238 H 0.00755 0.38713 0.38264 0.0
H1239 H 0.03917 0.40191 0.37196 0.0
H1240 H 0.99933 0.40014 0.46424 0.0
H1241 H 0.07491 0.43623 0.43827 0.0
H1242 H 0.0165 0.33782 0.44072 0.0
H1243 H 0.99478 0.35492 0.41785 0.0
H1244 H 0.9886 0.35796 0.45299 0.0
H1245 H 0.107 0.38042 0.41085 0.0
H1246 H 0.10893 0.4146 0.41305 0.0
H1247 H 0.09029 0.39968 0.38616 0.0
C1248 C 0.64857 0.09922 0.2517 0.0
C1249 C 0.67386 0.10768 0.26263 0.0
C1250 C 0.63048 0.08365 0.26632 0.0
C1251 C 0.63765 0.0769 0.29263 0.0
C1252 C 0.66379 0.08434 0.30322 0.0
C1253 C 0.68184 0.09908 0.2878 0.0
C1254 C 0.60322 0.07537 0.25405 0.0
C1255 C 0.6723 0.07758 0.33124 0.0
C1256 C 0.5836 0.06834 0.3463 0.0
C1257 C 0.58722 0.04257 0.35266 0.0
C1258 C 0.59848 0.07945 0.32544 0.0
C1259 C 0.617 0.06429 0.31018 0.0
C1260 C 0.61827 0.03771 0.31446 0.0
C1261 C 0.6035 0.02715 0.33583 0.0
C1262 C 0.59647 0.1079 0.32169 0.0
C1263 C 0.63684 0.02072 0.29783 0.0
H1264 H 0.64258 0.10526 0.23192 0.0
H1265 H 0.70224 0.10374 0.29548 0.0
H1266 H 0.59981 0.05481 0.25757 0.0
H1267 H 0.58561 0.08585 0.26349 0.0
H1268 H 0.60259 0.07903 0.23235 0.0
H1269 H 0.69364 0.08431 0.33621 0.0
H1270 H 0.65728 0.08623 0.34548 0.0
H1271 H 0.67168 0.0567 0.33409 0.0
H1272 H 0.57062 0.08031 0.35878 0.0
H1273 H 0.60613 0.00711 0.34025 0.0
H1274 H 0.59768 0.11327 0.30048 0.0
H1275 H 0.6142 0.11702 0.33216 0.0
H1276 H 0.5767 0.11574 0.3299 0.0
H1277 H 0.63601 0.02633 0.27663 0.0
H1278 H 0.63082 0.00043 0.29957 0.0
H1279 H 0.65883 0.02256 0.30457 0.0
C1280 C 0.04738 0.6912 0.3525 0.0
C1281 C 0.02208 0.69862 0.34061 0.0
C1282 C 0.04807 0.67195 0.3718 0.0
C1283 C 0.02297 0.65954 0.37883 0.0
C1284 C 0.99739 0.66705 0.36688 0.0
C1285 C 0.99724 0.68668 0.34815 0.0
C1286 C 0.07563 0.66465 0.38443 0.0
C1287 C 0.9703 0.65355 0.37269 0.0
C1288 C 0.02333 0.59259 0.40638 0.0
C1289 C 0.01556 0.59708 0.43268 0.0
C1290 C 0.02699 0.6129 0.38876 0.0
C1291 C 0.0233 0.63815 0.39801 0.0
C1292 C 0.01693 0.64267 0.42507 0.0
C1293 C 0.01273 0.62197 0.44207 0.0
C1294 C 0.03288 0.60728 0.35992 0.0
C1295 C 0.01298 0.66931 0.43565 0.0
H1296 H 0.06663 0.70044 0.3467 0.0
H1297 H 0.97771 0.69203 0.33866 0.0
H1298 H 0.07418 0.66684 0.40629 0.0
H1299 H 0.08049 0.64437 0.38035 0.0
H1300 H 0.09321 0.6764 0.37707 0.0
H1301 H 0.95178 0.6653 0.36717 0.0
H1302 H 0.96966 0.63567 0.36102 0.0
H1303 H 0.9686 0.64837 0.39391 0.0
H1304 H 0.02514 0.57317 0.39928 0.0
H1305 H 0.00646 0.62519 0.46249 0.0
H1306 H 0.01409 0.61207 0.34793 0.0
H1307 H 0.03824 0.58695 0.35652 0.0
H1308 H 0.05026 0.61918 0.35256 0.0
H1309 H 0.0314 0.68107 0.43063 0.0
H1310 H 0.00992 0.66962 0.4575 0.0
H1311 H 0.99445 0.67828 0.42613 0.0
C1312 C 0.29132 0.01056 0.33794 0.0
C1313 C 0.30167 0.023 0.31544 0.0
C1314 C 0.30823 0.00689 0.36046 0.0
C1315 C 0.33617 0.01563 0.36026 0.0
C1316 C 0.34647 0.02867 0.33774 0.0
C1317 C 0.32899 0.0324 0.31573 0.0
C1318 C 0.29633 0.99347 0.38433 0.0
C1319 C 0.37623 0.03806 0.33658 0.0
C1320 C 0.38181 0.0247 0.42112 0.0
C1321 C 0.39939 0.00325 0.41956 0.0
C1322 C 0.35974 0.02821 0.40303 0.0
C1323 C 0.35541 0.00999 0.38275 0.0
C1324 C 0.37184 0.98751 0.38224 0.0
C1325 C 0.39347 0.98433 0.40076 0.0
C1326 C 0.34226 0.05218 0.40462 0.0
C1327 C 0.368 0.96764 0.36091 0.0
H1328 H 0.26989 0.00403 0.3381 0.0
H1329 H 0.33697 0.04211 0.29837 0.0
H1330 H 0.30785 0.97538 0.38774 0.0
H1331 H 0.29905 0.00534 0.40234 0.0
H1332 H 0.27375 0.98916 0.38191 0.0
H1333 H 0.38081 0.04826 0.31781 0.0
H1334 H 0.38036 0.05106 0.35345 0.0
H1335 H 0.39097 0.02175 0.3384 0.0
H1336 H 0.38602 0.03934 0.4357 0.0
H1337 H 0.40675 0.96758 0.39945 0.0
H1338 H 0.31975 0.04783 0.40199 0.0
H1339 H 0.34837 0.06525 0.3884 0.0
H1340 H 0.34508 0.06221 0.42383 0.0
H1341 H 0.34568 0.96228 0.35925 0.0
H1342 H 0.38059 0.95019 0.36477 0.0
H1343 H 0.37442 0.97557 0.34147 0.0
C1344 C 0.07661 0.17448 0.39025 0.0
C1345 C 0.06295 0.17892 0.36602 0.0
C1346 C 0.06692 0.15592 0.40798 0.0
C1347 C 0.04341 0.14113 0.40103 0.0
C1348 C 0.0303 0.14483 0.37611 0.0
C1349 C 0.04003 0.16387 0.35904 0.0
C1350 C 0.08129 0.15265 0.43444 0.0
C1351 C 0.00556 0.12905 0.36771 0.0
C1352 C 0.02585 0.07948 0.43642 0.0
C1353 C 0.00289 0.08703 0.45183 0.0
C1354 C 0.04017 0.09709 0.42057 0.0
C1355 C 0.03129 0.12284 0.42031 0.0
C1356 C 0.00908 0.13079 0.43702 0.0
C1357 C 0.995 0.11275 0.45238 0.0
C1358 C 0.06353 0.0877 0.40289 0.0
C1359 C 0.99938 0.15816 0.43784 0.0
H1360 H 0.09428 0.18613 0.39579 0.0
H1361 H 0.02954 0.16709 0.34025 0.0
H1362 H 0.06636 0.15698 0.45072 0.0
H1363 H 0.08825 0.13263 0.437 0.0
H1364 H 0.09972 0.16523 0.43655 0.0
H1365 H 0.99898 0.13307 0.34698 0.0
H1366 H 0.01073 0.10852 0.36943 0.0
H1367 H 0.98757 0.13295 0.38106 0.0
H1368 H 0.03167 0.05964 0.43559 0.0
H1369 H 0.97734 0.11871 0.46444 0.0
H1370 H 0.08075 0.10167 0.40172 0.0
H1371 H 0.05529 0.08489 0.38252 0.0
H1372 H 0.07226 0.06931 0.40997 0.0
H1373 H 0.01744 0.17097 0.44083 0.0
H1374 H 0.98393 0.16169 0.45388 0.0
H1375 H 0.98953 0.16329 0.41862 0.0
C1376 C 0.78841 0.09187 0.35514 0.0
C1377 C 0.76358 0.10556 0.35954 0.0
C1378 C 0.80342 0.08111 0.3762 0.0
C1379 C 0.79323 0.0838 0.40244 0.0
C1380 C 0.76779 0.09706 0.40708 0.0
C1381 C 0.75335 0.10801 0.38554 0.0
C1382 C 0.8306 0.06733 0.37034 0.0
C1383 C 0.75604 0.10031 0.43467 0.0
C1384 C 0.82982 0.03636 0.44698 0.0
C1385 C 0.85254 0.05074 0.45595 0.0
C1386 C 0.80854 0.04755 0.43162 0.0
C1387 C 0.81038 0.07355 0.42467 0.0
C1388 C 0.83195 0.0886 0.43554 0.0
C1389 C 0.85271 0.07704 0.45117 0.0
C1390 C 0.78524 0.03115 0.42116 0.0
C1391 C 0.83437 0.11646 0.4288 0.0
H1392 H 0.79649 0.08987 0.33515 0.0
H1393 H 0.73409 0.11848 0.3891 0.0
H1394 H 0.8481 0.07688 0.38073 0.0
H1395 H 0.82967 0.04753 0.37781 0.0
H1396 H 0.83544 0.06673 0.34879 0.0
H1397 H 0.73301 0.10323 0.43417 0.0
H1398 H 0.7608 0.08364 0.44742 0.0
H1399 H 0.76548 0.11731 0.44402 0.0
H1400 H 0.82932 0.01612 0.45092 0.0
H1401 H 0.87017 0.08834 0.45797 0.0
H1402 H 0.78869 0.02735 0.39974 0.0
H1403 H 0.7648 0.04113 0.42314 0.0
H1404 H 0.78415 0.01265 0.4317 0.0
H1405 H 0.81464 0.12655 0.4339 0.0
H1406 H 0.83775 0.11872 0.40714 0.0
H1407 H 0.85191 0.12572 0.43937 0.0
C1408 C 0.95583 0.84215 0.33439 0.0
C1409 C 0.98308 0.83279 0.33056 0.0
C1410 C 0.95067 0.86332 0.35069 0.0
C1411 C 0.97329 0.87554 0.36347 0.0
C1412 C 0.00088 0.86613 0.35977 0.0
C1413 C 0.00541 0.84488 0.34337 0.0
C1414 C 0.92093 0.87255 0.35438 0.0
C1415 C 0.02581 0.87766 0.37351 0.0
C1416 C 0.95871 0.94369 0.38457 0.0
C1417 C 0.95114 0.94059 0.41124 0.0
C1418 C 0.96692 0.92277 0.36903 0.0
C1419 C 0.9677 0.89821 0.38045 0.0
C1420 C 0.96176 0.89522 0.40777 0.0
C1421 C 0.95326 0.91642 0.42281 0.0
C1422 C 0.97462 0.92686 0.34032 0.0
C1423 C 0.96446 0.86961 0.421 0.0
H1424 H 0.93842 0.83287 0.32469 0.0
H1425 H 0.02653 0.83763 0.34083 0.0
H1426 H 0.91537 0.87222 0.37575 0.0
H1427 H 0.91895 0.89253 0.34754 0.0
H1428 H 0.90563 0.8608 0.34331 0.0
H1429 H 0.04394 0.87839 0.35976 0.0
H1430 H 0.02166 0.89703 0.3813 0.0
H1431 H 0.03197 0.8653 0.3904 0.0
H1432 H 0.95766 0.96241 0.37566 0.0
H1433 H 0.9485 0.91414 0.4437 0.0
H1434 H 0.95991 0.91639 0.32733 0.0
H1435 H 0.99593 0.91915 0.33651 0.0
H1436 H 0.97414 0.94728 0.33471 0.0
H1437 H 0.94945 0.85612 0.41199 0.0
H1438 H 0.96061 0.87067 0.44268 0.0
H1439 H 0.98579 0.86174 0.41772 0.0
C1440 C 0.16808 0.95276 0.34862 0.0
C1441 C 0.16921 0.96019 0.32196 0.0
C1442 C 0.14349 0.95585 0.36339 0.0
C1443 C 0.1195 0.96658 0.35117 0.0
C1444 C 0.11966 0.97173 0.32366 0.0
C1445 C 0.14462 0.96856 0.30933 0.0
C1446 C 0.14373 0.94919 0.39254 0.0
C1447 C 0.09395 0.98189 0.30979 0.0
C1448 C 0.05722 0.9651 0.39731 0.0
C1449 C 0.06034 0.98841 0.4105 0.0
C1450 C 0.07466 0.95849 0.37596 0.0
C1451 C 0.09597 0.97542 0.36809 0.0
C1452 C 0.0974 0.9999 0.37971 0.0
C1453 C 0.07945 0.00613 0.40068 0.0
C1454 C 0.07106 0.93275 0.3633 0.0
C1455 C 0.11954 0.01872 0.37167 0.0
H1456 H 0.18682 0.94579 0.3584 0.0
H1457 H 0.14515 0.97388 0.28857 0.0
H1458 H 0.14142 0.96678 0.40455 0.0
H1459 H 0.12579 0.93673 0.39728 0.0
H1460 H 0.16337 0.93935 0.39857 0.0
H1461 H 0.09631 0.98167 0.28786 0.0
H1462 H 0.07537 0.97049 0.31527 0.0
H1463 H 0.08987 0.00174 0.31624 0.0
H1464 H 0.042 0.95149 0.40438 0.0
H1465 H 0.08193 0.02422 0.41066 0.0
H1466 H 0.07729 0.91778 0.37769 0.0
H1467 H 0.08344 0.93023 0.34487 0.0
H1468 H 0.04865 0.92987 0.35845 0.0
H1469 H 0.14035 0.01175 0.37839 0.0
H1470 H 0.11579 0.03784 0.38043 0.0
H1471 H 0.12035 0.02062 0.34977 0.0
C1472 C 0.02959 0.82837 0.70562 0.0
C1473 C 0.05207 0.81259 0.71295 0.0
C1474 C 0.03382 0.84996 0.68982 0.0
C1475 C 0.06114 0.85573 0.68095 0.0
C1476 C 0.08389 0.8398 0.68816 0.0
C1477 C 0.0791 0.81849 0.70418 0.0
C1478 C 0.0091 0.86665 0.68271 0.0
C1479 C 0.11326 0.84517 0.67877 0.0
C1480 C 0.07 0.89938 0.62158 0.0
C1481 C 0.07686 0.92241 0.63392 0.0
C1482 C 0.06459 0.87752 0.63663 0.0
C1483 C 0.06609 0.87879 0.66466 0.0
C1484 C 0.07277 0.90203 0.67721 0.0
C1485 C 0.07812 0.92354 0.66169 0.0
C1486 C 0.0576 0.85303 0.62255 0.0
C1487 C 0.07438 0.90416 0.70706 0.0
H1488 H 0.00865 0.82392 0.71232 0.0
H1489 H 0.09654 0.80626 0.70957 0.0
H1490 H 0.01246 0.88621 0.69027 0.0
H1491 H 0.007 0.86796 0.66084 0.0
H1492 H 0.98917 0.85941 0.69102 0.0
H1493 H 0.12878 0.83135 0.68679 0.0
H1494 H 0.114 0.84437 0.65679 0.0
H1495 H 0.11954 0.8646 0.68477 0.0
H1496 H 0.06902 0.89834 0.60011 0.0
H1497 H 0.08332 0.94128 0.6714 0.0
H1498 H 0.03746 0.84548 0.62997 0.0
H1499 H 0.07394 0.83851 0.62681 0.0
H1500 H 0.05605 0.85552 0.60072 0.0
H1501 H 0.05425 0.8983 0.71606 0.0
H1502 H 0.07916 0.92378 0.71375 0.0
H1503 H 0.09083 0.89113 0.71477 0.0
C1504 C 0.28909 0.02652 0.6461 0.0
C1505 C 0.28177 0.0237 0.67292 0.0
C1506 C 0.26846 0.03027 0.62656 0.0
C1507 C 0.23991 0.03077 0.63402 0.0
C1508 C 0.23266 0.03012 0.66126 0.0
C1509 C 0.25368 0.02679 0.68036 0.0
C1510 C 0.27714 0.03186 0.59784 0.0
C1511 C 0.20248 0.03075 0.67016 0.0
C1512 C 0.17664 0.04481 0.59082 0.0
C1513 C 0.16688 0.02009 0.58609 0.0
C1514 C 0.20193 0.04882 0.60444 0.0
C1515 C 0.21747 0.02763 0.61381 0.0
C1516 C 0.20895 0.00275 0.60696 0.0
C1517 C 0.18392 0.99931 0.59304 0.0
C1518 C 0.21079 0.07568 0.61043 0.0
C1519 C 0.22493 0.97954 0.61636 0.0
H1520 H 0.3108 0.0246 0.64018 0.0
H1521 H 0.24781 0.02502 0.70104 0.0
H1522 H 0.27423 0.01308 0.58824 0.0
H1523 H 0.26404 0.0459 0.58696 0.0
H1524 H 0.29948 0.0372 0.59581 0.0
H1525 H 0.20047 0.03238 0.69206 0.0
H1526 H 0.1912 0.04695 0.66089 0.0
H1527 H 0.19197 0.01304 0.6637 0.0
H1528 H 0.16384 0.06104 0.58523 0.0
H1529 H 0.17683 0.98015 0.58919 0.0
H1530 H 0.23387 0.07755 0.60936 0.0
H1531 H 0.20419 0.08081 0.63085 0.0
H1532 H 0.20101 0.0895 0.59651 0.0
H1533 H 0.24744 0.98121 0.61143 0.0
H1534 H 0.2169 0.96171 0.60742 0.0
H1535 H 0.22321 0.97803 0.63826 0.0
C1536 C 0.97409 0.19533 0.65895 0.0
C1537 C 0.98762 0.19638 0.68365 0.0
C1538 C 0.97897 0.17498 0.64141 0.0
C1539 C 0.99738 0.1551 0.64901 0.0
C1540 C 0.00994 0.15548 0.67446 0.0
C1541 C 0.0052 0.17628 0.69133 0.0
C1542 C 0.96496 0.17498 0.61456 0.0
C1543 C 0.02883 0.1341 0.68367 0.0
C1544 C 0.99937 0.09089 0.61459 0.0
C1545 C 0.02466 0.09237 0.60073 0.0
C1546 C 0.98919 0.11168 0.62928 0.0
C1547 C 0.00482 0.13445 0.63007 0.0
C1548 C 0.02943 0.13655 0.61461 0.0
C1549 C 0.03917 0.11541 0.60029 0.0
C1550 C 0.96266 0.1083 0.64507 0.0
C1551 C 0.04621 0.16075 0.61414 0.0
H1552 H 0.96047 0.21084 0.65292 0.0
H1553 H 0.01544 0.17688 0.71052 0.0
H1554 H 0.98105 0.17523 0.5987 0.0
H1555 H 0.9527 0.15731 0.61199 0.0
H1556 H 0.95076 0.19159 0.61183 0.0
H1557 H 0.03549 0.13647 0.70464 0.0
H1558 H 0.0179 0.11565 0.68166 0.0
H1559 H 0.04779 0.13319 0.671 0.0
H1560 H 0.98826 0.0731 0.61521 0.0
H1561 H 0.05858 0.11674 0.58925 0.0
H1562 H 0.95283 0.12656 0.65109 0.0
H1563 H 0.96752 0.0972 0.66324 0.0
H1564 H 0.94719 0.09732 0.63337 0.0
H1565 H 0.03237 0.17725 0.60977 0.0
H1566 H 0.06323 0.16008 0.59915 0.0
H1567 H 0.05571 0.16401 0.63393 0.0
C1568 C 0.81505 0.03399 0.71069 0.0
C1569 C 0.79528 0.04468 0.69327 0.0
C1570 C 0.84138 0.02582 0.70151 0.0
C1571 C 0.84804 0.02848 0.67431 0.0
C1572 C 0.82772 0.03823 0.65648 0.0
C1573 C 0.8016 0.04617 0.66617 0.0
C1574 C 0.86241 0.01531 0.72104 0.0
C1575 C 0.83392 0.04121 0.62726 0.0
C1576 C 0.92119 0.03817 0.64803 0.0
C1577 C 0.92595 0.01518 0.6346 0.0
C1578 C 0.89671 0.04214 0.66283 0.0
C1579 C 0.87663 0.02255 0.66438 0.0
C1580 C 0.88263 0.99845 0.65316 0.0
C1581 C 0.90726 0.99503 0.6384 0.0
C1582 C 0.89131 0.06804 0.6748 0.0
C1583 C 0.86199 0.97694 0.65478 0.0
H1584 H 0.81031 0.0327 0.73167 0.0
H1585 H 0.7864 0.05423 0.65254 0.0
H1586 H 0.87163 0.99727 0.71353 0.0
H1587 H 0.87979 0.02897 0.72348 0.0
H1588 H 0.85297 0.01178 0.74083 0.0
H1589 H 0.81542 0.04801 0.61587 0.0
H1590 H 0.85114 0.05499 0.62452 0.0
H1591 H 0.841 0.0228 0.61874 0.0
H1592 H 0.93575 0.05367 0.64566 0.0
H1593 H 0.91085 0.97707 0.62836 0.0
H1594 H 0.88338 0.06627 0.69538 0.0
H1595 H 0.87499 0.07807 0.66304 0.0
H1596 H 0.91042 0.07993 0.67503 0.0
H1597 H 0.85315 0.97542 0.67505 0.0
H1598 H 0.8717 0.95841 0.64927 0.0
H1599 H 0.84435 0.98074 0.64099 0.0
C1600 C 0.30894 0.0384 0.15348 0.0
C1601 C 0.29873 0.02064 0.17165 0.0
C1602 C 0.32679 0.03097 0.13286 0.0
C1603 C 0.33473 0.00507 0.13032 0.0
C1604 C 0.32345 0.9868 0.14781 0.0
C1605 C 0.30556 0.99482 0.16835 0.0
C1606 C 0.33812 0.05112 0.11448 0.0
C1607 C 0.33118 0.959 0.14592 0.0
C1608 C 0.37002 0.99724 0.06423 0.0
C1609 C 0.39734 0.00418 0.07113 0.0
C1610 C 0.34956 0.99409 0.08389 0.0
C1611 C 0.35675 0.9982 0.11077 0.0
C1612 C 0.38513 0.00136 0.11791 0.0
C1613 C 0.40516 0.00433 0.09793 0.0
C1614 C 0.31976 0.98928 0.07561 0.0
C1615 C 0.39385 0.00459 0.14649 0.0
H1616 H 0.30352 0.05834 0.15574 0.0
H1617 H 0.2977 0.98092 0.1823 0.0
H1618 H 0.36114 0.05248 0.11696 0.0
H1619 H 0.33398 0.04591 0.09352 0.0
H1620 H 0.32876 0.07016 0.11833 0.0
H1621 H 0.31321 0.94691 0.15164 0.0
H1622 H 0.33817 0.95352 0.12572 0.0
H1623 H 0.34851 0.95491 0.15997 0.0
H1624 H 0.36393 0.9965 0.04353 0.0
H1625 H 0.42651 0.00887 0.10336 0.0
H1626 H 0.30839 0.00771 0.07421 0.0
H1627 H 0.3088 0.97734 0.09041 0.0
H1628 H 0.3188 0.97982 0.05592 0.0
H1629 H 0.38698 0.02359 0.15366 0.0
H1630 H 0.4169 0.00303 0.14899 0.0
H1631 H 0.38371 0.99009 0.15914 0.0
C1632 C 0.09321 0.33993 0.19779 0.0
C1633 C 0.0712 0.32432 0.206 0.0
C1634 C 0.08962 0.35751 0.17716 0.0
C1635 C 0.06339 0.35949 0.16423 0.0
C1636 C 0.04165 0.34261 0.17114 0.0
C1637 C 0.04577 0.32525 0.19204 0.0
C1638 C 0.11343 0.37505 0.17033 0.0
C1639 C 0.01356 0.34381 0.15748 0.0
C1640 C 0.0479 0.42613 0.13955 0.0
C1641 C 0.05675 0.42468 0.11308 0.0
C1642 C 0.04867 0.40469 0.15605 0.0
C1643 C 0.05811 0.38108 0.14573 0.0
C1644 C 0.06523 0.37909 0.11854 0.0
C1645 C 0.06472 0.40099 0.10258 0.0
C1646 C 0.0409 0.40768 0.18494 0.0
C1647 C 0.0746 0.35415 0.10656 0.0
H1648 H 0.11303 0.3392 0.20823 0.0
H1649 H 0.02867 0.31315 0.1981 0.0
H1650 H 0.11743 0.37478 0.14866 0.0
H1651 H 0.10769 0.39485 0.17584 0.0
H1652 H 0.13309 0.36981 0.1808 0.0
H1653 H 0.00065 0.32687 0.16192 0.0
H1654 H 0.00199 0.36099 0.16424 0.0
H1655 H 0.01617 0.34536 0.13567 0.0
H1656 H 0.04153 0.44431 0.1478 0.0
H1657 H 0.0712 0.39965 0.08204 0.0
H1658 H 0.05973 0.40465 0.19746 0.0
H1659 H 0.02534 0.39317 0.19071 0.0
H1660 H 0.03209 0.42681 0.1894 0.0
H1661 H 0.09591 0.34933 0.1138 0.0
H1662 H 0.07512 0.3549 0.08453 0.0
H1663 H 0.06051 0.33858 0.11274 0.0
C1664 C 0.7335 0.08808 0.11656 0.0
C1665 C 0.71606 0.10913 0.12149 0.0
C1666 C 0.72617 0.06972 0.09759 0.0
C1667 C 0.7007 0.07245 0.08353 0.0
C1668 C 0.6842 0.09467 0.08696 0.0
C1669 C 0.69216 0.11281 0.10579 0.0
C1670 C 0.74464 0.04657 0.09405 0.0
C1671 C 0.65684 0.09835 0.07248 0.0
C1672 C 0.67961 0.03118 0.02514 0.0
C1673 C 0.66161 0.01383 0.03743 0.0
C1674 C 0.69376 0.0496 0.04009 0.0
C1675 C 0.68942 0.05092 0.06782 0.0
C1676 C 0.67215 0.03283 0.08041 0.0
C1677 C 0.65864 0.01439 0.06509 0.0
C1678 C 0.71241 0.06831 0.02617 0.0
C1679 C 0.66682 0.0337 0.10995 0.0
H1680 H 0.75217 0.08522 0.12843 0.0
H1681 H 0.67865 0.12911 0.10932 0.0
H1682 H 0.73486 0.03005 0.10397 0.0
H1683 H 0.74695 0.04176 0.07272 0.0
H1684 H 0.76575 0.04938 0.10274 0.0
H1685 H 0.64981 0.11853 0.07274 0.0
H1686 H 0.65859 0.09194 0.05162 0.0
H1687 H 0.64052 0.0867 0.08217 0.0
H1688 H 0.68214 0.03079 0.00378 0.0
H1689 H 0.64481 0.00105 0.07476 0.0
H1690 H 0.73342 0.06837 0.03552 0.0
H1691 H 0.70355 0.08774 0.02834 0.0
H1692 H 0.7148 0.06394 0.00472 0.0
H1693 H 0.68692 0.0336 0.12095 0.0
H1694 H 0.65408 0.01743 0.11687 0.0
H1695 H 0.65564 0.0516 0.1151 0.0
C1696 C 0.01862 0.68705 0.18104 0.0
C1697 C 0.01075 0.67965 0.20669 0.0
C1698 C 0.01797 0.66972 0.15981 0.0
C1699 C 0.0096 0.64432 0.16444 0.0
C1700 C 0.00028 0.63712 0.18997 0.0
C1701 C 0.00085 0.65489 0.21074 0.0
C1702 C 0.02776 0.67827 0.1328 0.0
C1703 C 0.99144 0.61018 0.1958 0.0
C1704 C 0.99692 0.59925 0.10647 0.0
C1705 C 0.02304 0.58723 0.10426 0.0
C1706 C 0.99211 0.61803 0.12587 0.0
C1707 C 0.01389 0.62459 0.14363 0.0
C1708 C 0.04013 0.6121 0.14176 0.0
C1709 C 0.04437 0.59369 0.12209 0.0
C1710 C 0.96402 0.63127 0.12696 0.0
C1711 C 0.06395 0.61836 0.16032 0.0
H1712 H 0.02609 0.70617 0.17767 0.0
H1713 H 0.99457 0.64899 0.23044 0.0
H1714 H 0.04943 0.6713 0.12943 0.0
H1715 H 0.01438 0.67032 0.11688 0.0
H1716 H 0.02774 0.69932 0.13106 0.0
H1717 H 0.9821 0.60828 0.21588 0.0
H1718 H 0.97603 0.60359 0.1809 0.0
H1719 H 0.00992 0.59734 0.19451 0.0
H1720 H 0.98059 0.59464 0.09255 0.0
H1721 H 0.06462 0.58438 0.12057 0.0
H1722 H 0.96676 0.65201 0.12403 0.0
H1723 H 0.9544 0.62862 0.14678 0.0
H1724 H 0.94936 0.62408 0.11162 0.0
H1725 H 0.07038 0.63837 0.15735 0.0
H1726 H 0.08251 0.60589 0.1571 0.0
H1727 H 0.0571 0.61642 0.18125 0.0
C1728 C 0.35132 0.94537 0.85831 0.0
C1729 C 0.36231 0.92267 0.8479 0.0
C1730 C 0.36628 0.95949 0.87709 0.0
C1731 C 0.39286 0.95072 0.88559 0.0
C1732 C 0.40353 0.92728 0.87607 0.0
C1733 C 0.3881 0.91349 0.85733 0.0
C1734 C 0.35407 0.98426 0.88713 0.0
C1735 C 0.43156 0.91715 0.88515 0.0
C1736 C 0.44249 0.00161 0.9098 0.0
C1737 C 0.43963 0.99946 0.93732 0.0
C1738 C 0.42795 0.98531 0.89271 0.0
C1739 C 0.40997 0.96669 0.90352 0.0
C1740 C 0.40738 0.96425 0.93135 0.0
C1741 C 0.42205 0.98091 0.94789 0.0
C1742 C 0.43142 0.98831 0.86311 0.0
C1743 C 0.38833 0.94483 0.94376 0.0
H1744 H 0.33136 0.95254 0.85121 0.0
H1745 H 0.3967 0.89593 0.84944 0.0
H1746 H 0.35345 0.98425 0.90913 0.0
H1747 H 0.36756 1.00026 0.88094 0.0
H1748 H 0.33257 0.98779 0.87954 0.0
H1749 H 0.43652 0.8983 0.87632 0.0
H1750 H 0.44832 0.93065 0.87967 0.0
H1751 H 0.43183 0.91535 0.90708 0.0
H1752 H 0.45603 0.0161 0.90168 0.0
H1753 H 0.41895 0.98004 0.9691 0.0
H1754 H 0.41105 0.99356 0.854 0.0
H1755 H 0.4382 0.96999 0.85415 0.0
H1756 H 0.44696 0.00309 0.85795 0.0
H1757 H 0.36637 0.9517 0.94248 0.0
H1758 H 0.39346 0.94158 0.96498 0.0
H1759 H 0.38963 0.92637 0.93315 0.0
C1760 C 0.98157 0.33338 0.84596 0.0
C1761 C 0.00701 0.32524 0.83487 0.0
C1762 C 0.9807 0.35303 0.86477 0.0
C1763 C 0.00587 0.36487 0.87271 0.0
C1764 C 0.03179 0.35535 0.86328 0.0
C1765 C 0.03207 0.33565 0.84442 0.0
C1766 C 0.95262 0.3623 0.87475 0.0
C1767 C 0.05913 0.36712 0.87164 0.0
C1768 C 0.99519 0.43477 0.88766 0.0
C1769 C 0.99198 0.4346 0.91527 0.0
C1770 C 0.00121 0.41232 0.87372 0.0
C1771 C 0.00445 0.38918 0.88778 0.0
C1772 C 0.00342 0.38926 0.91584 0.0
C1773 C 0.9969 0.41195 0.92926 0.0
C1774 C 0.00254 0.41317 0.84379 0.0
C1775 C 0.00785 0.36524 0.93164 0.0
H1776 H 0.96214 0.32523 0.83901 0.0
H1777 H 0.05188 0.32933 0.83619 0.0
H1778 H 0.95281 0.36391 0.89669 0.0
H1779 H 0.94822 0.38153 0.86664 0.0
H1780 H 0.93533 0.3495 0.86881 0.0
H1781 H 0.07723 0.35444 0.86724 0.0
H1782 H 0.06208 0.38523 0.86075 0.0
H1783 H 0.0591 0.37164 0.89314 0.0
H1784 H 0.99171 0.45225 0.87673 0.0
H1785 H 0.9952 0.41185 0.95069 0.0
H1786 H 0.98469 0.40248 0.83534 0.0
H1787 H 0.02205 0.4039 0.83663 0.0
H1788 H 0.00173 0.43291 0.83601 0.0
H1789 H 0.98926 0.35293 0.92947 0.0
H1790 H 0.01108 0.36928 0.95307 0.0
H1791 H 0.02619 0.3544 0.9241 0.0
C1792 C 0.6592 0.09919 0.82675 0.0
C1793 C 0.6588 0.12567 0.82956 0.0
C1794 C 0.64369 0.08369 0.84385 0.0
C1795 C 0.6281 0.09494 0.86474 0.0
C1796 C 0.62767 0.12173 0.86764 0.0
C1797 C 0.64269 0.13682 0.84971 0.0
C1798 C 0.64474 0.05522 0.84012 0.0
C1799 C 0.61251 0.13444 0.89035 0.0
C1800 C 0.57386 0.05334 0.89844 0.0
C1801 C 0.58883 0.04471 0.92054 0.0
C1802 C 0.58599 0.07057 0.88058 0.0
C1803 C 0.614 0.07845 0.88455 0.0
C1804 C 0.62907 0.06965 0.90696 0.0
C1805 C 0.61609 0.0532 0.92494 0.0
C1806 C 0.56903 0.08011 0.85733 0.0
C1807 C 0.65898 0.07739 0.91194 0.0
H1808 H 0.67157 0.09058 0.81106 0.0
H1809 H 0.64266 0.15732 0.85207 0.0
H1810 H 0.65502 0.04624 0.85754 0.0
H1811 H 0.62322 0.04755 0.83885 0.0
H1812 H 0.65642 0.04957 0.82197 0.0
H1813 H 0.6092 0.15508 0.88678 0.0
H1814 H 0.59199 0.12545 0.89383 0.0
H1815 H 0.62507 0.13215 0.90873 0.0
H1816 H 0.55267 0.04678 0.89528 0.0
H1817 H 0.62756 0.04636 0.94213 0.0
H1818 H 0.57899 0.07386 0.83851 0.0
H1819 H 0.56858 0.10121 0.85729 0.0
H1820 H 0.54715 0.07314 0.85777 0.0
H1821 H 0.67146 0.07702 0.8934 0.0
H1822 H 0.66946 0.06472 0.92654 0.0
H1823 H 0.65925 0.09714 0.91968 0.0
C1824 C 0.98399 0.67844 0.84174 0.0
C1825 C 0.00779 0.69306 0.83659 0.0
C1826 C 0.98369 0.66076 0.8625 0.0
C1827 C 0.0076 0.65794 0.87887 0.0
C1828 C 0.03117 0.67353 0.87467 0.0
C1829 C 0.03109 0.69078 0.85339 0.0
C1830 C 0.95818 0.64433 0.86619 0.0
C1831 C 0.05673 0.67146 0.89214 0.0
C1832 C 0.99173 0.62174 0.94187 0.0
C1833 C -0.00038 0.597 0.9346 0.0
C1834 C 0.99613 0.64225 0.92466 0.0
C1835 C 0.00811 0.63768 0.89939 0.0
C1836 C 0.01736 0.61285 0.89256 0.0
C1837 C 0.01288 0.59277 0.91029 0.0
C1838 C 0.98641 0.66846 0.93288 0.0
C1839 C 0.02995 0.60708 0.86572 0.0
H1840 H 0.96591 0.68003 0.82884 0.0
H1841 H 0.04949 0.70213 0.84963 0.0
H1842 H 0.96397 0.62405 0.86327 0.0
H1843 H 0.95003 0.64632 0.88668 0.0
H1844 H 0.94112 0.64926 0.85208 0.0
H1845 H 0.07215 0.68663 0.88793 0.0
H1846 H 0.05064 0.67258 0.91336 0.0
H1847 H 0.06707 0.65274 0.88904 0.0
H1848 H 0.9812 0.6249 0.96066 0.0
H1849 H 0.01778 0.57347 0.90428 0.0
H1850 H 0.96715 0.67361 0.92179 0.0
H1851 H 0.0025 0.68283 0.92803 0.0
H1852 H 0.98171 0.66952 0.95445 0.0
H1853 H 0.01364 0.60923 0.8502 0.0
H1854 H 0.03867 0.58747 0.86461 0.0
H1855 H 0.04685 0.62069 0.86108 0.0
C1856 C 0.16661 0.36292 0.00481 0.0
C1857 C 0.16689 0.3363 0.00349 0.0
C1858 C 0.143 0.37704 0.99724 0.0
C1859 C 0.11881 0.3643 0.98817 0.0
C1860 C 0.11852 0.33739 0.9875 0.0
C1861 C 0.14266 0.32366 0.99509 0.0
C1862 C 0.14427 0.40573 0.99835 0.0
C1863 C 0.09297 0.32318 0.97831 0.0
C1864 C 0.05813 0.41057 0.98885 0.0
C1865 C 0.06073 0.42136 0.96353 0.0
C1866 C 0.07492 0.38979 0.99644 0.0
C1867 C 0.09471 0.37971 0.97828 0.0
C1868 C 0.09487 0.38855 0.95175 0.0
C1869 C 0.07779 0.40924 0.94466 0.0
C1870 C 0.07345 0.38045 0.0247 0.0
C1871 C 0.11521 0.37801 0.93157 0.0
H1872 H 0.18512 0.37289 0.01139 0.0
H1873 H 0.14265 0.30308 0.99412 0.0
H1874 H 0.1414 0.41372 0.97816 0.0
H1875 H 0.12709 0.4133 0.01095 0.0
H1876 H 0.16446 0.41266 0.00641 0.0
H1877 H 0.09513 0.30234 0.98134 0.0
H1878 H 0.07411 0.33004 0.98904 0.0
H1879 H 0.08939 0.32681 0.9569 0.0
H1880 H 0.0445 0.41943 0.0034 0.0
H1881 H 0.07927 0.41698 0.9248 0.0
H1882 H 0.07563 0.35947 0.0256 0.0
H1883 H 0.05349 0.38612 0.03439 0.0
H1884 H 0.09096 0.38872 0.03621 0.0
H1885 H 0.13663 0.38459 0.93641 0.0
H1886 H 0.11004 0.38429 0.9111 0.0
H1887 H 0.11551 0.35695 0.93209 0.0
C1888 C 0.138 0.67081 0.10186 0.0
C1889 C 0.14324 0.69405 0.0892 0.0
C1890 C 0.12105 0.65241 0.08991 0.0
C1891 C 0.10898 0.65744 0.06482 0.0
C1892 C 0.11182 0.6818 0.05328 0.0
C1893 C 0.12902 0.69983 0.06558 0.0
C1894 C 0.11827 0.62675 0.10293 0.0
C1895 C 0.09852 0.68816 0.02692 0.0
C1896 C 0.10545 0.6022 0.01668 0.0
C1897 C 0.07735 0.59548 0.01837 0.0
C1898 C 0.11591 0.62234 0.03182 0.0
C1899 C 0.09765 0.63613 0.04883 0.0
C1900 C 0.06907 0.62942 0.05042 0.0
C1901 C 0.05921 0.60912 0.035 0.0
C1902 C 0.1464 0.62918 0.02912 0.0
C1903 C 0.04894 0.64382 0.06805 0.0
H1904 H 0.14856 0.66627 0.12031 0.0
H1905 H 0.13257 0.71789 0.05586 0.0
H1906 H 0.09621 0.62048 0.10271 0.0
H1907 H 0.13061 0.6125 0.09155 0.0
H1908 H 0.12577 0.62692 0.12379 0.0
H1909 H 0.09834 0.70895 0.02309 0.0
H1910 H 0.11045 0.67869 0.01077 0.0
H1911 H 0.07674 0.68109 0.02605 0.0
H1912 H 0.11919 0.59176 0.00337 0.0
H1913 H 0.03727 0.60406 0.03566 0.0
H1914 H 0.15616 0.63138 0.04893 0.0
H1915 H 0.14818 0.64769 0.01876 0.0
H1916 H 0.15839 0.61471 0.01767 0.0
H1917 H 0.05558 0.64213 0.08904 0.0
H1918 H 0.02718 0.63673 0.06628 0.0
H1919 H 0.04911 0.66434 0.06299 0.0
C1920 C 0.30681 0.19587 0.95763 0.0
C1921 C 0.30368 0.21517 0.97656 0.0
C1922 C 0.32793 0.17732 0.96031 0.0
C1923 C 0.34685 0.17876 0.98189 0.0
C1924 C 0.34435 0.19884 0.00047 0.0
C1925 C 0.32243 0.21652 0.99788 0.0
C1926 C 0.32977 0.15599 0.94033 0.0
C1927 C 0.36501 0.2018 0.02292 0.0
C1928 C 0.38303 0.11934 0.00743 0.0
C1929 C 0.40907 0.12037 0.9947 0.0
C1930 C 0.36249 0.13795 0.00293 0.0
C1931 C 0.3684 0.1586 0.98592 0.0
C1932 C 0.39486 0.16001 0.9733 0.0
C1933 C 0.41469 0.14055 0.97742 0.0
C1934 C 0.33429 0.13532 0.01616 0.0
C1935 C 0.40238 0.18178 0.95524 0.0
H1936 H 0.29238 0.19498 0.94106 0.0
H1937 H 0.32038 0.23183 0.01218 0.0
H1938 H 0.35024 0.15658 0.93002 0.0
H1939 H 0.32849 0.13738 0.95062 0.0
H1940 H 0.31285 0.15708 0.92525 0.0
H1941 H 0.36133 0.21949 0.0345 0.0
H1942 H 0.3636 0.18534 0.03658 0.0
H1943 H 0.38665 0.20208 0.01493 0.0
H1944 H 0.37839 0.10356 0.02049 0.0
H1945 H 0.43474 0.14136 0.9674 0.0
H1946 H 0.31746 0.13576 0.00098 0.0
H1947 H 0.33055 0.15153 0.02981 0.0
H1948 H 0.33256 0.1174 0.02766 0.0
H1949 H 0.39591 0.1771 0.93467 0.0
H1950 H 0.42532 0.18496 0.95511 0.0
H1951 H 0.39183 0.19977 0.96114 0.0
C1952 C 0.93405 0.31907 0.00566 0.0
C1953 C 0.90817 0.32223 0.01842 0.0
C1954 C 0.95622 0.33584 0.01064 0.0
C1955 C 0.95192 0.35671 0.02799 0.0
C1956 C 0.92649 0.35877 0.04234 0.0
C1957 C 0.90519 0.34121 0.03773 0.0
C1958 C 0.98336 0.33173 0.99597 0.0
C1959 C 0.92056 0.38096 0.06067 0.0
C1960 C 0.99873 0.40814 0.05424 0.0
C1961 C 0.9916 0.42806 0.03697 0.0
C1962 C 0.98915 0.38336 0.04952 0.0
C1963 C 0.971 0.3789 0.02785 0.0
C1964 C 0.96646 0.3983 0.00884 0.0
C1965 C 0.97716 0.4226 0.0135 0.0
C1966 C 0.9968 0.36245 0.06868 0.0
C1967 C 0.94795 0.39412 0.98494 0.0
H1968 H 0.93669 0.30409 0.99106 0.0
H1969 H 0.88533 0.34368 0.04781 0.0
H1970 H 0.9798 0.33483 0.97448 0.0
H1971 H 0.00038 0.34437 0.00285 0.0
H1972 H 0.99035 0.31167 0.99832 0.0
H1973 H 0.89988 0.37948 0.07057 0.0
H1974 H 0.93689 0.38218 0.07621 0.0
H1975 H 0.92096 0.39898 0.04923 0.0
H1976 H 0.01064 0.41213 0.07204 0.0
H1977 H 0.97195 0.43784 -5e-05 0.0
H1978 H -5e-05 0.34418 0.05799 0.0
H1979 H 0.9796 0.35983 0.08315 0.0
H1980 H 0.01612 0.36702 0.0799 0.0
H1981 H 0.95631 0.37815 0.97288 0.0
H1982 H 0.94637 0.41124 0.97214 0.0
H1983 H 0.92655 0.38895 0.99144 0.0
C1984 C 0.72272 0.84048 0.91066 0.0
C1985 C 0.71532 0.81834 0.89699 0.0
C1986 C 0.70244 0.85875 0.91752 0.0
C1987 C 0.67398 0.85441 0.91121 0.0
C1988 C 0.66656 0.83253 0.89651 0.0
C1989 C 0.68741 0.8149 0.88927 0.0
C1990 C 0.71134 0.88217 0.93259 0.0
C1991 C 0.63646 0.827 0.88977 0.0
C1992 C 0.62538 0.88619 0.96062 0.0
C1993 C 0.61711 0.90808 0.94684 0.0
C1994 C 0.64239 0.8677 0.94854 0.0
C1995 C 0.65201 0.87158 0.92228 0.0
C1996 C 0.64262 0.8931 0.90783 0.0
C1997 C 0.62502 0.91101 0.92025 0.0
C1998 C 0.65118 0.84462 0.96437 0.0
C1999 C 0.65261 0.89811 0.87995 0.0
H2000 H 0.74431 0.84326 0.91652 0.0
H2001 H 0.68158 0.79769 0.87885 0.0
H2002 H 0.70228 0.89949 0.92331 0.0
H2003 H 0.70335 0.88123 0.95323 0.0
H2004 H 0.73445 0.8841 0.93333 0.0
H2005 H 0.63427 0.80968 0.87734 0.0
H2006 H 0.62438 0.82432 0.90834 0.0
H2007 H 0.62697 0.84331 0.87905 0.0
H2008 H 0.61905 0.88381 0.98113 0.0
H2009 H 0.61887 0.92808 0.90966 0.0
H2010 H 0.67378 0.84581 0.96919 0.0
H2011 H 0.64809 0.82705 0.95255 0.0
H2012 H 0.6393 0.84294 0.98322 0.0
H2013 H 0.67503 0.9034 0.88047 0.0
H2014 H 0.64064 0.91377 0.87032 0.0
H2015 H 0.65087 0.88079 0.86754 0.0
C2016 C 0.86335 0.69861 0.96523 0.0
C2017 C 0.83486 0.6957 0.97117 0.0
C2018 C 0.88329 0.68057 0.97381 0.0
C2019 C 0.87448 0.65931 0.98877 0.0
C2020 C 0.84576 0.65622 0.9946 0.0
C2021 C 0.82636 0.67439 0.98572 0.0
C2022 C 0.91373 0.68427 0.96697 0.0
C2023 C 0.83545 0.63371 0.01033 0.0
C2024 C 0.9165 0.59825 0.99512 0.0
C2025 C 0.92731 0.60022 0.02085 0.0
C2026 C 0.90061 0.61794 0.98376 0.0
C2027 C 0.89502 0.64018 0.9987 0.0
C2028 C 0.90664 0.64277 0.0244 0.0
C2029 C 0.92267 0.6228 0.03513 0.0
C2030 C 0.88886 0.6145 0.95617 0.0
C2031 C 0.90109 0.66615 0.04104 0.0
H2032 H 0.87007 0.71496 0.9539 0.0
H2033 H 0.80442 0.67189 0.99036 0.0
H2034 H 0.92623 0.68611 0.98541 0.0
H2035 H 0.9219 0.66739 0.95616 0.0
H2036 H 0.91711 0.7014 0.95455 0.0
H2037 H 0.81242 0.63418 0.01326 0.0
H2038 H 0.84111 0.61576 -2e-05 0.0
H2039 H 0.8457 0.63327 0.03008 0.0
H2040 H 0.91959 0.58105 0.98408 0.0
H2041 H 0.93106 0.62471 0.05501 0.0
H2042 H 0.8952 0.63055 0.94332 0.0
H2043 H 0.86568 0.61461 0.95696 0.0
H2044 H 0.89597 0.59644 0.94681 0.0
H2045 H 0.90583 0.68358 0.02958 0.0
H2046 H 0.91366 0.66624 0.05959 0.0
H2047 H 0.8786 0.66702 0.04644 0.0
C2048 C 0.29828 0.87006 0.07572 0.0
C2049 C 0.29883 0.84849 0.05937 0.0
C2050 C 0.31646 0.89047 0.07117 0.0
C2051 C 0.3364 0.88876 0.05045 0.0
C2052 C 0.33635 0.86736 0.03334 0.0
C2053 C 0.31725 0.84768 0.03776 0.0
C2054 C 0.31511 0.91318 0.08943 0.0
C2055 C 0.35768 0.86441 0.01142 0.0
C2056 C 0.38214 0.94273 0.02583 0.0
C2057 C 0.40687 0.93818 0.04007 0.0
C2058 C 0.35823 0.92789 0.03025 0.0
C2059 C 0.35955 0.90748 0.04854 0.0
C2060 C 0.38415 0.90353 0.06367 0.0
C2061 C 0.40731 0.91917 0.05954 0.0
C2062 C 0.33186 0.93362 0.01487 0.0
C2063 C 0.3866 0.88188 0.08323 0.0
H2064 H 0.28384 0.87089 0.0923 0.0
H2065 H 0.31779 0.831 0.02513 0.0
H2066 H 0.32978 0.91014 0.1062 0.0
H2067 H 0.32116 0.9309 0.07908 0.0
H2068 H 0.29379 0.91576 0.09784 0.0
H2069 H 0.35402 0.84721 0.99913 0.0
H2070 H 0.35732 0.88131 0.9983 0.0
H2071 H 0.37896 0.86303 0.02016 0.0
H2072 H 0.38156 0.95774 0.01113 0.0
H2073 H 0.42636 0.91555 0.07063 0.0
H2074 H 0.31348 0.93366 0.02833 0.0
H2075 H 0.32848 0.91861 -0.00024 0.0
H2076 H 0.33287 0.95227 0.00461 0.0
H2077 H 0.37 0.88352 0.0985 0.0
H2078 H 0.40722 0.88143 0.0934 0.0
H2079 H 0.38365 0.8635 0.07281 0.0
C2080 C 0.74249 0.19099 0.96607 0.0
C2081 C 0.76324 0.19154 0.98572 0.0
C2082 C 0.72179 0.17222 0.96618 0.0
C2083 C 0.72224 0.15327 0.98611 0.0
C2084 C 0.74448 0.15255 0.00468 0.0
C2085 C 0.76458 0.17187 0.00443 0.0
C2086 C 0.69818 0.17396 0.94633 0.0
C2087 C 0.74637 0.13198 0.02547 0.0
C2088 C 0.65173 0.13158 0.01093 0.0
C2089 C 0.64796 0.10874 0.99713 0.0
C2090 C 0.67593 0.14597 0.00761 0.0
C2091 C 0.69718 0.13718 0.99026 0.0
C2092 C 0.69382 0.11379 0.97665 0.0
C2093 C 0.669 0.09992 0.98008 0.0
C2094 C 0.67848 0.17085 0.02243 0.0
C2095 C 0.71628 0.10344 0.95854 0.0
H2096 H 0.74139 0.20614 0.95153 0.0
H2097 H 0.78091 0.17197 0.01936 0.0
H2098 H 0.69447 0.15521 0.93695 0.0
H2099 H 0.67862 0.17961 0.95672 0.0
H2100 H 0.70239 0.1881 0.9305 0.0
H2101 H 0.76493 0.13417 0.03852 0.0
H2102 H 0.7273 0.13206 0.03802 0.0
H2103 H 0.7477 0.11317 0.01557 0.0
H2104 H 0.63538 0.13853 0.02403 0.0
H2105 H 0.66627 0.08196 0.96996 0.0
H2106 H 0.68164 0.18665 0.00819 0.0
H2107 H 0.69697 0.17021 0.03572 0.0
H2108 H 0.65969 0.17522 0.03462 0.0
H2109 H 0.71641 0.11448 0.93981 0.0
H2110 H 0.71283 0.08313 0.95355 0.0
H2111 H 0.73722 0.10534 0.9678 0.0
C2112 C 0.51287 0.70505 0.83056 0.0
C2113 C 0.54107 0.70884 0.82408 0.0
C2114 C 0.50519 0.68788 0.85051 0.0
C2115 C 0.52619 0.67405 0.86422 0.0
C2116 C 0.55457 0.67672 0.85676 0.0
C2117 C 0.56169 0.69413 0.83679 0.0
C2118 C 0.47469 0.68558 0.85788 0.0
C2119 C 0.57749 0.66185 0.87051 0.0
C2120 C 0.50977 0.65732 0.93569 0.0
C2121 C 0.50112 0.63201 0.9335 0.0
C2122 C 0.51828 0.67104 0.91331 0.0
C2123 C 0.51866 0.65903 0.88814 0.0
C2124 C 0.5108 0.63323 0.88589 0.0
C2125 C 0.50176 0.62014 0.90856 0.0
C2126 C 0.526 0.69867 0.91652 0.0
C2127 C 0.51154 0.61954 0.85956 0.0
H2128 H 0.49679 0.71624 0.82077 0.0
H2129 H 0.5835 0.69673 0.83169 0.0
H2130 H 0.46845 0.66532 0.85821 0.0
H2131 H 0.47133 0.69332 0.87813 0.0
H2132 H 0.46078 0.69601 0.84391 0.0
H2133 H 0.59864 0.66687 0.86316 0.0
H2134 H 0.5767 0.66526 0.89221 0.0
H2135 H 0.57425 0.64123 0.86731 0.0
H2136 H 0.50932 0.66667 0.95487 0.0
H2137 H 0.49558 0.60045 0.90679 0.0
H2138 H 0.50978 0.71077 0.90695 0.0
H2139 H 0.54615 0.70267 0.90652 0.0
H2140 H 0.52772 0.70433 0.93769 0.0
H2141 H 0.49557 0.62787 0.8461 0.0
H2142 H 0.5074 0.59889 0.86166 0.0
H2143 H 0.53222 0.62196 0.84995 0.0
C2144 C 0.35472 0.55533 0.85636 0.0
C2145 C 0.35828 0.56375 0.8302 0.0
C2146 C 0.37725 0.54568 0.87108 0.0
C2147 C 0.40413 0.54419 0.85936 0.0
C2148 C 0.40805 0.55289 0.83307 0.0
C2149 C 0.38504 0.56262 0.81875 0.0
C2150 C 0.37231 0.5373 0.89935 0.0
C2151 C 0.43651 0.55196 0.82016 0.0
C2152 C 0.46119 0.53914 0.9113 0.0
C2153 C 0.46319 0.51269 0.91442 0.0
C2154 C 0.44328 0.54988 0.89219 0.0
C2155 C 0.42784 0.53372 0.87521 0.0
C2156 C 0.43209 0.50708 0.87648 0.0
C2157 C 0.44952 0.49686 0.89624 0.0
C2158 C 0.43994 0.57845 0.89121 0.0
C2159 C 0.41661 0.48922 0.8583 0.0
H2160 H 0.33421 0.55627 0.86548 0.0
H2161 H 0.38798 0.56915 0.79857 0.0
H2162 H 0.37799 0.51693 0.90161 0.0
H2163 H 0.38586 0.54831 0.913 0.0
H2164 H 0.35019 0.53995 0.9056 0.0
H2165 H 0.43582 0.55809 0.79909 0.0
H2166 H 0.45104 0.56452 0.83113 0.0
H2167 H 0.44526 0.53238 0.82114 0.0
H2168 H 0.47218 0.55152 0.92491 0.0
H2169 H 0.45143 0.47639 0.89819 0.0
H2170 H 0.41793 0.58428 0.88753 0.0
H2171 H 0.45287 0.58599 0.87477 0.0
H2172 H 0.44686 0.58753 0.90995 0.0
H2173 H 0.39427 0.48857 0.86423 0.0
H2174 H 0.42531 0.46958 0.85907 0.0
H2175 H 0.41743 0.49609 0.83752 0.0
C2176 C 0.48124 0.33585 0.82674 0.0
C2177 C 0.45319 0.32828 0.82586 0.0
C2178 C 0.48989 0.35564 0.84347 0.0
C2179 C 0.47 0.36833 0.85967 0.0
C2180 C 0.44148 0.36139 0.85826 0.0
C2181 C 0.43341 0.34138 0.84143 0.0
C2182 C 0.52052 0.36242 0.84441 0.0
C2183 C 0.41962 0.37459 0.87508 0.0
C2184 C 0.50141 0.39742 0.92167 0.0
C2185 C 0.50601 0.42256 0.9136 0.0
C2186 C 0.48839 0.3799 0.90478 0.0
C2187 C 0.47962 0.38771 0.87919 0.0
C2188 C 0.48255 0.41347 0.87158 0.0
C2189 C 0.49579 0.43059 0.88886 0.0
C2190 C 0.48539 0.3527 0.91383 0.0
C2191 C 0.4729 0.4227 0.84473 0.0
H2192 H 0.49667 0.32591 0.81478 0.0
H2193 H 0.41167 0.33573 0.84083 0.0
H2194 H 0.52321 0.383 0.84042 0.0
H2195 H 0.52896 0.35861 0.86454 0.0
H2196 H 0.53314 0.35146 0.82978 0.0
H2197 H 0.39806 0.36877 0.86971 0.0
H2198 H 0.42322 0.37002 0.89629 0.0
H2199 H 0.42124 0.39551 0.87296 0.0
H2200 H 0.50888 0.39111 0.94089 0.0
H2201 H 0.49892 0.45006 0.88258 0.0
H2202 H 0.49921 0.34022 0.90174 0.0
H2203 H 0.46361 0.34616 0.91087 0.0
H2204 H 0.49098 0.35022 0.93508 0.0
H2205 H 0.47351 0.44375 0.84314 0.0
H2206 H 0.45126 0.41628 0.84069 0.0
H2207 H 0.48658 0.41446 0.8291 0.0
C2208 C 0.63598 0.51445 0.80461 0.0
C2209 C 0.66019 0.51123 0.82008 0.0
C2210 C 0.61006 0.52002 0.81653 0.0
C2211 C 0.60865 0.52293 0.84439 0.0
C2212 C 0.6323 0.51672 0.86015 0.0
C2213 C 0.65771 0.5107 0.84778 0.0
C2214 C 0.58492 0.5248 0.7991 0.0
C2215 C 0.63164 0.51896 0.89004 0.0
C2216 C 0.57189 0.57636 0.87925 0.0
C2217 C 0.55489 0.56272 0.89669 0.0
C2218 C 0.58733 0.56381 0.85957 0.0
C2219 C 0.58513 0.53707 0.85699 0.0
C2220 C 0.56438 0.52399 0.87149 0.0
C2221 C 0.54958 0.53698 0.89146 0.0
C2222 C 0.60864 0.57876 0.84404 0.0
C2223 C 0.55981 0.49586 0.86803 0.0
H2224 H 0.63751 0.51423 0.78315 0.0
H2225 H 0.67614 0.50758 0.85992 0.0
H2226 H 0.56515 0.52 0.80943 0.0
H2227 H 0.58403 0.54521 0.79362 0.0
H2228 H 0.58635 0.51358 0.78046 0.0
H2229 H 0.65125 0.51187 0.8994 0.0
H2230 H 0.62859 0.53917 0.89578 0.0
H2231 H 0.61387 0.50806 0.89823 0.0
H2232 H 0.57538 0.59643 0.88264 0.0
H2233 H 0.53564 0.52643 0.90429 0.0
H2234 H 0.60751 0.57397 0.82266 0.0
H2235 H 0.62998 0.57375 0.8511 0.0
H2236 H 0.60559 0.59961 0.84632 0.0
H2237 H 0.56544 0.48938 0.84774 0.0
H2238 H 0.53764 0.49093 0.87201 0.0
H2239 H 0.573 0.48528 0.88246 0.0
C2240 C 0.47687 0.37828 0.19168 0.0
C2241 C 0.49623 0.35828 0.19439 0.0
C2242 C 0.48092 0.39752 0.17276 0.0
C2243 C 0.50439 0.39619 0.15568 0.0
C2244 C 0.52418 0.37622 0.15864 0.0
C2245 C 0.52005 0.35773 0.1782 0.0
C2246 C 0.45992 0.419 0.17074 0.0
C2247 C 0.54924 0.37383 0.1405 0.0
C2248 C 0.50409 0.42499 0.08686 0.0
C2249 C 0.5233 0.44465 0.08994 0.0
C2250 C 0.49634 0.4099 0.10854 0.0
C2251 C 0.50798 0.4149 0.13387 0.0
C2252 C 0.52595 0.43593 0.13734 0.0
C2253 C 0.53379 0.45032 0.11518 0.0
C2254 C 0.47759 0.38738 0.10379 0.0
C2255 C 0.53825 0.44233 0.16409 0.0
H2256 H 0.4585 0.37883 0.20429 0.0
H2257 H 0.53496 0.3422 0.18008 0.0
H2258 H 0.47078 0.43756 0.17144 0.0
H2259 H 0.44883 0.41798 0.15144 0.0
H2260 H 0.44416 0.41845 0.18692 0.0
H2261 H 0.56255 0.35706 0.14536 0.0
H2262 H 0.54215 0.3721 0.11961 0.0
H2263 H 0.56226 0.39113 0.14186 0.0
H2264 H 0.49683 0.42014 0.06716 0.0
H2265 H 0.54882 0.46552 0.11741 0.0
H2266 H 0.46075 0.38668 0.11888 0.0
H2267 H 0.49005 0.36958 0.10564 0.0
H2268 H 0.46784 0.38784 0.08377 0.0
H2269 H 0.54754 0.46163 0.16437 0.0
H2270 H 0.55494 0.42837 0.16907 0.0
H2271 H 0.52205 0.44123 0.17981 0.0
C2272 C 0.70994 0.46842 0.16328 0.0
C2273 C 0.6981 0.46975 0.18871 0.0
C2274 C 0.69354 0.47234 0.1406 0.0
C2275 C 0.66454 0.47713 0.14347 0.0
C2276 C 0.65199 0.47564 0.16885 0.0
C2277 C 0.66901 0.47229 0.19129 0.0
C2278 C 0.70777 0.47389 0.1139 0.0
C2279 C 0.62092 0.47964 0.17252 0.0
C2280 C 0.63257 0.52582 0.09721 0.0
C2281 C 0.61895 0.51056 0.07844 0.0
C2282 C 0.64755 0.51506 0.11826 0.0
C2283 C 0.64863 0.48829 0.12099 0.0
C2284 C 0.63516 0.47269 0.1021 0.0
C2285 C 0.62081 0.48407 0.08083 0.0
C2286 C 0.66222 0.53244 0.13762 0.0
C2287 C 0.63535 0.4441 0.10464 0.0
H2288 H 0.73239 0.46623 0.16109 0.0
H2289 H 0.65969 0.47287 0.21089 0.0
H2290 H 0.69575 0.46348 0.09859 0.0
H2291 H 0.70874 0.49409 0.10762 0.0
H2292 H 0.72942 0.46609 0.11447 0.0
H2293 H 0.6138 0.47329 0.1924 0.0
H2294 H 0.61582 0.50015 0.17041 0.0
H2295 H 0.60901 0.46924 0.1571 0.0
H2296 H 0.63149 0.54635 0.09558 0.0
H2297 H 0.61104 0.47215 0.06624 0.0
H2298 H 0.68481 0.52751 0.1386 0.0
H2299 H 0.65342 0.5299 0.1578 0.0
H2300 H 0.66011 0.5528 0.1321 0.0
H2301 H 0.65698 0.43682 0.10747 0.0
H2302 H 0.62612 0.43465 0.08699 0.0
H2303 H 0.62314 0.43858 0.12241 0.0
C2304 C 0.62228 0.66902 0.16482 0.0
C2305 C 0.60272 0.6865 0.17506 0.0
C2306 C 0.61386 0.64911 0.14803 0.0
C2307 C 0.58531 0.64694 0.14097 0.0
C2308 C 0.56545 0.66431 0.15156 0.0
C2309 C 0.57437 0.68373 0.16861 0.0
C2310 C 0.63549 0.63057 0.13763 0.0
C2311 C 0.53481 0.66277 0.14439 0.0
C2312 C 0.56115 0.61573 0.07721 0.0
C2313 C 0.54878 0.59362 0.0869 0.0
C2314 C 0.57477 0.63259 0.09441 0.0
C2315 C 0.57595 0.62707 0.12192 0.0
C2316 C 0.56505 0.60382 0.13143 0.0
C2317 C 0.55128 0.58748 0.11377 0.0
C2318 C 0.58594 0.6572 0.08342 0.0
C2319 C 0.56627 0.59692 0.16046 0.0
H2320 H 0.64421 0.67095 0.16983 0.0
H2321 H 0.55913 0.69717 0.17635 0.0
H2322 H 0.62918 0.6108 0.14221 0.0
H2323 H 0.63691 0.63214 0.11573 0.0
H2324 H 0.65654 0.63396 0.14621 0.0
H2325 H 0.52205 0.6777 0.15437 0.0
H2326 H 0.53221 0.66482 0.12261 0.0
H2327 H 0.52643 0.64391 0.14996 0.0
H2328 H 0.55842 0.62074 0.05653 0.0
H2329 H 0.54164 0.57029 0.1211 0.0
H2330 H 0.60763 0.6604 0.0904 0.0
H2331 H 0.57291 0.6733 0.09071 0.0
H2332 H 0.58581 0.65748 0.06137 0.0
H2333 H 0.58705 0.60145 0.16898 0.0
H2334 H 0.56198 0.57644 0.16373 0.0
H2335 H 0.55036 0.60819 0.17147 0.0
C2336 C 0.40192 0.57947 0.20463 0.0
C2337 C 0.39494 0.60461 0.19787 0.0
C2338 C 0.42001 0.56507 0.18861 0.0
C2339 C 0.43104 0.57603 0.16529 0.0
C2340 C 0.42751 0.6024 0.16069 0.0
C2341 C 0.40942 0.61644 0.17712 0.0
C2342 C 0.42543 0.53754 0.1954 0.0
C2343 C 0.44158 0.61556 0.13771 0.0
C2344 C 0.47806 0.53937 0.11765 0.0
C2345 C 0.45815 0.52873 0.10066 0.0
C2346 C 0.46971 0.55438 0.13935 0.0
C2347 C 0.44086 0.5592 0.1435 0.0
C2348 C 0.42077 0.54833 0.12619 0.0
C2349 C 0.42973 0.53298 0.1051 0.0
C2350 C 0.4918 0.5653 0.15735 0.0
C2351 C 0.38974 0.55286 0.12978 0.0
H2352 H 0.39162 0.57037 0.22122 0.0
H2353 H 0.40506 0.63619 0.17246 0.0
H2354 H 0.41199 0.52527 0.18291 0.0
H2355 H 0.44756 0.5323 0.1913 0.0
H2356 H 0.42073 0.53348 0.21655 0.0
H2357 H 0.43165 0.63422 0.13316 0.0
H2358 H 0.46377 0.619 0.14295 0.0
H2359 H 0.4414 0.6037 0.11952 0.0
H2360 H 0.50012 0.53596 0.11394 0.0
H2361 H 0.41454 0.52467 0.09173 0.0
H2362 H 0.51099 0.55325 0.15738 0.0
H2363 H 0.48425 0.5673 0.17806 0.0
H2364 H 0.4976 0.58443 0.15003 0.0
H2365 H 0.38238 0.54233 0.14747 0.0
H2366 H 0.37744 0.54643 0.11234 0.0
H2367 H 0.38522 0.57328 0.13318 0.0
C2368 C 0.85347 0.59555 0.68856 0.0
C2369 C 0.84339 0.58272 0.71085 0.0
C2370 C 0.87605 0.58565 0.67397 0.0
C2371 C 0.88938 0.56296 0.68255 0.0
C2372 C 0.88014 0.55071 0.70589 0.0
C2373 C 0.85679 0.56044 0.71946 0.0
C2374 C 0.88517 0.5991 0.64901 0.0
C2375 C 0.89494 0.5274 0.71651 0.0
C2376 C 0.92464 0.52285 0.62983 0.0
C2377 C 0.9521 0.53203 0.63042 0.0
C2378 C 0.90418 0.53252 0.64701 0.0
C2379 C 0.91162 0.55111 0.666 0.0
C2380 C 0.93975 0.55927 0.66787 0.0
C2381 C 0.95954 0.55006 0.64957 0.0
C2382 C 0.87428 0.52393 0.64373 0.0
C2383 C 0.94899 0.57841 0.68833 0.0
H2384 H 0.84311 0.61286 0.68207 0.0
H2385 H 0.84928 0.55087 0.73709 0.0
H2386 H 0.90722 0.60523 0.65103 0.0
H2387 H 0.88415 0.58587 0.63187 0.0
H2388 H 0.87201 0.61607 0.6446 0.0
H2389 H 0.88672 0.52153 0.73617 0.0
H2390 H 0.89252 0.51133 0.70247 0.0
H2391 H 0.91769 0.53114 0.7184 0.0
H2392 H 0.91864 0.50918 0.61479 0.0
H2393 H 0.98071 0.55721 0.65 0.0
H2394 H 0.8608 0.54046 0.6385 0.0
H2395 H 0.86628 0.51605 0.66263 0.0
H2396 H 0.87205 0.50923 0.62803 0.0
H2397 H 0.94863 0.59766 0.67936 0.0
H2398 H 0.97077 0.57436 0.69481 0.0
H2399 H 0.9353 0.57859 0.7061 0.0
C2400 C 0.58484 0.85649 0.67375 0.0
C2401 C 0.55974 0.84346 0.67789 0.0
C2402 C 0.58685 0.87544 0.65436 0.0
C2403 C 0.56322 0.88145 0.63858 0.0
C2404 C 0.53848 0.86707 0.64121 0.0
C2405 C 0.53696 0.84827 0.66096 0.0
C2406 C 0.61378 0.89006 0.65182 0.0
C2407 C 0.51331 0.87223 0.62389 0.0
C2408 C 0.56023 0.95044 0.61743 0.0
C2409 C 0.57305 0.94941 0.59247 0.0
C2410 C 0.55589 0.92826 0.63221 0.0
C2411 C 0.56383 0.9044 0.6214 0.0
C2412 C 0.57501 0.90311 0.59541 0.0
C2413 C 0.57994 0.92571 0.58141 0.0
C2414 C 0.5439 0.9305 0.65986 0.0
C2415 C 0.58299 0.87816 0.58258 0.0
H2416 H 0.60268 0.85268 0.68647 0.0
H2417 H 0.51756 0.83809 0.66379 0.0
H2418 H 0.6212 0.88955 0.63097 0.0
H2419 H 0.61006 0.91029 0.65715 0.0
H2420 H 0.6306 0.88235 0.6648 0.0
H2421 H 0.4973 0.85714 0.62572 0.0
H2422 H 0.50358 0.89065 0.62961 0.0
H2423 H 0.51969 0.87374 0.60277 0.0
H2424 H 0.55468 0.96871 0.62598 0.0
H2425 H 0.58942 0.92478 0.56188 0.0
H2426 H 0.55808 0.92122 0.67442 0.0
H2427 H 0.52351 0.92063 0.6608 0.0
H2428 H 0.54071 0.95059 0.66601 0.0
H2429 H 0.60572 0.8747 0.58548 0.0
H2430 H 0.57898 0.87884 0.56089 0.0
H2431 H 0.57139 0.86188 0.59101 0.0
C2432 C 0.2896 0.53019 0.66438 0.0
C2433 C 0.27759 0.54577 0.68391 0.0
C2434 C 0.27612 0.52654 0.6399 0.0
C2435 C 0.24937 0.53757 0.63566 0.0
C2436 C 0.23784 0.55425 0.65493 0.0
C2437 C 0.25243 0.55855 0.67861 0.0
C2438 C 0.28987 0.51001 0.61911 0.0
C2439 C 0.2091 0.56597 0.65154 0.0
C2440 C 0.20609 0.53833 0.57258 0.0
C2441 C 0.18875 0.51738 0.57687 0.0
C2442 C 0.2279 0.54395 0.5903 0.0
C2443 C 0.2315 0.52884 0.61334 0.0
C2444 C 0.21505 0.50681 0.61681 0.0
C2445 C 0.19429 0.50107 0.59821 0.0
C2446 C 0.24577 0.56691 0.58509 0.0
C2447 C 0.21746 0.49056 0.64145 0.0
H2448 H 0.30929 0.52057 0.66841 0.0
H2449 H 0.24312 0.57052 0.69381 0.0
H2450 H 0.27994 0.49104 0.61889 0.0
H2451 H 0.28712 0.51846 0.5991 0.0
H2452 H 0.31258 0.50735 0.62303 0.0
H2453 H 0.20341 0.57884 0.66821 0.0
H2454 H 0.20805 0.57695 0.63281 0.0
H2455 H 0.19321 0.55073 0.65027 0.0
H2456 H 0.20201 0.55079 0.55588 0.0
H2457 H 0.18078 0.48496 0.60169 0.0
H2458 H 0.26727 0.56428 0.59301 0.0
H2459 H 0.23628 0.58378 0.59489 0.0
H2460 H 0.24704 0.57101 0.56351 0.0
H2461 H 0.2393 0.48388 0.64421 0.0
H2462 H 0.20364 0.4737 0.6407 0.0
H2463 H 0.21175 0.50206 0.65915 0.0
C2464 C 0.42772 0.1622 0.64613 0.0
C2465 C 0.44545 0.17408 0.66449 0.0
C2466 C 0.43863 0.14682 0.6257 0.0
C2467 C 0.4679 0.14296 0.62382 0.0
C2468 C 0.48592 0.15569 0.64167 0.0
C2469 C 0.4745 0.17122 0.66163 0.0
C2470 C 0.41884 0.13414 0.60659 0.0
C2471 C 0.51727 0.15202 0.64045 0.0
C2472 C 0.49939 0.08222 0.59586 0.0
C2473 C 0.51026 0.09053 0.57167 0.0
C2474 C 0.48403 0.09871 0.61232 0.0
C2475 C 0.47983 0.12433 0.60451 0.0
C2476 C 0.48975 0.13256 0.5795 0.0
C2477 C 0.50504 0.11558 0.56344 0.0
C2478 C 0.47395 0.08912 0.63885 0.0
C2479 C 0.48552 0.15962 0.57034 0.0
H2480 H 0.40526 0.16448 0.64803 0.0
H2481 H 0.48839 0.1803 0.67569 0.0
H2482 H 0.42478 0.13885 0.58592 0.0
H2483 H 0.42039 0.11319 0.60867 0.0
H2484 H 0.39675 0.14006 0.60985 0.0
H2485 H 0.52845 0.16424 0.65491 0.0
H2486 H 0.52264 0.13187 0.6447 0.0
H2487 H 0.52509 0.15634 0.62025 0.0
H2488 H 0.50469 0.06339 0.60285 0.0
H2489 H 0.51366 0.12209 0.54477 0.0
H2490 H 0.45145 0.09373 0.64157 0.0
H2491 H 0.48562 0.09872 0.655 0.0
H2492 H 0.4769 0.06825 0.64098 0.0
H2493 H 0.46312 0.1651 0.57187 0.0
H2494 H 0.49255 0.16246 0.54956 0.0
H2495 H 0.49742 0.17267 0.58336 0.0
C2496 C 0.78231 0.47658 0.39841 0.0
C2497 C 0.78718 0.49124 0.37574 0.0
C2498 C 0.79877 0.47975 0.42126 0.0
C2499 C 0.82173 0.49662 0.42049 0.0
C2500 C 0.82549 0.51254 0.3981 0.0
C2501 C 0.8076 0.5101 0.37629 0.0
C2502 C 0.79229 0.46407 0.44549 0.0
C2503 C 0.84992 0.53053 0.39601 0.0
C2504 C 0.87559 0.51644 0.47093 0.0
C2505 C 0.89687 0.49876 0.46552 0.0
C2506 C 0.84917 0.51408 0.45905 0.0
C2507 C 0.84477 0.49454 0.44016 0.0
C2508 C 0.86555 0.4755 0.43642 0.0
C2509 C 0.8911 0.47754 0.44973 0.0
C2510 C 0.82681 0.53344 0.46567 0.0
C2511 C 0.86198 0.45422 0.41655 0.0
H2512 H 0.76615 0.46222 0.39806 0.0
H2513 H 0.8113 0.52139 0.35866 0.0
H2514 H 0.80069 0.44453 0.44283 0.0
H2515 H 0.80135 0.47236 0.4638 0.0
H2516 H 0.7693 0.46244 0.4481 0.0
H2517 H 0.85079 0.54023 0.37646 0.0
H2518 H 0.84837 0.54528 0.41164 0.0
H2519 H 0.86991 0.52003 0.39902 0.0
H2520 H 0.87982 0.53248 0.48382 0.0
H2521 H 0.90746 0.46362 0.44592 0.0
H2522 H 0.80558 0.52683 0.46019 0.0
H2523 H 0.83114 0.55145 0.45508 0.0
H2524 H 0.82714 0.53777 0.48725 0.0
H2525 H 0.84471 0.44171 0.42289 0.0
H2526 H 0.88117 0.44235 0.41446 0.0
H2527 H 0.8565 0.46203 0.39675 0.0
C2528 C 0.61521 0.84727 0.33594 0.0
C2529 C 0.5995 0.82634 0.32743 0.0
C2530 C 0.6049 0.86394 0.35547 0.0
C2531 C 0.57833 0.85951 0.36689 0.0
C2532 C 0.56323 0.83752 0.35964 0.0
C2533 C 0.57394 0.82124 0.33994 0.0
C2534 C 0.6217 0.88715 0.36255 0.0
C2535 C 0.53501 0.8319 0.37165 0.0
C2536 C 0.55422 0.89616 0.42807 0.0
C2537 C 0.53707 0.91499 0.41675 0.0
C2538 C 0.56832 0.87828 0.41211 0.0
C2539 C 0.56499 0.87911 0.38422 0.0
C2540 C 0.54814 0.89839 0.37268 0.0
C2541 C 0.53445 0.91609 0.38905 0.0
C2542 C 0.58659 0.8584 0.42509 0.0
C2543 C 0.54423 0.90012 0.34299 0.0
H2544 H 0.63502 0.85137 0.32647 0.0
H2545 H 0.56178 0.80499 0.33371 0.0
H2546 H 0.62068 0.89103 0.38413 0.0
H2547 H 0.64399 0.88505 0.35663 0.0
H2548 H 0.61278 0.90394 0.35217 0.0
H2549 H 0.52721 0.81285 0.36586 0.0
H2550 H 0.53613 0.83292 0.39361 0.0
H2551 H 0.51959 0.84644 0.36503 0.0
H2552 H 0.55654 0.89527 0.44944 0.0
H2553 H 0.52137 0.93064 0.38008 0.0
H2554 H 0.60787 0.85888 0.41638 0.0
H2555 H 0.578 0.83922 0.42125 0.0
H2556 H 0.58824 0.86127 0.44686 0.0
H2557 H 0.56485 0.90177 0.33307 0.0
H2558 H 0.531 0.91663 0.33712 0.0
H2559 H 0.5343 0.88251 0.33551 0.0
C2560 C 0.19854 0.58587 0.2921 0.0
C2561 C 0.21048 0.60959 0.29723 0.0
C2562 C 0.17877 0.57551 0.30946 0.0
C2563 C 0.17183 0.58869 0.33307 0.0
C2564 C 0.18363 0.61284 0.33817 0.0
C2565 C 0.20248 0.62324 0.31987 0.0
C2566 C 0.16522 0.55052 0.30254 0.0
C2567 C 0.17683 0.62737 0.36322 0.0
C2568 C 0.10857 0.57147 0.37498 0.0
C2569 C 0.12057 0.55448 0.39318 0.0
C2570 C 0.12469 0.58206 0.35455 0.0
C2571 C 0.15372 0.57647 0.35324 0.0
C2572 C 0.16587 0.55942 0.37174 0.0
C2573 C 0.14902 0.54824 0.39112 0.0
C2574 C 0.11048 0.59958 0.33496 0.0
C2575 C 0.1969 0.55369 0.37169 0.0
H2576 H 0.20431 0.5756 0.27422 0.0
H2577 H 0.21165 0.64167 0.32368 0.0
H2578 H 0.17163 0.53573 0.31702 0.0
H2579 H 0.14211 0.55248 0.30374 0.0
H2580 H 0.17095 0.54388 0.28232 0.0
H2581 H 0.18859 0.64545 0.36468 0.0
H2582 H 0.15412 0.63181 0.36387 0.0
H2583 H 0.1818 0.61552 0.38084 0.0
H2584 H 0.08658 0.57638 0.37664 0.0
H2585 H 0.15842 0.53543 0.40548 0.0
H2586 H 0.12174 0.60057 0.31575 0.0
H2587 H 0.10931 0.619 0.34353 0.0
H2588 H 0.08874 0.5933 0.33105 0.0
H2589 H 0.20311 0.54482 0.35259 0.0
H2590 H 0.20317 0.54071 0.38806 0.0
H2591 H 0.2088 0.57163 0.37369 0.0
C2592 C 0.47647 0.17 0.34083 0.0
C2593 C 0.48756 0.19458 0.34017 0.0
C2594 C 0.4819 0.15361 0.36208 0.0
C2595 C 0.4988 0.16196 0.3834 0.0
C2596 C 0.50952 0.18698 0.3833 0.0
C2597 C 0.50382 0.20303 0.3616 0.0
C2598 C 0.46989 0.1271 0.36139 0.0
C2599 C 0.52737 0.19655 0.40585 0.0
C2600 C 0.48691 0.11786 0.44079 0.0
C2601 C 0.5069 0.09883 0.43537 0.0
C2602 C 0.48595 0.14035 0.42594 0.0
C2603 C 0.50542 0.14382 0.40517 0.0
C2604 C 0.52777 0.12625 0.40201 0.0
C2605 C 0.52816 0.10381 0.41708 0.0
C2606 C 0.46222 0.15887 0.43072 0.0
C2607 C 0.54939 0.12952 0.38058 0.0
H2608 H 0.46378 0.16331 0.32446 0.0
H2609 H 0.51245 0.22202 0.36123 0.0
H2610 H 0.48709 0.11281 0.36176 0.0
H2611 H 0.45673 0.1239 0.37919 0.0
H2612 H 0.45694 0.1237 0.34346 0.0
H2613 H 0.53253 0.217 0.40365 0.0
H2614 H 0.51645 0.19379 0.42504 0.0
H2615 H 0.54716 0.18545 0.40675 0.0
H2616 H 0.47076 0.11449 0.45546 0.0
H2617 H 0.54381 0.08945 0.41294 0.0
H2618 H 0.44442 0.15389 0.41761 0.0
H2619 H 0.46841 0.17867 0.42619 0.0
H2620 H 0.45484 0.15799 0.45159 0.0
H2621 H 0.54072 0.12217 0.36168 0.0
H2622 H 0.56891 0.11884 0.38525 0.0
H2623 H 0.55466 0.1498 0.37761 0.0
C2624 C 0.69344 0.82136 0.47479 0.0
C2625 C 0.71888 0.83039 0.4848 0.0
C2626 C 0.67093 0.83806 0.46976 0.0
C2627 C 0.6741 0.86444 0.47453 0.0
C2628 C 0.69955 0.87352 0.4852 0.0
C2629 C 0.72152 0.85642 0.49027 0.0
C2630 C 0.64417 0.82746 0.45865 0.0
C2631 C 0.70389 0.90148 0.4906 0.0
C2632 C 0.63358 0.91507 0.43676 0.0
C2633 C 0.61481 0.92395 0.45611 0.0
C2634 C 0.65199 0.89478 0.44204 0.0
C2635 C 0.65166 0.88302 0.46729 0.0
C2636 C 0.63188 0.8911 0.48649 0.0
C2637 C 0.61363 0.91142 0.48065 0.0
C2638 C 0.67249 0.88649 0.42089 0.0
C2639 C 0.63071 0.87893 0.51356 0.0
H2640 H 0.69119 0.80127 0.47058 0.0
H2641 H 0.74105 0.86362 0.49808 0.0
H2642 H 0.6257 0.83634 0.46832 0.0
H2643 H 0.64311 0.83168 0.43713 0.0
H2644 H 0.64298 0.80653 0.4612 0.0
H2645 H 0.72455 0.90534 0.49981 0.0
H2646 H 0.70241 0.9123 0.47175 0.0
H2647 H 0.68726 0.90883 0.50397 0.0
H2648 H 0.63444 0.92443 0.41764 0.0
H2649 H 0.59898 0.91794 0.49564 0.0
H2650 H 0.66867 0.86635 0.41554 0.0
H2651 H 0.69423 0.88772 0.4285 0.0
H2652 H 0.67084 0.89824 0.40265 0.0
H2653 H 0.6273 0.85818 0.51152 0.0
H2654 H 0.6138 0.88714 0.52608 0.0
H2655 H 0.65095 0.88149 0.52398 0.0
C2656 C 0.69677 0.20035 0.48308 0.0
C2657 C 0.72391 0.19138 0.48826 0.0
C2658 C 0.67358 0.18431 0.48571 0.0
C2659 C 0.67776 0.15862 0.4932 0.0
C2660 C 0.70487 0.15001 0.50027 0.0
C2661 C 0.7276 0.16655 0.49788 0.0
C2662 C 0.64489 0.19437 0.47863 0.0
C2663 C 0.71032 0.12269 0.50801 0.0
C2664 C 0.61573 0.11443 0.50368 0.0
C2665 C 0.61345 0.10342 0.47845 0.0
C2666 C 0.63644 0.13269 0.50898 0.0
C2667 C 0.65521 0.13981 0.48856 0.0
C2668 C 0.65283 0.12872 0.46309 0.0
C2669 C 0.63196 0.11084 0.45836 0.0
C2670 C 0.63833 0.14414 0.53637 0.0
C2671 C 0.67235 0.13569 0.44067 0.0
H2672 H 0.69372 0.21965 0.47605 0.0
H2673 H 0.74849 0.15948 0.5021 0.0
H2674 H 0.63862 0.18681 0.45897 0.0
H2675 H 0.62916 0.18795 0.49331 0.0
H2676 H 0.64437 0.21546 0.47769 0.0
H2677 H 0.73149 0.11997 0.51671 0.0
H2678 H 0.6945 0.11612 0.52251 0.0
H2679 H 0.70866 0.11044 0.49015 0.0
H2680 H 0.6011 0.10913 0.51908 0.0
H2681 H 0.63039 0.1024 0.43879 0.0
H2682 H 0.64076 0.16507 0.53519 0.0
H2683 H 0.65704 0.1364 0.54668 0.0
H2684 H 0.6196 0.13985 0.54856 0.0
H2685 H 0.66931 0.15599 0.43539 0.0
H2686 H 0.66886 0.12402 0.4226 0.0
H2687 H 0.69444 0.13324 0.44696 0.0
C2688 C 0.89067 0.68268 0.45215 0.0
C2689 C 0.8698 0.69067 0.46994 0.0
C2690 C 0.91045 0.66402 0.45937 0.0
C2691 C 0.90909 0.65282 0.48484 0.0
C2692 C 0.88811 0.66084 0.50291 0.0
C2693 C 0.8688 0.67972 0.49528 0.0
C2694 C 0.93243 0.65605 0.4395 0.0
C2695 C 0.88591 0.64934 0.53026 0.0
C2696 C 0.93951 0.58711 0.49756 0.0
C2697 C 0.96397 0.59275 0.51157 0.0
C2698 C 0.922 0.60648 0.48783 0.0
C2699 C 0.92902 0.63219 0.49251 0.0
C2700 C 0.95422 0.63803 0.50595 0.0
C2701 C 0.97129 0.6182 0.51555 0.0
C2702 C 0.89538 0.59936 0.4736 0.0
C2703 C 0.96277 0.6652 0.51075 0.0
H2704 H 0.89167 0.69106 0.43254 0.0
H2705 H 0.85277 0.68578 0.50917 0.0
H2706 H 0.95319 0.6539 0.44911 0.0
H2707 H 0.92683 0.63731 0.43098 0.0
H2708 H 0.93419 0.66994 0.42302 0.0
H2709 H 0.86863 0.6579 0.54208 0.0
H2710 H 0.88233 0.62858 0.52862 0.0
H2711 H 0.90582 0.65196 0.54121 0.0
H2712 H 0.93332 0.56753 0.49533 0.0
H2713 H 0.9902 0.62259 0.52648 0.0
H2714 H 0.89368 0.60976 0.45453 0.0
H2715 H 0.87706 0.60491 0.48588 0.0
H2716 H 0.89425 0.57864 0.46948 0.0
H2717 H 0.96297 0.67583 0.49174 0.0
H2718 H 0.98378 0.66654 0.52006 0.0
H2719 H 0.94729 0.6747 0.52391 0.0
C2720 C 0.36582 0.8176 0.55069 0.0
C2721 C 0.34146 0.83232 0.55413 0.0
C2722 C 0.39216 0.82917 0.54818 0.0
C2723 C 0.3941 0.85601 0.54924 0.0
C2724 C 0.36958 0.87087 0.55284 0.0
C2725 C 0.34365 0.85887 0.55519 0.0
C2726 C 0.41786 0.81275 0.5443 0.0
C2727 C 0.37069 0.89955 0.55422 0.0
C2728 C 0.45885 0.89278 0.56809 0.0
C2729 C 0.46614 0.90376 0.5437 0.0
C2730 C 0.43667 0.87556 0.56994 0.0
C2731 C 0.42155 0.86899 0.5468 0.0
C2732 C 0.43045 0.87821 0.52181 0.0
C2733 C 0.45262 0.89554 0.52056 0.0
C2734 C 0.42798 0.86614 0.59697 0.0
C2735 C 0.41515 0.87141 0.49661 0.0
H2736 H 0.3643 0.79708 0.54979 0.0
H2737 H 0.325 0.87043 0.55788 0.0
H2738 H 0.42838 0.81787 0.52545 0.0
H2739 H 0.43302 0.81619 0.56055 0.0
H2740 H 0.41283 0.79217 0.54382 0.0
H2741 H 0.34969 0.90832 0.55715 0.0
H2742 H 0.38441 0.90551 0.57083 0.0
H2743 H 0.37979 0.90721 0.53566 0.0
H2744 H 0.46935 0.89877 0.58608 0.0
H2745 H 0.45832 0.90367 0.50158 0.0
H2746 H 0.42383 0.84543 0.59646 0.0
H2747 H 0.40828 0.87584 0.60301 0.0
H2748 H 0.44412 0.86995 0.61231 0.0
H2749 H 0.41068 0.85076 0.49594 0.0
H2750 H 0.42724 0.87664 0.47863 0.0
H2751 H 0.39478 0.88167 0.49606 0.0
C2752 C 0.18957 0.33157 0.53373 0.0
C2753 C 0.20652 0.32192 0.51327 0.0
C2754 C 0.17561 0.35504 0.53104 0.0
C2755 C 0.17916 0.36939 0.50755 0.0
C2756 C 0.19647 0.35985 0.48697 0.0
C2757 C 0.20975 0.33616 0.49 0.0
C2758 C 0.15696 0.36442 0.55322 0.0
C2759 C 0.20096 0.37469 0.46171 0.0
C2760 C 0.12653 0.4196 0.48593 0.0
C2761 C 0.14012 0.44211 0.49313 0.0
C2762 C 0.13848 0.39576 0.49142 0.0
C2763 C 0.16479 0.39438 0.50427 0.0
C2764 C 0.17814 0.41702 0.51246 0.0
C2765 C 0.16556 0.44063 0.50692 0.0
C2766 C 0.12328 0.37207 0.48282 0.0
C2767 C 0.20625 0.41636 0.52613 0.0
H2768 H 0.18684 0.32059 0.55172 0.0
H2769 H 0.22288 0.32886 0.47415 0.0
H2770 H 0.16551 0.38222 0.56168 0.0
H2771 H 0.13579 0.36897 0.54544 0.0
H2772 H 0.15493 0.35026 0.56943 0.0
H2773 H 0.21556 0.36488 0.44787 0.0
H2774 H 0.18068 0.3777 0.45141 0.0
H2775 H 0.20948 0.39373 0.46643 0.0
H2776 H 0.10664 0.4206 0.47571 0.0
H2777 H 0.17611 0.45794 0.51269 0.0
H2778 H 0.1208 0.35898 0.49988 0.0
H2779 H 0.13578 0.36188 0.46756 0.0
H2780 H 0.10227 0.37639 0.47444 0.0
H2781 H 0.20557 0.40365 0.54365 0.0
H2782 H 0.213 0.43552 0.5327 0.0
H2783 H 0.22225 0.40851 0.51237 0.0
C2784 C 0.34513 0.15171 0.53339 0.0
C2785 C 0.33661 0.16767 0.51262 0.0
C2786 C 0.36529 0.13263 0.52937 0.0
C2787 C 0.37776 0.12968 0.50405 0.0
C2788 C 0.36968 0.146 0.48304 0.0
C2789 C 0.34889 0.16463 0.48749 0.0
C2790 C 0.3727 0.11519 0.55217 0.0
C2791 C 0.38255 0.1436 0.45581 0.0
C2792 C 0.44648 0.09527 0.51238 0.0
C2793 C 0.43833 0.07004 0.5087 0.0
C2794 C 0.42767 0.11534 0.50792 0.0
C2795 C 0.39983 0.10986 0.50039 0.0
C2796 C 0.39234 0.08449 0.49424 0.0
C2797 C 0.41186 0.06475 0.49837 0.0
C2798 C 0.43687 0.14212 0.51385 0.0
C2799 C 0.36304 0.07796 0.48561 0.0
H2800 H 0.33547 0.15365 0.55275 0.0
H2801 H 0.34231 0.17682 0.4713 0.0
H2802 H 0.36563 0.09564 0.54755 0.0
H2803 H 0.39569 0.11429 0.555 0.0
H2804 H 0.36286 0.12131 0.57112 0.0
H2805 H 0.37892 0.16094 0.44369 0.0
H2806 H 0.40539 0.13994 0.4571 0.0
H2807 H 0.37305 0.12726 0.4453 0.0
H2808 H 0.46716 0.09921 0.52015 0.0
H2809 H 0.4057 0.04514 0.49556 0.0
H2810 H 0.42904 0.14779 0.53374 0.0
H2811 H 0.42809 0.15568 0.49914 0.0
H2812 H 0.46003 0.14373 0.51381 0.0
H2813 H 0.34846 0.08067 0.50252 0.0
H2814 H 0.36148 0.05798 0.47862 0.0
H2815 H 0.35606 0.09083 0.46946 0.0
C2816 C 0.84234 0.35562 0.47516 0.0
C2817 C 0.82939 0.34448 0.49723 0.0
C2818 C 0.8587 0.37755 0.47795 0.0
C2819 C 0.86238 0.38835 0.50343 0.0
C2820 C 0.84822 0.37791 0.5255 0.0
C2821 C 0.83186 0.35616 0.52212 0.0
C2822 C 0.87317 0.38823 0.45384 0.0
C2823 C 0.85143 0.389 0.55299 0.0
C2824 C 0.92909 0.42176 0.523 0.0
C2825 C 0.92001 0.4471 0.52489 0.0
C2826 C 0.91087 0.40261 0.51464 0.0
C2827 C 0.88295 0.40898 0.50782 0.0
C2828 C 0.87421 0.43474 0.50794 0.0
C2829 C 0.89278 0.4535 0.51673 0.0
C2830 C 0.92114 0.37539 0.51435 0.0
C2831 C 0.84495 0.44236 0.49976 0.0
H2832 H 0.84042 0.34681 0.4558 0.0
H2833 H 0.82177 0.34782 0.53924 0.0
H2834 H 0.87408 0.40928 0.45462 0.0
H2835 H 0.89498 0.38091 0.45315 0.0
H2836 H 0.86252 0.38249 0.4352 0.0
H2837 H 0.83759 0.37969 0.56771 0.0
H2838 H 0.87344 0.38672 0.55967 0.0
H2839 H 0.84659 0.40965 0.55275 0.0
H2840 H 0.95021 0.4167 0.52891 0.0
H2841 H 0.8857 0.47309 0.51781 0.0
H2842 H 0.9167 0.36649 0.49485 0.0
H2843 H 0.90984 0.36433 0.52966 0.0
H2844 H 0.94395 0.37384 0.51833 0.0
H2845 H 0.83973 0.43383 0.48025 0.0
H2846 H 0.84237 0.46332 0.49836 0.0
H2847 H 0.82969 0.43503 0.51441 0.0
C2848 C 0.19469 0.69208 0.54958 0.0
C2849 C 0.19198 0.70155 0.57548 0.0
C2850 C 0.17763 0.67234 0.5404 0.0
C2851 C 0.1572 0.66188 0.55745 0.0
C2852 C 0.15434 0.6713 0.58362 0.0
C2853 C 0.17183 0.69097 0.59237 0.0
C2854 C 0.18158 0.66259 0.51244 0.0
C2855 C 0.13312 0.66032 0.60248 0.0
C2856 C 0.09985 0.62628 0.52127 0.0
C2857 C 0.10996 0.60122 0.52237 0.0
C2858 C 0.11417 0.64611 0.53395 0.0
C2859 C 0.13933 0.64073 0.54781 0.0
C2860 C 0.14877 0.61527 0.55012 0.0
C2861 C 0.13415 0.59593 0.53707 0.0
C2862 C 0.10308 0.67294 0.5315 0.0
C2863 C 0.17529 0.60838 0.56483 0.0
H2864 H 0.21021 0.70009 0.5364 0.0
H2865 H 0.16959 0.69814 0.61243 0.0
H2866 H 0.18722 0.64209 0.51292 0.0
H2867 H 0.16171 0.66445 0.5012 0.0
H2868 H 0.19818 0.67295 0.50159 0.0
H2869 H 0.13149 0.67141 0.62119 0.0
H2870 H 0.11221 0.65968 0.59297 0.0
H2871 H 0.13912 0.64046 0.60744 0.0
H2872 H 0.08109 0.63049 0.50994 0.0
H2873 H 0.14261 0.57687 0.53715 0.0
H2874 H 0.11743 0.68423 0.51894 0.0
H2875 H 0.10222 0.68219 0.55128 0.0
H2876 H 0.08186 0.6736 0.52252 0.0
H2877 H 0.19335 0.61006 0.55113 0.0
H2878 H 0.17464 0.5885 0.57215 0.0
H2879 H 0.17898 0.62112 0.582 0.0
loop_
_geom_bond_atom_site_label_1
_geom_bond_atom_site_label_2
_geom_bond_distance
_geom_bond_site_symmetry_2
_ccdc_geom_bond_type
O0 Cd1 2.300 . S
O0 C7 1.275 . S
Cd1 O0 2.300 . S
Cd1 O9 2.381 . S
Cd1 O10 2.378 . S
O2 Cd3 2.385 1_455 S
O2 C7 1.255 . S
Cd3 O2 2.385 1_655 S
Cd3 O4 2.317 1_655 S
O4 Cd3 2.317 1_455 S
O4 C5 1.232 . S
C5 O4 1.232 . S
C5 O6 1.218 . S
O6 C5 1.218 . S
C7 O0 1.275 . S
C7 O2 1.255 . S
C8 O9 1.258 . S
C8 O10 1.256 . S
O9 Cd1 2.381 . S
O9 C8 1.258 . S
O10 Cd1 2.378 . S
O10 C8 1.256 . S
O11 Cd12 2.300 . S
O11 C18 1.275 . S
Cd12 O11 2.300 . S
Cd12 O20 2.381 . S
Cd12 O21 2.378 . S
O13 Cd14 2.385 . S
O13 C18 1.255 . S
Cd14 O13 2.385 . S
Cd14 O15 2.317 . S
O15 Cd14 2.317 . S
O15 C16 1.232 . S
C16 O15 1.232 . S
C16 O17 1.218 . S
O17 C16 1.218 . S
C18 O11 1.275 . S
C18 O13 1.255 . S
C19 O20 1.258 . S
C19 O21 1.256 . S
O20 Cd12 2.381 . S
O20 C19 1.258 . S
O21 Cd12 2.378 . S
O21 C19 1.256 . S
O22 Cd23 2.300 . S
O22 C29 1.275 . S
Cd23 O22 2.300 . S
Cd23 O31 2.381 . S
Cd23 O32 2.378 . S
O24 Cd25 2.385 . S
O24 C29 1.255 . S
Cd25 O24 2.385 . S
Cd25 O26 2.317 . S
O26 Cd25 2.317 . S
O26 C27 1.232 . S
C27 O26 1.232 . S
C27 O28 1.218 . S
O28 C27 1.218 . S
C29 O22 1.275 . S
C29 O24 1.255 . S
C30 O31 1.258 . S
C30 O32 1.256 . S
O31 Cd23 2.381 . S
O31 C30 1.258 . S
O32 Cd23 2.378 . S
O32 C30 1.256 . S
O33 Cd34 2.300 1_545 S
O33 C40 1.279 . S
Cd34 O33 2.300 1_565 S
Cd34 O42 2.381 1_565 S
Cd34 O43 2.378 . S
O35 Cd36 2.385 . S
O35 C40 1.249 1_565 S
Cd36 O35 2.385 . S
Cd36 O37 2.317 . S
O37 Cd36 2.317 . S
O37 C38 1.232 . S
C38 O37 1.232 . S
C38 O39 1.218 . S
O39 C38 1.218 . S
C40 O33 1.279 . S
C40 O35 1.249 1_545 S
C41 O42 1.258 . S
C41 O43 1.256 1_545 S
O42 Cd34 2.381 1_545 S
O42 C41 1.258 . S
O43 Cd34 2.378 . S
O43 C41 1.256 1_565 S
O44 Cd45 2.300 1_455 S
O44 C51 1.275 1_455 S
Cd45 O44 2.300 1_655 S
Cd45 O53 2.381 1_655 S
Cd45 O54 2.378 . S
O46 Cd47 2.385 . S
O46 C51 1.255 . S
Cd47 O46 2.385 . S
Cd47 O48 2.317 . S
O48 Cd47 2.317 . S
O48 C49 1.232 . S
C49 O48 1.232 . S
C49 O50 1.218 . S
O50 C49 1.218 . S
C51 O44 1.275 1_655 S
C51 O46 1.255 . S
C52 O53 1.258 1_655 S
C52 O54 1.256 . S
O53 Cd45 2.381 1_455 S
O53 C52 1.258 1_455 S
O54 Cd45 2.378 . S
O54 C52 1.256 . S
O55 Cd56 2.300 . S
O55 C62 1.275 . S
Cd56 O55 2.300 . S
Cd56 O64 2.381 1_545 S
Cd56 O65 2.378 . S
O57 Cd58 2.385 . S
O57 C62 1.255 . S
Cd58 O57 2.385 . S
Cd58 O59 2.317 . S
O59 Cd58 2.317 . S
O59 C60 1.232 . S
C60 O59 1.232 . S
C60 O61 1.218 . S
O61 C60 1.218 . S
C62 O55 1.275 . S
C62 O57 1.255 . S
C63 O64 1.258 1_545 S
C63 O65 1.256 . S
O64 Cd56 2.381 1_565 S
O64 C63 1.258 1_565 S
O65 Cd56 2.378 . S
O65 C63 1.256 . S
O66 Cd67 2.300 . S
O66 C73 1.275 . S
Cd67 O66 2.300 . S
Cd67 O75 2.381 . S
Cd67 O76 2.378 . S
O68 Cd69 2.385 . S
O68 C73 1.255 . S
Cd69 O68 2.385 . S
Cd69 O70 2.317 . S
O70 Cd69 2.317 . S
O70 C71 1.232 . S
C71 O70 1.232 . S
C71 O72 1.218 . S
O72 C71 1.218 . S
C73 O66 1.275 . S
C73 O68 1.255 . S
C74 O75 1.258 . S
C74 O76 1.256 . S
O75 Cd67 2.381 . S
O75 C74 1.258 . S
O76 Cd67 2.378 . S
O76 C74 1.256 . S
O77 Cd78 2.300 . S
O77 C84 1.275 . S
Cd78 O77 2.300 . S
Cd78 O86 2.381 . S
Cd78 O87 2.378 . S
O79 Cd80 2.385 1_545 S
O79 C84 1.255 . S
Cd80 O79 2.385 1_565 S
Cd80 O81 2.317 1_565 S
O81 Cd80 2.317 1_545 S
O81 C82 1.232 . S
C82 O81 1.232 . S
C82 O83 1.218 . S
O83 C82 1.218 . S
C84 O77 1.275 . S
C84 O79 1.255 . S
C85 O86 1.258 . S
C85 O87 1.256 . S
O86 Cd78 2.381 . S
O86 C85 1.258 . S
O87 Cd78 2.378 . S
O87 C85 1.256 . S
O88 Cd89 2.300 . S
O88 C95 1.275 . S
Cd89 O88 2.300 . S
Cd89 O97 2.381 . S
Cd89 O98 2.378 . S
O90 Cd91 2.385 . S
O90 C95 1.255 . S
Cd91 O90 2.385 . S
Cd91 O92 2.317 . S
O92 Cd91 2.317 . S
O92 C93 1.232 . S
C93 O92 1.232 . S
C93 O94 1.218 . S
O94 C93 1.218 . S
C95 O88 1.275 . S
C95 O90 1.255 . S
C96 O97 1.258 . S
C96 O98 1.256 . S
O97 Cd89 2.381 . S
O97 C96 1.258 . S
O98 Cd89 2.378 . S
O98 C96 1.256 . S
O99 Cd100 2.300 1_554 S
O99 C106 1.275 . S
Cd100 O99 2.300 1_556 S
Cd100 O108 2.381 1_556 S
Cd100 O109 2.378 . S
O101 Cd102 2.385 . S
O101 C106 1.255 1_556 S
Cd102 O101 2.385 . S
Cd102 O103 2.317 . S
O103 Cd102 2.317 . S
O103 C104 1.232 1_556 S
C104 O103 1.232 1_554 S
C104 O105 1.218 1_554 S
O105 C104 1.218 1_556 S
C106 O99 1.275 . S
C106 O101 1.255 1_554 S
C107 O108 1.258 . S
C107 O109 1.256 1_554 S
O108 Cd100 2.381 1_554 S
O108 C107 1.258 . S
O109 Cd100 2.378 . S
O109 C107 1.256 1_556 S
O110 Cd111 2.300 1_554 S
O110 C117 1.275 1_554 S
Cd111 O110 2.300 1_556 S
Cd111 O119 2.381 1_556 S
Cd111 O120 2.378 . S
O112 Cd113 2.385 . S
O112 C117 1.255 . S
Cd113 O112 2.385 . S
Cd113 O114 2.317 . S
O114 Cd113 2.317 . S
O114 C115 1.232 . S
C115 O114 1.232 . S
C115 O116 1.218 . S
O116 C115 1.218 . S
C117 O110 1.275 1_556 S
C117 O112 1.255 . S
C118 O119 1.258 1_556 S
C118 O120 1.256 . S
O119 Cd111 2.381 1_554 S
O119 C118 1.258 1_554 S
O120 Cd111 2.378 . S
O120 C118 1.256 . S
O121 Cd122 2.279 1_556 S
O121 C128 1.258 1_556 S
Cd122 O121 2.279 1_554 S
Cd122 O130 2.381 1_554 S
Cd122 O131 2.378 . S
O123 Cd124 2.385 . S
O123 C128 1.255 . S
Cd124 O123 2.385 . S
Cd124 O125 2.317 . S
O125 Cd124 2.317 . S
O125 C126 1.232 . S
C126 O125 1.232 . S
C126 O127 1.218 . S
O127 C126 1.218 . S
C128 O121 1.258 1_554 S
C128 O123 1.255 . S
C129 O130 1.258 1_554 S
C129 O131 1.256 . S
O130 Cd122 2.381 1_556 S
O130 C129 1.258 1_556 S
O131 Cd122 2.378 . S
O131 C129 1.256 . S
O132 Cd133 2.300 . S
O132 C139 1.275 . S
Cd133 O132 2.300 . S
Cd133 O141 2.381 . S
Cd133 O142 2.378 . S
O134 Cd135 2.385 . S
O134 C139 1.255 . S
Cd135 O134 2.385 . S
Cd135 O136 2.317 . S
O136 Cd135 2.317 . S
O136 C137 1.232 . S
C137 O136 1.232 . S
C137 O138 1.218 . S
O138 C137 1.218 . S
C139 O132 1.275 . S
C139 O134 1.255 . S
C140 O141 1.258 . S
C140 O142 1.256 . S
O141 Cd133 2.381 . S
O141 C140 1.258 . S
O142 Cd133 2.378 . S
O142 C140 1.256 . S
O143 Cd144 2.300 . S
O143 C150 1.275 . S
Cd144 O143 2.300 . S
Cd144 O152 2.381 . S
Cd144 O153 2.378 . S
O145 Cd146 2.385 . S
O145 C150 1.255 . S
Cd146 O145 2.385 . S
Cd146 O147 2.317 . S
O147 Cd146 2.317 . S
O147 C148 1.232 . S
C148 O147 1.232 . S
C148 O149 1.218 . S
O149 C148 1.218 . S
C150 O143 1.275 . S
C150 O145 1.255 . S
C151 O152 1.258 . S
C151 O153 1.256 . S
O152 Cd144 2.381 . S
O152 C151 1.258 . S
O153 Cd144 2.378 . S
O153 C151 1.256 . S
O154 Cd155 2.300 . S
O154 C161 1.275 . S
Cd155 O154 2.300 . S
Cd155 O163 2.381 . S
Cd155 O164 2.378 . S
O156 Cd157 2.385 . S
O156 C161 1.255 . S
Cd157 O156 2.385 . S
Cd157 O158 2.317 . S
O158 Cd157 2.317 . S
O158 C159 1.232 . S
C159 O158 1.232 . S
C159 O160 1.218 . S
O160 C159 1.218 . S
C161 O154 1.275 . S
C161 O156 1.255 . S
C162 O163 1.258 . S
C162 O164 1.256 . S
O163 Cd155 2.381 . S
O163 C162 1.258 . S
O164 Cd155 2.378 . S
O164 C162 1.256 . S
O165 Cd166 2.300 . S
O165 C172 1.275 . S
Cd166 O165 2.300 . S
Cd166 O174 2.381 . S
Cd166 O175 2.378 . S
O167 Cd168 2.385 . S
O167 C172 1.255 . S
Cd168 O167 2.385 . S
Cd168 O169 2.317 . S
O169 Cd168 2.317 . S
O169 C170 1.232 . S
C170 O169 1.232 . S
C170 O171 1.218 . S
O171 C170 1.218 . S
C172 O165 1.275 . S
C172 O167 1.255 . S
C173 O174 1.258 . S
C173 O175 1.256 . S
O174 Cd166 2.381 . S
O174 C173 1.258 . S
O175 Cd166 2.378 . S
O175 C173 1.256 . S
O176 Cd177 2.300 . S
O176 C183 1.275 . S
Cd177 O176 2.300 . S
Cd177 O185 2.381 . S
Cd177 O186 2.378 . S
O178 Cd179 2.385 . S
O178 C183 1.255 . S
Cd179 O178 2.385 . S
Cd179 O180 2.317 . S
O180 Cd179 2.317 . S
O180 C181 1.232 . S
C181 O180 1.232 . S
C181 O182 1.218 . S
O182 C181 1.218 . S
C183 O176 1.275 . S
C183 O178 1.255 . S
C184 O185 1.258 . S
C184 O186 1.256 . S
O185 Cd177 2.381 . S
O185 C184 1.258 . S
O186 Cd177 2.378 . S
O186 C184 1.256 . S
O187 Cd188 2.300 . S
O187 C194 1.275 . S
Cd188 O187 2.300 . S
Cd188 O196 2.381 . S
Cd188 O197 2.378 . S
O189 Cd190 2.385 . S
O189 C194 1.255 . S
Cd190 O189 2.385 . S
Cd190 O191 2.317 . S
O191 Cd190 2.317 . S
O191 C192 1.232 . S
C192 O191 1.232 . S
C192 O193 1.218 . S
O193 C192 1.218 . S
C194 O187 1.275 . S
C194 O189 1.255 . S
C195 O196 1.258 . S
C195 O197 1.256 . S
O196 Cd188 2.381 . S
O196 C195 1.258 . S
O197 Cd188 2.378 . S
O197 C195 1.256 . S
O198 Cd199 2.300 . S
O198 C205 1.275 . S
Cd199 O198 2.300 . S
Cd199 O207 2.381 . S
Cd199 O208 2.378 . S
O200 Cd201 2.385 . S
O200 C205 1.255 . S
Cd201 O200 2.385 . S
Cd201 O202 2.317 . S
O202 Cd201 2.317 . S
O202 C203 1.232 . S
C203 O202 1.232 . S
C203 O204 1.218 . S
O204 C203 1.218 . S
C205 O198 1.275 . S
C205 O200 1.255 . S
C206 O207 1.258 . S
C206 O208 1.256 . S
O207 Cd199 2.381 . S
O207 C206 1.258 . S
O208 Cd199 2.378 . S
O208 C206 1.256 . S
O209 Cd210 2.300 . S
O209 C216 1.275 . S
Cd210 O209 2.300 . S
Cd210 O218 2.381 . S
Cd210 O219 2.378 . S
O211 Cd212 2.385 . S
O211 C216 1.255 . S
Cd212 O211 2.385 . S
Cd212 O213 2.317 . S
O213 Cd212 2.317 . S
O213 C214 1.232 . S
C214 O213 1.232 . S
C214 O215 1.218 . S
O215 C214 1.218 . S
C216 O209 1.275 . S
C216 O211 1.255 . S
C217 O218 1.258 . S
C217 O219 1.256 . S
O218 Cd210 2.381 . S
O218 C217 1.258 . S
O219 Cd210 2.378 . S
O219 C217 1.256 . S
O220 Cd221 2.300 . S
O220 C227 1.275 . S
Cd221 O220 2.300 . S
Cd221 O229 2.381 . S
Cd221 O230 2.378 . S
O222 Cd223 2.385 . S
O222 C227 1.255 . S
Cd223 O222 2.385 . S
Cd223 O224 2.317 . S
O224 Cd223 2.317 . S
O224 C225 1.232 . S
C225 O224 1.232 . S
C225 O226 1.218 . S
O226 C225 1.218 . S
C227 O220 1.275 . S
C227 O222 1.255 . S
C228 O229 1.258 . S
C228 O230 1.256 . S
O229 Cd221 2.381 . S
O229 C228 1.258 . S
O230 Cd221 2.378 . S
O230 C228 1.256 . S
O231 Cd232 2.300 . S
O231 C238 1.275 . S
Cd232 O231 2.300 . S
Cd232 O240 2.381 . S
Cd232 O241 2.378 . S
O233 Cd234 2.385 . S
O233 C238 1.255 . S
Cd234 O233 2.385 . S
Cd234 O235 2.317 . S
O235 Cd234 2.317 . S
O235 C236 1.232 . S
C236 O235 1.232 . S
C236 O237 1.218 . S
O237 C236 1.218 . S
C238 O231 1.275 . S
C238 O233 1.255 . S
C239 O240 1.258 . S
C239 O241 1.256 . S
O240 Cd232 2.381 . S
O240 C239 1.258 . S
O241 Cd232 2.378 . S
O241 C239 1.256 . S
O242 Cd243 2.300 . S
O242 C249 1.275 . S
Cd243 O242 2.300 . S
Cd243 O251 2.381 . S
Cd243 O252 2.378 . S
O244 Cd245 2.385 . S
O244 C249 1.255 . S
Cd245 O244 2.385 . S
Cd245 O246 2.317 . S
O246 Cd245 2.317 . S
O246 C247 1.232 . S
C247 O246 1.232 . S
C247 O248 1.218 . S
O248 C247 1.218 . S
C249 O242 1.275 . S
C249 O244 1.255 . S
C250 O251 1.258 . S
C250 O252 1.256 . S
O251 Cd243 2.381 . S
O251 C250 1.258 . S
O252 Cd243 2.378 . S
O252 C250 1.256 . S
O253 Cd254 2.300 . S
O253 C260 1.275 . S
Cd254 O253 2.300 . S
Cd254 O262 2.381 . S
Cd254 O263 2.378 . S
O255 Cd256 2.385 . S
O255 C260 1.255 . S
Cd256 O255 2.385 . S
Cd256 O257 2.317 . S
O257 Cd256 2.317 . S
O257 C258 1.232 . S
C258 O257 1.232 . S
C258 O259 1.218 . S
O259 C258 1.218 . S
C260 O253 1.275 . S
C260 O255 1.255 . S
C261 O262 1.258 . S
C261 O263 1.256 . S
O262 Cd254 2.381 . S
O262 C261 1.258 . S
O263 Cd254 2.378 . S
O263 C261 1.256 . S
Zn264 O266 1.946 1_565 S
Zn264 O284 1.985 1_565 S
Zn264 O295 1.955 . S
Zn265 O266 1.928 . S
Zn265 O285 1.970 . S
Zn265 O301 1.945 . S
Zn265 O308 1.981 . S
O266 Zn264 1.946 1_545 S
O266 Zn265 1.928 . S
O266 H267 0.802 1_655 S
H267 O266 0.802 1_455 S
C268 O269 1.246 . S
C268 O297 1.276 . S
O269 C268 1.246 . S
Zn270 O272 1.911 . S
Zn270 O287 1.970 . S
Zn270 O304 1.945 . S
Zn270 O311 1.981 . S
Zn271 O272 1.933 1_565 S
Zn271 O286 1.985 . S
Zn271 O293 1.955 . S
O272 Zn270 1.911 . S
O272 Zn271 1.933 1_545 S
O272 H273 0.841 . S
H273 O272 0.841 . S
Zn274 O275 1.933 1_565 S
Zn274 O288 1.985 1_565 S
Zn274 O297 1.955 . S
O275 Zn274 1.933 1_545 S
O275 Zn276 1.911 . S
O275 H277 0.841 . S
Zn276 O275 1.911 . S
Zn276 O289 1.970 . S
Zn276 O305 1.981 1_655 S
Zn276 O307 1.945 . S
H277 O275 0.841 . S
Zn278 O279 1.933 1_565 S
Zn278 O291 1.985 . S
Zn278 O299 1.955 . S
O279 Zn278 1.933 1_545 S
O279 H280 0.841 . S
O279 Zn281 1.911 . S
H280 O279 0.841 . S
Zn281 O279 1.911 . S
Zn281 O292 1.970 . S
Zn281 O302 1.981 . S
Zn281 O310 1.945 . S
C282 O283 1.246 . S
C282 O299 1.276 . S
O283 C282 1.246 . S
O284 Zn264 1.985 1_545 S
O284 C294 1.245 . S
O285 Zn265 1.970 . S
O285 C294 1.263 . S
O286 Zn271 1.985 . S
O286 C298 1.245 1_565 S
O287 Zn270 1.970 . S
O287 C298 1.263 . S
O288 Zn274 1.985 1_545 S
O288 C303 1.245 . S
O289 Zn276 1.970 . S
O289 C303 1.263 . S
C290 O301 1.262 1_455 S
C290 O302 1.245 . S
O291 Zn278 1.985 . S
O291 C309 1.245 1_565 S
O292 Zn281 1.970 . S
O292 C309 1.263 . S
O293 Zn271 1.955 . S
O293 C312 1.276 . S
C294 O284 1.245 . S
C294 O285 1.263 . S
O295 Zn264 1.955 . S
O295 C314 1.276 1_655 S
C296 O304 1.262 . S
C296 O305 1.245 . S
O297 C268 1.276 . S
O297 Zn274 1.955 . S
C298 O286 1.245 1_545 S
C298 O287 1.263 . S
O299 Zn278 1.955 . S
O299 C282 1.276 . S
C300 O307 1.262 . S
C300 O308 1.245 . S
O301 Zn265 1.945 . S
O301 C290 1.262 1_655 S
O302 Zn281 1.981 . S
O302 C290 1.245 . S
C303 O288 1.245 . S
C303 O289 1.263 . S
O304 Zn270 1.945 . S
O304 C296 1.262 . S
O305 Zn276 1.981 1_455 S
O305 C296 1.245 . S
C306 O310 1.262 . S
C306 O311 1.245 . S
O307 Zn276 1.945 . S
O307 C300 1.262 . S
O308 Zn265 1.981 . S
O308 C300 1.245 . S
C309 O291 1.245 1_545 S
C309 O292 1.263 . S
O310 Zn281 1.945 . S
O310 C306 1.262 . S
O311 Zn270 1.981 . S
O311 C306 1.245 . S
C312 O293 1.276 . S
C312 O313 1.246 . S
O313 C312 1.246 . S
C314 O295 1.276 1_455 S
C314 O315 1.246 . S
O315 C314 1.246 . S
Zn316 O318 1.933 . S
Zn316 O336 1.985 . S
Zn316 O347 1.955 . S
Zn317 O318 1.911 1_556 S
Zn317 O337 1.970 . S
Zn317 O353 1.945 . S
Zn317 O360 1.981 . S
O318 Zn316 1.933 . S
O318 Zn317 1.911 1_554 S
O318 H319 0.841 . S
H319 O318 0.841 . S
C320 O321 1.246 . S
C320 O349 1.276 . S
O321 C320 1.246 . S
Zn322 O324 1.911 1_566 S
Zn322 O339 1.970 . S
Zn322 O356 1.945 . S
Zn322 O363 1.981 . S
Zn323 O324 1.933 1_565 S
Zn323 O338 1.985 . S
Zn323 O345 1.952 1_565 S
O324 Zn322 1.911 1_544 S
O324 Zn323 1.933 1_545 S
O324 H325 0.842 . S
H325 O324 0.842 . S
Zn326 O327 1.933 . S
Zn326 O340 1.985 . S
Zn326 O349 1.955 . S
O327 Zn326 1.933 . S
O327 Zn328 1.911 1_554 S
O327 H329 0.841 . S
Zn328 O327 1.911 1_556 S
Zn328 O341 1.970 . S
Zn328 O357 1.981 . S
Zn328 O359 1.945 . S
H329 O327 0.841 . S
Zn330 O331 1.933 . S
Zn330 O343 1.985 . S
Zn330 O351 1.955 . S
O331 Zn330 1.933 . S
O331 H332 0.841 . S
O331 Zn333 1.911 1_554 S
H332 O331 0.841 . S
Zn333 O331 1.911 1_556 S
Zn333 O344 1.970 . S
Zn333 O354 1.981 1_565 S
Zn333 O362 1.945 . S
C334 O335 1.246 . S
C334 O351 1.276 . S
O335 C334 1.246 . S
O336 Zn316 1.985 . S
O336 C346 1.245 . S
O337 Zn317 1.970 . S
O337 C346 1.263 1_556 S
O338 Zn323 1.985 . S
O338 C350 1.245 . S
O339 Zn322 1.970 . S
O339 C350 1.263 1_556 S
O340 Zn326 1.985 . S
O340 C355 1.245 . S
O341 Zn328 1.970 . S
O341 C355 1.263 1_556 S
C342 O353 1.262 . S
C342 O354 1.245 . S
O343 Zn330 1.985 . S
O343 C361 1.245 . S
O344 Zn333 1.970 . S
O344 C361 1.263 1_556 S
O345 Zn323 1.952 1_545 S
O345 C364 1.286 . S
C346 O336 1.245 . S
C346 O337 1.263 1_554 S
O347 Zn316 1.955 . S
O347 C366 1.276 . S
C348 O356 1.262 1_545 S
C348 O357 1.245 . S
O349 C320 1.276 . S
O349 Zn326 1.955 . S
C350 O338 1.245 . S
C350 O339 1.263 1_554 S
O351 Zn330 1.955 . S
O351 C334 1.276 . S
C352 O359 1.262 . S
C352 O360 1.245 . S
O353 Zn317 1.945 . S
O353 C342 1.262 . S
O354 Zn333 1.981 1_545 S
O354 C342 1.245 . S
C355 O340 1.245 . S
C355 O341 1.263 1_554 S
O356 Zn322 1.945 . S
O356 C348 1.262 1_565 S
O357 Zn328 1.981 . S
O357 C348 1.245 . S
C358 O362 1.262 . S
C358 O363 1.245 . S
O359 Zn328 1.945 . S
O359 C352 1.262 . S
O360 Zn317 1.981 . S
O360 C352 1.245 . S
C361 O343 1.245 . S
C361 O344 1.263 1_554 S
O362 Zn333 1.945 . S
O362 C358 1.262 . S
O363 Zn322 1.981 . S
O363 C358 1.245 . S
C364 O345 1.286 . S
C364 O365 1.246 . S
O365 C364 1.246 . S
C366 O347 1.276 . S
C366 O367 1.246 . S
O367 C366 1.246 . S
Zn368 O370 1.933 . S
Zn368 O388 1.985 . S
Zn368 O399 1.955 1_655 S
Zn369 O370 1.911 . S
Zn369 O389 1.970 . S
Zn369 O405 1.945 . S
Zn369 O412 1.981 . S
O370 Zn368 1.933 . S
O370 Zn369 1.911 . S
O370 H371 0.841 1_655 S
H371 O370 0.841 1_455 S
C372 O373 1.246 1_554 S
C372 O401 1.276 . S
O373 C372 1.246 1_556 S
Zn374 O376 1.911 . S
Zn374 O391 1.970 . S
Zn374 O408 1.945 . S
Zn374 O415 1.981 . S
Zn375 O376 1.933 . S
Zn375 O390 1.985 . S
Zn375 O397 1.955 . S
O376 Zn374 1.911 . S
O376 Zn375 1.933 . S
O376 H377 0.841 . S
H377 O376 0.841 . S
Zn378 O379 1.933 . S
Zn378 O392 1.985 . S
Zn378 O401 1.955 . S
O379 Zn378 1.933 . S
O379 Zn380 1.911 . S
O379 H381 0.841 . S
Zn380 O379 1.911 . S
Zn380 O393 1.970 . S
Zn380 O409 1.981 1_655 S
Zn380 O411 1.945 . S
H381 O379 0.841 . S
Zn382 O383 1.933 . S
Zn382 O395 1.985 . S
Zn382 O403 1.955 . S
O383 Zn382 1.933 . S
O383 H384 0.841 1_556 S
O383 Zn385 1.911 . S
H384 O383 0.841 1_554 S
Zn385 O383 1.911 . S
Zn385 O396 1.970 . S
Zn385 O406 1.981 . S
Zn385 O414 1.945 . S
C386 O387 1.246 . S
C386 O403 1.276 1_554 S
O387 C386 1.246 . S
O388 Zn368 1.985 . S
O388 C398 1.245 . S
O389 Zn369 1.970 . S
O389 C398 1.263 . S
O390 Zn375 1.985 . S
O390 C402 1.245 . S
O391 Zn374 1.970 . S
O391 C402 1.263 . S
O392 Zn378 1.985 . S
O392 C407 1.245 . S
O393 Zn380 1.970 . S
O393 C407 1.263 . S
C394 O405 1.262 1_455 S
C394 O406 1.245 . S
O395 Zn382 1.985 . S
O395 C413 1.245 . S
O396 Zn385 1.970 . S
O396 C413 1.263 . S
O397 Zn375 1.955 . S
O397 C416 1.276 . S
C398 O388 1.245 . S
C398 O389 1.263 . S
O399 Zn368 1.955 1_455 S
O399 C418 1.276 . S
C400 O408 1.262 . S
C400 O409 1.245 . S
O401 C372 1.276 . S
O401 Zn378 1.955 . S
C402 O390 1.245 . S
C402 O391 1.263 . S
O403 Zn382 1.955 . S
O403 C386 1.276 1_556 S
C404 O411 1.262 . S
C404 O412 1.245 1_554 S
O405 Zn369 1.945 . S
O405 C394 1.262 1_655 S
O406 Zn385 1.981 . S
O406 C394 1.245 . S
C407 O392 1.245 . S
C407 O393 1.263 . S
O408 Zn374 1.945 . S
O408 C400 1.262 . S
O409 Zn380 1.981 1_455 S
O409 C400 1.245 . S
C410 O414 1.262 1_554 S
C410 O415 1.245 . S
O411 Zn380 1.945 . S
O411 C404 1.262 . S
O412 Zn369 1.981 . S
O412 C404 1.245 1_556 S
C413 O395 1.245 . S
C413 O396 1.263 . S
O414 Zn385 1.945 . S
O414 C410 1.262 1_556 S
O415 Zn374 1.981 . S
O415 C410 1.245 . S
C416 O397 1.276 . S
C416 O417 1.246 . S
O417 C416 1.246 . S
C418 O399 1.276 . S
C418 O419 1.246 . S
O419 C418 1.246 . S
Zn420 O422 1.933 1_556 S
Zn420 O440 1.985 . S
Zn420 O451 1.955 . S
Zn421 O422 1.911 . S
Zn421 O441 1.970 . S
Zn421 O457 1.945 . S
Zn421 O464 1.981 . S
O422 Zn420 1.933 1_554 S
O422 Zn421 1.911 . S
O422 H423 0.841 . S
H423 O422 0.841 . S
C424 O425 1.246 . S
C424 O453 1.276 . S
O425 C424 1.246 . S
Zn426 O428 1.911 . S
Zn426 O443 1.970 . S
Zn426 O460 1.945 . S
Zn426 O467 1.981 . S
Zn427 O428 1.933 1_556 S
Zn427 O442 1.985 . S
Zn427 O449 1.955 . S
O428 Zn426 1.911 . S
O428 Zn427 1.933 1_554 S
O428 H429 0.841 . S
H429 O428 0.841 . S
Zn430 O431 1.933 1_556 S
Zn430 O444 1.985 . S
Zn430 O453 1.955 . S
O431 Zn430 1.933 1_554 S
O431 Zn432 1.911 . S
O431 H433 0.841 . S
Zn432 O431 1.911 . S
Zn432 O445 1.970 . S
Zn432 O461 1.981 . S
Zn432 O463 1.945 . S
H433 O431 0.841 . S
Zn434 O435 1.933 1_556 S
Zn434 O447 1.985 . S
Zn434 O455 1.955 . S
O435 Zn434 1.933 1_554 S
O435 H436 0.841 . S
O435 Zn437 1.911 . S
H436 O435 0.841 . S
Zn437 O435 1.911 . S
Zn437 O448 1.970 . S
Zn437 O458 1.981 . S
Zn437 O466 1.945 . S
C438 O439 1.246 . S
C438 O455 1.276 . S
O439 C438 1.246 . S
O440 Zn420 1.985 . S
O440 C450 1.245 1_556 S
O441 Zn421 1.970 . S
O441 C450 1.263 . S
O442 Zn427 1.985 . S
O442 C454 1.245 1_556 S
O443 Zn426 1.970 . S
O443 C454 1.263 . S
O444 Zn430 1.985 . S
O444 C459 1.245 1_556 S
O445 Zn432 1.970 . S
O445 C459 1.263 . S
C446 O457 1.262 . S
C446 O458 1.245 . S
O447 Zn434 1.985 . S
O447 C465 1.245 1_556 S
O448 Zn437 1.970 . S
O448 C465 1.263 . S
O449 Zn427 1.955 . S
O449 C468 1.276 . S
C450 O440 1.245 1_554 S
C450 O441 1.263 . S
O451 Zn420 1.955 . S
O451 C470 1.276 . S
C452 O460 1.262 . S
C452 O461 1.245 . S
O453 C424 1.276 . S
O453 Zn430 1.955 . S
C454 O442 1.245 1_554 S
C454 O443 1.263 . S
O455 Zn434 1.955 . S
O455 C438 1.276 . S
C456 O463 1.262 . S
C456 O464 1.245 . S
O457 Zn421 1.945 . S
O457 C446 1.262 . S
O458 Zn437 1.981 . S
O458 C446 1.245 . S
C459 O444 1.245 1_554 S
C459 O445 1.263 . S
O460 Zn426 1.945 . S
O460 C452 1.262 . S
O461 Zn432 1.981 . S
O461 C452 1.245 . S
C462 O466 1.262 . S
C462 O467 1.245 . S
O463 Zn432 1.945 . S
O463 C456 1.262 . S
O464 Zn421 1.981 . S
O464 C456 1.245 . S
C465 O447 1.245 1_554 S
C465 O448 1.263 . S
O466 Zn437 1.945 . S
O466 C462 1.262 . S
O467 Zn426 1.981 . S
O467 C462 1.245 . S
C468 O449 1.276 . S
C468 O469 1.246 . S
O469 C468 1.246 . S
C470 O451 1.276 . S
C470 O471 1.246 . S
O471 C470 1.246 . S
Zn472 O474 1.944 . S
Zn472 O492 1.985 . S
Zn472 O503 1.945 1_655 S
Zn473 O474 1.928 . S
Zn473 O493 1.970 . S
Zn473 O509 1.945 . S
Zn473 O516 1.981 . S
O474 Zn472 1.944 . S
O474 Zn473 1.928 . S
O474 H475 0.804 1_655 S
H475 O474 0.804 1_455 S
C476 O477 1.246 . S
C476 O505 1.276 . S
O477 C476 1.246 . S
Zn478 O480 1.911 . S
Zn478 O495 1.970 . S
Zn478 O512 1.945 . S
Zn478 O519 1.981 . S
Zn479 O480 1.933 . S
Zn479 O494 1.985 . S
Zn479 O501 1.955 . S
O480 Zn478 1.911 . S
O480 Zn479 1.933 . S
O480 H481 0.841 . S
H481 O480 0.841 . S
Zn482 O483 1.933 . S
Zn482 O496 1.985 . S
Zn482 O505 1.955 . S
O483 Zn482 1.933 . S
O483 Zn484 1.911 . S
O483 H485 0.841 . S
Zn484 O483 1.911 . S
Zn484 O497 1.970 . S
Zn484 O513 1.981 1_655 S
Zn484 O515 1.945 . S
H485 O483 0.841 . S
Zn486 O487 1.933 . S
Zn486 O499 1.985 . S
Zn486 O507 1.955 . S
O487 Zn486 1.933 . S
O487 H488 0.841 . S
O487 Zn489 1.911 . S
H488 O487 0.841 . S
Zn489 O487 1.911 . S
Zn489 O500 1.970 . S
Zn489 O510 1.981 . S
Zn489 O518 1.945 . S
C490 O491 1.246 . S
C490 O507 1.276 . S
O491 C490 1.246 . S
O492 Zn472 1.985 . S
O492 C502 1.245 . S
O493 Zn473 1.970 . S
O493 C502 1.263 . S
O494 Zn479 1.985 . S
O494 C506 1.245 . S
O495 Zn478 1.970 . S
O495 C506 1.263 . S
O496 Zn482 1.985 . S
O496 C511 1.245 . S
O497 Zn484 1.970 . S
O497 C511 1.263 . S
C498 O509 1.262 1_455 S
C498 O510 1.245 . S
O499 Zn486 1.985 . S
O499 C517 1.245 . S
O500 Zn489 1.970 . S
O500 C517 1.263 . S
O501 Zn479 1.955 . S
O501 C520 1.276 . S
C502 O492 1.245 . S
C502 O493 1.263 . S
O503 Zn472 1.945 1_455 S
O503 C522 1.309 . S
C504 O512 1.262 . S
C504 O513 1.245 . S
O505 C476 1.276 . S
O505 Zn482 1.955 . S
C506 O494 1.245 . S
C506 O495 1.263 . S
O507 Zn486 1.955 . S
O507 C490 1.276 . S
C508 O515 1.262 . S
C508 O516 1.245 . S
O509 Zn473 1.945 . S
O509 C498 1.262 1_655 S
O510 Zn489 1.981 . S
O510 C498 1.245 . S
C511 O496 1.245 . S
C511 O497 1.263 . S
O512 Zn478 1.945 . S
O512 C504 1.262 . S
O513 Zn484 1.981 1_455 S
O513 C504 1.245 . S
C514 O518 1.262 . S
C514 O519 1.245 . S
O515 Zn484 1.945 . S
O515 C508 1.262 . S
O516 Zn473 1.981 . S
O516 C508 1.245 . S
C517 O499 1.245 . S
C517 O500 1.263 . S
O518 Zn489 1.945 . S
O518 C514 1.262 . S
O519 Zn478 1.981 . S
O519 C514 1.245 . S
C520 O501 1.276 . S
C520 O521 1.246 . S
O521 C520 1.246 . S
C522 O503 1.309 . S
C522 O523 1.246 . S
O523 C522 1.246 . S
Zn524 O526 1.933 1_565 S
Zn524 O544 1.985 . S
Zn524 O555 1.955 . S
Zn525 O526 1.911 . S
Zn525 O545 1.970 . S
Zn525 O561 1.945 . S
Zn525 O568 1.981 . S
O526 Zn524 1.933 1_545 S
O526 Zn525 1.911 . S
O526 H527 0.841 . S
H527 O526 0.841 . S
C528 O529 1.246 . S
C528 O557 1.276 . S
O529 C528 1.246 . S
Zn530 O532 1.911 . S
Zn530 O547 1.970 . S
Zn530 O564 1.945 . S
Zn530 O571 1.981 . S
Zn531 O532 1.933 1_565 S
Zn531 O546 1.985 1_565 S
Zn531 O553 1.955 . S
O532 Zn530 1.911 . S
O532 Zn531 1.933 1_545 S
O532 H533 0.841 . S
H533 O532 0.841 . S
Zn534 O535 1.933 1_565 S
Zn534 O548 1.985 . S
Zn534 O557 1.955 . S
O535 Zn534 1.933 1_545 S
O535 Zn536 1.911 . S
O535 H537 0.841 . S
Zn536 O535 1.911 . S
Zn536 O549 1.970 . S
Zn536 O565 1.981 . S
Zn536 O567 1.945 . S
H537 O535 0.841 . S
Zn538 O539 1.933 1_565 S
Zn538 O551 1.985 1_565 S
Zn538 O559 1.955 . S
O539 Zn538 1.933 1_545 S
O539 H540 0.841 . S
O539 Zn541 1.911 . S
H540 O539 0.841 . S
Zn541 O539 1.911 . S
Zn541 O552 1.970 . S
Zn541 O562 1.981 . S
Zn541 O570 1.945 . S
C542 O543 1.246 . S
C542 O559 1.276 . S
O543 C542 1.246 . S
O544 Zn524 1.985 . S
O544 C554 1.245 1_565 S
O545 Zn525 1.970 . S
O545 C554 1.263 . S
O546 Zn531 1.985 1_545 S
O546 C558 1.245 . S
O547 Zn530 1.970 . S
O547 C558 1.263 . S
O548 Zn534 1.985 . S
O548 C563 1.245 1_565 S
O549 Zn536 1.970 . S
O549 C563 1.263 . S
C550 O561 1.262 . S
C550 O562 1.245 . S
O551 Zn538 1.985 1_545 S
O551 C569 1.245 . S
O552 Zn541 1.970 . S
O552 C569 1.263 . S
O553 Zn531 1.955 . S
O553 C572 1.276 . S
C554 O544 1.245 1_545 S
C554 O545 1.263 . S
O555 Zn524 1.955 . S
O555 C574 1.276 . S
C556 O564 1.262 . S
C556 O565 1.245 . S
O557 C528 1.276 . S
O557 Zn534 1.955 . S
C558 O546 1.245 . S
C558 O547 1.263 . S
O559 Zn538 1.955 . S
O559 C542 1.276 . S
C560 O567 1.262 . S
C560 O568 1.245 . S
O561 Zn525 1.945 . S
O561 C550 1.262 . S
O562 Zn541 1.981 . S
O562 C550 1.245 . S
C563 O548 1.245 1_545 S
C563 O549 1.263 . S
O564 Zn530 1.945 . S
O564 C556 1.262 . S
O565 Zn536 1.981 . S
O565 C556 1.245 . S
C566 O570 1.262 . S
C566 O571 1.245 . S
O567 Zn536 1.945 . S
O567 C560 1.262 . S
O568 Zn525 1.981 . S
O568 C560 1.245 . S
C569 O551 1.245 . S
C569 O552 1.263 . S
O570 Zn541 1.945 . S
O570 C566 1.262 . S
O571 Zn530 1.981 . S
O571 C566 1.245 . S
C572 O553 1.276 . S
C572 O573 1.246 . S
O573 C572 1.246 . S
C574 O555 1.276 . S
C574 O575 1.246 . S
O575 C574 1.246 . S
C576 C577 1.391 . S
C576 C578 1.394 . S
C576 H592 0.931 . S
C577 C576 1.391 . S
C577 C581 1.376 . S
C578 C576 1.394 . S
C578 C579 1.369 . S
C578 C582 1.531 . S
C579 C578 1.369 . S
C579 C580 1.410 . S
C579 C587 1.503 . S
C580 C579 1.410 . S
C580 C581 1.392 . S
C580 C583 1.511 . S
C581 C577 1.376 . S
C581 C580 1.392 . S
C581 H593 0.929 . S
C582 C578 1.531 . S
C582 H594 0.960 . S
C582 H595 0.962 . S
C582 H596 0.960 . S
C583 C580 1.511 . S
C583 H597 0.961 . S
C583 H598 0.961 . S
C583 H599 0.961 . S
C584 C585 1.370 . S
C584 C586 1.363 . S
C584 H600 0.931 . S
C585 C584 1.370 . S
C585 C589 1.408 . S
C586 C584 1.363 . S
C586 C587 1.370 . S
C586 C590 1.524 . S
C587 C579 1.503 . S
C587 C586 1.370 . S
C587 C588 1.403 . S
C588 C587 1.403 . S
C588 C589 1.404 . S
C588 C591 1.539 . S
C589 C585 1.408 . S
C589 C588 1.404 . S
C589 H601 0.930 . S
C590 C586 1.524 . S
C590 H602 0.956 . S
C590 H603 0.961 . S
C590 H604 0.961 . S
C591 C588 1.539 . S
C591 H605 0.958 . S
C591 H606 0.961 . S
C591 H607 0.960 . S
H592 C576 0.931 . S
H593 C581 0.929 . S
H594 C582 0.960 . S
H595 C582 0.962 . S
H596 C582 0.960 . S
H597 C583 0.961 . S
H598 C583 0.961 . S
H599 C583 0.961 . S
H600 C584 0.931 . S
H601 C589 0.930 . S
H602 C590 0.956 . S
H603 C590 0.961 . S
H604 C590 0.961 . S
H605 C591 0.958 . S
H606 C591 0.961 . S
H607 C591 0.960 . S
C608 C609 1.391 . S
C608 C610 1.394 . S
C608 H624 0.931 . S
C609 C608 1.391 . S
C609 C613 1.376 . S
C610 C608 1.394 . S
C610 C611 1.369 . S
C610 C614 1.531 . S
C611 C610 1.369 . S
C611 C612 1.410 . S
C611 C619 1.503 . S
C612 C611 1.410 . S
C612 C613 1.392 . S
C612 C615 1.511 . S
C613 C609 1.376 . S
C613 C612 1.392 . S
C613 H625 0.929 . S
C614 C610 1.531 . S
C614 H626 0.960 . S
C614 H627 0.962 . S
C614 H628 0.960 . S
C615 C612 1.511 . S
C615 H629 0.961 . S
C615 H630 0.961 . S
C615 H631 0.961 . S
C616 C617 1.370 . S
C616 C618 1.363 . S
C616 H632 0.931 . S
C617 C616 1.370 . S
C617 C621 1.408 . S
C618 C616 1.363 . S
C618 C619 1.370 . S
C618 C622 1.524 . S
C619 C611 1.503 . S
C619 C618 1.370 . S
C619 C620 1.403 . S
C620 C619 1.403 . S
C620 C621 1.404 . S
C620 C623 1.539 . S
C621 C617 1.408 . S
C621 C620 1.404 . S
C621 H633 0.930 . S
C622 C618 1.524 . S
C622 H634 0.956 . S
C622 H635 0.961 . S
C622 H636 0.961 . S
C623 C620 1.539 . S
C623 H637 0.958 . S
C623 H638 0.961 . S
C623 H639 0.960 . S
H624 C608 0.931 . S
H625 C613 0.929 . S
H626 C614 0.960 . S
H627 C614 0.962 . S
H628 C614 0.960 . S
H629 C615 0.961 . S
H630 C615 0.961 . S
H631 C615 0.961 . S
H632 C616 0.931 . S
H633 C621 0.930 . S
H634 C622 0.956 . S
H635 C622 0.961 . S
H636 C622 0.961 . S
H637 C623 0.958 . S
H638 C623 0.961 . S
H639 C623 0.960 . S
C640 C641 1.391 . S
C640 C642 1.394 . S
C640 H656 0.931 . S
C641 C640 1.391 . S
C641 C645 1.376 . S
C642 C640 1.394 . S
C642 C643 1.369 . S
C642 C646 1.531 . S
C643 C642 1.369 . S
C643 C644 1.410 . S
C643 C651 1.503 . S
C644 C643 1.410 . S
C644 C645 1.392 . S
C644 C647 1.511 . S
C645 C641 1.376 . S
C645 C644 1.392 . S
C645 H657 0.929 . S
C646 C642 1.531 . S
C646 H658 0.960 . S
C646 H659 0.962 . S
C646 H660 0.960 . S
C647 C644 1.511 . S
C647 H661 0.961 . S
C647 H662 0.961 . S
C647 H663 0.961 . S
C648 C649 1.370 . S
C648 C650 1.363 . S
C648 H664 0.931 . S
C649 C648 1.370 . S
C649 C653 1.408 . S
C650 C648 1.363 . S
C650 C651 1.370 . S
C650 C654 1.524 . S
C651 C643 1.503 . S
C651 C650 1.370 . S
C651 C652 1.403 . S
C652 C651 1.403 . S
C652 C653 1.404 . S
C652 C655 1.539 . S
C653 C649 1.408 . S
C653 C652 1.404 . S
C653 H665 0.930 . S
C654 C650 1.524 . S
C654 H666 0.956 . S
C654 H667 0.961 . S
C654 H668 0.961 . S
C655 C652 1.539 . S
C655 H669 0.958 . S
C655 H670 0.961 . S
C655 H671 0.960 . S
H656 C640 0.931 . S
H657 C645 0.929 . S
H658 C646 0.960 . S
H659 C646 0.962 . S
H660 C646 0.960 . S
H661 C647 0.961 . S
H662 C647 0.961 . S
H663 C647 0.961 . S
H664 C648 0.931 . S
H665 C653 0.930 . S
H666 C654 0.956 . S
H667 C654 0.961 . S
H668 C654 0.961 . S
H669 C655 0.958 . S
H670 C655 0.961 . S
H671 C655 0.960 . S
C672 C673 1.391 . S
C672 C674 1.394 . S
C672 H688 0.931 . S
C673 C672 1.391 . S
C673 C677 1.376 . S
C674 C672 1.394 . S
C674 C675 1.369 . S
C674 C678 1.531 . S
C675 C674 1.369 . S
C675 C676 1.410 . S
C675 C683 1.503 . S
C676 C675 1.410 . S
C676 C677 1.392 . S
C676 C679 1.511 . S
C677 C673 1.376 . S
C677 C676 1.392 . S
C677 H689 0.929 . S
C678 C674 1.531 . S
C678 H690 0.960 . S
C678 H691 0.962 . S
C678 H692 0.960 . S
C679 C676 1.511 . S
C679 H693 0.961 . S
C679 H694 0.961 . S
C679 H695 0.961 . S
C680 C681 1.370 . S
C680 C682 1.363 . S
C680 H696 0.931 . S
C681 C680 1.370 . S
C681 C685 1.408 . S
C682 C680 1.363 . S
C682 C683 1.370 . S
C682 C686 1.524 . S
C683 C675 1.503 . S
C683 C682 1.370 . S
C683 C684 1.403 . S
C684 C683 1.403 . S
C684 C685 1.404 . S
C684 C687 1.539 . S
C685 C681 1.408 . S
C685 C684 1.404 . S
C685 H697 0.930 . S
C686 C682 1.524 . S
C686 H698 0.956 . S
C686 H699 0.961 . S
C686 H700 0.961 . S
C687 C684 1.539 . S
C687 H701 0.958 . S
C687 H702 0.961 . S
C687 H703 0.960 . S
H688 C672 0.931 . S
H689 C677 0.929 . S
H690 C678 0.960 . S
H691 C678 0.962 . S
H692 C678 0.960 . S
H693 C679 0.961 . S
H694 C679 0.961 . S
H695 C679 0.961 . S
H696 C680 0.931 . S
H697 C685 0.930 . S
H698 C686 0.956 . S
H699 C686 0.961 . S
H700 C686 0.961 . S
H701 C687 0.958 . S
H702 C687 0.961 . S
H703 C687 0.960 . S
C704 C705 1.391 . S
C704 C706 1.394 . S
C704 H720 0.931 . S
C705 C704 1.391 . S
C705 C709 1.376 . S
C706 C704 1.394 . S
C706 C707 1.369 . S
C706 C710 1.531 . S
C707 C706 1.369 . S
C707 C708 1.410 . S
C707 C715 1.503 . S
C708 C707 1.410 . S
C708 C709 1.392 . S
C708 C711 1.511 . S
C709 C705 1.376 . S
C709 C708 1.392 . S
C709 H721 0.929 . S
C710 C706 1.531 . S
C710 H722 0.960 . S
C710 H723 0.962 . S
C710 H724 0.960 . S
C711 C708 1.511 . S
C711 H725 0.961 . S
C711 H726 0.961 . S
C711 H727 0.961 . S
C712 C713 1.370 . S
C712 C714 1.363 . S
C712 H728 0.931 . S
C713 C712 1.370 . S
C713 C717 1.408 . S
C714 C712 1.363 . S
C714 C715 1.370 . S
C714 C718 1.524 . S
C715 C707 1.503 . S
C715 C714 1.370 . S
C715 C716 1.403 . S
C716 C715 1.403 . S
C716 C717 1.404 . S
C716 C719 1.539 . S
C717 C713 1.408 . S
C717 C716 1.404 . S
C717 H729 0.930 . S
C718 C714 1.524 . S
C718 H730 0.956 . S
C718 H731 0.961 . S
C718 H732 0.961 . S
C719 C716 1.539 . S
C719 H733 0.958 . S
C719 H734 0.961 . S
C719 H735 0.960 . S
H720 C704 0.931 . S
H721 C709 0.929 . S
H722 C710 0.960 . S
H723 C710 0.962 . S
H724 C710 0.960 . S
H725 C711 0.961 . S
H726 C711 0.961 . S
H727 C711 0.961 . S
H728 C712 0.931 . S
H729 C717 0.930 . S
H730 C718 0.956 . S
H731 C718 0.961 . S
H732 C718 0.961 . S
H733 C719 0.958 . S
H734 C719 0.961 . S
H735 C719 0.960 . S
C736 C737 1.391 . S
C736 C738 1.394 . S
C736 H752 0.931 . S
C737 C736 1.391 . S
C737 C741 1.376 . S
C738 C736 1.394 . S
C738 C739 1.369 . S
C738 C742 1.531 . S
C739 C738 1.369 . S
C739 C740 1.410 . S
C739 C747 1.503 . S
C740 C739 1.410 . S
C740 C741 1.392 . S
C740 C743 1.511 . S
C741 C737 1.376 . S
C741 C740 1.392 . S
C741 H753 0.929 . S
C742 C738 1.531 . S
C742 H754 0.960 . S
C742 H755 0.962 . S
C742 H756 0.960 . S
C743 C740 1.511 . S
C743 H757 0.961 . S
C743 H758 0.961 . S
C743 H759 0.961 . S
C744 C745 1.370 . S
C744 C746 1.363 . S
C744 H760 0.931 . S
C745 C744 1.370 . S
C745 C749 1.408 . S
C746 C744 1.363 . S
C746 C747 1.370 . S
C746 C750 1.524 . S
C747 C739 1.503 . S
C747 C746 1.370 . S
C747 C748 1.403 . S
C748 C747 1.403 . S
C748 C749 1.404 . S
C748 C751 1.539 . S
C749 C745 1.408 . S
C749 C748 1.404 . S
C749 H761 0.930 . S
C750 C746 1.524 . S
C750 H762 0.956 . S
C750 H763 0.961 . S
C750 H764 0.961 . S
C751 C748 1.539 . S
C751 H765 0.958 . S
C751 H766 0.961 . S
C751 H767 0.960 . S
H752 C736 0.931 . S
H753 C741 0.929 . S
H754 C742 0.960 . S
H755 C742 0.962 . S
H756 C742 0.960 . S
H757 C743 0.961 . S
H758 C743 0.961 . S
H759 C743 0.961 . S
H760 C744 0.931 . S
H761 C749 0.930 . S
H762 C750 0.956 . S
H763 C750 0.961 . S
H764 C750 0.961 . S
H765 C751 0.958 . S
H766 C751 0.961 . S
H767 C751 0.960 . S
C768 C769 1.391 . S
C768 C770 1.394 . S
C768 H784 0.931 . S
C769 C768 1.391 . S
C769 C773 1.376 . S
C770 C768 1.394 . S
C770 C771 1.369 . S
C770 C774 1.531 . S
C771 C770 1.369 . S
C771 C772 1.410 . S
C771 C779 1.503 . S
C772 C771 1.410 . S
C772 C773 1.392 . S
C772 C775 1.511 . S
C773 C769 1.376 . S
C773 C772 1.392 . S
C773 H785 0.929 . S
C774 C770 1.531 . S
C774 H786 0.960 . S
C774 H787 0.962 . S
C774 H788 0.960 . S
C775 C772 1.511 . S
C775 H789 0.961 . S
C775 H790 0.961 . S
C775 H791 0.961 . S
C776 C777 1.370 . S
C776 C778 1.363 . S
C776 H792 0.931 . S
C777 C776 1.370 . S
C777 C781 1.408 . S
C778 C776 1.363 . S
C778 C779 1.370 . S
C778 C782 1.524 . S
C779 C771 1.503 . S
C779 C778 1.370 . S
C779 C780 1.403 . S
C780 C779 1.403 . S
C780 C781 1.404 . S
C780 C783 1.539 . S
C781 C777 1.408 . S
C781 C780 1.404 . S
C781 H793 0.930 . S
C782 C778 1.524 . S
C782 H794 0.956 . S
C782 H795 0.961 . S
C782 H796 0.961 . S
C783 C780 1.539 . S
C783 H797 0.958 . S
C783 H798 0.961 . S
C783 H799 0.960 . S
H784 C768 0.931 . S
H785 C773 0.929 . S
H786 C774 0.960 . S
H787 C774 0.962 . S
H788 C774 0.960 . S
H789 C775 0.961 . S
H790 C775 0.961 . S
H791 C775 0.961 . S
H792 C776 0.931 . S
H793 C781 0.930 . S
H794 C782 0.956 . S
H795 C782 0.961 . S
H796 C782 0.961 . S
H797 C783 0.958 . S
H798 C783 0.961 . S
H799 C783 0.960 . S
C800 C801 1.391 . S
C800 C802 1.394 . S
C800 H816 0.931 . S
C801 C800 1.391 . S
C801 C805 1.376 . S
C802 C800 1.394 . S
C802 C803 1.369 . S
C802 C806 1.531 . S
C803 C802 1.369 . S
C803 C804 1.410 . S
C803 C811 1.503 . S
C804 C803 1.410 . S
C804 C805 1.392 . S
C804 C807 1.511 . S
C805 C801 1.376 . S
C805 C804 1.392 . S
C805 H817 0.929 . S
C806 C802 1.531 . S
C806 H818 0.960 . S
C806 H819 0.962 . S
C806 H820 0.960 . S
C807 C804 1.511 . S
C807 H821 0.961 . S
C807 H822 0.961 . S
C807 H823 0.961 . S
C808 C809 1.370 . S
C808 C810 1.363 . S
C808 H824 0.931 . S
C809 C808 1.370 . S
C809 C813 1.408 . S
C810 C808 1.363 . S
C810 C811 1.370 . S
C810 C814 1.524 . S
C811 C803 1.503 . S
C811 C810 1.370 . S
C811 C812 1.403 . S
C812 C811 1.403 . S
C812 C813 1.404 . S
C812 C815 1.539 . S
C813 C809 1.408 . S
C813 C812 1.404 . S
C813 H825 0.930 . S
C814 C810 1.524 . S
C814 H826 0.956 . S
C814 H827 0.961 . S
C814 H828 0.961 . S
C815 C812 1.539 . S
C815 H829 0.958 . S
C815 H830 0.961 . S
C815 H831 0.960 . S
H816 C800 0.931 . S
H817 C805 0.929 . S
H818 C806 0.960 . S
H819 C806 0.962 . S
H820 C806 0.960 . S
H821 C807 0.961 . S
H822 C807 0.961 . S
H823 C807 0.961 . S
H824 C808 0.931 . S
H825 C813 0.930 . S
H826 C814 0.956 . S
H827 C814 0.961 . S
H828 C814 0.961 . S
H829 C815 0.958 . S
H830 C815 0.961 . S
H831 C815 0.960 . S
C832 C833 1.391 . S
C832 C834 1.394 . S
C832 H848 0.931 . S
C833 C832 1.391 . S
C833 C837 1.376 . S
C834 C832 1.394 . S
C834 C835 1.369 . S
C834 C838 1.531 . S
C835 C834 1.369 . S
C835 C836 1.410 . S
C835 C843 1.503 . S
C836 C835 1.410 . S
C836 C837 1.392 . S
C836 C839 1.511 . S
C837 C833 1.376 . S
C837 C836 1.392 . S
C837 H849 0.929 . S
C838 C834 1.531 . S
C838 H850 0.960 . S
C838 H851 0.962 . S
C838 H852 0.960 . S
C839 C836 1.511 . S
C839 H853 0.961 . S
C839 H854 0.961 . S
C839 H855 0.961 . S
C840 C841 1.370 . S
C840 C842 1.363 . S
C840 H856 0.931 . S
C841 C840 1.370 . S
C841 C845 1.408 . S
C842 C840 1.363 . S
C842 C843 1.370 . S
C842 C846 1.524 . S
C843 C835 1.503 . S
C843 C842 1.370 . S
C843 C844 1.403 . S
C844 C843 1.403 . S
C844 C845 1.404 . S
C844 C847 1.539 . S
C845 C841 1.408 . S
C845 C844 1.404 . S
C845 H857 0.930 . S
C846 C842 1.524 . S
C846 H858 0.956 . S
C846 H859 0.961 . S
C846 H860 0.961 . S
C847 C844 1.539 . S
C847 H861 0.958 . S
C847 H862 0.961 . S
C847 H863 0.960 . S
H848 C832 0.931 . S
H849 C837 0.929 . S
H850 C838 0.960 . S
H851 C838 0.962 . S
H852 C838 0.960 . S
H853 C839 0.961 . S
H854 C839 0.961 . S
H855 C839 0.961 . S
H856 C840 0.931 . S
H857 C845 0.930 . S
H858 C846 0.956 . S
H859 C846 0.961 . S
H860 C846 0.961 . S
H861 C847 0.958 . S
H862 C847 0.961 . S
H863 C847 0.960 . S
C864 C865 1.391 . S
C864 C866 1.394 . S
C864 H880 0.931 . S
C865 C864 1.391 . S
C865 C869 1.376 . S
C866 C864 1.394 . S
C866 C867 1.369 . S
C866 C870 1.531 . S
C867 C866 1.369 . S
C867 C868 1.410 . S
C867 C875 1.503 . S
C868 C867 1.410 . S
C868 C869 1.392 . S
C868 C871 1.511 . S
C869 C865 1.376 . S
C869 C868 1.392 . S
C869 H881 0.929 . S
C870 C866 1.531 . S
C870 H882 0.960 . S
C870 H883 0.962 . S
C870 H884 0.960 . S
C871 C868 1.511 . S
C871 H885 0.961 . S
C871 H886 0.961 . S
C871 H887 0.961 . S
C872 C873 1.370 . S
C872 C874 1.363 . S
C872 H888 0.931 . S
C873 C872 1.370 . S
C873 C877 1.408 . S
C874 C872 1.363 . S
C874 C875 1.370 . S
C874 C878 1.524 . S
C875 C867 1.503 . S
C875 C874 1.370 . S
C875 C876 1.403 . S
C876 C875 1.403 . S
C876 C877 1.404 . S
C876 C879 1.539 . S
C877 C873 1.408 . S
C877 C876 1.404 . S
C877 H889 0.930 . S
C878 C874 1.524 . S
C878 H890 0.956 . S
C878 H891 0.961 . S
C878 H892 0.961 . S
C879 C876 1.539 . S
C879 H893 0.958 . S
C879 H894 0.961 . S
C879 H895 0.960 . S
H880 C864 0.931 . S
H881 C869 0.929 . S
H882 C870 0.960 . S
H883 C870 0.962 . S
H884 C870 0.960 . S
H885 C871 0.961 . S
H886 C871 0.961 . S
H887 C871 0.961 . S
H888 C872 0.931 . S
H889 C877 0.930 . S
H890 C878 0.956 . S
H891 C878 0.961 . S
H892 C878 0.961 . S
H893 C879 0.958 . S
H894 C879 0.961 . S
H895 C879 0.960 . S
C896 C897 1.391 . S
C896 C898 1.394 . S
C896 H912 0.931 . S
C897 C896 1.391 . S
C897 C901 1.376 . S
C898 C896 1.394 . S
C898 C899 1.369 . S
C898 C902 1.531 . S
C899 C898 1.369 . S
C899 C900 1.410 . S
C899 C907 1.503 . S
C900 C899 1.410 . S
C900 C901 1.392 . S
C900 C903 1.511 . S
C901 C897 1.376 . S
C901 C900 1.392 . S
C901 H913 0.929 . S
C902 C898 1.531 . S
C902 H914 0.960 . S
C902 H915 0.962 . S
C902 H916 0.960 . S
C903 C900 1.511 . S
C903 H917 0.961 . S
C903 H918 0.961 . S
C903 H919 0.961 . S
C904 C905 1.370 . S
C904 C906 1.363 . S
C904 H920 0.931 . S
C905 C904 1.370 . S
C905 C909 1.408 . S
C906 C904 1.363 . S
C906 C907 1.370 . S
C906 C910 1.524 . S
C907 C899 1.503 . S
C907 C906 1.370 . S
C907 C908 1.403 . S
C908 C907 1.403 . S
C908 C909 1.404 . S
C908 C911 1.539 . S
C909 C905 1.408 . S
C909 C908 1.404 . S
C909 H921 0.930 . S
C910 C906 1.524 . S
C910 H922 0.956 . S
C910 H923 0.961 . S
C910 H924 0.961 . S
C911 C908 1.539 . S
C911 H925 0.958 . S
C911 H926 0.961 . S
C911 H927 0.960 . S
H912 C896 0.931 . S
H913 C901 0.929 . S
H914 C902 0.960 . S
H915 C902 0.962 . S
H916 C902 0.960 . S
H917 C903 0.961 . S
H918 C903 0.961 . S
H919 C903 0.961 . S
H920 C904 0.931 . S
H921 C909 0.930 . S
H922 C910 0.956 . S
H923 C910 0.961 . S
H924 C910 0.961 . S
H925 C911 0.958 . S
H926 C911 0.961 . S
H927 C911 0.960 . S
C928 C929 1.391 . S
C928 C930 1.394 . S
C928 H944 0.931 . S
C929 C928 1.391 . S
C929 C933 1.376 . S
C930 C928 1.394 . S
C930 C931 1.369 . S
C930 C934 1.531 . S
C931 C930 1.369 . S
C931 C932 1.410 . S
C931 C939 1.503 . S
C932 C931 1.410 . S
C932 C933 1.392 . S
C932 C935 1.511 . S
C933 C929 1.376 . S
C933 C932 1.392 . S
C933 H945 0.929 . S
C934 C930 1.531 . S
C934 H946 0.960 . S
C934 H947 0.962 . S
C934 H948 0.960 . S
C935 C932 1.511 . S
C935 H949 0.961 . S
C935 H950 0.961 . S
C935 H951 0.961 . S
C936 C937 1.370 . S
C936 C938 1.363 . S
C936 H952 0.931 . S
C937 C936 1.370 . S
C937 C941 1.408 . S
C938 C936 1.363 . S
C938 C939 1.370 . S
C938 C942 1.524 . S
C939 C931 1.503 . S
C939 C938 1.370 . S
C939 C940 1.403 . S
C940 C939 1.403 . S
C940 C941 1.404 . S
C940 C943 1.539 . S
C941 C937 1.408 . S
C941 C940 1.404 . S
C941 H953 0.930 . S
C942 C938 1.524 . S
C942 H954 0.956 . S
C942 H955 0.961 . S
C942 H956 0.961 . S
C943 C940 1.539 . S
C943 H957 0.958 . S
C943 H958 0.961 . S
C943 H959 0.960 . S
H944 C928 0.931 . S
H945 C933 0.929 . S
H946 C934 0.960 . S
H947 C934 0.962 . S
H948 C934 0.960 . S
H949 C935 0.961 . S
H950 C935 0.961 . S
H951 C935 0.961 . S
H952 C936 0.931 . S
H953 C941 0.930 . S
H954 C942 0.956 . S
H955 C942 0.961 . S
H956 C942 0.961 . S
H957 C943 0.958 . S
H958 C943 0.961 . S
H959 C943 0.960 . S
C960 C961 1.391 1_556 S
C960 C962 1.394 . S
C960 H976 0.931 . S
C961 C960 1.391 1_554 S
C961 C965 1.376 . S
C962 C960 1.394 . S
C962 C963 1.369 1_556 S
C962 C966 1.531 . S
C963 C962 1.369 1_554 S
C963 C964 1.410 . S
C963 C971 1.503 . S
C964 C963 1.410 . S
C964 C965 1.392 . S
C964 C967 1.511 . S
C965 C961 1.376 . S
C965 C964 1.392 . S
C965 H977 0.929 . S
C966 C962 1.531 . S
C966 H978 0.960 . S
C966 H979 0.962 . S
C966 H980 0.960 . S
C967 C964 1.511 . S
C967 H981 0.961 . S
C967 H982 0.961 . S
C967 H983 0.961 . S
C968 C969 1.370 . S
C968 C970 1.363 . S
C968 H984 0.931 . S
C969 C968 1.370 . S
C969 C973 1.408 . S
C970 C968 1.363 . S
C970 C971 1.370 . S
C970 C974 1.524 . S
C971 C963 1.503 . S
C971 C970 1.370 . S
C971 C972 1.403 . S
C972 C971 1.403 . S
C972 C973 1.404 . S
C972 C975 1.539 . S
C973 C969 1.408 . S
C973 C972 1.404 . S
C973 H985 0.930 . S
C974 C970 1.524 . S
C974 H986 0.956 1_554 S
C974 H987 0.961 . S
C974 H988 0.961 . S
C975 C972 1.539 . S
C975 H989 0.958 1_554 S
C975 H990 0.961 . S
C975 H991 0.960 . S
H976 C960 0.931 . S
H977 C965 0.929 . S
H978 C966 0.960 . S
H979 C966 0.962 . S
H980 C966 0.960 . S
H981 C967 0.961 . S
H982 C967 0.961 . S
H983 C967 0.961 . S
H984 C968 0.931 . S
H985 C973 0.930 . S
H986 C974 0.956 1_556 S
H987 C974 0.961 . S
H988 C974 0.961 . S
H989 C975 0.958 1_556 S
H990 C975 0.961 . S
H991 C975 0.960 . S
C992 C993 1.391 . S
C992 C994 1.394 . S
C992 H1008 0.931 . S
C993 C992 1.391 . S
C993 C997 1.376 . S
C994 C992 1.394 . S
C994 C995 1.369 . S
C994 C998 1.531 1_554 S
C995 C994 1.369 . S
C995 C996 1.410 . S
C995 C1003 1.503 . S
C996 C995 1.410 . S
C996 C997 1.392 . S
C996 C999 1.511 . S
C997 C993 1.376 . S
C997 C996 1.392 . S
C997 H1009 0.929 . S
C998 C994 1.531 1_556 S
C998 H1010 0.960 . S
C998 H1011 0.962 1_556 S
C998 H1012 0.960 . S
C999 C996 1.511 . S
C999 H1013 0.961 . S
C999 H1014 0.961 . S
C999 H1015 0.961 1_554 S
C1000 C1001 1.370 . S
C1000 C1002 1.363 . S
C1000 H1016 0.931 . S
C1001 C1000 1.370 . S
C1001 C1005 1.408 1_554 S
C1002 C1000 1.363 . S
C1002 C1003 1.370 . S
C1002 C1006 1.524 . S
C1003 C995 1.503 . S
C1003 C1002 1.370 . S
C1003 C1004 1.403 1_554 S
C1004 C1003 1.403 1_556 S
C1004 C1005 1.404 . S
C1004 C1007 1.539 . S
C1005 C1001 1.408 1_556 S
C1005 C1004 1.404 . S
C1005 H1017 0.930 . S
C1006 C1002 1.524 . S
C1006 H1018 0.956 . S
C1006 H1019 0.961 . S
C1006 H1020 0.961 . S
C1007 C1004 1.539 . S
C1007 H1021 0.958 . S
C1007 H1022 0.961 . S
C1007 H1023 0.960 . S
H1008 C992 0.931 . S
H1009 C997 0.929 . S
H1010 C998 0.960 . S
H1011 C998 0.962 1_554 S
H1012 C998 0.960 . S
H1013 C999 0.961 . S
H1014 C999 0.961 . S
H1015 C999 0.961 1_556 S
H1016 C1000 0.931 . S
H1017 C1005 0.930 . S
H1018 C1006 0.956 . S
H1019 C1006 0.961 . S
H1020 C1006 0.961 . S
H1021 C1007 0.958 . S
H1022 C1007 0.961 . S
H1023 C1007 0.960 . S
C1024 C1025 1.391 . S
C1024 C1026 1.394 . S
C1024 H1040 0.931 . S
C1025 C1024 1.391 . S
C1025 C1029 1.376 1_554 S
C1026 C1024 1.394 . S
C1026 C1027 1.369 . S
C1026 C1030 1.531 . S
C1027 C1026 1.369 . S
C1027 C1028 1.410 1_554 S
C1027 C1035 1.503 . S
C1028 C1027 1.410 1_556 S
C1028 C1029 1.392 . S
C1028 C1031 1.511 . S
C1029 C1025 1.376 1_556 S
C1029 C1028 1.392 . S
C1029 H1041 0.929 . S
C1030 C1026 1.531 . S
C1030 H1042 0.960 . S
C1030 H1043 0.962 . S
C1030 H1044 0.960 . S
C1031 C1028 1.511 . S
C1031 H1045 0.961 . S
C1031 H1046 0.961 . S
C1031 H1047 0.961 . S
C1032 C1033 1.370 . S
C1032 C1034 1.363 . S
C1032 H1048 0.931 . S
C1033 C1032 1.370 . S
C1033 C1037 1.408 1_554 S
C1034 C1032 1.363 . S
C1034 C1035 1.370 . S
C1034 C1038 1.524 . S
C1035 C1027 1.503 . S
C1035 C1034 1.370 . S
C1035 C1036 1.403 1_554 S
C1036 C1035 1.403 1_556 S
C1036 C1037 1.404 . S
C1036 C1039 1.539 . S
C1037 C1033 1.408 1_556 S
C1037 C1036 1.404 . S
C1037 H1049 0.930 . S
C1038 C1034 1.524 . S
C1038 H1050 0.956 . S
C1038 H1051 0.961 . S
C1038 H1052 0.961 . S
C1039 C1036 1.539 . S
C1039 H1053 0.958 . S
C1039 H1054 0.961 . S
C1039 H1055 0.960 . S
H1040 C1024 0.931 . S
H1041 C1029 0.929 . S
H1042 C1030 0.960 . S
H1043 C1030 0.962 . S
H1044 C1030 0.960 . S
H1045 C1031 0.961 . S
H1046 C1031 0.961 . S
H1047 C1031 0.961 . S
H1048 C1032 0.931 . S
H1049 C1037 0.930 . S
H1050 C1038 0.956 . S
H1051 C1038 0.961 . S
H1052 C1038 0.961 . S
H1053 C1039 0.958 . S
H1054 C1039 0.961 . S
H1055 C1039 0.960 . S
C1056 C1057 1.391 . S
C1056 C1058 1.394 . S
C1056 H1072 0.931 . S
C1057 C1056 1.391 . S
C1057 C1061 1.366 1_554 S
C1058 C1056 1.394 . S
C1058 C1059 1.369 . S
C1058 C1062 1.531 . S
C1059 C1058 1.369 . S
C1059 C1060 1.410 . S
C1059 C1067 1.503 . S
C1060 C1059 1.410 . S
C1060 C1061 1.388 1_554 S
C1060 C1063 1.511 1_554 S
C1061 C1057 1.366 1_556 S
C1061 C1060 1.388 1_556 S
C1061 H1073 0.946 . S
C1062 C1058 1.531 . S
C1062 H1074 0.960 . S
C1062 H1075 0.962 . S
C1062 H1076 0.960 . S
C1063 C1060 1.511 1_556 S
C1063 H1077 0.961 . S
C1063 H1078 0.961 . S
C1063 H1079 0.961 1_556 S
C1064 C1065 1.370 1_556 S
C1064 C1066 1.363 . S
C1064 H1080 0.931 . S
C1065 C1064 1.370 1_554 S
C1065 C1069 1.408 . S
C1066 C1064 1.363 . S
C1066 C1067 1.370 1_556 S
C1066 C1070 1.524 . S
C1067 C1059 1.503 . S
C1067 C1066 1.370 1_554 S
C1067 C1068 1.403 . S
C1068 C1067 1.403 . S
C1068 C1069 1.404 . S
C1068 C1071 1.539 . S
C1069 C1065 1.408 . S
C1069 C1068 1.404 . S
C1069 H1081 0.930 . S
C1070 C1066 1.524 . S
C1070 H1082 0.956 . S
C1070 H1083 0.961 . S
C1070 H1084 0.961 . S
C1071 C1068 1.539 . S
C1071 H1085 0.958 . S
C1071 H1086 0.961 . S
C1071 H1087 0.960 . S
H1072 C1056 0.931 . S
H1073 C1061 0.946 . S
H1074 C1062 0.960 . S
H1075 C1062 0.962 . S
H1076 C1062 0.960 . S
H1077 C1063 0.961 . S
H1078 C1063 0.961 . S
H1079 C1063 0.961 1_554 S
H1080 C1064 0.931 . S
H1081 C1069 0.930 . S
H1082 C1070 0.956 . S
H1083 C1070 0.961 . S
H1084 C1070 0.961 . S
H1085 C1071 0.958 . S
H1086 C1071 0.961 . S
H1087 C1071 0.960 . S
C1088 C1089 1.391 1_655 S
C1088 C1090 1.394 . S
C1088 H1104 0.931 . S
C1089 C1088 1.391 1_455 S
C1089 C1093 1.376 . S
C1090 C1088 1.394 . S
C1090 C1091 1.369 1_655 S
C1090 C1094 1.531 . S
C1091 C1090 1.369 1_455 S
C1091 C1092 1.410 . S
C1091 C1099 1.503 . S
C1092 C1091 1.410 . S
C1092 C1093 1.392 . S
C1092 C1095 1.511 . S
C1093 C1089 1.376 . S
C1093 C1092 1.392 . S
C1093 H1105 0.929 . S
C1094 C1090 1.531 . S
C1094 H1106 0.960 . S
C1094 H1107 0.962 . S
C1094 H1108 0.960 . S
C1095 C1092 1.511 . S
C1095 H1109 0.961 . S
C1095 H1110 0.961 . S
C1095 H1111 0.961 . S
C1096 C1097 1.370 1_655 S
C1096 C1098 1.363 . S
C1096 H1112 0.931 . S
C1097 C1096 1.370 1_455 S
C1097 C1101 1.408 . S
C1098 C1096 1.363 . S
C1098 C1099 1.370 1_655 S
C1098 C1102 1.524 . S
C1099 C1091 1.503 . S
C1099 C1098 1.370 1_455 S
C1099 C1100 1.403 . S
C1100 C1099 1.403 . S
C1100 C1101 1.404 . S
C1100 C1103 1.539 . S
C1101 C1097 1.408 . S
C1101 C1100 1.404 . S
C1101 H1113 0.930 . S
C1102 C1098 1.524 . S
C1102 H1114 0.956 . S
C1102 H1115 0.961 . S
C1102 H1116 0.961 . S
C1103 C1100 1.539 . S
C1103 H1117 0.958 . S
C1103 H1118 0.961 . S
C1103 H1119 0.960 . S
H1104 C1088 0.931 . S
H1105 C1093 0.929 . S
H1106 C1094 0.960 . S
H1107 C1094 0.962 . S
H1108 C1094 0.960 . S
H1109 C1095 0.961 . S
H1110 C1095 0.961 . S
H1111 C1095 0.961 . S
H1112 C1096 0.931 . S
H1113 C1101 0.930 . S
H1114 C1102 0.956 . S
H1115 C1102 0.961 . S
H1116 C1102 0.961 . S
H1117 C1103 0.958 . S
H1118 C1103 0.961 . S
H1119 C1103 0.960 . S
C1120 C1121 1.391 1_565 S
C1120 C1122 1.394 . S
C1120 H1136 0.931 . S
C1121 C1120 1.391 1_545 S
C1121 C1125 1.376 . S
C1122 C1120 1.394 . S
C1122 C1123 1.369 1_565 S
C1122 C1126 1.531 . S
C1123 C1122 1.369 1_545 S
C1123 C1124 1.410 . S
C1123 C1131 1.503 . S
C1124 C1123 1.410 . S
C1124 C1125 1.392 . S
C1124 C1127 1.511 . S
C1125 C1121 1.376 . S
C1125 C1124 1.392 . S
C1125 H1137 0.929 . S
C1126 C1122 1.531 . S
C1126 H1138 0.960 . S
C1126 H1139 0.962 . S
C1126 H1140 0.960 . S
C1127 C1124 1.511 . S
C1127 H1141 0.961 . S
C1127 H1142 0.961 . S
C1127 H1143 0.961 . S
C1128 C1129 1.370 . S
C1128 C1130 1.363 . S
C1128 H1144 0.931 1_545 S
C1129 C1128 1.370 . S
C1129 C1133 1.408 . S
C1130 C1128 1.363 . S
C1130 C1131 1.370 . S
C1130 C1134 1.524 1_545 S
C1131 C1123 1.503 . S
C1131 C1130 1.370 . S
C1131 C1132 1.403 . S
C1132 C1131 1.403 . S
C1132 C1133 1.404 . S
C1132 C1135 1.539 . S
C1133 C1129 1.408 . S
C1133 C1132 1.404 . S
C1133 H1145 0.930 . S
C1134 C1130 1.524 1_565 S
C1134 H1146 0.956 . S
C1134 H1147 0.961 . S
C1134 H1148 0.961 . S
C1135 C1132 1.539 . S
C1135 H1149 0.958 . S
C1135 H1150 0.961 . S
C1135 H1151 0.960 . S
H1136 C1120 0.931 . S
H1137 C1125 0.929 . S
H1138 C1126 0.960 . S
H1139 C1126 0.962 . S
H1140 C1126 0.960 . S
H1141 C1127 0.961 . S
H1142 C1127 0.961 . S
H1143 C1127 0.961 . S
H1144 C1128 0.931 1_565 S
H1145 C1133 0.930 . S
H1146 C1134 0.956 . S
H1147 C1134 0.961 . S
H1148 C1134 0.961 . S
H1149 C1135 0.958 . S
H1150 C1135 0.961 . S
H1151 C1135 0.960 . S
C1152 C1153 1.391 1_655 S
C1152 C1154 1.394 . S
C1152 H1168 0.931 . S
C1153 C1152 1.391 1_455 S
C1153 C1157 1.376 . S
C1154 C1152 1.394 . S
C1154 C1155 1.369 1_655 S
C1154 C1158 1.531 . S
C1155 C1154 1.369 1_455 S
C1155 C1156 1.410 . S
C1155 C1163 1.503 . S
C1156 C1155 1.410 . S
C1156 C1157 1.392 . S
C1156 C1159 1.511 . S
C1157 C1153 1.376 . S
C1157 C1156 1.392 . S
C1157 H1169 0.929 . S
C1158 C1154 1.531 . S
C1158 H1170 0.960 . S
C1158 H1171 0.962 . S
C1158 H1172 0.960 . S
C1159 C1156 1.511 . S
C1159 H1173 0.961 . S
C1159 H1174 0.961 . S
C1159 H1175 0.961 . S
C1160 C1161 1.370 . S
C1160 C1162 1.363 . S
C1160 H1176 0.931 . S
C1161 C1160 1.370 . S
C1161 C1165 1.408 . S
C1162 C1160 1.363 . S
C1162 C1163 1.370 . S
C1162 C1166 1.524 . S
C1163 C1155 1.503 . S
C1163 C1162 1.370 . S
C1163 C1164 1.403 . S
C1164 C1163 1.403 . S
C1164 C1165 1.404 . S
C1164 C1167 1.539 . S
C1165 C1161 1.408 . S
C1165 C1164 1.404 . S
C1165 H1177 0.930 . S
C1166 C1162 1.524 . S
C1166 H1178 0.956 1_455 S
C1166 H1179 0.961 . S
C1166 H1180 0.961 . S
C1167 C1164 1.539 . S
C1167 H1181 0.958 . S
C1167 H1182 0.961 . S
C1167 H1183 0.960 . S
H1168 C1152 0.931 . S
H1169 C1157 0.929 . S
H1170 C1158 0.960 . S
H1171 C1158 0.962 . S
H1172 C1158 0.960 . S
H1173 C1159 0.961 . S
H1174 C1159 0.961 . S
H1175 C1159 0.961 . S
H1176 C1160 0.931 . S
H1177 C1165 0.930 . S
H1178 C1166 0.956 1_655 S
H1179 C1166 0.961 . S
H1180 C1166 0.961 . S
H1181 C1167 0.958 . S
H1182 C1167 0.961 . S
H1183 C1167 0.960 . S
C1184 C1185 1.391 . S
C1184 C1186 1.394 . S
C1184 H1200 0.931 . S
C1185 C1184 1.391 . S
C1185 C1189 1.376 . S
C1186 C1184 1.394 . S
C1186 C1187 1.369 . S
C1186 C1190 1.531 . S
C1187 C1186 1.369 . S
C1187 C1188 1.410 . S
C1187 C1195 1.503 . S
C1188 C1187 1.410 . S
C1188 C1189 1.392 . S
C1188 C1191 1.511 . S
C1189 C1185 1.376 . S
C1189 C1188 1.392 . S
C1189 H1201 0.929 . S
C1190 C1186 1.531 . S
C1190 H1202 0.960 . S
C1190 H1203 0.962 . S
C1190 H1204 0.960 . S
C1191 C1188 1.511 . S
C1191 H1205 0.961 . S
C1191 H1206 0.961 . S
C1191 H1207 0.961 . S
C1192 C1193 1.370 . S
C1192 C1194 1.363 . S
C1192 H1208 0.931 1_545 S
C1193 C1192 1.370 . S
C1193 C1197 1.408 . S
C1194 C1192 1.363 . S
C1194 C1195 1.370 . S
C1194 C1198 1.524 1_545 S
C1195 C1187 1.503 . S
C1195 C1194 1.370 . S
C1195 C1196 1.403 . S
C1196 C1195 1.403 . S
C1196 C1197 1.404 . S
C1196 C1199 1.539 . S
C1197 C1193 1.408 . S
C1197 C1196 1.404 . S
C1197 H1209 0.930 . S
C1198 C1194 1.524 1_565 S
C1198 H1210 0.956 . S
C1198 H1211 0.961 . S
C1198 H1212 0.961 . S
C1199 C1196 1.539 . S
C1199 H1213 0.958 . S
C1199 H1214 0.961 . S
C1199 H1215 0.960 . S
H1200 C1184 0.931 . S
H1201 C1189 0.929 . S
H1202 C1190 0.960 . S
H1203 C1190 0.962 . S
H1204 C1190 0.960 . S
H1205 C1191 0.961 . S
H1206 C1191 0.961 . S
H1207 C1191 0.961 . S
H1208 C1192 0.931 1_565 S
H1209 C1197 0.930 . S
H1210 C1198 0.956 . S
H1211 C1198 0.961 . S
H1212 C1198 0.961 . S
H1213 C1199 0.958 . S
H1214 C1199 0.961 . S
H1215 C1199 0.960 . S
C1216 C1217 1.391 . S
C1216 C1218 1.394 . S
C1216 H1232 0.931 . S
C1217 C1216 1.391 . S
C1217 C1221 1.376 . S
C1218 C1216 1.394 . S
C1218 C1219 1.369 . S
C1218 C1222 1.531 . S
C1219 C1218 1.369 . S
C1219 C1220 1.410 . S
C1219 C1227 1.503 . S
C1220 C1219 1.410 . S
C1220 C1221 1.392 . S
C1220 C1223 1.511 1_455 S
C1221 C1217 1.376 . S
C1221 C1220 1.392 . S
C1221 H1233 0.929 1_455 S
C1222 C1218 1.531 . S
C1222 H1234 0.960 . S
C1222 H1235 0.962 . S
C1222 H1236 0.960 . S
C1223 C1220 1.511 1_655 S
C1223 H1237 0.961 . S
C1223 H1238 0.961 . S
C1223 H1239 0.961 . S
C1224 C1225 1.370 . S
C1224 C1226 1.363 . S
C1224 H1240 0.931 . S
C1225 C1224 1.370 . S
C1225 C1229 1.408 . S
C1226 C1224 1.363 . S
C1226 C1227 1.370 . S
C1226 C1230 1.524 . S
C1227 C1219 1.503 . S
C1227 C1226 1.370 . S
C1227 C1228 1.403 . S
C1228 C1227 1.403 . S
C1228 C1229 1.404 . S
C1228 C1231 1.539 . S
C1229 C1225 1.408 . S
C1229 C1228 1.404 . S
C1229 H1241 0.930 . S
C1230 C1226 1.524 . S
C1230 H1242 0.956 . S
C1230 H1243 0.961 . S
C1230 H1244 0.961 . S
C1231 C1228 1.539 . S
C1231 H1245 0.958 . S
C1231 H1246 0.961 . S
C1231 H1247 0.960 . S
H1232 C1216 0.931 . S
H1233 C1221 0.929 1_655 S
H1234 C1222 0.960 . S
H1235 C1222 0.962 . S
H1236 C1222 0.960 . S
H1237 C1223 0.961 . S
H1238 C1223 0.961 . S
H1239 C1223 0.961 . S
H1240 C1224 0.931 . S
H1241 C1229 0.930 . S
H1242 C1230 0.956 . S
H1243 C1230 0.961 . S
H1244 C1230 0.961 . S
H1245 C1231 0.958 . S
H1246 C1231 0.961 . S
H1247 C1231 0.960 . S
C1248 C1249 1.391 . S
C1248 C1250 1.394 . S
C1248 H1264 0.931 . S
C1249 C1248 1.391 . S
C1249 C1253 1.376 . S
C1250 C1248 1.394 . S
C1250 C1251 1.369 . S
C1250 C1254 1.531 . S
C1251 C1250 1.369 . S
C1251 C1252 1.410 . S
C1251 C1259 1.503 . S
C1252 C1251 1.410 . S
C1252 C1253 1.392 . S
C1252 C1255 1.511 . S
C1253 C1249 1.376 . S
C1253 C1252 1.392 . S
C1253 H1265 0.929 . S
C1254 C1250 1.531 . S
C1254 H1266 0.960 1_545 S
C1254 H1267 0.962 . S
C1254 H1268 0.960 1_545 S
C1255 C1252 1.511 . S
C1255 H1269 0.961 . S
C1255 H1270 0.961 . S
C1255 H1271 0.961 . S
C1256 C1257 1.370 . S
C1256 C1258 1.363 . S
C1256 H1272 0.931 . S
C1257 C1256 1.370 . S
C1257 C1261 1.408 . S
C1258 C1256 1.363 . S
C1258 C1259 1.370 . S
C1258 C1262 1.524 . S
C1259 C1251 1.503 . S
C1259 C1258 1.370 . S
C1259 C1260 1.403 . S
C1260 C1259 1.403 . S
C1260 C1261 1.404 . S
C1260 C1263 1.539 1_545 S
C1261 C1257 1.408 . S
C1261 C1260 1.404 . S
C1261 H1273 0.930 1_545 S
C1262 C1258 1.524 . S
C1262 H1274 0.956 . S
C1262 H1275 0.961 . S
C1262 H1276 0.961 . S
C1263 C1260 1.539 1_565 S
C1263 H1277 0.958 . S
C1263 H1278 0.961 . S
C1263 H1279 0.960 . S
H1264 C1248 0.931 . S
H1265 C1253 0.929 . S
H1266 C1254 0.960 1_565 S
H1267 C1254 0.962 . S
H1268 C1254 0.960 1_565 S
H1269 C1255 0.961 . S
H1270 C1255 0.961 . S
H1271 C1255 0.961 . S
H1272 C1256 0.931 . S
H1273 C1261 0.930 1_565 S
H1274 C1262 0.956 . S
H1275 C1262 0.961 . S
H1276 C1262 0.961 . S
H1277 C1263 0.958 . S
H1278 C1263 0.961 . S
H1279 C1263 0.960 . S
C1280 C1281 1.391 . S
C1280 C1282 1.394 . S
C1280 H1296 0.931 . S
C1281 C1280 1.391 . S
C1281 C1285 1.376 . S
C1282 C1280 1.394 . S
C1282 C1283 1.369 . S
C1282 C1286 1.531 . S
C1283 C1282 1.369 . S
C1283 C1284 1.410 . S
C1283 C1291 1.503 . S
C1284 C1283 1.410 . S
C1284 C1285 1.392 . S
C1284 C1287 1.511 1_455 S
C1285 C1281 1.376 . S
C1285 C1284 1.392 . S
C1285 H1297 0.911 1_455 S
C1286 C1282 1.531 . S
C1286 H1298 0.960 . S
C1286 H1299 0.962 . S
C1286 H1300 0.960 . S
C1287 C1284 1.511 1_655 S
C1287 H1301 0.961 . S
C1287 H1302 0.961 . S
C1287 H1303 0.961 . S
C1288 C1289 1.370 . S
C1288 C1290 1.363 . S
C1288 H1304 0.931 . S
C1289 C1288 1.370 . S
C1289 C1293 1.408 . S
C1290 C1288 1.363 . S
C1290 C1291 1.370 . S
C1290 C1294 1.524 . S
C1291 C1283 1.503 . S
C1291 C1290 1.370 . S
C1291 C1292 1.403 . S
C1292 C1291 1.403 . S
C1292 C1293 1.404 . S
C1292 C1295 1.539 1_455 S
C1293 C1289 1.408 . S
C1293 C1292 1.404 . S
C1293 H1305 0.930 1_455 S
C1294 C1290 1.524 . S
C1294 H1306 0.956 . S
C1294 H1307 0.961 . S
C1294 H1308 0.961 . S
C1295 C1292 1.539 1_655 S
C1295 H1309 0.958 . S
C1295 H1310 0.961 . S
C1295 H1311 0.960 . S
H1296 C1280 0.931 . S
H1297 C1285 0.911 1_655 S
H1298 C1286 0.960 . S
H1299 C1286 0.962 . S
H1300 C1286 0.960 . S
H1301 C1287 0.961 . S
H1302 C1287 0.961 . S
H1303 C1287 0.961 . S
H1304 C1288 0.931 . S
H1305 C1293 0.930 1_655 S
H1306 C1294 0.956 . S
H1307 C1294 0.961 . S
H1308 C1294 0.961 . S
H1309 C1295 0.958 . S
H1310 C1295 0.961 . S
H1311 C1295 0.960 . S
C1312 C1313 1.391 1_565 S
C1312 C1314 1.394 . S
C1312 H1328 0.931 . S
C1313 C1312 1.391 1_545 S
C1313 C1317 1.376 . S
C1314 C1312 1.394 . S
C1314 C1315 1.369 1_565 S
C1314 C1318 1.531 . S
C1315 C1314 1.369 1_545 S
C1315 C1316 1.410 . S
C1315 C1323 1.503 . S
C1316 C1315 1.410 . S
C1316 C1317 1.392 . S
C1316 C1319 1.511 . S
C1317 C1313 1.376 . S
C1317 C1316 1.392 . S
C1317 H1329 0.929 . S
C1318 C1314 1.531 . S
C1318 H1330 0.960 . S
C1318 H1331 0.962 . S
C1318 H1332 0.960 . S
C1319 C1316 1.511 . S
C1319 H1333 0.961 . S
C1319 H1334 0.961 . S
C1319 H1335 0.961 . S
C1320 C1321 1.370 . S
C1320 C1322 1.363 . S
C1320 H1336 0.931 . S
C1321 C1320 1.370 . S
C1321 C1325 1.433 . S
C1322 C1320 1.363 . S
C1322 C1323 1.370 . S
C1322 C1326 1.524 . S
C1323 C1315 1.503 . S
C1323 C1322 1.370 . S
C1323 C1324 1.403 1_545 S
C1324 C1323 1.403 1_565 S
C1324 C1325 1.399 1_565 S
C1324 C1327 1.539 . S
C1325 C1321 1.433 . S
C1325 C1324 1.399 1_545 S
C1325 H1337 0.912 1_545 S
C1326 C1322 1.524 . S
C1326 H1338 0.956 . S
C1326 H1339 0.961 . S
C1326 H1340 0.961 . S
C1327 C1324 1.539 . S
C1327 H1341 0.958 . S
C1327 H1342 0.961 . S
C1327 H1343 0.960 . S
H1328 C1312 0.931 . S
H1329 C1317 0.929 . S
H1330 C1318 0.960 . S
H1331 C1318 0.962 . S
H1332 C1318 0.960 . S
H1333 C1319 0.961 . S
H1334 C1319 0.961 . S
H1335 C1319 0.961 . S
H1336 C1320 0.931 . S
H1337 C1325 0.912 1_565 S
H1338 C1326 0.956 . S
H1339 C1326 0.961 . S
H1340 C1326 0.961 . S
H1341 C1327 0.958 . S
H1342 C1327 0.961 . S
H1343 C1327 0.960 . S
C1344 C1345 1.391 . S
C1344 C1346 1.394 . S
C1344 H1360 0.931 . S
C1345 C1344 1.391 . S
C1345 C1349 1.376 . S
C1346 C1344 1.394 . S
C1346 C1347 1.369 . S
C1346 C1350 1.531 . S
C1347 C1346 1.369 . S
C1347 C1348 1.410 . S
C1347 C1355 1.503 . S
C1348 C1347 1.410 . S
C1348 C1349 1.392 . S
C1348 C1351 1.511 1_455 S
C1349 C1345 1.376 . S
C1349 C1348 1.392 . S
C1349 H1361 0.929 . S
C1350 C1346 1.531 . S
C1350 H1362 0.960 . S
C1350 H1363 0.962 . S
C1350 H1364 0.960 . S
C1351 C1348 1.511 1_655 S
C1351 H1365 0.961 . S
C1351 H1366 0.961 1_655 S
C1351 H1367 0.961 . S
C1352 C1353 1.370 . S
C1352 C1354 1.363 . S
C1352 H1368 0.931 . S
C1353 C1352 1.370 . S
C1353 C1357 1.408 . S
C1354 C1352 1.363 . S
C1354 C1355 1.370 . S
C1354 C1358 1.524 . S
C1355 C1347 1.503 . S
C1355 C1354 1.370 . S
C1355 C1356 1.403 . S
C1356 C1355 1.403 . S
C1356 C1357 1.404 . S
C1356 C1359 1.539 1_455 S
C1357 C1353 1.408 . S
C1357 C1356 1.404 . S
C1357 H1369 0.930 1_455 S
C1358 C1354 1.524 . S
C1358 H1370 0.956 . S
C1358 H1371 0.961 . S
C1358 H1372 0.961 . S
C1359 C1356 1.539 1_655 S
C1359 H1373 0.958 . S
C1359 H1374 0.961 . S
C1359 H1375 0.960 . S
H1360 C1344 0.931 . S
H1361 C1349 0.929 . S
H1362 C1350 0.960 . S
H1363 C1350 0.962 . S
H1364 C1350 0.960 . S
H1365 C1351 0.961 . S
H1366 C1351 0.961 1_455 S
H1367 C1351 0.961 . S
H1368 C1352 0.931 . S
H1369 C1357 0.930 1_655 S
H1370 C1358 0.956 . S
H1371 C1358 0.961 . S
H1372 C1358 0.961 . S
H1373 C1359 0.958 . S
H1374 C1359 0.961 . S
H1375 C1359 0.960 . S
C1376 C1377 1.391 . S
C1376 C1378 1.394 . S
C1376 H1392 0.931 . S
C1377 C1376 1.391 . S
C1377 C1381 1.376 . S
C1378 C1376 1.394 . S
C1378 C1379 1.369 . S
C1378 C1382 1.531 1_545 S
C1379 C1378 1.369 . S
C1379 C1380 1.410 . S
C1379 C1387 1.503 . S
C1380 C1379 1.410 . S
C1380 C1381 1.392 . S
C1380 C1383 1.511 . S
C1381 C1377 1.376 . S
C1381 C1380 1.392 . S
C1381 H1393 0.929 . S
C1382 C1378 1.531 1_565 S
C1382 H1394 0.960 . S
C1382 H1395 0.962 . S
C1382 H1396 0.960 . S
C1383 C1380 1.511 . S
C1383 H1397 0.961 . S
C1383 H1398 0.961 . S
C1383 H1399 0.961 . S
C1384 C1385 1.370 . S
C1384 C1386 1.363 . S
C1384 H1400 0.931 . S
C1385 C1384 1.370 . S
C1385 C1389 1.408 . S
C1386 C1384 1.363 . S
C1386 C1387 1.370 . S
C1386 C1390 1.524 . S
C1387 C1379 1.503 . S
C1387 C1386 1.370 . S
C1387 C1388 1.403 . S
C1388 C1387 1.403 . S
C1388 C1389 1.404 . S
C1388 C1391 1.539 . S
C1389 C1385 1.408 . S
C1389 C1388 1.404 . S
C1389 H1401 0.930 . S
C1390 C1386 1.524 . S
C1390 H1402 0.956 1_545 S
C1390 H1403 0.961 . S
C1390 H1404 0.961 . S
C1391 C1388 1.539 . S
C1391 H1405 0.958 . S
C1391 H1406 0.961 . S
C1391 H1407 0.960 . S
H1392 C1376 0.931 . S
H1393 C1381 0.929 . S
H1394 C1382 0.960 . S
H1395 C1382 0.962 . S
H1396 C1382 0.960 . S
H1397 C1383 0.961 . S
H1398 C1383 0.961 . S
H1399 C1383 0.961 . S
H1400 C1384 0.931 . S
H1401 C1389 0.930 . S
H1402 C1390 0.956 1_565 S
H1403 C1390 0.961 . S
H1404 C1390 0.961 . S
H1405 C1391 0.958 . S
H1406 C1391 0.961 . S
H1407 C1391 0.960 . S
C1408 C1409 1.413 . S
C1408 C1410 1.395 . S
C1408 H1424 0.908 1_455 S
C1409 C1408 1.413 . S
C1409 C1413 1.376 . S
C1410 C1408 1.395 . S
C1410 C1411 1.369 . S
C1410 C1414 1.531 1_455 S
C1411 C1410 1.369 . S
C1411 C1412 1.410 . S
C1411 C1419 1.503 . S
C1412 C1411 1.410 . S
C1412 C1413 1.392 . S
C1412 C1415 1.511 . S
C1413 C1409 1.376 . S
C1413 C1412 1.392 . S
C1413 H1425 0.929 . S
C1414 C1410 1.531 1_655 S
C1414 H1426 0.960 . S
C1414 H1427 0.962 . S
C1414 H1428 0.960 . S
C1415 C1412 1.511 . S
C1415 H1429 0.961 . S
C1415 H1430 0.961 . S
C1415 H1431 0.961 . S
C1416 C1417 1.370 . S
C1416 C1418 1.363 . S
C1416 H1432 0.931 . S
C1417 C1416 1.370 . S
C1417 C1421 1.408 . S
C1418 C1416 1.363 . S
C1418 C1419 1.370 . S
C1418 C1422 1.524 . S
C1419 C1411 1.503 . S
C1419 C1418 1.370 . S
C1419 C1420 1.403 . S
C1420 C1419 1.403 . S
C1420 C1421 1.404 . S
C1420 C1423 1.539 . S
C1421 C1417 1.408 . S
C1421 C1420 1.404 . S
C1421 H1433 0.930 . S
C1422 C1418 1.524 . S
C1422 H1434 0.956 . S
C1422 H1435 0.961 . S
C1422 H1436 0.961 . S
C1423 C1420 1.539 . S
C1423 H1437 0.958 . S
C1423 H1438 0.961 . S
C1423 H1439 0.960 . S
H1424 C1408 0.908 1_655 S
H1425 C1413 0.929 . S
H1426 C1414 0.960 . S
H1427 C1414 0.962 . S
H1428 C1414 0.960 . S
H1429 C1415 0.961 . S
H1430 C1415 0.961 . S
H1431 C1415 0.961 . S
H1432 C1416 0.931 . S
H1433 C1421 0.930 . S
H1434 C1422 0.956 . S
H1435 C1422 0.961 . S
H1436 C1422 0.961 . S
H1437 C1423 0.958 . S
H1438 C1423 0.961 . S
H1439 C1423 0.960 . S
C1440 C1441 1.391 1_565 S
C1440 C1442 1.394 . S
C1440 H1456 0.931 . S
C1441 C1440 1.391 1_545 S
C1441 C1445 1.376 . S
C1442 C1440 1.394 . S
C1442 C1443 1.369 1_565 S
C1442 C1446 1.531 . S
C1443 C1442 1.369 1_545 S
C1443 C1444 1.410 . S
C1443 C1451 1.503 . S
C1444 C1443 1.410 . S
C1444 C1445 1.392 . S
C1444 C1447 1.511 . S
C1445 C1441 1.376 . S
C1445 C1444 1.392 . S
C1445 H1457 0.929 . S
C1446 C1442 1.531 . S
C1446 H1458 0.960 . S
C1446 H1459 0.962 . S
C1446 H1460 0.960 . S
C1447 C1444 1.511 . S
C1447 H1461 0.961 . S
C1447 H1462 0.961 . S
C1447 H1463 0.961 . S
C1448 C1449 1.370 . S
C1448 C1450 1.363 . S
C1448 H1464 0.931 . S
C1449 C1448 1.370 . S
C1449 C1453 1.408 . S
C1450 C1448 1.363 . S
C1450 C1451 1.370 . S
C1450 C1454 1.524 . S
C1451 C1443 1.503 . S
C1451 C1450 1.370 . S
C1451 C1452 1.403 . S
C1452 C1451 1.403 . S
C1452 C1453 1.404 . S
C1452 C1455 1.539 . S
C1453 C1449 1.408 . S
C1453 C1452 1.404 . S
C1453 H1465 0.930 . S
C1454 C1450 1.524 . S
C1454 H1466 0.956 . S
C1454 H1467 0.961 . S
C1454 H1468 0.961 . S
C1455 C1452 1.539 . S
C1455 H1469 0.958 1_545 S
C1455 H1470 0.961 . S
C1455 H1471 0.960 . S
H1456 C1440 0.931 . S
H1457 C1445 0.929 . S
H1458 C1446 0.960 . S
H1459 C1446 0.962 . S
H1460 C1446 0.960 . S
H1461 C1447 0.961 . S
H1462 C1447 0.961 . S
H1463 C1447 0.961 . S
H1464 C1448 0.931 . S
H1465 C1453 0.930 . S
H1466 C1454 0.956 . S
H1467 C1454 0.961 . S
H1468 C1454 0.961 . S
H1469 C1455 0.958 1_565 S
H1470 C1455 0.961 . S
H1471 C1455 0.960 . S
C1472 C1473 1.391 1_655 S
C1472 C1474 1.394 . S
C1472 H1488 0.931 . S
C1473 C1472 1.391 1_455 S
C1473 C1477 1.376 . S
C1474 C1472 1.394 . S
C1474 C1475 1.369 1_655 S
C1474 C1478 1.531 . S
C1475 C1474 1.369 1_455 S
C1475 C1476 1.410 . S
C1475 C1483 1.503 . S
C1476 C1475 1.410 . S
C1476 C1477 1.392 . S
C1476 C1479 1.511 . S
C1477 C1473 1.376 . S
C1477 C1476 1.392 . S
C1477 H1489 0.929 . S
C1478 C1474 1.531 . S
C1478 H1490 0.960 . S
C1478 H1491 0.962 . S
C1478 H1492 0.960 . S
C1479 C1476 1.511 . S
C1479 H1493 0.961 . S
C1479 H1494 0.961 . S
C1479 H1495 0.961 . S
C1480 C1481 1.370 1_655 S
C1480 C1482 1.363 . S
C1480 H1496 0.931 . S
C1481 C1480 1.370 1_455 S
C1481 C1485 1.408 . S
C1482 C1480 1.363 . S
C1482 C1483 1.370 1_655 S
C1482 C1486 1.524 . S
C1483 C1475 1.503 . S
C1483 C1482 1.370 1_455 S
C1483 C1484 1.403 . S
C1484 C1483 1.403 . S
C1484 C1485 1.404 . S
C1484 C1487 1.539 . S
C1485 C1481 1.408 . S
C1485 C1484 1.404 . S
C1485 H1497 0.930 . S
C1486 C1482 1.524 . S
C1486 H1498 0.956 . S
C1486 H1499 0.961 . S
C1486 H1500 0.961 . S
C1487 C1484 1.539 . S
C1487 H1501 0.958 . S
C1487 H1502 0.961 . S
C1487 H1503 0.960 . S
H1488 C1472 0.931 . S
H1489 C1477 0.929 . S
H1490 C1478 0.960 . S
H1491 C1478 0.962 . S
H1492 C1478 0.960 . S
H1493 C1479 0.961 . S
H1494 C1479 0.961 . S
H1495 C1479 0.961 . S
H1496 C1480 0.931 . S
H1497 C1485 0.930 . S
H1498 C1486 0.956 . S
H1499 C1486 0.961 . S
H1500 C1486 0.961 . S
H1501 C1487 0.958 . S
H1502 C1487 0.961 . S
H1503 C1487 0.960 . S
C1504 C1505 1.391 1_565 S
C1504 C1506 1.394 . S
C1504 H1520 0.931 . S
C1505 C1504 1.391 1_545 S
C1505 C1509 1.376 . S
C1506 C1504 1.394 . S
C1506 C1507 1.369 1_565 S
C1506 C1510 1.531 . S
C1507 C1506 1.369 1_545 S
C1507 C1508 1.410 . S
C1507 C1515 1.503 . S
C1508 C1507 1.410 . S
C1508 C1509 1.392 . S
C1508 C1511 1.511 . S
C1509 C1505 1.376 . S
C1509 C1508 1.392 . S
C1509 H1521 0.929 . S
C1510 C1506 1.531 . S
C1510 H1522 0.960 . S
C1510 H1523 0.962 . S
C1510 H1524 0.960 . S
C1511 C1508 1.511 . S
C1511 H1525 0.961 . S
C1511 H1526 0.961 . S
C1511 H1527 0.961 . S
C1512 C1513 1.370 . S
C1512 C1514 1.363 . S
C1512 H1528 0.931 . S
C1513 C1512 1.370 . S
C1513 C1517 1.408 1_545 S
C1514 C1512 1.363 . S
C1514 C1515 1.370 . S
C1514 C1518 1.524 . S
C1515 C1507 1.503 . S
C1515 C1514 1.370 . S
C1515 C1516 1.403 1_545 S
C1516 C1515 1.403 1_565 S
C1516 C1517 1.404 . S
C1516 C1519 1.539 . S
C1517 C1513 1.408 1_565 S
C1517 C1516 1.404 . S
C1517 H1529 0.930 . S
C1518 C1514 1.524 . S
C1518 H1530 0.956 . S
C1518 H1531 0.961 . S
C1518 H1532 0.961 . S
C1519 C1516 1.539 . S
C1519 H1533 0.958 . S
C1519 H1534 0.961 . S
C1519 H1535 0.960 . S
H1520 C1504 0.931 . S
H1521 C1509 0.929 . S
H1522 C1510 0.960 . S
H1523 C1510 0.962 . S
H1524 C1510 0.960 . S
H1525 C1511 0.961 . S
H1526 C1511 0.961 . S
H1527 C1511 0.961 . S
H1528 C1512 0.931 . S
H1529 C1517 0.930 . S
H1530 C1518 0.956 . S
H1531 C1518 0.961 . S
H1532 C1518 0.961 . S
H1533 C1519 0.958 . S
H1534 C1519 0.961 . S
H1535 C1519 0.960 . S
C1536 C1537 1.391 . S
C1536 C1538 1.394 . S
C1536 H1552 0.931 1_455 S
C1537 C1536 1.391 . S
C1537 C1541 1.376 . S
C1538 C1536 1.394 . S
C1538 C1539 1.369 . S
C1538 C1542 1.531 1_455 S
C1539 C1538 1.369 . S
C1539 C1540 1.410 . S
C1539 C1547 1.503 . S
C1540 C1539 1.410 . S
C1540 C1541 1.392 . S
C1540 C1543 1.511 . S
C1541 C1537 1.376 . S
C1541 C1540 1.392 . S
C1541 H1553 0.929 . S
C1542 C1538 1.531 1_655 S
C1542 H1554 0.960 1_655 S
C1542 H1555 0.962 . S
C1542 H1556 0.960 . S
C1543 C1540 1.511 . S
C1543 H1557 0.961 . S
C1543 H1558 0.961 . S
C1543 H1559 0.961 . S
C1544 C1545 1.373 . S
C1544 C1546 1.364 . S
C1544 H1560 0.928 1_455 S
C1545 C1544 1.373 . S
C1545 C1549 1.408 . S
C1546 C1544 1.364 . S
C1546 C1547 1.370 . S
C1546 C1550 1.524 1_455 S
C1547 C1539 1.503 . S
C1547 C1546 1.370 . S
C1547 C1548 1.403 . S
C1548 C1547 1.403 . S
C1548 C1549 1.404 . S
C1548 C1551 1.539 . S
C1549 C1545 1.408 . S
C1549 C1548 1.404 . S
C1549 H1561 0.930 . S
C1550 C1546 1.524 1_655 S
C1550 H1562 0.956 . S
C1550 H1563 0.961 . S
C1550 H1564 0.961 . S
C1551 C1548 1.539 . S
C1551 H1565 0.958 . S
C1551 H1566 0.961 . S
C1551 H1567 0.960 . S
H1552 C1536 0.931 1_655 S
H1553 C1541 0.929 . S
H1554 C1542 0.960 1_455 S
H1555 C1542 0.962 . S
H1556 C1542 0.960 . S
H1557 C1543 0.961 . S
H1558 C1543 0.961 . S
H1559 C1543 0.961 . S
H1560 C1544 0.928 1_655 S
H1561 C1549 0.930 . S
H1562 C1550 0.956 . S
H1563 C1550 0.961 . S
H1564 C1550 0.961 . S
H1565 C1551 0.958 . S
H1566 C1551 0.961 . S
H1567 C1551 0.960 . S
C1568 C1569 1.391 . S
C1568 C1570 1.394 . S
C1568 H1584 0.931 . S
C1569 C1568 1.391 . S
C1569 C1573 1.376 . S
C1570 C1568 1.394 . S
C1570 C1571 1.369 . S
C1570 C1574 1.531 . S
C1571 C1570 1.369 . S
C1571 C1572 1.410 . S
C1571 C1579 1.503 . S
C1572 C1571 1.410 . S
C1572 C1573 1.392 . S
C1572 C1575 1.511 . S
C1573 C1569 1.376 . S
C1573 C1572 1.392 . S
C1573 H1585 0.929 . S
C1574 C1570 1.531 . S
C1574 H1586 0.960 1_545 S
C1574 H1587 0.962 . S
C1574 H1588 0.960 1_545 S
C1575 C1572 1.511 . S
C1575 H1589 0.961 . S
C1575 H1590 0.961 . S
C1575 H1591 0.961 . S
C1576 C1577 1.370 . S
C1576 C1578 1.363 . S
C1576 H1592 0.931 . S
C1577 C1576 1.370 . S
C1577 C1581 1.408 . S
C1578 C1576 1.363 . S
C1578 C1579 1.370 . S
C1578 C1582 1.524 . S
C1579 C1571 1.503 . S
C1579 C1578 1.370 . S
C1579 C1580 1.403 . S
C1580 C1579 1.403 . S
C1580 C1581 1.404 . S
C1580 C1583 1.539 1_545 S
C1581 C1577 1.408 . S
C1581 C1580 1.404 . S
C1581 H1593 0.930 1_545 S
C1582 C1578 1.524 . S
C1582 H1594 0.956 . S
C1582 H1595 0.961 . S
C1582 H1596 0.961 . S
C1583 C1580 1.539 1_565 S
C1583 H1597 0.958 . S
C1583 H1598 0.961 . S
C1583 H1599 0.960 . S
H1584 C1568 0.931 . S
H1585 C1573 0.929 . S
H1586 C1574 0.960 1_565 S
H1587 C1574 0.962 . S
H1588 C1574 0.960 1_565 S
H1589 C1575 0.961 . S
H1590 C1575 0.961 . S
H1591 C1575 0.961 . S
H1592 C1576 0.931 . S
H1593 C1581 0.930 1_565 S
H1594 C1582 0.956 . S
H1595 C1582 0.961 . S
H1596 C1582 0.961 . S
H1597 C1583 0.958 . S
H1598 C1583 0.961 . S
H1599 C1583 0.960 . S
C1600 C1601 1.391 . S
C1600 C1602 1.394 . S
C1600 H1616 0.931 . S
C1601 C1600 1.391 . S
C1601 C1605 1.376 1_545 S
C1602 C1600 1.394 . S
C1602 C1603 1.369 . S
C1602 C1606 1.531 . S
C1603 C1602 1.369 . S
C1603 C1604 1.410 1_545 S
C1603 C1611 1.503 . S
C1604 C1603 1.410 1_565 S
C1604 C1605 1.392 . S
C1604 C1607 1.511 . S
C1605 C1601 1.376 1_565 S
C1605 C1604 1.392 . S
C1605 H1617 0.929 . S
C1606 C1602 1.531 . S
C1606 H1618 0.960 . S
C1606 H1619 0.962 . S
C1606 H1620 0.960 . S
C1607 C1604 1.511 . S
C1607 H1621 0.961 . S
C1607 H1622 0.961 . S
C1607 H1623 0.961 . S
C1608 C1609 1.370 1_565 S
C1608 C1610 1.363 . S
C1608 H1624 0.931 . S
C1609 C1608 1.370 1_545 S
C1609 C1613 1.408 . S
C1610 C1608 1.363 . S
C1610 C1611 1.370 1_565 S
C1610 C1614 1.524 . S
C1611 C1603 1.503 . S
C1611 C1610 1.370 1_545 S
C1611 C1612 1.403 . S
C1612 C1611 1.403 . S
C1612 C1613 1.404 . S
C1612 C1615 1.539 . S
C1613 C1609 1.408 . S
C1613 C1612 1.404 . S
C1613 H1625 0.930 . S
C1614 C1610 1.524 . S
C1614 H1626 0.956 . S
C1614 H1627 0.961 . S
C1614 H1628 0.961 . S
C1615 C1612 1.539 . S
C1615 H1629 0.958 . S
C1615 H1630 0.961 . S
C1615 H1631 0.960 . S
H1616 C1600 0.931 . S
H1617 C1605 0.929 . S
H1618 C1606 0.960 . S
H1619 C1606 0.962 . S
H1620 C1606 0.960 . S
H1621 C1607 0.961 . S
H1622 C1607 0.961 . S
H1623 C1607 0.961 . S
H1624 C1608 0.931 . S
H1625 C1613 0.930 . S
H1626 C1614 0.956 . S
H1627 C1614 0.961 . S
H1628 C1614 0.961 . S
H1629 C1615 0.958 . S
H1630 C1615 0.961 . S
H1631 C1615 0.960 . S
C1632 C1633 1.391 . S
C1632 C1634 1.394 . S
C1632 H1648 0.931 . S
C1633 C1632 1.391 . S
C1633 C1637 1.376 . S
C1634 C1632 1.394 . S
C1634 C1635 1.369 . S
C1634 C1638 1.531 . S
C1635 C1634 1.369 . S
C1635 C1636 1.410 . S
C1635 C1643 1.503 . S
C1636 C1635 1.410 . S
C1636 C1637 1.392 . S
C1636 C1639 1.511 1_455 S
C1637 C1633 1.376 . S
C1637 C1636 1.392 . S
C1637 H1649 0.929 1_455 S
C1638 C1634 1.531 . S
C1638 H1650 0.960 . S
C1638 H1651 0.962 . S
C1638 H1652 0.960 . S
C1639 C1636 1.511 1_655 S
C1639 H1653 0.961 . S
C1639 H1654 0.961 . S
C1639 H1655 0.961 . S
C1640 C1641 1.370 . S
C1640 C1642 1.363 . S
C1640 H1656 0.931 . S
C1641 C1640 1.370 . S
C1641 C1645 1.408 . S
C1642 C1640 1.363 . S
C1642 C1643 1.370 . S
C1642 C1646 1.524 . S
C1643 C1635 1.503 . S
C1643 C1642 1.370 . S
C1643 C1644 1.403 . S
C1644 C1643 1.403 . S
C1644 C1645 1.404 . S
C1644 C1647 1.539 . S
C1645 C1641 1.408 . S
C1645 C1644 1.404 . S
C1645 H1657 0.930 . S
C1646 C1642 1.524 . S
C1646 H1658 0.956 . S
C1646 H1659 0.961 . S
C1646 H1660 0.961 . S
C1647 C1644 1.539 . S
C1647 H1661 0.958 . S
C1647 H1662 0.961 1_455 S
C1647 H1663 0.960 . S
H1648 C1632 0.931 . S
H1649 C1637 0.929 1_655 S
H1650 C1638 0.960 . S
H1651 C1638 0.962 . S
H1652 C1638 0.960 . S
H1653 C1639 0.961 . S
H1654 C1639 0.961 . S
H1655 C1639 0.961 . S
H1656 C1640 0.931 . S
H1657 C1645 0.930 . S
H1658 C1646 0.956 . S
H1659 C1646 0.961 . S
H1660 C1646 0.961 . S
H1661 C1647 0.958 . S
H1662 C1647 0.961 1_655 S
H1663 C1647 0.960 . S
C1664 C1665 1.391 . S
C1664 C1666 1.394 . S
C1664 H1680 0.931 . S
C1665 C1664 1.391 . S
C1665 C1669 1.376 . S
C1666 C1664 1.394 . S
C1666 C1667 1.369 . S
C1666 C1670 1.531 1_545 S
C1667 C1666 1.369 . S
C1667 C1668 1.410 . S
C1667 C1675 1.503 . S
C1668 C1667 1.410 . S
C1668 C1669 1.392 . S
C1668 C1671 1.511 . S
C1669 C1665 1.376 . S
C1669 C1668 1.392 . S
C1669 H1681 0.929 . S
C1670 C1666 1.531 1_565 S
C1670 H1682 0.960 . S
C1670 H1683 0.962 . S
C1670 H1684 0.960 . S
C1671 C1668 1.511 . S
C1671 H1685 0.961 . S
C1671 H1686 0.961 . S
C1671 H1687 0.961 . S
C1672 C1673 1.370 . S
C1672 C1674 1.363 . S
C1672 H1688 0.931 . S
C1673 C1672 1.370 . S
C1673 C1677 1.408 . S
C1674 C1672 1.363 . S
C1674 C1675 1.370 . S
C1674 C1678 1.524 . S
C1675 C1667 1.503 . S
C1675 C1674 1.370 . S
C1675 C1676 1.403 . S
C1676 C1675 1.403 . S
C1676 C1677 1.404 . S
C1676 C1679 1.539 . S
C1677 C1673 1.408 . S
C1677 C1676 1.404 . S
C1677 H1689 0.930 . S
C1678 C1674 1.524 . S
C1678 H1690 0.956 . S
C1678 H1691 0.961 . S
C1678 H1692 0.961 . S
C1679 C1676 1.539 . S
C1679 H1693 0.958 1_545 S
C1679 H1694 0.961 . S
C1679 H1695 0.960 . S
H1680 C1664 0.931 . S
H1681 C1669 0.929 . S
H1682 C1670 0.960 . S
H1683 C1670 0.962 . S
H1684 C1670 0.960 . S
H1685 C1671 0.961 . S
H1686 C1671 0.961 . S
H1687 C1671 0.961 . S
H1688 C1672 0.931 . S
H1689 C1677 0.930 . S
H1690 C1678 0.956 . S
H1691 C1678 0.961 . S
H1692 C1678 0.961 . S
H1693 C1679 0.958 1_565 S
H1694 C1679 0.961 . S
H1695 C1679 0.960 . S
C1696 C1697 1.391 . S
C1696 C1698 1.394 . S
C1696 H1712 0.931 . S
C1697 C1696 1.391 . S
C1697 C1701 1.376 . S
C1698 C1696 1.394 . S
C1698 C1699 1.369 . S
C1698 C1702 1.531 . S
C1699 C1698 1.369 . S
C1699 C1700 1.410 . S
C1699 C1707 1.503 . S
C1700 C1699 1.410 . S
C1700 C1701 1.392 . S
C1700 C1703 1.511 . S
C1701 C1697 1.376 . S
C1701 C1700 1.392 . S
C1701 H1713 0.929 . S
C1702 C1698 1.531 . S
C1702 H1714 0.960 . S
C1702 H1715 0.962 . S
C1702 H1716 0.960 . S
C1703 C1700 1.511 . S
C1703 H1717 0.961 1_455 S
C1703 H1718 0.961 . S
C1703 H1719 0.961 . S
C1704 C1705 1.370 1_655 S
C1704 C1706 1.363 . S
C1704 H1720 0.931 . S
C1705 C1704 1.370 1_455 S
C1705 C1709 1.408 . S
C1706 C1704 1.363 . S
C1706 C1707 1.370 1_655 S
C1706 C1710 1.524 . S
C1707 C1699 1.503 . S
C1707 C1706 1.370 1_455 S
C1707 C1708 1.403 . S
C1708 C1707 1.403 . S
C1708 C1709 1.404 . S
C1708 C1711 1.539 . S
C1709 C1705 1.408 . S
C1709 C1708 1.404 . S
C1709 H1721 0.930 . S
C1710 C1706 1.524 . S
C1710 H1722 0.956 . S
C1710 H1723 0.961 . S
C1710 H1724 0.961 . S
C1711 C1708 1.539 . S
C1711 H1725 0.958 . S
C1711 H1726 0.961 . S
C1711 H1727 0.960 . S
H1712 C1696 0.931 . S
H1713 C1701 0.929 . S
H1714 C1702 0.960 . S
H1715 C1702 0.962 . S
H1716 C1702 0.960 . S
H1717 C1703 0.961 1_655 S
H1718 C1703 0.961 . S
H1719 C1703 0.961 . S
H1720 C1704 0.931 . S
H1721 C1709 0.930 . S
H1722 C1710 0.956 . S
H1723 C1710 0.961 . S
H1724 C1710 0.961 . S
H1725 C1711 0.958 . S
H1726 C1711 0.961 . S
H1727 C1711 0.960 . S
C1728 C1729 1.393 . S
C1728 C1730 1.393 1_545 S
C1728 H1744 0.929 1_545 S
C1729 C1728 1.393 . S
C1729 C1733 1.376 . S
C1730 C1728 1.393 1_565 S
C1730 C1731 1.368 1_565 S
C1730 C1734 1.532 . S
C1731 C1730 1.368 1_545 S
C1731 C1732 1.410 . S
C1731 C1739 1.503 . S
C1732 C1731 1.410 . S
C1732 C1733 1.392 . S
C1732 C1735 1.511 . S
C1733 C1729 1.376 . S
C1733 C1732 1.392 . S
C1733 H1745 0.929 . S
C1734 C1730 1.532 . S
C1734 H1746 0.960 . S
C1734 H1747 0.962 1_565 S
C1734 H1748 0.960 . S
C1735 C1732 1.511 . S
C1735 H1749 0.961 . S
C1735 H1750 0.961 . S
C1735 H1751 0.961 1_545 S
C1736 C1737 1.370 . S
C1736 C1738 1.363 . S
C1736 H1752 0.931 . S
C1737 C1736 1.370 . S
C1737 C1741 1.408 1_545 S
C1738 C1736 1.363 . S
C1738 C1739 1.370 . S
C1738 C1742 1.524 . S
C1739 C1731 1.503 . S
C1739 C1738 1.370 . S
C1739 C1740 1.403 1_545 S
C1740 C1739 1.403 1_565 S
C1740 C1741 1.404 . S
C1740 C1743 1.539 . S
C1741 C1737 1.408 1_565 S
C1741 C1740 1.404 . S
C1741 H1753 0.930 . S
C1742 C1738 1.524 . S
C1742 H1754 0.956 . S
C1742 H1755 0.961 . S
C1742 H1756 0.961 . S
C1743 C1740 1.539 . S
C1743 H1757 0.958 . S
C1743 H1758 0.961 . S
C1743 H1759 0.960 . S
H1744 C1728 0.929 1_565 S
H1745 C1733 0.929 . S
H1746 C1734 0.960 . S
H1747 C1734 0.962 1_545 S
H1748 C1734 0.960 . S
H1749 C1735 0.961 . S
H1750 C1735 0.961 . S
H1751 C1735 0.961 1_565 S
H1752 C1736 0.931 . S
H1753 C1741 0.930 . S
H1754 C1742 0.956 . S
H1755 C1742 0.961 . S
H1756 C1742 0.961 . S
H1757 C1743 0.958 . S
H1758 C1743 0.961 . S
H1759 C1743 0.960 . S
C1760 C1761 1.389 1_655 S
C1760 C1762 1.393 1_655 S
C1760 H1776 0.933 . S
C1761 C1760 1.389 1_455 S
C1761 C1765 1.376 . S
C1762 C1760 1.393 1_455 S
C1762 C1763 1.369 . S
C1762 C1766 1.531 1_455 S
C1763 C1762 1.369 . S
C1763 C1764 1.410 . S
C1763 C1771 1.503 . S
C1764 C1763 1.410 . S
C1764 C1765 1.392 . S
C1764 C1767 1.511 . S
C1765 C1761 1.376 . S
C1765 C1764 1.392 . S
C1765 H1777 0.929 . S
C1766 C1762 1.531 1_655 S
C1766 H1778 0.960 . S
C1766 H1779 0.962 . S
C1766 H1780 0.960 . S
C1767 C1764 1.511 . S
C1767 H1781 0.961 . S
C1767 H1782 0.961 . S
C1767 H1783 0.961 . S
C1768 C1769 1.370 . S
C1768 C1770 1.363 . S
C1768 H1784 0.931 . S
C1769 C1768 1.370 . S
C1769 C1773 1.408 . S
C1770 C1768 1.363 . S
C1770 C1771 1.370 . S
C1770 C1774 1.524 . S
C1771 C1763 1.503 . S
C1771 C1770 1.370 . S
C1771 C1772 1.403 . S
C1772 C1771 1.403 . S
C1772 C1773 1.404 . S
C1772 C1775 1.539 . S
C1773 C1769 1.408 . S
C1773 C1772 1.404 . S
C1773 H1785 0.930 . S
C1774 C1770 1.524 . S
C1774 H1786 0.956 . S
C1774 H1787 0.961 . S
C1774 H1788 0.961 . S
C1775 C1772 1.539 . S
C1775 H1789 0.958 . S
C1775 H1790 0.961 . S
C1775 H1791 0.960 . S
H1776 C1760 0.933 . S
H1777 C1765 0.929 . S
H1778 C1766 0.960 . S
H1779 C1766 0.962 . S
H1780 C1766 0.960 . S
H1781 C1767 0.961 . S
H1782 C1767 0.961 . S
H1783 C1767 0.961 . S
H1784 C1768 0.931 . S
H1785 C1773 0.930 . S
H1786 C1774 0.956 . S
H1787 C1774 0.961 . S
H1788 C1774 0.961 . S
H1789 C1775 0.958 . S
H1790 C1775 0.961 . S
H1791 C1775 0.960 . S
C1792 C1793 1.391 . S
C1792 C1794 1.394 . S
C1792 H1808 0.931 . S
C1793 C1792 1.391 . S
C1793 C1797 1.376 . S
C1794 C1792 1.394 . S
C1794 C1795 1.369 . S
C1794 C1798 1.531 1_545 S
C1795 C1794 1.369 . S
C1795 C1796 1.410 . S
C1795 C1803 1.503 . S
C1796 C1795 1.410 . S
C1796 C1797 1.392 . S
C1796 C1799 1.511 . S
C1797 C1793 1.376 . S
C1797 C1796 1.392 . S
C1797 H1809 0.929 . S
C1798 C1794 1.531 1_565 S
C1798 H1810 0.960 . S
C1798 H1811 0.962 1_565 S
C1798 H1812 0.960 . S
C1799 C1796 1.511 . S
C1799 H1813 0.961 . S
C1799 H1814 0.961 . S
C1799 H1815 0.961 . S
C1800 C1801 1.370 . S
C1800 C1802 1.363 . S
C1800 H1816 0.931 . S
C1801 C1800 1.370 . S
C1801 C1805 1.408 . S
C1802 C1800 1.363 . S
C1802 C1803 1.370 . S
C1802 C1806 1.524 . S
C1803 C1795 1.503 . S
C1803 C1802 1.370 . S
C1803 C1804 1.403 . S
C1804 C1803 1.403 . S
C1804 C1805 1.404 . S
C1804 C1807 1.539 1_545 S
C1805 C1801 1.408 . S
C1805 C1804 1.404 . S
C1805 H1817 0.922 1_545 S
C1806 C1802 1.524 . S
C1806 H1818 0.956 . S
C1806 H1819 0.961 . S
C1806 H1820 0.961 . S
C1807 C1804 1.539 1_565 S
C1807 H1821 0.958 . S
C1807 H1822 0.961 . S
C1807 H1823 0.955 1_565 S
H1808 C1792 0.931 . S
H1809 C1797 0.929 . S
H1810 C1798 0.960 . S
H1811 C1798 0.962 1_545 S
H1812 C1798 0.960 . S
H1813 C1799 0.961 . S
H1814 C1799 0.961 . S
H1815 C1799 0.961 . S
H1816 C1800 0.931 . S
H1817 C1805 0.922 1_565 S
H1818 C1806 0.956 . S
H1819 C1806 0.961 . S
H1820 C1806 0.961 . S
H1821 C1807 0.958 . S
H1822 C1807 0.961 . S
H1823 C1807 0.955 1_545 S
C1824 C1825 1.391 1_655 S
C1824 C1826 1.394 . S
C1824 H1840 0.931 . S
C1825 C1824 1.391 1_455 S
C1825 C1829 1.376 . S
C1826 C1824 1.394 . S
C1826 C1827 1.369 1_655 S
C1826 C1830 1.531 . S
C1827 C1826 1.369 1_455 S
C1827 C1828 1.410 . S
C1827 C1835 1.503 . S
C1828 C1827 1.410 . S
C1828 C1829 1.392 . S
C1828 C1831 1.511 . S
C1829 C1825 1.376 . S
C1829 C1828 1.392 . S
C1829 H1841 0.929 . S
C1830 C1826 1.531 . S
C1830 H1842 0.960 . S
C1830 H1843 0.962 . S
C1830 H1844 0.960 . S
C1831 C1828 1.511 . S
C1831 H1845 0.961 . S
C1831 H1846 0.961 . S
C1831 H1847 0.961 . S
C1832 C1833 1.370 . S
C1832 C1834 1.363 . S
C1832 H1848 0.945 . S
C1833 C1832 1.370 . S
C1833 C1837 1.408 . S
C1834 C1832 1.363 . S
C1834 C1835 1.370 . S
C1834 C1838 1.524 1_455 S
C1835 C1827 1.503 . S
C1835 C1834 1.370 . S
C1835 C1836 1.403 . S
C1836 C1835 1.403 . S
C1836 C1837 1.404 . S
C1836 C1839 1.539 . S
C1837 C1833 1.408 . S
C1837 C1836 1.404 . S
C1837 H1849 0.930 . S
C1838 C1834 1.524 1_655 S
C1838 H1850 0.956 . S
C1838 H1851 0.961 1_655 S
C1838 H1852 0.961 . S
C1839 C1836 1.539 . S
C1839 H1853 0.958 . S
C1839 H1854 0.961 . S
C1839 H1855 0.960 . S
H1840 C1824 0.931 . S
H1841 C1829 0.929 . S
H1842 C1830 0.960 . S
H1843 C1830 0.962 . S
H1844 C1830 0.960 . S
H1845 C1831 0.961 . S
H1846 C1831 0.961 . S
H1847 C1831 0.961 . S
H1848 C1832 0.945 . S
H1849 C1837 0.930 . S
H1850 C1838 0.956 . S
H1851 C1838 0.961 1_455 S
H1852 C1838 0.961 . S
H1853 C1839 0.958 . S
H1854 C1839 0.961 . S
H1855 C1839 0.960 . S
C1856 C1857 1.389 . S
C1856 C1858 1.394 1_554 S
C1856 H1872 0.932 1_554 S
C1857 C1856 1.389 . S
C1857 C1861 1.376 . S
C1858 C1856 1.394 1_556 S
C1858 C1859 1.369 1_556 S
C1858 C1862 1.531 . S
C1859 C1858 1.369 1_554 S
C1859 C1860 1.410 . S
C1859 C1867 1.503 . S
C1860 C1859 1.410 . S
C1860 C1861 1.392 . S
C1860 C1863 1.511 . S
C1861 C1857 1.376 . S
C1861 C1860 1.392 . S
C1861 H1873 0.929 . S
C1862 C1858 1.531 . S
C1862 H1874 0.960 . S
C1862 H1875 0.962 . S
C1862 H1876 0.960 . S
C1863 C1860 1.511 . S
C1863 H1877 0.961 . S
C1863 H1878 0.961 . S
C1863 H1879 0.961 . S
C1864 C1865 1.370 . S
C1864 C1866 1.363 . S
C1864 H1880 0.931 . S
C1865 C1864 1.370 . S
C1865 C1869 1.408 1_554 S
C1866 C1864 1.363 . S
C1866 C1867 1.370 . S
C1866 C1870 1.524 . S
C1867 C1859 1.503 . S
C1867 C1866 1.370 . S
C1867 C1868 1.403 1_554 S
C1868 C1867 1.403 1_556 S
C1868 C1869 1.404 . S
C1868 C1871 1.539 . S
C1869 C1865 1.408 1_556 S
C1869 C1868 1.404 . S
C1869 H1881 0.930 . S
C1870 C1866 1.524 . S
C1870 H1882 0.956 . S
C1870 H1883 0.961 . S
C1870 H1884 0.961 . S
C1871 C1868 1.539 . S
C1871 H1885 0.958 . S
C1871 H1886 0.961 . S
C1871 H1887 0.960 . S
H1872 C1856 0.932 1_556 S
H1873 C1861 0.929 . S
H1874 C1862 0.960 . S
H1875 C1862 0.962 . S
H1876 C1862 0.960 . S
H1877 C1863 0.961 . S
H1878 C1863 0.961 . S
H1879 C1863 0.961 . S
H1880 C1864 0.931 . S
H1881 C1869 0.930 . S
H1882 C1870 0.956 . S
H1883 C1870 0.961 . S
H1884 C1870 0.961 . S
H1885 C1871 0.958 . S
H1886 C1871 0.961 . S
H1887 C1871 0.960 . S
C1888 C1889 1.391 . S
C1888 C1890 1.394 . S
C1888 H1904 0.931 . S
C1889 C1888 1.391 . S
C1889 C1893 1.376 . S
C1890 C1888 1.394 . S
C1890 C1891 1.369 . S
C1890 C1894 1.531 . S
C1891 C1890 1.369 . S
C1891 C1892 1.410 . S
C1891 C1899 1.503 . S
C1892 C1891 1.410 . S
C1892 C1893 1.392 . S
C1892 C1895 1.511 . S
C1893 C1889 1.376 . S
C1893 C1892 1.392 . S
C1893 H1905 0.929 . S
C1894 C1890 1.531 . S
C1894 H1906 0.960 . S
C1894 H1907 0.962 . S
C1894 H1908 0.960 . S
C1895 C1892 1.511 . S
C1895 H1909 0.961 . S
C1895 H1910 0.961 . S
C1895 H1911 0.961 . S
C1896 C1897 1.370 1_556 S
C1896 C1898 1.363 . S
C1896 H1912 0.931 . S
C1897 C1896 1.370 1_554 S
C1897 C1901 1.408 . S
C1898 C1896 1.363 . S
C1898 C1899 1.370 1_556 S
C1898 C1902 1.524 . S
C1899 C1891 1.503 . S
C1899 C1898 1.370 1_554 S
C1899 C1900 1.403 . S
C1900 C1899 1.403 . S
C1900 C1901 1.404 . S
C1900 C1903 1.539 . S
C1901 C1897 1.408 . S
C1901 C1900 1.404 . S
C1901 H1913 0.930 . S
C1902 C1898 1.524 . S
C1902 H1914 0.956 . S
C1902 H1915 0.961 . S
C1902 H1916 0.961 . S
C1903 C1900 1.539 . S
C1903 H1917 0.958 . S
C1903 H1918 0.961 . S
C1903 H1919 0.960 . S
H1904 C1888 0.931 . S
H1905 C1893 0.929 . S
H1906 C1894 0.960 . S
H1907 C1894 0.962 . S
H1908 C1894 0.960 . S
H1909 C1895 0.961 . S
H1910 C1895 0.961 . S
H1911 C1895 0.961 . S
H1912 C1896 0.931 . S
H1913 C1901 0.930 . S
H1914 C1902 0.956 . S
H1915 C1902 0.961 . S
H1916 C1902 0.961 . S
H1917 C1903 0.958 . S
H1918 C1903 0.961 . S
H1919 C1903 0.960 . S
C1920 C1921 1.391 . S
C1920 C1922 1.394 . S
C1920 H1936 0.931 . S
C1921 C1920 1.391 . S
C1921 C1925 1.376 . S
C1922 C1920 1.394 . S
C1922 C1923 1.369 . S
C1922 C1926 1.525 1_554 S
C1923 C1922 1.369 . S
C1923 C1924 1.410 . S
C1923 C1931 1.503 . S
C1924 C1923 1.410 . S
C1924 C1925 1.392 . S
C1924 C1927 1.511 . S
C1925 C1921 1.376 . S
C1925 C1924 1.392 . S
C1925 H1937 0.929 . S
C1926 C1922 1.525 1_556 S
C1926 H1938 0.976 . S
C1926 H1939 0.938 1_556 S
C1926 H1940 0.975 . S
C1927 C1924 1.511 . S
C1927 H1941 0.961 . S
C1927 H1942 0.961 . S
C1927 H1943 0.961 1_554 S
C1928 C1929 1.370 . S
C1928 C1930 1.363 . S
C1928 H1944 0.931 . S
C1929 C1928 1.370 . S
C1929 C1933 1.408 1_554 S
C1930 C1928 1.363 . S
C1930 C1931 1.370 . S
C1930 C1934 1.524 . S
C1931 C1923 1.503 . S
C1931 C1930 1.370 . S
C1931 C1932 1.403 1_554 S
C1932 C1931 1.403 1_556 S
C1932 C1933 1.404 . S
C1932 C1935 1.539 . S
C1933 C1929 1.408 1_556 S
C1933 C1932 1.404 . S
C1933 H1945 0.930 . S
C1934 C1930 1.524 . S
C1934 H1946 0.956 . S
C1934 H1947 0.961 . S
C1934 H1948 0.961 . S
C1935 C1932 1.539 . S
C1935 H1949 0.958 . S
C1935 H1950 0.961 . S
C1935 H1951 0.960 . S
H1936 C1920 0.931 . S
H1937 C1925 0.929 . S
H1938 C1926 0.976 . S
H1939 C1926 0.938 1_554 S
H1940 C1926 0.975 . S
H1941 C1927 0.961 . S
H1942 C1927 0.961 . S
H1943 C1927 0.961 1_556 S
H1944 C1928 0.931 . S
H1945 C1933 0.930 . S
H1946 C1934 0.956 . S
H1947 C1934 0.961 . S
H1948 C1934 0.961 . S
H1949 C1935 0.958 . S
H1950 C1935 0.961 . S
H1951 C1935 0.960 . S
C1952 C1953 1.392 . S
C1952 C1954 1.394 . S
C1952 H1968 0.931 . S
C1953 C1952 1.392 . S
C1953 C1957 1.376 . S
C1954 C1952 1.394 . S
C1954 C1955 1.369 . S
C1954 C1958 1.531 . S
C1955 C1954 1.369 . S
C1955 C1956 1.410 . S
C1955 C1963 1.503 . S
C1956 C1955 1.410 . S
C1956 C1957 1.393 . S
C1956 C1959 1.511 . S
C1957 C1953 1.376 . S
C1957 C1956 1.393 . S
C1957 H1969 0.928 1_556 S
C1958 C1954 1.531 . S
C1958 H1970 0.960 . S
C1958 H1971 0.962 1_556 S
C1958 H1972 0.960 . S
C1959 C1956 1.511 . S
C1959 H1973 0.961 1_556 S
C1959 H1974 0.961 1_556 S
C1959 H1975 0.961 . S
C1960 C1961 1.369 . S
C1960 C1962 1.363 . S
C1960 H1976 0.931 . S
C1961 C1960 1.369 . S
C1961 C1965 1.410 1_554 S
C1962 C1960 1.363 . S
C1962 C1963 1.370 1_554 S
C1962 C1966 1.524 . S
C1963 C1955 1.503 . S
C1963 C1962 1.370 1_556 S
C1963 C1964 1.403 . S
C1964 C1963 1.403 . S
C1964 C1965 1.404 . S
C1964 C1967 1.539 . S
C1965 C1961 1.410 1_556 S
C1965 C1964 1.404 . S
C1965 H1977 0.930 . S
C1966 C1962 1.524 . S
C1966 H1978 0.956 . S
C1966 H1979 0.961 . S
C1966 H1980 0.961 . S
C1967 C1964 1.539 . S
C1967 H1981 0.958 . S
C1967 H1982 0.961 . S
C1967 H1983 0.960 . S
H1968 C1952 0.931 . S
H1969 C1957 0.928 1_554 S
H1970 C1958 0.960 . S
H1971 C1958 0.962 1_554 S
H1972 C1958 0.960 . S
H1973 C1959 0.961 1_554 S
H1974 C1959 0.961 1_554 S
H1975 C1959 0.961 . S
H1976 C1960 0.931 . S
H1977 C1965 0.930 . S
H1978 C1966 0.956 . S
H1979 C1966 0.961 . S
H1980 C1966 0.961 . S
H1981 C1967 0.958 . S
H1982 C1967 0.961 . S
H1983 C1967 0.960 . S
C1984 C1985 1.391 . S
C1984 C1986 1.394 . S
C1984 H2000 0.931 . S
C1985 C1984 1.391 . S
C1985 C1989 1.373 1_554 S
C1986 C1984 1.394 . S
C1986 C1987 1.368 1_554 S
C1986 C1990 1.531 . S
C1987 C1986 1.368 1_556 S
C1987 C1988 1.410 . S
C1987 C1995 1.502 1_556 S
C1988 C1987 1.410 . S
C1988 C1989 1.394 . S
C1988 C1991 1.511 . S
C1989 C1985 1.373 1_556 S
C1989 C1988 1.394 . S
C1989 H2001 0.931 . S
C1990 C1986 1.531 . S
C1990 H2002 0.960 1_554 S
C1990 H2003 0.962 . S
C1990 H2004 0.960 1_554 S
C1991 C1988 1.511 . S
C1991 H2005 0.961 1_556 S
C1991 H2006 0.961 1_556 S
C1991 H2007 0.961 . S
C1992 C1993 1.370 . S
C1992 C1994 1.363 . S
C1992 H2008 0.931 . S
C1993 C1992 1.370 . S
C1993 C1997 1.408 1_554 S
C1994 C1992 1.363 . S
C1994 C1995 1.370 . S
C1994 C1998 1.524 . S
C1995 C1987 1.502 1_554 S
C1995 C1994 1.370 . S
C1995 C1996 1.403 1_554 S
C1996 C1995 1.403 1_556 S
C1996 C1997 1.404 . S
C1996 C1999 1.539 . S
C1997 C1993 1.408 1_556 S
C1997 C1996 1.404 . S
C1997 H2009 0.930 . S
C1998 C1994 1.524 . S
C1998 H2010 0.956 . S
C1998 H2011 0.961 . S
C1998 H2012 0.961 . S
C1999 C1996 1.539 . S
C1999 H2013 0.958 . S
C1999 H2014 0.961 . S
C1999 H2015 0.960 . S
H2000 C1984 0.931 . S
H2001 C1989 0.931 . S
H2002 C1990 0.960 1_556 S
H2003 C1990 0.962 . S
H2004 C1990 0.960 1_556 S
H2005 C1991 0.961 1_554 S
H2006 C1991 0.961 1_554 S
H2007 C1991 0.961 . S
H2008 C1992 0.931 . S
H2009 C1997 0.930 . S
H2010 C1998 0.956 . S
H2011 C1998 0.961 . S
H2012 C1998 0.961 . S
H2013 C1999 0.958 . S
H2014 C1999 0.961 . S
H2015 C1999 0.960 . S
C2016 C2017 1.391 . S
C2016 C2018 1.394 . S
C2016 H2032 0.931 . S
C2017 C2016 1.391 . S
C2017 C2021 1.376 . S
C2018 C2016 1.394 . S
C2018 C2019 1.369 . S
C2018 C2022 1.531 . S
C2019 C2018 1.369 . S
C2019 C2020 1.410 . S
C2019 C2027 1.503 . S
C2020 C2019 1.410 . S
C2020 C2021 1.392 . S
C2020 C2023 1.511 . S
C2021 C2017 1.376 . S
C2021 C2020 1.392 . S
C2021 H2033 0.929 . S
C2022 C2018 1.531 . S
C2022 H2034 0.960 . S
C2022 H2035 0.962 1_554 S
C2022 H2036 0.960 . S
C2023 C2020 1.511 . S
C2023 H2037 0.962 1_554 S
C2023 H2038 0.977 . S
C2023 H2039 0.961 . S
C2024 C2025 1.370 1_556 S
C2024 C2026 1.363 . S
C2024 H2040 0.931 . S
C2025 C2024 1.370 1_554 S
C2025 C2029 1.408 . S
C2026 C2024 1.363 . S
C2026 C2027 1.370 1_556 S
C2026 C2030 1.524 . S
C2027 C2019 1.503 . S
C2027 C2026 1.370 1_554 S
C2027 C2028 1.403 . S
C2028 C2027 1.403 . S
C2028 C2029 1.404 . S
C2028 C2031 1.539 . S
C2029 C2025 1.408 . S
C2029 C2028 1.404 . S
C2029 H2041 0.930 . S
C2030 C2026 1.524 . S
C2030 H2042 0.956 . S
C2030 H2043 0.961 . S
C2030 H2044 0.961 . S
C2031 C2028 1.539 . S
C2031 H2045 0.958 . S
C2031 H2046 0.961 . S
C2031 H2047 0.960 . S
H2032 C2016 0.931 . S
H2033 C2021 0.929 . S
H2034 C2022 0.960 . S
H2035 C2022 0.962 1_556 S
H2036 C2022 0.960 . S
H2037 C2023 0.962 1_556 S
H2038 C2023 0.977 . S
H2039 C2023 0.961 . S
H2040 C2024 0.931 . S
H2041 C2029 0.930 . S
H2042 C2030 0.956 . S
H2043 C2030 0.961 . S
H2044 C2030 0.961 . S
H2045 C2031 0.958 . S
H2046 C2031 0.961 . S
H2047 C2031 0.960 . S
C2048 C2049 1.391 . S
C2048 C2050 1.394 . S
C2048 H2064 0.931 . S
C2049 C2048 1.391 . S
C2049 C2053 1.376 . S
C2050 C2048 1.394 . S
C2050 C2051 1.369 . S
C2050 C2054 1.531 . S
C2051 C2050 1.369 . S
C2051 C2052 1.410 . S
C2051 C2059 1.503 . S
C2052 C2051 1.410 . S
C2052 C2053 1.392 . S
C2052 C2055 1.511 . S
C2053 C2049 1.376 . S
C2053 C2052 1.392 . S
C2053 H2065 0.929 . S
C2054 C2050 1.531 . S
C2054 H2066 0.960 . S
C2054 H2067 0.962 . S
C2054 H2068 0.960 . S
C2055 C2052 1.511 . S
C2055 H2069 0.961 1_554 S
C2055 H2070 0.961 1_554 S
C2055 H2071 0.961 . S
C2056 C2057 1.370 1_556 S
C2056 C2058 1.363 . S
C2056 H2072 0.931 . S
C2057 C2056 1.370 1_554 S
C2057 C2061 1.408 . S
C2058 C2056 1.363 . S
C2058 C2059 1.370 1_556 S
C2058 C2062 1.524 . S
C2059 C2051 1.503 . S
C2059 C2058 1.370 1_554 S
C2059 C2060 1.403 . S
C2060 C2059 1.403 . S
C2060 C2061 1.404 . S
C2060 C2063 1.539 . S
C2061 C2057 1.408 . S
C2061 C2060 1.404 . S
C2061 H2073 0.930 . S
C2062 C2058 1.524 . S
C2062 H2074 0.956 . S
C2062 H2075 0.961 . S
C2062 H2076 0.961 . S
C2063 C2060 1.539 . S
C2063 H2077 0.958 . S
C2063 H2078 0.961 . S
C2063 H2079 0.960 . S
H2064 C2048 0.931 . S
H2065 C2053 0.929 . S
H2066 C2054 0.960 . S
H2067 C2054 0.962 . S
H2068 C2054 0.960 . S
H2069 C2055 0.961 1_556 S
H2070 C2055 0.961 1_556 S
H2071 C2055 0.961 . S
H2072 C2056 0.931 . S
H2073 C2061 0.930 . S
H2074 C2062 0.956 . S
H2075 C2062 0.961 . S
H2076 C2062 0.961 . S
H2077 C2063 0.958 . S
H2078 C2063 0.961 . S
H2079 C2063 0.960 . S
C2080 C2081 1.391 1_556 S
C2080 C2082 1.394 . S
C2080 H2096 0.931 . S
C2081 C2080 1.391 1_554 S
C2081 C2085 1.376 . S
C2082 C2080 1.394 . S
C2082 C2083 1.345 1_556 S
C2082 C2086 1.531 . S
C2083 C2082 1.345 1_554 S
C2083 C2084 1.433 . S
C2083 C2091 1.506 . S
C2084 C2083 1.433 . S
C2084 C2085 1.392 . S
C2084 C2087 1.511 . S
C2085 C2081 1.376 . S
C2085 C2084 1.392 . S
C2085 H2097 0.929 . S
C2086 C2082 1.531 . S
C2086 H2098 0.960 . S
C2086 H2099 0.962 . S
C2086 H2100 0.960 . S
C2087 C2084 1.511 . S
C2087 H2101 0.961 . S
C2087 H2102 0.961 . S
C2087 H2103 0.961 . S
C2088 C2089 1.370 . S
C2088 C2090 1.363 . S
C2088 H2104 0.931 . S
C2089 C2088 1.370 . S
C2089 C2093 1.408 1_554 S
C2090 C2088 1.363 . S
C2090 C2091 1.370 . S
C2090 C2094 1.524 . S
C2091 C2083 1.506 . S
C2091 C2090 1.370 . S
C2091 C2092 1.403 1_554 S
C2092 C2091 1.403 1_556 S
C2092 C2093 1.404 . S
C2092 C2095 1.539 . S
C2093 C2089 1.408 1_556 S
C2093 C2092 1.404 . S
C2093 H2105 0.930 . S
C2094 C2090 1.524 . S
C2094 H2106 0.956 . S
C2094 H2107 0.961 . S
C2094 H2108 0.961 . S
C2095 C2092 1.539 . S
C2095 H2109 0.958 . S
C2095 H2110 0.961 . S
C2095 H2111 0.960 . S
H2096 C2080 0.931 . S
H2097 C2085 0.929 . S
H2098 C2086 0.960 . S
H2099 C2086 0.962 . S
H2100 C2086 0.960 . S
H2101 C2087 0.961 . S
H2102 C2087 0.961 . S
H2103 C2087 0.961 . S
H2104 C2088 0.931 . S
H2105 C2093 0.930 . S
H2106 C2094 0.956 . S
H2107 C2094 0.961 . S
H2108 C2094 0.961 . S
H2109 C2095 0.958 . S
H2110 C2095 0.961 . S
H2111 C2095 0.960 . S
C2112 C2113 1.391 . S
C2112 C2114 1.394 . S
C2112 H2128 0.931 . S
C2113 C2112 1.391 . S
C2113 C2117 1.376 . S
C2114 C2112 1.394 . S
C2114 C2115 1.369 . S
C2114 C2118 1.531 . S
C2115 C2114 1.369 . S
C2115 C2116 1.410 . S
C2115 C2123 1.503 . S
C2116 C2115 1.410 . S
C2116 C2117 1.392 . S
C2116 C2119 1.511 . S
C2117 C2113 1.376 . S
C2117 C2116 1.392 . S
C2117 H2129 0.929 . S
C2118 C2114 1.531 . S
C2118 H2130 0.960 . S
C2118 H2131 0.962 . S
C2118 H2132 0.960 . S
C2119 C2116 1.511 . S
C2119 H2133 0.961 . S
C2119 H2134 0.961 . S
C2119 H2135 0.961 . S
C2120 C2121 1.370 . S
C2120 C2122 1.363 . S
C2120 H2136 0.931 . S
C2121 C2120 1.370 . S
C2121 C2125 1.408 . S
C2122 C2120 1.363 . S
C2122 C2123 1.370 . S
C2122 C2126 1.524 . S
C2123 C2115 1.503 . S
C2123 C2122 1.370 . S
C2123 C2124 1.403 . S
C2124 C2123 1.403 . S
C2124 C2125 1.404 . S
C2124 C2127 1.539 . S
C2125 C2121 1.408 . S
C2125 C2124 1.404 . S
C2125 H2137 0.930 . S
C2126 C2122 1.524 . S
C2126 H2138 0.956 . S
C2126 H2139 0.961 . S
C2126 H2140 0.961 . S
C2127 C2124 1.539 . S
C2127 H2141 0.958 . S
C2127 H2142 0.961 . S
C2127 H2143 0.960 . S
H2128 C2112 0.931 . S
H2129 C2117 0.929 . S
H2130 C2118 0.960 . S
H2131 C2118 0.962 . S
H2132 C2118 0.960 . S
H2133 C2119 0.961 . S
H2134 C2119 0.961 . S
H2135 C2119 0.961 . S
H2136 C2120 0.931 . S
H2137 C2125 0.930 . S
H2138 C2126 0.956 . S
H2139 C2126 0.961 . S
H2140 C2126 0.961 . S
H2141 C2127 0.958 . S
H2142 C2127 0.961 . S
H2143 C2127 0.960 . S
C2144 C2145 1.391 . S
C2144 C2146 1.394 . S
C2144 H2160 0.931 . S
C2145 C2144 1.391 . S
C2145 C2149 1.376 . S
C2146 C2144 1.394 . S
C2146 C2147 1.369 . S
C2146 C2150 1.531 . S
C2147 C2146 1.369 . S
C2147 C2148 1.410 . S
C2147 C2155 1.503 . S
C2148 C2147 1.410 . S
C2148 C2149 1.392 . S
C2148 C2151 1.511 . S
C2149 C2145 1.376 . S
C2149 C2148 1.392 . S
C2149 H2161 0.929 . S
C2150 C2146 1.531 . S
C2150 H2162 0.960 . S
C2150 H2163 0.962 . S
C2150 H2164 0.960 . S
C2151 C2148 1.511 . S
C2151 H2165 0.961 . S
C2151 H2166 0.961 . S
C2151 H2167 0.961 . S
C2152 C2153 1.370 . S
C2152 C2154 1.363 . S
C2152 H2168 0.931 . S
C2153 C2152 1.370 . S
C2153 C2157 1.408 . S
C2154 C2152 1.363 . S
C2154 C2155 1.370 . S
C2154 C2158 1.524 . S
C2155 C2147 1.503 . S
C2155 C2154 1.370 . S
C2155 C2156 1.403 . S
C2156 C2155 1.403 . S
C2156 C2157 1.404 . S
C2156 C2159 1.539 . S
C2157 C2153 1.408 . S
C2157 C2156 1.404 . S
C2157 H2169 0.930 . S
C2158 C2154 1.524 . S
C2158 H2170 0.956 . S
C2158 H2171 0.961 . S
C2158 H2172 0.961 . S
C2159 C2156 1.539 . S
C2159 H2173 0.958 . S
C2159 H2174 0.961 . S
C2159 H2175 0.960 . S
H2160 C2144 0.931 . S
H2161 C2149 0.929 . S
H2162 C2150 0.960 . S
H2163 C2150 0.962 . S
H2164 C2150 0.960 . S
H2165 C2151 0.961 . S
H2166 C2151 0.961 . S
H2167 C2151 0.961 . S
H2168 C2152 0.931 . S
H2169 C2157 0.930 . S
H2170 C2158 0.956 . S
H2171 C2158 0.961 . S
H2172 C2158 0.961 . S
H2173 C2159 0.958 . S
H2174 C2159 0.961 . S
H2175 C2159 0.960 . S
C2176 C2177 1.391 . S
C2176 C2178 1.394 . S
C2176 H2192 0.931 . S
C2177 C2176 1.391 . S
C2177 C2181 1.376 . S
C2178 C2176 1.394 . S
C2178 C2179 1.369 . S
C2178 C2182 1.531 . S
C2179 C2178 1.369 . S
C2179 C2180 1.410 . S
C2179 C2187 1.503 . S
C2180 C2179 1.410 . S
C2180 C2181 1.392 . S
C2180 C2183 1.511 . S
C2181 C2177 1.376 . S
C2181 C2180 1.392 . S
C2181 H2193 0.929 . S
C2182 C2178 1.531 . S
C2182 H2194 0.960 . S
C2182 H2195 0.962 . S
C2182 H2196 0.960 . S
C2183 C2180 1.511 . S
C2183 H2197 0.961 . S
C2183 H2198 0.961 . S
C2183 H2199 0.961 . S
C2184 C2185 1.370 . S
C2184 C2186 1.363 . S
C2184 H2200 0.931 . S
C2185 C2184 1.370 . S
C2185 C2189 1.408 . S
C2186 C2184 1.363 . S
C2186 C2187 1.370 . S
C2186 C2190 1.524 . S
C2187 C2179 1.503 . S
C2187 C2186 1.370 . S
C2187 C2188 1.403 . S
C2188 C2187 1.403 . S
C2188 C2189 1.404 . S
C2188 C2191 1.539 . S
C2189 C2185 1.408 . S
C2189 C2188 1.404 . S
C2189 H2201 0.930 . S
C2190 C2186 1.524 . S
C2190 H2202 0.956 . S
C2190 H2203 0.961 . S
C2190 H2204 0.961 . S
C2191 C2188 1.539 . S
C2191 H2205 0.958 . S
C2191 H2206 0.961 . S
C2191 H2207 0.960 . S
H2192 C2176 0.931 . S
H2193 C2181 0.929 . S
H2194 C2182 0.960 . S
H2195 C2182 0.962 . S
H2196 C2182 0.960 . S
H2197 C2183 0.961 . S
H2198 C2183 0.961 . S
H2199 C2183 0.961 . S
H2200 C2184 0.931 . S
H2201 C2189 0.930 . S
H2202 C2190 0.956 . S
H2203 C2190 0.961 . S
H2204 C2190 0.961 . S
H2205 C2191 0.958 . S
H2206 C2191 0.961 . S
H2207 C2191 0.960 . S
C2208 C2209 1.391 . S
C2208 C2210 1.394 . S
C2208 H2224 0.931 . S
C2209 C2208 1.391 . S
C2209 C2213 1.376 . S
C2210 C2208 1.394 . S
C2210 C2211 1.369 . S
C2210 C2214 1.531 . S
C2211 C2210 1.369 . S
C2211 C2212 1.410 . S
C2211 C2219 1.503 . S
C2212 C2211 1.410 . S
C2212 C2213 1.392 . S
C2212 C2215 1.511 . S
C2213 C2209 1.376 . S
C2213 C2212 1.392 . S
C2213 H2225 0.929 . S
C2214 C2210 1.531 . S
C2214 H2226 0.960 . S
C2214 H2227 0.962 . S
C2214 H2228 0.960 . S
C2215 C2212 1.511 . S
C2215 H2229 0.961 . S
C2215 H2230 0.961 . S
C2215 H2231 0.961 . S
C2216 C2217 1.370 . S
C2216 C2218 1.363 . S
C2216 H2232 0.931 . S
C2217 C2216 1.370 . S
C2217 C2221 1.408 . S
C2218 C2216 1.363 . S
C2218 C2219 1.370 . S
C2218 C2222 1.524 . S
C2219 C2211 1.503 . S
C2219 C2218 1.370 . S
C2219 C2220 1.403 . S
C2220 C2219 1.403 . S
C2220 C2221 1.404 . S
C2220 C2223 1.539 . S
C2221 C2217 1.408 . S
C2221 C2220 1.404 . S
C2221 H2233 0.930 . S
C2222 C2218 1.524 . S
C2222 H2234 0.956 . S
C2222 H2235 0.961 . S
C2222 H2236 0.961 . S
C2223 C2220 1.539 . S
C2223 H2237 0.958 . S
C2223 H2238 0.961 . S
C2223 H2239 0.960 . S
H2224 C2208 0.931 . S
H2225 C2213 0.929 . S
H2226 C2214 0.960 . S
H2227 C2214 0.962 . S
H2228 C2214 0.960 . S
H2229 C2215 0.961 . S
H2230 C2215 0.961 . S
H2231 C2215 0.961 . S
H2232 C2216 0.931 . S
H2233 C2221 0.930 . S
H2234 C2222 0.956 . S
H2235 C2222 0.961 . S
H2236 C2222 0.961 . S
H2237 C2223 0.958 . S
H2238 C2223 0.961 . S
H2239 C2223 0.960 . S
C2240 C2241 1.391 . S
C2240 C2242 1.394 . S
C2240 H2256 0.931 . S
C2241 C2240 1.391 . S
C2241 C2245 1.376 . S
C2242 C2240 1.394 . S
C2242 C2243 1.369 . S
C2242 C2246 1.531 . S
C2243 C2242 1.369 . S
C2243 C2244 1.410 . S
C2243 C2251 1.503 . S
C2244 C2243 1.410 . S
C2244 C2245 1.392 . S
C2244 C2247 1.511 . S
C2245 C2241 1.376 . S
C2245 C2244 1.392 . S
C2245 H2257 0.929 . S
C2246 C2242 1.531 . S
C2246 H2258 0.960 . S
C2246 H2259 0.962 . S
C2246 H2260 0.960 . S
C2247 C2244 1.511 . S
C2247 H2261 0.961 . S
C2247 H2262 0.961 . S
C2247 H2263 0.961 . S
C2248 C2249 1.370 . S
C2248 C2250 1.363 . S
C2248 H2264 0.931 . S
C2249 C2248 1.370 . S
C2249 C2253 1.408 . S
C2250 C2248 1.363 . S
C2250 C2251 1.370 . S
C2250 C2254 1.524 . S
C2251 C2243 1.503 . S
C2251 C2250 1.370 . S
C2251 C2252 1.403 . S
C2252 C2251 1.403 . S
C2252 C2253 1.404 . S
C2252 C2255 1.539 . S
C2253 C2249 1.408 . S
C2253 C2252 1.404 . S
C2253 H2265 0.930 . S
C2254 C2250 1.524 . S
C2254 H2266 0.956 . S
C2254 H2267 0.961 . S
C2254 H2268 0.961 . S
C2255 C2252 1.539 . S
C2255 H2269 0.958 . S
C2255 H2270 0.961 . S
C2255 H2271 0.960 . S
H2256 C2240 0.931 . S
H2257 C2245 0.929 . S
H2258 C2246 0.960 . S
H2259 C2246 0.962 . S
H2260 C2246 0.960 . S
H2261 C2247 0.961 . S
H2262 C2247 0.961 . S
H2263 C2247 0.961 . S
H2264 C2248 0.931 . S
H2265 C2253 0.930 . S
H2266 C2254 0.956 . S
H2267 C2254 0.961 . S
H2268 C2254 0.961 . S
H2269 C2255 0.958 . S
H2270 C2255 0.961 . S
H2271 C2255 0.960 . S
C2272 C2273 1.391 . S
C2272 C2274 1.394 . S
C2272 H2288 0.931 . S
C2273 C2272 1.391 . S
C2273 C2277 1.376 . S
C2274 C2272 1.394 . S
C2274 C2275 1.369 . S
C2274 C2278 1.531 . S
C2275 C2274 1.369 . S
C2275 C2276 1.410 . S
C2275 C2283 1.503 . S
C2276 C2275 1.410 . S
C2276 C2277 1.392 . S
C2276 C2279 1.511 . S
C2277 C2273 1.376 . S
C2277 C2276 1.392 . S
C2277 H2289 0.929 . S
C2278 C2274 1.531 . S
C2278 H2290 0.960 . S
C2278 H2291 0.962 . S
C2278 H2292 0.960 . S
C2279 C2276 1.511 . S
C2279 H2293 0.961 . S
C2279 H2294 0.961 . S
C2279 H2295 0.961 . S
C2280 C2281 1.370 . S
C2280 C2282 1.363 . S
C2280 H2296 0.931 . S
C2281 C2280 1.370 . S
C2281 C2285 1.408 . S
C2282 C2280 1.363 . S
C2282 C2283 1.370 . S
C2282 C2286 1.524 . S
C2283 C2275 1.503 . S
C2283 C2282 1.370 . S
C2283 C2284 1.403 . S
C2284 C2283 1.403 . S
C2284 C2285 1.404 . S
C2284 C2287 1.539 . S
C2285 C2281 1.408 . S
C2285 C2284 1.404 . S
C2285 H2297 0.930 . S
C2286 C2282 1.524 . S
C2286 H2298 0.956 . S
C2286 H2299 0.961 . S
C2286 H2300 0.961 . S
C2287 C2284 1.539 . S
C2287 H2301 0.958 . S
C2287 H2302 0.961 . S
C2287 H2303 0.960 . S
H2288 C2272 0.931 . S
H2289 C2277 0.929 . S
H2290 C2278 0.960 . S
H2291 C2278 0.962 . S
H2292 C2278 0.960 . S
H2293 C2279 0.961 . S
H2294 C2279 0.961 . S
H2295 C2279 0.961 . S
H2296 C2280 0.931 . S
H2297 C2285 0.930 . S
H2298 C2286 0.956 . S
H2299 C2286 0.961 . S
H2300 C2286 0.961 . S
H2301 C2287 0.958 . S
H2302 C2287 0.961 . S
H2303 C2287 0.960 . S
C2304 C2305 1.391 . S
C2304 C2306 1.394 . S
C2304 H2320 0.931 . S
C2305 C2304 1.391 . S
C2305 C2309 1.376 . S
C2306 C2304 1.394 . S
C2306 C2307 1.369 . S
C2306 C2310 1.531 . S
C2307 C2306 1.369 . S
C2307 C2308 1.410 . S
C2307 C2315 1.503 . S
C2308 C2307 1.410 . S
C2308 C2309 1.392 . S
C2308 C2311 1.511 . S
C2309 C2305 1.376 . S
C2309 C2308 1.392 . S
C2309 H2321 0.929 . S
C2310 C2306 1.531 . S
C2310 H2322 0.960 . S
C2310 H2323 0.962 . S
C2310 H2324 0.960 . S
C2311 C2308 1.511 . S
C2311 H2325 0.961 . S
C2311 H2326 0.961 . S
C2311 H2327 0.961 . S
C2312 C2313 1.370 . S
C2312 C2314 1.363 . S
C2312 H2328 0.931 . S
C2313 C2312 1.370 . S
C2313 C2317 1.408 . S
C2314 C2312 1.363 . S
C2314 C2315 1.370 . S
C2314 C2318 1.524 . S
C2315 C2307 1.503 . S
C2315 C2314 1.370 . S
C2315 C2316 1.403 . S
C2316 C2315 1.403 . S
C2316 C2317 1.404 . S
C2316 C2319 1.539 . S
C2317 C2313 1.408 . S
C2317 C2316 1.404 . S
C2317 H2329 0.930 . S
C2318 C2314 1.524 . S
C2318 H2330 0.956 . S
C2318 H2331 0.961 . S
C2318 H2332 0.961 . S
C2319 C2316 1.539 . S
C2319 H2333 0.958 . S
C2319 H2334 0.961 . S
C2319 H2335 0.960 . S
H2320 C2304 0.931 . S
H2321 C2309 0.929 . S
H2322 C2310 0.960 . S
H2323 C2310 0.962 . S
H2324 C2310 0.960 . S
H2325 C2311 0.961 . S
H2326 C2311 0.961 . S
H2327 C2311 0.961 . S
H2328 C2312 0.931 . S
H2329 C2317 0.930 . S
H2330 C2318 0.956 . S
H2331 C2318 0.961 . S
H2332 C2318 0.961 . S
H2333 C2319 0.958 . S
H2334 C2319 0.961 . S
H2335 C2319 0.960 . S
C2336 C2337 1.391 . S
C2336 C2338 1.394 . S
C2336 H2352 0.931 . S
C2337 C2336 1.391 . S
C2337 C2341 1.376 . S
C2338 C2336 1.394 . S
C2338 C2339 1.369 . S
C2338 C2342 1.531 . S
C2339 C2338 1.369 . S
C2339 C2340 1.410 . S
C2339 C2347 1.503 . S
C2340 C2339 1.410 . S
C2340 C2341 1.392 . S
C2340 C2343 1.511 . S
C2341 C2337 1.376 . S
C2341 C2340 1.392 . S
C2341 H2353 0.929 . S
C2342 C2338 1.531 . S
C2342 H2354 0.960 . S
C2342 H2355 0.962 . S
C2342 H2356 0.960 . S
C2343 C2340 1.511 . S
C2343 H2357 0.961 . S
C2343 H2358 0.961 . S
C2343 H2359 0.961 . S
C2344 C2345 1.370 . S
C2344 C2346 1.363 . S
C2344 H2360 0.931 . S
C2345 C2344 1.370 . S
C2345 C2349 1.408 . S
C2346 C2344 1.363 . S
C2346 C2347 1.370 . S
C2346 C2350 1.524 . S
C2347 C2339 1.503 . S
C2347 C2346 1.370 . S
C2347 C2348 1.403 . S
C2348 C2347 1.403 . S
C2348 C2349 1.404 . S
C2348 C2351 1.539 . S
C2349 C2345 1.408 . S
C2349 C2348 1.404 . S
C2349 H2361 0.930 . S
C2350 C2346 1.524 . S
C2350 H2362 0.956 . S
C2350 H2363 0.961 . S
C2350 H2364 0.961 . S
C2351 C2348 1.539 . S
C2351 H2365 0.958 . S
C2351 H2366 0.961 . S
C2351 H2367 0.960 . S
H2352 C2336 0.931 . S
H2353 C2341 0.929 . S
H2354 C2342 0.960 . S
H2355 C2342 0.962 . S
H2356 C2342 0.960 . S
H2357 C2343 0.961 . S
H2358 C2343 0.961 . S
H2359 C2343 0.961 . S
H2360 C2344 0.931 . S
H2361 C2349 0.930 . S
H2362 C2350 0.956 . S
H2363 C2350 0.961 . S
H2364 C2350 0.961 . S
H2365 C2351 0.958 . S
H2366 C2351 0.961 . S
H2367 C2351 0.960 . S
C2368 C2369 1.391 . S
C2368 C2370 1.394 . S
C2368 H2384 0.931 . S
C2369 C2368 1.391 . S
C2369 C2373 1.376 . S
C2370 C2368 1.394 . S
C2370 C2371 1.369 . S
C2370 C2374 1.531 . S
C2371 C2370 1.369 . S
C2371 C2372 1.410 . S
C2371 C2379 1.503 . S
C2372 C2371 1.410 . S
C2372 C2373 1.392 . S
C2372 C2375 1.511 . S
C2373 C2369 1.376 . S
C2373 C2372 1.392 . S
C2373 H2385 0.929 . S
C2374 C2370 1.531 . S
C2374 H2386 0.960 . S
C2374 H2387 0.962 . S
C2374 H2388 0.960 . S
C2375 C2372 1.511 . S
C2375 H2389 0.961 . S
C2375 H2390 0.961 . S
C2375 H2391 0.961 . S
C2376 C2377 1.370 . S
C2376 C2378 1.363 . S
C2376 H2392 0.931 . S
C2377 C2376 1.370 . S
C2377 C2381 1.408 . S
C2378 C2376 1.363 . S
C2378 C2379 1.370 . S
C2378 C2382 1.524 . S
C2379 C2371 1.503 . S
C2379 C2378 1.370 . S
C2379 C2380 1.403 . S
C2380 C2379 1.403 . S
C2380 C2381 1.404 . S
C2380 C2383 1.539 . S
C2381 C2377 1.408 . S
C2381 C2380 1.404 . S
C2381 H2393 0.930 . S
C2382 C2378 1.524 . S
C2382 H2394 0.956 . S
C2382 H2395 0.961 . S
C2382 H2396 0.961 . S
C2383 C2380 1.539 . S
C2383 H2397 0.958 . S
C2383 H2398 0.961 . S
C2383 H2399 0.960 . S
H2384 C2368 0.931 . S
H2385 C2373 0.929 . S
H2386 C2374 0.960 . S
H2387 C2374 0.962 . S
H2388 C2374 0.960 . S
H2389 C2375 0.961 . S
H2390 C2375 0.961 . S
H2391 C2375 0.961 . S
H2392 C2376 0.931 . S
H2393 C2381 0.930 . S
H2394 C2382 0.956 . S
H2395 C2382 0.961 . S
H2396 C2382 0.961 . S
H2397 C2383 0.958 . S
H2398 C2383 0.961 . S
H2399 C2383 0.960 . S
C2400 C2401 1.391 . S
C2400 C2402 1.394 . S
C2400 H2416 0.931 . S
C2401 C2400 1.391 . S
C2401 C2405 1.376 . S
C2402 C2400 1.394 . S
C2402 C2403 1.369 . S
C2402 C2406 1.531 . S
C2403 C2402 1.369 . S
C2403 C2404 1.410 . S
C2403 C2411 1.503 . S
C2404 C2403 1.410 . S
C2404 C2405 1.392 . S
C2404 C2407 1.511 . S
C2405 C2401 1.376 . S
C2405 C2404 1.392 . S
C2405 H2417 0.929 . S
C2406 C2402 1.531 . S
C2406 H2418 0.960 . S
C2406 H2419 0.962 . S
C2406 H2420 0.960 . S
C2407 C2404 1.511 . S
C2407 H2421 0.961 . S
C2407 H2422 0.961 . S
C2407 H2423 0.961 . S
C2408 C2409 1.370 . S
C2408 C2410 1.363 . S
C2408 H2424 0.931 . S
C2409 C2408 1.370 . S
C2409 C2413 1.408 . S
C2410 C2408 1.363 . S
C2410 C2411 1.370 . S
C2410 C2414 1.524 . S
C2411 C2403 1.503 . S
C2411 C2410 1.370 . S
C2411 C2412 1.403 . S
C2412 C2411 1.403 . S
C2412 C2413 1.404 . S
C2412 C2415 1.539 . S
C2413 C2409 1.408 . S
C2413 C2412 1.404 . S
C2413 H2425 0.930 . S
C2414 C2410 1.524 . S
C2414 H2426 0.956 . S
C2414 H2427 0.961 . S
C2414 H2428 0.961 . S
C2415 C2412 1.539 . S
C2415 H2429 0.958 . S
C2415 H2430 0.961 . S
C2415 H2431 0.960 . S
H2416 C2400 0.931 . S
H2417 C2405 0.929 . S
H2418 C2406 0.960 . S
H2419 C2406 0.962 . S
H2420 C2406 0.960 . S
H2421 C2407 0.961 . S
H2422 C2407 0.961 . S
H2423 C2407 0.961 . S
H2424 C2408 0.931 . S
H2425 C2413 0.930 . S
H2426 C2414 0.956 . S
H2427 C2414 0.961 . S
H2428 C2414 0.961 . S
H2429 C2415 0.958 . S
H2430 C2415 0.961 . S
H2431 C2415 0.960 . S
C2432 C2433 1.391 . S
C2432 C2434 1.394 . S
C2432 H2448 0.931 . S
C2433 C2432 1.391 . S
C2433 C2437 1.376 . S
C2434 C2432 1.394 . S
C2434 C2435 1.369 . S
C2434 C2438 1.531 . S
C2435 C2434 1.369 . S
C2435 C2436 1.410 . S
C2435 C2443 1.503 . S
C2436 C2435 1.410 . S
C2436 C2437 1.392 . S
C2436 C2439 1.511 . S
C2437 C2433 1.376 . S
C2437 C2436 1.392 . S
C2437 H2449 0.929 . S
C2438 C2434 1.531 . S
C2438 H2450 0.960 . S
C2438 H2451 0.962 . S
C2438 H2452 0.960 . S
C2439 C2436 1.511 . S
C2439 H2453 0.961 . S
C2439 H2454 0.961 . S
C2439 H2455 0.961 . S
C2440 C2441 1.370 . S
C2440 C2442 1.363 . S
C2440 H2456 0.931 . S
C2441 C2440 1.370 . S
C2441 C2445 1.408 . S
C2442 C2440 1.363 . S
C2442 C2443 1.370 . S
C2442 C2446 1.524 . S
C2443 C2435 1.503 . S
C2443 C2442 1.370 . S
C2443 C2444 1.403 . S
C2444 C2443 1.403 . S
C2444 C2445 1.404 . S
C2444 C2447 1.539 . S
C2445 C2441 1.408 . S
C2445 C2444 1.404 . S
C2445 H2457 0.930 . S
C2446 C2442 1.524 . S
C2446 H2458 0.956 . S
C2446 H2459 0.961 . S
C2446 H2460 0.961 . S
C2447 C2444 1.539 . S
C2447 H2461 0.958 . S
C2447 H2462 0.961 . S
C2447 H2463 0.960 . S
H2448 C2432 0.931 . S
H2449 C2437 0.929 . S
H2450 C2438 0.960 . S
H2451 C2438 0.962 . S
H2452 C2438 0.960 . S
H2453 C2439 0.961 . S
H2454 C2439 0.961 . S
H2455 C2439 0.961 . S
H2456 C2440 0.931 . S
H2457 C2445 0.930 . S
H2458 C2446 0.956 . S
H2459 C2446 0.961 . S
H2460 C2446 0.961 . S
H2461 C2447 0.958 . S
H2462 C2447 0.961 . S
H2463 C2447 0.960 . S
C2464 C2465 1.391 . S
C2464 C2466 1.394 . S
C2464 H2480 0.931 . S
C2465 C2464 1.391 . S
C2465 C2469 1.376 . S
C2466 C2464 1.394 . S
C2466 C2467 1.369 . S
C2466 C2470 1.531 . S
C2467 C2466 1.369 . S
C2467 C2468 1.410 . S
C2467 C2475 1.503 . S
C2468 C2467 1.410 . S
C2468 C2469 1.392 . S
C2468 C2471 1.511 . S
C2469 C2465 1.376 . S
C2469 C2468 1.392 . S
C2469 H2481 0.929 . S
C2470 C2466 1.531 . S
C2470 H2482 0.960 . S
C2470 H2483 0.962 . S
C2470 H2484 0.960 . S
C2471 C2468 1.511 . S
C2471 H2485 0.961 . S
C2471 H2486 0.961 . S
C2471 H2487 0.961 . S
C2472 C2473 1.370 . S
C2472 C2474 1.363 . S
C2472 H2488 0.931 . S
C2473 C2472 1.370 . S
C2473 C2477 1.408 . S
C2474 C2472 1.363 . S
C2474 C2475 1.370 . S
C2474 C2478 1.524 . S
C2475 C2467 1.503 . S
C2475 C2474 1.370 . S
C2475 C2476 1.403 . S
C2476 C2475 1.403 . S
C2476 C2477 1.404 . S
C2476 C2479 1.539 . S
C2477 C2473 1.408 . S
C2477 C2476 1.404 . S
C2477 H2489 0.930 . S
C2478 C2474 1.524 . S
C2478 H2490 0.956 . S
C2478 H2491 0.961 . S
C2478 H2492 0.961 . S
C2479 C2476 1.539 . S
C2479 H2493 0.958 . S
C2479 H2494 0.961 . S
C2479 H2495 0.960 . S
H2480 C2464 0.931 . S
H2481 C2469 0.929 . S
H2482 C2470 0.960 . S
H2483 C2470 0.962 . S
H2484 C2470 0.960 . S
H2485 C2471 0.961 . S
H2486 C2471 0.961 . S
H2487 C2471 0.961 . S
H2488 C2472 0.931 . S
H2489 C2477 0.930 . S
H2490 C2478 0.956 . S
H2491 C2478 0.961 . S
H2492 C2478 0.961 . S
H2493 C2479 0.958 . S
H2494 C2479 0.961 . S
H2495 C2479 0.960 . S
C2496 C2497 1.391 . S
C2496 C2498 1.394 . S
C2496 H2512 0.931 . S
C2497 C2496 1.391 . S
C2497 C2501 1.376 . S
C2498 C2496 1.394 . S
C2498 C2499 1.369 . S
C2498 C2502 1.531 . S
C2499 C2498 1.369 . S
C2499 C2500 1.410 . S
C2499 C2507 1.503 . S
C2500 C2499 1.410 . S
C2500 C2501 1.392 . S
C2500 C2503 1.511 . S
C2501 C2497 1.376 . S
C2501 C2500 1.392 . S
C2501 H2513 0.929 . S
C2502 C2498 1.531 . S
C2502 H2514 0.960 . S
C2502 H2515 0.962 . S
C2502 H2516 0.960 . S
C2503 C2500 1.511 . S
C2503 H2517 0.961 . S
C2503 H2518 0.961 . S
C2503 H2519 0.961 . S
C2504 C2505 1.370 . S
C2504 C2506 1.363 . S
C2504 H2520 0.931 . S
C2505 C2504 1.370 . S
C2505 C2509 1.408 . S
C2506 C2504 1.363 . S
C2506 C2507 1.370 . S
C2506 C2510 1.524 . S
C2507 C2499 1.503 . S
C2507 C2506 1.370 . S
C2507 C2508 1.403 . S
C2508 C2507 1.403 . S
C2508 C2509 1.404 . S
C2508 C2511 1.539 . S
C2509 C2505 1.408 . S
C2509 C2508 1.404 . S
C2509 H2521 0.930 . S
C2510 C2506 1.524 . S
C2510 H2522 0.956 . S
C2510 H2523 0.961 . S
C2510 H2524 0.961 . S
C2511 C2508 1.539 . S
C2511 H2525 0.958 . S
C2511 H2526 0.961 . S
C2511 H2527 0.960 . S
H2512 C2496 0.931 . S
H2513 C2501 0.929 . S
H2514 C2502 0.960 . S
H2515 C2502 0.962 . S
H2516 C2502 0.960 . S
H2517 C2503 0.961 . S
H2518 C2503 0.961 . S
H2519 C2503 0.961 . S
H2520 C2504 0.931 . S
H2521 C2509 0.930 . S
H2522 C2510 0.956 . S
H2523 C2510 0.961 . S
H2524 C2510 0.961 . S
H2525 C2511 0.958 . S
H2526 C2511 0.961 . S
H2527 C2511 0.960 . S
C2528 C2529 1.391 . S
C2528 C2530 1.394 . S
C2528 H2544 0.931 . S
C2529 C2528 1.391 . S
C2529 C2533 1.376 . S
C2530 C2528 1.394 . S
C2530 C2531 1.369 . S
C2530 C2534 1.531 . S
C2531 C2530 1.369 . S
C2531 C2532 1.410 . S
C2531 C2539 1.503 . S
C2532 C2531 1.410 . S
C2532 C2533 1.392 . S
C2532 C2535 1.511 . S
C2533 C2529 1.376 . S
C2533 C2532 1.392 . S
C2533 H2545 0.929 . S
C2534 C2530 1.531 . S
C2534 H2546 0.960 . S
C2534 H2547 0.962 . S
C2534 H2548 0.960 . S
C2535 C2532 1.511 . S
C2535 H2549 0.961 . S
C2535 H2550 0.961 . S
C2535 H2551 0.961 . S
C2536 C2537 1.370 . S
C2536 C2538 1.363 . S
C2536 H2552 0.931 . S
C2537 C2536 1.370 . S
C2537 C2541 1.408 . S
C2538 C2536 1.363 . S
C2538 C2539 1.370 . S
C2538 C2542 1.524 . S
C2539 C2531 1.503 . S
C2539 C2538 1.370 . S
C2539 C2540 1.403 . S
C2540 C2539 1.403 . S
C2540 C2541 1.404 . S
C2540 C2543 1.539 . S
C2541 C2537 1.408 . S
C2541 C2540 1.404 . S
C2541 H2553 0.930 . S
C2542 C2538 1.524 . S
C2542 H2554 0.956 . S
C2542 H2555 0.961 . S
C2542 H2556 0.961 . S
C2543 C2540 1.539 . S
C2543 H2557 0.958 . S
C2543 H2558 0.961 . S
C2543 H2559 0.960 . S
H2544 C2528 0.931 . S
H2545 C2533 0.929 . S
H2546 C2534 0.960 . S
H2547 C2534 0.962 . S
H2548 C2534 0.960 . S
H2549 C2535 0.961 . S
H2550 C2535 0.961 . S
H2551 C2535 0.961 . S
H2552 C2536 0.931 . S
H2553 C2541 0.930 . S
H2554 C2542 0.956 . S
H2555 C2542 0.961 . S
H2556 C2542 0.961 . S
H2557 C2543 0.958 . S
H2558 C2543 0.961 . S
H2559 C2543 0.960 . S
C2560 C2561 1.391 . S
C2560 C2562 1.394 . S
C2560 H2576 0.931 . S
C2561 C2560 1.391 . S
C2561 C2565 1.376 . S
C2562 C2560 1.394 . S
C2562 C2563 1.369 . S
C2562 C2566 1.531 . S
C2563 C2562 1.369 . S
C2563 C2564 1.410 . S
C2563 C2571 1.503 . S
C2564 C2563 1.410 . S
C2564 C2565 1.392 . S
C2564 C2567 1.511 . S
C2565 C2561 1.376 . S
C2565 C2564 1.392 . S
C2565 H2577 0.929 . S
C2566 C2562 1.531 . S
C2566 H2578 0.960 . S
C2566 H2579 0.962 . S
C2566 H2580 0.960 . S
C2567 C2564 1.511 . S
C2567 H2581 0.961 . S
C2567 H2582 0.961 . S
C2567 H2583 0.961 . S
C2568 C2569 1.370 . S
C2568 C2570 1.363 . S
C2568 H2584 0.931 . S
C2569 C2568 1.370 . S
C2569 C2573 1.408 . S
C2570 C2568 1.363 . S
C2570 C2571 1.370 . S
C2570 C2574 1.524 . S
C2571 C2563 1.503 . S
C2571 C2570 1.370 . S
C2571 C2572 1.403 . S
C2572 C2571 1.403 . S
C2572 C2573 1.404 . S
C2572 C2575 1.539 . S
C2573 C2569 1.408 . S
C2573 C2572 1.404 . S
C2573 H2585 0.930 . S
C2574 C2570 1.524 . S
C2574 H2586 0.956 . S
C2574 H2587 0.961 . S
C2574 H2588 0.961 . S
C2575 C2572 1.539 . S
C2575 H2589 0.958 . S
C2575 H2590 0.961 . S
C2575 H2591 0.960 . S
H2576 C2560 0.931 . S
H2577 C2565 0.929 . S
H2578 C2566 0.960 . S
H2579 C2566 0.962 . S
H2580 C2566 0.960 . S
H2581 C2567 0.961 . S
H2582 C2567 0.961 . S
H2583 C2567 0.961 . S
H2584 C2568 0.931 . S
H2585 C2573 0.930 . S
H2586 C2574 0.956 . S
H2587 C2574 0.961 . S
H2588 C2574 0.961 . S
H2589 C2575 0.958 . S
H2590 C2575 0.961 . S
H2591 C2575 0.960 . S
C2592 C2593 1.391 . S
C2592 C2594 1.394 . S
C2592 H2608 0.931 . S
C2593 C2592 1.391 . S
C2593 C2597 1.376 . S
C2594 C2592 1.394 . S
C2594 C2595 1.369 . S
C2594 C2598 1.531 . S
C2595 C2594 1.369 . S
C2595 C2596 1.410 . S
C2595 C2603 1.503 . S
C2596 C2595 1.410 . S
C2596 C2597 1.392 . S
C2596 C2599 1.511 . S
C2597 C2593 1.376 . S
C2597 C2596 1.392 . S
C2597 H2609 0.929 . S
C2598 C2594 1.531 . S
C2598 H2610 0.960 . S
C2598 H2611 0.962 . S
C2598 H2612 0.960 . S
C2599 C2596 1.511 . S
C2599 H2613 0.961 . S
C2599 H2614 0.961 . S
C2599 H2615 0.961 . S
C2600 C2601 1.370 . S
C2600 C2602 1.363 . S
C2600 H2616 0.931 . S
C2601 C2600 1.370 . S
C2601 C2605 1.408 . S
C2602 C2600 1.363 . S
C2602 C2603 1.370 . S
C2602 C2606 1.524 . S
C2603 C2595 1.503 . S
C2603 C2602 1.370 . S
C2603 C2604 1.403 . S
C2604 C2603 1.403 . S
C2604 C2605 1.404 . S
C2604 C2607 1.539 . S
C2605 C2601 1.408 . S
C2605 C2604 1.404 . S
C2605 H2617 0.930 . S
C2606 C2602 1.524 . S
C2606 H2618 0.956 . S
C2606 H2619 0.961 . S
C2606 H2620 0.961 . S
C2607 C2604 1.539 . S
C2607 H2621 0.958 . S
C2607 H2622 0.961 . S
C2607 H2623 0.960 . S
H2608 C2592 0.931 . S
H2609 C2597 0.929 . S
H2610 C2598 0.960 . S
H2611 C2598 0.962 . S
H2612 C2598 0.960 . S
H2613 C2599 0.961 . S
H2614 C2599 0.961 . S
H2615 C2599 0.961 . S
H2616 C2600 0.931 . S
H2617 C2605 0.930 . S
H2618 C2606 0.956 . S
H2619 C2606 0.961 . S
H2620 C2606 0.961 . S
H2621 C2607 0.958 . S
H2622 C2607 0.961 . S
H2623 C2607 0.960 . S
C2624 C2625 1.391 . S
C2624 C2626 1.394 . S
C2624 H2640 0.931 . S
C2625 C2624 1.391 . S
C2625 C2629 1.376 . S
C2626 C2624 1.394 . S
C2626 C2627 1.369 . S
C2626 C2630 1.531 . S
C2627 C2626 1.369 . S
C2627 C2628 1.410 . S
C2627 C2635 1.503 . S
C2628 C2627 1.410 . S
C2628 C2629 1.392 . S
C2628 C2631 1.511 . S
C2629 C2625 1.376 . S
C2629 C2628 1.392 . S
C2629 H2641 0.929 . S
C2630 C2626 1.531 . S
C2630 H2642 0.960 . S
C2630 H2643 0.962 . S
C2630 H2644 0.960 . S
C2631 C2628 1.511 . S
C2631 H2645 0.961 . S
C2631 H2646 0.961 . S
C2631 H2647 0.961 . S
C2632 C2633 1.370 . S
C2632 C2634 1.363 . S
C2632 H2648 0.931 . S
C2633 C2632 1.370 . S
C2633 C2637 1.408 . S
C2634 C2632 1.363 . S
C2634 C2635 1.370 . S
C2634 C2638 1.524 . S
C2635 C2627 1.503 . S
C2635 C2634 1.370 . S
C2635 C2636 1.403 . S
C2636 C2635 1.403 . S
C2636 C2637 1.404 . S
C2636 C2639 1.539 . S
C2637 C2633 1.408 . S
C2637 C2636 1.404 . S
C2637 H2649 0.930 . S
C2638 C2634 1.524 . S
C2638 H2650 0.956 . S
C2638 H2651 0.961 . S
C2638 H2652 0.961 . S
C2639 C2636 1.539 . S
C2639 H2653 0.958 . S
C2639 H2654 0.961 . S
C2639 H2655 0.960 . S
H2640 C2624 0.931 . S
H2641 C2629 0.929 . S
H2642 C2630 0.960 . S
H2643 C2630 0.962 . S
H2644 C2630 0.960 . S
H2645 C2631 0.961 . S
H2646 C2631 0.961 . S
H2647 C2631 0.961 . S
H2648 C2632 0.931 . S
H2649 C2637 0.930 . S
H2650 C2638 0.956 . S
H2651 C2638 0.961 . S
H2652 C2638 0.961 . S
H2653 C2639 0.958 . S
H2654 C2639 0.961 . S
H2655 C2639 0.960 . S
C2656 C2657 1.391 . S
C2656 C2658 1.394 . S
C2656 H2672 0.931 . S
C2657 C2656 1.391 . S
C2657 C2661 1.376 . S
C2658 C2656 1.394 . S
C2658 C2659 1.369 . S
C2658 C2662 1.531 . S
C2659 C2658 1.369 . S
C2659 C2660 1.410 . S
C2659 C2667 1.503 . S
C2660 C2659 1.410 . S
C2660 C2661 1.392 . S
C2660 C2663 1.511 . S
C2661 C2657 1.376 . S
C2661 C2660 1.392 . S
C2661 H2673 0.929 . S
C2662 C2658 1.531 . S
C2662 H2674 0.960 . S
C2662 H2675 0.962 . S
C2662 H2676 0.960 . S
C2663 C2660 1.511 . S
C2663 H2677 0.961 . S
C2663 H2678 0.961 . S
C2663 H2679 0.961 . S
C2664 C2665 1.370 . S
C2664 C2666 1.363 . S
C2664 H2680 0.931 . S
C2665 C2664 1.370 . S
C2665 C2669 1.408 . S
C2666 C2664 1.363 . S
C2666 C2667 1.370 . S
C2666 C2670 1.524 . S
C2667 C2659 1.503 . S
C2667 C2666 1.370 . S
C2667 C2668 1.403 . S
C2668 C2667 1.403 . S
C2668 C2669 1.404 . S
C2668 C2671 1.539 . S
C2669 C2665 1.408 . S
C2669 C2668 1.404 . S
C2669 H2681 0.930 . S
C2670 C2666 1.524 . S
C2670 H2682 0.956 . S
C2670 H2683 0.961 . S
C2670 H2684 0.961 . S
C2671 C2668 1.539 . S
C2671 H2685 0.958 . S
C2671 H2686 0.961 . S
C2671 H2687 0.960 . S
H2672 C2656 0.931 . S
H2673 C2661 0.929 . S
H2674 C2662 0.960 . S
H2675 C2662 0.962 . S
H2676 C2662 0.960 . S
H2677 C2663 0.961 . S
H2678 C2663 0.961 . S
H2679 C2663 0.961 . S
H2680 C2664 0.931 . S
H2681 C2669 0.930 . S
H2682 C2670 0.956 . S
H2683 C2670 0.961 . S
H2684 C2670 0.961 . S
H2685 C2671 0.958 . S
H2686 C2671 0.961 . S
H2687 C2671 0.960 . S
C2688 C2689 1.391 . S
C2688 C2690 1.394 . S
C2688 H2704 0.931 . S
C2689 C2688 1.391 . S
C2689 C2693 1.376 . S
C2690 C2688 1.394 . S
C2690 C2691 1.369 . S
C2690 C2694 1.531 . S
C2691 C2690 1.369 . S
C2691 C2692 1.410 . S
C2691 C2699 1.503 . S
C2692 C2691 1.410 . S
C2692 C2693 1.392 . S
C2692 C2695 1.511 . S
C2693 C2689 1.376 . S
C2693 C2692 1.392 . S
C2693 H2705 0.929 . S
C2694 C2690 1.531 . S
C2694 H2706 0.960 . S
C2694 H2707 0.962 . S
C2694 H2708 0.960 . S
C2695 C2692 1.511 . S
C2695 H2709 0.961 . S
C2695 H2710 0.961 . S
C2695 H2711 0.961 . S
C2696 C2697 1.370 . S
C2696 C2698 1.363 . S
C2696 H2712 0.931 . S
C2697 C2696 1.370 . S
C2697 C2701 1.408 . S
C2698 C2696 1.363 . S
C2698 C2699 1.370 . S
C2698 C2702 1.524 . S
C2699 C2691 1.503 . S
C2699 C2698 1.370 . S
C2699 C2700 1.403 . S
C2700 C2699 1.403 . S
C2700 C2701 1.404 . S
C2700 C2703 1.539 . S
C2701 C2697 1.408 . S
C2701 C2700 1.404 . S
C2701 H2713 0.930 . S
C2702 C2698 1.524 . S
C2702 H2714 0.956 . S
C2702 H2715 0.961 . S
C2702 H2716 0.961 . S
C2703 C2700 1.539 . S
C2703 H2717 0.958 . S
C2703 H2718 0.961 . S
C2703 H2719 0.960 . S
H2704 C2688 0.931 . S
H2705 C2693 0.929 . S
H2706 C2694 0.960 . S
H2707 C2694 0.962 . S
H2708 C2694 0.960 . S
H2709 C2695 0.961 . S
H2710 C2695 0.961 . S
H2711 C2695 0.961 . S
H2712 C2696 0.931 . S
H2713 C2701 0.930 . S
H2714 C2702 0.956 . S
H2715 C2702 0.961 . S
H2716 C2702 0.961 . S
H2717 C2703 0.958 . S
H2718 C2703 0.961 . S
H2719 C2703 0.960 . S
C2720 C2721 1.391 . S
C2720 C2722 1.394 . S
C2720 H2736 0.931 . S
C2721 C2720 1.391 . S
C2721 C2725 1.376 . S
C2722 C2720 1.394 . S
C2722 C2723 1.369 . S
C2722 C2726 1.531 . S
C2723 C2722 1.369 . S
C2723 C2724 1.410 . S
C2723 C2731 1.503 . S
C2724 C2723 1.410 . S
C2724 C2725 1.392 . S
C2724 C2727 1.511 . S
C2725 C2721 1.376 . S
C2725 C2724 1.392 . S
C2725 H2737 0.929 . S
C2726 C2722 1.531 . S
C2726 H2738 0.960 . S
C2726 H2739 0.962 . S
C2726 H2740 0.960 . S
C2727 C2724 1.511 . S
C2727 H2741 0.961 . S
C2727 H2742 0.961 . S
C2727 H2743 0.961 . S
C2728 C2729 1.370 . S
C2728 C2730 1.363 . S
C2728 H2744 0.931 . S
C2729 C2728 1.370 . S
C2729 C2733 1.408 . S
C2730 C2728 1.363 . S
C2730 C2731 1.370 . S
C2730 C2734 1.524 . S
C2731 C2723 1.503 . S
C2731 C2730 1.370 . S
C2731 C2732 1.403 . S
C2732 C2731 1.403 . S
C2732 C2733 1.404 . S
C2732 C2735 1.539 . S
C2733 C2729 1.408 . S
C2733 C2732 1.404 . S
C2733 H2745 0.930 . S
C2734 C2730 1.524 . S
C2734 H2746 0.956 . S
C2734 H2747 0.961 . S
C2734 H2748 0.961 . S
C2735 C2732 1.539 . S
C2735 H2749 0.958 . S
C2735 H2750 0.961 . S
C2735 H2751 0.960 . S
H2736 C2720 0.931 . S
H2737 C2725 0.929 . S
H2738 C2726 0.960 . S
H2739 C2726 0.962 . S
H2740 C2726 0.960 . S
H2741 C2727 0.961 . S
H2742 C2727 0.961 . S
H2743 C2727 0.961 . S
H2744 C2728 0.931 . S
H2745 C2733 0.930 . S
H2746 C2734 0.956 . S
H2747 C2734 0.961 . S
H2748 C2734 0.961 . S
H2749 C2735 0.958 . S
H2750 C2735 0.961 . S
H2751 C2735 0.960 . S
C2752 C2753 1.391 . S
C2752 C2754 1.394 . S
C2752 H2768 0.931 . S
C2753 C2752 1.391 . S
C2753 C2757 1.376 . S
C2754 C2752 1.394 . S
C2754 C2755 1.369 . S
C2754 C2758 1.531 . S
C2755 C2754 1.369 . S
C2755 C2756 1.410 . S
C2755 C2763 1.503 . S
C2756 C2755 1.410 . S
C2756 C2757 1.392 . S
C2756 C2759 1.511 . S
C2757 C2753 1.376 . S
C2757 C2756 1.392 . S
C2757 H2769 0.929 . S
C2758 C2754 1.531 . S
C2758 H2770 0.960 . S
C2758 H2771 0.962 . S
C2758 H2772 0.960 . S
C2759 C2756 1.511 . S
C2759 H2773 0.961 . S
C2759 H2774 0.961 . S
C2759 H2775 0.961 . S
C2760 C2761 1.370 . S
C2760 C2762 1.363 . S
C2760 H2776 0.931 . S
C2761 C2760 1.370 . S
C2761 C2765 1.408 . S
C2762 C2760 1.363 . S
C2762 C2763 1.370 . S
C2762 C2766 1.524 . S
C2763 C2755 1.503 . S
C2763 C2762 1.370 . S
C2763 C2764 1.403 . S
C2764 C2763 1.403 . S
C2764 C2765 1.404 . S
C2764 C2767 1.539 . S
C2765 C2761 1.408 . S
C2765 C2764 1.404 . S
C2765 H2777 0.930 . S
C2766 C2762 1.524 . S
C2766 H2778 0.956 . S
C2766 H2779 0.961 . S
C2766 H2780 0.961 . S
C2767 C2764 1.539 . S
C2767 H2781 0.958 . S
C2767 H2782 0.961 . S
C2767 H2783 0.960 . S
H2768 C2752 0.931 . S
H2769 C2757 0.929 . S
H2770 C2758 0.960 . S
H2771 C2758 0.962 . S
H2772 C2758 0.960 . S
H2773 C2759 0.961 . S
H2774 C2759 0.961 . S
H2775 C2759 0.961 . S
H2776 C2760 0.931 . S
H2777 C2765 0.930 . S
H2778 C2766 0.956 . S
H2779 C2766 0.961 . S
H2780 C2766 0.961 . S
H2781 C2767 0.958 . S
H2782 C2767 0.961 . S
H2783 C2767 0.960 . S
C2784 C2785 1.391 . S
C2784 C2786 1.394 . S
C2784 H2800 0.931 . S
C2785 C2784 1.391 . S
C2785 C2789 1.376 . S
C2786 C2784 1.394 . S
C2786 C2787 1.369 . S
C2786 C2790 1.531 . S
C2787 C2786 1.369 . S
C2787 C2788 1.410 . S
C2787 C2795 1.503 . S
C2788 C2787 1.410 . S
C2788 C2789 1.392 . S
C2788 C2791 1.511 . S
C2789 C2785 1.376 . S
C2789 C2788 1.392 . S
C2789 H2801 0.929 . S
C2790 C2786 1.531 . S
C2790 H2802 0.960 . S
C2790 H2803 0.962 . S
C2790 H2804 0.960 . S
C2791 C2788 1.511 . S
C2791 H2805 0.961 . S
C2791 H2806 0.961 . S
C2791 H2807 0.961 . S
C2792 C2793 1.370 . S
C2792 C2794 1.363 . S
C2792 H2808 0.931 . S
C2793 C2792 1.370 . S
C2793 C2797 1.408 . S
C2794 C2792 1.363 . S
C2794 C2795 1.370 . S
C2794 C2798 1.524 . S
C2795 C2787 1.503 . S
C2795 C2794 1.370 . S
C2795 C2796 1.403 . S
C2796 C2795 1.403 . S
C2796 C2797 1.404 . S
C2796 C2799 1.539 . S
C2797 C2793 1.408 . S
C2797 C2796 1.404 . S
C2797 H2809 0.930 . S
C2798 C2794 1.524 . S
C2798 H2810 0.956 . S
C2798 H2811 0.961 . S
C2798 H2812 0.961 . S
C2799 C2796 1.539 . S
C2799 H2813 0.958 . S
C2799 H2814 0.961 . S
C2799 H2815 0.960 . S
H2800 C2784 0.931 . S
H2801 C2789 0.929 . S
H2802 C2790 0.960 . S
H2803 C2790 0.962 . S
H2804 C2790 0.960 . S
H2805 C2791 0.961 . S
H2806 C2791 0.961 . S
H2807 C2791 0.961 . S
H2808 C2792 0.931 . S
H2809 C2797 0.930 . S
H2810 C2798 0.956 . S
H2811 C2798 0.961 . S
H2812 C2798 0.961 . S
H2813 C2799 0.958 . S
H2814 C2799 0.961 . S
H2815 C2799 0.960 . S
C2816 C2817 1.391 . S
C2816 C2818 1.394 . S
C2816 H2832 0.931 . S
C2817 C2816 1.391 . S
C2817 C2821 1.376 . S
C2818 C2816 1.394 . S
C2818 C2819 1.369 . S
C2818 C2822 1.531 . S
C2819 C2818 1.369 . S
C2819 C2820 1.410 . S
C2819 C2827 1.503 . S
C2820 C2819 1.410 . S
C2820 C2821 1.392 . S
C2820 C2823 1.511 . S
C2821 C2817 1.376 . S
C2821 C2820 1.392 . S
C2821 H2833 0.929 . S
C2822 C2818 1.531 . S
C2822 H2834 0.960 . S
C2822 H2835 0.962 . S
C2822 H2836 0.960 . S
C2823 C2820 1.511 . S
C2823 H2837 0.961 . S
C2823 H2838 0.961 . S
C2823 H2839 0.961 . S
C2824 C2825 1.370 . S
C2824 C2826 1.363 . S
C2824 H2840 0.931 . S
C2825 C2824 1.370 . S
C2825 C2829 1.408 . S
C2826 C2824 1.363 . S
C2826 C2827 1.370 . S
C2826 C2830 1.524 . S
C2827 C2819 1.503 . S
C2827 C2826 1.370 . S
C2827 C2828 1.403 . S
C2828 C2827 1.403 . S
C2828 C2829 1.404 . S
C2828 C2831 1.539 . S
C2829 C2825 1.408 . S
C2829 C2828 1.404 . S
C2829 H2841 0.930 . S
C2830 C2826 1.524 . S
C2830 H2842 0.956 . S
C2830 H2843 0.961 . S
C2830 H2844 0.961 . S
C2831 C2828 1.539 . S
C2831 H2845 0.958 . S
C2831 H2846 0.961 . S
C2831 H2847 0.960 . S
H2832 C2816 0.931 . S
H2833 C2821 0.929 . S
H2834 C2822 0.960 . S
H2835 C2822 0.962 . S
H2836 C2822 0.960 . S
H2837 C2823 0.961 . S
H2838 C2823 0.961 . S
H2839 C2823 0.961 . S
H2840 C2824 0.931 . S
H2841 C2829 0.930 . S
H2842 C2830 0.956 . S
H2843 C2830 0.961 . S
H2844 C2830 0.961 . S
H2845 C2831 0.958 . S
H2846 C2831 0.961 . S
H2847 C2831 0.960 . S
C2848 C2849 1.391 . S
C2848 C2850 1.394 . S
C2848 H2864 0.931 . S
C2849 C2848 1.391 . S
C2849 C2853 1.376 . S
C2850 C2848 1.394 . S
C2850 C2851 1.369 . S
C2850 C2854 1.531 . S
C2851 C2850 1.369 . S
C2851 C2852 1.410 . S
C2851 C2859 1.503 . S
C2852 C2851 1.410 . S
C2852 C2853 1.392 . S
C2852 C2855 1.511 . S
C2853 C2849 1.376 . S
C2853 C2852 1.392 . S
C2853 H2865 0.929 . S
C2854 C2850 1.531 . S
C2854 H2866 0.960 . S
C2854 H2867 0.962 . S
C2854 H2868 0.960 . S
C2855 C2852 1.511 . S
C2855 H2869 0.961 . S
C2855 H2870 0.961 . S
C2855 H2871 0.961 . S
C2856 C2857 1.370 . S
C2856 C2858 1.363 . S
C2856 H2872 0.931 . S
C2857 C2856 1.370 . S
C2857 C2861 1.408 . S
C2858 C2856 1.363 . S
C2858 C2859 1.370 . S
C2858 C2862 1.524 . S
C2859 C2851 1.503 . S
C2859 C2858 1.370 . S
C2859 C2860 1.403 . S
C2860 C2859 1.403 . S
C2860 C2861 1.404 . S
C2860 C2863 1.539 . S
C2861 C2857 1.408 . S
C2861 C2860 1.404 . S
C2861 H2873 0.930 . S
C2862 C2858 1.524 . S
C2862 H2874 0.956 . S
C2862 H2875 0.961 . S
C2862 H2876 0.961 . S
C2863 C2860 1.539 . S
C2863 H2877 0.958 . S
C2863 H2878 0.961 . S
C2863 H2879 0.960 . S
H2864 C2848 0.931 . S
H2865 C2853 0.929 . S
H2866 C2854 0.960 . S
H2867 C2854 0.962 . S
H2868 C2854 0.960 . S
H2869 C2855 0.961 . S
H2870 C2855 0.961 . S
H2871 C2855 0.961 . S
H2872 C2856 0.931 . S
H2873 C2861 0.930 . S
H2874 C2862 0.956 . S
H2875 C2862 0.961 . S
H2876 C2862 0.961 . S
H2877 C2863 0.958 . S
H2878 C2863 0.961 . S
H2879 C2863 0.960 . S
C585 C306 1.488 . S
C577 C260 1.536 . S
C609 C238 1.551 . S
C617 C300 1.496 . S
C649 C268 1.629 . S
C641 C227 1.686 . S
C673 C249 1.706 . S
C681 C282 1.647 . S
C713 C320 2.125 . S
C705 C183 2.170 . S
C745 C407 1.569 . S
C737 C194 1.478 . S
C769 C205 2.194 . S
C777 C334 2.182 . S
C809 C402 1.200 . S
C801 C216 1.135 . S
C833 C139 2.187 . S
C841 C358 2.183 . S
C873 C413 1.615 . S
C865 C150 1.594 . S
C897 C161 2.129 . S
C905 C352 2.139 . S
C929 C172 1.274 . S
C937 C398 1.275 . S
C969 C454 1.312 . S
C961 C128 1.316 . S
C993 C106 1.630 . S
C1001 C465 1.691 . S
C1025 C95 1.337 . S
C1033 C450 1.392 . S
C1065 C459 1.757 . S
C1057 C117 1.740 1_554 S
C1089 C51 1.682 1_455 S
C1097 C504 1.677 . S
C1121 C62 0.831 . S
C1129 C563 0.814 . S
C1153 C73 1.848 . S
C1161 C520 1.774 . S
C1185 C84 1.194 . S
C1193 C558 1.189 . S
C1225 C522 1.807 . S
C1217 C7 1.859 . S
C1257 C569 0.768 . S
C1249 C18 0.822 . S
C1281 C29 1.666 . S
C1289 C498 1.649 . S
C1321 C554 1.133 . S
C1313 C40 1.119 . S
C1353 C290 1.537 . S
C1345 C8 1.515 . S
C1377 C16 1.045 . S
C1385 C294 1.168 . S
C1409 C30 1.556 . S
C1417 C314 1.566 . S
C1441 C38 0.790 1_545 S
C1449 C309 0.906 . S
C1473 C52 1.633 1_455 S
C1481 C312 1.561 . S
C1513 C298 1.135 . S
C1505 C60 1.052 . S
C1537 C74 1.515 . S
C1545 C296 1.516 . S
C1577 C303 0.884 . S
C1569 C82 0.697 . S
C1609 C366 1.305 . S
C1601 C41 1.312 . S
C1633 C5 1.646 . S
C1641 C416 1.883 . S
C1673 C364 1.047 . S
C1665 C19 1.013 . S
C1705 C400 1.770 . S
C1697 C27 1.577 . S
C1729 C63 1.000 . S
C1737 C342 1.003 . S
C1769 C418 1.855 . S
C1761 C71 1.660 . S
C1801 C348 1.238 . S
C1793 C85 1.280 . S
C1833 C394 1.802 . S
C1825 C49 1.668 1_455 S
C1865 C386 1.423 . S
C1857 C93 1.287 . S
C1889 C104 1.141 . S
C1897 C410 1.280 . S
C1929 C346 1.140 . S
C1921 C96 1.115 . S
C1961 C372 1.315 . S
C1953 C115 1.040 . S
C1985 C129 1.085 . S
C1993 C350 1.090 . S
C2017 C126 1.113 . S
C2025 C404 1.371 . S
C2057 C361 1.391 . S
C2049 C107 1.339 . S
C2089 C355 1.444 . S
C2081 C118 1.399 1_554 S
C2121 C438 1.879 . S
C2113 C140 1.887 . S
C2153 C470 1.353 . S
C2145 C148 1.228 . S
C2177 C162 1.863 . S
C2185 C424 1.866 . S
C2217 C468 1.095 . S
C2209 C170 0.955 . S
C2249 C456 1.824 . S
C2241 C184 1.837 . S
C2273 C192 1.158 . S
C2281 C452 1.308 . S
C2305 C206 1.903 . S
C2313 C462 1.904 . S
C2345 C446 1.003 . S
C2337 C214 0.810 . S
C2377 C511 1.215 . S
C2369 C173 1.151 . S
C2401 C137 1.433 . S
C2409 C572 1.667 . S
C2441 C506 0.960 . S
C2433 C151 0.884 . S
C2473 C556 1.643 . S
C2465 C159 1.364 . S
C2505 C502 0.901 . S
C2497 C195 0.850 . S
C2529 C203 1.417 . S
C2537 C574 1.598 . S
C2569 C517 1.142 . S
C2561 C217 1.120 . S
C2601 C550 1.545 . S
C2593 C181 1.398 . S
C2633 C542 1.563 . S
C2625 C225 1.264 . S
C2657 C236 1.455 . S
C2665 C566 1.609 . S
C2697 C508 1.358 . S
C2689 C228 1.330 . S
C2721 C247 1.410 . S
C2729 C528 1.686 . S
C2761 C490 1.394 . S
C2753 C261 1.417 . S
C2793 C560 1.491 . S
C2785 C258 1.339 . S
C2825 C476 1.382 . S
C2817 C239 1.391 . S
C2849 C250 1.382 . S
C2857 C514 1.350 . S
