# Generated by pormake.
# Topology nia, (6,6)-cn, num edge types: 1
# Building blocks:
#     Node 0, Type 0, BuildingBlock: KUMBOL_clean_sbu_1, # of connection points: 6
#     Node 1, Type 0, BuildingBlock: KUMBOL_clean_sbu_1, # of connection points: 6
#     Node 2, Type 1, BuildingBlock: MIDCAF_clean_sbu_0, # of connection points: 6
#     Node 3, Type 1, BuildingBlock: MIDCAF_clean_sbu_0, # of connection points: 6
#     Edge 4, Type (0, 1), BuildingBlock: CIFDUS_clean_linker_0, # of connection points: 2
#     Edge 5, Type (0, 1), BuildingBlock: CIFDUS_clean_linker_0, # of connection points: 2
#     Edge 6, Type (0, 1), BuildingBlock: CIFDUS_clean_linker_0, # of connection points: 2
#     Edge 7, Type (0, 1), BuildingBlock: CIFDUS_clean_linker_0, # of connection points: 2
#     Edge 8, Type (0, 1), BuildingBlock: CIFDUS_clean_linker_0, # of connection points: 2
#     Edge 9, Type (0, 1), BuildingBlock: CIFDUS_clean_linker_0, # of connection points: 2
#     Edge 10, Type (0, 1), BuildingBlock: CIFDUS_clean_linker_0, # of connection points: 2
#     Edge 11, Type (0, 1), BuildingBlock: CIFDUS_clean_linker_0, # of connection points: 2
#     Edge 12, Type (0, 1), BuildingBlock: CIFDUS_clean_linker_0, # of connection points: 2
#     Edge 13, Type (0, 1), BuildingBlock: CIFDUS_clean_linker_0, # of connection points: 2
#     Edge 14, Type (0, 1), BuildingBlock: CIFDUS_clean_linker_0, # of connection points: 2
#     Edge 15, Type (0, 1), BuildingBlock: CIFDUS_clean_linker_0, # of connection points: 2
# Relax obj value: 0.174
# Max RMSD: 0.283
# Mean RMSD: 0.203
data_MOF--net-nia--node1-KUMBOL_clean_sbu_1--node2-MIDCAF_clean_sbu_0--edge1-CIFDUS_clean_linker_0
_symmetry_space_group_name_H-M    P1
_symmetry_Int_Tables_number       1
_symmetry_cell_setting            triclinic
loop_
_symmetry_equiv_pos_as_xyz
'x, y, z'
_cell_length_a     25.407428
_cell_length_b     25.552368
_cell_length_c     28.239064
_cell_angle_alpha  89.39182
_cell_angle_beta   90.835226
_cell_angle_gamma 136.62954
loop_
_atom_site_label
_atom_site_type_symbol
_atom_site_fract_x
_atom_site_fract_y
_atom_site_fract_z
_atom_type_partial_charge
C0 C 0.87601 0.88341 0.87696 0.0
C1 C 0.73991 0.7826 0.89395 0.0
C2 C 0.81508 0.85286 0.90557 0.0
C3 C 0.72711 0.74263 0.85368 0.0
C4 C 0.86323 0.84367 0.83624 0.0
C5 C 0.78866 0.77292 0.82501 0.0
N6 N 0.94751 0.95229 0.88856 0.0
C7 C 0.00677 0.98745 0.85836 0.0
C8 C 0.92602 0.87609 0.80827 0.0
C9 C -0.00187 0.9485 0.8195 0.0
Gd10 Gd 0.05011 0.98217 0.06269 0.0
Gd11 Gd 0.95736 0.00807 0.95866 0.0
N12 N 0.82953 0.89152 0.94516 0.0
C13 C 0.6799 0.75456 0.9233 0.0
C14 C 0.77102 0.86637 0.97272 0.0
C15 C 0.69547 0.79701 0.9626 0.0
H16 H 0.78276 0.89963 1.00265 0.0
H17 H 0.64929 0.77647 0.985 0.0
H18 H 0.1945 0.02065 0.01157 0.0
H19 H 0.06066 0.04597 0.86348 0.0
H20 H 0.33504 0.12925 1.00472 0.0
H21 H 0.62135 0.70073 0.91564 0.0
H22 H 0.66987 0.68816 0.84446 0.0
H23 H 0.00282 0.00701 0.16275 0.0
H24 H 0.91911 0.84647 0.77752 0.0
H25 H 0.04738 0.97516 0.79828 0.0
H26 H 0.40391 0.30842 0.11966 0.0
H27 H 0.77798 0.74131 0.79415 0.0
H28 H 0.20427 0.22458 0.2212 0.0
H29 H 0.06527 0.10591 0.22482 0.0
N30 N 0.10564 0.07075 0.12435 0.0
C31 C 0.18267 0.13333 0.12326 0.0
C32 C 0.0637 0.05866 0.16128 0.0
C33 C 0.17737 0.18145 0.19411 0.0
C34 C 0.09879 0.11432 0.19636 0.0
C35 C 0.22059 0.19113 0.15762 0.0
H36 H 0.33052 0.30104 0.18078 0.0
N37 N 0.18507 0.07765 0.05869 0.0
C38 C 0.22358 0.13747 0.08876 0.0
C39 C 0.34431 0.19783 0.05573 0.0
C40 C 0.30417 0.19964 0.08781 0.0
C41 C 0.22448 0.07228 0.0309 0.0
C42 C 0.30434 0.13303 0.02789 0.0
O43 O 0.89978 0.89562 0.99098 0.0
O44 O -0.00735 0.90137 1.00067 0.0
O45 O 0.09476 0.94507 0.09921 0.0
O46 O 0.97793 0.88513 0.11001 0.0
O47 O 0.92285 0.00327 0.03321 0.0
O48 O 0.93443 0.93559 0.0796 0.0
O49 O 0.05939 0.07684 0.06524 0.0
O50 O 0.07373 0.11434 0.98821 0.0
O51 O 0.92397 0.06568 0.96546 0.0
O52 O 0.94397 0.04778 0.89637 0.0
O53 O 0.08144 0.98864 0.98598 0.0
O54 O 0.07889 0.06683 0.94668 0.0
C55 C 0.92509 0.86643 0.98449 0.0
C56 C 0.90569 0.96203 0.07086 0.0
C57 C 0.0034 0.81246 0.11427 0.0
C58 C 0.02249 0.73375 0.13407 0.0
C59 C 0.90873 0.67953 0.09028 0.0
C60 C 0.93401 0.74961 0.09137 0.0
C61 C 0.95232 0.67137 0.1117 0.0
C62 C 0.04775 0.80432 0.13518 0.0
C63 C 0.02911 0.88595 0.11794 0.0
C64 C 0.34211 0.25971 0.12022 0.0
C65 C 0.30036 0.25544 0.15511 0.0
H66 H 0.40625 0.24442 0.05383 0.0
C67 C 0.08847 0.12991 0.03367 0.0
C68 C 0.1057 0.03817 0.95221 0.0
C69 C 0.96097 0.15075 0.90408 0.0
C70 C 0.94385 0.22703 0.87245 0.0
C71 C 0.07189 0.28275 0.88284 0.0
C72 C 0.04063 0.21365 0.90052 0.0
C73 C 0.02402 0.28954 0.8688 0.0
C74 C 0.91294 0.15759 0.89011 0.0
C75 C 0.92611 0.07632 0.92007 0.0
H76 H 0.8552 0.63138 0.07266 0.0
H77 H 0.89904 0.75436 0.07452 0.0
H78 H 0.93202 0.6167 0.10987 0.0
H79 H 0.10146 0.85262 0.15274 0.0
H80 H 0.13341 0.33116 0.87981 0.0
H81 H 0.07834 0.20903 0.91096 0.0
H82 H 0.04974 0.34352 0.85475 0.0
H83 H 0.85141 0.10881 0.89351 0.0
C84 C 0.11573 0.12551 0.64259 0.0
C85 C 0.22067 0.25939 0.62242 0.0
C86 C 0.14787 0.1855 0.61197 0.0
C87 C 0.26109 0.27152 0.66303 0.0
C88 C 0.15614 0.13742 0.68333 0.0
C89 C 0.22893 0.21074 0.69339 0.0
N90 N 0.04609 0.05458 0.63138 0.0
C91 C 0.01248 -0.00629 0.6598 0.0
C92 C 0.12329 0.07455 0.71172 0.0
C93 C 0.05151 0.00228 0.69944 0.0
Gd94 Gd 0.00493 0.95768 0.45253 0.0
Gd95 Gd 0.98697 0.04429 0.56266 0.0
N96 N 0.10794 0.17181 0.57236 0.0
C97 C 0.25037 0.31926 0.59212 0.0
C98 C 0.13444 0.23122 0.54483 0.0
C99 C 0.20653 0.30527 0.5536 0.0
H100 H 0.09978 0.22302 0.51688 0.0
H101 H 0.22764 0.35181 0.53111 0.0
H102 H 0.89367 0.77896 0.49859 0.0
H103 H 0.95608 0.93837 0.65135 0.0
H104 H 0.76382 0.65091 0.48792 0.0
H105 H 0.30603 0.37682 0.59893 0.0
H106 H 0.31727 0.32782 0.67133 0.0
H107 H 0.03837 0.05688 0.35744 0.0
H108 H 0.15342 0.08106 0.74264 0.0
H109 H 0.02618 0.95268 0.71991 0.0
H110 H 0.67064 0.67023 0.34772 0.0
H111 H 0.26113 0.22089 0.72431 0.0
H112 H 0.84023 0.90997 0.26681 0.0
H113 H 0.97022 0.03724 0.28478 0.0
N114 N 0.94639 0.94298 0.38129 0.0
C115 C 0.87556 0.87209 0.3717 0.0
C116 C 0.98118 0.00155 0.35022 0.0
C117 C 0.86973 0.91834 0.2988 0.0
C118 C 0.94313 0.99032 0.30882 0.0
C119 C 0.83505 0.85808 0.33031 0.0
H120 H 0.72842 0.77354 0.29099 0.0
N121 N 0.88318 0.8295 0.44401 0.0
C122 C 0.84253 0.8142 0.40438 0.0
C123 C 0.73901 0.68178 0.42713 0.0
C124 C 0.76871 0.74026 0.39548 0.0
C125 C 0.85753 0.7706 0.47183 0.0
C126 C 0.7844 0.6967 0.46484 0.0
O127 O 0.06996 0.03615 0.56609 0.0
O128 O 0.11424 0.05976 0.4906 0.0
O129 O 0.03942 0.90106 0.44727 0.0
O130 O 0.06694 0.9757 0.39124 0.0
O131 O 0.00887 0.09487 0.48989 0.0
O132 O 0.07815 0.08392 0.44743 0.0
O133 O 0.92094 0.96387 0.44614 0.0
O134 O 0.87821 0.94729 0.52161 0.0
O135 O 0.95581 0.103 0.57534 0.0
O136 O 0.91559 0.01248 0.62209 0.0
O137 O 0.97813 0.90496 0.52635 0.0
O138 O 0.90659 0.91796 0.56112 0.0
C139 C 0.12574 0.06761 0.5366 0.0
C140 C 0.05424 0.11497 0.45452 0.0
C141 C 0.14802 0.96103 0.40115 0.0
C142 C 0.21896 0.93375 0.38031 0.0
C143 C 0.28691 0.06315 0.39966 0.0
C144 C 0.21723 0.03818 0.4074 0.0
C145 C 0.28795 0.01141 0.38601 0.0
C146 C 0.14921 0.90927 0.3878 0.0
C147 C 0.07348 0.93272 0.40695 0.0
C148 C 0.72769 0.72645 0.35474 0.0
C149 C 0.7608 0.78514 0.32222 0.0
H150 H 0.68261 0.62428 0.42156 0.0
C151 C 0.8668 0.93726 0.47559 0.0
C152 C 0.92709 0.88367 0.55761 0.0
C153 C 0.93226 0.10817 0.65522 0.0
C154 C 0.89661 0.16066 0.69858 0.0
C155 C 0.99045 0.16772 0.73189 0.0
C156 C 0.98266 0.13023 0.69218 0.0
C157 C 0.94767 0.18286 0.73521 0.0
C158 C 0.88997 0.12391 0.65851 0.0
C159 C 0.91901 0.065 0.61399 0.0
H160 H 0.34027 0.12271 0.40442 0.0
H161 H 0.21734 0.07892 0.41792 0.0
H162 H 0.3426 0.03178 0.38092 0.0
H163 H 0.09548 0.84975 0.38279 0.0
H164 H 0.02909 0.18432 0.76043 0.0
H165 H 0.01509 0.11773 0.69074 0.0
H166 H 0.95361 0.21076 0.76665 0.0
H167 H 0.8516 0.10724 0.62965 0.0
Zn168 Zn 0.38307 0.66943 0.15845 0.0
Zn169 Zn 0.32308 0.61605 0.33483 0.0
Zn170 Zn 0.35775 0.63668 0.24729 0.0
C171 C 0.48191 0.71063 0.3292 0.0
C172 C 0.24442 0.47363 0.30225 0.0
O173 O 0.31106 0.67983 0.21908 0.0
O174 O 0.34032 0.70775 0.14324 0.0
C175 C 0.52454 0.74933 0.19772 0.0
O176 O 0.46822 0.70512 0.28441 0.0
O177 O 0.4278 0.67519 0.35834 0.0
O178 O 0.24812 0.50556 0.33783 0.0
O179 O 0.28185 0.51261 0.26437 0.0
O180 O 0.49467 0.7433 0.15927 0.0
O181 O 0.48295 0.71321 0.23491 0.0
O182 O 0.29172 0.52536 0.21349 0.0
O183 O 0.32333 0.564 0.13907 0.0
C184 C 0.28804 0.51097 0.16921 0.0
O185 O 0.31554 0.68567 0.26887 0.0
O186 O 0.28704 0.66151 0.3449 0.0
C187 C 0.30875 0.70362 0.17924 0.0
C188 C 0.29279 0.69177 0.30703 0.0
Zn189 Zn 0.62435 0.34601 0.84704 0.0
Zn190 Zn 0.66724 0.36994 0.67044 0.0
Zn191 Zn 0.64578 0.36953 0.75916 0.0
C192 C 0.76081 0.52201 0.69794 0.0
C193 C 0.51349 0.28683 0.67915 0.0
O194 O 0.69754 0.33386 0.79192 0.0
O195 O 0.68766 0.33274 0.86964 0.0
C196 C 0.70589 0.49879 0.82911 0.0
O197 O 0.72268 0.49022 0.73669 0.0
O198 O 0.75116 0.4824 0.66519 0.0
O199 O 0.56458 0.31742 0.64842 0.0
O200 O 0.531 0.29575 0.72362 0.0
O201 O 0.66644 0.44682 0.86001 0.0
O202 O 0.70999 0.48342 0.78694 0.0
O203 O 0.51978 0.2898 0.77431 0.0
O204 O 0.51265 0.25756 0.84875 0.0
C205 C 0.47988 0.25061 0.81162 0.0
O206 O 0.7009 0.33282 0.74302 0.0
O207 O 0.69587 0.31616 0.66563 0.0
C208 C 0.71135 0.3257 0.83406 0.0
C209 C 0.71391 0.31343 0.70665 0.0
H210 H 0.1723 0.82307 0.11719 0.0
H211 H 0.97905 0.62453 0.19521 0.0
H212 H 0.05407 0.60248 0.22132 0.0
H213 H 0.17108 0.6329 0.21537 0.0
H214 H 0.35963 0.82559 0.13163 0.0
H215 H 0.29096 0.85749 0.11491 0.0
C216 C 0.14719 0.77581 0.14059 0.0
C217 C 0.07038 0.7254 0.15419 0.0
C218 C 0.18984 0.76223 0.15418 0.0
C219 C 0.03803 0.66374 0.18403 0.0
C220 C 0.08087 0.65116 0.19894 0.0
C221 C 0.19729 0.68245 0.19411 0.0
C222 C 0.27004 0.72682 0.17464 0.0
C223 C 0.15627 0.69893 0.18327 0.0
C224 C 0.3034 0.79047 0.14673 0.0
C225 C 0.26419 0.80869 0.13715 0.0
H226 H 0.16299 0.04817 0.62078 0.0
H227 H 0.26236 0.18967 0.49595 0.0
H228 H 0.39057 0.27181 0.53057 0.0
H229 H 0.47372 0.30409 0.5963 0.0
H230 H 0.37606 0.16424 0.72182 0.0
H231 H 0.24712 0.08241 0.68796 0.0
C232 C 0.2128 0.09744 0.60142 0.0
C233 C 0.20332 0.11348 0.55612 0.0
C234 C 0.28614 0.14522 0.62202 0.0
C235 C 0.26825 0.17611 0.53079 0.0
C236 C 0.34141 0.22339 0.55075 0.0
C237 C 0.42422 0.2559 0.61648 0.0
C238 C 0.43449 0.24074 0.66187 0.0
C239 C 0.35088 0.2087 0.59639 0.0
C240 C 0.36973 0.17831 0.68748 0.0
C241 C 0.29611 0.1309 0.66774 0.0
H242 H 0.07032 0.16475 0.11765 0.0
H243 H 0.19844 0.26617 0.98803 0.0
H244 H 0.27233 0.39328 0.01943 0.0
H245 H 0.30202 0.47452 0.08421 0.0
H246 H 0.17323 0.3731 0.21369 0.0
H247 H 0.1001 0.24622 0.18273 0.0
C248 C 0.11533 0.21474 0.09659 0.0
C249 C 0.13014 0.20639 0.05098 0.0
C250 C 0.15794 0.28718 0.11514 0.0
C251 C 0.18627 0.27134 0.02326 0.0
C252 C 0.2287 0.34383 0.04133 0.0
C253 C 0.25793 0.42477 0.10582 0.0
C254 C 0.24397 0.43349 0.15174 0.0
C255 C 0.21529 0.3523 0.08732 0.0
C256 C 0.18664 0.36827 0.17899 0.0
C257 C 0.14415 0.29569 0.16096 0.0
H258 H 0.94202 0.28926 0.72995 0.0
H259 H 0.74601 0.06451 0.67429 0.0
H260 H 0.6718 0.09172 0.67219 0.0
H261 H 0.66404 0.18135 0.68295 0.0
H262 H 0.857 0.4034 0.74205 0.0
H263 H 0.93118 0.37554 0.7462 0.0
C264 C 0.88283 0.24596 0.71788 0.0
C265 C 0.85005 0.17545 0.70157 0.0
C266 C 0.84025 0.26181 0.71698 0.0
C267 C 0.77319 0.11992 0.68604 0.0
C268 C 0.73055 0.13525 0.68499 0.0
C269 C 0.72216 0.22311 0.69699 0.0
C270 C 0.75547 0.29397 0.71226 0.0
C271 C 0.76379 0.2063 0.69972 0.0
C272 C 0.83064 0.34827 0.73033 0.0
C273 C 0.87296 0.33249 0.7325 0.0
H274 H 0.82326 0.85192 0.14029 0.0
H275 H 0.86148 0.0316 0.07631 0.0
H276 H 0.75443 0.98998 0.11951 0.0
H277 H 0.63728 0.89021 0.1637 0.0
H278 H 0.59289 0.70706 0.22636 0.0
H279 H 0.716 0.76349 0.19695 0.0
C280 C 0.809 0.88276 0.13653 0.0
C281 C 0.84905 0.94338 0.10389 0.0
C282 C 0.74612 0.85784 0.16127 0.0
C283 C 0.83051 0.98345 0.10007 0.0
C284 C 0.76935 0.95994 0.12496 0.0
C285 C 0.656 0.86423 0.17231 0.0
C286 C 0.60639 0.79459 0.19662 0.0
C287 C 0.72492 0.89542 0.15396 0.0
C288 C 0.63066 0.76106 0.20779 0.0
C289 C 0.70045 0.79276 0.19037 0.0
H290 H 0.9825 0.82889 0.58796 0.0
H291 H 0.791 0.79568 0.60251 0.0
H292 H 0.72901 0.68935 0.65638 0.0
H293 H 0.72233 0.59651 0.69262 0.0
H294 H 0.91032 0.62553 0.6751 0.0
H295 H 0.98153 0.74361 0.63092 0.0
C296 C 0.92725 0.7983 0.60296 0.0
C297 C 0.891 0.81949 0.59058 0.0
C298 C 0.8917 0.73696 0.63417 0.0
C299 C 0.82002 0.78025 0.61109 0.0
C300 C 0.7845 0.71947 0.64211 0.0
C301 C 0.78015 0.63055 0.68075 0.0
C302 C 0.81171 0.60334 0.6876 0.0
C303 C 0.8191 0.6964 0.65332 0.0
C304 C 0.88566 0.64641 0.67084 0.0
C305 C 0.92581 0.7132 0.64492 0.0
H306 H 0.30219 0.94503 0.31231 0.0
H307 H 0.13588 0.79606 0.42165 0.0
H308 H 0.1381 0.70431 0.40482 0.0
H309 H 0.19333 0.67016 0.36301 0.0
H310 H 0.36379 0.82035 0.25608 0.0
H311 H 0.35263 0.90687 0.267 0.0
C312 C 0.26653 0.89244 0.33237 0.0
C313 C 0.21923 0.87753 0.36832 0.0
C314 C 0.26831 0.83987 0.32263 0.0
C315 C 0.1724 0.80867 0.3936 0.0
C316 C 0.1738 0.75626 0.38412 0.0
C317 C 0.22734 0.72142 0.3417 0.0
C318 C 0.27856 0.73843 0.30839 0.0
C319 C 0.22224 0.77174 0.34921 0.0
C320 C 0.32254 0.80509 0.28112 0.0
C321 C 0.31694 0.85508 0.28784 0.0
H322 H 0.19657 0.15985 0.89075 0.0
H323 H 0.142 0.96261 0.93497 0.0
H324 H 0.24704 0.00495 0.88803 0.0
H325 H 0.36504 0.10692 0.84352 0.0
H326 H 0.41523 0.29911 0.7937 0.0
H327 H 0.29882 0.24776 0.83137 0.0
C328 C 0.20678 0.12541 0.8895 0.0
C329 C 0.16333 0.05978 0.9182 0.0
C330 C 0.26585 0.14864 0.86082 0.0
C331 C 0.17645 0.0151 0.91506 0.0
C332 C 0.23606 0.03877 0.88772 0.0
C333 C 0.34869 0.13588 0.83933 0.0
C334 C 0.39853 0.2067 0.81612 0.0
C335 C 0.28262 0.10666 0.86171 0.0
C336 C 0.37725 0.24408 0.81101 0.0
C337 C 0.3114 0.21535 0.8333 0.0
H338 H 0.16646 0.19776 0.3859 0.0
H339 H 0.98196 0.15595 0.44369 0.0
H340 H 0.01518 0.25313 0.39269 0.0
H341 H 0.1062 0.36149 0.34034 0.0
H342 H 0.29411 0.41011 0.28308 0.0
H343 H 0.24806 0.29699 0.32304 0.0
C344 C 0.1331 0.20941 0.38687 0.0
C345 C 0.07294 0.1706 0.41966 0.0
C346 C 0.15258 0.26617 0.35706 0.0
C347 C 0.02974 0.18588 0.41989 0.0
C348 C 0.04824 0.24123 0.39038 0.0
C349 C 0.1355 0.3457 0.33527 0.0
C350 C 0.20338 0.3939 0.30904 0.0
C351 C 0.11077 0.28318 0.35996 0.0
C352 C 0.24119 0.3733 0.30275 0.0
C353 C 0.2156 0.30942 0.32636 0.0
H354 H 0.96591 0.34607 0.8906 0.0
H355 H 0.80628 0.12462 0.82433 0.0
H356 H 0.71949 0.13475 0.80632 0.0
H357 H 0.68837 0.207 0.8101 0.0
H358 H 0.84952 0.42823 0.87622 0.0
H359 H 0.93696 0.4186 0.89271 0.0
C360 C 0.91268 0.30041 0.87161 0.0
C361 C 0.89266 0.23459 0.8591 0.0
C362 C 0.86328 0.30673 0.86123 0.0
C363 C 0.82262 0.17541 0.83521 0.0
C364 C 0.77301 0.18125 0.82473 0.0
C365 C 0.74284 0.25292 0.8279 0.0
C366 C 0.76326 0.3185 0.84167 0.0
C367 C 0.79254 0.24654 0.83776 0.0
C368 C 0.83328 0.37751 0.86518 0.0
C369 C 0.88314 0.372 0.8746 0.0
H370 H 0.83061 0.95446 0.39054 0.0
H371 H 0.73068 0.81591 0.51669 0.0
H372 H 0.60272 0.73156 0.48118 0.0
H373 H 0.52028 0.69639 0.41408 0.0
H374 H 0.61894 0.83568 0.28829 0.0
H375 H 0.74731 0.91913 0.32298 0.0
C376 C 0.78064 0.90571 0.41014 0.0
C377 C 0.78961 0.89099 0.456 0.0
C378 C 0.70765 0.85707 0.38923 0.0
C379 C 0.7248 0.82855 0.48148 0.0
C380 C 0.6519 0.78002 0.46103 0.0
C381 C 0.56987 0.74492 0.39412 0.0
C382 C 0.56026 0.75903 0.3482 0.0
C383 C 0.64283 0.79354 0.41487 0.0
C384 C 0.62501 0.82211 0.32291 0.0
C385 C 0.69823 0.87056 0.34314 0.0
H386 H 0.96248 0.83204 0.91044 0.0
H387 H 0.77726 0.73865 1.00304 0.0
H388 H 0.69038 0.61852 0.95923 0.0
H389 H 0.66794 0.53989 0.896 0.0
H390 H 0.84931 0.63244 0.79988 0.0
H391 H 0.93635 0.75491 0.84204 0.0
C392 C 0.90332 0.78467 0.9212 0.0
C393 C 0.87601 0.79292 0.96018 0.0
C394 C 0.85296 0.71688 0.89457 0.0
C395 C 0.79912 0.73263 0.97337 0.0
C396 C 0.74951 0.66444 0.94816 0.0
C397 C 0.72628 0.58727 0.88382 0.0
C398 C 0.75251 0.57721 0.84522 0.0
C399 C 0.77576 0.65614 0.90868 0.0
C400 C 0.82776 0.63912 0.82934 0.0
C401 C 0.87778 0.70856 0.85396 0.0
loop_
_geom_bond_atom_site_label_1
_geom_bond_atom_site_label_2
_geom_bond_distance
_geom_bond_site_symmetry_2
_ccdc_geom_bond_type
C0 C2 1.422 . S
C0 C4 1.415 . S
C0 N6 1.370 1_565 S
C1 C2 1.421 . S
C1 C3 1.417 . S
C1 C13 1.422 . S
C2 C0 1.422 . S
C2 C1 1.421 . S
C2 N12 1.359 . S
C3 C1 1.417 . S
C3 C5 1.329 . S
C3 H22 0.930 . S
C4 C0 1.415 . S
C4 C5 1.437 . S
C4 C8 1.413 1_665 S
C5 C3 1.329 . S
C5 C4 1.437 . S
C5 H27 0.929 . S
N6 C0 1.370 1_545 S
N6 C7 1.336 1_655 S
N6 Gd11 2.622 . S
C7 N6 1.336 1_455 S
C7 C9 1.378 . S
C7 H19 0.929 . S
C8 C4 1.413 1_445 S
C8 C9 1.348 . S
C8 H24 0.931 1_545 S
C9 C7 1.378 . S
C9 C8 1.348 . S
C9 H25 0.930 . S
Gd10 N30 2.622 . S
Gd10 N37 2.570 1_565 S
Gd10 O44 2.353 1_454 S
Gd10 O45 2.468 . S
Gd10 O46 2.427 . S
Gd10 O48 2.388 1_455 S
Gd10 O49 2.386 1_565 S
Gd10 O53 2.307 1_564 S
Gd10 C63 2.805 . S
Gd11 N6 2.622 . S
Gd11 N12 2.570 1_545 S
Gd11 O43 2.386 1_545 S
Gd11 O47 2.307 1_546 S
Gd11 O50 2.353 1_656 S
Gd11 O51 2.468 . S
Gd11 O52 2.427 1_655 S
Gd11 O54 2.388 1_655 S
Gd11 C75 2.805 . S
N12 C2 1.359 . S
N12 Gd11 2.570 1_565 S
N12 C14 1.343 . S
C13 C1 1.422 . S
C13 C15 1.321 . S
C13 H21 0.931 . S
C14 N12 1.343 . S
C14 C15 1.390 . S
C14 H16 0.931 . S
C15 C13 1.321 . S
C15 C14 1.390 . S
C15 H17 0.930 . S
H16 C14 0.931 . S
H17 C15 0.930 . S
H18 C41 0.931 . S
H19 C7 0.929 . S
H20 C42 0.930 . S
H21 C13 0.931 . S
H22 C3 0.930 . S
H23 C32 0.929 . S
H24 C8 0.931 1_565 S
H25 C9 0.930 . S
H26 C64 0.930 . S
H27 C5 0.929 . S
H28 C33 0.931 . S
H29 C34 0.930 . S
N30 Gd10 2.622 . S
N30 C31 1.369 1_565 S
N30 C32 1.338 1_455 S
C31 N30 1.369 1_545 S
C31 C35 1.415 . S
C31 C38 1.422 . S
C32 H23 0.929 . S
C32 N30 1.338 1_655 S
C32 C34 1.378 . S
C33 H28 0.931 . S
C33 C34 1.348 1_545 S
C33 C35 1.413 1_655 S
C34 H29 0.930 . S
C34 C32 1.378 . S
C34 C33 1.348 1_565 S
C35 C31 1.415 . S
C35 C33 1.413 1_455 S
C35 C65 1.437 . S
H36 C65 0.929 . S
N37 Gd10 2.570 1_545 S
N37 C38 1.359 . S
N37 C41 1.343 . S
C38 C31 1.422 . S
C38 N37 1.359 . S
C38 C40 1.421 . S
C39 C40 1.422 . S
C39 C42 1.321 . S
C39 H66 0.931 . S
C40 C38 1.421 . S
C40 C39 1.422 . S
C40 C64 1.417 . S
C41 H18 0.931 . S
C41 N37 1.343 . S
C41 C42 1.390 . S
C42 H20 0.930 . S
C42 C39 1.321 . S
C42 C41 1.390 . S
O43 Gd11 2.386 1_565 S
O43 C55 1.265 . S
O44 Gd10 2.353 1_656 S
O44 C55 1.242 . S
O45 Gd10 2.468 . S
O45 C63 1.263 . S
O46 Gd10 2.427 . S
O46 C63 1.252 . S
O47 Gd11 2.307 1_564 S
O47 C56 1.261 . S
O48 Gd10 2.388 1_655 S
O48 C56 1.252 . S
O49 Gd10 2.386 1_545 S
O49 C67 1.265 . S
O50 Gd11 2.353 1_454 S
O50 C67 1.242 . S
O51 Gd11 2.468 . S
O51 C75 1.263 . S
O52 Gd11 2.427 1_455 S
O52 C75 1.252 1_455 S
O53 Gd10 2.307 1_546 S
O53 C68 1.261 . S
O54 Gd11 2.388 1_455 S
O54 C68 1.252 . S
C55 O43 1.265 . S
C55 O44 1.242 . S
C56 O47 1.261 . S
C56 O48 1.252 . S
C57 C60 1.394 . S
C57 C62 1.370 . S
C57 C63 1.500 . S
C58 C61 1.383 . S
C58 C62 1.395 . S
C59 C60 1.396 . S
C59 C61 1.365 . S
C59 H76 0.929 . S
C60 C57 1.394 . S
C60 C59 1.396 . S
C60 H77 0.930 1_455 S
C61 C58 1.383 . S
C61 C59 1.365 . S
C61 H78 0.931 . S
C62 C57 1.370 . S
C62 C58 1.395 . S
C62 H79 0.930 . S
C63 Gd10 2.805 . S
C63 O45 1.263 . S
C63 O46 1.252 . S
C63 C57 1.500 . S
C64 H26 0.930 . S
C64 C40 1.417 . S
C64 C65 1.329 . S
C65 C35 1.437 . S
C65 H36 0.929 . S
C65 C64 1.329 . S
H66 C39 0.931 . S
C67 O49 1.265 . S
C67 O50 1.242 . S
C68 O53 1.261 . S
C68 O54 1.252 . S
C69 C72 1.394 . S
C69 C74 1.370 . S
C69 C75 1.500 . S
C70 C73 1.383 . S
C70 C74 1.395 . S
C71 C72 1.396 . S
C71 C73 1.365 . S
C71 H80 0.929 1_655 S
C72 C69 1.394 . S
C72 C71 1.396 . S
C72 H81 0.930 1_655 S
C73 C70 1.383 . S
C73 C71 1.365 . S
C73 H82 0.931 . S
C74 C69 1.370 . S
C74 C70 1.395 . S
C74 H83 0.930 . S
C75 Gd11 2.805 . S
C75 O51 1.263 . S
C75 O52 1.252 1_655 S
C75 C69 1.500 . S
H76 C59 0.929 . S
H77 C60 0.930 1_655 S
H78 C61 0.931 . S
H79 C62 0.930 . S
H80 C71 0.929 1_455 S
H81 C72 0.930 1_455 S
H82 C73 0.931 . S
H83 C74 0.930 . S
C84 C86 1.422 . S
C84 C88 1.415 . S
C84 N90 1.366 1_455 S
C85 C86 1.421 . S
C85 C87 1.417 . S
C85 C97 1.422 . S
C86 C84 1.422 . S
C86 C85 1.421 . S
C86 N96 1.359 . S
C87 C85 1.417 . S
C87 C89 1.329 . S
C87 H106 0.930 . S
C88 C84 1.415 . S
C88 C89 1.437 . S
C88 C92 1.413 . S
C89 C87 1.329 . S
C89 C88 1.437 . S
C89 H111 0.929 . S
N90 C84 1.366 1_655 S
N90 C91 1.337 1_545 S
N90 Gd95 2.625 . S
C91 N90 1.337 1_565 S
C91 C93 1.378 . S
C91 H103 0.929 . S
C92 C88 1.413 . S
C92 C93 1.348 1_445 S
C92 H108 0.936 . S
C93 C91 1.378 . S
C93 C92 1.348 1_665 S
C93 H109 0.930 . S
Gd94 N114 2.622 1_565 S
Gd94 N121 2.570 1_455 S
Gd94 O128 2.353 1_565 S
Gd94 O129 2.468 . S
Gd94 O130 2.427 1_565 S
Gd94 O132 2.388 1_565 S
Gd94 O133 2.386 1_455 S
Gd94 O137 2.307 1_455 S
Gd94 C147 2.805 . S
Gd95 N90 2.625 . S
Gd95 N96 2.570 1_655 S
Gd95 O127 2.386 1_655 S
Gd95 O131 2.307 1_655 S
Gd95 O134 2.353 1_545 S
Gd95 O135 2.468 . S
Gd95 O136 2.427 . S
Gd95 O138 2.388 1_545 S
Gd95 C159 2.805 . S
N96 C86 1.359 . S
N96 Gd95 2.570 1_455 S
N96 C98 1.343 . S
C97 C85 1.422 . S
C97 C99 1.321 . S
C97 H105 0.931 . S
C98 N96 1.343 . S
C98 C99 1.390 . S
C98 H100 0.931 . S
C99 C97 1.321 . S
C99 C98 1.390 . S
C99 H101 0.930 . S
H100 C98 0.931 . S
H101 C99 0.930 . S
H102 C125 0.931 . S
H103 C91 0.929 . S
H104 C126 0.930 . S
H105 C97 0.931 . S
H106 C87 0.930 . S
H107 C116 0.929 . S
H108 C92 0.936 . S
H109 C93 0.930 . S
H110 C148 0.930 . S
H111 C89 0.929 . S
H112 C117 0.931 . S
H113 C118 0.930 . S
N114 Gd94 2.622 1_545 S
N114 C115 1.369 1_445 S
N114 C116 1.338 . S
C115 N114 1.369 1_665 S
C115 C119 1.415 . S
C115 C122 1.422 . S
C116 H107 0.929 . S
C116 N114 1.338 . S
C116 C118 1.378 . S
C117 H112 0.931 . S
C117 C118 1.348 . S
C117 C119 1.413 1_445 S
C118 H113 0.930 . S
C118 C116 1.378 . S
C118 C117 1.348 . S
C119 C115 1.415 . S
C119 C117 1.413 1_665 S
C119 C149 1.437 . S
H120 C149 0.929 . S
N121 Gd94 2.570 1_655 S
N121 C122 1.359 . S
N121 C125 1.343 . S
C122 C115 1.422 . S
C122 N121 1.359 . S
C122 C124 1.421 . S
C123 C124 1.422 . S
C123 C126 1.321 . S
C123 H150 0.931 . S
C124 C122 1.421 . S
C124 C123 1.422 . S
C124 C148 1.417 . S
C125 H102 0.931 . S
C125 N121 1.343 . S
C125 C126 1.390 . S
C126 H104 0.930 . S
C126 C123 1.321 . S
C126 C125 1.390 . S
O127 Gd95 2.386 1_455 S
O127 C139 1.265 . S
O128 Gd94 2.353 1_545 S
O128 C139 1.242 . S
O129 Gd94 2.468 . S
O129 C147 1.263 . S
O130 Gd94 2.427 1_545 S
O130 C147 1.252 1_545 S
O131 Gd95 2.307 1_455 S
O131 C140 1.261 . S
O132 Gd94 2.388 1_545 S
O132 C140 1.252 . S
O133 Gd94 2.386 1_655 S
O133 C151 1.265 . S
O134 Gd95 2.353 1_565 S
O134 C151 1.242 . S
O135 Gd95 2.468 . S
O135 C159 1.263 . S
O136 Gd95 2.427 . S
O136 C159 1.252 . S
O137 Gd94 2.307 1_655 S
O137 C152 1.261 . S
O138 Gd95 2.388 1_565 S
O138 C152 1.252 . S
C139 O127 1.265 . S
C139 O128 1.242 . S
C140 O131 1.261 . S
C140 O132 1.252 . S
C141 C144 1.396 . S
C141 C146 1.370 . S
C141 C147 1.500 . S
C142 C145 1.383 . S
C142 C146 1.395 . S
C143 C144 1.414 . S
C143 C145 1.365 . S
C143 H160 0.929 1_565 S
C144 C141 1.396 . S
C144 C143 1.414 . S
C144 H161 0.910 1_565 S
C145 C142 1.383 . S
C145 C143 1.365 . S
C145 H162 0.931 . S
C146 C141 1.370 . S
C146 C142 1.395 . S
C146 H163 0.930 . S
C147 Gd94 2.805 . S
C147 O129 1.263 . S
C147 O130 1.252 1_565 S
C147 C141 1.500 . S
C148 H110 0.930 . S
C148 C124 1.417 . S
C148 C149 1.329 . S
C149 C119 1.437 . S
C149 H120 0.929 . S
C149 C148 1.329 . S
H150 C123 0.931 . S
C151 O133 1.265 . S
C151 O134 1.242 . S
C152 O137 1.261 . S
C152 O138 1.252 . S
C153 C156 1.394 . S
C153 C158 1.370 . S
C153 C159 1.500 . S
C154 C157 1.383 . S
C154 C158 1.395 . S
C155 C156 1.396 . S
C155 C157 1.365 . S
C155 H164 0.929 . S
C156 C153 1.394 . S
C156 C155 1.396 . S
C156 H165 0.930 1_545 S
C157 C154 1.383 . S
C157 C155 1.365 . S
C157 H166 0.931 . S
C158 C153 1.370 . S
C158 C154 1.395 . S
C158 H167 0.930 . S
C159 Gd95 2.805 . S
C159 O135 1.263 . S
C159 O136 1.252 . S
C159 C153 1.500 . S
H160 C143 0.929 1_545 S
H161 C144 0.910 1_545 S
H162 C145 0.931 . S
H163 C146 0.930 . S
H164 C155 0.929 . S
H165 C156 0.930 1_565 S
H166 C157 0.931 . S
H167 C158 0.930 . S
Zn168 O174 1.920 . S
Zn168 O180 1.898 . S
Zn168 O183 1.905 . S
Zn169 O177 1.905 . S
Zn169 O178 1.898 . S
Zn169 O186 1.920 . S
Zn170 O173 2.080 . S
Zn170 O176 2.114 . S
Zn170 O179 2.120 . S
Zn170 O181 2.120 . S
Zn170 O182 2.114 . S
Zn170 O185 2.080 . S
C171 O176 1.166 . S
C171 O177 1.182 . S
C172 O178 1.167 . S
C172 O179 1.299 . S
O173 Zn170 2.080 . S
O173 C187 1.305 . S
O174 Zn168 1.920 . S
O174 C187 1.234 . S
C175 O180 1.167 . S
C175 O181 1.299 . S
O176 Zn170 2.114 . S
O176 C171 1.166 . S
O177 Zn169 1.905 . S
O177 C171 1.182 . S
O178 Zn169 1.898 . S
O178 C172 1.167 . S
O179 Zn170 2.120 . S
O179 C172 1.299 . S
O180 Zn168 1.898 . S
O180 C175 1.167 . S
O181 Zn170 2.120 . S
O181 C175 1.299 . S
O182 Zn170 2.114 . S
O182 C184 1.166 . S
O183 Zn168 1.905 . S
O183 C184 1.182 . S
C184 O182 1.166 . S
C184 O183 1.182 . S
O185 Zn170 2.080 . S
O185 C188 1.305 . S
O186 Zn169 1.920 . S
O186 C188 1.234 . S
C187 O173 1.305 . S
C187 O174 1.234 . S
C188 O185 1.305 . S
C188 O186 1.234 . S
Zn189 O195 1.920 . S
Zn189 O201 1.898 . S
Zn189 O204 1.905 . S
Zn190 O198 1.905 . S
Zn190 O199 1.898 . S
Zn190 O207 1.920 . S
Zn191 O194 2.080 . S
Zn191 O197 2.114 . S
Zn191 O200 2.120 . S
Zn191 O202 2.120 . S
Zn191 O203 2.114 . S
Zn191 O206 2.080 . S
C192 O197 1.166 . S
C192 O198 1.182 . S
C193 O199 1.167 . S
C193 O200 1.299 . S
O194 Zn191 2.080 . S
O194 C208 1.305 . S
O195 Zn189 1.920 . S
O195 C208 1.234 . S
C196 O201 1.167 . S
C196 O202 1.299 . S
O197 Zn191 2.114 . S
O197 C192 1.166 . S
O198 Zn190 1.905 . S
O198 C192 1.182 . S
O199 Zn190 1.898 . S
O199 C193 1.167 . S
O200 Zn191 2.120 . S
O200 C193 1.299 . S
O201 Zn189 1.898 . S
O201 C196 1.167 . S
O202 Zn191 2.120 . S
O202 C196 1.299 . S
O203 Zn191 2.114 . S
O203 C205 1.166 . S
O204 Zn189 1.905 . S
O204 C205 1.182 . S
C205 O203 1.166 . S
C205 O204 1.182 . S
O206 Zn191 2.080 . S
O206 C209 1.305 . S
O207 Zn190 1.920 . S
O207 C209 1.234 . S
C208 O194 1.305 . S
C208 O195 1.234 . S
C209 O206 1.305 . S
C209 O207 1.234 . S
H210 C216 0.930 . S
H211 C219 0.930 . S
H212 C220 0.930 . S
H213 C221 0.930 . S
H214 C224 0.930 . S
H215 C225 0.930 . S
C216 H210 0.930 . S
C216 C217 1.355 . S
C216 C218 1.415 . S
C217 C216 1.355 . S
C217 C219 1.419 . S
C218 C216 1.415 . S
C218 C223 1.425 . S
C218 C225 1.409 . S
C219 H211 0.930 . S
C219 C217 1.419 . S
C219 C220 1.362 . S
C220 H212 0.930 . S
C220 C219 1.362 . S
C220 C223 1.409 . S
C221 H213 0.930 . S
C221 C222 1.355 . S
C221 C223 1.415 . S
C222 C221 1.355 . S
C222 C224 1.419 . S
C223 C218 1.425 . S
C223 C220 1.409 . S
C223 C221 1.415 . S
C224 H214 0.930 . S
C224 C222 1.419 . S
C224 C225 1.362 . S
C225 H215 0.930 . S
C225 C218 1.409 . S
C225 C224 1.362 . S
H226 C232 0.930 . S
H227 C235 0.930 . S
H228 C236 0.930 . S
H229 C237 0.930 . S
H230 C240 0.930 . S
H231 C241 0.930 . S
C232 H226 0.930 . S
C232 C233 1.355 . S
C232 C234 1.415 . S
C233 C232 1.355 . S
C233 C235 1.419 . S
C234 C232 1.415 . S
C234 C239 1.425 . S
C234 C241 1.409 . S
C235 H227 0.930 . S
C235 C233 1.419 . S
C235 C236 1.362 . S
C236 H228 0.930 . S
C236 C235 1.362 . S
C236 C239 1.409 . S
C237 H229 0.930 . S
C237 C238 1.355 . S
C237 C239 1.415 . S
C238 C237 1.355 . S
C238 C240 1.419 . S
C239 C234 1.425 . S
C239 C236 1.409 . S
C239 C237 1.415 . S
C240 H230 0.930 . S
C240 C238 1.419 . S
C240 C241 1.362 . S
C241 H231 0.930 . S
C241 C234 1.409 . S
C241 C240 1.362 . S
H242 C248 0.930 . S
H243 C251 0.930 . S
H244 C252 0.930 . S
H245 C253 0.930 . S
H246 C256 0.930 . S
H247 C257 0.930 . S
C248 H242 0.930 . S
C248 C249 1.355 . S
C248 C250 1.415 . S
C249 C248 1.355 . S
C249 C251 1.419 . S
C250 C248 1.415 . S
C250 C255 1.425 . S
C250 C257 1.409 . S
C251 H243 0.930 . S
C251 C249 1.419 . S
C251 C252 1.362 . S
C252 H244 0.930 . S
C252 C251 1.362 . S
C252 C255 1.409 . S
C253 H245 0.930 . S
C253 C254 1.355 . S
C253 C255 1.415 . S
C254 C253 1.355 . S
C254 C256 1.419 . S
C255 C250 1.425 . S
C255 C252 1.409 . S
C255 C253 1.415 . S
C256 H246 0.930 . S
C256 C254 1.419 . S
C256 C257 1.362 . S
C257 H247 0.930 . S
C257 C250 1.409 . S
C257 C256 1.362 . S
H258 C264 0.930 . S
H259 C267 0.930 . S
H260 C268 0.930 . S
H261 C269 0.930 . S
H262 C272 0.930 . S
H263 C273 0.930 . S
C264 H258 0.930 . S
C264 C265 1.355 . S
C264 C266 1.415 . S
C265 C264 1.355 . S
C265 C267 1.419 . S
C266 C264 1.415 . S
C266 C271 1.425 . S
C266 C273 1.409 . S
C267 H259 0.930 . S
C267 C265 1.419 . S
C267 C268 1.362 . S
C268 H260 0.930 . S
C268 C267 1.362 . S
C268 C271 1.409 . S
C269 H261 0.930 . S
C269 C270 1.355 . S
C269 C271 1.415 . S
C270 C269 1.355 . S
C270 C272 1.419 . S
C271 C266 1.425 . S
C271 C268 1.409 . S
C271 C269 1.415 . S
C272 H262 0.930 . S
C272 C270 1.419 . S
C272 C273 1.362 . S
C273 H263 0.930 . S
C273 C266 1.409 . S
C273 C272 1.362 . S
H274 C280 0.930 . S
H275 C283 0.930 . S
H276 C284 0.930 . S
H277 C285 0.930 . S
H278 C288 0.930 . S
H279 C289 0.930 . S
C280 H274 0.930 . S
C280 C281 1.355 . S
C280 C282 1.415 . S
C281 C280 1.355 . S
C281 C283 1.419 . S
C282 C280 1.415 . S
C282 C287 1.425 . S
C282 C289 1.409 . S
C283 H275 0.930 . S
C283 C281 1.419 . S
C283 C284 1.362 . S
C284 H276 0.930 . S
C284 C283 1.362 . S
C284 C287 1.409 . S
C285 H277 0.930 . S
C285 C286 1.355 . S
C285 C287 1.415 . S
C286 C285 1.355 . S
C286 C288 1.419 . S
C287 C282 1.425 . S
C287 C284 1.409 . S
C287 C285 1.415 . S
C288 H278 0.930 . S
C288 C286 1.419 . S
C288 C289 1.362 . S
C289 H279 0.930 . S
C289 C282 1.409 . S
C289 C288 1.362 . S
H290 C296 0.930 . S
H291 C299 0.930 . S
H292 C300 0.930 . S
H293 C301 0.930 . S
H294 C304 0.930 . S
H295 C305 0.930 . S
C296 H290 0.930 . S
C296 C297 1.355 . S
C296 C298 1.415 . S
C297 C296 1.355 . S
C297 C299 1.419 . S
C298 C296 1.415 . S
C298 C303 1.425 . S
C298 C305 1.409 . S
C299 H291 0.930 . S
C299 C297 1.419 . S
C299 C300 1.362 . S
C300 H292 0.930 . S
C300 C299 1.362 . S
C300 C303 1.409 . S
C301 H293 0.930 . S
C301 C302 1.355 . S
C301 C303 1.415 . S
C302 C301 1.355 . S
C302 C304 1.419 . S
C303 C298 1.425 . S
C303 C300 1.409 . S
C303 C301 1.415 . S
C304 H294 0.930 . S
C304 C302 1.419 . S
C304 C305 1.362 . S
C305 H295 0.930 . S
C305 C298 1.409 . S
C305 C304 1.362 . S
H306 C312 0.930 . S
H307 C315 0.930 . S
H308 C316 0.930 . S
H309 C317 0.930 . S
H310 C320 0.930 . S
H311 C321 0.930 . S
C312 H306 0.930 . S
C312 C313 1.355 . S
C312 C314 1.415 . S
C313 C312 1.355 . S
C313 C315 1.419 . S
C314 C312 1.415 . S
C314 C319 1.425 . S
C314 C321 1.409 . S
C315 H307 0.930 . S
C315 C313 1.419 . S
C315 C316 1.362 . S
C316 H308 0.930 . S
C316 C315 1.362 . S
C316 C319 1.409 . S
C317 H309 0.930 . S
C317 C318 1.355 . S
C317 C319 1.415 . S
C318 C317 1.355 . S
C318 C320 1.419 . S
C319 C314 1.425 . S
C319 C316 1.409 . S
C319 C317 1.415 . S
C320 H310 0.930 . S
C320 C318 1.419 . S
C320 C321 1.362 . S
C321 H311 0.930 . S
C321 C314 1.409 . S
C321 C320 1.362 . S
H322 C328 0.930 . S
H323 C331 0.930 . S
H324 C332 0.930 . S
H325 C333 0.930 . S
H326 C336 0.930 . S
H327 C337 0.930 . S
C328 H322 0.930 . S
C328 C329 1.355 . S
C328 C330 1.415 . S
C329 C328 1.355 . S
C329 C331 1.419 . S
C330 C328 1.415 . S
C330 C335 1.425 . S
C330 C337 1.409 . S
C331 H323 0.930 . S
C331 C329 1.419 . S
C331 C332 1.362 . S
C332 H324 0.930 . S
C332 C331 1.362 . S
C332 C335 1.409 . S
C333 H325 0.930 . S
C333 C334 1.355 . S
C333 C335 1.415 . S
C334 C333 1.355 . S
C334 C336 1.419 . S
C335 C330 1.425 . S
C335 C332 1.409 . S
C335 C333 1.415 . S
C336 H326 0.930 . S
C336 C334 1.419 . S
C336 C337 1.362 . S
C337 H327 0.930 . S
C337 C330 1.409 . S
C337 C336 1.362 . S
H338 C344 0.930 . S
H339 C347 0.930 . S
H340 C348 0.930 . S
H341 C349 0.930 . S
H342 C352 0.930 . S
H343 C353 0.930 . S
C344 H338 0.930 . S
C344 C345 1.355 . S
C344 C346 1.415 . S
C345 C344 1.355 . S
C345 C347 1.419 . S
C346 C344 1.415 . S
C346 C351 1.425 . S
C346 C353 1.409 . S
C347 H339 0.930 . S
C347 C345 1.419 . S
C347 C348 1.362 . S
C348 H340 0.930 . S
C348 C347 1.362 . S
C348 C351 1.409 . S
C349 H341 0.930 . S
C349 C350 1.355 . S
C349 C351 1.415 . S
C350 C349 1.355 . S
C350 C352 1.419 . S
C351 C346 1.425 . S
C351 C348 1.409 . S
C351 C349 1.415 . S
C352 H342 0.930 . S
C352 C350 1.419 . S
C352 C353 1.362 . S
C353 H343 0.930 . S
C353 C346 1.409 . S
C353 C352 1.362 . S
H354 C360 0.930 . S
H355 C363 0.930 . S
H356 C364 0.930 . S
H357 C365 0.930 . S
H358 C368 0.930 . S
H359 C369 0.930 . S
C360 H354 0.930 . S
C360 C361 1.355 . S
C360 C362 1.415 . S
C361 C360 1.355 . S
C361 C363 1.419 . S
C362 C360 1.415 . S
C362 C367 1.425 . S
C362 C369 1.409 . S
C363 H355 0.930 . S
C363 C361 1.419 . S
C363 C364 1.362 . S
C364 H356 0.930 . S
C364 C363 1.362 . S
C364 C367 1.409 . S
C365 H357 0.930 . S
C365 C366 1.355 . S
C365 C367 1.415 . S
C366 C365 1.355 . S
C366 C368 1.419 . S
C367 C362 1.425 . S
C367 C364 1.409 . S
C367 C365 1.415 . S
C368 H358 0.930 . S
C368 C366 1.419 . S
C368 C369 1.362 . S
C369 H359 0.930 . S
C369 C362 1.409 . S
C369 C368 1.362 . S
H370 C376 0.930 . S
H371 C379 0.930 . S
H372 C380 0.930 . S
H373 C381 0.930 . S
H374 C384 0.930 . S
H375 C385 0.930 . S
C376 H370 0.930 . S
C376 C377 1.355 . S
C376 C378 1.415 . S
C377 C376 1.355 . S
C377 C379 1.419 . S
C378 C376 1.415 . S
C378 C383 1.425 . S
C378 C385 1.409 . S
C379 H371 0.930 . S
C379 C377 1.419 . S
C379 C380 1.362 . S
C380 H372 0.930 . S
C380 C379 1.362 . S
C380 C383 1.409 . S
C381 H373 0.930 . S
C381 C382 1.355 . S
C381 C383 1.415 . S
C382 C381 1.355 . S
C382 C384 1.419 . S
C383 C378 1.425 . S
C383 C380 1.409 . S
C383 C381 1.415 . S
C384 H374 0.930 . S
C384 C382 1.419 . S
C384 C385 1.362 . S
C385 H375 0.930 . S
C385 C378 1.409 . S
C385 C384 1.362 . S
H386 C392 0.930 . S
H387 C395 0.930 . S
H388 C396 0.930 . S
H389 C397 0.930 . S
H390 C400 0.930 . S
H391 C401 0.930 . S
C392 H386 0.930 . S
C392 C393 1.355 . S
C392 C394 1.415 . S
C393 C392 1.355 . S
C393 C395 1.419 . S
C394 C392 1.415 . S
C394 C399 1.425 . S
C394 C401 1.409 . S
C395 H387 0.930 . S
C395 C393 1.419 . S
C395 C396 1.362 . S
C396 H388 0.930 . S
C396 C395 1.362 . S
C396 C399 1.409 . S
C397 H389 0.930 . S
C397 C398 1.355 . S
C397 C399 1.415 . S
C398 C397 1.355 . S
C398 C400 1.419 . S
C399 C394 1.425 . S
C399 C396 1.409 . S
C399 C397 1.415 . S
C400 H390 0.930 . S
C400 C398 1.419 . S
C400 C401 1.362 . S
C401 H391 0.930 . S
C401 C394 1.409 . S
C401 C400 1.362 . S
C217 C58 1.099 . S
C222 C187 1.217 . S
C233 C139 1.576 . S
C238 C193 1.463 . S
C249 C67 1.623 . S
C254 C184 1.468 . S
C265 C154 1.182 . S
C270 C209 1.291 . S
C281 C56 1.626 . S
C286 C175 1.504 . S
C302 C192 1.517 . S
C297 C152 1.603 . S
C313 C142 1.228 . S
C318 C188 1.324 . S
C334 C205 1.523 . S
C329 C68 1.652 . S
C350 C172 1.397 . S
C345 C140 1.612 . S
C366 C208 1.228 . S
C361 C70 1.181 . S
C382 C171 1.530 . S
C377 C151 1.641 . S
C398 C196 1.393 . S
C393 C55 1.562 . S
