# Generated by pormake.
# Topology gar, (4,6)-cn, num edge types: 1
# Building blocks:
#     Node 0, Type 0, BuildingBlock: QUQFOY_clean_sbu_3, # of connection points: 4
#     Node 1, Type 0, BuildingBlock: QUQFOY_clean_sbu_3, # of connection points: 4
#     Node 2, Type 0, BuildingBlock: QUQFOY_clean_sbu_3, # of connection points: 4
#     Node 3, Type 0, BuildingBlock: QUQFOY_clean_sbu_3, # of connection points: 4
#     Node 4, Type 0, BuildingBlock: QUQFOY_clean_sbu_3, # of connection points: 4
#     Node 5, Type 0, BuildingBlock: QUQFOY_clean_sbu_3, # of connection points: 4
#     Node 6, Type 0, BuildingBlock: QUQFOY_clean_sbu_3, # of connection points: 4
#     Node 7, Type 0, BuildingBlock: QUQFOY_clean_sbu_3, # of connection points: 4
#     Node 8, Type 0, BuildingBlock: QUQFOY_clean_sbu_3, # of connection points: 4
#     Node 9, Type 0, BuildingBlock: QUQFOY_clean_sbu_3, # of connection points: 4
#     Node 10, Type 0, BuildingBlock: QUQFOY_clean_sbu_3, # of connection points: 4
#     Node 11, Type 0, BuildingBlock: QUQFOY_clean_sbu_3, # of connection points: 4
#     Node 12, Type 0, BuildingBlock: QUQFOY_clean_sbu_3, # of connection points: 4
#     Node 13, Type 0, BuildingBlock: QUQFOY_clean_sbu_3, # of connection points: 4
#     Node 14, Type 0, BuildingBlock: QUQFOY_clean_sbu_3, # of connection points: 4
#     Node 15, Type 0, BuildingBlock: QUQFOY_clean_sbu_3, # of connection points: 4
#     Node 16, Type 0, BuildingBlock: QUQFOY_clean_sbu_3, # of connection points: 4
#     Node 17, Type 0, BuildingBlock: QUQFOY_clean_sbu_3, # of connection points: 4
#     Node 18, Type 0, BuildingBlock: QUQFOY_clean_sbu_3, # of connection points: 4
#     Node 19, Type 0, BuildingBlock: QUQFOY_clean_sbu_3, # of connection points: 4
#     Node 20, Type 0, BuildingBlock: QUQFOY_clean_sbu_3, # of connection points: 4
#     Node 21, Type 0, BuildingBlock: QUQFOY_clean_sbu_3, # of connection points: 4
#     Node 22, Type 0, BuildingBlock: QUQFOY_clean_sbu_3, # of connection points: 4
#     Node 23, Type 0, BuildingBlock: QUQFOY_clean_sbu_3, # of connection points: 4
#     Node 24, Type 1, BuildingBlock: KUMJIN_clean_sbu_1, # of connection points: 6
#     Node 25, Type 1, BuildingBlock: KUMJIN_clean_sbu_1, # of connection points: 6
#     Node 26, Type 1, BuildingBlock: KUMJIN_clean_sbu_1, # of connection points: 6
#     Node 27, Type 1, BuildingBlock: KUMJIN_clean_sbu_1, # of connection points: 6
#     Node 28, Type 1, BuildingBlock: KUMJIN_clean_sbu_1, # of connection points: 6
#     Node 29, Type 1, BuildingBlock: KUMJIN_clean_sbu_1, # of connection points: 6
#     Node 30, Type 1, BuildingBlock: KUMJIN_clean_sbu_1, # of connection points: 6
#     Node 31, Type 1, BuildingBlock: KUMJIN_clean_sbu_1, # of connection points: 6
#     Node 32, Type 1, BuildingBlock: KUMJIN_clean_sbu_1, # of connection points: 6
#     Node 33, Type 1, BuildingBlock: KUMJIN_clean_sbu_1, # of connection points: 6
#     Node 34, Type 1, BuildingBlock: KUMJIN_clean_sbu_1, # of connection points: 6
#     Node 35, Type 1, BuildingBlock: KUMJIN_clean_sbu_1, # of connection points: 6
#     Node 36, Type 1, BuildingBlock: KUMJIN_clean_sbu_1, # of connection points: 6
#     Node 37, Type 1, BuildingBlock: KUMJIN_clean_sbu_1, # of connection points: 6
#     Node 38, Type 1, BuildingBlock: KUMJIN_clean_sbu_1, # of connection points: 6
#     Node 39, Type 1, BuildingBlock: KUMJIN_clean_sbu_1, # of connection points: 6
#     Edge 40, Type (0, 1), BuildingBlock: TEMPAE_clean_linker_10, # of connection points: 2
#     Edge 41, Type (0, 1), BuildingBlock: TEMPAE_clean_linker_10, # of connection points: 2
#     Edge 42, Type (0, 1), BuildingBlock: TEMPAE_clean_linker_10, # of connection points: 2
#     Edge 43, Type (0, 1), BuildingBlock: TEMPAE_clean_linker_10, # of connection points: 2
#     Edge 44, Type (0, 1), BuildingBlock: TEMPAE_clean_linker_10, # of connection points: 2
#     Edge 45, Type (0, 1), BuildingBlock: TEMPAE_clean_linker_10, # of connection points: 2
#     Edge 46, Type (0, 1), BuildingBlock: TEMPAE_clean_linker_10, # of connection points: 2
#     Edge 47, Type (0, 1), BuildingBlock: TEMPAE_clean_linker_10, # of connection points: 2
#     Edge 48, Type (0, 1), BuildingBlock: TEMPAE_clean_linker_10, # of connection points: 2
#     Edge 49, Type (0, 1), BuildingBlock: TEMPAE_clean_linker_10, # of connection points: 2
#     Edge 50, Type (0, 1), BuildingBlock: TEMPAE_clean_linker_10, # of connection points: 2
#     Edge 51, Type (0, 1), BuildingBlock: TEMPAE_clean_linker_10, # of connection points: 2
#     Edge 52, Type (0, 1), BuildingBlock: TEMPAE_clean_linker_10, # of connection points: 2
#     Edge 53, Type (0, 1), BuildingBlock: TEMPAE_clean_linker_10, # of connection points: 2
#     Edge 54, Type (0, 1), BuildingBlock: TEMPAE_clean_linker_10, # of connection points: 2
#     Edge 55, Type (0, 1), BuildingBlock: TEMPAE_clean_linker_10, # of connection points: 2
#     Edge 56, Type (0, 1), BuildingBlock: TEMPAE_clean_linker_10, # of connection points: 2
#     Edge 57, Type (0, 1), BuildingBlock: TEMPAE_clean_linker_10, # of connection points: 2
#     Edge 58, Type (0, 1), BuildingBlock: TEMPAE_clean_linker_10, # of connection points: 2
#     Edge 59, Type (0, 1), BuildingBlock: TEMPAE_clean_linker_10, # of connection points: 2
#     Edge 60, Type (0, 1), BuildingBlock: TEMPAE_clean_linker_10, # of connection points: 2
#     Edge 61, Type (0, 1), BuildingBlock: TEMPAE_clean_linker_10, # of connection points: 2
#     Edge 62, Type (0, 1), BuildingBlock: TEMPAE_clean_linker_10, # of connection points: 2
#     Edge 63, Type (0, 1), BuildingBlock: TEMPAE_clean_linker_10, # of connection points: 2
#     Edge 64, Type (0, 1), BuildingBlock: TEMPAE_clean_linker_10, # of connection points: 2
#     Edge 65, Type (0, 1), BuildingBlock: TEMPAE_clean_linker_10, # of connection points: 2
#     Edge 66, Type (0, 1), BuildingBlock: TEMPAE_clean_linker_10, # of connection points: 2
#     Edge 67, Type (0, 1), BuildingBlock: TEMPAE_clean_linker_10, # of connection points: 2
#     Edge 68, Type (0, 1), BuildingBlock: TEMPAE_clean_linker_10, # of connection points: 2
#     Edge 69, Type (0, 1), BuildingBlock: TEMPAE_clean_linker_10, # of connection points: 2
#     Edge 70, Type (0, 1), BuildingBlock: TEMPAE_clean_linker_10, # of connection points: 2
#     Edge 71, Type (0, 1), BuildingBlock: TEMPAE_clean_linker_10, # of connection points: 2
#     Edge 72, Type (0, 1), BuildingBlock: TEMPAE_clean_linker_10, # of connection points: 2
#     Edge 73, Type (0, 1), BuildingBlock: TEMPAE_clean_linker_10, # of connection points: 2
#     Edge 74, Type (0, 1), BuildingBlock: TEMPAE_clean_linker_10, # of connection points: 2
#     Edge 75, Type (0, 1), BuildingBlock: TEMPAE_clean_linker_10, # of connection points: 2
#     Edge 76, Type (0, 1), BuildingBlock: TEMPAE_clean_linker_10, # of connection points: 2
#     Edge 77, Type (0, 1), BuildingBlock: TEMPAE_clean_linker_10, # of connection points: 2
#     Edge 78, Type (0, 1), BuildingBlock: TEMPAE_clean_linker_10, # of connection points: 2
#     Edge 79, Type (0, 1), BuildingBlock: TEMPAE_clean_linker_10, # of connection points: 2
#     Edge 80, Type (0, 1), BuildingBlock: TEMPAE_clean_linker_10, # of connection points: 2
#     Edge 81, Type (0, 1), BuildingBlock: TEMPAE_clean_linker_10, # of connection points: 2
#     Edge 82, Type (0, 1), BuildingBlock: TEMPAE_clean_linker_10, # of connection points: 2
#     Edge 83, Type (0, 1), BuildingBlock: TEMPAE_clean_linker_10, # of connection points: 2
#     Edge 84, Type (0, 1), BuildingBlock: TEMPAE_clean_linker_10, # of connection points: 2
#     Edge 85, Type (0, 1), BuildingBlock: TEMPAE_clean_linker_10, # of connection points: 2
#     Edge 86, Type (0, 1), BuildingBlock: TEMPAE_clean_linker_10, # of connection points: 2
#     Edge 87, Type (0, 1), BuildingBlock: TEMPAE_clean_linker_10, # of connection points: 2
#     Edge 88, Type (0, 1), BuildingBlock: TEMPAE_clean_linker_10, # of connection points: 2
#     Edge 89, Type (0, 1), BuildingBlock: TEMPAE_clean_linker_10, # of connection points: 2
#     Edge 90, Type (0, 1), BuildingBlock: TEMPAE_clean_linker_10, # of connection points: 2
#     Edge 91, Type (0, 1), BuildingBlock: TEMPAE_clean_linker_10, # of connection points: 2
#     Edge 92, Type (0, 1), BuildingBlock: TEMPAE_clean_linker_10, # of connection points: 2
#     Edge 93, Type (0, 1), BuildingBlock: TEMPAE_clean_linker_10, # of connection points: 2
#     Edge 94, Type (0, 1), BuildingBlock: TEMPAE_clean_linker_10, # of connection points: 2
#     Edge 95, Type (0, 1), BuildingBlock: TEMPAE_clean_linker_10, # of connection points: 2
#     Edge 96, Type (0, 1), BuildingBlock: TEMPAE_clean_linker_10, # of connection points: 2
#     Edge 97, Type (0, 1), BuildingBlock: TEMPAE_clean_linker_10, # of connection points: 2
#     Edge 98, Type (0, 1), BuildingBlock: TEMPAE_clean_linker_10, # of connection points: 2
#     Edge 99, Type (0, 1), BuildingBlock: TEMPAE_clean_linker_10, # of connection points: 2
#     Edge 100, Type (0, 1), BuildingBlock: TEMPAE_clean_linker_10, # of connection points: 2
#     Edge 101, Type (0, 1), BuildingBlock: TEMPAE_clean_linker_10, # of connection points: 2
#     Edge 102, Type (0, 1), BuildingBlock: TEMPAE_clean_linker_10, # of connection points: 2
#     Edge 103, Type (0, 1), BuildingBlock: TEMPAE_clean_linker_10, # of connection points: 2
#     Edge 104, Type (0, 1), BuildingBlock: TEMPAE_clean_linker_10, # of connection points: 2
#     Edge 105, Type (0, 1), BuildingBlock: TEMPAE_clean_linker_10, # of connection points: 2
#     Edge 106, Type (0, 1), BuildingBlock: TEMPAE_clean_linker_10, # of connection points: 2
#     Edge 107, Type (0, 1), BuildingBlock: TEMPAE_clean_linker_10, # of connection points: 2
#     Edge 108, Type (0, 1), BuildingBlock: TEMPAE_clean_linker_10, # of connection points: 2
#     Edge 109, Type (0, 1), BuildingBlock: TEMPAE_clean_linker_10, # of connection points: 2
#     Edge 110, Type (0, 1), BuildingBlock: TEMPAE_clean_linker_10, # of connection points: 2
#     Edge 111, Type (0, 1), BuildingBlock: TEMPAE_clean_linker_10, # of connection points: 2
#     Edge 112, Type (0, 1), BuildingBlock: TEMPAE_clean_linker_10, # of connection points: 2
#     Edge 113, Type (0, 1), BuildingBlock: TEMPAE_clean_linker_10, # of connection points: 2
#     Edge 114, Type (0, 1), BuildingBlock: TEMPAE_clean_linker_10, # of connection points: 2
#     Edge 115, Type (0, 1), BuildingBlock: TEMPAE_clean_linker_10, # of connection points: 2
#     Edge 116, Type (0, 1), BuildingBlock: TEMPAE_clean_linker_10, # of connection points: 2
#     Edge 117, Type (0, 1), BuildingBlock: TEMPAE_clean_linker_10, # of connection points: 2
#     Edge 118, Type (0, 1), BuildingBlock: TEMPAE_clean_linker_10, # of connection points: 2
#     Edge 119, Type (0, 1), BuildingBlock: TEMPAE_clean_linker_10, # of connection points: 2
#     Edge 120, Type (0, 1), BuildingBlock: TEMPAE_clean_linker_10, # of connection points: 2
#     Edge 121, Type (0, 1), BuildingBlock: TEMPAE_clean_linker_10, # of connection points: 2
#     Edge 122, Type (0, 1), BuildingBlock: TEMPAE_clean_linker_10, # of connection points: 2
#     Edge 123, Type (0, 1), BuildingBlock: TEMPAE_clean_linker_10, # of connection points: 2
#     Edge 124, Type (0, 1), BuildingBlock: TEMPAE_clean_linker_10, # of connection points: 2
#     Edge 125, Type (0, 1), BuildingBlock: TEMPAE_clean_linker_10, # of connection points: 2
#     Edge 126, Type (0, 1), BuildingBlock: TEMPAE_clean_linker_10, # of connection points: 2
#     Edge 127, Type (0, 1), BuildingBlock: TEMPAE_clean_linker_10, # of connection points: 2
#     Edge 128, Type (0, 1), BuildingBlock: TEMPAE_clean_linker_10, # of connection points: 2
#     Edge 129, Type (0, 1), BuildingBlock: TEMPAE_clean_linker_10, # of connection points: 2
#     Edge 130, Type (0, 1), BuildingBlock: TEMPAE_clean_linker_10, # of connection points: 2
#     Edge 131, Type (0, 1), BuildingBlock: TEMPAE_clean_linker_10, # of connection points: 2
#     Edge 132, Type (0, 1), BuildingBlock: TEMPAE_clean_linker_10, # of connection points: 2
#     Edge 133, Type (0, 1), BuildingBlock: TEMPAE_clean_linker_10, # of connection points: 2
#     Edge 134, Type (0, 1), BuildingBlock: TEMPAE_clean_linker_10, # of connection points: 2
#     Edge 135, Type (0, 1), BuildingBlock: TEMPAE_clean_linker_10, # of connection points: 2
# Relax obj value: 0.066
# Max RMSD: 0.181
# Mean RMSD: 0.107
data_MOF--net-gar--node1-QUQFOY_clean_sbu_3--node2-KUMJIN_clean_sbu_1--edge1-TEMPAE_clean_linker_10
_symmetry_space_group_name_H-M    P1
_symmetry_Int_Tables_number       1
_symmetry_cell_setting            triclinic
loop_
_symmetry_equiv_pos_as_xyz
'x, y, z'
_cell_length_a     61.329355
_cell_length_b     62.523373
_cell_length_c     57.581799
_cell_angle_alpha  96.997183
_cell_angle_beta   96.150106
_cell_angle_gamma 101.49643
loop_
_atom_site_label
_atom_site_type_symbol
_atom_site_fract_x
_atom_site_fract_y
_atom_site_fract_z
_atom_type_partial_charge
C0 C 0.99703 0.311 0.32951 0.0
O1 O 0.009 0.32855 0.32482 0.0
Cd2 Cd 0.04972 0.33649 0.33736 0.0
O3 O 0.00676 0.29861 0.34128 0.0
Cd4 Cd 0.0483 0.30621 0.36241 0.0
C5 C 0.05298 0.36128 0.38963 0.0
O6 O 0.07357 0.30992 0.32856 0.0
O7 O 0.0898 0.30977 0.36353 0.0
O8 O 0.04125 0.26584 0.36448 0.0
C9 C 0.09136 0.30878 0.34166 0.0
O10 O 0.05993 0.36618 0.37058 0.0
C11 C 0.04591 0.26774 0.38678 0.0
O12 O 0.04602 0.34088 0.39128 0.0
O13 O 0.05097 0.28733 0.39779 0.0
C14 C 0.97458 0.74971 0.7233 0.0
O15 O 0.98552 0.74026 0.7373 0.0
Cd16 Cd 0.0194 0.73128 0.72253 0.0
O17 O 0.98321 0.75525 0.70509 0.0
Cd18 Cd 0.02243 0.75493 0.69137 0.0
C19 C 0.01385 0.7005 0.67033 0.0
O20 O 0.05408 0.75889 0.72709 0.0
O21 O 0.06209 0.7524 0.69175 0.0
O22 O 0.02186 0.79405 0.68909 0.0
C23 C 0.06911 0.75707 0.71365 0.0
O24 O 0.01815 0.69959 0.69223 0.0
C25 C 0.025 0.79336 0.6676 0.0
O26 O 0.01162 0.71879 0.66376 0.0
O27 O 0.02696 0.7749 0.65709 0.0
C28 C 0.4967 0.81038 0.82868 0.0
O29 O 0.50887 0.82173 0.81617 0.0
Cd30 Cd 0.54819 0.83409 0.83197 0.0
O31 O 0.50643 0.80362 0.84636 0.0
Cd32 Cd 0.54837 0.80558 0.86392 0.0
C33 C 0.54889 0.85864 0.88793 0.0
O34 O 0.57174 0.8063 0.82899 0.0
O35 O 0.58997 0.81356 0.86398 0.0
O36 O 0.53383 0.76566 0.86547 0.0
C37 C 0.59061 0.80916 0.84202 0.0
O38 O 0.54962 0.86204 0.86668 0.0
C39 C 0.54432 0.7656 0.8857 0.0
O40 O 0.54834 0.83927 0.893 0.0
O41 O 0.55633 0.78391 0.89599 0.0
C42 C 0.47278 0.24838 0.21897 0.0
O43 O 0.47963 0.23159 0.22439 0.0
Cd44 Cd 0.51438 0.23414 0.20579 0.0
O45 O 0.485 0.26071 0.20706 0.0
Cd46 Cd 0.52199 0.25475 0.18961 0.0
C47 C 0.51569 0.20056 0.16471 0.0
O48 O 0.55206 0.25118 0.22507 0.0
O49 O 0.56333 0.26612 0.19549 0.0
O50 O 0.51677 0.29219 0.18437 0.0
C51 C 0.56854 0.26016 0.21518 0.0
O52 O 0.51735 0.19883 0.18645 0.0
C53 C 0.52262 0.29168 0.16385 0.0
O54 O 0.51427 0.21936 0.15888 0.0
O55 O 0.52814 0.27415 0.15523 0.0
C56 C 0.02445 0.78724 0.14459 0.0
O57 O 0.0353 0.77691 0.1577 0.0
Cd58 Cd 0.07093 0.76839 0.15301 0.0
O59 O 0.03235 0.79482 0.12683 0.0
Cd60 Cd 0.06734 0.79856 0.10586 0.0
C61 C 0.06004 0.7391 0.09528 0.0
O62 O 0.09061 0.80209 0.14432 0.0
O63 O 0.10985 0.80165 0.11567 0.0
O64 O 0.05178 0.83334 0.10314 0.0
C65 C 0.1096 0.80198 0.13773 0.0
O66 O 0.06515 0.74089 0.11758 0.0
C67 C 0.06136 0.8406 0.08633 0.0
O68 O 0.05796 0.75631 0.08546 0.0
O69 O 0.07386 0.82853 0.07759 0.0
C70 C 0.45716 0.7664 0.40646 0.0
O71 O 0.4707 0.77829 0.3956 0.0
Cd72 Cd 0.50997 0.79237 0.40607 0.0
O73 O 0.4642 0.7592 0.42533 0.0
Cd74 Cd 0.50338 0.76104 0.45066 0.0
C75 C 0.50921 0.81996 0.46228 0.0
O76 O 0.52289 0.76101 0.41572 0.0
O77 O 0.54474 0.76707 0.44855 0.0
O78 O 0.49104 0.7198 0.45335 0.0
C79 C 0.54268 0.76418 0.42623 0.0
O80 O 0.51176 0.81977 0.44061 0.0
C81 C 0.5025 0.7197 0.4731 0.0
O82 O 0.50538 0.80175 0.47114 0.0
O83 O 0.51277 0.73872 0.48365 0.0
C84 C 0.52629 0.28375 0.64419 0.0
O85 O 0.53724 0.27218 0.6555 0.0
Cd86 Cd 0.57382 0.26661 0.65053 0.0
O87 O 0.53411 0.29348 0.62756 0.0
Cd88 Cd 0.56814 0.29894 0.60504 0.0
C89 C 0.56316 0.23974 0.59191 0.0
O90 O 0.5906 0.30204 0.6436 0.0
O91 O 0.61104 0.30614 0.61615 0.0
O92 O 0.549 0.33133 0.6 0.0
C93 C 0.61017 0.30479 0.63786 0.0
O94 O 0.56857 0.24078 0.61407 0.0
C95 C 0.56071 0.34053 0.58562 0.0
O96 O 0.56037 0.25723 0.583 0.0
O97 O 0.57569 0.33047 0.57914 0.0
C98 C 0.95975 0.2701 0.90682 0.0
O99 O 0.9744 0.28233 0.89751 0.0
Cd100 Cd 0.01382 0.2915 0.90707 0.0
O101 O 0.96561 0.26059 0.92444 0.0
Cd102 Cd 0.00457 0.26117 0.94968 0.0
C103 C 0.01479 0.32064 0.96252 0.0
O104 O 0.02381 0.25826 0.91489 0.0
O105 O 0.04615 0.26916 0.94718 0.0
O106 O 0.99775 0.21964 0.94877 0.0
C107 C 0.04376 0.2626 0.92513 0.0
O108 O 0.01909 0.31966 0.94132 0.0
C109 C 0.00373 0.2188 0.97039 0.0
O110 O 0.00787 0.30257 0.97092 0.0
O111 O 0.00833 0.23749 0.98362 0.0
C112 C 0.41936 0.00534 0.34364 0.0
O113 O 0.42973 0.99813 0.32748 0.0
Cd114 Cd 0.41787 0.99486 0.28696 0.0
O115 O 0.40235 0.01362 0.33939 0.0
Cd116 Cd 0.3797 0.02263 0.30721 0.0
C117 C 0.36393 0.96888 0.29238 0.0
O118 O 0.41018 0.03022 0.28684 0.0
O119 O 0.3791 0.03024 0.26585 0.0
O120 O 0.38076 0.05748 0.32999 0.0
C121 C 0.40026 0.03262 0.26735 0.0
O122 O 0.3831 0.96847 0.28606 0.0
C123 C 0.35967 0.05566 0.32559 0.0
O124 O 0.35852 0.98643 0.30081 0.0
O125 O 0.34812 0.03748 0.31431 0.0
C126 C 0.29564 0.14318 0.52019 0.0
O127 O 0.28138 0.13072 0.52972 0.0
Cd128 Cd 0.24589 0.13666 0.5372 0.0
O129 O 0.29157 0.16045 0.5125 0.0
Cd130 Cd 0.25935 0.17887 0.50686 0.0
C131 C 0.26121 0.19159 0.56559 0.0
O132 O 0.23305 0.1444 0.50021 0.0
O133 O 0.21778 0.17229 0.50496 0.0
O134 O 0.27465 0.18134 0.46974 0.0
C135 C 0.2153 0.1515 0.50129 0.0
O136 O 0.25314 0.17102 0.56467 0.0
C137 C 0.26753 0.1983 0.46537 0.0
O138 O 0.26708 0.19965 0.54728 0.0
O139 O 0.2571 0.20691 0.48064 0.0
C140 C 0.10394 0.04882 0.83465 0.0
O141 O 0.09133 0.05832 0.82249 0.0
Cd142 Cd 0.09965 0.06969 0.785 0.0
O143 O 0.121 0.04352 0.82663 0.0
Cd144 Cd 0.13661 0.04435 0.788 0.0
C145 C 0.15397 0.09938 0.7936 0.0
O146 O 0.10219 0.03805 0.7581 0.0
O147 O 0.1344 0.04554 0.74553 0.0
O148 O 0.14128 0.0076 0.79476 0.0
C149 C 0.11325 0.04038 0.74078 0.0
O150 O 0.13323 0.09928 0.78839 0.0
C151 C 0.1611 0.01038 0.78951 0.0
O152 O 0.16013 0.08158 0.79683 0.0
O153 O 0.16956 0.02888 0.78374 0.0
C154 C 0.33974 0.96395 0.98061 0.0
O155 O 0.32862 0.97837 0.97612 0.0
Cd156 Cd 0.28959 0.96811 0.96376 0.0
O157 O 0.33046 0.94511 0.98454 0.0
Cd158 Cd 0.29704 0.93263 -0.0004 0.0
C159 C 0.28799 0.91417 0.94415 0.0
O160 O 0.27736 0.96042 -0.00025 0.0
O161 O 0.25761 0.92672 0.99196 0.0
O162 O 0.3107 0.93092 0.0401 0.0
C163 C 0.25835 0.94727 0.99533 0.0
O164 O 0.2845 0.93252 0.93886 0.0
C165 C 0.30215 0.91031 0.03759 0.0
O166 O 0.29341 0.91129 0.96509 0.0
O167 O 0.29258 0.90075 0.01732 0.0
C168 C 0.34344 0.42077 0.03936 0.0
O169 O 0.33161 0.43117 0.02744 0.0
Cd170 Cd 0.29228 0.42029 0.01478 0.0
O171 O 0.33465 0.40302 0.04674 0.0
Cd172 Cd 0.29552 0.38101 0.04568 0.0
C173 C 0.28911 0.36747 0.98634 0.0
O174 O 0.27787 0.4125 0.0499 0.0
O175 O 0.25504 0.38091 0.04157 0.0
O176 O 0.3082 0.37739 0.08647 0.0
C177 C 0.25786 0.40158 0.04699 0.0
O178 O 0.28632 0.38707 0.98587 0.0
C179 C 0.29609 0.35825 0.08562 0.0
O180 O 0.29453 0.36086 0.00582 0.0
O181 O 0.28495 0.34911 0.06582 0.0
C182 C 0.80127 0.0975 0.07763 0.0
O183 O 0.78483 0.08229 0.07991 0.0
Cd184 Cd 0.74753 0.08798 0.08117 0.0
O185 O 0.79818 0.11566 0.07195 0.0
Cd186 Cd 0.76771 0.12542 0.0506 0.0
C187 C 0.75932 0.14233 0.10435 0.0
O188 O 0.73737 0.0937 0.04172 0.0
O189 O 0.72992 0.1265 0.04454 0.0
O190 O 0.78018 0.12991 0.01234 0.0
C191 C 0.72317 0.1058 0.0394 0.0
O192 O 0.75061 0.12266 0.10697 0.0
C193 C 0.77996 0.15038 0.0154 0.0
O194 O 0.76723 0.14675 0.08569 0.0
O195 O 0.77619 0.15873 0.03538 0.0
C196 C 0.15492 0.55275 0.28365 0.0
O197 O 0.13899 0.55687 0.27013 0.0
Cd198 Cd 0.13857 0.55878 0.22932 0.0
O199 O 0.1723 0.54794 0.27604 0.0
Cd200 Cd 0.18794 0.54249 0.23905 0.0
C201 C 0.19079 0.59464 0.23895 0.0
O202 O 0.15421 0.52907 0.21677 0.0
O203 O 0.18156 0.53668 0.19634 0.0
O204 O 0.18868 0.50956 0.25076 0.0
C205 C 0.16072 0.52978 0.19679 0.0
O206 O 0.16949 0.59002 0.23395 0.0
C207 C 0.20819 0.50881 0.24592 0.0
O208 O 0.20223 0.5802 0.2423 0.0
O209 O 0.21989 0.52565 0.23927 0.0
C210 C 0.84211 0.91986 0.53607 0.0
O211 O 0.82977 0.92788 0.52188 0.0
Cd212 Cd 0.79015 0.91727 0.5116 0.0
O213 O 0.83399 0.90399 0.5468 0.0
Cd214 Cd 0.79554 0.88096 0.54721 0.0
C215 C 0.78875 0.8639 0.48762 0.0
O216 O 0.7779 0.9119 0.54829 0.0
O217 O 0.75473 0.88056 0.5427 0.0
O218 O 0.80494 0.88034 0.58959 0.0
C219 C 0.7578 0.9014 0.54608 0.0
O220 O 0.78424 0.88258 0.4852 0.0
C221 C 0.79561 0.86018 0.58887 0.0
O222 O 0.79529 0.85932 0.50788 0.0
O223 O 0.78783 0.84932 0.56855 0.0
C224 C 0.96261 0.01175 0.31094 0.0
O225 O 0.97252 0.99954 0.29846 0.0
Cd226 Cd 0.96033 0.98559 0.25732 0.0
O227 O 0.94587 0.01845 0.30163 0.0
Cd228 Cd 0.92593 0.01546 0.26068 0.0
C229 C 0.90555 0.96098 0.25813 0.0
O230 O 0.95838 0.01755 0.23875 0.0
O231 O 0.92577 0.01151 0.21784 0.0
O232 O 0.92438 0.05378 0.27087 0.0
C233 C 0.94693 0.01558 0.21864 0.0
O234 O 0.92503 0.95834 0.25461 0.0
C235 C 0.90353 0.05098 0.2638 0.0
O236 O 0.90147 0.9801 0.26214 0.0
O237 O 0.89299 0.03145 0.25566 0.0
C238 C 0.30154 0.60009 0.57357 0.0
O239 O 0.28701 0.58563 0.58049 0.0
Cd240 Cd 0.24872 0.58937 0.57873 0.0
O241 O 0.29588 0.61562 0.56392 0.0
Cd242 Cd 0.26657 0.63229 0.55237 0.0
C243 C 0.26547 0.64022 0.60995 0.0
O244 O 0.23813 0.60061 0.54151 0.0
O245 O 0.22792 0.63186 0.54915 0.0
O246 O 0.27943 0.63848 0.51536 0.0
C247 C 0.22264 0.61136 0.54161 0.0
O248 O 0.25424 0.62067 0.60941 0.0
C249 C 0.27709 0.65835 0.51784 0.0
O250 O 0.27235 0.64728 0.59174 0.0
O251 O 0.27178 0.66628 0.5373 0.0
C252 C 0.46281 0.50821 0.81051 0.0
O253 O 0.4716 0.49509 0.79788 0.0
Cd254 Cd 0.46137 0.4853 0.75617 0.0
O255 O 0.44749 0.51691 0.8013 0.0
Cd256 Cd 0.42688 0.5141 0.76038 0.0
C257 C 0.40749 0.45917 0.75737 0.0
O258 O 0.45936 0.51825 0.73869 0.0
O259 O 0.42708 0.50617 0.71745 0.0
O260 O 0.42437 0.55249 0.77153 0.0
C261 C 0.44794 0.51386 0.71837 0.0
O262 O 0.42685 0.45711 0.75281 0.0
C263 C 0.40394 0.54987 0.76284 0.0
O264 O 0.40309 0.4781 0.76231 0.0
O265 O 0.39401 0.53052 0.75325 0.0
C266 C 0.65079 0.05278 0.78003 0.0
O267 O 0.63759 0.06023 0.7662 0.0
Cd268 Cd 0.6441 0.06798 0.72868 0.0
O269 O 0.66824 0.04689 0.77382 0.0
Cd270 Cd 0.68588 0.04216 0.73788 0.0
C271 C 0.70058 0.09358 0.74459 0.0
O272 O 0.65299 0.03517 0.71359 0.0
O273 O 0.68206 0.04215 0.69546 0.0
O274 O 0.68298 0.00704 0.74592 0.0
C275 C 0.66088 0.03739 0.69454 0.0
O276 O 0.67987 0.09264 0.73836 0.0
C277 C 0.70263 0.00598 0.74176 0.0
O278 O 0.70858 0.07681 0.74727 0.0
O279 O 0.7151 0.02271 0.73591 0.0
C280 C 0.79631 0.64265 0.01694 0.0
O281 O 0.78181 0.63024 0.02624 0.0
Cd282 Cd 0.74748 0.63875 0.03534 0.0
O283 O 0.79291 0.6608 0.01101 0.0
Cd284 Cd 0.76085 0.67973 0.00854 0.0
C285 C 0.76385 0.69213 0.06681 0.0
O286 O 0.73194 0.64607 -0.00135 0.0
O287 O 0.72028 0.675 0.01113 0.0
O288 O 0.77488 0.68403 0.97124 0.0
C289 C 0.71553 0.65477 0.00241 0.0
O290 O 0.75449 0.67178 0.06528 0.0
C291 C 0.76838 0.70166 0.96859 0.0
O292 O 0.77071 0.70009 0.04888 0.0
O293 O 0.7586 0.70971 0.98484 0.0
C294 C 0.91903 0.5086 0.84059 0.0
O295 O 0.9313 0.50503 0.82478 0.0
Cd296 Cd 0.91968 0.50175 0.78418 0.0
O297 O 0.90015 0.51355 0.83603 0.0
Cd298 Cd 0.87663 0.52091 0.80346 0.0
C299 C 0.86852 0.46794 0.78851 0.0
O300 O 0.90596 0.53394 0.78248 0.0
O301 O 0.87397 0.52365 0.76073 0.0
O302 O 0.87852 0.5548 0.82751 0.0
C303 C 0.89485 0.53187 0.76232 0.0
O304 O 0.88762 0.47151 0.78126 0.0
C305 C 0.85776 0.5545 0.82298 0.0
O306 O 0.86039 0.48307 0.79879 0.0
O307 O 0.84521 0.53716 0.81088 0.0
C308 C 0.84058 0.46631 0.49426 0.0
O309 O 0.83292 0.47798 0.48015 0.0
Cd310 Cd 0.79483 0.46895 0.46326 0.0
O311 O 0.82818 0.45009 0.5008 0.0
Cd312 Cd 0.79222 0.4286 0.49905 0.0
C313 C 0.79319 0.41497 0.44235 0.0
O314 O 0.77739 0.45884 0.49599 0.0
O315 O 0.75319 0.42748 0.48827 0.0
O316 O 0.79331 0.42729 0.54043 0.0
C317 C 0.7573 0.4484 0.49036 0.0
O318 O 0.79303 0.43444 0.43801 0.0
C319 C 0.7929 0.40676 0.53821 0.0
O320 O 0.79361 0.40977 0.4629 0.0
O321 O 0.79227 0.39649 0.51763 0.0
C322 C 0.60144 0.55247 0.33293 0.0
O323 O 0.5904 0.5631 0.32038 0.0
Cd324 Cd 0.59895 0.57257 0.28245 0.0
O325 O 0.61755 0.54488 0.32527 0.0
Cd326 Cd 0.63502 0.54254 0.2879 0.0
C327 C 0.65473 0.59833 0.29247 0.0
O328 O 0.60094 0.53867 0.25906 0.0
O329 O 0.63198 0.5385 0.2446 0.0
O330 O 0.63695 0.50458 0.29302 0.0
C331 C 0.61105 0.53752 0.24097 0.0
O332 O 0.63436 0.59998 0.28847 0.0
C333 C 0.65813 0.50769 0.29366 0.0
O334 O 0.65967 0.57961 0.29369 0.0
O335 O 0.66845 0.52701 0.29174 0.0
Eu336 Eu 0.06167 0.04284 0.04584 0.0
C337 C 0.98469 0.96804 0.98211 0.0
N338 N 0.99785 0.98759 0.97923 0.0
C339 C 0.00187 0.97244 0.93996 0.0
C340 C 0.98027 0.94968 0.96407 0.0
C341 C 0.00582 0.99018 0.95825 0.0
C342 C 0.98927 0.95204 0.94297 0.0
C343 C 0.95967 0.94692 0.00519 0.0
C344 C 0.97433 0.9667 0.00246 0.0
C345 C 0.95617 0.9284 0.98775 0.0
C346 C 0.96634 0.9298 0.96721 0.0
Eu347 Eu 0.00181 0.01667 0.01081 0.0
N348 N 0.97726 0.98505 0.01875 0.0
C349 C 0.94812 0.94661 0.02489 0.0
C350 C 0.96442 0.98533 0.03672 0.0
C351 C 0.95023 0.96601 0.04051 0.0
H352 H 0.01441 0.00608 0.95502 0.0
H353 H 0.94058 0.96623 0.05518 0.0
H354 H 0.0588 0.05657 0.10397 0.0
H355 H 0.11139 0.08918 0.98791 0.0
H356 H 0.9648 1.00054 0.04803 0.0
H357 H 0.93678 0.93173 0.02762 0.0
H358 H 0.08863 0.05641 0.00014 0.0
H359 H 0.0082 0.97464 0.92337 0.0
H360 H 0.94501 0.9131 0.98961 0.0
H361 H 0.96285 0.91556 0.95356 0.0
H362 H 0.07147 0.08888 0.13493 0.0
H363 H 0.98601 0.9384 0.92863 0.0
H364 H 0.12222 0.12422 0.01554 0.0
N365 N 0.0712 0.07345 0.07653 0.0
C366 C 0.08412 0.09209 0.07121 0.0
C367 C 0.07477 0.09017 0.117 0.0
C368 C 0.0922 0.11083 0.08858 0.0
C369 C 0.06717 0.07204 0.09927 0.0
C370 C 0.08713 0.10975 0.11158 0.0
N371 N 0.08395 0.0733 0.03284 0.0
C372 C 0.09207 0.07187 0.01167 0.0
C373 C 0.10462 0.11094 0.04305 0.0
C374 C 0.09058 0.09205 0.04877 0.0
C375 C 0.11155 0.11003 0.02063 0.0
C376 C 0.10543 0.09032 0.00496 0.0
H377 H 0.09326 0.12369 0.12544 0.0
H378 H 0.11205 0.1443 0.09586 0.0
H379 H 0.1226 0.14451 0.0559 0.0
O380 O 0.09425 0.03469 0.04143 0.0
O381 O 0.0481 0.06701 0.02433 0.0
O382 O 0.01005 0.05454 0.023 0.0
O383 O 0.08309 0.03814 0.07651 0.0
O384 O 0.0585 0.02284 0.00918 0.0
O385 O 0.02823 0.03281 0.99058 0.0
O386 O 0.97099 0.02795 0.01597 0.0
O387 O 0.02328 0.99088 0.01817 0.0
O388 O 0.04599 0.0079 0.05262 0.0
O389 O 0.97812 0.0177 0.98006 0.0
O390 O 0.00469 0.01624 0.05007 0.0
O391 O 0.03241 0.04642 0.06624 0.0
C392 C 0.02749 0.07028 0.02101 0.0
C393 C 0.12003 0.03144 0.07522 0.0
C394 C 0.15353 0.01771 0.06989 0.0
C395 C 0.16373 0.02924 0.09221 0.0
C396 C 0.12999 0.04267 0.09758 0.0
C397 C 0.15177 0.04132 0.10615 0.0
C398 C 0.13135 0.01831 0.06206 0.0
C399 C 0.04786 0.02775 0.99018 0.0
C400 C 0.09901 0.03519 0.06417 0.0
C401 C 0.10577 0.12977 0.08275 0.0
C402 C 0.11183 0.12988 0.06001 0.0
C403 C 0.03639 0.98984 0.03772 0.0
C404 C 0.94314 0.02942 0.98332 0.0
C405 C 0.91243 0.04807 0.98808 0.0
C406 C 0.90122 0.0366 0.96611 0.0
C407 C 0.93196 0.0182 0.96138 0.0
C408 C 0.9336 0.04462 0.9963 0.0
C409 C 0.91109 0.0219 0.95278 0.0
C410 C 0.01466 0.03128 0.06792 0.0
C411 C 0.96434 0.02482 0.99326 0.0
H412 H 0.18099 0.0294 0.0987 0.0
H413 H 0.12128 0.05301 0.10797 0.0
H414 H 0.15966 0.05023 0.12326 0.0
H415 H 0.12289 0.009 0.04529 0.0
H416 H 0.88459 0.03846 0.95953 0.0
H417 H 0.93914 0.00631 0.95113 0.0
H418 H 0.94261 0.0536 0.01299 0.0
H419 H 0.90231 0.013 0.936 0.0
Eu420 Eu 0.25903 0.77825 0.30687 0.0
C421 C 0.31275 0.7367 0.2199 0.0
N422 N 0.32088 0.75308 0.23848 0.0
C423 C 0.35467 0.73962 0.24481 0.0
C424 C 0.32513 0.72065 0.2136 0.0
C425 C 0.34162 0.75489 0.25076 0.0
C426 C 0.34636 0.72236 0.22625 0.0
C427 C 0.28195 0.71762 0.18969 0.0
C428 C 0.29145 0.73535 0.20788 0.0
C429 C 0.29425 0.70161 0.18345 0.0
C430 C 0.31581 0.70319 0.19528 0.0
Eu431 Eu 0.29767 0.77802 0.24769 0.0
N432 N 0.27949 0.75059 0.21507 0.0
C433 C 0.2602 0.71625 0.17857 0.0
C434 C 0.25871 0.74986 0.20332 0.0
C435 C 0.24864 0.73256 0.18526 0.0
H436 H 0.34828 0.76827 0.26502 0.0
H437 H 0.23197 0.7319 0.17642 0.0
H438 H 0.20917 0.78869 0.29124 0.0
H439 H 0.32481 0.82167 0.37983 0.0
H440 H 0.24971 0.76257 0.20735 0.0
H441 H 0.25227 0.70279 0.16466 0.0
H442 H 0.30489 0.79012 0.35112 0.0
H443 H 0.37112 0.74113 0.2546 0.0
H444 H 0.28718 0.68786 0.1696 0.0
H445 H 0.32504 0.69064 0.19033 0.0
H446 H 0.18794 0.81778 0.3002 0.0
H447 H 0.35642 0.7104 0.22188 0.0
H448 H 0.30835 0.85441 0.38746 0.0
N449 N 0.23733 0.80428 0.31657 0.0
C450 C 0.24684 0.82174 0.33338 0.0
C451 C 0.2045 0.81912 0.30964 0.0
C452 C 0.23567 0.83904 0.33859 0.0
C453 C 0.21647 0.80264 0.30471 0.0
C454 C 0.2142 0.83748 0.32657 0.0
N455 N 0.27792 0.80516 0.33985 0.0
C456 C 0.29765 0.8044 0.35301 0.0
C457 C 0.27857 0.84069 0.36223 0.0
C458 C 0.26796 0.82244 0.34504 0.0
C459 C 0.29957 0.84065 0.37429 0.0
C460 C 0.30894 0.82224 0.36995 0.0
H461 H 0.20502 0.85037 0.33015 0.0
H462 H 0.23815 0.87095 0.35942 0.0
H463 H 0.27582 0.87248 0.38001 0.0
O464 O 0.25775 0.75123 0.32703 0.0
O465 O 0.26599 0.80966 0.29219 0.0
O466 O 0.29794 0.80212 0.28062 0.0
O467 O 0.22665 0.75827 0.31192 0.0
O468 O 0.29443 0.77068 0.31381 0.0
O469 O 0.318 0.7803 0.28479 0.0
O470 O 0.29735 0.79991 0.22106 0.0
O471 O 0.28405 0.74329 0.2524 0.0
O472 O 0.27366 0.76508 0.27795 0.0
O473 O 0.32944 0.79561 0.23865 0.0
O474 O 0.2623 0.78675 0.24305 0.0
O475 O 0.23873 0.77134 0.26958 0.0
C476 C 0.28401 0.81543 0.28233 0.0
C477 C 0.22796 0.74514 0.34905 0.0
C478 C 0.23328 0.73329 0.38732 0.0
C479 C 0.21481 0.74153 0.39379 0.0
C480 C 0.20941 0.75344 0.35546 0.0
C481 C 0.20289 0.75157 0.37782 0.0
C482 C 0.23965 0.73495 0.36507 0.0
C483 C 0.31432 0.77403 0.30573 0.0
C484 C 0.23602 0.74708 0.32617 0.0
C485 C 0.24635 0.85738 0.35536 0.0
C486 C 0.26781 0.85827 0.36704 0.0
C487 C 0.27318 0.74498 0.26982 0.0
C488 C 0.33121 0.81994 0.20894 0.0
C489 C 0.3312 0.83805 0.17418 0.0
C490 C 0.35449 0.84604 0.17965 0.0
C491 C 0.3545 0.82802 0.21442 0.0
C492 C 0.31955 0.82532 0.18901 0.0
C493 C 0.36605 0.84116 0.19984 0.0
C494 C 0.24218 0.78017 0.24996 0.0
C495 C 0.31919 0.80482 0.22299 0.0
H496 H 0.20953 0.73993 0.41098 0.0
H497 H 0.20004 0.76134 0.34334 0.0
H498 H 0.18855 0.75784 0.38274 0.0
H499 H 0.25379 0.72815 0.36023 0.0
H500 H 0.36367 0.85608 0.16832 0.0
H501 H 0.36378 0.82402 0.2298 0.0
H502 H 0.3016 0.81895 0.18447 0.0
H503 H 0.384 0.84734 0.20403 0.0
Eu504 Eu 0.49809 0.02517 0.54279 0.0
C505 C 0.58374 0.07357 0.49071 0.0
N506 N 0.5685 0.05414 0.48356 0.0
C507 C 0.56302 0.06347 0.44441 0.0
C508 C 0.58836 0.08909 0.47502 0.0
C509 C 0.55913 0.04848 0.46039 0.0
C510 C 0.57738 0.084 0.45184 0.0
C511 C 0.61249 0.09708 0.52062 0.0
C512 C 0.59577 0.07762 0.5134 0.0
C513 C 0.61631 0.11286 0.50532 0.0
C514 C 0.60428 0.10889 0.48262 0.0
Eu515 Eu 0.56261 0.03147 0.5135 0.0
N516 N 0.59174 0.06225 0.52811 0.0
C517 C 0.62539 0.09984 0.54279 0.0
C518 C 0.60517 0.06419 0.54903 0.0
C519 C 0.62202 0.0831 0.55683 0.0
H520 H 0.54888 0.03232 0.45374 0.0
H521 H 0.63258 0.08466 0.57351 0.0
H522 H 0.51424 0.02355 0.60221 0.0
H523 H 0.4346 0.96735 0.47957 0.0
H524 H 0.6032 0.05092 0.55948 0.0
H525 H 0.63849 0.11448 0.54887 0.0
H526 H 0.46139 0.00252 0.49456 0.0
H527 H 0.55517 0.05903 0.42624 0.0
H528 H 0.62894 0.12798 0.51068 0.0
H529 H 0.60783 0.12101 0.47084 0.0
H530 H 0.50771 0.99706 0.62972 0.0
H531 H 0.58049 0.09549 0.43931 0.0
H532 H 0.42833 0.93834 0.50523 0.0
N533 N 0.49482 0.00169 0.57223 0.0
C534 C 0.4798 0.98202 0.56497 0.0
C535 C 0.50007 0.9925 0.61148 0.0
C536 C 0.47506 0.96665 0.5808 0.0
C537 C 0.50415 0.00738 0.59543 0.0
C538 C 0.48568 0.97199 0.60412 0.0
N539 N 0.4725 0.99231 0.52666 0.0
C540 C 0.4599 0.98943 0.5051 0.0
C541 C 0.45234 0.95735 0.53445 0.0
C542 C 0.46825 0.97735 0.54188 0.0
C543 C 0.44066 0.95351 0.51153 0.0
C544 C 0.44424 0.96976 0.49692 0.0
H545 H 0.48237 0.96065 0.61676 0.0
H546 H 0.45574 0.93472 0.58517 0.0
H547 H 0.43605 0.92656 0.54469 0.0
O548 O 0.4706 0.04002 0.52895 0.0
O549 O 0.50641 0.99274 0.52505 0.0
O550 O 0.54158 0.9964 0.51114 0.0
O551 O 0.47338 0.0321 0.56472 0.0
O552 O 0.51502 0.03661 0.51297 0.0
O553 O 0.53288 0.02165 0.48614 0.0
O554 O 0.59154 0.0183 0.52715 0.0
O555 O 0.55398 0.06455 0.52979 0.0
O556 O 0.51918 0.06122 0.54557 0.0
O557 O 0.57826 0.01217 0.48962 0.0
O558 O 0.54516 0.02207 0.5441 0.0
O559 O 0.52721 0.03795 0.57032 0.0
C560 C 0.52231 0.98452 0.5153 0.0
C561 C 0.45667 0.06175 0.55872 0.0
C562 C 0.42927 0.0848 0.55821 0.0
C563 C 0.43925 0.09592 0.58064 0.0
C564 C 0.46702 0.07347 0.58092 0.0
C565 C 0.45823 0.09042 0.59181 0.0
C566 C 0.43808 0.06782 0.5472 0.0
C567 C 0.51415 0.02499 0.49263 0.0
C568 C 0.46282 0.04126 0.54924 0.0
C569 C 0.45947 0.94664 0.57319 0.0
C570 C 0.44822 0.94199 0.55013 0.0
C571 C 0.53834 0.07305 0.54015 0.0
C572 C 0.61529 0.00784 0.49884 0.0
C573 C 0.64527 0.98756 0.4982 0.0
C574 C 0.65207 0.99724 0.47864 0.0
C575 C 0.62257 0.01773 0.47957 0.0
C576 C 0.62698 0.99312 0.50839 0.0
C577 C 0.64088 0.0124 0.46955 0.0
C578 C 0.54606 0.03492 0.56384 0.0
C579 C 0.59325 0.00901 0.50597 0.0
H580 H 0.43239 0.10892 0.58942 0.0
H581 H 0.48139 0.06906 0.59025 0.0
H582 H 0.46591 0.09903 0.60911 0.0
H583 H 0.42984 0.0587 0.53025 0.0
H584 H 0.66613 0.99317 0.47048 0.0
H585 H 0.61355 0.02886 0.47165 0.0
H586 H 0.62108 0.98503 0.52288 0.0
H587 H 0.64614 0.01969 0.4544 0.0
Eu588 Eu 0.31101 0.26942 0.78115 0.0
C589 C 0.22851 0.29968 0.72592 0.0
N590 N 0.24264 0.31065 0.74545 0.0
C591 C 0.24389 0.34495 0.73054 0.0
C592 C 0.22167 0.31111 0.70774 0.0
C593 C 0.25003 0.33299 0.74821 0.0
C594 C 0.22972 0.33397 0.71017 0.0
C595 C 0.20569 0.26528 0.70428 0.0
C596 C 0.22073 0.27693 0.72412 0.0
C597 C 0.19891 0.27665 0.68616 0.0
C598 C 0.20692 0.29947 0.68785 0.0
Eu599 Eu 0.25142 0.28889 0.77427 0.0
N600 N 0.22795 0.2662 0.74169 0.0
C601 C 0.19769 0.24257 0.70337 0.0
C602 C 0.2192 0.24437 0.74151 0.0
C603 C 0.20428 0.23212 0.7222 0.0
H604 H 0.26011 0.34169 0.76433 0.0
H605 H 0.19756 0.21473 0.72207 0.0
H606 H 0.29905 0.21656 0.7914 0.0
H607 H 0.36527 0.34263 0.83452 0.0
H608 H 0.22305 0.23653 0.75651 0.0
H609 H 0.18604 0.23306 0.68848 0.0
H610 H 0.33891 0.32178 0.80023 0.0
H611 H 0.24985 0.36267 0.73278 0.0
H612 H 0.18739 0.26795 0.67078 0.0
H613 H 0.20147 0.30799 0.67374 0.0
H614 H 0.30874 0.19515 0.8227 0.0
H615 H 0.22486 0.34332 0.69658 0.0
H616 H 0.37662 0.3235 0.86748 0.0
N617 N 0.31786 0.24727 0.81019 0.0
C618 C 0.3322 0.25786 0.82974 0.0
C619 C 0.31533 0.21278 0.82495 0.0
C620 C 0.33874 0.24607 0.84771 0.0
C621 C 0.30958 0.22503 0.8074 0.0
C622 C 0.32998 0.22332 0.84518 0.0
N623 N 0.33393 0.29168 0.81426 0.0
C624 C 0.34297 0.3135 0.81482 0.0
C625 C 0.35602 0.29173 0.85152 0.0
C626 C 0.34064 0.28056 0.83172 0.0
C627 C 0.36467 0.31437 0.85263 0.0
C628 C 0.35824 0.32525 0.83411 0.0
H629 H 0.3346 0.2137 0.85861 0.0
H630 H 0.35926 0.2484 0.88137 0.0
H631 H 0.37448 0.28826 0.88462 0.0
O632 O 0.33927 0.28026 0.76143 0.0
O633 O 0.29596 0.27907 0.81449 0.0
O634 O 0.27632 0.30574 0.80606 0.0
O635 O 0.33553 0.24934 0.7753 0.0
O636 O 0.30805 0.29966 0.76395 0.0
O637 O 0.28246 0.317 0.78097 0.0
O638 O 0.22471 0.27801 0.79586 0.0
O639 O 0.2657 0.27903 0.74034 0.0
O640 O 0.28682 0.2535 0.74855 0.0
O641 O 0.22615 0.30807 0.7807 0.0
O642 O 0.25441 0.25798 0.79075 0.0
O643 O 0.28003 0.24188 0.77219 0.0
C644 C 0.28635 0.29542 0.82103 0.0
C645 C 0.35787 0.25288 0.74405 0.0
C646 C 0.38951 0.25482 0.72112 0.0
C647 C 0.38254 0.23205 0.71336 0.0
C648 C 0.35103 0.23019 0.7355 0.0
C649 C 0.36334 0.21991 0.72032 0.0
C650 C 0.37701 0.26527 0.7364 0.0
C651 C 0.30107 0.31758 0.77115 0.0
C652 C 0.34745 0.26277 0.7636 0.0
C653 C 0.35394 0.25723 0.86748 0.0
C654 C 0.3626 0.27996 0.86935 0.0
C655 C 0.27675 0.26383 0.73354 0.0
C656 C 0.20618 0.30506 0.81378 0.0
C657 C 0.17543 0.30467 0.838 0.0
C658 C 0.18501 0.3268 0.84748 0.0
C659 C 0.21536 0.32706 0.82384 0.0
C660 C 0.1863 0.29377 0.82119 0.0
C661 C 0.2048 0.3378 0.84054 0.0
C662 C 0.26216 0.2406 0.78314 0.0
C663 C 0.2155 0.29484 0.79352 0.0
H664 H 0.39202 0.22364 0.70183 0.0
H665 H 0.33658 0.22018 0.74116 0.0
H666 H 0.35819 0.20235 0.71425 0.0
H667 H 0.38272 0.2827 0.74311 0.0
H668 H 0.17726 0.33563 0.86051 0.0
H669 H 0.23042 0.33618 0.81838 0.0
H670 H 0.17888 0.27691 0.81324 0.0
H671 H 0.21186 0.35484 0.84796 0.0
Eu672 Eu 0.04532 0.00105 0.52435 0.0
C673 C 0.01091 0.0825 0.57714 0.0
N674 N 1.00032 0.06853 0.55743 0.0
C675 C 0.96515 0.06562 0.57264 0.0
C676 C 0.99893 0.08839 0.59563 0.0
C677 C 0.97774 0.06031 0.55475 0.0
C678 C 0.9758 0.07965 0.59322 0.0
C679 C 0.04539 0.10539 0.59908 0.0
C680 C 0.03387 0.09079 0.57891 0.0
C681 C 0.03354 0.11121 0.61759 0.0
C682 C 0.01039 0.10271 0.61589 0.0
Eu683 Eu 0.02322 0.05907 0.52911 0.0
N684 N 0.04499 0.08438 0.56098 0.0
C685 C 0.06845 0.11376 0.59995 0.0
C686 C 0.06715 0.09334 0.56119 0.0
C687 C 0.07932 0.1079 0.58078 0.0
H688 H 0.96937 0.0497 0.53876 0.0
H689 H 0.09701 0.11474 0.58099 0.0
H690 H 0.09843 0.01453 0.5115 0.0
H691 H 0.97156 0.94399 0.47448 0.0
H692 H 0.07532 0.08965 0.54611 0.0
H693 H 0.07791 0.12503 0.61511 0.0
H694 H 0.99263 0.97171 0.50748 0.0
H695 H 0.94725 0.05891 0.57055 0.0
H696 H 0.04211 0.12233 0.63326 0.0
H697 H 0.00148 0.10737 0.63031 0.0
H698 H 0.11993 0.00472 0.47948 0.0
H699 H 0.96601 0.0837 0.60707 0.0
H700 H 0.99094 0.93147 0.44151 0.0
N701 N 0.06764 0.99362 0.49468 0.0
C702 C 0.05714 0.97816 0.47602 0.0
C703 C 0.10225 0.99724 0.47823 0.0
C704 C 0.06892 0.97179 0.45754 0.0
C705 C 0.08994 0.00298 0.49622 0.0
C706 C 0.0917 0.98162 0.45879 0.0
N707 N 0.02313 0.97603 0.49274 0.0
C708 C 0.00104 0.96699 0.4929 0.0
C709 C 0.02311 0.95274 0.45614 0.0
C710 C 0.03439 0.96885 0.47523 0.0
C711 C 1.00022 0.94383 0.45588 0.0
C712 C 0.98917 0.95097 0.47437 0.0
H713 H 0.10133 0.97717 0.44494 0.0
H714 H 0.06644 0.95076 0.42411 0.0
H715 H 0.02641 0.93407 0.42292 0.0
O716 O 0.03545 0.97265 0.54377 0.0
O717 O 0.03421 0.0129 0.48954 0.0
O718 O 0.00741 0.03181 0.49949 0.0
O719 O 0.06931 0.98155 0.53419 0.0
O720 O 0.01405 0.00286 0.54179 0.0
O721 O 0.99651 0.02753 0.5242 0.0
O722 O 0.03421 0.08689 0.50964 0.0
O723 O 0.03321 0.04661 0.56389 0.0
O724 O 0.0605 0.02699 0.55604 0.0
O725 O 0.99906 0.07568 0.51277 0.0
O726 O 0.05424 0.05528 0.51193 0.0
O727 O 0.07201 0.03249 0.53208 0.0
C728 C 0.01821 0.02331 0.48368 0.0
C729 C 0.06229 0.94914 0.55357 0.0
C730 C 0.05787 0.91925 0.57771 0.0
C731 C 0.07766 0.91391 0.57085 0.0
C732 C 0.08195 0.94318 0.54701 0.0
C733 C 0.08951 0.92573 0.55557 0.0
C734 C 0.04994 0.93682 0.56881 0.0
C735 C 0.996 0.01018 0.53525 0.0
C736 C 0.05524 0.96794 0.54374 0.0
C737 C 0.05765 0.95585 0.43845 0.0
C738 C 0.03485 0.94632 0.43779 0.0
C739 C 0.04981 0.03729 0.57084 0.0
C740 C 0.00957 0.11202 0.50297 0.0
C741 C 0.01142 0.14421 0.48191 0.0
C742 C 0.99544 0.15098 0.49529 0.0
C743 C 0.99386 0.11952 0.51614 0.0
C744 C 0.01861 0.12466 0.48601 0.0
C745 C 0.98687 0.13882 0.51226 0.0
C746 C 0.07248 0.04962 0.52087 0.0
C747 C 0.01382 0.0896 0.50429 0.0
H748 H 0.08396 0.90044 0.57737 0.0
H749 H 0.09158 0.952 0.53508 0.0
H750 H 0.10469 0.92138 0.55037 0.0
H751 H 0.03467 0.94105 0.57399 0.0
H752 H 0.98958 0.16587 0.49267 0.0
H753 H 0.98644 0.11013 0.52903 0.0
H754 H 0.03037 0.11882 0.47536 0.0
H755 H 0.97448 0.14423 0.52225 0.0
Eu756 Eu 0.28527 0.81169 0.75841 0.0
C757 C 0.23557 0.72946 0.80921 0.0
N758 N 0.25564 0.74393 0.81607 0.0
C759 C 0.24903 0.74631 0.85653 0.0
C760 C 0.22085 0.72393 0.82587 0.0
C761 C 0.26308 0.75127 0.83948 0.0
C762 C 0.22764 0.73295 0.84964 0.0
C763 C 0.21002 0.70297 0.77885 0.0
C764 C 0.2303 0.71882 0.78585 0.0
C765 C 0.19482 0.69856 0.79511 0.0
C766 C 0.20025 0.70894 0.81855 0.0
Eu767 Eu 0.27748 0.75088 0.78538 0.0
N768 N 0.24535 0.72307 0.77033 0.0
C769 C 0.20585 0.69149 0.75584 0.0
C770 C 0.24193 0.71104 0.74831 0.0
C771 C 0.22199 0.69534 0.74063 0.0
H772 H 0.27976 0.76143 0.84491 0.0
H773 H 0.21898 0.68626 0.72298 0.0
H774 H 0.28691 0.79286 0.69972 0.0
H775 H 0.34108 0.88167 0.81485 0.0
H776 H 0.25432 0.71388 0.73655 0.0
H777 H 0.19045 0.67927 0.7498 0.0
H778 H 0.30614 0.85323 0.80219 0.0
H779 H 0.25472 0.75274 0.87497 0.0
H780 H 0.1791 0.68661 0.78991 0.0
H781 H 0.18866 0.70475 0.83106 0.0
H782 H 0.31404 0.79625 0.67157 0.0
H783 H 0.21682 0.72904 0.86292 0.0
H784 H 0.37126 0.88544 0.78941 0.0
N785 N 0.30917 0.81395 0.72829 0.0
C786 C 0.32893 0.82917 0.73416 0.0
C787 C 0.31863 0.80527 0.68928 0.0
C788 C 0.34478 0.83205 0.71811 0.0
C789 C 0.30341 0.803 0.70568 0.0
C790 C 0.33957 0.81953 0.69564 0.0
N791 N 0.31702 0.8405 0.77059 0.0
C792 C 0.31942 0.85454 0.79121 0.0
C793 C 0.35298 0.85903 0.7622 0.0
C794 C 0.33291 0.84284 0.75582 0.0
C795 C 0.35605 0.87284 0.78388 0.0
C796 C 0.33907 0.87075 0.79831 0.0
H797 H 0.35124 0.82137 0.68279 0.0
H798 H 0.37743 0.85005 0.71259 0.0
H799 H 0.38471 0.87344 0.7513 0.0
O800 O 0.26944 0.83974 0.76807 0.0
O801 O 0.3187 0.80561 0.77636 0.0
O802 O 0.31303 0.77303 0.79369 0.0
O803 O 0.27169 0.82827 0.7311 0.0
O804 O 0.28973 0.81187 0.79733 0.0
O805 O 0.26991 0.77945 0.80777 0.0
O806 O 0.28943 0.71974 0.77557 0.0
O807 O 0.24757 0.75598 0.76056 0.0
O808 O 0.2513 0.79394 0.76808 0.0
O809 O 0.2965 0.73822 0.81153 0.0
O810 O 0.29486 0.76545 0.75728 0.0
O811 O 0.27382 0.7807 0.73325 0.0
C812 C 0.32596 0.79133 0.78899 0.0
C813 C 0.25412 0.85937 0.73795 0.0
C814 C 0.23499 0.88945 0.74574 0.0
C815 C 0.23218 0.89099 0.72155 0.0
C816 C 0.25123 0.86118 0.71375 0.0
C817 C 0.24034 0.87694 0.70565 0.0
C818 C 0.24604 0.8737 0.754 0.0
C819 C 0.28188 0.79958 0.81276 0.0
C820 C 0.26531 0.84232 0.74603 0.0
C821 C 0.36503 0.84779 0.72465 0.0
C822 C 0.36915 0.86117 0.74666 0.0
C823 C 0.2388 0.77376 0.76123 0.0
C824 C 0.31168 0.70574 0.80712 0.0
C825 C 0.32907 0.67375 0.8036 0.0
C826 C 0.33631 0.67809 0.82804 0.0
C827 C 0.31909 0.70944 0.8316 0.0
C828 C 0.3169 0.68782 0.79298 0.0
C829 C 0.33135 0.69578 0.84187 0.0
C830 C 0.28384 0.7648 0.73675 0.0
C831 C 0.29901 0.72125 0.79737 0.0
H832 H 0.22363 0.9031 0.71501 0.0
H833 H 0.25733 0.85038 0.701 0.0
H834 H 0.23813 0.87819 0.687 0.0
H835 H 0.24807 0.87251 0.77271 0.0
H836 H 0.34599 0.66774 0.83648 0.0
H837 H 0.31549 0.72302 0.84304 0.0
H838 H 0.31139 0.6847 0.77413 0.0
H839 H 0.337 0.69893 0.86068 0.0
Eu840 Eu 0.53028 0.04674 0.99674 0.0
C841 C 0.58074 0.00176 0.08458 0.0
N842 N 0.56375 0.99281 0.06669 0.0
C843 C 0.57776 0.95966 0.06124 0.0
C844 C 0.59731 0.99004 0.09101 0.0
C845 C 0.56186 0.97196 0.05528 0.0
C846 C 0.59562 0.96876 0.07909 0.0
C847 C 0.59997 0.03301 0.11394 0.0
C848 C 0.58189 0.02295 0.09619 0.0
C849 C 0.61646 0.02134 0.1203 0.0
C850 C 0.61508 0.99989 0.10897 0.0
Eu851 Eu 0.5368 0.01417 0.05916 0.0
N852 N 0.56597 0.03414 0.08919 0.0
C853 C 0.6011 0.05461 0.1246 0.0
C854 C 0.56658 0.05491 0.10028 0.0
C855 C 0.58428 0.06554 0.11781 0.0
H856 H 0.54775 0.96445 0.04205 0.0
H857 H 0.58482 0.08213 0.12623 0.0
H858 H 0.52133 0.09657 0.01334 0.0
H859 H 0.48013 0.97956 0.92954 0.0
H860 H 0.55348 0.06346 0.09606 0.0
H861 H 0.61479 0.06293 0.1382 0.0
H862 H 0.51168 0.99728 0.95953 0.0
H863 H 0.57613 0.94309 0.05217 0.0
H864 H 0.63043 0.02879 0.13393 0.0
H865 H 0.62795 0.99112 0.11409 0.0
H866 H 0.49387 0.11925 0.00355 0.0
H867 H 0.60794 0.95918 0.08362 0.0
H868 H 0.45082 0.99965 0.918 0.0
N869 N 0.50415 0.06867 0.98872 0.0
C870 C 0.48665 0.06005 0.97149 0.0
C871 C 0.49157 0.10259 0.99447 0.0
C872 C 0.4706 0.07241 0.96523 0.0
C873 C 0.50701 0.08967 8e-05 0.0
C874 C 0.47326 0.09392 0.97699 0.0
N875 N 0.50046 0.02729 0.96681 0.0
C876 C 0.49905 0.00637 0.95562 0.0
C877 C 0.46635 0.02916 0.94255 0.0
C878 C 0.48465 0.03872 0.96029 0.0
C879 C 0.46464 0.00757 0.93162 0.0
C880 C 0.48111 0.99618 0.93814 0.0
H881 H 0.46133 0.10396 0.97266 0.0
H882 H 0.44002 0.07225 0.94246 0.0
H883 H 0.43626 0.03434 0.92263 0.0
O884 O 0.54793 0.04863 0.96627 0.0
O885 O 0.5003 0.04122 0.01509 0.0
O886 O 0.50957 0.01115 0.02829 0.0
O887 O 0.55452 0.07716 0.9944 0.0
O888 O 0.53927 0.01226 0.99136 0.0
O889 O 0.532 0.99155 0.0228 0.0
O890 O 0.51639 0.01626 0.08824 0.0
O891 O 0.57084 0.03026 0.05246 0.0
O892 O 0.54713 0.03375 0.02428 0.0
O893 O 0.52275 0.98452 0.07301 0.0
O894 O 0.52685 0.0482 0.06229 0.0
O895 O 0.5393 0.06906 0.03265 0.0
C896 C 0.49575 0.02457 0.02679 0.0
C897 C 0.57477 0.08071 0.96051 0.0
C898 C 0.59305 0.08074 0.92535 0.0
C899 C 0.6017 0.10353 0.93139 0.0
C900 C 0.5837 0.10343 0.96677 0.0
C901 C 0.59721 0.11477 0.95221 0.0
C902 C 0.57991 0.0694 0.94007 0.0
C903 C 0.53656 0.99344 0.00076 0.0
C904 C 0.55874 0.06884 0.97394 0.0
C905 C 0.45249 0.063 0.94752 0.0
C906 C 0.45036 0.04142 0.93622 0.0
C907 C 0.56778 0.03822 0.0334 0.0
C908 C 0.50184 0.98363 0.10594 0.0
C909 C 0.47773 0.98369 0.13668 0.0
C910 C 0.48171 0.96306 0.14109 0.0
C911 C 0.50551 0.96294 0.11035 0.0
C912 C 0.48785 0.99389 0.11902 0.0
C913 C 0.49546 0.95273 0.12788 0.0
C914 C 0.5319 0.06706 0.05335 0.0
C915 C 0.5141 0.9952 0.08914 0.0
H916 H 0.61196 0.11253 0.92006 0.0
H917 H 0.57985 0.11246 0.98254 0.0
H918 H 0.60392 0.13233 0.95688 0.0
H919 H 0.57304 0.05185 0.93504 0.0
H920 H 0.47454 0.9551 0.15505 0.0
H921 H 0.51659 0.9549 0.10066 0.0
H922 H 0.48497 0.00985 0.1156 0.0
H923 H 0.49861 0.93695 0.13149 0.0
Eu924 Eu 0.26742 0.24902 0.25816 0.0
C925 C 0.34611 0.32624 0.31703 0.0
N926 N 0.32674 0.31443 0.32264 0.0
C927 C 0.34358 0.31768 0.36285 0.0
C928 C 0.36494 0.33454 0.33444 0.0
C929 C 0.32531 0.30997 0.34512 0.0
C930 C 0.36345 0.33013 0.35754 0.0
C931 C 0.36686 0.343 0.28782 0.0
C932 C 0.347 0.33053 0.29392 0.0
C933 C 0.38549 0.35144 0.30519 0.0
C934 C 0.3845 0.34729 0.32843 0.0
Eu935 Eu 0.29543 0.3079 0.29299 0.0
N936 N 0.32844 0.32287 0.27754 0.0
C937 C 0.36733 0.34701 0.26449 0.0
C938 C 0.32876 0.32722 0.25494 0.0
C939 C 0.34822 0.33898 0.24796 0.0
H940 H 0.30967 0.30177 0.3498 0.0
H941 H 0.34826 0.34232 0.22995 0.0
H942 H 0.25402 0.25369 0.20083 0.0
H943 H 0.21391 0.2125 0.31963 0.0
H944 H 0.31403 0.32233 0.24232 0.0
H945 H 0.38225 0.35652 0.25913 0.0
H946 H 0.24823 0.23283 0.3077 0.0
H947 H 0.34213 0.3145 0.38075 0.0
H948 H 0.40072 0.36132 0.30086 0.0
H949 H 0.39898 0.35404 0.34166 0.0
H950 H 0.22176 0.2414 0.16954 0.0
H951 H 0.37746 0.33643 0.37143 0.0
H952 H 0.18009 0.19851 0.29014 0.0
N953 N 0.23655 0.24087 0.22766 0.0
C954 C 0.21706 0.22897 0.23288 0.0
C955 C 0.22012 0.238 0.18733 0.0
C956 C 0.19829 0.22102 0.21532 0.0
C957 C 0.2383 0.24539 0.20525 0.0
C958 C 0.20003 0.22571 0.19236 0.0
N959 N 0.23426 0.23218 0.27238 0.0
C960 C 0.23367 0.22774 0.29491 0.0
C961 C 0.19586 0.21207 0.26168 0.0
C962 C 0.2159 0.22444 0.25581 0.0
C963 C 0.19514 0.20794 0.28494 0.0
C964 C 0.21414 0.21586 0.30164 0.0
H965 H 0.18605 0.21976 0.17837 0.0
H966 H 0.16401 0.20207 0.20776 0.0
H967 H 0.16185 0.19434 0.24837 0.0
O968 O 0.27872 0.21928 0.26572 0.0
O969 O 0.24151 0.26949 0.26868 0.0
O970 O 0.25964 0.29516 0.30081 0.0
O971 O 0.26652 0.22266 0.22934 0.0
O972 O 0.2861 0.25126 0.29516 0.0
O973 O 0.28105 0.28332 0.31563 0.0
O974 O 0.28911 0.33994 0.28681 0.0
O975 O 0.31969 0.28517 0.28456 0.0
O976 O 0.30209 0.26501 0.24928 0.0
O977 O 0.29891 0.33412 0.32238 0.0
O978 O 0.27628 0.30667 0.25619 0.0
O979 O 0.28053 0.27422 0.23591 0.0
C980 C 0.24106 0.28409 0.28725 0.0
C981 C 0.27875 0.18904 0.23485 0.0
C982 C 0.29521 0.15794 0.24253 0.0
C983 C 0.2861 0.14718 0.21959 0.0
C984 C 0.26992 0.1783 0.21195 0.0
C985 C 0.27375 0.15748 0.20433 0.0
C986 C 0.29183 0.1791 0.2497 0.0
C987 C 0.28426 0.2632 0.31501 0.0
C988 C 0.27475 0.2107 0.24342 0.0
C989 C 0.17849 0.20846 0.22108 0.0
C990 C 0.17726 0.20404 0.2442 0.0
C991 C 0.32053 0.27335 0.26424 0.0
C992 C 0.27531 0.35901 0.31793 0.0
C993 C 0.25403 0.38707 0.31298 0.0
C994 C 0.24504 0.38365 0.33396 0.0
C995 C 0.26621 0.35536 0.3389 0.0
C996 C 0.26919 0.37486 0.30522 0.0
C997 C 0.25115 0.36776 0.34687 0.0
C998 C 0.27667 0.29406 0.23623 0.0
C999 C 0.29209 0.3476 0.30933 0.0
H1000 H 0.28809 0.13068 0.21355 0.0
H1001 H 0.25997 0.1859 0.20004 0.0
H1002 H 0.26681 0.14915 0.18672 0.0
H1003 H 0.29943 0.18798 0.26694 0.0
H1004 H 0.23338 0.3932 0.34028 0.0
H1005 H 0.27083 0.34317 0.34919 0.0
H1006 H 0.27673 0.37811 0.28942 0.0
H1007 H 0.24434 0.36516 0.36312 0.0
Eu1008 Eu 0.54598 0.50182 0.02452 0.0
C1009 C 0.50891 0.58036 0.07855 0.0
N1010 N 0.49875 0.56572 0.05914 0.0
C1011 C 0.46338 0.5621 0.07399 0.0
C1012 C 0.4965 0.58643 0.09658 0.0
C1013 C 0.47632 0.55665 0.05652 0.0
C1014 C 0.4735 0.57706 0.0941 0.0
C1015 C 0.54282 0.60432 0.10052 0.0
C1016 C 0.53186 0.58915 0.08053 0.0
C1017 C 0.53046 0.61049 0.11842 0.0
C1018 C 0.50739 0.60156 0.11646 0.0
Eu1019 Eu 0.5219 0.55802 0.03052 0.0
N1020 N 0.54351 0.58258 0.06311 0.0
C1021 C 0.56589 0.61289 0.1019 0.0
C1022 C 0.56582 0.59142 0.06405 0.0
C1023 C 0.57741 0.60649 0.08351 0.0
H1024 H 0.46829 0.5455 0.04075 0.0
H1025 H 0.59517 0.61332 0.08422 0.0
H1026 H 0.59907 0.5117 0.01261 0.0
H1027 H 0.4706 0.44738 0.97344 0.0
H1028 H 0.57469 0.58719 0.04974 0.0
H1029 H 0.57492 0.62461 0.11694 0.0
H1030 H 0.49277 0.4725 0.00777 0.0
H1031 H 0.44558 0.55488 0.07187 0.0
H1032 H 0.53861 0.62216 0.13387 0.0
H1033 H 0.49811 0.60646 0.13045 0.0
H1034 H 0.62031 0.50203 0.98023 0.0
H1035 H 0.4634 0.5813 0.10758 0.0
H1036 H 0.48896 0.43665 0.93895 0.0
N1037 N 0.5677 0.49334 0.99467 0.0
C1038 C 0.55659 0.47923 0.97525 0.0
C1039 C 0.60237 0.49564 0.97852 0.0
C1040 C 0.56808 0.47296 0.95647 0.0
C1041 C 0.59028 0.50136 0.9967 0.0
C1042 C 0.59122 0.48143 0.95828 0.0
N1043 N 0.52292 0.47764 0.9924 0.0
C1044 C 0.50076 0.4688 0.99259 0.0
C1045 C 0.5217 0.45631 0.95423 0.0
C1046 C 0.53362 0.47105 0.97412 0.0
C1047 C 0.4987 0.44806 0.95387 0.0
C1048 C 0.48825 0.45417 0.97325 0.0
H1049 H 0.60065 0.47697 0.94425 0.0
H1050 H 0.56477 0.4534 0.92201 0.0
H1051 H 0.52419 0.43881 0.92006 0.0
O1052 O 0.53636 0.47333 0.0436 0.0
O1053 O 0.53567 0.51508 0.99052 0.0
O1054 O 0.50675 0.53109 7e-05 0.0
O1055 O 0.57054 0.48292 0.03514 0.0
O1056 O 0.51494 0.50264 0.04281 0.0
O1057 O 0.49619 0.52578 0.02432 0.0
O1058 O 0.53146 0.5858 0.01023 0.0
O1059 O 0.53242 0.54532 0.06473 0.0
O1060 O 0.56105 0.52818 0.05585 0.0
O1061 O 0.49743 0.57664 0.01918 0.0
O1062 O 0.55328 0.55699 0.01312 0.0
O1063 O 0.57268 0.53356 0.03041 0.0
C1064 C 0.51815 0.52333 0.98431 0.0
C1065 C 0.56346 0.45103 0.05574 0.0
C1066 C 0.55633 0.41922 0.07704 0.0
C1067 C 0.57848 0.41688 0.07585 0.0
C1068 C 0.58556 0.44818 0.05492 0.0
C1069 C 0.59294 0.43125 0.06488 0.0
C1070 C 0.54872 0.43636 0.06691 0.0
C1071 C 0.49643 0.50923 0.03642 0.0
C1072 C 0.55647 0.46927 0.04463 0.0
C1073 C 0.55621 0.45841 0.93659 0.0
C1074 C 0.53309 0.45011 0.93547 0.0
C1075 C 0.54968 0.5368 0.07116 0.0
C1076 C 0.50389 0.60746 0.99698 0.0
C1077 C 0.51011 0.63866 0.97454 0.0
C1078 C 0.48781 0.6405 0.97564 0.0
C1079 C 0.48163 0.60987 0.99761 0.0
C1080 C 0.51825 0.62198 0.98519 0.0
C1081 C 0.47372 0.6262 0.98703 0.0
C1082 C 0.57212 0.55118 0.02003 0.0
C1083 C 0.51129 0.58976 0.0089 0.0
H1084 H 0.5846 0.40383 0.08351 0.0
H1085 H 0.59727 0.45905 0.04649 0.0
H1086 H 0.60999 0.42926 0.06408 0.0
H1087 H 0.53162 0.43824 0.06778 0.0
H1088 H 0.48128 0.65316 0.96764 0.0
H1089 H 0.47017 0.59911 0.0064 0.0
H1090 H 0.53548 0.62049 0.98451 0.0
H1091 H 0.45655 0.62785 0.98774 0.0
Eu1092 Eu 0.78309 0.31062 0.26296 0.0
C1093 C 0.73201 0.23157 0.309 0.0
N1094 N 0.75255 0.24536 0.31633 0.0
C1095 C 0.74371 0.24983 0.35614 0.0
C1096 C 0.71641 0.22708 0.32512 0.0
C1097 C 0.75889 0.25335 0.33988 0.0
C1098 C 0.72229 0.23688 0.3487 0.0
C1099 C 0.70653 0.20486 0.27857 0.0
C1100 C 0.72702 0.22036 0.2858 0.0
C1101 C 0.69088 0.2011 0.29447 0.0
C1102 C 0.69579 0.21216 0.31763 0.0
Eu1103 Eu 0.77668 0.24776 0.28653 0.0
N1104 N 0.74249 0.22376 0.27057 0.0
C1105 C 0.70266 0.19292 0.25576 0.0
C1106 C 0.73949 0.21107 0.24895 0.0
C1107 C 0.7193 0.19588 0.24099 0.0
H1108 H 0.77584 0.26179 0.34684 0.0
H1109 H 0.71668 0.1862 0.22365 0.0
H1110 H 0.78368 0.29803 0.20272 0.0
H1111 H 0.84298 0.37164 0.32734 0.0
H1112 H 0.75266 0.21288 0.23788 0.0
H1113 H 0.68716 0.18087 0.24965 0.0
H1114 H 0.80734 0.34499 0.31271 0.0
H1115 H 0.7488 0.25655 0.3746 0.0
H1116 H 0.67513 0.18922 0.2892 0.0
H1117 H 0.68376 0.20855 0.32985 0.0
H1118 H 0.81073 0.30437 0.17478 0.0
H1119 H 0.71079 0.23375 0.36154 0.0
H1120 H 0.87163 0.37946 0.3007 0.0
N1121 N 0.80632 0.31625 0.23275 0.0
C1122 C 0.82639 0.3308 0.23999 0.0
C1123 C 0.81546 0.31164 0.19313 0.0
C1124 C 0.84208 0.33549 0.22403 0.0
C1125 C 0.80028 0.30768 0.20936 0.0
C1126 C 0.83655 0.32534 0.20054 0.0
N1127 N 0.81605 0.33704 0.27864 0.0
C1128 C 0.81986 0.34789 0.30117 0.0
C1129 C 0.8518 0.3569 0.27091 0.0
C1130 C 0.83123 0.34162 0.26331 0.0
C1131 C 0.85606 0.3676 0.29426 0.0
C1132 C 0.83995 0.36319 0.30938 0.0
H1133 H 0.84818 0.3285 0.18783 0.0
H1134 H 0.87483 0.35413 0.21972 0.0
H1135 H 0.88333 0.37277 0.26069 0.0
O1136 O 0.77345 0.34183 0.27455 0.0
O1137 O 0.81671 0.30167 0.27756 0.0
O1138 O 0.81301 0.26864 0.29451 0.0
O1139 O 0.76152 0.32394 0.239 0.0
O1140 O 0.77151 0.29549 0.29382 0.0
O1141 O 0.78958 0.27593 0.31546 0.0
O1142 O 0.79333 0.22184 0.2725 0.0
O1143 O 0.74619 0.25482 0.26321 0.0
O1144 O 0.74976 0.29221 0.27345 0.0
O1145 O 0.78066 0.22114 0.30607 0.0
O1146 O 0.79139 0.262 0.25619 0.0
O1147 O 0.77246 0.28188 0.23477 0.0
C1148 C 0.82519 0.28695 0.2887 0.0
C1149 C 0.75925 0.36155 0.24522 0.0
C1150 C 0.74099 0.39289 0.24604 0.0
C1151 C 0.75001 0.39801 0.22538 0.0
C1152 C 0.76802 0.36684 0.22462 0.0
C1153 C 0.76337 0.38504 0.21478 0.0
C1154 C 0.74583 0.37457 0.25583 0.0
C1155 C 0.78461 0.29474 0.31272 0.0
C1156 C 0.76115 0.34102 0.25433 0.0
C1157 C 0.86263 0.35046 0.23177 0.0
C1158 C 0.86746 0.36113 0.25509 0.0
C1159 C 0.73749 0.27259 0.26374 0.0
C1160 C 0.81248 0.2067 0.30243 0.0
C1161 C 0.83569 0.17972 0.30496 0.0
C1162 C 0.84678 0.1913 0.32684 0.0
C1163 C 0.82407 0.21857 0.32406 0.0
C1164 C 0.81865 0.18756 0.29274 0.0
C1165 C 0.84113 0.2108 0.3362 0.0
C1166 C 0.77943 0.26381 0.23675 0.0
C1167 C 0.79217 0.21236 0.29141 0.0
H1168 H 0.74693 0.41215 0.21745 0.0
H1169 H 0.77802 0.3567 0.21591 0.0
H1170 H 0.76999 0.38903 0.19878 0.0
H1171 H 0.73845 0.36982 0.27122 0.0
H1172 H 0.85992 0.18534 0.33654 0.0
H1173 H 0.81949 0.23342 0.33189 0.0
H1174 H 0.80958 0.17826 0.27619 0.0
H1175 H 0.84974 0.21972 0.35305 0.0
Eu1176 Eu 0.02716 0.54914 0.49576 0.0
C1177 C 0.07421 0.50145 0.58474 0.0
N1178 N 0.05576 0.49171 0.5691 0.0
C1179 C 0.06874 0.45796 0.56447 0.0
C1180 C 0.09108 0.48987 0.5905 0.0
C1181 C 0.05254 0.47019 0.55926 0.0
C1182 C 0.0882 0.4679 0.58001 0.0
C1183 C 0.09478 0.53344 0.61197 0.0
C1184 C 0.07599 0.52294 0.59522 0.0
C1185 C 0.11197 0.52225 0.61728 0.0
C1186 C 0.11012 0.50049 0.60659 0.0
Eu1187 Eu 0.0305 0.5137 0.55833 0.0
N1188 N 0.05905 0.53329 0.58956 0.0
C1189 C 0.09554 0.55474 0.62321 0.0
C1190 C 0.05924 0.55362 0.60159 0.0
C1191 C 0.07752 0.5647 0.61827 0.0
H1192 H 0.03758 0.46252 0.5471 0.0
H1193 H 0.0776 0.58091 0.62743 0.0
H1194 H 0.01695 0.59958 0.51343 0.0
H1195 H 0.98882 0.49184 0.41583 0.0
H1196 H 0.04539 0.56153 0.59894 0.0
H1197 H 0.10966 0.56337 0.63616 0.0
H1198 H 0.01949 0.51042 0.44773 0.0
H1199 H 0.06626 0.44094 0.55639 0.0
H1200 H 0.1266 0.53014 0.62993 0.0
H1201 H 0.12336 0.49194 0.61109 0.0
H1202 H 0.98664 0.61967 0.50696 0.0
H1203 H 0.10078 0.45843 0.58396 0.0
H1204 H 0.95452 0.50682 0.40975 0.0
N1205 N 0.00089 0.57163 0.48828 0.0
C1206 C 0.98358 0.56308 0.4707 0.0
C1207 C 0.9854 0.6036 0.49685 0.0
C1208 C 0.96577 0.5739 0.46642 0.0
C1209 C 0.00246 0.59203 0.5007 0.0
C1210 C 0.96675 0.59431 0.47995 0.0
N1211 N 0.00183 0.53419 0.46078 0.0
C1212 C 0.00428 0.51655 0.44567 0.0
C1213 C 0.96634 0.53412 0.4382 0.0
C1214 C 0.98401 0.54369 0.45653 0.0
C1215 C 0.96783 0.51483 0.42389 0.0
C1216 C 0.98712 0.50628 0.42733 0.0
H1217 H 0.9535 0.60324 0.47713 0.0
H1218 H 0.93376 0.57204 0.44533 0.0
H1219 H 0.9341 0.53698 0.42085 0.0
O1220 O 0.05368 0.54824 0.47391 0.0
O1221 O 0.99316 0.52985 0.49875 0.0
O1222 O 0.01426 0.52652 0.5296 0.0
O1223 O 0.04604 0.57963 0.48656 0.0
O1224 O 0.03164 0.51261 0.49005 0.0
O1225 O 0.02719 0.49195 0.52224 0.0
O1226 O 0.00843 0.51353 0.58496 0.0
O1227 O 0.06207 0.52004 0.54221 0.0
O1228 O 0.05067 0.54827 0.52829 0.0
O1229 O 0.00609 0.48337 0.56091 0.0
O1230 O 0.02256 0.54846 0.56352 0.0
O1231 O 0.02744 0.56976 0.53221 0.0
C1232 C 0.99455 0.52134 0.51784 0.0
C1233 C 0.06518 0.57788 0.45278 0.0
C1234 C 0.08443 0.57382 0.4185 0.0
C1235 C 0.08329 0.59535 0.41477 0.0
C1236 C 0.06418 0.59952 0.44908 0.0
C1237 C 0.07319 0.60816 0.43008 0.0
C1238 C 0.07546 0.56515 0.43742 0.0
C1239 C 0.0301 0.49402 0.49984 0.0
C1240 C 0.05859 0.56954 0.47426 0.0
C1241 C 0.94777 0.56415 0.44862 0.0
C1242 C 0.94798 0.54421 0.43465 0.0
C1243 C 0.06493 0.53537 0.52872 0.0
C1244 C 0.99293 0.48047 0.59858 0.0
C1245 C 0.97784 0.48089 0.63611 0.0
C1246 C 0.97387 0.45769 0.63303 0.0
C1247 C 0.98872 0.45736 0.59566 0.0
C1248 C 0.98797 0.49206 0.61908 0.0
C1249 C 0.97953 0.44608 0.61304 0.0
C1250 C 0.0236 0.56719 0.55425 0.0
C1251 C 0.99887 0.49274 0.57918 0.0
H1252 H 0.09055 0.6023 0.40028 0.0
H1253 H 0.05694 0.60992 0.46114 0.0
H1254 H 0.07266 0.6249 0.42743 0.0
H1255 H 0.077 0.54868 0.4404 0.0
H1256 H 0.96567 0.44846 0.64558 0.0
H1257 H 0.99195 0.44803 0.57976 0.0
H1258 H 0.99115 0.50992 0.62133 0.0
H1259 H 0.97605 0.42823 0.61063 0.0
Eu1260 Eu 0.81018 0.76966 0.28132 0.0
C1261 C 0.72942 0.80159 0.22542 0.0
N1262 N 0.74281 0.81234 0.24543 0.0
C1263 C 0.74559 0.84666 0.23018 0.0
C1264 C 0.72418 0.81293 0.20655 0.0
C1265 C 0.75015 0.83466 0.2484 0.0
C1266 C 0.73282 0.83569 0.20899 0.0
C1267 C 0.70509 0.76789 0.20439 0.0
C1268 C 0.72019 0.77933 0.22426 0.0
C1269 C 0.70049 0.77888 0.18515 0.0
C1270 C 0.71006 0.80135 0.18621 0.0
Eu1271 Eu 0.75095 0.79065 0.27486 0.0
N1272 N 0.72516 0.76913 0.24309 0.0
C1273 C 0.6944 0.74602 0.20489 0.0
C1274 C 0.71332 0.74861 0.24453 0.0
C1275 C 0.69812 0.73653 0.2253 0.0
H1276 H 0.75871 0.84325 0.26518 0.0
H1277 H 0.68896 0.72009 0.22637 0.0
H1278 H 0.79893 0.71661 0.29043 0.0
H1279 H 0.86257 0.84293 0.33692 0.0
H1280 H 0.71507 0.74189 0.2608 0.0
H1281 H 0.68252 0.73669 0.19009 0.0
H1282 H 0.8365 0.82253 0.30242 0.0
H1283 H 0.75163 0.86438 0.23264 0.0
H1284 H 0.6891 0.7703 0.16963 0.0
H1285 H 0.70598 0.80974 0.17146 0.0
H1286 H 0.80923 0.6946 0.32097 0.0
H1287 H 0.72914 0.84503 0.19495 0.0
H1288 H 0.87507 0.82309 0.36873 0.0
N1289 N 0.81777 0.74709 0.30964 0.0
C1290 C 0.83209 0.75747 0.32928 0.0
C1291 C 0.8157 0.71226 0.32355 0.0
C1292 C 0.83895 0.74538 0.34681 0.0
C1293 C 0.80965 0.72482 0.30644 0.0
C1294 C 0.83046 0.72255 0.34378 0.0
N1295 N 0.83283 0.79168 0.31489 0.0
C1296 C 0.84105 0.81379 0.31638 0.0
C1297 C 0.85526 0.79127 0.35185 0.0
C1298 C 0.84001 0.78028 0.33186 0.0
C1299 C 0.86323 0.81408 0.35373 0.0
C1300 C 0.85615 0.82536 0.33587 0.0
H1301 H 0.83532 0.71271 0.35689 0.0
H1302 H 0.85969 0.74728 0.38023 0.0
H1303 H 0.87408 0.78736 0.38454 0.0
O1304 O 0.83804 0.78014 0.26084 0.0
O1305 O 0.79444 0.77712 0.3147 0.0
O1306 O 0.77754 0.80517 0.30604 0.0
O1307 O 0.83426 0.74923 0.27467 0.0
O1308 O 0.80904 0.80107 0.26547 0.0
O1309 O 0.78261 0.81792 0.28166 0.0
O1310 O 0.72354 0.78157 0.29674 0.0
O1311 O 0.76546 0.78144 0.24081 0.0
O1312 O 0.78497 0.7548 0.24923 0.0
O1313 O 0.73072 0.81397 0.28533 0.0
O1314 O 0.75134 0.75773 0.28856 0.0
O1315 O 0.77888 0.74227 0.27226 0.0
C1316 C 0.78531 0.79374 0.32131 0.0
C1317 C 0.85674 0.75267 0.24339 0.0
C1318 C 0.8881 0.755 0.21986 0.0
C1319 C 0.88192 0.73201 0.21313 0.0
C1320 C 0.85085 0.72975 0.23589 0.0
C1321 C 0.86339 0.71958 0.22093 0.0
C1322 C 0.87527 0.76535 0.23492 0.0
C1323 C 0.80108 0.8187 0.2716 0.0
C1324 C 0.84613 0.76258 0.26286 0.0
C1325 C 0.85411 0.75634 0.36669 0.0
C1326 C 0.86229 0.77919 0.36916 0.0
C1327 C 0.77579 0.76561 0.23411 0.0
C1328 C 0.6998 0.80793 0.30841 0.0
C1329 C 0.66908 0.80249 0.33263 0.0
C1330 C 0.66544 0.82345 0.32943 0.0
C1331 C 0.69559 0.82886 0.30565 0.0
C1332 C 0.6863 0.79459 0.32199 0.0
C1333 C 0.67857 0.83648 0.31603 0.0
C1334 C 0.76033 0.74074 0.28222 0.0
C1335 C 0.71818 0.80074 0.29667 0.0
H1336 H 0.8915 0.7236 0.20173 0.0
H1337 H 0.83697 0.7195 0.2422 0.0
H1338 H 0.85896 0.70187 0.21569 0.0
H1339 H 0.88033 0.78295 0.24091 0.0
H1340 H 0.6523 0.82975 0.33736 0.0
H1341 H 0.70546 0.83949 0.29533 0.0
H1342 H 0.68919 0.77841 0.32437 0.0
H1343 H 0.67555 0.85261 0.31368 0.0
Eu1344 Eu 0.76067 0.28313 0.80947 0.0
C1345 C 0.81027 0.23864 0.7194 0.0
N1346 N 0.82055 0.25623 0.73577 0.0
C1347 C 0.85422 0.24218 0.73903 0.0
C1348 C 0.82137 0.22158 0.71283 0.0
C1349 C 0.84238 0.25849 0.74519 0.0
C1350 C 0.84357 0.22347 0.72302 0.0
C1351 C 0.77764 0.22004 0.69155 0.0
C1352 C 0.78875 0.23798 0.70888 0.0
C1353 C 0.78822 0.20253 0.68567 0.0
C1354 C 0.81009 0.20334 0.69622 0.0
Eu1355 Eu 0.79866 0.28154 0.74821 0.0
N1356 N 0.77898 0.2552 0.71511 0.0
C1357 C 0.75642 0.22044 0.68028 0.0
C1358 C 0.75912 0.25641 0.70262 0.0
C1359 C 0.74734 0.23893 0.68549 0.0
H1360 H 0.85077 0.27304 0.75726 0.0
H1361 H 0.73136 0.23985 0.67613 0.0
H1362 H 0.70852 0.28958 0.79318 0.0
H1363 H 0.8253 0.33145 0.88018 0.0
H1364 H 0.75225 0.27088 0.70522 0.0
H1365 H 0.74729 0.20697 0.66695 0.0
H1366 H 0.80954 0.30209 0.84716 0.0
H1367 H 0.87152 0.24404 0.74668 0.0
H1368 H 0.77983 0.18852 0.67262 0.0
H1369 H 0.81824 0.18994 0.69118 0.0
H1370 H 0.6842 0.31525 0.80383 0.0
H1371 H 0.85272 0.21078 0.71837 0.0
H1372 H 0.80255 0.35767 0.89405 0.0
N1373 N 0.73557 0.30569 0.81976 0.0
C1374 C 0.74312 0.32212 0.83833 0.0
C1375 C 0.70075 0.3174 0.81363 0.0
C1376 C 0.72979 0.33723 0.84492 0.0
C1377 C 0.71463 0.30297 0.80757 0.0
C1378 C 0.7084 0.33468 0.8323 0.0
N1379 N 0.77748 0.31029 0.84262 0.0
C1380 C 0.79899 0.31266 0.85331 0.0
C1381 C 0.77325 0.34195 0.86885 0.0
C1382 C 0.76456 0.32437 0.85027 0.0
C1383 C 0.79526 0.34434 0.87981 0.0
C1384 C 0.80815 0.32959 0.87202 0.0
H1385 H 0.69769 0.34597 0.83679 0.0
H1386 H 0.72837 0.36642 0.86873 0.0
H1387 H 0.76644 0.3706 0.8896 0.0
O1388 O 0.76203 0.25685 0.8308 0.0
O1389 O 0.77785 0.31747 0.807 0.0
O1390 O 0.79024 0.29704 0.78104 0.0
O1391 O 0.72985 0.2633 0.81786 0.0
O1392 O 0.79568 0.27381 0.8147 0.0
O1393 O 0.81896 0.28137 0.7847 0.0
O1394 O 0.79995 0.30917 0.72865 0.0
O1395 O 0.78652 0.24855 0.75838 0.0
O1396 O 0.76147 0.26412 0.77462 0.0
O1397 O 0.8309 0.30061 0.74198 0.0
O1398 O 0.76403 0.29131 0.74217 0.0
O1399 O 0.74141 0.28537 0.77298 0.0
C1400 C 0.78976 0.31678 0.79006 0.0
C1401 C 0.73337 0.25046 0.85487 0.0
C1402 C 0.73648 0.23436 0.89099 0.0
C1403 C 0.71915 0.2439 0.89862 0.0
C1404 C 0.71616 0.26022 0.8627 0.0
C1405 C 0.70915 0.25693 0.88455 0.0
C1406 C 0.74359 0.23774 0.86924 0.0
C1407 C 0.8152 0.27536 0.80583 0.0
C1408 C 0.74045 0.25252 0.83154 0.0
C1409 C 0.73832 0.35458 0.86356 0.0
C1410 C 0.75998 0.35695 0.87547 0.0
C1411 C 0.77123 0.24771 0.77229 0.0
C1412 C 0.82866 0.31317 0.70481 0.0
C1413 C 0.82331 0.32509 0.66665 0.0
C1414 C 0.84091 0.31569 0.6596 0.0
C1415 C 0.84631 0.30365 0.69778 0.0
C1416 C 0.81728 0.32388 0.6891 0.0
C1417 C 0.85234 0.30493 0.67517 0.0
C1418 C 0.74491 0.29073 0.75161 0.0
C1419 C 0.82152 0.31214 0.72819 0.0
H1420 H 0.71343 0.24127 0.91541 0.0
H1421 H 0.70801 0.27018 0.85196 0.0
H1422 H 0.69582 0.26433 0.89048 0.0
H1423 H 0.75674 0.22997 0.86328 0.0
H1424 H 0.84601 0.31708 0.6423 0.0
H1425 H 0.85542 0.29531 0.70965 0.0
H1426 H 0.80395 0.33169 0.69447 0.0
H1427 H 0.86604 0.29779 0.66982 0.0
Eu1428 Eu 0.76572 0.74726 0.75969 0.0
C1429 C 0.84539 0.82697 0.81402 0.0
N1430 N 0.82619 0.81552 0.82048 0.0
C1431 C 0.84442 0.81929 0.86028 0.0
C1432 C 0.86504 0.83452 0.83053 0.0
C1433 C 0.8254 0.81218 0.84338 0.0
C1434 C 0.8644 0.83034 0.8538 0.0
C1435 C 0.86452 0.84502 0.78443 0.0
C1436 C 0.84509 0.8325 0.79127 0.0
C1437 C 0.88424 0.85184 0.80063 0.0
C1438 C 0.88445 0.84674 0.82364 0.0
Eu1439 Eu 0.79392 0.80883 0.79178 0.0
N1440 N 0.82559 0.82627 0.77606 0.0
C1441 C 0.86337 0.85099 0.76175 0.0
C1442 C 0.82399 0.83344 0.75463 0.0
C1443 C 0.84294 0.84536 0.74687 0.0
H1444 H 0.80982 0.80547 0.84909 0.0
H1445 H 0.84164 0.85066 0.72966 0.0
H1446 H 0.75423 0.75616 0.70263 0.0
H1447 H 0.71044 0.70964 0.8184 0.0
H1448 H 0.80801 0.83064 0.74388 0.0
H1449 H 0.87794 0.86055 0.75585 0.0
H1450 H 0.74536 0.73143 0.80848 0.0
H1451 H 0.84347 0.8168 0.87846 0.0
H1452 H 0.89927 0.86157 0.79571 0.0
H1453 H 0.89962 0.85269 0.83613 0.0
H1454 H 0.72243 0.74535 0.67094 0.0
H1455 H 0.87902 0.83618 0.86705 0.0
H1456 H 0.67751 0.69641 0.78761 0.0
N1457 N 0.73578 0.74283 0.72886 0.0
C1458 C 0.71601 0.73061 0.73327 0.0
C1459 C 0.72031 0.7414 0.68846 0.0
C1460 C 0.69762 0.72329 0.71517 0.0
C1461 C 0.73821 0.74805 0.70676 0.0
C1462 C 0.69996 0.72894 0.69265 0.0
N1463 N 0.73217 0.73167 0.77307 0.0
C1464 C 0.73103 0.72634 0.79521 0.0
C1465 C 0.69403 0.71176 0.76053 0.0
C1466 C 0.71423 0.72474 0.7558 0.0
C1467 C 0.69274 0.70632 0.78331 0.0
C1468 C 0.71127 0.71379 0.80076 0.0
H1469 H 0.68628 0.72345 0.67827 0.0
H1470 H 0.66348 0.70423 0.70608 0.0
H1471 H 0.6603 0.69432 0.74575 0.0
O1472 O 0.7678 0.71374 0.76534 0.0
O1473 O 0.74054 0.76838 0.77112 0.0
O1474 O 0.75876 0.79652 0.80118 0.0
O1475 O 0.76355 0.72178 0.72988 0.0
O1476 O 0.78378 0.75033 0.79683 0.0
O1477 O 0.78272 0.78459 0.81642 0.0
O1478 O 0.78384 0.8388 0.78369 0.0
O1479 O 0.81883 0.79148 0.77422 0.0
O1480 O 0.80381 0.75445 0.75995 0.0
O1481 O 0.79894 0.83706 0.81912 0.0
O1482 O 0.77238 0.80269 0.75601 0.0
O1483 O 0.781 0.77174 0.73731 0.0
C1484 C 0.74025 0.7843 0.7885 0.0
C1485 C 0.78274 0.69335 0.73567 0.0
C1486 C 0.80414 0.6657 0.74395 0.0
C1487 C 0.81147 0.66597 0.72166 0.0
C1488 C 0.79011 0.69337 0.71336 0.0
C1489 C 0.8044 0.67971 0.70645 0.0
C1490 C 0.78962 0.6793 0.75071 0.0
C1491 C 0.78328 0.76367 0.81617 0.0
C1492 C 0.76681 0.7068 0.74284 0.0
C1493 C 0.67765 0.71016 0.71987 0.0
C1494 C 0.67584 0.70447 0.74246 0.0
C1495 C 0.82076 0.77175 0.76481 0.0
C1496 C 0.77358 0.86035 0.81541 0.0
C1497 C 0.75329 0.8891 0.81164 0.0
C1498 C 0.74725 0.88801 0.83431 0.0
C1499 C 0.76728 0.85865 0.83803 0.0
C1500 C 0.76624 0.87529 0.80231 0.0
C1501 C 0.75403 0.87249 0.84739 0.0
C1502 C 0.77689 0.79144 0.73707 0.0
C1503 C 0.78941 0.84855 0.80551 0.0
H1504 H 0.82278 0.6557 0.71605 0.0
H1505 H 0.78473 0.70376 0.70115 0.0
H1506 H 0.80999 0.67977 0.68925 0.0
H1507 H 0.7833 0.67864 0.76755 0.0
H1508 H 0.73741 0.89905 0.84175 0.0
H1509 H 0.77291 0.84709 0.84858 0.0
H1510 H 0.77145 0.8769 0.78502 0.0
H1511 H 0.74939 0.87147 0.86489 0.0
Eu1512 Eu 0.56218 0.54392 0.54609 0.0
C1513 C 0.48565 0.46769 0.48695 0.0
N1514 N 0.4976 0.48705 0.48202 0.0
C1515 C 0.49632 0.47097 0.44177 0.0
C1516 C 0.4784 0.44921 0.46916 0.0
C1517 C 0.50292 0.48896 0.45982 0.0
C1518 C 0.48393 0.45105 0.44642 0.0
C1519 C 0.46717 0.44672 0.51497 0.0
C1520 C 0.48001 0.46648 0.5097 0.0
C1521 C 0.45995 0.42838 0.49724 0.0
C1522 C 0.46548 0.42964 0.47441 0.0
Eu1523 Eu 0.50263 0.51728 0.5123 0.0
N1524 N 0.48652 0.48472 0.52645 0.0
C1525 C 0.46139 0.44612 0.53778 0.0
C1526 C 0.47987 0.48447 0.54828 0.0
C1527 C 0.46773 0.46511 0.55448 0.0
H1528 H 0.51123 0.5046 0.45558 0.0
H1529 H 0.46263 0.46507 0.57191 0.0
H1530 H 0.55261 0.55766 0.60221 0.0
H1531 H 0.6098 0.5924 0.48896 0.0
H1532 H 0.48279 0.49931 0.56059 0.0
H1533 H 0.45152 0.43127 0.54248 0.0
H1534 H 0.58785 0.55903 0.50066 0.0
H1535 H 0.50031 0.47265 0.42413 0.0
H1536 H 0.44983 0.41319 0.50093 0.0
H1537 H 0.45955 0.41539 0.46088 0.0
H1538 H 0.56362 0.58983 0.6333 0.0
H1539 H 0.47848 0.43728 0.43226 0.0
H1540 H 0.61902 0.62726 0.51683 0.0
N1541 N 0.56688 0.57464 0.57569 0.0
C1542 C 0.57948 0.59366 0.57074 0.0
C1543 C 0.56787 0.59123 0.6157 0.0
C1544 C 0.58681 0.61227 0.58837 0.0
C1545 C 0.56118 0.57312 0.59782 0.0
C1546 C 0.58074 0.61088 0.61098 0.0
N1547 N 0.58023 0.57563 0.53205 0.0
C1548 C 0.58944 0.57459 0.51155 0.0
C1549 C 0.60033 0.61337 0.54332 0.0
C1550 C 0.5862 0.59421 0.54834 0.0
C1551 C 0.60808 0.61292 0.5213 0.0
C1552 C 0.60279 0.59334 0.50544 0.0
H1553 H 0.5863 0.62473 0.62505 0.0
H1554 H 0.60653 0.64574 0.59663 0.0
H1555 H 0.61829 0.64672 0.55725 0.0
O1556 O 0.59488 0.5382 0.53973 0.0
O1557 O 0.54002 0.56912 0.539 0.0
O1558 O 0.51558 0.55279 0.50537 0.0
O1559 O 0.58864 0.54728 0.57564 0.0
O1560 O 0.55956 0.52629 0.50823 0.0
O1561 O 0.52712 0.53294 0.48978 0.0
O1562 O 0.47006 0.52329 0.51953 0.0
O1563 O 0.52486 0.49219 0.51999 0.0
O1564 O 0.54939 0.50861 0.55348 0.0
O1565 O 0.4755 0.51359 0.48358 0.0
O1566 O 0.50498 0.53515 0.54993 0.0
O1567 O 0.53747 0.52864 0.56833 0.0
C1568 C 0.52626 0.57053 0.52019 0.0
C1569 C 0.6203 0.53154 0.57092 0.0
C1570 C 0.65023 0.51315 0.56221 0.0
C1571 C 0.65912 0.51729 0.58625 0.0
C1572 C 0.6292 0.53569 0.59495 0.0
C1573 C 0.64843 0.52834 0.60259 0.0
C1574 C 0.63059 0.51981 0.55481 0.0
C1575 C 0.54746 0.52969 0.4893 0.0
C1576 C 0.60321 0.54286 0.56204 0.0
C1577 C 0.60059 0.6314 0.58321 0.0
C1578 C 0.60726 0.63197 0.56076 0.0
C1579 C 0.53827 0.49076 0.5391 0.0
C1580 C 0.44848 0.53516 0.48895 0.0
C1581 C 0.4205 0.55657 0.49632 0.0
C1582 C 0.41913 0.56098 0.47297 0.0
C1583 C 0.4473 0.53978 0.46557 0.0
C1584 C 0.43512 0.54374 0.50417 0.0
C1585 C 0.4327 0.55273 0.4577 0.0
C1586 C 0.51735 0.53243 0.56901 0.0
C1587 C 0.46171 0.5198 0.49722 0.0
H1588 H 0.67455 0.51251 0.59227 0.0
H1589 H 0.62178 0.54525 0.60766 0.0
H1590 H 0.65545 0.53184 0.62105 0.0
H1591 H 0.62386 0.51659 0.53622 0.0
H1592 H 0.4076 0.57072 0.46664 0.0
H1593 H 0.45727 0.53309 0.45328 0.0
H1594 H 0.43542 0.53975 0.52202 0.0
H1595 H 0.43167 0.5561 0.43966 0.0
Eu1596 Eu 0.99761 0.52427 0.04081 0.0
C1597 C 0.08299 0.57399 0.99501 0.0
N1598 N 0.06707 0.55509 0.98723 0.0
C1599 C 0.06353 0.56499 0.94819 0.0
C1600 C 0.08897 0.5895 0.97963 0.0
C1601 C 0.05811 0.55004 0.96391 0.0
C1602 C 0.0788 0.5849 0.95612 0.0
C1603 C 0.11052 0.59714 0.02643 0.0
C1604 C 0.09399 0.57773 0.01826 0.0
C1605 C 0.11593 0.61273 0.01122 0.0
C1606 C 0.10527 0.60889 0.98792 0.0
Eu1607 Eu 0.06149 0.53095 0.01572 0.0
N1608 N 0.08856 0.56246 0.03289 0.0
C1609 C 0.1214 0.60022 0.04964 0.0
C1610 C 0.09986 0.56481 0.05503 0.0
C1611 C 0.11618 0.58389 0.06392 0.0
H1612 H 0.04728 0.53429 0.95684 0.0
H1613 H 0.12497 0.58584 0.08164 0.0
H1614 H 0.01174 0.52377 0.10082 0.0
H1615 H 0.93571 0.46515 0.97738 0.0
H1616 H 0.09676 0.55167 0.06549 0.0
H1617 H 0.13418 0.61492 0.05653 0.0
H1618 H 0.96275 0.50036 0.99193 0.0
H1619 H 0.0562 0.56095 0.92983 0.0
H1620 H 0.1286 0.62772 0.01723 0.0
H1621 H 0.10997 0.62094 0.97631 0.0
H1622 H 0.00553 0.49756 0.12857 0.0
H1623 H 0.08308 0.59634 0.94379 0.0
H1624 H 0.92944 0.43643 0.00338 0.0
N1625 N 0.99459 0.50088 0.07043 0.0
C1626 C 0.98037 0.48079 0.06306 0.0
C1627 C 0.99873 0.49249 0.11013 0.0
C1628 C 0.97542 0.46566 0.07912 0.0
C1629 C 0.00276 0.5072 0.09391 0.0
C1630 C 0.98523 0.47156 0.10269 0.0
N1631 N 0.97322 0.4907 0.02462 0.0
C1632 C 0.96074 0.48756 0.0029 0.0
C1633 C 0.95346 0.45564 0.03248 0.0
C1634 C 0.96928 0.47572 0.03982 0.0
C1635 C 0.94173 0.45164 0.00958 0.0
C1636 C 0.94523 0.46778 0.99482 0.0
H1637 H 0.98175 0.46041 0.11549 0.0
H1638 H 0.95616 0.43378 0.08372 0.0
H1639 H 0.93705 0.42503 0.04301 0.0
O1640 O 0.97093 0.53976 0.02643 0.0
O1641 O 0.00563 0.4935 0.01855 0.0
O1642 O 0.04437 0.49725 0.02539 0.0
O1643 O 0.97059 0.52913 0.0607 0.0
O1644 O 0.01269 0.53785 0.0106 0.0
O1645 O 0.03219 0.51936 0.98792 0.0
O1646 O 0.09359 0.52091 0.02593 0.0
O1647 O 0.05212 0.56405 0.03052 0.0
O1648 O 0.0185 0.56023 0.04801 0.0
O1649 O 0.07648 0.51375 0.98926 0.0
O1650 O 0.04577 0.52007 0.04649 0.0
O1651 O 0.02624 0.53743 0.06945 0.0
C1652 C 0.0238 0.4849 0.01862 0.0
C1653 C 0.95582 0.56024 0.05587 0.0
C1654 C 0.93039 0.58546 0.0555 0.0
C1655 C 0.94097 0.59609 0.07798 0.0
C1656 C 0.9666 0.57138 0.07812 0.0
C1657 C 0.9591 0.58916 0.08911 0.0
C1658 C 0.93798 0.56759 0.04444 0.0
C1659 C 0.01364 0.52563 0.99102 0.0
C1660 C 0.96149 0.5397 0.04563 0.0
C1661 C 0.96012 0.44546 0.07155 0.0
C1662 C 0.9492 0.44048 0.04835 0.0
C1663 C 0.03706 0.57232 0.04198 0.0
C1664 C 0.11184 0.50302 0.99504 0.0
C1665 C 0.14082 0.48181 -0.00052 0.0
C1666 C 0.14421 0.48296 0.97591 0.0
C1667 C 0.11559 0.50415 0.97151 0.0
C1668 C 0.12479 0.49207 0.0092 0.0
C1669 C 0.13174 0.49422 0.96206 0.0
C1670 C 0.04544 0.53312 0.0656 0.0
C1671 C 0.09371 0.51247 0.00401 0.0
H1672 H 0.93526 0.60983 0.08687 0.0
H1673 H 0.98045 0.56601 0.0873 0.0
H1674 H 0.96717 0.5974 0.10642 0.0
H1675 H 0.92944 0.55886 0.02743 0.0
H1676 H 0.15654 0.47509 0.96825 0.0
H1677 H 0.1059 0.51261 0.96032 0.0
H1678 H 0.12196 0.49094 0.02732 0.0
H1679 H 0.13444 0.49508 0.9439 0.0
C1680 C 0.00764 0.17879 0.96261 0.0
C1681 C 0.00665 0.19722 0.97894 0.0
C1682 C 0.01147 0.15875 0.96981 0.0
C1683 C 0.01383 0.15627 0.99411 0.0
C1684 C 0.01271 0.17476 0.01074 0.0
C1685 C 0.00946 0.1949 0.00306 0.0
C1686 C 0.01315 0.14016 0.95121 0.0
C1687 C 0.0153 0.17342 0.03683 0.0
C1688 C 0.00225 0.09658 0.00971 0.0
C1689 C 0.02391 0.0925 0.01485 0.0
C1690 C 0.99881 0.11707 0.00331 0.0
C1691 C 0.01738 0.13443 0.00193 0.0
C1692 C 0.03929 0.13048 0.00736 0.0
C1693 C 0.04223 0.10978 0.0135 0.0
C1694 C 0.9751 0.12009 0.9979 0.0
C1695 C 0.05986 0.14793 0.00611 0.0
H1696 H 0.00586 0.18016 0.94396 0.0
H1697 H 0.00902 0.20884 0.01604 0.0
H1698 H 0.02877 0.13424 0.95565 0.0
H1699 H 0.99881 0.12605 0.95067 0.0
H1700 H 0.01308 0.14517 0.93335 0.0
H1701 H 0.01064 0.18759 0.04725 0.0
H1702 H 0.00477 0.15788 0.04042 0.0
H1703 H 0.03303 0.17334 0.04306 0.0
H1704 H 0.98781 0.0836 0.01046 0.0
H1705 H 0.05909 0.10715 0.01707 0.0
H1706 H 0.97198 0.12302 0.97933 0.0
H1707 H 0.97275 0.13484 0.00936 0.0
H1708 H 0.96241 0.10551 0.00051 0.0
H1709 H 0.0615 0.14939 0.98734 0.0
H1710 H 0.07546 0.1439 0.01442 0.0
H1711 H 0.05833 0.16425 0.01491 0.0
C1712 C 0.12773 0.79904 0.17849 0.0
C1713 C 0.12896 0.79842 0.15416 0.0
C1714 C 0.14549 0.79536 0.19425 0.0
C1715 C 0.1652 0.79081 0.18571 0.0
C1716 C 0.16637 0.78975 0.16108 0.0
C1717 C 0.14841 0.79366 0.14572 0.0
C1718 C 0.14328 0.79684 0.22022 0.0
C1719 C 0.18654 0.78415 0.15088 0.0
C1720 C 0.22109 0.80337 0.22727 0.0
C1721 C 0.22209 0.78282 0.23423 0.0
C1722 C 0.20255 0.80623 0.21205 0.0
C1723 C 0.18481 0.78791 0.20255 0.0
C1724 C 0.18596 0.76697 0.20928 0.0
C1725 C 0.20424 0.76481 0.22542 0.0
C1726 C 0.20191 0.82899 0.2062 0.0
C1727 C 0.16789 0.74677 0.19946 0.0
H1728 H 0.11283 0.80254 0.18533 0.0
H1729 H 0.14954 0.79278 0.12698 0.0
H1730 H 0.14754 0.78228 0.22736 0.0
H1731 H 0.15531 0.81166 0.23 0.0
H1732 H 0.12607 0.798 0.22378 0.0
H1733 H 0.18531 0.78458 0.13156 0.0
H1734 H 0.2021 0.79585 0.15968 0.0
H1735 H 0.1882 0.76739 0.15422 0.0
H1736 H 0.23474 0.81738 0.2341 0.0
H1737 H 0.20489 0.74884 0.23059 0.0
H1738 H 0.18626 0.83368 0.21098 0.0
H1739 H 0.20173 0.82904 0.18693 0.0
H1740 H 0.21651 0.84168 0.21563 0.0
H1741 H 0.1525 0.74767 0.20771 0.0
H1742 H 0.17311 0.7313 0.20296 0.0
H1743 H 0.16347 0.74594 0.18012 0.0
C1744 C 0.52847 0.85486 0.49009 0.0
C1745 C 0.50911 0.84206 0.47583 0.0
C1746 C 0.53045 0.87773 0.49787 0.0
C1747 C 0.51268 0.8883 0.49128 0.0
C1748 C 0.49291 0.87522 0.47739 0.0
C1749 C 0.49147 0.85252 0.46978 0.0
C1750 C 0.55188 0.89075 0.51258 0.0
C1751 C 0.47368 0.88549 0.46928 0.0
C1752 C 0.5091 0.94529 0.52344 0.0
C1753 C 0.51882 0.95988 0.50881 0.0
C1754 C 0.5074 0.9222 0.51828 0.0
C1755 C 0.51511 0.91311 0.49762 0.0
C1756 C 0.52462 0.92784 0.48262 0.0
C1757 C 0.52667 0.95087 0.48857 0.0
C1758 C 0.4976 0.90752 0.53517 0.0
C1759 C 0.53292 0.91936 0.46027 0.0
H1760 H 0.54254 0.84724 0.49421 0.0
H1761 H 0.47677 0.84305 0.45809 0.0
H1762 H 0.55919 0.90503 0.50409 0.0
H1763 H 0.54818 0.89744 0.53012 0.0
H1764 H 0.56463 0.88058 0.51518 0.0
H1765 H 0.45864 0.87291 0.46064 0.0
H1766 H 0.46892 0.89552 0.48439 0.0
H1767 H 0.47903 0.89675 0.45648 0.0
H1768 H 0.50353 0.95198 0.53944 0.0
H1769 H 0.53434 0.9619 0.47716 0.0
H1770 H 0.51003 0.89815 0.54161 0.0
H1771 H 0.48259 0.8953 0.52594 0.0
H1772 H 0.4927 0.91701 0.55063 0.0
H1773 H 0.54852 0.91348 0.46487 0.0
H1774 H 0.53663 0.93232 0.44879 0.0
H1775 H 0.52034 0.90518 0.45004 0.0
C1776 C 0.48548 0.26957 0.64417 0.0
C1777 C 0.50461 0.28636 0.65166 0.0
C1778 C 0.46621 0.26873 0.65556 0.0
C1779 C 0.46623 0.28492 0.67511 0.0
C1780 C 0.48508 0.30274 0.68168 0.0
C1781 C 0.50411 0.30317 0.66992 0.0
C1782 C 0.44636 0.24968 0.64762 0.0
C1783 C 0.48594 0.3204 0.70229 0.0
C1784 C 0.40915 0.28143 0.69687 0.0
C1785 C 0.41029 0.26685 0.7134 0.0
C1786 C 0.42776 0.28876 0.68525 0.0
C1787 C 0.4479 0.28132 0.69035 0.0
C1788 C 0.44959 0.26807 0.7085 0.0
C1789 C 0.43072 0.26085 0.71962 0.0
C1790 C 0.42537 0.30327 0.66645 0.0
C1791 C 0.47075 0.25999 0.71492 0.0
H1792 H 0.48604 0.25644 0.63024 0.0
H1793 H 0.51911 0.31594 0.67595 0.0
H1794 H 0.4436 0.23961 0.66206 0.0
H1795 H 0.43094 0.25601 0.64353 0.0
H1796 H 0.44872 0.23882 0.63175 0.0
H1797 H 0.49925 0.33525 0.70194 0.0
H1798 H 0.46956 0.32537 0.70246 0.0
H1799 H 0.48961 0.31383 0.71899 0.0
H1800 H 0.39331 0.28598 0.69197 0.0
H1801 H 0.4316 0.24957 0.73242 0.0
H1802 H 0.42342 0.29325 0.64879 0.0
H1803 H 0.44061 0.3166 0.66792 0.0
H1804 H 0.4105 0.31081 0.66755 0.0
H1805 H 0.47209 0.24664 0.70091 0.0
H1806 H 0.4708 0.25337 0.73198 0.0
H1807 H 0.48586 0.27342 0.71617 0.0
C1808 C 0.01619 0.83032 0.66311 0.0
C1809 C 0.02664 0.81318 0.65551 0.0
C1810 C 0.0178 0.84924 0.65183 0.0
C1811 C 0.03062 0.85131 0.63285 0.0
C1812 C 0.04134 0.83407 0.62527 0.0
C1813 C 0.03893 0.81511 0.63644 0.0
C1814 C 0.00546 0.86678 0.65997 0.0
C1815 C 0.05602 0.83595 0.60584 0.0
C1816 C 0.02729 0.88949 0.58645 0.0
C1817 C 0.04658 0.90605 0.59447 0.0
C1818 C 0.02069 0.8724 0.5998 0.0
C1819 C 0.03392 0.87177 0.62139 0.0
C1820 C 0.05234 0.8895 0.63035 0.0
C1821 C 0.05832 0.90647 0.61684 0.0
C1822 C 1.00059 0.85415 0.58993 0.0
C1823 C 0.06672 0.88984 0.65344 0.0
H1824 H 0.00647 0.82879 0.67771 0.0
H1825 H 0.04722 0.80202 0.63064 0.0
H1826 H 0.01677 0.88335 0.66301 0.0
H1827 H 0.99163 0.86701 0.64596 0.0
H1828 H 0.99818 0.86382 0.67645 0.0
H1829 H 0.06278 0.82092 0.60166 0.0
H1830 H 0.04641 0.83889 0.58953 0.0
H1831 H 0.07035 0.8503 0.61123 0.0
H1832 H 0.01835 0.889 0.56904 0.0
H1833 H 0.07328 0.91927 0.62296 0.0
H1834 H 0.98986 0.85029 0.60386 0.0
H1835 H 0.00632 0.83895 0.58373 0.0
H1836 H 0.99031 0.85851 0.57486 0.0
H1837 H 0.05664 0.89133 0.6682 0.0
H1838 H 0.0816 0.90379 0.65686 0.0
H1839 H 0.07265 0.87419 0.65355 0.0
C1840 C 0.457 0.79723 0.83861 0.0
C1841 C 0.47138 0.80634 0.82318 0.0
C1842 C 0.43336 0.79491 0.83403 0.0
C1843 C 0.4235 0.80148 0.81329 0.0
C1844 C 0.43792 0.81032 0.7975 0.0
C1845 C 0.46143 0.81277 0.80267 0.0
C1846 C 0.41893 0.78547 0.85154 0.0
C1847 C 0.4285 0.81741 0.77507 0.0
C1848 C 0.36119 0.77657 0.79013 0.0
C1849 C 0.35077 0.79423 0.79579 0.0
C1850 C 0.38464 0.77875 0.79547 0.0
C1851 C 0.39823 0.79887 0.80777 0.0
C1852 C 0.38764 0.81668 0.81393 0.0
C1853 C 0.36421 0.8143 0.80748 0.0
C1854 C 0.39492 0.75958 0.78743 0.0
C1855 C 0.40097 0.83814 0.8279 0.0
H1856 H 0.46425 0.79223 0.85454 0.0
H1857 H 0.4721 0.81988 0.79051 0.0
H1858 H 0.40656 0.79571 0.85548 0.0
H1859 H 0.40935 0.76866 0.84385 0.0
H1860 H 0.42907 0.78433 0.86834 0.0
H1861 H 0.44156 0.82205 0.76355 0.0
H1862 H 0.415 0.80395 0.76496 0.0
H1863 H 0.4209 0.83183 0.77949 0.0
H1864 H 0.35099 0.76108 0.78083 0.0
H1865 H 0.35629 0.82798 0.81207 0.0
H1866 H 0.40288 0.75372 0.80295 0.0
H1867 H 0.40828 0.76494 0.7765 0.0
H1868 H 0.38232 0.74552 0.77693 0.0
H1869 H 0.40686 0.83527 0.84594 0.0
H1870 H 0.39089 0.85105 0.82939 0.0
H1871 H 0.41609 0.8444 0.81971 0.0
C1872 C 0.5081 0.1794 0.12322 0.0
C1873 C 0.51726 0.18154 0.14701 0.0
C1874 C 0.50989 0.16136 0.10668 0.0
C1875 C 0.52162 0.14535 0.11393 0.0
C1876 C 0.53128 0.14777 0.13785 0.0
C1877 C 0.52872 0.16557 0.15405 0.0
C1878 C 0.4987 0.15914 0.0816 0.0
C1879 C 0.5447 0.13174 0.1463 0.0
C1880 C 0.51097 0.08644 0.08129 0.0
C1881 C 0.52877 0.08743 0.06778 0.0
C1882 C 0.5079 0.10534 0.09546 0.0
C1883 C 0.52343 0.12572 0.09689 0.0
C1884 C 0.5414 0.12683 0.08314 0.0
C1885 C 0.54362 0.10779 0.06845 0.0
C1886 C 0.48816 0.1034 0.10922 0.0
C1887 C 0.55856 0.14804 0.08426 0.0
H1888 H 0.49918 0.19161 0.11762 0.0
H1889 H 0.5362 0.16723 0.17229 0.0
H1890 H 0.51046 0.15598 0.0689 0.0
H1891 H 0.48427 0.14477 0.07825 0.0
H1892 H 0.49245 0.17408 0.07805 0.0
H1893 H 0.5506 0.13553 0.16557 0.0
H1894 H 0.53448 0.11464 0.14234 0.0
H1895 H 0.55955 0.13224 0.13675 0.0
H1896 H 0.49925 0.07083 0.08062 0.0
H1897 H 0.55743 0.10868 0.05807 0.0
H1898 H 0.47857 0.11622 0.10566 0.0
H1899 H 0.49423 0.10625 0.12842 0.0
H1900 H 0.47661 0.08693 0.10475 0.0
H1901 H 0.55039 0.16054 0.07696 0.0
H1902 H 0.57258 0.14574 0.07416 0.0
H1903 H 0.56561 0.15477 0.10288 0.0
C1904 C 0.12103 0.31522 0.31367 0.0
C1905 C 0.11255 0.30476 0.33214 0.0
C1906 C 0.1417 0.31236 0.30591 0.0
C1907 C 0.15395 0.29782 0.31594 0.0
C1908 C 0.14504 0.2868 0.33415 0.0
C1909 C 0.12495 0.29075 0.34228 0.0
C1910 C 0.15057 0.3252 0.28712 0.0
C1911 C 0.15693 0.27095 0.34539 0.0
C1912 C 0.19796 0.27519 0.28196 0.0
C1913 C 0.21862 0.28761 0.29418 0.0
C1914 C 0.17703 0.27831 0.28871 0.0
C1915 C 0.17628 0.29455 0.30805 0.0
C1916 C 0.19708 0.30725 0.3203 0.0
C1917 C 0.21771 0.30364 0.31332 0.0
C1918 C 0.15564 0.26396 0.27521 0.0
C1919 C 0.19769 0.32514 0.34062 0.0
H1920 H 0.11187 0.32625 0.30576 0.0
H1921 H 0.11871 0.28251 0.35651 0.0
H1922 H 0.16869 0.33283 0.29218 0.0
H1923 H 0.14885 0.31384 0.27034 0.0
H1924 H 0.14137 0.3384 0.28391 0.0
H1925 H 0.14667 0.26169 0.35718 0.0
H1926 H 0.16108 0.25895 0.33159 0.0
H1927 H 0.17297 0.2802 0.35593 0.0
H1928 H 0.19806 0.26286 0.26707 0.0
H1929 H 0.23328 0.31358 0.32298 0.0
H1930 H 0.14532 0.27437 0.26687 0.0
H1931 H 0.1456 0.25522 0.2875 0.0
H1932 H 0.15888 0.25154 0.26122 0.0
H1933 H 0.19317 0.33966 0.33356 0.0
H1934 H 0.21459 0.33042 0.35116 0.0
H1935 H 0.18539 0.31962 0.35259 0.0
C1936 C 0.97793 0.01173 0.19488 0.0
C1937 C 0.95777 0.01853 0.19728 0.0
C1938 C 0.98825 0.0141 0.17445 0.0
C1939 C 0.97855 0.02419 0.15643 0.0
C1940 C 0.95833 0.03138 0.15898 0.0
C1941 C 0.94802 0.0282 0.17928 0.0
C1942 C 0.00912 0.00519 0.17179 0.0
C1943 C 0.94724 0.04179 0.13994 0.0
C1944 C 0.01201 0.04731 0.10969 0.0
C1945 C 0.00631 0.02966 0.09107 0.0
C1946 C 0.00398 0.04536 0.1315 0.0
C1947 C 0.98869 0.02587 0.1342 0.0
C1948 C 0.98277 0.00809 0.11539 0.0
C1949 C 0.99227 0.00998 0.09451 0.0
C1950 C 0.01168 0.06419 0.1516 0.0
C1951 C 0.96588 0.98714 0.11645 0.0
H1952 H 0.98529 0.00399 0.20871 0.0
H1953 H 0.93245 0.03352 0.18121 0.0
H1954 H 0.00583 0.99219 0.15611 0.0
H1955 H 0.02296 0.01853 0.16878 0.0
H1956 H 0.0147 0.99799 0.18752 0.0
H1957 H 0.9328 0.04838 0.14559 0.0
H1958 H 0.9595 0.05543 0.13487 0.0
H1959 H 0.94115 0.02928 0.12396 0.0
H1960 H 0.02251 0.06272 0.10721 0.0
H1961 H 0.98848 0.99583 0.08081 0.0
H1962 H 0.01835 0.05803 0.1676 0.0
H1963 H 0.99724 0.07137 0.15602 0.0
H1964 H 0.02495 0.07744 0.14729 0.0
H1965 H 0.97178 0.97254 0.10862 0.0
H1966 H 0.94989 0.98747 0.10557 0.0
H1967 H 0.96228 0.98485 0.13454 0.0
C1968 C 0.26069 0.68363 0.49553 0.0
C1969 C 0.27634 0.67026 0.49761 0.0
C1970 C 0.2568 0.69263 0.47493 0.0
C1971 C 0.26953 0.68881 0.45634 0.0
C1972 C 0.28578 0.67572 0.45852 0.0
C1973 C 0.28881 0.6663 0.47919 0.0
C1974 C 0.23853 0.70565 0.47281 0.0
C1975 C 0.30009 0.67177 0.43935 0.0
C1976 C 0.23764 0.69857 0.40124 0.0
C1977 C 0.24507 0.72136 0.40291 0.0
C1978 C 0.24753 0.68688 0.41701 0.0
C1979 C 0.26506 0.69851 0.43476 0.0
C1980 C 0.27426 0.72113 0.4347 0.0
C1981 C 0.26393 0.73247 0.41877 0.0
C1982 C 0.23768 0.66261 0.41608 0.0
C1983 C 0.29362 0.73371 0.4528 0.0
H1984 H 0.25062 0.68614 0.50959 0.0
H1985 H 0.30078 0.65577 0.48091 0.0
H1986 H 0.24582 0.72279 0.47031 0.0
H1987 H 0.22597 0.69812 0.45715 0.0
H1988 H 0.22966 0.70632 0.48864 0.0
H1989 H 0.3068 0.65665 0.44064 0.0
H1990 H 0.29065 0.67029 0.42148 0.0
H1991 H 0.31454 0.68601 0.44129 0.0
H1992 H 0.22349 0.69009 0.38821 0.0
H1993 H 0.27002 0.75005 0.41926 0.0
H1994 H 0.22616 0.66047 0.42964 0.0
H1995 H 0.25099 0.65339 0.41997 0.0
H1996 H 0.22797 0.65525 0.39854 0.0
H1997 H 0.28719 0.73831 0.4696 0.0
H1998 H 0.30227 0.74908 0.44692 0.0
H1999 H 0.30601 0.72339 0.45647 0.0
C2000 C 0.62571 0.0462 0.67866 0.0
C2001 C 0.64643 0.04126 0.67473 0.0
C2002 C 0.61112 0.04972 0.66027 0.0
C2003 C 0.61704 0.04691 0.63733 0.0
C2004 C 0.63814 0.04259 0.63316 0.0
C2005 C 0.65297 0.04015 0.65223 0.0
C2006 C 0.58857 0.0541 0.66535 0.0
C2007 C 0.64429 0.03907 0.60848 0.0
C2008 C 0.56957 0.02002 0.59076 0.0
C2009 C 0.56489 0.03838 0.58151 0.0
C2010 C 0.58646 0.02273 0.60948 0.0
C2011 C 0.59953 0.04416 0.61766 0.0
C2012 C 0.59479 0.0628 0.60826 0.0
C2013 C 0.57651 0.05973 0.59077 0.0
C2014 C 0.58975 0.00287 0.62096 0.0
C2015 C 0.60872 0.08572 0.61691 0.0
H2016 H 0.62041 0.04676 0.69601 0.0
H2017 H 0.66907 0.03636 0.64944 0.0
H2018 H 0.58214 0.06462 0.65328 0.0
H2019 H 0.57618 0.03816 0.66302 0.0
H2020 H 0.58948 0.06221 0.68381 0.0
H2021 H 0.66192 0.03718 0.60846 0.0
H2022 H 0.63302 0.02397 0.59825 0.0
H2023 H 0.64184 0.05313 0.5992 0.0
H2024 H 0.55938 0.00372 0.58397 0.0
H2025 H 0.57194 0.07375 0.58365 0.0
H2026 H 0.58737 0.00563 0.63985 0.0
H2027 H 0.6071 1.00041 0.62028 0.0
H2028 H 0.57777 0.98748 0.61236 0.0
H2029 H 0.60602 0.09114 0.63525 0.0
H2030 H 0.60442 0.09791 0.60565 0.0
H2031 H 0.62686 0.08572 0.61725 0.0
C2032 C 0.29912 0.33631 0.96079 0.0
C2033 C 0.28671 0.35279 0.96359 0.0
C2034 C 0.29891 0.32434 0.93838 0.0
C2035 C 0.28576 0.32883 0.91852 0.0
C2036 C 0.27218 0.34452 0.92158 0.0
C2037 C 0.27295 0.3564 0.94402 0.0
C2038 C 0.31364 0.30776 0.9358 0.0
C2039 C 0.2573 0.34924 0.901 0.0
C2040 C 0.30252 0.32218 0.85701 0.0
C2041 C 0.28742 0.30286 0.84631 0.0
C2042 C 0.303 0.33009 0.88096 0.0
C2043 C 0.28748 0.31871 0.89419 0.0
C2044 C 0.27236 0.29892 0.88339 0.0
C2045 C 0.27273 0.29106 0.85954 0.0
C2046 C 0.31953 0.35111 0.89183 0.0
C2047 C 0.2555 0.28636 0.8968 0.0
H2048 H 0.3098 0.33348 0.97586 0.0
H2049 H 0.26301 0.36886 0.94619 0.0
H2050 H 0.30425 0.29223 0.92469 0.0
H2051 H 0.32807 0.31449 0.92681 0.0
H2052 H 0.32026 0.30387 0.95316 0.0
H2053 H 0.24791 0.36209 0.90634 0.0
H2054 H 0.26753 0.3548 0.88722 0.0
H2055 H 0.24502 0.33392 0.89284 0.0
H2056 H 0.31376 0.33124 0.84656 0.0
H2057 H 0.26108 0.27606 0.85101 0.0
H2058 H 0.32911 0.34856 0.90837 0.0
H2059 H 0.31033 0.36426 0.89652 0.0
H2060 H 0.33161 0.35694 0.8797 0.0
H2061 H 0.26444 0.27992 0.91128 0.0
H2062 H 0.24378 0.27228 0.8853 0.0
H2063 H 0.24553 0.29747 0.90502 0.0
C2064 C 0.99337 0.02146 0.34489 0.0
C2065 C 0.97041 0.01764 0.33657 0.0
C2066 C 0.00108 0.02517 0.36919 0.0
C2067 C 0.9854 0.02412 0.38559 0.0
C2068 C 0.96219 0.02096 0.37729 0.0
C2069 C 0.95501 0.01816 0.35284 0.0
C2070 C 0.026 0.02925 0.37723 0.0
C2071 C 0.94489 0.01966 0.39414 0.0
C2072 C 0.00476 0.0041 0.44245 0.0
C2073 C 0.01024 0.02355 0.45858 0.0
C2074 C 0.99603 0.00401 0.41887 0.0
C2075 C 0.99321 0.02405 0.41105 0.0
C2076 C 0.99871 0.04384 0.42735 0.0
C2077 C 0.00691 0.04327 0.45099 0.0
C2078 C 0.98964 0.98239 0.40236 0.0
C2079 C 0.99663 0.06569 0.41974 0.0
H2080 H 0.00533 0.02136 0.33234 0.0
H2081 H 0.93724 0.01526 0.34642 0.0
H2082 H 0.03112 0.04285 0.39231 0.0
H2083 H 0.03015 0.0142 0.38331 0.0
H2084 H 0.03602 0.03348 0.36281 0.0
H2085 H 0.92745 0.01544 0.38478 0.0
H2086 H 0.94693 0.00707 0.40576 0.0
H2087 H 0.94736 0.03573 0.40569 0.0
H2088 H 0.00662 0.98885 0.44841 0.0
H2089 H 0.01113 0.05836 0.46349 0.0
H2090 H 1.0001 0.98297 0.38779 0.0
H2091 H 0.97185 0.97961 0.39429 0.0
H2092 H 0.99183 0.96814 0.41148 0.0
H2093 H 0.0096 0.07056 0.40821 0.0
H2094 H 0.99891 0.079 0.43502 0.0
H2095 H 0.98003 0.06435 0.40926 0.0
C2096 C 0.25601 0.65374 0.64892 0.0
C2097 C 0.27034 0.65565 0.63165 0.0
C2098 C 0.25871 0.67073 0.66772 0.0
C2099 C 0.27597 0.68963 0.66874 0.0
C2100 C 0.29126 0.69104 0.65211 0.0
C2101 C 0.28842 0.67374 0.63384 0.0
C2102 C 0.24244 0.66909 0.68566 0.0
C2103 C 0.30992 0.71116 0.65297 0.0
C2104 C 0.26691 0.74312 0.69823 0.0
C2105 C 0.28166 0.74586 0.71909 0.0
C2106 C 0.26492 0.72467 0.68141 0.0
C2107 C 0.27736 0.70862 0.68638 0.0
C2108 C 0.29221 0.71135 0.70744 0.0
C2109 C 0.29473 0.73044 0.7233 0.0
C2110 C 0.25003 0.7226 0.6582 0.0
C2111 C 0.30518 0.69411 0.71336 0.0
H2112 H 0.2421 0.63962 0.6471 0.0
H2113 H 0.29982 0.6748 0.62066 0.0
H2114 H 0.25169 0.67327 0.70383 0.0
H2115 H 0.23164 0.68118 0.68351 0.0
H2116 H 0.23147 0.65236 0.68372 0.0
H2117 H 0.31871 0.71042 0.63708 0.0
H2118 H 0.3032 0.72641 0.65446 0.0
H2119 H 0.32246 0.71257 0.66876 0.0
H2120 H 0.25714 0.75538 0.69499 0.0
H2121 H 0.30668 0.73306 0.7392 0.0
H2122 H 0.23684 0.70723 0.65563 0.0
H2123 H 0.26014 0.7215 0.64339 0.0
H2124 H 0.24179 0.73681 0.65718 0.0
H2125 H 0.29326 0.67842 0.71416 0.0
H2126 H 0.31624 0.69916 0.73056 0.0
H2127 H 0.31567 0.69073 0.6994 0.0
C2128 C 0.65466 0.06157 0.82331 0.0
C2129 C 0.64388 0.04824 0.80246 0.0
C2130 C 0.64473 0.06053 0.84398 0.0
C2131 C 0.62376 0.04578 0.84332 0.0
C2132 C 0.6142 0.03069 0.82277 0.0
C2133 C 0.62435 0.03232 0.80235 0.0
C2134 C 0.65555 0.0766 0.86588 0.0
C2135 C 0.59218 0.01445 0.82149 0.0
C2136 C 0.607 0.05038 0.90388 0.0
C2137 C 0.59715 0.06873 0.90338 0.0
C2138 C 0.6136 0.04064 0.88337 0.0
C2139 C 0.6102 0.04967 0.86231 0.0
C2140 C 0.59769 0.06635 0.8612 0.0
C2141 C 0.5915 0.0759 0.88197 0.0
C2142 C 0.62597 0.02215 0.8848 0.0
C2143 C 0.59299 0.07592 0.8388 0.0
H2144 H 0.66986 0.07382 0.82301 0.0
H2145 H 0.61634 0.022 0.78592 0.0
H2146 H 0.64468 0.08838 0.87011 0.0
H2147 H 0.65743 0.06762 0.88119 0.0
H2148 H 0.67234 0.08619 0.86375 0.0
H2149 H 0.5905 1.00033 0.8072 0.0
H2150 H 0.59039 0.00806 0.83847 0.0
H2151 H 0.57816 0.02283 0.81756 0.0
H2152 H 0.61073 0.04451 0.92052 0.0
H2153 H 0.58306 0.08956 0.88165 0.0
H2154 H 0.64431 0.02916 0.88789 0.0
H2155 H 0.62226 0.01039 0.86811 0.0
H2156 H 0.62155 0.013 0.89961 0.0
H2157 H 0.6081 0.08822 0.83655 0.0
H2158 H 0.5787 0.08437 0.83943 0.0
H2159 H 0.58912 0.06302 0.82305 0.0
C2160 C 0.27163 0.33739 0.11059 0.0
C2161 C 0.2931 0.34823 0.10722 0.0
C2162 C 0.26786 0.32945 0.13188 0.0
C2163 C 0.28613 0.3319 0.14993 0.0
C2164 C 0.30796 0.34249 0.1464 0.0
C2165 C 0.31112 0.35086 0.12517 0.0
C2166 C 0.2443 0.31859 0.13514 0.0
C2167 C 0.32804 0.34455 0.16482 0.0
C2168 C 0.27458 0.32517 0.21264 0.0
C2169 C 0.27746 0.30363 0.21385 0.0
C2170 C 0.27748 0.33473 0.19197 0.0
C2171 C 0.28267 0.32218 0.1719 0.0
C2172 C 0.28507 0.30031 0.17286 0.0
C2173 C 0.28301 0.29155 0.19391 0.0
C2174 C 0.27555 0.35839 0.19179 0.0
C2175 C 0.29 0.28615 0.15167 0.0
H2176 H 0.25762 0.33575 0.09682 0.0
H2177 H 0.32772 0.35924 0.12247 0.0
H2178 H 0.24385 0.30168 0.13937 0.0
H2179 H 0.23892 0.32806 0.15026 0.0
H2180 H 0.23201 0.31759 0.11919 0.0
H2181 H 0.34332 0.35541 0.16058 0.0
H2182 H 0.32452 0.35115 0.18248 0.0
H2183 H 0.33163 0.32798 0.166 0.0
H2184 H 0.27073 0.33479 0.22803 0.0
H2185 H 0.2863 0.27526 0.19476 0.0
H2186 H 0.26232 0.35935 0.17746 0.0
H2187 H 0.2916 0.36831 0.18812 0.0
H2188 H 0.27148 0.36592 0.20885 0.0
H2189 H 0.27616 0.28394 0.13691 0.0
H2190 H 0.29189 0.26958 0.15552 0.0
H2191 H 0.30561 0.29438 0.14548 0.0
C2192 C 0.2177 0.9417 0.99622 0.0
C2193 C 0.23813 0.95573 0.99478 0.0
C2194 C 0.19995 0.95056 0.00322 0.0
C2195 C 0.2033 0.97371 0.00882 0.0
C2196 C 0.22286 0.98783 0.00412 0.0
C2197 C 0.24004 0.97851 0.99667 0.0
C2198 C 0.17859 0.93528 0.00683 0.0
C2199 C 0.22732 0.01264 0.01047 0.0
C2200 C 0.16134 0.00473 0.02947 0.0
C2201 C 0.16588 0.0057 0.05413 0.0
C2202 C 0.17219 0.99273 0.01428 0.0
C2203 C 0.18907 0.98299 0.02408 0.0
C2204 C 0.1941 0.98407 0.04883 0.0
C2205 C 0.18193 0.99494 0.06357 0.0
C2206 C 0.16612 0.99096 0.98784 0.0
C2207 C 0.21253 0.97408 0.05979 0.0
H2208 H 0.21621 0.92397 0.99397 0.0
H2209 H 0.25579 0.98921 0.99471 0.0
H2210 H 0.17576 0.93789 0.02558 0.0
H2211 H 0.16409 0.93902 0.99607 0.0
H2212 H 0.17895 0.91763 0.00185 0.0
H2213 H 0.24098 0.02103 0.0014 0.0
H2214 H 0.21211 0.01912 0.00598 0.0
H2215 H 0.23254 0.01709 0.02981 0.0
H2216 H 0.14948 0.01353 0.02188 0.0
H2217 H 0.18512 0.99512 0.08247 0.0
H2218 H 0.16307 0.97347 0.97952 0.0
H2219 H 0.18025 1.00021 0.98011 0.0
H2220 H 0.15094 0.99751 0.98311 0.0
H2221 H 0.20782 0.95585 0.05541 0.0
H2222 H 0.21571 0.97846 0.07932 0.0
H2223 H 0.22844 0.97974 0.05262 0.0
C2224 C 0.68414 0.64263 0.02493 0.0
C2225 C 0.69375 0.64063 0.00401 0.0
C2226 C 0.66467 0.62759 0.02775 0.0
C2227 C 0.65444 0.61056 0.00896 0.0
C2228 C 0.66394 0.60878 0.98764 0.0
C2229 C 0.68374 0.62369 0.98556 0.0
C2230 C 0.65535 0.62966 0.05097 0.0
C2231 C 0.65313 0.59122 0.96701 0.0
C2232 C 0.61428 0.56099 0.02361 0.0
C2233 C 0.59338 0.56569 0.01642 0.0
C2234 C 0.63433 0.57516 0.02071 0.0
C2235 C 0.63345 0.59494 0.01137 0.0
C2236 C 0.61247 0.59997 0.00444 0.0
C2237 C 0.59273 0.58513 0.00666 0.0
C2238 C 0.65645 0.56903 0.02776 0.0
C2239 C 0.61084 0.62131 0.99527 0.0
H2240 H 0.69232 0.65545 0.0394 0.0
H2241 H 0.69141 0.62218 0.96949 0.0
H2242 H 0.63733 0.6303 0.04797 0.0
H2243 H 0.65649 0.61493 0.05961 0.0
H2244 H 0.66454 0.64459 0.06327 0.0
H2245 H 0.66362 0.59094 0.95244 0.0
H2246 H 0.64997 0.5747 0.97275 0.0
H2247 H 0.63663 0.59429 0.96003 0.0
H2248 H 0.61506 0.54641 0.03175 0.0
H2249 H 0.57674 0.58918 0.00131 0.0
H2250 H 0.66639 0.58136 0.04253 0.0
H2251 H 0.66642 0.56925 0.01277 0.0
H2252 H 0.65419 0.55243 0.03336 0.0
H2253 H 0.6178 0.63538 0.00956 0.0
H2254 H 0.59325 0.62198 0.98899 0.0
H2255 H 0.62097 0.62361 0.98056 0.0
C2256 C 0.69327 0.49329 0.29406 0.0
C2257 C 0.67003 0.48936 0.29461 0.0
C2258 C 0.70428 0.47577 0.29083 0.0
C2259 C 0.69173 0.4538 0.28806 0.0
C2260 C 0.66873 0.44978 0.29101 0.0
C2261 C 0.65809 0.46766 0.29419 0.0
C2262 C 0.72898 0.48082 0.28835 0.0
C2263 C 0.65518 0.42659 0.2897 0.0
C2264 C 0.71168 0.41558 0.24298 0.0
C2265 C 0.72644 0.40651 0.25715 0.0
C2266 C 0.69959 0.43027 0.25298 0.0
C2267 C 0.70173 0.43558 0.27786 0.0
C2268 C 0.71512 0.42511 0.29237 0.0
C2269 C 0.72762 0.41097 0.28185 0.0
C2270 C 0.6852 0.44083 0.23682 0.0
C2271 C 0.71717 0.42954 0.31896 0.0
H2272 H 0.70272 0.51005 0.29491 0.0
H2273 H 0.64022 0.46454 0.29525 0.0
H2274 H 0.73807 0.47074 0.29875 0.0
H2275 H 0.73108 0.47659 0.26955 0.0
H2276 H 0.7369 0.49852 0.29423 0.0
H2277 H 0.63737 0.42625 0.29206 0.0
H2278 H 0.65561 0.41674 0.27244 0.0
H2279 H 0.66269 0.4184 0.30361 0.0
H2280 H 0.70988 0.41155 0.22394 0.0
H2281 H 0.73888 0.40404 0.29307 0.0
H2282 H 0.69139 0.45901 0.23992 0.0
H2283 H 0.66762 0.43737 0.2407 0.0
H2284 H 0.68524 0.4348 0.21787 0.0
H2285 H 0.73033 0.44462 0.32561 0.0
H2286 H 0.72211 0.41567 0.32708 0.0
H2287 H 0.7012 0.43225 0.32494 0.0
C2288 C 0.87643 0.49303 0.50599 0.0
C2289 C 0.864 0.47155 0.50413 0.0
C2290 C 0.89895 0.49809 0.51546 0.0
C2291 C 0.9089 0.48095 0.52278 0.0
C2292 C 0.89606 0.45957 0.52234 0.0
C2293 C 0.87361 0.45501 0.51272 0.0
C2294 C 0.9123 0.5212 0.51535 0.0
C2295 C 0.90636 0.44136 0.53075 0.0
C2296 C 0.96504 0.48955 0.50391 0.0
C2297 C 0.97652 0.50506 0.52283 0.0
C2298 C 0.94283 0.47972 0.50427 0.0
C2299 C 0.93314 0.48418 0.52509 0.0
C2300 C 0.94618 0.49667 0.54577 0.0
C2301 C 0.96753 0.50839 0.54385 0.0
C2302 C 0.92907 0.46781 0.48125 0.0
C2303 C 0.93655 0.50025 0.56863 0.0
H2304 H 0.86866 0.50577 0.49971 0.0
H2305 H 0.86376 0.43834 0.51134 0.0
H2306 H 0.92435 0.52718 0.53167 0.0
H2307 H 0.92203 0.5212 0.50017 0.0
H2308 H 0.90123 0.53316 0.51364 0.0
H2309 H 0.89355 0.42609 0.5309 0.0
H2310 H 0.91872 0.43726 0.51916 0.0
H2311 H 0.91562 0.44699 0.5488 0.0
H2312 H 0.97246 0.48747 0.4877 0.0
H2313 H 0.97626 0.52134 0.55794 0.0
H2314 H 0.91682 0.47754 0.4752 0.0
H2315 H 0.91944 0.45144 0.48359 0.0
H2316 H 0.93964 0.46544 0.46702 0.0
H2317 H 0.92758 0.51398 0.56842 0.0
H2318 H 0.95005 0.50466 0.58398 0.0
H2319 H 0.92438 0.48524 0.57106 0.0
C2320 C 0.32722 0.07263 0.31862 0.0
C2321 C 0.35007 0.0753 0.32667 0.0
C2322 C 0.3194 0.08914 0.30822 0.0
C2323 C 0.33478 0.10892 0.30679 0.0
C2324 C 0.35717 0.11288 0.31797 0.0
C2325 C 0.3645 0.09599 0.32824 0.0
C2326 C 0.29544 0.08422 0.29617 0.0
C2327 C 0.37381 0.1342 0.31773 0.0
C2328 C 0.32084 0.13267 0.25152 0.0
C2329 C 0.30743 0.147 0.25945 0.0
C2330 C 0.33079 0.12079 0.26708 0.0
C2331 C 0.32782 0.12399 0.29121 0.0
C2332 C 0.31592 0.13968 0.29971 0.0
C2333 C 0.30532 0.15058 0.28363 0.0
C2334 C 0.34372 0.10424 0.25754 0.0
C2335 C 0.31349 0.14413 0.32558 0.0
H2336 H 0.31599 0.05671 0.31786 0.0
H2337 H 0.38212 0.09822 0.33504 0.0
H2338 H 0.28724 0.09811 0.30091 0.0
H2339 H 0.29538 0.08207 0.27673 0.0
H2340 H 0.28523 0.06896 0.30083 0.0
H2341 H 0.39143 0.13215 0.32078 0.0
H2342 H 0.37135 0.14078 0.30083 0.0
H2343 H 0.37143 0.14674 0.33207 0.0
H2344 H 0.32322 0.13039 0.23308 0.0
H2345 H 0.29478 0.16137 0.29005 0.0
H2346 H 0.33544 0.08742 0.26026 0.0
H2347 H 0.36098 0.10797 0.26726 0.0
H2348 H 0.34486 0.10417 0.2384 0.0
H2349 H 0.30163 0.13004 0.33041 0.0
H2350 H 0.30708 0.15935 0.32988 0.0
H2351 H 0.32988 0.1458 0.33664 0.0
C2352 C 0.33689 0.14929 0.52995 0.0
C2353 C 0.31683 0.13663 0.51734 0.0
C2354 C 0.35614 0.14041 0.53207 0.0
C2355 C 0.35507 0.11863 0.52096 0.0
C2356 C 0.33539 0.10678 0.50622 0.0
C2357 C 0.31631 0.11586 0.50487 0.0
C2358 C 0.37697 0.15351 0.54784 0.0
C2359 C 0.33367 0.08369 0.4938 0.0
C2360 C 0.40996 0.09958 0.5256 0.0
C2361 C 0.40923 0.09065 0.5467 0.0
C2362 C 0.39193 0.10799 0.51622 0.0
C2363 C 0.37289 0.10708 0.52822 0.0
C2364 C 0.37153 0.09656 0.54862 0.0
C2365 C 0.3899 0.08865 0.55777 0.0
C2366 C 0.39378 0.11884 0.49429 0.0
C2367 C 0.35128 0.09481 0.56166 0.0
H2368 H 0.33705 0.16535 0.5396 0.0
H2369 H 0.30062 0.10624 0.49505 0.0
H2370 H 0.37998 0.14533 0.56359 0.0
H2371 H 0.39186 0.15406 0.53837 0.0
H2372 H 0.37556 0.17068 0.55393 0.0
H2373 H 0.31969 0.07908 0.47893 0.0
H2374 H 0.34953 0.08195 0.4869 0.0
H2375 H 0.33042 0.07185 0.50655 0.0
H2376 H 0.42503 0.10091 0.51711 0.0
H2377 H 0.38943 0.0814 0.57395 0.0
H2378 H 0.39669 0.13699 0.49923 0.0
H2379 H 0.37795 0.11352 0.48184 0.0
H2380 H 0.40787 0.11502 0.48507 0.0
H2381 H 0.3511 0.11131 0.57117 0.0
H2382 H 0.35143 0.08315 0.57475 0.0
H2383 H 0.33549 0.08926 0.54919 0.0
C2384 C 0.69289 0.6171 0.28523 0.0
C2385 C 0.67277 0.61833 0.29427 0.0
C2386 C 0.70897 0.63634 0.28424 0.0
C2387 C 0.70505 0.65721 0.29305 0.0
C2388 C 0.68514 0.65842 0.30307 0.0
C2389 C 0.66916 0.63898 0.30336 0.0
C2390 C 0.72954 0.63446 0.2726 0.0
C2391 C 0.68002 0.68031 0.31218 0.0
C2392 C 0.7505 0.71 0.30563 0.0
C2393 C 0.74779 0.71858 0.28444 0.0
C2394 C 0.7376 0.68933 0.30819 0.0
C2395 C 0.72062 0.67785 0.28969 0.0
C2396 C 0.7182 0.68646 0.26811 0.0
C2397 C 0.73256 0.7062 0.26547 0.0
C2398 C 0.74203 0.67987 0.33067 0.0
C2399 C 0.70021 0.67563 0.24773 0.0
H2400 H 0.69559 0.60118 0.27787 0.0
H2401 H 0.65361 0.63997 0.31036 0.0
H2402 H 0.72893 0.64211 0.2562 0.0
H2403 H 0.74491 0.64358 0.28445 0.0
H2404 H 0.73087 0.61704 0.26794 0.0
H2405 H 0.66543 0.67832 0.32223 0.0
H2406 H 0.69474 0.69102 0.32378 0.0
H2407 H 0.6762 0.68897 0.29702 0.0
H2408 H 0.76275 0.71939 0.32012 0.0
H2409 H 0.73131 0.7123 0.24867 0.0
H2410 H 0.74446 0.66277 0.32642 0.0
H2411 H 0.72733 0.67903 0.34045 0.0
H2412 H 0.75713 0.68986 0.34237 0.0
H2413 H 0.70802 0.67297 0.23139 0.0
H2414 H 0.68873 0.68695 0.24462 0.0
H2415 H 0.68996 0.65967 0.2505 0.0
C2416 C 0.84669 0.43429 0.76412 0.0
C2417 C 0.85645 0.44548 0.78635 0.0
C2418 C 0.83607 0.41214 0.76151 0.0
C2419 C 0.83564 0.40139 0.78167 0.0
C2420 C 0.84577 0.41268 0.80425 0.0
C2421 C 0.85609 0.4349 0.80633 0.0
C2422 C 0.82498 0.40035 0.7374 0.0
C2423 C 0.84576 0.40135 0.82603 0.0
C2424 C 0.78861 0.35375 0.78276 0.0
C2425 C 0.80005 0.33659 0.78189 0.0
C2426 C 0.80004 0.37512 0.78222 0.0
C2427 C 0.82303 0.3788 0.77952 0.0
C2428 C 0.83422 0.36116 0.77674 0.0
C2429 C 0.82259 0.34008 0.7787 0.0
C2430 C 0.78807 0.39383 0.78679 0.0
C2431 C 0.85864 0.36476 0.77316 0.0
H2432 H 0.84732 0.44293 0.74889 0.0
H2433 H 0.86417 0.44392 0.82339 0.0
H2434 H 0.83066 0.38471 0.73325 0.0
H2435 H 0.80652 0.39599 0.73726 0.0
H2436 H 0.82863 0.41061 0.72326 0.0
H2437 H 0.8523 0.41317 0.84249 0.0
H2438 H 0.82855 0.39239 0.82758 0.0
H2439 H 0.85643 0.38898 0.82464 0.0
H2440 H 0.77115 0.35069 0.78575 0.0
H2441 H 0.83145 0.32677 0.77941 0.0
H2442 H 0.79034 0.40485 0.77315 0.0
H2443 H 0.79544 0.40387 0.80413 0.0
H2444 H 0.7698 0.38784 0.78711 0.0
H2445 H 0.86125 0.37321 0.7575 0.0
H2446 H 0.86448 0.34902 0.77057 0.0
H2447 H 0.86924 0.37562 0.78863 0.0
C2448 C 0.03696 0.86822 0.0781 0.0
C2449 C 0.05783 0.86203 0.07781 0.0
C2450 C 0.03323 0.88839 0.07103 0.0
C2451 C 0.05091 0.90365 0.06399 0.0
C2452 C 0.07217 0.89765 0.06402 0.0
C2453 C 0.07524 0.87699 0.07047 0.0
C2454 C 0.01012 0.89331 0.07097 0.0
C2455 C 0.09199 0.91342 0.05789 0.0
C2456 C 0.03609 0.94856 0.02723 0.0
C2457 C 0.03965 0.96759 0.04422 0.0
C2458 C 0.03999 0.92804 0.03326 0.0
C2459 C 0.04722 0.92584 0.05707 0.0
C2460 C 0.05053 0.94497 0.07431 0.0
C2461 C 0.04693 0.96535 0.06773 0.0
C2462 C 0.03653 0.90862 0.01397 0.0
C2463 C 0.05758 0.9439 0.09999 0.0
H2464 H 0.02327 0.85704 0.08366 0.0
H2465 H 0.09159 0.87286 0.0705 0.0
H2466 H 0.0111 0.90964 0.08149 0.0
H2467 H 0.00299 0.89407 0.05263 0.0
H2468 H 0.99845 0.8806 0.0782 0.0
H2469 H 0.10686 0.90589 0.05671 0.0
H2470 H 0.08754 0.91911 0.04084 0.0
H2471 H 0.09667 0.92823 0.07162 0.0
H2472 H 0.03059 0.94977 0.00901 0.0
H2473 H 0.04961 0.97961 0.08126 0.0
H2474 H 0.02351 0.89489 0.01775 0.0
H2475 H 0.05231 0.90254 0.01344 0.0
H2476 H 0.03132 0.91283 0.99632 0.0
H2477 H 0.04363 0.9336 0.10706 0.0
H2478 H 0.06197 0.96049 0.11086 0.0
H2479 H 0.07223 0.93603 0.10198 0.0
C2480 C 0.92934 0.28795 0.89178 0.0
C2481 C 0.93584 0.26852 0.89687 0.0
C2482 C 0.90879 0.28749 0.87808 0.0
C2483 C 0.89413 0.267 0.86874 0.0
C2484 C 0.90022 0.24726 0.87442 0.0
C2485 C 0.92094 0.24824 0.88852 0.0
C2486 C 0.9031 0.30902 0.87299 0.0
C2487 C 0.88558 0.225 0.86432 0.0
C2488 C 0.83349 0.26867 0.84542 0.0
C2489 C 0.83488 0.27138 0.82163 0.0
C2490 C 0.85242 0.26697 0.86085 0.0
C2491 C 0.87315 0.26656 0.85217 0.0
C2492 C 0.87423 0.26764 0.82785 0.0
C2493 C 0.85541 0.27057 0.8132 0.0
C2494 C 0.85045 0.2664 0.88667 0.0
C2495 C 0.89552 0.26645 0.81728 0.0
H2496 H 0.94083 0.30369 0.89799 0.0
H2497 H 0.92603 0.23313 0.8918 0.0
H2498 H 0.90153 0.30959 0.85372 0.0
H2499 H 0.88666 0.31033 0.87877 0.0
H2500 H 0.91602 0.32357 0.88202 0.0
H2501 H 0.89044 0.21161 0.87337 0.0
H2502 H 0.86764 0.22487 0.8656 0.0
H2503 H 0.88722 0.22141 0.84531 0.0
H2504 H 0.81773 0.26849 0.85233 0.0
H2505 H 0.857 0.27235 0.79509 0.0
H2506 H 0.86208 0.28099 0.89742 0.0
H2507 H 0.85548 0.25151 0.89223 0.0
H2508 H 0.83313 0.26642 0.89068 0.0
H2509 H 0.90763 0.28252 0.82222 0.0
H2510 H 0.89233 0.26271 0.79769 0.0
H2511 H 0.90353 0.25363 0.82415 0.0
C2512 C 0.54063 0.20604 0.5631 0.0
C2513 C 0.56061 0.21718 0.57759 0.0
C2514 C 0.53664 0.18296 0.55475 0.0
C2515 C 0.55286 0.17045 0.56107 0.0
C2516 C 0.57342 0.18196 0.57472 0.0
C2517 C 0.57694 0.20486 0.58272 0.0
C2518 C 0.51455 0.1718 0.54004 0.0
C2519 C 0.59152 0.1699 0.58181 0.0
C2520 C 0.5343 0.10821 0.5651 0.0
C2521 C 0.5421 0.09794 0.54547 0.0
C2522 C 0.5375 0.1315 0.57017 0.0
C2523 C 0.54815 0.14531 0.5549 0.0
C2524 C 0.55555 0.13494 0.53471 0.0
C2525 C 0.55274 0.11162 0.53047 0.0
C2526 C 0.52978 0.14139 0.59224 0.0
C2527 C 0.56597 0.14843 0.51714 0.0
H2528 H 0.52758 0.21503 0.55936 0.0
H2529 H 0.59237 0.21309 0.59401 0.0
H2530 H 0.51708 0.15974 0.5253 0.0
H2531 H 0.5035 0.16259 0.55117 0.0
H2532 H 0.50578 0.1839 0.53265 0.0
H2533 H 0.60615 0.18091 0.59332 0.0
H2534 H 0.58464 0.15618 0.59131 0.0
H2535 H 0.59749 0.16252 0.56582 0.0
H2536 H 0.52603 0.09798 0.57687 0.0
H2537 H 0.55839 0.10404 0.51493 0.0
H2538 H 0.51707 0.15105 0.58751 0.0
H2539 H 0.54417 0.15293 0.60356 0.0
H2540 H 0.52235 0.12863 0.60266 0.0
H2541 H 0.55319 0.15621 0.50839 0.0
H2542 H 0.57239 0.13826 0.50334 0.0
H2543 H 0.57997 0.16193 0.52618 0.0
C2544 C 0.56607 0.78452 0.39973 0.0
C2545 C 0.56238 0.76739 0.41334 0.0
C2546 C 0.5849 0.788 0.38758 0.0
C2547 C 0.59986 0.77336 0.38817 0.0
C2548 C 0.59589 0.75577 0.40163 0.0
C2549 C 0.57745 0.75329 0.41448 0.0
C2550 C 0.58873 0.80739 0.37412 0.0
C2551 C 0.61107 0.73956 0.40246 0.0
C2552 C 0.6344 0.77533 0.33689 0.0
C2553 C 0.65444 0.78983 0.34743 0.0
C2554 C 0.61702 0.76855 0.35029 0.0
C2555 C 0.61963 0.77674 0.37475 0.0
C2556 C 0.6405 0.79018 0.38571 0.0
C2557 C 0.65759 0.7966 0.37189 0.0
C2558 C 0.59529 0.75382 0.33795 0.0
C2559 C 0.6442 0.79962 0.41157 0.0
H2560 H 0.55444 0.79548 0.39899 0.0
H2561 H 0.5745 0.74001 0.425 0.0
H2562 H 0.60644 0.81666 0.37825 0.0
H2563 H 0.58547 0.80135 0.35488 0.0
H2564 H 0.57758 0.81893 0.37824 0.0
H2565 H 0.60427 0.72542 0.41144 0.0
H2566 H 0.61352 0.73312 0.3843 0.0
H2567 H 0.62782 0.74801 0.41204 0.0
H2568 H 0.63174 0.77048 0.3179 0.0
H2569 H 0.67288 0.80822 0.37997 0.0
H2570 H 0.5822 0.76368 0.33613 0.0
H2571 H 0.58928 0.74063 0.34848 0.0
H2572 H 0.5971 0.74607 0.32004 0.0
H2573 H 0.63655 0.81426 0.4139 0.0
H2574 H 0.66237 0.8049 0.41845 0.0
H2575 H 0.63616 0.78757 0.42236 0.0
C2576 C 0.04444 0.22713 0.38709 0.0
C2577 C 0.0452 0.24816 0.39941 0.0
C2578 C 0.04282 0.20842 0.39881 0.0
C2579 C 0.04107 0.21057 0.42331 0.0
C2580 C 0.04286 0.23194 0.43597 0.0
C2581 C 0.04519 0.25042 0.42395 0.0
C2582 C 0.04234 0.1863 0.38474 0.0
C2583 C 0.04171 0.23533 0.46221 0.0
C2584 C 0.00413 0.16495 0.44833 0.0
C2585 C 0.01967 0.15779 0.46363 0.0
C2586 C 0.01104 0.18123 0.43426 0.0
C2587 C 0.0342 0.19057 0.43512 0.0
C2588 C 0.05013 0.1822 0.44916 0.0
C2589 C 0.04267 0.16589 0.46326 0.0
C2590 C 0.99336 0.18944 0.41961 0.0
C2591 C 0.075 0.19082 0.44968 0.0
H2592 H 0.045 0.22523 0.36822 0.0
H2593 H 0.04623 0.26662 0.43374 0.0
H2594 H 0.05206 0.17658 0.39503 0.0
H2595 H 0.02477 0.17675 0.38051 0.0
H2596 H 0.04929 0.1881 0.36786 0.0
H2597 H 0.04023 0.25237 0.46878 0.0
H2598 H 0.0272 0.22356 0.46665 0.0
H2599 H 0.05716 0.23221 0.47182 0.0
H2600 H 0.98634 0.15844 0.44815 0.0
H2601 H 0.0548 0.16032 0.47487 0.0
H2602 H 0.99597 0.1874 0.40078 0.0
H2603 H 0.99481 0.20732 0.42544 0.0
H2604 H 0.97606 0.18057 0.42096 0.0
H2605 H 0.07967 0.18704 0.43178 0.0
H2606 H 0.08521 0.18343 0.46231 0.0
H2607 H 0.07937 0.20901 0.45456 0.0
C2608 C 0.60016 0.24682 0.23778 0.0
C2609 C 0.59296 0.26232 0.2247 0.0
C2610 C 0.62336 0.24734 0.24404 0.0
C2611 C 0.64005 0.26419 0.23781 0.0
C2612 C 0.63277 0.28011 0.22501 0.0
C2613 C 0.60957 0.27878 0.21838 0.0
C2614 C 0.63001 0.22965 0.25712 0.0
C2615 C 0.64955 0.29838 0.21778 0.0
C2616 C 0.69997 0.28047 0.27219 0.0
C2617 C 0.71253 0.26979 0.25736 0.0
C2618 C 0.67648 0.27814 0.26644 0.0
C2619 C 0.66502 0.26547 0.24483 0.0
C2620 C 0.67775 0.25479 0.22968 0.0
C2621 C 0.7011 0.25666 0.23635 0.0
C2622 C 0.66389 0.28946 0.28352 0.0
C2623 C 0.66676 0.24138 0.2063 0.0
H2624 H 0.58766 0.23373 0.24239 0.0
H2625 H 0.60439 0.29073 0.20806 0.0
H2626 H 0.64261 0.2223 0.24835 0.0
H2627 H 0.63792 0.23705 0.27531 0.0
H2628 H 0.61538 0.21626 0.25819 0.0
H2629 H 0.64138 0.31073 0.21008 0.0
H2630 H 0.66197 0.30698 0.23318 0.0
H2631 H 0.65894 0.29125 0.20447 0.0
H2632 H 0.70852 0.29044 0.28858 0.0
H2633 H 0.71059 0.24832 0.22475 0.0
H2634 H 0.65016 0.27715 0.28851 0.0
H2635 H 0.65603 0.30154 0.27495 0.0
H2636 H 0.67496 0.29821 0.29985 0.0
H2637 H 0.65556 0.22604 0.20944 0.0
H2638 H 0.67928 0.23679 0.19512 0.0
H2639 H 0.65622 0.25066 0.19639 0.0
C2640 C 0.52798 0.88662 0.90347 0.0
C2641 C 0.54672 0.87698 0.90609 0.0
C2642 C 0.52573 0.90457 0.91974 0.0
C2643 C 0.54307 0.91382 0.93873 0.0
C2644 C 0.56206 0.90406 0.94147 0.0
C2645 C 0.56347 0.88554 0.92538 0.0
C2646 C 0.5049 0.91386 0.91632 0.0
C2647 C 0.58104 0.91337 0.96126 0.0
C2648 C 0.54815 0.97447 0.9642 0.0
C2649 C 0.53846 0.97298 0.98517 0.0
C2650 C 0.54983 0.95547 0.94914 0.0
C2651 C 0.54174 0.9342 0.95504 0.0
C2652 C 0.53205 0.93256 0.97623 0.0
C2653 C 0.53037 0.95186 0.99085 0.0
C2654 C 0.56034 0.95819 0.92685 0.0
C2655 C 0.52288 0.91038 0.98324 0.0
H2656 H 0.51494 0.87998 0.88863 0.0
H2657 H 0.57801 0.87819 0.92744 0.0
H2658 H 0.49777 0.91596 0.93316 0.0
H2659 H 0.50929 0.93039 0.91078 0.0
H2660 H 0.49176 0.90313 0.90271 0.0
H2661 H 0.59555 0.90537 0.95971 0.0
H2662 H 0.58687 0.93139 0.96148 0.0
H2663 H 0.57501 0.911 0.97845 0.0
H2664 H 0.5545 0.99059 0.95946 0.0
H2665 H 0.52235 0.9503 0.00661 0.0
H2666 H 0.54793 0.95022 0.91121 0.0
H2667 H 0.5747 0.94984 0.92666 0.0
H2668 H 0.5664 0.9758 0.92504 0.0
H2669 H 0.50734 0.90218 0.97117 0.0
H2670 H 0.51884 0.91185 0.00164 0.0
H2671 H 0.53507 0.89953 0.98159 0.0
C2672 C 0.94973 0.76437 0.75095 0.0
C2673 C 0.95224 0.75445 0.72841 0.0
C2674 C 0.9288 0.76853 0.75637 0.0
C2675 C 0.90933 0.76169 0.73927 0.0
C2676 C 0.91182 0.75167 0.71642 0.0
C2677 C 0.93319 0.7486 0.71117 0.0
C2678 C 0.92754 0.78 0.78065 0.0
C2679 C 0.8918 0.74402 0.6975 0.0
C2680 C 0.85116 0.74987 0.76083 0.0
C2681 C 0.8433 0.76915 0.7581 0.0
C2682 C 0.87251 0.7474 0.75506 0.0
C2683 C 0.88638 0.76429 0.74553 0.0
C2684 C 0.87825 0.78364 0.74225 0.0
C2685 C 0.85711 0.78592 0.74884 0.0
C2686 C 0.8803 0.72665 0.75935 0.0
C2687 C 0.89196 0.80213 0.73201 0.0
H2688 H 0.9643 0.76916 0.76437 0.0
H2689 H 0.93485 0.74092 0.69371 0.0
H2690 H 0.91793 0.79319 0.77946 0.0
H2691 H 0.91858 0.76792 0.79087 0.0
H2692 H 0.94446 0.78743 0.79054 0.0
H2693 H 0.89594 0.73477 0.68142 0.0
H2694 H 0.87794 0.73329 0.70425 0.0
H2695 H 0.88551 0.75851 0.69249 0.0
H2696 H 0.84075 0.73681 0.76799 0.0
H2697 H 0.85117 0.80073 0.74623 0.0
H2698 H 0.89623 0.73092 0.77169 0.0
H2699 H 0.88376 0.71811 0.74254 0.0
H2700 H 0.86772 0.71506 0.7669 0.0
H2701 H 0.90681 0.81051 0.74498 0.0
H2702 H 0.88217 0.81458 0.72756 0.0
H2703 H 0.89824 0.79556 0.71584 0.0
C2704 C 0.07642 0.03112 0.85918 0.0
C2705 C 0.09804 0.04298 0.85771 0.0
C2706 C 0.06994 0.02623 0.88096 0.0
C2707 C 0.08507 0.03433 0.90202 0.0
C2708 C 0.10715 0.04592 0.90055 0.0
C2709 C 0.11353 0.04969 0.87832 0.0
C2710 C 0.04654 0.01308 0.88145 0.0
C2711 C 0.12375 0.05507 0.92252 0.0
C2712 C 0.0561 0.04686 0.95568 0.0
C2713 C 0.05854 0.02954 0.96837 0.0
C2714 C 0.06545 0.04899 0.93467 0.0
C2715 C 0.07684 0.03291 0.92548 0.0
C2716 C 0.07939 0.01533 0.93828 0.0
C2717 C 0.07049 0.01404 0.95981 0.0
C2718 C 0.06304 0.06848 0.92223 0.0
C2719 C 0.09061 0.99736 0.92877 0.0
H2720 H 0.06454 0.02563 0.84319 0.0
H2721 H 0.13029 0.05877 0.87717 0.0
H2722 H 0.04681 1.00079 0.8938 0.0
H2723 H 0.03586 0.02434 0.88777 0.0
H2724 H 0.03865 0.0043 0.86367 0.0
H2725 H 0.13961 0.06515 0.91856 0.0
H2726 H 0.1163 0.06543 0.93516 0.0
H2727 H 0.12783 0.04133 0.93144 0.0
H2728 H 0.04708 0.05902 0.96243 0.0
H2729 H 0.07215 1.00051 0.96949 0.0
H2730 H 0.05265 0.06268 0.90477 0.0
H2731 H 0.07978 0.07734 0.91906 0.0
H2732 H 0.0551 0.08031 0.93252 0.0
H2733 H 0.07958 0.98701 0.91323 0.0
H2734 H 0.09391 0.98656 0.94212 0.0
H2735 H 0.1067 0.00446 0.92272 0.0
C2736 C 0.78179 0.40143 0.57745 0.0
C2737 C 0.79304 0.39526 0.55869 0.0
C2738 C 0.78164 0.39034 0.59711 0.0
C2739 C 0.794 0.37361 0.59826 0.0
C2740 C 0.80536 0.36734 0.57921 0.0
C2741 C 0.80437 0.37804 0.55939 0.0
C2742 C 0.76855 0.39676 0.61662 0.0
C2743 C 0.81888 0.34959 0.57987 0.0
C2744 C 0.82372 0.36058 0.65273 0.0
C2745 C 0.813 0.33858 0.65179 0.0
C2746 C 0.81593 0.3734 0.6369 0.0
C2747 C 0.79702 0.3637 0.61991 0.0
C2748 C 0.7846 0.34224 0.6208 0.0
C2749 C 0.79293 0.32969 0.63679 0.0
C2750 C 0.82952 0.39632 0.63665 0.0
C2751 C 0.76362 0.33206 0.60371 0.0
H2752 H 0.77283 0.41467 0.57656 0.0
H2753 H 0.81304 0.37342 0.54473 0.0
H2754 H 0.75994 0.38198 0.62352 0.0
H2755 H 0.78018 0.40749 0.63147 0.0
H2756 H 0.75584 0.40598 0.61051 0.0
H2757 H 0.8286 0.34848 0.56472 0.0
H2758 H 0.8308 0.35275 0.59645 0.0
H2759 H 0.80744 0.33335 0.57941 0.0
H2760 H 0.83889 0.36736 0.66505 0.0
H2761 H 0.78439 0.31276 0.6369 0.0
H2762 H 0.81847 0.40809 0.63414 0.0
H2763 H 0.83948 0.39599 0.62166 0.0
H2764 H 0.84129 0.40256 0.65324 0.0
H2765 H 0.75248 0.34397 0.60246 0.0
H2766 H 0.75415 0.31674 0.609 0.0
H2767 H 0.76817 0.32794 0.58582 0.0
C2768 C 0.41697 0.00198 0.38551 0.0
C2769 C 0.42963 0.00837 0.36776 0.0
C2770 C 0.4271 0.00583 0.40894 0.0
C2771 C 0.44989 0.01677 0.41412 0.0
C2772 C 0.46216 0.02457 0.39629 0.0
C2773 C 0.45188 0.01982 0.3731 0.0
C2774 C 0.41392 0.99747 0.42793 0.0
C2775 C 0.48653 0.03657 0.40131 0.0
C2776 C 0.48235 0.03745 0.47372 0.0
C2777 C 0.49474 0.02109 0.47532 0.0
C2778 C 0.46598 0.03552 0.45447 0.0
C2779 C 0.46224 0.01675 0.43706 0.0
C2780 C 0.47369 0.99947 0.43965 0.0
C2781 C 0.49015 0.00202 0.45884 0.0
C2782 C 0.45434 0.05436 0.45167 0.0
C2783 C 0.46985 0.97919 0.42125 0.0
H2784 H 0.3995 0.99354 0.38096 0.0
H2785 H 0.46117 0.02526 0.3591 0.0
H2786 H 0.42146 0.98478 0.43569 0.0
H2787 H 0.41475 0.01113 0.44245 0.0
H2788 H 0.39602 0.99015 0.42105 0.0
H2789 H 0.49173 0.04561 0.38666 0.0
H2790 H 0.48981 0.04852 0.41782 0.0
H2791 H 0.49726 0.02441 0.4035 0.0
H2792 H 0.48645 0.0523 0.48663 0.0
H2793 H 0.49996 0.9895 0.46061 0.0
H2794 H 0.43593 0.0481 0.44748 0.0
H2795 H 0.46005 0.06261 0.4367 0.0
H2796 H 0.45791 0.06688 0.46781 0.0
H2797 H 0.45178 0.97106 0.41802 0.0
H2798 H 0.47966 0.96703 0.42659 0.0
H2799 H 0.47474 0.98398 0.40429 0.0
C2800 C 0.78435 0.7239 0.09753 0.0
C2801 C 0.76576 0.70648 0.08967 0.0
C2802 C 0.78677 0.73621 0.1202 0.0
C2803 C 0.76997 0.73117 0.13502 0.0
C2804 C 0.75065 0.71435 0.12656 0.0
C2805 C 0.7489 0.7021 0.10413 0.0
C2806 C 0.80775 0.75383 0.12868 0.0
C2807 C 0.73207 0.70883 0.1415 0.0
C2808 C 0.7844 0.73967 0.20158 0.0
C2809 C 0.77528 0.75794 0.20857 0.0
C2810 C 0.78356 0.73143 0.1777 0.0
C2811 C 0.77338 0.74168 0.16017 0.0
C2812 C 0.76477 0.76059 0.16698 0.0
C2813 C 0.7659 0.76856 0.19113 0.0
C2814 C 0.79287 0.71119 0.1713 0.0
C2815 C 0.75422 0.77226 0.1488 0.0
H2816 H 0.79742 0.72731 0.08638 0.0
H2817 H 0.7343 0.6889 0.0979 0.0
H2818 H 0.80356 0.76894 0.13764 0.0
H2819 H 0.8188 0.7478 0.14176 0.0
H2820 H 0.81729 0.75823 0.11397 0.0
H2821 H 0.7181 0.69533 0.13226 0.0
H2822 H 0.73879 0.70378 0.15817 0.0
H2823 H 0.72521 0.72365 0.14636 0.0
H2824 H 0.79196 0.73144 0.21481 0.0
H2825 H 0.75932 0.783 0.19628 0.0
H2826 H 0.80512 0.71443 0.15863 0.0
H2827 H 0.77906 0.69735 0.16251 0.0
H2828 H 0.80131 0.70588 0.18698 0.0
H2829 H 0.76703 0.77916 0.13793 0.0
H2830 H 0.74711 0.7859 0.15698 0.0
H2831 H 0.74065 0.76043 0.13667 0.0
C2832 C 0.09242 0.05667 0.71042 0.0
C2833 C 0.10231 0.03942 0.71645 0.0
C2834 C 0.08408 0.0573 0.68682 0.0
C2835 C 0.08496 0.03986 0.66896 0.0
C2836 C 0.09468 0.0222 0.67516 0.0
C2837 C 0.10364 0.02243 0.69878 0.0
C2838 C 0.07463 0.07681 0.68095 0.0
C2839 C 0.09593 0.0032 0.65682 0.0
C2840 C 0.04402 0.0318 0.61215 0.0
C2841 C 0.05822 0.03984 0.59625 0.0
C2842 C 0.05256 0.03145 0.63577 0.0
C2843 C 0.0757 0.0401 0.64386 0.0
C2844 C 0.08993 0.04887 0.62789 0.0
C2845 C 0.08106 0.04834 0.60422 0.0
C2846 C 0.03702 0.0211 0.65187 0.0
C2847 C 0.11449 0.059 0.63579 0.0
H2848 H 0.09188 0.07004 0.72408 0.0
H2849 H 0.11167 0.0093 0.70347 0.0
H2850 H 0.08218 0.08357 0.66598 0.0
H2851 H 0.05626 0.07147 0.67539 0.0
H2852 H 0.07768 0.09021 0.69624 0.0
H2853 H 0.10116 0.98945 0.66492 0.0
H2854 H 0.07942 0.99677 0.64573 0.0
H2855 H 0.10826 0.009 0.64496 0.0
H2856 H 0.02642 0.02489 0.60582 0.0
H2857 H 0.092 0.0546 0.59186 0.0
H2858 H 0.03633 0.03348 0.66714 0.0
H2859 H 0.04356 0.00754 0.65898 0.0
H2860 H 0.01969 0.01434 0.64268 0.0
H2861 H 0.11608 0.0744 0.64827 0.0
H2862 H 0.1237 0.06305 0.62075 0.0
H2863 H 0.12271 0.04772 0.64533 0.0
C2864 C 0.80744 0.4005 0.40684 0.0
C2865 C 0.79266 0.3975 0.4235 0.0
C2866 C 0.80868 0.38269 0.39037 0.0
C2867 C 0.79428 0.36205 0.39055 0.0
C2868 C 0.77955 0.35896 0.40762 0.0
C2869 C 0.77897 0.37688 0.42407 0.0
C2870 C 0.82477 0.38607 0.3724 0.0
C2871 C 0.76409 0.33696 0.40813 0.0
C2872 C 0.77337 0.32692 0.33251 0.0
C2873 C 0.78706 0.31153 0.33293 0.0
C2874 C 0.77606 0.34385 0.35113 0.0
C2875 C 0.79209 0.3446 0.37087 0.0
C2876 C 0.80529 0.32856 0.37193 0.0
C2877 C 0.80282 0.31221 0.35255 0.0
C2878 C 0.76179 0.36093 0.34964 0.0
C2879 C 0.82217 0.32887 0.39315 0.0
H2880 H 0.81833 0.41651 0.40711 0.0
H2881 H 0.76775 0.37487 0.43738 0.0
H2882 H 0.83378 0.37236 0.37051 0.0
H2883 H 0.81521 0.38613 0.35493 0.0
H2884 H 0.83735 0.4019 0.37723 0.0
H2885 H 0.75426 0.33734 0.42324 0.0
H2886 H 0.75217 0.33209 0.39153 0.0
H2887 H 0.774 0.32399 0.40928 0.0
H2888 H 0.76094 0.3261 0.31737 0.0
H2889 H 0.81324 0.30007 0.3527 0.0
H2890 H 0.7727 0.37768 0.35177 0.0
H2891 H 0.75125 0.36063 0.36415 0.0
H2892 H 0.7506 0.35814 0.33256 0.0
H2893 H 0.83725 0.34202 0.39307 0.0
H2894 H 0.8275 0.31289 0.39306 0.0
H2895 H 0.81523 0.33259 0.40984 0.0
C2896 C 0.40172 0.03446 0.22449 0.0
C2897 C 0.41168 0.03104 0.24633 0.0
C2898 C 0.41176 0.03045 0.2041 0.0
C2899 C 0.43147 0.0219 0.20572 0.0
C2900 C 0.44191 0.01906 0.22792 0.0
C2901 C 0.43223 0.02437 0.24802 0.0
C2902 C 0.40103 0.03478 0.18081 0.0
C2903 C 0.46301 0.00998 0.23077 0.0
C2904 C 0.44384 0.98258 0.15687 0.0
C2905 C 0.46374 0.99482 0.15121 0.0
C2906 C 0.4321 0.9918 0.1735 0.0
C2907 C 0.44028 0.01396 0.18425 0.0
C2908 C 0.45935 0.02698 0.17721 0.0
C2909 C 0.47102 0.01718 0.16079 0.0
C2910 C 0.41237 0.9771 0.18129 0.0
C2911 C 0.46834 0.05071 0.18829 0.0
H2912 H 0.38602 0.03998 0.2233 0.0
H2913 H 0.44032 0.02216 0.26497 0.0
H2914 H 0.41383 0.04464 0.17187 0.0
H2915 H 0.39406 0.01895 0.16901 0.0
H2916 H 0.38726 0.0437 0.18301 0.0
H2917 H 0.46415 0.00187 0.24686 0.0
H2918 H 0.464 0.99782 0.21541 0.0
H2919 H 0.47788 0.02378 0.23271 0.0
H2920 H 0.43802 0.96542 0.14906 0.0
H2921 H 0.48647 0.02669 0.15647 0.0
H2922 H 0.39796 0.98531 0.18187 0.0
H2923 H 0.41724 0.97377 0.19941 0.0
H2924 H 0.40676 0.96106 0.16945 0.0
H2925 H 0.45444 0.0596 0.18944 0.0
H2926 H 0.48087 0.05953 0.17824 0.0
H2927 H 0.47656 0.05129 0.20655 0.0
C2928 C 0.75327 0.71741 0.9343 0.0
C2929 C 0.7714 0.71163 0.94704 0.0
C2930 C 0.75539 0.72494 0.91249 0.0
C2931 C 0.77644 0.72767 0.90391 0.0
C2932 C 0.79495 0.72233 0.91711 0.0
C2933 C 0.79203 0.71388 0.9383 0.0
C2934 C 0.73495 0.72932 0.89834 0.0
C2935 C 0.81805 0.72638 0.90947 0.0
C2936 C 0.78126 0.7319 0.83929 0.0
C2937 C 0.78264 0.75454 0.83884 0.0
C2938 C 0.77836 0.72277 0.86014 0.0
C2939 C 0.77925 0.7369 0.88156 0.0
C2940 C 0.78204 0.75988 0.88151 0.0
C2941 C 0.78211 0.76813 0.85998 0.0
C2942 C 0.77352 0.698 0.85903 0.0
C2943 C 0.78458 0.77588 0.90402 0.0
H2944 H 0.73721 0.71522 0.94097 0.0
H2945 H 0.80602 0.70941 0.94833 0.0
H2946 H 0.73768 0.74692 0.89592 0.0
H2947 H 0.73204 0.71943 0.88049 0.0
H2948 H 0.71959 0.72523 0.90695 0.0
H2949 H 0.82974 0.71846 0.9198 0.0
H2950 H 0.81735 0.72023 0.89047 0.0
H2951 H 0.82507 0.74442 0.91207 0.0
H2952 H 0.78119 0.72107 0.82308 0.0
H2953 H 0.78146 0.78526 0.85994 0.0
H2954 H 0.75758 0.69242 0.86619 0.0
H2955 H 0.787 0.69298 0.87012 0.0
H2956 H 0.77206 0.68933 0.84072 0.0
H2957 H 0.76777 0.77694 0.90885 0.0
H2958 H 0.79336 0.79272 0.90183 0.0
H2959 H 0.79413 0.77051 0.91891 0.0
C2960 C 0.82111 0.07153 0.05871 0.0
C2961 C 0.82223 0.09206 0.07194 0.0
C2962 C 0.83753 0.06852 0.04447 0.0
C2963 C 0.85602 0.08618 0.04451 0.0
C2964 C 0.85784 0.10666 0.05873 0.0
C2965 C 0.84089 0.10934 0.07247 0.0
C2966 C 0.83475 0.04645 0.02918 0.0
C2967 C 0.87718 0.12587 0.05874 0.0
C2968 C 0.90325 0.06118 0.02776 0.0
C2969 C 0.9013 0.06203 0.00338 0.0
C2970 C 0.89018 0.07143 0.04198 0.0
C2971 C 0.87437 0.08211 0.03141 0.0
C2972 C 0.8736 0.08471 0.0073 0.0
C2973 C 0.88733 0.07475 0.99356 0.0
C2974 C 0.89169 0.06894 0.06787 0.0
C2975 C 0.85673 0.09579 0.99527 0.0
H2976 H 0.80642 0.05837 0.05781 0.0
H2977 H 0.84139 0.1254 0.08234 0.0
H2978 H 0.84034 0.04834 0.01172 0.0
H2979 H 0.84511 0.03641 0.03812 0.0
H2980 H 0.817 0.03715 0.02621 0.0
H2981 H 0.87574 0.14087 0.07047 0.0
H2982 H 0.89326 0.12134 0.06462 0.0
H2983 H 0.87793 0.12992 0.04057 0.0
H2984 H 0.91387 0.05131 0.03559 0.0
H2985 H 0.88626 0.07598 0.97487 0.0
H2986 H 0.87694 0.05654 0.07077 0.0
H2987 H 0.89142 0.08476 0.0788 0.0
H2988 H 0.90715 0.06346 0.07416 0.0
H2989 H 0.84106 0.08325 0.98859 0.0
H2990 H 0.86307 0.10297 0.97991 0.0
H2991 H 0.85243 0.10896 0.00749 0.0
C2992 C 0.3751 0.45069 0.05866 0.0
C2993 C 0.36763 0.43 0.0448 0.0
C2994 C 0.39745 0.4621 0.06032 0.0
C2995 C 0.41236 0.45283 0.04712 0.0
C2996 C 0.40516 0.43132 0.03413 0.0
C2997 C 0.3828 0.42001 0.03331 0.0
C2998 C 0.40457 0.48477 0.07476 0.0
C2999 C 0.42065 0.42092 0.01991 0.0
C3000 C 0.45533 0.49496 0.02473 0.0
C3001 C 0.47488 0.49541 0.03991 0.0
C3002 C 0.43506 0.48072 0.02658 0.0
C3003 C 0.43422 0.46688 0.04435 0.0
C3004 C 0.45392 0.46728 0.05979 0.0
C3005 C 0.47408 0.48151 0.05731 0.0
C3006 C 0.41453 0.48042 0.00941 0.0
C3007 C 0.45363 0.45314 0.07926 0.0
H3008 H 0.3632 0.45834 0.06745 0.0
H3009 H 0.3768 0.40404 0.02245 0.0
H3010 H 0.42149 0.48699 0.08492 0.0
H3011 H 0.4055 0.49744 0.06277 0.0
H3012 H 0.39255 0.48779 0.08727 0.0
H3013 H 0.41246 0.40408 0.01077 0.0
H3014 H 0.42627 0.43134 0.00647 0.0
H3015 H 0.43588 0.41989 0.03161 0.0
H3016 H 0.45596 0.50538 0.01097 0.0
H3017 H 0.48921 0.48183 0.06909 0.0
H3018 H 0.40137 0.48571 0.01911 0.0
H3019 H 0.40748 0.4634 0.00019 0.0
H3020 H 0.41827 0.49145 0.99595 0.0
H3021 H 0.44479 0.45987 0.09336 0.0
H3022 H 0.47084 0.45273 0.0872 0.0
H3023 H 0.44434 0.436 0.07262 0.0
C3024 C 0.37187 0.56689 0.74977 0.0
C3025 C 0.39218 0.56839 0.76426 0.0
C3026 C 0.36014 0.58404 0.75175 0.0
C3027 C 0.36875 0.60292 0.7689 0.0
C3028 C 0.38956 0.60473 0.78315 0.0
C3029 C 0.4011 0.58754 0.78049 0.0
C3030 C 0.3384 0.58184 0.73574 0.0
C3031 C 0.39908 0.62426 0.80215 0.0
C3032 C 0.34839 0.65675 0.77222 0.0
C3033 C 0.33471 0.65432 0.79012 0.0
C3034 C 0.35857 0.63953 0.76388 0.0
C3035 C 0.35504 0.61969 0.7739 0.0
C3036 C 0.33995 0.61673 0.79077 0.0
C3037 C 0.3298 0.63398 0.79844 0.0
C3038 C 0.37426 0.64309 0.74557 0.0
C3039 C 0.33563 0.59587 0.80191 0.0
H3040 H 0.36508 0.55225 0.73693 0.0
H3041 H 0.41678 0.58877 0.79175 0.0
H3042 H 0.32449 0.58291 0.74635 0.0
H3043 H 0.33985 0.59567 0.72522 0.0
H3044 H 0.33388 0.56602 0.72345 0.0
H3045 H 0.41655 0.6244 0.80975 0.0
H3046 H 0.39893 0.63997 0.79511 0.0
H3047 H 0.38845 0.62367 0.8166 0.0
H3048 H 0.3523 0.67252 0.76588 0.0
H3049 H 0.31906 0.63211 0.81218 0.0
H3050 H 0.37052 0.62862 0.73144 0.0
H3051 H 0.39182 0.64483 0.75388 0.0
H3052 H 0.37308 0.65813 0.73746 0.0
H3053 H 0.32826 0.5815 0.78813 0.0
H3054 H 0.32404 0.59656 0.81541 0.0
H3055 H 0.35168 0.59296 0.81043 0.0
C3056 C 0.1829 0.61223 0.53143 0.0
C3057 C 0.19931 0.60014 0.53623 0.0
C3058 C 0.16031 0.60179 0.52741 0.0
C3059 C 0.15448 0.57903 0.52874 0.0
C3060 C 0.17099 0.56669 0.53322 0.0
C3061 C 0.19342 0.57746 0.53672 0.0
C3062 C 0.14276 0.61523 0.52289 0.0
C3063 C 0.16492 0.54239 0.53525 0.0
C3064 C 0.09999 0.55737 0.54911 0.0
C3065 C 0.08777 0.54565 0.52807 0.0
C3066 C 0.12184 0.5687 0.5495 0.0
C3067 C 0.1311 0.56847 0.52808 0.0
C3068 C 0.1186 0.55693 0.5066 0.0
C3069 C 0.09688 0.54512 0.50694 0.0
C3070 C 0.13505 0.5804 0.57283 0.0
C3071 C 0.12814 0.55716 0.48348 0.0
H3072 H 0.18768 0.62983 0.53106 0.0
H3073 H 0.20627 0.56828 0.54067 0.0
H3074 H 0.12975 0.60655 0.50803 0.0
H3075 H 0.1342 0.61741 0.53877 0.0
H3076 H 0.15021 0.63183 0.51881 0.0
H3077 H 0.17995 0.53542 0.5393 0.0
H3078 H 0.15413 0.53972 0.54938 0.0
H3079 H 0.15514 0.53308 0.51848 0.0
H3080 H 0.09236 0.55767 0.56526 0.0
H3081 H 0.08715 0.53554 0.49091 0.0
H3082 H 0.14177 0.598 0.57167 0.0
H3083 H 0.1496 0.57284 0.57719 0.0
H3084 H 0.12474 0.57952 0.58757 0.0
H3085 H 0.13207 0.57433 0.47948 0.0
H3086 H 0.11631 0.54672 0.46853 0.0
H3087 H 0.14409 0.55129 0.48479 0.0
C3088 C 0.72959 0.98204 0.73583 0.0
C3089 C 0.71104 0.98672 0.74593 0.0
C3090 C 0.73901 0.96473 0.7422 0.0
C3091 C 0.72955 0.95249 0.75908 0.0
C3092 C 0.71022 0.95672 0.76853 0.0
C3093 C 0.70104 0.97373 0.76155 0.0
C3094 C 0.75913 0.95987 0.73129 0.0
C3095 C 0.70006 0.94437 0.78721 0.0
C3096 C 0.73533 0.89849 0.77527 0.0
C3097 C 0.74785 0.90548 0.79762 0.0
C3098 C 0.73152 0.91385 0.76062 0.0
C3099 C 0.74043 0.93639 0.7689 0.0
C3100 C 0.75476 0.94331 0.79057 0.0
C3101 C 0.75817 0.9276 0.80493 0.0
C3102 C 0.71615 0.90622 0.73752 0.0
C3103 C 0.76481 0.9674 0.79944 0.0
H3104 H 0.73687 0.9921 0.72337 0.0
H3105 H 0.6867 0.97758 0.76936 0.0
H3106 H 0.77245 0.95798 0.74503 0.0
H3107 H 0.75403 0.94406 0.71907 0.0
H3108 H 0.76627 0.973 0.72116 0.0
H3109 H 0.68412 0.94889 0.7913 0.0
H3110 H 0.69662 0.9263 0.78146 0.0
H3111 H 0.71207 0.94817 0.80376 0.0
H3112 H 0.7282 0.88108 0.76952 0.0
H3113 H 0.76878 0.93253 0.82182 0.0
H3114 H 0.72231 0.91572 0.72359 0.0
H3115 H 0.69918 0.9091 0.73986 0.0
H3116 H 0.71455 0.88835 0.73142 0.0
H3117 H 0.77248 0.97558 0.78532 0.0
H3118 H 0.77778 0.96968 0.81508 0.0
H3119 H 0.75137 0.97588 0.80447 0.0
C3120 C 0.7435 0.93394 0.53592 0.0
C3121 C 0.73916 0.91274 0.54229 0.0
C3122 C 0.72601 0.9445 0.53031 0.0
C3123 C 0.70368 0.93389 0.53191 0.0
C3124 C 0.69926 0.91289 0.53938 0.0
C3125 C 0.71709 0.90235 0.54413 0.0
C3126 C 0.73153 0.96692 0.52239 0.0
C3127 C 0.67571 0.90136 0.5418 0.0
C3128 C 0.66524 0.97417 0.53176 0.0
C3129 C 0.65717 0.97147 0.50766 0.0
C3130 C 0.67922 0.96085 0.54036 0.0
C3131 C 0.68508 0.94452 0.52443 0.0
C3132 C 0.67552 0.94063 0.5004 0.0
C3133 C 0.66171 0.95425 0.49229 0.0
C3134 C 0.68881 0.96523 0.56617 0.0
C3135 C 0.68139 0.92346 0.48275 0.0
H3136 H 0.76057 0.94205 0.53453 0.0
H3137 H 0.71378 0.88601 0.54926 0.0
H3138 H 0.72007 0.96765 0.50636 0.0
H3139 H 0.72931 0.97971 0.53653 0.0
H3140 H 0.74909 0.97115 0.51846 0.0
H3141 H 0.67553 0.88672 0.551 0.0
H3142 H 0.66714 0.91286 0.55167 0.0
H3143 H 0.66585 0.89585 0.52402 0.0
H3144 H 0.66161 0.98744 0.54367 0.0
H3145 H 0.65507 0.95191 0.47372 0.0
H3146 H 0.7066 0.97419 0.56818 0.0
H3147 H 0.68849 0.94951 0.57337 0.0
H3148 H 0.6795 0.9754 0.57686 0.0
H3149 H 0.69815 0.93006 0.47776 0.0
H3150 H 0.669 0.91919 0.46645 0.0
H3151 H 0.6823 0.90815 0.49035 0.0
C3152 C 0.37378 0.43 0.74022 0.0
C3153 C 0.39068 0.43935 0.75905 0.0
C3154 C 0.35822 0.41051 0.74153 0.0
C3155 C 0.35955 0.40048 0.76228 0.0
C3156 C 0.37654 0.41014 0.78143 0.0
C3157 C 0.39201 0.42944 0.7795 0.0
C3158 C 0.34047 0.40057 0.7207 0.0
C3159 C 0.37889 0.39973 0.80365 0.0
C3160 C 0.3098 0.35916 0.77606 0.0
C3161 C 0.3151 0.33902 0.76787 0.0
C3162 C 0.32372 0.37932 0.77361 0.0
C3163 C 0.34386 0.37934 0.76363 0.0
C3164 C 0.34945 0.35909 0.75562 0.0
C3165 C 0.33481 0.33926 0.75736 0.0
C3166 C 0.31711 0.40063 0.78207 0.0
C3167 C 0.371 0.35828 0.74534 0.0
H3168 H 0.37298 0.43775 0.7244 0.0
H3169 H 0.40527 0.43677 0.79394 0.0
H3170 H 0.34141 0.38327 0.71471 0.0
H3171 H 0.32356 0.4002 0.72604 0.0
H3172 H 0.34223 0.40995 0.70557 0.0
H3173 H 0.39122 0.41065 0.81787 0.0
H3174 H 0.36248 0.39565 0.81033 0.0
H3175 H 0.38454 0.38405 0.79963 0.0
H3176 H 0.29498 0.35926 0.78467 0.0
H3177 H 0.33924 0.32387 0.75099 0.0
H3178 H 0.31666 0.41077 0.76756 0.0
H3179 H 0.32982 0.41034 0.79669 0.0
H3180 H 0.30042 0.39781 0.78838 0.0
H3181 H 0.37008 0.36418 0.72793 0.0
H3182 H 0.37423 0.34134 0.74288 0.0
H3183 H 0.38553 0.36932 0.75694 0.0
C3184 C 0.22243 0.62551 0.2385 0.0
C3185 C 0.2018 0.61741 0.24577 0.0
C3186 C 0.23358 0.64726 0.24641 0.0
C3187 C 0.22401 0.66034 0.26259 0.0
C3188 C 0.20362 0.65185 0.27065 0.0
C3189 C 0.19244 0.63042 0.26172 0.0
C3190 C 0.25514 0.65635 0.23706 0.0
C3191 C 0.19329 0.66565 0.28797 0.0
C3192 C 0.26349 0.71299 0.28966 0.0
C3193 C 0.25707 0.72672 0.27416 0.0
C3194 C 0.25157 0.69128 0.28735 0.0
C3195 C 0.23375 0.6837 0.26863 0.0
C3196 C 0.22645 0.69815 0.254 0.0
C3197 C 0.23817 0.7198 0.25728 0.0
C3198 C 0.25919 0.67608 0.30344 0.0
C3199 C 0.20827 0.69027 0.23304 0.0
H3200 H 0.22952 0.61497 0.22638 0.0
H3201 H 0.17664 0.62362 0.26764 0.0
H3202 H 0.25386 0.67154 0.22933 0.0
H3203 H 0.26924 0.6609 0.25173 0.0
H3204 H 0.25932 0.64427 0.22334 0.0
H3205 H 0.17943 0.65548 0.29533 0.0
H3206 H 0.20616 0.67476 0.30276 0.0
H3207 H 0.18644 0.67807 0.27894 0.0
H3208 H 0.27866 0.71871 0.30224 0.0
H3209 H 0.23417 0.7306 0.24483 0.0
H3210 H 0.26782 0.66464 0.29359 0.0
H3211 H 0.24454 0.66592 0.30959 0.0
H3212 H 0.27099 0.68536 0.31905 0.0
H3213 H 0.21477 0.68042 0.21904 0.0
H3214 H 0.20289 0.70421 0.22547 0.0
H3215 H 0.19334 0.67949 0.23794 0.0
C3216 C 0.5249 0.6973 0.49674 0.0
C3217 C 0.50521 0.6984 0.48228 0.0
C3218 C 0.52869 0.6771 0.50366 0.0
C3219 C 0.51217 0.65718 0.4967 0.0
C3220 C 0.49193 0.65836 0.48276 0.0
C3221 C 0.4889 0.67865 0.47545 0.0
C3222 C 0.55094 0.67699 0.51758 0.0
C3223 C 0.47318 0.63816 0.47578 0.0
C3224 C 0.52711 0.59949 0.49268 0.0
C3225 C 0.52334 0.59299 0.51471 0.0
C3226 C 0.5244 0.6204 0.48707 0.0
C3227 C 0.51631 0.63509 0.50321 0.0
C3228 C 0.51196 0.62832 0.52534 0.0
C3229 C 0.51611 0.60782 0.53102 0.0
C3230 C 0.53036 0.62681 0.46374 0.0
C3231 C 0.50257 0.64259 0.54302 0.0
H3232 H 0.53786 0.71219 0.50195 0.0
H3233 H 0.47356 0.67906 0.46443 0.0
H3234 H 0.54841 0.66863 0.53329 0.0
H3235 H 0.5605 0.66755 0.50642 0.0
H3236 H 0.56124 0.69391 0.52351 0.0
H3237 H 0.45902 0.64129 0.46389 0.0
H3238 H 0.47944 0.62431 0.46681 0.0
H3239 H 0.46676 0.63277 0.4919 0.0
H3240 H 0.53253 0.5883 0.47982 0.0
H3241 H 0.51293 0.60303 0.54802 0.0
H3242 H 0.54237 0.64302 0.46671 0.0
H3243 H 0.51511 0.62862 0.45261 0.0
H3244 H 0.53798 0.61443 0.45385 0.0
H3245 H 0.51567 0.65738 0.55087 0.0
H3246 H 0.49673 0.63368 0.55753 0.0
H3247 H 0.48828 0.6484 0.53421 0.0
C3248 C 0.65173 0.30588 0.64824 0.0
C3249 C 0.63 0.30298 0.65473 0.0
C3250 C 0.67032 0.30392 0.66406 0.0
C3251 C 0.66729 0.29873 0.68701 0.0
C3252 C 0.64533 0.29557 0.69354 0.0
C3253 C 0.62712 0.29786 0.67749 0.0
C3254 C 0.69326 0.30722 0.65611 0.0
C3255 C 0.64102 0.28996 0.71764 0.0
C3256 C 0.71168 0.27421 0.72074 0.0
C3257 C 0.72482 0.29277 0.73566 0.0
C3258 C 0.6931 0.2759 0.70482 0.0
C3259 C 0.687 0.29659 0.70413 0.0
C3260 C 0.69981 0.31522 0.71989 0.0
C3261 C 0.71863 0.31312 0.73526 0.0
C3262 C 0.68003 0.25551 0.68866 0.0
C3263 C 0.69387 0.33752 0.72029 0.0
H3264 H 0.65425 0.30971 0.63074 0.0
H3265 H 0.61048 0.29548 0.6828 0.0
H3266 H 0.70552 0.31969 0.66902 0.0
H3267 H 0.69918 0.29153 0.65533 0.0
H3268 H 0.69322 0.31265 0.63844 0.0
H3269 H 0.6228 0.28532 0.71901 0.0
H3270 H 0.64891 0.27615 0.72185 0.0
H3271 H 0.64872 0.30444 0.73121 0.0
H3272 H 0.7161 0.25832 0.72135 0.0
H3273 H 0.72857 0.32745 0.74698 0.0
H3274 H 0.68061 0.25804 0.66998 0.0
H3275 H 0.66213 0.25242 0.6915 0.0
H3276 H 0.68669 0.24062 0.6915 0.0
H3277 H 0.69727 0.34392 0.70359 0.0
H3278 H 0.70367 0.34966 0.73533 0.0
H3279 H 0.67571 0.33615 0.72147 0.0
C3280 C 0.0041 0.34896 0.99353 0.0
C3281 C 0.01718 0.34373 0.97585 0.0
C3282 C 0.00447 0.37133 0.00274 0.0
C3283 C 0.01805 0.38913 0.99404 0.0
C3284 C 0.03177 0.38379 0.97685 0.0
C3285 C 0.03127 0.36152 0.96825 0.0
C3286 C 0.98985 0.37592 0.02138 0.0
C3287 C 0.04686 0.4017 0.96704 0.0
C3288 C 0.00395 0.44702 0.99652 0.0
C3289 C 0.02109 0.46013 0.01354 0.0
C3290 C 0.00241 0.42399 0.99047 0.0
C3291 C 0.01787 0.41329 0.00222 0.0
C3292 C 0.03457 0.42639 0.02019 0.0
C3293 C 0.03616 0.44947 0.02533 0.0
C3294 C 0.98475 0.41125 0.97071 0.0
C3295 C 0.05083 0.41601 0.03415 0.0
H3296 H 0.99297 0.33565 -0.00043 0.0
H3297 H 0.04173 0.35803 0.95485 0.0
H3298 H 0.99946 0.38879 0.03586 0.0
H3299 H 0.97556 0.3823 0.01352 0.0
H3300 H 0.98303 0.36086 0.02895 0.0
H3301 H 0.05481 0.395 0.95212 0.0
H3302 H 0.0372 0.41364 0.96083 0.0
H3303 H 0.06037 0.41096 0.98113 0.0
H3304 H 0.99223 0.45494 0.98719 0.0
H3305 H 0.04925 0.45923 0.0388 0.0
H3306 H 0.97409 0.39724 0.97707 0.0
H3307 H 0.99297 0.40422 0.95622 0.0
H3308 H 0.9738 0.42171 0.96345 0.0
H3309 H 0.04141 0.40407 0.04421 0.0
H3310 H 0.06348 0.42843 0.04677 0.0
H3311 H 0.05977 0.40666 0.02215 0.0
C3312 C 0.00285 0.80575 0.17177 0.0
C3313 C 0.00285 0.79115 0.15129 0.0
C3314 C 0.98322 0.80556 0.18242 0.0
C3315 C 0.96331 0.78985 0.17275 0.0
C3316 C 0.96281 0.7765 0.1508 0.0
C3317 C 0.98263 0.77735 0.14029 0.0
C3318 C 0.98452 0.82076 0.2052 0.0
C3319 C 0.94183 0.75994 0.13945 0.0
C3320 C 0.92857 0.75986 0.21444 0.0
C3321 C 0.90848 0.76731 0.21142 0.0
C3322 C 0.94679 0.76792 0.20281 0.0
C3323 C 0.94505 0.78394 0.18768 0.0
C3324 C 0.92539 0.7927 0.18582 0.0
C3325 C 0.9073 0.78428 0.19777 0.0
C3326 C 0.9675 0.7583 0.20571 0.0
C3327 C 0.92323 0.81044 0.17072 0.0
H3328 H 0.01855 0.81644 0.18027 0.0
H3329 H 0.98269 0.76604 0.12447 0.0
H3330 H 0.96851 0.82619 0.20664 0.0
H3331 H 0.98783 0.81188 0.22031 0.0
H3332 H 0.99835 0.83556 0.20674 0.0
H3333 H 0.94412 0.75092 0.12234 0.0
H3334 H 0.93688 0.74776 0.15145 0.0
H3335 H 0.92777 0.76843 0.13634 0.0
H3336 H 0.92966 0.74696 0.22523 0.0
H3337 H 0.89184 0.79014 0.19546 0.0
H3338 H 0.98263 0.77165 0.21172 0.0
H3339 H 0.96983 0.74964 0.18845 0.0
H3340 H 0.96646 0.74643 0.21863 0.0
H3341 H 0.93713 0.82505 0.17677 0.0
H3342 H 0.90699 0.81568 0.17129 0.0
H3343 H 0.92467 0.80448 0.15212 0.0
C3344 C 0.54264 0.31815 0.14013 0.0
C3345 C 0.52368 0.31084 0.15091 0.0
C3346 C 0.54439 0.33674 0.12839 0.0
C3347 C 0.52634 0.34781 0.12653 0.0
C3348 C 0.50689 0.34013 0.13699 0.0
C3349 C 0.50598 0.32197 0.14945 0.0
C3350 C 0.5658 0.3448 0.11836 0.0
C3351 C 0.48685 0.3507 0.13455 0.0
C3352 C 0.54489 0.40651 0.11405 0.0
C3353 C 0.54213 0.40339 0.08932 0.0
C3354 C 0.53806 0.38889 0.12653 0.0
C3355 C 0.52834 0.36758 0.11394 0.0
C3356 C 0.52366 0.36488 0.08897 0.0
C3357 C 0.53082 0.38278 0.07694 0.0
C3358 C 0.54319 0.39266 0.15312 0.0
C3359 C 0.51292 0.34264 0.07479 0.0
H3360 H 0.55641 0.30966 0.14147 0.0
H3361 H 0.4912 0.31614 0.15759 0.0
H3362 H 0.56209 0.34494 0.09911 0.0
H3363 H 0.5735 0.362 0.12667 0.0
H3364 H 0.57826 0.33439 0.12131 0.0
H3365 H 0.47434 0.34477 0.14621 0.0
H3366 H 0.49209 0.36893 0.13867 0.0
H3367 H 0.47856 0.34669 0.11598 0.0
H3368 H 0.55397 0.42236 0.1236 0.0
H3369 H 0.52904 0.38024 0.0578 0.0
H3370 H 0.55724 0.38478 0.15854 0.0
H3371 H 0.52846 0.38497 0.16113 0.0
H3372 H 0.54803 0.4105 0.16036 0.0
H3373 H 0.52573 0.33243 0.07347 0.0
H3374 H 0.50593 0.34419 0.0566 0.0
H3375 H 0.49929 0.33377 0.08351 0.0
C3376 C 0.96043 0.32383 0.32638 0.0
C3377 C 0.9718 0.30646 0.32309 0.0
C3378 C 0.93681 0.32046 0.32086 0.0
C3379 C 0.9238 0.29929 0.31078 0.0
C3380 C 0.93526 0.28172 0.3069 0.0
C3381 C 0.95891 0.28539 0.31349 0.0
C3382 C 0.92569 0.33959 0.32645 0.0
C3383 C 0.9227 0.25915 0.29494 0.0
C3384 C 0.86021 0.28502 0.31554 0.0
C3385 C 0.85039 0.29072 0.29459 0.0
C3386 C 0.88381 0.28782 0.321 0.0
C3387 C 0.89834 0.29568 0.30477 0.0
C3388 C 0.88839 0.30088 0.28325 0.0
C3389 C 0.86479 0.29885 0.27873 0.0
C3390 C 0.89324 0.28257 0.34441 0.0
C3391 C 0.90261 0.30845 0.26475 0.0
H3392 H 0.97006 0.34015 0.3339 0.0
H3393 H 0.96741 0.27188 0.31049 0.0
H3394 H 0.91602 0.34265 0.31025 0.0
H3395 H 0.9136 0.33552 0.33911 0.0
H3396 H 0.93801 0.35503 0.3342 0.0
H3397 H 0.93315 0.24659 0.29594 0.0
H3398 H 0.90721 0.25363 0.30284 0.0
H3399 H 0.9175 0.25997 0.27606 0.0
H3400 H 0.84937 0.27868 0.32795 0.0
H3401 H 0.85752 0.30298 0.2623 0.0
H3402 H 0.90522 0.29734 0.35437 0.0
H3403 H 0.90271 0.26931 0.34153 0.0
H3404 H 0.87992 0.27716 0.3554 0.0
H3405 H 0.91153 0.32586 0.2704 0.0
H3406 H 0.89232 0.30738 0.24738 0.0
H3407 H 0.91547 0.29841 0.26251 0.0
C3408 C 0.03201 0.67017 0.65518 0.0
C3409 C 0.01416 0.68105 0.65271 0.0
C3410 C 0.03337 0.65213 0.63859 0.0
C3411 C 0.01604 0.64414 0.61933 0.0
C3412 C 0.99774 0.65488 0.61694 0.0
C3413 C 0.99723 0.67345 0.6334 0.0
C3414 C 0.0536 0.64185 0.64149 0.0
C3415 C 0.97845 0.6464 0.59731 0.0
C3416 C 0.02934 0.60848 0.56589 0.0
C3417 C 0.02091 0.58697 0.57029 0.0
C3418 C 0.0274 0.62716 0.58131 0.0
C3419 C 0.01703 0.62443 0.60195 0.0
C3420 C 0.00838 0.60276 0.60642 0.0
C3421 C 0.01039 0.5844 0.59061 0.0
C3422 C 0.03684 0.64987 0.57573 0.0
C3423 C 0.99742 0.59886 0.62823 0.0
H3424 H 0.0453 0.67618 0.6699 0.0
H3425 H 0.98333 0.68172 0.63148 0.0
H3426 H 0.04827 0.62388 0.64183 0.0
H3427 H 0.06297 0.6439 0.62616 0.0
H3428 H 0.0652 0.6494 0.65789 0.0
H3429 H 0.96625 0.65736 0.59683 0.0
H3430 H 0.98475 0.64472 0.57996 0.0
H3431 H 0.9695 0.62973 0.59976 0.0
H3432 H 0.03801 0.61081 0.55067 0.0
H3433 H 0.00379 0.56794 0.59431 0.0
H3434 H 0.05043 0.65874 0.58994 0.0
H3435 H 0.0236 0.65963 0.57503 0.0
H3436 H 0.0437 0.64927 0.55862 0.0
H3437 H 0.01041 0.60332 0.64399 0.0
H3438 H 0.98874 0.58136 0.62748 0.0
H3439 H 0.98509 0.60946 0.63067 0.0
C3440 C 0.61429 0.80399 0.8084 0.0
C3441 C 0.61229 0.80637 0.83267 0.0
C3442 C 0.63474 0.80136 0.79997 0.0
C3443 C 0.65381 0.80046 0.81601 0.0
C3444 C 0.65177 0.80278 0.84049 0.0
C3445 C 0.63138 0.80591 0.84842 0.0
C3446 C 0.63575 0.79936 0.77376 0.0
C3447 C 0.67117 0.80172 0.85849 0.0
C3448 C 0.69925 0.77105 0.79407 0.0
C3449 C 0.71785 0.78847 0.7946 0.0
C3450 C 0.67856 0.77467 0.80085 0.0
C3451 C 0.67563 0.79646 0.80749 0.0
C3452 C 0.69408 0.81424 0.80708 0.0
C3453 C 0.71492 0.81004 0.80119 0.0
C3454 C 0.65997 0.75499 0.80153 0.0
C3455 C 0.6917 0.83782 0.81236 0.0
H3456 H 0.59987 0.80431 0.7959 0.0
H3457 H 0.63032 0.80769 0.8672 0.0
H3458 H 0.65214 0.80853 0.76999 0.0
H3459 H 0.63392 0.78176 0.76643 0.0
H3460 H 0.62208 0.80563 0.76438 0.0
H3461 H 0.66649 0.80196 0.87662 0.0
H3462 H 0.67742 0.78649 0.85375 0.0
H3463 H 0.68524 0.81597 0.85859 0.0
H3464 H 0.70101 0.75442 0.78907 0.0
H3465 H 0.72887 0.82378 0.80128 0.0
H3466 H 0.64494 0.75559 0.7893 0.0
H3467 H 0.65505 0.75543 0.81956 0.0
H3468 H 0.66495 0.7391 0.79656 0.0
H3469 H 0.67859 0.84088 0.79908 0.0
H3470 H 0.70763 0.84982 0.81199 0.0
H3471 H 0.68613 0.84089 0.82993 0.0
C3472 C 0.47797 0.53308 0.69751 0.0
C3473 C 0.45853 0.51671 0.69677 0.0
C3474 C 0.48779 0.53656 0.67697 0.0
C3475 C 0.47823 0.52297 0.65533 0.0
C3476 C 0.4589 0.50603 0.65464 0.0
C3477 C 0.44907 0.50333 0.67532 0.0
C3478 C 0.5081 0.55508 0.67835 0.0
C3479 C 0.44893 0.49044 0.63219 0.0
C3480 C 0.49031 0.54154 0.59655 0.0
C3481 C 0.50775 0.53105 0.59143 0.0
C3482 C 0.48086 0.53947 0.61759 0.0
C3483 C 0.48866 0.52612 0.63347 0.0
C3484 C 0.50617 0.51539 0.62822 0.0
C3485 C 0.51572 0.51828 0.60749 0.0
C3486 C 0.46244 0.55141 0.62278 0.0
C3487 C 0.51475 0.50069 0.64437 0.0
H3488 H 0.4852 0.54353 0.71408 0.0
H3489 H 0.4342 0.49047 0.6748 0.0
H3490 H 0.52196 0.54882 0.6709 0.0
H3491 H 0.50376 0.56759 0.6676 0.0
H3492 H 0.51427 0.5633 0.69676 0.0
H3493 H 0.43322 0.47888 0.63429 0.0
H3494 H 0.44528 0.4998 0.6176 0.0
H3495 H 0.46127 0.48064 0.62681 0.0
H3496 H 0.48417 0.55145 0.5842 0.0
H3497 H 0.52909 0.50998 0.60354 0.0
H3498 H 0.46714 0.56196 0.64026 0.0
H3499 H 0.44676 0.53929 0.62366 0.0
H3500 H 0.45894 0.56189 0.60918 0.0
H3501 H 0.52404 0.51089 0.66092 0.0
H3502 H 0.5262 0.49124 0.63616 0.0
H3503 H 0.50057 0.48884 0.64926 0.0
C3504 C 0.77046 0.18196 0.99801 0.0
C3505 C 0.7797 0.16317 0.99566 0.0
C3506 C 0.7657 0.19234 0.9786 0.0
C3507 C 0.77103 0.18418 0.9564 0.0
C3508 C 0.78143 0.16588 0.95406 0.0
C3509 C 0.7855 0.1554 0.97381 0.0
C3510 C 0.75382 0.21131 0.98168 0.0
C3511 C 0.78803 0.15725 0.93079 0.0
C3512 C 0.73354 0.19994 0.90853 0.0
C3513 C 0.74655 0.22008 0.90526 0.0
C3514 C 0.74223 0.18678 0.92349 0.0
C3515 C 0.76426 0.19435 0.93572 0.0
C3516 C 0.778 0.21398 0.93113 0.0
C3517 C 0.76894 0.22669 0.91579 0.0
C3518 C 0.72728 0.16562 0.92749 0.0
C3519 C 0.80161 0.22239 0.94373 0.0
H3520 H 0.76567 0.18789 0.0148 0.0
H3521 H 0.79268 0.14088 0.97204 0.0
H3522 H 0.76368 0.22611 0.97588 0.0
H3523 H 0.73721 0.20687 0.97051 0.0
H3524 H 0.75112 0.21572 0.00028 0.0
H3525 H 0.79118 0.14035 0.93061 0.0
H3526 H 0.77492 0.15705 0.91586 0.0
H3527 H 0.80366 0.16834 0.92776 0.0
H3528 H 0.71637 0.19478 0.89981 0.0
H3529 H 0.77898 0.24223 0.91284 0.0
H3530 H 0.7217 0.16801 0.94516 0.0
H3531 H 0.73658 0.1521 0.92717 0.0
H3532 H 0.71215 0.16042 0.91399 0.0
H3533 H 0.80095 0.23021 0.96194 0.0
H3534 H 0.81155 0.23486 0.93461 0.0
H3535 H 0.81042 0.20863 0.94513 0.0
C3536 C 0.15122 0.535 0.15531 0.0
C3537 C 0.14435 0.52959 0.17663 0.0
C3538 C 0.13542 0.5372 0.13699 0.0
C3539 C 0.11266 0.53409 0.14059 0.0
C3540 C 0.10567 0.52864 0.16203 0.0
C3541 C 0.12164 0.52609 0.17974 0.0
C3542 C 0.14295 0.54279 0.11389 0.0
C3543 C 0.0813 0.52484 0.1661 0.0
C3544 C 0.07052 0.55315 0.10078 0.0
C3545 C 0.06173 0.53357 0.08547 0.0
C3546 C 0.08802 0.55387 0.11858 0.0
C3547 C 0.09567 0.5343 0.12118 0.0
C3548 C 0.08606 0.5143 0.10623 0.0
C3549 C 0.06922 0.51426 0.08824 0.0
C3550 C 0.09833 0.57535 0.13448 0.0
C3551 C 0.09352 0.49302 0.10917 0.0
H3552 H 0.16884 0.53778 0.15307 0.0
H3553 H 0.11632 0.52178 0.19624 0.0
H3554 H 0.1342 0.52973 0.09918 0.0
H3555 H 0.13835 0.55842 0.11012 0.0
H3556 H 0.16135 0.54457 0.11404 0.0
H3557 H 0.07942 0.52475 0.18507 0.0
H3558 H 0.07313 0.53771 0.15964 0.0
H3559 H 0.07212 0.50867 0.15614 0.0
H3560 H 0.06442 0.56793 0.09815 0.0
H3561 H 0.06181 0.49909 0.07636 0.0
H3562 H 0.1167 0.57958 0.13392 0.0
H3563 H 0.09587 0.57357 0.15302 0.0
H3564 H 0.09093 0.58921 0.12936 0.0
H3565 H 0.11142 0.49482 0.10654 0.0
H3566 H 0.08343 0.47879 0.09646 0.0
H3567 H 0.09213 0.48918 0.12733 0.0
C3568 C 0.80732 0.8423 0.45959 0.0
C3569 C 0.78773 0.84828 0.46601 0.0
C3570 C 0.80763 0.83145 0.43677 0.0
C3571 C 0.78774 0.82606 0.42032 0.0
C3572 C 0.76758 0.83084 0.42738 0.0
C3573 C 0.76793 0.84224 0.45003 0.0
C3574 C 0.82961 0.82727 0.42976 0.0
C3575 C 0.74582 0.82463 0.4107 0.0
C3576 C 0.79066 0.82451 0.3546 0.0
C3577 C 0.78705 0.80184 0.34675 0.0
C3578 C 0.79171 0.83257 0.37861 0.0
C3579 C 0.78837 0.81754 0.3951 0.0
C3580 C 0.7848 0.79458 0.38725 0.0
C3581 C 0.78464 0.78702 0.36318 0.0
C3582 C 0.7961 0.85719 0.38626 0.0
C3583 C 0.78081 0.77801 0.40416 0.0
H3584 H 0.82273 0.84741 0.47186 0.0
H3585 H 0.75283 0.847 0.45506 0.0
H3586 H 0.8274 0.81027 0.42034 0.0
H3587 H 0.83562 0.83878 0.41744 0.0
H3588 H 0.84277 0.82974 0.44526 0.0
H3589 H 0.73158 0.82927 0.41903 0.0
H3590 H 0.7476 0.83284 0.39478 0.0
H3591 H 0.74169 0.80656 0.4047 0.0
H3592 H 0.79285 0.836 0.34194 0.0
H3593 H 0.78189 0.76946 0.35707 0.0
H3594 H 0.81056 0.86239 0.40052 0.0
H3595 H 0.78127 0.86163 0.39349 0.0
H3596 H 0.79969 0.86665 0.37147 0.0
H3597 H 0.79642 0.77943 0.41643 0.0
H3598 H 0.77562 0.76079 0.39484 0.0
H3599 H 0.76763 0.78141 0.415 0.0
C3600 C 0.46851 0.49382 0.84844 0.0
C3601 C 0.46953 0.51199 0.83629 0.0
C3602 C 0.4758 0.49661 0.87276 0.0
C3603 C 0.48509 0.51807 0.88509 0.0
C3604 C 0.486 0.53656 0.87287 0.0
C3605 C 0.47789 0.53329 0.84859 0.0
C3606 C 0.47353 0.47656 0.88529 0.0
C3607 C 0.49643 0.55965 0.88511 0.0
C3608 C 0.48825 0.52535 0.95199 0.0
C3609 C 0.50996 0.52237 0.95894 0.0
C3610 C 0.4801 0.52445 0.92808 0.0
C3611 C 0.49411 0.52086 0.91065 0.0
C3612 C 0.51627 0.51843 0.9176 0.0
C3613 C 0.52383 0.51892 0.94163 0.0
C3614 C 0.45632 0.5269 0.92145 0.0
C3615 C 0.5319 0.515 0.89962 0.0
H3616 H 0.46183 0.47736 0.83886 0.0
H3617 H 0.47886 0.5473 0.83905 0.0
H3618 H 0.49027 0.47504 0.89346 0.0
H3619 H 0.46314 0.47841 0.89974 0.0
H3620 H 0.46568 0.46106 0.87319 0.0
H3621 H 0.4924 0.57236 0.87444 0.0
H3622 H 0.49077 0.56273 0.90263 0.0
H3623 H 0.51495 0.56165 0.8881 0.0
H3624 H 0.47739 0.52803 0.96524 0.0
H3625 H 0.54069 0.5168 0.94686 0.0
H3626 H 0.4465 0.5117 0.91007 0.0
H3627 H 0.45625 0.54075 0.9111 0.0
H3628 H 0.44771 0.53 0.93716 0.0
H3629 H 0.526 0.49834 0.88913 0.0
H3630 H 0.54941 0.51644 0.90802 0.0
H3631 H 0.53189 0.52723 0.88716 0.0
C3632 C 0.77421 0.18124 0.12134 0.0
C3633 C 0.76072 0.16068 0.12298 0.0
C3634 C 0.77632 0.19908 0.1389 0.0
C3635 C 0.76471 0.19606 0.15846 0.0
C3636 C 0.75058 0.17562 0.16003 0.0
C3637 C 0.74876 0.15798 0.14213 0.0
C3638 C 0.79169 0.22076 0.13694 0.0
C3639 C 0.73775 0.17243 0.18076 0.0
C3640 C 0.78982 0.23176 0.21554 0.0
C3641 C 0.7758 0.2468 0.21658 0.0
C3642 C 0.78641 0.21509 0.19644 0.0
C3643 C 0.76868 0.21382 0.1782 0.0
C3644 C 0.75476 0.22927 0.1789 0.0
C3645 C 0.75853 0.24576 0.19829 0.0
C3646 C 0.80162 0.1988 0.19589 0.0
C3647 C 0.73619 0.22854 0.15913 0.0
H3648 H 0.78354 0.18339 0.10652 0.0
H3649 H 0.7381 0.14215 0.14317 0.0
H3650 H 0.78371 0.23484 0.14167 0.0
H3651 H 0.80732 0.22312 0.14949 0.0
H3652 H 0.79639 0.22132 0.11888 0.0
H3653 H 0.72756 0.15539 0.17932 0.0
H3654 H 0.74957 0.17605 0.19745 0.0
H3655 H 0.72641 0.18418 0.18199 0.0
H3656 H 0.80347 0.23303 0.22959 0.0
H3657 H 0.74786 0.25766 0.19924 0.0
H3658 H 0.81022 0.19927 0.17991 0.0
H3659 H 0.79153 0.18181 0.19494 0.0
H3660 H 0.81458 0.20225 0.21169 0.0
H3661 H 0.74363 0.23269 0.14308 0.0
H3662 H 0.72544 0.24036 0.16371 0.0
H3663 H 0.72544 0.2117 0.15462 0.0
C3664 C 0.14894 0.53162 0.31661 0.0
C3665 C 0.15225 0.55193 0.30827 0.0
C3666 C 0.14073 0.52952 0.33817 0.0
C3667 C 0.13624 0.54834 0.35143 0.0
C3668 C 0.14215 0.56938 0.34416 0.0
C3669 C 0.14975 0.57083 0.32231 0.0
C3670 C 0.13473 0.50686 0.34525 0.0
C3671 C 0.13835 0.59003 0.35828 0.0
C3672 C 0.08569 0.55281 0.37985 0.0
C3673 C 0.09576 0.56078 0.40297 0.0
C3674 C 0.09821 0.54509 0.3631 0.0
C3675 C 0.12134 0.54607 0.36983 0.0
C3676 C 0.13063 0.55121 0.39389 0.0
C3677 C 0.1176 0.55866 0.41038 0.0
C3678 C 0.08747 0.53898 0.33767 0.0
C3679 C 0.15494 0.55139 0.40169 0.0
H3680 H 0.151 0.51707 0.30544 0.0
H3681 H 0.15262 0.58651 0.31563 0.0
H3682 H 0.13591 0.50757 0.36469 0.0
H3683 H 0.11718 0.499 0.3375 0.0
H3684 H 0.14578 0.49617 0.33841 0.0
H3685 H 0.14586 0.60521 0.35127 0.0
H3686 H 0.12006 0.58919 0.35786 0.0
H3687 H 0.14569 0.59145 0.37701 0.0
H3688 H 0.06855 0.55412 0.37453 0.0
H3689 H 0.12504 0.56452 0.42856 0.0
H3690 H 0.09325 0.52476 0.32883 0.0
H3691 H 0.09236 0.55317 0.32807 0.0
H3692 H 0.06884 0.53476 0.33619 0.0
H3693 H 0.15973 0.53661 0.39272 0.0
H3694 H 0.15844 0.5519 0.42111 0.0
H3695 H 0.16573 0.56614 0.39672 0.0
C3696 C 0.80249 0.86198 0.63289 0.0
C3697 C 0.79239 0.85027 0.61073 0.0
C3698 C 0.79873 0.85308 0.65376 0.0
C3699 C 0.78446 0.83204 0.65243 0.0
C3700 C 0.77377 0.82042 0.63016 0.0
C3701 C 0.77798 0.8296 0.60959 0.0
C3702 C 0.81043 0.86599 0.67717 0.0
C3703 C 0.75777 0.79832 0.62811 0.0
C3704 C 0.79413 0.79733 0.70063 0.0
C3705 C 0.77795 0.80123 0.71507 0.0
C3706 C 0.7966 0.80759 0.68045 0.0
C3707 C 0.78197 0.82143 0.67408 0.0
C3708 C 0.76515 0.82495 0.68831 0.0
C3709 C 0.76366 0.81513 0.70896 0.0
C3710 C 0.81511 0.80387 0.66614 0.0
C3711 C 0.74901 0.83936 0.6821 0.0
H3712 H 0.81345 0.87807 0.63395 0.0
H3713 H 0.76971 0.82066 0.5926 0.0
H3714 H 0.79825 0.86699 0.68996 0.0
H3715 H 0.82307 0.85735 0.68469 0.0
H3716 H 0.81906 0.88301 0.67547 0.0
H3717 H 0.75103 0.79126 0.60947 0.0
H3718 H 0.76633 0.78644 0.63618 0.0
H3719 H 0.74349 0.80015 0.63795 0.0
H3720 H 0.80543 0.78684 0.7056 0.0
H3721 H 0.75115 0.81814 0.72019 0.0
H3722 H 0.82638 0.81992 0.66521 0.0
H3723 H 0.80784 0.79636 0.64779 0.0
H3724 H 0.82533 0.79296 0.67374 0.0
H3725 H 0.75766 0.85695 0.68706 0.0
H3726 H 0.73412 0.83638 0.69165 0.0
H3727 H 0.74316 0.83653 0.66285 0.0
C3728 C 0.74381 0.48152 0.50236 0.0
C3729 C 0.73957 0.46045 0.48931 0.0
C3730 C 0.72613 0.49099 0.50797 0.0
C3731 C 0.70398 0.47929 0.49928 0.0
C3732 C 0.69992 0.45972 0.48291 0.0
C3733 C 0.71799 0.45014 0.47841 0.0
C3734 C 0.7312 0.51159 0.52612 0.0
C3735 C 0.67647 0.44794 0.47209 0.0
C3736 C 0.67002 0.48418 0.54863 0.0
C3737 C 0.66177 0.50277 0.54444 0.0
C3738 C 0.68226 0.47495 0.53265 0.0
C3739 C 0.68601 0.48461 0.51201 0.0
C3740 C 0.67625 0.50229 0.50672 0.0
C3741 C 0.66446 0.51149 0.52328 0.0
C3742 C 0.69262 0.456 0.53883 0.0
C3743 C 0.67971 0.51246 0.48453 0.0
H3744 H 0.76073 0.48955 0.51046 0.0
H3745 H 0.71511 0.43409 0.46765 0.0
H3746 H 0.72104 0.5235 0.52109 0.0
H3747 H 0.72693 0.50705 0.54339 0.0
H3748 H 0.74923 0.51999 0.52856 0.0
H3749 H 0.67636 0.4329 0.45959 0.0
H3750 H 0.66618 0.44313 0.48609 0.0
H3751 H 0.66831 0.45924 0.4625 0.0
H3752 H 0.66737 0.47721 0.56471 0.0
H3753 H 0.65807 0.52598 0.52005 0.0
H3754 H 0.71118 0.46155 0.54234 0.0
H3755 H 0.68861 0.44226 0.52388 0.0
H3756 H 0.68665 0.44953 0.5547 0.0
H3757 H 0.6965 0.52371 0.48695 0.0
H3758 H 0.66688 0.52218 0.48026 0.0
H3759 H 0.67913 0.49958 0.46926 0.0
C3760 C 0.19315 0.1137 0.50172 0.0
C3761 C 0.19448 0.13655 0.50485 0.0
C3762 C 0.17408 0.09909 0.50603 0.0
C3763 C 0.15589 0.10756 0.51353 0.0
C3764 C 0.15731 0.13063 0.51735 0.0
C3765 C 0.17661 0.1449 0.51283 0.0
C3766 C 0.17317 0.07458 0.50189 0.0
C3767 C 0.13845 0.14015 0.52625 0.0
C3768 C 0.09755 0.07175 0.4976 0.0
C3769 C 0.09426 0.06321 0.51857 0.0
C3770 C 0.11782 0.08587 0.49564 0.0
C3771 C 0.13468 0.09222 0.51549 0.0
C3772 C 0.13127 0.08375 0.53684 0.0
C3773 C 0.11124 0.06881 0.53789 0.0
C3774 C 0.12115 0.0941 0.47241 0.0
C3775 C 0.14859 0.09044 0.55857 0.0
H3776 H 0.20704 0.10716 0.49581 0.0
H3777 H 0.17777 0.16257 0.51576 0.0
H3778 H 0.16767 0.06682 0.51721 0.0
H3779 H 0.16066 0.0668 0.48626 0.0
H3780 H 0.18967 0.07085 0.49878 0.0
H3781 H 0.14218 0.15846 0.5283 0.0
H3782 H 0.12269 0.13368 0.5139 0.0
H3783 H 0.1354 0.13496 0.54359 0.0
H3784 H 0.08432 0.0672 0.48268 0.0
H3785 H 0.10842 0.06226 0.55416 0.0
H3786 H 0.13645 0.08979 0.46615 0.0
H3787 H 0.1237 0.11234 0.47479 0.0
H3788 H 0.10662 0.08701 0.45851 0.0
H3789 H 0.1624 0.08159 0.55648 0.0
H3790 H 0.14133 0.08634 0.57477 0.0
H3791 H 0.15601 0.1084 0.56109 0.0
C3792 C 0.18031 0.98564 0.76673 0.0
C3793 C 0.17304 0.99231 0.78806 0.0
C3794 C 0.19081 0.96774 0.76429 0.0
C3795 C 0.19483 0.95682 0.784 0.0
C3796 C 0.18793 0.96388 0.80582 0.0
C3797 C 0.17669 0.98141 0.80748 0.0
C3798 C 0.19713 0.96021 0.74045 0.0
C3799 C 0.19274 0.95324 0.82742 0.0
C3800 C 0.20272 0.89995 0.76284 0.0
C3801 C 0.22582 0.90433 0.76184 0.0
C3802 C 0.1925 0.91646 0.77252 0.0
C3803 C 0.20582 0.93777 0.78109 0.0
C3804 C 0.22949 0.9415 0.78229 0.0
C3805 C 0.23926 0.92466 0.77244 0.0
C3806 C 0.16725 0.91173 0.77121 0.0
C3807 C 0.24429 0.96388 0.79165 0.0
H3808 H 0.17716 0.99406 0.75172 0.0
H3809 H 0.17111 0.98685 0.824 0.0
H3810 H 0.21541 0.96069 0.74192 0.0
H3811 H 0.18822 0.94288 0.73407 0.0
H3812 H 0.19287 0.97058 0.72701 0.0
H3813 H 0.18378 0.9587 0.84207 0.0
H3814 H 0.18793 0.935 0.82318 0.0
H3815 H 0.21105 0.95769 0.83364 0.0
H3816 H 0.19246 0.88412 0.75452 0.0
H3817 H 0.25716 0.92792 0.77148 0.0
H3818 H 0.16011 0.91946 0.75666 0.0
H3819 H 0.16214 0.9189 0.78782 0.0
H3820 H 0.15983 0.89373 0.76783 0.0
H3821 H 0.24383 0.97475 0.77782 0.0
H3822 H 0.26201 0.96277 0.79652 0.0
H3823 H 0.23823 0.97177 0.80731 0.0
C3824 C 0.37782 0.95766 0.98401 0.0
C3825 C 0.36284 0.97072 0.99044 0.0
C3826 C 0.39939 0.96201 0.99627 0.0
C3827 C 0.40544 0.97959 0.01523 0.0
C3828 C 0.38939 0.99089 0.02351 0.0
C3829 C 0.36823 0.98661 0.01055 0.0
C3830 C 0.4163 0.9496 0.9873 0.0
C3831 C 0.39541 0.00965 0.04382 0.0
C3832 C 0.46573 0.99957 0.04145 0.0
C3833 C 0.47227 0.01551 0.02708 0.0
C3834 C 0.44361 0.98766 0.03829 0.0
C3835 C 0.42857 0.99151 0.01974 0.0
C3836 C 0.43514 0.00788 0.00545 0.0
C3837 C 0.45674 0.0203 0.01004 0.0
C3838 C 0.43656 0.97073 0.05414 0.0
C3839 C 0.41985 0.0117 0.98455 0.0
H3840 H 0.37276 0.94442 0.96921 0.0
H3841 H 0.35582 0.99556 0.01624 0.0
H3842 H 0.42717 0.95998 0.97689 0.0
H3843 H 0.4273 0.94593 0.00218 0.0
H3844 H 0.408 0.9339 0.97575 0.0
H3845 H 0.38039 0.01213 0.05212 0.0
H3846 H 0.40823 0.00676 0.05751 0.0
H3847 H 0.4025 0.0251 0.03709 0.0
H3848 H 0.47797 0.99608 0.05464 0.0
H3849 H 0.46174 0.03275 -0.00095 0.0
H3850 H 0.43197 0.95401 0.04367 0.0
H3851 H 0.42146 0.97372 0.06192 0.0
H3852 H 0.45011 0.97095 0.06869 0.0
H3853 H 0.41576 0.99677 0.97099 0.0
H3854 H 0.42765 0.02586 0.97613 0.0
H3855 H 0.40388 0.01494 0.98996 0.0
C3856 C 0.82744 0.57532 0.82336 0.0
C3857 C 0.8503 0.57531 0.82442 0.0
C3858 C 0.81913 0.59265 0.81505 0.0
C3859 C 0.834 0.60942 0.80663 0.0
C3860 C 0.85739 0.61051 0.80991 0.0
C3861 C 0.86534 0.5938 0.81979 0.0
C3862 C 0.79422 0.5917 0.81292 0.0
C3863 C 0.87385 0.6279 0.8008 0.0
C3864 C 0.81218 0.62947 0.75145 0.0
C3865 C 0.81131 0.65112 0.76018 0.0
C3866 C 0.81922 0.61557 0.76655 0.0
C3867 C 0.82498 0.62346 0.79102 0.0
C3868 C 0.82363 0.64509 0.80006 0.0
C3869 C 0.81702 0.6588 0.78445 0.0
C3870 C 0.82123 0.59274 0.75618 0.0
C3871 C 0.8294 0.65376 0.82611 0.0
H3872 H 0.8159 0.56105 0.82721 0.0
H3873 H 0.88312 0.59384 0.82082 0.0
H3874 H 0.79082 0.60845 0.81683 0.0
H3875 H 0.78641 0.58473 0.79458 0.0
H3876 H 0.78606 0.58107 0.82504 0.0
H3877 H 0.89068 0.62384 0.80077 0.0
H3878 H 0.86769 0.62993 0.78253 0.0
H3879 H 0.87587 0.644 0.81214 0.0
H3880 H 0.8074 0.62338 0.73278 0.0
H3881 H 0.81659 0.67564 0.79123 0.0
H3882 H 0.81062 0.58006 0.76442 0.0
H3883 H 0.83887 0.59098 0.75997 0.0
H3884 H 0.81612 0.58927 0.73676 0.0
H3885 H 0.81997 0.64215 0.83649 0.0
H3886 H 0.82556 0.67029 0.83054 0.0
H3887 H 0.84752 0.65501 0.83173 0.0
C3888 C 0.81607 0.61326 0.00463 0.0
C3889 C 0.81713 0.63548 0.01289 0.0
C3890 C 0.83556 0.60484 0.00507 0.0
C3891 C 0.85639 0.61892 0.01478 0.0
C3892 C 0.85779 0.64188 0.02073 0.0
C3893 C 0.83801 0.64999 0.01948 0.0
C3894 C 0.83337 0.58043 0.99765 0.0
C3895 C 0.87985 0.65744 0.03071 0.0
C3896 C 0.89335 0.59543 0.05701 0.0
C3897 C 0.9109 0.59263 0.04414 0.0
C3898 C 0.87535 0.60356 0.04732 0.0
C3899 C 0.87497 0.60913 0.02417 0.0
C3900 C 0.89231 0.60568 0.01074 0.0
C3901 C 0.9101 0.5973 0.02089 0.0
C3902 C 0.85695 0.6066 0.06211 0.0
C3903 C 0.89216 0.61097 0.98585 0.0
H3904 H 0.79984 0.60219 -0.00108 0.0
H3905 H 0.83873 0.66727 0.02551 0.0
H3906 H 0.84828 0.57696 0.98984 0.0
H3907 H 0.8319 0.57187 0.01339 0.0
H3908 H 0.81812 0.57335 0.98465 0.0
H3909 H 0.87836 0.67496 0.03297 0.0
H3910 H 0.88595 0.6534 0.04816 0.0
H3911 H 0.89273 0.65545 0.01896 0.0
H3912 H 0.89379 0.59133 0.0748 0.0
H3913 H 0.9237 0.59497 0.01094 0.0
H3914 H 0.84049 0.59694 0.05285 0.0
H3915 H 0.85587 0.62422 0.06476 0.0
H3916 H 0.85977 0.6013 0.07971 0.0
H3917 H 0.87728 0.60039 0.97438 0.0
H3918 H 0.9075 0.60836 0.97826 0.0
H3919 H 0.89079 0.62834 0.98543 0.0
C3920 C 0.19409 0.12026 0.79845 0.0
C3921 C 0.17105 0.11994 0.79386 0.0
C3922 C 0.21035 0.13921 0.797 0.0
C3923 C 0.20342 0.1583 0.79085 0.0
C3924 C 0.18023 0.15812 0.78627 0.0
C3925 C 0.16437 0.13901 0.78791 0.0
C3926 C 0.23493 0.13886 0.80211 0.0
C3927 C 0.17216 0.17794 0.779 0.0
C3928 C 0.24095 0.21545 0.80713 0.0
C3929 C 0.24933 0.21875 0.7859 0.0
C3930 C 0.22688 0.19537 0.80931 0.0
C3931 C 0.2203 0.17864 0.78945 0.0
C3932 C 0.2289 0.18193 0.76796 0.0
C3933 C 0.24385 0.20178 0.76666 0.0
C3934 C 0.21855 0.19227 0.83267 0.0
C3935 C 0.22193 0.16479 0.74616 0.0
H3936 H 0.19947 0.1056 0.80294 0.0
H3937 H 0.14665 0.13891 0.78408 0.0
H3938 H 0.24387 0.14393 0.78725 0.0
H3939 H 0.24271 0.15091 0.81804 0.0
H3940 H 0.2376 0.12229 0.8051 0.0
H3941 H 0.15359 0.17555 0.77726 0.0
H3942 H 0.17967 0.19284 0.79207 0.0
H3943 H 0.17767 0.1812 0.76178 0.0
H3944 H 0.24536 0.22864 0.822 0.0
H3945 H 0.25022 0.20455 0.75017 0.0
H3946 H 0.22224 0.17689 0.83837 0.0
H3947 H 0.20006 0.19052 0.83073 0.0
H3948 H 0.22634 0.20633 0.84676 0.0
H3949 H 0.22972 0.15052 0.74855 0.0
H3950 H 0.22717 0.17138 0.73008 0.0
H3951 H 0.20344 0.15861 0.74324 0.0
C3952 C 0.35241 0.93668 0.31167 0.0
C3953 C 0.3488 0.9483 0.29291 0.0
C3954 C 0.33915 0.91586 0.31167 0.0
C3955 C 0.32249 0.9068 0.29217 0.0
C3956 C 0.318 0.91914 0.27391 0.0
C3957 C 0.33132 0.94007 0.27458 0.0
C3958 C 0.34403 0.90309 0.33159 0.0
C3959 C 0.30016 0.90964 0.25301 0.0
C3960 C 0.31287 0.84588 0.27421 0.0
C3961 C 0.29243 0.83881 0.28242 0.0
C3962 C 0.32285 0.86818 0.27728 0.0
C3963 C 0.31203 0.88345 0.289 0.0
C3964 C 0.29119 0.87649 0.29697 0.0
C3965 C 0.28137 0.85412 0.29316 0.0
C3966 C 0.34517 0.8753 0.26853 0.0
C3967 C 0.27984 0.89242 0.31045 0.0
H3968 H 0.36598 0.94364 0.32593 0.0
H3969 H 0.32873 0.94959 0.26039 0.0
H3970 H 0.32837 0.89318 0.33611 0.0
H3971 H 0.35471 0.89153 0.32603 0.0
H3972 H 0.35315 0.91423 0.34771 0.0
H3973 H 0.29816 0.92186 0.2409 0.0
H3974 H 0.30463 0.8952 0.24292 0.0
H3975 H 0.28378 0.90373 0.25915 0.0
H3976 H 0.3214 0.83398 0.26601 0.0
H3977 H 0.26549 0.84864 0.2995 0.0
H3978 H 0.35824 0.883 0.2837 0.0
H3979 H 0.34411 0.88786 0.25664 0.0
H3980 H 0.35069 0.86128 0.25883 0.0
H3981 H 0.2896 0.89842 0.32822 0.0
H3982 H 0.26243 0.88461 0.31275 0.0
H3983 H 0.27937 0.90702 0.30138 0.0
C3984 C 0.53562 0.36694 0.57485 0.0
C3985 C 0.55716 0.36208 0.57752 0.0
C3986 C 0.53195 0.38722 0.56805 0.0
C3987 C 0.55027 0.40385 0.56438 0.0
C3988 C 0.57212 0.39915 0.56739 0.0
C3989 C 0.57522 0.37842 0.57349 0.0
C3990 C 0.50826 0.39078 0.56463 0.0
C3991 C 0.59243 0.41634 0.5648 0.0
C3992 C 0.53912 0.45003 0.52788 0.0
C3993 C 0.54058 0.46828 0.54534 0.0
C3994 C 0.54247 0.42931 0.53373 0.0
C3995 C 0.54665 0.4261 0.55776 0.0
C3996 C 0.5474 0.44435 0.57543 0.0
C3997 C 0.54469 0.46504 0.56907 0.0
C3998 C 0.54189 0.41087 0.51405 0.0
C3999 C 0.5508 0.44201 0.60126 0.0
H4000 H 0.52143 0.35464 0.57781 0.0
H4001 H 0.59201 0.37528 0.57584 0.0
H4002 H 0.5072 0.40656 0.5751 0.0
H4003 H 0.50336 0.39195 0.54579 0.0
H4004 H 0.49599 0.37717 0.5698 0.0
H4005 H 0.60802 0.40983 0.56577 0.0
H4006 H 0.58996 0.42269 0.54775 0.0
H4007 H 0.59469 0.43054 0.57908 0.0
H4008 H 0.53597 0.4521 0.50949 0.0
H4009 H 0.54551 0.47873 0.58286 0.0
H4010 H 0.52862 0.39639 0.51557 0.0
H4011 H 0.55815 0.40556 0.51555 0.0
H4012 H 0.53869 0.41581 0.49633 0.0
H4013 H 0.53617 0.43022 0.60543 0.0
H4014 H 0.55268 0.45798 0.61292 0.0
H4015 H 0.5659 0.43519 0.60539 0.0
C4016 C 0.42582 0.74864 0.37436 0.0
C4017 C 0.43299 0.76188 0.39641 0.0
C4018 C 0.40531 0.74895 0.36083 0.0
C4019 C 0.39175 0.76339 0.36911 0.0
C4020 C 0.39848 0.77615 0.39185 0.0
C4021 C 0.41893 0.77519 0.40522 0.0
C4022 C 0.39889 0.73477 0.33696 0.0
C4023 C 0.38467 0.79176 0.40153 0.0
C4024 C 0.35574 0.78375 0.32128 0.0
C4025 C 0.33411 0.77134 0.32192 0.0
C4026 C 0.37439 0.78167 0.33683 0.0
C4027 C 0.37164 0.76639 0.35321 0.0
C4028 C 0.34983 0.75369 0.35379 0.0
C4029 C 0.33139 0.75646 0.33837 0.0
C4030 C 0.39711 0.79597 0.33582 0.0
C4031 C 0.346 0.73667 0.37022 0.0
H4032 H 0.43687 0.7388 0.36712 0.0
H4033 H 0.42465 0.78597 0.4219 0.0
H4034 H 0.38077 0.72679 0.33416 0.0
H4035 H 0.40196 0.74526 0.32293 0.0
H4036 H 0.4088 0.72176 0.33489 0.0
H4037 H 0.39242 0.801 0.41915 0.0
H4038 H 0.38263 0.80378 0.3892 0.0
H4039 H 0.36763 0.78242 0.40305 0.0
H4040 H 0.35805 0.79545 0.30884 0.0
H4041 H 0.31482 0.74662 0.33892 0.0
H4042 H 0.40896 0.78547 0.33086 0.0
H4043 H 0.40406 0.80551 0.3535 0.0
H4044 H 0.39636 0.80771 0.32288 0.0
H4045 H 0.35396 0.72283 0.3644 0.0
H4046 H 0.32786 0.72994 0.37051 0.0
H4047 H 0.35397 0.74379 0.38846 0.0
C4048 C 0.07396 0.7041 0.0873 0.0
C4049 C 0.05751 0.7162 0.08176 0.0
C4050 C 0.07075 0.68119 0.07948 0.0
C4051 C 0.05036 0.66941 0.06569 0.0
C4052 C 0.03385 0.68161 0.05935 0.0
C4053 C 0.03758 0.70472 0.06741 0.0
C4054 C 0.08901 0.66941 0.08682 0.0
C4055 C 0.0117 0.67004 0.045 0.0
C4056 C 0.05111 0.61141 0.03349 0.0
C4057 C 0.04077 0.59714 0.04813 0.0
C4058 C 0.05359 0.63466 0.03845 0.0
C4059 C 0.04619 0.64435 0.05902 0.0
C4060 C 0.03587 0.62995 0.07394 0.0
C4061 C 0.03307 0.60675 0.0682 0.0
C4062 C 0.06391 0.64886 0.02141 0.0
C4063 C 0.0283 0.63904 0.09646 0.0
H4064 H 0.08931 0.71257 0.0986 0.0
H4065 H 0.02441 0.71352 0.06349 0.0
H4066 H 0.08226 0.65581 0.09653 0.0
H4067 H 0.09504 0.6619 0.07094 0.0
H4068 H 0.10357 0.68064 0.09823 0.0
H4069 H 0.00225 0.68189 0.03815 0.0
H4070 H 0.0143 0.65839 0.02993 0.0
H4071 H 0.00125 0.66026 0.05623 0.0
H4072 H 0.05676 0.60436 0.01769 0.0
H4073 H 0.02513 0.59607 0.07978 0.0
H4074 H 0.07964 0.66019 0.03035 0.0
H4075 H 0.05227 0.65921 0.01546 0.0
H4076 H 0.06782 0.63891 0.00566 0.0
H4077 H 0.04327 0.64725 0.10938 0.0
H4078 H 0.01801 0.62592 0.10451 0.0
H4079 H 0.01837 0.65163 0.09321 0.0
C4080 C 0.08488 0.27419 0.9218 0.0
C4081 C 0.06303 0.26388 0.9113 0.0
C4082 C 0.10274 0.27732 0.90823 0.0
C4083 C 0.09876 0.26988 0.88355 0.0
C4084 C 0.07695 0.25831 0.87314 0.0
C4085 C 0.0594 0.25549 0.88711 0.0
C4086 C 0.12568 0.28966 0.92016 0.0
C4087 C 0.07203 0.24904 0.8472 0.0
C4088 C 0.13672 0.30505 0.84825 0.0
C4089 C 0.15409 0.29362 0.84595 0.0
C4090 C 0.11817 0.29691 0.85943 0.0
C4091 C 0.1167 0.27668 0.8685 0.0
C4092 C 0.13321 0.26415 0.86454 0.0
C4093 C 0.15179 0.27282 0.85342 0.0
C4094 C 0.10055 0.31045 0.86239 0.0
C4095 C 0.13191 0.24211 0.87303 0.0
H4096 H 0.08791 0.28052 0.9405 0.0
H4097 H 0.04266 0.24702 0.87893 0.0
H4098 H 0.13862 0.28035 0.91557 0.0
H4099 H 0.12993 0.30584 0.91377 0.0
H4100 H 0.12655 0.29261 0.93969 0.0
H4101 H 0.0537 0.24387 0.84107 0.0
H4102 H 0.07957 0.26123 0.83627 0.0
H4103 H 0.07959 0.23441 0.84408 0.0
H4104 H 0.138 0.32083 0.84192 0.0
H4105 H 0.16502 0.26378 0.85161 0.0
H4106 H 0.09998 0.31539 0.88146 0.0
H4107 H 0.08372 0.30042 0.85465 0.0
H4108 H 0.10382 0.32556 0.85386 0.0
H4109 H 0.1381 0.24478 0.8922 0.0
H4110 H 0.14239 0.2322 0.86374 0.0
H4111 H 0.11434 0.23249 0.87044 0.0
C4112 C 0.52131 0.73281 0.89915 0.0
C4113 C 0.54243 0.7453 0.89695 0.0
C4114 C 0.51925 0.71442 0.9113 0.0
C4115 C 0.5388 0.70781 0.92075 0.0
C4116 C 0.56017 0.71976 0.91743 0.0
C4117 C 0.56174 0.73863 0.90603 0.0
C4118 C 0.49613 0.70261 0.91486 0.0
C4119 C 0.58135 0.71256 0.92586 0.0
C4120 C 0.5303 0.67705 0.97332 0.0
C4121 C 0.52405 0.65501 0.96247 0.0
C4122 C 0.53662 0.69429 0.96018 0.0
C4123 C 0.53669 0.68944 0.93548 0.0
C4124 C 0.5322 0.66703 0.92481 0.0
C4125 C 0.52572 0.65009 0.9384 0.0
C4126 C 0.54138 0.71782 0.97245 0.0
C4127 C 0.53247 0.6609 0.8987 0.0
H4128 H 0.50637 0.73799 0.89218 0.0
H4129 H 0.5781 0.74809 0.90397 0.0
H4130 H 0.49361 0.68466 0.90879 0.0
H4131 H 0.49448 0.70476 0.93397 0.0
H4132 H 0.4826 0.70891 0.90526 0.0
H4133 H 0.5967 0.72386 0.92237 0.0
H4134 H 0.58255 0.71172 0.94506 0.0
H4135 H 0.58085 0.69573 0.91677 0.0
H4136 H 0.52862 0.68091 0.99183 0.0
H4137 H 0.52046 0.63311 0.92984 0.0
H4138 H 0.52767 0.72586 0.96632 0.0
H4139 H 0.55723 0.72736 0.96794 0.0
H4140 H 0.54268 0.7188 0.99196 0.0
H4141 H 0.51628 0.66216 0.88894 0.0
H4142 H 0.53462 0.64369 0.8944 0.0
H4143 H 0.54611 0.67223 0.89228 0.0
C4144 C 0.10157 0.75714 0.74547 0.0
C4145 C 0.09378 0.76011 0.72245 0.0
C4146 C 0.12475 0.75859 0.75288 0.0
C4147 C 0.14084 0.76381 0.73722 0.0
C4148 C 0.133 0.76712 0.71411 0.0
C4149 C 0.10978 0.76498 0.70701 0.0
C4150 C 0.132 0.75444 0.77749 0.0
C4151 C 0.14917 0.77268 0.69664 0.0
C4152 C 0.20323 0.78891 0.76036 0.0
C4153 C 0.21362 0.77096 0.75579 0.0
C4154 C 0.17972 0.78668 0.75505 0.0
C4155 C 0.16582 0.76597 0.74475 0.0
C4156 C 0.17616 0.74773 0.74035 0.0
C4157 C 0.19972 0.75044 0.74587 0.0
C4158 C 0.16976 0.80668 0.76011 0.0
C4159 C 0.16233 0.7252 0.7298 0.0
H4160 H 0.08948 0.75311 0.75754 0.0
H4161 H 0.10414 0.76727 0.68916 0.0
H4162 H 0.14353 0.74282 0.77705 0.0
H4163 H 0.14133 0.77015 0.78829 0.0
H4164 H 0.11748 0.74757 0.78633 0.0
H4165 H 0.14077 0.77659 0.68009 0.0
H4166 H 0.16282 0.78702 0.70454 0.0
H4167 H 0.15708 0.75851 0.69209 0.0
H4168 H 0.21351 0.80489 0.76808 0.0
H4169 H 0.20728 0.73644 0.74202 0.0
H4170 H 0.15664 0.80328 0.77183 0.0
H4171 H 0.16153 0.81042 0.74341 0.0
H4172 H 0.18259 0.82149 0.76865 0.0
H4173 H 0.15141 0.71871 0.74265 0.0
H4174 H 0.17294 0.71324 0.72523 0.0
H4175 H 0.1512 0.72623 0.71366 0.0
C4176 C 0.0349 0.37661 0.42383 0.0
C4177 C 0.05141 0.37949 0.40865 0.0
C4178 C 0.03159 0.39452 0.43969 0.0
C4179 C 0.04527 0.41594 0.44081 0.0
C4180 C 0.06258 0.41867 0.42623 0.0
C4181 C 0.06529 0.4006 0.41031 0.0
C4182 C 0.01287 0.39063 0.45469 0.0
C4183 C 0.07818 0.44083 0.42721 0.0
C4184 C 0.02196 0.46675 0.46179 0.0
C4185 C 0.0333 0.47372 0.48481 0.0
C4186 C 0.0258 0.44821 0.44737 0.0
C4187 C 0.04087 0.43565 0.45628 0.0
C4188 C 0.05194 0.44232 0.47977 0.0
C4189 C 0.04814 0.46122 0.49356 0.0
C4190 C 0.01381 0.44214 0.42242 0.0
C4191 C 0.06773 0.42942 0.4905 0.0
H4192 H 0.02392 0.36051 0.42264 0.0
H4193 H 0.07825 0.40308 0.3989 0.0
H4194 H 0.01915 0.39767 0.4734 0.0
H4195 H 0.99954 0.39915 0.44865 0.0
H4196 H 0.00527 0.37281 0.45373 0.0
H4197 H 0.08966 0.44074 0.41355 0.0
H4198 H 0.0684 0.45373 0.42483 0.0
H4199 H 0.08848 0.44554 0.44484 0.0
H4200 H 0.00967 0.47546 0.45514 0.0
H4201 H 0.05718 0.46648 0.51117 0.0
H4202 H 0.00308 0.42529 0.4201 0.0
H4203 H 0.02626 0.44191 0.40979 0.0
H4204 H 0.00315 0.45383 0.41779 0.0
H4205 H 0.05806 0.41298 0.49277 0.0
H4206 H 0.07671 0.43789 0.50801 0.0
H4207 H 0.0803 0.42663 0.47863 0.0
C4208 C 0.4475 0.27445 0.23142 0.0
C4209 C 0.45058 0.25286 0.22533 0.0
C4210 C 0.42675 0.2786 0.23768 0.0
C4211 C 0.40807 0.26083 0.23723 0.0
C4212 C 0.41096 0.23904 0.23044 0.0
C4213 C 0.43207 0.23534 0.22501 0.0
C4214 C 0.42498 0.30209 0.24526 0.0
C4215 C 0.39157 0.21953 0.2286 0.0
C4216 C 0.3604 0.26854 0.2743 0.0
C4217 C 0.34303 0.27074 0.25734 0.0
C4218 C 0.38136 0.26523 0.26803 0.0
C4219 C 0.38572 0.26485 0.24422 0.0
C4220 C 0.36841 0.26776 0.22713 0.0
C4221 C 0.34733 0.27033 0.23379 0.0
C4222 C 0.39876 0.26172 0.28692 0.0
C4223 C 0.37221 0.26843 0.20176 0.0
H4224 H 0.46155 0.28817 0.23184 0.0
H4225 H 0.43396 0.2186 0.21998 0.0
H4226 H 0.40968 0.30561 0.23574 0.0
H4227 H 0.42348 0.3045 0.26439 0.0
H4228 H 0.43987 0.31421 0.24212 0.0
H4229 H 0.39658 0.20357 0.22409 0.0
H4230 H 0.38441 0.21948 0.24549 0.0
H4231 H 0.37804 0.22085 0.21476 0.0
H4232 H 0.35737 0.26881 0.29253 0.0
H4233 H 0.33427 0.27241 0.22053 0.0
H4234 H 0.41443 0.27444 0.28803 0.0
H4235 H 0.40295 0.2454 0.28228 0.0
H4236 H 0.39293 0.26242 0.30456 0.0
H4237 H 0.38544 0.28312 0.20074 0.0
H4238 H 0.35675 0.26927 0.19026 0.0
H4239 H 0.37826 0.25367 0.19475 0.0
C4240 C 0.61097 0.54755 0.37522 0.0
C4241 C 0.59485 0.54816 0.35623 0.0
C4242 C 0.6047 0.54426 0.39757 0.0
C4243 C 0.58168 0.54048 0.40064 0.0
C4244 C 0.56534 0.54039 0.38125 0.0
C4245 C 0.57217 0.54468 0.35946 0.0
C4246 C 0.62274 0.5452 0.41792 0.0
C4247 C 0.5406 0.53605 0.38355 0.0
C4248 C 0.56228 0.5142 0.45351 0.0
C4249 C 0.55745 0.53222 0.46733 0.0
C4250 C 0.57024 0.51657 0.43169 0.0
C4251 C 0.5745 0.53767 0.42427 0.0
C4252 C 0.57038 0.55601 0.43878 0.0
C4253 C 0.56107 0.55284 0.4596 0.0
C4254 C 0.57339 0.49641 0.41627 0.0
C4255 C 0.57608 0.57906 0.43252 0.0
H4256 H 0.62854 0.55031 0.37278 0.0
H4257 H 0.55964 0.54494 0.34477 0.0
H4258 H 0.61985 0.55558 0.43388 0.0
H4259 H 0.62227 0.52838 0.42238 0.0
H4260 H 0.63979 0.55189 0.41365 0.0
H4261 H 0.52996 0.53351 0.36615 0.0
H4262 H 0.53581 0.52126 0.3923 0.0
H4263 H 0.53687 0.55028 0.39471 0.0
H4264 H 0.55898 0.49815 0.45932 0.0
H4265 H 0.55728 0.56671 0.47034 0.0
H4266 H 0.59134 0.49809 0.41401 0.0
H4267 H 0.56379 0.49488 0.39845 0.0
H4268 H 0.5678 0.48101 0.42379 0.0
H4269 H 0.59437 0.58372 0.4316 0.0
H4270 H 0.57163 0.59148 0.44566 0.0
H4271 H 0.56721 0.57975 0.4149 0.0
C4272 C 0.28575 0.87822 0.05582 0.0
C4273 C 0.30181 0.89793 0.05748 0.0
C4274 C 0.28491 0.86583 0.07438 0.0
C4275 C 0.30077 0.87329 0.09481 0.0
C4276 C 0.31667 0.89353 0.09686 0.0
C4277 C 0.3169 0.90573 0.0781 0.0
C4278 C 0.26716 0.84485 0.07205 0.0
C4279 C 0.33408 0.90177 0.1184 0.0
C4280 C 0.30205 0.8544 0.15399 0.0
C4281 C 0.31922 0.84272 0.15266 0.0
C4282 C 0.29369 0.86262 0.13414 0.0
C4283 C 0.30294 0.85896 0.11294 0.0
C4284 C 0.31821 0.84482 0.11089 0.0
C4285 C 0.32631 0.83692 0.13097 0.0
C4286 C 0.27671 0.87695 0.1365 0.0
C4287 C 0.32761 0.83981 0.08812 0.0
H4288 H 0.27371 0.87249 0.03999 0.0
H4289 H 0.32923 0.92103 0.0793 0.0
H4290 H 0.27474 0.83091 0.07643 0.0
H4291 H 0.25512 0.84708 0.08474 0.0
H4292 H 0.25764 0.84029 0.05399 0.0
H4293 H 0.34419 0.91849 0.11782 0.0
H4294 H 0.32591 0.9023 0.13468 0.0
H4295 H 0.34563 0.89024 0.11973 0.0
H4296 H 0.29633 0.8584 0.17085 0.0
H4297 H 0.33908 0.8272 0.13005 0.0
H4298 H 0.26428 0.87379 0.12033 0.0
H4299 H 0.28545 0.89457 0.13888 0.0
H4300 H 0.26767 0.87417 0.15196 0.0
H4301 H 0.31377 0.8334 0.07336 0.0
H4302 H 0.33833 0.82749 0.08921 0.0
H4303 H 0.33783 0.85518 0.08375 0.0
C4304 C 0.91898 0.49936 0.88102 0.0
C4305 C 0.92876 0.51196 0.86491 0.0
C4306 C 0.9294 0.50245 0.90431 0.0
C4307 C 0.94946 0.51866 0.91099 0.0
C4308 C 0.95814 0.53262 0.8951 0.0
C4309 C 0.9477 0.52885 0.87199 0.0
C4310 C 0.91987 0.48769 0.92134 0.0
C4311 C 0.9796 0.55008 0.90165 0.0
C4312 C 0.98032 0.53603 0.97185 0.0
C4313 C 0.99604 0.52261 0.9714 0.0
C4314 C 0.96359 0.53365 0.95288 0.0
C4315 C 0.96371 0.51843 0.93275 0.0
C4316 C 0.97961 0.50486 0.93218 0.0
C4317 C 0.99544 0.50686 0.95187 0.0
C4318 C 0.94659 0.54809 0.95391 0.0
C4319 C 0.98049 0.4889 0.91051 0.0
H4320 H 0.90388 0.48665 0.87518 0.0
H4321 H 0.95457 0.53885 0.85926 0.0
H4322 H 0.93132 0.4766 0.92555 0.0
H4323 H 0.91861 0.49775 0.93821 0.0
H4324 H 0.90303 0.47739 0.91405 0.0
H4325 H 0.981 0.5624 0.88921 0.0
H4326 H 0.98077 0.55894 0.91977 0.0
H4327 H 0.99416 0.54205 0.90104 0.0
H4328 H 0.98131 0.54868 0.98678 0.0
H4329 H 0.0077 0.49652 0.95174 0.0
H4330 H 0.92935 0.53783 0.94905 0.0
H4331 H 0.94915 0.55982 0.94096 0.0
H4332 H 0.94781 0.55771 0.97173 0.0
H4333 H 0.96493 0.47579 0.90695 0.0
H4334 H 0.99512 0.48096 0.91254 0.0
H4335 H 0.98148 0.49752 0.89478 0.0
C4336 C 0.28012 0.22528 0.59473 0.0
C4337 C 0.26347 0.20585 0.58858 0.0
C4338 C 0.28335 0.2374 0.61757 0.0
C4339 C 0.26944 0.22997 0.63439 0.0
C4340 C 0.25197 0.21095 0.62783 0.0
C4341 C 0.24929 0.19912 0.6051 0.0
C4342 C 0.30221 0.25756 0.62398 0.0
C4343 C 0.23637 0.20278 0.64501 0.0
C4344 C 0.28838 0.24091 0.70033 0.0
C4345 C 0.27632 0.25671 0.70792 0.0
C4346 C 0.28736 0.23308 0.67628 0.0
C4347 C 0.2737 0.241 0.65935 0.0
C4348 C 0.26222 0.25759 0.66677 0.0
C4349 C 0.26395 0.26549 0.69094 0.0
C4350 C 0.30013 0.21559 0.66911 0.0
C4351 C 0.24762 0.26657 0.64924 0.0
H4352 H 0.29113 0.23052 0.58202 0.0
H4353 H 0.23611 0.18433 0.60031 0.0
H4354 H 0.29632 0.27144 0.63341 0.0
H4355 H 0.31581 0.25381 0.63611 0.0
H4356 H 0.30937 0.26295 0.60819 0.0
H4357 H 0.22395 0.1874 0.63725 0.0
H4358 H 0.24617 0.19955 0.66106 0.0
H4359 H 0.22713 0.21563 0.65068 0.0
H4360 H 0.29844 0.23435 0.7132 0.0
H4361 H 0.2553 0.27829 0.69647 0.0
H4362 H 0.31029 0.22048 0.65504 0.0
H4363 H 0.28809 0.19987 0.66178 0.0
H4364 H 0.31147 0.21258 0.68418 0.0
H4365 H 0.25788 0.27411 0.63641 0.0
H4366 H 0.2395 0.27918 0.65792 0.0
H4367 H 0.23433 0.25297 0.63906 0.0
C4368 C 0.60231 0.52038 0.19862 0.0
C4369 C 0.59939 0.53616 0.21682 0.0
C4370 C 0.59245 0.51976 0.17526 0.0
C4371 C 0.58043 0.53607 0.16976 0.0
C4372 C 0.57744 0.55202 0.1882 0.0
C4373 C 0.5865 0.55153 0.21161 0.0
C4374 C 0.59529 0.50188 0.15641 0.0
C4375 C 0.56516 0.56997 0.18318 0.0
C4376 C 0.57919 0.54782 0.10624 0.0
C4377 C 0.5571 0.53773 0.09655 0.0
C4378 C 0.58673 0.54803 0.13023 0.0
C4379 C 0.57206 0.53709 0.14461 0.0
C4380 C 0.54968 0.52682 0.13474 0.0
C4381 C 0.54236 0.52762 0.1109 0.0
C4382 C 0.6104 0.55994 0.14018 0.0
C4383 C 0.53379 0.51409 0.14898 0.0
H4384 H 0.61222 0.50844 0.2027 0.0
H4385 H 0.5844 0.56381 0.22571 0.0
H4386 H 0.57912 0.49468 0.14493 0.0
H4387 H 0.60748 0.50902 0.14505 0.0
H4388 H 0.60154 0.48842 0.1641 0.0
H4389 H 0.56699 0.5828 0.19882 0.0
H4390 H 0.57149 0.57802 0.16833 0.0
H4391 H 0.54703 0.56268 0.17784 0.0
H4392 H 0.5905 0.55574 0.09507 0.0
H4393 H 0.52533 0.51959 0.1032 0.0
H4394 H 0.62031 0.54794 0.14568 0.0
H4395 H 0.61023 0.5718 0.15612 0.0
H4396 H 0.61907 0.56905 0.12719 0.0
H4397 H 0.53982 0.49915 0.15289 0.0
H4398 H 0.51642 0.50885 0.13945 0.0
H4399 H 0.53337 0.52409 0.16613 0.0
C4400 C 0.29708 0.87874 0.93157 0.0
C4401 C 0.28566 0.89525 0.92636 0.0
C4402 C 0.29423 0.85951 0.91594 0.0
C4403 C 0.28032 0.85734 0.89438 0.0
C4404 C 0.26826 0.87364 0.88914 0.0
C4405 C 0.27109 0.89266 0.90544 0.0
C4406 C 0.3072 0.84225 0.92192 0.0
C4407 C 0.25332 0.87144 0.86596 0.0
C4408 C 0.30119 0.82946 0.84346 0.0
C4409 C 0.28353 0.81118 0.8363 0.0
C4410 C 0.30009 0.84493 0.86232 0.0
C4411 C 0.2821 0.84048 0.87561 0.0
C4412 C 0.26577 0.82059 0.87039 0.0
C4413 C 0.26624 0.8063 0.85005 0.0
C4414 C 0.3173 0.86654 0.86692 0.0
C4415 C 0.24767 0.81483 0.88582 0.0
H4416 H 0.30849 0.8809 0.94785 0.0
H4417 H 0.26202 0.90538 0.90189 0.0
H4418 H 0.29696 0.82536 0.91583 0.0
H4419 H 0.32242 0.84405 0.9129 0.0
H4420 H 0.3127 0.844 0.94121 0.0
H4421 H 0.24515 0.8857 0.86484 0.0
H4422 H 0.26331 0.87009 0.85108 0.0
H4423 H 0.24004 0.85616 0.86364 0.0
H4424 H 0.31502 0.83251 0.8332 0.0
H4425 H 0.25256 0.79212 0.84433 0.0
H4426 H 0.3276 0.86816 0.88433 0.0
H4427 H 0.30879 0.88065 0.86734 0.0
H4428 H 0.32877 0.86795 0.85324 0.0
H4429 H 0.25554 0.81257 0.90337 0.0
H4430 H 0.23527 0.79942 0.87813 0.0
H4431 H 0.23867 0.82843 0.88879 0.0
C4432 C 0.89797 0.51542 0.72161 0.0
C4433 C 0.907 0.53077 0.74177 0.0
C4434 C 0.91156 0.51034 0.7046 0.0
C4435 C 0.93456 0.52109 0.70784 0.0
C4436 C 0.94338 0.53756 0.72751 0.0
C4437 C 0.9294 0.54225 0.7442 0.0
C4438 C 0.90168 0.49246 0.68395 0.0
C4439 C 0.96755 0.55005 0.73166 0.0
C4440 C 0.97039 0.48654 0.67814 0.0
C4441 C 0.96972 0.49337 0.65583 0.0
C4442 C 0.96017 0.49644 0.69591 0.0
C4443 C 0.94934 0.51375 0.69129 0.0
C4444 C 0.95053 0.52219 0.66974 0.0
C4445 C 0.96026 0.5116 0.65203 0.0
C4446 C 0.96007 0.48776 0.71925 0.0
C4447 C 0.94052 0.54166 0.66492 0.0
H4448 H 0.88072 0.50632 0.71989 0.0
H4449 H 0.93634 0.55422 0.75983 0.0
H4450 H 0.90417 0.49891 0.6671 0.0
H4451 H 0.91046 0.47859 0.68459 0.0
H4452 H 0.88344 0.48594 0.68385 0.0
H4453 H 0.97432 0.55218 0.75068 0.0
H4454 H 0.97868 0.54198 0.72128 0.0
H4455 H 0.96826 0.56679 0.72679 0.0
H4456 H 0.97839 0.47304 0.68152 0.0
H4457 H 0.9595 0.51711 0.63489 0.0
H4458 H 0.94258 0.48021 0.7215 0.0
H4459 H 0.96649 0.50153 0.734 0.0
H4460 H 0.97048 0.4752 0.7206 0.0
H4461 H 0.92202 0.53616 0.66054 0.0
H4462 H 0.94716 0.5492 0.6499 0.0
H4463 H 0.94405 0.55449 0.68077 0.0
C4464 C 0.29208 0.21258 0.43659 0.0
C4465 C 0.27057 0.20691 0.44306 0.0
C4466 C 0.29523 0.22071 0.41525 0.0
C4467 C 0.2763 0.22231 0.39969 0.0
C4468 C 0.25442 0.2155 0.40571 0.0
C4469 C 0.25185 0.20833 0.42763 0.0
C4470 C 0.31883 0.2285 0.40989 0.0
C4471 C 0.23377 0.21552 0.38886 0.0
C4472 C 0.2801 0.26489 0.358 0.0
C4473 C 0.28379 0.25299 0.33702 0.0
C4474 C 0.27885 0.25535 0.37872 0.0
C4475 C 0.27936 0.23277 0.37807 0.0
C4476 C 0.28224 0.22035 0.35677 0.0
C4477 C 0.2853 0.23085 0.33676 0.0
C4478 C 0.27667 0.26944 0.40127 0.0
C4479 C 0.28176 0.19595 0.35482 0.0
H4480 H 0.30648 0.21123 0.44857 0.0
H4481 H 0.23518 0.20333 0.43249 0.0
H4482 H 0.32068 0.2212 0.39187 0.0
H4483 H 0.32238 0.24669 0.41048 0.0
H4484 H 0.33159 0.22425 0.4227 0.0
H4485 H 0.21798 0.20909 0.39593 0.0
H4486 H 0.23368 0.23247 0.38506 0.0
H4487 H 0.23402 0.2052 0.37181 0.0
H4488 H 0.27791 0.28167 0.35833 0.0
H4489 H 0.28781 0.22136 0.32059 0.0
H4490 H 0.28915 0.26747 0.41588 0.0
H4491 H 0.25975 0.26405 0.40641 0.0
H4492 H 0.27921 0.28721 0.39942 0.0
H4493 H 0.29829 0.19347 0.36247 0.0
H4494 H 0.27833 0.18785 0.33613 0.0
H4495 H 0.26881 0.18758 0.36469 0.0
C4496 C 0.33851 0.6116 0.56082 0.0
C4497 C 0.32466 0.59762 0.5731 0.0
C4498 C 0.35742 0.60574 0.55302 0.0
C4499 C 0.36308 0.58605 0.55876 0.0
C4500 C 0.35131 0.57387 0.57442 0.0
C4501 C 0.33187 0.57974 0.58133 0.0
C4502 C 0.3692 0.61893 0.53587 0.0
C4503 C 0.35813 0.55368 0.58219 0.0
C4504 C 0.38263 0.5573 0.50662 0.0
C4505 C 0.40587 0.56402 0.5125 0.0
C4506 C 0.36842 0.56315 0.52248 0.0
C4507 C 0.37791 0.57623 0.54445 0.0
C4508 C 0.40139 0.58246 0.55076 0.0
C4509 C 0.41521 0.57619 0.53461 0.0
C4510 C 0.3433 0.55606 0.51533 0.0
C4511 C 0.41186 0.59658 0.57397 0.0
H4512 H 0.33341 0.62597 0.5551 0.0
H4513 H 0.32158 0.56951 0.59169 0.0
H4514 H 0.38766 0.62096 0.53953 0.0
H4515 H 0.3637 0.60997 0.51766 0.0
H4516 H 0.36519 0.63554 0.53643 0.0
H4517 H 0.34598 0.54501 0.59273 0.0
H4518 H 0.35965 0.54195 0.56666 0.0
H4519 H 0.37484 0.55867 0.59311 0.0
H4520 H 0.37564 0.54734 0.48971 0.0
H4521 H 0.43331 0.58104 0.53907 0.0
H4522 H 0.33621 0.57072 0.51268 0.0
H4523 H 0.33518 0.54833 0.52947 0.0
H4524 H 0.3388 0.54412 0.49872 0.0
H4525 H 0.41072 0.61394 0.57299 0.0
H4526 H 0.42985 0.59612 0.57822 0.0
H4527 H 0.40277 0.5912 0.58861 0.0
C4528 C 0.87991 0.92325 0.52378 0.0
C4529 C 0.86619 0.92965 0.54002 0.0
C4530 C 0.90183 0.93546 0.52425 0.0
C4531 C 0.90996 0.95456 0.54128 0.0
C4532 C 0.89633 0.96054 0.55827 0.0
C4533 C 0.8745 0.94799 0.55738 0.0
C4534 C 0.91591 0.92849 0.50594 0.0
C4535 C 0.90422 0.981 0.57639 0.0
C4536 C 0.97246 0.97991 0.55205 0.0
C4537 C 0.97389 0.99679 0.53794 0.0
C4538 C 0.95176 0.96602 0.55332 0.0
C4539 C 0.93204 0.96916 0.54028 0.0
C4540 C 0.93332 0.98636 0.52627 0.0
C4541 C 0.95424 0.99992 0.52522 0.0
C4542 C 0.95098 0.94786 0.56844 0.0
C4543 C 0.91269 0.99009 0.51188 0.0
H4544 H 0.87314 0.90922 0.51012 0.0
H4545 H 0.86354 0.95311 0.56953 0.0
H4546 H 0.92055 0.9419 0.49524 0.0
H4547 H 0.93176 0.92546 0.51477 0.0
H4548 H 0.90702 0.9133 0.49386 0.0
H4549 H 0.89298 0.98166 0.59024 0.0
H4550 H 0.9215 0.98185 0.58499 0.0
H4551 H 0.90465 0.99583 0.56748 0.0
H4552 H 0.98757 0.97737 0.56192 0.0
H4553 H 0.9552 0.01266 0.51395 0.0
H4554 H 0.94395 0.93162 0.55738 0.0
H4555 H 0.93969 0.94996 0.58197 0.0
H4556 H 0.96783 0.94758 0.57749 0.0
H4557 H 0.90625 0.97595 0.49756 0.0
H4558 H 0.9162 0.00545 0.50377 0.0
H4559 H 0.89915 0.99104 0.52305 0.0
C4560 C 0.86937 0.06651 0.25611 0.0
C4561 C 0.89202 0.06955 0.26552 0.0
C4562 C 0.85796 0.08378 0.25907 0.0
C4563 C 0.86956 0.10442 0.27176 0.0
C4564 C 0.89267 0.10783 0.28039 0.0
C4565 C 0.90363 0.09034 0.27713 0.0
C4566 C 0.83347 0.07983 0.24906 0.0
C4567 C 0.90557 0.12963 0.29417 0.0
C4568 C 0.84874 0.1574 0.27268 0.0
C4569 C 0.84172 0.15926 0.29503 0.0
C4570 C 0.85673 0.1389 0.26407 0.0
C4571 C 0.85737 0.12195 0.27816 0.0
C4572 C 0.8488 0.12315 0.30005 0.0
C4573 C 0.8412 0.14194 0.30832 0.0
C4574 C 0.86577 0.13817 0.24068 0.0
C4575 C 0.84856 0.105 0.31517 0.0
H4576 H 0.86044 0.05053 0.24676 0.0
H4577 H 0.92117 0.09282 0.28429 0.0
H4578 H 0.82335 0.0839 0.26317 0.0
H4579 H 0.83135 0.09083 0.23565 0.0
H4580 H 0.82664 0.06248 0.24066 0.0
H4581 H 0.92391 0.13034 0.29727 0.0
H4582 H 0.90276 0.14349 0.28474 0.0
H4583 H 0.89947 0.13216 0.31155 0.0
H4584 H 0.84894 0.17088 0.26244 0.0
H4585 H 0.83523 0.14332 0.32539 0.0
H4586 H 0.85911 0.12184 0.22971 0.0
H4587 H 0.88432 0.14055 0.24377 0.0
H4588 H 0.86148 0.1512 0.23064 0.0
H4589 H 0.83882 0.08912 0.30505 0.0
H4590 H 0.84107 0.10841 0.3316 0.0
H4591 H 0.86593 0.10293 0.3201 0.0
C4592 C 0.68561 0.10867 0.02301 0.0
C4593 C 0.69937 0.09656 0.03414 0.0
C4594 C 0.66245 0.10126 0.01948 0.0
C4595 C 0.6532 0.08164 0.02781 0.0
C4596 C 0.66701 0.0693 0.03918 0.0
C4597 C 0.69022 0.07682 0.04187 0.0
C4598 C 0.64785 0.11465 0.00752 0.0
C4599 C 0.65736 0.0485 0.04882 0.0
C4600 C 0.59543 0.07187 0.04413 0.0
C4601 C 0.58504 0.05426 0.02673 0.0
C4602 C 0.61768 0.08193 0.04413 0.0
C4603 C 0.62895 0.07453 0.02561 0.0
C4604 C 0.6175 0.0586 0.00637 0.0
C4605 C 0.59534 0.04834 0.00726 0.0
C4606 C 0.62973 0.09816 0.06545 0.0
C4607 C 0.62929 0.05089 0.98625 0.0
H4608 H 0.693 0.12404 0.01722 0.0
H4609 H 0.7011 0.0678 0.05084 0.0
H4610 H 0.63608 0.10404 0.99266 0.0
H4611 H 0.63754 0.12119 0.0202 0.0
H4612 H 0.65789 0.12876 0.00065 0.0
H4613 H 0.67025 0.04306 0.06041 0.0
H4614 H 0.64349 0.05093 0.05907 0.0
H4615 H 0.6503 0.03503 0.03394 0.0
H4616 H 0.58698 0.07594 0.05918 0.0
H4617 H 0.58692 0.03438 0.99411 0.0
H4618 H 0.6401 0.11287 0.06001 0.0
H4619 H 0.64121 0.09023 0.07602 0.0
H4620 H 0.61788 0.10364 0.077 0.0
H4621 H 0.63775 0.06526 0.97858 0.0
H4622 H 0.61752 0.03931 0.97205 0.0
H4623 H 0.64246 0.04245 0.99291 0.0
C4624 C 0.23862 0.48793 0.24614 0.0
C4625 C 0.21639 0.48891 0.24841 0.0
C4626 C 0.2468 0.46971 0.25202 0.0
C4627 C 0.23225 0.45268 0.26036 0.0
C4628 C 0.20928 0.45276 0.26048 0.0
C4629 C 0.20158 0.47086 0.25423 0.0
C4630 C 0.27111 0.46921 0.25058 0.0
C4631 C 0.19329 0.43506 0.26973 0.0
C4632 C 0.24334 0.39898 0.27473 0.0
C4633 C 0.24881 0.40403 0.29934 0.0
C4634 C 0.23973 0.4153 0.26125 0.0
C4635 C 0.24129 0.43682 0.2729 0.0
C4636 C 0.24752 0.44217 0.29764 0.0
C4637 C 0.25125 0.42557 0.31064 0.0
C4638 C 0.23303 0.40931 0.23486 0.0
C4639 C 0.24927 0.46517 0.31048 0.0
H4640 H 0.24977 0.5017 0.24085 0.0
H4641 H 0.18412 0.47133 0.25525 0.0
H4642 H 0.27963 0.46742 0.26801 0.0
H4643 H 0.27212 0.45468 0.23793 0.0
H4644 H 0.28037 0.48433 0.24473 0.0
H4645 H 0.17547 0.43602 0.26523 0.0
H4646 H 0.19519 0.41835 0.26263 0.0
H4647 H 0.19714 0.43709 0.28926 0.0
H4648 H 0.24164 0.38221 0.2661 0.0
H4649 H 0.25614 0.42941 0.32959 0.0
H4650 H 0.2423 0.42195 0.22547 0.0
H4651 H 0.21487 0.40883 0.23041 0.0
H4652 H 0.23619 0.39294 0.22815 0.0
H4653 H 0.26107 0.47733 0.30277 0.0
H4654 H 0.25515 0.46664 0.32965 0.0
H4655 H 0.23263 0.46967 0.30836 0.0
C4656 C 0.23746 0.42361 0.0235 0.0
C4657 C 0.23913 0.41252 0.04303 0.0
C4658 C 0.21961 0.43406 0.01901 0.0
C4659 C 0.20351 0.43393 0.03494 0.0
C4660 C 0.20529 0.42283 0.05486 0.0
C4661 C 0.22299 0.41188 0.05847 0.0
C4662 C 0.21811 0.4453 0.99728 0.0
C4663 C 0.18852 0.42249 0.07224 0.0
C4664 C 0.17278 0.48013 0.0291 0.0
C4665 C 0.15389 0.46917 0.0132 0.0
C4666 C 0.18842 0.46848 0.03787 0.0
C4667 C 0.18491 0.44546 0.03041 0.0
C4668 C 0.16487 0.43415 0.01581 0.0
C4669 C 0.14963 0.44623 0.00725 0.0
C4670 C 0.20949 0.48104 0.05362 0.0
C4671 C 0.16046 0.40968 0.00728 0.0
H4672 H 0.24997 0.42382 0.01153 0.0
H4673 H 0.22446 0.40316 0.07354 0.0
H4674 H 0.20101 0.44005 0.98718 0.0
H4675 H 0.22134 0.46343 0.00265 0.0
H4676 H 0.23043 0.44165 0.98539 0.0
H4677 H 0.19362 0.41515 0.08805 0.0
H4678 H 0.18647 0.43948 0.07806 0.0
H4679 H 0.17189 0.41273 0.06357 0.0
H4680 H 0.17604 0.49795 0.03345 0.0
H4681 H 0.135 0.43791 0.99478 0.0
H4682 H 0.22393 0.48228 0.04342 0.0
H4683 H 0.21322 0.47218 0.06864 0.0
H4684 H 0.20811 0.498 0.06066 0.0
H4685 H 0.16996 0.40678 0.99226 0.0
H4686 H 0.14235 0.40273 0.00111 0.0
H4687 H 0.16615 0.40059 0.02133 0.0
C4688 C 0.88526 0.93497 0.28152 0.0
C4689 C 0.88806 0.94168 0.25956 0.0
C4690 C 0.8697 0.91571 0.28329 0.0
C4691 C 0.85654 0.90313 0.26256 0.0
C4692 C 0.85872 0.91046 0.24041 0.0
C4693 C 0.87468 0.92965 0.23914 0.0
C4694 C 0.86822 0.9083 0.30719 0.0
C4695 C 0.84423 0.898 0.21811 0.0
C4696 C 0.83606 0.84163 0.26124 0.0
C4697 C 0.81478 0.84041 0.2686 0.0
C4698 C 0.84996 0.86198 0.25975 0.0
C4699 C 0.84176 0.88152 0.26388 0.0
C4700 C 0.81998 0.88037 0.2703 0.0
C4701 C 0.80734 0.86003 0.27387 0.0
C4702 C 0.87366 0.86261 0.25441 0.0
C4703 C 0.81006 0.90059 0.27389 0.0
H4704 H 0.89571 0.9445 0.29723 0.0
H4705 H 0.87686 0.93516 0.22223 0.0
H4706 H 0.85054 0.90433 0.31062 0.0
H4707 H 0.8748 0.89302 0.30751 0.0
H4708 H 0.878 0.92102 0.32174 0.0
H4709 H 0.84808 0.90586 0.20231 0.0
H4710 H 0.84656 0.88079 0.21512 0.0
H4711 H 0.82627 0.89716 0.22002 0.0
H4712 H 0.84237 0.82674 0.25759 0.0
H4713 H 0.7918 0.85973 0.28109 0.0
H4714 H 0.88579 0.87381 0.26859 0.0
H4715 H 0.87601 0.86924 0.23764 0.0
H4716 H 0.87784 0.84604 0.25293 0.0
H4717 H 0.81615 0.90961 0.29196 0.0
H4718 H 0.79142 0.89607 0.27192 0.0
H4719 H 0.8151 0.91197 0.26111 0.0
C4720 C 0.72807 0.12537 0.7383 0.0
C4721 C 0.7142 0.11485 0.75295 0.0
C4722 C 0.73678 0.14792 0.7438 0.0
C4723 C 0.73143 0.15932 0.76448 0.0
C4724 C 0.71793 0.14845 0.77959 0.0
C4725 C 0.70948 0.12601 0.77362 0.0
C4726 C 0.75089 0.15961 0.72722 0.0
C4727 C 0.71135 0.16071 0.80113 0.0
C4728 C 0.77126 0.21265 0.78586 0.0
C4729 C 0.75939 0.22674 0.77588 0.0
C4730 C 0.76153 0.1904 0.78353 0.0
C4731 C 0.74002 0.18274 0.77035 0.0
C4732 C 0.72744 0.19727 0.76147 0.0
C4733 C 0.73733 0.21951 0.76476 0.0
C4734 C 0.77478 0.17492 0.79355 0.0
C4735 C 0.70476 0.18931 0.74649 0.0
H4736 H 0.73099 0.11625 0.72208 0.0
H4737 H 0.69819 0.11736 0.78436 0.0
H4738 H 0.74457 0.17424 0.72271 0.0
H4739 H 0.76843 0.16561 0.73601 0.0
H4740 H 0.75104 0.14865 0.71055 0.0
H4741 H 0.70205 0.14936 0.81188 0.0
H4742 H 0.72645 0.17112 0.8124 0.0
H4743 H 0.70049 0.17189 0.79549 0.0
H4744 H 0.78844 0.21886 0.79429 0.0
H4745 H 0.72867 0.23087 0.7567 0.0
H4746 H 0.77932 0.16411 0.77891 0.0
H4747 H 0.76443 0.16409 0.80399 0.0
H4748 H 0.79045 0.18392 0.80502 0.0
H4749 H 0.70721 0.18282 0.72836 0.0
H4750 H 0.69559 0.20285 0.74523 0.0
H4751 H 0.69414 0.17574 0.75354 0.0
loop_
_geom_bond_atom_site_label_1
_geom_bond_atom_site_label_2
_geom_bond_distance
_geom_bond_site_symmetry_2
_ccdc_geom_bond_type
C0 O1 1.311 . S
C0 O3 1.162 . S
O1 C0 1.311 . S
O1 Cd2 2.228 . S
Cd2 O1 2.228 . S
Cd2 O6 2.273 . S
Cd2 O10 2.277 . S
O3 C0 1.162 . S
O3 Cd4 2.203 . S
Cd4 O3 2.203 . S
Cd4 O6 2.411 . S
Cd4 O7 2.333 . S
Cd4 O8 2.352 . S
Cd4 O12 2.277 . S
Cd4 O13 2.356 . S
C5 O10 1.209 . S
C5 O12 1.226 . S
O6 Cd2 2.273 . S
O6 Cd4 2.411 . S
O6 C9 1.320 . S
O7 Cd4 2.333 . S
O7 C9 1.214 . S
O8 Cd4 2.352 . S
O8 C11 1.258 . S
C9 O6 1.320 . S
C9 O7 1.214 . S
O10 Cd2 2.277 . S
O10 C5 1.209 . S
C11 O8 1.258 . S
C11 O13 1.282 . S
O12 Cd4 2.277 . S
O12 C5 1.226 . S
O13 Cd4 2.356 . S
O13 C11 1.282 . S
C14 O15 1.306 . S
C14 O17 1.160 . S
O15 C14 1.306 . S
O15 Cd16 2.228 1_655 S
Cd16 O15 2.228 1_455 S
Cd16 O20 2.273 . S
Cd16 O24 2.277 . S
O17 C14 1.160 . S
O17 Cd18 2.203 1_655 S
Cd18 O17 2.203 1_455 S
Cd18 O20 2.411 . S
Cd18 O21 2.333 . S
Cd18 O22 2.352 . S
Cd18 O26 2.277 . S
Cd18 O27 2.356 . S
C19 O24 1.209 . S
C19 O26 1.226 . S
O20 Cd16 2.273 . S
O20 Cd18 2.411 . S
O20 C23 1.320 . S
O21 Cd18 2.333 . S
O21 C23 1.214 . S
O22 Cd18 2.352 . S
O22 C25 1.258 . S
C23 O20 1.320 . S
C23 O21 1.214 . S
O24 Cd16 2.277 . S
O24 C19 1.209 . S
C25 O22 1.258 . S
C25 O27 1.282 . S
O26 Cd18 2.277 . S
O26 C19 1.226 . S
O27 Cd18 2.356 . S
O27 C25 1.282 . S
C28 O29 1.306 . S
C28 O31 1.160 . S
O29 C28 1.306 . S
O29 Cd30 2.228 . S
Cd30 O29 2.228 . S
Cd30 O34 2.273 . S
Cd30 O38 2.277 . S
O31 C28 1.160 . S
O31 Cd32 2.203 . S
Cd32 O31 2.203 . S
Cd32 O34 2.411 . S
Cd32 O35 2.333 . S
Cd32 O36 2.352 . S
Cd32 O40 2.277 . S
Cd32 O41 2.356 . S
C33 O38 1.209 . S
C33 O40 1.226 . S
O34 Cd30 2.273 . S
O34 Cd32 2.411 . S
O34 C37 1.320 . S
O35 Cd32 2.333 . S
O35 C37 1.214 . S
O36 Cd32 2.352 . S
O36 C39 1.258 . S
C37 O34 1.320 . S
C37 O35 1.214 . S
O38 Cd30 2.277 . S
O38 C33 1.209 . S
C39 O36 1.258 . S
C39 O41 1.282 . S
O40 Cd32 2.277 . S
O40 C33 1.226 . S
O41 Cd32 2.356 . S
O41 C39 1.282 . S
C42 O43 1.306 . S
C42 O45 1.160 . S
O43 C42 1.306 . S
O43 Cd44 2.228 . S
Cd44 O43 2.228 . S
Cd44 O48 2.273 . S
Cd44 O52 2.277 . S
O45 C42 1.160 . S
O45 Cd46 2.203 . S
Cd46 O45 2.203 . S
Cd46 O48 2.411 . S
Cd46 O49 2.333 . S
Cd46 O50 2.352 . S
Cd46 O54 2.277 . S
Cd46 O55 2.356 . S
C47 O52 1.209 . S
C47 O54 1.226 . S
O48 Cd44 2.273 . S
O48 Cd46 2.411 . S
O48 C51 1.320 . S
O49 Cd46 2.333 . S
O49 C51 1.214 . S
O50 Cd46 2.352 . S
O50 C53 1.258 . S
C51 O48 1.320 . S
C51 O49 1.214 . S
O52 Cd44 2.277 . S
O52 C47 1.209 . S
C53 O50 1.258 . S
C53 O55 1.282 . S
O54 Cd46 2.277 . S
O54 C47 1.226 . S
O55 Cd46 2.356 . S
O55 C53 1.282 . S
C56 O57 1.306 . S
C56 O59 1.160 . S
O57 C56 1.306 . S
O57 Cd58 2.228 . S
Cd58 O57 2.228 . S
Cd58 O62 2.273 . S
Cd58 O66 2.277 . S
O59 C56 1.160 . S
O59 Cd60 2.203 . S
Cd60 O59 2.203 . S
Cd60 O62 2.411 . S
Cd60 O63 2.333 . S
Cd60 O64 2.352 . S
Cd60 O68 2.277 . S
Cd60 O69 2.356 . S
C61 O66 1.209 . S
C61 O68 1.226 . S
O62 Cd58 2.273 . S
O62 Cd60 2.411 . S
O62 C65 1.320 . S
O63 Cd60 2.333 . S
O63 C65 1.214 . S
O64 Cd60 2.352 . S
O64 C67 1.258 . S
C65 O62 1.320 . S
C65 O63 1.214 . S
O66 Cd58 2.277 . S
O66 C61 1.209 . S
C67 O64 1.258 . S
C67 O69 1.282 . S
O68 Cd60 2.277 . S
O68 C61 1.226 . S
O69 Cd60 2.356 . S
O69 C67 1.282 . S
C70 O71 1.306 . S
C70 O73 1.160 . S
O71 C70 1.306 . S
O71 Cd72 2.228 . S
Cd72 O71 2.228 . S
Cd72 O76 2.273 . S
Cd72 O80 2.277 . S
O73 C70 1.160 . S
O73 Cd74 2.203 . S
Cd74 O73 2.203 . S
Cd74 O76 2.411 . S
Cd74 O77 2.333 . S
Cd74 O78 2.352 . S
Cd74 O82 2.277 . S
Cd74 O83 2.356 . S
C75 O80 1.209 . S
C75 O82 1.226 . S
O76 Cd72 2.273 . S
O76 Cd74 2.411 . S
O76 C79 1.320 . S
O77 Cd74 2.333 . S
O77 C79 1.214 . S
O78 Cd74 2.352 . S
O78 C81 1.258 . S
C79 O76 1.320 . S
C79 O77 1.214 . S
O80 Cd72 2.277 . S
O80 C75 1.209 . S
C81 O78 1.258 . S
C81 O83 1.282 . S
O82 Cd74 2.277 . S
O82 C75 1.226 . S
O83 Cd74 2.356 . S
O83 C81 1.282 . S
C84 O85 1.306 . S
C84 O87 1.160 . S
O85 C84 1.306 . S
O85 Cd86 2.228 . S
Cd86 O85 2.228 . S
Cd86 O90 2.273 . S
Cd86 O94 2.277 . S
O87 C84 1.160 . S
O87 Cd88 2.203 . S
Cd88 O87 2.203 . S
Cd88 O90 2.411 . S
Cd88 O91 2.333 . S
Cd88 O92 2.352 . S
Cd88 O96 2.277 . S
Cd88 O97 2.356 . S
C89 O94 1.209 . S
C89 O96 1.226 . S
O90 Cd86 2.273 . S
O90 Cd88 2.411 . S
O90 C93 1.320 . S
O91 Cd88 2.333 . S
O91 C93 1.214 . S
O92 Cd88 2.352 . S
O92 C95 1.258 . S
C93 O90 1.320 . S
C93 O91 1.214 . S
O94 Cd86 2.277 . S
O94 C89 1.209 . S
C95 O92 1.258 . S
C95 O97 1.282 . S
O96 Cd88 2.277 . S
O96 C89 1.226 . S
O97 Cd88 2.356 . S
O97 C95 1.282 . S
C98 O99 1.306 . S
C98 O101 1.160 . S
O99 C98 1.306 . S
O99 Cd100 2.228 1_655 S
Cd100 O99 2.228 1_455 S
Cd100 O104 2.273 . S
Cd100 O108 2.277 . S
O101 C98 1.160 . S
O101 Cd102 2.203 1_655 S
Cd102 O101 2.203 1_455 S
Cd102 O104 2.411 . S
Cd102 O105 2.333 . S
Cd102 O106 2.352 1_455 S
Cd102 O110 2.277 . S
Cd102 O111 2.356 . S
C103 O108 1.209 . S
C103 O110 1.226 . S
O104 Cd100 2.273 . S
O104 Cd102 2.411 . S
O104 C107 1.320 . S
O105 Cd102 2.333 . S
O105 C107 1.214 . S
O106 Cd102 2.352 1_655 S
O106 C109 1.261 . S
C107 O104 1.320 . S
C107 O105 1.214 . S
O108 Cd100 2.277 . S
O108 C103 1.209 . S
C109 O106 1.261 . S
C109 O111 1.281 1_655 S
O110 Cd102 2.277 . S
O110 C103 1.226 . S
O111 Cd102 2.356 . S
O111 C109 1.281 1_455 S
C112 O113 1.324 . S
C112 O115 1.160 . S
O113 C112 1.324 . S
O113 Cd114 2.208 1_545 S
Cd114 O113 2.208 1_565 S
Cd114 O118 2.273 1_565 S
Cd114 O122 2.277 . S
O115 C112 1.160 . S
O115 Cd116 2.203 . S
Cd116 O115 2.203 . S
Cd116 O118 2.411 . S
Cd116 O119 2.333 . S
Cd116 O120 2.352 . S
Cd116 O124 2.277 1_545 S
Cd116 O125 2.356 . S
C117 O122 1.209 . S
C117 O124 1.226 . S
O118 Cd114 2.273 1_545 S
O118 Cd116 2.411 . S
O118 C121 1.320 . S
O119 Cd116 2.333 . S
O119 C121 1.214 . S
O120 Cd116 2.352 . S
O120 C123 1.258 . S
C121 O118 1.320 . S
C121 O119 1.214 . S
O122 Cd114 2.277 . S
O122 C117 1.209 . S
C123 O120 1.258 . S
C123 O125 1.282 . S
O124 Cd116 2.277 1_565 S
O124 C117 1.226 . S
O125 Cd116 2.356 . S
O125 C123 1.282 . S
C126 O127 1.306 . S
C126 O129 1.160 . S
O127 C126 1.306 . S
O127 Cd128 2.228 . S
Cd128 O127 2.228 . S
Cd128 O132 2.273 . S
Cd128 O136 2.277 . S
O129 C126 1.160 . S
O129 Cd130 2.203 . S
Cd130 O129 2.203 . S
Cd130 O132 2.411 . S
Cd130 O133 2.333 . S
Cd130 O134 2.352 . S
Cd130 O138 2.277 . S
Cd130 O139 2.356 . S
C131 O136 1.209 . S
C131 O138 1.226 . S
O132 Cd128 2.273 . S
O132 Cd130 2.411 . S
O132 C135 1.320 . S
O133 Cd130 2.333 . S
O133 C135 1.214 . S
O134 Cd130 2.352 . S
O134 C137 1.258 . S
C135 O132 1.320 . S
C135 O133 1.214 . S
O136 Cd128 2.277 . S
O136 C131 1.209 . S
C137 O134 1.258 . S
C137 O139 1.282 . S
O138 Cd130 2.277 . S
O138 C131 1.226 . S
O139 Cd130 2.356 . S
O139 C137 1.282 . S
C140 O141 1.306 . S
C140 O143 1.160 . S
O141 C140 1.306 . S
O141 Cd142 2.228 . S
Cd142 O141 2.228 . S
Cd142 O146 2.273 . S
Cd142 O150 2.277 . S
O143 C140 1.160 . S
O143 Cd144 2.203 . S
Cd144 O143 2.203 . S
Cd144 O146 2.411 . S
Cd144 O147 2.333 . S
Cd144 O148 2.352 . S
Cd144 O152 2.277 . S
Cd144 O153 2.356 . S
C145 O150 1.209 . S
C145 O152 1.226 . S
O146 Cd142 2.273 . S
O146 Cd144 2.411 . S
O146 C149 1.320 . S
O147 Cd144 2.333 . S
O147 C149 1.214 . S
O148 Cd144 2.352 . S
O148 C151 1.258 . S
C149 O146 1.320 . S
C149 O147 1.214 . S
O150 Cd142 2.277 . S
O150 C145 1.209 . S
C151 O148 1.258 . S
C151 O153 1.282 . S
O152 Cd144 2.277 . S
O152 C145 1.226 . S
O153 Cd144 2.356 . S
O153 C151 1.282 . S
C154 O155 1.286 1_554 S
C154 O157 1.178 . S
O155 C154 1.286 1_556 S
O155 Cd156 2.228 . S
Cd156 O155 2.228 . S
Cd156 O160 2.279 . S
Cd156 O164 2.277 . S
O157 C154 1.178 . S
O157 Cd158 2.203 . S
Cd158 O157 2.203 . S
Cd158 O160 2.410 1_554 S
Cd158 O161 2.331 . S
Cd158 O162 2.352 . S
Cd158 O166 2.277 1_554 S
Cd158 O167 2.356 . S
C159 O164 1.209 . S
C159 O166 1.226 . S
O160 Cd156 2.279 . S
O160 Cd158 2.410 1_556 S
O160 C163 1.323 . S
O161 Cd158 2.331 . S
O161 C163 1.203 1_554 S
O162 Cd158 2.352 . S
O162 C165 1.258 . S
C163 O160 1.323 . S
C163 O161 1.203 1_556 S
O164 Cd156 2.277 . S
O164 C159 1.209 . S
C165 O162 1.258 . S
C165 O167 1.282 . S
O166 Cd158 2.277 1_556 S
O166 C159 1.226 . S
O167 Cd158 2.356 . S
O167 C165 1.282 . S
C168 O169 1.306 . S
C168 O171 1.160 . S
O169 C168 1.306 . S
O169 Cd170 2.228 . S
Cd170 O169 2.228 . S
Cd170 O174 2.273 . S
Cd170 O178 2.277 . S
O171 C168 1.160 . S
O171 Cd172 2.203 . S
Cd172 O171 2.203 . S
Cd172 O174 2.411 . S
Cd172 O175 2.333 . S
Cd172 O176 2.352 . S
Cd172 O180 2.277 . S
Cd172 O181 2.356 . S
C173 O178 1.209 1_556 S
C173 O180 1.226 1_556 S
O174 Cd170 2.273 . S
O174 Cd172 2.411 . S
O174 C177 1.320 . S
O175 Cd172 2.333 . S
O175 C177 1.214 . S
O176 Cd172 2.352 . S
O176 C179 1.258 . S
C177 O174 1.320 . S
C177 O175 1.214 . S
O178 Cd170 2.277 . S
O178 C173 1.209 1_554 S
C179 O176 1.258 . S
C179 O181 1.282 . S
O180 Cd172 2.277 . S
O180 C173 1.226 1_554 S
O181 Cd172 2.356 . S
O181 C179 1.282 . S
C182 O183 1.306 . S
C182 O185 1.160 . S
O183 C182 1.306 . S
O183 Cd184 2.228 . S
Cd184 O183 2.228 . S
Cd184 O188 2.273 . S
Cd184 O192 2.277 . S
O185 C182 1.160 . S
O185 Cd186 2.203 . S
Cd186 O185 2.203 . S
Cd186 O188 2.411 . S
Cd186 O189 2.333 . S
Cd186 O190 2.352 . S
Cd186 O194 2.277 . S
Cd186 O195 2.356 . S
C187 O192 1.209 . S
C187 O194 1.226 . S
O188 Cd184 2.273 . S
O188 Cd186 2.411 . S
O188 C191 1.320 . S
O189 Cd186 2.333 . S
O189 C191 1.214 . S
O190 Cd186 2.352 . S
O190 C193 1.258 . S
C191 O188 1.320 . S
C191 O189 1.214 . S
O192 Cd184 2.277 . S
O192 C187 1.209 . S
C193 O190 1.258 . S
C193 O195 1.282 . S
O194 Cd186 2.277 . S
O194 C187 1.226 . S
O195 Cd186 2.356 . S
O195 C193 1.282 . S
C196 O197 1.306 . S
C196 O199 1.160 . S
O197 C196 1.306 . S
O197 Cd198 2.228 . S
Cd198 O197 2.228 . S
Cd198 O202 2.273 . S
Cd198 O206 2.277 . S
O199 C196 1.160 . S
O199 Cd200 2.203 . S
Cd200 O199 2.203 . S
Cd200 O202 2.411 . S
Cd200 O203 2.333 . S
Cd200 O204 2.352 . S
Cd200 O208 2.277 . S
Cd200 O209 2.356 . S
C201 O206 1.209 . S
C201 O208 1.226 . S
O202 Cd198 2.273 . S
O202 Cd200 2.411 . S
O202 C205 1.320 . S
O203 Cd200 2.333 . S
O203 C205 1.214 . S
O204 Cd200 2.352 . S
O204 C207 1.258 . S
C205 O202 1.320 . S
C205 O203 1.214 . S
O206 Cd198 2.277 . S
O206 C201 1.209 . S
C207 O204 1.258 . S
C207 O209 1.282 . S
O208 Cd200 2.277 . S
O208 C201 1.226 . S
O209 Cd200 2.356 . S
O209 C207 1.282 . S
C210 O211 1.306 . S
C210 O213 1.160 . S
O211 C210 1.306 . S
O211 Cd212 2.228 . S
Cd212 O211 2.228 . S
Cd212 O216 2.273 . S
Cd212 O220 2.277 . S
O213 C210 1.160 . S
O213 Cd214 2.203 . S
Cd214 O213 2.203 . S
Cd214 O216 2.411 . S
Cd214 O217 2.333 . S
Cd214 O218 2.352 . S
Cd214 O222 2.277 . S
Cd214 O223 2.356 . S
C215 O220 1.209 . S
C215 O222 1.226 . S
O216 Cd212 2.273 . S
O216 Cd214 2.411 . S
O216 C219 1.320 . S
O217 Cd214 2.333 . S
O217 C219 1.214 . S
O218 Cd214 2.352 . S
O218 C221 1.258 . S
C219 O216 1.320 . S
C219 O217 1.214 . S
O220 Cd212 2.277 . S
O220 C215 1.209 . S
C221 O218 1.258 . S
C221 O223 1.282 . S
O222 Cd214 2.277 . S
O222 C215 1.226 . S
O223 Cd214 2.356 . S
O223 C221 1.282 . S
C224 O225 1.306 . S
C224 O227 1.160 . S
O225 C224 1.306 . S
O225 Cd226 2.228 1_545 S
Cd226 O225 2.228 1_565 S
Cd226 O230 2.273 1_565 S
Cd226 O234 2.277 . S
O227 C224 1.160 . S
O227 Cd228 2.203 . S
Cd228 O227 2.203 . S
Cd228 O230 2.411 . S
Cd228 O231 2.333 . S
Cd228 O232 2.352 . S
Cd228 O236 2.277 1_545 S
Cd228 O237 2.356 . S
C229 O234 1.209 . S
C229 O236 1.226 . S
O230 Cd226 2.273 1_545 S
O230 Cd228 2.411 . S
O230 C233 1.320 . S
O231 Cd228 2.333 . S
O231 C233 1.214 . S
O232 Cd228 2.352 . S
O232 C235 1.258 . S
C233 O230 1.320 . S
C233 O231 1.214 . S
O234 Cd226 2.277 . S
O234 C229 1.209 . S
C235 O232 1.258 . S
C235 O237 1.282 . S
O236 Cd228 2.277 1_565 S
O236 C229 1.226 . S
O237 Cd228 2.356 . S
O237 C235 1.282 . S
C238 O239 1.306 . S
C238 O241 1.160 . S
O239 C238 1.306 . S
O239 Cd240 2.228 . S
Cd240 O239 2.228 . S
Cd240 O244 2.273 . S
Cd240 O248 2.277 . S
O241 C238 1.160 . S
O241 Cd242 2.203 . S
Cd242 O241 2.203 . S
Cd242 O244 2.411 . S
Cd242 O245 2.333 . S
Cd242 O246 2.352 . S
Cd242 O250 2.277 . S
Cd242 O251 2.356 . S
C243 O248 1.209 . S
C243 O250 1.226 . S
O244 Cd240 2.273 . S
O244 Cd242 2.411 . S
O244 C247 1.320 . S
O245 Cd242 2.333 . S
O245 C247 1.214 . S
O246 Cd242 2.352 . S
O246 C249 1.258 . S
C247 O244 1.320 . S
C247 O245 1.214 . S
O248 Cd240 2.277 . S
O248 C243 1.209 . S
C249 O246 1.258 . S
C249 O251 1.282 . S
O250 Cd242 2.277 . S
O250 C243 1.226 . S
O251 Cd242 2.356 . S
O251 C249 1.282 . S
C252 O253 1.306 . S
C252 O255 1.160 . S
O253 C252 1.306 . S
O253 Cd254 2.228 . S
Cd254 O253 2.228 . S
Cd254 O258 2.273 . S
Cd254 O262 2.277 . S
O255 C252 1.160 . S
O255 Cd256 2.203 . S
Cd256 O255 2.203 . S
Cd256 O258 2.411 . S
Cd256 O259 2.333 . S
Cd256 O260 2.352 . S
Cd256 O264 2.277 . S
Cd256 O265 2.356 . S
C257 O262 1.209 . S
C257 O264 1.226 . S
O258 Cd254 2.273 . S
O258 Cd256 2.411 . S
O258 C261 1.320 . S
O259 Cd256 2.333 . S
O259 C261 1.214 . S
O260 Cd256 2.352 . S
O260 C263 1.258 . S
C261 O258 1.320 . S
C261 O259 1.214 . S
O262 Cd254 2.277 . S
O262 C257 1.209 . S
C263 O260 1.258 . S
C263 O265 1.282 . S
O264 Cd256 2.277 . S
O264 C257 1.226 . S
O265 Cd256 2.356 . S
O265 C263 1.282 . S
C266 O267 1.306 . S
C266 O269 1.160 . S
O267 C266 1.306 . S
O267 Cd268 2.228 . S
Cd268 O267 2.228 . S
Cd268 O272 2.273 . S
Cd268 O276 2.277 . S
O269 C266 1.160 . S
O269 Cd270 2.203 . S
Cd270 O269 2.203 . S
Cd270 O272 2.411 . S
Cd270 O273 2.333 . S
Cd270 O274 2.352 . S
Cd270 O278 2.277 . S
Cd270 O279 2.356 . S
C271 O276 1.209 . S
C271 O278 1.226 . S
O272 Cd268 2.273 . S
O272 Cd270 2.411 . S
O272 C275 1.320 . S
O273 Cd270 2.333 . S
O273 C275 1.214 . S
O274 Cd270 2.352 . S
O274 C277 1.258 . S
C275 O272 1.320 . S
C275 O273 1.214 . S
O276 Cd268 2.277 . S
O276 C271 1.209 . S
C277 O274 1.258 . S
C277 O279 1.282 . S
O278 Cd270 2.277 . S
O278 C271 1.226 . S
O279 Cd270 2.356 . S
O279 C277 1.282 . S
C280 O281 1.306 . S
C280 O283 1.160 . S
O281 C280 1.306 . S
O281 Cd282 2.228 . S
Cd282 O281 2.228 . S
Cd282 O286 2.273 . S
Cd282 O290 2.277 . S
O283 C280 1.160 . S
O283 Cd284 2.203 . S
Cd284 O283 2.203 . S
Cd284 O286 2.411 . S
Cd284 O287 2.333 . S
Cd284 O288 2.352 1_554 S
Cd284 O292 2.277 . S
Cd284 O293 2.356 1_554 S
C285 O290 1.209 . S
C285 O292 1.226 . S
O286 Cd282 2.273 . S
O286 Cd284 2.411 . S
O286 C289 1.320 . S
O287 Cd284 2.333 . S
O287 C289 1.214 . S
O288 Cd284 2.352 1_556 S
O288 C291 1.258 . S
C289 O286 1.320 . S
C289 O287 1.214 . S
O290 Cd282 2.277 . S
O290 C285 1.209 . S
C291 O288 1.258 . S
C291 O293 1.282 . S
O292 Cd284 2.277 . S
O292 C285 1.226 . S
O293 Cd284 2.356 1_556 S
O293 C291 1.282 . S
C294 O295 1.306 . S
C294 O297 1.160 . S
O295 C294 1.306 . S
O295 Cd296 2.228 . S
Cd296 O295 2.228 . S
Cd296 O300 2.273 . S
Cd296 O304 2.277 . S
O297 C294 1.160 . S
O297 Cd298 2.203 . S
Cd298 O297 2.203 . S
Cd298 O300 2.411 . S
Cd298 O301 2.333 . S
Cd298 O302 2.352 . S
Cd298 O306 2.277 . S
Cd298 O307 2.356 . S
C299 O304 1.209 . S
C299 O306 1.226 . S
O300 Cd296 2.273 . S
O300 Cd298 2.411 . S
O300 C303 1.320 . S
O301 Cd298 2.333 . S
O301 C303 1.214 . S
O302 Cd298 2.352 . S
O302 C305 1.258 . S
C303 O300 1.320 . S
C303 O301 1.214 . S
O304 Cd296 2.277 . S
O304 C299 1.209 . S
C305 O302 1.258 . S
C305 O307 1.282 . S
O306 Cd298 2.277 . S
O306 C299 1.226 . S
O307 Cd298 2.356 . S
O307 C305 1.282 . S
C308 O309 1.306 . S
C308 O311 1.160 . S
O309 C308 1.306 . S
O309 Cd310 2.228 . S
Cd310 O309 2.228 . S
Cd310 O314 2.273 . S
Cd310 O318 2.277 . S
O311 C308 1.160 . S
O311 Cd312 2.203 . S
Cd312 O311 2.203 . S
Cd312 O314 2.411 . S
Cd312 O315 2.333 . S
Cd312 O316 2.352 . S
Cd312 O320 2.277 . S
Cd312 O321 2.356 . S
C313 O318 1.209 . S
C313 O320 1.226 . S
O314 Cd310 2.273 . S
O314 Cd312 2.411 . S
O314 C317 1.320 . S
O315 Cd312 2.333 . S
O315 C317 1.214 . S
O316 Cd312 2.352 . S
O316 C319 1.258 . S
C317 O314 1.320 . S
C317 O315 1.214 . S
O318 Cd310 2.277 . S
O318 C313 1.209 . S
C319 O316 1.258 . S
C319 O321 1.282 . S
O320 Cd312 2.277 . S
O320 C313 1.226 . S
O321 Cd312 2.356 . S
O321 C319 1.282 . S
C322 O323 1.306 . S
C322 O325 1.160 . S
O323 C322 1.306 . S
O323 Cd324 2.228 . S
Cd324 O323 2.228 . S
Cd324 O328 2.273 . S
Cd324 O332 2.277 . S
O325 C322 1.160 . S
O325 Cd326 2.203 . S
Cd326 O325 2.203 . S
Cd326 O328 2.411 . S
Cd326 O329 2.333 . S
Cd326 O330 2.352 . S
Cd326 O334 2.277 . S
Cd326 O335 2.356 . S
C327 O332 1.209 . S
C327 O334 1.226 . S
O328 Cd324 2.273 . S
O328 Cd326 2.411 . S
O328 C331 1.320 . S
O329 Cd326 2.333 . S
O329 C331 1.214 . S
O330 Cd326 2.352 . S
O330 C333 1.258 . S
C331 O328 1.320 . S
C331 O329 1.214 . S
O332 Cd324 2.277 . S
O332 C327 1.209 . S
C333 O330 1.258 . S
C333 O335 1.282 . S
O334 Cd326 2.277 . S
O334 C327 1.226 . S
O335 Cd326 2.356 . S
O335 C333 1.282 . S
Eu336 N365 2.600 . S
Eu336 N371 2.562 . S
Eu336 O380 2.462 . S
Eu336 O381 2.373 . S
Eu336 O383 2.432 . S
Eu336 O384 2.291 . S
Eu336 O388 2.335 . S
Eu336 O391 2.372 . S
Eu336 C400 2.787 . S
C337 N338 1.365 . S
C337 C340 1.405 . S
C337 C344 1.448 1_556 S
N338 C337 1.365 . S
N338 C341 1.319 . S
N338 Eu347 2.600 1_566 S
C339 C341 1.397 . S
C339 C342 1.367 . S
C339 H359 0.931 . S
C340 C337 1.405 . S
C340 C342 1.403 . S
C340 C346 1.439 . S
C341 N338 1.319 . S
C341 C339 1.397 . S
C341 H352 0.945 . S
C342 C339 1.367 . S
C342 C340 1.403 . S
C342 H363 0.929 . S
C343 C344 1.430 . S
C343 C345 1.387 1_554 S
C343 C349 1.404 . S
C344 C337 1.448 1_554 S
C344 C343 1.430 . S
C344 N348 1.351 . S
C345 C343 1.387 1_556 S
C345 C346 1.374 . S
C345 H360 0.924 1_556 S
C346 C340 1.439 . S
C346 C345 1.374 . S
C346 H361 0.931 . S
Eu347 N338 2.600 1_544 S
Eu347 N348 2.562 1_545 S
Eu347 O382 2.335 1_655 S
Eu347 O385 2.372 1_654 S
Eu347 O386 2.462 . S
Eu347 O387 2.373 1_645 S
Eu347 O389 2.432 1_554 S
Eu347 O390 2.291 1_655 S
Eu347 C411 2.787 . S
N348 C344 1.351 . S
N348 Eu347 2.562 1_565 S
N348 C350 1.325 . S
C349 C343 1.404 . S
C349 C351 1.366 . S
C349 H357 0.930 . S
C350 N348 1.325 . S
C350 C351 1.416 . S
C350 H356 0.929 . S
C351 C349 1.366 . S
C351 C350 1.416 . S
C351 H353 0.930 . S
H352 C341 0.945 . S
H353 C351 0.930 . S
H354 C369 0.930 . S
H355 C376 0.930 1_556 S
H356 C350 0.929 . S
H357 C349 0.930 . S
H358 C372 0.929 . S
H359 C339 0.931 . S
H360 C345 0.924 1_554 S
H361 C346 0.931 . S
H362 C367 0.931 . S
H363 C342 0.929 . S
H364 C375 0.930 . S
N365 Eu336 2.600 . S
N365 C366 1.365 . S
N365 C369 1.319 . S
C366 N365 1.365 . S
C366 C368 1.405 . S
C366 C374 1.448 . S
C367 H362 0.931 . S
C367 C369 1.397 . S
C367 C370 1.367 . S
C368 C366 1.405 . S
C368 C370 1.403 . S
C368 C401 1.439 . S
C369 H354 0.930 . S
C369 N365 1.319 . S
C369 C367 1.397 . S
C370 C367 1.367 . S
C370 C368 1.403 . S
C370 H377 0.929 . S
N371 Eu336 2.562 . S
N371 C372 1.325 . S
N371 C374 1.351 . S
C372 H358 0.929 . S
C372 N371 1.325 . S
C372 C376 1.416 . S
C373 C374 1.430 . S
C373 C375 1.404 . S
C373 C402 1.387 . S
C374 C366 1.448 . S
C374 N371 1.351 . S
C374 C373 1.430 . S
C375 H364 0.930 . S
C375 C373 1.404 . S
C375 C376 1.366 . S
C376 H355 0.930 1_554 S
C376 C372 1.416 . S
C376 C375 1.366 . S
H377 C370 0.929 . S
H378 C401 0.931 . S
H379 C402 0.931 . S
O380 Eu336 2.462 . S
O380 C400 1.252 . S
O381 Eu336 2.373 . S
O381 C392 1.249 . S
O382 Eu347 2.335 1_455 S
O382 C392 1.264 . S
O383 Eu336 2.432 . S
O383 C400 1.268 . S
O384 Eu336 2.291 . S
O384 C399 1.255 1_554 S
O385 Eu347 2.372 1_456 S
O385 C399 1.257 . S
O386 Eu347 2.462 . S
O386 C411 1.252 . S
O387 Eu347 2.373 1_465 S
O387 C403 1.249 . S
O388 Eu336 2.335 . S
O388 C403 1.264 1_545 S
O389 Eu347 2.432 1_556 S
O389 C411 1.268 1_556 S
O390 Eu347 2.291 1_455 S
O390 C410 1.255 . S
O391 Eu336 2.372 . S
O391 C410 1.257 . S
C392 O381 1.249 . S
C392 O382 1.264 . S
C393 C396 1.382 . S
C393 C398 1.390 . S
C393 C400 1.506 . S
C394 C395 1.398 . S
C394 C398 1.392 . S
C395 C394 1.398 . S
C395 C397 1.372 . S
C395 H412 0.931 . S
C396 C393 1.382 . S
C396 C397 1.390 . S
C396 H413 0.931 . S
C397 C395 1.372 . S
C397 C396 1.390 . S
C397 H414 0.929 . S
C398 C393 1.390 . S
C398 C394 1.392 . S
C398 H415 0.930 . S
C399 O384 1.255 1_556 S
C399 O385 1.257 . S
C400 Eu336 2.787 . S
C400 O380 1.252 . S
C400 O383 1.268 . S
C400 C393 1.506 . S
C401 C368 1.439 . S
C401 H378 0.931 . S
C401 C402 1.374 . S
C402 C373 1.387 . S
C402 H379 0.931 . S
C402 C401 1.374 . S
C403 O387 1.249 . S
C403 O388 1.264 1_565 S
C404 C407 1.382 1_554 S
C404 C408 1.390 . S
C404 C411 1.506 . S
C405 C406 1.398 1_554 S
C405 C408 1.392 . S
C406 C405 1.398 1_556 S
C406 C409 1.372 . S
C406 H416 0.931 . S
C407 C404 1.382 1_556 S
C407 C409 1.390 . S
C407 H417 0.931 . S
C408 C404 1.390 . S
C408 C405 1.392 . S
C408 H418 0.930 . S
C409 C406 1.372 . S
C409 C407 1.390 . S
C409 H419 0.929 . S
C410 O390 1.255 . S
C410 O391 1.257 . S
C411 Eu347 2.787 . S
C411 O386 1.252 . S
C411 O389 1.268 1_554 S
C411 C404 1.506 . S
H412 C395 0.931 . S
H413 C396 0.931 . S
H414 C397 0.929 . S
H415 C398 0.930 . S
H416 C406 0.931 . S
H417 C407 0.931 . S
H418 C408 0.930 . S
H419 C409 0.929 . S
Eu420 N449 2.600 . S
Eu420 N455 2.562 . S
Eu420 O464 2.462 . S
Eu420 O465 2.373 . S
Eu420 O467 2.432 . S
Eu420 O468 2.291 . S
Eu420 O472 2.335 . S
Eu420 O475 2.372 . S
Eu420 C484 2.787 . S
C421 N422 1.365 . S
C421 C424 1.405 . S
C421 C428 1.448 . S
N422 C421 1.365 . S
N422 C425 1.319 . S
N422 Eu431 2.600 . S
C423 C425 1.397 . S
C423 C426 1.367 . S
C423 H443 0.931 . S
C424 C421 1.405 . S
C424 C426 1.403 . S
C424 C430 1.439 . S
C425 N422 1.319 . S
C425 C423 1.397 . S
C425 H436 0.930 . S
C426 C423 1.367 . S
C426 C424 1.403 . S
C426 H447 0.929 . S
C427 C428 1.430 . S
C427 C429 1.387 . S
C427 C433 1.404 . S
C428 C421 1.448 . S
C428 C427 1.430 . S
C428 N432 1.351 . S
C429 C427 1.387 . S
C429 C430 1.374 . S
C429 H444 0.931 . S
C430 C424 1.439 . S
C430 C429 1.374 . S
C430 H445 0.931 . S
Eu431 N422 2.600 . S
Eu431 N432 2.562 . S
Eu431 O466 2.335 . S
Eu431 O469 2.372 . S
Eu431 O470 2.462 . S
Eu431 O471 2.373 . S
Eu431 O473 2.432 . S
Eu431 O474 2.291 . S
Eu431 C495 2.787 . S
N432 C428 1.351 . S
N432 Eu431 2.562 . S
N432 C434 1.325 . S
C433 C427 1.404 . S
C433 C435 1.366 . S
C433 H441 0.930 . S
C434 N432 1.325 . S
C434 C435 1.416 . S
C434 H440 0.929 . S
C435 C433 1.366 . S
C435 C434 1.416 . S
C435 H437 0.930 . S
H436 C425 0.930 . S
H437 C435 0.930 . S
H438 C453 0.930 . S
H439 C460 0.930 . S
H440 C434 0.929 . S
H441 C433 0.930 . S
H442 C456 0.929 . S
H443 C423 0.931 . S
H444 C429 0.931 . S
H445 C430 0.931 . S
H446 C451 0.931 . S
H447 C426 0.929 . S
H448 C459 0.930 . S
N449 Eu420 2.600 . S
N449 C450 1.365 . S
N449 C453 1.319 . S
C450 N449 1.365 . S
C450 C452 1.405 . S
C450 C458 1.448 . S
C451 H446 0.931 . S
C451 C453 1.397 . S
C451 C454 1.367 . S
C452 C450 1.405 . S
C452 C454 1.403 . S
C452 C485 1.439 . S
C453 H438 0.930 . S
C453 N449 1.319 . S
C453 C451 1.397 . S
C454 C451 1.367 . S
C454 C452 1.403 . S
C454 H461 0.929 . S
N455 Eu420 2.562 . S
N455 C456 1.325 . S
N455 C458 1.351 . S
C456 H442 0.929 . S
C456 N455 1.325 . S
C456 C460 1.416 . S
C457 C458 1.430 . S
C457 C459 1.404 . S
C457 C486 1.387 . S
C458 C450 1.448 . S
C458 N455 1.351 . S
C458 C457 1.430 . S
C459 H448 0.930 . S
C459 C457 1.404 . S
C459 C460 1.366 . S
C460 H439 0.930 . S
C460 C456 1.416 . S
C460 C459 1.366 . S
H461 C454 0.929 . S
H462 C485 0.931 . S
H463 C486 0.931 . S
O464 Eu420 2.462 . S
O464 C484 1.252 . S
O465 Eu420 2.373 . S
O465 C476 1.249 . S
O466 Eu431 2.335 . S
O466 C476 1.264 . S
O467 Eu420 2.432 . S
O467 C484 1.268 . S
O468 Eu420 2.291 . S
O468 C483 1.255 . S
O469 Eu431 2.372 . S
O469 C483 1.257 . S
O470 Eu431 2.462 . S
O470 C495 1.252 . S
O471 Eu431 2.373 . S
O471 C487 1.249 . S
O472 Eu420 2.335 . S
O472 C487 1.264 . S
O473 Eu431 2.432 . S
O473 C495 1.268 . S
O474 Eu431 2.291 . S
O474 C494 1.255 . S
O475 Eu420 2.372 . S
O475 C494 1.257 . S
C476 O465 1.249 . S
C476 O466 1.264 . S
C477 C480 1.382 . S
C477 C482 1.390 . S
C477 C484 1.506 . S
C478 C479 1.398 . S
C478 C482 1.392 . S
C479 C478 1.398 . S
C479 C481 1.372 . S
C479 H496 0.931 . S
C480 C477 1.382 . S
C480 C481 1.390 . S
C480 H497 0.931 . S
C481 C479 1.372 . S
C481 C480 1.390 . S
C481 H498 0.929 . S
C482 C477 1.390 . S
C482 C478 1.392 . S
C482 H499 0.930 . S
C483 O468 1.255 . S
C483 O469 1.257 . S
C484 Eu420 2.787 . S
C484 O464 1.252 . S
C484 O467 1.268 . S
C484 C477 1.506 . S
C485 C452 1.439 . S
C485 H462 0.931 . S
C485 C486 1.374 . S
C486 C457 1.387 . S
C486 H463 0.931 . S
C486 C485 1.374 . S
C487 O471 1.249 . S
C487 O472 1.264 . S
C488 C491 1.382 . S
C488 C492 1.390 . S
C488 C495 1.506 . S
C489 C490 1.398 . S
C489 C492 1.392 . S
C490 C489 1.398 . S
C490 C493 1.372 . S
C490 H500 0.931 . S
C491 C488 1.382 . S
C491 C493 1.390 . S
C491 H501 0.931 . S
C492 C488 1.390 . S
C492 C489 1.392 . S
C492 H502 0.930 . S
C493 C490 1.372 . S
C493 C491 1.390 . S
C493 H503 0.929 . S
C494 O474 1.255 . S
C494 O475 1.257 . S
C495 Eu431 2.787 . S
C495 O470 1.252 . S
C495 O473 1.268 . S
C495 C488 1.506 . S
H496 C479 0.931 . S
H497 C480 0.931 . S
H498 C481 0.929 . S
H499 C482 0.930 . S
H500 C490 0.931 . S
H501 C491 0.931 . S
H502 C492 0.930 . S
H503 C493 0.929 . S
Eu504 N533 2.609 . S
Eu504 N539 2.562 1_545 S
Eu504 O548 2.462 . S
Eu504 O549 2.373 1_545 S
Eu504 O551 2.432 . S
Eu504 O552 2.291 . S
Eu504 O556 2.335 . S
Eu504 O559 2.372 . S
Eu504 C568 2.787 . S
C505 N506 1.365 . S
C505 C508 1.405 . S
C505 C512 1.448 . S
N506 C505 1.365 . S
N506 C509 1.319 . S
N506 Eu515 2.600 . S
C507 C509 1.397 . S
C507 C510 1.367 . S
C507 H527 0.931 . S
C508 C505 1.405 . S
C508 C510 1.403 . S
C508 C514 1.439 . S
C509 N506 1.319 . S
C509 C507 1.397 . S
C509 H520 0.930 . S
C510 C507 1.367 . S
C510 C508 1.403 . S
C510 H531 0.929 . S
C511 C512 1.430 . S
C511 C513 1.387 . S
C511 C517 1.404 . S
C512 C505 1.448 . S
C512 C511 1.430 . S
C512 N516 1.351 . S
C513 C511 1.387 . S
C513 C514 1.374 . S
C513 H528 0.931 . S
C514 C508 1.439 . S
C514 C513 1.374 . S
C514 H529 0.931 . S
Eu515 N506 2.600 . S
Eu515 N516 2.562 . S
Eu515 O550 2.335 1_545 S
Eu515 O553 2.372 . S
Eu515 O554 2.462 . S
Eu515 O555 2.373 . S
Eu515 O557 2.432 . S
Eu515 O558 2.291 . S
Eu515 C579 2.787 . S
N516 C512 1.351 . S
N516 Eu515 2.562 . S
N516 C518 1.325 . S
C517 C511 1.404 . S
C517 C519 1.366 . S
C517 H525 0.930 . S
C518 N516 1.325 . S
C518 C519 1.416 . S
C518 H524 0.929 . S
C519 C517 1.366 . S
C519 C518 1.416 . S
C519 H521 0.930 . S
H520 C509 0.930 . S
H521 C519 0.930 . S
H522 C537 0.930 . S
H523 C544 0.930 . S
H524 C518 0.929 . S
H525 C517 0.930 . S
H526 C540 0.929 . S
H527 C507 0.931 . S
H528 C513 0.931 . S
H529 C514 0.931 . S
H530 C535 0.931 . S
H531 C510 0.929 . S
H532 C543 0.930 . S
N533 Eu504 2.609 . S
N533 C534 1.356 1_545 S
N533 C537 1.318 . S
C534 N533 1.356 1_565 S
C534 C536 1.405 . S
C534 C542 1.448 . S
C535 H530 0.931 . S
C535 C537 1.397 1_565 S
C535 C538 1.367 . S
C536 C534 1.405 . S
C536 C538 1.403 . S
C536 C569 1.439 . S
C537 H522 0.930 . S
C537 N533 1.318 . S
C537 C535 1.397 1_545 S
C538 C535 1.367 . S
C538 C536 1.403 . S
C538 H545 0.929 . S
N539 Eu504 2.562 1_565 S
N539 C540 1.325 . S
N539 C542 1.351 . S
C540 H526 0.929 . S
C540 N539 1.325 . S
C540 C544 1.416 . S
C541 C542 1.430 . S
C541 C543 1.404 . S
C541 C570 1.387 . S
C542 C534 1.448 . S
C542 N539 1.351 . S
C542 C541 1.430 . S
C543 H532 0.930 . S
C543 C541 1.404 . S
C543 C544 1.366 . S
C544 H523 0.930 . S
C544 C540 1.416 . S
C544 C543 1.366 . S
H545 C538 0.929 . S
H546 C569 0.931 . S
H547 C570 0.931 . S
O548 Eu504 2.462 . S
O548 C568 1.252 . S
O549 Eu504 2.373 1_565 S
O549 C560 1.249 . S
O550 Eu515 2.335 1_565 S
O550 C560 1.264 . S
O551 Eu504 2.432 . S
O551 C568 1.268 . S
O552 Eu504 2.291 . S
O552 C567 1.255 . S
O553 Eu515 2.372 . S
O553 C567 1.257 . S
O554 Eu515 2.462 . S
O554 C579 1.252 . S
O555 Eu515 2.373 . S
O555 C571 1.249 . S
O556 Eu504 2.335 . S
O556 C571 1.264 . S
O557 Eu515 2.432 . S
O557 C579 1.268 . S
O558 Eu515 2.291 . S
O558 C578 1.255 . S
O559 Eu504 2.372 . S
O559 C578 1.257 . S
C560 O549 1.249 . S
C560 O550 1.264 . S
C561 C564 1.382 . S
C561 C566 1.390 . S
C561 C568 1.506 . S
C562 C563 1.398 . S
C562 C566 1.392 . S
C563 C562 1.398 . S
C563 C565 1.372 . S
C563 H580 0.931 . S
C564 C561 1.382 . S
C564 C565 1.390 . S
C564 H581 0.931 . S
C565 C563 1.372 . S
C565 C564 1.390 . S
C565 H582 0.929 . S
C566 C561 1.390 . S
C566 C562 1.392 . S
C566 H583 0.930 . S
C567 O552 1.255 . S
C567 O553 1.257 . S
C568 Eu504 2.787 . S
C568 O548 1.252 . S
C568 O551 1.268 . S
C568 C561 1.506 . S
C569 C536 1.439 . S
C569 H546 0.931 . S
C569 C570 1.374 . S
C570 C541 1.387 . S
C570 H547 0.931 . S
C570 C569 1.374 . S
C571 O555 1.249 . S
C571 O556 1.264 . S
C572 C575 1.382 . S
C572 C576 1.390 . S
C572 C579 1.506 1_565 S
C573 C574 1.398 . S
C573 C576 1.392 . S
C574 C573 1.398 . S
C574 C577 1.372 . S
C574 H584 0.931 . S
C575 C572 1.382 . S
C575 C577 1.390 . S
C575 H585 0.931 . S
C576 C572 1.390 . S
C576 C573 1.392 . S
C576 H586 0.930 . S
C577 C574 1.372 . S
C577 C575 1.390 . S
C577 H587 0.929 . S
C578 O558 1.255 . S
C578 O559 1.257 . S
C579 Eu515 2.787 . S
C579 O554 1.252 . S
C579 O557 1.268 . S
C579 C572 1.506 1_545 S
H580 C563 0.931 . S
H581 C564 0.931 . S
H582 C565 0.929 . S
H583 C566 0.930 . S
H584 C574 0.931 . S
H585 C575 0.931 . S
H586 C576 0.930 . S
H587 C577 0.929 . S
Eu588 N617 2.600 . S
Eu588 N623 2.562 . S
Eu588 O632 2.462 . S
Eu588 O633 2.373 . S
Eu588 O635 2.432 . S
Eu588 O636 2.291 . S
Eu588 O640 2.335 . S
Eu588 O643 2.372 . S
Eu588 C652 2.787 . S
C589 N590 1.365 . S
C589 C592 1.405 . S
C589 C596 1.448 . S
N590 C589 1.365 . S
N590 C593 1.319 . S
N590 Eu599 2.600 . S
C591 C593 1.397 . S
C591 C594 1.367 . S
C591 H611 0.931 . S
C592 C589 1.405 . S
C592 C594 1.403 . S
C592 C598 1.439 . S
C593 N590 1.319 . S
C593 C591 1.397 . S
C593 H604 0.930 . S
C594 C591 1.367 . S
C594 C592 1.403 . S
C594 H615 0.929 . S
C595 C596 1.430 . S
C595 C597 1.387 . S
C595 C601 1.404 . S
C596 C589 1.448 . S
C596 C595 1.430 . S
C596 N600 1.351 . S
C597 C595 1.387 . S
C597 C598 1.374 . S
C597 H612 0.931 . S
C598 C592 1.439 . S
C598 C597 1.374 . S
C598 H613 0.931 . S
Eu599 N590 2.600 . S
Eu599 N600 2.562 . S
Eu599 O634 2.335 . S
Eu599 O637 2.372 . S
Eu599 O638 2.462 . S
Eu599 O639 2.373 . S
Eu599 O641 2.432 . S
Eu599 O642 2.291 . S
Eu599 C663 2.787 . S
N600 C596 1.351 . S
N600 Eu599 2.562 . S
N600 C602 1.325 . S
C601 C595 1.404 . S
C601 C603 1.366 . S
C601 H609 0.930 . S
C602 N600 1.325 . S
C602 C603 1.416 . S
C602 H608 0.929 . S
C603 C601 1.366 . S
C603 C602 1.416 . S
C603 H605 0.930 . S
H604 C593 0.930 . S
H605 C603 0.930 . S
H606 C621 0.930 . S
H607 C628 0.930 . S
H608 C602 0.929 . S
H609 C601 0.930 . S
H610 C624 0.929 . S
H611 C591 0.931 . S
H612 C597 0.931 . S
H613 C598 0.931 . S
H614 C619 0.931 . S
H615 C594 0.929 . S
H616 C627 0.930 . S
N617 Eu588 2.600 . S
N617 C618 1.365 . S
N617 C621 1.319 . S
C618 N617 1.365 . S
C618 C620 1.405 . S
C618 C626 1.448 . S
C619 H614 0.931 . S
C619 C621 1.397 . S
C619 C622 1.367 . S
C620 C618 1.405 . S
C620 C622 1.403 . S
C620 C653 1.439 . S
C621 H606 0.930 . S
C621 N617 1.319 . S
C621 C619 1.397 . S
C622 C619 1.367 . S
C622 C620 1.403 . S
C622 H629 0.929 . S
N623 Eu588 2.562 . S
N623 C624 1.325 . S
N623 C626 1.351 . S
C624 H610 0.929 . S
C624 N623 1.325 . S
C624 C628 1.416 . S
C625 C626 1.430 . S
C625 C627 1.404 . S
C625 C654 1.387 . S
C626 C618 1.448 . S
C626 N623 1.351 . S
C626 C625 1.430 . S
C627 H616 0.930 . S
C627 C625 1.404 . S
C627 C628 1.366 . S
C628 H607 0.930 . S
C628 C624 1.416 . S
C628 C627 1.366 . S
H629 C622 0.929 . S
H630 C653 0.931 . S
H631 C654 0.931 . S
O632 Eu588 2.462 . S
O632 C652 1.252 . S
O633 Eu588 2.373 . S
O633 C644 1.249 . S
O634 Eu599 2.335 . S
O634 C644 1.264 . S
O635 Eu588 2.432 . S
O635 C652 1.268 . S
O636 Eu588 2.291 . S
O636 C651 1.255 . S
O637 Eu599 2.372 . S
O637 C651 1.257 . S
O638 Eu599 2.462 . S
O638 C663 1.252 . S
O639 Eu599 2.373 . S
O639 C655 1.249 . S
O640 Eu588 2.335 . S
O640 C655 1.264 . S
O641 Eu599 2.432 . S
O641 C663 1.268 . S
O642 Eu599 2.291 . S
O642 C662 1.255 . S
O643 Eu588 2.372 . S
O643 C662 1.257 . S
C644 O633 1.249 . S
C644 O634 1.264 . S
C645 C648 1.382 . S
C645 C650 1.390 . S
C645 C652 1.506 . S
C646 C647 1.398 . S
C646 C650 1.392 . S
C647 C646 1.398 . S
C647 C649 1.372 . S
C647 H664 0.931 . S
C648 C645 1.382 . S
C648 C649 1.390 . S
C648 H665 0.931 . S
C649 C647 1.372 . S
C649 C648 1.390 . S
C649 H666 0.929 . S
C650 C645 1.390 . S
C650 C646 1.392 . S
C650 H667 0.930 . S
C651 O636 1.255 . S
C651 O637 1.257 . S
C652 Eu588 2.787 . S
C652 O632 1.252 . S
C652 O635 1.268 . S
C652 C645 1.506 . S
C653 C620 1.439 . S
C653 H630 0.931 . S
C653 C654 1.374 . S
C654 C625 1.387 . S
C654 H631 0.931 . S
C654 C653 1.374 . S
C655 O639 1.249 . S
C655 O640 1.264 . S
C656 C659 1.382 . S
C656 C660 1.390 . S
C656 C663 1.506 . S
C657 C658 1.398 . S
C657 C660 1.392 . S
C658 C657 1.398 . S
C658 C661 1.372 . S
C658 H668 0.931 . S
C659 C656 1.382 . S
C659 C661 1.390 . S
C659 H669 0.931 . S
C660 C656 1.390 . S
C660 C657 1.392 . S
C660 H670 0.930 . S
C661 C658 1.372 . S
C661 C659 1.390 . S
C661 H671 0.929 . S
C662 O642 1.255 . S
C662 O643 1.257 . S
C663 Eu599 2.787 . S
C663 O638 1.252 . S
C663 O641 1.268 . S
C663 C656 1.506 . S
H664 C647 0.931 . S
H665 C648 0.931 . S
H666 C649 0.929 . S
H667 C650 0.930 . S
H668 C658 0.931 . S
H669 C659 0.931 . S
H670 C660 0.930 . S
H671 C661 0.929 . S
Eu672 N701 2.600 . S
Eu672 N707 2.562 . S
Eu672 O716 2.462 . S
Eu672 O717 2.373 1_565 S
Eu672 O719 2.432 . S
Eu672 O720 2.291 1_565 S
Eu672 O724 2.335 1_565 S
Eu672 O727 2.372 1_565 S
Eu672 C736 2.787 . S
C673 N674 1.365 1_455 S
C673 C676 1.405 1_455 S
C673 C680 1.448 . S
N674 C673 1.365 1_655 S
N674 C677 1.319 . S
N674 Eu683 2.600 1_655 S
C675 C677 1.397 . S
C675 C678 1.367 . S
C675 H695 0.931 . S
C676 C673 1.405 1_655 S
C676 C678 1.403 . S
C676 C682 1.439 1_655 S
C677 N674 1.319 . S
C677 C675 1.397 . S
C677 H688 0.930 . S
C678 C675 1.367 . S
C678 C676 1.403 . S
C678 H699 0.929 . S
C679 C680 1.430 . S
C679 C681 1.387 . S
C679 C685 1.404 . S
C680 C673 1.448 . S
C680 C679 1.430 . S
C680 N684 1.351 . S
C681 C679 1.387 . S
C681 C682 1.374 . S
C681 H696 0.931 . S
C682 C676 1.439 1_455 S
C682 C681 1.374 . S
C682 H697 0.932 1_455 S
Eu683 N674 2.600 1_455 S
Eu683 N684 2.562 . S
Eu683 O718 2.335 . S
Eu683 O721 2.372 1_455 S
Eu683 O722 2.462 . S
Eu683 O723 2.373 . S
Eu683 O725 2.432 1_455 S
Eu683 O726 2.291 . S
Eu683 C747 2.787 . S
N684 C680 1.351 . S
N684 Eu683 2.562 . S
N684 C686 1.325 . S
C685 C679 1.404 . S
C685 C687 1.366 . S
C685 H693 0.930 . S
C686 N684 1.325 . S
C686 C687 1.416 . S
C686 H692 0.929 . S
C687 C685 1.366 . S
C687 C686 1.416 . S
C687 H689 0.930 . S
H688 C677 0.930 . S
H689 C687 0.930 . S
H690 C705 0.930 1_545 S
H691 C712 0.930 . S
H692 C686 0.929 . S
H693 C685 0.930 . S
H694 C708 0.929 1_655 S
H695 C675 0.931 . S
H696 C681 0.931 . S
H697 C682 0.932 1_655 S
H698 C703 0.931 . S
H699 C678 0.929 . S
H700 C711 0.930 1_655 S
N701 Eu672 2.600 . S
N701 C702 1.365 . S
N701 C705 1.319 . S
C702 N701 1.365 . S
C702 C704 1.405 . S
C702 C710 1.448 . S
C703 H698 0.931 . S
C703 C705 1.397 . S
C703 C706 1.367 . S
C704 C702 1.405 . S
C704 C706 1.403 . S
C704 C737 1.439 . S
C705 H690 0.930 1_565 S
C705 N701 1.319 . S
C705 C703 1.397 . S
C706 C703 1.367 . S
C706 C704 1.403 . S
C706 H713 0.929 . S
N707 Eu672 2.562 . S
N707 C708 1.325 . S
N707 C710 1.351 . S
C708 H694 0.929 1_455 S
C708 N707 1.325 . S
C708 C712 1.416 1_455 S
C709 C710 1.430 . S
C709 C711 1.404 . S
C709 C738 1.387 . S
C710 C702 1.448 . S
C710 N707 1.351 . S
C710 C709 1.430 . S
C711 H700 0.930 1_455 S
C711 C709 1.404 . S
C711 C712 1.366 1_455 S
C712 H691 0.930 . S
C712 C708 1.416 1_655 S
C712 C711 1.366 1_655 S
H713 C706 0.929 . S
H714 C737 0.931 . S
H715 C738 0.931 . S
O716 Eu672 2.462 . S
O716 C736 1.252 . S
O717 Eu672 2.373 1_545 S
O717 C728 1.249 . S
O718 Eu683 2.335 . S
O718 C728 1.264 . S
O719 Eu672 2.432 . S
O719 C736 1.268 . S
O720 Eu672 2.291 1_545 S
O720 C735 1.255 1_455 S
O721 Eu683 2.372 1_655 S
O721 C735 1.257 . S
O722 Eu683 2.462 . S
O722 C747 1.252 . S
O723 Eu683 2.373 . S
O723 C739 1.249 . S
O724 Eu672 2.335 1_545 S
O724 C739 1.264 . S
O725 Eu683 2.432 1_655 S
O725 C747 1.268 1_655 S
O726 Eu683 2.291 . S
O726 C746 1.255 . S
O727 Eu672 2.372 1_545 S
O727 C746 1.257 . S
C728 O717 1.249 . S
C728 O718 1.264 . S
C729 C732 1.382 . S
C729 C734 1.390 . S
C729 C736 1.506 . S
C730 C731 1.398 . S
C730 C734 1.392 . S
C731 C730 1.398 . S
C731 C733 1.372 . S
C731 H748 0.931 . S
C732 C729 1.382 . S
C732 C733 1.390 . S
C732 H749 0.931 . S
C733 C731 1.372 . S
C733 C732 1.390 . S
C733 H750 0.929 . S
C734 C729 1.390 . S
C734 C730 1.392 . S
C734 H751 0.930 . S
C735 O720 1.255 1_655 S
C735 O721 1.257 . S
C736 Eu672 2.787 . S
C736 O716 1.252 . S
C736 O719 1.268 . S
C736 C729 1.506 . S
C737 C704 1.439 . S
C737 H714 0.931 . S
C737 C738 1.374 . S
C738 C709 1.387 . S
C738 H715 0.931 . S
C738 C737 1.374 . S
C739 O723 1.249 . S
C739 O724 1.264 . S
C740 C743 1.382 1_455 S
C740 C744 1.390 . S
C740 C747 1.506 . S
C741 C742 1.436 . S
C741 C744 1.392 . S
C742 C741 1.436 . S
C742 C745 1.345 1_455 S
C742 H752 0.920 1_455 S
C743 C740 1.382 1_655 S
C743 C745 1.390 . S
C743 H753 0.931 . S
C744 C740 1.390 . S
C744 C741 1.392 . S
C744 H754 0.930 . S
C745 C742 1.345 1_655 S
C745 C743 1.390 . S
C745 H755 0.929 . S
C746 O726 1.255 . S
C746 O727 1.257 . S
C747 Eu683 2.787 . S
C747 O722 1.252 . S
C747 O725 1.268 1_455 S
C747 C740 1.506 . S
H748 C731 0.931 . S
H749 C732 0.931 . S
H750 C733 0.929 . S
H751 C734 0.930 . S
H752 C742 0.920 1_655 S
H753 C743 0.931 . S
H754 C744 0.930 . S
H755 C745 0.929 . S
Eu756 N785 2.600 . S
Eu756 N791 2.562 . S
Eu756 O800 2.462 . S
Eu756 O801 2.373 . S
Eu756 O803 2.432 . S
Eu756 O804 2.291 . S
Eu756 O808 2.335 . S
Eu756 O811 2.372 . S
Eu756 C820 2.787 . S
C757 N758 1.365 . S
C757 C760 1.405 . S
C757 C764 1.448 . S
N758 C757 1.365 . S
N758 C761 1.319 . S
N758 Eu767 2.600 . S
C759 C761 1.397 . S
C759 C762 1.367 . S
C759 H779 0.931 . S
C760 C757 1.405 . S
C760 C762 1.403 . S
C760 C766 1.439 . S
C761 N758 1.319 . S
C761 C759 1.397 . S
C761 H772 0.930 . S
C762 C759 1.367 . S
C762 C760 1.403 . S
C762 H783 0.929 . S
C763 C764 1.430 . S
C763 C765 1.387 . S
C763 C769 1.404 . S
C764 C757 1.448 . S
C764 C763 1.430 . S
C764 N768 1.351 . S
C765 C763 1.387 . S
C765 C766 1.374 . S
C765 H780 0.931 . S
C766 C760 1.439 . S
C766 C765 1.374 . S
C766 H781 0.931 . S
Eu767 N758 2.600 . S
Eu767 N768 2.562 . S
Eu767 O802 2.335 . S
Eu767 O805 2.372 . S
Eu767 O806 2.462 . S
Eu767 O807 2.373 . S
Eu767 O809 2.432 . S
Eu767 O810 2.291 . S
Eu767 C831 2.787 . S
N768 C764 1.351 . S
N768 Eu767 2.562 . S
N768 C770 1.325 . S
C769 C763 1.404 . S
C769 C771 1.366 . S
C769 H777 0.930 . S
C770 N768 1.325 . S
C770 C771 1.416 . S
C770 H776 0.929 . S
C771 C769 1.366 . S
C771 C770 1.416 . S
C771 H773 0.930 . S
H772 C761 0.930 . S
H773 C771 0.930 . S
H774 C789 0.930 . S
H775 C796 0.930 . S
H776 C770 0.929 . S
H777 C769 0.930 . S
H778 C792 0.929 . S
H779 C759 0.931 . S
H780 C765 0.931 . S
H781 C766 0.931 . S
H782 C787 0.931 . S
H783 C762 0.929 . S
H784 C795 0.930 . S
N785 Eu756 2.600 . S
N785 C786 1.365 . S
N785 C789 1.319 . S
C786 N785 1.365 . S
C786 C788 1.405 . S
C786 C794 1.448 . S
C787 H782 0.931 . S
C787 C789 1.397 . S
C787 C790 1.367 . S
C788 C786 1.405 . S
C788 C790 1.403 . S
C788 C821 1.439 . S
C789 H774 0.930 . S
C789 N785 1.319 . S
C789 C787 1.397 . S
C790 C787 1.367 . S
C790 C788 1.403 . S
C790 H797 0.929 . S
N791 Eu756 2.562 . S
N791 C792 1.325 . S
N791 C794 1.351 . S
C792 H778 0.929 . S
C792 N791 1.325 . S
C792 C796 1.416 . S
C793 C794 1.430 . S
C793 C795 1.404 . S
C793 C822 1.387 . S
C794 C786 1.448 . S
C794 N791 1.351 . S
C794 C793 1.430 . S
C795 H784 0.930 . S
C795 C793 1.404 . S
C795 C796 1.366 . S
C796 H775 0.930 . S
C796 C792 1.416 . S
C796 C795 1.366 . S
H797 C790 0.929 . S
H798 C821 0.931 . S
H799 C822 0.931 . S
O800 Eu756 2.462 . S
O800 C820 1.252 . S
O801 Eu756 2.373 . S
O801 C812 1.249 . S
O802 Eu767 2.335 . S
O802 C812 1.264 . S
O803 Eu756 2.432 . S
O803 C820 1.268 . S
O804 Eu756 2.291 . S
O804 C819 1.255 . S
O805 Eu767 2.372 . S
O805 C819 1.257 . S
O806 Eu767 2.462 . S
O806 C831 1.252 . S
O807 Eu767 2.373 . S
O807 C823 1.249 . S
O808 Eu756 2.335 . S
O808 C823 1.264 . S
O809 Eu767 2.432 . S
O809 C831 1.268 . S
O810 Eu767 2.291 . S
O810 C830 1.255 . S
O811 Eu756 2.372 . S
O811 C830 1.257 . S
C812 O801 1.249 . S
C812 O802 1.264 . S
C813 C816 1.382 . S
C813 C818 1.390 . S
C813 C820 1.506 . S
C814 C815 1.398 . S
C814 C818 1.392 . S
C815 C814 1.398 . S
C815 C817 1.372 . S
C815 H832 0.931 . S
C816 C813 1.382 . S
C816 C817 1.390 . S
C816 H833 0.931 . S
C817 C815 1.372 . S
C817 C816 1.390 . S
C817 H834 0.929 . S
C818 C813 1.390 . S
C818 C814 1.392 . S
C818 H835 0.930 . S
C819 O804 1.255 . S
C819 O805 1.257 . S
C820 Eu756 2.787 . S
C820 O800 1.252 . S
C820 O803 1.268 . S
C820 C813 1.506 . S
C821 C788 1.439 . S
C821 H798 0.931 . S
C821 C822 1.374 . S
C822 C793 1.387 . S
C822 H799 0.931 . S
C822 C821 1.374 . S
C823 O807 1.249 . S
C823 O808 1.264 . S
C824 C827 1.382 . S
C824 C828 1.390 . S
C824 C831 1.506 . S
C825 C826 1.398 . S
C825 C828 1.392 . S
C826 C825 1.398 . S
C826 C829 1.372 . S
C826 H836 0.931 . S
C827 C824 1.382 . S
C827 C829 1.390 . S
C827 H837 0.931 . S
C828 C824 1.390 . S
C828 C825 1.392 . S
C828 H838 0.930 . S
C829 C826 1.372 . S
C829 C827 1.390 . S
C829 H839 0.929 . S
C830 O810 1.255 . S
C830 O811 1.257 . S
C831 Eu767 2.787 . S
C831 O806 1.252 . S
C831 O809 1.268 . S
C831 C824 1.506 . S
H832 C815 0.931 . S
H833 C816 0.931 . S
H834 C817 0.929 . S
H835 C818 0.930 . S
H836 C826 0.931 . S
H837 C827 0.931 . S
H838 C828 0.930 . S
H839 C829 0.929 . S
Eu840 N869 2.600 . S
Eu840 N875 2.562 . S
Eu840 O884 2.462 . S
Eu840 O885 2.373 1_556 S
Eu840 O887 2.432 . S
Eu840 O888 2.296 . S
Eu840 O892 2.335 1_556 S
Eu840 O895 2.372 1_556 S
Eu840 C904 2.787 . S
C841 N842 1.365 1_545 S
C841 C844 1.405 1_545 S
C841 C848 1.448 . S
N842 C841 1.365 1_565 S
N842 C845 1.319 . S
N842 Eu851 2.600 1_565 S
C843 C845 1.397 . S
C843 C846 1.367 . S
C843 H863 0.931 . S
C844 C841 1.405 1_565 S
C844 C846 1.403 . S
C844 C850 1.439 1_565 S
C845 N842 1.319 . S
C845 C843 1.397 . S
C845 H856 0.930 . S
C846 C843 1.367 . S
C846 C844 1.403 . S
C846 H867 0.929 . S
C847 C848 1.430 . S
C847 C849 1.387 . S
C847 C853 1.404 . S
C848 C841 1.448 . S
C848 C847 1.430 . S
C848 N852 1.351 . S
C849 C847 1.387 . S
C849 C850 1.374 . S
C849 H864 0.931 . S
C850 C844 1.439 1_545 S
C850 C849 1.374 . S
C850 H865 0.931 1_545 S
Eu851 N842 2.600 1_545 S
Eu851 N852 2.562 . S
Eu851 O886 2.335 . S
Eu851 O889 2.372 1_545 S
Eu851 O890 2.462 . S
Eu851 O891 2.373 . S
Eu851 O893 2.432 1_545 S
Eu851 O894 2.291 . S
Eu851 C915 2.787 . S
N852 C848 1.351 . S
N852 Eu851 2.562 . S
N852 C854 1.325 . S
C853 C847 1.404 . S
C853 C855 1.366 . S
C853 H861 0.930 . S
C854 N852 1.325 . S
C854 C855 1.416 . S
C854 H860 0.929 . S
C855 C853 1.366 . S
C855 C854 1.416 . S
C855 H857 0.930 . S
H856 C845 0.930 . S
H857 C855 0.930 . S
H858 C873 0.930 1_554 S
H859 C880 0.930 . S
H860 C854 0.929 . S
H861 C853 0.930 . S
H862 C876 0.927 . S
H863 C843 0.931 . S
H864 C849 0.931 . S
H865 C850 0.931 1_565 S
H866 C871 0.931 . S
H867 C846 0.929 . S
H868 C879 0.930 1_565 S
N869 Eu840 2.600 . S
N869 C870 1.365 . S
N869 C873 1.319 . S
C870 N869 1.365 . S
C870 C872 1.405 . S
C870 C878 1.448 . S
C871 H866 0.931 . S
C871 C873 1.397 . S
C871 C874 1.367 . S
C872 C870 1.405 . S
C872 C874 1.403 . S
C872 C905 1.439 . S
C873 H858 0.930 1_556 S
C873 N869 1.319 . S
C873 C871 1.397 . S
C874 C871 1.367 . S
C874 C872 1.403 . S
C874 H881 0.929 . S
N875 Eu840 2.562 . S
N875 C876 1.325 . S
N875 C878 1.351 . S
C876 H862 0.927 . S
C876 N875 1.325 . S
C876 C880 1.416 1_545 S
C877 C878 1.430 . S
C877 C879 1.404 . S
C877 C906 1.387 . S
C878 C870 1.448 . S
C878 N875 1.351 . S
C878 C877 1.430 . S
C879 H868 0.930 1_545 S
C879 C877 1.404 . S
C879 C880 1.366 1_545 S
C880 H859 0.930 . S
C880 C876 1.416 1_565 S
C880 C879 1.366 1_565 S
H881 C874 0.929 . S
H882 C905 0.931 . S
H883 C906 0.931 . S
O884 Eu840 2.462 . S
O884 C904 1.252 . S
O885 Eu840 2.373 1_554 S
O885 C896 1.249 . S
O886 Eu851 2.335 . S
O886 C896 1.264 . S
O887 Eu840 2.432 . S
O887 C904 1.268 . S
O888 Eu840 2.296 . S
O888 C903 1.245 1_546 S
O889 Eu851 2.372 1_565 S
O889 C903 1.257 . S
O890 Eu851 2.462 . S
O890 C915 1.252 . S
O891 Eu851 2.373 . S
O891 C907 1.249 . S
O892 Eu840 2.335 1_554 S
O892 C907 1.264 . S
O893 Eu851 2.432 1_565 S
O893 C915 1.268 1_565 S
O894 Eu851 2.291 . S
O894 C914 1.255 . S
O895 Eu840 2.372 1_554 S
O895 C914 1.257 . S
C896 O885 1.249 . S
C896 O886 1.264 . S
C897 C900 1.382 . S
C897 C902 1.390 . S
C897 C904 1.506 . S
C898 C899 1.398 . S
C898 C902 1.392 . S
C899 C898 1.398 . S
C899 C901 1.372 . S
C899 H916 0.931 . S
C900 C897 1.382 . S
C900 C901 1.390 . S
C900 H917 0.931 . S
C901 C899 1.372 . S
C901 C900 1.390 . S
C901 H918 0.929 . S
C902 C897 1.390 . S
C902 C898 1.392 . S
C902 H919 0.930 . S
C903 O888 1.245 1_564 S
C903 O889 1.257 . S
C904 Eu840 2.787 . S
C904 O884 1.252 . S
C904 O887 1.268 . S
C904 C897 1.506 . S
C905 C872 1.439 . S
C905 H882 0.931 . S
C905 C906 1.374 . S
C906 C877 1.387 . S
C906 H883 0.931 . S
C906 C905 1.374 . S
C907 O891 1.249 . S
C907 O892 1.264 . S
C908 C911 1.382 . S
C908 C912 1.390 1_565 S
C908 C915 1.506 1_565 S
C909 C910 1.398 1_545 S
C909 C912 1.392 . S
C910 C909 1.398 1_565 S
C910 C913 1.372 . S
C910 H920 0.931 . S
C911 C908 1.382 . S
C911 C913 1.390 . S
C911 H921 0.931 . S
C912 C908 1.390 1_545 S
C912 C909 1.392 . S
C912 H922 0.930 . S
C913 C910 1.372 . S
C913 C911 1.390 . S
C913 H923 0.929 . S
C914 O894 1.255 . S
C914 O895 1.257 . S
C915 Eu851 2.787 . S
C915 O890 1.252 . S
C915 O893 1.268 1_545 S
C915 C908 1.506 1_545 S
H916 C899 0.931 . S
H917 C900 0.931 . S
H918 C901 0.929 . S
H919 C902 0.930 . S
H920 C910 0.931 . S
H921 C911 0.931 . S
H922 C912 0.930 . S
H923 C913 0.929 . S
Eu924 N953 2.600 . S
Eu924 N959 2.562 . S
Eu924 O968 2.462 . S
Eu924 O969 2.373 . S
Eu924 O971 2.432 . S
Eu924 O972 2.291 . S
Eu924 O976 2.335 . S
Eu924 O979 2.372 . S
Eu924 C988 2.787 . S
C925 N926 1.365 . S
C925 C928 1.405 . S
C925 C932 1.448 . S
N926 C925 1.365 . S
N926 C929 1.319 . S
N926 Eu935 2.600 . S
C927 C929 1.397 . S
C927 C930 1.367 . S
C927 H947 0.931 . S
C928 C925 1.405 . S
C928 C930 1.403 . S
C928 C934 1.439 . S
C929 N926 1.319 . S
C929 C927 1.397 . S
C929 H940 0.930 . S
C930 C927 1.367 . S
C930 C928 1.403 . S
C930 H951 0.929 . S
C931 C932 1.430 . S
C931 C933 1.387 . S
C931 C937 1.404 . S
C932 C925 1.448 . S
C932 C931 1.430 . S
C932 N936 1.351 . S
C933 C931 1.387 . S
C933 C934 1.374 . S
C933 H948 0.931 . S
C934 C928 1.439 . S
C934 C933 1.374 . S
C934 H949 0.931 . S
Eu935 N926 2.600 . S
Eu935 N936 2.562 . S
Eu935 O970 2.335 . S
Eu935 O973 2.372 . S
Eu935 O974 2.462 . S
Eu935 O975 2.373 . S
Eu935 O977 2.432 . S
Eu935 O978 2.291 . S
Eu935 C999 2.787 . S
N936 C932 1.351 . S
N936 Eu935 2.562 . S
N936 C938 1.325 . S
C937 C931 1.404 . S
C937 C939 1.366 . S
C937 H945 0.930 . S
C938 N936 1.325 . S
C938 C939 1.416 . S
C938 H944 0.929 . S
C939 C937 1.366 . S
C939 C938 1.416 . S
C939 H941 0.930 . S
H940 C929 0.930 . S
H941 C939 0.930 . S
H942 C957 0.930 . S
H943 C964 0.930 . S
H944 C938 0.929 . S
H945 C937 0.930 . S
H946 C960 0.929 . S
H947 C927 0.931 . S
H948 C933 0.931 . S
H949 C934 0.931 . S
H950 C955 0.931 . S
H951 C930 0.929 . S
H952 C963 0.930 . S
N953 Eu924 2.600 . S
N953 C954 1.365 . S
N953 C957 1.319 . S
C954 N953 1.365 . S
C954 C956 1.405 . S
C954 C962 1.448 . S
C955 H950 0.931 . S
C955 C957 1.397 . S
C955 C958 1.367 . S
C956 C954 1.405 . S
C956 C958 1.403 . S
C956 C989 1.439 . S
C957 H942 0.930 . S
C957 N953 1.319 . S
C957 C955 1.397 . S
C958 C955 1.367 . S
C958 C956 1.403 . S
C958 H965 0.929 . S
N959 Eu924 2.562 . S
N959 C960 1.325 . S
N959 C962 1.351 . S
C960 H946 0.929 . S
C960 N959 1.325 . S
C960 C964 1.416 . S
C961 C962 1.430 . S
C961 C963 1.404 . S
C961 C990 1.387 . S
C962 C954 1.448 . S
C962 N959 1.351 . S
C962 C961 1.430 . S
C963 H952 0.930 . S
C963 C961 1.404 . S
C963 C964 1.366 . S
C964 H943 0.930 . S
C964 C960 1.416 . S
C964 C963 1.366 . S
H965 C958 0.929 . S
H966 C989 0.931 . S
H967 C990 0.931 . S
O968 Eu924 2.462 . S
O968 C988 1.252 . S
O969 Eu924 2.373 . S
O969 C980 1.249 . S
O970 Eu935 2.335 . S
O970 C980 1.264 . S
O971 Eu924 2.432 . S
O971 C988 1.268 . S
O972 Eu924 2.291 . S
O972 C987 1.255 . S
O973 Eu935 2.372 . S
O973 C987 1.257 . S
O974 Eu935 2.462 . S
O974 C999 1.252 . S
O975 Eu935 2.373 . S
O975 C991 1.249 . S
O976 Eu924 2.335 . S
O976 C991 1.264 . S
O977 Eu935 2.432 . S
O977 C999 1.268 . S
O978 Eu935 2.291 . S
O978 C998 1.255 . S
O979 Eu924 2.372 . S
O979 C998 1.257 . S
C980 O969 1.249 . S
C980 O970 1.264 . S
C981 C984 1.382 . S
C981 C986 1.390 . S
C981 C988 1.506 . S
C982 C983 1.398 . S
C982 C986 1.392 . S
C983 C982 1.398 . S
C983 C985 1.372 . S
C983 H1000 0.931 . S
C984 C981 1.382 . S
C984 C985 1.390 . S
C984 H1001 0.931 . S
C985 C983 1.372 . S
C985 C984 1.390 . S
C985 H1002 0.929 . S
C986 C981 1.390 . S
C986 C982 1.392 . S
C986 H1003 0.930 . S
C987 O972 1.255 . S
C987 O973 1.257 . S
C988 Eu924 2.787 . S
C988 O968 1.252 . S
C988 O971 1.268 . S
C988 C981 1.506 . S
C989 C956 1.439 . S
C989 H966 0.931 . S
C989 C990 1.374 . S
C990 C961 1.387 . S
C990 H967 0.931 . S
C990 C989 1.374 . S
C991 O975 1.249 . S
C991 O976 1.264 . S
C992 C995 1.382 . S
C992 C996 1.390 . S
C992 C999 1.506 . S
C993 C994 1.398 . S
C993 C996 1.392 . S
C994 C993 1.398 . S
C994 C997 1.372 . S
C994 H1004 0.931 . S
C995 C992 1.382 . S
C995 C997 1.390 . S
C995 H1005 0.931 . S
C996 C992 1.390 . S
C996 C993 1.392 . S
C996 H1006 0.930 . S
C997 C994 1.372 . S
C997 C995 1.390 . S
C997 H1007 0.929 . S
C998 O978 1.255 . S
C998 O979 1.257 . S
C999 Eu935 2.787 . S
C999 O974 1.252 . S
C999 O977 1.268 . S
C999 C992 1.506 . S
H1000 C983 0.931 . S
H1001 C984 0.931 . S
H1002 C985 0.929 . S
H1003 C986 0.930 . S
H1004 C994 0.931 . S
H1005 C995 0.931 . S
H1006 C996 0.930 . S
H1007 C997 0.929 . S
Eu1008 N1037 2.600 1_554 S
Eu1008 N1043 2.562 1_554 S
Eu1008 O1052 2.462 . S
Eu1008 O1053 2.373 1_554 S
Eu1008 O1055 2.432 . S
Eu1008 O1056 2.291 . S
Eu1008 O1060 2.335 . S
Eu1008 O1063 2.372 . S
Eu1008 C1072 2.787 . S
C1009 N1010 1.365 . S
C1009 C1012 1.405 . S
C1009 C1016 1.448 . S
N1010 C1009 1.365 . S
N1010 C1013 1.319 . S
N1010 Eu1019 2.600 . S
C1011 C1013 1.397 . S
C1011 C1014 1.367 . S
C1011 H1031 0.931 . S
C1012 C1009 1.405 . S
C1012 C1014 1.403 . S
C1012 C1018 1.439 . S
C1013 N1010 1.319 . S
C1013 C1011 1.397 . S
C1013 H1024 0.930 . S
C1014 C1011 1.367 . S
C1014 C1012 1.403 . S
C1014 H1035 0.929 . S
C1015 C1016 1.430 . S
C1015 C1017 1.387 . S
C1015 C1021 1.404 . S
C1016 C1009 1.448 . S
C1016 C1015 1.430 . S
C1016 N1020 1.351 . S
C1017 C1015 1.387 . S
C1017 C1018 1.374 . S
C1017 H1032 0.931 . S
C1018 C1012 1.439 . S
C1018 C1017 1.374 . S
C1018 H1033 0.931 . S
Eu1019 N1010 2.600 . S
Eu1019 N1020 2.562 . S
Eu1019 O1054 2.335 1_554 S
Eu1019 O1057 2.372 . S
Eu1019 O1058 2.462 . S
Eu1019 O1059 2.373 . S
Eu1019 O1061 2.432 . S
Eu1019 O1062 2.291 . S
Eu1019 C1083 2.787 . S
N1020 C1016 1.351 . S
N1020 Eu1019 2.562 . S
N1020 C1022 1.325 . S
C1021 C1015 1.404 . S
C1021 C1023 1.366 . S
C1021 H1029 0.930 . S
C1022 N1020 1.325 . S
C1022 C1023 1.416 . S
C1022 H1028 0.929 . S
C1023 C1021 1.366 . S
C1023 C1022 1.416 . S
C1023 H1025 0.930 . S
H1024 C1013 0.930 . S
H1025 C1023 0.930 . S
H1026 C1041 0.930 1_554 S
H1027 C1048 0.930 . S
H1028 C1022 0.929 . S
H1029 C1021 0.930 . S
H1030 C1044 0.929 1_554 S
H1031 C1011 0.931 . S
H1032 C1017 0.931 . S
H1033 C1018 0.931 . S
H1034 C1039 0.931 . S
H1035 C1014 0.929 . S
H1036 C1047 0.930 . S
N1037 Eu1008 2.600 1_556 S
N1037 C1038 1.365 . S
N1037 C1041 1.319 . S
C1038 N1037 1.365 . S
C1038 C1040 1.405 . S
C1038 C1046 1.448 . S
C1039 H1034 0.931 . S
C1039 C1041 1.397 . S
C1039 C1042 1.367 . S
C1040 C1038 1.405 . S
C1040 C1042 1.403 . S
C1040 C1073 1.439 . S
C1041 H1026 0.930 1_556 S
C1041 N1037 1.319 . S
C1041 C1039 1.397 . S
C1042 C1039 1.367 . S
C1042 C1040 1.403 . S
C1042 H1049 0.929 . S
N1043 Eu1008 2.562 1_556 S
N1043 C1044 1.325 . S
N1043 C1046 1.351 . S
C1044 H1030 0.929 1_556 S
C1044 N1043 1.325 . S
C1044 C1048 1.416 . S
C1045 C1046 1.430 . S
C1045 C1047 1.404 . S
C1045 C1074 1.387 . S
C1046 C1038 1.448 . S
C1046 N1043 1.351 . S
C1046 C1045 1.430 . S
C1047 H1036 0.930 . S
C1047 C1045 1.404 . S
C1047 C1048 1.366 . S
C1048 H1027 0.930 . S
C1048 C1044 1.416 . S
C1048 C1047 1.366 . S
H1049 C1042 0.929 . S
H1050 C1073 0.931 . S
H1051 C1074 0.931 . S
O1052 Eu1008 2.462 . S
O1052 C1072 1.252 . S
O1053 Eu1008 2.373 1_556 S
O1053 C1064 1.249 . S
O1054 Eu1019 2.335 1_556 S
O1054 C1064 1.264 . S
O1055 Eu1008 2.432 . S
O1055 C1072 1.268 . S
O1056 Eu1008 2.291 . S
O1056 C1071 1.255 . S
O1057 Eu1019 2.372 . S
O1057 C1071 1.257 . S
O1058 Eu1019 2.462 . S
O1058 C1083 1.252 . S
O1059 Eu1019 2.373 . S
O1059 C1075 1.249 . S
O1060 Eu1008 2.335 . S
O1060 C1075 1.264 . S
O1061 Eu1019 2.432 . S
O1061 C1083 1.268 . S
O1062 Eu1019 2.291 . S
O1062 C1082 1.255 . S
O1063 Eu1008 2.372 . S
O1063 C1082 1.257 . S
C1064 O1053 1.249 . S
C1064 O1054 1.264 . S
C1065 C1068 1.382 . S
C1065 C1070 1.390 . S
C1065 C1072 1.506 . S
C1066 C1067 1.398 . S
C1066 C1070 1.392 . S
C1067 C1066 1.398 . S
C1067 C1069 1.372 . S
C1067 H1084 0.931 . S
C1068 C1065 1.382 . S
C1068 C1069 1.390 . S
C1068 H1085 0.931 . S
C1069 C1067 1.372 . S
C1069 C1068 1.390 . S
C1069 H1086 0.929 . S
C1070 C1065 1.390 . S
C1070 C1066 1.392 . S
C1070 H1087 0.930 . S
C1071 O1056 1.255 . S
C1071 O1057 1.257 . S
C1072 Eu1008 2.787 . S
C1072 O1052 1.252 . S
C1072 O1055 1.268 . S
C1072 C1065 1.506 . S
C1073 C1040 1.439 . S
C1073 H1050 0.931 . S
C1073 C1074 1.374 . S
C1074 C1045 1.387 . S
C1074 H1051 0.931 . S
C1074 C1073 1.374 . S
C1075 O1059 1.249 . S
C1075 O1060 1.264 . S
C1076 C1079 1.382 . S
C1076 C1080 1.390 . S
C1076 C1083 1.506 1_556 S
C1077 C1078 1.398 . S
C1077 C1080 1.392 . S
C1078 C1077 1.398 . S
C1078 C1081 1.372 . S
C1078 H1088 0.931 . S
C1079 C1076 1.382 . S
C1079 C1081 1.390 . S
C1079 H1089 0.922 1_556 S
C1080 C1076 1.390 . S
C1080 C1077 1.392 . S
C1080 H1090 0.930 . S
C1081 C1078 1.372 . S
C1081 C1079 1.390 . S
C1081 H1091 0.929 . S
C1082 O1062 1.255 . S
C1082 O1063 1.257 . S
C1083 Eu1019 2.787 . S
C1083 O1058 1.252 . S
C1083 O1061 1.268 . S
C1083 C1076 1.506 1_554 S
H1084 C1067 0.931 . S
H1085 C1068 0.931 . S
H1086 C1069 0.929 . S
H1087 C1070 0.930 . S
H1088 C1078 0.931 . S
H1089 C1079 0.922 1_554 S
H1090 C1080 0.930 . S
H1091 C1081 0.929 . S
Eu1092 N1121 2.600 . S
Eu1092 N1127 2.562 . S
Eu1092 O1136 2.462 . S
Eu1092 O1137 2.373 . S
Eu1092 O1139 2.432 . S
Eu1092 O1140 2.291 . S
Eu1092 O1144 2.335 . S
Eu1092 O1147 2.372 . S
Eu1092 C1156 2.787 . S
C1093 N1094 1.365 . S
C1093 C1096 1.405 . S
C1093 C1100 1.448 . S
N1094 C1093 1.365 . S
N1094 C1097 1.319 . S
N1094 Eu1103 2.600 . S
C1095 C1097 1.397 . S
C1095 C1098 1.367 . S
C1095 H1115 0.931 . S
C1096 C1093 1.405 . S
C1096 C1098 1.403 . S
C1096 C1102 1.439 . S
C1097 N1094 1.319 . S
C1097 C1095 1.397 . S
C1097 H1108 0.930 . S
C1098 C1095 1.367 . S
C1098 C1096 1.403 . S
C1098 H1119 0.929 . S
C1099 C1100 1.430 . S
C1099 C1101 1.387 . S
C1099 C1105 1.404 . S
C1100 C1093 1.448 . S
C1100 C1099 1.430 . S
C1100 N1104 1.351 . S
C1101 C1099 1.387 . S
C1101 C1102 1.374 . S
C1101 H1116 0.931 . S
C1102 C1096 1.439 . S
C1102 C1101 1.374 . S
C1102 H1117 0.931 . S
Eu1103 N1094 2.600 . S
Eu1103 N1104 2.562 . S
Eu1103 O1138 2.335 . S
Eu1103 O1141 2.372 . S
Eu1103 O1142 2.462 . S
Eu1103 O1143 2.373 . S
Eu1103 O1145 2.432 . S
Eu1103 O1146 2.291 . S
Eu1103 C1167 2.787 . S
N1104 C1100 1.351 . S
N1104 Eu1103 2.562 . S
N1104 C1106 1.325 . S
C1105 C1099 1.404 . S
C1105 C1107 1.366 . S
C1105 H1113 0.930 . S
C1106 N1104 1.325 . S
C1106 C1107 1.416 . S
C1106 H1112 0.929 . S
C1107 C1105 1.366 . S
C1107 C1106 1.416 . S
C1107 H1109 0.930 . S
H1108 C1097 0.930 . S
H1109 C1107 0.930 . S
H1110 C1125 0.930 . S
H1111 C1132 0.930 . S
H1112 C1106 0.929 . S
H1113 C1105 0.930 . S
H1114 C1128 0.929 . S
H1115 C1095 0.931 . S
H1116 C1101 0.931 . S
H1117 C1102 0.931 . S
H1118 C1123 0.931 . S
H1119 C1098 0.929 . S
H1120 C1131 0.930 . S
N1121 Eu1092 2.600 . S
N1121 C1122 1.365 . S
N1121 C1125 1.319 . S
C1122 N1121 1.365 . S
C1122 C1124 1.405 . S
C1122 C1130 1.448 . S
C1123 H1118 0.931 . S
C1123 C1125 1.397 . S
C1123 C1126 1.367 . S
C1124 C1122 1.405 . S
C1124 C1126 1.403 . S
C1124 C1157 1.439 . S
C1125 H1110 0.930 . S
C1125 N1121 1.319 . S
C1125 C1123 1.397 . S
C1126 C1123 1.367 . S
C1126 C1124 1.403 . S
C1126 H1133 0.929 . S
N1127 Eu1092 2.562 . S
N1127 C1128 1.325 . S
N1127 C1130 1.351 . S
C1128 H1114 0.929 . S
C1128 N1127 1.325 . S
C1128 C1132 1.416 . S
C1129 C1130 1.430 . S
C1129 C1131 1.404 . S
C1129 C1158 1.387 . S
C1130 C1122 1.448 . S
C1130 N1127 1.351 . S
C1130 C1129 1.430 . S
C1131 H1120 0.930 . S
C1131 C1129 1.404 . S
C1131 C1132 1.366 . S
C1132 H1111 0.930 . S
C1132 C1128 1.416 . S
C1132 C1131 1.366 . S
H1133 C1126 0.929 . S
H1134 C1157 0.931 . S
H1135 C1158 0.931 . S
O1136 Eu1092 2.462 . S
O1136 C1156 1.252 . S
O1137 Eu1092 2.373 . S
O1137 C1148 1.249 . S
O1138 Eu1103 2.335 . S
O1138 C1148 1.264 . S
O1139 Eu1092 2.432 . S
O1139 C1156 1.268 . S
O1140 Eu1092 2.291 . S
O1140 C1155 1.255 . S
O1141 Eu1103 2.372 . S
O1141 C1155 1.257 . S
O1142 Eu1103 2.462 . S
O1142 C1167 1.252 . S
O1143 Eu1103 2.373 . S
O1143 C1159 1.249 . S
O1144 Eu1092 2.335 . S
O1144 C1159 1.264 . S
O1145 Eu1103 2.432 . S
O1145 C1167 1.268 . S
O1146 Eu1103 2.291 . S
O1146 C1166 1.255 . S
O1147 Eu1092 2.372 . S
O1147 C1166 1.257 . S
C1148 O1137 1.249 . S
C1148 O1138 1.264 . S
C1149 C1152 1.382 . S
C1149 C1154 1.390 . S
C1149 C1156 1.506 . S
C1150 C1151 1.398 . S
C1150 C1154 1.392 . S
C1151 C1150 1.398 . S
C1151 C1153 1.372 . S
C1151 H1168 0.931 . S
C1152 C1149 1.382 . S
C1152 C1153 1.390 . S
C1152 H1169 0.931 . S
C1153 C1151 1.372 . S
C1153 C1152 1.390 . S
C1153 H1170 0.929 . S
C1154 C1149 1.390 . S
C1154 C1150 1.392 . S
C1154 H1171 0.930 . S
C1155 O1140 1.255 . S
C1155 O1141 1.257 . S
C1156 Eu1092 2.787 . S
C1156 O1136 1.252 . S
C1156 O1139 1.268 . S
C1156 C1149 1.506 . S
C1157 C1124 1.439 . S
C1157 H1134 0.931 . S
C1157 C1158 1.374 . S
C1158 C1129 1.387 . S
C1158 H1135 0.931 . S
C1158 C1157 1.374 . S
C1159 O1143 1.249 . S
C1159 O1144 1.264 . S
C1160 C1163 1.382 . S
C1160 C1164 1.390 . S
C1160 C1167 1.506 . S
C1161 C1162 1.398 . S
C1161 C1164 1.392 . S
C1162 C1161 1.398 . S
C1162 C1165 1.372 . S
C1162 H1172 0.931 . S
C1163 C1160 1.382 . S
C1163 C1165 1.390 . S
C1163 H1173 0.931 . S
C1164 C1160 1.390 . S
C1164 C1161 1.392 . S
C1164 H1174 0.930 . S
C1165 C1162 1.372 . S
C1165 C1163 1.390 . S
C1165 H1175 0.929 . S
C1166 O1146 1.255 . S
C1166 O1147 1.257 . S
C1167 Eu1103 2.787 . S
C1167 O1142 1.252 . S
C1167 O1145 1.268 . S
C1167 C1160 1.506 . S
H1168 C1151 0.931 . S
H1169 C1152 0.931 . S
H1170 C1153 0.929 . S
H1171 C1154 0.930 . S
H1172 C1162 0.931 . S
H1173 C1163 0.931 . S
H1174 C1164 0.930 . S
H1175 C1165 0.929 . S
Eu1176 N1205 2.600 1_455 S
Eu1176 N1211 2.562 1_455 S
Eu1176 O1220 2.462 . S
Eu1176 O1221 2.373 1_455 S
Eu1176 O1223 2.432 . S
Eu1176 O1224 2.291 . S
Eu1176 O1228 2.335 . S
Eu1176 O1231 2.372 . S
Eu1176 C1240 2.787 . S
C1177 N1178 1.365 . S
C1177 C1180 1.405 . S
C1177 C1184 1.448 . S
N1178 C1177 1.365 . S
N1178 C1181 1.319 . S
N1178 Eu1187 2.600 . S
C1179 C1181 1.397 . S
C1179 C1182 1.367 . S
C1179 H1199 0.931 . S
C1180 C1177 1.405 . S
C1180 C1182 1.403 . S
C1180 C1186 1.439 . S
C1181 N1178 1.319 . S
C1181 C1179 1.397 . S
C1181 H1192 0.930 . S
C1182 C1179 1.367 . S
C1182 C1180 1.403 . S
C1182 H1203 0.929 . S
C1183 C1184 1.430 . S
C1183 C1185 1.387 . S
C1183 C1189 1.404 . S
C1184 C1177 1.448 . S
C1184 C1183 1.430 . S
C1184 N1188 1.351 . S
C1185 C1183 1.387 . S
C1185 C1186 1.374 . S
C1185 H1200 0.931 . S
C1186 C1180 1.439 . S
C1186 C1185 1.374 . S
C1186 H1201 0.931 . S
Eu1187 N1178 2.600 . S
Eu1187 N1188 2.562 . S
Eu1187 O1222 2.335 1_455 S
Eu1187 O1225 2.372 . S
Eu1187 O1226 2.462 . S
Eu1187 O1227 2.373 . S
Eu1187 O1229 2.432 . S
Eu1187 O1230 2.291 . S
Eu1187 C1251 2.787 . S
N1188 C1184 1.351 . S
N1188 Eu1187 2.562 . S
N1188 C1190 1.325 . S
C1189 C1183 1.404 . S
C1189 C1191 1.366 . S
C1189 H1197 0.930 . S
C1190 N1188 1.325 . S
C1190 C1191 1.416 . S
C1190 H1196 0.929 . S
C1191 C1189 1.366 . S
C1191 C1190 1.416 . S
C1191 H1193 0.930 . S
H1192 C1181 0.930 . S
H1193 C1191 0.930 . S
H1194 C1209 0.922 1_455 S
H1195 C1216 0.930 . S
H1196 C1190 0.929 . S
H1197 C1189 0.930 . S
H1198 C1212 0.929 1_455 S
H1199 C1179 0.931 . S
H1200 C1185 0.931 . S
H1201 C1186 0.931 . S
H1202 C1207 0.931 . S
H1203 C1182 0.929 . S
H1204 C1215 0.930 . S
N1205 Eu1176 2.600 1_655 S
N1205 C1206 1.365 . S
N1205 C1209 1.317 . S
C1206 N1205 1.365 . S
C1206 C1208 1.405 . S
C1206 C1214 1.448 . S
C1207 H1202 0.931 . S
C1207 C1209 1.407 . S
C1207 C1210 1.367 . S
C1208 C1206 1.405 . S
C1208 C1210 1.403 . S
C1208 C1241 1.439 . S
C1209 H1194 0.922 1_655 S
C1209 N1205 1.317 . S
C1209 C1207 1.407 . S
C1210 C1207 1.367 . S
C1210 C1208 1.403 . S
C1210 H1217 0.929 . S
N1211 Eu1176 2.562 1_655 S
N1211 C1212 1.325 . S
N1211 C1214 1.351 . S
C1212 H1198 0.929 1_655 S
C1212 N1211 1.325 . S
C1212 C1216 1.416 . S
C1213 C1214 1.430 . S
C1213 C1215 1.404 . S
C1213 C1242 1.387 . S
C1214 C1206 1.448 . S
C1214 N1211 1.351 . S
C1214 C1213 1.430 . S
C1215 H1204 0.930 . S
C1215 C1213 1.404 . S
C1215 C1216 1.366 . S
C1216 H1195 0.930 . S
C1216 C1212 1.416 . S
C1216 C1215 1.366 . S
H1217 C1210 0.929 . S
H1218 C1241 0.931 . S
H1219 C1242 0.931 . S
O1220 Eu1176 2.462 . S
O1220 C1240 1.252 . S
O1221 Eu1176 2.373 1_655 S
O1221 C1232 1.249 . S
O1222 Eu1187 2.335 1_655 S
O1222 C1232 1.264 . S
O1223 Eu1176 2.432 . S
O1223 C1240 1.268 . S
O1224 Eu1176 2.291 . S
O1224 C1239 1.255 . S
O1225 Eu1187 2.372 . S
O1225 C1239 1.257 . S
O1226 Eu1187 2.462 . S
O1226 C1251 1.252 . S
O1227 Eu1187 2.373 . S
O1227 C1243 1.249 . S
O1228 Eu1176 2.335 . S
O1228 C1243 1.264 . S
O1229 Eu1187 2.432 . S
O1229 C1251 1.268 . S
O1230 Eu1187 2.291 . S
O1230 C1250 1.255 . S
O1231 Eu1176 2.372 . S
O1231 C1250 1.257 . S
C1232 O1221 1.249 . S
C1232 O1222 1.264 . S
C1233 C1236 1.382 . S
C1233 C1238 1.390 . S
C1233 C1240 1.506 . S
C1234 C1235 1.398 . S
C1234 C1238 1.392 . S
C1235 C1234 1.398 . S
C1235 C1237 1.372 . S
C1235 H1252 0.931 . S
C1236 C1233 1.382 . S
C1236 C1237 1.390 . S
C1236 H1253 0.931 . S
C1237 C1235 1.372 . S
C1237 C1236 1.390 . S
C1237 H1254 0.929 . S
C1238 C1233 1.390 . S
C1238 C1234 1.392 . S
C1238 H1255 0.930 . S
C1239 O1224 1.255 . S
C1239 O1225 1.257 . S
C1240 Eu1176 2.787 . S
C1240 O1220 1.252 . S
C1240 O1223 1.268 . S
C1240 C1233 1.506 . S
C1241 C1208 1.439 . S
C1241 H1218 0.931 . S
C1241 C1242 1.374 . S
C1242 C1213 1.387 . S
C1242 H1219 0.931 . S
C1242 C1241 1.374 . S
C1243 O1227 1.249 . S
C1243 O1228 1.264 . S
C1244 C1247 1.382 . S
C1244 C1248 1.390 . S
C1244 C1251 1.506 1_655 S
C1245 C1246 1.398 . S
C1245 C1248 1.392 . S
C1246 C1245 1.398 . S
C1246 C1249 1.372 . S
C1246 H1256 0.931 . S
C1247 C1244 1.382 . S
C1247 C1249 1.390 . S
C1247 H1257 0.931 . S
C1248 C1244 1.390 . S
C1248 C1245 1.392 . S
C1248 H1258 0.930 . S
C1249 C1246 1.372 . S
C1249 C1247 1.390 . S
C1249 H1259 0.929 . S
C1250 O1230 1.255 . S
C1250 O1231 1.257 . S
C1251 Eu1187 2.787 . S
C1251 O1226 1.252 . S
C1251 O1229 1.268 . S
C1251 C1244 1.506 1_455 S
H1252 C1235 0.931 . S
H1253 C1236 0.931 . S
H1254 C1237 0.929 . S
H1255 C1238 0.930 . S
H1256 C1246 0.931 . S
H1257 C1247 0.931 . S
H1258 C1248 0.930 . S
H1259 C1249 0.929 . S
Eu1260 N1289 2.600 . S
Eu1260 N1295 2.562 . S
Eu1260 O1304 2.462 . S
Eu1260 O1305 2.373 . S
Eu1260 O1307 2.432 . S
Eu1260 O1308 2.291 . S
Eu1260 O1312 2.335 . S
Eu1260 O1315 2.372 . S
Eu1260 C1324 2.787 . S
C1261 N1262 1.365 . S
C1261 C1264 1.405 . S
C1261 C1268 1.448 . S
N1262 C1261 1.365 . S
N1262 C1265 1.319 . S
N1262 Eu1271 2.600 . S
C1263 C1265 1.397 . S
C1263 C1266 1.367 . S
C1263 H1283 0.931 . S
C1264 C1261 1.405 . S
C1264 C1266 1.403 . S
C1264 C1270 1.439 . S
C1265 N1262 1.319 . S
C1265 C1263 1.397 . S
C1265 H1276 0.930 . S
C1266 C1263 1.367 . S
C1266 C1264 1.403 . S
C1266 H1287 0.929 . S
C1267 C1268 1.430 . S
C1267 C1269 1.387 . S
C1267 C1273 1.404 . S
C1268 C1261 1.448 . S
C1268 C1267 1.430 . S
C1268 N1272 1.351 . S
C1269 C1267 1.387 . S
C1269 C1270 1.374 . S
C1269 H1284 0.931 . S
C1270 C1264 1.439 . S
C1270 C1269 1.374 . S
C1270 H1285 0.931 . S
Eu1271 N1262 2.600 . S
Eu1271 N1272 2.562 . S
Eu1271 O1306 2.335 . S
Eu1271 O1309 2.372 . S
Eu1271 O1310 2.462 . S
Eu1271 O1311 2.373 . S
Eu1271 O1313 2.432 . S
Eu1271 O1314 2.291 . S
Eu1271 C1335 2.787 . S
N1272 C1268 1.351 . S
N1272 Eu1271 2.562 . S
N1272 C1274 1.325 . S
C1273 C1267 1.404 . S
C1273 C1275 1.366 . S
C1273 H1281 0.930 . S
C1274 N1272 1.325 . S
C1274 C1275 1.416 . S
C1274 H1280 0.929 . S
C1275 C1273 1.366 . S
C1275 C1274 1.416 . S
C1275 H1277 0.930 . S
H1276 C1265 0.930 . S
H1277 C1275 0.930 . S
H1278 C1293 0.930 . S
H1279 C1300 0.930 . S
H1280 C1274 0.929 . S
H1281 C1273 0.930 . S
H1282 C1296 0.929 . S
H1283 C1263 0.931 . S
H1284 C1269 0.931 . S
H1285 C1270 0.931 . S
H1286 C1291 0.931 . S
H1287 C1266 0.929 . S
H1288 C1299 0.930 . S
N1289 Eu1260 2.600 . S
N1289 C1290 1.365 . S
N1289 C1293 1.319 . S
C1290 N1289 1.365 . S
C1290 C1292 1.405 . S
C1290 C1298 1.448 . S
C1291 H1286 0.931 . S
C1291 C1293 1.397 . S
C1291 C1294 1.367 . S
C1292 C1290 1.405 . S
C1292 C1294 1.403 . S
C1292 C1325 1.439 . S
C1293 H1278 0.930 . S
C1293 N1289 1.319 . S
C1293 C1291 1.397 . S
C1294 C1291 1.367 . S
C1294 C1292 1.403 . S
C1294 H1301 0.929 . S
N1295 Eu1260 2.562 . S
N1295 C1296 1.325 . S
N1295 C1298 1.351 . S
C1296 H1282 0.929 . S
C1296 N1295 1.325 . S
C1296 C1300 1.416 . S
C1297 C1298 1.430 . S
C1297 C1299 1.404 . S
C1297 C1326 1.387 . S
C1298 C1290 1.448 . S
C1298 N1295 1.351 . S
C1298 C1297 1.430 . S
C1299 H1288 0.930 . S
C1299 C1297 1.404 . S
C1299 C1300 1.366 . S
C1300 H1279 0.930 . S
C1300 C1296 1.416 . S
C1300 C1299 1.366 . S
H1301 C1294 0.929 . S
H1302 C1325 0.931 . S
H1303 C1326 0.931 . S
O1304 Eu1260 2.462 . S
O1304 C1324 1.252 . S
O1305 Eu1260 2.373 . S
O1305 C1316 1.249 . S
O1306 Eu1271 2.335 . S
O1306 C1316 1.264 . S
O1307 Eu1260 2.432 . S
O1307 C1324 1.268 . S
O1308 Eu1260 2.291 . S
O1308 C1323 1.255 . S
O1309 Eu1271 2.372 . S
O1309 C1323 1.257 . S
O1310 Eu1271 2.462 . S
O1310 C1335 1.252 . S
O1311 Eu1271 2.373 . S
O1311 C1327 1.249 . S
O1312 Eu1260 2.335 . S
O1312 C1327 1.264 . S
O1313 Eu1271 2.432 . S
O1313 C1335 1.268 . S
O1314 Eu1271 2.291 . S
O1314 C1334 1.255 . S
O1315 Eu1260 2.372 . S
O1315 C1334 1.257 . S
C1316 O1305 1.249 . S
C1316 O1306 1.264 . S
C1317 C1320 1.382 . S
C1317 C1322 1.390 . S
C1317 C1324 1.506 . S
C1318 C1319 1.398 . S
C1318 C1322 1.392 . S
C1319 C1318 1.398 . S
C1319 C1321 1.372 . S
C1319 H1336 0.931 . S
C1320 C1317 1.382 . S
C1320 C1321 1.390 . S
C1320 H1337 0.931 . S
C1321 C1319 1.372 . S
C1321 C1320 1.390 . S
C1321 H1338 0.929 . S
C1322 C1317 1.390 . S
C1322 C1318 1.392 . S
C1322 H1339 0.930 . S
C1323 O1308 1.255 . S
C1323 O1309 1.257 . S
C1324 Eu1260 2.787 . S
C1324 O1304 1.252 . S
C1324 O1307 1.268 . S
C1324 C1317 1.506 . S
C1325 C1292 1.439 . S
C1325 H1302 0.931 . S
C1325 C1326 1.374 . S
C1326 C1297 1.387 . S
C1326 H1303 0.931 . S
C1326 C1325 1.374 . S
C1327 O1311 1.249 . S
C1327 O1312 1.264 . S
C1328 C1331 1.382 . S
C1328 C1332 1.390 . S
C1328 C1335 1.506 . S
C1329 C1330 1.398 . S
C1329 C1332 1.392 . S
C1330 C1329 1.398 . S
C1330 C1333 1.372 . S
C1330 H1340 0.931 . S
C1331 C1328 1.382 . S
C1331 C1333 1.390 . S
C1331 H1341 0.931 . S
C1332 C1328 1.390 . S
C1332 C1329 1.392 . S
C1332 H1342 0.930 . S
C1333 C1330 1.372 . S
C1333 C1331 1.390 . S
C1333 H1343 0.929 . S
C1334 O1314 1.255 . S
C1334 O1315 1.257 . S
C1335 Eu1271 2.787 . S
C1335 O1310 1.252 . S
C1335 O1313 1.268 . S
C1335 C1328 1.506 . S
H1336 C1319 0.931 . S
H1337 C1320 0.931 . S
H1338 C1321 0.929 . S
H1339 C1322 0.930 . S
H1340 C1330 0.931 . S
H1341 C1331 0.931 . S
H1342 C1332 0.930 . S
H1343 C1333 0.929 . S
Eu1344 N1373 2.600 . S
Eu1344 N1379 2.562 . S
Eu1344 O1388 2.462 . S
Eu1344 O1389 2.373 . S
Eu1344 O1391 2.432 . S
Eu1344 O1392 2.291 . S
Eu1344 O1396 2.335 . S
Eu1344 O1399 2.372 . S
Eu1344 C1408 2.787 . S
C1345 N1346 1.365 . S
C1345 C1348 1.405 . S
C1345 C1352 1.448 . S
N1346 C1345 1.365 . S
N1346 C1349 1.319 . S
N1346 Eu1355 2.600 . S
C1347 C1349 1.397 . S
C1347 C1350 1.367 . S
C1347 H1367 0.931 . S
C1348 C1345 1.405 . S
C1348 C1350 1.403 . S
C1348 C1354 1.439 . S
C1349 N1346 1.319 . S
C1349 C1347 1.397 . S
C1349 H1360 0.930 . S
C1350 C1347 1.367 . S
C1350 C1348 1.403 . S
C1350 H1371 0.929 . S
C1351 C1352 1.430 . S
C1351 C1353 1.387 . S
C1351 C1357 1.404 . S
C1352 C1345 1.448 . S
C1352 C1351 1.430 . S
C1352 N1356 1.351 . S
C1353 C1351 1.387 . S
C1353 C1354 1.374 . S
C1353 H1368 0.931 . S
C1354 C1348 1.439 . S
C1354 C1353 1.374 . S
C1354 H1369 0.931 . S
Eu1355 N1346 2.600 . S
Eu1355 N1356 2.562 . S
Eu1355 O1390 2.335 . S
Eu1355 O1393 2.372 . S
Eu1355 O1394 2.462 . S
Eu1355 O1395 2.373 . S
Eu1355 O1397 2.432 . S
Eu1355 O1398 2.291 . S
Eu1355 C1419 2.787 . S
N1356 C1352 1.351 . S
N1356 Eu1355 2.562 . S
N1356 C1358 1.325 . S
C1357 C1351 1.404 . S
C1357 C1359 1.366 . S
C1357 H1365 0.930 . S
C1358 N1356 1.325 . S
C1358 C1359 1.416 . S
C1358 H1364 0.929 . S
C1359 C1357 1.366 . S
C1359 C1358 1.416 . S
C1359 H1361 0.930 . S
H1360 C1349 0.930 . S
H1361 C1359 0.930 . S
H1362 C1377 0.930 . S
H1363 C1384 0.930 . S
H1364 C1358 0.929 . S
H1365 C1357 0.930 . S
H1366 C1380 0.929 . S
H1367 C1347 0.931 . S
H1368 C1353 0.931 . S
H1369 C1354 0.931 . S
H1370 C1375 0.931 . S
H1371 C1350 0.929 . S
H1372 C1383 0.930 . S
N1373 Eu1344 2.600 . S
N1373 C1374 1.365 . S
N1373 C1377 1.319 . S
C1374 N1373 1.365 . S
C1374 C1376 1.405 . S
C1374 C1382 1.448 . S
C1375 H1370 0.931 . S
C1375 C1377 1.397 . S
C1375 C1378 1.367 . S
C1376 C1374 1.405 . S
C1376 C1378 1.403 . S
C1376 C1409 1.439 . S
C1377 H1362 0.930 . S
C1377 N1373 1.319 . S
C1377 C1375 1.397 . S
C1378 C1375 1.367 . S
C1378 C1376 1.403 . S
C1378 H1385 0.929 . S
N1379 Eu1344 2.562 . S
N1379 C1380 1.325 . S
N1379 C1382 1.351 . S
C1380 H1366 0.929 . S
C1380 N1379 1.325 . S
C1380 C1384 1.416 . S
C1381 C1382 1.430 . S
C1381 C1383 1.404 . S
C1381 C1410 1.387 . S
C1382 C1374 1.448 . S
C1382 N1379 1.351 . S
C1382 C1381 1.430 . S
C1383 H1372 0.930 . S
C1383 C1381 1.404 . S
C1383 C1384 1.366 . S
C1384 H1363 0.930 . S
C1384 C1380 1.416 . S
C1384 C1383 1.366 . S
H1385 C1378 0.929 . S
H1386 C1409 0.931 . S
H1387 C1410 0.931 . S
O1388 Eu1344 2.462 . S
O1388 C1408 1.252 . S
O1389 Eu1344 2.373 . S
O1389 C1400 1.249 . S
O1390 Eu1355 2.335 . S
O1390 C1400 1.264 . S
O1391 Eu1344 2.432 . S
O1391 C1408 1.268 . S
O1392 Eu1344 2.291 . S
O1392 C1407 1.255 . S
O1393 Eu1355 2.372 . S
O1393 C1407 1.257 . S
O1394 Eu1355 2.462 . S
O1394 C1419 1.252 . S
O1395 Eu1355 2.373 . S
O1395 C1411 1.249 . S
O1396 Eu1344 2.335 . S
O1396 C1411 1.264 . S
O1397 Eu1355 2.432 . S
O1397 C1419 1.268 . S
O1398 Eu1355 2.291 . S
O1398 C1418 1.255 . S
O1399 Eu1344 2.372 . S
O1399 C1418 1.257 . S
C1400 O1389 1.249 . S
C1400 O1390 1.264 . S
C1401 C1404 1.382 . S
C1401 C1406 1.390 . S
C1401 C1408 1.506 . S
C1402 C1403 1.398 . S
C1402 C1406 1.392 . S
C1403 C1402 1.398 . S
C1403 C1405 1.372 . S
C1403 H1420 0.931 . S
C1404 C1401 1.382 . S
C1404 C1405 1.390 . S
C1404 H1421 0.931 . S
C1405 C1403 1.372 . S
C1405 C1404 1.390 . S
C1405 H1422 0.929 . S
C1406 C1401 1.390 . S
C1406 C1402 1.392 . S
C1406 H1423 0.930 . S
C1407 O1392 1.255 . S
C1407 O1393 1.257 . S
C1408 Eu1344 2.787 . S
C1408 O1388 1.252 . S
C1408 O1391 1.268 . S
C1408 C1401 1.506 . S
C1409 C1376 1.439 . S
C1409 H1386 0.931 . S
C1409 C1410 1.374 . S
C1410 C1381 1.387 . S
C1410 H1387 0.931 . S
C1410 C1409 1.374 . S
C1411 O1395 1.249 . S
C1411 O1396 1.264 . S
C1412 C1415 1.382 . S
C1412 C1416 1.390 . S
C1412 C1419 1.506 . S
C1413 C1414 1.398 . S
C1413 C1416 1.392 . S
C1414 C1413 1.398 . S
C1414 C1417 1.372 . S
C1414 H1424 0.931 . S
C1415 C1412 1.382 . S
C1415 C1417 1.390 . S
C1415 H1425 0.931 . S
C1416 C1412 1.390 . S
C1416 C1413 1.392 . S
C1416 H1426 0.930 . S
C1417 C1414 1.372 . S
C1417 C1415 1.390 . S
C1417 H1427 0.929 . S
C1418 O1398 1.255 . S
C1418 O1399 1.257 . S
C1419 Eu1355 2.787 . S
C1419 O1394 1.252 . S
C1419 O1397 1.268 . S
C1419 C1412 1.506 . S
H1420 C1403 0.931 . S
H1421 C1404 0.931 . S
H1422 C1405 0.929 . S
H1423 C1406 0.930 . S
H1424 C1414 0.931 . S
H1425 C1415 0.931 . S
H1426 C1416 0.930 . S
H1427 C1417 0.929 . S
Eu1428 N1457 2.600 . S
Eu1428 N1463 2.562 . S
Eu1428 O1472 2.462 . S
Eu1428 O1473 2.373 . S
Eu1428 O1475 2.432 . S
Eu1428 O1476 2.291 . S
Eu1428 O1480 2.335 . S
Eu1428 O1483 2.372 . S
Eu1428 C1492 2.787 . S
C1429 N1430 1.365 . S
C1429 C1432 1.405 . S
C1429 C1436 1.448 . S
N1430 C1429 1.365 . S
N1430 C1433 1.319 . S
N1430 Eu1439 2.600 . S
C1431 C1433 1.397 . S
C1431 C1434 1.367 . S
C1431 H1451 0.931 . S
C1432 C1429 1.405 . S
C1432 C1434 1.403 . S
C1432 C1438 1.439 . S
C1433 N1430 1.319 . S
C1433 C1431 1.397 . S
C1433 H1444 0.930 . S
C1434 C1431 1.367 . S
C1434 C1432 1.403 . S
C1434 H1455 0.929 . S
C1435 C1436 1.430 . S
C1435 C1437 1.387 . S
C1435 C1441 1.404 . S
C1436 C1429 1.448 . S
C1436 C1435 1.430 . S
C1436 N1440 1.351 . S
C1437 C1435 1.387 . S
C1437 C1438 1.374 . S
C1437 H1452 0.931 . S
C1438 C1432 1.439 . S
C1438 C1437 1.374 . S
C1438 H1453 0.931 . S
Eu1439 N1430 2.600 . S
Eu1439 N1440 2.562 . S
Eu1439 O1474 2.335 . S
Eu1439 O1477 2.372 . S
Eu1439 O1478 2.462 . S
Eu1439 O1479 2.373 . S
Eu1439 O1481 2.432 . S
Eu1439 O1482 2.291 . S
Eu1439 C1503 2.787 . S
N1440 C1436 1.351 . S
N1440 Eu1439 2.562 . S
N1440 C1442 1.325 . S
C1441 C1435 1.404 . S
C1441 C1443 1.366 . S
C1441 H1449 0.930 . S
C1442 N1440 1.325 . S
C1442 C1443 1.416 . S
C1442 H1448 0.929 . S
C1443 C1441 1.366 . S
C1443 C1442 1.416 . S
C1443 H1445 0.930 . S
H1444 C1433 0.930 . S
H1445 C1443 0.930 . S
H1446 C1461 0.930 . S
H1447 C1468 0.930 . S
H1448 C1442 0.929 . S
H1449 C1441 0.930 . S
H1450 C1464 0.929 . S
H1451 C1431 0.931 . S
H1452 C1437 0.931 . S
H1453 C1438 0.931 . S
H1454 C1459 0.931 . S
H1455 C1434 0.929 . S
H1456 C1467 0.930 . S
N1457 Eu1428 2.600 . S
N1457 C1458 1.365 . S
N1457 C1461 1.319 . S
C1458 N1457 1.365 . S
C1458 C1460 1.405 . S
C1458 C1466 1.448 . S
C1459 H1454 0.931 . S
C1459 C1461 1.397 . S
C1459 C1462 1.367 . S
C1460 C1458 1.405 . S
C1460 C1462 1.403 . S
C1460 C1493 1.439 . S
C1461 H1446 0.930 . S
C1461 N1457 1.319 . S
C1461 C1459 1.397 . S
C1462 C1459 1.367 . S
C1462 C1460 1.403 . S
C1462 H1469 0.929 . S
N1463 Eu1428 2.562 . S
N1463 C1464 1.325 . S
N1463 C1466 1.351 . S
C1464 H1450 0.929 . S
C1464 N1463 1.325 . S
C1464 C1468 1.416 . S
C1465 C1466 1.430 . S
C1465 C1467 1.404 . S
C1465 C1494 1.387 . S
C1466 C1458 1.448 . S
C1466 N1463 1.351 . S
C1466 C1465 1.430 . S
C1467 H1456 0.930 . S
C1467 C1465 1.404 . S
C1467 C1468 1.366 . S
C1468 H1447 0.930 . S
C1468 C1464 1.416 . S
C1468 C1467 1.366 . S
H1469 C1462 0.929 . S
H1470 C1493 0.931 . S
H1471 C1494 0.931 . S
O1472 Eu1428 2.462 . S
O1472 C1492 1.252 . S
O1473 Eu1428 2.373 . S
O1473 C1484 1.249 . S
O1474 Eu1439 2.335 . S
O1474 C1484 1.264 . S
O1475 Eu1428 2.432 . S
O1475 C1492 1.268 . S
O1476 Eu1428 2.291 . S
O1476 C1491 1.255 . S
O1477 Eu1439 2.372 . S
O1477 C1491 1.257 . S
O1478 Eu1439 2.462 . S
O1478 C1503 1.252 . S
O1479 Eu1439 2.373 . S
O1479 C1495 1.249 . S
O1480 Eu1428 2.335 . S
O1480 C1495 1.264 . S
O1481 Eu1439 2.432 . S
O1481 C1503 1.268 . S
O1482 Eu1439 2.291 . S
O1482 C1502 1.255 . S
O1483 Eu1428 2.372 . S
O1483 C1502 1.257 . S
C1484 O1473 1.249 . S
C1484 O1474 1.264 . S
C1485 C1488 1.382 . S
C1485 C1490 1.390 . S
C1485 C1492 1.506 . S
C1486 C1487 1.398 . S
C1486 C1490 1.392 . S
C1487 C1486 1.398 . S
C1487 C1489 1.372 . S
C1487 H1504 0.931 . S
C1488 C1485 1.382 . S
C1488 C1489 1.390 . S
C1488 H1505 0.931 . S
C1489 C1487 1.372 . S
C1489 C1488 1.390 . S
C1489 H1506 0.929 . S
C1490 C1485 1.390 . S
C1490 C1486 1.392 . S
C1490 H1507 0.930 . S
C1491 O1476 1.255 . S
C1491 O1477 1.257 . S
C1492 Eu1428 2.787 . S
C1492 O1472 1.252 . S
C1492 O1475 1.268 . S
C1492 C1485 1.506 . S
C1493 C1460 1.439 . S
C1493 H1470 0.931 . S
C1493 C1494 1.374 . S
C1494 C1465 1.387 . S
C1494 H1471 0.931 . S
C1494 C1493 1.374 . S
C1495 O1479 1.249 . S
C1495 O1480 1.264 . S
C1496 C1499 1.382 . S
C1496 C1500 1.390 . S
C1496 C1503 1.506 . S
C1497 C1498 1.398 . S
C1497 C1500 1.392 . S
C1498 C1497 1.398 . S
C1498 C1501 1.372 . S
C1498 H1508 0.931 . S
C1499 C1496 1.382 . S
C1499 C1501 1.390 . S
C1499 H1509 0.931 . S
C1500 C1496 1.390 . S
C1500 C1497 1.392 . S
C1500 H1510 0.930 . S
C1501 C1498 1.372 . S
C1501 C1499 1.390 . S
C1501 H1511 0.929 . S
C1502 O1482 1.255 . S
C1502 O1483 1.257 . S
C1503 Eu1439 2.787 . S
C1503 O1478 1.252 . S
C1503 O1481 1.268 . S
C1503 C1496 1.506 . S
H1504 C1487 0.931 . S
H1505 C1488 0.931 . S
H1506 C1489 0.929 . S
H1507 C1490 0.930 . S
H1508 C1498 0.931 . S
H1509 C1499 0.931 . S
H1510 C1500 0.930 . S
H1511 C1501 0.929 . S
Eu1512 N1541 2.600 . S
Eu1512 N1547 2.562 . S
Eu1512 O1556 2.462 . S
Eu1512 O1557 2.373 . S
Eu1512 O1559 2.432 . S
Eu1512 O1560 2.291 . S
Eu1512 O1564 2.335 . S
Eu1512 O1567 2.372 . S
Eu1512 C1576 2.787 . S
C1513 N1514 1.365 . S
C1513 C1516 1.405 . S
C1513 C1520 1.448 . S
N1514 C1513 1.365 . S
N1514 C1517 1.319 . S
N1514 Eu1523 2.600 . S
C1515 C1517 1.397 . S
C1515 C1518 1.367 . S
C1515 H1535 0.931 . S
C1516 C1513 1.405 . S
C1516 C1518 1.403 . S
C1516 C1522 1.439 . S
C1517 N1514 1.319 . S
C1517 C1515 1.397 . S
C1517 H1528 0.930 . S
C1518 C1515 1.367 . S
C1518 C1516 1.403 . S
C1518 H1539 0.929 . S
C1519 C1520 1.430 . S
C1519 C1521 1.387 . S
C1519 C1525 1.404 . S
C1520 C1513 1.448 . S
C1520 C1519 1.430 . S
C1520 N1524 1.351 . S
C1521 C1519 1.387 . S
C1521 C1522 1.374 . S
C1521 H1536 0.931 . S
C1522 C1516 1.439 . S
C1522 C1521 1.374 . S
C1522 H1537 0.931 . S
Eu1523 N1514 2.600 . S
Eu1523 N1524 2.562 . S
Eu1523 O1558 2.335 . S
Eu1523 O1561 2.372 . S
Eu1523 O1562 2.462 . S
Eu1523 O1563 2.373 . S
Eu1523 O1565 2.432 . S
Eu1523 O1566 2.291 . S
Eu1523 C1587 2.787 . S
N1524 C1520 1.351 . S
N1524 Eu1523 2.562 . S
N1524 C1526 1.325 . S
C1525 C1519 1.404 . S
C1525 C1527 1.366 . S
C1525 H1533 0.930 . S
C1526 N1524 1.325 . S
C1526 C1527 1.416 . S
C1526 H1532 0.929 . S
C1527 C1525 1.366 . S
C1527 C1526 1.416 . S
C1527 H1529 0.930 . S
H1528 C1517 0.930 . S
H1529 C1527 0.930 . S
H1530 C1545 0.930 . S
H1531 C1552 0.930 . S
H1532 C1526 0.929 . S
H1533 C1525 0.930 . S
H1534 C1548 0.929 . S
H1535 C1515 0.931 . S
H1536 C1521 0.931 . S
H1537 C1522 0.931 . S
H1538 C1543 0.931 . S
H1539 C1518 0.929 . S
H1540 C1551 0.930 . S
N1541 Eu1512 2.600 . S
N1541 C1542 1.365 . S
N1541 C1545 1.319 . S
C1542 N1541 1.365 . S
C1542 C1544 1.405 . S
C1542 C1550 1.448 . S
C1543 H1538 0.931 . S
C1543 C1545 1.397 . S
C1543 C1546 1.367 . S
C1544 C1542 1.405 . S
C1544 C1546 1.403 . S
C1544 C1577 1.439 . S
C1545 H1530 0.930 . S
C1545 N1541 1.319 . S
C1545 C1543 1.397 . S
C1546 C1543 1.367 . S
C1546 C1544 1.403 . S
C1546 H1553 0.929 . S
N1547 Eu1512 2.562 . S
N1547 C1548 1.325 . S
N1547 C1550 1.351 . S
C1548 H1534 0.929 . S
C1548 N1547 1.325 . S
C1548 C1552 1.416 . S
C1549 C1550 1.430 . S
C1549 C1551 1.404 . S
C1549 C1578 1.387 . S
C1550 C1542 1.448 . S
C1550 N1547 1.351 . S
C1550 C1549 1.430 . S
C1551 H1540 0.930 . S
C1551 C1549 1.404 . S
C1551 C1552 1.366 . S
C1552 H1531 0.930 . S
C1552 C1548 1.416 . S
C1552 C1551 1.366 . S
H1553 C1546 0.929 . S
H1554 C1577 0.931 . S
H1555 C1578 0.931 . S
O1556 Eu1512 2.462 . S
O1556 C1576 1.252 . S
O1557 Eu1512 2.373 . S
O1557 C1568 1.249 . S
O1558 Eu1523 2.335 . S
O1558 C1568 1.264 . S
O1559 Eu1512 2.432 . S
O1559 C1576 1.268 . S
O1560 Eu1512 2.291 . S
O1560 C1575 1.255 . S
O1561 Eu1523 2.372 . S
O1561 C1575 1.257 . S
O1562 Eu1523 2.462 . S
O1562 C1587 1.252 . S
O1563 Eu1523 2.373 . S
O1563 C1579 1.249 . S
O1564 Eu1512 2.335 . S
O1564 C1579 1.264 . S
O1565 Eu1523 2.432 . S
O1565 C1587 1.268 . S
O1566 Eu1523 2.291 . S
O1566 C1586 1.255 . S
O1567 Eu1512 2.372 . S
O1567 C1586 1.257 . S
C1568 O1557 1.249 . S
C1568 O1558 1.264 . S
C1569 C1572 1.382 . S
C1569 C1574 1.390 . S
C1569 C1576 1.506 . S
C1570 C1571 1.398 . S
C1570 C1574 1.392 . S
C1571 C1570 1.398 . S
C1571 C1573 1.372 . S
C1571 H1588 0.931 . S
C1572 C1569 1.382 . S
C1572 C1573 1.390 . S
C1572 H1589 0.931 . S
C1573 C1571 1.372 . S
C1573 C1572 1.390 . S
C1573 H1590 0.929 . S
C1574 C1569 1.390 . S
C1574 C1570 1.392 . S
C1574 H1591 0.930 . S
C1575 O1560 1.255 . S
C1575 O1561 1.257 . S
C1576 Eu1512 2.787 . S
C1576 O1556 1.252 . S
C1576 O1559 1.268 . S
C1576 C1569 1.506 . S
C1577 C1544 1.439 . S
C1577 H1554 0.931 . S
C1577 C1578 1.374 . S
C1578 C1549 1.387 . S
C1578 H1555 0.931 . S
C1578 C1577 1.374 . S
C1579 O1563 1.249 . S
C1579 O1564 1.264 . S
C1580 C1583 1.382 . S
C1580 C1584 1.390 . S
C1580 C1587 1.506 . S
C1581 C1582 1.398 . S
C1581 C1584 1.392 . S
C1582 C1581 1.398 . S
C1582 C1585 1.372 . S
C1582 H1592 0.931 . S
C1583 C1580 1.382 . S
C1583 C1585 1.390 . S
C1583 H1593 0.931 . S
C1584 C1580 1.390 . S
C1584 C1581 1.392 . S
C1584 H1594 0.930 . S
C1585 C1582 1.372 . S
C1585 C1583 1.390 . S
C1585 H1595 0.929 . S
C1586 O1566 1.255 . S
C1586 O1567 1.257 . S
C1587 Eu1523 2.787 . S
C1587 O1562 1.252 . S
C1587 O1565 1.268 . S
C1587 C1580 1.506 . S
H1588 C1571 0.931 . S
H1589 C1572 0.931 . S
H1590 C1573 0.929 . S
H1591 C1574 0.930 . S
H1592 C1582 0.931 . S
H1593 C1583 0.931 . S
H1594 C1584 0.930 . S
H1595 C1585 0.929 . S
Eu1596 N1625 2.600 1_455 S
Eu1596 N1631 2.562 1_455 S
Eu1596 O1640 2.462 1_455 S
Eu1596 O1641 2.373 . S
Eu1596 O1643 2.432 1_455 S
Eu1596 O1644 2.291 . S
Eu1596 O1648 2.335 . S
Eu1596 O1651 2.372 . S
Eu1596 C1660 2.787 1_455 S
C1597 N1598 1.365 . S
C1597 C1600 1.405 . S
C1597 C1604 1.448 1_556 S
N1598 C1597 1.365 . S
N1598 C1601 1.319 . S
N1598 Eu1607 2.600 1_556 S
C1599 C1601 1.397 . S
C1599 C1602 1.367 . S
C1599 H1619 0.931 . S
C1600 C1597 1.405 . S
C1600 C1602 1.403 . S
C1600 C1606 1.439 . S
C1601 N1598 1.319 . S
C1601 C1599 1.397 . S
C1601 H1612 0.930 . S
C1602 C1599 1.367 . S
C1602 C1600 1.403 . S
C1602 H1623 0.929 . S
C1603 C1604 1.430 . S
C1603 C1605 1.387 . S
C1603 C1609 1.404 . S
C1604 C1597 1.448 1_554 S
C1604 C1603 1.430 . S
C1604 N1608 1.351 . S
C1605 C1603 1.387 . S
C1605 C1606 1.374 1_554 S
C1605 H1620 0.931 . S
C1606 C1600 1.439 . S
C1606 C1605 1.374 1_556 S
C1606 H1621 0.931 . S
Eu1607 N1598 2.600 1_554 S
Eu1607 N1608 2.562 . S
Eu1607 O1642 2.335 . S
Eu1607 O1645 2.372 1_554 S
Eu1607 O1646 2.462 . S
Eu1607 O1647 2.373 . S
Eu1607 O1649 2.432 1_554 S
Eu1607 O1650 2.291 . S
Eu1607 C1671 2.787 . S
N1608 C1604 1.351 . S
N1608 Eu1607 2.562 . S
N1608 C1610 1.325 . S
C1609 C1603 1.404 . S
C1609 C1611 1.366 . S
C1609 H1617 0.930 . S
C1610 N1608 1.325 . S
C1610 C1611 1.416 . S
C1610 H1616 0.929 . S
C1611 C1609 1.366 . S
C1611 C1610 1.416 . S
C1611 H1613 0.930 . S
H1612 C1601 0.930 . S
H1613 C1611 0.930 . S
H1614 C1629 0.930 1_455 S
H1615 C1636 0.930 1_556 S
H1616 C1610 0.929 . S
H1617 C1609 0.930 . S
H1618 C1632 0.929 . S
H1619 C1599 0.931 . S
H1620 C1605 0.931 . S
H1621 C1606 0.931 . S
H1622 C1627 0.931 1_455 S
H1623 C1602 0.929 . S
H1624 C1635 0.930 . S
N1625 Eu1596 2.600 1_655 S
N1625 C1626 1.365 . S
N1625 C1629 1.319 . S
C1626 N1625 1.365 . S
C1626 C1628 1.405 . S
C1626 C1634 1.448 . S
C1627 H1622 0.931 1_655 S
C1627 C1629 1.397 . S
C1627 C1630 1.367 . S
C1628 C1626 1.405 . S
C1628 C1630 1.403 . S
C1628 C1661 1.439 . S
C1629 H1614 0.930 1_655 S
C1629 N1625 1.319 . S
C1629 C1627 1.397 . S
C1630 C1627 1.367 . S
C1630 C1628 1.403 . S
C1630 H1637 0.929 . S
N1631 Eu1596 2.562 1_655 S
N1631 C1632 1.325 . S
N1631 C1634 1.351 . S
C1632 H1618 0.929 . S
C1632 N1631 1.325 . S
C1632 C1636 1.416 . S
C1633 C1634 1.430 . S
C1633 C1635 1.404 . S
C1633 C1662 1.387 . S
C1634 C1626 1.448 . S
C1634 N1631 1.351 . S
C1634 C1633 1.430 . S
C1635 H1624 0.930 . S
C1635 C1633 1.404 . S
C1635 C1636 1.366 . S
C1636 H1615 0.930 1_554 S
C1636 C1632 1.416 . S
C1636 C1635 1.366 . S
H1637 C1630 0.929 . S
H1638 C1661 0.931 . S
H1639 C1662 0.931 . S
O1640 Eu1596 2.462 1_655 S
O1640 C1660 1.252 . S
O1641 Eu1596 2.373 . S
O1641 C1652 1.249 . S
O1642 Eu1607 2.335 . S
O1642 C1652 1.264 . S
O1643 Eu1596 2.432 1_655 S
O1643 C1660 1.268 . S
O1644 Eu1596 2.291 . S
O1644 C1659 1.255 1_554 S
O1645 Eu1607 2.372 1_556 S
O1645 C1659 1.257 . S
O1646 Eu1607 2.462 . S
O1646 C1671 1.252 . S
O1647 Eu1607 2.373 . S
O1647 C1663 1.249 . S
O1648 Eu1596 2.335 . S
O1648 C1663 1.264 . S
O1649 Eu1607 2.432 1_556 S
O1649 C1671 1.268 1_556 S
O1650 Eu1607 2.291 . S
O1650 C1670 1.255 . S
O1651 Eu1596 2.372 . S
O1651 C1670 1.257 . S
C1652 O1641 1.249 . S
C1652 O1642 1.264 . S
C1653 C1656 1.382 . S
C1653 C1658 1.390 . S
C1653 C1660 1.506 . S
C1654 C1655 1.398 . S
C1654 C1658 1.392 . S
C1655 C1654 1.398 . S
C1655 C1657 1.372 . S
C1655 H1672 0.931 . S
C1656 C1653 1.382 . S
C1656 C1657 1.390 . S
C1656 H1673 0.931 . S
C1657 C1655 1.372 . S
C1657 C1656 1.390 . S
C1657 H1674 0.929 . S
C1658 C1653 1.390 . S
C1658 C1654 1.392 . S
C1658 H1675 0.930 . S
C1659 O1644 1.255 1_556 S
C1659 O1645 1.257 . S
C1660 Eu1596 2.787 1_655 S
C1660 O1640 1.252 . S
C1660 O1643 1.268 . S
C1660 C1653 1.506 . S
C1661 C1628 1.439 . S
C1661 H1638 0.931 . S
C1661 C1662 1.374 . S
C1662 C1633 1.387 . S
C1662 H1639 0.931 . S
C1662 C1661 1.374 . S
C1663 O1647 1.249 . S
C1663 O1648 1.264 . S
C1664 C1667 1.364 1_554 S
C1664 C1668 1.404 . S
C1664 C1671 1.510 . S
C1665 C1666 1.398 1_554 S
C1665 C1668 1.392 . S
C1666 C1665 1.398 1_556 S
C1666 C1669 1.372 . S
C1666 H1676 0.931 . S
C1667 C1664 1.364 1_556 S
C1667 C1669 1.390 . S
C1667 H1677 0.931 . S
C1668 C1664 1.404 . S
C1668 C1665 1.392 . S
C1668 H1678 0.930 . S
C1669 C1666 1.372 . S
C1669 C1667 1.390 . S
C1669 H1679 0.929 . S
C1670 O1650 1.255 . S
C1670 O1651 1.257 . S
C1671 Eu1607 2.787 . S
C1671 O1646 1.252 . S
C1671 O1649 1.268 1_554 S
C1671 C1664 1.510 . S
H1672 C1655 0.931 . S
H1673 C1656 0.931 . S
H1674 C1657 0.929 . S
H1675 C1658 0.930 . S
H1676 C1666 0.931 . S
H1677 C1667 0.931 . S
H1678 C1668 0.930 . S
H1679 C1669 0.929 . S
C1680 C1681 1.391 . S
C1680 C1682 1.394 . S
C1680 H1696 0.931 . S
C1681 C1680 1.391 . S
C1681 C1685 1.376 1_556 S
C1682 C1680 1.394 . S
C1682 C1683 1.369 . S
C1682 C1686 1.531 . S
C1683 C1682 1.369 . S
C1683 C1684 1.410 1_556 S
C1683 C1691 1.503 1_556 S
C1684 C1683 1.410 1_554 S
C1684 C1685 1.392 . S
C1684 C1687 1.511 . S
C1685 C1681 1.376 1_554 S
C1685 C1684 1.392 . S
C1685 H1697 0.929 . S
C1686 C1682 1.531 . S
C1686 H1698 0.960 . S
C1686 H1699 0.962 . S
C1686 H1700 0.960 . S
C1687 C1684 1.511 . S
C1687 H1701 0.961 . S
C1687 H1702 0.961 . S
C1687 H1703 0.961 . S
C1688 C1689 1.370 . S
C1688 C1690 1.363 . S
C1688 H1704 0.931 1_455 S
C1689 C1688 1.370 . S
C1689 C1693 1.408 . S
C1690 C1688 1.363 . S
C1690 C1691 1.370 . S
C1690 C1694 1.524 1_454 S
C1691 C1683 1.503 1_554 S
C1691 C1690 1.370 . S
C1691 C1692 1.403 . S
C1692 C1691 1.403 . S
C1692 C1693 1.404 . S
C1692 C1695 1.539 . S
C1693 C1689 1.408 . S
C1693 C1692 1.404 . S
C1693 H1705 0.930 . S
C1694 C1690 1.524 1_656 S
C1694 H1706 0.956 . S
C1694 H1707 0.961 1_556 S
C1694 H1708 0.961 1_556 S
C1695 C1692 1.539 . S
C1695 H1709 0.958 1_554 S
C1695 H1710 0.961 . S
C1695 H1711 0.960 . S
H1696 C1680 0.931 . S
H1697 C1685 0.929 . S
H1698 C1686 0.960 . S
H1699 C1686 0.962 . S
H1700 C1686 0.960 . S
H1701 C1687 0.961 . S
H1702 C1687 0.961 . S
H1703 C1687 0.961 . S
H1704 C1688 0.931 1_655 S
H1705 C1693 0.930 . S
H1706 C1694 0.956 . S
H1707 C1694 0.961 1_554 S
H1708 C1694 0.961 1_554 S
H1709 C1695 0.958 1_556 S
H1710 C1695 0.961 . S
H1711 C1695 0.960 . S
C1712 C1713 1.391 . S
C1712 C1714 1.394 . S
C1712 H1728 0.931 . S
C1713 C1712 1.391 . S
C1713 C1717 1.376 . S
C1714 C1712 1.394 . S
C1714 C1715 1.369 . S
C1714 C1718 1.531 . S
C1715 C1714 1.369 . S
C1715 C1716 1.410 . S
C1715 C1723 1.503 . S
C1716 C1715 1.410 . S
C1716 C1717 1.392 . S
C1716 C1719 1.511 . S
C1717 C1713 1.376 . S
C1717 C1716 1.392 . S
C1717 H1729 0.929 . S
C1718 C1714 1.531 . S
C1718 H1730 0.960 . S
C1718 H1731 0.962 . S
C1718 H1732 0.960 . S
C1719 C1716 1.511 . S
C1719 H1733 0.961 . S
C1719 H1734 0.961 . S
C1719 H1735 0.961 . S
C1720 C1721 1.370 . S
C1720 C1722 1.363 . S
C1720 H1736 0.931 . S
C1721 C1720 1.370 . S
C1721 C1725 1.408 . S
C1722 C1720 1.363 . S
C1722 C1723 1.370 . S
C1722 C1726 1.524 . S
C1723 C1715 1.503 . S
C1723 C1722 1.370 . S
C1723 C1724 1.403 . S
C1724 C1723 1.403 . S
C1724 C1725 1.404 . S
C1724 C1727 1.539 . S
C1725 C1721 1.408 . S
C1725 C1724 1.404 . S
C1725 H1737 0.930 . S
C1726 C1722 1.524 . S
C1726 H1738 0.956 . S
C1726 H1739 0.961 . S
C1726 H1740 0.961 . S
C1727 C1724 1.539 . S
C1727 H1741 0.958 . S
C1727 H1742 0.961 . S
C1727 H1743 0.960 . S
H1728 C1712 0.931 . S
H1729 C1717 0.929 . S
H1730 C1718 0.960 . S
H1731 C1718 0.962 . S
H1732 C1718 0.960 . S
H1733 C1719 0.961 . S
H1734 C1719 0.961 . S
H1735 C1719 0.961 . S
H1736 C1720 0.931 . S
H1737 C1725 0.930 . S
H1738 C1726 0.956 . S
H1739 C1726 0.961 . S
H1740 C1726 0.961 . S
H1741 C1727 0.958 . S
H1742 C1727 0.961 . S
H1743 C1727 0.960 . S
C1744 C1745 1.391 . S
C1744 C1746 1.394 . S
C1744 H1760 0.931 . S
C1745 C1744 1.391 . S
C1745 C1749 1.376 . S
C1746 C1744 1.394 . S
C1746 C1747 1.369 . S
C1746 C1750 1.531 . S
C1747 C1746 1.369 . S
C1747 C1748 1.410 . S
C1747 C1755 1.503 . S
C1748 C1747 1.410 . S
C1748 C1749 1.392 . S
C1748 C1751 1.511 . S
C1749 C1745 1.376 . S
C1749 C1748 1.392 . S
C1749 H1761 0.929 . S
C1750 C1746 1.531 . S
C1750 H1762 0.960 . S
C1750 H1763 0.962 . S
C1750 H1764 0.960 . S
C1751 C1748 1.511 . S
C1751 H1765 0.961 . S
C1751 H1766 0.961 . S
C1751 H1767 0.961 . S
C1752 C1753 1.370 . S
C1752 C1754 1.363 . S
C1752 H1768 0.931 . S
C1753 C1752 1.370 . S
C1753 C1757 1.408 . S
C1754 C1752 1.363 . S
C1754 C1755 1.370 . S
C1754 C1758 1.524 . S
C1755 C1747 1.503 . S
C1755 C1754 1.370 . S
C1755 C1756 1.403 . S
C1756 C1755 1.403 . S
C1756 C1757 1.404 . S
C1756 C1759 1.539 . S
C1757 C1753 1.408 . S
C1757 C1756 1.404 . S
C1757 H1769 0.930 . S
C1758 C1754 1.524 . S
C1758 H1770 0.956 . S
C1758 H1771 0.961 . S
C1758 H1772 0.961 . S
C1759 C1756 1.539 . S
C1759 H1773 0.958 . S
C1759 H1774 0.961 . S
C1759 H1775 0.960 . S
H1760 C1744 0.931 . S
H1761 C1749 0.929 . S
H1762 C1750 0.960 . S
H1763 C1750 0.962 . S
H1764 C1750 0.960 . S
H1765 C1751 0.961 . S
H1766 C1751 0.961 . S
H1767 C1751 0.961 . S
H1768 C1752 0.931 . S
H1769 C1757 0.930 . S
H1770 C1758 0.956 . S
H1771 C1758 0.961 . S
H1772 C1758 0.961 . S
H1773 C1759 0.958 . S
H1774 C1759 0.961 . S
H1775 C1759 0.960 . S
C1776 C1777 1.391 . S
C1776 C1778 1.394 . S
C1776 H1792 0.931 . S
C1777 C1776 1.391 . S
C1777 C1781 1.376 . S
C1778 C1776 1.394 . S
C1778 C1779 1.369 . S
C1778 C1782 1.531 . S
C1779 C1778 1.369 . S
C1779 C1780 1.410 . S
C1779 C1787 1.503 . S
C1780 C1779 1.410 . S
C1780 C1781 1.392 . S
C1780 C1783 1.511 . S
C1781 C1777 1.376 . S
C1781 C1780 1.392 . S
C1781 H1793 0.929 . S
C1782 C1778 1.531 . S
C1782 H1794 0.960 . S
C1782 H1795 0.962 . S
C1782 H1796 0.960 . S
C1783 C1780 1.511 . S
C1783 H1797 0.961 . S
C1783 H1798 0.961 . S
C1783 H1799 0.961 . S
C1784 C1785 1.370 . S
C1784 C1786 1.363 . S
C1784 H1800 0.931 . S
C1785 C1784 1.370 . S
C1785 C1789 1.408 . S
C1786 C1784 1.363 . S
C1786 C1787 1.370 . S
C1786 C1790 1.524 . S
C1787 C1779 1.503 . S
C1787 C1786 1.370 . S
C1787 C1788 1.403 . S
C1788 C1787 1.403 . S
C1788 C1789 1.404 . S
C1788 C1791 1.539 . S
C1789 C1785 1.408 . S
C1789 C1788 1.404 . S
C1789 H1801 0.930 . S
C1790 C1786 1.524 . S
C1790 H1802 0.956 . S
C1790 H1803 0.961 . S
C1790 H1804 0.961 . S
C1791 C1788 1.539 . S
C1791 H1805 0.958 . S
C1791 H1806 0.961 . S
C1791 H1807 0.960 . S
H1792 C1776 0.931 . S
H1793 C1781 0.929 . S
H1794 C1782 0.960 . S
H1795 C1782 0.962 . S
H1796 C1782 0.960 . S
H1797 C1783 0.961 . S
H1798 C1783 0.961 . S
H1799 C1783 0.961 . S
H1800 C1784 0.931 . S
H1801 C1789 0.930 . S
H1802 C1790 0.956 . S
H1803 C1790 0.961 . S
H1804 C1790 0.961 . S
H1805 C1791 0.958 . S
H1806 C1791 0.961 . S
H1807 C1791 0.960 . S
C1808 C1809 1.391 . S
C1808 C1810 1.394 . S
C1808 H1824 0.931 . S
C1809 C1808 1.391 . S
C1809 C1813 1.376 . S
C1810 C1808 1.394 . S
C1810 C1811 1.369 . S
C1810 C1814 1.531 . S
C1811 C1810 1.369 . S
C1811 C1812 1.410 . S
C1811 C1819 1.503 . S
C1812 C1811 1.410 . S
C1812 C1813 1.392 . S
C1812 C1815 1.511 . S
C1813 C1809 1.376 . S
C1813 C1812 1.392 . S
C1813 H1825 0.929 . S
C1814 C1810 1.531 . S
C1814 H1826 0.960 . S
C1814 H1827 0.962 1_455 S
C1814 H1828 0.960 . S
C1815 C1812 1.511 . S
C1815 H1829 0.961 . S
C1815 H1830 0.961 . S
C1815 H1831 0.961 . S
C1816 C1817 1.370 . S
C1816 C1818 1.363 . S
C1816 H1832 0.931 . S
C1817 C1816 1.370 . S
C1817 C1821 1.408 . S
C1818 C1816 1.363 . S
C1818 C1819 1.370 . S
C1818 C1822 1.524 1_455 S
C1819 C1811 1.503 . S
C1819 C1818 1.370 . S
C1819 C1820 1.403 . S
C1820 C1819 1.403 . S
C1820 C1821 1.404 . S
C1820 C1823 1.539 . S
C1821 C1817 1.408 . S
C1821 C1820 1.404 . S
C1821 H1833 0.930 . S
C1822 C1818 1.524 1_655 S
C1822 H1834 0.956 . S
C1822 H1835 0.961 1_655 S
C1822 H1836 0.961 . S
C1823 C1820 1.539 . S
C1823 H1837 0.958 . S
C1823 H1838 0.961 . S
C1823 H1839 0.960 . S
H1824 C1808 0.931 . S
H1825 C1813 0.929 . S
H1826 C1814 0.960 . S
H1827 C1814 0.962 1_655 S
H1828 C1814 0.960 . S
H1829 C1815 0.961 . S
H1830 C1815 0.961 . S
H1831 C1815 0.961 . S
H1832 C1816 0.931 . S
H1833 C1821 0.930 . S
H1834 C1822 0.956 . S
H1835 C1822 0.961 1_455 S
H1836 C1822 0.961 . S
H1837 C1823 0.958 . S
H1838 C1823 0.961 . S
H1839 C1823 0.960 . S
C1840 C1841 1.391 . S
C1840 C1842 1.394 . S
C1840 H1856 0.931 . S
C1841 C1840 1.391 . S
C1841 C1845 1.376 . S
C1842 C1840 1.394 . S
C1842 C1843 1.369 . S
C1842 C1846 1.531 . S
C1843 C1842 1.369 . S
C1843 C1844 1.410 . S
C1843 C1851 1.503 . S
C1844 C1843 1.410 . S
C1844 C1845 1.392 . S
C1844 C1847 1.511 . S
C1845 C1841 1.376 . S
C1845 C1844 1.392 . S
C1845 H1857 0.929 . S
C1846 C1842 1.531 . S
C1846 H1858 0.960 . S
C1846 H1859 0.962 . S
C1846 H1860 0.960 . S
C1847 C1844 1.511 . S
C1847 H1861 0.961 . S
C1847 H1862 0.961 . S
C1847 H1863 0.961 . S
C1848 C1849 1.370 . S
C1848 C1850 1.363 . S
C1848 H1864 0.931 . S
C1849 C1848 1.370 . S
C1849 C1853 1.408 . S
C1850 C1848 1.363 . S
C1850 C1851 1.370 . S
C1850 C1854 1.524 . S
C1851 C1843 1.503 . S
C1851 C1850 1.370 . S
C1851 C1852 1.403 . S
C1852 C1851 1.403 . S
C1852 C1853 1.404 . S
C1852 C1855 1.539 . S
C1853 C1849 1.408 . S
C1853 C1852 1.404 . S
C1853 H1865 0.930 . S
C1854 C1850 1.524 . S
C1854 H1866 0.956 . S
C1854 H1867 0.961 . S
C1854 H1868 0.961 . S
C1855 C1852 1.539 . S
C1855 H1869 0.958 . S
C1855 H1870 0.961 . S
C1855 H1871 0.960 . S
H1856 C1840 0.931 . S
H1857 C1845 0.929 . S
H1858 C1846 0.960 . S
H1859 C1846 0.962 . S
H1860 C1846 0.960 . S
H1861 C1847 0.961 . S
H1862 C1847 0.961 . S
H1863 C1847 0.961 . S
H1864 C1848 0.931 . S
H1865 C1853 0.930 . S
H1866 C1854 0.956 . S
H1867 C1854 0.961 . S
H1868 C1854 0.961 . S
H1869 C1855 0.958 . S
H1870 C1855 0.961 . S
H1871 C1855 0.960 . S
C1872 C1873 1.391 . S
C1872 C1874 1.394 . S
C1872 H1888 0.931 . S
C1873 C1872 1.391 . S
C1873 C1877 1.376 . S
C1874 C1872 1.394 . S
C1874 C1875 1.369 . S
C1874 C1878 1.531 . S
C1875 C1874 1.369 . S
C1875 C1876 1.410 . S
C1875 C1883 1.503 . S
C1876 C1875 1.410 . S
C1876 C1877 1.392 . S
C1876 C1879 1.511 . S
C1877 C1873 1.376 . S
C1877 C1876 1.392 . S
C1877 H1889 0.929 . S
C1878 C1874 1.531 . S
C1878 H1890 0.960 . S
C1878 H1891 0.962 . S
C1878 H1892 0.960 . S
C1879 C1876 1.511 . S
C1879 H1893 0.961 . S
C1879 H1894 0.961 . S
C1879 H1895 0.961 . S
C1880 C1881 1.370 . S
C1880 C1882 1.363 . S
C1880 H1896 0.931 . S
C1881 C1880 1.370 . S
C1881 C1885 1.408 . S
C1882 C1880 1.363 . S
C1882 C1883 1.370 . S
C1882 C1886 1.524 . S
C1883 C1875 1.503 . S
C1883 C1882 1.370 . S
C1883 C1884 1.403 . S
C1884 C1883 1.403 . S
C1884 C1885 1.404 . S
C1884 C1887 1.539 . S
C1885 C1881 1.408 . S
C1885 C1884 1.404 . S
C1885 H1897 0.930 . S
C1886 C1882 1.524 . S
C1886 H1898 0.956 . S
C1886 H1899 0.961 . S
C1886 H1900 0.961 . S
C1887 C1884 1.539 . S
C1887 H1901 0.958 . S
C1887 H1902 0.961 . S
C1887 H1903 0.960 . S
H1888 C1872 0.931 . S
H1889 C1877 0.929 . S
H1890 C1878 0.960 . S
H1891 C1878 0.962 . S
H1892 C1878 0.960 . S
H1893 C1879 0.961 . S
H1894 C1879 0.961 . S
H1895 C1879 0.961 . S
H1896 C1880 0.931 . S
H1897 C1885 0.930 . S
H1898 C1886 0.956 . S
H1899 C1886 0.961 . S
H1900 C1886 0.961 . S
H1901 C1887 0.958 . S
H1902 C1887 0.961 . S
H1903 C1887 0.960 . S
C1904 C1905 1.391 . S
C1904 C1906 1.394 . S
C1904 H1920 0.931 . S
C1905 C1904 1.391 . S
C1905 C1909 1.376 . S
C1906 C1904 1.394 . S
C1906 C1907 1.369 . S
C1906 C1910 1.531 . S
C1907 C1906 1.369 . S
C1907 C1908 1.410 . S
C1907 C1915 1.503 . S
C1908 C1907 1.410 . S
C1908 C1909 1.392 . S
C1908 C1911 1.511 . S
C1909 C1905 1.376 . S
C1909 C1908 1.392 . S
C1909 H1921 0.929 . S
C1910 C1906 1.531 . S
C1910 H1922 0.960 . S
C1910 H1923 0.962 . S
C1910 H1924 0.960 . S
C1911 C1908 1.511 . S
C1911 H1925 0.961 . S
C1911 H1926 0.961 . S
C1911 H1927 0.961 . S
C1912 C1913 1.370 . S
C1912 C1914 1.363 . S
C1912 H1928 0.931 . S
C1913 C1912 1.370 . S
C1913 C1917 1.408 . S
C1914 C1912 1.363 . S
C1914 C1915 1.370 . S
C1914 C1918 1.524 . S
C1915 C1907 1.503 . S
C1915 C1914 1.370 . S
C1915 C1916 1.403 . S
C1916 C1915 1.403 . S
C1916 C1917 1.404 . S
C1916 C1919 1.539 . S
C1917 C1913 1.408 . S
C1917 C1916 1.404 . S
C1917 H1929 0.930 . S
C1918 C1914 1.524 . S
C1918 H1930 0.956 . S
C1918 H1931 0.961 . S
C1918 H1932 0.961 . S
C1919 C1916 1.539 . S
C1919 H1933 0.958 . S
C1919 H1934 0.961 . S
C1919 H1935 0.960 . S
H1920 C1904 0.931 . S
H1921 C1909 0.929 . S
H1922 C1910 0.960 . S
H1923 C1910 0.962 . S
H1924 C1910 0.960 . S
H1925 C1911 0.961 . S
H1926 C1911 0.961 . S
H1927 C1911 0.961 . S
H1928 C1912 0.931 . S
H1929 C1917 0.930 . S
H1930 C1918 0.956 . S
H1931 C1918 0.961 . S
H1932 C1918 0.961 . S
H1933 C1919 0.958 . S
H1934 C1919 0.961 . S
H1935 C1919 0.960 . S
C1936 C1937 1.391 . S
C1936 C1938 1.394 . S
C1936 H1952 0.931 1_545 S
C1937 C1936 1.391 . S
C1937 C1941 1.376 . S
C1938 C1936 1.394 . S
C1938 C1939 1.369 . S
C1938 C1942 1.531 1_545 S
C1939 C1938 1.369 . S
C1939 C1940 1.410 . S
C1939 C1947 1.503 . S
C1940 C1939 1.410 . S
C1940 C1941 1.392 . S
C1940 C1943 1.511 . S
C1941 C1937 1.376 . S
C1941 C1940 1.392 . S
C1941 H1953 0.929 . S
C1942 C1938 1.531 1_565 S
C1942 H1954 0.960 . S
C1942 H1955 0.962 1_665 S
C1942 H1956 0.960 . S
C1943 C1940 1.511 . S
C1943 H1957 0.961 . S
C1943 H1958 0.961 . S
C1943 H1959 0.961 . S
C1944 C1945 1.370 . S
C1944 C1946 1.392 . S
C1944 H1960 0.931 . S
C1945 C1944 1.370 . S
C1945 C1949 1.408 1_455 S
C1946 C1944 1.392 . S
C1946 C1947 1.340 1_455 S
C1946 C1950 1.529 . S
C1947 C1939 1.503 . S
C1947 C1946 1.340 1_655 S
C1947 C1948 1.403 . S
C1948 C1947 1.403 . S
C1948 C1949 1.404 . S
C1948 C1951 1.539 1_545 S
C1949 C1945 1.408 1_655 S
C1949 C1948 1.404 . S
C1949 H1961 0.930 . S
C1950 C1946 1.529 . S
C1950 H1962 0.956 . S
C1950 H1963 0.961 1_455 S
C1950 H1964 0.961 . S
C1951 C1948 1.539 1_565 S
C1951 H1965 0.958 . S
C1951 H1966 0.961 . S
C1951 H1967 0.960 . S
H1952 C1936 0.931 1_565 S
H1953 C1941 0.929 . S
H1954 C1942 0.960 . S
H1955 C1942 0.962 1_445 S
H1956 C1942 0.960 . S
H1957 C1943 0.961 . S
H1958 C1943 0.961 . S
H1959 C1943 0.961 . S
H1960 C1944 0.931 . S
H1961 C1949 0.930 . S
H1962 C1950 0.956 . S
H1963 C1950 0.961 1_655 S
H1964 C1950 0.961 . S
H1965 C1951 0.958 . S
H1966 C1951 0.961 . S
H1967 C1951 0.960 . S
C1968 C1969 1.391 . S
C1968 C1970 1.394 . S
C1968 H1984 0.931 . S
C1969 C1968 1.391 . S
C1969 C1973 1.376 . S
C1970 C1968 1.394 . S
C1970 C1971 1.369 . S
C1970 C1974 1.531 . S
C1971 C1970 1.369 . S
C1971 C1972 1.410 . S
C1971 C1979 1.503 . S
C1972 C1971 1.410 . S
C1972 C1973 1.392 . S
C1972 C1975 1.511 . S
C1973 C1969 1.376 . S
C1973 C1972 1.392 . S
C1973 H1985 0.929 . S
C1974 C1970 1.531 . S
C1974 H1986 0.960 . S
C1974 H1987 0.962 . S
C1974 H1988 0.960 . S
C1975 C1972 1.511 . S
C1975 H1989 0.961 . S
C1975 H1990 0.961 . S
C1975 H1991 0.961 . S
C1976 C1977 1.370 . S
C1976 C1978 1.363 . S
C1976 H1992 0.931 . S
C1977 C1976 1.370 . S
C1977 C1981 1.408 . S
C1978 C1976 1.363 . S
C1978 C1979 1.370 . S
C1978 C1982 1.524 . S
C1979 C1971 1.503 . S
C1979 C1978 1.370 . S
C1979 C1980 1.403 . S
C1980 C1979 1.403 . S
C1980 C1981 1.404 . S
C1980 C1983 1.539 . S
C1981 C1977 1.408 . S
C1981 C1980 1.404 . S
C1981 H1993 0.930 . S
C1982 C1978 1.524 . S
C1982 H1994 0.956 . S
C1982 H1995 0.961 . S
C1982 H1996 0.961 . S
C1983 C1980 1.539 . S
C1983 H1997 0.958 . S
C1983 H1998 0.961 . S
C1983 H1999 0.960 . S
H1984 C1968 0.931 . S
H1985 C1973 0.929 . S
H1986 C1974 0.960 . S
H1987 C1974 0.962 . S
H1988 C1974 0.960 . S
H1989 C1975 0.961 . S
H1990 C1975 0.961 . S
H1991 C1975 0.961 . S
H1992 C1976 0.931 . S
H1993 C1981 0.930 . S
H1994 C1982 0.956 . S
H1995 C1982 0.961 . S
H1996 C1982 0.961 . S
H1997 C1983 0.958 . S
H1998 C1983 0.961 . S
H1999 C1983 0.960 . S
C2000 C2001 1.391 . S
C2000 C2002 1.394 . S
C2000 H2016 0.931 . S
C2001 C2000 1.391 . S
C2001 C2005 1.376 . S
C2002 C2000 1.394 . S
C2002 C2003 1.369 . S
C2002 C2006 1.531 . S
C2003 C2002 1.369 . S
C2003 C2004 1.410 . S
C2003 C2011 1.503 . S
C2004 C2003 1.410 . S
C2004 C2005 1.392 . S
C2004 C2007 1.511 . S
C2005 C2001 1.376 . S
C2005 C2004 1.392 . S
C2005 H2017 0.929 . S
C2006 C2002 1.531 . S
C2006 H2018 0.960 . S
C2006 H2019 0.962 . S
C2006 H2020 0.960 . S
C2007 C2004 1.511 . S
C2007 H2021 0.961 . S
C2007 H2022 0.961 . S
C2007 H2023 0.961 . S
C2008 C2009 1.370 . S
C2008 C2010 1.363 . S
C2008 H2024 0.950 . S
C2009 C2008 1.370 . S
C2009 C2013 1.408 . S
C2010 C2008 1.363 . S
C2010 C2011 1.370 . S
C2010 C2014 1.534 . S
C2011 C2003 1.503 . S
C2011 C2010 1.370 . S
C2011 C2012 1.403 . S
C2012 C2011 1.403 . S
C2012 C2013 1.404 . S
C2012 C2015 1.539 . S
C2013 C2009 1.408 . S
C2013 C2012 1.404 . S
C2013 H2025 0.930 . S
C2014 C2010 1.534 . S
C2014 H2026 0.959 . S
C2014 H2027 0.956 1_545 S
C2014 H2028 0.953 1_545 S
C2015 C2012 1.539 . S
C2015 H2029 0.958 . S
C2015 H2030 0.961 . S
C2015 H2031 0.960 . S
H2016 C2000 0.931 . S
H2017 C2005 0.929 . S
H2018 C2006 0.960 . S
H2019 C2006 0.962 . S
H2020 C2006 0.960 . S
H2021 C2007 0.961 . S
H2022 C2007 0.961 . S
H2023 C2007 0.961 . S
H2024 C2008 0.950 . S
H2025 C2013 0.930 . S
H2026 C2014 0.959 . S
H2027 C2014 0.956 1_565 S
H2028 C2014 0.953 1_565 S
H2029 C2015 0.958 . S
H2030 C2015 0.961 . S
H2031 C2015 0.960 . S
C2032 C2033 1.391 . S
C2032 C2034 1.394 . S
C2032 H2048 0.931 . S
C2033 C2032 1.391 . S
C2033 C2037 1.376 . S
C2034 C2032 1.394 . S
C2034 C2035 1.369 . S
C2034 C2038 1.531 . S
C2035 C2034 1.369 . S
C2035 C2036 1.410 . S
C2035 C2043 1.503 . S
C2036 C2035 1.410 . S
C2036 C2037 1.392 . S
C2036 C2039 1.511 . S
C2037 C2033 1.376 . S
C2037 C2036 1.392 . S
C2037 H2049 0.929 . S
C2038 C2034 1.531 . S
C2038 H2050 0.960 . S
C2038 H2051 0.962 . S
C2038 H2052 0.960 . S
C2039 C2036 1.511 . S
C2039 H2053 0.961 . S
C2039 H2054 0.961 . S
C2039 H2055 0.961 . S
C2040 C2041 1.370 . S
C2040 C2042 1.363 . S
C2040 H2056 0.931 . S
C2041 C2040 1.370 . S
C2041 C2045 1.408 . S
C2042 C2040 1.363 . S
C2042 C2043 1.370 . S
C2042 C2046 1.524 . S
C2043 C2035 1.503 . S
C2043 C2042 1.370 . S
C2043 C2044 1.403 . S
C2044 C2043 1.403 . S
C2044 C2045 1.404 . S
C2044 C2047 1.539 . S
C2045 C2041 1.408 . S
C2045 C2044 1.404 . S
C2045 H2057 0.930 . S
C2046 C2042 1.524 . S
C2046 H2058 0.956 . S
C2046 H2059 0.961 . S
C2046 H2060 0.961 . S
C2047 C2044 1.539 . S
C2047 H2061 0.958 . S
C2047 H2062 0.961 . S
C2047 H2063 0.960 . S
H2048 C2032 0.931 . S
H2049 C2037 0.929 . S
H2050 C2038 0.960 . S
H2051 C2038 0.962 . S
H2052 C2038 0.960 . S
H2053 C2039 0.961 . S
H2054 C2039 0.961 . S
H2055 C2039 0.961 . S
H2056 C2040 0.931 . S
H2057 C2045 0.930 . S
H2058 C2046 0.956 . S
H2059 C2046 0.961 . S
H2060 C2046 0.961 . S
H2061 C2047 0.958 . S
H2062 C2047 0.961 . S
H2063 C2047 0.960 . S
C2064 C2065 1.391 . S
C2064 C2066 1.394 . S
C2064 H2080 0.931 . S
C2065 C2064 1.391 . S
C2065 C2069 1.376 . S
C2066 C2064 1.394 . S
C2066 C2067 1.369 . S
C2066 C2070 1.531 1_655 S
C2067 C2066 1.369 . S
C2067 C2068 1.410 . S
C2067 C2075 1.503 . S
C2068 C2067 1.410 . S
C2068 C2069 1.392 . S
C2068 C2071 1.511 . S
C2069 C2065 1.376 . S
C2069 C2068 1.392 . S
C2069 H2081 0.929 . S
C2070 C2066 1.531 1_455 S
C2070 H2082 0.960 . S
C2070 H2083 0.962 . S
C2070 H2084 0.960 . S
C2071 C2068 1.511 . S
C2071 H2085 0.961 . S
C2071 H2086 0.961 . S
C2071 H2087 0.961 . S
C2072 C2073 1.370 . S
C2072 C2074 1.363 1_455 S
C2072 H2088 0.931 1_545 S
C2073 C2072 1.370 . S
C2073 C2077 1.408 . S
C2074 C2072 1.363 1_655 S
C2074 C2075 1.370 . S
C2074 C2078 1.524 1_545 S
C2075 C2067 1.503 . S
C2075 C2074 1.370 . S
C2075 C2076 1.403 . S
C2076 C2075 1.403 . S
C2076 C2077 1.404 1_655 S
C2076 C2079 1.539 . S
C2077 C2073 1.408 . S
C2077 C2076 1.404 1_455 S
C2077 H2089 0.930 . S
C2078 C2074 1.524 1_565 S
C2078 H2090 0.956 . S
C2078 H2091 0.961 . S
C2078 H2092 0.961 . S
C2079 C2076 1.539 . S
C2079 H2093 0.958 1_655 S
C2079 H2094 0.961 . S
C2079 H2095 0.960 . S
H2080 C2064 0.931 . S
H2081 C2069 0.929 . S
H2082 C2070 0.960 . S
H2083 C2070 0.962 . S
H2084 C2070 0.960 . S
H2085 C2071 0.961 . S
H2086 C2071 0.961 . S
H2087 C2071 0.961 . S
H2088 C2072 0.931 1_565 S
H2089 C2077 0.930 . S
H2090 C2078 0.956 . S
H2091 C2078 0.961 . S
H2092 C2078 0.961 . S
H2093 C2079 0.958 1_455 S
H2094 C2079 0.961 . S
H2095 C2079 0.960 . S
C2096 C2097 1.391 . S
C2096 C2098 1.394 . S
C2096 H2112 0.931 . S
C2097 C2096 1.391 . S
C2097 C2101 1.376 . S
C2098 C2096 1.394 . S
C2098 C2099 1.369 . S
C2098 C2102 1.531 . S
C2099 C2098 1.369 . S
C2099 C2100 1.410 . S
C2099 C2107 1.503 . S
C2100 C2099 1.410 . S
C2100 C2101 1.392 . S
C2100 C2103 1.511 . S
C2101 C2097 1.376 . S
C2101 C2100 1.392 . S
C2101 H2113 0.929 . S
C2102 C2098 1.531 . S
C2102 H2114 0.960 . S
C2102 H2115 0.962 . S
C2102 H2116 0.960 . S
C2103 C2100 1.511 . S
C2103 H2117 0.961 . S
C2103 H2118 0.961 . S
C2103 H2119 0.961 . S
C2104 C2105 1.370 . S
C2104 C2106 1.363 . S
C2104 H2120 0.931 . S
C2105 C2104 1.370 . S
C2105 C2109 1.408 . S
C2106 C2104 1.363 . S
C2106 C2107 1.370 . S
C2106 C2110 1.524 . S
C2107 C2099 1.503 . S
C2107 C2106 1.370 . S
C2107 C2108 1.403 . S
C2108 C2107 1.403 . S
C2108 C2109 1.404 . S
C2108 C2111 1.539 . S
C2109 C2105 1.408 . S
C2109 C2108 1.404 . S
C2109 H2121 0.930 . S
C2110 C2106 1.524 . S
C2110 H2122 0.956 . S
C2110 H2123 0.961 . S
C2110 H2124 0.961 . S
C2111 C2108 1.539 . S
C2111 H2125 0.958 . S
C2111 H2126 0.961 . S
C2111 H2127 0.960 . S
H2112 C2096 0.931 . S
H2113 C2101 0.929 . S
H2114 C2102 0.960 . S
H2115 C2102 0.962 . S
H2116 C2102 0.960 . S
H2117 C2103 0.961 . S
H2118 C2103 0.961 . S
H2119 C2103 0.961 . S
H2120 C2104 0.931 . S
H2121 C2109 0.930 . S
H2122 C2110 0.956 . S
H2123 C2110 0.961 . S
H2124 C2110 0.961 . S
H2125 C2111 0.958 . S
H2126 C2111 0.961 . S
H2127 C2111 0.960 . S
C2128 C2129 1.391 . S
C2128 C2130 1.394 . S
C2128 H2144 0.931 . S
C2129 C2128 1.391 . S
C2129 C2133 1.376 . S
C2130 C2128 1.394 . S
C2130 C2131 1.369 . S
C2130 C2134 1.531 . S
C2131 C2130 1.369 . S
C2131 C2132 1.410 . S
C2131 C2139 1.503 . S
C2132 C2131 1.410 . S
C2132 C2133 1.392 . S
C2132 C2135 1.511 . S
C2133 C2129 1.376 . S
C2133 C2132 1.392 . S
C2133 H2145 0.929 . S
C2134 C2130 1.531 . S
C2134 H2146 0.960 . S
C2134 H2147 0.962 . S
C2134 H2148 0.960 . S
C2135 C2132 1.511 . S
C2135 H2149 0.961 . S
C2135 H2150 0.961 . S
C2135 H2151 0.961 . S
C2136 C2137 1.370 . S
C2136 C2138 1.363 . S
C2136 H2152 0.931 . S
C2137 C2136 1.370 . S
C2137 C2141 1.408 . S
C2138 C2136 1.363 . S
C2138 C2139 1.370 . S
C2138 C2142 1.524 . S
C2139 C2131 1.503 . S
C2139 C2138 1.370 . S
C2139 C2140 1.403 . S
C2140 C2139 1.403 . S
C2140 C2141 1.404 . S
C2140 C2143 1.539 . S
C2141 C2137 1.408 . S
C2141 C2140 1.404 . S
C2141 H2153 0.930 . S
C2142 C2138 1.524 . S
C2142 H2154 0.956 . S
C2142 H2155 0.961 . S
C2142 H2156 0.961 . S
C2143 C2140 1.539 . S
C2143 H2157 0.958 . S
C2143 H2158 0.961 . S
C2143 H2159 0.960 . S
H2144 C2128 0.931 . S
H2145 C2133 0.929 . S
H2146 C2134 0.960 . S
H2147 C2134 0.962 . S
H2148 C2134 0.960 . S
H2149 C2135 0.961 . S
H2150 C2135 0.961 . S
H2151 C2135 0.961 . S
H2152 C2136 0.931 . S
H2153 C2141 0.930 . S
H2154 C2142 0.956 . S
H2155 C2142 0.961 . S
H2156 C2142 0.961 . S
H2157 C2143 0.958 . S
H2158 C2143 0.961 . S
H2159 C2143 0.960 . S
C2160 C2161 1.391 . S
C2160 C2162 1.394 . S
C2160 H2176 0.931 . S
C2161 C2160 1.391 . S
C2161 C2165 1.376 . S
C2162 C2160 1.394 . S
C2162 C2163 1.369 . S
C2162 C2166 1.531 . S
C2163 C2162 1.369 . S
C2163 C2164 1.410 . S
C2163 C2171 1.503 . S
C2164 C2163 1.410 . S
C2164 C2165 1.392 . S
C2164 C2167 1.511 . S
C2165 C2161 1.376 . S
C2165 C2164 1.392 . S
C2165 H2177 0.929 . S
C2166 C2162 1.531 . S
C2166 H2178 0.960 . S
C2166 H2179 0.962 . S
C2166 H2180 0.960 . S
C2167 C2164 1.511 . S
C2167 H2181 0.961 . S
C2167 H2182 0.961 . S
C2167 H2183 0.961 . S
C2168 C2169 1.370 . S
C2168 C2170 1.363 . S
C2168 H2184 0.931 . S
C2169 C2168 1.370 . S
C2169 C2173 1.408 . S
C2170 C2168 1.363 . S
C2170 C2171 1.370 . S
C2170 C2174 1.524 . S
C2171 C2163 1.503 . S
C2171 C2170 1.370 . S
C2171 C2172 1.403 . S
C2172 C2171 1.403 . S
C2172 C2173 1.404 . S
C2172 C2175 1.539 . S
C2173 C2169 1.408 . S
C2173 C2172 1.404 . S
C2173 H2185 0.930 . S
C2174 C2170 1.524 . S
C2174 H2186 0.956 . S
C2174 H2187 0.961 . S
C2174 H2188 0.961 . S
C2175 C2172 1.539 . S
C2175 H2189 0.958 . S
C2175 H2190 0.961 . S
C2175 H2191 0.960 . S
H2176 C2160 0.931 . S
H2177 C2165 0.929 . S
H2178 C2166 0.960 . S
H2179 C2166 0.962 . S
H2180 C2166 0.960 . S
H2181 C2167 0.961 . S
H2182 C2167 0.961 . S
H2183 C2167 0.961 . S
H2184 C2168 0.931 . S
H2185 C2173 0.930 . S
H2186 C2174 0.956 . S
H2187 C2174 0.961 . S
H2188 C2174 0.961 . S
H2189 C2175 0.958 . S
H2190 C2175 0.961 . S
H2191 C2175 0.960 . S
C2192 C2193 1.391 . S
C2192 C2194 1.394 . S
C2192 H2208 0.931 . S
C2193 C2192 1.391 . S
C2193 C2197 1.376 . S
C2194 C2192 1.394 . S
C2194 C2195 1.369 . S
C2194 C2198 1.531 . S
C2195 C2194 1.369 . S
C2195 C2196 1.410 . S
C2195 C2203 1.503 . S
C2196 C2195 1.410 . S
C2196 C2197 1.392 . S
C2196 C2199 1.511 1_565 S
C2197 C2193 1.376 . S
C2197 C2196 1.392 . S
C2197 H2209 0.929 . S
C2198 C2194 1.531 . S
C2198 H2210 0.960 . S
C2198 H2211 0.962 . S
C2198 H2212 0.960 . S
C2199 C2196 1.511 1_545 S
C2199 H2213 0.961 . S
C2199 H2214 0.961 . S
C2199 H2215 0.961 . S
C2200 C2201 1.378 . S
C2200 C2202 1.363 . S
C2200 H2216 0.931 1_554 S
C2201 C2200 1.378 . S
C2201 C2205 1.421 . S
C2202 C2200 1.363 . S
C2202 C2203 1.370 . S
C2202 C2206 1.524 1_554 S
C2203 C2195 1.503 . S
C2203 C2202 1.370 . S
C2203 C2204 1.403 . S
C2204 C2203 1.403 . S
C2204 C2205 1.404 . S
C2204 C2207 1.539 . S
C2205 C2201 1.421 . S
C2205 C2204 1.404 . S
C2205 H2217 0.925 1_565 S
C2206 C2202 1.524 1_556 S
C2206 H2218 0.956 . S
C2206 H2219 0.961 . S
C2206 H2220 0.961 . S
C2207 C2204 1.539 . S
C2207 H2221 0.958 . S
C2207 H2222 0.961 . S
C2207 H2223 0.960 . S
H2208 C2192 0.931 . S
H2209 C2197 0.929 . S
H2210 C2198 0.960 . S
H2211 C2198 0.962 . S
H2212 C2198 0.960 . S
H2213 C2199 0.961 . S
H2214 C2199 0.961 . S
H2215 C2199 0.961 . S
H2216 C2200 0.931 1_556 S
H2217 C2205 0.925 1_545 S
H2218 C2206 0.956 . S
H2219 C2206 0.961 . S
H2220 C2206 0.961 . S
H2221 C2207 0.958 . S
H2222 C2207 0.961 . S
H2223 C2207 0.960 . S
C2224 C2225 1.391 . S
C2224 C2226 1.394 . S
C2224 H2240 0.931 . S
C2225 C2224 1.391 . S
C2225 C2229 1.376 1_554 S
C2226 C2224 1.394 . S
C2226 C2227 1.369 . S
C2226 C2230 1.531 . S
C2227 C2226 1.369 . S
C2227 C2228 1.410 1_554 S
C2227 C2235 1.503 . S
C2228 C2227 1.410 1_556 S
C2228 C2229 1.392 . S
C2228 C2231 1.511 . S
C2229 C2225 1.376 1_556 S
C2229 C2228 1.392 . S
C2229 H2241 0.929 . S
C2230 C2226 1.531 . S
C2230 H2242 0.960 . S
C2230 H2243 0.962 . S
C2230 H2244 0.960 . S
C2231 C2228 1.511 . S
C2231 H2245 0.961 . S
C2231 H2246 0.961 . S
C2231 H2247 0.961 . S
C2232 C2233 1.370 . S
C2232 C2234 1.363 . S
C2232 H2248 0.931 . S
C2233 C2232 1.370 . S
C2233 C2237 1.408 . S
C2234 C2232 1.363 . S
C2234 C2235 1.370 . S
C2234 C2238 1.524 . S
C2235 C2227 1.503 . S
C2235 C2234 1.370 . S
C2235 C2236 1.403 . S
C2236 C2235 1.403 . S
C2236 C2237 1.404 . S
C2236 C2239 1.539 . S
C2237 C2233 1.408 . S
C2237 C2236 1.404 . S
C2237 H2249 0.930 . S
C2238 C2234 1.524 . S
C2238 H2250 0.956 . S
C2238 H2251 0.961 . S
C2238 H2252 0.961 . S
C2239 C2236 1.539 . S
C2239 H2253 0.958 . S
C2239 H2254 0.961 1_554 S
C2239 H2255 0.960 1_554 S
H2240 C2224 0.931 . S
H2241 C2229 0.929 . S
H2242 C2230 0.960 . S
H2243 C2230 0.962 . S
H2244 C2230 0.960 . S
H2245 C2231 0.961 . S
H2246 C2231 0.961 . S
H2247 C2231 0.961 . S
H2248 C2232 0.931 . S
H2249 C2237 0.930 . S
H2250 C2238 0.956 . S
H2251 C2238 0.961 . S
H2252 C2238 0.961 . S
H2253 C2239 0.958 . S
H2254 C2239 0.961 1_556 S
H2255 C2239 0.960 1_556 S
C2256 C2257 1.391 . S
C2256 C2258 1.394 . S
C2256 H2272 0.931 . S
C2257 C2256 1.391 . S
C2257 C2261 1.376 . S
C2258 C2256 1.394 . S
C2258 C2259 1.369 . S
C2258 C2262 1.531 . S
C2259 C2258 1.369 . S
C2259 C2260 1.410 . S
C2259 C2267 1.503 . S
C2260 C2259 1.410 . S
C2260 C2261 1.392 . S
C2260 C2263 1.511 . S
C2261 C2257 1.376 . S
C2261 C2260 1.392 . S
C2261 H2273 0.929 . S
C2262 C2258 1.531 . S
C2262 H2274 0.960 . S
C2262 H2275 0.962 . S
C2262 H2276 0.960 . S
C2263 C2260 1.511 . S
C2263 H2277 0.961 . S
C2263 H2278 0.961 . S
C2263 H2279 0.961 . S
C2264 C2265 1.370 . S
C2264 C2266 1.363 . S
C2264 H2280 0.931 . S
C2265 C2264 1.370 . S
C2265 C2269 1.408 . S
C2266 C2264 1.363 . S
C2266 C2267 1.370 . S
C2266 C2270 1.524 . S
C2267 C2259 1.503 . S
C2267 C2266 1.370 . S
C2267 C2268 1.403 . S
C2268 C2267 1.403 . S
C2268 C2269 1.404 . S
C2268 C2271 1.539 . S
C2269 C2265 1.408 . S
C2269 C2268 1.404 . S
C2269 H2281 0.930 . S
C2270 C2266 1.524 . S
C2270 H2282 0.956 . S
C2270 H2283 0.961 . S
C2270 H2284 0.961 . S
C2271 C2268 1.539 . S
C2271 H2285 0.958 . S
C2271 H2286 0.961 . S
C2271 H2287 0.960 . S
H2272 C2256 0.931 . S
H2273 C2261 0.929 . S
H2274 C2262 0.960 . S
H2275 C2262 0.962 . S
H2276 C2262 0.960 . S
H2277 C2263 0.961 . S
H2278 C2263 0.961 . S
H2279 C2263 0.961 . S
H2280 C2264 0.931 . S
H2281 C2269 0.930 . S
H2282 C2270 0.956 . S
H2283 C2270 0.961 . S
H2284 C2270 0.961 . S
H2285 C2271 0.958 . S
H2286 C2271 0.961 . S
H2287 C2271 0.960 . S
C2288 C2289 1.391 . S
C2288 C2290 1.394 . S
C2288 H2304 0.931 . S
C2289 C2288 1.391 . S
C2289 C2293 1.376 . S
C2290 C2288 1.394 . S
C2290 C2291 1.369 . S
C2290 C2294 1.531 . S
C2291 C2290 1.369 . S
C2291 C2292 1.410 . S
C2291 C2299 1.503 . S
C2292 C2291 1.410 . S
C2292 C2293 1.392 . S
C2292 C2295 1.511 . S
C2293 C2289 1.376 . S
C2293 C2292 1.392 . S
C2293 H2305 0.929 . S
C2294 C2290 1.531 . S
C2294 H2306 0.960 . S
C2294 H2307 0.962 . S
C2294 H2308 0.960 . S
C2295 C2292 1.511 . S
C2295 H2309 0.961 . S
C2295 H2310 0.961 . S
C2295 H2311 0.961 . S
C2296 C2297 1.370 . S
C2296 C2298 1.363 . S
C2296 H2312 0.931 . S
C2297 C2296 1.370 . S
C2297 C2301 1.408 . S
C2298 C2296 1.363 . S
C2298 C2299 1.370 . S
C2298 C2302 1.524 . S
C2299 C2291 1.503 . S
C2299 C2298 1.370 . S
C2299 C2300 1.403 . S
C2300 C2299 1.403 . S
C2300 C2301 1.404 . S
C2300 C2303 1.539 . S
C2301 C2297 1.408 . S
C2301 C2300 1.404 . S
C2301 H2313 0.930 . S
C2302 C2298 1.524 . S
C2302 H2314 0.956 . S
C2302 H2315 0.961 . S
C2302 H2316 0.961 . S
C2303 C2300 1.539 . S
C2303 H2317 0.958 . S
C2303 H2318 0.961 . S
C2303 H2319 0.960 . S
H2304 C2288 0.931 . S
H2305 C2293 0.929 . S
H2306 C2294 0.960 . S
H2307 C2294 0.962 . S
H2308 C2294 0.960 . S
H2309 C2295 0.961 . S
H2310 C2295 0.961 . S
H2311 C2295 0.961 . S
H2312 C2296 0.931 . S
H2313 C2301 0.930 . S
H2314 C2302 0.956 . S
H2315 C2302 0.961 . S
H2316 C2302 0.961 . S
H2317 C2303 0.958 . S
H2318 C2303 0.961 . S
H2319 C2303 0.960 . S
C2320 C2321 1.391 . S
C2320 C2322 1.394 . S
C2320 H2336 0.931 . S
C2321 C2320 1.391 . S
C2321 C2325 1.376 . S
C2322 C2320 1.394 . S
C2322 C2323 1.369 . S
C2322 C2326 1.531 . S
C2323 C2322 1.369 . S
C2323 C2324 1.410 . S
C2323 C2331 1.503 . S
C2324 C2323 1.410 . S
C2324 C2325 1.392 . S
C2324 C2327 1.511 . S
C2325 C2321 1.376 . S
C2325 C2324 1.392 . S
C2325 H2337 0.929 . S
C2326 C2322 1.531 . S
C2326 H2338 0.960 . S
C2326 H2339 0.962 . S
C2326 H2340 0.960 . S
C2327 C2324 1.511 . S
C2327 H2341 0.961 . S
C2327 H2342 0.961 . S
C2327 H2343 0.961 . S
C2328 C2329 1.370 . S
C2328 C2330 1.363 . S
C2328 H2344 0.931 . S
C2329 C2328 1.370 . S
C2329 C2333 1.408 . S
C2330 C2328 1.363 . S
C2330 C2331 1.370 . S
C2330 C2334 1.524 . S
C2331 C2323 1.503 . S
C2331 C2330 1.370 . S
C2331 C2332 1.403 . S
C2332 C2331 1.403 . S
C2332 C2333 1.404 . S
C2332 C2335 1.539 . S
C2333 C2329 1.408 . S
C2333 C2332 1.404 . S
C2333 H2345 0.930 . S
C2334 C2330 1.524 . S
C2334 H2346 0.956 . S
C2334 H2347 0.961 . S
C2334 H2348 0.961 . S
C2335 C2332 1.539 . S
C2335 H2349 0.958 . S
C2335 H2350 0.961 . S
C2335 H2351 0.960 . S
H2336 C2320 0.931 . S
H2337 C2325 0.929 . S
H2338 C2326 0.960 . S
H2339 C2326 0.962 . S
H2340 C2326 0.960 . S
H2341 C2327 0.961 . S
H2342 C2327 0.961 . S
H2343 C2327 0.961 . S
H2344 C2328 0.931 . S
H2345 C2333 0.930 . S
H2346 C2334 0.956 . S
H2347 C2334 0.961 . S
H2348 C2334 0.961 . S
H2349 C2335 0.958 . S
H2350 C2335 0.961 . S
H2351 C2335 0.960 . S
C2352 C2353 1.391 . S
C2352 C2354 1.394 . S
C2352 H2368 0.931 . S
C2353 C2352 1.391 . S
C2353 C2357 1.376 . S
C2354 C2352 1.394 . S
C2354 C2355 1.369 . S
C2354 C2358 1.531 . S
C2355 C2354 1.369 . S
C2355 C2356 1.410 . S
C2355 C2363 1.503 . S
C2356 C2355 1.410 . S
C2356 C2357 1.392 . S
C2356 C2359 1.511 . S
C2357 C2353 1.376 . S
C2357 C2356 1.392 . S
C2357 H2369 0.929 . S
C2358 C2354 1.531 . S
C2358 H2370 0.960 . S
C2358 H2371 0.962 . S
C2358 H2372 0.960 . S
C2359 C2356 1.511 . S
C2359 H2373 0.961 . S
C2359 H2374 0.961 . S
C2359 H2375 0.961 . S
C2360 C2361 1.370 . S
C2360 C2362 1.363 . S
C2360 H2376 0.931 . S
C2361 C2360 1.370 . S
C2361 C2365 1.408 . S
C2362 C2360 1.363 . S
C2362 C2363 1.370 . S
C2362 C2366 1.524 . S
C2363 C2355 1.503 . S
C2363 C2362 1.370 . S
C2363 C2364 1.403 . S
C2364 C2363 1.403 . S
C2364 C2365 1.404 . S
C2364 C2367 1.539 . S
C2365 C2361 1.408 . S
C2365 C2364 1.404 . S
C2365 H2377 0.930 . S
C2366 C2362 1.524 . S
C2366 H2378 0.956 . S
C2366 H2379 0.961 . S
C2366 H2380 0.961 . S
C2367 C2364 1.539 . S
C2367 H2381 0.958 . S
C2367 H2382 0.961 . S
C2367 H2383 0.960 . S
H2368 C2352 0.931 . S
H2369 C2357 0.929 . S
H2370 C2358 0.960 . S
H2371 C2358 0.962 . S
H2372 C2358 0.960 . S
H2373 C2359 0.961 . S
H2374 C2359 0.961 . S
H2375 C2359 0.961 . S
H2376 C2360 0.931 . S
H2377 C2365 0.930 . S
H2378 C2366 0.956 . S
H2379 C2366 0.961 . S
H2380 C2366 0.961 . S
H2381 C2367 0.958 . S
H2382 C2367 0.961 . S
H2383 C2367 0.960 . S
C2384 C2385 1.391 . S
C2384 C2386 1.394 . S
C2384 H2400 0.931 . S
C2385 C2384 1.391 . S
C2385 C2389 1.376 . S
C2386 C2384 1.394 . S
C2386 C2387 1.369 . S
C2386 C2390 1.531 . S
C2387 C2386 1.369 . S
C2387 C2388 1.410 . S
C2387 C2395 1.503 . S
C2388 C2387 1.410 . S
C2388 C2389 1.392 . S
C2388 C2391 1.511 . S
C2389 C2385 1.376 . S
C2389 C2388 1.392 . S
C2389 H2401 0.929 . S
C2390 C2386 1.531 . S
C2390 H2402 0.960 . S
C2390 H2403 0.962 . S
C2390 H2404 0.960 . S
C2391 C2388 1.511 . S
C2391 H2405 0.961 . S
C2391 H2406 0.961 . S
C2391 H2407 0.961 . S
C2392 C2393 1.370 . S
C2392 C2394 1.363 . S
C2392 H2408 0.931 . S
C2393 C2392 1.370 . S
C2393 C2397 1.408 . S
C2394 C2392 1.363 . S
C2394 C2395 1.370 . S
C2394 C2398 1.524 . S
C2395 C2387 1.503 . S
C2395 C2394 1.370 . S
C2395 C2396 1.403 . S
C2396 C2395 1.403 . S
C2396 C2397 1.404 . S
C2396 C2399 1.539 . S
C2397 C2393 1.408 . S
C2397 C2396 1.404 . S
C2397 H2409 0.930 . S
C2398 C2394 1.524 . S
C2398 H2410 0.956 . S
C2398 H2411 0.961 . S
C2398 H2412 0.961 . S
C2399 C2396 1.539 . S
C2399 H2413 0.958 . S
C2399 H2414 0.961 . S
C2399 H2415 0.960 . S
H2400 C2384 0.931 . S
H2401 C2389 0.929 . S
H2402 C2390 0.960 . S
H2403 C2390 0.962 . S
H2404 C2390 0.960 . S
H2405 C2391 0.961 . S
H2406 C2391 0.961 . S
H2407 C2391 0.961 . S
H2408 C2392 0.931 . S
H2409 C2397 0.930 . S
H2410 C2398 0.956 . S
H2411 C2398 0.961 . S
H2412 C2398 0.961 . S
H2413 C2399 0.958 . S
H2414 C2399 0.961 . S
H2415 C2399 0.960 . S
C2416 C2417 1.391 . S
C2416 C2418 1.394 . S
C2416 H2432 0.931 . S
C2417 C2416 1.391 . S
C2417 C2421 1.376 . S
C2418 C2416 1.394 . S
C2418 C2419 1.369 . S
C2418 C2422 1.531 . S
C2419 C2418 1.369 . S
C2419 C2420 1.410 . S
C2419 C2427 1.503 . S
C2420 C2419 1.410 . S
C2420 C2421 1.392 . S
C2420 C2423 1.511 . S
C2421 C2417 1.376 . S
C2421 C2420 1.392 . S
C2421 H2433 0.929 . S
C2422 C2418 1.531 . S
C2422 H2434 0.960 . S
C2422 H2435 0.962 . S
C2422 H2436 0.960 . S
C2423 C2420 1.511 . S
C2423 H2437 0.961 . S
C2423 H2438 0.961 . S
C2423 H2439 0.961 . S
C2424 C2425 1.370 . S
C2424 C2426 1.363 . S
C2424 H2440 0.931 . S
C2425 C2424 1.370 . S
C2425 C2429 1.408 . S
C2426 C2424 1.363 . S
C2426 C2427 1.370 . S
C2426 C2430 1.524 . S
C2427 C2419 1.503 . S
C2427 C2426 1.370 . S
C2427 C2428 1.403 . S
C2428 C2427 1.403 . S
C2428 C2429 1.404 . S
C2428 C2431 1.539 . S
C2429 C2425 1.408 . S
C2429 C2428 1.404 . S
C2429 H2441 0.930 . S
C2430 C2426 1.524 . S
C2430 H2442 0.956 . S
C2430 H2443 0.961 . S
C2430 H2444 0.961 . S
C2431 C2428 1.539 . S
C2431 H2445 0.958 . S
C2431 H2446 0.961 . S
C2431 H2447 0.960 . S
H2432 C2416 0.931 . S
H2433 C2421 0.929 . S
H2434 C2422 0.960 . S
H2435 C2422 0.962 . S
H2436 C2422 0.960 . S
H2437 C2423 0.961 . S
H2438 C2423 0.961 . S
H2439 C2423 0.961 . S
H2440 C2424 0.931 . S
H2441 C2429 0.930 . S
H2442 C2430 0.956 . S
H2443 C2430 0.961 . S
H2444 C2430 0.961 . S
H2445 C2431 0.958 . S
H2446 C2431 0.961 . S
H2447 C2431 0.960 . S
C2448 C2449 1.391 . S
C2448 C2450 1.394 . S
C2448 H2464 0.931 . S
C2449 C2448 1.391 . S
C2449 C2453 1.376 . S
C2450 C2448 1.394 . S
C2450 C2451 1.369 . S
C2450 C2454 1.531 . S
C2451 C2450 1.369 . S
C2451 C2452 1.410 . S
C2451 C2459 1.503 . S
C2452 C2451 1.410 . S
C2452 C2453 1.392 . S
C2452 C2455 1.511 . S
C2453 C2449 1.376 . S
C2453 C2452 1.392 . S
C2453 H2465 0.929 . S
C2454 C2450 1.531 . S
C2454 H2466 0.960 . S
C2454 H2467 0.962 . S
C2454 H2468 0.960 . S
C2455 C2452 1.511 . S
C2455 H2469 0.961 . S
C2455 H2470 0.961 . S
C2455 H2471 0.961 . S
C2456 C2457 1.370 . S
C2456 C2458 1.363 . S
C2456 H2472 0.931 . S
C2457 C2456 1.370 . S
C2457 C2461 1.408 . S
C2458 C2456 1.363 . S
C2458 C2459 1.370 . S
C2458 C2462 1.524 . S
C2459 C2451 1.503 . S
C2459 C2458 1.370 . S
C2459 C2460 1.403 . S
C2460 C2459 1.403 . S
C2460 C2461 1.404 . S
C2460 C2463 1.539 . S
C2461 C2457 1.408 . S
C2461 C2460 1.404 . S
C2461 H2473 0.930 . S
C2462 C2458 1.524 . S
C2462 H2474 0.956 . S
C2462 H2475 0.961 . S
C2462 H2476 0.961 . S
C2463 C2460 1.539 . S
C2463 H2477 0.958 . S
C2463 H2478 0.961 . S
C2463 H2479 0.960 . S
H2464 C2448 0.931 . S
H2465 C2453 0.929 . S
H2466 C2454 0.960 . S
H2467 C2454 0.962 . S
H2468 C2454 0.960 . S
H2469 C2455 0.961 . S
H2470 C2455 0.961 . S
H2471 C2455 0.961 . S
H2472 C2456 0.931 . S
H2473 C2461 0.930 . S
H2474 C2462 0.956 . S
H2475 C2462 0.961 . S
H2476 C2462 0.961 . S
H2477 C2463 0.958 . S
H2478 C2463 0.961 . S
H2479 C2463 0.960 . S
C2480 C2481 1.391 . S
C2480 C2482 1.394 . S
C2480 H2496 0.931 . S
C2481 C2480 1.391 . S
C2481 C2485 1.376 . S
C2482 C2480 1.394 . S
C2482 C2483 1.369 . S
C2482 C2486 1.531 . S
C2483 C2482 1.369 . S
C2483 C2484 1.410 . S
C2483 C2491 1.503 . S
C2484 C2483 1.410 . S
C2484 C2485 1.392 . S
C2484 C2487 1.511 . S
C2485 C2481 1.376 . S
C2485 C2484 1.392 . S
C2485 H2497 0.929 . S
C2486 C2482 1.531 . S
C2486 H2498 0.960 . S
C2486 H2499 0.962 . S
C2486 H2500 0.960 . S
C2487 C2484 1.511 . S
C2487 H2501 0.961 . S
C2487 H2502 0.961 . S
C2487 H2503 0.961 . S
C2488 C2489 1.370 . S
C2488 C2490 1.363 . S
C2488 H2504 0.931 . S
C2489 C2488 1.370 . S
C2489 C2493 1.408 . S
C2490 C2488 1.363 . S
C2490 C2491 1.370 . S
C2490 C2494 1.524 . S
C2491 C2483 1.503 . S
C2491 C2490 1.370 . S
C2491 C2492 1.403 . S
C2492 C2491 1.403 . S
C2492 C2493 1.404 . S
C2492 C2495 1.539 . S
C2493 C2489 1.408 . S
C2493 C2492 1.404 . S
C2493 H2505 0.930 . S
C2494 C2490 1.524 . S
C2494 H2506 0.956 . S
C2494 H2507 0.961 . S
C2494 H2508 0.961 . S
C2495 C2492 1.539 . S
C2495 H2509 0.958 . S
C2495 H2510 0.961 . S
C2495 H2511 0.960 . S
H2496 C2480 0.931 . S
H2497 C2485 0.929 . S
H2498 C2486 0.960 . S
H2499 C2486 0.962 . S
H2500 C2486 0.960 . S
H2501 C2487 0.961 . S
H2502 C2487 0.961 . S
H2503 C2487 0.961 . S
H2504 C2488 0.931 . S
H2505 C2493 0.930 . S
H2506 C2494 0.956 . S
H2507 C2494 0.961 . S
H2508 C2494 0.961 . S
H2509 C2495 0.958 . S
H2510 C2495 0.961 . S
H2511 C2495 0.960 . S
C2512 C2513 1.391 . S
C2512 C2514 1.394 . S
C2512 H2528 0.931 . S
C2513 C2512 1.391 . S
C2513 C2517 1.376 . S
C2514 C2512 1.394 . S
C2514 C2515 1.369 . S
C2514 C2518 1.531 . S
C2515 C2514 1.369 . S
C2515 C2516 1.410 . S
C2515 C2523 1.503 . S
C2516 C2515 1.410 . S
C2516 C2517 1.392 . S
C2516 C2519 1.511 . S
C2517 C2513 1.376 . S
C2517 C2516 1.392 . S
C2517 H2529 0.929 . S
C2518 C2514 1.531 . S
C2518 H2530 0.960 . S
C2518 H2531 0.962 . S
C2518 H2532 0.960 . S
C2519 C2516 1.511 . S
C2519 H2533 0.961 . S
C2519 H2534 0.961 . S
C2519 H2535 0.961 . S
C2520 C2521 1.370 . S
C2520 C2522 1.363 . S
C2520 H2536 0.931 . S
C2521 C2520 1.370 . S
C2521 C2525 1.408 . S
C2522 C2520 1.363 . S
C2522 C2523 1.370 . S
C2522 C2526 1.524 . S
C2523 C2515 1.503 . S
C2523 C2522 1.370 . S
C2523 C2524 1.403 . S
C2524 C2523 1.403 . S
C2524 C2525 1.404 . S
C2524 C2527 1.539 . S
C2525 C2521 1.408 . S
C2525 C2524 1.404 . S
C2525 H2537 0.930 . S
C2526 C2522 1.524 . S
C2526 H2538 0.956 . S
C2526 H2539 0.961 . S
C2526 H2540 0.961 . S
C2527 C2524 1.539 . S
C2527 H2541 0.958 . S
C2527 H2542 0.961 . S
C2527 H2543 0.960 . S
H2528 C2512 0.931 . S
H2529 C2517 0.929 . S
H2530 C2518 0.960 . S
H2531 C2518 0.962 . S
H2532 C2518 0.960 . S
H2533 C2519 0.961 . S
H2534 C2519 0.961 . S
H2535 C2519 0.961 . S
H2536 C2520 0.931 . S
H2537 C2525 0.930 . S
H2538 C2526 0.956 . S
H2539 C2526 0.961 . S
H2540 C2526 0.961 . S
H2541 C2527 0.958 . S
H2542 C2527 0.961 . S
H2543 C2527 0.960 . S
C2544 C2545 1.391 . S
C2544 C2546 1.394 . S
C2544 H2560 0.931 . S
C2545 C2544 1.391 . S
C2545 C2549 1.376 . S
C2546 C2544 1.394 . S
C2546 C2547 1.369 . S
C2546 C2550 1.531 . S
C2547 C2546 1.369 . S
C2547 C2548 1.410 . S
C2547 C2555 1.503 . S
C2548 C2547 1.410 . S
C2548 C2549 1.392 . S
C2548 C2551 1.511 . S
C2549 C2545 1.376 . S
C2549 C2548 1.392 . S
C2549 H2561 0.929 . S
C2550 C2546 1.531 . S
C2550 H2562 0.960 . S
C2550 H2563 0.962 . S
C2550 H2564 0.960 . S
C2551 C2548 1.511 . S
C2551 H2565 0.961 . S
C2551 H2566 0.961 . S
C2551 H2567 0.961 . S
C2552 C2553 1.370 . S
C2552 C2554 1.363 . S
C2552 H2568 0.931 . S
C2553 C2552 1.370 . S
C2553 C2557 1.408 . S
C2554 C2552 1.363 . S
C2554 C2555 1.370 . S
C2554 C2558 1.524 . S
C2555 C2547 1.503 . S
C2555 C2554 1.370 . S
C2555 C2556 1.403 . S
C2556 C2555 1.403 . S
C2556 C2557 1.404 . S
C2556 C2559 1.539 . S
C2557 C2553 1.408 . S
C2557 C2556 1.404 . S
C2557 H2569 0.930 . S
C2558 C2554 1.524 . S
C2558 H2570 0.956 . S
C2558 H2571 0.961 . S
C2558 H2572 0.961 . S
C2559 C2556 1.539 . S
C2559 H2573 0.958 . S
C2559 H2574 0.961 . S
C2559 H2575 0.960 . S
H2560 C2544 0.931 . S
H2561 C2549 0.929 . S
H2562 C2550 0.960 . S
H2563 C2550 0.962 . S
H2564 C2550 0.960 . S
H2565 C2551 0.961 . S
H2566 C2551 0.961 . S
H2567 C2551 0.961 . S
H2568 C2552 0.931 . S
H2569 C2557 0.930 . S
H2570 C2558 0.956 . S
H2571 C2558 0.961 . S
H2572 C2558 0.961 . S
H2573 C2559 0.958 . S
H2574 C2559 0.961 . S
H2575 C2559 0.960 . S
C2576 C2577 1.391 . S
C2576 C2578 1.394 . S
C2576 H2592 0.931 . S
C2577 C2576 1.391 . S
C2577 C2581 1.376 . S
C2578 C2576 1.394 . S
C2578 C2579 1.369 . S
C2578 C2582 1.531 . S
C2579 C2578 1.369 . S
C2579 C2580 1.410 . S
C2579 C2587 1.503 . S
C2580 C2579 1.410 . S
C2580 C2581 1.392 . S
C2580 C2583 1.511 . S
C2581 C2577 1.376 . S
C2581 C2580 1.392 . S
C2581 H2593 0.929 . S
C2582 C2578 1.531 . S
C2582 H2594 0.960 . S
C2582 H2595 0.962 . S
C2582 H2596 0.960 . S
C2583 C2580 1.511 . S
C2583 H2597 0.961 . S
C2583 H2598 0.961 . S
C2583 H2599 0.961 . S
C2584 C2585 1.370 . S
C2584 C2586 1.363 . S
C2584 H2600 0.947 . S
C2585 C2584 1.370 . S
C2585 C2589 1.408 . S
C2586 C2584 1.363 . S
C2586 C2587 1.370 . S
C2586 C2590 1.524 1_455 S
C2587 C2579 1.503 . S
C2587 C2586 1.370 . S
C2587 C2588 1.403 . S
C2588 C2587 1.403 . S
C2588 C2589 1.404 . S
C2588 C2591 1.539 . S
C2589 C2585 1.408 . S
C2589 C2588 1.404 . S
C2589 H2601 0.930 . S
C2590 C2586 1.524 1_655 S
C2590 H2602 0.956 . S
C2590 H2603 0.961 . S
C2590 H2604 0.961 . S
C2591 C2588 1.539 . S
C2591 H2605 0.958 . S
C2591 H2606 0.961 . S
C2591 H2607 0.960 . S
H2592 C2576 0.931 . S
H2593 C2581 0.929 . S
H2594 C2582 0.960 . S
H2595 C2582 0.962 . S
H2596 C2582 0.960 . S
H2597 C2583 0.961 . S
H2598 C2583 0.961 . S
H2599 C2583 0.961 . S
H2600 C2584 0.947 . S
H2601 C2589 0.930 . S
H2602 C2590 0.956 . S
H2603 C2590 0.961 . S
H2604 C2590 0.961 . S
H2605 C2591 0.958 . S
H2606 C2591 0.961 . S
H2607 C2591 0.960 . S
C2608 C2609 1.391 . S
C2608 C2610 1.394 . S
C2608 H2624 0.931 . S
C2609 C2608 1.391 . S
C2609 C2613 1.376 . S
C2610 C2608 1.394 . S
C2610 C2611 1.369 . S
C2610 C2614 1.531 . S
C2611 C2610 1.369 . S
C2611 C2612 1.410 . S
C2611 C2619 1.503 . S
C2612 C2611 1.410 . S
C2612 C2613 1.392 . S
C2612 C2615 1.511 . S
C2613 C2609 1.376 . S
C2613 C2612 1.392 . S
C2613 H2625 0.929 . S
C2614 C2610 1.531 . S
C2614 H2626 0.960 . S
C2614 H2627 0.962 . S
C2614 H2628 0.960 . S
C2615 C2612 1.511 . S
C2615 H2629 0.961 . S
C2615 H2630 0.961 . S
C2615 H2631 0.961 . S
C2616 C2617 1.370 . S
C2616 C2618 1.363 . S
C2616 H2632 0.931 . S
C2617 C2616 1.370 . S
C2617 C2621 1.408 . S
C2618 C2616 1.363 . S
C2618 C2619 1.370 . S
C2618 C2622 1.524 . S
C2619 C2611 1.503 . S
C2619 C2618 1.370 . S
C2619 C2620 1.403 . S
C2620 C2619 1.403 . S
C2620 C2621 1.404 . S
C2620 C2623 1.539 . S
C2621 C2617 1.408 . S
C2621 C2620 1.404 . S
C2621 H2633 0.930 . S
C2622 C2618 1.524 . S
C2622 H2634 0.956 . S
C2622 H2635 0.961 . S
C2622 H2636 0.961 . S
C2623 C2620 1.539 . S
C2623 H2637 0.958 . S
C2623 H2638 0.961 . S
C2623 H2639 0.960 . S
H2624 C2608 0.931 . S
H2625 C2613 0.929 . S
H2626 C2614 0.960 . S
H2627 C2614 0.962 . S
H2628 C2614 0.960 . S
H2629 C2615 0.961 . S
H2630 C2615 0.961 . S
H2631 C2615 0.961 . S
H2632 C2616 0.931 . S
H2633 C2621 0.930 . S
H2634 C2622 0.956 . S
H2635 C2622 0.961 . S
H2636 C2622 0.961 . S
H2637 C2623 0.958 . S
H2638 C2623 0.961 . S
H2639 C2623 0.960 . S
C2640 C2641 1.391 . S
C2640 C2642 1.394 . S
C2640 H2656 0.931 . S
C2641 C2640 1.391 . S
C2641 C2645 1.376 . S
C2642 C2640 1.394 . S
C2642 C2643 1.369 . S
C2642 C2646 1.531 . S
C2643 C2642 1.369 . S
C2643 C2644 1.410 . S
C2643 C2651 1.503 . S
C2644 C2643 1.410 . S
C2644 C2645 1.392 . S
C2644 C2647 1.511 . S
C2645 C2641 1.376 . S
C2645 C2644 1.392 . S
C2645 H2657 0.929 . S
C2646 C2642 1.531 . S
C2646 H2658 0.960 . S
C2646 H2659 0.962 . S
C2646 H2660 0.960 . S
C2647 C2644 1.511 . S
C2647 H2661 0.961 . S
C2647 H2662 0.961 . S
C2647 H2663 0.961 . S
C2648 C2649 1.370 . S
C2648 C2650 1.363 . S
C2648 H2664 0.931 . S
C2649 C2648 1.370 . S
C2649 C2653 1.408 . S
C2650 C2648 1.363 . S
C2650 C2651 1.370 . S
C2650 C2654 1.524 . S
C2651 C2643 1.503 . S
C2651 C2650 1.370 . S
C2651 C2652 1.403 . S
C2652 C2651 1.403 . S
C2652 C2653 1.404 . S
C2652 C2655 1.539 . S
C2653 C2649 1.408 . S
C2653 C2652 1.404 . S
C2653 H2665 0.930 1_556 S
C2654 C2650 1.524 . S
C2654 H2666 0.956 . S
C2654 H2667 0.961 . S
C2654 H2668 0.961 . S
C2655 C2652 1.539 . S
C2655 H2669 0.958 . S
C2655 H2670 0.961 1_556 S
C2655 H2671 0.960 . S
H2656 C2640 0.931 . S
H2657 C2645 0.929 . S
H2658 C2646 0.960 . S
H2659 C2646 0.962 . S
H2660 C2646 0.960 . S
H2661 C2647 0.961 . S
H2662 C2647 0.961 . S
H2663 C2647 0.961 . S
H2664 C2648 0.931 . S
H2665 C2653 0.930 1_554 S
H2666 C2654 0.956 . S
H2667 C2654 0.961 . S
H2668 C2654 0.961 . S
H2669 C2655 0.958 . S
H2670 C2655 0.961 1_554 S
H2671 C2655 0.960 . S
C2672 C2673 1.391 . S
C2672 C2674 1.394 . S
C2672 H2688 0.931 . S
C2673 C2672 1.391 . S
C2673 C2677 1.376 . S
C2674 C2672 1.394 . S
C2674 C2675 1.369 . S
C2674 C2678 1.531 . S
C2675 C2674 1.369 . S
C2675 C2676 1.410 . S
C2675 C2683 1.503 . S
C2676 C2675 1.410 . S
C2676 C2677 1.392 . S
C2676 C2679 1.511 . S
C2677 C2673 1.376 . S
C2677 C2676 1.392 . S
C2677 H2689 0.929 . S
C2678 C2674 1.531 . S
C2678 H2690 0.960 . S
C2678 H2691 0.962 . S
C2678 H2692 0.960 . S
C2679 C2676 1.511 . S
C2679 H2693 0.961 . S
C2679 H2694 0.961 . S
C2679 H2695 0.961 . S
C2680 C2681 1.370 . S
C2680 C2682 1.363 . S
C2680 H2696 0.931 . S
C2681 C2680 1.370 . S
C2681 C2685 1.408 . S
C2682 C2680 1.363 . S
C2682 C2683 1.370 . S
C2682 C2686 1.524 . S
C2683 C2675 1.503 . S
C2683 C2682 1.370 . S
C2683 C2684 1.403 . S
C2684 C2683 1.403 . S
C2684 C2685 1.404 . S
C2684 C2687 1.539 . S
C2685 C2681 1.408 . S
C2685 C2684 1.404 . S
C2685 H2697 0.930 . S
C2686 C2682 1.524 . S
C2686 H2698 0.956 . S
C2686 H2699 0.961 . S
C2686 H2700 0.961 . S
C2687 C2684 1.539 . S
C2687 H2701 0.958 . S
C2687 H2702 0.961 . S
C2687 H2703 0.960 . S
H2688 C2672 0.931 . S
H2689 C2677 0.929 . S
H2690 C2678 0.960 . S
H2691 C2678 0.962 . S
H2692 C2678 0.960 . S
H2693 C2679 0.961 . S
H2694 C2679 0.961 . S
H2695 C2679 0.961 . S
H2696 C2680 0.931 . S
H2697 C2685 0.930 . S
H2698 C2686 0.956 . S
H2699 C2686 0.961 . S
H2700 C2686 0.961 . S
H2701 C2687 0.958 . S
H2702 C2687 0.961 . S
H2703 C2687 0.960 . S
C2704 C2705 1.391 . S
C2704 C2706 1.394 . S
C2704 H2720 0.931 . S
C2705 C2704 1.391 . S
C2705 C2709 1.376 . S
C2706 C2704 1.394 . S
C2706 C2707 1.369 . S
C2706 C2710 1.531 . S
C2707 C2706 1.369 . S
C2707 C2708 1.410 . S
C2707 C2715 1.503 . S
C2708 C2707 1.410 . S
C2708 C2709 1.392 . S
C2708 C2711 1.511 . S
C2709 C2705 1.376 . S
C2709 C2708 1.392 . S
C2709 H2721 0.929 . S
C2710 C2706 1.531 . S
C2710 H2722 0.960 . S
C2710 H2723 0.962 . S
C2710 H2724 0.960 . S
C2711 C2708 1.511 . S
C2711 H2725 0.961 . S
C2711 H2726 0.961 . S
C2711 H2727 0.961 . S
C2712 C2713 1.370 . S
C2712 C2714 1.363 . S
C2712 H2728 0.931 . S
C2713 C2712 1.370 . S
C2713 C2717 1.408 . S
C2714 C2712 1.363 . S
C2714 C2715 1.370 . S
C2714 C2718 1.524 . S
C2715 C2707 1.503 . S
C2715 C2714 1.370 . S
C2715 C2716 1.403 . S
C2716 C2715 1.403 . S
C2716 C2717 1.404 . S
C2716 C2719 1.539 1_545 S
C2717 C2713 1.408 . S
C2717 C2716 1.404 . S
C2717 H2729 0.930 1_545 S
C2718 C2714 1.524 . S
C2718 H2730 0.956 . S
C2718 H2731 0.961 . S
C2718 H2732 0.961 . S
C2719 C2716 1.539 1_565 S
C2719 H2733 0.958 . S
C2719 H2734 0.961 . S
C2719 H2735 0.954 1_565 S
H2720 C2704 0.931 . S
H2721 C2709 0.929 . S
H2722 C2710 0.960 . S
H2723 C2710 0.962 . S
H2724 C2710 0.960 . S
H2725 C2711 0.961 . S
H2726 C2711 0.961 . S
H2727 C2711 0.961 . S
H2728 C2712 0.931 . S
H2729 C2717 0.930 1_565 S
H2730 C2718 0.956 . S
H2731 C2718 0.961 . S
H2732 C2718 0.961 . S
H2733 C2719 0.958 . S
H2734 C2719 0.961 . S
H2735 C2719 0.954 1_545 S
C2736 C2737 1.391 . S
C2736 C2738 1.394 . S
C2736 H2752 0.931 . S
C2737 C2736 1.391 . S
C2737 C2741 1.376 . S
C2738 C2736 1.394 . S
C2738 C2739 1.369 . S
C2738 C2742 1.531 . S
C2739 C2738 1.369 . S
C2739 C2740 1.410 . S
C2739 C2747 1.503 . S
C2740 C2739 1.410 . S
C2740 C2741 1.392 . S
C2740 C2743 1.511 . S
C2741 C2737 1.376 . S
C2741 C2740 1.392 . S
C2741 H2753 0.929 . S
C2742 C2738 1.531 . S
C2742 H2754 0.960 . S
C2742 H2755 0.962 . S
C2742 H2756 0.960 . S
C2743 C2740 1.511 . S
C2743 H2757 0.961 . S
C2743 H2758 0.961 . S
C2743 H2759 0.961 . S
C2744 C2745 1.370 . S
C2744 C2746 1.363 . S
C2744 H2760 0.931 . S
C2745 C2744 1.370 . S
C2745 C2749 1.408 . S
C2746 C2744 1.363 . S
C2746 C2747 1.370 . S
C2746 C2750 1.524 . S
C2747 C2739 1.503 . S
C2747 C2746 1.370 . S
C2747 C2748 1.403 . S
C2748 C2747 1.403 . S
C2748 C2749 1.404 . S
C2748 C2751 1.539 . S
C2749 C2745 1.408 . S
C2749 C2748 1.404 . S
C2749 H2761 0.930 . S
C2750 C2746 1.524 . S
C2750 H2762 0.956 . S
C2750 H2763 0.961 . S
C2750 H2764 0.961 . S
C2751 C2748 1.539 . S
C2751 H2765 0.958 . S
C2751 H2766 0.961 . S
C2751 H2767 0.960 . S
H2752 C2736 0.931 . S
H2753 C2741 0.929 . S
H2754 C2742 0.960 . S
H2755 C2742 0.962 . S
H2756 C2742 0.960 . S
H2757 C2743 0.961 . S
H2758 C2743 0.961 . S
H2759 C2743 0.961 . S
H2760 C2744 0.931 . S
H2761 C2749 0.930 . S
H2762 C2750 0.956 . S
H2763 C2750 0.961 . S
H2764 C2750 0.961 . S
H2765 C2751 0.958 . S
H2766 C2751 0.961 . S
H2767 C2751 0.960 . S
C2768 C2769 1.391 . S
C2768 C2770 1.394 . S
C2768 H2784 0.931 1_545 S
C2769 C2768 1.391 . S
C2769 C2773 1.376 . S
C2770 C2768 1.394 . S
C2770 C2771 1.369 . S
C2770 C2774 1.531 1_545 S
C2771 C2770 1.369 . S
C2771 C2772 1.410 . S
C2771 C2779 1.503 . S
C2772 C2771 1.410 . S
C2772 C2773 1.392 . S
C2772 C2775 1.511 . S
C2773 C2769 1.376 . S
C2773 C2772 1.392 . S
C2773 H2785 0.929 . S
C2774 C2770 1.531 1_565 S
C2774 H2786 0.960 . S
C2774 H2787 0.962 1_565 S
C2774 H2788 0.960 . S
C2775 C2772 1.511 . S
C2775 H2789 0.961 . S
C2775 H2790 0.961 . S
C2775 H2791 0.961 . S
C2776 C2777 1.370 . S
C2776 C2778 1.363 . S
C2776 H2792 0.931 . S
C2777 C2776 1.370 . S
C2777 C2781 1.408 . S
C2778 C2776 1.363 . S
C2778 C2779 1.370 . S
C2778 C2782 1.524 . S
C2779 C2771 1.503 . S
C2779 C2778 1.370 . S
C2779 C2780 1.403 . S
C2780 C2779 1.403 . S
C2780 C2781 1.404 . S
C2780 C2783 1.539 1_545 S
C2781 C2777 1.408 . S
C2781 C2780 1.404 . S
C2781 H2793 0.930 1_545 S
C2782 C2778 1.524 . S
C2782 H2794 0.956 . S
C2782 H2795 0.961 . S
C2782 H2796 0.961 . S
C2783 C2780 1.539 1_565 S
C2783 H2797 0.958 . S
C2783 H2798 0.961 . S
C2783 H2799 0.960 . S
H2784 C2768 0.931 1_565 S
H2785 C2773 0.929 . S
H2786 C2774 0.960 . S
H2787 C2774 0.962 1_545 S
H2788 C2774 0.960 . S
H2789 C2775 0.961 . S
H2790 C2775 0.961 . S
H2791 C2775 0.961 . S
H2792 C2776 0.931 . S
H2793 C2781 0.930 1_565 S
H2794 C2782 0.956 . S
H2795 C2782 0.961 . S
H2796 C2782 0.961 . S
H2797 C2783 0.958 . S
H2798 C2783 0.961 . S
H2799 C2783 0.960 . S
C2800 C2801 1.391 . S
C2800 C2802 1.394 . S
C2800 H2816 0.931 . S
C2801 C2800 1.391 . S
C2801 C2805 1.376 . S
C2802 C2800 1.394 . S
C2802 C2803 1.369 . S
C2802 C2806 1.531 . S
C2803 C2802 1.369 . S
C2803 C2804 1.410 . S
C2803 C2811 1.503 . S
C2804 C2803 1.410 . S
C2804 C2805 1.392 . S
C2804 C2807 1.511 . S
C2805 C2801 1.376 . S
C2805 C2804 1.392 . S
C2805 H2817 0.929 . S
C2806 C2802 1.531 . S
C2806 H2818 0.960 . S
C2806 H2819 0.962 . S
C2806 H2820 0.960 . S
C2807 C2804 1.511 . S
C2807 H2821 0.961 . S
C2807 H2822 0.961 . S
C2807 H2823 0.961 . S
C2808 C2809 1.370 . S
C2808 C2810 1.363 . S
C2808 H2824 0.931 . S
C2809 C2808 1.370 . S
C2809 C2813 1.408 . S
C2810 C2808 1.363 . S
C2810 C2811 1.370 . S
C2810 C2814 1.524 . S
C2811 C2803 1.503 . S
C2811 C2810 1.370 . S
C2811 C2812 1.403 . S
C2812 C2811 1.403 . S
C2812 C2813 1.404 . S
C2812 C2815 1.539 . S
C2813 C2809 1.408 . S
C2813 C2812 1.404 . S
C2813 H2825 0.930 . S
C2814 C2810 1.524 . S
C2814 H2826 0.956 . S
C2814 H2827 0.961 . S
C2814 H2828 0.961 . S
C2815 C2812 1.539 . S
C2815 H2829 0.958 . S
C2815 H2830 0.961 . S
C2815 H2831 0.960 . S
H2816 C2800 0.931 . S
H2817 C2805 0.929 . S
H2818 C2806 0.960 . S
H2819 C2806 0.962 . S
H2820 C2806 0.960 . S
H2821 C2807 0.961 . S
H2822 C2807 0.961 . S
H2823 C2807 0.961 . S
H2824 C2808 0.931 . S
H2825 C2813 0.930 . S
H2826 C2814 0.956 . S
H2827 C2814 0.961 . S
H2828 C2814 0.961 . S
H2829 C2815 0.958 . S
H2830 C2815 0.961 . S
H2831 C2815 0.960 . S
C2832 C2833 1.391 . S
C2832 C2834 1.394 . S
C2832 H2848 0.931 . S
C2833 C2832 1.391 . S
C2833 C2837 1.376 . S
C2834 C2832 1.394 . S
C2834 C2835 1.369 . S
C2834 C2838 1.531 . S
C2835 C2834 1.369 . S
C2835 C2836 1.410 . S
C2835 C2843 1.503 . S
C2836 C2835 1.410 . S
C2836 C2837 1.392 . S
C2836 C2839 1.511 . S
C2837 C2833 1.376 . S
C2837 C2836 1.392 . S
C2837 H2849 0.929 . S
C2838 C2834 1.531 . S
C2838 H2850 0.960 . S
C2838 H2851 0.962 . S
C2838 H2852 0.960 . S
C2839 C2836 1.511 . S
C2839 H2853 0.961 1_545 S
C2839 H2854 0.960 . S
C2839 H2855 0.961 . S
C2840 C2841 1.370 . S
C2840 C2842 1.363 . S
C2840 H2856 0.931 . S
C2841 C2840 1.370 . S
C2841 C2845 1.408 . S
C2842 C2840 1.363 . S
C2842 C2843 1.370 . S
C2842 C2846 1.524 . S
C2843 C2835 1.503 . S
C2843 C2842 1.370 . S
C2843 C2844 1.403 . S
C2844 C2843 1.403 . S
C2844 C2845 1.404 . S
C2844 C2847 1.539 . S
C2845 C2841 1.408 . S
C2845 C2844 1.404 . S
C2845 H2857 0.930 . S
C2846 C2842 1.524 . S
C2846 H2858 0.956 . S
C2846 H2859 0.961 . S
C2846 H2860 0.961 . S
C2847 C2844 1.539 . S
C2847 H2861 0.958 . S
C2847 H2862 0.961 . S
C2847 H2863 0.960 . S
H2848 C2832 0.931 . S
H2849 C2837 0.929 . S
H2850 C2838 0.960 . S
H2851 C2838 0.962 . S
H2852 C2838 0.960 . S
H2853 C2839 0.961 1_565 S
H2854 C2839 0.960 . S
H2855 C2839 0.961 . S
H2856 C2840 0.931 . S
H2857 C2845 0.930 . S
H2858 C2846 0.956 . S
H2859 C2846 0.961 . S
H2860 C2846 0.961 . S
H2861 C2847 0.958 . S
H2862 C2847 0.961 . S
H2863 C2847 0.960 . S
C2864 C2865 1.391 . S
C2864 C2866 1.394 . S
C2864 H2880 0.931 . S
C2865 C2864 1.391 . S
C2865 C2869 1.376 . S
C2866 C2864 1.394 . S
C2866 C2867 1.369 . S
C2866 C2870 1.531 . S
C2867 C2866 1.369 . S
C2867 C2868 1.410 . S
C2867 C2875 1.503 . S
C2868 C2867 1.410 . S
C2868 C2869 1.392 . S
C2868 C2871 1.511 . S
C2869 C2865 1.376 . S
C2869 C2868 1.392 . S
C2869 H2881 0.929 . S
C2870 C2866 1.531 . S
C2870 H2882 0.960 . S
C2870 H2883 0.962 . S
C2870 H2884 0.960 . S
C2871 C2868 1.511 . S
C2871 H2885 0.961 . S
C2871 H2886 0.961 . S
C2871 H2887 0.961 . S
C2872 C2873 1.370 . S
C2872 C2874 1.363 . S
C2872 H2888 0.931 . S
C2873 C2872 1.370 . S
C2873 C2877 1.408 . S
C2874 C2872 1.363 . S
C2874 C2875 1.370 . S
C2874 C2878 1.524 . S
C2875 C2867 1.503 . S
C2875 C2874 1.370 . S
C2875 C2876 1.403 . S
C2876 C2875 1.403 . S
C2876 C2877 1.404 . S
C2876 C2879 1.539 . S
C2877 C2873 1.408 . S
C2877 C2876 1.404 . S
C2877 H2889 0.930 . S
C2878 C2874 1.524 . S
C2878 H2890 0.956 . S
C2878 H2891 0.961 . S
C2878 H2892 0.961 . S
C2879 C2876 1.539 . S
C2879 H2893 0.958 . S
C2879 H2894 0.961 . S
C2879 H2895 0.960 . S
H2880 C2864 0.931 . S
H2881 C2869 0.929 . S
H2882 C2870 0.960 . S
H2883 C2870 0.962 . S
H2884 C2870 0.960 . S
H2885 C2871 0.961 . S
H2886 C2871 0.961 . S
H2887 C2871 0.961 . S
H2888 C2872 0.931 . S
H2889 C2877 0.930 . S
H2890 C2878 0.956 . S
H2891 C2878 0.961 . S
H2892 C2878 0.961 . S
H2893 C2879 0.958 . S
H2894 C2879 0.961 . S
H2895 C2879 0.960 . S
C2896 C2897 1.391 . S
C2896 C2898 1.394 . S
C2896 H2912 0.931 . S
C2897 C2896 1.391 . S
C2897 C2901 1.376 . S
C2898 C2896 1.394 . S
C2898 C2899 1.369 . S
C2898 C2902 1.531 . S
C2899 C2898 1.369 . S
C2899 C2900 1.410 . S
C2899 C2907 1.503 . S
C2900 C2899 1.410 . S
C2900 C2901 1.392 . S
C2900 C2903 1.511 . S
C2901 C2897 1.376 . S
C2901 C2900 1.392 . S
C2901 H2913 0.929 . S
C2902 C2898 1.531 . S
C2902 H2914 0.960 . S
C2902 H2915 0.962 . S
C2902 H2916 0.960 . S
C2903 C2900 1.511 . S
C2903 H2917 0.961 1_545 S
C2903 H2918 0.958 1_545 S
C2903 H2919 0.961 . S
C2904 C2905 1.370 1_565 S
C2904 C2906 1.363 . S
C2904 H2920 0.931 . S
C2905 C2904 1.370 1_545 S
C2905 C2909 1.408 . S
C2906 C2904 1.363 . S
C2906 C2907 1.370 1_565 S
C2906 C2910 1.524 . S
C2907 C2899 1.503 . S
C2907 C2906 1.370 1_545 S
C2907 C2908 1.403 . S
C2908 C2907 1.403 . S
C2908 C2909 1.404 . S
C2908 C2911 1.539 . S
C2909 C2905 1.408 . S
C2909 C2908 1.404 . S
C2909 H2921 0.930 . S
C2910 C2906 1.524 . S
C2910 H2922 0.956 . S
C2910 H2923 0.961 . S
C2910 H2924 0.961 . S
C2911 C2908 1.539 . S
C2911 H2925 0.958 . S
C2911 H2926 0.961 . S
C2911 H2927 0.960 . S
H2912 C2896 0.931 . S
H2913 C2901 0.929 . S
H2914 C2902 0.960 . S
H2915 C2902 0.962 . S
H2916 C2902 0.960 . S
H2917 C2903 0.961 1_565 S
H2918 C2903 0.958 1_565 S
H2919 C2903 0.961 . S
H2920 C2904 0.931 . S
H2921 C2909 0.930 . S
H2922 C2910 0.956 . S
H2923 C2910 0.961 . S
H2924 C2910 0.961 . S
H2925 C2911 0.958 . S
H2926 C2911 0.961 . S
H2927 C2911 0.960 . S
C2928 C2929 1.391 . S
C2928 C2930 1.394 . S
C2928 H2944 0.931 . S
C2929 C2928 1.391 . S
C2929 C2933 1.376 . S
C2930 C2928 1.394 . S
C2930 C2931 1.369 . S
C2930 C2934 1.531 . S
C2931 C2930 1.369 . S
C2931 C2932 1.410 . S
C2931 C2939 1.503 . S
C2932 C2931 1.410 . S
C2932 C2933 1.392 . S
C2932 C2935 1.511 . S
C2933 C2929 1.376 . S
C2933 C2932 1.392 . S
C2933 H2945 0.929 . S
C2934 C2930 1.531 . S
C2934 H2946 0.960 . S
C2934 H2947 0.962 . S
C2934 H2948 0.960 . S
C2935 C2932 1.511 . S
C2935 H2949 0.961 . S
C2935 H2950 0.961 . S
C2935 H2951 0.961 . S
C2936 C2937 1.370 . S
C2936 C2938 1.363 . S
C2936 H2952 0.931 . S
C2937 C2936 1.370 . S
C2937 C2941 1.408 . S
C2938 C2936 1.363 . S
C2938 C2939 1.370 . S
C2938 C2942 1.524 . S
C2939 C2931 1.503 . S
C2939 C2938 1.370 . S
C2939 C2940 1.403 . S
C2940 C2939 1.403 . S
C2940 C2941 1.404 . S
C2940 C2943 1.539 . S
C2941 C2937 1.408 . S
C2941 C2940 1.404 . S
C2941 H2953 0.930 . S
C2942 C2938 1.524 . S
C2942 H2954 0.956 . S
C2942 H2955 0.961 . S
C2942 H2956 0.961 . S
C2943 C2940 1.539 . S
C2943 H2957 0.958 . S
C2943 H2958 0.961 . S
C2943 H2959 0.960 . S
H2944 C2928 0.931 . S
H2945 C2933 0.929 . S
H2946 C2934 0.960 . S
H2947 C2934 0.962 . S
H2948 C2934 0.960 . S
H2949 C2935 0.961 . S
H2950 C2935 0.961 . S
H2951 C2935 0.961 . S
H2952 C2936 0.931 . S
H2953 C2941 0.930 . S
H2954 C2942 0.956 . S
H2955 C2942 0.961 . S
H2956 C2942 0.961 . S
H2957 C2943 0.958 . S
H2958 C2943 0.961 . S
H2959 C2943 0.960 . S
C2960 C2961 1.391 . S
C2960 C2962 1.394 . S
C2960 H2976 0.931 . S
C2961 C2960 1.391 . S
C2961 C2965 1.376 . S
C2962 C2960 1.394 . S
C2962 C2963 1.369 . S
C2962 C2966 1.531 . S
C2963 C2962 1.369 . S
C2963 C2964 1.410 . S
C2963 C2971 1.503 . S
C2964 C2963 1.410 . S
C2964 C2965 1.392 . S
C2964 C2967 1.511 . S
C2965 C2961 1.376 . S
C2965 C2964 1.392 . S
C2965 H2977 0.929 . S
C2966 C2962 1.531 . S
C2966 H2978 0.960 . S
C2966 H2979 0.962 . S
C2966 H2980 0.960 . S
C2967 C2964 1.511 . S
C2967 H2981 0.961 . S
C2967 H2982 0.961 . S
C2967 H2983 0.961 . S
C2968 C2969 1.370 . S
C2968 C2970 1.363 . S
C2968 H2984 0.931 . S
C2969 C2968 1.370 . S
C2969 C2973 1.408 . S
C2970 C2968 1.363 . S
C2970 C2971 1.370 . S
C2970 C2974 1.524 . S
C2971 C2963 1.503 . S
C2971 C2970 1.370 . S
C2971 C2972 1.403 . S
C2972 C2971 1.403 . S
C2972 C2973 1.404 . S
C2972 C2975 1.539 1_554 S
C2973 C2969 1.408 . S
C2973 C2972 1.404 . S
C2973 H2985 0.930 1_554 S
C2974 C2970 1.524 . S
C2974 H2986 0.956 . S
C2974 H2987 0.961 . S
C2974 H2988 0.961 . S
C2975 C2972 1.539 1_556 S
C2975 H2989 0.958 . S
C2975 H2990 0.961 . S
C2975 H2991 0.960 . S
H2976 C2960 0.931 . S
H2977 C2965 0.929 . S
H2978 C2966 0.960 . S
H2979 C2966 0.962 . S
H2980 C2966 0.960 . S
H2981 C2967 0.961 . S
H2982 C2967 0.961 . S
H2983 C2967 0.961 . S
H2984 C2968 0.931 . S
H2985 C2973 0.930 1_556 S
H2986 C2974 0.956 . S
H2987 C2974 0.961 . S
H2988 C2974 0.961 . S
H2989 C2975 0.958 . S
H2990 C2975 0.961 . S
H2991 C2975 0.960 . S
C2992 C2993 1.391 . S
C2992 C2994 1.394 . S
C2992 H3008 0.931 . S
C2993 C2992 1.391 . S
C2993 C2997 1.376 . S
C2994 C2992 1.394 . S
C2994 C2995 1.369 . S
C2994 C2998 1.531 . S
C2995 C2994 1.369 . S
C2995 C2996 1.410 . S
C2995 C3003 1.503 . S
C2996 C2995 1.410 . S
C2996 C2997 1.392 . S
C2996 C2999 1.511 . S
C2997 C2993 1.376 . S
C2997 C2996 1.392 . S
C2997 H3009 0.929 . S
C2998 C2994 1.531 . S
C2998 H3010 0.960 . S
C2998 H3011 0.962 . S
C2998 H3012 0.960 . S
C2999 C2996 1.511 . S
C2999 H3013 0.961 . S
C2999 H3014 0.961 . S
C2999 H3015 0.961 . S
C3000 C3001 1.370 . S
C3000 C3002 1.363 . S
C3000 H3016 0.931 . S
C3001 C3000 1.370 . S
C3001 C3005 1.408 . S
C3002 C3000 1.363 . S
C3002 C3003 1.370 . S
C3002 C3006 1.524 . S
C3003 C2995 1.503 . S
C3003 C3002 1.370 . S
C3003 C3004 1.403 . S
C3004 C3003 1.403 . S
C3004 C3005 1.404 . S
C3004 C3007 1.539 . S
C3005 C3001 1.408 . S
C3005 C3004 1.404 . S
C3005 H3017 0.930 . S
C3006 C3002 1.524 . S
C3006 H3018 0.956 . S
C3006 H3019 0.961 . S
C3006 H3020 0.961 1_554 S
C3007 C3004 1.539 . S
C3007 H3021 0.958 . S
C3007 H3022 0.961 . S
C3007 H3023 0.960 . S
H3008 C2992 0.931 . S
H3009 C2997 0.929 . S
H3010 C2998 0.960 . S
H3011 C2998 0.962 . S
H3012 C2998 0.960 . S
H3013 C2999 0.961 . S
H3014 C2999 0.961 . S
H3015 C2999 0.961 . S
H3016 C3000 0.931 . S
H3017 C3005 0.930 . S
H3018 C3006 0.956 . S
H3019 C3006 0.961 . S
H3020 C3006 0.961 1_556 S
H3021 C3007 0.958 . S
H3022 C3007 0.961 . S
H3023 C3007 0.960 . S
C3024 C3025 1.391 . S
C3024 C3026 1.394 . S
C3024 H3040 0.931 . S
C3025 C3024 1.391 . S
C3025 C3029 1.376 . S
C3026 C3024 1.394 . S
C3026 C3027 1.369 . S
C3026 C3030 1.531 . S
C3027 C3026 1.369 . S
C3027 C3028 1.410 . S
C3027 C3035 1.503 . S
C3028 C3027 1.410 . S
C3028 C3029 1.392 . S
C3028 C3031 1.511 . S
C3029 C3025 1.376 . S
C3029 C3028 1.392 . S
C3029 H3041 0.929 . S
C3030 C3026 1.531 . S
C3030 H3042 0.960 . S
C3030 H3043 0.962 . S
C3030 H3044 0.960 . S
C3031 C3028 1.511 . S
C3031 H3045 0.961 . S
C3031 H3046 0.961 . S
C3031 H3047 0.961 . S
C3032 C3033 1.370 . S
C3032 C3034 1.363 . S
C3032 H3048 0.931 . S
C3033 C3032 1.370 . S
C3033 C3037 1.408 . S
C3034 C3032 1.363 . S
C3034 C3035 1.370 . S
C3034 C3038 1.524 . S
C3035 C3027 1.503 . S
C3035 C3034 1.370 . S
C3035 C3036 1.403 . S
C3036 C3035 1.403 . S
C3036 C3037 1.404 . S
C3036 C3039 1.539 . S
C3037 C3033 1.408 . S
C3037 C3036 1.404 . S
C3037 H3049 0.930 . S
C3038 C3034 1.524 . S
C3038 H3050 0.956 . S
C3038 H3051 0.961 . S
C3038 H3052 0.961 . S
C3039 C3036 1.539 . S
C3039 H3053 0.958 . S
C3039 H3054 0.961 . S
C3039 H3055 0.960 . S
H3040 C3024 0.931 . S
H3041 C3029 0.929 . S
H3042 C3030 0.960 . S
H3043 C3030 0.962 . S
H3044 C3030 0.960 . S
H3045 C3031 0.961 . S
H3046 C3031 0.961 . S
H3047 C3031 0.961 . S
H3048 C3032 0.931 . S
H3049 C3037 0.930 . S
H3050 C3038 0.956 . S
H3051 C3038 0.961 . S
H3052 C3038 0.961 . S
H3053 C3039 0.958 . S
H3054 C3039 0.961 . S
H3055 C3039 0.960 . S
C3056 C3057 1.391 . S
C3056 C3058 1.394 . S
C3056 H3072 0.931 . S
C3057 C3056 1.391 . S
C3057 C3061 1.376 . S
C3058 C3056 1.394 . S
C3058 C3059 1.369 . S
C3058 C3062 1.531 . S
C3059 C3058 1.369 . S
C3059 C3060 1.410 . S
C3059 C3067 1.503 . S
C3060 C3059 1.410 . S
C3060 C3061 1.392 . S
C3060 C3063 1.511 . S
C3061 C3057 1.376 . S
C3061 C3060 1.392 . S
C3061 H3073 0.929 . S
C3062 C3058 1.531 . S
C3062 H3074 0.960 . S
C3062 H3075 0.962 . S
C3062 H3076 0.960 . S
C3063 C3060 1.511 . S
C3063 H3077 0.961 . S
C3063 H3078 0.961 . S
C3063 H3079 0.961 . S
C3064 C3065 1.370 . S
C3064 C3066 1.363 . S
C3064 H3080 0.931 . S
C3065 C3064 1.370 . S
C3065 C3069 1.408 . S
C3066 C3064 1.363 . S
C3066 C3067 1.370 . S
C3066 C3070 1.524 . S
C3067 C3059 1.503 . S
C3067 C3066 1.370 . S
C3067 C3068 1.403 . S
C3068 C3067 1.403 . S
C3068 C3069 1.404 . S
C3068 C3071 1.539 . S
C3069 C3065 1.408 . S
C3069 C3068 1.404 . S
C3069 H3081 0.930 . S
C3070 C3066 1.524 . S
C3070 H3082 0.956 . S
C3070 H3083 0.961 . S
C3070 H3084 0.961 . S
C3071 C3068 1.539 . S
C3071 H3085 0.958 . S
C3071 H3086 0.961 . S
C3071 H3087 0.960 . S
H3072 C3056 0.931 . S
H3073 C3061 0.929 . S
H3074 C3062 0.960 . S
H3075 C3062 0.962 . S
H3076 C3062 0.960 . S
H3077 C3063 0.961 . S
H3078 C3063 0.961 . S
H3079 C3063 0.961 . S
H3080 C3064 0.931 . S
H3081 C3069 0.930 . S
H3082 C3070 0.956 . S
H3083 C3070 0.961 . S
H3084 C3070 0.961 . S
H3085 C3071 0.958 . S
H3086 C3071 0.961 . S
H3087 C3071 0.960 . S
C3088 C3089 1.391 . S
C3088 C3090 1.394 . S
C3088 H3104 0.931 1_565 S
C3089 C3088 1.391 . S
C3089 C3093 1.376 . S
C3090 C3088 1.394 . S
C3090 C3091 1.369 . S
C3090 C3094 1.531 . S
C3091 C3090 1.369 . S
C3091 C3092 1.410 . S
C3091 C3099 1.503 . S
C3092 C3091 1.410 . S
C3092 C3093 1.392 . S
C3092 C3095 1.511 . S
C3093 C3089 1.376 . S
C3093 C3092 1.392 . S
C3093 H3105 0.929 . S
C3094 C3090 1.531 . S
C3094 H3106 0.960 . S
C3094 H3107 0.962 . S
C3094 H3108 0.960 . S
C3095 C3092 1.511 . S
C3095 H3109 0.961 . S
C3095 H3110 0.961 . S
C3095 H3111 0.961 . S
C3096 C3097 1.370 . S
C3096 C3098 1.363 . S
C3096 H3112 0.931 . S
C3097 C3096 1.370 . S
C3097 C3101 1.408 . S
C3098 C3096 1.363 . S
C3098 C3099 1.370 . S
C3098 C3102 1.524 . S
C3099 C3091 1.503 . S
C3099 C3098 1.370 . S
C3099 C3100 1.403 . S
C3100 C3099 1.403 . S
C3100 C3101 1.404 . S
C3100 C3103 1.539 . S
C3101 C3097 1.408 . S
C3101 C3100 1.404 . S
C3101 H3113 0.930 . S
C3102 C3098 1.524 . S
C3102 H3114 0.956 . S
C3102 H3115 0.961 . S
C3102 H3116 0.961 . S
C3103 C3100 1.539 . S
C3103 H3117 0.958 . S
C3103 H3118 0.961 . S
C3103 H3119 0.960 . S
H3104 C3088 0.931 1_545 S
H3105 C3093 0.929 . S
H3106 C3094 0.960 . S
H3107 C3094 0.962 . S
H3108 C3094 0.960 . S
H3109 C3095 0.961 . S
H3110 C3095 0.961 . S
H3111 C3095 0.961 . S
H3112 C3096 0.931 . S
H3113 C3101 0.930 . S
H3114 C3102 0.956 . S
H3115 C3102 0.961 . S
H3116 C3102 0.961 . S
H3117 C3103 0.958 . S
H3118 C3103 0.961 . S
H3119 C3103 0.960 . S
C3120 C3121 1.391 . S
C3120 C3122 1.394 . S
C3120 H3136 0.931 . S
C3121 C3120 1.391 . S
C3121 C3125 1.376 . S
C3122 C3120 1.394 . S
C3122 C3123 1.369 . S
C3122 C3126 1.531 . S
C3123 C3122 1.369 . S
C3123 C3124 1.410 . S
C3123 C3131 1.503 . S
C3124 C3123 1.410 . S
C3124 C3125 1.392 . S
C3124 C3127 1.511 . S
C3125 C3121 1.376 . S
C3125 C3124 1.392 . S
C3125 H3137 0.929 . S
C3126 C3122 1.531 . S
C3126 H3138 0.960 . S
C3126 H3139 0.962 . S
C3126 H3140 0.960 . S
C3127 C3124 1.511 . S
C3127 H3141 0.961 . S
C3127 H3142 0.961 . S
C3127 H3143 0.961 . S
C3128 C3129 1.370 . S
C3128 C3130 1.363 . S
C3128 H3144 0.931 . S
C3129 C3128 1.370 . S
C3129 C3133 1.408 . S
C3130 C3128 1.363 . S
C3130 C3131 1.370 . S
C3130 C3134 1.524 . S
C3131 C3123 1.503 . S
C3131 C3130 1.370 . S
C3131 C3132 1.403 . S
C3132 C3131 1.403 . S
C3132 C3133 1.404 . S
C3132 C3135 1.539 . S
C3133 C3129 1.408 . S
C3133 C3132 1.404 . S
C3133 H3145 0.930 . S
C3134 C3130 1.524 . S
C3134 H3146 0.956 . S
C3134 H3147 0.961 . S
C3134 H3148 0.961 . S
C3135 C3132 1.539 . S
C3135 H3149 0.958 . S
C3135 H3150 0.961 . S
C3135 H3151 0.960 . S
H3136 C3120 0.931 . S
H3137 C3125 0.929 . S
H3138 C3126 0.960 . S
H3139 C3126 0.962 . S
H3140 C3126 0.960 . S
H3141 C3127 0.961 . S
H3142 C3127 0.961 . S
H3143 C3127 0.961 . S
H3144 C3128 0.931 . S
H3145 C3133 0.930 . S
H3146 C3134 0.956 . S
H3147 C3134 0.961 . S
H3148 C3134 0.961 . S
H3149 C3135 0.958 . S
H3150 C3135 0.961 . S
H3151 C3135 0.960 . S
C3152 C3153 1.391 . S
C3152 C3154 1.394 . S
C3152 H3168 0.931 . S
C3153 C3152 1.391 . S
C3153 C3157 1.376 . S
C3154 C3152 1.394 . S
C3154 C3155 1.369 . S
C3154 C3158 1.531 . S
C3155 C3154 1.369 . S
C3155 C3156 1.410 . S
C3155 C3163 1.503 . S
C3156 C3155 1.410 . S
C3156 C3157 1.392 . S
C3156 C3159 1.511 . S
C3157 C3153 1.376 . S
C3157 C3156 1.392 . S
C3157 H3169 0.929 . S
C3158 C3154 1.531 . S
C3158 H3170 0.960 . S
C3158 H3171 0.962 . S
C3158 H3172 0.960 . S
C3159 C3156 1.511 . S
C3159 H3173 0.961 . S
C3159 H3174 0.961 . S
C3159 H3175 0.961 . S
C3160 C3161 1.370 . S
C3160 C3162 1.363 . S
C3160 H3176 0.931 . S
C3161 C3160 1.370 . S
C3161 C3165 1.408 . S
C3162 C3160 1.363 . S
C3162 C3163 1.370 . S
C3162 C3166 1.524 . S
C3163 C3155 1.503 . S
C3163 C3162 1.370 . S
C3163 C3164 1.403 . S
C3164 C3163 1.403 . S
C3164 C3165 1.404 . S
C3164 C3167 1.539 . S
C3165 C3161 1.408 . S
C3165 C3164 1.404 . S
C3165 H3177 0.930 . S
C3166 C3162 1.524 . S
C3166 H3178 0.956 . S
C3166 H3179 0.961 . S
C3166 H3180 0.961 . S
C3167 C3164 1.539 . S
C3167 H3181 0.958 . S
C3167 H3182 0.961 . S
C3167 H3183 0.960 . S
H3168 C3152 0.931 . S
H3169 C3157 0.929 . S
H3170 C3158 0.960 . S
H3171 C3158 0.962 . S
H3172 C3158 0.960 . S
H3173 C3159 0.961 . S
H3174 C3159 0.961 . S
H3175 C3159 0.961 . S
H3176 C3160 0.931 . S
H3177 C3165 0.930 . S
H3178 C3166 0.956 . S
H3179 C3166 0.961 . S
H3180 C3166 0.961 . S
H3181 C3167 0.958 . S
H3182 C3167 0.961 . S
H3183 C3167 0.960 . S
C3184 C3185 1.391 . S
C3184 C3186 1.394 . S
C3184 H3200 0.931 . S
C3185 C3184 1.391 . S
C3185 C3189 1.376 . S
C3186 C3184 1.394 . S
C3186 C3187 1.369 . S
C3186 C3190 1.531 . S
C3187 C3186 1.369 . S
C3187 C3188 1.410 . S
C3187 C3195 1.503 . S
C3188 C3187 1.410 . S
C3188 C3189 1.392 . S
C3188 C3191 1.511 . S
C3189 C3185 1.376 . S
C3189 C3188 1.392 . S
C3189 H3201 0.929 . S
C3190 C3186 1.531 . S
C3190 H3202 0.960 . S
C3190 H3203 0.962 . S
C3190 H3204 0.960 . S
C3191 C3188 1.511 . S
C3191 H3205 0.961 . S
C3191 H3206 0.961 . S
C3191 H3207 0.961 . S
C3192 C3193 1.370 . S
C3192 C3194 1.363 . S
C3192 H3208 0.931 . S
C3193 C3192 1.370 . S
C3193 C3197 1.408 . S
C3194 C3192 1.363 . S
C3194 C3195 1.370 . S
C3194 C3198 1.524 . S
C3195 C3187 1.503 . S
C3195 C3194 1.370 . S
C3195 C3196 1.403 . S
C3196 C3195 1.403 . S
C3196 C3197 1.404 . S
C3196 C3199 1.539 . S
C3197 C3193 1.408 . S
C3197 C3196 1.404 . S
C3197 H3209 0.930 . S
C3198 C3194 1.524 . S
C3198 H3210 0.956 . S
C3198 H3211 0.961 . S
C3198 H3212 0.961 . S
C3199 C3196 1.539 . S
C3199 H3213 0.958 . S
C3199 H3214 0.961 . S
C3199 H3215 0.960 . S
H3200 C3184 0.931 . S
H3201 C3189 0.929 . S
H3202 C3190 0.960 . S
H3203 C3190 0.962 . S
H3204 C3190 0.960 . S
H3205 C3191 0.961 . S
H3206 C3191 0.961 . S
H3207 C3191 0.961 . S
H3208 C3192 0.931 . S
H3209 C3197 0.930 . S
H3210 C3198 0.956 . S
H3211 C3198 0.961 . S
H3212 C3198 0.961 . S
H3213 C3199 0.958 . S
H3214 C3199 0.961 . S
H3215 C3199 0.960 . S
C3216 C3217 1.391 . S
C3216 C3218 1.394 . S
C3216 H3232 0.931 . S
C3217 C3216 1.391 . S
C3217 C3221 1.376 . S
C3218 C3216 1.394 . S
C3218 C3219 1.369 . S
C3218 C3222 1.531 . S
C3219 C3218 1.369 . S
C3219 C3220 1.410 . S
C3219 C3227 1.503 . S
C3220 C3219 1.410 . S
C3220 C3221 1.392 . S
C3220 C3223 1.511 . S
C3221 C3217 1.376 . S
C3221 C3220 1.392 . S
C3221 H3233 0.929 . S
C3222 C3218 1.531 . S
C3222 H3234 0.960 . S
C3222 H3235 0.962 . S
C3222 H3236 0.960 . S
C3223 C3220 1.511 . S
C3223 H3237 0.961 . S
C3223 H3238 0.961 . S
C3223 H3239 0.961 . S
C3224 C3225 1.370 . S
C3224 C3226 1.363 . S
C3224 H3240 0.931 . S
C3225 C3224 1.370 . S
C3225 C3229 1.408 . S
C3226 C3224 1.363 . S
C3226 C3227 1.370 . S
C3226 C3230 1.524 . S
C3227 C3219 1.503 . S
C3227 C3226 1.370 . S
C3227 C3228 1.403 . S
C3228 C3227 1.403 . S
C3228 C3229 1.404 . S
C3228 C3231 1.539 . S
C3229 C3225 1.408 . S
C3229 C3228 1.404 . S
C3229 H3241 0.930 . S
C3230 C3226 1.524 . S
C3230 H3242 0.956 . S
C3230 H3243 0.961 . S
C3230 H3244 0.961 . S
C3231 C3228 1.539 . S
C3231 H3245 0.958 . S
C3231 H3246 0.961 . S
C3231 H3247 0.960 . S
H3232 C3216 0.931 . S
H3233 C3221 0.929 . S
H3234 C3222 0.960 . S
H3235 C3222 0.962 . S
H3236 C3222 0.960 . S
H3237 C3223 0.961 . S
H3238 C3223 0.961 . S
H3239 C3223 0.961 . S
H3240 C3224 0.931 . S
H3241 C3229 0.930 . S
H3242 C3230 0.956 . S
H3243 C3230 0.961 . S
H3244 C3230 0.961 . S
H3245 C3231 0.958 . S
H3246 C3231 0.961 . S
H3247 C3231 0.960 . S
C3248 C3249 1.391 . S
C3248 C3250 1.394 . S
C3248 H3264 0.931 . S
C3249 C3248 1.391 . S
C3249 C3253 1.376 . S
C3250 C3248 1.394 . S
C3250 C3251 1.369 . S
C3250 C3254 1.531 . S
C3251 C3250 1.369 . S
C3251 C3252 1.410 . S
C3251 C3259 1.503 . S
C3252 C3251 1.410 . S
C3252 C3253 1.392 . S
C3252 C3255 1.511 . S
C3253 C3249 1.376 . S
C3253 C3252 1.392 . S
C3253 H3265 0.929 . S
C3254 C3250 1.531 . S
C3254 H3266 0.960 . S
C3254 H3267 0.962 . S
C3254 H3268 0.960 . S
C3255 C3252 1.511 . S
C3255 H3269 0.961 . S
C3255 H3270 0.961 . S
C3255 H3271 0.961 . S
C3256 C3257 1.370 . S
C3256 C3258 1.363 . S
C3256 H3272 0.931 . S
C3257 C3256 1.370 . S
C3257 C3261 1.408 . S
C3258 C3256 1.363 . S
C3258 C3259 1.370 . S
C3258 C3262 1.524 . S
C3259 C3251 1.503 . S
C3259 C3258 1.370 . S
C3259 C3260 1.403 . S
C3260 C3259 1.403 . S
C3260 C3261 1.404 . S
C3260 C3263 1.539 . S
C3261 C3257 1.408 . S
C3261 C3260 1.404 . S
C3261 H3273 0.930 . S
C3262 C3258 1.524 . S
C3262 H3274 0.956 . S
C3262 H3275 0.961 . S
C3262 H3276 0.961 . S
C3263 C3260 1.539 . S
C3263 H3277 0.958 . S
C3263 H3278 0.961 . S
C3263 H3279 0.960 . S
H3264 C3248 0.931 . S
H3265 C3253 0.929 . S
H3266 C3254 0.960 . S
H3267 C3254 0.962 . S
H3268 C3254 0.960 . S
H3269 C3255 0.961 . S
H3270 C3255 0.961 . S
H3271 C3255 0.961 . S
H3272 C3256 0.931 . S
H3273 C3261 0.930 . S
H3274 C3262 0.956 . S
H3275 C3262 0.961 . S
H3276 C3262 0.961 . S
H3277 C3263 0.958 . S
H3278 C3263 0.961 . S
H3279 C3263 0.960 . S
C3280 C3281 1.376 1_655 S
C3280 C3282 1.396 1_656 S
C3280 H3296 0.943 1_556 S
C3281 C3280 1.376 1_455 S
C3281 C3285 1.376 . S
C3282 C3280 1.396 1_454 S
C3282 C3283 1.369 1_554 S
C3282 C3286 1.531 1_455 S
C3283 C3282 1.369 1_556 S
C3283 C3284 1.410 . S
C3283 C3291 1.503 1_556 S
C3284 C3283 1.410 . S
C3284 C3285 1.392 . S
C3284 C3287 1.511 . S
C3285 C3281 1.376 . S
C3285 C3284 1.392 . S
C3285 H3297 0.929 . S
C3286 C3282 1.531 1_655 S
C3286 H3298 0.960 . S
C3286 H3299 0.962 . S
C3286 H3300 0.960 . S
C3287 C3284 1.511 . S
C3287 H3301 0.961 . S
C3287 H3302 0.961 . S
C3287 H3303 0.961 . S
C3288 C3289 1.370 1_556 S
C3288 C3290 1.363 . S
C3288 H3304 0.931 1_455 S
C3289 C3288 1.370 1_554 S
C3289 C3293 1.408 . S
C3290 C3288 1.363 . S
C3290 C3291 1.370 1_556 S
C3290 C3294 1.524 1_455 S
C3291 C3283 1.503 1_554 S
C3291 C3290 1.370 1_554 S
C3291 C3292 1.403 . S
C3292 C3291 1.403 . S
C3292 C3293 1.404 . S
C3292 C3295 1.539 . S
C3293 C3289 1.408 . S
C3293 C3292 1.404 . S
C3293 H3305 0.930 . S
C3294 C3290 1.524 1_655 S
C3294 H3306 0.956 . S
C3294 H3307 0.961 . S
C3294 H3308 0.961 . S
C3295 C3292 1.539 . S
C3295 H3309 0.958 . S
C3295 H3310 0.961 . S
C3295 H3311 0.960 . S
H3296 C3280 0.943 1_554 S
H3297 C3285 0.929 . S
H3298 C3286 0.960 . S
H3299 C3286 0.962 . S
H3300 C3286 0.960 . S
H3301 C3287 0.961 . S
H3302 C3287 0.961 . S
H3303 C3287 0.961 . S
H3304 C3288 0.931 1_655 S
H3305 C3293 0.930 . S
H3306 C3294 0.956 . S
H3307 C3294 0.961 . S
H3308 C3294 0.961 . S
H3309 C3295 0.958 . S
H3310 C3295 0.961 . S
H3311 C3295 0.960 . S
C3312 C3313 1.389 . S
C3312 C3314 1.394 1_455 S
C3312 H3328 0.931 . S
C3313 C3312 1.389 . S
C3313 C3317 1.341 1_455 S
C3314 C3312 1.394 1_655 S
C3314 C3315 1.369 . S
C3314 C3318 1.531 . S
C3315 C3314 1.369 . S
C3315 C3316 1.410 . S
C3315 C3323 1.503 . S
C3316 C3315 1.410 . S
C3316 C3317 1.392 . S
C3316 C3319 1.511 . S
C3317 C3313 1.341 1_655 S
C3317 C3316 1.392 . S
C3317 H3329 0.929 . S
C3318 C3314 1.531 . S
C3318 H3330 0.960 . S
C3318 H3331 0.962 . S
C3318 H3332 0.960 1_655 S
C3319 C3316 1.511 . S
C3319 H3333 0.961 . S
C3319 H3334 0.961 . S
C3319 H3335 0.961 . S
C3320 C3321 1.370 . S
C3320 C3322 1.363 . S
C3320 H3336 0.931 . S
C3321 C3320 1.370 . S
C3321 C3325 1.408 . S
C3322 C3320 1.363 . S
C3322 C3323 1.370 . S
C3322 C3326 1.524 . S
C3323 C3315 1.503 . S
C3323 C3322 1.370 . S
C3323 C3324 1.403 . S
C3324 C3323 1.403 . S
C3324 C3325 1.404 . S
C3324 C3327 1.539 . S
C3325 C3321 1.408 . S
C3325 C3324 1.404 . S
C3325 H3337 0.930 . S
C3326 C3322 1.524 . S
C3326 H3338 0.956 . S
C3326 H3339 0.961 . S
C3326 H3340 0.961 . S
C3327 C3324 1.539 . S
C3327 H3341 0.958 . S
C3327 H3342 0.961 . S
C3327 H3343 0.960 . S
H3328 C3312 0.931 . S
H3329 C3317 0.929 . S
H3330 C3318 0.960 . S
H3331 C3318 0.962 . S
H3332 C3318 0.960 1_455 S
H3333 C3319 0.961 . S
H3334 C3319 0.961 . S
H3335 C3319 0.961 . S
H3336 C3320 0.931 . S
H3337 C3325 0.930 . S
H3338 C3326 0.956 . S
H3339 C3326 0.961 . S
H3340 C3326 0.961 . S
H3341 C3327 0.958 . S
H3342 C3327 0.961 . S
H3343 C3327 0.960 . S
C3344 C3345 1.391 . S
C3344 C3346 1.394 . S
C3344 H3360 0.931 . S
C3345 C3344 1.391 . S
C3345 C3349 1.376 . S
C3346 C3344 1.394 . S
C3346 C3347 1.369 . S
C3346 C3350 1.531 . S
C3347 C3346 1.369 . S
C3347 C3348 1.410 . S
C3347 C3355 1.503 . S
C3348 C3347 1.410 . S
C3348 C3349 1.392 . S
C3348 C3351 1.511 . S
C3349 C3345 1.376 . S
C3349 C3348 1.392 . S
C3349 H3361 0.929 . S
C3350 C3346 1.531 . S
C3350 H3362 0.960 . S
C3350 H3363 0.962 . S
C3350 H3364 0.960 . S
C3351 C3348 1.511 . S
C3351 H3365 0.961 . S
C3351 H3366 0.961 . S
C3351 H3367 0.961 . S
C3352 C3353 1.370 . S
C3352 C3354 1.363 . S
C3352 H3368 0.931 . S
C3353 C3352 1.370 . S
C3353 C3357 1.408 . S
C3354 C3352 1.363 . S
C3354 C3355 1.370 . S
C3354 C3358 1.524 . S
C3355 C3347 1.503 . S
C3355 C3354 1.370 . S
C3355 C3356 1.403 . S
C3356 C3355 1.403 . S
C3356 C3357 1.404 . S
C3356 C3359 1.539 . S
C3357 C3353 1.408 . S
C3357 C3356 1.404 . S
C3357 H3369 0.930 . S
C3358 C3354 1.524 . S
C3358 H3370 0.956 . S
C3358 H3371 0.961 . S
C3358 H3372 0.961 . S
C3359 C3356 1.539 . S
C3359 H3373 0.958 . S
C3359 H3374 0.961 . S
C3359 H3375 0.960 . S
H3360 C3344 0.931 . S
H3361 C3349 0.929 . S
H3362 C3350 0.960 . S
H3363 C3350 0.962 . S
H3364 C3350 0.960 . S
H3365 C3351 0.961 . S
H3366 C3351 0.961 . S
H3367 C3351 0.961 . S
H3368 C3352 0.931 . S
H3369 C3357 0.930 . S
H3370 C3358 0.956 . S
H3371 C3358 0.961 . S
H3372 C3358 0.961 . S
H3373 C3359 0.958 . S
H3374 C3359 0.961 . S
H3375 C3359 0.960 . S
C3376 C3377 1.391 . S
C3376 C3378 1.394 . S
C3376 H3392 0.931 . S
C3377 C3376 1.391 . S
C3377 C3381 1.376 . S
C3378 C3376 1.394 . S
C3378 C3379 1.369 . S
C3378 C3382 1.531 . S
C3379 C3378 1.369 . S
C3379 C3380 1.410 . S
C3379 C3387 1.503 . S
C3380 C3379 1.410 . S
C3380 C3381 1.392 . S
C3380 C3383 1.511 . S
C3381 C3377 1.376 . S
C3381 C3380 1.392 . S
C3381 H3393 0.929 . S
C3382 C3378 1.531 . S
C3382 H3394 0.960 . S
C3382 H3395 0.962 . S
C3382 H3396 0.960 . S
C3383 C3380 1.511 . S
C3383 H3397 0.961 . S
C3383 H3398 0.961 . S
C3383 H3399 0.961 . S
C3384 C3385 1.370 . S
C3384 C3386 1.363 . S
C3384 H3400 0.931 . S
C3385 C3384 1.370 . S
C3385 C3389 1.408 . S
C3386 C3384 1.363 . S
C3386 C3387 1.370 . S
C3386 C3390 1.524 . S
C3387 C3379 1.503 . S
C3387 C3386 1.370 . S
C3387 C3388 1.403 . S
C3388 C3387 1.403 . S
C3388 C3389 1.404 . S
C3388 C3391 1.539 . S
C3389 C3385 1.408 . S
C3389 C3388 1.404 . S
C3389 H3401 0.930 . S
C3390 C3386 1.524 . S
C3390 H3402 0.956 . S
C3390 H3403 0.961 . S
C3390 H3404 0.961 . S
C3391 C3388 1.539 . S
C3391 H3405 0.958 . S
C3391 H3406 0.961 . S
C3391 H3407 0.960 . S
H3392 C3376 0.931 . S
H3393 C3381 0.929 . S
H3394 C3382 0.960 . S
H3395 C3382 0.962 . S
H3396 C3382 0.960 . S
H3397 C3383 0.961 . S
H3398 C3383 0.961 . S
H3399 C3383 0.961 . S
H3400 C3384 0.931 . S
H3401 C3389 0.930 . S
H3402 C3390 0.956 . S
H3403 C3390 0.961 . S
H3404 C3390 0.961 . S
H3405 C3391 0.958 . S
H3406 C3391 0.961 . S
H3407 C3391 0.960 . S
C3408 C3409 1.391 . S
C3408 C3410 1.394 . S
C3408 H3424 0.931 . S
C3409 C3408 1.391 . S
C3409 C3413 1.376 1_455 S
C3410 C3408 1.394 . S
C3410 C3411 1.369 . S
C3410 C3414 1.531 . S
C3411 C3410 1.369 . S
C3411 C3412 1.410 1_455 S
C3411 C3419 1.503 . S
C3412 C3411 1.410 1_655 S
C3412 C3413 1.392 . S
C3412 C3415 1.511 . S
C3413 C3409 1.376 1_655 S
C3413 C3412 1.392 . S
C3413 H3425 0.929 . S
C3414 C3410 1.531 . S
C3414 H3426 0.960 . S
C3414 H3427 0.962 . S
C3414 H3428 0.960 . S
C3415 C3412 1.511 . S
C3415 H3429 0.961 . S
C3415 H3430 0.961 . S
C3415 H3431 0.961 . S
C3416 C3417 1.370 . S
C3416 C3418 1.363 . S
C3416 H3432 0.931 . S
C3417 C3416 1.370 . S
C3417 C3421 1.408 . S
C3418 C3416 1.363 . S
C3418 C3419 1.370 . S
C3418 C3422 1.524 . S
C3419 C3411 1.503 . S
C3419 C3418 1.370 . S
C3419 C3420 1.403 . S
C3420 C3419 1.403 . S
C3420 C3421 1.404 . S
C3420 C3423 1.539 1_455 S
C3421 C3417 1.408 . S
C3421 C3420 1.404 . S
C3421 H3433 0.930 . S
C3422 C3418 1.524 . S
C3422 H3434 0.956 . S
C3422 H3435 0.961 . S
C3422 H3436 0.961 . S
C3423 C3420 1.539 1_655 S
C3423 H3437 0.958 1_655 S
C3423 H3438 0.961 . S
C3423 H3439 0.960 . S
H3424 C3408 0.931 . S
H3425 C3413 0.929 . S
H3426 C3414 0.960 . S
H3427 C3414 0.962 . S
H3428 C3414 0.960 . S
H3429 C3415 0.961 . S
H3430 C3415 0.961 . S
H3431 C3415 0.961 . S
H3432 C3416 0.931 . S
H3433 C3421 0.930 . S
H3434 C3422 0.956 . S
H3435 C3422 0.961 . S
H3436 C3422 0.961 . S
H3437 C3423 0.958 1_455 S
H3438 C3423 0.961 . S
H3439 C3423 0.960 . S
C3440 C3441 1.391 . S
C3440 C3442 1.394 . S
C3440 H3456 0.931 . S
C3441 C3440 1.391 . S
C3441 C3445 1.376 . S
C3442 C3440 1.394 . S
C3442 C3443 1.369 . S
C3442 C3446 1.531 . S
C3443 C3442 1.369 . S
C3443 C3444 1.410 . S
C3443 C3451 1.503 . S
C3444 C3443 1.410 . S
C3444 C3445 1.392 . S
C3444 C3447 1.511 . S
C3445 C3441 1.376 . S
C3445 C3444 1.392 . S
C3445 H3457 0.929 . S
C3446 C3442 1.531 . S
C3446 H3458 0.960 . S
C3446 H3459 0.962 . S
C3446 H3460 0.960 . S
C3447 C3444 1.511 . S
C3447 H3461 0.961 . S
C3447 H3462 0.961 . S
C3447 H3463 0.961 . S
C3448 C3449 1.370 . S
C3448 C3450 1.363 . S
C3448 H3464 0.931 . S
C3449 C3448 1.370 . S
C3449 C3453 1.408 . S
C3450 C3448 1.363 . S
C3450 C3451 1.370 . S
C3450 C3454 1.524 . S
C3451 C3443 1.503 . S
C3451 C3450 1.370 . S
C3451 C3452 1.403 . S
C3452 C3451 1.403 . S
C3452 C3453 1.404 . S
C3452 C3455 1.539 . S
C3453 C3449 1.408 . S
C3453 C3452 1.404 . S
C3453 H3465 0.930 . S
C3454 C3450 1.524 . S
C3454 H3466 0.956 . S
C3454 H3467 0.961 . S
C3454 H3468 0.961 . S
C3455 C3452 1.539 . S
C3455 H3469 0.958 . S
C3455 H3470 0.961 . S
C3455 H3471 0.960 . S
H3456 C3440 0.931 . S
H3457 C3445 0.929 . S
H3458 C3446 0.960 . S
H3459 C3446 0.962 . S
H3460 C3446 0.960 . S
H3461 C3447 0.961 . S
H3462 C3447 0.961 . S
H3463 C3447 0.961 . S
H3464 C3448 0.931 . S
H3465 C3453 0.930 . S
H3466 C3454 0.956 . S
H3467 C3454 0.961 . S
H3468 C3454 0.961 . S
H3469 C3455 0.958 . S
H3470 C3455 0.961 . S
H3471 C3455 0.960 . S
C3472 C3473 1.391 . S
C3472 C3474 1.394 . S
C3472 H3488 0.931 . S
C3473 C3472 1.391 . S
C3473 C3477 1.376 . S
C3474 C3472 1.394 . S
C3474 C3475 1.369 . S
C3474 C3478 1.531 . S
C3475 C3474 1.369 . S
C3475 C3476 1.410 . S
C3475 C3483 1.503 . S
C3476 C3475 1.410 . S
C3476 C3477 1.392 . S
C3476 C3479 1.511 . S
C3477 C3473 1.376 . S
C3477 C3476 1.392 . S
C3477 H3489 0.929 . S
C3478 C3474 1.531 . S
C3478 H3490 0.960 . S
C3478 H3491 0.962 . S
C3478 H3492 0.960 . S
C3479 C3476 1.511 . S
C3479 H3493 0.961 . S
C3479 H3494 0.961 . S
C3479 H3495 0.961 . S
C3480 C3481 1.370 . S
C3480 C3482 1.363 . S
C3480 H3496 0.931 . S
C3481 C3480 1.370 . S
C3481 C3485 1.408 . S
C3482 C3480 1.363 . S
C3482 C3483 1.370 . S
C3482 C3486 1.524 . S
C3483 C3475 1.503 . S
C3483 C3482 1.370 . S
C3483 C3484 1.403 . S
C3484 C3483 1.403 . S
C3484 C3485 1.404 . S
C3484 C3487 1.539 . S
C3485 C3481 1.408 . S
C3485 C3484 1.404 . S
C3485 H3497 0.930 . S
C3486 C3482 1.524 . S
C3486 H3498 0.956 . S
C3486 H3499 0.961 . S
C3486 H3500 0.961 . S
C3487 C3484 1.539 . S
C3487 H3501 0.958 . S
C3487 H3502 0.961 . S
C3487 H3503 0.960 . S
H3488 C3472 0.931 . S
H3489 C3477 0.929 . S
H3490 C3478 0.960 . S
H3491 C3478 0.962 . S
H3492 C3478 0.960 . S
H3493 C3479 0.961 . S
H3494 C3479 0.961 . S
H3495 C3479 0.961 . S
H3496 C3480 0.931 . S
H3497 C3485 0.930 . S
H3498 C3486 0.956 . S
H3499 C3486 0.961 . S
H3500 C3486 0.961 . S
H3501 C3487 0.958 . S
H3502 C3487 0.961 . S
H3503 C3487 0.960 . S
C3504 C3505 1.391 1_554 S
C3504 C3506 1.394 1_554 S
C3504 H3520 0.931 . S
C3505 C3504 1.391 1_556 S
C3505 C3509 1.376 . S
C3506 C3504 1.394 1_556 S
C3506 C3507 1.369 . S
C3506 C3510 1.531 . S
C3507 C3506 1.369 . S
C3507 C3508 1.410 . S
C3507 C3515 1.503 . S
C3508 C3507 1.410 . S
C3508 C3509 1.392 . S
C3508 C3511 1.511 . S
C3509 C3505 1.376 . S
C3509 C3508 1.392 . S
C3509 H3521 0.929 . S
C3510 C3506 1.531 . S
C3510 H3522 0.960 . S
C3510 H3523 0.962 . S
C3510 H3524 0.960 1_556 S
C3511 C3508 1.511 . S
C3511 H3525 0.961 . S
C3511 H3526 0.961 . S
C3511 H3527 0.961 . S
C3512 C3513 1.370 . S
C3512 C3514 1.363 . S
C3512 H3528 0.931 . S
C3513 C3512 1.370 . S
C3513 C3517 1.408 . S
C3514 C3512 1.363 . S
C3514 C3515 1.370 . S
C3514 C3518 1.524 . S
C3515 C3507 1.503 . S
C3515 C3514 1.370 . S
C3515 C3516 1.403 . S
C3516 C3515 1.403 . S
C3516 C3517 1.404 . S
C3516 C3519 1.539 . S
C3517 C3513 1.408 . S
C3517 C3516 1.404 . S
C3517 H3529 0.930 . S
C3518 C3514 1.524 . S
C3518 H3530 0.956 . S
C3518 H3531 0.961 . S
C3518 H3532 0.961 . S
C3519 C3516 1.539 . S
C3519 H3533 0.958 . S
C3519 H3534 0.961 . S
C3519 H3535 0.960 . S
H3520 C3504 0.931 . S
H3521 C3509 0.929 . S
H3522 C3510 0.960 . S
H3523 C3510 0.962 . S
H3524 C3510 0.960 1_554 S
H3525 C3511 0.961 . S
H3526 C3511 0.961 . S
H3527 C3511 0.961 . S
H3528 C3512 0.931 . S
H3529 C3517 0.930 . S
H3530 C3518 0.956 . S
H3531 C3518 0.961 . S
H3532 C3518 0.961 . S
H3533 C3519 0.958 . S
H3534 C3519 0.961 . S
H3535 C3519 0.960 . S
C3536 C3537 1.391 . S
C3536 C3538 1.394 . S
C3536 H3552 0.931 . S
C3537 C3536 1.391 . S
C3537 C3541 1.376 . S
C3538 C3536 1.394 . S
C3538 C3539 1.369 . S
C3538 C3542 1.531 . S
C3539 C3538 1.369 . S
C3539 C3540 1.410 . S
C3539 C3547 1.503 . S
C3540 C3539 1.410 . S
C3540 C3541 1.392 . S
C3540 C3543 1.511 . S
C3541 C3537 1.376 . S
C3541 C3540 1.392 . S
C3541 H3553 0.929 . S
C3542 C3538 1.531 . S
C3542 H3554 0.960 . S
C3542 H3555 0.962 . S
C3542 H3556 0.960 . S
C3543 C3540 1.511 . S
C3543 H3557 0.961 . S
C3543 H3558 0.961 . S
C3543 H3559 0.961 . S
C3544 C3545 1.370 . S
C3544 C3546 1.363 . S
C3544 H3560 0.931 . S
C3545 C3544 1.370 . S
C3545 C3549 1.408 . S
C3546 C3544 1.363 . S
C3546 C3547 1.370 . S
C3546 C3550 1.524 . S
C3547 C3539 1.503 . S
C3547 C3546 1.370 . S
C3547 C3548 1.403 . S
C3548 C3547 1.403 . S
C3548 C3549 1.404 . S
C3548 C3551 1.539 . S
C3549 C3545 1.408 . S
C3549 C3548 1.404 . S
C3549 H3561 0.930 . S
C3550 C3546 1.524 . S
C3550 H3562 0.956 . S
C3550 H3563 0.961 . S
C3550 H3564 0.961 . S
C3551 C3548 1.539 . S
C3551 H3565 0.958 . S
C3551 H3566 0.961 . S
C3551 H3567 0.960 . S
H3552 C3536 0.931 . S
H3553 C3541 0.929 . S
H3554 C3542 0.960 . S
H3555 C3542 0.962 . S
H3556 C3542 0.960 . S
H3557 C3543 0.961 . S
H3558 C3543 0.961 . S
H3559 C3543 0.961 . S
H3560 C3544 0.931 . S
H3561 C3549 0.930 . S
H3562 C3550 0.956 . S
H3563 C3550 0.961 . S
H3564 C3550 0.961 . S
H3565 C3551 0.958 . S
H3566 C3551 0.961 . S
H3567 C3551 0.960 . S
C3568 C3569 1.391 . S
C3568 C3570 1.394 . S
C3568 H3584 0.931 . S
C3569 C3568 1.391 . S
C3569 C3573 1.376 . S
C3570 C3568 1.394 . S
C3570 C3571 1.369 . S
C3570 C3574 1.531 . S
C3571 C3570 1.369 . S
C3571 C3572 1.410 . S
C3571 C3579 1.503 . S
C3572 C3571 1.410 . S
C3572 C3573 1.392 . S
C3572 C3575 1.511 . S
C3573 C3569 1.376 . S
C3573 C3572 1.392 . S
C3573 H3585 0.929 . S
C3574 C3570 1.531 . S
C3574 H3586 0.960 . S
C3574 H3587 0.962 . S
C3574 H3588 0.960 . S
C3575 C3572 1.511 . S
C3575 H3589 0.961 . S
C3575 H3590 0.961 . S
C3575 H3591 0.961 . S
C3576 C3577 1.370 . S
C3576 C3578 1.363 . S
C3576 H3592 0.931 . S
C3577 C3576 1.370 . S
C3577 C3581 1.408 . S
C3578 C3576 1.363 . S
C3578 C3579 1.370 . S
C3578 C3582 1.524 . S
C3579 C3571 1.503 . S
C3579 C3578 1.370 . S
C3579 C3580 1.403 . S
C3580 C3579 1.403 . S
C3580 C3581 1.404 . S
C3580 C3583 1.539 . S
C3581 C3577 1.408 . S
C3581 C3580 1.404 . S
C3581 H3593 0.930 . S
C3582 C3578 1.524 . S
C3582 H3594 0.956 . S
C3582 H3595 0.961 . S
C3582 H3596 0.961 . S
C3583 C3580 1.539 . S
C3583 H3597 0.958 . S
C3583 H3598 0.961 . S
C3583 H3599 0.960 . S
H3584 C3568 0.931 . S
H3585 C3573 0.929 . S
H3586 C3574 0.960 . S
H3587 C3574 0.962 . S
H3588 C3574 0.960 . S
H3589 C3575 0.961 . S
H3590 C3575 0.961 . S
H3591 C3575 0.961 . S
H3592 C3576 0.931 . S
H3593 C3581 0.930 . S
H3594 C3582 0.956 . S
H3595 C3582 0.961 . S
H3596 C3582 0.961 . S
H3597 C3583 0.958 . S
H3598 C3583 0.961 . S
H3599 C3583 0.960 . S
C3600 C3601 1.391 . S
C3600 C3602 1.394 . S
C3600 H3616 0.931 . S
C3601 C3600 1.391 . S
C3601 C3605 1.376 . S
C3602 C3600 1.394 . S
C3602 C3603 1.369 . S
C3602 C3606 1.531 . S
C3603 C3602 1.369 . S
C3603 C3604 1.410 . S
C3603 C3611 1.503 . S
C3604 C3603 1.410 . S
C3604 C3605 1.392 . S
C3604 C3607 1.511 . S
C3605 C3601 1.376 . S
C3605 C3604 1.392 . S
C3605 H3617 0.929 . S
C3606 C3602 1.531 . S
C3606 H3618 0.960 . S
C3606 H3619 0.962 . S
C3606 H3620 0.960 . S
C3607 C3604 1.511 . S
C3607 H3621 0.961 . S
C3607 H3622 0.961 . S
C3607 H3623 0.961 . S
C3608 C3609 1.370 . S
C3608 C3610 1.363 . S
C3608 H3624 0.931 . S
C3609 C3608 1.370 . S
C3609 C3613 1.408 . S
C3610 C3608 1.363 . S
C3610 C3611 1.370 . S
C3610 C3614 1.524 . S
C3611 C3603 1.503 . S
C3611 C3610 1.370 . S
C3611 C3612 1.403 . S
C3612 C3611 1.403 . S
C3612 C3613 1.404 . S
C3612 C3615 1.539 . S
C3613 C3609 1.408 . S
C3613 C3612 1.404 . S
C3613 H3625 0.930 . S
C3614 C3610 1.524 . S
C3614 H3626 0.956 . S
C3614 H3627 0.961 . S
C3614 H3628 0.961 . S
C3615 C3612 1.539 . S
C3615 H3629 0.958 . S
C3615 H3630 0.961 . S
C3615 H3631 0.960 . S
H3616 C3600 0.931 . S
H3617 C3605 0.929 . S
H3618 C3606 0.960 . S
H3619 C3606 0.962 . S
H3620 C3606 0.960 . S
H3621 C3607 0.961 . S
H3622 C3607 0.961 . S
H3623 C3607 0.961 . S
H3624 C3608 0.931 . S
H3625 C3613 0.930 . S
H3626 C3614 0.956 . S
H3627 C3614 0.961 . S
H3628 C3614 0.961 . S
H3629 C3615 0.958 . S
H3630 C3615 0.961 . S
H3631 C3615 0.960 . S
C3632 C3633 1.391 . S
C3632 C3634 1.394 . S
C3632 H3648 0.931 . S
C3633 C3632 1.391 . S
C3633 C3637 1.376 . S
C3634 C3632 1.394 . S
C3634 C3635 1.369 . S
C3634 C3638 1.531 . S
C3635 C3634 1.369 . S
C3635 C3636 1.410 . S
C3635 C3643 1.503 . S
C3636 C3635 1.410 . S
C3636 C3637 1.392 . S
C3636 C3639 1.511 . S
C3637 C3633 1.376 . S
C3637 C3636 1.392 . S
C3637 H3649 0.929 . S
C3638 C3634 1.531 . S
C3638 H3650 0.960 . S
C3638 H3651 0.962 . S
C3638 H3652 0.960 . S
C3639 C3636 1.511 . S
C3639 H3653 0.961 . S
C3639 H3654 0.961 . S
C3639 H3655 0.961 . S
C3640 C3641 1.370 . S
C3640 C3642 1.363 . S
C3640 H3656 0.931 . S
C3641 C3640 1.370 . S
C3641 C3645 1.408 . S
C3642 C3640 1.363 . S
C3642 C3643 1.370 . S
C3642 C3646 1.524 . S
C3643 C3635 1.503 . S
C3643 C3642 1.370 . S
C3643 C3644 1.403 . S
C3644 C3643 1.403 . S
C3644 C3645 1.404 . S
C3644 C3647 1.539 . S
C3645 C3641 1.408 . S
C3645 C3644 1.404 . S
C3645 H3657 0.930 . S
C3646 C3642 1.524 . S
C3646 H3658 0.956 . S
C3646 H3659 0.961 . S
C3646 H3660 0.961 . S
C3647 C3644 1.539 . S
C3647 H3661 0.958 . S
C3647 H3662 0.961 . S
C3647 H3663 0.960 . S
H3648 C3632 0.931 . S
H3649 C3637 0.929 . S
H3650 C3638 0.960 . S
H3651 C3638 0.962 . S
H3652 C3638 0.960 . S
H3653 C3639 0.961 . S
H3654 C3639 0.961 . S
H3655 C3639 0.961 . S
H3656 C3640 0.931 . S
H3657 C3645 0.930 . S
H3658 C3646 0.956 . S
H3659 C3646 0.961 . S
H3660 C3646 0.961 . S
H3661 C3647 0.958 . S
H3662 C3647 0.961 . S
H3663 C3647 0.960 . S
C3664 C3665 1.391 . S
C3664 C3666 1.394 . S
C3664 H3680 0.931 . S
C3665 C3664 1.391 . S
C3665 C3669 1.376 . S
C3666 C3664 1.394 . S
C3666 C3667 1.369 . S
C3666 C3670 1.531 . S
C3667 C3666 1.369 . S
C3667 C3668 1.410 . S
C3667 C3675 1.503 . S
C3668 C3667 1.410 . S
C3668 C3669 1.392 . S
C3668 C3671 1.511 . S
C3669 C3665 1.376 . S
C3669 C3668 1.392 . S
C3669 H3681 0.929 . S
C3670 C3666 1.531 . S
C3670 H3682 0.960 . S
C3670 H3683 0.962 . S
C3670 H3684 0.960 . S
C3671 C3668 1.511 . S
C3671 H3685 0.961 . S
C3671 H3686 0.961 . S
C3671 H3687 0.961 . S
C3672 C3673 1.370 . S
C3672 C3674 1.363 . S
C3672 H3688 0.931 . S
C3673 C3672 1.370 . S
C3673 C3677 1.408 . S
C3674 C3672 1.363 . S
C3674 C3675 1.370 . S
C3674 C3678 1.524 . S
C3675 C3667 1.503 . S
C3675 C3674 1.370 . S
C3675 C3676 1.403 . S
C3676 C3675 1.403 . S
C3676 C3677 1.404 . S
C3676 C3679 1.539 . S
C3677 C3673 1.408 . S
C3677 C3676 1.404 . S
C3677 H3689 0.930 . S
C3678 C3674 1.524 . S
C3678 H3690 0.956 . S
C3678 H3691 0.961 . S
C3678 H3692 0.961 . S
C3679 C3676 1.539 . S
C3679 H3693 0.958 . S
C3679 H3694 0.961 . S
C3679 H3695 0.960 . S
H3680 C3664 0.931 . S
H3681 C3669 0.929 . S
H3682 C3670 0.960 . S
H3683 C3670 0.962 . S
H3684 C3670 0.960 . S
H3685 C3671 0.961 . S
H3686 C3671 0.961 . S
H3687 C3671 0.961 . S
H3688 C3672 0.931 . S
H3689 C3677 0.930 . S
H3690 C3678 0.956 . S
H3691 C3678 0.961 . S
H3692 C3678 0.961 . S
H3693 C3679 0.958 . S
H3694 C3679 0.961 . S
H3695 C3679 0.960 . S
C3696 C3697 1.391 . S
C3696 C3698 1.394 . S
C3696 H3712 0.931 . S
C3697 C3696 1.391 . S
C3697 C3701 1.376 . S
C3698 C3696 1.394 . S
C3698 C3699 1.369 . S
C3698 C3702 1.531 . S
C3699 C3698 1.369 . S
C3699 C3700 1.410 . S
C3699 C3707 1.503 . S
C3700 C3699 1.410 . S
C3700 C3701 1.392 . S
C3700 C3703 1.511 . S
C3701 C3697 1.376 . S
C3701 C3700 1.392 . S
C3701 H3713 0.929 . S
C3702 C3698 1.531 . S
C3702 H3714 0.960 . S
C3702 H3715 0.962 . S
C3702 H3716 0.960 . S
C3703 C3700 1.511 . S
C3703 H3717 0.961 . S
C3703 H3718 0.961 . S
C3703 H3719 0.961 . S
C3704 C3705 1.370 . S
C3704 C3706 1.363 . S
C3704 H3720 0.931 . S
C3705 C3704 1.370 . S
C3705 C3709 1.408 . S
C3706 C3704 1.363 . S
C3706 C3707 1.370 . S
C3706 C3710 1.524 . S
C3707 C3699 1.503 . S
C3707 C3706 1.370 . S
C3707 C3708 1.403 . S
C3708 C3707 1.403 . S
C3708 C3709 1.404 . S
C3708 C3711 1.539 . S
C3709 C3705 1.408 . S
C3709 C3708 1.404 . S
C3709 H3721 0.930 . S
C3710 C3706 1.524 . S
C3710 H3722 0.956 . S
C3710 H3723 0.961 . S
C3710 H3724 0.961 . S
C3711 C3708 1.539 . S
C3711 H3725 0.958 . S
C3711 H3726 0.961 . S
C3711 H3727 0.960 . S
H3712 C3696 0.931 . S
H3713 C3701 0.929 . S
H3714 C3702 0.960 . S
H3715 C3702 0.962 . S
H3716 C3702 0.960 . S
H3717 C3703 0.961 . S
H3718 C3703 0.961 . S
H3719 C3703 0.961 . S
H3720 C3704 0.931 . S
H3721 C3709 0.930 . S
H3722 C3710 0.956 . S
H3723 C3710 0.961 . S
H3724 C3710 0.961 . S
H3725 C3711 0.958 . S
H3726 C3711 0.961 . S
H3727 C3711 0.960 . S
C3728 C3729 1.391 . S
C3728 C3730 1.394 . S
C3728 H3744 0.931 . S
C3729 C3728 1.391 . S
C3729 C3733 1.376 . S
C3730 C3728 1.394 . S
C3730 C3731 1.369 . S
C3730 C3734 1.531 . S
C3731 C3730 1.369 . S
C3731 C3732 1.410 . S
C3731 C3739 1.503 . S
C3732 C3731 1.410 . S
C3732 C3733 1.392 . S
C3732 C3735 1.511 . S
C3733 C3729 1.376 . S
C3733 C3732 1.392 . S
C3733 H3745 0.929 . S
C3734 C3730 1.531 . S
C3734 H3746 0.960 . S
C3734 H3747 0.962 . S
C3734 H3748 0.960 . S
C3735 C3732 1.511 . S
C3735 H3749 0.961 . S
C3735 H3750 0.961 . S
C3735 H3751 0.961 . S
C3736 C3737 1.370 . S
C3736 C3738 1.363 . S
C3736 H3752 0.931 . S
C3737 C3736 1.370 . S
C3737 C3741 1.408 . S
C3738 C3736 1.363 . S
C3738 C3739 1.370 . S
C3738 C3742 1.524 . S
C3739 C3731 1.503 . S
C3739 C3738 1.370 . S
C3739 C3740 1.403 . S
C3740 C3739 1.403 . S
C3740 C3741 1.404 . S
C3740 C3743 1.539 . S
C3741 C3737 1.408 . S
C3741 C3740 1.404 . S
C3741 H3753 0.930 . S
C3742 C3738 1.524 . S
C3742 H3754 0.956 . S
C3742 H3755 0.961 . S
C3742 H3756 0.961 . S
C3743 C3740 1.539 . S
C3743 H3757 0.958 . S
C3743 H3758 0.961 . S
C3743 H3759 0.960 . S
H3744 C3728 0.931 . S
H3745 C3733 0.929 . S
H3746 C3734 0.960 . S
H3747 C3734 0.962 . S
H3748 C3734 0.960 . S
H3749 C3735 0.961 . S
H3750 C3735 0.961 . S
H3751 C3735 0.961 . S
H3752 C3736 0.931 . S
H3753 C3741 0.930 . S
H3754 C3742 0.956 . S
H3755 C3742 0.961 . S
H3756 C3742 0.961 . S
H3757 C3743 0.958 . S
H3758 C3743 0.961 . S
H3759 C3743 0.960 . S
C3760 C3761 1.391 . S
C3760 C3762 1.394 . S
C3760 H3776 0.931 . S
C3761 C3760 1.391 . S
C3761 C3765 1.376 . S
C3762 C3760 1.394 . S
C3762 C3763 1.369 . S
C3762 C3766 1.531 . S
C3763 C3762 1.369 . S
C3763 C3764 1.410 . S
C3763 C3771 1.503 . S
C3764 C3763 1.410 . S
C3764 C3765 1.392 . S
C3764 C3767 1.511 . S
C3765 C3761 1.376 . S
C3765 C3764 1.392 . S
C3765 H3777 0.929 . S
C3766 C3762 1.531 . S
C3766 H3778 0.960 . S
C3766 H3779 0.962 . S
C3766 H3780 0.960 . S
C3767 C3764 1.511 . S
C3767 H3781 0.961 . S
C3767 H3782 0.961 . S
C3767 H3783 0.961 . S
C3768 C3769 1.370 . S
C3768 C3770 1.363 . S
C3768 H3784 0.931 . S
C3769 C3768 1.370 . S
C3769 C3773 1.408 . S
C3770 C3768 1.363 . S
C3770 C3771 1.370 . S
C3770 C3774 1.524 . S
C3771 C3763 1.503 . S
C3771 C3770 1.370 . S
C3771 C3772 1.403 . S
C3772 C3771 1.403 . S
C3772 C3773 1.404 . S
C3772 C3775 1.539 . S
C3773 C3769 1.408 . S
C3773 C3772 1.404 . S
C3773 H3785 0.930 . S
C3774 C3770 1.524 . S
C3774 H3786 0.956 . S
C3774 H3787 0.961 . S
C3774 H3788 0.961 . S
C3775 C3772 1.539 . S
C3775 H3789 0.958 . S
C3775 H3790 0.961 . S
C3775 H3791 0.960 . S
H3776 C3760 0.931 . S
H3777 C3765 0.929 . S
H3778 C3766 0.960 . S
H3779 C3766 0.962 . S
H3780 C3766 0.960 . S
H3781 C3767 0.961 . S
H3782 C3767 0.961 . S
H3783 C3767 0.961 . S
H3784 C3768 0.931 . S
H3785 C3773 0.930 . S
H3786 C3774 0.956 . S
H3787 C3774 0.961 . S
H3788 C3774 0.961 . S
H3789 C3775 0.958 . S
H3790 C3775 0.961 . S
H3791 C3775 0.960 . S
C3792 C3793 1.391 . S
C3792 C3794 1.394 . S
C3792 H3808 0.931 . S
C3793 C3792 1.391 . S
C3793 C3797 1.376 . S
C3794 C3792 1.394 . S
C3794 C3795 1.369 . S
C3794 C3798 1.531 . S
C3795 C3794 1.369 . S
C3795 C3796 1.410 . S
C3795 C3803 1.503 . S
C3796 C3795 1.410 . S
C3796 C3797 1.392 . S
C3796 C3799 1.511 . S
C3797 C3793 1.376 . S
C3797 C3796 1.392 . S
C3797 H3809 0.929 . S
C3798 C3794 1.531 . S
C3798 H3810 0.960 . S
C3798 H3811 0.962 . S
C3798 H3812 0.960 . S
C3799 C3796 1.511 . S
C3799 H3813 0.961 . S
C3799 H3814 0.961 . S
C3799 H3815 0.961 . S
C3800 C3801 1.370 . S
C3800 C3802 1.363 . S
C3800 H3816 0.931 . S
C3801 C3800 1.370 . S
C3801 C3805 1.408 . S
C3802 C3800 1.363 . S
C3802 C3803 1.370 . S
C3802 C3806 1.524 . S
C3803 C3795 1.503 . S
C3803 C3802 1.370 . S
C3803 C3804 1.403 . S
C3804 C3803 1.403 . S
C3804 C3805 1.404 . S
C3804 C3807 1.539 . S
C3805 C3801 1.408 . S
C3805 C3804 1.404 . S
C3805 H3817 0.930 . S
C3806 C3802 1.524 . S
C3806 H3818 0.956 . S
C3806 H3819 0.961 . S
C3806 H3820 0.961 . S
C3807 C3804 1.539 . S
C3807 H3821 0.958 . S
C3807 H3822 0.961 . S
C3807 H3823 0.960 . S
H3808 C3792 0.931 . S
H3809 C3797 0.929 . S
H3810 C3798 0.960 . S
H3811 C3798 0.962 . S
H3812 C3798 0.960 . S
H3813 C3799 0.961 . S
H3814 C3799 0.961 . S
H3815 C3799 0.961 . S
H3816 C3800 0.931 . S
H3817 C3805 0.930 . S
H3818 C3806 0.956 . S
H3819 C3806 0.961 . S
H3820 C3806 0.961 . S
H3821 C3807 0.958 . S
H3822 C3807 0.961 . S
H3823 C3807 0.960 . S
C3824 C3825 1.391 1_556 S
C3824 C3826 1.394 . S
C3824 H3840 0.931 . S
C3825 C3824 1.391 1_554 S
C3825 C3829 1.376 . S
C3826 C3824 1.394 . S
C3826 C3827 1.369 1_556 S
C3826 C3830 1.531 . S
C3827 C3826 1.369 1_554 S
C3827 C3828 1.410 . S
C3827 C3835 1.503 . S
C3828 C3827 1.410 . S
C3828 C3829 1.392 . S
C3828 C3831 1.511 1_565 S
C3829 C3825 1.376 . S
C3829 C3828 1.392 . S
C3829 H3841 0.929 . S
C3830 C3826 1.531 . S
C3830 H3842 0.960 . S
C3830 H3843 0.962 . S
C3830 H3844 0.960 . S
C3831 C3828 1.511 1_545 S
C3831 H3845 0.961 . S
C3831 H3846 0.961 . S
C3831 H3847 0.961 . S
C3832 C3833 1.370 1_565 S
C3832 C3834 1.363 . S
C3832 H3848 0.931 . S
C3833 C3832 1.370 1_545 S
C3833 C3837 1.423 . S
C3834 C3832 1.363 . S
C3834 C3835 1.370 . S
C3834 C3838 1.524 . S
C3835 C3827 1.503 . S
C3835 C3834 1.370 . S
C3835 C3836 1.403 1_564 S
C3836 C3835 1.403 1_546 S
C3836 C3837 1.403 1_556 S
C3836 C3839 1.539 . S
C3837 C3833 1.423 . S
C3837 C3836 1.403 1_554 S
C3837 H3849 0.916 1_554 S
C3838 C3834 1.524 . S
C3838 H3850 0.956 . S
C3838 H3851 0.961 . S
C3838 H3852 0.961 . S
C3839 C3836 1.539 . S
C3839 H3853 0.967 . S
C3839 H3854 0.961 . S
C3839 H3855 0.960 . S
H3840 C3824 0.931 . S
H3841 C3829 0.929 . S
H3842 C3830 0.960 . S
H3843 C3830 0.962 . S
H3844 C3830 0.960 . S
H3845 C3831 0.961 . S
H3846 C3831 0.961 . S
H3847 C3831 0.961 . S
H3848 C3832 0.931 . S
H3849 C3837 0.916 1_556 S
H3850 C3838 0.956 . S
H3851 C3838 0.961 . S
H3852 C3838 0.961 . S
H3853 C3839 0.967 . S
H3854 C3839 0.961 . S
H3855 C3839 0.960 . S
C3856 C3857 1.391 . S
C3856 C3858 1.394 . S
C3856 H3872 0.931 . S
C3857 C3856 1.391 . S
C3857 C3861 1.376 . S
C3858 C3856 1.394 . S
C3858 C3859 1.369 . S
C3858 C3862 1.531 . S
C3859 C3858 1.369 . S
C3859 C3860 1.410 . S
C3859 C3867 1.503 . S
C3860 C3859 1.410 . S
C3860 C3861 1.392 . S
C3860 C3863 1.511 . S
C3861 C3857 1.376 . S
C3861 C3860 1.392 . S
C3861 H3873 0.929 . S
C3862 C3858 1.531 . S
C3862 H3874 0.960 . S
C3862 H3875 0.962 . S
C3862 H3876 0.960 . S
C3863 C3860 1.511 . S
C3863 H3877 0.961 . S
C3863 H3878 0.961 . S
C3863 H3879 0.961 . S
C3864 C3865 1.370 . S
C3864 C3866 1.363 . S
C3864 H3880 0.931 . S
C3865 C3864 1.370 . S
C3865 C3869 1.408 . S
C3866 C3864 1.363 . S
C3866 C3867 1.370 . S
C3866 C3870 1.524 . S
C3867 C3859 1.503 . S
C3867 C3866 1.370 . S
C3867 C3868 1.403 . S
C3868 C3867 1.403 . S
C3868 C3869 1.404 . S
C3868 C3871 1.539 . S
C3869 C3865 1.408 . S
C3869 C3868 1.404 . S
C3869 H3881 0.930 . S
C3870 C3866 1.524 . S
C3870 H3882 0.956 . S
C3870 H3883 0.961 . S
C3870 H3884 0.961 . S
C3871 C3868 1.539 . S
C3871 H3885 0.958 . S
C3871 H3886 0.961 . S
C3871 H3887 0.960 . S
H3872 C3856 0.931 . S
H3873 C3861 0.929 . S
H3874 C3862 0.960 . S
H3875 C3862 0.962 . S
H3876 C3862 0.960 . S
H3877 C3863 0.961 . S
H3878 C3863 0.961 . S
H3879 C3863 0.961 . S
H3880 C3864 0.931 . S
H3881 C3869 0.930 . S
H3882 C3870 0.956 . S
H3883 C3870 0.961 . S
H3884 C3870 0.961 . S
H3885 C3871 0.958 . S
H3886 C3871 0.961 . S
H3887 C3871 0.960 . S
C3888 C3889 1.391 . S
C3888 C3890 1.394 . S
C3888 H3904 0.931 . S
C3889 C3888 1.391 . S
C3889 C3893 1.376 . S
C3890 C3888 1.394 . S
C3890 C3891 1.369 . S
C3890 C3894 1.531 . S
C3891 C3890 1.369 . S
C3891 C3892 1.410 . S
C3891 C3899 1.503 . S
C3892 C3891 1.410 . S
C3892 C3893 1.392 . S
C3892 C3895 1.511 . S
C3893 C3889 1.376 . S
C3893 C3892 1.392 . S
C3893 H3905 0.929 . S
C3894 C3890 1.531 . S
C3894 H3906 0.970 . S
C3894 H3907 0.962 . S
C3894 H3908 0.960 1_554 S
C3895 C3892 1.511 . S
C3895 H3909 0.961 . S
C3895 H3910 0.961 . S
C3895 H3911 0.961 . S
C3896 C3897 1.370 . S
C3896 C3898 1.363 . S
C3896 H3912 0.931 . S
C3897 C3896 1.370 . S
C3897 C3901 1.408 . S
C3898 C3896 1.363 . S
C3898 C3899 1.370 . S
C3898 C3902 1.524 . S
C3899 C3891 1.503 . S
C3899 C3898 1.370 . S
C3899 C3900 1.403 . S
C3900 C3899 1.403 . S
C3900 C3901 1.404 . S
C3900 C3903 1.539 1_554 S
C3901 C3897 1.408 . S
C3901 C3900 1.404 . S
C3901 H3913 0.946 . S
C3902 C3898 1.524 . S
C3902 H3914 0.956 . S
C3902 H3915 0.961 . S
C3902 H3916 0.961 . S
C3903 C3900 1.539 1_556 S
C3903 H3917 0.958 . S
C3903 H3918 0.961 . S
C3903 H3919 0.960 . S
H3904 C3888 0.931 . S
H3905 C3893 0.929 . S
H3906 C3894 0.970 . S
H3907 C3894 0.962 . S
H3908 C3894 0.960 1_556 S
H3909 C3895 0.961 . S
H3910 C3895 0.961 . S
H3911 C3895 0.961 . S
H3912 C3896 0.931 . S
H3913 C3901 0.946 . S
H3914 C3902 0.956 . S
H3915 C3902 0.961 . S
H3916 C3902 0.961 . S
H3917 C3903 0.958 . S
H3918 C3903 0.961 . S
H3919 C3903 0.960 . S
C3920 C3921 1.391 . S
C3920 C3922 1.394 . S
C3920 H3936 0.931 . S
C3921 C3920 1.391 . S
C3921 C3925 1.376 . S
C3922 C3920 1.394 . S
C3922 C3923 1.369 . S
C3922 C3926 1.531 . S
C3923 C3922 1.369 . S
C3923 C3924 1.410 . S
C3923 C3931 1.503 . S
C3924 C3923 1.410 . S
C3924 C3925 1.392 . S
C3924 C3927 1.511 . S
C3925 C3921 1.376 . S
C3925 C3924 1.392 . S
C3925 H3937 0.929 . S
C3926 C3922 1.531 . S
C3926 H3938 0.960 . S
C3926 H3939 0.962 . S
C3926 H3940 0.960 . S
C3927 C3924 1.511 . S
C3927 H3941 0.961 . S
C3927 H3942 0.961 . S
C3927 H3943 0.961 . S
C3928 C3929 1.370 . S
C3928 C3930 1.363 . S
C3928 H3944 0.931 . S
C3929 C3928 1.370 . S
C3929 C3933 1.408 . S
C3930 C3928 1.363 . S
C3930 C3931 1.370 . S
C3930 C3934 1.524 . S
C3931 C3923 1.503 . S
C3931 C3930 1.370 . S
C3931 C3932 1.403 . S
C3932 C3931 1.403 . S
C3932 C3933 1.404 . S
C3932 C3935 1.539 . S
C3933 C3929 1.408 . S
C3933 C3932 1.404 . S
C3933 H3945 0.930 . S
C3934 C3930 1.524 . S
C3934 H3946 0.956 . S
C3934 H3947 0.961 . S
C3934 H3948 0.961 . S
C3935 C3932 1.539 . S
C3935 H3949 0.958 . S
C3935 H3950 0.961 . S
C3935 H3951 0.960 . S
H3936 C3920 0.931 . S
H3937 C3925 0.929 . S
H3938 C3926 0.960 . S
H3939 C3926 0.962 . S
H3940 C3926 0.960 . S
H3941 C3927 0.961 . S
H3942 C3927 0.961 . S
H3943 C3927 0.961 . S
H3944 C3928 0.931 . S
H3945 C3933 0.930 . S
H3946 C3934 0.956 . S
H3947 C3934 0.961 . S
H3948 C3934 0.961 . S
H3949 C3935 0.958 . S
H3950 C3935 0.961 . S
H3951 C3935 0.960 . S
C3952 C3953 1.391 . S
C3952 C3954 1.394 . S
C3952 H3968 0.931 . S
C3953 C3952 1.391 . S
C3953 C3957 1.376 . S
C3954 C3952 1.394 . S
C3954 C3955 1.369 . S
C3954 C3958 1.531 . S
C3955 C3954 1.369 . S
C3955 C3956 1.410 . S
C3955 C3963 1.503 . S
C3956 C3955 1.410 . S
C3956 C3957 1.392 . S
C3956 C3959 1.511 . S
C3957 C3953 1.376 . S
C3957 C3956 1.392 . S
C3957 H3969 0.929 . S
C3958 C3954 1.531 . S
C3958 H3970 0.960 . S
C3958 H3971 0.962 . S
C3958 H3972 0.960 . S
C3959 C3956 1.511 . S
C3959 H3973 0.961 . S
C3959 H3974 0.961 . S
C3959 H3975 0.961 . S
C3960 C3961 1.370 . S
C3960 C3962 1.363 . S
C3960 H3976 0.931 . S
C3961 C3960 1.370 . S
C3961 C3965 1.408 . S
C3962 C3960 1.363 . S
C3962 C3963 1.370 . S
C3962 C3966 1.524 . S
C3963 C3955 1.503 . S
C3963 C3962 1.370 . S
C3963 C3964 1.403 . S
C3964 C3963 1.403 . S
C3964 C3965 1.404 . S
C3964 C3967 1.539 . S
C3965 C3961 1.408 . S
C3965 C3964 1.404 . S
C3965 H3977 0.930 . S
C3966 C3962 1.524 . S
C3966 H3978 0.956 . S
C3966 H3979 0.961 . S
C3966 H3980 0.961 . S
C3967 C3964 1.539 . S
C3967 H3981 0.958 . S
C3967 H3982 0.961 . S
C3967 H3983 0.960 . S
H3968 C3952 0.931 . S
H3969 C3957 0.929 . S
H3970 C3958 0.960 . S
H3971 C3958 0.962 . S
H3972 C3958 0.960 . S
H3973 C3959 0.961 . S
H3974 C3959 0.961 . S
H3975 C3959 0.961 . S
H3976 C3960 0.931 . S
H3977 C3965 0.930 . S
H3978 C3966 0.956 . S
H3979 C3966 0.961 . S
H3980 C3966 0.961 . S
H3981 C3967 0.958 . S
H3982 C3967 0.961 . S
H3983 C3967 0.960 . S
C3984 C3985 1.391 . S
C3984 C3986 1.394 . S
C3984 H4000 0.931 . S
C3985 C3984 1.391 . S
C3985 C3989 1.376 . S
C3986 C3984 1.394 . S
C3986 C3987 1.369 . S
C3986 C3990 1.531 . S
C3987 C3986 1.369 . S
C3987 C3988 1.410 . S
C3987 C3995 1.503 . S
C3988 C3987 1.410 . S
C3988 C3989 1.392 . S
C3988 C3991 1.511 . S
C3989 C3985 1.376 . S
C3989 C3988 1.392 . S
C3989 H4001 0.929 . S
C3990 C3986 1.531 . S
C3990 H4002 0.960 . S
C3990 H4003 0.962 . S
C3990 H4004 0.960 . S
C3991 C3988 1.511 . S
C3991 H4005 0.961 . S
C3991 H4006 0.961 . S
C3991 H4007 0.961 . S
C3992 C3993 1.370 . S
C3992 C3994 1.363 . S
C3992 H4008 0.931 . S
C3993 C3992 1.370 . S
C3993 C3997 1.408 . S
C3994 C3992 1.363 . S
C3994 C3995 1.370 . S
C3994 C3998 1.524 . S
C3995 C3987 1.503 . S
C3995 C3994 1.370 . S
C3995 C3996 1.403 . S
C3996 C3995 1.403 . S
C3996 C3997 1.404 . S
C3996 C3999 1.539 . S
C3997 C3993 1.408 . S
C3997 C3996 1.404 . S
C3997 H4009 0.930 . S
C3998 C3994 1.524 . S
C3998 H4010 0.956 . S
C3998 H4011 0.961 . S
C3998 H4012 0.961 . S
C3999 C3996 1.539 . S
C3999 H4013 0.958 . S
C3999 H4014 0.961 . S
C3999 H4015 0.960 . S
H4000 C3984 0.931 . S
H4001 C3989 0.929 . S
H4002 C3990 0.960 . S
H4003 C3990 0.962 . S
H4004 C3990 0.960 . S
H4005 C3991 0.961 . S
H4006 C3991 0.961 . S
H4007 C3991 0.961 . S
H4008 C3992 0.931 . S
H4009 C3997 0.930 . S
H4010 C3998 0.956 . S
H4011 C3998 0.961 . S
H4012 C3998 0.961 . S
H4013 C3999 0.958 . S
H4014 C3999 0.961 . S
H4015 C3999 0.960 . S
C4016 C4017 1.391 . S
C4016 C4018 1.394 . S
C4016 H4032 0.931 . S
C4017 C4016 1.391 . S
C4017 C4021 1.376 . S
C4018 C4016 1.394 . S
C4018 C4019 1.369 . S
C4018 C4022 1.531 . S
C4019 C4018 1.369 . S
C4019 C4020 1.410 . S
C4019 C4027 1.503 . S
C4020 C4019 1.410 . S
C4020 C4021 1.392 . S
C4020 C4023 1.511 . S
C4021 C4017 1.376 . S
C4021 C4020 1.392 . S
C4021 H4033 0.929 . S
C4022 C4018 1.531 . S
C4022 H4034 0.960 . S
C4022 H4035 0.962 . S
C4022 H4036 0.960 . S
C4023 C4020 1.511 . S
C4023 H4037 0.961 . S
C4023 H4038 0.961 . S
C4023 H4039 0.961 . S
C4024 C4025 1.370 . S
C4024 C4026 1.363 . S
C4024 H4040 0.931 . S
C4025 C4024 1.370 . S
C4025 C4029 1.408 . S
C4026 C4024 1.363 . S
C4026 C4027 1.370 . S
C4026 C4030 1.524 . S
C4027 C4019 1.503 . S
C4027 C4026 1.370 . S
C4027 C4028 1.403 . S
C4028 C4027 1.403 . S
C4028 C4029 1.404 . S
C4028 C4031 1.539 . S
C4029 C4025 1.408 . S
C4029 C4028 1.404 . S
C4029 H4041 0.930 . S
C4030 C4026 1.524 . S
C4030 H4042 0.956 . S
C4030 H4043 0.961 . S
C4030 H4044 0.961 . S
C4031 C4028 1.539 . S
C4031 H4045 0.958 . S
C4031 H4046 0.961 . S
C4031 H4047 0.960 . S
H4032 C4016 0.931 . S
H4033 C4021 0.929 . S
H4034 C4022 0.960 . S
H4035 C4022 0.962 . S
H4036 C4022 0.960 . S
H4037 C4023 0.961 . S
H4038 C4023 0.961 . S
H4039 C4023 0.961 . S
H4040 C4024 0.931 . S
H4041 C4029 0.930 . S
H4042 C4030 0.956 . S
H4043 C4030 0.961 . S
H4044 C4030 0.961 . S
H4045 C4031 0.958 . S
H4046 C4031 0.961 . S
H4047 C4031 0.960 . S
C4048 C4049 1.391 . S
C4048 C4050 1.394 . S
C4048 H4064 0.931 . S
C4049 C4048 1.391 . S
C4049 C4053 1.376 . S
C4050 C4048 1.394 . S
C4050 C4051 1.369 . S
C4050 C4054 1.531 . S
C4051 C4050 1.369 . S
C4051 C4052 1.410 . S
C4051 C4059 1.503 . S
C4052 C4051 1.410 . S
C4052 C4053 1.392 . S
C4052 C4055 1.511 . S
C4053 C4049 1.376 . S
C4053 C4052 1.392 . S
C4053 H4065 0.929 . S
C4054 C4050 1.531 . S
C4054 H4066 0.960 . S
C4054 H4067 0.962 . S
C4054 H4068 0.960 . S
C4055 C4052 1.511 . S
C4055 H4069 0.961 1_455 S
C4055 H4070 0.961 . S
C4055 H4071 0.961 1_455 S
C4056 C4057 1.370 . S
C4056 C4058 1.363 . S
C4056 H4072 0.931 . S
C4057 C4056 1.370 . S
C4057 C4061 1.408 . S
C4058 C4056 1.363 . S
C4058 C4059 1.370 . S
C4058 C4062 1.524 . S
C4059 C4051 1.503 . S
C4059 C4058 1.370 . S
C4059 C4060 1.403 . S
C4060 C4059 1.403 . S
C4060 C4061 1.404 . S
C4060 C4063 1.539 . S
C4061 C4057 1.408 . S
C4061 C4060 1.404 . S
C4061 H4073 0.930 . S
C4062 C4058 1.524 . S
C4062 H4074 0.956 . S
C4062 H4075 0.961 . S
C4062 H4076 0.961 . S
C4063 C4060 1.539 . S
C4063 H4077 0.958 . S
C4063 H4078 0.961 . S
C4063 H4079 0.960 . S
H4064 C4048 0.931 . S
H4065 C4053 0.929 . S
H4066 C4054 0.960 . S
H4067 C4054 0.962 . S
H4068 C4054 0.960 . S
H4069 C4055 0.961 1_655 S
H4070 C4055 0.961 . S
H4071 C4055 0.961 1_655 S
H4072 C4056 0.931 . S
H4073 C4061 0.930 . S
H4074 C4062 0.956 . S
H4075 C4062 0.961 . S
H4076 C4062 0.961 . S
H4077 C4063 0.958 . S
H4078 C4063 0.961 . S
H4079 C4063 0.960 . S
C4080 C4081 1.391 . S
C4080 C4082 1.394 . S
C4080 H4096 0.931 . S
C4081 C4080 1.391 . S
C4081 C4085 1.376 . S
C4082 C4080 1.394 . S
C4082 C4083 1.369 . S
C4082 C4086 1.531 . S
C4083 C4082 1.369 . S
C4083 C4084 1.410 . S
C4083 C4091 1.503 . S
C4084 C4083 1.410 . S
C4084 C4085 1.392 . S
C4084 C4087 1.511 . S
C4085 C4081 1.376 . S
C4085 C4084 1.392 . S
C4085 H4097 0.929 . S
C4086 C4082 1.531 . S
C4086 H4098 0.960 . S
C4086 H4099 0.962 . S
C4086 H4100 0.960 . S
C4087 C4084 1.511 . S
C4087 H4101 0.961 . S
C4087 H4102 0.961 . S
C4087 H4103 0.961 . S
C4088 C4089 1.370 . S
C4088 C4090 1.363 . S
C4088 H4104 0.931 . S
C4089 C4088 1.370 . S
C4089 C4093 1.408 . S
C4090 C4088 1.363 . S
C4090 C4091 1.370 . S
C4090 C4094 1.524 . S
C4091 C4083 1.503 . S
C4091 C4090 1.370 . S
C4091 C4092 1.403 . S
C4092 C4091 1.403 . S
C4092 C4093 1.404 . S
C4092 C4095 1.539 . S
C4093 C4089 1.408 . S
C4093 C4092 1.404 . S
C4093 H4105 0.930 . S
C4094 C4090 1.524 . S
C4094 H4106 0.956 . S
C4094 H4107 0.961 . S
C4094 H4108 0.961 . S
C4095 C4092 1.539 . S
C4095 H4109 0.958 . S
C4095 H4110 0.961 . S
C4095 H4111 0.960 . S
H4096 C4080 0.931 . S
H4097 C4085 0.929 . S
H4098 C4086 0.960 . S
H4099 C4086 0.962 . S
H4100 C4086 0.960 . S
H4101 C4087 0.961 . S
H4102 C4087 0.961 . S
H4103 C4087 0.961 . S
H4104 C4088 0.931 . S
H4105 C4093 0.930 . S
H4106 C4094 0.956 . S
H4107 C4094 0.961 . S
H4108 C4094 0.961 . S
H4109 C4095 0.958 . S
H4110 C4095 0.961 . S
H4111 C4095 0.960 . S
C4112 C4113 1.391 . S
C4112 C4114 1.394 . S
C4112 H4128 0.931 . S
C4113 C4112 1.391 . S
C4113 C4117 1.376 . S
C4114 C4112 1.394 . S
C4114 C4115 1.369 . S
C4114 C4118 1.531 . S
C4115 C4114 1.369 . S
C4115 C4116 1.410 . S
C4115 C4123 1.503 . S
C4116 C4115 1.410 . S
C4116 C4117 1.392 . S
C4116 C4119 1.511 . S
C4117 C4113 1.376 . S
C4117 C4116 1.392 . S
C4117 H4129 0.929 . S
C4118 C4114 1.531 . S
C4118 H4130 0.960 . S
C4118 H4131 0.962 . S
C4118 H4132 0.960 . S
C4119 C4116 1.511 . S
C4119 H4133 0.961 . S
C4119 H4134 0.961 . S
C4119 H4135 0.961 . S
C4120 C4121 1.370 . S
C4120 C4122 1.363 . S
C4120 H4136 0.931 . S
C4121 C4120 1.370 . S
C4121 C4125 1.408 . S
C4122 C4120 1.363 . S
C4122 C4123 1.370 . S
C4122 C4126 1.524 . S
C4123 C4115 1.503 . S
C4123 C4122 1.370 . S
C4123 C4124 1.403 . S
C4124 C4123 1.403 . S
C4124 C4125 1.404 . S
C4124 C4127 1.539 . S
C4125 C4121 1.408 . S
C4125 C4124 1.404 . S
C4125 H4137 0.930 . S
C4126 C4122 1.524 . S
C4126 H4138 0.956 . S
C4126 H4139 0.961 . S
C4126 H4140 0.961 . S
C4127 C4124 1.539 . S
C4127 H4141 0.958 . S
C4127 H4142 0.961 . S
C4127 H4143 0.960 . S
H4128 C4112 0.931 . S
H4129 C4117 0.929 . S
H4130 C4118 0.960 . S
H4131 C4118 0.962 . S
H4132 C4118 0.960 . S
H4133 C4119 0.961 . S
H4134 C4119 0.961 . S
H4135 C4119 0.961 . S
H4136 C4120 0.931 . S
H4137 C4125 0.930 . S
H4138 C4126 0.956 . S
H4139 C4126 0.961 . S
H4140 C4126 0.961 . S
H4141 C4127 0.958 . S
H4142 C4127 0.961 . S
H4143 C4127 0.960 . S
C4144 C4145 1.391 . S
C4144 C4146 1.394 . S
C4144 H4160 0.931 . S
C4145 C4144 1.391 . S
C4145 C4149 1.376 . S
C4146 C4144 1.394 . S
C4146 C4147 1.369 . S
C4146 C4150 1.531 . S
C4147 C4146 1.369 . S
C4147 C4148 1.410 . S
C4147 C4155 1.503 . S
C4148 C4147 1.410 . S
C4148 C4149 1.392 . S
C4148 C4151 1.511 . S
C4149 C4145 1.376 . S
C4149 C4148 1.392 . S
C4149 H4161 0.929 . S
C4150 C4146 1.531 . S
C4150 H4162 0.960 . S
C4150 H4163 0.962 . S
C4150 H4164 0.960 . S
C4151 C4148 1.511 . S
C4151 H4165 0.961 . S
C4151 H4166 0.961 . S
C4151 H4167 0.961 . S
C4152 C4153 1.370 . S
C4152 C4154 1.363 . S
C4152 H4168 0.931 . S
C4153 C4152 1.370 . S
C4153 C4157 1.408 . S
C4154 C4152 1.363 . S
C4154 C4155 1.370 . S
C4154 C4158 1.524 . S
C4155 C4147 1.503 . S
C4155 C4154 1.370 . S
C4155 C4156 1.403 . S
C4156 C4155 1.403 . S
C4156 C4157 1.404 . S
C4156 C4159 1.539 . S
C4157 C4153 1.408 . S
C4157 C4156 1.404 . S
C4157 H4169 0.930 . S
C4158 C4154 1.524 . S
C4158 H4170 0.956 . S
C4158 H4171 0.961 . S
C4158 H4172 0.961 . S
C4159 C4156 1.539 . S
C4159 H4173 0.958 . S
C4159 H4174 0.961 . S
C4159 H4175 0.960 . S
H4160 C4144 0.931 . S
H4161 C4149 0.929 . S
H4162 C4150 0.960 . S
H4163 C4150 0.962 . S
H4164 C4150 0.960 . S
H4165 C4151 0.961 . S
H4166 C4151 0.961 . S
H4167 C4151 0.961 . S
H4168 C4152 0.931 . S
H4169 C4157 0.930 . S
H4170 C4158 0.956 . S
H4171 C4158 0.961 . S
H4172 C4158 0.961 . S
H4173 C4159 0.958 . S
H4174 C4159 0.961 . S
H4175 C4159 0.960 . S
C4176 C4177 1.391 . S
C4176 C4178 1.394 . S
C4176 H4192 0.931 . S
C4177 C4176 1.391 . S
C4177 C4181 1.376 . S
C4178 C4176 1.394 . S
C4178 C4179 1.369 . S
C4178 C4182 1.531 . S
C4179 C4178 1.369 . S
C4179 C4180 1.410 . S
C4179 C4187 1.503 . S
C4180 C4179 1.410 . S
C4180 C4181 1.392 . S
C4180 C4183 1.511 . S
C4181 C4177 1.376 . S
C4181 C4180 1.392 . S
C4181 H4193 0.929 . S
C4182 C4178 1.531 . S
C4182 H4194 0.960 . S
C4182 H4195 0.962 1_455 S
C4182 H4196 0.960 . S
C4183 C4180 1.511 . S
C4183 H4197 0.961 . S
C4183 H4198 0.961 . S
C4183 H4199 0.961 . S
C4184 C4185 1.370 . S
C4184 C4186 1.363 . S
C4184 H4200 0.931 . S
C4185 C4184 1.370 . S
C4185 C4189 1.408 . S
C4186 C4184 1.363 . S
C4186 C4187 1.370 . S
C4186 C4190 1.524 . S
C4187 C4179 1.503 . S
C4187 C4186 1.370 . S
C4187 C4188 1.403 . S
C4188 C4187 1.403 . S
C4188 C4189 1.404 . S
C4188 C4191 1.539 . S
C4189 C4185 1.408 . S
C4189 C4188 1.404 . S
C4189 H4201 0.930 . S
C4190 C4186 1.524 . S
C4190 H4202 0.956 . S
C4190 H4203 0.961 . S
C4190 H4204 0.961 . S
C4191 C4188 1.539 . S
C4191 H4205 0.958 . S
C4191 H4206 0.961 . S
C4191 H4207 0.960 . S
H4192 C4176 0.931 . S
H4193 C4181 0.929 . S
H4194 C4182 0.960 . S
H4195 C4182 0.962 1_655 S
H4196 C4182 0.960 . S
H4197 C4183 0.961 . S
H4198 C4183 0.961 . S
H4199 C4183 0.961 . S
H4200 C4184 0.931 . S
H4201 C4189 0.930 . S
H4202 C4190 0.956 . S
H4203 C4190 0.961 . S
H4204 C4190 0.961 . S
H4205 C4191 0.958 . S
H4206 C4191 0.961 . S
H4207 C4191 0.960 . S
C4208 C4209 1.391 . S
C4208 C4210 1.394 . S
C4208 H4224 0.931 . S
C4209 C4208 1.391 . S
C4209 C4213 1.376 . S
C4210 C4208 1.394 . S
C4210 C4211 1.369 . S
C4210 C4214 1.531 . S
C4211 C4210 1.369 . S
C4211 C4212 1.410 . S
C4211 C4219 1.503 . S
C4212 C4211 1.410 . S
C4212 C4213 1.392 . S
C4212 C4215 1.511 . S
C4213 C4209 1.376 . S
C4213 C4212 1.392 . S
C4213 H4225 0.929 . S
C4214 C4210 1.531 . S
C4214 H4226 0.960 . S
C4214 H4227 0.962 . S
C4214 H4228 0.960 . S
C4215 C4212 1.511 . S
C4215 H4229 0.961 . S
C4215 H4230 0.961 . S
C4215 H4231 0.961 . S
C4216 C4217 1.370 . S
C4216 C4218 1.363 . S
C4216 H4232 0.931 . S
C4217 C4216 1.370 . S
C4217 C4221 1.408 . S
C4218 C4216 1.363 . S
C4218 C4219 1.370 . S
C4218 C4222 1.524 . S
C4219 C4211 1.503 . S
C4219 C4218 1.370 . S
C4219 C4220 1.403 . S
C4220 C4219 1.403 . S
C4220 C4221 1.404 . S
C4220 C4223 1.539 . S
C4221 C4217 1.408 . S
C4221 C4220 1.404 . S
C4221 H4233 0.930 . S
C4222 C4218 1.524 . S
C4222 H4234 0.956 . S
C4222 H4235 0.961 . S
C4222 H4236 0.961 . S
C4223 C4220 1.539 . S
C4223 H4237 0.958 . S
C4223 H4238 0.961 . S
C4223 H4239 0.960 . S
H4224 C4208 0.931 . S
H4225 C4213 0.929 . S
H4226 C4214 0.960 . S
H4227 C4214 0.962 . S
H4228 C4214 0.960 . S
H4229 C4215 0.961 . S
H4230 C4215 0.961 . S
H4231 C4215 0.961 . S
H4232 C4216 0.931 . S
H4233 C4221 0.930 . S
H4234 C4222 0.956 . S
H4235 C4222 0.961 . S
H4236 C4222 0.961 . S
H4237 C4223 0.958 . S
H4238 C4223 0.961 . S
H4239 C4223 0.960 . S
C4240 C4241 1.391 . S
C4240 C4242 1.394 . S
C4240 H4256 0.931 . S
C4241 C4240 1.391 . S
C4241 C4245 1.376 . S
C4242 C4240 1.394 . S
C4242 C4243 1.369 . S
C4242 C4246 1.531 . S
C4243 C4242 1.369 . S
C4243 C4244 1.410 . S
C4243 C4251 1.503 . S
C4244 C4243 1.410 . S
C4244 C4245 1.392 . S
C4244 C4247 1.511 . S
C4245 C4241 1.376 . S
C4245 C4244 1.392 . S
C4245 H4257 0.929 . S
C4246 C4242 1.531 . S
C4246 H4258 0.960 . S
C4246 H4259 0.962 . S
C4246 H4260 0.960 . S
C4247 C4244 1.511 . S
C4247 H4261 0.961 . S
C4247 H4262 0.961 . S
C4247 H4263 0.961 . S
C4248 C4249 1.370 . S
C4248 C4250 1.363 . S
C4248 H4264 0.931 . S
C4249 C4248 1.370 . S
C4249 C4253 1.408 . S
C4250 C4248 1.363 . S
C4250 C4251 1.370 . S
C4250 C4254 1.524 . S
C4251 C4243 1.503 . S
C4251 C4250 1.370 . S
C4251 C4252 1.403 . S
C4252 C4251 1.403 . S
C4252 C4253 1.404 . S
C4252 C4255 1.539 . S
C4253 C4249 1.408 . S
C4253 C4252 1.404 . S
C4253 H4265 0.930 . S
C4254 C4250 1.524 . S
C4254 H4266 0.956 . S
C4254 H4267 0.961 . S
C4254 H4268 0.961 . S
C4255 C4252 1.539 . S
C4255 H4269 0.958 . S
C4255 H4270 0.961 . S
C4255 H4271 0.960 . S
H4256 C4240 0.931 . S
H4257 C4245 0.929 . S
H4258 C4246 0.960 . S
H4259 C4246 0.962 . S
H4260 C4246 0.960 . S
H4261 C4247 0.961 . S
H4262 C4247 0.961 . S
H4263 C4247 0.961 . S
H4264 C4248 0.931 . S
H4265 C4253 0.930 . S
H4266 C4254 0.956 . S
H4267 C4254 0.961 . S
H4268 C4254 0.961 . S
H4269 C4255 0.958 . S
H4270 C4255 0.961 . S
H4271 C4255 0.960 . S
C4272 C4273 1.391 . S
C4272 C4274 1.394 . S
C4272 H4288 0.931 . S
C4273 C4272 1.391 . S
C4273 C4277 1.376 . S
C4274 C4272 1.394 . S
C4274 C4275 1.369 . S
C4274 C4278 1.531 . S
C4275 C4274 1.369 . S
C4275 C4276 1.410 . S
C4275 C4283 1.503 . S
C4276 C4275 1.410 . S
C4276 C4277 1.392 . S
C4276 C4279 1.511 . S
C4277 C4273 1.376 . S
C4277 C4276 1.392 . S
C4277 H4289 0.929 . S
C4278 C4274 1.531 . S
C4278 H4290 0.960 . S
C4278 H4291 0.962 . S
C4278 H4292 0.960 . S
C4279 C4276 1.511 . S
C4279 H4293 0.961 . S
C4279 H4294 0.961 . S
C4279 H4295 0.961 . S
C4280 C4281 1.370 . S
C4280 C4282 1.363 . S
C4280 H4296 0.931 . S
C4281 C4280 1.370 . S
C4281 C4285 1.408 . S
C4282 C4280 1.363 . S
C4282 C4283 1.370 . S
C4282 C4286 1.524 . S
C4283 C4275 1.503 . S
C4283 C4282 1.370 . S
C4283 C4284 1.403 . S
C4284 C4283 1.403 . S
C4284 C4285 1.404 . S
C4284 C4287 1.539 . S
C4285 C4281 1.408 . S
C4285 C4284 1.404 . S
C4285 H4297 0.930 . S
C4286 C4282 1.524 . S
C4286 H4298 0.956 . S
C4286 H4299 0.961 . S
C4286 H4300 0.961 . S
C4287 C4284 1.539 . S
C4287 H4301 0.958 . S
C4287 H4302 0.961 . S
C4287 H4303 0.960 . S
H4288 C4272 0.931 . S
H4289 C4277 0.929 . S
H4290 C4278 0.960 . S
H4291 C4278 0.962 . S
H4292 C4278 0.960 . S
H4293 C4279 0.961 . S
H4294 C4279 0.961 . S
H4295 C4279 0.961 . S
H4296 C4280 0.931 . S
H4297 C4285 0.930 . S
H4298 C4286 0.956 . S
H4299 C4286 0.961 . S
H4300 C4286 0.961 . S
H4301 C4287 0.958 . S
H4302 C4287 0.961 . S
H4303 C4287 0.960 . S
C4304 C4305 1.391 . S
C4304 C4306 1.394 . S
C4304 H4320 0.931 . S
C4305 C4304 1.391 . S
C4305 C4309 1.376 . S
C4306 C4304 1.394 . S
C4306 C4307 1.369 . S
C4306 C4310 1.531 . S
C4307 C4306 1.369 . S
C4307 C4308 1.410 . S
C4307 C4315 1.503 . S
C4308 C4307 1.410 . S
C4308 C4309 1.392 . S
C4308 C4311 1.511 . S
C4309 C4305 1.376 . S
C4309 C4308 1.392 . S
C4309 H4321 0.929 . S
C4310 C4306 1.531 . S
C4310 H4322 0.960 . S
C4310 H4323 0.962 . S
C4310 H4324 0.960 . S
C4311 C4308 1.511 . S
C4311 H4325 0.961 . S
C4311 H4326 0.961 . S
C4311 H4327 0.961 . S
C4312 C4313 1.370 . S
C4312 C4314 1.363 . S
C4312 H4328 0.931 . S
C4313 C4312 1.370 . S
C4313 C4317 1.408 . S
C4314 C4312 1.363 . S
C4314 C4315 1.370 . S
C4314 C4318 1.524 . S
C4315 C4307 1.503 . S
C4315 C4314 1.370 . S
C4315 C4316 1.403 . S
C4316 C4315 1.403 . S
C4316 C4317 1.404 . S
C4316 C4319 1.539 . S
C4317 C4313 1.408 . S
C4317 C4316 1.404 . S
C4317 H4329 0.930 1_655 S
C4318 C4314 1.524 . S
C4318 H4330 0.956 . S
C4318 H4331 0.961 . S
C4318 H4332 0.961 . S
C4319 C4316 1.539 . S
C4319 H4333 0.958 . S
C4319 H4334 0.961 1_655 S
C4319 H4335 0.960 . S
H4320 C4304 0.931 . S
H4321 C4309 0.929 . S
H4322 C4310 0.960 . S
H4323 C4310 0.962 . S
H4324 C4310 0.960 . S
H4325 C4311 0.961 . S
H4326 C4311 0.961 . S
H4327 C4311 0.961 . S
H4328 C4312 0.931 . S
H4329 C4317 0.930 1_455 S
H4330 C4318 0.956 . S
H4331 C4318 0.961 . S
H4332 C4318 0.961 . S
H4333 C4319 0.958 . S
H4334 C4319 0.961 1_455 S
H4335 C4319 0.960 . S
C4336 C4337 1.391 . S
C4336 C4338 1.394 . S
C4336 H4352 0.931 . S
C4337 C4336 1.391 . S
C4337 C4341 1.376 . S
C4338 C4336 1.394 . S
C4338 C4339 1.369 . S
C4338 C4342 1.531 . S
C4339 C4338 1.369 . S
C4339 C4340 1.410 . S
C4339 C4347 1.503 . S
C4340 C4339 1.410 . S
C4340 C4341 1.392 . S
C4340 C4343 1.511 . S
C4341 C4337 1.376 . S
C4341 C4340 1.392 . S
C4341 H4353 0.929 . S
C4342 C4338 1.531 . S
C4342 H4354 0.960 . S
C4342 H4355 0.962 . S
C4342 H4356 0.960 . S
C4343 C4340 1.511 . S
C4343 H4357 0.961 . S
C4343 H4358 0.961 . S
C4343 H4359 0.961 . S
C4344 C4345 1.370 . S
C4344 C4346 1.363 . S
C4344 H4360 0.931 . S
C4345 C4344 1.370 . S
C4345 C4349 1.408 . S
C4346 C4344 1.363 . S
C4346 C4347 1.370 . S
C4346 C4350 1.524 . S
C4347 C4339 1.503 . S
C4347 C4346 1.370 . S
C4347 C4348 1.403 . S
C4348 C4347 1.403 . S
C4348 C4349 1.404 . S
C4348 C4351 1.539 . S
C4349 C4345 1.408 . S
C4349 C4348 1.404 . S
C4349 H4361 0.930 . S
C4350 C4346 1.524 . S
C4350 H4362 0.956 . S
C4350 H4363 0.961 . S
C4350 H4364 0.961 . S
C4351 C4348 1.539 . S
C4351 H4365 0.958 . S
C4351 H4366 0.961 . S
C4351 H4367 0.960 . S
H4352 C4336 0.931 . S
H4353 C4341 0.929 . S
H4354 C4342 0.960 . S
H4355 C4342 0.962 . S
H4356 C4342 0.960 . S
H4357 C4343 0.961 . S
H4358 C4343 0.961 . S
H4359 C4343 0.961 . S
H4360 C4344 0.931 . S
H4361 C4349 0.930 . S
H4362 C4350 0.956 . S
H4363 C4350 0.961 . S
H4364 C4350 0.961 . S
H4365 C4351 0.958 . S
H4366 C4351 0.961 . S
H4367 C4351 0.960 . S
C4368 C4369 1.391 . S
C4368 C4370 1.394 . S
C4368 H4384 0.931 . S
C4369 C4368 1.391 . S
C4369 C4373 1.376 . S
C4370 C4368 1.394 . S
C4370 C4371 1.369 . S
C4370 C4374 1.531 . S
C4371 C4370 1.369 . S
C4371 C4372 1.410 . S
C4371 C4379 1.503 . S
C4372 C4371 1.410 . S
C4372 C4373 1.392 . S
C4372 C4375 1.511 . S
C4373 C4369 1.376 . S
C4373 C4372 1.392 . S
C4373 H4385 0.929 . S
C4374 C4370 1.531 . S
C4374 H4386 0.960 . S
C4374 H4387 0.962 . S
C4374 H4388 0.960 . S
C4375 C4372 1.511 . S
C4375 H4389 0.961 . S
C4375 H4390 0.961 . S
C4375 H4391 0.961 . S
C4376 C4377 1.370 . S
C4376 C4378 1.363 . S
C4376 H4392 0.931 . S
C4377 C4376 1.370 . S
C4377 C4381 1.408 . S
C4378 C4376 1.363 . S
C4378 C4379 1.370 . S
C4378 C4382 1.524 . S
C4379 C4371 1.503 . S
C4379 C4378 1.370 . S
C4379 C4380 1.403 . S
C4380 C4379 1.403 . S
C4380 C4381 1.404 . S
C4380 C4383 1.539 . S
C4381 C4377 1.408 . S
C4381 C4380 1.404 . S
C4381 H4393 0.930 . S
C4382 C4378 1.524 . S
C4382 H4394 0.956 . S
C4382 H4395 0.961 . S
C4382 H4396 0.961 . S
C4383 C4380 1.539 . S
C4383 H4397 0.958 . S
C4383 H4398 0.961 . S
C4383 H4399 0.960 . S
H4384 C4368 0.931 . S
H4385 C4373 0.929 . S
H4386 C4374 0.960 . S
H4387 C4374 0.962 . S
H4388 C4374 0.960 . S
H4389 C4375 0.961 . S
H4390 C4375 0.961 . S
H4391 C4375 0.961 . S
H4392 C4376 0.931 . S
H4393 C4381 0.930 . S
H4394 C4382 0.956 . S
H4395 C4382 0.961 . S
H4396 C4382 0.961 . S
H4397 C4383 0.958 . S
H4398 C4383 0.961 . S
H4399 C4383 0.960 . S
C4400 C4401 1.391 . S
C4400 C4402 1.394 . S
C4400 H4416 0.931 . S
C4401 C4400 1.391 . S
C4401 C4405 1.376 . S
C4402 C4400 1.394 . S
C4402 C4403 1.369 . S
C4402 C4406 1.531 . S
C4403 C4402 1.369 . S
C4403 C4404 1.410 . S
C4403 C4411 1.503 . S
C4404 C4403 1.410 . S
C4404 C4405 1.392 . S
C4404 C4407 1.511 . S
C4405 C4401 1.376 . S
C4405 C4404 1.392 . S
C4405 H4417 0.929 . S
C4406 C4402 1.531 . S
C4406 H4418 0.960 . S
C4406 H4419 0.962 . S
C4406 H4420 0.960 . S
C4407 C4404 1.511 . S
C4407 H4421 0.961 . S
C4407 H4422 0.961 . S
C4407 H4423 0.961 . S
C4408 C4409 1.370 . S
C4408 C4410 1.363 . S
C4408 H4424 0.931 . S
C4409 C4408 1.370 . S
C4409 C4413 1.408 . S
C4410 C4408 1.363 . S
C4410 C4411 1.370 . S
C4410 C4414 1.524 . S
C4411 C4403 1.503 . S
C4411 C4410 1.370 . S
C4411 C4412 1.403 . S
C4412 C4411 1.403 . S
C4412 C4413 1.404 . S
C4412 C4415 1.539 . S
C4413 C4409 1.408 . S
C4413 C4412 1.404 . S
C4413 H4425 0.930 . S
C4414 C4410 1.524 . S
C4414 H4426 0.956 . S
C4414 H4427 0.961 . S
C4414 H4428 0.961 . S
C4415 C4412 1.539 . S
C4415 H4429 0.958 . S
C4415 H4430 0.961 . S
C4415 H4431 0.960 . S
H4416 C4400 0.931 . S
H4417 C4405 0.929 . S
H4418 C4406 0.960 . S
H4419 C4406 0.962 . S
H4420 C4406 0.960 . S
H4421 C4407 0.961 . S
H4422 C4407 0.961 . S
H4423 C4407 0.961 . S
H4424 C4408 0.931 . S
H4425 C4413 0.930 . S
H4426 C4414 0.956 . S
H4427 C4414 0.961 . S
H4428 C4414 0.961 . S
H4429 C4415 0.958 . S
H4430 C4415 0.961 . S
H4431 C4415 0.960 . S
C4432 C4433 1.391 . S
C4432 C4434 1.394 . S
C4432 H4448 0.931 . S
C4433 C4432 1.391 . S
C4433 C4437 1.376 . S
C4434 C4432 1.394 . S
C4434 C4435 1.369 . S
C4434 C4438 1.531 . S
C4435 C4434 1.369 . S
C4435 C4436 1.410 . S
C4435 C4443 1.503 . S
C4436 C4435 1.410 . S
C4436 C4437 1.392 . S
C4436 C4439 1.511 . S
C4437 C4433 1.376 . S
C4437 C4436 1.392 . S
C4437 H4449 0.929 . S
C4438 C4434 1.531 . S
C4438 H4450 0.960 . S
C4438 H4451 0.962 . S
C4438 H4452 0.960 . S
C4439 C4436 1.511 . S
C4439 H4453 0.961 . S
C4439 H4454 0.961 . S
C4439 H4455 0.961 . S
C4440 C4441 1.370 . S
C4440 C4442 1.363 . S
C4440 H4456 0.931 . S
C4441 C4440 1.370 . S
C4441 C4445 1.408 . S
C4442 C4440 1.363 . S
C4442 C4443 1.370 . S
C4442 C4446 1.524 . S
C4443 C4435 1.503 . S
C4443 C4442 1.370 . S
C4443 C4444 1.403 . S
C4444 C4443 1.403 . S
C4444 C4445 1.404 . S
C4444 C4447 1.539 . S
C4445 C4441 1.408 . S
C4445 C4444 1.404 . S
C4445 H4457 0.930 . S
C4446 C4442 1.524 . S
C4446 H4458 0.956 . S
C4446 H4459 0.961 . S
C4446 H4460 0.961 . S
C4447 C4444 1.539 . S
C4447 H4461 0.958 . S
C4447 H4462 0.961 . S
C4447 H4463 0.960 . S
H4448 C4432 0.931 . S
H4449 C4437 0.929 . S
H4450 C4438 0.960 . S
H4451 C4438 0.962 . S
H4452 C4438 0.960 . S
H4453 C4439 0.961 . S
H4454 C4439 0.961 . S
H4455 C4439 0.961 . S
H4456 C4440 0.931 . S
H4457 C4445 0.930 . S
H4458 C4446 0.956 . S
H4459 C4446 0.961 . S
H4460 C4446 0.961 . S
H4461 C4447 0.958 . S
H4462 C4447 0.961 . S
H4463 C4447 0.960 . S
C4464 C4465 1.391 . S
C4464 C4466 1.394 . S
C4464 H4480 0.931 . S
C4465 C4464 1.391 . S
C4465 C4469 1.376 . S
C4466 C4464 1.394 . S
C4466 C4467 1.369 . S
C4466 C4470 1.531 . S
C4467 C4466 1.369 . S
C4467 C4468 1.410 . S
C4467 C4475 1.503 . S
C4468 C4467 1.410 . S
C4468 C4469 1.392 . S
C4468 C4471 1.511 . S
C4469 C4465 1.376 . S
C4469 C4468 1.392 . S
C4469 H4481 0.929 . S
C4470 C4466 1.531 . S
C4470 H4482 0.960 . S
C4470 H4483 0.962 . S
C4470 H4484 0.960 . S
C4471 C4468 1.511 . S
C4471 H4485 0.961 . S
C4471 H4486 0.961 . S
C4471 H4487 0.961 . S
C4472 C4473 1.370 . S
C4472 C4474 1.363 . S
C4472 H4488 0.931 . S
C4473 C4472 1.370 . S
C4473 C4477 1.408 . S
C4474 C4472 1.363 . S
C4474 C4475 1.370 . S
C4474 C4478 1.524 . S
C4475 C4467 1.503 . S
C4475 C4474 1.370 . S
C4475 C4476 1.403 . S
C4476 C4475 1.403 . S
C4476 C4477 1.404 . S
C4476 C4479 1.539 . S
C4477 C4473 1.408 . S
C4477 C4476 1.404 . S
C4477 H4489 0.930 . S
C4478 C4474 1.524 . S
C4478 H4490 0.956 . S
C4478 H4491 0.961 . S
C4478 H4492 0.961 . S
C4479 C4476 1.539 . S
C4479 H4493 0.958 . S
C4479 H4494 0.961 . S
C4479 H4495 0.960 . S
H4480 C4464 0.931 . S
H4481 C4469 0.929 . S
H4482 C4470 0.960 . S
H4483 C4470 0.962 . S
H4484 C4470 0.960 . S
H4485 C4471 0.961 . S
H4486 C4471 0.961 . S
H4487 C4471 0.961 . S
H4488 C4472 0.931 . S
H4489 C4477 0.930 . S
H4490 C4478 0.956 . S
H4491 C4478 0.961 . S
H4492 C4478 0.961 . S
H4493 C4479 0.958 . S
H4494 C4479 0.961 . S
H4495 C4479 0.960 . S
C4496 C4497 1.391 . S
C4496 C4498 1.394 . S
C4496 H4512 0.931 . S
C4497 C4496 1.391 . S
C4497 C4501 1.376 . S
C4498 C4496 1.394 . S
C4498 C4499 1.369 . S
C4498 C4502 1.531 . S
C4499 C4498 1.369 . S
C4499 C4500 1.410 . S
C4499 C4507 1.503 . S
C4500 C4499 1.410 . S
C4500 C4501 1.392 . S
C4500 C4503 1.511 . S
C4501 C4497 1.376 . S
C4501 C4500 1.392 . S
C4501 H4513 0.929 . S
C4502 C4498 1.531 . S
C4502 H4514 0.960 . S
C4502 H4515 0.962 . S
C4502 H4516 0.960 . S
C4503 C4500 1.511 . S
C4503 H4517 0.961 . S
C4503 H4518 0.961 . S
C4503 H4519 0.961 . S
C4504 C4505 1.370 . S
C4504 C4506 1.363 . S
C4504 H4520 0.931 . S
C4505 C4504 1.370 . S
C4505 C4509 1.408 . S
C4506 C4504 1.363 . S
C4506 C4507 1.370 . S
C4506 C4510 1.524 . S
C4507 C4499 1.503 . S
C4507 C4506 1.370 . S
C4507 C4508 1.403 . S
C4508 C4507 1.403 . S
C4508 C4509 1.404 . S
C4508 C4511 1.539 . S
C4509 C4505 1.408 . S
C4509 C4508 1.404 . S
C4509 H4521 0.930 . S
C4510 C4506 1.524 . S
C4510 H4522 0.956 . S
C4510 H4523 0.961 . S
C4510 H4524 0.961 . S
C4511 C4508 1.539 . S
C4511 H4525 0.958 . S
C4511 H4526 0.961 . S
C4511 H4527 0.960 . S
H4512 C4496 0.931 . S
H4513 C4501 0.929 . S
H4514 C4502 0.960 . S
H4515 C4502 0.962 . S
H4516 C4502 0.960 . S
H4517 C4503 0.961 . S
H4518 C4503 0.961 . S
H4519 C4503 0.961 . S
H4520 C4504 0.931 . S
H4521 C4509 0.930 . S
H4522 C4510 0.956 . S
H4523 C4510 0.961 . S
H4524 C4510 0.961 . S
H4525 C4511 0.958 . S
H4526 C4511 0.961 . S
H4527 C4511 0.960 . S
C4528 C4529 1.391 . S
C4528 C4530 1.394 . S
C4528 H4544 0.931 . S
C4529 C4528 1.391 . S
C4529 C4533 1.376 . S
C4530 C4528 1.394 . S
C4530 C4531 1.369 . S
C4530 C4534 1.531 . S
C4531 C4530 1.369 . S
C4531 C4532 1.410 . S
C4531 C4539 1.503 . S
C4532 C4531 1.410 . S
C4532 C4533 1.392 . S
C4532 C4535 1.511 . S
C4533 C4529 1.376 . S
C4533 C4532 1.392 . S
C4533 H4545 0.929 . S
C4534 C4530 1.531 . S
C4534 H4546 0.960 . S
C4534 H4547 0.962 . S
C4534 H4548 0.960 . S
C4535 C4532 1.511 . S
C4535 H4549 0.961 . S
C4535 H4550 0.961 . S
C4535 H4551 0.961 . S
C4536 C4537 1.370 . S
C4536 C4538 1.363 . S
C4536 H4552 0.931 . S
C4537 C4536 1.370 . S
C4537 C4541 1.408 . S
C4538 C4536 1.363 . S
C4538 C4539 1.370 . S
C4538 C4542 1.524 . S
C4539 C4531 1.503 . S
C4539 C4538 1.370 . S
C4539 C4540 1.403 . S
C4540 C4539 1.403 . S
C4540 C4541 1.404 . S
C4540 C4543 1.539 . S
C4541 C4537 1.408 . S
C4541 C4540 1.404 . S
C4541 H4553 0.930 1_565 S
C4542 C4538 1.524 . S
C4542 H4554 0.956 . S
C4542 H4555 0.961 . S
C4542 H4556 0.961 . S
C4543 C4540 1.539 . S
C4543 H4557 0.958 . S
C4543 H4558 0.961 1_565 S
C4543 H4559 0.960 . S
H4544 C4528 0.931 . S
H4545 C4533 0.929 . S
H4546 C4534 0.960 . S
H4547 C4534 0.962 . S
H4548 C4534 0.960 . S
H4549 C4535 0.961 . S
H4550 C4535 0.961 . S
H4551 C4535 0.961 . S
H4552 C4536 0.931 . S
H4553 C4541 0.930 1_545 S
H4554 C4542 0.956 . S
H4555 C4542 0.961 . S
H4556 C4542 0.961 . S
H4557 C4543 0.958 . S
H4558 C4543 0.961 1_545 S
H4559 C4543 0.960 . S
C4560 C4561 1.391 . S
C4560 C4562 1.394 . S
C4560 H4576 0.931 . S
C4561 C4560 1.391 . S
C4561 C4565 1.376 . S
C4562 C4560 1.394 . S
C4562 C4563 1.369 . S
C4562 C4566 1.531 . S
C4563 C4562 1.369 . S
C4563 C4564 1.410 . S
C4563 C4571 1.503 . S
C4564 C4563 1.410 . S
C4564 C4565 1.392 . S
C4564 C4567 1.511 . S
C4565 C4561 1.376 . S
C4565 C4564 1.392 . S
C4565 H4577 0.929 . S
C4566 C4562 1.531 . S
C4566 H4578 0.960 . S
C4566 H4579 0.962 . S
C4566 H4580 0.960 . S
C4567 C4564 1.511 . S
C4567 H4581 0.961 . S
C4567 H4582 0.961 . S
C4567 H4583 0.961 . S
C4568 C4569 1.370 . S
C4568 C4570 1.363 . S
C4568 H4584 0.931 . S
C4569 C4568 1.370 . S
C4569 C4573 1.408 . S
C4570 C4568 1.363 . S
C4570 C4571 1.370 . S
C4570 C4574 1.524 . S
C4571 C4563 1.503 . S
C4571 C4570 1.370 . S
C4571 C4572 1.403 . S
C4572 C4571 1.403 . S
C4572 C4573 1.404 . S
C4572 C4575 1.539 . S
C4573 C4569 1.408 . S
C4573 C4572 1.404 . S
C4573 H4585 0.930 . S
C4574 C4570 1.524 . S
C4574 H4586 0.956 . S
C4574 H4587 0.961 . S
C4574 H4588 0.961 . S
C4575 C4572 1.539 . S
C4575 H4589 0.958 . S
C4575 H4590 0.961 . S
C4575 H4591 0.960 . S
H4576 C4560 0.931 . S
H4577 C4565 0.929 . S
H4578 C4566 0.960 . S
H4579 C4566 0.962 . S
H4580 C4566 0.960 . S
H4581 C4567 0.961 . S
H4582 C4567 0.961 . S
H4583 C4567 0.961 . S
H4584 C4568 0.931 . S
H4585 C4573 0.930 . S
H4586 C4574 0.956 . S
H4587 C4574 0.961 . S
H4588 C4574 0.961 . S
H4589 C4575 0.958 . S
H4590 C4575 0.961 . S
H4591 C4575 0.960 . S
C4592 C4593 1.391 . S
C4592 C4594 1.394 . S
C4592 H4608 0.931 . S
C4593 C4592 1.391 . S
C4593 C4597 1.376 . S
C4594 C4592 1.394 . S
C4594 C4595 1.369 . S
C4594 C4598 1.531 . S
C4595 C4594 1.369 . S
C4595 C4596 1.410 . S
C4595 C4603 1.503 . S
C4596 C4595 1.410 . S
C4596 C4597 1.392 . S
C4596 C4599 1.511 . S
C4597 C4593 1.376 . S
C4597 C4596 1.392 . S
C4597 H4609 0.929 . S
C4598 C4594 1.531 . S
C4598 H4610 0.960 . S
C4598 H4611 0.962 . S
C4598 H4612 0.960 . S
C4599 C4596 1.511 . S
C4599 H4613 0.961 . S
C4599 H4614 0.961 . S
C4599 H4615 0.961 . S
C4600 C4601 1.370 . S
C4600 C4602 1.363 . S
C4600 H4616 0.931 . S
C4601 C4600 1.370 . S
C4601 C4605 1.408 . S
C4602 C4600 1.363 . S
C4602 C4603 1.370 . S
C4602 C4606 1.524 . S
C4603 C4595 1.503 . S
C4603 C4602 1.370 . S
C4603 C4604 1.403 . S
C4604 C4603 1.403 . S
C4604 C4605 1.404 . S
C4604 C4607 1.539 1_554 S
C4605 C4601 1.408 . S
C4605 C4604 1.404 . S
C4605 H4617 0.930 . S
C4606 C4602 1.524 . S
C4606 H4618 0.956 . S
C4606 H4619 0.961 . S
C4606 H4620 0.961 . S
C4607 C4604 1.539 1_556 S
C4607 H4621 0.958 . S
C4607 H4622 0.961 . S
C4607 H4623 0.960 1_556 S
H4608 C4592 0.931 . S
H4609 C4597 0.929 . S
H4610 C4598 0.960 . S
H4611 C4598 0.962 . S
H4612 C4598 0.960 . S
H4613 C4599 0.961 . S
H4614 C4599 0.961 . S
H4615 C4599 0.961 . S
H4616 C4600 0.931 . S
H4617 C4605 0.930 . S
H4618 C4606 0.956 . S
H4619 C4606 0.961 . S
H4620 C4606 0.961 . S
H4621 C4607 0.958 . S
H4622 C4607 0.961 . S
H4623 C4607 0.960 1_554 S
C4624 C4625 1.391 . S
C4624 C4626 1.394 . S
C4624 H4640 0.931 . S
C4625 C4624 1.391 . S
C4625 C4629 1.376 . S
C4626 C4624 1.394 . S
C4626 C4627 1.369 . S
C4626 C4630 1.531 . S
C4627 C4626 1.369 . S
C4627 C4628 1.410 . S
C4627 C4635 1.503 . S
C4628 C4627 1.410 . S
C4628 C4629 1.392 . S
C4628 C4631 1.511 . S
C4629 C4625 1.376 . S
C4629 C4628 1.392 . S
C4629 H4641 0.929 . S
C4630 C4626 1.531 . S
C4630 H4642 0.960 . S
C4630 H4643 0.962 . S
C4630 H4644 0.960 . S
C4631 C4628 1.511 . S
C4631 H4645 0.961 . S
C4631 H4646 0.961 . S
C4631 H4647 0.961 . S
C4632 C4633 1.370 . S
C4632 C4634 1.363 . S
C4632 H4648 0.931 . S
C4633 C4632 1.370 . S
C4633 C4637 1.408 . S
C4634 C4632 1.363 . S
C4634 C4635 1.370 . S
C4634 C4638 1.524 . S
C4635 C4627 1.503 . S
C4635 C4634 1.370 . S
C4635 C4636 1.403 . S
C4636 C4635 1.403 . S
C4636 C4637 1.404 . S
C4636 C4639 1.539 . S
C4637 C4633 1.408 . S
C4637 C4636 1.404 . S
C4637 H4649 0.930 . S
C4638 C4634 1.524 . S
C4638 H4650 0.956 . S
C4638 H4651 0.961 . S
C4638 H4652 0.961 . S
C4639 C4636 1.539 . S
C4639 H4653 0.958 . S
C4639 H4654 0.961 . S
C4639 H4655 0.960 . S
H4640 C4624 0.931 . S
H4641 C4629 0.929 . S
H4642 C4630 0.960 . S
H4643 C4630 0.962 . S
H4644 C4630 0.960 . S
H4645 C4631 0.961 . S
H4646 C4631 0.961 . S
H4647 C4631 0.961 . S
H4648 C4632 0.931 . S
H4649 C4637 0.930 . S
H4650 C4638 0.956 . S
H4651 C4638 0.961 . S
H4652 C4638 0.961 . S
H4653 C4639 0.958 . S
H4654 C4639 0.961 . S
H4655 C4639 0.960 . S
C4656 C4657 1.391 . S
C4656 C4658 1.394 . S
C4656 H4672 0.931 . S
C4657 C4656 1.391 . S
C4657 C4661 1.376 . S
C4658 C4656 1.394 . S
C4658 C4659 1.369 . S
C4658 C4662 1.531 1_554 S
C4659 C4658 1.369 . S
C4659 C4660 1.410 . S
C4659 C4667 1.503 . S
C4660 C4659 1.410 . S
C4660 C4661 1.392 . S
C4660 C4663 1.511 . S
C4661 C4657 1.376 . S
C4661 C4660 1.392 . S
C4661 H4673 0.929 . S
C4662 C4658 1.531 1_556 S
C4662 H4674 0.960 . S
C4662 H4675 0.962 . S
C4662 H4676 0.960 . S
C4663 C4660 1.511 . S
C4663 H4677 0.961 . S
C4663 H4678 0.961 . S
C4663 H4679 0.961 . S
C4664 C4665 1.370 . S
C4664 C4666 1.363 . S
C4664 H4680 0.931 . S
C4665 C4664 1.370 . S
C4665 C4669 1.408 . S
C4666 C4664 1.363 . S
C4666 C4667 1.370 . S
C4666 C4670 1.524 . S
C4667 C4659 1.503 . S
C4667 C4666 1.370 . S
C4667 C4668 1.403 . S
C4668 C4667 1.403 . S
C4668 C4669 1.404 . S
C4668 C4671 1.539 . S
C4669 C4665 1.408 . S
C4669 C4668 1.404 . S
C4669 H4681 0.930 . S
C4670 C4666 1.524 . S
C4670 H4682 0.956 . S
C4670 H4683 0.961 . S
C4670 H4684 0.961 . S
C4671 C4668 1.539 . S
C4671 H4685 0.958 1_554 S
C4671 H4686 0.961 . S
C4671 H4687 0.960 . S
H4672 C4656 0.931 . S
H4673 C4661 0.929 . S
H4674 C4662 0.960 . S
H4675 C4662 0.962 . S
H4676 C4662 0.960 . S
H4677 C4663 0.961 . S
H4678 C4663 0.961 . S
H4679 C4663 0.961 . S
H4680 C4664 0.931 . S
H4681 C4669 0.930 . S
H4682 C4670 0.956 . S
H4683 C4670 0.961 . S
H4684 C4670 0.961 . S
H4685 C4671 0.958 1_556 S
H4686 C4671 0.961 . S
H4687 C4671 0.960 . S
C4688 C4689 1.391 . S
C4688 C4690 1.394 . S
C4688 H4704 0.931 . S
C4689 C4688 1.391 . S
C4689 C4693 1.376 . S
C4690 C4688 1.394 . S
C4690 C4691 1.369 . S
C4690 C4694 1.531 . S
C4691 C4690 1.369 . S
C4691 C4692 1.410 . S
C4691 C4699 1.503 . S
C4692 C4691 1.410 . S
C4692 C4693 1.392 . S
C4692 C4695 1.511 . S
C4693 C4689 1.376 . S
C4693 C4692 1.392 . S
C4693 H4705 0.929 . S
C4694 C4690 1.531 . S
C4694 H4706 0.960 . S
C4694 H4707 0.962 . S
C4694 H4708 0.960 . S
C4695 C4692 1.511 . S
C4695 H4709 0.961 . S
C4695 H4710 0.961 . S
C4695 H4711 0.961 . S
C4696 C4697 1.370 . S
C4696 C4698 1.363 . S
C4696 H4712 0.931 . S
C4697 C4696 1.370 . S
C4697 C4701 1.408 . S
C4698 C4696 1.363 . S
C4698 C4699 1.370 . S
C4698 C4702 1.524 . S
C4699 C4691 1.503 . S
C4699 C4698 1.370 . S
C4699 C4700 1.403 . S
C4700 C4699 1.403 . S
C4700 C4701 1.404 . S
C4700 C4703 1.539 . S
C4701 C4697 1.408 . S
C4701 C4700 1.404 . S
C4701 H4713 0.930 . S
C4702 C4698 1.524 . S
C4702 H4714 0.956 . S
C4702 H4715 0.961 . S
C4702 H4716 0.961 . S
C4703 C4700 1.539 . S
C4703 H4717 0.958 . S
C4703 H4718 0.961 . S
C4703 H4719 0.960 . S
H4704 C4688 0.931 . S
H4705 C4693 0.929 . S
H4706 C4694 0.960 . S
H4707 C4694 0.962 . S
H4708 C4694 0.960 . S
H4709 C4695 0.961 . S
H4710 C4695 0.961 . S
H4711 C4695 0.961 . S
H4712 C4696 0.931 . S
H4713 C4701 0.930 . S
H4714 C4702 0.956 . S
H4715 C4702 0.961 . S
H4716 C4702 0.961 . S
H4717 C4703 0.958 . S
H4718 C4703 0.961 . S
H4719 C4703 0.960 . S
C4720 C4721 1.391 . S
C4720 C4722 1.394 . S
C4720 H4736 0.931 . S
C4721 C4720 1.391 . S
C4721 C4725 1.376 . S
C4722 C4720 1.394 . S
C4722 C4723 1.369 . S
C4722 C4726 1.531 . S
C4723 C4722 1.369 . S
C4723 C4724 1.410 . S
C4723 C4731 1.503 . S
C4724 C4723 1.410 . S
C4724 C4725 1.392 . S
C4724 C4727 1.511 . S
C4725 C4721 1.376 . S
C4725 C4724 1.392 . S
C4725 H4737 0.929 . S
C4726 C4722 1.531 . S
C4726 H4738 0.960 . S
C4726 H4739 0.962 . S
C4726 H4740 0.960 . S
C4727 C4724 1.511 . S
C4727 H4741 0.961 . S
C4727 H4742 0.961 . S
C4727 H4743 0.961 . S
C4728 C4729 1.370 . S
C4728 C4730 1.363 . S
C4728 H4744 0.931 . S
C4729 C4728 1.370 . S
C4729 C4733 1.408 . S
C4730 C4728 1.363 . S
C4730 C4731 1.370 . S
C4730 C4734 1.524 . S
C4731 C4723 1.503 . S
C4731 C4730 1.370 . S
C4731 C4732 1.403 . S
C4732 C4731 1.403 . S
C4732 C4733 1.404 . S
C4732 C4735 1.539 . S
C4733 C4729 1.408 . S
C4733 C4732 1.404 . S
C4733 H4745 0.930 . S
C4734 C4730 1.524 . S
C4734 H4746 0.956 . S
C4734 H4747 0.961 . S
C4734 H4748 0.961 . S
C4735 C4732 1.539 . S
C4735 H4749 0.958 . S
C4735 H4750 0.961 . S
C4735 H4751 0.960 . S
H4736 C4720 0.931 . S
H4737 C4725 0.929 . S
H4738 C4726 0.960 . S
H4739 C4726 0.962 . S
H4740 C4726 0.960 . S
H4741 C4727 0.961 . S
H4742 C4727 0.961 . S
H4743 C4727 0.961 . S
H4744 C4728 0.931 . S
H4745 C4733 0.930 . S
H4746 C4734 0.956 . S
H4747 C4734 0.961 . S
H4748 C4734 0.961 . S
H4749 C4735 0.958 . S
H4750 C4735 0.961 . S
H4751 C4735 0.960 . S
C1681 C109 2.051 1_455 S
C1689 C392 2.093 . S
C1713 C65 1.874 . S
C1721 C494 1.868 . S
C1745 C75 1.858 . S
C1753 C560 1.876 . S
C1785 C646 1.401 . S
C1777 C84 1.490 . S
C1809 C25 1.494 . S
C1817 C730 1.386 . S
C1849 C812 1.828 . S
C1841 C28 1.807 . S
C1881 C914 1.889 . S
C1873 C47 1.870 . S
C1905 C9 2.064 . S
C1913 C980 2.096 . S
C1945 C410 1.748 . S
C1937 C233 1.789 . S
C1969 C249 0.876 . S
C1977 C478 0.895 . S
C2009 C578 1.160 . S
C2001 C275 1.190 . S
C2041 C644 1.635 . S
C2033 C173 1.640 . S
C2065 C224 1.687 . S
C2073 C728 1.684 . S
C2105 C830 1.186 . S
C2097 C243 1.198 . S
C2137 C898 0.874 . S
C2129 C266 0.913 . S
C2169 C998 1.612 . S
C2161 C179 1.635 . S
C2201 C394 0.985 1_565 S
C2193 C163 1.001 1_554 S
C2225 C289 1.672 . S
C2233 C1082 1.659 . S
C2265 C1150 1.303 . S
C2257 C333 1.350 . S
C2297 C1232 0.781 . S
C2289 C308 0.791 . S
C2321 C123 1.038 . S
C2329 C982 1.014 . S
C2353 C126 1.383 . S
C2361 C562 1.340 . S
C2385 C327 1.695 . S
C2393 C1334 1.690 . S
C2425 C1400 0.897 . S
C2417 C299 0.892 . S
C2457 C403 2.106 . S
C2449 C67 2.100 . S
C2489 C1407 1.908 . S
C2481 C98 1.856 . S
C2513 C89 1.906 . S
C2521 C571 1.910 . S
C2545 C79 1.565 . S
C2553 C1329 1.443 . S
C2585 C741 1.436 . S
C2577 C11 1.508 . S
C2609 C51 1.826 . S
C2617 C1159 1.868 . S
C2649 C903 1.942 1_556 S
C2641 C33 1.924 . S
C2681 C1495 2.106 . S
C2673 C14 2.097 . S
C2713 C399 1.756 . S
C2705 C140 1.792 . S
C2745 C1413 0.902 . S
C2737 C319 0.890 . S
C2769 C112 1.163 . S
C2777 C567 1.177 . S
C2801 C285 1.658 . S
C2809 C1327 1.662 . S
C2833 C149 1.708 . S
C2841 C739 1.728 . S
C2873 C1155 1.213 . S
C2865 C313 1.208 . S
C2897 C121 0.980 . S
C2905 C909 0.964 . S
C2929 C291 1.680 . S
C2937 C1491 1.656 . S
C2961 C182 1.024 . S
C2969 C405 0.981 . S
C2993 C168 1.684 . S
C3001 C1071 1.682 . S
C3025 C263 1.356 . S
C3033 C825 1.294 . S
C3057 C247 0.820 . S
C3065 C1243 0.832 . S
C3097 C1497 0.971 . S
C3089 C277 0.987 1_565 S
C3121 C219 1.447 . S
C3129 C573 1.347 . S
C3161 C651 1.739 . S
C3153 C257 1.751 . S
C3193 C487 0.912 . S
C3185 C201 0.905 . S
C3217 C81 2.076 . S
C3225 C1568 2.089 . S
C3257 C1418 1.878 . S
C3249 C93 1.883 . S
C3281 C103 1.873 . S
C3289 C1652 1.874 . S
C3313 C56 1.563 . S
C3321 C1318 1.426 . S
C3345 C53 1.470 . S
C3353 C1066 1.408 . S
C3385 C1148 1.825 . S
C3377 C0 1.810 1_655 S
C3417 C1250 1.899 . S
C3409 C19 1.899 . S
C3449 C1484 2.096 . S
C3441 C37 2.076 . S
C3481 C1586 1.742 . S
C3473 C261 1.794 . S
C3505 C193 0.888 1_556 S
C3513 C1402 0.900 . S
C3545 C1670 1.179 . S
C3537 C205 1.173 . S
C3577 C1316 1.637 . S
C3569 C215 1.638 . S
C3609 C1064 1.686 . S
C3601 C252 1.672 . S
C3633 C187 1.163 . S
C3641 C1166 1.168 . S
C3673 C1234 0.892 . S
C3665 C196 0.957 . S
C3697 C221 1.640 . S
C3705 C1502 1.628 . S
C3737 C1570 1.036 . S
C3729 C317 1.066 . S
C3761 C135 1.666 . S
C3769 C746 1.647 . S
C3801 C814 1.294 . S
C3793 C151 1.321 1_565 S
C3833 C896 0.785 . S
C3825 C154 0.771 . S
C3865 C1486 1.012 . S
C3857 C305 1.041 . S
C3889 C280 1.425 . S
C3897 C1654 1.367 . S
C3929 C662 1.686 . S
C3921 C145 1.687 . S
C3961 C476 0.899 . S
C3953 C117 0.901 . S
C3985 C95 2.099 . S
C3993 C1579 2.107 . S
C4025 C483 1.913 . S
C4017 C70 1.892 . S
C4049 C61 1.889 . S
C4057 C1663 1.909 . S
C4081 C107 1.556 . S
C4089 C657 1.466 . S
C4113 C39 1.527 . S
C4121 C1077 1.421 . S
C4153 C823 1.869 . S
C4145 C23 1.836 . S
C4177 C5 1.934 . S
C4185 C1239 1.947 . S
C4209 C42 2.100 . S
C4217 C991 2.103 . S
C4249 C1575 1.736 . S
C4241 C322 1.794 . S
C4273 C165 0.898 . S
C4281 C489 0.854 . S
C4313 C1659 1.180 1_655 S
C4305 C294 1.156 . S
C4337 C131 1.657 . S
C4345 C655 1.663 . S
C4369 C331 1.725 . S
C4377 C1075 1.724 . S
C4409 C819 1.227 . S
C4401 C159 1.211 . S
C4433 C303 0.982 . S
C4441 C1245 0.968 . S
C4473 C987 1.660 . S
C4465 C137 1.697 . S
C4505 C1581 1.020 . S
C4497 C238 1.052 . S
C4537 C735 1.669 1_565 S
C4529 C210 1.645 . S
C4561 C235 1.360 . S
C4569 C1161 1.291 . S
C4601 C907 0.831 . S
C4593 C191 0.828 . S
C4625 C207 0.986 . S
C4633 C993 0.967 . S
C4657 C177 1.449 . S
C4665 C1665 1.356 . S
C4697 C1323 1.732 . S
C4689 C229 1.734 . S
C4729 C1411 0.911 . S
C4721 C271 0.902 . S
