# Generated by pormake.
# Topology fgl, (4,4)-cn, num edge types: 1
# Building blocks:
#     Node 0, Type 0, BuildingBlock: ESEHIV_clean_sbu_0, # of connection points: 4
#     Node 1, Type 0, BuildingBlock: ESEHIV_clean_sbu_0, # of connection points: 4
#     Node 2, Type 0, BuildingBlock: ESEHIV_clean_sbu_0, # of connection points: 4
#     Node 3, Type 0, BuildingBlock: ESEHIV_clean_sbu_0, # of connection points: 4
#     Node 4, Type 0, BuildingBlock: ESEHIV_clean_sbu_0, # of connection points: 4
#     Node 5, Type 0, BuildingBlock: ESEHIV_clean_sbu_0, # of connection points: 4
#     Node 6, Type 0, BuildingBlock: ESEHIV_clean_sbu_0, # of connection points: 4
#     Node 7, Type 0, BuildingBlock: ESEHIV_clean_sbu_0, # of connection points: 4
#     Node 8, Type 0, BuildingBlock: ESEHIV_clean_sbu_0, # of connection points: 4
#     Node 9, Type 0, BuildingBlock: ESEHIV_clean_sbu_0, # of connection points: 4
#     Node 10, Type 0, BuildingBlock: ESEHIV_clean_sbu_0, # of connection points: 4
#     Node 11, Type 0, BuildingBlock: ESEHIV_clean_sbu_0, # of connection points: 4
#     Node 12, Type 0, BuildingBlock: ESEHIV_clean_sbu_0, # of connection points: 4
#     Node 13, Type 0, BuildingBlock: ESEHIV_clean_sbu_0, # of connection points: 4
#     Node 14, Type 0, BuildingBlock: ESEHIV_clean_sbu_0, # of connection points: 4
#     Node 15, Type 0, BuildingBlock: ESEHIV_clean_sbu_0, # of connection points: 4
#     Node 16, Type 0, BuildingBlock: ESEHIV_clean_sbu_0, # of connection points: 4
#     Node 17, Type 0, BuildingBlock: ESEHIV_clean_sbu_0, # of connection points: 4
#     Node 18, Type 1, BuildingBlock: TATPOV_clean_sbu_0, # of connection points: 4
#     Node 19, Type 1, BuildingBlock: TATPOV_clean_sbu_0, # of connection points: 4
#     Node 20, Type 1, BuildingBlock: TATPOV_clean_sbu_0, # of connection points: 4
#     Node 21, Type 1, BuildingBlock: TATPOV_clean_sbu_0, # of connection points: 4
#     Node 22, Type 1, BuildingBlock: TATPOV_clean_sbu_0, # of connection points: 4
#     Node 23, Type 1, BuildingBlock: TATPOV_clean_sbu_0, # of connection points: 4
#     Node 24, Type 1, BuildingBlock: TATPOV_clean_sbu_0, # of connection points: 4
#     Node 25, Type 1, BuildingBlock: TATPOV_clean_sbu_0, # of connection points: 4
#     Node 26, Type 1, BuildingBlock: TATPOV_clean_sbu_0, # of connection points: 4
#     Node 27, Type 1, BuildingBlock: TATPOV_clean_sbu_0, # of connection points: 4
#     Node 28, Type 1, BuildingBlock: TATPOV_clean_sbu_0, # of connection points: 4
#     Node 29, Type 1, BuildingBlock: TATPOV_clean_sbu_0, # of connection points: 4
#     Node 30, Type 1, BuildingBlock: TATPOV_clean_sbu_0, # of connection points: 4
#     Node 31, Type 1, BuildingBlock: TATPOV_clean_sbu_0, # of connection points: 4
#     Node 32, Type 1, BuildingBlock: TATPOV_clean_sbu_0, # of connection points: 4
#     Node 33, Type 1, BuildingBlock: TATPOV_clean_sbu_0, # of connection points: 4
#     Node 34, Type 1, BuildingBlock: TATPOV_clean_sbu_0, # of connection points: 4
#     Node 35, Type 1, BuildingBlock: TATPOV_clean_sbu_0, # of connection points: 4
#     Edge 36, Type (0, 1), BuildingBlock: TEMPAE_clean_linker_10, # of connection points: 2
#     Edge 37, Type (0, 1), BuildingBlock: TEMPAE_clean_linker_10, # of connection points: 2
#     Edge 38, Type (0, 1), BuildingBlock: TEMPAE_clean_linker_10, # of connection points: 2
#     Edge 39, Type (0, 1), BuildingBlock: TEMPAE_clean_linker_10, # of connection points: 2
#     Edge 40, Type (0, 1), BuildingBlock: TEMPAE_clean_linker_10, # of connection points: 2
#     Edge 41, Type (0, 1), BuildingBlock: TEMPAE_clean_linker_10, # of connection points: 2
#     Edge 42, Type (0, 1), BuildingBlock: TEMPAE_clean_linker_10, # of connection points: 2
#     Edge 43, Type (0, 1), BuildingBlock: TEMPAE_clean_linker_10, # of connection points: 2
#     Edge 44, Type (0, 1), BuildingBlock: TEMPAE_clean_linker_10, # of connection points: 2
#     Edge 45, Type (0, 1), BuildingBlock: TEMPAE_clean_linker_10, # of connection points: 2
#     Edge 46, Type (0, 1), BuildingBlock: TEMPAE_clean_linker_10, # of connection points: 2
#     Edge 47, Type (0, 1), BuildingBlock: TEMPAE_clean_linker_10, # of connection points: 2
#     Edge 48, Type (0, 1), BuildingBlock: TEMPAE_clean_linker_10, # of connection points: 2
#     Edge 49, Type (0, 1), BuildingBlock: TEMPAE_clean_linker_10, # of connection points: 2
#     Edge 50, Type (0, 1), BuildingBlock: TEMPAE_clean_linker_10, # of connection points: 2
#     Edge 51, Type (0, 1), BuildingBlock: TEMPAE_clean_linker_10, # of connection points: 2
#     Edge 52, Type (0, 1), BuildingBlock: TEMPAE_clean_linker_10, # of connection points: 2
#     Edge 53, Type (0, 1), BuildingBlock: TEMPAE_clean_linker_10, # of connection points: 2
#     Edge 54, Type (0, 1), BuildingBlock: TEMPAE_clean_linker_10, # of connection points: 2
#     Edge 55, Type (0, 1), BuildingBlock: TEMPAE_clean_linker_10, # of connection points: 2
#     Edge 56, Type (0, 1), BuildingBlock: TEMPAE_clean_linker_10, # of connection points: 2
#     Edge 57, Type (0, 1), BuildingBlock: TEMPAE_clean_linker_10, # of connection points: 2
#     Edge 58, Type (0, 1), BuildingBlock: TEMPAE_clean_linker_10, # of connection points: 2
#     Edge 59, Type (0, 1), BuildingBlock: TEMPAE_clean_linker_10, # of connection points: 2
#     Edge 60, Type (0, 1), BuildingBlock: TEMPAE_clean_linker_10, # of connection points: 2
#     Edge 61, Type (0, 1), BuildingBlock: TEMPAE_clean_linker_10, # of connection points: 2
#     Edge 62, Type (0, 1), BuildingBlock: TEMPAE_clean_linker_10, # of connection points: 2
#     Edge 63, Type (0, 1), BuildingBlock: TEMPAE_clean_linker_10, # of connection points: 2
#     Edge 64, Type (0, 1), BuildingBlock: TEMPAE_clean_linker_10, # of connection points: 2
#     Edge 65, Type (0, 1), BuildingBlock: TEMPAE_clean_linker_10, # of connection points: 2
#     Edge 66, Type (0, 1), BuildingBlock: TEMPAE_clean_linker_10, # of connection points: 2
#     Edge 67, Type (0, 1), BuildingBlock: TEMPAE_clean_linker_10, # of connection points: 2
#     Edge 68, Type (0, 1), BuildingBlock: TEMPAE_clean_linker_10, # of connection points: 2
#     Edge 69, Type (0, 1), BuildingBlock: TEMPAE_clean_linker_10, # of connection points: 2
#     Edge 70, Type (0, 1), BuildingBlock: TEMPAE_clean_linker_10, # of connection points: 2
#     Edge 71, Type (0, 1), BuildingBlock: TEMPAE_clean_linker_10, # of connection points: 2
#     Edge 72, Type (0, 1), BuildingBlock: TEMPAE_clean_linker_10, # of connection points: 2
#     Edge 73, Type (0, 1), BuildingBlock: TEMPAE_clean_linker_10, # of connection points: 2
#     Edge 74, Type (0, 1), BuildingBlock: TEMPAE_clean_linker_10, # of connection points: 2
#     Edge 75, Type (0, 1), BuildingBlock: TEMPAE_clean_linker_10, # of connection points: 2
#     Edge 76, Type (0, 1), BuildingBlock: TEMPAE_clean_linker_10, # of connection points: 2
#     Edge 77, Type (0, 1), BuildingBlock: TEMPAE_clean_linker_10, # of connection points: 2
#     Edge 78, Type (0, 1), BuildingBlock: TEMPAE_clean_linker_10, # of connection points: 2
#     Edge 79, Type (0, 1), BuildingBlock: TEMPAE_clean_linker_10, # of connection points: 2
#     Edge 80, Type (0, 1), BuildingBlock: TEMPAE_clean_linker_10, # of connection points: 2
#     Edge 81, Type (0, 1), BuildingBlock: TEMPAE_clean_linker_10, # of connection points: 2
#     Edge 82, Type (0, 1), BuildingBlock: TEMPAE_clean_linker_10, # of connection points: 2
#     Edge 83, Type (0, 1), BuildingBlock: TEMPAE_clean_linker_10, # of connection points: 2
#     Edge 84, Type (0, 1), BuildingBlock: TEMPAE_clean_linker_10, # of connection points: 2
#     Edge 85, Type (0, 1), BuildingBlock: TEMPAE_clean_linker_10, # of connection points: 2
#     Edge 86, Type (0, 1), BuildingBlock: TEMPAE_clean_linker_10, # of connection points: 2
#     Edge 87, Type (0, 1), BuildingBlock: TEMPAE_clean_linker_10, # of connection points: 2
#     Edge 88, Type (0, 1), BuildingBlock: TEMPAE_clean_linker_10, # of connection points: 2
#     Edge 89, Type (0, 1), BuildingBlock: TEMPAE_clean_linker_10, # of connection points: 2
#     Edge 90, Type (0, 1), BuildingBlock: TEMPAE_clean_linker_10, # of connection points: 2
#     Edge 91, Type (0, 1), BuildingBlock: TEMPAE_clean_linker_10, # of connection points: 2
#     Edge 92, Type (0, 1), BuildingBlock: TEMPAE_clean_linker_10, # of connection points: 2
#     Edge 93, Type (0, 1), BuildingBlock: TEMPAE_clean_linker_10, # of connection points: 2
#     Edge 94, Type (0, 1), BuildingBlock: TEMPAE_clean_linker_10, # of connection points: 2
#     Edge 95, Type (0, 1), BuildingBlock: TEMPAE_clean_linker_10, # of connection points: 2
#     Edge 96, Type (0, 1), BuildingBlock: TEMPAE_clean_linker_10, # of connection points: 2
#     Edge 97, Type (0, 1), BuildingBlock: TEMPAE_clean_linker_10, # of connection points: 2
#     Edge 98, Type (0, 1), BuildingBlock: TEMPAE_clean_linker_10, # of connection points: 2
#     Edge 99, Type (0, 1), BuildingBlock: TEMPAE_clean_linker_10, # of connection points: 2
#     Edge 100, Type (0, 1), BuildingBlock: TEMPAE_clean_linker_10, # of connection points: 2
#     Edge 101, Type (0, 1), BuildingBlock: TEMPAE_clean_linker_10, # of connection points: 2
#     Edge 102, Type (0, 1), BuildingBlock: TEMPAE_clean_linker_10, # of connection points: 2
#     Edge 103, Type (0, 1), BuildingBlock: TEMPAE_clean_linker_10, # of connection points: 2
#     Edge 104, Type (0, 1), BuildingBlock: TEMPAE_clean_linker_10, # of connection points: 2
#     Edge 105, Type (0, 1), BuildingBlock: TEMPAE_clean_linker_10, # of connection points: 2
#     Edge 106, Type (0, 1), BuildingBlock: TEMPAE_clean_linker_10, # of connection points: 2
#     Edge 107, Type (0, 1), BuildingBlock: TEMPAE_clean_linker_10, # of connection points: 2
# Relax obj value: 0.032
# Max RMSD: 0.135
# Mean RMSD: 0.102
data_MOF--net-fgl--node1-ESEHIV_clean_sbu_0--node2-TATPOV_clean_sbu_0--edge1-TEMPAE_clean_linker_10
_symmetry_space_group_name_H-M    P1
_symmetry_Int_Tables_number       1
_symmetry_cell_setting            triclinic
loop_
_symmetry_equiv_pos_as_xyz
'x, y, z'
_cell_length_a     74.893985
_cell_length_b     77.89061
_cell_length_c     52.666105
_cell_angle_alpha  90.388438
_cell_angle_beta   90.492182
_cell_angle_gamma 120.01861
loop_
_atom_site_label
_atom_site_type_symbol
_atom_site_fract_x
_atom_site_fract_y
_atom_site_fract_z
_atom_type_partial_charge
Cu0 Cu 0.02391 0.54247 0.99104 0.0
N1 N 0.04021 0.55749 0.01869 0.0
N2 N 0.0475 0.57385 0.05598 0.0
C3 C 0.03429 0.56642 0.03594 0.0
C4 C 0.06247 0.56948 0.0509 0.0
C5 C 0.05786 0.55929 0.02797 0.0
O6 O 0.00299 0.5499 0.98694 0.0
C7 C 0.00727 0.50678 0.01925 0.0
O8 O 0.00369 0.51658 0.03698 0.0
H9 H 0.02024 0.56705 0.03395 0.0
H10 H 0.0663 0.55297 0.0192 0.0
N11 N 0.0384 0.54778 0.96068 0.0
N12 N 0.04504 0.5406 0.9219 0.0
C13 C 0.03817 0.53374 0.94537 0.0
C14 C 0.04583 0.56419 0.94648 0.0
C15 C 0.04992 0.55979 0.9225 0.0
C16 C 0.99316 0.54796 0.96634 0.0
O17 O 0.99392 0.53692 0.94789 0.0
H18 H 0.0313 0.51831 0.9506 0.0
H19 H 0.04664 0.57788 0.95248 0.0
O20 O 0.01397 0.51483 0.99791 0.0
H21 H 0.07541 0.57271 0.06327 0.0
H22 H 0.05505 0.56963 0.90642 0.0
Cu23 Cu 0.52695 0.55438 0.01486 0.0
N24 N 0.52849 0.56095 0.97868 0.0
N25 N 0.5403 0.57053 0.93928 0.0
C26 C 0.54434 0.56603 0.9627 0.0
C27 C 0.52117 0.56815 0.94088 0.0
C28 C 0.51398 0.56228 0.9651 0.0
O29 O 0.54548 0.58406 0.02361 0.0
C30 C 0.51008 0.5107 0.0114 0.0
O31 O 0.52774 0.51474 0.02195 0.0
H32 H 0.55849 0.56641 0.96816 0.0
H33 H 0.49934 0.5595 0.97246 0.0
N34 N 0.52573 0.54789 0.05107 0.0
N35 N 0.51446 0.53439 0.08921 0.0
C36 C 0.50903 0.53673 0.0654 0.0
C37 C 0.54216 0.55281 0.06623 0.0
C38 C 0.5353 0.5446 0.0897 0.0
C39 C 0.56512 0.59338 0.02265 0.0
O40 O 0.57453 0.58365 0.01603 0.0
H41 H 0.49332 0.52995 0.0583 0.0
H42 H 0.55805 0.56151 0.0605 0.0
O43 O 0.50688 0.52494 0.00623 0.0
H44 H 0.51307 0.57095 0.92583 0.0
H45 H 0.54498 0.54606 0.1059 0.0
Cu46 Cu 0.53386 0.05864 0.02861 0.0
N47 N 0.52726 0.06964 1.00139 0.0
N48 N 0.50982 0.07399 0.96993 0.0
C49 C 0.50853 0.06399 0.99132 0.0
C50 C 0.53014 0.08662 0.96671 0.0
C51 C 0.54083 0.08388 0.98613 0.0
O52 O 0.50918 0.03628 0.04233 0.0
C53 C 0.57355 0.06677 0.01632 0.0
O54 O 0.57808 0.08442 0.02474 0.0
H55 H 0.49427 0.05261 0.99931 0.0
H56 H 0.5574 0.09129 0.98844 0.0
N57 N 0.54392 0.07688 0.05537 0.0
N58 N 0.55608 0.08839 0.09429 0.0
C59 C 0.55514 0.07642 0.07511 0.0
C60 C 0.5375 0.08956 0.06228 0.0
C61 C 0.54493 0.09664 0.08647 0.0
C62 C 0.49423 0.02198 0.03043 0.0
O63 O 0.49563 0.01979 0.0059 0.0
H64 H 0.561 0.06625 0.07624 0.0
H65 H 0.52693 0.0923 0.05129 0.0
O66 O 0.5549 0.05264 0.01706 0.0
H67 H 0.53689 0.0965 0.95086 0.0
H68 H 0.54153 0.10624 0.09789 0.0
Cu69 Cu 0.52399 0.06033 0.54254 0.0
N70 N 0.54873 0.07798 0.52693 0.0
N71 N 0.5744 0.08734 0.4993 0.0
C72 C 0.55651 0.07229 0.50786 0.0
C73 C 0.57802 0.10327 0.51358 0.0
C74 C 0.56219 0.09741 0.53075 0.0
O75 O 0.52635 0.0362 0.54519 0.0
C76 C 0.50283 0.07618 0.51804 0.0
O77 O 0.51932 0.09204 0.52688 0.0
H78 H 0.54885 0.05736 0.50007 0.0
H79 H 0.56054 0.10671 0.54476 0.0
N80 N 0.52143 0.06895 0.57485 0.0
N81 N 0.50601 0.07001 0.61057 0.0
C82 C 0.50348 0.06174 0.58724 0.0
C83 C 0.53591 0.08234 0.5908 0.0
C84 C 0.52643 0.08307 0.61284 0.0
C85 C 0.5312 0.03132 0.5662 0.0
O86 O 0.52973 0.03951 0.58734 0.0
H87 H 0.48884 0.0506 0.57917 0.0
H88 H 0.55223 0.09065 0.58694 0.0
O89 O 0.50119 0.05925 0.52205 0.0
H90 H 0.59118 0.11803 0.51185 0.0
H91 H 0.53406 0.09214 0.62947 0.0
Cu92 Cu 0.02759 0.54287 0.49305 0.0
N93 N 0.04442 0.53479 0.50987 0.0
N94 N 0.05209 0.51821 0.53885 0.0
C95 C 0.03848 0.52381 0.53114 0.0
C96 C 0.06737 0.52624 0.52164 0.0
C97 C 0.0626 0.5364 0.50383 0.0
O98 O 0.00054 0.51937 0.49629 0.0
C99 C 0.04858 0.58167 0.50871 0.0
O100 O 0.06309 0.58003 0.497 0.0
H101 H 0.02422 0.51993 0.5406 0.0
H102 H 0.07156 0.54403 0.48741 0.0
N103 N 0.03389 0.54988 0.45864 0.0
N104 N 0.03482 0.56381 0.421 0.0
C105 C 0.02803 0.56103 0.4452 0.0
C106 C 0.04472 0.54538 0.44235 0.0
C107 C 0.04536 0.55396 0.41922 0.0
C108 C 0.99145 0.50788 0.47742 0.0
O109 O 0.99534 0.51534 0.45451 0.0
H110 H 0.0191 0.56713 0.45319 0.0
H111 H 0.05151 0.53634 0.44686 0.0
O112 O 0.03073 0.56636 0.51023 0.0
H113 H 0.08082 0.52449 0.52138 0.0
H114 H 0.05271 0.5527 0.40227 0.0
Cu115 Cu 0.50013 0.55676 0.50884 0.0
N116 N 0.51759 0.57986 0.49143 0.0
N117 N 0.54369 0.60092 0.46724 0.0
C118 C 0.53254 0.58215 0.47551 0.0
C119 C 0.53517 0.61081 0.47823 0.0
C120 C 0.51908 0.59776 0.49314 0.0
O121 O 0.51358 0.55506 0.5398 0.0
C122 C 0.50132 0.52778 0.47536 0.0
O123 O 0.52045 0.53465 0.48309 0.0
H124 H 0.53601 0.57056 0.47134 0.0
H125 H 0.50961 0.60126 0.50506 0.0
N126 N 0.47682 0.55731 0.51941 0.0
N127 N 0.4471 0.54687 0.53955 0.0
C128 C 0.46457 0.54595 0.53803 0.0
C129 C 0.46692 0.56591 0.50873 0.0
C130 C 0.4485 0.55945 0.52113 0.0
C131 C 0.53276 0.56115 0.54218 0.0
O132 O 0.54435 0.56687 0.52194 0.0
H133 H 0.46765 0.5359 0.54881 0.0
H134 H 0.47211 0.57524 0.49219 0.0
O135 O 0.49055 0.53445 0.48533 0.0
H136 H 0.54054 0.62646 0.47635 0.0
H137 H 0.43661 0.56289 0.51608 0.0
Cu138 Cu 0.66534 0.87123 0.34526 0.0
N139 N 0.64172 0.87329 0.34299 0.0
N140 N 0.62414 0.88945 0.34102 0.0
C141 C 0.64192 0.8903 0.34798 0.0
C142 C 0.61205 0.87091 0.3316 0.0
C143 C 0.62302 0.86097 0.33272 0.0
O144 O 0.68263 0.8925 0.37023 0.0
C145 C 0.68925 0.86994 0.30224 0.0
O146 O 0.70263 0.87061 0.31906 0.0
H147 H 0.65541 0.90344 0.35523 0.0
H148 H 0.61821 0.84633 0.32514 0.0
N149 N 0.65882 0.84645 0.35777 0.0
N150 N 0.66294 0.82128 0.37022 0.0
C151 C 0.67216 0.83982 0.36092 0.0
C152 C 0.64047 0.83165 0.36538 0.0
C153 C 0.64295 0.81607 0.37305 0.0
C154 C 0.68326 0.88869 0.39376 0.0
O155 O 0.67593 0.8702 0.40055 0.0
H156 H 0.68834 0.8485 0.35661 0.0
H157 H 0.62634 0.8322 0.36559 0.0
O158 O 0.67438 0.87219 0.30979 0.0
H159 H 0.59703 0.86544 0.32277 0.0
H160 H 0.63104 0.80218 0.3806 0.0
Cu161 Cu 0.19086 0.8902 0.36266 0.0
N162 N 0.16619 0.87387 0.34511 0.0
N163 N 0.14054 0.84595 0.32786 0.0
C164 C 0.15775 0.85409 0.34261 0.0
C165 C 0.13807 0.86131 0.3209 0.0
C166 C 0.15393 0.8785 0.33151 0.0
O167 O 0.18932 0.87524 0.39347 0.0
C168 C 0.21325 0.90724 0.31986 0.0
O169 O 0.19849 0.91167 0.31888 0.0
H170 H 0.1643 0.84591 0.35132 0.0
H171 H 0.15662 0.89335 0.32881 0.0
N172 N 0.1933 0.91456 0.37235 0.0
N173 N 0.20858 0.94676 0.38327 0.0
C174 C 0.21119 0.93107 0.37845 0.0
C175 C 0.17878 0.91988 0.3734 0.0
C176 C 0.18812 0.93968 0.38014 0.0
C177 C 0.17577 0.87352 0.40949 0.0
O178 O 0.1653 0.88257 0.40483 0.0
H179 H 0.2258 0.93142 0.37939 0.0
H180 H 0.16255 0.91011 0.36947 0.0
O181 O 0.2134 0.89686 0.33852 0.0
H182 H 0.12614 0.86035 0.30824 0.0
H183 H 0.1804 0.9482 0.38219 0.0
Cu184 Cu 0.20356 0.41324 0.34313 0.0
N185 N 0.20022 0.42816 0.31793 0.0
N186 N 0.18781 0.43307 0.28164 0.0
C187 C 0.1872 0.41963 0.29816 0.0
C188 C 0.20178 0.45089 0.29162 0.0
C189 C 0.20947 0.44781 0.31401 0.0
O190 O 0.1758 0.39252 0.3521 0.0
C191 C 0.24003 0.41919 0.32467 0.0
O192 O 0.24338 0.43733 0.32769 0.0
H193 H 0.17723 0.40375 0.29628 0.0
H194 H 0.22108 0.45911 0.32628 0.0
N195 N 0.21513 0.42692 0.37357 0.0
N196 N 0.22335 0.42942 0.41481 0.0
C197 C 0.21217 0.41724 0.39551 0.0
C198 C 0.22868 0.44608 0.37908 0.0
C199 C 0.23388 0.44764 0.40459 0.0
C200 C 0.16568 0.40001 0.36198 0.0
O201 O 0.17467 0.41943 0.36368 0.0
H202 H 0.2029 0.40127 0.39688 0.0
H203 H 0.23508 0.45791 0.36547 0.0
O204 O 0.22227 0.40476 0.33007 0.0
H205 H 0.20632 0.46514 0.2833 0.0
H206 H 0.24505 0.46097 0.41459 0.0
Cu207 Cu 0.17305 0.35181 0.87123 0.0
N208 N 0.17512 0.33872 0.84257 0.0
N209 N 0.18671 0.33682 0.80423 0.0
C210 C 0.18613 0.34881 0.82239 0.0
C211 C 0.17539 0.31828 0.81338 0.0
C212 C 0.1683 0.3195 0.83712 0.0
O213 O 0.19991 0.36144 0.88866 0.0
C214 C 0.14955 0.36248 0.84306 0.0
O215 O 0.14035 0.34312 0.84019 0.0
H216 H 0.19356 0.36479 0.82123 0.0
H217 H 0.15915 0.30729 0.84954 0.0
N218 N 0.15146 0.33556 0.8928 0.0
N219 N 0.12759 0.3281 0.92261 0.0
C220 C 0.14127 0.34219 0.90708 0.0
C221 C 0.14398 0.31654 0.89942 0.0
C222 C 0.12924 0.31189 0.9178 0.0
C223 C 0.20187 0.35619 0.91101 0.0
O224 O 0.18562 0.34751 0.92553 0.0
H225 H 0.14457 0.35739 0.90682 0.0
H226 H 0.14935 0.30694 0.89216 0.0
O227 O 0.16565 0.37097 0.85738 0.0
H228 H 0.17283 0.30483 0.80396 0.0
H229 H 0.12066 0.29776 0.92712 0.0
Cu230 Cu 0.70125 0.87819 0.82813 0.0
N231 N 0.70867 0.86083 0.81292 0.0
N232 N 0.70642 0.8329 0.7976 0.0
C233 C 0.69596 0.84171 0.80618 0.0
C234 C 0.72646 0.84724 0.79842 0.0
C235 C 0.72778 0.86439 0.80779 0.0
O236 O 0.69104 0.8681 0.8628 0.0
C237 C 0.69471 0.89104 0.78165 0.0
O238 O 0.71233 0.89149 0.77858 0.0
H239 H 0.67941 0.83432 0.80798 0.0
H240 H 0.74177 0.87843 0.81076 0.0
N241 N 0.72475 0.90257 0.8351 0.0
N242 N 0.74229 0.93467 0.84617 0.0
C243 C 0.72504 0.91996 0.83503 0.0
C244 C 0.74248 0.90632 0.84659 0.0
C245 C 0.75343 0.92617 0.85323 0.0
C246 C 0.67931 0.85015 0.86961 0.0
O247 O 0.66879 0.83658 0.85219 0.0
H248 H 0.71214 0.92141 0.82841 0.0
H249 H 0.74639 0.89516 0.85165 0.0
O250 O 0.68548 0.88465 0.80288 0.0
H251 H 0.73932 0.84554 0.79261 0.0
H252 H 0.76758 0.93333 0.86436 0.0
Cu253 Cu 0.17101 0.87247 0.86669 0.0
N254 N 0.16569 0.84983 0.84783 0.0
N255 N 0.15731 0.82948 0.81423 0.0
C256 C 0.16205 0.84767 0.8226 0.0
C257 C 0.15787 0.81968 0.83496 0.0
C258 C 0.16329 0.83239 0.8557 0.0
O259 O 0.1508 0.88037 0.85759 0.0
C260 C 0.20058 0.90188 0.83486 0.0
O261 O 0.18458 0.89643 0.81968 0.0
H262 H 0.16211 0.85894 0.81068 0.0
H263 H 0.16481 0.82899 0.8752 0.0
N264 N 0.17199 0.87021 0.90229 0.0
N265 N 0.18493 0.87728 0.94206 0.0
C266 C 0.18918 0.87763 0.91704 0.0
C267 C 0.15646 0.86519 0.91868 0.0
C268 C 0.16429 0.86917 0.94302 0.0
C269 C 0.13123 0.87191 0.85437 0.0
O270 O 0.1237 0.88318 0.84716 0.0
H271 H 0.20459 0.88468 0.90942 0.0
H272 H 0.14069 0.86051 0.91352 0.0
O273 O 0.19795 0.8936 0.85634 0.0
H274 H 0.15458 0.80448 0.83508 0.0
H275 H 0.15548 0.86726 0.96 0.0
Cu276 Cu 0.37659 0.23703 0.70777 0.0
N277 N 0.38305 0.26196 0.69622 0.0
N278 N 0.37661 0.28489 0.6805 0.0
C279 C 0.36962 0.26536 0.68331 0.0
C280 C 0.39532 0.29416 0.69213 0.0
C281 C 0.39918 0.27994 0.702 0.0
O282 O 0.36494 0.23518 0.74192 0.0
C283 C 0.36576 0.22125 0.65877 0.0
O284 O 0.38187 0.23861 0.65406 0.0
H285 H 0.35474 0.25359 0.6767 0.0
H286 H 0.41227 0.28258 0.71367 0.0
N287 N 0.39931 0.23341 0.70991 0.0
N288 N 0.41472 0.21525 0.71164 0.0
C289 C 0.39673 0.2151 0.70954 0.0
C290 C 0.41982 0.24581 0.7121 0.0
C291 C 0.42939 0.23455 0.71355 0.0
C292 C 0.37777 0.24421 0.76016 0.0
O293 O 0.39754 0.25235 0.75553 0.0
H294 H 0.38171 0.2018 0.70873 0.0
H295 H 0.42726 0.26179 0.71315 0.0
O296 O 0.35934 0.21722 0.68162 0.0
H297 H 0.40506 0.31004 0.69447 0.0
H298 H 0.44573 0.24006 0.71618 0.0
Cu299 Cu 0.86314 0.20067 0.67046 0.0
N300 N 0.88353 0.20471 0.64695 0.0
N301 N 0.90446 0.21963 0.6142 0.0
C302 C 0.88869 0.21799 0.62823 0.0
C303 C 0.90944 0.20673 0.62464 0.0
C304 C 0.8965 0.19755 0.64486 0.0
O305 O 0.86989 0.22801 0.67894 0.0
C306 C 0.83535 0.1645 0.65105 0.0
O307 O 0.85184 0.16321 0.65608 0.0
H308 H 0.88137 0.22684 0.62568 0.0
H309 H 0.89674 0.18667 0.65729 0.0
N310 N 0.86372 0.1888 0.70111 0.0
N311 N 0.85105 0.17311 0.73782 0.0
C312 C 0.84756 0.18099 0.71689 0.0
C313 C 0.87809 0.18574 0.71226 0.0
C314 C 0.87033 0.17608 0.73493 0.0
C315 C 0.88795 0.23777 0.689 0.0
O316 O 0.8981 0.22831 0.69303 0.0
H317 H 0.83332 0.18083 0.71264 0.0
H318 H 0.89313 0.19025 0.70458 0.0
O319 O 0.83633 0.18119 0.65518 0.0
H320 H 0.92158 0.20412 0.61826 0.0
H321 H 0.87842 0.1718 0.74829 0.0
Cu322 Cu 0.87061 0.73108 0.66428 0.0
N323 N 0.86722 0.74669 0.6402 0.0
N324 N 0.85861 0.75392 0.60271 0.0
C325 C 0.86098 0.74053 0.6162 0.0
C326 C 0.86359 0.76919 0.61899 0.0
C327 C 0.86894 0.76469 0.64214 0.0
O328 O 0.84309 0.70919 0.67197 0.0
C329 C 0.90748 0.73962 0.64427 0.0
O330 O 0.90919 0.75717 0.647 0.0
H331 H 0.85727 0.726 0.60924 0.0
H332 H 0.87308 0.77362 0.6593 0.0
N333 N 0.8818 0.74421 0.69503 0.0
N334 N 0.89294 0.74674 0.73507 0.0
C335 C 0.88109 0.73442 0.71621 0.0
C336 C 0.89445 0.76354 0.70059 0.0
C337 C 0.90139 0.76514 0.72536 0.0
C338 C 0.83151 0.71527 0.6812 0.0
O339 O 0.83922 0.73447 0.68431 0.0
H340 H 0.87337 0.7184 0.717 0.0
H341 H 0.89938 0.77548 0.68721 0.0
O342 O 0.89053 0.7244 0.65047 0.0
H343 H 0.86294 0.78244 0.61473 0.0
H344 H 0.91259 0.77866 0.73498 0.0
Cu345 Cu 0.84141 0.70465 0.14863 0.0
N346 N 0.84307 0.69277 0.11834 0.0
N347 N 0.85779 0.68904 0.08344 0.0
C348 C 0.86008 0.70051 0.10397 0.0
C349 C 0.83842 0.67343 0.08503 0.0
C350 C 0.8294 0.67576 0.10656 0.0
O351 O 0.86634 0.71004 0.1681 0.0
C352 C 0.81935 0.7199 0.12692 0.0
O353 O 0.80926 0.70098 0.12063 0.0
H354 H 0.87381 0.71446 0.10854 0.0
H355 H 0.81398 0.66577 0.11305 0.0
N356 N 0.819 0.68825 0.16909 0.0
N357 N 0.79765 0.681 0.20192 0.0
C358 C 0.81327 0.69545 0.18873 0.0
C359 C 0.80648 0.66846 0.1696 0.0
C360 C 0.79328 0.66395 0.18983 0.0
C361 C 0.86627 0.69403 0.17367 0.0
O362 O 0.85033 0.67712 0.16626 0.0
H363 H 0.82063 0.71112 0.1932 0.0
H364 H 0.80727 0.65797 0.15679 0.0
O365 O 0.83625 0.72636 0.13953 0.0
H366 H 0.83129 0.66102 0.07184 0.0
H367 H 0.78185 0.64919 0.19559 0.0
Cu368 Cu 0.37494 0.21355 0.19392 0.0
N369 N 0.38101 0.19431 0.18198 0.0
N370 N 0.37698 0.16454 0.17206 0.0
C371 C 0.36746 0.17493 0.17759 0.0
C372 C 0.39732 0.17802 0.17249 0.0
C373 C 0.39974 0.19631 0.17859 0.0
O374 O 0.36505 0.20592 0.22921 0.0
C375 C 0.35197 0.22988 0.16711 0.0
O376 O 0.3507 0.23729 0.18907 0.0
H377 H 0.35093 0.16858 0.17846 0.0
H378 H 0.41422 0.20998 0.18097 0.0
N379 N 0.39948 0.2378 0.19794 0.0
N380 N 0.41944 0.27072 0.20288 0.0
C381 C 0.40166 0.2557 0.1932 0.0
C382 C 0.41665 0.24156 0.21091 0.0
C383 C 0.42903 0.26183 0.21387 0.0
C384 C 0.35187 0.18869 0.23709 0.0
O385 O 0.33963 0.17513 0.22053 0.0
H386 H 0.38961 0.25763 0.18486 0.0
H387 H 0.41928 0.23036 0.21927 0.0
O388 O 0.35916 0.21804 0.16664 0.0
H389 H 0.40966 0.17485 0.16949 0.0
H390 H 0.44332 0.26927 0.22468 0.0
Cu391 Cu 0.83325 0.22076 0.18767 0.0
N392 N 0.81787 0.21874 0.15849 0.0
N393 N 0.80527 0.20875 0.1192 0.0
C394 C 0.81909 0.21018 0.13684 0.0
C395 C 0.79472 0.21659 0.13026 0.0
C396 C 0.80259 0.22281 0.15455 0.0
O397 O 0.81697 0.1967 0.20678 0.0
C398 C 0.86846 0.23907 0.16043 0.0
O399 O 0.85861 0.24823 0.15308 0.0
H400 H 0.82929 0.2042 0.13456 0.0
H401 H 0.79695 0.22907 0.16856 0.0
N402 N 0.83891 0.24221 0.20883 0.0
N403 N 0.85317 0.26297 0.24184 0.0
C404 C 0.85169 0.24727 0.22903 0.0
C405 C 0.83204 0.25522 0.20866 0.0
C406 C 0.84078 0.26804 0.22917 0.0
C407 C 0.8005 0.1952 0.21574 0.0
O408 O 0.79694 0.20992 0.2124 0.0
H409 H 0.8596 0.23937 0.23436 0.0
H410 H 0.82153 0.25546 0.19469 0.0
O411 O 0.85998 0.22527 0.17661 0.0
H412 H 0.78192 0.2173 0.12168 0.0
H413 H 0.83853 0.28034 0.23407 0.0
Zn414 Zn 0.02996 0.69173 0.20264 0.0
Zn415 Zn 0.01988 0.66885 0.24191 0.0
O416 O 0.02672 0.65423 0.21248 0.0
O417 O 0.03625 0.67488 0.18058 0.0
O418 O 0.01648 0.65191 0.27376 0.0
O419 O 0.05258 0.71527 0.22053 0.0
O420 O 0.0438 0.69657 0.25438 0.0
C421 C 0.03302 0.65861 0.18962 0.0
C422 C 0.98848 0.67896 0.21769 0.0
O423 O 0.99257 0.67029 0.23558 0.0
O424 O 0.00181 0.6885 0.20104 0.0
C425 C 0.01181 0.63373 0.27322 0.0
O426 O 0.00696 0.62423 0.2513 0.0
C427 C 0.05504 0.7133 0.24388 0.0
Zn428 Zn 0.39669 0.39867 0.31076 0.0
Zn429 Zn 0.41073 0.42451 0.27387 0.0
O430 O 0.42985 0.44055 0.30467 0.0
O431 O 0.41961 0.41754 0.33387 0.0
O432 O 0.42229 0.44241 0.24295 0.0
O433 O 0.39906 0.37795 0.2912 0.0
O434 O 0.41345 0.4004 0.26157 0.0
C435 C 0.43151 0.43521 0.32707 0.0
C436 C 0.36665 0.40866 0.29416 0.0
O437 O 0.38046 0.41901 0.27795 0.0
O438 O 0.37012 0.39883 0.31052 0.0
C439 C 0.43343 0.46123 0.24299 0.0
O440 O 0.43761 0.47101 0.26468 0.0
C441 C 0.40776 0.3831 0.26994 0.0
Zn442 Zn 0.63616 0.03686 0.24679 0.0
Zn443 Zn 0.63234 0.05242 0.28973 0.0
O444 O 0.61431 0.05711 0.26373 0.0
O445 O 0.61533 0.04156 0.22917 0.0
O446 O 0.62635 0.06232 0.32237 0.0
O447 O 0.62694 0.01068 0.26236 0.0
O448 O 0.62344 0.02315 0.29831 0.0
C449 C 0.60872 0.05147 0.24081 0.0
C450 C 0.67435 0.07077 0.26442 0.0
O451 O 0.66346 0.07059 0.28306 0.0
O452 O 0.66619 0.05794 0.24674 0.0
C453 C 0.63776 0.06812 0.3422 0.0
O454 O 0.6555 0.06851 0.34208 0.0
C455 C 0.62205 0.00855 0.28551 0.0
Zn456 Zn 0.00955 0.39898 0.78396 0.0
Zn457 Zn 0.02724 0.41789 0.74303 0.0
O458 O 0.99952 0.39176 0.73105 0.0
O459 O 0.98454 0.37742 0.76667 0.0
O460 O 0.03703 0.435 0.71058 0.0
O461 O 0.008 0.42103 0.80115 0.0
O462 O 0.02581 0.4383 0.76843 0.0
C463 C 0.98437 0.37764 0.74269 0.0
C464 C 0.05015 0.40288 0.77623 0.0
O465 O 0.05035 0.4119 0.75586 0.0
O466 O 0.03458 0.3961 0.79051 0.0
C467 C 0.03337 0.4286 0.68765 0.0
O468 O 0.02389 0.40938 0.68339 0.0
C469 C 0.0177 0.43745 0.79001 0.0
Zn470 Zn 0.65691 0.66748 0.69705 0.0
Zn471 Zn 0.64553 0.65015 0.73962 0.0
O472 O 0.65145 0.67927 0.74571 0.0
O473 O 0.66361 0.69418 0.70948 0.0
O474 O 0.63341 0.63796 0.77415 0.0
O475 O 0.63031 0.65056 0.67937 0.0
O476 O 0.62185 0.63194 0.71334 0.0
C477 C 0.65903 0.69495 0.73233 0.0
C478 C 0.68382 0.65364 0.71442 0.0
O479 O 0.673 0.64944 0.73453 0.0
O480 O 0.67913 0.66044 0.69533 0.0
C481 C 0.62652 0.62012 0.78111 0.0
O482 O 0.62785 0.60759 0.7655 0.0
C483 C 0.61784 0.63489 0.69065 0.0
Zn484 Zn 0.36736 0.0609 0.82457 0.0
Zn485 Zn 0.38359 0.04786 0.78904 0.0
O486 O 0.38825 0.07492 0.77684 0.0
O487 O 0.37486 0.0857 0.80542 0.0
O488 O 0.39832 0.04164 0.76133 0.0
O489 O 0.38728 0.06079 0.8504 0.0
O490 O 0.40042 0.05014 0.8212 0.0
C491 C 0.38431 0.08813 0.78478 0.0
C492 C 0.33789 0.02259 0.80311 0.0
O493 O 0.35318 0.0245 0.79027 0.0
O494 O 0.34016 0.03625 0.81827 0.0
C495 C 0.3968 0.04583 0.73837 0.0
O496 O 0.38369 0.05184 0.73273 0.0
C497 C 0.40011 0.05551 0.84404 0.0
Zn498 Zn 0.68381 0.01015 0.55164 0.0
Zn499 Zn 0.67875 0.98953 0.59246 0.0
O500 O 0.68235 0.97314 0.56173 0.0
O501 O 0.68836 0.99233 0.52856 0.0
O502 O 0.67822 0.9743 0.62572 0.0
O503 O 0.7079 0.03488 0.56486 0.0
O504 O 0.70416 0.01874 0.60029 0.0
C505 C 0.68638 0.97661 0.53801 0.0
C506 C 0.64457 0.99834 0.57383 0.0
O507 O 0.65056 0.99006 0.59018 0.0
O508 O 0.65598 0.00758 0.55539 0.0
C509 C 0.66591 0.95608 0.63093 0.0
O510 O 0.65134 0.94508 0.61434 0.0
C511 C 0.71354 0.03479 0.58751 0.0
Zn512 Zn 0.07055 0.72957 0.63134 0.0
Zn513 Zn 0.08269 0.753 0.59257 0.0
O514 O 0.10183 0.76934 0.62386 0.0
O515 O 0.09382 0.74732 0.65406 0.0
O516 O 0.09566 0.77147 0.56186 0.0
O517 O 0.07108 0.70733 0.61391 0.0
O518 O 0.0816 0.7266 0.58052 0.0
C519 C 0.10475 0.76479 0.64622 0.0
C520 C 0.04011 0.73957 0.61446 0.0
O521 O 0.05299 0.74869 0.59681 0.0
O522 O 0.04444 0.73086 0.6316 0.0
C523 C 0.11521 0.78134 0.55923 0.0
O524 O 0.12695 0.77983 0.57673 0.0
C525 C 0.07658 0.71004 0.59101 0.0
Zn526 Zn 0.3085 0.37785 0.56011 0.0
Zn527 Zn 0.29341 0.38317 0.60261 0.0
O528 O 0.27244 0.38016 0.57459 0.0
O529 O 0.28387 0.37345 0.53975 0.0
O530 O 0.27909 0.3808 0.63589 0.0
O531 O 0.31188 0.35535 0.57203 0.0
O532 O 0.30189 0.36192 0.60808 0.0
C533 C 0.27071 0.37644 0.55079 0.0
C534 C 0.33262 0.41738 0.58445 0.0
O535 O 0.31857 0.41105 0.60114 0.0
O536 O 0.33164 0.40608 0.56636 0.0
C537 C 0.2624 0.38108 0.63886 0.0
O538 O 0.25391 0.38485 0.61936 0.0
C539 C 0.30853 0.35226 0.59549 0.0
Zn540 Zn 0.68028 0.75786 0.12963 0.0
Zn541 Zn 0.6879 0.77853 0.09069 0.0
O542 O 0.66334 0.7493 0.08059 0.0
O543 O 0.6575 0.73256 0.11584 0.0
O544 O 0.68903 0.7948 0.05845 0.0
O545 O 0.67427 0.77388 0.1535 0.0
O546 O 0.68431 0.79492 0.12203 0.0
C547 C 0.65339 0.73295 0.09262 0.0
C548 C 0.72136 0.77062 0.11234 0.0
O549 O 0.71615 0.77824 0.09421 0.0
O550 O 0.70871 0.76168 0.1299 0.0
C551 C 0.69476 0.79266 0.03641 0.0
O552 O 0.70155 0.78014 0.03364 0.0
C553 C 0.67858 0.79067 0.14522 0.0
Zn554 Zn 0.32771 0.00307 0.08051 0.0
Zn555 Zn 0.31766 0.98136 0.11982 0.0
O556 O 0.32083 0.00892 0.13126 0.0
O557 O 0.32487 0.02484 0.09554 0.0
O558 O 0.30565 0.96424 0.15174 0.0
O559 O 0.30554 0.9835 0.05807 0.0
O560 O 0.2952 0.96445 0.09161 0.0
C561 C 0.32292 0.02408 0.11935 0.0
C562 C 0.35948 0.99471 0.09565 0.0
O563 O 0.34631 0.98363 0.11208 0.0
O564 O 0.35525 0.00494 0.08082 0.0
C565 C 0.31097 0.97098 0.17437 0.0
O566 O 0.32594 0.98938 0.17769 0.0
C567 C 0.29285 0.96734 0.06821 0.0
Zn568 Zn 0.03469 0.38777 0.14295 0.0
Zn569 Zn 0.04812 0.37469 0.10568 0.0
O570 O 0.04115 0.39459 0.08821 0.0
O571 O 0.03391 0.40805 0.12061 0.0
O572 O 0.06069 0.36646 0.07736 0.0
O573 O 0.05922 0.39508 0.16482 0.0
O574 O 0.07202 0.38669 0.13271 0.0
C575 C 0.03645 0.4071 0.09706 0.0
C576 C 0.00835 0.34606 0.13293 0.0
O577 O 0.02208 0.34871 0.11675 0.0
O578 O 0.01007 0.36063 0.14574 0.0
C579 C 0.05043 0.35417 0.05961 0.0
O580 O 0.03024 0.34586 0.05919 0.0
C581 C 0.07379 0.39356 0.15525 0.0
Zn582 Zn 0.36474 0.3516 0.92663 0.0
Zn583 Zn 0.35797 0.32953 0.96491 0.0
O584 O 0.35977 0.31261 0.93338 0.0
O585 O 0.36359 0.33209 0.90139 0.0
O586 O 0.35623 0.31324 0.9976 0.0
O587 O 0.39198 0.37381 0.93734 0.0
O588 O 0.38516 0.35766 0.97328 0.0
C589 C 0.36172 0.31603 0.90942 0.0
C590 C 0.32707 0.34346 0.94901 0.0
O591 O 0.33079 0.33207 0.96289 0.0
O592 O 0.33992 0.35417 0.93252 0.0
C593 C 0.34146 0.2964 0.00453 0.0
O594 O 0.32474 0.28755 0.99019 0.0
C595 C 0.39677 0.37307 0.96018 0.0
Zn596 Zn 0.73547 0.06608 0.97147 0.0
Zn597 Zn 0.74198 0.08815 0.93091 0.0
O598 O 0.75886 0.108 0.95985 0.0
O599 O 0.75473 0.08949 0.99307 0.0
O600 O 0.75301 0.10556 0.8997 0.0
O601 O 0.74459 0.04843 0.95564 0.0
O602 O 0.7483 0.06578 0.92142 0.0
C603 C 0.76241 0.10646 0.98321 0.0
C604 C 0.69882 0.06659 0.95232 0.0
O605 O 0.71077 0.07843 0.93547 0.0
O606 O 0.70577 0.05935 0.9685 0.0
C607 C 0.75118 0.09822 0.8775 0.0
O608 O 0.73937 0.07898 0.87412 0.0
C609 C 0.74901 0.05158 0.93241 0.0
Zn610 Zn 0.9907 0.69148 0.86404 0.0
Zn611 Zn 0.97904 0.70054 0.9076 0.0
O612 O 0.95867 0.70018 0.88099 0.0
O613 O 0.9664 0.6904 0.84559 0.0
O614 O 0.96692 0.70351 0.9406 0.0
O615 O 0.98956 0.66719 0.87849 0.0
O616 O 0.97852 0.67395 0.91369 0.0
C617 C 0.9554 0.69587 0.85741 0.0
C618 C 0.02072 0.73014 0.88489 0.0
O619 O 0.00791 0.72564 0.90302 0.0
O620 O 0.01684 0.71795 0.86675 0.0
C621 C 0.95831 0.71397 0.94289 0.0
O622 O 0.95896 0.72509 0.92387 0.0
C623 C 0.98323 0.6628 0.901 0.0
Zn624 Zn 0.34842 0.09603 0.49877 0.0
Zn625 Zn 0.35848 0.1177 0.45877 0.0
O626 O 0.33152 0.09103 0.44856 0.0
O627 O 0.3249 0.07248 0.48231 0.0
O628 O 0.36215 0.13482 0.4266 0.0
O629 O 0.34306 0.11368 0.52089 0.0
O630 O 0.35645 0.13488 0.48961 0.0
C631 C 0.32056 0.07448 0.45968 0.0
C632 C 0.38834 0.10491 0.48125 0.0
O633 O 0.38399 0.11285 0.46267 0.0
O634 O 0.37607 0.09784 0.49964 0.0
C635 C 0.3646 0.13012 0.4041 0.0
O636 O 0.36651 0.11437 0.40099 0.0
C637 C 0.34937 0.13082 0.51225 0.0
Zn638 Zn 0.99451 0.3688 0.39589 0.0
Zn639 Zn 0.98059 0.34224 0.42993 0.0
O640 O 0.98196 0.36718 0.44773 0.0
O641 O 0.99912 0.39053 0.4199 0.0
O642 O 0.96928 0.32076 0.45703 0.0
O643 O 0.96871 0.35524 0.37507 0.0
O644 O 0.95807 0.33019 0.40117 0.0
C645 C 0.9907 0.38538 0.44132 0.0
C646 C 0.02094 0.35322 0.40132 0.0
O647 O 0.00893 0.34448 0.41987 0.0
O648 O 0.01747 0.36423 0.38705 0.0
C649 C 0.97257 0.32455 0.48073 0.0
O650 O 0.9839 0.34309 0.48835 0.0
C651 C 0.95541 0.33776 0.38103 0.0
Zn652 Zn 0.71619 0.70497 0.45986 0.0
Zn653 Zn 0.73047 0.70278 0.41563 0.0
O654 O 0.72618 0.72661 0.41008 0.0
O655 O 0.71408 0.72827 0.44739 0.0
O656 O 0.74189 0.69901 0.3826 0.0
O657 O 0.74058 0.70873 0.47906 0.0
O658 O 0.75384 0.70811 0.44213 0.0
C659 C 0.71912 0.73466 0.42504 0.0
C660 C 0.68886 0.66911 0.43538 0.0
O661 O 0.70195 0.67691 0.41767 0.0
O662 O 0.69196 0.6779 0.45657 0.0
C663 C 0.7361 0.70159 0.36087 0.0
O664 O 0.72235 0.70734 0.35949 0.0
C665 C 0.7553 0.70982 0.46631 0.0
C666 C 0.02066 0.48359 0.01179 0.0
C667 C 0.00802 0.48868 0.02569 0.0
C668 C 0.02468 0.46878 0.0202 0.0
C669 C 0.01545 0.45848 0.04272 0.0
C670 C 0.00143 0.46251 0.05574 0.0
C671 C 0.99809 0.47775 0.04726 0.0
C672 C 0.04003 0.46526 0.00602 0.0
C673 C 0.9908 0.45144 0.07944 0.0
C674 C 0.01822 0.41261 0.06096 0.0
C675 C 0.03327 0.42036 0.08026 0.0
C676 C 0.0124 0.42487 0.04812 0.0
C677 C 0.02231 0.44536 0.0544 0.0
C678 C 0.03837 0.45334 0.07291 0.0
C679 C 0.04337 0.44066 0.08594 0.0
C680 C 0.99491 0.41574 0.02894 0.0
C681 C 0.0498 0.47519 0.07963 0.0
H682 H 0.02848 0.492 0.99512 0.0
H683 H 0.98819 0.48151 0.05796 0.0
H684 H 0.05444 0.47112 0.01751 0.0
H685 H 0.034 0.44917 1.00299 0.0
H686 H 0.0439 0.47267 0.9873 0.0
H687 H 0.97828 0.45431 0.08521 0.0
H688 H 0.98418 0.43525 0.07648 0.0
H689 H 0.0022 0.4561 0.09528 0.0
H690 H 0.01019 0.3968 0.05696 0.0
H691 H 0.05496 0.44655 0.10099 0.0
H692 H 0.99937 0.42421 0.01104 0.0
H693 H 0.98146 0.41639 0.03649 0.0
H694 H 0.99006 0.40002 0.02458 0.0
H695 H 0.05553 0.48415 0.06219 0.0
H696 H 0.0631 0.47926 0.09267 0.0
H697 H 0.03917 0.47925 0.08893 0.0
C698 C 0.5989 0.62426 0.03273 0.0
C699 C 0.57738 0.6149 0.02969 0.0
C700 C 0.61063 0.64425 0.0406 0.0
C701 C 0.60073 0.65541 0.04535 0.0
C702 C 0.57911 0.64627 0.04141 0.0
C703 C 0.5677 0.62615 0.03381 0.0
C704 C 0.63357 0.65322 0.04481 0.0
C705 C 0.56791 0.65758 0.04594 0.0
C706 C 0.62705 0.69683 0.09475 0.0
C707 C 0.63818 0.71382 0.07988 0.0
C708 C 0.61451 0.678 0.08373 0.0
C709 C 0.6127 0.67582 0.05698 0.0
C710 C 0.62315 0.69297 0.04175 0.0
C711 C 0.63582 0.71176 0.05335 0.0
C712 C 0.60379 0.66026 0.10084 0.0
C713 C 0.62144 0.69138 0.01317 0.0
H714 H 0.60661 0.61581 0.02958 0.0
H715 H 0.55113 0.61919 0.03132 0.0
H716 H 0.64208 0.66729 0.03429 0.0
H717 H 0.63737 0.65679 0.06528 0.0
H718 H 0.63917 0.64308 0.03868 0.0
H719 H 0.55155 0.64913 0.03946 0.0
H720 H 0.5683 0.66094 0.06651 0.0
H721 H 0.5757 0.67196 0.03593 0.0
H722 H 0.62854 0.69811 0.11526 0.0
H723 H 0.64431 0.72469 0.04163 0.0
H724 H 0.6097 0.64995 0.09725 0.0
H725 H 0.58699 0.65203 0.09663 0.0
H726 H 0.60616 0.66451 0.12129 0.0
H727 H 0.62895 0.68312 0.00611 0.0
H728 H 0.62882 0.70615 1.0041 0.0
H729 H 0.605 0.68292 0.0071 0.0
C730 C 0.45561 0.00138 0.029 0.0
C731 C 0.47401 0.01106 0.04328 0.0
C732 C 0.43645 0.99514 0.04043 0.0
C733 C 0.43564 0.99854 0.06678 0.0
C734 C 0.45395 0.00646 0.08166 0.0
C735 C 0.47291 0.0127 0.06974 0.0
C736 C 0.41731 0.98665 0.02382 0.0
C737 C 0.45382 0.01007 0.10983 0.0
C738 C 0.39615 0.01351 0.08322 0.0
C739 C 0.37974 0.99591 0.09258 0.0
C740 C 0.41457 0.01462 0.0757 0.0
C741 C 0.41678 0.99765 0.07745 0.0
C742 C 0.4007 0.98006 0.08814 0.0
C743 C 0.3823 0.97939 0.09566 0.0
C744 C 0.43133 0.03381 0.06479 0.0
C745 C 0.40251 0.96171 0.09048 0.0
H746 H 0.45624 0.99994 0.00859 0.0
H747 H 0.48701 0.0199 0.08103 0.0
H748 H 0.40432 0.97367 0.03294 0.0
H749 H 0.41267 0.99801 0.02118 0.0
H750 H 0.41987 0.98205 0.00481 0.0
H751 H 0.46823 0.01256 0.11937 0.0
H752 H 0.45236 0.0234 0.11303 0.0
H753 H 0.44047 0.99737 0.11888 0.0
H754 H 0.39435 0.0264 0.08104 0.0
H755 H 0.3696 0.96571 0.10271 0.0
H756 H 0.43382 0.03145 0.04462 0.0
H757 H 0.4461 0.03881 0.07519 0.0
H758 H 0.42751 0.04587 0.06574 0.0
H759 H 0.40114 0.95507 0.07135 0.0
H760 H 0.3903 0.95041 0.10265 0.0
H761 H 0.41782 0.96546 0.09847 0.0
C762 C 0.4912 0.09761 0.49694 0.0
C763 C 0.48627 0.07876 0.50579 0.0
C764 C 0.47586 0.10187 0.48912 0.0
C765 C 0.45484 0.08695 0.49013 0.0
C766 C 0.44978 0.06752 0.49749 0.0
C767 C 0.46555 0.06363 0.50521 0.0
C768 C 0.48214 0.12276 0.48143 0.0
C769 C 0.42761 0.0511 0.49866 0.0
C770 C 0.41625 0.10368 0.50575 0.0
C771 C 0.40708 0.10285 0.48206 0.0
C772 C 0.43181 0.09875 0.50842 0.0
C773 C 0.43837 0.09246 0.48692 0.0
C774 C 0.42953 0.09199 0.46275 0.0
C775 C 0.41408 0.09733 0.46056 0.0
C776 C 0.44101 0.09998 0.53448 0.0
C777 C 0.43592 0.08524 0.43938 0.0
H778 H 0.50718 0.1094 0.49698 0.0
H779 H 0.46154 0.04905 0.512 0.0
H780 H 0.47412 0.12268 0.46359 0.0
H781 H 0.47758 0.12987 0.49638 0.0
H782 H 0.49905 0.13199 0.47866 0.0
H783 H 0.42627 0.03637 0.50135 0.0
H784 H 0.41995 0.05399 0.51474 0.0
H785 H 0.41916 0.05064 0.48103 0.0
H786 H 0.41093 0.10791 0.52246 0.0
H787 H 0.40682 0.0963 0.44228 0.0
H788 H 0.45797 0.11002 0.53416 0.0
H789 H 0.43816 0.08513 0.54013 0.0
H790 H 0.4345 0.1055 0.54919 0.0
H791 H 0.45289 0.09408 0.43714 0.0
H792 H 0.42835 0.08654 0.42185 0.0
H793 H 0.43185 0.06953 0.44149 0.0
C794 C 0.97471 0.47361 0.45906 0.0
C795 C 0.98347 0.48627 0.48017 0.0
C796 C 0.97282 0.45476 0.45842 0.0
C797 C 0.97991 0.44839 0.4794 0.0
C798 C 0.9865 0.46013 0.50189 0.0
C799 C 0.98815 0.47893 0.50204 0.0
C800 C 0.9653 0.4426 0.43418 0.0
C801 C 0.99382 0.45393 0.52501 0.0
C802 C 0.9716 0.39634 0.47005 0.0
C803 C 0.98962 0.40061 0.4571 0.0
C804 C 0.96867 0.41178 0.47933 0.0
C805 C 0.98416 0.43177 0.4756 0.0
C806 C 0.00315 0.43595 0.46478 0.0
C807 C 0.00557 0.42035 0.45553 0.0
C808 C 0.9485 0.40673 0.4915 0.0
C809 C 0.02039 0.45701 0.46114 0.0
H810 H 0.97071 0.47899 0.44224 0.0
H811 H 0.99468 0.48842 0.51866 0.0
H812 H 0.9786 0.44319 0.42423 0.0
H813 H 0.95429 0.42684 0.43838 0.0
H814 H 0.95765 0.44817 0.42114 0.0
H815 H 0.99037 0.45956 0.54264 0.0
H816 H 0.98665 0.43759 0.52619 0.0
H817 H 0.0108 0.46046 0.52417 0.0
H818 H 0.95922 0.38109 0.47131 0.0
H819 H 0.01963 0.42367 0.44581 0.0
H820 H 0.93895 0.40964 0.47791 0.0
H821 H 0.95119 0.4162 0.50857 0.0
H822 H 0.93966 0.3909 0.49703 0.0
H823 H 0.01557 0.46439 0.4469 0.0
H824 H 0.03477 0.45769 0.45452 0.0
H825 H 0.02382 0.46557 0.4792 0.0
C826 C 0.5673 0.59674 0.43862 0.0
C827 C 0.56288 0.60905 0.45376 0.0
C828 C 0.5872 0.6035 0.42926 0.0
C829 C 0.60299 0.62305 0.4351 0.0
C830 C 0.59819 0.63604 0.4485 0.0
C831 C 0.57823 0.62888 0.45769 0.0
C832 C 0.59156 0.58928 0.4147 0.0
C833 C 0.61453 0.65715 0.45483 0.0
C834 C 0.65815 0.63893 0.4504 0.0
C835 C 0.66823 0.65195 0.43051 0.0
C836 C 0.63662 0.62746 0.45064 0.0
C837 C 0.62498 0.62936 0.43066 0.0
C838 C 0.63519 0.64059 0.40903 0.0
C839 C 0.65684 0.65176 0.40915 0.0
C840 C 0.62638 0.61523 0.47378 0.0
C841 C 0.62334 0.6427 0.38713 0.0
H842 H 0.5554 0.58155 0.43485 0.0
H843 H 0.57508 0.63855 0.4693 0.0
H844 H 0.60237 0.59685 0.39896 0.0
H845 H 0.59893 0.58338 0.42764 0.0
H846 H 0.5772 0.57654 0.40678 0.0
H847 H 0.60788 0.66586 0.46304 0.0
H848 H 0.62571 0.65712 0.46879 0.0
H849 H 0.62322 0.66475 0.43759 0.0
H850 H 0.66703 0.63903 0.46684 0.0
H851 H 0.66464 0.66192 0.39379 0.0
H852 H 0.61315 0.60059 0.46819 0.0
H853 H 0.62034 0.62299 0.48562 0.0
H854 H 0.6373 0.61285 0.48559 0.0
H855 H 0.60894 0.62853 0.38299 0.0
H856 H 0.63277 0.64764 0.36968 0.0
H857 H 0.61897 0.65395 0.39217 0.0
C858 C 0.99365 0.57969 0.97541 0.0
C859 C 0.98583 0.5621 0.961 0.0
C860 C 0.99075 0.5953 0.96752 0.0
C861 C 0.97926 0.59306 0.94503 0.0
C862 C 0.96974 0.57468 0.93171 0.0
C863 C 0.97339 0.55949 0.93964 0.0
C864 C 0.00154 0.61475 0.98204 0.0
C865 C 0.95679 0.57148 0.90813 0.0
C866 C 0.9668 0.63385 0.93039 0.0
C867 C 0.98194 0.64497 0.91254 0.0
C868 C 0.96531 0.61656 0.94072 0.0
C869 C 0.97973 0.61073 0.93362 0.0
C870 C 0.99523 0.62216 0.9159 0.0
C871 C 0.99592 0.63892 0.9053 0.0
C872 C 0.94823 0.60445 0.95898 0.0
C873 C 0.0113 0.61683 0.90834 0.0
H874 H 0.00333 0.58189 0.99194 0.0
H875 H 0.96714 0.54587 0.92855 0.0
H876 H 0.01449 0.6259 0.97062 0.0
H877 H 0.99089 0.62051 0.98544 0.0
H878 H 0.00783 0.61337 1.00062 0.0
H879 H 0.94763 0.55555 0.90264 0.0
H880 H 0.94613 0.57731 0.91102 0.0
H881 H 0.96697 0.57967 0.89212 0.0
H882 H 0.95586 0.63843 0.93583 0.0
H883 H 0.00774 0.64759 0.89164 0.0
H884 H 0.95482 0.60373 0.9776 0.0
H885 H 0.93889 0.589 0.95167 0.0
H886 H 0.93789 0.61066 0.96196 0.0
H887 H 0.01968 0.6162 0.92547 0.0
H888 H 0.02271 0.62765 0.89497 0.0
H889 H 0.00375 0.60193 0.8992 0.0
C890 C 0.47417 0.48505 0.99703 0.0
C891 C 0.49373 0.48966 0.00632 0.0
C892 C 0.45869 0.46529 0.99201 0.0
C893 C 0.46277 0.44959 0.99619 0.0
C894 C 0.48235 0.4541 0.00597 0.0
C895 C 0.49753 0.474 0.01094 0.0
C896 C 0.43807 0.46126 0.98167 0.0
C897 C 0.48746 0.43793 0.01059 0.0
C898 C 0.41608 0.39682 0.99657 0.0
C899 C 0.41518 0.39095 0.97112 0.0
C900 C 0.43182 0.41563 0.00532 0.0
C901 C 0.44713 0.42876 0.98831 0.0
C902 C 0.44685 0.42236 0.96301 0.0
C903 C 0.43092 0.40369 0.95477 0.0
C904 C 0.4315 0.42182 0.03243 0.0
C905 C 0.46292 0.4356 0.94423 0.0
H906 H 0.47094 0.49694 0.99354 0.0
H907 H 0.51251 0.47728 0.01821 0.0
H908 H 0.43568 0.45495 0.96216 0.0
H909 H 0.42545 0.45013 0.99351 0.0
H910 H 0.43682 0.47487 0.98103 0.0
H911 H 0.50283 0.44366 0.01983 0.0
H912 H 0.47562 0.42629 0.02273 0.0
H913 H 0.48733 0.43075 0.99226 0.0
H914 H 0.40391 0.38718 0.00928 0.0
H915 H 0.43047 0.39926 0.9351 0.0
H916 H 0.42788 0.434 0.03273 0.0
H917 H 0.44689 0.42761 0.04156 0.0
H918 H 0.41986 0.40938 0.04388 0.0
H919 H 0.4614 0.44882 0.94058 0.0
H920 H 0.46144 0.4279 0.92583 0.0
H921 H 0.47863 0.44095 0.95214 0.0
C922 C 0.58567 0.0499 0.98577 0.0
C923 C 0.59005 0.06412 0.00493 0.0
C924 C 0.60168 0.04867 0.97358 0.0
C925 C 0.62244 0.06165 0.98118 0.0
C926 C 0.62682 0.07577 1.00083 0.0
C927 C 0.61061 0.07695 0.01223 0.0
C928 C 0.59644 0.03368 0.95241 0.0
C929 C 0.64865 0.08957 0.01001 0.0
C930 C 0.66476 0.04898 0.97377 0.0
C931 C 0.67738 0.06268 0.9555 0.0
C932 C 0.64617 0.04762 0.98116 0.0
C933 C 0.63973 0.06003 0.96976 0.0
C934 C 0.65146 0.07271 0.9498 0.0
C935 C 0.67023 0.07397 0.94297 0.0
C936 C 0.63431 0.03399 1.00262 0.0
C937 C 0.64485 0.08586 0.93677 0.0
H938 H 0.56981 0.04013 0.97983 0.0
H939 H 0.61407 0.08793 0.02708 0.0
H940 H 0.60447 0.04133 0.93485 0.0
H941 H 0.60193 0.02326 0.95741 0.0
H942 H 0.5796 0.02498 0.94835 0.0
H943 H 0.64941 0.09962 0.02559 0.0
H944 H 0.65566 0.08083 0.01695 0.0
H945 H 0.65817 0.09875 0.9941 0.0
H946 H 0.66993 0.03995 0.98339 0.0
H947 H 0.67975 0.0845 0.92874 0.0
H948 H 0.61768 0.02505 0.99765 0.0
H949 H 0.63572 0.043 0.01974 0.0
H950 H 0.64008 0.02377 0.00754 0.0
H951 H 0.62814 0.07743 0.93198 0.0
H952 H 0.65362 0.09233 0.91912 0.0
H953 H 0.64746 0.09818 0.9498 0.0
C954 C 0.54738 0.01484 0.59042 0.0
C955 C 0.54278 0.02028 0.5669 0.0
C956 C 0.56178 0.0083 0.59257 0.0
C957 C 0.5719 0.007 0.57067 0.0
C958 C 0.56624 0.0111 0.5466 0.0
C959 C 0.5518 0.0177 0.545 0.0
C960 C 0.56727 0.00423 0.61863 0.0
C961 C 0.57642 0.00975 0.52266 0.0
C962 C 0.62752 0.01847 0.57777 0.0
C963 C 0.62557 0.99962 0.57697 0.0
C964 C 0.61019 0.02094 0.57631 0.0
C965 C 0.59023 0.00412 0.57339 0.0
C966 C 0.58809 0.98492 0.57307 0.0
C967 C 0.60581 0.98288 0.575 0.0
C968 C 0.61336 0.04167 0.57727 0.0
C969 C 0.56719 0.96662 0.56968 0.0
H970 H 0.54047 0.01662 0.6075 0.0
H971 H 0.54849 0.0219 0.52673 0.0
H972 H 0.56749 0.9901 0.61858 0.0
H973 H 0.58298 0.01623 0.62412 0.0
H974 H 0.55632 0.00346 0.63328 0.0
H975 H 0.56837 0.01059 0.5053 0.0
H976 H 0.59261 0.02215 0.5224 0.0
H977 H 0.57683 0.99571 0.52209 0.0
H978 H 0.64281 0.03145 0.57898 0.0
H979 H 0.60429 0.96831 0.57376 0.0
H980 H 0.60396 0.0429 0.59258 0.0
H981 H 0.60814 0.04495 0.55909 0.0
H982 H 0.62977 0.05312 0.58067 0.0
H983 H 0.55634 0.96647 0.584 0.0
H984 H 0.56791 0.95277 0.57134 0.0
H985 H 0.56075 0.96678 0.55069 0.0
C986 C 0.07345 0.61731 0.51876 0.0
C987 C 0.05316 0.60124 0.51907 0.0
C988 C 0.07833 0.63599 0.52851 0.0
C989 C 0.06254 0.63876 0.53875 0.0
C990 C 0.04195 0.62273 0.53866 0.0
C991 C 0.03751 0.60413 0.5289 0.0
C992 C 0.10049 0.65261 0.52847 0.0
C993 C 0.02468 0.62513 0.54934 0.0
C994 C 0.07623 0.67795 0.58998 0.0
C995 C 0.07562 0.69318 0.57663 0.0
C996 C 0.07249 0.66043 0.57772 0.0
C997 C 0.06783 0.65792 0.55141 0.0
C998 C 0.06788 0.6735 0.53756 0.0
C999 C 0.07191 0.69105 0.55034 0.0
C1000 C 0.07295 0.64436 0.59313 0.0
C1001 C 0.06295 0.67133 0.50948 0.0
H1002 H 0.08567 0.61527 0.51115 0.0
H1003 H 0.02179 0.59185 0.52904 0.0
H1004 H 0.10165 0.66589 0.51925 0.0
H1005 H 0.10623 0.65692 0.5483 0.0
H1006 H 0.11075 0.64839 0.51845 0.0
H1007 H 0.00934 0.61166 0.54631 0.0
H1008 H 0.02723 0.62833 0.57003 0.0
H1009 H 0.0245 0.63791 0.54041 0.0
H1010 H 0.07925 0.67956 0.61028 0.0
H1011 H 0.07125 0.70271 0.53998 0.0
H1012 H 0.08373 0.64014 0.5846 0.0
H1013 H 0.05742 0.63091 0.59296 0.0
H1014 H 0.07777 0.64902 0.61318 0.0
H1015 H 0.07314 0.66718 0.49924 0.0
H1016 H 0.06471 0.68517 0.50121 0.0
H1017 H 0.04684 0.65921 0.50617 0.0
C1018 C 0.4313 0.52571 0.57659 0.0
C1019 C 0.42909 0.53324 0.55339 0.0
C1020 C 0.4147 0.50885 0.58712 0.0
C1021 C 0.39551 0.49931 0.57402 0.0
C1022 C 0.3926 0.50818 0.55218 0.0
C1023 C 0.40945 0.5251 0.54212 0.0
C1024 C 0.41834 0.50014 0.61078 0.0
C1025 C 0.37231 0.49859 0.53777 0.0
C1026 C 0.36692 0.4434 0.56964 0.0
C1027 C 0.3497 0.43818 0.5848 0.0
C1028 C 0.38223 0.4632 0.56682 0.0
C1029 C 0.38034 0.47828 0.57952 0.0
C1030 C 0.36354 0.47313 0.5959 0.0
C1031 C 0.34835 0.45305 0.59837 0.0
C1032 C 0.40002 0.46799 0.54937 0.0
C1033 C 0.36112 0.48879 0.6099 0.0
H1034 H 0.44637 0.53229 0.58566 0.0
H1035 H 0.40759 0.53085 0.52424 0.0
H1036 H 0.40483 0.4943 0.62345 0.0
H1037 H 0.4206 0.48758 0.60537 0.0
H1038 H 0.43226 0.51124 0.6215 0.0
H1039 H 0.37144 0.50891 0.52401 0.0
H1040 H 0.37048 0.48545 0.52712 0.0
H1041 H 0.35921 0.49339 0.551 0.0
H1042 H 0.36823 0.43197 0.55937 0.0
H1043 H 0.33506 0.4491 0.61012 0.0
H1044 H 0.41491 0.47706 0.55962 0.0
H1045 H 0.39965 0.47682 0.53314 0.0
H1046 H 0.39958 0.45445 0.54173 0.0
H1047 H 0.37605 0.50021 0.61836 0.0
H1048 H 0.34954 0.48234 0.62518 0.0
H1049 H 0.35602 0.49636 0.59635 0.0
C1050 C 0.69386 0.8192 0.38181 0.0
C1051 C 0.67264 0.80977 0.37622 0.0
C1052 C 0.70344 0.80824 0.38809 0.0
C1053 C 0.69148 0.78734 0.38912 0.0
C1054 C 0.67015 0.77768 0.3831 0.0
C1055 C 0.661 0.78901 0.37666 0.0
C1056 C 0.72624 0.81906 0.39434 0.0
C1057 C 0.65686 0.75539 0.38408 0.0
C1058 C 0.71592 0.75475 0.39009 0.0
C1059 C 0.71478 0.75017 0.41596 0.0
C1060 C 0.70905 0.76743 0.38109 0.0
C1061 C 0.70085 0.77562 0.39837 0.0
C1062 C 0.70056 0.77177 0.42461 0.0
C1063 C 0.70758 0.75915 0.43307 0.0
C1064 C 0.70981 0.77144 0.353 0.0
C1065 C 0.69201 0.78027 0.44367 0.0
H1066 H 0.70299 0.83522 0.3819 0.0
H1067 H 0.64471 0.78157 0.37195 0.0
H1068 H 0.72864 0.81717 0.41471 0.0
H1069 H 0.73411 0.81271 0.38318 0.0
H1070 H 0.73369 0.83518 0.39044 0.0
H1071 H 0.64074 0.75011 0.37773 0.0
H1072 H 0.66344 0.74828 0.37194 0.0
H1073 H 0.65661 0.75033 0.40379 0.0
H1074 H 0.72148 0.7479 0.37675 0.0
H1075 H 0.70678 0.75583 0.45312 0.0
H1076 H 0.7173 0.78762 0.34967 0.0
H1077 H 0.69389 0.76457 0.34512 0.0
H1078 H 0.7183 0.76543 0.34242 0.0
H1079 H 0.69975 0.79662 0.44192 0.0
H1080 H 0.69392 0.7767 0.46353 0.0
H1081 H 0.67533 0.77429 0.43976 0.0
C1082 C 0.21898 0.97939 0.40341 0.0
C1083 C 0.22428 0.96668 0.39068 0.0
C1084 C 0.23419 0.99826 0.41216 0.0
C1085 C 0.25527 0.00458 0.4084 0.0
C1086 C 0.26072 0.9922 0.39471 0.0
C1087 C 0.24519 0.97351 0.38592 0.0
C1088 C 0.2277 0.01105 0.4265 0.0
C1089 C 0.28301 0.9983 0.39037 0.0
C1090 C 0.29703 0.05836 0.42161 0.0
C1091 C 0.30336 0.05708 0.44634 0.0
C1092 C 0.28116 0.04148 0.40903 0.0
C1093 C 0.27161 0.02292 0.42139 0.0
C1094 C 0.27788 0.02163 0.44637 0.0
C1095 C 0.29352 0.03866 0.45852 0.0
C1096 C 0.27471 0.04347 0.38249 0.0
C1097 C 0.26827 0.00215 0.46023 0.0
H1098 H 0.20298 0.97439 0.40737 0.0
H1099 H 0.24955 0.96415 0.37557 0.0
H1100 H 0.23198 0.01178 0.44687 0.0
H1101 H 0.23585 0.02643 0.41926 0.0
H1102 H 0.21081 0.00519 0.42504 0.0
H1103 H 0.28466 0.98785 0.37747 0.0
H1104 H 0.29138 0.01336 0.3822 0.0
H1105 H 0.2906 0.99889 0.40881 0.0
H1106 H 0.3045 0.07249 0.41205 0.0
H1107 H 0.29825 0.03739 0.47759 0.0
H1108 H 0.25791 0.03808 0.38178 0.0
H1109 H 0.2776 0.0341 0.36911 0.0
H1110 H 0.28311 0.05903 0.37584 0.0
H1111 H 0.25139 0.996 0.46179 0.0
H1112 H 0.27487 0.00367 0.47964 0.0
H1113 H 0.27063 0.9912 0.44938 0.0
C1114 C 0.13536 0.3976 0.38406 0.0
C1115 C 0.14427 0.38792 0.37128 0.0
C1116 C 0.11463 0.38752 0.39097 0.0
C1117 C 0.10229 0.36704 0.38528 0.0
C1118 C 0.11147 0.35678 0.37397 0.0
C1119 C 0.13239 0.36739 0.36692 0.0
C1120 C 0.10564 0.39919 0.40292 0.0
C1121 C 0.09902 0.33486 0.36818 0.0
C1122 C 0.05003 0.34786 0.41568 0.0
C1123 C 0.03959 0.35172 0.39633 0.0
C1124 C 0.06992 0.35068 0.41163 0.0
C1125 C 0.07948 0.35765 0.38782 0.0
C1126 C 0.06806 0.35956 0.3676 0.0
C1127 C 0.0483 0.35652 0.3721 0.0
C1128 C 0.08131 0.34778 0.43339 0.0
C1129 C 0.07745 0.36682 0.34184 0.0
H1130 H 0.14444 0.41338 0.38801 0.0
H1131 H 0.1392 0.35974 0.35735 0.0
H1132 H 0.09419 0.3995 0.38969 0.0
H1133 H 0.09748 0.39202 0.42061 0.0
H1134 H 0.1176 0.41473 0.40755 0.0
H1135 H 0.10909 0.32825 0.36607 0.0
H1136 H 0.08766 0.32692 0.38328 0.0
H1137 H 0.09035 0.33245 0.35008 0.0
H1138 H 0.04329 0.34388 0.43436 0.0
H1139 H 0.04011 0.35904 0.35684 0.0
H1140 H 0.09205 0.36236 0.44232 0.0
H1141 H 0.09062 0.34122 0.4266 0.0
H1142 H 0.07055 0.33807 0.44815 0.0
H1143 H 0.08945 0.38273 0.34334 0.0
H1144 H 0.06579 0.36524 0.32741 0.0
H1145 H 0.08502 0.35856 0.33504 0.0
C1146 C 0.12673 0.36367 0.8093 0.0
C1147 C 0.14026 0.37313 0.82995 0.0
C1148 C 0.11487 0.37122 0.79863 0.0
C1149 C 0.11647 0.38883 0.80869 0.0
C1150 C 0.13118 0.39928 0.82838 0.0
C1151 C 0.14293 0.39131 0.83881 0.0
C1152 C 0.09948 0.35945 0.77776 0.0
C1153 C 0.13361 0.41824 0.83947 0.0
C1154 C 0.08663 0.40887 0.77136 0.0
C1155 C 0.06782 0.4002 0.78428 0.0
C1156 C 0.10305 0.40611 0.77964 0.0
C1157 C 0.10057 0.39428 0.8012 0.0
C1158 C 0.08175 0.38583 0.81447 0.0
C1159 C 0.06578 0.3889 0.80594 0.0
C1160 C 0.12291 0.41554 0.76508 0.0
C1161 C 0.07817 0.37294 0.83736 0.0
H1162 H 0.12476 0.34978 0.80197 0.0
H1163 H 0.15337 0.39877 0.85467 0.0
H1164 H 0.08361 0.35277 0.78528 0.0
H1165 H 0.10066 0.36924 0.76191 0.0
H1166 H 0.10171 0.34733 0.77012 0.0
H1167 H 0.1479 0.42632 0.85124 0.0
H1168 H 0.13393 0.42812 0.82419 0.0
H1169 H 0.12021 0.41475 0.85161 0.0
H1170 H 0.08852 0.41776 0.75478 0.0
H1171 H 0.05144 0.38212 0.81626 0.0
H1172 H 0.12485 0.40385 0.75552 0.0
H1173 H 0.13626 0.42371 0.77826 0.0
H1174 H 0.12328 0.42593 0.75047 0.0
H1175 H 0.07863 0.35943 0.83163 0.0
H1176 H 0.06308 0.36828 0.84635 0.0
H1177 H 0.09056 0.38097 0.85177 0.0
C1178 C 0.7104 0.80347 0.79156 0.0
C1179 C 0.69807 0.81234 0.79024 0.0
C1180 C 0.70275 0.78369 0.78388 0.0
C1181 C 0.68219 0.77236 0.77476 0.0
C1182 C 0.66943 0.78097 0.77407 0.0
C1183 C 0.67754 0.80085 0.78172 0.0
C1184 C 0.7169 0.7751 0.78487 0.0
C1185 C 0.64741 0.76936 0.76451 0.0
C1186 C 0.67211 0.73122 0.7279 0.0
C1187 C 0.66345 0.71435 0.74328 0.0
C1188 C 0.67782 0.75002 0.73784 0.0
C1189 C 0.67473 0.75215 0.76387 0.0
C1190 C 0.66545 0.73516 0.77943 0.0
C1191 C 0.65995 0.71643 0.76896 0.0
C1192 C 0.6877 0.76773 0.72058 0.0
C1193 C 0.66176 0.73684 0.80722 0.0
H1194 H 0.72611 0.81199 0.79864 0.0
H1195 H 0.66789 0.80752 0.78042 0.0
H1196 H 0.70965 0.7611 0.79568 0.0
H1197 H 0.71952 0.77147 0.76533 0.0
H1198 H 0.73209 0.78548 0.79379 0.0
H1199 H 0.63895 0.77754 0.7674 0.0
H1200 H 0.64719 0.76611 0.74393 0.0
H1201 H 0.63906 0.75493 0.77431 0.0
H1202 H 0.67483 0.72984 0.70801 0.0
H1203 H 0.65323 0.70351 0.78098 0.0
H1204 H 0.70365 0.77818 0.72733 0.0
H1205 H 0.67903 0.77583 0.72106 0.0
H1206 H 0.68835 0.76347 0.70058 0.0
H1207 H 0.67674 0.74574 0.81736 0.0
H1208 H 0.65318 0.72211 0.81635 0.0
H1209 H 0.65294 0.7447 0.80961 0.0
C1210 C 0.22425 0.92611 0.80292 0.0
C1211 C 0.22131 0.9178 0.82717 0.0
C1212 C 0.24349 0.94194 0.7958 0.0
C1213 C 0.26018 0.94973 0.8134 0.0
C1214 C 0.25752 0.94092 0.83755 0.0
C1215 C 0.23814 0.92505 0.84412 0.0
C1216 C 0.2457 0.95084 0.76984 0.0
C1217 C 0.27492 0.94881 0.85689 0.0
C1218 C 0.31546 0.98599 0.794 0.0
C1219 C 0.31754 0.00409 0.80216 0.0
C1220 C 0.29665 0.96812 0.79675 0.0
C1221 C 0.27963 0.96845 0.80781 0.0
C1222 C 0.28142 0.98681 0.81487 0.0
C1223 C 0.30028 0.00433 0.81196 0.0
C1224 C 0.29526 0.94883 0.78882 0.0
C1225 C 0.26364 0.98791 0.82651 0.0
H1226 H 0.21141 0.9205 0.78956 0.0
H1227 H 0.23607 0.91865 0.86283 0.0
H1228 H 0.24761 0.96587 0.7718 0.0
H1229 H 0.25966 0.95252 0.76042 0.0
H1230 H 0.23207 0.94171 0.75739 0.0
H1231 H 0.27091 0.93928 0.8739 0.0
H1232 H 0.28897 0.94999 0.84833 0.0
H1233 H 0.27876 0.96393 0.8631 0.0
H1234 H 0.32872 0.98568 0.78648 0.0
H1235 H 0.30166 0.01827 0.81805 0.0
H1236 H 0.28133 0.93992 0.77675 0.0
H1237 H 0.29374 0.93997 0.80591 0.0
H1238 H 0.30906 0.95121 0.77822 0.0
H1239 H 0.24976 0.98031 0.81402 0.0
H1240 H 0.26724 0.00343 0.82977 0.0
H1241 H 0.25968 0.98017 0.84498 0.0
C1242 C 0.6376 0.92514 0.33497 0.0
C1243 C 0.62081 0.90609 0.33893 0.0
C1244 C 0.63472 0.94122 0.33019 0.0
C1245 C 0.61449 0.93827 0.32936 0.0
C1246 C 0.5975 0.91938 0.33483 0.0
C1247 C 0.60085 0.90342 0.33935 0.0
C1248 C 0.6533 0.96107 0.32423 0.0
C1249 C 0.57575 0.91579 0.33468 0.0
C1250 C 0.61588 0.98741 0.32398 0.0
C1251 C 0.61601 0.98929 0.2975 0.0
C1252 C 0.61348 0.96998 0.33499 0.0
C1253 C 0.61135 0.9543 0.31908 0.0
C1254 C 0.60975 0.95556 0.29246 0.0
C1255 C 0.61202 0.97299 0.28204 0.0
C1256 C 0.61475 0.96895 0.36349 0.0
C1257 C 0.60748 0.93921 0.27474 0.0
H1258 H 0.65306 0.92739 0.3342 0.0
H1259 H 0.58786 0.8888 0.34275 0.0
H1260 H 0.65263 0.96459 0.30398 0.0
H1261 H 0.65333 0.97299 0.33587 0.0
H1262 H 0.66806 0.96127 0.32772 0.0
H1263 H 0.56494 0.9017 0.34414 0.0
H1264 H 0.57511 0.92819 0.34428 0.0
H1265 H 0.57038 0.91497 0.31478 0.0
H1266 H 0.61869 0.99986 0.33607 0.0
H1267 H 0.61165 0.97414 0.26156 0.0
H1268 H 0.63034 0.97184 0.3691 0.0
H1269 H 0.6034 0.95397 0.3703 0.0
H1270 H 0.612 0.98012 0.37317 0.0
H1271 H 0.62193 0.93852 0.27513 0.0
H1272 H 0.60427 0.94158 0.25483 0.0
H1273 H 0.59483 0.92463 0.28097 0.0
C1274 C 0.1371 0.81323 0.31832 0.0
C1275 C 0.12833 0.82549 0.31964 0.0
C1276 C 0.12582 0.79376 0.30867 0.0
C1277 C 0.10529 0.78634 0.29999 0.0
C1278 C 0.09609 0.79834 0.30217 0.0
C1279 C 0.1077 0.81773 0.31198 0.0
C1280 C 0.13619 0.78144 0.3067 0.0
C1281 C 0.0742 0.79098 0.2932 0.0
C1282 C 0.08361 0.74846 0.24628 0.0
C1283 C 0.06977 0.73108 0.25892 0.0
C1284 C 0.09575 0.76632 0.25958 0.0
C1285 C 0.0941 0.76691 0.28627 0.0
C1286 C 0.08093 0.74923 0.29936 0.0
C1287 C 0.06891 0.73148 0.28551 0.0
C1288 C 0.10972 0.78477 0.24487 0.0
C1289 C 0.07889 0.74925 0.32784 0.0
H1290 H 0.15305 0.81906 0.32395 0.0
H1291 H 0.10065 0.82691 0.31338 0.0
H1292 H 0.12616 0.76645 0.31451 0.0
H1293 H 0.13878 0.77949 0.28644 0.0
H1294 H 0.15129 0.78843 0.31692 0.0
H1295 H 0.0688 0.80153 0.29796 0.0
H1296 H 0.07315 0.78869 0.2723 0.0
H1297 H 0.06361 0.77645 0.30183 0.0
H1298 H 0.08455 0.74829 0.22576 0.0
H1299 H 0.05826 0.71813 0.29544 0.0
H1300 H 0.12566 0.79192 0.25274 0.0
H1301 H 0.1043 0.79562 0.24672 0.0
H1302 H 0.11014 0.78157 0.22436 0.0
H1303 H 0.09434 0.75659 0.33716 0.0
H1304 H 0.06965 0.73402 0.3354 0.0
H1305 H 0.07131 0.75786 0.33314 0.0
C1306 C 0.25412 0.39799 0.30776 0.0
C1307 C 0.25733 0.41633 0.31672 0.0
C1308 C 0.2709 0.39564 0.30075 0.0
C1309 C 0.29131 0.41187 0.30334 0.0
C1310 C 0.29452 0.43044 0.31201 0.0
C1311 C 0.27754 0.43247 0.31834 0.0
C1312 C 0.26686 0.37571 0.29109 0.0
C1313 C 0.31598 0.44803 0.31568 0.0
C1314 C 0.3356 0.40298 0.31795 0.0
C1315 C 0.34681 0.40859 0.29533 0.0
C1316 C 0.31722 0.40339 0.32045 0.0
C1317 C 0.30948 0.40918 0.29963 0.0
C1318 C 0.32028 0.4142 0.27638 0.0
C1319 C 0.339 0.4141 0.27458 0.0
C1320 C 0.30657 0.39843 0.3458 0.0
C1321 C 0.31227 0.42006 0.2536 0.0
H1322 H 0.23854 0.38552 0.30623 0.0
H1323 H 0.28022 0.44671 0.3253 0.0
H1324 H 0.27544 0.37747 0.27332 0.0
H1325 H 0.27247 0.36898 0.30528 0.0
H1326 H 0.25019 0.36531 0.2874 0.0
H1327 H 0.3158 0.46167 0.32156 0.0
H1328 H 0.32439 0.44466 0.33046 0.0
H1329 H 0.3248 0.45109 0.29787 0.0
H1330 H 0.34154 0.39879 0.33417 0.0
H1331 H 0.34747 0.41827 0.25699 0.0
H1332 H 0.29024 0.38659 0.34343 0.0
H1333 H 0.30661 0.41168 0.35374 0.0
H1334 H 0.31415 0.39344 0.3598 0.0
H1335 H 0.29578 0.40902 0.25002 0.0
H1336 H 0.32112 0.42135 0.23621 0.0
H1337 H 0.31326 0.43455 0.25737 0.0
C1338 C 0.23536 0.35737 0.90112 0.0
C1339 C 0.22117 0.35642 0.91911 0.0
C1340 C 0.2521 0.35482 0.90821 0.0
C1341 C 0.25503 0.35155 0.93402 0.0
C1342 C 0.24112 0.3512 0.95236 0.0
C1343 C 0.22433 0.35345 0.94468 0.0
C1344 C 0.26641 0.3552 0.88793 0.0
C1345 C 0.24385 0.34823 0.98011 0.0
C1346 C 0.28843 0.32788 0.94708 0.0
C1347 C 0.30793 0.34466 0.9509 0.0
C1348 C 0.2709 0.32981 0.94231 0.0
C1349 C 0.2729 0.34894 0.94176 0.0
C1350 C 0.29239 0.36578 0.94722 0.0
C1351 C 0.30963 0.36344 0.95137 0.0
C1352 C 0.25051 0.31146 0.93637 0.0
C1353 C 0.2953 0.38641 0.94745 0.0
H1354 H 0.23298 0.35939 0.88128 0.0
H1355 H 0.21348 0.35265 0.95877 0.0
H1356 H 0.28241 0.36719 0.89214 0.0
H1357 H 0.26649 0.34099 0.88779 0.0
H1358 H 0.26189 0.35757 0.8687 0.0
H1359 H 0.23211 0.34893 0.99214 0.0
H1360 H 0.24276 0.33362 0.98276 0.0
H1361 H 0.25941 0.35973 0.98689 0.0
H1362 H 0.28711 0.31338 0.94612 0.0
H1363 H 0.32473 0.37648 0.95407 0.0
H1364 H 0.2461 0.31179 0.91627 0.0
H1365 H 0.23821 0.31107 0.94836 0.0
H1366 H 0.25108 0.29764 0.93935 0.0
H1367 H 0.29324 0.39045 0.92792 0.0
H1368 H 0.31085 0.39769 0.9546 0.0
H1369 H 0.28351 0.38698 0.95949 0.0
C1370 C 0.7291 0.95679 0.85886 0.0
C1371 C 0.74584 0.95394 0.85401 0.0
C1372 C 0.73209 0.97466 0.86922 0.0
C1373 C 0.75234 0.99016 0.8749 0.0
C1374 C 0.76939 0.98781 0.8689 0.0
C1375 C 0.76593 0.96968 0.8586 0.0
C1376 C 0.71345 0.97651 0.87541 0.0
C1377 C 0.79122 0.00411 0.87437 0.0
C1378 C 0.75515 0.03901 0.89124 0.0
C1379 C 0.75319 0.03769 0.91774 0.0
C1380 C 0.75622 0.02424 0.87698 0.0
C1381 C 0.75524 0.00778 0.88956 0.0
C1382 C 0.75457 0.00703 0.9164 0.0
C1383 C 0.7536 0.022 0.93014 0.0
C1384 C 0.7572 0.02567 0.84841 0.0
C1385 C 0.75355 0.98977 0.93058 0.0
H1386 H 0.71351 0.94472 0.85577 0.0
H1387 H 0.77893 0.96767 0.85457 0.0
H1388 H 0.71224 0.97738 0.89632 0.0
H1389 H 0.71506 0.99033 0.86737 0.0
H1390 H 0.69888 0.96374 0.86799 0.0
H1391 H 0.80276 0.00101 0.86554 0.0
H1392 H 0.79364 0.0185 0.86735 0.0
H1393 H 0.79405 0.0057 0.89519 0.0
H1394 H 0.75502 0.05116 0.88149 0.0
H1395 H 0.75234 0.02094 0.95062 0.0
H1396 H 0.74203 0.01468 0.84004 0.0
H1397 H 0.76881 0.02212 0.84101 0.0
H1398 H 0.76106 0.04066 0.84186 0.0
H1399 H 0.73862 0.97616 0.9263 0.0
H1400 H 0.75496 0.9923 0.95147 0.0
H1401 H 0.76598 0.98698 0.92433 0.0
C1402 C 0.12234 0.83822 0.87136 0.0
C1403 C 0.11653 0.85041 0.85867 0.0
C1404 C 0.10794 0.81854 0.87743 0.0
C1405 C 0.08708 0.81052 0.86985 0.0
C1406 C 0.08107 0.82247 0.85626 0.0
C1407 C 0.09578 0.84222 0.85101 0.0
C1408 C 0.11515 0.80643 0.89197 0.0
C1409 C 0.05906 0.81439 0.84731 0.0
C1410 C 0.05215 0.75493 0.86199 0.0
C1411 C 0.03925 0.75023 0.88315 0.0
C1412 C 0.06815 0.77435 0.85786 0.0
C1413 C 0.07156 0.78953 0.87543 0.0
C1414 C 0.05935 0.78477 0.89752 0.0
C1415 C 0.04325 0.76518 0.90107 0.0
C1416 C 0.08083 0.77877 0.8341 0.0
C1417 C 0.06295 0.8005 0.91703 0.0
H1418 H 0.13802 0.84412 0.87731 0.0
H1419 H 0.09091 0.8513 0.84092 0.0
H1420 H 0.10399 0.79759 0.90687 0.0
H1421 H 0.11637 0.79593 0.87875 0.0
H1422 H 0.1305 0.81591 0.90111 0.0
H1423 H 0.05692 0.82552 0.83668 0.0
H1424 H 0.05427 0.80122 0.83483 0.0
H1425 H 0.04861 0.80949 0.86381 0.0
H1426 H 0.04935 0.74353 0.84805 0.0
H1427 H 0.03348 0.76172 0.91751 0.0
H1428 H 0.09749 0.7863 0.83908 0.0
H1429 H 0.07838 0.78902 0.82195 0.0
H1430 H 0.0768 0.76517 0.82284 0.0
H1431 H 0.07941 0.8086 0.9231 0.0
H1432 H 0.05324 0.79418 0.93405 0.0
H1433 H 0.05943 0.81148 0.90851 0.0
C1434 C 0.40254 0.18016 0.70262 0.0
C1435 C 0.41657 0.19791 0.71504 0.0
C1436 C 0.40006 0.16197 0.71049 0.0
C1437 C 0.41203 0.1616 0.73117 0.0
C1438 C 0.42788 0.17967 0.7418 0.0
C1439 C 0.42996 0.1977 0.73359 0.0
C1440 C 0.38309 0.14312 0.69845 0.0
C1441 C 0.44124 0.17991 0.76355 0.0
C1442 C 0.38388 0.11942 0.77693 0.0
C1443 C 0.39124 0.10662 0.77043 0.0
C1444 C 0.39062 0.13731 0.76426 0.0
C1445 C 0.40527 0.1427 0.7447 0.0
C1446 C 0.4128 0.12988 0.73796 0.0
C1447 C 0.4056 0.11189 0.75084 0.0
C1448 C 0.38195 0.15043 0.7718 0.0
C1449 C 0.42854 0.13524 0.71735 0.0
H1450 H 0.39251 0.18041 0.68785 0.0
H1451 H 0.44086 0.21141 0.74315 0.0
H1452 H 0.38817 0.13211 0.69556 0.0
H1453 H 0.36966 0.13643 0.71129 0.0
H1454 H 0.37791 0.14592 0.67989 0.0
H1455 H 0.4552 0.19474 0.76625 0.0
H1456 H 0.43226 0.17602 0.78133 0.0
H1457 H 0.44611 0.16876 0.76043 0.0
H1458 H 0.37273 0.11543 0.79196 0.0
H1459 H 0.41144 0.10211 0.74582 0.0
H1460 H 0.37428 0.15282 0.75519 0.0
H1461 H 0.39461 0.16517 0.7782 0.0
H1462 H 0.37058 0.144 0.78732 0.0
H1463 H 0.42259 0.13781 0.69927 0.0
H1464 H 0.43261 0.12351 0.71412 0.0
H1465 H 0.44278 0.14928 0.72251 0.0
C1466 C 0.91597 0.26723 0.71154 0.0
C1467 C 0.89869 0.25942 0.69517 0.0
C1468 C 0.92827 0.28765 0.71614 0.0
C1469 C 0.9233 0.30098 0.7042 0.0
C1470 C 0.90561 0.29329 0.68801 0.0
C1471 C 0.89347 0.27256 0.68367 0.0
C1472 C 0.94676 0.29495 0.73378 0.0
C1473 C 0.89974 0.30697 0.67498 0.0
C1474 C 0.94806 0.34946 0.74133 0.0
C1475 C 0.96703 0.36045 0.72906 0.0
C1476 C 0.93277 0.33086 0.73196 0.0
C1477 C 0.9365 0.32277 0.70985 0.0
C1478 C 0.9549 0.33451 0.69617 0.0
C1479 C 0.96994 0.35327 0.70588 0.0
C1480 C 0.91339 0.31914 0.74711 0.0
C1481 C 0.95953 0.32658 0.67245 0.0
H1482 H 0.92014 0.25728 0.72071 0.0
H1483 H 0.8803 0.26672 0.67081 0.0
H1484 H 0.96101 0.30541 0.72369 0.0
H1485 H 0.94516 0.30313 0.75013 0.0
H1486 H 0.9487 0.28267 0.74125 0.0
H1487 H 0.88507 0.29871 0.66397 0.0
H1488 H 0.89814 0.31668 0.68918 0.0
H1489 H 0.91215 0.31676 0.66188 0.0
H1490 H 0.94553 0.35499 0.75909 0.0
H1491 H 0.98451 0.36163 0.69626 0.0
H1492 H 0.91436 0.3073 0.75757 0.0
H1493 H 0.89963 0.31184 0.73441 0.0
H1494 H 0.91117 0.32861 0.76113 0.0
H1495 H 0.96386 0.31536 0.67774 0.0
H1496 H 0.97243 0.33849 0.66169 0.0
H1497 H 0.9457 0.31913 0.65986 0.0
C1498 C 0.80174 0.68149 0.69244 0.0
C1499 C 0.80962 0.70174 0.68788 0.0
C1500 C 0.78099 0.66924 0.69955 0.0
C1501 C 0.76782 0.67739 0.70157 0.0
C1502 C 0.77583 0.69783 0.69696 0.0
C1503 C 0.79654 0.70968 0.69039 0.0
C1504 C 0.77313 0.64762 0.70475 0.0
C1505 C 0.7624 0.70722 0.69842 0.0
C1506 C 0.71056 0.65144 0.6894 0.0
C1507 C 0.70337 0.65317 0.71326 0.0
C1508 C 0.73133 0.65718 0.6858 0.0
C1509 C 0.7453 0.66478 0.70664 0.0
C1510 C 0.7376 0.66418 0.73136 0.0
C1511 C 0.71664 0.65841 0.73441 0.0
C1512 C 0.73866 0.65745 0.65911 0.0
C1513 C 0.75185 0.67162 0.75421 0.0
H1514 H 0.81182 0.6753 0.69076 0.0
H1515 H 0.80241 0.72528 0.68681 0.0
H1516 H 0.76496 0.64344 0.72312 0.0
H1517 H 0.76186 0.63834 0.68975 0.0
H1518 H 0.78578 0.64408 0.70528 0.0
H1519 H 0.77109 0.72336 0.69453 0.0
H1520 H 0.74949 0.69997 0.68445 0.0
H1521 H 0.75559 0.70508 0.71756 0.0
H1522 H 0.70027 0.64709 0.67302 0.0
H1523 H 0.71118 0.6597 0.75293 0.0
H1524 H 0.75011 0.65241 0.65867 0.0
H1525 H 0.74631 0.67287 0.65199 0.0
H1526 H 0.7257 0.64793 0.64594 0.0
H1527 H 0.76374 0.66712 0.75306 0.0
H1528 H 0.74325 0.66601 0.77217 0.0
H1529 H 0.75994 0.68806 0.75484 0.0
C1530 C 0.78923 0.72242 0.11123 0.0
C1531 C 0.8094 0.73203 0.12139 0.0
C1532 C 0.77814 0.73237 0.10782 0.0
C1533 C 0.78745 0.75277 0.11416 0.0
C1534 C 0.80825 0.76296 0.12303 0.0
C1535 C 0.81892 0.75243 0.12687 0.0
C1536 C 0.75593 0.72063 0.09882 0.0
C1537 C 0.81903 0.78482 0.1293 0.0
C1538 C 0.75328 0.77343 0.09158 0.0
C1539 C 0.74129 0.77053 0.11319 0.0
C1540 C 0.76981 0.7695 0.09212 0.0
C1541 C 0.77421 0.76223 0.11462 0.0
C1542 C 0.76313 0.76079 0.13688 0.0
C1543 C 0.74707 0.76512 0.13593 0.0
C1544 C 0.78172 0.77195 0.06819 0.0
C1545 C 0.76694 0.75297 0.1613 0.0
H1546 H 0.7816 0.70671 0.10673 0.0
H1547 H 0.83453 0.76009 0.13449 0.0
H1548 H 0.74564 0.72037 0.11404 0.0
H1549 H 0.75341 0.72774 0.08207 0.0
H1550 H 0.75125 0.70508 0.09361 0.0
H1551 H 0.83605 0.79141 0.13014 0.0
H1552 H 0.81509 0.79289 0.11506 0.0
H1553 H 0.81389 0.7871 0.14808 0.0
H1554 H 0.74914 0.77777 0.07397 0.0
H1555 H 0.73826 0.7632 0.15296 0.0
H1556 H 0.77619 0.75723 0.05909 0.0
H1557 H 0.7984 0.77838 0.07258 0.0
H1558 H 0.77972 0.78159 0.05436 0.0
H1559 H 0.76209 0.73706 0.15874 0.0
H1560 H 0.75832 0.75439 0.17747 0.0
H1561 H 0.78359 0.76096 0.16631 0.0
C1562 C 0.37765 0.13567 0.15337 0.0
C1563 C 0.36756 0.14338 0.16781 0.0
C1564 C 0.36868 0.1152 0.14884 0.0
C1565 C 0.34906 0.102 0.15892 0.0
C1566 C 0.33894 0.1096 0.17394 0.0
C1567 C 0.3483 0.13018 0.1782 0.0
C1568 C 0.38001 0.10775 0.13264 0.0
C1569 C 0.31805 0.09603 0.18507 0.0
C1570 C 0.32062 0.05481 0.11964 0.0
C1571 C 0.32537 0.04194 0.13273 0.0
C1572 C 0.32702 0.07395 0.12893 0.0
C1573 C 0.33863 0.08052 0.15184 0.0
C1574 C 0.34213 0.06708 0.16616 0.0
C1575 C 0.33536 0.04785 0.15646 0.0
C1576 C 0.32266 0.08762 0.1132 0.0
C1577 C 0.35433 0.07346 0.19075 0.0
H1578 H 0.3924 0.14569 0.14507 0.0
H1579 H 0.34054 0.13591 0.1898 0.0
H1580 H 0.38152 0.0961 0.14279 0.0
H1581 H 0.37107 0.10094 0.11488 0.0
H1582 H 0.39565 0.11978 0.1275 0.0
H1583 H 0.31291 0.10407 0.19787 0.0
H1584 H 0.30644 0.08888 0.16955 0.0
H1585 H 0.31838 0.08402 0.19588 0.0
H1586 H 0.31272 0.05023 0.10139 0.0
H1587 H 0.33915 0.038 0.16659 0.0
H1588 H 0.33723 0.09931 0.10487 0.0
H1589 H 0.31647 0.09513 0.12523 0.0
H1590 H 0.31148 0.07961 0.09747 0.0
H1591 H 0.37085 0.0836 0.1866 0.0
H1592 H 0.35297 0.06063 0.20145 0.0
H1593 H 0.34913 0.08173 0.20297 0.0
C1594 C 0.90475 0.24632 0.16785 0.0
C1595 C 0.88992 0.24695 0.1521 0.0
C1596 C 0.9259 0.25856 0.16303 0.0
C1597 C 0.93211 0.27169 0.14222 0.0
C1598 C 0.9171 0.27041 0.12462 0.0
C1599 C 0.89619 0.25803 0.12978 0.0
C1600 C 0.9415 0.25892 0.18163 0.0
C1601 C 0.92294 0.2839 0.10199 0.0
C1602 C 0.97421 0.32476 0.15259 0.0
C1603 C 0.98986 0.32629 0.13666 0.0
C1604 C 0.95583 0.30682 0.15537 0.0
C1605 C 0.95295 0.28971 0.14217 0.0
C1606 C 0.96907 0.29079 0.12711 0.0
C1607 C 0.98731 0.30917 0.12429 0.0
C1608 C 0.93905 0.3065 0.17152 0.0
C1609 C 0.96685 0.27281 0.11322 0.0
H1610 H 0.89995 0.23757 0.18497 0.0
H1611 H 0.8847 0.25816 0.11722 0.0
H1612 H 0.95543 0.261 0.17166 0.0
H1613 H 0.9464 0.27155 0.19511 0.0
H1614 H 0.93495 0.24504 0.19275 0.0
H1615 H 0.90988 0.2791 0.08831 0.0
H1616 H 0.92779 0.2992 0.10859 0.0
H1617 H 0.93612 0.28439 0.09193 0.0
H1618 H 0.97601 0.33782 0.16241 0.0
H1619 H 0.99939 0.31015 0.11214 0.0
H1620 H 0.93424 0.29496 0.18623 0.0
H1621 H 0.92531 0.30276 0.15949 0.0
H1622 H 0.94404 0.32097 0.18115 0.0
H1623 H 0.95786 0.25914 0.1244 0.0
H1624 H 0.98214 0.27449 0.10891 0.0
H1625 H 0.95853 0.27088 0.09496 0.0
C1626 C 0.37639 0.31306 0.65952 0.0
C1627 C 0.36564 0.29377 0.66907 0.0
C1628 C 0.36587 0.32174 0.64812 0.0
C1629 C 0.34408 0.31081 0.64606 0.0
C1630 C 0.33311 0.2914 0.65576 0.0
C1631 C 0.344 0.28317 0.66727 0.0
C1632 C 0.37808 0.34256 0.63809 0.0
C1633 C 0.30987 0.27928 0.65384 0.0
C1634 C 0.31714 0.34047 0.63528 0.0
C1635 C 0.31482 0.33941 0.60875 0.0
C1636 C 0.32618 0.3308 0.64779 0.0
C1637 C 0.33283 0.31965 0.63343 0.0
C1638 C 0.32952 0.31766 0.60682 0.0
C1639 C 0.32064 0.32763 0.59478 0.0
C1640 C 0.32949 0.33329 0.67621 0.0
C1641 C 0.33608 0.30559 0.59095 0.0
H1642 H 0.39307 0.32129 0.66059 0.0
H1643 H 0.33545 0.26845 0.67506 0.0
H1644 H 0.37548 0.34246 0.61731 0.0
H1645 H 0.37276 0.35215 0.64697 0.0
H1646 H 0.3949 0.34926 0.64182 0.0
H1647 H 0.30365 0.26436 0.66229 0.0
H1648 H 0.30292 0.28714 0.66363 0.0
H1649 H 0.30486 0.27742 0.63363 0.0
H1650 H 0.31274 0.34957 0.64621 0.0
H1651 H 0.31878 0.32664 0.57429 0.0
H1652 H 0.34626 0.34168 0.68064 0.0
H1653 H 0.32311 0.31862 0.68533 0.0
H1654 H 0.32221 0.34133 0.68478 0.0
H1655 H 0.35312 0.31257 0.59166 0.0
H1656 H 0.33107 0.30436 0.57078 0.0
H1657 H 0.3296 0.29045 0.59871 0.0
C1658 C 0.81808 0.12999 0.63345 0.0
C1659 C 0.81633 0.14623 0.64202 0.0
C1660 C 0.80073 0.11192 0.62622 0.0
C1661 C 0.78084 0.10973 0.62755 0.0
C1662 C 0.77884 0.12602 0.63616 0.0
C1663 C 0.79662 0.14412 0.6432 0.0
C1664 C 0.80378 0.0952 0.61683 0.0
C1665 C 0.75792 0.1243 0.63791 0.0
C1666 C 0.74113 0.0703 0.58274 0.0
C1667 C 0.73058 0.05378 0.59856 0.0
C1668 C 0.75691 0.08863 0.59214 0.0
C1669 C 0.76252 0.09079 0.61817 0.0
C1670 C 0.75183 0.07432 0.63443 0.0
C1671 C 0.73603 0.056 0.62445 0.0
C1672 C 0.76795 0.10558 0.57395 0.0
C1673 C 0.75729 0.07599 0.66232 0.0
H1674 H 0.83318 0.13137 0.63233 0.0
H1675 H 0.79506 0.15646 0.65001 0.0
H1676 H 0.79463 0.08177 0.62835 0.0
H1677 H 0.79818 0.09131 0.59689 0.0
H1678 H 0.82021 0.09906 0.61766 0.0
H1679 H 0.75882 0.13795 0.6459 0.0
H1680 H 0.75059 0.12135 0.61878 0.0
H1681 H 0.74773 0.11157 0.65 0.0
H1682 H 0.73716 0.06893 0.56271 0.0
H1683 H 0.72794 0.04347 0.63691 0.0
H1684 H 0.78437 0.1096 0.57268 0.0
H1685 H 0.76766 0.11888 0.58101 0.0
H1686 H 0.761 0.10186 0.55455 0.0
H1687 H 0.77323 0.07869 0.66472 0.0
H1688 H 0.74664 0.06238 0.6728 0.0
H1689 H 0.75692 0.08883 0.67099 0.0
C1690 C 0.92463 0.72025 0.63061 0.0
C1691 C 0.92571 0.73842 0.63585 0.0
C1692 C 0.94244 0.71951 0.62396 0.0
C1693 C 0.96176 0.73731 0.62299 0.0
C1694 C 0.96276 0.75568 0.62758 0.0
C1695 C 0.94477 0.75601 0.63373 0.0
C1696 C 0.94071 0.69965 0.61877 0.0
C1697 C 0.98303 0.775 0.62726 0.0
C1698 C 0.01052 0.73617 0.63953 0.0
C1699 C 0.02009 0.73911 0.6159 0.0
C1700 C 0.99143 0.7352 0.64192 0.0
C1701 C 0.9813 0.73682 0.62004 0.0
C1702 C 0.99066 0.73945 0.59598 0.0
C1703 C 0.01011 0.74081 0.59422 0.0
C1704 C 0.98234 0.73293 0.66804 0.0
C1705 C 0.98016 0.74089 0.57218 0.0
H1706 H 0.90996 0.70662 0.63199 0.0
H1707 H 0.94586 0.77017 0.63768 0.0
H1708 H 0.94874 0.70012 0.60096 0.0
H1709 H 0.94832 0.69611 0.63439 0.0
H1710 H 0.9244 0.68753 0.61716 0.0
H1711 H 0.98099 0.7881 0.62967 0.0
H1712 H 0.9932 0.7752 0.64285 0.0
H1713 H 0.9911 0.77646 0.60917 0.0
H1714 H 0.01818 0.73495 0.65642 0.0
H1715 H 0.01733 0.74286 0.57588 0.0
H1716 H 0.96673 0.71963 0.66847 0.0
H1717 H 0.98067 0.74598 0.67264 0.0
H1718 H 0.99202 0.73153 0.68307 0.0
H1719 H 0.96431 0.72796 0.57062 0.0
H1720 H 0.98873 0.74151 0.55478 0.0
H1721 H 0.97873 0.75438 0.57312 0.0
C1722 C 0.9038 0.70991 0.18766 0.0
C1723 C 0.8838 0.69345 0.1865 0.0
C1724 C 0.9206 0.70797 0.19642 0.0
C1725 C 0.91732 0.68915 0.20408 0.0
C1726 C 0.89698 0.67285 0.20437 0.0
C1727 C 0.88058 0.67522 0.19572 0.0
C1728 C 0.94201 0.72582 0.19617 0.0
C1729 C 0.89262 0.65249 0.21217 0.0
C1730 C 0.9601 0.67749 0.19134 0.0
C1731 C 0.96861 0.67881 0.2156 0.0
C1732 C 0.94343 0.68068 0.18751 0.0
C1733 C 0.93512 0.68574 0.20843 0.0
C1734 C 0.94336 0.68673 0.23315 0.0
C1735 C 0.95994 0.68309 0.23649 0.0
C1736 C 0.93489 0.67891 0.16091 0.0
C1737 C 0.93513 0.69227 0.2559 0.0
H1738 H 0.90647 0.72405 0.18068 0.0
H1739 H 0.86517 0.66241 0.19531 0.0
H1740 H 0.9503 0.72702 0.21425 0.0
H1741 H 0.95091 0.72411 0.1806 0.0
H1742 H 0.94174 0.7398 0.19326 0.0
H1743 H 0.87584 0.64189 0.21398 0.0
H1744 H 0.89889 0.64653 0.19776 0.0
H1745 H 0.90036 0.65329 0.23054 0.0
H1746 H 0.96682 0.67429 0.17511 0.0
H1747 H 0.96675 0.68456 0.25519 0.0
H1748 H 0.93652 0.69328 0.15512 0.0
H1749 H 0.91819 0.66775 0.16035 0.0
H1750 H 0.94282 0.67448 0.14679 0.0
H1751 H 0.93769 0.70749 0.25359 0.0
H1752 H 0.94264 0.69173 0.27391 0.0
H1753 H 0.91825 0.68216 0.25733 0.0
C1754 C 0.41442 0.29859 0.19053 0.0
C1755 C 0.42386 0.29091 0.2064 0.0
C1756 C 0.41424 0.31598 0.19715 0.0
C1757 C 0.42414 0.3262 0.2199 0.0
C1758 C 0.43568 0.31982 0.23443 0.0
C1759 C 0.43532 0.30219 0.2276 0.0
C1760 C 0.40179 0.32227 0.18102 0.0
C1761 C 0.44686 0.33056 0.25854 0.0
C1762 C 0.42749 0.37524 0.238 0.0
C1763 C 0.4113 0.36883 0.25529 0.0
C1764 C 0.43178 0.36156 0.22587 0.0
C1765 C 0.41936 0.34107 0.23091 0.0
C1766 C 0.4025 0.33454 0.24757 0.0
C1767 C 0.39881 0.34849 0.25968 0.0
C1768 C 0.45001 0.36907 0.20846 0.0
C1769 C 0.38858 0.3128 0.25312 0.0
H1770 H 0.40613 0.29039 0.17363 0.0
H1771 H 0.44283 0.29663 0.23997 0.0
H1772 H 0.38706 0.31809 0.19062 0.0
H1773 H 0.41011 0.33858 0.17865 0.0
H1774 H 0.39813 0.31503 0.16195 0.0
H1775 H 0.45793 0.32592 0.26512 0.0
H1776 H 0.45534 0.34683 0.25576 0.0
H1777 H 0.43547 0.32729 0.27375 0.0
H1778 H 0.43723 0.39097 0.23464 0.0
H1779 H 0.38613 0.34344 0.2728 0.0
H1780 H 0.44546 0.36067 0.19022 0.0
H1781 H 0.46209 0.36673 0.21737 0.0
H1782 H 0.45679 0.38511 0.20444 0.0
H1783 H 0.38229 0.30426 0.23514 0.0
H1784 H 0.37548 0.31014 0.2654 0.0
H1785 H 0.39756 0.30688 0.26277 0.0
C1786 C 0.76419 0.17337 0.22848 0.0
C1787 C 0.78438 0.17669 0.22728 0.0
C1788 C 0.74807 0.15555 0.23757 0.0
C1789 C 0.75224 0.14075 0.24629 0.0
C1790 C 0.77275 0.14433 0.24628 0.0
C1791 C 0.7886 0.1622 0.2364 0.0
C1792 C 0.72638 0.15224 0.23669 0.0
C1793 C 0.77785 0.12911 0.2561 0.0
C1794 C 0.70633 0.10084 0.28134 0.0
C1795 C 0.69597 0.08703 0.26168 0.0
C1796 C 0.72573 0.1177 0.27732 0.0
C1797 C 0.73464 0.121 0.25294 0.0
C1798 C 0.72479 0.10651 0.23353 0.0
C1799 C 0.70573 0.08964 0.23823 0.0
C1800 C 0.73608 0.13253 0.29871 0.0
C1801 C 0.73351 0.10956 0.2071 0.0
H1802 H 0.76076 0.18446 0.22142 0.0
H1803 H 0.80422 0.16479 0.23573 0.0
H1804 H 0.71661 0.13956 0.22379 0.0
H1805 H 0.71945 0.14844 0.2558 0.0
H1806 H 0.72586 0.16547 0.22994 0.0
H1807 H 0.79475 0.13524 0.25825 0.0
H1808 H 0.77049 0.12347 0.27472 0.0
H1809 H 0.77166 0.11628 0.24275 0.0
H1810 H 0.69903 0.09881 0.29962 0.0
H1811 H 0.69795 0.07902 0.22291 0.0
H1812 H 0.73416 0.14558 0.29551 0.0
H1813 H 0.75287 0.13788 0.29937 0.0
H1814 H 0.72938 0.12615 0.31741 0.0
H1815 H 0.7326 0.12192 0.198 0.0
H1816 H 0.72502 0.0961 0.19488 0.0
H1817 H 0.74999 0.11374 0.20788 0.0
C1818 C 0.04765 0.51304 0.90258 0.0
C1819 C 0.04371 0.52873 0.90001 0.0
C1820 C 0.04454 0.5001 0.88214 0.0
C1821 C 0.0369 0.50265 0.8586 0.0
C1822 C 0.03345 0.51884 0.85566 0.0
C1823 C 0.03705 0.53178 0.87634 0.0
C1824 C 0.04878 0.48327 0.88605 0.0
C1825 C 0.02498 0.52193 0.83108 0.0
C1826 C 0.04028 0.47325 0.80238 0.0
C1827 C 0.02129 0.45559 0.80381 0.0
C1828 C 0.04536 0.48912 0.81944 0.0
C1829 C 0.03094 0.48738 0.83798 0.0
C1830 C 0.01121 0.47009 0.83823 0.0
C1831 C 0.00673 0.45436 0.82138 0.0
C1832 C 0.06663 0.50717 0.81869 0.0
C1833 C 0.99516 0.46774 0.85722 0.0
H1834 H 0.05296 0.51077 0.92078 0.0
H1835 H 0.03373 0.54374 0.87434 0.0
H1836 H 0.03407 0.46892 0.88513 0.0
H1837 H 0.05873 0.48304 0.87072 0.0
H1838 H 0.05641 0.48438 0.90466 0.0
H1839 H 0.02495 0.53617 0.83104 0.0
H1840 H 0.03414 0.52166 0.81479 0.0
H1841 H 0.00893 0.50963 0.82804 0.0
H1842 H 0.05167 0.4742 0.78903 0.0
H1843 H 0.992 0.44076 0.8225 0.0
H1844 H 0.07559 0.50744 0.83574 0.0
H1845 H 0.06569 0.52093 0.81919 0.0
H1846 H 0.07518 0.50726 0.80151 0.0
H1847 H 1.00023 0.46635 0.87657 0.0
H1848 H 0.9799 0.45444 0.85311 0.0
H1849 H 0.99334 0.48103 0.85731 0.0
C1850 C 0.54512 0.5748 0.89273 0.0
C1851 C 0.55358 0.5771 0.91729 0.0
C1852 C 0.5577 0.58179 0.87123 0.0
C1853 C 0.57941 0.59125 0.87412 0.0
C1854 C 0.58811 0.59334 0.89875 0.0
C1855 C 0.57513 0.5863 0.92 0.0
C1856 C 0.5477 0.57919 0.84539 0.0
C1857 C 0.61116 0.60325 0.90271 0.0
C1858 C 0.60927 0.59394 0.81437 0.0
C1859 C 0.61575 0.61321 0.80585 0.0
C1860 C 0.59802 0.58682 0.83692 0.0
C1861 C 0.5929 0.59916 0.8513 0.0
C1862 C 0.59976 0.61876 0.84309 0.0
C1863 C 0.61114 0.62556 0.8206 0.0
C1864 C 0.59121 0.56591 0.84505 0.0
C1865 C 0.59457 0.63241 0.85769 0.0
H1866 H 0.52855 0.56742 0.89019 0.0
H1867 H 0.58195 0.58838 0.93878 0.0
H1868 H 0.55325 0.59388 0.83661 0.0
H1869 H 0.55213 0.57056 0.83268 0.0
H1870 H 0.53061 0.57146 0.84631 0.0
H1871 H 0.6155 0.60312 0.9229 0.0
H1872 H 0.61749 0.5957 0.891 0.0
H1873 H 0.61857 0.61886 0.8964 0.0
H1874 H 0.6128 0.58427 0.80326 0.0
H1875 H 0.61602 0.64045 0.81426 0.0
H1876 H 0.57413 0.5569 0.84441 0.0
H1877 H 0.5962 0.56591 0.86495 0.0
H1878 H 0.59752 0.55862 0.83273 0.0
H1879 H 0.57761 0.62611 0.85767 0.0
H1880 H 0.60183 0.64749 0.8495 0.0
H1881 H 0.5997 0.63369 0.87778 0.0
C1882 C 0.49518 0.08591 0.93704 0.0
C1883 C 0.49328 0.07065 0.95277 0.0
C1884 C 0.47964 0.08269 0.91943 0.0
C1885 C 0.46171 0.06375 0.91757 0.0
C1886 C 0.45956 0.04831 0.93354 0.0
C1887 C 0.47539 0.05195 0.95094 0.0
C1888 C 0.48241 0.09956 0.90281 0.0
C1889 C 0.44064 0.02793 0.9321 0.0
C1890 C 0.41449 0.06205 0.88828 0.0
C1891 C 0.41515 0.05632 0.86313 0.0
C1892 C 0.42928 0.06406 0.90634 0.0
C1893 C 0.44513 0.06026 0.89909 0.0
C1894 C 0.44561 0.05398 0.87395 0.0
C1895 C 0.43059 0.05208 0.85623 0.0
C1896 C 0.42824 0.07073 0.93302 0.0
C1897 C 0.46228 0.04975 0.8656 0.0
H1898 H 0.50882 0.10045 0.93859 0.0
H1899 H 0.47393 0.03998 0.96272 0.0
H1900 H 0.48164 0.09533 0.88251 0.0
H1901 H 0.46972 0.10275 0.90605 0.0
H1902 H 0.49734 0.11335 0.90652 0.0
H1903 H 0.44121 0.01764 0.94616 0.0
H1904 H 0.4266 0.02896 0.93548 0.0
H1905 H 0.43906 0.02148 0.9128 0.0
H1906 H 0.40256 0.06527 0.89384 0.0
H1907 H 0.43119 0.0476 0.83687 0.0
H1908 H 0.44217 0.08528 0.93721 0.0
H1909 H 0.42804 0.06003 0.94697 0.0
H1910 H 0.41438 0.0722 0.93589 0.0
H1911 H 0.47753 0.06351 0.86706 0.0
H1912 H 0.45989 0.04406 0.84574 0.0
H1913 H 0.46283 0.0387 0.87828 0.0
C1914 C 0.49234 0.07988 0.64701 0.0
C1915 C 0.49024 0.06549 0.62919 0.0
C1916 C 0.47691 0.07578 0.66488 0.0
C1917 C 0.45893 0.0568 0.66505 0.0
C1918 C 0.45682 0.04213 0.64733 0.0
C1919 C 0.47246 0.04665 0.62962 0.0
C1920 C 0.47971 0.09189 0.68334 0.0
C1921 C 0.43797 0.02168 0.64696 0.0
C1922 C 0.42704 0.04231 0.7253 0.0
C1923 C 0.41153 0.04671 0.71897 0.0
C1924 C 0.44231 0.0451 0.70777 0.0
C1925 C 0.44212 0.05251 0.68333 0.0
C1926 C 0.42617 0.05643 0.6766 0.0
C1927 C 0.41108 0.05346 0.69444 0.0
C1928 C 0.45897 0.04062 0.71563 0.0
C1929 C 0.42536 0.06431 0.65074 0.0
H1930 H 0.50589 0.09451 0.64666 0.0
H1931 H 0.47083 0.03533 0.61624 0.0
H1932 H 0.46719 0.0954 0.68049 0.0
H1933 H 0.47864 0.08669 0.70313 0.0
H1934 H 0.49477 0.10571 0.68113 0.0
H1935 H 0.43889 0.01179 0.63237 0.0
H1936 H 0.436 0.01474 0.66582 0.0
H1937 H 0.42398 0.02275 0.64306 0.0
H1938 H 0.42755 0.0371 0.74418 0.0
H1939 H 0.3992 0.05691 0.68931 0.0
H1940 H 0.47417 0.05448 0.71576 0.0
H1941 H 0.45981 0.03029 0.70173 0.0
H1942 H 0.45634 0.03396 0.73478 0.0
H1943 H 0.43931 0.07903 0.64812 0.0
H1944 H 0.41152 0.06588 0.64811 0.0
H1945 H 0.42532 0.0543 0.63564 0.0
C1946 C 0.03094 0.4935 0.5715 0.0
C1947 C 0.05019 0.5057 0.56029 0.0
C1948 C 0.02883 0.48136 0.59229 0.0
C1949 C 0.04633 0.48112 0.60229 0.0
C1950 C 0.06579 0.49326 0.59107 0.0
C1951 C 0.06749 0.50539 0.57037 0.0
C1952 C 0.00775 0.46868 0.60351 0.0
C1953 C 0.08485 0.4934 0.6009 0.0
C1954 C 0.04349 0.46237 0.67011 0.0
C1955 C 0.0381 0.4425 0.66594 0.0
C1956 C 0.04642 0.47511 0.64966 0.0
C1957 C 0.04417 0.468 0.62429 0.0
C1958 C 0.03926 0.44811 0.61998 0.0
C1959 C 0.03618 0.43563 0.64075 0.0
C1960 C 0.05141 0.4961 0.65524 0.0
C1961 C 0.03695 0.43989 0.59335 0.0
H1962 H 0.01733 0.49319 0.56388 0.0
H1963 H 0.08249 0.51478 0.56225 0.0
H1964 H 0.00304 0.45278 0.60141 0.0
H1965 H 0.00822 0.47192 0.62413 0.0
H1966 H 0.99582 0.4711 0.59427 0.0
H1967 H 0.09881 0.50349 0.59001 0.0
H1968 H 0.08759 0.49812 0.62115 0.0
H1969 H 0.08259 0.47821 0.59988 0.0
H1970 H 0.04492 0.46786 0.68941 0.0
H1971 H 0.0321 0.42036 0.6372 0.0
H1972 H 0.03895 0.49842 0.64754 0.0
H1973 H 0.06587 0.50675 0.64569 0.0
H1974 H 0.0532 0.49958 0.67591 0.0
H1975 H 0.02402 0.4402 0.58333 0.0
H1976 H 0.03394 0.4244 0.59312 0.0
H1977 H 0.05113 0.44926 0.58245 0.0
C1978 C 0.53075 0.56288 0.58968 0.0
C1979 C 0.54249 0.56538 0.5679 0.0
C1980 C 0.5403 0.57042 0.61346 0.0
C1981 C 0.56209 0.58074 0.61549 0.0
C1982 C 0.57388 0.5818 0.59403 0.0
C1983 C 0.56395 0.5741 0.57054 0.0
C1984 C 0.52713 0.56866 0.6359 0.0
C1985 C 0.59715 0.5925 0.59535 0.0
C1986 C 0.59109 0.62633 0.65732 0.0
C1987 C 0.59978 0.61984 0.67592 0.0
C1988 C 0.57762 0.61334 0.63863 0.0
C1989 C 0.57276 0.59328 0.63835 0.0
C1990 C 0.58015 0.58623 0.65829 0.0
C1991 C 0.59361 0.59964 0.67697 0.0
C1992 C 0.56989 0.62151 0.61803 0.0
C1993 C 0.57513 0.56492 0.65888 0.0
H1994 H 0.51412 0.55598 0.58796 0.0
H1995 H 0.57316 0.5759 0.55395 0.0
H1996 H 0.53295 0.56513 0.65339 0.0
H1997 H 0.52779 0.58305 0.63923 0.0
H1998 H 0.51075 0.55708 0.63269 0.0
H1999 H 0.6039 0.58993 0.57802 0.0
H2000 H 0.6032 0.60868 0.59751 0.0
H2001 H 0.60249 0.58766 0.61211 0.0
H2002 H 0.59572 0.64193 0.6566 0.0
H2003 H 0.60041 0.5946 0.69123 0.0
H2004 H 0.55296 0.61206 0.61544 0.0
H2005 H 0.57713 0.62148 0.59974 0.0
H2006 H 0.57352 0.63693 0.6223 0.0
H2007 H 0.55869 0.55473 0.65378 0.0
H2008 H 0.57839 0.56088 0.67785 0.0
H2009 H 0.58463 0.56262 0.6447 0.0
C2010 C 0.02617 0.58097 0.08526 0.0
C2011 C 0.0455 0.58369 0.07835 0.0
C2012 C 0.02415 0.5915 0.10575 0.0
C2013 C 0.04185 0.60503 0.12 0.0
C2014 C 0.06124 0.60709 0.11403 0.0
C2015 C 0.06285 0.59649 0.09326 0.0
C2016 C 0.00318 0.58887 0.11132 0.0
C2017 C 0.08048 0.62125 0.12881 0.0
C2018 C 0.04095 0.64983 0.14713 0.0
C2019 C 0.03598 0.64481 0.17272 0.0
C2020 C 0.04311 0.63713 0.13009 0.0
C2021 C 0.04045 0.61884 0.13868 0.0
C2022 C 0.03582 0.61373 0.16457 0.0
C2023 C 0.03353 0.62674 0.1813 0.0
C2024 C 0.04787 0.64318 0.10266 0.0
C2025 C 0.03309 0.59445 0.1745 0.0
H2026 H 0.01253 0.57076 0.07447 0.0
H2027 H 0.07786 0.59879 0.08821 0.0
H2028 H 0.99974 0.58606 0.1318 0.0
H2029 H 0.00308 0.6027 0.10669 0.0
H2030 H 0.99068 0.57645 0.10015 0.0
H2031 H 0.09374 0.61921 0.12414 0.0
H2032 H 0.08472 0.63674 0.12443 0.0
H2033 H 0.07771 0.61926 0.14952 0.0
H2034 H 0.04288 0.66371 0.14013 0.0
H2035 H 0.02975 0.62272 0.20099 0.0
H2036 H 0.03524 0.6322 0.09017 0.0
H2037 H 0.06223 0.64341 0.09705 0.0
H2038 H 0.04978 0.65805 0.09909 0.0
H2039 H 0.01968 0.58181 0.16486 0.0
H2040 H 0.03058 0.59309 0.19532 0.0
H2041 H 0.04687 0.5932 0.17016 0.0
C2042 C 0.50825 0.51478 0.12821 0.0
C2043 C 0.50119 0.52302 0.10979 0.0
C2044 C 0.49608 0.50445 0.14901 0.0
C2045 C 0.47623 0.50221 0.15163 0.0
C2046 C 0.46878 0.51015 0.13288 0.0
C2047 C 0.48132 0.5204 0.11217 0.0
C2048 C 0.5046 0.4961 0.16835 0.0
C2049 C 0.44773 0.50811 0.13497 0.0
C2050 C 0.44014 0.46132 0.19621 0.0
C2051 C 0.44293 0.47188 0.21903 0.0
C2052 C 0.4503 0.47106 0.17392 0.0
C2053 C 0.46359 0.49189 0.17434 0.0
C2054 C 0.46592 0.5027 0.19707 0.0
C2055 C 0.45561 0.49259 0.2191 0.0
C2056 C 0.44736 0.45894 0.15013 0.0
C2057 C 0.47987 0.52492 0.19838 0.0
H2058 H 0.52337 0.51632 0.12633 0.0
H2059 H 0.47577 0.5268 0.09816 0.0
H2060 H 0.50566 0.50294 0.18726 0.0
H2061 H 0.49406 0.47989 0.17014 0.0
H2062 H 0.52014 0.49874 0.1633 0.0
H2063 H 0.44388 0.51446 0.11839 0.0
H2064 H 0.43577 0.49226 0.13655 0.0
H2065 H 0.44706 0.51577 0.15247 0.0
H2066 H 0.43035 0.44533 0.19586 0.0
H2067 H 0.45784 0.50094 0.23653 0.0
H2068 H 0.46211 0.4597 0.14523 0.0
H2069 H 0.44291 0.4651 0.13391 0.0
H2070 H 0.43538 0.44313 0.15235 0.0
H2071 H 0.49609 0.52868 0.19553 0.0
H2072 H 0.47892 0.53132 0.21688 0.0
H2073 H 0.47584 0.53207 0.18296 0.0
C2074 C 0.58281 0.08947 0.12233 0.0
C2075 C 0.56385 0.08865 0.11936 0.0
C2076 C 0.58905 0.08598 0.14592 0.0
C2077 C 0.57573 0.08112 0.16691 0.0
C2078 C 0.55714 0.08159 0.16441 0.0
C2079 C 0.55146 0.0855 0.14058 0.0
C2080 C 0.60921 0.08602 0.14784 0.0
C2081 C 0.54248 0.0764 0.18624 0.0
C2082 C 0.58237 0.04524 0.20783 0.0
C2083 C 0.59624 0.05792 0.22643 0.0
C2084 C 0.57395 0.05231 0.18969 0.0
C2085 C 0.57999 0.07269 0.18985 0.0
C2086 C 0.59266 0.08521 0.20987 0.0
C2087 C 0.60054 0.07759 0.22816 0.0
C2088 C 0.56005 0.03831 0.16906 0.0
C2089 C 0.59942 0.10699 0.21069 0.0
H2090 H 0.59236 0.09205 0.10583 0.0
H2091 H 0.53668 0.08471 0.13813 0.0
H2092 H 0.61811 0.0945 0.16491 0.0
H2093 H 0.60606 0.07057 0.1498 0.0
H2094 H 0.61889 0.09253 0.13083 0.0
H2095 H 0.531 0.08124 0.18284 0.0
H2096 H 0.53402 0.06009 0.18872 0.0
H2097 H 0.55095 0.08323 0.20425 0.0
H2098 H 0.57892 0.02997 0.20668 0.0
H2099 H 0.61137 0.08742 0.24252 0.0
H2100 H 0.5686 0.04174 0.15097 0.0
H2101 H 0.54646 0.04018 0.16593 0.0
H2102 H 0.55455 0.02256 0.17367 0.0
H2103 H 0.61167 0.11486 0.1965 0.0
H2104 H 0.60568 0.1137 0.2297 0.0
H2105 H 0.58644 0.10943 0.20572 0.0
C2106 C 0.58577 0.0685 0.47267 0.0
C2107 C 0.58633 0.08638 0.47852 0.0
C2108 C 0.59568 0.06667 0.45122 0.0
C2109 C 0.60655 0.08314 0.43517 0.0
C2110 C 0.60792 0.10147 0.44151 0.0
C2111 C 0.59779 0.10287 0.46312 0.0
C2112 C 0.59392 0.04687 0.44527 0.0
C2113 C 0.61946 0.1194 0.42497 0.0
C2114 C 0.64283 0.07982 0.38768 0.0
C2115 C 0.63041 0.07322 0.36564 0.0
C2116 C 0.63551 0.08365 0.4103 0.0
C2117 C 0.61526 0.0807 0.41095 0.0
C2118 C 0.60283 0.07445 0.38863 0.0
C2119 C 0.61057 0.07085 0.36628 0.0
C2120 C 0.64927 0.09044 0.43366 0.0
C2121 C 0.58113 0.07105 0.38851 0.0
H2122 H 0.57735 0.05582 0.48479 0.0
H2123 H 0.59822 0.11669 0.46743 0.0
H2124 H 0.58515 0.04079 0.42722 0.0
H2125 H 0.60944 0.04868 0.44261 0.0
H2126 H 0.58599 0.03589 0.46048 0.0
H2127 H 0.62059 0.13296 0.43364 0.0
H2128 H 0.63525 0.12217 0.42138 0.0
H2129 H 0.61147 0.11664 0.40628 0.0
H2130 H 0.6582 0.08178 0.38737 0.0
H2131 H 0.60084 0.06579 0.34938 0.0
H2132 H 0.64244 0.07901 0.44856 0.0
H2133 H 0.65047 0.10424 0.44152 0.0
H2134 H 0.66503 0.09322 0.42964 0.0
H2135 H 0.57153 0.05901 0.40182 0.0
H2136 H 0.57376 0.06694 0.36936 0.0
H2137 H 0.58118 0.08462 0.39519 0.0
C2138 C 0.04561 0.58355 0.38151 0.0
C2139 C 0.03132 0.57467 0.40108 0.0
C2140 C 0.04223 0.59372 0.36169 0.0
C2141 C 0.02399 0.59499 0.3611 0.0
C2142 C 0.00959 0.58623 0.38093 0.0
C2143 C 0.01346 0.5763 0.40067 0.0
C2144 C 0.05816 0.60299 0.3412 0.0
C2145 C 0.98984 0.58699 0.38102 0.0
C2146 C 0.0231 0.63454 0.31889 0.0
C2147 C 0.01357 0.62372 0.29653 0.0
C2148 C 0.02632 0.62538 0.34014 0.0
C2149 C 0.01971 0.60484 0.33924 0.0
C2150 C 0.00958 0.59376 0.31698 0.0
C2151 C 0.00673 0.6033 0.29598 0.0
C2152 C 0.03728 0.63783 0.36334 0.0
C2153 C 0.00207 0.57183 0.31513 0.0
H2154 H 0.05959 0.58268 0.38177 0.0
H2155 H 0.0022 0.56935 0.41547 0.0
H2156 H 0.05128 0.59595 0.32257 0.0
H2157 H 0.06328 0.61899 0.3397 0.0
H2158 H 0.07189 0.6014 0.34487 0.0
H2159 H 0.98053 0.58006 0.39816 0.0
H2160 H 0.99334 0.60259 0.38015 0.0
H2161 H 0.98041 0.57918 0.36393 0.0
H2162 H 0.02855 0.65031 0.31958 0.0
H2163 H 0.99929 0.59472 0.27893 0.0
H2164 H 0.05196 0.63787 0.36654 0.0
H2165 H 0.02773 0.63135 0.38041 0.0
H2166 H 0.04076 0.6534 0.36151 0.0
H2167 H 0.01537 0.56931 0.31647 0.0
H2168 H 0.99358 0.56511 0.29706 0.0
H2169 H 0.99177 0.564 0.33121 0.0
C2170 C 0.50584 0.51047 0.43762 0.0
C2171 C 0.49286 0.51399 0.45321 0.0
C2172 C 0.49815 0.49854 0.41559 0.0
C2173 C 0.47694 0.48977 0.40914 0.0
C2174 C 0.46376 0.49315 0.42493 0.0
C2175 C 0.47188 0.50524 0.44668 0.0
C2176 C 0.51269 0.49535 0.39919 0.0
C2177 C 0.44101 0.4839 0.41892 0.0
C2178 C 0.455 0.47015 0.3429 0.0
C2179 C 0.44596 0.44963 0.3463 0.0
C2180 C 0.46608 0.48356 0.36283 0.0
C2181 C 0.46814 0.47625 0.38663 0.0
C2182 C 0.46006 0.45565 0.38961 0.0
C2183 C 0.44913 0.44264 0.36946 0.0
C2184 C 0.47465 0.50546 0.35885 0.0
C2185 C 0.46193 0.4472 0.41458 0.0
H2186 H 0.52212 0.51733 0.44237 0.0
H2187 H 0.46172 0.50787 0.45857 0.0
H2188 H 0.50772 0.47934 0.39827 0.0
H2189 H 0.51225 0.50011 0.3795 0.0
H2190 H 0.52885 0.50364 0.40643 0.0
H2191 H 0.43292 0.48826 0.4329 0.0
H2192 H 0.43875 0.48836 0.39974 0.0
H2193 H 0.43366 0.4675 0.41874 0.0
H2194 H 0.45267 0.47569 0.32509 0.0
H2195 H 0.44242 0.42683 0.37223 0.0
H2196 H 0.49093 0.51398 0.36556 0.0
H2197 H 0.46575 0.51059 0.37017 0.0
H2198 H 0.47389 0.50895 0.33859 0.0
H2199 H 0.47819 0.45495 0.42139 0.0
H2200 H 0.45641 0.43107 0.41313 0.0
H2201 H 0.45272 0.44955 0.42915 0.0
C2202 C 0.67441 0.8608 0.2575 0.0
C2203 C 0.68949 0.8632 0.27552 0.0
C2204 C 0.6728 0.85176 0.23356 0.0
C2205 C 0.68641 0.84467 0.22742 0.0
C2206 C 0.70232 0.84801 0.245 0.0
C2207 C 0.70371 0.85726 0.26864 0.0
C2208 C 0.65581 0.84886 0.21538 0.0
C2209 C 0.71715 0.84069 0.23956 0.0
C2210 C 0.6675 0.79796 0.18666 0.0
C2211 C 0.67827 0.80518 0.16386 0.0
C2212 C 0.66944 0.81069 0.20687 0.0
C2213 C 0.68242 0.83143 0.20451 0.0
C2214 C 0.69245 0.83901 0.18104 0.0
C2215 C 0.69031 0.82581 0.161 0.0
C2216 C 0.65835 0.80174 0.23131 0.0
C2217 C 0.70617 0.861 0.17746 0.0
H2218 H 0.66337 0.86537 0.2624 0.0
H2219 H 0.71549 0.85902 0.28221 0.0
H2220 H 0.66181 0.85294 0.19584 0.0
H2221 H 0.64365 0.833 0.21489 0.0
H2222 H 0.64865 0.8578 0.22102 0.0
H2223 H 0.72983 0.84607 0.25391 0.0
H2224 H 0.7087 0.82423 0.23944 0.0
H2225 H 0.72398 0.84553 0.22052 0.0
H2226 H 0.65796 0.78209 0.18915 0.0
H2227 H 0.69877 0.83161 0.14361 0.0
H2228 H 0.649 0.80852 0.23699 0.0
H2229 H 0.66979 0.80489 0.24677 0.0
H2230 H 0.64803 0.78543 0.22971 0.0
H2231 H 0.6984 0.86912 0.18414 0.0
H2232 H 0.71052 0.86474 0.1573 0.0
H2233 H 0.72047 0.86635 0.18903 0.0
C2234 C 0.2288 0.92813 0.28167 0.0
C2235 C 0.22913 0.91494 0.29953 0.0
C2236 C 0.24311 0.93583 0.26198 0.0
C2237 C 0.25834 0.93026 0.25969 0.0
C2238 C 0.25886 0.91692 0.27756 0.0
C2239 C 0.24429 0.90945 0.29733 0.0
C2240 C 0.24193 0.95009 0.24364 0.0
C2241 C 0.27479 0.91054 0.27574 0.0
C2242 C 0.28161 0.94021 0.19348 0.0
C2243 C 0.29905 0.95913 0.19669 0.0
C2244 C 0.26895 0.93001 0.21415 0.0
C2245 C 0.27374 0.9389 0.23872 0.0
C2246 C 0.29193 0.9575 0.24229 0.0
C2247 C 0.30432 0.96734 0.22133 0.0
C2248 C 0.2498 0.91018 0.2094 0.0
C2249 C 0.29769 0.96764 0.26801 0.0
H2250 H 0.2173 0.93264 0.28307 0.0
H2251 H 0.2447 0.89927 0.31093 0.0
H2252 H 0.25661 0.96447 0.24423 0.0
H2253 H 0.23973 0.94413 0.22397 0.0
H2254 H 0.22911 0.9529 0.24797 0.0
H2255 H 0.27304 0.89991 0.2908 0.0
H2256 H 0.27357 0.9035 0.25693 0.0
H2257 H 0.2905 0.92369 0.27729 0.0
H2258 H 0.27739 0.93362 0.17462 0.0
H2259 H 0.3178 0.98187 0.22419 0.0
H2260 H 0.23597 0.91183 0.21099 0.0
H2261 H 0.24851 0.89935 0.2239 0.0
H2262 H 0.24966 0.90404 0.19025 0.0
H2263 H 0.28659 0.97255 0.27313 0.0
H2264 H 0.31346 0.98079 0.26837 0.0
H2265 H 0.29681 0.95718 0.28281 0.0
C2266 C 0.17074 0.44308 0.24922 0.0
C2267 C 0.1752 0.42891 0.259 0.0
C2268 C 0.15645 0.43827 0.22918 0.0
C2269 C 0.14619 0.41876 0.21892 0.0
C2270 C 0.15158 0.40478 0.22758 0.0
C2271 C 0.16614 0.41008 0.24731 0.0
C2272 C 0.15137 0.4537 0.22013 0.0
C2273 C 0.14092 0.38377 0.21729 0.0
C2274 C 0.09093 0.39907 0.19745 0.0
C2275 C 0.09248 0.39946 0.17093 0.0
C2276 C 0.10828 0.40512 0.21312 0.0
C2277 C 0.12783 0.41214 0.20204 0.0
C2278 C 0.12958 0.41256 0.17525 0.0
C2279 C 0.11178 0.40598 0.15994 0.0
C2280 C 0.10563 0.40399 0.2416 0.0
C2281 C 0.15024 0.42026 0.16283 0.0
H2282 H 0.17763 0.45766 0.25797 0.0
H2283 H 0.16995 0.3992 0.25407 0.0
H2284 H 0.15069 0.45375 0.19908 0.0
H2285 H 0.13596 0.45008 0.22715 0.0
H2286 H 0.16284 0.46882 0.22705 0.0
H2287 H 0.14854 0.37545 0.22381 0.0
H2288 H 0.12469 0.37583 0.22371 0.0
H2289 H 0.14057 0.38365 0.19623 0.0
H2290 H 0.07601 0.39384 0.20605 0.0
H2291 H 0.11303 0.40641 0.13943 0.0
H2292 H 0.11473 0.419 0.25026 0.0
H2293 H 0.11155 0.39467 0.2498 0.0
H2294 H 0.08926 0.39768 0.24712 0.0
H2295 H 0.16066 0.43593 0.16866 0.0
H2296 H 0.14896 0.41939 0.14178 0.0
H2297 H 0.15759 0.41169 0.16925 0.0
C2298 C 0.10916 0.31899 0.96355 0.0
C2299 C 0.11515 0.33056 0.94157 0.0
C2300 C 0.09802 0.32201 0.98271 0.0
C2301 C 0.09272 0.337 0.97992 0.0
C2302 C 0.09835 0.34847 0.95759 0.0
C2303 C 0.10943 0.34509 0.93872 0.0
C2304 C 0.09229 0.30944 0.00621 0.0
C2305 C 0.09294 0.36454 0.95378 0.0
C2306 C 0.04995 0.33559 0.02017 0.0
C2307 C 0.0612 0.34951 0.03944 0.0
C2308 C 0.05997 0.33125 1.00081 0.0
C2309 C 0.08179 0.34108 1.00063 0.0
C2310 C 0.09324 0.35506 0.02009 0.0
C2311 C 0.08283 0.35908 0.03924 0.0
C2312 C 0.0472 0.31621 0.98046 0.0
C2313 C 0.11653 0.36591 0.02057 0.0
H2314 H 0.11365 0.30788 0.96612 0.0
H2315 H 0.11363 0.35388 0.92166 0.0
H2316 H 0.09999 0.31897 0.02312 0.0
H2317 H 0.07542 0.30212 0.00923 0.0
H2318 H 0.09677 0.29785 0.00503 0.0
H2319 H 0.09798 0.37181 0.93506 0.0
H2320 H 0.07604 0.35825 0.95524 0.0
H2321 H 0.10034 0.37602 0.96894 0.0
H2322 H 0.03325 0.32808 0.02014 0.0
H2323 H 0.0917 0.36986 0.054 0.0
H2324 H 0.05093 0.30411 0.97998 0.0
H2325 H 0.05097 0.3233 0.96157 0.0
H2326 H 0.03037 0.30962 0.98351 0.0
H2327 H 0.12208 0.35512 0.02115 0.0
H2328 H 0.12316 0.37616 0.03717 0.0
H2329 H 0.12251 0.3746 1.00297 0.0
C2330 C 0.69583 0.85626 0.91351 0.0
C2331 C 0.67997 0.84385 0.8964 0.0
C2332 C 0.69821 0.84936 0.9374 0.0
C2333 C 0.68431 0.82957 0.94472 0.0
C2334 C 0.66775 0.81728 0.92798 0.0
C2335 C 0.66586 0.82448 0.90415 0.0
C2336 C 0.71618 0.86303 0.95437 0.0
C2337 C 0.65237 0.79619 0.93485 0.0
C2338 C 0.70192 0.80265 0.99049 0.0
C2339 C 0.69296 0.80327 0.01359 0.0
C2340 C 0.69963 0.8115 0.96833 0.0
C2341 C 0.68787 0.82119 0.96886 0.0
C2342 C 0.679 0.82215 0.99219 0.0
C2343 C 0.68172 0.8133 0.01422 0.0
C2344 C 0.7096 0.81019 0.94415 0.0
C2345 C 0.6662 0.83213 0.99376 0.0
H2346 H 0.70696 0.87119 0.90783 0.0
H2347 H 0.6535 0.81468 0.89127 0.0
H2348 H 0.71078 0.86345 0.97379 0.0
H2349 H 0.72708 0.85734 0.95595 0.0
H2350 H 0.72465 0.87839 0.94703 0.0
H2351 H 0.63941 0.78906 0.92088 0.0
H2352 H 0.66019 0.7873 0.93573 0.0
H2353 H 0.64597 0.79576 0.95391 0.0
H2354 H 0.71072 0.79507 0.9896 0.0
H2355 H 0.67463 0.81388 0.03181 0.0
H2356 H 0.7196 0.82524 0.93649 0.0
H2357 H 0.69755 0.80157 0.92956 0.0
H2358 H 0.71905 0.803 0.94705 0.0
H2359 H 0.67518 0.84759 0.98696 0.0
H2360 H 0.66103 0.83237 0.01339 0.0
H2361 H 0.65241 0.82423 0.98118 0.0
C2362 C 0.21939 0.88959 0.96198 0.0
C2363 C 0.19946 0.88696 0.9628 0.0
C2364 C 0.23412 0.90047 0.98107 0.0
C2365 C 0.22885 0.90906 1.00138 0.0
C2366 C 0.20852 0.90574 1.00288 0.0
C2367 C 0.19412 0.89478 0.98364 0.0
C2368 C 0.25561 0.90355 0.97888 0.0
C2369 C 0.20228 0.91481 0.024 0.0
C2370 C 0.26473 0.93211 0.05902 0.0
C2371 C 0.27576 0.95213 0.05217 0.0
C2372 C 0.24951 0.91777 0.04261 0.0
C2373 C 0.24515 0.92367 0.01902 0.0
C2374 C 0.25604 0.9439 0.0123 0.0
C2375 C 0.27117 0.95779 0.02885 0.0
C2376 C 0.23824 0.89631 0.05034 0.0
C2377 C 0.25172 0.95095 0.98754 0.0
H2378 H 0.22356 0.88338 0.94619 0.0
H2379 H 0.17893 0.89316 0.98442 0.0
H2380 H 0.26651 0.91925 0.97422 0.0
H2381 H 0.26076 0.90047 0.99724 0.0
H2382 H 0.25655 0.89395 0.96388 0.0
H2383 H 0.18537 0.90899 0.02409 0.0
H2384 H 0.20706 0.91192 0.04273 0.0
H2385 H 0.2102 0.93113 0.0217 0.0
H2386 H 0.26826 0.9276 0.07692 0.0
H2387 H 0.27949 0.97323 0.02341 0.0
H2388 H 0.24068 0.88718 0.03603 0.0
H2389 H 0.22142 0.89072 0.05094 0.0
H2390 H 0.24346 0.89409 0.06923 0.0
H2391 H 0.25442 0.94341 0.97132 0.0
H2392 H 0.26154 0.96723 0.9852 0.0
H2393 H 0.23531 0.94707 0.98654 0.0
C2394 C 0.69554 0.90182 0.43792 0.0
C2395 C 0.68808 0.90383 0.41421 0.0
C2396 C 0.69685 0.91365 0.45904 0.0
C2397 C 0.68987 0.92747 0.4568 0.0
C2398 C 0.68274 0.92988 0.43272 0.0
C2399 C 0.68221 0.91826 0.41169 0.0
C2400 C 0.70526 0.911 0.48393 0.0
C2401 C 0.6748 0.94413 0.42941 0.0
C2402 C 0.67236 0.94323 0.51658 0.0
C2403 C 0.68859 0.96267 0.52058 0.0
C2404 C 0.67266 0.93152 0.49612 0.0
C2405 C 0.68982 0.93924 0.47961 0.0
C2406 C 0.70669 0.95851 0.48452 0.0
C2407 C 0.7057 0.97006 0.50456 0.0
C2408 C 0.65414 0.91125 0.49141 0.0
C2409 C 0.7256 0.9672 0.46812 0.0
H2410 H 0.70003 0.89065 0.4401 0.0
H2411 H 0.67611 0.91972 0.39363 0.0
H2412 H 0.7176 0.92555 0.49135 0.0
H2413 H 0.69285 0.90486 0.49822 0.0
H2414 H 0.7116 0.90086 0.48208 0.0
H2415 H 0.66977 0.9443 0.40955 0.0
H2416 H 0.66155 0.93996 0.44213 0.0
H2417 H 0.68695 0.95936 0.43489 0.0
H2418 H 0.6589 0.93762 0.5285 0.0
H2419 H 0.71819 0.98516 0.50741 0.0
H2420 H 0.6589 0.89987 0.49079 0.0
H2421 H 0.64708 0.9109 0.47266 0.0
H2422 H 0.64226 0.90714 0.50623 0.0
H2423 H 0.73147 0.95669 0.46634 0.0
H2424 H 0.73817 0.98153 0.47587 0.0
H2425 H 0.72155 0.96972 0.44873 0.0
C2426 C 0.16164 0.86498 0.4532 0.0
C2427 C 0.17022 0.86063 0.43223 0.0
C2428 C 0.15358 0.85199 0.47376 0.0
C2429 C 0.15368 0.83386 0.47336 0.0
C2430 C 0.16276 0.82954 0.4525 0.0
C2431 C 0.17109 0.84305 0.43227 0.0
C2432 C 0.14452 0.85753 0.49571 0.0
C2433 C 0.16303 0.81032 0.45114 0.0
C2434 C 0.14624 0.80793 0.53699 0.0
C2435 C 0.12492 0.79437 0.53688 0.0
C2436 C 0.15583 0.82052 0.51633 0.0
C2437 C 0.14395 0.81947 0.49467 0.0
C2438 C 0.12249 0.80554 0.4942 0.0
C2439 C 0.11322 0.7933 0.51533 0.0
C2440 C 0.17864 0.83533 0.51797 0.0
C2441 C 0.10924 0.80372 0.47145 0.0
H2442 H 0.16094 0.87856 0.45339 0.0
H2443 H 0.17742 0.83944 0.41601 0.0
H2444 H 0.12778 0.84672 0.49695 0.0
H2445 H 0.15181 0.85692 0.51385 0.0
H2446 H 0.1466 0.87261 0.49379 0.0
H2447 H 0.17134 0.80946 0.43424 0.0
H2448 H 0.17045 0.80856 0.46846 0.0
H2449 H 0.14697 0.79767 0.45036 0.0
H2450 H 0.15549 0.80897 0.55349 0.0
H2451 H 0.0968 0.78281 0.51489 0.0
H2452 H 0.18113 0.85061 0.51735 0.0
H2453 H 0.18663 0.83349 0.50143 0.0
H2454 H 0.18589 0.83379 0.53564 0.0
H2455 H 0.1089 0.8177 0.4691 0.0
H2456 H 0.09314 0.7913 0.47324 0.0
H2457 H 0.1159 0.80136 0.45393 0.0
C2458 C 0.24562 0.43209 0.45107 0.0
C2459 C 0.22609 0.4231 0.43944 0.0
C2460 C 0.24941 0.42361 0.47237 0.0
C2461 C 0.2332 0.40579 0.48235 0.0
C2462 C 0.21306 0.3976 0.47199 0.0
C2463 C 0.20976 0.40632 0.45056 0.0
C2464 C 0.27113 0.43288 0.48295 0.0
C2465 C 0.19528 0.37889 0.48238 0.0
C2466 C 0.25342 0.3739 0.50925 0.0
C2467 C 0.25607 0.37943 0.535 0.0
C2468 C 0.24458 0.38132 0.49217 0.0
C2469 C 0.23813 0.39452 0.50108 0.0
C2470 C 0.23885 0.39857 0.52743 0.0
C2471 C 0.24783 0.39095 0.54415 0.0
C2472 C 0.24381 0.37636 0.46425 0.0
C2473 C 0.23171 0.41222 0.53774 0.0
H2474 H 0.25829 0.445 0.4425 0.0
H2475 H 0.19455 0.39955 0.44185 0.0
H2476 H 0.27117 0.4345 0.50389 0.0
H2477 H 0.27755 0.42307 0.47869 0.0
H2478 H 0.28147 0.44768 0.47475 0.0
H2479 H 0.18016 0.37658 0.47549 0.0
H2480 H 0.19667 0.36595 0.47628 0.0
H2481 H 0.19553 0.37927 0.50345 0.0
H2482 H 0.25948 0.36478 0.5021 0.0
H2483 H 0.24974 0.39525 0.56404 0.0
H2484 H 0.25506 0.38977 0.45393 0.0
H2485 H 0.2283 0.3716 0.45609 0.0
H2486 H 0.24753 0.36442 0.46075 0.0
H2487 H 0.24349 0.4278 0.53377 0.0
H2488 H 0.2294 0.4107 0.55859 0.0
H2489 H 0.21709 0.40924 0.52836 0.0
C2490 C 0.21445 0.36221 0.77795 0.0
C2491 C 0.19766 0.3429 0.78053 0.0
C2492 C 0.22495 0.36864 0.75495 0.0
C2493 C 0.21874 0.35539 0.73396 0.0
C2494 C 0.20202 0.3358 0.73641 0.0
C2495 C 0.19164 0.32981 0.75963 0.0
C2496 C 0.2427 0.38966 0.75313 0.0
C2497 C 0.19506 0.32119 0.71448 0.0
C2498 C 0.23424 0.37709 0.66792 0.0
C2499 C 0.25165 0.37523 0.66352 0.0
C2500 C 0.22338 0.37071 0.69075 0.0
C2501 C 0.22995 0.36206 0.70953 0.0
C2502 C 0.24752 0.36016 0.70522 0.0
C2503 C 0.25821 0.36686 0.68236 0.0
C2504 C 0.20489 0.37324 0.69481 0.0
C2505 C 0.25494 0.3509 0.72469 0.0
H2506 H 0.21962 0.37236 0.79402 0.0
H2507 H 0.17862 0.31495 0.76129 0.0
H2508 H 0.25706 0.38955 0.74847 0.0
H2509 H 0.2397 0.39745 0.73756 0.0
H2510 H 0.24532 0.39825 0.77105 0.0
H2511 H 0.18198 0.30644 0.71955 0.0
H2512 H 0.19024 0.32696 0.69818 0.0
H2513 H 0.20805 0.31931 0.70805 0.0
H2514 H 0.22907 0.38354 0.65349 0.0
H2515 H 0.27155 0.36522 0.67909 0.0
H2516 H 0.20736 0.38251 0.71201 0.0
H2517 H 0.191 0.3586 0.69807 0.0
H2518 H 0.20179 0.38028 0.67837 0.0
H2519 H 0.25895 0.35952 0.74275 0.0
H2520 H 0.26866 0.35022 0.71826 0.0
H2521 H 0.24244 0.33564 0.72885 0.0
C2522 C 0.69548 0.90084 0.73623 0.0
C2523 C 0.68727 0.89904 0.76066 0.0
C2524 C 0.69096 0.91008 0.71629 0.0
C2525 C 0.67785 0.91803 0.72049 0.0
C2526 C 0.66909 0.91596 0.74496 0.0
C2527 C 0.67382 0.90645 0.76469 0.0
C2528 C 0.70055 0.91158 0.69069 0.0
C2529 C 0.65506 0.92418 0.75043 0.0
C2530 C 0.6842 0.95787 0.67271 0.0
C2531 C 0.66826 0.94691 0.65495 0.0
C2532 C 0.68695 0.94892 0.6946 0.0
C2533 C 0.67352 0.92841 0.69908 0.0
C2534 C 0.65709 0.91743 0.68158 0.0
C2535 C 0.65467 0.92673 0.65992 0.0
C2536 C 0.70468 0.96132 0.71257 0.0
C2537 C 0.64238 0.89558 0.68527 0.0
H2538 H 0.70581 0.89514 0.73265 0.0
H2539 H 0.66751 0.90538 0.78344 0.0
H2540 H 0.68833 0.90458 0.67582 0.0
H2541 H 0.71043 0.9274 0.68565 0.0
H2542 H 0.7101 0.90434 0.69029 0.0
H2543 H 0.6489 0.92085 0.77 0.0
H2544 H 0.66361 0.9405 0.74801 0.0
H2545 H 0.64193 0.91795 0.7367 0.0
H2546 H 0.69479 0.97343 0.66931 0.0
H2547 H 0.64222 0.91799 0.64658 0.0
H2548 H 0.71603 0.95612 0.71198 0.0
H2549 H 0.6991 0.9596 0.73235 0.0
H2550 H 0.7127 0.97731 0.70775 0.0
H2551 H 0.65081 0.88731 0.68337 0.0
H2552 H 0.62944 0.88944 0.67122 0.0
H2553 H 0.63592 0.89292 0.70465 0.0
C2554 C 0.16367 0.83374 0.76826 0.0
C2555 C 0.15201 0.82207 0.78855 0.0
C2556 C 0.15859 0.82681 0.74303 0.0
C2557 C 0.14105 0.80801 0.73796 0.0
C2558 C 0.12904 0.79632 0.75847 0.0
C2559 C 0.13486 0.80338 0.78353 0.0
C2560 C 0.17212 0.83948 0.72185 0.0
C2561 C 0.10992 0.77641 0.75394 0.0
C2562 C 0.11362 0.79409 0.67361 0.0
C2563 C 0.11847 0.7799 0.66495 0.0
C2564 C 0.12169 0.80419 0.69685 0.0
C2565 C 0.13527 0.80028 0.71136 0.0
C2566 C 0.1416 0.78724 0.70145 0.0
C2567 C 0.1328 0.77692 0.67859 0.0
C2568 C 0.11421 0.81765 0.70688 0.0
C2569 C 0.15653 0.7831 0.71584 0.0
H2570 H 0.177 0.84817 0.77226 0.0
H2571 H 0.12572 0.79453 0.79925 0.0
H2572 H 0.17821 0.83124 0.71114 0.0
H2573 H 0.16296 0.84289 0.70827 0.0
H2574 H 0.18533 0.85366 0.729 0.0
H2575 H 0.10168 0.76968 0.77182 0.0
H2576 H 0.09918 0.77799 0.74079 0.0
H2577 H 0.11412 0.76607 0.74482 0.0
H2578 H 0.10212 0.796 0.66336 0.0
H2579 H 0.1363 0.7657 0.67204 0.0
H2580 H 0.12732 0.83185 0.714 0.0
H2581 H 0.10384 0.81045 0.72313 0.0
H2582 H 0.10561 0.82091 0.6922 0.0
H2583 H 0.16991 0.79713 0.72296 0.0
H2584 H 0.16227 0.77512 0.70389 0.0
H2585 H 0.14877 0.77386 0.73256 0.0
C2586 C 0.35897 0.1888 0.64037 0.0
C2587 C 0.35793 0.20618 0.63801 0.0
C2588 C 0.35657 0.17681 0.61893 0.0
C2589 C 0.35251 0.18206 0.59464 0.0
C2590 C 0.35033 0.19905 0.59256 0.0
C2591 C 0.35349 0.2111 0.61412 0.0
C2592 C 0.35951 0.15913 0.62207 0.0
C2593 C 0.34533 0.20491 0.56737 0.0
C2594 C 0.36781 0.16339 0.53578 0.0
C2595 C 0.34942 0.14589 0.52975 0.0
C2596 C 0.36898 0.17544 0.55663 0.0
C2597 C 0.3512 0.17015 0.57139 0.0
C2598 C 0.33233 0.15307 0.56435 0.0
C2599 C 0.33178 0.141 0.54399 0.0
C2600 C 0.38952 0.19325 0.56367 0.0
C2601 C 0.31284 0.14717 0.57885 0.0
H2602 H 0.36301 0.18528 0.65866 0.0
H2603 H 0.35302 0.22472 0.61219 0.0
H2604 H 0.34583 0.14552 0.6146 0.0
H2605 H 0.37298 0.16131 0.6109 0.0
H2606 H 0.36209 0.15675 0.64223 0.0
H2607 H 0.34203 0.21726 0.5694 0.0
H2608 H 0.3585 0.20963 0.55437 0.0
H2609 H 0.33177 0.19203 0.5583 0.0
H2610 H 0.38159 0.16697 0.52522 0.0
H2611 H 0.31758 0.12736 0.53955 0.0
H2612 H 0.39437 0.19124 0.58288 0.0
H2613 H 0.38819 0.20679 0.56446 0.0
H2614 H 0.40177 0.19566 0.55001 0.0
H2615 H 0.31433 0.1426 0.59829 0.0
H2616 H 0.29906 0.1347 0.56946 0.0
H2617 H 0.31029 0.15998 0.58078 0.0
C2618 C 0.93484 0.23951 0.58705 0.0
C2619 C 0.91431 0.23319 0.59346 0.0
C2620 C 0.94486 0.25362 0.56795 0.0
C2621 C 0.93417 0.26175 0.555 0.0
C2622 C 0.91334 0.2551 0.56096 0.0
C2623 C 0.90368 0.24088 0.57991 0.0
C2624 C 0.96703 0.26018 0.56203 0.0
C2625 C 0.90135 0.26336 0.54769 0.0
C2626 C 0.96437 0.31293 0.52568 0.0
C2627 C 0.96333 0.30837 0.49967 0.0
C2628 C 0.95522 0.29792 0.54384 0.0
C2629 C 0.94491 0.27777 0.53594 0.0
C2630 C 0.94414 0.27303 0.50977 0.0
C2631 C 0.95325 0.28837 0.49196 0.0
C2632 C 0.95623 0.30366 0.5715 0.0
C2633 C 0.93347 0.25175 0.50057 0.0
H2634 H 0.94331 0.23384 0.59739 0.0
H2635 H 0.88771 0.23584 0.58417 0.0
H2636 H 0.96873 0.25858 0.54138 0.0
H2637 H 0.97695 0.27611 0.56707 0.0
H2638 H 0.97276 0.25155 0.57257 0.0
H2639 H 0.88512 0.25631 0.55408 0.0
H2640 H 0.90886 0.27956 0.55137 0.0
H2641 H 0.90134 0.26116 0.52686 0.0
H2642 H 0.97207 0.32831 0.53189 0.0
H2643 H 0.95244 0.28466 0.47195 0.0
H2644 H 0.9633 0.29667 0.58298 0.0
H2645 H 0.94041 0.29813 0.57867 0.0
H2646 H 0.96529 0.31997 0.57464 0.0
H2647 H 0.9399 0.24352 0.5106 0.0
H2648 H 0.9351 0.25051 0.47979 0.0
H2649 H 0.91682 0.24439 0.50499 0.0
C2650 C 0.85071 0.73752 0.56053 0.0
C2651 C 0.84946 0.75077 0.57766 0.0
C2652 C 0.83879 0.73141 0.53809 0.0
C2653 C 0.82536 0.73878 0.53265 0.0
C2654 C 0.82546 0.75351 0.54868 0.0
C2655 C 0.83749 0.75931 0.57101 0.0
C2656 C 0.83938 0.71591 0.52133 0.0
C2657 C 0.8115 0.76192 0.54341 0.0
C2658 C 0.79369 0.72857 0.47181 0.0
C2659 C 0.77425 0.7141 0.48022 0.0
C2660 C 0.81102 0.73608 0.48817 0.0
C2661 C 0.80867 0.72875 0.51321 0.0
C2662 C 0.78937 0.71294 0.52084 0.0
C2663 C 0.7724 0.70591 0.50429 0.0
C2664 C 0.83138 0.75283 0.47929 0.0
C2665 C 0.78621 0.70439 0.54718 0.0
H2666 H 0.86038 0.73127 0.56519 0.0
H2667 H 0.83642 0.76957 0.58403 0.0
H2668 H 0.82547 0.70131 0.52471 0.0
H2669 H 0.83921 0.7194 0.50098 0.0
H2670 H 0.85322 0.71458 0.52531 0.0
H2671 H 0.81543 0.77508 0.55559 0.0
H2672 H 0.81243 0.76621 0.52322 0.0
H2673 H 0.79528 0.75043 0.54705 0.0
H2674 H 0.79507 0.73499 0.45323 0.0
H2675 H 0.75734 0.6946 0.51068 0.0
H2676 H 0.84435 0.75081 0.48575 0.0
H2677 H 0.83388 0.767 0.4876 0.0
H2678 H 0.83178 0.75408 0.45828 0.0
H2679 H 0.79818 0.70044 0.5518 0.0
H2680 H 0.77079 0.69097 0.54925 0.0
H2681 H 0.78771 0.71566 0.56136 0.0
C2682 C 0.76863 0.66872 0.23207 0.0
C2683 C 0.78839 0.68342 0.2247 0.0
C2684 C 0.75954 0.67099 0.25417 0.0
C2685 C 0.77038 0.68845 0.26921 0.0
C2686 C 0.79028 0.70335 0.26191 0.0
C2687 C 0.79907 0.7006 0.23992 0.0
C2688 C 0.73833 0.65471 0.26141 0.0
C2689 C 0.80235 0.72222 0.27736 0.0
C2690 C 0.74073 0.70363 0.31367 0.0
C2691 C 0.74461 0.69796 0.33738 0.0
C2692 C 0.74885 0.70047 0.29131 0.0
C2693 C 0.761 0.69122 0.29263 0.0
C2694 C 0.76475 0.68522 0.31646 0.0
C2695 C 0.75661 0.68876 0.33855 0.0
C2696 C 0.7447 0.7073 0.26632 0.0
C2697 C 0.77748 0.67518 0.31866 0.0
H2698 H 0.76011 0.65549 0.22044 0.0
H2699 H 0.81447 0.71192 0.23488 0.0
H2700 H 0.73884 0.64939 0.28074 0.0
H2701 H 0.72752 0.66055 0.26193 0.0
H2702 H 0.73207 0.6419 0.24795 0.0
H2703 H 0.8175 0.73253 0.26886 0.0
H2704 H 0.79336 0.72996 0.27903 0.0
H2705 H 0.80506 0.71867 0.29688 0.0
H2706 H 0.73151 0.71079 0.31257 0.0
H2707 H 0.7596 0.68421 0.35675 0.0
H2708 H 0.73723 0.69464 0.25271 0.0
H2709 H 0.75948 0.7185 0.25787 0.0
H2710 H 0.73464 0.71391 0.26844 0.0
H2711 H 0.77081 0.66175 0.30628 0.0
H2712 H 0.77835 0.67077 0.33845 0.0
H2713 H 0.79337 0.68528 0.31206 0.0
C2714 C 0.37011 0.19413 0.27967 0.0
C2715 C 0.35272 0.18277 0.26399 0.0
C2716 C 0.3724 0.18716 0.30354 0.0
C2717 C 0.35685 0.16843 0.31232 0.0
C2718 C 0.33885 0.15735 0.29709 0.0
C2719 C 0.33709 0.16454 0.27319 0.0
C2720 C 0.39195 0.19947 0.31883 0.0
C2721 C 0.32169 0.13747 0.30561 0.0
C2722 C 0.37051 0.13819 0.35756 0.0
C2723 C 0.36393 0.14125 0.38123 0.0
C2724 C 0.3688 0.14732 0.33534 0.0
C2725 C 0.35997 0.15973 0.33641 0.0
C2726 C 0.35355 0.16313 0.36031 0.0
C2727 C 0.35573 0.15401 0.38238 0.0
C2728 C 0.37617 0.1434 0.31054 0.0
C2729 C 0.34384 0.17599 0.36245 0.0
H2730 H 0.38241 0.20814 0.27283 0.0
H2731 H 0.32356 0.15557 0.2614 0.0
H2732 H 0.38825 0.20148 0.33859 0.0
H2733 H 0.40087 0.19162 0.31981 0.0
H2734 H 0.40185 0.2143 0.31047 0.0
H2735 H 0.30795 0.1315 0.29282 0.0
H2736 H 0.32724 0.12667 0.3061 0.0
H2737 H 0.31697 0.13869 0.32514 0.0
H2738 H 0.37694 0.12847 0.3563 0.0
H2739 H 0.35046 0.15643 0.40043 0.0
H2740 H 0.38731 0.15762 0.30165 0.0
H2741 H 0.36294 0.13551 0.29713 0.0
H2742 H 0.38369 0.13431 0.31303 0.0
H2743 H 0.3542 0.19084 0.35447 0.0
H2744 H 0.34039 0.17787 0.38242 0.0
H2745 H 0.32926 0.16928 0.35117 0.0
C2746 C 0.88499 0.2733 0.26672 0.0
C2747 C 0.86599 0.27256 0.26384 0.0
C2748 C 0.89794 0.28288 0.28768 0.0
C2749 C 0.89168 0.29184 0.3064 0.0
C2750 C 0.87228 0.29073 0.30396 0.0
C2751 C 0.85971 0.28122 0.28257 0.0
C2752 C 0.91866 0.28402 0.2893 0.0
C2753 C 0.865 0.29993 0.32367 0.0
C2754 C 0.92319 0.30621 0.36793 0.0
C2755 C 0.93764 0.32618 0.36352 0.0
C2756 C 0.90748 0.29497 0.34999 0.0
C2757 C 0.90636 0.30389 0.32712 0.0
C2758 C 0.92043 0.32419 0.32305 0.0
C2759 C 0.93578 0.33507 0.3413 0.0
C2760 C 0.89256 0.2734 0.35509 0.0
C2761 C 0.91987 0.33427 0.29887 0.0
H2762 H 0.89002 0.26685 0.25213 0.0
H2763 H 0.84491 0.28043 0.28054 0.0
H2764 H 0.93115 0.29972 0.28807 0.0
H2765 H 0.9205 0.27837 0.30784 0.0
H2766 H 0.92073 0.27539 0.27388 0.0
H2767 H 0.84882 0.29627 0.32014 0.0
H2768 H 0.86616 0.29479 0.34289 0.0
H2769 H 0.87504 0.31629 0.32365 0.0
H2770 H 0.92443 0.29925 0.38508 0.0
H2771 H 0.94674 0.35051 0.3377 0.0
H2772 H 0.89538 0.26398 0.3417 0.0
H2773 H 0.87646 0.27003 0.35185 0.0
H2774 H 0.89409 0.26924 0.37479 0.0
H2775 H 0.92332 0.32745 0.28244 0.0
H2776 H 0.93121 0.35042 0.29925 0.0
H2777 H 0.90426 0.33219 0.29561 0.0
C2778 C 0.35254 0.2475 0.78881 0.0
C2779 C 0.3715 0.24828 0.78538 0.0
C2780 C 0.34863 0.25517 0.81119 0.0
C2781 C 0.36403 0.26386 0.83059 0.0
C2782 C 0.3825 0.26324 0.82794 0.0
C2783 C 0.38596 0.25549 0.80552 0.0
C2784 C 0.32861 0.25526 0.81324 0.0
C2785 C 0.39943 0.27228 0.84787 0.0
C2786 C 0.3699 0.30925 0.86587 0.0
C2787 C 0.36229 0.30205 0.89018 0.0
C2788 C 0.37021 0.29693 0.84654 0.0
C2789 C 0.36258 0.27657 0.8512 0.0
C2790 C 0.3548 0.26903 0.87565 0.0
C2791 C 0.35486 0.28188 0.89492 0.0
C2792 C 0.37899 0.30587 0.82107 0.0
C2793 C 0.34637 0.24741 0.88138 0.0
H2794 H 0.34123 0.24197 0.77346 0.0
H2795 H 0.40058 0.25597 0.80331 0.0
H2796 H 0.32221 0.25095 0.83257 0.0
H2797 H 0.33145 0.27047 0.80989 0.0
H2798 H 0.31693 0.24506 0.79912 0.0
H2799 H 0.41149 0.26817 0.84479 0.0
H2800 H 0.40685 0.28868 0.84735 0.0
H2801 H 0.39306 0.26756 0.86713 0.0
H2802 H 0.37584 0.3248 0.86184 0.0
H2803 H 0.34882 0.27608 0.91349 0.0
H2804 H 0.3673 0.29807 0.80582 0.0
H2805 H 0.39243 0.30402 0.81683 0.0
H2806 H 0.38405 0.32192 0.82036 0.0
H2807 H 0.33377 0.23809 0.86771 0.0
H2808 H 0.34035 0.24367 0.90097 0.0
H2809 H 0.35861 0.24349 0.87901 0.0
C2810 C 0.82022 0.16653 0.76255 0.0
C2811 C 0.8369 0.16336 0.75845 0.0
C2812 C 0.80588 0.15662 0.78179 0.0
C2813 C 0.80829 0.14335 0.79772 0.0
C2814 C 0.82526 0.14034 0.7941 0.0
C2815 C 0.83927 0.15028 0.77451 0.0
C2816 C 0.78798 0.16022 0.78489 0.0
C2817 C 0.8285 0.12641 0.81079 0.0
C2818 C 0.78131 0.12967 0.86162 0.0
C2819 C 0.76461 0.11059 0.85659 0.0
C2820 C 0.79552 0.14058 0.84262 0.0
C2821 C 0.79288 0.13234 0.81786 0.0
C2822 C 0.77566 0.11338 0.81246 0.0
C2823 C 0.76183 0.10271 0.83188 0.0
C2824 C 0.8137 0.16069 0.84923 0.0
C2825 C 0.77208 0.10416 0.78625 0.0
H2826 H 0.81833 0.17684 0.75077 0.0
H2827 H 0.85189 0.1475 0.77154 0.0
H2828 H 0.77321 0.14606 0.78242 0.0
H2829 H 0.78816 0.16585 0.80435 0.0
H2830 H 0.7883 0.17105 0.77102 0.0
H2831 H 0.84285 0.12623 0.80617 0.0
H2832 H 0.82927 0.1308 0.83104 0.0
H2833 H 0.81523 0.11113 0.80859 0.0
H2834 H 0.7837 0.13587 0.88066 0.0
H2835 H 0.74898 0.08802 0.82775 0.0
H2836 H 0.81417 0.17205 0.83624 0.0
H2837 H 0.82825 0.16041 0.84669 0.0
H2838 H 0.81321 0.1653 0.8691 0.0
H2839 H 0.77158 0.11431 0.77196 0.0
H2840 H 0.75749 0.0897 0.78483 0.0
H2841 H 0.78506 0.10179 0.78126 0.0
C2842 C 0.91902 0.7512 0.76732 0.0
C2843 C 0.89868 0.74067 0.75805 0.0
C2844 C 0.92582 0.74337 0.78655 0.0
C2845 C 0.9119 0.72463 0.79681 0.0
C2846 C 0.89097 0.71468 0.78892 0.0
C2847 C 0.88462 0.72282 0.76957 0.0
C2848 C 0.94827 0.7545 0.79453 0.0
C2849 C 0.87558 0.69483 0.79967 0.0
C2850 C 0.93789 0.69582 0.81685 0.0
C2851 C 0.94091 0.69999 0.84299 0.0
C2852 C 0.92754 0.70295 0.80184 0.0
C2853 C 0.91992 0.71449 0.81325 0.0
C2854 C 0.92163 0.71759 0.83987 0.0
C2855 C 0.93212 0.7103 0.85446 0.0
C2856 C 0.92585 0.69913 0.77352 0.0
C2857 C 0.91346 0.72959 0.85275 0.0
H2858 H 0.92998 0.76493 0.75842 0.0
H2859 H 0.86879 0.71482 0.76272 0.0
H2860 H 0.94979 0.75551 0.81553 0.0
H2861 H 0.95596 0.74633 0.78771 0.0
H2862 H 0.95655 0.76972 0.78675 0.0
H2863 H 0.85945 0.69058 0.79455 0.0
H2864 H 0.87869 0.68325 0.79215 0.0
H2865 H 0.87709 0.695 0.82065 0.0
H2866 H 0.94445 0.68771 0.80784 0.0
H2867 H 0.93429 0.71354 0.87467 0.0
H2868 H 0.93529 0.71332 0.76351 0.0
H2869 H 0.90965 0.69294 0.76691 0.0
H2870 H 0.93121 0.6887 0.7679 0.0
H2871 H 0.92336 0.74547 0.84804 0.0
H2872 H 0.91324 0.72817 0.87374 0.0
H2873 H 0.89762 0.72493 0.84584 0.0
C2874 C 0.89403 0.70563 0.06895 0.0
C2875 C 0.87289 0.6928 0.06405 0.0
C2876 C 0.90882 0.70976 0.05016 0.0
C2877 C 0.90245 0.7007 0.02587 0.0
C2878 C 0.88121 0.68756 0.02084 0.0
C2879 C 0.86673 0.68384 0.0399 0.0
C2880 C 0.93129 0.72389 0.0563 0.0
C2881 C 0.87377 0.6775 0.99522 0.0
C2882 C 0.93655 0.72371 0.96843 0.0
C2883 C 0.9455 0.71173 0.96541 0.0
C2884 C 0.92292 0.72059 0.98836 0.0
C2885 C 0.91793 0.705 0.00562 0.0
C2886 C 0.92729 0.69316 1.00305 0.0
C2887 C 0.94101 0.69672 0.98308 0.0
C2888 C 0.91349 0.73372 0.99063 0.0
C2889 C 0.92233 0.67634 0.02096 0.0
H2890 H 0.89913 0.71238 0.08757 0.0
H2891 H 0.85051 0.67411 0.0357 0.0
H2892 H 0.94033 0.71627 0.05377 0.0
H2893 H 0.93755 0.73651 0.04299 0.0
H2894 H 0.93373 0.72984 0.07603 0.0
H2895 H 0.85681 0.66734 0.99451 0.0
H2896 H 0.87794 0.68881 0.98028 0.0
H2897 H 0.88147 0.66888 0.99057 0.0
H2898 H 0.93994 0.73538 0.95496 0.0
H2899 H 0.94777 0.68733 0.98091 0.0
H2900 H 0.91638 0.74043 0.00994 0.0
H2901 H 0.89653 0.72472 0.98784 0.0
H2902 H 0.91973 0.74581 0.97649 0.0
H2903 H 0.92535 0.68186 0.04088 0.0
H2904 H 0.93147 0.66898 0.01699 0.0
H2905 H 0.9057 0.66509 0.01931 0.0
C2906 C 0.35395 0.23359 0.11914 0.0
C2907 C 0.34868 0.23814 0.14283 0.0
C2908 C 0.35288 0.24285 0.09659 0.0
C2909 C 0.34629 0.25707 0.09742 0.0
C2910 C 0.34061 0.26146 0.12119 0.0
C2911 C 0.34191 0.25205 0.14344 0.0
C2912 C 0.35916 0.23765 0.07186 0.0
C2913 C 0.33336 0.27634 0.12321 0.0
C2914 C 0.36098 0.2949 0.04352 0.0
C2915 C 0.34293 0.28656 0.02841 0.0
C2916 C 0.36233 0.2855 0.06581 0.0
C2917 C 0.34522 0.26725 0.0735 0.0
C2918 C 0.32697 0.25881 0.05835 0.0
C2919 C 0.32607 0.26846 0.03615 0.0
C2920 C 0.38215 0.29511 0.08116 0.0
C2921 C 0.30826 0.23953 0.06566 0.0
H2922 H 0.35938 0.22306 0.11824 0.0
H2923 H 0.33787 0.25588 0.16148 0.0
H2924 H 0.34625 0.23209 0.05786 0.0
H2925 H 0.37231 0.25112 0.06376 0.0
H2926 H 0.36374 0.22621 0.0742 0.0
H2927 H 0.32901 0.27782 0.14288 0.0
H2928 H 0.34572 0.29108 0.11697 0.0
H2929 H 0.31984 0.27189 0.11045 0.0
H2930 H 0.37415 0.3088 0.03788 0.0
H2931 H 0.31198 0.26176 0.02484 0.0
H2932 H 0.38828 0.2848 0.08269 0.0
H2933 H 0.37918 0.29831 0.10074 0.0
H2934 H 0.39414 0.30915 0.07266 0.0
H2935 H 0.31226 0.22763 0.06668 0.0
H2936 H 0.29521 0.23484 0.05198 0.0
H2937 H 0.30307 0.24104 0.08479 0.0
C2938 C 0.81711 0.19817 0.0819 0.0
C2939 C 0.80106 0.19832 0.09526 0.0
C2940 C 0.81301 0.18567 0.06071 0.0
C2941 C 0.79233 0.17289 0.05286 0.0
C2942 C 0.77616 0.1739 0.06528 0.0
C2943 C 0.78074 0.18669 0.08629 0.0
C2944 C 0.8307 0.18529 0.04774 0.0
C2945 C 0.75389 0.16049 0.05751 0.0
C2946 C 0.77772 0.14305 0.99109 0.0
C2947 C 0.77319 0.12432 0.99982 0.0
C2948 C 0.78481 0.15932 0.00792 0.0
C2949 C 0.78733 0.15674 0.03403 0.0
C2950 C 0.78386 0.13815 0.04265 0.0
C2951 C 0.77692 0.12222 0.02545 0.0
C2952 C 0.78865 0.179 0.99799 0.0
C2953 C 0.7865 0.13479 0.07032 0.0
H2954 H 0.83287 0.20743 0.08855 0.0
H2955 H 0.76829 0.18668 0.09662 0.0
H2956 H 0.83062 0.17142 0.05261 0.0
H2957 H 0.82903 0.18542 0.0268 0.0
H2958 H 0.84586 0.19807 0.0536 0.0
H2959 H 0.74339 0.16452 0.06729 0.0
H2960 H 0.7519 0.16108 0.0367 0.0
H2961 H 0.74918 0.14493 0.0622 0.0
H2962 H 0.77492 0.14483 0.97131 0.0
H2963 H 0.77364 0.10787 0.03237 0.0
H2964 H 0.80368 0.19121 0.00514 0.0
H2965 H 0.77651 0.18198 0.00495 0.0
H2966 H 0.78853 0.17928 0.9769 0.0
H2967 H 0.80216 0.14591 0.07724 0.0
H2968 H 0.78416 0.11974 0.07371 0.0
H2969 H 0.77526 0.13668 0.08186 0.0
loop_
_geom_bond_atom_site_label_1
_geom_bond_atom_site_label_2
_geom_bond_distance
_geom_bond_site_symmetry_2
_ccdc_geom_bond_type
Cu0 N1 1.999 . S
Cu0 O6 1.974 1_554 S
Cu0 N11 1.985 1_554 S
Cu0 O20 1.959 . S
N1 Cu0 1.999 . S
N1 C3 1.263 . S
N1 C5 1.389 . S
N2 C3 1.358 . S
N2 C4 1.400 . S
C3 N1 1.263 . S
C3 N2 1.358 . S
C3 H9 0.930 . S
C4 N2 1.400 . S
C4 C5 1.351 . S
C4 H21 0.930 . S
C5 N1 1.389 . S
C5 C4 1.351 . S
C5 H10 0.930 . S
O6 Cu0 1.974 1_556 S
O6 C16 1.282 . S
C7 O8 1.261 . S
C7 O20 1.251 . S
O8 C7 1.261 . S
H9 C3 0.930 . S
H10 C5 0.930 . S
N11 Cu0 1.985 1_556 S
N11 C13 1.335 . S
N11 C14 1.390 . S
N12 C13 1.345 . S
N12 C15 1.336 . S
C13 N11 1.335 . S
C13 N12 1.345 . S
C13 H18 0.930 . S
C14 N11 1.390 . S
C14 C15 1.346 . S
C14 H19 0.930 . S
C15 N12 1.336 . S
C15 C14 1.346 . S
C15 H22 0.929 . S
C16 O6 1.282 . S
C16 O17 1.216 1_455 S
O17 C16 1.216 1_655 S
H18 C13 0.930 . S
H19 C14 0.930 . S
O20 Cu0 1.959 . S
O20 C7 1.251 . S
H21 C4 0.930 . S
H22 C15 0.929 . S
Cu23 N24 1.999 1_554 S
Cu23 O29 1.974 . S
Cu23 N34 1.985 . S
Cu23 O43 1.959 1_554 S
N24 Cu23 1.999 1_556 S
N24 C26 1.263 . S
N24 C28 1.389 . S
N25 C26 1.358 . S
N25 C27 1.400 . S
C26 N24 1.263 . S
C26 N25 1.358 . S
C26 H32 0.930 . S
C27 N25 1.400 . S
C27 C28 1.351 . S
C27 H44 0.930 . S
C28 N24 1.389 . S
C28 C27 1.351 . S
C28 H33 0.930 . S
O29 Cu23 1.974 . S
O29 C39 1.282 . S
C30 O31 1.261 . S
C30 O43 1.251 . S
O31 C30 1.261 . S
H32 C26 0.930 . S
H33 C28 0.930 . S
N34 Cu23 1.985 . S
N34 C36 1.335 . S
N34 C37 1.390 . S
N35 C36 1.345 . S
N35 C38 1.336 . S
C36 N34 1.335 . S
C36 N35 1.345 . S
C36 H41 0.930 . S
C37 N34 1.390 . S
C37 C38 1.346 . S
C37 H42 0.930 . S
C38 N35 1.336 . S
C38 C37 1.346 . S
C38 H45 0.929 . S
C39 O29 1.282 . S
C39 O40 1.216 . S
O40 C39 1.216 . S
H41 C36 0.930 . S
H42 C37 0.930 . S
O43 Cu23 1.959 1_556 S
O43 C30 1.251 . S
H44 C27 0.930 . S
H45 C38 0.929 . S
Cu46 N47 1.999 1_554 S
Cu46 O52 1.974 . S
Cu46 N57 1.985 . S
Cu46 O66 1.959 . S
N47 Cu46 1.999 1_556 S
N47 C49 1.263 . S
N47 C51 1.389 . S
N48 C49 1.358 . S
N48 C50 1.400 . S
C49 N47 1.263 . S
C49 N48 1.358 . S
C49 H55 0.930 . S
C50 N48 1.400 . S
C50 C51 1.351 . S
C50 H67 0.930 . S
C51 N47 1.389 . S
C51 C50 1.351 . S
C51 H56 0.930 . S
O52 Cu46 1.974 . S
O52 C62 1.282 . S
C53 O54 1.259 1_556 S
C53 O66 1.249 1_556 S
O54 C53 1.259 1_554 S
H55 C49 0.930 . S
H56 C51 0.930 . S
N57 Cu46 1.985 . S
N57 C59 1.335 . S
N57 C60 1.390 . S
N58 C59 1.345 . S
N58 C61 1.336 . S
C59 N57 1.335 . S
C59 N58 1.345 . S
C59 H64 0.930 . S
C60 N57 1.390 . S
C60 C61 1.346 . S
C60 H65 0.930 . S
C61 N58 1.336 . S
C61 C60 1.346 . S
C61 H68 0.929 . S
C62 O52 1.282 . S
C62 O63 1.216 . S
O63 C62 1.216 . S
H64 C59 0.930 . S
H65 C60 0.930 . S
O66 Cu46 1.959 . S
O66 C53 1.249 1_554 S
H67 C50 0.930 . S
H68 C61 0.929 . S
Cu69 N70 1.999 . S
Cu69 O75 1.974 . S
Cu69 N80 1.985 . S
Cu69 O89 1.959 . S
N70 Cu69 1.999 . S
N70 C72 1.263 . S
N70 C74 1.389 . S
N71 C72 1.358 . S
N71 C73 1.400 . S
C72 N70 1.263 . S
C72 N71 1.358 . S
C72 H78 0.930 . S
C73 N71 1.400 . S
C73 C74 1.351 . S
C73 H90 0.930 . S
C74 N70 1.389 . S
C74 C73 1.351 . S
C74 H79 0.930 . S
O75 Cu69 1.974 . S
O75 C85 1.282 . S
C76 O77 1.261 . S
C76 O89 1.251 . S
O77 C76 1.261 . S
H78 C72 0.930 . S
H79 C74 0.930 . S
N80 Cu69 1.985 . S
N80 C82 1.335 . S
N80 C83 1.390 . S
N81 C82 1.345 . S
N81 C84 1.336 . S
C82 N80 1.335 . S
C82 N81 1.345 . S
C82 H87 0.930 . S
C83 N80 1.390 . S
C83 C84 1.346 . S
C83 H88 0.930 . S
C84 N81 1.336 . S
C84 C83 1.346 . S
C84 H91 0.929 . S
C85 O75 1.282 . S
C85 O86 1.216 1_545 S
O86 C85 1.216 1_565 S
H87 C82 0.930 . S
H88 C83 0.930 . S
O89 Cu69 1.959 . S
O89 C76 1.251 . S
H90 C73 0.930 . S
H91 C84 0.929 . S
Cu92 N93 1.999 . S
Cu92 O98 1.974 . S
Cu92 N103 1.985 . S
Cu92 O112 1.959 . S
N93 Cu92 1.999 . S
N93 C95 1.263 . S
N93 C97 1.389 . S
N94 C95 1.358 . S
N94 C96 1.400 . S
C95 N93 1.263 . S
C95 N94 1.358 . S
C95 H101 0.930 . S
C96 N94 1.400 . S
C96 C97 1.351 . S
C96 H113 0.930 . S
C97 N93 1.389 . S
C97 C96 1.351 . S
C97 H102 0.930 . S
O98 Cu92 1.974 . S
O98 C108 1.282 . S
C99 O100 1.261 . S
C99 O112 1.251 . S
O100 C99 1.261 . S
H101 C95 0.930 . S
H102 C97 0.930 . S
N103 Cu92 1.985 . S
N103 C105 1.335 . S
N103 C106 1.390 . S
N104 C105 1.345 . S
N104 C107 1.336 . S
C105 N103 1.335 . S
C105 N104 1.345 . S
C105 H110 0.930 . S
C106 N103 1.390 . S
C106 C107 1.346 . S
C106 H111 0.930 . S
C107 N104 1.336 . S
C107 C106 1.346 . S
C107 H114 0.929 . S
C108 O98 1.282 . S
C108 O109 1.216 . S
O109 C108 1.216 . S
H110 C105 0.930 . S
H111 C106 0.930 . S
O112 Cu92 1.959 . S
O112 C99 1.251 . S
H113 C96 0.930 . S
H114 C107 0.929 . S
Cu115 N116 1.999 . S
Cu115 O121 1.974 . S
Cu115 N126 1.985 . S
Cu115 O135 1.959 . S
N116 Cu115 1.999 . S
N116 C118 1.263 . S
N116 C120 1.389 . S
N117 C118 1.358 . S
N117 C119 1.400 . S
C118 N116 1.263 . S
C118 N117 1.358 . S
C118 H124 0.930 . S
C119 N117 1.400 . S
C119 C120 1.351 . S
C119 H136 0.930 . S
C120 N116 1.389 . S
C120 C119 1.351 . S
C120 H125 0.930 . S
O121 Cu115 1.974 . S
O121 C131 1.282 . S
C122 O123 1.261 . S
C122 O135 1.251 . S
O123 C122 1.261 . S
H124 C118 0.930 . S
H125 C120 0.930 . S
N126 Cu115 1.985 . S
N126 C128 1.335 . S
N126 C129 1.390 . S
N127 C128 1.345 . S
N127 C130 1.336 . S
C128 N126 1.335 . S
C128 N127 1.345 . S
C128 H133 0.930 . S
C129 N126 1.390 . S
C129 C130 1.346 . S
C129 H134 0.930 . S
C130 N127 1.336 . S
C130 C129 1.346 . S
C130 H137 0.929 . S
C131 O121 1.282 . S
C131 O132 1.216 . S
O132 C131 1.216 . S
H133 C128 0.930 . S
H134 C129 0.930 . S
O135 Cu115 1.959 . S
O135 C122 1.251 . S
H136 C119 0.930 . S
H137 C130 0.929 . S
Cu138 N139 1.999 . S
Cu138 O144 1.974 . S
Cu138 N149 1.985 . S
Cu138 O158 1.959 . S
N139 Cu138 1.999 . S
N139 C141 1.263 . S
N139 C143 1.389 . S
N140 C141 1.358 . S
N140 C142 1.400 . S
C141 N139 1.263 . S
C141 N140 1.358 . S
C141 H147 0.930 . S
C142 N140 1.400 . S
C142 C143 1.351 . S
C142 H159 0.930 . S
C143 N139 1.389 . S
C143 C142 1.351 . S
C143 H148 0.930 . S
O144 Cu138 1.974 . S
O144 C154 1.282 . S
C145 O146 1.261 . S
C145 O158 1.251 . S
O146 C145 1.261 . S
H147 C141 0.930 . S
H148 C143 0.930 . S
N149 Cu138 1.985 . S
N149 C151 1.335 . S
N149 C152 1.390 . S
N150 C151 1.345 . S
N150 C153 1.336 . S
C151 N149 1.335 . S
C151 N150 1.345 . S
C151 H156 0.930 . S
C152 N149 1.390 . S
C152 C153 1.346 . S
C152 H157 0.930 . S
C153 N150 1.336 . S
C153 C152 1.346 . S
C153 H160 0.929 . S
C154 O144 1.282 . S
C154 O155 1.216 . S
O155 C154 1.216 . S
H156 C151 0.930 . S
H157 C152 0.930 . S
O158 Cu138 1.959 . S
O158 C145 1.251 . S
H159 C142 0.930 . S
H160 C153 0.929 . S
Cu161 N162 1.999 . S
Cu161 O167 1.974 . S
Cu161 N172 1.985 . S
Cu161 O181 1.959 . S
N162 Cu161 1.999 . S
N162 C164 1.263 . S
N162 C166 1.389 . S
N163 C164 1.358 . S
N163 C165 1.400 . S
C164 N162 1.263 . S
C164 N163 1.358 . S
C164 H170 0.930 . S
C165 N163 1.400 . S
C165 C166 1.351 . S
C165 H182 0.930 . S
C166 N162 1.389 . S
C166 C165 1.351 . S
C166 H171 0.930 . S
O167 Cu161 1.974 . S
O167 C177 1.282 . S
C168 O169 1.261 . S
C168 O181 1.251 . S
O169 C168 1.261 . S
H170 C164 0.930 . S
H171 C166 0.930 . S
N172 Cu161 1.985 . S
N172 C174 1.335 . S
N172 C175 1.390 . S
N173 C174 1.345 . S
N173 C176 1.336 . S
C174 N172 1.335 . S
C174 N173 1.345 . S
C174 H179 0.930 . S
C175 N172 1.390 . S
C175 C176 1.346 . S
C175 H180 0.930 . S
C176 N173 1.336 . S
C176 C175 1.346 . S
C176 H183 0.929 . S
C177 O167 1.282 . S
C177 O178 1.216 . S
O178 C177 1.216 . S
H179 C174 0.930 . S
H180 C175 0.930 . S
O181 Cu161 1.959 . S
O181 C168 1.251 . S
H182 C165 0.930 . S
H183 C176 0.929 . S
Cu184 N185 1.999 . S
Cu184 O190 1.974 . S
Cu184 N195 1.985 . S
Cu184 O204 1.959 . S
N185 Cu184 1.999 . S
N185 C187 1.263 . S
N185 C189 1.389 . S
N186 C187 1.358 . S
N186 C188 1.400 . S
C187 N185 1.263 . S
C187 N186 1.358 . S
C187 H193 0.930 . S
C188 N186 1.400 . S
C188 C189 1.351 . S
C188 H205 0.930 . S
C189 N185 1.389 . S
C189 C188 1.351 . S
C189 H194 0.930 . S
O190 Cu184 1.974 . S
O190 C200 1.282 . S
C191 O192 1.261 . S
C191 O204 1.251 . S
O192 C191 1.261 . S
H193 C187 0.930 . S
H194 C189 0.930 . S
N195 Cu184 1.985 . S
N195 C197 1.335 . S
N195 C198 1.390 . S
N196 C197 1.345 . S
N196 C199 1.336 . S
C197 N195 1.335 . S
C197 N196 1.345 . S
C197 H202 0.930 . S
C198 N195 1.390 . S
C198 C199 1.346 . S
C198 H203 0.930 . S
C199 N196 1.336 . S
C199 C198 1.346 . S
C199 H206 0.929 . S
C200 O190 1.282 . S
C200 O201 1.216 . S
O201 C200 1.216 . S
H202 C197 0.930 . S
H203 C198 0.930 . S
O204 Cu184 1.959 . S
O204 C191 1.251 . S
H205 C188 0.930 . S
H206 C199 0.929 . S
Cu207 N208 1.999 . S
Cu207 O213 1.974 . S
Cu207 N218 1.985 . S
Cu207 O227 1.959 . S
N208 Cu207 1.999 . S
N208 C210 1.263 . S
N208 C212 1.389 . S
N209 C210 1.358 . S
N209 C211 1.400 . S
C210 N208 1.263 . S
C210 N209 1.358 . S
C210 H216 0.930 . S
C211 N209 1.400 . S
C211 C212 1.351 . S
C211 H228 0.930 . S
C212 N208 1.389 . S
C212 C211 1.351 . S
C212 H217 0.930 . S
O213 Cu207 1.974 . S
O213 C223 1.282 . S
C214 O215 1.261 . S
C214 O227 1.251 . S
O215 C214 1.261 . S
H216 C210 0.930 . S
H217 C212 0.930 . S
N218 Cu207 1.985 . S
N218 C220 1.335 . S
N218 C221 1.390 . S
N219 C220 1.345 . S
N219 C222 1.336 . S
C220 N218 1.335 . S
C220 N219 1.345 . S
C220 H225 0.930 . S
C221 N218 1.390 . S
C221 C222 1.346 . S
C221 H226 0.930 . S
C222 N219 1.336 . S
C222 C221 1.346 . S
C222 H229 0.929 . S
C223 O213 1.282 . S
C223 O224 1.216 . S
O224 C223 1.216 . S
H225 C220 0.930 . S
H226 C221 0.930 . S
O227 Cu207 1.959 . S
O227 C214 1.251 . S
H228 C211 0.930 . S
H229 C222 0.929 . S
Cu230 N231 1.999 . S
Cu230 O236 1.974 . S
Cu230 N241 1.985 . S
Cu230 O250 1.959 . S
N231 Cu230 1.999 . S
N231 C233 1.263 . S
N231 C235 1.389 . S
N232 C233 1.358 . S
N232 C234 1.400 . S
C233 N231 1.263 . S
C233 N232 1.358 . S
C233 H239 0.930 . S
C234 N232 1.400 . S
C234 C235 1.351 . S
C234 H251 0.930 . S
C235 N231 1.389 . S
C235 C234 1.351 . S
C235 H240 0.930 . S
O236 Cu230 1.974 . S
O236 C246 1.282 . S
C237 O238 1.261 . S
C237 O250 1.251 . S
O238 C237 1.261 . S
H239 C233 0.930 . S
H240 C235 0.930 . S
N241 Cu230 1.985 . S
N241 C243 1.335 . S
N241 C244 1.390 . S
N242 C243 1.345 . S
N242 C245 1.336 . S
C243 N241 1.335 . S
C243 N242 1.345 . S
C243 H248 0.930 . S
C244 N241 1.390 . S
C244 C245 1.346 . S
C244 H249 0.930 . S
C245 N242 1.336 . S
C245 C244 1.346 . S
C245 H252 0.929 . S
C246 O236 1.282 . S
C246 O247 1.216 . S
O247 C246 1.216 . S
H248 C243 0.930 . S
H249 C244 0.930 . S
O250 Cu230 1.959 . S
O250 C237 1.251 . S
H251 C234 0.930 . S
H252 C245 0.929 . S
Cu253 N254 1.999 . S
Cu253 O259 1.974 . S
Cu253 N264 1.985 . S
Cu253 O273 1.959 . S
N254 Cu253 1.999 . S
N254 C256 1.263 . S
N254 C258 1.389 . S
N255 C256 1.358 . S
N255 C257 1.400 . S
C256 N254 1.263 . S
C256 N255 1.358 . S
C256 H262 0.930 . S
C257 N255 1.400 . S
C257 C258 1.351 . S
C257 H274 0.930 . S
C258 N254 1.389 . S
C258 C257 1.351 . S
C258 H263 0.930 . S
O259 Cu253 1.974 . S
O259 C269 1.282 . S
C260 O261 1.261 . S
C260 O273 1.251 . S
O261 C260 1.261 . S
H262 C256 0.930 . S
H263 C258 0.930 . S
N264 Cu253 1.985 . S
N264 C266 1.335 . S
N264 C267 1.390 . S
N265 C266 1.345 . S
N265 C268 1.336 . S
C266 N264 1.335 . S
C266 N265 1.345 . S
C266 H271 0.930 . S
C267 N264 1.390 . S
C267 C268 1.346 . S
C267 H272 0.930 . S
C268 N265 1.336 . S
C268 C267 1.346 . S
C268 H275 0.929 . S
C269 O259 1.282 . S
C269 O270 1.216 . S
O270 C269 1.216 . S
H271 C266 0.930 . S
H272 C267 0.930 . S
O273 Cu253 1.959 . S
O273 C260 1.251 . S
H274 C257 0.930 . S
H275 C268 0.929 . S
Cu276 N277 1.999 . S
Cu276 O282 1.974 . S
Cu276 N287 1.985 . S
Cu276 O296 1.959 . S
N277 Cu276 1.999 . S
N277 C279 1.263 . S
N277 C281 1.389 . S
N278 C279 1.358 . S
N278 C280 1.400 . S
C279 N277 1.263 . S
C279 N278 1.358 . S
C279 H285 0.930 . S
C280 N278 1.400 . S
C280 C281 1.351 . S
C280 H297 0.930 . S
C281 N277 1.389 . S
C281 C280 1.351 . S
C281 H286 0.930 . S
O282 Cu276 1.974 . S
O282 C292 1.282 . S
C283 O284 1.261 . S
C283 O296 1.251 . S
O284 C283 1.261 . S
H285 C279 0.930 . S
H286 C281 0.930 . S
N287 Cu276 1.985 . S
N287 C289 1.335 . S
N287 C290 1.390 . S
N288 C289 1.345 . S
N288 C291 1.336 . S
C289 N287 1.335 . S
C289 N288 1.345 . S
C289 H294 0.930 . S
C290 N287 1.390 . S
C290 C291 1.346 . S
C290 H295 0.930 . S
C291 N288 1.336 . S
C291 C290 1.346 . S
C291 H298 0.929 . S
C292 O282 1.282 . S
C292 O293 1.216 . S
O293 C292 1.216 . S
H294 C289 0.930 . S
H295 C290 0.930 . S
O296 Cu276 1.959 . S
O296 C283 1.251 . S
H297 C280 0.930 . S
H298 C291 0.929 . S
Cu299 N300 1.999 . S
Cu299 O305 1.974 . S
Cu299 N310 1.985 . S
Cu299 O319 1.959 . S
N300 Cu299 1.999 . S
N300 C302 1.263 . S
N300 C304 1.389 . S
N301 C302 1.358 . S
N301 C303 1.400 . S
C302 N300 1.263 . S
C302 N301 1.358 . S
C302 H308 0.930 . S
C303 N301 1.400 . S
C303 C304 1.351 . S
C303 H320 0.930 . S
C304 N300 1.389 . S
C304 C303 1.351 . S
C304 H309 0.930 . S
O305 Cu299 1.974 . S
O305 C315 1.282 . S
C306 O307 1.261 . S
C306 O319 1.251 . S
O307 C306 1.261 . S
H308 C302 0.930 . S
H309 C304 0.930 . S
N310 Cu299 1.985 . S
N310 C312 1.335 . S
N310 C313 1.390 . S
N311 C312 1.345 . S
N311 C314 1.336 . S
C312 N310 1.335 . S
C312 N311 1.345 . S
C312 H317 0.930 . S
C313 N310 1.390 . S
C313 C314 1.346 . S
C313 H318 0.930 . S
C314 N311 1.336 . S
C314 C313 1.346 . S
C314 H321 0.929 . S
C315 O305 1.282 . S
C315 O316 1.216 . S
O316 C315 1.216 . S
H317 C312 0.930 . S
H318 C313 0.930 . S
O319 Cu299 1.959 . S
O319 C306 1.251 . S
H320 C303 0.930 . S
H321 C314 0.929 . S
Cu322 N323 1.999 . S
Cu322 O328 1.974 . S
Cu322 N333 1.985 . S
Cu322 O342 1.959 . S
N323 Cu322 1.999 . S
N323 C325 1.263 . S
N323 C327 1.389 . S
N324 C325 1.358 . S
N324 C326 1.400 . S
C325 N323 1.263 . S
C325 N324 1.358 . S
C325 H331 0.930 . S
C326 N324 1.400 . S
C326 C327 1.351 . S
C326 H343 0.930 . S
C327 N323 1.389 . S
C327 C326 1.351 . S
C327 H332 0.930 . S
O328 Cu322 1.974 . S
O328 C338 1.282 . S
C329 O330 1.261 . S
C329 O342 1.251 . S
O330 C329 1.261 . S
H331 C325 0.930 . S
H332 C327 0.930 . S
N333 Cu322 1.985 . S
N333 C335 1.335 . S
N333 C336 1.390 . S
N334 C335 1.345 . S
N334 C337 1.336 . S
C335 N333 1.335 . S
C335 N334 1.345 . S
C335 H340 0.930 . S
C336 N333 1.390 . S
C336 C337 1.346 . S
C336 H341 0.930 . S
C337 N334 1.336 . S
C337 C336 1.346 . S
C337 H344 0.929 . S
C338 O328 1.282 . S
C338 O339 1.216 . S
O339 C338 1.216 . S
H340 C335 0.930 . S
H341 C336 0.930 . S
O342 Cu322 1.959 . S
O342 C329 1.251 . S
H343 C326 0.930 . S
H344 C337 0.929 . S
Cu345 N346 1.999 . S
Cu345 O351 1.974 . S
Cu345 N356 1.985 . S
Cu345 O365 1.959 . S
N346 Cu345 1.999 . S
N346 C348 1.263 . S
N346 C350 1.389 . S
N347 C348 1.358 . S
N347 C349 1.400 . S
C348 N346 1.263 . S
C348 N347 1.358 . S
C348 H354 0.930 . S
C349 N347 1.400 . S
C349 C350 1.351 . S
C349 H366 0.930 . S
C350 N346 1.389 . S
C350 C349 1.351 . S
C350 H355 0.930 . S
O351 Cu345 1.974 . S
O351 C361 1.282 . S
C352 O353 1.261 . S
C352 O365 1.251 . S
O353 C352 1.261 . S
H354 C348 0.930 . S
H355 C350 0.930 . S
N356 Cu345 1.985 . S
N356 C358 1.335 . S
N356 C359 1.390 . S
N357 C358 1.345 . S
N357 C360 1.336 . S
C358 N356 1.335 . S
C358 N357 1.345 . S
C358 H363 0.930 . S
C359 N356 1.390 . S
C359 C360 1.346 . S
C359 H364 0.930 . S
C360 N357 1.336 . S
C360 C359 1.346 . S
C360 H367 0.929 . S
C361 O351 1.282 . S
C361 O362 1.216 . S
O362 C361 1.216 . S
H363 C358 0.930 . S
H364 C359 0.930 . S
O365 Cu345 1.959 . S
O365 C352 1.251 . S
H366 C349 0.930 . S
H367 C360 0.929 . S
Cu368 N369 1.999 . S
Cu368 O374 1.974 . S
Cu368 N379 1.985 . S
Cu368 O388 1.959 . S
N369 Cu368 1.999 . S
N369 C371 1.263 . S
N369 C373 1.389 . S
N370 C371 1.358 . S
N370 C372 1.400 . S
C371 N369 1.263 . S
C371 N370 1.358 . S
C371 H377 0.930 . S
C372 N370 1.400 . S
C372 C373 1.351 . S
C372 H389 0.930 . S
C373 N369 1.389 . S
C373 C372 1.351 . S
C373 H378 0.930 . S
O374 Cu368 1.974 . S
O374 C384 1.282 . S
C375 O376 1.261 . S
C375 O388 1.251 . S
O376 C375 1.261 . S
H377 C371 0.930 . S
H378 C373 0.930 . S
N379 Cu368 1.985 . S
N379 C381 1.335 . S
N379 C382 1.390 . S
N380 C381 1.345 . S
N380 C383 1.336 . S
C381 N379 1.335 . S
C381 N380 1.345 . S
C381 H386 0.930 . S
C382 N379 1.390 . S
C382 C383 1.346 . S
C382 H387 0.930 . S
C383 N380 1.336 . S
C383 C382 1.346 . S
C383 H390 0.929 . S
C384 O374 1.282 . S
C384 O385 1.216 . S
O385 C384 1.216 . S
H386 C381 0.930 . S
H387 C382 0.930 . S
O388 Cu368 1.959 . S
O388 C375 1.251 . S
H389 C372 0.930 . S
H390 C383 0.929 . S
Cu391 N392 1.999 . S
Cu391 O397 1.974 . S
Cu391 N402 1.985 . S
Cu391 O411 1.959 . S
N392 Cu391 1.999 . S
N392 C394 1.263 . S
N392 C396 1.389 . S
N393 C394 1.358 . S
N393 C395 1.400 . S
C394 N392 1.263 . S
C394 N393 1.358 . S
C394 H400 0.930 . S
C395 N393 1.400 . S
C395 C396 1.351 . S
C395 H412 0.930 . S
C396 N392 1.389 . S
C396 C395 1.351 . S
C396 H401 0.930 . S
O397 Cu391 1.974 . S
O397 C407 1.282 . S
C398 O399 1.261 . S
C398 O411 1.251 . S
O399 C398 1.261 . S
H400 C394 0.930 . S
H401 C396 0.930 . S
N402 Cu391 1.985 . S
N402 C404 1.335 . S
N402 C405 1.390 . S
N403 C404 1.345 . S
N403 C406 1.336 . S
C404 N402 1.335 . S
C404 N403 1.345 . S
C404 H409 0.930 . S
C405 N402 1.390 . S
C405 C406 1.346 . S
C405 H410 0.930 . S
C406 N403 1.336 . S
C406 C405 1.346 . S
C406 H413 0.929 . S
C407 O397 1.282 . S
C407 O408 1.216 . S
O408 C407 1.216 . S
H409 C404 0.930 . S
H410 C405 0.930 . S
O411 Cu391 1.959 . S
O411 C398 1.251 . S
H412 C395 0.930 . S
H413 C406 0.929 . S
Zn414 O417 2.031 . S
Zn414 O419 2.049 . S
Zn414 O424 2.023 1_455 S
Zn415 O416 1.962 . S
Zn415 O418 1.986 . S
Zn415 O420 1.996 . S
Zn415 O423 1.943 1_455 S
O416 Zn415 1.962 . S
O416 C421 1.254 . S
O417 Zn414 2.031 . S
O417 C421 1.269 . S
O418 Zn415 1.986 . S
O418 C425 1.262 . S
O419 Zn414 2.049 . S
O419 C427 1.260 . S
O420 Zn415 1.996 . S
O420 C427 1.257 . S
C421 O416 1.254 . S
C421 O417 1.269 . S
C422 O423 1.249 . S
C422 O424 1.281 . S
O423 Zn415 1.943 1_655 S
O423 C422 1.249 . S
O424 Zn414 2.023 1_655 S
O424 C422 1.281 . S
C425 O418 1.262 . S
C425 O426 1.232 . S
O426 C425 1.232 . S
C427 O419 1.260 . S
C427 O420 1.257 . S
Zn428 O431 2.031 . S
Zn428 O433 2.049 . S
Zn428 O438 2.067 . S
Zn429 O430 1.962 . S
Zn429 O432 1.986 . S
Zn429 O434 1.996 . S
Zn429 O437 1.943 . S
O430 Zn429 1.962 . S
O430 C435 1.254 . S
O431 Zn428 2.031 . S
O431 C435 1.269 . S
O432 Zn429 1.986 . S
O432 C439 1.262 . S
O433 Zn428 2.049 . S
O433 C441 1.260 . S
O434 Zn429 1.996 . S
O434 C441 1.257 . S
C435 O430 1.254 . S
C435 O431 1.269 . S
C436 O437 1.249 . S
C436 O438 1.270 . S
O437 Zn429 1.943 . S
O437 C436 1.249 . S
O438 Zn428 2.067 . S
O438 C436 1.270 . S
C439 O432 1.262 . S
C439 O440 1.232 . S
O440 C439 1.232 . S
C441 O433 1.260 . S
C441 O434 1.257 . S
Zn442 O445 2.031 . S
Zn442 O447 2.049 . S
Zn442 O452 2.067 . S
Zn443 O444 1.962 . S
Zn443 O446 1.986 . S
Zn443 O448 1.996 . S
Zn443 O451 1.943 . S
O444 Zn443 1.962 . S
O444 C449 1.254 . S
O445 Zn442 2.031 . S
O445 C449 1.269 . S
O446 Zn443 1.986 . S
O446 C453 1.262 . S
O447 Zn442 2.049 . S
O447 C455 1.260 . S
O448 Zn443 1.996 . S
O448 C455 1.257 . S
C449 O444 1.254 . S
C449 O445 1.269 . S
C450 O451 1.249 . S
C450 O452 1.270 . S
O451 Zn443 1.943 . S
O451 C450 1.249 . S
O452 Zn442 2.067 . S
O452 C450 1.270 . S
C453 O446 1.262 . S
C453 O454 1.232 . S
O454 C453 1.232 . S
C455 O447 1.260 . S
C455 O448 1.257 . S
Zn456 O459 2.031 . S
Zn456 O461 2.049 . S
Zn456 O466 2.067 . S
Zn457 O458 1.962 1_455 S
Zn457 O460 1.986 . S
Zn457 O462 1.996 . S
Zn457 O465 1.943 . S
O458 Zn457 1.962 1_655 S
O458 C463 1.254 . S
O459 Zn456 2.031 . S
O459 C463 1.269 1_455 S
O460 Zn457 1.986 . S
O460 C467 1.262 . S
O461 Zn456 2.049 . S
O461 C469 1.260 . S
O462 Zn457 1.996 . S
O462 C469 1.257 . S
C463 O458 1.254 . S
C463 O459 1.269 1_655 S
C464 O465 1.249 . S
C464 O466 1.270 . S
O465 Zn457 1.943 . S
O465 C464 1.249 . S
O466 Zn456 2.067 . S
O466 C464 1.270 . S
C467 O460 1.262 . S
C467 O468 1.232 . S
O468 C467 1.232 . S
C469 O461 1.260 . S
C469 O462 1.257 . S
Zn470 O473 2.031 . S
Zn470 O475 2.049 . S
Zn470 O480 2.067 . S
Zn471 O472 1.962 . S
Zn471 O474 1.986 . S
Zn471 O476 1.996 . S
Zn471 O479 1.943 . S
O472 Zn471 1.962 . S
O472 C477 1.254 . S
O473 Zn470 2.031 . S
O473 C477 1.269 . S
O474 Zn471 1.986 . S
O474 C481 1.262 . S
O475 Zn470 2.049 . S
O475 C483 1.260 . S
O476 Zn471 1.996 . S
O476 C483 1.257 . S
C477 O472 1.254 . S
C477 O473 1.269 . S
C478 O479 1.249 . S
C478 O480 1.270 . S
O479 Zn471 1.943 . S
O479 C478 1.249 . S
O480 Zn470 2.067 . S
O480 C478 1.270 . S
C481 O474 1.262 . S
C481 O482 1.232 . S
O482 C481 1.232 . S
C483 O475 1.260 . S
C483 O476 1.257 . S
Zn484 O487 2.031 . S
Zn484 O489 2.049 . S
Zn484 O494 2.067 . S
Zn485 O486 1.962 . S
Zn485 O488 1.986 . S
Zn485 O490 1.996 . S
Zn485 O493 1.943 . S
O486 Zn485 1.962 . S
O486 C491 1.254 . S
O487 Zn484 2.031 . S
O487 C491 1.269 . S
O488 Zn485 1.986 . S
O488 C495 1.262 . S
O489 Zn484 2.049 . S
O489 C497 1.260 . S
O490 Zn485 1.996 . S
O490 C497 1.257 . S
C491 O486 1.254 . S
C491 O487 1.269 . S
C492 O493 1.249 . S
C492 O494 1.270 . S
O493 Zn485 1.943 . S
O493 C492 1.249 . S
O494 Zn484 2.067 . S
O494 C492 1.270 . S
C495 O488 1.262 . S
C495 O496 1.232 . S
O496 C495 1.232 . S
C497 O489 1.260 . S
C497 O490 1.257 . S
Zn498 O501 2.031 1_545 S
Zn498 O503 2.049 . S
Zn498 O508 2.067 . S
Zn499 O500 1.962 . S
Zn499 O502 1.986 . S
Zn499 O504 1.996 1_565 S
Zn499 O507 1.943 . S
O500 Zn499 1.962 . S
O500 C505 1.254 . S
O501 Zn498 2.031 1_565 S
O501 C505 1.269 . S
O502 Zn499 1.986 . S
O502 C509 1.262 . S
O503 Zn498 2.049 . S
O503 C511 1.260 . S
O504 Zn499 1.996 1_545 S
O504 C511 1.257 . S
C505 O500 1.254 . S
C505 O501 1.269 . S
C506 O507 1.249 1_545 S
C506 O508 1.270 . S
O507 Zn499 1.943 . S
O507 C506 1.249 1_565 S
O508 Zn498 2.067 . S
O508 C506 1.270 . S
C509 O502 1.262 . S
C509 O510 1.232 . S
O510 C509 1.232 . S
C511 O503 1.260 . S
C511 O504 1.257 . S
Zn512 O515 2.031 . S
Zn512 O517 2.049 . S
Zn512 O522 2.067 . S
Zn513 O514 1.962 . S
Zn513 O516 1.986 . S
Zn513 O518 1.996 . S
Zn513 O521 1.943 . S
O514 Zn513 1.962 . S
O514 C519 1.254 . S
O515 Zn512 2.031 . S
O515 C519 1.269 . S
O516 Zn513 1.986 . S
O516 C523 1.262 . S
O517 Zn512 2.049 . S
O517 C525 1.260 . S
O518 Zn513 1.996 . S
O518 C525 1.257 . S
C519 O514 1.254 . S
C519 O515 1.269 . S
C520 O521 1.249 . S
C520 O522 1.270 . S
O521 Zn513 1.943 . S
O521 C520 1.249 . S
O522 Zn512 2.067 . S
O522 C520 1.270 . S
C523 O516 1.262 . S
C523 O524 1.232 . S
O524 C523 1.232 . S
C525 O517 1.260 . S
C525 O518 1.257 . S
Zn526 O529 2.031 . S
Zn526 O531 2.049 . S
Zn526 O536 2.067 . S
Zn527 O528 1.962 . S
Zn527 O530 1.986 . S
Zn527 O532 1.996 . S
Zn527 O535 1.943 . S
O528 Zn527 1.962 . S
O528 C533 1.254 . S
O529 Zn526 2.031 . S
O529 C533 1.269 . S
O530 Zn527 1.986 . S
O530 C537 1.262 . S
O531 Zn526 2.049 . S
O531 C539 1.260 . S
O532 Zn527 1.996 . S
O532 C539 1.257 . S
C533 O528 1.254 . S
C533 O529 1.269 . S
C534 O535 1.249 . S
C534 O536 1.270 . S
O535 Zn527 1.943 . S
O535 C534 1.249 . S
O536 Zn526 2.067 . S
O536 C534 1.270 . S
C537 O530 1.262 . S
C537 O538 1.232 . S
O538 C537 1.232 . S
C539 O531 1.260 . S
C539 O532 1.257 . S
Zn540 O543 2.031 . S
Zn540 O545 2.049 . S
Zn540 O550 2.067 . S
Zn541 O542 1.962 . S
Zn541 O544 1.986 . S
Zn541 O546 1.996 . S
Zn541 O549 1.943 . S
O542 Zn541 1.962 . S
O542 C547 1.254 . S
O543 Zn540 2.031 . S
O543 C547 1.269 . S
O544 Zn541 1.986 . S
O544 C551 1.262 . S
O545 Zn540 2.049 . S
O545 C553 1.260 . S
O546 Zn541 1.996 . S
O546 C553 1.257 . S
C547 O542 1.254 . S
C547 O543 1.269 . S
C548 O549 1.249 . S
C548 O550 1.270 . S
O549 Zn541 1.943 . S
O549 C548 1.249 . S
O550 Zn540 2.067 . S
O550 C548 1.270 . S
C551 O544 1.262 . S
C551 O552 1.232 . S
O552 C551 1.232 . S
C553 O545 1.260 . S
C553 O546 1.257 . S
Zn554 O557 2.031 . S
Zn554 O559 2.049 1_545 S
Zn554 O564 2.067 . S
Zn555 O556 1.962 1_565 S
Zn555 O558 1.986 . S
Zn555 O560 1.996 . S
Zn555 O563 1.943 . S
O556 Zn555 1.962 1_545 S
O556 C561 1.254 . S
O557 Zn554 2.031 . S
O557 C561 1.269 . S
O558 Zn555 1.986 . S
O558 C565 1.262 . S
O559 Zn554 2.049 1_565 S
O559 C567 1.260 . S
O560 Zn555 1.996 . S
O560 C567 1.257 . S
C561 O556 1.254 . S
C561 O557 1.269 . S
C562 O563 1.248 1_545 S
C562 O564 1.274 . S
O563 Zn555 1.943 . S
O563 C562 1.248 1_565 S
O564 Zn554 2.067 . S
O564 C562 1.274 . S
C565 O558 1.262 . S
C565 O566 1.232 . S
O566 C565 1.232 . S
C567 O559 1.260 . S
C567 O560 1.257 . S
Zn568 O571 2.031 . S
Zn568 O573 2.049 . S
Zn568 O578 2.067 . S
Zn569 O570 1.962 . S
Zn569 O572 1.986 . S
Zn569 O574 1.996 . S
Zn569 O577 1.943 . S
O570 Zn569 1.962 . S
O570 C575 1.254 . S
O571 Zn568 2.031 . S
O571 C575 1.269 . S
O572 Zn569 1.986 . S
O572 C579 1.262 . S
O573 Zn568 2.049 . S
O573 C581 1.260 . S
O574 Zn569 1.996 . S
O574 C581 1.257 . S
C575 O570 1.254 . S
C575 O571 1.269 . S
C576 O577 1.249 . S
C576 O578 1.270 . S
O577 Zn569 1.943 . S
O577 C576 1.249 . S
O578 Zn568 2.067 . S
O578 C576 1.270 . S
C579 O572 1.262 . S
C579 O580 1.232 . S
O580 C579 1.232 . S
C581 O573 1.260 . S
C581 O574 1.257 . S
Zn582 O585 2.031 . S
Zn582 O587 2.049 . S
Zn582 O592 2.067 . S
Zn583 O584 1.962 . S
Zn583 O586 1.986 . S
Zn583 O588 1.996 . S
Zn583 O591 1.943 . S
O584 Zn583 1.962 . S
O584 C589 1.254 . S
O585 Zn582 2.031 . S
O585 C589 1.269 . S
O586 Zn583 1.986 . S
O586 C593 1.262 . S
O587 Zn582 2.049 . S
O587 C595 1.260 . S
O588 Zn583 1.996 . S
O588 C595 1.257 . S
C589 O584 1.254 . S
C589 O585 1.269 . S
C590 O591 1.249 . S
C590 O592 1.270 . S
O591 Zn583 1.943 . S
O591 C590 1.249 . S
O592 Zn582 2.067 . S
O592 C590 1.270 . S
C593 O586 1.262 . S
C593 O594 1.232 . S
O594 C593 1.232 . S
C595 O587 1.260 . S
C595 O588 1.257 . S
Zn596 O599 2.031 . S
Zn596 O601 2.049 . S
Zn596 O606 2.067 . S
Zn597 O598 1.962 . S
Zn597 O600 1.986 . S
Zn597 O602 1.996 . S
Zn597 O605 1.943 . S
O598 Zn597 1.962 . S
O598 C603 1.254 . S
O599 Zn596 2.031 . S
O599 C603 1.269 . S
O600 Zn597 1.986 . S
O600 C607 1.262 . S
O601 Zn596 2.049 . S
O601 C609 1.260 . S
O602 Zn597 1.996 . S
O602 C609 1.257 . S
C603 O598 1.254 . S
C603 O599 1.269 . S
C604 O605 1.249 . S
C604 O606 1.270 . S
O605 Zn597 1.943 . S
O605 C604 1.249 . S
O606 Zn596 2.067 . S
O606 C604 1.270 . S
C607 O600 1.262 . S
C607 O608 1.232 . S
O608 C607 1.232 . S
C609 O601 1.260 . S
C609 O602 1.257 . S
Zn610 O613 2.031 . S
Zn610 O615 2.049 1_655 S
Zn610 O620 2.067 1_655 S
Zn611 O612 1.962 . S
Zn611 O614 1.986 . S
Zn611 O616 1.996 . S
Zn611 O619 1.943 . S
O612 Zn611 1.962 . S
O612 C617 1.254 . S
O613 Zn610 2.031 . S
O613 C617 1.269 . S
O614 Zn611 1.986 . S
O614 C621 1.262 . S
O615 Zn610 2.049 1_455 S
O615 C623 1.260 1_455 S
O616 Zn611 1.996 . S
O616 C623 1.257 . S
C617 O612 1.254 . S
C617 O613 1.269 . S
C618 O619 1.249 1_455 S
C618 O620 1.270 . S
O619 Zn611 1.943 . S
O619 C618 1.249 1_655 S
O620 Zn610 2.067 1_455 S
O620 C618 1.270 . S
C621 O614 1.262 . S
C621 O622 1.232 . S
O622 C621 1.232 . S
C623 O615 1.260 1_655 S
C623 O616 1.257 . S
Zn624 O627 2.031 . S
Zn624 O629 2.049 . S
Zn624 O634 2.067 . S
Zn625 O626 1.962 . S
Zn625 O628 1.986 . S
Zn625 O630 1.996 . S
Zn625 O633 1.943 . S
O626 Zn625 1.962 . S
O626 C631 1.254 . S
O627 Zn624 2.031 . S
O627 C631 1.269 . S
O628 Zn625 1.986 . S
O628 C635 1.262 . S
O629 Zn624 2.049 . S
O629 C637 1.260 . S
O630 Zn625 1.996 . S
O630 C637 1.257 . S
C631 O626 1.254 . S
C631 O627 1.269 . S
C632 O633 1.249 . S
C632 O634 1.270 . S
O633 Zn625 1.943 . S
O633 C632 1.249 . S
O634 Zn624 2.067 . S
O634 C632 1.270 . S
C635 O628 1.262 . S
C635 O636 1.232 . S
O636 C635 1.232 . S
C637 O629 1.260 . S
C637 O630 1.257 . S
Zn638 O641 2.031 1_655 S
Zn638 O643 2.049 . S
Zn638 O648 2.067 1_655 S
Zn639 O640 1.962 . S
Zn639 O642 1.986 . S
Zn639 O644 1.996 . S
Zn639 O647 1.943 . S
O640 Zn639 1.962 . S
O640 C645 1.254 . S
O641 Zn638 2.031 1_455 S
O641 C645 1.269 1_455 S
O642 Zn639 1.986 . S
O642 C649 1.262 . S
O643 Zn638 2.049 . S
O643 C651 1.260 . S
O644 Zn639 1.996 . S
O644 C651 1.257 . S
C645 O640 1.254 . S
C645 O641 1.269 1_655 S
C646 O647 1.249 1_455 S
C646 O648 1.270 . S
O647 Zn639 1.943 . S
O647 C646 1.249 1_655 S
O648 Zn638 2.067 1_455 S
O648 C646 1.270 . S
C649 O642 1.262 . S
C649 O650 1.232 . S
O650 C649 1.232 . S
C651 O643 1.260 . S
C651 O644 1.257 . S
Zn652 O655 2.031 . S
Zn652 O657 2.049 . S
Zn652 O662 2.067 . S
Zn653 O654 1.962 . S
Zn653 O656 1.986 . S
Zn653 O658 1.996 . S
Zn653 O661 1.943 . S
O654 Zn653 1.962 . S
O654 C659 1.254 . S
O655 Zn652 2.031 . S
O655 C659 1.269 . S
O656 Zn653 1.986 . S
O656 C663 1.262 . S
O657 Zn652 2.049 . S
O657 C665 1.260 . S
O658 Zn653 1.996 . S
O658 C665 1.257 . S
C659 O654 1.254 . S
C659 O655 1.269 . S
C660 O661 1.249 . S
C660 O662 1.270 . S
O661 Zn653 1.943 . S
O661 C660 1.249 . S
O662 Zn652 2.067 . S
O662 C660 1.270 . S
C663 O656 1.262 . S
C663 O664 1.232 . S
O664 C663 1.232 . S
C665 O657 1.260 . S
C665 O658 1.257 . S
C666 C667 1.391 . S
C666 C668 1.394 . S
C666 H682 0.931 . S
C667 C666 1.391 . S
C667 C671 1.376 . S
C668 C666 1.394 . S
C668 C669 1.369 . S
C668 C672 1.531 . S
C669 C668 1.369 . S
C669 C670 1.410 . S
C669 C677 1.503 . S
C670 C669 1.410 . S
C670 C671 1.392 . S
C670 C673 1.511 . S
C671 C667 1.376 . S
C671 C670 1.392 . S
C671 H683 0.929 . S
C672 C668 1.531 . S
C672 H684 0.960 . S
C672 H685 0.962 . S
C672 H686 0.960 . S
C673 C670 1.511 . S
C673 H687 0.961 . S
C673 H688 0.961 . S
C673 H689 0.961 . S
C674 C675 1.370 . S
C674 C676 1.363 . S
C674 H690 0.931 . S
C675 C674 1.370 . S
C675 C679 1.408 . S
C676 C674 1.363 . S
C676 C677 1.370 . S
C676 C680 1.524 . S
C677 C669 1.503 . S
C677 C676 1.370 . S
C677 C678 1.403 . S
C678 C677 1.403 . S
C678 C679 1.404 . S
C678 C681 1.539 . S
C679 C675 1.408 . S
C679 C678 1.404 . S
C679 H691 0.930 . S
C680 C676 1.524 . S
C680 H692 0.956 . S
C680 H693 0.961 . S
C680 H694 0.961 . S
C681 C678 1.539 . S
C681 H695 0.958 . S
C681 H696 0.961 . S
C681 H697 0.960 . S
H682 C666 0.931 . S
H683 C671 0.929 . S
H684 C672 0.960 . S
H685 C672 0.962 . S
H686 C672 0.960 . S
H687 C673 0.961 . S
H688 C673 0.961 . S
H689 C673 0.961 . S
H690 C674 0.931 . S
H691 C679 0.930 . S
H692 C680 0.956 . S
H693 C680 0.961 . S
H694 C680 0.961 . S
H695 C681 0.958 . S
H696 C681 0.961 . S
H697 C681 0.960 . S
C698 C699 1.391 . S
C698 C700 1.394 . S
C698 H714 0.931 . S
C699 C698 1.391 . S
C699 C703 1.376 . S
C700 C698 1.394 . S
C700 C701 1.369 . S
C700 C704 1.531 . S
C701 C700 1.369 . S
C701 C702 1.410 . S
C701 C709 1.503 . S
C702 C701 1.410 . S
C702 C703 1.392 . S
C702 C705 1.511 . S
C703 C699 1.376 . S
C703 C702 1.392 . S
C703 H715 0.929 . S
C704 C700 1.531 . S
C704 H716 0.960 . S
C704 H717 0.962 . S
C704 H718 0.960 . S
C705 C702 1.511 . S
C705 H719 0.961 . S
C705 H720 0.961 . S
C705 H721 0.961 . S
C706 C707 1.370 . S
C706 C708 1.363 . S
C706 H722 0.931 . S
C707 C706 1.370 . S
C707 C711 1.408 . S
C708 C706 1.363 . S
C708 C709 1.370 . S
C708 C712 1.524 . S
C709 C701 1.503 . S
C709 C708 1.370 . S
C709 C710 1.403 . S
C710 C709 1.403 . S
C710 C711 1.404 . S
C710 C713 1.539 . S
C711 C707 1.408 . S
C711 C710 1.404 . S
C711 H723 0.930 . S
C712 C708 1.524 . S
C712 H724 0.956 . S
C712 H725 0.961 . S
C712 H726 0.961 . S
C713 C710 1.539 . S
C713 H727 0.958 1_554 S
C713 H728 0.961 . S
C713 H729 0.960 . S
H714 C698 0.931 . S
H715 C703 0.929 . S
H716 C704 0.960 . S
H717 C704 0.962 . S
H718 C704 0.960 . S
H719 C705 0.961 . S
H720 C705 0.961 . S
H721 C705 0.961 . S
H722 C706 0.931 . S
H723 C711 0.930 . S
H724 C712 0.956 . S
H725 C712 0.961 . S
H726 C712 0.961 . S
H727 C713 0.958 1_556 S
H728 C713 0.961 . S
H729 C713 0.960 . S
C730 C731 1.391 . S
C730 C732 1.394 . S
C730 H746 0.931 . S
C731 C730 1.391 . S
C731 C735 1.376 . S
C732 C730 1.394 . S
C732 C733 1.369 . S
C732 C736 1.531 . S
C733 C732 1.369 . S
C733 C734 1.410 . S
C733 C741 1.503 . S
C734 C733 1.410 . S
C734 C735 1.392 . S
C734 C737 1.492 1_545 S
C735 C731 1.376 . S
C735 C734 1.392 . S
C735 H747 0.929 . S
C736 C732 1.531 . S
C736 H748 0.960 . S
C736 H749 0.962 . S
C736 H750 0.960 . S
C737 C734 1.492 1_565 S
C737 H751 0.970 1_565 S
C737 H752 0.929 1_565 S
C737 H753 1.006 . S
C738 C739 1.370 . S
C738 C740 1.363 . S
C738 H754 0.931 . S
C739 C738 1.370 . S
C739 C743 1.408 1_545 S
C740 C738 1.363 . S
C740 C741 1.370 . S
C740 C744 1.524 . S
C741 C733 1.503 . S
C741 C740 1.370 . S
C741 C742 1.403 1_545 S
C742 C741 1.403 1_565 S
C742 C743 1.404 . S
C742 C745 1.539 . S
C743 C739 1.408 1_565 S
C743 C742 1.404 . S
C743 H755 0.930 . S
C744 C740 1.524 . S
C744 H756 0.956 . S
C744 H757 0.961 . S
C744 H758 0.961 . S
C745 C742 1.539 . S
C745 H759 0.958 . S
C745 H760 0.961 . S
C745 H761 0.960 . S
H746 C730 0.931 . S
H747 C735 0.929 . S
H748 C736 0.960 . S
H749 C736 0.962 . S
H750 C736 0.960 . S
H751 C737 0.970 1_545 S
H752 C737 0.929 1_545 S
H753 C737 1.006 . S
H754 C738 0.931 . S
H755 C743 0.930 . S
H756 C744 0.956 . S
H757 C744 0.961 . S
H758 C744 0.961 . S
H759 C745 0.958 . S
H760 C745 0.961 . S
H761 C745 0.960 . S
C762 C763 1.391 . S
C762 C764 1.394 . S
C762 H778 0.931 . S
C763 C762 1.391 . S
C763 C767 1.376 . S
C764 C762 1.394 . S
C764 C765 1.369 . S
C764 C768 1.531 . S
C765 C764 1.369 . S
C765 C766 1.410 . S
C765 C773 1.503 . S
C766 C765 1.410 . S
C766 C767 1.392 . S
C766 C769 1.511 . S
C767 C763 1.376 . S
C767 C766 1.392 . S
C767 H779 0.929 . S
C768 C764 1.531 . S
C768 H780 0.960 . S
C768 H781 0.962 . S
C768 H782 0.960 . S
C769 C766 1.511 . S
C769 H783 0.961 . S
C769 H784 0.961 . S
C769 H785 0.961 . S
C770 C771 1.370 . S
C770 C772 1.363 . S
C770 H786 0.931 . S
C771 C770 1.370 . S
C771 C775 1.408 . S
C772 C770 1.363 . S
C772 C773 1.370 . S
C772 C776 1.524 . S
C773 C765 1.503 . S
C773 C772 1.370 . S
C773 C774 1.403 . S
C774 C773 1.403 . S
C774 C775 1.404 . S
C774 C777 1.539 . S
C775 C771 1.408 . S
C775 C774 1.404 . S
C775 H787 0.930 . S
C776 C772 1.524 . S
C776 H788 0.956 . S
C776 H789 0.961 . S
C776 H790 0.961 . S
C777 C774 1.539 . S
C777 H791 0.958 . S
C777 H792 0.961 . S
C777 H793 0.960 . S
H778 C762 0.931 . S
H779 C767 0.929 . S
H780 C768 0.960 . S
H781 C768 0.962 . S
H782 C768 0.960 . S
H783 C769 0.961 . S
H784 C769 0.961 . S
H785 C769 0.961 . S
H786 C770 0.931 . S
H787 C775 0.930 . S
H788 C776 0.956 . S
H789 C776 0.961 . S
H790 C776 0.961 . S
H791 C777 0.958 . S
H792 C777 0.961 . S
H793 C777 0.960 . S
C794 C795 1.391 . S
C794 C796 1.394 . S
C794 H810 0.931 . S
C795 C794 1.391 . S
C795 C799 1.376 . S
C796 C794 1.394 . S
C796 C797 1.369 . S
C796 C800 1.531 . S
C797 C796 1.369 . S
C797 C798 1.410 . S
C797 C805 1.503 . S
C798 C797 1.410 . S
C798 C799 1.392 . S
C798 C801 1.511 . S
C799 C795 1.376 . S
C799 C798 1.392 . S
C799 H811 0.929 . S
C800 C796 1.531 . S
C800 H812 0.960 . S
C800 H813 0.962 . S
C800 H814 0.960 . S
C801 C798 1.511 . S
C801 H815 0.961 . S
C801 H816 0.961 . S
C801 H817 0.961 . S
C802 C803 1.370 . S
C802 C804 1.363 . S
C802 H818 0.931 . S
C803 C802 1.370 . S
C803 C807 1.408 1_655 S
C804 C802 1.363 . S
C804 C805 1.370 1_655 S
C804 C808 1.524 . S
C805 C797 1.503 . S
C805 C804 1.370 1_455 S
C805 C806 1.403 . S
C806 C805 1.403 . S
C806 C807 1.404 . S
C806 C809 1.539 . S
C807 C803 1.408 1_455 S
C807 C806 1.404 . S
C807 H819 0.930 . S
C808 C804 1.524 . S
C808 H820 0.956 . S
C808 H821 0.961 . S
C808 H822 0.961 . S
C809 C806 1.539 . S
C809 H823 0.958 . S
C809 H824 0.961 . S
C809 H825 0.960 . S
H810 C794 0.931 . S
H811 C799 0.929 . S
H812 C800 0.960 . S
H813 C800 0.962 . S
H814 C800 0.960 . S
H815 C801 0.961 . S
H816 C801 0.961 . S
H817 C801 0.961 . S
H818 C802 0.931 . S
H819 C807 0.930 . S
H820 C808 0.956 . S
H821 C808 0.961 . S
H822 C808 0.961 . S
H823 C809 0.958 . S
H824 C809 0.961 . S
H825 C809 0.960 . S
C826 C827 1.391 . S
C826 C828 1.394 . S
C826 H842 0.931 . S
C827 C826 1.391 . S
C827 C831 1.376 . S
C828 C826 1.394 . S
C828 C829 1.369 . S
C828 C832 1.531 . S
C829 C828 1.369 . S
C829 C830 1.410 . S
C829 C837 1.503 . S
C830 C829 1.410 . S
C830 C831 1.392 . S
C830 C833 1.511 . S
C831 C827 1.376 . S
C831 C830 1.392 . S
C831 H843 0.929 . S
C832 C828 1.531 . S
C832 H844 0.960 . S
C832 H845 0.962 . S
C832 H846 0.960 . S
C833 C830 1.511 . S
C833 H847 0.961 . S
C833 H848 0.961 . S
C833 H849 0.961 . S
C834 C835 1.370 . S
C834 C836 1.363 . S
C834 H850 0.931 . S
C835 C834 1.370 . S
C835 C839 1.408 . S
C836 C834 1.363 . S
C836 C837 1.370 . S
C836 C840 1.524 . S
C837 C829 1.503 . S
C837 C836 1.370 . S
C837 C838 1.403 . S
C838 C837 1.403 . S
C838 C839 1.404 . S
C838 C841 1.539 . S
C839 C835 1.408 . S
C839 C838 1.404 . S
C839 H851 0.930 . S
C840 C836 1.524 . S
C840 H852 0.956 . S
C840 H853 0.961 . S
C840 H854 0.961 . S
C841 C838 1.539 . S
C841 H855 0.958 . S
C841 H856 0.961 . S
C841 H857 0.960 . S
H842 C826 0.931 . S
H843 C831 0.929 . S
H844 C832 0.960 . S
H845 C832 0.962 . S
H846 C832 0.960 . S
H847 C833 0.961 . S
H848 C833 0.961 . S
H849 C833 0.961 . S
H850 C834 0.931 . S
H851 C839 0.930 . S
H852 C840 0.956 . S
H853 C840 0.961 . S
H854 C840 0.961 . S
H855 C841 0.958 . S
H856 C841 0.961 . S
H857 C841 0.960 . S
C858 C859 1.391 . S
C858 C860 1.394 . S
C858 H874 0.931 1_556 S
C859 C858 1.391 . S
C859 C863 1.376 . S
C860 C858 1.394 . S
C860 C861 1.369 . S
C860 C864 1.531 1_556 S
C861 C860 1.369 . S
C861 C862 1.410 . S
C861 C869 1.503 . S
C862 C861 1.410 . S
C862 C863 1.392 . S
C862 C865 1.511 1_455 S
C863 C859 1.376 . S
C863 C862 1.392 . S
C863 H875 0.929 . S
C864 C860 1.531 1_554 S
C864 H876 0.960 1_554 S
C864 H877 0.962 . S
C864 H878 0.960 . S
C865 C862 1.511 1_655 S
C865 H879 0.961 . S
C865 H880 0.961 . S
C865 H881 0.961 1_655 S
C866 C867 1.370 . S
C866 C868 1.363 . S
C866 H882 0.931 . S
C867 C866 1.370 . S
C867 C871 1.408 1_655 S
C868 C866 1.363 . S
C868 C869 1.370 1_655 S
C868 C872 1.524 . S
C869 C861 1.503 . S
C869 C868 1.370 1_455 S
C869 C870 1.403 . S
C870 C869 1.403 . S
C870 C871 1.404 . S
C870 C873 1.539 . S
C871 C867 1.408 1_455 S
C871 C870 1.404 . S
C871 H883 0.930 . S
C872 C868 1.524 . S
C872 H884 0.956 . S
C872 H885 0.961 . S
C872 H886 0.961 . S
C873 C870 1.539 . S
C873 H887 0.958 . S
C873 H888 0.961 . S
C873 H889 0.960 . S
H874 C858 0.931 1_554 S
H875 C863 0.929 . S
H876 C864 0.960 1_556 S
H877 C864 0.962 . S
H878 C864 0.960 . S
H879 C865 0.961 . S
H880 C865 0.961 . S
H881 C865 0.961 1_455 S
H882 C866 0.931 . S
H883 C871 0.930 . S
H884 C872 0.956 . S
H885 C872 0.961 . S
H886 C872 0.961 . S
H887 C873 0.958 . S
H888 C873 0.961 . S
H889 C873 0.960 . S
C890 C891 1.391 . S
C890 C892 1.394 . S
C890 H906 0.931 . S
C891 C890 1.391 . S
C891 C895 1.376 1_556 S
C892 C890 1.394 . S
C892 C893 1.369 . S
C892 C896 1.531 . S
C893 C892 1.369 . S
C893 C894 1.410 . S
C893 C901 1.503 . S
C894 C893 1.410 . S
C894 C895 1.392 1_556 S
C894 C897 1.511 1_556 S
C895 C891 1.376 1_554 S
C895 C894 1.392 1_554 S
C895 H907 0.929 . S
C896 C892 1.531 . S
C896 H908 0.960 . S
C896 H909 0.962 . S
C896 H910 0.960 . S
C897 C894 1.511 1_554 S
C897 H911 0.961 . S
C897 H912 0.961 . S
C897 H913 0.961 . S
C898 C899 1.370 . S
C898 C900 1.363 . S
C898 H914 0.931 . S
C899 C898 1.370 . S
C899 C903 1.408 . S
C900 C898 1.363 . S
C900 C901 1.370 . S
C900 C904 1.524 . S
C901 C893 1.503 . S
C901 C900 1.370 . S
C901 C902 1.403 . S
C902 C901 1.403 . S
C902 C903 1.404 . S
C902 C905 1.539 . S
C903 C899 1.408 . S
C903 C902 1.404 . S
C903 H915 0.930 . S
C904 C900 1.524 . S
C904 H916 0.956 . S
C904 H917 0.961 . S
C904 H918 0.961 . S
C905 C902 1.539 . S
C905 H919 0.958 . S
C905 H920 0.961 . S
C905 H921 0.960 . S
H906 C890 0.931 . S
H907 C895 0.929 . S
H908 C896 0.960 . S
H909 C896 0.962 . S
H910 C896 0.960 . S
H911 C897 0.961 . S
H912 C897 0.961 . S
H913 C897 0.961 . S
H914 C898 0.931 . S
H915 C903 0.930 . S
H916 C904 0.956 . S
H917 C904 0.961 . S
H918 C904 0.961 . S
H919 C905 0.958 . S
H920 C905 0.961 . S
H921 C905 0.960 . S
C922 C923 1.391 . S
C922 C924 1.394 . S
C922 H938 0.931 . S
C923 C922 1.391 . S
C923 C927 1.357 1_556 S
C924 C922 1.394 . S
C924 C925 1.369 . S
C924 C928 1.531 . S
C925 C924 1.369 . S
C925 C926 1.410 . S
C925 C933 1.503 . S
C926 C925 1.410 . S
C926 C927 1.374 1_556 S
C926 C929 1.511 1_556 S
C927 C923 1.357 1_554 S
C927 C926 1.374 1_554 S
C927 H939 0.968 . S
C928 C924 1.531 . S
C928 H940 0.960 . S
C928 H941 0.962 . S
C928 H942 0.960 . S
C929 C926 1.511 1_554 S
C929 H943 0.961 . S
C929 H944 0.961 . S
C929 H945 0.961 1_554 S
C930 C931 1.370 . S
C930 C932 1.363 . S
C930 H946 0.931 . S
C931 C930 1.370 . S
C931 C935 1.408 . S
C932 C930 1.363 . S
C932 C933 1.370 . S
C932 C936 1.524 . S
C933 C925 1.503 . S
C933 C932 1.370 . S
C933 C934 1.403 . S
C934 C933 1.403 . S
C934 C935 1.404 . S
C934 C937 1.539 . S
C935 C931 1.408 . S
C935 C934 1.404 . S
C935 H947 0.930 . S
C936 C932 1.524 . S
C936 H948 0.956 . S
C936 H949 0.961 1_556 S
C936 H950 0.961 . S
C937 C934 1.539 . S
C937 H951 0.958 . S
C937 H952 0.961 . S
C937 H953 0.960 . S
H938 C922 0.931 . S
H939 C927 0.968 . S
H940 C928 0.960 . S
H941 C928 0.962 . S
H942 C928 0.960 . S
H943 C929 0.961 . S
H944 C929 0.961 . S
H945 C929 0.961 1_556 S
H946 C930 0.931 . S
H947 C935 0.930 . S
H948 C936 0.956 . S
H949 C936 0.961 1_554 S
H950 C936 0.961 . S
H951 C937 0.958 . S
H952 C937 0.961 . S
H953 C937 0.960 . S
C954 C955 1.391 1_565 S
C954 C956 1.394 . S
C954 H970 0.931 . S
C955 C954 1.391 1_545 S
C955 C959 1.376 . S
C956 C954 1.394 . S
C956 C957 1.369 . S
C956 C960 1.531 . S
C957 C956 1.369 . S
C957 C958 1.410 1_565 S
C957 C965 1.503 . S
C958 C957 1.410 1_545 S
C958 C959 1.392 . S
C958 C961 1.511 . S
C959 C955 1.376 . S
C959 C958 1.392 . S
C959 H971 0.929 . S
C960 C956 1.531 . S
C960 H972 0.960 . S
C960 H973 0.962 . S
C960 H974 0.960 . S
C961 C958 1.511 . S
C961 H975 0.961 . S
C961 H976 0.961 . S
C961 H977 0.961 . S
C962 C963 1.370 1_545 S
C962 C964 1.363 . S
C962 H978 0.931 . S
C963 C962 1.370 1_565 S
C963 C967 1.408 . S
C964 C962 1.363 . S
C964 C965 1.370 1_545 S
C964 C968 1.524 . S
C965 C957 1.503 . S
C965 C964 1.370 1_565 S
C965 C966 1.403 . S
C966 C965 1.403 . S
C966 C967 1.404 . S
C966 C969 1.539 . S
C967 C963 1.408 . S
C967 C966 1.404 . S
C967 H979 0.930 . S
C968 C964 1.524 . S
C968 H980 0.956 . S
C968 H981 0.961 . S
C968 H982 0.961 . S
C969 C966 1.539 . S
C969 H983 0.958 . S
C969 H984 0.961 . S
C969 H985 0.960 . S
H970 C954 0.931 . S
H971 C959 0.929 . S
H972 C960 0.960 . S
H973 C960 0.962 . S
H974 C960 0.960 . S
H975 C961 0.961 . S
H976 C961 0.961 . S
H977 C961 0.961 . S
H978 C962 0.931 . S
H979 C967 0.930 . S
H980 C968 0.956 . S
H981 C968 0.961 . S
H982 C968 0.961 . S
H983 C969 0.958 . S
H984 C969 0.961 . S
H985 C969 0.960 . S
C986 C987 1.391 . S
C986 C988 1.394 . S
C986 H1002 0.931 . S
C987 C986 1.391 . S
C987 C991 1.376 . S
C988 C986 1.394 . S
C988 C989 1.369 . S
C988 C992 1.531 . S
C989 C988 1.369 . S
C989 C990 1.410 . S
C989 C997 1.503 . S
C990 C989 1.410 . S
C990 C991 1.392 . S
C990 C993 1.511 . S
C991 C987 1.376 . S
C991 C990 1.392 . S
C991 H1003 0.929 . S
C992 C988 1.531 . S
C992 H1004 0.960 . S
C992 H1005 0.962 . S
C992 H1006 0.960 . S
C993 C990 1.511 . S
C993 H1007 0.961 . S
C993 H1008 0.961 . S
C993 H1009 0.961 . S
C994 C995 1.370 . S
C994 C996 1.363 . S
C994 H1010 0.931 . S
C995 C994 1.370 . S
C995 C999 1.408 . S
C996 C994 1.363 . S
C996 C997 1.370 . S
C996 C1000 1.524 . S
C997 C989 1.503 . S
C997 C996 1.370 . S
C997 C998 1.403 . S
C998 C997 1.403 . S
C998 C999 1.404 . S
C998 C1001 1.539 . S
C999 C995 1.408 . S
C999 C998 1.404 . S
C999 H1011 0.930 . S
C1000 C996 1.524 . S
C1000 H1012 0.956 . S
C1000 H1013 0.961 . S
C1000 H1014 0.961 . S
C1001 C998 1.539 . S
C1001 H1015 0.958 . S
C1001 H1016 0.961 . S
C1001 H1017 0.960 . S
H1002 C986 0.931 . S
H1003 C991 0.929 . S
H1004 C992 0.960 . S
H1005 C992 0.962 . S
H1006 C992 0.960 . S
H1007 C993 0.961 . S
H1008 C993 0.961 . S
H1009 C993 0.961 . S
H1010 C994 0.931 . S
H1011 C999 0.930 . S
H1012 C1000 0.956 . S
H1013 C1000 0.961 . S
H1014 C1000 0.961 . S
H1015 C1001 0.958 . S
H1016 C1001 0.961 . S
H1017 C1001 0.960 . S
C1018 C1019 1.391 . S
C1018 C1020 1.394 . S
C1018 H1034 0.931 . S
C1019 C1018 1.391 . S
C1019 C1023 1.376 . S
C1020 C1018 1.394 . S
C1020 C1021 1.369 . S
C1020 C1024 1.531 . S
C1021 C1020 1.369 . S
C1021 C1022 1.410 . S
C1021 C1029 1.503 . S
C1022 C1021 1.410 . S
C1022 C1023 1.392 . S
C1022 C1025 1.511 . S
C1023 C1019 1.376 . S
C1023 C1022 1.392 . S
C1023 H1035 0.929 . S
C1024 C1020 1.531 . S
C1024 H1036 0.960 . S
C1024 H1037 0.962 . S
C1024 H1038 0.960 . S
C1025 C1022 1.511 . S
C1025 H1039 0.961 . S
C1025 H1040 0.961 . S
C1025 H1041 0.961 . S
C1026 C1027 1.370 . S
C1026 C1028 1.363 . S
C1026 H1042 0.931 . S
C1027 C1026 1.370 . S
C1027 C1031 1.408 . S
C1028 C1026 1.363 . S
C1028 C1029 1.370 . S
C1028 C1032 1.524 . S
C1029 C1021 1.503 . S
C1029 C1028 1.370 . S
C1029 C1030 1.403 . S
C1030 C1029 1.403 . S
C1030 C1031 1.404 . S
C1030 C1033 1.539 . S
C1031 C1027 1.408 . S
C1031 C1030 1.404 . S
C1031 H1043 0.930 . S
C1032 C1028 1.524 . S
C1032 H1044 0.956 . S
C1032 H1045 0.961 . S
C1032 H1046 0.961 . S
C1033 C1030 1.539 . S
C1033 H1047 0.958 . S
C1033 H1048 0.961 . S
C1033 H1049 0.960 . S
H1034 C1018 0.931 . S
H1035 C1023 0.929 . S
H1036 C1024 0.960 . S
H1037 C1024 0.962 . S
H1038 C1024 0.960 . S
H1039 C1025 0.961 . S
H1040 C1025 0.961 . S
H1041 C1025 0.961 . S
H1042 C1026 0.931 . S
H1043 C1031 0.930 . S
H1044 C1032 0.956 . S
H1045 C1032 0.961 . S
H1046 C1032 0.961 . S
H1047 C1033 0.958 . S
H1048 C1033 0.961 . S
H1049 C1033 0.960 . S
C1050 C1051 1.391 . S
C1050 C1052 1.394 . S
C1050 H1066 0.931 . S
C1051 C1050 1.391 . S
C1051 C1055 1.376 . S
C1052 C1050 1.394 . S
C1052 C1053 1.369 . S
C1052 C1056 1.531 . S
C1053 C1052 1.369 . S
C1053 C1054 1.410 . S
C1053 C1061 1.503 . S
C1054 C1053 1.410 . S
C1054 C1055 1.392 . S
C1054 C1057 1.511 . S
C1055 C1051 1.376 . S
C1055 C1054 1.392 . S
C1055 H1067 0.929 . S
C1056 C1052 1.531 . S
C1056 H1068 0.960 . S
C1056 H1069 0.962 . S
C1056 H1070 0.960 . S
C1057 C1054 1.511 . S
C1057 H1071 0.961 . S
C1057 H1072 0.961 . S
C1057 H1073 0.961 . S
C1058 C1059 1.370 . S
C1058 C1060 1.363 . S
C1058 H1074 0.931 . S
C1059 C1058 1.370 . S
C1059 C1063 1.408 . S
C1060 C1058 1.363 . S
C1060 C1061 1.370 . S
C1060 C1064 1.524 . S
C1061 C1053 1.503 . S
C1061 C1060 1.370 . S
C1061 C1062 1.403 . S
C1062 C1061 1.403 . S
C1062 C1063 1.404 . S
C1062 C1065 1.539 . S
C1063 C1059 1.408 . S
C1063 C1062 1.404 . S
C1063 H1075 0.930 . S
C1064 C1060 1.524 . S
C1064 H1076 0.956 . S
C1064 H1077 0.961 . S
C1064 H1078 0.961 . S
C1065 C1062 1.539 . S
C1065 H1079 0.958 . S
C1065 H1080 0.961 . S
C1065 H1081 0.960 . S
H1066 C1050 0.931 . S
H1067 C1055 0.929 . S
H1068 C1056 0.960 . S
H1069 C1056 0.962 . S
H1070 C1056 0.960 . S
H1071 C1057 0.961 . S
H1072 C1057 0.961 . S
H1073 C1057 0.961 . S
H1074 C1058 0.931 . S
H1075 C1063 0.930 . S
H1076 C1064 0.956 . S
H1077 C1064 0.961 . S
H1078 C1064 0.961 . S
H1079 C1065 0.958 . S
H1080 C1065 0.961 . S
H1081 C1065 0.960 . S
C1082 C1083 1.391 . S
C1082 C1084 1.394 . S
C1082 H1098 0.931 . S
C1083 C1082 1.391 . S
C1083 C1087 1.376 . S
C1084 C1082 1.394 . S
C1084 C1085 1.369 . S
C1084 C1088 1.531 . S
C1085 C1084 1.369 . S
C1085 C1086 1.410 . S
C1085 C1093 1.503 1_565 S
C1086 C1085 1.410 . S
C1086 C1087 1.392 . S
C1086 C1089 1.511 . S
C1087 C1083 1.376 . S
C1087 C1086 1.392 . S
C1087 H1099 0.929 . S
C1088 C1084 1.531 . S
C1088 H1100 0.960 1_565 S
C1088 H1101 0.962 1_565 S
C1088 H1102 0.960 . S
C1089 C1086 1.511 . S
C1089 H1103 0.961 . S
C1089 H1104 0.961 1_565 S
C1089 H1105 0.961 . S
C1090 C1091 1.370 . S
C1090 C1092 1.363 . S
C1090 H1106 0.931 . S
C1091 C1090 1.370 . S
C1091 C1095 1.408 . S
C1092 C1090 1.363 . S
C1092 C1093 1.370 . S
C1092 C1096 1.524 . S
C1093 C1085 1.503 1_545 S
C1093 C1092 1.370 . S
C1093 C1094 1.403 . S
C1094 C1093 1.403 . S
C1094 C1095 1.404 . S
C1094 C1097 1.539 . S
C1095 C1091 1.408 . S
C1095 C1094 1.404 . S
C1095 H1107 0.930 . S
C1096 C1092 1.524 . S
C1096 H1108 0.956 . S
C1096 H1109 0.961 . S
C1096 H1110 0.961 . S
C1097 C1094 1.539 . S
C1097 H1111 0.958 1_545 S
C1097 H1112 0.961 . S
C1097 H1113 0.960 1_545 S
H1098 C1082 0.931 . S
H1099 C1087 0.929 . S
H1100 C1088 0.960 1_545 S
H1101 C1088 0.962 1_545 S
H1102 C1088 0.960 . S
H1103 C1089 0.961 . S
H1104 C1089 0.961 1_545 S
H1105 C1089 0.961 . S
H1106 C1090 0.931 . S
H1107 C1095 0.930 . S
H1108 C1096 0.956 . S
H1109 C1096 0.961 . S
H1110 C1096 0.961 . S
H1111 C1097 0.958 1_565 S
H1112 C1097 0.961 . S
H1113 C1097 0.960 1_565 S
C1114 C1115 1.391 . S
C1114 C1116 1.394 . S
C1114 H1130 0.931 . S
C1115 C1114 1.391 . S
C1115 C1119 1.376 . S
C1116 C1114 1.394 . S
C1116 C1117 1.369 . S
C1116 C1120 1.531 . S
C1117 C1116 1.369 . S
C1117 C1118 1.410 . S
C1117 C1125 1.503 . S
C1118 C1117 1.410 . S
C1118 C1119 1.392 . S
C1118 C1121 1.511 . S
C1119 C1115 1.376 . S
C1119 C1118 1.392 . S
C1119 H1131 0.929 . S
C1120 C1116 1.531 . S
C1120 H1132 0.960 . S
C1120 H1133 0.962 . S
C1120 H1134 0.960 . S
C1121 C1118 1.511 . S
C1121 H1135 0.961 . S
C1121 H1136 0.961 . S
C1121 H1137 0.961 . S
C1122 C1123 1.370 . S
C1122 C1124 1.363 . S
C1122 H1138 0.931 . S
C1123 C1122 1.370 . S
C1123 C1127 1.408 . S
C1124 C1122 1.363 . S
C1124 C1125 1.370 . S
C1124 C1128 1.524 . S
C1125 C1117 1.503 . S
C1125 C1124 1.370 . S
C1125 C1126 1.403 . S
C1126 C1125 1.403 . S
C1126 C1127 1.404 . S
C1126 C1129 1.539 . S
C1127 C1123 1.408 . S
C1127 C1126 1.404 . S
C1127 H1139 0.930 . S
C1128 C1124 1.524 . S
C1128 H1140 0.956 . S
C1128 H1141 0.961 . S
C1128 H1142 0.961 . S
C1129 C1126 1.539 . S
C1129 H1143 0.958 . S
C1129 H1144 0.961 . S
C1129 H1145 0.960 . S
H1130 C1114 0.931 . S
H1131 C1119 0.929 . S
H1132 C1120 0.960 . S
H1133 C1120 0.962 . S
H1134 C1120 0.960 . S
H1135 C1121 0.961 . S
H1136 C1121 0.961 . S
H1137 C1121 0.961 . S
H1138 C1122 0.931 . S
H1139 C1127 0.930 . S
H1140 C1128 0.956 . S
H1141 C1128 0.961 . S
H1142 C1128 0.961 . S
H1143 C1129 0.958 . S
H1144 C1129 0.961 . S
H1145 C1129 0.960 . S
C1146 C1147 1.391 . S
C1146 C1148 1.394 . S
C1146 H1162 0.931 . S
C1147 C1146 1.391 . S
C1147 C1151 1.376 . S
C1148 C1146 1.394 . S
C1148 C1149 1.369 . S
C1148 C1152 1.531 . S
C1149 C1148 1.369 . S
C1149 C1150 1.410 . S
C1149 C1157 1.503 . S
C1150 C1149 1.410 . S
C1150 C1151 1.392 . S
C1150 C1153 1.511 . S
C1151 C1147 1.376 . S
C1151 C1150 1.392 . S
C1151 H1163 0.929 . S
C1152 C1148 1.531 . S
C1152 H1164 0.960 . S
C1152 H1165 0.962 . S
C1152 H1166 0.960 . S
C1153 C1150 1.511 . S
C1153 H1167 0.961 . S
C1153 H1168 0.961 . S
C1153 H1169 0.961 . S
C1154 C1155 1.370 . S
C1154 C1156 1.363 . S
C1154 H1170 0.931 . S
C1155 C1154 1.370 . S
C1155 C1159 1.408 . S
C1156 C1154 1.363 . S
C1156 C1157 1.370 . S
C1156 C1160 1.524 . S
C1157 C1149 1.503 . S
C1157 C1156 1.370 . S
C1157 C1158 1.403 . S
C1158 C1157 1.403 . S
C1158 C1159 1.404 . S
C1158 C1161 1.539 . S
C1159 C1155 1.408 . S
C1159 C1158 1.404 . S
C1159 H1171 0.930 . S
C1160 C1156 1.524 . S
C1160 H1172 0.956 . S
C1160 H1173 0.961 . S
C1160 H1174 0.961 . S
C1161 C1158 1.539 . S
C1161 H1175 0.958 . S
C1161 H1176 0.961 . S
C1161 H1177 0.960 . S
H1162 C1146 0.931 . S
H1163 C1151 0.929 . S
H1164 C1152 0.960 . S
H1165 C1152 0.962 . S
H1166 C1152 0.960 . S
H1167 C1153 0.961 . S
H1168 C1153 0.961 . S
H1169 C1153 0.961 . S
H1170 C1154 0.931 . S
H1171 C1159 0.930 . S
H1172 C1160 0.956 . S
H1173 C1160 0.961 . S
H1174 C1160 0.961 . S
H1175 C1161 0.958 . S
H1176 C1161 0.961 . S
H1177 C1161 0.960 . S
C1178 C1179 1.391 . S
C1178 C1180 1.394 . S
C1178 H1194 0.931 . S
C1179 C1178 1.391 . S
C1179 C1183 1.376 . S
C1180 C1178 1.394 . S
C1180 C1181 1.369 . S
C1180 C1184 1.531 . S
C1181 C1180 1.369 . S
C1181 C1182 1.410 . S
C1181 C1189 1.503 . S
C1182 C1181 1.410 . S
C1182 C1183 1.392 . S
C1182 C1185 1.511 . S
C1183 C1179 1.376 . S
C1183 C1182 1.392 . S
C1183 H1195 0.929 . S
C1184 C1180 1.531 . S
C1184 H1196 0.960 . S
C1184 H1197 0.962 . S
C1184 H1198 0.960 . S
C1185 C1182 1.511 . S
C1185 H1199 0.961 . S
C1185 H1200 0.961 . S
C1185 H1201 0.961 . S
C1186 C1187 1.370 . S
C1186 C1188 1.363 . S
C1186 H1202 0.931 . S
C1187 C1186 1.370 . S
C1187 C1191 1.408 . S
C1188 C1186 1.363 . S
C1188 C1189 1.370 . S
C1188 C1192 1.524 . S
C1189 C1181 1.503 . S
C1189 C1188 1.370 . S
C1189 C1190 1.403 . S
C1190 C1189 1.403 . S
C1190 C1191 1.404 . S
C1190 C1193 1.539 . S
C1191 C1187 1.408 . S
C1191 C1190 1.404 . S
C1191 H1203 0.930 . S
C1192 C1188 1.524 . S
C1192 H1204 0.956 . S
C1192 H1205 0.961 . S
C1192 H1206 0.961 . S
C1193 C1190 1.539 . S
C1193 H1207 0.958 . S
C1193 H1208 0.961 . S
C1193 H1209 0.960 . S
H1194 C1178 0.931 . S
H1195 C1183 0.929 . S
H1196 C1184 0.960 . S
H1197 C1184 0.962 . S
H1198 C1184 0.960 . S
H1199 C1185 0.961 . S
H1200 C1185 0.961 . S
H1201 C1185 0.961 . S
H1202 C1186 0.931 . S
H1203 C1191 0.930 . S
H1204 C1192 0.956 . S
H1205 C1192 0.961 . S
H1206 C1192 0.961 . S
H1207 C1193 0.958 . S
H1208 C1193 0.961 . S
H1209 C1193 0.960 . S
C1210 C1211 1.391 . S
C1210 C1212 1.394 . S
C1210 H1226 0.931 . S
C1211 C1210 1.391 . S
C1211 C1215 1.376 . S
C1212 C1210 1.394 . S
C1212 C1213 1.369 . S
C1212 C1216 1.531 . S
C1213 C1212 1.369 . S
C1213 C1214 1.410 . S
C1213 C1221 1.503 . S
C1214 C1213 1.410 . S
C1214 C1215 1.392 . S
C1214 C1217 1.511 . S
C1215 C1211 1.376 . S
C1215 C1214 1.392 . S
C1215 H1227 0.929 . S
C1216 C1212 1.531 . S
C1216 H1228 0.960 . S
C1216 H1229 0.962 . S
C1216 H1230 0.960 . S
C1217 C1214 1.511 . S
C1217 H1231 0.961 . S
C1217 H1232 0.961 . S
C1217 H1233 0.961 . S
C1218 C1219 1.370 . S
C1218 C1220 1.363 . S
C1218 H1234 0.931 . S
C1219 C1218 1.370 . S
C1219 C1223 1.408 . S
C1220 C1218 1.363 . S
C1220 C1221 1.370 . S
C1220 C1224 1.524 . S
C1221 C1213 1.503 . S
C1221 C1220 1.370 . S
C1221 C1222 1.403 . S
C1222 C1221 1.403 . S
C1222 C1223 1.404 . S
C1222 C1225 1.539 . S
C1223 C1219 1.408 . S
C1223 C1222 1.404 . S
C1223 H1235 0.930 . S
C1224 C1220 1.524 . S
C1224 H1236 0.956 . S
C1224 H1237 0.961 . S
C1224 H1238 0.961 . S
C1225 C1222 1.539 . S
C1225 H1239 0.958 . S
C1225 H1240 0.961 . S
C1225 H1241 0.960 . S
H1226 C1210 0.931 . S
H1227 C1215 0.929 . S
H1228 C1216 0.960 . S
H1229 C1216 0.962 . S
H1230 C1216 0.960 . S
H1231 C1217 0.961 . S
H1232 C1217 0.961 . S
H1233 C1217 0.961 . S
H1234 C1218 0.931 . S
H1235 C1223 0.930 . S
H1236 C1224 0.956 . S
H1237 C1224 0.961 . S
H1238 C1224 0.961 . S
H1239 C1225 0.958 . S
H1240 C1225 0.961 . S
H1241 C1225 0.960 . S
C1242 C1243 1.391 . S
C1242 C1244 1.394 . S
C1242 H1258 0.931 . S
C1243 C1242 1.391 . S
C1243 C1247 1.376 . S
C1244 C1242 1.394 . S
C1244 C1245 1.369 . S
C1244 C1248 1.531 . S
C1245 C1244 1.369 . S
C1245 C1246 1.410 . S
C1245 C1253 1.503 . S
C1246 C1245 1.410 . S
C1246 C1247 1.392 . S
C1246 C1249 1.511 . S
C1247 C1243 1.376 . S
C1247 C1246 1.392 . S
C1247 H1259 0.929 . S
C1248 C1244 1.531 . S
C1248 H1260 0.960 . S
C1248 H1261 0.962 . S
C1248 H1262 0.960 . S
C1249 C1246 1.511 . S
C1249 H1263 0.961 . S
C1249 H1264 0.961 . S
C1249 H1265 0.961 . S
C1250 C1251 1.370 . S
C1250 C1252 1.363 . S
C1250 H1266 0.931 . S
C1251 C1250 1.370 . S
C1251 C1255 1.377 1_545 S
C1252 C1250 1.363 . S
C1252 C1253 1.370 1_545 S
C1252 C1256 1.524 . S
C1253 C1245 1.503 . S
C1253 C1252 1.370 1_565 S
C1253 C1254 1.403 . S
C1254 C1253 1.403 . S
C1254 C1255 1.447 . S
C1254 C1257 1.539 . S
C1255 C1251 1.377 1_565 S
C1255 C1254 1.447 . S
C1255 H1267 0.919 . S
C1256 C1252 1.524 . S
C1256 H1268 0.956 . S
C1256 H1269 0.961 . S
C1256 H1270 0.961 . S
C1257 C1254 1.539 . S
C1257 H1271 0.958 . S
C1257 H1272 0.961 . S
C1257 H1273 0.960 . S
H1258 C1242 0.931 . S
H1259 C1247 0.929 . S
H1260 C1248 0.960 . S
H1261 C1248 0.962 . S
H1262 C1248 0.960 . S
H1263 C1249 0.961 . S
H1264 C1249 0.961 . S
H1265 C1249 0.961 . S
H1266 C1250 0.931 . S
H1267 C1255 0.919 . S
H1268 C1256 0.956 . S
H1269 C1256 0.961 . S
H1270 C1256 0.961 . S
H1271 C1257 0.958 . S
H1272 C1257 0.961 . S
H1273 C1257 0.960 . S
C1274 C1275 1.391 . S
C1274 C1276 1.394 . S
C1274 H1290 0.931 . S
C1275 C1274 1.391 . S
C1275 C1279 1.376 . S
C1276 C1274 1.394 . S
C1276 C1277 1.369 . S
C1276 C1280 1.531 . S
C1277 C1276 1.369 . S
C1277 C1278 1.410 . S
C1277 C1285 1.503 . S
C1278 C1277 1.410 . S
C1278 C1279 1.392 . S
C1278 C1281 1.511 . S
C1279 C1275 1.376 . S
C1279 C1278 1.392 . S
C1279 H1291 0.929 . S
C1280 C1276 1.531 . S
C1280 H1292 0.960 . S
C1280 H1293 0.962 . S
C1280 H1294 0.960 . S
C1281 C1278 1.511 . S
C1281 H1295 0.961 . S
C1281 H1296 0.961 . S
C1281 H1297 0.961 . S
C1282 C1283 1.370 . S
C1282 C1284 1.363 . S
C1282 H1298 0.931 . S
C1283 C1282 1.370 . S
C1283 C1287 1.408 . S
C1284 C1282 1.363 . S
C1284 C1285 1.370 . S
C1284 C1288 1.524 . S
C1285 C1277 1.503 . S
C1285 C1284 1.370 . S
C1285 C1286 1.403 . S
C1286 C1285 1.403 . S
C1286 C1287 1.404 . S
C1286 C1289 1.539 . S
C1287 C1283 1.408 . S
C1287 C1286 1.404 . S
C1287 H1299 0.930 . S
C1288 C1284 1.524 . S
C1288 H1300 0.956 . S
C1288 H1301 0.961 . S
C1288 H1302 0.961 . S
C1289 C1286 1.539 . S
C1289 H1303 0.958 . S
C1289 H1304 0.961 . S
C1289 H1305 0.960 . S
H1290 C1274 0.931 . S
H1291 C1279 0.929 . S
H1292 C1280 0.960 . S
H1293 C1280 0.962 . S
H1294 C1280 0.960 . S
H1295 C1281 0.961 . S
H1296 C1281 0.961 . S
H1297 C1281 0.961 . S
H1298 C1282 0.931 . S
H1299 C1287 0.930 . S
H1300 C1288 0.956 . S
H1301 C1288 0.961 . S
H1302 C1288 0.961 . S
H1303 C1289 0.958 . S
H1304 C1289 0.961 . S
H1305 C1289 0.960 . S
C1306 C1307 1.391 . S
C1306 C1308 1.394 . S
C1306 H1322 0.931 . S
C1307 C1306 1.391 . S
C1307 C1311 1.376 . S
C1308 C1306 1.394 . S
C1308 C1309 1.369 . S
C1308 C1312 1.531 . S
C1309 C1308 1.369 . S
C1309 C1310 1.410 . S
C1309 C1317 1.503 . S
C1310 C1309 1.410 . S
C1310 C1311 1.392 . S
C1310 C1313 1.511 . S
C1311 C1307 1.376 . S
C1311 C1310 1.392 . S
C1311 H1323 0.929 . S
C1312 C1308 1.531 . S
C1312 H1324 0.960 . S
C1312 H1325 0.962 . S
C1312 H1326 0.960 . S
C1313 C1310 1.511 . S
C1313 H1327 0.961 . S
C1313 H1328 0.961 . S
C1313 H1329 0.961 . S
C1314 C1315 1.370 . S
C1314 C1316 1.363 . S
C1314 H1330 0.931 . S
C1315 C1314 1.370 . S
C1315 C1319 1.408 . S
C1316 C1314 1.363 . S
C1316 C1317 1.370 . S
C1316 C1320 1.524 . S
C1317 C1309 1.503 . S
C1317 C1316 1.370 . S
C1317 C1318 1.403 . S
C1318 C1317 1.403 . S
C1318 C1319 1.404 . S
C1318 C1321 1.539 . S
C1319 C1315 1.408 . S
C1319 C1318 1.404 . S
C1319 H1331 0.930 . S
C1320 C1316 1.524 . S
C1320 H1332 0.956 . S
C1320 H1333 0.961 . S
C1320 H1334 0.961 . S
C1321 C1318 1.539 . S
C1321 H1335 0.958 . S
C1321 H1336 0.961 . S
C1321 H1337 0.960 . S
H1322 C1306 0.931 . S
H1323 C1311 0.929 . S
H1324 C1312 0.960 . S
H1325 C1312 0.962 . S
H1326 C1312 0.960 . S
H1327 C1313 0.961 . S
H1328 C1313 0.961 . S
H1329 C1313 0.961 . S
H1330 C1314 0.931 . S
H1331 C1319 0.930 . S
H1332 C1320 0.956 . S
H1333 C1320 0.961 . S
H1334 C1320 0.961 . S
H1335 C1321 0.958 . S
H1336 C1321 0.961 . S
H1337 C1321 0.960 . S
C1338 C1339 1.391 . S
C1338 C1340 1.394 . S
C1338 H1354 0.931 . S
C1339 C1338 1.391 . S
C1339 C1343 1.376 . S
C1340 C1338 1.394 . S
C1340 C1341 1.369 . S
C1340 C1344 1.531 . S
C1341 C1340 1.369 . S
C1341 C1342 1.410 . S
C1341 C1349 1.503 . S
C1342 C1341 1.410 . S
C1342 C1343 1.392 . S
C1342 C1345 1.511 . S
C1343 C1339 1.376 . S
C1343 C1342 1.392 . S
C1343 H1355 0.929 . S
C1344 C1340 1.531 . S
C1344 H1356 0.960 . S
C1344 H1357 0.962 . S
C1344 H1358 0.960 . S
C1345 C1342 1.511 . S
C1345 H1359 0.961 . S
C1345 H1360 0.961 . S
C1345 H1361 0.961 . S
C1346 C1347 1.370 . S
C1346 C1348 1.363 . S
C1346 H1362 0.931 . S
C1347 C1346 1.370 . S
C1347 C1351 1.408 . S
C1348 C1346 1.363 . S
C1348 C1349 1.370 . S
C1348 C1352 1.524 . S
C1349 C1341 1.503 . S
C1349 C1348 1.370 . S
C1349 C1350 1.403 . S
C1350 C1349 1.403 . S
C1350 C1351 1.404 . S
C1350 C1353 1.539 . S
C1351 C1347 1.408 . S
C1351 C1350 1.404 . S
C1351 H1363 0.930 . S
C1352 C1348 1.524 . S
C1352 H1364 0.956 . S
C1352 H1365 0.961 . S
C1352 H1366 0.961 . S
C1353 C1350 1.539 . S
C1353 H1367 0.958 . S
C1353 H1368 0.961 . S
C1353 H1369 0.960 . S
H1354 C1338 0.931 . S
H1355 C1343 0.929 . S
H1356 C1344 0.960 . S
H1357 C1344 0.962 . S
H1358 C1344 0.960 . S
H1359 C1345 0.961 . S
H1360 C1345 0.961 . S
H1361 C1345 0.961 . S
H1362 C1346 0.931 . S
H1363 C1351 0.930 . S
H1364 C1352 0.956 . S
H1365 C1352 0.961 . S
H1366 C1352 0.961 . S
H1367 C1353 0.958 . S
H1368 C1353 0.961 . S
H1369 C1353 0.960 . S
C1370 C1371 1.391 . S
C1370 C1372 1.394 . S
C1370 H1386 0.931 . S
C1371 C1370 1.391 . S
C1371 C1375 1.376 . S
C1372 C1370 1.394 . S
C1372 C1373 1.369 . S
C1372 C1376 1.531 . S
C1373 C1372 1.369 . S
C1373 C1374 1.410 . S
C1373 C1381 1.503 1_565 S
C1374 C1373 1.410 . S
C1374 C1375 1.392 . S
C1374 C1377 1.511 1_565 S
C1375 C1371 1.376 . S
C1375 C1374 1.392 . S
C1375 H1387 0.929 . S
C1376 C1372 1.531 . S
C1376 H1388 0.960 . S
C1376 H1389 0.962 . S
C1376 H1390 0.960 . S
C1377 C1374 1.511 1_545 S
C1377 H1391 0.961 . S
C1377 H1392 0.961 . S
C1377 H1393 0.961 . S
C1378 C1379 1.370 . S
C1378 C1380 1.363 . S
C1378 H1394 0.931 . S
C1379 C1378 1.370 . S
C1379 C1383 1.408 . S
C1380 C1378 1.363 . S
C1380 C1381 1.370 . S
C1380 C1384 1.524 . S
C1381 C1373 1.503 1_545 S
C1381 C1380 1.370 . S
C1381 C1382 1.403 . S
C1382 C1381 1.403 . S
C1382 C1383 1.404 . S
C1382 C1385 1.539 1_545 S
C1383 C1379 1.408 . S
C1383 C1382 1.404 . S
C1383 H1395 0.930 . S
C1384 C1380 1.524 . S
C1384 H1396 0.956 . S
C1384 H1397 0.961 . S
C1384 H1398 0.961 . S
C1385 C1382 1.539 1_565 S
C1385 H1399 0.958 . S
C1385 H1400 0.961 1_565 S
C1385 H1401 0.960 . S
H1386 C1370 0.931 . S
H1387 C1375 0.929 . S
H1388 C1376 0.960 . S
H1389 C1376 0.962 . S
H1390 C1376 0.960 . S
H1391 C1377 0.961 . S
H1392 C1377 0.961 . S
H1393 C1377 0.961 . S
H1394 C1378 0.931 . S
H1395 C1383 0.930 . S
H1396 C1384 0.956 . S
H1397 C1384 0.961 . S
H1398 C1384 0.961 . S
H1399 C1385 0.958 . S
H1400 C1385 0.961 1_545 S
H1401 C1385 0.960 . S
C1402 C1403 1.391 . S
C1402 C1404 1.394 . S
C1402 H1418 0.931 . S
C1403 C1402 1.391 . S
C1403 C1407 1.376 . S
C1404 C1402 1.394 . S
C1404 C1405 1.369 . S
C1404 C1408 1.531 . S
C1405 C1404 1.369 . S
C1405 C1406 1.410 . S
C1405 C1413 1.503 . S
C1406 C1405 1.410 . S
C1406 C1407 1.392 . S
C1406 C1409 1.511 . S
C1407 C1403 1.376 . S
C1407 C1406 1.392 . S
C1407 H1419 0.929 . S
C1408 C1404 1.531 . S
C1408 H1420 0.960 . S
C1408 H1421 0.962 . S
C1408 H1422 0.960 . S
C1409 C1406 1.511 . S
C1409 H1423 0.961 . S
C1409 H1424 0.961 . S
C1409 H1425 0.961 . S
C1410 C1411 1.370 . S
C1410 C1412 1.363 . S
C1410 H1426 0.931 . S
C1411 C1410 1.370 . S
C1411 C1415 1.408 . S
C1412 C1410 1.363 . S
C1412 C1413 1.370 . S
C1412 C1416 1.524 . S
C1413 C1405 1.503 . S
C1413 C1412 1.370 . S
C1413 C1414 1.403 . S
C1414 C1413 1.403 . S
C1414 C1415 1.404 . S
C1414 C1417 1.539 . S
C1415 C1411 1.408 . S
C1415 C1414 1.404 . S
C1415 H1427 0.930 . S
C1416 C1412 1.524 . S
C1416 H1428 0.956 . S
C1416 H1429 0.961 . S
C1416 H1430 0.961 . S
C1417 C1414 1.539 . S
C1417 H1431 0.958 . S
C1417 H1432 0.961 . S
C1417 H1433 0.960 . S
H1418 C1402 0.931 . S
H1419 C1407 0.929 . S
H1420 C1408 0.960 . S
H1421 C1408 0.962 . S
H1422 C1408 0.960 . S
H1423 C1409 0.961 . S
H1424 C1409 0.961 . S
H1425 C1409 0.961 . S
H1426 C1410 0.931 . S
H1427 C1415 0.930 . S
H1428 C1416 0.956 . S
H1429 C1416 0.961 . S
H1430 C1416 0.961 . S
H1431 C1417 0.958 . S
H1432 C1417 0.961 . S
H1433 C1417 0.960 . S
C1434 C1435 1.391 . S
C1434 C1436 1.394 . S
C1434 H1450 0.931 . S
C1435 C1434 1.391 . S
C1435 C1439 1.376 . S
C1436 C1434 1.394 . S
C1436 C1437 1.369 . S
C1436 C1440 1.531 . S
C1437 C1436 1.369 . S
C1437 C1438 1.410 . S
C1437 C1445 1.503 . S
C1438 C1437 1.410 . S
C1438 C1439 1.392 . S
C1438 C1441 1.511 . S
C1439 C1435 1.376 . S
C1439 C1438 1.392 . S
C1439 H1451 0.929 . S
C1440 C1436 1.531 . S
C1440 H1452 0.960 . S
C1440 H1453 0.962 . S
C1440 H1454 0.960 . S
C1441 C1438 1.511 . S
C1441 H1455 0.961 . S
C1441 H1456 0.961 . S
C1441 H1457 0.961 . S
C1442 C1443 1.370 . S
C1442 C1444 1.363 . S
C1442 H1458 0.931 . S
C1443 C1442 1.370 . S
C1443 C1447 1.408 . S
C1444 C1442 1.363 . S
C1444 C1445 1.370 . S
C1444 C1448 1.524 . S
C1445 C1437 1.503 . S
C1445 C1444 1.370 . S
C1445 C1446 1.403 . S
C1446 C1445 1.403 . S
C1446 C1447 1.404 . S
C1446 C1449 1.539 . S
C1447 C1443 1.408 . S
C1447 C1446 1.404 . S
C1447 H1459 0.930 . S
C1448 C1444 1.524 . S
C1448 H1460 0.956 . S
C1448 H1461 0.961 . S
C1448 H1462 0.961 . S
C1449 C1446 1.539 . S
C1449 H1463 0.958 . S
C1449 H1464 0.961 . S
C1449 H1465 0.960 . S
H1450 C1434 0.931 . S
H1451 C1439 0.929 . S
H1452 C1440 0.960 . S
H1453 C1440 0.962 . S
H1454 C1440 0.960 . S
H1455 C1441 0.961 . S
H1456 C1441 0.961 . S
H1457 C1441 0.961 . S
H1458 C1442 0.931 . S
H1459 C1447 0.930 . S
H1460 C1448 0.956 . S
H1461 C1448 0.961 . S
H1462 C1448 0.961 . S
H1463 C1449 0.958 . S
H1464 C1449 0.961 . S
H1465 C1449 0.960 . S
C1466 C1467 1.391 . S
C1466 C1468 1.394 . S
C1466 H1482 0.931 . S
C1467 C1466 1.391 . S
C1467 C1471 1.376 . S
C1468 C1466 1.394 . S
C1468 C1469 1.369 . S
C1468 C1472 1.531 . S
C1469 C1468 1.369 . S
C1469 C1470 1.410 . S
C1469 C1477 1.503 . S
C1470 C1469 1.410 . S
C1470 C1471 1.392 . S
C1470 C1473 1.511 . S
C1471 C1467 1.376 . S
C1471 C1470 1.392 . S
C1471 H1483 0.929 . S
C1472 C1468 1.531 . S
C1472 H1484 0.960 . S
C1472 H1485 0.962 . S
C1472 H1486 0.960 . S
C1473 C1470 1.511 . S
C1473 H1487 0.961 . S
C1473 H1488 0.961 . S
C1473 H1489 0.961 . S
C1474 C1475 1.370 . S
C1474 C1476 1.363 . S
C1474 H1490 0.931 . S
C1475 C1474 1.370 . S
C1475 C1479 1.408 . S
C1476 C1474 1.363 . S
C1476 C1477 1.370 . S
C1476 C1480 1.524 . S
C1477 C1469 1.503 . S
C1477 C1476 1.370 . S
C1477 C1478 1.403 . S
C1478 C1477 1.403 . S
C1478 C1479 1.404 . S
C1478 C1481 1.539 . S
C1479 C1475 1.408 . S
C1479 C1478 1.404 . S
C1479 H1491 0.930 . S
C1480 C1476 1.524 . S
C1480 H1492 0.956 . S
C1480 H1493 0.961 . S
C1480 H1494 0.961 . S
C1481 C1478 1.539 . S
C1481 H1495 0.958 . S
C1481 H1496 0.961 . S
C1481 H1497 0.960 . S
H1482 C1466 0.931 . S
H1483 C1471 0.929 . S
H1484 C1472 0.960 . S
H1485 C1472 0.962 . S
H1486 C1472 0.960 . S
H1487 C1473 0.961 . S
H1488 C1473 0.961 . S
H1489 C1473 0.961 . S
H1490 C1474 0.931 . S
H1491 C1479 0.930 . S
H1492 C1480 0.956 . S
H1493 C1480 0.961 . S
H1494 C1480 0.961 . S
H1495 C1481 0.958 . S
H1496 C1481 0.961 . S
H1497 C1481 0.960 . S
C1498 C1499 1.391 . S
C1498 C1500 1.394 . S
C1498 H1514 0.931 . S
C1499 C1498 1.391 . S
C1499 C1503 1.376 . S
C1500 C1498 1.394 . S
C1500 C1501 1.369 . S
C1500 C1504 1.531 . S
C1501 C1500 1.369 . S
C1501 C1502 1.410 . S
C1501 C1509 1.503 . S
C1502 C1501 1.410 . S
C1502 C1503 1.392 . S
C1502 C1505 1.511 . S
C1503 C1499 1.376 . S
C1503 C1502 1.392 . S
C1503 H1515 0.929 . S
C1504 C1500 1.531 . S
C1504 H1516 0.960 . S
C1504 H1517 0.962 . S
C1504 H1518 0.960 . S
C1505 C1502 1.511 . S
C1505 H1519 0.961 . S
C1505 H1520 0.961 . S
C1505 H1521 0.961 . S
C1506 C1507 1.370 . S
C1506 C1508 1.363 . S
C1506 H1522 0.931 . S
C1507 C1506 1.370 . S
C1507 C1511 1.408 . S
C1508 C1506 1.363 . S
C1508 C1509 1.370 . S
C1508 C1512 1.524 . S
C1509 C1501 1.503 . S
C1509 C1508 1.370 . S
C1509 C1510 1.403 . S
C1510 C1509 1.403 . S
C1510 C1511 1.404 . S
C1510 C1513 1.539 . S
C1511 C1507 1.408 . S
C1511 C1510 1.404 . S
C1511 H1523 0.930 . S
C1512 C1508 1.524 . S
C1512 H1524 0.956 . S
C1512 H1525 0.961 . S
C1512 H1526 0.961 . S
C1513 C1510 1.539 . S
C1513 H1527 0.958 . S
C1513 H1528 0.961 . S
C1513 H1529 0.960 . S
H1514 C1498 0.931 . S
H1515 C1503 0.929 . S
H1516 C1504 0.960 . S
H1517 C1504 0.962 . S
H1518 C1504 0.960 . S
H1519 C1505 0.961 . S
H1520 C1505 0.961 . S
H1521 C1505 0.961 . S
H1522 C1506 0.931 . S
H1523 C1511 0.930 . S
H1524 C1512 0.956 . S
H1525 C1512 0.961 . S
H1526 C1512 0.961 . S
H1527 C1513 0.958 . S
H1528 C1513 0.961 . S
H1529 C1513 0.960 . S
C1530 C1531 1.391 . S
C1530 C1532 1.394 . S
C1530 H1546 0.931 . S
C1531 C1530 1.391 . S
C1531 C1535 1.376 . S
C1532 C1530 1.394 . S
C1532 C1533 1.369 . S
C1532 C1536 1.531 . S
C1533 C1532 1.369 . S
C1533 C1534 1.410 . S
C1533 C1541 1.503 . S
C1534 C1533 1.410 . S
C1534 C1535 1.392 . S
C1534 C1537 1.511 . S
C1535 C1531 1.376 . S
C1535 C1534 1.392 . S
C1535 H1547 0.929 . S
C1536 C1532 1.531 . S
C1536 H1548 0.960 . S
C1536 H1549 0.962 . S
C1536 H1550 0.960 . S
C1537 C1534 1.511 . S
C1537 H1551 0.961 . S
C1537 H1552 0.961 . S
C1537 H1553 0.961 . S
C1538 C1539 1.370 . S
C1538 C1540 1.363 . S
C1538 H1554 0.931 . S
C1539 C1538 1.370 . S
C1539 C1543 1.408 . S
C1540 C1538 1.363 . S
C1540 C1541 1.370 . S
C1540 C1544 1.524 . S
C1541 C1533 1.503 . S
C1541 C1540 1.370 . S
C1541 C1542 1.403 . S
C1542 C1541 1.403 . S
C1542 C1543 1.404 . S
C1542 C1545 1.539 . S
C1543 C1539 1.408 . S
C1543 C1542 1.404 . S
C1543 H1555 0.930 . S
C1544 C1540 1.524 . S
C1544 H1556 0.956 . S
C1544 H1557 0.961 . S
C1544 H1558 0.961 . S
C1545 C1542 1.539 . S
C1545 H1559 0.958 . S
C1545 H1560 0.961 . S
C1545 H1561 0.960 . S
H1546 C1530 0.931 . S
H1547 C1535 0.929 . S
H1548 C1536 0.960 . S
H1549 C1536 0.962 . S
H1550 C1536 0.960 . S
H1551 C1537 0.961 . S
H1552 C1537 0.961 . S
H1553 C1537 0.961 . S
H1554 C1538 0.931 . S
H1555 C1543 0.930 . S
H1556 C1544 0.956 . S
H1557 C1544 0.961 . S
H1558 C1544 0.961 . S
H1559 C1545 0.958 . S
H1560 C1545 0.961 . S
H1561 C1545 0.960 . S
C1562 C1563 1.391 . S
C1562 C1564 1.394 . S
C1562 H1578 0.931 . S
C1563 C1562 1.391 . S
C1563 C1567 1.376 . S
C1564 C1562 1.394 . S
C1564 C1565 1.369 . S
C1564 C1568 1.531 . S
C1565 C1564 1.369 . S
C1565 C1566 1.410 . S
C1565 C1573 1.503 . S
C1566 C1565 1.410 . S
C1566 C1567 1.392 . S
C1566 C1569 1.511 . S
C1567 C1563 1.376 . S
C1567 C1566 1.392 . S
C1567 H1579 0.929 . S
C1568 C1564 1.531 . S
C1568 H1580 0.960 . S
C1568 H1581 0.962 . S
C1568 H1582 0.960 . S
C1569 C1566 1.511 . S
C1569 H1583 0.961 . S
C1569 H1584 0.961 . S
C1569 H1585 0.961 . S
C1570 C1571 1.370 . S
C1570 C1572 1.363 . S
C1570 H1586 0.931 . S
C1571 C1570 1.370 . S
C1571 C1575 1.408 . S
C1572 C1570 1.363 . S
C1572 C1573 1.370 . S
C1572 C1576 1.524 . S
C1573 C1565 1.503 . S
C1573 C1572 1.370 . S
C1573 C1574 1.403 . S
C1574 C1573 1.403 . S
C1574 C1575 1.404 . S
C1574 C1577 1.539 . S
C1575 C1571 1.408 . S
C1575 C1574 1.404 . S
C1575 H1587 0.930 . S
C1576 C1572 1.524 . S
C1576 H1588 0.956 . S
C1576 H1589 0.961 . S
C1576 H1590 0.961 . S
C1577 C1574 1.539 . S
C1577 H1591 0.958 . S
C1577 H1592 0.961 . S
C1577 H1593 0.960 . S
H1578 C1562 0.931 . S
H1579 C1567 0.929 . S
H1580 C1568 0.960 . S
H1581 C1568 0.962 . S
H1582 C1568 0.960 . S
H1583 C1569 0.961 . S
H1584 C1569 0.961 . S
H1585 C1569 0.961 . S
H1586 C1570 0.931 . S
H1587 C1575 0.930 . S
H1588 C1576 0.956 . S
H1589 C1576 0.961 . S
H1590 C1576 0.961 . S
H1591 C1577 0.958 . S
H1592 C1577 0.961 . S
H1593 C1577 0.960 . S
C1594 C1595 1.391 . S
C1594 C1596 1.394 . S
C1594 H1610 0.931 . S
C1595 C1594 1.391 . S
C1595 C1599 1.376 . S
C1596 C1594 1.394 . S
C1596 C1597 1.369 . S
C1596 C1600 1.531 . S
C1597 C1596 1.369 . S
C1597 C1598 1.410 . S
C1597 C1605 1.503 . S
C1598 C1597 1.410 . S
C1598 C1599 1.392 . S
C1598 C1601 1.511 . S
C1599 C1595 1.376 . S
C1599 C1598 1.392 . S
C1599 H1611 0.929 . S
C1600 C1596 1.531 . S
C1600 H1612 0.960 . S
C1600 H1613 0.962 . S
C1600 H1614 0.960 . S
C1601 C1598 1.511 . S
C1601 H1615 0.961 . S
C1601 H1616 0.961 . S
C1601 H1617 0.961 . S
C1602 C1603 1.370 . S
C1602 C1604 1.363 . S
C1602 H1618 0.931 . S
C1603 C1602 1.370 . S
C1603 C1607 1.408 . S
C1604 C1602 1.363 . S
C1604 C1605 1.370 . S
C1604 C1608 1.524 . S
C1605 C1597 1.503 . S
C1605 C1604 1.370 . S
C1605 C1606 1.403 . S
C1606 C1605 1.403 . S
C1606 C1607 1.404 . S
C1606 C1609 1.539 . S
C1607 C1603 1.408 . S
C1607 C1606 1.404 . S
C1607 H1619 0.930 . S
C1608 C1604 1.524 . S
C1608 H1620 0.956 . S
C1608 H1621 0.961 . S
C1608 H1622 0.961 . S
C1609 C1606 1.539 . S
C1609 H1623 0.958 . S
C1609 H1624 0.961 . S
C1609 H1625 0.960 . S
H1610 C1594 0.931 . S
H1611 C1599 0.929 . S
H1612 C1600 0.960 . S
H1613 C1600 0.962 . S
H1614 C1600 0.960 . S
H1615 C1601 0.961 . S
H1616 C1601 0.961 . S
H1617 C1601 0.961 . S
H1618 C1602 0.931 . S
H1619 C1607 0.930 . S
H1620 C1608 0.956 . S
H1621 C1608 0.961 . S
H1622 C1608 0.961 . S
H1623 C1609 0.958 . S
H1624 C1609 0.961 . S
H1625 C1609 0.960 . S
C1626 C1627 1.391 . S
C1626 C1628 1.394 . S
C1626 H1642 0.931 . S
C1627 C1626 1.391 . S
C1627 C1631 1.376 . S
C1628 C1626 1.394 . S
C1628 C1629 1.369 . S
C1628 C1632 1.531 . S
C1629 C1628 1.369 . S
C1629 C1630 1.410 . S
C1629 C1637 1.503 . S
C1630 C1629 1.410 . S
C1630 C1631 1.392 . S
C1630 C1633 1.511 . S
C1631 C1627 1.376 . S
C1631 C1630 1.392 . S
C1631 H1643 0.929 . S
C1632 C1628 1.531 . S
C1632 H1644 0.960 . S
C1632 H1645 0.962 . S
C1632 H1646 0.960 . S
C1633 C1630 1.511 . S
C1633 H1647 0.961 . S
C1633 H1648 0.961 . S
C1633 H1649 0.961 . S
C1634 C1635 1.370 . S
C1634 C1636 1.363 . S
C1634 H1650 0.931 . S
C1635 C1634 1.370 . S
C1635 C1639 1.408 . S
C1636 C1634 1.363 . S
C1636 C1637 1.370 . S
C1636 C1640 1.524 . S
C1637 C1629 1.503 . S
C1637 C1636 1.370 . S
C1637 C1638 1.403 . S
C1638 C1637 1.403 . S
C1638 C1639 1.404 . S
C1638 C1641 1.539 . S
C1639 C1635 1.408 . S
C1639 C1638 1.404 . S
C1639 H1651 0.930 . S
C1640 C1636 1.524 . S
C1640 H1652 0.956 . S
C1640 H1653 0.961 . S
C1640 H1654 0.961 . S
C1641 C1638 1.539 . S
C1641 H1655 0.958 . S
C1641 H1656 0.961 . S
C1641 H1657 0.960 . S
H1642 C1626 0.931 . S
H1643 C1631 0.929 . S
H1644 C1632 0.960 . S
H1645 C1632 0.962 . S
H1646 C1632 0.960 . S
H1647 C1633 0.961 . S
H1648 C1633 0.961 . S
H1649 C1633 0.961 . S
H1650 C1634 0.931 . S
H1651 C1639 0.930 . S
H1652 C1640 0.956 . S
H1653 C1640 0.961 . S
H1654 C1640 0.961 . S
H1655 C1641 0.958 . S
H1656 C1641 0.961 . S
H1657 C1641 0.960 . S
C1658 C1659 1.391 . S
C1658 C1660 1.394 . S
C1658 H1674 0.931 . S
C1659 C1658 1.391 . S
C1659 C1663 1.376 . S
C1660 C1658 1.394 . S
C1660 C1661 1.369 . S
C1660 C1664 1.531 . S
C1661 C1660 1.369 . S
C1661 C1662 1.410 . S
C1661 C1669 1.503 . S
C1662 C1661 1.410 . S
C1662 C1663 1.392 . S
C1662 C1665 1.511 . S
C1663 C1659 1.376 . S
C1663 C1662 1.392 . S
C1663 H1675 0.929 . S
C1664 C1660 1.531 . S
C1664 H1676 0.960 . S
C1664 H1677 0.962 . S
C1664 H1678 0.960 . S
C1665 C1662 1.511 . S
C1665 H1679 0.961 . S
C1665 H1680 0.961 . S
C1665 H1681 0.961 . S
C1666 C1667 1.370 . S
C1666 C1668 1.363 . S
C1666 H1682 0.931 . S
C1667 C1666 1.370 . S
C1667 C1671 1.408 . S
C1668 C1666 1.363 . S
C1668 C1669 1.370 . S
C1668 C1672 1.524 . S
C1669 C1661 1.503 . S
C1669 C1668 1.370 . S
C1669 C1670 1.403 . S
C1670 C1669 1.403 . S
C1670 C1671 1.404 . S
C1670 C1673 1.539 . S
C1671 C1667 1.408 . S
C1671 C1670 1.404 . S
C1671 H1683 0.930 . S
C1672 C1668 1.524 . S
C1672 H1684 0.956 . S
C1672 H1685 0.961 . S
C1672 H1686 0.961 . S
C1673 C1670 1.539 . S
C1673 H1687 0.958 . S
C1673 H1688 0.961 . S
C1673 H1689 0.960 . S
H1674 C1658 0.931 . S
H1675 C1663 0.929 . S
H1676 C1664 0.960 . S
H1677 C1664 0.962 . S
H1678 C1664 0.960 . S
H1679 C1665 0.961 . S
H1680 C1665 0.961 . S
H1681 C1665 0.961 . S
H1682 C1666 0.931 . S
H1683 C1671 0.930 . S
H1684 C1672 0.956 . S
H1685 C1672 0.961 . S
H1686 C1672 0.961 . S
H1687 C1673 0.958 . S
H1688 C1673 0.961 . S
H1689 C1673 0.960 . S
C1690 C1691 1.391 . S
C1690 C1692 1.394 . S
C1690 H1706 0.931 . S
C1691 C1690 1.391 . S
C1691 C1695 1.376 . S
C1692 C1690 1.394 . S
C1692 C1693 1.369 . S
C1692 C1696 1.531 . S
C1693 C1692 1.369 . S
C1693 C1694 1.410 . S
C1693 C1701 1.503 . S
C1694 C1693 1.410 . S
C1694 C1695 1.392 . S
C1694 C1697 1.511 . S
C1695 C1691 1.376 . S
C1695 C1694 1.392 . S
C1695 H1707 0.929 . S
C1696 C1692 1.531 . S
C1696 H1708 0.960 . S
C1696 H1709 0.962 . S
C1696 H1710 0.960 . S
C1697 C1694 1.511 . S
C1697 H1711 0.961 . S
C1697 H1712 0.961 . S
C1697 H1713 0.961 . S
C1698 C1699 1.370 . S
C1698 C1700 1.363 1_455 S
C1698 H1714 0.931 . S
C1699 C1698 1.370 . S
C1699 C1703 1.422 . S
C1700 C1698 1.363 1_655 S
C1700 C1701 1.370 . S
C1700 C1704 1.524 . S
C1701 C1693 1.503 . S
C1701 C1700 1.370 . S
C1701 C1702 1.403 . S
C1702 C1701 1.403 . S
C1702 C1703 1.386 1_655 S
C1702 C1705 1.539 . S
C1703 C1699 1.422 . S
C1703 C1702 1.386 1_455 S
C1703 H1715 0.934 . S
C1704 C1700 1.524 . S
C1704 H1716 0.956 . S
C1704 H1717 0.961 . S
C1704 H1718 0.961 . S
C1705 C1702 1.539 . S
C1705 H1719 0.958 . S
C1705 H1720 0.961 . S
C1705 H1721 0.960 . S
H1706 C1690 0.931 . S
H1707 C1695 0.929 . S
H1708 C1696 0.960 . S
H1709 C1696 0.962 . S
H1710 C1696 0.960 . S
H1711 C1697 0.961 . S
H1712 C1697 0.961 . S
H1713 C1697 0.961 . S
H1714 C1698 0.931 . S
H1715 C1703 0.934 . S
H1716 C1704 0.956 . S
H1717 C1704 0.961 . S
H1718 C1704 0.961 . S
H1719 C1705 0.958 . S
H1720 C1705 0.961 . S
H1721 C1705 0.960 . S
C1722 C1723 1.391 . S
C1722 C1724 1.394 . S
C1722 H1738 0.931 . S
C1723 C1722 1.391 . S
C1723 C1727 1.376 . S
C1724 C1722 1.394 . S
C1724 C1725 1.369 . S
C1724 C1728 1.531 . S
C1725 C1724 1.369 . S
C1725 C1726 1.410 . S
C1725 C1733 1.503 . S
C1726 C1725 1.410 . S
C1726 C1727 1.392 . S
C1726 C1729 1.511 . S
C1727 C1723 1.376 . S
C1727 C1726 1.392 . S
C1727 H1739 0.929 . S
C1728 C1724 1.531 . S
C1728 H1740 0.960 . S
C1728 H1741 0.962 . S
C1728 H1742 0.960 . S
C1729 C1726 1.511 . S
C1729 H1743 0.961 . S
C1729 H1744 0.961 . S
C1729 H1745 0.961 . S
C1730 C1731 1.370 . S
C1730 C1732 1.363 . S
C1730 H1746 0.931 . S
C1731 C1730 1.370 . S
C1731 C1735 1.408 . S
C1732 C1730 1.363 . S
C1732 C1733 1.370 . S
C1732 C1736 1.524 . S
C1733 C1725 1.503 . S
C1733 C1732 1.370 . S
C1733 C1734 1.403 . S
C1734 C1733 1.403 . S
C1734 C1735 1.404 . S
C1734 C1737 1.539 . S
C1735 C1731 1.408 . S
C1735 C1734 1.404 . S
C1735 H1747 0.930 . S
C1736 C1732 1.524 . S
C1736 H1748 0.956 . S
C1736 H1749 0.961 . S
C1736 H1750 0.961 . S
C1737 C1734 1.539 . S
C1737 H1751 0.958 . S
C1737 H1752 0.961 . S
C1737 H1753 0.960 . S
H1738 C1722 0.931 . S
H1739 C1727 0.929 . S
H1740 C1728 0.960 . S
H1741 C1728 0.962 . S
H1742 C1728 0.960 . S
H1743 C1729 0.961 . S
H1744 C1729 0.961 . S
H1745 C1729 0.961 . S
H1746 C1730 0.931 . S
H1747 C1735 0.930 . S
H1748 C1736 0.956 . S
H1749 C1736 0.961 . S
H1750 C1736 0.961 . S
H1751 C1737 0.958 . S
H1752 C1737 0.961 . S
H1753 C1737 0.960 . S
C1754 C1755 1.391 . S
C1754 C1756 1.394 . S
C1754 H1770 0.931 . S
C1755 C1754 1.391 . S
C1755 C1759 1.376 . S
C1756 C1754 1.394 . S
C1756 C1757 1.369 . S
C1756 C1760 1.531 . S
C1757 C1756 1.369 . S
C1757 C1758 1.410 . S
C1757 C1765 1.503 . S
C1758 C1757 1.410 . S
C1758 C1759 1.392 . S
C1758 C1761 1.511 . S
C1759 C1755 1.376 . S
C1759 C1758 1.392 . S
C1759 H1771 0.929 . S
C1760 C1756 1.531 . S
C1760 H1772 0.960 . S
C1760 H1773 0.962 . S
C1760 H1774 0.960 . S
C1761 C1758 1.511 . S
C1761 H1775 0.961 . S
C1761 H1776 0.961 . S
C1761 H1777 0.961 . S
C1762 C1763 1.370 . S
C1762 C1764 1.363 . S
C1762 H1778 0.931 . S
C1763 C1762 1.370 . S
C1763 C1767 1.408 . S
C1764 C1762 1.363 . S
C1764 C1765 1.370 . S
C1764 C1768 1.524 . S
C1765 C1757 1.503 . S
C1765 C1764 1.370 . S
C1765 C1766 1.403 . S
C1766 C1765 1.403 . S
C1766 C1767 1.404 . S
C1766 C1769 1.539 . S
C1767 C1763 1.408 . S
C1767 C1766 1.404 . S
C1767 H1779 0.930 . S
C1768 C1764 1.524 . S
C1768 H1780 0.956 . S
C1768 H1781 0.961 . S
C1768 H1782 0.961 . S
C1769 C1766 1.539 . S
C1769 H1783 0.958 . S
C1769 H1784 0.961 . S
C1769 H1785 0.960 . S
H1770 C1754 0.931 . S
H1771 C1759 0.929 . S
H1772 C1760 0.960 . S
H1773 C1760 0.962 . S
H1774 C1760 0.960 . S
H1775 C1761 0.961 . S
H1776 C1761 0.961 . S
H1777 C1761 0.961 . S
H1778 C1762 0.931 . S
H1779 C1767 0.930 . S
H1780 C1768 0.956 . S
H1781 C1768 0.961 . S
H1782 C1768 0.961 . S
H1783 C1769 0.958 . S
H1784 C1769 0.961 . S
H1785 C1769 0.960 . S
C1786 C1787 1.391 . S
C1786 C1788 1.394 . S
C1786 H1802 0.931 . S
C1787 C1786 1.391 . S
C1787 C1791 1.376 . S
C1788 C1786 1.394 . S
C1788 C1789 1.369 . S
C1788 C1792 1.531 . S
C1789 C1788 1.369 . S
C1789 C1790 1.410 . S
C1789 C1797 1.503 . S
C1790 C1789 1.410 . S
C1790 C1791 1.392 . S
C1790 C1793 1.511 . S
C1791 C1787 1.376 . S
C1791 C1790 1.392 . S
C1791 H1803 0.929 . S
C1792 C1788 1.531 . S
C1792 H1804 0.960 . S
C1792 H1805 0.962 . S
C1792 H1806 0.960 . S
C1793 C1790 1.511 . S
C1793 H1807 0.961 . S
C1793 H1808 0.961 . S
C1793 H1809 0.961 . S
C1794 C1795 1.370 . S
C1794 C1796 1.363 . S
C1794 H1810 0.931 . S
C1795 C1794 1.370 . S
C1795 C1799 1.408 . S
C1796 C1794 1.363 . S
C1796 C1797 1.370 . S
C1796 C1800 1.524 . S
C1797 C1789 1.503 . S
C1797 C1796 1.370 . S
C1797 C1798 1.403 . S
C1798 C1797 1.403 . S
C1798 C1799 1.404 . S
C1798 C1801 1.539 . S
C1799 C1795 1.408 . S
C1799 C1798 1.404 . S
C1799 H1811 0.930 . S
C1800 C1796 1.524 . S
C1800 H1812 0.956 . S
C1800 H1813 0.961 . S
C1800 H1814 0.961 . S
C1801 C1798 1.539 . S
C1801 H1815 0.958 . S
C1801 H1816 0.961 . S
C1801 H1817 0.960 . S
H1802 C1786 0.931 . S
H1803 C1791 0.929 . S
H1804 C1792 0.960 . S
H1805 C1792 0.962 . S
H1806 C1792 0.960 . S
H1807 C1793 0.961 . S
H1808 C1793 0.961 . S
H1809 C1793 0.961 . S
H1810 C1794 0.931 . S
H1811 C1799 0.930 . S
H1812 C1800 0.956 . S
H1813 C1800 0.961 . S
H1814 C1800 0.961 . S
H1815 C1801 0.958 . S
H1816 C1801 0.961 . S
H1817 C1801 0.960 . S
C1818 C1819 1.391 . S
C1818 C1820 1.394 . S
C1818 H1834 0.931 . S
C1819 C1818 1.391 . S
C1819 C1823 1.376 . S
C1820 C1818 1.394 . S
C1820 C1821 1.369 . S
C1820 C1824 1.531 . S
C1821 C1820 1.369 . S
C1821 C1822 1.410 . S
C1821 C1829 1.503 . S
C1822 C1821 1.410 . S
C1822 C1823 1.392 . S
C1822 C1825 1.511 1_455 S
C1823 C1819 1.376 . S
C1823 C1822 1.392 . S
C1823 H1835 0.929 . S
C1824 C1820 1.531 . S
C1824 H1836 0.960 . S
C1824 H1837 0.962 . S
C1824 H1838 0.960 . S
C1825 C1822 1.511 1_655 S
C1825 H1839 0.961 . S
C1825 H1840 0.963 1_655 S
C1825 H1841 0.961 . S
C1826 C1827 1.370 . S
C1826 C1828 1.363 . S
C1826 H1842 0.931 . S
C1827 C1826 1.370 . S
C1827 C1831 1.408 . S
C1828 C1826 1.363 . S
C1828 C1829 1.370 . S
C1828 C1832 1.524 . S
C1829 C1821 1.503 . S
C1829 C1828 1.370 . S
C1829 C1830 1.403 . S
C1830 C1829 1.403 . S
C1830 C1831 1.404 . S
C1830 C1833 1.539 1_455 S
C1831 C1827 1.408 . S
C1831 C1830 1.404 . S
C1831 H1843 0.930 . S
C1832 C1828 1.524 . S
C1832 H1844 0.956 . S
C1832 H1845 0.961 . S
C1832 H1846 0.961 . S
C1833 C1830 1.539 1_655 S
C1833 H1847 0.958 1_655 S
C1833 H1848 0.961 . S
C1833 H1849 0.960 . S
H1834 C1818 0.931 . S
H1835 C1823 0.929 . S
H1836 C1824 0.960 . S
H1837 C1824 0.962 . S
H1838 C1824 0.960 . S
H1839 C1825 0.961 . S
H1840 C1825 0.963 1_455 S
H1841 C1825 0.961 . S
H1842 C1826 0.931 . S
H1843 C1831 0.930 . S
H1844 C1832 0.956 . S
H1845 C1832 0.961 . S
H1846 C1832 0.961 . S
H1847 C1833 0.958 1_455 S
H1848 C1833 0.961 . S
H1849 C1833 0.960 . S
C1850 C1851 1.391 . S
C1850 C1852 1.394 . S
C1850 H1866 0.931 . S
C1851 C1850 1.391 . S
C1851 C1855 1.376 . S
C1852 C1850 1.394 . S
C1852 C1853 1.369 . S
C1852 C1856 1.531 . S
C1853 C1852 1.369 . S
C1853 C1854 1.410 . S
C1853 C1861 1.503 . S
C1854 C1853 1.410 . S
C1854 C1855 1.392 . S
C1854 C1857 1.511 . S
C1855 C1851 1.376 . S
C1855 C1854 1.392 . S
C1855 H1867 0.929 . S
C1856 C1852 1.531 . S
C1856 H1868 0.960 . S
C1856 H1869 0.962 . S
C1856 H1870 0.960 . S
C1857 C1854 1.511 . S
C1857 H1871 0.961 . S
C1857 H1872 0.961 . S
C1857 H1873 0.961 . S
C1858 C1859 1.370 . S
C1858 C1860 1.363 . S
C1858 H1874 0.931 . S
C1859 C1858 1.370 . S
C1859 C1863 1.408 . S
C1860 C1858 1.363 . S
C1860 C1861 1.370 . S
C1860 C1864 1.524 . S
C1861 C1853 1.503 . S
C1861 C1860 1.370 . S
C1861 C1862 1.403 . S
C1862 C1861 1.403 . S
C1862 C1863 1.404 . S
C1862 C1865 1.539 . S
C1863 C1859 1.408 . S
C1863 C1862 1.404 . S
C1863 H1875 0.930 . S
C1864 C1860 1.524 . S
C1864 H1876 0.956 . S
C1864 H1877 0.961 . S
C1864 H1878 0.961 . S
C1865 C1862 1.539 . S
C1865 H1879 0.958 . S
C1865 H1880 0.961 . S
C1865 H1881 0.960 . S
H1866 C1850 0.931 . S
H1867 C1855 0.929 . S
H1868 C1856 0.960 . S
H1869 C1856 0.962 . S
H1870 C1856 0.960 . S
H1871 C1857 0.961 . S
H1872 C1857 0.961 . S
H1873 C1857 0.961 . S
H1874 C1858 0.931 . S
H1875 C1863 0.930 . S
H1876 C1864 0.956 . S
H1877 C1864 0.961 . S
H1878 C1864 0.961 . S
H1879 C1865 0.958 . S
H1880 C1865 0.961 . S
H1881 C1865 0.960 . S
C1882 C1883 1.391 . S
C1882 C1884 1.394 . S
C1882 H1898 0.931 . S
C1883 C1882 1.391 . S
C1883 C1887 1.376 . S
C1884 C1882 1.394 . S
C1884 C1885 1.369 . S
C1884 C1888 1.531 . S
C1885 C1884 1.369 . S
C1885 C1886 1.410 . S
C1885 C1893 1.503 . S
C1886 C1885 1.410 . S
C1886 C1887 1.392 . S
C1886 C1889 1.511 . S
C1887 C1883 1.376 . S
C1887 C1886 1.392 . S
C1887 H1899 0.929 . S
C1888 C1884 1.531 . S
C1888 H1900 0.960 . S
C1888 H1901 0.962 . S
C1888 H1902 0.960 . S
C1889 C1886 1.511 . S
C1889 H1903 0.961 . S
C1889 H1904 0.961 . S
C1889 H1905 0.961 . S
C1890 C1891 1.370 . S
C1890 C1892 1.363 . S
C1890 H1906 0.931 . S
C1891 C1890 1.370 . S
C1891 C1895 1.408 . S
C1892 C1890 1.363 . S
C1892 C1893 1.370 . S
C1892 C1896 1.524 . S
C1893 C1885 1.503 . S
C1893 C1892 1.370 . S
C1893 C1894 1.403 . S
C1894 C1893 1.403 . S
C1894 C1895 1.404 . S
C1894 C1897 1.539 1_545 S
C1895 C1891 1.408 . S
C1895 C1894 1.404 . S
C1895 H1907 0.940 . S
C1896 C1892 1.524 . S
C1896 H1908 0.956 . S
C1896 H1909 0.961 . S
C1896 H1910 0.961 . S
C1897 C1894 1.539 1_565 S
C1897 H1911 0.958 . S
C1897 H1912 0.961 . S
C1897 H1913 0.960 . S
H1898 C1882 0.931 . S
H1899 C1887 0.929 . S
H1900 C1888 0.960 . S
H1901 C1888 0.962 . S
H1902 C1888 0.960 . S
H1903 C1889 0.961 . S
H1904 C1889 0.961 . S
H1905 C1889 0.961 . S
H1906 C1890 0.931 . S
H1907 C1895 0.940 . S
H1908 C1896 0.956 . S
H1909 C1896 0.961 . S
H1910 C1896 0.961 . S
H1911 C1897 0.958 . S
H1912 C1897 0.961 . S
H1913 C1897 0.960 . S
C1914 C1915 1.391 . S
C1914 C1916 1.394 . S
C1914 H1930 0.931 . S
C1915 C1914 1.391 . S
C1915 C1919 1.376 . S
C1916 C1914 1.394 . S
C1916 C1917 1.369 . S
C1916 C1920 1.531 . S
C1917 C1916 1.369 . S
C1917 C1918 1.410 . S
C1917 C1925 1.503 . S
C1918 C1917 1.410 . S
C1918 C1919 1.392 . S
C1918 C1921 1.511 . S
C1919 C1915 1.376 . S
C1919 C1918 1.392 . S
C1919 H1931 0.929 . S
C1920 C1916 1.531 . S
C1920 H1932 0.960 . S
C1920 H1933 0.962 . S
C1920 H1934 0.960 . S
C1921 C1918 1.511 . S
C1921 H1935 0.961 1_545 S
C1921 H1936 0.961 1_545 S
C1921 H1937 0.961 . S
C1922 C1923 1.370 . S
C1922 C1924 1.363 . S
C1922 H1938 0.931 1_545 S
C1923 C1922 1.370 . S
C1923 C1927 1.408 . S
C1924 C1922 1.363 . S
C1924 C1925 1.370 . S
C1924 C1928 1.524 1_545 S
C1925 C1917 1.503 . S
C1925 C1924 1.370 . S
C1925 C1926 1.403 . S
C1926 C1925 1.403 . S
C1926 C1927 1.404 . S
C1926 C1929 1.539 . S
C1927 C1923 1.408 . S
C1927 C1926 1.404 . S
C1927 H1939 0.930 . S
C1928 C1924 1.524 1_565 S
C1928 H1940 0.956 1_565 S
C1928 H1941 0.961 . S
C1928 H1942 0.961 . S
C1929 C1926 1.539 . S
C1929 H1943 0.958 . S
C1929 H1944 0.961 . S
C1929 H1945 0.960 . S
H1930 C1914 0.931 . S
H1931 C1919 0.929 . S
H1932 C1920 0.960 . S
H1933 C1920 0.962 . S
H1934 C1920 0.960 . S
H1935 C1921 0.961 1_565 S
H1936 C1921 0.961 1_565 S
H1937 C1921 0.961 . S
H1938 C1922 0.931 1_565 S
H1939 C1927 0.930 . S
H1940 C1928 0.956 1_545 S
H1941 C1928 0.961 . S
H1942 C1928 0.961 . S
H1943 C1929 0.958 . S
H1944 C1929 0.961 . S
H1945 C1929 0.960 . S
C1946 C1947 1.391 . S
C1946 C1948 1.394 . S
C1946 H1962 0.931 . S
C1947 C1946 1.391 . S
C1947 C1951 1.376 . S
C1948 C1946 1.394 . S
C1948 C1949 1.369 . S
C1948 C1952 1.531 . S
C1949 C1948 1.369 . S
C1949 C1950 1.410 . S
C1949 C1957 1.503 . S
C1950 C1949 1.410 . S
C1950 C1951 1.392 . S
C1950 C1953 1.511 . S
C1951 C1947 1.376 . S
C1951 C1950 1.392 . S
C1951 H1963 0.929 . S
C1952 C1948 1.531 . S
C1952 H1964 0.960 . S
C1952 H1965 0.962 . S
C1952 H1966 0.960 . S
C1953 C1950 1.511 . S
C1953 H1967 0.961 . S
C1953 H1968 0.961 . S
C1953 H1969 0.961 . S
C1954 C1955 1.370 . S
C1954 C1956 1.363 . S
C1954 H1970 0.931 . S
C1955 C1954 1.370 . S
C1955 C1959 1.408 . S
C1956 C1954 1.363 . S
C1956 C1957 1.370 . S
C1956 C1960 1.524 . S
C1957 C1949 1.503 . S
C1957 C1956 1.370 . S
C1957 C1958 1.403 . S
C1958 C1957 1.403 . S
C1958 C1959 1.404 . S
C1958 C1961 1.539 . S
C1959 C1955 1.408 . S
C1959 C1958 1.404 . S
C1959 H1971 0.930 . S
C1960 C1956 1.524 . S
C1960 H1972 0.956 . S
C1960 H1973 0.961 . S
C1960 H1974 0.961 1_455 S
C1961 C1958 1.539 . S
C1961 H1975 0.958 . S
C1961 H1976 0.961 . S
C1961 H1977 0.960 . S
H1962 C1946 0.931 . S
H1963 C1951 0.929 . S
H1964 C1952 0.960 . S
H1965 C1952 0.962 . S
H1966 C1952 0.960 . S
H1967 C1953 0.961 . S
H1968 C1953 0.961 . S
H1969 C1953 0.961 . S
H1970 C1954 0.931 . S
H1971 C1959 0.930 . S
H1972 C1960 0.956 . S
H1973 C1960 0.961 . S
H1974 C1960 0.961 1_655 S
H1975 C1961 0.958 . S
H1976 C1961 0.961 . S
H1977 C1961 0.960 . S
C1978 C1979 1.391 . S
C1978 C1980 1.394 . S
C1978 H1994 0.931 . S
C1979 C1978 1.391 . S
C1979 C1983 1.376 . S
C1980 C1978 1.394 . S
C1980 C1981 1.369 . S
C1980 C1984 1.531 . S
C1981 C1980 1.369 . S
C1981 C1982 1.410 . S
C1981 C1989 1.503 . S
C1982 C1981 1.410 . S
C1982 C1983 1.392 . S
C1982 C1985 1.511 . S
C1983 C1979 1.376 . S
C1983 C1982 1.392 . S
C1983 H1995 0.929 . S
C1984 C1980 1.531 . S
C1984 H1996 0.960 . S
C1984 H1997 0.962 . S
C1984 H1998 0.960 . S
C1985 C1982 1.511 . S
C1985 H1999 0.961 . S
C1985 H2000 0.961 . S
C1985 H2001 0.961 . S
C1986 C1987 1.370 . S
C1986 C1988 1.363 . S
C1986 H2002 0.931 . S
C1987 C1986 1.370 . S
C1987 C1991 1.408 . S
C1988 C1986 1.363 . S
C1988 C1989 1.370 . S
C1988 C1992 1.524 . S
C1989 C1981 1.503 . S
C1989 C1988 1.370 . S
C1989 C1990 1.403 . S
C1990 C1989 1.403 . S
C1990 C1991 1.404 . S
C1990 C1993 1.539 . S
C1991 C1987 1.408 . S
C1991 C1990 1.404 . S
C1991 H2003 0.930 . S
C1992 C1988 1.524 . S
C1992 H2004 0.956 . S
C1992 H2005 0.961 . S
C1992 H2006 0.961 . S
C1993 C1990 1.539 . S
C1993 H2007 0.958 . S
C1993 H2008 0.961 . S
C1993 H2009 0.960 . S
H1994 C1978 0.931 . S
H1995 C1983 0.929 . S
H1996 C1984 0.960 . S
H1997 C1984 0.962 . S
H1998 C1984 0.960 . S
H1999 C1985 0.961 . S
H2000 C1985 0.961 . S
H2001 C1985 0.961 . S
H2002 C1986 0.931 . S
H2003 C1991 0.930 . S
H2004 C1992 0.956 . S
H2005 C1992 0.961 . S
H2006 C1992 0.961 . S
H2007 C1993 0.958 . S
H2008 C1993 0.961 . S
H2009 C1993 0.960 . S
C2010 C2011 1.391 . S
C2010 C2012 1.394 . S
C2010 H2026 0.931 . S
C2011 C2010 1.391 . S
C2011 C2015 1.376 . S
C2012 C2010 1.394 . S
C2012 C2013 1.369 . S
C2012 C2016 1.531 . S
C2013 C2012 1.369 . S
C2013 C2014 1.410 . S
C2013 C2021 1.503 . S
C2014 C2013 1.410 . S
C2014 C2015 1.392 . S
C2014 C2017 1.511 . S
C2015 C2011 1.376 . S
C2015 C2014 1.392 . S
C2015 H2027 0.929 . S
C2016 C2012 1.531 . S
C2016 H2028 0.960 . S
C2016 H2029 0.962 1_455 S
C2016 H2030 0.960 . S
C2017 C2014 1.511 . S
C2017 H2031 0.961 . S
C2017 H2032 0.961 . S
C2017 H2033 0.961 . S
C2018 C2019 1.370 . S
C2018 C2020 1.363 . S
C2018 H2034 0.931 1_455 S
C2019 C2018 1.370 . S
C2019 C2023 1.408 . S
C2020 C2018 1.363 . S
C2020 C2021 1.370 . S
C2020 C2024 1.491 1_455 S
C2021 C2013 1.503 . S
C2021 C2020 1.370 . S
C2021 C2022 1.403 . S
C2022 C2021 1.403 . S
C2022 C2023 1.404 . S
C2022 C2025 1.539 . S
C2023 C2019 1.408 . S
C2023 C2022 1.404 . S
C2023 H2035 0.930 . S
C2024 C2020 1.491 1_655 S
C2024 H2036 0.960 . S
C2024 H2037 0.936 1_655 S
C2024 H2038 1.019 . S
C2025 C2022 1.539 . S
C2025 H2039 0.958 . S
C2025 H2040 0.961 . S
C2025 H2041 0.960 . S
H2026 C2010 0.931 . S
H2027 C2015 0.929 . S
H2028 C2016 0.960 . S
H2029 C2016 0.962 1_655 S
H2030 C2016 0.960 . S
H2031 C2017 0.961 . S
H2032 C2017 0.961 . S
H2033 C2017 0.961 . S
H2034 C2018 0.931 1_655 S
H2035 C2023 0.930 . S
H2036 C2024 0.960 . S
H2037 C2024 0.936 1_455 S
H2038 C2024 1.019 . S
H2039 C2025 0.958 . S
H2040 C2025 0.961 . S
H2041 C2025 0.960 . S
C2042 C2043 1.391 . S
C2042 C2044 1.394 . S
C2042 H2058 0.931 . S
C2043 C2042 1.391 . S
C2043 C2047 1.376 . S
C2044 C2042 1.394 . S
C2044 C2045 1.369 . S
C2044 C2048 1.531 . S
C2045 C2044 1.369 . S
C2045 C2046 1.410 . S
C2045 C2053 1.503 . S
C2046 C2045 1.410 . S
C2046 C2047 1.392 . S
C2046 C2049 1.511 . S
C2047 C2043 1.376 . S
C2047 C2046 1.392 . S
C2047 H2059 0.929 . S
C2048 C2044 1.531 . S
C2048 H2060 0.960 . S
C2048 H2061 0.962 . S
C2048 H2062 0.960 . S
C2049 C2046 1.511 . S
C2049 H2063 0.961 . S
C2049 H2064 0.961 . S
C2049 H2065 0.961 . S
C2050 C2051 1.370 . S
C2050 C2052 1.363 . S
C2050 H2066 0.931 . S
C2051 C2050 1.370 . S
C2051 C2055 1.408 . S
C2052 C2050 1.363 . S
C2052 C2053 1.370 . S
C2052 C2056 1.524 . S
C2053 C2045 1.503 . S
C2053 C2052 1.370 . S
C2053 C2054 1.403 . S
C2054 C2053 1.403 . S
C2054 C2055 1.404 . S
C2054 C2057 1.539 . S
C2055 C2051 1.408 . S
C2055 C2054 1.404 . S
C2055 H2067 0.930 . S
C2056 C2052 1.524 . S
C2056 H2068 0.956 . S
C2056 H2069 0.961 . S
C2056 H2070 0.961 . S
C2057 C2054 1.539 . S
C2057 H2071 0.958 . S
C2057 H2072 0.961 . S
C2057 H2073 0.960 . S
H2058 C2042 0.931 . S
H2059 C2047 0.929 . S
H2060 C2048 0.960 . S
H2061 C2048 0.962 . S
H2062 C2048 0.960 . S
H2063 C2049 0.961 . S
H2064 C2049 0.961 . S
H2065 C2049 0.961 . S
H2066 C2050 0.931 . S
H2067 C2055 0.930 . S
H2068 C2056 0.956 . S
H2069 C2056 0.961 . S
H2070 C2056 0.961 . S
H2071 C2057 0.958 . S
H2072 C2057 0.961 . S
H2073 C2057 0.960 . S
C2074 C2075 1.391 . S
C2074 C2076 1.394 . S
C2074 H2090 0.931 . S
C2075 C2074 1.391 . S
C2075 C2079 1.376 . S
C2076 C2074 1.394 . S
C2076 C2077 1.369 . S
C2076 C2080 1.531 . S
C2077 C2076 1.369 . S
C2077 C2078 1.410 . S
C2077 C2085 1.503 . S
C2078 C2077 1.410 . S
C2078 C2079 1.392 . S
C2078 C2081 1.511 . S
C2079 C2075 1.376 . S
C2079 C2078 1.392 . S
C2079 H2091 0.929 . S
C2080 C2076 1.531 . S
C2080 H2092 0.960 . S
C2080 H2093 0.962 . S
C2080 H2094 0.960 . S
C2081 C2078 1.511 . S
C2081 H2095 0.961 . S
C2081 H2096 0.961 . S
C2081 H2097 0.961 . S
C2082 C2083 1.370 . S
C2082 C2084 1.363 . S
C2082 H2098 0.931 . S
C2083 C2082 1.370 . S
C2083 C2087 1.408 . S
C2084 C2082 1.363 . S
C2084 C2085 1.370 . S
C2084 C2088 1.524 . S
C2085 C2077 1.503 . S
C2085 C2084 1.370 . S
C2085 C2086 1.403 . S
C2086 C2085 1.403 . S
C2086 C2087 1.404 . S
C2086 C2089 1.539 . S
C2087 C2083 1.408 . S
C2087 C2086 1.404 . S
C2087 H2099 0.930 . S
C2088 C2084 1.524 . S
C2088 H2100 0.956 . S
C2088 H2101 0.961 . S
C2088 H2102 0.961 . S
C2089 C2086 1.539 . S
C2089 H2103 0.958 . S
C2089 H2104 0.961 . S
C2089 H2105 0.960 . S
H2090 C2074 0.931 . S
H2091 C2079 0.929 . S
H2092 C2080 0.960 . S
H2093 C2080 0.962 . S
H2094 C2080 0.960 . S
H2095 C2081 0.961 . S
H2096 C2081 0.961 . S
H2097 C2081 0.961 . S
H2098 C2082 0.931 . S
H2099 C2087 0.930 . S
H2100 C2088 0.956 . S
H2101 C2088 0.961 . S
H2102 C2088 0.961 . S
H2103 C2089 0.958 . S
H2104 C2089 0.961 . S
H2105 C2089 0.960 . S
C2106 C2107 1.391 . S
C2106 C2108 1.394 . S
C2106 H2122 0.931 . S
C2107 C2106 1.391 . S
C2107 C2111 1.376 . S
C2108 C2106 1.394 . S
C2108 C2109 1.369 . S
C2108 C2112 1.531 . S
C2109 C2108 1.369 . S
C2109 C2110 1.410 . S
C2109 C2117 1.503 . S
C2110 C2109 1.410 . S
C2110 C2111 1.392 . S
C2110 C2113 1.511 . S
C2111 C2107 1.376 . S
C2111 C2110 1.392 . S
C2111 H2123 0.929 . S
C2112 C2108 1.531 . S
C2112 H2124 0.960 . S
C2112 H2125 0.962 . S
C2112 H2126 0.960 . S
C2113 C2110 1.511 . S
C2113 H2127 0.961 . S
C2113 H2128 0.961 . S
C2113 H2129 0.961 . S
C2114 C2115 1.370 . S
C2114 C2116 1.363 . S
C2114 H2130 0.931 . S
C2115 C2114 1.370 . S
C2115 C2119 1.408 . S
C2116 C2114 1.363 . S
C2116 C2117 1.370 . S
C2116 C2120 1.524 . S
C2117 C2109 1.503 . S
C2117 C2116 1.370 . S
C2117 C2118 1.403 . S
C2118 C2117 1.403 . S
C2118 C2119 1.404 . S
C2118 C2121 1.539 . S
C2119 C2115 1.408 . S
C2119 C2118 1.404 . S
C2119 H2131 0.930 . S
C2120 C2116 1.524 . S
C2120 H2132 0.956 . S
C2120 H2133 0.961 . S
C2120 H2134 0.961 . S
C2121 C2118 1.539 . S
C2121 H2135 0.958 . S
C2121 H2136 0.961 . S
C2121 H2137 0.960 . S
H2122 C2106 0.931 . S
H2123 C2111 0.929 . S
H2124 C2112 0.960 . S
H2125 C2112 0.962 . S
H2126 C2112 0.960 . S
H2127 C2113 0.961 . S
H2128 C2113 0.961 . S
H2129 C2113 0.961 . S
H2130 C2114 0.931 . S
H2131 C2119 0.930 . S
H2132 C2120 0.956 . S
H2133 C2120 0.961 . S
H2134 C2120 0.961 . S
H2135 C2121 0.958 . S
H2136 C2121 0.961 . S
H2137 C2121 0.960 . S
C2138 C2139 1.391 . S
C2138 C2140 1.394 . S
C2138 H2154 0.931 . S
C2139 C2138 1.391 . S
C2139 C2143 1.376 . S
C2140 C2138 1.394 . S
C2140 C2141 1.369 . S
C2140 C2144 1.531 . S
C2141 C2140 1.369 . S
C2141 C2142 1.410 . S
C2141 C2149 1.503 . S
C2142 C2141 1.410 . S
C2142 C2143 1.392 . S
C2142 C2145 1.511 1_455 S
C2143 C2139 1.376 . S
C2143 C2142 1.392 . S
C2143 H2155 0.929 . S
C2144 C2140 1.531 . S
C2144 H2156 0.960 . S
C2144 H2157 0.962 . S
C2144 H2158 0.960 . S
C2145 C2142 1.511 1_655 S
C2145 H2159 0.961 . S
C2145 H2160 0.961 . S
C2145 H2161 0.961 . S
C2146 C2147 1.370 . S
C2146 C2148 1.363 . S
C2146 H2162 0.931 . S
C2147 C2146 1.370 . S
C2147 C2151 1.408 . S
C2148 C2146 1.363 . S
C2148 C2149 1.370 . S
C2148 C2152 1.524 . S
C2149 C2141 1.503 . S
C2149 C2148 1.370 . S
C2149 C2150 1.403 . S
C2150 C2149 1.403 . S
C2150 C2151 1.404 . S
C2150 C2153 1.539 . S
C2151 C2147 1.408 . S
C2151 C2150 1.404 . S
C2151 H2163 0.930 . S
C2152 C2148 1.524 . S
C2152 H2164 0.956 . S
C2152 H2165 0.961 . S
C2152 H2166 0.961 . S
C2153 C2150 1.539 . S
C2153 H2167 0.958 . S
C2153 H2168 0.961 . S
C2153 H2169 0.960 . S
H2154 C2138 0.931 . S
H2155 C2143 0.929 . S
H2156 C2144 0.960 . S
H2157 C2144 0.962 . S
H2158 C2144 0.960 . S
H2159 C2145 0.961 . S
H2160 C2145 0.961 . S
H2161 C2145 0.961 . S
H2162 C2146 0.931 . S
H2163 C2151 0.930 . S
H2164 C2152 0.956 . S
H2165 C2152 0.961 . S
H2166 C2152 0.961 . S
H2167 C2153 0.958 . S
H2168 C2153 0.961 . S
H2169 C2153 0.960 . S
C2170 C2171 1.391 . S
C2170 C2172 1.394 . S
C2170 H2186 0.931 . S
C2171 C2170 1.391 . S
C2171 C2175 1.376 . S
C2172 C2170 1.394 . S
C2172 C2173 1.369 . S
C2172 C2176 1.531 . S
C2173 C2172 1.369 . S
C2173 C2174 1.410 . S
C2173 C2181 1.503 . S
C2174 C2173 1.410 . S
C2174 C2175 1.392 . S
C2174 C2177 1.511 . S
C2175 C2171 1.376 . S
C2175 C2174 1.392 . S
C2175 H2187 0.929 . S
C2176 C2172 1.531 . S
C2176 H2188 0.960 . S
C2176 H2189 0.962 . S
C2176 H2190 0.960 . S
C2177 C2174 1.511 . S
C2177 H2191 0.961 . S
C2177 H2192 0.961 . S
C2177 H2193 0.961 . S
C2178 C2179 1.370 . S
C2178 C2180 1.363 . S
C2178 H2194 0.931 . S
C2179 C2178 1.370 . S
C2179 C2183 1.408 . S
C2180 C2178 1.363 . S
C2180 C2181 1.370 . S
C2180 C2184 1.524 . S
C2181 C2173 1.503 . S
C2181 C2180 1.370 . S
C2181 C2182 1.403 . S
C2182 C2181 1.403 . S
C2182 C2183 1.404 . S
C2182 C2185 1.539 . S
C2183 C2179 1.408 . S
C2183 C2182 1.404 . S
C2183 H2195 0.930 . S
C2184 C2180 1.524 . S
C2184 H2196 0.956 . S
C2184 H2197 0.961 . S
C2184 H2198 0.961 . S
C2185 C2182 1.539 . S
C2185 H2199 0.958 . S
C2185 H2200 0.961 . S
C2185 H2201 0.960 . S
H2186 C2170 0.931 . S
H2187 C2175 0.929 . S
H2188 C2176 0.960 . S
H2189 C2176 0.962 . S
H2190 C2176 0.960 . S
H2191 C2177 0.961 . S
H2192 C2177 0.961 . S
H2193 C2177 0.961 . S
H2194 C2178 0.931 . S
H2195 C2183 0.930 . S
H2196 C2184 0.956 . S
H2197 C2184 0.961 . S
H2198 C2184 0.961 . S
H2199 C2185 0.958 . S
H2200 C2185 0.961 . S
H2201 C2185 0.960 . S
C2202 C2203 1.391 . S
C2202 C2204 1.394 . S
C2202 H2218 0.931 . S
C2203 C2202 1.391 . S
C2203 C2207 1.376 . S
C2204 C2202 1.394 . S
C2204 C2205 1.369 . S
C2204 C2208 1.531 . S
C2205 C2204 1.369 . S
C2205 C2206 1.410 . S
C2205 C2213 1.503 . S
C2206 C2205 1.410 . S
C2206 C2207 1.392 . S
C2206 C2209 1.511 . S
C2207 C2203 1.376 . S
C2207 C2206 1.392 . S
C2207 H2219 0.929 . S
C2208 C2204 1.531 . S
C2208 H2220 0.960 . S
C2208 H2221 0.962 . S
C2208 H2222 0.960 . S
C2209 C2206 1.511 . S
C2209 H2223 0.961 . S
C2209 H2224 0.961 . S
C2209 H2225 0.961 . S
C2210 C2211 1.370 . S
C2210 C2212 1.363 . S
C2210 H2226 0.931 . S
C2211 C2210 1.370 . S
C2211 C2215 1.408 . S
C2212 C2210 1.363 . S
C2212 C2213 1.370 . S
C2212 C2216 1.524 . S
C2213 C2205 1.503 . S
C2213 C2212 1.370 . S
C2213 C2214 1.403 . S
C2214 C2213 1.403 . S
C2214 C2215 1.404 . S
C2214 C2217 1.539 . S
C2215 C2211 1.408 . S
C2215 C2214 1.404 . S
C2215 H2227 0.930 . S
C2216 C2212 1.524 . S
C2216 H2228 0.956 . S
C2216 H2229 0.961 . S
C2216 H2230 0.961 . S
C2217 C2214 1.539 . S
C2217 H2231 0.958 . S
C2217 H2232 0.961 . S
C2217 H2233 0.960 . S
H2218 C2202 0.931 . S
H2219 C2207 0.929 . S
H2220 C2208 0.960 . S
H2221 C2208 0.962 . S
H2222 C2208 0.960 . S
H2223 C2209 0.961 . S
H2224 C2209 0.961 . S
H2225 C2209 0.961 . S
H2226 C2210 0.931 . S
H2227 C2215 0.930 . S
H2228 C2216 0.956 . S
H2229 C2216 0.961 . S
H2230 C2216 0.961 . S
H2231 C2217 0.958 . S
H2232 C2217 0.961 . S
H2233 C2217 0.960 . S
C2234 C2235 1.391 . S
C2234 C2236 1.394 . S
C2234 H2250 0.931 . S
C2235 C2234 1.391 . S
C2235 C2239 1.376 . S
C2236 C2234 1.394 . S
C2236 C2237 1.369 . S
C2236 C2240 1.531 . S
C2237 C2236 1.369 . S
C2237 C2238 1.410 . S
C2237 C2245 1.503 . S
C2238 C2237 1.410 . S
C2238 C2239 1.392 . S
C2238 C2241 1.511 . S
C2239 C2235 1.376 . S
C2239 C2238 1.392 . S
C2239 H2251 0.929 . S
C2240 C2236 1.531 . S
C2240 H2252 0.960 . S
C2240 H2253 0.962 . S
C2240 H2254 0.960 . S
C2241 C2238 1.511 . S
C2241 H2255 0.961 . S
C2241 H2256 0.961 . S
C2241 H2257 0.961 . S
C2242 C2243 1.370 . S
C2242 C2244 1.363 . S
C2242 H2258 0.931 . S
C2243 C2242 1.370 . S
C2243 C2247 1.408 . S
C2244 C2242 1.363 . S
C2244 C2245 1.370 . S
C2244 C2248 1.524 . S
C2245 C2237 1.503 . S
C2245 C2244 1.370 . S
C2245 C2246 1.403 . S
C2246 C2245 1.403 . S
C2246 C2247 1.404 . S
C2246 C2249 1.539 . S
C2247 C2243 1.408 . S
C2247 C2246 1.404 . S
C2247 H2259 0.930 . S
C2248 C2244 1.524 . S
C2248 H2260 0.956 . S
C2248 H2261 0.961 . S
C2248 H2262 0.961 . S
C2249 C2246 1.539 . S
C2249 H2263 0.958 . S
C2249 H2264 0.961 . S
C2249 H2265 0.960 . S
H2250 C2234 0.931 . S
H2251 C2239 0.929 . S
H2252 C2240 0.960 . S
H2253 C2240 0.962 . S
H2254 C2240 0.960 . S
H2255 C2241 0.961 . S
H2256 C2241 0.961 . S
H2257 C2241 0.961 . S
H2258 C2242 0.931 . S
H2259 C2247 0.930 . S
H2260 C2248 0.956 . S
H2261 C2248 0.961 . S
H2262 C2248 0.961 . S
H2263 C2249 0.958 . S
H2264 C2249 0.961 . S
H2265 C2249 0.960 . S
C2266 C2267 1.391 . S
C2266 C2268 1.394 . S
C2266 H2282 0.931 . S
C2267 C2266 1.391 . S
C2267 C2271 1.376 . S
C2268 C2266 1.394 . S
C2268 C2269 1.369 . S
C2268 C2272 1.531 . S
C2269 C2268 1.369 . S
C2269 C2270 1.410 . S
C2269 C2277 1.503 . S
C2270 C2269 1.410 . S
C2270 C2271 1.392 . S
C2270 C2273 1.511 . S
C2271 C2267 1.376 . S
C2271 C2270 1.392 . S
C2271 H2283 0.929 . S
C2272 C2268 1.531 . S
C2272 H2284 0.960 . S
C2272 H2285 0.962 . S
C2272 H2286 0.960 . S
C2273 C2270 1.511 . S
C2273 H2287 0.961 . S
C2273 H2288 0.961 . S
C2273 H2289 0.961 . S
C2274 C2275 1.370 . S
C2274 C2276 1.363 . S
C2274 H2290 0.931 . S
C2275 C2274 1.370 . S
C2275 C2279 1.408 . S
C2276 C2274 1.363 . S
C2276 C2277 1.370 . S
C2276 C2280 1.524 . S
C2277 C2269 1.503 . S
C2277 C2276 1.370 . S
C2277 C2278 1.403 . S
C2278 C2277 1.403 . S
C2278 C2279 1.404 . S
C2278 C2281 1.539 . S
C2279 C2275 1.408 . S
C2279 C2278 1.404 . S
C2279 H2291 0.930 . S
C2280 C2276 1.524 . S
C2280 H2292 0.956 . S
C2280 H2293 0.961 . S
C2280 H2294 0.961 . S
C2281 C2278 1.539 . S
C2281 H2295 0.958 . S
C2281 H2296 0.961 . S
C2281 H2297 0.960 . S
H2282 C2266 0.931 . S
H2283 C2271 0.929 . S
H2284 C2272 0.960 . S
H2285 C2272 0.962 . S
H2286 C2272 0.960 . S
H2287 C2273 0.961 . S
H2288 C2273 0.961 . S
H2289 C2273 0.961 . S
H2290 C2274 0.931 . S
H2291 C2279 0.930 . S
H2292 C2280 0.956 . S
H2293 C2280 0.961 . S
H2294 C2280 0.961 . S
H2295 C2281 0.958 . S
H2296 C2281 0.961 . S
H2297 C2281 0.960 . S
C2298 C2299 1.391 . S
C2298 C2300 1.394 . S
C2298 H2314 0.931 . S
C2299 C2298 1.391 . S
C2299 C2303 1.376 . S
C2300 C2298 1.394 . S
C2300 C2301 1.369 . S
C2300 C2304 1.556 . S
C2301 C2300 1.369 . S
C2301 C2302 1.410 . S
C2301 C2309 1.503 . S
C2302 C2301 1.410 . S
C2302 C2303 1.392 . S
C2302 C2305 1.511 . S
C2303 C2299 1.376 . S
C2303 C2302 1.392 . S
C2303 H2315 0.929 . S
C2304 C2300 1.556 . S
C2304 H2316 0.936 1_556 S
C2304 H2317 0.963 . S
C2304 H2318 0.959 1_556 S
C2305 C2302 1.511 . S
C2305 H2319 0.961 . S
C2305 H2320 0.961 . S
C2305 H2321 0.961 . S
C2306 C2307 1.370 . S
C2306 C2308 1.363 1_554 S
C2306 H2322 0.931 . S
C2307 C2306 1.370 . S
C2307 C2311 1.408 . S
C2308 C2306 1.363 1_556 S
C2308 C2309 1.370 . S
C2308 C2312 1.524 . S
C2309 C2301 1.503 . S
C2309 C2308 1.370 . S
C2309 C2310 1.403 1_556 S
C2310 C2309 1.403 1_554 S
C2310 C2311 1.404 . S
C2310 C2313 1.539 . S
C2311 C2307 1.408 . S
C2311 C2310 1.404 . S
C2311 H2323 0.930 . S
C2312 C2308 1.524 . S
C2312 H2324 0.956 . S
C2312 H2325 0.961 . S
C2312 H2326 0.961 . S
C2313 C2310 1.539 . S
C2313 H2327 0.958 . S
C2313 H2328 0.961 . S
C2313 H2329 0.957 1_554 S
H2314 C2298 0.931 . S
H2315 C2303 0.929 . S
H2316 C2304 0.936 1_554 S
H2317 C2304 0.963 . S
H2318 C2304 0.959 1_554 S
H2319 C2305 0.961 . S
H2320 C2305 0.961 . S
H2321 C2305 0.961 . S
H2322 C2306 0.931 . S
H2323 C2311 0.930 . S
H2324 C2312 0.956 . S
H2325 C2312 0.961 . S
H2326 C2312 0.961 . S
H2327 C2313 0.958 . S
H2328 C2313 0.961 . S
H2329 C2313 0.957 1_556 S
C2330 C2331 1.391 . S
C2330 C2332 1.394 . S
C2330 H2346 0.931 . S
C2331 C2330 1.391 . S
C2331 C2335 1.376 . S
C2332 C2330 1.394 . S
C2332 C2333 1.369 . S
C2332 C2336 1.531 . S
C2333 C2332 1.369 . S
C2333 C2334 1.410 . S
C2333 C2341 1.503 . S
C2334 C2333 1.410 . S
C2334 C2335 1.392 . S
C2334 C2337 1.511 . S
C2335 C2331 1.376 . S
C2335 C2334 1.392 . S
C2335 H2347 0.929 . S
C2336 C2332 1.531 . S
C2336 H2348 0.960 . S
C2336 H2349 0.962 . S
C2336 H2350 0.960 . S
C2337 C2334 1.511 . S
C2337 H2351 0.961 . S
C2337 H2352 0.961 . S
C2337 H2353 0.961 . S
C2338 C2339 1.370 1_556 S
C2338 C2340 1.363 . S
C2338 H2354 0.931 . S
C2339 C2338 1.370 1_554 S
C2339 C2343 1.408 . S
C2340 C2338 1.363 . S
C2340 C2341 1.370 . S
C2340 C2344 1.524 . S
C2341 C2333 1.503 . S
C2341 C2340 1.370 . S
C2341 C2342 1.369 1_556 S
C2342 C2341 1.369 1_554 S
C2342 C2343 1.434 . S
C2342 C2345 1.544 . S
C2343 C2339 1.408 . S
C2343 C2342 1.434 . S
C2343 H2355 0.930 . S
C2344 C2340 1.524 . S
C2344 H2356 0.956 . S
C2344 H2357 0.961 . S
C2344 H2358 0.961 . S
C2345 C2342 1.544 . S
C2345 H2359 0.958 . S
C2345 H2360 0.961 . S
C2345 H2361 0.960 1_554 S
H2346 C2330 0.931 . S
H2347 C2335 0.929 . S
H2348 C2336 0.960 . S
H2349 C2336 0.962 . S
H2350 C2336 0.960 . S
H2351 C2337 0.961 . S
H2352 C2337 0.961 . S
H2353 C2337 0.961 . S
H2354 C2338 0.931 . S
H2355 C2343 0.930 . S
H2356 C2344 0.956 . S
H2357 C2344 0.961 . S
H2358 C2344 0.961 . S
H2359 C2345 0.958 . S
H2360 C2345 0.961 . S
H2361 C2345 0.960 1_556 S
C2362 C2363 1.391 . S
C2362 C2364 1.394 . S
C2362 H2378 0.931 . S
C2363 C2362 1.391 . S
C2363 C2367 1.376 . S
C2364 C2362 1.394 . S
C2364 C2365 1.369 . S
C2364 C2368 1.531 . S
C2365 C2364 1.369 . S
C2365 C2366 1.410 . S
C2365 C2373 1.503 . S
C2366 C2365 1.410 . S
C2366 C2367 1.392 . S
C2366 C2369 1.511 . S
C2367 C2363 1.376 . S
C2367 C2366 1.392 . S
C2367 H2379 0.929 . S
C2368 C2364 1.531 . S
C2368 H2380 0.960 . S
C2368 H2381 0.962 . S
C2368 H2382 0.960 . S
C2369 C2366 1.511 . S
C2369 H2383 0.961 . S
C2369 H2384 0.961 . S
C2369 H2385 0.961 . S
C2370 C2371 1.370 . S
C2370 C2372 1.363 . S
C2370 H2386 0.931 . S
C2371 C2370 1.370 . S
C2371 C2375 1.408 . S
C2372 C2370 1.363 . S
C2372 C2373 1.370 1_554 S
C2372 C2376 1.524 . S
C2373 C2365 1.503 . S
C2373 C2372 1.370 1_556 S
C2373 C2374 1.403 . S
C2374 C2373 1.403 . S
C2374 C2375 1.404 1_556 S
C2374 C2377 1.539 . S
C2375 C2371 1.408 . S
C2375 C2374 1.404 1_554 S
C2375 H2387 0.930 . S
C2376 C2372 1.524 . S
C2376 H2388 0.956 . S
C2376 H2389 0.961 . S
C2376 H2390 0.961 . S
C2377 C2374 1.539 . S
C2377 H2391 0.958 . S
C2377 H2392 0.961 . S
C2377 H2393 0.960 . S
H2378 C2362 0.931 . S
H2379 C2367 0.929 . S
H2380 C2368 0.960 . S
H2381 C2368 0.962 . S
H2382 C2368 0.960 . S
H2383 C2369 0.961 . S
H2384 C2369 0.961 . S
H2385 C2369 0.961 . S
H2386 C2370 0.931 . S
H2387 C2375 0.930 . S
H2388 C2376 0.956 . S
H2389 C2376 0.961 . S
H2390 C2376 0.961 . S
H2391 C2377 0.958 . S
H2392 C2377 0.961 . S
H2393 C2377 0.960 . S
C2394 C2395 1.391 . S
C2394 C2396 1.394 . S
C2394 H2410 0.931 . S
C2395 C2394 1.391 . S
C2395 C2399 1.376 . S
C2396 C2394 1.394 . S
C2396 C2397 1.369 . S
C2396 C2400 1.531 . S
C2397 C2396 1.369 . S
C2397 C2398 1.410 . S
C2397 C2405 1.503 . S
C2398 C2397 1.410 . S
C2398 C2399 1.392 . S
C2398 C2401 1.511 . S
C2399 C2395 1.376 . S
C2399 C2398 1.392 . S
C2399 H2411 0.929 . S
C2400 C2396 1.531 . S
C2400 H2412 0.960 . S
C2400 H2413 0.962 . S
C2400 H2414 0.960 . S
C2401 C2398 1.511 . S
C2401 H2415 0.961 . S
C2401 H2416 0.961 . S
C2401 H2417 0.961 . S
C2402 C2403 1.370 . S
C2402 C2404 1.363 . S
C2402 H2418 0.931 . S
C2403 C2402 1.370 . S
C2403 C2407 1.408 . S
C2404 C2402 1.363 . S
C2404 C2405 1.370 . S
C2404 C2408 1.524 . S
C2405 C2397 1.503 . S
C2405 C2404 1.370 . S
C2405 C2406 1.403 . S
C2406 C2405 1.403 . S
C2406 C2407 1.404 . S
C2406 C2409 1.539 . S
C2407 C2403 1.408 . S
C2407 C2406 1.404 . S
C2407 H2419 0.930 . S
C2408 C2404 1.524 . S
C2408 H2420 0.956 . S
C2408 H2421 0.961 . S
C2408 H2422 0.961 . S
C2409 C2406 1.539 . S
C2409 H2423 0.958 . S
C2409 H2424 0.961 . S
C2409 H2425 0.960 . S
H2410 C2394 0.931 . S
H2411 C2399 0.929 . S
H2412 C2400 0.960 . S
H2413 C2400 0.962 . S
H2414 C2400 0.960 . S
H2415 C2401 0.961 . S
H2416 C2401 0.961 . S
H2417 C2401 0.961 . S
H2418 C2402 0.931 . S
H2419 C2407 0.930 . S
H2420 C2408 0.956 . S
H2421 C2408 0.961 . S
H2422 C2408 0.961 . S
H2423 C2409 0.958 . S
H2424 C2409 0.961 . S
H2425 C2409 0.960 . S
C2426 C2427 1.391 . S
C2426 C2428 1.394 . S
C2426 H2442 0.931 . S
C2427 C2426 1.391 . S
C2427 C2431 1.376 . S
C2428 C2426 1.394 . S
C2428 C2429 1.369 . S
C2428 C2432 1.531 . S
C2429 C2428 1.369 . S
C2429 C2430 1.410 . S
C2429 C2437 1.503 . S
C2430 C2429 1.410 . S
C2430 C2431 1.392 . S
C2430 C2433 1.511 . S
C2431 C2427 1.376 . S
C2431 C2430 1.392 . S
C2431 H2443 0.929 . S
C2432 C2428 1.531 . S
C2432 H2444 0.960 . S
C2432 H2445 0.962 . S
C2432 H2446 0.960 . S
C2433 C2430 1.511 . S
C2433 H2447 0.961 . S
C2433 H2448 0.961 . S
C2433 H2449 0.961 . S
C2434 C2435 1.370 . S
C2434 C2436 1.363 . S
C2434 H2450 0.931 . S
C2435 C2434 1.370 . S
C2435 C2439 1.408 . S
C2436 C2434 1.363 . S
C2436 C2437 1.370 . S
C2436 C2440 1.524 . S
C2437 C2429 1.503 . S
C2437 C2436 1.370 . S
C2437 C2438 1.403 . S
C2438 C2437 1.403 . S
C2438 C2439 1.404 . S
C2438 C2441 1.539 . S
C2439 C2435 1.408 . S
C2439 C2438 1.404 . S
C2439 H2451 0.930 . S
C2440 C2436 1.524 . S
C2440 H2452 0.956 . S
C2440 H2453 0.961 . S
C2440 H2454 0.961 . S
C2441 C2438 1.539 . S
C2441 H2455 0.958 . S
C2441 H2456 0.961 . S
C2441 H2457 0.960 . S
H2442 C2426 0.931 . S
H2443 C2431 0.929 . S
H2444 C2432 0.960 . S
H2445 C2432 0.962 . S
H2446 C2432 0.960 . S
H2447 C2433 0.961 . S
H2448 C2433 0.961 . S
H2449 C2433 0.961 . S
H2450 C2434 0.931 . S
H2451 C2439 0.930 . S
H2452 C2440 0.956 . S
H2453 C2440 0.961 . S
H2454 C2440 0.961 . S
H2455 C2441 0.958 . S
H2456 C2441 0.961 . S
H2457 C2441 0.960 . S
C2458 C2459 1.391 . S
C2458 C2460 1.394 . S
C2458 H2474 0.931 . S
C2459 C2458 1.391 . S
C2459 C2463 1.376 . S
C2460 C2458 1.394 . S
C2460 C2461 1.369 . S
C2460 C2464 1.531 . S
C2461 C2460 1.369 . S
C2461 C2462 1.410 . S
C2461 C2469 1.503 . S
C2462 C2461 1.410 . S
C2462 C2463 1.392 . S
C2462 C2465 1.511 . S
C2463 C2459 1.376 . S
C2463 C2462 1.392 . S
C2463 H2475 0.929 . S
C2464 C2460 1.531 . S
C2464 H2476 0.960 . S
C2464 H2477 0.962 . S
C2464 H2478 0.960 . S
C2465 C2462 1.511 . S
C2465 H2479 0.961 . S
C2465 H2480 0.961 . S
C2465 H2481 0.961 . S
C2466 C2467 1.370 . S
C2466 C2468 1.363 . S
C2466 H2482 0.931 . S
C2467 C2466 1.370 . S
C2467 C2471 1.408 . S
C2468 C2466 1.363 . S
C2468 C2469 1.370 . S
C2468 C2472 1.524 . S
C2469 C2461 1.503 . S
C2469 C2468 1.370 . S
C2469 C2470 1.403 . S
C2470 C2469 1.403 . S
C2470 C2471 1.404 . S
C2470 C2473 1.539 . S
C2471 C2467 1.408 . S
C2471 C2470 1.404 . S
C2471 H2483 0.930 . S
C2472 C2468 1.524 . S
C2472 H2484 0.956 . S
C2472 H2485 0.961 . S
C2472 H2486 0.961 . S
C2473 C2470 1.539 . S
C2473 H2487 0.958 . S
C2473 H2488 0.961 . S
C2473 H2489 0.960 . S
H2474 C2458 0.931 . S
H2475 C2463 0.929 . S
H2476 C2464 0.960 . S
H2477 C2464 0.962 . S
H2478 C2464 0.960 . S
H2479 C2465 0.961 . S
H2480 C2465 0.961 . S
H2481 C2465 0.961 . S
H2482 C2466 0.931 . S
H2483 C2471 0.930 . S
H2484 C2472 0.956 . S
H2485 C2472 0.961 . S
H2486 C2472 0.961 . S
H2487 C2473 0.958 . S
H2488 C2473 0.961 . S
H2489 C2473 0.960 . S
C2490 C2491 1.391 . S
C2490 C2492 1.394 . S
C2490 H2506 0.931 . S
C2491 C2490 1.391 . S
C2491 C2495 1.376 . S
C2492 C2490 1.394 . S
C2492 C2493 1.369 . S
C2492 C2496 1.531 . S
C2493 C2492 1.369 . S
C2493 C2494 1.410 . S
C2493 C2501 1.503 . S
C2494 C2493 1.410 . S
C2494 C2495 1.392 . S
C2494 C2497 1.511 . S
C2495 C2491 1.376 . S
C2495 C2494 1.392 . S
C2495 H2507 0.929 . S
C2496 C2492 1.531 . S
C2496 H2508 0.960 . S
C2496 H2509 0.962 . S
C2496 H2510 0.960 . S
C2497 C2494 1.511 . S
C2497 H2511 0.961 . S
C2497 H2512 0.961 . S
C2497 H2513 0.961 . S
C2498 C2499 1.370 . S
C2498 C2500 1.363 . S
C2498 H2514 0.931 . S
C2499 C2498 1.370 . S
C2499 C2503 1.408 . S
C2500 C2498 1.363 . S
C2500 C2501 1.370 . S
C2500 C2504 1.524 . S
C2501 C2493 1.503 . S
C2501 C2500 1.370 . S
C2501 C2502 1.403 . S
C2502 C2501 1.403 . S
C2502 C2503 1.404 . S
C2502 C2505 1.539 . S
C2503 C2499 1.408 . S
C2503 C2502 1.404 . S
C2503 H2515 0.930 . S
C2504 C2500 1.524 . S
C2504 H2516 0.956 . S
C2504 H2517 0.961 . S
C2504 H2518 0.961 . S
C2505 C2502 1.539 . S
C2505 H2519 0.958 . S
C2505 H2520 0.961 . S
C2505 H2521 0.960 . S
H2506 C2490 0.931 . S
H2507 C2495 0.929 . S
H2508 C2496 0.960 . S
H2509 C2496 0.962 . S
H2510 C2496 0.960 . S
H2511 C2497 0.961 . S
H2512 C2497 0.961 . S
H2513 C2497 0.961 . S
H2514 C2498 0.931 . S
H2515 C2503 0.930 . S
H2516 C2504 0.956 . S
H2517 C2504 0.961 . S
H2518 C2504 0.961 . S
H2519 C2505 0.958 . S
H2520 C2505 0.961 . S
H2521 C2505 0.960 . S
C2522 C2523 1.391 . S
C2522 C2524 1.394 . S
C2522 H2538 0.931 . S
C2523 C2522 1.391 . S
C2523 C2527 1.376 . S
C2524 C2522 1.394 . S
C2524 C2525 1.369 . S
C2524 C2528 1.531 . S
C2525 C2524 1.369 . S
C2525 C2526 1.410 . S
C2525 C2533 1.503 . S
C2526 C2525 1.410 . S
C2526 C2527 1.392 . S
C2526 C2529 1.511 . S
C2527 C2523 1.376 . S
C2527 C2526 1.392 . S
C2527 H2539 0.929 . S
C2528 C2524 1.531 . S
C2528 H2540 0.960 . S
C2528 H2541 0.962 . S
C2528 H2542 0.960 . S
C2529 C2526 1.511 . S
C2529 H2543 0.961 . S
C2529 H2544 0.961 . S
C2529 H2545 0.961 . S
C2530 C2531 1.370 . S
C2530 C2532 1.363 . S
C2530 H2546 0.931 . S
C2531 C2530 1.370 . S
C2531 C2535 1.408 . S
C2532 C2530 1.363 . S
C2532 C2533 1.370 . S
C2532 C2536 1.524 . S
C2533 C2525 1.503 . S
C2533 C2532 1.370 . S
C2533 C2534 1.403 . S
C2534 C2533 1.403 . S
C2534 C2535 1.404 . S
C2534 C2537 1.539 . S
C2535 C2531 1.408 . S
C2535 C2534 1.404 . S
C2535 H2547 0.930 . S
C2536 C2532 1.524 . S
C2536 H2548 0.956 . S
C2536 H2549 0.961 . S
C2536 H2550 0.961 . S
C2537 C2534 1.539 . S
C2537 H2551 0.958 . S
C2537 H2552 0.961 . S
C2537 H2553 0.960 . S
H2538 C2522 0.931 . S
H2539 C2527 0.929 . S
H2540 C2528 0.960 . S
H2541 C2528 0.962 . S
H2542 C2528 0.960 . S
H2543 C2529 0.961 . S
H2544 C2529 0.961 . S
H2545 C2529 0.961 . S
H2546 C2530 0.931 . S
H2547 C2535 0.930 . S
H2548 C2536 0.956 . S
H2549 C2536 0.961 . S
H2550 C2536 0.961 . S
H2551 C2537 0.958 . S
H2552 C2537 0.961 . S
H2553 C2537 0.960 . S
C2554 C2555 1.391 . S
C2554 C2556 1.394 . S
C2554 H2570 0.931 . S
C2555 C2554 1.391 . S
C2555 C2559 1.376 . S
C2556 C2554 1.394 . S
C2556 C2557 1.369 . S
C2556 C2560 1.531 . S
C2557 C2556 1.369 . S
C2557 C2558 1.410 . S
C2557 C2565 1.503 . S
C2558 C2557 1.410 . S
C2558 C2559 1.392 . S
C2558 C2561 1.511 . S
C2559 C2555 1.376 . S
C2559 C2558 1.392 . S
C2559 H2571 0.929 . S
C2560 C2556 1.531 . S
C2560 H2572 0.960 . S
C2560 H2573 0.962 . S
C2560 H2574 0.960 . S
C2561 C2558 1.511 . S
C2561 H2575 0.961 . S
C2561 H2576 0.961 . S
C2561 H2577 0.961 . S
C2562 C2563 1.370 . S
C2562 C2564 1.363 . S
C2562 H2578 0.931 . S
C2563 C2562 1.370 . S
C2563 C2567 1.408 . S
C2564 C2562 1.363 . S
C2564 C2565 1.370 . S
C2564 C2568 1.524 . S
C2565 C2557 1.503 . S
C2565 C2564 1.370 . S
C2565 C2566 1.403 . S
C2566 C2565 1.403 . S
C2566 C2567 1.404 . S
C2566 C2569 1.539 . S
C2567 C2563 1.408 . S
C2567 C2566 1.404 . S
C2567 H2579 0.930 . S
C2568 C2564 1.524 . S
C2568 H2580 0.956 . S
C2568 H2581 0.961 . S
C2568 H2582 0.961 . S
C2569 C2566 1.539 . S
C2569 H2583 0.958 . S
C2569 H2584 0.961 . S
C2569 H2585 0.960 . S
H2570 C2554 0.931 . S
H2571 C2559 0.929 . S
H2572 C2560 0.960 . S
H2573 C2560 0.962 . S
H2574 C2560 0.960 . S
H2575 C2561 0.961 . S
H2576 C2561 0.961 . S
H2577 C2561 0.961 . S
H2578 C2562 0.931 . S
H2579 C2567 0.930 . S
H2580 C2568 0.956 . S
H2581 C2568 0.961 . S
H2582 C2568 0.961 . S
H2583 C2569 0.958 . S
H2584 C2569 0.961 . S
H2585 C2569 0.960 . S
C2586 C2587 1.391 . S
C2586 C2588 1.394 . S
C2586 H2602 0.931 . S
C2587 C2586 1.391 . S
C2587 C2591 1.376 . S
C2588 C2586 1.394 . S
C2588 C2589 1.369 . S
C2588 C2592 1.531 . S
C2589 C2588 1.369 . S
C2589 C2590 1.410 . S
C2589 C2597 1.503 . S
C2590 C2589 1.410 . S
C2590 C2591 1.392 . S
C2590 C2593 1.511 . S
C2591 C2587 1.376 . S
C2591 C2590 1.392 . S
C2591 H2603 0.929 . S
C2592 C2588 1.531 . S
C2592 H2604 0.960 . S
C2592 H2605 0.962 . S
C2592 H2606 0.960 . S
C2593 C2590 1.511 . S
C2593 H2607 0.961 . S
C2593 H2608 0.961 . S
C2593 H2609 0.961 . S
C2594 C2595 1.370 . S
C2594 C2596 1.363 . S
C2594 H2610 0.931 . S
C2595 C2594 1.370 . S
C2595 C2599 1.408 . S
C2596 C2594 1.363 . S
C2596 C2597 1.370 . S
C2596 C2600 1.524 . S
C2597 C2589 1.503 . S
C2597 C2596 1.370 . S
C2597 C2598 1.403 . S
C2598 C2597 1.403 . S
C2598 C2599 1.404 . S
C2598 C2601 1.539 . S
C2599 C2595 1.408 . S
C2599 C2598 1.404 . S
C2599 H2611 0.930 . S
C2600 C2596 1.524 . S
C2600 H2612 0.956 . S
C2600 H2613 0.961 . S
C2600 H2614 0.961 . S
C2601 C2598 1.539 . S
C2601 H2615 0.958 . S
C2601 H2616 0.961 . S
C2601 H2617 0.960 . S
H2602 C2586 0.931 . S
H2603 C2591 0.929 . S
H2604 C2592 0.960 . S
H2605 C2592 0.962 . S
H2606 C2592 0.960 . S
H2607 C2593 0.961 . S
H2608 C2593 0.961 . S
H2609 C2593 0.961 . S
H2610 C2594 0.931 . S
H2611 C2599 0.930 . S
H2612 C2600 0.956 . S
H2613 C2600 0.961 . S
H2614 C2600 0.961 . S
H2615 C2601 0.958 . S
H2616 C2601 0.961 . S
H2617 C2601 0.960 . S
C2618 C2619 1.391 . S
C2618 C2620 1.394 . S
C2618 H2634 0.931 . S
C2619 C2618 1.391 . S
C2619 C2623 1.376 . S
C2620 C2618 1.394 . S
C2620 C2621 1.369 . S
C2620 C2624 1.531 . S
C2621 C2620 1.369 . S
C2621 C2622 1.410 . S
C2621 C2629 1.503 . S
C2622 C2621 1.410 . S
C2622 C2623 1.392 . S
C2622 C2625 1.511 . S
C2623 C2619 1.376 . S
C2623 C2622 1.392 . S
C2623 H2635 0.929 . S
C2624 C2620 1.531 . S
C2624 H2636 0.960 . S
C2624 H2637 0.962 . S
C2624 H2638 0.960 . S
C2625 C2622 1.511 . S
C2625 H2639 0.961 . S
C2625 H2640 0.961 . S
C2625 H2641 0.961 . S
C2626 C2627 1.370 . S
C2626 C2628 1.363 . S
C2626 H2642 0.931 . S
C2627 C2626 1.370 . S
C2627 C2631 1.408 . S
C2628 C2626 1.363 . S
C2628 C2629 1.370 . S
C2628 C2632 1.524 . S
C2629 C2621 1.503 . S
C2629 C2628 1.370 . S
C2629 C2630 1.403 . S
C2630 C2629 1.403 . S
C2630 C2631 1.404 . S
C2630 C2633 1.539 . S
C2631 C2627 1.408 . S
C2631 C2630 1.404 . S
C2631 H2643 0.930 . S
C2632 C2628 1.524 . S
C2632 H2644 0.956 . S
C2632 H2645 0.961 . S
C2632 H2646 0.961 . S
C2633 C2630 1.539 . S
C2633 H2647 0.958 . S
C2633 H2648 0.961 . S
C2633 H2649 0.960 . S
H2634 C2618 0.931 . S
H2635 C2623 0.929 . S
H2636 C2624 0.960 . S
H2637 C2624 0.962 . S
H2638 C2624 0.960 . S
H2639 C2625 0.961 . S
H2640 C2625 0.961 . S
H2641 C2625 0.961 . S
H2642 C2626 0.931 . S
H2643 C2631 0.930 . S
H2644 C2632 0.956 . S
H2645 C2632 0.961 . S
H2646 C2632 0.961 . S
H2647 C2633 0.958 . S
H2648 C2633 0.961 . S
H2649 C2633 0.960 . S
C2650 C2651 1.391 . S
C2650 C2652 1.394 . S
C2650 H2666 0.931 . S
C2651 C2650 1.391 . S
C2651 C2655 1.376 . S
C2652 C2650 1.394 . S
C2652 C2653 1.369 . S
C2652 C2656 1.531 . S
C2653 C2652 1.369 . S
C2653 C2654 1.410 . S
C2653 C2661 1.503 . S
C2654 C2653 1.410 . S
C2654 C2655 1.392 . S
C2654 C2657 1.511 . S
C2655 C2651 1.376 . S
C2655 C2654 1.392 . S
C2655 H2667 0.929 . S
C2656 C2652 1.531 . S
C2656 H2668 0.960 . S
C2656 H2669 0.962 . S
C2656 H2670 0.960 . S
C2657 C2654 1.511 . S
C2657 H2671 0.961 . S
C2657 H2672 0.961 . S
C2657 H2673 0.961 . S
C2658 C2659 1.370 . S
C2658 C2660 1.363 . S
C2658 H2674 0.931 . S
C2659 C2658 1.370 . S
C2659 C2663 1.408 . S
C2660 C2658 1.363 . S
C2660 C2661 1.370 . S
C2660 C2664 1.524 . S
C2661 C2653 1.503 . S
C2661 C2660 1.370 . S
C2661 C2662 1.403 . S
C2662 C2661 1.403 . S
C2662 C2663 1.404 . S
C2662 C2665 1.539 . S
C2663 C2659 1.408 . S
C2663 C2662 1.404 . S
C2663 H2675 0.930 . S
C2664 C2660 1.524 . S
C2664 H2676 0.956 . S
C2664 H2677 0.961 . S
C2664 H2678 0.961 . S
C2665 C2662 1.539 . S
C2665 H2679 0.958 . S
C2665 H2680 0.961 . S
C2665 H2681 0.960 . S
H2666 C2650 0.931 . S
H2667 C2655 0.929 . S
H2668 C2656 0.960 . S
H2669 C2656 0.962 . S
H2670 C2656 0.960 . S
H2671 C2657 0.961 . S
H2672 C2657 0.961 . S
H2673 C2657 0.961 . S
H2674 C2658 0.931 . S
H2675 C2663 0.930 . S
H2676 C2664 0.956 . S
H2677 C2664 0.961 . S
H2678 C2664 0.961 . S
H2679 C2665 0.958 . S
H2680 C2665 0.961 . S
H2681 C2665 0.960 . S
C2682 C2683 1.391 . S
C2682 C2684 1.394 . S
C2682 H2698 0.931 . S
C2683 C2682 1.391 . S
C2683 C2687 1.376 . S
C2684 C2682 1.394 . S
C2684 C2685 1.369 . S
C2684 C2688 1.531 . S
C2685 C2684 1.369 . S
C2685 C2686 1.410 . S
C2685 C2693 1.503 . S
C2686 C2685 1.410 . S
C2686 C2687 1.392 . S
C2686 C2689 1.511 . S
C2687 C2683 1.376 . S
C2687 C2686 1.392 . S
C2687 H2699 0.929 . S
C2688 C2684 1.531 . S
C2688 H2700 0.960 . S
C2688 H2701 0.962 . S
C2688 H2702 0.960 . S
C2689 C2686 1.511 . S
C2689 H2703 0.961 . S
C2689 H2704 0.961 . S
C2689 H2705 0.961 . S
C2690 C2691 1.370 . S
C2690 C2692 1.363 . S
C2690 H2706 0.931 . S
C2691 C2690 1.370 . S
C2691 C2695 1.408 . S
C2692 C2690 1.363 . S
C2692 C2693 1.370 . S
C2692 C2696 1.524 . S
C2693 C2685 1.503 . S
C2693 C2692 1.370 . S
C2693 C2694 1.403 . S
C2694 C2693 1.403 . S
C2694 C2695 1.404 . S
C2694 C2697 1.539 . S
C2695 C2691 1.408 . S
C2695 C2694 1.404 . S
C2695 H2707 0.930 . S
C2696 C2692 1.524 . S
C2696 H2708 0.956 . S
C2696 H2709 0.961 . S
C2696 H2710 0.961 . S
C2697 C2694 1.539 . S
C2697 H2711 0.958 . S
C2697 H2712 0.961 . S
C2697 H2713 0.960 . S
H2698 C2682 0.931 . S
H2699 C2687 0.929 . S
H2700 C2688 0.960 . S
H2701 C2688 0.962 . S
H2702 C2688 0.960 . S
H2703 C2689 0.961 . S
H2704 C2689 0.961 . S
H2705 C2689 0.961 . S
H2706 C2690 0.931 . S
H2707 C2695 0.930 . S
H2708 C2696 0.956 . S
H2709 C2696 0.961 . S
H2710 C2696 0.961 . S
H2711 C2697 0.958 . S
H2712 C2697 0.961 . S
H2713 C2697 0.960 . S
C2714 C2715 1.391 . S
C2714 C2716 1.394 . S
C2714 H2730 0.931 . S
C2715 C2714 1.391 . S
C2715 C2719 1.376 . S
C2716 C2714 1.394 . S
C2716 C2717 1.369 . S
C2716 C2720 1.531 . S
C2717 C2716 1.369 . S
C2717 C2718 1.410 . S
C2717 C2725 1.503 . S
C2718 C2717 1.410 . S
C2718 C2719 1.392 . S
C2718 C2721 1.511 . S
C2719 C2715 1.376 . S
C2719 C2718 1.392 . S
C2719 H2731 0.929 . S
C2720 C2716 1.531 . S
C2720 H2732 0.960 . S
C2720 H2733 0.962 . S
C2720 H2734 0.960 . S
C2721 C2718 1.511 . S
C2721 H2735 0.961 . S
C2721 H2736 0.961 . S
C2721 H2737 0.961 . S
C2722 C2723 1.370 . S
C2722 C2724 1.363 . S
C2722 H2738 0.931 . S
C2723 C2722 1.370 . S
C2723 C2727 1.408 . S
C2724 C2722 1.363 . S
C2724 C2725 1.370 . S
C2724 C2728 1.524 . S
C2725 C2717 1.503 . S
C2725 C2724 1.370 . S
C2725 C2726 1.403 . S
C2726 C2725 1.403 . S
C2726 C2727 1.404 . S
C2726 C2729 1.539 . S
C2727 C2723 1.408 . S
C2727 C2726 1.404 . S
C2727 H2739 0.930 . S
C2728 C2724 1.524 . S
C2728 H2740 0.956 . S
C2728 H2741 0.961 . S
C2728 H2742 0.961 . S
C2729 C2726 1.539 . S
C2729 H2743 0.958 . S
C2729 H2744 0.961 . S
C2729 H2745 0.960 . S
H2730 C2714 0.931 . S
H2731 C2719 0.929 . S
H2732 C2720 0.960 . S
H2733 C2720 0.962 . S
H2734 C2720 0.960 . S
H2735 C2721 0.961 . S
H2736 C2721 0.961 . S
H2737 C2721 0.961 . S
H2738 C2722 0.931 . S
H2739 C2727 0.930 . S
H2740 C2728 0.956 . S
H2741 C2728 0.961 . S
H2742 C2728 0.961 . S
H2743 C2729 0.958 . S
H2744 C2729 0.961 . S
H2745 C2729 0.960 . S
C2746 C2747 1.391 . S
C2746 C2748 1.394 . S
C2746 H2762 0.931 . S
C2747 C2746 1.391 . S
C2747 C2751 1.376 . S
C2748 C2746 1.394 . S
C2748 C2749 1.369 . S
C2748 C2752 1.531 . S
C2749 C2748 1.369 . S
C2749 C2750 1.410 . S
C2749 C2757 1.503 . S
C2750 C2749 1.410 . S
C2750 C2751 1.392 . S
C2750 C2753 1.511 . S
C2751 C2747 1.376 . S
C2751 C2750 1.392 . S
C2751 H2763 0.929 . S
C2752 C2748 1.531 . S
C2752 H2764 0.960 . S
C2752 H2765 0.962 . S
C2752 H2766 0.960 . S
C2753 C2750 1.511 . S
C2753 H2767 0.961 . S
C2753 H2768 0.961 . S
C2753 H2769 0.961 . S
C2754 C2755 1.370 . S
C2754 C2756 1.363 . S
C2754 H2770 0.931 . S
C2755 C2754 1.370 . S
C2755 C2759 1.408 . S
C2756 C2754 1.363 . S
C2756 C2757 1.370 . S
C2756 C2760 1.524 . S
C2757 C2749 1.503 . S
C2757 C2756 1.370 . S
C2757 C2758 1.403 . S
C2758 C2757 1.403 . S
C2758 C2759 1.404 . S
C2758 C2761 1.539 . S
C2759 C2755 1.408 . S
C2759 C2758 1.404 . S
C2759 H2771 0.930 . S
C2760 C2756 1.524 . S
C2760 H2772 0.956 . S
C2760 H2773 0.961 . S
C2760 H2774 0.961 . S
C2761 C2758 1.539 . S
C2761 H2775 0.958 . S
C2761 H2776 0.961 . S
C2761 H2777 0.960 . S
H2762 C2746 0.931 . S
H2763 C2751 0.929 . S
H2764 C2752 0.960 . S
H2765 C2752 0.962 . S
H2766 C2752 0.960 . S
H2767 C2753 0.961 . S
H2768 C2753 0.961 . S
H2769 C2753 0.961 . S
H2770 C2754 0.931 . S
H2771 C2759 0.930 . S
H2772 C2760 0.956 . S
H2773 C2760 0.961 . S
H2774 C2760 0.961 . S
H2775 C2761 0.958 . S
H2776 C2761 0.961 . S
H2777 C2761 0.960 . S
C2778 C2779 1.391 . S
C2778 C2780 1.394 . S
C2778 H2794 0.931 . S
C2779 C2778 1.391 . S
C2779 C2783 1.376 . S
C2780 C2778 1.394 . S
C2780 C2781 1.369 . S
C2780 C2784 1.531 . S
C2781 C2780 1.369 . S
C2781 C2782 1.410 . S
C2781 C2789 1.503 . S
C2782 C2781 1.410 . S
C2782 C2783 1.392 . S
C2782 C2785 1.511 . S
C2783 C2779 1.376 . S
C2783 C2782 1.392 . S
C2783 H2795 0.929 . S
C2784 C2780 1.531 . S
C2784 H2796 0.960 . S
C2784 H2797 0.962 . S
C2784 H2798 0.960 . S
C2785 C2782 1.511 . S
C2785 H2799 0.961 . S
C2785 H2800 0.961 . S
C2785 H2801 0.961 . S
C2786 C2787 1.370 . S
C2786 C2788 1.363 . S
C2786 H2802 0.931 . S
C2787 C2786 1.370 . S
C2787 C2791 1.408 . S
C2788 C2786 1.363 . S
C2788 C2789 1.370 . S
C2788 C2792 1.524 . S
C2789 C2781 1.503 . S
C2789 C2788 1.370 . S
C2789 C2790 1.403 . S
C2790 C2789 1.403 . S
C2790 C2791 1.404 . S
C2790 C2793 1.539 . S
C2791 C2787 1.408 . S
C2791 C2790 1.404 . S
C2791 H2803 0.930 . S
C2792 C2788 1.524 . S
C2792 H2804 0.956 . S
C2792 H2805 0.961 . S
C2792 H2806 0.961 . S
C2793 C2790 1.539 . S
C2793 H2807 0.958 . S
C2793 H2808 0.961 . S
C2793 H2809 0.960 . S
H2794 C2778 0.931 . S
H2795 C2783 0.929 . S
H2796 C2784 0.960 . S
H2797 C2784 0.962 . S
H2798 C2784 0.960 . S
H2799 C2785 0.961 . S
H2800 C2785 0.961 . S
H2801 C2785 0.961 . S
H2802 C2786 0.931 . S
H2803 C2791 0.930 . S
H2804 C2792 0.956 . S
H2805 C2792 0.961 . S
H2806 C2792 0.961 . S
H2807 C2793 0.958 . S
H2808 C2793 0.961 . S
H2809 C2793 0.960 . S
C2810 C2811 1.391 . S
C2810 C2812 1.394 . S
C2810 H2826 0.931 . S
C2811 C2810 1.391 . S
C2811 C2815 1.376 . S
C2812 C2810 1.394 . S
C2812 C2813 1.369 . S
C2812 C2816 1.531 . S
C2813 C2812 1.369 . S
C2813 C2814 1.410 . S
C2813 C2821 1.503 . S
C2814 C2813 1.410 . S
C2814 C2815 1.392 . S
C2814 C2817 1.511 . S
C2815 C2811 1.376 . S
C2815 C2814 1.392 . S
C2815 H2827 0.929 . S
C2816 C2812 1.531 . S
C2816 H2828 0.960 . S
C2816 H2829 0.962 . S
C2816 H2830 0.960 . S
C2817 C2814 1.511 . S
C2817 H2831 0.961 . S
C2817 H2832 0.961 . S
C2817 H2833 0.961 . S
C2818 C2819 1.370 . S
C2818 C2820 1.363 . S
C2818 H2834 0.931 . S
C2819 C2818 1.370 . S
C2819 C2823 1.408 . S
C2820 C2818 1.363 . S
C2820 C2821 1.370 . S
C2820 C2824 1.524 . S
C2821 C2813 1.503 . S
C2821 C2820 1.370 . S
C2821 C2822 1.403 . S
C2822 C2821 1.403 . S
C2822 C2823 1.404 . S
C2822 C2825 1.539 . S
C2823 C2819 1.408 . S
C2823 C2822 1.404 . S
C2823 H2835 0.930 . S
C2824 C2820 1.524 . S
C2824 H2836 0.956 . S
C2824 H2837 0.961 . S
C2824 H2838 0.961 . S
C2825 C2822 1.539 . S
C2825 H2839 0.958 . S
C2825 H2840 0.961 . S
C2825 H2841 0.960 . S
H2826 C2810 0.931 . S
H2827 C2815 0.929 . S
H2828 C2816 0.960 . S
H2829 C2816 0.962 . S
H2830 C2816 0.960 . S
H2831 C2817 0.961 . S
H2832 C2817 0.961 . S
H2833 C2817 0.961 . S
H2834 C2818 0.931 . S
H2835 C2823 0.930 . S
H2836 C2824 0.956 . S
H2837 C2824 0.961 . S
H2838 C2824 0.961 . S
H2839 C2825 0.958 . S
H2840 C2825 0.961 . S
H2841 C2825 0.960 . S
C2842 C2843 1.391 . S
C2842 C2844 1.394 . S
C2842 H2858 0.931 . S
C2843 C2842 1.391 . S
C2843 C2847 1.376 . S
C2844 C2842 1.394 . S
C2844 C2845 1.369 . S
C2844 C2848 1.531 . S
C2845 C2844 1.369 . S
C2845 C2846 1.410 . S
C2845 C2853 1.503 . S
C2846 C2845 1.410 . S
C2846 C2847 1.392 . S
C2846 C2849 1.511 . S
C2847 C2843 1.376 . S
C2847 C2846 1.392 . S
C2847 H2859 0.929 . S
C2848 C2844 1.531 . S
C2848 H2860 0.960 . S
C2848 H2861 0.962 . S
C2848 H2862 0.960 . S
C2849 C2846 1.511 . S
C2849 H2863 0.961 . S
C2849 H2864 0.961 . S
C2849 H2865 0.961 . S
C2850 C2851 1.370 . S
C2850 C2852 1.363 . S
C2850 H2866 0.931 . S
C2851 C2850 1.370 . S
C2851 C2855 1.408 . S
C2852 C2850 1.363 . S
C2852 C2853 1.370 . S
C2852 C2856 1.524 . S
C2853 C2845 1.503 . S
C2853 C2852 1.370 . S
C2853 C2854 1.403 . S
C2854 C2853 1.403 . S
C2854 C2855 1.404 . S
C2854 C2857 1.539 . S
C2855 C2851 1.408 . S
C2855 C2854 1.404 . S
C2855 H2867 0.930 . S
C2856 C2852 1.524 . S
C2856 H2868 0.956 . S
C2856 H2869 0.961 . S
C2856 H2870 0.961 . S
C2857 C2854 1.539 . S
C2857 H2871 0.958 . S
C2857 H2872 0.961 . S
C2857 H2873 0.960 . S
H2858 C2842 0.931 . S
H2859 C2847 0.929 . S
H2860 C2848 0.960 . S
H2861 C2848 0.962 . S
H2862 C2848 0.960 . S
H2863 C2849 0.961 . S
H2864 C2849 0.961 . S
H2865 C2849 0.961 . S
H2866 C2850 0.931 . S
H2867 C2855 0.930 . S
H2868 C2856 0.956 . S
H2869 C2856 0.961 . S
H2870 C2856 0.961 . S
H2871 C2857 0.958 . S
H2872 C2857 0.961 . S
H2873 C2857 0.960 . S
C2874 C2875 1.391 . S
C2874 C2876 1.394 . S
C2874 H2890 0.931 . S
C2875 C2874 1.391 . S
C2875 C2879 1.376 . S
C2876 C2874 1.394 . S
C2876 C2877 1.369 . S
C2876 C2880 1.531 . S
C2877 C2876 1.369 . S
C2877 C2878 1.410 . S
C2877 C2885 1.503 . S
C2878 C2877 1.410 . S
C2878 C2879 1.392 . S
C2878 C2881 1.511 . S
C2879 C2875 1.376 . S
C2879 C2878 1.392 . S
C2879 H2891 0.929 . S
C2880 C2876 1.531 . S
C2880 H2892 0.960 . S
C2880 H2893 0.962 . S
C2880 H2894 0.960 . S
C2881 C2878 1.511 . S
C2881 H2895 0.961 . S
C2881 H2896 0.961 . S
C2881 H2897 0.961 . S
C2882 C2883 1.370 . S
C2882 C2884 1.363 1_556 S
C2882 H2898 0.931 . S
C2883 C2882 1.370 . S
C2883 C2887 1.408 . S
C2884 C2882 1.363 1_554 S
C2884 C2885 1.370 . S
C2884 C2888 1.524 . S
C2885 C2877 1.503 . S
C2885 C2884 1.370 . S
C2885 C2886 1.403 . S
C2886 C2885 1.403 . S
C2886 C2887 1.404 1_554 S
C2886 C2889 1.539 . S
C2887 C2883 1.408 . S
C2887 C2886 1.404 1_556 S
C2887 H2899 0.930 . S
C2888 C2884 1.524 . S
C2888 H2900 0.956 . S
C2888 H2901 0.961 . S
C2888 H2902 0.961 . S
C2889 C2886 1.539 . S
C2889 H2903 0.958 . S
C2889 H2904 0.961 . S
C2889 H2905 0.960 . S
H2890 C2874 0.931 . S
H2891 C2879 0.929 . S
H2892 C2880 0.960 . S
H2893 C2880 0.962 . S
H2894 C2880 0.960 . S
H2895 C2881 0.961 . S
H2896 C2881 0.961 . S
H2897 C2881 0.961 . S
H2898 C2882 0.931 . S
H2899 C2887 0.930 . S
H2900 C2888 0.956 . S
H2901 C2888 0.961 . S
H2902 C2888 0.961 . S
H2903 C2889 0.958 . S
H2904 C2889 0.961 . S
H2905 C2889 0.960 . S
C2906 C2907 1.391 . S
C2906 C2908 1.394 . S
C2906 H2922 0.931 . S
C2907 C2906 1.391 . S
C2907 C2911 1.376 . S
C2908 C2906 1.394 . S
C2908 C2909 1.369 . S
C2908 C2912 1.531 . S
C2909 C2908 1.369 . S
C2909 C2910 1.410 . S
C2909 C2917 1.503 . S
C2910 C2909 1.410 . S
C2910 C2911 1.392 . S
C2910 C2913 1.511 . S
C2911 C2907 1.376 . S
C2911 C2910 1.392 . S
C2911 H2923 0.929 . S
C2912 C2908 1.531 . S
C2912 H2924 0.960 . S
C2912 H2925 0.962 . S
C2912 H2926 0.960 . S
C2913 C2910 1.511 . S
C2913 H2927 0.961 . S
C2913 H2928 0.961 . S
C2913 H2929 0.961 . S
C2914 C2915 1.370 . S
C2914 C2916 1.363 . S
C2914 H2930 0.931 . S
C2915 C2914 1.370 . S
C2915 C2919 1.408 . S
C2916 C2914 1.363 . S
C2916 C2917 1.370 . S
C2916 C2920 1.524 . S
C2917 C2909 1.503 . S
C2917 C2916 1.370 . S
C2917 C2918 1.403 . S
C2918 C2917 1.403 . S
C2918 C2919 1.404 . S
C2918 C2921 1.539 . S
C2919 C2915 1.408 . S
C2919 C2918 1.404 . S
C2919 H2931 0.930 . S
C2920 C2916 1.524 . S
C2920 H2932 0.956 . S
C2920 H2933 0.961 . S
C2920 H2934 0.961 . S
C2921 C2918 1.539 . S
C2921 H2935 0.958 . S
C2921 H2936 0.961 . S
C2921 H2937 0.960 . S
H2922 C2906 0.931 . S
H2923 C2911 0.929 . S
H2924 C2912 0.960 . S
H2925 C2912 0.962 . S
H2926 C2912 0.960 . S
H2927 C2913 0.961 . S
H2928 C2913 0.961 . S
H2929 C2913 0.961 . S
H2930 C2914 0.931 . S
H2931 C2919 0.930 . S
H2932 C2920 0.956 . S
H2933 C2920 0.961 . S
H2934 C2920 0.961 . S
H2935 C2921 0.958 . S
H2936 C2921 0.961 . S
H2937 C2921 0.960 . S
C2938 C2939 1.391 . S
C2938 C2940 1.394 . S
C2938 H2954 0.931 . S
C2939 C2938 1.391 . S
C2939 C2943 1.376 . S
C2940 C2938 1.394 . S
C2940 C2941 1.369 . S
C2940 C2944 1.531 . S
C2941 C2940 1.369 . S
C2941 C2942 1.410 . S
C2941 C2949 1.503 . S
C2942 C2941 1.410 . S
C2942 C2943 1.392 . S
C2942 C2945 1.511 . S
C2943 C2939 1.376 . S
C2943 C2942 1.392 . S
C2943 H2955 0.929 . S
C2944 C2940 1.531 . S
C2944 H2956 0.960 . S
C2944 H2957 0.962 . S
C2944 H2958 0.960 . S
C2945 C2942 1.511 . S
C2945 H2959 0.961 . S
C2945 H2960 0.961 . S
C2945 H2961 0.961 . S
C2946 C2947 1.370 . S
C2946 C2948 1.363 1_556 S
C2946 H2962 0.931 . S
C2947 C2946 1.370 . S
C2947 C2951 1.408 1_556 S
C2948 C2946 1.363 1_554 S
C2948 C2949 1.370 . S
C2948 C2952 1.524 . S
C2949 C2941 1.503 . S
C2949 C2948 1.370 . S
C2949 C2950 1.403 . S
C2950 C2949 1.403 . S
C2950 C2951 1.404 . S
C2950 C2953 1.539 . S
C2951 C2947 1.408 1_554 S
C2951 C2950 1.404 . S
C2951 H2963 0.930 . S
C2952 C2948 1.524 . S
C2952 H2964 0.956 . S
C2952 H2965 0.961 . S
C2952 H2966 0.961 1_554 S
C2953 C2950 1.539 . S
C2953 H2967 0.958 . S
C2953 H2968 0.961 . S
C2953 H2969 0.960 . S
H2954 C2938 0.931 . S
H2955 C2943 0.929 . S
H2956 C2944 0.960 . S
H2957 C2944 0.962 . S
H2958 C2944 0.960 . S
H2959 C2945 0.961 . S
H2960 C2945 0.961 . S
H2961 C2945 0.961 . S
H2962 C2946 0.931 . S
H2963 C2951 0.930 . S
H2964 C2952 0.956 . S
H2965 C2952 0.961 . S
H2966 C2952 0.961 1_556 S
H2967 C2953 0.958 . S
H2968 C2953 0.961 . S
H2969 C2953 0.960 . S
C667 C7 1.429 . S
C675 C575 1.437 . S
C707 C547 1.731 . S
C699 C39 1.724 . S
C739 C562 1.503 . S
C731 C62 1.580 . S
C763 C76 1.866 . S
C771 C632 1.800 . S
C795 C108 1.416 . S
C803 C645 1.412 . S
C827 N117 1.334 . S
C835 C660 1.338 . S
C867 C623 1.247 . S
C859 C16 1.303 . S
C891 C30 1.708 . S
C899 C595 1.642 . S
C931 C604 1.419 . S
C923 C53 1.451 . S
C955 C85 1.827 . S
C963 C506 1.774 1_565 S
C995 C525 1.533 . S
C987 C99 1.587 . S
C1019 N127 1.265 . S
C1027 C534 1.322 . S
C1051 N150 1.091 . S
C1059 C659 1.143 . S
C1091 C631 1.488 . S
C1083 N173 1.445 . S
C1123 C646 1.351 . S
C1115 C200 1.413 . S
C1147 C214 1.654 . S
C1155 C464 1.606 . S
C1179 N232 1.481 . S
C1187 C477 1.490 . S
C1211 C260 1.527 . S
C1219 C492 1.470 1_565 S
C1251 C455 1.097 . S
C1243 N140 1.079 . S
C1275 N163 1.215 . S
C1283 C427 1.190 . S
C1315 C436 1.478 . S
C1307 C191 1.526 . S
C1347 C590 1.839 . S
C1339 C223 1.896 . S
C1379 C609 1.338 . S
C1371 N242 1.305 . S
C1411 C618 1.509 . S
C1403 C269 1.524 . S
C1435 N288 1.244 . S
C1443 C491 1.264 . S
C1467 C315 1.453 . S
C1475 C463 1.461 . S
C1499 C338 1.631 . S
C1507 C478 1.605 . S
C1531 C352 1.871 . S
C1539 C548 1.835 . S
C1571 C561 1.528 . S
C1563 N370 1.524 . S
C1603 C576 1.549 1_655 S
C1595 C398 1.565 . S
C1635 C539 1.053 . S
C1627 N278 1.086 . S
C1659 C306 1.627 . S
C1667 C511 1.556 . S
C1691 C329 1.557 . S
C1699 C520 1.526 . S
C1731 C422 1.519 . S
C1723 C361 1.563 . S
C1755 N380 1.368 . S
C1763 C441 1.385 . S
C1795 C450 1.426 . S
C1787 C407 1.472 . S
C1827 C469 1.268 . S
C1819 N12 1.307 . S
C1851 N25 1.440 . S
C1859 C481 1.436 . S
C1891 C497 1.154 . S
C1883 N48 1.185 . S
C1923 C495 1.254 . S
C1915 N81 1.286 . S
C1955 C467 1.445 . S
C1947 N94 1.435 . S
C1987 C483 1.436 . S
C1979 C131 1.480 . S
C2019 C421 1.322 . S
C2011 N2 1.280 . S
C2043 N35 1.326 . S
C2051 C439 1.375 . S
C2075 N58 1.116 . S
C2083 C449 1.170 . S
C2115 C453 1.211 . S
C2107 N71 1.201 . S
C2147 C425 1.317 . S
C2139 N104 1.278 . S
C2179 C435 1.533 . S
C2171 C122 1.537 . S
C2203 C145 1.935 . S
C2211 C553 1.853 . S
C2235 C168 1.579 . S
C2243 C565 1.569 . S
C2267 N186 1.320 . S
C2275 C581 1.296 . S
C2307 C579 1.261 . S
C2299 N219 1.247 . S
C2339 C551 1.706 . S
C2331 C246 1.701 . S
C2371 C567 1.326 . S
C2363 N265 1.428 . S
C2403 C505 1.825 . S
C2395 C154 1.834 . S
C2427 C177 1.651 . S
C2435 C523 1.645 . S
C2459 N196 1.159 . S
C2467 C533 1.191 . S
C2491 N209 1.123 . S
C2499 C537 1.120 . S
C2523 C237 1.755 . S
C2531 C509 1.765 . S
C2563 C519 1.414 . S
C2555 N255 1.339 . S
C2587 C283 1.710 . S
C2595 C637 1.607 . S
C2619 N301 1.334 . S
C2627 C649 1.347 . S
C2651 N324 1.192 . S
C2659 C665 1.129 . S
C2691 C663 1.102 . S
C2683 N357 1.050 . S
C2723 C635 1.668 . S
C2715 C384 1.682 . S
C2747 N403 1.255 . S
C2755 C651 1.198 . S
C2779 C292 1.810 . S
C2787 C589 1.820 . S
C2819 C607 1.241 . S
C2811 N311 1.231 . S
C2843 N334 1.234 . S
C2851 C617 1.273 . S
C2875 N347 1.263 . S
C2883 C621 1.258 . S
C2915 C593 1.812 1_554 S
C2907 C375 1.806 . S
C2939 N393 1.307 . S
C2947 C603 1.337 . S
