# Generated by pormake.
# Topology ibd, (4,6)-cn, num edge types: 1
# Building blocks:
#     Node 0, Type 0, BuildingBlock: QUQFOY_clean_sbu_3, # of connection points: 4
#     Node 1, Type 0, BuildingBlock: QUQFOY_clean_sbu_3, # of connection points: 4
#     Node 2, Type 0, BuildingBlock: QUQFOY_clean_sbu_3, # of connection points: 4
#     Node 3, Type 0, BuildingBlock: QUQFOY_clean_sbu_3, # of connection points: 4
#     Node 4, Type 0, BuildingBlock: QUQFOY_clean_sbu_3, # of connection points: 4
#     Node 5, Type 0, BuildingBlock: QUQFOY_clean_sbu_3, # of connection points: 4
#     Node 6, Type 0, BuildingBlock: QUQFOY_clean_sbu_3, # of connection points: 4
#     Node 7, Type 0, BuildingBlock: QUQFOY_clean_sbu_3, # of connection points: 4
#     Node 8, Type 0, BuildingBlock: QUQFOY_clean_sbu_3, # of connection points: 4
#     Node 9, Type 0, BuildingBlock: QUQFOY_clean_sbu_3, # of connection points: 4
#     Node 10, Type 0, BuildingBlock: QUQFOY_clean_sbu_3, # of connection points: 4
#     Node 11, Type 0, BuildingBlock: QUQFOY_clean_sbu_3, # of connection points: 4
#     Node 12, Type 0, BuildingBlock: QUQFOY_clean_sbu_3, # of connection points: 4
#     Node 13, Type 0, BuildingBlock: QUQFOY_clean_sbu_3, # of connection points: 4
#     Node 14, Type 0, BuildingBlock: QUQFOY_clean_sbu_3, # of connection points: 4
#     Node 15, Type 0, BuildingBlock: QUQFOY_clean_sbu_3, # of connection points: 4
#     Node 16, Type 0, BuildingBlock: QUQFOY_clean_sbu_3, # of connection points: 4
#     Node 17, Type 0, BuildingBlock: QUQFOY_clean_sbu_3, # of connection points: 4
#     Node 18, Type 0, BuildingBlock: QUQFOY_clean_sbu_3, # of connection points: 4
#     Node 19, Type 0, BuildingBlock: QUQFOY_clean_sbu_3, # of connection points: 4
#     Node 20, Type 0, BuildingBlock: QUQFOY_clean_sbu_3, # of connection points: 4
#     Node 21, Type 0, BuildingBlock: QUQFOY_clean_sbu_3, # of connection points: 4
#     Node 22, Type 0, BuildingBlock: QUQFOY_clean_sbu_3, # of connection points: 4
#     Node 23, Type 0, BuildingBlock: QUQFOY_clean_sbu_3, # of connection points: 4
#     Node 24, Type 1, BuildingBlock: CIFDUS_clean_sbu_1, # of connection points: 6
#     Node 25, Type 1, BuildingBlock: CIFDUS_clean_sbu_1, # of connection points: 6
#     Node 26, Type 1, BuildingBlock: CIFDUS_clean_sbu_1, # of connection points: 6
#     Node 27, Type 1, BuildingBlock: CIFDUS_clean_sbu_1, # of connection points: 6
#     Node 28, Type 1, BuildingBlock: CIFDUS_clean_sbu_1, # of connection points: 6
#     Node 29, Type 1, BuildingBlock: CIFDUS_clean_sbu_1, # of connection points: 6
#     Node 30, Type 1, BuildingBlock: CIFDUS_clean_sbu_1, # of connection points: 6
#     Node 31, Type 1, BuildingBlock: CIFDUS_clean_sbu_1, # of connection points: 6
#     Node 32, Type 1, BuildingBlock: CIFDUS_clean_sbu_1, # of connection points: 6
#     Node 33, Type 1, BuildingBlock: CIFDUS_clean_sbu_1, # of connection points: 6
#     Node 34, Type 1, BuildingBlock: CIFDUS_clean_sbu_1, # of connection points: 6
#     Node 35, Type 1, BuildingBlock: CIFDUS_clean_sbu_1, # of connection points: 6
#     Node 36, Type 1, BuildingBlock: CIFDUS_clean_sbu_1, # of connection points: 6
#     Node 37, Type 1, BuildingBlock: CIFDUS_clean_sbu_1, # of connection points: 6
#     Node 38, Type 1, BuildingBlock: CIFDUS_clean_sbu_1, # of connection points: 6
#     Node 39, Type 1, BuildingBlock: CIFDUS_clean_sbu_1, # of connection points: 6
#     Edge 40, Type (0, 1), BuildingBlock: AJUNOK_clean_linker_0, # of connection points: 2
#     Edge 41, Type (0, 1), BuildingBlock: AJUNOK_clean_linker_0, # of connection points: 2
#     Edge 42, Type (0, 1), BuildingBlock: AJUNOK_clean_linker_0, # of connection points: 2
#     Edge 43, Type (0, 1), BuildingBlock: AJUNOK_clean_linker_0, # of connection points: 2
#     Edge 44, Type (0, 1), BuildingBlock: AJUNOK_clean_linker_0, # of connection points: 2
#     Edge 45, Type (0, 1), BuildingBlock: AJUNOK_clean_linker_0, # of connection points: 2
#     Edge 46, Type (0, 1), BuildingBlock: AJUNOK_clean_linker_0, # of connection points: 2
#     Edge 47, Type (0, 1), BuildingBlock: AJUNOK_clean_linker_0, # of connection points: 2
#     Edge 48, Type (0, 1), BuildingBlock: AJUNOK_clean_linker_0, # of connection points: 2
#     Edge 49, Type (0, 1), BuildingBlock: AJUNOK_clean_linker_0, # of connection points: 2
#     Edge 50, Type (0, 1), BuildingBlock: AJUNOK_clean_linker_0, # of connection points: 2
#     Edge 51, Type (0, 1), BuildingBlock: AJUNOK_clean_linker_0, # of connection points: 2
#     Edge 52, Type (0, 1), BuildingBlock: AJUNOK_clean_linker_0, # of connection points: 2
#     Edge 53, Type (0, 1), BuildingBlock: AJUNOK_clean_linker_0, # of connection points: 2
#     Edge 54, Type (0, 1), BuildingBlock: AJUNOK_clean_linker_0, # of connection points: 2
#     Edge 55, Type (0, 1), BuildingBlock: AJUNOK_clean_linker_0, # of connection points: 2
#     Edge 56, Type (0, 1), BuildingBlock: AJUNOK_clean_linker_0, # of connection points: 2
#     Edge 57, Type (0, 1), BuildingBlock: AJUNOK_clean_linker_0, # of connection points: 2
#     Edge 58, Type (0, 1), BuildingBlock: AJUNOK_clean_linker_0, # of connection points: 2
#     Edge 59, Type (0, 1), BuildingBlock: AJUNOK_clean_linker_0, # of connection points: 2
#     Edge 60, Type (0, 1), BuildingBlock: AJUNOK_clean_linker_0, # of connection points: 2
#     Edge 61, Type (0, 1), BuildingBlock: AJUNOK_clean_linker_0, # of connection points: 2
#     Edge 62, Type (0, 1), BuildingBlock: AJUNOK_clean_linker_0, # of connection points: 2
#     Edge 63, Type (0, 1), BuildingBlock: AJUNOK_clean_linker_0, # of connection points: 2
#     Edge 64, Type (0, 1), BuildingBlock: AJUNOK_clean_linker_0, # of connection points: 2
#     Edge 65, Type (0, 1), BuildingBlock: AJUNOK_clean_linker_0, # of connection points: 2
#     Edge 66, Type (0, 1), BuildingBlock: AJUNOK_clean_linker_0, # of connection points: 2
#     Edge 67, Type (0, 1), BuildingBlock: AJUNOK_clean_linker_0, # of connection points: 2
#     Edge 68, Type (0, 1), BuildingBlock: AJUNOK_clean_linker_0, # of connection points: 2
#     Edge 69, Type (0, 1), BuildingBlock: AJUNOK_clean_linker_0, # of connection points: 2
#     Edge 70, Type (0, 1), BuildingBlock: AJUNOK_clean_linker_0, # of connection points: 2
#     Edge 71, Type (0, 1), BuildingBlock: AJUNOK_clean_linker_0, # of connection points: 2
#     Edge 72, Type (0, 1), BuildingBlock: AJUNOK_clean_linker_0, # of connection points: 2
#     Edge 73, Type (0, 1), BuildingBlock: AJUNOK_clean_linker_0, # of connection points: 2
#     Edge 74, Type (0, 1), BuildingBlock: AJUNOK_clean_linker_0, # of connection points: 2
#     Edge 75, Type (0, 1), BuildingBlock: AJUNOK_clean_linker_0, # of connection points: 2
#     Edge 76, Type (0, 1), BuildingBlock: AJUNOK_clean_linker_0, # of connection points: 2
#     Edge 77, Type (0, 1), BuildingBlock: AJUNOK_clean_linker_0, # of connection points: 2
#     Edge 78, Type (0, 1), BuildingBlock: AJUNOK_clean_linker_0, # of connection points: 2
#     Edge 79, Type (0, 1), BuildingBlock: AJUNOK_clean_linker_0, # of connection points: 2
#     Edge 80, Type (0, 1), BuildingBlock: AJUNOK_clean_linker_0, # of connection points: 2
#     Edge 81, Type (0, 1), BuildingBlock: AJUNOK_clean_linker_0, # of connection points: 2
#     Edge 82, Type (0, 1), BuildingBlock: AJUNOK_clean_linker_0, # of connection points: 2
#     Edge 83, Type (0, 1), BuildingBlock: AJUNOK_clean_linker_0, # of connection points: 2
#     Edge 84, Type (0, 1), BuildingBlock: AJUNOK_clean_linker_0, # of connection points: 2
#     Edge 85, Type (0, 1), BuildingBlock: AJUNOK_clean_linker_0, # of connection points: 2
#     Edge 86, Type (0, 1), BuildingBlock: AJUNOK_clean_linker_0, # of connection points: 2
#     Edge 87, Type (0, 1), BuildingBlock: AJUNOK_clean_linker_0, # of connection points: 2
#     Edge 88, Type (0, 1), BuildingBlock: AJUNOK_clean_linker_0, # of connection points: 2
#     Edge 89, Type (0, 1), BuildingBlock: AJUNOK_clean_linker_0, # of connection points: 2
#     Edge 90, Type (0, 1), BuildingBlock: AJUNOK_clean_linker_0, # of connection points: 2
#     Edge 91, Type (0, 1), BuildingBlock: AJUNOK_clean_linker_0, # of connection points: 2
#     Edge 92, Type (0, 1), BuildingBlock: AJUNOK_clean_linker_0, # of connection points: 2
#     Edge 93, Type (0, 1), BuildingBlock: AJUNOK_clean_linker_0, # of connection points: 2
#     Edge 94, Type (0, 1), BuildingBlock: AJUNOK_clean_linker_0, # of connection points: 2
#     Edge 95, Type (0, 1), BuildingBlock: AJUNOK_clean_linker_0, # of connection points: 2
#     Edge 96, Type (0, 1), BuildingBlock: AJUNOK_clean_linker_0, # of connection points: 2
#     Edge 97, Type (0, 1), BuildingBlock: AJUNOK_clean_linker_0, # of connection points: 2
#     Edge 98, Type (0, 1), BuildingBlock: AJUNOK_clean_linker_0, # of connection points: 2
#     Edge 99, Type (0, 1), BuildingBlock: AJUNOK_clean_linker_0, # of connection points: 2
#     Edge 100, Type (0, 1), BuildingBlock: AJUNOK_clean_linker_0, # of connection points: 2
#     Edge 101, Type (0, 1), BuildingBlock: AJUNOK_clean_linker_0, # of connection points: 2
#     Edge 102, Type (0, 1), BuildingBlock: AJUNOK_clean_linker_0, # of connection points: 2
#     Edge 103, Type (0, 1), BuildingBlock: AJUNOK_clean_linker_0, # of connection points: 2
#     Edge 104, Type (0, 1), BuildingBlock: AJUNOK_clean_linker_0, # of connection points: 2
#     Edge 105, Type (0, 1), BuildingBlock: AJUNOK_clean_linker_0, # of connection points: 2
#     Edge 106, Type (0, 1), BuildingBlock: AJUNOK_clean_linker_0, # of connection points: 2
#     Edge 107, Type (0, 1), BuildingBlock: AJUNOK_clean_linker_0, # of connection points: 2
#     Edge 108, Type (0, 1), BuildingBlock: AJUNOK_clean_linker_0, # of connection points: 2
#     Edge 109, Type (0, 1), BuildingBlock: AJUNOK_clean_linker_0, # of connection points: 2
#     Edge 110, Type (0, 1), BuildingBlock: AJUNOK_clean_linker_0, # of connection points: 2
#     Edge 111, Type (0, 1), BuildingBlock: AJUNOK_clean_linker_0, # of connection points: 2
#     Edge 112, Type (0, 1), BuildingBlock: AJUNOK_clean_linker_0, # of connection points: 2
#     Edge 113, Type (0, 1), BuildingBlock: AJUNOK_clean_linker_0, # of connection points: 2
#     Edge 114, Type (0, 1), BuildingBlock: AJUNOK_clean_linker_0, # of connection points: 2
#     Edge 115, Type (0, 1), BuildingBlock: AJUNOK_clean_linker_0, # of connection points: 2
#     Edge 116, Type (0, 1), BuildingBlock: AJUNOK_clean_linker_0, # of connection points: 2
#     Edge 117, Type (0, 1), BuildingBlock: AJUNOK_clean_linker_0, # of connection points: 2
#     Edge 118, Type (0, 1), BuildingBlock: AJUNOK_clean_linker_0, # of connection points: 2
#     Edge 119, Type (0, 1), BuildingBlock: AJUNOK_clean_linker_0, # of connection points: 2
#     Edge 120, Type (0, 1), BuildingBlock: AJUNOK_clean_linker_0, # of connection points: 2
#     Edge 121, Type (0, 1), BuildingBlock: AJUNOK_clean_linker_0, # of connection points: 2
#     Edge 122, Type (0, 1), BuildingBlock: AJUNOK_clean_linker_0, # of connection points: 2
#     Edge 123, Type (0, 1), BuildingBlock: AJUNOK_clean_linker_0, # of connection points: 2
#     Edge 124, Type (0, 1), BuildingBlock: AJUNOK_clean_linker_0, # of connection points: 2
#     Edge 125, Type (0, 1), BuildingBlock: AJUNOK_clean_linker_0, # of connection points: 2
#     Edge 126, Type (0, 1), BuildingBlock: AJUNOK_clean_linker_0, # of connection points: 2
#     Edge 127, Type (0, 1), BuildingBlock: AJUNOK_clean_linker_0, # of connection points: 2
#     Edge 128, Type (0, 1), BuildingBlock: AJUNOK_clean_linker_0, # of connection points: 2
#     Edge 129, Type (0, 1), BuildingBlock: AJUNOK_clean_linker_0, # of connection points: 2
#     Edge 130, Type (0, 1), BuildingBlock: AJUNOK_clean_linker_0, # of connection points: 2
#     Edge 131, Type (0, 1), BuildingBlock: AJUNOK_clean_linker_0, # of connection points: 2
#     Edge 132, Type (0, 1), BuildingBlock: AJUNOK_clean_linker_0, # of connection points: 2
#     Edge 133, Type (0, 1), BuildingBlock: AJUNOK_clean_linker_0, # of connection points: 2
#     Edge 134, Type (0, 1), BuildingBlock: AJUNOK_clean_linker_0, # of connection points: 2
#     Edge 135, Type (0, 1), BuildingBlock: AJUNOK_clean_linker_0, # of connection points: 2
# Relax obj value: 0.356
# Max RMSD: 0.309
# Mean RMSD: 0.279
data_MOF--net-ibd--node1-QUQFOY_clean_sbu_3--node2-CIFDUS_clean_sbu_1--edge1-AJUNOK_clean_linker_0
_symmetry_space_group_name_H-M    P1
_symmetry_Int_Tables_number       1
_symmetry_cell_setting            triclinic
loop_
_symmetry_equiv_pos_as_xyz
'x, y, z'
_cell_length_a     36.170143
_cell_length_b     36.993798
_cell_length_c     37.662789
_cell_angle_alpha  90.70811
_cell_angle_beta   89.397027
_cell_angle_gamma 94.750147
loop_
_atom_site_label
_atom_site_type_symbol
_atom_site_fract_x
_atom_site_fract_y
_atom_site_fract_z
_atom_type_partial_charge
C0 C 0.94491 0.27727 0.41915 0.0
O1 O 0.92141 0.30012 0.41325 0.0
Cd2 Cd 0.94057 0.35026 0.37647 0.0
O3 O 0.97479 0.27753 0.40079 0.0
Cd4 Cd 0.00587 0.30981 0.34952 0.0
C5 C 0.03055 0.36059 0.41288 0.0
O6 O 0.95303 0.32698 0.31956 0.0
O7 O 0.00354 0.36076 0.30792 0.0
O8 O 0.00933 0.25549 0.3136 0.0
C9 C 0.97136 0.34822 0.29852 0.0
O10 O -0.00349 0.36571 0.40894 0.0
C11 C 0.04169 0.26599 0.30252 0.0
O12 O 0.04636 0.33992 0.39172 0.0
O13 O 0.05855 0.29327 0.31766 0.0
C14 C 0.03292 0.82258 0.57763 0.0
O15 O 0.02632 0.84966 0.59681 0.0
Cd16 Cd 0.96446 0.83617 0.61735 0.0
O17 O 0.01943 0.79131 0.58687 0.0
Cd18 Cd -0.01173 0.76888 0.64203 0.0
C19 C 0.9372 0.75378 0.57399 0.0
O20 O 0.97227 0.82021 0.67681 0.0
O21 O 0.93225 0.77292 0.67723 0.0
O22 O 0.04296 0.77032 0.67675 0.0
C23 C 0.94481 0.80273 0.69131 0.0
O24 O 0.93891 0.78824 0.57617 0.0
C25 C 0.03639 0.73833 0.68822 0.0
O26 O 0.9515 0.73543 0.59782 0.0
O27 O 0.00938 0.71864 0.6749 0.0
C28 C 0.44639 0.77222 0.91848 0.0
O29 O 0.42233 0.79333 0.9093 0.0
Cd30 Cd 0.4411 0.84573 0.87625 0.0
O31 O 0.47759 0.77268 0.90229 0.0
Cd32 Cd 0.50711 0.80432 0.84929 0.0
C33 C 0.5305 0.85902 0.91271 0.0
O34 O 0.4559 0.82409 0.82024 0.0
O35 O 0.5066 0.85602 0.80641 0.0
O36 O 0.50475 0.75138 0.81122 0.0
C37 C 0.47243 0.84776 0.80052 0.0
O38 O 0.49635 0.86424 0.90952 0.0
C39 C 0.53887 0.75676 0.80314 0.0
O40 O 0.54572 0.83733 0.89197 0.0
O41 O 0.5583 0.78089 0.82063 0.0
C42 C 0.51811 0.33059 0.07647 0.0
O43 O 0.50028 0.35483 0.09127 0.0
Cd44 Cd 0.44492 0.33563 0.12059 0.0
O45 O 0.51513 0.29821 0.08768 0.0
Cd46 Cd 0.48627 0.27251 0.14252 0.0
C47 C 0.42955 0.25299 0.07756 0.0
O48 O 0.46675 0.32126 0.17672 0.0
O49 O 0.43183 0.27076 0.17961 0.0
O50 O 0.54207 0.27203 0.17679 0.0
C51 C 0.44387 0.30054 0.19415 0.0
O52 O 0.42264 0.28608 0.08056 0.0
C53 C 0.53308 0.24083 0.18943 0.0
O54 O 0.4513 0.23939 0.09899 0.0
O55 O 0.50527 0.22235 0.17621 0.0
C56 C 0.93186 0.73195 0.17068 0.0
O57 O 0.90676 0.74083 0.15023 0.0
Cd58 Cd 0.92447 0.8013 0.13279 0.0
O59 O 0.96511 0.74318 0.16352 0.0
Cd60 Cd -0.01324 0.77188 0.10713 0.0
C61 C 0.00818 0.82362 0.17442 0.0
O62 O 0.93685 0.79391 0.07194 0.0
O63 O -0.00979 0.82525 0.07054 0.0
O64 O -0.01531 0.71606 0.0733 0.0
C65 C 0.95859 0.81759 0.05675 0.0
O66 O 0.97328 0.82603 0.17382 0.0
C67 C 0.01701 0.72322 0.06041 0.0
O68 O 0.02367 0.80619 0.14993 0.0
O69 O 0.03684 0.74993 0.07367 0.0
C70 C 0.55297 0.83831 0.32043 0.0
O71 O 0.53266 0.86394 0.32714 0.0
Cd72 Cd 0.47635 0.85049 0.35875 0.0
O73 O 0.54927 0.80924 0.33828 0.0
Cd74 Cd 0.50943 0.78475 0.38692 0.0
C75 C 0.45288 0.76693 0.31798 0.0
O76 O 0.49236 0.83763 0.41784 0.0
O77 O 0.45449 0.78919 0.42387 0.0
O78 O 0.55485 0.77749 0.43347 0.0
C79 C 0.46724 0.81994 0.4357 0.0
O80 O 0.44757 0.80031 0.32254 0.0
C81 C 0.54433 0.74412 0.43693 0.0
O82 O 0.4756 0.75207 0.33757 0.0
O83 O 0.52171 0.72972 0.41424 0.0
C84 C 0.43717 0.23746 0.67099 0.0
O85 O 0.40884 0.25027 0.65803 0.0
Cd86 Cd 0.42582 0.30692 0.63133 0.0
O87 O 0.46928 0.24662 0.65822 0.0
Cd88 Cd 0.4944 0.2799 0.60438 0.0
C89 C 0.51463 0.32447 0.67134 0.0
O90 O 0.44205 0.29801 0.57197 0.0
O91 O 0.4892 0.33805 0.57454 0.0
O92 O 0.49456 0.22878 0.56472 0.0
C93 C 0.45914 0.3264 0.5596 0.0
O94 O 0.47987 0.32447 0.66683 0.0
C95 C 0.52755 0.23647 0.55381 0.0
O96 O 0.53428 0.30955 0.64822 0.0
O97 O 0.54663 0.26242 0.56901 0.0
C98 C 0.05375 0.33765 0.824 0.0
O99 O 0.03827 0.36514 0.83536 0.0
Cd100 Cd 0.97942 0.34838 0.86033 0.0
O101 O 0.04616 0.30691 0.83826 0.0
Cd102 Cd 0.01034 0.28056 0.88862 0.0
C103 C 0.96418 0.2666 0.81343 0.0
O104 O -0.00545 0.33332 0.91942 0.0
O105 O 0.95715 0.2854 0.92885 0.0
O106 O 0.06261 0.27763 0.92878 0.0
C107 C 0.9706 0.31652 0.93932 0.0
O108 O 0.9622 0.30073 0.816 0.0
C109 C 0.05527 0.24412 0.93481 0.0
O110 O 0.97747 0.24923 0.83866 0.0
O111 O 0.0298 0.2273 0.91651 0.0
C112 C 0.42033 0.93833 0.19569 0.0
O113 O 0.41 0.91106 0.21447 0.0
Cd114 Cd 0.37516 0.92321 0.26545 0.0
O115 O 0.40254 0.96664 0.19607 0.0
Cd116 Cd 0.35017 -0.00881 0.22595 0.0
C117 C 0.42299 0.00783 0.27823 0.0
O118 O 0.31632 0.93853 0.24611 0.0
O119 O 0.31989 0.98495 0.28219 0.0
O120 O 0.30062 0.00184 0.18244 0.0
C121 C 0.30113 0.95723 0.26966 0.0
O122 O 0.41749 0.97428 0.28557 0.0
C123 C 0.29729 0.03366 0.1946 0.0
O124 O 0.40165 0.02277 0.25722 0.0
O125 O 0.32221 0.04669 0.21578 0.0
C126 C 0.28443 0.09029 0.52248 0.0
O127 O 0.29227 0.09214 0.48968 0.0
Cd128 Cd 0.2841 0.13223 0.44388 0.0
O129 O 0.26691 0.11451 0.53782 0.0
Cd130 Cd 0.2373 0.15793 0.50089 0.0
C131 C 0.20506 0.0885 0.45144 0.0
O132 O 0.28858 0.19099 0.4706 0.0
O133 O 0.23469 0.19133 0.44644 0.0
O134 O 0.23489 0.20115 0.54702 0.0
C135 C 0.26659 0.20736 0.45185 0.0
O136 O 0.22603 0.10168 0.42669 0.0
C137 C 0.20265 0.20959 0.5391 0.0
O138 O 0.20493 0.10344 0.4818 0.0
O139 O 0.18343 0.18882 0.51798 0.0
C140 C 0.17132 -0.00157 0.68375 0.0
O141 O 0.15685 0.97524 0.70545 0.0
Cd142 Cd 0.12005 -0.01464 0.7563 0.0
O143 O 0.16137 0.03049 0.68398 0.0
Cd144 Cd 0.10921 0.05248 0.71916 0.0
C145 C 0.17156 0.06219 0.78101 0.0
O146 O 0.06216 0.00452 0.73993 0.0
O147 O 0.07096 0.05349 0.77152 0.0
O148 O 0.0753 0.06037 0.66771 0.0
C149 C 0.05076 0.02463 0.76458 0.0
O150 O 0.16051 0.02966 0.78846 0.0
C151 C 0.06496 0.09067 0.6784 0.0
O152 O 0.15836 0.07838 0.75508 0.0
O153 O 0.08313 0.10738 0.70318 0.0
C154 C 0.28726 0.85027 0.02959 0.0
O155 O 0.31225 0.86339 0.00845 0.0
Cd156 Cd 0.29175 0.8965 0.96008 0.0
O157 O 0.2552 0.86186 0.03052 0.0
Cd158 Cd 0.22455 0.91146 0.00459 0.0
C159 C 0.20579 0.84555 0.951 0.0
O160 O 0.27479 0.95194 -0.01599 0.0
O161 O 0.22252 0.95703 0.95752 0.0
O162 O 0.22231 0.94623 0.05818 0.0
C163 C 0.2552 0.97021 0.96446 0.0
O164 O 0.23963 0.85425 0.94298 0.0
C165 C 0.18834 0.9509 0.05349 0.0
O166 O 0.18922 0.86353 0.97414 0.0
O167 O 0.17055 0.93069 0.03089 0.0
C168 C 0.20154 0.35147 0.04205 0.0
O169 O 0.21035 0.37294 0.06749 0.0
Cd170 Cd 0.26915 0.39961 0.04976 0.0
O171 O 0.2135 0.35924 0.01103 0.0
Cd172 Cd 0.24258 0.41561 -0.01561 0.0
C173 C 0.29412 0.35001 0.97444 0.0
O174 O 0.25662 0.45886 0.03273 0.0
O175 O 0.29764 0.45809 -0.00935 0.0
O176 O 0.18254 0.43676 0.97658 0.0
C177 C 0.28417 0.47472 0.01686 0.0
O178 O 0.29476 0.35507 0.0079 0.0
C179 C 0.19129 0.45308 0.9479 0.0
O180 O 0.2774 0.37091 0.95473 0.0
O181 O 0.22227 0.44743 0.93349 0.0
C182 C 0.69719 0.0949 0.03483 0.0
O183 O 0.71931 0.1056 0.05942 0.0
Cd184 Cd 0.77224 0.14385 0.04289 0.0
O185 O 0.69796 0.1108 0.00507 0.0
Cd186 Cd 0.72928 0.1657 0.97901 0.0
C187 C 0.7837 0.10446 0.959 0.0
O188 O 0.74852 0.19963 0.03037 0.0
O189 O 0.77869 0.21691 0.98287 0.0
O190 O 0.67452 0.1962 0.9749 0.0
C191 C 0.77038 0.22312 0.01509 0.0
O192 O 0.79225 0.10913 -0.00846 0.0
C193 C 0.68459 0.20784 0.94441 0.0
O194 O 0.76016 0.12285 0.94459 0.0
O195 O 0.70884 0.19144 0.92738 0.0
C196 C 0.18672 0.57505 0.21019 0.0
O197 O 0.17642 0.55408 0.18466 0.0
Cd198 Cd 0.14325 0.49943 0.20084 0.0
O199 O 0.16902 0.57442 0.23953 0.0
Cd200 Cd 0.1115 0.54481 0.26441 0.0
C201 C 0.18065 0.49783 0.28612 0.0
O202 O 0.08297 0.51289 0.21536 0.0
O203 O 0.06949 0.4896 0.26712 0.0
O204 O 0.07373 0.59512 0.2542 0.0
C205 C 0.06338 0.49019 0.23399 0.0
O206 O 0.17827 0.48824 0.25361 0.0
C207 C 0.06415 0.59806 0.28654 0.0
O208 O 0.15835 0.51883 0.30027 0.0
O209 O 0.07895 0.57812 0.30882 0.0
C210 C 0.70656 0.85069 0.5439 0.0
O211 O 0.71749 0.87356 0.5676 0.0
Cd212 Cd 0.77805 0.89574 0.54941 0.0
O213 O 0.71599 0.85693 0.51192 0.0
Cd214 Cd 0.74453 0.9141 0.486 0.0
C215 C 0.79271 0.84525 0.47348 0.0
O216 O 0.76702 0.95536 0.53372 0.0
O217 O 0.79422 0.96334 0.4824 0.0
O218 O 0.68646 0.93872 0.48771 0.0
C219 C 0.78741 0.97554 0.5133 0.0
O220 O 0.79697 0.8495 0.50677 0.0
C221 C 0.68865 0.94959 0.45587 0.0
O222 O 0.77584 0.8677 0.45572 0.0
O223 O 0.71458 0.9391 0.43618 0.0
C224 C 0.92643 0.03477 0.21486 0.0
O225 O 0.91155 0.01733 0.18877 0.0
Cd226 Cd 0.87719 0.962 0.19732 0.0
O227 O 0.91362 0.03092 0.24643 0.0
Cd228 Cd 0.85632 0.00017 0.27407 0.0
C229 C 0.92016 0.94103 0.27605 0.0
O230 O 0.8251 0.98351 0.22241 0.0
O231 O 0.81271 0.94775 0.26716 0.0
O232 O 0.82851 0.05609 0.27444 0.0
C233 C 0.80482 0.95826 0.23643 0.0
O234 O 0.91557 0.93842 0.24264 0.0
C235 C 0.8063 0.0495 0.30032 0.0
O236 O 0.90113 0.96111 0.29573 0.0
O237 O 0.81239 0.0225 0.31955 0.0
C238 C 0.19934 0.59527 0.53612 0.0
O239 O 0.21953 0.60798 0.56143 0.0
Cd240 Cd 0.27362 0.64486 0.54517 0.0
O241 O 0.20068 0.61058 0.50604 0.0
Cd242 Cd 0.22851 0.66779 0.48046 0.0
C243 C 0.28253 0.60386 0.46128 0.0
O244 O 0.25551 0.7018 0.52969 0.0
O245 O 0.28128 0.71518 0.47878 0.0
O246 O 0.17191 0.69622 0.49091 0.0
C247 C 0.27803 0.7225 0.51167 0.0
O248 O 0.29115 0.60997 0.49362 0.0
C249 C 0.17072 0.70836 0.45965 0.0
O250 O 0.2586 0.62161 0.44607 0.0
O251 O 0.19394 0.69771 0.4369 0.0
C252 C 0.42883 0.53613 0.71844 0.0
O253 O 0.42036 0.51276 0.69421 0.0
Cd254 Cd 0.38281 0.45832 0.6996 0.0
O255 O 0.41172 0.53592 0.74816 0.0
Cd256 Cd 0.35483 0.50036 0.77046 0.0
C257 C 0.41592 0.44712 0.78514 0.0
O258 O 0.32733 0.47849 0.71698 0.0
O259 O 0.31468 0.44569 0.76363 0.0
O260 O 0.3234 0.55319 0.76741 0.0
C261 C 0.3071 0.45375 0.73204 0.0
O262 O 0.41247 0.44189 0.75196 0.0
C263 C 0.30254 0.5471 0.79429 0.0
O264 O 0.39618 0.46815 0.80253 0.0
O265 O 0.31022 0.52147 0.81453 0.0
C266 C 0.68538 0.07313 0.71216 0.0
O267 O 0.67797 0.04538 0.69255 0.0
Cd268 Cd 0.6422 -0.00689 0.71034 0.0
O269 O 0.66824 0.07783 0.74143 0.0
Cd270 Cd 0.61475 0.04759 0.77399 0.0
C271 C 0.68284 -0.00351 0.79432 0.0
O272 O 0.58737 0.01831 0.72503 0.0
O273 O 0.56761 -0.00494 0.77487 0.0
O274 O 0.57621 0.09681 0.76432 0.0
C275 C 0.56399 -0.00256 0.74152 0.0
O276 O 0.67835 0.9842 0.7628 0.0
C277 C 0.56477 0.09797 0.79621 0.0
O278 O 0.66284 0.02023 0.80739 0.0
O279 O 0.58046 0.07913 0.81884 0.0
C280 C 0.77727 0.59187 0.02516 0.0
O281 O 0.78864 0.59881 -0.0061 0.0
Cd282 Cd 0.78842 0.63444 0.94379 0.0
O283 O 0.75579 0.61231 0.041 0.0
Cd284 Cd 0.7313 0.65718 0.00183 0.0
C285 C 0.71172 0.58439 0.94639 0.0
O286 O 0.78379 0.6905 0.97368 0.0
O287 O 0.7303 0.69366 0.94946 0.0
O288 O 0.72664 0.70002 0.04808 0.0
C289 C 0.7632 0.70755 0.95411 0.0
O290 O 0.73643 0.5953 0.92381 0.0
C291 C 0.69361 0.70631 0.04053 0.0
O292 O 0.70652 0.60266 0.97446 0.0
O293 O 0.67556 0.68475 0.01916 0.0
C294 C 0.91909 0.43703 0.69718 0.0
O295 O 0.90662 0.40882 0.7136 0.0
Cd296 Cd 0.87289 0.42149 0.76572 0.0
O297 O 0.90291 0.46634 0.69971 0.0
Cd298 Cd 0.84921 0.49241 0.72874 0.0
C299 C 0.92141 0.50574 0.78258 0.0
O300 O 0.81457 0.44054 0.75085 0.0
O301 O 0.81447 0.48941 0.78369 0.0
O302 O 0.79965 0.50336 0.685 0.0
C303 C 0.80007 0.4579 0.7759 0.0
O304 O 0.91451 0.4719 0.78804 0.0
C305 C 0.80115 0.53704 0.69257 0.0
O306 O 0.90136 0.52234 0.76161 0.0
O307 O 0.82714 0.54927 0.71299 0.0
C308 C 0.77583 0.34872 0.5351 0.0
O309 O 0.80225 0.36578 0.51831 0.0
Cd310 Cd 0.78517 0.4017 0.47171 0.0
O311 O 0.74288 0.3582 0.53376 0.0
Cd312 Cd 0.71141 0.40861 0.50847 0.0
C313 C 0.70217 0.3462 0.45319 0.0
O314 O 0.76108 0.4519 0.49853 0.0
O315 O 0.7182 0.4578 0.46072 0.0
O316 O 0.70591 0.4375 0.56465 0.0
C317 C 0.74853 0.47063 0.47442 0.0
O318 O 0.73627 0.35769 0.45203 0.0
C319 C 0.67316 0.44459 0.55736 0.0
O320 O 0.67974 0.36291 0.47201 0.0
O321 O 0.6556 0.42437 0.5346 0.0
C322 C 0.66775 0.49369 0.19622 0.0
O323 O 0.65497 0.47203 0.22011 0.0
Cd324 Cd 0.62125 0.48772 0.27108 0.0
O325 O 0.6571 0.52549 0.19406 0.0
Cd326 Cd 0.60741 0.55534 0.22584 0.0
C327 C 0.67553 0.56772 0.28213 0.0
O328 O 0.56559 0.50655 0.24831 0.0
O329 O 0.56184 0.55906 0.27352 0.0
O330 O 0.57402 0.56078 0.17342 0.0
C331 C 0.54801 0.5268 0.26863 0.0
O332 O 0.66707 0.53504 0.29109 0.0
C333 C 0.56668 0.59308 0.18066 0.0
O334 O 0.6572 0.5833 0.25916 0.0
O335 O 0.58533 0.61036 0.20474 0.0
O336 O 0.14942 0.18835 0.09251 0.0
Mn337 Mn 0.11906 0.14882 0.12195 0.0
O338 O 0.1987 0.20894 0.12417 0.0
Mn339 Mn 0.18005 0.18731 0.16471 0.0
O340 O 0.08613 0.1109 0.1525 0.0
O341 O 0.07739 0.1549 0.08638 0.0
Mn342 Mn 0.05419 0.11203 0.07909 0.0
O343 O 0.13811 0.10816 0.09049 0.0
O344 O 0.03474 0.09527 0.12084 0.0
O345 O 0.09797 0.18806 0.15521 0.0
O346 O 0.1452 0.21139 0.18867 0.0
O347 O 0.02915 0.14182 0.05216 0.0
O348 O 0.08931 0.08481 0.05849 0.0
C349 C 0.19039 0.13461 0.17686 0.0
C350 C 0.17944 0.20883 0.09629 0.0
C351 C 0.05323 0.09522 0.14914 0.0
C352 C 0.05678 0.16485 0.0605 0.0
C353 C 0.12314 0.08544 0.06788 0.0
C354 C 0.11128 0.20871 0.18039 0.0
O355 O 0.16301 0.14157 0.15583 0.0
O356 O 0.20991 0.16218 0.19061 0.0
O357 O 0.07251 0.86499 0.33257 0.0
Mn358 Mn 0.10316 0.8918 0.37362 0.0
O359 O 0.10219 0.81639 0.31764 0.0
Mn360 Mn 0.14773 0.83592 0.33254 0.0
O361 O 0.13428 0.92328 0.41153 0.0
O362 O 0.0674 0.92974 0.3741 0.0
Mn363 Mn 0.05316 0.94228 0.41678 0.0
O364 O 0.07351 0.86348 0.41375 0.0
O365 O 0.09575 0.96182 0.43686 0.0
O366 O 0.136 0.91909 0.3342 0.0
O367 O 0.1671 0.8752 0.30764 0.0
O368 O 0.02426 0.96509 0.38552 0.0
O369 O 0.03351 0.90045 0.43771 0.0
C370 C 0.15614 0.82754 0.38715 0.0
C371 C 0.07641 0.83693 0.31283 0.0
C372 C 0.12767 0.95058 0.43178 0.0
C373 C 0.03996 0.94539 0.36204 0.0
C374 C 0.0476 0.87012 0.43582 0.0
C375 C 0.15941 0.9081 0.31107 0.0
O376 O 0.13893 0.85352 0.37457 0.0
O377 O 0.17377 0.80989 0.36336 0.0
O378 O 0.41149 0.94854 0.65208 0.0
Mn379 Mn 0.37685 0.9171 0.61701 0.0
O380 O 0.45758 0.96454 0.61566 0.0
Mn381 Mn 0.42784 0.97231 0.57918 0.0
O382 O 0.34438 0.88018 0.58381 0.0
O383 O 0.37373 0.8806 0.65757 0.0
Mn384 Mn 0.32525 0.86923 0.66177 0.0
O385 O 0.3307 0.94217 0.63605 0.0
O386 O 0.30624 0.84827 0.62134 0.0
O387 O 0.42119 0.89402 0.58991 0.0
O388 O 0.43644 0.93638 0.54835 0.0
O389 O 0.3447 0.84018 0.69311 0.0
O390 O 0.30277 0.90867 0.67835 0.0
C391 C 0.37216 -0.0103 0.586 0.0
C392 C 0.44562 0.95866 0.64645 0.0
C393 C 0.32065 0.8531 0.59086 0.0
C394 C 0.37535 0.85901 0.68464 0.0
C395 C 0.30565 0.93713 0.65993 0.0
C396 C 0.43284 0.90342 0.55825 0.0
O397 O 0.37863 0.95645 0.58008 0.0
O398 O 0.40155 0.01012 0.59277 0.0
O399 O 0.39485 0.18947 0.91889 0.0
Mn400 Mn 0.36723 0.16242 0.87649 0.0
O401 O 0.43843 0.15479 0.93722 0.0
Mn402 Mn 0.41662 0.11306 0.91756 0.0
O403 O 0.33465 0.13413 0.83759 0.0
O404 O 0.33276 0.20332 0.87859 0.0
Mn405 Mn 0.32181 0.21431 0.83481 0.0
O406 O 0.39998 0.18933 0.83718 0.0
O407 O 0.29588 0.17387 0.81757 0.0
O408 O 0.33402 0.12954 0.91203 0.0
O409 O 0.37381 0.09516 0.93935 0.0
O410 O 0.29791 0.24589 0.8622 0.0
O411 O 0.36527 0.22916 0.81158 0.0
C412 C 0.43131 0.1063 0.86352 0.0
C413 C 0.42066 0.18272 0.94035 0.0
C414 C 0.30492 0.14181 0.82173 0.0
C415 C 0.31392 0.23044 0.88786 0.0
C416 C 0.39468 0.21272 0.81324 0.0
C417 C 0.34118 0.10212 0.93106 0.0
O418 O 0.40422 0.12447 0.87453 0.0
O419 O 0.44454 0.08658 0.88777 0.0
O420 O 0.56533 0.36839 0.83236 0.0
Mn421 Mn 0.59993 0.39284 0.87283 0.0
O422 O 0.58065 0.31256 0.82671 0.0
Mn423 Mn 0.62803 0.33225 0.83131 0.0
O424 O 0.63413 0.4219 0.91014 0.0
O425 O 0.56992 0.43502 0.87134 0.0
Mn426 Mn 0.55598 0.45114 0.91247 0.0
O427 O 0.56753 0.36969 0.9141 0.0
O428 O 0.60022 0.46618 0.93221 0.0
O429 O 0.63561 0.41543 0.83455 0.0
O430 O 0.64447 0.36764 0.79938 0.0
O431 O 0.53232 0.47648 0.87903 0.0
O432 O 0.5304 0.41179 0.93356 0.0
C433 C 0.65471 0.3251 0.87851 0.0
C434 C 0.56027 0.33672 0.818 0.0
C435 C 0.6303 0.45074 0.92917 0.0
C436 C 0.54514 0.45285 0.85752 0.0
C437 C 0.54276 0.38067 0.93541 0.0
C438 C 0.65228 0.40046 0.80881 0.0
O439 O 0.63305 0.35111 0.87471 0.0
O440 O 0.66048 0.30481 0.85094 0.0
O441 O 0.90626 0.44858 0.15116 0.0
Mn442 Mn 0.8713 0.41528 0.11856 0.0
O443 O 0.95147 0.45924 0.11292 0.0
Mn444 Mn 0.91933 0.45831 0.0757 0.0
O445 O 0.83664 0.37753 0.08923 0.0
O446 O 0.87158 0.3793 0.1591 0.0
Mn447 Mn 0.82419 0.37018 0.17032 0.0
O448 O 0.82576 0.44033 0.13917 0.0
O449 O 0.80091 0.34917 0.13132 0.0
O450 O 0.91539 0.38901 0.09222 0.0
O451 O 0.92922 0.42383 0.04493 0.0
O452 O 0.84754 0.34193 0.20018 0.0
O453 O 0.80605 0.41158 0.18787 0.0
C454 C 0.87387 0.4884 0.07413 0.0
C455 C 0.94024 0.45749 0.14444 0.0
C456 C 0.8124 0.3521 0.0994 0.0
C457 C 0.87697 0.35729 0.18493 0.0
C458 C 0.80485 0.43764 0.16669 0.0
C459 C 0.92977 0.39391 0.06064 0.0
O460 O 0.86931 0.4532 0.07897 0.0
O461 O 0.90745 0.50229 0.0683 0.0
O462 O 0.8987 0.68722 0.41606 0.0
Mn463 Mn 0.86935 0.65981 0.37552 0.0
O464 O 0.93361 0.64718 0.44133 0.0
Mn465 Mn 0.92031 0.6084 0.41127 0.0
O466 O 0.83638 0.63263 0.33709 0.0
O467 O 0.83109 0.69805 0.38133 0.0
Mn468 Mn 0.8296 0.71492 0.33769 0.0
O469 O 0.89958 0.68835 0.33504 0.0
O470 O 0.81508 0.67796 0.30633 0.0
O471 O 0.83895 0.62456 0.41319 0.0
O472 O 0.87841 0.58208 0.42324 0.0
O473 O 0.79414 0.73778 0.36 0.0
O474 O 0.87495 0.74003 0.33129 0.0
C475 C 0.9394 0.6122 0.3585 0.0
C476 C 0.92064 0.6781 0.44024 0.0
C477 C 0.81573 0.6445 0.31306 0.0
C478 C 0.80733 0.72239 0.38734 0.0
C479 C 0.89878 0.71941 0.32074 0.0
C480 C 0.84649 0.59344 0.42596 0.0
O481 O 0.90948 0.62548 0.37015 0.0
O482 O 0.95359 0.59058 0.38049 0.0
O483 O 0.8362 0.86732 0.90157 0.0
Mn484 Mn 0.86743 0.9096 0.87491 0.0
O485 O 0.78485 0.85305 0.87073 0.0
Mn486 Mn 0.80988 0.86531 0.82996 0.0
O487 O 0.90251 0.94958 0.84785 0.0
O488 O 0.90486 0.90717 0.91558 0.0
Mn489 Mn 0.91409 0.95323 0.92733 0.0
O490 O 0.83893 0.95028 0.89998 0.0
O491 O 0.9365 0.97807 0.89058 0.0
O492 O 0.89435 0.87202 0.8441 0.0
O493 O 0.84735 0.83634 0.82035 0.0
O494 O 0.94379 0.93224 0.95661 0.0
O495 O 0.87253 0.97051 0.94624 0.0
C496 C 0.80276 0.91859 0.81548 0.0
C497 C 0.80453 0.8493 0.89771 0.0
C498 C 0.92919 0.97266 0.8581 0.0
C499 C 0.92817 0.90329 0.94145 0.0
C500 C 0.84438 0.97148 0.92687 0.0
C501 C 0.8815 0.84678 0.82264 0.0
O502 O 0.82885 0.91021 0.83649 0.0
O503 O 0.78695 0.89153 0.79748 0.0
O504 O 0.91575 0.1995 0.65083 0.0
Mn505 Mn 0.87722 0.17269 0.61483 0.0
O506 O 0.88043 0.22612 0.69016 0.0
Mn507 Mn 0.84104 0.2281 0.66178 0.0
O508 O 0.84121 0.13985 0.58081 0.0
O509 O 0.91132 0.13302 0.61235 0.0
Mn510 Mn 0.9224 0.12298 0.56793 0.0
O511 O 0.90386 0.1986 0.57039 0.0
O512 O 0.87878 0.10793 0.54623 0.0
O513 O 0.84633 0.14855 0.65741 0.0
O514 O 0.80775 0.19118 0.6748 0.0
O515 O 0.94746 0.09211 0.5943 0.0
O516 O 0.94689 0.16381 0.54964 0.0
C517 C 0.84257 0.24533 0.60727 0.0
C518 C 0.91075 0.21475 0.68117 0.0
C519 C 0.84677 0.11572 0.55638 0.0
C520 C 0.93398 0.10963 0.62081 0.0
C521 C 0.93061 0.19273 0.54869 0.0
C522 C 0.81719 0.15868 0.67398 0.0
O523 O 0.84139 0.21192 0.61649 0.0
O524 O 0.84864 0.26759 0.63337 0.0
O525 O 0.63278 0.18381 0.40342 0.0
Mn526 Mn 0.60711 0.13927 0.37319 0.0
O527 O 0.68828 0.1898 0.38057 0.0
Mn528 Mn 0.66519 0.17997 0.33907 0.0
O529 O 0.57694 0.09768 0.34378 0.0
O530 O 0.56438 0.14121 0.40814 0.0
Mn531 Mn 0.54641 0.09713 0.41924 0.0
O532 O 0.63018 0.10167 0.40465 0.0
O533 O 0.52838 0.077 0.37825 0.0
O534 O 0.58305 0.17459 0.33903 0.0
O535 O 0.63195 0.21092 0.32312 0.0
O536 O 0.52 0.12704 0.44649 0.0
O537 O 0.58469 0.07443 0.43865 0.0
C538 C 0.68079 0.13505 0.31548 0.0
C539 C 0.66625 0.19828 0.40433 0.0
C540 C 0.54565 0.07885 0.34878 0.0
C541 C 0.54316 0.15207 0.43332 0.0
C542 C 0.61817 0.07843 0.42785 0.0
C543 C 0.59771 0.20143 0.32129 0.0
O544 O 0.65245 0.13263 0.33832 0.0
O545 O 0.69486 0.16671 0.30534 0.0
O546 O 0.58484 0.86872 0.0746 0.0
Mn547 Mn 0.61453 0.89792 0.11455 0.0
O548 O 0.53342 0.8952 0.07611 0.0
Mn549 Mn 0.55718 0.94107 0.07644 0.0
O550 O 0.64901 0.92578 0.15105 0.0
O551 O 0.65147 0.85997 0.11217 0.0
Mn552 Mn 0.65321 0.8427 0.15552 0.0
O553 O 0.58508 0.87171 0.1561 0.0
O554 O 0.66285 0.88074 0.18666 0.0
O555 O 0.6424 0.92923 0.07569 0.0
O556 O 0.59616 0.95123 0.04476 0.0
O557 O 0.68843 0.8203 0.13119 0.0
O558 O 0.60762 0.81883 0.16221 0.0
C559 C 0.55584 0.95855 0.12993 0.0
C560 C 0.55323 0.8731 0.06131 0.0
C561 C 0.66611 0.91372 0.17749 0.0
C562 C 0.67348 0.83512 0.10441 0.0
C563 C 0.58446 0.84089 0.1712 0.0
C564 C 0.63035 0.95039 0.05225 0.0
O565 O 0.57914 0.93718 0.11724 0.0
O566 O 0.53859 0.9751 0.10584 0.0
O567 O 0.40627 0.69738 0.15909 0.0
Mn568 Mn 0.37359 0.671 0.11719 0.0
O569 O 0.38114 0.74848 0.16585 0.0
Mn570 Mn 0.33596 0.72288 0.16368 0.0
O571 O 0.34235 0.63692 0.08066 0.0
O572 O 0.411 0.6345 0.11335 0.0
Mn573 Mn 0.42649 0.63128 0.06901 0.0
O574 O 0.40029 0.70207 0.07469 0.0
O575 O 0.38539 0.62115 0.04148 0.0
O576 O 0.34359 0.64143 0.1568 0.0
O577 O 0.32821 0.68503 0.19459 0.0
O578 O 0.45066 0.59797 0.09316 0.0
O579 O 0.45088 0.67507 0.05934 0.0
C580 C 0.30902 0.731 0.11721 0.0
C581 C 0.40476 0.72792 0.17558 0.0
C582 C 0.35305 0.61687 0.05472 0.0
C583 C 0.43556 0.61262 0.12058 0.0
C584 C 0.43034 0.70074 0.05581 0.0
C585 C 0.32718 0.65196 0.18523 0.0
O586 O 0.33382 0.70739 0.11927 0.0
O587 O 0.29705 0.74421 0.14684 0.0
O588 O 0.13416 0.68552 0.89995 0.0
Mn589 Mn 0.10702 0.63978 0.87336 0.0
O590 O 0.1908 0.68896 0.88123 0.0
Mn591 Mn 0.16559 0.67663 0.84083 0.0
O592 O 0.07358 0.59642 0.84996 0.0
O593 O 0.06468 0.65003 0.90789 0.0
Mn594 Mn 0.0441 0.60788 0.92796 0.0
O595 O 0.12857 0.6045 0.90832 0.0
O596 O 0.02676 0.58094 0.88933 0.0
O597 O 0.08492 0.67222 0.8362 0.0
O598 O 0.13422 0.70883 0.8232 0.0
O599 O 0.06425 0.6507 0.9085 0.0
O600 O 0.08202 0.58123 0.94357 0.0
C601 C 0.17972 0.63217 0.81597 0.0
C602 C 0.16744 0.69925 0.90289 0.0
C603 C 0.0426 0.57855 0.85898 0.0
C604 C 0.05914 0.68192 0.91959 0.0
C605 C 0.11514 0.582 0.93158 0.0
C606 C 0.10018 0.69935 0.81969 0.0
O607 O 0.15164 0.62875 0.83907 0.0
O608 O 0.19472 0.66386 0.80703 0.0
O609 O 0.08432 0.36857 0.57598 0.0
Mn610 Mn 0.11423 0.39763 0.61557 0.0
O611 O 0.03375 0.39709 0.57522 0.0
Mn612 Mn 0.05788 0.44271 0.5772 0.0
O613 O 0.14797 0.42644 0.65175 0.0
O614 O 0.15138 0.35941 0.61348 0.0
Mn615 Mn 0.15355 0.34446 0.65779 0.0
O616 O 0.08406 0.37206 0.65735 0.0
O617 O 0.16661 0.38335 0.6872 0.0
O618 O 0.14258 0.42831 0.57631 0.0
O619 O 0.09751 0.45386 0.54647 0.0
O620 O 0.188 0.32008 0.63503 0.0
O621 O 0.10844 0.3206 0.667 0.0
C622 C 0.05561 0.45674 0.63181 0.0
C623 C 0.05307 0.37345 0.56213 0.0
C624 C 0.16621 0.41628 0.67822 0.0
C625 C 0.1744 0.33483 0.60751 0.0
C626 C 0.08435 0.34227 0.67425 0.0
C627 C 0.13156 0.45061 0.55329 0.0
O628 O 0.07942 0.43693 0.61774 0.0
O629 O 0.03875 0.4749 0.60869 0.0
O630 O 0.64829 0.68869 0.5921 0.0
Mn631 Mn 0.61772 0.64804 0.62162 0.0
O632 O 0.70189 0.69753 0.61945 0.0
Mn633 Mn 0.67622 0.68677 0.66025 0.0
O634 O 0.58403 0.61198 0.65309 0.0
O635 O 0.57682 0.65262 0.58398 0.0
Mn636 Mn 0.56347 0.60571 0.57686 0.0
O637 O 0.64105 0.60837 0.59206 0.0
O638 O 0.5465 0.58064 0.61559 0.0
O639 O 0.59378 0.68578 0.65404 0.0
O640 O 0.64297 0.71891 0.67387 0.0
O641 O 0.52836 0.62676 0.5539 0.0
O642 O 0.60061 0.58629 0.55166 0.0
C643 C 0.68797 0.63879 0.67996 0.0
C644 C 0.68145 0.70382 0.5937 0.0
C645 C 0.55547 0.59026 0.64673 0.0
C646 C 0.55076 0.65529 0.56019 0.0
C647 C 0.63257 0.58803 0.56527 0.0
C648 C 0.60839 0.71129 0.67365 0.0
O649 O 0.66118 0.64014 0.65642 0.0
O650 O 0.6995 0.66859 0.69633 0.0
O651 O 0.33233 0.36784 0.39856 0.0
Mn652 Mn 0.36429 0.41007 0.37339 0.0
O653 O 0.28439 0.34872 0.36359 0.0
Mn654 Mn 0.3089 0.36726 0.32381 0.0
O655 O 0.39892 0.45083 0.34852 0.0
O656 O 0.40369 0.40362 0.41116 0.0
Mn657 Mn 0.42125 0.44772 0.4296 0.0
O658 O 0.33966 0.45006 0.40282 0.0
O659 O 0.4397 0.47332 0.39052 0.0
O660 O 0.39098 0.37287 0.34228 0.0
O661 O 0.34729 0.34084 0.31124 0.0
O662 O 0.40412 0.40292 0.41188 0.0
O663 O 0.3808 0.47165 0.44399 0.0
C664 C 0.30619 0.42442 0.31152 0.0
C665 C 0.3022 0.34788 0.39258 0.0
C666 C 0.4277 0.47128 0.35867 0.0
C667 C 0.40862 0.37226 0.42402 0.0
C668 C 0.35016 0.47249 0.42775 0.0
C669 C 0.38058 0.34734 0.32055 0.0
O670 O 0.32205 0.41205 0.33883 0.0
O671 O 0.29625 0.39863 0.28928 0.0
C672 C 0.05234 0.21447 0.26171 0.0
C673 C 0.05642 0.25169 0.26945 0.0
C674 C 0.06809 0.20091 0.23075 0.0
C675 C 0.08647 0.22428 0.20595 0.0
H676 H 0.03884 0.19566 0.28053 0.0
H677 H 0.06852 0.17186 0.22757 0.0
S678 S 0.10132 0.32429 0.21268 0.0
N679 N 0.07819 0.31209 0.24923 0.0
N680 N 0.1068 0.28628 0.19045 0.0
C681 C 0.08912 0.26167 0.21265 0.0
C682 C 0.07404 0.27547 0.2445 0.0
C683 C 0.0674 0.82249 0.51959 0.0
C684 C 0.0356 0.82886 0.53948 0.0
C685 C 0.06968 0.83167 0.48351 0.0
C686 C 0.03988 0.84645 0.46651 0.0
H687 H 0.09121 0.81252 0.53234 0.0
H688 H 0.09599 0.83038 0.46997 0.0
S689 S 0.94847 0.86207 0.50651 0.0
N690 N 0.97287 0.84771 0.53948 0.0
N691 N 0.97587 0.86153 0.47123 0.0
C692 C 0.00666 0.84897 0.48556 0.0
C693 C 0.00498 0.84136 0.5223 0.0
C694 C 0.41299 0.86154 0.77672 0.0
C695 C 0.45144 0.86262 0.7717 0.0
C696 C 0.3894 0.86225 0.74811 0.0
C697 C 0.40308 0.86463 0.71302 0.0
H698 H 0.40069 0.85725 0.80289 0.0
H699 H 0.35985 0.85928 0.75372 0.0
S700 S 0.502 0.87612 0.68623 0.0
N701 N 0.50295 0.87226 0.7299 0.0
N702 N 0.45773 0.87385 0.67514 0.0
C703 C 0.44159 0.87002 0.70769 0.0
C704 C 0.46605 0.86913 0.73736 0.0
C705 C 0.40987 0.2518 0.01416 0.0
C706 C 0.42001 0.23294 0.04441 0.0
C707 C 0.41067 0.2358 0.98026 0.0
C708 C 0.4219 0.20064 0.97554 0.0
H709 H 0.40308 0.27971 0.01634 0.0
H710 H 0.40337 0.25133 0.95758 0.0
S711 S 0.44387 0.13735 0.04717 0.0
N712 N 0.43594 0.17539 0.06804 0.0
N713 N 0.43828 0.14556 0.00475 0.0
C714 C 0.42963 0.18069 0.00598 0.0
C715 C 0.42822 0.19671 0.04031 0.0
C716 C 0.01007 0.84823 0.23677 0.0
C717 C 0.02868 0.83348 0.20752 0.0
C718 C 0.02522 0.849 0.27097 0.0
C719 C 0.05939 0.83494 0.27718 0.0
H720 H -0.01719 0.85781 0.2336 0.0
H721 H 0.00962 0.85967 0.29278 0.0
S722 S 0.12278 0.80008 0.20847 0.0
N723 N 0.08579 0.80962 0.18635 0.0
N724 N 0.11397 0.8106 0.25017 0.0
C725 C 0.07949 0.82254 0.24766 0.0
C726 C 0.06434 0.82219 0.21294 0.0
C727 C 0.46173 0.82472 0.50157 0.0
C728 C 0.45223 0.83623 0.46755 0.0
C729 C 0.45352 0.84505 0.53212 0.0
C730 C 0.43544 0.877 0.52893 0.0
H731 H 0.47742 0.80121 0.50431 0.0
H732 H 0.46316 0.83699 0.55775 0.0
S733 S 0.40241 0.91604 0.44546 0.0
N734 N 0.42318 0.88004 0.43244 0.0
N735 N 0.40502 0.91675 0.48912 0.0
C736 C 0.42373 0.88693 0.49494 0.0
C737 C 0.43301 0.86702 0.46432 0.0
C738 C 0.45639 0.23586 0.73418 0.0
C739 C 0.43352 0.2212 0.70646 0.0
C740 C 0.44611 0.23051 0.76999 0.0
C741 C 0.41337 0.20942 0.77873 0.0
H742 H 0.48028 0.25452 0.72822 0.0
H743 H 0.46213 0.24508 0.79055 0.0
S744 S 0.34709 0.16108 0.71641 0.0
N745 N 0.37878 0.18228 0.69048 0.0
N746 N 0.36064 0.1705 0.75743 0.0
C747 C 0.39262 0.19162 0.75132 0.0
C748 C 0.40236 0.19793 0.71518 0.0
C749 C 0.06845 0.24489 -0.00042 0.0
C750 C 0.06948 0.22692 0.96636 0.0
C751 C 0.06798 0.22532 0.03143 0.0
C752 C 0.07108 0.18778 0.0309 0.0
H753 H 0.0637 0.27342 0.00094 0.0
H754 H 0.06234 0.23909 0.05621 0.0
S755 S 0.07713 0.12896 0.95072 0.0
N756 N 0.07487 0.17011 0.93492 0.0
N757 N 0.0773 0.13388 -0.00567 0.0
C758 C 0.07575 0.17038 -0.00222 0.0
C759 C 0.07437 0.18986 0.9656 0.0
C760 C 0.24465 0.05463 0.15792 0.0
C761 C 0.26279 0.0523 0.19063 0.0
C762 C 0.21572 0.07777 0.15418 0.0
C763 C 0.20392 0.09854 0.18306 0.0
H764 H 0.25467 0.04077 0.13472 0.0
H765 H 0.2052 0.08226 0.12804 0.0
S766 S 0.2353 0.09337 0.27626 0.0
N767 N 0.26147 0.06647 0.25377 0.0
N768 N 0.2074 0.10916 0.2468 0.0
C769 C 0.21841 0.09216 0.21673 0.0
C770 C 0.24793 0.06937 0.22044 0.0
C771 C 0.17461 0.0402 0.41383 0.0
C772 C 0.18708 0.05192 0.44727 0.0
C773 C 0.15885 0.005 0.40883 0.0
C774 C 0.1564 0.9798 0.43649 0.0
H775 H 0.1757 0.05873 0.39171 0.0
H776 H 0.14533 -0.00162 0.38379 0.0
S777 S 0.18266 -0.00204 0.53006 0.0
N778 N 0.19468 0.03639 0.50947 0.0
N779 N 0.16484 0.96961 0.49928 0.0
C780 C 0.16856 -0.00888 0.47026 0.0
C781 C 0.18415 0.02734 0.47575 0.0
C782 C 0.20479 0.95067 0.65655 0.0
C783 C 0.20354 -0.01209 0.663 0.0
C784 C 0.2384 0.93531 0.65448 0.0
C785 C 0.27212 0.95669 0.65754 0.0
H786 H 0.17959 0.93263 0.6571 0.0
H787 H 0.23786 0.90603 0.65212 0.0
S788 S 0.28368 0.05715 0.65577 0.0
N789 N 0.23834 0.04728 0.65991 0.0
N790 N 0.30256 0.01788 0.65505 0.0
C791 C 0.27155 -0.00538 0.6572 0.0
C792 C 0.23681 0.01047 0.65979 0.0
C793 C 0.25779 0.03753 0.95661 0.0
C794 C 0.27179 0.00383 0.94879 0.0
C795 C 0.27899 0.07039 0.94914 0.0
C796 C 0.31437 0.06987 0.93347 0.0
H797 H 0.23161 0.03843 0.97072 0.0
H798 H 0.26873 0.09587 0.95746 0.0
S799 S 0.36072 -0.01183 0.90417 0.0
N800 N 0.32128 0.97192 0.92247 0.0
N801 N 0.36019 0.03265 0.90663 0.0
C802 C 0.32691 0.03605 0.9231 0.0
C803 C 0.30591 0.00322 0.93131 0.0
C804 C 0.23937 0.92821 0.2537 0.0
C805 C 0.26118 0.95169 0.2761 0.0
C806 C 0.20176 0.92019 0.26089 0.0
C807 C 0.18543 0.9337 0.29193 0.0
H808 H 0.25162 0.9146 0.2314 0.0
H809 H 0.18685 0.89923 0.24501 0.0
S810 S 0.22791 0.00562 0.35127 0.0
N811 N 0.26179 -0.00402 0.32419 0.0
N812 N 0.19119 0.97912 0.33886 0.0
C813 C 0.20547 0.96147 0.31091 0.0
C814 C 0.24366 0.97038 0.30314 0.0
C815 C 0.2869 0.03485 0.5602 0.0
C816 C 0.30458 0.06469 0.54203 0.0
C817 C 0.30782 0.00675 0.57186 0.0
C818 C 0.34602 0.00772 0.56404 0.0
H819 H 0.25729 0.03332 0.56532 0.0
H820 H 0.29452 0.985 0.58749 0.0
S821 S 0.40232 0.07662 0.51155 0.0
N822 N 0.36153 0.09284 0.51658 0.0
N823 N 0.3978 0.03638 0.53004 0.0
C824 C 0.36193 0.03501 0.54171 0.0
C825 C 0.3423 0.06497 0.53379 0.0
C826 C 0.20692 0.10257 0.82364 0.0
C827 C 0.20641 0.07731 0.79582 0.0
C828 C 0.24049 0.12049 0.83427 0.0
C829 C 0.27413 0.11422 0.8168 0.0
H830 H 0.18131 0.10951 0.83619 0.0
H831 H 0.23987 0.14129 0.85478 0.0
S832 S 0.28677 0.04706 0.74543 0.0
N833 N 0.24163 0.04379 0.75336 0.0
N834 N 0.30509 0.07867 0.77285 0.0
C835 C 0.27408 0.08737 0.79047 0.0
C836 C 0.23991 0.06873 0.77996 0.0
C837 C 0.13518 -0.01344 0.06309 0.0
C838 C 0.17372 -0.01467 0.06296 0.0
C839 C 0.11945 0.01941 0.06184 0.0
C840 C 0.14163 0.05243 0.061 0.0
H841 H 0.11695 0.96178 0.06297 0.0
H842 H 0.08944 0.01876 0.06274 0.0
S843 S 0.2443 0.06406 0.0567 0.0
N844 N 0.23421 0.0198 0.05958 0.0
N845 N 0.20406 0.08222 0.0576 0.0
C846 C 0.18034 0.05187 0.06038 0.0
C847 C 0.19655 0.01814 0.06162 0.0
C848 C 0.1604 0.29487 0.05127 0.0
C849 C 0.19577 0.31319 0.05061 0.0
C850 C 0.15576 0.25897 0.06291 0.0
C851 C 0.18628 0.24041 0.07332 0.0
H852 H 0.13625 0.30884 0.04469 0.0
H853 H 0.12795 0.24687 0.067 0.0
S854 S 0.2848 0.27677 0.07343 0.0
N855 N 0.26175 0.31077 0.06023 0.0
N856 N 0.25323 0.24251 0.07959 0.0
C857 C 0.22194 0.25808 0.07053 0.0
C858 C 0.22655 0.29479 0.05992 0.0
C859 C 0.70868 0.26525 0.91698 0.0
C860 C 0.67983 0.24542 0.93544 0.0
C861 C 0.70524 0.30101 0.90738 0.0
C862 C 0.67101 0.31579 0.912 0.0
H863 H 0.73366 0.25291 0.90896 0.0
H864 H 0.72608 0.31381 0.88965 0.0
S865 S 0.59809 0.28354 0.976 0.0
N866 N 0.62445 0.24942 0.97182 0.0
N867 N 0.6165 0.31605 0.94997 0.0
C868 C 0.64638 0.29997 0.93733 0.0
C869 C 0.65046 0.26406 0.9488 0.0
C870 C 0.0335 0.45375 0.18616 0.0
C871 C 0.02991 0.47246 0.21832 0.0
C872 C 0.00337 0.44764 0.1636 0.0
C873 C 0.96878 0.46062 0.17209 0.0
H874 H 0.06035 0.44591 0.17734 0.0
H875 H 0.00775 0.43398 0.13846 0.0
S876 S 0.94462 0.50733 0.25566 0.0
N877 N -0.01104 0.50065 0.25977 0.0
N878 N 0.93186 0.49002 0.21654 0.0
C879 C 0.96418 0.47725 0.20535 0.0
C880 C -0.00505 0.48287 0.22874 0.0
C881 C 0.76747 0.78562 0.45042 0.0
C882 C 0.79858 0.80983 0.45751 0.0
C883 C 0.77118 0.75291 0.43218 0.0
C884 C 0.80613 0.74341 0.42043 0.0
H885 H 0.73989 0.79285 0.45755 0.0
H886 H 0.74625 0.73667 0.42423 0.0
S887 S 0.89595 0.79777 0.43304 0.0
N888 N 0.86527 0.82192 0.45305 0.0
N889 N 0.8724 0.76067 0.41794 0.0
C890 C 0.83764 0.76646 0.42945 0.0
C891 C 0.83381 0.79982 0.44806 0.0
C892 C -0.01052 0.02808 0.19307 0.0
C893 C 0.96432 0.05049 0.20898 0.0
C894 C 0.02321 0.04256 0.17895 0.0
C895 C 0.03227 0.08011 0.1794 0.0
H896 H 0.98171 -0.00058 0.18897 0.0
H897 H 0.04001 0.0248 0.1638 0.0
S898 S 0.97555 0.15026 0.21739 0.0
N899 N 0.95125 0.11152 0.22608 0.0
N900 N 0.01358 0.13926 0.19672 0.0
C901 C 0.00829 0.10253 0.19704 0.0
C902 C 0.97431 0.08762 0.21239 0.0
C903 C 0.29986 0.78898 0.51179 0.0
C904 C 0.29688 0.75501 0.5287 0.0
C905 C 0.30932 0.82137 0.53113 0.0
C906 C 0.31647 0.8203 0.56768 0.0
H907 H 0.29248 0.79072 0.48412 0.0
H908 H 0.3091 0.84719 0.51795 0.0
S909 S 0.32045 0.73711 0.62198 0.0
N910 N 0.30717 0.7219 0.5824 0.0
N911 N 0.32611 0.78161 0.61837 0.0
C912 C 0.31707 0.78593 0.58374 0.0
C913 C 0.30701 0.75355 0.56435 0.0
C914 C 0.03322 0.63497 0.33121 0.0
C915 C 0.03279 0.61876 0.29742 0.0
C916 C 0.00012 0.6422 0.34821 0.0
C917 C 0.96564 0.63026 0.33325 0.0
H918 H 0.05886 0.63883 0.34594 0.0
H919 H 0.00153 0.65074 0.37586 0.0
S920 S 0.95033 0.60075 0.24014 0.0
N921 N -0.00411 0.60304 0.24481 0.0
N922 N 0.9331 0.61244 0.27907 0.0
C923 C 0.96497 0.62002 0.2974 0.0
C924 C -0.00108 0.61483 0.27903 0.0
C925 C 0.45175 0.42352 0.8336 0.0
C926 C 0.45072 0.4388 0.80001 0.0
C927 C 0.48574 0.4205 0.8496 0.0
C928 C 0.51872 0.43534 0.83339 0.0
H929 H 0.42638 0.41528 0.84794 0.0
H930 H 0.48575 0.41132 0.87681 0.0
S931 S 0.53077 0.46834 0.74175 0.0
N932 N 0.48549 0.461 0.74756 0.0
N933 N 0.5495 0.45773 0.77967 0.0
C934 C 0.5184 0.44651 0.79835 0.0
C935 C 0.48404 0.44832 0.78133 0.0
C936 C 0.94882 0.81122 0.75639 0.0
C937 C 0.9299 0.81569 0.72449 0.0
C938 C 0.93459 0.82301 0.78891 0.0
C939 C 0.90153 0.84009 0.78966 0.0
H940 H 0.97415 0.79772 0.75622 0.0
H941 H 0.94857 0.81759 0.81333 0.0
S942 S 0.84466 0.86235 0.71231 0.0
N943 N 0.87849 0.84025 0.69501 0.0
N944 N 0.85254 0.86461 0.75538 0.0
C945 C 0.88391 0.84681 0.75733 0.0
C946 C 0.89781 0.83391 0.72478 0.0
C947 C 0.91904 0.26521 0.48005 0.0
C948 C 0.94046 0.2542 0.45103 0.0
C949 C 0.91792 0.24659 0.51228 0.0
C950 C 0.93734 0.21562 0.51662 0.0
H951 H 0.90373 0.28907 0.47827 0.0
H952 H 0.90161 0.25653 0.53396 0.0
S953 S -0.00292 0.17503 0.44804 0.0
N954 N 0.98146 0.21029 0.42842 0.0
N955 N 0.97906 0.1748 0.48846 0.0
C956 C 0.95903 0.20432 0.48761 0.0
C957 C 0.96043 0.22356 0.45494 0.0
C958 C 0.58295 0.21589 0.22389 0.0
C959 C 0.54859 0.23042 0.22312 0.0
C960 C 0.59821 0.20697 0.25623 0.0
C961 C 0.57966 0.21238 0.28881 0.0
H962 H 0.59802 0.21132 0.19945 0.0
H963 H 0.62474 0.19531 0.25572 0.0
S964 S 0.49017 0.25297 0.30052 0.0
N965 N 0.49713 0.2521 0.25708 0.0
N966 N 0.52597 0.23496 0.31822 0.0
C967 C 0.54542 0.22739 0.28837 0.0
C968 C 0.5299 0.23663 0.25533 0.0
C969 C 0.56771 0.84511 0.96512 0.0
C970 C 0.54756 0.86989 0.94678 0.0
C971 C 0.56983 0.84635 0.00231 0.0
C972 C 0.55137 0.87199 0.02209 0.0
H973 H 0.57914 0.82281 0.95105 0.0
H974 H 0.58453 0.82618 0.0157 0.0
S975 S 0.50235 0.94786 -0.01507 0.0
N976 N 0.51571 0.92491 0.94997 0.0
N977 N 0.51701 0.92635 0.01943 0.0
C978 C 0.53404 0.89892 0.00341 0.0
C979 C 0.53327 0.89833 0.96583 0.0
C980 C 0.96777 0.26673 0.74714 0.0
C981 C 0.95633 0.24856 0.77859 0.0
C982 C 0.95905 0.25178 0.71346 0.0
C983 C 0.93805 0.21828 0.7099 0.0
H984 H -0.01769 0.29349 0.74854 0.0
H985 H 0.96528 0.26835 0.69029 0.0
S986 S 0.9004 0.16037 0.78386 0.0
N987 N 0.92333 0.19516 0.80398 0.0
N988 N 0.90633 0.1673 0.74086 0.0
C989 C 0.92834 0.19895 0.74121 0.0
C990 C 0.93727 0.21414 0.77549 0.0
C991 C 0.52365 0.23015 0.48878 0.0
C992 C 0.54013 0.22068 0.52062 0.0
C993 C 0.53004 0.21138 0.45712 0.0
C994 C 0.55319 0.18284 0.45661 0.0
H995 H 0.50384 0.2506 0.48887 0.0
H996 H 0.51383 0.21664 0.43398 0.0
S997 S 0.60357 0.14866 0.53279 0.0
N998 N 0.58126 0.18218 0.54973 0.0
N999 N 0.59414 0.1473 0.48995 0.0
C1000 C 0.57222 0.17531 0.48772 0.0
C1001 C 0.5652 0.19396 0.52003 0.0
C1002 C 0.58042 0.86951 0.2674 0.0
C1003 C 0.56857 0.83692 0.2843 0.0
C1004 C 0.58326 0.87107 0.2304 0.0
C1005 C 0.57439 0.84005 0.20902 0.0
H1006 H 0.58599 0.89427 0.28281 0.0
H1007 H 0.593 0.89671 0.21858 0.0
S1008 S 0.54597 0.74754 0.2401 0.0
N1009 N 0.5506 0.77224 0.27684 0.0
N1010 N 0.55617 0.77567 0.20717 0.0
C1011 C 0.56424 0.80709 0.2256 0.0
C1012 C 0.56157 0.80532 0.26326 0.0
C1013 C 0.9772 0.84634 -0.00047 0.0
C1014 C 0.94882 0.83324 0.02278 0.0
C1015 C 0.96912 0.8629 0.96779 0.0
C1016 C 0.93253 0.86937 0.9595 0.0
H1017 H 0.00602 0.84509 0.00651 0.0
H1018 H -0.00796 0.87482 0.95189 0.0
S1019 S 0.84824 0.84135 0.01218 0.0
N1020 N 0.88245 0.82564 0.03445 0.0
N1021 N 0.86764 0.8616 0.97701 0.0
C1022 C 0.90371 0.85529 0.98182 0.0
C1023 C 0.91181 0.83644 0.01323 0.0
C1024 C 0.71257 0.95459 0.8333 0.0
C1025 C 0.71555 -0.01391 0.81299 0.0
C1026 C 0.74387 0.93585 0.83946 0.0
C1027 C 0.77866 0.94736 0.82434 0.0
H1028 H 0.68556 0.9425 0.84148 0.0
H1029 H 0.73983 0.90972 0.85227 0.0
S1030 S 0.80155 0.03171 0.77448 0.0
N1031 N 0.75653 0.03127 0.78265 0.0
N1032 N 0.81523 -0.00523 0.79285 0.0
C1033 C 0.78267 0.98078 0.80732 0.0
C1034 C 0.75094 0.00039 0.80179 0.0
C1035 C 0.809 0.02047 0.55964 0.0
C1036 C 0.79839 0.01328 0.52436 0.0
C1037 C 0.81881 0.05596 0.57153 0.0
C1038 C 0.81865 0.08573 0.54858 0.0
H1039 H 0.81115 -0.00167 0.57789 0.0
H1040 H 0.83009 0.05973 0.598 0.0
S1041 S 0.78674 0.08178 0.45527 0.0
N1042 N 0.78315 0.03897 0.46782 0.0
N1043 N 0.80328 0.1058 0.48979 0.0
C1044 C 0.80596 0.07904 0.51376 0.0
C1045 C 0.79555 0.0428 0.5017 0.0
C1046 C 0.74664 0.06329 0.33228 0.0
C1047 C 0.77167 0.06883 0.30342 0.0
C1048 C 0.71375 0.08142 0.3345 0.0
C1049 C 0.70441 0.10498 0.30752 0.0
H1050 H 0.75311 0.04587 0.35386 0.0
H1051 H 0.69706 0.07896 0.35854 0.0
S1052 S 0.75679 0.12401 0.22357 0.0
N1053 N 0.78218 0.09701 0.24558 0.0
N1054 N 0.72011 0.12885 0.249 0.0
C1055 C 0.7274 0.10789 0.27714 0.0
C1056 C 0.76118 0.09067 0.27539 0.0
C1057 C 0.68143 0.03273 0.01147 0.0
C1058 C 0.67705 0.0592 0.03806 0.0
C1059 C 0.66806 -0.00354 0.01644 0.0
C1060 C 0.65062 -0.01411 0.04844 0.0
H1061 H 0.69611 0.04 -0.01288 0.0
H1062 H 0.67112 0.97682 -0.00474 0.0
S1063 S 0.6268 0.04608 0.12348 0.0
N1064 N 0.65021 0.07334 0.09528 0.0
N1065 N 0.62577 0.0052 0.10525 0.0
C1066 C 0.64492 0.01247 0.07458 0.0
C1067 C 0.658 0.04922 0.06928 0.0
C1068 C 0.74412 0.10839 0.72907 0.0
C1069 C 0.71815 0.09692 0.70284 0.0
C1070 C 0.77849 0.12602 0.71958 0.0
C1071 C 0.78771 0.13179 0.6837 0.0
H1072 H 0.7381 0.1032 0.75687 0.0
H1073 H 0.79748 0.13596 0.74024 0.0
S1074 S 0.72754 0.11155 0.60596 0.0
N1075 N 0.70255 0.09589 0.64024 0.0
N1076 N 0.76756 0.12815 0.62249 0.0
C1077 C 0.76179 0.12106 0.65754 0.0
C1078 C 0.72678 0.10389 0.66712 0.0
C1079 C 0.68093 0.01399 0.46692 0.0
C1080 C 0.67114 0.9822 0.44699 0.0
C1081 C 0.66513 0.04632 0.45986 0.0
C1082 C 0.63925 0.04727 0.4327 0.0
H1083 H 0.70082 0.01372 0.48824 0.0
H1084 H 0.67237 0.07017 0.47613 0.0
S1085 S 0.60502 0.97196 0.37272 0.0
N1086 N 0.63491 0.95391 0.39876 0.0
N1087 N 0.60482 0.01484 0.38542 0.0
C1088 C 0.62996 0.01599 0.41209 0.0
C1089 C 0.64609 0.98323 0.4192 0.0
C1090 C 0.76605 0.91935 0.19699 0.0
C1091 C 0.76952 0.94828 0.22096 0.0
C1092 C 0.73266 0.91125 0.17987 0.0
C1093 C 0.70183 0.93129 0.18716 0.0
H1094 H 0.789 0.90291 0.19171 0.0
H1095 H 0.73014 0.88767 0.16237 0.0
S1096 S 0.7008 0.01395 0.24291 0.0
N1097 N 0.743 0.00066 0.24725 0.0
N1098 N 0.67864 0.98408 0.21595 0.0
C1099 C 0.70599 0.9619 0.20914 0.0
C1100 C 0.7404 0.97058 0.2261 0.0
C1101 C 0.83611 0.07087 0.9408 0.0
C1102 C 0.79794 0.07376 0.94019 0.0
C1103 C 0.85035 0.03765 0.9346 0.0
C1104 C 0.82685 0.00588 0.9284 0.0
H1105 H 0.85492 0.09398 0.9483 0.0
H1106 H 0.88015 0.03665 0.93621 0.0
S1107 S 0.72498 0.00082 0.91794 0.0
N1108 N 0.73687 0.04392 0.92762 0.0
N1109 N 0.76397 0.9804 0.91691 0.0
C1110 C 0.78881 0.00898 0.9243 0.0
C1111 C 0.77423 0.04331 0.9301 0.0
C1112 C 0.74829 0.76618 0.92969 0.0
C1113 C 0.77532 0.74359 0.94034 0.0
C1114 C 0.75808 0.80158 0.9189 0.0
C1115 C 0.79538 0.81562 0.91751 0.0
H1116 H 0.71914 0.75669 0.9301 0.0
H1117 H 0.73622 0.81774 0.91036 0.0
S1118 S 0.87726 0.76569 0.93878 0.0
N1119 N 0.84116 0.73686 0.94781 0.0
N1120 N 0.85989 0.8027 0.92448 0.0
C1121 C 0.82293 0.79294 0.92728 0.0
C1122 C 0.81282 0.75704 0.93933 0.0
C1123 C 0.26985 0.78693 0.04785 0.0
C1124 C 0.29412 0.81862 0.05033 0.0
C1125 C 0.27678 0.75581 0.06671 0.0
C1126 C 0.30865 0.75554 0.08752 0.0
H1127 H 0.24514 0.78646 0.03176 0.0
H1128 H 0.25632 0.73269 0.06651 0.0
S1129 S 0.37752 0.83325 0.10623 0.0
N1130 N 0.34832 0.84923 0.07812 0.0
N1131 N 0.36309 0.79011 0.11122 0.0
C1132 C 0.33309 0.78705 0.08966 0.0
C1133 C 0.32527 0.81893 0.07179 0.0
C1134 C 0.97285 0.50664 0.82614 0.0
C1135 C 0.95498 0.52445 0.79917 0.0
C1136 C 0.00453 0.52278 0.8427 0.0
C1137 C 0.02015 0.55718 0.83268 0.0
H1138 H 0.9616 0.48041 0.83558 0.0
H1139 H 0.01559 0.50919 0.8651 0.0
S1140 S -0.01296 0.61418 0.76139 0.0
N1141 N 0.95702 0.57795 0.76173 0.0
N1142 N 0.01749 0.60766 0.79257 0.0
C1143 C 0.00417 0.57451 0.80442 0.0
C1144 C 0.9712 0.55847 0.78795 0.0
C1145 C 0.1556 0.25147 0.55868 0.0
C1146 C 0.19187 0.24585 0.54792 0.0
C1147 C 0.14733 0.2855 0.57175 0.0
C1148 C 0.17524 0.31425 0.57459 0.0
H1149 H 0.13444 0.22899 0.55966 0.0
H1150 H 0.12045 0.2878 0.5842 0.0
S1151 S 0.27095 0.31569 0.53896 0.0
N1152 N 0.25314 0.27364 0.53223 0.0
N1153 N 0.23767 0.33723 0.55815 0.0
C1154 C 0.20985 0.3102 0.55896 0.0
C1155 C 0.21829 0.27582 0.54557 0.0
C1156 C -0.01123 -0.01022 0.77475 0.0
C1157 C 0.01857 0.01311 0.78751 0.0
C1158 C 0.95838 0.97859 0.79688 0.0
C1159 C 0.95691 -0.00981 0.83261 0.0
H1160 H -0.01088 0.97977 0.74763 0.0
H1161 H 0.93671 0.95965 0.7863 0.0
S1162 S 0.02928 0.05114 0.87874 0.0
N1163 N 0.04531 0.04686 0.83795 0.0
N1164 N -0.01131 0.02734 0.8792 0.0
C1165 C -0.01347 0.01443 0.84519 0.0
C1166 C 0.01726 0.02539 0.8228 0.0
C1167 C 0.65686 0.29085 0.44735 0.0
C1168 C 0.69151 0.30936 0.439 0.0
C1169 C 0.64911 0.25393 0.43834 0.0
C1170 C 0.67616 0.23409 0.42166 0.0
H1171 H 0.63567 0.30484 0.46107 0.0
H1172 H 0.62162 0.24117 0.44375 0.0
S1173 S 0.77162 0.27026 0.39462 0.0
N1174 N 0.75224 0.30538 0.41147 0.0
N1175 N 0.73995 0.23598 0.39898 0.0
C1176 C 0.71139 0.25234 0.41451 0.0
C1177 C 0.71834 0.28997 0.4217 0.0
C1178 C 0.97311 0.40971 0.66882 0.0
C1179 C 0.95816 0.4393 0.68566 0.0
C1180 C 0.0102 0.41236 0.65745 0.0
C1181 C 0.03306 0.44476 0.66229 0.0
H1182 H 0.95561 0.38528 0.66267 0.0
H1183 H 0.01932 0.39065 0.64094 0.0
S1184 S 0.01081 0.52477 0.71483 0.0
N1185 N 0.97165 0.49845 0.71404 0.0
N1186 N 0.04136 0.5027 0.69237 0.0
C1187 C 0.02011 0.4719 0.6838 0.0
C1188 C -0.01762 0.46967 0.69499 0.0
C1189 C 0.49949 0.57776 0.17934 0.0
C1190 C 0.52975 0.60333 0.17277 0.0
C1191 C 0.46379 0.5845 0.16935 0.0
C1192 C 0.45781 0.61669 0.15213 0.0
H1193 H 0.50375 0.55158 0.19052 0.0
H1194 H 0.44201 0.56256 0.17059 0.0
S1195 S 0.52619 0.69513 0.13629 0.0
N1196 N 0.55053 0.66422 0.15414 0.0
N1197 N 0.48286 0.67712 0.13535 0.0
C1198 C 0.48665 0.64459 0.1507 0.0
C1199 C 0.52317 0.63759 0.16045 0.0
C1200 C 0.59292 0.74543 0.76629 0.0
C1201 C 0.55444 0.74107 0.77091 0.0
C1202 C 0.60921 0.73797 0.73391 0.0
C1203 C 0.58796 0.72465 0.70462 0.0
H1204 H 0.61083 0.75558 0.78771 0.0
H1205 H 0.6392 0.74182 0.73254 0.0
S1206 S 0.48546 0.70839 0.70289 0.0
N1207 N 0.4947 0.72334 0.74363 0.0
N1208 N 0.52601 0.7073 0.68242 0.0
C1209 C 0.54924 0.71952 0.70886 0.0
C1210 C 0.53235 0.72796 0.74211 0.0
C1211 C 0.52234 0.31624 0.01205 0.0
C1212 C 0.53341 0.3388 0.04117 0.0
C1213 C 0.52569 0.32921 0.97711 0.0
C1214 C 0.54012 0.36493 0.97087 0.0
H1215 H 0.50882 0.28939 0.0164 0.0
H1216 H 0.51601 0.31178 0.95522 0.0
S1217 S 0.5737 0.43372 0.03823 0.0
N1218 N 0.56057 0.39732 0.06136 0.0
N1219 N 0.56657 0.42202 -0.00369 0.0
C1220 C 0.55259 0.38695 -0.00022 0.0
C1221 C 0.54954 0.37371 0.03483 0.0
C1222 C 0.9548 0.38368 0.24587 0.0
C1223 C 0.95869 0.35022 0.26188 0.0
C1224 C 0.93154 0.38552 0.21643 0.0
C1225 C 0.9127 0.35411 0.20198 0.0
H1226 H 0.96611 0.40862 0.25845 0.0
H1227 H 0.92406 0.41172 0.20831 0.0
S1228 S 0.91898 0.25973 0.23159 0.0
N1229 N 0.94619 0.28474 0.25878 0.0
N1230 N 0.90285 0.28843 0.20353 0.0
C1231 C 0.92002 0.32031 0.21546 0.0
C1232 C 0.94313 0.31836 0.24543 0.0
C1233 C 0.94444 0.75173 0.50856 0.0
C1234 C 0.92782 0.73646 0.53957 0.0
C1235 C 0.94188 0.73327 0.47586 0.0
C1236 C 0.92216 0.69923 0.47333 0.0
H1237 H 0.96123 0.77722 0.5099 0.0
H1238 H 0.95624 0.74511 0.45287 0.0
S1239 S 0.86972 0.64947 0.54513 0.0
N1240 N 0.88877 0.68651 0.56486 0.0
N1241 N 0.88287 0.65225 0.50306 0.0
C1242 C 0.90385 0.68449 0.50359 0.0
C1243 C 0.90692 0.70298 0.5369 0.0
C1244 C 0.56296 0.32183 0.71821 0.0
C1245 C 0.52898 0.33362 0.70729 0.0
C1246 C 0.57241 0.32249 0.75422 0.0
C1247 C 0.54816 0.33471 0.78066 0.0
H1248 H 0.58166 0.31056 0.69917 0.0
H1249 H 0.59887 0.31306 0.7614 0.0
S1250 S 0.45404 0.36239 0.76613 0.0
N1251 N 0.47079 0.35666 0.72596 0.0
N1252 N 0.4877 0.35481 0.79361 0.0
C1253 C 0.51436 0.3463 0.77012 0.0
C1254 C 0.50511 0.34667 0.73346 0.0
C1255 C -0.01423 0.36173 -0.01292 0.0
C1256 C 0.96351 0.33105 0.97525 0.0
C1257 C 0.97853 0.37854 0.01936 0.0
C1258 C 0.94796 0.36612 0.04057 0.0
H1259 H 0.00808 0.37399 0.97069 0.0
H1260 H -0.00556 0.40387 0.02581 0.0
S1261 S 0.88736 0.28194 0.02648 0.0
N1262 N 0.91463 0.28458 -0.00904 0.0
N1263 N 0.89998 0.31782 0.0514 0.0
C1264 C 0.9283 0.33326 0.03137 0.0
C1265 C 0.93606 0.31552 -0.00149 0.0
C1266 C 0.94864 0.71178 0.23161 0.0
C1267 C 0.9217 0.722 0.20765 0.0
C1268 C 0.94147 0.71075 0.26844 0.0
C1269 C 0.90777 0.72136 0.28237 0.0
H1270 H 0.97574 0.70555 0.22195 0.0
H1271 H 0.96269 0.70268 0.28609 0.0
S1272 S 0.82671 0.74663 0.23056 0.0
N1273 N 0.85844 0.73858 0.20053 0.0
N1274 N 0.84622 0.7398 0.2689 0.0
C1275 C 0.88028 0.73033 0.25841 0.0
C1276 C 0.88687 0.72968 0.22127 0.0
C1277 C 0.55426 0.73926 0.50253 0.0
C1278 C 0.55374 0.72342 0.46816 0.0
C1279 C 0.55558 0.71772 0.53308 0.0
C1280 C 0.55619 0.67995 0.52977 0.0
H1281 H 0.55178 0.76809 0.50584 0.0
H1282 H 0.5542 0.73032 0.55912 0.0
S1283 S 0.55713 0.62618 0.44556 0.0
N1284 N 0.55548 0.66847 0.43282 0.0
N1285 N 0.55835 0.62809 0.4893 0.0
C1286 C 0.55735 0.66436 0.49537 0.0
C1287 C 0.55591 0.68606 0.46478 0.0
C1288 C 0.7343 0.54867 0.67983 0.0
C1289 C 0.77233 0.56109 0.68184 0.0
C1290 C 0.70638 0.57336 0.67808 0.0
C1291 C 0.71579 0.61107 0.67795 0.0
H1292 H 0.72597 0.51995 0.68175 0.0
H1293 H 0.67748 0.56301 0.67837 0.0
S1294 S 0.81178 0.65661 0.67837 0.0
N1295 N 0.81763 0.61302 0.68052 0.0
N1296 N 0.76655 0.65893 0.67644 0.0
C1297 C 0.75398 0.62323 0.67772 0.0
C1298 C 0.78184 0.59841 0.67975 0.0
C1299 C 0.70261 0.52385 0.91576 0.0
C1300 C 0.69462 0.54681 0.94446 0.0
C1301 C 0.68681 0.48799 0.91396 0.0
C1302 C 0.66253 0.47412 0.94075 0.0
H1303 H 0.71991 0.534 0.89382 0.0
H1304 H 0.69021 0.47262 0.88962 0.0
S1305 S 0.63771 0.52052 0.02436 0.0
N1306 N 0.66429 0.55116 0.00247 0.0
N1307 N 0.63604 0.48367 -0.00086 0.0
C1308 C 0.65811 0.49528 0.97145 0.0
C1309 C 0.67317 0.53189 0.973 0.0
C1310 C 0.73308 0.50638 0.17534 0.0
C1311 C 0.70012 0.48313 0.17605 0.0
C1312 C 0.76774 0.4922 0.1704 0.0
C1313 C 0.76974 0.45465 0.16622 0.0
H1314 H 0.73241 0.53492 0.18189 0.0
H1315 H 0.7929 0.51017 0.17202 0.0
S1316 S 0.69097 0.38438 0.15776 0.0
N1317 N 0.67141 0.42247 0.16553 0.0
N1318 N 0.73606 0.39572 0.15688 0.0
C1319 C 0.73675 0.4321 0.1629 0.0
C1320 C 0.70193 0.44646 0.16742 0.0
C1321 C 0.75746 0.53207 0.44403 0.0
C1322 C 0.77197 0.50239 0.46075 0.0
C1323 C 0.78076 0.56332 0.43456 0.0
C1324 C 0.8189 0.56612 0.44264 0.0
H1325 H 0.72814 0.53111 0.43821 0.0
H1326 H 0.76915 0.58471 0.42004 0.0
S1327 S 0.86999 0.49491 0.4861 0.0
N1328 N 0.82728 0.47665 0.48175 0.0
N1329 N 0.86887 0.5364 0.47116 0.0
C1330 C 0.83278 0.53684 0.46108 0.0
C1331 C 0.81004 0.50462 0.46788 0.0
C1332 C 0.73521 0.46748 0.79272 0.0
C1333 C 0.76408 0.44435 0.78996 0.0
C1334 C 0.69848 0.45325 0.79796 0.0
C1335 C 0.68994 0.41562 0.80005 0.0
H1336 H 0.7408 0.49645 0.78918 0.0
H1337 H 0.67669 0.4716 0.79983 0.0
S1338 S 0.75747 0.34485 0.80105 0.0
N1339 N 0.78297 0.38325 0.79431 0.0
N1340 N 0.71434 0.35606 0.80397 0.0
C1341 C 0.71922 0.39258 0.79931 0.0
C1342 C 0.75628 0.40712 0.79438 0.0
C1343 C 0.8357 0.56896 0.03555 0.0
C1344 C 0.79786 0.56559 0.04335 0.0
C1345 C 0.85775 0.5418 0.04272 0.0
C1346 C 0.84451 0.51085 0.06177 0.0
H1347 H 0.84851 0.59244 0.02174 0.0
H1348 H 0.8862 0.54627 0.0335 0.0
S1349 S 0.74493 0.48526 0.08196 0.0
N1350 N 0.74534 0.52637 0.0651 0.0
N1351 N 0.78872 0.47519 0.08283 0.0
C1352 C 0.80591 0.50581 0.06882 0.0
C1353 C 0.78232 0.53358 0.05932 0.0
C1354 C 0.71354 0.61857 0.30978 0.0
C1355 C 0.71145 0.58503 0.29227 0.0
C1356 C 0.74792 0.63713 0.31618 0.0
C1357 C 0.78115 0.62303 0.30468 0.0
H1358 H 0.68854 0.63054 0.31837 0.0
H1359 H 0.74853 0.66289 0.33032 0.0
S1360 S 0.78945 0.53768 0.25443 0.0
N1361 N 0.74442 0.53903 0.2616 0.0
N1362 N 0.80963 0.57461 0.27345 0.0
C1363 C 0.77937 0.58969 0.28676 0.0
C1364 C 0.74422 0.57054 0.28048 0.0
C1365 C 0.67535 0.5043 0.58814 0.0
C1366 C 0.66605 0.48279 0.5582 0.0
C1367 C 0.66955 0.54109 0.5884 0.0
C1368 C 0.65425 0.5571 0.5588 0.0
H1369 H 0.68577 0.4924 0.6118 0.0
H1370 H 0.67376 0.55611 0.613 0.0
S1371 S 0.63781 0.51509 0.47016 0.0
N1372 N 0.64999 0.48196 0.49532 0.0
N1373 N 0.63867 0.55123 0.49638 0.0
C1374 C 0.64974 0.53703 0.52728 0.0
C1375 C 0.65546 0.49966 0.52694 0.0
C1376 C 0.71361 0.80211 0.58628 0.0
C1377 C 0.69758 0.81292 0.55485 0.0
C1378 C 0.71043 0.76624 0.59659 0.0
C1379 C 0.68993 0.73925 0.57664 0.0
H1380 H 0.72975 0.82139 0.60303 0.0
H1381 H 0.72311 0.76019 0.62153 0.0
S1382 S 0.64568 0.75246 0.49005 0.0
N1383 N 0.66334 0.79349 0.5017 0.0
N1384 N 0.65525 0.7252 0.52257 0.0
C1385 C 0.67416 0.74925 0.54464 0.0
C1386 C 0.67848 0.78623 0.5334 0.0
C1387 C 0.1258 0.74354 0.4284 0.0
C1388 C 0.15385 0.74222 0.4535 0.0
C1389 C 0.11997 0.77636 0.41211 0.0
C1390 C 0.14397 0.80764 0.41874 0.0
H1391 H 0.11092 0.71876 0.41885 0.0
H1392 H 0.10113 0.77564 0.38986 0.0
S1393 S 0.21473 0.81959 0.48864 0.0
N1394 N 0.19954 0.77627 0.49045 0.0
N1395 N 0.19072 0.83726 0.45709 0.0
C1396 C 0.16815 0.80772 0.44734 0.0
C1397 C 0.17291 0.77481 0.46516 0.0
C1398 C 0.54006 0.97051 0.68637 0.0
C1399 C 0.5331 0.97953 0.72178 0.0
C1400 C 0.51116 0.96265 0.66313 0.0
C1401 C 0.47382 0.96323 0.67424 0.0
H1402 H 0.56821 0.97129 0.676 0.0
H1403 H 0.51854 0.95675 0.63581 0.0
S1404 S 0.44111 0.98419 0.76495 0.0
N1405 N 0.48685 -0.01229 0.76783 0.0
N1406 N 0.43147 0.97238 0.72338 0.0
C1407 C 0.46627 0.97053 0.71005 0.0
C1408 C 0.49621 0.9787 0.73406 0.0
C1409 C 0.33718 0.31342 0.93941 0.0
C1410 C 0.30475 0.31525 0.9598 0.0
C1411 C 0.34384 0.28153 0.92066 0.0
C1412 C 0.31797 0.25089 0.92121 0.0
H1413 H 0.35629 0.33732 0.9362 0.0
H1414 H 0.36722 0.28229 0.90235 0.0
S1415 S 0.23009 0.24161 0.97272 0.0
N1416 N 0.24785 0.28329 0.98152 0.0
N1417 N 0.26027 0.22363 0.94595 0.0
C1418 C 0.28697 0.25163 0.94373 0.0
C1419 C 0.28025 0.28392 0.96292 0.0
C1420 C 0.45699 0.58042 0.67751 0.0
C1421 C 0.45906 0.56353 0.71028 0.0
C1422 C 0.48905 0.59175 0.65896 0.0
C1423 C 0.52442 0.58639 0.67236 0.0
H1424 H 0.43054 0.58121 0.66436 0.0
H1425 H 0.48592 0.60231 0.63252 0.0
S1426 S 0.54385 0.55869 0.76386 0.0
N1427 N 0.49814 0.55248 0.7606 0.0
N1428 N 0.55948 0.57401 0.72494 0.0
C1429 C 0.52691 0.57555 0.70771 0.0
C1430 C 0.49376 0.564 0.72695 0.0
C1431 C 0.79158 0.28983 0.01884 0.0
C1432 C 0.78498 0.25569 0.03504 0.0
C1433 C 0.80071 0.32146 0.03937 0.0
C1434 C 0.80301 0.31969 0.07658 0.0
H1435 H 0.78863 0.29223 -0.0096 0.0
H1436 H 0.80524 0.34734 0.02622 0.0
S1437 S 0.79314 0.23554 0.13069 0.0
N1438 N 0.78495 0.22155 0.08962 0.0
N1439 N 0.80179 0.27985 0.12804 0.0
C1440 C 0.79799 0.28518 0.09258 0.0
C1441 C 0.78903 0.25349 0.07185 0.0
C1442 C 0.49653 0.09347 0.78996 0.0
C1443 C 0.5287 0.11168 0.80462 0.0
C1444 C 0.46152 0.09658 0.80569 0.0
C1445 C 0.45774 0.11889 0.83567 0.0
H1446 H 0.49893 0.0736 0.76884 0.0
H1447 H 0.43832 0.07832 0.79697 0.0
S1448 S 0.53266 0.17688 0.87976 0.0
N1449 N 0.55414 0.15542 0.84796 0.0
N1450 N 0.48814 0.16366 0.87574 0.0
C1451 C 0.48904 0.14101 0.84712 0.0
C1452 C 0.52477 0.13654 0.83226 0.0
C1453 C 0.95192 0.91068 0.32345 0.0
C1454 C 0.95382 0.92824 0.29074 0.0
C1455 C -0.0166 0.91077 0.34444 0.0
C1456 C 0.01689 0.92969 0.33373 0.0
H1457 H 0.92544 0.8999 0.33425 0.0
H1458 H 0.98029 0.90016 0.37112 0.0
S1459 S 0.03771 0.97299 0.24737 0.0
N1460 N -0.00668 0.95841 0.24545 0.0
N1461 N 0.05209 0.96083 0.2866 0.0
C1462 C 0.02036 0.94328 0.29944 0.0
C1463 C -0.01138 0.94203 0.27742 0.0
C1464 C 0.40807 0.28627 0.24935 0.0
C1465 C 0.43377 0.30954 0.23073 0.0
C1466 C 0.39548 0.296 0.2829 0.0
C1467 C 0.4074 0.32977 0.29834 0.0
H1468 H 0.39612 0.26129 0.2373 0.0
H1469 H 0.37315 0.27891 0.29502 0.0
S1470 S 0.48107 0.39595 0.26392 0.0
N1471 N 0.47638 0.36406 0.23299 0.0
N1472 N 0.45134 0.38301 0.29577 0.0
C1473 C 0.43653 0.35095 0.28206 0.0
C1474 C 0.4497 0.3409 0.24798 0.0
C1475 C 0.45675 0.72069 0.95916 0.0
C1476 C 0.44116 0.7534 0.95285 0.0
C1477 C 0.45377 0.70464 -0.00721 0.0
C1478 C 0.43547 0.72085 0.02169 0.0
H1479 H 0.47111 0.70731 0.938 0.0
H1480 H 0.46547 0.67885 -0.0042 0.0
S1481 S 0.39547 0.80948 0.01919 0.0
N1482 N 0.41018 0.80321 0.97837 0.0
N1483 N 0.40463 0.7732 0.04155 0.0
C1484 C 0.42077 0.75404 0.01565 0.0
C1485 C 0.42366 0.77023 0.98133 0.0
C1486 C 0.0444 0.74606 0.75286 0.0
C1487 C 0.05343 0.72813 0.72113 0.0
C1488 C 0.05902 0.73658 0.78541 0.0
C1489 C 0.08358 0.70939 0.78659 0.0
H1490 H 0.02574 0.76736 0.75246 0.0
H1491 H 0.0514 0.75063 0.80947 0.0
S1492 S 0.11828 0.65662 0.71072 0.0
N1493 N 0.08925 0.6832 0.6927 0.0
N1494 N 0.11803 0.666 0.75372 0.0
C1495 C 0.09354 0.69196 0.75495 0.0
C1496 C 0.0781 0.70115 0.72209 0.0
C1497 C 0.02664 0.39356 0.46882 0.0
C1498 C 0.04608 0.3698 0.44798 0.0
C1499 C 0.0275 0.39243 0.50542 0.0
C1500 C 0.05017 0.36944 0.52325 0.0
H1501 H 0.00781 0.41113 0.45686 0.0
H1502 H 0.01008 0.41031 0.51961 0.0
S1503 S 0.11307 0.30737 0.48079 0.0
N1504 N 0.09235 0.32539 0.44717 0.0
N1505 N 0.09654 0.32581 0.51712 0.0
C1506 C 0.07282 0.34804 0.50276 0.0
C1507 C 0.07072 0.34807 0.46489 0.0
C1508 C 0.45625 0.72512 0.26444 0.0
C1509 C 0.43604 0.74794 0.28624 0.0
C1510 C 0.44592 0.71736 0.22877 0.0
C1511 C 0.41451 0.73159 0.21424 0.0
H1512 H 0.48139 0.71511 0.27432 0.0
H1513 H 0.4634 0.70162 0.2122 0.0
S1514 S 0.34464 0.78039 0.26579 0.0
N1515 N 0.3785 0.77623 0.29401 0.0
N1516 N 0.35775 0.76083 0.22872 0.0
C1517 C 0.39125 0.74975 0.238 0.0
C1518 C 0.40222 0.75797 0.2736 0.0
C1519 C 0.0295 0.67419 0.01663 0.0
C1520 C 0.02524 0.71074 0.02449 0.0
C1521 C 0.03852 0.66342 0.98192 0.0
C1522 C 0.04204 0.6889 0.9542 0.0
H1523 H 0.02739 0.65428 0.03756 0.0
H1524 H 0.04446 0.63562 0.97761 0.0
S1525 S 0.02947 0.78673 0.961 0.0
N1526 N 0.02259 0.77168 0.00184 0.0
N1527 N 0.03805 0.75107 0.93659 0.0
C1528 C 0.0354 0.72482 0.96166 0.0
C1529 C 0.0273 0.7359 -0.00317 0.0
C1530 C 0.06179 0.30707 0.76571 0.0
C1531 C 0.06783 0.33843 0.78721 0.0
C1532 C 0.0644 0.30901 0.72872 0.0
C1533 C 0.07297 0.34232 0.71184 0.0
H1534 H 0.05323 0.28101 0.77731 0.0
H1535 H 0.05998 0.28421 0.71317 0.0
S1536 S 0.09624 0.43132 0.75666 0.0
N1537 N 0.08695 0.40275 0.78943 0.0
N1538 N 0.09061 0.40699 0.71982 0.0
C1539 C 0.0804 0.37366 0.73318 0.0
C1540 C 0.07852 0.37146 0.77085 0.0
C1541 C 0.43378 0.31629 0.49973 0.0
C1542 C 0.44775 0.34088 0.52579 0.0
C1543 C 0.42324 0.32823 0.4668 0.0
C1544 C 0.42534 0.36522 0.45861 0.0
H1545 H 0.4313 0.28737 0.50465 0.0
H1546 H 0.4124 0.30797 0.44769 0.0
S1547 S 0.46019 0.44082 0.51902 0.0
N1548 N 0.46381 0.40373 0.5422 0.0
N1549 N 0.44319 0.42686 0.48023 0.0
C1550 C 0.43958 0.39047 0.4846 0.0
C1551 C 0.45099 0.378 0.51828 0.0
C1552 C 0.24637 0.50263 0.3047 0.0
C1553 C 0.21072 0.48411 0.30631 0.0
C1554 C 0.27837 0.48431 0.31028 0.0
C1555 C 0.27521 0.44722 0.31801 0.0
H1556 H 0.24965 0.53041 0.29565 0.0
H1557 H 0.30543 0.49834 0.30557 0.0
S1558 S 0.1878 0.38745 0.32711 0.0
N1559 N 0.1741 0.42761 0.3175 0.0
N1560 N 0.23339 0.39345 0.32982 0.0
C1561 C 0.23936 0.42953 0.32303 0.0
C1562 C 0.20724 0.44789 0.31657 0.0
C1563 C 0.27908 0.53853 0.0384 0.0
C1564 C 0.30107 0.50996 0.02939 0.0
C1565 C 0.29545 0.5734 0.04711 0.0
C1566 C 0.33422 0.58029 0.04743 0.0
H1567 H 0.24912 0.5342 0.03749 0.0
H1568 H 0.27782 0.59509 0.05274 0.0
S1569 S 0.40316 0.51125 0.03424 0.0
N1570 N 0.36263 0.48903 0.02632 0.0
N1571 N 0.39377 0.55307 0.04417 0.0
C1572 C 0.35615 0.55063 0.04119 0.0
C1573 C 0.3395 0.51582 0.03174 0.0
C1574 C 0.24448 0.55989 0.82814 0.0
C1575 C 0.26814 0.56593 0.79844 0.0
C1576 C 0.21183 0.57786 0.83191 0.0
C1577 C 0.20171 0.60193 0.8058 0.0
H1578 H 0.25185 0.54224 0.84921 0.0
H1579 H 0.19623 0.57517 0.85659 0.0
S1580 S 0.2511 0.62335 0.72082 0.0
N1581 N 0.277 0.59547 0.74105 0.0
N1582 N 0.21523 0.62747 0.74751 0.0
C1583 C 0.22329 0.60544 0.77458 0.0
C1584 C 0.25681 0.5882 0.7712 0.0
C1585 C 0.17874 0.53416 0.51096 0.0
C1586 C 0.18004 0.55891 0.53984 0.0
C1587 C 0.16547 0.4977 0.51544 0.0
C1588 C 0.15415 0.48494 0.54909 0.0
H1589 H 0.1885 0.54287 0.48491 0.0
H1590 H 0.16349 0.47965 0.49254 0.0
S1591 S 0.14579 0.54015 0.63129 0.0
N1592 N 0.16419 0.56908 0.60171 0.0
N1593 N 0.14072 0.50055 0.6105 0.0
C1594 C 0.15435 0.50972 0.57774 0.0
C1595 C 0.16689 0.54673 0.57302 0.0
C1596 C 0.23124 0.62867 0.22109 0.0
C1597 C 0.22419 0.593 0.20894 0.0
C1598 C 0.26667 0.6463 0.21738 0.0
C1599 C 0.296 0.6289 0.20087 0.0
H1600 H 0.20898 0.64353 0.23184 0.0
H1601 H 0.26996 0.67473 0.22493 0.0
S1602 S 0.29333 0.53152 0.17655 0.0
N1603 N 0.25039 0.53784 0.18887 0.0
N1604 N 0.31706 0.57147 0.18056 0.0
C1605 C 0.29002 0.59186 0.19286 0.0
C1606 C 0.25399 0.57383 0.19706 0.0
C1607 C 0.13523 0.48375 0.93244 0.0
C1608 C 0.17317 0.48578 0.93983 0.0
C1609 C 0.11658 0.51535 0.93096 0.0
C1610 C 0.13522 0.54977 0.93743 0.0
H1611 H 0.1199 0.45766 0.92814 0.0
H1612 H 0.08743 0.51288 0.92415 0.0
S1613 S 0.23396 0.56871 0.96111 0.0
N1614 N 0.22845 0.52421 0.95572 0.0
N1615 N 0.19321 0.58376 0.95276 0.0
C1616 C 0.17311 0.55203 0.94506 0.0
C1617 C 0.19213 0.5199 0.9464 0.0
C1618 C 0.26644 0.43115 0.68414 0.0
C1619 C 0.27044 0.44553 0.71844 0.0
C1620 C 0.23163 0.42726 0.66871 0.0
C1621 C 0.20014 0.43734 0.68742 0.0
H1622 H 0.29013 0.42229 0.66956 0.0
H1623 H 0.22878 0.41322 0.64329 0.0
S1624 S 0.19876 0.48467 0.77433 0.0
N1625 N 0.24243 0.47592 0.76823 0.0
N1626 N 0.1762 0.46786 0.73908 0.0
C1627 C 0.20445 0.45448 0.72051 0.0
C1628 C 0.23997 0.45856 0.73622 0.0
C1629 C 0.33686 0.57057 0.44837 0.0
C1630 C 0.29883 0.5731 0.44386 0.0
C1631 C 0.35253 0.53782 0.44311 0.0
C1632 C 0.33087 0.50593 0.43309 0.0
H1633 H 0.35441 0.59379 0.45785 0.0
H1634 H 0.38209 0.53763 0.44736 0.0
S1635 S 0.2301 0.49906 0.41441 0.0
N1636 N 0.23984 0.54194 0.42635 0.0
N1637 N 0.26969 0.47976 0.41584 0.0
C1638 C 0.29304 0.50849 0.42624 0.0
C1639 C 0.27692 0.54225 0.43175 0.0
C1640 C 0.31304 0.25726 0.43303 0.0
C1641 C 0.27599 0.24459 0.43983 0.0
C1642 C 0.3218 0.29246 0.42049 0.0
C1643 C 0.29377 0.31592 0.4147 0.0
H1644 H 0.33513 0.23949 0.43607 0.0
H1645 H 0.35033 0.30052 0.41317 0.0
S1646 S 0.19377 0.29751 0.43388 0.0
N1647 N 0.21188 0.25952 0.44402 0.0
N1648 N 0.22861 0.32557 0.42001 0.0
C1649 C 0.25715 0.30427 0.42345 0.0
C1650 C 0.24818 0.26857 0.43613 0.0
C1651 C 0.8043 0.29059 0.53198 0.0
C1652 C 0.78274 0.31431 0.55113 0.0
C1653 C 0.8192 0.26178 0.54884 0.0
C1654 C 0.81266 0.25648 0.58503 0.0
H1655 H 0.81202 0.29606 0.50457 0.0
H1656 H 0.83873 0.2463 0.53459 0.0
S1657 S 0.74887 0.30373 0.6438 0.0
N1658 N 0.74951 0.32605 0.60601 0.0
N1659 N 0.77455 0.26946 0.63667 0.0
C1660 C 0.78468 0.27503 0.60211 0.0
C1661 C 0.77093 0.30533 0.5856 0.0
C1662 C 0.48931 0.01 0.29632 0.0
C1663 C 0.45711 0.02827 0.29108 0.0
C1664 C 0.52161 0.02809 0.31036 0.0
C1665 C 0.5228 0.0651 0.3191 0.0
H1666 H 0.48917 0.9812 0.29065 0.0
H1667 H 0.54454 0.01246 0.31711 0.0
S1668 S 0.44652 0.12528 0.31067 0.0
N1669 N 0.42887 0.08553 0.29548 0.0
N1670 N 0.48985 0.11959 0.32107 0.0
C1671 C 0.49169 0.0841 0.31187 0.0
C1672 C 0.45867 0.06565 0.29821 0.0
C1673 C 0.64874 0.74711 0.06657 0.0
C1674 C 0.68162 0.74234 0.04792 0.0
C1675 C 0.64145 0.78174 0.07872 0.0
C1676 C 0.66753 0.81177 0.07347 0.0
H1677 H 0.63029 0.72388 0.07423 0.0
H1678 H 0.61822 0.78396 0.09682 0.0
S1679 S 0.75097 0.81433 0.01613 0.0
N1680 N 0.73516 0.77116 0.01663 0.0
N1681 N 0.7221 0.83602 0.04126 0.0
C1682 C 0.69736 0.80796 0.05042 0.0
C1683 C 0.70454 0.77302 0.03755 0.0
C1684 C 0.48324 0.5297 0.29172 0.0
C1685 C 0.51615 0.51185 0.28961 0.0
C1686 C 0.45299 0.51571 0.31261 0.0
C1687 C 0.45545 0.48387 0.33205 0.0
H1688 H 0.48103 0.55459 0.2773 0.0
H1689 H 0.42832 0.53036 0.31452 0.0
S1690 S 0.5366 0.42923 0.33763 0.0
N1691 N 0.54967 0.46177 0.30945 0.0
N1692 N 0.49368 0.43622 0.34943 0.0
C1693 C 0.48833 0.46621 0.33019 0.0
C1694 C 0.51854 0.47997 0.3087 0.0
C1695 C 0.20402 0.79725 0.90579 0.0
C1696 C 0.18894 0.81073 0.93714 0.0
C1697 C 0.19706 0.76115 0.89584 0.0
C1698 C 0.17417 0.73676 0.91646 0.0
H1699 H 0.22282 0.81442 0.88942 0.0
H1700 H 0.20999 0.75243 0.87147 0.0
S1701 S 0.12404 0.75945 -0.00096 0.0
N1702 N 0.1475 0.79792 -0.01225 0.0
N1703 N 0.13336 0.72937 0.96806 0.0
C1704 C 0.15659 0.75028 0.9467 0.0
C1705 C 0.16412 0.78747 0.95723 0.0
C1706 C 0.47657 0.912 0.17193 0.0
C1707 C 0.45918 0.94224 0.18419 0.0
C1708 C 0.51361 0.91573 0.16087 0.0
C1709 C 0.53414 0.9498 0.1617 0.0
H1710 H 0.4609 0.88591 0.16882 0.0
H1711 H 0.52391 0.89307 0.14664 0.0
S1712 S 0.50441 0.03469 0.20121 0.0
N1713 N 0.46736 0.00558 0.20364 0.0
N1714 N 0.53729 0.01195 0.18303 0.0
C1715 C 0.51872 0.9787 0.17892 0.0
C1716 C 0.48086 0.9753 0.18948 0.0
C1717 C 0.01689 0.13354 0.66734 0.0
C1718 C 0.02655 0.09816 0.67263 0.0
C1719 C 0.98046 0.13952 0.6584 0.0
C1720 C 0.95356 0.11011 0.65413 0.0
H1721 H 0.03799 0.15611 0.66729 0.0
H1722 H 0.9753 0.16616 0.64904 0.0
S1723 S 0.96223 0.01473 0.67797 0.0
N1724 N 0.00436 0.03494 0.68261 0.0
N1725 N 0.93594 0.04686 0.66608 0.0
C1726 C 0.96132 0.07611 0.6663 0.0
C1727 C -0.00174 0.0697 0.67458 0.0
loop_
_geom_bond_atom_site_label_1
_geom_bond_atom_site_label_2
_geom_bond_distance
_geom_bond_site_symmetry_2
_ccdc_geom_bond_type
C0 O1 1.306 . S
C0 O3 1.160 1_655 S
O1 C0 1.306 . S
O1 Cd2 2.228 . S
Cd2 O1 2.228 . S
Cd2 O6 2.273 . S
Cd2 O10 2.277 1_655 S
O3 C0 1.160 1_455 S
O3 Cd4 2.203 . S
Cd4 O3 2.203 . S
Cd4 O6 2.411 1_455 S
Cd4 O7 2.333 . S
Cd4 O8 2.352 . S
Cd4 O12 2.277 . S
Cd4 O13 2.356 . S
C5 O10 1.209 . S
C5 O12 1.226 . S
O6 Cd2 2.273 . S
O6 Cd4 2.411 1_655 S
O6 C9 1.320 . S
O7 Cd4 2.333 . S
O7 C9 1.214 1_455 S
O8 Cd4 2.352 . S
O8 C11 1.258 . S
C9 O6 1.320 . S
C9 O7 1.214 1_655 S
O10 Cd2 2.277 1_455 S
O10 C5 1.209 . S
C11 O8 1.258 . S
C11 O13 1.282 . S
O12 Cd4 2.277 . S
O12 C5 1.226 . S
O13 Cd4 2.356 . S
O13 C11 1.282 . S
C14 O15 1.306 . S
C14 O17 1.160 . S
O15 C14 1.306 . S
O15 Cd16 2.228 1_455 S
Cd16 O15 2.228 1_655 S
Cd16 O20 2.273 . S
Cd16 O24 2.277 . S
O17 C14 1.160 . S
O17 Cd18 2.203 . S
Cd18 O17 2.203 . S
Cd18 O20 2.411 1_455 S
Cd18 O21 2.333 1_455 S
Cd18 O22 2.352 . S
Cd18 O26 2.277 1_455 S
Cd18 O27 2.356 . S
C19 O24 1.209 . S
C19 O26 1.226 . S
O20 Cd16 2.273 . S
O20 Cd18 2.411 1_655 S
O20 C23 1.320 . S
O21 Cd18 2.333 1_655 S
O21 C23 1.214 . S
O22 Cd18 2.352 . S
O22 C25 1.258 . S
C23 O20 1.320 . S
C23 O21 1.214 . S
O24 Cd16 2.277 . S
O24 C19 1.209 . S
C25 O22 1.258 . S
C25 O27 1.282 . S
O26 Cd18 2.277 1_655 S
O26 C19 1.226 . S
O27 Cd18 2.356 . S
O27 C25 1.282 . S
C28 O29 1.306 . S
C28 O31 1.160 . S
O29 C28 1.306 . S
O29 Cd30 2.228 . S
Cd30 O29 2.228 . S
Cd30 O34 2.273 . S
Cd30 O38 2.277 . S
O31 C28 1.160 . S
O31 Cd32 2.203 . S
Cd32 O31 2.203 . S
Cd32 O34 2.411 . S
Cd32 O35 2.333 . S
Cd32 O36 2.352 . S
Cd32 O40 2.277 . S
Cd32 O41 2.356 . S
C33 O38 1.209 . S
C33 O40 1.226 . S
O34 Cd30 2.273 . S
O34 Cd32 2.411 . S
O34 C37 1.320 . S
O35 Cd32 2.333 . S
O35 C37 1.214 . S
O36 Cd32 2.352 . S
O36 C39 1.258 . S
C37 O34 1.320 . S
C37 O35 1.214 . S
O38 Cd30 2.277 . S
O38 C33 1.209 . S
C39 O36 1.258 . S
C39 O41 1.282 . S
O40 Cd32 2.277 . S
O40 C33 1.226 . S
O41 Cd32 2.356 . S
O41 C39 1.282 . S
C42 O43 1.306 . S
C42 O45 1.160 . S
O43 C42 1.306 . S
O43 Cd44 2.228 . S
Cd44 O43 2.228 . S
Cd44 O48 2.273 . S
Cd44 O52 2.277 . S
O45 C42 1.160 . S
O45 Cd46 2.203 . S
Cd46 O45 2.203 . S
Cd46 O48 2.411 . S
Cd46 O49 2.333 . S
Cd46 O50 2.352 . S
Cd46 O54 2.277 . S
Cd46 O55 2.356 . S
C47 O52 1.209 . S
C47 O54 1.226 . S
O48 Cd44 2.273 . S
O48 Cd46 2.411 . S
O48 C51 1.320 . S
O49 Cd46 2.333 . S
O49 C51 1.214 . S
O50 Cd46 2.352 . S
O50 C53 1.258 . S
C51 O48 1.320 . S
C51 O49 1.214 . S
O52 Cd44 2.277 . S
O52 C47 1.209 . S
C53 O50 1.258 . S
C53 O55 1.282 . S
O54 Cd46 2.277 . S
O54 C47 1.226 . S
O55 Cd46 2.356 . S
O55 C53 1.282 . S
C56 O57 1.306 . S
C56 O59 1.160 . S
O57 C56 1.306 . S
O57 Cd58 2.228 . S
Cd58 O57 2.228 . S
Cd58 O62 2.273 . S
Cd58 O66 2.277 . S
O59 C56 1.160 . S
O59 Cd60 2.203 1_655 S
Cd60 O59 2.203 1_455 S
Cd60 O62 2.411 1_455 S
Cd60 O63 2.333 . S
Cd60 O64 2.349 1_455 S
Cd60 O68 2.277 . S
Cd60 O69 2.356 . S
C61 O66 1.209 1_455 S
C61 O68 1.226 . S
O62 Cd58 2.273 . S
O62 Cd60 2.411 1_655 S
O62 C65 1.320 . S
O63 Cd60 2.333 . S
O63 C65 1.214 1_455 S
O64 Cd60 2.349 1_655 S
O64 C67 1.235 1_655 S
C65 O62 1.320 . S
C65 O63 1.214 1_655 S
O66 Cd58 2.277 . S
O66 C61 1.209 1_655 S
C67 O64 1.235 1_455 S
C67 O69 1.282 . S
O68 Cd60 2.277 . S
O68 C61 1.226 . S
O69 Cd60 2.356 . S
O69 C67 1.282 . S
C70 O71 1.306 . S
C70 O73 1.160 . S
O71 C70 1.306 . S
O71 Cd72 2.228 . S
Cd72 O71 2.228 . S
Cd72 O76 2.273 . S
Cd72 O80 2.277 . S
O73 C70 1.160 . S
O73 Cd74 2.203 . S
Cd74 O73 2.203 . S
Cd74 O76 2.411 . S
Cd74 O77 2.333 . S
Cd74 O78 2.352 . S
Cd74 O82 2.277 . S
Cd74 O83 2.356 . S
C75 O80 1.209 . S
C75 O82 1.226 . S
O76 Cd72 2.273 . S
O76 Cd74 2.411 . S
O76 C79 1.320 . S
O77 Cd74 2.333 . S
O77 C79 1.214 . S
O78 Cd74 2.352 . S
O78 C81 1.258 . S
C79 O76 1.320 . S
C79 O77 1.214 . S
O80 Cd72 2.277 . S
O80 C75 1.209 . S
C81 O78 1.258 . S
C81 O83 1.282 . S
O82 Cd74 2.277 . S
O82 C75 1.226 . S
O83 Cd74 2.356 . S
O83 C81 1.282 . S
C84 O85 1.306 . S
C84 O87 1.160 . S
O85 C84 1.306 . S
O85 Cd86 2.228 . S
Cd86 O85 2.228 . S
Cd86 O90 2.273 . S
Cd86 O94 2.277 . S
O87 C84 1.160 . S
O87 Cd88 2.203 . S
Cd88 O87 2.203 . S
Cd88 O90 2.411 . S
Cd88 O91 2.333 . S
Cd88 O92 2.352 . S
Cd88 O96 2.277 . S
Cd88 O97 2.356 . S
C89 O94 1.209 . S
C89 O96 1.226 . S
O90 Cd86 2.273 . S
O90 Cd88 2.411 . S
O90 C93 1.320 . S
O91 Cd88 2.333 . S
O91 C93 1.214 . S
O92 Cd88 2.352 . S
O92 C95 1.258 . S
C93 O90 1.320 . S
C93 O91 1.214 . S
O94 Cd86 2.277 . S
O94 C89 1.209 . S
C95 O92 1.258 . S
C95 O97 1.282 . S
O96 Cd88 2.277 . S
O96 C89 1.226 . S
O97 Cd88 2.356 . S
O97 C95 1.282 . S
C98 O99 1.306 . S
C98 O101 1.160 . S
O99 C98 1.306 . S
O99 Cd100 2.228 1_455 S
Cd100 O99 2.228 1_655 S
Cd100 O104 2.273 1_655 S
Cd100 O108 2.277 . S
O101 C98 1.160 . S
O101 Cd102 2.203 . S
Cd102 O101 2.203 . S
Cd102 O104 2.411 . S
Cd102 O105 2.333 1_455 S
Cd102 O106 2.352 . S
Cd102 O110 2.278 1_455 S
Cd102 O111 2.356 . S
C103 O108 1.209 . S
C103 O110 1.225 . S
O104 Cd100 2.273 1_455 S
O104 Cd102 2.411 . S
O104 C107 1.320 1_455 S
O105 Cd102 2.333 1_655 S
O105 C107 1.214 . S
O106 Cd102 2.352 . S
O106 C109 1.258 . S
C107 O104 1.320 1_655 S
C107 O105 1.214 . S
O108 Cd100 2.277 . S
O108 C103 1.209 . S
C109 O106 1.258 . S
C109 O111 1.282 . S
O110 Cd102 2.278 1_655 S
O110 C103 1.225 . S
O111 Cd102 2.356 . S
O111 C109 1.282 . S
C112 O113 1.306 . S
C112 O115 1.160 . S
O113 C112 1.306 . S
O113 Cd114 2.228 . S
Cd114 O113 2.228 . S
Cd114 O118 2.273 . S
Cd114 O122 2.277 . S
O115 C112 1.160 . S
O115 Cd116 2.203 1_565 S
Cd116 O115 2.203 1_545 S
Cd116 O118 2.411 1_545 S
Cd116 O119 2.333 . S
Cd116 O120 2.352 . S
Cd116 O124 2.277 . S
Cd116 O125 2.356 . S
C117 O122 1.209 1_545 S
C117 O124 1.226 . S
O118 Cd114 2.273 . S
O118 Cd116 2.411 1_565 S
O118 C121 1.320 . S
O119 Cd116 2.333 . S
O119 C121 1.214 1_545 S
O120 Cd116 2.352 . S
O120 C123 1.258 . S
C121 O118 1.320 . S
C121 O119 1.214 1_565 S
O122 Cd114 2.277 . S
O122 C117 1.209 1_565 S
C123 O120 1.258 . S
C123 O125 1.282 . S
O124 Cd116 2.277 . S
O124 C117 1.226 . S
O125 Cd116 2.356 . S
O125 C123 1.282 . S
C126 O127 1.306 . S
C126 O129 1.160 . S
O127 C126 1.306 . S
O127 Cd128 2.228 . S
Cd128 O127 2.228 . S
Cd128 O132 2.273 . S
Cd128 O136 2.277 . S
O129 C126 1.160 . S
O129 Cd130 2.203 . S
Cd130 O129 2.203 . S
Cd130 O132 2.411 . S
Cd130 O133 2.333 . S
Cd130 O134 2.352 . S
Cd130 O138 2.277 . S
Cd130 O139 2.356 . S
C131 O136 1.209 . S
C131 O138 1.226 . S
O132 Cd128 2.273 . S
O132 Cd130 2.411 . S
O132 C135 1.320 . S
O133 Cd130 2.333 . S
O133 C135 1.214 . S
O134 Cd130 2.352 . S
O134 C137 1.258 . S
C135 O132 1.320 . S
C135 O133 1.214 . S
O136 Cd128 2.277 . S
O136 C131 1.209 . S
C137 O134 1.258 . S
C137 O139 1.282 . S
O138 Cd130 2.277 . S
O138 C131 1.226 . S
O139 Cd130 2.356 . S
O139 C137 1.282 . S
C140 O141 1.306 . S
C140 O143 1.160 . S
O141 C140 1.306 . S
O141 Cd142 2.228 1_545 S
Cd142 O141 2.228 1_565 S
Cd142 O146 2.273 1_565 S
Cd142 O150 2.277 1_565 S
O143 C140 1.160 . S
O143 Cd144 2.203 . S
Cd144 O143 2.203 . S
Cd144 O146 2.411 . S
Cd144 O147 2.333 . S
Cd144 O148 2.352 . S
Cd144 O152 2.277 . S
Cd144 O153 2.356 . S
C145 O150 1.209 . S
C145 O152 1.226 . S
O146 Cd142 2.273 1_545 S
O146 Cd144 2.411 . S
O146 C149 1.320 . S
O147 Cd144 2.333 . S
O147 C149 1.214 . S
O148 Cd144 2.352 . S
O148 C151 1.258 . S
C149 O146 1.320 . S
C149 O147 1.214 . S
O150 Cd142 2.277 1_545 S
O150 C145 1.209 . S
C151 O148 1.258 . S
C151 O153 1.282 . S
O152 Cd144 2.277 . S
O152 C145 1.226 . S
O153 Cd144 2.356 . S
O153 C151 1.282 . S
C154 O155 1.306 . S
C154 O157 1.160 . S
O155 C154 1.306 . S
O155 Cd156 2.228 1_554 S
Cd156 O155 2.228 1_556 S
Cd156 O160 2.273 . S
Cd156 O164 2.277 . S
O157 C154 1.160 . S
O157 Cd158 2.203 . S
Cd158 O157 2.203 . S
Cd158 O160 2.411 1_554 S
Cd158 O161 2.333 1_554 S
Cd158 O162 2.352 . S
Cd158 O166 2.277 1_554 S
Cd158 O167 2.356 . S
C159 O164 1.209 . S
C159 O166 1.226 . S
O160 Cd156 2.273 . S
O160 Cd158 2.411 1_556 S
O160 C163 1.320 . S
O161 Cd158 2.333 1_556 S
O161 C163 1.214 . S
O162 Cd158 2.352 . S
O162 C165 1.258 . S
C163 O160 1.320 . S
C163 O161 1.214 . S
O164 Cd156 2.277 . S
O164 C159 1.209 . S
C165 O162 1.258 . S
C165 O167 1.282 . S
O166 Cd158 2.277 1_556 S
O166 C159 1.226 . S
O167 Cd158 2.356 . S
O167 C165 1.282 . S
C168 O169 1.306 . S
C168 O171 1.160 . S
O169 C168 1.306 . S
O169 Cd170 2.228 . S
Cd170 O169 2.228 . S
Cd170 O174 2.273 . S
Cd170 O178 2.277 . S
O171 C168 1.160 . S
O171 Cd172 2.203 1_554 S
Cd172 O171 2.203 1_556 S
Cd172 O174 2.411 1_556 S
Cd172 O175 2.333 1_556 S
Cd172 O176 2.352 1_556 S
Cd172 O180 2.277 . S
Cd172 O181 2.356 . S
C173 O178 1.209 1_556 S
C173 O180 1.226 . S
O174 Cd170 2.273 . S
O174 Cd172 2.411 1_554 S
O174 C177 1.320 . S
O175 Cd172 2.333 1_554 S
O175 C177 1.212 . S
O176 Cd172 2.352 1_554 S
O176 C179 1.258 1_554 S
C177 O174 1.320 . S
C177 O175 1.212 . S
O178 Cd170 2.277 . S
O178 C173 1.209 1_554 S
C179 O176 1.258 1_556 S
C179 O181 1.282 . S
O180 Cd172 2.277 . S
O180 C173 1.226 . S
O181 Cd172 2.356 . S
O181 C179 1.282 . S
C182 O183 1.306 . S
C182 O185 1.160 . S
O183 C182 1.306 . S
O183 Cd184 2.228 . S
Cd184 O183 2.228 . S
Cd184 O188 2.273 . S
Cd184 O192 2.277 . S
O185 C182 1.160 . S
O185 Cd186 2.203 1_554 S
Cd186 O185 2.203 1_556 S
Cd186 O188 2.411 1_556 S
Cd186 O189 2.333 . S
Cd186 O190 2.348 1_556 S
Cd186 O194 2.277 . S
Cd186 O195 2.356 . S
C187 O192 1.209 1_556 S
C187 O194 1.226 . S
O188 Cd184 2.273 . S
O188 Cd186 2.411 1_554 S
O188 C191 1.320 . S
O189 Cd186 2.333 . S
O189 C191 1.214 1_556 S
O190 Cd186 2.348 1_554 S
O190 C193 1.230 1_554 S
C191 O188 1.320 . S
C191 O189 1.214 1_554 S
O192 Cd184 2.277 . S
O192 C187 1.209 1_554 S
C193 O190 1.230 1_556 S
C193 O195 1.282 . S
O194 Cd186 2.277 . S
O194 C187 1.226 . S
O195 Cd186 2.356 . S
O195 C193 1.282 . S
C196 O197 1.306 . S
C196 O199 1.160 . S
O197 C196 1.306 . S
O197 Cd198 2.228 . S
Cd198 O197 2.228 . S
Cd198 O202 2.273 . S
Cd198 O206 2.277 . S
O199 C196 1.160 . S
O199 Cd200 2.203 . S
Cd200 O199 2.203 . S
Cd200 O202 2.411 . S
Cd200 O203 2.333 . S
Cd200 O204 2.352 . S
Cd200 O208 2.277 . S
Cd200 O209 2.356 . S
C201 O206 1.209 . S
C201 O208 1.226 . S
O202 Cd198 2.273 . S
O202 Cd200 2.411 . S
O202 C205 1.320 . S
O203 Cd200 2.333 . S
O203 C205 1.214 . S
O204 Cd200 2.352 . S
O204 C207 1.258 . S
C205 O202 1.320 . S
C205 O203 1.214 . S
O206 Cd198 2.277 . S
O206 C201 1.209 . S
C207 O204 1.258 . S
C207 O209 1.282 . S
O208 Cd200 2.277 . S
O208 C201 1.226 . S
O209 Cd200 2.356 . S
O209 C207 1.282 . S
C210 O211 1.306 . S
C210 O213 1.160 . S
O211 C210 1.306 . S
O211 Cd212 2.228 . S
Cd212 O211 2.228 . S
Cd212 O216 2.273 . S
Cd212 O220 2.277 . S
O213 C210 1.160 . S
O213 Cd214 2.203 . S
Cd214 O213 2.203 . S
Cd214 O216 2.411 . S
Cd214 O217 2.333 . S
Cd214 O218 2.352 . S
Cd214 O222 2.277 . S
Cd214 O223 2.356 . S
C215 O220 1.209 . S
C215 O222 1.226 . S
O216 Cd212 2.273 . S
O216 Cd214 2.411 . S
O216 C219 1.320 . S
O217 Cd214 2.333 . S
O217 C219 1.214 . S
O218 Cd214 2.352 . S
O218 C221 1.258 . S
C219 O216 1.320 . S
C219 O217 1.214 . S
O220 Cd212 2.277 . S
O220 C215 1.209 . S
C221 O218 1.258 . S
C221 O223 1.282 . S
O222 Cd214 2.277 . S
O222 C215 1.226 . S
O223 Cd214 2.356 . S
O223 C221 1.282 . S
C224 O225 1.306 . S
C224 O227 1.160 . S
O225 C224 1.306 . S
O225 Cd226 2.228 1_545 S
Cd226 O225 2.228 1_565 S
Cd226 O230 2.273 . S
Cd226 O234 2.277 . S
O227 C224 1.160 . S
O227 Cd228 2.203 . S
Cd228 O227 2.203 . S
Cd228 O230 2.411 1_545 S
Cd228 O231 2.333 1_545 S
Cd228 O232 2.352 . S
Cd228 O236 2.277 1_545 S
Cd228 O237 2.356 . S
C229 O234 1.209 . S
C229 O236 1.226 . S
O230 Cd226 2.273 . S
O230 Cd228 2.411 1_565 S
O230 C233 1.320 . S
O231 Cd228 2.333 1_565 S
O231 C233 1.214 . S
O232 Cd228 2.352 . S
O232 C235 1.258 . S
C233 O230 1.320 . S
C233 O231 1.214 . S
O234 Cd226 2.277 . S
O234 C229 1.209 . S
C235 O232 1.258 . S
C235 O237 1.282 . S
O236 Cd228 2.277 1_565 S
O236 C229 1.226 . S
O237 Cd228 2.356 . S
O237 C235 1.282 . S
C238 O239 1.306 . S
C238 O241 1.160 . S
O239 C238 1.306 . S
O239 Cd240 2.228 . S
Cd240 O239 2.228 . S
Cd240 O244 2.273 . S
Cd240 O248 2.277 . S
O241 C238 1.160 . S
O241 Cd242 2.203 . S
Cd242 O241 2.203 . S
Cd242 O244 2.411 . S
Cd242 O245 2.333 . S
Cd242 O246 2.352 . S
Cd242 O250 2.277 . S
Cd242 O251 2.356 . S
C243 O248 1.209 . S
C243 O250 1.226 . S
O244 Cd240 2.273 . S
O244 Cd242 2.411 . S
O244 C247 1.320 . S
O245 Cd242 2.333 . S
O245 C247 1.214 . S
O246 Cd242 2.352 . S
O246 C249 1.258 . S
C247 O244 1.320 . S
C247 O245 1.214 . S
O248 Cd240 2.277 . S
O248 C243 1.209 . S
C249 O246 1.258 . S
C249 O251 1.282 . S
O250 Cd242 2.277 . S
O250 C243 1.226 . S
O251 Cd242 2.356 . S
O251 C249 1.282 . S
C252 O253 1.306 . S
C252 O255 1.160 . S
O253 C252 1.306 . S
O253 Cd254 2.228 . S
Cd254 O253 2.228 . S
Cd254 O258 2.273 . S
Cd254 O262 2.277 . S
O255 C252 1.160 . S
O255 Cd256 2.203 . S
Cd256 O255 2.203 . S
Cd256 O258 2.411 . S
Cd256 O259 2.333 . S
Cd256 O260 2.352 . S
Cd256 O264 2.277 . S
Cd256 O265 2.356 . S
C257 O262 1.209 . S
C257 O264 1.226 . S
O258 Cd254 2.273 . S
O258 Cd256 2.411 . S
O258 C261 1.320 . S
O259 Cd256 2.333 . S
O259 C261 1.214 . S
O260 Cd256 2.352 . S
O260 C263 1.258 . S
C261 O258 1.320 . S
C261 O259 1.214 . S
O262 Cd254 2.277 . S
O262 C257 1.209 . S
C263 O260 1.258 . S
C263 O265 1.282 . S
O264 Cd256 2.277 . S
O264 C257 1.226 . S
O265 Cd256 2.356 . S
O265 C263 1.282 . S
C266 O267 1.306 . S
C266 O269 1.160 . S
O267 C266 1.306 . S
O267 Cd268 2.228 . S
Cd268 O267 2.228 . S
Cd268 O272 2.273 . S
Cd268 O276 2.277 . S
O269 C266 1.160 . S
O269 Cd270 2.203 . S
Cd270 O269 2.203 . S
Cd270 O272 2.411 . S
Cd270 O273 2.333 . S
Cd270 O274 2.352 . S
Cd270 O278 2.277 . S
Cd270 O279 2.356 . S
C271 O276 1.209 . S
C271 O278 1.226 . S
O272 Cd268 2.273 . S
O272 Cd270 2.411 . S
O272 C275 1.320 . S
O273 Cd270 2.333 . S
O273 C275 1.214 . S
O274 Cd270 2.352 . S
O274 C277 1.258 . S
C275 O272 1.320 . S
C275 O273 1.214 . S
O276 Cd268 2.277 . S
O276 C271 1.209 . S
C277 O274 1.258 . S
C277 O279 1.282 . S
O278 Cd270 2.277 . S
O278 C271 1.226 . S
O279 Cd270 2.356 . S
O279 C277 1.282 . S
C280 O281 1.306 . S
C280 O283 1.160 . S
O281 C280 1.306 . S
O281 Cd282 2.228 1_554 S
Cd282 O281 2.228 1_556 S
Cd282 O286 2.273 . S
Cd282 O290 2.277 . S
O283 C280 1.160 . S
O283 Cd284 2.203 . S
Cd284 O283 2.203 . S
Cd284 O286 2.411 1_554 S
Cd284 O287 2.333 1_554 S
Cd284 O288 2.352 . S
Cd284 O292 2.277 1_554 S
Cd284 O293 2.356 . S
C285 O290 1.209 . S
C285 O292 1.226 . S
O286 Cd282 2.273 . S
O286 Cd284 2.411 1_556 S
O286 C289 1.320 . S
O287 Cd284 2.333 1_556 S
O287 C289 1.214 . S
O288 Cd284 2.352 . S
O288 C291 1.258 . S
C289 O286 1.320 . S
C289 O287 1.214 . S
O290 Cd282 2.277 . S
O290 C285 1.209 . S
C291 O288 1.258 . S
C291 O293 1.282 . S
O292 Cd284 2.277 1_556 S
O292 C285 1.226 . S
O293 Cd284 2.356 . S
O293 C291 1.282 . S
C294 O295 1.306 . S
C294 O297 1.160 . S
O295 C294 1.306 . S
O295 Cd296 2.228 . S
Cd296 O295 2.228 . S
Cd296 O300 2.273 . S
Cd296 O304 2.277 . S
O297 C294 1.160 . S
O297 Cd298 2.203 . S
Cd298 O297 2.203 . S
Cd298 O300 2.411 . S
Cd298 O301 2.333 . S
Cd298 O302 2.352 . S
Cd298 O306 2.277 . S
Cd298 O307 2.356 . S
C299 O304 1.209 . S
C299 O306 1.226 . S
O300 Cd296 2.273 . S
O300 Cd298 2.411 . S
O300 C303 1.320 . S
O301 Cd298 2.333 . S
O301 C303 1.214 . S
O302 Cd298 2.352 . S
O302 C305 1.258 . S
C303 O300 1.320 . S
C303 O301 1.214 . S
O304 Cd296 2.277 . S
O304 C299 1.209 . S
C305 O302 1.258 . S
C305 O307 1.282 . S
O306 Cd298 2.277 . S
O306 C299 1.226 . S
O307 Cd298 2.356 . S
O307 C305 1.282 . S
C308 O309 1.306 . S
C308 O311 1.160 . S
O309 C308 1.306 . S
O309 Cd310 2.228 . S
Cd310 O309 2.228 . S
Cd310 O314 2.273 . S
Cd310 O318 2.277 . S
O311 C308 1.160 . S
O311 Cd312 2.203 . S
Cd312 O311 2.203 . S
Cd312 O314 2.411 . S
Cd312 O315 2.333 . S
Cd312 O316 2.352 . S
Cd312 O320 2.277 . S
Cd312 O321 2.356 . S
C313 O318 1.209 . S
C313 O320 1.226 . S
O314 Cd310 2.273 . S
O314 Cd312 2.411 . S
O314 C317 1.320 . S
O315 Cd312 2.333 . S
O315 C317 1.214 . S
O316 Cd312 2.352 . S
O316 C319 1.258 . S
C317 O314 1.320 . S
C317 O315 1.214 . S
O318 Cd310 2.277 . S
O318 C313 1.209 . S
C319 O316 1.258 . S
C319 O321 1.282 . S
O320 Cd312 2.277 . S
O320 C313 1.226 . S
O321 Cd312 2.356 . S
O321 C319 1.282 . S
C322 O323 1.306 . S
C322 O325 1.160 . S
O323 C322 1.306 . S
O323 Cd324 2.228 . S
Cd324 O323 2.228 . S
Cd324 O328 2.273 . S
Cd324 O332 2.277 . S
O325 C322 1.160 . S
O325 Cd326 2.203 . S
Cd326 O325 2.203 . S
Cd326 O328 2.411 . S
Cd326 O329 2.333 . S
Cd326 O330 2.352 . S
Cd326 O334 2.277 . S
Cd326 O335 2.356 . S
C327 O332 1.209 . S
C327 O334 1.226 . S
O328 Cd324 2.273 . S
O328 Cd326 2.411 . S
O328 C331 1.320 . S
O329 Cd326 2.333 . S
O329 C331 1.214 . S
O330 Cd326 2.352 . S
O330 C333 1.258 . S
C331 O328 1.320 . S
C331 O329 1.214 . S
O332 Cd324 2.277 . S
O332 C327 1.209 . S
C333 O330 1.258 . S
C333 O335 1.282 . S
O334 Cd326 2.277 . S
O334 C327 1.226 . S
O335 Cd326 2.356 . S
O335 C333 1.282 . S
O336 Mn337 2.163 . S
O336 C350 1.244 . S
Mn337 O336 2.163 . S
Mn337 O340 2.160 . S
Mn337 O341 2.221 . S
Mn337 O343 2.163 . S
Mn337 O345 2.160 . S
Mn337 O355 2.221 . S
O338 Mn339 2.087 . S
O338 C350 1.256 . S
Mn339 O338 2.087 . S
Mn339 O346 2.089 . S
Mn339 O355 2.290 . S
Mn339 O356 2.251 . S
O340 Mn337 2.160 . S
O340 C351 1.239 . S
O341 Mn337 2.221 . S
O341 Mn342 2.290 . S
O341 C352 1.278 . S
Mn342 O341 2.290 . S
Mn342 O344 2.089 . S
Mn342 O347 2.251 . S
Mn342 O348 2.087 . S
O343 Mn337 2.163 . S
O343 C353 1.244 . S
O344 Mn342 2.089 . S
O344 C351 1.256 . S
O345 Mn337 2.160 . S
O345 C354 1.239 . S
O346 Mn339 2.089 . S
O346 C354 1.256 . S
O347 Mn342 2.251 . S
O347 C352 1.241 . S
O348 Mn342 2.087 . S
O348 C353 1.256 . S
C349 O355 1.278 . S
C349 O356 1.241 . S
C350 O336 1.244 . S
C350 O338 1.256 . S
C351 O340 1.239 . S
C351 O344 1.256 . S
C352 O341 1.278 . S
C352 O347 1.241 . S
C353 O343 1.244 . S
C353 O348 1.256 . S
C354 O345 1.239 . S
C354 O346 1.256 . S
O355 Mn337 2.221 . S
O355 Mn339 2.290 . S
O355 C349 1.278 . S
O356 Mn339 2.251 . S
O356 C349 1.241 . S
O357 Mn358 2.163 . S
O357 C371 1.244 . S
Mn358 O357 2.163 . S
Mn358 O361 2.160 . S
Mn358 O362 2.221 . S
Mn358 O364 2.163 . S
Mn358 O366 2.160 . S
Mn358 O376 2.221 . S
O359 Mn360 2.087 . S
O359 C371 1.256 . S
Mn360 O359 2.087 . S
Mn360 O367 2.089 . S
Mn360 O376 2.290 . S
Mn360 O377 2.251 . S
O361 Mn358 2.160 . S
O361 C372 1.239 . S
O362 Mn358 2.221 . S
O362 Mn363 2.290 . S
O362 C373 1.278 . S
Mn363 O362 2.290 . S
Mn363 O365 2.089 . S
Mn363 O368 2.251 . S
Mn363 O369 2.087 . S
O364 Mn358 2.163 . S
O364 C374 1.244 . S
O365 Mn363 2.089 . S
O365 C372 1.256 . S
O366 Mn358 2.160 . S
O366 C375 1.239 . S
O367 Mn360 2.089 . S
O367 C375 1.256 . S
O368 Mn363 2.251 . S
O368 C373 1.241 . S
O369 Mn363 2.087 . S
O369 C374 1.256 . S
C370 O376 1.278 . S
C370 O377 1.241 . S
C371 O357 1.244 . S
C371 O359 1.256 . S
C372 O361 1.239 . S
C372 O365 1.256 . S
C373 O362 1.278 . S
C373 O368 1.241 . S
C374 O364 1.244 . S
C374 O369 1.256 . S
C375 O366 1.239 . S
C375 O367 1.256 . S
O376 Mn358 2.221 . S
O376 Mn360 2.290 . S
O376 C370 1.278 . S
O377 Mn360 2.251 . S
O377 C370 1.241 . S
O378 Mn379 2.163 . S
O378 C392 1.244 . S
Mn379 O378 2.163 . S
Mn379 O382 2.160 . S
Mn379 O383 2.221 . S
Mn379 O385 2.163 . S
Mn379 O387 2.160 . S
Mn379 O397 2.221 . S
O380 Mn381 2.087 1_545 S
O380 C392 1.256 1_545 S
Mn381 O380 2.087 1_565 S
Mn381 O388 2.089 . S
Mn381 O397 2.290 . S
Mn381 O398 2.251 1_565 S
O382 Mn379 2.160 . S
O382 C393 1.239 . S
O383 Mn379 2.221 . S
O383 Mn384 2.290 . S
O383 C394 1.278 . S
Mn384 O383 2.290 . S
Mn384 O386 2.089 . S
Mn384 O389 2.251 . S
Mn384 O390 2.087 . S
O385 Mn379 2.163 . S
O385 C395 1.244 . S
O386 Mn384 2.089 . S
O386 C393 1.256 . S
O387 Mn379 2.160 . S
O387 C396 1.239 . S
O388 Mn381 2.089 . S
O388 C396 1.256 . S
O389 Mn384 2.251 . S
O389 C394 1.241 . S
O390 Mn384 2.087 . S
O390 C395 1.256 . S
C391 O397 1.278 . S
C391 O398 1.241 1_565 S
C392 O378 1.244 . S
C392 O380 1.256 1_565 S
C393 O382 1.239 . S
C393 O386 1.256 . S
C394 O383 1.278 . S
C394 O389 1.241 . S
C395 O385 1.244 . S
C395 O390 1.256 . S
C396 O387 1.239 . S
C396 O388 1.256 . S
O397 Mn379 2.221 . S
O397 Mn381 2.290 . S
O397 C391 1.278 . S
O398 Mn381 2.251 1_545 S
O398 C391 1.241 1_545 S
O399 Mn400 2.163 . S
O399 C413 1.244 . S
Mn400 O399 2.163 . S
Mn400 O403 2.160 . S
Mn400 O404 2.221 . S
Mn400 O406 2.163 . S
Mn400 O408 2.160 . S
Mn400 O418 2.221 . S
O401 Mn402 2.087 . S
O401 C413 1.256 . S
Mn402 O401 2.087 . S
Mn402 O409 2.089 . S
Mn402 O418 2.290 . S
Mn402 O419 2.251 . S
O403 Mn400 2.160 . S
O403 C414 1.239 . S
O404 Mn400 2.221 . S
O404 Mn405 2.290 . S
O404 C415 1.278 . S
Mn405 O404 2.290 . S
Mn405 O407 2.089 . S
Mn405 O410 2.251 . S
Mn405 O411 2.087 . S
O406 Mn400 2.163 . S
O406 C416 1.244 . S
O407 Mn405 2.089 . S
O407 C414 1.256 . S
O408 Mn400 2.160 . S
O408 C417 1.239 . S
O409 Mn402 2.089 . S
O409 C417 1.256 . S
O410 Mn405 2.251 . S
O410 C415 1.241 . S
O411 Mn405 2.087 . S
O411 C416 1.256 . S
C412 O418 1.278 . S
C412 O419 1.241 . S
C413 O399 1.244 . S
C413 O401 1.256 . S
C414 O403 1.239 . S
C414 O407 1.256 . S
C415 O404 1.278 . S
C415 O410 1.241 . S
C416 O406 1.244 . S
C416 O411 1.256 . S
C417 O408 1.239 . S
C417 O409 1.256 . S
O418 Mn400 2.221 . S
O418 Mn402 2.290 . S
O418 C412 1.278 . S
O419 Mn402 2.251 . S
O419 C412 1.241 . S
O420 Mn421 2.163 . S
O420 C434 1.244 . S
Mn421 O420 2.163 . S
Mn421 O424 2.160 . S
Mn421 O425 2.221 . S
Mn421 O427 2.163 . S
Mn421 O429 2.160 . S
Mn421 O439 2.221 . S
O422 Mn423 2.087 . S
O422 C434 1.256 . S
Mn423 O422 2.087 . S
Mn423 O430 2.089 . S
Mn423 O439 2.290 . S
Mn423 O440 2.251 . S
O424 Mn421 2.160 . S
O424 C435 1.239 . S
O425 Mn421 2.221 . S
O425 Mn426 2.290 . S
O425 C436 1.278 . S
Mn426 O425 2.290 . S
Mn426 O428 2.089 . S
Mn426 O431 2.251 . S
Mn426 O432 2.087 . S
O427 Mn421 2.163 . S
O427 C437 1.244 . S
O428 Mn426 2.089 . S
O428 C435 1.256 . S
O429 Mn421 2.160 . S
O429 C438 1.239 . S
O430 Mn423 2.089 . S
O430 C438 1.256 . S
O431 Mn426 2.251 . S
O431 C436 1.241 . S
O432 Mn426 2.087 . S
O432 C437 1.256 . S
C433 O439 1.278 . S
C433 O440 1.241 . S
C434 O420 1.244 . S
C434 O422 1.256 . S
C435 O424 1.239 . S
C435 O428 1.256 . S
C436 O425 1.278 . S
C436 O431 1.241 . S
C437 O427 1.244 . S
C437 O432 1.256 . S
C438 O429 1.239 . S
C438 O430 1.256 . S
O439 Mn421 2.221 . S
O439 Mn423 2.290 . S
O439 C433 1.278 . S
O440 Mn423 2.251 . S
O440 C433 1.241 . S
O441 Mn442 2.163 . S
O441 C455 1.244 . S
Mn442 O441 2.163 . S
Mn442 O445 2.160 . S
Mn442 O446 2.221 . S
Mn442 O448 2.163 . S
Mn442 O450 2.160 . S
Mn442 O460 2.221 . S
O443 Mn444 2.087 . S
O443 C455 1.256 . S
Mn444 O443 2.087 . S
Mn444 O451 2.089 . S
Mn444 O460 2.290 . S
Mn444 O461 2.251 . S
O445 Mn442 2.160 . S
O445 C456 1.239 . S
O446 Mn442 2.221 . S
O446 Mn447 2.290 . S
O446 C457 1.278 . S
Mn447 O446 2.290 . S
Mn447 O449 2.089 . S
Mn447 O452 2.251 . S
Mn447 O453 2.087 . S
O448 Mn442 2.163 . S
O448 C458 1.244 . S
O449 Mn447 2.089 . S
O449 C456 1.256 . S
O450 Mn442 2.160 . S
O450 C459 1.239 . S
O451 Mn444 2.089 . S
O451 C459 1.256 . S
O452 Mn447 2.251 . S
O452 C457 1.241 . S
O453 Mn447 2.087 . S
O453 C458 1.256 . S
C454 O460 1.278 . S
C454 O461 1.241 . S
C455 O441 1.244 . S
C455 O443 1.256 . S
C456 O445 1.239 . S
C456 O449 1.256 . S
C457 O446 1.278 . S
C457 O452 1.241 . S
C458 O448 1.244 . S
C458 O453 1.256 . S
C459 O450 1.239 . S
C459 O451 1.256 . S
O460 Mn442 2.221 . S
O460 Mn444 2.290 . S
O460 C454 1.278 . S
O461 Mn444 2.251 . S
O461 C454 1.241 . S
O462 Mn463 2.163 . S
O462 C476 1.244 . S
Mn463 O462 2.163 . S
Mn463 O466 2.160 . S
Mn463 O467 2.221 . S
Mn463 O469 2.163 . S
Mn463 O471 2.160 . S
Mn463 O481 2.221 . S
O464 Mn465 2.087 . S
O464 C476 1.256 . S
Mn465 O464 2.087 . S
Mn465 O472 2.089 . S
Mn465 O481 2.290 . S
Mn465 O482 2.251 . S
O466 Mn463 2.160 . S
O466 C477 1.239 . S
O467 Mn463 2.221 . S
O467 Mn468 2.290 . S
O467 C478 1.278 . S
Mn468 O467 2.290 . S
Mn468 O470 2.089 . S
Mn468 O473 2.251 . S
Mn468 O474 2.087 . S
O469 Mn463 2.163 . S
O469 C479 1.244 . S
O470 Mn468 2.089 . S
O470 C477 1.256 . S
O471 Mn463 2.160 . S
O471 C480 1.239 . S
O472 Mn465 2.089 . S
O472 C480 1.256 . S
O473 Mn468 2.251 . S
O473 C478 1.241 . S
O474 Mn468 2.087 . S
O474 C479 1.256 . S
C475 O481 1.278 . S
C475 O482 1.241 . S
C476 O462 1.244 . S
C476 O464 1.256 . S
C477 O466 1.239 . S
C477 O470 1.256 . S
C478 O467 1.278 . S
C478 O473 1.241 . S
C479 O469 1.244 . S
C479 O474 1.256 . S
C480 O471 1.239 . S
C480 O472 1.256 . S
O481 Mn463 2.221 . S
O481 Mn465 2.290 . S
O481 C475 1.278 . S
O482 Mn465 2.251 . S
O482 C475 1.241 . S
O483 Mn484 2.163 . S
O483 C497 1.244 . S
Mn484 O483 2.163 . S
Mn484 O487 2.160 . S
Mn484 O488 2.221 . S
Mn484 O490 2.163 . S
Mn484 O492 2.160 . S
Mn484 O502 2.221 . S
O485 Mn486 2.087 . S
O485 C497 1.256 . S
Mn486 O485 2.087 . S
Mn486 O493 2.089 . S
Mn486 O502 2.290 . S
Mn486 O503 2.251 . S
O487 Mn484 2.160 . S
O487 C498 1.239 . S
O488 Mn484 2.221 . S
O488 Mn489 2.290 . S
O488 C499 1.278 . S
Mn489 O488 2.290 . S
Mn489 O491 2.089 1_565 S
Mn489 O494 2.251 . S
Mn489 O495 2.087 . S
O490 Mn484 2.163 . S
O490 C500 1.244 . S
O491 Mn489 2.089 1_545 S
O491 C498 1.256 1_545 S
O492 Mn484 2.160 . S
O492 C501 1.239 . S
O493 Mn486 2.089 . S
O493 C501 1.256 . S
O494 Mn489 2.251 . S
O494 C499 1.241 . S
O495 Mn489 2.087 . S
O495 C500 1.256 . S
C496 O502 1.278 . S
C496 O503 1.241 . S
C497 O483 1.244 . S
C497 O485 1.256 . S
C498 O487 1.239 . S
C498 O491 1.256 1_565 S
C499 O488 1.278 . S
C499 O494 1.241 . S
C500 O490 1.244 . S
C500 O495 1.256 . S
C501 O492 1.239 . S
C501 O493 1.256 . S
O502 Mn484 2.221 . S
O502 Mn486 2.290 . S
O502 C496 1.278 . S
O503 Mn486 2.251 . S
O503 C496 1.241 . S
O504 Mn505 2.163 . S
O504 C518 1.244 . S
Mn505 O504 2.163 . S
Mn505 O508 2.160 . S
Mn505 O509 2.221 . S
Mn505 O511 2.163 . S
Mn505 O513 2.160 . S
Mn505 O523 2.221 . S
O506 Mn507 2.087 . S
O506 C518 1.256 . S
Mn507 O506 2.087 . S
Mn507 O514 2.089 . S
Mn507 O523 2.290 . S
Mn507 O524 2.251 . S
O508 Mn505 2.160 . S
O508 C519 1.239 . S
O509 Mn505 2.221 . S
O509 Mn510 2.290 . S
O509 C520 1.278 . S
Mn510 O509 2.290 . S
Mn510 O512 2.089 . S
Mn510 O515 2.251 . S
Mn510 O516 2.087 . S
O511 Mn505 2.163 . S
O511 C521 1.244 . S
O512 Mn510 2.089 . S
O512 C519 1.256 . S
O513 Mn505 2.160 . S
O513 C522 1.239 . S
O514 Mn507 2.089 . S
O514 C522 1.256 . S
O515 Mn510 2.251 . S
O515 C520 1.241 . S
O516 Mn510 2.087 . S
O516 C521 1.256 . S
C517 O523 1.278 . S
C517 O524 1.241 . S
C518 O504 1.244 . S
C518 O506 1.256 . S
C519 O508 1.239 . S
C519 O512 1.256 . S
C520 O509 1.278 . S
C520 O515 1.241 . S
C521 O511 1.244 . S
C521 O516 1.256 . S
C522 O513 1.239 . S
C522 O514 1.256 . S
O523 Mn505 2.221 . S
O523 Mn507 2.290 . S
O523 C517 1.278 . S
O524 Mn507 2.251 . S
O524 C517 1.241 . S
O525 Mn526 2.163 . S
O525 C539 1.244 . S
Mn526 O525 2.163 . S
Mn526 O529 2.160 . S
Mn526 O530 2.221 . S
Mn526 O532 2.163 . S
Mn526 O534 2.160 . S
Mn526 O544 2.221 . S
O527 Mn528 2.087 . S
O527 C539 1.256 . S
Mn528 O527 2.087 . S
Mn528 O535 2.089 . S
Mn528 O544 2.290 . S
Mn528 O545 2.251 . S
O529 Mn526 2.160 . S
O529 C540 1.239 . S
O530 Mn526 2.221 . S
O530 Mn531 2.290 . S
O530 C541 1.278 . S
Mn531 O530 2.290 . S
Mn531 O533 2.089 . S
Mn531 O536 2.251 . S
Mn531 O537 2.087 . S
O532 Mn526 2.163 . S
O532 C542 1.244 . S
O533 Mn531 2.089 . S
O533 C540 1.256 . S
O534 Mn526 2.160 . S
O534 C543 1.239 . S
O535 Mn528 2.089 . S
O535 C543 1.256 . S
O536 Mn531 2.251 . S
O536 C541 1.241 . S
O537 Mn531 2.087 . S
O537 C542 1.256 . S
C538 O544 1.278 . S
C538 O545 1.241 . S
C539 O525 1.244 . S
C539 O527 1.256 . S
C540 O529 1.239 . S
C540 O533 1.256 . S
C541 O530 1.278 . S
C541 O536 1.241 . S
C542 O532 1.244 . S
C542 O537 1.256 . S
C543 O534 1.239 . S
C543 O535 1.256 . S
O544 Mn526 2.221 . S
O544 Mn528 2.290 . S
O544 C538 1.278 . S
O545 Mn528 2.251 . S
O545 C538 1.241 . S
O546 Mn547 2.163 . S
O546 C560 1.244 . S
Mn547 O546 2.163 . S
Mn547 O550 2.160 . S
Mn547 O551 2.221 . S
Mn547 O553 2.163 . S
Mn547 O555 2.160 . S
Mn547 O565 2.221 . S
O548 Mn549 2.087 . S
O548 C560 1.256 . S
Mn549 O548 2.087 . S
Mn549 O556 2.089 . S
Mn549 O565 2.290 . S
Mn549 O566 2.251 . S
O550 Mn547 2.160 . S
O550 C561 1.239 . S
O551 Mn547 2.221 . S
O551 Mn552 2.290 . S
O551 C562 1.278 . S
Mn552 O551 2.290 . S
Mn552 O554 2.089 . S
Mn552 O557 2.251 . S
Mn552 O558 2.087 . S
O553 Mn547 2.163 . S
O553 C563 1.244 . S
O554 Mn552 2.089 . S
O554 C561 1.256 . S
O555 Mn547 2.160 . S
O555 C564 1.239 . S
O556 Mn549 2.089 . S
O556 C564 1.256 . S
O557 Mn552 2.251 . S
O557 C562 1.241 . S
O558 Mn552 2.087 . S
O558 C563 1.256 . S
C559 O565 1.278 . S
C559 O566 1.241 . S
C560 O546 1.244 . S
C560 O548 1.256 . S
C561 O550 1.239 . S
C561 O554 1.256 . S
C562 O551 1.278 . S
C562 O557 1.241 . S
C563 O553 1.244 . S
C563 O558 1.256 . S
C564 O555 1.239 . S
C564 O556 1.256 . S
O565 Mn547 2.221 . S
O565 Mn549 2.290 . S
O565 C559 1.278 . S
O566 Mn549 2.251 . S
O566 C559 1.241 . S
O567 Mn568 2.163 . S
O567 C581 1.244 . S
Mn568 O567 2.163 . S
Mn568 O571 2.160 . S
Mn568 O572 2.221 . S
Mn568 O574 2.163 . S
Mn568 O576 2.160 . S
Mn568 O586 2.221 . S
O569 Mn570 2.087 . S
O569 C581 1.256 . S
Mn570 O569 2.087 . S
Mn570 O577 2.089 . S
Mn570 O586 2.290 . S
Mn570 O587 2.251 . S
O571 Mn568 2.160 . S
O571 C582 1.239 . S
O572 Mn568 2.221 . S
O572 Mn573 2.290 . S
O572 C583 1.278 . S
Mn573 O572 2.290 . S
Mn573 O575 2.089 . S
Mn573 O578 2.251 . S
Mn573 O579 2.087 . S
O574 Mn568 2.163 . S
O574 C584 1.244 . S
O575 Mn573 2.089 . S
O575 C582 1.256 . S
O576 Mn568 2.160 . S
O576 C585 1.239 . S
O577 Mn570 2.089 . S
O577 C585 1.256 . S
O578 Mn573 2.251 . S
O578 C583 1.241 . S
O579 Mn573 2.087 . S
O579 C584 1.256 . S
C580 O586 1.278 . S
C580 O587 1.241 . S
C581 O567 1.244 . S
C581 O569 1.256 . S
C582 O571 1.239 . S
C582 O575 1.256 . S
C583 O572 1.278 . S
C583 O578 1.241 . S
C584 O574 1.244 . S
C584 O579 1.256 . S
C585 O576 1.239 . S
C585 O577 1.256 . S
O586 Mn568 2.221 . S
O586 Mn570 2.290 . S
O586 C580 1.278 . S
O587 Mn570 2.251 . S
O587 C580 1.241 . S
O588 Mn589 2.163 . S
O588 C602 1.244 . S
Mn589 O588 2.163 . S
Mn589 O592 2.160 . S
Mn589 O593 2.221 . S
Mn589 O595 2.163 . S
Mn589 O597 2.160 . S
Mn589 O607 2.221 . S
O590 Mn591 2.087 . S
O590 C602 1.256 . S
Mn591 O590 2.087 . S
Mn591 O598 2.089 . S
Mn591 O607 2.290 . S
Mn591 O608 2.251 . S
O592 Mn589 2.160 . S
O592 C603 1.239 . S
O593 Mn589 2.221 . S
O593 Mn594 2.290 . S
O593 C604 1.278 . S
Mn594 O593 2.290 . S
Mn594 O596 2.089 . S
Mn594 O599 2.251 . S
Mn594 O600 2.087 . S
O595 Mn589 2.163 . S
O595 C605 1.244 . S
O596 Mn594 2.089 . S
O596 C603 1.256 . S
O597 Mn589 2.160 . S
O597 C606 1.239 . S
O598 Mn591 2.089 . S
O598 C606 1.256 . S
O599 Mn594 2.251 . S
O599 C604 1.241 . S
O600 Mn594 2.087 . S
O600 C605 1.256 . S
C601 O607 1.278 . S
C601 O608 1.241 . S
C602 O588 1.244 . S
C602 O590 1.256 . S
C603 O592 1.239 . S
C603 O596 1.256 . S
C604 O593 1.278 . S
C604 O599 1.241 . S
C605 O595 1.244 . S
C605 O600 1.256 . S
C606 O597 1.239 . S
C606 O598 1.256 . S
O607 Mn589 2.221 . S
O607 Mn591 2.290 . S
O607 C601 1.278 . S
O608 Mn591 2.251 . S
O608 C601 1.241 . S
O609 Mn610 2.163 . S
O609 C623 1.244 . S
Mn610 O609 2.163 . S
Mn610 O613 2.160 . S
Mn610 O614 2.221 . S
Mn610 O616 2.163 . S
Mn610 O618 2.160 . S
Mn610 O628 2.221 . S
O611 Mn612 2.087 . S
O611 C623 1.256 . S
Mn612 O611 2.087 . S
Mn612 O619 2.089 . S
Mn612 O628 2.290 . S
Mn612 O629 2.251 . S
O613 Mn610 2.160 . S
O613 C624 1.239 . S
O614 Mn610 2.221 . S
O614 Mn615 2.290 . S
O614 C625 1.278 . S
Mn615 O614 2.290 . S
Mn615 O617 2.089 . S
Mn615 O620 2.251 . S
Mn615 O621 2.087 . S
O616 Mn610 2.163 . S
O616 C626 1.244 . S
O617 Mn615 2.089 . S
O617 C624 1.256 . S
O618 Mn610 2.160 . S
O618 C627 1.239 . S
O619 Mn612 2.089 . S
O619 C627 1.256 . S
O620 Mn615 2.251 . S
O620 C625 1.241 . S
O621 Mn615 2.087 . S
O621 C626 1.256 . S
C622 O628 1.278 . S
C622 O629 1.241 . S
C623 O609 1.244 . S
C623 O611 1.256 . S
C624 O613 1.239 . S
C624 O617 1.256 . S
C625 O614 1.278 . S
C625 O620 1.241 . S
C626 O616 1.244 . S
C626 O621 1.256 . S
C627 O618 1.239 . S
C627 O619 1.256 . S
O628 Mn610 2.221 . S
O628 Mn612 2.290 . S
O628 C622 1.278 . S
O629 Mn612 2.251 . S
O629 C622 1.241 . S
O630 Mn631 2.163 . S
O630 C644 1.244 . S
Mn631 O630 2.163 . S
Mn631 O634 2.160 . S
Mn631 O635 2.221 . S
Mn631 O637 2.163 . S
Mn631 O639 2.160 . S
Mn631 O649 2.221 . S
O632 Mn633 2.087 . S
O632 C644 1.256 . S
Mn633 O632 2.087 . S
Mn633 O640 2.089 . S
Mn633 O649 2.290 . S
Mn633 O650 2.251 . S
O634 Mn631 2.160 . S
O634 C645 1.239 . S
O635 Mn631 2.221 . S
O635 Mn636 2.290 . S
O635 C646 1.278 . S
Mn636 O635 2.290 . S
Mn636 O638 2.089 . S
Mn636 O641 2.251 . S
Mn636 O642 2.087 . S
O637 Mn631 2.163 . S
O637 C647 1.244 . S
O638 Mn636 2.089 . S
O638 C645 1.256 . S
O639 Mn631 2.160 . S
O639 C648 1.239 . S
O640 Mn633 2.089 . S
O640 C648 1.256 . S
O641 Mn636 2.251 . S
O641 C646 1.241 . S
O642 Mn636 2.087 . S
O642 C647 1.256 . S
C643 O649 1.278 . S
C643 O650 1.241 . S
C644 O630 1.244 . S
C644 O632 1.256 . S
C645 O634 1.239 . S
C645 O638 1.256 . S
C646 O635 1.278 . S
C646 O641 1.241 . S
C647 O637 1.244 . S
C647 O642 1.256 . S
C648 O639 1.239 . S
C648 O640 1.256 . S
O649 Mn631 2.221 . S
O649 Mn633 2.290 . S
O649 C643 1.278 . S
O650 Mn633 2.251 . S
O650 C643 1.241 . S
O651 Mn652 2.163 . S
O651 C665 1.244 . S
Mn652 O651 2.163 . S
Mn652 O655 2.160 . S
Mn652 O656 2.221 . S
Mn652 O658 2.163 . S
Mn652 O660 2.160 . S
Mn652 O670 2.221 . S
O653 Mn654 2.087 . S
O653 C665 1.256 . S
Mn654 O653 2.087 . S
Mn654 O661 2.089 . S
Mn654 O670 2.290 . S
Mn654 O671 2.251 . S
O655 Mn652 2.160 . S
O655 C666 1.239 . S
O656 Mn652 2.221 . S
O656 Mn657 2.290 . S
O656 C667 1.278 . S
Mn657 O656 2.290 . S
Mn657 O659 2.089 . S
Mn657 O662 2.251 . S
Mn657 O663 2.087 . S
O658 Mn652 2.163 . S
O658 C668 1.244 . S
O659 Mn657 2.089 . S
O659 C666 1.256 . S
O660 Mn652 2.160 . S
O660 C669 1.239 . S
O661 Mn654 2.089 . S
O661 C669 1.256 . S
O662 Mn657 2.251 . S
O662 C667 1.241 . S
O663 Mn657 2.087 . S
O663 C668 1.256 . S
C664 O670 1.278 . S
C664 O671 1.241 . S
C665 O651 1.244 . S
C665 O653 1.256 . S
C666 O655 1.239 . S
C666 O659 1.256 . S
C667 O656 1.278 . S
C667 O662 1.241 . S
C668 O658 1.244 . S
C668 O663 1.256 . S
C669 O660 1.239 . S
C669 O661 1.256 . S
O670 Mn652 2.221 . S
O670 Mn654 2.290 . S
O670 C664 1.278 . S
O671 Mn654 2.251 . S
O671 C664 1.241 . S
C672 C673 1.369 . S
C672 C674 1.419 . S
C672 H676 0.930 . S
C673 C672 1.369 . S
C673 C682 1.429 . S
C674 C672 1.419 . S
C674 C675 1.363 . S
C674 H677 0.929 . S
C675 C674 1.363 . S
C675 C681 1.428 . S
H676 C672 0.930 . S
H677 C674 0.929 . S
S678 N679 1.613 . S
S678 N680 1.610 . S
N679 S678 1.613 . S
N679 C682 1.350 . S
N680 S678 1.610 . S
N680 C681 1.351 . S
C681 C675 1.428 . S
C681 N680 1.351 . S
C681 C682 1.434 . S
C682 C673 1.429 . S
C682 N679 1.350 . S
C682 C681 1.434 . S
C683 C684 1.369 . S
C683 C685 1.419 . S
C683 H687 0.930 . S
C684 C683 1.369 . S
C684 C693 1.429 . S
C685 C683 1.419 . S
C685 C686 1.363 . S
C685 H688 0.929 . S
C686 C685 1.363 . S
C686 C692 1.428 . S
H687 C683 0.930 . S
H688 C685 0.929 . S
S689 N690 1.626 . S
S689 N691 1.610 . S
N690 S689 1.626 . S
N690 C693 1.333 1_655 S
N691 S689 1.610 . S
N691 C692 1.351 1_655 S
C692 C686 1.428 . S
C692 N691 1.351 1_455 S
C692 C693 1.434 . S
C693 C684 1.429 . S
C693 N690 1.333 1_455 S
C693 C692 1.434 . S
C694 C695 1.369 . S
C694 C696 1.419 . S
C694 H698 0.930 . S
C695 C694 1.369 . S
C695 C704 1.429 . S
C696 C694 1.419 . S
C696 C697 1.363 . S
C696 H699 0.929 . S
C697 C696 1.363 . S
C697 C703 1.428 . S
H698 C694 0.930 . S
H699 C696 0.929 . S
S700 N701 1.613 . S
S700 N702 1.610 . S
N701 S700 1.613 . S
N701 C704 1.350 . S
N702 S700 1.610 . S
N702 C703 1.351 . S
C703 C697 1.428 . S
C703 N702 1.351 . S
C703 C704 1.434 . S
C704 C695 1.429 . S
C704 N701 1.350 . S
C704 C703 1.434 . S
C705 C706 1.369 . S
C705 C707 1.419 . S
C705 H709 0.930 . S
C706 C705 1.369 . S
C706 C715 1.429 . S
C707 C705 1.419 . S
C707 C708 1.363 1_554 S
C707 H710 0.929 1_554 S
C708 C707 1.363 1_556 S
C708 C714 1.428 1_556 S
H709 C705 0.930 . S
H710 C707 0.929 1_556 S
S711 N712 1.613 . S
S711 N713 1.610 . S
N712 S711 1.613 . S
N712 C715 1.350 . S
N713 S711 1.610 . S
N713 C714 1.351 . S
C714 C708 1.428 1_554 S
C714 N713 1.351 . S
C714 C715 1.434 . S
C715 C706 1.429 . S
C715 N712 1.350 . S
C715 C714 1.434 . S
C716 C717 1.369 . S
C716 C718 1.419 . S
C716 H720 0.930 . S
C717 C716 1.369 . S
C717 C726 1.429 . S
C718 C716 1.419 . S
C718 C719 1.363 . S
C718 H721 0.929 . S
C719 C718 1.363 . S
C719 C725 1.428 . S
H720 C716 0.930 . S
H721 C718 0.929 . S
S722 N723 1.613 . S
S722 N724 1.610 . S
N723 S722 1.613 . S
N723 C726 1.350 . S
N724 S722 1.610 . S
N724 C725 1.351 . S
C725 C719 1.428 . S
C725 N724 1.351 . S
C725 C726 1.434 . S
C726 C717 1.429 . S
C726 N723 1.350 . S
C726 C725 1.434 . S
C727 C728 1.369 . S
C727 C729 1.419 . S
C727 H731 0.930 . S
C728 C727 1.369 . S
C728 C737 1.429 . S
C729 C727 1.419 . S
C729 C730 1.363 . S
C729 H732 0.929 . S
C730 C729 1.363 . S
C730 C736 1.428 . S
H731 C727 0.930 . S
H732 C729 0.929 . S
S733 N734 1.613 . S
S733 N735 1.610 . S
N734 S733 1.613 . S
N734 C737 1.350 . S
N735 S733 1.610 . S
N735 C736 1.351 . S
C736 C730 1.428 . S
C736 N735 1.351 . S
C736 C737 1.434 . S
C737 C728 1.429 . S
C737 N734 1.350 . S
C737 C736 1.434 . S
C738 C739 1.369 . S
C738 C740 1.419 . S
C738 H742 0.930 . S
C739 C738 1.369 . S
C739 C748 1.429 . S
C740 C738 1.419 . S
C740 C741 1.363 . S
C740 H743 0.929 . S
C741 C740 1.363 . S
C741 C747 1.428 . S
H742 C738 0.930 . S
H743 C740 0.929 . S
S744 N745 1.613 . S
S744 N746 1.610 . S
N745 S744 1.613 . S
N745 C748 1.350 . S
N746 S744 1.610 . S
N746 C747 1.351 . S
C747 C741 1.428 . S
C747 N746 1.351 . S
C747 C748 1.434 . S
C748 C739 1.429 . S
C748 N745 1.350 . S
C748 C747 1.434 . S
C749 C750 1.369 1_554 S
C749 C751 1.419 . S
C749 H753 0.930 . S
C750 C749 1.369 1_556 S
C750 C759 1.429 . S
C751 C749 1.419 . S
C751 C752 1.363 . S
C751 H754 0.929 . S
C752 C751 1.363 . S
C752 C758 1.428 . S
H753 C749 0.930 . S
H754 C751 0.929 . S
S755 N756 1.613 . S
S755 N757 1.610 1_556 S
N756 S755 1.613 . S
N756 C759 1.350 . S
N757 S755 1.610 1_554 S
N757 C758 1.351 . S
C758 C752 1.428 . S
C758 N757 1.351 . S
C758 C759 1.434 1_554 S
C759 C750 1.429 . S
C759 N756 1.350 . S
C759 C758 1.434 1_556 S
C760 C761 1.369 . S
C760 C762 1.419 . S
C760 H764 0.930 . S
C761 C760 1.369 . S
C761 C770 1.429 . S
C762 C760 1.419 . S
C762 C763 1.363 . S
C762 H765 0.929 . S
C763 C762 1.363 . S
C763 C769 1.428 . S
H764 C760 0.930 . S
H765 C762 0.929 . S
S766 N767 1.613 . S
S766 N768 1.610 . S
N767 S766 1.613 . S
N767 C770 1.350 . S
N768 S766 1.610 . S
N768 C769 1.351 . S
C769 C763 1.428 . S
C769 N768 1.351 . S
C769 C770 1.434 . S
C770 C761 1.429 . S
C770 N767 1.350 . S
C770 C769 1.434 . S
C771 C772 1.369 . S
C771 C773 1.419 . S
C771 H775 0.930 . S
C772 C771 1.369 . S
C772 C781 1.429 . S
C773 C771 1.419 . S
C773 C774 1.363 1_545 S
C773 H776 0.929 . S
C774 C773 1.363 1_565 S
C774 C780 1.428 1_565 S
H775 C771 0.930 . S
H776 C773 0.929 . S
S777 N778 1.613 . S
S777 N779 1.610 . S
N778 S777 1.613 . S
N778 C781 1.350 . S
N779 S777 1.610 . S
N779 C780 1.351 . S
C780 C774 1.428 1_545 S
C780 N779 1.351 . S
C780 C781 1.434 . S
C781 C772 1.429 . S
C781 N778 1.350 . S
C781 C780 1.434 . S
C782 C783 1.369 1_565 S
C782 C784 1.419 . S
C782 H786 0.930 . S
C783 C782 1.369 1_545 S
C783 C792 1.429 . S
C784 C782 1.419 . S
C784 C785 1.363 . S
C784 H787 0.929 . S
C785 C784 1.363 . S
C785 C791 1.428 1_565 S
H786 C782 0.930 . S
H787 C784 0.929 . S
S788 N789 1.613 . S
S788 N790 1.610 . S
N789 S788 1.613 . S
N789 C792 1.350 . S
N790 S788 1.610 . S
N790 C791 1.351 . S
C791 C785 1.428 1_545 S
C791 N790 1.351 . S
C791 C792 1.434 . S
C792 C783 1.429 . S
C792 N789 1.350 . S
C792 C791 1.434 . S
C793 C794 1.369 . S
C793 C795 1.419 . S
C793 H797 0.930 . S
C794 C793 1.369 . S
C794 C803 1.429 . S
C795 C793 1.419 . S
C795 C796 1.363 . S
C795 H798 0.929 . S
C796 C795 1.363 . S
C796 C802 1.428 . S
H797 C793 0.930 . S
H798 C795 0.929 . S
S799 N800 1.613 1_545 S
S799 N801 1.610 . S
N800 S799 1.613 1_565 S
N800 C803 1.350 1_565 S
N801 S799 1.610 . S
N801 C802 1.351 . S
C802 C796 1.428 . S
C802 N801 1.351 . S
C802 C803 1.434 . S
C803 C794 1.429 . S
C803 N800 1.350 1_545 S
C803 C802 1.434 . S
C804 C805 1.369 . S
C804 C806 1.419 . S
C804 H808 0.930 . S
C805 C804 1.369 . S
C805 C814 1.429 . S
C806 C804 1.419 . S
C806 C807 1.363 . S
C806 H809 0.929 . S
C807 C806 1.363 . S
C807 C813 1.428 . S
H808 C804 0.930 . S
H809 C806 0.929 . S
S810 N811 1.613 . S
S810 N812 1.610 1_545 S
N811 S810 1.613 . S
N811 C814 1.350 1_545 S
N812 S810 1.610 1_565 S
N812 C813 1.351 . S
C813 C807 1.428 . S
C813 N812 1.351 . S
C813 C814 1.434 . S
C814 C805 1.429 . S
C814 N811 1.350 1_565 S
C814 C813 1.434 . S
C815 C816 1.369 . S
C815 C817 1.419 . S
C815 H819 0.930 . S
C816 C815 1.369 . S
C816 C825 1.429 . S
C817 C815 1.419 . S
C817 C818 1.363 . S
C817 H820 0.929 1_545 S
C818 C817 1.363 . S
C818 C824 1.428 . S
H819 C815 0.930 . S
H820 C817 0.929 1_565 S
S821 N822 1.613 . S
S821 N823 1.610 . S
N822 S821 1.613 . S
N822 C825 1.350 . S
N823 S821 1.610 . S
N823 C824 1.351 . S
C824 C818 1.428 . S
C824 N823 1.351 . S
C824 C825 1.434 . S
C825 C816 1.429 . S
C825 N822 1.350 . S
C825 C824 1.434 . S
C826 C827 1.369 . S
C826 C828 1.419 . S
C826 H830 0.930 . S
C827 C826 1.369 . S
C827 C836 1.429 . S
C828 C826 1.419 . S
C828 C829 1.363 . S
C828 H831 0.929 . S
C829 C828 1.363 . S
C829 C835 1.428 . S
H830 C826 0.930 . S
H831 C828 0.929 . S
S832 N833 1.613 . S
S832 N834 1.610 . S
N833 S832 1.613 . S
N833 C836 1.350 . S
N834 S832 1.610 . S
N834 C835 1.351 . S
C835 C829 1.428 . S
C835 N834 1.351 . S
C835 C836 1.434 . S
C836 C827 1.429 . S
C836 N833 1.350 . S
C836 C835 1.434 . S
C837 C838 1.369 1_545 S
C837 C839 1.419 . S
C837 H841 0.930 1_545 S
C838 C837 1.369 1_565 S
C838 C847 1.429 1_565 S
C839 C837 1.419 . S
C839 C840 1.363 . S
C839 H842 0.929 . S
C840 C839 1.363 . S
C840 C846 1.428 . S
H841 C837 0.930 1_565 S
H842 C839 0.929 . S
S843 N844 1.613 . S
S843 N845 1.610 . S
N844 S843 1.613 . S
N844 C847 1.350 . S
N845 S843 1.610 . S
N845 C846 1.351 . S
C846 C840 1.428 . S
C846 N845 1.351 . S
C846 C847 1.434 . S
C847 C838 1.429 1_545 S
C847 N844 1.350 . S
C847 C846 1.434 . S
C848 C849 1.369 . S
C848 C850 1.419 . S
C848 H852 0.930 . S
C849 C848 1.369 . S
C849 C858 1.429 . S
C850 C848 1.419 . S
C850 C851 1.363 . S
C850 H853 0.929 . S
C851 C850 1.363 . S
C851 C857 1.428 . S
H852 C848 0.930 . S
H853 C850 0.929 . S
S854 N855 1.613 . S
S854 N856 1.610 . S
N855 S854 1.613 . S
N855 C858 1.350 . S
N856 S854 1.610 . S
N856 C857 1.351 . S
C857 C851 1.428 . S
C857 N856 1.351 . S
C857 C858 1.434 . S
C858 C849 1.429 . S
C858 N855 1.350 . S
C858 C857 1.434 . S
C859 C860 1.369 . S
C859 C861 1.419 . S
C859 H863 0.930 . S
C860 C859 1.369 . S
C860 C869 1.429 . S
C861 C859 1.419 . S
C861 C862 1.363 . S
C861 H864 0.929 . S
C862 C861 1.363 . S
C862 C868 1.428 . S
H863 C859 0.930 . S
H864 C861 0.929 . S
S865 N866 1.613 1_554 S
S865 N867 1.610 1_554 S
N866 S865 1.613 1_556 S
N866 C869 1.350 . S
N867 S865 1.610 1_556 S
N867 C868 1.351 . S
C868 C862 1.428 . S
C868 N867 1.351 . S
C868 C869 1.434 . S
C869 C860 1.429 . S
C869 N866 1.350 . S
C869 C868 1.434 . S
C870 C871 1.369 . S
C870 C872 1.419 . S
C870 H874 0.930 . S
C871 C870 1.369 . S
C871 C880 1.429 . S
C872 C870 1.419 . S
C872 C873 1.363 1_455 S
C872 H875 0.929 . S
C873 C872 1.363 1_655 S
C873 C879 1.430 . S
H874 C870 0.930 . S
H875 C872 0.929 . S
S876 N877 1.613 1_655 S
S876 N878 1.610 . S
N877 S876 1.613 1_455 S
N877 C880 1.350 . S
N878 S876 1.610 . S
N878 C879 1.362 . S
C879 C873 1.430 . S
C879 N878 1.362 . S
C879 C880 1.421 1_655 S
C880 C871 1.429 . S
C880 N877 1.350 . S
C880 C879 1.421 1_455 S
C881 C882 1.369 . S
C881 C883 1.419 . S
C881 H885 0.930 . S
C882 C881 1.369 . S
C882 C891 1.429 . S
C883 C881 1.419 . S
C883 C884 1.363 . S
C883 H886 0.929 . S
C884 C883 1.363 . S
C884 C890 1.428 . S
H885 C881 0.930 . S
H886 C883 0.929 . S
S887 N888 1.613 . S
S887 N889 1.610 . S
N888 S887 1.613 . S
N888 C891 1.350 . S
N889 S887 1.610 . S
N889 C890 1.351 . S
C890 C884 1.428 . S
C890 N889 1.351 . S
C890 C891 1.434 . S
C891 C882 1.429 . S
C891 N888 1.350 . S
C891 C890 1.434 . S
C892 C893 1.369 . S
C892 C894 1.419 1_655 S
C892 H896 0.930 . S
C893 C892 1.369 . S
C893 C902 1.429 . S
C894 C892 1.419 1_455 S
C894 C895 1.363 . S
C894 H897 0.929 . S
C895 C894 1.363 . S
C895 C901 1.428 . S
H896 C892 0.930 . S
H897 C894 0.929 . S
S898 N899 1.613 1_455 S
S898 N900 1.610 . S
N899 S898 1.613 1_655 S
N899 C902 1.350 . S
N900 S898 1.610 . S
N900 C901 1.351 . S
C901 C895 1.428 . S
C901 N900 1.351 . S
C901 C902 1.434 1_455 S
C902 C893 1.429 . S
C902 N899 1.350 . S
C902 C901 1.434 1_655 S
C903 C904 1.369 . S
C903 C905 1.419 . S
C903 H907 0.930 . S
C904 C903 1.369 . S
C904 C913 1.429 . S
C905 C903 1.419 . S
C905 C906 1.363 . S
C905 H908 0.929 . S
C906 C905 1.363 . S
C906 C912 1.428 . S
H907 C903 0.930 . S
H908 C905 0.929 . S
S909 N910 1.613 . S
S909 N911 1.610 . S
N910 S909 1.613 . S
N910 C913 1.350 . S
N911 S909 1.610 . S
N911 C912 1.351 . S
C912 C906 1.428 . S
C912 N911 1.351 . S
C912 C913 1.434 . S
C913 C904 1.429 . S
C913 N910 1.350 . S
C913 C912 1.434 . S
C914 C915 1.369 . S
C914 C916 1.419 . S
C914 H918 0.930 . S
C915 C914 1.369 . S
C915 C924 1.429 . S
C916 C914 1.419 . S
C916 C917 1.363 1_455 S
C916 H919 0.928 1_455 S
C917 C916 1.363 1_655 S
C917 C923 1.428 . S
H918 C914 0.930 . S
H919 C916 0.928 1_655 S
S920 N921 1.613 1_655 S
S920 N922 1.610 . S
N921 S920 1.613 1_455 S
N921 C924 1.350 . S
N922 S920 1.610 . S
N922 C923 1.351 . S
C923 C917 1.428 . S
C923 N922 1.351 . S
C923 C924 1.434 1_655 S
C924 C915 1.429 . S
C924 N921 1.350 . S
C924 C923 1.434 1_455 S
C925 C926 1.369 . S
C925 C927 1.419 . S
C925 H929 0.930 . S
C926 C925 1.369 . S
C926 C935 1.429 . S
C927 C925 1.419 . S
C927 C928 1.363 . S
C927 H930 0.929 . S
C928 C927 1.363 . S
C928 C934 1.428 . S
H929 C925 0.930 . S
H930 C927 0.929 . S
S931 N932 1.613 . S
S931 N933 1.610 . S
N932 S931 1.613 . S
N932 C935 1.350 . S
N933 S931 1.610 . S
N933 C934 1.351 . S
C934 C928 1.428 . S
C934 N933 1.351 . S
C934 C935 1.434 . S
C935 C926 1.429 . S
C935 N932 1.350 . S
C935 C934 1.434 . S
C936 C937 1.369 . S
C936 C938 1.419 . S
C936 H940 0.930 . S
C937 C936 1.369 . S
C937 C946 1.429 . S
C938 C936 1.419 . S
C938 C939 1.363 . S
C938 H941 0.929 . S
C939 C938 1.363 . S
C939 C945 1.428 . S
H940 C936 0.930 . S
H941 C938 0.929 . S
S942 N943 1.613 . S
S942 N944 1.610 . S
N943 S942 1.613 . S
N943 C946 1.350 . S
N944 S942 1.610 . S
N944 C945 1.351 . S
C945 C939 1.428 . S
C945 N944 1.351 . S
C945 C946 1.434 . S
C946 C937 1.429 . S
C946 N943 1.350 . S
C946 C945 1.434 . S
C947 C948 1.369 . S
C947 C949 1.419 . S
C947 H951 0.930 . S
C948 C947 1.369 . S
C948 C957 1.429 . S
C949 C947 1.419 . S
C949 C950 1.363 . S
C949 H952 0.929 . S
C950 C949 1.363 . S
C950 C956 1.428 . S
H951 C947 0.930 . S
H952 C949 0.929 . S
S953 N954 1.613 . S
S953 N955 1.610 1_455 S
N954 S953 1.613 . S
N954 C957 1.350 1_455 S
N955 S953 1.610 1_655 S
N955 C956 1.351 . S
C956 C950 1.428 . S
C956 N955 1.351 . S
C956 C957 1.434 . S
C957 C948 1.429 . S
C957 N954 1.350 1_655 S
C957 C956 1.434 . S
C958 C959 1.369 . S
C958 C960 1.419 . S
C958 H962 0.930 . S
C959 C958 1.369 . S
C959 C968 1.429 . S
C960 C958 1.419 . S
C960 C961 1.363 . S
C960 H963 0.929 . S
C961 C960 1.363 . S
C961 C967 1.428 . S
H962 C958 0.930 . S
H963 C960 0.929 . S
S964 N965 1.613 . S
S964 N966 1.610 . S
N965 S964 1.613 . S
N965 C968 1.350 . S
N966 S964 1.610 . S
N966 C967 1.351 . S
C967 C961 1.428 . S
C967 N966 1.351 . S
C967 C968 1.434 . S
C968 C959 1.429 . S
C968 N965 1.350 . S
C968 C967 1.434 . S
C969 C970 1.369 . S
C969 C971 1.419 1_556 S
C969 H973 0.930 . S
C970 C969 1.369 . S
C970 C979 1.429 . S
C971 C969 1.419 1_554 S
C971 C972 1.363 . S
C971 H974 0.929 . S
C972 C971 1.363 . S
C972 C978 1.428 . S
H973 C969 0.930 . S
H974 C971 0.929 . S
S975 N976 1.613 1_554 S
S975 N977 1.610 . S
N976 S975 1.613 1_556 S
N976 C979 1.350 . S
N977 S975 1.610 . S
N977 C978 1.351 . S
C978 C972 1.428 . S
C978 N977 1.351 . S
C978 C979 1.434 1_554 S
C979 C970 1.429 . S
C979 N976 1.350 . S
C979 C978 1.434 1_556 S
C980 C981 1.369 . S
C980 C982 1.419 . S
C980 H984 0.930 . S
C981 C980 1.369 . S
C981 C990 1.429 . S
C982 C980 1.419 . S
C982 C983 1.363 . S
C982 H985 0.929 . S
C983 C982 1.363 . S
C983 C989 1.428 . S
H984 C980 0.930 . S
H985 C982 0.929 . S
S986 N987 1.613 . S
S986 N988 1.610 . S
N987 S986 1.613 . S
N987 C990 1.350 . S
N988 S986 1.610 . S
N988 C989 1.351 . S
C989 C983 1.428 . S
C989 N988 1.351 . S
C989 C990 1.434 . S
C990 C981 1.429 . S
C990 N987 1.350 . S
C990 C989 1.434 . S
C991 C992 1.369 . S
C991 C993 1.419 . S
C991 H995 0.930 . S
C992 C991 1.369 . S
C992 C1001 1.429 . S
C993 C991 1.419 . S
C993 C994 1.363 . S
C993 H996 0.929 . S
C994 C993 1.363 . S
C994 C1000 1.428 . S
H995 C991 0.930 . S
H996 C993 0.929 . S
S997 N998 1.613 . S
S997 N999 1.610 . S
N998 S997 1.613 . S
N998 C1001 1.350 . S
N999 S997 1.610 . S
N999 C1000 1.351 . S
C1000 C994 1.428 . S
C1000 N999 1.351 . S
C1000 C1001 1.434 . S
C1001 C992 1.429 . S
C1001 N998 1.350 . S
C1001 C1000 1.434 . S
C1002 C1003 1.369 . S
C1002 C1004 1.419 . S
C1002 H1006 0.930 . S
C1003 C1002 1.369 . S
C1003 C1012 1.429 . S
C1004 C1002 1.419 . S
C1004 C1005 1.363 . S
C1004 H1007 0.929 . S
C1005 C1004 1.363 . S
C1005 C1011 1.428 . S
H1006 C1002 0.930 . S
H1007 C1004 0.929 . S
S1008 N1009 1.613 . S
S1008 N1010 1.610 . S
N1009 S1008 1.613 . S
N1009 C1012 1.350 . S
N1010 S1008 1.610 . S
N1010 C1011 1.351 . S
C1011 C1005 1.428 . S
C1011 N1010 1.351 . S
C1011 C1012 1.434 . S
C1012 C1003 1.429 . S
C1012 N1009 1.350 . S
C1012 C1011 1.434 . S
C1013 C1014 1.369 . S
C1013 C1015 1.419 1_554 S
C1013 H1017 0.930 1_655 S
C1014 C1013 1.369 . S
C1014 C1023 1.429 . S
C1015 C1013 1.419 1_556 S
C1015 C1016 1.363 . S
C1015 H1018 0.929 1_655 S
C1016 C1015 1.363 . S
C1016 C1022 1.417 1_556 S
H1017 C1013 0.930 1_455 S
H1018 C1015 0.929 1_455 S
S1019 N1020 1.613 . S
S1019 N1021 1.610 1_554 S
N1020 S1019 1.613 . S
N1020 C1023 1.350 . S
N1021 S1019 1.610 1_556 S
N1021 C1022 1.345 1_556 S
C1022 C1016 1.417 1_554 S
C1022 N1021 1.345 1_554 S
C1022 C1023 1.454 . S
C1023 C1014 1.429 . S
C1023 N1020 1.350 . S
C1023 C1022 1.454 . S
C1024 C1025 1.369 . S
C1024 C1026 1.419 . S
C1024 H1028 0.930 . S
C1025 C1024 1.369 . S
C1025 C1034 1.429 1_565 S
C1026 C1024 1.419 . S
C1026 C1027 1.363 . S
C1026 H1029 0.929 . S
C1027 C1026 1.363 . S
C1027 C1033 1.428 1_565 S
H1028 C1024 0.930 . S
H1029 C1026 0.929 . S
S1030 N1031 1.613 . S
S1030 N1032 1.610 . S
N1031 S1030 1.613 . S
N1031 C1034 1.350 . S
N1032 S1030 1.610 . S
N1032 C1033 1.351 . S
C1033 C1027 1.428 1_545 S
C1033 N1032 1.351 . S
C1033 C1034 1.434 . S
C1034 C1025 1.429 1_545 S
C1034 N1031 1.350 . S
C1034 C1033 1.434 . S
C1035 C1036 1.369 . S
C1035 C1037 1.419 . S
C1035 H1039 0.930 . S
C1036 C1035 1.369 . S
C1036 C1045 1.429 . S
C1037 C1035 1.419 . S
C1037 C1038 1.363 . S
C1037 H1040 0.929 . S
C1038 C1037 1.363 . S
C1038 C1044 1.428 . S
H1039 C1035 0.930 . S
H1040 C1037 0.929 . S
S1041 N1042 1.613 . S
S1041 N1043 1.610 . S
N1042 S1041 1.613 . S
N1042 C1045 1.350 . S
N1043 S1041 1.610 . S
N1043 C1044 1.351 . S
C1044 C1038 1.428 . S
C1044 N1043 1.351 . S
C1044 C1045 1.434 . S
C1045 C1036 1.429 . S
C1045 N1042 1.350 . S
C1045 C1044 1.434 . S
C1046 C1047 1.369 . S
C1046 C1048 1.419 . S
C1046 H1050 0.930 . S
C1047 C1046 1.369 . S
C1047 C1056 1.429 . S
C1048 C1046 1.419 . S
C1048 C1049 1.363 . S
C1048 H1051 0.929 . S
C1049 C1048 1.363 . S
C1049 C1055 1.428 . S
H1050 C1046 0.930 . S
H1051 C1048 0.929 . S
S1052 N1053 1.613 . S
S1052 N1054 1.610 . S
N1053 S1052 1.613 . S
N1053 C1056 1.350 . S
N1054 S1052 1.610 . S
N1054 C1055 1.351 . S
C1055 C1049 1.428 . S
C1055 N1054 1.351 . S
C1055 C1056 1.434 . S
C1056 C1047 1.429 . S
C1056 N1053 1.350 . S
C1056 C1055 1.434 . S
C1057 C1058 1.369 . S
C1057 C1059 1.419 . S
C1057 H1061 0.930 . S
C1058 C1057 1.369 . S
C1058 C1067 1.429 . S
C1059 C1057 1.419 . S
C1059 C1060 1.363 . S
C1059 H1062 0.929 . S
C1060 C1059 1.363 . S
C1060 C1066 1.428 . S
H1061 C1057 0.930 . S
H1062 C1059 0.929 . S
S1063 N1064 1.613 . S
S1063 N1065 1.610 . S
N1064 S1063 1.613 . S
N1064 C1067 1.350 . S
N1065 S1063 1.610 . S
N1065 C1066 1.351 . S
C1066 C1060 1.428 . S
C1066 N1065 1.351 . S
C1066 C1067 1.434 . S
C1067 C1058 1.429 . S
C1067 N1064 1.350 . S
C1067 C1066 1.434 . S
C1068 C1069 1.369 . S
C1068 C1070 1.419 . S
C1068 H1072 0.930 . S
C1069 C1068 1.369 . S
C1069 C1078 1.429 . S
C1070 C1068 1.419 . S
C1070 C1071 1.363 . S
C1070 H1073 0.929 . S
C1071 C1070 1.363 . S
C1071 C1077 1.428 . S
H1072 C1068 0.930 . S
H1073 C1070 0.929 . S
S1074 N1075 1.613 . S
S1074 N1076 1.610 . S
N1075 S1074 1.613 . S
N1075 C1078 1.350 . S
N1076 S1074 1.610 . S
N1076 C1077 1.351 . S
C1077 C1071 1.428 . S
C1077 N1076 1.351 . S
C1077 C1078 1.434 . S
C1078 C1069 1.429 . S
C1078 N1075 1.350 . S
C1078 C1077 1.434 . S
C1079 C1080 1.369 1_545 S
C1079 C1081 1.419 . S
C1079 H1083 0.930 . S
C1080 C1079 1.369 1_565 S
C1080 C1089 1.436 . S
C1081 C1079 1.419 . S
C1081 C1082 1.363 . S
C1081 H1084 0.929 . S
C1082 C1081 1.363 . S
C1082 C1088 1.428 . S
H1083 C1079 0.930 . S
H1084 C1081 0.929 . S
S1085 N1086 1.613 . S
S1085 N1087 1.610 1_565 S
N1086 S1085 1.613 . S
N1086 C1089 1.369 . S
N1087 S1085 1.610 1_545 S
N1087 C1088 1.351 . S
C1088 C1082 1.428 . S
C1088 N1087 1.351 . S
C1088 C1089 1.406 1_545 S
C1089 C1080 1.436 . S
C1089 N1086 1.369 . S
C1089 C1088 1.406 1_565 S
C1090 C1091 1.369 . S
C1090 C1092 1.419 . S
C1090 H1094 0.930 . S
C1091 C1090 1.369 . S
C1091 C1100 1.429 . S
C1092 C1090 1.419 . S
C1092 C1093 1.363 . S
C1092 H1095 0.929 . S
C1093 C1092 1.363 . S
C1093 C1099 1.428 . S
H1094 C1090 0.930 . S
H1095 C1092 0.929 . S
S1096 N1097 1.613 . S
S1096 N1098 1.610 . S
N1097 S1096 1.613 . S
N1097 C1100 1.350 1_545 S
N1098 S1096 1.610 . S
N1098 C1099 1.351 1_545 S
C1099 C1093 1.428 . S
C1099 N1098 1.351 1_565 S
C1099 C1100 1.434 . S
C1100 C1091 1.429 . S
C1100 N1097 1.350 1_565 S
C1100 C1099 1.434 . S
C1101 C1102 1.369 . S
C1101 C1103 1.419 . S
C1101 H1105 0.930 . S
C1102 C1101 1.369 . S
C1102 C1111 1.429 . S
C1103 C1101 1.419 . S
C1103 C1104 1.363 . S
C1103 H1106 0.929 . S
C1104 C1103 1.363 . S
C1104 C1110 1.428 . S
H1105 C1101 0.930 . S
H1106 C1103 0.929 . S
S1107 N1108 1.613 . S
S1107 N1109 1.610 1_545 S
N1108 S1107 1.613 . S
N1108 C1111 1.350 . S
N1109 S1107 1.610 1_565 S
N1109 C1110 1.351 1_565 S
C1110 C1104 1.428 . S
C1110 N1109 1.351 1_545 S
C1110 C1111 1.434 . S
C1111 C1102 1.429 . S
C1111 N1108 1.350 . S
C1111 C1110 1.434 . S
C1112 C1113 1.369 . S
C1112 C1114 1.419 . S
C1112 H1116 0.930 . S
C1113 C1112 1.369 . S
C1113 C1122 1.429 . S
C1114 C1112 1.419 . S
C1114 C1115 1.363 . S
C1114 H1117 0.929 . S
C1115 C1114 1.363 . S
C1115 C1121 1.428 . S
H1116 C1112 0.930 . S
H1117 C1114 0.929 . S
S1118 N1119 1.613 . S
S1118 N1120 1.610 . S
N1119 S1118 1.613 . S
N1119 C1122 1.350 . S
N1120 S1118 1.610 . S
N1120 C1121 1.351 . S
C1121 C1115 1.428 . S
C1121 N1120 1.351 . S
C1121 C1122 1.434 . S
C1122 C1113 1.429 . S
C1122 N1119 1.350 . S
C1122 C1121 1.434 . S
C1123 C1124 1.369 . S
C1123 C1125 1.419 . S
C1123 H1127 0.930 . S
C1124 C1123 1.369 . S
C1124 C1133 1.429 . S
C1125 C1123 1.419 . S
C1125 C1126 1.363 . S
C1125 H1128 0.929 . S
C1126 C1125 1.363 . S
C1126 C1132 1.428 . S
H1127 C1123 0.930 . S
H1128 C1125 0.929 . S
S1129 N1130 1.613 . S
S1129 N1131 1.610 . S
N1130 S1129 1.613 . S
N1130 C1133 1.350 . S
N1131 S1129 1.610 . S
N1131 C1132 1.351 . S
C1132 C1126 1.428 . S
C1132 N1131 1.351 . S
C1132 C1133 1.434 . S
C1133 C1124 1.429 . S
C1133 N1130 1.350 . S
C1133 C1132 1.434 . S
C1134 C1135 1.369 . S
C1134 C1136 1.419 1_655 S
C1134 H1138 0.930 . S
C1135 C1134 1.369 . S
C1135 C1144 1.429 . S
C1136 C1134 1.419 1_455 S
C1136 C1137 1.363 . S
C1136 H1139 0.929 . S
C1137 C1136 1.363 . S
C1137 C1143 1.428 . S
H1138 C1134 0.930 . S
H1139 C1136 0.929 . S
S1140 N1141 1.613 1_455 S
S1140 N1142 1.610 . S
N1141 S1140 1.613 1_655 S
N1141 C1144 1.350 . S
N1142 S1140 1.610 . S
N1142 C1143 1.351 . S
C1143 C1137 1.428 . S
C1143 N1142 1.351 . S
C1143 C1144 1.434 1_455 S
C1144 C1135 1.429 . S
C1144 N1141 1.350 . S
C1144 C1143 1.434 1_655 S
C1145 C1146 1.369 . S
C1145 C1147 1.419 . S
C1145 H1149 0.930 . S
C1146 C1145 1.369 . S
C1146 C1155 1.429 . S
C1147 C1145 1.419 . S
C1147 C1148 1.363 . S
C1147 H1150 0.929 . S
C1148 C1147 1.363 . S
C1148 C1154 1.428 . S
H1149 C1145 0.930 . S
H1150 C1147 0.929 . S
S1151 N1152 1.613 . S
S1151 N1153 1.610 . S
N1152 S1151 1.613 . S
N1152 C1155 1.350 . S
N1153 S1151 1.610 . S
N1153 C1154 1.351 . S
C1154 C1148 1.428 . S
C1154 N1153 1.351 . S
C1154 C1155 1.434 . S
C1155 C1146 1.429 . S
C1155 N1152 1.350 . S
C1155 C1154 1.434 . S
C1156 C1157 1.369 . S
C1156 C1158 1.419 1_445 S
C1156 H1160 0.930 1_545 S
C1157 C1156 1.369 . S
C1157 C1166 1.429 . S
C1158 C1156 1.419 1_665 S
C1158 C1159 1.363 1_565 S
C1158 H1161 0.929 . S
C1159 C1158 1.363 1_545 S
C1159 C1165 1.428 1_655 S
H1160 C1156 0.930 1_565 S
H1161 C1158 0.929 . S
S1162 N1163 1.613 . S
S1162 N1164 1.610 . S
N1163 S1162 1.613 . S
N1163 C1166 1.350 . S
N1164 S1162 1.610 . S
N1164 C1165 1.351 . S
C1165 C1159 1.428 1_455 S
C1165 N1164 1.351 . S
C1165 C1166 1.434 . S
C1166 C1157 1.429 . S
C1166 N1163 1.350 . S
C1166 C1165 1.434 . S
C1167 C1168 1.369 . S
C1167 C1169 1.419 . S
C1167 H1171 0.930 . S
C1168 C1167 1.369 . S
C1168 C1177 1.429 . S
C1169 C1167 1.419 . S
C1169 C1170 1.363 . S
C1169 H1172 0.929 . S
C1170 C1169 1.363 . S
C1170 C1176 1.428 . S
H1171 C1167 0.930 . S
H1172 C1169 0.929 . S
S1173 N1174 1.613 . S
S1173 N1175 1.610 . S
N1174 S1173 1.613 . S
N1174 C1177 1.350 . S
N1175 S1173 1.610 . S
N1175 C1176 1.351 . S
C1176 C1170 1.428 . S
C1176 N1175 1.351 . S
C1176 C1177 1.434 . S
C1177 C1168 1.429 . S
C1177 N1174 1.350 . S
C1177 C1176 1.434 . S
C1178 C1179 1.369 . S
C1178 C1180 1.419 1_655 S
C1178 H1182 0.930 . S
C1179 C1178 1.369 . S
C1179 C1188 1.429 . S
C1180 C1178 1.419 1_455 S
C1180 C1181 1.363 . S
C1180 H1183 0.929 . S
C1181 C1180 1.363 . S
C1181 C1187 1.428 . S
H1182 C1178 0.930 . S
H1183 C1180 0.929 . S
S1184 N1185 1.613 1_455 S
S1184 N1186 1.610 . S
N1185 S1184 1.613 1_655 S
N1185 C1188 1.350 . S
N1186 S1184 1.610 . S
N1186 C1187 1.351 . S
C1187 C1181 1.428 . S
C1187 N1186 1.351 . S
C1187 C1188 1.434 1_455 S
C1188 C1179 1.429 . S
C1188 N1185 1.350 . S
C1188 C1187 1.434 1_655 S
C1189 C1190 1.369 . S
C1189 C1191 1.419 . S
C1189 H1193 0.930 . S
C1190 C1189 1.369 . S
C1190 C1199 1.429 . S
C1191 C1189 1.419 . S
C1191 C1192 1.363 . S
C1191 H1194 0.929 . S
C1192 C1191 1.363 . S
C1192 C1198 1.428 . S
H1193 C1189 0.930 . S
H1194 C1191 0.929 . S
S1195 N1196 1.613 . S
S1195 N1197 1.610 . S
N1196 S1195 1.613 . S
N1196 C1199 1.350 . S
N1197 S1195 1.610 . S
N1197 C1198 1.351 . S
C1198 C1192 1.428 . S
C1198 N1197 1.351 . S
C1198 C1199 1.434 . S
C1199 C1190 1.429 . S
C1199 N1196 1.350 . S
C1199 C1198 1.434 . S
C1200 C1201 1.369 . S
C1200 C1202 1.419 . S
C1200 H1204 0.930 . S
C1201 C1200 1.369 . S
C1201 C1210 1.429 . S
C1202 C1200 1.419 . S
C1202 C1203 1.363 . S
C1202 H1205 0.929 . S
C1203 C1202 1.363 . S
C1203 C1209 1.428 . S
H1204 C1200 0.930 . S
H1205 C1202 0.929 . S
S1206 N1207 1.613 . S
S1206 N1208 1.610 . S
N1207 S1206 1.613 . S
N1207 C1210 1.350 . S
N1208 S1206 1.610 . S
N1208 C1209 1.351 . S
C1209 C1203 1.428 . S
C1209 N1208 1.351 . S
C1209 C1210 1.434 . S
C1210 C1201 1.429 . S
C1210 N1207 1.350 . S
C1210 C1209 1.434 . S
C1211 C1212 1.369 . S
C1211 C1213 1.419 . S
C1211 H1215 0.930 . S
C1212 C1211 1.369 . S
C1212 C1221 1.429 . S
C1213 C1211 1.419 . S
C1213 C1214 1.363 1_554 S
C1213 H1216 0.929 1_554 S
C1214 C1213 1.363 1_556 S
C1214 C1220 1.428 1_556 S
H1215 C1211 0.930 . S
H1216 C1213 0.929 1_556 S
S1217 N1218 1.613 . S
S1217 N1219 1.610 . S
N1218 S1217 1.613 . S
N1218 C1221 1.350 . S
N1219 S1217 1.610 . S
N1219 C1220 1.351 . S
C1220 C1214 1.428 1_554 S
C1220 N1219 1.351 . S
C1220 C1221 1.434 . S
C1221 C1212 1.429 . S
C1221 N1218 1.350 . S
C1221 C1220 1.434 . S
C1222 C1223 1.369 . S
C1222 C1224 1.419 . S
C1222 H1226 0.930 . S
C1223 C1222 1.369 . S
C1223 C1232 1.429 . S
C1224 C1222 1.419 . S
C1224 C1225 1.363 . S
C1224 H1227 0.929 . S
C1225 C1224 1.363 . S
C1225 C1231 1.428 . S
H1226 C1222 0.930 . S
H1227 C1224 0.929 . S
S1228 N1229 1.613 . S
S1228 N1230 1.610 . S
N1229 S1228 1.613 . S
N1229 C1232 1.350 . S
N1230 S1228 1.610 . S
N1230 C1231 1.351 . S
C1231 C1225 1.428 . S
C1231 N1230 1.351 . S
C1231 C1232 1.434 . S
C1232 C1223 1.429 . S
C1232 N1229 1.350 . S
C1232 C1231 1.434 . S
C1233 C1234 1.369 . S
C1233 C1235 1.419 . S
C1233 H1237 0.930 . S
C1234 C1233 1.369 . S
C1234 C1243 1.429 . S
C1235 C1233 1.419 . S
C1235 C1236 1.363 . S
C1235 H1238 0.929 . S
C1236 C1235 1.363 . S
C1236 C1242 1.428 . S
H1237 C1233 0.930 . S
H1238 C1235 0.929 . S
S1239 N1240 1.613 . S
S1239 N1241 1.610 . S
N1240 S1239 1.613 . S
N1240 C1243 1.350 . S
N1241 S1239 1.610 . S
N1241 C1242 1.351 . S
C1242 C1236 1.428 . S
C1242 N1241 1.351 . S
C1242 C1243 1.434 . S
C1243 C1234 1.429 . S
C1243 N1240 1.350 . S
C1243 C1242 1.434 . S
C1244 C1245 1.369 . S
C1244 C1246 1.419 . S
C1244 H1248 0.930 . S
C1245 C1244 1.369 . S
C1245 C1254 1.429 . S
C1246 C1244 1.419 . S
C1246 C1247 1.363 . S
C1246 H1249 0.929 . S
C1247 C1246 1.363 . S
C1247 C1253 1.428 . S
H1248 C1244 0.930 . S
H1249 C1246 0.929 . S
S1250 N1251 1.613 . S
S1250 N1252 1.610 . S
N1251 S1250 1.613 . S
N1251 C1254 1.350 . S
N1252 S1250 1.610 . S
N1252 C1253 1.351 . S
C1253 C1247 1.428 . S
C1253 N1252 1.351 . S
C1253 C1254 1.434 . S
C1254 C1245 1.429 . S
C1254 N1251 1.350 . S
C1254 C1253 1.434 . S
C1255 C1256 1.369 . S
C1255 C1257 1.419 1_556 S
C1255 H1259 0.930 1_655 S
C1256 C1255 1.369 . S
C1256 C1265 1.429 1_556 S
C1257 C1255 1.419 1_554 S
C1257 C1258 1.363 . S
C1257 H1260 0.929 1_655 S
C1258 C1257 1.363 . S
C1258 C1264 1.428 . S
H1259 C1255 0.930 1_455 S
H1260 C1257 0.929 1_455 S
S1261 N1262 1.613 . S
S1261 N1263 1.610 . S
N1262 S1261 1.613 . S
N1262 C1265 1.350 . S
N1263 S1261 1.610 . S
N1263 C1264 1.351 . S
C1264 C1258 1.428 . S
C1264 N1263 1.351 . S
C1264 C1265 1.434 . S
C1265 C1256 1.429 1_554 S
C1265 N1262 1.350 . S
C1265 C1264 1.434 . S
C1266 C1267 1.369 . S
C1266 C1268 1.419 . S
C1266 H1270 0.930 . S
C1267 C1266 1.369 . S
C1267 C1276 1.429 . S
C1268 C1266 1.419 . S
C1268 C1269 1.363 . S
C1268 H1271 0.929 . S
C1269 C1268 1.363 . S
C1269 C1275 1.428 . S
H1270 C1266 0.930 . S
H1271 C1268 0.929 . S
S1272 N1273 1.613 . S
S1272 N1274 1.610 . S
N1273 S1272 1.613 . S
N1273 C1276 1.350 . S
N1274 S1272 1.610 . S
N1274 C1275 1.351 . S
C1275 C1269 1.428 . S
C1275 N1274 1.351 . S
C1275 C1276 1.434 . S
C1276 C1267 1.429 . S
C1276 N1273 1.350 . S
C1276 C1275 1.434 . S
C1277 C1278 1.369 . S
C1277 C1279 1.419 . S
C1277 H1281 0.930 . S
C1278 C1277 1.369 . S
C1278 C1287 1.429 . S
C1279 C1277 1.419 . S
C1279 C1280 1.363 . S
C1279 H1282 0.929 . S
C1280 C1279 1.363 . S
C1280 C1286 1.428 . S
H1281 C1277 0.930 . S
H1282 C1279 0.929 . S
S1283 N1284 1.613 . S
S1283 N1285 1.610 . S
N1284 S1283 1.613 . S
N1284 C1287 1.350 . S
N1285 S1283 1.610 . S
N1285 C1286 1.351 . S
C1286 C1280 1.428 . S
C1286 N1285 1.351 . S
C1286 C1287 1.434 . S
C1287 C1278 1.429 . S
C1287 N1284 1.350 . S
C1287 C1286 1.434 . S
C1288 C1289 1.369 . S
C1288 C1290 1.419 . S
C1288 H1292 0.930 . S
C1289 C1288 1.369 . S
C1289 C1298 1.429 . S
C1290 C1288 1.419 . S
C1290 C1291 1.363 . S
C1290 H1293 0.929 . S
C1291 C1290 1.363 . S
C1291 C1297 1.428 . S
H1292 C1288 0.930 . S
H1293 C1290 0.929 . S
S1294 N1295 1.613 . S
S1294 N1296 1.610 . S
N1295 S1294 1.613 . S
N1295 C1298 1.350 . S
N1296 S1294 1.610 . S
N1296 C1297 1.351 . S
C1297 C1291 1.428 . S
C1297 N1296 1.351 . S
C1297 C1298 1.434 . S
C1298 C1289 1.429 . S
C1298 N1295 1.350 . S
C1298 C1297 1.434 . S
C1299 C1300 1.369 . S
C1299 C1301 1.419 . S
C1299 H1303 0.930 . S
C1300 C1299 1.369 . S
C1300 C1309 1.429 . S
C1301 C1299 1.419 . S
C1301 C1302 1.363 . S
C1301 H1304 0.929 . S
C1302 C1301 1.363 . S
C1302 C1308 1.428 . S
H1303 C1299 0.930 . S
H1304 C1301 0.929 . S
S1305 N1306 1.613 . S
S1305 N1307 1.610 . S
N1306 S1305 1.613 . S
N1306 C1309 1.350 1_554 S
N1307 S1305 1.610 . S
N1307 C1308 1.351 1_554 S
C1308 C1302 1.428 . S
C1308 N1307 1.351 1_556 S
C1308 C1309 1.434 . S
C1309 C1300 1.429 . S
C1309 N1306 1.350 1_556 S
C1309 C1308 1.434 . S
C1310 C1311 1.369 . S
C1310 C1312 1.419 . S
C1310 H1314 0.930 . S
C1311 C1310 1.369 . S
C1311 C1320 1.429 . S
C1312 C1310 1.419 . S
C1312 C1313 1.363 . S
C1312 H1315 0.929 . S
C1313 C1312 1.363 . S
C1313 C1319 1.428 . S
H1314 C1310 0.930 . S
H1315 C1312 0.929 . S
S1316 N1317 1.613 . S
S1316 N1318 1.610 . S
N1317 S1316 1.613 . S
N1317 C1320 1.350 . S
N1318 S1316 1.610 . S
N1318 C1319 1.351 . S
C1319 C1313 1.428 . S
C1319 N1318 1.351 . S
C1319 C1320 1.434 . S
C1320 C1311 1.429 . S
C1320 N1317 1.350 . S
C1320 C1319 1.434 . S
C1321 C1322 1.369 . S
C1321 C1323 1.419 . S
C1321 H1325 0.930 . S
C1322 C1321 1.369 . S
C1322 C1331 1.429 . S
C1323 C1321 1.419 . S
C1323 C1324 1.363 . S
C1323 H1326 0.929 . S
C1324 C1323 1.363 . S
C1324 C1330 1.428 . S
H1325 C1321 0.930 . S
H1326 C1323 0.929 . S
S1327 N1328 1.613 . S
S1327 N1329 1.610 . S
N1328 S1327 1.613 . S
N1328 C1331 1.350 . S
N1329 S1327 1.610 . S
N1329 C1330 1.351 . S
C1330 C1324 1.428 . S
C1330 N1329 1.351 . S
C1330 C1331 1.434 . S
C1331 C1322 1.429 . S
C1331 N1328 1.350 . S
C1331 C1330 1.434 . S
C1332 C1333 1.369 . S
C1332 C1334 1.419 . S
C1332 H1336 0.930 . S
C1333 C1332 1.369 . S
C1333 C1342 1.429 . S
C1334 C1332 1.419 . S
C1334 C1335 1.363 . S
C1334 H1337 0.929 . S
C1335 C1334 1.363 . S
C1335 C1341 1.428 . S
H1336 C1332 0.930 . S
H1337 C1334 0.929 . S
S1338 N1339 1.613 . S
S1338 N1340 1.610 . S
N1339 S1338 1.613 . S
N1339 C1342 1.350 . S
N1340 S1338 1.610 . S
N1340 C1341 1.351 . S
C1341 C1335 1.428 . S
C1341 N1340 1.351 . S
C1341 C1342 1.434 . S
C1342 C1333 1.429 . S
C1342 N1339 1.350 . S
C1342 C1341 1.434 . S
C1343 C1344 1.369 . S
C1343 C1345 1.419 . S
C1343 H1347 0.930 . S
C1344 C1343 1.369 . S
C1344 C1353 1.429 . S
C1345 C1343 1.419 . S
C1345 C1346 1.363 . S
C1345 H1348 0.929 . S
C1346 C1345 1.363 . S
C1346 C1352 1.428 . S
H1347 C1343 0.930 . S
H1348 C1345 0.929 . S
S1349 N1350 1.613 . S
S1349 N1351 1.610 . S
N1350 S1349 1.613 . S
N1350 C1353 1.350 . S
N1351 S1349 1.610 . S
N1351 C1352 1.351 . S
C1352 C1346 1.428 . S
C1352 N1351 1.351 . S
C1352 C1353 1.434 . S
C1353 C1344 1.429 . S
C1353 N1350 1.350 . S
C1353 C1352 1.434 . S
C1354 C1355 1.369 . S
C1354 C1356 1.419 . S
C1354 H1358 0.930 . S
C1355 C1354 1.369 . S
C1355 C1364 1.429 . S
C1356 C1354 1.419 . S
C1356 C1357 1.363 . S
C1356 H1359 0.929 . S
C1357 C1356 1.363 . S
C1357 C1363 1.428 . S
H1358 C1354 0.930 . S
H1359 C1356 0.929 . S
S1360 N1361 1.613 . S
S1360 N1362 1.610 . S
N1361 S1360 1.613 . S
N1361 C1364 1.350 . S
N1362 S1360 1.610 . S
N1362 C1363 1.351 . S
C1363 C1357 1.428 . S
C1363 N1362 1.351 . S
C1363 C1364 1.434 . S
C1364 C1355 1.429 . S
C1364 N1361 1.350 . S
C1364 C1363 1.434 . S
C1365 C1366 1.369 . S
C1365 C1367 1.419 . S
C1365 H1369 0.930 . S
C1366 C1365 1.369 . S
C1366 C1375 1.429 . S
C1367 C1365 1.419 . S
C1367 C1368 1.363 . S
C1367 H1370 0.929 . S
C1368 C1367 1.363 . S
C1368 C1374 1.428 . S
H1369 C1365 0.930 . S
H1370 C1367 0.929 . S
S1371 N1372 1.613 . S
S1371 N1373 1.610 . S
N1372 S1371 1.613 . S
N1372 C1375 1.350 . S
N1373 S1371 1.610 . S
N1373 C1374 1.351 . S
C1374 C1368 1.428 . S
C1374 N1373 1.351 . S
C1374 C1375 1.434 . S
C1375 C1366 1.429 . S
C1375 N1372 1.350 . S
C1375 C1374 1.434 . S
C1376 C1377 1.369 . S
C1376 C1378 1.419 . S
C1376 H1380 0.930 . S
C1377 C1376 1.369 . S
C1377 C1386 1.429 . S
C1378 C1376 1.419 . S
C1378 C1379 1.363 . S
C1378 H1381 0.929 . S
C1379 C1378 1.363 . S
C1379 C1385 1.428 . S
H1380 C1376 0.930 . S
H1381 C1378 0.929 . S
S1382 N1383 1.613 . S
S1382 N1384 1.610 . S
N1383 S1382 1.613 . S
N1383 C1386 1.350 . S
N1384 S1382 1.610 . S
N1384 C1385 1.351 . S
C1385 C1379 1.428 . S
C1385 N1384 1.351 . S
C1385 C1386 1.434 . S
C1386 C1377 1.429 . S
C1386 N1383 1.350 . S
C1386 C1385 1.434 . S
C1387 C1388 1.369 . S
C1387 C1389 1.419 . S
C1387 H1391 0.930 . S
C1388 C1387 1.369 . S
C1388 C1397 1.429 . S
C1389 C1387 1.419 . S
C1389 C1390 1.363 . S
C1389 H1392 0.929 . S
C1390 C1389 1.363 . S
C1390 C1396 1.428 . S
H1391 C1387 0.930 . S
H1392 C1389 0.929 . S
S1393 N1394 1.613 . S
S1393 N1395 1.610 . S
N1394 S1393 1.613 . S
N1394 C1397 1.350 . S
N1395 S1393 1.610 . S
N1395 C1396 1.351 . S
C1396 C1390 1.428 . S
C1396 N1395 1.351 . S
C1396 C1397 1.434 . S
C1397 C1388 1.429 . S
C1397 N1394 1.350 . S
C1397 C1396 1.434 . S
C1398 C1399 1.369 . S
C1398 C1400 1.419 . S
C1398 H1402 0.930 . S
C1399 C1398 1.369 . S
C1399 C1408 1.429 . S
C1400 C1398 1.419 . S
C1400 C1401 1.363 . S
C1400 H1403 0.929 . S
C1401 C1400 1.363 . S
C1401 C1407 1.428 . S
H1402 C1398 0.930 . S
H1403 C1400 0.929 . S
S1404 N1405 1.613 . S
S1404 N1406 1.612 . S
N1405 S1404 1.613 . S
N1405 C1408 1.350 1_545 S
N1406 S1404 1.612 . S
N1406 C1407 1.348 1_545 S
C1407 C1401 1.428 . S
C1407 N1406 1.348 1_565 S
C1407 C1408 1.434 . S
C1408 C1399 1.429 . S
C1408 N1405 1.350 1_565 S
C1408 C1407 1.434 . S
C1409 C1410 1.369 . S
C1409 C1411 1.419 . S
C1409 H1413 0.930 . S
C1410 C1409 1.369 . S
C1410 C1419 1.429 . S
C1411 C1409 1.419 . S
C1411 C1412 1.363 . S
C1411 H1414 0.929 . S
C1412 C1411 1.363 . S
C1412 C1418 1.428 . S
H1413 C1409 0.930 . S
H1414 C1411 0.929 . S
S1415 N1416 1.613 . S
S1415 N1417 1.610 1_554 S
N1416 S1415 1.613 . S
N1416 C1419 1.350 1_554 S
N1417 S1415 1.610 1_556 S
N1417 C1418 1.351 . S
C1418 C1412 1.428 . S
C1418 N1417 1.351 . S
C1418 C1419 1.434 . S
C1419 C1410 1.429 . S
C1419 N1416 1.350 1_556 S
C1419 C1418 1.434 . S
C1420 C1421 1.369 . S
C1420 C1422 1.419 . S
C1420 H1424 0.930 . S
C1421 C1420 1.369 . S
C1421 C1430 1.429 . S
C1422 C1420 1.419 . S
C1422 C1423 1.363 . S
C1422 H1425 0.929 . S
C1423 C1422 1.363 . S
C1423 C1429 1.428 . S
H1424 C1420 0.930 . S
H1425 C1422 0.929 . S
S1426 N1427 1.613 . S
S1426 N1428 1.610 . S
N1427 S1426 1.613 . S
N1427 C1430 1.350 . S
N1428 S1426 1.610 . S
N1428 C1429 1.351 . S
C1429 C1423 1.428 . S
C1429 N1428 1.351 . S
C1429 C1430 1.434 . S
C1430 C1421 1.429 . S
C1430 N1427 1.350 . S
C1430 C1429 1.434 . S
C1431 C1432 1.369 . S
C1431 C1433 1.419 . S
C1431 H1435 0.930 . S
C1432 C1431 1.369 . S
C1432 C1441 1.429 . S
C1433 C1431 1.419 . S
C1433 C1434 1.363 . S
C1433 H1436 0.929 . S
C1434 C1433 1.363 . S
C1434 C1440 1.428 . S
H1435 C1431 0.930 . S
H1436 C1433 0.929 . S
S1437 N1438 1.613 . S
S1437 N1439 1.610 . S
N1438 S1437 1.613 . S
N1438 C1441 1.350 . S
N1439 S1437 1.610 . S
N1439 C1440 1.351 . S
C1440 C1434 1.428 . S
C1440 N1439 1.351 . S
C1440 C1441 1.434 . S
C1441 C1432 1.429 . S
C1441 N1438 1.350 . S
C1441 C1440 1.434 . S
C1442 C1443 1.369 . S
C1442 C1444 1.419 . S
C1442 H1446 0.930 . S
C1443 C1442 1.369 . S
C1443 C1452 1.429 . S
C1444 C1442 1.419 . S
C1444 C1445 1.363 . S
C1444 H1447 0.929 . S
C1445 C1444 1.363 . S
C1445 C1451 1.428 . S
H1446 C1442 0.930 . S
H1447 C1444 0.929 . S
S1448 N1449 1.613 . S
S1448 N1450 1.610 . S
N1449 S1448 1.613 . S
N1449 C1452 1.350 . S
N1450 S1448 1.610 . S
N1450 C1451 1.351 . S
C1451 C1445 1.428 . S
C1451 N1450 1.351 . S
C1451 C1452 1.434 . S
C1452 C1443 1.429 . S
C1452 N1449 1.350 . S
C1452 C1451 1.434 . S
C1453 C1454 1.369 . S
C1453 C1455 1.419 1_655 S
C1453 H1457 0.930 . S
C1454 C1453 1.369 . S
C1454 C1463 1.429 . S
C1455 C1453 1.419 1_455 S
C1455 C1456 1.363 . S
C1455 H1458 0.929 . S
C1456 C1455 1.363 . S
C1456 C1462 1.428 . S
H1457 C1453 0.930 . S
H1458 C1455 0.929 . S
S1459 N1460 1.613 1_455 S
S1459 N1461 1.610 . S
N1460 S1459 1.613 1_655 S
N1460 C1463 1.350 . S
N1461 S1459 1.610 . S
N1461 C1462 1.351 . S
C1462 C1456 1.428 . S
C1462 N1461 1.351 . S
C1462 C1463 1.434 1_455 S
C1463 C1454 1.429 . S
C1463 N1460 1.350 . S
C1463 C1462 1.434 1_655 S
C1464 C1465 1.369 . S
C1464 C1466 1.419 . S
C1464 H1468 0.930 . S
C1465 C1464 1.369 . S
C1465 C1474 1.429 . S
C1466 C1464 1.419 . S
C1466 C1467 1.363 . S
C1466 H1469 0.929 . S
C1467 C1466 1.363 . S
C1467 C1473 1.428 . S
H1468 C1464 0.930 . S
H1469 C1466 0.929 . S
S1470 N1471 1.613 . S
S1470 N1472 1.610 . S
N1471 S1470 1.613 . S
N1471 C1474 1.350 . S
N1472 S1470 1.610 . S
N1472 C1473 1.351 . S
C1473 C1467 1.428 . S
C1473 N1472 1.351 . S
C1473 C1474 1.434 . S
C1474 C1465 1.429 . S
C1474 N1471 1.350 . S
C1474 C1473 1.434 . S
C1475 C1476 1.369 . S
C1475 C1477 1.419 1_556 S
C1475 H1479 0.930 . S
C1476 C1475 1.369 . S
C1476 C1485 1.429 . S
C1477 C1475 1.419 1_554 S
C1477 C1478 1.363 . S
C1477 H1480 0.929 . S
C1478 C1477 1.363 . S
C1478 C1484 1.428 . S
H1479 C1475 0.930 . S
H1480 C1477 0.929 . S
S1481 N1482 1.613 1_554 S
S1481 N1483 1.610 . S
N1482 S1481 1.613 1_556 S
N1482 C1485 1.350 . S
N1483 S1481 1.610 . S
N1483 C1484 1.351 . S
C1484 C1478 1.428 . S
C1484 N1483 1.351 . S
C1484 C1485 1.434 1_554 S
C1485 C1476 1.429 . S
C1485 N1482 1.350 . S
C1485 C1484 1.434 1_556 S
C1486 C1487 1.369 . S
C1486 C1488 1.419 . S
C1486 H1490 0.930 . S
C1487 C1486 1.369 . S
C1487 C1496 1.429 . S
C1488 C1486 1.419 . S
C1488 C1489 1.363 . S
C1488 H1491 0.929 . S
C1489 C1488 1.363 . S
C1489 C1495 1.428 . S
H1490 C1486 0.930 . S
H1491 C1488 0.929 . S
S1492 N1493 1.613 . S
S1492 N1494 1.610 . S
N1493 S1492 1.613 . S
N1493 C1496 1.350 . S
N1494 S1492 1.610 . S
N1494 C1495 1.351 . S
C1495 C1489 1.428 . S
C1495 N1494 1.351 . S
C1495 C1496 1.434 . S
C1496 C1487 1.429 . S
C1496 N1493 1.350 . S
C1496 C1495 1.434 . S
C1497 C1498 1.369 . S
C1497 C1499 1.419 . S
C1497 H1501 0.930 . S
C1498 C1497 1.369 . S
C1498 C1507 1.429 . S
C1499 C1497 1.419 . S
C1499 C1500 1.363 . S
C1499 H1502 0.929 . S
C1500 C1499 1.363 . S
C1500 C1506 1.428 . S
H1501 C1497 0.930 . S
H1502 C1499 0.929 . S
S1503 N1504 1.613 . S
S1503 N1505 1.610 . S
N1504 S1503 1.613 . S
N1504 C1507 1.350 . S
N1505 S1503 1.610 . S
N1505 C1506 1.351 . S
C1506 C1500 1.428 . S
C1506 N1505 1.351 . S
C1506 C1507 1.434 . S
C1507 C1498 1.429 . S
C1507 N1504 1.350 . S
C1507 C1506 1.434 . S
C1508 C1509 1.369 . S
C1508 C1510 1.419 . S
C1508 H1512 0.930 . S
C1509 C1508 1.369 . S
C1509 C1518 1.429 . S
C1510 C1508 1.419 . S
C1510 C1511 1.363 . S
C1510 H1513 0.929 . S
C1511 C1510 1.363 . S
C1511 C1517 1.428 . S
H1512 C1508 0.930 . S
H1513 C1510 0.929 . S
S1514 N1515 1.613 . S
S1514 N1516 1.610 . S
N1515 S1514 1.613 . S
N1515 C1518 1.350 . S
N1516 S1514 1.610 . S
N1516 C1517 1.351 . S
C1517 C1511 1.428 . S
C1517 N1516 1.351 . S
C1517 C1518 1.434 . S
C1518 C1509 1.429 . S
C1518 N1515 1.350 . S
C1518 C1517 1.434 . S
C1519 C1520 1.369 . S
C1519 C1521 1.437 . S
C1519 H1523 0.930 . S
C1520 C1519 1.369 . S
C1520 C1529 1.429 . S
C1521 C1519 1.437 . S
C1521 C1522 1.348 1_554 S
C1521 H1524 0.925 1_554 S
C1522 C1521 1.348 1_556 S
C1522 C1528 1.428 . S
H1523 C1519 0.930 . S
H1524 C1521 0.925 1_556 S
S1525 N1526 1.613 1_556 S
S1525 N1527 1.610 . S
N1526 S1525 1.613 1_554 S
N1526 C1529 1.350 . S
N1527 S1525 1.610 . S
N1527 C1528 1.351 . S
C1528 C1522 1.428 . S
C1528 N1527 1.351 . S
C1528 C1529 1.434 1_556 S
C1529 C1520 1.429 . S
C1529 N1526 1.350 . S
C1529 C1528 1.434 1_554 S
C1530 C1531 1.369 . S
C1530 C1532 1.419 . S
C1530 H1534 0.930 . S
C1531 C1530 1.369 . S
C1531 C1540 1.429 . S
C1532 C1530 1.419 . S
C1532 C1533 1.363 . S
C1532 H1535 0.929 . S
C1533 C1532 1.363 . S
C1533 C1539 1.428 . S
H1534 C1530 0.930 . S
H1535 C1532 0.929 . S
S1536 N1537 1.613 . S
S1536 N1538 1.610 . S
N1537 S1536 1.613 . S
N1537 C1540 1.350 . S
N1538 S1536 1.610 . S
N1538 C1539 1.351 . S
C1539 C1533 1.428 . S
C1539 N1538 1.351 . S
C1539 C1540 1.434 . S
C1540 C1531 1.429 . S
C1540 N1537 1.350 . S
C1540 C1539 1.434 . S
C1541 C1542 1.369 . S
C1541 C1543 1.419 . S
C1541 H1545 0.930 . S
C1542 C1541 1.369 . S
C1542 C1551 1.429 . S
C1543 C1541 1.419 . S
C1543 C1544 1.363 . S
C1543 H1546 0.929 . S
C1544 C1543 1.363 . S
C1544 C1550 1.428 . S
H1545 C1541 0.930 . S
H1546 C1543 0.929 . S
S1547 N1548 1.613 . S
S1547 N1549 1.610 . S
N1548 S1547 1.613 . S
N1548 C1551 1.350 . S
N1549 S1547 1.610 . S
N1549 C1550 1.351 . S
C1550 C1544 1.428 . S
C1550 N1549 1.351 . S
C1550 C1551 1.434 . S
C1551 C1542 1.429 . S
C1551 N1548 1.350 . S
C1551 C1550 1.434 . S
C1552 C1553 1.369 . S
C1552 C1554 1.419 . S
C1552 H1556 0.930 . S
C1553 C1552 1.369 . S
C1553 C1562 1.429 . S
C1554 C1552 1.419 . S
C1554 C1555 1.363 . S
C1554 H1557 0.929 . S
C1555 C1554 1.363 . S
C1555 C1561 1.428 . S
H1556 C1552 0.930 . S
H1557 C1554 0.929 . S
S1558 N1559 1.613 . S
S1558 N1560 1.610 . S
N1559 S1558 1.613 . S
N1559 C1562 1.350 . S
N1560 S1558 1.610 . S
N1560 C1561 1.351 . S
C1561 C1555 1.428 . S
C1561 N1560 1.351 . S
C1561 C1562 1.434 . S
C1562 C1553 1.429 . S
C1562 N1559 1.350 . S
C1562 C1561 1.434 . S
C1563 C1564 1.369 . S
C1563 C1565 1.419 . S
C1563 H1567 0.930 . S
C1564 C1563 1.369 . S
C1564 C1573 1.429 . S
C1565 C1563 1.419 . S
C1565 C1566 1.363 . S
C1565 H1568 0.929 . S
C1566 C1565 1.363 . S
C1566 C1572 1.428 . S
H1567 C1563 0.930 . S
H1568 C1565 0.929 . S
S1569 N1570 1.613 . S
S1569 N1571 1.610 . S
N1570 S1569 1.613 . S
N1570 C1573 1.350 . S
N1571 S1569 1.610 . S
N1571 C1572 1.351 . S
C1572 C1566 1.428 . S
C1572 N1571 1.351 . S
C1572 C1573 1.434 . S
C1573 C1564 1.429 . S
C1573 N1570 1.350 . S
C1573 C1572 1.434 . S
C1574 C1575 1.369 . S
C1574 C1576 1.419 . S
C1574 H1578 0.930 . S
C1575 C1574 1.369 . S
C1575 C1584 1.429 . S
C1576 C1574 1.419 . S
C1576 C1577 1.363 . S
C1576 H1579 0.929 . S
C1577 C1576 1.363 . S
C1577 C1583 1.428 . S
H1578 C1574 0.930 . S
H1579 C1576 0.929 . S
S1580 N1581 1.613 . S
S1580 N1582 1.610 . S
N1581 S1580 1.613 . S
N1581 C1584 1.350 . S
N1582 S1580 1.610 . S
N1582 C1583 1.351 . S
C1583 C1577 1.428 . S
C1583 N1582 1.351 . S
C1583 C1584 1.434 . S
C1584 C1575 1.429 . S
C1584 N1581 1.350 . S
C1584 C1583 1.434 . S
C1585 C1586 1.369 . S
C1585 C1587 1.419 . S
C1585 H1589 0.930 . S
C1586 C1585 1.369 . S
C1586 C1595 1.429 . S
C1587 C1585 1.419 . S
C1587 C1588 1.363 . S
C1587 H1590 0.929 . S
C1588 C1587 1.363 . S
C1588 C1594 1.428 . S
H1589 C1585 0.930 . S
H1590 C1587 0.929 . S
S1591 N1592 1.613 . S
S1591 N1593 1.610 . S
N1592 S1591 1.613 . S
N1592 C1595 1.350 . S
N1593 S1591 1.610 . S
N1593 C1594 1.351 . S
C1594 C1588 1.428 . S
C1594 N1593 1.351 . S
C1594 C1595 1.434 . S
C1595 C1586 1.429 . S
C1595 N1592 1.350 . S
C1595 C1594 1.434 . S
C1596 C1597 1.369 . S
C1596 C1598 1.419 . S
C1596 H1600 0.930 . S
C1597 C1596 1.369 . S
C1597 C1606 1.429 . S
C1598 C1596 1.419 . S
C1598 C1599 1.363 . S
C1598 H1601 0.929 . S
C1599 C1598 1.363 . S
C1599 C1605 1.428 . S
H1600 C1596 0.930 . S
H1601 C1598 0.929 . S
S1602 N1603 1.613 . S
S1602 N1604 1.610 . S
N1603 S1602 1.613 . S
N1603 C1606 1.350 . S
N1604 S1602 1.610 . S
N1604 C1605 1.351 . S
C1605 C1599 1.428 . S
C1605 N1604 1.351 . S
C1605 C1606 1.434 . S
C1606 C1597 1.429 . S
C1606 N1603 1.350 . S
C1606 C1605 1.434 . S
C1607 C1608 1.369 . S
C1607 C1609 1.419 . S
C1607 H1611 0.930 . S
C1608 C1607 1.369 . S
C1608 C1617 1.429 . S
C1609 C1607 1.419 . S
C1609 C1610 1.363 . S
C1609 H1612 0.929 . S
C1610 C1609 1.363 . S
C1610 C1616 1.428 . S
H1611 C1607 0.930 . S
H1612 C1609 0.929 . S
S1613 N1614 1.613 1_554 S
S1613 N1615 1.610 1_554 S
N1614 S1613 1.613 1_556 S
N1614 C1617 1.350 . S
N1615 S1613 1.610 1_556 S
N1615 C1616 1.351 . S
C1616 C1610 1.428 . S
C1616 N1615 1.351 . S
C1616 C1617 1.434 . S
C1617 C1608 1.429 . S
C1617 N1614 1.350 . S
C1617 C1616 1.434 . S
C1618 C1619 1.369 . S
C1618 C1620 1.419 . S
C1618 H1622 0.930 . S
C1619 C1618 1.369 . S
C1619 C1628 1.429 . S
C1620 C1618 1.419 . S
C1620 C1621 1.363 . S
C1620 H1623 0.929 . S
C1621 C1620 1.363 . S
C1621 C1627 1.428 . S
H1622 C1618 0.930 . S
H1623 C1620 0.929 . S
S1624 N1625 1.613 . S
S1624 N1626 1.610 . S
N1625 S1624 1.613 . S
N1625 C1628 1.350 . S
N1626 S1624 1.610 . S
N1626 C1627 1.351 . S
C1627 C1621 1.428 . S
C1627 N1626 1.351 . S
C1627 C1628 1.434 . S
C1628 C1619 1.429 . S
C1628 N1625 1.350 . S
C1628 C1627 1.434 . S
C1629 C1630 1.369 . S
C1629 C1631 1.419 . S
C1629 H1633 0.930 . S
C1630 C1629 1.369 . S
C1630 C1639 1.429 . S
C1631 C1629 1.419 . S
C1631 C1632 1.363 . S
C1631 H1634 0.929 . S
C1632 C1631 1.363 . S
C1632 C1638 1.428 . S
H1633 C1629 0.930 . S
H1634 C1631 0.929 . S
S1635 N1636 1.613 . S
S1635 N1637 1.610 . S
N1636 S1635 1.613 . S
N1636 C1639 1.350 . S
N1637 S1635 1.610 . S
N1637 C1638 1.351 . S
C1638 C1632 1.428 . S
C1638 N1637 1.351 . S
C1638 C1639 1.434 . S
C1639 C1630 1.429 . S
C1639 N1636 1.350 . S
C1639 C1638 1.434 . S
C1640 C1641 1.369 . S
C1640 C1642 1.419 . S
C1640 H1644 0.930 . S
C1641 C1640 1.369 . S
C1641 C1650 1.429 . S
C1642 C1640 1.419 . S
C1642 C1643 1.363 . S
C1642 H1645 0.929 . S
C1643 C1642 1.363 . S
C1643 C1649 1.428 . S
H1644 C1640 0.930 . S
H1645 C1642 0.929 . S
S1646 N1647 1.613 . S
S1646 N1648 1.610 . S
N1647 S1646 1.613 . S
N1647 C1650 1.350 . S
N1648 S1646 1.610 . S
N1648 C1649 1.351 . S
C1649 C1643 1.428 . S
C1649 N1648 1.351 . S
C1649 C1650 1.434 . S
C1650 C1641 1.429 . S
C1650 N1647 1.350 . S
C1650 C1649 1.434 . S
C1651 C1652 1.369 . S
C1651 C1653 1.419 . S
C1651 H1655 0.930 . S
C1652 C1651 1.369 . S
C1652 C1661 1.429 . S
C1653 C1651 1.419 . S
C1653 C1654 1.363 . S
C1653 H1656 0.929 . S
C1654 C1653 1.363 . S
C1654 C1660 1.428 . S
H1655 C1651 0.930 . S
H1656 C1653 0.929 . S
S1657 N1658 1.613 . S
S1657 N1659 1.610 . S
N1658 S1657 1.613 . S
N1658 C1661 1.350 . S
N1659 S1657 1.610 . S
N1659 C1660 1.351 . S
C1660 C1654 1.428 . S
C1660 N1659 1.351 . S
C1660 C1661 1.434 . S
C1661 C1652 1.429 . S
C1661 N1658 1.350 . S
C1661 C1660 1.434 . S
C1662 C1663 1.369 . S
C1662 C1664 1.419 . S
C1662 H1666 0.930 1_545 S
C1663 C1662 1.369 . S
C1663 C1672 1.429 . S
C1664 C1662 1.419 . S
C1664 C1665 1.363 . S
C1664 H1667 0.929 . S
C1665 C1664 1.363 . S
C1665 C1671 1.428 . S
H1666 C1662 0.930 1_565 S
H1667 C1664 0.929 . S
S1668 N1669 1.613 . S
S1668 N1670 1.610 . S
N1669 S1668 1.613 . S
N1669 C1672 1.350 . S
N1670 S1668 1.610 . S
N1670 C1671 1.351 . S
C1671 C1665 1.428 . S
C1671 N1670 1.351 . S
C1671 C1672 1.434 . S
C1672 C1663 1.429 . S
C1672 N1669 1.350 . S
C1672 C1671 1.434 . S
C1673 C1674 1.369 . S
C1673 C1675 1.419 . S
C1673 H1677 0.930 . S
C1674 C1673 1.369 . S
C1674 C1683 1.429 . S
C1675 C1673 1.419 . S
C1675 C1676 1.363 . S
C1675 H1678 0.929 . S
C1676 C1675 1.363 . S
C1676 C1682 1.428 . S
H1677 C1673 0.930 . S
H1678 C1675 0.929 . S
S1679 N1680 1.613 . S
S1679 N1681 1.610 . S
N1680 S1679 1.613 . S
N1680 C1683 1.350 . S
N1681 S1679 1.610 . S
N1681 C1682 1.351 . S
C1682 C1676 1.428 . S
C1682 N1681 1.351 . S
C1682 C1683 1.434 . S
C1683 C1674 1.429 . S
C1683 N1680 1.350 . S
C1683 C1682 1.434 . S
C1684 C1685 1.369 . S
C1684 C1686 1.419 . S
C1684 H1688 0.930 . S
C1685 C1684 1.369 . S
C1685 C1694 1.429 . S
C1686 C1684 1.419 . S
C1686 C1687 1.363 . S
C1686 H1689 0.929 . S
C1687 C1686 1.363 . S
C1687 C1693 1.428 . S
H1688 C1684 0.930 . S
H1689 C1686 0.929 . S
S1690 N1691 1.613 . S
S1690 N1692 1.610 . S
N1691 S1690 1.613 . S
N1691 C1694 1.350 . S
N1692 S1690 1.610 . S
N1692 C1693 1.351 . S
C1693 C1687 1.428 . S
C1693 N1692 1.351 . S
C1693 C1694 1.434 . S
C1694 C1685 1.429 . S
C1694 N1691 1.350 . S
C1694 C1693 1.434 . S
C1695 C1696 1.369 . S
C1695 C1697 1.419 . S
C1695 H1699 0.930 . S
C1696 C1695 1.369 . S
C1696 C1705 1.429 . S
C1697 C1695 1.419 . S
C1697 C1698 1.363 . S
C1697 H1700 0.929 . S
C1698 C1697 1.363 . S
C1698 C1704 1.428 . S
H1699 C1695 0.930 . S
H1700 C1697 0.929 . S
S1701 N1702 1.611 1_554 S
S1701 N1703 1.610 1_554 S
N1702 S1701 1.611 1_556 S
N1702 C1705 1.362 . S
N1703 S1701 1.610 1_556 S
N1703 C1704 1.351 . S
C1704 C1698 1.428 . S
C1704 N1703 1.351 . S
C1704 C1705 1.434 . S
C1705 C1696 1.429 . S
C1705 N1702 1.362 . S
C1705 C1704 1.434 . S
C1706 C1707 1.369 . S
C1706 C1708 1.419 . S
C1706 H1710 0.930 . S
C1707 C1706 1.369 . S
C1707 C1716 1.429 . S
C1708 C1706 1.419 . S
C1708 C1709 1.363 . S
C1708 H1711 0.929 . S
C1709 C1708 1.363 . S
C1709 C1715 1.428 . S
H1710 C1706 0.930 . S
H1711 C1708 0.929 . S
S1712 N1713 1.613 . S
S1712 N1714 1.610 . S
N1713 S1712 1.613 . S
N1713 C1716 1.350 1_545 S
N1714 S1712 1.610 . S
N1714 C1715 1.351 1_545 S
C1715 C1709 1.428 . S
C1715 N1714 1.351 1_565 S
C1715 C1716 1.434 . S
C1716 C1707 1.429 . S
C1716 N1713 1.350 1_565 S
C1716 C1715 1.434 . S
C1717 C1718 1.369 . S
C1717 C1719 1.419 . S
C1717 H1721 0.930 . S
C1718 C1717 1.369 . S
C1718 C1727 1.429 . S
C1719 C1717 1.419 . S
C1719 C1720 1.363 1_455 S
C1719 H1722 0.929 . S
C1720 C1719 1.363 1_655 S
C1720 C1726 1.428 . S
H1721 C1717 0.930 . S
H1722 C1719 0.929 . S
S1723 N1724 1.613 1_655 S
S1723 N1725 1.610 . S
N1724 S1723 1.613 1_455 S
N1724 C1727 1.350 . S
N1725 S1723 1.610 . S
N1725 C1726 1.351 . S
C1726 C1720 1.428 . S
C1726 N1725 1.351 . S
C1726 C1727 1.434 1_655 S
C1727 C1718 1.429 . S
C1727 N1724 1.350 . S
C1727 C1726 1.434 1_455 S
C675 C354 1.198 . S
C673 C11 1.230 . S
C684 C14 1.505 . S
C686 C374 1.634 . S
C697 C394 1.316 . S
C695 C37 1.375 . S
C708 C413 1.610 . S
C706 C47 1.531 . S
C719 C371 1.574 . S
C717 C61 1.502 . S
C728 C79 1.442 . S
C730 C396 1.375 . S
C741 C416 1.535 . S
C739 C84 1.456 . S
C750 C109 1.340 . S
C752 C352 1.296 . S
C761 C123 1.505 . S
C763 C349 1.494 . S
C774 C372 1.409 . S
C772 C131 1.475 . S
C785 C395 1.615 . S
C783 C140 1.475 . S
C796 C417 1.537 . S
C794 C163 1.589 1_545 S
C807 C375 1.206 . S
C805 C121 1.289 . S
C818 C391 1.234 1_545 S
C816 C126 1.313 . S
C827 C145 1.316 . S
C829 C414 1.238 . S
C840 C353 1.222 . S
C838 C165 1.147 . S
C849 C168 1.421 . S
C851 C350 1.543 . S
C860 C193 1.122 . S
C862 C433 1.002 . S
C873 C455 1.552 . S
C871 C205 1.459 . S
C884 C478 1.216 . S
C882 C215 1.401 . S
C893 C224 1.469 . S
C895 C351 1.447 . S
C904 C247 1.603 . S
C906 C393 1.555 . S
C917 C475 1.265 . S
C915 C207 1.410 . S
C928 C436 1.160 . S
C926 C257 1.255 . S
C939 C501 1.214 . S
C937 C23 1.289 . S
C950 C521 1.553 . S
C948 C0 1.529 . S
C959 C53 1.212 . S
C961 C543 1.153 . S
C970 C33 1.406 . S
C972 C560 1.423 . S
C981 C103 1.670 . S
C983 C518 1.674 . S
C992 C95 1.245 . S
C994 C541 1.066 . S
C1005 C563 1.433 . S
C1003 C70 1.369 . S
C1014 C65 1.392 . S
C1016 C499 1.235 . S
C1025 C271 1.271 1_565 S
C1027 C496 1.119 . S
C1038 C519 1.540 . S
C1036 C219 1.620 1_545 S
C1049 C538 1.217 . S
C1047 C235 1.384 . S
C1060 C564 1.327 1_545 S
C1058 C182 1.422 . S
C1071 C522 1.152 . S
C1069 C266 1.236 . S
C1082 C542 1.100 . S
C1080 C221 1.092 . S
C1093 C561 1.134 . S
C1091 C233 1.191 . S
C1102 C187 1.447 . S
C1104 C500 1.476 1_545 S
C1115 C497 1.477 . S
C1113 C289 1.426 . S
C1124 C154 1.298 . S
C1126 C580 1.100 . S
C1137 C603 1.373 . S
C1135 C299 1.462 . S
C1146 C137 1.381 . S
C1148 C625 1.119 . S
C1159 C498 1.420 1_545 S
C1157 C149 1.487 . S
C1170 C539 1.438 . S
C1168 C313 1.425 . S
C1181 C622 1.077 . S
C1179 C294 1.264 . S
C1190 C333 1.114 . S
C1192 C583 0.942 . S
C1201 C39 1.239 . S
C1203 C648 1.195 . S
C1212 C42 1.511 . S
C1214 C437 1.630 . S
C1225 C457 1.312 . S
C1223 C9 1.365 . S
C1234 C19 1.536 . S
C1236 C476 1.609 . S
C1245 C89 1.512 . S
C1247 C434 1.574 . S
C1256 C107 1.441 . S
C1258 C459 1.379 . S
C1269 C479 1.537 . S
C1267 C56 1.451 . S
C1280 C646 1.296 . S
C1278 C81 1.339 . S
C1291 C643 1.489 . S
C1289 C305 1.506 . S
C1302 C435 1.406 . S
C1300 C285 1.475 . S
C1313 C458 1.614 . S
C1311 C322 1.471 . S
C1322 C317 1.585 . S
C1324 C480 1.540 . S
C1335 C438 1.203 . S
C1333 C303 1.288 . S
C1344 C280 1.321 . S
C1346 C454 1.243 . S
C1357 C477 1.238 . S
C1355 C327 1.318 . S
C1366 C319 1.132 . S
C1368 C647 1.225 . S
C1379 C644 1.540 . S
C1377 C210 1.435 . S
C1388 C249 1.109 . S
C1390 C370 1.008 . S
C1401 C392 1.551 . S
C1399 C275 1.463 1_565 S
C1410 C173 1.391 . S
C1412 C415 1.225 . S
C1423 C645 1.455 . S
C1421 C252 1.462 . S
C1434 C456 1.557 . S
C1432 C191 1.601 . S
C1445 C412 1.250 . S
C1443 C277 1.415 . S
C1456 C373 1.160 . S
C1454 C229 1.256 . S
C1465 C51 1.279 . S
C1467 C669 1.224 . S
C1476 C28 1.521 . S
C1478 C584 1.558 . S
C1487 C25 1.223 . S
C1489 C606 1.139 . S
C1500 C623 1.431 . S
C1498 C5 1.398 . S
C1511 C581 1.672 . S
C1509 C75 1.671 . S
C1520 C67 1.236 . S
C1522 C604 1.079 . S
C1533 C626 1.427 . S
C1531 C98 1.378 . S
C1542 C93 1.397 . S
C1544 C667 1.222 . S
C1555 C664 1.105 . S
C1553 C201 1.281 . S
C1564 C177 1.630 . S
C1566 C582 1.530 . S
C1575 C263 1.384 . S
C1577 C601 1.217 . S
C1588 C627 1.328 . S
C1586 C238 1.421 . S
C1599 C585 1.162 . S
C1597 C196 1.229 . S
C1608 C179 1.082 . S
C1610 C605 1.106 . S
C1621 C624 1.133 . S
C1619 C261 1.193 . S
C1632 C668 1.476 . S
C1630 C243 1.448 . S
C1643 C665 1.476 . S
C1641 C135 1.423 . S
C1654 C517 1.093 . S
C1652 C308 1.303 . S
C1663 C117 1.466 . S
C1665 C540 1.368 . S
C1674 C291 1.379 . S
C1676 C562 1.122 . S
C1687 C666 1.419 . S
C1685 C331 1.488 . S
C1698 C602 1.442 . S
C1696 C159 1.424 . S
C1709 C559 1.074 . S
C1707 C112 1.267 . S
C1720 C520 0.942 . S
C1718 C151 1.112 . S
