# Generated by pormake.
# Topology gar, (4,6)-cn, num edge types: 1
# Building blocks:
#     Node 0, Type 0, BuildingBlock: NAHDIM_clean_sbu_0, # of connection points: 4
#     Node 1, Type 0, BuildingBlock: NAHDIM_clean_sbu_0, # of connection points: 4
#     Node 2, Type 0, BuildingBlock: NAHDIM_clean_sbu_0, # of connection points: 4
#     Node 3, Type 0, BuildingBlock: NAHDIM_clean_sbu_0, # of connection points: 4
#     Node 4, Type 0, BuildingBlock: NAHDIM_clean_sbu_0, # of connection points: 4
#     Node 5, Type 0, BuildingBlock: NAHDIM_clean_sbu_0, # of connection points: 4
#     Node 6, Type 0, BuildingBlock: NAHDIM_clean_sbu_0, # of connection points: 4
#     Node 7, Type 0, BuildingBlock: NAHDIM_clean_sbu_0, # of connection points: 4
#     Node 8, Type 0, BuildingBlock: NAHDIM_clean_sbu_0, # of connection points: 4
#     Node 9, Type 0, BuildingBlock: NAHDIM_clean_sbu_0, # of connection points: 4
#     Node 10, Type 0, BuildingBlock: NAHDIM_clean_sbu_0, # of connection points: 4
#     Node 11, Type 0, BuildingBlock: NAHDIM_clean_sbu_0, # of connection points: 4
#     Node 12, Type 0, BuildingBlock: NAHDIM_clean_sbu_0, # of connection points: 4
#     Node 13, Type 0, BuildingBlock: NAHDIM_clean_sbu_0, # of connection points: 4
#     Node 14, Type 0, BuildingBlock: NAHDIM_clean_sbu_0, # of connection points: 4
#     Node 15, Type 0, BuildingBlock: NAHDIM_clean_sbu_0, # of connection points: 4
#     Node 16, Type 0, BuildingBlock: NAHDIM_clean_sbu_0, # of connection points: 4
#     Node 17, Type 0, BuildingBlock: NAHDIM_clean_sbu_0, # of connection points: 4
#     Node 18, Type 0, BuildingBlock: NAHDIM_clean_sbu_0, # of connection points: 4
#     Node 19, Type 0, BuildingBlock: NAHDIM_clean_sbu_0, # of connection points: 4
#     Node 20, Type 0, BuildingBlock: NAHDIM_clean_sbu_0, # of connection points: 4
#     Node 21, Type 0, BuildingBlock: NAHDIM_clean_sbu_0, # of connection points: 4
#     Node 22, Type 0, BuildingBlock: NAHDIM_clean_sbu_0, # of connection points: 4
#     Node 23, Type 0, BuildingBlock: NAHDIM_clean_sbu_0, # of connection points: 4
#     Node 24, Type 1, BuildingBlock: CUKXOW_clean_sbu_0, # of connection points: 6
#     Node 25, Type 1, BuildingBlock: CUKXOW_clean_sbu_0, # of connection points: 6
#     Node 26, Type 1, BuildingBlock: CUKXOW_clean_sbu_0, # of connection points: 6
#     Node 27, Type 1, BuildingBlock: CUKXOW_clean_sbu_0, # of connection points: 6
#     Node 28, Type 1, BuildingBlock: CUKXOW_clean_sbu_0, # of connection points: 6
#     Node 29, Type 1, BuildingBlock: CUKXOW_clean_sbu_0, # of connection points: 6
#     Node 30, Type 1, BuildingBlock: CUKXOW_clean_sbu_0, # of connection points: 6
#     Node 31, Type 1, BuildingBlock: CUKXOW_clean_sbu_0, # of connection points: 6
#     Node 32, Type 1, BuildingBlock: CUKXOW_clean_sbu_0, # of connection points: 6
#     Node 33, Type 1, BuildingBlock: CUKXOW_clean_sbu_0, # of connection points: 6
#     Node 34, Type 1, BuildingBlock: CUKXOW_clean_sbu_0, # of connection points: 6
#     Node 35, Type 1, BuildingBlock: CUKXOW_clean_sbu_0, # of connection points: 6
#     Node 36, Type 1, BuildingBlock: CUKXOW_clean_sbu_0, # of connection points: 6
#     Node 37, Type 1, BuildingBlock: CUKXOW_clean_sbu_0, # of connection points: 6
#     Node 38, Type 1, BuildingBlock: CUKXOW_clean_sbu_0, # of connection points: 6
#     Node 39, Type 1, BuildingBlock: CUKXOW_clean_sbu_0, # of connection points: 6
#     Edge 40, Type (0, 1), BuildingBlock: XIVTED_clean_linker_0, # of connection points: 2
#     Edge 41, Type (0, 1), BuildingBlock: XIVTED_clean_linker_0, # of connection points: 2
#     Edge 42, Type (0, 1), BuildingBlock: XIVTED_clean_linker_0, # of connection points: 2
#     Edge 43, Type (0, 1), BuildingBlock: XIVTED_clean_linker_0, # of connection points: 2
#     Edge 44, Type (0, 1), BuildingBlock: XIVTED_clean_linker_0, # of connection points: 2
#     Edge 45, Type (0, 1), BuildingBlock: XIVTED_clean_linker_0, # of connection points: 2
#     Edge 46, Type (0, 1), BuildingBlock: XIVTED_clean_linker_0, # of connection points: 2
#     Edge 47, Type (0, 1), BuildingBlock: XIVTED_clean_linker_0, # of connection points: 2
#     Edge 48, Type (0, 1), BuildingBlock: XIVTED_clean_linker_0, # of connection points: 2
#     Edge 49, Type (0, 1), BuildingBlock: XIVTED_clean_linker_0, # of connection points: 2
#     Edge 50, Type (0, 1), BuildingBlock: XIVTED_clean_linker_0, # of connection points: 2
#     Edge 51, Type (0, 1), BuildingBlock: XIVTED_clean_linker_0, # of connection points: 2
#     Edge 52, Type (0, 1), BuildingBlock: XIVTED_clean_linker_0, # of connection points: 2
#     Edge 53, Type (0, 1), BuildingBlock: XIVTED_clean_linker_0, # of connection points: 2
#     Edge 54, Type (0, 1), BuildingBlock: XIVTED_clean_linker_0, # of connection points: 2
#     Edge 55, Type (0, 1), BuildingBlock: XIVTED_clean_linker_0, # of connection points: 2
#     Edge 56, Type (0, 1), BuildingBlock: XIVTED_clean_linker_0, # of connection points: 2
#     Edge 57, Type (0, 1), BuildingBlock: XIVTED_clean_linker_0, # of connection points: 2
#     Edge 58, Type (0, 1), BuildingBlock: XIVTED_clean_linker_0, # of connection points: 2
#     Edge 59, Type (0, 1), BuildingBlock: XIVTED_clean_linker_0, # of connection points: 2
#     Edge 60, Type (0, 1), BuildingBlock: XIVTED_clean_linker_0, # of connection points: 2
#     Edge 61, Type (0, 1), BuildingBlock: XIVTED_clean_linker_0, # of connection points: 2
#     Edge 62, Type (0, 1), BuildingBlock: XIVTED_clean_linker_0, # of connection points: 2
#     Edge 63, Type (0, 1), BuildingBlock: XIVTED_clean_linker_0, # of connection points: 2
#     Edge 64, Type (0, 1), BuildingBlock: XIVTED_clean_linker_0, # of connection points: 2
#     Edge 65, Type (0, 1), BuildingBlock: XIVTED_clean_linker_0, # of connection points: 2
#     Edge 66, Type (0, 1), BuildingBlock: XIVTED_clean_linker_0, # of connection points: 2
#     Edge 67, Type (0, 1), BuildingBlock: XIVTED_clean_linker_0, # of connection points: 2
#     Edge 68, Type (0, 1), BuildingBlock: XIVTED_clean_linker_0, # of connection points: 2
#     Edge 69, Type (0, 1), BuildingBlock: XIVTED_clean_linker_0, # of connection points: 2
#     Edge 70, Type (0, 1), BuildingBlock: XIVTED_clean_linker_0, # of connection points: 2
#     Edge 71, Type (0, 1), BuildingBlock: XIVTED_clean_linker_0, # of connection points: 2
#     Edge 72, Type (0, 1), BuildingBlock: XIVTED_clean_linker_0, # of connection points: 2
#     Edge 73, Type (0, 1), BuildingBlock: XIVTED_clean_linker_0, # of connection points: 2
#     Edge 74, Type (0, 1), BuildingBlock: XIVTED_clean_linker_0, # of connection points: 2
#     Edge 75, Type (0, 1), BuildingBlock: XIVTED_clean_linker_0, # of connection points: 2
#     Edge 76, Type (0, 1), BuildingBlock: XIVTED_clean_linker_0, # of connection points: 2
#     Edge 77, Type (0, 1), BuildingBlock: XIVTED_clean_linker_0, # of connection points: 2
#     Edge 78, Type (0, 1), BuildingBlock: XIVTED_clean_linker_0, # of connection points: 2
#     Edge 79, Type (0, 1), BuildingBlock: XIVTED_clean_linker_0, # of connection points: 2
#     Edge 80, Type (0, 1), BuildingBlock: XIVTED_clean_linker_0, # of connection points: 2
#     Edge 81, Type (0, 1), BuildingBlock: XIVTED_clean_linker_0, # of connection points: 2
#     Edge 82, Type (0, 1), BuildingBlock: XIVTED_clean_linker_0, # of connection points: 2
#     Edge 83, Type (0, 1), BuildingBlock: XIVTED_clean_linker_0, # of connection points: 2
#     Edge 84, Type (0, 1), BuildingBlock: XIVTED_clean_linker_0, # of connection points: 2
#     Edge 85, Type (0, 1), BuildingBlock: XIVTED_clean_linker_0, # of connection points: 2
#     Edge 86, Type (0, 1), BuildingBlock: XIVTED_clean_linker_0, # of connection points: 2
#     Edge 87, Type (0, 1), BuildingBlock: XIVTED_clean_linker_0, # of connection points: 2
#     Edge 88, Type (0, 1), BuildingBlock: XIVTED_clean_linker_0, # of connection points: 2
#     Edge 89, Type (0, 1), BuildingBlock: XIVTED_clean_linker_0, # of connection points: 2
#     Edge 90, Type (0, 1), BuildingBlock: XIVTED_clean_linker_0, # of connection points: 2
#     Edge 91, Type (0, 1), BuildingBlock: XIVTED_clean_linker_0, # of connection points: 2
#     Edge 92, Type (0, 1), BuildingBlock: XIVTED_clean_linker_0, # of connection points: 2
#     Edge 93, Type (0, 1), BuildingBlock: XIVTED_clean_linker_0, # of connection points: 2
#     Edge 94, Type (0, 1), BuildingBlock: XIVTED_clean_linker_0, # of connection points: 2
#     Edge 95, Type (0, 1), BuildingBlock: XIVTED_clean_linker_0, # of connection points: 2
#     Edge 96, Type (0, 1), BuildingBlock: XIVTED_clean_linker_0, # of connection points: 2
#     Edge 97, Type (0, 1), BuildingBlock: XIVTED_clean_linker_0, # of connection points: 2
#     Edge 98, Type (0, 1), BuildingBlock: XIVTED_clean_linker_0, # of connection points: 2
#     Edge 99, Type (0, 1), BuildingBlock: XIVTED_clean_linker_0, # of connection points: 2
#     Edge 100, Type (0, 1), BuildingBlock: XIVTED_clean_linker_0, # of connection points: 2
#     Edge 101, Type (0, 1), BuildingBlock: XIVTED_clean_linker_0, # of connection points: 2
#     Edge 102, Type (0, 1), BuildingBlock: XIVTED_clean_linker_0, # of connection points: 2
#     Edge 103, Type (0, 1), BuildingBlock: XIVTED_clean_linker_0, # of connection points: 2
#     Edge 104, Type (0, 1), BuildingBlock: XIVTED_clean_linker_0, # of connection points: 2
#     Edge 105, Type (0, 1), BuildingBlock: XIVTED_clean_linker_0, # of connection points: 2
#     Edge 106, Type (0, 1), BuildingBlock: XIVTED_clean_linker_0, # of connection points: 2
#     Edge 107, Type (0, 1), BuildingBlock: XIVTED_clean_linker_0, # of connection points: 2
#     Edge 108, Type (0, 1), BuildingBlock: XIVTED_clean_linker_0, # of connection points: 2
#     Edge 109, Type (0, 1), BuildingBlock: XIVTED_clean_linker_0, # of connection points: 2
#     Edge 110, Type (0, 1), BuildingBlock: XIVTED_clean_linker_0, # of connection points: 2
#     Edge 111, Type (0, 1), BuildingBlock: XIVTED_clean_linker_0, # of connection points: 2
#     Edge 112, Type (0, 1), BuildingBlock: XIVTED_clean_linker_0, # of connection points: 2
#     Edge 113, Type (0, 1), BuildingBlock: XIVTED_clean_linker_0, # of connection points: 2
#     Edge 114, Type (0, 1), BuildingBlock: XIVTED_clean_linker_0, # of connection points: 2
#     Edge 115, Type (0, 1), BuildingBlock: XIVTED_clean_linker_0, # of connection points: 2
#     Edge 116, Type (0, 1), BuildingBlock: XIVTED_clean_linker_0, # of connection points: 2
#     Edge 117, Type (0, 1), BuildingBlock: XIVTED_clean_linker_0, # of connection points: 2
#     Edge 118, Type (0, 1), BuildingBlock: XIVTED_clean_linker_0, # of connection points: 2
#     Edge 119, Type (0, 1), BuildingBlock: XIVTED_clean_linker_0, # of connection points: 2
#     Edge 120, Type (0, 1), BuildingBlock: XIVTED_clean_linker_0, # of connection points: 2
#     Edge 121, Type (0, 1), BuildingBlock: XIVTED_clean_linker_0, # of connection points: 2
#     Edge 122, Type (0, 1), BuildingBlock: XIVTED_clean_linker_0, # of connection points: 2
#     Edge 123, Type (0, 1), BuildingBlock: XIVTED_clean_linker_0, # of connection points: 2
#     Edge 124, Type (0, 1), BuildingBlock: XIVTED_clean_linker_0, # of connection points: 2
#     Edge 125, Type (0, 1), BuildingBlock: XIVTED_clean_linker_0, # of connection points: 2
#     Edge 126, Type (0, 1), BuildingBlock: XIVTED_clean_linker_0, # of connection points: 2
#     Edge 127, Type (0, 1), BuildingBlock: XIVTED_clean_linker_0, # of connection points: 2
#     Edge 128, Type (0, 1), BuildingBlock: XIVTED_clean_linker_0, # of connection points: 2
#     Edge 129, Type (0, 1), BuildingBlock: XIVTED_clean_linker_0, # of connection points: 2
#     Edge 130, Type (0, 1), BuildingBlock: XIVTED_clean_linker_0, # of connection points: 2
#     Edge 131, Type (0, 1), BuildingBlock: XIVTED_clean_linker_0, # of connection points: 2
#     Edge 132, Type (0, 1), BuildingBlock: XIVTED_clean_linker_0, # of connection points: 2
#     Edge 133, Type (0, 1), BuildingBlock: XIVTED_clean_linker_0, # of connection points: 2
#     Edge 134, Type (0, 1), BuildingBlock: XIVTED_clean_linker_0, # of connection points: 2
#     Edge 135, Type (0, 1), BuildingBlock: XIVTED_clean_linker_0, # of connection points: 2
# Relax obj value: 0.121
# Max RMSD: 0.224
# Mean RMSD: 0.152
data_MOF--net-gar--node1-NAHDIM_clean_sbu_0--node2-CUKXOW_clean_sbu_0--edge1-XIVTED_clean_linker_0
_symmetry_space_group_name_H-M    P1
_symmetry_Int_Tables_number       1
_symmetry_cell_setting            triclinic
loop_
_symmetry_equiv_pos_as_xyz
'x, y, z'
_cell_length_a     56.554454
_cell_length_b     53.971538
_cell_length_c     53.028071
_cell_angle_alpha  93.83015
_cell_angle_beta   95.819114
_cell_angle_gamma 99.95265
loop_
_atom_site_label
_atom_site_type_symbol
_atom_site_fract_x
_atom_site_fract_y
_atom_site_fract_z
_atom_type_partial_charge
C0 C 0.05251 0.25939 0.38204 0.0
O1 O 0.03491 0.23975 0.3801 0.0
O2 O 0.02392 0.24643 0.44018 0.0
Zn3 Zn 0.02654 0.2769 0.42084 0.0
O4 O 0.03362 0.30805 0.44469 0.0
C5 C 0.98098 0.25593 0.3915 0.0
O6 O 0.98529 0.23468 0.40006 0.0
O7 O 0.05294 0.27748 0.39875 0.0
C8 C 0.02272 0.30988 0.46432 0.0
O9 O 0.00655 0.29074 0.46918 0.0
C10 C 0.04081 0.24376 0.45684 0.0
O11 O 0.06019 0.26148 0.46142 0.0
O12 O 0.99587 0.27629 0.39833 0.0
C13 C 0.95551 0.77241 0.64605 0.0
O14 O 0.95817 0.75068 0.63506 0.0
O15 O 0.97985 0.75995 0.58925 0.0
Zn16 Zn 0.98889 0.79206 0.6119 0.0
O17 O 0.98862 0.82178 0.5912 0.0
C18 C 0.02675 0.77782 0.64514 0.0
O19 O 0.00946 0.75926 0.64882 0.0
O20 O 0.96635 0.79279 0.63864 0.0
C21 C 0.00453 0.84153 0.59734 0.0
O22 O 0.02028 0.84225 0.61748 0.0
C23 C 0.9918 0.75644 0.57073 0.0
O24 O 0.00932 0.77444 0.56628 0.0
O25 O 0.02225 0.79379 0.62964 0.0
C26 C 0.55538 0.79056 0.88805 0.0
O27 O 0.54183 0.80795 0.88581 0.0
O28 O 0.5195 0.74398 0.94333 0.0
Zn29 Zn 0.52505 0.77584 0.9261 0.0
O30 O 0.5313 0.80576 0.95167 0.0
C31 C 0.48442 0.75632 0.89003 0.0
O32 O 0.49202 0.73507 0.89391 0.0
O33 O 0.55217 0.77525 0.90507 0.0
C34 C 0.51468 0.8086 0.96541 0.0
O35 O 0.49439 0.79207 0.96209 0.0
C36 C 0.52436 0.74209 0.96694 0.0
O37 O 0.53438 0.76221 0.9821 0.0
O38 O 0.49564 0.77673 0.9022 0.0
C39 C 0.46834 0.28515 0.12976 0.0
O40 O 0.48592 0.30488 0.13262 0.0
O41 O 0.48786 0.24445 0.06199 0.0
Zn42 Zn 0.49475 0.27182 0.09023 0.0
O43 O 0.49595 0.30511 0.07647 0.0
C44 C 0.52777 0.26197 0.13191 0.0
O45 O 0.50832 0.24865 0.1392 0.0
O46 O 0.46827 0.26771 0.11245 0.0
C47 C 0.51533 0.31794 0.07069 0.0
O48 O 0.53541 0.30872 0.07275 0.0
C49 C 0.50046 0.24383 0.04355 0.0
O50 O 0.51933 0.26165 0.04283 0.0
O51 O 0.52621 0.27234 0.11117 0.0
C52 C 0.94187 0.75691 0.17891 0.0
O53 O 0.93843 0.74139 0.15819 0.0
O54 O 0.99106 0.73483 0.14775 0.0
Zn55 Zn 0.99044 0.76987 0.16381 0.0
O56 O 0.98709 0.79386 0.13653 0.0
C57 C 0.03129 0.76793 0.20056 0.0
O58 O 0.01786 0.7463 0.20411 0.0
O59 O 0.96271 0.77033 0.18545 0.0
C60 C 0.00533 0.80303 0.12575 0.0
O61 O 0.0261 0.79596 0.13196 0.0
C62 C 0.98048 0.7261 0.12584 0.0
O63 O 0.96738 0.73982 0.11286 0.0
O64 O 0.02291 0.78195 0.18488 0.0
C65 C 0.56924 0.80531 0.35053 0.0
O66 O 0.5717 0.82065 0.37131 0.0
O67 O 0.51543 0.76226 0.38283 0.0
Zn68 Zn 0.51913 0.79236 0.36194 0.0
O69 O 0.52239 0.82396 0.38584 0.0
C70 C 0.47331 0.76983 0.332 0.0
O71 O 0.47862 0.74883 0.34031 0.0
O72 O 0.54855 0.79209 0.34272 0.0
C73 C 0.50791 0.82341 0.40276 0.0
O74 O 0.49226 0.80261 0.40398 0.0
C75 C 0.52968 0.76123 0.40273 0.0
O76 O 0.54767 0.78011 0.40976 0.0
O77 O 0.48829 0.79038 0.33794 0.0
C78 C 0.44576 0.26216 0.67505 0.0
O79 O 0.44279 0.26201 0.65013 0.0
O80 O 0.49275 0.23152 0.64406 0.0
Zn81 Zn 0.49489 0.26495 0.66478 0.0
O82 O 0.49347 0.2928 0.64102 0.0
C83 C 0.53569 0.25556 0.69838 0.0
O84 O 0.52249 0.23288 0.69742 0.0
O85 O 0.46696 0.2632 0.68622 0.0
C86 C 0.51279 0.30701 0.63668 0.0
O87 O 0.53363 0.30332 0.64766 0.0
C88 C 0.50536 0.23047 0.62561 0.0
O89 O 0.51902 0.25124 0.62018 0.0
O90 O 0.52718 0.27252 0.6868 0.0
C91 C 0.07611 0.3008 0.85391 0.0
O92 O 0.07957 0.30943 0.87801 0.0
O93 O 0.02451 0.26708 0.88593 0.0
Zn94 Zn 0.02537 0.29511 0.86237 0.0
O95 O 0.02732 0.32844 0.88391 0.0
C96 C 0.98102 0.26835 0.83007 0.0
O97 O 0.9878 0.2475 0.83705 0.0
O98 O 0.05457 0.2945 0.843 0.0
C99 C 0.00722 0.33489 0.88753 0.0
O100 O 0.98714 0.32015 0.87725 0.0
C101 C 0.00635 0.2587 0.89721 0.0
O102 O 0.98665 0.26842 0.89356 0.0
O103 O 0.99446 0.28952 0.83761 0.0
C104 C 0.36916 0.11603 0.2356 0.0
O105 O 0.37216 0.10508 0.21357 0.0
O106 O 0.41542 0.07712 0.22522 0.0
Zn107 Zn 0.3975 0.07999 0.25667 0.0
O108 O 0.41916 0.08305 0.2903 0.0
C109 C 0.36398 0.03392 0.23689 0.0
O110 O 0.37016 0.04041 0.21469 0.0
O111 O 0.37884 0.10892 0.25595 0.0
C112 C 0.42847 0.06427 0.29692 0.0
O113 O 0.42529 0.04394 0.28099 0.0
C114 C 0.43788 0.07664 0.22563 0.0
O115 O 0.45142 0.07947 0.24762 0.0
O116 O 0.37317 0.04799 0.25687 0.0
C117 C 0.319 0.13534 0.47975 0.0
O118 O 0.32714 0.15738 0.47171 0.0
O119 O 0.26978 0.17257 0.50369 0.0
Zn120 Zn 0.27344 0.1515 0.47205 0.0
O121 O 0.2847 0.17307 0.44475 0.0
C122 C 0.22304 0.13914 0.45424 0.0
O123 O 0.22557 0.16351 0.45191 0.0
O124 O 0.29654 0.12866 0.48087 0.0
C125 C 0.29272 0.19659 0.44935 0.0
O126 O 0.29323 0.20734 0.47239 0.0
C127 C 0.28758 0.18034 0.52058 0.0
O128 O 0.3089 0.17527 0.51691 0.0
O129 O 0.24149 0.12978 0.46114 0.0
C130 C 0.19343 0.9694 0.80879 0.0
O131 O 0.20406 0.98836 0.82518 0.0
O132 O 0.13852 0.99899 0.76393 0.0
Zn133 Zn 0.15474 0.99863 0.79914 0.0
O134 O 0.12987 0.99323 0.82368 0.0
C135 C 0.19293 0.03911 0.79376 0.0
O136 O 0.19591 0.02314 0.77504 0.0
O137 O 0.1729 0.97003 0.79703 0.0
C138 C 0.11352 0.0067 0.82246 0.0
O139 O 0.11378 0.02349 0.8056 0.0
C140 C 0.11841 0.98506 0.75561 0.0
O141 O 0.10686 0.97023 0.77077 0.0
O142 O 0.17663 0.03238 0.80799 0.0
C143 C 0.17218 0.92453 0.03638 0.0
O144 O 0.17673 0.91527 0.05828 0.0
O145 O 0.21307 0.88008 0.05246 0.0
Zn146 Zn 0.21198 0.89976 0.02072 0.0
O147 O 0.21024 0.87696 0.98798 0.0
C148 C 0.25971 0.92821 0.04149 0.0
O149 O 0.25473 0.9183 0.06272 0.0
O150 O 0.1845 0.92006 0.01831 0.0
C151 C 0.22935 0.86896 0.9831 0.0
O152 O 0.24855 0.87431 1.00002 0.0
C153 C 0.21351 0.85654 0.05188 0.0
O154 O 0.21126 0.84338 0.02976 0.0
O155 O 0.24389 0.92382 0.02213 0.0
C156 C 0.20674 0.44704 0.00303 0.0
O157 O 0.20831 0.42551 0.99081 0.0
O158 O 0.23054 0.41441 0.06641 0.0
Zn159 Zn 0.24376 0.4348 0.03902 0.0
O160 O 0.25232 0.4123 0.01108 0.0
C161 C 0.29081 0.45445 0.06661 0.0
O162 O 0.28828 0.43239 0.07608 0.0
O163 O 0.21965 0.45421 0.02413 0.0
C164 C 0.25679 0.39015 0.01261 0.0
O165 O 0.25628 0.37981 0.03432 0.0
C166 C 0.21438 0.39482 0.06039 0.0
O167 O 0.20597 0.38871 0.03636 0.0
O168 O 0.27367 0.45957 0.05168 0.0
C169 C 0.83676 0.13748 0.98584 0.0
O170 O 0.8358 0.15181 0.96683 0.0
O171 O 0.79934 0.18128 0.03563 0.0
Zn172 Zn 0.7955 0.15983 0.00165 0.0
O173 O 0.79547 0.18126 0.97118 0.0
C174 C 0.7444 0.1477 0.0008 0.0
O175 O 0.74758 0.17242 0.00141 0.0
O176 O 0.82178 0.13806 0.00219 0.0
C177 C 0.78341 0.17188 0.95007 0.0
O178 O 0.7719 0.14839 0.9483 0.0
C179 C 0.7932 0.20282 0.03854 0.0
O180 O 0.7858 0.21348 0.01836 0.0
O181 O 0.76269 0.137 0.99996 0.0
C182 C 0.15196 0.44666 0.2985 0.0
O183 O 0.15273 0.45511 0.32244 0.0
O184 O 0.10102 0.48649 0.2534 0.0
Zn185 Zn 0.12082 0.48413 0.28693 0.0
O186 O 0.10142 0.4818 0.31747 0.0
C187 C 0.1355 0.53656 0.29177 0.0
O188 O 0.11185 0.53419 0.28919 0.0
O189 O 0.13925 0.45566 0.28149 0.0
C190 C 0.08006 0.48652 0.3166 0.0
O191 O 0.0693 0.49144 0.29487 0.0
C192 C 0.08259 0.47142 0.24224 0.0
O193 O 0.07325 0.45156 0.25335 0.0
O194 O 0.14476 0.51675 0.29244 0.0
C195 C 0.72413 0.94095 0.53111 0.0
O196 O 0.72432 0.91864 0.5197 0.0
O197 O 0.76252 0.90629 0.57868 0.0
Zn198 Zn 0.76853 0.93198 0.55378 0.0
O199 O 0.7712 0.91365 0.52074 0.0
C200 C 0.81699 0.94884 0.57686 0.0
O201 O 0.81378 0.92639 0.5855 0.0
O202 O 0.74136 0.95081 0.54798 0.0
C203 C 0.78094 0.89428 0.51829 0.0
O204 O 0.79144 0.88594 0.53845 0.0
C205 C 0.74194 0.89622 0.58426 0.0
O206 O 0.72243 0.90391 0.57462 0.0
O207 O 0.79953 0.95572 0.56387 0.0
C208 C 0.84923 0.10494 0.2481 0.0
O209 O 0.86952 0.10766 0.26328 0.0
O210 O 0.88251 0.05604 0.20671 0.0
Zn211 Zn 0.86183 0.05694 0.23524 0.0
O212 O 0.88327 0.06218 0.2684 0.0
C213 C 0.83677 0.00576 0.21765 0.0
O214 O 0.84797 0.00931 0.19731 0.0
O215 O 0.84241 0.08483 0.23338 0.0
C216 C 0.90402 0.05606 0.27059 0.0
O217 O 0.91183 0.04576 0.25063 0.0
C218 C 0.89503 0.07542 0.19914 0.0
O219 O 0.89377 0.09796 0.2093 0.0
O220 O 0.83966 0.0235 0.23532 0.0
C221 C 0.33305 0.63005 0.51467 0.0
O222 O 0.3206 0.62922 0.53432 0.0
O223 O 0.30398 0.68437 0.53316 0.0
Zn224 Zn 0.30002 0.66351 0.4989 0.0
O225 O 0.29922 0.68636 0.46962 0.0
C226 C 0.24819 0.64673 0.48855 0.0
O227 O 0.24966 0.66887 0.47936 0.0
O228 O 0.32759 0.64348 0.49685 0.0
C229 C 0.29118 0.67719 0.44699 0.0
O230 O 0.28416 0.65263 0.44255 0.0
C231 C 0.29129 0.70141 0.53637 0.0
O232 O 0.27728 0.70653 0.51683 0.0
O233 O 0.26751 0.63968 0.4974 0.0
C234 C 0.342 0.59634 0.74768 0.0
O235 O 0.36171 0.59838 0.76363 0.0
O236 O 0.37684 0.54875 0.70682 0.0
Zn237 Zn 0.35484 0.54868 0.73426 0.0
O238 O 0.37548 0.55282 0.76771 0.0
C239 C 0.33353 0.4963 0.71769 0.0
O240 O 0.34774 0.49943 0.6996 0.0
O241 O 0.33545 0.57663 0.73236 0.0
C242 C 0.38869 0.53655 0.77235 0.0
O243 O 0.38878 0.51812 0.75488 0.0
C244 C 0.38843 0.56867 0.69925 0.0
O245 O 0.38525 0.59084 0.70867 0.0
O246 O 0.33292 0.51489 0.73349 0.0
C247 C 0.65524 0.94762 0.77563 0.0
O248 O 0.65772 0.96377 0.75818 0.0
O249 O 0.59987 0.97041 0.75105 0.0
Zn250 Zn 0.61922 0.97654 0.78633 0.0
O251 O 0.59857 0.97799 0.81557 0.0
C252 C 0.63665 0.02639 0.77257 0.0
O253 O 0.61576 0.02141 0.75828 0.0
O254 O 0.63925 0.94901 0.79064 0.0
C255 C 0.58755 0.99623 0.81985 0.0
O256 O 0.58862 0.01426 0.80431 0.0
C257 C 0.57761 0.97115 0.74535 0.0
O258 O 0.56409 0.97418 0.76364 0.0
O259 O 0.64233 0.01007 0.7872 0.0
C260 C 0.78925 0.59427 0.03114 0.0
O261 O 0.77861 0.60564 0.04822 0.0
O262 O 0.75546 0.64114 0.0252 0.0
Zn263 Zn 0.75854 0.61638 0.99653 0.0
O264 O 0.76696 0.63659 0.96722 0.0
C265 C 0.71261 0.5894 0.96863 0.0
O266 O 0.71844 0.60192 0.94909 0.0
O267 O 0.78383 0.59646 0.00763 0.0
C268 C 0.7551 0.65434 0.96414 0.0
O269 O 0.73778 0.65647 0.97846 0.0
C270 C 0.77221 0.65992 0.03234 0.0
O271 O 0.79209 0.66268 0.02116 0.0
O272 O 0.72692 0.59275 0.98911 0.0
C273 C 0.86787 0.61087 0.7369 0.0
O274 O 0.87361 0.60547 0.71403 0.0
O275 O 0.91537 0.5735 0.72292 0.0
Zn276 Zn 0.89605 0.57231 0.75341 0.0
O277 O 0.91777 0.57461 0.78652 0.0
C278 C 0.86064 0.52693 0.73272 0.0
O279 O 0.86222 0.53592 0.71041 0.0
O280 O 0.87588 0.59974 0.75543 0.0
C281 C 0.90709 0.57553 0.80646 0.0
O282 O 0.88385 0.5762 0.80396 0.0
C283 C 0.92279 0.55369 0.71513 0.0
O284 O 0.918 0.53328 0.72726 0.0
O285 O 0.87321 0.53908 0.75231 0.0
C286 C 0.67582 0.42633 0.54144 0.0
O287 O 0.68042 0.41639 0.56296 0.0
O288 O 0.71722 0.38146 0.55581 0.0
Zn289 Zn 0.71583 0.40225 0.52466 0.0
O290 O 0.71364 0.38024 0.49118 0.0
C291 C 0.76422 0.42948 0.545 0.0
O292 O 0.76021 0.41721 0.56516 0.0
O293 O 0.68817 0.4225 0.52321 0.0
C294 C 0.73277 0.37288 0.48533 0.0
O295 O 0.75244 0.37856 0.50159 0.0
C296 C 0.71915 0.35824 0.55448 0.0
O297 O 0.71827 0.34612 0.532 0.0
O298 O 0.74769 0.42676 0.52635 0.0
C299 C 0.68319 0.46931 0.27999 0.0
O300 O 0.6768 0.47989 0.25939 0.0
O301 O 0.64016 0.50734 0.26978 0.0
Zn302 Zn 0.65969 0.50646 0.30323 0.0
O303 O 0.63713 0.50266 0.33046 0.0
C304 C 0.68164 0.55824 0.32332 0.0
O305 O 0.66542 0.55565 0.33947 0.0
O306 O 0.67792 0.47762 0.30134 0.0
C307 C 0.61853 0.51298 0.32819 0.0
O308 O 0.61519 0.52647 0.30885 0.0
C309 C 0.62268 0.49055 0.2595 0.0
O310 O 0.61614 0.47007 0.27101 0.0
O311 O 0.68295 0.53961 0.30789 0.0
Tb312 Tb 0.00951 0.05745 0.00405 0.0
C313 C 0.01184 0.01416 0.96289 0.0
Tb314 Tb 0.99748 0.00255 0.01798 0.0
O315 O 0.04705 0.05323 0.00139 0.0
O316 O 0.02671 0.03306 0.02647 0.0
O317 O 0.00789 0.03756 0.96686 0.0
C318 C -0.00023 0.9559 0.03088 0.0
O319 O 0.01056 0.9979 0.9807 0.0
C320 C 0.96028 0.0239 0.00478 0.0
C321 C 0.99434 0.04606 0.05893 0.0
O322 O 0.98087 0.96275 0.01935 0.0
O323 O 0.01722 0.97518 0.03487 0.0
O324 O 0.95981 0.0063 0.02038 0.0
O325 O 0.98025 0.02693 0.99569 0.0
O326 O 0.99763 0.02239 0.05498 0.0
O327 O 0.99671 0.06249 0.04134 0.0
C328 C 0.00813 0.10433 0.99121 0.0
O329 O 0.98997 0.08575 0.98867 0.0
O330 O 0.02717 0.09664 0.00133 0.0
C331 C 0.04664 0.03592 0.0173 0.0
Tb332 Tb 0.26321 0.81233 0.26376 0.0
C333 C 0.30291 0.77707 0.26422 0.0
Tb334 Tb 0.24734 0.75237 0.25562 0.0
O335 O 0.27751 0.80999 0.30349 0.0
O336 O 0.25026 0.78184 0.28495 0.0
O337 O 0.29749 0.79965 0.2601 0.0
C338 C 0.22904 0.70453 0.26152 0.0
O339 O 0.28634 0.75648 0.26533 0.0
C340 C 0.25108 0.77413 0.21226 0.0
C341 C 0.20783 0.78751 0.25724 0.0
O342 O 0.24989 0.71657 0.27247 0.0
O343 O 0.21908 0.71927 0.24716 0.0
O344 O 0.24548 0.74986 0.21329 0.0
O345 O 0.25546 0.78324 0.23486 0.0
O346 O 0.21404 0.76559 0.26258 0.0
O347 O 0.22395 0.80797 0.25437 0.0
C348 C 0.27561 0.86052 0.25497 0.0
O349 O 0.26432 0.85263 0.27397 0.0
O350 O 0.27973 0.84133 0.2411 0.0
C351 C 0.26482 0.78769 0.30491 0.0
Tb352 Tb 0.53404 0.0256 0.51498 0.0
C353 C 0.51929 0.00595 0.56816 0.0
Tb354 Tb 0.48258 0.02206 0.52734 0.0
O355 O 0.53877 0.06671 0.51663 0.0
O356 O 0.51588 0.0462 0.53956 0.0
O357 O 0.53487 0.00716 0.55084 0.0
C358 C 0.44118 0.03583 0.53681 0.0
O359 O 0.49804 0.01312 0.56402 0.0
C360 C 0.49335 0.97995 0.50843 0.0
C361 C 0.49698 0.0403 0.47359 0.0
O362 O 0.44301 0.01527 0.52358 0.0
O363 O 0.4626 0.0482 0.54491 0.0
O364 O 0.47712 0.98065 0.5241 0.0
O365 O 0.50071 0.00193 0.5026 0.0
O366 O 0.4818 0.04028 0.49124 0.0
O367 O 0.51794 0.03253 0.47776 0.0
C368 C 0.57663 0.01507 0.5056 0.0
O369 O 0.57343 0.03542 0.51818 0.0
O370 O 0.55591 0.00072 0.49834 0.0
C371 C 0.52305 0.0679 0.53273 0.0
Tb372 Tb 0.26836 0.28043 0.79834 0.0
C373 C 0.27176 0.31931 0.75595 0.0
Tb374 Tb 0.25427 0.26101 0.73995 0.0
O375 O 0.30719 0.27668 0.79987 0.0
O376 O 0.28389 0.26815 0.76746 0.0
O377 O 0.2683 0.31558 0.78 0.0
C378 C 0.25809 0.24632 0.6921 0.0
O379 O 0.26973 0.30056 0.73782 0.0
C380 C 0.21824 0.26593 0.76652 0.0
C381 C 0.25318 0.22185 0.78169 0.0
O382 O 0.24367 0.26125 0.69902 0.0
O383 O 0.26981 0.23956 0.71199 0.0
O384 O 0.21606 0.25084 0.74585 0.0
O385 O 0.23911 0.27921 0.76947 0.0
O386 O 0.25552 0.22608 0.7576 0.0
O387 O 0.25458 0.24015 0.80021 0.0
C388 C 0.26787 0.29937 0.8457 0.0
O389 O 0.25314 0.27949 0.83474 0.0
O390 O 0.28264 0.30842 0.83001 0.0
C391 C 0.30553 0.26938 0.7758 0.0
Tb392 Tb 0.00767 0.03792 0.48717 0.0
C393 C 0.97763 0.02106 0.53052 0.0
Tb394 Tb 0.03493 0.03142 0.53882 0.0
O395 O 0.99349 0.9972 0.48168 0.0
O396 O 0.0267 0.01102 0.50275 0.0
O397 O 0.97787 0.03389 0.51004 0.0
C398 C 0.05065 0.0146 0.58233 0.0
O399 O 0.99739 0.01456 0.54192 0.0
C400 C 0.0313 0.07795 0.53116 0.0
C401 C 0.06474 0.05108 0.49591 0.0
O402 O 0.03377 0.02794 0.57942 0.0
O403 O 0.05904 0.01091 0.56077 0.0
O404 O 0.04844 0.072 0.54648 0.0
O405 O 0.01608 0.0584 0.5234 0.0
O406 O 0.06499 0.03786 0.51615 0.0
O407 O 0.04457 0.05634 0.4842 0.0
C408 C 0.99123 0.05117 0.44216 0.0
O409 O 0.00664 0.03624 0.44593 0.0
O410 O 0.9849 0.05875 0.46383 0.0
C411 C 0.01134 0.99137 0.49599 0.0
Tb412 Tb 0.28846 0.78057 0.77241 0.0
C413 C 0.25283 0.79307 0.81105 0.0
Tb414 Tb 0.23577 0.78062 0.75174 0.0
O415 O 0.29521 0.82061 0.78457 0.0
O416 O 0.26912 0.806 0.75407 0.0
O417 O 0.27289 0.78392 0.80821 0.0
C418 C 0.19119 0.7881 0.73771 0.0
O419 O 0.23721 0.79586 0.79137 0.0
C420 C 0.24741 0.73614 0.75707 0.0
C421 C 0.27152 0.76944 0.71289 0.0
O422 O 0.19679 0.77181 0.7531 0.0
O423 O 0.21074 0.80046 0.73039 0.0
O424 O 0.23095 0.74017 0.73977 0.0
O425 O 0.25499 0.75612 0.7712 0.0
O426 O 0.25136 0.77827 0.7159 0.0
O427 O 0.28715 0.76648 0.73245 0.0
C428 C 0.33167 0.76962 0.78659 0.0
O429 O 0.3278 0.78851 0.77387 0.0
O430 O 0.31122 0.75687 0.79132 0.0
C431 C 0.27778 0.82549 0.76893 0.0
Tb432 Tb 0.47812 0.01575 0.01525 0.0
C433 C 0.51382 0.97857 0.03286 0.0
Tb434 Tb 0.53231 0.03501 0.024 0.0
O435 O 0.47797 0.01581 0.97389 0.0
O436 O 0.50843 0.00995 0.99662 0.0
O437 O 0.49133 0.98307 0.03001 0.0
C438 C 0.57828 0.0559 0.02084 0.0
O439 O 0.53287 0.99565 0.0294 0.0
C440 C 0.50946 0.03696 0.06467 0.0
C441 C 0.49711 0.07005 0.00252 0.0
O442 O 0.56387 0.06475 0.03515 0.0
O443 O 0.56687 0.03505 0.00832 0.0
O444 O 0.53166 0.03354 0.06505 0.0
O445 O 0.50187 0.04116 0.04247 0.0
O446 O 0.51864 0.06355 0.00209 0.0
O447 O 0.47906 0.05555 0.01154 0.0
C448 C 0.43206 0.99904 0.02206 0.0
O449 O 0.44014 0.00245 1.00029 0.0
O450 O 0.44993 0.00487 0.04001 0.0
C451 C 0.50048 0.01349 0.97437 0.0
Tb452 Tb 0.23007 0.27263 0.25621 0.0
C453 C 0.27776 0.27451 0.29173 0.0
Tb454 Tb 0.2782 0.28675 0.2341 0.0
O455 O 0.23693 0.23455 0.26114 0.0
O456 O 0.25063 0.25456 0.23189 0.0
O457 O 0.25487 0.27738 0.2908 0.0
C458 C 0.3206 0.28621 0.21683 0.0
O459 O 0.28958 0.27448 0.27131 0.0
C460 C 0.2581 0.3245 0.24956 0.0
C461 C 0.23078 0.28762 0.19925 0.0
O462 O 0.30154 0.26884 0.21136 0.0
O463 O 0.31583 0.30419 0.23191 0.0
O464 O 0.27144 0.32554 0.23094 0.0
O465 O 0.2583 0.30399 0.25932 0.0
O466 O 0.25359 0.28461 0.19962 0.0
O467 O 0.21887 0.28601 0.2196 0.0
C468 C 0.18803 0.27213 0.27463 0.0
O469 O 0.19333 0.25377 0.26045 0.0
O470 O 0.20629 0.29061 0.27828 0.0
C471 C 0.25082 0.23465 0.24307 0.0
Tb472 Tb 0.48988 0.52731 0.99449 0.0
C473 C 0.45717 0.52585 0.04044 0.0
Tb474 Tb 0.51327 0.52995 0.04959 0.0
O475 O 0.49909 0.48993 0.98729 0.0
O476 O 0.49153 0.50239 0.02322 0.0
O477 O 0.45902 0.5297 0.01608 0.0
C478 C 0.53619 0.52037 0.09323 0.0
O479 O 0.47579 0.52294 0.05661 0.0
C480 C 0.50534 0.57271 0.03344 0.0
C481 C 0.54553 0.53121 0.00371 0.0
O482 O 0.52066 0.50406 0.07819 0.0
O483 O 0.53886 0.54207 0.08372 0.0
O484 O 0.50557 0.56794 0.05716 0.0
O485 O 0.51172 0.55495 0.02084 0.0
O486 O 0.5429 0.52472 0.02718 0.0
O487 O 0.52761 0.53733 0.98864 0.0
C488 C 0.46733 0.53221 0.94899 0.0
O489 O 0.47287 0.51154 0.95686 0.0
O490 O 0.47422 0.5504 0.96692 0.0
C491 C 0.49851 0.48498 0.0108 0.0
Tb492 Tb 0.78441 0.28096 0.27379 0.0
C493 C 0.74858 0.29394 0.31187 0.0
Tb494 Tb 0.73142 0.27893 0.25276 0.0
O495 O 0.78915 0.32156 0.28394 0.0
O496 O 0.76437 0.30429 0.25335 0.0
O497 O 0.76889 0.28521 0.30939 0.0
C498 C 0.68686 0.28569 0.23775 0.0
O499 O 0.73268 0.29558 0.292 0.0
C500 C 0.74414 0.23522 0.25964 0.0
C501 C 0.76765 0.26722 0.21449 0.0
O502 O 0.69238 0.26944 0.25324 0.0
O503 O 0.70649 0.2984 0.23091 0.0
O504 O 0.72724 0.23836 0.24236 0.0
O505 O 0.75142 0.2557 0.27317 0.0
O506 O 0.74711 0.2755 0.21701 0.0
O507 O 0.78352 0.26548 0.23431 0.0
C508 C 0.82772 0.27093 0.2892 0.0
O509 O 0.82387 0.2896 0.27609 0.0
O510 O 0.80726 0.25804 0.29363 0.0
C511 C 0.77198 0.32471 0.26693 0.0
Tb512 Tb 0.98097 0.52088 0.51675 0.0
C513 C 0.01894 0.48532 0.52192 0.0
Tb514 Tb 0.03537 0.54456 0.52067 0.0
O515 O 0.9816 0.50067 0.47974 0.0
O516 O 0.00626 0.53394 0.49137 0.0
O517 O 0.99694 0.48853 0.52645 0.0
C518 C 0.08127 0.56057 0.51259 0.0
O519 O 0.03574 0.50401 0.51635 0.0
C520 C 0.01463 0.54819 0.56267 0.0
C521 C 0.99734 0.58003 0.51507 0.0
O522 O 0.07451 0.54798 0.53147 0.0
O523 O 0.06225 0.56405 0.49844 0.0
O524 O 0.03319 0.56429 0.55794 0.0
O525 O 0.01042 0.53028 0.54554 0.0
O526 O 0.01933 0.57677 0.51079 0.0
O527 O 0.9805 0.56139 0.52048 0.0
C528 C 0.93486 0.50667 0.52486 0.0
O529 O 0.95356 0.50642 0.54111 0.0
O530 O 0.94211 0.51495 0.504 0.0
C531 C 0.00103 0.51531 0.4748 0.0
Tb532 Tb 0.76382 0.79175 0.29556 0.0
C533 C 0.76764 0.8306 0.25439 0.0
Tb534 Tb 0.75164 0.77107 0.24084 0.0
O535 O 0.8018 0.80287 0.2898 0.0
O536 O 0.78053 0.77098 0.26927 0.0
O537 O 0.76607 0.8275 0.2788 0.0
C538 C 0.75431 0.75749 0.19215 0.0
O539 O 0.76392 0.8113 0.23665 0.0
C540 C 0.71416 0.77767 0.26408 0.0
C541 C 0.74673 0.73302 0.28228 0.0
O542 O 0.77251 0.76717 0.20875 0.0
O543 O 0.73458 0.75546 0.20292 0.0
O544 O 0.71333 0.76062 0.24541 0.0
O545 O 0.73474 0.79163 0.26707 0.0
O546 O 0.75201 0.73597 0.25872 0.0
O547 O 0.74716 0.75261 0.29894 0.0
C548 C 0.76423 0.8057 0.34467 0.0
O549 O 0.77992 0.79405 0.33514 0.0
O550 O 0.74835 0.80941 0.32661 0.0
C551 C 0.80097 0.78516 0.27177 0.0
Tb552 Tb 0.76795 0.30297 0.76102 0.0
C553 C 0.80946 0.26957 0.76116 0.0
Tb554 Tb 0.75451 0.24285 0.75084 0.0
O555 O 0.78153 0.30011 0.80069 0.0
O556 O 0.75547 0.27127 0.78097 0.0
O557 O 0.80318 0.29203 0.75822 0.0
C558 C 0.73803 0.19384 0.75355 0.0
O559 O 0.79355 0.24817 0.76076 0.0
C560 C 0.75828 0.26679 0.70859 0.0
C561 C 0.71305 0.27574 0.75262 0.0
O562 O 0.75529 0.20752 0.76928 0.0
O563 O 0.7306 0.2077 0.73647 0.0
O564 O 0.7536 0.24236 0.70856 0.0
O565 O 0.76197 0.27483 0.73151 0.0
O566 O 0.71993 0.2538 0.75656 0.0
O567 O 0.72861 0.2971 0.75142 0.0
C568 C 0.77879 0.35143 0.75259 0.0
O569 O 0.7679 0.34298 0.77165 0.0
O570 O 0.78344 0.33265 0.73853 0.0
C571 C 0.76961 0.27727 0.80129 0.0
Tb572 Tb 0.73377 0.76954 0.77808 0.0
C573 C 0.7712 0.76566 0.82421 0.0
Tb574 Tb 0.78754 0.78311 0.77185 0.0
O575 O 0.73693 0.72939 0.77764 0.0
O576 O 0.75861 0.75407 0.75748 0.0
O577 O 0.74957 0.77096 0.81725 0.0
C578 C 0.83306 0.78064 0.76458 0.0
O579 O 0.7884 0.76712 0.80879 0.0
C580 C 0.76673 0.82135 0.78372 0.0
C581 C 0.74952 0.78786 0.72571 0.0
O582 O 0.81548 0.76159 0.76339 0.0
O583 O 0.82511 0.80122 0.77035 0.0
O584 O 0.78538 0.82302 0.7711 0.0
O585 O 0.7624 0.79957 0.79141 0.0
O586 O 0.7719 0.78454 0.73287 0.0
O587 O 0.73203 0.78439 0.74075 0.0
C588 C 0.68767 0.77009 0.78417 0.0
O589 O 0.69785 0.75034 0.78451 0.0
O590 O 0.70337 0.78942 0.78 0.0
C591 C 0.75483 0.73197 0.76398 0.0
Tb592 Tb 0.51255 0.55904 0.51064 0.0
C593 C 0.51685 0.51589 0.47004 0.0
Tb594 Tb 0.50192 0.504 0.52473 0.0
O595 O 0.55037 0.55581 0.50763 0.0
O596 O 0.53071 0.53501 0.53261 0.0
O597 O 0.51215 0.53901 0.47375 0.0
C598 C 0.50542 0.4582 0.53916 0.0
O599 O 0.51586 0.49971 0.48791 0.0
C600 C 0.46358 0.52419 0.51277 0.0
C601 C 0.4961 0.54727 0.56473 0.0
O602 O 0.48774 0.46333 0.52396 0.0
O603 O 0.52102 0.47871 0.54589 0.0
O604 O 0.46397 0.50592 0.52747 0.0
O605 O 0.48341 0.52821 0.50334 0.0
O606 O 0.50102 0.52416 0.56137 0.0
O607 O 0.49766 0.56341 0.54683 0.0
C608 C 0.51152 0.60553 0.4967 0.0
O609 O 0.52737 0.59966 0.51371 0.0
O610 O 0.49616 0.58533 0.48798 0.0
C611 C 0.55055 0.53837 0.52331 0.0
Tb612 Tb 0.02658 0.52862 0.01437 0.0
C613 C 0.01909 0.509 0.06788 0.0
Tb614 Tb 0.97617 0.52118 0.02984 0.0
O615 O 0.03807 0.56166 0.04197 0.0
O616 O 0.00252 0.55254 0.02472 0.0
O617 O 0.03318 0.51046 0.04926 0.0
C618 C 0.93638 0.52511 0.05155 0.0
O619 O 0.99679 0.51387 0.06495 0.0
C620 C 0.98566 0.48357 0.00133 0.0
C621 C 0.98361 0.54126 0.9765 0.0
O622 O 0.93924 0.50607 0.03666 0.0
O623 O 0.95605 0.54189 0.05436 0.0
O624 O 0.96436 0.48944 0.00124 0.0
O625 O -2e-05 0.49706 0.01874 0.0
O626 O 0.96971 0.53986 0.9953 0.0
O627 O 0.00589 0.53627 0.97931 0.0
C628 C 0.06512 0.52343 0.99088 0.0
O629 O 0.0641 0.54163 0.00776 0.0
O630 O 0.04446 0.50826 0.98727 0.0
C631 C 0.01649 0.5669 0.04163 0.0
H632 H 0.04572 0.23858 0.91418 0.0
H633 H 0.96866 0.12301 0.97292 0.0
H634 H 0.96884 0.23067 0.91746 0.0
H635 H 0.04645 0.14142 0.98603 0.0
H636 H 0.96824 0.16216 0.95224 0.0
H637 H 0.04638 0.20269 0.93986 0.0
C638 C 0.02898 0.22935 0.92035 0.0
C639 C 0.00716 0.2376 0.91355 0.0
C640 C 0.9854 0.15779 0.95984 0.0
C641 C 0.00779 0.1964 0.94289 0.0
C642 C 0.98564 0.13547 0.97165 0.0
C643 C 0.00764 0.12904 0.98111 0.0
C644 C 0.00734 0.17362 0.95719 0.0
C645 C 0.02911 0.14576 0.97898 0.0
C646 C 0.02939 0.20891 0.9351 0.0
C647 C 0.98607 0.22497 0.92222 0.0
N648 N 0.02845 0.16719 0.96701 0.0
N649 N 0.98688 0.20489 0.93627 0.0
H650 H 0.06616 0.80838 0.1933 0.0
H651 H 0.17105 0.7546 0.27288 0.0
H652 H 0.05445 0.7423 0.23518 0.0
H653 H 0.18475 0.82186 0.23302 0.0
H654 H 0.12786 0.75258 0.26238 0.0
H655 H 0.10893 0.81623 0.21049 0.0
C656 C 0.07249 0.79567 0.20631 0.0
C657 C 0.05667 0.77451 0.21264 0.0
C658 C 0.14022 0.76795 0.25607 0.0
C659 C 0.10564 0.78337 0.23229 0.0
C660 C 0.16498 0.76913 0.26209 0.0
C661 C 0.18163 0.78835 0.25367 0.0
C662 C 0.13185 0.78595 0.24125 0.0
C663 C 0.17257 0.80673 0.23993 0.0
C664 C 0.09694 0.80016 0.21608 0.0
C665 C 0.06594 0.75874 0.2296 0.0
N666 N 0.14828 0.80492 0.23389 0.0
N667 N 0.08978 0.76339 0.23866 0.0
H668 H 0.48246 0.82668 0.44363 0.0
H669 H 0.51828 0.97675 0.46729 0.0
H670 H 0.53288 0.87169 0.40155 0.0
H671 H 0.47765 0.93074 0.51722 0.0
H672 H 0.52406 0.93854 0.44319 0.0
H673 H 0.48056 0.86443 0.47083 0.0
C674 C 0.49322 0.84449 0.44015 0.0
C675 C 0.50777 0.84602 0.42016 0.0
C676 C 0.51405 0.93674 0.45953 0.0
C677 C 0.50557 0.88943 0.45125 0.0
C678 C 0.51086 0.95857 0.47341 0.0
C679 C 0.49768 0.95687 0.49445 0.0
C680 C 0.50371 0.91298 0.46653 0.0
C681 C 0.48797 0.93284 0.50113 0.0
C682 C 0.49215 0.86605 0.45575 0.0
C683 C 0.52139 0.86962 0.41668 0.0
N684 N 0.49107 0.91182 0.48714 0.0
N685 N 0.51983 0.89042 0.43196 0.0
H686 H 0.39875 0.26229 0.65681 0.0
H687 H 0.35014 0.26113 0.79374 0.0
H688 H 0.44463 0.26103 0.72674 0.0
H689 H 0.30742 0.27198 0.72476 0.0
H690 H 0.3843 0.25803 0.76936 0.0
H691 H 0.36437 0.26251 0.68109 0.0
C692 C 0.40163 0.26201 0.67728 0.0
C693 C 0.4247 0.26172 0.68973 0.0
C694 C 0.36736 0.26078 0.75949 0.0
C695 C 0.38523 0.26197 0.71775 0.0
C696 C 0.34787 0.2625 0.77338 0.0
C697 C 0.32574 0.2661 0.76108 0.0
C698 C 0.36472 0.26287 0.73311 0.0
C699 C 0.32382 0.26813 0.73477 0.0
C700 C 0.38194 0.26216 0.69116 0.0
C701 C 0.42722 0.26132 0.71633 0.0
N702 N 0.34303 0.26649 0.72166 0.0
N703 N 0.40774 0.26148 0.72944 0.0
H704 H 0.04007 0.88326 0.60098 0.0
H705 H 0.97275 0.95316 0.49554 0.0
H706 H 0.972 0.84898 0.5579 0.0
H707 H 0.04823 0.97562 0.52354 0.0
H708 H 0.9711 0.91566 0.51938 0.0
H709 H 0.0422 0.91873 0.5746 0.0
C710 C 0.02555 0.8832 0.58599 0.0
C711 C 0.00581 0.86315 0.58164 0.0
C712 C 0.98805 0.92874 0.5202 0.0
C713 C 0.00816 0.90367 0.55136 0.0
C714 C 0.98901 0.95005 0.50656 0.0
C715 C 0.01059 0.96757 0.50799 0.0
C716 C 0.00881 0.92514 0.5354 0.0
C717 C 0.03114 0.96279 0.52251 0.0
C718 C 0.02684 0.90339 0.57085 0.0
C719 C 0.98756 0.86405 0.56188 0.0
N720 N 0.02972 0.9421 0.53586 0.0
N721 N 0.98912 0.88406 0.54752 0.0
H722 H 0.44964 0.71623 0.86994 0.0
H723 H 0.37496 0.80054 0.78619 0.0
H724 H 0.47075 0.79687 0.86847 0.0
H725 H 0.34233 0.72928 0.81085 0.0
H726 H 0.4138 0.79582 0.80843 0.0
H727 H 0.41342 0.71751 0.84081 0.0
C728 C 0.44673 0.73416 0.86336 0.0
C729 C 0.46305 0.75653 0.87178 0.0
C730 C 0.39818 0.78112 0.80877 0.0
C731 C 0.42202 0.75803 0.8384 0.0
C732 C 0.3761 0.78374 0.79602 0.0
C733 C 0.35552 0.76538 0.79702 0.0
C734 C 0.39962 0.7599 0.82237 0.0
C735 C 0.35784 0.74394 0.8099 0.0
C736 C 0.42609 0.73486 0.84681 0.0
C737 C 0.45847 0.77924 0.86266 0.0
N738 N 0.37955 0.74181 0.82224 0.0
N739 N 0.43836 0.77941 0.84644 0.0
H740 H 0.45863 0.2097 0.03241 0.0
H741 H 0.5308 0.10683 0.98672 0.0
H742 H 0.53183 0.22653 0.01359 0.0
H743 H 0.45656 0.09122 0.00274 0.0
H744 H 0.52801 0.15125 0.98492 0.0
H745 H 0.45396 0.1679 0.01014 0.0
C746 C 0.4736 0.2047 0.02319 0.0
C747 C 0.49588 0.22122 0.02546 0.0
C748 C 0.51217 0.13803 0.98831 0.0
C749 C 0.49086 0.17331 0.00037 0.0
C750 C 0.51376 0.11263 0.98939 0.0
C751 C 0.49412 0.09546 0.99577 0.0
C752 C 0.4909 0.14625 0.99391 0.0
C753 C 0.47237 0.10394 0.99847 0.0
C754 C 0.47092 0.18085 0.01042 0.0
C755 C 0.51449 0.21412 0.01267 0.0
N756 N 0.4715 0.12885 0.99805 0.0
N757 N 0.51177 0.19039 0.00117 0.0
H758 H 0.05857 0.22369 0.34512 0.0
H759 H 0.17572 0.30994 0.30384 0.0
H760 H 0.0889 0.29899 0.37886 0.0
H761 H 0.15066 0.23244 0.27405 0.0
H762 H 0.14124 0.30733 0.32827 0.0
H763 H 0.08991 0.22732 0.31624 0.0
C764 C 0.07179 0.24096 0.34645 0.0
C765 C 0.07122 0.26102 0.3645 0.0
C766 C 0.14315 0.2909 0.31631 0.0
C767 C 0.10688 0.26534 0.33151 0.0
C768 C 0.16278 0.29242 0.30232 0.0
C769 C 0.166 0.2713 0.28714 0.0
C770 C 0.12669 0.26804 0.31517 0.0
C771 C 0.14875 0.24909 0.28567 0.0
C772 C 0.08963 0.24303 0.32994 0.0
C773 C 0.08872 0.28299 0.36534 0.0
N774 N 0.12984 0.24796 0.29971 0.0
N775 N 0.10583 0.28454 0.34911 0.0
H776 H 0.90922 0.03195 0.18273 0.0
H777 H 0.98114 0.09114 0.07341 0.0
H778 H 0.9193 0.11161 0.17235 0.0
H779 H 0.98534 0.01742 0.09872 0.0
H780 H 0.95919 0.09979 0.1095 0.0
H781 H 0.9369 0.02662 0.15135 0.0
C782 C 0.91723 0.04835 0.1738 0.0
C783 C 0.91182 0.07225 0.18006 0.0
C784 C 0.96524 0.08188 0.10731 0.0
C785 C 0.94366 0.06626 0.14403 0.0
C786 C 0.97785 0.07693 0.08675 0.0
C787 C 0.98494 0.0534 0.08284 0.0
C788 C 0.9595 0.06308 0.12389 0.0
C789 C 0.98011 0.03575 0.10077 0.0
C790 C 0.93319 0.04532 0.15599 0.0
C791 C 0.92295 0.09284 0.16803 0.0
N792 N 0.96746 0.04084 0.1203 0.0
N793 N 0.93822 0.08934 0.15041 0.0
H794 H 0.30942 0.72784 0.44664 0.0
H795 H 0.23783 0.74187 0.31172 0.0
H796 H 0.26537 0.66471 0.39999 0.0
H797 H 0.29898 0.79688 0.34626 0.0
H798 H 0.24468 0.7147 0.34602 0.0
H799 H 0.30293 0.75496 0.4122 0.0
C800 C 0.29842 0.71966 0.42918 0.0
C801 C 0.288 0.69392 0.42622 0.0
C802 C 0.25666 0.73268 0.34606 0.0
C803 C 0.28027 0.72492 0.38684 0.0
C804 C 0.25281 0.74811 0.32642 0.0
C805 C 0.26811 0.77142 0.32593 0.0
C806 C 0.27568 0.74085 0.36563 0.0
C807 C 0.28683 0.77897 0.34586 0.0
C808 C 0.29476 0.73515 0.40951 0.0
C809 C 0.27389 0.6844 0.40312 0.0
N810 N 0.29007 0.76377 0.36493 0.0
N811 N 0.27034 0.6999 0.38442 0.0
H812 H 0.60123 0.96797 0.70282 0.0
H813 H 0.49301 0.00111 0.60895 0.0
H814 H 0.53209 0.977 0.72624 0.0
H815 H 0.56205 0.9917 0.58544 0.0
H816 H 0.50608 0.98969 0.65125 0.0
H817 H 0.58624 0.97375 0.65913 0.0
C818 C 0.58281 0.97092 0.69877 0.0
C819 C 0.56795 0.97209 0.71835 0.0
C820 C 0.51834 0.98999 0.63681 0.0
C821 C 0.5507 0.97895 0.66821 0.0
C822 C 0.51088 0.99652 0.61258 0.0
C823 C 0.52647 0.99753 0.59351 0.0
C824 C 0.54161 0.98445 0.64217 0.0
C825 C 0.5494 0.99128 0.59947 0.0
C826 C 0.57427 0.97429 0.67378 0.0
C827 C 0.54424 0.97599 0.71185 0.0
N828 N 0.55629 0.98515 0.62326 0.0
N829 N 0.53642 0.97943 0.68741 0.0
H830 H 0.27426 0.4092 0.97076 0.0
H831 H 0.24126 0.28084 0.88296 0.0
H832 H 0.24878 0.33881 0.00172 0.0
H833 H 0.29396 0.34398 0.8669 0.0
H834 H 0.24058 0.30186 0.92546 0.0
H835 H 0.27854 0.38582 0.93104 0.0
C836 C 0.2697 0.38877 0.9692 0.0
C837 C 0.26114 0.37587 0.98946 0.0
C838 C 0.25241 0.31093 0.91264 0.0
C839 C 0.26568 0.34904 0.944 0.0
C840 C 0.25272 0.29904 0.88846 0.0
C841 C 0.26761 0.31083 0.87153 0.0
C842 C 0.2668 0.33483 0.91953 0.0
C843 C 0.28218 0.33433 0.87942 0.0
C844 C 0.27221 0.37545 0.94658 0.0
C845 C 0.25555 0.3494 0.98652 0.0
N846 N 0.28125 0.34567 0.90278 0.0
N847 N 0.25765 0.33679 0.964 0.0
H848 H 0.89333 0.07702 0.31555 0.0
H849 H 0.00603 0.03863 0.39676 0.0
H850 H 0.9481 0.0429 0.28275 0.0
H851 H 0.95349 0.07556 0.43028 0.0
H852 H 0.98683 0.04353 0.35455 0.0
H853 H 0.91664 0.07992 0.35734 0.0
C854 C 0.91032 0.07025 0.31711 0.0
C855 C 0.91866 0.05943 0.29566 0.0
C856 C 0.97957 0.05077 0.37108 0.0
C857 C 0.9454 0.06271 0.34343 0.0
C858 C 0.99053 0.04798 0.39517 0.0
C859 C 0.98114 0.05652 0.41691 0.0
C860 C 0.95891 0.06199 0.36872 0.0
C861 C 0.96116 0.06864 0.41389 0.0
C862 C 0.92364 0.07196 0.34098 0.0
C863 C 0.94088 0.05118 0.29878 0.0
N864 N 0.95052 0.0708 0.39016 0.0
N865 N 0.95338 0.05283 0.32225 0.0
H866 H 0.26351 0.7359 0.54963 0.0
H867 H 0.30684 0.74389 0.69909 0.0
H868 H 0.31672 0.69495 0.58191 0.0
H869 H 0.24693 0.77609 0.66708 0.0
H870 H 0.3132 0.72891 0.65622 0.0
H871 H 0.2599 0.75389 0.59222 0.0
C872 C 0.27459 0.73079 0.56564 0.0
C873 C 0.29041 0.71377 0.5621 0.0
C874 C 0.29873 0.73934 0.65856 0.0
C875 C 0.28626 0.73437 0.61117 0.0
C876 C 0.2951 0.74801 0.68307 0.0
C877 C 0.27629 0.76134 0.68681 0.0
C878 C 0.28351 0.74408 0.6375 0.0
C879 C 0.26163 0.76589 0.66522 0.0
C880 C 0.27245 0.74105 0.59002 0.0
C881 C 0.30426 0.70794 0.58368 0.0
N882 N 0.26555 0.75728 0.64155 0.0
N883 N 0.30182 0.71816 0.60727 0.0
H884 H 0.59077 0.97004 0.86237 0.0
H885 H 0.488 0.02709 0.92701 0.0
H886 H 0.55436 0.02607 0.82912 0.0
H887 H 0.54207 0.99474 0.97014 0.0
H888 H 0.50898 0.02258 0.88917 0.0
H889 H 0.56979 0.97431 0.90028 0.0
C890 C 0.57827 0.98313 0.86296 0.0
C891 C 0.57434 0.99775 0.84253 0.0
C892 C 0.5163 0.01653 0.90692 0.0
C893 C 0.55023 0.00261 0.88578 0.0
C894 C 0.50431 0.01905 0.92848 0.0
C895 C 0.51337 0.01132 0.95167 0.0
C896 C 0.53729 0.00582 0.90848 0.0
C897 C 0.53458 0.00105 0.9526 0.0
C898 C 0.56642 0.98565 0.88466 0.0
C899 C 0.55802 0.01449 0.84443 0.0
N900 N 0.54575 0.99843 0.93126 0.0
N901 N 0.5465 0.01637 0.8656 0.0
H902 H 0.21273 0.40564 0.11104 0.0
H903 H 0.238 0.27753 0.14974 0.0
H904 H 0.20368 0.34348 0.05331 0.0
H905 H 0.19959 0.32071 0.1974 0.0
H906 H 0.22654 0.30106 0.11384 0.0
H907 H 0.20904 0.37541 0.14355 0.0
C908 C 0.20957 0.3856 0.10523 0.0
C909 C 0.20857 0.37695 0.07958 0.0
C910 C 0.22013 0.3049 0.13202 0.0
C911 C 0.20493 0.34252 0.11647 0.0
C912 C 0.22668 0.29154 0.15245 0.0
C913 C 0.21975 0.29728 0.17648 0.0
C914 C 0.20731 0.32461 0.13598 0.0
C915 C 0.20518 0.31566 0.1791 0.0
C916 C 0.20736 0.36841 0.12371 0.0
C917 C 0.20446 0.35084 0.07294 0.0
N918 N 0.19994 0.32916 0.15923 0.0
N919 N 0.20335 0.33448 0.09137 0.0
H920 H 0.15994 0.94956 0.99485 0.0
H921 H 0.05593 0.00816 0.05741 0.0
H922 H 0.14128 0.93615 0.0703 0.0
H923 H 0.07934 0.02675 0.98505 0.0
H924 H 0.0859 0.98034 0.06187 0.0
H925 H 0.12939 0.97648 0.99023 0.0
C926 C 0.14941 0.9522 0.01044 0.0
C927 C 0.15329 0.94054 0.03303 0.0
C928 C 0.08451 0.9905 0.04501 0.0
C929 C 0.11814 0.97148 0.02785 0.0
C930 C 0.06733 0.00627 0.04242 0.0
C931 C 0.06503 0.01956 0.02074 0.0
C932 C 0.09958 0.98806 0.02578 0.0
C933 C 0.08055 0.01685 0.0021 0.0
C934 C 0.13196 0.96765 0.0078 0.0
C935 C 0.13901 0.94475 0.05255 0.0
N936 N 0.09708 0.00137 0.005 0.0
N937 N 0.12212 0.95983 0.04951 0.0
H938 H 0.67247 0.58766 0.9343 0.0
H939 H 0.586 0.51737 0.02715 0.0
H940 H 0.69738 0.55654 0.00292 0.0
H941 H 0.56003 0.55019 0.95999 0.0
H942 H 0.62664 0.52538 0.01442 0.0
H943 H 0.63106 0.56767 0.93906 0.0
C944 C 0.66929 0.57627 0.9501 0.0
C945 C 0.6883 0.57415 0.96851 0.0
C946 C 0.61202 0.53063 0.00232 0.0
C947 C 0.64113 0.55145 0.97417 0.0
C948 C 0.5888 0.5261 0.00963 0.0
C949 C 0.56966 0.53353 0.99486 0.0
C950 C 0.6162 0.54285 0.98019 0.0
C951 C 0.57431 0.54441 0.97213 0.0
C952 C 0.64566 0.56494 0.95286 0.0
C953 C 0.68319 0.55907 0.98853 0.0
N954 N 0.59718 0.54904 0.96565 0.0
N955 N 0.66008 0.54856 0.99098 0.0
H956 H 0.70612 0.44839 0.31894 0.0
H957 H 0.74165 0.33881 0.22938 0.0
H958 H 0.69009 0.44163 0.23715 0.0
H959 H 0.774 0.35969 0.30673 0.0
H960 H 0.71952 0.37401 0.23241 0.0
H961 H 0.72802 0.41325 0.31549 0.0
C962 C 0.70717 0.43949 0.30026 0.0
C963 C 0.69633 0.44799 0.27829 0.0
C964 C 0.73153 0.37093 0.24868 0.0
C965 C 0.72126 0.40775 0.27422 0.0
C966 C 0.74403 0.35083 0.24697 0.0
C967 C 0.75952 0.34643 0.26785 0.0
C968 C 0.73447 0.38651 0.27151 0.0
C969 C 0.7623 0.36262 0.29015 0.0
C970 C 0.71974 0.4195 0.2983 0.0
C971 C 0.69829 0.43577 0.25457 0.0
N972 N 0.74977 0.38188 0.29146 0.0
N973 N 0.71045 0.4162 0.25317 0.0
H974 H 0.78006 0.4543 0.50462 0.0
H975 H 0.91786 0.48887 0.56777 0.0
H976 H 0.80406 0.43782 0.58056 0.0
H977 H 0.89427 0.50437 0.49148 0.0
H978 H 0.87584 0.47251 0.57377 0.0
H979 H 0.82122 0.47528 0.50045 0.0
C980 C 0.79392 0.45526 0.52051 0.0
C981 C 0.78857 0.44415 0.54294 0.0
C982 C 0.8798 0.47957 0.55574 0.0
C983 C 0.83584 0.46805 0.53821 0.0
C984 C 0.90378 0.48891 0.55232 0.0
C985 C 0.90948 0.49784 0.52906 0.0
C986 C 0.86139 0.47914 0.53571 0.0
C987 C 0.8906 0.49756 0.50969 0.0
C988 C 0.81746 0.46721 0.51808 0.0
C989 C 0.80732 0.44602 0.56288 0.0
N990 N 0.8674 0.48826 0.5134 0.0
N991 N 0.83011 0.4576 0.55999 0.0
H992 H 0.35379 0.13739 0.27789 0.0
H993 H 0.2739 0.2234 0.20179 0.0
H994 H 0.34799 0.13816 0.19616 0.0
H995 H 0.26769 0.20708 0.27956 0.0
H996 H 0.30421 0.19587 0.19979 0.0
H997 H 0.32565 0.1669 0.2794 0.0
C998 C 0.34672 0.14386 0.26025 0.0
C999 C 0.35322 0.13515 0.23684 0.0
C1000 C 0.2962 0.19834 0.21728 0.0
C1001 C 0.32085 0.16902 0.23845 0.0
C1002 C 0.27905 0.21413 0.21845 0.0
C1003 C 0.26849 0.21764 0.24091 0.0
C1004 C 0.30285 0.1861 0.2388 0.0
C1005 C 0.27536 0.20483 0.26183 0.0
C1006 C 0.33055 0.16066 0.26112 0.0
C1007 C 0.34342 0.14427 0.21462 0.0
N1008 N 0.29217 0.18975 0.26031 0.0
N1009 N 0.32772 0.16069 0.21597 0.0
H1010 H 0.36654 0.15057 0.49743 0.0
H1011 H 0.3957 0.01556 0.51425 0.0
H1012 H 0.30943 0.08514 0.48694 0.0
H1013 H 0.43789 0.08254 0.55644 0.0
H1014 H 0.36342 0.03941 0.50347 0.0
H1015 H 0.39378 0.12499 0.51702 0.0
C1016 C 0.3598 0.13078 0.49912 0.0
C1017 C 0.33582 0.11986 0.49045 0.0
C1018 C 0.37954 0.04867 0.51556 0.0
C1019 C 0.36671 0.09061 0.5129 0.0
C1020 C 0.39785 0.03507 0.52179 0.0
C1021 C 0.41949 0.04729 0.53592 0.0
C1022 C 0.38329 0.07459 0.5232 0.0
C1023 C 0.42152 0.07255 0.54527 0.0
C1024 C 0.37523 0.11628 0.51057 0.0
C1025 C 0.32787 0.0942 0.49338 0.0
N1026 N 0.40382 0.08556 0.53829 0.0
N1027 N 0.34339 0.08031 0.50416 0.0
H1028 H 0.71239 0.57117 0.28772 0.0
H1029 H 0.73023 0.71946 0.32708 0.0
H1030 H 0.6824 0.60296 0.35149 0.0
H1031 H 0.74797 0.68782 0.25594 0.0
H1032 H 0.71771 0.67681 0.33939 0.0
H1033 H 0.73098 0.61363 0.27934 0.0
C1034 C 0.70993 0.58704 0.30017 0.0
C1035 C 0.69559 0.58348 0.32022 0.0
C1036 C 0.72444 0.67921 0.32114 0.0
C1037 C 0.71677 0.63222 0.31057 0.0
C1038 C 0.73163 0.70357 0.31407 0.0
C1039 C 0.74004 0.70726 0.29034 0.0
C1040 C 0.72576 0.65833 0.30442 0.0
C1041 C 0.74146 0.6859 0.27434 0.0
C1042 C 0.72049 0.61131 0.29528 0.0
C1043 C 0.69316 0.6048 0.33573 0.0
N1044 N 0.73433 0.66236 0.28165 0.0
N1045 N 0.70351 0.62827 0.33048 0.0
H1046 H 0.84657 0.50747 0.77623 0.0
H1047 H 0.79423 0.37009 0.70967 0.0
H1048 H 0.83972 0.49025 0.69486 0.0
H1049 H 0.78155 0.39322 0.7858 0.0
H1050 H 0.81113 0.4139 0.70384 0.0
H1051 H 0.82321 0.46571 0.78034 0.0
C1052 C 0.84006 0.49494 0.75919 0.0
C1053 C 0.84525 0.5023 0.73516 0.0
C1054 C 0.80444 0.40948 0.72174 0.0
C1055 C 0.8186 0.45439 0.73979 0.0
C1056 C 0.79483 0.38449 0.72509 0.0
C1057 C 0.78665 0.37812 0.7483 0.0
C1058 C 0.80622 0.42817 0.74191 0.0
C1059 C 0.78771 0.39743 0.76763 0.0
C1060 C 0.82663 0.47114 0.76156 0.0
C1061 C 0.83618 0.48535 0.71375 0.0
N1062 N 0.79763 0.4216 0.76412 0.0
N1063 N 0.82352 0.46208 0.7166 0.0
H1064 H 0.96479 0.81965 0.10567 0.0
H1065 H 0.0396 0.93877 0.05047 0.0
H1066 H 0.04228 0.83198 0.10569 0.0
H1067 H 0.96224 0.91706 0.03386 0.0
H1068 H 0.04085 0.89944 0.07048 0.0
H1069 H 0.96318 0.85489 0.07917 0.0
C1070 C 0.98145 0.82965 0.09997 0.0
C1071 C 0.00373 0.82295 0.10808 0.0
C1072 C 0.02361 0.9031 0.06225 0.0
C1073 C 0.00201 0.8634 0.0779 0.0
C1074 C 0.02289 0.92555 0.05085 0.0
C1075 C 0.00077 0.93111 0.04061 0.0
C1076 C 0.00199 0.88625 0.06377 0.0
C1077 C 0.97966 0.9134 0.04155 0.0
C1078 C 0.9805 0.84973 0.08479 0.0
C1079 C 0.0247 0.8365 0.09999 0.0
N1080 N 0.98074 0.89184 0.05321 0.0
N1081 N 0.02335 0.85621 0.08557 0.0
H1082 H 0.94562 0.22689 0.81491 0.0
H1083 H 0.84799 0.30884 0.76445 0.0
H1084 H 0.96092 0.3079 0.81324 0.0
H1085 H 0.8308 0.22863 0.77142 0.0
H1086 H 0.89032 0.308 0.77804 0.0
H1087 H 0.9046 0.22642 0.79491 0.0
C1088 C 0.94046 0.24456 0.81014 0.0
C1089 C 0.95679 0.26748 0.81591 0.0
C1090 C 0.87733 0.29054 0.77643 0.0
C1091 C 0.9097 0.26708 0.79305 0.0
C1092 C 0.85307 0.29097 0.76859 0.0
C1093 C 0.83562 0.26878 0.76687 0.0
C1094 C 0.88435 0.26777 0.78268 0.0
C1095 C 0.84351 0.24624 0.77249 0.0
C1096 C 0.91698 0.24428 0.79876 0.0
C1097 C 0.94899 0.28977 0.80925 0.0
N1098 N 0.86723 0.24635 0.78028 0.0
N1099 N 0.92602 0.28902 0.79832 0.0
H1100 H 0.48381 0.18273 0.6348 0.0
H1101 H 0.5354 0.11534 0.51814 0.0
H1102 H 0.52751 0.22278 0.58304 0.0
H1103 H 0.50044 0.07446 0.57538 0.0
H1104 H 0.52926 0.15488 0.5396 0.0
H1105 H 0.48621 0.14282 0.61116 0.0
C1106 C 0.4938 0.18316 0.61841 0.0
C1107 C 0.50557 0.20616 0.61097 0.0
C1108 C 0.52279 0.13727 0.54742 0.0
C1109 C 0.50839 0.16058 0.58386 0.0
C1110 C 0.52628 0.11471 0.53516 0.0
C1111 C 0.5183 0.09164 0.54495 0.0
C1112 C 0.51125 0.13678 0.56969 0.0
C1113 C 0.50659 0.09185 0.56703 0.0
C1114 C 0.4952 0.16037 0.60496 0.0
C1115 C 0.51825 0.20554 0.58957 0.0
N1116 N 0.50345 0.11408 0.57871 0.0
N1117 N 0.51934 0.18316 0.57683 0.0
H1118 H 0.6152 0.83302 0.35992 0.0
H1119 H 0.66969 0.74792 0.25905 0.0
H1120 H 0.5722 0.771 0.31085 0.0
H1121 H 0.71012 0.81758 0.29752 0.0
H1122 H 0.63434 0.75515 0.27945 0.0
H1123 H 0.65058 0.8269 0.33886 0.0
C1124 C 0.61315 0.81816 0.34467 0.0
C1125 C 0.59062 0.80249 0.33718 0.0
C1126 C 0.65092 0.76887 0.2835 0.0
C1127 C 0.6312 0.79528 0.31309 0.0
C1128 C 0.67114 0.76474 0.27188 0.0
C1129 C 0.69293 0.78208 0.27678 0.0
C1130 C 0.65246 0.79051 0.30029 0.0
C1131 C 0.69378 0.80355 0.29354 0.0
C1132 C 0.63339 0.81469 0.33264 0.0
C1133 C 0.58914 0.78357 0.31727 0.0
N1134 N 0.67385 0.80713 0.30475 0.0
N1135 N 0.60913 0.78044 0.30603 0.0
H1136 H 0.07419 0.23036 0.49202 0.0
H1137 H 0.99509 0.09411 0.50253 0.0
H1138 H 0.00296 0.20416 0.45181 0.0
H1139 H 0.06749 0.11876 0.53994 0.0
H1140 H 0.99658 0.13549 0.4859 0.0
H1141 H 0.07104 0.19068 0.51216 0.0
C1142 C 0.05786 0.21632 0.48751 0.0
C1143 C 0.03888 0.22049 0.47011 0.0
C1144 C 0.01213 0.13189 0.4978 0.0
C1145 C 0.03516 0.17512 0.493 0.0
C1146 C 0.01129 0.10828 0.50716 0.0
C1147 C 0.03129 0.10308 0.52229 0.0
C1148 C 0.03314 0.15035 0.5037 0.0
C1149 C 0.05171 0.12211 0.52825 0.0
C1150 C 0.05607 0.19367 0.499 0.0
C1151 C 0.0181 0.20169 0.46502 0.0
N1152 N 0.05217 0.14492 0.51883 0.0
N1153 N 0.01684 0.17978 0.47635 0.0
H1154 H 0.56975 0.29266 0.12453 0.0
H1155 H 0.64478 0.25797 0.24868 0.0
H1156 H 0.53833 0.24262 0.17735 0.0
H1157 H 0.67343 0.31367 0.19974 0.0
H1158 H 0.60497 0.25378 0.22435 0.0
H1159 H 0.60749 0.30149 0.15272 0.0
C1160 C 0.5708 0.28344 0.14204 0.0
C1161 C 0.55089 0.26674 0.14854 0.0
C1162 C 0.61988 0.26713 0.2191 0.0
C1163 C 0.59409 0.27692 0.18101 0.0
C1164 C 0.64255 0.26959 0.23303 0.0
C1165 C 0.66232 0.28604 0.226 0.0
C1166 C 0.61712 0.28109 0.19792 0.0
C1167 C 0.65859 0.30069 0.20565 0.0
C1168 C 0.59235 0.28863 0.15821 0.0
C1169 C 0.55327 0.25552 0.17155 0.0
N1170 N 0.63644 0.29768 0.19212 0.0
N1171 N 0.57454 0.26075 0.18693 0.0
H1172 H 0.55509 0.84471 0.97903 0.0
H1173 H 0.48005 0.93802 0.04143 0.0
H1174 H 0.48103 0.82312 0.99402 0.0
H1175 H 0.55494 0.95889 0.029 0.0
H1176 H 0.48293 0.89372 0.03348 0.0
H1177 H 0.558 0.88406 0.00554 0.0
C1178 C 0.5395 0.84814 0.98811 0.0
C1179 C 0.5176 0.8309 0.98384 0.0
C1180 C 0.49887 0.90796 0.03297 0.0
C1181 C 0.52078 0.87592 0.01414 0.0
C1182 C 0.49726 0.9333 0.03757 0.0
C1183 C 0.51708 0.95223 0.03511 0.0
C1184 C 0.52037 0.90158 0.02561 0.0
C1185 C 0.53903 0.94495 0.03057 0.0
C1186 C 0.5412 0.87057 0.00334 0.0
C1187 C 0.49814 0.83609 0.99644 0.0
N1188 N 0.53994 0.9202 0.0254 0.0
N1189 N 0.50006 0.85834 0.0107 0.0
H1190 H 0.93064 0.7325 0.66726 0.0
H1191 H 0.86845 0.81997 0.75754 0.0
H1192 H 0.94667 0.81401 0.67339 0.0
H1193 H 0.84946 0.73871 0.74797 0.0
H1194 H 0.90212 0.81788 0.73238 0.0
H1195 H 0.90512 0.73419 0.70156 0.0
C1196 C 0.92884 0.75076 0.67585 0.0
C1197 C 0.94055 0.77315 0.66723 0.0
C1198 C 0.89082 0.80048 0.7361 0.0
C1199 C 0.91147 0.77522 0.70658 0.0
C1200 C 0.87173 0.80167 0.75059 0.0
C1201 C 0.85611 0.7795 0.7545 0.0
C1202 C 0.89412 0.77694 0.72544 0.0
C1203 C 0.86105 0.75626 0.74515 0.0
C1204 C 0.91433 0.75171 0.69551 0.0
C1205 C 0.93777 0.79627 0.67925 0.0
N1206 N 0.87947 0.75559 0.73075 0.0
N1207 N 0.92337 0.7967 0.6982 0.0
H1208 H 0.07587 0.03215 0.82426 0.0
H1209 H 0.03595 0.97557 0.95205 0.0
H1210 H 0.1084 0.9751 0.86077 0.0
H1211 H 0.00893 0.03758 0.91888 0.0
H1212 H 0.05744 0.96993 0.91491 0.0
H1213 H 0.04661 0.02953 0.85517 0.0
C1214 C 0.0768 0.01897 0.83871 0.0
C1215 C 0.09482 0.00406 0.84013 0.0
C1216 C 0.04651 0.98452 0.9156 0.0
C1217 C 0.06131 0.00095 0.87562 0.0
C1218 C 0.03408 0.98762 0.93671 0.0
C1219 C 0.02082 0.00724 0.93867 0.0
C1220 C 0.04562 0.00113 0.89636 0.0
C1221 C 0.01917 0.0224 0.9183 0.0
C1222 C 0.06004 0.01745 0.85634 0.0
C1223 C 0.09496 0.98713 0.85912 0.0
N1224 N 0.03162 0.01918 0.89813 0.0
N1225 N 0.07858 0.98619 0.87626 0.0
H1226 H 0.72332 0.37716 0.60472 0.0
H1227 H 0.75905 0.25138 0.6589 0.0
H1228 H 0.72725 0.30994 0.55763 0.0
H1229 H 0.74712 0.31431 0.70723 0.0
H1230 H 0.7496 0.2738 0.62159 0.0
H1231 H 0.73381 0.3557 0.64255 0.0
C1232 C 0.72626 0.35788 0.6023 0.0
C1233 C 0.72432 0.34536 0.57787 0.0
C1234 C 0.74931 0.2829 0.64035 0.0
C1235 C 0.73658 0.32076 0.62114 0.0
C1236 C 0.75481 0.27012 0.66165 0.0
C1237 C 0.75454 0.2813 0.68623 0.0
C1238 C 0.74327 0.30703 0.64357 0.0
C1239 C 0.74853 0.30545 0.68871 0.0
C1240 C 0.73231 0.34565 0.62393 0.0
C1241 C 0.72846 0.32039 0.57599 0.0
N1242 N 0.74312 0.31751 0.66768 0.0
N1243 N 0.73442 0.309 0.59726 0.0
H1244 H 0.42545 0.09428 0.34003 0.0
H1245 H 0.51597 0.03017 0.42938 0.0
H1246 H 0.45998 0.03398 0.31294 0.0
H1247 H 0.46043 0.06574 0.45866 0.0
H1248 H 0.50129 0.03855 0.3864 0.0
H1249 H 0.44381 0.09096 0.38342 0.0
C1250 C 0.43712 0.08058 0.34314 0.0
C1251 C 0.44112 0.0643 0.32284 0.0
C1252 C 0.49242 0.04465 0.40226 0.0
C1253 C 0.46222 0.06054 0.37231 0.0
C1254 C 0.50085 0.03999 0.42685 0.0
C1255 C 0.48935 0.04714 0.44773 0.0
C1256 C 0.47252 0.05687 0.39842 0.0
C1257 C 0.46975 0.05973 0.44314 0.0
C1258 C 0.44745 0.0786 0.36791 0.0
C1259 C 0.45629 0.04679 0.32802 0.0
N1260 N 0.46196 0.06421 0.41899 0.0
N1261 N 0.4663 0.04541 0.35219 0.0
H1262 H 0.80652 0.69784 0.05788 0.0
H1263 H 0.71767 0.73397 0.15688 0.0
H1264 H 0.73141 0.66309 0.05472 0.0
H1265 H 0.79501 0.75864 0.16851 0.0
H1266 H 0.72145 0.71361 0.11527 0.0
H1267 H 0.80167 0.72572 0.09462 0.0
C1268 C 0.78899 0.69619 0.0648 0.0
C1269 C 0.76941 0.67794 0.05346 0.0
C1270 C 0.73758 0.72365 0.12682 0.0
C1271 C 0.76374 0.70972 0.09525 0.0
C1272 C 0.73542 0.7353 0.15049 0.0
C1273 C 0.75609 0.74771 0.16608 0.0
C1274 C 0.7606 0.72443 0.11879 0.0
C1275 C 0.77866 0.74906 0.157 0.0
C1276 C 0.78625 0.71208 0.08575 0.0
C1277 C 0.74707 0.67669 0.06308 0.0
N1278 N 0.78036 0.73735 0.13396 0.0
N1279 N 0.74488 0.69229 0.08349 0.0
H1280 H 0.14274 -0.00062 0.71571 0.0
H1281 H 0.02752 0.0109 0.62465 0.0
H1282 H 0.07107 0.97247 0.73525 0.0
H1283 H 0.09333 0.99896 0.59509 0.0
H1284 H 0.04335 -0.00027 0.66626 0.0
H1285 H 0.1255 0.00253 0.6721 0.0
C1286 C 0.12337 0.99407 0.71077 0.0
C1287 C 0.10824 0.98581 0.72907 0.0
C1288 C 0.0542 -0.00071 0.65059 0.0
C1289 C 0.0885 0.98958 0.67945 0.0
C1290 C 0.04526 0.00575 0.62695 0.0
C1291 C 0.05929 0.00598 0.60665 0.0
C1292 C 0.07753 0.99361 0.65397 0.0
C1293 C 0.08205 0.99904 0.61041 0.0
C1294 C 0.1136 0.9957 0.68589 0.0
C1295 C 0.08332 0.97894 0.72167 0.0
N1296 N 0.09067 0.99349 0.63381 0.0
N1297 N 0.07414 0.98132 0.69744 0.0
H1298 H 0.76901 0.34989 0.47043 0.0
H1299 H 0.71046 0.31543 0.3257 0.0
H1300 H 0.69853 0.36424 0.44319 0.0
H1301 H 0.77695 0.29446 0.35707 0.0
H1302 H 0.70515 0.33296 0.36817 0.0
H1303 H 0.7716 0.32916 0.42885 0.0
C1304 C 0.75398 0.3486 0.45572 0.0
C1305 C 0.73353 0.35893 0.46037 0.0
C1306 C 0.72081 0.32438 0.36575 0.0
C1307 C 0.73647 0.33519 0.41232 0.0
C1308 C 0.72386 0.31432 0.34148 0.0
C1309 C 0.74421 0.30341 0.33768 0.0
C1310 C 0.73828 0.32365 0.38639 0.0
C1311 C 0.76098 0.30266 0.35894 0.0
C1312 C 0.75548 0.33671 0.43191 0.0
C1313 C 0.71463 0.35654 0.44049 0.0
N1314 N 0.75768 0.3127 0.38224 0.0
N1315 N 0.71662 0.34506 0.41729 0.0
H1316 H 0.48376 0.06883 0.22041 0.0
H1317 H 0.46546 0.05128 0.06795 0.0
H1318 H 0.41613 0.07223 0.17624 0.0
H1319 H 0.52697 0.03421 0.11398 0.0
H1320 H 0.44751 0.06095 0.1069 0.0
H1321 H 0.50057 0.0587 0.18121 0.0
C1322 C 0.47243 0.06756 0.20246 0.0
C1323 C 0.44845 0.07141 0.2017 0.0
C1324 C 0.46488 0.05499 0.10846 0.0
C1325 C 0.46769 0.0597 0.15651 0.0
C1326 C 0.47509 0.0494 0.08624 0.0
C1327 C 0.4977 0.04185 0.08775 0.0
C1328 C 0.47751 0.05327 0.13235 0.0
C1329 C 0.5095 0.03995 0.11193 0.0
C1330 C 0.48204 0.06166 0.18004 0.0
C1331 C 0.4347 0.06941 0.17778 0.0
N1332 N 0.49934 0.04572 0.13323 0.0
N1333 N 0.44451 0.06374 0.15616 0.0
H1334 H 0.7891 0.65567 0.93044 0.0
H1335 H 0.74792 0.77292 0.86579 0.0
H1336 H 0.73507 0.69591 0.95612 0.0
H1337 H 0.80231 0.73423 0.83855 0.0
H1338 H 0.74765 0.74858 0.90281 0.0
H1339 H 0.79796 0.687 0.89971 0.0
C1340 C 0.77915 0.6711 0.92965 0.0
C1341 C 0.76111 0.67302 0.94564 0.0
C1342 C 0.75992 0.7456 0.88897 0.0
C1343 C 0.77129 0.70894 0.91082 0.0
C1344 C 0.76014 0.75959 0.86787 0.0
C1345 C 0.77497 0.75536 0.849 0.0
C1346 C 0.77436 0.72695 0.89102 0.0
C1347 C 0.79059 0.73804 0.85271 0.0
C1348 C 0.78429 0.68902 0.91221 0.0
C1349 C 0.74893 0.69349 0.94399 0.0
N1350 N 0.78959 0.7241 0.87313 0.0
N1351 N 0.75416 0.71054 0.92682 0.0
H1352 H 0.87119 0.13126 0.95411 0.0
H1353 H 0.92674 0.03111 0.03653 0.0
H1354 H 0.84431 0.10554 0.02293 0.0
H1355 H 0.9516 0.05341 0.96583 0.0
H1356 H 0.89673 0.05864 0.03198 0.0
H1357 H 0.90116 0.10363 0.95831 0.0
C1358 C 0.87155 0.11981 0.97012 0.0
C1359 C 0.85511 0.12078 0.98819 0.0
C1360 C 0.90873 0.05759 0.01743 0.0
C1361 C 0.8895 0.08898 0.99309 0.0
C1362 C 0.92583 0.0418 0.01999 0.0
C1363 C 0.94182 0.0402 0.00165 0.0
C1364 C 0.90748 0.07186 0.99627 0.0
C1365 C 0.93988 0.05448 0.98063 0.0
C1366 C 0.88869 0.104 0.97248 0.0
C1367 C 0.85654 0.10547 0.00851 0.0
N1368 N 0.92306 0.06976 0.97852 0.0
N1369 N 0.87339 0.09026 0.01039 0.0
H1370 H 0.30336 0.49793 0.04367 0.0
H1371 H 0.44436 0.50698 0.08469 0.0
H1372 H 0.33269 0.44908 0.09497 0.0
H1373 H 0.4148 0.53527 0.01632 0.0
H1374 H 0.40353 0.49498 0.09627 0.0
H1375 H 0.34413 0.52097 0.04173 0.0
C1376 C 0.31831 0.49228 0.05488 0.0
C1377 C 0.31466 0.4712 0.06914 0.0
C1378 C 0.40605 0.5041 0.07891 0.0
C1379 C 0.36131 0.49756 0.06693 0.0
C1380 C 0.42934 0.51104 0.07227 0.0
C1381 C 0.43298 0.52182 0.04926 0.0
C1382 C 0.38628 0.50815 0.06255 0.0
C1383 C 0.41281 0.5267 0.03404 0.0
C1384 C 0.34158 0.50542 0.05367 0.0
C1385 C 0.33472 0.46498 0.08346 0.0
N1386 N 0.39027 0.51964 0.04087 0.0
N1387 N 0.35726 0.47795 0.08178 0.0
H1388 H 0.30341 0.60177 0.71404 0.0
H1389 H 0.27518 0.72091 0.7958 0.0
H1390 H 0.34664 0.63616 0.78341 0.0
H1391 H 0.24579 0.70072 0.71746 0.0
H1392 H 0.29796 0.68634 0.79356 0.0
H1393 H 0.2787 0.63473 0.71668 0.0
C1394 C 0.3077 0.61623 0.7298 0.0
C1395 C 0.32713 0.61626 0.74851 0.0
C1396 C 0.28652 0.68944 0.77685 0.0
C1397 C 0.29888 0.65375 0.75175 0.0
C1398 C 0.27364 0.70919 0.77811 0.0
C1399 C 0.25912 0.71389 0.75663 0.0
C1400 C 0.28453 0.67408 0.754 0.0
C1401 C 0.25695 0.6977 0.7344 0.0
C1402 C 0.29362 0.63502 0.73128 0.0
C1403 C 0.3319 0.63545 0.7685 0.0
N1404 N 0.26964 0.67851 0.7336 0.0
N1405 N 0.31782 0.65336 0.76964 0.0
H1406 H 0.20529 0.65158 0.46284 0.0
H1407 H 0.1235 0.55486 0.54025 0.0
H1408 H 0.23604 0.60693 0.51759 0.0
H1409 H 0.09606 0.5889 0.47476 0.0
H1410 H 0.16486 0.57354 0.53302 0.0
H1411 H 0.16515 0.62865 0.4675 0.0
C1412 C 0.20361 0.63682 0.47577 0.0
C1413 C 0.22408 0.63124 0.48991 0.0
C1414 C 0.14977 0.57676 0.52016 0.0
C1415 C 0.17792 0.60494 0.49556 0.0
C1416 C 0.12622 0.56616 0.52431 0.0
C1417 C 0.10639 0.57049 0.50815 0.0
C1418 C 0.15342 0.59192 0.49983 0.0
C1419 C 0.11084 0.58519 0.48774 0.0
C1420 C 0.18064 0.62368 0.4784 0.0
C1421 C 0.22075 0.61181 0.50628 0.0
N1422 N 0.13382 0.59548 0.48427 0.0
N1423 N 0.19807 0.5995 0.50884 0.0
H1424 H 0.65517 0.91042 0.80889 0.0
H1425 H 0.76616 0.85951 0.75317 0.0
H1426 H 0.6917 0.94122 0.74722 0.0
H1427 H 0.73077 0.82605 0.8142 0.0
H1428 H 0.73898 0.8899 0.75163 0.0
H1429 H 0.68225 0.87947 0.81179 0.0
C1430 C 0.66885 0.9107 0.79597 0.0
C1431 C 0.67115 0.9285 0.77778 0.0
C1432 C 0.73705 0.87597 0.76541 0.0
C1433 C 0.7022 0.89322 0.78107 0.0
C1434 C 0.75267 0.85864 0.76636 0.0
C1435 C 0.75058 0.84015 0.78373 0.0
C1436 C 0.71918 0.87498 0.78207 0.0
C1437 C 0.73275 0.83988 0.80033 0.0
C1438 C 0.6843 0.89303 0.79766 0.0
C1439 C 0.68919 0.92792 0.76155 0.0
N1440 N 0.71765 0.85702 0.79907 0.0
N1441 N 0.70397 0.91064 0.7636 0.0
H1442 H 0.71859 0.9879 0.54966 0.0
H1443 H 0.5851 0.97314 0.47947 0.0
H1444 H 0.68432 0.92447 0.49679 0.0
H1445 H 0.62088 0.03938 0.52756 0.0
H1446 H 0.623 0.95713 0.4819 0.0
H1447 H 0.68446 0.00893 0.53888 0.0
C1448 C 0.70392 0.97843 0.53574 0.0
C1449 C 0.70412 0.95428 0.52432 0.0
C1450 C 0.62269 0.97532 0.49167 0.0
C1451 C 0.66516 0.97822 0.51185 0.0
C1452 C 0.6011 0.98446 0.49023 0.0
C1453 C 0.59998 0.0074 0.50358 0.0
C1454 C 0.64314 0.98915 0.50682 0.0
C1455 C 0.62109 0.02148 0.51715 0.0
C1456 C 0.68451 0.99049 0.5295 0.0
C1457 C 0.68479 0.94299 0.50623 0.0
N1458 N 0.64182 0.01195 0.51872 0.0
N1459 N 0.66599 0.95498 0.5007 0.0
H1460 H 0.30794 0.48199 0.75713 0.0
H1461 H 0.28456 0.33488 0.71031 0.0
H1462 H 0.33018 0.45235 0.68744 0.0
H1463 H 0.27367 0.36359 0.78546 0.0
H1464 H 0.29671 0.37812 0.69954 0.0
H1465 H 0.29047 0.4391 0.76546 0.0
C1466 C 0.30895 0.46651 0.74343 0.0
C1467 C 0.3207 0.47078 0.72161 0.0
C1468 C 0.29158 0.37496 0.71836 0.0
C1469 C 0.30081 0.42159 0.73114 0.0
C1470 C 0.28459 0.35025 0.72454 0.0
C1471 C 0.27817 0.34552 0.74891 0.0
C1472 C 0.29211 0.39518 0.73661 0.0
C1473 C 0.27858 0.36628 0.76649 0.0
C1474 C 0.29904 0.442 0.74827 0.0
C1475 C 0.32142 0.44995 0.70457 0.0
N1476 N 0.28549 0.39019 0.76001 0.0
N1477 N 0.31171 0.42626 0.70975 0.0
H1478 H 0.18521 0.54959 0.29852 0.0
H1479 H 0.18325 0.68262 0.24419 0.0
H1480 H 0.12037 0.58056 0.28233 0.0
H1481 H 0.24655 0.66934 0.29014 0.0
H1482 H 0.16136 0.6421 0.25365 0.0
H1483 H 0.20942 0.59079 0.29246 0.0
C1484 C 0.17608 0.56506 0.29391 0.0
C1485 C 0.15071 0.56159 0.29075 0.0
C1486 C 0.18003 0.64797 0.26173 0.0
C1487 C 0.17818 0.6083 0.28348 0.0
C1488 C 0.1926 0.67105 0.25619 0.0
C1489 C 0.21673 0.67928 0.26642 0.0
C1490 C 0.19168 0.63276 0.2774 0.0
C1491 C 0.22794 0.66355 0.2819 0.0
C1492 C 0.1899 0.58849 0.2905 0.0
C1493 C 0.13983 0.58227 0.28486 0.0
N1494 N 0.2153 0.64086 0.28689 0.0
N1495 N 0.15361 0.6046 0.28117 0.0
H1496 H 0.49297 0.72023 0.39485 0.0
H1497 H 0.54571 0.64829 0.50914 0.0
H1498 H 0.55748 0.75187 0.44529 0.0
H1499 H 0.48013 0.61856 0.45977 0.0
H1500 H 0.54932 0.68744 0.48771 0.0
H1501 H 0.48716 0.68368 0.41972 0.0
C1502 C 0.50593 0.71951 0.41117 0.0
C1503 C 0.52583 0.73912 0.4179 0.0
C1504 C 0.53403 0.67244 0.4817 0.0
C1505 C 0.51924 0.69722 0.44656 0.0
C1506 C 0.53194 0.65016 0.49399 0.0
C1507 C 0.51265 0.63021 0.4861 0.0
C1508 C 0.51674 0.67467 0.46137 0.0
C1509 C 0.49532 0.6335 0.46636 0.0
C1510 C 0.50256 0.69863 0.42543 0.0
C1511 C 0.54193 0.73717 0.43935 0.0
N1512 N 0.49786 0.65523 0.45457 0.0
N1513 N 0.53834 0.71655 0.45285 0.0
H1514 H 0.55912 0.22406 0.72586 0.0
H1515 H 0.68934 0.31289 0.73504 0.0
H1516 H 0.57021 0.29825 0.69844 0.0
H1517 H 0.67645 0.23827 0.76139 0.0
H1518 H 0.64557 0.30992 0.72503 0.0
H1519 H 0.60175 0.23093 0.74248 0.0
C1520 C 0.57047 0.24189 0.72349 0.0
C1521 C 0.56105 0.26052 0.71057 0.0
C1522 C 0.65237 0.29432 0.73321 0.0
C1523 C 0.61014 0.26849 0.72945 0.0
C1524 C 0.67736 0.29604 0.73902 0.0
C1525 C 0.68667 0.27574 0.7489 0.0
C1526 C 0.63661 0.27216 0.73736 0.0
C1527 C 0.67022 0.25433 0.75357 0.0
C1528 C 0.59488 0.24581 0.73298 0.0
C1529 C 0.57669 0.28331 0.7082 0.0
N1530 N 0.6461 0.25308 0.74764 0.0
N1531 N 0.6005 0.28658 0.71737 0.0
H1532 H 0.96805 0.35734 0.88996 0.0
H1533 H 0.02687 0.46227 0.00307 0.0
H1534 H 0.04286 0.36565 0.9209 0.0
H1535 H 0.95675 0.45806 0.9609 0.0
H1536 H 0.034 0.42723 0.97423 0.0
H1537 H 0.96432 0.39426 0.91684 0.0
C1538 C 0.98378 0.36699 0.90241 0.0
C1539 C 0.00579 0.35827 0.9032 0.0
C1540 C 0.01714 0.43412 0.97128 0.0
C1541 C 0.00158 0.40091 0.93444 0.0
C1542 C 0.01309 0.45411 0.98766 0.0
C1543 C 0.9912 0.46305 0.9843 0.0
C1544 C 0.99903 0.42299 0.95166 0.0
C1545 C 0.97385 0.45169 0.96426 0.0
C1546 C 0.98164 0.3882 0.91779 0.0
C1547 C 0.02555 0.37175 0.91967 0.0
N1548 N 0.9781 0.43228 0.94883 0.0
N1549 N 0.02295 0.39235 0.93482 0.0
H1550 H 0.89594 0.72913 0.17187 0.0
H1551 H 0.84549 0.81494 0.27553 0.0
H1552 H 0.94067 0.79151 0.219 0.0
H1553 H 0.80404 0.74525 0.2381 0.0
H1554 H 0.88007 0.80757 0.25371 0.0
H1555 H 0.8617 0.73549 0.19466 0.0
C1556 C 0.89862 0.74411 0.18708 0.0
C1557 C 0.92128 0.75982 0.19349 0.0
C1558 C 0.86343 0.79386 0.25024 0.0
C1559 C 0.88198 0.76731 0.2196 0.0
C1560 C 0.84367 0.79808 0.26266 0.0
C1561 C 0.82183 0.78076 0.25848 0.0
C1562 C 0.86134 0.77218 0.23337 0.0
C1563 C 0.82047 0.75922 0.24165 0.0
C1564 C 0.87903 0.74772 0.2001 0.0
C1565 C 0.92359 0.77891 0.2134 0.0
N1566 N 0.83993 0.75558 0.22965 0.0
N1567 N 0.90419 0.78218 0.22564 0.0
H1568 H 0.54715 0.34558 0.0431 0.0
H1569 H 0.48434 0.46639 0.0541 0.0
H1570 H 0.48328 0.3482 0.08072 0.0
H1571 H 0.52343 0.45096 0.9908 0.0
H1572 H 0.49106 0.42664 0.07047 0.0
H1573 H 0.54537 0.38798 0.02956 0.0
C1574 C 0.53288 0.35514 0.04858 0.0
C1575 C 0.51522 0.34344 0.06282 0.0
C1576 C 0.49825 0.43202 0.05305 0.0
C1577 C 0.51333 0.39152 0.04788 0.0
C1578 C 0.49454 0.45468 0.04381 0.0
C1579 C 0.50332 0.4617 0.02111 0.0
C1580 C 0.51094 0.41645 0.03953 0.0
C1581 C 0.51626 0.44592 0.0083 0.0
C1582 C 0.53185 0.37917 0.04083 0.0
C1583 C 0.49708 0.35649 0.0695 0.0
N1584 N 0.51972 0.42387 0.01772 0.0
N1585 N 0.49665 0.3799 0.06203 0.0
H1586 H 0.94236 0.21761 0.37756 0.0
H1587 H 0.87148 0.30101 0.28819 0.0
H1588 H 0.97015 0.29495 0.365 0.0
H1589 H 0.83764 0.2311 0.31456 0.0
H1590 H 0.91017 0.29574 0.31038 0.0
H1591 H 0.90594 0.21923 0.34903 0.0
C1592 C 0.94084 0.23488 0.36874 0.0
C1593 C 0.95919 0.25626 0.37384 0.0
C1594 C 0.89431 0.28146 0.31116 0.0
C1595 C 0.91777 0.25816 0.34114 0.0
C1596 C 0.87231 0.28442 0.29843 0.0
C1597 C 0.85145 0.26659 0.29987 0.0
C1598 C 0.89536 0.26048 0.32528 0.0
C1599 C 0.85337 0.24538 0.31326 0.0
C1600 C 0.92008 0.23579 0.35248 0.0
C1601 C 0.95634 0.27811 0.36181 0.0
N1602 N 0.87497 0.24296 0.32562 0.0
N1603 N 0.93599 0.27851 0.34606 0.0
H1604 H 0.9568 0.71544 0.5747 0.0
H1605 H 0.02396 0.62196 0.49878 0.0
H1606 H 0.01815 0.74017 0.53449 0.0
H1607 H 0.95945 0.59739 0.53421 0.0
H1608 H 0.01882 0.6656 0.50673 0.0
H1609 H 0.95416 0.67262 0.5553 0.0
C1610 C 0.96955 0.71193 0.56156 0.0
C1611 C 0.98797 0.73133 0.55651 0.0
C1612 C 0.0056 0.65066 0.51248 0.0
C1613 C 0.98515 0.68231 0.53438 0.0
C1614 C 0.00853 0.62571 0.50796 0.0
C1615 C 0.9923 0.606 0.51618 0.0
C1616 C 0.98644 0.656 0.52556 0.0
C1617 C 0.9725 0.61199 0.52769 0.0
C1618 C 0.96802 0.68746 0.55046 0.0
C1619 C 0.00382 0.72574 0.53913 0.0
N1620 N 0.97032 0.6365 0.53238 0.0
N1621 N 0.00224 0.70167 0.52895 0.0
H1622 H 0.5722 0.82336 0.85386 0.0
H1623 H 0.656 0.73198 0.79982 0.0
H1624 H 0.57817 0.7506 0.88058 0.0
H1625 H 0.6665 0.81159 0.78942 0.0
H1626 H 0.62096 0.73626 0.82207 0.0
H1627 H 0.60132 0.81734 0.82375 0.0
C1628 C 0.5796 0.80614 0.85337 0.0
C1629 C 0.57297 0.78756 0.8699 0.0
C1630 C 0.63075 0.75274 0.81466 0.0
C1631 C 0.6058 0.78043 0.83538 0.0
C1632 C 0.65062 0.75026 0.80182 0.0
C1633 C 0.66417 0.77152 0.79307 0.0
C1634 C 0.62447 0.77663 0.8187 0.0
C1635 C 0.6565 0.79478 0.79607 0.0
C1636 C 0.59614 0.80271 0.83618 0.0
C1637 C 0.58298 0.76554 0.86839 0.0
N1638 N 0.63722 0.7968 0.8089 0.0
N1639 N 0.59888 0.7626 0.85144 0.0
H1640 H 0.40601 0.52681 0.68407 0.0
H1641 H 0.47854 0.59035 0.57724 0.0
H1642 H 0.41141 0.606 0.67285 0.0
H1643 H 0.48779 0.51864 0.60468 0.0
H1644 H 0.45416 0.59706 0.61178 0.0
H1645 H 0.43537 0.52358 0.654 0.0
C1646 C 0.41335 0.54354 0.67524 0.0
C1647 C 0.40615 0.5667 0.6809 0.0
C1648 C 0.46185 0.58005 0.61041 0.0
C1649 C 0.43989 0.56312 0.64638 0.0
C1650 C 0.47586 0.57622 0.59076 0.0
C1651 C 0.48514 0.5538 0.5879 0.0
C1652 C 0.45691 0.56122 0.62715 0.0
C1653 C 0.48093 0.53615 0.60597 0.0
C1654 C 0.43025 0.54172 0.65818 0.0
C1655 C 0.41644 0.58777 0.669 0.0
N1656 N 0.46691 0.54011 0.6246 0.0
N1657 N 0.43268 0.58545 0.65213 0.0
H1658 H 0.75538 0.15859 0.90439 0.0
H1659 H 0.80269 0.28725 0.84333 0.0
H1660 H 0.80733 0.21997 0.9449 0.0
H1661 H 0.74169 0.23197 0.80886 0.0
H1662 H 0.80648 0.2617 0.87946 0.0
H1663 H 0.75209 0.18384 0.86808 0.0
C1664 C 0.76616 0.17737 0.90567 0.0
C1665 C 0.78167 0.18714 0.92783 0.0
C1666 C 0.79229 0.25508 0.86399 0.0
C1667 C 0.77797 0.21624 0.88609 0.0
C1668 C 0.79013 0.26965 0.84334 0.0
C1669 C 0.77197 0.26158 0.82296 0.0
C1670 C 0.77622 0.23217 0.86429 0.0
C1671 C 0.75618 0.23866 0.82398 0.0
C1672 C 0.76421 0.19181 0.8849 0.0
C1673 C 0.79512 0.21165 0.92828 0.0
N1674 N 0.75869 0.22473 0.84426 0.0
N1675 N 0.79299 0.22531 0.90773 0.0
H1676 H 0.0378 0.45162 0.21678 0.0
H1677 H 0.06628 0.51095 0.08687 0.0
H1678 H 0.10459 0.50138 0.20877 0.0
H1679 H 0.99342 0.49064 0.10593 0.0
H1680 H 0.08157 0.50091 0.12912 0.0
H1681 H 0.02202 0.45956 0.17374 0.0
C1682 C 0.04914 0.46415 0.20598 0.0
C1683 C 0.07251 0.47593 0.21641 0.0
C1684 C 0.06223 0.4986 0.12399 0.0
C1685 C 0.05474 0.48475 0.16721 0.0
C1686 C 0.05348 0.50419 0.09984 0.0
C1687 C 0.02853 0.50171 0.09287 0.0
C1688 C 0.04593 0.49008 0.14118 0.0
C1689 C 0.0128 0.49298 0.11056 0.0
C1690 C 0.04011 0.46872 0.18149 0.0
C1691 C 0.08642 0.49202 0.20157 0.0
N1692 N 0.02176 0.48738 0.13387 0.0
N1693 N 0.07739 0.49583 0.17769 0.0
H1694 H 0.75344 0.90211 0.47548 0.0
H1695 H 0.79712 0.80022 0.38439 0.0
H1696 H 0.80266 0.85467 0.50364 0.0
H1697 H 0.73462 0.83401 0.36505 0.0
H1698 H 0.801 0.82057 0.42778 0.0
H1699 H 0.7484 0.87859 0.43409 0.0
C1700 C 0.76329 0.88676 0.47295 0.0
C1701 C 0.77856 0.88036 0.49304 0.0
C1702 C 0.78633 0.82331 0.41407 0.0
C1703 C 0.77274 0.85322 0.44554 0.0
C1704 C 0.78412 0.81173 0.3894 0.0
C1705 C 0.76562 0.81565 0.37126 0.0
C1706 C 0.77005 0.83901 0.42035 0.0
C1707 C 0.7492 0.83064 0.37853 0.0
C1708 C 0.76026 0.87322 0.4493 0.0
C1709 C 0.79072 0.8602 0.48862 0.0
N1710 N 0.75192 0.84196 0.40249 0.0
N1711 N 0.78763 0.84735 0.46523 0.0
H1712 H 0.41475 0.50197 0.79017 0.0
H1713 H 0.4524 0.57348 0.9294 0.0
H1714 H 0.39374 0.5728 0.81224 0.0
H1715 H 0.45762 0.49588 0.90987 0.0
H1716 H 0.43462 0.57596 0.88555 0.0
H1717 H 0.43504 0.50205 0.83299 0.0
C1718 C 0.41451 0.51762 0.80398 0.0
C1719 C 0.40238 0.53731 0.79768 0.0
C1720 C 0.43967 0.55842 0.89094 0.0
C1721 C 0.42551 0.53749 0.84679 0.0
C1722 C 0.44976 0.55702 0.91588 0.0
C1723 C 0.45632 0.53442 0.92314 0.0
C1724 C 0.43642 0.53714 0.87329 0.0
C1725 C 0.45268 0.51362 0.90502 0.0
C1726 C 0.42603 0.51762 0.82847 0.0
C1727 C 0.40275 0.55715 0.81635 0.0
N1728 N 0.44302 0.5155 0.88093 0.0
N1729 N 0.41408 0.55671 0.84013 0.0
H1730 H 0.77209 0.24321 0.05151 0.0
H1731 H 0.80038 0.2378 0.20196 0.0
H1732 H 0.81029 0.1885 0.08476 0.0
H1733 H 0.74666 0.27727 0.16811 0.0
H1734 H 0.80809 0.22334 0.15936 0.0
H1735 H 0.76679 0.25983 0.09421 0.0
C1736 C 0.77957 0.23481 0.06777 0.0
C1737 C 0.79163 0.21435 0.06446 0.0
C1738 C 0.79467 0.23521 0.16125 0.0
C1739 C 0.78555 0.23335 0.11354 0.0
C1740 C 0.79031 0.2436 0.18559 0.0
C1741 C 0.77286 0.25886 0.18868 0.0
C1742 C 0.78169 0.24232 0.13974 0.0
C1743 C 0.76023 0.2655 0.16669 0.0
C1744 C 0.77641 0.24425 0.09217 0.0
C1745 C 0.80083 0.20423 0.08634 0.0
N1746 N 0.76495 0.25727 0.14319 0.0
N1747 N 0.7976 0.21383 0.10991 0.0
H1748 H 0.03226 0.48675 0.32038 0.0
H1749 H 0.04958 0.52442 0.47022 0.0
H1750 H 0.10066 0.49187 0.36639 0.0
H1751 H 0.9802 0.49572 0.42771 0.0
H1752 H 0.06911 0.51665 0.43192 0.0
H1753 H 0.01318 0.4934 0.35901 0.0
C1754 C 0.04326 0.48914 0.33862 0.0
C1755 C 0.06811 0.48871 0.34012 0.0
C1756 C 0.0496 0.5122 0.43093 0.0
C1757 C 0.04638 0.49672 0.3845 0.0
C1758 C 0.03847 0.51708 0.45268 0.0
C1759 C 0.01327 0.51144 0.4519 0.0
C1760 C 0.03534 0.50175 0.40819 0.0
C1761 C 0.9997 0.5006 0.429 0.0
C1762 C 0.03234 0.49292 0.36069 0.0
C1763 C 0.08143 0.49192 0.36434 0.0
N1764 N 0.01087 0.49631 0.40801 0.0
N1765 N 0.07044 0.49601 0.38556 0.0
H1766 H 0.77616 0.86806 0.59653 0.0
H1767 H 0.70908 0.80524 0.70695 0.0
H1768 H 0.70406 0.87731 0.61011 0.0
H1769 H 0.77832 0.7917 0.68734 0.0
H1770 H 0.70419 0.82706 0.66838 0.0
H1771 H 0.77482 0.83597 0.6266 0.0
C1772 C 0.75999 0.86328 0.60585 0.0
C1773 C 0.74034 0.87566 0.6012 0.0
C1774 C 0.72026 0.81896 0.67234 0.0
C1775 C 0.7387 0.8389 0.63578 0.0
C1776 C 0.72305 0.80643 0.69432 0.0
C1777 C 0.74434 0.79702 0.70057 0.0
C1778 C 0.73895 0.82213 0.65667 0.0
C1779 C 0.76179 0.79903 0.68349 0.0
C1780 C 0.75918 0.84483 0.62293 0.0
C1781 C 0.71969 0.86836 0.6134 0.0
N1782 N 0.75883 0.81164 0.66249 0.0
N1783 N 0.71952 0.85064 0.63046 0.0
H1784 H 0.64499 0.43668 0.57592 0.0
H1785 H 0.58214 0.52942 0.48966 0.0
H1786 H 0.66326 0.45264 0.5009 0.0
H1787 H 0.56139 0.51055 0.56295 0.0
H1788 H 0.61224 0.50183 0.49362 0.0
H1789 H 0.61449 0.46365 0.57161 0.0
C1790 C 0.64261 0.44582 0.55851 0.0
C1791 C 0.65683 0.44233 0.53876 0.0
C1792 C 0.6011 0.50364 0.50884 0.0
C1793 C 0.62181 0.47348 0.53373 0.0
C1794 C 0.58398 0.51948 0.50663 0.0
C1795 C 0.5691 0.52207 0.52591 0.0
C1796 C 0.60359 0.49042 0.53065 0.0
C1797 C 0.57219 0.5087 0.54744 0.0
C1798 C 0.62514 0.46125 0.55606 0.0
C1799 C 0.65278 0.45471 0.51664 0.0
N1800 N 0.58907 0.49348 0.54925 0.0
N1801 N 0.63574 0.46973 0.51477 0.0
H1802 H 0.17901 0.15266 0.44209 0.0
H1803 H 0.10917 0.03815 0.50714 0.0
H1804 H 0.21194 0.09035 0.46615 0.0
H1805 H 0.07254 0.08776 0.4632 0.0
H1806 H 0.14718 0.05713 0.49229 0.0
H1807 H 0.13957 0.1289 0.44877 0.0
C1808 C 0.17791 0.13386 0.4484 0.0
C1809 C 0.19882 0.12362 0.45389 0.0
C1810 C 0.13076 0.06367 0.48572 0.0
C1811 C 0.15393 0.09656 0.46193 0.0
C1812 C 0.10911 0.05295 0.49432 0.0
C1813 C 0.08771 0.06145 0.48648 0.0
C1814 C 0.13101 0.08324 0.4695 0.0
C1815 C 0.08862 0.08058 0.46971 0.0
C1816 C 0.15541 0.12032 0.45225 0.0
C1817 C 0.19633 0.09911 0.4619 0.0
N1818 N 0.10996 0.091 0.46196 0.0
N1819 N 0.17433 0.08656 0.46605 0.0
H1820 H 0.17897 0.93091 0.77124 0.0
H1821 H 0.28832 0.86029 0.80944 0.0
H1822 H 0.23591 0.9594 0.83205 0.0
H1823 H 0.24158 0.84125 0.73888 0.0
H1824 H 0.26804 0.89547 0.819 0.0
H1825 H 0.19994 0.89643 0.76046 0.0
C1826 C 0.19586 0.92989 0.78241 0.0
C1827 C 0.2057 0.94808 0.80265 0.0
C1828 C 0.26218 0.88367 0.80138 0.0
C1829 C 0.22978 0.90864 0.79028 0.0
C1830 C 0.27378 0.86358 0.79586 0.0
C1831 C 0.26632 0.84763 0.77346 0.0
C1832 C 0.24289 0.88785 0.78441 0.0
C1833 C 0.24742 0.85275 0.75661 0.0
C1834 C 0.20786 0.91025 0.77612 0.0
C1835 C 0.22766 0.94582 0.81632 0.0
N1836 N 0.2362 0.8724 0.76249 0.0
N1837 N 0.23893 0.92641 0.80993 0.0
H1838 H 0.27753 0.94671 0.99898 0.0
H1839 H 0.41314 0.99008 0.06668 0.0
H1840 H 0.29831 0.94033 0.07857 0.0
H1841 H 0.39315 0.98819 0.98581 0.0
H1842 H 0.37067 0.97504 0.07218 0.0
H1843 H 0.31921 0.96558 0.99464 0.0
C1844 C 0.2908 0.94947 0.01562 0.0
C1845 C 0.28439 0.9418 0.03917 0.0
C1846 C 0.37556 0.97795 0.05323 0.0
C1847 C 0.33229 0.96329 0.03426 0.0
C1848 C 0.39977 0.9865 0.0501 0.0
C1849 C 0.40658 0.99023 0.02575 0.0
C1850 C 0.35807 0.97319 0.03184 0.0
C1851 C 0.38862 0.98545 0.00491 0.0
C1852 C 0.31465 0.96017 0.01309 0.0
C1853 C 0.30242 0.94587 0.06003 0.0
N1854 N 0.36519 0.97715 0.00842 0.0
N1855 N 0.32555 0.95623 0.05707 0.0
H1856 H 0.84617 0.61984 0.77963 0.0
H1857 H 0.78221 0.72912 0.725 0.0
H1858 H 0.85135 0.64254 0.70356 0.0
H1859 H 0.76223 0.69224 0.79134 0.0
H1860 H 0.80974 0.69957 0.7181 0.0
H1861 H 0.81782 0.64852 0.78576 0.0
C1862 C 0.84143 0.63092 0.76422 0.0
C1863 C 0.85118 0.62875 0.74101 0.0
C1864 C 0.79922 0.69779 0.73406 0.0
C1865 C 0.81867 0.66167 0.74797 0.0
C1866 C 0.78355 0.71464 0.73801 0.0
C1867 C 0.77005 0.71307 0.7588 0.0
C1868 C 0.80153 0.67932 0.75114 0.0
C1869 C 0.77231 0.69398 0.77505 0.0
C1870 C 0.82513 0.6472 0.76771 0.0
C1871 C 0.84426 0.64354 0.72173 0.0
N1872 N 0.78792 0.67794 0.771 0.0
N1873 N 0.8285 0.65943 0.72567 0.0
H1874 H 0.80159 0.55454 0.00457 0.0
H1875 H 0.92724 0.56524 0.08059 0.0
H1876 H 0.81904 0.6008 0.07583 0.0
H1877 H 0.89228 0.49635 0.03626 0.0
H1878 H 0.88786 0.57816 0.08141 0.0
H1879 H 0.83476 0.53255 0.01659 0.0
C1880 C 0.81235 0.55991 0.02284 0.0
C1881 C 0.80786 0.57963 0.03914 0.0
C1882 C 0.88875 0.55992 0.07211 0.0
C1883 C 0.84582 0.55481 0.0529 0.0
C1884 C 0.91117 0.55255 0.07166 0.0
C1885 C 0.9129 0.52994 0.05798 0.0
C1886 C 0.86824 0.54475 0.05832 0.0
C1887 C 0.89165 0.51409 0.04675 0.0
C1888 C 0.8311 0.54723 0.02979 0.0
C1889 C 0.82207 0.58572 0.06272 0.0
N1890 N 0.87019 0.52208 0.04663 0.0
N1891 N 0.84082 0.57367 0.06873 0.0
H1892 H 0.22821 0.05961 0.7658 0.0
H1893 H 0.23305 0.2019 0.82278 0.0
H1894 H 0.18784 0.07879 0.82687 0.0
H1895 H 0.26208 0.18091 0.75387 0.0
H1896 H 0.22179 0.15693 0.82928 0.0
H1897 H 0.24645 0.10399 0.76621 0.0
C1898 C 0.22334 0.07311 0.77949 0.0
C1899 C 0.20623 0.06547 0.79611 0.0
C1900 C 0.23081 0.16226 0.81288 0.0
C1901 C 0.22699 0.11651 0.79657 0.0
C1902 C 0.23731 0.18789 0.80921 0.0
C1903 C 0.24827 0.19516 0.7876 0.0
C1904 C 0.23553 0.14389 0.79493 0.0
C1905 C 0.25335 0.17621 0.77062 0.0
C1906 C 0.23374 0.09851 0.77967 0.0
C1907 C 0.20081 0.08386 0.81357 0.0
N1908 N 0.24686 0.15152 0.77459 0.0
N1909 N 0.21099 0.10858 0.81319 0.0
H1910 H 0.34444 0.01668 0.27905 0.0
H1911 H 0.29364 0.87829 0.21284 0.0
H1912 H 0.3463 0.99599 0.1993 0.0
H1913 H 0.2782 0.90276 0.28753 0.0
H1914 H 0.31224 0.92162 0.2073 0.0
H1915 H 0.31962 0.9755 0.28252 0.0
C1916 C 0.33952 0.00354 0.26222 0.0
C1917 C 0.34762 0.00974 0.23887 0.0
C1918 C 0.3046 0.91763 0.22482 0.0
C1919 C 0.31929 0.96251 0.24278 0.0
C1920 C 0.294 0.8929 0.22799 0.0
C1921 C 0.28454 0.88702 0.25073 0.0
C1922 C 0.30603 0.93658 0.24468 0.0
C1923 C 0.28535 0.90659 0.26972 0.0
C1924 C 0.32528 0.98005 0.26422 0.0
C1925 C 0.34055 0.99201 0.2177 0.0
N1926 N 0.29618 0.93051 0.26639 0.0
N1927 N 0.32698 0.96913 0.22022 0.0
H1928 H 0.55062 0.34201 0.62609 0.0
H1929 H 0.46988 0.41616 0.53586 0.0
H1930 H 0.47332 0.31925 0.6088 0.0
H1931 H 0.54379 0.44515 0.56667 0.0
H1932 H 0.47168 0.37754 0.55751 0.0
H1933 H 0.54923 0.37699 0.59957 0.0
C1934 C 0.53333 0.3443 0.61665 0.0
C1935 C 0.51202 0.32774 0.61985 0.0
C1936 C 0.48753 0.39229 0.55936 0.0
C1937 C 0.51032 0.36789 0.58931 0.0
C1938 C 0.48655 0.41422 0.54693 0.0
C1939 C 0.50668 0.43381 0.54964 0.0
C1940 C 0.50888 0.38999 0.57439 0.0
C1941 C 0.52782 0.4305 0.56423 0.0
C1942 C 0.53255 0.36433 0.6015 0.0
C1943 C 0.49017 0.33165 0.60701 0.0
N1944 N 0.52834 0.40906 0.5761 0.0
N1945 N 0.48986 0.35137 0.59234 0.0
H1946 H 0.43629 0.72968 0.31854 0.0
H1947 H 0.34261 0.81475 0.26555 0.0
H1948 H 0.45516 0.81008 0.31374 0.0
H1949 H 0.32258 0.73545 0.27581 0.0
H1950 H 0.38471 0.81244 0.27882 0.0
H1951 H 0.39557 0.73061 0.29872 0.0
C1952 C 0.43196 0.74752 0.31314 0.0
C1953 C 0.44921 0.76987 0.31799 0.0
C1954 C 0.37113 0.7955 0.27799 0.0
C1955 C 0.40242 0.77106 0.29531 0.0
C1956 C 0.34702 0.79676 0.27033 0.0
C1957 C 0.32885 0.77528 0.26965 0.0
C1958 C 0.37726 0.7726 0.28508 0.0
C1959 C 0.33586 0.75255 0.27608 0.0
C1960 C 0.40865 0.74803 0.30185 0.0
C1961 C 0.44248 0.79239 0.31049 0.0
N1962 N 0.35944 0.75185 0.28365 0.0
N1963 N 0.41961 0.79242 0.29966 0.0
H1964 H 0.95628 0.69874 0.08262 0.0
H1965 H 0.04337 0.59697 0.08142 0.0
H1966 H 0.01308 0.69714 0.14303 0.0
H1967 H 0.9758 0.58751 0.03309 0.0
H1968 H 0.0336 0.63479 0.10316 0.0
H1969 H 0.964 0.65898 0.06309 0.0
C1970 C 0.97031 0.69 0.09184 0.0
C1971 C 0.98408 0.70136 0.11448 0.0
C1972 C 0.02084 0.62437 0.0879 0.0
C1973 C 0.99315 0.65592 0.09208 0.0
C1974 C 0.02644 0.60285 0.07546 0.0
C1975 C 0.01037 0.58917 0.05546 0.0
C1976 C 0.99913 0.63244 0.08005 0.0
C1977 C 0.98866 0.59751 0.04849 0.0
C1978 C 0.97468 0.66726 0.0807 0.0
C1979 C 0.00199 0.68908 0.12559 0.0
N1980 N 0.98373 0.61871 0.06066 0.0
N1981 N 0.00612 0.66715 0.11418 0.0
H1982 H 0.07542 0.27506 0.80733 0.0
H1983 H 0.2192 0.30039 0.80717 0.0
H1984 H 0.12444 0.31679 0.86951 0.0
H1985 H 0.17086 0.24327 0.75691 0.0
H1986 H 0.18474 0.30938 0.82854 0.0
H1987 H 0.11011 0.26647 0.78638 0.0
C1988 C 0.09346 0.28257 0.81652 0.0
C1989 C 0.09697 0.29665 0.84027 0.0
C1990 C 0.18169 0.29481 0.81291 0.0
C1991 C 0.13685 0.28683 0.81634 0.0
C1992 C 0.20136 0.2896 0.80079 0.0
C1993 C 0.19788 0.27094 0.78037 0.0
C1994 C 0.15832 0.28148 0.80431 0.0
C1995 C 0.17435 0.25777 0.77263 0.0
C1996 C 0.11328 0.27753 0.8046 0.0
C1997 C 0.12083 0.30579 0.85127 0.0
N1998 N 0.15546 0.26337 0.78451 0.0
N1999 N 0.13984 0.30077 0.83921 0.0
H2000 H 0.50938 0.69653 0.9397 0.0
H2001 H 0.49942 0.61594 0.06014 0.0
H2002 H 0.5266 0.73098 0.01679 0.0
H2003 H 0.51041 0.58592 0.98562 0.0
H2004 H 0.50156 0.65792 0.04421 0.0
H2005 H 0.5015 0.65522 0.9561 0.0
C2006 C 0.51144 0.69542 0.96011 0.0
C2007 C 0.51891 0.7172 0.97693 0.0
C2008 C 0.50325 0.64202 0.03137 0.0
C2009 C 0.50979 0.66995 0.99576 0.0
C2010 C 0.50196 0.61815 0.04038 0.0
C2011 C 0.50458 0.59753 0.02406 0.0
C2012 C 0.50692 0.64499 0.00588 0.0
C2013 C 0.50795 0.60126 0.9987 0.0
C2014 C 0.50696 0.67183 0.96943 0.0
C2015 C 0.52112 0.71461 0.00318 0.0
N2016 N 0.50902 0.62456 0.99038 0.0
N2017 N 0.51661 0.69132 0.01185 0.0
H2018 H 0.06672 0.81355 0.64153 0.0
H2019 H 0.1494 0.76002 0.74874 0.0
H2020 H 0.0417 0.74897 0.68195 0.0
H2021 H 0.17693 0.81883 0.70255 0.0
H2022 H 0.10877 0.75881 0.72749 0.0
H2023 H 0.10638 0.81834 0.66618 0.0
C2024 C 0.06956 0.80036 0.65557 0.0
C2025 C 0.0509 0.78075 0.65962 0.0
C2026 C 0.12364 0.77211 0.7221 0.0
C2027 C 0.09617 0.78624 0.68798 0.0
C2028 C 0.1468 0.77288 0.7343 0.0
C2029 C 0.16644 0.78945 0.72722 0.0
C2030 C 0.12018 0.78803 0.70268 0.0
C2031 C 0.16219 0.80573 0.70845 0.0
C2032 C 0.0922 0.80314 0.66966 0.0
C2033 C 0.05559 0.76429 0.67812 0.0
N2034 N 0.13948 0.80451 0.69668 0.0
N2035 N 0.07777 0.7674 0.6916 0.0
H2036 H 0.99653 0.32393 0.50184 0.0
H2037 H 0.05842 0.4688 0.50562 0.0
H2038 H 0.05733 0.35144 0.4619 0.0
H2039 H 0.99121 0.44273 0.53576 0.0
H2040 H 0.06346 0.42504 0.49798 0.0
H2041 H 0.99962 0.36637 0.52265 0.0
C2042 C 0.01073 0.3388 0.49771 0.0
C2043 C 0.0264 0.33429 0.47975 0.0
C2044 C 0.04777 0.42893 0.50657 0.0
C2045 C 0.02999 0.38277 0.50339 0.0
C2046 C 0.0449 0.45393 0.511 0.0
C2047 C 0.02413 0.45943 0.52091 0.0
C2048 C 0.02973 0.40932 0.51205 0.0
C2049 C 0.00731 0.43936 0.52767 0.0
C2050 C 0.01246 0.36302 0.50956 0.0
C2051 C 0.0446 0.35419 0.4753 0.0
N2052 N 0.01033 0.41517 0.52283 0.0
N2053 N 0.04572 0.37763 0.48682 0.0
H2054 H 0.43063 0.24611 0.13016 0.0
H2055 H 0.36136 0.32254 0.22402 0.0
H2056 H 0.46015 0.32116 0.16507 0.0
H2057 H 0.33232 0.24819 0.18736 0.0
H2058 H 0.39916 0.32133 0.20544 0.0
H2059 H 0.39594 0.24534 0.15397 0.0
C2060 C 0.42987 0.2624 0.14294 0.0
C2061 C 0.44818 0.28383 0.14546 0.0
C2062 C 0.38455 0.30524 0.20157 0.0
C2063 C 0.40844 0.28312 0.17273 0.0
C2064 C 0.36304 0.30595 0.21215 0.0
C2065 C 0.34378 0.28553 0.20695 0.0
C2066 C 0.38666 0.28396 0.18576 0.0
C2067 C 0.34675 0.26441 0.19161 0.0
C2068 C 0.41004 0.26195 0.15655 0.0
C2069 C 0.44635 0.3043 0.16246 0.0
N2070 N 0.36777 0.26421 0.18145 0.0
N2071 N 0.4267 0.30352 0.17533 0.0
H2072 H 0.57794 0.53387 0.32927 0.0
H2073 H 0.54523 0.48066 0.4611 0.0
H2074 H 0.61888 0.48561 0.37006 0.0
H2075 H 0.51197 0.53751 0.42517 0.0
H2076 H 0.56786 0.47662 0.42451 0.0
H2077 H 0.5497 0.53029 0.36119 0.0
C2078 C 0.58098 0.52244 0.34491 0.0
C2079 C 0.60096 0.51021 0.34711 0.0
C2080 C 0.55534 0.48971 0.42449 0.0
C2081 C 0.56855 0.50597 0.38376 0.0
C2082 C 0.54223 0.49184 0.44525 0.0
C2083 C 0.52679 0.50955 0.44622 0.0
C2084 C 0.55285 0.5053 0.40456 0.0
C2085 C 0.52384 0.52377 0.4253 0.0
C2086 C 0.56479 0.52038 0.36313 0.0
C2087 C 0.60383 0.49552 0.36772 0.0
N2088 N 0.53689 0.52147 0.40544 0.0
N2089 N 0.58786 0.49391 0.38533 0.0
H2090 H 0.21832 0.80745 0.05682 0.0
H2091 H 0.24391 0.82291 0.20903 0.0
H2092 H 0.22049 0.8779 0.10136 0.0
H2093 H 0.24868 0.75552 0.16299 0.0
H2094 H 0.23533 0.84363 0.17027 0.0
H2095 H 0.22852 0.78809 0.09577 0.0
C2096 C 0.22082 0.81887 0.07481 0.0
C2097 C 0.21849 0.84439 0.07573 0.0
C2098 C 0.23854 0.82441 0.16861 0.0
C2099 C 0.23037 0.82223 0.12066 0.0
C2100 C 0.24382 0.81272 0.19077 0.0
C2101 C 0.24769 0.78771 0.18921 0.0
C2102 C 0.23682 0.81086 0.14471 0.0
C2103 C 0.24607 0.77493 0.16502 0.0
C2104 C 0.22675 0.80778 0.09709 0.0
C2105 C 0.22205 0.85817 0.09969 0.0
N2106 N 0.24074 0.78661 0.14376 0.0
N2107 N 0.2278 0.84692 0.12117 0.0
H2108 H 0.8895 0.57948 0.8523 0.0
H2109 H 0.00516 0.54443 0.93233 0.0
H2110 H 0.9535 0.5675 0.8188 0.0
H2111 H 0.94003 0.55557 0.96409 0.0
H2112 H 0.98791 0.5553 0.89121 0.0
H2113 H 0.90914 0.57348 0.8939 0.0
C2114 C 0.90777 0.57572 0.85369 0.0
C2115 C 0.91981 0.57385 0.83195 0.0
C2116 C 0.97747 0.55548 0.90723 0.0
C2117 C 0.94246 0.56679 0.87974 0.0
C2118 C 0.98731 0.54929 0.93075 0.0
C2119 C 0.97401 0.54898 0.95175 0.0
C2120 C 0.95416 0.5614 0.90467 0.0
C2121 C 0.95096 0.55545 0.94847 0.0
C2122 C 0.91899 0.57227 0.87751 0.0
C2123 C 0.94352 0.56906 0.83503 0.0
N2124 N 0.94177 0.56129 0.92541 0.0
N2125 N 0.95403 0.56554 0.85847 0.0
H2126 H 0.32065 0.19466 0.5623 0.0
H2127 H 0.2308 0.25156 0.64756 0.0
H2128 H 0.24666 0.19631 0.53383 0.0
H2129 H 0.29486 0.22507 0.67753 0.0
H2130 H 0.23855 0.23831 0.60426 0.0
H2131 H 0.31388 0.21358 0.60333 0.0
C2132 C 0.30301 0.19917 0.56461 0.0
C2133 C 0.28411 0.19365 0.54472 0.0
C2134 C 0.25087 0.2355 0.62038 0.0
C2135 C 0.27625 0.21527 0.59166 0.0
C2136 C 0.24648 0.24304 0.64496 0.0
C2137 C 0.26212 0.23914 0.66595 0.0
C2138 C 0.27121 0.22445 0.61704 0.0
C2139 C 0.28223 0.22815 0.66179 0.0
C2140 C 0.29915 0.2099 0.58807 0.0
C2141 C 0.26166 0.20005 0.54878 0.0
N2142 N 0.28622 0.22123 0.6378 0.0
N2143 N 0.2583 0.21045 0.5719 0.0
H2144 H 0.63095 0.53182 0.23256 0.0
H2145 H 0.53023 0.47635 0.11631 0.0
H2146 H 0.58534 0.45854 0.23023 0.0
H2147 H 0.57038 0.5526 0.12497 0.0
H2148 H 0.55115 0.46839 0.15696 0.0
H2149 H 0.60995 0.53867 0.19206 0.0
C2150 C 0.6165 0.51712 0.22352 0.0
C2151 C 0.60989 0.49454 0.23484 0.0
C2152 C 0.55536 0.48685 0.14997 0.0
C2153 C 0.58568 0.50233 0.18826 0.0
C2154 C 0.54347 0.49138 0.12681 0.0
C2155 C 0.54865 0.51516 0.11743 0.0
C2156 C 0.57258 0.50624 0.16365 0.0
C2157 C 0.56589 0.53401 0.13162 0.0
C2158 C 0.60447 0.52108 0.20036 0.0
C2159 C 0.59101 0.47622 0.22219 0.0
N2160 N 0.57727 0.52913 0.15402 0.0
N2161 N 0.57954 0.48051 0.19951 0.0
H2162 H 0.19589 0.86017 0.94044 0.0
H2163 H 0.28096 0.79279 0.85638 0.0
H2164 H 0.26625 0.84641 0.96901 0.0
H2165 H 0.21426 0.81339 0.82507 0.0
H2166 H 0.27403 0.80914 0.89853 0.0
H2167 H 0.20042 0.83982 0.89888 0.0
C2168 C 0.21219 0.85271 0.93806 0.0
C2169 C 0.23075 0.85513 0.95827 0.0
C2170 C 0.26084 0.81 0.88246 0.0
C2171 C 0.23609 0.83187 0.91072 0.0
C2172 C 0.26477 0.8006 0.85833 0.0
C2173 C 0.24821 0.80169 0.83702 0.0
C2174 C 0.24017 0.8206 0.88545 0.0
C2175 C 0.22757 0.81211 0.84088 0.0
C2176 C 0.21481 0.84117 0.9143 0.0
C2177 C 0.2515 0.84512 0.95401 0.0
N2178 N 0.22418 0.8212 0.86456 0.0
N2179 N 0.25361 0.83403 0.93076 0.0
H2180 H 0.9335 0.51249 0.68903 0.0
H2181 H 0.01274 0.59015 0.59385 0.0
H2182 H 0.94274 0.5936 0.68961 0.0
H2183 H 0.98637 0.50992 0.5825 0.0
H2184 H 0.9901 0.59217 0.63094 0.0
H2185 H 0.95567 0.5115 0.65196 0.0
C2186 C 0.94023 0.53014 0.6814 0.0
C2187 C 0.93623 0.55318 0.69251 0.0
C2188 C 0.9892 0.57416 0.62026 0.0
C2189 C 0.96185 0.55216 0.64994 0.0
C2190 C 0.00218 0.57299 0.5992 0.0
C2191 C 0.00124 0.54986 0.58507 0.0
C2192 C 0.97553 0.55195 0.6274 0.0
C2193 C 0.98729 0.52818 0.5927 0.0
C2194 C 0.95284 0.52954 0.66014 0.0
C2195 C 0.94534 0.57541 0.68165 0.0
N2196 N 0.97508 0.52973 0.61339 0.0
N2197 N 0.95783 0.57437 0.66103 0.0
H2198 H 0.29685 0.24767 0.4484 0.0
H2199 H 0.31061 0.24358 0.30007 0.0
H2200 H 0.3039 0.18055 0.40284 0.0
H2201 H 0.27128 0.2933 0.33875 0.0
H2202 H 0.32283 0.22819 0.34107 0.0
H2203 H 0.30214 0.27188 0.41133 0.0
C2204 C 0.29995 0.23813 0.43074 0.0
C2205 C 0.2994 0.212 0.42844 0.0
C2206 C 0.31202 0.24291 0.34056 0.0
C2207 C 0.30571 0.23954 0.38633 0.0
C2208 C 0.30515 0.25175 0.31729 0.0
C2209 C 0.28962 0.26935 0.31619 0.0
C2210 C 0.30357 0.25216 0.36268 0.0
C2211 C 0.28296 0.27938 0.3389 0.0
C2212 C 0.30296 0.25194 0.40966 0.0
C2213 C 0.3037 0.20059 0.40521 0.0
N2214 N 0.2898 0.27046 0.36127 0.0
N2215 N 0.30644 0.21442 0.3849 0.0
H2216 H 0.36366 0.62735 0.47745 0.0
H2217 H 0.43247 0.52838 0.54772 0.0
H2218 H 0.34816 0.59921 0.54939 0.0
H2219 H 0.45248 0.55732 0.47757 0.0
H2220 H 0.40161 0.5547 0.54807 0.0
H2221 H 0.3962 0.60253 0.47654 0.0
C2222 C 0.36706 0.616 0.49305 0.0
C2223 C 0.35303 0.61539 0.51352 0.0
C2224 C 0.41271 0.55545 0.53256 0.0
C2225 C 0.39027 0.58692 0.51256 0.0
C2226 C 0.43034 0.54032 0.53231 0.0
C2227 C 0.44515 0.54072 0.51262 0.0
C2228 C 0.40952 0.57109 0.51281 0.0
C2229 C 0.44167 0.55673 0.49329 0.0
C2230 C 0.38567 0.60185 0.49251 0.0
C2231 C 0.35837 0.60034 0.53319 0.0
N2232 N 0.42413 0.57123 0.4938 0.0
N2233 N 0.37643 0.58676 0.53217 0.0
H2234 H 0.8599 0.93677 0.59633 0.0
H2235 H 0.93513 0.03764 0.51908 0.0
H2236 H 0.82993 0.99465 0.55838 0.0
H2237 H 0.96784 0.98755 0.56618 0.0
H2238 H 0.89693 0.02403 0.53596 0.0
H2239 H 0.90029 0.9576 0.58923 0.0
C2240 C 0.86184 0.95409 0.58692 0.0
C2241 C 0.8415 0.96372 0.57748 0.0
C2242 C 0.9125 0.01616 0.54277 0.0
C2243 C 0.88751 0.98739 0.56901 0.0
C2244 C 0.93428 0.0238 0.533 0.0
C2245 C 0.95461 0.01353 0.54105 0.0
C2246 C 0.91098 0.99791 0.5605 0.0
C2247 C 0.95257 0.99589 0.55936 0.0
C2248 C 0.88489 0.96594 0.5828 0.0
C2249 C 0.84508 0.98633 0.56561 0.0
N2250 N 0.93104 0.98845 0.5683 0.0
N2251 N 0.86762 0.99718 0.56137 0.0
H2252 H 0.85403 0.14501 0.28366 0.0
H2253 H 0.74483 0.20232 0.21867 0.0
H2254 H 0.80911 0.10874 0.216 0.0
H2255 H 0.77326 0.22025 0.29757 0.0
H2256 H 0.77019 0.17003 0.21556 0.0
H2257 H 0.82728 0.17578 0.28692 0.0
C2258 C 0.8386 0.14357 0.26941 0.0
C2259 C 0.83376 0.12425 0.24953 0.0
C2260 C 0.77081 0.18096 0.23358 0.0
C2261 C 0.80308 0.15936 0.25324 0.0
C2262 C 0.75631 0.19928 0.23539 0.0
C2263 C 0.75742 0.21417 0.25831 0.0
C2264 C 0.78654 0.17767 0.25483 0.0
C2265 C 0.77251 0.20958 0.27939 0.0
C2266 C 0.82326 0.16104 0.27141 0.0
C2267 C 0.81346 0.12329 0.23167 0.0
N2268 N 0.78671 0.19185 0.27711 0.0
N2269 N 0.79888 0.14067 0.2339 0.0
H2270 H 0.72867 0.09623 0.99285 0.0
H2271 H 0.60033 0.10281 0.04063 0.0
H2272 H 0.70472 0.16582 0.01334 0.0
H2273 H 0.61246 0.03788 0.99517 0.0
H2274 H 0.64089 0.12456 0.03538 0.0
H2275 H 0.6882 0.07289 0.99758 0.0
C2276 C 0.71493 0.10658 0.99829 0.0
C2277 C 0.72008 0.13302 0.00269 0.0
C2278 C 0.63473 0.10556 0.02653 0.0
C2279 C 0.67406 0.1065 0.00841 0.0
C2280 C 0.61162 0.0931 0.02961 0.0
C2281 C 0.60309 0.06857 0.01827 0.0
C2282 C 0.64957 0.09331 0.01221 0.0
C2283 C 0.61842 0.05685 0.00416 0.0
C2284 C 0.69188 0.09327 0.00092 0.0
C2285 C 0.7016 0.14548 0.00966 0.0
N2286 N 0.64103 0.06931 0.00158 0.0
N2287 N 0.67952 0.13212 0.01245 0.0
H2288 H 0.16101 0.43196 0.2505 0.0
H2289 H 0.24181 0.33178 0.29542 0.0
H2290 H 0.17758 0.41926 0.32934 0.0
H2291 H 0.24111 0.35953 0.22104 0.0
H2292 H 0.21556 0.36114 0.30744 0.0
H2293 H 0.1873 0.40272 0.23856 0.0
C2294 C 0.17007 0.42294 0.26532 0.0
C2295 C 0.16707 0.42812 0.29101 0.0
C2296 C 0.22121 0.36093 0.28852 0.0
C2297 C 0.19724 0.39458 0.27737 0.0
C2298 C 0.2361 0.34413 0.28163 0.0
C2299 C 0.24347 0.34323 0.25719 0.0
C2300 C 0.2135 0.37685 0.27076 0.0
C2301 C 0.23585 0.35976 0.24012 0.0
C2302 C 0.18519 0.40634 0.25847 0.0
C2303 C 0.17938 0.4159 0.30933 0.0
N2304 N 0.22111 0.37581 0.24716 0.0
N2305 N 0.19386 0.39965 0.30215 0.0
H2306 H 0.20576 0.49628 0.01708 0.0
H2307 H 0.06997 0.48303 0.95955 0.0
H2308 H 0.16787 0.4325 0.96672 0.0
H2309 H 0.11084 0.54991 0.00301 0.0
H2310 H 0.10762 0.46794 0.95424 0.0
H2311 H 0.17372 0.51957 0.00512 0.0
C2312 C 0.19076 0.48726 0.00331 0.0
C2313 C 0.18912 0.46223 0.99332 0.0
C2314 C 0.10844 0.48618 0.96445 0.0
C2315 C 0.15228 0.4887 0.97967 0.0
C2316 C 0.08697 0.49482 0.96741 0.0
C2317 C 0.08743 0.51745 0.98219 0.0
C2318 C 0.13035 0.50018 0.97666 0.0
C2319 C 0.10979 0.53214 0.99182 0.0
C2320 C 0.17252 0.50062 0.99637 0.0
C2321 C 0.16961 0.45165 0.97515 0.0
N2322 N 0.13039 0.523 0.98932 0.0
N2323 N 0.15167 0.46479 0.96926 0.0
H2324 H 0.81243 0.99191 0.25797 0.0
H2325 H 0.7794 0.84547 0.20801 0.0
H2326 H 0.82922 0.9624 0.18551 0.0
H2327 H 0.77095 0.87505 0.28364 0.0
H2328 H 0.7931 0.88859 0.19724 0.0
H2329 H 0.79245 0.94969 0.26532 0.0
C2330 C 0.81177 0.97658 0.24349 0.0
C2331 C 0.82273 0.98069 0.22118 0.0
C2332 C 0.78809 0.88562 0.21613 0.0
C2333 C 0.79992 0.93215 0.22956 0.0
C2334 C 0.78021 0.86101 0.22229 0.0
C2335 C 0.77418 0.85658 0.24684 0.0
C2336 C 0.78987 0.90594 0.23462 0.0
C2337 C 0.7756 0.87748 0.26454 0.0
C2338 C 0.80038 0.95244 0.24773 0.0
C2339 C 0.82115 0.96009 0.20305 0.0
N2340 N 0.78338 0.9012 0.25811 0.0
N2341 N 0.8101 0.93667 0.20772 0.0
H2342 H 0.67943 0.0466 0.80248 0.0
H2343 H 0.70456 0.16471 0.71917 0.0
H2344 H 0.63218 0.0606 0.73787 0.0
H2345 H 0.74451 0.16351 0.79269 0.0
H2346 H 0.68161 0.12317 0.72372 0.0
H2347 H 0.70657 0.0865 0.79774 0.0
C2348 C 0.67478 0.05801 0.78733 0.0
C2349 C 0.65345 0.05028 0.77059 0.0
C2350 C 0.69543 0.13183 0.73889 0.0
C2351 C 0.6844 0.09555 0.76495 0.0
C2352 C 0.70863 0.15555 0.73625 0.0
C2353 C 0.72634 0.16757 0.75565 0.0
C2354 C 0.69983 0.11991 0.76118 0.0
C2355 C 0.73095 0.15478 0.77731 0.0
C2356 C 0.69024 0.08073 0.78466 0.0
C2357 C 0.64831 0.06577 0.75131 0.0
N2358 N 0.71763 0.1316 0.7796 0.0
N2359 N 0.66366 0.08753 0.74902 0.0
loop_
_geom_bond_atom_site_label_1
_geom_bond_atom_site_label_2
_geom_bond_distance
_geom_bond_site_symmetry_2
_ccdc_geom_bond_type
C0 O1 1.160 . S
C0 O7 1.185 . S
O1 C0 1.160 . S
O2 Zn3 1.899 . S
O2 C10 1.284 . S
Zn3 O2 1.899 . S
Zn3 O4 2.032 . S
Zn3 O7 2.086 . S
Zn3 O12 1.977 1_455 S
O4 Zn3 2.032 . S
O4 C8 1.278 . S
C5 O6 1.203 . S
C5 O12 1.267 . S
O6 C5 1.203 . S
O7 C0 1.185 . S
O7 Zn3 2.086 . S
C8 O4 1.278 . S
C8 O9 1.211 1_455 S
O9 C8 1.211 1_655 S
C10 O2 1.284 . S
C10 O11 1.273 . S
O11 C10 1.273 . S
O12 Zn3 1.977 1_655 S
O12 C5 1.267 . S
C13 O14 1.160 . S
C13 O20 1.185 . S
O14 C13 1.160 . S
O15 Zn16 1.899 . S
O15 C23 1.284 . S
Zn16 O15 1.899 . S
Zn16 O17 2.032 . S
Zn16 O20 2.086 . S
Zn16 O25 1.977 1_655 S
O17 Zn16 2.032 . S
O17 C21 1.278 1_655 S
C18 O19 1.203 . S
C18 O25 1.267 . S
O19 C18 1.203 . S
O20 C13 1.185 . S
O20 Zn16 2.086 . S
C21 O17 1.278 1_455 S
C21 O22 1.211 . S
O22 C21 1.211 . S
C23 O15 1.284 . S
C23 O24 1.273 1_655 S
O24 C23 1.273 1_455 S
O25 Zn16 1.977 1_455 S
O25 C18 1.267 . S
C26 O27 1.160 . S
C26 O33 1.185 . S
O27 C26 1.160 . S
O28 Zn29 1.899 . S
O28 C36 1.284 . S
Zn29 O28 1.899 . S
Zn29 O30 2.032 . S
Zn29 O33 2.086 . S
Zn29 O38 1.977 . S
O30 Zn29 2.032 . S
O30 C34 1.278 . S
C31 O32 1.203 . S
C31 O38 1.267 . S
O32 C31 1.203 . S
O33 C26 1.185 . S
O33 Zn29 2.086 . S
C34 O30 1.278 . S
C34 O35 1.211 . S
O35 C34 1.211 . S
C36 O28 1.284 . S
C36 O37 1.273 . S
O37 C36 1.273 . S
O38 Zn29 1.977 . S
O38 C31 1.267 . S
C39 O40 1.160 . S
C39 O46 1.185 . S
O40 C39 1.160 . S
O41 Zn42 1.899 . S
O41 C49 1.284 . S
Zn42 O41 1.899 . S
Zn42 O43 2.032 . S
Zn42 O46 2.086 . S
Zn42 O51 1.977 . S
O43 Zn42 2.032 . S
O43 C47 1.278 . S
C44 O45 1.203 . S
C44 O51 1.267 . S
O45 C44 1.203 . S
O46 C39 1.185 . S
O46 Zn42 2.086 . S
C47 O43 1.278 . S
C47 O48 1.211 . S
O48 C47 1.211 . S
C49 O41 1.284 . S
C49 O50 1.273 . S
O50 C49 1.273 . S
O51 Zn42 1.977 . S
O51 C44 1.267 . S
C52 O53 1.160 . S
C52 O59 1.185 . S
O53 C52 1.160 . S
O54 Zn55 1.897 . S
O54 C62 1.297 . S
Zn55 O54 1.897 . S
Zn55 O56 2.032 1_455 S
Zn55 O59 2.086 1_455 S
Zn55 O64 1.977 . S
O56 Zn55 2.032 1_655 S
O56 C60 1.278 1_655 S
C57 O58 1.203 . S
C57 O64 1.267 . S
O58 C57 1.203 . S
O59 C52 1.185 . S
O59 Zn55 2.086 1_655 S
C60 O56 1.278 1_455 S
C60 O61 1.211 . S
O61 C60 1.211 . S
C62 O54 1.297 . S
C62 O63 1.273 . S
O63 C62 1.273 . S
O64 Zn55 1.977 . S
O64 C57 1.267 . S
C65 O66 1.160 . S
C65 O72 1.185 . S
O66 C65 1.160 . S
O67 Zn68 1.899 . S
O67 C75 1.284 . S
Zn68 O67 1.899 . S
Zn68 O69 2.032 . S
Zn68 O72 2.086 . S
Zn68 O77 1.977 . S
O69 Zn68 2.032 . S
O69 C73 1.278 . S
C70 O71 1.203 . S
C70 O77 1.267 . S
O71 C70 1.203 . S
O72 C65 1.185 . S
O72 Zn68 2.086 . S
C73 O69 1.278 . S
C73 O74 1.211 . S
O74 C73 1.211 . S
C75 O67 1.284 . S
C75 O76 1.273 . S
O76 C75 1.273 . S
O77 Zn68 1.977 . S
O77 C70 1.267 . S
C78 O79 1.160 . S
C78 O85 1.185 . S
O79 C78 1.160 . S
O80 Zn81 1.899 . S
O80 C88 1.284 . S
Zn81 O80 1.899 . S
Zn81 O82 2.032 . S
Zn81 O85 2.086 . S
Zn81 O90 1.977 . S
O82 Zn81 2.032 . S
O82 C86 1.278 . S
C83 O84 1.203 . S
C83 O90 1.267 . S
O84 C83 1.203 . S
O85 C78 1.185 . S
O85 Zn81 2.086 . S
C86 O82 1.278 . S
C86 O87 1.211 . S
O87 C86 1.211 . S
C88 O80 1.284 . S
C88 O89 1.273 . S
O89 C88 1.273 . S
O90 Zn81 1.977 . S
O90 C83 1.267 . S
C91 O92 1.160 . S
C91 O98 1.185 . S
O92 C91 1.160 . S
O93 Zn94 1.899 . S
O93 C101 1.284 . S
Zn94 O93 1.899 . S
Zn94 O95 2.032 . S
Zn94 O98 2.086 . S
Zn94 O103 1.977 1_455 S
O95 Zn94 2.032 . S
O95 C99 1.278 . S
C96 O97 1.203 . S
C96 O103 1.267 . S
O97 C96 1.203 . S
O98 C91 1.185 . S
O98 Zn94 2.086 . S
C99 O95 1.278 . S
C99 O100 1.211 1_455 S
O100 C99 1.211 1_655 S
C101 O93 1.284 . S
C101 O102 1.273 1_455 S
O102 C101 1.273 1_655 S
O103 Zn94 1.977 1_655 S
O103 C96 1.267 . S
C104 O105 1.160 . S
C104 O111 1.185 . S
O105 C104 1.160 . S
O106 Zn107 1.899 . S
O106 C114 1.284 . S
Zn107 O106 1.899 . S
Zn107 O108 2.032 . S
Zn107 O111 2.086 . S
Zn107 O116 1.977 . S
O108 Zn107 2.032 . S
O108 C112 1.278 . S
C109 O110 1.203 . S
C109 O116 1.267 1_565 S
O110 C109 1.203 . S
O111 C104 1.185 . S
O111 Zn107 2.086 . S
C112 O108 1.278 . S
C112 O113 1.211 . S
O113 C112 1.211 . S
C114 O106 1.284 . S
C114 O115 1.273 . S
O115 C114 1.273 . S
O116 Zn107 1.977 . S
O116 C109 1.267 1_545 S
C117 O118 1.160 . S
C117 O124 1.185 . S
O118 C117 1.160 . S
O119 Zn120 1.899 . S
O119 C127 1.284 . S
Zn120 O119 1.899 . S
Zn120 O121 2.032 . S
Zn120 O124 2.086 . S
Zn120 O129 1.977 . S
O121 Zn120 2.032 . S
O121 C125 1.278 . S
C122 O123 1.203 . S
C122 O129 1.267 . S
O123 C122 1.203 . S
O124 C117 1.185 . S
O124 Zn120 2.086 . S
C125 O121 1.278 . S
C125 O126 1.211 . S
O126 C125 1.211 . S
C127 O119 1.284 . S
C127 O128 1.273 . S
O128 C127 1.273 . S
O129 Zn120 1.977 . S
O129 C122 1.267 . S
C130 O131 1.160 . S
C130 O137 1.185 . S
O131 C130 1.160 . S
O132 Zn133 1.899 . S
O132 C140 1.284 . S
Zn133 O132 1.899 . S
Zn133 O134 2.032 . S
Zn133 O137 2.086 . S
Zn133 O142 1.977 1_565 S
O134 Zn133 2.032 . S
O134 C138 1.278 1_565 S
C135 O136 1.203 . S
C135 O142 1.267 . S
O136 C135 1.203 . S
O137 C130 1.185 . S
O137 Zn133 2.086 . S
C138 O134 1.278 1_545 S
C138 O139 1.211 . S
O139 C138 1.211 . S
C140 O132 1.284 . S
C140 O141 1.273 1_565 S
O141 C140 1.273 1_545 S
O142 Zn133 1.977 1_545 S
O142 C135 1.267 . S
C143 O144 1.160 . S
C143 O150 1.185 . S
O144 C143 1.160 . S
O145 Zn146 1.899 . S
O145 C153 1.284 . S
Zn146 O145 1.899 . S
Zn146 O147 2.031 1_554 S
Zn146 O150 2.086 . S
Zn146 O155 1.977 . S
O147 Zn146 2.031 1_556 S
O147 C151 1.278 . S
C148 O149 1.203 . S
C148 O155 1.267 . S
O149 C148 1.203 . S
O150 C143 1.185 . S
O150 Zn146 2.086 . S
C151 O147 1.278 . S
C151 O152 1.211 . S
O152 C151 1.211 . S
C153 O145 1.284 . S
C153 O154 1.273 . S
O154 C153 1.273 . S
O155 Zn146 1.977 . S
O155 C148 1.267 . S
C156 O157 1.160 . S
C156 O163 1.185 . S
O157 C156 1.160 . S
O158 Zn159 1.899 . S
O158 C166 1.284 . S
Zn159 O158 1.899 . S
Zn159 O160 2.032 1_554 S
Zn159 O163 2.086 . S
Zn159 O168 1.977 . S
O160 Zn159 2.032 1_556 S
O160 C164 1.278 . S
C161 O162 1.203 . S
C161 O168 1.267 . S
O162 C161 1.203 . S
O163 C156 1.185 . S
O163 Zn159 2.086 . S
C164 O160 1.278 . S
C164 O165 1.211 . S
O165 C164 1.211 . S
C166 O158 1.284 . S
C166 O167 1.273 . S
O167 C166 1.273 . S
O168 Zn159 1.977 . S
O168 C161 1.267 . S
C169 O170 1.160 . S
C169 O176 1.185 1_554 S
O170 C169 1.160 . S
O171 Zn172 1.899 . S
O171 C179 1.284 . S
Zn172 O171 1.899 . S
Zn172 O173 2.032 1_554 S
Zn172 O176 2.086 1_554 S
Zn172 O181 1.977 1_554 S
O173 Zn172 2.032 1_556 S
O173 C177 1.278 . S
C174 O175 1.204 1_556 S
C174 O181 1.265 . S
O175 C174 1.204 1_554 S
O176 C169 1.185 1_556 S
O176 Zn172 2.086 1_556 S
C177 O173 1.278 . S
C177 O178 1.211 . S
O178 C177 1.211 . S
C179 O171 1.284 . S
C179 O180 1.273 . S
O180 C179 1.273 . S
O181 Zn172 1.977 1_556 S
O181 C174 1.265 . S
C182 O183 1.160 . S
C182 O189 1.185 . S
O183 C182 1.160 . S
O184 Zn185 1.899 . S
O184 C192 1.284 . S
Zn185 O184 1.899 . S
Zn185 O186 2.032 . S
Zn185 O189 2.086 . S
Zn185 O194 1.977 . S
O186 Zn185 2.032 . S
O186 C190 1.278 . S
C187 O188 1.203 . S
C187 O194 1.267 . S
O188 C187 1.203 . S
O189 C182 1.185 . S
O189 Zn185 2.086 . S
C190 O186 1.278 . S
C190 O191 1.211 . S
O191 C190 1.211 . S
C192 O184 1.284 . S
C192 O193 1.273 . S
O193 C192 1.273 . S
O194 Zn185 1.977 . S
O194 C187 1.267 . S
C195 O196 1.160 . S
C195 O202 1.185 . S
O196 C195 1.160 . S
O197 Zn198 1.899 . S
O197 C205 1.284 . S
Zn198 O197 1.899 . S
Zn198 O199 2.032 . S
Zn198 O202 2.086 . S
Zn198 O207 1.977 . S
O199 Zn198 2.032 . S
O199 C203 1.278 . S
C200 O201 1.203 . S
C200 O207 1.267 . S
O201 C200 1.203 . S
O202 C195 1.185 . S
O202 Zn198 2.086 . S
C203 O199 1.278 . S
C203 O204 1.211 . S
O204 C203 1.211 . S
C205 O197 1.284 . S
C205 O206 1.273 . S
O206 C205 1.273 . S
O207 Zn198 1.977 . S
O207 C200 1.267 . S
C208 O209 1.160 . S
C208 O215 1.185 . S
O209 C208 1.160 . S
O210 Zn211 1.899 . S
O210 C218 1.284 . S
Zn211 O210 1.899 . S
Zn211 O212 2.032 . S
Zn211 O215 2.086 . S
Zn211 O220 1.977 . S
O212 Zn211 2.032 . S
O212 C216 1.278 . S
C213 O214 1.203 . S
C213 O220 1.267 . S
O214 C213 1.203 . S
O215 C208 1.185 . S
O215 Zn211 2.086 . S
C216 O212 1.278 . S
C216 O217 1.211 . S
O217 C216 1.211 . S
C218 O210 1.284 . S
C218 O219 1.273 . S
O219 C218 1.273 . S
O220 Zn211 1.977 . S
O220 C213 1.267 . S
C221 O222 1.160 . S
C221 O228 1.185 . S
O222 C221 1.160 . S
O223 Zn224 1.899 . S
O223 C231 1.284 . S
Zn224 O223 1.899 . S
Zn224 O225 2.032 . S
Zn224 O228 2.086 . S
Zn224 O233 1.977 . S
O225 Zn224 2.032 . S
O225 C229 1.278 . S
C226 O227 1.203 . S
C226 O233 1.267 . S
O227 C226 1.203 . S
O228 C221 1.185 . S
O228 Zn224 2.086 . S
C229 O225 1.278 . S
C229 O230 1.211 . S
O230 C229 1.211 . S
C231 O223 1.284 . S
C231 O232 1.273 . S
O232 C231 1.273 . S
O233 Zn224 1.977 . S
O233 C226 1.267 . S
C234 O235 1.160 . S
C234 O241 1.185 . S
O235 C234 1.160 . S
O236 Zn237 1.899 . S
O236 C244 1.284 . S
Zn237 O236 1.899 . S
Zn237 O238 2.032 . S
Zn237 O241 2.086 . S
Zn237 O246 1.977 . S
O238 Zn237 2.032 . S
O238 C242 1.278 . S
C239 O240 1.203 . S
C239 O246 1.267 . S
O240 C239 1.203 . S
O241 C234 1.185 . S
O241 Zn237 2.086 . S
C242 O238 1.278 . S
C242 O243 1.211 . S
O243 C242 1.211 . S
C244 O236 1.284 . S
C244 O245 1.273 . S
O245 C244 1.273 . S
O246 Zn237 1.977 . S
O246 C239 1.267 . S
C247 O248 1.160 . S
C247 O254 1.185 . S
O248 C247 1.160 . S
O249 Zn250 1.899 . S
O249 C257 1.284 . S
Zn250 O249 1.899 . S
Zn250 O251 2.020 1_545 S
Zn250 O254 2.086 1_545 S
Zn250 O259 1.977 . S
O251 Zn250 2.020 1_565 S
O251 C255 1.243 1_565 S
C252 O253 1.203 . S
C252 O259 1.267 . S
O253 C252 1.203 . S
O254 C247 1.185 . S
O254 Zn250 2.086 1_565 S
C255 O251 1.243 1_545 S
C255 O256 1.211 . S
O256 C255 1.211 . S
C257 O249 1.284 . S
C257 O258 1.273 . S
O258 C257 1.273 . S
O259 Zn250 1.977 . S
O259 C252 1.267 . S
C260 O261 1.160 . S
C260 O267 1.185 1_554 S
O261 C260 1.160 . S
O262 Zn263 1.899 . S
O262 C270 1.284 . S
Zn263 O262 1.899 . S
Zn263 O264 2.032 1_554 S
Zn263 O267 2.086 1_554 S
Zn263 O272 1.977 1_554 S
O264 Zn263 2.032 1_556 S
O264 C268 1.278 . S
C265 O266 1.203 . S
C265 O272 1.267 1_554 S
O266 C265 1.203 . S
O267 C260 1.185 1_556 S
O267 Zn263 2.086 1_556 S
C268 O264 1.278 . S
C268 O269 1.211 . S
O269 C268 1.211 . S
C270 O262 1.284 . S
C270 O271 1.273 . S
O271 C270 1.273 . S
O272 Zn263 1.977 1_556 S
O272 C265 1.267 1_556 S
C273 O274 1.160 . S
C273 O280 1.185 . S
O274 C273 1.160 . S
O275 Zn276 1.899 . S
O275 C283 1.284 . S
Zn276 O275 1.899 . S
Zn276 O277 2.032 . S
Zn276 O280 2.086 . S
Zn276 O285 1.977 . S
O277 Zn276 2.032 . S
O277 C281 1.278 . S
C278 O279 1.203 . S
C278 O285 1.267 . S
O279 C278 1.203 . S
O280 C273 1.185 . S
O280 Zn276 2.086 . S
C281 O277 1.278 . S
C281 O282 1.211 . S
O282 C281 1.211 . S
C283 O275 1.284 . S
C283 O284 1.273 . S
O284 C283 1.273 . S
O285 Zn276 1.977 . S
O285 C278 1.267 . S
C286 O287 1.160 . S
C286 O293 1.185 . S
O287 C286 1.160 . S
O288 Zn289 1.899 . S
O288 C296 1.284 . S
Zn289 O288 1.899 . S
Zn289 O290 2.032 . S
Zn289 O293 2.086 . S
Zn289 O298 1.977 . S
O290 Zn289 2.032 . S
O290 C294 1.278 . S
C291 O292 1.203 . S
C291 O298 1.267 . S
O292 C291 1.203 . S
O293 C286 1.185 . S
O293 Zn289 2.086 . S
C294 O290 1.278 . S
C294 O295 1.211 . S
O295 C294 1.211 . S
C296 O288 1.284 . S
C296 O297 1.273 . S
O297 C296 1.273 . S
O298 Zn289 1.977 . S
O298 C291 1.267 . S
C299 O300 1.160 . S
C299 O306 1.185 . S
O300 C299 1.160 . S
O301 Zn302 1.899 . S
O301 C309 1.284 . S
Zn302 O301 1.899 . S
Zn302 O303 2.032 . S
Zn302 O306 2.086 . S
Zn302 O311 1.977 . S
O303 Zn302 2.032 . S
O303 C307 1.278 . S
C304 O305 1.203 . S
C304 O311 1.267 . S
O305 C304 1.203 . S
O306 C299 1.185 . S
O306 Zn302 2.086 . S
C307 O303 1.278 . S
C307 O308 1.211 . S
O308 C307 1.211 . S
C309 O301 1.284 . S
C309 O310 1.273 . S
O310 C309 1.273 . S
O311 Zn302 1.977 . S
O311 C304 1.267 . S
Tb312 O315 2.453 . S
Tb312 O316 2.596 . S
Tb312 O317 2.374 1_554 S
Tb312 O325 2.343 1_455 S
Tb312 O327 2.353 . S
Tb312 O329 2.427 . S
Tb312 O330 2.513 1_554 S
C313 O317 1.251 . S
C313 O319 1.263 1_445 S
Tb314 O316 2.343 1_665 S
Tb314 O319 2.353 1_554 S
Tb314 O322 2.427 . S
Tb314 O323 2.513 . S
Tb314 O324 2.453 1_564 S
Tb314 O325 2.596 1_565 S
Tb314 O326 2.374 1_565 S
O315 Tb312 2.453 . S
O315 C331 1.245 . S
O316 Tb312 2.596 . S
O316 Tb314 2.343 1_445 S
O316 C331 1.259 . S
O317 Tb312 2.374 1_556 S
O317 C313 1.251 . S
C318 O322 1.275 1_455 S
C318 O323 1.246 1_455 S
O319 C313 1.263 1_665 S
O319 Tb314 2.353 1_556 S
C320 O324 1.245 . S
C320 O325 1.259 1_556 S
C321 O326 1.250 . S
C321 O327 1.263 1_655 S
O322 Tb314 2.427 . S
O322 C318 1.275 1_655 S
O323 Tb314 2.513 . S
O323 C318 1.246 1_655 S
O324 Tb314 2.453 1_546 S
O324 C320 1.245 . S
O325 Tb312 2.343 1_655 S
O325 Tb314 2.596 1_545 S
O325 C320 1.259 1_554 S
O326 Tb314 2.374 1_545 S
O326 C321 1.250 . S
O327 Tb312 2.353 . S
O327 C321 1.263 1_455 S
C328 O329 1.275 1_556 S
C328 O330 1.246 . S
O329 Tb312 2.427 . S
O329 C328 1.275 1_554 S
O330 Tb312 2.513 1_556 S
O330 C328 1.246 . S
C331 O315 1.245 . S
C331 O316 1.259 . S
Tb332 O335 2.453 . S
Tb332 O336 2.596 . S
Tb332 O337 2.374 . S
Tb332 O345 2.343 . S
Tb332 O347 2.353 . S
Tb332 O349 2.427 . S
Tb332 O350 2.513 . S
C333 O337 1.251 . S
C333 O339 1.263 . S
Tb334 O336 2.343 . S
Tb334 O339 2.353 . S
Tb334 O342 2.427 . S
Tb334 O343 2.513 . S
Tb334 O344 2.453 . S
Tb334 O345 2.596 . S
Tb334 O346 2.374 . S
O335 Tb332 2.453 . S
O335 C351 1.245 . S
O336 Tb332 2.596 . S
O336 Tb334 2.343 . S
O336 C351 1.259 . S
O337 Tb332 2.374 . S
O337 C333 1.251 . S
C338 O342 1.275 . S
C338 O343 1.246 . S
O339 C333 1.263 . S
O339 Tb334 2.353 . S
C340 O344 1.245 . S
C340 O345 1.259 . S
C341 O346 1.250 . S
C341 O347 1.263 . S
O342 Tb334 2.427 . S
O342 C338 1.275 . S
O343 Tb334 2.513 . S
O343 C338 1.246 . S
O344 Tb334 2.453 . S
O344 C340 1.245 . S
O345 Tb332 2.343 . S
O345 Tb334 2.596 . S
O345 C340 1.259 . S
O346 Tb334 2.374 . S
O346 C341 1.250 . S
O347 Tb332 2.353 . S
O347 C341 1.263 . S
C348 O349 1.275 . S
C348 O350 1.246 . S
O349 Tb332 2.427 . S
O349 C348 1.275 . S
O350 Tb332 2.513 . S
O350 C348 1.246 . S
C351 O335 1.245 . S
C351 O336 1.259 . S
Tb352 O355 2.453 . S
Tb352 O356 2.596 . S
Tb352 O357 2.374 . S
Tb352 O365 2.343 . S
Tb352 O367 2.353 . S
Tb352 O369 2.427 . S
Tb352 O370 2.513 . S
C353 O357 1.251 . S
C353 O359 1.263 . S
Tb354 O356 2.343 . S
Tb354 O359 2.353 . S
Tb354 O362 2.427 . S
Tb354 O363 2.513 . S
Tb354 O364 2.453 1_545 S
Tb354 O365 2.596 . S
Tb354 O366 2.374 . S
O355 Tb352 2.453 . S
O355 C371 1.245 . S
O356 Tb352 2.596 . S
O356 Tb354 2.343 . S
O356 C371 1.259 . S
O357 Tb352 2.374 . S
O357 C353 1.251 . S
C358 O362 1.275 . S
C358 O363 1.246 . S
O359 C353 1.263 . S
O359 Tb354 2.353 . S
C360 O364 1.245 . S
C360 O365 1.259 1_565 S
C361 O366 1.250 . S
C361 O367 1.263 . S
O362 Tb354 2.427 . S
O362 C358 1.275 . S
O363 Tb354 2.513 . S
O363 C358 1.246 . S
O364 Tb354 2.453 1_565 S
O364 C360 1.245 . S
O365 Tb352 2.343 . S
O365 Tb354 2.596 . S
O365 C360 1.259 1_545 S
O366 Tb354 2.374 . S
O366 C361 1.250 . S
O367 Tb352 2.353 . S
O367 C361 1.263 . S
C368 O369 1.275 . S
C368 O370 1.246 . S
O369 Tb352 2.427 . S
O369 C368 1.275 . S
O370 Tb352 2.513 . S
O370 C368 1.246 . S
C371 O355 1.245 . S
C371 O356 1.259 . S
Tb372 O375 2.453 . S
Tb372 O376 2.596 . S
Tb372 O377 2.374 . S
Tb372 O385 2.343 . S
Tb372 O387 2.353 . S
Tb372 O389 2.427 . S
Tb372 O390 2.513 . S
C373 O377 1.251 . S
C373 O379 1.263 . S
Tb374 O376 2.343 . S
Tb374 O379 2.353 . S
Tb374 O382 2.427 . S
Tb374 O383 2.513 . S
Tb374 O384 2.453 . S
Tb374 O385 2.596 . S
Tb374 O386 2.374 . S
O375 Tb372 2.453 . S
O375 C391 1.245 . S
O376 Tb372 2.596 . S
O376 Tb374 2.343 . S
O376 C391 1.259 . S
O377 Tb372 2.374 . S
O377 C373 1.251 . S
C378 O382 1.275 . S
C378 O383 1.246 . S
O379 C373 1.263 . S
O379 Tb374 2.353 . S
C380 O384 1.245 . S
C380 O385 1.259 . S
C381 O386 1.250 . S
C381 O387 1.263 . S
O382 Tb374 2.427 . S
O382 C378 1.275 . S
O383 Tb374 2.513 . S
O383 C378 1.246 . S
O384 Tb374 2.453 . S
O384 C380 1.245 . S
O385 Tb372 2.343 . S
O385 Tb374 2.596 . S
O385 C380 1.259 . S
O386 Tb374 2.374 . S
O386 C381 1.250 . S
O387 Tb372 2.353 . S
O387 C381 1.263 . S
C388 O389 1.275 . S
C388 O390 1.246 . S
O389 Tb372 2.427 . S
O389 C388 1.275 . S
O390 Tb372 2.513 . S
O390 C388 1.246 . S
C391 O375 1.245 . S
C391 O376 1.259 . S
Tb392 O395 2.453 1_545 S
Tb392 O396 2.596 . S
Tb392 O397 2.374 1_455 S
Tb392 O405 2.343 . S
Tb392 O407 2.353 . S
Tb392 O409 2.427 . S
Tb392 O410 2.513 1_455 S
C393 O397 1.251 . S
C393 O399 1.263 . S
Tb394 O396 2.343 . S
Tb394 O399 2.353 1_455 S
Tb394 O402 2.427 . S
Tb394 O403 2.513 . S
Tb394 O404 2.453 . S
Tb394 O405 2.596 . S
Tb394 O406 2.374 . S
O395 Tb392 2.453 1_565 S
O395 C411 1.245 . S
O396 Tb392 2.596 . S
O396 Tb394 2.343 . S
O396 C411 1.259 1_545 S
O397 Tb392 2.374 1_655 S
O397 C393 1.251 . S
C398 O402 1.275 . S
C398 O403 1.246 . S
O399 C393 1.263 . S
O399 Tb394 2.353 1_655 S
C400 O404 1.245 . S
C400 O405 1.259 . S
C401 O406 1.250 . S
C401 O407 1.263 . S
O402 Tb394 2.427 . S
O402 C398 1.275 . S
O403 Tb394 2.513 . S
O403 C398 1.246 . S
O404 Tb394 2.453 . S
O404 C400 1.245 . S
O405 Tb392 2.343 . S
O405 Tb394 2.596 . S
O405 C400 1.259 . S
O406 Tb394 2.374 . S
O406 C401 1.250 . S
O407 Tb392 2.353 . S
O407 C401 1.263 . S
C408 O409 1.275 1_655 S
C408 O410 1.246 . S
O409 Tb392 2.427 . S
O409 C408 1.275 1_455 S
O410 Tb392 2.513 1_655 S
O410 C408 1.246 . S
C411 O395 1.245 . S
C411 O396 1.259 1_565 S
Tb412 O415 2.453 . S
Tb412 O416 2.596 . S
Tb412 O417 2.374 . S
Tb412 O425 2.343 . S
Tb412 O427 2.353 . S
Tb412 O429 2.427 . S
Tb412 O430 2.513 . S
C413 O417 1.251 . S
C413 O419 1.263 . S
Tb414 O416 2.343 . S
Tb414 O419 2.353 . S
Tb414 O422 2.427 . S
Tb414 O423 2.513 . S
Tb414 O424 2.453 . S
Tb414 O425 2.596 . S
Tb414 O426 2.374 . S
O415 Tb412 2.453 . S
O415 C431 1.245 . S
O416 Tb412 2.596 . S
O416 Tb414 2.343 . S
O416 C431 1.259 . S
O417 Tb412 2.374 . S
O417 C413 1.251 . S
C418 O422 1.275 . S
C418 O423 1.246 . S
O419 C413 1.263 . S
O419 Tb414 2.353 . S
C420 O424 1.245 . S
C420 O425 1.259 . S
C421 O426 1.250 . S
C421 O427 1.263 . S
O422 Tb414 2.427 . S
O422 C418 1.275 . S
O423 Tb414 2.513 . S
O423 C418 1.246 . S
O424 Tb414 2.453 . S
O424 C420 1.245 . S
O425 Tb412 2.343 . S
O425 Tb414 2.596 . S
O425 C420 1.259 . S
O426 Tb414 2.374 . S
O426 C421 1.250 . S
O427 Tb412 2.353 . S
O427 C421 1.263 . S
C428 O429 1.275 . S
C428 O430 1.246 . S
O429 Tb412 2.427 . S
O429 C428 1.275 . S
O430 Tb412 2.513 . S
O430 C428 1.246 . S
C431 O415 1.245 . S
C431 O416 1.259 . S
Tb432 O435 2.453 . S
Tb432 O436 2.596 . S
Tb432 O437 2.374 1_545 S
Tb432 O445 2.343 1_556 S
Tb432 O447 2.353 1_556 S
Tb432 O449 2.427 1_556 S
Tb432 O450 2.513 1_546 S
C433 O437 1.251 1_554 S
C433 O439 1.263 . S
Tb434 O436 2.343 1_554 S
Tb434 O439 2.353 1_545 S
Tb434 O442 2.427 . S
Tb434 O443 2.513 . S
Tb434 O444 2.453 . S
Tb434 O445 2.596 . S
Tb434 O446 2.374 . S
O435 Tb432 2.453 . S
O435 C451 1.245 . S
O436 Tb432 2.596 . S
O436 Tb434 2.343 1_556 S
O436 C451 1.259 . S
O437 Tb432 2.374 1_565 S
O437 C433 1.251 1_556 S
C438 O442 1.275 . S
C438 O443 1.246 . S
O439 C433 1.263 . S
O439 Tb434 2.353 1_565 S
C440 O444 1.245 . S
C440 O445 1.259 . S
C441 O446 1.250 . S
C441 O447 1.263 . S
O442 Tb434 2.427 . S
O442 C438 1.275 . S
O443 Tb434 2.513 . S
O443 C438 1.246 . S
O444 Tb434 2.453 . S
O444 C440 1.245 . S
O445 Tb432 2.343 1_554 S
O445 Tb434 2.596 . S
O445 C440 1.259 . S
O446 Tb434 2.374 . S
O446 C441 1.250 . S
O447 Tb432 2.353 1_554 S
O447 C441 1.263 . S
C448 O449 1.275 . S
C448 O450 1.246 1_545 S
O449 Tb432 2.427 1_554 S
O449 C448 1.275 . S
O450 Tb432 2.513 1_564 S
O450 C448 1.246 1_565 S
C451 O435 1.245 . S
C451 O436 1.259 . S
Tb452 O455 2.453 . S
Tb452 O456 2.596 . S
Tb452 O457 2.374 . S
Tb452 O465 2.343 . S
Tb452 O467 2.353 . S
Tb452 O469 2.427 . S
Tb452 O470 2.513 . S
C453 O457 1.251 . S
C453 O459 1.263 . S
Tb454 O456 2.343 . S
Tb454 O459 2.353 . S
Tb454 O462 2.427 . S
Tb454 O463 2.513 . S
Tb454 O464 2.453 . S
Tb454 O465 2.596 . S
Tb454 O466 2.374 . S
O455 Tb452 2.453 . S
O455 C471 1.245 . S
O456 Tb452 2.596 . S
O456 Tb454 2.343 . S
O456 C471 1.259 . S
O457 Tb452 2.374 . S
O457 C453 1.251 . S
C458 O462 1.275 . S
C458 O463 1.246 . S
O459 C453 1.263 . S
O459 Tb454 2.353 . S
C460 O464 1.245 . S
C460 O465 1.259 . S
C461 O466 1.250 . S
C461 O467 1.263 . S
O462 Tb454 2.427 . S
O462 C458 1.275 . S
O463 Tb454 2.513 . S
O463 C458 1.246 . S
O464 Tb454 2.453 . S
O464 C460 1.245 . S
O465 Tb452 2.343 . S
O465 Tb454 2.596 . S
O465 C460 1.259 . S
O466 Tb454 2.374 . S
O466 C461 1.250 . S
O467 Tb452 2.353 . S
O467 C461 1.263 . S
C468 O469 1.275 . S
C468 O470 1.246 . S
O469 Tb452 2.427 . S
O469 C468 1.275 . S
O470 Tb452 2.513 . S
O470 C468 1.246 . S
C471 O455 1.245 . S
C471 O456 1.259 . S
Tb472 O475 2.453 1_556 S
Tb472 O476 2.596 1_556 S
Tb472 O477 2.374 1_556 S
Tb472 O485 2.343 1_556 S
Tb472 O487 2.353 . S
Tb472 O489 2.427 . S
Tb472 O490 2.513 . S
C473 O477 1.251 . S
C473 O479 1.263 . S
Tb474 O476 2.343 . S
Tb474 O479 2.353 . S
Tb474 O482 2.427 . S
Tb474 O483 2.513 . S
Tb474 O484 2.453 . S
Tb474 O485 2.596 . S
Tb474 O486 2.374 . S
O475 Tb472 2.453 1_554 S
O475 C491 1.245 . S
O476 Tb472 2.596 1_554 S
O476 Tb474 2.343 . S
O476 C491 1.259 . S
O477 Tb472 2.374 1_554 S
O477 C473 1.251 . S
C478 O482 1.275 . S
C478 O483 1.246 . S
O479 C473 1.263 . S
O479 Tb474 2.353 . S
C480 O484 1.245 . S
C480 O485 1.259 . S
C481 O486 1.250 . S
C481 O487 1.263 1_554 S
O482 Tb474 2.427 . S
O482 C478 1.275 . S
O483 Tb474 2.513 . S
O483 C478 1.246 . S
O484 Tb474 2.453 . S
O484 C480 1.245 . S
O485 Tb472 2.343 1_554 S
O485 Tb474 2.596 . S
O485 C480 1.259 . S
O486 Tb474 2.374 . S
O486 C481 1.250 . S
O487 Tb472 2.353 . S
O487 C481 1.263 1_556 S
C488 O489 1.275 . S
C488 O490 1.246 . S
O489 Tb472 2.427 . S
O489 C488 1.275 . S
O490 Tb472 2.513 . S
O490 C488 1.246 . S
C491 O475 1.245 . S
C491 O476 1.259 . S
Tb492 O495 2.453 . S
Tb492 O496 2.596 . S
Tb492 O497 2.374 . S
Tb492 O505 2.343 . S
Tb492 O507 2.353 . S
Tb492 O509 2.427 . S
Tb492 O510 2.513 . S
C493 O497 1.251 . S
C493 O499 1.263 . S
Tb494 O496 2.343 . S
Tb494 O499 2.353 . S
Tb494 O502 2.427 . S
Tb494 O503 2.513 . S
Tb494 O504 2.453 . S
Tb494 O505 2.596 . S
Tb494 O506 2.374 . S
O495 Tb492 2.453 . S
O495 C511 1.245 . S
O496 Tb492 2.596 . S
O496 Tb494 2.343 . S
O496 C511 1.259 . S
O497 Tb492 2.374 . S
O497 C493 1.251 . S
C498 O502 1.275 . S
C498 O503 1.246 . S
O499 C493 1.263 . S
O499 Tb494 2.353 . S
C500 O504 1.245 . S
C500 O505 1.259 . S
C501 O506 1.250 . S
C501 O507 1.263 . S
O502 Tb494 2.427 . S
O502 C498 1.275 . S
O503 Tb494 2.513 . S
O503 C498 1.246 . S
O504 Tb494 2.453 . S
O504 C500 1.245 . S
O505 Tb492 2.343 . S
O505 Tb494 2.596 . S
O505 C500 1.259 . S
O506 Tb494 2.374 . S
O506 C501 1.250 . S
O507 Tb492 2.353 . S
O507 C501 1.263 . S
C508 O509 1.275 . S
C508 O510 1.246 . S
O509 Tb492 2.427 . S
O509 C508 1.275 . S
O510 Tb492 2.513 . S
O510 C508 1.246 . S
C511 O495 1.245 . S
C511 O496 1.259 . S
Tb512 O515 2.453 1_655 S
Tb512 O516 2.596 1_655 S
Tb512 O517 2.374 . S
Tb512 O525 2.343 . S
Tb512 O527 2.353 . S
Tb512 O529 2.427 . S
Tb512 O530 2.513 . S
C513 O517 1.251 1_455 S
C513 O519 1.263 . S
Tb514 O516 2.343 . S
Tb514 O519 2.353 . S
Tb514 O522 2.427 . S
Tb514 O523 2.513 . S
Tb514 O524 2.453 . S
Tb514 O525 2.596 1_455 S
Tb514 O526 2.374 . S
O515 Tb512 2.453 1_455 S
O515 C531 1.245 . S
O516 Tb512 2.596 1_455 S
O516 Tb514 2.343 . S
O516 C531 1.259 . S
O517 Tb512 2.374 . S
O517 C513 1.251 1_655 S
C518 O522 1.275 . S
C518 O523 1.246 . S
O519 C513 1.263 . S
O519 Tb514 2.353 . S
C520 O524 1.245 1_655 S
C520 O525 1.259 . S
C521 O526 1.250 . S
C521 O527 1.263 1_455 S
O522 Tb514 2.427 . S
O522 C518 1.275 . S
O523 Tb514 2.513 . S
O523 C518 1.246 . S
O524 Tb514 2.453 . S
O524 C520 1.245 1_455 S
O525 Tb512 2.343 . S
O525 Tb514 2.596 1_655 S
O525 C520 1.259 . S
O526 Tb514 2.374 . S
O526 C521 1.250 . S
O527 Tb512 2.353 . S
O527 C521 1.263 1_655 S
C528 O529 1.275 . S
C528 O530 1.246 . S
O529 Tb512 2.427 . S
O529 C528 1.275 . S
O530 Tb512 2.513 . S
O530 C528 1.246 . S
C531 O515 1.245 . S
C531 O516 1.259 . S
Tb532 O535 2.453 . S
Tb532 O536 2.596 . S
Tb532 O537 2.374 . S
Tb532 O545 2.343 . S
Tb532 O547 2.353 . S
Tb532 O549 2.427 . S
Tb532 O550 2.513 . S
C533 O537 1.251 . S
C533 O539 1.263 . S
Tb534 O536 2.343 . S
Tb534 O539 2.353 . S
Tb534 O542 2.427 . S
Tb534 O543 2.513 . S
Tb534 O544 2.453 . S
Tb534 O545 2.596 . S
Tb534 O546 2.374 . S
O535 Tb532 2.453 . S
O535 C551 1.245 . S
O536 Tb532 2.596 . S
O536 Tb534 2.343 . S
O536 C551 1.259 . S
O537 Tb532 2.374 . S
O537 C533 1.251 . S
C538 O542 1.275 . S
C538 O543 1.246 . S
O539 C533 1.263 . S
O539 Tb534 2.353 . S
C540 O544 1.245 . S
C540 O545 1.259 . S
C541 O546 1.250 . S
C541 O547 1.263 . S
O542 Tb534 2.427 . S
O542 C538 1.275 . S
O543 Tb534 2.513 . S
O543 C538 1.246 . S
O544 Tb534 2.453 . S
O544 C540 1.245 . S
O545 Tb532 2.343 . S
O545 Tb534 2.596 . S
O545 C540 1.259 . S
O546 Tb534 2.374 . S
O546 C541 1.250 . S
O547 Tb532 2.353 . S
O547 C541 1.263 . S
C548 O549 1.275 . S
C548 O550 1.246 . S
O549 Tb532 2.427 . S
O549 C548 1.275 . S
O550 Tb532 2.513 . S
O550 C548 1.246 . S
C551 O535 1.245 . S
C551 O536 1.259 . S
Tb552 O555 2.453 . S
Tb552 O556 2.596 . S
Tb552 O557 2.374 . S
Tb552 O565 2.343 . S
Tb552 O567 2.353 . S
Tb552 O569 2.427 . S
Tb552 O570 2.513 . S
C553 O557 1.251 . S
C553 O559 1.263 . S
Tb554 O556 2.343 . S
Tb554 O559 2.353 . S
Tb554 O562 2.427 . S
Tb554 O563 2.513 . S
Tb554 O564 2.453 . S
Tb554 O565 2.596 . S
Tb554 O566 2.374 . S
O555 Tb552 2.453 . S
O555 C571 1.245 . S
O556 Tb552 2.596 . S
O556 Tb554 2.343 . S
O556 C571 1.259 . S
O557 Tb552 2.374 . S
O557 C553 1.251 . S
C558 O562 1.275 . S
C558 O563 1.246 . S
O559 C553 1.263 . S
O559 Tb554 2.353 . S
C560 O564 1.245 . S
C560 O565 1.259 . S
C561 O566 1.250 . S
C561 O567 1.263 . S
O562 Tb554 2.427 . S
O562 C558 1.275 . S
O563 Tb554 2.513 . S
O563 C558 1.246 . S
O564 Tb554 2.453 . S
O564 C560 1.245 . S
O565 Tb552 2.343 . S
O565 Tb554 2.596 . S
O565 C560 1.259 . S
O566 Tb554 2.374 . S
O566 C561 1.250 . S
O567 Tb552 2.353 . S
O567 C561 1.263 . S
C568 O569 1.275 . S
C568 O570 1.246 . S
O569 Tb552 2.427 . S
O569 C568 1.275 . S
O570 Tb552 2.513 . S
O570 C568 1.246 . S
C571 O555 1.245 . S
C571 O556 1.259 . S
Tb572 O575 2.453 . S
Tb572 O576 2.596 . S
Tb572 O577 2.374 . S
Tb572 O585 2.343 . S
Tb572 O587 2.353 . S
Tb572 O589 2.427 . S
Tb572 O590 2.513 . S
C573 O577 1.251 . S
C573 O579 1.263 . S
Tb574 O576 2.343 . S
Tb574 O579 2.353 . S
Tb574 O582 2.427 . S
Tb574 O583 2.513 . S
Tb574 O584 2.453 . S
Tb574 O585 2.596 . S
Tb574 O586 2.374 . S
O575 Tb572 2.453 . S
O575 C591 1.245 . S
O576 Tb572 2.596 . S
O576 Tb574 2.343 . S
O576 C591 1.259 . S
O577 Tb572 2.374 . S
O577 C573 1.251 . S
C578 O582 1.275 . S
C578 O583 1.246 . S
O579 C573 1.263 . S
O579 Tb574 2.353 . S
C580 O584 1.245 . S
C580 O585 1.259 . S
C581 O586 1.250 . S
C581 O587 1.263 . S
O582 Tb574 2.427 . S
O582 C578 1.275 . S
O583 Tb574 2.513 . S
O583 C578 1.246 . S
O584 Tb574 2.453 . S
O584 C580 1.245 . S
O585 Tb572 2.343 . S
O585 Tb574 2.596 . S
O585 C580 1.259 . S
O586 Tb574 2.374 . S
O586 C581 1.250 . S
O587 Tb572 2.353 . S
O587 C581 1.263 . S
C588 O589 1.275 . S
C588 O590 1.246 . S
O589 Tb572 2.427 . S
O589 C588 1.275 . S
O590 Tb572 2.513 . S
O590 C588 1.246 . S
C591 O575 1.245 . S
C591 O576 1.259 . S
Tb592 O595 2.453 . S
Tb592 O596 2.596 . S
Tb592 O597 2.374 . S
Tb592 O605 2.343 . S
Tb592 O607 2.353 . S
Tb592 O609 2.427 . S
Tb592 O610 2.513 . S
C593 O597 1.251 . S
C593 O599 1.263 . S
Tb594 O596 2.343 . S
Tb594 O599 2.353 . S
Tb594 O602 2.427 . S
Tb594 O603 2.513 . S
Tb594 O604 2.453 . S
Tb594 O605 2.596 . S
Tb594 O606 2.374 . S
O595 Tb592 2.453 . S
O595 C611 1.245 . S
O596 Tb592 2.596 . S
O596 Tb594 2.343 . S
O596 C611 1.259 . S
O597 Tb592 2.374 . S
O597 C593 1.251 . S
C598 O602 1.275 . S
C598 O603 1.246 . S
O599 C593 1.263 . S
O599 Tb594 2.353 . S
C600 O604 1.245 . S
C600 O605 1.259 . S
C601 O606 1.250 . S
C601 O607 1.263 . S
O602 Tb594 2.427 . S
O602 C598 1.275 . S
O603 Tb594 2.513 . S
O603 C598 1.246 . S
O604 Tb594 2.453 . S
O604 C600 1.245 . S
O605 Tb592 2.343 . S
O605 Tb594 2.596 . S
O605 C600 1.259 . S
O606 Tb594 2.374 . S
O606 C601 1.250 . S
O607 Tb592 2.353 . S
O607 C601 1.263 . S
C608 O609 1.275 . S
C608 O610 1.246 . S
O609 Tb592 2.427 . S
O609 C608 1.275 . S
O610 Tb592 2.513 . S
O610 C608 1.246 . S
C611 O595 1.245 . S
C611 O596 1.259 . S
Tb612 O615 2.453 . S
Tb612 O616 2.596 . S
Tb612 O617 2.374 . S
Tb612 O625 2.343 . S
Tb612 O627 2.353 1_554 S
Tb612 O629 2.427 1_554 S
Tb612 O630 2.513 . S
C613 O617 1.251 . S
C613 O619 1.227 1_455 S
Tb614 O616 2.343 1_655 S
Tb614 O619 2.374 . S
Tb614 O622 2.427 . S
Tb614 O623 2.513 . S
Tb614 O624 2.453 . S
Tb614 O625 2.596 1_655 S
Tb614 O626 2.374 1_554 S
O615 Tb612 2.453 . S
O615 C631 1.245 . S
O616 Tb612 2.596 . S
O616 Tb614 2.343 1_455 S
O616 C631 1.259 . S
O617 Tb612 2.374 . S
O617 C613 1.251 . S
C618 O622 1.275 . S
C618 O623 1.246 . S
O619 C613 1.227 1_655 S
O619 Tb614 2.374 . S
C620 O624 1.245 1_456 S
C620 O625 1.259 1_556 S
C621 O626 1.250 1_455 S
C621 O627 1.263 . S
O622 Tb614 2.427 . S
O622 C618 1.275 . S
O623 Tb614 2.513 . S
O623 C618 1.246 . S
O624 Tb614 2.453 . S
O624 C620 1.245 1_654 S
O625 Tb612 2.343 . S
O625 Tb614 2.596 1_455 S
O625 C620 1.259 1_554 S
O626 Tb614 2.374 1_556 S
O626 C621 1.250 1_655 S
O627 Tb612 2.353 1_556 S
O627 C621 1.263 . S
C628 O629 1.275 . S
C628 O630 1.246 1_556 S
O629 Tb612 2.427 1_556 S
O629 C628 1.275 . S
O630 Tb612 2.513 . S
O630 C628 1.246 1_554 S
C631 O615 1.245 . S
C631 O616 1.259 . S
H632 C638 0.930 . S
H633 C642 0.930 1_554 S
H634 C647 0.929 . S
H635 C645 0.929 . S
H636 C640 0.929 . S
H637 C646 0.929 . S
C638 H632 0.930 . S
C638 C639 1.367 . S
C638 C646 1.378 . S
C639 C638 1.367 . S
C639 C647 1.433 1_455 S
C640 H636 0.929 . S
C640 C642 1.378 . S
C640 C644 1.350 1_655 S
C641 C644 1.463 . S
C641 C646 1.350 . S
C641 N649 1.427 1_455 S
C642 H633 0.930 1_556 S
C642 C640 1.378 . S
C642 C643 1.367 1_655 S
C643 C642 1.367 1_455 S
C643 C645 1.433 . S
C644 C640 1.350 1_455 S
C644 C641 1.463 . S
C644 N648 1.427 . S
C645 H635 0.929 . S
C645 C643 1.433 . S
C645 N648 1.384 . S
C646 H637 0.929 . S
C646 C638 1.378 . S
C646 C641 1.350 . S
C647 H634 0.929 . S
C647 C639 1.433 1_655 S
C647 N649 1.384 . S
N648 C644 1.427 . S
N648 C645 1.384 . S
N649 C641 1.427 1_655 S
N649 C647 1.384 . S
H650 C656 0.930 . S
H651 C660 0.930 . S
H652 C665 0.929 . S
H653 C663 0.929 . S
H654 C658 0.929 . S
H655 C664 0.929 . S
C656 H650 0.930 . S
C656 C657 1.367 . S
C656 C664 1.378 . S
C657 C656 1.367 . S
C657 C665 1.433 . S
C658 H654 0.929 . S
C658 C660 1.378 . S
C658 C662 1.350 . S
C659 C662 1.463 . S
C659 C664 1.350 . S
C659 N667 1.427 . S
C660 H651 0.930 . S
C660 C658 1.378 . S
C660 C661 1.367 . S
C661 C660 1.367 . S
C661 C663 1.433 . S
C662 C658 1.350 . S
C662 C659 1.463 . S
C662 N666 1.427 . S
C663 H653 0.929 . S
C663 C661 1.433 . S
C663 N666 1.384 . S
C664 H655 0.929 . S
C664 C656 1.378 . S
C664 C659 1.350 . S
C665 H652 0.929 . S
C665 C657 1.433 . S
C665 N667 1.384 . S
N666 C662 1.427 . S
N666 C663 1.384 . S
N667 C659 1.427 . S
N667 C665 1.384 . S
H668 C674 0.930 . S
H669 C678 0.930 . S
H670 C683 0.929 . S
H671 C681 0.929 . S
H672 C676 0.929 . S
H673 C682 0.929 . S
C674 H668 0.930 . S
C674 C675 1.367 . S
C674 C682 1.378 . S
C675 C674 1.367 . S
C675 C683 1.433 . S
C676 H672 0.929 . S
C676 C678 1.378 . S
C676 C680 1.350 . S
C677 C680 1.463 . S
C677 C682 1.350 . S
C677 N685 1.427 . S
C678 H669 0.930 . S
C678 C676 1.378 . S
C678 C679 1.367 . S
C679 C678 1.367 . S
C679 C681 1.433 . S
C680 C676 1.350 . S
C680 C677 1.463 . S
C680 N684 1.427 . S
C681 H671 0.929 . S
C681 C679 1.433 . S
C681 N684 1.384 . S
C682 H673 0.929 . S
C682 C674 1.378 . S
C682 C677 1.350 . S
C683 H670 0.929 . S
C683 C675 1.433 . S
C683 N685 1.384 . S
N684 C680 1.427 . S
N684 C681 1.384 . S
N685 C677 1.427 . S
N685 C683 1.384 . S
H686 C692 0.930 . S
H687 C696 0.930 . S
H688 C701 0.929 . S
H689 C699 0.929 . S
H690 C694 0.929 . S
H691 C700 0.929 . S
C692 H686 0.930 . S
C692 C693 1.367 . S
C692 C700 1.378 . S
C693 C692 1.367 . S
C693 C701 1.433 . S
C694 H690 0.929 . S
C694 C696 1.378 . S
C694 C698 1.350 . S
C695 C698 1.463 . S
C695 C700 1.350 . S
C695 N703 1.427 . S
C696 H687 0.930 . S
C696 C694 1.378 . S
C696 C697 1.367 . S
C697 C696 1.367 . S
C697 C699 1.433 . S
C698 C694 1.350 . S
C698 C695 1.463 . S
C698 N702 1.427 . S
C699 H689 0.929 . S
C699 C697 1.433 . S
C699 N702 1.384 . S
C700 H691 0.929 . S
C700 C692 1.378 . S
C700 C695 1.350 . S
C701 H688 0.929 . S
C701 C693 1.433 . S
C701 N703 1.384 . S
N702 C698 1.427 . S
N702 C699 1.384 . S
N703 C695 1.427 . S
N703 C701 1.384 . S
H704 C710 0.930 . S
H705 C714 0.930 1_655 S
H706 C719 0.929 . S
H707 C717 0.929 . S
H708 C712 0.928 1_655 S
H709 C718 0.929 . S
C710 H704 0.930 . S
C710 C711 1.367 . S
C710 C718 1.378 . S
C711 C710 1.367 . S
C711 C719 1.433 1_455 S
C712 H708 0.928 1_455 S
C712 C714 1.377 . S
C712 C716 1.352 . S
C713 C716 1.463 . S
C713 C718 1.350 . S
C713 N721 1.427 1_455 S
C714 H705 0.930 1_455 S
C714 C712 1.377 . S
C714 C715 1.367 . S
C715 C714 1.367 . S
C715 C717 1.433 . S
C716 C712 1.352 . S
C716 C713 1.463 . S
C716 N720 1.427 . S
C717 H707 0.929 . S
C717 C715 1.433 . S
C717 N720 1.384 . S
C718 H709 0.929 . S
C718 C710 1.378 . S
C718 C713 1.350 . S
C719 H706 0.929 . S
C719 C711 1.433 1_655 S
C719 N721 1.384 . S
N720 C716 1.427 . S
N720 C717 1.384 . S
N721 C713 1.427 1_655 S
N721 C719 1.384 . S
H722 C728 0.930 . S
H723 C732 0.930 . S
H724 C737 0.929 . S
H725 C735 0.929 . S
H726 C730 0.929 . S
H727 C736 0.929 . S
C728 H722 0.930 . S
C728 C729 1.367 . S
C728 C736 1.378 . S
C729 C728 1.367 . S
C729 C737 1.433 . S
C730 H726 0.929 . S
C730 C732 1.378 . S
C730 C734 1.350 . S
C731 C734 1.463 . S
C731 C736 1.350 . S
C731 N739 1.427 . S
C732 H723 0.930 . S
C732 C730 1.378 . S
C732 C733 1.367 . S
C733 C732 1.367 . S
C733 C735 1.433 . S
C734 C730 1.350 . S
C734 C731 1.463 . S
C734 N738 1.427 . S
C735 H725 0.929 . S
C735 C733 1.433 . S
C735 N738 1.384 . S
C736 H727 0.929 . S
C736 C728 1.378 . S
C736 C731 1.350 . S
C737 H724 0.929 . S
C737 C729 1.433 . S
C737 N739 1.384 . S
N738 C734 1.427 . S
N738 C735 1.384 . S
N739 C731 1.427 . S
N739 C737 1.384 . S
H740 C746 0.930 . S
H741 C750 0.930 . S
H742 C755 0.929 . S
H743 C753 0.929 . S
H744 C748 0.929 . S
H745 C754 0.929 . S
C746 H740 0.930 . S
C746 C747 1.367 . S
C746 C754 1.378 . S
C747 C746 1.367 . S
C747 C755 1.433 . S
C748 H744 0.929 . S
C748 C750 1.378 . S
C748 C752 1.350 . S
C749 C752 1.463 . S
C749 C754 1.350 . S
C749 N757 1.427 . S
C750 H741 0.930 . S
C750 C748 1.378 . S
C750 C751 1.367 . S
C751 C750 1.367 . S
C751 C753 1.433 . S
C752 C748 1.350 . S
C752 C749 1.463 . S
C752 N756 1.427 . S
C753 H743 0.929 . S
C753 C751 1.433 . S
C753 N756 1.384 . S
C754 H745 0.929 . S
C754 C746 1.378 . S
C754 C749 1.350 . S
C755 H742 0.929 . S
C755 C747 1.433 . S
C755 N757 1.384 . S
N756 C752 1.427 . S
N756 C753 1.384 . S
N757 C749 1.427 . S
N757 C755 1.384 . S
H758 C764 0.930 . S
H759 C768 0.930 . S
H760 C773 0.929 . S
H761 C771 0.929 . S
H762 C766 0.929 . S
H763 C772 0.929 . S
C764 H758 0.930 . S
C764 C765 1.367 . S
C764 C772 1.378 . S
C765 C764 1.367 . S
C765 C773 1.433 . S
C766 H762 0.929 . S
C766 C768 1.378 . S
C766 C770 1.350 . S
C767 C770 1.463 . S
C767 C772 1.350 . S
C767 N775 1.427 . S
C768 H759 0.930 . S
C768 C766 1.378 . S
C768 C769 1.367 . S
C769 C768 1.367 . S
C769 C771 1.433 . S
C770 C766 1.350 . S
C770 C767 1.463 . S
C770 N774 1.427 . S
C771 H761 0.929 . S
C771 C769 1.433 . S
C771 N774 1.384 . S
C772 H763 0.929 . S
C772 C764 1.378 . S
C772 C767 1.350 . S
C773 H760 0.929 . S
C773 C765 1.433 . S
C773 N775 1.384 . S
N774 C770 1.427 . S
N774 C771 1.384 . S
N775 C767 1.427 . S
N775 C773 1.384 . S
H776 C782 0.930 . S
H777 C786 0.930 . S
H778 C791 0.929 . S
H779 C789 0.929 . S
H780 C784 0.929 . S
H781 C790 0.929 . S
C782 H776 0.930 . S
C782 C783 1.367 . S
C782 C790 1.378 . S
C783 C782 1.367 . S
C783 C791 1.433 . S
C784 H780 0.929 . S
C784 C786 1.378 . S
C784 C788 1.350 . S
C785 C788 1.463 . S
C785 C790 1.350 . S
C785 N793 1.427 . S
C786 H777 0.930 . S
C786 C784 1.378 . S
C786 C787 1.367 . S
C787 C786 1.367 . S
C787 C789 1.433 . S
C788 C784 1.350 . S
C788 C785 1.463 . S
C788 N792 1.427 . S
C789 H779 0.929 . S
C789 C787 1.433 . S
C789 N792 1.384 . S
C790 H781 0.929 . S
C790 C782 1.378 . S
C790 C785 1.350 . S
C791 H778 0.929 . S
C791 C783 1.433 . S
C791 N793 1.384 . S
N792 C788 1.427 . S
N792 C789 1.384 . S
N793 C785 1.427 . S
N793 C791 1.384 . S
H794 C800 0.930 . S
H795 C804 0.930 . S
H796 C809 0.929 . S
H797 C807 0.929 . S
H798 C802 0.929 . S
H799 C808 0.929 . S
C800 H794 0.930 . S
C800 C801 1.367 . S
C800 C808 1.378 . S
C801 C800 1.367 . S
C801 C809 1.433 . S
C802 H798 0.929 . S
C802 C804 1.378 . S
C802 C806 1.350 . S
C803 C806 1.463 . S
C803 C808 1.350 . S
C803 N811 1.427 . S
C804 H795 0.930 . S
C804 C802 1.378 . S
C804 C805 1.367 . S
C805 C804 1.367 . S
C805 C807 1.433 . S
C806 C802 1.350 . S
C806 C803 1.463 . S
C806 N810 1.427 . S
C807 H797 0.929 . S
C807 C805 1.433 . S
C807 N810 1.384 . S
C808 H799 0.929 . S
C808 C800 1.378 . S
C808 C803 1.350 . S
C809 H796 0.929 . S
C809 C801 1.433 . S
C809 N811 1.384 . S
N810 C806 1.427 . S
N810 C807 1.384 . S
N811 C803 1.427 . S
N811 C809 1.384 . S
H812 C818 0.930 . S
H813 C822 0.930 . S
H814 C827 0.929 . S
H815 C825 0.929 . S
H816 C820 0.929 . S
H817 C826 0.929 . S
C818 H812 0.930 . S
C818 C819 1.367 . S
C818 C826 1.378 . S
C819 C818 1.367 . S
C819 C827 1.433 . S
C820 H816 0.929 . S
C820 C822 1.378 . S
C820 C824 1.350 . S
C821 C824 1.463 . S
C821 C826 1.350 . S
C821 N829 1.427 . S
C822 H813 0.930 . S
C822 C820 1.378 . S
C822 C823 1.367 . S
C823 C822 1.367 . S
C823 C825 1.433 . S
C824 C820 1.350 . S
C824 C821 1.463 . S
C824 N828 1.427 . S
C825 H815 0.929 . S
C825 C823 1.433 . S
C825 N828 1.384 . S
C826 H817 0.929 . S
C826 C818 1.378 . S
C826 C821 1.350 . S
C827 H814 0.929 . S
C827 C819 1.433 . S
C827 N829 1.384 . S
N828 C824 1.427 . S
N828 C825 1.384 . S
N829 C821 1.427 . S
N829 C827 1.384 . S
H830 C836 0.930 . S
H831 C840 0.930 . S
H832 C845 0.929 . S
H833 C843 0.929 . S
H834 C838 0.929 . S
H835 C844 0.929 . S
C836 H830 0.930 . S
C836 C837 1.367 . S
C836 C844 1.378 . S
C837 C836 1.367 . S
C837 C845 1.433 . S
C838 H834 0.929 . S
C838 C840 1.378 . S
C838 C842 1.350 . S
C839 C842 1.463 . S
C839 C844 1.350 . S
C839 N847 1.427 . S
C840 H831 0.930 . S
C840 C838 1.378 . S
C840 C841 1.367 . S
C841 C840 1.367 . S
C841 C843 1.433 . S
C842 C838 1.350 . S
C842 C839 1.463 . S
C842 N846 1.427 . S
C843 H833 0.929 . S
C843 C841 1.433 . S
C843 N846 1.384 . S
C844 H835 0.929 . S
C844 C836 1.378 . S
C844 C839 1.350 . S
C845 H832 0.929 . S
C845 C837 1.433 . S
C845 N847 1.384 . S
N846 C842 1.427 . S
N846 C843 1.384 . S
N847 C839 1.427 . S
N847 C845 1.384 . S
H848 C854 0.930 . S
H849 C858 0.930 1_455 S
H850 C863 0.929 . S
H851 C861 0.929 . S
H852 C856 0.929 . S
H853 C862 0.929 . S
C854 H848 0.930 . S
C854 C855 1.367 . S
C854 C862 1.378 . S
C855 C854 1.367 . S
C855 C863 1.433 . S
C856 H852 0.929 . S
C856 C858 1.378 . S
C856 C860 1.350 . S
C857 C860 1.463 . S
C857 C862 1.350 . S
C857 N865 1.427 . S
C858 H849 0.930 1_655 S
C858 C856 1.378 . S
C858 C859 1.367 . S
C859 C858 1.367 . S
C859 C861 1.433 . S
C860 C856 1.350 . S
C860 C857 1.463 . S
C860 N864 1.427 . S
C861 H851 0.929 . S
C861 C859 1.433 . S
C861 N864 1.384 . S
C862 H853 0.929 . S
C862 C854 1.378 . S
C862 C857 1.350 . S
C863 H850 0.929 . S
C863 C855 1.433 . S
C863 N865 1.384 . S
N864 C860 1.427 . S
N864 C861 1.384 . S
N865 C857 1.427 . S
N865 C863 1.384 . S
H866 C872 0.930 . S
H867 C876 0.930 . S
H868 C881 0.929 . S
H869 C879 0.929 . S
H870 C874 0.929 . S
H871 C880 0.929 . S
C872 H866 0.930 . S
C872 C873 1.367 . S
C872 C880 1.378 . S
C873 C872 1.367 . S
C873 C881 1.433 . S
C874 H870 0.929 . S
C874 C876 1.378 . S
C874 C878 1.350 . S
C875 C878 1.463 . S
C875 C880 1.350 . S
C875 N883 1.427 . S
C876 H867 0.930 . S
C876 C874 1.378 . S
C876 C877 1.367 . S
C877 C876 1.367 . S
C877 C879 1.433 . S
C878 C874 1.350 . S
C878 C875 1.463 . S
C878 N882 1.427 . S
C879 H869 0.929 . S
C879 C877 1.433 . S
C879 N882 1.384 . S
C880 H871 0.929 . S
C880 C872 1.378 . S
C880 C875 1.350 . S
C881 H868 0.929 . S
C881 C873 1.433 . S
C881 N883 1.384 . S
N882 C878 1.427 . S
N882 C879 1.384 . S
N883 C875 1.427 . S
N883 C881 1.384 . S
H884 C890 0.951 . S
H885 C894 0.930 . S
H886 C899 0.929 . S
H887 C897 0.929 . S
H888 C892 0.929 . S
H889 C898 0.929 1_565 S
C890 H884 0.951 . S
C890 C891 1.351 1_565 S
C890 C898 1.373 1_565 S
C891 C890 1.351 1_545 S
C891 C899 1.433 . S
C892 H888 0.929 . S
C892 C894 1.378 . S
C892 C896 1.350 . S
C893 C896 1.463 . S
C893 C898 1.350 . S
C893 N901 1.427 . S
C894 H885 0.930 . S
C894 C892 1.378 . S
C894 C895 1.367 . S
C895 C894 1.367 . S
C895 C897 1.433 . S
C896 C892 1.350 . S
C896 C893 1.463 . S
C896 N900 1.427 . S
C897 H887 0.929 . S
C897 C895 1.433 . S
C897 N900 1.384 . S
C898 H889 0.929 1_545 S
C898 C890 1.373 1_545 S
C898 C893 1.350 . S
C899 H886 0.929 . S
C899 C891 1.433 . S
C899 N901 1.384 . S
N900 C896 1.427 . S
N900 C897 1.384 . S
N901 C893 1.427 . S
N901 C899 1.384 . S
H902 C908 0.930 . S
H903 C912 0.930 . S
H904 C917 0.929 . S
H905 C915 0.929 . S
H906 C910 0.929 . S
H907 C916 0.929 . S
C908 H902 0.930 . S
C908 C909 1.367 . S
C908 C916 1.378 . S
C909 C908 1.367 . S
C909 C917 1.433 . S
C910 H906 0.929 . S
C910 C912 1.378 . S
C910 C914 1.350 . S
C911 C914 1.463 . S
C911 C916 1.350 . S
C911 N919 1.427 . S
C912 H903 0.930 . S
C912 C910 1.378 . S
C912 C913 1.367 . S
C913 C912 1.367 . S
C913 C915 1.433 . S
C914 C910 1.350 . S
C914 C911 1.463 . S
C914 N918 1.427 . S
C915 H905 0.929 . S
C915 C913 1.433 . S
C915 N918 1.384 . S
C916 H907 0.929 . S
C916 C908 1.378 . S
C916 C911 1.350 . S
C917 H904 0.929 . S
C917 C909 1.433 . S
C917 N919 1.384 . S
N918 C914 1.427 . S
N918 C915 1.384 . S
N919 C911 1.427 . S
N919 C917 1.384 . S
H920 C926 0.930 1_556 S
H921 C930 0.927 1_545 S
H922 C935 0.929 . S
H923 C933 0.929 1_556 S
H924 C928 0.929 . S
H925 C934 0.929 1_556 S
C926 H920 0.930 1_554 S
C926 C927 1.367 . S
C926 C934 1.378 . S
C927 C926 1.367 . S
C927 C935 1.433 . S
C928 H924 0.929 . S
C928 C930 1.378 . S
C928 C932 1.350 . S
C929 C932 1.463 . S
C929 C934 1.350 . S
C929 N937 1.427 . S
C930 H921 0.927 1_565 S
C930 C928 1.378 . S
C930 C931 1.367 . S
C931 C930 1.367 . S
C931 C933 1.433 . S
C932 C928 1.350 . S
C932 C929 1.463 . S
C932 N936 1.427 . S
C933 H923 0.929 1_554 S
C933 C931 1.433 . S
C933 N936 1.384 . S
C934 H925 0.929 1_554 S
C934 C926 1.378 . S
C934 C929 1.350 . S
C935 H922 0.929 . S
C935 C927 1.433 . S
C935 N937 1.384 . S
N936 C932 1.427 . S
N936 C933 1.384 . S
N937 C929 1.427 . S
N937 C935 1.384 . S
H938 C944 0.930 . S
H939 C948 0.930 . S
H940 C953 0.929 . S
H941 C951 0.929 . S
H942 C946 0.929 . S
H943 C952 0.929 . S
C944 H938 0.930 . S
C944 C945 1.367 . S
C944 C952 1.378 . S
C945 C944 1.367 . S
C945 C953 1.433 1_556 S
C946 H942 0.929 . S
C946 C948 1.378 . S
C946 C950 1.350 . S
C947 C950 1.471 . S
C947 C952 1.336 1_554 S
C947 N955 1.435 . S
C948 H939 0.930 . S
C948 C946 1.378 . S
C948 C949 1.367 . S
C949 C948 1.367 . S
C949 C951 1.433 1_554 S
C950 C946 1.350 . S
C950 C947 1.471 . S
C950 N954 1.427 1_554 S
C951 H941 0.929 . S
C951 C949 1.433 1_556 S
C951 N954 1.384 . S
C952 H943 0.929 . S
C952 C944 1.378 . S
C952 C947 1.336 1_556 S
C953 H940 0.929 . S
C953 C945 1.433 1_554 S
C953 N955 1.384 . S
N954 C950 1.427 1_556 S
N954 C951 1.384 . S
N955 C947 1.435 . S
N955 C953 1.384 . S
H956 C962 0.930 . S
H957 C966 0.930 . S
H958 C971 0.929 . S
H959 C969 0.929 . S
H960 C964 0.929 . S
H961 C970 0.929 . S
C962 H956 0.930 . S
C962 C963 1.367 . S
C962 C970 1.378 . S
C963 C962 1.367 . S
C963 C971 1.433 . S
C964 H960 0.929 . S
C964 C966 1.378 . S
C964 C968 1.350 . S
C965 C968 1.463 . S
C965 C970 1.350 . S
C965 N973 1.427 . S
C966 H957 0.930 . S
C966 C964 1.378 . S
C966 C967 1.367 . S
C967 C966 1.367 . S
C967 C969 1.433 . S
C968 C964 1.350 . S
C968 C965 1.463 . S
C968 N972 1.427 . S
C969 H959 0.929 . S
C969 C967 1.433 . S
C969 N972 1.384 . S
C970 H961 0.929 . S
C970 C962 1.378 . S
C970 C965 1.350 . S
C971 H958 0.929 . S
C971 C963 1.433 . S
C971 N973 1.384 . S
N972 C968 1.427 . S
N972 C969 1.384 . S
N973 C965 1.427 . S
N973 C971 1.384 . S
H974 C980 0.930 . S
H975 C984 0.930 . S
H976 C989 0.929 . S
H977 C987 0.929 . S
H978 C982 0.929 . S
H979 C988 0.929 . S
C980 H974 0.930 . S
C980 C981 1.367 . S
C980 C988 1.378 . S
C981 C980 1.367 . S
C981 C989 1.433 . S
C982 H978 0.929 . S
C982 C984 1.378 . S
C982 C986 1.350 . S
C983 C986 1.463 . S
C983 C988 1.350 . S
C983 N991 1.427 . S
C984 H975 0.930 . S
C984 C982 1.378 . S
C984 C985 1.367 . S
C985 C984 1.367 . S
C985 C987 1.433 . S
C986 C982 1.350 . S
C986 C983 1.463 . S
C986 N990 1.427 . S
C987 H977 0.929 . S
C987 C985 1.433 . S
C987 N990 1.384 . S
C988 H979 0.929 . S
C988 C980 1.378 . S
C988 C983 1.350 . S
C989 H976 0.929 . S
C989 C981 1.433 . S
C989 N991 1.384 . S
N990 C986 1.427 . S
N990 C987 1.384 . S
N991 C983 1.427 . S
N991 C989 1.384 . S
H992 C998 0.930 . S
H993 C1002 0.930 . S
H994 C1007 0.929 . S
H995 C1005 0.929 . S
H996 C1000 0.929 . S
H997 C1006 0.929 . S
C998 H992 0.930 . S
C998 C999 1.367 . S
C998 C1006 1.378 . S
C999 C998 1.367 . S
C999 C1007 1.433 . S
C1000 H996 0.929 . S
C1000 C1002 1.378 . S
C1000 C1004 1.350 . S
C1001 C1004 1.463 . S
C1001 C1006 1.350 . S
C1001 N1009 1.427 . S
C1002 H993 0.930 . S
C1002 C1000 1.378 . S
C1002 C1003 1.367 . S
C1003 C1002 1.367 . S
C1003 C1005 1.433 . S
C1004 C1000 1.350 . S
C1004 C1001 1.463 . S
C1004 N1008 1.427 . S
C1005 H995 0.929 . S
C1005 C1003 1.433 . S
C1005 N1008 1.384 . S
C1006 H997 0.929 . S
C1006 C998 1.378 . S
C1006 C1001 1.350 . S
C1007 H994 0.929 . S
C1007 C999 1.433 . S
C1007 N1009 1.384 . S
N1008 C1004 1.427 . S
N1008 C1005 1.384 . S
N1009 C1001 1.427 . S
N1009 C1007 1.384 . S
H1010 C1016 0.930 . S
H1011 C1020 0.930 . S
H1012 C1025 0.929 . S
H1013 C1023 0.929 . S
H1014 C1018 0.929 . S
H1015 C1024 0.929 . S
C1016 H1010 0.930 . S
C1016 C1017 1.367 . S
C1016 C1024 1.378 . S
C1017 C1016 1.367 . S
C1017 C1025 1.433 . S
C1018 H1014 0.929 . S
C1018 C1020 1.378 . S
C1018 C1022 1.350 . S
C1019 C1022 1.463 . S
C1019 C1024 1.350 . S
C1019 N1027 1.427 . S
C1020 H1011 0.930 . S
C1020 C1018 1.378 . S
C1020 C1021 1.367 . S
C1021 C1020 1.367 . S
C1021 C1023 1.433 . S
C1022 C1018 1.350 . S
C1022 C1019 1.463 . S
C1022 N1026 1.427 . S
C1023 H1013 0.929 . S
C1023 C1021 1.433 . S
C1023 N1026 1.384 . S
C1024 H1015 0.929 . S
C1024 C1016 1.378 . S
C1024 C1019 1.350 . S
C1025 H1012 0.929 . S
C1025 C1017 1.433 . S
C1025 N1027 1.384 . S
N1026 C1022 1.427 . S
N1026 C1023 1.384 . S
N1027 C1019 1.427 . S
N1027 C1025 1.384 . S
H1028 C1034 0.930 . S
H1029 C1038 0.930 . S
H1030 C1043 0.929 . S
H1031 C1041 0.929 . S
H1032 C1036 0.929 . S
H1033 C1042 0.929 . S
C1034 H1028 0.930 . S
C1034 C1035 1.367 . S
C1034 C1042 1.378 . S
C1035 C1034 1.367 . S
C1035 C1043 1.433 . S
C1036 H1032 0.929 . S
C1036 C1038 1.378 . S
C1036 C1040 1.350 . S
C1037 C1040 1.463 . S
C1037 C1042 1.350 . S
C1037 N1045 1.427 . S
C1038 H1029 0.930 . S
C1038 C1036 1.378 . S
C1038 C1039 1.367 . S
C1039 C1038 1.367 . S
C1039 C1041 1.433 . S
C1040 C1036 1.350 . S
C1040 C1037 1.463 . S
C1040 N1044 1.427 . S
C1041 H1031 0.929 . S
C1041 C1039 1.433 . S
C1041 N1044 1.384 . S
C1042 H1033 0.929 . S
C1042 C1034 1.378 . S
C1042 C1037 1.350 . S
C1043 H1030 0.929 . S
C1043 C1035 1.433 . S
C1043 N1045 1.384 . S
N1044 C1040 1.427 . S
N1044 C1041 1.384 . S
N1045 C1037 1.427 . S
N1045 C1043 1.384 . S
H1046 C1052 0.930 . S
H1047 C1056 0.930 . S
H1048 C1061 0.929 . S
H1049 C1059 0.929 . S
H1050 C1054 0.929 . S
H1051 C1060 0.929 . S
C1052 H1046 0.930 . S
C1052 C1053 1.367 . S
C1052 C1060 1.378 . S
C1053 C1052 1.367 . S
C1053 C1061 1.433 . S
C1054 H1050 0.929 . S
C1054 C1056 1.378 . S
C1054 C1058 1.350 . S
C1055 C1058 1.463 . S
C1055 C1060 1.350 . S
C1055 N1063 1.427 . S
C1056 H1047 0.930 . S
C1056 C1054 1.378 . S
C1056 C1057 1.367 . S
C1057 C1056 1.367 . S
C1057 C1059 1.433 . S
C1058 C1054 1.350 . S
C1058 C1055 1.463 . S
C1058 N1062 1.427 . S
C1059 H1049 0.929 . S
C1059 C1057 1.433 . S
C1059 N1062 1.384 . S
C1060 H1051 0.929 . S
C1060 C1052 1.378 . S
C1060 C1055 1.350 . S
C1061 H1048 0.929 . S
C1061 C1053 1.433 . S
C1061 N1063 1.384 . S
N1062 C1058 1.427 . S
N1062 C1059 1.384 . S
N1063 C1055 1.427 . S
N1063 C1061 1.384 . S
H1064 C1070 0.930 . S
H1065 C1074 0.930 . S
H1066 C1079 0.929 . S
H1067 C1077 0.929 . S
H1068 C1072 0.929 . S
H1069 C1078 0.929 . S
C1070 H1064 0.930 . S
C1070 C1071 1.367 1_655 S
C1070 C1078 1.378 . S
C1071 C1070 1.367 1_455 S
C1071 C1079 1.433 . S
C1072 H1068 0.929 . S
C1072 C1074 1.378 . S
C1072 C1076 1.350 . S
C1073 C1076 1.463 . S
C1073 C1078 1.350 1_455 S
C1073 N1081 1.427 . S
C1074 H1065 0.930 . S
C1074 C1072 1.378 . S
C1074 C1075 1.367 . S
C1075 C1074 1.367 . S
C1075 C1077 1.433 1_455 S
C1076 C1072 1.350 . S
C1076 C1073 1.463 . S
C1076 N1080 1.427 1_455 S
C1077 H1067 0.929 . S
C1077 C1075 1.433 1_655 S
C1077 N1080 1.384 . S
C1078 H1069 0.929 . S
C1078 C1070 1.378 . S
C1078 C1073 1.350 1_655 S
C1079 H1066 0.929 . S
C1079 C1071 1.433 . S
C1079 N1081 1.384 . S
N1080 C1076 1.427 1_655 S
N1080 C1077 1.384 . S
N1081 C1073 1.427 . S
N1081 C1079 1.384 . S
H1082 C1088 0.930 . S
H1083 C1092 0.930 . S
H1084 C1097 0.929 . S
H1085 C1095 0.929 . S
H1086 C1090 0.929 . S
H1087 C1096 0.929 . S
C1088 H1082 0.930 . S
C1088 C1089 1.367 . S
C1088 C1096 1.378 . S
C1089 C1088 1.367 . S
C1089 C1097 1.433 . S
C1090 H1086 0.929 . S
C1090 C1092 1.378 . S
C1090 C1094 1.350 . S
C1091 C1094 1.463 . S
C1091 C1096 1.350 . S
C1091 N1099 1.427 . S
C1092 H1083 0.930 . S
C1092 C1090 1.378 . S
C1092 C1093 1.367 . S
C1093 C1092 1.367 . S
C1093 C1095 1.433 . S
C1094 C1090 1.350 . S
C1094 C1091 1.463 . S
C1094 N1098 1.427 . S
C1095 H1085 0.929 . S
C1095 C1093 1.433 . S
C1095 N1098 1.384 . S
C1096 H1087 0.929 . S
C1096 C1088 1.378 . S
C1096 C1091 1.350 . S
C1097 H1084 0.929 . S
C1097 C1089 1.433 . S
C1097 N1099 1.384 . S
N1098 C1094 1.427 . S
N1098 C1095 1.384 . S
N1099 C1091 1.427 . S
N1099 C1097 1.384 . S
H1100 C1106 0.930 . S
H1101 C1110 0.930 . S
H1102 C1115 0.929 . S
H1103 C1113 0.929 . S
H1104 C1108 0.929 . S
H1105 C1114 0.929 . S
C1106 H1100 0.930 . S
C1106 C1107 1.367 . S
C1106 C1114 1.378 . S
C1107 C1106 1.367 . S
C1107 C1115 1.433 . S
C1108 H1104 0.929 . S
C1108 C1110 1.378 . S
C1108 C1112 1.350 . S
C1109 C1112 1.463 . S
C1109 C1114 1.350 . S
C1109 N1117 1.427 . S
C1110 H1101 0.930 . S
C1110 C1108 1.378 . S
C1110 C1111 1.367 . S
C1111 C1110 1.367 . S
C1111 C1113 1.433 . S
C1112 C1108 1.350 . S
C1112 C1109 1.463 . S
C1112 N1116 1.427 . S
C1113 H1103 0.929 . S
C1113 C1111 1.433 . S
C1113 N1116 1.384 . S
C1114 H1105 0.929 . S
C1114 C1106 1.378 . S
C1114 C1109 1.350 . S
C1115 H1102 0.929 . S
C1115 C1107 1.433 . S
C1115 N1117 1.384 . S
N1116 C1112 1.427 . S
N1116 C1113 1.384 . S
N1117 C1109 1.427 . S
N1117 C1115 1.384 . S
H1118 C1124 0.930 . S
H1119 C1128 0.930 . S
H1120 C1133 0.929 . S
H1121 C1131 0.929 . S
H1122 C1126 0.929 . S
H1123 C1132 0.929 . S
C1124 H1118 0.930 . S
C1124 C1125 1.367 . S
C1124 C1132 1.378 . S
C1125 C1124 1.367 . S
C1125 C1133 1.433 . S
C1126 H1122 0.929 . S
C1126 C1128 1.378 . S
C1126 C1130 1.350 . S
C1127 C1130 1.463 . S
C1127 C1132 1.350 . S
C1127 N1135 1.427 . S
C1128 H1119 0.930 . S
C1128 C1126 1.378 . S
C1128 C1129 1.367 . S
C1129 C1128 1.367 . S
C1129 C1131 1.433 . S
C1130 C1126 1.350 . S
C1130 C1127 1.463 . S
C1130 N1134 1.427 . S
C1131 H1121 0.929 . S
C1131 C1129 1.433 . S
C1131 N1134 1.384 . S
C1132 H1123 0.929 . S
C1132 C1124 1.378 . S
C1132 C1127 1.350 . S
C1133 H1120 0.929 . S
C1133 C1125 1.433 . S
C1133 N1135 1.384 . S
N1134 C1130 1.427 . S
N1134 C1131 1.384 . S
N1135 C1127 1.427 . S
N1135 C1133 1.384 . S
H1136 C1142 0.934 . S
H1137 C1146 0.930 . S
H1138 C1151 0.929 . S
H1139 C1149 0.929 . S
H1140 C1144 0.929 . S
H1141 C1150 0.929 . S
C1142 H1136 0.934 . S
C1142 C1143 1.364 1_655 S
C1142 C1150 1.378 . S
C1143 C1142 1.364 1_455 S
C1143 C1151 1.433 . S
C1144 H1140 0.929 . S
C1144 C1146 1.378 . S
C1144 C1148 1.350 . S
C1145 C1148 1.463 . S
C1145 C1150 1.350 1_455 S
C1145 N1153 1.427 . S
C1146 H1137 0.930 . S
C1146 C1144 1.378 . S
C1146 C1147 1.367 . S
C1147 C1146 1.367 . S
C1147 C1149 1.433 1_455 S
C1148 C1144 1.350 . S
C1148 C1145 1.463 . S
C1148 N1152 1.427 1_455 S
C1149 H1139 0.929 . S
C1149 C1147 1.433 1_655 S
C1149 N1152 1.384 . S
C1150 H1141 0.929 . S
C1150 C1142 1.378 . S
C1150 C1145 1.350 1_655 S
C1151 H1138 0.929 . S
C1151 C1143 1.433 . S
C1151 N1153 1.384 . S
N1152 C1148 1.427 1_655 S
N1152 C1149 1.384 . S
N1153 C1145 1.427 . S
N1153 C1151 1.384 . S
H1154 C1160 0.930 . S
H1155 C1164 0.930 . S
H1156 C1169 0.929 . S
H1157 C1167 0.929 . S
H1158 C1162 0.929 . S
H1159 C1168 0.929 . S
C1160 H1154 0.930 . S
C1160 C1161 1.367 . S
C1160 C1168 1.378 . S
C1161 C1160 1.367 . S
C1161 C1169 1.433 . S
C1162 H1158 0.929 . S
C1162 C1164 1.378 . S
C1162 C1166 1.350 . S
C1163 C1166 1.463 . S
C1163 C1168 1.350 . S
C1163 N1171 1.427 . S
C1164 H1155 0.930 . S
C1164 C1162 1.378 . S
C1164 C1165 1.367 . S
C1165 C1164 1.367 . S
C1165 C1167 1.433 . S
C1166 C1162 1.350 . S
C1166 C1163 1.463 . S
C1166 N1170 1.427 . S
C1167 H1157 0.929 . S
C1167 C1165 1.433 . S
C1167 N1170 1.384 . S
C1168 H1159 0.929 . S
C1168 C1160 1.378 . S
C1168 C1163 1.350 . S
C1169 H1156 0.929 . S
C1169 C1161 1.433 . S
C1169 N1171 1.384 . S
N1170 C1166 1.427 . S
N1170 C1167 1.384 . S
N1171 C1163 1.427 . S
N1171 C1169 1.384 . S
H1172 C1178 0.930 . S
H1173 C1182 0.930 . S
H1174 C1187 0.929 . S
H1175 C1185 0.911 1_554 S
H1176 C1180 0.929 . S
H1177 C1186 0.929 . S
C1178 H1172 0.930 . S
C1178 C1179 1.367 . S
C1178 C1186 1.378 . S
C1179 C1178 1.367 . S
C1179 C1187 1.433 . S
C1180 H1176 0.929 . S
C1180 C1182 1.378 . S
C1180 C1184 1.350 . S
C1181 C1184 1.463 . S
C1181 C1186 1.350 . S
C1181 N1189 1.427 . S
C1182 H1173 0.930 . S
C1182 C1180 1.378 . S
C1182 C1183 1.367 . S
C1183 C1182 1.367 . S
C1183 C1185 1.433 . S
C1184 C1180 1.350 . S
C1184 C1181 1.463 . S
C1184 N1188 1.427 . S
C1185 H1175 0.911 1_556 S
C1185 C1183 1.433 . S
C1185 N1188 1.384 . S
C1186 H1177 0.929 . S
C1186 C1178 1.378 . S
C1186 C1181 1.350 . S
C1187 H1174 0.929 . S
C1187 C1179 1.433 . S
C1187 N1189 1.384 . S
N1188 C1184 1.427 . S
N1188 C1185 1.384 . S
N1189 C1181 1.427 . S
N1189 C1187 1.384 . S
H1190 C1196 0.930 . S
H1191 C1200 0.930 . S
H1192 C1205 0.929 . S
H1193 C1203 0.929 . S
H1194 C1198 0.929 . S
H1195 C1204 0.929 . S
C1196 H1190 0.930 . S
C1196 C1197 1.367 . S
C1196 C1204 1.378 . S
C1197 C1196 1.367 . S
C1197 C1205 1.433 . S
C1198 H1194 0.929 . S
C1198 C1200 1.378 . S
C1198 C1202 1.350 . S
C1199 C1202 1.463 . S
C1199 C1204 1.350 . S
C1199 N1207 1.427 . S
C1200 H1191 0.930 . S
C1200 C1198 1.378 . S
C1200 C1201 1.367 . S
C1201 C1200 1.367 . S
C1201 C1203 1.433 . S
C1202 C1198 1.350 . S
C1202 C1199 1.463 . S
C1202 N1206 1.427 . S
C1203 H1193 0.929 . S
C1203 C1201 1.433 . S
C1203 N1206 1.384 . S
C1204 H1195 0.929 . S
C1204 C1196 1.378 . S
C1204 C1199 1.350 . S
C1205 H1192 0.929 . S
C1205 C1197 1.433 . S
C1205 N1207 1.384 . S
N1206 C1202 1.427 . S
N1206 C1203 1.384 . S
N1207 C1199 1.427 . S
N1207 C1205 1.384 . S
H1208 C1214 0.930 . S
H1209 C1218 0.930 . S
H1210 C1223 0.929 . S
H1211 C1221 0.929 . S
H1212 C1216 0.929 . S
H1213 C1222 0.929 . S
C1214 H1208 0.930 . S
C1214 C1215 1.367 1_545 S
C1214 C1222 1.378 . S
C1215 C1214 1.367 1_565 S
C1215 C1223 1.433 . S
C1216 H1212 0.929 . S
C1216 C1218 1.378 . S
C1216 C1220 1.350 1_565 S
C1217 C1220 1.463 . S
C1217 C1222 1.350 . S
C1217 N1225 1.427 1_545 S
C1218 H1209 0.930 . S
C1218 C1216 1.378 . S
C1218 C1219 1.367 1_565 S
C1219 C1218 1.367 1_545 S
C1219 C1221 1.433 . S
C1220 C1216 1.350 1_545 S
C1220 C1217 1.463 . S
C1220 N1224 1.427 . S
C1221 H1211 0.929 . S
C1221 C1219 1.433 . S
C1221 N1224 1.384 . S
C1222 H1213 0.929 . S
C1222 C1214 1.378 . S
C1222 C1217 1.350 . S
C1223 H1210 0.929 . S
C1223 C1215 1.433 . S
C1223 N1225 1.384 . S
N1224 C1220 1.427 . S
N1224 C1221 1.384 . S
N1225 C1217 1.427 1_565 S
N1225 C1223 1.384 . S
H1226 C1232 0.930 . S
H1227 C1236 0.930 . S
H1228 C1241 0.929 . S
H1229 C1239 0.929 . S
H1230 C1234 0.929 . S
H1231 C1240 0.929 . S
C1232 H1226 0.930 . S
C1232 C1233 1.367 . S
C1232 C1240 1.378 . S
C1233 C1232 1.367 . S
C1233 C1241 1.433 . S
C1234 H1230 0.929 . S
C1234 C1236 1.378 . S
C1234 C1238 1.350 . S
C1235 C1238 1.463 . S
C1235 C1240 1.350 . S
C1235 N1243 1.427 . S
C1236 H1227 0.930 . S
C1236 C1234 1.378 . S
C1236 C1237 1.367 . S
C1237 C1236 1.367 . S
C1237 C1239 1.433 . S
C1238 C1234 1.350 . S
C1238 C1235 1.463 . S
C1238 N1242 1.427 . S
C1239 H1229 0.929 . S
C1239 C1237 1.433 . S
C1239 N1242 1.384 . S
C1240 H1231 0.929 . S
C1240 C1232 1.378 . S
C1240 C1235 1.350 . S
C1241 H1228 0.929 . S
C1241 C1233 1.433 . S
C1241 N1243 1.384 . S
N1242 C1238 1.427 . S
N1242 C1239 1.384 . S
N1243 C1235 1.427 . S
N1243 C1241 1.384 . S
H1244 C1250 0.930 . S
H1245 C1254 0.930 . S
H1246 C1259 0.929 . S
H1247 C1257 0.929 . S
H1248 C1252 0.929 . S
H1249 C1258 0.929 . S
C1250 H1244 0.930 . S
C1250 C1251 1.367 . S
C1250 C1258 1.378 . S
C1251 C1250 1.367 . S
C1251 C1259 1.433 . S
C1252 H1248 0.929 . S
C1252 C1254 1.378 . S
C1252 C1256 1.350 . S
C1253 C1256 1.463 . S
C1253 C1258 1.350 . S
C1253 N1261 1.427 . S
C1254 H1245 0.930 . S
C1254 C1252 1.378 . S
C1254 C1255 1.367 . S
C1255 C1254 1.367 . S
C1255 C1257 1.433 . S
C1256 C1252 1.350 . S
C1256 C1253 1.463 . S
C1256 N1260 1.427 . S
C1257 H1247 0.929 . S
C1257 C1255 1.433 . S
C1257 N1260 1.384 . S
C1258 H1249 0.929 . S
C1258 C1250 1.378 . S
C1258 C1253 1.350 . S
C1259 H1246 0.929 . S
C1259 C1251 1.433 . S
C1259 N1261 1.384 . S
N1260 C1256 1.427 . S
N1260 C1257 1.384 . S
N1261 C1253 1.427 . S
N1261 C1259 1.384 . S
H1262 C1268 0.930 . S
H1263 C1272 0.930 . S
H1264 C1277 0.929 . S
H1265 C1275 0.929 . S
H1266 C1270 0.929 . S
H1267 C1276 0.929 . S
C1268 H1262 0.930 . S
C1268 C1269 1.367 . S
C1268 C1276 1.378 . S
C1269 C1268 1.367 . S
C1269 C1277 1.433 . S
C1270 H1266 0.929 . S
C1270 C1272 1.378 . S
C1270 C1274 1.350 . S
C1271 C1274 1.463 . S
C1271 C1276 1.350 . S
C1271 N1279 1.427 . S
C1272 H1263 0.930 . S
C1272 C1270 1.378 . S
C1272 C1273 1.367 . S
C1273 C1272 1.367 . S
C1273 C1275 1.433 . S
C1274 C1270 1.350 . S
C1274 C1271 1.463 . S
C1274 N1278 1.427 . S
C1275 H1265 0.929 . S
C1275 C1273 1.433 . S
C1275 N1278 1.384 . S
C1276 H1267 0.929 . S
C1276 C1268 1.378 . S
C1276 C1271 1.350 . S
C1277 H1264 0.929 . S
C1277 C1269 1.433 . S
C1277 N1279 1.384 . S
N1278 C1274 1.427 . S
N1278 C1275 1.384 . S
N1279 C1271 1.427 . S
N1279 C1277 1.384 . S
H1280 C1286 0.930 . S
H1281 C1290 0.930 . S
H1282 C1295 0.929 . S
H1283 C1293 0.932 1_565 S
H1284 C1288 0.929 . S
H1285 C1294 0.929 . S
C1286 H1280 0.930 . S
C1286 C1287 1.367 . S
C1286 C1294 1.378 . S
C1287 C1286 1.367 . S
C1287 C1295 1.433 1_565 S
C1288 H1284 0.929 . S
C1288 C1290 1.378 . S
C1288 C1292 1.350 . S
C1289 C1292 1.463 . S
C1289 C1294 1.350 1_545 S
C1289 N1297 1.427 . S
C1290 H1281 0.930 . S
C1290 C1288 1.378 . S
C1290 C1291 1.367 . S
C1291 C1290 1.367 . S
C1291 C1293 1.429 . S
C1292 C1288 1.350 . S
C1292 C1289 1.463 . S
C1292 N1296 1.427 1_545 S
C1293 H1283 0.932 1_545 S
C1293 C1291 1.429 . S
C1293 N1296 1.385 1_545 S
C1294 H1285 0.929 . S
C1294 C1286 1.378 . S
C1294 C1289 1.350 1_565 S
C1295 H1282 0.929 . S
C1295 C1287 1.433 1_545 S
C1295 N1297 1.384 . S
N1296 C1292 1.427 1_565 S
N1296 C1293 1.385 1_565 S
N1297 C1289 1.427 . S
N1297 C1295 1.384 . S
H1298 C1304 0.930 . S
H1299 C1308 0.930 . S
H1300 C1313 0.929 . S
H1301 C1311 0.929 . S
H1302 C1306 0.929 . S
H1303 C1312 0.929 . S
C1304 H1298 0.930 . S
C1304 C1305 1.367 . S
C1304 C1312 1.378 . S
C1305 C1304 1.367 . S
C1305 C1313 1.433 . S
C1306 H1302 0.929 . S
C1306 C1308 1.378 . S
C1306 C1310 1.350 . S
C1307 C1310 1.463 . S
C1307 C1312 1.350 . S
C1307 N1315 1.427 . S
C1308 H1299 0.930 . S
C1308 C1306 1.378 . S
C1308 C1309 1.367 . S
C1309 C1308 1.367 . S
C1309 C1311 1.433 . S
C1310 C1306 1.350 . S
C1310 C1307 1.463 . S
C1310 N1314 1.427 . S
C1311 H1301 0.929 . S
C1311 C1309 1.433 . S
C1311 N1314 1.384 . S
C1312 H1303 0.929 . S
C1312 C1304 1.378 . S
C1312 C1307 1.350 . S
C1313 H1300 0.929 . S
C1313 C1305 1.433 . S
C1313 N1315 1.384 . S
N1314 C1310 1.427 . S
N1314 C1311 1.384 . S
N1315 C1307 1.427 . S
N1315 C1313 1.384 . S
H1316 C1322 0.930 . S
H1317 C1326 0.930 . S
H1318 C1331 0.929 . S
H1319 C1329 0.929 . S
H1320 C1324 0.929 . S
H1321 C1330 0.929 . S
C1322 H1316 0.930 . S
C1322 C1323 1.367 . S
C1322 C1330 1.378 . S
C1323 C1322 1.367 . S
C1323 C1331 1.433 . S
C1324 H1320 0.929 . S
C1324 C1326 1.378 . S
C1324 C1328 1.350 . S
C1325 C1328 1.463 . S
C1325 C1330 1.350 . S
C1325 N1333 1.427 . S
C1326 H1317 0.930 . S
C1326 C1324 1.378 . S
C1326 C1327 1.367 . S
C1327 C1326 1.367 . S
C1327 C1329 1.433 . S
C1328 C1324 1.350 . S
C1328 C1325 1.463 . S
C1328 N1332 1.427 . S
C1329 H1319 0.929 . S
C1329 C1327 1.433 . S
C1329 N1332 1.384 . S
C1330 H1321 0.929 . S
C1330 C1322 1.378 . S
C1330 C1325 1.350 . S
C1331 H1318 0.929 . S
C1331 C1323 1.433 . S
C1331 N1333 1.384 . S
N1332 C1328 1.427 . S
N1332 C1329 1.384 . S
N1333 C1325 1.427 . S
N1333 C1331 1.384 . S
H1334 C1340 0.930 . S
H1335 C1344 0.930 . S
H1336 C1349 0.929 . S
H1337 C1347 0.929 . S
H1338 C1342 0.929 . S
H1339 C1348 0.929 . S
C1340 H1334 0.930 . S
C1340 C1341 1.367 . S
C1340 C1348 1.378 . S
C1341 C1340 1.367 . S
C1341 C1349 1.433 . S
C1342 H1338 0.929 . S
C1342 C1344 1.378 . S
C1342 C1346 1.350 . S
C1343 C1346 1.463 . S
C1343 C1348 1.350 . S
C1343 N1351 1.427 . S
C1344 H1335 0.930 . S
C1344 C1342 1.378 . S
C1344 C1345 1.367 . S
C1345 C1344 1.367 . S
C1345 C1347 1.433 . S
C1346 C1342 1.350 . S
C1346 C1343 1.463 . S
C1346 N1350 1.427 . S
C1347 H1337 0.929 . S
C1347 C1345 1.433 . S
C1347 N1350 1.384 . S
C1348 H1339 0.929 . S
C1348 C1340 1.378 . S
C1348 C1343 1.350 . S
C1349 H1336 0.929 . S
C1349 C1341 1.433 . S
C1349 N1351 1.384 . S
N1350 C1346 1.427 . S
N1350 C1347 1.384 . S
N1351 C1343 1.427 . S
N1351 C1349 1.384 . S
H1352 C1358 0.930 . S
H1353 C1362 0.930 . S
H1354 C1367 0.929 . S
H1355 C1365 0.929 . S
H1356 C1360 0.929 . S
H1357 C1366 0.929 . S
C1358 H1352 0.930 . S
C1358 C1359 1.367 . S
C1358 C1366 1.378 . S
C1359 C1358 1.367 . S
C1359 C1367 1.433 1_556 S
C1360 H1356 0.929 . S
C1360 C1362 1.378 . S
C1360 C1364 1.350 1_554 S
C1361 C1364 1.463 . S
C1361 C1366 1.350 . S
C1361 N1369 1.427 1_556 S
C1362 H1353 0.930 . S
C1362 C1360 1.378 . S
C1362 C1363 1.367 1_554 S
C1363 C1362 1.367 1_556 S
C1363 C1365 1.433 . S
C1364 C1360 1.350 1_556 S
C1364 C1361 1.463 . S
C1364 N1368 1.427 . S
C1365 H1355 0.929 . S
C1365 C1363 1.433 . S
C1365 N1368 1.384 . S
C1366 H1357 0.929 . S
C1366 C1358 1.378 . S
C1366 C1361 1.350 . S
C1367 H1354 0.929 . S
C1367 C1359 1.433 1_554 S
C1367 N1369 1.384 . S
N1368 C1364 1.427 . S
N1368 C1365 1.384 . S
N1369 C1361 1.427 1_554 S
N1369 C1367 1.384 . S
H1370 C1376 0.930 . S
H1371 C1380 0.930 . S
H1372 C1385 0.929 . S
H1373 C1383 0.929 . S
H1374 C1378 0.929 . S
H1375 C1384 0.929 . S
C1376 H1370 0.930 . S
C1376 C1377 1.367 . S
C1376 C1384 1.378 . S
C1377 C1376 1.367 . S
C1377 C1385 1.433 . S
C1378 H1374 0.929 . S
C1378 C1380 1.378 . S
C1378 C1382 1.350 . S
C1379 C1382 1.463 . S
C1379 C1384 1.350 . S
C1379 N1387 1.427 . S
C1380 H1371 0.930 . S
C1380 C1378 1.378 . S
C1380 C1381 1.367 . S
C1381 C1380 1.367 . S
C1381 C1383 1.433 . S
C1382 C1378 1.350 . S
C1382 C1379 1.463 . S
C1382 N1386 1.427 . S
C1383 H1373 0.929 . S
C1383 C1381 1.433 . S
C1383 N1386 1.384 . S
C1384 H1375 0.929 . S
C1384 C1376 1.378 . S
C1384 C1379 1.350 . S
C1385 H1372 0.929 . S
C1385 C1377 1.433 . S
C1385 N1387 1.384 . S
N1386 C1382 1.427 . S
N1386 C1383 1.384 . S
N1387 C1379 1.427 . S
N1387 C1385 1.384 . S
H1388 C1394 0.930 . S
H1389 C1398 0.930 . S
H1390 C1403 0.929 . S
H1391 C1401 0.929 . S
H1392 C1396 0.929 . S
H1393 C1402 0.929 . S
C1394 H1388 0.930 . S
C1394 C1395 1.367 . S
C1394 C1402 1.378 . S
C1395 C1394 1.367 . S
C1395 C1403 1.433 . S
C1396 H1392 0.929 . S
C1396 C1398 1.378 . S
C1396 C1400 1.350 . S
C1397 C1400 1.463 . S
C1397 C1402 1.350 . S
C1397 N1405 1.427 . S
C1398 H1389 0.930 . S
C1398 C1396 1.378 . S
C1398 C1399 1.367 . S
C1399 C1398 1.367 . S
C1399 C1401 1.433 . S
C1400 C1396 1.350 . S
C1400 C1397 1.463 . S
C1400 N1404 1.427 . S
C1401 H1391 0.929 . S
C1401 C1399 1.433 . S
C1401 N1404 1.384 . S
C1402 H1393 0.929 . S
C1402 C1394 1.378 . S
C1402 C1397 1.350 . S
C1403 H1390 0.929 . S
C1403 C1395 1.433 . S
C1403 N1405 1.384 . S
N1404 C1400 1.427 . S
N1404 C1401 1.384 . S
N1405 C1397 1.427 . S
N1405 C1403 1.384 . S
H1406 C1412 0.930 . S
H1407 C1416 0.930 . S
H1408 C1421 0.929 . S
H1409 C1419 0.929 . S
H1410 C1414 0.929 . S
H1411 C1420 0.929 . S
C1412 H1406 0.930 . S
C1412 C1413 1.367 . S
C1412 C1420 1.378 . S
C1413 C1412 1.367 . S
C1413 C1421 1.433 . S
C1414 H1410 0.929 . S
C1414 C1416 1.378 . S
C1414 C1418 1.350 . S
C1415 C1418 1.463 . S
C1415 C1420 1.350 . S
C1415 N1423 1.427 . S
C1416 H1407 0.930 . S
C1416 C1414 1.378 . S
C1416 C1417 1.367 . S
C1417 C1416 1.367 . S
C1417 C1419 1.433 . S
C1418 C1414 1.350 . S
C1418 C1415 1.463 . S
C1418 N1422 1.427 . S
C1419 H1409 0.929 . S
C1419 C1417 1.433 . S
C1419 N1422 1.384 . S
C1420 H1411 0.929 . S
C1420 C1412 1.378 . S
C1420 C1415 1.350 . S
C1421 H1408 0.929 . S
C1421 C1413 1.433 . S
C1421 N1423 1.384 . S
N1422 C1418 1.427 . S
N1422 C1419 1.384 . S
N1423 C1415 1.427 . S
N1423 C1421 1.384 . S
H1424 C1430 0.930 . S
H1425 C1434 0.930 . S
H1426 C1439 0.929 . S
H1427 C1437 0.929 . S
H1428 C1432 0.929 . S
H1429 C1438 0.929 . S
C1430 H1424 0.930 . S
C1430 C1431 1.367 . S
C1430 C1438 1.378 . S
C1431 C1430 1.367 . S
C1431 C1439 1.433 . S
C1432 H1428 0.929 . S
C1432 C1434 1.378 . S
C1432 C1436 1.350 . S
C1433 C1436 1.463 . S
C1433 C1438 1.350 . S
C1433 N1441 1.427 . S
C1434 H1425 0.930 . S
C1434 C1432 1.378 . S
C1434 C1435 1.367 . S
C1435 C1434 1.367 . S
C1435 C1437 1.433 . S
C1436 C1432 1.350 . S
C1436 C1433 1.463 . S
C1436 N1440 1.427 . S
C1437 H1427 0.929 . S
C1437 C1435 1.433 . S
C1437 N1440 1.384 . S
C1438 H1429 0.929 . S
C1438 C1430 1.378 . S
C1438 C1433 1.350 . S
C1439 H1426 0.929 . S
C1439 C1431 1.433 . S
C1439 N1441 1.384 . S
N1440 C1436 1.427 . S
N1440 C1437 1.384 . S
N1441 C1433 1.427 . S
N1441 C1439 1.384 . S
H1442 C1448 0.930 . S
H1443 C1452 0.930 . S
H1444 C1457 0.929 . S
H1445 C1455 0.929 . S
H1446 C1450 0.929 . S
H1447 C1456 0.929 . S
C1448 H1442 0.930 . S
C1448 C1449 1.367 . S
C1448 C1456 1.378 . S
C1449 C1448 1.367 . S
C1449 C1457 1.433 . S
C1450 H1446 0.929 . S
C1450 C1452 1.378 . S
C1450 C1454 1.350 . S
C1451 C1454 1.463 . S
C1451 C1456 1.350 . S
C1451 N1459 1.427 . S
C1452 H1443 0.930 . S
C1452 C1450 1.378 . S
C1452 C1453 1.367 . S
C1453 C1452 1.367 . S
C1453 C1455 1.433 1_565 S
C1454 C1450 1.350 . S
C1454 C1451 1.463 . S
C1454 N1458 1.427 . S
C1455 H1445 0.929 . S
C1455 C1453 1.433 1_545 S
C1455 N1458 1.384 1_545 S
C1456 H1447 0.929 . S
C1456 C1448 1.378 . S
C1456 C1451 1.350 . S
C1457 H1444 0.929 . S
C1457 C1449 1.433 . S
C1457 N1459 1.384 . S
N1458 C1454 1.427 . S
N1458 C1455 1.384 1_565 S
N1459 C1451 1.427 . S
N1459 C1457 1.384 . S
H1460 C1466 0.930 . S
H1461 C1470 0.930 . S
H1462 C1475 0.929 . S
H1463 C1473 0.929 . S
H1464 C1468 0.929 . S
H1465 C1474 0.929 . S
C1466 H1460 0.930 . S
C1466 C1467 1.367 . S
C1466 C1474 1.378 . S
C1467 C1466 1.367 . S
C1467 C1475 1.433 . S
C1468 H1464 0.929 . S
C1468 C1470 1.378 . S
C1468 C1472 1.350 . S
C1469 C1472 1.463 . S
C1469 C1474 1.350 . S
C1469 N1477 1.427 . S
C1470 H1461 0.930 . S
C1470 C1468 1.378 . S
C1470 C1471 1.367 . S
C1471 C1470 1.367 . S
C1471 C1473 1.433 . S
C1472 C1468 1.350 . S
C1472 C1469 1.463 . S
C1472 N1476 1.427 . S
C1473 H1463 0.929 . S
C1473 C1471 1.433 . S
C1473 N1476 1.384 . S
C1474 H1465 0.929 . S
C1474 C1466 1.378 . S
C1474 C1469 1.350 . S
C1475 H1462 0.929 . S
C1475 C1467 1.433 . S
C1475 N1477 1.384 . S
N1476 C1472 1.427 . S
N1476 C1473 1.384 . S
N1477 C1469 1.427 . S
N1477 C1475 1.384 . S
H1478 C1484 0.930 . S
H1479 C1488 0.930 . S
H1480 C1493 0.929 . S
H1481 C1491 0.929 . S
H1482 C1486 0.929 . S
H1483 C1492 0.929 . S
C1484 H1478 0.930 . S
C1484 C1485 1.367 . S
C1484 C1492 1.378 . S
C1485 C1484 1.367 . S
C1485 C1493 1.433 . S
C1486 H1482 0.929 . S
C1486 C1488 1.378 . S
C1486 C1490 1.350 . S
C1487 C1490 1.463 . S
C1487 C1492 1.350 . S
C1487 N1495 1.427 . S
C1488 H1479 0.930 . S
C1488 C1486 1.378 . S
C1488 C1489 1.367 . S
C1489 C1488 1.367 . S
C1489 C1491 1.433 . S
C1490 C1486 1.350 . S
C1490 C1487 1.463 . S
C1490 N1494 1.427 . S
C1491 H1481 0.929 . S
C1491 C1489 1.433 . S
C1491 N1494 1.384 . S
C1492 H1483 0.929 . S
C1492 C1484 1.378 . S
C1492 C1487 1.350 . S
C1493 H1480 0.929 . S
C1493 C1485 1.433 . S
C1493 N1495 1.384 . S
N1494 C1490 1.427 . S
N1494 C1491 1.384 . S
N1495 C1487 1.427 . S
N1495 C1493 1.384 . S
H1496 C1502 0.930 . S
H1497 C1506 0.930 . S
H1498 C1511 0.929 . S
H1499 C1509 0.929 . S
H1500 C1504 0.929 . S
H1501 C1510 0.929 . S
C1502 H1496 0.930 . S
C1502 C1503 1.367 . S
C1502 C1510 1.378 . S
C1503 C1502 1.367 . S
C1503 C1511 1.433 . S
C1504 H1500 0.929 . S
C1504 C1506 1.378 . S
C1504 C1508 1.350 . S
C1505 C1508 1.463 . S
C1505 C1510 1.350 . S
C1505 N1513 1.427 . S
C1506 H1497 0.930 . S
C1506 C1504 1.378 . S
C1506 C1507 1.367 . S
C1507 C1506 1.367 . S
C1507 C1509 1.433 . S
C1508 C1504 1.350 . S
C1508 C1505 1.463 . S
C1508 N1512 1.427 . S
C1509 H1499 0.929 . S
C1509 C1507 1.433 . S
C1509 N1512 1.384 . S
C1510 H1501 0.929 . S
C1510 C1502 1.378 . S
C1510 C1505 1.350 . S
C1511 H1498 0.929 . S
C1511 C1503 1.433 . S
C1511 N1513 1.384 . S
N1512 C1508 1.427 . S
N1512 C1509 1.384 . S
N1513 C1505 1.427 . S
N1513 C1511 1.384 . S
H1514 C1520 0.930 . S
H1515 C1524 0.930 . S
H1516 C1529 0.929 . S
H1517 C1527 0.929 . S
H1518 C1522 0.929 . S
H1519 C1528 0.929 . S
C1520 H1514 0.930 . S
C1520 C1521 1.367 . S
C1520 C1528 1.378 . S
C1521 C1520 1.367 . S
C1521 C1529 1.433 . S
C1522 H1518 0.929 . S
C1522 C1524 1.378 . S
C1522 C1526 1.350 . S
C1523 C1526 1.463 . S
C1523 C1528 1.350 . S
C1523 N1531 1.427 . S
C1524 H1515 0.930 . S
C1524 C1522 1.378 . S
C1524 C1525 1.367 . S
C1525 C1524 1.367 . S
C1525 C1527 1.433 . S
C1526 C1522 1.350 . S
C1526 C1523 1.463 . S
C1526 N1530 1.427 . S
C1527 H1517 0.929 . S
C1527 C1525 1.433 . S
C1527 N1530 1.384 . S
C1528 H1519 0.929 . S
C1528 C1520 1.378 . S
C1528 C1523 1.350 . S
C1529 H1516 0.929 . S
C1529 C1521 1.433 . S
C1529 N1531 1.384 . S
N1530 C1526 1.427 . S
N1530 C1527 1.384 . S
N1531 C1523 1.427 . S
N1531 C1529 1.384 . S
H1532 C1538 0.930 . S
H1533 C1542 0.930 1_554 S
H1534 C1547 0.929 . S
H1535 C1545 0.929 1_655 S
H1536 C1540 0.929 . S
H1537 C1546 0.929 . S
C1538 H1532 0.930 . S
C1538 C1539 1.367 . S
C1538 C1546 1.378 . S
C1539 C1538 1.367 . S
C1539 C1547 1.433 . S
C1540 H1536 0.929 . S
C1540 C1542 1.378 . S
C1540 C1544 1.350 . S
C1541 C1544 1.463 . S
C1541 C1546 1.350 . S
C1541 N1549 1.427 . S
C1542 H1533 0.930 1_556 S
C1542 C1540 1.378 . S
C1542 C1543 1.367 . S
C1543 C1542 1.367 . S
C1543 C1545 1.433 . S
C1544 C1540 1.350 . S
C1544 C1541 1.463 . S
C1544 N1548 1.427 . S
C1545 H1535 0.929 1_455 S
C1545 C1543 1.433 . S
C1545 N1548 1.384 . S
C1546 H1537 0.929 . S
C1546 C1538 1.378 . S
C1546 C1541 1.350 . S
C1547 H1534 0.929 . S
C1547 C1539 1.433 . S
C1547 N1549 1.384 . S
N1548 C1544 1.427 . S
N1548 C1545 1.384 . S
N1549 C1541 1.427 . S
N1549 C1547 1.384 . S
H1550 C1556 0.930 . S
H1551 C1560 0.930 . S
H1552 C1565 0.929 . S
H1553 C1563 0.929 . S
H1554 C1558 0.929 . S
H1555 C1564 0.929 . S
C1556 H1550 0.930 . S
C1556 C1557 1.367 . S
C1556 C1564 1.378 . S
C1557 C1556 1.367 . S
C1557 C1565 1.433 . S
C1558 H1554 0.929 . S
C1558 C1560 1.378 . S
C1558 C1562 1.350 . S
C1559 C1562 1.463 . S
C1559 C1564 1.350 . S
C1559 N1567 1.427 . S
C1560 H1551 0.930 . S
C1560 C1558 1.378 . S
C1560 C1561 1.367 . S
C1561 C1560 1.367 . S
C1561 C1563 1.433 . S
C1562 C1558 1.350 . S
C1562 C1559 1.463 . S
C1562 N1566 1.427 . S
C1563 H1553 0.929 . S
C1563 C1561 1.433 . S
C1563 N1566 1.384 . S
C1564 H1555 0.929 . S
C1564 C1556 1.378 . S
C1564 C1559 1.350 . S
C1565 H1552 0.929 . S
C1565 C1557 1.433 . S
C1565 N1567 1.384 . S
N1566 C1562 1.427 . S
N1566 C1563 1.384 . S
N1567 C1559 1.427 . S
N1567 C1565 1.384 . S
H1568 C1574 0.930 . S
H1569 C1578 0.930 . S
H1570 C1583 0.929 . S
H1571 C1581 0.929 . S
H1572 C1576 0.929 . S
H1573 C1582 0.929 . S
C1574 H1568 0.930 . S
C1574 C1575 1.367 . S
C1574 C1582 1.378 . S
C1575 C1574 1.367 . S
C1575 C1583 1.433 . S
C1576 H1572 0.929 . S
C1576 C1578 1.378 . S
C1576 C1580 1.350 . S
C1577 C1580 1.463 . S
C1577 C1582 1.350 . S
C1577 N1585 1.427 . S
C1578 H1569 0.930 . S
C1578 C1576 1.378 . S
C1578 C1579 1.367 . S
C1579 C1578 1.367 . S
C1579 C1581 1.433 . S
C1580 C1576 1.350 . S
C1580 C1577 1.463 . S
C1580 N1584 1.427 . S
C1581 H1571 0.929 . S
C1581 C1579 1.433 . S
C1581 N1584 1.384 . S
C1582 H1573 0.929 . S
C1582 C1574 1.378 . S
C1582 C1577 1.350 . S
C1583 H1570 0.929 . S
C1583 C1575 1.433 . S
C1583 N1585 1.384 . S
N1584 C1580 1.427 . S
N1584 C1581 1.384 . S
N1585 C1577 1.427 . S
N1585 C1583 1.384 . S
H1586 C1592 0.930 . S
H1587 C1596 0.930 . S
H1588 C1601 0.929 . S
H1589 C1599 0.929 . S
H1590 C1594 0.929 . S
H1591 C1600 0.929 . S
C1592 H1586 0.930 . S
C1592 C1593 1.367 . S
C1592 C1600 1.378 . S
C1593 C1592 1.367 . S
C1593 C1601 1.433 . S
C1594 H1590 0.929 . S
C1594 C1596 1.378 . S
C1594 C1598 1.350 . S
C1595 C1598 1.463 . S
C1595 C1600 1.350 . S
C1595 N1603 1.427 . S
C1596 H1587 0.930 . S
C1596 C1594 1.378 . S
C1596 C1597 1.367 . S
C1597 C1596 1.367 . S
C1597 C1599 1.433 . S
C1598 C1594 1.350 . S
C1598 C1595 1.463 . S
C1598 N1602 1.427 . S
C1599 H1589 0.929 . S
C1599 C1597 1.433 . S
C1599 N1602 1.384 . S
C1600 H1591 0.929 . S
C1600 C1592 1.378 . S
C1600 C1595 1.350 . S
C1601 H1588 0.929 . S
C1601 C1593 1.433 . S
C1601 N1603 1.384 . S
N1602 C1598 1.427 . S
N1602 C1599 1.384 . S
N1603 C1595 1.427 . S
N1603 C1601 1.384 . S
H1604 C1610 0.930 . S
H1605 C1614 0.930 . S
H1606 C1619 0.929 . S
H1607 C1617 0.929 . S
H1608 C1612 0.929 . S
H1609 C1618 0.929 . S
C1610 H1604 0.930 . S
C1610 C1611 1.367 . S
C1610 C1618 1.378 . S
C1611 C1610 1.367 . S
C1611 C1619 1.433 1_655 S
C1612 H1608 0.929 . S
C1612 C1614 1.378 . S
C1612 C1616 1.372 . S
C1613 C1616 1.456 1_655 S
C1613 C1618 1.350 . S
C1613 N1621 1.427 1_655 S
C1614 H1605 0.930 . S
C1614 C1612 1.378 . S
C1614 C1615 1.367 . S
C1615 C1614 1.367 . S
C1615 C1617 1.433 1_455 S
C1616 C1612 1.372 . S
C1616 C1613 1.456 1_455 S
C1616 N1620 1.410 1_455 S
C1617 H1607 0.929 . S
C1617 C1615 1.433 1_655 S
C1617 N1620 1.384 . S
C1618 H1609 0.929 . S
C1618 C1610 1.378 . S
C1618 C1613 1.350 . S
C1619 H1606 0.929 . S
C1619 C1611 1.433 1_455 S
C1619 N1621 1.384 . S
N1620 C1616 1.410 1_655 S
N1620 C1617 1.384 . S
N1621 C1613 1.427 1_455 S
N1621 C1619 1.384 . S
H1622 C1628 0.930 . S
H1623 C1632 0.930 . S
H1624 C1637 0.929 . S
H1625 C1635 0.929 . S
H1626 C1630 0.929 . S
H1627 C1636 0.929 . S
C1628 H1622 0.930 . S
C1628 C1629 1.367 . S
C1628 C1636 1.378 . S
C1629 C1628 1.367 . S
C1629 C1637 1.433 . S
C1630 H1626 0.929 . S
C1630 C1632 1.378 . S
C1630 C1634 1.350 . S
C1631 C1634 1.463 . S
C1631 C1636 1.350 . S
C1631 N1639 1.427 . S
C1632 H1623 0.930 . S
C1632 C1630 1.378 . S
C1632 C1633 1.367 . S
C1633 C1632 1.367 . S
C1633 C1635 1.433 . S
C1634 C1630 1.350 . S
C1634 C1631 1.463 . S
C1634 N1638 1.427 . S
C1635 H1625 0.929 . S
C1635 C1633 1.433 . S
C1635 N1638 1.384 . S
C1636 H1627 0.929 . S
C1636 C1628 1.378 . S
C1636 C1631 1.350 . S
C1637 H1624 0.929 . S
C1637 C1629 1.433 . S
C1637 N1639 1.384 . S
N1638 C1634 1.427 . S
N1638 C1635 1.384 . S
N1639 C1631 1.427 . S
N1639 C1637 1.384 . S
H1640 C1646 0.930 . S
H1641 C1650 0.930 . S
H1642 C1655 0.929 . S
H1643 C1653 0.929 . S
H1644 C1648 0.929 . S
H1645 C1654 0.929 . S
C1646 H1640 0.930 . S
C1646 C1647 1.367 . S
C1646 C1654 1.378 . S
C1647 C1646 1.367 . S
C1647 C1655 1.433 . S
C1648 H1644 0.929 . S
C1648 C1650 1.378 . S
C1648 C1652 1.350 . S
C1649 C1652 1.463 . S
C1649 C1654 1.350 . S
C1649 N1657 1.427 . S
C1650 H1641 0.930 . S
C1650 C1648 1.378 . S
C1650 C1651 1.367 . S
C1651 C1650 1.367 . S
C1651 C1653 1.433 . S
C1652 C1648 1.350 . S
C1652 C1649 1.463 . S
C1652 N1656 1.427 . S
C1653 H1643 0.929 . S
C1653 C1651 1.433 . S
C1653 N1656 1.384 . S
C1654 H1645 0.929 . S
C1654 C1646 1.378 . S
C1654 C1649 1.350 . S
C1655 H1642 0.929 . S
C1655 C1647 1.433 . S
C1655 N1657 1.384 . S
N1656 C1652 1.427 . S
N1656 C1653 1.384 . S
N1657 C1649 1.427 . S
N1657 C1655 1.384 . S
H1658 C1664 0.930 . S
H1659 C1668 0.930 . S
H1660 C1673 0.929 . S
H1661 C1671 0.929 . S
H1662 C1666 0.929 . S
H1663 C1672 0.929 . S
C1664 H1658 0.930 . S
C1664 C1665 1.367 . S
C1664 C1672 1.378 . S
C1665 C1664 1.367 . S
C1665 C1673 1.433 . S
C1666 H1662 0.929 . S
C1666 C1668 1.378 . S
C1666 C1670 1.350 . S
C1667 C1670 1.463 . S
C1667 C1672 1.350 . S
C1667 N1675 1.427 . S
C1668 H1659 0.930 . S
C1668 C1666 1.378 . S
C1668 C1669 1.367 . S
C1669 C1668 1.367 . S
C1669 C1671 1.433 . S
C1670 C1666 1.350 . S
C1670 C1667 1.463 . S
C1670 N1674 1.427 . S
C1671 H1661 0.929 . S
C1671 C1669 1.433 . S
C1671 N1674 1.384 . S
C1672 H1663 0.929 . S
C1672 C1664 1.378 . S
C1672 C1667 1.350 . S
C1673 H1660 0.929 . S
C1673 C1665 1.433 . S
C1673 N1675 1.384 . S
N1674 C1670 1.427 . S
N1674 C1671 1.384 . S
N1675 C1667 1.427 . S
N1675 C1673 1.384 . S
H1676 C1682 0.930 . S
H1677 C1686 0.930 . S
H1678 C1691 0.929 . S
H1679 C1689 0.929 . S
H1680 C1684 0.929 . S
H1681 C1690 0.929 . S
C1682 H1676 0.930 . S
C1682 C1683 1.367 . S
C1682 C1690 1.378 . S
C1683 C1682 1.367 . S
C1683 C1691 1.433 . S
C1684 H1680 0.929 . S
C1684 C1686 1.378 . S
C1684 C1688 1.350 . S
C1685 C1688 1.463 . S
C1685 C1690 1.350 . S
C1685 N1693 1.427 . S
C1686 H1677 0.930 . S
C1686 C1684 1.378 . S
C1686 C1687 1.367 . S
C1687 C1686 1.367 . S
C1687 C1689 1.433 . S
C1688 C1684 1.350 . S
C1688 C1685 1.463 . S
C1688 N1692 1.427 . S
C1689 H1679 0.929 . S
C1689 C1687 1.433 . S
C1689 N1692 1.384 . S
C1690 H1681 0.929 . S
C1690 C1682 1.378 . S
C1690 C1685 1.350 . S
C1691 H1678 0.929 . S
C1691 C1683 1.433 . S
C1691 N1693 1.384 . S
N1692 C1688 1.427 . S
N1692 C1689 1.384 . S
N1693 C1685 1.427 . S
N1693 C1691 1.384 . S
H1694 C1700 0.930 . S
H1695 C1704 0.930 . S
H1696 C1709 0.929 . S
H1697 C1707 0.929 . S
H1698 C1702 0.929 . S
H1699 C1708 0.929 . S
C1700 H1694 0.930 . S
C1700 C1701 1.367 . S
C1700 C1708 1.378 . S
C1701 C1700 1.367 . S
C1701 C1709 1.433 . S
C1702 H1698 0.929 . S
C1702 C1704 1.378 . S
C1702 C1706 1.350 . S
C1703 C1706 1.463 . S
C1703 C1708 1.350 . S
C1703 N1711 1.427 . S
C1704 H1695 0.930 . S
C1704 C1702 1.378 . S
C1704 C1705 1.367 . S
C1705 C1704 1.367 . S
C1705 C1707 1.433 . S
C1706 C1702 1.350 . S
C1706 C1703 1.463 . S
C1706 N1710 1.427 . S
C1707 H1697 0.929 . S
C1707 C1705 1.433 . S
C1707 N1710 1.384 . S
C1708 H1699 0.929 . S
C1708 C1700 1.378 . S
C1708 C1703 1.350 . S
C1709 H1696 0.929 . S
C1709 C1701 1.433 . S
C1709 N1711 1.384 . S
N1710 C1706 1.427 . S
N1710 C1707 1.384 . S
N1711 C1703 1.427 . S
N1711 C1709 1.384 . S
H1712 C1718 0.930 . S
H1713 C1722 0.930 . S
H1714 C1727 0.929 . S
H1715 C1725 0.929 . S
H1716 C1720 0.929 . S
H1717 C1726 0.929 . S
C1718 H1712 0.930 . S
C1718 C1719 1.367 . S
C1718 C1726 1.378 . S
C1719 C1718 1.367 . S
C1719 C1727 1.433 . S
C1720 H1716 0.929 . S
C1720 C1722 1.378 . S
C1720 C1724 1.350 . S
C1721 C1724 1.463 . S
C1721 C1726 1.350 . S
C1721 N1729 1.427 . S
C1722 H1713 0.930 . S
C1722 C1720 1.378 . S
C1722 C1723 1.367 . S
C1723 C1722 1.367 . S
C1723 C1725 1.433 . S
C1724 C1720 1.350 . S
C1724 C1721 1.463 . S
C1724 N1728 1.427 . S
C1725 H1715 0.929 . S
C1725 C1723 1.433 . S
C1725 N1728 1.384 . S
C1726 H1717 0.929 . S
C1726 C1718 1.378 . S
C1726 C1721 1.350 . S
C1727 H1714 0.929 . S
C1727 C1719 1.433 . S
C1727 N1729 1.384 . S
N1728 C1724 1.427 . S
N1728 C1725 1.384 . S
N1729 C1721 1.427 . S
N1729 C1727 1.384 . S
H1730 C1736 0.930 . S
H1731 C1740 0.930 . S
H1732 C1745 0.929 . S
H1733 C1743 0.929 . S
H1734 C1738 0.929 . S
H1735 C1744 0.929 . S
C1736 H1730 0.930 . S
C1736 C1737 1.367 . S
C1736 C1744 1.378 . S
C1737 C1736 1.367 . S
C1737 C1745 1.433 . S
C1738 H1734 0.929 . S
C1738 C1740 1.378 . S
C1738 C1742 1.350 . S
C1739 C1742 1.463 . S
C1739 C1744 1.350 . S
C1739 N1747 1.427 . S
C1740 H1731 0.930 . S
C1740 C1738 1.378 . S
C1740 C1741 1.367 . S
C1741 C1740 1.367 . S
C1741 C1743 1.433 . S
C1742 C1738 1.350 . S
C1742 C1739 1.463 . S
C1742 N1746 1.427 . S
C1743 H1733 0.929 . S
C1743 C1741 1.433 . S
C1743 N1746 1.384 . S
C1744 H1735 0.929 . S
C1744 C1736 1.378 . S
C1744 C1739 1.350 . S
C1745 H1732 0.929 . S
C1745 C1737 1.433 . S
C1745 N1747 1.384 . S
N1746 C1742 1.427 . S
N1746 C1743 1.384 . S
N1747 C1739 1.427 . S
N1747 C1745 1.384 . S
H1748 C1754 0.930 . S
H1749 C1758 0.930 . S
H1750 C1763 0.929 . S
H1751 C1761 0.929 . S
H1752 C1756 0.929 . S
H1753 C1762 0.929 . S
C1754 H1748 0.930 . S
C1754 C1755 1.367 . S
C1754 C1762 1.378 . S
C1755 C1754 1.367 . S
C1755 C1763 1.433 . S
C1756 H1752 0.929 . S
C1756 C1758 1.378 . S
C1756 C1760 1.350 . S
C1757 C1760 1.463 . S
C1757 C1762 1.350 . S
C1757 N1765 1.427 . S
C1758 H1749 0.930 . S
C1758 C1756 1.378 . S
C1758 C1759 1.367 . S
C1759 C1758 1.367 . S
C1759 C1761 1.433 . S
C1760 C1756 1.350 . S
C1760 C1757 1.463 . S
C1760 N1764 1.427 . S
C1761 H1751 0.929 . S
C1761 C1759 1.433 . S
C1761 N1764 1.384 . S
C1762 H1753 0.929 . S
C1762 C1754 1.378 . S
C1762 C1757 1.350 . S
C1763 H1750 0.929 . S
C1763 C1755 1.433 . S
C1763 N1765 1.384 . S
N1764 C1760 1.427 . S
N1764 C1761 1.384 . S
N1765 C1757 1.427 . S
N1765 C1763 1.384 . S
H1766 C1772 0.930 . S
H1767 C1776 0.930 . S
H1768 C1781 0.929 . S
H1769 C1779 0.929 . S
H1770 C1774 0.929 . S
H1771 C1780 0.929 . S
C1772 H1766 0.930 . S
C1772 C1773 1.367 . S
C1772 C1780 1.378 . S
C1773 C1772 1.367 . S
C1773 C1781 1.433 . S
C1774 H1770 0.929 . S
C1774 C1776 1.378 . S
C1774 C1778 1.350 . S
C1775 C1778 1.463 . S
C1775 C1780 1.350 . S
C1775 N1783 1.427 . S
C1776 H1767 0.930 . S
C1776 C1774 1.378 . S
C1776 C1777 1.367 . S
C1777 C1776 1.367 . S
C1777 C1779 1.433 . S
C1778 C1774 1.350 . S
C1778 C1775 1.463 . S
C1778 N1782 1.427 . S
C1779 H1769 0.929 . S
C1779 C1777 1.433 . S
C1779 N1782 1.384 . S
C1780 H1771 0.929 . S
C1780 C1772 1.378 . S
C1780 C1775 1.350 . S
C1781 H1768 0.929 . S
C1781 C1773 1.433 . S
C1781 N1783 1.384 . S
N1782 C1778 1.427 . S
N1782 C1779 1.384 . S
N1783 C1775 1.427 . S
N1783 C1781 1.384 . S
H1784 C1790 0.930 . S
H1785 C1794 0.930 . S
H1786 C1799 0.929 . S
H1787 C1797 0.929 . S
H1788 C1792 0.929 . S
H1789 C1798 0.929 . S
C1790 H1784 0.930 . S
C1790 C1791 1.367 . S
C1790 C1798 1.378 . S
C1791 C1790 1.367 . S
C1791 C1799 1.433 . S
C1792 H1788 0.929 . S
C1792 C1794 1.378 . S
C1792 C1796 1.350 . S
C1793 C1796 1.463 . S
C1793 C1798 1.350 . S
C1793 N1801 1.427 . S
C1794 H1785 0.930 . S
C1794 C1792 1.378 . S
C1794 C1795 1.367 . S
C1795 C1794 1.367 . S
C1795 C1797 1.433 . S
C1796 C1792 1.350 . S
C1796 C1793 1.463 . S
C1796 N1800 1.427 . S
C1797 H1787 0.929 . S
C1797 C1795 1.433 . S
C1797 N1800 1.384 . S
C1798 H1789 0.929 . S
C1798 C1790 1.378 . S
C1798 C1793 1.350 . S
C1799 H1786 0.929 . S
C1799 C1791 1.433 . S
C1799 N1801 1.384 . S
N1800 C1796 1.427 . S
N1800 C1797 1.384 . S
N1801 C1793 1.427 . S
N1801 C1799 1.384 . S
H1802 C1808 0.930 . S
H1803 C1812 0.930 . S
H1804 C1817 0.929 . S
H1805 C1815 0.929 . S
H1806 C1810 0.929 . S
H1807 C1816 0.929 . S
C1808 H1802 0.930 . S
C1808 C1809 1.367 . S
C1808 C1816 1.378 . S
C1809 C1808 1.367 . S
C1809 C1817 1.433 . S
C1810 H1806 0.929 . S
C1810 C1812 1.378 . S
C1810 C1814 1.350 . S
C1811 C1814 1.463 . S
C1811 C1816 1.350 . S
C1811 N1819 1.427 . S
C1812 H1803 0.930 . S
C1812 C1810 1.378 . S
C1812 C1813 1.367 . S
C1813 C1812 1.367 . S
C1813 C1815 1.433 . S
C1814 C1810 1.350 . S
C1814 C1811 1.463 . S
C1814 N1818 1.427 . S
C1815 H1805 0.929 . S
C1815 C1813 1.433 . S
C1815 N1818 1.384 . S
C1816 H1807 0.929 . S
C1816 C1808 1.378 . S
C1816 C1811 1.350 . S
C1817 H1804 0.929 . S
C1817 C1809 1.433 . S
C1817 N1819 1.384 . S
N1818 C1814 1.427 . S
N1818 C1815 1.384 . S
N1819 C1811 1.427 . S
N1819 C1817 1.384 . S
H1820 C1826 0.930 . S
H1821 C1830 0.930 . S
H1822 C1835 0.929 . S
H1823 C1833 0.929 . S
H1824 C1828 0.929 . S
H1825 C1834 0.929 . S
C1826 H1820 0.930 . S
C1826 C1827 1.367 . S
C1826 C1834 1.378 . S
C1827 C1826 1.367 . S
C1827 C1835 1.433 . S
C1828 H1824 0.929 . S
C1828 C1830 1.378 . S
C1828 C1832 1.350 . S
C1829 C1832 1.463 . S
C1829 C1834 1.350 . S
C1829 N1837 1.427 . S
C1830 H1821 0.930 . S
C1830 C1828 1.378 . S
C1830 C1831 1.367 . S
C1831 C1830 1.367 . S
C1831 C1833 1.433 . S
C1832 C1828 1.350 . S
C1832 C1829 1.463 . S
C1832 N1836 1.427 . S
C1833 H1823 0.929 . S
C1833 C1831 1.433 . S
C1833 N1836 1.384 . S
C1834 H1825 0.929 . S
C1834 C1826 1.378 . S
C1834 C1829 1.350 . S
C1835 H1822 0.929 . S
C1835 C1827 1.433 . S
C1835 N1837 1.384 . S
N1836 C1832 1.427 . S
N1836 C1833 1.384 . S
N1837 C1829 1.427 . S
N1837 C1835 1.384 . S
H1838 C1844 0.930 . S
H1839 C1848 0.930 . S
H1840 C1853 0.929 . S
H1841 C1851 0.929 . S
H1842 C1846 0.929 . S
H1843 C1852 0.929 . S
C1844 H1838 0.930 . S
C1844 C1845 1.367 . S
C1844 C1852 1.378 . S
C1845 C1844 1.367 . S
C1845 C1853 1.433 . S
C1846 H1842 0.929 . S
C1846 C1848 1.378 . S
C1846 C1850 1.350 . S
C1847 C1850 1.463 . S
C1847 C1852 1.350 . S
C1847 N1855 1.427 . S
C1848 H1839 0.930 . S
C1848 C1846 1.378 . S
C1848 C1849 1.399 . S
C1849 C1848 1.399 . S
C1849 C1851 1.410 1_565 S
C1850 C1846 1.350 . S
C1850 C1847 1.463 . S
C1850 N1854 1.427 1_565 S
C1851 H1841 0.929 . S
C1851 C1849 1.410 1_545 S
C1851 N1854 1.384 . S
C1852 H1843 0.929 . S
C1852 C1844 1.378 . S
C1852 C1847 1.350 . S
C1853 H1840 0.929 . S
C1853 C1845 1.433 . S
C1853 N1855 1.384 . S
N1854 C1850 1.427 1_545 S
N1854 C1851 1.384 . S
N1855 C1847 1.427 . S
N1855 C1853 1.384 . S
H1856 C1862 0.930 . S
H1857 C1866 0.930 . S
H1858 C1871 0.929 . S
H1859 C1869 0.929 . S
H1860 C1864 0.929 . S
H1861 C1870 0.929 . S
C1862 H1856 0.930 . S
C1862 C1863 1.367 . S
C1862 C1870 1.378 . S
C1863 C1862 1.367 . S
C1863 C1871 1.433 . S
C1864 H1860 0.929 . S
C1864 C1866 1.378 . S
C1864 C1868 1.350 . S
C1865 C1868 1.463 . S
C1865 C1870 1.350 . S
C1865 N1873 1.427 . S
C1866 H1857 0.930 . S
C1866 C1864 1.378 . S
C1866 C1867 1.367 . S
C1867 C1866 1.367 . S
C1867 C1869 1.433 . S
C1868 C1864 1.350 . S
C1868 C1865 1.463 . S
C1868 N1872 1.427 . S
C1869 H1859 0.929 . S
C1869 C1867 1.433 . S
C1869 N1872 1.384 . S
C1870 H1861 0.929 . S
C1870 C1862 1.378 . S
C1870 C1865 1.350 . S
C1871 H1858 0.929 . S
C1871 C1863 1.433 . S
C1871 N1873 1.384 . S
N1872 C1868 1.427 . S
N1872 C1869 1.384 . S
N1873 C1865 1.427 . S
N1873 C1871 1.384 . S
H1874 C1880 0.930 . S
H1875 C1884 0.930 . S
H1876 C1889 0.929 . S
H1877 C1887 0.929 . S
H1878 C1882 0.929 . S
H1879 C1888 0.929 1_556 S
C1880 H1874 0.930 . S
C1880 C1881 1.367 1_556 S
C1880 C1888 1.378 1_556 S
C1881 C1880 1.367 1_554 S
C1881 C1889 1.433 . S
C1882 H1878 0.929 . S
C1882 C1884 1.378 . S
C1882 C1886 1.350 . S
C1883 C1886 1.463 . S
C1883 C1888 1.350 . S
C1883 N1891 1.427 . S
C1884 H1875 0.930 . S
C1884 C1882 1.378 . S
C1884 C1885 1.367 . S
C1885 C1884 1.367 . S
C1885 C1887 1.433 . S
C1886 C1882 1.350 . S
C1886 C1883 1.463 . S
C1886 N1890 1.427 . S
C1887 H1877 0.929 . S
C1887 C1885 1.433 . S
C1887 N1890 1.384 . S
C1888 H1879 0.929 1_554 S
C1888 C1880 1.378 1_554 S
C1888 C1883 1.350 . S
C1889 H1876 0.929 . S
C1889 C1881 1.433 . S
C1889 N1891 1.384 . S
N1890 C1886 1.427 . S
N1890 C1887 1.384 . S
N1891 C1883 1.427 . S
N1891 C1889 1.384 . S
H1892 C1898 0.930 . S
H1893 C1902 0.930 . S
H1894 C1907 0.929 . S
H1895 C1905 0.929 . S
H1896 C1900 0.929 . S
H1897 C1906 0.929 . S
C1898 H1892 0.930 . S
C1898 C1899 1.367 . S
C1898 C1906 1.378 . S
C1899 C1898 1.367 . S
C1899 C1907 1.433 . S
C1900 H1896 0.929 . S
C1900 C1902 1.378 . S
C1900 C1904 1.350 . S
C1901 C1904 1.463 . S
C1901 C1906 1.350 . S
C1901 N1909 1.427 . S
C1902 H1893 0.930 . S
C1902 C1900 1.378 . S
C1902 C1903 1.367 . S
C1903 C1902 1.367 . S
C1903 C1905 1.433 . S
C1904 C1900 1.350 . S
C1904 C1901 1.463 . S
C1904 N1908 1.427 . S
C1905 H1895 0.929 . S
C1905 C1903 1.433 . S
C1905 N1908 1.384 . S
C1906 H1897 0.929 . S
C1906 C1898 1.378 . S
C1906 C1901 1.350 . S
C1907 H1894 0.929 . S
C1907 C1899 1.433 . S
C1907 N1909 1.384 . S
N1908 C1904 1.427 . S
N1908 C1905 1.384 . S
N1909 C1901 1.427 . S
N1909 C1907 1.384 . S
H1910 C1916 0.930 . S
H1911 C1920 0.930 . S
H1912 C1925 0.929 . S
H1913 C1923 0.929 . S
H1914 C1918 0.929 . S
H1915 C1924 0.929 . S
C1916 H1910 0.930 . S
C1916 C1917 1.367 . S
C1916 C1924 1.378 . S
C1917 C1916 1.367 . S
C1917 C1925 1.433 . S
C1918 H1914 0.929 . S
C1918 C1920 1.378 . S
C1918 C1922 1.350 . S
C1919 C1922 1.463 . S
C1919 C1924 1.350 . S
C1919 N1927 1.427 . S
C1920 H1911 0.930 . S
C1920 C1918 1.378 . S
C1920 C1921 1.367 . S
C1921 C1920 1.367 . S
C1921 C1923 1.433 . S
C1922 C1918 1.350 . S
C1922 C1919 1.463 . S
C1922 N1926 1.427 . S
C1923 H1913 0.929 . S
C1923 C1921 1.433 . S
C1923 N1926 1.384 . S
C1924 H1915 0.929 . S
C1924 C1916 1.378 . S
C1924 C1919 1.350 . S
C1925 H1912 0.929 . S
C1925 C1917 1.433 . S
C1925 N1927 1.384 . S
N1926 C1922 1.427 . S
N1926 C1923 1.384 . S
N1927 C1919 1.427 . S
N1927 C1925 1.384 . S
H1928 C1934 0.930 . S
H1929 C1938 0.930 . S
H1930 C1943 0.929 . S
H1931 C1941 0.929 . S
H1932 C1936 0.929 . S
H1933 C1942 0.929 . S
C1934 H1928 0.930 . S
C1934 C1935 1.367 . S
C1934 C1942 1.378 . S
C1935 C1934 1.367 . S
C1935 C1943 1.433 . S
C1936 H1932 0.929 . S
C1936 C1938 1.378 . S
C1936 C1940 1.350 . S
C1937 C1940 1.463 . S
C1937 C1942 1.350 . S
C1937 N1945 1.427 . S
C1938 H1929 0.930 . S
C1938 C1936 1.378 . S
C1938 C1939 1.367 . S
C1939 C1938 1.367 . S
C1939 C1941 1.433 . S
C1940 C1936 1.350 . S
C1940 C1937 1.463 . S
C1940 N1944 1.427 . S
C1941 H1931 0.929 . S
C1941 C1939 1.433 . S
C1941 N1944 1.384 . S
C1942 H1933 0.929 . S
C1942 C1934 1.378 . S
C1942 C1937 1.350 . S
C1943 H1930 0.929 . S
C1943 C1935 1.433 . S
C1943 N1945 1.384 . S
N1944 C1940 1.427 . S
N1944 C1941 1.384 . S
N1945 C1937 1.427 . S
N1945 C1943 1.384 . S
H1946 C1952 0.930 . S
H1947 C1956 0.930 . S
H1948 C1961 0.929 . S
H1949 C1959 0.929 . S
H1950 C1954 0.929 . S
H1951 C1960 0.929 . S
C1952 H1946 0.930 . S
C1952 C1953 1.367 . S
C1952 C1960 1.378 . S
C1953 C1952 1.367 . S
C1953 C1961 1.433 . S
C1954 H1950 0.929 . S
C1954 C1956 1.378 . S
C1954 C1958 1.350 . S
C1955 C1958 1.463 . S
C1955 C1960 1.350 . S
C1955 N1963 1.427 . S
C1956 H1947 0.930 . S
C1956 C1954 1.378 . S
C1956 C1957 1.367 . S
C1957 C1956 1.367 . S
C1957 C1959 1.433 . S
C1958 C1954 1.350 . S
C1958 C1955 1.463 . S
C1958 N1962 1.427 . S
C1959 H1949 0.929 . S
C1959 C1957 1.433 . S
C1959 N1962 1.384 . S
C1960 H1951 0.929 . S
C1960 C1952 1.378 . S
C1960 C1955 1.350 . S
C1961 H1948 0.929 . S
C1961 C1953 1.433 . S
C1961 N1963 1.384 . S
N1962 C1958 1.427 . S
N1962 C1959 1.384 . S
N1963 C1955 1.427 . S
N1963 C1961 1.384 . S
H1964 C1970 0.930 . S
H1965 C1974 0.930 . S
H1966 C1979 0.929 . S
H1967 C1977 0.929 . S
H1968 C1972 0.929 . S
H1969 C1978 0.929 . S
C1970 H1964 0.930 . S
C1970 C1971 1.367 1_655 S
C1970 C1978 1.378 . S
C1971 C1970 1.367 1_455 S
C1971 C1979 1.433 . S
C1972 H1968 0.929 . S
C1972 C1974 1.378 . S
C1972 C1976 1.350 . S
C1973 C1976 1.463 . S
C1973 C1978 1.350 1_455 S
C1973 N1981 1.427 . S
C1974 H1965 0.930 . S
C1974 C1972 1.378 . S
C1974 C1975 1.367 . S
C1975 C1974 1.367 . S
C1975 C1977 1.433 1_455 S
C1976 C1972 1.350 . S
C1976 C1973 1.463 . S
C1976 N1980 1.427 1_455 S
C1977 H1967 0.929 . S
C1977 C1975 1.433 1_655 S
C1977 N1980 1.384 . S
C1978 H1969 0.929 . S
C1978 C1970 1.378 . S
C1978 C1973 1.350 1_655 S
C1979 H1966 0.929 . S
C1979 C1971 1.433 . S
C1979 N1981 1.384 . S
N1980 C1976 1.427 1_655 S
N1980 C1977 1.384 . S
N1981 C1973 1.427 . S
N1981 C1979 1.384 . S
H1982 C1988 0.930 . S
H1983 C1992 0.930 . S
H1984 C1997 0.929 . S
H1985 C1995 0.929 . S
H1986 C1990 0.929 . S
H1987 C1996 0.929 . S
C1988 H1982 0.930 . S
C1988 C1989 1.367 . S
C1988 C1996 1.378 . S
C1989 C1988 1.367 . S
C1989 C1997 1.433 . S
C1990 H1986 0.929 . S
C1990 C1992 1.378 . S
C1990 C1994 1.350 . S
C1991 C1994 1.463 . S
C1991 C1996 1.350 . S
C1991 N1999 1.427 . S
C1992 H1983 0.930 . S
C1992 C1990 1.378 . S
C1992 C1993 1.367 . S
C1993 C1992 1.367 . S
C1993 C1995 1.433 . S
C1994 C1990 1.350 . S
C1994 C1991 1.463 . S
C1994 N1998 1.427 . S
C1995 H1985 0.929 . S
C1995 C1993 1.433 . S
C1995 N1998 1.384 . S
C1996 H1987 0.929 . S
C1996 C1988 1.378 . S
C1996 C1991 1.350 . S
C1997 H1984 0.929 . S
C1997 C1989 1.433 . S
C1997 N1999 1.384 . S
N1998 C1994 1.427 . S
N1998 C1995 1.384 . S
N1999 C1991 1.427 . S
N1999 C1997 1.384 . S
H2000 C2006 0.930 . S
H2001 C2010 0.930 1_554 S
H2002 C2015 0.929 . S
H2003 C2013 0.929 . S
H2004 C2008 0.929 . S
H2005 C2014 0.929 . S
C2006 H2000 0.930 . S
C2006 C2007 1.367 . S
C2006 C2014 1.378 . S
C2007 C2006 1.367 . S
C2007 C2015 1.433 . S
C2008 H2004 0.929 . S
C2008 C2010 1.378 . S
C2008 C2012 1.350 . S
C2009 C2012 1.463 . S
C2009 C2014 1.350 . S
C2009 N2017 1.427 . S
C2010 H2001 0.930 1_556 S
C2010 C2008 1.378 . S
C2010 C2011 1.367 . S
C2011 C2010 1.367 . S
C2011 C2013 1.433 . S
C2012 C2008 1.350 . S
C2012 C2009 1.463 . S
C2012 N2016 1.427 . S
C2013 H2003 0.929 . S
C2013 C2011 1.433 . S
C2013 N2016 1.384 . S
C2014 H2005 0.929 . S
C2014 C2006 1.378 . S
C2014 C2009 1.350 . S
C2015 H2002 0.929 . S
C2015 C2007 1.433 . S
C2015 N2017 1.384 . S
N2016 C2012 1.427 . S
N2016 C2013 1.384 . S
N2017 C2009 1.427 . S
N2017 C2015 1.384 . S
H2018 C2024 0.930 . S
H2019 C2028 0.930 . S
H2020 C2033 0.929 . S
H2021 C2031 0.929 . S
H2022 C2026 0.929 . S
H2023 C2032 0.929 . S
C2024 H2018 0.930 . S
C2024 C2025 1.367 . S
C2024 C2032 1.378 . S
C2025 C2024 1.367 . S
C2025 C2033 1.433 . S
C2026 H2022 0.929 . S
C2026 C2028 1.378 . S
C2026 C2030 1.350 . S
C2027 C2030 1.463 . S
C2027 C2032 1.350 . S
C2027 N2035 1.427 . S
C2028 H2019 0.930 . S
C2028 C2026 1.378 . S
C2028 C2029 1.367 . S
C2029 C2028 1.367 . S
C2029 C2031 1.433 . S
C2030 C2026 1.350 . S
C2030 C2027 1.463 . S
C2030 N2034 1.427 . S
C2031 H2021 0.929 . S
C2031 C2029 1.433 . S
C2031 N2034 1.384 . S
C2032 H2023 0.929 . S
C2032 C2024 1.378 . S
C2032 C2027 1.350 . S
C2033 H2020 0.929 . S
C2033 C2025 1.433 . S
C2033 N2035 1.384 . S
N2034 C2030 1.427 . S
N2034 C2031 1.384 . S
N2035 C2027 1.427 . S
N2035 C2033 1.384 . S
H2036 C2042 0.930 . S
H2037 C2046 0.930 . S
H2038 C2051 0.929 . S
H2039 C2049 0.929 . S
H2040 C2044 0.929 . S
H2041 C2050 0.929 . S
C2042 H2036 0.930 . S
C2042 C2043 1.367 . S
C2042 C2050 1.378 . S
C2043 C2042 1.367 . S
C2043 C2051 1.433 . S
C2044 H2040 0.929 . S
C2044 C2046 1.378 . S
C2044 C2048 1.350 . S
C2045 C2048 1.463 . S
C2045 C2050 1.350 . S
C2045 N2053 1.427 . S
C2046 H2037 0.930 . S
C2046 C2044 1.378 . S
C2046 C2047 1.367 . S
C2047 C2046 1.367 . S
C2047 C2049 1.433 . S
C2048 C2044 1.350 . S
C2048 C2045 1.463 . S
C2048 N2052 1.427 . S
C2049 H2039 0.929 . S
C2049 C2047 1.433 . S
C2049 N2052 1.384 . S
C2050 H2041 0.929 . S
C2050 C2042 1.378 . S
C2050 C2045 1.350 . S
C2051 H2038 0.929 . S
C2051 C2043 1.433 . S
C2051 N2053 1.384 . S
N2052 C2048 1.427 . S
N2052 C2049 1.384 . S
N2053 C2045 1.427 . S
N2053 C2051 1.384 . S
H2054 C2060 0.930 . S
H2055 C2064 0.930 . S
H2056 C2069 0.929 . S
H2057 C2067 0.929 . S
H2058 C2062 0.929 . S
H2059 C2068 0.929 . S
C2060 H2054 0.930 . S
C2060 C2061 1.367 . S
C2060 C2068 1.378 . S
C2061 C2060 1.367 . S
C2061 C2069 1.433 . S
C2062 H2058 0.929 . S
C2062 C2064 1.378 . S
C2062 C2066 1.350 . S
C2063 C2066 1.463 . S
C2063 C2068 1.350 . S
C2063 N2071 1.427 . S
C2064 H2055 0.930 . S
C2064 C2062 1.378 . S
C2064 C2065 1.367 . S
C2065 C2064 1.367 . S
C2065 C2067 1.433 . S
C2066 C2062 1.350 . S
C2066 C2063 1.463 . S
C2066 N2070 1.427 . S
C2067 H2057 0.929 . S
C2067 C2065 1.433 . S
C2067 N2070 1.384 . S
C2068 H2059 0.929 . S
C2068 C2060 1.378 . S
C2068 C2063 1.350 . S
C2069 H2056 0.929 . S
C2069 C2061 1.433 . S
C2069 N2071 1.384 . S
N2070 C2066 1.427 . S
N2070 C2067 1.384 . S
N2071 C2063 1.427 . S
N2071 C2069 1.384 . S
H2072 C2078 0.930 . S
H2073 C2082 0.930 . S
H2074 C2087 0.929 . S
H2075 C2085 0.929 . S
H2076 C2080 0.929 . S
H2077 C2086 0.929 . S
C2078 H2072 0.930 . S
C2078 C2079 1.367 . S
C2078 C2086 1.378 . S
C2079 C2078 1.367 . S
C2079 C2087 1.433 . S
C2080 H2076 0.929 . S
C2080 C2082 1.378 . S
C2080 C2084 1.350 . S
C2081 C2084 1.463 . S
C2081 C2086 1.350 . S
C2081 N2089 1.427 . S
C2082 H2073 0.930 . S
C2082 C2080 1.378 . S
C2082 C2083 1.367 . S
C2083 C2082 1.367 . S
C2083 C2085 1.433 . S
C2084 C2080 1.350 . S
C2084 C2081 1.463 . S
C2084 N2088 1.427 . S
C2085 H2075 0.929 . S
C2085 C2083 1.433 . S
C2085 N2088 1.384 . S
C2086 H2077 0.929 . S
C2086 C2078 1.378 . S
C2086 C2081 1.350 . S
C2087 H2074 0.929 . S
C2087 C2079 1.433 . S
C2087 N2089 1.384 . S
N2088 C2084 1.427 . S
N2088 C2085 1.384 . S
N2089 C2081 1.427 . S
N2089 C2087 1.384 . S
H2090 C2096 0.930 . S
H2091 C2100 0.930 . S
H2092 C2105 0.929 . S
H2093 C2103 0.929 . S
H2094 C2098 0.929 . S
H2095 C2104 0.929 . S
C2096 H2090 0.930 . S
C2096 C2097 1.367 . S
C2096 C2104 1.378 . S
C2097 C2096 1.367 . S
C2097 C2105 1.433 . S
C2098 H2094 0.929 . S
C2098 C2100 1.378 . S
C2098 C2102 1.350 . S
C2099 C2102 1.463 . S
C2099 C2104 1.350 . S
C2099 N2107 1.427 . S
C2100 H2091 0.930 . S
C2100 C2098 1.378 . S
C2100 C2101 1.367 . S
C2101 C2100 1.367 . S
C2101 C2103 1.433 . S
C2102 C2098 1.350 . S
C2102 C2099 1.463 . S
C2102 N2106 1.427 . S
C2103 H2093 0.929 . S
C2103 C2101 1.433 . S
C2103 N2106 1.384 . S
C2104 H2095 0.929 . S
C2104 C2096 1.378 . S
C2104 C2099 1.350 . S
C2105 H2092 0.929 . S
C2105 C2097 1.433 . S
C2105 N2107 1.384 . S
N2106 C2102 1.427 . S
N2106 C2103 1.384 . S
N2107 C2099 1.427 . S
N2107 C2105 1.384 . S
H2108 C2114 0.930 . S
H2109 C2118 0.949 . S
H2110 C2123 0.929 . S
H2111 C2121 0.929 . S
H2112 C2116 0.929 . S
H2113 C2122 0.929 . S
C2114 H2108 0.930 . S
C2114 C2115 1.367 . S
C2114 C2122 1.378 . S
C2115 C2114 1.367 . S
C2115 C2123 1.433 . S
C2116 H2112 0.929 . S
C2116 C2118 1.366 1_655 S
C2116 C2120 1.350 . S
C2117 C2120 1.463 . S
C2117 C2122 1.350 . S
C2117 N2125 1.427 . S
C2118 H2109 0.949 . S
C2118 C2116 1.366 1_455 S
C2118 C2119 1.360 1_455 S
C2119 C2118 1.360 1_655 S
C2119 C2121 1.433 . S
C2120 C2116 1.350 . S
C2120 C2117 1.463 . S
C2120 N2124 1.427 . S
C2121 H2111 0.929 . S
C2121 C2119 1.433 . S
C2121 N2124 1.384 . S
C2122 H2113 0.929 . S
C2122 C2114 1.378 . S
C2122 C2117 1.350 . S
C2123 H2110 0.929 . S
C2123 C2115 1.433 . S
C2123 N2125 1.384 . S
N2124 C2120 1.427 . S
N2124 C2121 1.384 . S
N2125 C2117 1.427 . S
N2125 C2123 1.384 . S
H2126 C2132 0.930 . S
H2127 C2136 0.930 . S
H2128 C2141 0.929 . S
H2129 C2139 0.929 . S
H2130 C2134 0.929 . S
H2131 C2140 0.929 . S
C2132 H2126 0.930 . S
C2132 C2133 1.367 . S
C2132 C2140 1.378 . S
C2133 C2132 1.367 . S
C2133 C2141 1.433 . S
C2134 H2130 0.929 . S
C2134 C2136 1.378 . S
C2134 C2138 1.350 . S
C2135 C2138 1.463 . S
C2135 C2140 1.350 . S
C2135 N2143 1.427 . S
C2136 H2127 0.930 . S
C2136 C2134 1.378 . S
C2136 C2137 1.367 . S
C2137 C2136 1.367 . S
C2137 C2139 1.433 . S
C2138 C2134 1.350 . S
C2138 C2135 1.463 . S
C2138 N2142 1.427 . S
C2139 H2129 0.929 . S
C2139 C2137 1.433 . S
C2139 N2142 1.384 . S
C2140 H2131 0.929 . S
C2140 C2132 1.378 . S
C2140 C2135 1.350 . S
C2141 H2128 0.929 . S
C2141 C2133 1.433 . S
C2141 N2143 1.384 . S
N2142 C2138 1.427 . S
N2142 C2139 1.384 . S
N2143 C2135 1.427 . S
N2143 C2141 1.384 . S
H2144 C2150 0.930 . S
H2145 C2154 0.930 . S
H2146 C2159 0.929 . S
H2147 C2157 0.929 . S
H2148 C2152 0.929 . S
H2149 C2158 0.929 . S
C2150 H2144 0.930 . S
C2150 C2151 1.367 . S
C2150 C2158 1.378 . S
C2151 C2150 1.367 . S
C2151 C2159 1.433 . S
C2152 H2148 0.929 . S
C2152 C2154 1.378 . S
C2152 C2156 1.350 . S
C2153 C2156 1.463 . S
C2153 C2158 1.350 . S
C2153 N2161 1.427 . S
C2154 H2145 0.930 . S
C2154 C2152 1.378 . S
C2154 C2155 1.367 . S
C2155 C2154 1.367 . S
C2155 C2157 1.433 . S
C2156 C2152 1.350 . S
C2156 C2153 1.463 . S
C2156 N2160 1.427 . S
C2157 H2147 0.929 . S
C2157 C2155 1.433 . S
C2157 N2160 1.384 . S
C2158 H2149 0.929 . S
C2158 C2150 1.378 . S
C2158 C2153 1.350 . S
C2159 H2146 0.929 . S
C2159 C2151 1.433 . S
C2159 N2161 1.384 . S
N2160 C2156 1.427 . S
N2160 C2157 1.384 . S
N2161 C2153 1.427 . S
N2161 C2159 1.384 . S
H2162 C2168 0.930 . S
H2163 C2172 0.930 . S
H2164 C2177 0.929 . S
H2165 C2175 0.929 . S
H2166 C2170 0.929 . S
H2167 C2176 0.929 . S
C2168 H2162 0.930 . S
C2168 C2169 1.367 . S
C2168 C2176 1.378 . S
C2169 C2168 1.367 . S
C2169 C2177 1.433 . S
C2170 H2166 0.929 . S
C2170 C2172 1.378 . S
C2170 C2174 1.350 . S
C2171 C2174 1.463 . S
C2171 C2176 1.350 . S
C2171 N2179 1.427 . S
C2172 H2163 0.930 . S
C2172 C2170 1.378 . S
C2172 C2173 1.367 . S
C2173 C2172 1.367 . S
C2173 C2175 1.433 . S
C2174 C2170 1.350 . S
C2174 C2171 1.463 . S
C2174 N2178 1.427 . S
C2175 H2165 0.929 . S
C2175 C2173 1.433 . S
C2175 N2178 1.384 . S
C2176 H2167 0.929 . S
C2176 C2168 1.378 . S
C2176 C2171 1.350 . S
C2177 H2164 0.929 . S
C2177 C2169 1.433 . S
C2177 N2179 1.384 . S
N2178 C2174 1.427 . S
N2178 C2175 1.384 . S
N2179 C2171 1.427 . S
N2179 C2177 1.384 . S
H2180 C2186 0.930 . S
H2181 C2190 0.930 . S
H2182 C2195 0.929 . S
H2183 C2193 0.929 . S
H2184 C2188 0.929 . S
H2185 C2194 0.929 . S
C2186 H2180 0.930 . S
C2186 C2187 1.367 . S
C2186 C2194 1.378 . S
C2187 C2186 1.367 . S
C2187 C2195 1.433 . S
C2188 H2184 0.929 . S
C2188 C2190 1.378 . S
C2188 C2192 1.350 . S
C2189 C2192 1.463 . S
C2189 C2194 1.350 . S
C2189 N2197 1.427 . S
C2190 H2181 0.930 . S
C2190 C2188 1.378 . S
C2190 C2191 1.367 . S
C2191 C2190 1.367 . S
C2191 C2193 1.433 . S
C2192 C2188 1.350 . S
C2192 C2189 1.463 . S
C2192 N2196 1.427 . S
C2193 H2183 0.929 . S
C2193 C2191 1.433 . S
C2193 N2196 1.384 . S
C2194 H2185 0.929 . S
C2194 C2186 1.378 . S
C2194 C2189 1.350 . S
C2195 H2182 0.929 . S
C2195 C2187 1.433 . S
C2195 N2197 1.384 . S
N2196 C2192 1.427 . S
N2196 C2193 1.384 . S
N2197 C2189 1.427 . S
N2197 C2195 1.384 . S
H2198 C2204 0.930 . S
H2199 C2208 0.930 . S
H2200 C2213 0.929 . S
H2201 C2211 0.929 . S
H2202 C2206 0.929 . S
H2203 C2212 0.929 . S
C2204 H2198 0.930 . S
C2204 C2205 1.367 . S
C2204 C2212 1.378 . S
C2205 C2204 1.367 . S
C2205 C2213 1.433 . S
C2206 H2202 0.929 . S
C2206 C2208 1.378 . S
C2206 C2210 1.350 . S
C2207 C2210 1.463 . S
C2207 C2212 1.350 . S
C2207 N2215 1.427 . S
C2208 H2199 0.930 . S
C2208 C2206 1.378 . S
C2208 C2209 1.367 . S
C2209 C2208 1.367 . S
C2209 C2211 1.433 . S
C2210 C2206 1.350 . S
C2210 C2207 1.463 . S
C2210 N2214 1.427 . S
C2211 H2201 0.929 . S
C2211 C2209 1.433 . S
C2211 N2214 1.384 . S
C2212 H2203 0.929 . S
C2212 C2204 1.378 . S
C2212 C2207 1.350 . S
C2213 H2200 0.929 . S
C2213 C2205 1.433 . S
C2213 N2215 1.384 . S
N2214 C2210 1.427 . S
N2214 C2211 1.384 . S
N2215 C2207 1.427 . S
N2215 C2213 1.384 . S
H2216 C2222 0.930 . S
H2217 C2226 0.930 . S
H2218 C2231 0.929 . S
H2219 C2229 0.929 . S
H2220 C2224 0.929 . S
H2221 C2230 0.929 . S
C2222 H2216 0.930 . S
C2222 C2223 1.367 . S
C2222 C2230 1.378 . S
C2223 C2222 1.367 . S
C2223 C2231 1.433 . S
C2224 H2220 0.929 . S
C2224 C2226 1.378 . S
C2224 C2228 1.350 . S
C2225 C2228 1.463 . S
C2225 C2230 1.350 . S
C2225 N2233 1.427 . S
C2226 H2217 0.930 . S
C2226 C2224 1.378 . S
C2226 C2227 1.367 . S
C2227 C2226 1.367 . S
C2227 C2229 1.433 . S
C2228 C2224 1.350 . S
C2228 C2225 1.463 . S
C2228 N2232 1.427 . S
C2229 H2219 0.929 . S
C2229 C2227 1.433 . S
C2229 N2232 1.384 . S
C2230 H2221 0.929 . S
C2230 C2222 1.378 . S
C2230 C2225 1.350 . S
C2231 H2218 0.929 . S
C2231 C2223 1.433 . S
C2231 N2233 1.384 . S
N2232 C2228 1.427 . S
N2232 C2229 1.384 . S
N2233 C2225 1.427 . S
N2233 C2231 1.384 . S
H2234 C2240 0.930 . S
H2235 C2244 0.930 1_545 S
H2236 C2249 0.929 . S
H2237 C2247 0.929 . S
H2238 C2242 0.929 . S
H2239 C2248 0.929 . S
C2240 H2234 0.930 . S
C2240 C2241 1.367 . S
C2240 C2248 1.378 . S
C2241 C2240 1.367 . S
C2241 C2249 1.433 . S
C2242 H2238 0.929 . S
C2242 C2244 1.378 . S
C2242 C2246 1.350 . S
C2243 C2246 1.463 . S
C2243 C2248 1.350 . S
C2243 N2251 1.427 . S
C2244 H2235 0.930 1_565 S
C2244 C2242 1.378 . S
C2244 C2245 1.367 . S
C2245 C2244 1.367 . S
C2245 C2247 1.433 . S
C2246 C2242 1.350 . S
C2246 C2243 1.463 . S
C2246 N2250 1.427 . S
C2247 H2237 0.929 . S
C2247 C2245 1.433 . S
C2247 N2250 1.384 . S
C2248 H2239 0.929 . S
C2248 C2240 1.378 . S
C2248 C2243 1.350 . S
C2249 H2236 0.929 . S
C2249 C2241 1.433 . S
C2249 N2251 1.384 . S
N2250 C2246 1.427 . S
N2250 C2247 1.384 . S
N2251 C2243 1.427 . S
N2251 C2249 1.384 . S
H2252 C2258 0.930 . S
H2253 C2262 0.930 . S
H2254 C2267 0.929 . S
H2255 C2265 0.929 . S
H2256 C2260 0.929 . S
H2257 C2266 0.929 . S
C2258 H2252 0.930 . S
C2258 C2259 1.367 . S
C2258 C2266 1.378 . S
C2259 C2258 1.367 . S
C2259 C2267 1.433 . S
C2260 H2256 0.929 . S
C2260 C2262 1.378 . S
C2260 C2264 1.350 . S
C2261 C2264 1.463 . S
C2261 C2266 1.350 . S
C2261 N2269 1.427 . S
C2262 H2253 0.930 . S
C2262 C2260 1.378 . S
C2262 C2263 1.367 . S
C2263 C2262 1.367 . S
C2263 C2265 1.433 . S
C2264 C2260 1.350 . S
C2264 C2261 1.463 . S
C2264 N2268 1.427 . S
C2265 H2255 0.929 . S
C2265 C2263 1.433 . S
C2265 N2268 1.384 . S
C2266 H2257 0.929 . S
C2266 C2258 1.378 . S
C2266 C2261 1.350 . S
C2267 H2254 0.929 . S
C2267 C2259 1.433 . S
C2267 N2269 1.384 . S
N2268 C2264 1.427 . S
N2268 C2265 1.384 . S
N2269 C2261 1.427 . S
N2269 C2267 1.384 . S
H2270 C2276 0.930 . S
H2271 C2280 0.930 . S
H2272 C2285 0.929 . S
H2273 C2283 0.929 . S
H2274 C2278 0.929 . S
H2275 C2284 0.929 . S
C2276 H2270 0.930 . S
C2276 C2277 1.367 . S
C2276 C2284 1.378 . S
C2277 C2276 1.367 . S
C2277 C2285 1.433 1_556 S
C2278 H2274 0.929 . S
C2278 C2280 1.378 . S
C2278 C2282 1.350 . S
C2279 C2282 1.463 . S
C2279 C2284 1.350 1_554 S
C2279 N2287 1.427 . S
C2280 H2271 0.930 . S
C2280 C2278 1.378 . S
C2280 C2281 1.367 . S
C2281 C2280 1.367 . S
C2281 C2283 1.433 1_554 S
C2282 C2278 1.350 . S
C2282 C2279 1.463 . S
C2282 N2286 1.427 1_554 S
C2283 H2273 0.929 . S
C2283 C2281 1.433 1_556 S
C2283 N2286 1.384 . S
C2284 H2275 0.929 . S
C2284 C2276 1.378 . S
C2284 C2279 1.350 1_556 S
C2285 H2272 0.929 . S
C2285 C2277 1.433 1_554 S
C2285 N2287 1.384 . S
N2286 C2282 1.427 1_556 S
N2286 C2283 1.384 . S
N2287 C2279 1.427 . S
N2287 C2285 1.384 . S
H2288 C2294 0.930 . S
H2289 C2298 0.930 . S
H2290 C2303 0.929 . S
H2291 C2301 0.929 . S
H2292 C2296 0.929 . S
H2293 C2302 0.929 . S
C2294 H2288 0.930 . S
C2294 C2295 1.367 . S
C2294 C2302 1.378 . S
C2295 C2294 1.367 . S
C2295 C2303 1.433 . S
C2296 H2292 0.929 . S
C2296 C2298 1.378 . S
C2296 C2300 1.350 . S
C2297 C2300 1.463 . S
C2297 C2302 1.350 . S
C2297 N2305 1.427 . S
C2298 H2289 0.930 . S
C2298 C2296 1.378 . S
C2298 C2299 1.367 . S
C2299 C2298 1.367 . S
C2299 C2301 1.433 . S
C2300 C2296 1.350 . S
C2300 C2297 1.463 . S
C2300 N2304 1.427 . S
C2301 H2291 0.929 . S
C2301 C2299 1.433 . S
C2301 N2304 1.384 . S
C2302 H2293 0.929 . S
C2302 C2294 1.378 . S
C2302 C2297 1.350 . S
C2303 H2290 0.929 . S
C2303 C2295 1.433 . S
C2303 N2305 1.384 . S
N2304 C2300 1.427 . S
N2304 C2301 1.384 . S
N2305 C2297 1.427 . S
N2305 C2303 1.384 . S
H2306 C2312 0.930 . S
H2307 C2316 0.930 . S
H2308 C2321 0.929 . S
H2309 C2319 0.929 . S
H2310 C2314 0.929 . S
H2311 C2320 0.929 . S
C2312 H2306 0.930 . S
C2312 C2313 1.367 . S
C2312 C2320 1.378 . S
C2313 C2312 1.367 . S
C2313 C2321 1.433 1_554 S
C2314 H2310 0.929 . S
C2314 C2316 1.378 . S
C2314 C2318 1.350 1_556 S
C2315 C2318 1.463 . S
C2315 C2320 1.350 . S
C2315 N2323 1.427 1_554 S
C2316 H2307 0.930 . S
C2316 C2314 1.378 . S
C2316 C2317 1.367 . S
C2317 C2316 1.367 . S
C2317 C2319 1.433 1_556 S
C2318 C2314 1.350 1_554 S
C2318 C2315 1.463 . S
C2318 N2322 1.427 . S
C2319 H2309 0.929 . S
C2319 C2317 1.433 1_554 S
C2319 N2322 1.384 . S
C2320 H2311 0.929 . S
C2320 C2312 1.378 . S
C2320 C2315 1.350 . S
C2321 H2308 0.929 . S
C2321 C2313 1.433 1_556 S
C2321 N2323 1.384 . S
N2322 C2318 1.427 . S
N2322 C2319 1.384 . S
N2323 C2315 1.427 1_556 S
N2323 C2321 1.384 . S
H2324 C2330 0.930 . S
H2325 C2334 0.930 . S
H2326 C2339 0.929 . S
H2327 C2337 0.929 . S
H2328 C2332 0.929 . S
H2329 C2338 0.929 . S
C2330 H2324 0.930 . S
C2330 C2331 1.367 . S
C2330 C2338 1.378 . S
C2331 C2330 1.367 . S
C2331 C2339 1.433 . S
C2332 H2328 0.929 . S
C2332 C2334 1.378 . S
C2332 C2336 1.350 . S
C2333 C2336 1.463 . S
C2333 C2338 1.350 . S
C2333 N2341 1.427 . S
C2334 H2325 0.930 . S
C2334 C2332 1.378 . S
C2334 C2335 1.367 . S
C2335 C2334 1.367 . S
C2335 C2337 1.433 . S
C2336 C2332 1.350 . S
C2336 C2333 1.463 . S
C2336 N2340 1.427 . S
C2337 H2327 0.929 . S
C2337 C2335 1.433 . S
C2337 N2340 1.384 . S
C2338 H2329 0.929 . S
C2338 C2330 1.378 . S
C2338 C2333 1.350 . S
C2339 H2326 0.929 . S
C2339 C2331 1.433 . S
C2339 N2341 1.384 . S
N2340 C2336 1.427 . S
N2340 C2337 1.384 . S
N2341 C2333 1.427 . S
N2341 C2339 1.384 . S
H2342 C2348 0.930 . S
H2343 C2352 0.930 . S
H2344 C2357 0.929 . S
H2345 C2355 0.929 . S
H2346 C2350 0.929 . S
H2347 C2356 0.929 . S
C2348 H2342 0.930 . S
C2348 C2349 1.367 . S
C2348 C2356 1.378 . S
C2349 C2348 1.367 . S
C2349 C2357 1.433 . S
C2350 H2346 0.929 . S
C2350 C2352 1.378 . S
C2350 C2354 1.350 . S
C2351 C2354 1.463 . S
C2351 C2356 1.350 . S
C2351 N2359 1.427 . S
C2352 H2343 0.930 . S
C2352 C2350 1.378 . S
C2352 C2353 1.367 . S
C2353 C2352 1.367 . S
C2353 C2355 1.433 . S
C2354 C2350 1.350 . S
C2354 C2351 1.463 . S
C2354 N2358 1.427 . S
C2355 H2345 0.929 . S
C2355 C2353 1.433 . S
C2355 N2358 1.384 . S
C2356 H2347 0.929 . S
C2356 C2348 1.378 . S
C2356 C2351 1.350 . S
C2357 H2344 0.929 . S
C2357 C2349 1.433 . S
C2357 N2359 1.384 . S
N2358 C2354 1.427 . S
N2358 C2355 1.384 . S
N2359 C2351 1.427 . S
N2359 C2357 1.384 . S
C639 C101 1.256 . S
C643 C328 1.232 . S
C657 C57 1.298 . S
C661 C341 1.311 . S
C675 C73 1.353 . S
C679 C360 1.381 . S
C697 C391 1.867 . S
C693 C78 1.889 . S
C711 C21 1.758 . S
C715 C411 1.751 . S
C733 C428 0.885 . S
C729 C31 0.870 . S
C751 C441 1.477 . S
C747 C49 1.489 . S
C765 C0 0.945 . S
C769 C468 0.962 . S
C787 C321 1.205 . S
C783 C218 1.212 . S
C801 C229 1.408 . S
C805 C351 1.433 . S
C823 C353 1.693 . S
C819 C257 1.730 . S
C841 C388 0.893 . S
C837 C164 0.858 . S
C855 C216 1.083 . S
C859 C408 1.149 . S
C877 C421 1.758 . S
C873 C231 1.755 . S
C895 C451 1.261 . S
C891 C255 1.254 . S
C913 C461 1.176 . S
C909 C166 1.209 . S
C931 C331 1.559 1_565 S
C927 C143 1.568 . S
C945 C265 1.738 1_556 S
C949 C481 1.778 . S
C967 C511 1.535 . S
C963 C299 1.499 . S
C985 C528 1.219 . S
C981 C291 1.199 . S
C999 C104 1.827 . S
C1003 C471 1.807 . S
C1017 C117 1.169 . S
C1021 C358 1.167 . S
C1035 C304 1.751 . S
C1039 C541 1.798 . S
C1057 C568 0.935 . S
C1053 C278 0.938 . S
C1075 C318 1.187 . S
C1071 C60 1.212 . S
C1093 C553 1.249 . S
C1089 C96 1.244 . S
C1107 C88 1.327 . S
C1111 C371 1.303 . S
C1125 C65 1.786 . S
C1129 C540 1.798 . S
C1147 C400 1.686 . S
C1143 C10 1.718 . S
C1161 C44 0.825 . S
C1165 C498 0.826 . S
C1183 C433 1.439 1_556 S
C1179 C34 1.402 . S
C1201 C578 0.914 . S
C1197 C13 0.919 . S
C1219 C313 1.149 . S
C1215 C138 1.130 1_565 S
C1237 C560 1.338 . S
C1233 C296 1.374 . S
C1251 C112 1.599 . S
C1255 C361 1.631 . S
C1269 C270 0.807 . S
C1273 C538 0.794 . S
C1287 C140 1.067 . S
C1291 C398 1.052 . S
C1309 C493 1.711 . S
C1305 C294 1.626 . S
C1323 C114 1.225 . S
C1327 C440 1.208 . S
C1341 C268 1.123 . S
C1345 C573 1.127 . S
C1359 C169 1.517 1_556 S
C1363 C320 1.504 . S
C1377 C161 1.711 . S
C1381 C473 1.729 . S
C1395 C234 1.501 . S
C1399 C420 1.486 . S
C1413 C226 1.124 . S
C1417 C518 1.132 . S
C1435 C580 1.768 . S
C1431 C247 1.758 . S
C1449 C195 1.162 . S
C1453 C368 1.131 1_565 S
C1471 C373 1.736 . S
C1467 C239 1.719 . S
C1489 C338 0.854 . S
C1485 C187 0.877 . S
C1503 C75 1.257 . S
C1507 C608 1.223 . S
C1525 C561 1.321 . S
C1521 C83 1.290 . S
C1539 C99 1.342 . S
C1543 C620 1.377 . S
C1557 C52 1.886 . S
C1561 C551 1.864 . S
C1575 C47 1.758 . S
C1579 C491 1.758 . S
C1597 C508 0.876 . S
C1593 C5 0.883 . S
C1615 C521 1.478 . S
C1611 C23 1.488 . S
C1633 C588 0.951 . S
C1629 C26 0.959 . S
C1651 C601 1.204 . S
C1647 C244 1.213 . S
C1665 C177 1.393 . S
C1669 C571 1.429 . S
C1687 C613 1.692 . S
C1683 C192 1.732 . S
C1705 C548 0.897 . S
C1701 C203 0.854 . S
C1723 C488 1.144 . S
C1719 C242 1.093 . S
C1737 C179 1.755 . S
C1741 C501 1.754 . S
C1759 C531 1.268 . S
C1755 C190 1.244 . S
C1773 C205 1.207 . S
C1777 C581 1.188 . S
C1795 C611 1.560 . S
C1791 C286 1.560 . S
C1809 C122 1.743 . S
C1813 C401 1.777 . S
C1831 C431 1.534 . S
C1827 C130 1.502 . S
C1849 C448 1.202 1_565 S
C1845 C148 1.210 . S
C1867 C591 1.808 . S
C1863 C273 1.827 . S
C1881 C260 1.169 . S
C1885 C618 1.170 . S
C1903 C381 1.795 . S
C1899 C135 1.739 . S
C1921 C348 0.937 . S
C1917 C109 0.936 . S
C1935 C86 1.203 . S
C1939 C598 1.189 . S
C1957 C333 1.247 . S
C1953 C70 1.239 . S
C1971 C62 1.326 . S
C1975 C631 1.302 . S
C1989 C91 1.790 . S
C1993 C380 1.804 . S
C2007 C36 1.720 . S
C2011 C480 1.678 1_556 S
C2029 C418 0.820 . S
C2025 C18 0.834 . S
C2043 C8 1.393 . S
C2047 C513 1.445 . S
C2061 C39 0.926 . S
C2065 C458 0.904 . S
C2083 C593 1.151 . S
C2079 C307 1.122 . S
C2097 C153 1.367 . S
C2101 C340 1.350 . S
C2119 C621 1.624 1_655 S
C2115 C281 1.586 . S
C2133 C127 0.810 . S
C2137 C378 0.799 . S
C2151 C309 1.060 . S
C2155 C478 1.064 . S
C2173 C413 1.707 . S
C2169 C151 1.638 . S
C2187 C283 1.223 . S
C2191 C520 1.200 . S
C2209 C453 1.128 . S
C2205 C125 1.134 . S
C2227 C600 1.505 . S
C2223 C221 1.518 . S
C2245 C393 1.722 1_565 S
C2241 C200 1.705 . S
C2259 C208 1.503 . S
C2263 C500 1.478 . S
C2281 C438 1.130 . S
C2277 C174 1.130 . S
C2295 C182 1.750 . S
C2299 C460 1.769 . S
C2313 C156 1.159 . S
C2317 C628 1.131 . S
C2335 C533 1.736 . S
C2331 C213 1.720 1_565 S
C2353 C558 0.860 . S
C2349 C252 0.871 . S
