# Generated by pormake.
# Topology rtl, (3,6)-cn, num edge types: 1
# Building blocks:
#     Node 0, Type 0, BuildingBlock: OLANEW_clean_sbu_2, # of connection points: 3
#     Node 1, Type 0, BuildingBlock: OLANEW_clean_sbu_2, # of connection points: 3
#     Node 2, Type 0, BuildingBlock: OLANEW_clean_sbu_2, # of connection points: 3
#     Node 3, Type 0, BuildingBlock: OLANEW_clean_sbu_2, # of connection points: 3
#     Node 4, Type 1, BuildingBlock: KUMJIN_clean_sbu_1, # of connection points: 6
#     Node 5, Type 1, BuildingBlock: KUMJIN_clean_sbu_1, # of connection points: 6
#     Edge 6, Type (0, 1), BuildingBlock: KIFKEQ_clean_linker_1, # of connection points: 2
#     Edge 7, Type (0, 1), BuildingBlock: KIFKEQ_clean_linker_1, # of connection points: 2
#     Edge 8, Type (0, 1), BuildingBlock: KIFKEQ_clean_linker_1, # of connection points: 2
#     Edge 9, Type (0, 1), BuildingBlock: KIFKEQ_clean_linker_1, # of connection points: 2
#     Edge 10, Type (0, 1), BuildingBlock: KIFKEQ_clean_linker_1, # of connection points: 2
#     Edge 11, Type (0, 1), BuildingBlock: KIFKEQ_clean_linker_1, # of connection points: 2
#     Edge 12, Type (0, 1), BuildingBlock: KIFKEQ_clean_linker_1, # of connection points: 2
#     Edge 13, Type (0, 1), BuildingBlock: KIFKEQ_clean_linker_1, # of connection points: 2
#     Edge 14, Type (0, 1), BuildingBlock: KIFKEQ_clean_linker_1, # of connection points: 2
#     Edge 15, Type (0, 1), BuildingBlock: KIFKEQ_clean_linker_1, # of connection points: 2
#     Edge 16, Type (0, 1), BuildingBlock: KIFKEQ_clean_linker_1, # of connection points: 2
#     Edge 17, Type (0, 1), BuildingBlock: KIFKEQ_clean_linker_1, # of connection points: 2
# Relax obj value: 0.043
# Max RMSD: 0.165
# Mean RMSD: 0.131
data_MOF--net-rtl--node1-OLANEW_clean_sbu_2--node2-KUMJIN_clean_sbu_1--edge1-KIFKEQ_clean_linker_1
_symmetry_space_group_name_H-M    P1
_symmetry_Int_Tables_number       1
_symmetry_cell_setting            triclinic
loop_
_symmetry_equiv_pos_as_xyz
'x, y, z'
_cell_length_a     38.271344
_cell_length_b     38.112537
_cell_length_c     29.594487
_cell_angle_alpha  75.908394
_cell_angle_beta   102.73166
_cell_angle_gamma 91.152657
loop_
_atom_site_label
_atom_site_type_symbol
_atom_site_fract_x
_atom_site_fract_y
_atom_site_fract_z
_atom_type_partial_charge
O0 O 0.20765 0.83323 0.98808 0.0
Cd1 Cd 0.24862 0.8075 0.06495 0.0
O2 O 0.22225 0.88906 0.99008 0.0
Cd3 Cd 0.24125 0.87404 0.06755 0.0
O4 O 0.22013 0.87636 0.12969 0.0
C5 C 0.21023 0.90756 0.13144 0.0
O6 O 0.21591 0.93586 0.09863 0.0
C7 C 0.20613 0.86681 0.96759 0.0
C8 C 0.29777 0.75697 0.05728 0.0
O9 O 0.26845 0.74694 0.06989 0.0
O10 O 0.30389 0.79087 0.04826 0.0
O11 O 0.65666 0.73875 0.70996 0.0
Cd12 Cd 0.66996 0.77849 0.63709 0.0
O13 O 0.64345 0.69487 0.67316 0.0
Cd14 Cd 0.65499 0.72099 0.60408 0.0
O15 O 0.6518 0.71276 0.53285 0.0
C16 C 0.62533 0.69465 0.51811 0.0
O17 O 0.6019 0.68477 0.54487 0.0
C18 C 0.64596 0.70687 0.7102 0.0
C19 C 0.73745 0.8091 0.64114 0.0
O20 O 0.71202 0.82431 0.65216 0.0
O21 O 0.73146 0.77868 0.63009 0.0
O22 O 0.75354 0.13331 0.17816 0.0
Cd23 Cd 0.70664 0.15155 0.10456 0.0
O24 O 0.78714 0.12099 0.13289 0.0
Cd25 Cd 0.83154 0.10147 0.10867 0.0
O26 O 0.86167 0.09858 0.05475 0.0
C27 C 0.85668 0.07407 0.03172 0.0
O28 O 0.83435 0.04838 0.04256 0.0
C29 C 0.7833 0.12139 0.17441 0.0
C30 C 0.67067 0.21791 0.0896 0.0
O31 O 0.66053 0.18871 0.11458 0.0
O32 O 0.69838 0.21593 0.07253 0.0
O33 O 0.31857 0.29584 0.55593 0.0
Cd34 Cd 0.30469 0.26477 0.49087 0.0
O35 O 0.36276 0.32505 0.52833 0.0
Cd36 Cd 0.35462 0.31067 0.45971 0.0
O37 O 0.3672 0.32779 0.38904 0.0
C38 C 0.39879 0.33896 0.38969 0.0
O39 O 0.42059 0.3374 0.43127 0.0
C40 C 0.3445 0.31711 0.56029 0.0
C41 C 0.25246 0.21278 0.50204 0.0
O42 O 0.28546 0.20527 0.52287 0.0
O43 O 0.24402 0.24494 0.47614 0.0
Eu44 Eu 0.02421 0.95471 0.53826 0.0
C45 C 0.93601 0.09352 0.49129 0.0
N46 N 0.97083 0.08728 0.51535 0.0
C47 C 0.98768 0.14177 0.46615 0.0
C48 C 0.92594 0.12388 0.45234 0.0
C49 C 0.99652 0.11115 0.50423 0.0
C50 C 0.9523 0.14805 0.4399 0.0
C51 C 0.87446 0.07438 0.47962 0.0
C52 C 0.9106 0.06879 0.50477 0.0
C53 C 0.86455 0.10413 0.44011 0.0
C54 C 0.89017 0.12886 0.42662 0.0
Eu55 Eu 0.98289 0.03539 0.57942 0.0
N56 N 0.92093 0.03987 0.54289 0.0
C57 C 0.84914 0.05033 0.49557 0.0
C58 C 0.89575 0.0186 0.56115 0.0
C59 C 0.85973 0.02278 0.53709 0.0
H60 H 0.02384 0.10632 0.52466 0.0
H61 H 0.84005 0.0052 0.55116 0.0
H62 H 0.96818 0.88585 0.54254 0.0
H63 H 0.16487 0.95754 0.62955 0.0
H64 H 0.90295 0.99908 0.59501 0.0
H65 H 0.82115 0.05368 0.47721 0.0
H66 H 0.10831 0.98243 0.57435 0.0
H67 H 0.00814 0.16046 0.45699 0.0
H68 H 0.83699 0.10854 0.42012 0.0
H69 H 0.88202 0.15178 0.39623 0.0
H70 H 0.9683 0.82145 0.58524 0.0
H71 H 0.9456 0.17165 0.41014 0.0
H72 H 0.16977 0.89342 0.67477 0.0
N73 N 0.02206 0.89289 0.57575 0.0
C74 C 0.05288 0.87709 0.60574 0.0
C75 C 0.9922 0.83684 0.59152 0.0
C76 C 0.05432 0.8403 0.63042 0.0
C77 C 0.99204 0.87338 0.56786 0.0
C78 C 0.02343 0.82023 0.62305 0.0
N79 N 0.08028 0.93384 0.58998 0.0
C80 C 0.1095 0.95485 0.59467 0.0
C81 C 0.11506 0.88245 0.64426 0.0
C82 C 0.08293 0.898 0.61266 0.0
C83 C 0.14465 0.90433 0.65074 0.0
C84 C 0.14191 0.94059 0.62552 0.0
H85 H 0.02346 0.79191 0.64139 0.0
H86 H 0.08786 0.7966 0.6812 0.0
H87 H 0.141 0.83347 0.69328 0.0
O88 O 0.05273 0.9658 0.48027 0.0
O89 O 0.03279 0.94715 0.6183 0.0
O90 O 0.02907 0.00326 0.63492 0.0
O91 O 0.02268 0.91706 0.49297 0.0
O92 O 0.04942 0.01019 0.52365 0.0
O93 O 0.04217 0.03689 0.58343 0.0
O94 O 0.95745 0.04704 0.63507 0.0
O95 O 0.98459 0.03867 0.50162 0.0
O96 O 0.97191 0.98174 0.49358 0.0
O97 O 0.99716 0.08268 0.60688 0.0
O98 O 0.96394 0.97825 0.60504 0.0
O99 O 0.96574 0.9522 0.54275 0.0
C100 C 0.0396 0.96891 0.6472 0.0
C101 C 0.02842 0.94215 0.414 0.0
C102 C 0.0408 0.94095 0.33693 0.0
C103 C 0.00465 0.95104 0.31523 0.0
C104 C 0.99256 0.95239 0.39182 0.0
C105 C 0.9808 0.95679 0.34257 0.0
C106 C 0.05238 0.93666 0.38656 0.0
C107 C 0.05861 0.03358 0.55018 0.0
C108 C 0.04157 0.93706 0.46567 0.0
C109 C 0.0863 0.8248 0.66187 0.0
C110 C 0.11657 0.8458 0.66874 0.0
C111 C 0.96794 0.01679 0.47668 0.0
C112 C 0.9726 0.10127 0.66614 0.0
C113 C 0.95394 0.1156 0.73372 0.0
C114 C 0.96971 0.14948 0.72342 0.0
C115 C 0.98782 0.13543 0.65656 0.0
C116 C 0.95557 0.09144 0.70482 0.0
C117 C 0.98636 0.15927 0.68505 0.0
C118 C 0.95348 0.95377 0.58052 0.0
C119 C 0.97556 0.07631 0.6359 0.0
H120 H 0.99469 0.95414 0.27723 0.0
H121 H 0.97375 0.95685 0.41253 0.0
H122 H 0.95307 0.96454 0.32555 0.0
H123 H 0.08021 0.92948 0.40397 0.0
H124 H 0.96966 0.16835 0.74549 0.0
H125 H 1.00102 0.14377 0.62701 0.0
H126 H 0.94362 0.06523 0.71229 0.0
H127 H 0.99839 0.1854 0.67754 0.0
Eu128 Eu 0.46497 0.50582 0.98447 0.0
C129 C 0.61321 0.56815 0.02799 0.0
N130 N 0.60404 0.53406 0.04748 0.0
C131 C 0.65597 0.50902 0.03244 0.0
C132 C 0.64403 0.57382 0.00874 0.0
C133 C 0.625 0.50464 0.05065 0.0
C134 C 0.66547 0.54374 0.01123 0.0
C135 C 0.59948 0.63281 0.00448 0.0
C136 C 0.59087 0.59729 0.02561 0.0
C137 C 0.62985 0.63847 0.98461 0.0
C138 C 0.6521 0.6091 0.98683 0.0
Eu139 Eu 0.55176 0.52921 0.07765 0.0
N140 N 0.56117 0.59104 0.0444 0.0
C141 C 0.57767 0.66174 0.0047 0.0
C142 C 0.54196 0.61945 0.0486 0.0
C143 C 0.54922 0.65505 0.0277 0.0
H144 H 0.61755 0.47781 0.06699 0.0
H145 H 0.53331 0.67737 0.03023 0.0
H146 H 0.40056 0.56607 0.97814 0.0
H147 H 0.46527 0.3574 0.03617 0.0
H148 H 0.52174 0.61521 0.06933 0.0
H149 H 0.58336 0.6894 0.98881 0.0
H150 H 0.48617 0.41656 0.9998 0.0
H151 H 0.67243 0.48565 0.0346 0.0
H152 H 0.63658 0.66555 0.96784 0.0
H153 H 0.67546 0.61395 0.97141 0.0
H154 H 0.34273 0.5672 0.00201 0.0
H155 H 0.68931 0.54701 0.99675 0.0
H156 H 0.40994 0.35359 0.06701 0.0
N157 N 0.40861 0.50916 0.00348 0.0
C158 C 0.39459 0.47719 0.02195 0.0
C159 C 0.35716 0.54173 0.00817 0.0
C160 C 0.36148 0.47646 0.0356 0.0
C161 C 0.39013 0.54111 0.99535 0.0
C162 C 0.34287 0.50928 0.0287 0.0
N163 N 0.44608 0.44679 0.01527 0.0
C164 C 0.46341 0.41572 0.01571 0.0
C165 C 0.40027 0.41167 0.04805 0.0
C166 C 0.41401 0.44518 0.02844 0.0
C167 C 0.41959 0.37986 0.05217 0.0
C168 C 0.45096 0.3819 0.03513 0.0
H169 H 0.31737 0.50985 0.03876 0.0
H170 H 0.3229 0.44208 0.06701 0.0
H171 H 0.35673 0.38538 0.07768 0.0
O172 O 0.45944 0.48421 0.92005 0.0
O173 O 0.4608 0.49711 0.06207 0.0
O174 O 0.51822 0.4836 0.1081 0.0
O175 O 0.42309 0.52728 0.92166 0.0
O176 O 0.517 0.47215 0.99751 0.0
O177 O 0.54758 0.47069 0.07515 0.0
O178 O 0.56459 0.55085 0.14187 0.0
O179 O 0.55394 0.52985 0.00131 0.0
O180 O 0.49879 0.55272 0.95831 0.0
O181 O 0.59708 0.50643 0.13584 0.0
O182 O 0.49803 0.55605 0.07271 0.0
O183 O 0.47083 0.56324 0.9933 0.0
C184 C 0.48332 0.48005 0.10121 0.0
C185 C 0.41278 0.5091 0.84756 0.0
C186 C 0.38796 0.48203 0.78102 0.0
C187 C 0.37249 0.51599 0.75422 0.0
C188 C 0.39694 0.54266 0.82004 0.0
C189 C 0.37713 0.54606 0.77359 0.0
C190 C 0.40868 0.47883 0.82769 0.0
C191 C 0.5397 0.45655 0.03792 0.0
C192 C 0.43194 0.50604 0.89744 0.0
C193 C 0.34818 0.44316 0.05604 0.0
C194 C 0.36752 0.41088 0.06225 0.0
C195 C 0.53358 0.55066 0.96321 0.0
C196 C 0.61523 0.52673 0.20879 0.0
C197 C 0.63475 0.55177 0.27852 0.0
C198 C 0.65994 0.52271 0.29893 0.0
C199 C 0.64077 0.49816 0.22985 0.0
C200 C 0.61231 0.5535 0.23328 0.0
C201 C 0.66291 0.49621 0.27466 0.0
C202 C 0.47376 0.57177 0.03439 0.0
C203 C 0.59193 0.52828 0.16141 0.0
H204 H 0.35699 0.51937 0.71798 0.0
H205 H 0.39984 0.56635 0.8345 0.0
H206 H 0.36513 0.57206 0.7526 0.0
H207 H 0.42047 0.45275 0.84892 0.0
H208 H 0.67705 0.52009 0.33408 0.0
H209 H 0.64356 0.47715 0.21183 0.0
H210 H 0.59298 0.57585 0.2169 0.0
H211 H 0.68233 0.47395 0.29078 0.0
H212 H 0.18469 0.2141 0.44705 0.0
H213 H 0.25806 0.14894 0.57 0.0
H214 H 0.13908 0.16868 0.4574 0.0
H215 H 0.21222 0.10391 0.5806 0.0
H216 H 0.10223 0.06371 0.61517 0.0
H217 H 0.15015 0.10566 0.60228 0.0
H218 H 0.13046 0.10043 0.45478 0.0
H219 H 0.08262 0.05782 0.46783 0.0
C220 C 0.19108 0.19011 0.47624 0.0
C221 C 0.22494 0.18515 0.50781 0.0
C222 C 0.16506 0.16404 0.48192 0.0
C223 C 0.17218 0.13284 0.51977 0.0
C224 C 0.20602 0.12782 0.55125 0.0
C225 C 0.23225 0.15355 0.54509 0.0
C226 C 0.10823 0.07135 0.58004 0.0
C227 C 0.08871 0.05754 0.54246 0.0
C228 C 0.13576 0.0952 0.57276 0.0
C229 C 0.14394 0.10627 0.52755 0.0
C230 C 0.12453 0.0924 0.48993 0.0
C231 C 0.09738 0.06791 0.49746 0.0
H232 H 0.29831 0.68329 0.08861 0.0
H233 H 0.35625 0.77006 0.01734 0.0
H234 H 0.34159 0.63917 0.08301 0.0
H235 H 0.39944 0.7258 0.01165 0.0
H236 H 0.44241 0.62998 0.96399 0.0
H237 H 0.39997 0.67528 0.96928 0.0
H238 H 0.40739 0.62217 0.11784 0.0
H239 H 0.44979 0.577 0.11253 0.0
C240 C 0.32023 0.69296 0.0717 0.0
C241 C 0.32386 0.73019 0.05348 0.0
C242 C 0.34511 0.66769 0.06874 0.0
C243 C 0.37391 0.67906 0.04698 0.0
C244 C 0.37736 0.71625 0.02832 0.0
C245 C 0.35273 0.74157 0.0318 0.0
C246 C 0.43501 0.62814 0.99775 0.0
C247 C 0.44928 0.60002 0.03783 0.0
C248 C 0.41089 0.6541 0.00085 0.0
C249 C 0.40029 0.65216 0.04393 0.0
C250 C 0.41481 0.62414 0.08406 0.0
C251 C 0.43928 0.59849 0.08114 0.0
H252 H 0.7926 0.78859 0.60687 0.0
H253 H 0.75993 0.87114 0.66803 0.0
H254 H 0.84664 0.82145 0.59531 0.0
H255 H 0.81391 0.90402 0.65623 0.0
H256 H 0.93083 0.93715 0.66453 0.0
H257 H 0.88055 0.90008 0.68306 0.0
H258 H 0.85929 0.87961 0.54247 0.0
H259 H 0.90904 0.91699 0.52368 0.0
C260 C 0.79709 0.81354 0.61831 0.0
C261 C 0.77185 0.82727 0.63826 0.0
C262 C 0.82795 0.83248 0.61138 0.0
C263 C 0.83446 0.86544 0.62461 0.0
C264 C 0.80983 0.87857 0.64601 0.0
C265 C 0.77881 0.85978 0.65259 0.0
C266 C 0.91548 0.92463 0.63765 0.0
C267 C 0.9241 0.92987 0.59273 0.0
C268 C 0.88664 0.90348 0.64823 0.0
C269 C 0.866 0.8868 0.6143 0.0
C270 C 0.875 0.89161 0.56967 0.0
C271 C 0.90357 0.91303 0.55893 0.0
H272 H 0.61592 0.23202 0.12889 0.0
H273 H 0.67963 0.28247 0.02859 0.0
H274 H 0.58269 0.28918 0.11354 0.0
H275 H 0.64629 0.3398 0.01338 0.0
H276 H 0.55258 0.42648 0.96727 0.0
H277 H 0.58341 0.36819 0.97779 0.0
H278 H 0.59765 0.34919 0.13075 0.0
H279 H 0.56702 0.40675 0.12043 0.0
C280 C 0.62285 0.25529 0.10356 0.0
C281 C 0.65058 0.25273 0.08019 0.0
C282 C 0.60384 0.28805 0.09484 0.0
C283 C 0.61193 0.31897 0.06229 0.0
C284 C 0.63926 0.31634 0.03831 0.0
C285 C 0.65852 0.28359 0.04735 0.0
C286 C 0.56221 0.4097 0.00303 0.0
C287 C 0.55746 0.42123 0.04298 0.0
C288 C 0.58 0.37651 0.00908 0.0
C289 C 0.59285 0.35412 0.05511 0.0
C290 C 0.58773 0.36562 0.09484 0.0
C291 C 0.5704 0.39878 0.08887 0.0
H292 H 0.18894 0.97051 0.14731 0.0
H293 H 0.18313 0.85435 0.19364 0.0
H294 H 0.1496 0.97814 0.1988 0.0
H295 H 0.14287 0.862 0.24425 0.0
H296 H 0.0946 0.88878 0.36056 0.0
H297 H 0.13808 0.88102 0.31445 0.0
H298 H 0.08758 0.97133 0.20069 0.0
H299 H 0.04539 0.98031 0.24782 0.0
C300 C 0.17936 0.94656 0.16862 0.0
C301 C 0.18905 0.91182 0.16617 0.0
C302 C 0.15654 0.95095 0.19788 0.0
C303 C 0.14265 0.92071 0.22525 0.0
C304 C 0.15325 0.88589 0.22395 0.0
C305 C 0.17627 0.88149 0.19481 0.0
C306 C 0.09303 0.90727 0.32595 0.0
C307 C 0.06653 0.93529 0.30802 0.0
C308 C 0.11773 0.90253 0.29925 0.0
C309 C 0.11647 0.92561 0.2539 0.0
C310 C 0.08974 0.95339 0.23581 0.0
C311 C 0.06516 0.95822 0.26256 0.0
H312 H 0.62831 0.72745 0.78554 0.0
H313 H 0.63588 0.6344 0.72857 0.0
H314 H 0.60239 0.68983 0.84903 0.0
H315 H 0.60999 0.59729 0.79126 0.0
H316 H 0.59259 0.53348 0.93534 0.0
H317 H 0.62339 0.57201 0.87866 0.0
H318 H 0.54409 0.65789 0.85266 0.0
H319 H 0.5135 0.61924 0.91006 0.0
C320 C 0.6249 0.69896 0.78689 0.0
C321 C 0.63406 0.68396 0.75191 0.0
C322 C 0.60978 0.67753 0.82293 0.0
C323 C 0.60398 0.64066 0.82495 0.0
C324 C 0.61434 0.62551 0.79095 0.0
C325 C 0.62907 0.64689 0.75484 0.0
C326 C 0.58172 0.56056 0.91734 0.0
C327 C 0.55063 0.57339 0.92673 0.0
C328 C 0.5993 0.58259 0.8849 0.0
C329 C 0.58619 0.618 0.86121 0.0
C330 C 0.55504 0.63087 0.87074 0.0
C331 C 0.53725 0.60863 0.90297 0.0
H332 H 0.85628 0.11669 0.18291 0.0
H333 H 0.77445 0.09445 0.26486 0.0
H334 H 0.90199 0.0908 0.25497 0.0
H335 H 0.82014 0.06942 0.3369 0.0
H336 H 0.90514 0.98867 0.4414 0.0
H337 H 0.86129 0.01448 0.36745 0.0
H338 H 0.92989 0.10412 0.33456 0.0
H339 H 0.97389 0.078 0.40866 0.0
C340 C 0.84798 0.10594 0.21608 0.0
C341 C 0.81163 0.10693 0.2179 0.0
C342 C 0.87422 0.09158 0.2575 0.0
C343 C 0.8646 0.07774 0.30148 0.0
C344 C 0.82832 0.07931 0.30338 0.0
C345 C 0.80219 0.09389 0.26215 0.0
C346 C 0.91095 0.01369 0.41806 0.0
C347 C 0.94269 0.03153 0.43067 0.0
C348 C 0.88576 0.02863 0.37601 0.0
C349 C 0.89207 0.06143 0.34532 0.0
C350 C 0.92439 0.0787 0.35732 0.0
C351 C 0.94943 0.06392 0.39975 0.0
H352 H 0.40294 0.35606 0.58561 0.0
H353 H 0.3052 0.31706 0.62767 0.0
H354 H 0.41429 0.38945 0.6473 0.0
H355 H 0.31691 0.35037 0.69014 0.0
H356 H 0.32475 0.46101 0.73406 0.0
H357 H 0.31568 0.41516 0.68828 0.0
H358 H 0.42862 0.38548 0.73364 0.0
H359 H 0.43775 0.43211 0.7789 0.0
C360 C 0.38406 0.3542 0.60844 0.0
C361 C 0.35292 0.33416 0.6013 0.0
C362 C 0.39079 0.37312 0.64418 0.0
C363 C 0.36649 0.37266 0.67361 0.0
C364 C 0.33599 0.35153 0.66772 0.0
C365 C 0.32935 0.33235 0.63206 0.0
C366 C 0.34757 0.44441 0.73465 0.0
C367 C 0.38204 0.45045 0.7595 0.0
C368 C 0.34233 0.41788 0.70881 0.0
C369 C 0.37146 0.39681 0.70702 0.0
C370 C 0.4057 0.40157 0.73389 0.0
C371 C 0.41091 0.42804 0.76009 0.0
H372 H 0.57633 0.64923 0.48382 0.0
H373 H 0.66933 0.70898 0.45462 0.0
H374 H 0.57693 0.62037 0.41939 0.0
H375 H 0.66922 0.68091 0.38875 0.0
H376 H 0.68904 0.58247 0.33113 0.0
H377 H 0.68422 0.62216 0.38256 0.0
H378 H 0.5688 0.6256 0.33579 0.0
H379 H 0.57361 0.58409 0.28625 0.0
C380 C 0.59653 0.65676 0.46303 0.0
C381 C 0.62307 0.68107 0.47478 0.0
C382 C 0.5967 0.64036 0.42572 0.0
C383 C 0.62328 0.64806 0.39899 0.0
C384 C 0.64875 0.67384 0.40918 0.0
C385 C 0.6487 0.6901 0.44676 0.0
C386 C 0.6626 0.59162 0.33185 0.0
C387 C 0.6317 0.57959 0.30515 0.0
C388 C 0.65985 0.61489 0.36084 0.0
C389 C 0.6261 0.62699 0.36361 0.0
C390 C 0.59521 0.61637 0.33509 0.0
C391 C 0.59797 0.59288 0.30625 0.0
H392 H 0.89647 0.12865 0.99281 0.0
H393 H 0.85357 0.02566 0.97594 0.0
H394 H 0.9188 0.13585 0.9203 0.0
H395 H 0.87608 0.03305 0.90299 0.0
H396 H 0.95806 0.05067 0.80081 0.0
H397 H 0.93486 0.0379 0.87384 0.0
H398 H 0.88817 0.14627 0.83354 0.0
H399 H 0.91054 0.15881 0.7606 0.0
C400 C 0.89202 0.10739 0.97388 0.0
C401 C 0.87299 0.07669 0.99004 0.0
C402 C 0.90464 0.11164 0.93214 0.0
C403 C 0.89879 0.08521 0.90569 0.0
C404 C 0.881 0.05382 0.92271 0.0
C405 C 0.86804 0.04968 0.96438 0.0
C406 C 0.94227 0.0715 0.80716 0.0
C407 C 0.93661 0.10594 0.77523 0.0
C408 C 0.92913 0.06422 0.84902 0.0
C409 C 0.91031 0.09133 0.85975 0.0
C410 C 0.90334 0.12514 0.82678 0.0
C411 C 0.91617 0.1323 0.78499 0.0
H412 H 0.35895 0.35351 0.29727 0.0
H413 H 0.46492 0.36316 0.381 0.0
H414 H 0.37812 0.38479 0.2246 0.0
H415 H 0.48367 0.39478 0.30911 0.0
H416 H 0.51804 0.42326 0.17002 0.0
H417 H 0.49638 0.38562 0.23661 0.0
H418 H 0.39502 0.44583 0.18737 0.0
H419 H 0.41681 0.4835 0.12048 0.0
C420 C 0.38633 0.36209 0.30016 0.0
C421 C 0.41039 0.35584 0.34496 0.0
C422 C 0.39723 0.38021 0.2586 0.0
C423 C 0.43243 0.39226 0.26101 0.0
C424 C 0.45653 0.3854 0.30576 0.0
C425 C 0.44568 0.36743 0.34713 0.0
C426 C 0.49111 0.42845 0.17338 0.0
C427 C 0.46917 0.45643 0.14016 0.0
C428 C 0.47869 0.40688 0.21154 0.0
C429 C 0.44408 0.4129 0.21762 0.0
C430 C 0.42169 0.44022 0.1835 0.0
C431 C 0.43416 0.46183 0.14519 0.0
H432 H 0.21184 0.92988 0.90238 0.0
H433 H 0.14823 0.83498 0.92454 0.0
H434 H 0.17169 0.95416 0.825 0.0
H435 H 0.10673 0.86003 0.84896 0.0
H436 H 0.05442 0.89781 0.69326 0.0
H437 H 0.09694 0.87297 0.76741 0.0
H438 H 0.11538 0.98092 0.78824 0.0
H439 H 0.07537 0.00597 0.71105 0.0
C440 C 0.18917 0.91427 0.89066 0.0
C441 C 0.18326 0.88047 0.91933 0.0
C442 C 0.16586 0.92835 0.84652 0.0
C443 C 0.13561 0.90931 0.8305 0.0
C444 C 0.12999 0.8753 0.85932 0.0
C445 C 0.15375 0.8609 0.9029 0.0
C446 C 0.06808 0.91635 0.7131 0.0
C447 C 0.06219 0.95395 0.69547 0.0
C448 C 0.09208 0.90201 0.75635 0.0
C449 C 0.10997 0.92481 0.78418 0.0
C450 C 0.10291 0.96245 0.76741 0.0
C451 C 0.07948 0.97686 0.72342 0.0
loop_
_geom_bond_atom_site_label_1
_geom_bond_atom_site_label_2
_geom_bond_distance
_geom_bond_site_symmetry_2
_ccdc_geom_bond_type
O0 Cd1 2.300 1_556 S
O0 C7 1.275 . S
Cd1 O0 2.300 1_554 S
Cd1 O9 2.381 . S
Cd1 O10 2.378 . S
O2 Cd3 2.385 1_556 S
O2 C7 1.255 . S
Cd3 O2 2.385 1_554 S
Cd3 O4 2.317 . S
O4 Cd3 2.317 . S
O4 C5 1.232 . S
C5 O4 1.232 . S
C5 O6 1.218 . S
O6 C5 1.218 . S
C7 O0 1.275 . S
C7 O2 1.255 . S
C8 O9 1.258 . S
C8 O10 1.256 . S
O9 Cd1 2.381 . S
O9 C8 1.258 . S
O10 Cd1 2.378 . S
O10 C8 1.256 . S
O11 Cd12 2.300 . S
O11 C18 1.275 . S
Cd12 O11 2.300 . S
Cd12 O20 2.381 . S
Cd12 O21 2.378 . S
O13 Cd14 2.385 . S
O13 C18 1.255 . S
Cd14 O13 2.385 . S
Cd14 O15 2.317 . S
O15 Cd14 2.317 . S
O15 C16 1.232 . S
C16 O15 1.232 . S
C16 O17 1.218 . S
O17 C16 1.218 . S
C18 O11 1.275 . S
C18 O13 1.255 . S
C19 O20 1.258 . S
C19 O21 1.256 . S
O20 Cd12 2.381 . S
O20 C19 1.258 . S
O21 Cd12 2.378 . S
O21 C19 1.256 . S
O22 Cd23 2.300 . S
O22 C29 1.275 . S
Cd23 O22 2.300 . S
Cd23 O31 2.381 . S
Cd23 O32 2.378 . S
O24 Cd25 2.385 . S
O24 C29 1.255 . S
Cd25 O24 2.385 . S
Cd25 O26 2.317 . S
O26 Cd25 2.317 . S
O26 C27 1.232 . S
C27 O26 1.232 . S
C27 O28 1.218 . S
O28 C27 1.218 . S
C29 O22 1.275 . S
C29 O24 1.255 . S
C30 O31 1.258 . S
C30 O32 1.256 . S
O31 Cd23 2.381 . S
O31 C30 1.258 . S
O32 Cd23 2.378 . S
O32 C30 1.256 . S
O33 Cd34 2.300 . S
O33 C40 1.275 . S
Cd34 O33 2.300 . S
Cd34 O42 2.381 . S
Cd34 O43 2.378 . S
O35 Cd36 2.385 . S
O35 C40 1.255 . S
Cd36 O35 2.385 . S
Cd36 O37 2.317 . S
O37 Cd36 2.317 . S
O37 C38 1.232 . S
C38 O37 1.232 . S
C38 O39 1.218 . S
O39 C38 1.218 . S
C40 O33 1.275 . S
C40 O35 1.255 . S
C41 O42 1.258 . S
C41 O43 1.256 . S
O42 Cd34 2.381 . S
O42 C41 1.258 . S
O43 Cd34 2.378 . S
O43 C41 1.256 . S
Eu44 N73 2.600 . S
Eu44 N79 2.562 . S
Eu44 O88 2.462 . S
Eu44 O89 2.373 . S
Eu44 O91 2.432 . S
Eu44 O92 2.291 1_565 S
Eu44 O96 2.335 1_465 S
Eu44 O99 2.372 1_455 S
Eu44 C108 2.787 . S
C45 N46 1.365 . S
C45 C48 1.405 . S
C45 C52 1.448 . S
N46 C45 1.365 . S
N46 C49 1.319 1_655 S
N46 Eu55 2.600 . S
C47 C49 1.397 . S
C47 C50 1.367 1_455 S
C47 H67 0.931 . S
C48 C45 1.405 . S
C48 C50 1.403 . S
C48 C54 1.439 . S
C49 N46 1.319 1_455 S
C49 C47 1.397 . S
C49 H60 0.930 . S
C50 C47 1.367 1_655 S
C50 C48 1.403 . S
C50 H71 0.929 . S
C51 C52 1.430 . S
C51 C53 1.387 . S
C51 C57 1.404 . S
C52 C45 1.448 . S
C52 C51 1.430 . S
C52 N56 1.351 . S
C53 C51 1.387 . S
C53 C54 1.374 . S
C53 H68 0.931 . S
C54 C48 1.439 . S
C54 C53 1.374 . S
C54 H69 0.931 . S
Eu55 N46 2.600 . S
Eu55 N56 2.562 . S
Eu55 O90 2.335 1_655 S
Eu55 O93 2.372 1_655 S
Eu55 O94 2.462 . S
Eu55 O95 2.373 . S
Eu55 O97 2.432 . S
Eu55 O98 2.291 1_545 S
Eu55 C119 2.787 . S
N56 C52 1.351 . S
N56 Eu55 2.562 . S
N56 C58 1.325 . S
C57 C51 1.404 . S
C57 C59 1.366 . S
C57 H65 0.930 . S
C58 N56 1.325 . S
C58 C59 1.416 . S
C58 H64 0.929 . S
C59 C57 1.366 . S
C59 C58 1.416 . S
C59 H61 0.930 . S
H60 C49 0.930 . S
H61 C59 0.930 . S
H62 C77 0.930 1_655 S
H63 C84 0.930 . S
H64 C58 0.929 . S
H65 C57 0.930 . S
H66 C80 0.929 . S
H67 C47 0.931 . S
H68 C53 0.931 . S
H69 C54 0.931 . S
H70 C75 0.931 1_655 S
H71 C50 0.929 . S
H72 C83 0.930 . S
N73 Eu44 2.600 . S
N73 C74 1.365 . S
N73 C77 1.319 . S
C74 N73 1.365 . S
C74 C76 1.405 . S
C74 C82 1.448 . S
C75 H70 0.931 1_455 S
C75 C77 1.397 . S
C75 C78 1.367 . S
C76 C74 1.405 . S
C76 C78 1.403 . S
C76 C109 1.439 . S
C77 H62 0.930 1_455 S
C77 N73 1.319 . S
C77 C75 1.397 . S
C78 C75 1.367 . S
C78 C76 1.403 . S
C78 H85 0.929 . S
N79 Eu44 2.562 . S
N79 C80 1.325 . S
N79 C82 1.351 . S
C80 H66 0.929 . S
C80 N79 1.325 . S
C80 C84 1.416 . S
C81 C82 1.430 . S
C81 C83 1.404 . S
C81 C110 1.387 . S
C82 C74 1.448 . S
C82 N79 1.351 . S
C82 C81 1.430 . S
C83 H72 0.930 . S
C83 C81 1.404 . S
C83 C84 1.366 . S
C84 H63 0.930 . S
C84 C80 1.416 . S
C84 C83 1.366 . S
H85 C78 0.929 . S
H86 C109 0.931 . S
H87 C110 0.931 . S
O88 Eu44 2.462 . S
O88 C108 1.252 . S
O89 Eu44 2.373 . S
O89 C100 1.249 . S
O90 Eu55 2.335 1_455 S
O90 C100 1.264 1_545 S
O91 Eu44 2.432 . S
O91 C108 1.268 . S
O92 Eu44 2.291 1_545 S
O92 C107 1.255 . S
O93 Eu55 2.372 1_455 S
O93 C107 1.257 . S
O94 Eu55 2.462 . S
O94 C119 1.252 . S
O95 Eu55 2.373 . S
O95 C111 1.249 . S
O96 Eu44 2.335 1_645 S
O96 C111 1.264 . S
O97 Eu55 2.432 . S
O97 C119 1.268 . S
O98 Eu55 2.291 1_565 S
O98 C118 1.255 . S
O99 Eu44 2.372 1_655 S
O99 C118 1.257 . S
C100 O89 1.249 . S
C100 O90 1.264 1_565 S
C101 C104 1.382 . S
C101 C106 1.390 . S
C101 C108 1.506 . S
C102 C103 1.398 . S
C102 C106 1.392 . S
C103 C102 1.398 . S
C103 C105 1.372 . S
C103 H120 0.931 . S
C104 C101 1.382 . S
C104 C105 1.390 . S
C104 H121 0.931 . S
C105 C103 1.372 . S
C105 C104 1.390 . S
C105 H122 0.929 . S
C106 C101 1.390 . S
C106 C102 1.392 . S
C106 H123 0.930 . S
C107 O92 1.255 . S
C107 O93 1.257 . S
C108 Eu44 2.787 . S
C108 O88 1.252 . S
C108 O91 1.268 . S
C108 C101 1.506 . S
C109 C76 1.439 . S
C109 H86 0.931 . S
C109 C110 1.374 . S
C110 C81 1.387 . S
C110 H87 0.931 . S
C110 C109 1.374 . S
C111 O95 1.249 . S
C111 O96 1.264 . S
C112 C115 1.382 . S
C112 C116 1.390 . S
C112 C119 1.506 . S
C113 C114 1.398 . S
C113 C116 1.392 . S
C114 C113 1.398 . S
C114 C117 1.372 . S
C114 H124 0.931 . S
C115 C112 1.382 . S
C115 C117 1.390 . S
C115 H125 0.931 . S
C116 C112 1.390 . S
C116 C113 1.392 . S
C116 H126 0.930 . S
C117 C114 1.372 . S
C117 C115 1.390 . S
C117 H127 0.929 . S
C118 O98 1.255 . S
C118 O99 1.257 . S
C119 Eu55 2.787 . S
C119 O94 1.252 . S
C119 O97 1.268 . S
C119 C112 1.506 . S
H120 C103 0.931 . S
H121 C104 0.931 . S
H122 C105 0.929 . S
H123 C106 0.930 . S
H124 C114 0.931 . S
H125 C115 0.931 . S
H126 C116 0.930 . S
H127 C117 0.929 . S
Eu128 N157 2.600 . S
Eu128 N163 2.562 1_556 S
Eu128 O172 2.462 . S
Eu128 O173 2.373 1_556 S
Eu128 O175 2.432 . S
Eu128 O176 2.291 1_556 S
Eu128 O180 2.335 . S
Eu128 O183 2.372 . S
Eu128 C192 2.787 . S
C129 N130 1.365 . S
C129 C132 1.405 . S
C129 C136 1.448 . S
N130 C129 1.365 . S
N130 C133 1.319 . S
N130 Eu139 2.600 . S
C131 C133 1.397 . S
C131 C134 1.367 . S
C131 H151 0.931 . S
C132 C129 1.405 . S
C132 C134 1.403 . S
C132 C138 1.439 . S
C133 N130 1.319 . S
C133 C131 1.397 . S
C133 H144 0.930 . S
C134 C131 1.367 . S
C134 C132 1.403 . S
C134 H155 0.929 . S
C135 C136 1.430 . S
C135 C137 1.387 . S
C135 C141 1.404 . S
C136 C129 1.448 . S
C136 C135 1.430 . S
C136 N140 1.351 . S
C137 C135 1.387 . S
C137 C138 1.374 . S
C137 H152 0.931 . S
C138 C132 1.439 . S
C138 C137 1.374 . S
C138 H153 0.931 . S
Eu139 N130 2.600 . S
Eu139 N140 2.562 . S
Eu139 O174 2.335 . S
Eu139 O177 2.372 . S
Eu139 O178 2.462 . S
Eu139 O179 2.373 1_554 S
Eu139 O181 2.432 . S
Eu139 O182 2.291 . S
Eu139 C203 2.787 . S
N140 C136 1.351 . S
N140 Eu139 2.562 . S
N140 C142 1.325 . S
C141 C135 1.404 . S
C141 C143 1.366 . S
C141 H149 0.930 . S
C142 N140 1.325 . S
C142 C143 1.416 . S
C142 H148 0.929 . S
C143 C141 1.366 . S
C143 C142 1.416 . S
C143 H145 0.930 . S
H144 C133 0.930 . S
H145 C143 0.930 . S
H146 C161 0.930 . S
H147 C168 0.930 . S
H148 C142 0.929 . S
H149 C141 0.930 . S
H150 C164 0.929 . S
H151 C131 0.931 . S
H152 C137 0.931 . S
H153 C138 0.931 . S
H154 C159 0.931 . S
H155 C134 0.929 . S
H156 C167 0.930 . S
N157 Eu128 2.600 . S
N157 C158 1.365 1_556 S
N157 C161 1.319 . S
C158 N157 1.365 1_554 S
C158 C160 1.405 . S
C158 C166 1.448 . S
C159 H154 0.931 . S
C159 C161 1.397 . S
C159 C162 1.365 1_556 S
C160 C158 1.405 . S
C160 C162 1.403 . S
C160 C193 1.439 . S
C161 H146 0.930 . S
C161 N157 1.319 . S
C161 C159 1.397 . S
C162 C159 1.365 1_554 S
C162 C160 1.403 . S
C162 H169 0.931 . S
N163 Eu128 2.562 1_554 S
N163 C164 1.325 . S
N163 C166 1.351 . S
C164 H150 0.929 . S
C164 N163 1.325 . S
C164 C168 1.416 . S
C165 C166 1.430 . S
C165 C167 1.404 . S
C165 C194 1.387 . S
C166 C158 1.448 . S
C166 N163 1.351 . S
C166 C165 1.430 . S
C167 H156 0.930 . S
C167 C165 1.404 . S
C167 C168 1.366 . S
C168 H147 0.930 . S
C168 C164 1.416 . S
C168 C167 1.366 . S
H169 C162 0.931 . S
H170 C193 0.931 . S
H171 C194 0.931 . S
O172 Eu128 2.462 . S
O172 C192 1.252 . S
O173 Eu128 2.373 1_554 S
O173 C184 1.249 . S
O174 Eu139 2.335 . S
O174 C184 1.264 . S
O175 Eu128 2.432 . S
O175 C192 1.268 . S
O176 Eu128 2.291 1_554 S
O176 C191 1.255 . S
O177 Eu139 2.372 . S
O177 C191 1.257 . S
O178 Eu139 2.462 . S
O178 C203 1.252 . S
O179 Eu139 2.373 1_556 S
O179 C195 1.249 . S
O180 Eu128 2.335 . S
O180 C195 1.264 . S
O181 Eu139 2.432 . S
O181 C203 1.268 . S
O182 Eu139 2.291 . S
O182 C202 1.255 . S
O183 Eu128 2.372 . S
O183 C202 1.257 1_556 S
C184 O173 1.249 . S
C184 O174 1.264 . S
C185 C188 1.382 . S
C185 C190 1.390 . S
C185 C192 1.506 . S
C186 C187 1.398 . S
C186 C190 1.392 . S
C187 C186 1.398 . S
C187 C189 1.372 . S
C187 H204 0.931 . S
C188 C185 1.382 . S
C188 C189 1.390 . S
C188 H205 0.931 . S
C189 C187 1.372 . S
C189 C188 1.390 . S
C189 H206 0.929 . S
C190 C185 1.390 . S
C190 C186 1.392 . S
C190 H207 0.930 . S
C191 O176 1.255 . S
C191 O177 1.257 . S
C192 Eu128 2.787 . S
C192 O172 1.252 . S
C192 O175 1.268 . S
C192 C185 1.506 . S
C193 C160 1.439 . S
C193 H170 0.931 . S
C193 C194 1.374 . S
C194 C165 1.387 . S
C194 H171 0.931 . S
C194 C193 1.374 . S
C195 O179 1.249 . S
C195 O180 1.264 . S
C196 C199 1.382 . S
C196 C200 1.390 . S
C196 C203 1.506 . S
C197 C198 1.398 . S
C197 C200 1.392 . S
C198 C197 1.398 . S
C198 C201 1.372 . S
C198 H208 0.931 . S
C199 C196 1.382 . S
C199 C201 1.390 . S
C199 H209 0.931 . S
C200 C196 1.390 . S
C200 C197 1.392 . S
C200 H210 0.930 . S
C201 C198 1.372 . S
C201 C199 1.390 . S
C201 H211 0.929 . S
C202 O182 1.255 . S
C202 O183 1.257 1_554 S
C203 Eu139 2.787 . S
C203 O178 1.252 . S
C203 O181 1.268 . S
C203 C196 1.506 . S
H204 C187 0.931 . S
H205 C188 0.931 . S
H206 C189 0.929 . S
H207 C190 0.930 . S
H208 C198 0.931 . S
H209 C199 0.931 . S
H210 C200 0.930 . S
H211 C201 0.929 . S
H212 C220 0.950 . S
H213 C225 0.950 . S
H214 C222 0.950 . S
H215 C224 0.950 . S
H216 C226 0.950 . S
H217 C228 0.950 . S
H218 C230 0.950 . S
H219 C231 0.950 . S
C220 H212 0.950 . S
C220 C221 1.386 . S
C220 C222 1.391 . S
C221 C220 1.386 . S
C221 C225 1.393 . S
C222 H214 0.950 . S
C222 C220 1.391 . S
C222 C223 1.400 . S
C223 C222 1.400 . S
C223 C224 1.398 . S
C223 C229 1.491 . S
C224 H215 0.950 . S
C224 C223 1.398 . S
C224 C225 1.391 . S
C225 H213 0.950 . S
C225 C221 1.393 . S
C225 C224 1.391 . S
C226 H216 0.950 . S
C226 C227 1.386 . S
C226 C228 1.391 . S
C227 C226 1.386 . S
C227 C231 1.393 . S
C228 H217 0.950 . S
C228 C226 1.391 . S
C228 C229 1.400 . S
C229 C223 1.491 . S
C229 C228 1.400 . S
C229 C230 1.398 . S
C230 H218 0.950 . S
C230 C229 1.398 . S
C230 C231 1.391 . S
C231 H219 0.950 . S
C231 C227 1.393 . S
C231 C230 1.391 . S
H232 C240 0.950 . S
H233 C245 0.950 . S
H234 C242 0.950 . S
H235 C244 0.950 . S
H236 C246 0.950 . S
H237 C248 0.950 . S
H238 C250 0.950 . S
H239 C251 0.950 . S
C240 H232 0.950 . S
C240 C241 1.386 . S
C240 C242 1.391 . S
C241 C240 1.386 . S
C241 C245 1.393 . S
C242 H234 0.950 . S
C242 C240 1.391 . S
C242 C243 1.400 . S
C243 C242 1.400 . S
C243 C244 1.398 . S
C243 C249 1.491 . S
C244 H235 0.950 . S
C244 C243 1.398 . S
C244 C245 1.391 . S
C245 H233 0.950 . S
C245 C241 1.393 . S
C245 C244 1.391 . S
C246 H236 0.950 . S
C246 C247 1.386 . S
C246 C248 1.391 . S
C247 C246 1.386 . S
C247 C251 1.393 . S
C248 H237 0.950 . S
C248 C246 1.391 . S
C248 C249 1.400 . S
C249 C243 1.491 . S
C249 C248 1.400 . S
C249 C250 1.398 . S
C250 H238 0.950 . S
C250 C249 1.398 . S
C250 C251 1.391 . S
C251 H239 0.950 . S
C251 C247 1.393 . S
C251 C250 1.391 . S
H252 C260 0.950 . S
H253 C265 0.950 . S
H254 C262 0.950 . S
H255 C264 0.950 . S
H256 C266 0.950 . S
H257 C268 0.950 . S
H258 C270 0.950 . S
H259 C271 0.950 . S
C260 H252 0.950 . S
C260 C261 1.386 . S
C260 C262 1.391 . S
C261 C260 1.386 . S
C261 C265 1.393 . S
C262 H254 0.950 . S
C262 C260 1.391 . S
C262 C263 1.400 . S
C263 C262 1.400 . S
C263 C264 1.398 . S
C263 C269 1.491 . S
C264 H255 0.950 . S
C264 C263 1.398 . S
C264 C265 1.391 . S
C265 H253 0.950 . S
C265 C261 1.393 . S
C265 C264 1.391 . S
C266 H256 0.950 . S
C266 C267 1.386 . S
C266 C268 1.391 . S
C267 C266 1.386 . S
C267 C271 1.393 . S
C268 H257 0.950 . S
C268 C266 1.391 . S
C268 C269 1.400 . S
C269 C263 1.491 . S
C269 C268 1.400 . S
C269 C270 1.398 . S
C270 H258 0.950 . S
C270 C269 1.398 . S
C270 C271 1.391 . S
C271 H259 0.950 . S
C271 C267 1.393 . S
C271 C270 1.391 . S
H272 C280 0.950 . S
H273 C285 0.950 . S
H274 C282 0.950 . S
H275 C284 0.950 . S
H276 C286 0.950 1_556 S
H277 C288 0.950 . S
H278 C290 0.950 . S
H279 C291 0.950 . S
C280 H272 0.950 . S
C280 C281 1.386 . S
C280 C282 1.391 . S
C281 C280 1.386 . S
C281 C285 1.393 . S
C282 H274 0.950 . S
C282 C280 1.391 . S
C282 C283 1.400 . S
C283 C282 1.400 . S
C283 C284 1.398 . S
C283 C289 1.491 . S
C284 H275 0.950 . S
C284 C283 1.398 . S
C284 C285 1.391 . S
C285 H273 0.950 . S
C285 C281 1.393 . S
C285 C284 1.391 . S
C286 H276 0.950 1_554 S
C286 C287 1.386 . S
C286 C288 1.391 . S
C287 C286 1.386 . S
C287 C291 1.393 . S
C288 H277 0.950 . S
C288 C286 1.391 . S
C288 C289 1.400 . S
C289 C283 1.491 . S
C289 C288 1.400 . S
C289 C290 1.398 . S
C290 H278 0.950 . S
C290 C289 1.398 . S
C290 C291 1.391 . S
C291 H279 0.950 . S
C291 C287 1.393 . S
C291 C290 1.391 . S
H292 C300 0.950 . S
H293 C305 0.950 . S
H294 C302 0.950 . S
H295 C304 0.950 . S
H296 C306 0.950 . S
H297 C308 0.950 . S
H298 C310 0.950 . S
H299 C311 0.950 1_545 S
C300 H292 0.950 . S
C300 C301 1.386 . S
C300 C302 1.391 . S
C301 C300 1.386 . S
C301 C305 1.393 . S
C302 H294 0.950 . S
C302 C300 1.391 . S
C302 C303 1.400 . S
C303 C302 1.400 . S
C303 C304 1.398 . S
C303 C309 1.491 . S
C304 H295 0.950 . S
C304 C303 1.398 . S
C304 C305 1.391 . S
C305 H293 0.950 . S
C305 C301 1.393 . S
C305 C304 1.391 . S
C306 H296 0.950 . S
C306 C307 1.386 . S
C306 C308 1.391 . S
C307 C306 1.386 . S
C307 C311 1.393 . S
C308 H297 0.950 . S
C308 C306 1.391 . S
C308 C309 1.400 . S
C309 C303 1.491 . S
C309 C308 1.400 . S
C309 C310 1.398 . S
C310 H298 0.950 . S
C310 C309 1.398 . S
C310 C311 1.391 . S
C311 H299 0.950 1_565 S
C311 C307 1.393 . S
C311 C310 1.391 . S
H312 C320 0.950 . S
H313 C325 0.950 . S
H314 C322 0.950 . S
H315 C324 0.950 . S
H316 C326 0.950 . S
H317 C328 0.950 . S
H318 C330 0.950 . S
H319 C331 0.950 . S
C320 H312 0.950 . S
C320 C321 1.386 . S
C320 C322 1.391 . S
C321 C320 1.386 . S
C321 C325 1.393 . S
C322 H314 0.950 . S
C322 C320 1.391 . S
C322 C323 1.400 . S
C323 C322 1.400 . S
C323 C324 1.398 . S
C323 C329 1.491 . S
C324 H315 0.950 . S
C324 C323 1.398 . S
C324 C325 1.391 . S
C325 H313 0.950 . S
C325 C321 1.393 . S
C325 C324 1.391 . S
C326 H316 0.950 . S
C326 C327 1.386 . S
C326 C328 1.391 . S
C327 C326 1.386 . S
C327 C331 1.393 . S
C328 H317 0.950 . S
C328 C326 1.391 . S
C328 C329 1.400 . S
C329 C323 1.491 . S
C329 C328 1.400 . S
C329 C330 1.398 . S
C330 H318 0.950 . S
C330 C329 1.398 . S
C330 C331 1.391 . S
C331 H319 0.950 . S
C331 C327 1.393 . S
C331 C330 1.391 . S
H332 C340 0.950 . S
H333 C345 0.950 . S
H334 C342 0.950 . S
H335 C344 0.950 . S
H336 C346 0.950 . S
H337 C348 0.950 . S
H338 C350 0.950 . S
H339 C351 0.950 . S
C340 H332 0.950 . S
C340 C341 1.386 . S
C340 C342 1.391 . S
C341 C340 1.386 . S
C341 C345 1.393 . S
C342 H334 0.950 . S
C342 C340 1.391 . S
C342 C343 1.400 . S
C343 C342 1.400 . S
C343 C344 1.398 . S
C343 C349 1.491 . S
C344 H335 0.950 . S
C344 C343 1.398 . S
C344 C345 1.391 . S
C345 H333 0.950 . S
C345 C341 1.393 . S
C345 C344 1.391 . S
C346 H336 0.950 . S
C346 C347 1.386 . S
C346 C348 1.391 . S
C347 C346 1.386 . S
C347 C351 1.393 . S
C348 H337 0.950 . S
C348 C346 1.391 . S
C348 C349 1.400 . S
C349 C343 1.491 . S
C349 C348 1.400 . S
C349 C350 1.398 . S
C350 H338 0.950 . S
C350 C349 1.398 . S
C350 C351 1.391 . S
C351 H339 0.950 . S
C351 C347 1.393 . S
C351 C350 1.391 . S
H352 C360 0.950 . S
H353 C365 0.950 . S
H354 C362 0.950 . S
H355 C364 0.950 . S
H356 C366 0.950 . S
H357 C368 0.950 . S
H358 C370 0.950 . S
H359 C371 0.950 . S
C360 H352 0.950 . S
C360 C361 1.386 . S
C360 C362 1.391 . S
C361 C360 1.386 . S
C361 C365 1.393 . S
C362 H354 0.950 . S
C362 C360 1.391 . S
C362 C363 1.400 . S
C363 C362 1.400 . S
C363 C364 1.398 . S
C363 C369 1.491 . S
C364 H355 0.950 . S
C364 C363 1.398 . S
C364 C365 1.391 . S
C365 H353 0.950 . S
C365 C361 1.393 . S
C365 C364 1.391 . S
C366 H356 0.950 . S
C366 C367 1.386 . S
C366 C368 1.391 . S
C367 C366 1.386 . S
C367 C371 1.393 . S
C368 H357 0.950 . S
C368 C366 1.391 . S
C368 C369 1.400 . S
C369 C363 1.491 . S
C369 C368 1.400 . S
C369 C370 1.398 . S
C370 H358 0.950 . S
C370 C369 1.398 . S
C370 C371 1.391 . S
C371 H359 0.950 . S
C371 C367 1.393 . S
C371 C370 1.391 . S
H372 C380 0.950 . S
H373 C385 0.950 . S
H374 C382 0.950 . S
H375 C384 0.950 . S
H376 C386 0.950 . S
H377 C388 0.950 . S
H378 C390 0.950 . S
H379 C391 0.950 . S
C380 H372 0.950 . S
C380 C381 1.386 . S
C380 C382 1.391 . S
C381 C380 1.386 . S
C381 C385 1.393 . S
C382 H374 0.950 . S
C382 C380 1.391 . S
C382 C383 1.400 . S
C383 C382 1.400 . S
C383 C384 1.398 . S
C383 C389 1.491 . S
C384 H375 0.950 . S
C384 C383 1.398 . S
C384 C385 1.391 . S
C385 H373 0.950 . S
C385 C381 1.393 . S
C385 C384 1.391 . S
C386 H376 0.950 . S
C386 C387 1.386 . S
C386 C388 1.391 . S
C387 C386 1.386 . S
C387 C391 1.393 . S
C388 H377 0.950 . S
C388 C386 1.391 . S
C388 C389 1.400 . S
C389 C383 1.491 . S
C389 C388 1.400 . S
C389 C390 1.398 . S
C390 H378 0.950 . S
C390 C389 1.398 . S
C390 C391 1.391 . S
C391 H379 0.950 . S
C391 C387 1.393 . S
C391 C390 1.391 . S
H392 C400 0.950 . S
H393 C405 0.950 1_554 S
H394 C402 0.950 . S
H395 C404 0.950 . S
H396 C406 0.950 . S
H397 C408 0.950 . S
H398 C410 0.950 . S
H399 C411 0.950 . S
C400 H392 0.950 . S
C400 C401 1.386 . S
C400 C402 1.391 . S
C401 C400 1.386 . S
C401 C405 1.393 . S
C402 H394 0.950 . S
C402 C400 1.391 . S
C402 C403 1.400 . S
C403 C402 1.400 . S
C403 C404 1.398 . S
C403 C409 1.491 . S
C404 H395 0.950 . S
C404 C403 1.398 . S
C404 C405 1.391 . S
C405 H393 0.950 1_556 S
C405 C401 1.393 . S
C405 C404 1.391 . S
C406 H396 0.950 . S
C406 C407 1.386 . S
C406 C408 1.391 . S
C407 C406 1.386 . S
C407 C411 1.393 . S
C408 H397 0.950 . S
C408 C406 1.391 . S
C408 C409 1.400 . S
C409 C403 1.491 . S
C409 C408 1.400 . S
C409 C410 1.398 . S
C410 H398 0.950 . S
C410 C409 1.398 . S
C410 C411 1.391 . S
C411 H399 0.950 . S
C411 C407 1.393 . S
C411 C410 1.391 . S
H412 C420 0.950 . S
H413 C425 0.950 . S
H414 C422 0.950 . S
H415 C424 0.950 . S
H416 C426 0.950 . S
H417 C428 0.950 . S
H418 C430 0.950 . S
H419 C431 0.950 . S
C420 H412 0.950 . S
C420 C421 1.386 . S
C420 C422 1.391 . S
C421 C420 1.386 . S
C421 C425 1.393 . S
C422 H414 0.950 . S
C422 C420 1.391 . S
C422 C423 1.400 . S
C423 C422 1.400 . S
C423 C424 1.398 . S
C423 C429 1.491 . S
C424 H415 0.950 . S
C424 C423 1.398 . S
C424 C425 1.391 . S
C425 H413 0.950 . S
C425 C421 1.393 . S
C425 C424 1.391 . S
C426 H416 0.950 . S
C426 C427 1.386 . S
C426 C428 1.391 . S
C427 C426 1.386 . S
C427 C431 1.393 . S
C428 H417 0.950 . S
C428 C426 1.391 . S
C428 C429 1.400 . S
C429 C423 1.491 . S
C429 C428 1.400 . S
C429 C430 1.398 . S
C430 H418 0.950 . S
C430 C429 1.398 . S
C430 C431 1.391 . S
C431 H419 0.950 . S
C431 C427 1.393 . S
C431 C430 1.391 . S
H432 C440 0.950 . S
H433 C445 0.950 . S
H434 C442 0.950 . S
H435 C444 0.950 . S
H436 C446 0.950 . S
H437 C448 0.950 . S
H438 C450 0.950 . S
H439 C451 0.950 1_545 S
C440 H432 0.950 . S
C440 C441 1.386 . S
C440 C442 1.391 . S
C441 C440 1.386 . S
C441 C445 1.393 . S
C442 H434 0.950 . S
C442 C440 1.391 . S
C442 C443 1.400 . S
C443 C442 1.400 . S
C443 C444 1.398 . S
C443 C449 1.491 . S
C444 H435 0.950 . S
C444 C443 1.398 . S
C444 C445 1.391 . S
C445 H433 0.950 . S
C445 C441 1.393 . S
C445 C444 1.391 . S
C446 H436 0.950 . S
C446 C447 1.386 . S
C446 C448 1.391 . S
C447 C446 1.386 . S
C447 C451 1.393 . S
C448 H437 0.950 . S
C448 C446 1.391 . S
C448 C449 1.400 . S
C449 C443 1.491 . S
C449 C448 1.400 . S
C449 C450 1.398 . S
C450 H438 0.950 . S
C450 C449 1.398 . S
C450 C451 1.391 . S
C451 H439 0.950 1_565 S
C451 C447 1.393 . S
C451 C450 1.391 . S
C227 C107 1.621 . S
C221 C41 1.632 . S
C241 C8 1.640 . S
C247 C202 1.643 . S
C261 C19 1.741 . S
C267 C118 1.757 . S
C281 C30 1.602 . S
C287 C191 1.624 . S
C307 C102 1.485 . S
C301 C5 1.492 . S
C327 C195 1.797 . S
C321 C18 1.748 . S
C341 C29 1.602 . S
C347 C111 1.709 . S
C361 C40 1.586 . S
C367 C186 1.534 . S
C387 C197 1.367 . S
C381 C16 1.335 . S
C407 C113 1.375 . S
C401 C27 1.266 1_556 S
C427 C184 1.544 . S
C421 C38 1.292 . S
C441 C7 1.466 . S
C447 C100 1.512 . S
