# Generated by pormake.
# Topology gar, (4,6)-cn, num edge types: 1
# Building blocks:
#     Node 0, Type 0, BuildingBlock: CEKHIL_clean_sbu_0, # of connection points: 4
#     Node 1, Type 0, BuildingBlock: CEKHIL_clean_sbu_0, # of connection points: 4
#     Node 2, Type 0, BuildingBlock: CEKHIL_clean_sbu_0, # of connection points: 4
#     Node 3, Type 0, BuildingBlock: CEKHIL_clean_sbu_0, # of connection points: 4
#     Node 4, Type 0, BuildingBlock: CEKHIL_clean_sbu_0, # of connection points: 4
#     Node 5, Type 0, BuildingBlock: CEKHIL_clean_sbu_0, # of connection points: 4
#     Node 6, Type 0, BuildingBlock: CEKHIL_clean_sbu_0, # of connection points: 4
#     Node 7, Type 0, BuildingBlock: CEKHIL_clean_sbu_0, # of connection points: 4
#     Node 8, Type 0, BuildingBlock: CEKHIL_clean_sbu_0, # of connection points: 4
#     Node 9, Type 0, BuildingBlock: CEKHIL_clean_sbu_0, # of connection points: 4
#     Node 10, Type 0, BuildingBlock: CEKHIL_clean_sbu_0, # of connection points: 4
#     Node 11, Type 0, BuildingBlock: CEKHIL_clean_sbu_0, # of connection points: 4
#     Node 12, Type 0, BuildingBlock: CEKHIL_clean_sbu_0, # of connection points: 4
#     Node 13, Type 0, BuildingBlock: CEKHIL_clean_sbu_0, # of connection points: 4
#     Node 14, Type 0, BuildingBlock: CEKHIL_clean_sbu_0, # of connection points: 4
#     Node 15, Type 0, BuildingBlock: CEKHIL_clean_sbu_0, # of connection points: 4
#     Node 16, Type 0, BuildingBlock: CEKHIL_clean_sbu_0, # of connection points: 4
#     Node 17, Type 0, BuildingBlock: CEKHIL_clean_sbu_0, # of connection points: 4
#     Node 18, Type 0, BuildingBlock: CEKHIL_clean_sbu_0, # of connection points: 4
#     Node 19, Type 0, BuildingBlock: CEKHIL_clean_sbu_0, # of connection points: 4
#     Node 20, Type 0, BuildingBlock: CEKHIL_clean_sbu_0, # of connection points: 4
#     Node 21, Type 0, BuildingBlock: CEKHIL_clean_sbu_0, # of connection points: 4
#     Node 22, Type 0, BuildingBlock: CEKHIL_clean_sbu_0, # of connection points: 4
#     Node 23, Type 0, BuildingBlock: CEKHIL_clean_sbu_0, # of connection points: 4
#     Node 24, Type 1, BuildingBlock: PAMTOO_clean_sbu_0, # of connection points: 6
#     Node 25, Type 1, BuildingBlock: PAMTOO_clean_sbu_0, # of connection points: 6
#     Node 26, Type 1, BuildingBlock: PAMTOO_clean_sbu_0, # of connection points: 6
#     Node 27, Type 1, BuildingBlock: PAMTOO_clean_sbu_0, # of connection points: 6
#     Node 28, Type 1, BuildingBlock: PAMTOO_clean_sbu_0, # of connection points: 6
#     Node 29, Type 1, BuildingBlock: PAMTOO_clean_sbu_0, # of connection points: 6
#     Node 30, Type 1, BuildingBlock: PAMTOO_clean_sbu_0, # of connection points: 6
#     Node 31, Type 1, BuildingBlock: PAMTOO_clean_sbu_0, # of connection points: 6
#     Node 32, Type 1, BuildingBlock: PAMTOO_clean_sbu_0, # of connection points: 6
#     Node 33, Type 1, BuildingBlock: PAMTOO_clean_sbu_0, # of connection points: 6
#     Node 34, Type 1, BuildingBlock: PAMTOO_clean_sbu_0, # of connection points: 6
#     Node 35, Type 1, BuildingBlock: PAMTOO_clean_sbu_0, # of connection points: 6
#     Node 36, Type 1, BuildingBlock: PAMTOO_clean_sbu_0, # of connection points: 6
#     Node 37, Type 1, BuildingBlock: PAMTOO_clean_sbu_0, # of connection points: 6
#     Node 38, Type 1, BuildingBlock: PAMTOO_clean_sbu_0, # of connection points: 6
#     Node 39, Type 1, BuildingBlock: PAMTOO_clean_sbu_0, # of connection points: 6
#     Edge 40, Type (0, 1), BuildingBlock: UVAHIK_clean_linker_0, # of connection points: 2
#     Edge 41, Type (0, 1), BuildingBlock: UVAHIK_clean_linker_0, # of connection points: 2
#     Edge 42, Type (0, 1), BuildingBlock: UVAHIK_clean_linker_0, # of connection points: 2
#     Edge 43, Type (0, 1), BuildingBlock: UVAHIK_clean_linker_0, # of connection points: 2
#     Edge 44, Type (0, 1), BuildingBlock: UVAHIK_clean_linker_0, # of connection points: 2
#     Edge 45, Type (0, 1), BuildingBlock: UVAHIK_clean_linker_0, # of connection points: 2
#     Edge 46, Type (0, 1), BuildingBlock: UVAHIK_clean_linker_0, # of connection points: 2
#     Edge 47, Type (0, 1), BuildingBlock: UVAHIK_clean_linker_0, # of connection points: 2
#     Edge 48, Type (0, 1), BuildingBlock: UVAHIK_clean_linker_0, # of connection points: 2
#     Edge 49, Type (0, 1), BuildingBlock: UVAHIK_clean_linker_0, # of connection points: 2
#     Edge 50, Type (0, 1), BuildingBlock: UVAHIK_clean_linker_0, # of connection points: 2
#     Edge 51, Type (0, 1), BuildingBlock: UVAHIK_clean_linker_0, # of connection points: 2
#     Edge 52, Type (0, 1), BuildingBlock: UVAHIK_clean_linker_0, # of connection points: 2
#     Edge 53, Type (0, 1), BuildingBlock: UVAHIK_clean_linker_0, # of connection points: 2
#     Edge 54, Type (0, 1), BuildingBlock: UVAHIK_clean_linker_0, # of connection points: 2
#     Edge 55, Type (0, 1), BuildingBlock: UVAHIK_clean_linker_0, # of connection points: 2
#     Edge 56, Type (0, 1), BuildingBlock: UVAHIK_clean_linker_0, # of connection points: 2
#     Edge 57, Type (0, 1), BuildingBlock: UVAHIK_clean_linker_0, # of connection points: 2
#     Edge 58, Type (0, 1), BuildingBlock: UVAHIK_clean_linker_0, # of connection points: 2
#     Edge 59, Type (0, 1), BuildingBlock: UVAHIK_clean_linker_0, # of connection points: 2
#     Edge 60, Type (0, 1), BuildingBlock: UVAHIK_clean_linker_0, # of connection points: 2
#     Edge 61, Type (0, 1), BuildingBlock: UVAHIK_clean_linker_0, # of connection points: 2
#     Edge 62, Type (0, 1), BuildingBlock: UVAHIK_clean_linker_0, # of connection points: 2
#     Edge 63, Type (0, 1), BuildingBlock: UVAHIK_clean_linker_0, # of connection points: 2
#     Edge 64, Type (0, 1), BuildingBlock: UVAHIK_clean_linker_0, # of connection points: 2
#     Edge 65, Type (0, 1), BuildingBlock: UVAHIK_clean_linker_0, # of connection points: 2
#     Edge 66, Type (0, 1), BuildingBlock: UVAHIK_clean_linker_0, # of connection points: 2
#     Edge 67, Type (0, 1), BuildingBlock: UVAHIK_clean_linker_0, # of connection points: 2
#     Edge 68, Type (0, 1), BuildingBlock: UVAHIK_clean_linker_0, # of connection points: 2
#     Edge 69, Type (0, 1), BuildingBlock: UVAHIK_clean_linker_0, # of connection points: 2
#     Edge 70, Type (0, 1), BuildingBlock: UVAHIK_clean_linker_0, # of connection points: 2
#     Edge 71, Type (0, 1), BuildingBlock: UVAHIK_clean_linker_0, # of connection points: 2
#     Edge 72, Type (0, 1), BuildingBlock: UVAHIK_clean_linker_0, # of connection points: 2
#     Edge 73, Type (0, 1), BuildingBlock: UVAHIK_clean_linker_0, # of connection points: 2
#     Edge 74, Type (0, 1), BuildingBlock: UVAHIK_clean_linker_0, # of connection points: 2
#     Edge 75, Type (0, 1), BuildingBlock: UVAHIK_clean_linker_0, # of connection points: 2
#     Edge 76, Type (0, 1), BuildingBlock: UVAHIK_clean_linker_0, # of connection points: 2
#     Edge 77, Type (0, 1), BuildingBlock: UVAHIK_clean_linker_0, # of connection points: 2
#     Edge 78, Type (0, 1), BuildingBlock: UVAHIK_clean_linker_0, # of connection points: 2
#     Edge 79, Type (0, 1), BuildingBlock: UVAHIK_clean_linker_0, # of connection points: 2
#     Edge 80, Type (0, 1), BuildingBlock: UVAHIK_clean_linker_0, # of connection points: 2
#     Edge 81, Type (0, 1), BuildingBlock: UVAHIK_clean_linker_0, # of connection points: 2
#     Edge 82, Type (0, 1), BuildingBlock: UVAHIK_clean_linker_0, # of connection points: 2
#     Edge 83, Type (0, 1), BuildingBlock: UVAHIK_clean_linker_0, # of connection points: 2
#     Edge 84, Type (0, 1), BuildingBlock: UVAHIK_clean_linker_0, # of connection points: 2
#     Edge 85, Type (0, 1), BuildingBlock: UVAHIK_clean_linker_0, # of connection points: 2
#     Edge 86, Type (0, 1), BuildingBlock: UVAHIK_clean_linker_0, # of connection points: 2
#     Edge 87, Type (0, 1), BuildingBlock: UVAHIK_clean_linker_0, # of connection points: 2
#     Edge 88, Type (0, 1), BuildingBlock: UVAHIK_clean_linker_0, # of connection points: 2
#     Edge 89, Type (0, 1), BuildingBlock: UVAHIK_clean_linker_0, # of connection points: 2
#     Edge 90, Type (0, 1), BuildingBlock: UVAHIK_clean_linker_0, # of connection points: 2
#     Edge 91, Type (0, 1), BuildingBlock: UVAHIK_clean_linker_0, # of connection points: 2
#     Edge 92, Type (0, 1), BuildingBlock: UVAHIK_clean_linker_0, # of connection points: 2
#     Edge 93, Type (0, 1), BuildingBlock: UVAHIK_clean_linker_0, # of connection points: 2
#     Edge 94, Type (0, 1), BuildingBlock: UVAHIK_clean_linker_0, # of connection points: 2
#     Edge 95, Type (0, 1), BuildingBlock: UVAHIK_clean_linker_0, # of connection points: 2
#     Edge 96, Type (0, 1), BuildingBlock: UVAHIK_clean_linker_0, # of connection points: 2
#     Edge 97, Type (0, 1), BuildingBlock: UVAHIK_clean_linker_0, # of connection points: 2
#     Edge 98, Type (0, 1), BuildingBlock: UVAHIK_clean_linker_0, # of connection points: 2
#     Edge 99, Type (0, 1), BuildingBlock: UVAHIK_clean_linker_0, # of connection points: 2
#     Edge 100, Type (0, 1), BuildingBlock: UVAHIK_clean_linker_0, # of connection points: 2
#     Edge 101, Type (0, 1), BuildingBlock: UVAHIK_clean_linker_0, # of connection points: 2
#     Edge 102, Type (0, 1), BuildingBlock: UVAHIK_clean_linker_0, # of connection points: 2
#     Edge 103, Type (0, 1), BuildingBlock: UVAHIK_clean_linker_0, # of connection points: 2
#     Edge 104, Type (0, 1), BuildingBlock: UVAHIK_clean_linker_0, # of connection points: 2
#     Edge 105, Type (0, 1), BuildingBlock: UVAHIK_clean_linker_0, # of connection points: 2
#     Edge 106, Type (0, 1), BuildingBlock: UVAHIK_clean_linker_0, # of connection points: 2
#     Edge 107, Type (0, 1), BuildingBlock: UVAHIK_clean_linker_0, # of connection points: 2
#     Edge 108, Type (0, 1), BuildingBlock: UVAHIK_clean_linker_0, # of connection points: 2
#     Edge 109, Type (0, 1), BuildingBlock: UVAHIK_clean_linker_0, # of connection points: 2
#     Edge 110, Type (0, 1), BuildingBlock: UVAHIK_clean_linker_0, # of connection points: 2
#     Edge 111, Type (0, 1), BuildingBlock: UVAHIK_clean_linker_0, # of connection points: 2
#     Edge 112, Type (0, 1), BuildingBlock: UVAHIK_clean_linker_0, # of connection points: 2
#     Edge 113, Type (0, 1), BuildingBlock: UVAHIK_clean_linker_0, # of connection points: 2
#     Edge 114, Type (0, 1), BuildingBlock: UVAHIK_clean_linker_0, # of connection points: 2
#     Edge 115, Type (0, 1), BuildingBlock: UVAHIK_clean_linker_0, # of connection points: 2
#     Edge 116, Type (0, 1), BuildingBlock: UVAHIK_clean_linker_0, # of connection points: 2
#     Edge 117, Type (0, 1), BuildingBlock: UVAHIK_clean_linker_0, # of connection points: 2
#     Edge 118, Type (0, 1), BuildingBlock: UVAHIK_clean_linker_0, # of connection points: 2
#     Edge 119, Type (0, 1), BuildingBlock: UVAHIK_clean_linker_0, # of connection points: 2
#     Edge 120, Type (0, 1), BuildingBlock: UVAHIK_clean_linker_0, # of connection points: 2
#     Edge 121, Type (0, 1), BuildingBlock: UVAHIK_clean_linker_0, # of connection points: 2
#     Edge 122, Type (0, 1), BuildingBlock: UVAHIK_clean_linker_0, # of connection points: 2
#     Edge 123, Type (0, 1), BuildingBlock: UVAHIK_clean_linker_0, # of connection points: 2
#     Edge 124, Type (0, 1), BuildingBlock: UVAHIK_clean_linker_0, # of connection points: 2
#     Edge 125, Type (0, 1), BuildingBlock: UVAHIK_clean_linker_0, # of connection points: 2
#     Edge 126, Type (0, 1), BuildingBlock: UVAHIK_clean_linker_0, # of connection points: 2
#     Edge 127, Type (0, 1), BuildingBlock: UVAHIK_clean_linker_0, # of connection points: 2
#     Edge 128, Type (0, 1), BuildingBlock: UVAHIK_clean_linker_0, # of connection points: 2
#     Edge 129, Type (0, 1), BuildingBlock: UVAHIK_clean_linker_0, # of connection points: 2
#     Edge 130, Type (0, 1), BuildingBlock: UVAHIK_clean_linker_0, # of connection points: 2
#     Edge 131, Type (0, 1), BuildingBlock: UVAHIK_clean_linker_0, # of connection points: 2
#     Edge 132, Type (0, 1), BuildingBlock: UVAHIK_clean_linker_0, # of connection points: 2
#     Edge 133, Type (0, 1), BuildingBlock: UVAHIK_clean_linker_0, # of connection points: 2
#     Edge 134, Type (0, 1), BuildingBlock: UVAHIK_clean_linker_0, # of connection points: 2
#     Edge 135, Type (0, 1), BuildingBlock: UVAHIK_clean_linker_0, # of connection points: 2
# Relax obj value: 0.125
# Max RMSD: 0.259
# Mean RMSD: 0.151
data_MOF--net-gar--node1-CEKHIL_clean_sbu_0--node2-PAMTOO_clean_sbu_0--edge1-UVAHIK_clean_linker_0
_symmetry_space_group_name_H-M    P1
_symmetry_Int_Tables_number       1
_symmetry_cell_setting            triclinic
loop_
_symmetry_equiv_pos_as_xyz
'x, y, z'
_cell_length_a     75.793647
_cell_length_b     75.554519
_cell_length_c     72.712399
_cell_angle_alpha  96.054726
_cell_angle_beta   95.561179
_cell_angle_gamma 103.4524
loop_
_atom_site_label
_atom_site_type_symbol
_atom_site_fract_x
_atom_site_fract_y
_atom_site_fract_z
_atom_type_partial_charge
Co0 Co 0.05075 0.30954 0.36472 0.0
O1 O 0.07726 0.3125 0.36911 0.0
O2 O 0.06063 0.30057 0.34241 0.0
C3 C 0.05115 0.33833 0.3789 0.0
O4 O 0.02315 0.30495 0.35424 0.0
Co5 Co 0.0269 0.31256 0.39697 0.0
O6 O 0.00794 0.31445 0.37698 0.0
C7 C 0.04265 0.2803 0.39044 0.0
C8 C 0.07682 0.30536 0.35199 0.0
C9 C 0.00862 0.30892 0.35996 0.0
O10 O 0.04667 0.28449 0.37426 0.0
O11 O 0.03642 0.29067 0.40188 0.0
O12 O 0.05443 0.33598 0.36168 0.0
O13 O 0.04879 0.32374 0.3869 0.0
Co14 Co 0.01059 0.7562 0.67949 0.0
O15 O 0.98438 0.75445 0.67484 0.0
O16 O 0.99782 0.75018 0.70142 0.0
C17 C 0.01837 0.7833 0.66723 0.0
O18 O 0.03789 0.75796 0.68976 0.0
Co19 Co 0.03452 0.75767 0.64684 0.0
O20 O 0.05526 0.76573 0.66699 0.0
C21 C 0.00994 0.7223 0.65224 0.0
C22 C 0.98281 0.75152 0.69189 0.0
C23 C 0.05375 0.76301 0.68383 0.0
O24 O 0.00681 0.72912 0.66842 0.0
O25 O 0.019 0.73198 0.64126 0.0
O26 O 0.01497 0.78327 0.68439 0.0
O27 O 0.0162 0.76727 0.6581 0.0
Co28 Co 0.5479 0.80877 0.86327 0.0
O29 O 0.57432 0.81124 0.86761 0.0
O30 O 0.55766 0.79979 0.84083 0.0
C31 C 0.54871 0.83765 0.87747 0.0
O32 O 0.52026 0.80479 0.85305 0.0
Co33 Co 0.5248 0.81198 0.89614 0.0
O34 O 0.50588 0.81447 0.87644 0.0
C35 C 0.53977 0.77937 0.88889 0.0
C36 C 0.57383 0.80425 0.85045 0.0
C37 C 0.50608 0.80914 0.85925 0.0
O38 O 0.54349 0.78361 0.87265 0.0
O39 O 0.534 0.78983 0.90066 0.0
O40 O 0.55195 0.83522 0.86025 0.0
O41 O 0.54635 0.82309 0.88554 0.0
Co42 Co 0.51288 0.25679 0.17874 0.0
O43 O 0.4867 0.25516 0.1737 0.0
O44 O 0.49973 0.25049 0.20032 0.0
C45 C 0.52089 0.28404 0.16679 0.0
O46 O 0.53992 0.25829 0.18967 0.0
Co47 Co 0.53824 0.25898 0.14741 0.0
O48 O 0.55846 0.26706 0.16812 0.0
C49 C 0.51301 0.22335 0.15131 0.0
C50 C 0.48487 0.25202 0.19066 0.0
C51 C 0.55612 0.26371 0.18463 0.0
O52 O 0.5092 0.22984 0.16732 0.0
O53 O 0.52275 0.23329 0.14099 0.0
O54 O 0.51726 0.28384 0.18388 0.0
O55 O 0.51908 0.26809 0.1576 0.0
Co56 Co 0.05101 0.79779 0.11474 0.0
O57 O 0.02439 0.79336 0.11178 0.0
O58 O 0.04114 0.78976 0.13693 0.0
C59 C 0.0555 0.826 0.10338 0.0
O60 O 0.07811 0.80137 0.12503 0.0
Co61 Co 0.07487 0.80121 0.08426 0.0
O62 O 0.09676 0.80651 0.10324 0.0
C63 C 0.05457 0.76394 0.08902 0.0
C64 C 0.02504 0.78933 0.12875 0.0
C65 C 0.0943 0.80465 0.12005 0.0
O66 O 0.04936 0.77106 0.10391 0.0
O67 O 0.06377 0.77394 0.07837 0.0
O68 O 0.05308 0.82426 0.12059 0.0
O69 O 0.05479 0.81062 0.09311 0.0
Co70 Co 0.50502 0.76934 0.42845 0.0
O71 O 0.53158 0.7738 0.43117 0.0
O72 O 0.51334 0.76052 0.40555 0.0
C73 C 0.50432 0.79842 0.44121 0.0
O74 O 0.47748 0.76374 0.41858 0.0
Co75 Co 0.48251 0.7698 0.46027 0.0
O76 O 0.46286 0.77288 0.44163 0.0
C77 C 0.49694 0.73714 0.45238 0.0
C78 C 0.52995 0.76668 0.41383 0.0
C79 C 0.46323 0.76799 0.42441 0.0
O80 O 0.50307 0.74411 0.438 0.0
O81 O 0.48876 0.74569 0.4636 0.0
O82 O 0.50686 0.79477 0.42397 0.0
O83 O 0.50356 0.78475 0.45084 0.0
Co84 Co 0.55311 0.29812 0.61353 0.0
O85 O 0.52648 0.29368 0.61068 0.0
O86 O 0.54334 0.29028 0.63584 0.0
C87 C 0.55743 0.32619 0.60186 0.0
O88 O 0.58026 0.30181 0.62384 0.0
Co89 Co 0.5771 0.30161 0.58325 0.0
O90 O 0.59901 0.30732 0.60221 0.0
C91 C 0.55749 0.26414 0.58849 0.0
C92 C 0.5272 0.28979 0.62769 0.0
C93 C 0.5965 0.30534 0.61898 0.0
O94 O 0.55143 0.27129 0.60282 0.0
O95 O 0.56714 0.27416 0.57817 0.0
O96 O 0.55522 0.32467 0.61915 0.0
O97 O 0.55673 0.31074 0.59174 0.0
Co98 Co 0.00603 0.26964 0.9292 0.0
O99 O 0.03259 0.27405 0.9317 0.0
O100 O 0.01412 0.26068 0.90625 0.0
C101 C 0.00538 0.29872 0.94188 0.0
O102 O 0.97848 0.26404 0.91951 0.0
Co103 Co 0.98371 0.27028 0.96121 0.0
O104 O 0.96396 0.27327 0.94262 0.0
C105 C 0.99814 0.23762 0.95333 0.0
C106 C 0.03079 0.26683 0.91438 0.0
C107 C 0.96427 0.26832 0.9254 0.0
O108 O 1.00411 0.24448 0.93883 0.0
O109 O 0.9901 0.24625 0.96462 0.0
O110 O 0.00785 0.29503 0.92463 0.0
O111 O 0.00469 0.2851 0.95156 0.0
Co112 Co 0.40116 0.03632 0.28977 0.0
O113 O 0.40429 0.05864 0.27843 0.0
O114 O 0.37782 0.03878 0.2792 0.0
C115 C 0.41966 0.04861 0.31639 0.0
O116 O 0.39178 0.01252 0.30017 0.0
Co117 Co 0.43239 0.01792 0.30147 0.0
O118 O 0.41403 0.00133 0.31349 0.0
C119 C 0.41597 0.01281 0.26185 0.0
C120 C 0.3866 0.05405 0.2742 0.0
C121 C 0.39718 0.00072 0.30936 0.0
O122 O 0.4044 0.02224 0.26578 0.0
O123 O 0.42842 0.01035 0.27383 0.0
O124 O 0.40288 0.05021 0.31442 0.0
O125 O 0.42493 0.04079 0.30202 0.0
Co126 Co 0.27766 0.17607 0.50722 0.0
O127 O 0.30405 0.18045 0.51271 0.0
O128 O 0.28405 0.15541 0.51721 0.0
C129 C 0.27788 0.18542 0.47838 0.0
O130 O 0.25011 0.16508 0.50267 0.0
Co131 Co 0.25679 0.20548 0.49993 0.0
O132 O 0.23465 0.18494 0.49292 0.0
C133 C 0.27089 0.20287 0.5388 0.0
C134 C 0.30104 0.16411 0.51778 0.0
C135 C 0.23512 0.16896 0.49664 0.0
O136 O 0.27584 0.18815 0.5332 0.0
O137 O 0.26434 0.21231 0.5275 0.0
O138 O 0.27931 0.16899 0.48081 0.0
O139 O 0.27739 0.19597 0.49343 0.0
Co140 Co 0.13171 0.02856 0.78571 0.0
O141 O 0.12735 0.00203 0.7802 0.0
O142 O 0.1523 0.02207 0.77561 0.0
C143 C 0.12226 0.02855 0.81459 0.0
O144 O 0.14268 0.05624 0.79025 0.0
Co145 Co 0.10246 0.04969 0.79327 0.0
O146 O 0.12297 0.07189 0.80022 0.0
C147 C 0.10502 0.03518 0.75433 0.0
C148 C 0.14364 0.00501 0.77505 0.0
C149 C 0.13888 0.07134 0.79636 0.0
O150 O 0.11971 0.03025 0.75978 0.0
O151 O 0.09565 0.04184 0.76575 0.0
O152 O 0.13864 0.02706 0.81213 0.0
O153 O 0.11185 0.02899 0.79957 0.0
Co154 Co 0.26299 0.91135 0.99487 0.0
O155 O 0.23942 0.91372 0.00081 0.0
O156 O 0.26572 0.9343 0.01027 0.0
C157 C 0.25443 0.90134 0.96453 0.0
O158 O 0.28962 0.91457 0.99119 0.0
Co159 Co 0.27082 0.87438 0.97954 0.0
O160 O 0.29538 0.88929 0.97641 0.0
C161 C 0.26517 0.88165 0.019 0.0
C162 C 0.2481 0.92947 0.01018 0.0
C163 C 0.30041 0.9061 0.98349 0.0
O164 O 0.2662 0.89868 0.01749 0.0
O165 O 0.26501 0.86967 0.00512 0.0
O166 O 0.25833 0.91887 0.97028 0.0
O167 O 0.25463 0.89069 0.97721 0.0
Co168 Co 0.27757 0.37948 0.02832 0.0
O169 O 0.2512 0.37578 0.02577 0.0
O170 O 0.27106 0.40131 0.03888 0.0
C171 C 0.27891 0.36765 -0.00149 0.0
O172 O 0.30528 0.38982 0.03248 0.0
Co173 Co 0.2975 0.34849 0.02349 0.0
O174 O 0.31925 0.36849 0.02171 0.0
C175 C 0.28125 0.35459 0.05839 0.0
C176 C 0.25411 0.39268 0.03355 0.0
C177 C 0.31962 0.38504 0.02778 0.0
O178 O 0.27749 0.36934 0.05332 0.0
O179 O 0.28806 0.34395 0.04784 0.0
O180 O 0.27771 0.38448 0.00239 0.0
O181 O 0.27807 0.35819 0.01234 0.0
Co182 Co 0.78527 0.14453 0.02591 0.0
O183 O 0.81053 0.14426 0.0311 0.0
O184 O 0.78711 0.12419 0.03914 0.0
C185 C 0.78651 0.14919 0.99611 0.0
O186 O 0.75765 0.13945 0.02254 0.0
Co187 Co 0.77196 0.17768 0.01327 0.0
O188 O 0.74769 0.15996 0.00684 0.0
C189 C 0.78659 0.17825 0.05277 0.0
C190 C 0.80463 0.12953 0.03871 0.0
C191 C 0.74476 0.14502 0.01397 0.0
O192 O 0.78709 0.16128 0.04979 0.0
O193 O 0.78226 0.18733 0.03984 0.0
O194 O 0.78425 0.13261 0.00042 0.0
O195 O 0.78876 0.16217 0.00974 0.0
Co196 Co 0.1573 0.51892 0.2587 0.0
O197 O 0.15842 0.49432 0.26191 0.0
O198 O 0.17848 0.51372 0.24875 0.0
C199 C 0.15144 0.52717 0.28765 0.0
O200 O 0.16131 0.54552 0.254 0.0
Co201 Co 0.12155 0.53193 0.26217 0.0
O202 O 0.13851 0.55667 0.26435 0.0
C203 C 0.12433 0.50681 0.22936 0.0
C204 C 0.17348 0.49772 0.25436 0.0
C205 C 0.15421 0.55896 0.25873 0.0
O206 O 0.14173 0.50991 0.23387 0.0
O207 O 0.11372 0.51278 0.23977 0.0
O208 O 0.16812 0.52748 0.2846 0.0
O209 O 0.139 0.52017 0.27373 0.0
Co210 Co 0.77893 0.87987 0.5295 0.0
O211 O 0.75255 0.87618 0.52693 0.0
O212 O 0.77242 0.90177 0.53987 0.0
C213 C 0.78041 0.86785 0.4998 0.0
O214 O 0.80669 0.89016 0.5336 0.0
Co215 Co 0.79883 0.84867 0.52503 0.0
O216 O 0.82111 0.8685 0.52476 0.0
C217 C 0.78203 0.85487 0.55954 0.0
C218 C 0.75547 0.89313 0.53457 0.0
C219 C 0.82128 0.88515 0.53011 0.0
O220 O 0.77879 0.86987 0.55456 0.0
O221 O 0.78863 0.84404 0.54899 0.0
O222 O 0.77898 0.88463 0.5035 0.0
O223 O 0.77958 0.85855 0.51375 0.0
Co224 Co 0.92873 0.02789 0.26578 0.0
O225 O 0.93202 0.05434 0.26869 0.0
O226 O 0.90663 0.03405 0.25606 0.0
C227 C 0.94116 0.02623 0.29509 0.0
O228 O 0.91885 6e-05 0.26143 0.0
Co229 Co 0.96025 0.00852 0.26857 0.0
O230 O 0.94086 0.98573 0.26872 0.0
C231 C 0.95351 0.02638 0.23527 0.0
C232 C 0.91504 0.05114 0.26136 0.0
C233 C 0.92412 0.98544 0.26419 0.0
O234 O 0.93816 0.0283 0.24044 0.0
O235 O 0.96497 0.02034 0.24544 0.0
O236 O 0.92438 0.02756 0.29186 0.0
O237 O 0.95028 0.02739 0.28094 0.0
Co238 Co 0.28624 0.64795 0.53342 0.0
O239 O 0.31022 0.64468 0.53044 0.0
O240 O 0.28833 0.62497 0.54126 0.0
C241 C 0.28049 0.6572 0.50566 0.0
O242 O 0.25987 0.64578 0.53762 0.0
Co243 Co 0.27648 0.68568 0.53341 0.0
O244 O 0.25074 0.67107 0.53184 0.0
C245 C 0.30075 0.67871 0.56456 0.0
C246 C 0.30481 0.62907 0.53671 0.0
C247 C 0.24733 0.65449 0.53527 0.0
O248 O 0.2955 0.66131 0.55924 0.0
O249 O 0.2963 0.69067 0.55503 0.0
O250 O 0.27808 0.63976 0.50687 0.0
O251 O 0.2877 0.66816 0.52067 0.0
Co252 Co 0.42847 0.52765 0.76451 0.0
O253 O 0.43196 0.55415 0.76781 0.0
O254 O 0.40646 0.53418 0.75499 0.0
C255 C 0.44083 0.52545 0.79372 0.0
O256 O 0.41836 0.49986 0.75982 0.0
Co257 Co 0.45979 0.50802 0.76682 0.0
O258 O 0.44026 0.48529 0.7668 0.0
C259 C 0.45311 0.52625 0.73379 0.0
C260 C 0.41501 0.55119 0.76049 0.0
C261 C 0.42354 0.48515 0.76238 0.0
O262 O 0.43786 0.52831 0.73914 0.0
O263 O 0.46452 0.51999 0.74377 0.0
O264 O 0.4241 0.52696 0.79054 0.0
O265 O 0.44999 0.52681 0.7796 0.0
Co266 Co 0.65624 0.02348 0.7597 0.0
O267 O 0.65707 -0.00114 0.76324 0.0
O268 O 0.678 0.01838 0.75112 0.0
C269 C 0.6489 0.03184 0.78793 0.0
O270 O 0.66073 0.05002 0.75488 0.0
Co271 Co 0.62034 0.03661 0.76072 0.0
O272 O 0.63692 0.0614 0.76176 0.0
C273 C 0.62446 0.01066 0.72928 0.0
C274 C 0.67259 0.00234 0.75651 0.0
C275 C 0.6532 0.06351 0.75768 0.0
O276 O 0.64182 0.01434 0.73431 0.0
O277 O 0.61335 0.01656 0.73908 0.0
O278 O 0.6658 0.03208 0.78588 0.0
O279 O 0.63706 0.02481 0.77352 0.0
Co280 Co 0.77749 0.67668 0.00799 0.0
O281 O 0.80387 0.68074 0.01319 0.0
O282 O 0.78368 0.656 0.01811 0.0
C283 C 0.77755 0.68572 0.97903 0.0
O284 O 0.74988 0.66611 0.00386 0.0
Co285 Co 0.75694 0.70634 0.0005 0.0
O286 O 0.73467 0.68593 0.99355 0.0
C287 C 0.7712 0.7039 0.0394 0.0
C288 C 0.80072 0.66447 0.01843 0.0
C289 C 0.73496 0.67005 -0.00229 0.0
O290 O 0.77606 0.6891 0.0339 0.0
O291 O 0.76462 0.71327 0.02804 0.0
O292 O 0.77877 0.66925 0.98157 0.0
O293 O 0.77732 0.69646 0.99402 0.0
Co294 Co 0.90118 0.53935 0.7918 0.0
O295 O 0.90019 0.56154 0.78134 0.0
O296 O 0.87635 0.5384 0.78256 0.0
C297 C 0.91971 0.55269 0.81809 0.0
O298 O 0.89619 0.51479 0.8017 0.0
Co299 Co 0.93703 0.5267 0.80003 0.0
O300 O 0.92195 0.50727 0.81216 0.0
C301 C 0.91833 0.52129 0.76138 0.0
C302 C 0.88265 0.5545 0.77769 0.0
C303 C 0.90458 0.50415 0.80966 0.0
O304 O 0.905 0.52739 0.76695 0.0
O305 O 0.93261 0.52098 0.77218 0.0
O306 O 0.90229 0.55185 0.81697 0.0
O307 O 0.92544 0.54695 0.80298 0.0
Co308 Co 0.76495 0.41021 0.49332 0.0
O309 O 0.74127 0.4105 0.50043 0.0
O310 O 0.76603 0.43365 0.50713 0.0
C311 C 0.75484 0.39732 0.46377 0.0
O312 O 0.79138 0.41549 0.48818 0.0
Co313 Co 0.77572 0.37412 0.48001 0.0
O314 O 0.79944 0.39027 0.47631 0.0
C315 C 0.76862 0.38271 0.51868 0.0
C316 C 0.7488 0.42715 0.50837 0.0
C317 C 0.80307 0.4075 0.48157 0.0
O318 O 0.77095 0.39979 0.5168 0.0
O319 O 0.76779 0.37017 0.50511 0.0
O320 O 0.75732 0.41496 0.4681 0.0
O321 O 0.75759 0.38831 0.47737 0.0
Co322 Co 0.63217 0.52813 0.28447 0.0
O323 O 0.62861 0.50168 0.27977 0.0
O324 O 0.65343 0.5221 0.27546 0.0
C325 C 0.62201 0.52871 0.31299 0.0
O326 O 0.64217 0.55588 0.28843 0.0
Co327 Co 0.60129 0.54765 0.28927 0.0
O328 O 0.62096 0.57067 0.29598 0.0
C329 C 0.60551 0.53178 0.25158 0.0
C330 C 0.6451 0.50496 0.27515 0.0
C331 C 0.63735 0.57073 0.29338 0.0
O332 O 0.62091 0.52883 0.25802 0.0
O333 O 0.59484 0.53754 0.26208 0.0
O334 O 0.6386 0.52758 0.31111 0.0
O335 O 0.61171 0.52821 0.29757 0.0
Dy336 Dy 0.05094 0.04193 0.03316 0.0
Dy337 Dy 0.01096 0.02018 0.01201 0.0
C338 C 0.04657 0.02451 0.99043 0.0
O339 O 0.04174 0.06231 0.01634 0.0
O340 O 0.01099 0.05045 0.01463 0.0
O341 O 0.07836 0.05837 0.03286 0.0
O342 O 0.06876 0.05179 0.05896 0.0
O343 O 0.00752 0.02372 0.04219 0.0
O344 O 0.03106 0.04888 0.05202 0.0
O345 O 0.02447 0.99718 0.01772 0.0
O346 O 0.04714 0.01311 0.0408 0.0
O347 O 0.98613 -0.0013 0.01005 0.0
O348 O 0.98907 0.01773 0.98977 0.0
C349 C 0.02492 0.06404 0.01276 0.0
O350 O 0.05687 0.02763 0.00663 0.0
O351 O 0.02895 0.02341 0.98936 0.0
C352 C 0.09948 0.05263 0.05579 0.0
C353 C 0.13146 0.0403 0.06234 0.0
C354 C 0.11424 0.02848 0.06279 0.0
C355 C 0.09838 0.03457 0.05945 0.0
C356 C 0.11663 0.06465 0.05589 0.0
C357 C 0.13254 0.05852 0.0591 0.0
C358 C 0.0828 0.05859 0.05065 0.0
C359 C 0.01582 0.0376 0.05476 0.0
C360 C 0.03708 0.9974 0.03169 0.0
C361 C 0.9617 0.0116 0.00264 0.0
C362 C 0.93231 0.02557 0.01293 0.0
C363 C 0.94983 0.03239 0.02285 0.0
C364 C 0.96435 0.02553 0.01771 0.0
C365 C 0.94417 0.00432 0.9929 0.0
C366 C 0.92947 0.01125 -0.00192 0.0
C367 C 0.97771 0.00564 -0.00279 0.0
H368 H 0.11297 0.01428 0.0649 0.0
H369 H 0.08524 0.025 0.05921 0.0
H370 H 0.11768 0.07862 0.05301 0.0
H371 H 0.14566 0.06789 0.0587 0.0
H372 H 0.95236 0.04318 0.03455 0.0
H373 H 0.9778 0.03134 0.02538 0.0
H374 H 0.94194 0.99359 0.9812 0.0
H375 H 0.91606 0.00583 0.9902 0.0
Dy376 Dy 0.28681 0.77786 0.25649 0.0
Dy377 Dy 0.26373 0.78453 0.29112 0.0
C378 C 0.28889 0.81823 0.27661 0.0
O379 O 0.30207 0.76932 0.28062 0.0
O380 O 0.29213 0.78522 0.30454 0.0
O381 O 0.31217 0.78238 0.24441 0.0
O382 O 0.28743 0.76469 0.22886 0.0
O383 O 0.26352 0.75496 0.28867 0.0
O384 O 0.26726 0.75103 0.25782 0.0
O385 O 0.24404 0.78061 0.26492 0.0
O386 O 0.2643 0.78972 0.24444 0.0
O387 O 0.23836 0.77759 0.30285 0.0
O388 O 0.26098 0.79915 0.31743 0.0
C389 C 0.30392 0.77642 0.29823 0.0
O390 O 0.29792 0.80715 0.26896 0.0
O391 O 0.27301 0.81201 0.28225 0.0
C392 C 0.3065 0.78422 0.21215 0.0
C393 C 0.3037 0.80468 0.18229 0.0
C394 C 0.31232 0.81347 0.19997 0.0
C395 C 0.3136 0.80336 0.21481 0.0
C396 C 0.29912 0.77529 0.19424 0.0
C397 C 0.29761 0.78541 0.17946 0.0
C398 C 0.30415 0.77385 0.22814 0.0
C399 C 0.26202 0.74434 0.27288 0.0
C400 C 0.24753 0.78632 0.24887 0.0
C401 C 0.24253 0.7797 0.33537 0.0
C402 C 0.23777 0.75873 0.36501 0.0
C403 C 0.25527 0.7688 0.36263 0.0
C404 C 0.25767 0.77912 0.34787 0.0
C405 C 0.22495 0.77026 0.33822 0.0
C406 C 0.22258 0.75973 0.35286 0.0
C407 C 0.24495 0.78844 0.31836 0.0
H408 H 0.31752 0.82824 0.20251 0.0
H409 H 0.31938 0.81066 0.22849 0.0
H410 H 0.29349 0.76056 0.1919 0.0
H411 H 0.29072 0.77816 0.16611 0.0
H412 H 0.26721 0.76807 0.37172 0.0
H413 H 0.27142 0.78611 0.34591 0.0
H414 H 0.21311 0.7705 0.32869 0.0
H415 H 0.20895 0.75214 0.35452 0.0
Dy416 Dy 0.50709 0.02571 0.53004 0.0
Dy417 Dy 0.54894 0.03175 0.51798 0.0
C418 C 0.51629 0.03927 0.49132 0.0
O419 O 0.50734 -0.00106 0.51274 0.0
O420 O 0.5382 0.00122 0.51683 0.0
O421 O 0.47788 0.01689 0.5223 0.0
O422 O 0.48888 0.02888 0.55068 0.0
O423 O 0.55068 0.02964 0.54833 0.0
O424 O 0.522 0.01221 0.55009 0.0
O425 O 0.5451 0.06055 0.52387 0.0
O426 O 0.52255 0.05434 0.54292 0.0
O427 O 0.57819 0.04294 0.52441 0.0
O428 O 0.56706 0.02547 0.49841 0.0
C429 C 0.52133 0.99135 0.51183 0.0
O430 O 0.50772 0.04137 0.50587 0.0
O431 O 0.53078 0.03253 0.49213 0.0
C432 C 0.46169 0.03575 0.53798 0.0
C433 C 0.43698 0.05872 0.53673 0.0
C434 C 0.4516 0.06111 0.52589 0.0
C435 C 0.46384 0.04979 0.52656 0.0
C436 C 0.4473 0.0334 0.54893 0.0
C437 C 0.4351 0.04476 0.54836 0.0
C438 C 0.47427 0.02348 0.53846 0.0
C439 C 0.53941 0.01801 0.55653 0.0
C440 C 0.53513 0.0662 0.53613 0.0
C441 C 0.59529 0.02206 0.51306 0.0
C442 C 0.62049 -3e-05 0.51872 0.0
C443 C 0.61804 0.01259 0.53335 0.0
C444 C 0.60559 0.02348 0.53058 0.0
C445 C 0.59792 0.00963 0.49838 0.0
C446 C 0.61028 -0.00133 0.50119 0.0
C447 C 0.58179 0.03329 0.5099 0.0
H448 H 0.45342 0.07152 0.51661 0.0
H449 H 0.47491 0.05191 0.51804 0.0
H450 H 0.44547 0.02273 0.55793 0.0
H451 H 0.42426 0.04269 0.55716 0.0
H452 H 0.62555 0.01386 0.54707 0.0
H453 H 0.60398 0.03291 0.54222 0.0
H454 H 0.59036 0.00831 0.48467 0.0
H455 H 0.612 0.98933 0.48952 0.0
Dy456 Dy 0.29996 0.27145 0.77418 0.0
Dy457 Dy 0.25985 0.28324 0.77129 0.0
C458 C 0.29683 0.31034 0.76363 0.0
O459 O 0.29906 0.28814 0.80154 0.0
O460 O 0.26796 0.28153 0.80126 0.0
O461 O 0.32926 0.27965 0.78201 0.0
O462 O 0.31669 0.25232 0.76793 0.0
O463 O 0.25378 0.25326 0.77311 0.0
O464 O 0.28128 0.24929 0.78646 0.0
O465 O 0.26533 0.27765 0.74151 0.0
O466 O 0.28438 0.25851 0.74654 0.0
O467 O 0.2309 0.27778 0.76131 0.0
O468 O 0.24408 0.3022 0.78045 0.0
C469 C 0.28452 0.2877 0.81019 0.0
O470 O 0.30279 0.29577 0.7588 0.0
O471 O 0.28187 0.30902 0.77169 0.0
C472 C 0.34633 0.26649 0.76078 0.0
C473 C 0.37448 0.26992 0.73714 0.0
C474 C 0.36633 0.28456 0.74151 0.0
C475 C 0.35244 0.28286 0.75314 0.0
C476 C 0.35432 0.25182 0.75633 0.0
C477 C 0.36817 0.25348 0.74466 0.0
C478 C 0.332 0.26458 0.7736 0.0
C479 C 0.26339 0.24364 0.78198 0.0
C480 C 0.27369 0.26514 0.73526 0.0
C481 C 0.21324 0.28822 0.78354 0.0
C482 C 0.18385 0.28268 0.80556 0.0
C483 C 0.20108 0.28019 0.81229 0.0
C484 C 0.21559 0.28287 0.80139 0.0
C485 C 0.1961 0.29059 0.77674 0.0
C486 C 0.18159 0.28785 0.78757 0.0
C487 C 0.22857 0.29178 0.77209 0.0
H488 H 0.37059 0.29734 0.73583 0.0
H489 H 0.34655 0.29441 0.75621 0.0
H490 H 0.34994 0.23907 0.76205 0.0
H491 H 0.3742 0.24197 0.74184 0.0
H492 H 0.20334 0.27599 0.82593 0.0
H493 H 0.22866 0.28087 0.80694 0.0
H494 H 0.19397 0.29477 0.76306 0.0
H495 H 0.16867 0.29015 0.78196 0.0
Dy496 Dy 0.03592 0.00721 0.51905 0.0
Dy497 Dy 0.02427 0.04733 0.5234 0.0
C498 C 0.99697 0.01004 0.52984 0.0
O499 O 0.0201 0.00857 0.49158 0.0
O500 O 0.0257 0.03986 0.49317 0.0
O501 O 0.02734 0.9777 0.51136 0.0
O502 O 0.05514 0.99049 0.52366 0.0
O503 O 0.05414 0.05353 0.52138 0.0
O504 O 0.05797 0.02621 0.50701 0.0
O505 O 0.02965 0.04116 0.55285 0.0
O506 O 0.04877 0.02223 0.54698 0.0
O507 O 0.03004 0.07633 0.53386 0.0
O508 O 0.00533 0.06336 0.51529 0.0
C509 C 0.02014 0.02343 0.48359 0.0
O510 O 0.01139 0.00383 0.53425 0.0
O511 O 0.99846 0.02536 0.52244 0.0
C512 C 0.04141 0.96104 0.53172 0.0
C513 C 0.03847 0.93358 0.55595 0.0
C514 C 0.03281 0.9289 0.53664 0.0
C515 C 0.03431 0.94245 0.52471 0.0
C516 C 0.04686 0.96587 0.551 0.0
C517 C 0.04545 0.9523 0.56296 0.0
C518 C 0.04275 0.97508 0.51874 0.0
C519 C 0.06365 0.04409 0.51198 0.0
C520 C 0.04209 0.03265 0.55867 0.0
C521 C 0.01979 0.09388 0.51175 0.0
C522 C 0.02602 0.12263 0.48913 0.0
C523 C 0.02993 0.10566 0.48355 0.0
C524 C 0.02691 0.09147 0.49477 0.0
C525 C 0.0159 0.11074 0.51739 0.0
C526 C 0.01899 0.12495 0.50625 0.0
C527 C 0.01605 0.07885 0.52346 0.0
H528 H 0.02701 0.91474 0.53069 0.0
H529 H 0.02985 0.93837 0.50994 0.0
H530 H 0.05226 0.98013 0.55686 0.0
H531 H 0.05011 0.95651 0.57766 0.0
H532 H 0.03554 0.1034 0.47061 0.0
H533 H 0.0301 0.0786 0.49017 0.0
H534 H 0.01033 0.11288 0.53039 0.0
H535 H 0.01557 0.13768 0.51093 0.0
Dy536 Dy 0.28297 0.79937 0.75921 0.0
Dy537 Dy 0.27682 0.75823 0.77294 0.0
C538 C 0.2706 0.79238 0.79821 0.0
O539 O 0.30949 0.79935 0.77677 0.0
O540 O 0.30714 0.76835 0.77304 0.0
O541 O 0.2918 0.82874 0.76676 0.0
O542 O 0.27968 0.81738 0.7385 0.0
O543 O 0.27965 0.75508 0.74264 0.0
O544 O 0.29637 0.78383 0.73949 0.0
O545 O 0.24816 0.76215 0.76682 0.0
O546 O 0.25463 0.78344 0.74653 0.0
O547 O 0.26529 0.72884 0.76793 0.0
O548 O 0.28298 0.74105 0.79345 0.0
C549 C 0.31702 0.7853 0.77778 0.0
O550 O 0.2666 0.79874 0.78276 0.0
O551 O 0.2782 0.77847 0.7982 0.0
C552 C 0.27258 0.84461 0.75147 0.0
C553 C 0.24941 0.86914 0.75342 0.0
C554 C 0.2475 0.85466 0.76439 0.0
C555 C 0.25891 0.84251 0.76337 0.0
C556 C 0.27445 0.85886 0.74038 0.0
C557 C 0.26299 0.87098 0.74131 0.0
C558 C 0.285 0.83215 0.7507 0.0
C559 C 0.29101 0.76611 0.73392 0.0
C560 C 0.24266 0.77155 0.754 0.0
C561 C 0.28604 0.71207 0.77988 0.0
C562 C 0.30804 0.68659 0.77502 0.0
C563 C 0.29598 0.68903 0.76005 0.0
C564 C 0.28515 0.70163 0.76243 0.0
C565 C 0.2979 0.70943 0.79488 0.0
C566 C 0.30881 0.69693 0.79247 0.0
C567 C 0.275 0.72585 0.78259 0.0
H568 H 0.2374 0.85288 0.77404 0.0
H569 H 0.25717 0.83156 0.77203 0.0
H570 H 0.28482 0.86066 0.73101 0.0
H571 H 0.2647 0.88171 0.7324 0.0
H572 H 0.29514 0.68143 0.74638 0.0
H573 H 0.27619 0.70327 0.75053 0.0
H574 H 0.29882 0.71713 0.80853 0.0
H575 H 0.31773 0.69523 0.80437 0.0
Dy576 Dy 0.51778 0.03921 -0.00211 0.0
Dy577 Dy 0.52781 0.01808 0.03297 0.0
C578 C 0.5298 0.00073 0.99151 0.0
O579 O 0.49103 0.028 0.00768 0.0
O580 O 0.49944 0.00413 0.0199 0.0
O581 O 0.50443 0.03921 0.97021 0.0
O582 O 0.52075 0.06456 0.98604 0.0
O583 O 0.5147 0.03986 0.04483 0.0
O584 O 0.52123 0.05972 0.02344 0.0
O585 O 0.55398 0.03807 0.03045 0.0
O586 O 0.54773 0.04202 -0.00013 0.0
O587 O 0.53783 0.01862 0.06193 0.0
O588 O 0.52719 0.99268 0.04425 0.0
C589 C 0.48677 0.01182 0.01331 0.0
O590 O 0.51928 0.01104 0.98533 0.0
O591 O 0.53755 0.00368 0.00891 0.0
C592 C 0.52475 0.0593 0.95495 0.0
C593 C 0.55165 0.06844 0.93126 0.0
C594 C 0.55148 0.05388 0.94178 0.0
C595 C 0.53814 0.04933 0.95348 0.0
C596 C 0.52453 0.07357 0.94416 0.0
C597 C 0.53785 0.07802 0.9322 0.0
C598 C 0.51294 0.05625 0.96966 0.0
C599 C 0.5167 0.0564 0.03995 0.0
C600 C 0.55926 0.04384 0.01498 0.0
C601 C 0.51811 0.99536 0.07392 0.0
C602 C 0.49197 0.98729 0.09866 0.0
C603 C 0.48735 0.99332 0.08165 0.0
C604 C 0.50032 0.99738 0.06945 0.0
C605 C 0.52273 0.98889 0.09062 0.0
C606 C 0.5097 0.98483 0.10294 0.0
C607 C 0.53169 0.00092 0.06131 0.0
H608 H 0.56176 0.04606 0.94103 0.0
H609 H 0.5386 0.03835 0.96183 0.0
H610 H 0.51444 0.08156 0.94538 0.0
H611 H 0.53771 0.08928 0.92417 0.0
H612 H 0.47376 0.99513 0.07788 0.0
H613 H 0.49654 0.00243 0.05661 0.0
H614 H 0.53645 0.98736 0.09428 0.0
H615 H 0.51368 0.98038 0.11606 0.0
Dy616 Dy 0.26959 0.25669 0.25994 0.0
Dy617 Dy 0.29093 0.29667 0.28198 0.0
C618 C 0.28548 0.26093 0.30309 0.0
O619 O 0.24809 0.26568 0.27536 0.0
O620 O 0.26084 0.2967 0.28049 0.0
O621 O 0.25371 0.22888 0.25961 0.0
O622 O 0.26196 0.2384 0.23403 0.0
O623 O 0.28693 0.30059 0.25193 0.0
O624 O 0.2621 0.27672 0.24174 0.0
O625 O 0.31359 0.28246 0.2769 0.0
O626 O 0.29826 0.26177 0.25204 0.0
O627 O 0.31303 0.32102 0.28434 0.0
O628 O 0.29392 0.31848 0.30468 0.0
C629 C 0.24681 0.28253 0.28056 0.0
O630 O 0.28302 0.25076 0.28679 0.0
O631 O 0.28654 0.2786 0.30431 0.0
C632 C 0.26473 0.20922 0.23919 0.0
C633 C 0.28343 0.1815 0.23298 0.0
C634 C 0.29228 0.19833 0.24377 0.0
C635 C 0.28301 0.21202 0.24685 0.0
C636 C 0.25572 0.19247 0.22846 0.0
C637 C 0.26501 0.17862 0.22543 0.0
C638 C 0.25563 0.22418 0.24228 0.0
C639 C 0.27313 0.29227 0.23929 0.0
C640 C 0.31373 0.27077 0.26214 0.0
C641 C 0.30346 0.34744 0.29508 0.0
C642 C 0.29085 0.37892 0.28966 0.0
C643 C 0.29392 0.36759 0.27433 0.0
C644 C 0.30006 0.35191 0.277 0.0
C645 C 0.30142 0.35932 0.31045 0.0
C646 C 0.2951 0.37492 0.30777 0.0
C647 C 0.30687 0.32948 0.29792 0.0
H648 H 0.30632 0.20084 0.25011 0.0
H649 H 0.29015 0.22486 0.25526 0.0
H650 H 0.24161 0.19016 0.22241 0.0
H651 H 0.25789 0.16577 0.21704 0.0
H652 H 0.29054 0.37024 0.26022 0.0
H653 H 0.30132 0.34287 0.26487 0.0
H654 H 0.3039 0.35607 0.32448 0.0
H655 H 0.29295 0.38353 0.31981 0.0
Dy656 Dy 0.53585 0.5075 0.0185 0.0
Dy657 Dy 0.5237 0.54728 0.0228 0.0
C658 C 0.4951 0.50957 0.02624 0.0
O659 O 0.53034 0.51266 0.98871 0.0
O660 O 0.51313 0.53385 0.99378 0.0
O661 O 0.53127 0.47842 0.00902 0.0
O662 O 0.55567 0.49269 0.02745 0.0
O663 O 0.54775 0.55102 0.00708 0.0
O664 O 0.56127 0.53004 0.01913 0.0
O665 O 0.53997 0.54554 0.04995 0.0
O666 O 0.5321 0.51434 0.04827 0.0
O667 O 0.53197 0.57659 0.03161 0.0
O668 O 0.50455 0.5641 0.0181 0.0
C669 C 0.51925 0.52248 0.98252 0.0
O670 O 0.50559 0.50069 0.01765 0.0
O671 O 0.50061 0.52726 0.03246 0.0
C672 C 0.54282 0.46199 0.03155 0.0
C673 C 0.53885 0.43414 0.0553 0.0
C674 C 0.52897 0.44779 0.05701 0.0
C675 C 0.53095 0.46157 0.04528 0.0
C676 C 0.55269 0.44848 0.02979 0.0
C677 C 0.55074 0.43473 0.0415 0.0
C678 C 0.54562 0.4768 0.01953 0.0
C679 C 0.56233 0.54504 0.01121 0.0
C680 C 0.53861 0.53057 0.05799 0.0
C681 C 0.51873 0.59373 0.01127 0.0
C682 C 0.52347 0.62181 0.98778 0.0
C683 C 0.52673 0.60458 0.98198 0.0
C684 C 0.52445 0.59072 0.99363 0.0
C685 C 0.51527 0.61075 0.01702 0.0
C686 C 0.5176 0.62462 0.00544 0.0
C687 C 0.51678 0.57944 0.02393 0.0
H688 H 0.51953 0.44773 0.06729 0.0
H689 H 0.52325 0.47193 0.04695 0.0
H690 H 0.56207 0.44865 0.01943 0.0
H691 H 0.55884 0.42473 0.03991 0.0
H692 H 0.53143 0.60193 0.9686 0.0
H693 H 0.52732 0.5777 0.98894 0.0
H694 H 0.51083 0.61338 0.03054 0.0
H695 H 0.51466 0.63755 0.01031 0.0
Dy696 Dy 0.78572 0.30045 0.26381 0.0
Dy697 Dy 0.77782 0.25798 0.27452 0.0
C698 C 0.77406 0.29092 0.30263 0.0
O699 O 0.81406 0.29593 0.26922 0.0
O700 O 0.80715 0.27169 0.28629 0.0
O701 O 0.79575 0.32971 0.27216 0.0
O702 O 0.78228 0.31944 0.24425 0.0
O703 O 0.793 0.25824 0.24995 0.0
O704 O 0.78544 0.28242 0.2374 0.0
O705 O 0.75127 0.25984 0.25842 0.0
O706 O 0.75523 0.2911 0.26334 0.0
O707 O 0.76771 0.2288 0.26604 0.0
O708 O 0.77996 0.23907 0.2945 0.0
C709 C 0.8192 0.28486 0.28041 0.0
O710 O 0.78659 0.30105 0.29447 0.0
O711 O 0.76584 0.27407 0.29534 0.0
C712 C 0.77683 0.34684 0.25837 0.0
C713 C 0.75374 0.37136 0.26057 0.0
C714 C 0.7512 0.35625 0.27072 0.0
C715 C 0.7626 0.34409 0.26959 0.0
C716 C 0.77942 0.36181 0.24824 0.0
C717 C 0.76801 0.37393 0.2493 0.0
C718 C 0.78861 0.33386 0.25664 0.0
C719 C 0.79137 0.26742 0.23587 0.0
C720 C 0.7446 0.2745 0.25815 0.0
C721 C 0.78595 0.21171 0.28057 0.0
C722 C 0.80812 0.18646 0.27659 0.0
C723 C 0.81465 0.20486 0.27369 0.0
C724 C 0.80366 0.21734 0.27561 0.0
C725 C 0.77941 0.19347 0.28363 0.0
C726 C 0.79037 0.18096 0.28166 0.0
C727 C 0.7741 0.22465 0.28191 0.0
H728 H 0.74053 0.35391 0.2797 0.0
H729 H 0.76029 0.33253 0.27745 0.0
H730 H 0.7902 0.36405 0.23936 0.0
H731 H 0.77021 0.38516 0.24102 0.0
H732 H 0.82812 0.20955 0.26955 0.0
H733 H 0.80889 0.23135 0.27303 0.0
H734 H 0.76578 0.18886 0.28743 0.0
H735 H 0.78497 0.16699 0.28425 0.0
Dy736 Dy 0.0226 0.54064 0.49953 0.0
Dy737 Dy 0.02942 0.51834 0.53464 0.0
C738 C 0.03358 0.50187 0.49348 0.0
O739 O 0.99461 0.5296 0.50678 0.0
O740 O 1.00111 0.50567 0.52072 0.0
O741 O 0.01152 0.54183 0.47127 0.0
O742 O 0.02779 0.56644 0.48843 0.0
O743 O 0.01581 0.53986 0.54608 0.0
O744 O 0.02352 0.5602 0.52525 0.0
O745 O 0.05516 0.53997 0.53532 0.0
O746 O 0.05258 0.54297 0.50434 0.0
O747 O 0.03859 0.51785 0.56362 0.0
O748 O 0.02764 0.4924 0.54519 0.0
C749 C 0.98933 0.51368 0.51279 0.0
O750 O 0.0235 0.51239 0.48695 0.0
O751 O 0.04066 0.50466 0.51111 0.0
C752 C 0.03337 0.56199 0.45769 0.0
C753 C 0.06049 0.57032 0.43405 0.0
C754 C 0.06061 0.55657 0.4456 0.0
C755 C 0.04716 0.55243 0.45729 0.0
C756 C 0.033 0.57557 0.44606 0.0
C757 C 0.04644 0.57964 0.43418 0.0
C758 C 0.02069 0.5588 0.47162 0.0
C759 C 0.01799 0.55648 0.54132 0.0
C760 C 0.06235 0.54574 0.52071 0.0
C761 C 0.01854 0.49449 0.57519 0.0
C762 C 0.99253 0.49061 0.60047 0.0
C763 C 0.98686 0.48807 0.58122 0.0
C764 C 0.99976 0.4901 0.56869 0.0
C765 C 0.02421 0.49601 0.59432 0.0
C766 C 0.01129 0.49408 0.60689 0.0
C767 C 0.03202 0.50017 0.56243 0.0
H768 H 0.07105 0.54892 0.44552 0.0
H769 H 0.04768 0.54194 0.46626 0.0
H770 H 0.02255 0.58321 0.44641 0.0
H771 H 0.04607 0.5903 0.42538 0.0
H772 H 0.97253 0.48559 0.5759 0.0
H773 H 0.99504 0.48913 0.55398 0.0
H774 H 0.03863 0.49955 0.59958 0.0
H775 H 0.01599 0.49593 0.62168 0.0
Dy776 Dy 0.79852 0.77158 0.27492 0.0
Dy777 Dy 0.75883 0.78425 0.27121 0.0
C778 C 0.7965 0.81086 0.26458 0.0
O779 O 0.79736 0.78767 0.30252 0.0
O780 O 0.76621 0.78238 0.30124 0.0
O781 O 0.82781 0.77943 0.28279 0.0
O782 O 0.81484 0.75198 0.26932 0.0
O783 O 0.75213 0.75419 0.27274 0.0
O784 O 0.77912 0.74961 0.28667 0.0
O785 O 0.7649 0.77875 0.24166 0.0
O786 O 0.78331 0.75907 0.24701 0.0
O787 O 0.73006 0.77924 0.26086 0.0
O788 O 0.74329 0.8036 0.28003 0.0
C789 C 0.7826 0.78782 0.31067 0.0
O790 O 0.80226 0.79614 0.25987 0.0
O791 O 0.78129 0.80976 0.27216 0.0
C792 C 0.84454 0.76545 0.26216 0.0
C793 C 0.87241 0.76835 0.23831 0.0
C794 C 0.85894 0.77836 0.23632 0.0
C795 C 0.84514 0.77688 0.24806 0.0
C796 C 0.85786 0.75541 0.26416 0.0
C797 C 0.87161 0.75681 0.2524 0.0
C798 C 0.8303 0.76401 0.27495 0.0
C799 C 0.76128 0.74429 0.28177 0.0
C800 C 0.77309 0.76605 0.23557 0.0
C801 C 0.71241 0.78996 0.2829 0.0
C802 C 0.68329 0.78476 0.30529 0.0
C803 C 0.69765 0.77594 0.30803 0.0
C804 C 0.71206 0.77854 0.29699 0.0
C805 C 0.6981 0.79865 0.28001 0.0
C806 C 0.68373 0.79609 0.29104 0.0
C807 C 0.72778 0.79335 0.27152 0.0
H808 H 0.85893 0.78721 0.22553 0.0
H809 H 0.83494 0.78469 0.24615 0.0
H810 H 0.85771 0.74654 0.27495 0.0
H811 H 0.88182 0.74907 0.25457 0.0
H812 H 0.69797 0.76728 0.31895 0.0
H813 H 0.72301 0.77178 0.29957 0.0
H814 H 0.69807 0.80751 0.26923 0.0
H815 H 0.67286 0.80291 0.28825 0.0
Dy816 Dy 0.78919 0.28097 0.75737 0.0
Dy817 Dy 0.76675 0.28891 0.79185 0.0
C818 C 0.79539 0.3205 0.77969 0.0
O819 O 0.80422 0.2717 0.7812 0.0
O820 O 0.79441 0.2874 0.80542 0.0
O821 O 0.8096 0.29154 0.74006 0.0
O822 O 0.79578 0.26267 0.73559 0.0
O823 O 0.76528 0.25896 0.78812 0.0
O824 O 0.76618 0.25636 0.75684 0.0
O825 O 0.7468 0.28652 0.76619 0.0
O826 O 0.7668 0.29269 0.74465 0.0
O827 O 0.74225 0.28192 0.80511 0.0
O828 O 0.76457 0.30491 0.81756 0.0
C829 C 0.80591 0.27827 0.79897 0.0
O830 O 0.80353 0.30782 0.774 0.0
O831 O 0.77829 0.31595 0.7827 0.0
C832 C 0.80171 0.27798 0.70943 0.0
C833 C 0.79369 0.29087 0.6756 0.0
C834 C 0.77952 0.28331 0.68568 0.0
C835 C 0.78351 0.27697 0.70252 0.0
C836 C 0.81575 0.28429 0.69879 0.0
C837 C 0.81176 0.29068 0.68193 0.0
C838 C 0.80632 0.27613 0.72899 0.0
C839 C 0.76169 0.24898 0.77175 0.0
C840 C 0.75025 0.29078 0.74958 0.0
C841 C 0.74951 0.28531 0.83742 0.0
C842 C 0.74917 0.2635 0.86646 0.0
C843 C 0.7658 0.27233 0.86076 0.0
C844 C 0.76597 0.28306 0.84634 0.0
C845 C 0.73293 0.27723 0.84363 0.0
C846 C 0.73274 0.26635 0.85804 0.0
C847 C 0.74939 0.29353 0.82001 0.0
H848 H 0.7655 0.28346 0.68123 0.0
H849 H 0.77252 0.27241 0.71072 0.0
H850 H 0.82987 0.28534 0.70406 0.0
H851 H 0.8229 0.29623 0.67428 0.0
H852 H 0.77865 0.27015 0.86677 0.0
H853 H 0.77893 0.28886 0.84161 0.0
H854 H 0.72008 0.27866 0.83677 0.0
H855 H 0.71976 0.25977 0.86227 0.0
Dy856 Dy 0.7668 0.75555 0.76011 0.0
Dy857 Dy 0.78799 0.79559 0.78187 0.0
C858 C 0.78313 0.75982 0.80308 0.0
O859 O 0.74576 0.76441 0.77636 0.0
O860 O 0.7578 0.79543 0.77973 0.0
O861 O 0.74999 0.72811 0.75955 0.0
O862 O 0.75936 0.73727 0.73421 0.0
O863 O 0.78474 0.79884 0.75166 0.0
O864 O 0.75935 0.77564 0.74191 0.0
O865 O 0.81103 0.78193 0.77691 0.0
O866 O 0.79572 0.76009 0.75282 0.0
O867 O 0.80867 0.82093 0.78316 0.0
O868 O 0.79134 0.81702 0.805 0.0
C869 C 0.7441 0.78125 0.78072 0.0
O870 O 0.78033 0.74952 0.78682 0.0
O871 O 0.78422 0.77751 0.80427 0.0
C872 C 0.75986 0.70743 0.73923 0.0
C873 C 0.77584 0.67756 0.73353 0.0
C874 C 0.78571 0.69404 0.74437 0.0
C875 C 0.77781 0.70882 0.74717 0.0
C876 C 0.74987 0.69111 0.72838 0.0
C877 C 0.7578 0.67621 0.72557 0.0
C878 C 0.75198 0.72326 0.74228 0.0
C879 C 0.77072 0.79086 0.73919 0.0
C880 C 0.81117 0.76968 0.76261 0.0
C881 C 0.7966 0.84527 0.79382 0.0
C882 C 0.78166 0.8753 0.78866 0.0
C883 C 0.77465 0.85848 0.77721 0.0
C884 C 0.78207 0.84362 0.77975 0.0
C885 C 0.80411 0.86219 0.80493 0.0
C886 C 0.79672 0.87723 0.80227 0.0
C887 C 0.80274 0.82881 0.79728 0.0
H888 H 0.79947 0.69541 0.75102 0.0
H889 H 0.78569 0.72135 0.75563 0.0
H890 H 0.73601 0.6899 0.72211 0.0
H891 H 0.74991 0.6637 0.71709 0.0
H892 H 0.76318 0.85675 0.76649 0.0
H893 H 0.77614 0.83064 0.77103 0.0
H894 H 0.81531 0.86361 0.81587 0.0
H895 H 0.80227 0.8901 0.81128 0.0
Dy896 Dy 0.55047 0.54139 0.5319 0.0
Dy897 Dy 0.51101 0.51911 0.51035 0.0
C898 C 0.54652 0.52471 0.48898 0.0
O899 O 0.54101 0.56215 0.5158 0.0
O900 O 0.51024 0.54919 0.51223 0.0
O901 O 0.57795 0.55771 0.53179 0.0
O902 O 0.56847 0.55054 0.55772 0.0
O903 O 0.50709 0.52319 0.54046 0.0
O904 O 0.53047 0.54851 0.55046 0.0
O905 O 0.52576 0.49686 0.51553 0.0
O906 O 0.54579 0.51288 0.54049 0.0
O907 O 0.48688 0.49683 0.50847 0.0
O908 O 0.48926 0.51537 0.48769 0.0
C909 C 0.52409 0.56328 0.51133 0.0
O910 O 0.55663 0.52736 0.50526 0.0
O911 O 0.52893 0.52363 0.48786 0.0
C912 C 0.59809 0.54896 0.55334 0.0
C913 C 0.62721 0.53256 0.56077 0.0
C914 C 0.61051 0.52219 0.55093 0.0
C915 C 0.59611 0.53031 0.54724 0.0
C916 C 0.61466 0.55948 0.56318 0.0
C917 C 0.62923 0.55132 0.56682 0.0
C918 C 0.58258 0.55699 0.54937 0.0
C919 C 0.51519 0.53718 0.55304 0.0
C920 C 0.53713 0.49711 0.53055 0.0
C921 C 0.46145 0.50772 0.49948 0.0
C922 C 0.43072 0.52062 0.50691 0.0
C923 C 0.4474 0.52747 0.51843 0.0
C924 C 0.46262 0.52114 0.5147 0.0
C925 C 0.44468 0.50027 0.48827 0.0
C926 C 0.42928 0.50666 0.49204 0.0
C927 C 0.47827 0.50288 0.49504 0.0
H928 H 0.60867 0.50783 0.54569 0.0
H929 H 0.58341 0.52204 0.53951 0.0
H930 H 0.61633 0.5739 0.56798 0.0
H931 H 0.64198 0.55961 0.57441 0.0
H932 H 0.44878 0.53806 0.53012 0.0
H933 H 0.47548 0.52712 0.52342 0.0
H934 H 0.44364 0.48996 0.47641 0.0
H935 H 0.41652 0.50125 0.48297 0.0
Dy936 Dy 0.00602 0.5254 0.03003 0.0
Dy937 Dy 0.04818 0.53184 0.01848 0.0
C938 C 0.01568 0.53951 0.99159 0.0
O939 O 0.00665 0.49884 0.01264 0.0
O940 O 0.03752 0.5013 0.01737 0.0
O941 O 0.97685 0.51634 0.02204 0.0
O942 O 0.98758 0.52811 0.05054 0.0
O943 O 0.0498 0.52974 0.0488 0.0
O944 O 0.02106 0.51234 0.05044 0.0
O945 O 0.04459 0.56065 0.02483 0.0
O946 O 0.02067 0.5544 0.04236 0.0
O947 O 0.07742 0.54303 0.02497 0.0
O948 O 0.06635 0.52556 -0.00105 0.0
C949 C 0.02073 0.49135 0.01205 0.0
O950 O 0.00669 0.54109 0.00591 0.0
O951 O 0.03035 0.53307 0.99254 0.0
C952 C 0.96045 0.53496 0.03774 0.0
C953 C 0.93581 0.558 0.03663 0.0
C954 C 0.95072 0.56074 0.0262 0.0
C955 C 0.96293 0.54939 0.0268 0.0
C956 C 0.94575 0.53224 0.04828 0.0
C957 C 0.93358 0.54364 0.04778 0.0
C958 C 0.97307 0.52274 0.03819 0.0
C959 C 0.03844 0.51821 0.057 0.0
C960 C 0.03385 0.56622 0.03628 0.0
C961 C 0.09456 0.52222 0.01358 0.0
C962 C 0.11961 0.49999 0.01896 0.0
C963 C 0.11579 0.51108 0.03413 0.0
C964 C 0.10337 0.52202 0.03149 0.0
C965 C 0.09856 0.51132 -0.00159 0.0
C966 C 0.11085 0.50028 0.00107 0.0
C967 C 0.08105 0.53342 0.01045 0.0
H968 H 0.95281 0.57146 0.01728 0.0
H969 H 0.97425 0.5518 0.01861 0.0
H970 H 0.94367 0.52128 0.05692 0.0
H971 H 0.92251 0.54128 0.05628 0.0
H972 H 0.12218 0.51107 0.04811 0.0
H973 H 0.10062 0.53021 0.04352 0.0
H974 H 0.0921 0.51127 0.98444 0.0
H975 H 0.11366 0.49212 0.98905 0.0
C976 C 0.98893 0.20885 0.96885 0.0
C977 C 1.00051 0.21903 0.95755 0.0
C978 C 0.99133 0.19194 0.97378 0.0
C979 C 0.02602 0.16471 0.98024 0.0
H980 H 0.98418 0.12371 0.9793 0.0
C981 C 0.03595 0.09391 -0.00054 0.0
C982 C 0.02184 0.0816 0.00625 0.0
C983 C 0.03327 0.11019 0.99304 0.0
C984 C 0.99613 0.13499 0.98008 0.0
H985 H 0.02391 0.21888 0.9427 0.0
H986 H 0.02841 0.18957 0.95169 0.0
H987 H 0.97987 0.15228 0.96917 0.0
H988 H 0.99368 0.07732 0.01163 0.0
H989 H 0.98917 0.10587 0.0014 0.0
H990 H 0.04228 0.14795 0.99183 0.0
C991 C 0.01728 0.19472 0.95661 0.0
C992 C 0.9936 0.15151 0.97405 0.0
C993 C 0.01462 0.21153 0.95131 0.0
C994 C 0.00492 0.0863 0.00648 0.0
C995 C 1.0023 0.1028 0.00037 0.0
C996 C 0.02854 0.14832 0.98661 0.0
C997 C 0.00566 0.1846 0.96795 0.0
C998 C 0.00849 0.16669 0.97397 0.0
C999 C 0.01641 0.11516 0.99342 0.0
C1000 C 0.01366 0.13298 0.98665 0.0
H1001 H 0.97788 0.214 0.97398 0.0
H1002 H 0.98215 0.18479 0.9826 0.0
H1003 H 0.03786 0.17608 0.98071 0.0
H1004 H 0.04915 0.09082 -0.00121 0.0
H1005 H 0.04452 0.1187 0.9875 0.0
C1006 C 0.10812 0.80053 0.15208 0.0
C1007 C 0.11043 0.80484 0.13393 0.0
C1008 C 0.12306 0.79928 0.16455 0.0
C1009 C 0.17093 0.79316 0.16576 0.0
H1010 H 0.17327 0.80775 0.21881 0.0
C1011 C 0.23503 0.79442 0.21801 0.0
C1012 C 0.23212 0.78889 0.23561 0.0
C1013 C 0.22048 0.79675 0.20567 0.0
C1014 C 0.1728 0.80339 0.20407 0.0
H1015 H 0.13074 0.81162 0.11506 0.0
H1016 H 0.15665 0.8098 0.13675 0.0
H1017 H 0.14776 0.81134 0.19765 0.0
H1018 H 0.2113 0.78147 0.25381 0.0
H1019 H 0.18612 0.78537 0.23241 0.0
H1020 H 0.196 0.78523 0.1722 0.0
C1021 C 0.14321 0.807 0.1413 0.0
C1022 C 0.15807 0.80546 0.19185 0.0
C1023 C 0.12827 0.80822 0.12884 0.0
C1024 C 0.2142 0.78579 0.24045 0.0
C1025 C 0.19969 0.78816 0.22816 0.0
C1026 C 0.18569 0.79113 0.17798 0.0
C1027 C 0.14087 0.80232 0.15933 0.0
C1028 C 0.15682 0.80034 0.17246 0.0
C1029 C 0.20254 0.79369 0.21054 0.0
C1030 C 0.18687 0.79615 0.19737 0.0
H1031 H 0.09465 0.7977 0.15657 0.0
H1032 H 0.12051 0.79543 0.17815 0.0
H1033 H 0.17044 0.78872 0.15103 0.0
H1034 H 0.24859 0.79698 0.21372 0.0
H1035 H 0.22338 0.80121 0.19237 0.0
C1036 C 0.50372 0.83119 0.43763 0.0
C1037 C 0.50411 0.81753 0.44935 0.0
C1038 C 0.5044 0.84938 0.44493 0.0
C1039 C 0.51854 0.88295 0.48851 0.0
H1040 H 0.49125 0.91171 0.46162 0.0
C1041 C 0.53304 0.96262 0.50644 0.0
C1042 C 0.5183 0.9711 0.50532 0.0
C1043 C 0.53053 0.9438 0.5003 0.0
C1044 C 0.4989 0.90392 0.46945 0.0
H1045 H 0.50539 0.81262 0.47819 0.0
H1046 H 0.50663 0.84435 0.49098 0.0
H1047 H 0.48793 0.87942 0.45005 0.0
H1048 H 0.48919 0.9659 0.49667 0.0
H1049 H 0.48481 0.93314 0.4859 0.0
H1050 H 0.5295 0.90745 0.50792 0.0
C1051 C 0.50589 0.84098 0.47604 0.0
C1052 C 0.49714 0.88533 0.46267 0.0
C1053 C 0.50504 0.82268 0.46869 0.0
C1054 C 0.50091 0.96 0.49781 0.0
C1055 C 0.49842 0.94114 0.4915 0.0
C1056 C 0.52042 0.90159 0.49521 0.0
C1057 C 0.50564 0.85471 0.46428 0.0
C1058 C 0.507 0.87449 0.47201 0.0
C1059 C 0.51319 0.93267 0.49265 0.0
C1060 C 0.51071 0.91248 0.48577 0.0
H1061 H 0.50305 0.82788 0.42268 0.0
H1062 H 0.5044 0.85941 0.43533 0.0
H1063 H 0.52651 0.87527 0.49611 0.0
H1064 H 0.54667 0.97055 0.51208 0.0
H1065 H 0.54235 0.93804 0.50126 0.0
C1066 C 0.49351 0.28705 0.62947 0.0
C1067 C 0.51077 0.28618 0.63785 0.0
C1068 C 0.47843 0.28486 0.63961 0.0
C1069 C 0.46703 0.2881 0.68842 0.0
H1070 H 0.41826 0.26203 0.66568 0.0
C1071 C 0.40327 0.28837 0.72667 0.0
C1072 C 0.38963 0.27186 0.72504 0.0
C1073 C 0.41766 0.29009 0.71566 0.0
C1074 C 0.4318 0.26927 0.67232 0.0
H1075 H 0.52549 0.28189 0.66342 0.0
H1076 H 0.49933 0.27789 0.68092 0.0
H1077 H 0.44387 0.26448 0.64732 0.0
H1078 H 0.38046 0.24431 0.71007 0.0
H1079 H 0.4056 0.24722 0.69111 0.0
H1080 H 0.45508 0.29266 0.71347 0.0
C1081 C 0.49742 0.28056 0.66662 0.0
C1082 C 0.4465 0.27085 0.6617 0.0
C1083 C 0.51245 0.28272 0.65649 0.0
C1084 C 0.39076 0.25718 0.71192 0.0
C1085 C 0.40511 0.25892 0.70085 0.0
C1086 C 0.45235 0.28659 0.699 0.0
C1087 C 0.48021 0.2818 0.65843 0.0
C1088 C 0.46437 0.28022 0.66961 0.0
C1089 C 0.41886 0.27538 0.70262 0.0
C1090 C 0.43449 0.27712 0.69115 0.0
H1091 H 0.49171 0.28977 0.61517 0.0
H1092 H 0.46547 0.28605 0.63282 0.0
H1093 H 0.4805 0.29563 0.69501 0.0
H1094 H 0.40304 0.29994 0.7367 0.0
H1095 H 0.4278 0.30306 0.71732 0.0
C1096 C 0.02097 0.81719 0.6662 0.0
C1097 C 0.0228 0.80014 0.6579 0.0
C1098 C 0.02326 0.83238 0.65621 0.0
C1099 C 0.02192 0.84308 0.60726 0.0
H1100 H 0.04485 0.89299 0.62977 0.0
C1101 C 0.04044 0.90183 0.56246 0.0
C1102 C 0.03715 0.91895 0.56858 0.0
C1103 C 0.03884 0.88796 0.574 0.0
C1104 C 0.03824 0.87915 0.6233 0.0
H1105 H 0.02931 0.78597 0.6329 0.0
H1106 H 0.03366 0.81227 0.61582 0.0
H1107 H 0.04217 0.86793 0.64889 0.0
H1108 H 0.02961 0.9347 0.59197 0.0
H1109 H 0.02702 0.91056 0.61213 0.0
H1110 H 0.01805 0.85418 0.5817 0.0
C1111 C 0.02998 0.81393 0.62981 0.0
C1112 C 0.03669 0.86476 0.63429 0.0
C1113 C 0.02763 0.79883 0.63971 0.0
C1114 C 0.03249 0.92184 0.58677 0.0
C1115 C 0.03097 0.90795 0.59837 0.0
C1116 C 0.02352 0.85741 0.59631 0.0
C1117 C 0.02744 0.83084 0.63771 0.0
C1118 C 0.02867 0.84646 0.62637 0.0
C1119 C 0.03398 0.89075 0.59208 0.0
C1120 C 0.03185 0.87564 0.6041 0.0
H1121 H 0.01718 0.81864 0.68016 0.0
H1122 H 0.02112 0.84513 0.66278 0.0
H1123 H 0.01522 0.82929 0.6007 0.0
H1124 H 0.04447 0.89915 0.54876 0.0
H1125 H 0.04162 0.87506 0.56877 0.0
C1126 C 0.47842 0.82075 0.85024 0.0
C1127 C 0.48871 0.80771 0.84668 0.0
C1128 C 0.46082 0.81857 0.84083 0.0
C1129 C 0.42053 0.78301 0.81702 0.0
H1130 H 0.40383 0.82455 0.80165 0.0
C1131 C 0.34586 0.77384 0.7816 0.0
C1132 C 0.33713 0.78832 0.78425 0.0
C1133 C 0.36452 0.77625 0.7879 0.0
C1134 C 0.40803 0.81276 0.80609 0.0
H1135 H 0.48831 0.78211 0.83004 0.0
H1136 H 0.45732 0.7781 0.81364 0.0
H1137 H 0.4357 0.82854 0.81418 0.0
H1138 H 0.34162 0.81682 0.79586 0.0
H1139 H 0.37386 0.82093 0.80737 0.0
H1140 H 0.39285 0.76731 0.80962 0.0
C1141 C 0.46306 0.79017 0.82375 0.0
C1142 C 0.4265 0.81507 0.81321 0.0
C1143 C 0.48094 0.79255 0.83298 0.0
C1144 C 0.34778 0.80535 0.79341 0.0
C1145 C 0.36645 0.80771 0.79994 0.0
C1146 C 0.40199 0.78073 0.81012 0.0
C1147 C 0.45263 0.80307 0.82769 0.0
C1148 C 0.43309 0.80026 0.81889 0.0
C1149 C 0.37524 0.79319 0.79736 0.0
C1150 C 0.39529 0.79558 0.80456 0.0
H1151 H 0.48386 0.83256 0.86075 0.0
H1152 H 0.45333 0.82874 0.84446 0.0
H1153 H 0.42491 0.7713 0.82148 0.0
H1154 H 0.33828 0.76053 0.77449 0.0
H1155 H 0.37054 0.76474 0.78512 0.0
C1156 C 0.50985 0.18949 0.15366 0.0
C1157 C 0.50654 0.20353 0.14359 0.0
C1158 C 0.50819 0.17165 0.14442 0.0
C1159 C 0.49113 0.14192 0.09787 0.0
H1160 H 0.52887 0.11734 0.1122 0.0
C1161 C 0.51125 0.08799 0.04675 0.0
C1162 C 0.51382 0.07174 0.05321 0.0
C1163 C 0.50872 0.10254 0.05906 0.0
C1164 C 0.51811 0.12392 0.10812 0.0
H1165 H 0.49807 0.20958 0.11614 0.0
H1166 H 0.4952 0.17909 0.10025 0.0
H1167 H 0.52646 0.14491 0.13172 0.0
H1168 H 0.51591 0.05829 0.07796 0.0
H1169 H 0.51189 0.08391 0.09952 0.0
H1170 H 0.48332 0.12139 0.07388 0.0
C1171 C 0.49885 0.1814 0.11522 0.0
C1172 C 0.51665 0.13974 0.11939 0.0
C1173 C 0.50053 0.19904 0.12438 0.0
C1174 C 0.5139 0.07053 0.07243 0.0
C1175 C 0.5117 0.08527 0.08483 0.0
C1176 C 0.49277 0.12632 0.08652 0.0
C1177 C 0.50311 0.16745 0.12491 0.0
C1178 C 0.50334 0.14924 0.11426 0.0
C1179 C 0.50897 0.10145 0.07829 0.0
C1180 C 0.50647 0.11726 0.09128 0.0
H1181 H 0.51483 0.19255 0.1684 0.0
H1182 H 0.51138 0.1613 0.15249 0.0
H1183 H 0.48036 0.14839 0.09358 0.0
H1184 H 0.51109 0.08948 0.03209 0.0
H1185 H 0.50685 0.11483 0.05352 0.0
C1186 C 0.11104 0.30791 0.3553 0.0
C1187 C 0.09398 0.30304 0.34402 0.0
C1188 C 0.1272 0.30596 0.34807 0.0
C1189 C 0.14454 0.28282 0.30721 0.0
H1190 H 0.19067 0.31678 0.32747 0.0
C1191 C 0.21429 0.27034 0.28767 0.0
C1192 C 0.2291 0.28542 0.2869 0.0
C1193 C 0.19792 0.27275 0.29412 0.0
C1194 C 0.17797 0.3072 0.32142 0.0
H1195 H 0.08093 0.29225 0.31597 0.0
H1196 H 0.10896 0.28909 0.30329 0.0
H1197 H 0.16254 0.32061 0.33907 0.0
H1198 H 0.23777 0.31509 0.29244 0.0
H1199 H 0.20932 0.31936 0.30333 0.0
H1200 H 0.15991 0.26967 0.28924 0.0
C1201 C 0.10991 0.29419 0.31792 0.0
C1202 C 0.16167 0.30925 0.32834 0.0
C1203 C 0.0937 0.29611 0.32519 0.0
C1204 C 0.22682 0.30307 0.29276 0.0
C1205 C 0.21041 0.3055 0.2992 0.0
C1206 C 0.16084 0.28077 0.30028 0.0
C1207 C 0.12705 0.2991 0.32919 0.0
C1208 C 0.14458 0.29706 0.32146 0.0
C1209 C 0.19559 0.29038 0.30008 0.0
C1210 C 0.17795 0.29286 0.30728 0.0
H1211 H 0.11195 0.31322 0.36988 0.0
H1212 H 0.13983 0.30964 0.35748 0.0
H1213 H 0.13191 0.27294 0.30151 0.0
H1214 H 0.21535 0.25648 0.28346 0.0
H1215 H 0.18721 0.26063 0.29476 0.0
C1216 C 0.94486 0.02899 0.20134 0.0
C1217 C 0.95834 0.03081 0.21661 0.0
C1218 C 0.94982 0.03154 0.18347 0.0
C1219 C 0.98772 0.05325 0.15857 0.0
H1220 H 0.96669 0.01399 0.11823 0.0
C1221 C 0.01938 0.04858 0.08917 0.0
C1222 C 0.00812 0.03982 0.0727 0.0
C1223 C 0.01239 0.04893 0.10636 0.0
C1224 C 0.9725 0.02534 0.12913 0.0
H1225 H 0.9876 0.0375 0.22517 0.0
H1226 H 0.99616 0.04242 0.19431 0.0
H1227 H 0.9557 0.01256 0.14854 0.0
H1228 H 0.98043 0.02533 0.06127 0.0
H1229 H 0.96805 0.02671 0.09087 0.0
H1230 H 0.00431 0.06627 0.13928 0.0
C1231 C 0.98178 0.03883 0.19603 0.0
C1232 C 0.96618 0.02443 0.1466 0.0
C1233 C 0.97685 0.03591 0.21372 0.0
C1234 C 0.98955 0.03205 0.07372 0.0
C1235 C 0.98247 0.03269 0.09082 0.0
C1236 C 0.99383 0.05433 0.14103 0.0
C1237 C 0.96837 0.0364 0.18062 0.0
C1238 C 0.9739 0.03823 0.16161 0.0
C1239 C 0.99384 0.04081 0.10753 0.0
C1240 C 0.98654 0.04026 0.12605 0.0
H1241 H 0.9305 0.025 0.20306 0.0
H1242 H 0.93917 0.02965 0.17187 0.0
H1243 H 0.99383 0.0642 0.16982 0.0
H1244 H 0.03379 0.05455 0.0889 0.0
H1245 H 0.02176 0.05507 0.11879 0.0
C1246 C 0.26109 0.65269 0.47465 0.0
C1247 C 0.27279 0.66434 0.48948 0.0
C1248 C 0.25272 0.66013 0.46034 0.0
C1249 C 0.23976 0.7027 0.45138 0.0
H1250 H 0.24439 0.68897 0.39951 0.0
C1251 C 0.24439 0.75252 0.39763 0.0
C1252 C 0.23565 0.74632 0.37943 0.0
C1253 C 0.24406 0.74033 0.41076 0.0
C1254 C 0.2426 0.69267 0.4139 0.0
H1255 H 0.2855 0.69278 0.50061 0.0
H1256 H 0.27108 0.70558 0.47582 0.0
H1257 H 0.25327 0.67072 0.42305 0.0
H1258 H 0.21939 0.72271 0.36066 0.0
H1259 H 0.21893 0.70124 0.38373 0.0
H1260 H 0.23001 0.72516 0.44244 0.0
C1261 C 0.26801 0.69079 0.47537 0.0
C1262 C 0.24768 0.68224 0.42733 0.0
C1263 C 0.27638 0.68342 0.48949 0.0
C1264 C 0.22609 0.72783 0.3747 0.0
C1265 C 0.22592 0.71555 0.3878 0.0
C1266 C 0.23474 0.71311 0.43802 0.0
C1267 C 0.25587 0.67927 0.46084 0.0
C1268 C 0.247 0.68765 0.44626 0.0
C1269 C 0.23511 0.72168 0.40586 0.0
C1270 C 0.23679 0.7086 0.41927 0.0
H1271 H 0.25811 0.63792 0.47434 0.0
H1272 H 0.24349 0.65099 0.44916 0.0
H1273 H 0.23878 0.70693 0.46588 0.0
H1274 H 0.25181 0.76673 0.40158 0.0
H1275 H 0.25146 0.74536 0.42453 0.0
C1276 C 0.59879 0.98999 0.70769 0.0
C1277 C 0.61683 0.00081 0.71062 0.0
C1278 C 0.58983 0.98415 0.68965 0.0
C1279 C 0.59533 0.98455 0.63915 0.0
H1280 H 0.54882 0.99789 0.6374 0.0
C1281 C 0.56592 0.01532 0.57827 0.0
C1282 C 0.54692 0.01085 0.5729 0.0
C1283 C 0.57327 0.00855 0.59355 0.0
C1284 C 0.56155 0.99368 0.63756 0.0
H1285 H 0.64025 0.01264 0.69718 0.0
H1286 H 0.62443 0.00306 0.66562 0.0
H1287 H 0.56437 0.99468 0.66709 0.0
H1288 H 0.52077 0.99533 0.57907 0.0
H1289 H 0.53369 0.98362 0.60603 0.0
H1290 H 0.59282 0.98464 0.60956 0.0
C1291 C 0.61724 -0.00127 0.67716 0.0
C1292 C 0.5705 0.99178 0.65463 0.0
C1293 C 0.62632 0.0043 0.69525 0.0
C1294 C 0.53544 -0.00084 0.58297 0.0
C1295 C 0.54283 0.99243 0.59836 0.0
C1296 C 0.58638 0.98653 0.62204 0.0
C1297 C 0.59861 0.98937 0.67422 0.0
C1298 C 0.58777 0.98776 0.65572 0.0
C1299 C 0.56181 0.99716 0.60386 0.0
C1300 C 0.56969 0.99172 0.62119 0.0
H1301 H 0.59129 0.98686 0.71937 0.0
H1302 H 0.57565 0.9765 0.68785 0.0
H1303 H 0.60847 0.98115 0.63947 0.0
H1304 H 0.5752 0.02416 0.57075 0.0
H1305 H 0.58791 0.01272 0.59763 0.0
C1306 C 0.27584 0.34064 0.97421 0.0
C1307 C 0.28117 0.35971 0.97955 0.0
C1308 C 0.27744 0.33302 0.95621 0.0
C1309 C 0.28556 0.34581 0.90839 0.0
H1310 H 0.29067 0.2958 0.89994 0.0
C1311 C 0.3011 0.30979 0.83828 0.0
C1312 C 0.28648 0.29499 0.83028 0.0
C1313 C 0.30175 0.31785 0.85673 0.0
C1314 C 0.2893 0.3098 0.90214 0.0
H1315 H 0.29284 0.38575 0.97036 0.0
H1316 H 0.29668 0.37253 0.93938 0.0
H1317 H 0.29003 0.30979 0.93155 0.0
H1318 H 0.26141 0.27669 0.83555 0.0
H1319 H 0.26306 0.29022 0.868 0.0
H1320 H 0.28561 0.34577 0.87882 0.0
C1321 C 0.2905 0.36334 0.9487 0.0
C1322 C 0.28871 0.31784 0.92028 0.0
C1323 C 0.28846 0.37099 0.96659 0.0
C1324 C 0.27287 0.28805 0.84132 0.0
C1325 C 0.2738 0.29577 0.85987 0.0
C1326 C 0.28663 0.33788 0.89032 0.0
C1327 C 0.28489 0.34419 0.9431 0.0
C1328 C 0.28652 0.33591 0.92374 0.0
C1329 C 0.28807 0.31093 0.86767 0.0
C1330 C 0.28827 0.31974 0.88699 0.0
H1331 H 0.27001 0.33158 0.98383 0.0
H1332 H 0.27246 0.31831 0.95257 0.0
H1333 H 0.28351 0.35955 0.91015 0.0
H1334 H 0.31168 0.31556 0.83008 0.0
H1335 H 0.3129 0.32953 0.86245 0.0
C1336 C 0.93907 0.02256 0.32886 0.0
C1337 C 0.94938 0.02377 0.31378 0.0
C1338 C 0.94704 0.02095 0.34664 0.0
C1339 C 0.96489 0.00863 0.38103 0.0
H1340 H 0.01376 0.03873 0.39816 0.0
C1341 C 1.00416 0.005 0.45299 0.0
C1342 C 0.01341 0.02196 0.4634 0.0
C1343 C 0.99685 0.00407 0.4343 0.0
C1344 C 1.00008 0.03025 0.39364 0.0
H1345 H 0.97612 0.02386 0.30551 0.0
H1346 H 0.99 0.02097 0.33643 0.0
H1347 H 0.99972 0.03927 0.3667 0.0
H1348 H 0.02246 0.0512 0.46203 0.0
H1349 H 0.00983 0.04956 0.42973 0.0
H1350 H 0.96513 -4e-05 0.4082 0.0
C1351 C 0.97578 0.02149 0.33461 0.0
C1352 C 0.99209 0.03042 0.37548 0.0
C1353 C 0.96779 0.02305 0.31683 0.0
C1354 C 0.01546 0.03787 0.45453 0.0
C1355 C 0.00828 0.03693 0.43589 0.0
C1356 C 0.97293 0.0084 0.39919 0.0
C1357 C 0.96556 0.02056 0.34981 0.0
C1358 C 0.97432 0.01974 0.36896 0.0
C1359 C 0.99876 0.02006 0.42553 0.0
C1360 C 0.99057 0.01937 0.40582 0.0
H1361 H 0.92485 0.02309 0.327 0.0
H1362 H 0.93878 0.02048 0.35801 0.0
H1363 H 0.95127 8e-05 0.37645 0.0
H1364 H 1.00228 0.99247 0.45936 0.0
H1365 H 0.98975 0.99082 0.4267 0.0
C1366 C 0.32329 0.70284 0.58627 0.0
C1367 C 0.31087 0.68554 0.58321 0.0
C1368 C 0.32954 0.71159 0.60435 0.0
C1369 C 0.32657 0.70697 0.65471 0.0
H1370 H 0.31647 0.75505 0.65531 0.0
C1371 C 0.2937 0.73889 0.71278 0.0
C1372 C 0.29863 0.758 0.71809 0.0
C1373 C 0.30118 0.731 0.69821 0.0
C1374 C 0.3198 0.74188 0.65551 0.0
H1375 H 0.29666 0.66295 0.59641 0.0
H1376 H 0.30695 0.67848 0.62806 0.0
H1377 H 0.32049 0.73874 0.62619 0.0
H1378 H 0.31567 0.78376 0.71259 0.0
H1379 H 0.32866 0.76989 0.68695 0.0
H1380 H 0.32475 0.70986 0.68404 0.0
C1381 C 0.3122 0.68522 0.6166 0.0
C1382 C 0.32217 0.73248 0.63877 0.0
C1383 C 0.30621 0.67632 0.59846 0.0
C1384 C 0.31143 0.76902 0.70869 0.0
C1385 C 0.31892 0.76109 0.69406 0.0
C1386 C 0.32415 0.71639 0.67151 0.0
C1387 C 0.32313 0.70336 0.61967 0.0
C1388 C 0.3249 0.71463 0.63804 0.0
C1389 C 0.31377 0.742 0.68861 0.0
C1390 C 0.32003 0.73363 0.6719 0.0
H1391 H 0.32734 0.71006 0.57466 0.0
H1392 H 0.33837 0.72533 0.60628 0.0
H1393 H 0.32894 0.69337 0.65465 0.0
H1394 H 0.28397 0.72996 0.71979 0.0
H1395 H 0.29665 0.7163 0.69411 0.0
C1396 C 0.65611 0.0475 0.8209 0.0
C1397 C 0.64369 0.0412 0.8046 0.0
C1398 C 0.65076 0.05624 0.83661 0.0
C1399 C 0.61641 0.08023 0.85138 0.0
H1400 H 0.61827 0.05611 0.89574 0.0
C1401 C 0.56174 0.07495 0.90046 0.0
C1402 C 0.5662 0.07327 0.91924 0.0
C1403 C 0.57518 0.07676 0.88847 0.0
C1404 C 0.61803 0.06342 0.88371 0.0
H1405 H 0.61608 0.0393 0.79185 0.0
H1406 H 0.60695 0.05469 0.81897 0.0
H1407 H 0.63548 0.04874 0.87066 0.0
H1408 H 0.58831 0.07369 0.94069 0.0
H1409 H 0.61188 0.07714 0.9198 0.0
H1410 H 0.5984 0.0944 0.86406 0.0
C1411 C 0.6208 0.05301 0.81964 0.0
C1412 C 0.6279 0.05915 0.86935 0.0
C1413 C 0.62601 0.04405 0.80415 0.0
C1414 C 0.58451 0.07465 0.92614 0.0
C1415 C 0.59797 0.07661 0.9142 0.0
C1416 C 0.60667 0.08463 0.8658 0.0
C1417 C 0.63306 0.05909 0.83603 0.0
C1418 C 0.6265 0.06692 0.85275 0.0
C1419 C 0.59334 0.07707 0.89511 0.0
C1420 C 0.60672 0.07565 0.88176 0.0
H1421 H 0.66983 0.04547 0.82159 0.0
H1422 H 0.66038 0.06072 0.84919 0.0
H1423 H 0.61533 0.08656 0.83876 0.0
H1424 H 0.54771 0.07381 0.8948 0.0
H1425 H 0.57106 0.07682 0.87379 0.0
C1426 C 0.28256 0.33342 0.08263 0.0
C1427 C 0.278 0.34937 0.07731 0.0
C1428 C 0.27989 0.32815 0.1002 0.0
C1429 C 0.27389 0.34535 0.14828 0.0
H1430 H 0.25954 0.29329 0.15216 0.0
C1431 C 0.28319 0.31632 0.21842 0.0
C1432 C 0.27076 0.3002 0.22151 0.0
C1433 C 0.28197 0.32313 0.20126 0.0
C1434 C 0.26331 0.30791 0.15143 0.0
H1435 H 0.26699 0.37229 0.08675 0.0
H1436 H 0.26216 0.36295 0.11758 0.0
H1437 H 0.26069 0.30352 0.12164 0.0
H1438 H 0.24685 0.27905 0.20894 0.0
H1439 H 0.24451 0.29107 0.17917 0.0
H1440 H 0.2763 0.3497 0.17814 0.0
C1441 C 0.26797 0.35461 0.10801 0.0
C1442 C 0.26422 0.3138 0.13384 0.0
C1443 C 0.27066 0.35993 0.09028 0.0
C1444 C 0.25673 0.29142 0.20709 0.0
C1445 C 0.25547 0.29827 0.18992 0.0
C1446 C 0.27293 0.33945 0.16593 0.0
C1447 C 0.27249 0.33856 0.11317 0.0
C1448 C 0.26987 0.33258 0.13197 0.0
C1449 C 0.26825 0.31409 0.18662 0.0
C1450 C 0.2679 0.3206 0.1678 0.0
H1451 H 0.28836 0.32489 0.07323 0.0
H1452 H 0.28395 0.31597 0.10369 0.0
H1453 H 0.27835 0.35992 0.14747 0.0
H1454 H 0.2942 0.32351 0.22914 0.0
H1455 H 0.29223 0.33517 0.19931 0.0
C1456 C 0.21918 0.93694 0.01819 0.0
C1457 C 0.23835 0.94145 0.02017 0.0
C1458 C 0.20991 0.94862 0.02706 0.0
C1459 C 0.21589 0.9969 0.04608 0.0
H1460 H 0.16961 0.97752 0.06392 0.0
C1461 C 0.16 0.03619 0.04997 0.0
C1462 C 0.14793 0.03296 0.0634 0.0
C1463 C 0.17379 0.02685 0.04888 0.0
C1464 C 0.18268 0.98325 0.05938 0.0
H1465 H 0.26293 0.96138 0.03341 0.0
H1466 H 0.24672 0.98168 0.04915 0.0
H1467 H 0.18824 0.95679 0.05453 0.0
H1468 H 0.1416 0.01858 0.0871 0.0
H1469 H 0.16595 0.00244 0.08542 0.0
H1470 H 0.21029 0.02336 0.05089 0.0
C1471 C 0.23885 0.96928 0.04049 0.0
C1472 C 0.19324 0.9713 0.05373 0.0
C1473 C 0.24812 0.95763 0.03152 0.0
C1474 C 0.15061 0.02111 0.07647 0.0
C1475 C 0.16449 0.01186 0.07546 0.0
C1476 C 0.20539 0.00887 0.05184 0.0
C1477 C 0.21964 0.96499 0.0382 0.0
C1478 C 0.20969 0.97793 0.04651 0.0
C1479 C 0.17585 0.01418 0.06128 0.0
C1480 C 0.18842 0.0021 0.05806 0.0
H1481 H 0.21129 0.92457 0.00949 0.0
H1482 H 0.19511 0.94506 0.02474 0.0
H1483 H 0.22846 0.00244 0.0405 0.0
H1484 H 0.1581 0.04507 0.03957 0.0
H1485 H 0.18211 0.02879 0.03762 0.0
C1486 C 0.71708 0.63891 0.00305 0.0
C1487 C 0.71741 0.6559 0.9966 0.0
C1488 C 0.70048 0.62612 0.00333 0.0
C1489 C 0.65112 0.62331 0.00391 0.0
H1490 H 0.64591 0.57086 0.99292 0.0
C1491 C 0.58115 0.57204 -0.0011 0.0
C1492 C 0.58029 0.55612 0.00758 0.0
C1493 C 0.59796 0.5834 0.99663 0.0
C1494 C 0.6472 0.58546 0.99619 0.0
H1495 H 0.70042 0.6724 0.98479 0.0
H1496 H 0.67157 0.65 0.98499 0.0
H1497 H 0.67496 0.59217 0.99026 0.0
H1498 H 0.59658 0.53946 0.02023 0.0
H1499 H 0.62605 0.55941 0.0163 0.0
H1500 H 0.62345 0.61667 0.00987 0.0
C1501 C 0.68414 0.64671 0.9902 0.0
C1502 C 0.66386 0.59769 0.99467 0.0
C1503 C 0.70073 0.65953 0.98996 0.0
C1504 C 0.59673 0.55159 0.01347 0.0
C1505 C 0.61362 0.563 0.01116 0.0
C1506 C 0.63451 0.61112 0.00538 0.0
C1507 C 0.68377 0.62994 -0.00287 0.0
C1508 C 0.66602 0.6168 -0.00153 0.0
C1509 C 0.61443 0.5792 0.00297 0.0
C1510 C 0.63229 0.59204 0.00149 0.0
H1511 H 0.72962 0.63561 0.00831 0.0
H1512 H 0.70075 0.61345 0.00893 0.0
H1513 H 0.65237 0.63789 0.00736 0.0
H1514 H 0.5688 0.57595 0.99406 0.0
H1515 H 0.59805 0.59556 0.98994 0.0
C1516 C 0.67291 0.49451 0.26762 0.0
C1517 C 0.65459 0.49012 0.27111 0.0
C1518 C 0.68249 0.48085 0.26532 0.0
C1519 C 0.68218 0.43382 0.27602 0.0
H1520 H 0.71868 0.43713 0.24184 0.0
C1521 C 0.72273 0.37801 0.26262 0.0
C1522 C 0.74158 0.38436 0.26164 0.0
C1523 C 0.71135 0.39022 0.26325 0.0
C1524 C 0.70864 0.43608 0.25156 0.0
H1525 H 0.63181 0.4678 0.27447 0.0
H1526 H 0.64843 0.44385 0.27008 0.0
H1527 H 0.6999 0.45927 0.2431 0.0
H1528 H 0.7632 0.40878 0.26112 0.0
H1529 H 0.74338 0.42992 0.26197 0.0
H1530 H 0.69097 0.41055 0.28441 0.0
C1531 C 0.65552 0.45793 0.26945 0.0
C1532 C 0.69786 0.4488 0.25231 0.0
C1533 C 0.64593 0.47165 0.27181 0.0
C1534 C 0.74872 0.40327 0.26146 0.0
C1535 C 0.73735 0.41544 0.26197 0.0
C1536 C 0.69291 0.42101 0.27519 0.0
C1537 C 0.674 0.46238 0.26635 0.0
C1538 C 0.68463 0.44802 0.26472 0.0
C1539 C 0.7185 0.40908 0.26279 0.0
C1540 C 0.70644 0.42213 0.26312 0.0
H1541 H 0.68006 0.5086 0.2671 0.0
H1542 H 0.69676 0.4849 0.26326 0.0
H1543 H 0.67232 0.43289 0.28593 0.0
H1544 H 0.71666 0.36353 0.26253 0.0
H1545 H 0.69688 0.38483 0.2637 0.0
C1546 C 0.82533 0.43787 0.48238 0.0
C1547 C 0.82188 0.41866 0.48155 0.0
C1548 C 0.84326 0.44865 0.48455 0.0
C1549 C 0.88851 0.44903 0.50563 0.0
H1550 H 0.90645 0.48683 0.47514 0.0
C1551 C 0.96463 0.48526 0.51237 0.0
C1552 C 0.96979 0.50383 0.50974 0.0
C1553 C 0.94636 0.47554 0.50888 0.0
C1554 C 0.90158 0.47656 0.484 0.0
H1555 H 0.83452 0.39569 0.48182 0.0
H1556 H 0.86587 0.41462 0.48595 0.0
H1557 H 0.87491 0.4684 0.46819 0.0
H1558 H 0.95972 0.5269 0.50178 0.0
H1559 H 0.92761 0.51004 0.49623 0.0
H1560 H 0.91477 0.45737 0.52184 0.0
C1561 C 0.85464 0.42125 0.48483 0.0
C1562 C 0.88357 0.46594 0.47991 0.0
C1563 C 0.83672 0.41043 0.48233 0.0
C1564 C 0.95619 0.51257 0.50382 0.0
C1565 C 0.9378 0.50286 0.50053 0.0
C1566 C 0.90638 0.4598 0.50991 0.0
C1567 C 0.85806 0.44046 0.48625 0.0
C1568 C 0.87699 0.45193 0.49056 0.0
C1569 C 0.93268 0.48418 0.50292 0.0
C1570 C 0.91325 0.47354 0.49899 0.0
H1571 H 0.81418 0.4446 0.48174 0.0
H1572 H 0.84557 0.46345 0.48565 0.0
H1573 H 0.88361 0.43854 0.51428 0.0
H1574 H 0.97476 0.47804 0.51679 0.0
H1575 H 0.94305 0.46111 0.51051 0.0
C1576 C 0.38623 0.08239 0.25929 0.0
C1577 C 0.37671 0.06592 0.26479 0.0
C1578 C 0.37668 0.09415 0.25156 0.0
C1579 C 0.33051 0.0968 0.23114 0.0
H1580 H 0.34809 0.14829 0.251 0.0
C1581 C 0.28541 0.14883 0.23292 0.0
C1582 C 0.29347 0.16696 0.23035 0.0
C1583 C 0.29582 0.1358 0.23315 0.0
C1584 C 0.34315 0.13401 0.24504 0.0
H1585 H 0.34978 0.04857 0.266 0.0
H1586 H 0.33319 0.06918 0.25293 0.0
H1587 H 0.36618 0.12686 0.25883 0.0
H1588 H 0.31827 0.18532 0.22448 0.0
H1589 H 0.33643 0.1626 0.22493 0.0
H1590 H 0.30708 0.10399 0.21794 0.0
C1591 C 0.34799 0.07293 0.25425 0.0
C1592 C 0.35355 0.12172 0.24951 0.0
C1593 C 0.35751 0.06117 0.2619 0.0
C1594 C 0.3118 0.17153 0.22688 0.0
C1595 C 0.32219 0.15854 0.22713 0.0
C1596 C 0.32004 0.10911 0.22675 0.0
C1597 C 0.35744 0.08968 0.24924 0.0
C1598 C 0.34723 0.10292 0.24285 0.0
C1599 C 0.31446 0.1407 0.2308 0.0
C1600 C 0.32616 0.1278 0.23387 0.0
H1601 H 0.40104 0.08635 0.26124 0.0
H1602 H 0.38438 0.10683 0.24759 0.0
H1603 H 0.32539 0.08244 0.22556 0.0
H1604 H 0.27136 0.14496 0.23575 0.0
H1605 H 0.28953 0.12218 0.23616 0.0
C1606 C 0.33439 0.16385 0.52146 0.0
C1607 C 0.31606 0.1551 0.52248 0.0
C1608 C 0.34825 0.15456 0.52432 0.0
C1609 C 0.35813 0.11338 0.54346 0.0
H1610 H 0.39608 0.11909 0.51088 0.0
C1611 C 0.40499 0.06321 0.53673 0.0
C1612 C 0.42369 0.07058 0.53581 0.0
C1613 C 0.39252 0.07426 0.53589 0.0
C1614 C 0.38571 0.11749 0.52025 0.0
H1615 H 0.29799 0.1298 0.52766 0.0
H1616 H 0.32194 0.11363 0.53241 0.0
H1617 H 0.3734 0.13723 0.50848 0.0
H1618 H 0.44381 0.09562 0.53343 0.0
H1619 H 0.422 0.11479 0.53172 0.0
H1620 H 0.37026 0.09341 0.55498 0.0
C1621 C 0.32577 0.12774 0.52968 0.0
C1622 C 0.3727 0.12794 0.51891 0.0
C1623 C 0.31197 0.13702 0.52685 0.0
C1624 C 0.42951 0.08934 0.5339 0.0
C1625 C 0.417 0.10037 0.53296 0.0
C1626 C 0.37107 0.10289 0.54473 0.0
C1627 C 0.3441 0.13629 0.52827 0.0
C1628 C 0.35861 0.12592 0.53039 0.0
C1629 C 0.39834 0.09299 0.534 0.0
C1630 C 0.38495 0.10468 0.53304 0.0
H1631 H 0.33802 0.17777 0.51811 0.0
H1632 H 0.36222 0.1617 0.52338 0.0
H1633 H 0.34774 0.11168 0.55279 0.0
H1634 H 0.39988 0.04878 0.5378 0.0
H1635 H 0.37821 0.06802 0.5364 0.0
C1636 C 0.64603 0.60528 0.29731 0.0
C1637 C 0.65123 0.58856 0.29508 0.0
C1638 C 0.65886 0.62196 0.29745 0.0
C1639 C 0.7084 0.64439 0.30379 0.0
H1640 H 0.6931 0.67865 0.27344 0.0
C1641 C 0.75796 0.71139 0.28779 0.0
C1642 C 0.7505 0.72664 0.28638 0.0
C1643 C 0.74672 0.69432 0.29008 0.0
C1644 C 0.69758 0.66941 0.28223 0.0
H1645 H 0.67427 0.57645 0.29195 0.0
H1646 H 0.69659 0.60557 0.29226 0.0
H1647 H 0.67186 0.64966 0.27558 0.0
H1648 H 0.72579 0.73631 0.28765 0.0
H1649 H 0.70656 0.70706 0.29217 0.0
H1650 H 0.73415 0.66433 0.31051 0.0
C1651 C 0.68258 0.60574 0.2939 0.0
C1652 C 0.68535 0.65273 0.28342 0.0
C1653 C 0.66973 0.58903 0.29363 0.0
C1654 C 0.7319 0.72474 0.28829 0.0
C1655 C 0.72081 0.70788 0.29078 0.0
C1656 C 0.72066 0.66121 0.30269 0.0
C1657 C 0.67724 0.62238 0.2955 0.0
C1658 C 0.69052 0.64006 0.29431 0.0
C1659 C 0.72789 0.69229 0.29118 0.0
C1660 C 0.71532 0.67403 0.29203 0.0
H1661 H 0.63195 0.6055 0.29853 0.0
H1662 H 0.65434 0.63457 0.29898 0.0
H1663 H 0.71278 0.63493 0.31235 0.0
H1664 H 0.77225 0.71245 0.28636 0.0
H1665 H 0.75265 0.6826 0.29032 0.0
C1666 C 0.87438 0.48304 0.81228 0.0
C1667 C 0.89355 0.48636 0.81355 0.0
C1668 C 0.86363 0.46526 0.81197 0.0
C1669 C 0.86514 0.41907 0.79522 0.0
H1670 H 0.82208 0.40344 0.81982 0.0
C1671 C 0.82529 0.34374 0.78552 0.0
C1672 C 0.80614 0.33971 0.78437 0.0
C1673 C 0.83571 0.3617 0.79051 0.0
C1674 C 0.83393 0.40767 0.81267 0.0
H1675 H 0.91648 0.47382 0.81707 0.0
H1676 H 0.89765 0.44279 0.8164 0.0
H1677 H 0.84099 0.43488 0.82772 0.0
H1678 H 0.78285 0.35138 0.78742 0.0
H1679 H 0.80108 0.38299 0.79558 0.0
H1680 H 0.85793 0.39234 0.77964 0.0
C1681 C 0.89101 0.45397 0.81548 0.0
C1682 C 0.84481 0.4256 0.8173 0.0
C1683 C 0.90177 0.47176 0.81597 0.0
C1684 C 0.7976 0.35407 0.78823 0.0
C1685 C 0.80805 0.37215 0.79304 0.0
C1686 C 0.85421 0.4013 0.79043 0.0
C1687 C 0.87185 0.45048 0.81278 0.0
C1688 C 0.86057 0.43139 0.80869 0.0
C1689 C 0.82725 0.37616 0.79424 0.0
C1690 C 0.83853 0.39531 0.79917 0.0
H1691 H 0.86762 0.49402 0.81055 0.0
H1692 H 0.84888 0.46292 0.80988 0.0
H1693 H 0.87698 0.42334 0.78802 0.0
H1694 H 0.83232 0.33296 0.78285 0.0
H1695 H 0.85046 0.36419 0.79168 0.0
C1696 C 0.05614 0.84535 0.07644 0.0
C1697 C 0.05517 0.84372 0.09549 0.0
C1698 C 0.05475 0.8617 0.06914 0.0
C1699 C 0.05633 0.91203 0.0839 0.0
H1700 H 0.0347 0.90982 0.03299 0.0
C1701 C 0.05436 0.97939 0.05144 0.0
C1702 C 0.03979 0.97954 0.03785 0.0
C1703 C 0.05659 0.96294 0.05783 0.0
C1704 C 0.04064 0.91085 0.04732 0.0
H1705 H 0.05192 0.85849 0.12163 0.0
H1706 H 0.0492 0.88646 0.1091 0.0
H1707 H 0.03761 0.88168 0.04518 0.0
H1708 H 0.01613 0.96184 0.02046 0.0
H1709 H 0.01972 0.9334 0.03177 0.0
H1710 H 0.05879 0.94104 0.08632 0.0
C1711 C 0.05143 0.87536 0.09966 0.0
C1712 C 0.04258 0.89452 0.05432 0.0
C1713 C 0.0529 0.85909 0.10694 0.0
C1714 C 0.02761 0.96247 0.03082 0.0
C1715 C 0.02976 0.94599 0.03732 0.0
C1716 C 0.05432 0.9283 0.07695 0.0
C1717 C 0.05227 0.87709 0.08058 0.0
C1718 C 0.05044 0.8947 0.07281 0.0
C1719 C 0.04426 0.94584 0.05107 0.0
C1720 C 0.04643 0.92815 0.05849 0.0
H1721 H 0.05786 0.8339 0.06709 0.0
H1722 H 0.05578 0.86226 0.05446 0.0
H1723 H 0.06273 0.91317 0.09808 0.0
H1724 H 0.06416 0.99209 0.05723 0.0
H1725 H 0.06821 0.96373 0.06806 0.0
C1726 C 0.93263 0.27334 0.91836 0.0
C1727 C 0.94773 0.2678 0.91194 0.0
C1728 C 0.91744 0.27389 0.90596 0.0
C1729 C 0.89321 0.25649 0.85801 0.0
H1730 H 0.87078 0.29723 0.86709 0.0
C1731 C 0.83547 0.26846 0.80503 0.0
C1732 C 0.82166 0.27598 0.81191 0.0
C1733 C 0.85068 0.26706 0.81699 0.0
C1734 C 0.87662 0.28557 0.86441 0.0
H1735 H 0.95827 0.25824 0.88709 0.0
H1736 H 0.93171 0.25913 0.86543 0.0
H1737 H 0.89729 0.29547 0.88788 0.0
H1738 H 0.81312 0.28759 0.8371 0.0
H1739 H 0.83928 0.2848 0.85791 0.0
H1740 H 0.87244 0.2465 0.8346 0.0
C1741 C 0.93164 0.26299 0.88019 0.0
C1742 C 0.89196 0.28458 0.87639 0.0
C1743 C 0.94696 0.26253 0.89264 0.0
C1744 C 0.82345 0.28181 0.83119 0.0
C1745 C 0.83862 0.28033 0.84316 0.0
C1746 C 0.87779 0.25742 0.84604 0.0
C1747 C 0.9167 0.26887 0.88665 0.0
C1748 C 0.90049 0.27 0.87347 0.0
C1749 C 0.85261 0.27305 0.83627 0.0
C1750 C 0.86916 0.27197 0.84905 0.0
H1751 H 0.93256 0.27749 0.93307 0.0
H1752 H 0.90616 0.27818 0.9116 0.0
H1753 H 0.89919 0.24492 0.85535 0.0
H1754 H 0.83473 0.2639 0.79029 0.0
H1755 H 0.86115 0.26162 0.81096 0.0
C1756 C 0.54334 0.23101 0.59376 0.0
C1757 C 0.55406 0.24354 0.58373 0.0
C1758 C 0.54094 0.21183 0.58923 0.0
C1759 C 0.56214 0.17729 0.56432 0.0
H1760 H 0.51556 0.14297 0.56501 0.0
C1761 C 0.54959 0.09987 0.53422 0.0
C1762 C 0.53768 0.08646 0.54227 0.0
C1763 C 0.55147 0.11878 0.53965 0.0
C1764 C 0.5288 0.15223 0.56496 0.0
H1765 H 0.57047 0.24512 0.56078 0.0
H1766 H 0.56631 0.2123 0.55306 0.0
H1767 H 0.51888 0.17574 0.57411 0.0
H1768 H 0.51847 0.08292 0.56264 0.0
H1769 H 0.52201 0.11553 0.57232 0.0
H1770 H 0.57219 0.15394 0.55539 0.0
C1771 C 0.55987 0.21714 0.56459 0.0
C1772 C 0.53068 0.17118 0.5702 0.0
C1773 C 0.56214 0.23616 0.56899 0.0
C1774 C 0.52779 0.09268 0.55601 0.0
C1775 C 0.52971 0.11156 0.5615 0.0
C1776 C 0.56029 0.15838 0.55919 0.0
C1777 C 0.54934 0.20456 0.57465 0.0
C1778 C 0.54735 0.1841 0.56983 0.0
C1779 C 0.54156 0.12505 0.55341 0.0
C1780 C 0.54356 0.14542 0.55926 0.0
H1781 H 0.53688 0.236 0.6052 0.0
H1782 H 0.53279 0.20271 0.59743 0.0
H1783 H 0.57533 0.18659 0.56415 0.0
H1784 H 0.55737 0.09579 0.52351 0.0
H1785 H 0.56051 0.12848 0.53274 0.0
C1786 C 0.56402 0.77474 0.41247 0.0
C1787 C 0.54616 0.76674 0.40363 0.0
C1788 C 0.57915 0.77595 0.40249 0.0
C1789 C 0.59391 0.75718 0.35838 0.0
H1790 H 0.63293 0.80168 0.36837 0.0
C1791 C 0.66058 0.76517 0.32293 0.0
C1792 C 0.66801 0.78232 0.31724 0.0
C1793 C 0.64611 0.7629 0.33387 0.0
C1794 C 0.62213 0.78918 0.36528 0.0
H1795 H 0.53034 0.75349 0.3773 0.0
H1796 H 0.55656 0.75566 0.35993 0.0
H1797 H 0.6071 0.79827 0.38633 0.0
H1798 H 0.66602 0.81062 0.31915 0.0
H1799 H 0.64074 0.8066 0.33783 0.0
H1800 H 0.60875 0.74828 0.33702 0.0
C1801 C 0.55899 0.76085 0.37465 0.0
C1802 C 0.60736 0.78711 0.37579 0.0
C1803 C 0.54388 0.75967 0.38462 0.0
C1804 C 0.66058 0.79714 0.32299 0.0
C1805 C 0.64617 0.79488 0.33396 0.0
C1806 C 0.60871 0.75922 0.34789 0.0
C1807 C 0.57687 0.76917 0.38336 0.0
C1808 C 0.59295 0.77112 0.37246 0.0
C1809 C 0.63864 0.77772 0.33955 0.0
C1810 C 0.62302 0.77531 0.35109 0.0
H1811 H 0.56634 0.78033 0.42708 0.0
H1812 H 0.59266 0.7822 0.40981 0.0
H1813 H 0.58324 0.74456 0.35548 0.0
H1814 H 0.66576 0.75337 0.3187 0.0
H1815 H 0.64087 0.74951 0.33802 0.0
C1816 C 0.03876 0.24576 0.38618 0.0
C1817 C 0.04528 0.26302 0.39708 0.0
C1818 C 0.0378 0.22951 0.39443 0.0
C1819 C 0.03368 0.21431 0.44097 0.0
H1820 H 0.04508 0.16959 0.42005 0.0
C1821 C 0.03628 0.15619 0.48551 0.0
C1822 C 0.02921 0.13788 0.47728 0.0
C1823 C 0.03867 0.1706 0.47463 0.0
C1824 C 0.04164 0.18191 0.42601 0.0
H1825 H 0.0572 0.27677 0.42467 0.0
H1826 H 0.05599 0.24884 0.43874 0.0
H1827 H 0.04883 0.196 0.40253 0.0
H1828 H 0.01932 0.12049 0.45088 0.0
H1829 H 0.02336 0.14567 0.43189 0.0
H1830 H 0.02633 0.20047 0.46428 0.0
C1831 C 0.05108 0.24763 0.42406 0.0
C1832 C 0.04381 0.19705 0.41595 0.0
C1833 C 0.05194 0.26368 0.41593 0.0
C1834 C 0.02494 0.13439 0.45773 0.0
C1835 C 0.02728 0.14886 0.44681 0.0
C1836 C 0.03146 0.19926 0.45094 0.0
C1837 C 0.04335 0.23032 0.41367 0.0
C1838 C 0.04016 0.21358 0.42347 0.0
C1839 C 0.03397 0.16722 0.45513 0.0
C1840 C 0.03568 0.18291 0.4438 0.0
H1841 H 0.03338 0.24482 0.37167 0.0
H1842 H 0.03181 0.2164 0.38599 0.0
H1843 H 0.03022 0.2266 0.44702 0.0
H1844 H 0.04012 0.15943 0.50044 0.0
H1845 H 0.04429 0.18446 0.48158 0.0
C1846 C 0.57668 0.25036 0.20604 0.0
C1847 C 0.57326 0.26536 0.19757 0.0
C1848 C 0.59442 0.25076 0.21446 0.0
C1849 C 0.63991 0.28231 0.23359 0.0
H1850 H 0.65987 0.24064 0.22021 0.0
C1851 C 0.71802 0.28815 0.24895 0.0
C1852 C 0.72454 0.27259 0.25216 0.0
C1853 C 0.69937 0.28669 0.24338 0.0
C1854 C 0.65458 0.25235 0.22445 0.0
H1855 H 0.58583 0.29265 0.19181 0.0
H1856 H 0.61626 0.29369 0.20707 0.0
H1857 H 0.62786 0.23916 0.20992 0.0
H1858 H 0.71603 0.24315 0.25203 0.0
H1859 H 0.68354 0.24062 0.24292 0.0
H1860 H 0.6663 0.29547 0.24838 0.0
C1861 C 0.60539 0.28155 0.2072 0.0
C1862 C 0.63607 0.25148 0.21846 0.0
C1863 C 0.58785 0.28099 0.19848 0.0
C1864 C 0.71166 0.25547 0.24963 0.0
C1865 C 0.6929 0.25403 0.24425 0.0
C1866 C 0.6583 0.28311 0.2398 0.0
C1867 C 0.60914 0.2663 0.21495 0.0
C1868 C 0.62848 0.26655 0.22269 0.0
C1869 C 0.68633 0.26963 0.24101 0.0
C1870 C 0.66618 0.26827 0.23512 0.0
H1871 H 0.56591 0.23794 0.20522 0.0
H1872 H 0.59668 0.23877 0.22035 0.0
H1873 H 0.6346 0.29413 0.23742 0.0
H1874 H 0.72739 0.30159 0.25055 0.0
H1875 H 0.69531 0.29908 0.24067 0.0
C1876 C 0.54775 0.85741 0.90708 0.0
C1877 C 0.54737 0.85549 0.88756 0.0
C1878 C 0.54657 0.87387 0.9171 0.0
C1879 C 0.52993 0.91556 0.9138 0.0
H1880 H 0.56329 0.93449 0.95916 0.0
C1881 C 0.52823 0.98363 0.95925 0.0
C1882 C 0.53261 0.98503 0.9787 0.0
C1883 C 0.53064 0.96866 0.94735 0.0
C1884 C 0.55361 0.92935 0.94673 0.0
H1885 H 0.54516 0.86952 0.86329 0.0
H1886 H 0.54268 0.89838 0.88087 0.0
H1887 H 0.56609 0.90717 0.93994 0.0
H1888 H 0.54276 0.97145 0.00078 0.0
H1889 H 0.54634 0.94529 0.98034 0.0
H1890 H 0.51699 0.93731 0.92087 0.0
C1891 C 0.54406 0.88703 0.88837 0.0
C1892 C 0.55534 0.91366 0.93559 0.0
C1893 C 0.54557 0.87054 0.8783 0.0
C1894 C 0.53941 0.97101 0.98589 0.0
C1895 C 0.54159 0.95596 0.97404 0.0
C1896 C 0.52802 0.93116 0.92511 0.0
C1897 C 0.5447 0.88894 0.90796 0.0
C1898 C 0.54344 0.90642 0.91905 0.0
C1899 C 0.53732 0.9545 0.95453 0.0
C1900 C 0.53972 0.93824 0.9419 0.0
H1901 H 0.5491 0.84615 0.91474 0.0
H1902 H 0.54688 0.87472 0.9321 0.0
H1903 H 0.52043 0.9103 0.90125 0.0
H1904 H 0.52305 0.99419 0.95317 0.0
H1905 H 0.52743 0.96837 0.93247 0.0
C1906 C 0.96326 0.74979 0.71889 0.0
C1907 C 0.96513 0.75147 0.7 0.0
C1908 C 0.94688 0.75104 0.72629 0.0
C1909 C 0.89703 0.75006 0.71154 0.0
H1910 H 0.89847 0.77105 0.76276 0.0
C1911 C 0.82939 0.75217 0.7432 0.0
C1912 C 0.82909 0.76682 0.75682 0.0
C1913 C 0.8459 0.7498 0.73708 0.0
C1914 C 0.89768 0.76529 0.74835 0.0
H1915 H 0.9508 0.75587 0.67426 0.0
H1916 H 0.92288 0.75829 0.68694 0.0
H1917 H 0.92673 0.76804 0.75074 0.0
H1918 H 0.84654 0.7904 0.77466 0.0
H1919 H 0.87514 0.78655 0.76383 0.0
H1920 H 0.86818 0.74787 0.70886 0.0
C1921 C 0.93376 0.7556 0.69617 0.0
C1922 C 0.91405 0.7633 0.74146 0.0
C1923 C 0.95001 0.7543 0.68882 0.0
C1924 C 0.84605 0.77889 0.76424 0.0
C1925 C 0.8626 0.77659 0.75802 0.0
C1926 C 0.88073 0.75211 0.71839 0.0
C1927 C 0.93177 0.75404 0.71508 0.0
C1928 C 0.91412 0.75571 0.72285 0.0
C1929 C 0.8629 0.76205 0.74417 0.0
C1930 C 0.88062 0.75979 0.73695 0.0
H1931 H 0.97452 0.74769 0.72805 0.0
H1932 H 0.94609 0.74951 0.74084 0.0
H1933 H 0.89611 0.74387 0.69726 0.0
H1934 H 0.81677 0.74242 0.73717 0.0
H1935 H 0.84523 0.73814 0.72679 0.0
C1936 C 0.12717 0.02889 0.84949 0.0
C1937 C 0.11558 0.02901 0.8332 0.0
C1938 C 0.12053 0.02866 0.86687 0.0
C1939 C 0.08134 0.03734 0.89111 0.0
H1940 H 0.09811 0.00856 0.9271 0.0
C1941 C 0.04434 0.02179 0.95545 0.0
C1942 C 0.05507 0.02342 0.97276 0.0
C1943 C 0.05231 0.02234 0.93887 0.0
C1944 C 0.0934 0.01681 0.91729 0.0
H1945 H 0.08787 0.02898 0.8225 0.0
H1946 H 0.07625 0.02824 0.85251 0.0
H1947 H 0.11091 0.01014 0.89757 0.0
H1948 H 0.08271 0.02646 0.98595 0.0
H1949 H 0.09662 0.02728 0.95693 0.0
H1950 H 0.06367 0.04379 0.91069 0.0
C1951 C 0.09058 0.02869 0.85206 0.0
C1952 C 0.10079 0.01777 0.90032 0.0
C1953 C 0.09723 0.02901 0.83475 0.0
C1954 C 0.07399 0.02512 0.97292 0.0
C1955 C 0.08197 0.02555 0.95625 0.0
C1956 C 0.07391 0.03629 0.90798 0.0
C1957 C 0.10209 0.02849 0.86843 0.0
C1958 C 0.09477 0.02795 0.88689 0.0
C1959 C 0.07126 0.02446 0.93902 0.0
C1960 C 0.07971 0.0259 0.92127 0.0
H1961 H 0.14139 0.02892 0.84881 0.0
H1962 H 0.12992 0.02877 0.87911 0.0
H1963 H 0.07661 0.04568 0.88142 0.0
H1964 H 0.02973 0.02041 0.95467 0.0
H1965 H 0.04356 0.02112 0.92587 0.0
C1966 C 0.75421 0.36041 0.53856 0.0
C1967 C 0.76689 0.37682 0.53712 0.0
C1968 C 0.75441 0.35268 0.55507 0.0
C1969 C 0.77449 0.35972 0.60464 0.0
H1970 H 0.772 0.30766 0.59439 0.0
C1971 C 0.80084 0.31816 0.65858 0.0
C1972 C 0.78982 0.30066 0.65972 0.0
C1973 C 0.79654 0.32811 0.64443 0.0
C1974 C 0.77247 0.32212 0.59751 0.0
H1975 H 0.78888 0.3988 0.55193 0.0
H1976 H 0.78977 0.38489 0.58087 0.0
H1977 H 0.7664 0.32464 0.56883 0.0
H1978 H 0.76575 0.2798 0.64698 0.0
H1979 H 0.75823 0.29721 0.62213 0.0
H1980 H 0.78112 0.35711 0.63339 0.0
C1981 C 0.77944 0.37817 0.56934 0.0
C1982 C 0.7692 0.33187 0.58288 0.0
C1983 C 0.77899 0.38611 0.55282 0.0
C1984 C 0.77447 0.29325 0.64639 0.0
C1985 C 0.77022 0.30317 0.63218 0.0
C1986 C 0.77785 0.34994 0.61932 0.0
C1987 C 0.7676 0.361 0.57033 0.0
C1988 C 0.77019 0.35077 0.58625 0.0
C1989 C 0.78118 0.32072 0.63113 0.0
C1990 C 0.77694 0.33106 0.61584 0.0
H1991 H 0.74454 0.35319 0.52666 0.0
H1992 H 0.74476 0.33974 0.5556 0.0
H1993 H 0.77523 0.37424 0.60766 0.0
H1994 H 0.81257 0.32434 0.66888 0.0
H1995 H 0.80533 0.34151 0.64381 0.0
C1996 C 0.44957 0.05138 0.33508 0.0
C1997 C 0.43135 0.05269 0.33447 0.0
C1998 C 0.46038 0.05311 0.35207 0.0
C1999 C 0.46487 0.06867 0.40233 0.0
H2000 H 0.48982 0.02957 0.40626 0.0
C2001 C 0.49284 0.05051 0.47248 0.0
C2002 C 0.50897 0.0443 0.47356 0.0
C2003 C 0.48505 0.05406 0.45553 0.0
C2004 C 0.48327 0.0408 0.40533 0.0
H2005 H 0.41037 0.05777 0.3511 0.0
H2006 H 0.42937 0.0607 0.38108 0.0
H2007 H 0.47284 0.03146 0.37673 0.0
H2008 H 0.53001 0.0377 0.45781 0.0
H2009 H 0.51651 0.04417 0.42818 0.0
H2010 H 0.4752 0.0779 0.43105 0.0
C2011 C 0.43525 0.05841 0.36831 0.0
C2012 C 0.47348 0.04185 0.38841 0.0
C2013 C 0.42438 0.05667 0.3512 0.0
C2014 C 0.5175 0.04233 0.45742 0.0
C2015 C 0.50972 0.04596 0.44044 0.0
C2016 C 0.47477 0.06769 0.41928 0.0
C2017 C 0.45321 0.05617 0.36886 0.0
C2018 C 0.46408 0.05571 0.38676 0.0
C2019 C 0.49324 0.05156 0.43926 0.0
C2020 C 0.48394 0.05363 0.42099 0.0
H2021 H 0.45541 0.04855 0.32239 0.0
H2022 H 0.47427 0.05167 0.35208 0.0
H2023 H 0.45789 0.07959 0.40137 0.0
H2024 H 0.48589 0.05221 0.48464 0.0
H2025 H 0.47224 0.05812 0.45509 0.0
C2026 C 0.77866 0.70065 0.07351 0.0
C2027 C 0.7724 0.71031 0.05976 0.0
C2028 C 0.77881 0.70657 0.09254 0.0
C2029 C 0.77647 0.74742 0.12535 0.0
H2030 H 0.7626 0.71152 0.15897 0.0
C2031 C 0.76394 0.76819 0.20155 0.0
C2032 C 0.77139 0.75929 0.21529 0.0
C2033 C 0.76356 0.76211 0.18252 0.0
C2034 C 0.76664 0.72175 0.14981 0.0
H2035 H 0.76148 0.73397 0.05557 0.0
H2036 H 0.76151 0.74394 0.08828 0.0
H2037 H 0.76388 0.70122 0.1263 0.0
H2038 H 0.78392 0.73669 0.21958 0.0
H2039 H 0.78324 0.72628 0.18677 0.0
H2040 H 0.77912 0.76794 0.14887 0.0
C2041 C 0.76662 0.73198 0.08452 0.0
C2042 C 0.76745 0.71583 0.13104 0.0
C2043 C 0.7665 0.72613 0.06562 0.0
C2044 C 0.77808 0.74397 0.20948 0.0
C2045 C 0.77759 0.73786 0.19057 0.0
C2046 C 0.77558 0.75334 0.1441 0.0
C2047 C 0.77271 0.72231 0.09831 0.0
C2048 C 0.77237 0.72857 0.11851 0.0
C2049 C 0.77046 0.74689 0.17679 0.0
C2050 C 0.77069 0.7406 0.15661 0.0
H2051 H 0.78331 0.68843 0.06959 0.0
H2052 H 0.78381 0.69886 0.10273 0.0
H2053 H 0.78062 0.7577 0.11627 0.0
H2054 H 0.7587 0.78003 0.20548 0.0
H2055 H 0.75781 0.76931 0.17228 0.0
C2056 C 0.08292 0.03986 0.72829 0.0
C2057 C 0.09866 0.03393 0.73398 0.0
C2058 C 0.07703 0.03962 0.70943 0.0
C2059 C 0.09278 0.03817 0.66255 0.0
H2060 H 0.0408 0.02687 0.64553 0.0
C2061 C 0.06401 0.02722 0.58437 0.0
C2062 C 0.04893 0.03426 0.57889 0.0
C2063 C 0.07022 0.02771 0.60321 0.0
C2064 C 0.05536 0.0303 0.65008 0.0
H2065 H 0.12038 0.02284 0.72388 0.0
H2066 H 0.10988 0.02211 0.69079 0.0
H2067 H 0.05122 0.02553 0.67801 0.0
H2068 H 0.02869 0.0475 0.5892 0.0
H2069 H 0.03957 0.04834 0.62226 0.0
H2070 H 0.09686 0.04272 0.63449 0.0
C2071 C 0.10226 0.02724 0.70109 0.0
C2072 C 0.06139 0.02951 0.66876 0.0
C2073 C 0.10823 0.02752 0.7201 0.0
C2074 C 0.04034 0.042 0.59287 0.0
C2075 C 0.04651 0.04236 0.61183 0.0
C2076 C 0.08675 0.03887 0.64384 0.0
C2077 C 0.08657 0.03334 0.69549 0.0
C2078 C 0.0802 0.0335 0.67532 0.0
C2079 C 0.06152 0.03516 0.61723 0.0
C2080 C 0.06795 0.03497 0.63733 0.0
H2081 H 0.07515 0.045 0.73844 0.0
H2082 H 0.06512 0.04476 0.70582 0.0
H2083 H 0.10735 0.04165 0.66706 0.0
H2084 H 0.07103 0.02113 0.57409 0.0
H2085 H 0.08163 0.02182 0.60676 0.0
C2086 C 0.74962 0.39715 0.42904 0.0
C2087 C 0.74998 0.3877 0.44462 0.0
C2088 C 0.74643 0.38744 0.41103 0.0
C2089 C 0.7328 0.33961 0.38531 0.0
H2090 H 0.76936 0.35948 0.35433 0.0
C2091 C 0.74938 0.29647 0.32114 0.0
C2092 C 0.768 0.29983 0.31892 0.0
C2093 C 0.7434 0.30772 0.33446 0.0
C2094 C 0.75909 0.3537 0.36286 0.0
H2095 H 0.74625 0.36072 0.45368 0.0
H2096 H 0.74132 0.3441 0.42279 0.0
H2097 H 0.76424 0.37893 0.381 0.0
H2098 H 0.7951 0.31662 0.32939 0.0
H2099 H 0.78491 0.33556 0.35321 0.0
H2100 H 0.72883 0.31392 0.36807 0.0
C2101 C 0.7431 0.35884 0.42413 0.0
C2102 C 0.7559 0.36499 0.37796 0.0
C2103 C 0.74624 0.36845 0.44195 0.0
C2104 C 0.78065 0.31386 0.3308 0.0
C2105 C 0.77475 0.32488 0.34423 0.0
C2106 C 0.73621 0.32823 0.37036 0.0
C2107 C 0.74353 0.36818 0.40843 0.0
C2108 C 0.74333 0.35783 0.38988 0.0
C2109 C 0.75602 0.32235 0.34583 0.0
C2110 C 0.75 0.33497 0.35951 0.0
H2111 H 0.75233 0.41199 0.43075 0.0
H2112 H 0.7467 0.39502 0.39918 0.0
H2113 H 0.72267 0.33381 0.39397 0.0
H2114 H 0.73937 0.28586 0.3119 0.0
H2115 H 0.72888 0.3054 0.33537 0.0
C2116 C 0.4197 0.98746 0.2392 0.0
C2117 C 0.41537 0.00449 0.24254 0.0
C2118 C 0.42225 0.98073 0.22134 0.0
C2119 C 0.41972 0.98905 0.17164 0.0
H2120 H 0.46525 0.97376 0.17448 0.0
C2121 C 0.46838 0.99773 0.11573 0.0
C2122 C 0.47862 0.98469 0.11231 0.0
C2123 C 0.45666 0.99611 0.12942 0.0
C2124 C 0.4523 0.97756 0.17331 0.0
H2125 H 0.40894 0.02724 0.22984 0.0
H2126 H 0.41421 0.01589 0.19859 0.0
H2127 H 0.45107 0.97799 0.20247 0.0
H2128 H 0.48398 0.95928 0.11988 0.0
H2129 H 0.46344 0.95644 0.14393 0.0
H2130 H 0.42161 0.98942 0.14246 0.0
C2131 C 0.41524 0.00751 0.20966 0.0
C2132 C 0.44411 0.97999 0.18941 0.0
C2133 C 0.41232 0.01409 0.22754 0.0
C2134 C 0.47645 0.96967 0.12243 0.0
C2135 C 0.46467 0.96802 0.13612 0.0
C2136 C 0.42797 0.98665 0.15548 0.0
C2137 C 0.42096 0.99111 0.20656 0.0
C2138 C 0.42794 0.98614 0.18886 0.0
C2139 C 0.45493 0.98143 0.14 0.0
C2140 C 0.44458 0.98129 0.15627 0.0
H2141 H 0.42174 0.97964 0.25054 0.0
H2142 H 0.42612 0.9678 0.21931 0.0
H2143 H 0.40716 0.99358 0.17073 0.0
H2144 H 0.46996 0.0096 0.10833 0.0
H2145 H 0.44963 0.00685 0.1323 0.0
C2146 C 0.77782 0.71064 0.95871 0.0
C2147 C 0.77739 0.69218 0.96038 0.0
C2148 C 0.77873 0.71713 0.94139 0.0
C2149 C 0.7704 0.70261 0.89032 0.0
H2150 H 0.80332 0.74997 0.88876 0.0
C2151 C 0.78251 0.73238 0.82046 0.0
C2152 C 0.78415 0.75135 0.82068 0.0
C2153 C 0.78236 0.7245 0.83715 0.0
C2154 C 0.79387 0.73681 0.8889 0.0
H2155 H 0.77717 0.66595 0.94495 0.0
H2156 H 0.77865 0.67727 0.91465 0.0
H2157 H 0.8011 0.73757 0.91823 0.0
H2158 H 0.78697 0.77684 0.83884 0.0
H2159 H 0.78643 0.76321 0.86755 0.0
H2160 H 0.76296 0.70201 0.861 0.0
C2161 C 0.77826 0.68674 0.92678 0.0
C2162 C 0.79262 0.72968 0.90587 0.0
C2163 C 0.77748 0.68026 0.94417 0.0
C2164 C 0.78583 0.76221 0.83802 0.0
C2165 C 0.78562 0.75436 0.85461 0.0
C2166 C 0.77157 0.70982 0.87331 0.0
C2167 C 0.77913 0.70533 0.9252 0.0
C2168 C 0.78076 0.71256 0.90688 0.0
C2169 C 0.78382 0.73538 0.85448 0.0
C2170 C 0.7832 0.72713 0.87238 0.0
H2171 H 0.7777 0.72021 0.97087 0.0
H2172 H 0.77907 0.73146 0.94069 0.0
H2173 H 0.76101 0.68945 0.89057 0.0
H2174 H 0.78117 0.72356 0.8074 0.0
H2175 H 0.78118 0.70988 0.83644 0.0
C2176 C 0.836 0.12484 0.04487 0.0
C2177 C 0.81705 0.11821 0.04447 0.0
C2178 C 0.84757 0.11308 0.04682 0.0
C2179 C 0.84637 0.06538 0.03358 0.0
H2180 H 0.89616 0.07976 0.05834 0.0
C2181 C 0.90023 0.02336 0.02035 0.0
C2182 C 0.91745 0.03409 0.01795 0.0
C2183 C 0.88692 0.03176 0.02668 0.0
C2184 C 0.88228 0.07555 0.05135 0.0
H2185 H 0.79543 0.09449 0.04721 0.0
H2186 H 0.81572 0.07387 0.05046 0.0
H2187 H 0.87477 0.09827 0.06594 0.0
H2188 H 0.93393 0.06191 0.0192 0.0
H2189 H 0.91077 0.0765 0.02998 0.0
H2190 H 0.85412 0.04318 0.01832 0.0
C2191 C 0.82156 0.08813 0.04916 0.0
C2192 C 0.87005 0.08609 0.05577 0.0
C2193 C 0.81 0.09995 0.04739 0.0
C2194 C 0.9209 0.0533 0.02133 0.0
C2195 C 0.90768 0.06165 0.02761 0.0
C2196 C 0.85864 0.05486 0.02911 0.0
C2197 C 0.84037 0.09445 0.04828 0.0
C2198 C 0.85216 0.08144 0.04648 0.0
C2199 C 0.89066 0.05099 0.03066 0.0
C2200 C 0.87688 0.06023 0.03749 0.0
H2201 H 0.84182 0.13888 0.04276 0.0
H2202 H 0.86199 0.11832 0.04595 0.0
H2203 H 0.83271 0.06158 0.02606 0.0
H2204 H 0.89729 0.00851 0.01789 0.0
H2205 H 0.87387 0.02323 0.02885 0.0
C2206 C 0.35288 0.3945 0.02359 0.0
C2207 C 0.33716 0.39928 0.02918 0.0
C2208 C 0.36914 0.4079 0.02394 0.0
C2209 C 0.39439 0.45508 0.04411 0.0
H2210 H 0.42178 0.45035 0.00228 0.0
C2211 C 0.46285 0.50714 0.03434 0.0
C2212 C 0.47647 0.49879 0.0284 0.0
C2213 C 0.44507 0.49648 0.03503 0.0
C2214 C 0.41436 0.45184 0.01413 0.0
H2215 H 0.32649 0.42207 0.03992 0.0
H2216 H 0.35498 0.44548 0.04048 0.0
H2217 H 0.39239 0.42895 0.00241 0.0
H2218 H 0.48217 0.47253 0.01943 0.0
H2219 H 0.45167 0.45432 0.02069 0.0
H2220 H 0.41668 0.47799 0.05586 0.0
C2221 C 0.35466 0.43129 0.0359 0.0
C2222 C 0.39751 0.43953 0.01422 0.0
C2223 C 0.3383 0.41785 0.0355 0.0
C2224 C 0.47205 0.47958 0.02377 0.0
C2225 C 0.45446 0.46905 0.02442 0.0
C2226 C 0.41136 0.46749 0.04402 0.0
C2227 C 0.37021 0.4265 0.02989 0.0
C2228 C 0.38747 0.44069 0.02939 0.0
C2229 C 0.44063 0.47733 0.02971 0.0
C2230 C 0.42173 0.46571 0.02921 0.0
H2231 H 0.35262 0.38038 0.01872 0.0
H2232 H 0.38095 0.40365 0.01955 0.0
H2233 H 0.38702 0.45637 0.05602 0.0
H2234 H 0.46579 0.52188 0.03806 0.0
H2235 H 0.4347 0.50325 0.03922 0.0
C2236 C 0.38713 0.56243 0.75147 0.0
C2237 C 0.4054 0.56621 0.75971 0.0
C2238 C 0.37747 0.57615 0.75204 0.0
C2239 C 0.37689 0.62018 0.77921 0.0
H2240 H 0.34271 0.62369 0.7373 0.0
C2241 C 0.33812 0.67793 0.78069 0.0
C2242 C 0.31978 0.67334 0.77247 0.0
C2243 C 0.34909 0.66545 0.77848 0.0
C2244 C 0.35203 0.62279 0.74923 0.0
H2245 H 0.42797 0.58756 0.77467 0.0
H2246 H 0.41115 0.61155 0.7756 0.0
H2247 H 0.361 0.60115 0.73434 0.0
H2248 H 0.29862 0.65187 0.7556 0.0
H2249 H 0.31762 0.63006 0.75193 0.0
H2250 H 0.36775 0.64159 0.79422 0.0
C2251 C 0.40422 0.5979 0.76884 0.0
C2252 C 0.36257 0.60986 0.74751 0.0
C2253 C 0.41392 0.58417 0.76818 0.0
C2254 C 0.31274 0.65597 0.76192 0.0
C2255 C 0.32369 0.64346 0.75978 0.0
C2256 C 0.3663 0.63306 0.78096 0.0
C2257 C 0.38579 0.59402 0.76095 0.0
C2258 C 0.37509 0.60831 0.7625 0.0
C2259 C 0.34203 0.64799 0.76806 0.0
C2260 C 0.35364 0.63451 0.76603 0.0
H2261 H 0.38011 0.54874 0.74487 0.0
H2262 H 0.36327 0.57258 0.74599 0.0
H2263 H 0.38616 0.6192 0.79116 0.0
H2264 H 0.3441 0.69129 0.78865 0.0
H2265 H 0.36321 0.66962 0.78479 0.0
C2266 C 0.21367 0.65297 0.53364 0.0
C2267 C 0.22819 0.64439 0.53589 0.0
C2268 C 0.19559 0.6429 0.53316 0.0
C2269 C 0.16784 0.59909 0.54487 0.0
H2270 H 0.13096 0.6071 0.50805 0.0
C2271 C 0.09 0.56156 0.50717 0.0
C2272 C 0.08165 0.55628 0.52284 0.0
C2273 C 0.10786 0.57248 0.50929 0.0
C2274 C 0.14113 0.60458 0.5183 0.0
H2275 H 0.235 0.61848 0.53962 0.0
H2276 H 0.2037 0.60104 0.53844 0.0
H2277 H 0.16208 0.62613 0.51116 0.0
H2278 H 0.08557 0.5582 0.55301 0.0
H2279 H 0.11657 0.57747 0.55673 0.0
H2280 H 0.14711 0.5771 0.55153 0.0
C2281 C 0.20622 0.61559 0.53739 0.0
C2282 C 0.15891 0.61569 0.52028 0.0
C2283 C 0.22422 0.62562 0.53795 0.0
C2284 C 0.09163 0.56193 0.54064 0.0
C2285 C 0.10945 0.57294 0.54277 0.0
C2286 C 0.15011 0.58793 0.54282 0.0
C2287 C 0.19167 0.62404 0.53488 0.0
C2288 C 0.17251 0.61299 0.5335 0.0
C2289 C 0.11774 0.57845 0.52713 0.0
C2290 C 0.13656 0.59047 0.52945 0.0
H2291 H 0.21624 0.66741 0.53205 0.0
H2292 H 0.18469 0.64987 0.53144 0.0
H2293 H 0.17793 0.59678 0.55535 0.0
H2294 H 0.08271 0.55739 0.49324 0.0
H2295 H 0.11395 0.57619 0.49693 0.0
C2296 C 0.70283 0.99492 0.7542 0.0
C2297 C 0.68431 0.9893 0.75674 0.0
C2298 C 0.71454 0.9834 0.75722 0.0
C2299 C 0.71818 0.9453 0.78369 0.0
H2300 H 0.75635 0.93933 0.75345 0.0
C2301 C 0.7533 0.88644 0.78695 0.0
C2302 C 0.77232 0.89023 0.78694 0.0
C2303 C 0.74397 0.89994 0.78418 0.0
C2304 C 0.74592 0.94112 0.76216 0.0
H2305 H 0.66321 0.96683 0.76312 0.0
H2306 H 0.68348 0.9466 0.76793 0.0
H2307 H 0.7367 0.95958 0.74524 0.0
H2308 H 0.79664 0.91106 0.78439 0.0
H2309 H 0.78014 0.93494 0.77935 0.0
H2310 H 0.72709 0.92661 0.80036 0.0
C2311 C 0.68911 0.96008 0.76417 0.0
C2312 C 0.73466 0.95264 0.75744 0.0
C2313 C 0.67747 0.97161 0.76127 0.0
C2314 C 0.78196 0.9079 0.78449 0.0
C2315 C 0.77254 0.92144 0.78149 0.0
C2316 C 0.72935 0.93379 0.78834 0.0
C2317 C 0.70787 0.96607 0.76274 0.0
C2318 C 0.72045 0.95456 0.76798 0.0
C2319 C 0.75345 0.91751 0.78125 0.0
C2320 C 0.74311 0.93134 0.77744 0.0
H2321 H 0.70848 0.00851 0.75072 0.0
H2322 H 0.72893 0.9884 0.75604 0.0
H2323 H 0.70769 0.9469 0.7924 0.0
H2324 H 0.7456 0.87292 0.78895 0.0
H2325 H 0.72924 0.89649 0.78388 0.0
C2326 C 0.72255 0.89404 0.52739 0.0
C2327 C 0.74045 0.90271 0.53566 0.0
C2328 C 0.70886 0.90373 0.52675 0.0
C2329 C 0.69688 0.94593 0.54756 0.0
H2330 H 0.66538 0.9397 0.50085 0.0
C2331 C 0.65091 0.99553 0.53211 0.0
C2332 C 0.63364 0.98824 0.52165 0.0
C2333 C 0.66337 0.98461 0.53452 0.0
C2334 C 0.67384 0.94145 0.5141 0.0
H2335 H 0.75783 0.92827 0.55024 0.0
H2336 H 0.73403 0.94512 0.54916 0.0
H2337 H 0.6877 0.92133 0.50421 0.0
H2338 H 0.61581 0.96349 0.50596 0.0
H2339 H 0.63739 0.94442 0.51029 0.0
H2340 H 0.68305 0.96607 0.55745 0.0
C2341 C 0.73049 0.9308 0.54324 0.0
C2342 C 0.68668 0.93088 0.51603 0.0
C2343 C 0.74418 0.92113 0.5438 0.0
C2344 C 0.6291 0.96966 0.51384 0.0
C2345 C 0.64152 0.95872 0.51631 0.0
C2346 C 0.68398 0.95646 0.54565 0.0
C2347 C 0.7127 0.92232 0.53445 0.0
C2348 C 0.69846 0.93304 0.53274 0.0
C2349 C 0.65889 0.96604 0.52661 0.0
C2350 C 0.67234 0.95446 0.52886 0.0
H2351 H 0.71919 0.87987 0.52098 0.0
H2352 H 0.69526 0.89668 0.52011 0.0
H2353 H 0.70553 0.9478 0.56072 0.0
H2354 H 0.65498 0.00983 0.53813 0.0
H2355 H 0.67669 0.99086 0.54228 0.0
C2356 C 0.4144 0.45061 0.75849 0.0
C2357 C 0.40945 0.46747 0.7605 0.0
C2358 C 0.40117 0.43401 0.75727 0.0
C2359 C 0.35625 0.41402 0.77078 0.0
H2360 H 0.35542 0.37338 0.73316 0.0
C2361 C 0.30204 0.34473 0.76519 0.0
C2362 C 0.30794 0.32864 0.76082 0.0
C2363 C 0.31327 0.362 0.76371 0.0
C2364 C 0.35556 0.38447 0.74393 0.0
H2365 H 0.38661 0.48001 0.76288 0.0
H2366 H 0.3636 0.45102 0.76106 0.0
H2367 H 0.37751 0.40265 0.7337 0.0
H2368 H 0.33026 0.31821 0.75117 0.0
H2369 H 0.34991 0.34802 0.74923 0.0
H2370 H 0.33482 0.39578 0.78151 0.0
C2371 C 0.37773 0.4507 0.76032 0.0
C2372 C 0.3682 0.40129 0.74416 0.0
C2373 C 0.39092 0.46729 0.76125 0.0
C2374 C 0.32519 0.33025 0.75463 0.0
C2375 C 0.33646 0.34745 0.75336 0.0
C2376 C 0.34376 0.39712 0.77073 0.0
C2377 C 0.38271 0.43387 0.75833 0.0
C2378 C 0.36878 0.41621 0.75766 0.0
C2379 C 0.33077 0.36363 0.75799 0.0
C2380 C 0.34332 0.38202 0.75739 0.0
H2381 H 0.42853 0.45022 0.75786 0.0
H2382 H 0.40544 0.42126 0.75588 0.0
H2383 H 0.35647 0.42524 0.78146 0.0
H2384 H 0.28881 0.34402 0.76993 0.0
H2385 H 0.30822 0.37407 0.7671 0.0
C2386 C 0.16136 0.59259 0.26966 0.0
C2387 C 0.16504 0.5779 0.25846 0.0
C2388 C 0.1723 0.61034 0.27051 0.0
C2389 C 0.19126 0.64815 0.26362 0.0
H2390 H 0.24348 0.65569 0.2621 0.0
C2391 C 0.24184 0.71843 0.28528 0.0
C2392 C 0.25295 0.72466 0.27172 0.0
C2393 C 0.23182 0.7002 0.28333 0.0
C2394 C 0.2289 0.65371 0.26245 0.0
H2395 H 0.18283 0.57034 0.23901 0.0
H2396 H 0.2015 0.60149 0.23987 0.0
H2397 H 0.22418 0.62447 0.25901 0.0
H2398 H 0.26292 0.71649 0.24596 0.0
H2399 H 0.24563 0.68438 0.24284 0.0
H2400 H 0.1962 0.67746 0.26776 0.0
C2401 C 0.19048 0.59923 0.24845 0.0
C2402 C 0.2178 0.63587 0.26055 0.0
C2403 C 0.1797 0.58139 0.24783 0.0
C2404 C 0.25441 0.7121 0.25658 0.0
C2405 C 0.2446 0.69375 0.25481 0.0
C2406 C 0.2024 0.66594 0.26583 0.0
C2407 C 0.18702 0.61392 0.25994 0.0
C2408 C 0.19883 0.63286 0.26122 0.0
C2409 C 0.23294 0.68778 0.26798 0.0
C2410 C 0.2213 0.66887 0.26535 0.0
H2411 H 0.15033 0.59031 0.27824 0.0
H2412 H 0.16942 0.62117 0.27985 0.0
H2413 H 0.17669 0.64643 0.26375 0.0
H2414 H 0.2404 0.72777 0.29709 0.0
H2415 H 0.22301 0.69584 0.29373 0.0
C2416 C 0.51378 0.71129 0.45113 0.0
C2417 C 0.49922 0.71849 0.45656 0.0
C2418 C 0.51636 0.69449 0.45656 0.0
C2419 C 0.49983 0.65934 0.48958 0.0
H2420 H 0.52734 0.6308 0.46208 0.0
C2421 C 0.50353 0.58491 0.50428 0.0
C2422 C 0.52081 0.58082 0.50489 0.0
C2423 C 0.50077 0.6014 0.49828 0.0
C2424 C 0.51967 0.6386 0.47003 0.0
H2425 H 0.47555 0.71282 0.47144 0.0
H2426 H 0.47926 0.6836 0.47983 0.0
H2427 H 0.5227 0.65915 0.45157 0.0
H2428 H 0.54862 0.59123 0.49916 0.0
H2429 H 0.54371 0.61949 0.4884 0.0
H2430 H 0.49639 0.63831 0.50766 0.0
C2431 C 0.48939 0.69109 0.47216 0.0
C2432 C 0.51704 0.65513 0.46402 0.0
C2433 C 0.48707 0.70799 0.46709 0.0
C2434 C 0.53511 0.59375 0.49904 0.0
C2435 C 0.53226 0.61002 0.4927 0.0
C2436 C 0.50215 0.64265 0.49533 0.0
C2437 C 0.50427 0.68399 0.46734 0.0
C2438 C 0.50709 0.66599 0.47367 0.0
C2439 C 0.51507 0.61425 0.49227 0.0
C2440 C 0.51219 0.63197 0.48575 0.0
H2441 H 0.52356 0.71893 0.44317 0.0
H2442 H 0.52817 0.69004 0.45258 0.0
H2443 H 0.49251 0.66712 0.49798 0.0
H2444 H 0.49212 0.57541 0.5086 0.0
H2445 H 0.48728 0.60397 0.49808 0.0
C2446 C 0.63046 0.30878 0.62773 0.0
C2447 C 0.61267 0.30577 0.63294 0.0
C2448 C 0.64544 0.30787 0.64031 0.0
C2449 C 0.66077 0.30854 0.6911 0.0
H2450 H 0.6981 0.28667 0.67243 0.0
C2451 C 0.71714 0.2911 0.74125 0.0
C2452 C 0.73489 0.29316 0.73611 0.0
C2453 C 0.70259 0.29304 0.72872 0.0
C2454 C 0.68798 0.29305 0.67793 0.0
H2455 H 0.59702 0.29962 0.65591 0.0
H2456 H 0.623 0.29797 0.67773 0.0
H2457 H 0.67241 0.28943 0.65096 0.0
H2458 H 0.751 0.29892 0.71341 0.0
H2459 H 0.72577 0.30251 0.69168 0.0
H2460 H 0.67631 0.31215 0.71806 0.0
C2461 C 0.62545 0.30124 0.66391 0.0
C2462 C 0.67314 0.29465 0.66553 0.0
C2463 C 0.61045 0.30213 0.65131 0.0
C2464 C 0.73759 0.29723 0.71797 0.0
C2465 C 0.723 0.29917 0.7054 0.0
C2466 C 0.67561 0.30696 0.70349 0.0
C2467 C 0.64321 0.30392 0.65859 0.0
C2468 C 0.65923 0.30239 0.67189 0.0
C2469 C 0.70522 0.29713 0.71056 0.0
C2470 C 0.68948 0.29913 0.69716 0.0
H2471 H 0.63285 0.31164 0.61378 0.0
H2472 H 0.65884 0.31034 0.63566 0.0
H2473 H 0.65061 0.31486 0.69661 0.0
H2474 H 0.71437 0.28786 0.755 0.0
H2475 H 0.68916 0.29101 0.73325 0.0
C2476 C 0.00581 0.32294 0.96928 0.0
C2477 C 0.00503 0.31781 0.94997 0.0
C2478 C 0.00649 0.34121 0.97659 0.0
C2479 C 0.99751 0.38539 0.96303 0.0
H2480 H 0.02948 0.4077 0.00847 0.0
C2481 C 1.00058 0.45994 -0.00209 0.0
C2482 C 0.01788 0.47113 0.00557 0.0
C2483 C 0.99825 0.4411 0.99165 0.0
C2484 C 0.02051 0.40178 0.99571 0.0
H2485 H 1.00407 0.32812 0.92328 0.0
H2486 H 0.00515 0.3596 0.93585 0.0
H2487 H 0.02678 0.37557 0.99673 0.0
H2488 H 0.04627 0.47079 0.01262 0.0
H2489 H 0.04222 0.43831 0.00186 0.0
H2490 H 0.99145 0.41168 0.96185 0.0
C2491 C 0.00515 0.34959 0.94547 0.0
C2492 C 0.0188 0.38317 0.98905 0.0
C2493 C 0.00463 0.33143 0.93821 0.0
C2494 C 0.0327 0.46278 0.00687 0.0
C2495 C 0.03034 0.44397 0.00077 0.0
C2496 C 0.99911 0.40396 0.96977 0.0
C2497 C 0.00622 0.3549 0.9648 0.0
C2498 C 0.0074 0.37465 0.97248 0.0
C2499 C 0.0131 0.43275 0.99298 0.0
C2500 C 0.01078 0.41258 0.98615 0.0
H2501 H 0.00615 0.3129 0.97881 0.0
H2502 H 0.00711 0.34457 0.99152 0.0
H2503 H 0.9884 0.37943 0.95036 0.0
H2504 H 0.9888 0.46574 0.99664 0.0
H2505 H 0.9847 0.43302 0.98594 0.0
C2506 C 0.01016 0.78219 0.15745 0.0
C2507 C 0.00854 0.78556 0.13877 0.0
C2508 C 0.995 0.77971 0.1674 0.0
C2509 C 0.94862 0.78873 0.16743 0.0
H2510 H 0.94365 0.75477 0.20409 0.0
C2511 C 0.89574 0.78702 0.22066 0.0
C2512 C 0.88728 0.76996 0.2259 0.0
C2513 C 0.90998 0.78856 0.20945 0.0
C2514 C 0.94465 0.7642 0.1938 0.0
H2515 H 0.98949 0.7887 0.11587 0.0
H2516 H 0.96296 0.78408 0.13308 0.0
H2517 H 0.96883 0.75741 0.18539 0.0
H2518 H 0.88699 0.74103 0.22279 0.0
H2519 H 0.91158 0.74366 0.20325 0.0
H2520 H 0.9242 0.79524 0.17561 0.0
C2521 C 0.97605 0.78363 0.14018 0.0
C2522 C 0.95932 0.76591 0.18319 0.0
C2523 C 0.99125 0.78613 0.13022 0.0
C2524 C 0.89335 0.75446 0.21938 0.0
C2525 C 0.90753 0.75599 0.20813 0.0
C2526 C 0.93392 0.78701 0.17804 0.0
C2527 C 0.9777 0.78048 0.15898 0.0
C2528 C 0.96162 0.77826 0.16988 0.0
C2529 C 0.91618 0.77308 0.20307 0.0
C2530 C 0.93172 0.77476 0.19146 0.0
H2531 H 0.02325 0.78176 0.16457 0.0
H2532 H 0.997 0.77762 0.18188 0.0
H2533 H 0.94995 0.79854 0.1575 0.0
H2534 H 0.89166 0.79932 0.22558 0.0
H2535 H 0.91641 0.80202 0.20615 0.0
C2536 C 0.52866 0.29953 0.13885 0.0
C2537 C 0.52491 0.30091 0.15745 0.0
C2538 C 0.53046 0.31461 0.12895 0.0
C2539 C 0.53866 0.3653 0.13334 0.0
H2540 H 0.51482 0.35498 0.08239 0.0
C2541 C 0.5348 0.42306 0.08674 0.0
C2542 C 0.53682 0.41934 0.06775 0.0
C2543 C 0.53316 0.40918 0.09835 0.0
C2544 C 0.52178 0.35814 0.0965 0.0
H2545 H 0.52076 0.31959 0.18042 0.0
H2546 H 0.524 0.34614 0.16308 0.0
H2547 H 0.51291 0.33025 0.10152 0.0
H2548 H 0.53834 0.39778 0.04621 0.0
H2549 H 0.53596 0.37389 0.06639 0.0
H2550 H 0.54767 0.39323 0.12819 0.0
C2551 C 0.52556 0.33327 0.15618 0.0
C2552 C 0.52065 0.3439 0.10752 0.0
C2553 C 0.52369 0.31805 0.16613 0.0
C2554 C 0.53705 0.40131 0.06076 0.0
C2555 C 0.53543 0.38748 0.07234 0.0
C2556 C 0.53986 0.37959 0.12224 0.0
C2557 C 0.52858 0.33161 0.13731 0.0
C2558 C 0.52925 0.3472 0.12603 0.0
C2559 C 0.53342 0.39116 0.09132 0.0
C2560 C 0.53159 0.37618 0.10357 0.0
H2561 H 0.52983 0.2866 0.13171 0.0
H2562 H 0.5332 0.31288 0.11461 0.0
H2563 H 0.54553 0.36834 0.14749 0.0
H2564 H 0.53475 0.43678 0.09274 0.0
H2565 H 0.53147 0.41257 0.11282 0.0
C2566 C 0.98298 0.32121 0.34617 0.0
C2567 C 0.9914 0.30649 0.34697 0.0
C2568 C 0.96517 0.31858 0.33698 0.0
C2569 C 0.92151 0.28391 0.32547 0.0
H2570 H 0.90806 0.31657 0.29203 0.0
C2571 C 0.84569 0.27223 0.29225 0.0
C2572 C 0.83919 0.28711 0.28675 0.0
C2573 C 0.86435 0.27419 0.29832 0.0
C2574 C 0.9113 0.30743 0.3016 0.0
H2575 H 0.98746 0.27735 0.3388 0.0
H2576 H 0.95612 0.27259 0.32306 0.0
H2577 H 0.93999 0.32074 0.30444 0.0
H2578 H 0.84752 0.31593 0.28366 0.0
H2579 H 0.87963 0.31972 0.29511 0.0
H2580 H 0.89298 0.27114 0.32365 0.0
C2581 C 0.96351 0.28631 0.32926 0.0
C2582 C 0.92982 0.30978 0.30861 0.0
C2583 C 0.98157 0.28905 0.33808 0.0
C2584 C 0.85197 0.30409 0.28762 0.0
C2585 C 0.87059 0.30619 0.29411 0.0
C2586 C 0.90294 0.2818 0.31882 0.0
C2587 C 0.95496 0.30101 0.32877 0.0
C2588 C 0.93524 0.29804 0.32063 0.0
C2589 C 0.87726 0.29127 0.2996 0.0
C2590 C 0.89736 0.2935 0.3067 0.0
H2591 H 0.99002 0.33474 0.35319 0.0
H2592 H 0.95908 0.3302 0.33706 0.0
H2593 H 0.92506 0.27476 0.33492 0.0
H2594 H 0.83636 0.25886 0.29161 0.0
H2595 H 0.86856 0.2621 0.3018 0.0
C2596 C 0.00939 0.68903 0.65487 0.0
C2597 C 1.00372 0.70234 0.64519 0.0
C2598 C 0.00877 0.67151 0.64545 0.0
C2599 C 0.01355 0.65191 0.59862 0.0
H2600 H 0.9953 0.60353 0.61255 0.0
C2601 C 0.01176 0.58769 0.54753 0.0
C2602 C 0.01455 0.57168 0.55433 0.0
C2603 C 0.00944 0.60249 0.55959 0.0
C2604 C 1.00073 0.61692 0.60853 0.0
H2605 H 0.9918 0.70721 0.61849 0.0
H2606 H 0.99054 0.67695 0.60233 0.0
H2607 H 0.99252 0.6308 0.63252 0.0
H2608 H 0.01686 0.55873 0.57935 0.0
H2609 H 0.01347 0.58481 0.60055 0.0
H2610 H 0.02239 0.63858 0.57516 0.0
C2611 C 0.99563 0.67996 0.61705 0.0
C2612 C 0.99905 0.63257 0.62 0.0
C2613 C 0.99616 0.69726 0.62639 0.0
C2614 C 0.01467 0.57081 0.57359 0.0
C2615 C 0.01264 0.58581 0.58577 0.0
C2616 C 0.01549 0.63643 0.58738 0.0
C2617 C 1.00264 0.66711 0.62619 0.0
C2618 C 0.00514 0.65024 0.61498 0.0
C2619 C 0.0102 0.60204 0.57899 0.0
C2620 C 0.00881 0.61858 0.59186 0.0
H2621 H 0.01565 0.69263 0.66923 0.0
H2622 H 0.01428 0.66191 0.6529 0.0
H2623 H 0.01877 0.66534 0.59452 0.0
H2624 H 0.01133 0.58882 0.53278 0.0
H2625 H 0.00701 0.61433 0.55354 0.0
C2626 C 0.59163 0.79827 0.82324 0.0
C2627 C 0.59095 0.80167 0.84258 0.0
C2628 C 0.60797 0.79642 0.81617 0.0
C2629 C 0.65264 0.78498 0.82941 0.0
H2630 H 0.66851 0.8083 0.78683 0.0
C2631 C 0.71358 0.76928 0.79241 0.0
C2632 C 0.7264 0.78404 0.78715 0.0
C2633 C 0.69723 0.77167 0.79889 0.0
C2634 C 0.66436 0.80172 0.79878 0.0
H2635 H 0.60728 0.80553 0.86952 0.0
H2636 H 0.63533 0.80188 0.85734 0.0
H2637 H 0.6399 0.81168 0.79831 0.0
H2638 H 0.7315 0.81305 0.78456 0.0
H2639 H 0.70282 0.81712 0.79545 0.0
H2640 H 0.67691 0.77486 0.82981 0.0
C2641 C 0.62329 0.80074 0.84754 0.0
C2642 C 0.64779 0.80353 0.80529 0.0
C2643 C 0.60711 0.80292 0.85456 0.0
C2644 C 0.72209 0.8013 0.78842 0.0
C2645 C 0.70552 0.80362 0.79462 0.0
C2646 C 0.66899 0.7829 0.8227 0.0
C2647 C 0.6241 0.79752 0.82821 0.0
C2648 C 0.64165 0.79528 0.82081 0.0
C2649 C 0.69284 0.78886 0.80013 0.0
C2650 C 0.67524 0.79127 0.80729 0.0
H2651 H 0.57957 0.79725 0.81351 0.0
H2652 H 0.60787 0.79383 0.80123 0.0
H2653 H 0.64846 0.77828 0.84129 0.0
H2654 H 0.71625 0.75577 0.79174 0.0
H2655 H 0.68788 0.75988 0.80277 0.0
C2656 C 0.47633 0.53593 0.71215 0.0
C2657 C 0.45785 0.53073 0.71511 0.0
C2658 C 0.48118 0.53878 0.69442 0.0
C2659 C 0.46559 0.52396 0.64504 0.0
H2660 H 0.50324 0.56604 0.63736 0.0
C2661 C 0.48889 0.53123 0.572 0.0
C2662 C 0.50738 0.53934 0.57095 0.0
C2663 C 0.48178 0.53186 0.5891 0.0
C2664 C 0.4929 0.55403 0.63921 0.0
H2665 H 0.42996 0.52464 0.70161 0.0
H2666 H 0.4385 0.52916 0.67035 0.0
H2667 H 0.49285 0.56407 0.66795 0.0
H2668 H 0.53289 0.55461 0.58712 0.0
H2669 H 0.52083 0.55511 0.61698 0.0
H2670 H 0.46616 0.51335 0.61673 0.0
C2671 C 0.4492 0.5312 0.68194 0.0
C2672 C 0.48683 0.55301 0.65678 0.0
C2673 C 0.44431 0.52873 0.69984 0.0
C2674 C 0.51853 0.54839 0.58739 0.0
C2675 C 0.51152 0.54872 0.60458 0.0
C2676 C 0.47187 0.52481 0.62754 0.0
C2677 C 0.46772 0.53617 0.67901 0.0
C2678 C 0.47318 0.53791 0.65995 0.0
C2679 C 0.49304 0.5403 0.60578 0.0
C2680 C 0.48575 0.53981 0.62432 0.0
H2681 H 0.48712 0.53764 0.72359 0.0
H2682 H 0.49555 0.54246 0.69265 0.0
H2683 H 0.45523 0.51203 0.64709 0.0
H2684 H 0.47986 0.52426 0.55958 0.0
H2685 H 0.46741 0.52562 0.58916 0.0
C2686 C 0.76698 0.1456 0.9658 0.0
C2687 C 0.78366 0.15341 0.97707 0.0
C2688 C 0.76155 0.15441 0.95099 0.0
C2689 C 0.76516 0.20066 0.94461 0.0
H2690 H 0.75135 0.18728 0.89134 0.0
C2691 C 0.76238 0.25435 0.89572 0.0
C2692 C 0.74911 0.25024 0.88003 0.0
C2693 C 0.76402 0.24102 0.90717 0.0
C2694 C 0.75482 0.19105 0.90626 0.0
H2695 H 0.80855 0.17508 0.98092 0.0
H2696 H 0.79928 0.19019 0.95493 0.0
H2697 H 0.76005 0.16482 0.91023 0.0
H2698 H 0.72675 0.22913 0.8643 0.0
H2699 H 0.72935 0.20585 0.88466 0.0
H2700 H 0.76007 0.22675 0.94096 0.0
C2701 C 0.79034 0.1775 0.95753 0.0
C2702 C 0.75986 0.17826 0.91697 0.0
C2703 C 0.79567 0.16882 0.97227 0.0
C2704 C 0.73699 0.23273 0.87643 0.0
C2705 C 0.73863 0.21934 0.88792 0.0
C2706 C 0.75998 0.21331 0.93402 0.0
C2707 C 0.77285 0.17097 0.94751 0.0
C2708 C 0.76557 0.18323 0.93611 0.0
C2709 C 0.75236 0.22328 0.90323 0.0
C2710 C 0.75528 0.20887 0.91466 0.0
H2711 H 0.75741 0.1339 0.96956 0.0
H2712 H 0.74797 0.14925 0.94342 0.0
H2713 H 0.76922 0.20461 0.95946 0.0
H2714 H 0.77183 0.26776 0.89888 0.0
H2715 H 0.77489 0.24444 0.91873 0.0
C2716 C 0.09774 0.48771 0.2077 0.0
C2717 C 0.1161 0.49766 0.21058 0.0
C2718 C 0.08847 0.48263 0.18971 0.0
C2719 C 0.09366 0.48343 0.13918 0.0
H2720 H 0.04815 0.49868 0.1383 0.0
C2721 C 0.06485 0.51527 0.07872 0.0
C2722 C 0.04585 0.51111 0.07347 0.0
C2723 C 0.07212 0.50845 0.09401 0.0
C2724 C 0.0606 0.49397 0.13823 0.0
H2725 H 0.13968 0.50873 0.197 0.0
H2726 H 0.12338 0.50049 0.16555 0.0
H2727 H 0.06367 0.49472 0.16775 0.0
H2728 H 0.01958 0.49619 0.07995 0.0
H2729 H 0.03236 0.48442 0.10696 0.0
H2730 H 0.09093 0.48374 0.10962 0.0
C2731 C 0.11615 0.49625 0.1771 0.0
C2732 C 0.06952 0.49163 0.15514 0.0
C2733 C 0.12551 0.50105 0.19513 0.0
C2734 C 0.03426 0.49976 0.08373 0.0
C2735 C 0.04157 0.493 0.09915 0.0
C2736 C 0.08475 0.48586 0.12224 0.0
C2737 C 0.09729 0.48776 0.17427 0.0
C2738 C 0.08644 0.48686 0.15591 0.0
C2739 C 0.06057 0.49736 0.10447 0.0
C2740 C 0.06841 0.4917 0.1217 0.0
H2741 H 0.09027 0.48466 0.21942 0.0
H2742 H 0.0741 0.47563 0.18798 0.0
H2743 H 0.10651 0.47946 0.13926 0.0
H2744 H 0.07421 0.52385 0.07105 0.0
H2745 H 0.08679 0.51231 0.09795 0.0
C2746 C 0.78381 0.8414 0.47763 0.0
C2747 C 0.78279 0.85979 0.48092 0.0
C2748 C 0.78527 0.83346 0.45972 0.0
C2749 C 0.79732 0.84437 0.4131 0.0
H2750 H 0.76781 0.795 0.39632 0.0
C2751 C 0.80103 0.80423 0.3411 0.0
C2752 C 0.78414 0.79476 0.33087 0.0
C2753 C 0.80198 0.8118 0.35977 0.0
C2754 C 0.77612 0.80881 0.40074 0.0
H2755 H 0.78285 0.88435 0.46797 0.0
H2756 H 0.78532 0.87048 0.43668 0.0
H2757 H 0.76732 0.80928 0.42784 0.0
H2758 H 0.75504 0.78562 0.33254 0.0
H2759 H 0.75673 0.79868 0.36483 0.0
H2760 H 0.80579 0.84399 0.38577 0.0
C2761 C 0.78513 0.86221 0.44799 0.0
C2762 C 0.77599 0.81695 0.41893 0.0
C2763 C 0.78361 0.87015 0.46592 0.0
C2764 C 0.76832 0.79277 0.33991 0.0
C2765 C 0.76929 0.8002 0.35853 0.0
C2766 C 0.79753 0.83617 0.3949 0.0
C2767 C 0.78579 0.84369 0.4446 0.0
C2768 C 0.78647 0.83489 0.42534 0.0
C2769 C 0.78609 0.80994 0.36871 0.0
C2770 C 0.78679 0.81834 0.38842 0.0
H2771 H 0.7833 0.83304 0.48887 0.0
H2772 H 0.78602 0.81926 0.45774 0.0
H2773 H 0.80571 0.85813 0.4176 0.0
H2774 H 0.81348 0.80609 0.33459 0.0
H2775 H 0.81517 0.81908 0.36723 0.0
C2776 C 0.46763 0.52334 0.816 0.0
C2777 C 0.44887 0.52253 0.81231 0.0
C2778 C 0.47535 0.52154 0.83385 0.0
C2779 C 0.4663 0.52603 0.88336 0.0
H2780 H 0.50728 0.50394 0.8914 0.0
C2781 C 0.50731 0.53621 0.95567 0.0
C2782 C 0.51323 0.52143 0.96223 0.0
C2783 C 0.50013 0.53526 0.93709 0.0
C2784 C 0.49574 0.51 0.88943 0.0
H2785 H 0.42341 0.51847 0.82434 0.0
H2786 H 0.43666 0.51489 0.85519 0.0
H2787 H 0.49292 0.50345 0.85968 0.0
H2788 H 0.51679 0.49421 0.95403 0.0
H2789 H 0.50383 0.49235 0.92133 0.0
H2790 H 0.46873 0.53223 0.91297 0.0
C2791 C 0.4456 0.51741 0.84451 0.0
C2792 C 0.48762 0.50992 0.87118 0.0
C2793 C 0.43794 0.51935 0.82673 0.0
C2794 C 0.51235 0.50583 0.94943 0.0
C2795 C 0.50494 0.5048 0.93069 0.0
C2796 C 0.47433 0.52603 0.90151 0.0
C2797 C 0.46449 0.51876 0.84846 0.0
C2798 C 0.47285 0.51808 0.86787 0.0
C2799 C 0.49839 0.51941 0.92437 0.0
C2800 C 0.48934 0.51827 0.90486 0.0
H2801 H 0.47646 0.52578 0.80521 0.0
H2802 H 0.48994 0.52287 0.83629 0.0
H2803 H 0.45516 0.53266 0.88152 0.0
H2804 H 0.50809 0.54862 0.96499 0.0
H2805 H 0.49584 0.54704 0.93272 0.0
C2806 C 0.79762 0.17965 0.08673 0.0
C2807 C 0.79083 0.18789 0.07204 0.0
C2808 C 0.80118 0.18882 0.10492 0.0
C2809 C 0.80781 0.23485 0.13199 0.0
H2810 H 0.79008 0.20709 0.1712 0.0
C2811 C 0.79171 0.26779 0.20151 0.0
C2812 C 0.79575 0.26011 0.2177 0.0
C2813 C 0.79436 0.25972 0.18415 0.0
C2814 C 0.79539 0.21498 0.16047 0.0
H2815 H 0.78254 0.21227 0.06498 0.0
H2816 H 0.78837 0.22794 0.09657 0.0
H2817 H 0.78879 0.1912 0.14001 0.0
H2818 H 0.80665 0.23856 0.22852 0.0
H2819 H 0.81133 0.22462 0.19825 0.0
H2820 H 0.81384 0.25872 0.1524 0.0
C2821 C 0.79134 0.21461 0.09404 0.0
C2822 C 0.79468 0.20587 0.14261 0.0
C2823 C 0.78786 0.20552 0.07591 0.0
C2824 C 0.8032 0.2447 0.21628 0.0
C2825 C 0.80584 0.23666 0.19895 0.0
C2826 C 0.80846 0.24397 0.14985 0.0
C2827 C 0.79796 0.20636 0.10876 0.0
C2828 C 0.80057 0.21575 0.12811 0.0
C2829 C 0.8011 0.24386 0.18269 0.0
C2830 C 0.80199 0.23415 0.16418 0.0
H2831 H 0.80016 0.16613 0.0842 0.0
H2832 H 0.80643 0.18218 0.11599 0.0
H2833 H 0.81274 0.24279 0.12115 0.0
H2834 H 0.78597 0.27966 0.20215 0.0
H2835 H 0.79043 0.26547 0.1718 0.0
C2836 C 0.12939 0.53941 0.30522 0.0
C2837 C 0.14707 0.53677 0.30467 0.0
C2838 C 0.12505 0.54892 0.32087 0.0
C2839 C 0.13448 0.55721 0.37024 0.0
H2840 H 0.10559 0.59298 0.36487 0.0
C2841 C 0.09315 0.57559 0.42806 0.0
C2842 C 0.07476 0.57431 0.42153 0.0
C2843 C 0.10624 0.5768 0.41571 0.0
C2844 C 0.11371 0.58308 0.36664 0.0
H2845 H 0.17407 0.54181 0.32019 0.0
H2846 H 0.16612 0.55797 0.34818 0.0
H2847 H 0.12136 0.58384 0.3391 0.0
H2848 H 0.0558 0.57421 0.39723 0.0
H2849 H 0.0785 0.57601 0.37559 0.0
H2850 H 0.12576 0.5553 0.39717 0.0
C2851 C 0.15584 0.55295 0.33618 0.0
C2852 C 0.1228 0.57796 0.35196 0.0
C2853 C 0.16033 0.54369 0.32025 0.0
C2854 C 0.06989 0.57533 0.40264 0.0
C2855 C 0.08296 0.57643 0.39027 0.0
C2856 C 0.12525 0.56221 0.38489 0.0
C2857 C 0.13818 0.55573 0.3365 0.0
C2858 C 0.13261 0.56443 0.35337 0.0
C2859 C 0.10118 0.57668 0.39658 0.0
C2860 C 0.11412 0.57461 0.38292 0.0
H2861 H 0.11881 0.53416 0.29353 0.0
H2862 H 0.11122 0.55054 0.32095 0.0
H2863 H 0.14187 0.54665 0.37158 0.0
H2864 H 0.0973 0.57516 0.44265 0.0
H2865 H 0.12021 0.57727 0.42104 0.0
C2866 C 0.78264 0.83344 0.58361 0.0
C2867 C 0.77838 0.84954 0.57832 0.0
C2868 C 0.77948 0.82799 0.601 0.0
C2869 C 0.77259 0.84477 0.64885 0.0
H2870 H 0.75771 0.7926 0.65207 0.0
C2871 C 0.78102 0.81495 0.71851 0.0
C2872 C 0.76849 0.79884 0.72143 0.0
C2873 C 0.77995 0.82191 0.70144 0.0
C2874 C 0.76161 0.80724 0.65152 0.0
H2875 H 0.7674 0.87252 0.58762 0.0
H2876 H 0.76172 0.86285 0.61817 0.0
H2877 H 0.75946 0.80319 0.62175 0.0
H2878 H 0.74454 0.77784 0.70868 0.0
H2879 H 0.74245 0.79013 0.67899 0.0
H2880 H 0.77456 0.84879 0.67869 0.0
C2881 C 0.76768 0.85455 0.6087 0.0
C2882 C 0.76287 0.81334 0.63405 0.0
C2883 C 0.77086 0.86006 0.59114 0.0
C2884 C 0.75449 0.7902 0.70694 0.0
C2885 C 0.75338 0.79721 0.68983 0.0
C2886 C 0.77128 0.83866 0.66638 0.0
C2887 C 0.77187 0.83834 0.61382 0.0
C2888 C 0.76875 0.83216 0.63244 0.0
C2889 C 0.76626 0.81304 0.68672 0.0
C2890 C 0.76609 0.81977 0.66801 0.0
H2891 H 0.78857 0.82494 0.57432 0.0
H2892 H 0.78333 0.8157 0.60449 0.0
H2893 H 0.77721 0.85935 0.64824 0.0
H2894 H 0.792 0.82205 0.72931 0.0
H2895 H 0.79028 0.83395 0.69962 0.0
C2896 C 0.72139 0.42951 0.5238 0.0
C2897 C 0.73818 0.43813 0.51837 0.0
C2898 C 0.71092 0.4399 0.53265 0.0
C2899 C 0.71202 0.48667 0.55574 0.0
H2900 H 0.65991 0.47103 0.53938 0.0
C2901 C 0.65997 0.5321 0.55927 0.0
C2902 C 0.64256 0.52373 0.56361 0.0
C2903 C 0.67332 0.52214 0.55819 0.0
C2904 C 0.6744 0.47542 0.54433 0.0
H2905 H 0.75747 0.46425 0.51822 0.0
H2906 H 0.73882 0.48253 0.53297 0.0
H2907 H 0.6798 0.45248 0.52824 0.0
H2908 H 0.62609 0.49919 0.5722 0.0
H2909 H 0.64933 0.48176 0.57008 0.0
H2910 H 0.70642 0.51022 0.57107 0.0
C2911 C 0.73392 0.46773 0.53088 0.0
C2912 C 0.68583 0.46476 0.53799 0.0
C2913 C 0.74454 0.45728 0.52229 0.0
C2914 C 0.63928 0.50583 0.56843 0.0
C2915 C 0.65254 0.49588 0.56727 0.0
C2916 C 0.70055 0.49751 0.5619 0.0
C2917 C 0.71686 0.45916 0.53594 0.0
C2918 C 0.70479 0.47025 0.54355 0.0
C2919 C 0.66939 0.5037 0.56141 0.0
C2920 C 0.68165 0.49194 0.55621 0.0
H2921 H 0.71631 0.41472 0.52119 0.0
H2922 H 0.69807 0.4328 0.53676 0.0
H2923 H 0.72654 0.49119 0.56047 0.0
H2924 H 0.66284 0.54585 0.55543 0.0
H2925 H 0.6862 0.52842 0.55357 0.0
C2926 C 0.21772 0.13642 0.49788 0.0
C2927 C 0.21768 0.1546 0.49517 0.0
C2928 C 0.20129 0.12327 0.49796 0.0
C2929 C 0.15417 0.12016 0.50769 0.0
H2930 H 0.14359 0.07017 0.48283 0.0
C2931 C 0.08285 0.07305 0.50416 0.0
C2932 C 0.08114 0.05463 0.50688 0.0
C2933 C 0.09959 0.08407 0.50131 0.0
C2934 C 0.14642 0.08401 0.49004 0.0
H2935 H 0.20013 0.17294 0.48984 0.0
H2936 H 0.1716 0.15008 0.49007 0.0
H2937 H 0.17273 0.09165 0.48041 0.0
H2938 H 0.09549 0.03304 0.50796 0.0
H2939 H 0.12516 0.05254 0.50341 0.0
H2940 H 0.12827 0.11269 0.51769 0.0
C2941 C 0.18437 0.14604 0.49227 0.0
C2942 C 0.1631 0.09633 0.4886 0.0
C2943 C 0.20076 0.15913 0.49203 0.0
C2944 C 0.09643 0.04721 0.50589 0.0
C2945 C 0.1134 0.05839 0.50327 0.0
C2946 C 0.13767 0.10789 0.50925 0.0
C2947 C 0.18445 0.12803 0.49552 0.0
C2948 C 0.16703 0.11462 0.49722 0.0
C2949 C 0.11525 0.07711 0.50139 0.0
C2950 C 0.13339 0.08972 0.50023 0.0
H2951 H 0.23047 0.13238 0.50029 0.0
H2952 H 0.20182 0.10954 0.50059 0.0
H2953 H 0.15696 0.13402 0.51488 0.0
H2954 H 0.07122 0.0791 0.50447 0.0
H2955 H 0.10027 0.0982 0.49929 0.0
C2956 C 0.17057 0.99401 0.7655 0.0
C2957 C 0.15264 0.98992 0.77022 0.0
C2958 C 0.17984 0.98018 0.76249 0.0
C2959 C 0.18013 0.93327 0.77322 0.0
H2960 H 0.21386 0.93549 0.73622 0.0
C2961 C 0.21893 0.87647 0.75727 0.0
C2962 C 0.23748 0.88238 0.75475 0.0
C2963 C 0.20783 0.88892 0.75855 0.0
C2964 C 0.20462 0.93474 0.74674 0.0
H2965 H 0.13026 0.96791 0.77508 0.0
H2966 H 0.14634 0.94365 0.76952 0.0
H2967 H 0.19554 0.95798 0.73888 0.0
H2968 H 0.25886 0.90633 0.75206 0.0
H2969 H 0.23952 0.92789 0.75406 0.0
H2970 H 0.18927 0.90999 0.78104 0.0
C2971 C 0.15335 0.95765 0.76842 0.0
C2972 C 0.19408 0.94767 0.74827 0.0
C2973 C 0.14406 0.97154 0.77145 0.0
C2974 C 0.24458 0.90113 0.75359 0.0
C2975 C 0.23347 0.91354 0.75478 0.0
C2976 C 0.19063 0.92028 0.77162 0.0
C2977 C 0.17146 0.96181 0.76407 0.0
C2978 C 0.18183 0.94727 0.76168 0.0
C2979 C 0.21494 0.90763 0.75725 0.0
C2980 C 0.20317 0.92097 0.75849 0.0
H2981 H 0.17766 0.00802 0.76452 0.0
H2982 H 0.19383 0.98403 0.75945 0.0
H2983 H 0.17105 0.93264 0.78388 0.0
H2984 H 0.21285 0.86213 0.75796 0.0
H2985 H 0.19357 0.88383 0.76024 0.0
C2986 C 0.33373 0.9072 0.98355 0.0
C2987 C 0.31957 0.91634 0.98369 0.0
C2988 C 0.35197 0.91724 0.98574 0.0
C2989 C 0.38179 0.96183 0.98127 0.0
H2990 H 0.41407 0.95146 0.02122 0.0
C2991 C 0.45326 0.00956 0.00596 0.0
C2992 C 0.4675 0.00125 0.01079 0.0
C2993 C 0.43514 -0.00082 0.00267 0.0
C2994 C 0.40536 0.95438 0.00982 0.0
H2995 H 0.3133 0.94302 0.98529 0.0
H2996 H 0.3451 0.96045 0.98872 0.0
H2997 H 0.38285 0.93264 0.01383 0.0
H2998 H 0.4739 0.97555 0.01612 0.0
H2999 H 0.44253 0.95743 0.00984 0.0
H3000 H 0.40428 0.98333 0.97694 0.0
C3001 C 0.34211 0.94559 0.98711 0.0
C3002 C 0.38748 0.94359 0.00562 0.0
C3003 C 0.32394 0.93561 0.98525 0.0
C3004 C 0.46324 0.98242 0.01251 0.0
C3005 C 0.44519 0.97202 0.00901 0.0
C3006 C 0.39976 0.97248 0.98529 0.0
C3007 C 0.35629 0.93652 0.98773 0.0
C3008 C 0.37552 0.94728 0.99138 0.0
C3009 C 0.43091 0.98023 0.00393 0.0
C3010 C 0.41175 0.96895 -0.00031 0.0
H3011 H 0.33076 0.89237 0.98244 0.0
H3012 H 0.36272 0.90996 0.98607 0.0
H3013 H 0.37283 0.96487 0.97015 0.0
H3014 H 0.45609 0.02407 0.00466 0.0
H3015 H 0.42445 0.00604 -0.00084 0.0
C3016 C 0.87736 0.58158 0.76297 0.0
C3017 C 0.87033 0.5644 0.76865 0.0
C3018 C 0.86556 0.59126 0.75517 0.0
C3019 C 0.81896 0.59639 0.75568 0.0
H3020 H 0.82984 0.62436 0.71466 0.0
C3021 C 0.77441 0.64405 0.73335 0.0
C3022 C 0.7843 0.66178 0.73131 0.0
C3023 C 0.78318 0.62974 0.73392 0.0
C3024 C 0.82664 0.61664 0.72614 0.0
H3025 H 0.84553 0.54363 0.77011 0.0
H3026 H 0.82496 0.56059 0.75653 0.0
H3027 H 0.84893 0.60392 0.7236 0.0
H3028 H 0.81073 0.67809 0.72681 0.0
H3029 H 0.82614 0.65336 0.72837 0.0
H3030 H 0.79721 0.60959 0.75883 0.0
C3031 C 0.83956 0.56661 0.75824 0.0
C3032 C 0.83756 0.60496 0.73125 0.0
C3033 C 0.85134 0.5569 0.76597 0.0
C3034 C 0.80283 0.66464 0.72873 0.0
C3035 C 0.81161 0.65038 0.72937 0.0
C3036 C 0.80812 0.60814 0.75066 0.0
C3037 C 0.84654 0.58398 0.75296 0.0
C3038 C 0.83401 0.59498 0.74628 0.0
C3039 C 0.80201 0.63289 0.7325 0.0
C3040 C 0.81204 0.61867 0.73607 0.0
H3041 H 0.89194 0.58769 0.76483 0.0
H3042 H 0.87131 0.60472 0.75142 0.0
H3043 H 0.81604 0.58905 0.76748 0.0
H3044 H 0.76012 0.64143 0.73541 0.0
H3045 H 0.77535 0.61634 0.73605 0.0
C3046 C 0.834 0.66395 0.0222 0.0
C3047 C 0.81561 0.65527 0.02305 0.0
C3048 C 0.84775 0.65452 0.025 0.0
C3049 C 0.85709 0.61283 0.04353 0.0
H3050 H 0.89557 0.61909 0.01158 0.0
C3051 C 0.90379 0.56251 0.03626 0.0
C3052 C 0.92257 0.56993 0.0358 0.0
C3053 C 0.89138 0.57363 0.0355 0.0
C3054 C 0.88504 0.61733 0.02077 0.0
H3055 H 0.79732 0.62995 0.02784 0.0
H3056 H 0.82108 0.61352 0.03245 0.0
H3057 H 0.87301 0.63738 0.00927 0.0
H3058 H 0.94289 0.59511 0.03436 0.0
H3059 H 0.92118 0.61439 0.03277 0.0
H3060 H 0.86894 0.59251 0.05475 0.0
C3061 C 0.82504 0.62769 0.02992 0.0
C3062 C 0.8721 0.62787 0.01948 0.0
C3063 C 0.81135 0.63711 0.02717 0.0
C3064 C 0.92853 0.5888 0.03446 0.0
C3065 C 0.91608 0.5999 0.03358 0.0
C3066 C 0.86995 0.60223 0.04473 0.0
C3067 C 0.84343 0.63617 0.0287 0.0
C3068 C 0.85784 0.62566 0.03075 0.0
C3069 C 0.89734 0.59247 0.03416 0.0
C3070 C 0.88402 0.60423 0.03327 0.0
H3071 H 0.83775 0.67793 0.01905 0.0
H3072 H 0.86176 0.66162 0.02423 0.0
H3073 H 0.84656 0.61096 0.05271 0.0
H3074 H 0.89857 0.54801 0.03689 0.0
H3075 H 0.87701 0.56737 0.03565 0.0
C3076 C 0.14882 0.10585 0.80137 0.0
C3077 C 0.15322 0.08883 0.7978 0.0
C3078 C 0.1619 0.12228 0.80117 0.0
C3079 C 0.21149 0.14338 0.80413 0.0
H3080 H 0.19506 0.17902 0.77663 0.0
C3081 C 0.26034 0.21057 0.78728 0.0
C3082 C 0.25303 0.22603 0.78706 0.0
C3083 C 0.24921 0.19349 0.78978 0.0
C3084 C 0.19988 0.16939 0.78462 0.0
H3085 H 0.1752 0.0759 0.79194 0.0
H3086 H 0.19801 0.10463 0.7917 0.0
H3087 H 0.17375 0.1502 0.77917 0.0
H3088 H 0.22887 0.23609 0.7907 0.0
H3089 H 0.20988 0.20684 0.79563 0.0
H3090 H 0.23766 0.16279 0.8097 0.0
C3091 C 0.1844 0.1052 0.79463 0.0
C3092 C 0.18762 0.15281 0.78604 0.0
C3093 C 0.17126 0.08873 0.79469 0.0
C3094 C 0.23481 0.22435 0.79042 0.0
C3095 C 0.22386 0.2075 0.79312 0.0
C3096 C 0.2238 0.16013 0.80283 0.0
C3097 C 0.17977 0.12216 0.79753 0.0
C3098 C 0.19318 0.13965 0.79595 0.0
C3099 C 0.23067 0.19168 0.79227 0.0
C3100 C 0.21807 0.17345 0.79323 0.0
H3101 H 0.13513 0.10652 0.80388 0.0
H3102 H 0.15796 0.13512 0.80373 0.0
H3103 H 0.21619 0.13353 0.81189 0.0
H3104 H 0.27433 0.21148 0.7847 0.0
H3105 H 0.25494 0.18162 0.78903 0.0
C3106 C 0.36489 0.98194 0.30493 0.0
C3107 C 0.38326 0.9843 0.31238 0.0
C3108 C 0.35249 0.9649 0.30365 0.0
C3109 C 0.33844 0.9249 0.28674 0.0
H3110 H 0.33089 0.8922 0.32448 0.0
C3111 C 0.31177 0.84608 0.27068 0.0
C3112 C 0.29741 0.8381 0.28034 0.0
C3113 C 0.32062 0.86466 0.27523 0.0
C3114 C 0.33282 0.90127 0.31387 0.0
H3115 H 0.40247 0.9711 0.32611 0.0
H3116 H 0.3806 0.94136 0.32409 0.0
H3117 H 0.34907 0.92394 0.33325 0.0
H3118 H 0.28096 0.8433 0.3022 0.0
H3119 H 0.29673 0.87569 0.31032 0.0
H3120 H 0.32278 0.90211 0.26725 0.0
C3121 C 0.37596 0.9527 0.31905 0.0
C3122 C 0.34322 0.91932 0.31886 0.0
C3123 C 0.38847 0.96972 0.32016 0.0
C3124 C 0.29192 0.84909 0.29444 0.0
C3125 C 0.30099 0.86757 0.29919 0.0
C3126 C 0.32834 0.90679 0.2817 0.0
C3127 C 0.35811 0.94998 0.31004 0.0
C3128 C 0.34614 0.93126 0.30531 0.0
C3129 C 0.31548 0.87546 0.28971 0.0
C3130 C 0.32553 0.89481 0.2952 0.0
H3131 H 0.3603 0.99289 0.29898 0.0
H3132 H 0.3387 0.96317 0.29689 0.0
H3133 H 0.34071 0.93378 0.27599 0.0
H3134 H 0.31626 0.83793 0.25974 0.0
H3135 H 0.33182 0.87048 0.26777 0.0
C3136 C 0.55978 0.36057 0.60541 0.0
C3137 C 0.55704 0.34377 0.59373 0.0
C3138 C 0.55833 0.37685 0.59811 0.0
C3139 C 0.5374 0.39428 0.55703 0.0
H3140 H 0.57171 0.44049 0.57655 0.0
C3141 C 0.53327 0.46225 0.52571 0.0
C3142 C 0.53991 0.47937 0.53697 0.0
C3143 C 0.53574 0.44579 0.53205 0.0
C3144 C 0.56168 0.42789 0.57103 0.0
H3145 H 0.55051 0.33133 0.56491 0.0
H3146 H 0.54769 0.35954 0.55222 0.0
H3147 H 0.57506 0.41245 0.58857 0.0
H3148 H 0.55429 0.49209 0.56408 0.0
H3149 H 0.55793 0.46385 0.57529 0.0
H3150 H 0.52361 0.40963 0.53992 0.0
C3151 C 0.55107 0.36015 0.56713 0.0
C3152 C 0.56372 0.4116 0.57796 0.0
C3153 C 0.55284 0.34391 0.57442 0.0
C3154 C 0.54905 0.47934 0.55481 0.0
C3155 C 0.55129 0.46291 0.56125 0.0
C3156 C 0.53515 0.41062 0.55029 0.0
C3157 C 0.55375 0.37697 0.57883 0.0
C3158 C 0.55164 0.39444 0.57112 0.0
C3159 C 0.54475 0.44567 0.55004 0.0
C3160 C 0.54723 0.42789 0.55713 0.0
H3161 H 0.56295 0.36114 0.62034 0.0
H3162 H 0.56037 0.38933 0.60771 0.0
H3163 H 0.52761 0.3815 0.55147 0.0
H3164 H 0.52622 0.46154 0.51187 0.0
H3165 H 0.53068 0.43316 0.5226 0.0
C3166 C 0.44582 0.762 0.39166 0.0
C3167 C 0.44667 0.76742 0.41094 0.0
C3168 C 0.43039 0.76222 0.37924 0.0
C3169 C 0.38113 0.7646 0.37808 0.0
H3170 H 0.38717 0.77842 0.32884 0.0
C3171 C 0.32185 0.78065 0.33042 0.0
C3172 C 0.31997 0.77468 0.31115 0.0
C3173 C 0.33711 0.77927 0.34236 0.0
C3174 C 0.38515 0.77434 0.34247 0.0
H3175 H 0.43163 0.77744 0.43201 0.0
H3176 H 0.40526 0.77809 0.41062 0.0
H3177 H 0.41381 0.77667 0.34963 0.0
H3178 H 0.333 0.76255 0.28952 0.0
H3179 H 0.3594 0.76016 0.31021 0.0
H3180 H 0.3525 0.76248 0.37099 0.0
C3181 C 0.41626 0.77327 0.40498 0.0
C3182 C 0.40051 0.77328 0.35445 0.0
C3183 C 0.43158 0.773 0.41734 0.0
C3184 C 0.33385 0.7673 0.30423 0.0
C3185 C 0.34915 0.76604 0.31614 0.0
C3186 C 0.3658 0.76574 0.36615 0.0
C3187 C 0.41533 0.7679 0.38569 0.0
C3188 C 0.39881 0.76847 0.37253 0.0
C3189 C 0.35108 0.77201 0.33541 0.0
C3190 C 0.36753 0.77068 0.34815 0.0
H3191 H 0.4571 0.75764 0.38612 0.0
H3192 H 0.43024 0.75777 0.36457 0.0
H3193 H 0.37901 0.76045 0.39167 0.0
H3194 H 0.31153 0.78644 0.33633 0.0
H3195 H 0.3381 0.78422 0.35704 0.0
C3196 C 0.05172 0.73574 0.06575 0.0
C3197 C 0.05064 0.74338 0.08403 0.0
C3198 C 0.0495 0.71675 0.06102 0.0
C3199 C 0.0342 0.6707 0.07846 0.0
H3200 H 0.05963 0.65486 0.03854 0.0
C3201 C 0.02219 0.59289 0.05017 0.0
C3202 C 0.03617 0.58644 0.04228 0.0
C3203 C 0.02398 0.61177 0.05547 0.0
C3204 C 0.05255 0.65884 0.04991 0.0
H3205 H 0.04613 0.7365 0.11163 0.0
H3206 H 0.04281 0.70352 0.10363 0.0
H3207 H 0.0629 0.6873 0.04771 0.0
H3208 H 0.06322 0.59524 0.0341 0.0
H3209 H 0.06672 0.62788 0.04392 0.0
H3210 H 0.02458 0.64223 0.08125 0.0
C3211 C 0.04497 0.71216 0.0927 0.0
C3212 C 0.05417 0.67772 0.05501 0.0
C3213 C 0.04694 0.73123 0.09738 0.0
C3214 C 0.05209 0.59957 0.04002 0.0
C3215 C 0.05401 0.61846 0.04557 0.0
C3216 C 0.03276 0.65181 0.0735 0.0
C3217 C 0.04641 0.70452 0.07442 0.0
C3218 C 0.04491 0.68411 0.0693 0.0
C3219 C 0.03996 0.62502 0.05335 0.0
C3220 C 0.04181 0.64542 0.05902 0.0
H3221 H 0.05436 0.7445 0.05495 0.0
H3222 H 0.05019 0.71173 0.04667 0.0
H3223 H 0.02664 0.67471 0.0894 0.0
H3224 H 0.00959 0.58334 0.05198 0.0
H3225 H 0.01257 0.61591 0.06094 0.0
C3226 C 0.04427 0.25966 0.88497 0.0
C3227 C 0.04684 0.26674 0.90398 0.0
C3228 C 0.05918 0.26073 0.87475 0.0
C3229 C 0.11003 0.26841 0.87957 0.0
H3230 H 0.1041 0.28027 0.82912 0.0
C3231 C 0.17142 0.28603 0.83656 0.0
C3232 C 0.16836 0.2801 0.81723 0.0
C3233 C 0.15683 0.28405 0.84734 0.0
C3234 C 0.106 0.2767 0.84309 0.0
H3235 H 0.06734 0.28028 0.92719 0.0
H3236 H 0.09334 0.28221 0.90941 0.0
H3237 H 0.07856 0.27726 0.8474 0.0
H3238 H 0.14733 0.26688 0.79434 0.0
H3239 H 0.12205 0.26335 0.81303 0.0
H3240 H 0.1375 0.26786 0.87522 0.0
C3241 C 0.07977 0.27566 0.90238 0.0
C3242 C 0.09127 0.27497 0.85362 0.0
C3243 C 0.06482 0.2746 0.9126 0.0
C3244 C 0.15026 0.27194 0.80909 0.0
C3245 C 0.1357 0.26992 0.81986 0.0
C3246 C 0.12477 0.27011 0.869 0.0
C3247 C 0.07717 0.26893 0.88323 0.0
C3248 C 0.09302 0.27075 0.87203 0.0
C3249 C 0.1387 0.27605 0.83915 0.0
C3250 C 0.12299 0.27425 0.85056 0.0
H3251 H 0.03065 0.25347 0.87784 0.0
H3252 H 0.05658 0.25509 0.86015 0.0
H3253 H 0.1119 0.26493 0.89358 0.0
H3254 H 0.18508 0.29261 0.84334 0.0
H3255 H 0.15976 0.28919 0.86206 0.0
C3256 C 0.54954 0.76245 0.91389 0.0
C3257 C 0.54226 0.76193 0.89526 0.0
C3258 C 0.5486 0.74634 0.92195 0.0
C3259 C 0.53981 0.6956 0.91374 0.0
H3260 H 0.52441 0.6998 0.96301 0.0
C3261 C 0.52126 0.63336 0.95628 0.0
C3262 C 0.52638 0.63692 0.97573 0.0
C3263 C 0.52346 0.64775 0.94524 0.0
C3264 C 0.52895 0.69836 0.94939 0.0
H3265 H 0.52911 0.74388 0.87012 0.0
H3266 H 0.5274 0.71536 0.88431 0.0
H3267 H 0.52828 0.72589 0.9457 0.0
H3268 H 0.53871 0.65851 -0.00148 0.0
H3269 H 0.54258 0.68337 0.97946 0.0
H3270 H 0.54051 0.66793 0.91762 0.0
C3271 C 0.53395 0.72841 0.89264 0.0
C3272 C 0.53116 0.71339 0.93939 0.0
C3273 C 0.535 0.74471 0.88446 0.0
C3274 C 0.53417 0.65521 0.9837 0.0
C3275 C 0.5364 0.66953 0.97271 0.0
C3276 C 0.53764 0.68046 0.92383 0.0
C3277 C 0.54015 0.72911 0.91171 0.0
C3278 C 0.53691 0.71239 0.92156 0.0
C3279 C 0.53085 0.6661 0.95334 0.0
C3280 C 0.53245 0.68174 0.94195 0.0
H3281 H 0.55537 0.77549 0.92255 0.0
H3282 H 0.55401 0.74746 0.93648 0.0
H3283 H 0.54425 0.69432 0.90005 0.0
H3284 H 0.51511 0.61949 0.94962 0.0
H3285 H 0.5189 0.64453 0.93042 0.0
C3286 C 0.08708 0.77821 0.69255 0.0
C3287 C 0.07153 0.76526 0.69608 0.0
C3288 C 0.10464 0.77881 0.70112 0.0
C3289 C 0.13228 0.75027 0.72401 0.0
H3290 H 0.16863 0.79672 0.73455 0.0
C3291 C 0.20885 0.75687 0.75514 0.0
C3292 C 0.22254 0.76965 0.74831 0.0
C3293 C 0.1901 0.75585 0.75019 0.0
C3294 C 0.15878 0.78355 0.73153 0.0
H3295 H 0.06259 0.7429 0.71198 0.0
H3296 H 0.09341 0.74403 0.72725 0.0
H3297 H 0.13694 0.79623 0.72466 0.0
H3298 H 0.22675 0.79131 0.73065 0.0
H3299 H 0.19452 0.7895 0.72209 0.0
H3300 H 0.15434 0.73764 0.73091 0.0
C3301 C 0.09191 0.75373 0.71763 0.0
C3302 C 0.14043 0.78326 0.72582 0.0
C3303 C 0.07413 0.75324 0.70908 0.0
C3304 C 0.21679 0.78125 0.73628 0.0
C3305 C 0.19815 0.78032 0.73146 0.0
C3306 C 0.15071 0.75056 0.72981 0.0
C3307 C 0.10753 0.76642 0.71359 0.0
C3308 C 0.12684 0.76661 0.72159 0.0
C3309 C 0.1844 0.76771 0.73839 0.0
C3310 C 0.16438 0.76721 0.73333 0.0
H3311 H 0.08576 0.78766 0.68258 0.0
H3312 H 0.11609 0.78863 0.69728 0.0
H3313 H 0.12241 0.73712 0.7208 0.0
H3314 H 0.21261 0.74771 0.76446 0.0
H3315 H 0.18006 0.74601 0.75596 0.0
C3316 C 0.05012 0.3577 0.40867 0.0
C3317 C 0.04979 0.35608 0.38918 0.0
C3318 C 0.04856 0.37388 0.41893 0.0
C3319 C 0.05095 0.42382 0.41662 0.0
H3320 H 0.02726 0.41905 0.46141 0.0
C3321 C 0.03261 0.48493 0.4613 0.0
C3322 C 0.03643 0.4861 0.48081 0.0
C3323 C 0.03455 0.46971 0.44947 0.0
C3324 C 0.03405 0.42068 0.44904 0.0
H3325 H 0.04761 0.37051 0.36521 0.0
H3326 H 0.04429 0.39878 0.38307 0.0
H3327 H 0.02925 0.39168 0.44178 0.0
H3328 H 0.04546 0.47201 0.50304 0.0
H3329 H 0.04854 0.44543 0.4825 0.0
H3330 H 0.0552 0.453 0.42386 0.0
C3331 C 0.04614 0.38754 0.39052 0.0
C3332 C 0.0353 0.40491 0.43772 0.0
C3333 C 0.04796 0.37128 0.3802 0.0
C3334 C 0.04241 0.47167 0.48812 0.0
C3335 C 0.04407 0.45633 0.47632 0.0
C3336 C 0.04946 0.43965 0.42786 0.0
C3337 C 0.04628 0.38906 0.41009 0.0
C3338 C 0.04405 0.40614 0.42146 0.0
C3339 C 0.04007 0.45506 0.45683 0.0
C3340 C 0.04122 0.4383 0.44438 0.0
H3341 H 0.05175 0.34641 0.41616 0.0
H3342 H 0.04934 0.37446 0.43393 0.0
H3343 H 0.05794 0.42552 0.40439 0.0
H3344 H 0.02802 0.49578 0.45513 0.0
H3345 H 0.03126 0.46918 0.43456 0.0
C3346 C 0.45222 0.25531 0.18758 0.0
C3347 C 0.46715 0.25202 0.19866 0.0
C3348 C 0.43599 0.25669 0.19494 0.0
C3349 C 0.41623 0.2637 0.24035 0.0
H3350 H 0.37042 0.24963 0.20764 0.0
C3351 C 0.34862 0.27962 0.26388 0.0
C3352 C 0.33158 0.26788 0.25619 0.0
C3353 C 0.36511 0.27728 0.25751 0.0
C3354 C 0.38295 0.25348 0.2172 0.0
H3355 H 0.47624 0.24747 0.22653 0.0
H3356 H 0.44786 0.24941 0.23932 0.0
H3357 H 0.39823 0.24552 0.19584 0.0
H3358 H 0.319 0.24401 0.23593 0.0
H3359 H 0.34734 0.23965 0.22533 0.0
H3360 H 0.40075 0.27116 0.26187 0.0
C3361 C 0.44877 0.25126 0.22486 0.0
C3362 C 0.39919 0.25137 0.21024 0.0
C3363 C 0.46512 0.24994 0.21745 0.0
C3364 C 0.3317 0.25352 0.24217 0.0
C3365 C 0.34814 0.25109 0.23592 0.0
C3366 C 0.39993 0.26574 0.24735 0.0
C3367 C 0.43385 0.25475 0.21377 0.0
C3368 C 0.41626 0.25653 0.2216 0.0
C3369 C 0.36524 0.26303 0.24327 0.0
C3370 C 0.38289 0.26072 0.23591 0.0
H3371 H 0.45315 0.2572 0.17311 0.0
H3372 H 0.42525 0.25975 0.18582 0.0
H3373 H 0.4289 0.26807 0.24969 0.0
H3374 H 0.34924 0.2909 0.27462 0.0
H3375 H 0.37773 0.287 0.26354 0.0
C3376 C 0.62673 0.53014 0.34794 0.0
C3377 C 0.61506 0.52942 0.33146 0.0
C3378 C 0.62001 0.53 0.36526 0.0
C3379 C 0.58024 0.5374 0.38909 0.0
H3380 H 0.59854 0.51019 0.42579 0.0
C3381 C 0.5442 0.52196 0.45403 0.0
C3382 C 0.55506 0.52393 0.47132 0.0
C3383 C 0.55207 0.52262 0.4374 0.0
C3384 C 0.59341 0.51802 0.41579 0.0
H3385 H 0.58713 0.52809 0.32037 0.0
H3386 H 0.57535 0.52755 0.35039 0.0
H3387 H 0.61108 0.51164 0.39613 0.0
H3388 H 0.58285 0.52775 0.48445 0.0
H3389 H 0.59662 0.52881 0.45532 0.0
H3390 H 0.56242 0.54357 0.40863 0.0
C3391 C 0.5898 0.52853 0.35007 0.0
C3392 C 0.60063 0.51889 0.39873 0.0
C3393 C 0.59654 0.52875 0.33277 0.0
C3394 C 0.57404 0.52613 0.47143 0.0
C3395 C 0.58193 0.52671 0.4547 0.0
C3396 C 0.57297 0.53644 0.40606 0.0
C3397 C 0.60141 0.52908 0.3666 0.0
C3398 C 0.59408 0.52851 0.38505 0.0
C3399 C 0.57107 0.52522 0.43747 0.0
C3400 C 0.57935 0.52664 0.41962 0.0
H3401 H 0.64109 0.53072 0.34746 0.0
H3402 H 0.62948 0.53074 0.37762 0.0
H3403 H 0.57507 0.54528 0.37917 0.0
H3404 H 0.52954 0.52017 0.45328 0.0
H3405 H 0.54321 0.52107 0.42443 0.0
C3406 C 0.26406 0.85703 0.03939 0.0
C3407 C 0.26491 0.87555 0.03764 0.0
C3408 C 0.26516 0.85121 0.05687 0.0
C3409 C 0.28367 0.86822 0.10539 0.0
H3410 H 0.25949 0.81846 0.11188 0.0
C3411 C 0.29405 0.83189 0.17153 0.0
C3412 C 0.29959 0.81553 0.16729 0.0
C3413 C 0.28834 0.84111 0.15729 0.0
C3414 C 0.26621 0.83242 0.11026 0.0
H3415 H 0.26678 0.90234 0.05292 0.0
H3416 H 0.26853 0.89201 0.08367 0.0
H3417 H 0.24996 0.83135 0.0843 0.0
H3418 H 0.30432 0.79659 0.14477 0.0
H3419 H 0.29371 0.81239 0.11996 0.0
H3420 H 0.29999 0.86905 0.13145 0.0
C3421 C 0.26727 0.88211 0.0714 0.0
C3422 C 0.26083 0.83979 0.09452 0.0
C3423 C 0.26621 0.888 0.0538 0.0
C3424 C 0.29979 0.80892 0.14852 0.0
C3425 C 0.29378 0.81795 0.13433 0.0
C3426 C 0.28885 0.8609 0.12133 0.0
C3427 C 0.26699 0.86369 0.07309 0.0
C3428 C 0.27003 0.85748 0.09152 0.0
C3429 C 0.28779 0.83394 0.13863 0.0
C3430 C 0.2806 0.84273 0.12347 0.0
H3431 H 0.26303 0.84702 0.02729 0.0
H3432 H 0.26527 0.837 0.05764 0.0
H3433 H 0.29109 0.88183 0.10344 0.0
H3434 H 0.29342 0.83723 0.1858 0.0
H3435 H 0.28374 0.85344 0.16082 0.0
C3436 C 0.95026 0.55663 0.83613 0.0
C3437 C 0.93173 0.5567 0.83597 0.0
C3438 C 0.96139 0.55822 0.85293 0.0
C3439 C 0.96557 0.57149 0.90361 0.0
H3440 H 0.9923 0.53361 0.90581 0.0
C3441 C 0.9922 0.55053 0.97257 0.0
C3442 C 0.00866 0.54492 0.9739 0.0
C3443 C 0.98484 0.55467 0.95573 0.0
C3444 C 0.98526 0.54452 0.90537 0.0
H3445 H 0.91051 0.55947 0.85323 0.0
H3446 H 0.93004 0.56225 0.88276 0.0
H3447 H 0.97557 0.53639 0.87643 0.0
H3448 H 0.03067 0.53994 0.95871 0.0
H3449 H 0.0179 0.54746 0.92924 0.0
H3450 H 0.97512 0.5795 0.93265 0.0
C3451 C 0.93593 0.561 0.86983 0.0
C3452 C 0.97562 0.54608 0.88854 0.0
C3453 C 0.92474 0.55934 0.85296 0.0
C3454 C 0.0179 0.54408 0.95811 0.0
C3455 C 0.01054 0.54832 0.94122 0.0
C3456 C 0.97533 0.57002 0.92046 0.0
C3457 C 0.95423 0.55999 0.86992 0.0
C3458 C 0.96547 0.5594 0.88755 0.0
C3459 C 0.9938 0.55342 0.9398 0.0
C3460 C 0.98503 0.55631 0.92159 0.0
H3461 H 0.9561 0.55482 0.82325 0.0
H3462 H 0.97552 0.55769 0.85262 0.0
H3463 H 0.95802 0.58201 0.90316 0.0
H3464 H 0.98469 0.55133 0.98445 0.0
H3465 H 0.97178 0.55825 0.95507 0.0
C3466 C 0.27825 0.19947 0.57292 0.0
C3467 C 0.272 0.20917 0.55919 0.0
C3468 C 0.27841 0.20536 0.59197 0.0
C3469 C 0.27611 0.24622 0.62487 0.0
H3470 H 0.26254 0.21034 0.65858 0.0
C3471 C 0.26413 0.26713 0.70127 0.0
C3472 C 0.27168 0.25825 0.71496 0.0
C3473 C 0.26358 0.26099 0.68221 0.0
C3474 C 0.26649 0.22057 0.64939 0.0
H3475 H 0.26106 0.23284 0.55509 0.0
H3476 H 0.2611 0.24274 0.58782 0.0
H3477 H 0.26368 0.20003 0.62587 0.0
H3478 H 0.28418 0.23561 0.71915 0.0
H3479 H 0.2832 0.2251 0.68632 0.0
H3480 H 0.27883 0.26675 0.6484 0.0
C3481 C 0.2662 0.23078 0.58403 0.0
C3482 C 0.26722 0.21463 0.6306 0.0
C3483 C 0.26608 0.22497 0.56511 0.0
C3484 C 0.27827 0.24288 0.70909 0.0
C3485 C 0.2776 0.23671 0.69016 0.0
C3486 C 0.27531 0.25215 0.64364 0.0
C3487 C 0.27232 0.22109 0.5978 0.0
C3488 C 0.27204 0.22737 0.61803 0.0
C3489 C 0.27041 0.24574 0.67641 0.0
C3490 C 0.27052 0.23942 0.6562 0.0
H3491 H 0.28292 0.18727 0.56896 0.0
H3492 H 0.28342 0.19762 0.60214 0.0
H3493 H 0.28019 0.25649 0.61577 0.0
H3494 H 0.25897 0.27901 0.70524 0.0
H3495 H 0.25777 0.26819 0.67201 0.0
C3496 C 0.5814 0.52311 0.22385 0.0
C3497 C 0.59999 0.52945 0.2311 0.0
C3498 C 0.57574 0.5226 0.20484 0.0
C3499 C 0.58406 0.54632 0.16572 0.0
H3500 H 0.55995 0.50099 0.13396 0.0
C3501 C 0.55996 0.54576 0.08701 0.0
C3502 C 0.54519 0.53161 0.07812 0.0
C3503 C 0.56727 0.54555 0.10548 0.0
C3504 C 0.56628 0.51389 0.1426 0.0
H3505 H 0.62719 0.54023 0.22404 0.0
H3506 H 0.61712 0.53997 0.19076 0.0
H3507 H 0.57146 0.50014 0.16623 0.0
H3508 H 0.526 0.50653 0.08191 0.0
H3509 H 0.53772 0.50673 0.11422 0.0
H3510 H 0.57807 0.56032 0.14273 0.0
C3511 C 0.60706 0.53507 0.19985 0.0
C3512 C 0.5731 0.51331 0.1611 0.0
C3513 C 0.61282 0.53509 0.21883 0.0
C3514 C 0.53749 0.51759 0.08831 0.0
C3515 C 0.54445 0.51761 0.10688 0.0
C3516 C 0.57683 0.54699 0.14735 0.0
C3517 C 0.58845 0.5289 0.19272 0.0
C3518 C 0.58206 0.5295 0.17283 0.0
C3519 C 0.55973 0.53138 0.11575 0.0
C3520 C 0.56774 0.53077 0.13543 0.0
H3521 H 0.57119 0.51872 0.23295 0.0
H3522 H 0.56132 0.51782 0.19969 0.0
H3523 H 0.59074 0.55904 0.17458 0.0
H3524 H 0.56635 0.55664 0.07945 0.0
H3525 H 0.57917 0.5563 0.11145 0.0
C3526 C 0.26517 0.90184 0.93318 0.0
C3527 C 0.25307 0.89361 0.945 0.0
C3528 C 0.26696 0.89186 0.9164 0.0
C3529 C 0.261 0.84373 0.89708 0.0
H3530 H 0.26587 0.86198 0.84953 0.0
C3531 C 0.27751 0.80136 0.83277 0.0
C3532 C 0.26764 0.80231 0.8157 0.0
C3533 C 0.27645 0.81294 0.84872 0.0
C3534 C 0.26447 0.8567 0.86274 0.0
H3535 H 0.23231 0.86944 0.94819 0.0
H3536 H 0.2349 0.85233 0.91874 0.0
H3537 H 0.26172 0.88233 0.87635 0.0
H3538 H 0.24819 0.81532 0.80208 0.0
H3539 H 0.24606 0.83511 0.82987 0.0
H3540 H 0.26323 0.818 0.88346 0.0
C3541 C 0.24343 0.86614 0.92254 0.0
C3542 C 0.26227 0.86839 0.87808 0.0
C3543 C 0.24179 0.87599 0.93926 0.0
C3544 C 0.25613 0.81442 0.81501 0.0
C3545 C 0.25503 0.82589 0.83088 0.0
C3546 C 0.2632 0.83207 0.88178 0.0
C3547 C 0.25658 0.87364 0.91136 0.0
C3548 C 0.26012 0.86187 0.89528 0.0
C3549 C 0.26545 0.82556 0.84781 0.0
C3550 C 0.26462 0.83834 0.86438 0.0
H3551 H 0.27417 0.91536 0.93753 0.0
H3552 H 0.27718 0.89796 0.90798 0.0
H3553 H 0.25979 0.83847 0.91032 0.0
H3554 H 0.28659 0.79224 0.83363 0.0
H3555 H 0.28464 0.81241 0.86162 0.0
C3556 C 0.90728 0.52072 0.72762 0.0
C3557 C 0.91735 0.51424 0.74153 0.0
C3558 C 0.90821 0.51538 0.70878 0.0
C3559 C 0.92423 0.48258 0.6766 0.0
H3560 H 0.94264 0.52509 0.65214 0.0
C3561 C 0.96211 0.47857 0.61141 0.0
C3562 C 0.97909 0.49151 0.61375 0.0
C3563 C 0.94925 0.48008 0.62367 0.0
C3564 C 0.9373 0.51305 0.65867 0.0
H3565 H 0.93507 0.49605 0.74676 0.0
H3566 H 0.93669 0.4868 0.71412 0.0
H3567 H 0.92794 0.52873 0.68018 0.0
H3568 H 0.99573 0.51639 0.63033 0.0
H3569 H 0.97351 0.51883 0.65184 0.0
H3570 H 0.93484 0.46716 0.65585 0.0
C3571 C 0.92809 0.49597 0.71761 0.0
C3572 C 0.92869 0.51509 0.6746 0.0
C3573 C 0.92737 0.50147 0.73633 0.0
C3574 C 0.98289 0.50605 0.62839 0.0
C3575 C 0.97003 0.50763 0.64049 0.0
C3576 C 0.9328 0.48053 0.66064 0.0
C3577 C 0.91895 0.50324 0.70365 0.0
C3578 C 0.92294 0.50004 0.68424 0.0
C3579 C 0.95309 0.49468 0.63827 0.0
C3580 C 0.94023 0.49594 0.65212 0.0
H3581 H 0.89939 0.53053 0.73127 0.0
H3582 H 0.90103 0.52117 0.69826 0.0
H3583 H 0.9197 0.47072 0.68367 0.0
H3584 H 0.95886 0.46724 0.6002 0.0
H3585 H 0.93632 0.46988 0.62171 0.0
C3586 C 0.27818 0.21054 0.45827 0.0
C3587 C 0.27787 0.19208 0.45981 0.0
C3588 C 0.27924 0.21721 0.44104 0.0
C3589 C 0.27164 0.20307 0.38985 0.0
H3590 H 0.30426 0.25073 0.38894 0.0
C3591 C 0.28463 0.23339 0.32039 0.0
C3592 C 0.2862 0.25235 0.32066 0.0
C3593 C 0.28424 0.22541 0.33702 0.0
C3594 C 0.2949 0.2375 0.38889 0.0
H3595 H 0.27802 0.16604 0.44424 0.0
H3596 H 0.27976 0.17765 0.41409 0.0
H3597 H 0.30172 0.23811 0.41827 0.0
H3598 H 0.28862 0.27772 0.33885 0.0
H3599 H 0.28766 0.26393 0.36747 0.0
H3600 H 0.2646 0.2026 0.36048 0.0
C3601 C 0.27916 0.18698 0.42626 0.0
C3602 C 0.29346 0.23023 0.40579 0.0
C3603 C 0.27823 0.18034 0.44356 0.0
C3604 C 0.28754 0.2631 0.338 0.0
C3605 C 0.28709 0.25516 0.35454 0.0
C3606 C 0.27299 0.21041 0.37292 0.0
C3607 C 0.27991 0.20558 0.4248 0.0
C3608 C 0.2817 0.21299 0.40657 0.0
C3609 C 0.28538 0.23618 0.35436 0.0
C3610 C 0.28453 0.22782 0.37221 0.0
H3611 H 0.27787 0.21998 0.47046 0.0
H3612 H 0.27949 0.23152 0.44044 0.0
H3613 H 0.26234 0.18982 0.38992 0.0
H3614 H 0.28354 0.22465 0.30732 0.0
H3615 H 0.28313 0.2108 0.33627 0.0
C3616 C 0.3092 0.5977 0.53968 0.0
C3617 C 0.31662 0.61619 0.53782 0.0
C3618 C 0.32015 0.58518 0.53912 0.0
C3619 C 0.36786 0.58201 0.54465 0.0
H3620 H 0.35182 0.5394 0.50684 0.0
C3621 C 0.41884 0.54836 0.51247 0.0
C3622 C 0.41546 0.52915 0.51005 0.0
C3623 C 0.40533 0.5569 0.51748 0.0
C3624 C 0.35632 0.55102 0.5177 0.0
H3625 H 0.34134 0.63629 0.53467 0.0
H3626 H 0.3605 0.61449 0.53393 0.0
H3627 H 0.3307 0.55845 0.51417 0.0
H3628 H 0.39514 0.5037 0.51001 0.0
H3629 H 0.37116 0.51881 0.51881 0.0
H3630 H 0.39358 0.57497 0.54788 0.0
C3631 C 0.34624 0.60967 0.53578 0.0
C3632 C 0.34427 0.5619 0.5219 0.0
C3633 C 0.33527 0.62211 0.53608 0.0
C3634 C 0.39801 0.51855 0.51184 0.0
C3635 C 0.38438 0.52716 0.5169 0.0
C3636 C 0.37983 0.57113 0.54054 0.0
C3637 C 0.33873 0.59106 0.53702 0.0
C3638 C 0.35019 0.57782 0.53495 0.0
C3639 C 0.38813 0.54643 0.5202 0.0
C3640 C 0.3744 0.55595 0.52654 0.0
H3641 H 0.29483 0.59279 0.54101 0.0
H3642 H 0.3141 0.5709 0.54016 0.0
H3643 H 0.37262 0.59405 0.555 0.0
H3644 H 0.4321 0.55682 0.51078 0.0
H3645 H 0.40842 0.57177 0.51935 0.0
C3646 C 0.85562 0.89398 0.53324 0.0
C3647 C 0.83896 0.89924 0.53223 0.0
C3648 C 0.87227 0.90711 0.5347 0.0
C3649 C 0.89271 0.95303 0.52366 0.0
H3650 H 0.93371 0.95058 0.55872 0.0
C3651 C 0.96294 0.00574 0.5297 0.0
C3652 C 0.97865 -0.00103 0.53252 0.0
C3653 C 0.9456 0.99474 0.53119 0.0
C3654 C 0.92251 0.95137 0.54867 0.0
H3655 H 0.82684 0.92256 0.53192 0.0
H3656 H 0.85598 0.94548 0.53418 0.0
H3657 H 0.90415 0.92909 0.55821 0.0
H3658 H 0.98834 0.97526 0.53919 0.0
H3659 H 0.95833 0.95607 0.54128 0.0
H3660 H 0.91112 0.97485 0.51361 0.0
C3661 C 0.85608 0.93115 0.53393 0.0
C3662 C 0.90552 0.93907 0.54846 0.0
C3663 C 0.8394 0.91802 0.53275 0.0
C3664 C 0.9766 0.98104 0.53708 0.0
C3665 C 0.9593 0.97001 0.53839 0.0
C3666 C 0.90977 0.96521 0.52371 0.0
C3667 C 0.8727 0.92583 0.53492 0.0
C3668 C 0.89046 0.93963 0.53583 0.0
C3669 C 0.94351 0.97662 0.53538 0.0
C3670 C 0.92499 0.96444 0.53608 0.0
H3671 H 0.85583 0.87966 0.5329 0.0
H3672 H 0.88482 0.90256 0.53526 0.0
H3673 H 0.8814 0.9537 0.51365 0.0
H3674 H 0.96401 0.01951 0.52623 0.0
H3675 H 0.93385 0.00046 0.52906 0.0
C3676 C 0.91367 0.08413 0.26831 0.0
C3677 C 0.9052 0.06595 0.26046 0.0
C3678 C 0.90371 0.09763 0.26906 0.0
C3679 C 0.85606 0.10224 0.2686 0.0
H3680 H 0.87659 0.15245 0.26075 0.0
C3681 C 0.81186 0.15493 0.26554 0.0
C3682 C 0.81966 0.17301 0.27415 0.0
C3683 C 0.82259 0.14225 0.26335 0.0
C3684 C 0.8707 0.13854 0.26319 0.0
H3685 H 0.87976 0.04791 0.2466 0.0
H3686 H 0.86253 0.07139 0.24767 0.0
H3687 H 0.89486 0.12985 0.25751 0.0
H3688 H 0.84498 0.19181 0.28728 0.0
H3689 H 0.86366 0.16968 0.28355 0.0
H3690 H 0.83199 0.11086 0.27442 0.0
C3691 C 0.87677 0.0752 0.25359 0.0
C3692 C 0.88119 0.12556 0.26131 0.0
C3693 C 0.88671 0.06174 0.25284 0.0
C3694 C 0.83853 0.17809 0.28038 0.0
C3695 C 0.84927 0.16538 0.27822 0.0
C3696 C 0.8456 0.11519 0.2705 0.0
C3697 C 0.88503 0.09326 0.262 0.0
C3698 C 0.87398 0.10721 0.26393 0.0
C3699 C 0.84143 0.14725 0.26974 0.0
C3700 C 0.85273 0.13352 0.26777 0.0
H3701 H 0.92788 0.08783 0.27436 0.0
H3702 H 0.9105 0.11135 0.27574 0.0
H3703 H 0.85016 0.08835 0.27112 0.0
H3704 H 0.79746 0.15061 0.26023 0.0
H3705 H 0.81611 0.12854 0.25643 0.0
C3706 C 0.72182 0.12045 0.02519 0.0
C3707 C 0.72583 0.13384 0.01314 0.0
C3708 C 0.70399 0.11003 0.02486 0.0
C3709 C 0.66015 0.09282 0.9958 0.0
H3710 H 0.64017 0.08978 0.04283 0.0
C3711 C 0.58372 0.06241 -0.00063 0.0
C3712 C 0.57868 0.05276 0.01432 0.0
C3713 C 0.6019 0.07145 -0.00113 0.0
C3714 C 0.64561 0.09018 0.0296 0.0
H3715 H 0.71432 0.1465 0.99101 0.0
H3716 H 0.68302 0.12798 0.99032 0.0
H3717 H 0.67145 0.10723 0.0424 0.0
H3718 H 0.58883 0.04455 0.04017 0.0
H3719 H 0.62072 0.05989 0.03904 0.0
H3720 H 0.63451 0.07548 0.98298 0.0
C3721 C 0.69378 0.12572 5e-05 0.0
C3722 C 0.66349 0.10028 0.02937 0.0
C3723 C 0.71163 0.13636 0.00053 0.0
C3724 C 0.59227 0.05202 0.02857 0.0
C3725 C 0.61053 0.0609 0.02795 0.0
C3726 C 0.64232 0.0825 0.99604 0.0
C3727 C 0.68981 0.11259 0.01235 0.0
C3728 C 0.67088 0.10178 0.01247 0.0
C3729 C 0.61554 0.07089 0.01318 0.0
C3730 C 0.63478 0.08116 0.01295 0.0
H3731 H 0.73242 0.11815 0.03509 0.0
H3732 H 0.7013 0.09987 0.03437 0.0
H3733 H 0.66565 0.09358 0.98262 0.0
H3734 H 0.57357 0.06334 0.98819 0.0
H3735 H 0.60515 0.07924 0.98744 0.0
C3736 C 0.18078 0.46903 0.26314 0.0
C3737 C 0.18532 0.48475 0.25415 0.0
C3738 C 0.19316 0.4582 0.26568 0.0
C3739 C 0.2329 0.44498 0.25013 0.0
H3740 H 0.24331 0.43795 0.30179 0.0
C3741 C 0.28633 0.4056 0.27351 0.0
C3742 C 0.2813 0.39354 0.2866 0.0
C3743 C 0.27607 0.4182 0.2695 0.0
C3744 C 0.24044 0.4396 0.28727 0.0
H3745 H 0.20585 0.50077 0.23966 0.0
H3746 H 0.22747 0.48147 0.24388 0.0
H3747 H 0.22166 0.45591 0.29345 0.0
H3748 H 0.26161 0.38507 0.30564 0.0
H3749 H 0.24358 0.40667 0.29846 0.0
H3750 H 0.25116 0.42807 0.24381 0.0
C3751 C 0.21437 0.47775 0.24908 0.0
C3752 C 0.22809 0.44993 0.28253 0.0
C3753 C 0.20202 0.48876 0.2467 0.0
C3754 C 0.26603 0.39447 0.29579 0.0
C3755 C 0.2557 0.40689 0.29166 0.0
C3756 C 0.24511 0.43438 0.25484 0.0
C3757 C 0.21023 0.46274 0.2591 0.0
C3758 C 0.22401 0.45249 0.26391 0.0
C3759 C 0.2605 0.41884 0.27837 0.0
C3760 C 0.24881 0.43135 0.27345 0.0
H3761 H 0.16798 0.46551 0.26894 0.0
H3762 H 0.18958 0.44651 0.27322 0.0
H3763 H 0.22993 0.4468 0.23568 0.0
H3764 H 0.29809 0.40516 0.26628 0.0
H3765 H 0.28029 0.42738 0.25939 0.0
C3766 C 0.24265 0.42034 0.04368 0.0
C3767 C 0.23909 0.40221 0.03474 0.0
C3768 C 0.22897 0.43002 0.04324 0.0
C3769 C 0.18636 0.43156 0.01502 0.0
H3770 H 0.18041 0.46391 0.05778 0.0
C3771 C 0.12868 0.47011 0.01249 0.0
C3772 C 0.13267 0.48816 0.02174 0.0
C3773 C 0.14103 0.45908 0.01483 0.0
C3774 C 0.18201 0.45512 0.04562 0.0
H3775 H 0.21816 0.37989 0.01873 0.0
H3776 H 0.19428 0.39677 0.01798 0.0
H3777 H 0.20288 0.44559 0.06081 0.0
H3778 H 0.15292 0.50875 0.04064 0.0
H3779 H 0.17459 0.48969 0.0445 0.0
H3780 H 0.16584 0.44131 -0.00031 0.0
C3781 C 0.20772 0.40356 0.02521 0.0
C3782 C 0.19488 0.44455 0.04739 0.0
C3783 C 0.22137 0.39383 0.02577 0.0
C3784 C 0.1493 0.49485 0.03348 0.0
C3785 C 0.16172 0.48386 0.03573 0.0
C3786 C 0.17358 0.4422 0.01321 0.0
C3787 C 0.21141 0.42187 0.03373 0.0
C3788 C 0.19726 0.43266 0.0321 0.0
C3789 C 0.1578 0.46582 0.02639 0.0
C3790 C 0.17124 0.45419 0.02847 0.0
H3791 H 0.25615 0.42724 0.05069 0.0
H3792 H 0.23235 0.44414 0.04983 0.0
H3793 H 0.18803 0.42279 0.00287 0.0
H3794 H 0.11587 0.46441 0.00357 0.0
H3795 H 0.13731 0.44517 0.00768 0.0
C3796 C 0.89147 0.96739 0.26227 0.0
C3797 C 0.91012 0.9677 0.26234 0.0
C3798 C 0.87833 0.95075 0.26129 0.0
C3799 C 0.86974 0.90107 0.24656 0.0
H3800 H 0.8342 0.89645 0.2818 0.0
C3801 C 0.82583 0.83051 0.25732 0.0
C3802 C 0.80804 0.82904 0.26206 0.0
C3803 C 0.83733 0.84763 0.25616 0.0
C3804 C 0.84377 0.89753 0.2716 0.0
H3805 H 0.92947 0.95061 0.2611 0.0
H3806 H 0.90649 0.92159 0.25909 0.0
H3807 H 0.85596 0.92585 0.28187 0.0
H3808 H 0.78826 0.84454 0.26884 0.0
H3809 H 0.80814 0.87443 0.26626 0.0
H3810 H 0.85751 0.87292 0.23605 0.0
C3811 C 0.90208 0.93427 0.25985 0.0
C3812 C 0.85631 0.91441 0.27172 0.0
C3813 C 0.91525 0.95091 0.2611 0.0
C3814 C 0.8019 0.84516 0.26521 0.0
C3815 C 0.81338 0.86233 0.26387 0.0
C3816 C 0.85707 0.88426 0.24628 0.0
C3817 C 0.88348 0.934 0.26008 0.0
C3818 C 0.86959 0.91631 0.25936 0.0
C3819 C 0.83135 0.86383 0.25951 0.0
C3820 C 0.84405 0.88215 0.25897 0.0
H3821 H 0.88701 0.98004 0.26328 0.0
H3822 H 0.8641 0.95098 0.26137 0.0
H3823 H 0.87962 0.90218 0.23666 0.0
H3824 H 0.83113 0.81844 0.25496 0.0
H3825 H 0.85113 0.84814 0.25313 0.0
C3826 C 0.68298 0.0854 0.75507 0.0
C3827 C 0.66427 0.08232 0.75703 0.0
C3828 C 0.6938 0.10324 0.75598 0.0
C3829 C 0.71174 0.14196 0.74935 0.0
H3830 H 0.70377 0.17912 0.78646 0.0
C3831 C 0.74616 0.21903 0.75236 0.0
C3832 C 0.75185 0.22944 0.77001 0.0
C3833 C 0.7361 0.20081 0.75066 0.0
C3834 C 0.7063 0.16887 0.77615 0.0
H3835 H 0.64215 0.09562 0.76087 0.0
H3836 H 0.66097 0.12669 0.76209 0.0
H3837 H 0.68488 0.1479 0.78339 0.0
H3838 H 0.75191 0.22872 0.79978 0.0
H3839 H 0.73462 0.19684 0.79682 0.0
H3840 H 0.73348 0.16287 0.74244 0.0
C3841 C 0.66734 0.11531 0.76024 0.0
C3842 C 0.69529 0.15103 0.7742 0.0
C3843 C 0.65653 0.09748 0.7594 0.0
C3844 C 0.74762 0.22112 0.78596 0.0
C3845 C 0.73762 0.20287 0.78426 0.0
C3846 C 0.72279 0.15981 0.75133 0.0
C3847 C 0.68615 0.1184 0.7588 0.0
C3848 C 0.69783 0.13738 0.76073 0.0
C3849 C 0.73158 0.19257 0.76658 0.0
C3850 C 0.72017 0.17348 0.76473 0.0
H3851 H 0.68944 0.07407 0.7533 0.0
H3852 H 0.70827 0.10514 0.75501 0.0
H3853 H 0.71397 0.1318 0.73875 0.0
H3854 H 0.74917 0.22504 0.73979 0.0
H3855 H 0.73148 0.19333 0.73683 0.0
loop_
_geom_bond_atom_site_label_1
_geom_bond_atom_site_label_2
_geom_bond_distance
_geom_bond_site_symmetry_2
_ccdc_geom_bond_type
Co0 O1 2.216 . S
Co0 O2 2.091 . S
Co0 O4 2.004 . S
Co0 O10 2.021 . S
Co0 O12 2.137 . S
Co0 O13 2.244 . S
O1 Co0 2.216 . S
O1 C8 1.247 . S
O2 Co0 2.091 . S
O2 C8 1.261 . S
C3 O12 1.247 . S
C3 O13 1.272 . S
O4 Co0 2.004 . S
O4 C9 1.259 1_455 S
Co5 O6 2.061 1_455 S
Co5 O11 2.052 . S
Co5 O13 2.135 . S
O6 Co5 2.061 1_655 S
O6 C9 1.235 . S
C7 O10 1.238 . S
C7 O11 1.241 . S
C8 O1 1.247 . S
C8 O2 1.261 . S
C9 O4 1.259 1_655 S
C9 O6 1.235 . S
O10 Co0 2.021 . S
O10 C7 1.238 . S
O11 Co5 2.052 . S
O11 C7 1.241 . S
O12 Co0 2.137 . S
O12 C3 1.247 . S
O13 Co0 2.244 . S
O13 C3 1.272 . S
O13 Co5 2.135 . S
Co14 O15 2.216 1_455 S
Co14 O16 2.066 1_455 S
Co14 O18 2.004 . S
Co14 O24 2.021 . S
Co14 O26 2.137 . S
Co14 O27 2.244 . S
O15 Co14 2.216 1_655 S
O15 C22 1.247 . S
O16 Co14 2.066 1_655 S
O16 C22 1.291 . S
C17 O26 1.247 . S
C17 O27 1.272 . S
O18 Co14 2.004 . S
O18 C23 1.259 . S
Co19 O20 2.061 . S
Co19 O25 2.052 . S
Co19 O27 2.135 . S
O20 Co19 2.061 . S
O20 C23 1.235 . S
C21 O24 1.238 . S
C21 O25 1.241 . S
C22 O15 1.247 . S
C22 O16 1.291 . S
C23 O18 1.259 . S
C23 O20 1.235 . S
O24 Co14 2.021 . S
O24 C21 1.238 . S
O25 Co19 2.052 . S
O25 C21 1.241 . S
O26 Co14 2.137 . S
O26 C17 1.247 . S
O27 Co14 2.244 . S
O27 C17 1.272 . S
O27 Co19 2.135 . S
Co28 O29 2.216 . S
Co28 O30 2.091 . S
Co28 O32 2.004 . S
Co28 O38 2.021 . S
Co28 O40 2.137 . S
Co28 O41 2.244 . S
O29 Co28 2.216 . S
O29 C36 1.247 . S
O30 Co28 2.091 . S
O30 C36 1.261 . S
C31 O40 1.247 . S
C31 O41 1.272 . S
O32 Co28 2.004 . S
O32 C37 1.259 . S
Co33 O34 2.061 . S
Co33 O39 2.052 . S
Co33 O41 2.135 . S
O34 Co33 2.061 . S
O34 C37 1.235 . S
C35 O38 1.238 . S
C35 O39 1.241 . S
C36 O29 1.247 . S
C36 O30 1.261 . S
C37 O32 1.259 . S
C37 O34 1.235 . S
O38 Co28 2.021 . S
O38 C35 1.238 . S
O39 Co33 2.052 . S
O39 C35 1.241 . S
O40 Co28 2.137 . S
O40 C31 1.247 . S
O41 Co28 2.244 . S
O41 C31 1.272 . S
O41 Co33 2.135 . S
Co42 O43 2.216 . S
Co42 O44 2.091 . S
Co42 O46 2.004 . S
Co42 O52 2.021 . S
Co42 O54 2.137 . S
Co42 O55 2.244 . S
O43 Co42 2.216 . S
O43 C50 1.247 . S
O44 Co42 2.091 . S
O44 C50 1.261 . S
C45 O54 1.247 . S
C45 O55 1.272 . S
O46 Co42 2.004 . S
O46 C51 1.259 . S
Co47 O48 2.061 . S
Co47 O53 2.052 . S
Co47 O55 2.135 . S
O48 Co47 2.061 . S
O48 C51 1.235 . S
C49 O52 1.238 . S
C49 O53 1.241 . S
C50 O43 1.247 . S
C50 O44 1.261 . S
C51 O46 1.259 . S
C51 O48 1.235 . S
O52 Co42 2.021 . S
O52 C49 1.238 . S
O53 Co47 2.052 . S
O53 C49 1.241 . S
O54 Co42 2.137 . S
O54 C45 1.247 . S
O55 Co42 2.244 . S
O55 C45 1.272 . S
O55 Co47 2.135 . S
Co56 O57 2.216 . S
Co56 O58 2.091 . S
Co56 O60 2.004 . S
Co56 O66 2.021 . S
Co56 O68 2.137 . S
Co56 O69 2.244 . S
O57 Co56 2.216 . S
O57 C64 1.247 . S
O58 Co56 2.091 . S
O58 C64 1.261 . S
C59 O68 1.247 . S
C59 O69 1.272 . S
O60 Co56 2.004 . S
O60 C65 1.259 . S
Co61 O62 2.061 . S
Co61 O67 2.052 . S
Co61 O69 2.135 . S
O62 Co61 2.061 . S
O62 C65 1.235 . S
C63 O66 1.238 . S
C63 O67 1.241 . S
C64 O57 1.247 . S
C64 O58 1.261 . S
C65 O60 1.259 . S
C65 O62 1.235 . S
O66 Co56 2.021 . S
O66 C63 1.238 . S
O67 Co61 2.052 . S
O67 C63 1.241 . S
O68 Co56 2.137 . S
O68 C59 1.247 . S
O69 Co56 2.244 . S
O69 C59 1.272 . S
O69 Co61 2.135 . S
Co70 O71 2.216 . S
Co70 O72 2.091 . S
Co70 O74 2.004 . S
Co70 O80 2.021 . S
Co70 O82 2.137 . S
Co70 O83 2.244 . S
O71 Co70 2.216 . S
O71 C78 1.247 . S
O72 Co70 2.091 . S
O72 C78 1.261 . S
C73 O82 1.247 . S
C73 O83 1.272 . S
O74 Co70 2.004 . S
O74 C79 1.259 . S
Co75 O76 2.061 . S
Co75 O81 2.052 . S
Co75 O83 2.135 . S
O76 Co75 2.061 . S
O76 C79 1.235 . S
C77 O80 1.238 . S
C77 O81 1.241 . S
C78 O71 1.247 . S
C78 O72 1.261 . S
C79 O74 1.259 . S
C79 O76 1.235 . S
O80 Co70 2.021 . S
O80 C77 1.238 . S
O81 Co75 2.052 . S
O81 C77 1.241 . S
O82 Co70 2.137 . S
O82 C73 1.247 . S
O83 Co70 2.244 . S
O83 C73 1.272 . S
O83 Co75 2.135 . S
Co84 O85 2.216 . S
Co84 O86 2.091 . S
Co84 O88 2.004 . S
Co84 O94 2.021 . S
Co84 O96 2.137 . S
Co84 O97 2.244 . S
O85 Co84 2.216 . S
O85 C92 1.247 . S
O86 Co84 2.091 . S
O86 C92 1.261 . S
C87 O96 1.247 . S
C87 O97 1.272 . S
O88 Co84 2.004 . S
O88 C93 1.259 . S
Co89 O90 2.061 . S
Co89 O95 2.052 . S
Co89 O97 2.135 . S
O90 Co89 2.061 . S
O90 C93 1.235 . S
C91 O94 1.238 . S
C91 O95 1.241 . S
C92 O85 1.247 . S
C92 O86 1.261 . S
C93 O88 1.259 . S
C93 O90 1.235 . S
O94 Co84 2.021 . S
O94 C91 1.238 . S
O95 Co89 2.052 . S
O95 C91 1.241 . S
O96 Co84 2.137 . S
O96 C87 1.247 . S
O97 Co84 2.244 . S
O97 C87 1.272 . S
O97 Co89 2.135 . S
Co98 O99 2.216 . S
Co98 O100 2.091 . S
Co98 O102 2.004 1_455 S
Co98 O108 2.021 1_455 S
Co98 O110 2.137 . S
Co98 O111 2.244 1_455 S
O99 Co98 2.216 . S
O99 C106 1.247 . S
O100 Co98 2.091 . S
O100 C106 1.261 . S
C101 O110 1.247 . S
C101 O111 1.272 1_455 S
O102 Co98 2.004 1_655 S
O102 C107 1.259 . S
Co103 O104 2.061 . S
Co103 O109 2.052 . S
Co103 O111 2.135 . S
O104 Co103 2.061 . S
O104 C107 1.235 . S
C105 O108 1.238 . S
C105 O109 1.241 . S
C106 O99 1.247 . S
C106 O100 1.261 . S
C107 O102 1.259 . S
C107 O104 1.235 . S
O108 Co98 2.021 1_655 S
O108 C105 1.238 . S
O109 Co103 2.052 . S
O109 C105 1.241 . S
O110 Co98 2.137 . S
O110 C101 1.247 . S
O111 Co98 2.244 1_655 S
O111 C101 1.272 1_655 S
O111 Co103 2.135 . S
Co112 O113 2.216 . S
Co112 O114 2.091 . S
Co112 O116 2.004 1_545 S
Co112 O122 2.021 . S
Co112 O124 2.137 . S
Co112 O125 2.270 . S
O113 Co112 2.216 . S
O113 C120 1.247 . S
O114 Co112 2.091 . S
O114 C120 1.261 . S
C115 O124 1.247 . S
C115 O125 1.290 . S
O116 Co112 2.004 1_565 S
O116 C121 1.259 . S
Co117 O118 2.061 . S
Co117 O123 2.052 . S
Co117 O125 2.085 1_565 S
O118 Co117 2.061 . S
O118 C121 1.235 . S
C119 O122 1.230 1_565 S
C119 O123 1.254 . S
C120 O113 1.247 . S
C120 O114 1.261 . S
C121 O116 1.259 . S
C121 O118 1.235 . S
O122 Co112 2.021 . S
O122 C119 1.230 1_545 S
O123 Co117 2.052 . S
O123 C119 1.254 . S
O124 Co112 2.137 . S
O124 C115 1.247 . S
O125 Co112 2.270 . S
O125 C115 1.290 . S
O125 Co117 2.085 1_545 S
Co126 O127 2.216 . S
Co126 O128 2.091 . S
Co126 O130 2.004 . S
Co126 O136 2.021 . S
Co126 O138 2.137 . S
Co126 O139 2.244 . S
O127 Co126 2.216 . S
O127 C134 1.247 . S
O128 Co126 2.091 . S
O128 C134 1.261 . S
C129 O138 1.247 . S
C129 O139 1.272 . S
O130 Co126 2.004 . S
O130 C135 1.259 . S
Co131 O132 2.061 . S
Co131 O137 2.052 . S
Co131 O139 2.135 . S
O132 Co131 2.061 . S
O132 C135 1.235 . S
C133 O136 1.238 . S
C133 O137 1.241 . S
C134 O127 1.247 . S
C134 O128 1.261 . S
C135 O130 1.259 . S
C135 O132 1.235 . S
O136 Co126 2.021 . S
O136 C133 1.238 . S
O137 Co131 2.052 . S
O137 C133 1.241 . S
O138 Co126 2.137 . S
O138 C129 1.247 . S
O139 Co126 2.244 . S
O139 C129 1.272 . S
O139 Co131 2.135 . S
Co140 O141 2.216 . S
Co140 O142 2.091 . S
Co140 O144 2.004 . S
Co140 O150 2.021 . S
Co140 O152 2.137 . S
Co140 O153 2.244 . S
O141 Co140 2.216 . S
O141 C148 1.247 . S
O142 Co140 2.091 . S
O142 C148 1.261 . S
C143 O152 1.247 . S
C143 O153 1.272 . S
O144 Co140 2.004 . S
O144 C149 1.259 . S
Co145 O146 2.061 . S
Co145 O151 2.052 . S
Co145 O153 2.135 . S
O146 Co145 2.061 . S
O146 C149 1.235 . S
C147 O150 1.238 . S
C147 O151 1.241 . S
C148 O141 1.247 . S
C148 O142 1.261 . S
C149 O144 1.259 . S
C149 O146 1.235 . S
O150 Co140 2.021 . S
O150 C147 1.238 . S
O151 Co145 2.052 . S
O151 C147 1.241 . S
O152 Co140 2.137 . S
O152 C143 1.247 . S
O153 Co140 2.244 . S
O153 C143 1.272 . S
O153 Co145 2.135 . S
Co154 O155 2.216 . S
Co154 O156 2.091 1_556 S
Co154 O158 2.002 . S
Co154 O164 2.021 1_556 S
Co154 O166 2.137 . S
Co154 O167 2.244 . S
O155 Co154 2.216 . S
O155 C162 1.249 . S
O156 Co154 2.091 1_554 S
O156 C162 1.263 1_554 S
C157 O166 1.247 . S
C157 O167 1.272 . S
O158 Co154 2.002 . S
O158 C163 1.255 1_556 S
Co159 O160 2.061 1_556 S
Co159 O165 2.052 1_556 S
Co159 O167 2.135 . S
O160 Co159 2.061 1_554 S
O160 C163 1.235 . S
C161 O164 1.238 . S
C161 O165 1.241 . S
C162 O155 1.249 . S
C162 O156 1.263 1_556 S
C163 O158 1.255 1_554 S
C163 O160 1.235 . S
O164 Co154 2.021 1_554 S
O164 C161 1.238 . S
O165 Co159 2.052 1_554 S
O165 C161 1.241 . S
O166 Co154 2.137 . S
O166 C157 1.247 . S
O167 Co154 2.244 . S
O167 C157 1.272 . S
O167 Co159 2.135 . S
Co168 O169 2.216 . S
Co168 O170 2.091 . S
Co168 O172 2.004 . S
Co168 O178 2.021 . S
Co168 O180 2.137 1_554 S
Co168 O181 2.244 . S
O169 Co168 2.216 . S
O169 C176 1.247 . S
O170 Co168 2.091 . S
O170 C176 1.261 . S
C171 O180 1.247 . S
C171 O181 1.272 1_556 S
O172 Co168 2.004 . S
O172 C177 1.259 . S
Co173 O174 2.061 . S
Co173 O179 2.052 . S
Co173 O181 2.135 . S
O174 Co173 2.061 . S
O174 C177 1.235 . S
C175 O178 1.238 . S
C175 O179 1.241 . S
C176 O169 1.247 . S
C176 O170 1.261 . S
C177 O172 1.259 . S
C177 O174 1.235 . S
O178 Co168 2.021 . S
O178 C175 1.238 . S
O179 Co173 2.052 . S
O179 C175 1.241 . S
O180 Co168 2.137 1_556 S
O180 C171 1.247 . S
O181 Co168 2.244 . S
O181 C171 1.272 1_554 S
O181 Co173 2.135 . S
Co182 O183 2.216 . S
Co182 O184 2.091 . S
Co182 O186 2.004 . S
Co182 O192 2.021 . S
Co182 O194 2.137 . S
Co182 O195 2.244 . S
O183 Co182 2.216 . S
O183 C190 1.247 . S
O184 Co182 2.091 . S
O184 C190 1.261 . S
C185 O194 1.247 . S
C185 O195 1.272 . S
O186 Co182 2.004 . S
O186 C191 1.259 . S
Co187 O188 2.061 . S
Co187 O193 2.052 . S
Co187 O195 2.135 . S
O188 Co187 2.061 . S
O188 C191 1.235 . S
C189 O192 1.238 . S
C189 O193 1.241 . S
C190 O183 1.247 . S
C190 O184 1.261 . S
C191 O186 1.259 . S
C191 O188 1.235 . S
O192 Co182 2.021 . S
O192 C189 1.238 . S
O193 Co187 2.052 . S
O193 C189 1.241 . S
O194 Co182 2.137 . S
O194 C185 1.247 . S
O195 Co182 2.244 . S
O195 C185 1.272 . S
O195 Co187 2.135 . S
Co196 O197 2.216 . S
Co196 O198 2.091 . S
Co196 O200 2.004 . S
Co196 O206 2.021 . S
Co196 O208 2.137 . S
Co196 O209 2.244 . S
O197 Co196 2.216 . S
O197 C204 1.247 . S
O198 Co196 2.091 . S
O198 C204 1.261 . S
C199 O208 1.247 . S
C199 O209 1.272 . S
O200 Co196 2.004 . S
O200 C205 1.259 . S
Co201 O202 2.061 . S
Co201 O207 2.052 . S
Co201 O209 2.135 . S
O202 Co201 2.061 . S
O202 C205 1.235 . S
C203 O206 1.238 . S
C203 O207 1.241 . S
C204 O197 1.247 . S
C204 O198 1.261 . S
C205 O200 1.259 . S
C205 O202 1.235 . S
O206 Co196 2.021 . S
O206 C203 1.238 . S
O207 Co201 2.052 . S
O207 C203 1.241 . S
O208 Co196 2.137 . S
O208 C199 1.247 . S
O209 Co196 2.244 . S
O209 C199 1.272 . S
O209 Co201 2.135 . S
Co210 O211 2.216 . S
Co210 O212 2.091 . S
Co210 O214 2.004 . S
Co210 O220 2.021 . S
Co210 O222 2.137 . S
Co210 O223 2.244 . S
O211 Co210 2.216 . S
O211 C218 1.247 . S
O212 Co210 2.091 . S
O212 C218 1.261 . S
C213 O222 1.247 . S
C213 O223 1.272 . S
O214 Co210 2.004 . S
O214 C219 1.259 . S
Co215 O216 2.061 . S
Co215 O221 2.052 . S
Co215 O223 2.135 . S
O216 Co215 2.061 . S
O216 C219 1.235 . S
C217 O220 1.238 . S
C217 O221 1.241 . S
C218 O211 1.247 . S
C218 O212 1.261 . S
C219 O214 1.259 . S
C219 O216 1.235 . S
O220 Co210 2.021 . S
O220 C217 1.238 . S
O221 Co215 2.052 . S
O221 C217 1.241 . S
O222 Co210 2.137 . S
O222 C213 1.247 . S
O223 Co210 2.244 . S
O223 C213 1.272 . S
O223 Co215 2.135 . S
Co224 O225 2.216 . S
Co224 O226 2.091 . S
Co224 O228 2.004 . S
Co224 O234 2.021 . S
Co224 O236 2.137 . S
Co224 O237 2.244 . S
O225 Co224 2.216 . S
O225 C232 1.247 . S
O226 Co224 2.091 . S
O226 C232 1.261 . S
C227 O236 1.247 . S
C227 O237 1.272 . S
O228 Co224 2.004 . S
O228 C233 1.259 1_545 S
Co229 O230 2.061 1_545 S
Co229 O235 2.052 . S
Co229 O237 2.135 . S
O230 Co229 2.061 1_565 S
O230 C233 1.235 . S
C231 O234 1.238 . S
C231 O235 1.241 . S
C232 O225 1.247 . S
C232 O226 1.261 . S
C233 O228 1.259 1_565 S
C233 O230 1.235 . S
O234 Co224 2.021 . S
O234 C231 1.238 . S
O235 Co229 2.052 . S
O235 C231 1.241 . S
O236 Co224 2.137 . S
O236 C227 1.247 . S
O237 Co224 2.244 . S
O237 C227 1.272 . S
O237 Co229 2.135 . S
Co238 O239 2.216 . S
Co238 O240 2.091 . S
Co238 O242 2.004 . S
Co238 O248 2.021 . S
Co238 O250 2.137 . S
Co238 O251 2.244 . S
O239 Co238 2.216 . S
O239 C246 1.247 . S
O240 Co238 2.091 . S
O240 C246 1.261 . S
C241 O250 1.247 . S
C241 O251 1.272 . S
O242 Co238 2.004 . S
O242 C247 1.259 . S
Co243 O244 2.061 . S
Co243 O249 2.052 . S
Co243 O251 2.135 . S
O244 Co243 2.061 . S
O244 C247 1.235 . S
C245 O248 1.238 . S
C245 O249 1.241 . S
C246 O239 1.247 . S
C246 O240 1.261 . S
C247 O242 1.259 . S
C247 O244 1.235 . S
O248 Co238 2.021 . S
O248 C245 1.238 . S
O249 Co243 2.052 . S
O249 C245 1.241 . S
O250 Co238 2.137 . S
O250 C241 1.247 . S
O251 Co238 2.244 . S
O251 C241 1.272 . S
O251 Co243 2.135 . S
Co252 O253 2.216 . S
Co252 O254 2.091 . S
Co252 O256 2.004 . S
Co252 O262 2.021 . S
Co252 O264 2.137 . S
Co252 O265 2.244 . S
O253 Co252 2.216 . S
O253 C260 1.247 . S
O254 Co252 2.091 . S
O254 C260 1.261 . S
C255 O264 1.247 . S
C255 O265 1.272 . S
O256 Co252 2.004 . S
O256 C261 1.259 . S
Co257 O258 2.061 . S
Co257 O263 2.052 . S
Co257 O265 2.135 . S
O258 Co257 2.061 . S
O258 C261 1.235 . S
C259 O262 1.238 . S
C259 O263 1.241 . S
C260 O253 1.247 . S
C260 O254 1.261 . S
C261 O256 1.259 . S
C261 O258 1.235 . S
O262 Co252 2.021 . S
O262 C259 1.238 . S
O263 Co257 2.052 . S
O263 C259 1.241 . S
O264 Co252 2.137 . S
O264 C255 1.247 . S
O265 Co252 2.244 . S
O265 C255 1.272 . S
O265 Co257 2.135 . S
Co266 O267 2.216 . S
Co266 O268 2.091 . S
Co266 O270 2.004 . S
Co266 O276 2.021 . S
Co266 O278 2.137 . S
Co266 O279 2.244 . S
O267 Co266 2.216 . S
O267 C274 1.247 . S
O268 Co266 2.091 . S
O268 C274 1.261 . S
C269 O278 1.247 . S
C269 O279 1.272 . S
O270 Co266 2.004 . S
O270 C275 1.259 . S
Co271 O272 2.061 . S
Co271 O277 2.052 . S
Co271 O279 2.135 . S
O272 Co271 2.061 . S
O272 C275 1.235 . S
C273 O276 1.238 . S
C273 O277 1.241 . S
C274 O267 1.247 . S
C274 O268 1.261 . S
C275 O270 1.259 . S
C275 O272 1.235 . S
O276 Co266 2.021 . S
O276 C273 1.238 . S
O277 Co271 2.052 . S
O277 C273 1.241 . S
O278 Co266 2.137 . S
O278 C269 1.247 . S
O279 Co266 2.244 . S
O279 C269 1.272 . S
O279 Co271 2.135 . S
Co280 O281 2.216 . S
Co280 O282 2.091 . S
Co280 O284 2.004 . S
Co280 O290 2.021 . S
Co280 O292 2.137 1_554 S
Co280 O293 2.244 . S
O281 Co280 2.216 . S
O281 C288 1.247 . S
O282 Co280 2.091 . S
O282 C288 1.261 . S
C283 O292 1.247 . S
C283 O293 1.272 1_556 S
O284 Co280 2.004 . S
O284 C289 1.259 . S
Co285 O286 2.061 . S
Co285 O291 2.052 . S
Co285 O293 2.135 . S
O286 Co285 2.061 . S
O286 C289 1.235 . S
C287 O290 1.238 . S
C287 O291 1.241 . S
C288 O281 1.247 . S
C288 O282 1.261 . S
C289 O284 1.259 . S
C289 O286 1.235 . S
O290 Co280 2.021 . S
O290 C287 1.238 . S
O291 Co285 2.052 . S
O291 C287 1.241 . S
O292 Co280 2.137 1_556 S
O292 C283 1.247 . S
O293 Co280 2.244 . S
O293 C283 1.272 1_554 S
O293 Co285 2.135 . S
Co294 O295 2.216 . S
Co294 O296 2.091 . S
Co294 O298 2.004 . S
Co294 O304 2.021 . S
Co294 O306 2.137 . S
Co294 O307 2.244 . S
O295 Co294 2.216 . S
O295 C302 1.247 . S
O296 Co294 2.091 . S
O296 C302 1.261 . S
C297 O306 1.247 . S
C297 O307 1.272 . S
O298 Co294 2.004 . S
O298 C303 1.259 . S
Co299 O300 2.061 . S
Co299 O305 2.052 . S
Co299 O307 2.135 . S
O300 Co299 2.061 . S
O300 C303 1.235 . S
C301 O304 1.238 . S
C301 O305 1.241 . S
C302 O295 1.247 . S
C302 O296 1.261 . S
C303 O298 1.259 . S
C303 O300 1.235 . S
O304 Co294 2.021 . S
O304 C301 1.238 . S
O305 Co299 2.052 . S
O305 C301 1.241 . S
O306 Co294 2.137 . S
O306 C297 1.247 . S
O307 Co294 2.244 . S
O307 C297 1.272 . S
O307 Co299 2.135 . S
Co308 O309 2.216 . S
Co308 O310 2.091 . S
Co308 O312 2.004 . S
Co308 O318 2.021 . S
Co308 O320 2.137 . S
Co308 O321 2.244 . S
O309 Co308 2.216 . S
O309 C316 1.247 . S
O310 Co308 2.091 . S
O310 C316 1.261 . S
C311 O320 1.247 . S
C311 O321 1.272 . S
O312 Co308 2.004 . S
O312 C317 1.259 . S
Co313 O314 2.061 . S
Co313 O319 2.052 . S
Co313 O321 2.135 . S
O314 Co313 2.061 . S
O314 C317 1.235 . S
C315 O318 1.238 . S
C315 O319 1.241 . S
C316 O309 1.247 . S
C316 O310 1.261 . S
C317 O312 1.259 . S
C317 O314 1.235 . S
O318 Co308 2.021 . S
O318 C315 1.238 . S
O319 Co313 2.052 . S
O319 C315 1.241 . S
O320 Co308 2.137 . S
O320 C311 1.247 . S
O321 Co308 2.244 . S
O321 C311 1.272 . S
O321 Co313 2.135 . S
Co322 O323 2.216 . S
Co322 O324 2.091 . S
Co322 O326 2.004 . S
Co322 O332 2.021 . S
Co322 O334 2.137 . S
Co322 O335 2.244 . S
O323 Co322 2.216 . S
O323 C330 1.247 . S
O324 Co322 2.091 . S
O324 C330 1.261 . S
C325 O334 1.247 . S
C325 O335 1.272 . S
O326 Co322 2.004 . S
O326 C331 1.259 . S
Co327 O328 2.061 . S
Co327 O333 2.052 . S
Co327 O335 2.135 . S
O328 Co327 2.061 . S
O328 C331 1.235 . S
C329 O332 1.238 . S
C329 O333 1.241 . S
C330 O323 1.247 . S
C330 O324 1.261 . S
C331 O326 1.259 . S
C331 O328 1.235 . S
O332 Co322 2.021 . S
O332 C329 1.238 . S
O333 Co327 2.052 . S
O333 C329 1.241 . S
O334 Co322 2.137 . S
O334 C325 1.247 . S
O335 Co322 2.244 . S
O335 C325 1.272 . S
O335 Co327 2.135 . S
Dy336 O339 2.307 . S
Dy336 O341 2.395 . S
Dy336 O342 2.379 . S
Dy336 O344 2.339 . S
Dy336 O346 2.298 . S
Dy336 O350 2.275 . S
Dy336 C358 2.738 . S
Dy337 O340 2.288 1_655 S
Dy337 O343 2.255 1_655 S
Dy337 O345 2.296 1_655 S
Dy337 O347 2.439 . S
Dy337 O348 2.420 1_554 S
Dy337 O351 2.314 1_654 S
Dy337 C367 2.786 . S
C338 O350 1.254 1_556 S
C338 O351 1.257 . S
O339 Dy336 2.307 . S
O339 C349 1.266 . S
O340 Dy337 2.288 1_455 S
O340 C349 1.236 . S
O341 Dy336 2.395 . S
O341 C358 1.255 . S
O342 Dy336 2.379 . S
O342 C358 1.249 . S
O343 Dy337 2.255 1_455 S
O343 C359 1.254 . S
O344 Dy336 2.339 . S
O344 C359 1.257 . S
O345 Dy337 2.296 1_455 S
O345 C360 1.256 1_545 S
O346 Dy336 2.298 . S
O346 C360 1.236 1_545 S
O347 Dy337 2.439 . S
O347 C367 1.255 . S
O348 Dy337 2.420 1_556 S
O348 C367 1.249 1_556 S
C349 O339 1.266 . S
C349 O340 1.236 . S
O350 Dy336 2.275 . S
O350 C338 1.254 1_554 S
O351 Dy337 2.314 1_456 S
O351 C338 1.257 . S
C352 C355 1.344 . S
C352 C356 1.328 . S
C352 C358 1.516 . S
C353 C354 1.304 . S
C353 C357 1.323 . S
C354 C353 1.304 . S
C354 C355 1.371 . S
C354 H368 0.930 1_545 S
C355 C352 1.344 . S
C355 C354 1.371 . S
C355 H369 0.931 . S
C356 C352 1.328 . S
C356 C357 1.433 . S
C356 H370 0.931 . S
C357 C353 1.323 . S
C357 C356 1.433 . S
C357 H371 0.933 . S
C358 Dy336 2.738 . S
C358 O341 1.255 . S
C358 O342 1.249 . S
C358 C352 1.516 . S
C359 O343 1.254 . S
C359 O344 1.257 . S
C360 O345 1.256 1_565 S
C360 O346 1.236 1_565 S
C361 C364 1.344 . S
C361 C365 1.328 1_554 S
C361 C367 1.516 . S
C362 C363 1.304 . S
C362 C366 1.323 1_554 S
C363 C362 1.304 . S
C363 C364 1.371 . S
C363 H372 0.930 . S
C364 C361 1.344 . S
C364 C363 1.371 . S
C364 H373 0.931 . S
C365 C361 1.328 1_556 S
C365 C366 1.433 . S
C365 H374 0.931 . S
C366 C362 1.323 1_556 S
C366 C365 1.433 . S
C366 H375 0.933 . S
C367 Dy337 2.786 . S
C367 O347 1.255 . S
C367 O348 1.249 1_554 S
C367 C361 1.516 . S
H368 C354 0.930 1_565 S
H369 C355 0.931 . S
H370 C356 0.931 . S
H371 C357 0.933 . S
H372 C363 0.930 . S
H373 C364 0.931 . S
H374 C365 0.931 . S
H375 C366 0.933 . S
Dy376 O379 2.307 . S
Dy376 O381 2.395 . S
Dy376 O382 2.379 . S
Dy376 O384 2.339 . S
Dy376 O386 2.298 . S
Dy376 O390 2.275 . S
Dy376 C398 2.738 . S
Dy377 O380 2.298 . S
Dy377 O383 2.275 . S
Dy377 O385 2.307 . S
Dy377 O387 2.395 . S
Dy377 O388 2.379 . S
Dy377 O391 2.339 . S
Dy377 C407 2.738 . S
C378 O390 1.254 . S
C378 O391 1.257 . S
O379 Dy376 2.307 . S
O379 C389 1.266 . S
O380 Dy377 2.298 . S
O380 C389 1.236 . S
O381 Dy376 2.395 . S
O381 C398 1.255 . S
O382 Dy376 2.379 . S
O382 C398 1.249 . S
O383 Dy377 2.275 . S
O383 C399 1.254 . S
O384 Dy376 2.339 . S
O384 C399 1.257 . S
O385 Dy377 2.307 . S
O385 C400 1.266 . S
O386 Dy376 2.298 . S
O386 C400 1.236 . S
O387 Dy377 2.395 . S
O387 C407 1.255 . S
O388 Dy377 2.379 . S
O388 C407 1.249 . S
C389 O379 1.266 . S
C389 O380 1.236 . S
O390 Dy376 2.275 . S
O390 C378 1.254 . S
O391 Dy377 2.339 . S
O391 C378 1.257 . S
C392 C395 1.344 . S
C392 C396 1.328 . S
C392 C398 1.516 . S
C393 C394 1.304 . S
C393 C397 1.323 . S
C394 C393 1.304 . S
C394 C395 1.371 . S
C394 H408 0.930 . S
C395 C392 1.344 . S
C395 C394 1.371 . S
C395 H409 0.931 . S
C396 C392 1.328 . S
C396 C397 1.433 . S
C396 H410 0.931 . S
C397 C393 1.323 . S
C397 C396 1.433 . S
C397 H411 0.933 . S
C398 Dy376 2.738 . S
C398 O381 1.255 . S
C398 O382 1.249 . S
C398 C392 1.516 . S
C399 O383 1.254 . S
C399 O384 1.257 . S
C400 O385 1.266 . S
C400 O386 1.236 . S
C401 C404 1.344 . S
C401 C405 1.328 . S
C401 C407 1.516 . S
C402 C403 1.304 . S
C402 C406 1.323 . S
C403 C402 1.304 . S
C403 C404 1.371 . S
C403 H412 0.930 . S
C404 C401 1.344 . S
C404 C403 1.371 . S
C404 H413 0.931 . S
C405 C401 1.328 . S
C405 C406 1.433 . S
C405 H414 0.931 . S
C406 C402 1.323 . S
C406 C405 1.433 . S
C406 H415 0.933 . S
C407 Dy377 2.738 . S
C407 O387 1.255 . S
C407 O388 1.249 . S
C407 C401 1.516 . S
H408 C394 0.930 . S
H409 C395 0.931 . S
H410 C396 0.931 . S
H411 C397 0.933 . S
H412 C403 0.930 . S
H413 C404 0.931 . S
H414 C405 0.931 . S
H415 C406 0.933 . S
Dy416 O419 2.279 1_545 S
Dy416 O421 2.395 . S
Dy416 O422 2.379 . S
Dy416 O424 2.339 . S
Dy416 O426 2.298 . S
Dy416 O430 2.275 . S
Dy416 C438 2.738 . S
Dy417 O420 2.298 . S
Dy417 O423 2.275 . S
Dy417 O425 2.307 . S
Dy417 O427 2.395 . S
Dy417 O428 2.379 . S
Dy417 O431 2.339 . S
Dy417 C447 2.738 . S
C418 O430 1.254 . S
C418 O431 1.257 . S
O419 Dy416 2.279 1_565 S
O419 C429 1.281 . S
O420 Dy417 2.298 . S
O420 C429 1.236 1_545 S
O421 Dy416 2.395 . S
O421 C438 1.255 . S
O422 Dy416 2.379 . S
O422 C438 1.249 . S
O423 Dy417 2.275 . S
O423 C439 1.254 . S
O424 Dy416 2.339 . S
O424 C439 1.257 . S
O425 Dy417 2.307 . S
O425 C440 1.266 . S
O426 Dy416 2.298 . S
O426 C440 1.236 . S
O427 Dy417 2.395 . S
O427 C447 1.255 . S
O428 Dy417 2.379 . S
O428 C447 1.249 . S
C429 O419 1.281 . S
C429 O420 1.236 1_565 S
O430 Dy416 2.275 . S
O430 C418 1.254 . S
O431 Dy417 2.339 . S
O431 C418 1.257 . S
C432 C435 1.344 . S
C432 C436 1.328 . S
C432 C438 1.516 . S
C433 C434 1.304 . S
C433 C437 1.323 . S
C434 C433 1.304 . S
C434 C435 1.371 . S
C434 H448 0.930 . S
C435 C432 1.344 . S
C435 C434 1.371 . S
C435 H449 0.931 . S
C436 C432 1.328 . S
C436 C437 1.433 . S
C436 H450 0.931 . S
C437 C433 1.323 . S
C437 C436 1.433 . S
C437 H451 0.933 . S
C438 Dy416 2.738 . S
C438 O421 1.255 . S
C438 O422 1.249 . S
C438 C432 1.516 . S
C439 O423 1.254 . S
C439 O424 1.257 . S
C440 O425 1.266 . S
C440 O426 1.236 . S
C441 C444 1.344 1_545 S
C441 C445 1.333 . S
C441 C447 1.516 . S
C442 C443 1.304 . S
C442 C446 1.323 . S
C443 C442 1.304 . S
C443 C444 1.371 . S
C443 H452 0.930 . S
C444 C441 1.344 1_565 S
C444 C443 1.371 . S
C444 H453 0.931 . S
C445 C441 1.333 . S
C445 C446 1.397 1_545 S
C445 H454 0.964 . S
C446 C442 1.323 . S
C446 C445 1.397 1_565 S
C446 H455 0.933 . S
C447 Dy417 2.738 . S
C447 O427 1.255 . S
C447 O428 1.249 . S
C447 C441 1.516 . S
H448 C434 0.930 . S
H449 C435 0.931 . S
H450 C436 0.931 . S
H451 C437 0.933 . S
H452 C443 0.930 . S
H453 C444 0.931 . S
H454 C445 0.964 . S
H455 C446 0.933 . S
Dy456 O459 2.307 . S
Dy456 O461 2.395 . S
Dy456 O462 2.379 . S
Dy456 O464 2.339 . S
Dy456 O466 2.298 . S
Dy456 O470 2.275 . S
Dy456 C478 2.738 . S
Dy457 O460 2.298 . S
Dy457 O463 2.275 . S
Dy457 O465 2.307 . S
Dy457 O467 2.395 . S
Dy457 O468 2.379 . S
Dy457 O471 2.339 . S
Dy457 C487 2.738 . S
C458 O470 1.254 . S
C458 O471 1.257 . S
O459 Dy456 2.307 . S
O459 C469 1.266 . S
O460 Dy457 2.298 . S
O460 C469 1.236 . S
O461 Dy456 2.395 . S
O461 C478 1.255 . S
O462 Dy456 2.379 . S
O462 C478 1.249 . S
O463 Dy457 2.275 . S
O463 C479 1.254 . S
O464 Dy456 2.339 . S
O464 C479 1.257 . S
O465 Dy457 2.307 . S
O465 C480 1.266 . S
O466 Dy456 2.298 . S
O466 C480 1.236 . S
O467 Dy457 2.395 . S
O467 C487 1.255 . S
O468 Dy457 2.379 . S
O468 C487 1.249 . S
C469 O459 1.266 . S
C469 O460 1.236 . S
O470 Dy456 2.275 . S
O470 C458 1.254 . S
O471 Dy457 2.339 . S
O471 C458 1.257 . S
C472 C475 1.344 . S
C472 C476 1.328 . S
C472 C478 1.516 . S
C473 C474 1.304 . S
C473 C477 1.323 . S
C474 C473 1.304 . S
C474 C475 1.371 . S
C474 H488 0.930 . S
C475 C472 1.344 . S
C475 C474 1.371 . S
C475 H489 0.931 . S
C476 C472 1.328 . S
C476 C477 1.433 . S
C476 H490 0.931 . S
C477 C473 1.323 . S
C477 C476 1.433 . S
C477 H491 0.933 . S
C478 Dy456 2.738 . S
C478 O461 1.255 . S
C478 O462 1.249 . S
C478 C472 1.516 . S
C479 O463 1.254 . S
C479 O464 1.257 . S
C480 O465 1.266 . S
C480 O466 1.236 . S
C481 C484 1.344 . S
C481 C485 1.328 . S
C481 C487 1.516 . S
C482 C483 1.304 . S
C482 C486 1.323 . S
C483 C482 1.304 . S
C483 C484 1.371 . S
C483 H492 0.930 . S
C484 C481 1.344 . S
C484 C483 1.371 . S
C484 H493 0.931 . S
C485 C481 1.328 . S
C485 C486 1.433 . S
C485 H494 0.931 . S
C486 C482 1.323 . S
C486 C485 1.433 . S
C486 H495 0.933 . S
C487 Dy457 2.738 . S
C487 O467 1.255 . S
C487 O468 1.249 . S
C487 C481 1.516 . S
H488 C474 0.930 . S
H489 C475 0.931 . S
H490 C476 0.931 . S
H491 C477 0.933 . S
H492 C483 0.930 . S
H493 C484 0.931 . S
H494 C485 0.931 . S
H495 C486 0.933 . S
Dy496 O499 2.307 . S
Dy496 O501 2.395 1_545 S
Dy496 O502 2.379 1_545 S
Dy496 O504 2.339 . S
Dy496 O506 2.298 . S
Dy496 O510 2.275 . S
Dy496 C518 2.738 1_545 S
Dy497 O500 2.298 . S
Dy497 O503 2.275 . S
Dy497 O505 2.307 . S
Dy497 O507 2.395 . S
Dy497 O508 2.401 . S
Dy497 O511 2.339 1_455 S
Dy497 C527 2.738 . S
C498 O510 1.254 1_655 S
C498 O511 1.257 . S
O499 Dy496 2.307 . S
O499 C509 1.266 . S
O500 Dy497 2.298 . S
O500 C509 1.236 . S
O501 Dy496 2.395 1_565 S
O501 C518 1.255 . S
O502 Dy496 2.379 1_565 S
O502 C518 1.249 . S
O503 Dy497 2.275 . S
O503 C519 1.254 . S
O504 Dy496 2.339 . S
O504 C519 1.257 . S
O505 Dy497 2.307 . S
O505 C520 1.266 . S
O506 Dy496 2.298 . S
O506 C520 1.236 . S
O507 Dy497 2.395 . S
O507 C527 1.255 . S
O508 Dy497 2.401 . S
O508 C527 1.272 . S
C509 O499 1.266 . S
C509 O500 1.236 . S
O510 Dy496 2.275 . S
O510 C498 1.254 1_455 S
O511 Dy497 2.339 1_655 S
O511 C498 1.257 . S
C512 C515 1.344 . S
C512 C516 1.328 . S
C512 C518 1.516 . S
C513 C514 1.304 . S
C513 C517 1.323 . S
C514 C513 1.304 . S
C514 C515 1.371 . S
C514 H528 0.930 . S
C515 C512 1.344 . S
C515 C514 1.371 . S
C515 H529 0.931 . S
C516 C512 1.328 . S
C516 C517 1.433 . S
C516 H530 0.931 . S
C517 C513 1.323 . S
C517 C516 1.433 . S
C517 H531 0.933 . S
C518 Dy496 2.738 1_565 S
C518 O501 1.255 . S
C518 O502 1.249 . S
C518 C512 1.516 . S
C519 O503 1.254 . S
C519 O504 1.257 . S
C520 O505 1.266 . S
C520 O506 1.236 . S
C521 C524 1.344 . S
C521 C525 1.328 1_455 S
C521 C527 1.516 . S
C522 C523 1.304 . S
C522 C526 1.323 1_455 S
C523 C522 1.304 . S
C523 C524 1.371 . S
C523 H532 0.930 . S
C524 C521 1.344 . S
C524 C523 1.371 . S
C524 H533 0.931 . S
C525 C521 1.328 1_655 S
C525 C526 1.433 . S
C525 H534 0.931 . S
C526 C522 1.323 1_655 S
C526 C525 1.433 . S
C526 H535 0.933 . S
C527 Dy497 2.738 . S
C527 O507 1.255 . S
C527 O508 1.272 . S
C527 C521 1.516 . S
H528 C514 0.930 . S
H529 C515 0.931 . S
H530 C516 0.931 . S
H531 C517 0.933 . S
H532 C523 0.930 . S
H533 C524 0.931 . S
H534 C525 0.931 . S
H535 C526 0.933 . S
Dy536 O539 2.307 . S
Dy536 O541 2.395 . S
Dy536 O542 2.379 . S
Dy536 O544 2.339 . S
Dy536 O546 2.298 . S
Dy536 O550 2.275 . S
Dy536 C558 2.738 . S
Dy537 O540 2.298 . S
Dy537 O543 2.275 . S
Dy537 O545 2.307 . S
Dy537 O547 2.395 . S
Dy537 O548 2.379 . S
Dy537 O551 2.339 . S
Dy537 C567 2.738 . S
C538 O550 1.254 . S
C538 O551 1.257 . S
O539 Dy536 2.307 . S
O539 C549 1.266 . S
O540 Dy537 2.298 . S
O540 C549 1.236 . S
O541 Dy536 2.395 . S
O541 C558 1.255 . S
O542 Dy536 2.379 . S
O542 C558 1.249 . S
O543 Dy537 2.275 . S
O543 C559 1.254 . S
O544 Dy536 2.339 . S
O544 C559 1.257 . S
O545 Dy537 2.307 . S
O545 C560 1.266 . S
O546 Dy536 2.298 . S
O546 C560 1.236 . S
O547 Dy537 2.395 . S
O547 C567 1.255 . S
O548 Dy537 2.379 . S
O548 C567 1.249 . S
C549 O539 1.266 . S
C549 O540 1.236 . S
O550 Dy536 2.275 . S
O550 C538 1.254 . S
O551 Dy537 2.339 . S
O551 C538 1.257 . S
C552 C555 1.344 . S
C552 C556 1.328 . S
C552 C558 1.516 . S
C553 C554 1.304 . S
C553 C557 1.323 . S
C554 C553 1.304 . S
C554 C555 1.371 . S
C554 H568 0.930 . S
C555 C552 1.344 . S
C555 C554 1.371 . S
C555 H569 0.931 . S
C556 C552 1.328 . S
C556 C557 1.433 . S
C556 H570 0.931 . S
C557 C553 1.323 . S
C557 C556 1.433 . S
C557 H571 0.933 . S
C558 Dy536 2.738 . S
C558 O541 1.255 . S
C558 O542 1.249 . S
C558 C552 1.516 . S
C559 O543 1.254 . S
C559 O544 1.257 . S
C560 O545 1.266 . S
C560 O546 1.236 . S
C561 C564 1.344 . S
C561 C565 1.328 . S
C561 C567 1.516 . S
C562 C563 1.304 . S
C562 C566 1.323 . S
C563 C562 1.304 . S
C563 C564 1.371 . S
C563 H572 0.930 . S
C564 C561 1.344 . S
C564 C563 1.371 . S
C564 H573 0.931 . S
C565 C561 1.328 . S
C565 C566 1.433 . S
C565 H574 0.931 . S
C566 C562 1.323 . S
C566 C565 1.433 . S
C566 H575 0.933 . S
C567 Dy537 2.738 . S
C567 O547 1.255 . S
C567 O548 1.249 . S
C567 C561 1.516 . S
H568 C554 0.930 . S
H569 C555 0.931 . S
H570 C556 0.931 . S
H571 C557 0.933 . S
H572 C563 0.930 . S
H573 C564 0.931 . S
H574 C565 0.931 . S
H575 C566 0.933 . S
Dy576 O579 2.307 1_556 S
Dy576 O581 2.395 . S
Dy576 O582 2.379 . S
Dy576 O584 2.339 1_556 S
Dy576 O586 2.298 1_556 S
Dy576 O590 2.275 1_556 S
Dy576 C598 2.738 . S
Dy577 O580 2.298 . S
Dy577 O583 2.275 . S
Dy577 O585 2.307 . S
Dy577 O587 2.395 . S
Dy577 O588 2.411 . S
Dy577 O591 2.339 1_545 S
Dy577 C607 2.738 . S
C578 O590 1.266 . S
C578 O591 1.253 1_545 S
O579 Dy576 2.307 1_554 S
O579 C589 1.266 . S
O580 Dy577 2.298 . S
O580 C589 1.236 . S
O581 Dy576 2.395 . S
O581 C598 1.255 . S
O582 Dy576 2.379 . S
O582 C598 1.249 . S
O583 Dy577 2.275 . S
O583 C599 1.254 . S
O584 Dy576 2.339 1_554 S
O584 C599 1.257 . S
O585 Dy577 2.307 . S
O585 C600 1.266 . S
O586 Dy576 2.298 1_554 S
O586 C600 1.236 . S
O587 Dy577 2.395 . S
O587 C607 1.255 . S
O588 Dy577 2.411 . S
O588 C607 1.285 . S
C589 O579 1.266 . S
C589 O580 1.236 . S
O590 Dy576 2.275 1_554 S
O590 C578 1.266 . S
O591 Dy577 2.339 1_565 S
O591 C578 1.253 1_565 S
C592 C595 1.344 . S
C592 C596 1.328 . S
C592 C598 1.516 . S
C593 C594 1.304 . S
C593 C597 1.323 . S
C594 C593 1.304 . S
C594 C595 1.371 . S
C594 H608 0.930 . S
C595 C592 1.344 . S
C595 C594 1.371 . S
C595 H609 0.931 . S
C596 C592 1.328 . S
C596 C597 1.433 . S
C596 H610 0.931 . S
C597 C593 1.323 . S
C597 C596 1.433 . S
C597 H611 0.933 . S
C598 Dy576 2.738 . S
C598 O581 1.255 . S
C598 O582 1.249 . S
C598 C592 1.516 . S
C599 O583 1.254 . S
C599 O584 1.257 . S
C600 O585 1.266 . S
C600 O586 1.236 . S
C601 C604 1.344 . S
C601 C605 1.328 1_545 S
C601 C607 1.516 . S
C602 C603 1.304 1_565 S
C602 C606 1.323 . S
C603 C602 1.304 1_545 S
C603 C604 1.371 . S
C603 H612 0.930 . S
C604 C601 1.344 . S
C604 C603 1.371 . S
C604 H613 0.931 . S
C605 C601 1.328 1_565 S
C605 C606 1.433 . S
C605 H614 0.931 . S
C606 C602 1.323 . S
C606 C605 1.433 . S
C606 H615 0.933 . S
C607 Dy577 2.738 . S
C607 O587 1.255 . S
C607 O588 1.285 . S
C607 C601 1.516 . S
H608 C594 0.930 . S
H609 C595 0.931 . S
H610 C596 0.931 . S
H611 C597 0.933 . S
H612 C603 0.930 . S
H613 C604 0.931 . S
H614 C605 0.931 . S
H615 C606 0.933 . S
Dy616 O619 2.307 . S
Dy616 O621 2.395 . S
Dy616 O622 2.379 . S
Dy616 O624 2.339 . S
Dy616 O626 2.298 . S
Dy616 O630 2.275 . S
Dy616 C638 2.738 . S
Dy617 O620 2.298 . S
Dy617 O623 2.275 . S
Dy617 O625 2.307 . S
Dy617 O627 2.395 . S
Dy617 O628 2.379 . S
Dy617 O631 2.339 . S
Dy617 C647 2.738 . S
C618 O630 1.254 . S
C618 O631 1.257 . S
O619 Dy616 2.307 . S
O619 C629 1.266 . S
O620 Dy617 2.298 . S
O620 C629 1.236 . S
O621 Dy616 2.395 . S
O621 C638 1.255 . S
O622 Dy616 2.379 . S
O622 C638 1.249 . S
O623 Dy617 2.275 . S
O623 C639 1.254 . S
O624 Dy616 2.339 . S
O624 C639 1.257 . S
O625 Dy617 2.307 . S
O625 C640 1.266 . S
O626 Dy616 2.298 . S
O626 C640 1.236 . S
O627 Dy617 2.395 . S
O627 C647 1.255 . S
O628 Dy617 2.379 . S
O628 C647 1.249 . S
C629 O619 1.266 . S
C629 O620 1.236 . S
O630 Dy616 2.275 . S
O630 C618 1.254 . S
O631 Dy617 2.339 . S
O631 C618 1.257 . S
C632 C635 1.344 . S
C632 C636 1.328 . S
C632 C638 1.516 . S
C633 C634 1.304 . S
C633 C637 1.323 . S
C634 C633 1.304 . S
C634 C635 1.371 . S
C634 H648 0.930 . S
C635 C632 1.344 . S
C635 C634 1.371 . S
C635 H649 0.931 . S
C636 C632 1.328 . S
C636 C637 1.433 . S
C636 H650 0.931 . S
C637 C633 1.323 . S
C637 C636 1.433 . S
C637 H651 0.933 . S
C638 Dy616 2.738 . S
C638 O621 1.255 . S
C638 O622 1.249 . S
C638 C632 1.516 . S
C639 O623 1.254 . S
C639 O624 1.257 . S
C640 O625 1.266 . S
C640 O626 1.236 . S
C641 C644 1.344 . S
C641 C645 1.328 . S
C641 C647 1.516 . S
C642 C643 1.304 . S
C642 C646 1.323 . S
C643 C642 1.304 . S
C643 C644 1.371 . S
C643 H652 0.930 . S
C644 C641 1.344 . S
C644 C643 1.371 . S
C644 H653 0.931 . S
C645 C641 1.328 . S
C645 C646 1.433 . S
C645 H654 0.931 . S
C646 C642 1.323 . S
C646 C645 1.433 . S
C646 H655 0.933 . S
C647 Dy617 2.738 . S
C647 O627 1.255 . S
C647 O628 1.249 . S
C647 C641 1.516 . S
H648 C634 0.930 . S
H649 C635 0.931 . S
H650 C636 0.931 . S
H651 C637 0.933 . S
H652 C643 0.930 . S
H653 C644 0.931 . S
H654 C645 0.931 . S
H655 C646 0.933 . S
Dy656 O659 2.307 1_554 S
Dy656 O661 2.395 . S
Dy656 O662 2.379 . S
Dy656 O664 2.339 . S
Dy656 O666 2.298 . S
Dy656 O670 2.275 . S
Dy656 C678 2.738 . S
Dy657 O660 2.298 1_554 S
Dy657 O663 2.275 . S
Dy657 O665 2.307 . S
Dy657 O667 2.395 . S
Dy657 O668 2.379 . S
Dy657 O671 2.339 . S
Dy657 C687 2.738 . S
C658 O670 1.254 . S
C658 O671 1.257 . S
O659 Dy656 2.307 1_556 S
O659 C669 1.266 . S
O660 Dy657 2.298 1_556 S
O660 C669 1.236 . S
O661 Dy656 2.395 . S
O661 C678 1.255 . S
O662 Dy656 2.379 . S
O662 C678 1.249 . S
O663 Dy657 2.275 . S
O663 C679 1.254 . S
O664 Dy656 2.339 . S
O664 C679 1.257 . S
O665 Dy657 2.307 . S
O665 C680 1.266 . S
O666 Dy656 2.298 . S
O666 C680 1.236 . S
O667 Dy657 2.395 . S
O667 C687 1.255 . S
O668 Dy657 2.379 . S
O668 C687 1.249 . S
C669 O659 1.266 . S
C669 O660 1.236 . S
O670 Dy656 2.275 . S
O670 C658 1.254 . S
O671 Dy657 2.339 . S
O671 C658 1.257 . S
C672 C675 1.344 . S
C672 C676 1.328 . S
C672 C678 1.516 . S
C673 C674 1.304 . S
C673 C677 1.323 . S
C674 C673 1.304 . S
C674 C675 1.371 . S
C674 H688 0.930 . S
C675 C672 1.344 . S
C675 C674 1.371 . S
C675 H689 0.931 . S
C676 C672 1.328 . S
C676 C677 1.433 . S
C676 H690 0.931 . S
C677 C673 1.323 . S
C677 C676 1.433 . S
C677 H691 0.933 . S
C678 Dy656 2.738 . S
C678 O661 1.255 . S
C678 O662 1.249 . S
C678 C672 1.516 . S
C679 O663 1.254 . S
C679 O664 1.257 . S
C680 O665 1.266 . S
C680 O666 1.236 . S
C681 C684 1.344 . S
C681 C685 1.328 . S
C681 C687 1.516 1_556 S
C682 C683 1.304 . S
C682 C686 1.323 . S
C683 C682 1.304 . S
C683 C684 1.371 . S
C683 H692 0.930 . S
C684 C681 1.344 . S
C684 C683 1.371 . S
C684 H693 0.931 . S
C685 C681 1.328 . S
C685 C686 1.433 . S
C685 H694 0.931 1_556 S
C686 C682 1.323 . S
C686 C685 1.433 . S
C686 H695 0.933 . S
C687 Dy657 2.738 . S
C687 O667 1.255 . S
C687 O668 1.249 . S
C687 C681 1.516 1_554 S
H688 C674 0.930 . S
H689 C675 0.931 . S
H690 C676 0.931 . S
H691 C677 0.933 . S
H692 C683 0.930 . S
H693 C684 0.931 . S
H694 C685 0.931 1_554 S
H695 C686 0.933 . S
Dy696 O699 2.307 . S
Dy696 O701 2.395 . S
Dy696 O702 2.379 . S
Dy696 O704 2.339 . S
Dy696 O706 2.298 . S
Dy696 O710 2.275 . S
Dy696 C718 2.738 . S
Dy697 O700 2.298 . S
Dy697 O703 2.275 . S
Dy697 O705 2.307 . S
Dy697 O707 2.395 . S
Dy697 O708 2.379 . S
Dy697 O711 2.339 . S
Dy697 C727 2.738 . S
C698 O710 1.254 . S
C698 O711 1.257 . S
O699 Dy696 2.307 . S
O699 C709 1.266 . S
O700 Dy697 2.298 . S
O700 C709 1.236 . S
O701 Dy696 2.395 . S
O701 C718 1.255 . S
O702 Dy696 2.379 . S
O702 C718 1.249 . S
O703 Dy697 2.275 . S
O703 C719 1.254 . S
O704 Dy696 2.339 . S
O704 C719 1.257 . S
O705 Dy697 2.307 . S
O705 C720 1.266 . S
O706 Dy696 2.298 . S
O706 C720 1.236 . S
O707 Dy697 2.395 . S
O707 C727 1.255 . S
O708 Dy697 2.379 . S
O708 C727 1.249 . S
C709 O699 1.266 . S
C709 O700 1.236 . S
O710 Dy696 2.275 . S
O710 C698 1.254 . S
O711 Dy697 2.339 . S
O711 C698 1.257 . S
C712 C715 1.344 . S
C712 C716 1.328 . S
C712 C718 1.516 . S
C713 C714 1.304 . S
C713 C717 1.323 . S
C714 C713 1.304 . S
C714 C715 1.371 . S
C714 H728 0.930 . S
C715 C712 1.344 . S
C715 C714 1.371 . S
C715 H729 0.931 . S
C716 C712 1.328 . S
C716 C717 1.433 . S
C716 H730 0.931 . S
C717 C713 1.323 . S
C717 C716 1.433 . S
C717 H731 0.933 . S
C718 Dy696 2.738 . S
C718 O701 1.255 . S
C718 O702 1.249 . S
C718 C712 1.516 . S
C719 O703 1.254 . S
C719 O704 1.257 . S
C720 O705 1.266 . S
C720 O706 1.236 . S
C721 C724 1.344 . S
C721 C725 1.328 . S
C721 C727 1.516 . S
C722 C723 1.304 . S
C722 C726 1.323 . S
C723 C722 1.304 . S
C723 C724 1.371 . S
C723 H732 0.930 . S
C724 C721 1.344 . S
C724 C723 1.371 . S
C724 H733 0.931 . S
C725 C721 1.328 . S
C725 C726 1.433 . S
C725 H734 0.931 . S
C726 C722 1.323 . S
C726 C725 1.433 . S
C726 H735 0.933 . S
C727 Dy697 2.738 . S
C727 O707 1.255 . S
C727 O708 1.249 . S
C727 C721 1.516 . S
H728 C714 0.930 . S
H729 C715 0.931 . S
H730 C716 0.931 . S
H731 C717 0.933 . S
H732 C723 0.930 . S
H733 C724 0.931 . S
H734 C725 0.931 . S
H735 C726 0.933 . S
Dy736 O739 2.307 1_455 S
Dy736 O741 2.395 . S
Dy736 O742 2.379 . S
Dy736 O744 2.339 . S
Dy736 O746 2.298 . S
Dy736 O750 2.275 . S
Dy736 C758 2.738 . S
Dy737 O740 2.298 1_455 S
Dy737 O743 2.275 . S
Dy737 O745 2.307 . S
Dy737 O747 2.395 . S
Dy737 O748 2.379 . S
Dy737 O751 2.339 . S
Dy737 C767 2.738 . S
C738 O750 1.254 . S
C738 O751 1.257 . S
O739 Dy736 2.307 1_655 S
O739 C749 1.266 . S
O740 Dy737 2.298 1_655 S
O740 C749 1.236 . S
O741 Dy736 2.395 . S
O741 C758 1.255 . S
O742 Dy736 2.379 . S
O742 C758 1.249 . S
O743 Dy737 2.275 . S
O743 C759 1.254 . S
O744 Dy736 2.339 . S
O744 C759 1.257 . S
O745 Dy737 2.307 . S
O745 C760 1.266 . S
O746 Dy736 2.298 . S
O746 C760 1.236 . S
O747 Dy737 2.395 . S
O747 C767 1.255 . S
O748 Dy737 2.379 . S
O748 C767 1.249 . S
C749 O739 1.266 . S
C749 O740 1.236 . S
O750 Dy736 2.275 . S
O750 C738 1.254 . S
O751 Dy737 2.339 . S
O751 C738 1.257 . S
C752 C755 1.344 . S
C752 C756 1.328 . S
C752 C758 1.516 . S
C753 C754 1.304 . S
C753 C757 1.323 . S
C754 C753 1.304 . S
C754 C755 1.371 . S
C754 H768 0.930 . S
C755 C752 1.344 . S
C755 C754 1.371 . S
C755 H769 0.931 . S
C756 C752 1.328 . S
C756 C757 1.433 . S
C756 H770 0.931 . S
C757 C753 1.323 . S
C757 C756 1.433 . S
C757 H771 0.933 . S
C758 Dy736 2.738 . S
C758 O741 1.255 . S
C758 O742 1.249 . S
C758 C752 1.516 . S
C759 O743 1.254 . S
C759 O744 1.257 . S
C760 O745 1.266 . S
C760 O746 1.236 . S
C761 C764 1.344 . S
C761 C765 1.328 . S
C761 C767 1.516 1_655 S
C762 C763 1.304 . S
C762 C766 1.323 . S
C763 C762 1.304 . S
C763 C764 1.371 . S
C763 H772 0.930 . S
C764 C761 1.344 . S
C764 C763 1.371 . S
C764 H773 0.931 . S
C765 C761 1.328 . S
C765 C766 1.433 . S
C765 H774 0.931 . S
C766 C762 1.323 . S
C766 C765 1.433 . S
C766 H775 0.933 . S
C767 Dy737 2.738 . S
C767 O747 1.255 . S
C767 O748 1.249 . S
C767 C761 1.516 1_455 S
H768 C754 0.930 . S
H769 C755 0.931 . S
H770 C756 0.931 . S
H771 C757 0.933 . S
H772 C763 0.930 . S
H773 C764 0.931 . S
H774 C765 0.931 . S
H775 C766 0.933 . S
Dy776 O779 2.307 . S
Dy776 O781 2.395 . S
Dy776 O782 2.379 . S
Dy776 O784 2.339 . S
Dy776 O786 2.298 . S
Dy776 O790 2.275 . S
Dy776 C798 2.738 . S
Dy777 O780 2.298 . S
Dy777 O783 2.275 . S
Dy777 O785 2.307 . S
Dy777 O787 2.395 . S
Dy777 O788 2.379 . S
Dy777 O791 2.339 . S
Dy777 C807 2.738 . S
C778 O790 1.254 . S
C778 O791 1.257 . S
O779 Dy776 2.307 . S
O779 C789 1.266 . S
O780 Dy777 2.298 . S
O780 C789 1.236 . S
O781 Dy776 2.395 . S
O781 C798 1.255 . S
O782 Dy776 2.379 . S
O782 C798 1.249 . S
O783 Dy777 2.275 . S
O783 C799 1.254 . S
O784 Dy776 2.339 . S
O784 C799 1.257 . S
O785 Dy777 2.307 . S
O785 C800 1.266 . S
O786 Dy776 2.298 . S
O786 C800 1.236 . S
O787 Dy777 2.395 . S
O787 C807 1.255 . S
O788 Dy777 2.379 . S
O788 C807 1.249 . S
C789 O779 1.266 . S
C789 O780 1.236 . S
O790 Dy776 2.275 . S
O790 C778 1.254 . S
O791 Dy777 2.339 . S
O791 C778 1.257 . S
C792 C795 1.344 . S
C792 C796 1.328 . S
C792 C798 1.516 . S
C793 C794 1.304 . S
C793 C797 1.323 . S
C794 C793 1.304 . S
C794 C795 1.371 . S
C794 H808 0.930 . S
C795 C792 1.344 . S
C795 C794 1.371 . S
C795 H809 0.931 . S
C796 C792 1.328 . S
C796 C797 1.433 . S
C796 H810 0.931 . S
C797 C793 1.323 . S
C797 C796 1.433 . S
C797 H811 0.933 . S
C798 Dy776 2.738 . S
C798 O781 1.255 . S
C798 O782 1.249 . S
C798 C792 1.516 . S
C799 O783 1.254 . S
C799 O784 1.257 . S
C800 O785 1.266 . S
C800 O786 1.236 . S
C801 C804 1.344 . S
C801 C805 1.328 . S
C801 C807 1.516 . S
C802 C803 1.304 . S
C802 C806 1.323 . S
C803 C802 1.304 . S
C803 C804 1.371 . S
C803 H812 0.930 . S
C804 C801 1.344 . S
C804 C803 1.371 . S
C804 H813 0.931 . S
C805 C801 1.328 . S
C805 C806 1.433 . S
C805 H814 0.931 . S
C806 C802 1.323 . S
C806 C805 1.433 . S
C806 H815 0.933 . S
C807 Dy777 2.738 . S
C807 O787 1.255 . S
C807 O788 1.249 . S
C807 C801 1.516 . S
H808 C794 0.930 . S
H809 C795 0.931 . S
H810 C796 0.931 . S
H811 C797 0.933 . S
H812 C803 0.930 . S
H813 C804 0.931 . S
H814 C805 0.931 . S
H815 C806 0.933 . S
Dy816 O819 2.307 . S
Dy816 O821 2.395 . S
Dy816 O822 2.379 . S
Dy816 O824 2.339 . S
Dy816 O826 2.298 . S
Dy816 O830 2.275 . S
Dy816 C838 2.738 . S
Dy817 O820 2.298 . S
Dy817 O823 2.275 . S
Dy817 O825 2.307 . S
Dy817 O827 2.395 . S
Dy817 O828 2.379 . S
Dy817 O831 2.339 . S
Dy817 C847 2.738 . S
C818 O830 1.254 . S
C818 O831 1.257 . S
O819 Dy816 2.307 . S
O819 C829 1.266 . S
O820 Dy817 2.298 . S
O820 C829 1.236 . S
O821 Dy816 2.395 . S
O821 C838 1.255 . S
O822 Dy816 2.379 . S
O822 C838 1.249 . S
O823 Dy817 2.275 . S
O823 C839 1.254 . S
O824 Dy816 2.339 . S
O824 C839 1.257 . S
O825 Dy817 2.307 . S
O825 C840 1.266 . S
O826 Dy816 2.298 . S
O826 C840 1.236 . S
O827 Dy817 2.395 . S
O827 C847 1.255 . S
O828 Dy817 2.379 . S
O828 C847 1.249 . S
C829 O819 1.266 . S
C829 O820 1.236 . S
O830 Dy816 2.275 . S
O830 C818 1.254 . S
O831 Dy817 2.339 . S
O831 C818 1.257 . S
C832 C835 1.344 . S
C832 C836 1.328 . S
C832 C838 1.516 . S
C833 C834 1.304 . S
C833 C837 1.323 . S
C834 C833 1.304 . S
C834 C835 1.371 . S
C834 H848 0.930 . S
C835 C832 1.344 . S
C835 C834 1.371 . S
C835 H849 0.931 . S
C836 C832 1.328 . S
C836 C837 1.433 . S
C836 H850 0.931 . S
C837 C833 1.323 . S
C837 C836 1.433 . S
C837 H851 0.933 . S
C838 Dy816 2.738 . S
C838 O821 1.255 . S
C838 O822 1.249 . S
C838 C832 1.516 . S
C839 O823 1.254 . S
C839 O824 1.257 . S
C840 O825 1.266 . S
C840 O826 1.236 . S
C841 C844 1.344 . S
C841 C845 1.328 . S
C841 C847 1.516 . S
C842 C843 1.304 . S
C842 C846 1.323 . S
C843 C842 1.304 . S
C843 C844 1.371 . S
C843 H852 0.930 . S
C844 C841 1.344 . S
C844 C843 1.371 . S
C844 H853 0.931 . S
C845 C841 1.328 . S
C845 C846 1.433 . S
C845 H854 0.931 . S
C846 C842 1.323 . S
C846 C845 1.433 . S
C846 H855 0.933 . S
C847 Dy817 2.738 . S
C847 O827 1.255 . S
C847 O828 1.249 . S
C847 C841 1.516 . S
H848 C834 0.930 . S
H849 C835 0.931 . S
H850 C836 0.931 . S
H851 C837 0.933 . S
H852 C843 0.930 . S
H853 C844 0.931 . S
H854 C845 0.931 . S
H855 C846 0.933 . S
Dy856 O859 2.307 . S
Dy856 O861 2.395 . S
Dy856 O862 2.379 . S
Dy856 O864 2.339 . S
Dy856 O866 2.298 . S
Dy856 O870 2.275 . S
Dy856 C878 2.738 . S
Dy857 O860 2.298 . S
Dy857 O863 2.275 . S
Dy857 O865 2.307 . S
Dy857 O867 2.395 . S
Dy857 O868 2.379 . S
Dy857 O871 2.339 . S
Dy857 C887 2.738 . S
C858 O870 1.254 . S
C858 O871 1.257 . S
O859 Dy856 2.307 . S
O859 C869 1.266 . S
O860 Dy857 2.298 . S
O860 C869 1.236 . S
O861 Dy856 2.395 . S
O861 C878 1.255 . S
O862 Dy856 2.379 . S
O862 C878 1.249 . S
O863 Dy857 2.275 . S
O863 C879 1.254 . S
O864 Dy856 2.339 . S
O864 C879 1.257 . S
O865 Dy857 2.307 . S
O865 C880 1.266 . S
O866 Dy856 2.298 . S
O866 C880 1.236 . S
O867 Dy857 2.395 . S
O867 C887 1.255 . S
O868 Dy857 2.379 . S
O868 C887 1.249 . S
C869 O859 1.266 . S
C869 O860 1.236 . S
O870 Dy856 2.275 . S
O870 C858 1.254 . S
O871 Dy857 2.339 . S
O871 C858 1.257 . S
C872 C875 1.344 . S
C872 C876 1.328 . S
C872 C878 1.516 . S
C873 C874 1.304 . S
C873 C877 1.323 . S
C874 C873 1.304 . S
C874 C875 1.371 . S
C874 H888 0.930 . S
C875 C872 1.344 . S
C875 C874 1.371 . S
C875 H889 0.931 . S
C876 C872 1.328 . S
C876 C877 1.433 . S
C876 H890 0.931 . S
C877 C873 1.323 . S
C877 C876 1.433 . S
C877 H891 0.933 . S
C878 Dy856 2.738 . S
C878 O861 1.255 . S
C878 O862 1.249 . S
C878 C872 1.516 . S
C879 O863 1.254 . S
C879 O864 1.257 . S
C880 O865 1.266 . S
C880 O866 1.236 . S
C881 C884 1.344 . S
C881 C885 1.328 . S
C881 C887 1.516 . S
C882 C883 1.304 . S
C882 C886 1.323 . S
C883 C882 1.304 . S
C883 C884 1.371 . S
C883 H892 0.930 . S
C884 C881 1.344 . S
C884 C883 1.371 . S
C884 H893 0.931 . S
C885 C881 1.328 . S
C885 C886 1.433 . S
C885 H894 0.931 . S
C886 C882 1.323 . S
C886 C885 1.433 . S
C886 H895 0.933 . S
C887 Dy857 2.738 . S
C887 O867 1.255 . S
C887 O868 1.249 . S
C887 C881 1.516 . S
H888 C874 0.930 . S
H889 C875 0.931 . S
H890 C876 0.931 . S
H891 C877 0.933 . S
H892 C883 0.930 . S
H893 C884 0.931 . S
H894 C885 0.931 . S
H895 C886 0.933 . S
Dy896 O899 2.307 . S
Dy896 O901 2.395 . S
Dy896 O902 2.379 . S
Dy896 O904 2.339 . S
Dy896 O906 2.298 . S
Dy896 O910 2.275 . S
Dy896 C918 2.738 . S
Dy897 O900 2.298 . S
Dy897 O903 2.275 . S
Dy897 O905 2.307 . S
Dy897 O907 2.395 . S
Dy897 O908 2.379 . S
Dy897 O911 2.339 . S
Dy897 C927 2.738 . S
C898 O910 1.254 . S
C898 O911 1.257 . S
O899 Dy896 2.307 . S
O899 C909 1.266 . S
O900 Dy897 2.298 . S
O900 C909 1.236 . S
O901 Dy896 2.395 . S
O901 C918 1.255 . S
O902 Dy896 2.379 . S
O902 C918 1.249 . S
O903 Dy897 2.275 . S
O903 C919 1.254 . S
O904 Dy896 2.339 . S
O904 C919 1.257 . S
O905 Dy897 2.307 . S
O905 C920 1.266 . S
O906 Dy896 2.298 . S
O906 C920 1.236 . S
O907 Dy897 2.395 . S
O907 C927 1.255 . S
O908 Dy897 2.379 . S
O908 C927 1.249 . S
C909 O899 1.266 . S
C909 O900 1.236 . S
O910 Dy896 2.275 . S
O910 C898 1.254 . S
O911 Dy897 2.339 . S
O911 C898 1.257 . S
C912 C915 1.344 . S
C912 C916 1.328 . S
C912 C918 1.516 . S
C913 C914 1.304 . S
C913 C917 1.323 . S
C914 C913 1.304 . S
C914 C915 1.371 . S
C914 H928 0.930 . S
C915 C912 1.344 . S
C915 C914 1.371 . S
C915 H929 0.931 . S
C916 C912 1.328 . S
C916 C917 1.433 . S
C916 H930 0.931 . S
C917 C913 1.323 . S
C917 C916 1.433 . S
C917 H931 0.933 . S
C918 Dy896 2.738 . S
C918 O901 1.255 . S
C918 O902 1.249 . S
C918 C912 1.516 . S
C919 O903 1.254 . S
C919 O904 1.257 . S
C920 O905 1.266 . S
C920 O906 1.236 . S
C921 C924 1.344 . S
C921 C925 1.328 . S
C921 C927 1.516 . S
C922 C923 1.304 . S
C922 C926 1.323 . S
C923 C922 1.304 . S
C923 C924 1.371 . S
C923 H932 0.930 . S
C924 C921 1.344 . S
C924 C923 1.371 . S
C924 H933 0.931 . S
C925 C921 1.328 . S
C925 C926 1.433 . S
C925 H934 0.931 . S
C926 C922 1.323 . S
C926 C925 1.433 . S
C926 H935 0.933 . S
C927 Dy897 2.738 . S
C927 O907 1.255 . S
C927 O908 1.249 . S
C927 C921 1.516 . S
H928 C914 0.930 . S
H929 C915 0.931 . S
H930 C916 0.931 . S
H931 C917 0.933 . S
H932 C923 0.930 . S
H933 C924 0.931 . S
H934 C925 0.931 . S
H935 C926 0.933 . S
Dy936 O939 2.278 1_655 S
Dy936 O941 2.443 . S
Dy936 O942 2.423 . S
Dy936 O944 2.309 1_655 S
Dy936 O946 2.281 1_655 S
Dy936 O950 2.252 1_655 S
Dy936 C958 2.790 . S
Dy937 O940 2.298 . S
Dy937 O943 2.275 . S
Dy937 O945 2.307 . S
Dy937 O947 2.395 . S
Dy937 O948 2.379 1_554 S
Dy937 O951 2.339 1_554 S
Dy937 C967 2.738 . S
C938 O950 1.254 1_556 S
C938 O951 1.257 . S
O939 Dy936 2.278 1_455 S
O939 C949 1.266 . S
O940 Dy937 2.298 . S
O940 C949 1.236 . S
O941 Dy936 2.443 . S
O941 C958 1.255 . S
O942 Dy936 2.423 . S
O942 C958 1.249 . S
O943 Dy937 2.275 . S
O943 C959 1.254 . S
O944 Dy936 2.309 1_455 S
O944 C959 1.257 . S
O945 Dy937 2.307 . S
O945 C960 1.266 . S
O946 Dy936 2.281 1_455 S
O946 C960 1.236 . S
O947 Dy937 2.395 . S
O947 C967 1.255 . S
O948 Dy937 2.379 1_556 S
O948 C967 1.249 1_556 S
C949 O939 1.266 . S
C949 O940 1.236 . S
O950 Dy936 2.252 1_455 S
O950 C938 1.254 1_554 S
O951 Dy937 2.339 1_556 S
O951 C938 1.257 . S
C952 C955 1.344 . S
C952 C956 1.328 . S
C952 C958 1.516 . S
C953 C954 1.304 . S
C953 C957 1.323 . S
C954 C953 1.304 . S
C954 C955 1.371 . S
C954 H968 0.930 . S
C955 C952 1.344 . S
C955 C954 1.371 . S
C955 H969 0.931 . S
C956 C952 1.328 . S
C956 C957 1.433 . S
C956 H970 0.931 . S
C957 C953 1.323 . S
C957 C956 1.433 . S
C957 H971 0.933 . S
C958 Dy936 2.790 . S
C958 O941 1.255 . S
C958 O942 1.249 . S
C958 C952 1.516 . S
C959 O943 1.254 . S
C959 O944 1.257 . S
C960 O945 1.266 . S
C960 O946 1.236 . S
C961 C964 1.344 . S
C961 C965 1.328 1_554 S
C961 C967 1.516 . S
C962 C963 1.304 . S
C962 C966 1.323 1_554 S
C963 C962 1.304 . S
C963 C964 1.371 . S
C963 H972 0.930 . S
C964 C961 1.344 . S
C964 C963 1.371 . S
C964 H973 0.931 . S
C965 C961 1.328 1_556 S
C965 C966 1.433 . S
C965 H974 0.931 . S
C966 C962 1.323 1_556 S
C966 C965 1.433 . S
C966 H975 0.933 . S
C967 Dy937 2.738 . S
C967 O947 1.255 . S
C967 O948 1.249 1_554 S
C967 C961 1.516 . S
H968 C954 0.930 . S
H969 C955 0.931 . S
H970 C956 0.931 . S
H971 C957 0.933 . S
H972 C963 0.930 . S
H973 C964 0.931 . S
H974 C965 0.931 . S
H975 C966 0.933 . S
C976 C977 1.386 . S
C976 C978 1.327 . S
C976 H1001 0.950 . S
C977 C976 1.386 . S
C977 C993 1.292 1_655 S
C978 C976 1.327 . S
C978 C997 1.429 1_655 S
C978 H1002 0.950 . S
C979 C996 1.574 . S
C979 C998 1.368 . S
C979 H1003 0.949 . S
H980 C984 0.949 . S
C981 C982 1.349 . S
C981 C983 1.327 . S
C981 H1004 0.950 . S
C982 C981 1.349 . S
C982 C994 1.349 . S
C983 C981 1.327 . S
C983 C999 1.429 . S
C983 H1005 0.950 . S
C984 H980 0.949 . S
C984 C992 1.574 1_554 S
C984 C1000 1.368 1_655 S
H985 C993 0.950 . S
H986 C991 0.950 . S
H987 C992 0.949 . S
H988 C994 0.950 1_655 S
H989 C995 0.950 1_655 S
H990 C996 0.949 . S
C991 H986 0.950 . S
C991 C993 1.327 . S
C991 C997 1.429 . S
C992 C984 1.574 1_556 S
C992 H987 0.949 . S
C992 C998 1.368 1_655 S
C993 C977 1.292 1_455 S
C993 H985 0.950 . S
C993 C991 1.327 . S
C994 C982 1.349 . S
C994 H988 0.950 1_455 S
C994 C995 1.327 . S
C995 H989 0.950 1_455 S
C995 C994 1.327 . S
C995 C999 1.429 . S
C996 C979 1.574 . S
C996 H990 0.949 . S
C996 C1000 1.368 1_556 S
C997 C978 1.429 1_455 S
C997 C991 1.429 . S
C997 C998 1.523 . S
C998 C979 1.368 . S
C998 C992 1.368 1_455 S
C998 C997 1.523 . S
C999 C983 1.429 . S
C999 C995 1.429 . S
C999 C1000 1.523 . S
C1000 C984 1.368 1_455 S
C1000 C996 1.368 1_554 S
C1000 C999 1.523 . S
H1001 C976 0.950 . S
H1002 C978 0.950 . S
H1003 C979 0.949 . S
H1004 C981 0.950 . S
H1005 C983 0.950 . S
C1006 C1007 1.349 . S
C1006 C1008 1.327 . S
C1006 H1031 0.950 . S
C1007 C1006 1.349 . S
C1007 C1023 1.349 . S
C1008 C1006 1.327 . S
C1008 C1027 1.429 . S
C1008 H1032 0.950 . S
C1009 C1026 1.574 . S
C1009 C1028 1.368 . S
C1009 H1033 0.949 . S
H1010 C1014 0.949 . S
C1011 C1012 1.349 . S
C1011 C1013 1.327 . S
C1011 H1034 0.950 . S
C1012 C1011 1.349 . S
C1012 C1024 1.349 . S
C1013 C1011 1.327 . S
C1013 C1029 1.429 . S
C1013 H1035 0.950 . S
C1014 H1010 0.949 . S
C1014 C1022 1.574 . S
C1014 C1030 1.368 . S
H1015 C1023 0.950 . S
H1016 C1021 0.950 . S
H1017 C1022 0.949 . S
H1018 C1024 0.950 . S
H1019 C1025 0.950 . S
H1020 C1026 0.949 . S
C1021 H1016 0.950 . S
C1021 C1023 1.327 . S
C1021 C1027 1.429 . S
C1022 C1014 1.574 . S
C1022 H1017 0.949 . S
C1022 C1028 1.368 . S
C1023 C1007 1.349 . S
C1023 H1015 0.950 . S
C1023 C1021 1.327 . S
C1024 C1012 1.349 . S
C1024 H1018 0.950 . S
C1024 C1025 1.327 . S
C1025 H1019 0.950 . S
C1025 C1024 1.327 . S
C1025 C1029 1.429 . S
C1026 C1009 1.574 . S
C1026 H1020 0.949 . S
C1026 C1030 1.368 . S
C1027 C1008 1.429 . S
C1027 C1021 1.429 . S
C1027 C1028 1.523 . S
C1028 C1009 1.368 . S
C1028 C1022 1.368 . S
C1028 C1027 1.523 . S
C1029 C1013 1.429 . S
C1029 C1025 1.429 . S
C1029 C1030 1.523 . S
C1030 C1014 1.368 . S
C1030 C1026 1.368 . S
C1030 C1029 1.523 . S
H1031 C1006 0.950 . S
H1032 C1008 0.950 . S
H1033 C1009 0.949 . S
H1034 C1011 0.950 . S
H1035 C1013 0.950 . S
C1036 C1037 1.349 . S
C1036 C1038 1.327 . S
C1036 H1061 0.950 . S
C1037 C1036 1.349 . S
C1037 C1053 1.349 . S
C1038 C1036 1.327 . S
C1038 C1057 1.429 . S
C1038 H1062 0.950 . S
C1039 C1056 1.574 . S
C1039 C1058 1.368 . S
C1039 H1063 0.949 . S
H1040 C1044 0.949 . S
C1041 C1042 1.349 . S
C1041 C1043 1.327 . S
C1041 H1064 0.950 . S
C1042 C1041 1.349 . S
C1042 C1054 1.349 . S
C1043 C1041 1.327 . S
C1043 C1059 1.429 . S
C1043 H1065 0.950 . S
C1044 H1040 0.949 . S
C1044 C1052 1.574 . S
C1044 C1060 1.368 . S
H1045 C1053 0.950 . S
H1046 C1051 0.950 . S
H1047 C1052 0.949 . S
H1048 C1054 0.950 . S
H1049 C1055 0.950 . S
H1050 C1056 0.949 . S
C1051 H1046 0.950 . S
C1051 C1053 1.327 . S
C1051 C1057 1.429 . S
C1052 C1044 1.574 . S
C1052 H1047 0.949 . S
C1052 C1058 1.368 . S
C1053 C1037 1.349 . S
C1053 H1045 0.950 . S
C1053 C1051 1.327 . S
C1054 C1042 1.349 . S
C1054 H1048 0.950 . S
C1054 C1055 1.327 . S
C1055 H1049 0.950 . S
C1055 C1054 1.327 . S
C1055 C1059 1.429 . S
C1056 C1039 1.574 . S
C1056 H1050 0.949 . S
C1056 C1060 1.368 . S
C1057 C1038 1.429 . S
C1057 C1051 1.429 . S
C1057 C1058 1.523 . S
C1058 C1039 1.368 . S
C1058 C1052 1.368 . S
C1058 C1057 1.523 . S
C1059 C1043 1.429 . S
C1059 C1055 1.429 . S
C1059 C1060 1.523 . S
C1060 C1044 1.368 . S
C1060 C1056 1.368 . S
C1060 C1059 1.523 . S
H1061 C1036 0.950 . S
H1062 C1038 0.950 . S
H1063 C1039 0.949 . S
H1064 C1041 0.950 . S
H1065 C1043 0.950 . S
C1066 C1067 1.349 . S
C1066 C1068 1.327 . S
C1066 H1091 0.950 . S
C1067 C1066 1.349 . S
C1067 C1083 1.349 . S
C1068 C1066 1.327 . S
C1068 C1087 1.429 . S
C1068 H1092 0.950 . S
C1069 C1086 1.574 . S
C1069 C1088 1.368 . S
C1069 H1093 0.949 . S
H1070 C1074 0.949 . S
C1071 C1072 1.349 . S
C1071 C1073 1.327 . S
C1071 H1094 0.950 . S
C1072 C1071 1.349 . S
C1072 C1084 1.349 . S
C1073 C1071 1.327 . S
C1073 C1089 1.429 . S
C1073 H1095 0.950 . S
C1074 H1070 0.949 . S
C1074 C1082 1.574 . S
C1074 C1090 1.368 . S
H1075 C1083 0.950 . S
H1076 C1081 0.950 . S
H1077 C1082 0.949 . S
H1078 C1084 0.950 . S
H1079 C1085 0.950 . S
H1080 C1086 0.949 . S
C1081 H1076 0.950 . S
C1081 C1083 1.327 . S
C1081 C1087 1.429 . S
C1082 C1074 1.574 . S
C1082 H1077 0.949 . S
C1082 C1088 1.368 . S
C1083 C1067 1.349 . S
C1083 H1075 0.950 . S
C1083 C1081 1.327 . S
C1084 C1072 1.349 . S
C1084 H1078 0.950 . S
C1084 C1085 1.327 . S
C1085 H1079 0.950 . S
C1085 C1084 1.327 . S
C1085 C1089 1.429 . S
C1086 C1069 1.574 . S
C1086 H1080 0.949 . S
C1086 C1090 1.368 . S
C1087 C1068 1.429 . S
C1087 C1081 1.429 . S
C1087 C1088 1.523 . S
C1088 C1069 1.368 . S
C1088 C1082 1.368 . S
C1088 C1087 1.523 . S
C1089 C1073 1.429 . S
C1089 C1085 1.429 . S
C1089 C1090 1.523 . S
C1090 C1074 1.368 . S
C1090 C1086 1.368 . S
C1090 C1089 1.523 . S
H1091 C1066 0.950 . S
H1092 C1068 0.950 . S
H1093 C1069 0.949 . S
H1094 C1071 0.950 . S
H1095 C1073 0.950 . S
C1096 C1097 1.349 . S
C1096 C1098 1.327 . S
C1096 H1121 0.950 . S
C1097 C1096 1.349 . S
C1097 C1113 1.349 . S
C1098 C1096 1.327 . S
C1098 C1117 1.429 . S
C1098 H1122 0.950 . S
C1099 C1116 1.574 . S
C1099 C1118 1.368 . S
C1099 H1123 0.949 . S
H1100 C1104 0.949 . S
C1101 C1102 1.349 . S
C1101 C1103 1.327 . S
C1101 H1124 0.950 . S
C1102 C1101 1.349 . S
C1102 C1114 1.349 . S
C1103 C1101 1.327 . S
C1103 C1119 1.429 . S
C1103 H1125 0.950 . S
C1104 H1100 0.949 . S
C1104 C1112 1.574 . S
C1104 C1120 1.368 . S
H1105 C1113 0.929 1_655 S
H1106 C1111 0.950 . S
H1107 C1112 0.949 . S
H1108 C1114 0.950 . S
H1109 C1115 0.950 . S
H1110 C1116 0.949 . S
C1111 H1106 0.950 . S
C1111 C1113 1.327 . S
C1111 C1117 1.429 . S
C1112 C1104 1.574 . S
C1112 H1107 0.949 . S
C1112 C1118 1.368 . S
C1113 C1097 1.349 . S
C1113 H1105 0.929 1_455 S
C1113 C1111 1.327 . S
C1114 C1102 1.349 . S
C1114 H1108 0.950 . S
C1114 C1115 1.327 . S
C1115 H1109 0.950 . S
C1115 C1114 1.327 . S
C1115 C1119 1.429 . S
C1116 C1099 1.574 . S
C1116 H1110 0.949 . S
C1116 C1120 1.368 . S
C1117 C1098 1.429 . S
C1117 C1111 1.429 . S
C1117 C1118 1.523 . S
C1118 C1099 1.368 . S
C1118 C1112 1.368 . S
C1118 C1117 1.523 . S
C1119 C1103 1.429 . S
C1119 C1115 1.429 . S
C1119 C1120 1.523 . S
C1120 C1104 1.368 . S
C1120 C1116 1.368 . S
C1120 C1119 1.523 . S
H1121 C1096 0.950 . S
H1122 C1098 0.950 . S
H1123 C1099 0.949 . S
H1124 C1101 0.950 . S
H1125 C1103 0.950 . S
C1126 C1127 1.349 . S
C1126 C1128 1.327 . S
C1126 H1151 0.950 . S
C1127 C1126 1.349 . S
C1127 C1143 1.349 . S
C1128 C1126 1.327 . S
C1128 C1147 1.429 . S
C1128 H1152 0.950 . S
C1129 C1146 1.574 . S
C1129 C1148 1.368 . S
C1129 H1153 0.949 . S
H1130 C1134 0.949 . S
C1131 C1132 1.349 . S
C1131 C1133 1.327 . S
C1131 H1154 0.950 . S
C1132 C1131 1.349 . S
C1132 C1144 1.349 . S
C1133 C1131 1.327 . S
C1133 C1149 1.429 . S
C1133 H1155 0.950 . S
C1134 H1130 0.949 . S
C1134 C1142 1.574 . S
C1134 C1150 1.368 . S
H1135 C1143 0.950 . S
H1136 C1141 0.950 . S
H1137 C1142 0.949 . S
H1138 C1144 0.950 . S
H1139 C1145 0.950 . S
H1140 C1146 0.949 . S
C1141 H1136 0.950 . S
C1141 C1143 1.327 . S
C1141 C1147 1.429 . S
C1142 C1134 1.574 . S
C1142 H1137 0.949 . S
C1142 C1148 1.368 . S
C1143 C1127 1.349 . S
C1143 H1135 0.950 . S
C1143 C1141 1.327 . S
C1144 C1132 1.349 . S
C1144 H1138 0.950 . S
C1144 C1145 1.327 . S
C1145 H1139 0.950 . S
C1145 C1144 1.327 . S
C1145 C1149 1.429 . S
C1146 C1129 1.574 . S
C1146 H1140 0.949 . S
C1146 C1150 1.368 . S
C1147 C1128 1.429 . S
C1147 C1141 1.429 . S
C1147 C1148 1.523 . S
C1148 C1129 1.368 . S
C1148 C1142 1.368 . S
C1148 C1147 1.523 . S
C1149 C1133 1.429 . S
C1149 C1145 1.429 . S
C1149 C1150 1.523 . S
C1150 C1134 1.368 . S
C1150 C1146 1.368 . S
C1150 C1149 1.523 . S
H1151 C1126 0.950 . S
H1152 C1128 0.950 . S
H1153 C1129 0.949 . S
H1154 C1131 0.950 . S
H1155 C1133 0.950 . S
C1156 C1157 1.349 . S
C1156 C1158 1.327 . S
C1156 H1181 0.950 . S
C1157 C1156 1.349 . S
C1157 C1173 1.349 . S
C1158 C1156 1.327 . S
C1158 C1177 1.429 . S
C1158 H1182 0.950 . S
C1159 C1176 1.574 . S
C1159 C1178 1.368 . S
C1159 H1183 0.949 . S
H1160 C1164 0.949 . S
C1161 C1162 1.349 . S
C1161 C1163 1.327 . S
C1161 H1184 0.950 . S
C1162 C1161 1.349 . S
C1162 C1174 1.349 . S
C1163 C1161 1.327 . S
C1163 C1179 1.429 . S
C1163 H1185 0.950 . S
C1164 H1160 0.949 . S
C1164 C1172 1.574 . S
C1164 C1180 1.368 . S
H1165 C1173 0.950 . S
H1166 C1171 0.950 . S
H1167 C1172 0.949 . S
H1168 C1174 0.950 . S
H1169 C1175 0.950 . S
H1170 C1176 0.949 . S
C1171 H1166 0.950 . S
C1171 C1173 1.327 . S
C1171 C1177 1.429 . S
C1172 C1164 1.574 . S
C1172 H1167 0.949 . S
C1172 C1178 1.368 . S
C1173 C1157 1.349 . S
C1173 H1165 0.950 . S
C1173 C1171 1.327 . S
C1174 C1162 1.349 . S
C1174 H1168 0.950 . S
C1174 C1175 1.327 . S
C1175 H1169 0.950 . S
C1175 C1174 1.327 . S
C1175 C1179 1.429 . S
C1176 C1159 1.574 . S
C1176 H1170 0.949 . S
C1176 C1180 1.368 . S
C1177 C1158 1.429 . S
C1177 C1171 1.429 . S
C1177 C1178 1.523 . S
C1178 C1159 1.368 . S
C1178 C1172 1.368 . S
C1178 C1177 1.523 . S
C1179 C1163 1.429 . S
C1179 C1175 1.429 . S
C1179 C1180 1.523 . S
C1180 C1164 1.368 . S
C1180 C1176 1.368 . S
C1180 C1179 1.523 . S
H1181 C1156 0.950 . S
H1182 C1158 0.950 . S
H1183 C1159 0.949 . S
H1184 C1161 0.950 . S
H1185 C1163 0.950 . S
C1186 C1187 1.349 . S
C1186 C1188 1.327 . S
C1186 H1211 0.950 . S
C1187 C1186 1.349 . S
C1187 C1203 1.349 . S
C1188 C1186 1.327 . S
C1188 C1207 1.429 . S
C1188 H1212 0.950 . S
C1189 C1206 1.574 . S
C1189 C1208 1.368 . S
C1189 H1213 0.949 . S
H1190 C1194 0.949 . S
C1191 C1192 1.349 . S
C1191 C1193 1.327 . S
C1191 H1214 0.950 . S
C1192 C1191 1.349 . S
C1192 C1204 1.349 . S
C1193 C1191 1.327 . S
C1193 C1209 1.429 . S
C1193 H1215 0.950 . S
C1194 H1190 0.949 . S
C1194 C1202 1.574 . S
C1194 C1210 1.368 . S
H1195 C1203 0.950 . S
H1196 C1201 0.950 . S
H1197 C1202 0.949 . S
H1198 C1204 0.950 . S
H1199 C1205 0.950 . S
H1200 C1206 0.949 . S
C1201 H1196 0.950 . S
C1201 C1203 1.327 . S
C1201 C1207 1.429 . S
C1202 C1194 1.574 . S
C1202 H1197 0.949 . S
C1202 C1208 1.368 . S
C1203 C1187 1.349 . S
C1203 H1195 0.950 . S
C1203 C1201 1.327 . S
C1204 C1192 1.349 . S
C1204 H1198 0.950 . S
C1204 C1205 1.327 . S
C1205 H1199 0.950 . S
C1205 C1204 1.327 . S
C1205 C1209 1.429 . S
C1206 C1189 1.574 . S
C1206 H1200 0.949 . S
C1206 C1210 1.368 . S
C1207 C1188 1.429 . S
C1207 C1201 1.429 . S
C1207 C1208 1.523 . S
C1208 C1189 1.368 . S
C1208 C1202 1.368 . S
C1208 C1207 1.523 . S
C1209 C1193 1.429 . S
C1209 C1205 1.429 . S
C1209 C1210 1.523 . S
C1210 C1194 1.368 . S
C1210 C1206 1.368 . S
C1210 C1209 1.523 . S
H1211 C1186 0.950 . S
H1212 C1188 0.950 . S
H1213 C1189 0.949 . S
H1214 C1191 0.950 . S
H1215 C1193 0.950 . S
C1216 C1217 1.349 . S
C1216 C1218 1.327 . S
C1216 H1241 0.950 . S
C1217 C1216 1.349 . S
C1217 C1233 1.349 . S
C1218 C1216 1.327 . S
C1218 C1237 1.429 . S
C1218 H1242 0.950 . S
C1219 C1236 1.564 1_655 S
C1219 C1238 1.368 . S
C1219 H1243 0.949 . S
H1220 C1224 0.949 . S
C1221 C1222 1.349 . S
C1221 C1223 1.327 . S
C1221 H1244 0.950 . S
C1222 C1221 1.349 . S
C1222 C1234 1.349 1_455 S
C1223 C1221 1.327 . S
C1223 C1239 1.429 1_455 S
C1223 H1245 0.950 . S
C1224 H1220 0.949 . S
C1224 C1232 1.574 . S
C1224 C1240 1.368 . S
H1225 C1233 0.950 . S
H1226 C1231 0.950 . S
H1227 C1232 0.949 . S
H1228 C1234 0.950 . S
H1229 C1235 0.950 . S
H1230 C1236 0.964 . S
C1231 H1226 0.950 . S
C1231 C1233 1.327 . S
C1231 C1237 1.429 . S
C1232 C1224 1.574 . S
C1232 H1227 0.949 . S
C1232 C1238 1.368 . S
C1233 C1217 1.349 . S
C1233 H1225 0.950 . S
C1233 C1231 1.327 . S
C1234 C1222 1.349 1_655 S
C1234 H1228 0.950 . S
C1234 C1235 1.327 . S
C1235 H1229 0.950 . S
C1235 C1234 1.327 . S
C1235 C1239 1.429 . S
C1236 C1219 1.564 1_455 S
C1236 H1230 0.964 . S
C1236 C1240 1.362 1_455 S
C1237 C1218 1.429 . S
C1237 C1231 1.429 . S
C1237 C1238 1.523 . S
C1238 C1219 1.368 . S
C1238 C1232 1.368 . S
C1238 C1237 1.523 . S
C1239 C1223 1.429 1_655 S
C1239 C1235 1.429 . S
C1239 C1240 1.523 . S
C1240 C1224 1.368 . S
C1240 C1236 1.362 1_655 S
C1240 C1239 1.523 . S
H1241 C1216 0.950 . S
H1242 C1218 0.950 . S
H1243 C1219 0.949 . S
H1244 C1221 0.950 . S
H1245 C1223 0.950 . S
C1246 C1247 1.349 . S
C1246 C1248 1.327 . S
C1246 H1271 0.950 . S
C1247 C1246 1.349 . S
C1247 C1263 1.349 . S
C1248 C1246 1.327 . S
C1248 C1267 1.429 . S
C1248 H1272 0.950 . S
C1249 C1266 1.574 . S
C1249 C1268 1.368 . S
C1249 H1273 0.949 . S
H1250 C1254 0.949 . S
C1251 C1252 1.349 . S
C1251 C1253 1.327 . S
C1251 H1274 0.950 . S
C1252 C1251 1.349 . S
C1252 C1264 1.349 . S
C1253 C1251 1.327 . S
C1253 C1269 1.429 . S
C1253 H1275 0.950 . S
C1254 H1250 0.949 . S
C1254 C1262 1.574 . S
C1254 C1270 1.368 . S
H1255 C1263 0.950 . S
H1256 C1261 0.950 . S
H1257 C1262 0.949 . S
H1258 C1264 0.950 . S
H1259 C1265 0.950 . S
H1260 C1266 0.949 . S
C1261 H1256 0.950 . S
C1261 C1263 1.327 . S
C1261 C1267 1.429 . S
C1262 C1254 1.574 . S
C1262 H1257 0.949 . S
C1262 C1268 1.368 . S
C1263 C1247 1.349 . S
C1263 H1255 0.950 . S
C1263 C1261 1.327 . S
C1264 C1252 1.349 . S
C1264 H1258 0.950 . S
C1264 C1265 1.327 . S
C1265 H1259 0.950 . S
C1265 C1264 1.327 . S
C1265 C1269 1.429 . S
C1266 C1249 1.574 . S
C1266 H1260 0.949 . S
C1266 C1270 1.368 . S
C1267 C1248 1.429 . S
C1267 C1261 1.429 . S
C1267 C1268 1.523 . S
C1268 C1249 1.368 . S
C1268 C1262 1.368 . S
C1268 C1267 1.523 . S
C1269 C1253 1.429 . S
C1269 C1265 1.429 . S
C1269 C1270 1.523 . S
C1270 C1254 1.368 . S
C1270 C1266 1.368 . S
C1270 C1269 1.523 . S
H1271 C1246 0.950 . S
H1272 C1248 0.950 . S
H1273 C1249 0.949 . S
H1274 C1251 0.950 . S
H1275 C1253 0.950 . S
C1276 C1277 1.349 . S
C1276 C1278 1.327 . S
C1276 H1301 0.950 . S
C1277 C1276 1.349 . S
C1277 C1293 1.349 . S
C1278 C1276 1.327 . S
C1278 C1297 1.429 . S
C1278 H1302 0.950 . S
C1279 C1296 1.574 . S
C1279 C1298 1.368 . S
C1279 H1303 0.949 . S
H1280 C1284 0.949 . S
C1281 C1282 1.349 . S
C1281 C1283 1.327 . S
C1281 H1304 0.950 . S
C1282 C1281 1.349 . S
C1282 C1294 1.349 . S
C1283 C1281 1.327 . S
C1283 C1299 1.429 . S
C1283 H1305 0.950 . S
C1284 H1280 0.949 . S
C1284 C1292 1.574 . S
C1284 C1300 1.368 . S
H1285 C1293 0.950 . S
H1286 C1291 0.950 . S
H1287 C1292 0.949 . S
H1288 C1294 0.950 . S
H1289 C1295 0.950 . S
H1290 C1296 0.949 . S
C1291 H1286 0.950 . S
C1291 C1293 1.327 . S
C1291 C1297 1.429 . S
C1292 C1284 1.574 . S
C1292 H1287 0.949 . S
C1292 C1298 1.368 . S
C1293 C1277 1.349 . S
C1293 H1285 0.950 . S
C1293 C1291 1.327 . S
C1294 C1282 1.349 . S
C1294 H1288 0.950 . S
C1294 C1295 1.327 . S
C1295 H1289 0.950 . S
C1295 C1294 1.327 . S
C1295 C1299 1.429 . S
C1296 C1279 1.574 . S
C1296 H1290 0.949 . S
C1296 C1300 1.368 . S
C1297 C1278 1.429 . S
C1297 C1291 1.429 . S
C1297 C1298 1.523 . S
C1298 C1279 1.368 . S
C1298 C1292 1.368 . S
C1298 C1297 1.523 . S
C1299 C1283 1.429 . S
C1299 C1295 1.429 . S
C1299 C1300 1.523 . S
C1300 C1284 1.368 . S
C1300 C1296 1.368 . S
C1300 C1299 1.523 . S
H1301 C1276 0.950 . S
H1302 C1278 0.950 . S
H1303 C1279 0.949 . S
H1304 C1281 0.950 . S
H1305 C1283 0.950 . S
C1306 C1307 1.349 . S
C1306 C1308 1.327 . S
C1306 H1331 0.950 . S
C1307 C1306 1.349 . S
C1307 C1323 1.349 . S
C1308 C1306 1.327 . S
C1308 C1327 1.429 . S
C1308 H1332 0.950 . S
C1309 C1326 1.574 . S
C1309 C1328 1.368 . S
C1309 H1333 0.949 . S
H1310 C1314 0.949 . S
C1311 C1312 1.349 . S
C1311 C1313 1.327 . S
C1311 H1334 0.950 . S
C1312 C1311 1.349 . S
C1312 C1324 1.349 . S
C1313 C1311 1.327 . S
C1313 C1329 1.429 . S
C1313 H1335 0.950 . S
C1314 H1310 0.949 . S
C1314 C1322 1.574 . S
C1314 C1330 1.368 . S
H1315 C1323 0.950 . S
H1316 C1321 0.950 . S
H1317 C1322 0.949 . S
H1318 C1324 0.950 . S
H1319 C1325 0.950 . S
H1320 C1326 0.949 . S
C1321 H1316 0.950 . S
C1321 C1323 1.327 . S
C1321 C1327 1.429 . S
C1322 C1314 1.574 . S
C1322 H1317 0.949 . S
C1322 C1328 1.368 . S
C1323 C1307 1.349 . S
C1323 H1315 0.950 . S
C1323 C1321 1.327 . S
C1324 C1312 1.349 . S
C1324 H1318 0.950 . S
C1324 C1325 1.327 . S
C1325 H1319 0.950 . S
C1325 C1324 1.327 . S
C1325 C1329 1.429 . S
C1326 C1309 1.574 . S
C1326 H1320 0.949 . S
C1326 C1330 1.368 . S
C1327 C1308 1.429 . S
C1327 C1321 1.429 . S
C1327 C1328 1.523 . S
C1328 C1309 1.368 . S
C1328 C1322 1.368 . S
C1328 C1327 1.523 . S
C1329 C1313 1.429 . S
C1329 C1325 1.429 . S
C1329 C1330 1.523 . S
C1330 C1314 1.368 . S
C1330 C1326 1.368 . S
C1330 C1329 1.523 . S
H1331 C1306 0.950 . S
H1332 C1308 0.950 . S
H1333 C1309 0.949 . S
H1334 C1311 0.950 . S
H1335 C1313 0.950 . S
C1336 C1337 1.349 . S
C1336 C1338 1.327 . S
C1336 H1361 0.950 . S
C1337 C1336 1.349 . S
C1337 C1353 1.349 . S
C1338 C1336 1.327 . S
C1338 C1357 1.429 . S
C1338 H1362 0.950 . S
C1339 C1356 1.574 . S
C1339 C1358 1.368 . S
C1339 H1363 0.949 . S
H1340 C1344 0.949 . S
C1341 C1342 1.349 . S
C1341 C1343 1.327 . S
C1341 H1364 0.950 . S
C1342 C1341 1.349 . S
C1342 C1354 1.349 . S
C1343 C1341 1.327 . S
C1343 C1359 1.407 1_455 S
C1343 H1365 0.950 . S
C1344 H1340 0.949 . S
C1344 C1352 1.574 . S
C1344 C1360 1.368 . S
H1345 C1353 0.950 . S
H1346 C1351 0.950 . S
H1347 C1352 0.949 . S
H1348 C1354 0.950 . S
H1349 C1355 0.928 1_655 S
H1350 C1356 0.949 . S
C1351 H1346 0.950 . S
C1351 C1353 1.327 . S
C1351 C1357 1.429 . S
C1352 C1344 1.574 . S
C1352 H1347 0.949 . S
C1352 C1358 1.368 . S
C1353 C1337 1.349 . S
C1353 H1345 0.950 . S
C1353 C1351 1.327 . S
C1354 C1342 1.349 . S
C1354 H1348 0.950 . S
C1354 C1355 1.341 . S
C1355 H1349 0.928 1_455 S
C1355 C1354 1.341 . S
C1355 C1359 1.447 1_455 S
C1356 C1339 1.574 . S
C1356 H1350 0.949 . S
C1356 C1360 1.368 . S
C1357 C1338 1.429 . S
C1357 C1351 1.429 . S
C1357 C1358 1.523 . S
C1358 C1339 1.368 . S
C1358 C1352 1.368 . S
C1358 C1357 1.523 . S
C1359 C1343 1.407 1_655 S
C1359 C1355 1.447 1_655 S
C1359 C1360 1.536 . S
C1360 C1344 1.368 . S
C1360 C1356 1.368 . S
C1360 C1359 1.536 . S
H1361 C1336 0.950 . S
H1362 C1338 0.950 . S
H1363 C1339 0.949 . S
H1364 C1341 0.950 . S
H1365 C1343 0.950 . S
C1366 C1367 1.349 . S
C1366 C1368 1.327 . S
C1366 H1391 0.950 . S
C1367 C1366 1.349 . S
C1367 C1383 1.349 . S
C1368 C1366 1.327 . S
C1368 C1387 1.429 . S
C1368 H1392 0.950 . S
C1369 C1386 1.574 . S
C1369 C1388 1.368 . S
C1369 H1393 0.949 . S
H1370 C1374 0.949 . S
C1371 C1372 1.349 . S
C1371 C1373 1.327 . S
C1371 H1394 0.950 . S
C1372 C1371 1.349 . S
C1372 C1384 1.349 . S
C1373 C1371 1.327 . S
C1373 C1389 1.429 . S
C1373 H1395 0.950 . S
C1374 H1370 0.949 . S
C1374 C1382 1.574 . S
C1374 C1390 1.368 . S
H1375 C1383 0.950 . S
H1376 C1381 0.950 . S
H1377 C1382 0.949 . S
H1378 C1384 0.950 . S
H1379 C1385 0.950 . S
H1380 C1386 0.949 . S
C1381 H1376 0.950 . S
C1381 C1383 1.327 . S
C1381 C1387 1.429 . S
C1382 C1374 1.574 . S
C1382 H1377 0.949 . S
C1382 C1388 1.368 . S
C1383 C1367 1.349 . S
C1383 H1375 0.950 . S
C1383 C1381 1.327 . S
C1384 C1372 1.349 . S
C1384 H1378 0.950 . S
C1384 C1385 1.327 . S
C1385 H1379 0.950 . S
C1385 C1384 1.327 . S
C1385 C1389 1.429 . S
C1386 C1369 1.574 . S
C1386 H1380 0.949 . S
C1386 C1390 1.368 . S
C1387 C1368 1.429 . S
C1387 C1381 1.429 . S
C1387 C1388 1.523 . S
C1388 C1369 1.368 . S
C1388 C1382 1.368 . S
C1388 C1387 1.523 . S
C1389 C1373 1.429 . S
C1389 C1385 1.429 . S
C1389 C1390 1.523 . S
C1390 C1374 1.368 . S
C1390 C1386 1.368 . S
C1390 C1389 1.523 . S
H1391 C1366 0.950 . S
H1392 C1368 0.950 . S
H1393 C1369 0.949 . S
H1394 C1371 0.950 . S
H1395 C1373 0.950 . S
C1396 C1397 1.349 . S
C1396 C1398 1.327 . S
C1396 H1421 0.950 . S
C1397 C1396 1.349 . S
C1397 C1413 1.349 . S
C1398 C1396 1.327 . S
C1398 C1417 1.429 . S
C1398 H1422 0.950 . S
C1399 C1416 1.574 . S
C1399 C1418 1.368 . S
C1399 H1423 0.949 . S
H1400 C1404 0.949 . S
C1401 C1402 1.349 . S
C1401 C1403 1.327 . S
C1401 H1424 0.950 . S
C1402 C1401 1.349 . S
C1402 C1414 1.349 . S
C1403 C1401 1.327 . S
C1403 C1419 1.429 . S
C1403 H1425 0.950 . S
C1404 H1400 0.949 . S
C1404 C1412 1.574 . S
C1404 C1420 1.368 . S
H1405 C1413 0.950 . S
H1406 C1411 0.950 . S
H1407 C1412 0.949 . S
H1408 C1414 0.950 . S
H1409 C1415 0.950 . S
H1410 C1416 0.949 . S
C1411 H1406 0.950 . S
C1411 C1413 1.327 . S
C1411 C1417 1.429 . S
C1412 C1404 1.574 . S
C1412 H1407 0.949 . S
C1412 C1418 1.368 . S
C1413 C1397 1.349 . S
C1413 H1405 0.950 . S
C1413 C1411 1.327 . S
C1414 C1402 1.349 . S
C1414 H1408 0.950 . S
C1414 C1415 1.327 . S
C1415 H1409 0.950 . S
C1415 C1414 1.327 . S
C1415 C1419 1.429 . S
C1416 C1399 1.574 . S
C1416 H1410 0.949 . S
C1416 C1420 1.368 . S
C1417 C1398 1.429 . S
C1417 C1411 1.429 . S
C1417 C1418 1.523 . S
C1418 C1399 1.368 . S
C1418 C1412 1.368 . S
C1418 C1417 1.523 . S
C1419 C1403 1.429 . S
C1419 C1415 1.429 . S
C1419 C1420 1.523 . S
C1420 C1404 1.368 . S
C1420 C1416 1.368 . S
C1420 C1419 1.523 . S
H1421 C1396 0.950 . S
H1422 C1398 0.950 . S
H1423 C1399 0.949 . S
H1424 C1401 0.950 . S
H1425 C1403 0.950 . S
C1426 C1427 1.349 . S
C1426 C1428 1.327 . S
C1426 H1451 0.950 . S
C1427 C1426 1.349 . S
C1427 C1443 1.349 . S
C1428 C1426 1.327 . S
C1428 C1447 1.429 . S
C1428 H1452 0.950 . S
C1429 C1446 1.574 . S
C1429 C1448 1.368 . S
C1429 H1453 0.949 . S
H1430 C1434 0.949 . S
C1431 C1432 1.349 . S
C1431 C1433 1.327 . S
C1431 H1454 0.950 . S
C1432 C1431 1.349 . S
C1432 C1444 1.349 . S
C1433 C1431 1.327 . S
C1433 C1449 1.429 . S
C1433 H1455 0.950 . S
C1434 H1430 0.949 . S
C1434 C1442 1.574 . S
C1434 C1450 1.368 . S
H1435 C1443 0.950 . S
H1436 C1441 0.950 . S
H1437 C1442 0.949 . S
H1438 C1444 0.950 . S
H1439 C1445 0.950 . S
H1440 C1446 0.949 . S
C1441 H1436 0.950 . S
C1441 C1443 1.327 . S
C1441 C1447 1.429 . S
C1442 C1434 1.574 . S
C1442 H1437 0.949 . S
C1442 C1448 1.368 . S
C1443 C1427 1.349 . S
C1443 H1435 0.950 . S
C1443 C1441 1.327 . S
C1444 C1432 1.349 . S
C1444 H1438 0.950 . S
C1444 C1445 1.327 . S
C1445 H1439 0.950 . S
C1445 C1444 1.327 . S
C1445 C1449 1.429 . S
C1446 C1429 1.574 . S
C1446 H1440 0.949 . S
C1446 C1450 1.368 . S
C1447 C1428 1.429 . S
C1447 C1441 1.429 . S
C1447 C1448 1.523 . S
C1448 C1429 1.368 . S
C1448 C1442 1.368 . S
C1448 C1447 1.523 . S
C1449 C1433 1.429 . S
C1449 C1445 1.429 . S
C1449 C1450 1.523 . S
C1450 C1434 1.368 . S
C1450 C1446 1.368 . S
C1450 C1449 1.523 . S
H1451 C1426 0.950 . S
H1452 C1428 0.950 . S
H1453 C1429 0.949 . S
H1454 C1431 0.950 . S
H1455 C1433 0.950 . S
C1456 C1457 1.349 1_556 S
C1456 C1458 1.319 1_556 S
C1456 H1481 0.950 . S
C1457 C1456 1.349 1_554 S
C1457 C1473 1.349 . S
C1458 C1456 1.319 1_554 S
C1458 C1477 1.443 . S
C1458 H1482 0.945 1_554 S
C1459 C1476 1.574 . S
C1459 C1478 1.368 . S
C1459 H1483 0.949 . S
H1460 C1464 0.949 . S
C1461 C1462 1.358 . S
C1461 C1463 1.298 1_545 S
C1461 H1484 0.950 . S
C1462 C1461 1.358 . S
C1462 C1474 1.300 1_545 S
C1463 C1461 1.298 1_565 S
C1463 C1479 1.465 . S
C1463 H1485 0.944 1_565 S
C1464 H1460 0.949 . S
C1464 C1472 1.574 . S
C1464 C1480 1.368 . S
H1465 C1473 0.950 . S
H1466 C1471 0.950 . S
H1467 C1472 0.949 . S
H1468 C1474 0.950 . S
H1469 C1475 0.950 . S
H1470 C1476 0.949 . S
C1471 H1466 0.950 . S
C1471 C1473 1.327 . S
C1471 C1477 1.429 . S
C1472 C1464 1.574 . S
C1472 H1467 0.949 . S
C1472 C1478 1.368 . S
C1473 C1457 1.349 . S
C1473 H1465 0.950 . S
C1473 C1471 1.327 . S
C1474 C1462 1.300 1_565 S
C1474 H1468 0.950 . S
C1474 C1475 1.327 . S
C1475 H1469 0.950 . S
C1475 C1474 1.327 . S
C1475 C1479 1.429 . S
C1476 C1459 1.574 . S
C1476 H1470 0.949 . S
C1476 C1480 1.368 . S
C1477 C1458 1.443 . S
C1477 C1471 1.429 . S
C1477 C1478 1.523 . S
C1478 C1459 1.368 . S
C1478 C1472 1.368 . S
C1478 C1477 1.523 . S
C1479 C1463 1.465 . S
C1479 C1475 1.429 . S
C1479 C1480 1.523 . S
C1480 C1464 1.368 . S
C1480 C1476 1.368 . S
C1480 C1479 1.523 . S
H1481 C1456 0.950 . S
H1482 C1458 0.945 1_556 S
H1483 C1459 0.949 . S
H1484 C1461 0.950 . S
H1485 C1463 0.944 1_545 S
C1486 C1487 1.349 1_556 S
C1486 C1488 1.327 . S
C1486 H1511 0.950 . S
C1487 C1486 1.349 1_554 S
C1487 C1503 1.349 . S
C1488 C1486 1.327 . S
C1488 C1507 1.429 1_556 S
C1488 H1512 0.950 . S
C1489 C1506 1.574 . S
C1489 C1508 1.368 . S
C1489 H1513 0.949 . S
H1490 C1494 0.949 . S
C1491 C1492 1.349 . S
C1491 C1493 1.327 . S
C1491 H1514 0.950 . S
C1492 C1491 1.349 . S
C1492 C1504 1.353 1_554 S
C1493 C1491 1.327 . S
C1493 C1509 1.429 . S
C1493 H1515 0.950 . S
C1494 H1490 0.949 . S
C1494 C1502 1.574 . S
C1494 C1510 1.368 1_556 S
H1495 C1503 0.950 . S
H1496 C1501 0.950 . S
H1497 C1502 0.949 . S
H1498 C1504 0.947 . S
H1499 C1505 0.985 . S
H1500 C1506 0.949 . S
C1501 H1496 0.950 . S
C1501 C1503 1.327 . S
C1501 C1507 1.429 . S
C1502 C1494 1.574 . S
C1502 H1497 0.949 . S
C1502 C1508 1.368 1_556 S
C1503 C1487 1.349 . S
C1503 H1495 0.950 . S
C1503 C1501 1.327 . S
C1504 C1492 1.353 1_556 S
C1504 H1498 0.947 . S
C1504 C1505 1.320 . S
C1505 H1499 0.985 . S
C1505 C1504 1.320 . S
C1505 C1509 1.402 1_556 S
C1506 C1489 1.574 . S
C1506 H1500 0.949 . S
C1506 C1510 1.368 . S
C1507 C1488 1.429 1_554 S
C1507 C1501 1.429 . S
C1507 C1508 1.523 . S
C1508 C1489 1.368 . S
C1508 C1502 1.368 1_554 S
C1508 C1507 1.523 . S
C1509 C1493 1.429 . S
C1509 C1505 1.402 1_554 S
C1509 C1510 1.523 . S
C1510 C1494 1.368 1_554 S
C1510 C1506 1.368 . S
C1510 C1509 1.523 . S
H1511 C1486 0.950 . S
H1512 C1488 0.950 . S
H1513 C1489 0.949 . S
H1514 C1491 0.950 . S
H1515 C1493 0.950 . S
C1516 C1517 1.349 . S
C1516 C1518 1.327 . S
C1516 H1541 0.950 . S
C1517 C1516 1.349 . S
C1517 C1533 1.349 . S
C1518 C1516 1.327 . S
C1518 C1537 1.429 . S
C1518 H1542 0.950 . S
C1519 C1536 1.574 . S
C1519 C1538 1.368 . S
C1519 H1543 0.949 . S
H1520 C1524 0.949 . S
C1521 C1522 1.349 . S
C1521 C1523 1.327 . S
C1521 H1544 0.950 . S
C1522 C1521 1.349 . S
C1522 C1534 1.349 . S
C1523 C1521 1.327 . S
C1523 C1539 1.429 . S
C1523 H1545 0.950 . S
C1524 H1520 0.949 . S
C1524 C1532 1.574 . S
C1524 C1540 1.368 . S
H1525 C1533 0.950 . S
H1526 C1531 0.950 . S
H1527 C1532 0.949 . S
H1528 C1534 0.950 . S
H1529 C1535 0.950 . S
H1530 C1536 0.949 . S
C1531 H1526 0.950 . S
C1531 C1533 1.327 . S
C1531 C1537 1.429 . S
C1532 C1524 1.574 . S
C1532 H1527 0.949 . S
C1532 C1538 1.368 . S
C1533 C1517 1.349 . S
C1533 H1525 0.950 . S
C1533 C1531 1.327 . S
C1534 C1522 1.349 . S
C1534 H1528 0.950 . S
C1534 C1535 1.327 . S
C1535 H1529 0.950 . S
C1535 C1534 1.327 . S
C1535 C1539 1.429 . S
C1536 C1519 1.574 . S
C1536 H1530 0.949 . S
C1536 C1540 1.368 . S
C1537 C1518 1.429 . S
C1537 C1531 1.429 . S
C1537 C1538 1.523 . S
C1538 C1519 1.368 . S
C1538 C1532 1.368 . S
C1538 C1537 1.523 . S
C1539 C1523 1.429 . S
C1539 C1535 1.429 . S
C1539 C1540 1.523 . S
C1540 C1524 1.368 . S
C1540 C1536 1.368 . S
C1540 C1539 1.523 . S
H1541 C1516 0.950 . S
H1542 C1518 0.950 . S
H1543 C1519 0.949 . S
H1544 C1521 0.950 . S
H1545 C1523 0.950 . S
C1546 C1547 1.349 . S
C1546 C1548 1.327 . S
C1546 H1571 0.950 . S
C1547 C1546 1.349 . S
C1547 C1563 1.349 . S
C1548 C1546 1.327 . S
C1548 C1567 1.429 . S
C1548 H1572 0.950 . S
C1549 C1566 1.574 . S
C1549 C1568 1.368 . S
C1549 H1573 0.949 . S
H1550 C1554 0.949 . S
C1551 C1552 1.349 . S
C1551 C1553 1.327 . S
C1551 H1574 0.950 . S
C1552 C1551 1.349 . S
C1552 C1564 1.349 . S
C1553 C1551 1.327 . S
C1553 C1569 1.429 . S
C1553 H1575 0.950 . S
C1554 H1550 0.949 . S
C1554 C1562 1.574 . S
C1554 C1570 1.368 . S
H1555 C1563 0.950 . S
H1556 C1561 0.950 . S
H1557 C1562 0.949 . S
H1558 C1564 0.950 . S
H1559 C1565 0.950 . S
H1560 C1566 0.949 . S
C1561 H1556 0.950 . S
C1561 C1563 1.327 . S
C1561 C1567 1.429 . S
C1562 C1554 1.574 . S
C1562 H1557 0.949 . S
C1562 C1568 1.368 . S
C1563 C1547 1.349 . S
C1563 H1555 0.950 . S
C1563 C1561 1.327 . S
C1564 C1552 1.349 . S
C1564 H1558 0.950 . S
C1564 C1565 1.327 . S
C1565 H1559 0.950 . S
C1565 C1564 1.327 . S
C1565 C1569 1.429 . S
C1566 C1549 1.574 . S
C1566 H1560 0.949 . S
C1566 C1570 1.368 . S
C1567 C1548 1.429 . S
C1567 C1561 1.429 . S
C1567 C1568 1.523 . S
C1568 C1549 1.368 . S
C1568 C1562 1.368 . S
C1568 C1567 1.523 . S
C1569 C1553 1.429 . S
C1569 C1565 1.429 . S
C1569 C1570 1.523 . S
C1570 C1554 1.368 . S
C1570 C1566 1.368 . S
C1570 C1569 1.523 . S
H1571 C1546 0.950 . S
H1572 C1548 0.950 . S
H1573 C1549 0.949 . S
H1574 C1551 0.950 . S
H1575 C1553 0.950 . S
C1576 C1577 1.349 . S
C1576 C1578 1.327 . S
C1576 H1601 0.950 . S
C1577 C1576 1.349 . S
C1577 C1593 1.349 . S
C1578 C1576 1.327 . S
C1578 C1597 1.429 . S
C1578 H1602 0.950 . S
C1579 C1596 1.574 . S
C1579 C1598 1.368 . S
C1579 H1603 0.949 . S
H1580 C1584 0.949 . S
C1581 C1582 1.349 . S
C1581 C1583 1.327 . S
C1581 H1604 0.950 . S
C1582 C1581 1.349 . S
C1582 C1594 1.349 . S
C1583 C1581 1.327 . S
C1583 C1599 1.429 . S
C1583 H1605 0.950 . S
C1584 H1580 0.949 . S
C1584 C1592 1.574 . S
C1584 C1600 1.368 . S
H1585 C1593 0.950 . S
H1586 C1591 0.950 . S
H1587 C1592 0.949 . S
H1588 C1594 0.950 . S
H1589 C1595 0.950 . S
H1590 C1596 0.949 . S
C1591 H1586 0.950 . S
C1591 C1593 1.327 . S
C1591 C1597 1.429 . S
C1592 C1584 1.574 . S
C1592 H1587 0.949 . S
C1592 C1598 1.368 . S
C1593 C1577 1.349 . S
C1593 H1585 0.950 . S
C1593 C1591 1.327 . S
C1594 C1582 1.349 . S
C1594 H1588 0.950 . S
C1594 C1595 1.327 . S
C1595 H1589 0.950 . S
C1595 C1594 1.327 . S
C1595 C1599 1.429 . S
C1596 C1579 1.574 . S
C1596 H1590 0.949 . S
C1596 C1600 1.368 . S
C1597 C1578 1.429 . S
C1597 C1591 1.429 . S
C1597 C1598 1.523 . S
C1598 C1579 1.368 . S
C1598 C1592 1.368 . S
C1598 C1597 1.523 . S
C1599 C1583 1.429 . S
C1599 C1595 1.429 . S
C1599 C1600 1.523 . S
C1600 C1584 1.368 . S
C1600 C1596 1.368 . S
C1600 C1599 1.523 . S
H1601 C1576 0.950 . S
H1602 C1578 0.950 . S
H1603 C1579 0.949 . S
H1604 C1581 0.950 . S
H1605 C1583 0.950 . S
C1606 C1607 1.349 . S
C1606 C1608 1.327 . S
C1606 H1631 0.950 . S
C1607 C1606 1.349 . S
C1607 C1623 1.349 . S
C1608 C1606 1.327 . S
C1608 C1627 1.429 . S
C1608 H1632 0.950 . S
C1609 C1626 1.574 . S
C1609 C1628 1.368 . S
C1609 H1633 0.949 . S
H1610 C1614 0.949 . S
C1611 C1612 1.349 . S
C1611 C1613 1.327 . S
C1611 H1634 0.950 . S
C1612 C1611 1.349 . S
C1612 C1624 1.349 . S
C1613 C1611 1.327 . S
C1613 C1629 1.429 . S
C1613 H1635 0.950 . S
C1614 H1610 0.949 . S
C1614 C1622 1.574 . S
C1614 C1630 1.368 . S
H1615 C1623 0.950 . S
H1616 C1621 0.950 . S
H1617 C1622 0.949 . S
H1618 C1624 0.950 . S
H1619 C1625 0.950 . S
H1620 C1626 0.949 . S
C1621 H1616 0.950 . S
C1621 C1623 1.327 . S
C1621 C1627 1.429 . S
C1622 C1614 1.574 . S
C1622 H1617 0.949 . S
C1622 C1628 1.368 . S
C1623 C1607 1.349 . S
C1623 H1615 0.950 . S
C1623 C1621 1.327 . S
C1624 C1612 1.349 . S
C1624 H1618 0.950 . S
C1624 C1625 1.327 . S
C1625 H1619 0.950 . S
C1625 C1624 1.327 . S
C1625 C1629 1.429 . S
C1626 C1609 1.574 . S
C1626 H1620 0.949 . S
C1626 C1630 1.368 . S
C1627 C1608 1.429 . S
C1627 C1621 1.429 . S
C1627 C1628 1.523 . S
C1628 C1609 1.368 . S
C1628 C1622 1.368 . S
C1628 C1627 1.523 . S
C1629 C1613 1.429 . S
C1629 C1625 1.429 . S
C1629 C1630 1.523 . S
C1630 C1614 1.368 . S
C1630 C1626 1.368 . S
C1630 C1629 1.523 . S
H1631 C1606 0.950 . S
H1632 C1608 0.950 . S
H1633 C1609 0.949 . S
H1634 C1611 0.950 . S
H1635 C1613 0.950 . S
C1636 C1637 1.349 . S
C1636 C1638 1.327 . S
C1636 H1661 0.950 . S
C1637 C1636 1.349 . S
C1637 C1653 1.349 . S
C1638 C1636 1.327 . S
C1638 C1657 1.429 . S
C1638 H1662 0.950 . S
C1639 C1656 1.574 . S
C1639 C1658 1.368 . S
C1639 H1663 0.949 . S
H1640 C1644 0.949 . S
C1641 C1642 1.349 . S
C1641 C1643 1.327 . S
C1641 H1664 0.950 . S
C1642 C1641 1.349 . S
C1642 C1654 1.349 . S
C1643 C1641 1.327 . S
C1643 C1659 1.429 . S
C1643 H1665 0.950 . S
C1644 H1640 0.949 . S
C1644 C1652 1.574 . S
C1644 C1660 1.368 . S
H1645 C1653 0.950 . S
H1646 C1651 0.950 . S
H1647 C1652 0.949 . S
H1648 C1654 0.950 . S
H1649 C1655 0.950 . S
H1650 C1656 0.949 . S
C1651 H1646 0.950 . S
C1651 C1653 1.327 . S
C1651 C1657 1.429 . S
C1652 C1644 1.574 . S
C1652 H1647 0.949 . S
C1652 C1658 1.368 . S
C1653 C1637 1.349 . S
C1653 H1645 0.950 . S
C1653 C1651 1.327 . S
C1654 C1642 1.349 . S
C1654 H1648 0.950 . S
C1654 C1655 1.327 . S
C1655 H1649 0.950 . S
C1655 C1654 1.327 . S
C1655 C1659 1.429 . S
C1656 C1639 1.574 . S
C1656 H1650 0.949 . S
C1656 C1660 1.368 . S
C1657 C1638 1.429 . S
C1657 C1651 1.429 . S
C1657 C1658 1.523 . S
C1658 C1639 1.368 . S
C1658 C1652 1.368 . S
C1658 C1657 1.523 . S
C1659 C1643 1.429 . S
C1659 C1655 1.429 . S
C1659 C1660 1.523 . S
C1660 C1644 1.368 . S
C1660 C1656 1.368 . S
C1660 C1659 1.523 . S
H1661 C1636 0.950 . S
H1662 C1638 0.950 . S
H1663 C1639 0.949 . S
H1664 C1641 0.950 . S
H1665 C1643 0.950 . S
C1666 C1667 1.349 . S
C1666 C1668 1.327 . S
C1666 H1691 0.950 . S
C1667 C1666 1.349 . S
C1667 C1683 1.349 . S
C1668 C1666 1.327 . S
C1668 C1687 1.429 . S
C1668 H1692 0.950 . S
C1669 C1686 1.574 . S
C1669 C1688 1.368 . S
C1669 H1693 0.949 . S
H1670 C1674 0.949 . S
C1671 C1672 1.349 . S
C1671 C1673 1.327 . S
C1671 H1694 0.950 . S
C1672 C1671 1.349 . S
C1672 C1684 1.349 . S
C1673 C1671 1.327 . S
C1673 C1689 1.429 . S
C1673 H1695 0.950 . S
C1674 H1670 0.949 . S
C1674 C1682 1.574 . S
C1674 C1690 1.368 . S
H1675 C1683 0.950 . S
H1676 C1681 0.950 . S
H1677 C1682 0.949 . S
H1678 C1684 0.950 . S
H1679 C1685 0.950 . S
H1680 C1686 0.949 . S
C1681 H1676 0.950 . S
C1681 C1683 1.327 . S
C1681 C1687 1.429 . S
C1682 C1674 1.574 . S
C1682 H1677 0.949 . S
C1682 C1688 1.368 . S
C1683 C1667 1.349 . S
C1683 H1675 0.950 . S
C1683 C1681 1.327 . S
C1684 C1672 1.349 . S
C1684 H1678 0.950 . S
C1684 C1685 1.327 . S
C1685 H1679 0.950 . S
C1685 C1684 1.327 . S
C1685 C1689 1.429 . S
C1686 C1669 1.574 . S
C1686 H1680 0.949 . S
C1686 C1690 1.368 . S
C1687 C1668 1.429 . S
C1687 C1681 1.429 . S
C1687 C1688 1.523 . S
C1688 C1669 1.368 . S
C1688 C1682 1.368 . S
C1688 C1687 1.523 . S
C1689 C1673 1.429 . S
C1689 C1685 1.429 . S
C1689 C1690 1.523 . S
C1690 C1674 1.368 . S
C1690 C1686 1.368 . S
C1690 C1689 1.523 . S
H1691 C1666 0.950 . S
H1692 C1668 0.950 . S
H1693 C1669 0.949 . S
H1694 C1671 0.950 . S
H1695 C1673 0.950 . S
C1696 C1697 1.349 . S
C1696 C1698 1.327 . S
C1696 H1721 0.950 . S
C1697 C1696 1.349 . S
C1697 C1713 1.349 . S
C1698 C1696 1.327 . S
C1698 C1717 1.429 . S
C1698 H1722 0.950 . S
C1699 C1716 1.574 . S
C1699 C1718 1.368 . S
C1699 H1723 0.949 . S
H1700 C1704 0.949 . S
C1701 C1702 1.349 . S
C1701 C1703 1.327 . S
C1701 H1724 0.950 . S
C1702 C1701 1.349 . S
C1702 C1714 1.349 . S
C1703 C1701 1.327 . S
C1703 C1719 1.429 . S
C1703 H1725 0.950 . S
C1704 H1700 0.949 . S
C1704 C1712 1.574 . S
C1704 C1720 1.368 . S
H1705 C1713 0.950 . S
H1706 C1711 0.950 . S
H1707 C1712 0.949 . S
H1708 C1714 0.950 . S
H1709 C1715 0.950 . S
H1710 C1716 0.949 . S
C1711 H1706 0.950 . S
C1711 C1713 1.327 . S
C1711 C1717 1.429 . S
C1712 C1704 1.574 . S
C1712 H1707 0.949 . S
C1712 C1718 1.368 . S
C1713 C1697 1.349 . S
C1713 H1705 0.950 . S
C1713 C1711 1.327 . S
C1714 C1702 1.349 . S
C1714 H1708 0.950 . S
C1714 C1715 1.327 . S
C1715 H1709 0.950 . S
C1715 C1714 1.327 . S
C1715 C1719 1.429 . S
C1716 C1699 1.574 . S
C1716 H1710 0.949 . S
C1716 C1720 1.368 . S
C1717 C1698 1.429 . S
C1717 C1711 1.429 . S
C1717 C1718 1.523 . S
C1718 C1699 1.368 . S
C1718 C1712 1.368 . S
C1718 C1717 1.523 . S
C1719 C1703 1.429 . S
C1719 C1715 1.429 . S
C1719 C1720 1.523 . S
C1720 C1704 1.368 . S
C1720 C1716 1.368 . S
C1720 C1719 1.523 . S
H1721 C1696 0.950 . S
H1722 C1698 0.950 . S
H1723 C1699 0.949 . S
H1724 C1701 0.950 . S
H1725 C1703 0.950 . S
C1726 C1727 1.349 . S
C1726 C1728 1.327 . S
C1726 H1751 0.950 . S
C1727 C1726 1.349 . S
C1727 C1743 1.349 . S
C1728 C1726 1.327 . S
C1728 C1747 1.429 . S
C1728 H1752 0.950 . S
C1729 C1746 1.574 . S
C1729 C1748 1.368 . S
C1729 H1753 0.949 . S
H1730 C1734 0.949 . S
C1731 C1732 1.349 . S
C1731 C1733 1.327 . S
C1731 H1754 0.950 . S
C1732 C1731 1.349 . S
C1732 C1744 1.349 . S
C1733 C1731 1.327 . S
C1733 C1749 1.429 . S
C1733 H1755 0.950 . S
C1734 H1730 0.949 . S
C1734 C1742 1.574 . S
C1734 C1750 1.368 . S
H1735 C1743 0.950 . S
H1736 C1741 0.950 . S
H1737 C1742 0.949 . S
H1738 C1744 0.950 . S
H1739 C1745 0.950 . S
H1740 C1746 0.949 . S
C1741 H1736 0.950 . S
C1741 C1743 1.327 . S
C1741 C1747 1.429 . S
C1742 C1734 1.574 . S
C1742 H1737 0.949 . S
C1742 C1748 1.368 . S
C1743 C1727 1.349 . S
C1743 H1735 0.950 . S
C1743 C1741 1.327 . S
C1744 C1732 1.349 . S
C1744 H1738 0.950 . S
C1744 C1745 1.327 . S
C1745 H1739 0.950 . S
C1745 C1744 1.327 . S
C1745 C1749 1.429 . S
C1746 C1729 1.574 . S
C1746 H1740 0.949 . S
C1746 C1750 1.368 . S
C1747 C1728 1.429 . S
C1747 C1741 1.429 . S
C1747 C1748 1.523 . S
C1748 C1729 1.368 . S
C1748 C1742 1.368 . S
C1748 C1747 1.523 . S
C1749 C1733 1.429 . S
C1749 C1745 1.429 . S
C1749 C1750 1.523 . S
C1750 C1734 1.368 . S
C1750 C1746 1.368 . S
C1750 C1749 1.523 . S
H1751 C1726 0.950 . S
H1752 C1728 0.950 . S
H1753 C1729 0.949 . S
H1754 C1731 0.950 . S
H1755 C1733 0.950 . S
C1756 C1757 1.349 . S
C1756 C1758 1.327 . S
C1756 H1781 0.950 . S
C1757 C1756 1.349 . S
C1757 C1773 1.349 . S
C1758 C1756 1.327 . S
C1758 C1777 1.429 . S
C1758 H1782 0.950 . S
C1759 C1776 1.574 . S
C1759 C1778 1.368 . S
C1759 H1783 0.949 . S
H1760 C1764 0.949 . S
C1761 C1762 1.349 . S
C1761 C1763 1.327 . S
C1761 H1784 0.950 . S
C1762 C1761 1.349 . S
C1762 C1774 1.349 . S
C1763 C1761 1.327 . S
C1763 C1779 1.429 . S
C1763 H1785 0.950 . S
C1764 H1760 0.949 . S
C1764 C1772 1.574 . S
C1764 C1780 1.368 . S
H1765 C1773 0.950 . S
H1766 C1771 0.950 . S
H1767 C1772 0.949 . S
H1768 C1774 0.950 . S
H1769 C1775 0.950 . S
H1770 C1776 0.949 . S
C1771 H1766 0.950 . S
C1771 C1773 1.327 . S
C1771 C1777 1.429 . S
C1772 C1764 1.574 . S
C1772 H1767 0.949 . S
C1772 C1778 1.368 . S
C1773 C1757 1.349 . S
C1773 H1765 0.950 . S
C1773 C1771 1.327 . S
C1774 C1762 1.349 . S
C1774 H1768 0.950 . S
C1774 C1775 1.327 . S
C1775 H1769 0.950 . S
C1775 C1774 1.327 . S
C1775 C1779 1.429 . S
C1776 C1759 1.574 . S
C1776 H1770 0.949 . S
C1776 C1780 1.368 . S
C1777 C1758 1.429 . S
C1777 C1771 1.429 . S
C1777 C1778 1.523 . S
C1778 C1759 1.368 . S
C1778 C1772 1.368 . S
C1778 C1777 1.523 . S
C1779 C1763 1.429 . S
C1779 C1775 1.429 . S
C1779 C1780 1.523 . S
C1780 C1764 1.368 . S
C1780 C1776 1.368 . S
C1780 C1779 1.523 . S
H1781 C1756 0.950 . S
H1782 C1758 0.950 . S
H1783 C1759 0.949 . S
H1784 C1761 0.950 . S
H1785 C1763 0.950 . S
C1786 C1787 1.349 . S
C1786 C1788 1.327 . S
C1786 H1811 0.950 . S
C1787 C1786 1.349 . S
C1787 C1803 1.349 . S
C1788 C1786 1.327 . S
C1788 C1807 1.429 . S
C1788 H1812 0.950 . S
C1789 C1806 1.574 . S
C1789 C1808 1.368 . S
C1789 H1813 0.949 . S
H1790 C1794 0.949 . S
C1791 C1792 1.349 . S
C1791 C1793 1.327 . S
C1791 H1814 0.950 . S
C1792 C1791 1.349 . S
C1792 C1804 1.349 . S
C1793 C1791 1.327 . S
C1793 C1809 1.429 . S
C1793 H1815 0.950 . S
C1794 H1790 0.949 . S
C1794 C1802 1.574 . S
C1794 C1810 1.368 . S
H1795 C1803 0.950 . S
H1796 C1801 0.950 . S
H1797 C1802 0.949 . S
H1798 C1804 0.950 . S
H1799 C1805 0.950 . S
H1800 C1806 0.949 . S
C1801 H1796 0.950 . S
C1801 C1803 1.327 . S
C1801 C1807 1.429 . S
C1802 C1794 1.574 . S
C1802 H1797 0.949 . S
C1802 C1808 1.368 . S
C1803 C1787 1.349 . S
C1803 H1795 0.950 . S
C1803 C1801 1.327 . S
C1804 C1792 1.349 . S
C1804 H1798 0.950 . S
C1804 C1805 1.327 . S
C1805 H1799 0.950 . S
C1805 C1804 1.327 . S
C1805 C1809 1.429 . S
C1806 C1789 1.574 . S
C1806 H1800 0.949 . S
C1806 C1810 1.368 . S
C1807 C1788 1.429 . S
C1807 C1801 1.429 . S
C1807 C1808 1.523 . S
C1808 C1789 1.368 . S
C1808 C1802 1.368 . S
C1808 C1807 1.523 . S
C1809 C1793 1.429 . S
C1809 C1805 1.429 . S
C1809 C1810 1.523 . S
C1810 C1794 1.368 . S
C1810 C1806 1.368 . S
C1810 C1809 1.523 . S
H1811 C1786 0.950 . S
H1812 C1788 0.950 . S
H1813 C1789 0.949 . S
H1814 C1791 0.950 . S
H1815 C1793 0.950 . S
C1816 C1817 1.349 . S
C1816 C1818 1.327 . S
C1816 H1841 0.950 . S
C1817 C1816 1.349 . S
C1817 C1833 1.349 . S
C1818 C1816 1.327 . S
C1818 C1837 1.429 . S
C1818 H1842 0.950 . S
C1819 C1836 1.574 . S
C1819 C1838 1.368 . S
C1819 H1843 0.949 . S
H1820 C1824 0.949 . S
C1821 C1822 1.349 . S
C1821 C1823 1.327 . S
C1821 H1844 0.950 . S
C1822 C1821 1.349 . S
C1822 C1834 1.349 . S
C1823 C1821 1.327 . S
C1823 C1839 1.429 . S
C1823 H1845 0.950 . S
C1824 H1820 0.949 . S
C1824 C1832 1.574 . S
C1824 C1840 1.368 . S
H1825 C1833 0.950 . S
H1826 C1831 0.950 . S
H1827 C1832 0.949 . S
H1828 C1834 0.950 . S
H1829 C1835 0.950 . S
H1830 C1836 0.949 . S
C1831 H1826 0.950 . S
C1831 C1833 1.327 . S
C1831 C1837 1.429 . S
C1832 C1824 1.574 . S
C1832 H1827 0.949 . S
C1832 C1838 1.368 . S
C1833 C1817 1.349 . S
C1833 H1825 0.950 . S
C1833 C1831 1.327 . S
C1834 C1822 1.349 . S
C1834 H1828 0.950 . S
C1834 C1835 1.327 . S
C1835 H1829 0.950 . S
C1835 C1834 1.327 . S
C1835 C1839 1.429 . S
C1836 C1819 1.574 . S
C1836 H1830 0.949 . S
C1836 C1840 1.368 . S
C1837 C1818 1.429 . S
C1837 C1831 1.429 . S
C1837 C1838 1.523 . S
C1838 C1819 1.368 . S
C1838 C1832 1.368 . S
C1838 C1837 1.523 . S
C1839 C1823 1.429 . S
C1839 C1835 1.429 . S
C1839 C1840 1.523 . S
C1840 C1824 1.368 . S
C1840 C1836 1.368 . S
C1840 C1839 1.523 . S
H1841 C1816 0.950 . S
H1842 C1818 0.950 . S
H1843 C1819 0.949 . S
H1844 C1821 0.950 . S
H1845 C1823 0.950 . S
C1846 C1847 1.349 . S
C1846 C1848 1.327 . S
C1846 H1871 0.950 . S
C1847 C1846 1.349 . S
C1847 C1863 1.349 . S
C1848 C1846 1.327 . S
C1848 C1867 1.429 . S
C1848 H1872 0.950 . S
C1849 C1866 1.574 . S
C1849 C1868 1.368 . S
C1849 H1873 0.949 . S
H1850 C1854 0.949 . S
C1851 C1852 1.349 . S
C1851 C1853 1.327 . S
C1851 H1874 0.950 . S
C1852 C1851 1.349 . S
C1852 C1864 1.349 . S
C1853 C1851 1.327 . S
C1853 C1869 1.429 . S
C1853 H1875 0.950 . S
C1854 H1850 0.949 . S
C1854 C1862 1.574 . S
C1854 C1870 1.368 . S
H1855 C1863 0.950 . S
H1856 C1861 0.950 . S
H1857 C1862 0.949 . S
H1858 C1864 0.950 . S
H1859 C1865 0.950 . S
H1860 C1866 0.949 . S
C1861 H1856 0.950 . S
C1861 C1863 1.327 . S
C1861 C1867 1.429 . S
C1862 C1854 1.574 . S
C1862 H1857 0.949 . S
C1862 C1868 1.368 . S
C1863 C1847 1.349 . S
C1863 H1855 0.950 . S
C1863 C1861 1.327 . S
C1864 C1852 1.349 . S
C1864 H1858 0.950 . S
C1864 C1865 1.327 . S
C1865 H1859 0.950 . S
C1865 C1864 1.327 . S
C1865 C1869 1.429 . S
C1866 C1849 1.574 . S
C1866 H1860 0.949 . S
C1866 C1870 1.368 . S
C1867 C1848 1.429 . S
C1867 C1861 1.429 . S
C1867 C1868 1.523 . S
C1868 C1849 1.368 . S
C1868 C1862 1.368 . S
C1868 C1867 1.523 . S
C1869 C1853 1.429 . S
C1869 C1865 1.429 . S
C1869 C1870 1.523 . S
C1870 C1854 1.368 . S
C1870 C1866 1.368 . S
C1870 C1869 1.523 . S
H1871 C1846 0.950 . S
H1872 C1848 0.950 . S
H1873 C1849 0.949 . S
H1874 C1851 0.950 . S
H1875 C1853 0.950 . S
C1876 C1877 1.349 . S
C1876 C1878 1.327 . S
C1876 H1901 0.950 . S
C1877 C1876 1.349 . S
C1877 C1893 1.349 . S
C1878 C1876 1.327 . S
C1878 C1897 1.429 . S
C1878 H1902 0.950 . S
C1879 C1896 1.574 . S
C1879 C1898 1.368 . S
C1879 H1903 0.949 . S
H1880 C1884 0.949 . S
C1881 C1882 1.349 . S
C1881 C1883 1.327 . S
C1881 H1904 0.950 . S
C1882 C1881 1.349 . S
C1882 C1894 1.337 1_556 S
C1883 C1881 1.327 . S
C1883 C1899 1.429 . S
C1883 H1905 0.950 . S
C1884 H1880 0.949 . S
C1884 C1892 1.574 . S
C1884 C1900 1.368 . S
H1885 C1893 0.950 . S
H1886 C1891 0.950 . S
H1887 C1892 0.949 . S
H1888 C1894 0.981 . S
H1889 C1895 0.950 . S
H1890 C1896 0.949 . S
C1891 H1886 0.950 . S
C1891 C1893 1.327 . S
C1891 C1897 1.429 . S
C1892 C1884 1.574 . S
C1892 H1887 0.949 . S
C1892 C1898 1.368 . S
C1893 C1877 1.349 . S
C1893 H1885 0.950 . S
C1893 C1891 1.327 . S
C1894 C1882 1.337 1_554 S
C1894 H1888 0.981 . S
C1894 C1895 1.309 1_554 S
C1895 H1889 0.950 . S
C1895 C1894 1.309 1_556 S
C1895 C1899 1.429 . S
C1896 C1879 1.574 . S
C1896 H1890 0.949 . S
C1896 C1900 1.368 . S
C1897 C1878 1.429 . S
C1897 C1891 1.429 . S
C1897 C1898 1.523 . S
C1898 C1879 1.368 . S
C1898 C1892 1.368 . S
C1898 C1897 1.523 . S
C1899 C1883 1.429 . S
C1899 C1895 1.429 . S
C1899 C1900 1.523 . S
C1900 C1884 1.368 . S
C1900 C1896 1.368 . S
C1900 C1899 1.523 . S
H1901 C1876 0.950 . S
H1902 C1878 0.950 . S
H1903 C1879 0.949 . S
H1904 C1881 0.950 . S
H1905 C1883 0.950 . S
C1906 C1907 1.349 . S
C1906 C1908 1.327 . S
C1906 H1931 0.950 . S
C1907 C1906 1.349 . S
C1907 C1923 1.349 . S
C1908 C1906 1.327 . S
C1908 C1927 1.429 . S
C1908 H1932 0.950 . S
C1909 C1926 1.574 . S
C1909 C1928 1.368 . S
C1909 H1933 0.949 . S
H1910 C1914 0.949 . S
C1911 C1912 1.349 . S
C1911 C1913 1.327 . S
C1911 H1934 0.950 . S
C1912 C1911 1.349 . S
C1912 C1924 1.349 . S
C1913 C1911 1.327 . S
C1913 C1929 1.429 . S
C1913 H1935 0.950 . S
C1914 H1910 0.949 . S
C1914 C1922 1.574 . S
C1914 C1930 1.368 . S
H1915 C1923 0.950 . S
H1916 C1921 0.950 . S
H1917 C1922 0.949 . S
H1918 C1924 0.950 . S
H1919 C1925 0.950 . S
H1920 C1926 0.949 . S
C1921 H1916 0.950 . S
C1921 C1923 1.327 . S
C1921 C1927 1.429 . S
C1922 C1914 1.574 . S
C1922 H1917 0.949 . S
C1922 C1928 1.368 . S
C1923 C1907 1.349 . S
C1923 H1915 0.950 . S
C1923 C1921 1.327 . S
C1924 C1912 1.349 . S
C1924 H1918 0.950 . S
C1924 C1925 1.327 . S
C1925 H1919 0.950 . S
C1925 C1924 1.327 . S
C1925 C1929 1.429 . S
C1926 C1909 1.574 . S
C1926 H1920 0.949 . S
C1926 C1930 1.368 . S
C1927 C1908 1.429 . S
C1927 C1921 1.429 . S
C1927 C1928 1.523 . S
C1928 C1909 1.368 . S
C1928 C1922 1.368 . S
C1928 C1927 1.523 . S
C1929 C1913 1.429 . S
C1929 C1925 1.429 . S
C1929 C1930 1.523 . S
C1930 C1914 1.368 . S
C1930 C1926 1.368 . S
C1930 C1929 1.523 . S
H1931 C1906 0.950 . S
H1932 C1908 0.950 . S
H1933 C1909 0.949 . S
H1934 C1911 0.950 . S
H1935 C1913 0.950 . S
C1936 C1937 1.349 . S
C1936 C1938 1.327 . S
C1936 H1961 0.950 . S
C1937 C1936 1.349 . S
C1937 C1953 1.349 . S
C1938 C1936 1.327 . S
C1938 C1957 1.429 . S
C1938 H1962 0.950 . S
C1939 C1956 1.574 . S
C1939 C1958 1.368 . S
C1939 H1963 0.949 . S
H1940 C1944 0.949 . S
C1941 C1942 1.349 . S
C1941 C1943 1.327 . S
C1941 H1964 0.950 . S
C1942 C1941 1.349 . S
C1942 C1954 1.349 . S
C1943 C1941 1.327 . S
C1943 C1959 1.429 . S
C1943 H1965 0.950 . S
C1944 H1940 0.949 . S
C1944 C1952 1.574 . S
C1944 C1960 1.368 . S
H1945 C1953 0.950 . S
H1946 C1951 0.950 . S
H1947 C1952 0.949 . S
H1948 C1954 0.950 . S
H1949 C1955 0.950 . S
H1950 C1956 0.949 . S
C1951 H1946 0.950 . S
C1951 C1953 1.327 . S
C1951 C1957 1.429 . S
C1952 C1944 1.574 . S
C1952 H1947 0.949 . S
C1952 C1958 1.368 . S
C1953 C1937 1.349 . S
C1953 H1945 0.950 . S
C1953 C1951 1.327 . S
C1954 C1942 1.349 . S
C1954 H1948 0.950 . S
C1954 C1955 1.327 . S
C1955 H1949 0.950 . S
C1955 C1954 1.327 . S
C1955 C1959 1.429 . S
C1956 C1939 1.574 . S
C1956 H1950 0.949 . S
C1956 C1960 1.368 . S
C1957 C1938 1.429 . S
C1957 C1951 1.429 . S
C1957 C1958 1.523 . S
C1958 C1939 1.368 . S
C1958 C1952 1.368 . S
C1958 C1957 1.523 . S
C1959 C1943 1.429 . S
C1959 C1955 1.429 . S
C1959 C1960 1.523 . S
C1960 C1944 1.368 . S
C1960 C1956 1.368 . S
C1960 C1959 1.523 . S
H1961 C1936 0.950 . S
H1962 C1938 0.950 . S
H1963 C1939 0.949 . S
H1964 C1941 0.950 . S
H1965 C1943 0.950 . S
C1966 C1967 1.349 . S
C1966 C1968 1.327 . S
C1966 H1991 0.950 . S
C1967 C1966 1.349 . S
C1967 C1983 1.349 . S
C1968 C1966 1.327 . S
C1968 C1987 1.429 . S
C1968 H1992 0.950 . S
C1969 C1986 1.574 . S
C1969 C1988 1.368 . S
C1969 H1993 0.949 . S
H1970 C1974 0.949 . S
C1971 C1972 1.349 . S
C1971 C1973 1.327 . S
C1971 H1994 0.950 . S
C1972 C1971 1.349 . S
C1972 C1984 1.349 . S
C1973 C1971 1.327 . S
C1973 C1989 1.429 . S
C1973 H1995 0.950 . S
C1974 H1970 0.949 . S
C1974 C1982 1.574 . S
C1974 C1990 1.368 . S
H1975 C1983 0.950 . S
H1976 C1981 0.950 . S
H1977 C1982 0.949 . S
H1978 C1984 0.950 . S
H1979 C1985 0.950 . S
H1980 C1986 0.949 . S
C1981 H1976 0.950 . S
C1981 C1983 1.327 . S
C1981 C1987 1.429 . S
C1982 C1974 1.574 . S
C1982 H1977 0.949 . S
C1982 C1988 1.368 . S
C1983 C1967 1.349 . S
C1983 H1975 0.950 . S
C1983 C1981 1.327 . S
C1984 C1972 1.349 . S
C1984 H1978 0.950 . S
C1984 C1985 1.327 . S
C1985 H1979 0.950 . S
C1985 C1984 1.327 . S
C1985 C1989 1.429 . S
C1986 C1969 1.574 . S
C1986 H1980 0.949 . S
C1986 C1990 1.368 . S
C1987 C1968 1.429 . S
C1987 C1981 1.429 . S
C1987 C1988 1.523 . S
C1988 C1969 1.368 . S
C1988 C1982 1.368 . S
C1988 C1987 1.523 . S
C1989 C1973 1.429 . S
C1989 C1985 1.429 . S
C1989 C1990 1.523 . S
C1990 C1974 1.368 . S
C1990 C1986 1.368 . S
C1990 C1989 1.523 . S
H1991 C1966 0.950 . S
H1992 C1968 0.950 . S
H1993 C1969 0.949 . S
H1994 C1971 0.950 . S
H1995 C1973 0.950 . S
C1996 C1997 1.349 1_565 S
C1996 C1998 1.327 . S
C1996 H2021 0.950 . S
C1997 C1996 1.349 1_545 S
C1997 C2013 1.349 . S
C1998 C1996 1.327 . S
C1998 C2017 1.429 1_565 S
C1998 H2022 0.950 . S
C1999 C2016 1.574 . S
C1999 C2018 1.368 . S
C1999 H2023 0.949 . S
H2000 C2004 0.949 1_565 S
C2001 C2002 1.349 . S
C2001 C2003 1.327 . S
C2001 H2024 0.950 . S
C2002 C2001 1.349 . S
C2002 C2014 1.349 . S
C2003 C2001 1.327 . S
C2003 C2019 1.429 . S
C2003 H2025 0.950 . S
C2004 H2000 0.949 1_545 S
C2004 C2012 1.574 . S
C2004 C2020 1.368 . S
H2005 C2013 0.950 . S
H2006 C2011 0.950 . S
H2007 C2012 0.949 1_565 S
H2008 C2014 0.950 . S
H2009 C2015 0.950 . S
H2010 C2016 0.949 . S
C2011 H2006 0.950 . S
C2011 C2013 1.327 . S
C2011 C2017 1.429 . S
C2012 C2004 1.574 . S
C2012 H2007 0.949 1_545 S
C2012 C2018 1.368 . S
C2013 C1997 1.349 . S
C2013 H2005 0.950 . S
C2013 C2011 1.327 . S
C2014 C2002 1.349 . S
C2014 H2008 0.950 . S
C2014 C2015 1.327 . S
C2015 H2009 0.950 . S
C2015 C2014 1.327 . S
C2015 C2019 1.429 . S
C2016 C1999 1.574 . S
C2016 H2010 0.949 . S
C2016 C2020 1.368 . S
C2017 C1998 1.429 1_545 S
C2017 C2011 1.429 . S
C2017 C2018 1.523 . S
C2018 C1999 1.368 . S
C2018 C2012 1.368 . S
C2018 C2017 1.523 . S
C2019 C2003 1.429 . S
C2019 C2015 1.429 . S
C2019 C2020 1.523 . S
C2020 C2004 1.368 . S
C2020 C2016 1.368 . S
C2020 C2019 1.523 . S
H2021 C1996 0.950 . S
H2022 C1998 0.950 . S
H2023 C1999 0.949 . S
H2024 C2001 0.950 . S
H2025 C2003 0.950 . S
C2026 C2027 1.349 . S
C2026 C2028 1.327 . S
C2026 H2051 0.950 . S
C2027 C2026 1.349 . S
C2027 C2043 1.349 . S
C2028 C2026 1.327 . S
C2028 C2047 1.429 . S
C2028 H2052 0.950 . S
C2029 C2046 1.574 . S
C2029 C2048 1.368 . S
C2029 H2053 0.949 . S
H2030 C2034 0.949 . S
C2031 C2032 1.349 . S
C2031 C2033 1.327 . S
C2031 H2054 0.950 . S
C2032 C2031 1.349 . S
C2032 C2044 1.349 . S
C2033 C2031 1.327 . S
C2033 C2049 1.429 . S
C2033 H2055 0.950 . S
C2034 H2030 0.949 . S
C2034 C2042 1.574 . S
C2034 C2050 1.368 . S
H2035 C2043 0.950 . S
H2036 C2041 0.950 . S
H2037 C2042 0.949 . S
H2038 C2044 0.950 . S
H2039 C2045 0.950 . S
H2040 C2046 0.949 . S
C2041 H2036 0.950 . S
C2041 C2043 1.327 . S
C2041 C2047 1.429 . S
C2042 C2034 1.574 . S
C2042 H2037 0.949 . S
C2042 C2048 1.368 . S
C2043 C2027 1.349 . S
C2043 H2035 0.950 . S
C2043 C2041 1.327 . S
C2044 C2032 1.349 . S
C2044 H2038 0.950 . S
C2044 C2045 1.327 . S
C2045 H2039 0.950 . S
C2045 C2044 1.327 . S
C2045 C2049 1.429 . S
C2046 C2029 1.574 . S
C2046 H2040 0.949 . S
C2046 C2050 1.368 . S
C2047 C2028 1.429 . S
C2047 C2041 1.429 . S
C2047 C2048 1.523 . S
C2048 C2029 1.368 . S
C2048 C2042 1.368 . S
C2048 C2047 1.523 . S
C2049 C2033 1.429 . S
C2049 C2045 1.429 . S
C2049 C2050 1.523 . S
C2050 C2034 1.368 . S
C2050 C2046 1.368 . S
C2050 C2049 1.523 . S
H2051 C2026 0.950 . S
H2052 C2028 0.950 . S
H2053 C2029 0.949 . S
H2054 C2031 0.950 . S
H2055 C2033 0.950 . S
C2056 C2057 1.349 . S
C2056 C2058 1.327 . S
C2056 H2081 0.950 . S
C2057 C2056 1.349 . S
C2057 C2073 1.349 . S
C2058 C2056 1.327 . S
C2058 C2077 1.429 . S
C2058 H2082 0.950 . S
C2059 C2076 1.574 . S
C2059 C2078 1.368 . S
C2059 H2083 0.949 . S
H2060 C2064 0.949 . S
C2061 C2062 1.349 . S
C2061 C2063 1.327 . S
C2061 H2084 0.950 . S
C2062 C2061 1.349 . S
C2062 C2074 1.349 . S
C2063 C2061 1.327 . S
C2063 C2079 1.429 . S
C2063 H2085 0.950 . S
C2064 H2060 0.949 . S
C2064 C2072 1.574 . S
C2064 C2080 1.368 . S
H2065 C2073 0.950 . S
H2066 C2071 0.950 . S
H2067 C2072 0.949 . S
H2068 C2074 0.950 . S
H2069 C2075 0.950 . S
H2070 C2076 0.949 . S
C2071 H2066 0.950 . S
C2071 C2073 1.327 . S
C2071 C2077 1.429 . S
C2072 C2064 1.574 . S
C2072 H2067 0.949 . S
C2072 C2078 1.368 . S
C2073 C2057 1.349 . S
C2073 H2065 0.950 . S
C2073 C2071 1.327 . S
C2074 C2062 1.349 . S
C2074 H2068 0.950 . S
C2074 C2075 1.327 . S
C2075 H2069 0.950 . S
C2075 C2074 1.327 . S
C2075 C2079 1.429 . S
C2076 C2059 1.574 . S
C2076 H2070 0.949 . S
C2076 C2080 1.368 . S
C2077 C2058 1.429 . S
C2077 C2071 1.429 . S
C2077 C2078 1.523 . S
C2078 C2059 1.368 . S
C2078 C2072 1.368 . S
C2078 C2077 1.523 . S
C2079 C2063 1.429 . S
C2079 C2075 1.429 . S
C2079 C2080 1.523 . S
C2080 C2064 1.368 . S
C2080 C2076 1.368 . S
C2080 C2079 1.523 . S
H2081 C2056 0.950 . S
H2082 C2058 0.950 . S
H2083 C2059 0.949 . S
H2084 C2061 0.950 . S
H2085 C2063 0.950 . S
C2086 C2087 1.349 . S
C2086 C2088 1.327 . S
C2086 H2111 0.950 . S
C2087 C2086 1.349 . S
C2087 C2103 1.349 . S
C2088 C2086 1.327 . S
C2088 C2107 1.429 . S
C2088 H2112 0.950 . S
C2089 C2106 1.574 . S
C2089 C2108 1.368 . S
C2089 H2113 0.949 . S
H2090 C2094 0.949 . S
C2091 C2092 1.349 . S
C2091 C2093 1.327 . S
C2091 H2114 0.950 . S
C2092 C2091 1.349 . S
C2092 C2104 1.349 . S
C2093 C2091 1.327 . S
C2093 C2109 1.429 . S
C2093 H2115 0.950 . S
C2094 H2090 0.949 . S
C2094 C2102 1.574 . S
C2094 C2110 1.368 . S
H2095 C2103 0.950 . S
H2096 C2101 0.950 . S
H2097 C2102 0.949 . S
H2098 C2104 0.950 . S
H2099 C2105 0.950 . S
H2100 C2106 0.949 . S
C2101 H2096 0.950 . S
C2101 C2103 1.327 . S
C2101 C2107 1.429 . S
C2102 C2094 1.574 . S
C2102 H2097 0.949 . S
C2102 C2108 1.368 . S
C2103 C2087 1.349 . S
C2103 H2095 0.950 . S
C2103 C2101 1.327 . S
C2104 C2092 1.349 . S
C2104 H2098 0.950 . S
C2104 C2105 1.327 . S
C2105 H2099 0.950 . S
C2105 C2104 1.327 . S
C2105 C2109 1.429 . S
C2106 C2089 1.574 . S
C2106 H2100 0.949 . S
C2106 C2110 1.368 . S
C2107 C2088 1.429 . S
C2107 C2101 1.429 . S
C2107 C2108 1.523 . S
C2108 C2089 1.368 . S
C2108 C2102 1.368 . S
C2108 C2107 1.523 . S
C2109 C2093 1.429 . S
C2109 C2105 1.429 . S
C2109 C2110 1.523 . S
C2110 C2094 1.368 . S
C2110 C2106 1.368 . S
C2110 C2109 1.523 . S
H2111 C2086 0.950 . S
H2112 C2088 0.950 . S
H2113 C2089 0.949 . S
H2114 C2091 0.950 . S
H2115 C2093 0.950 . S
C2116 C2117 1.349 1_565 S
C2116 C2118 1.327 . S
C2116 H2141 0.950 . S
C2117 C2116 1.349 1_545 S
C2117 C2133 1.349 . S
C2118 C2116 1.327 . S
C2118 C2137 1.428 1_565 S
C2118 H2142 0.950 . S
C2119 C2136 1.574 . S
C2119 C2138 1.368 1_545 S
C2119 H2143 0.949 . S
H2120 C2124 0.949 . S
C2121 C2122 1.349 1_545 S
C2121 C2123 1.327 . S
C2121 H2144 0.950 . S
C2122 C2121 1.349 1_565 S
C2122 C2134 1.349 . S
C2123 C2121 1.327 . S
C2123 C2139 1.429 1_545 S
C2123 H2145 0.950 . S
C2124 H2120 0.949 . S
C2124 C2132 1.574 . S
C2124 C2140 1.368 . S
H2125 C2133 0.950 . S
H2126 C2131 0.950 . S
H2127 C2132 0.949 . S
H2128 C2134 0.950 . S
H2129 C2135 0.950 . S
H2130 C2136 0.949 . S
C2131 H2126 0.950 . S
C2131 C2133 1.327 . S
C2131 C2137 1.429 . S
C2132 C2124 1.574 . S
C2132 H2127 0.949 . S
C2132 C2138 1.368 . S
C2133 C2117 1.349 . S
C2133 H2125 0.950 . S
C2133 C2131 1.327 . S
C2134 C2122 1.349 . S
C2134 H2128 0.950 . S
C2134 C2135 1.327 . S
C2135 H2129 0.950 . S
C2135 C2134 1.327 . S
C2135 C2139 1.429 . S
C2136 C2119 1.574 . S
C2136 H2130 0.949 . S
C2136 C2140 1.368 1_545 S
C2137 C2118 1.428 1_545 S
C2137 C2131 1.429 . S
C2137 C2138 1.523 1_545 S
C2138 C2119 1.368 1_565 S
C2138 C2132 1.368 . S
C2138 C2137 1.523 1_565 S
C2139 C2123 1.429 1_565 S
C2139 C2135 1.429 . S
C2139 C2140 1.523 . S
C2140 C2124 1.368 . S
C2140 C2136 1.368 1_565 S
C2140 C2139 1.523 . S
H2141 C2116 0.950 . S
H2142 C2118 0.950 . S
H2143 C2119 0.949 . S
H2144 C2121 0.950 . S
H2145 C2123 0.950 . S
C2146 C2147 1.349 . S
C2146 C2148 1.327 . S
C2146 H2171 0.950 . S
C2147 C2146 1.349 . S
C2147 C2163 1.349 . S
C2148 C2146 1.327 . S
C2148 C2167 1.429 . S
C2148 H2172 0.950 . S
C2149 C2166 1.574 . S
C2149 C2168 1.368 . S
C2149 H2173 0.949 . S
H2150 C2154 0.949 . S
C2151 C2152 1.349 . S
C2151 C2153 1.327 . S
C2151 H2174 0.950 . S
C2152 C2151 1.349 . S
C2152 C2164 1.349 . S
C2153 C2151 1.327 . S
C2153 C2169 1.429 . S
C2153 H2175 0.950 . S
C2154 H2150 0.949 . S
C2154 C2162 1.574 . S
C2154 C2170 1.368 . S
H2155 C2163 0.950 . S
H2156 C2161 0.950 . S
H2157 C2162 0.949 . S
H2158 C2164 0.950 . S
H2159 C2165 0.950 . S
H2160 C2166 0.949 . S
C2161 H2156 0.950 . S
C2161 C2163 1.327 . S
C2161 C2167 1.429 . S
C2162 C2154 1.574 . S
C2162 H2157 0.949 . S
C2162 C2168 1.368 . S
C2163 C2147 1.349 . S
C2163 H2155 0.950 . S
C2163 C2161 1.327 . S
C2164 C2152 1.349 . S
C2164 H2158 0.950 . S
C2164 C2165 1.327 . S
C2165 H2159 0.950 . S
C2165 C2164 1.327 . S
C2165 C2169 1.429 . S
C2166 C2149 1.574 . S
C2166 H2160 0.949 . S
C2166 C2170 1.368 . S
C2167 C2148 1.429 . S
C2167 C2161 1.429 . S
C2167 C2168 1.523 . S
C2168 C2149 1.368 . S
C2168 C2162 1.368 . S
C2168 C2167 1.523 . S
C2169 C2153 1.429 . S
C2169 C2165 1.429 . S
C2169 C2170 1.523 . S
C2170 C2154 1.368 . S
C2170 C2166 1.368 . S
C2170 C2169 1.523 . S
H2171 C2146 0.950 . S
H2172 C2148 0.950 . S
H2173 C2149 0.949 . S
H2174 C2151 0.950 . S
H2175 C2153 0.950 . S
C2176 C2177 1.349 . S
C2176 C2178 1.327 . S
C2176 H2201 0.950 . S
C2177 C2176 1.349 . S
C2177 C2193 1.349 . S
C2178 C2176 1.327 . S
C2178 C2197 1.429 . S
C2178 H2202 0.950 . S
C2179 C2196 1.574 . S
C2179 C2198 1.368 . S
C2179 H2203 0.949 . S
H2180 C2184 0.949 . S
C2181 C2182 1.349 . S
C2181 C2183 1.327 . S
C2181 H2204 0.950 . S
C2182 C2181 1.349 . S
C2182 C2194 1.349 . S
C2183 C2181 1.327 . S
C2183 C2199 1.429 . S
C2183 H2205 0.950 . S
C2184 H2180 0.949 . S
C2184 C2192 1.574 . S
C2184 C2200 1.368 . S
H2185 C2193 0.950 . S
H2186 C2191 0.950 . S
H2187 C2192 0.949 . S
H2188 C2194 0.950 1_556 S
H2189 C2195 0.950 . S
H2190 C2196 0.949 . S
C2191 H2186 0.950 . S
C2191 C2193 1.327 . S
C2191 C2197 1.429 . S
C2192 C2184 1.574 . S
C2192 H2187 0.949 . S
C2192 C2198 1.368 . S
C2193 C2177 1.349 . S
C2193 H2185 0.950 . S
C2193 C2191 1.327 . S
C2194 C2182 1.349 . S
C2194 H2188 0.950 1_554 S
C2194 C2195 1.327 . S
C2195 H2189 0.950 . S
C2195 C2194 1.327 . S
C2195 C2199 1.429 . S
C2196 C2179 1.574 . S
C2196 H2190 0.949 . S
C2196 C2200 1.368 . S
C2197 C2178 1.429 . S
C2197 C2191 1.429 . S
C2197 C2198 1.523 . S
C2198 C2179 1.368 . S
C2198 C2192 1.368 . S
C2198 C2197 1.523 . S
C2199 C2183 1.429 . S
C2199 C2195 1.429 . S
C2199 C2200 1.523 . S
C2200 C2184 1.368 . S
C2200 C2196 1.368 . S
C2200 C2199 1.523 . S
H2201 C2176 0.950 . S
H2202 C2178 0.950 . S
H2203 C2179 0.949 . S
H2204 C2181 0.950 . S
H2205 C2183 0.950 . S
C2206 C2207 1.349 . S
C2206 C2208 1.327 . S
C2206 H2231 0.950 . S
C2207 C2206 1.349 . S
C2207 C2223 1.349 . S
C2208 C2206 1.327 . S
C2208 C2227 1.429 . S
C2208 H2232 0.950 . S
C2209 C2226 1.574 . S
C2209 C2228 1.368 . S
C2209 H2233 0.949 . S
H2210 C2214 0.949 . S
C2211 C2212 1.349 . S
C2211 C2213 1.327 . S
C2211 H2234 0.950 . S
C2212 C2211 1.349 . S
C2212 C2224 1.349 . S
C2213 C2211 1.327 . S
C2213 C2229 1.429 . S
C2213 H2235 0.950 . S
C2214 H2210 0.949 . S
C2214 C2222 1.574 . S
C2214 C2230 1.368 . S
H2215 C2223 0.950 . S
H2216 C2221 0.950 . S
H2217 C2222 0.949 . S
H2218 C2224 0.950 . S
H2219 C2225 0.950 . S
H2220 C2226 0.949 . S
C2221 H2216 0.950 . S
C2221 C2223 1.327 . S
C2221 C2227 1.429 . S
C2222 C2214 1.574 . S
C2222 H2217 0.949 . S
C2222 C2228 1.368 . S
C2223 C2207 1.349 . S
C2223 H2215 0.950 . S
C2223 C2221 1.327 . S
C2224 C2212 1.349 . S
C2224 H2218 0.950 . S
C2224 C2225 1.327 . S
C2225 H2219 0.950 . S
C2225 C2224 1.327 . S
C2225 C2229 1.429 . S
C2226 C2209 1.574 . S
C2226 H2220 0.949 . S
C2226 C2230 1.368 . S
C2227 C2208 1.429 . S
C2227 C2221 1.429 . S
C2227 C2228 1.523 . S
C2228 C2209 1.368 . S
C2228 C2222 1.368 . S
C2228 C2227 1.523 . S
C2229 C2213 1.429 . S
C2229 C2225 1.429 . S
C2229 C2230 1.523 . S
C2230 C2214 1.368 . S
C2230 C2226 1.368 . S
C2230 C2229 1.523 . S
H2231 C2206 0.950 . S
H2232 C2208 0.950 . S
H2233 C2209 0.949 . S
H2234 C2211 0.950 . S
H2235 C2213 0.950 . S
C2236 C2237 1.349 . S
C2236 C2238 1.327 . S
C2236 H2261 0.950 . S
C2237 C2236 1.349 . S
C2237 C2253 1.349 . S
C2238 C2236 1.327 . S
C2238 C2257 1.429 . S
C2238 H2262 0.950 . S
C2239 C2256 1.574 . S
C2239 C2258 1.368 . S
C2239 H2263 0.949 . S
H2240 C2244 0.949 . S
C2241 C2242 1.349 . S
C2241 C2243 1.327 . S
C2241 H2264 0.950 . S
C2242 C2241 1.349 . S
C2242 C2254 1.349 . S
C2243 C2241 1.327 . S
C2243 C2259 1.429 . S
C2243 H2265 0.950 . S
C2244 H2240 0.949 . S
C2244 C2252 1.574 . S
C2244 C2260 1.368 . S
H2245 C2253 0.950 . S
H2246 C2251 0.950 . S
H2247 C2252 0.949 . S
H2248 C2254 0.950 . S
H2249 C2255 0.950 . S
H2250 C2256 0.949 . S
C2251 H2246 0.950 . S
C2251 C2253 1.327 . S
C2251 C2257 1.429 . S
C2252 C2244 1.574 . S
C2252 H2247 0.949 . S
C2252 C2258 1.368 . S
C2253 C2237 1.349 . S
C2253 H2245 0.950 . S
C2253 C2251 1.327 . S
C2254 C2242 1.349 . S
C2254 H2248 0.950 . S
C2254 C2255 1.327 . S
C2255 H2249 0.950 . S
C2255 C2254 1.327 . S
C2255 C2259 1.429 . S
C2256 C2239 1.574 . S
C2256 H2250 0.949 . S
C2256 C2260 1.368 . S
C2257 C2238 1.429 . S
C2257 C2251 1.429 . S
C2257 C2258 1.523 . S
C2258 C2239 1.368 . S
C2258 C2252 1.368 . S
C2258 C2257 1.523 . S
C2259 C2243 1.429 . S
C2259 C2255 1.429 . S
C2259 C2260 1.523 . S
C2260 C2244 1.368 . S
C2260 C2256 1.368 . S
C2260 C2259 1.523 . S
H2261 C2236 0.950 . S
H2262 C2238 0.950 . S
H2263 C2239 0.949 . S
H2264 C2241 0.950 . S
H2265 C2243 0.950 . S
C2266 C2267 1.349 . S
C2266 C2268 1.327 . S
C2266 H2291 0.950 . S
C2267 C2266 1.349 . S
C2267 C2283 1.349 . S
C2268 C2266 1.327 . S
C2268 C2287 1.429 . S
C2268 H2292 0.950 . S
C2269 C2286 1.574 . S
C2269 C2288 1.368 . S
C2269 H2293 0.949 . S
H2270 C2274 0.949 . S
C2271 C2272 1.349 . S
C2271 C2273 1.327 . S
C2271 H2294 0.950 . S
C2272 C2271 1.349 . S
C2272 C2284 1.349 . S
C2273 C2271 1.327 . S
C2273 C2289 1.429 . S
C2273 H2295 0.950 . S
C2274 H2270 0.949 . S
C2274 C2282 1.574 . S
C2274 C2290 1.368 . S
H2275 C2283 0.950 . S
H2276 C2281 0.950 . S
H2277 C2282 0.949 . S
H2278 C2284 0.950 . S
H2279 C2285 0.950 . S
H2280 C2286 0.949 . S
C2281 H2276 0.950 . S
C2281 C2283 1.327 . S
C2281 C2287 1.429 . S
C2282 C2274 1.574 . S
C2282 H2277 0.949 . S
C2282 C2288 1.368 . S
C2283 C2267 1.349 . S
C2283 H2275 0.950 . S
C2283 C2281 1.327 . S
C2284 C2272 1.349 . S
C2284 H2278 0.950 . S
C2284 C2285 1.327 . S
C2285 H2279 0.950 . S
C2285 C2284 1.327 . S
C2285 C2289 1.429 . S
C2286 C2269 1.574 . S
C2286 H2280 0.949 . S
C2286 C2290 1.368 . S
C2287 C2268 1.429 . S
C2287 C2281 1.429 . S
C2287 C2288 1.523 . S
C2288 C2269 1.368 . S
C2288 C2282 1.368 . S
C2288 C2287 1.523 . S
C2289 C2273 1.429 . S
C2289 C2285 1.429 . S
C2289 C2290 1.523 . S
C2290 C2274 1.368 . S
C2290 C2286 1.368 . S
C2290 C2289 1.523 . S
H2291 C2266 0.950 . S
H2292 C2268 0.950 . S
H2293 C2269 0.949 . S
H2294 C2271 0.950 . S
H2295 C2273 0.950 . S
C2296 C2297 1.349 . S
C2296 C2298 1.327 1_545 S
C2296 H2321 0.950 . S
C2297 C2296 1.349 . S
C2297 C2313 1.349 . S
C2298 C2296 1.327 1_565 S
C2298 C2317 1.429 . S
C2298 H2322 0.950 . S
C2299 C2316 1.574 . S
C2299 C2318 1.368 . S
C2299 H2323 0.949 . S
H2300 C2304 0.949 . S
C2301 C2302 1.349 . S
C2301 C2303 1.327 . S
C2301 H2324 0.950 . S
C2302 C2301 1.349 . S
C2302 C2314 1.349 . S
C2303 C2301 1.327 . S
C2303 C2319 1.429 . S
C2303 H2325 0.950 . S
C2304 H2300 0.949 . S
C2304 C2312 1.574 . S
C2304 C2320 1.368 . S
H2305 C2313 0.950 . S
H2306 C2311 0.950 . S
H2307 C2312 0.949 . S
H2308 C2314 0.950 . S
H2309 C2315 0.950 . S
H2310 C2316 0.949 . S
C2311 H2306 0.950 . S
C2311 C2313 1.327 1_565 S
C2311 C2317 1.429 . S
C2312 C2304 1.574 . S
C2312 H2307 0.949 . S
C2312 C2318 1.368 . S
C2313 C2297 1.349 . S
C2313 H2305 0.950 . S
C2313 C2311 1.327 1_545 S
C2314 C2302 1.349 . S
C2314 H2308 0.950 . S
C2314 C2315 1.327 . S
C2315 H2309 0.950 . S
C2315 C2314 1.327 . S
C2315 C2319 1.429 . S
C2316 C2299 1.574 . S
C2316 H2310 0.949 . S
C2316 C2320 1.368 . S
C2317 C2298 1.429 . S
C2317 C2311 1.429 . S
C2317 C2318 1.523 . S
C2318 C2299 1.368 . S
C2318 C2312 1.368 . S
C2318 C2317 1.523 . S
C2319 C2303 1.429 . S
C2319 C2315 1.429 . S
C2319 C2320 1.523 . S
C2320 C2304 1.368 . S
C2320 C2316 1.368 . S
C2320 C2319 1.523 . S
H2321 C2296 0.950 . S
H2322 C2298 0.950 . S
H2323 C2299 0.949 . S
H2324 C2301 0.950 . S
H2325 C2303 0.950 . S
C2326 C2327 1.349 . S
C2326 C2328 1.327 . S
C2326 H2351 0.950 . S
C2327 C2326 1.349 . S
C2327 C2343 1.349 . S
C2328 C2326 1.327 . S
C2328 C2347 1.429 . S
C2328 H2352 0.950 . S
C2329 C2346 1.574 . S
C2329 C2348 1.368 . S
C2329 H2353 0.949 . S
H2330 C2334 0.949 . S
C2331 C2332 1.349 . S
C2331 C2333 1.327 . S
C2331 H2354 0.950 . S
C2332 C2331 1.349 . S
C2332 C2344 1.349 . S
C2333 C2331 1.327 . S
C2333 C2349 1.429 . S
C2333 H2355 0.950 . S
C2334 H2330 0.949 . S
C2334 C2342 1.574 . S
C2334 C2350 1.368 . S
H2335 C2343 0.950 . S
H2336 C2341 0.950 . S
H2337 C2342 0.949 . S
H2338 C2344 0.950 . S
H2339 C2345 0.950 . S
H2340 C2346 0.949 . S
C2341 H2336 0.950 . S
C2341 C2343 1.327 . S
C2341 C2347 1.429 . S
C2342 C2334 1.574 . S
C2342 H2337 0.949 . S
C2342 C2348 1.368 . S
C2343 C2327 1.349 . S
C2343 H2335 0.950 . S
C2343 C2341 1.327 . S
C2344 C2332 1.349 . S
C2344 H2338 0.950 . S
C2344 C2345 1.327 . S
C2345 H2339 0.950 . S
C2345 C2344 1.327 . S
C2345 C2349 1.429 . S
C2346 C2329 1.574 . S
C2346 H2340 0.949 . S
C2346 C2350 1.368 . S
C2347 C2328 1.429 . S
C2347 C2341 1.429 . S
C2347 C2348 1.523 . S
C2348 C2329 1.368 . S
C2348 C2342 1.368 . S
C2348 C2347 1.523 . S
C2349 C2333 1.429 . S
C2349 C2345 1.429 . S
C2349 C2350 1.523 . S
C2350 C2334 1.368 . S
C2350 C2346 1.368 . S
C2350 C2349 1.523 . S
H2351 C2326 0.950 . S
H2352 C2328 0.950 . S
H2353 C2329 0.949 . S
H2354 C2331 0.950 . S
H2355 C2333 0.950 . S
C2356 C2357 1.349 . S
C2356 C2358 1.327 . S
C2356 H2381 0.950 . S
C2357 C2356 1.349 . S
C2357 C2373 1.349 . S
C2358 C2356 1.327 . S
C2358 C2377 1.429 . S
C2358 H2382 0.950 . S
C2359 C2376 1.574 . S
C2359 C2378 1.368 . S
C2359 H2383 0.949 . S
H2360 C2364 0.949 . S
C2361 C2362 1.349 . S
C2361 C2363 1.327 . S
C2361 H2384 0.950 . S
C2362 C2361 1.349 . S
C2362 C2374 1.349 . S
C2363 C2361 1.327 . S
C2363 C2379 1.429 . S
C2363 H2385 0.950 . S
C2364 H2360 0.949 . S
C2364 C2372 1.574 . S
C2364 C2380 1.368 . S
H2365 C2373 0.950 . S
H2366 C2371 0.950 . S
H2367 C2372 0.949 . S
H2368 C2374 0.950 . S
H2369 C2375 0.950 . S
H2370 C2376 0.949 . S
C2371 H2366 0.950 . S
C2371 C2373 1.327 . S
C2371 C2377 1.429 . S
C2372 C2364 1.574 . S
C2372 H2367 0.949 . S
C2372 C2378 1.368 . S
C2373 C2357 1.349 . S
C2373 H2365 0.950 . S
C2373 C2371 1.327 . S
C2374 C2362 1.349 . S
C2374 H2368 0.950 . S
C2374 C2375 1.327 . S
C2375 H2369 0.950 . S
C2375 C2374 1.327 . S
C2375 C2379 1.429 . S
C2376 C2359 1.574 . S
C2376 H2370 0.949 . S
C2376 C2380 1.368 . S
C2377 C2358 1.429 . S
C2377 C2371 1.429 . S
C2377 C2378 1.523 . S
C2378 C2359 1.368 . S
C2378 C2372 1.368 . S
C2378 C2377 1.523 . S
C2379 C2363 1.429 . S
C2379 C2375 1.429 . S
C2379 C2380 1.523 . S
C2380 C2364 1.368 . S
C2380 C2376 1.368 . S
C2380 C2379 1.523 . S
H2381 C2356 0.950 . S
H2382 C2358 0.950 . S
H2383 C2359 0.949 . S
H2384 C2361 0.950 . S
H2385 C2363 0.950 . S
C2386 C2387 1.349 . S
C2386 C2388 1.327 . S
C2386 H2411 0.950 . S
C2387 C2386 1.349 . S
C2387 C2403 1.349 . S
C2388 C2386 1.327 . S
C2388 C2407 1.429 . S
C2388 H2412 0.950 . S
C2389 C2406 1.574 . S
C2389 C2408 1.368 . S
C2389 H2413 0.949 . S
H2390 C2394 0.949 . S
C2391 C2392 1.349 . S
C2391 C2393 1.327 . S
C2391 H2414 0.950 . S
C2392 C2391 1.349 . S
C2392 C2404 1.349 . S
C2393 C2391 1.327 . S
C2393 C2409 1.429 . S
C2393 H2415 0.950 . S
C2394 H2390 0.949 . S
C2394 C2402 1.574 . S
C2394 C2410 1.368 . S
H2395 C2403 0.950 . S
H2396 C2401 0.950 . S
H2397 C2402 0.949 . S
H2398 C2404 0.950 . S
H2399 C2405 0.950 . S
H2400 C2406 0.949 . S
C2401 H2396 0.950 . S
C2401 C2403 1.327 . S
C2401 C2407 1.429 . S
C2402 C2394 1.574 . S
C2402 H2397 0.949 . S
C2402 C2408 1.368 . S
C2403 C2387 1.349 . S
C2403 H2395 0.950 . S
C2403 C2401 1.327 . S
C2404 C2392 1.349 . S
C2404 H2398 0.950 . S
C2404 C2405 1.327 . S
C2405 H2399 0.950 . S
C2405 C2404 1.327 . S
C2405 C2409 1.429 . S
C2406 C2389 1.574 . S
C2406 H2400 0.949 . S
C2406 C2410 1.368 . S
C2407 C2388 1.429 . S
C2407 C2401 1.429 . S
C2407 C2408 1.523 . S
C2408 C2389 1.368 . S
C2408 C2402 1.368 . S
C2408 C2407 1.523 . S
C2409 C2393 1.429 . S
C2409 C2405 1.429 . S
C2409 C2410 1.523 . S
C2410 C2394 1.368 . S
C2410 C2406 1.368 . S
C2410 C2409 1.523 . S
H2411 C2386 0.950 . S
H2412 C2388 0.950 . S
H2413 C2389 0.949 . S
H2414 C2391 0.950 . S
H2415 C2393 0.950 . S
C2416 C2417 1.349 . S
C2416 C2418 1.327 . S
C2416 H2441 0.950 . S
C2417 C2416 1.349 . S
C2417 C2433 1.349 . S
C2418 C2416 1.327 . S
C2418 C2437 1.429 . S
C2418 H2442 0.950 . S
C2419 C2436 1.574 . S
C2419 C2438 1.368 . S
C2419 H2443 0.949 . S
H2420 C2424 0.949 . S
C2421 C2422 1.349 . S
C2421 C2423 1.327 . S
C2421 H2444 0.950 . S
C2422 C2421 1.349 . S
C2422 C2434 1.349 . S
C2423 C2421 1.327 . S
C2423 C2439 1.429 . S
C2423 H2445 0.950 . S
C2424 H2420 0.949 . S
C2424 C2432 1.574 . S
C2424 C2440 1.368 . S
H2425 C2433 0.950 . S
H2426 C2431 0.950 . S
H2427 C2432 0.949 . S
H2428 C2434 0.950 . S
H2429 C2435 0.950 . S
H2430 C2436 0.949 . S
C2431 H2426 0.950 . S
C2431 C2433 1.327 . S
C2431 C2437 1.429 . S
C2432 C2424 1.574 . S
C2432 H2427 0.949 . S
C2432 C2438 1.368 . S
C2433 C2417 1.349 . S
C2433 H2425 0.950 . S
C2433 C2431 1.327 . S
C2434 C2422 1.349 . S
C2434 H2428 0.950 . S
C2434 C2435 1.327 . S
C2435 H2429 0.950 . S
C2435 C2434 1.327 . S
C2435 C2439 1.429 . S
C2436 C2419 1.574 . S
C2436 H2430 0.949 . S
C2436 C2440 1.368 . S
C2437 C2418 1.429 . S
C2437 C2431 1.429 . S
C2437 C2438 1.523 . S
C2438 C2419 1.368 . S
C2438 C2432 1.368 . S
C2438 C2437 1.523 . S
C2439 C2423 1.429 . S
C2439 C2435 1.429 . S
C2439 C2440 1.523 . S
C2440 C2424 1.368 . S
C2440 C2436 1.368 . S
C2440 C2439 1.523 . S
H2441 C2416 0.950 . S
H2442 C2418 0.950 . S
H2443 C2419 0.949 . S
H2444 C2421 0.950 . S
H2445 C2423 0.950 . S
C2446 C2447 1.349 . S
C2446 C2448 1.327 . S
C2446 H2471 0.950 . S
C2447 C2446 1.349 . S
C2447 C2463 1.349 . S
C2448 C2446 1.327 . S
C2448 C2467 1.429 . S
C2448 H2472 0.950 . S
C2449 C2466 1.574 . S
C2449 C2468 1.368 . S
C2449 H2473 0.949 . S
H2450 C2454 0.949 . S
C2451 C2452 1.349 . S
C2451 C2453 1.327 . S
C2451 H2474 0.950 . S
C2452 C2451 1.349 . S
C2452 C2464 1.349 . S
C2453 C2451 1.327 . S
C2453 C2469 1.429 . S
C2453 H2475 0.950 . S
C2454 H2450 0.949 . S
C2454 C2462 1.574 . S
C2454 C2470 1.368 . S
H2455 C2463 0.950 . S
H2456 C2461 0.950 . S
H2457 C2462 0.949 . S
H2458 C2464 0.950 . S
H2459 C2465 0.950 . S
H2460 C2466 0.949 . S
C2461 H2456 0.950 . S
C2461 C2463 1.327 . S
C2461 C2467 1.429 . S
C2462 C2454 1.574 . S
C2462 H2457 0.949 . S
C2462 C2468 1.368 . S
C2463 C2447 1.349 . S
C2463 H2455 0.950 . S
C2463 C2461 1.327 . S
C2464 C2452 1.349 . S
C2464 H2458 0.950 . S
C2464 C2465 1.327 . S
C2465 H2459 0.950 . S
C2465 C2464 1.327 . S
C2465 C2469 1.429 . S
C2466 C2449 1.574 . S
C2466 H2460 0.949 . S
C2466 C2470 1.368 . S
C2467 C2448 1.429 . S
C2467 C2461 1.429 . S
C2467 C2468 1.523 . S
C2468 C2449 1.368 . S
C2468 C2462 1.368 . S
C2468 C2467 1.523 . S
C2469 C2453 1.429 . S
C2469 C2465 1.429 . S
C2469 C2470 1.523 . S
C2470 C2454 1.368 . S
C2470 C2466 1.368 . S
C2470 C2469 1.523 . S
H2471 C2446 0.950 . S
H2472 C2448 0.950 . S
H2473 C2449 0.949 . S
H2474 C2451 0.950 . S
H2475 C2453 0.950 . S
C2476 C2477 1.349 . S
C2476 C2478 1.327 . S
C2476 H2501 0.950 . S
C2477 C2476 1.349 . S
C2477 C2493 1.349 1_455 S
C2478 C2476 1.327 . S
C2478 C2497 1.429 . S
C2478 H2502 0.950 1_556 S
C2479 C2496 1.574 . S
C2479 C2498 1.368 . S
C2479 H2503 0.949 1_455 S
H2480 C2484 0.949 . S
C2481 C2482 1.349 . S
C2481 C2483 1.327 1_554 S
C2481 H2504 0.950 1_554 S
C2482 C2481 1.349 . S
C2482 C2494 1.349 . S
C2483 C2481 1.327 1_556 S
C2483 C2499 1.429 1_556 S
C2483 H2505 0.940 1_455 S
C2484 H2480 0.949 . S
C2484 C2492 1.574 . S
C2484 C2500 1.368 . S
H2485 C2493 0.950 . S
H2486 C2491 0.965 . S
H2487 C2492 0.949 . S
H2488 C2494 0.950 . S
H2489 C2495 0.950 . S
H2490 C2496 0.949 1_655 S
C2491 H2486 0.965 . S
C2491 C2493 1.321 . S
C2491 C2497 1.420 1_655 S
C2492 C2484 1.574 . S
C2492 H2487 0.949 . S
C2492 C2498 1.368 1_554 S
C2493 C2477 1.349 1_655 S
C2493 H2485 0.950 . S
C2493 C2491 1.321 . S
C2494 C2482 1.349 . S
C2494 H2488 0.950 . S
C2494 C2495 1.327 . S
C2495 H2489 0.950 . S
C2495 C2494 1.327 . S
C2495 C2499 1.429 . S
C2496 C2479 1.574 . S
C2496 H2490 0.949 1_455 S
C2496 C2500 1.368 1_556 S
C2497 C2478 1.429 . S
C2497 C2491 1.420 1_455 S
C2497 C2498 1.523 . S
C2498 C2479 1.368 . S
C2498 C2492 1.368 1_556 S
C2498 C2497 1.523 . S
C2499 C2483 1.429 1_554 S
C2499 C2495 1.429 . S
C2499 C2500 1.523 . S
C2500 C2484 1.368 . S
C2500 C2496 1.368 1_554 S
C2500 C2499 1.523 . S
H2501 C2476 0.950 . S
H2502 C2478 0.950 1_554 S
H2503 C2479 0.949 1_655 S
H2504 C2481 0.950 1_556 S
H2505 C2483 0.940 1_655 S
C2506 C2507 1.349 . S
C2506 C2508 1.327 . S
C2506 H2531 0.915 1_655 S
C2507 C2506 1.349 . S
C2507 C2523 1.349 . S
C2508 C2506 1.327 . S
C2508 C2527 1.429 . S
C2508 H2532 0.950 . S
C2509 C2526 1.574 . S
C2509 C2528 1.368 . S
C2509 H2533 0.949 . S
H2510 C2514 0.949 . S
C2511 C2512 1.349 . S
C2511 C2513 1.327 . S
C2511 H2534 0.950 . S
C2512 C2511 1.349 . S
C2512 C2524 1.349 . S
C2513 C2511 1.327 . S
C2513 C2529 1.429 . S
C2513 H2535 0.950 . S
C2514 H2510 0.949 . S
C2514 C2522 1.574 . S
C2514 C2530 1.368 . S
H2515 C2523 0.950 . S
H2516 C2521 0.950 . S
H2517 C2522 0.949 . S
H2518 C2524 0.950 . S
H2519 C2525 0.950 . S
H2520 C2526 0.949 . S
C2521 H2516 0.950 . S
C2521 C2523 1.327 . S
C2521 C2527 1.429 . S
C2522 C2514 1.574 . S
C2522 H2517 0.949 . S
C2522 C2528 1.368 . S
C2523 C2507 1.349 . S
C2523 H2515 0.950 . S
C2523 C2521 1.327 . S
C2524 C2512 1.349 . S
C2524 H2518 0.950 . S
C2524 C2525 1.327 . S
C2525 H2519 0.950 . S
C2525 C2524 1.327 . S
C2525 C2529 1.429 . S
C2526 C2509 1.574 . S
C2526 H2520 0.949 . S
C2526 C2530 1.368 . S
C2527 C2508 1.429 . S
C2527 C2521 1.429 . S
C2527 C2528 1.523 . S
C2528 C2509 1.368 . S
C2528 C2522 1.368 . S
C2528 C2527 1.523 . S
C2529 C2513 1.429 . S
C2529 C2525 1.429 . S
C2529 C2530 1.523 . S
C2530 C2514 1.368 . S
C2530 C2526 1.368 . S
C2530 C2529 1.523 . S
H2531 C2506 0.915 1_455 S
H2532 C2508 0.950 . S
H2533 C2509 0.949 . S
H2534 C2511 0.950 . S
H2535 C2513 0.950 . S
C2536 C2537 1.349 . S
C2536 C2538 1.327 . S
C2536 H2561 0.950 . S
C2537 C2536 1.349 . S
C2537 C2553 1.349 . S
C2538 C2536 1.327 . S
C2538 C2557 1.429 . S
C2538 H2562 0.950 . S
C2539 C2556 1.574 . S
C2539 C2558 1.368 . S
C2539 H2563 0.949 . S
H2540 C2544 0.949 . S
C2541 C2542 1.349 . S
C2541 C2543 1.327 . S
C2541 H2564 0.950 . S
C2542 C2541 1.349 . S
C2542 C2554 1.349 . S
C2543 C2541 1.327 . S
C2543 C2559 1.429 . S
C2543 H2565 0.950 . S
C2544 H2540 0.949 . S
C2544 C2552 1.574 . S
C2544 C2560 1.368 . S
H2545 C2553 0.950 . S
H2546 C2551 0.950 . S
H2547 C2552 0.949 . S
H2548 C2554 0.950 . S
H2549 C2555 0.950 . S
H2550 C2556 0.949 . S
C2551 H2546 0.950 . S
C2551 C2553 1.327 . S
C2551 C2557 1.429 . S
C2552 C2544 1.574 . S
C2552 H2547 0.949 . S
C2552 C2558 1.368 . S
C2553 C2537 1.349 . S
C2553 H2545 0.950 . S
C2553 C2551 1.327 . S
C2554 C2542 1.349 . S
C2554 H2548 0.950 . S
C2554 C2555 1.327 . S
C2555 H2549 0.950 . S
C2555 C2554 1.327 . S
C2555 C2559 1.429 . S
C2556 C2539 1.574 . S
C2556 H2550 0.949 . S
C2556 C2560 1.368 . S
C2557 C2538 1.429 . S
C2557 C2551 1.429 . S
C2557 C2558 1.523 . S
C2558 C2539 1.368 . S
C2558 C2552 1.368 . S
C2558 C2557 1.523 . S
C2559 C2543 1.429 . S
C2559 C2555 1.429 . S
C2559 C2560 1.523 . S
C2560 C2544 1.368 . S
C2560 C2556 1.368 . S
C2560 C2559 1.523 . S
H2561 C2536 0.950 . S
H2562 C2538 0.950 . S
H2563 C2539 0.949 . S
H2564 C2541 0.950 . S
H2565 C2543 0.950 . S
C2566 C2567 1.349 . S
C2566 C2568 1.327 . S
C2566 H2591 0.950 . S
C2567 C2566 1.349 . S
C2567 C2583 1.349 . S
C2568 C2566 1.327 . S
C2568 C2587 1.429 . S
C2568 H2592 0.950 . S
C2569 C2586 1.574 . S
C2569 C2588 1.368 . S
C2569 H2593 0.949 . S
H2570 C2574 0.949 . S
C2571 C2572 1.349 . S
C2571 C2573 1.327 . S
C2571 H2594 0.950 . S
C2572 C2571 1.349 . S
C2572 C2584 1.349 . S
C2573 C2571 1.327 . S
C2573 C2589 1.429 . S
C2573 H2595 0.950 . S
C2574 H2570 0.949 . S
C2574 C2582 1.574 . S
C2574 C2590 1.368 . S
H2575 C2583 0.950 . S
H2576 C2581 0.950 . S
H2577 C2582 0.949 . S
H2578 C2584 0.950 . S
H2579 C2585 0.950 . S
H2580 C2586 0.949 . S
C2581 H2576 0.950 . S
C2581 C2583 1.327 . S
C2581 C2587 1.429 . S
C2582 C2574 1.574 . S
C2582 H2577 0.949 . S
C2582 C2588 1.368 . S
C2583 C2567 1.349 . S
C2583 H2575 0.950 . S
C2583 C2581 1.327 . S
C2584 C2572 1.349 . S
C2584 H2578 0.950 . S
C2584 C2585 1.327 . S
C2585 H2579 0.950 . S
C2585 C2584 1.327 . S
C2585 C2589 1.429 . S
C2586 C2569 1.574 . S
C2586 H2580 0.949 . S
C2586 C2590 1.368 . S
C2587 C2568 1.429 . S
C2587 C2581 1.429 . S
C2587 C2588 1.523 . S
C2588 C2569 1.368 . S
C2588 C2582 1.368 . S
C2588 C2587 1.523 . S
C2589 C2573 1.429 . S
C2589 C2585 1.429 . S
C2589 C2590 1.523 . S
C2590 C2574 1.368 . S
C2590 C2586 1.368 . S
C2590 C2589 1.523 . S
H2591 C2566 0.950 . S
H2592 C2568 0.950 . S
H2593 C2569 0.949 . S
H2594 C2571 0.950 . S
H2595 C2573 0.950 . S
C2596 C2597 1.349 . S
C2596 C2598 1.327 . S
C2596 H2621 0.950 . S
C2597 C2596 1.349 . S
C2597 C2613 1.349 . S
C2598 C2596 1.327 . S
C2598 C2617 1.429 . S
C2598 H2622 0.950 . S
C2599 C2616 1.574 . S
C2599 C2618 1.368 . S
C2599 H2623 0.949 . S
H2600 C2604 0.949 . S
C2601 C2602 1.349 . S
C2601 C2603 1.327 . S
C2601 H2624 0.950 . S
C2602 C2601 1.349 . S
C2602 C2614 1.349 . S
C2603 C2601 1.327 . S
C2603 C2619 1.429 . S
C2603 H2625 0.950 . S
C2604 H2600 0.949 . S
C2604 C2612 1.574 . S
C2604 C2620 1.368 . S
H2605 C2613 0.950 . S
H2606 C2611 0.950 . S
H2607 C2612 0.949 . S
H2608 C2614 0.950 . S
H2609 C2615 0.950 . S
H2610 C2616 0.949 . S
C2611 H2606 0.950 . S
C2611 C2613 1.327 . S
C2611 C2617 1.429 . S
C2612 C2604 1.574 . S
C2612 H2607 0.949 . S
C2612 C2618 1.368 . S
C2613 C2597 1.349 . S
C2613 H2605 0.950 . S
C2613 C2611 1.327 . S
C2614 C2602 1.349 . S
C2614 H2608 0.950 . S
C2614 C2615 1.327 . S
C2615 H2609 0.950 . S
C2615 C2614 1.327 . S
C2615 C2619 1.429 . S
C2616 C2599 1.574 . S
C2616 H2610 0.949 . S
C2616 C2620 1.368 . S
C2617 C2598 1.429 . S
C2617 C2611 1.429 . S
C2617 C2618 1.523 . S
C2618 C2599 1.368 . S
C2618 C2612 1.368 . S
C2618 C2617 1.523 . S
C2619 C2603 1.429 . S
C2619 C2615 1.429 . S
C2619 C2620 1.523 . S
C2620 C2604 1.368 . S
C2620 C2616 1.368 . S
C2620 C2619 1.523 . S
H2621 C2596 0.950 . S
H2622 C2598 0.950 . S
H2623 C2599 0.949 . S
H2624 C2601 0.950 . S
H2625 C2603 0.950 . S
C2626 C2627 1.349 . S
C2626 C2628 1.327 . S
C2626 H2651 0.950 . S
C2627 C2626 1.349 . S
C2627 C2643 1.349 . S
C2628 C2626 1.327 . S
C2628 C2647 1.429 . S
C2628 H2652 0.950 . S
C2629 C2646 1.574 . S
C2629 C2648 1.368 . S
C2629 H2653 0.949 . S
H2630 C2634 0.949 . S
C2631 C2632 1.349 . S
C2631 C2633 1.327 . S
C2631 H2654 0.950 . S
C2632 C2631 1.349 . S
C2632 C2644 1.349 . S
C2633 C2631 1.327 . S
C2633 C2649 1.429 . S
C2633 H2655 0.950 . S
C2634 H2630 0.949 . S
C2634 C2642 1.574 . S
C2634 C2650 1.368 . S
H2635 C2643 0.950 . S
H2636 C2641 0.950 . S
H2637 C2642 0.949 . S
H2638 C2644 0.950 . S
H2639 C2645 0.950 . S
H2640 C2646 0.949 . S
C2641 H2636 0.950 . S
C2641 C2643 1.327 . S
C2641 C2647 1.429 . S
C2642 C2634 1.574 . S
C2642 H2637 0.949 . S
C2642 C2648 1.368 . S
C2643 C2627 1.349 . S
C2643 H2635 0.950 . S
C2643 C2641 1.327 . S
C2644 C2632 1.349 . S
C2644 H2638 0.950 . S
C2644 C2645 1.327 . S
C2645 H2639 0.950 . S
C2645 C2644 1.327 . S
C2645 C2649 1.429 . S
C2646 C2629 1.574 . S
C2646 H2640 0.949 . S
C2646 C2650 1.368 . S
C2647 C2628 1.429 . S
C2647 C2641 1.429 . S
C2647 C2648 1.523 . S
C2648 C2629 1.368 . S
C2648 C2642 1.368 . S
C2648 C2647 1.523 . S
C2649 C2633 1.429 . S
C2649 C2645 1.429 . S
C2649 C2650 1.523 . S
C2650 C2634 1.368 . S
C2650 C2646 1.368 . S
C2650 C2649 1.523 . S
H2651 C2626 0.950 . S
H2652 C2628 0.950 . S
H2653 C2629 0.949 . S
H2654 C2631 0.950 . S
H2655 C2633 0.950 . S
C2656 C2657 1.349 . S
C2656 C2658 1.327 . S
C2656 H2681 0.950 . S
C2657 C2656 1.349 . S
C2657 C2673 1.349 . S
C2658 C2656 1.327 . S
C2658 C2677 1.429 . S
C2658 H2682 0.950 . S
C2659 C2676 1.574 . S
C2659 C2678 1.368 . S
C2659 H2683 0.949 . S
H2660 C2664 0.949 . S
C2661 C2662 1.349 . S
C2661 C2663 1.327 . S
C2661 H2684 0.950 . S
C2662 C2661 1.349 . S
C2662 C2674 1.349 . S
C2663 C2661 1.327 . S
C2663 C2679 1.429 . S
C2663 H2685 0.950 . S
C2664 H2660 0.949 . S
C2664 C2672 1.574 . S
C2664 C2680 1.368 . S
H2665 C2673 0.950 . S
H2666 C2671 0.950 . S
H2667 C2672 0.949 . S
H2668 C2674 0.950 . S
H2669 C2675 0.950 . S
H2670 C2676 0.949 . S
C2671 H2666 0.950 . S
C2671 C2673 1.327 . S
C2671 C2677 1.429 . S
C2672 C2664 1.574 . S
C2672 H2667 0.949 . S
C2672 C2678 1.368 . S
C2673 C2657 1.349 . S
C2673 H2665 0.950 . S
C2673 C2671 1.327 . S
C2674 C2662 1.349 . S
C2674 H2668 0.950 . S
C2674 C2675 1.327 . S
C2675 H2669 0.950 . S
C2675 C2674 1.327 . S
C2675 C2679 1.429 . S
C2676 C2659 1.574 . S
C2676 H2670 0.949 . S
C2676 C2680 1.368 . S
C2677 C2658 1.429 . S
C2677 C2671 1.429 . S
C2677 C2678 1.523 . S
C2678 C2659 1.368 . S
C2678 C2672 1.368 . S
C2678 C2677 1.523 . S
C2679 C2663 1.429 . S
C2679 C2675 1.429 . S
C2679 C2680 1.523 . S
C2680 C2664 1.368 . S
C2680 C2676 1.368 . S
C2680 C2679 1.523 . S
H2681 C2656 0.950 . S
H2682 C2658 0.950 . S
H2683 C2659 0.949 . S
H2684 C2661 0.950 . S
H2685 C2663 0.950 . S
C2686 C2687 1.349 1_556 S
C2686 C2688 1.327 . S
C2686 H2711 0.950 . S
C2687 C2686 1.349 1_554 S
C2687 C2703 1.349 . S
C2688 C2686 1.327 . S
C2688 C2707 1.429 . S
C2688 H2712 0.950 . S
C2689 C2706 1.574 . S
C2689 C2708 1.368 . S
C2689 H2713 0.949 . S
H2690 C2694 0.949 . S
C2691 C2692 1.349 . S
C2691 C2693 1.327 . S
C2691 H2714 0.950 . S
C2692 C2691 1.349 . S
C2692 C2704 1.349 . S
C2693 C2691 1.327 . S
C2693 C2709 1.429 . S
C2693 H2715 0.950 . S
C2694 H2690 0.949 . S
C2694 C2702 1.574 . S
C2694 C2710 1.368 . S
H2695 C2703 0.950 . S
H2696 C2701 0.949 . S
H2697 C2702 0.949 . S
H2698 C2704 0.950 . S
H2699 C2705 0.950 . S
H2700 C2706 0.949 . S
C2701 H2696 0.949 . S
C2701 C2703 1.327 1_556 S
C2701 C2707 1.429 . S
C2702 C2694 1.574 . S
C2702 H2697 0.949 . S
C2702 C2708 1.368 . S
C2703 C2687 1.349 . S
C2703 H2695 0.950 . S
C2703 C2701 1.327 1_554 S
C2704 C2692 1.349 . S
C2704 H2698 0.950 . S
C2704 C2705 1.327 . S
C2705 H2699 0.950 . S
C2705 C2704 1.327 . S
C2705 C2709 1.429 . S
C2706 C2689 1.574 . S
C2706 H2700 0.949 . S
C2706 C2710 1.368 . S
C2707 C2688 1.429 . S
C2707 C2701 1.429 . S
C2707 C2708 1.523 . S
C2708 C2689 1.368 . S
C2708 C2702 1.368 . S
C2708 C2707 1.523 . S
C2709 C2693 1.429 . S
C2709 C2705 1.429 . S
C2709 C2710 1.523 . S
C2710 C2694 1.368 . S
C2710 C2706 1.368 . S
C2710 C2709 1.523 . S
H2711 C2686 0.950 . S
H2712 C2688 0.950 . S
H2713 C2689 0.949 . S
H2714 C2691 0.950 . S
H2715 C2693 0.950 . S
C2716 C2717 1.349 . S
C2716 C2718 1.327 . S
C2716 H2741 0.950 . S
C2717 C2716 1.349 . S
C2717 C2733 1.349 . S
C2718 C2716 1.327 . S
C2718 C2737 1.429 . S
C2718 H2742 0.950 . S
C2719 C2736 1.574 . S
C2719 C2738 1.368 . S
C2719 H2743 0.949 . S
H2720 C2724 0.949 . S
C2721 C2722 1.349 . S
C2721 C2723 1.327 . S
C2721 H2744 0.950 . S
C2722 C2721 1.349 . S
C2722 C2734 1.349 . S
C2723 C2721 1.327 . S
C2723 C2739 1.429 . S
C2723 H2745 0.950 . S
C2724 H2720 0.949 . S
C2724 C2732 1.574 . S
C2724 C2740 1.368 . S
H2725 C2733 0.950 . S
H2726 C2731 0.950 . S
H2727 C2732 0.949 . S
H2728 C2734 0.950 . S
H2729 C2735 0.950 . S
H2730 C2736 0.949 . S
C2731 H2726 0.950 . S
C2731 C2733 1.327 . S
C2731 C2737 1.429 . S
C2732 C2724 1.574 . S
C2732 H2727 0.949 . S
C2732 C2738 1.368 . S
C2733 C2717 1.349 . S
C2733 H2725 0.950 . S
C2733 C2731 1.327 . S
C2734 C2722 1.349 . S
C2734 H2728 0.950 . S
C2734 C2735 1.327 . S
C2735 H2729 0.950 . S
C2735 C2734 1.327 . S
C2735 C2739 1.429 . S
C2736 C2719 1.574 . S
C2736 H2730 0.949 . S
C2736 C2740 1.368 . S
C2737 C2718 1.429 . S
C2737 C2731 1.429 . S
C2737 C2738 1.523 . S
C2738 C2719 1.368 . S
C2738 C2732 1.368 . S
C2738 C2737 1.523 . S
C2739 C2723 1.429 . S
C2739 C2735 1.429 . S
C2739 C2740 1.523 . S
C2740 C2724 1.368 . S
C2740 C2736 1.368 . S
C2740 C2739 1.523 . S
H2741 C2716 0.950 . S
H2742 C2718 0.950 . S
H2743 C2719 0.949 . S
H2744 C2721 0.950 . S
H2745 C2723 0.950 . S
C2746 C2747 1.349 . S
C2746 C2748 1.327 . S
C2746 H2771 0.950 . S
C2747 C2746 1.349 . S
C2747 C2763 1.349 . S
C2748 C2746 1.327 . S
C2748 C2767 1.429 . S
C2748 H2772 0.950 . S
C2749 C2766 1.574 . S
C2749 C2768 1.368 . S
C2749 H2773 0.949 . S
H2750 C2754 0.949 . S
C2751 C2752 1.349 . S
C2751 C2753 1.327 . S
C2751 H2774 0.950 . S
C2752 C2751 1.349 . S
C2752 C2764 1.349 . S
C2753 C2751 1.327 . S
C2753 C2769 1.429 . S
C2753 H2775 0.950 . S
C2754 H2750 0.949 . S
C2754 C2762 1.574 . S
C2754 C2770 1.368 . S
H2755 C2763 0.950 . S
H2756 C2761 0.950 . S
H2757 C2762 0.949 . S
H2758 C2764 0.950 . S
H2759 C2765 0.950 . S
H2760 C2766 0.949 . S
C2761 H2756 0.950 . S
C2761 C2763 1.327 . S
C2761 C2767 1.429 . S
C2762 C2754 1.574 . S
C2762 H2757 0.949 . S
C2762 C2768 1.368 . S
C2763 C2747 1.349 . S
C2763 H2755 0.950 . S
C2763 C2761 1.327 . S
C2764 C2752 1.349 . S
C2764 H2758 0.950 . S
C2764 C2765 1.327 . S
C2765 H2759 0.950 . S
C2765 C2764 1.327 . S
C2765 C2769 1.429 . S
C2766 C2749 1.574 . S
C2766 H2760 0.949 . S
C2766 C2770 1.368 . S
C2767 C2748 1.429 . S
C2767 C2761 1.429 . S
C2767 C2768 1.523 . S
C2768 C2749 1.368 . S
C2768 C2762 1.368 . S
C2768 C2767 1.523 . S
C2769 C2753 1.429 . S
C2769 C2765 1.429 . S
C2769 C2770 1.523 . S
C2770 C2754 1.368 . S
C2770 C2766 1.368 . S
C2770 C2769 1.523 . S
H2771 C2746 0.950 . S
H2772 C2748 0.950 . S
H2773 C2749 0.949 . S
H2774 C2751 0.950 . S
H2775 C2753 0.950 . S
C2776 C2777 1.349 . S
C2776 C2778 1.327 . S
C2776 H2801 0.950 . S
C2777 C2776 1.349 . S
C2777 C2793 1.349 . S
C2778 C2776 1.327 . S
C2778 C2797 1.429 . S
C2778 H2802 0.950 . S
C2779 C2796 1.574 . S
C2779 C2798 1.368 . S
C2779 H2803 0.949 . S
H2780 C2784 0.949 . S
C2781 C2782 1.349 . S
C2781 C2783 1.327 . S
C2781 H2804 0.950 . S
C2782 C2781 1.349 . S
C2782 C2794 1.349 . S
C2783 C2781 1.327 . S
C2783 C2799 1.429 . S
C2783 H2805 0.950 . S
C2784 H2780 0.949 . S
C2784 C2792 1.574 . S
C2784 C2800 1.368 . S
H2785 C2793 0.950 . S
H2786 C2791 0.950 . S
H2787 C2792 0.949 . S
H2788 C2794 0.950 . S
H2789 C2795 0.950 . S
H2790 C2796 0.949 . S
C2791 H2786 0.950 . S
C2791 C2793 1.327 . S
C2791 C2797 1.429 . S
C2792 C2784 1.574 . S
C2792 H2787 0.949 . S
C2792 C2798 1.368 . S
C2793 C2777 1.349 . S
C2793 H2785 0.950 . S
C2793 C2791 1.327 . S
C2794 C2782 1.349 . S
C2794 H2788 0.950 . S
C2794 C2795 1.327 . S
C2795 H2789 0.950 . S
C2795 C2794 1.327 . S
C2795 C2799 1.429 . S
C2796 C2779 1.574 . S
C2796 H2790 0.949 . S
C2796 C2800 1.368 . S
C2797 C2778 1.429 . S
C2797 C2791 1.429 . S
C2797 C2798 1.523 . S
C2798 C2779 1.368 . S
C2798 C2792 1.368 . S
C2798 C2797 1.523 . S
C2799 C2783 1.429 . S
C2799 C2795 1.429 . S
C2799 C2800 1.523 . S
C2800 C2784 1.368 . S
C2800 C2796 1.368 . S
C2800 C2799 1.523 . S
H2801 C2776 0.950 . S
H2802 C2778 0.950 . S
H2803 C2779 0.949 . S
H2804 C2781 0.950 . S
H2805 C2783 0.950 . S
C2806 C2807 1.349 . S
C2806 C2808 1.327 . S
C2806 H2831 0.950 . S
C2807 C2806 1.349 . S
C2807 C2823 1.349 . S
C2808 C2806 1.327 . S
C2808 C2827 1.429 . S
C2808 H2832 0.950 . S
C2809 C2826 1.574 . S
C2809 C2828 1.368 . S
C2809 H2833 0.949 . S
H2810 C2814 0.949 . S
C2811 C2812 1.349 . S
C2811 C2813 1.327 . S
C2811 H2834 0.950 . S
C2812 C2811 1.349 . S
C2812 C2824 1.349 . S
C2813 C2811 1.327 . S
C2813 C2829 1.429 . S
C2813 H2835 0.950 . S
C2814 H2810 0.949 . S
C2814 C2822 1.574 . S
C2814 C2830 1.368 . S
H2815 C2823 0.950 . S
H2816 C2821 0.950 . S
H2817 C2822 0.949 . S
H2818 C2824 0.950 . S
H2819 C2825 0.950 . S
H2820 C2826 0.949 . S
C2821 H2816 0.950 . S
C2821 C2823 1.327 . S
C2821 C2827 1.429 . S
C2822 C2814 1.574 . S
C2822 H2817 0.949 . S
C2822 C2828 1.368 . S
C2823 C2807 1.349 . S
C2823 H2815 0.950 . S
C2823 C2821 1.327 . S
C2824 C2812 1.349 . S
C2824 H2818 0.950 . S
C2824 C2825 1.327 . S
C2825 H2819 0.950 . S
C2825 C2824 1.327 . S
C2825 C2829 1.429 . S
C2826 C2809 1.574 . S
C2826 H2820 0.949 . S
C2826 C2830 1.368 . S
C2827 C2808 1.429 . S
C2827 C2821 1.429 . S
C2827 C2828 1.523 . S
C2828 C2809 1.368 . S
C2828 C2822 1.368 . S
C2828 C2827 1.523 . S
C2829 C2813 1.429 . S
C2829 C2825 1.429 . S
C2829 C2830 1.523 . S
C2830 C2814 1.368 . S
C2830 C2826 1.368 . S
C2830 C2829 1.523 . S
H2831 C2806 0.950 . S
H2832 C2808 0.950 . S
H2833 C2809 0.949 . S
H2834 C2811 0.950 . S
H2835 C2813 0.950 . S
C2836 C2837 1.349 . S
C2836 C2838 1.327 . S
C2836 H2861 0.950 . S
C2837 C2836 1.349 . S
C2837 C2853 1.349 . S
C2838 C2836 1.327 . S
C2838 C2857 1.429 . S
C2838 H2862 0.950 . S
C2839 C2856 1.574 . S
C2839 C2858 1.368 . S
C2839 H2863 0.949 . S
H2840 C2844 0.949 . S
C2841 C2842 1.349 . S
C2841 C2843 1.327 . S
C2841 H2864 0.950 . S
C2842 C2841 1.349 . S
C2842 C2854 1.349 . S
C2843 C2841 1.327 . S
C2843 C2859 1.429 . S
C2843 H2865 0.950 . S
C2844 H2840 0.949 . S
C2844 C2852 1.574 . S
C2844 C2860 1.368 . S
H2845 C2853 0.950 . S
H2846 C2851 0.950 . S
H2847 C2852 0.949 . S
H2848 C2854 0.950 . S
H2849 C2855 0.950 . S
H2850 C2856 0.949 . S
C2851 H2846 0.950 . S
C2851 C2853 1.327 . S
C2851 C2857 1.429 . S
C2852 C2844 1.574 . S
C2852 H2847 0.949 . S
C2852 C2858 1.368 . S
C2853 C2837 1.349 . S
C2853 H2845 0.950 . S
C2853 C2851 1.327 . S
C2854 C2842 1.349 . S
C2854 H2848 0.950 . S
C2854 C2855 1.327 . S
C2855 H2849 0.950 . S
C2855 C2854 1.327 . S
C2855 C2859 1.429 . S
C2856 C2839 1.574 . S
C2856 H2850 0.949 . S
C2856 C2860 1.368 . S
C2857 C2838 1.429 . S
C2857 C2851 1.429 . S
C2857 C2858 1.523 . S
C2858 C2839 1.368 . S
C2858 C2852 1.368 . S
C2858 C2857 1.523 . S
C2859 C2843 1.429 . S
C2859 C2855 1.429 . S
C2859 C2860 1.523 . S
C2860 C2844 1.368 . S
C2860 C2856 1.368 . S
C2860 C2859 1.523 . S
H2861 C2836 0.950 . S
H2862 C2838 0.950 . S
H2863 C2839 0.949 . S
H2864 C2841 0.950 . S
H2865 C2843 0.950 . S
C2866 C2867 1.349 . S
C2866 C2868 1.327 . S
C2866 H2891 0.950 . S
C2867 C2866 1.349 . S
C2867 C2883 1.349 . S
C2868 C2866 1.327 . S
C2868 C2887 1.429 . S
C2868 H2892 0.950 . S
C2869 C2886 1.574 . S
C2869 C2888 1.368 . S
C2869 H2893 0.949 . S
H2870 C2874 0.949 . S
C2871 C2872 1.349 . S
C2871 C2873 1.327 . S
C2871 H2894 0.950 . S
C2872 C2871 1.349 . S
C2872 C2884 1.349 . S
C2873 C2871 1.327 . S
C2873 C2889 1.429 . S
C2873 H2895 0.950 . S
C2874 H2870 0.949 . S
C2874 C2882 1.574 . S
C2874 C2890 1.368 . S
H2875 C2883 0.950 . S
H2876 C2881 0.950 . S
H2877 C2882 0.949 . S
H2878 C2884 0.950 . S
H2879 C2885 0.950 . S
H2880 C2886 0.949 . S
C2881 H2876 0.950 . S
C2881 C2883 1.327 . S
C2881 C2887 1.429 . S
C2882 C2874 1.574 . S
C2882 H2877 0.949 . S
C2882 C2888 1.368 . S
C2883 C2867 1.349 . S
C2883 H2875 0.950 . S
C2883 C2881 1.327 . S
C2884 C2872 1.349 . S
C2884 H2878 0.950 . S
C2884 C2885 1.327 . S
C2885 H2879 0.950 . S
C2885 C2884 1.327 . S
C2885 C2889 1.429 . S
C2886 C2869 1.574 . S
C2886 H2880 0.949 . S
C2886 C2890 1.368 . S
C2887 C2868 1.429 . S
C2887 C2881 1.429 . S
C2887 C2888 1.523 . S
C2888 C2869 1.368 . S
C2888 C2882 1.368 . S
C2888 C2887 1.523 . S
C2889 C2873 1.429 . S
C2889 C2885 1.429 . S
C2889 C2890 1.523 . S
C2890 C2874 1.368 . S
C2890 C2886 1.368 . S
C2890 C2889 1.523 . S
H2891 C2866 0.950 . S
H2892 C2868 0.950 . S
H2893 C2869 0.949 . S
H2894 C2871 0.950 . S
H2895 C2873 0.950 . S
C2896 C2897 1.349 . S
C2896 C2898 1.327 . S
C2896 H2921 0.950 . S
C2897 C2896 1.349 . S
C2897 C2913 1.349 . S
C2898 C2896 1.327 . S
C2898 C2917 1.429 . S
C2898 H2922 0.950 . S
C2899 C2916 1.574 . S
C2899 C2918 1.368 . S
C2899 H2923 0.949 . S
H2900 C2904 0.949 . S
C2901 C2902 1.349 . S
C2901 C2903 1.327 . S
C2901 H2924 0.950 . S
C2902 C2901 1.349 . S
C2902 C2914 1.349 . S
C2903 C2901 1.327 . S
C2903 C2919 1.429 . S
C2903 H2925 0.950 . S
C2904 H2900 0.949 . S
C2904 C2912 1.574 . S
C2904 C2920 1.368 . S
H2905 C2913 0.950 . S
H2906 C2911 0.950 . S
H2907 C2912 0.949 . S
H2908 C2914 0.950 . S
H2909 C2915 0.950 . S
H2910 C2916 0.949 . S
C2911 H2906 0.950 . S
C2911 C2913 1.327 . S
C2911 C2917 1.429 . S
C2912 C2904 1.574 . S
C2912 H2907 0.949 . S
C2912 C2918 1.368 . S
C2913 C2897 1.349 . S
C2913 H2905 0.950 . S
C2913 C2911 1.327 . S
C2914 C2902 1.349 . S
C2914 H2908 0.950 . S
C2914 C2915 1.327 . S
C2915 H2909 0.950 . S
C2915 C2914 1.327 . S
C2915 C2919 1.429 . S
C2916 C2899 1.574 . S
C2916 H2910 0.949 . S
C2916 C2920 1.368 . S
C2917 C2898 1.429 . S
C2917 C2911 1.429 . S
C2917 C2918 1.523 . S
C2918 C2899 1.368 . S
C2918 C2912 1.368 . S
C2918 C2917 1.523 . S
C2919 C2903 1.429 . S
C2919 C2915 1.429 . S
C2919 C2920 1.523 . S
C2920 C2904 1.368 . S
C2920 C2916 1.368 . S
C2920 C2919 1.523 . S
H2921 C2896 0.950 . S
H2922 C2898 0.950 . S
H2923 C2899 0.949 . S
H2924 C2901 0.950 . S
H2925 C2903 0.950 . S
C2926 C2927 1.349 . S
C2926 C2928 1.327 . S
C2926 H2951 0.950 . S
C2927 C2926 1.349 . S
C2927 C2943 1.349 . S
C2928 C2926 1.327 . S
C2928 C2947 1.429 . S
C2928 H2952 0.950 . S
C2929 C2946 1.574 . S
C2929 C2948 1.368 . S
C2929 H2953 0.949 . S
H2930 C2934 0.949 . S
C2931 C2932 1.349 . S
C2931 C2933 1.327 . S
C2931 H2954 0.950 . S
C2932 C2931 1.349 . S
C2932 C2944 1.349 . S
C2933 C2931 1.327 . S
C2933 C2949 1.429 . S
C2933 H2955 0.950 . S
C2934 H2930 0.949 . S
C2934 C2942 1.574 . S
C2934 C2950 1.368 . S
H2935 C2943 0.950 . S
H2936 C2941 0.950 . S
H2937 C2942 0.949 . S
H2938 C2944 0.950 . S
H2939 C2945 0.950 . S
H2940 C2946 0.949 . S
C2941 H2936 0.950 . S
C2941 C2943 1.327 . S
C2941 C2947 1.429 . S
C2942 C2934 1.574 . S
C2942 H2937 0.949 . S
C2942 C2948 1.368 . S
C2943 C2927 1.349 . S
C2943 H2935 0.950 . S
C2943 C2941 1.327 . S
C2944 C2932 1.349 . S
C2944 H2938 0.950 . S
C2944 C2945 1.327 . S
C2945 H2939 0.950 . S
C2945 C2944 1.327 . S
C2945 C2949 1.429 . S
C2946 C2929 1.574 . S
C2946 H2940 0.949 . S
C2946 C2950 1.368 . S
C2947 C2928 1.429 . S
C2947 C2941 1.429 . S
C2947 C2948 1.523 . S
C2948 C2929 1.368 . S
C2948 C2942 1.368 . S
C2948 C2947 1.523 . S
C2949 C2933 1.429 . S
C2949 C2945 1.429 . S
C2949 C2950 1.523 . S
C2950 C2934 1.368 . S
C2950 C2946 1.368 . S
C2950 C2949 1.523 . S
H2951 C2926 0.950 . S
H2952 C2928 0.950 . S
H2953 C2929 0.949 . S
H2954 C2931 0.950 . S
H2955 C2933 0.950 . S
C2956 C2957 1.349 . S
C2956 C2958 1.327 . S
C2956 H2981 0.951 . S
C2957 C2956 1.349 . S
C2957 C2973 1.349 . S
C2958 C2956 1.327 . S
C2958 C2977 1.429 . S
C2958 H2982 0.950 . S
C2959 C2976 1.574 . S
C2959 C2978 1.368 . S
C2959 H2983 0.949 . S
H2960 C2964 0.949 . S
C2961 C2962 1.349 . S
C2961 C2963 1.327 . S
C2961 H2984 0.950 . S
C2962 C2961 1.349 . S
C2962 C2974 1.349 . S
C2963 C2961 1.327 . S
C2963 C2979 1.429 . S
C2963 H2985 0.950 . S
C2964 H2960 0.949 . S
C2964 C2972 1.574 . S
C2964 C2980 1.368 . S
H2965 C2973 0.950 . S
H2966 C2971 0.950 . S
H2967 C2972 0.949 . S
H2968 C2974 0.950 . S
H2969 C2975 0.950 . S
H2970 C2976 0.949 . S
C2971 H2966 0.950 . S
C2971 C2973 1.327 . S
C2971 C2977 1.429 . S
C2972 C2964 1.574 . S
C2972 H2967 0.949 . S
C2972 C2978 1.368 . S
C2973 C2957 1.349 . S
C2973 H2965 0.950 . S
C2973 C2971 1.327 . S
C2974 C2962 1.349 . S
C2974 H2968 0.950 . S
C2974 C2975 1.327 . S
C2975 H2969 0.950 . S
C2975 C2974 1.327 . S
C2975 C2979 1.429 . S
C2976 C2959 1.574 . S
C2976 H2970 0.949 . S
C2976 C2980 1.368 . S
C2977 C2958 1.429 . S
C2977 C2971 1.429 . S
C2977 C2978 1.523 . S
C2978 C2959 1.368 . S
C2978 C2972 1.368 . S
C2978 C2977 1.523 . S
C2979 C2963 1.429 . S
C2979 C2975 1.429 . S
C2979 C2980 1.523 . S
C2980 C2964 1.368 . S
C2980 C2976 1.368 . S
C2980 C2979 1.523 . S
H2981 C2956 0.951 . S
H2982 C2958 0.950 . S
H2983 C2959 0.949 . S
H2984 C2961 0.950 . S
H2985 C2963 0.950 . S
C2986 C2987 1.349 . S
C2986 C2988 1.327 . S
C2986 H3011 0.950 . S
C2987 C2986 1.349 . S
C2987 C3003 1.349 1_554 S
C2988 C2986 1.327 . S
C2988 C3007 1.429 . S
C2988 H3012 0.950 . S
C2989 C3006 1.574 . S
C2989 C3008 1.368 1_556 S
C2989 H3013 0.949 . S
H2990 C2994 0.949 . S
C2991 C2992 1.349 . S
C2991 C2993 1.327 . S
C2991 H3014 0.950 1_554 S
C2992 C2991 1.349 . S
C2992 C3004 1.349 . S
C2993 C2991 1.327 . S
C2993 C3009 1.429 1_545 S
C2993 H3015 0.950 1_554 S
C2994 H2990 0.949 . S
C2994 C3002 1.574 . S
C2994 C3010 1.368 . S
H2995 C3003 0.950 . S
H2996 C3001 0.950 . S
H2997 C3002 0.949 . S
H2998 C3004 0.950 . S
H2999 C3005 0.950 . S
H3000 C3006 0.949 . S
C3001 H2996 0.950 . S
C3001 C3003 1.327 . S
C3001 C3007 1.429 1_556 S
C3002 C2994 1.574 . S
C3002 H2997 0.949 . S
C3002 C3008 1.368 . S
C3003 C2987 1.349 1_556 S
C3003 H2995 0.950 . S
C3003 C3001 1.327 . S
C3004 C2992 1.349 . S
C3004 H2998 0.950 . S
C3004 C3005 1.327 1_545 S
C3005 H2999 0.950 . S
C3005 C3004 1.327 1_565 S
C3005 C3009 1.429 . S
C3006 C2989 1.574 . S
C3006 H3000 0.949 . S
C3006 C3010 1.368 1_556 S
C3007 C2988 1.429 . S
C3007 C3001 1.429 1_554 S
C3007 C3008 1.523 . S
C3008 C2989 1.368 1_554 S
C3008 C3002 1.368 . S
C3008 C3007 1.523 . S
C3009 C2993 1.429 1_565 S
C3009 C3005 1.429 . S
C3009 C3010 1.523 . S
C3010 C2994 1.368 . S
C3010 C3006 1.368 1_554 S
C3010 C3009 1.523 . S
H3011 C2986 0.950 . S
H3012 C2988 0.950 . S
H3013 C2989 0.949 . S
H3014 C2991 0.950 1_556 S
H3015 C2993 0.950 1_556 S
C3016 C3017 1.349 . S
C3016 C3018 1.327 . S
C3016 H3041 0.950 . S
C3017 C3016 1.349 . S
C3017 C3033 1.349 . S
C3018 C3016 1.327 . S
C3018 C3037 1.429 . S
C3018 H3042 0.950 . S
C3019 C3036 1.574 . S
C3019 C3038 1.368 . S
C3019 H3043 0.949 . S
H3020 C3024 0.949 . S
C3021 C3022 1.349 . S
C3021 C3023 1.327 . S
C3021 H3044 0.950 . S
C3022 C3021 1.349 . S
C3022 C3034 1.349 . S
C3023 C3021 1.327 . S
C3023 C3039 1.429 . S
C3023 H3045 0.950 . S
C3024 H3020 0.949 . S
C3024 C3032 1.574 . S
C3024 C3040 1.368 . S
H3025 C3033 0.950 . S
H3026 C3031 0.950 . S
H3027 C3032 0.949 . S
H3028 C3034 0.950 . S
H3029 C3035 0.950 . S
H3030 C3036 0.949 . S
C3031 H3026 0.950 . S
C3031 C3033 1.327 . S
C3031 C3037 1.429 . S
C3032 C3024 1.574 . S
C3032 H3027 0.949 . S
C3032 C3038 1.368 . S
C3033 C3017 1.349 . S
C3033 H3025 0.950 . S
C3033 C3031 1.327 . S
C3034 C3022 1.349 . S
C3034 H3028 0.950 . S
C3034 C3035 1.327 . S
C3035 H3029 0.950 . S
C3035 C3034 1.327 . S
C3035 C3039 1.429 . S
C3036 C3019 1.574 . S
C3036 H3030 0.949 . S
C3036 C3040 1.368 . S
C3037 C3018 1.429 . S
C3037 C3031 1.429 . S
C3037 C3038 1.523 . S
C3038 C3019 1.368 . S
C3038 C3032 1.368 . S
C3038 C3037 1.523 . S
C3039 C3023 1.429 . S
C3039 C3035 1.429 . S
C3039 C3040 1.523 . S
C3040 C3024 1.368 . S
C3040 C3036 1.368 . S
C3040 C3039 1.523 . S
H3041 C3016 0.950 . S
H3042 C3018 0.950 . S
H3043 C3019 0.949 . S
H3044 C3021 0.950 . S
H3045 C3023 0.950 . S
C3046 C3047 1.349 . S
C3046 C3048 1.327 . S
C3046 H3071 0.950 . S
C3047 C3046 1.349 . S
C3047 C3063 1.349 . S
C3048 C3046 1.327 . S
C3048 C3067 1.429 . S
C3048 H3072 0.950 . S
C3049 C3066 1.574 . S
C3049 C3068 1.368 . S
C3049 H3073 0.949 . S
H3050 C3054 0.949 . S
C3051 C3052 1.349 . S
C3051 C3053 1.327 . S
C3051 H3074 0.950 . S
C3052 C3051 1.349 . S
C3052 C3064 1.349 . S
C3053 C3051 1.327 . S
C3053 C3069 1.429 . S
C3053 H3075 0.950 . S
C3054 H3050 0.949 . S
C3054 C3062 1.574 . S
C3054 C3070 1.368 . S
H3055 C3063 0.950 . S
H3056 C3061 0.950 . S
H3057 C3062 0.949 . S
H3058 C3064 0.950 . S
H3059 C3065 0.950 . S
H3060 C3066 0.949 . S
C3061 H3056 0.950 . S
C3061 C3063 1.327 . S
C3061 C3067 1.429 . S
C3062 C3054 1.574 . S
C3062 H3057 0.949 . S
C3062 C3068 1.368 . S
C3063 C3047 1.349 . S
C3063 H3055 0.950 . S
C3063 C3061 1.327 . S
C3064 C3052 1.349 . S
C3064 H3058 0.950 . S
C3064 C3065 1.327 . S
C3065 H3059 0.950 . S
C3065 C3064 1.327 . S
C3065 C3069 1.429 . S
C3066 C3049 1.574 . S
C3066 H3060 0.949 . S
C3066 C3070 1.368 . S
C3067 C3048 1.429 . S
C3067 C3061 1.429 . S
C3067 C3068 1.523 . S
C3068 C3049 1.368 . S
C3068 C3062 1.368 . S
C3068 C3067 1.523 . S
C3069 C3053 1.429 . S
C3069 C3065 1.429 . S
C3069 C3070 1.523 . S
C3070 C3054 1.368 . S
C3070 C3066 1.368 . S
C3070 C3069 1.523 . S
H3071 C3046 0.950 . S
H3072 C3048 0.950 . S
H3073 C3049 0.949 . S
H3074 C3051 0.950 . S
H3075 C3053 0.950 . S
C3076 C3077 1.349 . S
C3076 C3078 1.327 . S
C3076 H3101 0.950 . S
C3077 C3076 1.349 . S
C3077 C3093 1.349 . S
C3078 C3076 1.327 . S
C3078 C3097 1.429 . S
C3078 H3102 0.950 . S
C3079 C3096 1.574 . S
C3079 C3098 1.368 . S
C3079 H3103 0.949 . S
H3080 C3084 0.949 . S
C3081 C3082 1.349 . S
C3081 C3083 1.327 . S
C3081 H3104 0.950 . S
C3082 C3081 1.349 . S
C3082 C3094 1.349 . S
C3083 C3081 1.327 . S
C3083 C3099 1.429 . S
C3083 H3105 0.950 . S
C3084 H3080 0.949 . S
C3084 C3092 1.574 . S
C3084 C3100 1.368 . S
H3085 C3093 0.950 . S
H3086 C3091 0.950 . S
H3087 C3092 0.949 . S
H3088 C3094 0.950 . S
H3089 C3095 0.950 . S
H3090 C3096 0.949 . S
C3091 H3086 0.950 . S
C3091 C3093 1.327 . S
C3091 C3097 1.429 . S
C3092 C3084 1.574 . S
C3092 H3087 0.949 . S
C3092 C3098 1.368 . S
C3093 C3077 1.349 . S
C3093 H3085 0.950 . S
C3093 C3091 1.327 . S
C3094 C3082 1.349 . S
C3094 H3088 0.950 . S
C3094 C3095 1.327 . S
C3095 H3089 0.950 . S
C3095 C3094 1.327 . S
C3095 C3099 1.429 . S
C3096 C3079 1.574 . S
C3096 H3090 0.949 . S
C3096 C3100 1.368 . S
C3097 C3078 1.429 . S
C3097 C3091 1.429 . S
C3097 C3098 1.523 . S
C3098 C3079 1.368 . S
C3098 C3092 1.368 . S
C3098 C3097 1.523 . S
C3099 C3083 1.429 . S
C3099 C3095 1.429 . S
C3099 C3100 1.523 . S
C3100 C3084 1.368 . S
C3100 C3096 1.368 . S
C3100 C3099 1.523 . S
H3101 C3076 0.950 . S
H3102 C3078 0.950 . S
H3103 C3079 0.949 . S
H3104 C3081 0.950 . S
H3105 C3083 0.950 . S
C3106 C3107 1.349 . S
C3106 C3108 1.327 . S
C3106 H3131 0.950 . S
C3107 C3106 1.349 . S
C3107 C3123 1.349 . S
C3108 C3106 1.327 . S
C3108 C3127 1.429 . S
C3108 H3132 0.950 . S
C3109 C3126 1.574 . S
C3109 C3128 1.368 . S
C3109 H3133 0.949 . S
H3110 C3114 0.949 . S
C3111 C3112 1.349 . S
C3111 C3113 1.327 . S
C3111 H3134 0.950 . S
C3112 C3111 1.349 . S
C3112 C3124 1.349 . S
C3113 C3111 1.327 . S
C3113 C3129 1.429 . S
C3113 H3135 0.950 . S
C3114 H3110 0.949 . S
C3114 C3122 1.574 . S
C3114 C3130 1.368 . S
H3115 C3123 0.950 . S
H3116 C3121 0.950 . S
H3117 C3122 0.949 . S
H3118 C3124 0.950 . S
H3119 C3125 0.950 . S
H3120 C3126 0.949 . S
C3121 H3116 0.950 . S
C3121 C3123 1.327 . S
C3121 C3127 1.429 . S
C3122 C3114 1.574 . S
C3122 H3117 0.949 . S
C3122 C3128 1.368 . S
C3123 C3107 1.349 . S
C3123 H3115 0.950 . S
C3123 C3121 1.327 . S
C3124 C3112 1.349 . S
C3124 H3118 0.950 . S
C3124 C3125 1.327 . S
C3125 H3119 0.950 . S
C3125 C3124 1.327 . S
C3125 C3129 1.429 . S
C3126 C3109 1.574 . S
C3126 H3120 0.949 . S
C3126 C3130 1.368 . S
C3127 C3108 1.429 . S
C3127 C3121 1.429 . S
C3127 C3128 1.523 . S
C3128 C3109 1.368 . S
C3128 C3122 1.368 . S
C3128 C3127 1.523 . S
C3129 C3113 1.429 . S
C3129 C3125 1.429 . S
C3129 C3130 1.523 . S
C3130 C3114 1.368 . S
C3130 C3126 1.368 . S
C3130 C3129 1.523 . S
H3131 C3106 0.950 . S
H3132 C3108 0.950 . S
H3133 C3109 0.949 . S
H3134 C3111 0.950 . S
H3135 C3113 0.950 . S
C3136 C3137 1.349 . S
C3136 C3138 1.327 . S
C3136 H3161 0.950 . S
C3137 C3136 1.349 . S
C3137 C3153 1.349 . S
C3138 C3136 1.327 . S
C3138 C3157 1.429 . S
C3138 H3162 0.950 . S
C3139 C3156 1.574 . S
C3139 C3158 1.368 . S
C3139 H3163 0.949 . S
H3140 C3144 0.949 . S
C3141 C3142 1.349 . S
C3141 C3143 1.327 . S
C3141 H3164 0.950 . S
C3142 C3141 1.349 . S
C3142 C3154 1.349 . S
C3143 C3141 1.327 . S
C3143 C3159 1.429 . S
C3143 H3165 0.950 . S
C3144 H3140 0.949 . S
C3144 C3152 1.574 . S
C3144 C3160 1.368 . S
H3145 C3153 0.950 . S
H3146 C3151 0.950 . S
H3147 C3152 0.949 . S
H3148 C3154 0.950 . S
H3149 C3155 0.950 . S
H3150 C3156 0.949 . S
C3151 H3146 0.950 . S
C3151 C3153 1.327 . S
C3151 C3157 1.429 . S
C3152 C3144 1.574 . S
C3152 H3147 0.949 . S
C3152 C3158 1.368 . S
C3153 C3137 1.349 . S
C3153 H3145 0.950 . S
C3153 C3151 1.327 . S
C3154 C3142 1.349 . S
C3154 H3148 0.950 . S
C3154 C3155 1.327 . S
C3155 H3149 0.950 . S
C3155 C3154 1.327 . S
C3155 C3159 1.429 . S
C3156 C3139 1.574 . S
C3156 H3150 0.949 . S
C3156 C3160 1.368 . S
C3157 C3138 1.429 . S
C3157 C3151 1.429 . S
C3157 C3158 1.523 . S
C3158 C3139 1.368 . S
C3158 C3152 1.368 . S
C3158 C3157 1.523 . S
C3159 C3143 1.429 . S
C3159 C3155 1.429 . S
C3159 C3160 1.523 . S
C3160 C3144 1.368 . S
C3160 C3156 1.368 . S
C3160 C3159 1.523 . S
H3161 C3136 0.950 . S
H3162 C3138 0.950 . S
H3163 C3139 0.949 . S
H3164 C3141 0.950 . S
H3165 C3143 0.950 . S
C3166 C3167 1.349 . S
C3166 C3168 1.327 . S
C3166 H3191 0.950 . S
C3167 C3166 1.349 . S
C3167 C3183 1.349 . S
C3168 C3166 1.327 . S
C3168 C3187 1.429 . S
C3168 H3192 0.950 . S
C3169 C3186 1.574 . S
C3169 C3188 1.368 . S
C3169 H3193 0.949 . S
H3170 C3174 0.949 . S
C3171 C3172 1.349 . S
C3171 C3173 1.327 . S
C3171 H3194 0.950 . S
C3172 C3171 1.349 . S
C3172 C3184 1.349 . S
C3173 C3171 1.327 . S
C3173 C3189 1.429 . S
C3173 H3195 0.950 . S
C3174 H3170 0.949 . S
C3174 C3182 1.574 . S
C3174 C3190 1.368 . S
H3175 C3183 0.950 . S
H3176 C3181 0.950 . S
H3177 C3182 0.949 . S
H3178 C3184 0.950 . S
H3179 C3185 0.950 . S
H3180 C3186 0.949 . S
C3181 H3176 0.950 . S
C3181 C3183 1.327 . S
C3181 C3187 1.429 . S
C3182 C3174 1.574 . S
C3182 H3177 0.949 . S
C3182 C3188 1.368 . S
C3183 C3167 1.349 . S
C3183 H3175 0.950 . S
C3183 C3181 1.327 . S
C3184 C3172 1.349 . S
C3184 H3178 0.950 . S
C3184 C3185 1.327 . S
C3185 H3179 0.950 . S
C3185 C3184 1.327 . S
C3185 C3189 1.429 . S
C3186 C3169 1.574 . S
C3186 H3180 0.949 . S
C3186 C3190 1.368 . S
C3187 C3168 1.429 . S
C3187 C3181 1.429 . S
C3187 C3188 1.523 . S
C3188 C3169 1.368 . S
C3188 C3182 1.368 . S
C3188 C3187 1.523 . S
C3189 C3173 1.429 . S
C3189 C3185 1.429 . S
C3189 C3190 1.523 . S
C3190 C3174 1.368 . S
C3190 C3186 1.368 . S
C3190 C3189 1.523 . S
H3191 C3166 0.950 . S
H3192 C3168 0.950 . S
H3193 C3169 0.949 . S
H3194 C3171 0.950 . S
H3195 C3173 0.950 . S
C3196 C3197 1.349 . S
C3196 C3198 1.327 . S
C3196 H3221 0.950 . S
C3197 C3196 1.349 . S
C3197 C3213 1.349 . S
C3198 C3196 1.327 . S
C3198 C3217 1.429 . S
C3198 H3222 0.950 . S
C3199 C3216 1.574 . S
C3199 C3218 1.368 . S
C3199 H3223 0.949 . S
H3200 C3204 0.949 . S
C3201 C3202 1.349 . S
C3201 C3203 1.327 . S
C3201 H3224 0.950 . S
C3202 C3201 1.349 . S
C3202 C3214 1.349 . S
C3203 C3201 1.327 . S
C3203 C3219 1.429 . S
C3203 H3225 0.950 . S
C3204 H3200 0.949 . S
C3204 C3212 1.574 . S
C3204 C3220 1.368 . S
H3205 C3213 0.950 . S
H3206 C3211 0.950 . S
H3207 C3212 0.949 . S
H3208 C3214 0.950 . S
H3209 C3215 0.950 . S
H3210 C3216 0.949 . S
C3211 H3206 0.950 . S
C3211 C3213 1.327 . S
C3211 C3217 1.429 . S
C3212 C3204 1.574 . S
C3212 H3207 0.949 . S
C3212 C3218 1.368 . S
C3213 C3197 1.349 . S
C3213 H3205 0.950 . S
C3213 C3211 1.327 . S
C3214 C3202 1.349 . S
C3214 H3208 0.950 . S
C3214 C3215 1.327 . S
C3215 H3209 0.950 . S
C3215 C3214 1.327 . S
C3215 C3219 1.429 . S
C3216 C3199 1.574 . S
C3216 H3210 0.949 . S
C3216 C3220 1.368 . S
C3217 C3198 1.429 . S
C3217 C3211 1.429 . S
C3217 C3218 1.523 . S
C3218 C3199 1.368 . S
C3218 C3212 1.368 . S
C3218 C3217 1.523 . S
C3219 C3203 1.429 . S
C3219 C3215 1.429 . S
C3219 C3220 1.523 . S
C3220 C3204 1.368 . S
C3220 C3216 1.368 . S
C3220 C3219 1.523 . S
H3221 C3196 0.950 . S
H3222 C3198 0.950 . S
H3223 C3199 0.949 . S
H3224 C3201 0.950 . S
H3225 C3203 0.950 . S
C3226 C3227 1.349 . S
C3226 C3228 1.327 . S
C3226 H3251 0.950 . S
C3227 C3226 1.349 . S
C3227 C3243 1.349 . S
C3228 C3226 1.327 . S
C3228 C3247 1.429 . S
C3228 H3252 0.950 . S
C3229 C3246 1.574 . S
C3229 C3248 1.368 . S
C3229 H3253 0.949 . S
H3230 C3234 0.949 . S
C3231 C3232 1.349 . S
C3231 C3233 1.327 . S
C3231 H3254 0.950 . S
C3232 C3231 1.349 . S
C3232 C3244 1.349 . S
C3233 C3231 1.327 . S
C3233 C3249 1.429 . S
C3233 H3255 0.950 . S
C3234 H3230 0.949 . S
C3234 C3242 1.574 . S
C3234 C3250 1.368 . S
H3235 C3243 0.950 . S
H3236 C3241 0.950 . S
H3237 C3242 0.949 . S
H3238 C3244 0.950 . S
H3239 C3245 0.950 . S
H3240 C3246 0.949 . S
C3241 H3236 0.950 . S
C3241 C3243 1.327 . S
C3241 C3247 1.429 . S
C3242 C3234 1.574 . S
C3242 H3237 0.949 . S
C3242 C3248 1.368 . S
C3243 C3227 1.349 . S
C3243 H3235 0.950 . S
C3243 C3241 1.327 . S
C3244 C3232 1.349 . S
C3244 H3238 0.950 . S
C3244 C3245 1.327 . S
C3245 H3239 0.950 . S
C3245 C3244 1.327 . S
C3245 C3249 1.429 . S
C3246 C3229 1.574 . S
C3246 H3240 0.949 . S
C3246 C3250 1.368 . S
C3247 C3228 1.429 . S
C3247 C3241 1.429 . S
C3247 C3248 1.523 . S
C3248 C3229 1.368 . S
C3248 C3242 1.368 . S
C3248 C3247 1.523 . S
C3249 C3233 1.429 . S
C3249 C3245 1.429 . S
C3249 C3250 1.523 . S
C3250 C3234 1.368 . S
C3250 C3246 1.368 . S
C3250 C3249 1.523 . S
H3251 C3226 0.950 . S
H3252 C3228 0.950 . S
H3253 C3229 0.949 . S
H3254 C3231 0.950 . S
H3255 C3233 0.950 . S
C3256 C3257 1.349 . S
C3256 C3258 1.327 . S
C3256 H3281 0.950 . S
C3257 C3256 1.349 . S
C3257 C3273 1.349 . S
C3258 C3256 1.327 . S
C3258 C3277 1.429 . S
C3258 H3282 0.950 . S
C3259 C3276 1.574 . S
C3259 C3278 1.368 . S
C3259 H3283 0.949 . S
H3260 C3264 0.949 . S
C3261 C3262 1.349 . S
C3261 C3263 1.327 . S
C3261 H3284 0.950 . S
C3262 C3261 1.349 . S
C3262 C3274 1.349 . S
C3263 C3261 1.327 . S
C3263 C3279 1.429 . S
C3263 H3285 0.950 . S
C3264 H3260 0.949 . S
C3264 C3272 1.574 . S
C3264 C3280 1.368 . S
H3265 C3273 0.950 . S
H3266 C3271 0.950 . S
H3267 C3272 0.949 . S
H3268 C3274 0.950 . S
H3269 C3275 0.950 . S
H3270 C3276 0.949 . S
C3271 H3266 0.950 . S
C3271 C3273 1.327 . S
C3271 C3277 1.429 . S
C3272 C3264 1.574 . S
C3272 H3267 0.949 . S
C3272 C3278 1.368 . S
C3273 C3257 1.349 . S
C3273 H3265 0.950 . S
C3273 C3271 1.327 . S
C3274 C3262 1.349 . S
C3274 H3268 0.950 . S
C3274 C3275 1.327 . S
C3275 H3269 0.950 . S
C3275 C3274 1.327 . S
C3275 C3279 1.429 . S
C3276 C3259 1.574 . S
C3276 H3270 0.949 . S
C3276 C3280 1.368 . S
C3277 C3258 1.429 . S
C3277 C3271 1.429 . S
C3277 C3278 1.523 . S
C3278 C3259 1.368 . S
C3278 C3272 1.368 . S
C3278 C3277 1.523 . S
C3279 C3263 1.429 . S
C3279 C3275 1.429 . S
C3279 C3280 1.523 . S
C3280 C3264 1.368 . S
C3280 C3276 1.368 . S
C3280 C3279 1.523 . S
H3281 C3256 0.950 . S
H3282 C3258 0.950 . S
H3283 C3259 0.949 . S
H3284 C3261 0.950 . S
H3285 C3263 0.950 . S
C3286 C3287 1.349 . S
C3286 C3288 1.327 . S
C3286 H3311 0.950 . S
C3287 C3286 1.349 . S
C3287 C3303 1.349 . S
C3288 C3286 1.327 . S
C3288 C3307 1.429 . S
C3288 H3312 0.950 . S
C3289 C3306 1.574 . S
C3289 C3308 1.368 . S
C3289 H3313 0.949 . S
H3290 C3294 0.949 . S
C3291 C3292 1.349 . S
C3291 C3293 1.327 . S
C3291 H3314 0.950 . S
C3292 C3291 1.349 . S
C3292 C3304 1.349 . S
C3293 C3291 1.327 . S
C3293 C3309 1.429 . S
C3293 H3315 0.950 . S
C3294 H3290 0.949 . S
C3294 C3302 1.574 . S
C3294 C3310 1.368 . S
H3295 C3303 0.950 . S
H3296 C3301 0.950 . S
H3297 C3302 0.949 . S
H3298 C3304 0.950 . S
H3299 C3305 0.950 . S
H3300 C3306 0.949 . S
C3301 H3296 0.950 . S
C3301 C3303 1.327 . S
C3301 C3307 1.429 . S
C3302 C3294 1.574 . S
C3302 H3297 0.949 . S
C3302 C3308 1.368 . S
C3303 C3287 1.349 . S
C3303 H3295 0.950 . S
C3303 C3301 1.327 . S
C3304 C3292 1.349 . S
C3304 H3298 0.950 . S
C3304 C3305 1.327 . S
C3305 H3299 0.950 . S
C3305 C3304 1.327 . S
C3305 C3309 1.429 . S
C3306 C3289 1.574 . S
C3306 H3300 0.949 . S
C3306 C3310 1.368 . S
C3307 C3288 1.429 . S
C3307 C3301 1.429 . S
C3307 C3308 1.523 . S
C3308 C3289 1.368 . S
C3308 C3302 1.368 . S
C3308 C3307 1.523 . S
C3309 C3293 1.429 . S
C3309 C3305 1.429 . S
C3309 C3310 1.523 . S
C3310 C3294 1.368 . S
C3310 C3306 1.368 . S
C3310 C3309 1.523 . S
H3311 C3286 0.950 . S
H3312 C3288 0.950 . S
H3313 C3289 0.949 . S
H3314 C3291 0.950 . S
H3315 C3293 0.950 . S
C3316 C3317 1.349 . S
C3316 C3318 1.327 . S
C3316 H3341 0.950 . S
C3317 C3316 1.349 . S
C3317 C3333 1.349 . S
C3318 C3316 1.327 . S
C3318 C3337 1.429 . S
C3318 H3342 0.950 . S
C3319 C3336 1.574 . S
C3319 C3338 1.368 . S
C3319 H3343 0.949 . S
H3320 C3324 0.949 . S
C3321 C3322 1.349 . S
C3321 C3323 1.327 . S
C3321 H3344 0.950 . S
C3322 C3321 1.349 . S
C3322 C3334 1.349 . S
C3323 C3321 1.327 . S
C3323 C3339 1.429 . S
C3323 H3345 0.950 . S
C3324 H3320 0.949 . S
C3324 C3332 1.574 . S
C3324 C3340 1.368 . S
H3325 C3333 0.950 . S
H3326 C3331 0.950 . S
H3327 C3332 0.949 . S
H3328 C3334 0.950 . S
H3329 C3335 0.950 . S
H3330 C3336 0.949 . S
C3331 H3326 0.950 . S
C3331 C3333 1.327 . S
C3331 C3337 1.429 . S
C3332 C3324 1.574 . S
C3332 H3327 0.949 . S
C3332 C3338 1.368 . S
C3333 C3317 1.349 . S
C3333 H3325 0.950 . S
C3333 C3331 1.327 . S
C3334 C3322 1.349 . S
C3334 H3328 0.950 . S
C3334 C3335 1.327 . S
C3335 H3329 0.950 . S
C3335 C3334 1.327 . S
C3335 C3339 1.429 . S
C3336 C3319 1.574 . S
C3336 H3330 0.949 . S
C3336 C3340 1.368 . S
C3337 C3318 1.429 . S
C3337 C3331 1.429 . S
C3337 C3338 1.523 . S
C3338 C3319 1.368 . S
C3338 C3332 1.368 . S
C3338 C3337 1.523 . S
C3339 C3323 1.429 . S
C3339 C3335 1.429 . S
C3339 C3340 1.523 . S
C3340 C3324 1.368 . S
C3340 C3336 1.368 . S
C3340 C3339 1.523 . S
H3341 C3316 0.950 . S
H3342 C3318 0.950 . S
H3343 C3319 0.949 . S
H3344 C3321 0.950 . S
H3345 C3323 0.950 . S
C3346 C3347 1.349 . S
C3346 C3348 1.327 . S
C3346 H3371 0.950 . S
C3347 C3346 1.349 . S
C3347 C3363 1.349 . S
C3348 C3346 1.327 . S
C3348 C3367 1.429 . S
C3348 H3372 0.950 . S
C3349 C3366 1.574 . S
C3349 C3368 1.368 . S
C3349 H3373 0.949 . S
H3350 C3354 0.949 . S
C3351 C3352 1.349 . S
C3351 C3353 1.327 . S
C3351 H3374 0.950 . S
C3352 C3351 1.349 . S
C3352 C3364 1.349 . S
C3353 C3351 1.327 . S
C3353 C3369 1.429 . S
C3353 H3375 0.950 . S
C3354 H3350 0.949 . S
C3354 C3362 1.574 . S
C3354 C3370 1.368 . S
H3355 C3363 0.950 . S
H3356 C3361 0.950 . S
H3357 C3362 0.949 . S
H3358 C3364 0.950 . S
H3359 C3365 0.950 . S
H3360 C3366 0.949 . S
C3361 H3356 0.950 . S
C3361 C3363 1.327 . S
C3361 C3367 1.429 . S
C3362 C3354 1.574 . S
C3362 H3357 0.949 . S
C3362 C3368 1.368 . S
C3363 C3347 1.349 . S
C3363 H3355 0.950 . S
C3363 C3361 1.327 . S
C3364 C3352 1.349 . S
C3364 H3358 0.950 . S
C3364 C3365 1.327 . S
C3365 H3359 0.950 . S
C3365 C3364 1.327 . S
C3365 C3369 1.429 . S
C3366 C3349 1.574 . S
C3366 H3360 0.949 . S
C3366 C3370 1.368 . S
C3367 C3348 1.429 . S
C3367 C3361 1.429 . S
C3367 C3368 1.523 . S
C3368 C3349 1.368 . S
C3368 C3362 1.368 . S
C3368 C3367 1.523 . S
C3369 C3353 1.429 . S
C3369 C3365 1.429 . S
C3369 C3370 1.523 . S
C3370 C3354 1.368 . S
C3370 C3366 1.368 . S
C3370 C3369 1.523 . S
H3371 C3346 0.950 . S
H3372 C3348 0.950 . S
H3373 C3349 0.949 . S
H3374 C3351 0.950 . S
H3375 C3353 0.950 . S
C3376 C3377 1.349 . S
C3376 C3378 1.327 . S
C3376 H3401 0.950 . S
C3377 C3376 1.349 . S
C3377 C3393 1.349 . S
C3378 C3376 1.327 . S
C3378 C3397 1.429 . S
C3378 H3402 0.950 . S
C3379 C3396 1.574 . S
C3379 C3398 1.368 . S
C3379 H3403 0.949 . S
H3380 C3384 0.949 . S
C3381 C3382 1.349 . S
C3381 C3383 1.327 . S
C3381 H3404 0.950 . S
C3382 C3381 1.349 . S
C3382 C3394 1.349 . S
C3383 C3381 1.327 . S
C3383 C3399 1.429 . S
C3383 H3405 0.950 . S
C3384 H3380 0.949 . S
C3384 C3392 1.574 . S
C3384 C3400 1.368 . S
H3385 C3393 0.950 . S
H3386 C3391 0.950 . S
H3387 C3392 0.949 . S
H3388 C3394 0.950 . S
H3389 C3395 0.950 . S
H3390 C3396 0.949 . S
C3391 H3386 0.950 . S
C3391 C3393 1.327 . S
C3391 C3397 1.429 . S
C3392 C3384 1.574 . S
C3392 H3387 0.949 . S
C3392 C3398 1.368 . S
C3393 C3377 1.349 . S
C3393 H3385 0.950 . S
C3393 C3391 1.327 . S
C3394 C3382 1.349 . S
C3394 H3388 0.950 . S
C3394 C3395 1.327 . S
C3395 H3389 0.950 . S
C3395 C3394 1.327 . S
C3395 C3399 1.429 . S
C3396 C3379 1.574 . S
C3396 H3390 0.949 . S
C3396 C3400 1.368 . S
C3397 C3378 1.429 . S
C3397 C3391 1.429 . S
C3397 C3398 1.523 . S
C3398 C3379 1.368 . S
C3398 C3392 1.368 . S
C3398 C3397 1.523 . S
C3399 C3383 1.429 . S
C3399 C3395 1.429 . S
C3399 C3400 1.523 . S
C3400 C3384 1.368 . S
C3400 C3396 1.368 . S
C3400 C3399 1.523 . S
H3401 C3376 0.950 . S
H3402 C3378 0.950 . S
H3403 C3379 0.949 . S
H3404 C3381 0.950 . S
H3405 C3383 0.950 . S
C3406 C3407 1.349 . S
C3406 C3408 1.327 . S
C3406 H3431 0.950 . S
C3407 C3406 1.349 . S
C3407 C3423 1.349 . S
C3408 C3406 1.327 . S
C3408 C3427 1.429 . S
C3408 H3432 0.950 . S
C3409 C3426 1.574 . S
C3409 C3428 1.368 . S
C3409 H3433 0.949 . S
H3410 C3414 0.949 . S
C3411 C3412 1.349 . S
C3411 C3413 1.327 . S
C3411 H3434 0.950 . S
C3412 C3411 1.349 . S
C3412 C3424 1.349 . S
C3413 C3411 1.327 . S
C3413 C3429 1.429 . S
C3413 H3435 0.950 . S
C3414 H3410 0.949 . S
C3414 C3422 1.574 . S
C3414 C3430 1.368 . S
H3415 C3423 0.950 . S
H3416 C3421 0.950 . S
H3417 C3422 0.949 . S
H3418 C3424 0.950 . S
H3419 C3425 0.950 . S
H3420 C3426 0.949 . S
C3421 H3416 0.950 . S
C3421 C3423 1.327 . S
C3421 C3427 1.429 . S
C3422 C3414 1.574 . S
C3422 H3417 0.949 . S
C3422 C3428 1.368 . S
C3423 C3407 1.349 . S
C3423 H3415 0.950 . S
C3423 C3421 1.327 . S
C3424 C3412 1.349 . S
C3424 H3418 0.950 . S
C3424 C3425 1.327 . S
C3425 H3419 0.950 . S
C3425 C3424 1.327 . S
C3425 C3429 1.429 . S
C3426 C3409 1.574 . S
C3426 H3420 0.949 . S
C3426 C3430 1.368 . S
C3427 C3408 1.429 . S
C3427 C3421 1.429 . S
C3427 C3428 1.523 . S
C3428 C3409 1.368 . S
C3428 C3422 1.368 . S
C3428 C3427 1.523 . S
C3429 C3413 1.429 . S
C3429 C3425 1.429 . S
C3429 C3430 1.523 . S
C3430 C3414 1.368 . S
C3430 C3426 1.368 . S
C3430 C3429 1.523 . S
H3431 C3406 0.950 . S
H3432 C3408 0.950 . S
H3433 C3409 0.949 . S
H3434 C3411 0.950 . S
H3435 C3413 0.950 . S
C3436 C3437 1.349 . S
C3436 C3438 1.327 . S
C3436 H3461 0.950 . S
C3437 C3436 1.349 . S
C3437 C3453 1.349 . S
C3438 C3436 1.327 . S
C3438 C3457 1.429 . S
C3438 H3462 0.950 . S
C3439 C3456 1.574 . S
C3439 C3458 1.368 . S
C3439 H3463 0.949 . S
H3440 C3444 0.949 . S
C3441 C3442 1.349 1_655 S
C3441 C3443 1.327 . S
C3441 H3464 0.950 . S
C3442 C3441 1.349 1_455 S
C3442 C3454 1.349 . S
C3443 C3441 1.327 . S
C3443 C3459 1.429 . S
C3443 H3465 0.950 . S
C3444 H3440 0.949 . S
C3444 C3452 1.574 . S
C3444 C3460 1.368 . S
H3445 C3453 0.950 . S
H3446 C3451 0.950 . S
H3447 C3452 0.949 . S
H3448 C3454 0.950 . S
H3449 C3455 0.950 . S
H3450 C3456 0.949 . S
C3451 H3446 0.950 . S
C3451 C3453 1.327 . S
C3451 C3457 1.429 . S
C3452 C3444 1.574 . S
C3452 H3447 0.949 . S
C3452 C3458 1.368 . S
C3453 C3437 1.349 . S
C3453 H3445 0.950 . S
C3453 C3451 1.327 . S
C3454 C3442 1.349 . S
C3454 H3448 0.950 . S
C3454 C3455 1.327 1_455 S
C3455 H3449 0.950 . S
C3455 C3454 1.327 1_655 S
C3455 C3459 1.429 . S
C3456 C3439 1.574 . S
C3456 H3450 0.949 . S
C3456 C3460 1.368 . S
C3457 C3438 1.429 . S
C3457 C3451 1.429 . S
C3457 C3458 1.523 . S
C3458 C3439 1.368 . S
C3458 C3452 1.368 . S
C3458 C3457 1.523 . S
C3459 C3443 1.429 . S
C3459 C3455 1.429 . S
C3459 C3460 1.523 . S
C3460 C3444 1.368 . S
C3460 C3456 1.368 . S
C3460 C3459 1.523 . S
H3461 C3436 0.950 . S
H3462 C3438 0.950 . S
H3463 C3439 0.949 . S
H3464 C3441 0.950 . S
H3465 C3443 0.950 . S
C3466 C3467 1.349 . S
C3466 C3468 1.327 . S
C3466 H3491 0.950 . S
C3467 C3466 1.349 . S
C3467 C3483 1.349 . S
C3468 C3466 1.327 . S
C3468 C3487 1.429 . S
C3468 H3492 0.950 . S
C3469 C3486 1.574 . S
C3469 C3488 1.368 . S
C3469 H3493 0.949 . S
H3470 C3474 0.949 . S
C3471 C3472 1.349 . S
C3471 C3473 1.327 . S
C3471 H3494 0.950 . S
C3472 C3471 1.349 . S
C3472 C3484 1.349 . S
C3473 C3471 1.327 . S
C3473 C3489 1.429 . S
C3473 H3495 0.950 . S
C3474 H3470 0.949 . S
C3474 C3482 1.574 . S
C3474 C3490 1.368 . S
H3475 C3483 0.950 . S
H3476 C3481 0.950 . S
H3477 C3482 0.949 . S
H3478 C3484 0.950 . S
H3479 C3485 0.950 . S
H3480 C3486 0.949 . S
C3481 H3476 0.950 . S
C3481 C3483 1.327 . S
C3481 C3487 1.429 . S
C3482 C3474 1.574 . S
C3482 H3477 0.949 . S
C3482 C3488 1.368 . S
C3483 C3467 1.349 . S
C3483 H3475 0.950 . S
C3483 C3481 1.327 . S
C3484 C3472 1.349 . S
C3484 H3478 0.950 . S
C3484 C3485 1.327 . S
C3485 H3479 0.950 . S
C3485 C3484 1.327 . S
C3485 C3489 1.429 . S
C3486 C3469 1.574 . S
C3486 H3480 0.949 . S
C3486 C3490 1.368 . S
C3487 C3468 1.429 . S
C3487 C3481 1.429 . S
C3487 C3488 1.523 . S
C3488 C3469 1.368 . S
C3488 C3482 1.368 . S
C3488 C3487 1.523 . S
C3489 C3473 1.429 . S
C3489 C3485 1.429 . S
C3489 C3490 1.523 . S
C3490 C3474 1.368 . S
C3490 C3486 1.368 . S
C3490 C3489 1.523 . S
H3491 C3466 0.950 . S
H3492 C3468 0.950 . S
H3493 C3469 0.949 . S
H3494 C3471 0.950 . S
H3495 C3473 0.950 . S
C3496 C3497 1.349 . S
C3496 C3498 1.327 . S
C3496 H3521 0.950 . S
C3497 C3496 1.349 . S
C3497 C3513 1.349 . S
C3498 C3496 1.327 . S
C3498 C3517 1.429 . S
C3498 H3522 0.950 . S
C3499 C3516 1.574 . S
C3499 C3518 1.368 . S
C3499 H3523 0.949 . S
H3500 C3504 0.949 . S
C3501 C3502 1.349 . S
C3501 C3503 1.327 . S
C3501 H3524 0.950 . S
C3502 C3501 1.349 . S
C3502 C3514 1.349 . S
C3503 C3501 1.327 . S
C3503 C3519 1.429 . S
C3503 H3525 0.950 . S
C3504 H3500 0.949 . S
C3504 C3512 1.574 . S
C3504 C3520 1.368 . S
H3505 C3513 0.950 . S
H3506 C3511 0.950 . S
H3507 C3512 0.949 . S
H3508 C3514 0.950 . S
H3509 C3515 0.950 . S
H3510 C3516 0.949 . S
C3511 H3506 0.950 . S
C3511 C3513 1.327 . S
C3511 C3517 1.429 . S
C3512 C3504 1.574 . S
C3512 H3507 0.949 . S
C3512 C3518 1.368 . S
C3513 C3497 1.349 . S
C3513 H3505 0.950 . S
C3513 C3511 1.327 . S
C3514 C3502 1.349 . S
C3514 H3508 0.950 . S
C3514 C3515 1.327 . S
C3515 H3509 0.950 . S
C3515 C3514 1.327 . S
C3515 C3519 1.429 . S
C3516 C3499 1.574 . S
C3516 H3510 0.949 . S
C3516 C3520 1.368 . S
C3517 C3498 1.429 . S
C3517 C3511 1.429 . S
C3517 C3518 1.523 . S
C3518 C3499 1.368 . S
C3518 C3512 1.368 . S
C3518 C3517 1.523 . S
C3519 C3503 1.429 . S
C3519 C3515 1.429 . S
C3519 C3520 1.523 . S
C3520 C3504 1.368 . S
C3520 C3516 1.368 . S
C3520 C3519 1.523 . S
H3521 C3496 0.950 . S
H3522 C3498 0.950 . S
H3523 C3499 0.949 . S
H3524 C3501 0.950 . S
H3525 C3503 0.950 . S
C3526 C3527 1.349 . S
C3526 C3528 1.327 . S
C3526 H3551 0.950 . S
C3527 C3526 1.349 . S
C3527 C3543 1.349 . S
C3528 C3526 1.327 . S
C3528 C3547 1.429 . S
C3528 H3552 0.950 . S
C3529 C3546 1.574 . S
C3529 C3548 1.368 . S
C3529 H3553 0.949 . S
H3530 C3534 0.949 . S
C3531 C3532 1.349 . S
C3531 C3533 1.327 . S
C3531 H3554 0.950 . S
C3532 C3531 1.349 . S
C3532 C3544 1.349 . S
C3533 C3531 1.327 . S
C3533 C3549 1.429 . S
C3533 H3555 0.950 . S
C3534 H3530 0.949 . S
C3534 C3542 1.574 . S
C3534 C3550 1.368 . S
H3535 C3543 0.950 . S
H3536 C3541 0.950 . S
H3537 C3542 0.949 . S
H3538 C3544 0.950 . S
H3539 C3545 0.950 . S
H3540 C3546 0.949 . S
C3541 H3536 0.950 . S
C3541 C3543 1.327 . S
C3541 C3547 1.429 . S
C3542 C3534 1.574 . S
C3542 H3537 0.949 . S
C3542 C3548 1.368 . S
C3543 C3527 1.349 . S
C3543 H3535 0.950 . S
C3543 C3541 1.327 . S
C3544 C3532 1.349 . S
C3544 H3538 0.950 . S
C3544 C3545 1.327 . S
C3545 H3539 0.950 . S
C3545 C3544 1.327 . S
C3545 C3549 1.429 . S
C3546 C3529 1.574 . S
C3546 H3540 0.949 . S
C3546 C3550 1.368 . S
C3547 C3528 1.429 . S
C3547 C3541 1.429 . S
C3547 C3548 1.523 . S
C3548 C3529 1.368 . S
C3548 C3542 1.368 . S
C3548 C3547 1.523 . S
C3549 C3533 1.429 . S
C3549 C3545 1.429 . S
C3549 C3550 1.523 . S
C3550 C3534 1.368 . S
C3550 C3546 1.368 . S
C3550 C3549 1.523 . S
H3551 C3526 0.950 . S
H3552 C3528 0.950 . S
H3553 C3529 0.949 . S
H3554 C3531 0.950 . S
H3555 C3533 0.950 . S
C3556 C3557 1.349 . S
C3556 C3558 1.327 . S
C3556 H3581 0.950 . S
C3557 C3556 1.349 . S
C3557 C3573 1.349 . S
C3558 C3556 1.327 . S
C3558 C3577 1.429 . S
C3558 H3582 0.950 . S
C3559 C3576 1.574 . S
C3559 C3578 1.368 . S
C3559 H3583 0.949 . S
H3560 C3564 0.949 . S
C3561 C3562 1.349 . S
C3561 C3563 1.327 . S
C3561 H3584 0.950 . S
C3562 C3561 1.349 . S
C3562 C3574 1.349 . S
C3563 C3561 1.327 . S
C3563 C3579 1.429 . S
C3563 H3585 0.950 . S
C3564 H3560 0.949 . S
C3564 C3572 1.574 . S
C3564 C3580 1.368 . S
H3565 C3573 0.950 . S
H3566 C3571 0.950 . S
H3567 C3572 0.949 . S
H3568 C3574 0.950 . S
H3569 C3575 0.950 . S
H3570 C3576 0.949 . S
C3571 H3566 0.950 . S
C3571 C3573 1.327 . S
C3571 C3577 1.429 . S
C3572 C3564 1.574 . S
C3572 H3567 0.949 . S
C3572 C3578 1.368 . S
C3573 C3557 1.349 . S
C3573 H3565 0.950 . S
C3573 C3571 1.327 . S
C3574 C3562 1.349 . S
C3574 H3568 0.950 . S
C3574 C3575 1.327 . S
C3575 H3569 0.950 . S
C3575 C3574 1.327 . S
C3575 C3579 1.429 . S
C3576 C3559 1.574 . S
C3576 H3570 0.949 . S
C3576 C3580 1.368 . S
C3577 C3558 1.429 . S
C3577 C3571 1.429 . S
C3577 C3578 1.523 . S
C3578 C3559 1.368 . S
C3578 C3572 1.368 . S
C3578 C3577 1.523 . S
C3579 C3563 1.429 . S
C3579 C3575 1.429 . S
C3579 C3580 1.523 . S
C3580 C3564 1.368 . S
C3580 C3576 1.368 . S
C3580 C3579 1.523 . S
H3581 C3556 0.950 . S
H3582 C3558 0.950 . S
H3583 C3559 0.949 . S
H3584 C3561 0.950 . S
H3585 C3563 0.950 . S
C3586 C3587 1.349 . S
C3586 C3588 1.327 . S
C3586 H3611 0.950 . S
C3587 C3586 1.349 . S
C3587 C3603 1.349 . S
C3588 C3586 1.327 . S
C3588 C3607 1.429 . S
C3588 H3612 0.950 . S
C3589 C3606 1.574 . S
C3589 C3608 1.368 . S
C3589 H3613 0.949 . S
H3590 C3594 0.949 . S
C3591 C3592 1.349 . S
C3591 C3593 1.327 . S
C3591 H3614 0.950 . S
C3592 C3591 1.349 . S
C3592 C3604 1.349 . S
C3593 C3591 1.327 . S
C3593 C3609 1.429 . S
C3593 H3615 0.950 . S
C3594 H3590 0.949 . S
C3594 C3602 1.574 . S
C3594 C3610 1.368 . S
H3595 C3603 0.950 . S
H3596 C3601 0.950 . S
H3597 C3602 0.949 . S
H3598 C3604 0.950 . S
H3599 C3605 0.950 . S
H3600 C3606 0.949 . S
C3601 H3596 0.950 . S
C3601 C3603 1.327 . S
C3601 C3607 1.429 . S
C3602 C3594 1.574 . S
C3602 H3597 0.949 . S
C3602 C3608 1.368 . S
C3603 C3587 1.349 . S
C3603 H3595 0.950 . S
C3603 C3601 1.327 . S
C3604 C3592 1.349 . S
C3604 H3598 0.950 . S
C3604 C3605 1.327 . S
C3605 H3599 0.950 . S
C3605 C3604 1.327 . S
C3605 C3609 1.429 . S
C3606 C3589 1.574 . S
C3606 H3600 0.949 . S
C3606 C3610 1.368 . S
C3607 C3588 1.429 . S
C3607 C3601 1.429 . S
C3607 C3608 1.523 . S
C3608 C3589 1.368 . S
C3608 C3602 1.368 . S
C3608 C3607 1.523 . S
C3609 C3593 1.429 . S
C3609 C3605 1.429 . S
C3609 C3610 1.523 . S
C3610 C3594 1.368 . S
C3610 C3606 1.368 . S
C3610 C3609 1.523 . S
H3611 C3586 0.950 . S
H3612 C3588 0.950 . S
H3613 C3589 0.949 . S
H3614 C3591 0.950 . S
H3615 C3593 0.950 . S
C3616 C3617 1.349 . S
C3616 C3618 1.327 . S
C3616 H3641 0.950 . S
C3617 C3616 1.349 . S
C3617 C3633 1.349 . S
C3618 C3616 1.327 . S
C3618 C3637 1.429 . S
C3618 H3642 0.950 . S
C3619 C3636 1.574 . S
C3619 C3638 1.368 . S
C3619 H3643 0.949 . S
H3620 C3624 0.949 . S
C3621 C3622 1.349 . S
C3621 C3623 1.327 . S
C3621 H3644 0.950 . S
C3622 C3621 1.349 . S
C3622 C3634 1.349 . S
C3623 C3621 1.327 . S
C3623 C3639 1.429 . S
C3623 H3645 0.950 . S
C3624 H3620 0.949 . S
C3624 C3632 1.574 . S
C3624 C3640 1.368 . S
H3625 C3633 0.950 . S
H3626 C3631 0.950 . S
H3627 C3632 0.949 . S
H3628 C3634 0.950 . S
H3629 C3635 0.950 . S
H3630 C3636 0.949 . S
C3631 H3626 0.950 . S
C3631 C3633 1.327 . S
C3631 C3637 1.429 . S
C3632 C3624 1.574 . S
C3632 H3627 0.949 . S
C3632 C3638 1.368 . S
C3633 C3617 1.349 . S
C3633 H3625 0.950 . S
C3633 C3631 1.327 . S
C3634 C3622 1.349 . S
C3634 H3628 0.950 . S
C3634 C3635 1.327 . S
C3635 H3629 0.950 . S
C3635 C3634 1.327 . S
C3635 C3639 1.429 . S
C3636 C3619 1.574 . S
C3636 H3630 0.949 . S
C3636 C3640 1.368 . S
C3637 C3618 1.429 . S
C3637 C3631 1.429 . S
C3637 C3638 1.523 . S
C3638 C3619 1.368 . S
C3638 C3632 1.368 . S
C3638 C3637 1.523 . S
C3639 C3623 1.429 . S
C3639 C3635 1.429 . S
C3639 C3640 1.523 . S
C3640 C3624 1.368 . S
C3640 C3636 1.368 . S
C3640 C3639 1.523 . S
H3641 C3616 0.950 . S
H3642 C3618 0.950 . S
H3643 C3619 0.949 . S
H3644 C3621 0.950 . S
H3645 C3623 0.950 . S
C3646 C3647 1.349 . S
C3646 C3648 1.327 . S
C3646 H3671 0.950 . S
C3647 C3646 1.349 . S
C3647 C3663 1.349 . S
C3648 C3646 1.327 . S
C3648 C3667 1.429 . S
C3648 H3672 0.950 . S
C3649 C3666 1.574 . S
C3649 C3668 1.368 . S
C3649 H3673 0.949 . S
H3650 C3654 0.949 . S
C3651 C3652 1.349 1_565 S
C3651 C3653 1.327 . S
C3651 H3674 0.950 1_565 S
C3652 C3651 1.349 1_545 S
C3652 C3664 1.349 1_545 S
C3653 C3651 1.327 . S
C3653 C3669 1.429 . S
C3653 H3675 0.950 . S
C3654 H3650 0.949 . S
C3654 C3662 1.574 . S
C3654 C3670 1.368 . S
H3655 C3663 0.950 . S
H3656 C3661 0.950 . S
H3657 C3662 0.949 . S
H3658 C3664 0.950 . S
H3659 C3665 0.950 . S
H3660 C3666 0.949 . S
C3661 H3656 0.950 . S
C3661 C3663 1.327 . S
C3661 C3667 1.429 . S
C3662 C3654 1.574 . S
C3662 H3657 0.949 . S
C3662 C3668 1.368 . S
C3663 C3647 1.349 . S
C3663 H3655 0.950 . S
C3663 C3661 1.327 . S
C3664 C3652 1.349 1_565 S
C3664 H3658 0.950 . S
C3664 C3665 1.327 . S
C3665 H3659 0.950 . S
C3665 C3664 1.327 . S
C3665 C3669 1.429 . S
C3666 C3649 1.574 . S
C3666 H3660 0.949 . S
C3666 C3670 1.368 . S
C3667 C3648 1.429 . S
C3667 C3661 1.429 . S
C3667 C3668 1.523 . S
C3668 C3649 1.368 . S
C3668 C3662 1.368 . S
C3668 C3667 1.523 . S
C3669 C3653 1.429 . S
C3669 C3665 1.429 . S
C3669 C3670 1.523 . S
C3670 C3654 1.368 . S
C3670 C3666 1.368 . S
C3670 C3669 1.523 . S
H3671 C3646 0.950 . S
H3672 C3648 0.950 . S
H3673 C3649 0.949 . S
H3674 C3651 0.950 1_545 S
H3675 C3653 0.950 . S
C3676 C3677 1.349 . S
C3676 C3678 1.327 . S
C3676 H3701 0.950 . S
C3677 C3676 1.349 . S
C3677 C3693 1.349 . S
C3678 C3676 1.327 . S
C3678 C3697 1.429 . S
C3678 H3702 0.950 . S
C3679 C3696 1.574 . S
C3679 C3698 1.368 . S
C3679 H3703 0.949 . S
H3680 C3684 0.949 . S
C3681 C3682 1.349 . S
C3681 C3683 1.327 . S
C3681 H3704 0.950 . S
C3682 C3681 1.349 . S
C3682 C3694 1.349 . S
C3683 C3681 1.327 . S
C3683 C3699 1.429 . S
C3683 H3705 0.950 . S
C3684 H3680 0.949 . S
C3684 C3692 1.574 . S
C3684 C3700 1.368 . S
H3685 C3693 0.950 . S
H3686 C3691 0.950 . S
H3687 C3692 0.949 . S
H3688 C3694 0.950 . S
H3689 C3695 0.950 . S
H3690 C3696 0.949 . S
C3691 H3686 0.950 . S
C3691 C3693 1.327 . S
C3691 C3697 1.429 . S
C3692 C3684 1.574 . S
C3692 H3687 0.949 . S
C3692 C3698 1.368 . S
C3693 C3677 1.349 . S
C3693 H3685 0.950 . S
C3693 C3691 1.327 . S
C3694 C3682 1.349 . S
C3694 H3688 0.950 . S
C3694 C3695 1.327 . S
C3695 H3689 0.950 . S
C3695 C3694 1.327 . S
C3695 C3699 1.429 . S
C3696 C3679 1.574 . S
C3696 H3690 0.949 . S
C3696 C3700 1.368 . S
C3697 C3678 1.429 . S
C3697 C3691 1.429 . S
C3697 C3698 1.523 . S
C3698 C3679 1.368 . S
C3698 C3692 1.368 . S
C3698 C3697 1.523 . S
C3699 C3683 1.429 . S
C3699 C3695 1.429 . S
C3699 C3700 1.523 . S
C3700 C3684 1.368 . S
C3700 C3696 1.368 . S
C3700 C3699 1.523 . S
H3701 C3676 0.950 . S
H3702 C3678 0.950 . S
H3703 C3679 0.949 . S
H3704 C3681 0.950 . S
H3705 C3683 0.950 . S
C3706 C3707 1.349 . S
C3706 C3708 1.327 . S
C3706 H3731 0.950 . S
C3707 C3706 1.349 . S
C3707 C3723 1.349 . S
C3708 C3706 1.327 . S
C3708 C3727 1.429 . S
C3708 H3732 0.950 . S
C3709 C3726 1.574 . S
C3709 C3728 1.368 . S
C3709 H3733 0.949 . S
H3710 C3714 0.949 . S
C3711 C3712 1.349 . S
C3711 C3713 1.327 . S
C3711 H3734 0.950 . S
C3712 C3711 1.349 . S
C3712 C3724 1.349 . S
C3713 C3711 1.327 . S
C3713 C3729 1.429 . S
C3713 H3735 0.950 . S
C3714 H3710 0.949 . S
C3714 C3722 1.574 . S
C3714 C3730 1.368 . S
H3715 C3723 0.950 . S
H3716 C3721 0.950 . S
H3717 C3722 0.949 . S
H3718 C3724 0.950 . S
H3719 C3725 0.950 . S
H3720 C3726 0.949 . S
C3721 H3716 0.950 . S
C3721 C3723 1.327 . S
C3721 C3727 1.429 . S
C3722 C3714 1.574 . S
C3722 H3717 0.949 . S
C3722 C3728 1.368 . S
C3723 C3707 1.349 . S
C3723 H3715 0.950 . S
C3723 C3721 1.327 . S
C3724 C3712 1.349 . S
C3724 H3718 0.950 . S
C3724 C3725 1.327 . S
C3725 H3719 0.950 . S
C3725 C3724 1.327 . S
C3725 C3729 1.429 . S
C3726 C3709 1.574 . S
C3726 H3720 0.949 . S
C3726 C3730 1.368 . S
C3727 C3708 1.429 . S
C3727 C3721 1.429 . S
C3727 C3728 1.523 . S
C3728 C3709 1.368 . S
C3728 C3722 1.368 . S
C3728 C3727 1.523 . S
C3729 C3713 1.429 . S
C3729 C3725 1.429 . S
C3729 C3730 1.523 . S
C3730 C3714 1.368 . S
C3730 C3726 1.368 . S
C3730 C3729 1.523 . S
H3731 C3706 0.950 . S
H3732 C3708 0.950 . S
H3733 C3709 0.949 . S
H3734 C3711 0.950 . S
H3735 C3713 0.950 . S
C3736 C3737 1.349 . S
C3736 C3738 1.327 . S
C3736 H3761 0.950 . S
C3737 C3736 1.349 . S
C3737 C3753 1.349 . S
C3738 C3736 1.327 . S
C3738 C3757 1.429 . S
C3738 H3762 0.950 . S
C3739 C3756 1.574 . S
C3739 C3758 1.368 . S
C3739 H3763 0.949 . S
H3740 C3744 0.949 . S
C3741 C3742 1.349 . S
C3741 C3743 1.327 . S
C3741 H3764 0.950 . S
C3742 C3741 1.349 . S
C3742 C3754 1.349 . S
C3743 C3741 1.327 . S
C3743 C3759 1.429 . S
C3743 H3765 0.950 . S
C3744 H3740 0.949 . S
C3744 C3752 1.574 . S
C3744 C3760 1.368 . S
H3745 C3753 0.950 . S
H3746 C3751 0.950 . S
H3747 C3752 0.949 . S
H3748 C3754 0.950 . S
H3749 C3755 0.950 . S
H3750 C3756 0.949 . S
C3751 H3746 0.950 . S
C3751 C3753 1.327 . S
C3751 C3757 1.429 . S
C3752 C3744 1.574 . S
C3752 H3747 0.949 . S
C3752 C3758 1.368 . S
C3753 C3737 1.349 . S
C3753 H3745 0.950 . S
C3753 C3751 1.327 . S
C3754 C3742 1.349 . S
C3754 H3748 0.950 . S
C3754 C3755 1.327 . S
C3755 H3749 0.950 . S
C3755 C3754 1.327 . S
C3755 C3759 1.429 . S
C3756 C3739 1.574 . S
C3756 H3750 0.949 . S
C3756 C3760 1.368 . S
C3757 C3738 1.429 . S
C3757 C3751 1.429 . S
C3757 C3758 1.523 . S
C3758 C3739 1.368 . S
C3758 C3752 1.368 . S
C3758 C3757 1.523 . S
C3759 C3743 1.429 . S
C3759 C3755 1.429 . S
C3759 C3760 1.523 . S
C3760 C3744 1.368 . S
C3760 C3756 1.368 . S
C3760 C3759 1.523 . S
H3761 C3736 0.950 . S
H3762 C3738 0.950 . S
H3763 C3739 0.949 . S
H3764 C3741 0.950 . S
H3765 C3743 0.950 . S
C3766 C3767 1.349 . S
C3766 C3768 1.327 . S
C3766 H3791 0.950 . S
C3767 C3766 1.349 . S
C3767 C3783 1.349 . S
C3768 C3766 1.327 . S
C3768 C3787 1.429 . S
C3768 H3792 0.950 . S
C3769 C3786 1.574 . S
C3769 C3788 1.368 1_556 S
C3769 H3793 0.949 . S
H3770 C3774 0.949 . S
C3771 C3772 1.349 1_556 S
C3771 C3773 1.327 . S
C3771 H3794 0.950 . S
C3772 C3771 1.349 1_554 S
C3772 C3784 1.349 . S
C3773 C3771 1.327 . S
C3773 C3789 1.429 1_556 S
C3773 H3795 0.950 . S
C3774 H3770 0.949 . S
C3774 C3782 1.574 . S
C3774 C3790 1.368 . S
H3775 C3783 0.920 1_556 S
H3776 C3781 0.950 1_556 S
H3777 C3782 0.949 . S
H3778 C3784 0.950 . S
H3779 C3785 0.950 . S
H3780 C3786 0.949 . S
C3781 H3776 0.950 1_554 S
C3781 C3783 1.327 . S
C3781 C3787 1.429 . S
C3782 C3774 1.574 . S
C3782 H3777 0.949 . S
C3782 C3788 1.368 . S
C3783 C3767 1.349 . S
C3783 H3775 0.920 1_554 S
C3783 C3781 1.327 . S
C3784 C3772 1.349 . S
C3784 H3778 0.950 . S
C3784 C3785 1.327 . S
C3785 H3779 0.950 . S
C3785 C3784 1.327 . S
C3785 C3789 1.429 . S
C3786 C3769 1.574 . S
C3786 H3780 0.949 . S
C3786 C3790 1.368 1_556 S
C3787 C3768 1.429 . S
C3787 C3781 1.429 . S
C3787 C3788 1.523 . S
C3788 C3769 1.368 1_554 S
C3788 C3782 1.368 . S
C3788 C3787 1.523 . S
C3789 C3773 1.429 1_554 S
C3789 C3785 1.429 . S
C3789 C3790 1.523 . S
C3790 C3774 1.368 . S
C3790 C3786 1.368 1_554 S
C3790 C3789 1.523 . S
H3791 C3766 0.950 . S
H3792 C3768 0.950 . S
H3793 C3769 0.949 . S
H3794 C3771 0.950 . S
H3795 C3773 0.950 . S
C3796 C3797 1.349 . S
C3796 C3798 1.327 . S
C3796 H3821 0.950 . S
C3797 C3796 1.349 . S
C3797 C3813 1.349 . S
C3798 C3796 1.327 . S
C3798 C3817 1.429 . S
C3798 H3822 0.950 . S
C3799 C3816 1.574 . S
C3799 C3818 1.368 . S
C3799 H3823 0.949 . S
H3800 C3804 0.949 . S
C3801 C3802 1.349 . S
C3801 C3803 1.327 . S
C3801 H3824 0.950 . S
C3802 C3801 1.349 . S
C3802 C3814 1.349 . S
C3803 C3801 1.327 . S
C3803 C3819 1.429 . S
C3803 H3825 0.950 . S
C3804 H3800 0.949 . S
C3804 C3812 1.574 . S
C3804 C3820 1.368 . S
H3805 C3813 0.950 . S
H3806 C3811 0.950 . S
H3807 C3812 0.949 . S
H3808 C3814 0.950 . S
H3809 C3815 0.950 . S
H3810 C3816 0.949 . S
C3811 H3806 0.950 . S
C3811 C3813 1.327 . S
C3811 C3817 1.429 . S
C3812 C3804 1.574 . S
C3812 H3807 0.949 . S
C3812 C3818 1.368 . S
C3813 C3797 1.349 . S
C3813 H3805 0.950 . S
C3813 C3811 1.327 . S
C3814 C3802 1.349 . S
C3814 H3808 0.950 . S
C3814 C3815 1.327 . S
C3815 H3809 0.950 . S
C3815 C3814 1.327 . S
C3815 C3819 1.429 . S
C3816 C3799 1.574 . S
C3816 H3810 0.949 . S
C3816 C3820 1.368 . S
C3817 C3798 1.429 . S
C3817 C3811 1.429 . S
C3817 C3818 1.523 . S
C3818 C3799 1.368 . S
C3818 C3812 1.368 . S
C3818 C3817 1.523 . S
C3819 C3803 1.429 . S
C3819 C3815 1.429 . S
C3819 C3820 1.523 . S
C3820 C3804 1.368 . S
C3820 C3816 1.368 . S
C3820 C3819 1.523 . S
H3821 C3796 0.950 . S
H3822 C3798 0.950 . S
H3823 C3799 0.949 . S
H3824 C3801 0.950 . S
H3825 C3803 0.950 . S
C3826 C3827 1.349 . S
C3826 C3828 1.327 . S
C3826 H3851 0.950 . S
C3827 C3826 1.349 . S
C3827 C3843 1.349 . S
C3828 C3826 1.327 . S
C3828 C3847 1.429 . S
C3828 H3852 0.950 . S
C3829 C3846 1.574 . S
C3829 C3848 1.368 . S
C3829 H3853 0.949 . S
H3830 C3834 0.949 . S
C3831 C3832 1.349 . S
C3831 C3833 1.327 . S
C3831 H3854 0.950 . S
C3832 C3831 1.349 . S
C3832 C3844 1.349 . S
C3833 C3831 1.327 . S
C3833 C3849 1.429 . S
C3833 H3855 0.950 . S
C3834 H3830 0.949 . S
C3834 C3842 1.574 . S
C3834 C3850 1.368 . S
H3835 C3843 0.950 . S
H3836 C3841 0.950 . S
H3837 C3842 0.949 . S
H3838 C3844 0.950 . S
H3839 C3845 0.950 . S
H3840 C3846 0.949 . S
C3841 H3836 0.950 . S
C3841 C3843 1.327 . S
C3841 C3847 1.429 . S
C3842 C3834 1.574 . S
C3842 H3837 0.949 . S
C3842 C3848 1.368 . S
C3843 C3827 1.349 . S
C3843 H3835 0.950 . S
C3843 C3841 1.327 . S
C3844 C3832 1.349 . S
C3844 H3838 0.950 . S
C3844 C3845 1.327 . S
C3845 H3839 0.950 . S
C3845 C3844 1.327 . S
C3845 C3849 1.429 . S
C3846 C3829 1.574 . S
C3846 H3840 0.949 . S
C3846 C3850 1.368 . S
C3847 C3828 1.429 . S
C3847 C3841 1.429 . S
C3847 C3848 1.523 . S
C3848 C3829 1.368 . S
C3848 C3842 1.368 . S
C3848 C3847 1.523 . S
C3849 C3833 1.429 . S
C3849 C3845 1.429 . S
C3849 C3850 1.523 . S
C3850 C3834 1.368 . S
C3850 C3846 1.368 . S
C3850 C3849 1.523 . S
H3851 C3826 0.950 . S
H3852 C3828 0.950 . S
H3853 C3829 0.949 . S
H3854 C3831 0.950 . S
H3855 C3833 0.950 . S
C977 C105 2.080 . S
C982 C349 2.020 . S
C1007 C65 2.066 . S
C1012 C400 2.042 . S
C1037 C73 1.447 . S
C1042 C429 1.439 . S
C1072 C473 1.484 . S
C1067 C92 1.513 . S
C1097 C17 1.435 . S
C1102 C513 1.397 . S
C1132 C549 1.471 . S
C1127 C37 1.469 . S
C1162 C599 1.776 . S
C1157 C49 1.687 . S
C1187 C8 2.170 . S
C1192 C629 2.131 . S
C1222 C359 1.803 . S
C1217 C231 1.805 . S
C1247 C241 0.427 . S
C1252 C402 0.497 . S
C1282 C439 1.186 . S
C1277 C273 1.157 . S
C1312 C469 1.297 . S
C1307 C171 1.309 . S
C1337 C227 1.352 . S
C1342 C509 1.338 . S
C1372 C559 0.860 . S
C1367 C245 0.849 . S
C1402 C593 0.717 . S
C1397 C269 0.711 . S
C1432 C639 1.781 . S
C1427 C175 1.783 . S
C1462 C353 1.038 . S
C1457 C162 1.025 1_554 S
C1487 C289 1.705 . S
C1492 C679 1.692 . S
C1522 C713 1.393 . S
C1517 C330 1.422 . S
C1552 C749 0.881 . S
C1547 C317 0.889 . S
C1577 C120 1.285 . S
C1582 C633 1.244 . S
C1607 C134 1.502 . S
C1612 C433 1.466 . S
C1637 C331 1.580 . S
C1642 C799 1.569 . S
C1672 C818 0.226 . S
C1667 C303 0.157 . S
C1702 C360 2.054 . S
C1697 C59 2.060 . S
C1732 C829 2.101 . S
C1727 C107 2.115 . S
C1757 C91 1.504 . S
C1762 C440 1.511 . S
C1787 C78 1.538 . S
C1792 C802 1.514 . S
C1822 C522 1.433 . S
C1817 C7 1.419 . S
C1847 C51 1.523 . S
C1852 C720 1.528 . S
C1882 C578 1.817 1_566 S
C1877 C31 1.831 . S
C1912 C880 2.166 . S
C1907 C22 2.185 . S
C1942 C338 1.846 . S
C1937 C143 1.867 . S
C1972 C833 0.510 . S
C1967 C315 0.519 . S
C1997 C115 1.240 . S
C2002 C418 1.229 . S
C2027 C287 1.342 . S
C2032 C800 1.359 . S
C2057 C147 1.387 . S
C2062 C520 1.405 . S
C2092 C698 0.906 . S
C2087 C311 0.911 . S
C2117 C119 0.739 1_545 S
C2122 C602 0.746 . S
C2147 C283 1.843 . S
C2152 C858 1.823 . S
C2177 C190 1.017 . S
C2182 C362 1.000 . S
C2207 C177 1.749 . S
C2212 C658 1.739 . S
C2237 C260 1.418 . S
C2242 C562 1.399 . S
C2267 C247 0.932 . S
C2272 C760 0.925 . S
C2302 C882 1.253 . S
C2297 C274 1.279 . S
C2327 C218 1.500 . S
C2332 C442 1.476 . S
C2362 C458 1.618 . S
C2357 C261 1.627 . S
C2392 C399 0.232 . S
C2387 C205 0.189 . S
C2417 C77 2.057 . S
C2422 C909 2.020 . S
C2452 C840 2.042 . S
C2447 C93 2.065 . S
C2477 C101 1.447 . S
C2482 C949 1.440 . S
C2507 C64 1.513 1_655 S
C2512 C793 1.484 . S
C2537 C45 1.435 . S
C2542 C673 1.397 . S
C2572 C709 1.471 . S
C2567 C9 1.469 . S
C2602 C759 1.776 . S
C2597 C21 1.687 . S
C2632 C869 2.131 . S
C2627 C36 2.170 . S
C2662 C919 1.803 . S
C2657 C259 1.805 . S
C2687 C185 0.427 . S
C2692 C842 0.497 . S
C2722 C959 1.187 . S
C2717 C203 1.157 . S
C2752 C789 1.297 . S
C2747 C213 1.309 . S
C2782 C669 1.338 . S
C2777 C255 1.352 . S
C2807 C189 0.849 . S
C2812 C719 0.860 . S
C2842 C753 0.717 . S
C2837 C199 0.711 . S
C2867 C217 1.783 . S
C2872 C879 1.781 . S
C2902 C913 1.003 . S
C2897 C316 1.030 . S
C2927 C135 1.705 . S
C2932 C519 1.692 . S
C2962 C553 1.393 . S
C2957 C148 1.422 1_565 S
C2992 C589 0.880 . S
C2987 C163 0.889 . S
C3022 C873 1.244 . S
C3017 C302 1.285 . S
C3047 C288 1.502 . S
C3052 C953 1.466 . S
C3082 C479 1.568 . S
C3077 C149 1.580 . S
C3112 C378 0.226 . S
C3107 C121 0.157 . S
C3137 C87 2.060 . S
C3142 C920 2.054 . S
C3172 C389 2.101 . S
C3167 C79 2.114 . S
C3197 C63 1.505 . S
C3202 C960 1.511 . S
C3227 C106 1.538 . S
C3232 C482 1.514 . S
C3257 C35 1.419 . S
C3262 C682 1.433 . S
C3292 C560 1.529 . S
C3287 C23 1.523 . S
C3317 C3 1.831 . S
C3322 C738 1.826 . S
C3347 C50 2.185 . S
C3352 C640 2.166 . S
C3382 C898 1.846 . S
C3377 C325 1.867 . S
C3407 C161 0.519 . S
C3412 C393 0.503 . S
C3442 C938 1.229 . S
C3437 C297 1.240 . S
C3467 C133 1.342 . S
C3472 C480 1.360 . S
C3497 C329 1.387 . S
C3502 C680 1.405 . S
C3532 C538 0.907 . S
C3527 C157 0.918 . S
C3557 C301 0.746 . S
C3562 C762 0.746 . S
C3592 C618 1.823 . S
C3587 C129 1.843 . S
C3622 C922 1.000 . S
C3617 C246 1.017 . S
C3652 C498 1.739 . S
C3647 C219 1.749 . S
C3677 C232 1.418 . S
C3682 C722 1.399 . S
C3712 C600 0.924 . S
C3707 C191 0.932 . S
C3737 C204 1.278 . S
C3742 C642 1.253 . S
C3767 C176 1.500 . S
C3772 C962 1.476 . S
C3802 C778 1.618 . S
C3797 C233 1.626 . S
C3832 C839 0.232 . S
C3827 C275 0.189 . S
