# Generated by pormake.
# Topology ctn, (3,4)-cn, num edge types: 1
# Building blocks:
#     Node 0, Type 0, BuildingBlock: OLANEW_clean_sbu_2, # of connection points: 3
#     Node 1, Type 0, BuildingBlock: OLANEW_clean_sbu_2, # of connection points: 3
#     Node 2, Type 0, BuildingBlock: OLANEW_clean_sbu_2, # of connection points: 3
#     Node 3, Type 0, BuildingBlock: OLANEW_clean_sbu_2, # of connection points: 3
#     Node 4, Type 0, BuildingBlock: OLANEW_clean_sbu_2, # of connection points: 3
#     Node 5, Type 0, BuildingBlock: OLANEW_clean_sbu_2, # of connection points: 3
#     Node 6, Type 0, BuildingBlock: OLANEW_clean_sbu_2, # of connection points: 3
#     Node 7, Type 0, BuildingBlock: OLANEW_clean_sbu_2, # of connection points: 3
#     Node 8, Type 0, BuildingBlock: OLANEW_clean_sbu_2, # of connection points: 3
#     Node 9, Type 0, BuildingBlock: OLANEW_clean_sbu_2, # of connection points: 3
#     Node 10, Type 0, BuildingBlock: OLANEW_clean_sbu_2, # of connection points: 3
#     Node 11, Type 0, BuildingBlock: OLANEW_clean_sbu_2, # of connection points: 3
#     Node 12, Type 0, BuildingBlock: OLANEW_clean_sbu_2, # of connection points: 3
#     Node 13, Type 0, BuildingBlock: OLANEW_clean_sbu_2, # of connection points: 3
#     Node 14, Type 0, BuildingBlock: OLANEW_clean_sbu_2, # of connection points: 3
#     Node 15, Type 0, BuildingBlock: OLANEW_clean_sbu_2, # of connection points: 3
#     Node 16, Type 1, BuildingBlock: QUQFOY_clean_sbu_1, # of connection points: 4
#     Node 17, Type 1, BuildingBlock: QUQFOY_clean_sbu_1, # of connection points: 4
#     Node 18, Type 1, BuildingBlock: QUQFOY_clean_sbu_1, # of connection points: 4
#     Node 19, Type 1, BuildingBlock: QUQFOY_clean_sbu_1, # of connection points: 4
#     Node 20, Type 1, BuildingBlock: QUQFOY_clean_sbu_1, # of connection points: 4
#     Node 21, Type 1, BuildingBlock: QUQFOY_clean_sbu_1, # of connection points: 4
#     Node 22, Type 1, BuildingBlock: QUQFOY_clean_sbu_1, # of connection points: 4
#     Node 23, Type 1, BuildingBlock: QUQFOY_clean_sbu_1, # of connection points: 4
#     Node 24, Type 1, BuildingBlock: QUQFOY_clean_sbu_1, # of connection points: 4
#     Node 25, Type 1, BuildingBlock: QUQFOY_clean_sbu_1, # of connection points: 4
#     Node 26, Type 1, BuildingBlock: QUQFOY_clean_sbu_1, # of connection points: 4
#     Node 27, Type 1, BuildingBlock: QUQFOY_clean_sbu_1, # of connection points: 4
#     Edge 28, Type (0, 1), BuildingBlock: MIFKUJ_clean_linker_0, # of connection points: 2
#     Edge 29, Type (0, 1), BuildingBlock: MIFKUJ_clean_linker_0, # of connection points: 2
#     Edge 30, Type (0, 1), BuildingBlock: MIFKUJ_clean_linker_0, # of connection points: 2
#     Edge 31, Type (0, 1), BuildingBlock: MIFKUJ_clean_linker_0, # of connection points: 2
#     Edge 32, Type (0, 1), BuildingBlock: MIFKUJ_clean_linker_0, # of connection points: 2
#     Edge 33, Type (0, 1), BuildingBlock: MIFKUJ_clean_linker_0, # of connection points: 2
#     Edge 34, Type (0, 1), BuildingBlock: MIFKUJ_clean_linker_0, # of connection points: 2
#     Edge 35, Type (0, 1), BuildingBlock: MIFKUJ_clean_linker_0, # of connection points: 2
#     Edge 36, Type (0, 1), BuildingBlock: MIFKUJ_clean_linker_0, # of connection points: 2
#     Edge 37, Type (0, 1), BuildingBlock: MIFKUJ_clean_linker_0, # of connection points: 2
#     Edge 38, Type (0, 1), BuildingBlock: MIFKUJ_clean_linker_0, # of connection points: 2
#     Edge 39, Type (0, 1), BuildingBlock: MIFKUJ_clean_linker_0, # of connection points: 2
#     Edge 40, Type (0, 1), BuildingBlock: MIFKUJ_clean_linker_0, # of connection points: 2
#     Edge 41, Type (0, 1), BuildingBlock: MIFKUJ_clean_linker_0, # of connection points: 2
#     Edge 42, Type (0, 1), BuildingBlock: MIFKUJ_clean_linker_0, # of connection points: 2
#     Edge 43, Type (0, 1), BuildingBlock: MIFKUJ_clean_linker_0, # of connection points: 2
#     Edge 44, Type (0, 1), BuildingBlock: MIFKUJ_clean_linker_0, # of connection points: 2
#     Edge 45, Type (0, 1), BuildingBlock: MIFKUJ_clean_linker_0, # of connection points: 2
#     Edge 46, Type (0, 1), BuildingBlock: MIFKUJ_clean_linker_0, # of connection points: 2
#     Edge 47, Type (0, 1), BuildingBlock: MIFKUJ_clean_linker_0, # of connection points: 2
#     Edge 48, Type (0, 1), BuildingBlock: MIFKUJ_clean_linker_0, # of connection points: 2
#     Edge 49, Type (0, 1), BuildingBlock: MIFKUJ_clean_linker_0, # of connection points: 2
#     Edge 50, Type (0, 1), BuildingBlock: MIFKUJ_clean_linker_0, # of connection points: 2
#     Edge 51, Type (0, 1), BuildingBlock: MIFKUJ_clean_linker_0, # of connection points: 2
#     Edge 52, Type (0, 1), BuildingBlock: MIFKUJ_clean_linker_0, # of connection points: 2
#     Edge 53, Type (0, 1), BuildingBlock: MIFKUJ_clean_linker_0, # of connection points: 2
#     Edge 54, Type (0, 1), BuildingBlock: MIFKUJ_clean_linker_0, # of connection points: 2
#     Edge 55, Type (0, 1), BuildingBlock: MIFKUJ_clean_linker_0, # of connection points: 2
#     Edge 56, Type (0, 1), BuildingBlock: MIFKUJ_clean_linker_0, # of connection points: 2
#     Edge 57, Type (0, 1), BuildingBlock: MIFKUJ_clean_linker_0, # of connection points: 2
#     Edge 58, Type (0, 1), BuildingBlock: MIFKUJ_clean_linker_0, # of connection points: 2
#     Edge 59, Type (0, 1), BuildingBlock: MIFKUJ_clean_linker_0, # of connection points: 2
#     Edge 60, Type (0, 1), BuildingBlock: MIFKUJ_clean_linker_0, # of connection points: 2
#     Edge 61, Type (0, 1), BuildingBlock: MIFKUJ_clean_linker_0, # of connection points: 2
#     Edge 62, Type (0, 1), BuildingBlock: MIFKUJ_clean_linker_0, # of connection points: 2
#     Edge 63, Type (0, 1), BuildingBlock: MIFKUJ_clean_linker_0, # of connection points: 2
#     Edge 64, Type (0, 1), BuildingBlock: MIFKUJ_clean_linker_0, # of connection points: 2
#     Edge 65, Type (0, 1), BuildingBlock: MIFKUJ_clean_linker_0, # of connection points: 2
#     Edge 66, Type (0, 1), BuildingBlock: MIFKUJ_clean_linker_0, # of connection points: 2
#     Edge 67, Type (0, 1), BuildingBlock: MIFKUJ_clean_linker_0, # of connection points: 2
#     Edge 68, Type (0, 1), BuildingBlock: MIFKUJ_clean_linker_0, # of connection points: 2
#     Edge 69, Type (0, 1), BuildingBlock: MIFKUJ_clean_linker_0, # of connection points: 2
#     Edge 70, Type (0, 1), BuildingBlock: MIFKUJ_clean_linker_0, # of connection points: 2
#     Edge 71, Type (0, 1), BuildingBlock: MIFKUJ_clean_linker_0, # of connection points: 2
#     Edge 72, Type (0, 1), BuildingBlock: MIFKUJ_clean_linker_0, # of connection points: 2
#     Edge 73, Type (0, 1), BuildingBlock: MIFKUJ_clean_linker_0, # of connection points: 2
#     Edge 74, Type (0, 1), BuildingBlock: MIFKUJ_clean_linker_0, # of connection points: 2
#     Edge 75, Type (0, 1), BuildingBlock: MIFKUJ_clean_linker_0, # of connection points: 2
# Relax obj value: 0.079
# Max RMSD: 0.182
# Mean RMSD: 0.129
data_MOF--net-ctn--node1-OLANEW_clean_sbu_2--node2-QUQFOY_clean_sbu_1--edge1-MIFKUJ_clean_linker_0
_symmetry_space_group_name_H-M    P1
_symmetry_Int_Tables_number       1
_symmetry_cell_setting            triclinic
loop_
_symmetry_equiv_pos_as_xyz
'x, y, z'
_cell_length_a     74.024215
_cell_length_b     76.212124
_cell_length_c     71.949429
_cell_angle_alpha  93.832659
_cell_angle_beta   94.559341
_cell_angle_gamma 99.798714
loop_
_atom_site_label
_atom_site_type_symbol
_atom_site_fract_x
_atom_site_fract_y
_atom_site_fract_z
_atom_type_partial_charge
O0 O 0.08539 0.12535 0.07966 0.0
Cd1 Cd 0.08732 0.10795 0.10703 0.0
O2 O 0.09652 0.15098 0.09582 0.0
Cd3 Cd 0.09449 0.13924 0.12252 0.0
O4 O 0.07713 0.13108 0.14463 0.0
C5 C 0.05997 0.12778 0.13956 0.0
O6 O 0.05445 0.12902 0.12195 0.0
C7 C 0.09072 0.14218 0.08022 0.0
C8 C 0.10254 0.07728 0.10012 0.0
O9 O 0.0851 0.07676 0.09771 0.0
O10 O 0.11277 0.09232 0.10573 0.0
O11 O 0.31864 0.7759 0.27789 0.0
Cd12 Cd 0.29055 0.76814 0.25649 0.0
O13 O 0.3064 0.75875 0.29867 0.0
Cd14 Cd 0.28024 0.74789 0.2826 0.0
O15 O 0.25806 0.72479 0.27883 0.0
C16 C 0.25892 0.71401 0.29148 0.0
O17 O 0.27232 0.7179 0.30501 0.0
C18 C 0.3199 0.76952 0.29374 0.0
C19 C 0.28543 0.79425 0.23211 0.0
O20 O 0.27817 0.79388 0.2477 0.0
O21 O 0.29526 0.78242 0.22819 0.0
O22 O 0.89462 0.47934 0.14952 0.0
Cd23 Cd 0.86403 0.47656 0.13304 0.0
O24 O 0.90181 0.46084 0.12788 0.0
Cd25 Cd 0.9186 0.44385 0.114 0.0
O26 O 0.93597 0.42962 0.09765 0.0
C27 C 0.93494 0.41284 0.09803 0.0
O28 O 0.9234 0.40415 0.10862 0.0
C29 C 0.9064 0.47087 0.14298 0.0
C30 C 0.85725 0.50904 0.12093 0.0
O31 O 0.85299 0.50426 0.137 0.0
O32 O 0.86477 0.49848 0.11066 0.0
O33 O 0.73765 0.84675 0.23271 0.0
Cd34 Cd 0.71972 0.81708 0.23542 0.0
O35 O 0.72403 0.85899 0.25502 0.0
Cd36 Cd 0.70639 0.83478 0.26181 0.0
O37 O 0.68791 0.82116 0.28052 0.0
C38 C 0.69078 0.82728 0.29756 0.0
O39 O 0.70469 0.84038 0.30248 0.0
C40 C 0.73563 0.86047 0.24285 0.0
C41 C 0.72221 0.79302 0.20512 0.0
O42 O 0.7094 0.80243 0.20498 0.0
O43 O 0.73387 0.79502 0.21959 0.0
O44 O 0.14172 0.94387 0.46739 0.0
Cd45 Cd 0.1284 0.91219 0.46326 0.0
O46 O 0.11431 0.95036 0.46094 0.0
Cd47 Cd 0.09449 0.96776 0.45408 0.0
O48 O 0.07287 0.98064 0.44149 0.0
C49 C 0.06734 0.97567 0.42448 0.0
O50 O 0.07499 0.96353 0.41576 0.0
C51 C 0.13148 0.95553 0.46532 0.0
C52 C 0.11015 0.90155 0.49411 0.0
O53 O 0.12725 0.90076 0.49341 0.0
O54 O 0.1017 0.90731 0.48017 0.0
O55 O 0.26673 0.77749 0.8543 0.0
Cd56 Cd 0.27414 0.76372 0.8248 0.0
O57 O 0.24125 0.77989 0.83802 0.0
Cd58 Cd 0.21347 0.78517 0.83093 0.0
O59 O 0.187 0.78689 0.81611 0.0
C60 C 0.18604 0.79859 0.80444 0.0
O61 O 0.20098 0.80997 0.8021 0.0
C62 C 0.25121 0.78256 0.85355 0.0
C63 C 0.29316 0.73533 0.8282 0.0
O64 O 0.30178 0.7512 0.82682 0.0
O65 O 0.27561 0.73297 0.82835 0.0
O66 O 0.90664 0.57814 0.39577 0.0
Cd67 Cd 0.8819 0.593 0.40573 0.0
O68 O 0.92075 0.58768 0.4233 0.0
Cd69 Cd 0.94299 0.59492 0.44578 0.0
O70 O 0.95639 0.61152 0.47059 0.0
C71 C 0.95742 0.62825 0.46974 0.0
O72 O 0.95143 0.63413 0.45405 0.0
C73 C 0.92069 0.57924 0.40743 0.0
C74 C 0.8609 0.57267 0.42964 0.0
O75 O 0.85608 0.57155 0.41202 0.0
O76 O 0.87562 0.58352 0.43596 0.0
O77 O 0.78551 0.80834 0.83174 0.0
Cd78 Cd 0.78759 0.83139 0.80959 0.0
O79 O 0.75558 0.80583 0.83296 0.0
Cd80 Cd 0.75155 0.82657 0.81436 0.0
O81 O 0.73701 0.84804 0.80671 0.0
C82 C 0.73502 0.85898 0.8202 0.0
O83 O 0.74252 0.85711 0.83696 0.0
C84 C 0.77075 0.80112 0.8381 0.0
C85 C 0.81475 0.82728 0.78576 0.0
O86 O 0.81885 0.83558 0.80203 0.0
O87 O 0.79776 0.82108 0.78062 0.0
O88 O 0.27823 0.30285 0.32899 0.0
Cd89 Cd 0.27491 0.3178 0.30021 0.0
O90 O 0.25004 0.30448 0.3357 0.0
Cd91 Cd 0.24324 0.32108 0.31351 0.0
O92 O 0.22825 0.34204 0.30516 0.0
C93 C 0.2268 0.35337 0.3185 0.0
O94 O 0.23484 0.35186 0.33513 0.0
C95 C 0.26527 0.29932 0.33948 0.0
C96 C 0.30516 0.31656 0.2797 0.0
O97 O 0.30431 0.33042 0.29049 0.0
O98 O 0.29168 0.30341 0.2785 0.0
O99 O 0.3937 0.98547 0.65266 0.0
Cd100 Cd 0.3621 0.9843 0.63932 0.0
O101 O 0.39676 0.96423 0.63165 0.0
Cd102 Cd 0.41307 0.94753 0.61674 0.0
O103 O 0.42916 0.93246 0.59966 0.0
C104 C 0.43172 0.91702 0.60363 0.0
O105 O 0.4247 0.91026 0.61834 0.0
C106 C 0.40354 0.97508 0.64565 0.0
C107 C 0.3559 0.01733 0.62823 0.0
O108 O 0.3528 0.01274 0.64466 0.0
O109 O 0.362 0.00633 0.61711 0.0
O110 O 0.22418 0.34762 0.74569 0.0
Cd111 Cd 0.2021 0.31967 0.74481 0.0
O112 O 0.24623 0.33687 0.761 0.0
Cd113 Cd 0.22679 0.31399 0.7681 0.0
O114 O 0.20448 0.30502 0.7852 0.0
C115 C 0.19646 0.31747 0.79119 0.0
O116 O 0.20183 0.33368 0.7862 0.0
C117 C 0.24083 0.34946 0.75256 0.0
C118 C 0.20652 0.29613 0.71473 0.0
O119 O 0.19508 0.30694 0.71313 0.0
O120 O 0.21579 0.29638 0.7306 0.0
O121 O 0.81495 0.27634 0.77434 0.0
Cd122 Cd 0.78543 0.27092 0.75515 0.0
O123 O 0.80939 0.24912 0.7835 0.0
Cd124 Cd 0.78199 0.2402 0.76917 0.0
O125 O 0.75821 0.21872 0.76735 0.0
C126 C 0.75902 0.20818 0.78024 0.0
O127 O 0.77328 0.21143 0.79285 0.0
C128 C 0.81995 0.26416 0.78374 0.0
C129 C 0.7814 0.29757 0.73115 0.0
O130 O 0.77511 0.29795 0.74724 0.0
O131 O 0.78971 0.28471 0.72654 0.0
O132 O 0.57431 0.615 0.57847 0.0
Cd133 Cd 0.57318 0.5958 0.60453 0.0
O134 O 0.5888 0.63923 0.59528 0.0
Cd135 Cd 0.58348 0.62718 0.62141 0.0
O136 O 0.5652 0.62089 0.64337 0.0
C137 C 0.54897 0.61273 0.63808 0.0
O138 O 0.54446 0.60807 0.62018 0.0
C139 C 0.58209 0.63131 0.57951 0.0
C140 C 0.59184 0.56718 0.59938 0.0
O141 O 0.57518 0.56618 0.59242 0.0
O142 O 0.59975 0.58176 0.60869 0.0
O143 O 0.63653 0.4356 0.95921 0.0
Cd144 Cd 0.62202 0.40424 0.95686 0.0
O145 O 0.60928 0.44292 0.9544 0.0
Cd146 Cd 0.59 0.46115 0.94876 0.0
O147 O 0.56914 0.47619 0.93859 0.0
C148 C 0.56828 0.47931 0.92144 0.0
O149 O 0.58016 0.47374 0.91082 0.0
C150 C 0.62664 0.4476 0.95759 0.0
C151 C 0.60564 0.39582 0.98943 0.0
O152 O 0.6224 0.39422 0.9877 0.0
O153 O 0.59661 0.4013 0.97569 0.0
O154 O 0.76345 0.26977 0.35768 0.0
Cd155 Cd 0.76985 0.25628 0.32761 0.0
O156 O 0.73913 0.27532 0.34159 0.0
Cd157 Cd 0.71379 0.28529 0.33366 0.0
O158 O 0.6876 0.28799 0.31888 0.0
C159 C 0.68633 0.30054 0.30833 0.0
O160 O 0.70098 0.31265 0.30693 0.0
C161 C 0.74873 0.27629 0.35724 0.0
C162 C 0.79163 0.22988 0.32976 0.0
O163 O 0.79883 0.24613 0.32793 0.0
O164 O 0.77423 0.22622 0.33096 0.0
O165 O 0.4078 0.0778 0.89858 0.0
Cd166 Cd 0.3831 0.09233 0.90916 0.0
O167 O 0.42311 0.09051 0.92449 0.0
Cd168 Cd 0.44569 0.10081 0.94595 0.0
O169 O 0.45763 0.11909 0.97011 0.0
C170 C 0.45462 0.13499 0.96958 0.0
O171 O 0.44559 0.13926 0.95456 0.0
C172 C 0.42257 0.08062 0.90943 0.0
C173 C 0.36343 0.07191 0.93395 0.0
O174 O 0.35788 0.07074 0.9165 0.0
O175 O 0.37824 0.08287 0.93972 0.0
O176 O 0.23865 0.88934 0.02866 0.0
Cd177 Cd 0.24651 0.90913 0.05028 0.0
Cd178 Cd 0.21713 0.92108 0.03386 0.0
O179 O 0.21246 0.89685 0.01816 0.0
O180 O 0.26383 0.89898 0.06731 0.0
O181 O 0.23749 0.90548 0.07571 0.0
C182 C 0.25231 0.89915 0.07981 0.0
C183 C 0.19331 0.93344 0.04594 0.0
C184 C 0.22406 0.88634 0.01751 0.0
C185 C 0.25469 0.94339 0.03258 0.0
O186 O 0.23783 0.94009 0.02634 0.0
O187 O 0.26106 0.93325 0.04378 0.0
O188 O 0.19479 0.93174 0.02822 0.0
O189 O 0.20482 0.92708 0.05692 0.0
O190 O 0.12921 0.5443 0.3136 0.0
Cd191 Cd 0.11141 0.52153 0.31854 0.0
Cd192 Cd 0.09085 0.53002 0.28849 0.0
O193 O 0.11437 0.5485 0.28692 0.0
O194 O 0.12607 0.50554 0.33119 0.0
O195 O 0.11189 0.49903 0.30262 0.0
C196 C 0.1223 0.49472 0.31626 0.0
C197 C 0.07329 0.51846 0.26055 0.0
C198 C 0.12807 0.55287 0.29912 0.0
C199 C 0.0753 0.53009 0.32649 0.0
O200 O 0.07423 0.53371 0.30951 0.0
O201 O 0.08916 0.52415 0.3334 0.0
O202 O 0.07489 0.53494 0.26668 0.0
O203 O 0.08247 0.50846 0.2699 0.0
O204 O 0.74385 0.67983 0.99151 0.0
Cd205 Cd 0.73595 0.66366 0.0124 0.0
Cd206 Cd 0.76516 0.64962 0.0034 0.0
O207 O 0.77034 0.67119 0.98756 0.0
O208 O 0.72053 0.67661 0.028 0.0
O209 O 0.74756 0.67069 0.03857 0.0
C210 C 0.73334 0.67787 0.04152 0.0
C211 C 0.78722 0.642 0.02477 0.0
C212 C 0.75883 0.68135 0.98376 0.0
C213 C 0.72809 0.62591 0.99617 0.0
O214 O 0.74497 0.62838 0.99308 0.0
O215 O 0.72158 0.63815 0.00485 0.0
O216 O 0.78799 0.63923 0.00698 0.0
O217 O 0.77444 0.65012 0.0304 0.0
O218 O 0.92186 0.03177 0.29809 0.0
Cd219 Cd 0.90593 0.04005 0.27678 0.0
Cd220 Cd 0.88691 0.04831 0.3055 0.0
O221 O 0.90862 0.04183 0.32201 0.0
O222 O 0.92131 0.03957 0.25544 0.0
O223 O 0.91418 0.06448 0.268 0.0
C224 C 0.92284 0.05668 0.25592 0.0
C225 C 0.87823 0.07602 0.31085 0.0
C226 C 0.92123 0.0344 0.31563 0.0
C227 C 0.86752 0.02005 0.276 0.0
O228 O 0.86715 0.02792 0.29208 0.0
O229 O 0.88154 0.0237 0.26695 0.0
O230 O 0.87347 0.06319 0.32127 0.0
O231 O 0.88832 0.0732 0.29748 0.0
O232 O 0.24418 0.1897 0.5015 0.0
Cd233 Cd 0.2355 0.17343 0.5221 0.0
Cd234 Cd 0.26521 0.15942 0.51433 0.0
O235 O 0.27048 0.18054 0.49794 0.0
O236 O 0.21924 0.18627 0.53666 0.0
O237 O 0.24581 0.18043 0.54874 0.0
C238 C 0.23135 0.18749 0.55083 0.0
C239 C 0.28766 0.15242 0.53571 0.0
C240 C 0.25925 0.19091 0.49393 0.0
C241 C 0.22825 0.13541 0.50655 0.0
O242 O 0.24533 0.1378 0.50432 0.0
O243 O 0.22134 0.14788 0.5143 0.0
O244 O 0.28819 0.14932 0.51794 0.0
O245 O 0.27483 0.16048 0.54135 0.0
O246 O 0.41735 0.53525 0.80448 0.0
Cd247 Cd 0.39907 0.5409 0.7836 0.0
Cd248 Cd 0.38083 0.54816 0.81327 0.0
O249 O 0.40369 0.54315 0.82904 0.0
O250 O 0.41275 0.53998 0.76099 0.0
O251 O 0.4051 0.56487 0.77305 0.0
C252 C 0.41323 0.55691 0.76061 0.0
C253 C 0.37195 0.57591 0.81685 0.0
C254 C 0.4171 0.53749 0.82211 0.0
C255 C 0.36198 0.51825 0.78568 0.0
O256 O 0.36157 0.52664 0.80147 0.0
O257 O 0.37541 0.52247 0.77596 0.0
O258 O 0.36774 0.56394 0.8284 0.0
O259 O 0.38146 0.57214 0.80328 0.0
O260 O 0.73962 0.39129 0.52864 0.0
Cd261 Cd 0.74552 0.41194 0.54951 0.0
Cd262 Cd 0.71554 0.4204 0.53247 0.0
O263 O 0.71186 0.3953 0.51857 0.0
O264 O 0.76353 0.4039 0.56761 0.0
O265 O 0.73609 0.40842 0.57475 0.0
C266 C 0.7515 0.40345 0.57965 0.0
C267 C 0.693 0.43139 0.54816 0.0
C268 C 0.72478 0.38627 0.51807 0.0
C269 C 0.7511 0.44497 0.52955 0.0
O270 O 0.7345 0.43986 0.52278 0.0
O271 O 0.75807 0.43647 0.54207 0.0
O272 O 0.69171 0.42919 0.53014 0.0
O273 O 0.70666 0.42632 0.55738 0.0
O274 O 0.62664 0.04275 0.81054 0.0
Cd275 Cd 0.6097 0.01983 0.81636 0.0
Cd276 Cd 0.58762 0.02738 0.78645 0.0
O277 O 0.61046 0.04672 0.78457 0.0
O278 O 0.62543 0.00514 0.82966 0.0
O279 O 0.61107 0.99701 0.80139 0.0
C280 C 0.622 0.99376 0.81517 0.0
C281 C 0.57027 0.01547 0.75846 0.0
C282 C 0.62458 0.05134 0.79621 0.0
C283 C 0.57318 0.02712 0.82504 0.0
O284 O 0.57118 0.03011 0.8079 0.0
O285 O 0.58776 0.02226 0.83173 0.0
O286 O 0.57108 0.03178 0.76482 0.0
O287 O 0.57996 0.00581 0.76771 0.0
O288 O 0.00396 0.29279 0.96035 0.0
Cd289 Cd 0.0067 0.27382 0.93942 0.0
Cd290 Cd 0.02277 0.30248 0.92402 0.0
O291 O 0.02053 0.31596 0.94934 0.0
O292 O 0.00254 0.25067 0.95112 0.0
O293 O 0.02924 0.26234 0.9414 0.0
C294 C 0.0196 0.24981 0.94948 0.0
C295 C 0.05089 0.30348 0.91148 0.0
C296 C 0.01121 0.30925 0.96204 0.0
C297 C 0.98745 0.2827 0.90408 0.0
O298 O 0.99957 0.29681 0.90536 0.0
O299 O 0.98837 0.27099 0.91575 0.0
O300 O 0.04233 0.31688 0.91118 0.0
O301 O 0.04368 0.28963 0.91949 0.0
O302 O 0.50214 0.79183 0.47095 0.0
Cd303 Cd 0.50493 0.77305 0.44991 0.0
Cd304 Cd 0.52133 0.80159 0.43419 0.0
O305 O 0.518 0.81504 0.45922 0.0
O306 O 0.50305 0.74945 0.46077 0.0
O307 O 0.52863 0.76363 0.4507 0.0
C308 C 0.52026 0.75015 0.45847 0.0
C309 C 0.54958 0.80427 0.42159 0.0
C310 C 0.50892 0.8084 0.47213 0.0
C311 C 0.48596 0.7816 0.41429 0.0
O312 O 0.49857 0.79527 0.4151 0.0
O313 O 0.48625 0.7703 0.4265 0.0
O314 O 0.54016 0.81704 0.42137 0.0
O315 O 0.54327 0.79022 0.42973 0.0
O316 O 0.96848 0.78342 0.67737 0.0
Cd317 Cd 0.9907 0.77612 0.66501 0.0
Cd318 Cd 0.97986 0.79672 0.63851 0.0
O319 O 0.96016 0.80086 0.65617 0.0
O320 O 0.00595 0.76732 0.68522 0.0
O321 O 0.01557 0.7916 0.67101 0.0
C322 C 0.0187 0.78076 0.68345 0.0
C323 C 0.99939 0.82029 0.62778 0.0
C324 C 0.95792 0.79381 0.67152 0.0
C325 C 0.98045 0.75853 0.62606 0.0
O326 O 0.97622 0.7733 0.62173 0.0
O327 O 0.98667 0.75678 0.64269 0.0
O328 O 0.98234 0.8161 0.62122 0.0
O329 O 0.00512 0.81157 0.64119 0.0
O330 O 0.46856 0.28387 0.18027 0.0
Cd331 Cd 0.49166 0.27842 0.16835 0.0
Cd332 Cd 0.48268 0.30161 0.14433 0.0
O333 O 0.46434 0.30629 0.16352 0.0
O334 O 0.50732 0.26926 0.18793 0.0
O335 O 0.51582 0.29476 0.17535 0.0
C336 C 0.51949 0.2834 0.18702 0.0
C337 C 0.50222 0.32489 0.13298 0.0
C338 C 0.46001 0.29656 0.17671 0.0
C339 C 0.48136 0.26367 0.12888 0.0
O340 O 0.47693 0.27877 0.1262 0.0
O341 O 0.4884 0.26081 0.14484 0.0
O342 O 0.48484 0.32155 0.12768 0.0
O343 O 0.50836 0.31556 0.14561 0.0
H344 H 0.26262 0.77947 0.88991 0.0
H345 H 0.25376 0.79454 0.91791 0.0
H346 H 0.21724 0.82018 0.88354 0.0
H347 H 0.22687 0.80596 0.85552 0.0
H348 H 0.23627 0.84347 0.90851 0.0
H349 H 0.20092 0.78535 0.91084 0.0
H350 H 0.19502 0.7525 0.91051 0.0
H351 H 0.23233 0.75549 0.95992 0.0
H352 H 0.23866 0.78836 0.96041 0.0
H353 H 0.19948 0.88083 0.98628 0.0
H354 H 0.19964 0.86028 0.95871 0.0
H355 H 0.24377 0.83872 0.98647 0.0
H356 H 0.24377 0.85921 0.01409 0.0
H357 H 0.21752 0.81259 0.96433 0.0
H358 H 0.2547 0.87066 0.95952 0.0
H359 H 0.26001 0.90352 0.95983 0.0
H360 H 0.21786 0.90013 0.91449 0.0
H361 H 0.21211 0.86723 0.9141 0.0
C362 C 0.25261 0.78823 0.88832 0.0
C363 C 0.24508 0.79113 0.87046 0.0
C364 C 0.24742 0.79672 0.90436 0.0
C365 C 0.2345 0.8082 0.9029 0.0
C366 C 0.22704 0.81118 0.88506 0.0
C367 C 0.23233 0.8028 0.86901 0.0
C368 C 0.22966 0.81793 0.91989 0.0
C369 C 0.2318 0.83663 0.92054 0.0
C370 C 0.22415 0.80911 0.93578 0.0
C371 C 0.22038 0.78933 0.93556 0.0
C372 C 0.20798 0.779 0.92155 0.0
C373 C 0.20453 0.76037 0.92136 0.0
C374 C 0.21332 0.75191 0.93516 0.0
C375 C 0.22554 0.76206 0.94923 0.0
C376 C 0.22905 0.7807 0.94948 0.0
C377 C 0.20895 0.87146 0.98671 0.0
C378 C 0.22177 0.87182 0.00231 0.0
C379 C 0.20905 0.85976 0.97091 0.0
C380 C 0.22189 0.84818 0.97049 0.0
C381 C 0.23378 0.84759 0.98651 0.0
C382 C 0.2338 0.85937 0.00226 0.0
C383 C 0.22421 0.83798 0.95283 0.0
C384 C 0.22171 0.81928 0.95212 0.0
C385 C 0.22927 0.84676 0.93681 0.0
C386 C 0.23283 0.86651 0.93693 0.0
C387 C 0.24646 0.87693 0.94972 0.0
C388 C 0.24957 0.89556 0.94989 0.0
C389 C 0.23924 0.90391 0.93723 0.0
C390 C 0.22582 0.89364 0.92432 0.0
C391 C 0.22264 0.87501 0.92411 0.0
H392 H 0.24167 0.91833 0.93738 0.0
H393 H 0.21064 0.73749 0.93499 0.0
H394 H 0.94702 0.56743 0.43014 0.0
H395 H 0.97386 0.55547 0.4206 0.0
H396 H 0.95694 0.56107 0.36284 0.0
H397 H 0.93026 0.57311 0.37228 0.0
H398 H 0.96768 0.52957 0.36673 0.0
H399 H 0.9909 0.59177 0.3884 0.0
H400 H 0.99662 0.61768 0.41186 0.0
H401 H 0.02751 0.58925 0.4487 0.0
H402 H 0.02175 0.56307 0.42553 0.0
H403 H 0.04283 0.53963 0.31457 0.0
H404 H 0.01743 0.54393 0.33275 0.0
H405 H 0.04722 0.53075 0.38237 0.0
H406 H 0.07308 0.52646 0.36414 0.0
H407 H 0.03099 0.56109 0.38815 0.0
H408 H 0.01224 0.50082 0.36309 0.0
H409 H 0.00723 0.4759 0.3385 0.0
H410 H 0.96824 0.501 0.30737 0.0
H411 H 0.9732 0.5262 0.33164 0.0
C412 C 0.94921 0.56643 0.41546 0.0
C413 C 0.93678 0.57165 0.402 0.0
C414 C 0.96445 0.55942 0.41001 0.0
C415 C 0.96751 0.55756 0.39102 0.0
C416 C 0.95485 0.56237 0.37757 0.0
C417 C 0.93964 0.5693 0.38299 0.0
C418 C 0.98403 0.55103 0.38492 0.0
C419 C 0.98152 0.53646 0.37141 0.0
C420 C 0.00212 0.55963 0.3915 0.0
C421 C 0.0057 0.5754 0.40535 0.0
C422 C 0.99879 0.591 0.40156 0.0
C423 C 0.00206 0.60574 0.4148 0.0
C424 C 0.01237 0.60509 0.43179 0.0
C425 C 0.01949 0.58972 0.43555 0.0
C426 C 0.01623 0.57493 0.42238 0.0
C427 C 0.04408 0.53761 0.32934 0.0
C428 C 0.06001 0.53265 0.33789 0.0
C429 C 0.02947 0.53999 0.3397 0.0
C430 C 0.03034 0.5374 0.35883 0.0
C431 C 0.04627 0.53269 0.36757 0.0
C432 C 0.06098 0.53022 0.35714 0.0
C433 C 0.01456 0.54009 0.36946 0.0
C434 C 0.01719 0.55389 0.38383 0.0
C435 C 0.99656 0.53082 0.36363 0.0
C436 C 0.99316 0.51546 0.34918 0.0
C437 C 0.00265 0.50107 0.35097 0.0
C438 C 0.99982 0.48689 0.33708 0.0
C439 C 0.98745 0.48688 0.32137 0.0
C440 C 0.97782 0.50102 0.31956 0.0
C441 C 0.9806 0.51524 0.3334 0.0
H442 H 0.98532 0.47592 0.31061 0.0
H443 H 0.01488 0.61651 0.44202 0.0
H444 H 0.74262 0.78658 0.85771 0.0
H445 H 0.74387 0.76666 0.88274 0.0
H446 H 0.80108 0.76588 0.87594 0.0
H447 H 0.80003 0.78596 0.85078 0.0
H448 H 0.77998 0.73182 0.88038 0.0
H449 H 0.79239 0.79094 0.91085 0.0
H450 H 0.78703 0.82167 0.91766 0.0
H451 H 0.7345 0.80134 0.93653 0.0
H452 H 0.73942 0.77046 0.92957 0.0
H453 H 0.78999 0.68978 0.96556 0.0
H454 H 0.79511 0.71067 0.94132 0.0
H455 H 0.74081 0.72318 0.94554 0.0
H456 H 0.73576 0.70274 0.97 0.0
H457 H 0.76461 0.75259 0.94309 0.0
H458 H 0.75051 0.69391 0.91003 0.0
H459 H 0.75484 0.66294 0.9025 0.0
H460 H 0.80949 0.68208 0.88802 0.0
H461 H 0.80555 0.71318 0.8957 0.0
C462 C 0.75546 0.78211 0.86139 0.0
C463 C 0.77126 0.78796 0.8523 0.0
C464 C 0.75615 0.77077 0.87576 0.0
C465 C 0.77262 0.76501 0.88132 0.0
C466 C 0.78827 0.77026 0.87188 0.0
C467 C 0.78763 0.78175 0.85754 0.0
C468 C 0.77342 0.75383 0.89732 0.0
C469 C 0.77696 0.73643 0.8942 0.0
C470 C 0.76919 0.75982 0.91522 0.0
C471 C 0.76622 0.77838 0.91955 0.0
C472 C 0.77963 0.79301 0.91632 0.0
C473 C 0.77668 0.81046 0.92023 0.0
C474 C 0.76042 0.81346 0.92749 0.0
C475 C 0.74708 0.799 0.93089 0.0
C476 C 0.74996 0.78152 0.92699 0.0
C477 C 0.77918 0.69706 0.9614 0.0
C478 C 0.76244 0.69453 0.96968 0.0
C479 C 0.78209 0.70892 0.94747 0.0
C480 C 0.76824 0.71831 0.94144 0.0
C481 C 0.75169 0.71608 0.94997 0.0
C482 C 0.74882 0.70434 0.96394 0.0
C483 C 0.77073 0.73035 0.9261 0.0
C484 C 0.76784 0.74799 0.92935 0.0
C485 C 0.77545 0.72452 0.9083 0.0
C486 C 0.77781 0.70585 0.90365 0.0
C487 C 0.7635 0.6915 0.90539 0.0
C488 C 0.76587 0.67393 0.90107 0.0
C489 C 0.78245 0.67054 0.89485 0.0
C490 C 0.79667 0.68473 0.89288 0.0
C491 C 0.79437 0.70232 0.89721 0.0
H492 H 0.78426 0.65693 0.89151 0.0
H493 H 0.75816 0.82698 0.93051 0.0
H494 H 0.04804 0.00059 0.43832 0.0
H495 H 0.02314 0.01249 0.42175 0.0
H496 H 0.02788 0.97934 0.37201 0.0
H497 H 0.05278 0.96755 0.38832 0.0
H498 H 0.02579 0.01308 0.36425 0.0
H499 H 0.99321 0.96826 0.40002 0.0
H500 H 0.9854 0.95423 0.42894 0.0
H501 H 0.96904 0.00239 0.45073 0.0
H502 H 0.97699 0.01678 0.42202 0.0
H503 H 0.94484 0.01192 0.30719 0.0
H504 H 0.96946 0.00394 0.32763 0.0
H505 H 0.95532 0.03702 0.37337 0.0
H506 H 0.9301 0.04467 0.35301 0.0
H507 H 0.96302 0.00694 0.38544 0.0
H508 H 0.99308 0.05108 0.34878 0.0
H509 H 0.00136 0.06555 0.32023 0.0
H510 H 0.02299 0.01963 0.3005 0.0
H511 H 0.01461 0.00477 0.3288 0.0
C512 C 0.04377 0.99584 0.42385 0.0
C513 C 0.05238 0.9831 0.41464 0.0
C514 C 0.0295 0.00261 0.41444 0.0
C515 C 0.02356 0.99669 0.39569 0.0
C516 C 0.03225 0.9841 0.38647 0.0
C517 C 0.04647 0.97734 0.39584 0.0
C518 C 0.00845 0.00366 0.38544 0.0
C519 C 0.01201 0.01161 0.36879 0.0
C520 C 0.99067 0.00231 0.39174 0.0
C521 C 0.9859 0.99366 0.40898 0.0
C522 C 0.9881 0.9759 0.41105 0.0
C523 C 0.98361 0.96788 0.42739 0.0
C524 C 0.97678 0.97743 0.44169 0.0
C525 C 0.97437 0.99502 0.43966 0.0
C526 C 0.97885 0.00311 0.42336 0.0
C527 C 0.94691 0.0175 0.3216 0.0
C528 C 0.9356 0.02905 0.32844 0.0
C529 C 0.96108 0.013 0.33326 0.0
C530 C 0.96455 0.02022 0.35192 0.0
C531 C 0.95298 0.03139 0.35897 0.0
C532 C 0.93859 0.03575 0.34734 0.0
C533 C 0.98023 0.01597 0.36394 0.0
C534 C 0.97682 0.0086 0.38096 0.0
C535 C 0.99822 0.01793 0.35803 0.0
C536 C 0.00311 0.02677 0.34089 0.0
C537 C 0.99946 0.04401 0.33829 0.0
C538 C 0.0042 0.05229 0.32216 0.0
C539 C 0.0127 0.04351 0.30858 0.0
C540 C 0.01642 0.02641 0.31105 0.0
C541 C 0.0117 0.01807 0.32714 0.0
H542 H 0.01649 0.04999 0.29617 0.0
H543 H 0.97332 0.9712 0.45432 0.0
H544 H 0.23201 0.27411 0.71272 0.0
H545 H 0.2365 0.25425 0.68597 0.0
H546 H 0.19138 0.27048 0.65379 0.0
H547 H 0.18676 0.29034 0.68047 0.0
H548 H 0.18997 0.23399 0.6503 0.0
H549 H 0.23459 0.2874 0.64649 0.0
H550 H 0.2606 0.31124 0.6584 0.0
H551 H 0.29514 0.27208 0.6672 0.0
H552 H 0.26925 0.24798 0.65557 0.0
H553 H 0.20392 0.20601 0.55809 0.0
H554 H 0.20013 0.22276 0.58716 0.0
H555 H 0.24895 0.20742 0.61331 0.0
H556 H 0.2531 0.1909 0.584 0.0
H557 H 0.24922 0.24186 0.62145 0.0
H558 H 0.20549 0.18846 0.62372 0.0
H559 H 0.17964 0.16437 0.61206 0.0
H560 H 0.14362 0.20272 0.60673 0.0
H561 H 0.16932 0.22709 0.61813 0.0
C562 C 0.22301 0.27343 0.69996 0.0
C563 C 0.20906 0.28385 0.6987 0.0
C564 C 0.22564 0.26212 0.68468 0.0
C565 C 0.21436 0.261 0.66786 0.0
C566 C 0.20023 0.27115 0.66665 0.0
C567 C 0.19766 0.28254 0.68189 0.0
C568 C 0.21733 0.24936 0.65144 0.0
C569 C 0.20285 0.2358 0.64386 0.0
C570 C 0.23433 0.2514 0.64342 0.0
C571 C 0.24992 0.26588 0.65036 0.0
C572 C 0.24768 0.28386 0.65112 0.0
C573 C 0.26241 0.29743 0.65779 0.0
C574 C 0.2795 0.29318 0.66361 0.0
C575 C 0.2819 0.27535 0.66272 0.0
C576 C 0.2672 0.26174 0.65608 0.0
C577 C 0.21382 0.20609 0.57004 0.0
C578 C 0.22879 0.19707 0.56875 0.0
C579 C 0.21158 0.21562 0.5867 0.0
C580 C 0.2241 0.21614 0.60253 0.0
C581 C 0.23908 0.20716 0.6013 0.0
C582 C 0.24141 0.19769 0.58456 0.0
C583 C 0.22178 0.22656 0.62012 0.0
C584 C 0.23637 0.2399 0.62795 0.0
C585 C 0.2049 0.22425 0.62844 0.0
C586 C 0.18938 0.20962 0.62164 0.0
C587 C 0.19209 0.19178 0.61994 0.0
C588 C 0.17745 0.17807 0.61339 0.0
C589 C 0.16001 0.18202 0.60862 0.0
C590 C 0.15715 0.19969 0.61042 0.0
C591 C 0.17174 0.21345 0.61694 0.0
H592 H 0.1487 0.17139 0.60355 0.0
H593 H 0.29088 0.30369 0.66876 0.0
H594 H 0.51663 0.58919 0.63303 0.0
H595 H 0.49287 0.58412 0.6546 0.0
H596 H 0.52544 0.62386 0.69494 0.0
H597 H 0.5497 0.62846 0.67359 0.0
H598 H 0.51099 0.59733 0.71236 0.0
H599 H 0.48646 0.63232 0.66809 0.0
H600 H 0.4775 0.64161 0.63701 0.0
H601 H 0.43923 0.59237 0.62465 0.0
H602 H 0.44814 0.58265 0.65556 0.0
H603 H 0.4318 0.59132 0.76517 0.0
H604 H 0.45404 0.60564 0.74475 0.0
H605 H 0.44115 0.55908 0.7054 0.0
H606 H 0.41941 0.54454 0.72591 0.0
H607 H 0.44544 0.59478 0.68958 0.0
H608 H 0.47502 0.55926 0.73328 0.0
H609 H 0.4838 0.55155 0.7651 0.0
H610 H 0.51237 0.60528 0.77937 0.0
H611 H 0.5035 0.61337 0.74767 0.0
C612 C 0.51876 0.59684 0.6465 0.0
C613 C 0.53499 0.60928 0.65158 0.0
C614 C 0.50509 0.59404 0.65878 0.0
C615 C 0.50711 0.60394 0.67624 0.0
C616 C 0.52349 0.61615 0.68151 0.0
C617 C 0.53735 0.61875 0.66931 0.0
C618 C 0.49225 0.60114 0.68903 0.0
C619 C 0.49672 0.59718 0.70745 0.0
C620 C 0.47356 0.60092 0.68273 0.0
C621 C 0.46807 0.60671 0.66412 0.0
C622 C 0.47622 0.62341 0.6587 0.0
C623 C 0.47114 0.62877 0.64111 0.0
C624 C 0.45782 0.61758 0.62885 0.0
C625 C 0.44954 0.60102 0.63417 0.0
C626 C 0.45458 0.5956 0.65173 0.0
C627 C 0.43345 0.58434 0.75196 0.0
C628 C 0.42399 0.56683 0.74709 0.0
C629 C 0.44616 0.59249 0.74038 0.0
C630 C 0.44922 0.58334 0.72366 0.0
C631 C 0.43891 0.56633 0.71825 0.0
C632 C 0.42656 0.55804 0.72998 0.0
C633 C 0.46426 0.59062 0.71251 0.0
C634 C 0.45979 0.59536 0.69447 0.0
C635 C 0.48294 0.59189 0.71925 0.0
C636 C 0.4884 0.58697 0.73821 0.0
C637 C 0.48302 0.56947 0.74326 0.0
C638 C 0.48804 0.56502 0.76126 0.0
C639 C 0.49858 0.57793 0.77427 0.0
C640 C 0.50417 0.5953 0.76929 0.0
C641 C 0.49916 0.59983 0.75131 0.0
H642 H 0.50246 0.57445 0.78819 0.0
H643 H 0.45391 0.62174 0.61524 0.0
H644 H 0.75826 0.32195 0.73314 0.0
H645 H 0.75298 0.34363 0.71051 0.0
H646 H 0.79342 0.326 0.67719 0.0
H647 H 0.79864 0.3042 0.69957 0.0
H648 H 0.79638 0.36394 0.68243 0.0
H649 H 0.75033 0.31065 0.66433 0.0
H650 H 0.72444 0.28721 0.66996 0.0
H651 H 0.69189 0.32724 0.6828 0.0
H652 H 0.71771 0.35093 0.67748 0.0
H653 H 0.78046 0.38799 0.59136 0.0
H654 H 0.78522 0.37406 0.62034 0.0
H655 H 0.73556 0.38915 0.63888 0.0
H656 H 0.73035 0.40269 0.60938 0.0
H657 H 0.73588 0.35614 0.64503 0.0
H658 H 0.77956 0.40937 0.65932 0.0
H659 H 0.80506 0.43353 0.65451 0.0
H660 H 0.84164 0.39562 0.65055 0.0
H661 H 0.8163 0.37119 0.65507 0.0
C662 C 0.76611 0.32277 0.72105 0.0
C663 C 0.77882 0.31131 0.71809 0.0
C664 C 0.76305 0.33514 0.70815 0.0
C665 C 0.77277 0.33634 0.69217 0.0
C666 C 0.78581 0.32528 0.68946 0.0
C667 C 0.78871 0.31278 0.70221 0.0
C668 C 0.76896 0.34865 0.67786 0.0
C669 C 0.78321 0.36224 0.67416 0.0
C670 C 0.75154 0.34679 0.66761 0.0
C671 C 0.73602 0.33255 0.67074 0.0
C672 C 0.73771 0.31445 0.66852 0.0
C673 C 0.72304 0.30112 0.67162 0.0
C674 C 0.70655 0.30573 0.6768 0.0
C675 C 0.70469 0.32369 0.67883 0.0
C676 C 0.71933 0.33707 0.67577 0.0
C677 C 0.77063 0.38857 0.60166 0.0
C678 C 0.75503 0.39648 0.59806 0.0
C679 C 0.77345 0.38067 0.61834 0.0
C680 C 0.76092 0.38079 0.632 0.0
C681 C 0.74546 0.38895 0.62859 0.0
C682 C 0.74252 0.39672 0.61176 0.0
C683 C 0.76348 0.3713 0.64917 0.0
C684 C 0.749 0.35818 0.65345 0.0
C685 C 0.78064 0.37376 0.66012 0.0
C686 C 0.79597 0.38842 0.65743 0.0
C687 C 0.79301 0.40616 0.65729 0.0
C688 C 0.80744 0.41991 0.65464 0.0
C689 C 0.82495 0.41611 0.65219 0.0
C690 C 0.82807 0.39855 0.65244 0.0
C691 C 0.81368 0.38475 0.65508 0.0
H692 H 0.83611 0.42677 0.65014 0.0
H693 H 0.69521 0.2954 0.67918 0.0
H694 H 0.42784 0.00482 0.65909 0.0
H695 H 0.45939 0.00659 0.67313 0.0
H696 H 0.45387 0.94929 0.66461 0.0
H697 H 0.42222 0.94746 0.6505 0.0
H698 H 0.46768 0.96426 0.70157 0.0
H699 H 0.48073 0.97156 0.63857 0.0
H700 H 0.47847 0.98395 0.60786 0.0
H701 H 0.50112 0.03641 0.63349 0.0
H702 H 0.50326 0.02438 0.66441 0.0
H703 H 0.55953 0.98028 0.74498 0.0
H704 H 0.53454 0.96824 0.72062 0.0
H705 H 0.52666 0.02183 0.711 0.0
H706 H 0.55163 0.03385 0.73483 0.0
H707 H 0.52171 0.00184 0.67888 0.0
H708 H 0.50148 0.99634 0.74136 0.0
H709 H 0.50223 0.98555 0.77294 0.0
H710 H 0.49198 0.93126 0.74894 0.0
H711 H 0.49138 0.94177 0.71721 0.0
C712 C 0.43342 0.99263 0.66007 0.0
C713 C 0.42275 0.97604 0.65346 0.0
C714 C 0.45144 0.99365 0.66799 0.0
C715 C 0.459 0.97808 0.66967 0.0
C716 C 0.44832 0.96146 0.66323 0.0
C717 C 0.43035 0.96045 0.65505 0.0
C718 C 0.47774 0.97935 0.67911 0.0
C719 C 0.47964 0.97207 0.6964 0.0
C720 C 0.4932 0.98976 0.67244 0.0
C721 C 0.49207 0.99706 0.65384 0.0
C722 C 0.48511 0.98576 0.63769 0.0
C723 C 0.48387 0.99271 0.62023 0.0
C724 C 0.48963 0.01096 0.61872 0.0
C725 C 0.49667 0.02227 0.63467 0.0
C726 C 0.49793 0.01539 0.65217 0.0
C727 C 0.55271 0.98947 0.73736 0.0
C728 C 0.5574 0.008 0.74197 0.0
C729 C 0.53839 0.98258 0.72352 0.0
C730 C 0.52854 0.99413 0.71419 0.0
C731 C 0.53403 0.01264 0.718 0.0
C732 C 0.54827 0.0195 0.73174 0.0
C733 C 0.51153 0.98729 0.70167 0.0
C734 C 0.50992 0.99356 0.6838 0.0
C735 C 0.49625 0.97614 0.70791 0.0
C736 C 0.49663 0.96983 0.72695 0.0
C737 C 0.49953 0.98211 0.74284 0.0
C738 C 0.4999 0.97604 0.76075 0.0
C739 C 0.49723 0.95773 0.76295 0.0
C740 C 0.49411 0.94544 0.74722 0.0
C741 C 0.49375 0.95144 0.72927 0.0
H742 H 0.49751 0.95306 0.77683 0.0
H743 H 0.48866 0.01632 0.6052 0.0
H744 H 0.83293 0.24155 0.80711 0.0
H745 H 0.86216 0.24626 0.82633 0.0
H746 H 0.87712 0.29816 0.80584 0.0
H747 H 0.84768 0.29354 0.7863 0.0
H748 H 0.90574 0.27833 0.80667 0.0
H749 H 0.86375 0.29629 0.84826 0.0
H750 H 0.83511 0.29338 0.86398 0.0
H751 H 0.84766 0.24642 0.88828 0.0
H752 H 0.87626 0.2489 0.87248 0.0
H753 H 0.98042 0.30567 0.87785 0.0
H754 H 0.9529 0.30327 0.85609 0.0
H755 H 0.93104 0.25247 0.8759 0.0
H756 H 0.9584 0.25486 0.89791 0.0
H757 H 0.90609 0.27405 0.87521 0.0
H758 H 0.94731 0.25523 0.83279 0.0
H759 H 0.97581 0.2577 0.81686 0.0
H760 H 0.96477 0.30587 0.7941 0.0
H761 H 0.93631 0.30382 0.81011 0.0
C762 C 0.84238 0.254 0.80661 0.0
C763 C 0.83791 0.26722 0.7952 0.0
C764 C 0.85909 0.25667 0.81768 0.0
C765 C 0.87169 0.27263 0.81766 0.0
C766 C 0.86751 0.28577 0.80607 0.0
C767 C 0.85068 0.28313 0.79498 0.0
C768 C 0.88916 0.27541 0.82991 0.0
C769 C 0.90588 0.27772 0.8217 0.0
C770 C 0.88925 0.27421 0.84946 0.0
C771 C 0.87208 0.27271 0.85905 0.0
C772 C 0.86033 0.28526 0.85683 0.0
C773 C 0.84412 0.2837 0.86578 0.0
C774 C 0.83955 0.2697 0.87709 0.0
C775 C 0.85121 0.25725 0.8795 0.0
C776 C 0.86743 0.25874 0.87057 0.0
C777 C 0.96986 0.29388 0.87746 0.0
C778 C 0.9716 0.28047 0.88968 0.0
C779 C 0.95415 0.29251 0.86495 0.0
C780 C 0.93995 0.27766 0.86431 0.0
C781 C 0.94183 0.26407 0.87619 0.0
C782 C 0.95751 0.26543 0.88872 0.0
C783 C 0.92272 0.27668 0.85197 0.0
C784 C 0.90601 0.27476 0.86019 0.0
C785 C 0.92268 0.27821 0.83246 0.0
C786 C 0.93978 0.27947 0.82282 0.0
C787 C 0.95104 0.26644 0.82453 0.0
C788 C 0.96717 0.26774 0.81545 0.0
C789 C 0.97213 0.28196 0.80452 0.0
C790 C 0.96093 0.29488 0.8026 0.0
C791 C 0.94479 0.29364 0.81166 0.0
H792 H 0.98462 0.28295 0.7975 0.0
H793 H 0.82699 0.26851 0.88401 0.0
H794 H 0.43754 0.88277 0.6066 0.0
H795 H 0.45325 0.86518 0.58559 0.0
H796 H 0.46482 0.91001 0.55218 0.0
H797 H 0.44887 0.92759 0.57292 0.0
H798 H 0.4517 0.88022 0.53057 0.0
H799 H 0.49871 0.89765 0.58133 0.0
H800 H 0.5119 0.90114 0.6142 0.0
H801 H 0.50088 0.84423 0.61672 0.0
H802 H 0.48738 0.8404 0.58392 0.0
H803 H 0.51352 0.84487 0.47498 0.0
H804 H 0.50292 0.864 0.49893 0.0
H805 H 0.48427 0.81796 0.52858 0.0
H806 H 0.49469 0.79865 0.50462 0.0
H807 H 0.50197 0.84874 0.55219 0.0
H808 H 0.4538 0.83153 0.50209 0.0
H809 H 0.44069 0.82787 0.46917 0.0
H810 H 0.45409 0.88455 0.46559 0.0
H811 H 0.46754 0.88851 0.49843 0.0
C812 C 0.44352 0.88893 0.59484 0.0
C813 C 0.44193 0.90658 0.59142 0.0
C814 C 0.45257 0.87888 0.5829 0.0
C815 C 0.46037 0.88634 0.56741 0.0
C816 C 0.45892 0.90399 0.56405 0.0
C817 C 0.44982 0.91403 0.57594 0.0
C818 C 0.46942 0.87552 0.5543 0.0
C819 C 0.4629 0.87359 0.53528 0.0
C820 C 0.48373 0.8665 0.5605 0.0
C821 C 0.49187 0.86875 0.58021 0.0
C822 C 0.49896 0.88588 0.58893 0.0
C823 C 0.50652 0.88792 0.60755 0.0
C824 C 0.50719 0.87292 0.61756 0.0
C825 C 0.50033 0.85584 0.60896 0.0
C826 C 0.49275 0.85372 0.59035 0.0
C827 C 0.50743 0.83882 0.48674 0.0
C828 C 0.50481 0.82022 0.48782 0.0
C829 C 0.50134 0.84978 0.50037 0.0
C830 C 0.49266 0.84234 0.51537 0.0
C831 C 0.49092 0.82392 0.51706 0.0
C832 C 0.49683 0.81292 0.50333 0.0
C833 C 0.48429 0.85359 0.52858 0.0
C834 C 0.49087 0.85551 0.54755 0.0
C835 C 0.47003 0.86262 0.52237 0.0
C836 C 0.46186 0.86029 0.50265 0.0
C837 C 0.4541 0.8432 0.49423 0.0
C838 C 0.44658 0.84107 0.4756 0.0
C839 C 0.44661 0.85596 0.46528 0.0
C840 C 0.45411 0.87302 0.47359 0.0
C841 C 0.46167 0.87522 0.49222 0.0
H842 H 0.44077 0.85429 0.45086 0.0
H843 H 0.51304 0.87452 0.63197 0.0
H844 H 0.18319 0.28611 0.80615 0.0
H845 H 0.15998 0.28142 0.82864 0.0
H846 H 0.15378 0.33665 0.82797 0.0
H847 H 0.177 0.34149 0.8058 0.0
H848 H 0.15664 0.32704 0.86305 0.0
H849 H 0.12198 0.30305 0.80444 0.0
H850 H 0.11507 0.28323 0.7753 0.0
H851 H 0.11056 0.23723 0.80711 0.0
H852 H 0.11769 0.2568 0.83645 0.0
H853 H 0.0705 0.33154 0.89607 0.0
H854 H 0.09711 0.33145 0.87817 0.0
H855 H 0.09646 0.27598 0.88723 0.0
H856 H 0.06964 0.27591 0.90517 0.0
H857 H 0.09901 0.28245 0.85049 0.0
H858 H 0.13015 0.30695 0.9094 0.0
H859 H 0.1364 0.32711 0.93831 0.0
H860 H 0.14722 0.37242 0.9059 0.0
H861 H 0.14078 0.35256 0.87677 0.0
C862 C 0.17682 0.29722 0.81075 0.0
C863 C 0.18195 0.31418 0.80419 0.0
C864 C 0.16354 0.29451 0.82357 0.0
C865 C 0.1551 0.30868 0.82994 0.0
C866 C 0.16016 0.32555 0.82332 0.0
C867 C 0.17341 0.32827 0.81057 0.0
C868 C 0.14109 0.30615 0.84361 0.0
C869 C 0.14398 0.31737 0.86025 0.0
C870 C 0.12484 0.29314 0.84023 0.0
C871 C 0.12059 0.28138 0.82261 0.0
C872 C 0.11968 0.28871 0.80521 0.0
C873 C 0.11569 0.27752 0.78866 0.0
C874 C 0.11244 0.25898 0.78935 0.0
C875 C 0.11312 0.25159 0.8066 0.0
C876 C 0.11713 0.26272 0.82319 0.0
C877 C 0.07611 0.31935 0.89445 0.0
C878 C 0.06796 0.30373 0.90204 0.0
C879 C 0.09138 0.31935 0.88426 0.0
C880 C 0.09885 0.30374 0.88149 0.0
C881 C 0.09092 0.28816 0.88925 0.0
C882 C 0.07565 0.28818 0.89955 0.0
C883 C 0.11438 0.30365 0.8697 0.0
C884 C 0.11179 0.29194 0.85343 0.0
C885 C 0.13089 0.31624 0.87339 0.0
C886 C 0.13485 0.32826 0.89089 0.0
C887 C 0.13373 0.32123 0.90843 0.0
C888 C 0.13733 0.3326 0.92486 0.0
C889 C 0.14217 0.35104 0.92394 0.0
C890 C 0.14346 0.35814 0.90659 0.0
C891 C 0.13986 0.34682 0.89011 0.0
H892 H 0.14495 0.35982 0.93668 0.0
H893 H 0.10935 0.25034 0.77652 0.0
H894 H 0.60426 0.66252 0.57323 0.0
H895 H 0.59953 0.68189 0.54816 0.0
H896 H 0.55239 0.64347 0.52408 0.0
H897 H 0.5577 0.62369 0.54844 0.0
H898 H 0.56755 0.65851 0.49724 0.0
H899 H 0.54947 0.68067 0.55599 0.0
H900 H 0.55381 0.6913 0.58945 0.0
H901 H 0.59604 0.73434 0.57827 0.0
H902 H 0.59209 0.72382 0.54475 0.0
H903 H 0.50599 0.71629 0.46614 0.0
H904 H 0.52218 0.6952 0.48196 0.0
H905 H 0.57322 0.73252 0.48411 0.0
H906 H 0.55722 0.75353 0.4678 0.0
H907 H 0.56063 0.7197 0.52 0.0
H908 H 0.57295 0.69851 0.45885 0.0
H909 H 0.56488 0.68742 0.42575 0.0
H910 H 0.52887 0.64186 0.44207 0.0
H911 H 0.5365 0.65281 0.47529 0.0
C912 C 0.59314 0.65807 0.56235 0.0
C913 C 0.58123 0.64169 0.56291 0.0
C914 C 0.59037 0.66919 0.54808 0.0
C915 C 0.57526 0.66441 0.53451 0.0
C916 C 0.56409 0.64754 0.53441 0.0
C917 C 0.56712 0.63623 0.54839 0.0
C918 C 0.5701 0.67742 0.52139 0.0
C919 C 0.566 0.67187 0.50226 0.0
C920 C 0.56825 0.69499 0.5278 0.0
C921 C 0.57065 0.70133 0.54793 0.0
C922 C 0.55977 0.69232 0.5607 0.0
C923 C 0.56215 0.69834 0.57967 0.0
C924 C 0.57524 0.71345 0.586 0.0
C925 C 0.58594 0.72261 0.57336 0.0
C926 C 0.58364 0.71663 0.55438 0.0
C927 C 0.52072 0.71986 0.46965 0.0
C928 C 0.53034 0.73656 0.4658 0.0
C929 C 0.52995 0.70778 0.47862 0.0
C930 C 0.54886 0.71233 0.48414 0.0
C931 C 0.55862 0.72878 0.47985 0.0
C932 C 0.54948 0.74072 0.47051 0.0
C933 C 0.55789 0.70066 0.49605 0.0
C934 C 0.56258 0.70647 0.51497 0.0
C935 C 0.55978 0.68323 0.48953 0.0
C936 C 0.55519 0.67657 0.46957 0.0
C937 C 0.56318 0.68621 0.45539 0.0
C938 C 0.55871 0.67993 0.4366 0.0
C939 C 0.54635 0.66396 0.43181 0.0
C940 C 0.53845 0.65423 0.4458 0.0
C941 C 0.54285 0.66046 0.46462 0.0
H942 H 0.54291 0.65912 0.41726 0.0
H943 H 0.57705 0.71809 0.60069 0.0
H944 H 0.81104 0.82 0.74782 0.0
H945 H 0.83509 0.81529 0.72759 0.0
H946 H 0.87505 0.82293 0.77583 0.0
H947 H 0.85124 0.8286 0.79592 0.0
H948 H 0.89028 0.83842 0.74971 0.0
H949 H 0.85494 0.78012 0.7527 0.0
H950 H 0.82707 0.75687 0.75012 0.0
H951 H 0.81784 0.76368 0.69157 0.0
H952 H 0.84554 0.78715 0.69386 0.0
H953 H 0.95583 0.79142 0.70898 0.0
H954 H 0.93113 0.79818 0.72753 0.0
H955 H 0.90136 0.81129 0.6779 0.0
H956 H 0.92623 0.80502 0.65928 0.0
H957 H 0.88107 0.78561 0.70353 0.0
H958 H 0.9187 0.84411 0.70229 0.0
H959 H 0.94806 0.86541 0.70654 0.0
H960 H 0.95449 0.8554 0.76451 0.0
H961 H 0.92528 0.83381 0.76052 0.0
C962 C 0.82498 0.82071 0.75408 0.0
C963 C 0.82927 0.82461 0.77345 0.0
C964 C 0.83871 0.8179 0.74252 0.0
C965 C 0.85688 0.81838 0.75019 0.0
C966 C 0.86117 0.82247 0.76954 0.0
C967 C 0.84754 0.82567 0.78103 0.0
C968 C 0.87145 0.81472 0.73811 0.0
C969 C 0.88826 0.82675 0.73978 0.0
C970 C 0.86887 0.79962 0.72492 0.0
C971 C 0.8522 0.78552 0.7235 0.0
C972 C 0.84688 0.77676 0.73931 0.0
C973 C 0.83113 0.76352 0.73789 0.0
C974 C 0.82066 0.75884 0.7207 0.0
C975 C 0.82594 0.76734 0.70488 0.0
C976 C 0.84168 0.7806 0.70623 0.0
C977 C 0.94403 0.79574 0.70202 0.0
C978 C 0.94296 0.79772 0.68269 0.0
C979 C 0.92998 0.79962 0.71263 0.0
C980 C 0.91451 0.80523 0.70403 0.0
C981 C 0.91324 0.80697 0.68472 0.0
C982 C 0.92746 0.80346 0.67416 0.0
C983 C 0.89966 0.80925 0.71529 0.0
C984 C 0.8829 0.79728 0.71345 0.0
C985 C 0.90242 0.82415 0.7286 0.0
C986 C 0.91991 0.83721 0.73105 0.0
C987 C 0.92646 0.84632 0.71589 0.0
C988 C 0.94306 0.85847 0.71827 0.0
C989 C 0.95316 0.86172 0.73578 0.0
C990 C 0.94666 0.85285 0.75095 0.0
C991 C 0.93008 0.84067 0.74865 0.0
H992 H 0.966 0.87114 0.73759 0.0
H993 H 0.80847 0.74858 0.71964 0.0
H994 H 0.07401 0.90146 0.4995 0.0
H995 H 0.05773 0.89114 0.52604 0.0
H996 H 0.10786 0.87849 0.55229 0.0
H997 H 0.12423 0.88857 0.52564 0.0
H998 H 0.07962 0.85161 0.55306 0.0
H999 H 0.0906 0.91456 0.56906 0.0
H1000 H 0.09068 0.94622 0.56388 0.0
H1001 H 0.03172 0.93569 0.55407 0.0
H1002 H 0.03129 0.9039 0.55893 0.0
H1003 H 0.03693 0.82825 0.63433 0.0
H1004 H 0.05828 0.84598 0.61561 0.0
H1005 H 0.01239 0.85927 0.58199 0.0
H1006 H 0.991 0.84174 0.60068 0.0
H1007 H 0.04141 0.88749 0.58799 0.0
H1008 H 0.03086 0.82441 0.56809 0.0
H1009 H 0.03025 0.79258 0.57288 0.0
H1010 H 0.08834 0.80346 0.58949 0.0
H1011 H 0.08921 0.83544 0.58511 0.0
C1012 C 0.08161 0.89657 0.51096 0.0
C1013 C 0.10041 0.89582 0.51045 0.0
C1014 C 0.07231 0.89078 0.52618 0.0
C1015 C 0.08163 0.88425 0.54126 0.0
C1016 C 0.10042 0.88354 0.54083 0.0
C1017 C 0.10974 0.88932 0.5256 0.0
C1018 C 0.07152 0.87736 0.557 0.0
C1019 C 0.07159 0.85959 0.56096 0.0
C1020 C 0.06075 0.88766 0.56706 0.0
C1021 C 0.06093 0.9068 0.56423 0.0
C1022 C 0.07766 0.91896 0.56566 0.0
C1023 C 0.07777 0.93694 0.56281 0.0
C1024 C 0.06122 0.94296 0.55861 0.0
C1025 C 0.04453 0.93101 0.55731 0.0
C1026 C 0.04434 0.91301 0.56014 0.0
C1027 C 0.03139 0.83527 0.62322 0.0
C1028 C 0.01228 0.83342 0.61883 0.0
C1029 C 0.04361 0.84534 0.6125 0.0
C1030 C 0.03689 0.85368 0.59724 0.0
C1031 C 0.01785 0.8529 0.59368 0.0
C1032 C 0.00565 0.84281 0.60434 0.0
C1033 C 0.04944 0.86175 0.58386 0.0
C1034 C 0.04974 0.87967 0.58029 0.0
C1035 C 0.06052 0.85159 0.57409 0.0
C1036 C 0.06006 0.83234 0.5765 0.0
C1037 C 0.04347 0.82004 0.5729 0.0
C1038 C 0.04308 0.80197 0.57553 0.0
C1039 C 0.05924 0.79601 0.58154 0.0
C1040 C 0.07583 0.8081 0.58487 0.0
C1041 C 0.07628 0.8262 0.58233 0.0
H1042 H 0.05891 0.78202 0.58357 0.0
H1043 H 0.06134 0.95689 0.5564 0.0
H1044 H 0.15339 0.77551 0.80422 0.0
H1045 H 0.12547 0.7741 0.78326 0.0
H1046 H 0.15139 0.8198 0.75688 0.0
H1047 H 0.1794 0.82143 0.77793 0.0
H1048 H 0.11546 0.82151 0.76266 0.0
H1049 H 0.14885 0.77919 0.73569 0.0
H1050 H 0.1656 0.75386 0.73533 0.0
H1051 H 0.11734 0.71914 0.74908 0.0
H1052 H 0.10036 0.74434 0.74979 0.0
H1053 H 0.04867 0.80736 0.68298 0.0
H1054 H 0.07762 0.81183 0.70314 0.0
H1055 H 0.05723 0.76528 0.73137 0.0
H1056 H 0.02848 0.76057 0.71117 0.0
H1057 H 0.09167 0.76512 0.7232 0.0
H1058 H 0.05863 0.80777 0.75131 0.0
H1059 H 0.04196 0.83317 0.75175 0.0
H1060 H 0.08955 0.86729 0.7357 0.0
H1061 H 0.10644 0.84202 0.73492 0.0
C1062 C 0.15314 0.78535 0.79406 0.0
C1063 C 0.16868 0.7985 0.79265 0.0
C1064 C 0.13719 0.78448 0.78204 0.0
C1065 C 0.13647 0.79668 0.76834 0.0
C1066 C 0.1517 0.81022 0.76732 0.0
C1067 C 0.1677 0.81109 0.77933 0.0
C1068 C 0.11998 0.79494 0.75478 0.0
C1069 C 0.11038 0.80928 0.75382 0.0
C1070 C 0.11325 0.7789 0.74345 0.0
C1071 C 0.12339 0.7637 0.74296 0.0
C1072 C 0.14185 0.76619 0.73878 0.0
C1073 C 0.15138 0.75185 0.73849 0.0
C1074 C 0.14255 0.73491 0.74223 0.0
C1075 C 0.12416 0.73227 0.74621 0.0
C1076 C 0.11458 0.74658 0.74654 0.0
C1077 C 0.05037 0.79808 0.69349 0.0
C1078 C 0.03628 0.78362 0.69549 0.0
C1079 C 0.06688 0.8007 0.70505 0.0
C1080 C 0.06952 0.78898 0.71888 0.0
C1081 C 0.0555 0.77449 0.72079 0.0
C1082 C 0.03905 0.77184 0.70924 0.0
C1083 C 0.08692 0.79157 0.73129 0.0
C1084 C 0.09675 0.77739 0.73198 0.0
C1085 C 0.09384 0.80775 0.74234 0.0
C1086 C 0.08372 0.82296 0.74285 0.0
C1087 C 0.06549 0.82066 0.74772 0.0
C1088 C 0.05601 0.83503 0.74806 0.0
C1089 C 0.06467 0.85182 0.7437 0.0
C1090 C 0.08285 0.85427 0.73904 0.0
C1091 C 0.09239 0.83993 0.73866 0.0
H1092 H 0.05731 0.86293 0.74398 0.0
H1093 H 0.14995 0.72382 0.74199 0.0
H1094 H 0.96916 0.62062 0.50497 0.0
H1095 H 0.97651 0.64132 0.53313 0.0
H1096 H 0.96622 0.68481 0.50071 0.0
H1097 H 0.95925 0.66437 0.47254 0.0
H1098 H 0.99545 0.69534 0.52516 0.0
H1099 H 0.93349 0.66311 0.52678 0.0
H1100 H 0.9097 0.63617 0.52674 0.0
H1101 H 0.93745 0.62146 0.57649 0.0
H1102 H 0.96154 0.64822 0.57667 0.0
H1103 H 0.97113 0.7592 0.58869 0.0
H1104 H 0.97056 0.73557 0.56399 0.0
H1105 H 0.98621 0.70075 0.6049 0.0
H1106 H 0.9868 0.72441 0.62989 0.0
H1107 H 0.95791 0.68398 0.57867 0.0
H1108 H 0.01777 0.71938 0.57884 0.0
H1109 H 0.04057 0.74697 0.57841 0.0
H1110 H 0.01588 0.75648 0.52483 0.0
H1111 H 0.99273 0.72911 0.52506 0.0
C1112 C 0.96866 0.63463 0.50381 0.0
C1113 C 0.96347 0.64082 0.48653 0.0
C1114 C 0.97278 0.64642 0.51993 0.0
C1115 C 0.97164 0.66457 0.51908 0.0
C1116 C 0.96717 0.67087 0.50172 0.0
C1117 C 0.96312 0.65913 0.48562 0.0
C1118 C 0.97435 0.67699 0.53625 0.0
C1119 C 0.98719 0.6929 0.53682 0.0
C1120 C 0.96389 0.6736 0.55169 0.0
C1121 C 0.94942 0.65753 0.5516 0.0
C1122 C 0.93459 0.65405 0.53762 0.0
C1123 C 0.92104 0.63883 0.53759 0.0
C1124 C 0.9221 0.62708 0.55157 0.0
C1125 C 0.93667 0.63055 0.56565 0.0
C1126 C 0.95027 0.64574 0.56572 0.0
C1127 C 0.97438 0.74651 0.59252 0.0
C1128 C 0.97907 0.74373 0.6113 0.0
C1129 C 0.97415 0.73305 0.57834 0.0
C1130 C 0.97863 0.71653 0.5826 0.0
C1131 C 0.98284 0.71347 0.60134 0.0
C1132 C 0.98316 0.727 0.61558 0.0
C1133 C 0.97869 0.70249 0.56734 0.0
C1134 C 0.96639 0.68629 0.56715 0.0
C1135 C 0.98954 0.70569 0.55217 0.0
C1136 C 0.00342 0.72222 0.55203 0.0
C1137 C 0.01709 0.72743 0.56703 0.0
C1138 C 0.0301 0.74302 0.56682 0.0
C1139 C 0.02967 0.75347 0.55161 0.0
C1140 C 0.0162 0.74837 0.5366 0.0
C1141 C 0.00314 0.7328 0.53676 0.0
H1142 H 0.0398 0.76548 0.55141 0.0
H1143 H 0.91159 0.6153 0.55153 0.0
H1144 H 0.73497 0.89189 0.26306 0.0
H1145 H 0.75576 0.92022 0.26278 0.0
H1146 H 0.78346 0.89762 0.21896 0.0
H1147 H 0.76282 0.86891 0.21942 0.0
H1148 H 0.80755 0.91418 0.24599 0.0
H1149 H 0.75681 0.92995 0.21051 0.0
H1150 H 0.72454 0.93287 0.20238 0.0
H1151 H 0.72573 0.96714 0.25248 0.0
H1152 H 0.75795 0.96423 0.26106 0.0
H1153 H 0.86545 0.99812 0.24391 0.0
H1154 H 0.84144 0.97257 0.23292 0.0
H1155 H 0.81078 0.98387 0.27946 0.0
H1156 H 0.83469 0.00951 0.29058 0.0
H1157 H 0.78837 0.97348 0.24586 0.0
H1158 H 0.83769 0.9537 0.2828 0.0
H1159 H 0.87 0.9507 0.29069 0.0
H1160 H 0.87112 0.92376 0.23654 0.0
H1161 H 0.83886 0.92683 0.22825 0.0
C1162 C 0.74533 0.89293 0.25318 0.0
C1163 C 0.74727 0.87807 0.24131 0.0
C1164 C 0.75714 0.90924 0.25294 0.0
C1165 C 0.77105 0.91115 0.24069 0.0
C1166 C 0.77278 0.89647 0.22849 0.0
C1167 C 0.76096 0.88008 0.22875 0.0
C1168 C 0.78464 0.92802 0.24188 0.0
C1169 C 0.80336 0.92712 0.24549 0.0
C1170 C 0.77918 0.94495 0.24158 0.0
C1171 C 0.75979 0.94677 0.23649 0.0
C1172 C 0.75016 0.938 0.21987 0.0
C1173 C 0.73188 0.93967 0.21517 0.0
C1174 C 0.72308 0.95016 0.22692 0.0
C1175 C 0.73256 0.95902 0.24339 0.0
C1176 C 0.75085 0.95739 0.24816 0.0
C1177 C 0.8535 0.99533 0.25171 0.0
C1178 C 0.85209 0.00576 0.26826 0.0
C1179 C 0.8398 0.98071 0.24539 0.0
C1180 C 0.82446 0.97623 0.25549 0.0
C1181 C 0.82254 0.98711 0.27148 0.0
C1182 C 0.83626 0.00171 0.27786 0.0
C1183 C 0.81108 0.95951 0.25024 0.0
C1184 C 0.79248 0.96048 0.24595 0.0
C1185 C 0.81662 0.94262 0.24981 0.0
C1186 C 0.83596 0.94068 0.25483 0.0
C1187 C 0.84488 0.94726 0.27253 0.0
C1188 C 0.86317 0.94553 0.27708 0.0
C1189 C 0.87263 0.93709 0.2641 0.0
C1190 C 0.86379 0.93032 0.24656 0.0
C1191 C 0.8455 0.93205 0.24193 0.0
H1192 H 0.88679 0.93576 0.26765 0.0
H1193 H 0.70892 0.95144 0.22325 0.0
H1194 H 0.78223 0.19601 0.34029 0.0
H1195 H 0.80021 0.17192 0.33862 0.0
H1196 H 0.84423 0.20714 0.31712 0.0
H1197 H 0.82643 0.23143 0.31899 0.0
H1198 H 0.83283 0.17328 0.29602 0.0
H1199 H 0.85142 0.1972 0.35938 0.0
H1200 H 0.84643 0.20768 0.39142 0.0
H1201 H 0.81652 0.15574 0.39952 0.0
H1202 H 0.82111 0.14502 0.36742 0.0
H1203 H 0.89102 0.10798 0.29697 0.0
H1204 H 0.87948 0.13607 0.30161 0.0
H1205 H 0.83869 0.11061 0.33551 0.0
H1206 H 0.85068 0.08286 0.33161 0.0
H1207 H 0.8514 0.14199 0.35078 0.0
H1208 H 0.82914 0.11851 0.28777 0.0
H1209 H 0.83173 0.10721 0.25534 0.0
H1210 H 0.86557 0.15689 0.24602 0.0
H1211 H 0.86336 0.16841 0.27849 0.0
C1212 C 0.7958 0.19868 0.33535 0.0
C1213 C 0.80292 0.21562 0.32977 0.0
C1214 C 0.80606 0.18492 0.33445 0.0
C1215 C 0.82355 0.1878 0.32781 0.0
C1216 C 0.83076 0.2047 0.32232 0.0
C1217 C 0.8206 0.21855 0.32346 0.0
C1218 C 0.83395 0.17289 0.32597 0.0
C1219 C 0.83722 0.1666 0.308 0.0
C1220 C 0.83919 0.16397 0.34158 0.0
C1221 C 0.83649 0.17035 0.36093 0.0
C1222 C 0.84365 0.18805 0.36794 0.0
C1223 C 0.84092 0.19403 0.38613 0.0
C1224 C 0.83113 0.18239 0.39749 0.0
C1225 C 0.82409 0.16474 0.3907 0.0
C1226 C 0.82678 0.15871 0.37252 0.0
C1227 C 0.87965 0.10843 0.30548 0.0
C1228 C 0.87173 0.0932 0.31388 0.0
C1229 C 0.87299 0.12447 0.30805 0.0
C1230 C 0.85799 0.12543 0.31868 0.0
C1231 C 0.85028 0.11026 0.32728 0.0
C1232 C 0.85713 0.09436 0.32499 0.0
C1233 C 0.85006 0.14206 0.32073 0.0
C1234 C 0.84722 0.14871 0.33876 0.0
C1235 C 0.84492 0.15114 0.30513 0.0
C1236 C 0.84627 0.14424 0.28562 0.0
C1237 C 0.83725 0.12697 0.27885 0.0
C1238 C 0.83863 0.12054 0.26045 0.0
C1239 C 0.84886 0.13131 0.24864 0.0
C1240 C 0.85769 0.14855 0.25519 0.0
C1241 C 0.85637 0.15505 0.27359 0.0
H1242 H 0.84991 0.1263 0.23441 0.0
H1243 H 0.82903 0.18704 0.41157 0.0
H1244 H 0.37535 0.06513 0.96928 0.0
H1245 H 0.35852 0.04561 0.99027 0.0
H1246 H 0.31153 0.0342 0.94916 0.0
H1247 H 0.32828 0.05343 0.92801 0.0
H1248 H 0.30329 0.04253 0.98698 0.0
H1249 H 0.33783 0.00492 0.95168 0.0
H1250 H 0.36636 0.99699 0.94071 0.0
H1251 H 0.38836 0.99563 0.99755 0.0
H1252 H 0.36003 0.00381 0.00886 0.0
H1253 H 0.24658 0.96396 0.00465 0.0
H1254 H 0.26683 0.98823 0.99259 0.0
H1255 H 0.31071 0.98233 0.03365 0.0
H1256 H 0.29053 0.95743 0.04551 0.0
H1257 H 0.32351 0.98564 0.00114 0.0
H1258 H 0.28803 0.01884 0.03691 0.0
H1259 H 0.26014 0.02722 0.04894 0.0
H1260 H 0.2409 0.03823 0.99378 0.0
H1261 H 0.26855 0.02967 0.98135 0.0
C1262 C 0.36139 0.05853 0.96476 0.0
C1263 C 0.35314 0.06075 0.94698 0.0
C1264 C 0.35184 0.04739 0.97675 0.0
C1265 C 0.33384 0.03849 0.97121 0.0
C1266 C 0.32542 0.04102 0.95367 0.0
C1267 C 0.33503 0.05193 0.94158 0.0
C1268 C 0.32383 0.02605 0.98335 0.0
C1269 C 0.30761 0.03004 0.99005 0.0
C1270 C 0.32995 0.01015 0.98792 0.0
C1271 C 0.34693 0.00519 0.98111 0.0
C1272 C 0.34883 0.0031 0.96184 0.0
C1273 C 0.36494 0.99852 0.95556 0.0
C1274 C 0.37919 0.99587 0.96843 0.0
C1275 C 0.37733 0.99773 0.9876 0.0
C1276 C 0.36125 0.00233 0.99395 0.0
C1277 C 0.26048 0.96788 0.01128 0.0
C1278 C 0.26692 0.95876 0.02609 0.0
C1279 C 0.27204 0.98188 0.00442 0.0
C1280 C 0.29021 0.98737 0.01244 0.0
C1281 C 0.2967 0.97839 0.02732 0.0
C1282 C 0.28516 0.96419 0.03409 0.0
C1283 C 0.30254 0.00181 0.00442 0.0
C1284 C 0.31926 0.99825 0.99847 0.0
C1285 C 0.297 0.01825 0.00077 0.0
C1286 C 0.28034 0.02351 0.00818 0.0
C1287 C 0.2778 0.02293 0.02731 0.0
C1288 C 0.26204 0.02773 0.03421 0.0
C1289 C 0.24875 0.03323 0.02213 0.0
C1290 C 0.25121 0.03397 0.00313 0.0
C1291 C 0.26695 0.02918 0.99615 0.0
H1292 H 0.23655 0.03693 0.0275 0.0
H1293 H 0.39165 0.99232 0.96354 0.0
H1294 H 0.20608 0.35901 0.28675 0.0
H1295 H 0.18587 0.3812 0.28343 0.0
H1296 H 0.20151 0.40134 0.34095 0.0
H1297 H 0.22148 0.37922 0.34444 0.0
H1298 H 0.16476 0.39602 0.33301 0.0
H1299 H 0.21862 0.42378 0.30479 0.0
H1300 H 0.24207 0.42525 0.28216 0.0
H1301 H 0.19969 0.41874 0.23663 0.0
H1302 H 0.17596 0.41701 0.259 0.0
H1303 H 0.14291 0.48169 0.34333 0.0
H1304 H 0.15767 0.45552 0.34062 0.0
H1305 H 0.13483 0.44415 0.28317 0.0
H1306 H 0.12006 0.47059 0.28571 0.0
H1307 H 0.17133 0.44204 0.28723 0.0
H1308 H 0.11772 0.41799 0.3157 0.0
H1309 H 0.09435 0.41682 0.33838 0.0
H1310 H 0.13595 0.41616 0.38333 0.0
H1311 H 0.15963 0.41759 0.36096 0.0
C1312 C 0.20529 0.36825 0.29864 0.0
C1313 C 0.21537 0.36733 0.31587 0.0
C1314 C 0.19376 0.38092 0.29671 0.0
C1315 C 0.19221 0.39293 0.31194 0.0
C1316 C 0.20243 0.39214 0.32904 0.0
C1317 C 0.2139 0.37952 0.33098 0.0
C1318 C 0.17974 0.40618 0.3104 0.0
C1319 C 0.16627 0.40616 0.32308 0.0
C1320 C 0.18126 0.41899 0.29699 0.0
C1321 C 0.19551 0.42004 0.28355 0.0
C1322 C 0.2143 0.42251 0.28995 0.0
C1323 C 0.22764 0.42342 0.27717 0.0
C1324 C 0.22237 0.42203 0.25797 0.0
C1325 C 0.20375 0.41978 0.25151 0.0
C1326 C 0.19035 0.41884 0.26423 0.0
C1327 C 0.14088 0.47358 0.33014 0.0
C1328 C 0.13028 0.47821 0.31474 0.0
C1329 C 0.14928 0.45856 0.32864 0.0
C1330 C 0.14719 0.44777 0.31176 0.0
C1331 C 0.13656 0.45228 0.29634 0.0
C1332 C 0.12808 0.46733 0.29784 0.0
C1333 C 0.15675 0.43221 0.31024 0.0
C1334 C 0.16962 0.43175 0.29697 0.0
C1335 C 0.15469 0.41892 0.32312 0.0
C1336 C 0.14048 0.41801 0.33665 0.0
C1337 C 0.12192 0.41773 0.33044 0.0
C1338 C 0.10861 0.417 0.34324 0.0
C1339 C 0.11367 0.41645 0.36229 0.0
C1340 C 0.13205 0.41659 0.36857 0.0
C1341 C 0.14541 0.41734 0.35583 0.0
H1342 H 0.10334 0.41588 0.37218 0.0
H1343 H 0.23272 0.42275 0.2481 0.0
H1344 H 0.11604 0.98352 0.47868 0.0
H1345 H 0.13063 0.01495 0.48413 0.0
H1346 H 0.18053 0.002 0.46401 0.0
H1347 H 0.16595 0.97061 0.45839 0.0
H1348 H 0.18721 0.02168 0.49688 0.0
H1349 H 0.15223 0.02418 0.43788 0.0
H1350 H 0.12383 0.0194 0.41643 0.0
H1351 H 0.09998 0.05384 0.4533 0.0
H1352 H 0.12815 0.05862 0.47512 0.0
H1353 H 0.23872 0.10626 0.48927 0.0
H1354 H 0.22037 0.0766 0.48149 0.0
H1355 H 0.17332 0.09452 0.50305 0.0
H1356 H 0.19158 0.12447 0.51074 0.0
H1357 H 0.1636 0.07287 0.47061 0.0
H1358 H 0.19721 0.07025 0.52957 0.0
H1359 H 0.22425 0.07398 0.55271 0.0
H1360 H 0.24954 0.03951 0.5173 0.0
H1361 H 0.22262 0.0356 0.49389 0.0
C1362 C 0.12991 0.98746 0.47487 0.0
C1363 C 0.13972 0.97468 0.46772 0.0
C1364 C 0.13829 0.00541 0.47814 0.0
C1365 C 0.1566 0.01085 0.47428 0.0
C1366 C 0.16637 0.9981 0.46705 0.0
C1367 C 0.15803 0.98019 0.46384 0.0
C1368 C 0.16602 0.02962 0.47871 0.0
C1369 C 0.18218 0.03284 0.49091 0.0
C1370 C 0.15906 0.04423 0.47149 0.0
C1371 C 0.14224 0.04161 0.45822 0.0
C1372 C 0.14089 0.03064 0.44148 0.0
C1373 C 0.12484 0.02794 0.42924 0.0
C1374 C 0.11009 0.03627 0.43353 0.0
C1375 C 0.1114 0.04738 0.45002 0.0
C1376 C 0.12741 0.0501 0.46231 0.0
C1377 C 0.22444 0.10399 0.49229 0.0
C1378 C 0.21667 0.11774 0.50077 0.0
C1379 C 0.21399 0.08698 0.48787 0.0
C1380 C 0.19557 0.08328 0.49196 0.0
C1381 C 0.18754 0.09709 0.49984 0.0
C1382 C 0.19801 0.11418 0.50427 0.0
C1383 C 0.185 0.06483 0.48844 0.0
C1384 C 0.16861 0.06169 0.47653 0.0
C1385 C 0.19163 0.05024 0.49604 0.0
C1386 C 0.20798 0.05277 0.50992 0.0
C1387 C 0.20861 0.06359 0.52665 0.0
C1388 C 0.22389 0.0657 0.53983 0.0
C1389 C 0.23864 0.05704 0.53646 0.0
C1390 C 0.23811 0.04622 0.51989 0.0
C1391 C 0.22283 0.04402 0.50668 0.0
H1392 H 0.25046 0.05865 0.5467 0.0
H1393 H 0.09766 0.03414 0.42406 0.0
H1394 H 0.72806 0.19674 0.75599 0.0
H1395 H 0.70479 0.1699 0.75711 0.0
H1396 H 0.7341 0.15699 0.80718 0.0
H1397 H 0.75743 0.18355 0.80606 0.0
H1398 H 0.72416 0.12818 0.78272 0.0
H1399 H 0.69503 0.17473 0.80918 0.0
H1400 H 0.68327 0.20314 0.80976 0.0
H1401 H 0.64663 0.18364 0.76068 0.0
H1402 H 0.65836 0.15519 0.75966 0.0
H1403 H 0.65668 0.06486 0.81784 0.0
H1404 H 0.67919 0.09124 0.81322 0.0
H1405 H 0.64669 0.09974 0.76324 0.0
H1406 H 0.62397 0.07348 0.76783 0.0
H1407 H 0.65781 0.13041 0.78532 0.0
H1408 H 0.68584 0.08314 0.75993 0.0
H1409 H 0.69742 0.05465 0.7597 0.0
H1410 H 0.73609 0.07542 0.80693 0.0
H1411 H 0.72456 0.10396 0.80761 0.0
C1412 C 0.72951 0.18821 0.76726 0.0
C1413 C 0.74458 0.19229 0.78094 0.0
C1414 C 0.71618 0.17291 0.76791 0.0
C1415 C 0.71767 0.16151 0.7823 0.0
C1416 C 0.73271 0.16558 0.79594 0.0
C1417 C 0.746 0.18081 0.7953 0.0
C1418 C 0.70373 0.1452 0.78316 0.0
C1419 C 0.70968 0.12868 0.78348 0.0
C1420 C 0.68478 0.14582 0.78363 0.0
C1421 C 0.67773 0.16292 0.78422 0.0
C1422 C 0.68458 0.17657 0.79841 0.0
C1423 C 0.6779 0.19266 0.79884 0.0
C1424 C 0.66425 0.19522 0.78523 0.0
C1425 C 0.65723 0.18166 0.77119 0.0
C1426 C 0.66388 0.16554 0.77068 0.0
C1427 C 0.65433 0.07228 0.80581 0.0
C1428 C 0.63852 0.06703 0.79319 0.0
C1429 C 0.66725 0.08732 0.80316 0.0
C1430 C 0.66469 0.09734 0.78779 0.0
C1431 C 0.64893 0.09217 0.77518 0.0
C1432 C 0.63599 0.07712 0.77781 0.0
C1433 C 0.67828 0.11343 0.78513 0.0
C1434 C 0.67228 0.12989 0.78444 0.0
C1435 C 0.69719 0.11277 0.78433 0.0
C1436 C 0.70422 0.09564 0.78392 0.0
C1437 C 0.69671 0.08159 0.77036 0.0
C1438 C 0.70329 0.06544 0.77014 0.0
C1439 C 0.71745 0.06321 0.78332 0.0
C1440 C 0.7251 0.07715 0.79674 0.0
C1441 C 0.71857 0.09333 0.79704 0.0
H1442 H 0.72252 0.0507 0.78312 0.0
H1443 H 0.65909 0.20768 0.7856 0.0
H1444 H 0.36335 0.03171 0.59531 0.0
H1445 H 0.35565 0.05944 0.58446 0.0
H1446 H 0.33218 0.06982 0.6362 0.0
H1447 H 0.33978 0.04199 0.64717 0.0
H1448 H 0.30924 0.07335 0.60591 0.0
H1449 H 0.37215 0.09502 0.62756 0.0
H1450 H 0.40555 0.09502 0.6308 0.0
H1451 H 0.40744 0.09893 0.57171 0.0
H1452 H 0.37399 0.09869 0.56806 0.0
H1453 H 0.28758 0.153 0.57385 0.0
H1454 H 0.30366 0.13533 0.59462 0.0
H1455 H 0.33114 0.11686 0.54839 0.0
H1456 H 0.31547 0.13468 0.52769 0.0
H1457 H 0.3533 0.1205 0.58078 0.0
H1458 H 0.29047 0.09454 0.55854 0.0
H1459 H 0.25716 0.09474 0.55444 0.0
H1460 H 0.25502 0.09761 0.61401 0.0
H1461 H 0.28852 0.09813 0.61849 0.0
C1462 C 0.35669 0.03995 0.60446 0.0
C1463 C 0.35214 0.03462 0.62209 0.0
C1464 C 0.3524 0.05586 0.59828 0.0
C1465 C 0.34351 0.06679 0.6096 0.0
C1466 C 0.33911 0.06161 0.62728 0.0
C1467 C 0.34348 0.04572 0.63353 0.0
C1468 C 0.33776 0.08297 0.60238 0.0
C1469 C 0.31893 0.08388 0.60083 0.0
C1470 C 0.35036 0.09651 0.5954 0.0
C1471 C 0.37052 0.09672 0.59753 0.0
C1472 C 0.37966 0.09575 0.61523 0.0
C1473 C 0.39861 0.09581 0.61715 0.0
C1474 C 0.40861 0.09694 0.60147 0.0
C1475 C 0.39968 0.09805 0.58384 0.0
C1476 C 0.38072 0.09798 0.58185 0.0
C1477 C 0.29742 0.14556 0.56822 0.0
C1478 C 0.30002 0.145 0.54906 0.0
C1479 C 0.30657 0.13543 0.5801 0.0
C1480 C 0.3183 0.12449 0.57295 0.0
C1481 C 0.32209 0.12514 0.55419 0.0
C1482 C 0.31303 0.13529 0.54235 0.0
C1483 C 0.3248 0.11072 0.58412 0.0
C1484 C 0.3437 0.11018 0.58629 0.0
C1485 C 0.31226 0.09741 0.59155 0.0
C1486 C 0.29204 0.09662 0.58886 0.0
C1487 C 0.28293 0.09536 0.57078 0.0
C1488 C 0.26401 0.09535 0.56838 0.0
C1489 C 0.25396 0.09616 0.58395 0.0
C1490 C 0.26283 0.09701 0.60196 0.0
C1491 C 0.2818 0.09723 0.60444 0.0
H1492 H 0.2393 0.09612 0.58207 0.0
H1493 H 0.42328 0.09699 0.60298 0.0
H1494 H 0.62369 0.56196 0.61844 0.0
H1495 H 0.63988 0.53682 0.61385 0.0
H1496 H 0.59867 0.51314 0.56931 0.0
H1497 H 0.58203 0.53786 0.57439 0.0
H1498 H 0.60721 0.48809 0.58897 0.0
H1499 H 0.64238 0.5371 0.56147 0.0
H1500 H 0.65994 0.56756 0.56071 0.0
H1501 H 0.69899 0.55765 0.60444 0.0
H1502 H 0.68152 0.52719 0.60562 0.0
H1503 H 0.65939 0.43717 0.53417 0.0
H1504 H 0.64104 0.45779 0.54757 0.0
H1505 H 0.67998 0.46933 0.59651 0.0
H1506 H 0.69832 0.44848 0.5833 0.0
H1507 H 0.6734 0.49968 0.57824 0.0
H1508 H 0.63897 0.44852 0.60208 0.0
H1509 H 0.62135 0.41787 0.60054 0.0
H1510 H 0.58075 0.43167 0.56078 0.0
H1511 H 0.59827 0.46236 0.56187 0.0
C1512 C 0.61807 0.55137 0.60769 0.0
C1513 C 0.60165 0.55195 0.59669 0.0
C1514 C 0.62738 0.53703 0.60503 0.0
C1515 C 0.62069 0.52318 0.59101 0.0
C1516 C 0.60413 0.52363 0.58021 0.0
C1517 C 0.59466 0.53782 0.58308 0.0
C1518 C 0.63104 0.50839 0.58731 0.0
C1519 C 0.62165 0.49065 0.58647 0.0
C1520 C 0.65001 0.51164 0.58446 0.0
C1521 C 0.66052 0.52995 0.58378 0.0
C1522 C 0.65463 0.54147 0.57102 0.0
C1523 C 0.66458 0.55872 0.5705 0.0
C1524 C 0.68054 0.56456 0.58256 0.0
C1525 C 0.68661 0.55313 0.59513 0.0
C1526 C 0.67669 0.53587 0.59573 0.0
C1527 C 0.66383 0.44377 0.54798 0.0
C1528 C 0.68032 0.44125 0.55767 0.0
C1529 C 0.65331 0.45553 0.55563 0.0
C1530 C 0.65917 0.46509 0.57302 0.0
C1531 C 0.67522 0.46204 0.58308 0.0
C1532 C 0.68562 0.45006 0.57556 0.0
C1533 C 0.6495 0.47949 0.57967 0.0
C1534 C 0.65903 0.49715 0.58099 0.0
C1535 C 0.63062 0.47616 0.58264 0.0
C1536 C 0.62003 0.45772 0.58195 0.0
C1537 C 0.62637 0.44499 0.59288 0.0
C1538 C 0.61638 0.42761 0.59211 0.0
C1539 C 0.59996 0.42281 0.58054 0.0
C1540 C 0.59348 0.4354 0.56973 0.0
C1541 C 0.60342 0.4528 0.57044 0.0
H1542 H 0.59224 0.40936 0.57996 0.0
H1543 H 0.68823 0.57792 0.58213 0.0
H1544 H 0.77104 0.28964 0.38868 0.0
H1545 H 0.76286 0.30471 0.41704 0.0
H1546 H 0.70647 0.29791 0.39349 0.0
H1547 H 0.71438 0.28219 0.3654 0.0
H1548 H 0.72098 0.33294 0.40853 0.0
H1549 H 0.71583 0.27333 0.42704 0.0
H1550 H 0.72596 0.2446 0.43155 0.0
H1551 H 0.77208 0.27145 0.46873 0.0
H1552 H 0.76238 0.3004 0.46422 0.0
H1553 H 0.69559 0.37176 0.49253 0.0
H1554 H 0.69542 0.34941 0.46642 0.0
H1555 H 0.75113 0.34454 0.48483 0.0
H1556 H 0.75123 0.36636 0.51115 0.0
H1557 H 0.7326 0.31303 0.47198 0.0
H1558 H 0.74103 0.37231 0.4504 0.0
H1559 H 0.73267 0.40175 0.4455 0.0
H1560 H 0.68237 0.37628 0.41376 0.0
H1561 H 0.69034 0.34667 0.41868 0.0
C1562 C 0.75686 0.29125 0.38954 0.0
C1563 C 0.74346 0.28512 0.37448 0.0
C1564 C 0.75221 0.29985 0.40578 0.0
C1565 C 0.73406 0.30244 0.40734 0.0
C1566 C 0.7206 0.29618 0.39247 0.0
C1567 C 0.72521 0.28742 0.37628 0.0
C1568 C 0.72938 0.3122 0.42431 0.0
C1569 C 0.72314 0.32842 0.42239 0.0
C1570 C 0.7326 0.30646 0.44238 0.0
C1571 C 0.73845 0.28906 0.44517 0.0
C1572 C 0.72822 0.27314 0.43606 0.0
C1573 C 0.73387 0.2568 0.43864 0.0
C1574 C 0.74968 0.25621 0.45039 0.0
C1575 C 0.75985 0.27194 0.45962 0.0
C1576 C 0.75426 0.28831 0.45708 0.0
C1577 C 0.70769 0.3657 0.4912 0.0
C1578 C 0.7235 0.37102 0.50383 0.0
C1579 C 0.70761 0.35299 0.4762 0.0
C1580 C 0.72341 0.34556 0.47343 0.0
C1581 C 0.7388 0.35011 0.48662 0.0
C1582 C 0.73884 0.36267 0.50166 0.0
C1583 C 0.72452 0.33397 0.45626 0.0
C1584 C 0.73013 0.31742 0.45811 0.0
C1585 C 0.72095 0.33951 0.43812 0.0
C1586 C 0.71617 0.35729 0.4351 0.0
C1587 C 0.72813 0.37299 0.4425 0.0
C1588 C 0.72347 0.3897 0.4397 0.0
C1589 C 0.70697 0.39088 0.42938 0.0
C1590 C 0.69512 0.37535 0.42179 0.0
C1591 C 0.69971 0.3586 0.42457 0.0
H1592 H 0.70339 0.40383 0.42723 0.0
H1593 H 0.75403 0.24355 0.45237 0.0
H1594 H 0.45194 0.0738 0.9321 0.0
H1595 H 0.47864 0.06174 0.92241 0.0
H1596 H 0.45578 0.05722 0.86489 0.0
H1597 H 0.42929 0.06953 0.87442 0.0
H1598 H 0.46897 0.02743 0.87385 0.0
H1599 H 0.48962 0.09178 0.88191 0.0
H1600 H 0.49592 0.12117 0.89997 0.0
H1601 H 0.53275 0.10177 0.93956 0.0
H1602 H 0.52647 0.07217 0.92185 0.0
H1603 H 0.53822 0.03089 0.81371 0.0
H1604 H 0.5139 0.0362 0.83305 0.0
H1605 H 0.54976 0.03431 0.88286 0.0
H1606 H 0.57445 0.02895 0.86345 0.0
H1607 H 0.53184 0.06362 0.88411 0.0
H1608 H 0.51529 0.00076 0.8723 0.0
H1609 H 0.50939 0.9718 0.85345 0.0
H1610 H 0.46511 0.98825 0.82068 0.0
H1611 H 0.4709 0.01741 0.83917 0.0
C1612 C 0.45278 0.07061 0.91737 0.0
C1613 C 0.43872 0.07308 0.90399 0.0
C1614 C 0.46795 0.06352 0.91187 0.0
C1615 C 0.46926 0.05873 0.89291 0.0
C1616 C 0.45504 0.0608 0.8796 0.0
C1617 C 0.43993 0.06789 0.88507 0.0
C1618 C 0.48554 0.05189 0.88662 0.0
C1619 C 0.48272 0.03533 0.87607 0.0
C1620 C 0.50357 0.06192 0.89011 0.0
C1621 C 0.50739 0.07971 0.9007 0.0
C1622 C 0.49894 0.09374 0.89455 0.0
C1623 C 0.50253 0.11044 0.90471 0.0
C1624 C 0.51468 0.11332 0.92094 0.0
C1625 C 0.52331 0.09951 0.92701 0.0
C1626 C 0.51975 0.08277 0.91692 0.0
C1627 C 0.54099 0.03149 0.82877 0.0
C1628 C 0.55831 0.02953 0.83704 0.0
C1629 C 0.527 0.03443 0.83981 0.0
C1630 C 0.52997 0.03545 0.85937 0.0
C1631 C 0.5472 0.03346 0.86777 0.0
C1632 C 0.56124 0.03036 0.85667 0.0
C1633 C 0.51513 0.03947 0.87076 0.0
C1634 C 0.5182 0.05548 0.88228 0.0
C1635 C 0.49731 0.02894 0.86816 0.0
C1636 C 0.4936 0.01133 0.85709 0.0
C1637 C 0.50436 0.99825 0.861 0.0
C1638 C 0.50102 0.98179 0.85039 0.0
C1639 C 0.4869 0.9782 0.83586 0.0
C1640 C 0.47604 0.99105 0.83195 0.0
C1641 C 0.47933 0.00754 0.84252 0.0
H1642 H 0.48435 0.96545 0.82765 0.0
H1643 H 0.51744 0.12626 0.92878 0.0
H1644 H 0.24128 0.29205 0.36597 0.0
H1645 H 0.24501 0.2755 0.3934 0.0
H1646 H 0.29846 0.2673 0.37857 0.0
H1647 H 0.2948 0.28386 0.35082 0.0
H1648 H 0.27743 0.23659 0.38823 0.0
H1649 H 0.29611 0.29655 0.41453 0.0
H1650 H 0.29395 0.32831 0.42059 0.0
H1651 H 0.24378 0.31353 0.44632 0.0
H1652 H 0.24548 0.28165 0.44018 0.0
H1653 H 0.28987 0.19718 0.47455 0.0
H1654 H 0.29539 0.21739 0.44977 0.0
H1655 H 0.24319 0.23397 0.45619 0.0
H1656 H 0.23771 0.21412 0.48113 0.0
H1657 H 0.26914 0.262 0.45167 0.0
H1658 H 0.24835 0.20241 0.42141 0.0
H1659 H 0.24986 0.17054 0.41482 0.0
H1660 H 0.30375 0.18476 0.39627 0.0
H1661 H 0.30265 0.21673 0.40298 0.0
C1662 C 0.25387 0.28679 0.3685 0.0
C1663 C 0.26776 0.28932 0.35619 0.0
C1664 C 0.25602 0.27741 0.38427 0.0
C1665 C 0.27212 0.27039 0.38816 0.0
C1666 C 0.28597 0.27271 0.37585 0.0
C1667 C 0.28386 0.28219 0.36004 0.0
C1668 C 0.27402 0.26019 0.40482 0.0
C1669 C 0.27603 0.24224 0.40218 0.0
C1670 C 0.27192 0.26751 0.42296 0.0
C1671 C 0.27087 0.28669 0.42678 0.0
C1672 C 0.28454 0.30006 0.42136 0.0
C1673 C 0.28341 0.31809 0.42483 0.0
C1674 C 0.26872 0.32293 0.4338 0.0
C1675 C 0.25515 0.30975 0.43936 0.0
C1676 C 0.25621 0.2917 0.43592 0.0
C1677 C 0.27963 0.20523 0.4708 0.0
C1678 C 0.26328 0.20393 0.47975 0.0
C1679 C 0.28278 0.21673 0.45658 0.0
C1680 C 0.26959 0.22701 0.45096 0.0
C1681 C 0.25355 0.22615 0.46028 0.0
C1682 C 0.25042 0.21473 0.47451 0.0
C1683 C 0.27204 0.23828 0.435 0.0
C1684 C 0.27086 0.25643 0.43778 0.0
C1685 C 0.27486 0.23113 0.41699 0.0
C1686 C 0.27551 0.21193 0.41291 0.0
C1687 C 0.26058 0.19873 0.41607 0.0
C1688 C 0.26135 0.18065 0.41229 0.0
C1689 C 0.27692 0.17562 0.40519 0.0
C1690 C 0.29172 0.18867 0.40181 0.0
C1691 C 0.29103 0.20677 0.40559 0.0
H1692 H 0.27748 0.16162 0.40227 0.0
H1693 H 0.26787 0.3369 0.43647 0.0
H1694 H 0.54167 0.49275 0.93941 0.0
H1695 H 0.51641 0.50587 0.92538 0.0
H1696 H 0.53609 0.49867 0.87102 0.0
H1697 H 0.56152 0.48588 0.88494 0.0
H1698 H 0.52549 0.5303 0.87545 0.0
H1699 H 0.50022 0.4692 0.88519 0.0
H1700 H 0.49291 0.4433 0.90378 0.0
H1701 H 0.46183 0.47276 0.93835 0.0
H1702 H 0.46917 0.49892 0.92009 0.0
H1703 H 0.44832 0.52681 0.81145 0.0
H1704 H 0.47407 0.52022 0.83134 0.0
H1705 H 0.44736 0.53271 0.88045 0.0
H1706 H 0.42123 0.53921 0.86054 0.0
H1707 H 0.46119 0.5017 0.88226 0.0
H1708 H 0.48368 0.56174 0.86937 0.0
H1709 H 0.49025 0.58672 0.84944 0.0
H1710 H 0.5261 0.55864 0.81967 0.0
H1711 H 0.51958 0.53338 0.8393 0.0
C1712 C 0.54068 0.49406 0.92449 0.0
C1713 C 0.55354 0.48815 0.91327 0.0
C1714 C 0.5262 0.50152 0.91649 0.0
C1715 C 0.52422 0.50304 0.89712 0.0
C1716 C 0.53734 0.49762 0.886 0.0
C1717 C 0.55184 0.49025 0.89398 0.0
C1718 C 0.5082 0.5097 0.88821 0.0
C1719 C 0.51144 0.52399 0.87686 0.0
C1720 C 0.48983 0.50179 0.89045 0.0
C1721 C 0.48543 0.48608 0.90143 0.0
C1722 C 0.49196 0.4702 0.89686 0.0
C1723 C 0.48779 0.45546 0.90731 0.0
C1724 C 0.47696 0.4564 0.92228 0.0
C1725 C 0.47025 0.47206 0.92678 0.0
C1726 C 0.4744 0.48685 0.91638 0.0
C1727 C 0.44786 0.52821 0.82648 0.0
C1728 C 0.4327 0.53358 0.8344 0.0
C1729 C 0.46268 0.52453 0.83784 0.0
C1730 C 0.46275 0.52624 0.85737 0.0
C1731 C 0.44759 0.53142 0.86539 0.0
C1732 C 0.43271 0.53515 0.854 0.0
C1733 C 0.47852 0.52204 0.86922 0.0
C1734 C 0.47523 0.50822 0.88111 0.0
C1735 C 0.49684 0.53032 0.8674 0.0
C1736 C 0.50106 0.54562 0.85576 0.0
C1737 C 0.4929 0.56085 0.85852 0.0
C1738 C 0.49663 0.57507 0.84728 0.0
C1739 C 0.50857 0.57426 0.83329 0.0
C1740 C 0.51686 0.55925 0.83053 0.0
C1741 C 0.51318 0.54499 0.84174 0.0
H1742 H 0.51143 0.58528 0.82459 0.0
H1743 H 0.47374 0.44498 0.93035 0.0
H1744 H 0.74867 0.77242 0.20056 0.0
H1745 H 0.75079 0.75144 0.17391 0.0
H1746 H 0.70091 0.7637 0.14672 0.0
H1747 H 0.6986 0.78461 0.17336 0.0
H1748 H 0.70104 0.72784 0.1445 0.0
H1749 H 0.74217 0.78144 0.13321 0.0
H1750 H 0.76818 0.8064 0.14101 0.0
H1751 H 0.80533 0.76921 0.14749 0.0
H1752 H 0.77948 0.74401 0.13996 0.0
H1753 H 0.70591 0.69559 0.051 0.0
H1754 H 0.70439 0.71338 0.08011 0.0
H1755 H 0.75602 0.70048 0.10217 0.0
H1756 H 0.75782 0.68286 0.07284 0.0
H1757 H 0.75585 0.73528 0.10839 0.0
H1758 H 0.71513 0.68162 0.11795 0.0
H1759 H 0.68921 0.65658 0.11015 0.0
H1760 H 0.65141 0.69345 0.10715 0.0
H1761 H 0.67714 0.71875 0.11468 0.0
C1762 C 0.73814 0.77066 0.18892 0.0
C1763 C 0.7235 0.78024 0.18905 0.0
C1764 C 0.73941 0.75869 0.17367 0.0
C1765 C 0.72609 0.75612 0.15826 0.0
C1766 C 0.71133 0.76549 0.15847 0.0
C1767 C 0.71008 0.77748 0.17368 0.0
C1768 C 0.72755 0.74374 0.14186 0.0
C1769 C 0.71293 0.72956 0.13647 0.0
C1770 C 0.7433 0.7457 0.13174 0.0
C1771 C 0.75886 0.76084 0.13623 0.0
C1772 C 0.75586 0.77858 0.13645 0.0
C1773 C 0.77058 0.79278 0.14079 0.0
C1774 C 0.78839 0.7894 0.1448 0.0
C1775 C 0.79152 0.77181 0.14441 0.0
C1776 C 0.77685 0.75757 0.1401 0.0
C1777 C 0.71689 0.69641 0.06208 0.0
C1778 C 0.73198 0.68779 0.05961 0.0
C1779 C 0.71596 0.70653 0.07877 0.0
C1780 C 0.72999 0.70811 0.09342 0.0
C1781 C 0.74502 0.69942 0.09106 0.0
C1782 C 0.746 0.68931 0.07432 0.0
C1783 C 0.72925 0.71943 0.11088 0.0
C1784 C 0.744 0.73344 0.11648 0.0
C1785 C 0.71363 0.71728 0.12122 0.0
C1786 C 0.6981 0.70209 0.11673 0.0
C1787 C 0.70131 0.6844 0.11549 0.0
C1788 C 0.68665 0.67016 0.11114 0.0
C1789 C 0.66868 0.67342 0.10812 0.0
C1790 C 0.66534 0.69094 0.10948 0.0
C1791 C 0.67996 0.70524 0.11381 0.0
H1792 H 0.65734 0.66238 0.10475 0.0
H1793 H 0.79976 0.80041 0.14815 0.0
H1794 H 0.02284 0.11742 0.13222 0.0
H1795 H 0.00019 0.10936 0.15438 0.0
H1796 H 0.04325 0.11959 0.19984 0.0
H1797 H 0.06615 0.12728 0.1776 0.0
H1798 H 0.02153 0.0899 0.20379 0.0
H1799 H 0.0123 0.14842 0.19339 0.0
H1800 H 0.00741 0.17393 0.17546 0.0
H1801 H 0.95567 0.14434 0.15035 0.0
H1802 H 0.96036 0.11854 0.16793 0.0
H1803 H 0.935 0.09293 0.25783 0.0
H1804 H 0.95878 0.10887 0.24013 0.0
H1805 H 0.96219 0.05937 0.20895 0.0
H1806 H 0.9388 0.04342 0.22662 0.0
H1807 H 0.96304 0.11358 0.20326 0.0
H1808 H 0.0066 0.05661 0.20542 0.0
H1809 H 0.01237 0.03331 0.22622 0.0
H1810 H 0.99802 0.06444 0.273 0.0
H1811 H 0.99261 0.08807 0.25261 0.0
C1812 C 0.02753 0.11801 0.14693 0.0
C1813 C 0.04631 0.12299 0.15315 0.0
C1814 C 0.01452 0.11354 0.15962 0.0
C1815 C 0.01995 0.11416 0.17883 0.0
C1816 C 0.03872 0.11909 0.18509 0.0
C1817 C 0.05179 0.12347 0.17237 0.0
C1818 C 0.00609 0.10877 0.19214 0.0
C1819 C 0.00881 0.09518 0.20374 0.0
C1820 C 0.98968 0.116 0.19252 0.0
C1821 C 0.98675 0.13148 0.1819 0.0
C1822 C -6e-05 0.14729 0.18395 0.0
C1823 C 0.99719 0.16182 0.17386 0.0
C1824 C 0.98125 0.16074 0.16175 0.0
C1825 C 0.96801 0.14515 0.15973 0.0
C1826 C 0.9707 0.13058 0.16978 0.0
C1827 C 0.94066 0.08552 0.24702 0.0
C1828 C 0.9352 0.06689 0.24376 0.0
C1829 C 0.95422 0.09463 0.23693 0.0
C1830 C 0.96249 0.08523 0.22351 0.0
C1831 C 0.95625 0.06682 0.21952 0.0
C1832 C 0.94284 0.05773 0.22961 0.0
C1833 C 0.97823 0.09425 0.21417 0.0
C1834 C 0.97586 0.10849 0.2034 0.0
C1835 C 0.99521 0.088 0.21495 0.0
C1836 C 0.99905 0.07405 0.22743 0.0
C1837 C 0.00483 0.05855 0.22018 0.0
C1838 C 0.00804 0.04527 0.2319 0.0
C1839 C 0.00555 0.04737 0.25092 0.0
C1840 C -5e-05 0.06279 0.25828 0.0
C1841 C 0.99681 0.07613 0.24664 0.0
H1842 H 0.00797 0.03704 0.25996 0.0
H1843 H 0.97915 0.172 0.15395 0.0
H1844 H 0.30282 0.8015 0.20071 0.0
H1845 H 0.29683 0.82281 0.17808 0.0
H1846 H 0.25476 0.83848 0.21046 0.0
H1847 H 0.26074 0.8172 0.23329 0.0
H1848 H 0.24345 0.83121 0.17233 0.0
H1849 H 0.29369 0.8666 0.21113 0.0
H1850 H 0.32452 0.87321 0.22839 0.0
H1851 H 0.34941 0.86673 0.17704 0.0
H1852 H 0.3187 0.85982 0.15949 0.0
H1853 H 0.23179 0.89844 0.11006 0.0
H1854 H 0.23705 0.88413 0.13906 0.0
H1855 H 0.28556 0.86786 0.11897 0.0
H1856 H 0.28072 0.88247 0.09039 0.0
H1857 H 0.2922 0.87854 0.15445 0.0
H1858 H 0.24292 0.83919 0.11638 0.0
H1859 H 0.21247 0.83116 0.09845 0.0
H1860 H 0.18626 0.84372 0.14757 0.0
H1861 H 0.21661 0.85204 0.16574 0.0
C1862 C 0.29237 0.80954 0.2031 0.0
C1863 C 0.28227 0.80767 0.21881 0.0
C1864 C 0.28901 0.82177 0.19019 0.0
C1865 C 0.27544 0.83232 0.19268 0.0
C1866 C 0.26532 0.8305 0.20833 0.0
C1867 C 0.2688 0.81838 0.22137 0.0
C1868 C 0.2715 0.84475 0.17851 0.0
C1869 C 0.25398 0.84182 0.16865 0.0
C1870 C 0.28536 0.85833 0.17352 0.0
C1871 C 0.30387 0.86257 0.18401 0.0
C1872 C 0.30572 0.86645 0.20353 0.0
C1873 C 0.32318 0.87027 0.21336 0.0
C1874 C 0.33891 0.87035 0.20382 0.0
C1875 C 0.33721 0.86665 0.18442 0.0
C1876 C 0.31978 0.86281 0.17452 0.0
C1877 C 0.24366 0.89194 0.11192 0.0
C1878 C 0.25579 0.89152 0.09788 0.0
C1879 C 0.2466 0.88369 0.12846 0.0
C1880 C 0.26157 0.8747 0.13111 0.0
C1881 C 0.27393 0.87472 0.11729 0.0
C1882 C 0.27109 0.88305 0.10089 0.0
C1883 C 0.26426 0.86474 0.1479 0.0
C1884 C 0.28156 0.86813 0.15829 0.0
C1885 C 0.25025 0.85144 0.15325 0.0
C1886 C 0.23203 0.84645 0.14235 0.0
C1887 C 0.23067 0.84037 0.12332 0.0
C1888 C 0.21343 0.83574 0.11312 0.0
C1889 C 0.19744 0.83698 0.12185 0.0
C1890 C 0.19866 0.8428 0.14082 0.0
C1891 C 0.21587 0.84747 0.15107 0.0
H1892 H 0.18411 0.83339 0.11394 0.0
H1893 H 0.35241 0.87332 0.21146 0.0
H1894 H 0.91563 0.47949 0.18013 0.0
H1895 H 0.94615 0.48421 0.19706 0.0
H1896 H 0.96947 0.4706 0.14605 0.0
H1897 H 0.93926 0.4675 0.12881 0.0
H1898 H 0.97032 0.46506 0.20514 0.0
H1899 H 0.01288 0.4932 0.14645 0.0
H1900 H 0.00908 0.50931 0.11814 0.0
H1901 H 0.96557 0.53203 0.14103 0.0
H1902 H 0.96927 0.51622 0.16953 0.0
H1903 H 0.06255 0.48346 0.24643 0.0
H1904 H 0.03687 0.47163 0.22276 0.0
H1905 H 0.02778 0.52527 0.21528 0.0
H1906 H 0.05351 0.5371 0.23828 0.0
H1907 H 0.02157 0.50705 0.18324 0.0
H1908 H 0.00343 0.49828 0.24541 0.0
H1909 H 0.00513 0.48688 0.27669 0.0
H1910 H 0.99656 0.43306 0.25154 0.0
H1911 H 0.99497 0.44418 0.22009 0.0
C1912 C 0.92726 0.4775 0.17251 0.0
C1913 C 0.92489 0.47266 0.15316 0.0
C1914 C 0.9447 0.48005 0.18224 0.0
C1915 C 0.96018 0.47777 0.17287 0.0
C1916 C 0.95779 0.47255 0.15361 0.0
C1917 C 0.94037 0.47034 0.14379 0.0
C1918 C 0.9788 0.48172 0.18322 0.0
C1919 C 0.98156 0.47412 0.20024 0.0
C1920 C 0.99347 0.4937 0.17701 0.0
C1921 C 0.9912 0.50334 0.15998 0.0
C1922 C 0.00253 0.50166 0.14543 0.0
C1923 C 0.00039 0.51073 0.12936 0.0
C1924 C 0.98704 0.52163 0.12776 0.0
C1925 C 0.97585 0.52353 0.14225 0.0
C1926 C 0.97795 0.5145 0.15836 0.0
C1927 C 0.05531 0.49271 0.23941 0.0
C1928 C 0.05993 0.51119 0.24436 0.0
C1929 C 0.04058 0.48594 0.22599 0.0
C1930 C 0.03019 0.49755 0.21747 0.0
C1931 C 0.03555 0.51603 0.22163 0.0
C1932 C 0.05025 0.52278 0.23489 0.0
C1933 C 0.01292 0.4907 0.20533 0.0
C1934 C 0.01044 0.49768 0.18792 0.0
C1935 C 0.99824 0.47877 0.21157 0.0
C1936 C 0.99933 0.47206 0.23043 0.0
C1937 C 0.00206 0.48403 0.24656 0.0
C1938 C 0.00297 0.47762 0.26431 0.0
C1939 C 0.00102 0.45927 0.2661 0.0
C1940 C 0.99811 0.44728 0.25013 0.0
C1941 C 0.9972 0.45362 0.23234 0.0
H1942 H 0.00171 0.45433 0.27985 0.0
H1943 H 0.9854 0.52863 0.11531 0.0
H1944 H 0.35281 0.78995 0.28725 0.0
H1945 H 0.38207 0.79415 0.30689 0.0
H1946 H 0.35568 0.76189 0.34746 0.0
H1947 H 0.32649 0.75795 0.32825 0.0
H1948 H 0.37855 0.78975 0.36464 0.0
H1949 H 0.38113 0.74461 0.315 0.0
H1950 H 0.37993 0.73249 0.28219 0.0
H1951 H 0.42501 0.77348 0.27281 0.0
H1952 H 0.42632 0.78598 0.30553 0.0
H1953 H 0.45234 0.76009 0.4138 0.0
H1954 H 0.42511 0.7598 0.39208 0.0
H1955 H 0.45643 0.7986 0.36075 0.0
H1956 H 0.48373 0.79913 0.38249 0.0
H1957 H 0.4325 0.77017 0.33824 0.0
H1958 H 0.43106 0.81384 0.38904 0.0
H1959 H 0.43252 0.82486 0.42224 0.0
H1960 H 0.38522 0.78563 0.42968 0.0
H1961 H 0.38366 0.77417 0.39658 0.0
C1962 C 0.35321 0.78393 0.30045 0.0
C1963 C 0.33732 0.77352 0.3061 0.0
C1964 C 0.36996 0.78625 0.31161 0.0
C1965 C 0.37111 0.77811 0.32852 0.0
C1966 C 0.35513 0.76828 0.33447 0.0
C1967 C 0.33844 0.766 0.3234 0.0
C1968 C 0.38897 0.77925 0.33988 0.0
C1969 C 0.39029 0.78535 0.35887 0.0
C1970 C 0.40444 0.77386 0.33229 0.0
C1971 C 0.40368 0.76636 0.31264 0.0
C1972 C 0.39069 0.75112 0.30589 0.0
C1973 C 0.39001 0.74417 0.28732 0.0
C1974 C 0.40235 0.75224 0.2754 0.0
C1975 C 0.41543 0.76726 0.28205 0.0
C1976 C 0.41616 0.77428 0.30061 0.0
C1977 C 0.45352 0.76837 0.40214 0.0
C1978 C 0.47016 0.77972 0.39993 0.0
C1979 C 0.43794 0.76825 0.38981 0.0
C1980 C 0.43876 0.77934 0.37498 0.0
C1981 C 0.45555 0.79001 0.37217 0.0
C1982 C 0.47109 0.7903 0.38462 0.0
C1983 C 0.42187 0.78036 0.36296 0.0
C1984 C 0.42078 0.7747 0.3439 0.0
C1985 C 0.40657 0.78607 0.37049 0.0
C1986 C 0.40735 0.79304 0.39036 0.0
C1987 C 0.42106 0.80747 0.39779 0.0
C1988 C 0.42189 0.81381 0.41658 0.0
C1989 C 0.409 0.80592 0.42807 0.0
C1990 C 0.39521 0.79171 0.42077 0.0
C1991 C 0.39433 0.7853 0.40199 0.0
H1992 H 0.40967 0.81085 0.44262 0.0
H1993 H 0.4018 0.74683 0.26103 0.0
H1994 H 0.96077 0.42691 0.07541 0.0
H1995 H 0.9777 0.41071 0.05434 0.0
H1996 H 0.95083 0.36068 0.07213 0.0
H1997 H 0.93407 0.37678 0.09349 0.0
H1998 H 0.98678 0.36036 0.06864 0.0
H1999 H 0.93576 0.37624 0.03144 0.0
H2000 H 0.91641 0.39684 0.01888 0.0
H2001 H 0.96283 0.4256 0.995 0.0
H2002 H 0.98251 0.40529 0.00764 0.0
H2003 H 0.99249 0.29908 0.99189 0.0
H2004 H 0.98396 0.31829 0.01697 0.0
H2005 H 0.01332 0.36468 0.99427 0.0
H2006 H 0.02175 0.34553 0.96889 0.0
H2007 H 0.9792 0.36893 0.00089 0.0
H2008 H 0.0295 0.35069 0.0355 0.0
H2009 H 0.04831 0.32949 0.04766 0.0
H2010 H 0.00307 0.30462 0.07609 0.0
H2011 H 0.98389 0.32552 0.06388 0.0
C2012 C 0.95853 0.41246 0.07493 0.0
C2013 C 0.94595 0.40312 0.08602 0.0
C2014 C 0.9682 0.40323 0.06285 0.0
C2015 C 0.96533 0.38448 0.06147 0.0
C2016 C 0.95323 0.37515 0.07295 0.0
C2017 C 0.94361 0.38437 0.0851 0.0
C2018 C 0.97438 0.37453 0.04759 0.0
C2019 C 0.98503 0.36212 0.0538 0.0
C2020 C 0.97247 0.37717 0.02829 0.0
C2021 C 0.96065 0.38938 0.02066 0.0
C2022 C 0.94187 0.38704 0.02364 0.0
C2023 C 0.93084 0.39865 0.01648 0.0
C2024 C 0.9384 0.41255 0.0062 0.0
C2025 C 0.957 0.41485 0.003 0.0
C2026 C 0.9681 0.40329 0.01015 0.0
C2027 C 0.99735 0.31335 0.99232 0.0
C2028 C 0.00774 0.32077 0.97831 0.0
C2029 C 0.99254 0.32431 0.00676 0.0
C2030 C 0.99812 0.34291 0.00758 0.0
C2031 C 0.0089 0.35035 0.99391 0.0
C2032 C 0.01374 0.33938 0.97944 0.0
C2033 C 0.99147 0.35459 0.02188 0.0
C2034 C 0.9812 0.36732 0.01574 0.0
C2035 C 0.9937 0.35217 0.04121 0.0
C2036 C 0.00521 0.3396 0.04864 0.0
C2037 C 0.02351 0.34062 0.04422 0.0
C2038 C 0.03425 0.32867 0.05115 0.0
C2039 C 0.02688 0.31569 0.06261 0.0
C2040 C 0.00876 0.31467 0.0672 0.0
C2041 C 0.99796 0.32658 0.0603 0.0
H2042 H 0.03522 0.30645 0.06796 0.0
H2043 H 0.92984 0.42152 0.00066 0.0
H2044 H 0.69181 0.8398 0.33411 0.0
H2045 H 0.66898 0.83163 0.35606 0.0
H2046 H 0.63766 0.79237 0.31447 0.0
H2047 H 0.66032 0.80078 0.29219 0.0
H2048 H 0.61602 0.81202 0.32914 0.0
H2049 H 0.66078 0.77986 0.35378 0.0
H2050 H 0.69156 0.77495 0.36559 0.0
H2051 H 0.69309 0.81461 0.41124 0.0
H2052 H 0.66242 0.81996 0.39956 0.0
H2053 H 0.57094 0.77856 0.41686 0.0
H2054 H 0.59615 0.7789 0.3967 0.0
H2055 H 0.59113 0.8323 0.38335 0.0
H2056 H 0.5659 0.83203 0.40324 0.0
H2057 H 0.62987 0.79995 0.39522 0.0
H2058 H 0.59438 0.83512 0.33714 0.0
H2059 H 0.56295 0.83758 0.32473 0.0
H2060 H 0.5419 0.78681 0.34442 0.0
H2061 H 0.57323 0.78393 0.35669 0.0
C2062 C 0.68019 0.82927 0.32966 0.0
C2063 C 0.67784 0.821 0.31136 0.0
C2064 C 0.66719 0.82453 0.3423 0.0
C2065 C 0.65168 0.81127 0.33699 0.0
C2066 C 0.64954 0.80263 0.31888 0.0
C2067 C 0.66251 0.80743 0.30617 0.0
C2068 C 0.63704 0.8075 0.34986 0.0
C2069 C 0.61906 0.80926 0.34354 0.0
C2070 C 0.6409 0.80359 0.36859 0.0
C2071 C 0.65933 0.80039 0.37571 0.0
C2072 C 0.66773 0.78763 0.36627 0.0
C2073 C 0.68515 0.78475 0.37295 0.0
C2074 C 0.69429 0.79448 0.38913 0.0
C2075 C 0.686 0.80709 0.3987 0.0
C2076 C 0.66858 0.81003 0.39207 0.0
C2077 C 0.57537 0.79046 0.40981 0.0
C2078 C 0.56631 0.80521 0.41149 0.0
C2079 C 0.58978 0.79063 0.39833 0.0
C2080 C 0.59527 0.8055 0.3883 0.0
C2081 C 0.58688 0.82057 0.39073 0.0
C2082 C 0.5725 0.82042 0.40216 0.0
C2083 C 0.60912 0.80507 0.37459 0.0
C2084 C 0.62688 0.80254 0.38075 0.0
C2085 C 0.60501 0.80791 0.35559 0.0
C2086 C 0.58615 0.80939 0.34797 0.0
C2087 C 0.58306 0.82444 0.33873 0.0
C2088 C 0.56526 0.82592 0.33174 0.0
C2089 C 0.55043 0.81239 0.33383 0.0
C2090 C 0.55339 0.79732 0.34287 0.0
C2091 C 0.57116 0.79576 0.34986 0.0
H2092 H 0.53666 0.81356 0.32843 0.0
H2093 H 0.70778 0.79224 0.39428 0.0
H2094 H 0.09922 0.17813 0.07708 0.0
H2095 H 0.08988 0.19447 0.051 0.0
H2096 H 0.06685 0.14477 0.01893 0.0
H2097 H 0.07618 0.1282 0.04499 0.0
H2098 H 0.08363 0.17195 0.99689 0.0
H2099 H 0.03905 0.16305 0.04232 0.0
H2100 H 0.02894 0.1642 0.07416 0.0
H2101 H 0.04612 0.22117 0.08001 0.0
H2102 H 0.0566 0.22032 0.04829 0.0
H2103 H 0.00216 0.22066 0.96496 0.0
H2104 H 0.01622 0.19971 0.98302 0.0
H2105 H 0.07017 0.22625 0.97215 0.0
H2106 H 0.05615 0.24717 0.95375 0.0
H2107 H 0.03749 0.20879 0.01451 0.0
H2108 H 0.10025 0.1961 0.97572 0.0
H2109 H 0.10906 0.19348 0.94342 0.0
H2110 H 0.05226 0.177 0.9227 0.0
H2111 H 0.04313 0.17928 0.95488 0.0
C2112 C 0.09253 0.17061 0.06436 0.0
C2113 C 0.08819 0.15184 0.06325 0.0
C2114 C 0.08721 0.17999 0.04945 0.0
C2115 C 0.07746 0.17082 0.03317 0.0
C2116 C 0.07435 0.15208 0.03141 0.0
C2117 C 0.07964 0.14265 0.04636 0.0
C2118 C 0.06861 0.18076 0.0191 0.0
C2119 C 0.07358 0.18006 0.00068 0.0
C2120 C 0.05523 0.19102 0.02402 0.0
C2121 C 0.04877 0.1916 0.04302 0.0
C2122 C 0.0408 0.1758 0.05046 0.0
C2123 C 0.03499 0.1764 0.06847 0.0
C2124 C 0.03693 0.19274 0.07912 0.0
C2125 C 0.04465 0.20852 0.07175 0.0
C2126 C 0.05052 0.20799 0.05376 0.0
C2127 C 0.01701 0.22187 0.96611 0.0
C2128 C 0.02805 0.23567 0.95804 0.0
C2129 C 0.02502 0.20989 0.97647 0.0
C2130 C 0.04424 0.21142 0.97899 0.0
C2131 C 0.0553 0.22468 0.97024 0.0
C2132 C 0.04727 0.23666 0.95977 0.0
C2133 C 0.05259 0.20024 0.99218 0.0
C2134 C 0.04755 0.20074 0.01058 0.0
C2135 C 0.06567 0.18965 0.9871 0.0
C2136 C 0.07101 0.18804 0.9677 0.0
C2137 C 0.08965 0.19186 0.96427 0.0
C2138 C 0.0947 0.19044 0.94599 0.0
C2139 C 0.08122 0.18513 0.93102 0.0
C2140 C 0.06267 0.18118 0.93431 0.0
C2141 C 0.05755 0.18256 0.95256 0.0
H2142 H 0.08516 0.18405 0.91687 0.0
H2143 H 0.03242 0.19318 0.09306 0.0
H2144 H 0.31606 0.28671 0.26469 0.0
H2145 H 0.34327 0.28506 0.24783 0.0
H2146 H 0.3578 0.34251 0.25359 0.0
H2147 H 0.33082 0.34429 0.27091 0.0
H2148 H 0.35781 0.32318 0.21515 0.0
H2149 H 0.38191 0.32528 0.2799 0.0
H2150 H 0.38212 0.31549 0.31189 0.0
H2151 H 0.38711 0.26264 0.2908 0.0
H2152 H 0.38665 0.27206 0.25863 0.0
H2153 H 0.44572 0.32722 0.18123 0.0
H2154 H 0.42021 0.33221 0.19936 0.0
H2155 H 0.41363 0.27774 0.21444 0.0
H2156 H 0.43968 0.27301 0.19714 0.0
H2157 H 0.40981 0.29738 0.24318 0.0
H2158 H 0.38439 0.29301 0.1793 0.0
H2159 H 0.38239 0.30049 0.14646 0.0
H2160 H 0.37769 0.35431 0.16422 0.0
H2161 H 0.37989 0.34721 0.1972 0.0
C2162 C 0.32502 0.299 0.26234 0.0
C2163 C 0.32134 0.31563 0.26914 0.0
C2164 C 0.34056 0.29802 0.25276 0.0
C2165 C 0.35249 0.31366 0.24955 0.0
C2166 C 0.3487 0.33031 0.25597 0.0
C2167 C 0.33335 0.33129 0.2659 0.0
C2168 C 0.369 0.31251 0.23958 0.0
C2169 C 0.36936 0.31782 0.22132 0.0
C2170 C 0.3837 0.30499 0.24751 0.0
C2171 C 0.38405 0.29933 0.26685 0.0
C2172 C 0.38287 0.31153 0.28206 0.0
C2173 C 0.38308 0.30606 0.30023 0.0
C2174 C 0.38458 0.28844 0.30337 0.0
C2175 C 0.38592 0.27628 0.28835 0.0
C2176 C 0.38571 0.28168 0.27015 0.0
C2177 C 0.43883 0.31633 0.18845 0.0
C2178 C 0.44466 0.29971 0.18773 0.0
C2179 C 0.42418 0.31916 0.19872 0.0
C2180 C 0.41472 0.30526 0.20803 0.0
C2181 C 0.42067 0.2887 0.20742 0.0
C2182 C 0.43555 0.28598 0.19748 0.0
C2183 C 0.39872 0.3079 0.21849 0.0
C2184 C 0.39839 0.30285 0.23691 0.0
C2185 C 0.38386 0.31532 0.21053 0.0
C2186 C 0.38251 0.31963 0.19072 0.0
C2187 C 0.38307 0.30648 0.1762 0.0
C2188 C 0.38188 0.31064 0.15757 0.0
C2189 C 0.37997 0.32788 0.15326 0.0
C2190 C 0.3792 0.34097 0.16758 0.0
C2191 C 0.3804 0.33688 0.18625 0.0
H2192 H 0.37905 0.33107 0.13882 0.0
H2193 H 0.38474 0.28423 0.31744 0.0
H2194 H 0.57037 0.39751 0.99706 0.0
H2195 H 0.55575 0.38932 0.02524 0.0
H2196 H 0.60649 0.37599 0.04919 0.0
H2197 H 0.62117 0.38392 0.0209 0.0
H2198 H 0.57797 0.35034 0.053 0.0
H2199 H 0.59161 0.41372 0.0654 0.0
H2200 H 0.59226 0.44511 0.05866 0.0
H2201 H 0.53316 0.43633 0.05289 0.0
H2202 H 0.53215 0.40481 0.05933 0.0
H2203 H 0.53991 0.33192 0.13763 0.0
H2204 H 0.56053 0.34843 0.11733 0.0
H2205 H 0.51381 0.36249 0.08577 0.0
H2206 H 0.49316 0.34628 0.10609 0.0
H2207 H 0.54356 0.38957 0.08871 0.0
H2208 H 0.53017 0.32571 0.07267 0.0
H2209 H 0.52916 0.29431 0.07949 0.0
H2210 H 0.58793 0.30405 0.09151 0.0
H2211 H 0.58923 0.33567 0.08524 0.0
C2212 C 0.57846 0.39293 0.00835 0.0
C2213 C 0.59693 0.39135 0.00673 0.0
C2214 C 0.57011 0.38835 0.02451 0.0
C2215 C 0.58009 0.38225 0.03943 0.0
C2216 C 0.59855 0.38073 0.03788 0.0
C2217 C 0.60692 0.38528 0.0217 0.0
C2218 C 0.57095 0.37661 0.05621 0.0
C2219 C 0.57078 0.35905 0.06105 0.0
C2220 C 0.56128 0.38787 0.0665 0.0
C2221 C 0.56181 0.40685 0.06272 0.0
C2222 C 0.57875 0.41844 0.06256 0.0
C2223 C 0.57918 0.43627 0.05882 0.0
C2224 C 0.56276 0.4427 0.05531 0.0
C2225 C 0.54587 0.43132 0.05559 0.0
C2226 C 0.54536 0.41348 0.05932 0.0
C2227 C 0.53406 0.33889 0.12665 0.0
C2228 C 0.51488 0.33759 0.12329 0.0
C2229 C 0.54586 0.34827 0.11504 0.0
C2230 C 0.53865 0.35639 0.09984 0.0
C2231 C 0.51965 0.35627 0.09737 0.0
C2232 C 0.50786 0.34693 0.10897 0.0
C2233 C 0.55049 0.3633 0.08533 0.0
C2234 C 0.55106 0.38101 0.08085 0.0
C2235 C 0.56052 0.35219 0.07531 0.0
C2236 C 0.55977 0.3331 0.07872 0.0
C2237 C 0.54286 0.32119 0.0769 0.0
C2238 C 0.54224 0.30335 0.08066 0.0
C2239 C 0.55847 0.29719 0.08595 0.0
C2240 C 0.57537 0.30885 0.08745 0.0
C2241 C 0.57605 0.32674 0.08382 0.0
H2242 H 0.55798 0.28338 0.08888 0.0
H2243 H 0.56312 0.4565 0.05241 0.0
H2244 H 0.67873 0.32532 0.28431 0.0
H2245 H 0.65068 0.32418 0.26347 0.0
H2246 H 0.62669 0.2749 0.28499 0.0
H2247 H 0.65463 0.27586 0.30576 0.0
H2248 H 0.6236 0.27273 0.24689 0.0
H2249 H 0.61238 0.31338 0.29725 0.0
H2250 H 0.61959 0.34042 0.31918 0.0
H2251 H 0.62179 0.37341 0.27303 0.0
H2252 H 0.61483 0.34653 0.2508 0.0
H2253 H 0.53056 0.262 0.21294 0.0
H2254 H 0.55948 0.26676 0.23284 0.0
H2255 H 0.57726 0.31622 0.20836 0.0
H2256 H 0.54811 0.31166 0.18846 0.0
H2257 H 0.58487 0.31984 0.2461 0.0
H2258 H 0.59488 0.27981 0.19572 0.0
H2259 H 0.58795 0.25308 0.17335 0.0
H2260 H 0.5888 0.21934 0.21877 0.0
H2261 H 0.59547 0.24588 0.24143 0.0
C2262 C 0.66743 0.31432 0.28473 0.0
C2263 C 0.66894 0.30065 0.29667 0.0
C2264 C 0.65139 0.31372 0.27284 0.0
C2265 C 0.6366 0.29947 0.27272 0.0
C2266 C 0.63797 0.28598 0.28483 0.0
C2267 C 0.65394 0.2866 0.29675 0.0
C2268 C 0.61992 0.29816 0.25949 0.0
C2269 C 0.61501 0.28293 0.24686 0.0
C2270 C 0.60911 0.31178 0.25902 0.0
C2271 C 0.61329 0.32794 0.27237 0.0
C2272 C 0.61456 0.32639 0.29178 0.0
C2273 C 0.61857 0.34169 0.30426 0.0
C2274 C 0.6212 0.35862 0.2975 0.0
C2275 C 0.61978 0.36029 0.27824 0.0
C2276 C 0.61579 0.34503 0.2657 0.0
C2277 C 0.5406 0.2739 0.21174 0.0
C2278 C 0.53707 0.28641 0.19905 0.0
C2279 C 0.55717 0.27657 0.2231 0.0
C2280 C 0.57063 0.29173 0.22191 0.0
C2281 C 0.56707 0.3044 0.20945 0.0
C2282 C 0.55044 0.30175 0.19806 0.0
C2283 C 0.58835 0.29422 0.23376 0.0
C2284 C 0.59351 0.30968 0.24607 0.0
C2285 C 0.59949 0.28086 0.23387 0.0
C2286 C 0.59552 0.26485 0.22028 0.0
C2287 C 0.59344 0.26669 0.20095 0.0
C2288 C 0.58959 0.25157 0.18821 0.0
C2289 C 0.5879 0.23452 0.19464 0.0
C2290 C 0.5901 0.23256 0.21381 0.0
C2291 C 0.59393 0.24764 0.22661 0.0
H2292 H 0.58491 0.22283 0.18475 0.0
H2293 H 0.6243 0.37045 0.30719 0.0
H2294 H 0.47116 0.13001 0.00385 0.0
H2295 H 0.47776 0.15136 0.03154 0.0
H2296 H 0.45619 0.19082 0.0003 0.0
H2297 H 0.4498 0.16972 0.97257 0.0
H2298 H 0.48726 0.20545 0.02168 0.0
H2299 H 0.43026 0.16657 0.0299 0.0
H2300 H 0.41031 0.13752 0.03219 0.0
H2301 H 0.44579 0.12735 0.07893 0.0
H2302 H 0.46608 0.15626 0.07675 0.0
H2303 H 0.46783 0.26574 0.09276 0.0
H2304 H 0.46533 0.24328 0.06645 0.0
H2305 H 0.48742 0.20768 0.10267 0.0
H2306 H 0.48978 0.23002 0.12921 0.0
H2307 H 0.45837 0.19024 0.07979 0.0
H2308 H 0.51441 0.22988 0.07282 0.0
H2309 H 0.53456 0.25875 0.07041 0.0
H2310 H 0.50117 0.26754 0.0215 0.0
H2311 H 0.4807 0.23875 0.02372 0.0
C2312 C 0.46796 0.14328 0.00284 0.0
C2313 C 0.45985 0.14813 0.98604 0.0
C2314 C 0.47166 0.15543 0.01869 0.0
C2315 C 0.46724 0.1726 0.01803 0.0
C2316 C 0.45968 0.17763 0.00112 0.0
C2317 C 0.45599 0.16552 0.9853 0.0
C2318 C 0.47003 0.18526 0.035 0.0
C2319 C 0.48081 0.20219 0.03433 0.0
C2320 C 0.46201 0.18082 0.05167 0.0
C2321 C 0.44979 0.16347 0.05302 0.0
C2322 C 0.43388 0.15807 0.04057 0.0
C2323 C 0.4225 0.14165 0.04186 0.0
C2324 C 0.42681 0.13057 0.05566 0.0
C2325 C 0.44248 0.13593 0.06823 0.0
C2326 C 0.45393 0.15233 0.06697 0.0
C2327 C 0.4721 0.25312 0.0952 0.0
C2328 C 0.47905 0.24971 0.11311 0.0
C2329 C 0.47077 0.24033 0.08009 0.0
C2330 C 0.47646 0.22392 0.08254 0.0
C2331 C 0.48303 0.2203 0.10047 0.0
C2332 C 0.48437 0.23309 0.11561 0.0
C2333 C 0.4754 0.21053 0.06638 0.0
C2334 C 0.46494 0.19346 0.0672 0.0
C2335 C 0.48373 0.21484 0.04984 0.0
C2336 C 0.49593 0.23222 0.04853 0.0
C2337 C 0.51127 0.23803 0.06164 0.0
C2338 C 0.52278 0.25437 0.06029 0.0
C2339 C 0.51913 0.265 0.04584 0.0
C2340 C 0.50397 0.2593 0.03269 0.0
C2341 C 0.49243 0.24295 0.03397 0.0
H2342 H 0.52808 0.27763 0.04479 0.0
H2343 H 0.41798 0.11787 0.05664 0.0
H2344 H 0.23242 0.3811 0.74174 0.0
H2345 H 0.25269 0.41018 0.74443 0.0
H2346 H 0.29818 0.38587 0.76479 0.0
H2347 H 0.2779 0.35684 0.76259 0.0
H2348 H 0.2967 0.414 0.78658 0.0
H2349 H 0.295 0.40136 0.72042 0.0
H2350 H 0.28063 0.3931 0.68822 0.0
H2351 H 0.25456 0.4393 0.69077 0.0
H2352 H 0.26858 0.44771 0.72309 0.0
H2353 H 0.36099 0.49479 0.75499 0.0
H2354 H 0.3395 0.46681 0.74674 0.0
H2355 H 0.30872 0.4782 0.79318 0.0
H2356 H 0.33041 0.50605 0.80183 0.0
H2357 H 0.30366 0.45634 0.73709 0.0
H2358 H 0.29522 0.44011 0.81358 0.0
H2359 H 0.3123 0.44714 0.84481 0.0
H2360 H 0.36341 0.45605 0.81963 0.0
H2361 H 0.34666 0.44884 0.78828 0.0
C2362 C 0.24679 0.38189 0.74655 0.0
C2363 C 0.25352 0.36665 0.75204 0.0
C2364 C 0.25839 0.39854 0.74802 0.0
C2365 C 0.27699 0.40023 0.75475 0.0
C2366 C 0.28386 0.38492 0.75964 0.0
C2367 C 0.27225 0.36831 0.75832 0.0
C2368 C 0.28902 0.41806 0.75786 0.0
C2369 C 0.2982 0.42322 0.77572 0.0
C2370 C 0.29116 0.43008 0.74368 0.0
C2371 C 0.2827 0.42507 0.72425 0.0
C2372 C 0.28608 0.40968 0.71417 0.0
C2373 C 0.27803 0.40499 0.69588 0.0
C2374 C 0.26665 0.41565 0.68747 0.0
C2375 C 0.26335 0.43105 0.69731 0.0
C2376 C 0.27137 0.43579 0.71561 0.0
C2377 C 0.34953 0.49148 0.76335 0.0
C2378 C 0.34757 0.50256 0.77924 0.0
C2379 C 0.33721 0.47548 0.75856 0.0
C2380 C 0.32269 0.47026 0.76953 0.0
C2381 C 0.32004 0.48181 0.78473 0.0
C2382 C 0.33243 0.49775 0.78962 0.0
C2383 C 0.31115 0.45224 0.76581 0.0
C2384 C 0.30206 0.44709 0.74791 0.0
C2385 C 0.30943 0.44001 0.7798 0.0
C2386 C 0.31966 0.44412 0.7986 0.0
C2387 C 0.31011 0.44351 0.81473 0.0
C2388 C 0.31973 0.44753 0.83244 0.0
C2389 C 0.33892 0.4521 0.8342 0.0
C2390 C 0.34854 0.45257 0.81825 0.0
C2391 C 0.33899 0.44853 0.8005 0.0
H2392 H 0.34635 0.45523 0.84792 0.0
H2393 H 0.26043 0.41199 0.67331 0.0
H2394 H 0.32781 0.73385 0.81841 0.0
H2395 H 0.34328 0.70786 0.81756 0.0
H2396 H 0.2965 0.67643 0.83885 0.0
H2397 H 0.28077 0.70223 0.83941 0.0
H2398 H 0.33292 0.67309 0.85639 0.0
H2399 H 0.2987 0.67068 0.79553 0.0
H2400 H 0.28998 0.68315 0.76605 0.0
H2401 H 0.34618 0.69051 0.75278 0.0
H2402 H 0.35527 0.67831 0.78235 0.0
H2403 H 0.34503 0.58438 0.83766 0.0
H2404 H 0.33391 0.61266 0.84056 0.0
H2405 H 0.37391 0.63528 0.80431 0.0
H2406 H 0.38454 0.60663 0.80067 0.0
H2407 H 0.34336 0.64501 0.79485 0.0
H2408 H 0.37823 0.64615 0.85348 0.0
H2409 H 0.38864 0.63504 0.88318 0.0
H2410 H 0.33441 0.632 0.90134 0.0
H2411 H 0.3236 0.64286 0.87163 0.0
C2412 C 0.32088 0.72145 0.82305 0.0
C2413 C 0.30305 0.72005 0.82891 0.0
C2414 C 0.32972 0.70663 0.82251 0.0
C2415 C 0.32097 0.69026 0.82808 0.0
C2416 C 0.30344 0.68898 0.83451 0.0
C2417 C 0.29447 0.7037 0.83476 0.0
C2418 C 0.32981 0.67427 0.82656 0.0
C2419 C 0.33509 0.6668 0.84297 0.0
C2420 C 0.33317 0.66654 0.80905 0.0
C2421 C 0.32769 0.67378 0.79125 0.0
C2422 C 0.30922 0.67512 0.78641 0.0
C2423 C 0.30421 0.6821 0.76967 0.0
C2424 C 0.31752 0.68767 0.75758 0.0
C2425 C 0.33588 0.68622 0.76218 0.0
C2426 C 0.34097 0.67926 0.77892 0.0
C2427 C 0.35154 0.5954 0.83037 0.0
C2428 C 0.36571 0.5933 0.81899 0.0
C2429 C 0.34524 0.61163 0.83215 0.0
C2430 C 0.3533 0.62629 0.82297 0.0
C2431 C 0.36749 0.62422 0.81158 0.0
C2432 C 0.37359 0.60785 0.80954 0.0
C2433 C 0.3464 0.64351 0.82474 0.0
C2434 C 0.34143 0.65128 0.80836 0.0
C2435 C 0.34363 0.6517 0.84233 0.0
C2436 C 0.35007 0.64518 0.86025 0.0
C2437 C 0.36849 0.64299 0.86375 0.0
C2438 C 0.37447 0.63676 0.8806 0.0
C2439 C 0.36218 0.63278 0.89412 0.0
C2440 C 0.3439 0.63507 0.89085 0.0
C2441 C 0.33785 0.64128 0.87401 0.0
H2442 H 0.36684 0.62796 0.90716 0.0
H2443 H 0.31361 0.69307 0.74462 0.0
H2444 H 0.82631 0.55319 0.42177 0.0
H2445 H 0.80842 0.53421 0.44232 0.0
H2446 H 0.85269 0.54781 0.48634 0.0
H2447 H 0.87067 0.567 0.4659 0.0
H2448 H 0.839 0.51081 0.47965 0.0
H2449 H 0.81618 0.56525 0.49111 0.0
H2450 H 0.8032 0.59163 0.48251 0.0
H2451 H 0.75502 0.55753 0.45496 0.0
H2452 H 0.76783 0.53092 0.46316 0.0
H2453 H 0.7854 0.46267 0.54346 0.0
H2454 H 0.80472 0.487 0.52996 0.0
H2455 H 0.76214 0.48588 0.48507 0.0
H2456 H 0.74258 0.46205 0.49877 0.0
H2457 H 0.77681 0.51895 0.49566 0.0
H2458 H 0.80036 0.46503 0.48029 0.0
H2459 H 0.81301 0.43799 0.48711 0.0
H2460 H 0.85931 0.47023 0.51997 0.0
H2461 H 0.8468 0.49745 0.51352 0.0
C2462 C 0.83222 0.55222 0.43585 0.0
C2463 C 0.84989 0.56159 0.44223 0.0
C2464 C 0.82195 0.54144 0.44759 0.0
C2465 C 0.82921 0.53974 0.46586 0.0
C2466 C 0.84685 0.54902 0.47228 0.0
C2467 C 0.85707 0.55999 0.46062 0.0
C2468 C 0.81852 0.52773 0.47795 0.0
C2469 C 0.82555 0.51274 0.4835 0.0
C2470 C 0.80083 0.53011 0.48254 0.0
C2471 C 0.79304 0.54609 0.47763 0.0
C2472 C 0.80289 0.56337 0.48309 0.0
C2473 C 0.79554 0.57837 0.47831 0.0
C2474 C 0.77831 0.57626 0.46816 0.0
C2475 C 0.76837 0.55914 0.46281 0.0
C2476 C 0.77566 0.5441 0.46754 0.0
C2477 C 0.78012 0.4677 0.53079 0.0
C2478 C 0.7625 0.46034 0.52213 0.0
C2479 C 0.7912 0.48156 0.52305 0.0
C2480 C 0.785 0.48808 0.50633 0.0
C2481 C 0.76723 0.48108 0.49797 0.0
C2482 C 0.75608 0.4674 0.50581 0.0
C2483 C 0.79711 0.50177 0.4971 0.0
C2484 C 0.79036 0.5171 0.49206 0.0
C2485 C 0.81498 0.49958 0.49276 0.0
C2486 C 0.82253 0.48324 0.49661 0.0
C2487 C 0.81316 0.46633 0.48908 0.0
C2488 C 0.82032 0.45098 0.49286 0.0
C2489 C 0.83692 0.45239 0.50401 0.0
C2490 C 0.84643 0.46916 0.51136 0.0
C2491 C 0.83932 0.48455 0.50765 0.0
H2492 H 0.84245 0.44048 0.50692 0.0
H2493 H 0.77265 0.58789 0.46447 0.0
H2494 H 0.71458 0.86454 0.78827 0.0
H2495 H 0.6935 0.88591 0.78492 0.0
H2496 H 0.70782 0.90564 0.84274 0.0
H2497 H 0.72865 0.88427 0.84627 0.0
H2498 H 0.67124 0.89909 0.83447 0.0
H2499 H 0.72419 0.92938 0.80697 0.0
H2500 H 0.74807 0.93229 0.78479 0.0
H2501 H 0.70626 0.92409 0.73861 0.0
H2502 H 0.68212 0.9209 0.76053 0.0
H2503 H 0.64328 0.98247 0.84297 0.0
H2504 H 0.66 0.9576 0.84113 0.0
H2505 H 0.63827 0.94422 0.78356 0.0
H2506 H 0.62149 0.96933 0.78524 0.0
H2507 H 0.67544 0.9449 0.78841 0.0
H2508 H 0.62253 0.91775 0.81624 0.0
H2509 H 0.59879 0.91519 0.83855 0.0
H2510 H 0.64044 0.91748 0.88416 0.0
H2511 H 0.66448 0.92031 0.86215 0.0
C2512 C 0.71335 0.87354 0.80022 0.0
C2513 C 0.72327 0.87268 0.81755 0.0
C2514 C 0.70132 0.88575 0.79828 0.0
C2515 C 0.69911 0.89739 0.81358 0.0
C2516 C 0.70924 0.89673 0.83077 0.0
C2517 C 0.72121 0.88454 0.83274 0.0
C2518 C 0.68595 0.90999 0.812 0.0
C2519 C 0.67226 0.9092 0.8245 0.0
C2520 C 0.68685 0.92276 0.79855 0.0
C2521 C 0.70135 0.92469 0.78537 0.0
C2522 C 0.72009 0.92804 0.79208 0.0
C2523 C 0.73367 0.92977 0.77956 0.0
C2524 C 0.72869 0.92832 0.7603 0.0
C2525 C 0.7101 0.92518 0.75353 0.0
C2526 C 0.69647 0.92342 0.76599 0.0
C2527 C 0.6419 0.97418 0.82994 0.0
C2528 C 0.63103 0.97787 0.81425 0.0
C2529 C 0.65143 0.9599 0.82894 0.0
C2530 C 0.65025 0.94895 0.81226 0.0
C2531 C 0.63932 0.95249 0.79657 0.0
C2532 C 0.62969 0.96678 0.79758 0.0
C2533 C 0.66108 0.93429 0.81122 0.0
C2534 C 0.67428 0.93465 0.79822 0.0
C2535 C 0.65975 0.9211 0.82422 0.0
C2536 C 0.64532 0.91937 0.83753 0.0
C2537 C 0.62665 0.91784 0.83104 0.0
C2538 C 0.61313 0.91632 0.84363 0.0
C2539 C 0.61811 0.9162 0.86276 0.0
C2540 C 0.63661 0.91758 0.86933 0.0
C2541 C 0.65018 0.91912 0.8568 0.0
H2542 H 0.60762 0.91502 0.87249 0.0
H2543 H 0.73922 0.92967 0.75063 0.0
H2544 H 0.66041 0.46163 0.94773 0.0
H2545 H 0.67618 0.49271 0.95269 0.0
H2546 H 0.62896 0.5074 0.97715 0.0
H2547 H 0.61318 0.47629 0.97231 0.0
H2548 H 0.64354 0.53233 0.95437 0.0
H2549 H 0.66549 0.50126 0.00488 0.0
H2550 H 0.67874 0.47729 0.01931 0.0
H2551 H 0.72803 0.49143 0.99194 0.0
H2552 H 0.71496 0.51534 0.97712 0.0
H2553 H 0.69176 0.61497 0.00166 0.0
H2554 H 0.67308 0.58534 0.99341 0.0
H2555 H 0.71893 0.56775 0.96893 0.0
H2556 H 0.73774 0.59714 0.97727 0.0
H2557 H 0.70405 0.54454 0.99215 0.0
H2558 H 0.68188 0.57589 0.94168 0.0
H2559 H 0.66844 0.5999 0.92757 0.0
H2560 H 0.61949 0.58555 0.95541 0.0
H2561 H 0.63275 0.56159 0.96991 0.0
C2562 C 0.65334 0.47152 0.95401 0.0
C2563 C 0.63546 0.46659 0.95937 0.0
C2564 C 0.66235 0.48925 0.95686 0.0
C2565 C 0.65379 0.50233 0.96544 0.0
C2566 C 0.63576 0.49753 0.97039 0.0
C2567 C 0.62669 0.47978 0.96746 0.0
C2568 C 0.664 0.5208 0.96997 0.0
C2569 C 0.65667 0.53506 0.96282 0.0
C2570 C 0.68123 0.5243 0.98079 0.0
C2571 C 0.68917 0.50998 0.98975 0.0
C2572 C 0.6791 0.49917 0.00182 0.0
C2573 C 0.68658 0.48561 0.01009 0.0
C2574 C 0.70419 0.48281 0.0065 0.0
C2575 C 0.71438 0.4936 0.99468 0.0
C2576 C 0.70694 0.50717 0.98636 0.0
C2577 C 0.69782 0.60484 0.99438 0.0
C2578 C 0.71627 0.60843 0.99018 0.0
C2579 C 0.6871 0.58794 0.98961 0.0
C2580 C 0.6946 0.57437 0.98047 0.0
C2581 C 0.71289 0.57802 0.976 0.0
C2582 C 0.7236 0.59486 0.98076 0.0
C2583 C 0.68376 0.5561 0.97633 0.0
C2584 C 0.69094 0.54186 0.98367 0.0
C2585 C 0.66639 0.55267 0.96576 0.0
C2586 C 0.65839 0.56706 0.95704 0.0
C2587 C 0.66832 0.57795 0.94493 0.0
C2588 C 0.66072 0.59153 0.93683 0.0
C2589 C 0.64315 0.59429 0.94063 0.0
C2590 C 0.63312 0.58342 0.9525 0.0
C2591 C 0.64066 0.56983 0.96065 0.0
H2592 H 0.63729 0.60481 0.93434 0.0
H2593 H 0.70997 0.4723 0.01292 0.0
H2594 H 0.23041 0.70082 0.26478 0.0
H2595 H 0.20843 0.67282 0.26423 0.0
H2596 H 0.23479 0.66153 0.31667 0.0
H2597 H 0.25691 0.68923 0.31717 0.0
H2598 H 0.22792 0.63247 0.29263 0.0
H2599 H 0.19407 0.67722 0.3146 0.0
H2600 H 0.18086 0.70475 0.3132 0.0
H2601 H 0.14902 0.68351 0.26165 0.0
H2602 H 0.16224 0.65593 0.26263 0.0
H2603 H 0.15878 0.56687 0.32271 0.0
H2604 H 0.18137 0.59358 0.31936 0.0
H2605 H 0.15246 0.60084 0.26675 0.0
H2606 H 0.12966 0.5743 0.27007 0.0
H2607 H 0.16054 0.6315 0.28872 0.0
H2608 H 0.19317 0.58589 0.26783 0.0
H2609 H 0.20615 0.55826 0.26969 0.0
H2610 H 0.24017 0.581 0.3195 0.0
H2611 H 0.2272 0.60868 0.31809 0.0
C2612 C 0.2315 0.69238 0.27619 0.0
C2613 C 0.24538 0.69727 0.29104 0.0
C2614 C 0.21891 0.67641 0.27589 0.0
C2615 C 0.2199 0.66516 0.29049 0.0
C2616 C 0.2338 0.66999 0.30524 0.0
C2617 C 0.2464 0.68588 0.30553 0.0
C2618 C 0.20648 0.64833 0.29053 0.0
C2619 C 0.21319 0.63227 0.29196 0.0
C2620 C 0.18725 0.64803 0.28918 0.0
C2621 C 0.1793 0.6646 0.28858 0.0
C2622 C 0.18437 0.67848 0.30288 0.0
C2623 C 0.17686 0.69409 0.30219 0.0
C2624 C 0.16416 0.6959 0.28732 0.0
C2625 C 0.15889 0.6821 0.27314 0.0
C2626 C 0.16638 0.66647 0.27377 0.0
C2627 C 0.15728 0.57406 0.31036 0.0
C2628 C 0.14239 0.56845 0.29668 0.0
C2629 C 0.17025 0.58929 0.30843 0.0
C2630 C 0.16867 0.59911 0.29272 0.0
C2631 C 0.15393 0.59345 0.27897 0.0
C2632 C 0.14095 0.57824 0.28089 0.0
C2633 C 0.18199 0.61566 0.291 0.0
C2634 C 0.17526 0.63167 0.28925 0.0
C2635 C 0.2012 0.61592 0.2921 0.0
C2636 C 0.20909 0.59931 0.29294 0.0
C2637 C 0.20332 0.58495 0.27926 0.0
C2638 C 0.21069 0.56929 0.28022 0.0
C2639 C 0.22394 0.56786 0.29472 0.0
C2640 C 0.22988 0.58212 0.30828 0.0
C2641 C 0.22254 0.5978 0.3074 0.0
H2642 H 0.22964 0.55572 0.29544 0.0
H2643 H 0.15835 0.70799 0.28681 0.0
H2644 H 0.86539 0.52309 0.08801 0.0
H2645 H 0.85708 0.5502 0.07615 0.0
H2646 H 0.83165 0.56061 0.12669 0.0
H2647 H 0.83976 0.53336 0.13862 0.0
H2648 H 0.80931 0.56306 0.09615 0.0
H2649 H 0.87169 0.58674 0.11814 0.0
H2650 H 0.90526 0.58779 0.12195 0.0
H2651 H 0.90767 0.59044 0.06276 0.0
H2652 H 0.87406 0.58915 0.05854 0.0
H2653 H 0.78648 0.642 0.06278 0.0
H2654 H 0.80227 0.62418 0.08359 0.0
H2655 H 0.83035 0.60603 0.03768 0.0
H2656 H 0.81489 0.62397 0.01689 0.0
H2657 H 0.85244 0.61047 0.07028 0.0
H2658 H 0.79025 0.58193 0.04793 0.0
H2659 H 0.75658 0.58005 0.04327 0.0
H2660 H 0.75402 0.58578 0.10274 0.0
H2661 H 0.78774 0.58794 0.10773 0.0
C2662 C 0.85817 0.53121 0.09669 0.0
C2663 C 0.85319 0.52603 0.11424 0.0
C2664 C 0.85354 0.54679 0.08994 0.0
C2665 C 0.84391 0.55754 0.10062 0.0
C2666 C 0.83914 0.55254 0.11825 0.0
C2667 C 0.8438 0.53697 0.12504 0.0
C2668 C 0.83774 0.57327 0.09276 0.0
C2669 C 0.8188 0.57365 0.0909 0.0
C2670 C 0.85008 0.58688 0.08554 0.0
C2671 C 0.87032 0.58772 0.08801 0.0
C2672 C 0.87935 0.58741 0.10591 0.0
C2673 C 0.8984 0.58808 0.10815 0.0
C2674 C 0.90859 0.58915 0.09261 0.0
C2675 C 0.89975 0.5896 0.07479 0.0
C2676 C 0.88071 0.58893 0.07247 0.0
C2677 C 0.79635 0.63455 0.05721 0.0
C2678 C 0.79924 0.6342 0.03812 0.0
C2679 C 0.80531 0.62433 0.06912 0.0
C2680 C 0.81721 0.61351 0.06209 0.0
C2681 C 0.82117 0.61422 0.04338 0.0
C2682 C 0.81226 0.62445 0.0315 0.0
C2683 C 0.82404 0.60008 0.07351 0.0
C2684 C 0.84304 0.60008 0.07592 0.0
C2685 C 0.81178 0.58672 0.08117 0.0
C2686 C 0.79151 0.58532 0.07819 0.0
C2687 C 0.78251 0.58292 0.06 0.0
C2688 C 0.76342 0.58179 0.05731 0.0
C2689 C 0.75317 0.58285 0.0727 0.0
C2690 C 0.76198 0.585 0.09083 0.0
C2691 C 0.78108 0.58618 0.0936 0.0
H2692 H 0.73839 0.58197 0.07059 0.0
H2693 H 0.92333 0.58966 0.09437 0.0
H2694 H 0.13901 0.07471 0.10159 0.0
H2695 H 0.15237 0.04816 0.09415 0.0
H2696 H 0.09794 0.01664 0.08269 0.0
H2697 H 0.08443 0.04313 0.09019 0.0
H2698 H 0.12189 0.99881 0.10258 0.0
H2699 H 0.12036 0.03092 0.04721 0.0
H2700 H 0.1266 0.05733 0.02914 0.0
H2701 H 0.18472 0.06076 0.04267 0.0
H2702 H 0.1788 0.03451 0.06105 0.0
H2703 H 0.16582 0.94559 0.02603 0.0
H2704 H 0.14766 0.96744 0.03686 0.0
H2705 H 0.17305 0.96798 0.09302 0.0
H2706 H 0.19123 0.94587 0.08228 0.0
H2707 H 0.16212 0.00056 0.05054 0.0
H2708 H 0.14305 0.98131 0.1238 0.0
H2709 H 0.13539 0.95425 0.14064 0.0
H2710 H 0.11571 0.92339 0.08865 0.0
H2711 H 0.12302 0.95029 0.07154 0.0
C2712 C 0.12986 0.06212 0.09759 0.0
C2713 C 0.11065 0.06107 0.09634 0.0
C2714 C 0.13753 0.04696 0.09333 0.0
C2715 C 0.12614 0.03047 0.08773 0.0
C2716 C 0.10696 0.02924 0.08701 0.0
C2717 C 0.09928 0.04442 0.09119 0.0
C2718 C 0.13423 0.01473 0.08173 0.0
C2719 C 0.13072 0.99916 0.09123 0.0
C2720 C 0.14553 0.01513 0.06676 0.0
C2721 C 0.14913 0.03087 0.05565 0.0
C2722 C 0.13446 0.0374 0.04645 0.0
C2723 C 0.13794 0.05232 0.03613 0.0
C2724 C 0.15604 0.06075 0.0348 0.0
C2725 C 0.1707 0.05424 0.04374 0.0
C2726 C 0.1673 0.03933 0.0541 0.0
C2727 C 0.1673 0.95006 0.04076 0.0
C2728 C 0.18007 0.94409 0.05327 0.0
C2729 C 0.15694 0.96261 0.04692 0.0
C2730 C 0.15906 0.96943 0.06571 0.0
C2731 C 0.17108 0.9628 0.07847 0.0
C2732 C 0.18146 0.95017 0.07231 0.0
C2733 C 0.14993 0.98458 0.07144 0.0
C2734 C 0.15332 0.00013 0.06192 0.0
C2735 C 0.13838 0.98404 0.08623 0.0
C2736 C 0.13377 0.96779 0.09638 0.0
C2737 C 0.13703 0.96876 0.11597 0.0
C2738 C 0.13276 0.95345 0.12556 0.0
C2739 C 0.12512 0.9371 0.11571 0.0
C2740 C 0.12169 0.93604 0.09626 0.0
C2741 C 0.12593 0.95132 0.0866 0.0
H2742 H 0.12183 0.92526 0.12316 0.0
H2743 H 0.15871 0.0723 0.0268 0.0
loop_
_geom_bond_atom_site_label_1
_geom_bond_atom_site_label_2
_geom_bond_distance
_geom_bond_site_symmetry_2
_ccdc_geom_bond_type
O0 Cd1 2.300 . S
O0 C7 1.275 . S
Cd1 O0 2.300 . S
Cd1 O9 2.381 . S
Cd1 O10 2.378 . S
O2 Cd3 2.385 . S
O2 C7 1.255 . S
Cd3 O2 2.385 . S
Cd3 O4 2.317 . S
O4 Cd3 2.317 . S
O4 C5 1.232 . S
C5 O4 1.232 . S
C5 O6 1.218 . S
O6 C5 1.218 . S
C7 O0 1.275 . S
C7 O2 1.255 . S
C8 O9 1.258 . S
C8 O10 1.256 . S
O9 Cd1 2.381 . S
O9 C8 1.258 . S
O10 Cd1 2.378 . S
O10 C8 1.256 . S
O11 Cd12 2.300 . S
O11 C18 1.275 . S
Cd12 O11 2.300 . S
Cd12 O20 2.381 . S
Cd12 O21 2.378 . S
O13 Cd14 2.385 . S
O13 C18 1.255 . S
Cd14 O13 2.385 . S
Cd14 O15 2.317 . S
O15 Cd14 2.317 . S
O15 C16 1.232 . S
C16 O15 1.232 . S
C16 O17 1.218 . S
O17 C16 1.218 . S
C18 O11 1.275 . S
C18 O13 1.255 . S
C19 O20 1.258 . S
C19 O21 1.256 . S
O20 Cd12 2.381 . S
O20 C19 1.258 . S
O21 Cd12 2.378 . S
O21 C19 1.256 . S
O22 Cd23 2.300 . S
O22 C29 1.275 . S
Cd23 O22 2.300 . S
Cd23 O31 2.381 . S
Cd23 O32 2.378 . S
O24 Cd25 2.385 . S
O24 C29 1.255 . S
Cd25 O24 2.385 . S
Cd25 O26 2.317 . S
O26 Cd25 2.317 . S
O26 C27 1.232 . S
C27 O26 1.232 . S
C27 O28 1.218 . S
O28 C27 1.218 . S
C29 O22 1.275 . S
C29 O24 1.255 . S
C30 O31 1.258 . S
C30 O32 1.256 . S
O31 Cd23 2.381 . S
O31 C30 1.258 . S
O32 Cd23 2.378 . S
O32 C30 1.256 . S
O33 Cd34 2.300 . S
O33 C40 1.275 . S
Cd34 O33 2.300 . S
Cd34 O42 2.381 . S
Cd34 O43 2.378 . S
O35 Cd36 2.385 . S
O35 C40 1.255 . S
Cd36 O35 2.385 . S
Cd36 O37 2.317 . S
O37 Cd36 2.317 . S
O37 C38 1.232 . S
C38 O37 1.232 . S
C38 O39 1.218 . S
O39 C38 1.218 . S
C40 O33 1.275 . S
C40 O35 1.255 . S
C41 O42 1.258 . S
C41 O43 1.256 . S
O42 Cd34 2.381 . S
O42 C41 1.258 . S
O43 Cd34 2.378 . S
O43 C41 1.256 . S
O44 Cd45 2.300 . S
O44 C51 1.275 . S
Cd45 O44 2.300 . S
Cd45 O53 2.381 . S
Cd45 O54 2.378 . S
O46 Cd47 2.385 . S
O46 C51 1.255 . S
Cd47 O46 2.385 . S
Cd47 O48 2.317 . S
O48 Cd47 2.317 . S
O48 C49 1.232 . S
C49 O48 1.232 . S
C49 O50 1.211 1_565 S
O50 C49 1.211 1_545 S
C51 O44 1.275 . S
C51 O46 1.255 . S
C52 O53 1.258 . S
C52 O54 1.256 . S
O53 Cd45 2.381 . S
O53 C52 1.258 . S
O54 Cd45 2.378 . S
O54 C52 1.256 . S
O55 Cd56 2.300 . S
O55 C62 1.275 . S
Cd56 O55 2.300 . S
Cd56 O64 2.381 . S
Cd56 O65 2.378 . S
O57 Cd58 2.385 . S
O57 C62 1.255 . S
Cd58 O57 2.385 . S
Cd58 O59 2.317 . S
O59 Cd58 2.317 . S
O59 C60 1.232 . S
C60 O59 1.232 . S
C60 O61 1.218 . S
O61 C60 1.218 . S
C62 O55 1.275 . S
C62 O57 1.255 . S
C63 O64 1.258 . S
C63 O65 1.256 . S
O64 Cd56 2.381 . S
O64 C63 1.258 . S
O65 Cd56 2.378 . S
O65 C63 1.256 . S
O66 Cd67 2.300 . S
O66 C73 1.275 . S
Cd67 O66 2.300 . S
Cd67 O75 2.381 . S
Cd67 O76 2.378 . S
O68 Cd69 2.385 . S
O68 C73 1.255 . S
Cd69 O68 2.385 . S
Cd69 O70 2.317 . S
O70 Cd69 2.317 . S
O70 C71 1.232 . S
C71 O70 1.232 . S
C71 O72 1.218 . S
O72 C71 1.218 . S
C73 O66 1.275 . S
C73 O68 1.255 . S
C74 O75 1.258 . S
C74 O76 1.256 . S
O75 Cd67 2.381 . S
O75 C74 1.258 . S
O76 Cd67 2.378 . S
O76 C74 1.256 . S
O77 Cd78 2.300 . S
O77 C84 1.275 . S
Cd78 O77 2.300 . S
Cd78 O86 2.381 . S
Cd78 O87 2.378 . S
O79 Cd80 2.385 . S
O79 C84 1.255 . S
Cd80 O79 2.385 . S
Cd80 O81 2.317 . S
O81 Cd80 2.317 . S
O81 C82 1.232 . S
C82 O81 1.232 . S
C82 O83 1.218 . S
O83 C82 1.218 . S
C84 O77 1.275 . S
C84 O79 1.255 . S
C85 O86 1.258 . S
C85 O87 1.256 . S
O86 Cd78 2.381 . S
O86 C85 1.258 . S
O87 Cd78 2.378 . S
O87 C85 1.256 . S
O88 Cd89 2.300 . S
O88 C95 1.275 . S
Cd89 O88 2.300 . S
Cd89 O97 2.381 . S
Cd89 O98 2.378 . S
O90 Cd91 2.385 . S
O90 C95 1.255 . S
Cd91 O90 2.385 . S
Cd91 O92 2.317 . S
O92 Cd91 2.317 . S
O92 C93 1.232 . S
C93 O92 1.232 . S
C93 O94 1.218 . S
O94 C93 1.218 . S
C95 O88 1.275 . S
C95 O90 1.255 . S
C96 O97 1.258 . S
C96 O98 1.256 . S
O97 Cd89 2.381 . S
O97 C96 1.258 . S
O98 Cd89 2.378 . S
O98 C96 1.256 . S
O99 Cd100 2.300 . S
O99 C106 1.275 . S
Cd100 O99 2.300 . S
Cd100 O108 2.381 . S
Cd100 O109 2.378 . S
O101 Cd102 2.385 . S
O101 C106 1.255 . S
Cd102 O101 2.385 . S
Cd102 O103 2.317 . S
O103 Cd102 2.317 . S
O103 C104 1.232 . S
C104 O103 1.232 . S
C104 O105 1.218 . S
O105 C104 1.218 . S
C106 O99 1.275 . S
C106 O101 1.255 . S
C107 O108 1.258 . S
C107 O109 1.256 . S
O108 Cd100 2.381 . S
O108 C107 1.258 . S
O109 Cd100 2.378 . S
O109 C107 1.256 . S
O110 Cd111 2.300 . S
O110 C117 1.275 . S
Cd111 O110 2.300 . S
Cd111 O119 2.381 . S
Cd111 O120 2.378 . S
O112 Cd113 2.385 . S
O112 C117 1.255 . S
Cd113 O112 2.385 . S
Cd113 O114 2.317 . S
O114 Cd113 2.317 . S
O114 C115 1.232 . S
C115 O114 1.232 . S
C115 O116 1.218 . S
O116 C115 1.218 . S
C117 O110 1.275 . S
C117 O112 1.255 . S
C118 O119 1.258 . S
C118 O120 1.256 . S
O119 Cd111 2.381 . S
O119 C118 1.258 . S
O120 Cd111 2.378 . S
O120 C118 1.256 . S
O121 Cd122 2.300 . S
O121 C128 1.275 . S
Cd122 O121 2.300 . S
Cd122 O130 2.381 . S
Cd122 O131 2.378 . S
O123 Cd124 2.385 . S
O123 C128 1.255 . S
Cd124 O123 2.385 . S
Cd124 O125 2.317 . S
O125 Cd124 2.317 . S
O125 C126 1.232 . S
C126 O125 1.232 . S
C126 O127 1.218 . S
O127 C126 1.218 . S
C128 O121 1.275 . S
C128 O123 1.255 . S
C129 O130 1.258 . S
C129 O131 1.256 . S
O130 Cd122 2.381 . S
O130 C129 1.258 . S
O131 Cd122 2.378 . S
O131 C129 1.256 . S
O132 Cd133 2.300 . S
O132 C139 1.275 . S
Cd133 O132 2.300 . S
Cd133 O141 2.381 . S
Cd133 O142 2.378 . S
O134 Cd135 2.385 . S
O134 C139 1.255 . S
Cd135 O134 2.385 . S
Cd135 O136 2.317 . S
O136 Cd135 2.317 . S
O136 C137 1.232 . S
C137 O136 1.232 . S
C137 O138 1.218 . S
O138 C137 1.218 . S
C139 O132 1.275 . S
C139 O134 1.255 . S
C140 O141 1.258 . S
C140 O142 1.256 . S
O141 Cd133 2.381 . S
O141 C140 1.258 . S
O142 Cd133 2.378 . S
O142 C140 1.256 . S
O143 Cd144 2.300 . S
O143 C150 1.275 . S
Cd144 O143 2.300 . S
Cd144 O152 2.381 . S
Cd144 O153 2.378 . S
O145 Cd146 2.385 . S
O145 C150 1.255 . S
Cd146 O145 2.385 . S
Cd146 O147 2.317 . S
O147 Cd146 2.317 . S
O147 C148 1.232 . S
C148 O147 1.232 . S
C148 O149 1.218 . S
O149 C148 1.218 . S
C150 O143 1.275 . S
C150 O145 1.255 . S
C151 O152 1.258 . S
C151 O153 1.256 . S
O152 Cd144 2.381 . S
O152 C151 1.258 . S
O153 Cd144 2.378 . S
O153 C151 1.256 . S
O154 Cd155 2.300 . S
O154 C161 1.275 . S
Cd155 O154 2.300 . S
Cd155 O163 2.381 . S
Cd155 O164 2.378 . S
O156 Cd157 2.385 . S
O156 C161 1.255 . S
Cd157 O156 2.385 . S
Cd157 O158 2.317 . S
O158 Cd157 2.317 . S
O158 C159 1.232 . S
C159 O158 1.232 . S
C159 O160 1.218 . S
O160 C159 1.218 . S
C161 O154 1.275 . S
C161 O156 1.255 . S
C162 O163 1.258 . S
C162 O164 1.256 . S
O163 Cd155 2.381 . S
O163 C162 1.258 . S
O164 Cd155 2.378 . S
O164 C162 1.256 . S
O165 Cd166 2.300 . S
O165 C172 1.275 . S
Cd166 O165 2.300 . S
Cd166 O174 2.381 . S
Cd166 O175 2.378 . S
O167 Cd168 2.385 . S
O167 C172 1.255 . S
Cd168 O167 2.385 . S
Cd168 O169 2.317 . S
O169 Cd168 2.317 . S
O169 C170 1.232 . S
C170 O169 1.232 . S
C170 O171 1.218 . S
O171 C170 1.218 . S
C172 O165 1.275 . S
C172 O167 1.255 . S
C173 O174 1.258 . S
C173 O175 1.256 . S
O174 Cd166 2.381 . S
O174 C173 1.258 . S
O175 Cd166 2.378 . S
O175 C173 1.256 . S
O176 Cd177 2.223 . S
O176 C184 1.315 . S
Cd177 O176 2.223 . S
Cd177 O180 2.297 . S
Cd177 O181 2.439 . S
Cd177 O187 2.240 . S
Cd178 O179 2.240 . S
Cd178 O186 2.223 . S
Cd178 O188 2.297 . S
Cd178 O189 2.439 . S
O179 Cd178 2.240 . S
O179 C184 1.279 . S
O180 Cd177 2.297 . S
O180 C182 1.247 . S
O181 Cd177 2.439 . S
O181 C182 1.208 . S
C182 O180 1.247 . S
C182 O181 1.208 . S
C183 O188 1.247 . S
C183 O189 1.208 . S
C184 O176 1.315 . S
C184 O179 1.279 . S
C185 O186 1.315 . S
C185 O187 1.279 . S
O186 Cd178 2.223 . S
O186 C185 1.315 . S
O187 Cd177 2.240 . S
O187 C185 1.279 . S
O188 Cd178 2.297 . S
O188 C183 1.247 . S
O189 Cd178 2.439 . S
O189 C183 1.208 . S
O190 Cd191 2.223 . S
O190 C198 1.315 . S
Cd191 O190 2.223 . S
Cd191 O194 2.297 . S
Cd191 O195 2.439 . S
Cd191 O201 2.240 . S
Cd192 O193 2.240 . S
Cd192 O200 2.223 . S
Cd192 O202 2.297 . S
Cd192 O203 2.439 . S
O193 Cd192 2.240 . S
O193 C198 1.279 . S
O194 Cd191 2.297 . S
O194 C196 1.247 . S
O195 Cd191 2.439 . S
O195 C196 1.208 . S
C196 O194 1.247 . S
C196 O195 1.208 . S
C197 O202 1.247 . S
C197 O203 1.208 . S
C198 O190 1.315 . S
C198 O193 1.279 . S
C199 O200 1.315 . S
C199 O201 1.279 . S
O200 Cd192 2.223 . S
O200 C199 1.315 . S
O201 Cd191 2.240 . S
O201 C199 1.279 . S
O202 Cd192 2.297 . S
O202 C197 1.247 . S
O203 Cd192 2.439 . S
O203 C197 1.208 . S
O204 Cd205 2.223 1_556 S
O204 C212 1.315 . S
Cd205 O204 2.223 1_554 S
Cd205 O208 2.297 . S
Cd205 O209 2.439 . S
Cd205 O215 2.240 . S
Cd206 O207 2.243 . S
Cd206 O214 2.223 1_554 S
Cd206 O216 2.297 . S
Cd206 O217 2.439 . S
O207 Cd206 2.243 . S
O207 C212 1.258 1_554 S
O208 Cd205 2.297 . S
O208 C210 1.247 . S
O209 Cd205 2.439 . S
O209 C210 1.208 . S
C210 O208 1.247 . S
C210 O209 1.208 . S
C211 O216 1.247 . S
C211 O217 1.208 . S
C212 O204 1.315 . S
C212 O207 1.258 1_556 S
C213 O214 1.315 . S
C213 O215 1.279 1_556 S
O214 Cd206 2.223 1_556 S
O214 C213 1.315 . S
O215 Cd205 2.240 . S
O215 C213 1.279 1_554 S
O216 Cd206 2.297 . S
O216 C211 1.247 . S
O217 Cd206 2.439 . S
O217 C211 1.208 . S
O218 Cd219 2.223 . S
O218 C226 1.315 . S
Cd219 O218 2.223 . S
Cd219 O222 2.297 . S
Cd219 O223 2.439 . S
Cd219 O229 2.240 . S
Cd220 O221 2.240 . S
Cd220 O228 2.223 . S
Cd220 O230 2.297 . S
Cd220 O231 2.439 . S
O221 Cd220 2.240 . S
O221 C226 1.279 . S
O222 Cd219 2.297 . S
O222 C224 1.247 . S
O223 Cd219 2.439 . S
O223 C224 1.208 . S
C224 O222 1.247 . S
C224 O223 1.208 . S
C225 O230 1.247 . S
C225 O231 1.208 . S
C226 O218 1.315 . S
C226 O221 1.279 . S
C227 O228 1.315 . S
C227 O229 1.279 . S
O228 Cd220 2.223 . S
O228 C227 1.315 . S
O229 Cd219 2.240 . S
O229 C227 1.279 . S
O230 Cd220 2.297 . S
O230 C225 1.247 . S
O231 Cd220 2.439 . S
O231 C225 1.208 . S
O232 Cd233 2.223 . S
O232 C240 1.315 . S
Cd233 O232 2.223 . S
Cd233 O236 2.297 . S
Cd233 O237 2.439 . S
Cd233 O243 2.240 . S
Cd234 O235 2.240 . S
Cd234 O242 2.223 . S
Cd234 O244 2.297 . S
Cd234 O245 2.439 . S
O235 Cd234 2.240 . S
O235 C240 1.279 . S
O236 Cd233 2.297 . S
O236 C238 1.247 . S
O237 Cd233 2.439 . S
O237 C238 1.208 . S
C238 O236 1.247 . S
C238 O237 1.208 . S
C239 O244 1.247 . S
C239 O245 1.208 . S
C240 O232 1.315 . S
C240 O235 1.279 . S
C241 O242 1.315 . S
C241 O243 1.279 . S
O242 Cd234 2.223 . S
O242 C241 1.315 . S
O243 Cd233 2.240 . S
O243 C241 1.279 . S
O244 Cd234 2.297 . S
O244 C239 1.247 . S
O245 Cd234 2.439 . S
O245 C239 1.208 . S
O246 Cd247 2.223 . S
O246 C254 1.315 . S
Cd247 O246 2.223 . S
Cd247 O250 2.297 . S
Cd247 O251 2.439 . S
Cd247 O257 2.240 . S
Cd248 O249 2.240 . S
Cd248 O256 2.223 . S
Cd248 O258 2.297 . S
Cd248 O259 2.439 . S
O249 Cd248 2.240 . S
O249 C254 1.279 . S
O250 Cd247 2.297 . S
O250 C252 1.247 . S
O251 Cd247 2.439 . S
O251 C252 1.208 . S
C252 O250 1.247 . S
C252 O251 1.208 . S
C253 O258 1.247 . S
C253 O259 1.208 . S
C254 O246 1.315 . S
C254 O249 1.279 . S
C255 O256 1.315 . S
C255 O257 1.279 . S
O256 Cd248 2.223 . S
O256 C255 1.315 . S
O257 Cd247 2.240 . S
O257 C255 1.279 . S
O258 Cd248 2.297 . S
O258 C253 1.247 . S
O259 Cd248 2.439 . S
O259 C253 1.208 . S
O260 Cd261 2.223 . S
O260 C268 1.315 . S
Cd261 O260 2.223 . S
Cd261 O264 2.297 . S
Cd261 O265 2.439 . S
Cd261 O271 2.240 . S
Cd262 O263 2.240 . S
Cd262 O270 2.223 . S
Cd262 O272 2.297 . S
Cd262 O273 2.439 . S
O263 Cd262 2.240 . S
O263 C268 1.279 . S
O264 Cd261 2.297 . S
O264 C266 1.247 . S
O265 Cd261 2.439 . S
O265 C266 1.208 . S
C266 O264 1.247 . S
C266 O265 1.208 . S
C267 O272 1.247 . S
C267 O273 1.208 . S
C268 O260 1.315 . S
C268 O263 1.279 . S
C269 O270 1.315 . S
C269 O271 1.279 . S
O270 Cd262 2.223 . S
O270 C269 1.315 . S
O271 Cd261 2.240 . S
O271 C269 1.279 . S
O272 Cd262 2.297 . S
O272 C267 1.247 . S
O273 Cd262 2.439 . S
O273 C267 1.208 . S
O274 Cd275 2.195 1_545 S
O274 C282 1.315 . S
Cd275 O274 2.195 1_565 S
Cd275 O278 2.314 . S
Cd275 O279 2.458 . S
Cd275 O285 2.227 1_565 S
Cd276 O277 2.240 . S
Cd276 O284 2.223 . S
Cd276 O286 2.297 . S
Cd276 O287 2.439 1_545 S
O277 Cd276 2.240 . S
O277 C282 1.279 . S
O278 Cd275 2.314 . S
O278 C280 1.247 . S
O279 Cd275 2.458 . S
O279 C280 1.208 . S
C280 O278 1.247 . S
C280 O279 1.208 . S
C281 O286 1.247 1_565 S
C281 O287 1.208 . S
C282 O274 1.315 . S
C282 O277 1.279 . S
C283 O284 1.315 . S
C283 O285 1.279 . S
O284 Cd276 2.223 . S
O284 C283 1.315 . S
O285 Cd275 2.227 1_545 S
O285 C283 1.279 . S
O286 Cd276 2.297 . S
O286 C281 1.247 1_545 S
O287 Cd276 2.439 1_565 S
O287 C281 1.208 . S
O288 Cd289 2.223 . S
O288 C296 1.315 . S
Cd289 O288 2.223 . S
Cd289 O292 2.297 1_655 S
Cd289 O293 2.439 1_655 S
Cd289 O299 2.240 . S
Cd290 O291 2.240 . S
Cd290 O298 2.223 1_455 S
Cd290 O300 2.297 . S
Cd290 O301 2.439 . S
O291 Cd290 2.240 . S
O291 C296 1.279 1_455 S
O292 Cd289 2.297 1_455 S
O292 C294 1.247 . S
O293 Cd289 2.439 1_455 S
O293 C294 1.208 . S
C294 O292 1.247 . S
C294 O293 1.208 . S
C295 O300 1.247 . S
C295 O301 1.208 . S
C296 O288 1.315 . S
C296 O291 1.279 1_655 S
C297 O298 1.315 . S
C297 O299 1.279 . S
O298 Cd290 2.223 1_655 S
O298 C297 1.315 . S
O299 Cd289 2.240 . S
O299 C297 1.279 . S
O300 Cd290 2.297 . S
O300 C295 1.247 . S
O301 Cd290 2.439 . S
O301 C295 1.208 . S
O302 Cd303 2.223 . S
O302 C310 1.315 . S
Cd303 O302 2.223 . S
Cd303 O306 2.297 . S
Cd303 O307 2.439 . S
Cd303 O313 2.240 . S
Cd304 O305 2.240 . S
Cd304 O312 2.223 . S
Cd304 O314 2.297 . S
Cd304 O315 2.439 . S
O305 Cd304 2.240 . S
O305 C310 1.279 . S
O306 Cd303 2.297 . S
O306 C308 1.247 . S
O307 Cd303 2.439 . S
O307 C308 1.208 . S
C308 O306 1.247 . S
C308 O307 1.208 . S
C309 O314 1.247 . S
C309 O315 1.208 . S
C310 O302 1.315 . S
C310 O305 1.279 . S
C311 O312 1.315 . S
C311 O313 1.279 . S
O312 Cd304 2.223 . S
O312 C311 1.315 . S
O313 Cd303 2.240 . S
O313 C311 1.279 . S
O314 Cd304 2.297 . S
O314 C309 1.247 . S
O315 Cd304 2.439 . S
O315 C309 1.208 . S
O316 Cd317 2.258 . S
O316 C324 1.300 1_455 S
Cd317 O316 2.258 . S
Cd317 O320 2.297 . S
Cd317 O321 2.439 . S
Cd317 O327 2.240 . S
Cd318 O319 2.240 . S
Cd318 O326 2.223 1_455 S
Cd318 O328 2.297 . S
Cd318 O329 2.439 . S
O319 Cd318 2.240 . S
O319 C324 1.279 1_455 S
O320 Cd317 2.297 . S
O320 C322 1.247 . S
O321 Cd317 2.439 . S
O321 C322 1.208 . S
C322 O320 1.247 . S
C322 O321 1.208 . S
C323 O328 1.247 . S
C323 O329 1.208 . S
C324 O316 1.300 1_655 S
C324 O319 1.279 1_655 S
C325 O326 1.291 1_455 S
C325 O327 1.310 . S
O326 Cd318 2.223 1_655 S
O326 C325 1.291 1_655 S
O327 Cd317 2.240 . S
O327 C325 1.310 . S
O328 Cd318 2.297 . S
O328 C323 1.247 . S
O329 Cd318 2.439 . S
O329 C323 1.208 . S
O330 Cd331 2.223 . S
O330 C338 1.315 . S
Cd331 O330 2.223 . S
Cd331 O334 2.297 . S
Cd331 O335 2.439 . S
Cd331 O341 2.240 . S
Cd332 O333 2.240 . S
Cd332 O340 2.223 . S
Cd332 O342 2.297 . S
Cd332 O343 2.439 . S
O333 Cd332 2.240 . S
O333 C338 1.279 . S
O334 Cd331 2.297 . S
O334 C336 1.247 . S
O335 Cd331 2.439 . S
O335 C336 1.208 . S
C336 O334 1.247 . S
C336 O335 1.208 . S
C337 O342 1.247 . S
C337 O343 1.208 . S
C338 O330 1.315 . S
C338 O333 1.279 . S
C339 O340 1.315 . S
C339 O341 1.279 . S
O340 Cd332 2.223 . S
O340 C339 1.315 . S
O341 Cd331 2.240 . S
O341 C339 1.279 . S
O342 Cd332 2.297 . S
O342 C337 1.247 . S
O343 Cd332 2.439 . S
O343 C337 1.208 . S
H344 C362 0.951 . S
H345 C364 0.951 . S
H346 C366 0.950 . S
H347 C367 0.950 . S
H348 C369 0.950 . S
H349 C372 0.950 . S
H350 C373 0.950 . S
H351 C375 0.950 . S
H352 C376 0.950 . S
H353 C377 0.951 . S
H354 C379 0.951 . S
H355 C381 0.950 . S
H356 C382 0.950 . S
H357 C384 0.950 . S
H358 C387 0.950 . S
H359 C388 0.950 . S
H360 C390 0.950 . S
H361 C391 0.950 . S
C362 H344 0.951 . S
C362 C363 1.366 . S
C362 C364 1.388 . S
C363 C362 1.366 . S
C363 C367 1.385 . S
C364 H345 0.951 . S
C364 C362 1.388 . S
C364 C365 1.366 . S
C365 C364 1.366 . S
C365 C366 1.414 . S
C365 C368 1.499 . S
C366 H346 0.950 . S
C366 C365 1.414 . S
C366 C367 1.374 . S
C367 H347 0.950 . S
C367 C363 1.385 . S
C367 C366 1.374 . S
C368 C365 1.499 . S
C368 C369 1.373 . S
C368 C370 1.389 . S
C369 H348 0.950 . S
C369 C368 1.373 . S
C369 C385 1.377 . S
C370 C368 1.389 . S
C370 C371 1.524 . S
C370 C384 1.377 . S
C371 C370 1.524 . S
C371 C372 1.397 . S
C371 C376 1.363 . S
C372 H349 0.950 . S
C372 C371 1.397 . S
C372 C373 1.334 . S
C373 H350 0.950 . S
C373 C372 1.334 . S
C373 C374 1.287 . S
C374 C373 1.287 . S
C374 C375 1.524 . S
C374 H393 0.913 . S
C375 H351 0.950 . S
C375 C374 1.524 . S
C375 C376 1.415 . S
C376 H352 0.950 . S
C376 C371 1.363 . S
C376 C375 1.415 . S
C377 H353 0.951 . S
C377 C378 1.366 1_556 S
C377 C379 1.388 . S
C378 C377 1.366 1_554 S
C378 C382 1.385 . S
C379 H354 0.951 . S
C379 C377 1.388 . S
C379 C380 1.366 . S
C380 C379 1.366 . S
C380 C381 1.414 . S
C380 C383 1.499 . S
C381 H355 0.950 . S
C381 C380 1.414 . S
C381 C382 1.374 1_556 S
C382 H356 0.950 . S
C382 C378 1.385 . S
C382 C381 1.374 1_554 S
C383 C380 1.499 . S
C383 C384 1.373 . S
C383 C385 1.389 . S
C384 H357 0.950 . S
C384 C370 1.377 . S
C384 C383 1.373 . S
C385 C369 1.377 . S
C385 C383 1.389 . S
C385 C386 1.524 . S
C386 C385 1.524 . S
C386 C387 1.397 . S
C386 C391 1.363 . S
C387 H358 0.950 . S
C387 C386 1.397 . S
C387 C388 1.334 . S
C388 H359 0.950 . S
C388 C387 1.334 . S
C388 C389 1.287 . S
C389 C388 1.287 . S
C389 C390 1.524 . S
C389 H392 0.999 . S
C390 H360 0.950 . S
C390 C389 1.524 . S
C390 C391 1.415 . S
C391 H361 0.950 . S
C391 C386 1.363 . S
C391 C390 1.415 . S
H392 C389 0.999 . S
H393 C374 0.913 . S
H394 C412 0.951 . S
H395 C414 0.951 . S
H396 C416 0.950 . S
H397 C417 0.950 . S
H398 C419 0.950 . S
H399 C422 0.950 . S
H400 C423 0.950 . S
H401 C425 0.950 . S
H402 C426 0.950 . S
H403 C427 0.951 . S
H404 C429 0.951 . S
H405 C431 0.950 . S
H406 C432 0.950 . S
H407 C434 0.950 . S
H408 C437 0.950 . S
H409 C438 0.960 . S
H410 C440 0.950 . S
H411 C441 0.950 . S
C412 H394 0.951 . S
C412 C413 1.366 . S
C412 C414 1.388 . S
C413 C412 1.366 . S
C413 C417 1.385 . S
C414 H395 0.951 . S
C414 C412 1.388 . S
C414 C415 1.366 . S
C415 C414 1.366 . S
C415 C416 1.414 . S
C415 C418 1.551 . S
C416 H396 0.950 . S
C416 C415 1.414 . S
C416 C417 1.374 . S
C417 H397 0.950 . S
C417 C413 1.385 . S
C417 C416 1.374 . S
C418 C415 1.551 . S
C418 C419 1.377 . S
C418 C420 1.335 1_655 S
C419 H398 0.950 . S
C419 C418 1.377 . S
C419 C435 1.377 1_655 S
C420 C418 1.335 1_455 S
C420 C421 1.524 . S
C420 C434 1.377 . S
C421 C420 1.524 . S
C421 C422 1.397 . S
C421 C426 1.363 . S
C422 H399 0.950 . S
C422 C421 1.397 . S
C422 C423 1.334 . S
C423 H400 0.950 . S
C423 C422 1.334 . S
C423 C424 1.287 . S
C424 C423 1.287 . S
C424 C425 1.524 . S
C424 H443 0.913 . S
C425 H401 0.950 . S
C425 C424 1.524 . S
C425 C426 1.415 . S
C426 H402 0.950 . S
C426 C421 1.363 . S
C426 C425 1.415 . S
C427 H403 0.951 . S
C427 C428 1.366 . S
C427 C429 1.388 . S
C428 C427 1.366 . S
C428 C432 1.385 . S
C429 H404 0.951 . S
C429 C427 1.388 . S
C429 C430 1.366 . S
C430 C429 1.366 . S
C430 C431 1.414 . S
C430 C433 1.499 . S
C431 H405 0.950 . S
C431 C430 1.414 . S
C431 C432 1.374 . S
C432 H406 0.950 . S
C432 C428 1.385 . S
C432 C431 1.374 . S
C433 C430 1.499 . S
C433 C434 1.373 . S
C433 C435 1.389 . S
C434 H407 0.950 . S
C434 C420 1.377 . S
C434 C433 1.373 . S
C435 C419 1.377 1_455 S
C435 C433 1.389 . S
C435 C436 1.524 . S
C436 C435 1.524 . S
C436 C437 1.397 . S
C436 C441 1.363 1_455 S
C437 H408 0.950 . S
C437 C436 1.397 . S
C437 C438 1.337 . S
C438 H409 0.960 . S
C438 C437 1.337 . S
C438 C439 1.275 1_455 S
C439 C438 1.275 1_655 S
C439 C440 1.524 . S
C439 H442 0.999 . S
C440 H410 0.950 . S
C440 C439 1.524 . S
C440 C441 1.415 . S
C441 H411 0.950 . S
C441 C436 1.363 1_655 S
C441 C440 1.415 . S
H442 C439 0.999 . S
H443 C424 0.913 . S
H444 C462 0.951 . S
H445 C464 0.951 . S
H446 C466 0.950 . S
H447 C467 0.950 . S
H448 C469 0.950 . S
H449 C472 0.950 . S
H450 C473 0.950 . S
H451 C475 0.950 . S
H452 C476 0.950 . S
H453 C477 0.951 . S
H454 C479 0.951 . S
H455 C481 0.950 . S
H456 C482 0.950 . S
H457 C484 0.950 . S
H458 C487 0.950 . S
H459 C488 0.950 . S
H460 C490 0.950 . S
H461 C491 0.950 . S
C462 H444 0.951 . S
C462 C463 1.366 . S
C462 C464 1.388 . S
C463 C462 1.366 . S
C463 C467 1.385 . S
C464 H445 0.951 . S
C464 C462 1.388 . S
C464 C465 1.366 . S
C465 C464 1.366 . S
C465 C466 1.414 . S
C465 C468 1.499 . S
C466 H446 0.950 . S
C466 C465 1.414 . S
C466 C467 1.374 . S
C467 H447 0.950 . S
C467 C463 1.385 . S
C467 C466 1.374 . S
C468 C465 1.499 . S
C468 C469 1.373 . S
C468 C470 1.389 . S
C469 H448 0.950 . S
C469 C468 1.373 . S
C469 C485 1.377 . S
C470 C468 1.389 . S
C470 C471 1.524 . S
C470 C484 1.377 . S
C471 C470 1.524 . S
C471 C472 1.397 . S
C471 C476 1.363 . S
C472 H449 0.950 . S
C472 C471 1.397 . S
C472 C473 1.334 . S
C473 H450 0.950 . S
C473 C472 1.334 . S
C473 C474 1.287 . S
C474 C473 1.287 . S
C474 C475 1.524 . S
C474 H493 0.913 . S
C475 H451 0.950 . S
C475 C474 1.524 . S
C475 C476 1.415 . S
C476 H452 0.950 . S
C476 C471 1.363 . S
C476 C475 1.415 . S
C477 H453 0.951 . S
C477 C478 1.366 . S
C477 C479 1.388 . S
C478 C477 1.366 . S
C478 C482 1.385 . S
C479 H454 0.951 . S
C479 C477 1.388 . S
C479 C480 1.366 . S
C480 C479 1.366 . S
C480 C481 1.414 . S
C480 C483 1.499 . S
C481 H455 0.950 . S
C481 C480 1.414 . S
C481 C482 1.374 . S
C482 H456 0.950 . S
C482 C478 1.385 . S
C482 C481 1.374 . S
C483 C480 1.499 . S
C483 C484 1.373 . S
C483 C485 1.389 . S
C484 H457 0.950 . S
C484 C470 1.377 . S
C484 C483 1.373 . S
C485 C469 1.377 . S
C485 C483 1.389 . S
C485 C486 1.524 . S
C486 C485 1.524 . S
C486 C487 1.397 . S
C486 C491 1.363 . S
C487 H458 0.950 . S
C487 C486 1.397 . S
C487 C488 1.334 . S
C488 H459 0.950 . S
C488 C487 1.334 . S
C488 C489 1.287 . S
C489 C488 1.287 . S
C489 C490 1.524 . S
C489 H492 0.999 . S
C490 H460 0.950 . S
C490 C489 1.524 . S
C490 C491 1.415 . S
C491 H461 0.950 . S
C491 C486 1.363 . S
C491 C490 1.415 . S
H492 C489 0.999 . S
H493 C474 0.913 . S
H494 C512 0.964 . S
H495 C514 0.951 . S
H496 C516 0.946 1_655 S
H497 C517 0.950 . S
H498 C519 0.922 1_565 S
H499 C522 0.950 1_565 S
H500 C523 0.948 . S
H501 C525 0.950 . S
H502 C526 0.948 . S
H503 C527 0.951 . S
H504 C529 0.951 . S
H505 C531 0.950 . S
H506 C532 0.950 . S
H507 C534 0.950 . S
H508 C537 0.950 . S
H509 C538 0.950 . S
H510 C540 0.950 . S
H511 C541 0.950 . S
C512 H494 0.964 . S
C512 C513 1.335 1_545 S
C512 C514 1.406 . S
C513 C512 1.335 1_565 S
C513 C517 1.385 . S
C514 H495 0.951 . S
C514 C512 1.406 . S
C514 C515 1.366 1_545 S
C515 C514 1.366 1_565 S
C515 C516 1.414 . S
C515 C518 1.499 1_465 S
C516 H496 0.946 1_455 S
C516 C515 1.414 . S
C516 C517 1.374 . S
C517 H497 0.950 . S
C517 C513 1.385 . S
C517 C516 1.374 . S
C518 C515 1.499 1_645 S
C518 C519 1.379 . S
C518 C520 1.389 . S
C519 H498 0.922 1_545 S
C519 C518 1.379 . S
C519 C535 1.400 . S
C520 C518 1.389 . S
C520 C521 1.524 . S
C520 C534 1.377 . S
C521 C520 1.524 . S
C521 C522 1.397 . S
C521 C526 1.360 1_655 S
C522 H499 0.950 1_545 S
C522 C521 1.397 . S
C522 C523 1.332 1_655 S
C523 H500 0.948 . S
C523 C522 1.332 1_455 S
C523 C524 1.288 . S
C524 C523 1.288 . S
C524 C525 1.524 . S
C524 H543 0.913 . S
C525 H501 0.950 . S
C525 C524 1.524 . S
C525 C526 1.425 . S
C526 H502 0.948 . S
C526 C521 1.360 1_455 S
C526 C525 1.425 . S
C527 H503 0.951 . S
C527 C528 1.366 . S
C527 C529 1.388 . S
C528 C527 1.366 . S
C528 C532 1.385 . S
C529 H504 0.951 . S
C529 C527 1.388 . S
C529 C530 1.366 . S
C530 C529 1.366 . S
C530 C531 1.414 . S
C530 C533 1.499 . S
C531 H505 0.950 . S
C531 C530 1.414 . S
C531 C532 1.374 . S
C532 H506 0.950 . S
C532 C528 1.385 . S
C532 C531 1.374 . S
C533 C530 1.499 . S
C533 C534 1.373 . S
C533 C535 1.389 . S
C534 H507 0.950 . S
C534 C520 1.377 . S
C534 C533 1.373 . S
C535 C519 1.400 . S
C535 C533 1.389 . S
C535 C536 1.524 . S
C536 C535 1.524 . S
C536 C537 1.397 . S
C536 C541 1.363 1_545 S
C537 H508 0.950 . S
C537 C536 1.397 . S
C537 C538 1.334 . S
C538 H509 0.950 . S
C538 C537 1.334 . S
C538 C539 1.287 1_545 S
C539 C538 1.287 1_565 S
C539 C540 1.524 . S
C539 H542 0.999 . S
C540 H510 0.950 . S
C540 C539 1.524 . S
C540 C541 1.415 . S
C541 H511 0.950 . S
C541 C536 1.363 1_565 S
C541 C540 1.415 . S
H542 C539 0.999 . S
H543 C524 0.913 . S
H544 C562 0.951 . S
H545 C564 0.951 . S
H546 C566 0.950 . S
H547 C567 0.950 . S
H548 C569 0.950 . S
H549 C572 0.950 . S
H550 C573 0.950 . S
H551 C575 0.950 . S
H552 C576 0.950 . S
H553 C577 0.951 . S
H554 C579 0.951 . S
H555 C581 0.950 . S
H556 C582 0.950 . S
H557 C584 0.950 . S
H558 C587 0.950 . S
H559 C588 0.950 . S
H560 C590 0.950 . S
H561 C591 0.950 . S
C562 H544 0.951 . S
C562 C563 1.366 . S
C562 C564 1.388 . S
C563 C562 1.366 . S
C563 C567 1.385 . S
C564 H545 0.951 . S
C564 C562 1.388 . S
C564 C565 1.366 . S
C565 C564 1.366 . S
C565 C566 1.414 . S
C565 C568 1.499 . S
C566 H546 0.950 . S
C566 C565 1.414 . S
C566 C567 1.374 . S
C567 H547 0.950 . S
C567 C563 1.385 . S
C567 C566 1.374 . S
C568 C565 1.499 . S
C568 C569 1.373 . S
C568 C570 1.389 . S
C569 H548 0.950 . S
C569 C568 1.373 . S
C569 C585 1.377 . S
C570 C568 1.389 . S
C570 C571 1.524 . S
C570 C584 1.377 . S
C571 C570 1.524 . S
C571 C572 1.397 . S
C571 C576 1.363 . S
C572 H549 0.950 . S
C572 C571 1.397 . S
C572 C573 1.334 . S
C573 H550 0.950 . S
C573 C572 1.334 . S
C573 C574 1.287 . S
C574 C573 1.287 . S
C574 C575 1.524 . S
C574 H593 0.913 . S
C575 H551 0.950 . S
C575 C574 1.524 . S
C575 C576 1.415 . S
C576 H552 0.950 . S
C576 C571 1.363 . S
C576 C575 1.415 . S
C577 H553 0.951 . S
C577 C578 1.366 . S
C577 C579 1.388 . S
C578 C577 1.366 . S
C578 C582 1.385 . S
C579 H554 0.951 . S
C579 C577 1.388 . S
C579 C580 1.366 . S
C580 C579 1.366 . S
C580 C581 1.414 . S
C580 C583 1.499 . S
C581 H555 0.950 . S
C581 C580 1.414 . S
C581 C582 1.374 . S
C582 H556 0.950 . S
C582 C578 1.385 . S
C582 C581 1.374 . S
C583 C580 1.499 . S
C583 C584 1.373 . S
C583 C585 1.389 . S
C584 H557 0.950 . S
C584 C570 1.377 . S
C584 C583 1.373 . S
C585 C569 1.377 . S
C585 C583 1.389 . S
C585 C586 1.524 . S
C586 C585 1.524 . S
C586 C587 1.397 . S
C586 C591 1.363 . S
C587 H558 0.950 . S
C587 C586 1.397 . S
C587 C588 1.334 . S
C588 H559 0.950 . S
C588 C587 1.334 . S
C588 C589 1.287 . S
C589 C588 1.287 . S
C589 C590 1.524 . S
C589 H592 0.999 . S
C590 H560 0.950 . S
C590 C589 1.524 . S
C590 C591 1.415 . S
C591 H561 0.950 . S
C591 C586 1.363 . S
C591 C590 1.415 . S
H592 C589 0.999 . S
H593 C574 0.913 . S
H594 C612 0.951 . S
H595 C614 0.951 . S
H596 C616 0.950 . S
H597 C617 0.950 . S
H598 C619 0.950 . S
H599 C622 0.950 . S
H600 C623 0.950 . S
H601 C625 0.950 . S
H602 C626 0.950 . S
H603 C627 0.951 . S
H604 C629 0.951 . S
H605 C631 0.950 . S
H606 C632 0.950 . S
H607 C634 0.950 . S
H608 C637 0.950 . S
H609 C638 0.950 . S
H610 C640 0.950 . S
H611 C641 0.950 . S
C612 H594 0.951 . S
C612 C613 1.366 . S
C612 C614 1.388 . S
C613 C612 1.366 . S
C613 C617 1.385 . S
C614 H595 0.951 . S
C614 C612 1.388 . S
C614 C615 1.366 . S
C615 C614 1.366 . S
C615 C616 1.414 . S
C615 C618 1.499 . S
C616 H596 0.950 . S
C616 C615 1.414 . S
C616 C617 1.374 . S
C617 H597 0.950 . S
C617 C613 1.385 . S
C617 C616 1.374 . S
C618 C615 1.499 . S
C618 C619 1.373 . S
C618 C620 1.389 . S
C619 H598 0.950 . S
C619 C618 1.373 . S
C619 C635 1.377 . S
C620 C618 1.389 . S
C620 C621 1.524 . S
C620 C634 1.377 . S
C621 C620 1.524 . S
C621 C622 1.397 . S
C621 C626 1.363 . S
C622 H599 0.950 . S
C622 C621 1.397 . S
C622 C623 1.334 . S
C623 H600 0.950 . S
C623 C622 1.334 . S
C623 C624 1.287 . S
C624 C623 1.287 . S
C624 C625 1.524 . S
C624 H643 0.913 . S
C625 H601 0.950 . S
C625 C624 1.524 . S
C625 C626 1.415 . S
C626 H602 0.950 . S
C626 C621 1.363 . S
C626 C625 1.415 . S
C627 H603 0.951 . S
C627 C628 1.366 . S
C627 C629 1.388 . S
C628 C627 1.366 . S
C628 C632 1.385 . S
C629 H604 0.951 . S
C629 C627 1.388 . S
C629 C630 1.366 . S
C630 C629 1.366 . S
C630 C631 1.414 . S
C630 C633 1.499 . S
C631 H605 0.950 . S
C631 C630 1.414 . S
C631 C632 1.374 . S
C632 H606 0.950 . S
C632 C628 1.385 . S
C632 C631 1.374 . S
C633 C630 1.499 . S
C633 C634 1.373 . S
C633 C635 1.389 . S
C634 H607 0.950 . S
C634 C620 1.377 . S
C634 C633 1.373 . S
C635 C619 1.377 . S
C635 C633 1.389 . S
C635 C636 1.524 . S
C636 C635 1.524 . S
C636 C637 1.397 . S
C636 C641 1.363 . S
C637 H608 0.950 . S
C637 C636 1.397 . S
C637 C638 1.334 . S
C638 H609 0.950 . S
C638 C637 1.334 . S
C638 C639 1.287 . S
C639 C638 1.287 . S
C639 C640 1.524 . S
C639 H642 0.999 . S
C640 H610 0.950 . S
C640 C639 1.524 . S
C640 C641 1.415 . S
C641 H611 0.950 . S
C641 C636 1.363 . S
C641 C640 1.415 . S
H642 C639 0.999 . S
H643 C624 0.913 . S
H644 C662 0.951 . S
H645 C664 0.951 . S
H646 C666 0.950 . S
H647 C667 0.950 . S
H648 C669 0.950 . S
H649 C672 0.950 . S
H650 C673 0.950 . S
H651 C675 0.950 . S
H652 C676 0.950 . S
H653 C677 0.951 . S
H654 C679 0.951 . S
H655 C681 0.950 . S
H656 C682 0.950 . S
H657 C684 0.950 . S
H658 C687 0.950 . S
H659 C688 0.950 . S
H660 C690 0.950 . S
H661 C691 0.950 . S
C662 H644 0.951 . S
C662 C663 1.366 . S
C662 C664 1.388 . S
C663 C662 1.366 . S
C663 C667 1.385 . S
C664 H645 0.951 . S
C664 C662 1.388 . S
C664 C665 1.366 . S
C665 C664 1.366 . S
C665 C666 1.414 . S
C665 C668 1.499 . S
C666 H646 0.950 . S
C666 C665 1.414 . S
C666 C667 1.374 . S
C667 H647 0.950 . S
C667 C663 1.385 . S
C667 C666 1.374 . S
C668 C665 1.499 . S
C668 C669 1.373 . S
C668 C670 1.389 . S
C669 H648 0.950 . S
C669 C668 1.373 . S
C669 C685 1.377 . S
C670 C668 1.389 . S
C670 C671 1.524 . S
C670 C684 1.377 . S
C671 C670 1.524 . S
C671 C672 1.397 . S
C671 C676 1.363 . S
C672 H649 0.950 . S
C672 C671 1.397 . S
C672 C673 1.334 . S
C673 H650 0.950 . S
C673 C672 1.334 . S
C673 C674 1.287 . S
C674 C673 1.287 . S
C674 C675 1.524 . S
C674 H693 0.913 . S
C675 H651 0.950 . S
C675 C674 1.524 . S
C675 C676 1.415 . S
C676 H652 0.950 . S
C676 C671 1.363 . S
C676 C675 1.415 . S
C677 H653 0.951 . S
C677 C678 1.366 . S
C677 C679 1.388 . S
C678 C677 1.366 . S
C678 C682 1.385 . S
C679 H654 0.951 . S
C679 C677 1.388 . S
C679 C680 1.366 . S
C680 C679 1.366 . S
C680 C681 1.414 . S
C680 C683 1.499 . S
C681 H655 0.950 . S
C681 C680 1.414 . S
C681 C682 1.374 . S
C682 H656 0.950 . S
C682 C678 1.385 . S
C682 C681 1.374 . S
C683 C680 1.499 . S
C683 C684 1.373 . S
C683 C685 1.389 . S
C684 H657 0.950 . S
C684 C670 1.377 . S
C684 C683 1.373 . S
C685 C669 1.377 . S
C685 C683 1.389 . S
C685 C686 1.524 . S
C686 C685 1.524 . S
C686 C687 1.397 . S
C686 C691 1.363 . S
C687 H658 0.950 . S
C687 C686 1.397 . S
C687 C688 1.334 . S
C688 H659 0.950 . S
C688 C687 1.334 . S
C688 C689 1.287 . S
C689 C688 1.287 . S
C689 C690 1.524 . S
C689 H692 0.999 . S
C690 H660 0.950 . S
C690 C689 1.524 . S
C690 C691 1.415 . S
C691 H661 0.950 . S
C691 C686 1.363 . S
C691 C690 1.415 . S
H692 C689 0.999 . S
H693 C674 0.913 . S
H694 C712 0.951 . S
H695 C714 0.951 . S
H696 C716 0.950 . S
H697 C717 0.950 . S
H698 C719 0.950 . S
H699 C722 0.950 . S
H700 C723 0.950 . S
H701 C725 0.950 . S
H702 C726 0.950 . S
H703 C727 0.951 . S
H704 C729 0.951 . S
H705 C731 0.950 . S
H706 C732 0.925 1_545 S
H707 C734 0.950 . S
H708 C737 0.950 . S
H709 C738 0.950 . S
H710 C740 0.950 . S
H711 C741 0.950 . S
C712 H694 0.951 . S
C712 C713 1.366 . S
C712 C714 1.388 . S
C713 C712 1.366 . S
C713 C717 1.385 . S
C714 H695 0.951 . S
C714 C712 1.388 . S
C714 C715 1.366 . S
C715 C714 1.366 . S
C715 C716 1.414 . S
C715 C718 1.499 . S
C716 H696 0.950 . S
C716 C715 1.414 . S
C716 C717 1.374 . S
C717 H697 0.950 . S
C717 C713 1.385 . S
C717 C716 1.374 . S
C718 C715 1.499 . S
C718 C719 1.373 . S
C718 C720 1.389 . S
C719 H698 0.950 . S
C719 C718 1.373 . S
C719 C735 1.377 . S
C720 C718 1.389 . S
C720 C721 1.524 . S
C720 C734 1.377 . S
C721 C720 1.524 . S
C721 C722 1.397 . S
C721 C726 1.363 1_565 S
C722 H699 0.950 . S
C722 C721 1.397 . S
C722 C723 1.334 1_565 S
C723 H700 0.950 . S
C723 C722 1.334 1_545 S
C723 C724 1.287 . S
C724 C723 1.287 . S
C724 C725 1.524 . S
C724 H743 0.913 . S
C725 H701 0.950 . S
C725 C724 1.524 . S
C725 C726 1.415 . S
C726 H702 0.950 . S
C726 C721 1.363 1_545 S
C726 C725 1.415 . S
C727 H703 0.951 . S
C727 C728 1.366 . S
C727 C729 1.388 . S
C728 C727 1.366 . S
C728 C732 1.385 . S
C729 H704 0.951 . S
C729 C727 1.388 . S
C729 C730 1.366 . S
C730 C729 1.366 . S
C730 C731 1.414 . S
C730 C733 1.499 . S
C731 H705 0.950 . S
C731 C730 1.414 . S
C731 C732 1.374 . S
C732 H706 0.925 1_565 S
C732 C728 1.385 . S
C732 C731 1.374 . S
C733 C730 1.499 . S
C733 C734 1.373 . S
C733 C735 1.389 . S
C734 H707 0.950 . S
C734 C720 1.377 . S
C734 C733 1.373 . S
C735 C719 1.377 . S
C735 C733 1.389 . S
C735 C736 1.524 . S
C736 C735 1.524 . S
C736 C737 1.397 . S
C736 C741 1.363 . S
C737 H708 0.950 . S
C737 C736 1.397 . S
C737 C738 1.334 . S
C738 H709 0.950 . S
C738 C737 1.334 . S
C738 C739 1.287 . S
C739 C738 1.287 . S
C739 C740 1.524 . S
C739 H742 0.999 . S
C740 H710 0.950 . S
C740 C739 1.524 . S
C740 C741 1.415 . S
C741 H711 0.950 . S
C741 C736 1.363 . S
C741 C740 1.415 . S
H742 C739 0.999 . S
H743 C724 0.913 . S
H744 C762 0.951 . S
H745 C764 0.951 . S
H746 C766 0.950 . S
H747 C767 0.950 . S
H748 C769 0.950 . S
H749 C772 0.950 . S
H750 C773 0.950 . S
H751 C775 0.950 . S
H752 C776 0.950 . S
H753 C777 0.951 . S
H754 C779 0.951 . S
H755 C781 0.950 . S
H756 C782 0.950 . S
H757 C784 0.950 . S
H758 C787 0.950 . S
H759 C788 0.950 . S
H760 C790 0.950 . S
H761 C791 0.950 . S
C762 H744 0.951 . S
C762 C763 1.366 . S
C762 C764 1.388 . S
C763 C762 1.366 . S
C763 C767 1.385 . S
C764 H745 0.951 . S
C764 C762 1.388 . S
C764 C765 1.366 . S
C765 C764 1.366 . S
C765 C766 1.414 . S
C765 C768 1.499 . S
C766 H746 0.950 . S
C766 C765 1.414 . S
C766 C767 1.374 . S
C767 H747 0.950 . S
C767 C763 1.385 . S
C767 C766 1.374 . S
C768 C765 1.499 . S
C768 C769 1.373 . S
C768 C770 1.389 . S
C769 H748 0.950 . S
C769 C768 1.373 . S
C769 C785 1.377 . S
C770 C768 1.389 . S
C770 C771 1.524 . S
C770 C784 1.377 . S
C771 C770 1.524 . S
C771 C772 1.397 . S
C771 C776 1.363 . S
C772 H749 0.950 . S
C772 C771 1.397 . S
C772 C773 1.334 . S
C773 H750 0.950 . S
C773 C772 1.334 . S
C773 C774 1.287 . S
C774 C773 1.287 . S
C774 C775 1.524 . S
C774 H793 0.913 . S
C775 H751 0.950 . S
C775 C774 1.524 . S
C775 C776 1.415 . S
C776 H752 0.950 . S
C776 C771 1.363 . S
C776 C775 1.415 . S
C777 H753 0.951 . S
C777 C778 1.366 . S
C777 C779 1.388 . S
C778 C777 1.366 . S
C778 C782 1.385 . S
C779 H754 0.951 . S
C779 C777 1.388 . S
C779 C780 1.366 . S
C780 C779 1.366 . S
C780 C781 1.414 . S
C780 C783 1.499 . S
C781 H755 0.950 . S
C781 C780 1.414 . S
C781 C782 1.374 . S
C782 H756 0.950 . S
C782 C778 1.385 . S
C782 C781 1.374 . S
C783 C780 1.499 . S
C783 C784 1.373 . S
C783 C785 1.389 . S
C784 H757 0.950 . S
C784 C770 1.377 . S
C784 C783 1.373 . S
C785 C769 1.377 . S
C785 C783 1.389 . S
C785 C786 1.524 . S
C786 C785 1.524 . S
C786 C787 1.397 . S
C786 C791 1.363 . S
C787 H758 0.950 . S
C787 C786 1.397 . S
C787 C788 1.334 . S
C788 H759 0.950 . S
C788 C787 1.334 . S
C788 C789 1.287 . S
C789 C788 1.287 . S
C789 C790 1.524 . S
C789 H792 0.999 . S
C790 H760 0.950 . S
C790 C789 1.524 . S
C790 C791 1.415 . S
C791 H761 0.950 . S
C791 C786 1.363 . S
C791 C790 1.415 . S
H792 C789 0.999 . S
H793 C774 0.913 . S
H794 C812 0.951 . S
H795 C814 0.951 . S
H796 C816 0.950 . S
H797 C817 0.950 . S
H798 C819 0.950 . S
H799 C822 0.950 . S
H800 C823 0.950 . S
H801 C825 0.950 . S
H802 C826 0.950 . S
H803 C827 0.951 . S
H804 C829 0.951 . S
H805 C831 0.950 . S
H806 C832 0.950 . S
H807 C834 0.950 . S
H808 C837 0.950 . S
H809 C838 0.950 . S
H810 C840 0.950 . S
H811 C841 0.950 . S
C812 H794 0.951 . S
C812 C813 1.366 . S
C812 C814 1.388 . S
C813 C812 1.366 . S
C813 C817 1.385 . S
C814 H795 0.951 . S
C814 C812 1.388 . S
C814 C815 1.366 . S
C815 C814 1.366 . S
C815 C816 1.414 . S
C815 C818 1.499 . S
C816 H796 0.950 . S
C816 C815 1.414 . S
C816 C817 1.374 . S
C817 H797 0.950 . S
C817 C813 1.385 . S
C817 C816 1.374 . S
C818 C815 1.499 . S
C818 C819 1.373 . S
C818 C820 1.389 . S
C819 H798 0.950 . S
C819 C818 1.373 . S
C819 C835 1.377 . S
C820 C818 1.389 . S
C820 C821 1.524 . S
C820 C834 1.377 . S
C821 C820 1.524 . S
C821 C822 1.397 . S
C821 C826 1.363 . S
C822 H799 0.950 . S
C822 C821 1.397 . S
C822 C823 1.334 . S
C823 H800 0.950 . S
C823 C822 1.334 . S
C823 C824 1.287 . S
C824 C823 1.287 . S
C824 C825 1.524 . S
C824 H843 0.913 . S
C825 H801 0.950 . S
C825 C824 1.524 . S
C825 C826 1.415 . S
C826 H802 0.950 . S
C826 C821 1.363 . S
C826 C825 1.415 . S
C827 H803 0.951 . S
C827 C828 1.366 . S
C827 C829 1.388 . S
C828 C827 1.366 . S
C828 C832 1.385 . S
C829 H804 0.951 . S
C829 C827 1.388 . S
C829 C830 1.366 . S
C830 C829 1.366 . S
C830 C831 1.414 . S
C830 C833 1.499 . S
C831 H805 0.950 . S
C831 C830 1.414 . S
C831 C832 1.374 . S
C832 H806 0.950 . S
C832 C828 1.385 . S
C832 C831 1.374 . S
C833 C830 1.499 . S
C833 C834 1.373 . S
C833 C835 1.389 . S
C834 H807 0.950 . S
C834 C820 1.377 . S
C834 C833 1.373 . S
C835 C819 1.377 . S
C835 C833 1.389 . S
C835 C836 1.524 . S
C836 C835 1.524 . S
C836 C837 1.397 . S
C836 C841 1.363 . S
C837 H808 0.950 . S
C837 C836 1.397 . S
C837 C838 1.334 . S
C838 H809 0.950 . S
C838 C837 1.334 . S
C838 C839 1.287 . S
C839 C838 1.287 . S
C839 C840 1.524 . S
C839 H842 0.999 . S
C840 H810 0.950 . S
C840 C839 1.524 . S
C840 C841 1.415 . S
C841 H811 0.950 . S
C841 C836 1.363 . S
C841 C840 1.415 . S
H842 C839 0.999 . S
H843 C824 0.913 . S
H844 C862 0.951 . S
H845 C864 0.951 . S
H846 C866 0.950 . S
H847 C867 0.950 . S
H848 C869 0.950 . S
H849 C872 0.950 . S
H850 C873 0.950 . S
H851 C875 0.950 . S
H852 C876 0.950 . S
H853 C877 0.951 . S
H854 C879 0.951 . S
H855 C881 0.950 . S
H856 C882 0.950 . S
H857 C884 0.950 . S
H858 C887 0.950 . S
H859 C888 0.950 . S
H860 C890 0.950 . S
H861 C891 0.950 . S
C862 H844 0.951 . S
C862 C863 1.366 . S
C862 C864 1.388 . S
C863 C862 1.366 . S
C863 C867 1.385 . S
C864 H845 0.951 . S
C864 C862 1.388 . S
C864 C865 1.366 . S
C865 C864 1.366 . S
C865 C866 1.414 . S
C865 C868 1.499 . S
C866 H846 0.950 . S
C866 C865 1.414 . S
C866 C867 1.374 . S
C867 H847 0.950 . S
C867 C863 1.385 . S
C867 C866 1.374 . S
C868 C865 1.499 . S
C868 C869 1.373 . S
C868 C870 1.389 . S
C869 H848 0.950 . S
C869 C868 1.373 . S
C869 C885 1.377 . S
C870 C868 1.389 . S
C870 C871 1.524 . S
C870 C884 1.377 . S
C871 C870 1.524 . S
C871 C872 1.397 . S
C871 C876 1.363 . S
C872 H849 0.950 . S
C872 C871 1.397 . S
C872 C873 1.334 . S
C873 H850 0.950 . S
C873 C872 1.334 . S
C873 C874 1.287 . S
C874 C873 1.287 . S
C874 C875 1.524 . S
C874 H893 0.913 . S
C875 H851 0.950 . S
C875 C874 1.524 . S
C875 C876 1.415 . S
C876 H852 0.950 . S
C876 C871 1.363 . S
C876 C875 1.415 . S
C877 H853 0.951 . S
C877 C878 1.366 . S
C877 C879 1.388 . S
C878 C877 1.366 . S
C878 C882 1.385 . S
C879 H854 0.951 . S
C879 C877 1.388 . S
C879 C880 1.366 . S
C880 C879 1.366 . S
C880 C881 1.414 . S
C880 C883 1.499 . S
C881 H855 0.950 . S
C881 C880 1.414 . S
C881 C882 1.374 . S
C882 H856 0.950 . S
C882 C878 1.385 . S
C882 C881 1.374 . S
C883 C880 1.499 . S
C883 C884 1.373 . S
C883 C885 1.389 . S
C884 H857 0.950 . S
C884 C870 1.377 . S
C884 C883 1.373 . S
C885 C869 1.377 . S
C885 C883 1.389 . S
C885 C886 1.524 . S
C886 C885 1.524 . S
C886 C887 1.397 . S
C886 C891 1.363 . S
C887 H858 0.950 . S
C887 C886 1.397 . S
C887 C888 1.334 . S
C888 H859 0.950 . S
C888 C887 1.334 . S
C888 C889 1.287 . S
C889 C888 1.287 . S
C889 C890 1.524 . S
C889 H892 0.999 . S
C890 H860 0.950 . S
C890 C889 1.524 . S
C890 C891 1.415 . S
C891 H861 0.950 . S
C891 C886 1.363 . S
C891 C890 1.415 . S
H892 C889 0.999 . S
H893 C874 0.913 . S
H894 C912 0.951 . S
H895 C914 0.951 . S
H896 C916 0.950 . S
H897 C917 0.950 . S
H898 C919 0.950 . S
H899 C922 0.950 . S
H900 C923 0.950 . S
H901 C925 0.950 . S
H902 C926 0.950 . S
H903 C927 0.951 . S
H904 C929 0.951 . S
H905 C931 0.950 . S
H906 C932 0.950 . S
H907 C934 0.950 . S
H908 C937 0.950 . S
H909 C938 0.950 . S
H910 C940 0.950 . S
H911 C941 0.950 . S
C912 H894 0.951 . S
C912 C913 1.366 . S
C912 C914 1.388 . S
C913 C912 1.366 . S
C913 C917 1.385 . S
C914 H895 0.951 . S
C914 C912 1.388 . S
C914 C915 1.366 . S
C915 C914 1.366 . S
C915 C916 1.414 . S
C915 C918 1.499 . S
C916 H896 0.950 . S
C916 C915 1.414 . S
C916 C917 1.374 . S
C917 H897 0.950 . S
C917 C913 1.385 . S
C917 C916 1.374 . S
C918 C915 1.499 . S
C918 C919 1.373 . S
C918 C920 1.389 . S
C919 H898 0.950 . S
C919 C918 1.373 . S
C919 C935 1.377 . S
C920 C918 1.389 . S
C920 C921 1.524 . S
C920 C934 1.377 . S
C921 C920 1.524 . S
C921 C922 1.397 . S
C921 C926 1.363 . S
C922 H899 0.950 . S
C922 C921 1.397 . S
C922 C923 1.334 . S
C923 H900 0.950 . S
C923 C922 1.334 . S
C923 C924 1.287 . S
C924 C923 1.287 . S
C924 C925 1.524 . S
C924 H943 0.913 . S
C925 H901 0.950 . S
C925 C924 1.524 . S
C925 C926 1.415 . S
C926 H902 0.950 . S
C926 C921 1.363 . S
C926 C925 1.415 . S
C927 H903 0.951 . S
C927 C928 1.366 . S
C927 C929 1.388 . S
C928 C927 1.366 . S
C928 C932 1.385 . S
C929 H904 0.951 . S
C929 C927 1.388 . S
C929 C930 1.366 . S
C930 C929 1.366 . S
C930 C931 1.414 . S
C930 C933 1.499 . S
C931 H905 0.950 . S
C931 C930 1.414 . S
C931 C932 1.374 . S
C932 H906 0.950 . S
C932 C928 1.385 . S
C932 C931 1.374 . S
C933 C930 1.499 . S
C933 C934 1.373 . S
C933 C935 1.389 . S
C934 H907 0.950 . S
C934 C920 1.377 . S
C934 C933 1.373 . S
C935 C919 1.377 . S
C935 C933 1.389 . S
C935 C936 1.524 . S
C936 C935 1.524 . S
C936 C937 1.397 . S
C936 C941 1.363 . S
C937 H908 0.950 . S
C937 C936 1.397 . S
C937 C938 1.334 . S
C938 H909 0.950 . S
C938 C937 1.334 . S
C938 C939 1.287 . S
C939 C938 1.287 . S
C939 C940 1.524 . S
C939 H942 0.999 . S
C940 H910 0.950 . S
C940 C939 1.524 . S
C940 C941 1.415 . S
C941 H911 0.950 . S
C941 C936 1.363 . S
C941 C940 1.415 . S
H942 C939 0.999 . S
H943 C924 0.913 . S
H944 C962 0.951 . S
H945 C964 0.951 . S
H946 C966 0.950 . S
H947 C967 0.950 . S
H948 C969 0.950 . S
H949 C972 0.950 . S
H950 C973 0.950 . S
H951 C975 0.950 . S
H952 C976 0.950 . S
H953 C977 0.951 . S
H954 C979 0.951 . S
H955 C981 0.950 . S
H956 C982 0.950 . S
H957 C984 0.950 . S
H958 C987 0.950 . S
H959 C988 0.950 . S
H960 C990 0.950 . S
H961 C991 0.950 . S
C962 H944 0.951 . S
C962 C963 1.366 . S
C962 C964 1.388 . S
C963 C962 1.366 . S
C963 C967 1.385 . S
C964 H945 0.951 . S
C964 C962 1.388 . S
C964 C965 1.366 . S
C965 C964 1.366 . S
C965 C966 1.414 . S
C965 C968 1.499 . S
C966 H946 0.950 . S
C966 C965 1.414 . S
C966 C967 1.374 . S
C967 H947 0.950 . S
C967 C963 1.385 . S
C967 C966 1.374 . S
C968 C965 1.499 . S
C968 C969 1.373 . S
C968 C970 1.389 . S
C969 H948 0.950 . S
C969 C968 1.373 . S
C969 C985 1.377 . S
C970 C968 1.389 . S
C970 C971 1.524 . S
C970 C984 1.377 . S
C971 C970 1.524 . S
C971 C972 1.397 . S
C971 C976 1.363 . S
C972 H949 0.950 . S
C972 C971 1.397 . S
C972 C973 1.334 . S
C973 H950 0.950 . S
C973 C972 1.334 . S
C973 C974 1.287 . S
C974 C973 1.287 . S
C974 C975 1.524 . S
C974 H993 0.913 . S
C975 H951 0.950 . S
C975 C974 1.524 . S
C975 C976 1.415 . S
C976 H952 0.950 . S
C976 C971 1.363 . S
C976 C975 1.415 . S
C977 H953 0.951 . S
C977 C978 1.366 . S
C977 C979 1.388 . S
C978 C977 1.366 . S
C978 C982 1.385 . S
C979 H954 0.951 . S
C979 C977 1.388 . S
C979 C980 1.366 . S
C980 C979 1.366 . S
C980 C981 1.414 . S
C980 C983 1.499 . S
C981 H955 0.950 . S
C981 C980 1.414 . S
C981 C982 1.374 . S
C982 H956 0.950 . S
C982 C978 1.385 . S
C982 C981 1.374 . S
C983 C980 1.499 . S
C983 C984 1.373 . S
C983 C985 1.389 . S
C984 H957 0.950 . S
C984 C970 1.377 . S
C984 C983 1.373 . S
C985 C969 1.377 . S
C985 C983 1.389 . S
C985 C986 1.524 . S
C986 C985 1.524 . S
C986 C987 1.397 . S
C986 C991 1.363 . S
C987 H958 0.950 . S
C987 C986 1.397 . S
C987 C988 1.334 . S
C988 H959 0.950 . S
C988 C987 1.334 . S
C988 C989 1.287 . S
C989 C988 1.287 . S
C989 C990 1.524 . S
C989 H992 0.999 . S
C990 H960 0.950 . S
C990 C989 1.524 . S
C990 C991 1.415 . S
C991 H961 0.950 . S
C991 C986 1.363 . S
C991 C990 1.415 . S
H992 C989 0.999 . S
H993 C974 0.913 . S
H994 C1012 0.951 . S
H995 C1014 0.951 . S
H996 C1016 0.950 . S
H997 C1017 0.950 . S
H998 C1019 0.950 . S
H999 C1022 0.950 . S
H1000 C1023 0.950 . S
H1001 C1025 0.950 . S
H1002 C1026 0.950 . S
H1003 C1027 0.951 . S
H1004 C1029 0.951 . S
H1005 C1031 0.950 . S
H1006 C1032 0.950 . S
H1007 C1034 0.950 . S
H1008 C1037 0.950 . S
H1009 C1038 0.950 . S
H1010 C1040 0.950 . S
H1011 C1041 0.950 . S
C1012 H994 0.951 . S
C1012 C1013 1.366 . S
C1012 C1014 1.388 . S
C1013 C1012 1.366 . S
C1013 C1017 1.385 . S
C1014 H995 0.951 . S
C1014 C1012 1.388 . S
C1014 C1015 1.366 . S
C1015 C1014 1.366 . S
C1015 C1016 1.414 . S
C1015 C1018 1.499 . S
C1016 H996 0.950 . S
C1016 C1015 1.414 . S
C1016 C1017 1.374 . S
C1017 H997 0.950 . S
C1017 C1013 1.385 . S
C1017 C1016 1.374 . S
C1018 C1015 1.499 . S
C1018 C1019 1.373 . S
C1018 C1020 1.389 . S
C1019 H998 0.950 . S
C1019 C1018 1.373 . S
C1019 C1035 1.377 . S
C1020 C1018 1.389 . S
C1020 C1021 1.524 . S
C1020 C1034 1.377 . S
C1021 C1020 1.524 . S
C1021 C1022 1.397 . S
C1021 C1026 1.363 . S
C1022 H999 0.950 . S
C1022 C1021 1.397 . S
C1022 C1023 1.334 . S
C1023 H1000 0.950 . S
C1023 C1022 1.334 . S
C1023 C1024 1.287 . S
C1024 C1023 1.287 . S
C1024 C1025 1.524 . S
C1024 H1043 0.913 . S
C1025 H1001 0.950 . S
C1025 C1024 1.524 . S
C1025 C1026 1.415 . S
C1026 H1002 0.950 . S
C1026 C1021 1.363 . S
C1026 C1025 1.415 . S
C1027 H1003 0.951 . S
C1027 C1028 1.366 . S
C1027 C1029 1.388 . S
C1028 C1027 1.366 . S
C1028 C1032 1.385 . S
C1029 H1004 0.951 . S
C1029 C1027 1.388 . S
C1029 C1030 1.366 . S
C1030 C1029 1.366 . S
C1030 C1031 1.414 . S
C1030 C1033 1.499 . S
C1031 H1005 0.950 . S
C1031 C1030 1.414 . S
C1031 C1032 1.374 . S
C1032 H1006 0.950 . S
C1032 C1028 1.385 . S
C1032 C1031 1.374 . S
C1033 C1030 1.499 . S
C1033 C1034 1.373 . S
C1033 C1035 1.389 . S
C1034 H1007 0.950 . S
C1034 C1020 1.377 . S
C1034 C1033 1.373 . S
C1035 C1019 1.377 . S
C1035 C1033 1.389 . S
C1035 C1036 1.524 . S
C1036 C1035 1.524 . S
C1036 C1037 1.397 . S
C1036 C1041 1.363 . S
C1037 H1008 0.950 . S
C1037 C1036 1.397 . S
C1037 C1038 1.334 1_455 S
C1038 H1009 0.950 . S
C1038 C1037 1.334 1_655 S
C1038 C1039 1.287 . S
C1039 C1038 1.287 . S
C1039 C1040 1.524 1_655 S
C1039 H1042 0.999 . S
C1040 H1010 0.950 . S
C1040 C1039 1.524 1_455 S
C1040 C1041 1.415 . S
C1041 H1011 0.950 . S
C1041 C1036 1.363 . S
C1041 C1040 1.415 . S
H1042 C1039 0.999 . S
H1043 C1024 0.913 . S
H1044 C1062 0.951 . S
H1045 C1064 0.951 . S
H1046 C1066 0.950 . S
H1047 C1067 0.950 . S
H1048 C1069 0.950 . S
H1049 C1072 0.950 . S
H1050 C1073 0.950 . S
H1051 C1075 0.950 . S
H1052 C1076 0.950 . S
H1053 C1077 0.951 . S
H1054 C1079 0.951 . S
H1055 C1081 0.950 . S
H1056 C1082 0.950 . S
H1057 C1084 0.950 . S
H1058 C1087 0.950 . S
H1059 C1088 0.950 . S
H1060 C1090 0.950 . S
H1061 C1091 0.950 . S
C1062 H1044 0.951 . S
C1062 C1063 1.366 . S
C1062 C1064 1.388 . S
C1063 C1062 1.366 . S
C1063 C1067 1.385 . S
C1064 H1045 0.951 . S
C1064 C1062 1.388 . S
C1064 C1065 1.366 . S
C1065 C1064 1.366 . S
C1065 C1066 1.414 . S
C1065 C1068 1.499 . S
C1066 H1046 0.950 . S
C1066 C1065 1.414 . S
C1066 C1067 1.374 . S
C1067 H1047 0.950 . S
C1067 C1063 1.385 . S
C1067 C1066 1.374 . S
C1068 C1065 1.499 . S
C1068 C1069 1.373 . S
C1068 C1070 1.389 . S
C1069 H1048 0.950 . S
C1069 C1068 1.373 . S
C1069 C1085 1.377 . S
C1070 C1068 1.389 . S
C1070 C1071 1.524 . S
C1070 C1084 1.377 . S
C1071 C1070 1.524 . S
C1071 C1072 1.397 . S
C1071 C1076 1.363 . S
C1072 H1049 0.950 . S
C1072 C1071 1.397 . S
C1072 C1073 1.334 . S
C1073 H1050 0.950 . S
C1073 C1072 1.334 . S
C1073 C1074 1.287 . S
C1074 C1073 1.287 . S
C1074 C1075 1.524 . S
C1074 H1093 0.913 . S
C1075 H1051 0.950 . S
C1075 C1074 1.524 . S
C1075 C1076 1.415 . S
C1076 H1052 0.950 . S
C1076 C1071 1.363 . S
C1076 C1075 1.415 . S
C1077 H1053 0.951 . S
C1077 C1078 1.366 . S
C1077 C1079 1.388 . S
C1078 C1077 1.366 . S
C1078 C1082 1.385 . S
C1079 H1054 0.951 . S
C1079 C1077 1.388 . S
C1079 C1080 1.366 . S
C1080 C1079 1.366 . S
C1080 C1081 1.414 . S
C1080 C1083 1.499 . S
C1081 H1055 0.950 . S
C1081 C1080 1.414 . S
C1081 C1082 1.374 . S
C1082 H1056 0.950 . S
C1082 C1078 1.385 . S
C1082 C1081 1.374 . S
C1083 C1080 1.499 . S
C1083 C1084 1.373 . S
C1083 C1085 1.389 . S
C1084 H1057 0.950 . S
C1084 C1070 1.377 . S
C1084 C1083 1.373 . S
C1085 C1069 1.377 . S
C1085 C1083 1.389 . S
C1085 C1086 1.524 . S
C1086 C1085 1.524 . S
C1086 C1087 1.397 . S
C1086 C1091 1.363 . S
C1087 H1058 0.950 . S
C1087 C1086 1.397 . S
C1087 C1088 1.334 . S
C1088 H1059 0.950 . S
C1088 C1087 1.334 . S
C1088 C1089 1.287 . S
C1089 C1088 1.287 . S
C1089 C1090 1.524 . S
C1089 H1092 0.999 . S
C1090 H1060 0.950 . S
C1090 C1089 1.524 . S
C1090 C1091 1.415 . S
C1091 H1061 0.950 . S
C1091 C1086 1.363 . S
C1091 C1090 1.415 . S
H1092 C1089 0.999 . S
H1093 C1074 0.913 . S
H1094 C1112 0.951 . S
H1095 C1114 0.951 . S
H1096 C1116 0.950 . S
H1097 C1117 0.950 . S
H1098 C1119 0.950 . S
H1099 C1122 0.950 . S
H1100 C1123 0.950 . S
H1101 C1125 0.950 . S
H1102 C1126 0.950 . S
H1103 C1127 0.951 1_455 S
H1104 C1129 0.951 . S
H1105 C1131 0.950 . S
H1106 C1132 0.950 . S
H1107 C1134 0.950 . S
H1108 C1137 0.950 . S
H1109 C1138 0.950 . S
H1110 C1140 0.950 . S
H1111 C1141 0.950 . S
C1112 H1094 0.951 . S
C1112 C1113 1.366 . S
C1112 C1114 1.388 . S
C1113 C1112 1.366 . S
C1113 C1117 1.385 . S
C1114 H1095 0.951 . S
C1114 C1112 1.388 . S
C1114 C1115 1.366 . S
C1115 C1114 1.366 . S
C1115 C1116 1.414 . S
C1115 C1118 1.499 . S
C1116 H1096 0.950 . S
C1116 C1115 1.414 . S
C1116 C1117 1.374 . S
C1117 H1097 0.950 . S
C1117 C1113 1.385 . S
C1117 C1116 1.374 . S
C1118 C1115 1.499 . S
C1118 C1119 1.373 . S
C1118 C1120 1.389 . S
C1119 H1098 0.950 . S
C1119 C1118 1.373 . S
C1119 C1135 1.377 . S
C1120 C1118 1.389 . S
C1120 C1121 1.524 . S
C1120 C1134 1.377 . S
C1121 C1120 1.524 . S
C1121 C1122 1.397 . S
C1121 C1126 1.363 . S
C1122 H1099 0.950 . S
C1122 C1121 1.397 . S
C1122 C1123 1.334 . S
C1123 H1100 0.950 . S
C1123 C1122 1.334 . S
C1123 C1124 1.287 . S
C1124 C1123 1.287 . S
C1124 C1125 1.524 . S
C1124 H1143 0.913 . S
C1125 H1101 0.950 . S
C1125 C1124 1.524 . S
C1125 C1126 1.415 . S
C1126 H1102 0.950 . S
C1126 C1121 1.363 . S
C1126 C1125 1.415 . S
C1127 H1103 0.951 1_655 S
C1127 C1128 1.366 . S
C1127 C1129 1.388 . S
C1128 C1127 1.366 . S
C1128 C1132 1.385 . S
C1129 H1104 0.951 . S
C1129 C1127 1.388 . S
C1129 C1130 1.366 . S
C1130 C1129 1.366 . S
C1130 C1131 1.414 . S
C1130 C1133 1.499 . S
C1131 H1105 0.950 . S
C1131 C1130 1.414 . S
C1131 C1132 1.374 . S
C1132 H1106 0.950 . S
C1132 C1128 1.385 . S
C1132 C1131 1.374 . S
C1133 C1130 1.499 . S
C1133 C1134 1.373 . S
C1133 C1135 1.389 . S
C1134 H1107 0.950 . S
C1134 C1120 1.377 . S
C1134 C1133 1.373 . S
C1135 C1119 1.377 . S
C1135 C1133 1.389 . S
C1135 C1136 1.524 1_655 S
C1136 C1135 1.524 1_455 S
C1136 C1137 1.397 . S
C1136 C1141 1.363 . S
C1137 H1108 0.950 . S
C1137 C1136 1.397 . S
C1137 C1138 1.334 . S
C1138 H1109 0.950 . S
C1138 C1137 1.334 . S
C1138 C1139 1.287 . S
C1139 C1138 1.287 . S
C1139 C1140 1.524 . S
C1139 H1142 0.999 . S
C1140 H1110 0.950 . S
C1140 C1139 1.524 . S
C1140 C1141 1.415 . S
C1141 H1111 0.950 . S
C1141 C1136 1.363 . S
C1141 C1140 1.415 . S
H1142 C1139 0.999 . S
H1143 C1124 0.913 . S
H1144 C1162 0.951 . S
H1145 C1164 0.951 . S
H1146 C1166 0.950 . S
H1147 C1167 0.950 . S
H1148 C1169 0.950 . S
H1149 C1172 0.950 . S
H1150 C1173 0.950 . S
H1151 C1175 0.950 . S
H1152 C1176 0.950 . S
H1153 C1177 0.951 . S
H1154 C1179 0.951 . S
H1155 C1181 0.950 . S
H1156 C1182 0.950 . S
H1157 C1184 0.950 . S
H1158 C1187 0.950 . S
H1159 C1188 0.950 . S
H1160 C1190 0.950 . S
H1161 C1191 0.950 . S
C1162 H1144 0.951 . S
C1162 C1163 1.366 . S
C1162 C1164 1.388 . S
C1163 C1162 1.366 . S
C1163 C1167 1.385 . S
C1164 H1145 0.951 . S
C1164 C1162 1.388 . S
C1164 C1165 1.366 . S
C1165 C1164 1.366 . S
C1165 C1166 1.414 . S
C1165 C1168 1.499 . S
C1166 H1146 0.950 . S
C1166 C1165 1.414 . S
C1166 C1167 1.374 . S
C1167 H1147 0.950 . S
C1167 C1163 1.385 . S
C1167 C1166 1.374 . S
C1168 C1165 1.499 . S
C1168 C1169 1.373 . S
C1168 C1170 1.389 . S
C1169 H1148 0.950 . S
C1169 C1168 1.373 . S
C1169 C1185 1.377 . S
C1170 C1168 1.389 . S
C1170 C1171 1.524 . S
C1170 C1184 1.377 . S
C1171 C1170 1.524 . S
C1171 C1172 1.397 . S
C1171 C1176 1.363 . S
C1172 H1149 0.950 . S
C1172 C1171 1.397 . S
C1172 C1173 1.334 . S
C1173 H1150 0.950 . S
C1173 C1172 1.334 . S
C1173 C1174 1.287 . S
C1174 C1173 1.287 . S
C1174 C1175 1.524 . S
C1174 H1193 0.913 . S
C1175 H1151 0.950 . S
C1175 C1174 1.524 . S
C1175 C1176 1.415 . S
C1176 H1152 0.950 . S
C1176 C1171 1.363 . S
C1176 C1175 1.415 . S
C1177 H1153 0.951 . S
C1177 C1178 1.366 . S
C1177 C1179 1.388 1_545 S
C1178 C1177 1.366 . S
C1178 C1182 1.385 . S
C1179 H1154 0.951 . S
C1179 C1177 1.388 1_565 S
C1179 C1180 1.366 . S
C1180 C1179 1.366 . S
C1180 C1181 1.414 1_565 S
C1180 C1183 1.499 . S
C1181 H1155 0.950 . S
C1181 C1180 1.414 1_545 S
C1181 C1182 1.374 . S
C1182 H1156 0.950 . S
C1182 C1178 1.385 . S
C1182 C1181 1.374 . S
C1183 C1180 1.499 . S
C1183 C1184 1.373 . S
C1183 C1185 1.389 . S
C1184 H1157 0.950 . S
C1184 C1170 1.377 . S
C1184 C1183 1.373 . S
C1185 C1169 1.377 . S
C1185 C1183 1.389 . S
C1185 C1186 1.524 . S
C1186 C1185 1.524 . S
C1186 C1187 1.397 . S
C1186 C1191 1.363 . S
C1187 H1158 0.950 . S
C1187 C1186 1.397 . S
C1187 C1188 1.334 . S
C1188 H1159 0.950 . S
C1188 C1187 1.334 . S
C1188 C1189 1.287 . S
C1189 C1188 1.287 . S
C1189 C1190 1.524 . S
C1189 H1192 0.999 . S
C1190 H1160 0.950 . S
C1190 C1189 1.524 . S
C1190 C1191 1.415 . S
C1191 H1161 0.950 . S
C1191 C1186 1.363 . S
C1191 C1190 1.415 . S
H1192 C1189 0.999 . S
H1193 C1174 0.913 . S
H1194 C1212 0.951 . S
H1195 C1214 0.951 . S
H1196 C1216 0.950 . S
H1197 C1217 0.950 . S
H1198 C1219 0.950 . S
H1199 C1222 0.950 . S
H1200 C1223 0.950 . S
H1201 C1225 0.950 . S
H1202 C1226 0.950 . S
H1203 C1227 0.951 . S
H1204 C1229 0.951 . S
H1205 C1231 0.950 . S
H1206 C1232 0.950 . S
H1207 C1234 0.950 . S
H1208 C1237 0.950 . S
H1209 C1238 0.950 . S
H1210 C1240 0.950 . S
H1211 C1241 0.950 . S
C1212 H1194 0.951 . S
C1212 C1213 1.366 . S
C1212 C1214 1.388 . S
C1213 C1212 1.366 . S
C1213 C1217 1.385 . S
C1214 H1195 0.951 . S
C1214 C1212 1.388 . S
C1214 C1215 1.366 . S
C1215 C1214 1.366 . S
C1215 C1216 1.414 . S
C1215 C1218 1.499 . S
C1216 H1196 0.950 . S
C1216 C1215 1.414 . S
C1216 C1217 1.374 . S
C1217 H1197 0.950 . S
C1217 C1213 1.385 . S
C1217 C1216 1.374 . S
C1218 C1215 1.499 . S
C1218 C1219 1.373 . S
C1218 C1220 1.389 . S
C1219 H1198 0.950 . S
C1219 C1218 1.373 . S
C1219 C1235 1.377 . S
C1220 C1218 1.389 . S
C1220 C1221 1.524 . S
C1220 C1234 1.377 . S
C1221 C1220 1.524 . S
C1221 C1222 1.397 . S
C1221 C1226 1.363 . S
C1222 H1199 0.950 . S
C1222 C1221 1.397 . S
C1222 C1223 1.334 . S
C1223 H1200 0.950 . S
C1223 C1222 1.334 . S
C1223 C1224 1.287 . S
C1224 C1223 1.287 . S
C1224 C1225 1.524 . S
C1224 H1243 0.913 . S
C1225 H1201 0.950 . S
C1225 C1224 1.524 . S
C1225 C1226 1.415 . S
C1226 H1202 0.950 . S
C1226 C1221 1.363 . S
C1226 C1225 1.415 . S
C1227 H1203 0.951 . S
C1227 C1228 1.366 . S
C1227 C1229 1.388 . S
C1228 C1227 1.366 . S
C1228 C1232 1.385 . S
C1229 H1204 0.951 . S
C1229 C1227 1.388 . S
C1229 C1230 1.366 . S
C1230 C1229 1.366 . S
C1230 C1231 1.414 . S
C1230 C1233 1.499 . S
C1231 H1205 0.950 . S
C1231 C1230 1.414 . S
C1231 C1232 1.374 . S
C1232 H1206 0.950 . S
C1232 C1228 1.385 . S
C1232 C1231 1.374 . S
C1233 C1230 1.499 . S
C1233 C1234 1.373 . S
C1233 C1235 1.389 . S
C1234 H1207 0.950 . S
C1234 C1220 1.377 . S
C1234 C1233 1.373 . S
C1235 C1219 1.377 . S
C1235 C1233 1.389 . S
C1235 C1236 1.524 . S
C1236 C1235 1.524 . S
C1236 C1237 1.397 . S
C1236 C1241 1.363 . S
C1237 H1208 0.950 . S
C1237 C1236 1.397 . S
C1237 C1238 1.334 . S
C1238 H1209 0.950 . S
C1238 C1237 1.334 . S
C1238 C1239 1.287 . S
C1239 C1238 1.287 . S
C1239 C1240 1.524 . S
C1239 H1242 0.999 . S
C1240 H1210 0.950 . S
C1240 C1239 1.524 . S
C1240 C1241 1.415 . S
C1241 H1211 0.950 . S
C1241 C1236 1.363 . S
C1241 C1240 1.415 . S
H1242 C1239 0.999 . S
H1243 C1224 0.913 . S
H1244 C1262 0.951 . S
H1245 C1264 0.951 . S
H1246 C1266 0.950 . S
H1247 C1267 0.950 . S
H1248 C1269 0.950 . S
H1249 C1272 0.950 . S
H1250 C1273 0.950 . S
H1251 C1275 0.950 1_554 S
H1252 C1276 0.963 . S
H1253 C1277 0.951 . S
H1254 C1279 0.945 . S
H1255 C1281 0.950 . S
H1256 C1282 0.950 . S
H1257 C1284 0.950 1_554 S
H1258 C1287 0.950 . S
H1259 C1288 0.950 . S
H1260 C1290 0.950 . S
H1261 C1291 0.950 . S
C1262 H1244 0.951 . S
C1262 C1263 1.366 . S
C1262 C1264 1.388 . S
C1263 C1262 1.366 . S
C1263 C1267 1.385 . S
C1264 H1245 0.951 . S
C1264 C1262 1.388 . S
C1264 C1265 1.366 . S
C1265 C1264 1.366 . S
C1265 C1266 1.414 . S
C1265 C1268 1.499 . S
C1266 H1246 0.950 . S
C1266 C1265 1.414 . S
C1266 C1267 1.374 . S
C1267 H1247 0.950 . S
C1267 C1263 1.385 . S
C1267 C1266 1.374 . S
C1268 C1265 1.499 . S
C1268 C1269 1.373 . S
C1268 C1270 1.389 1_545 S
C1269 H1248 0.950 . S
C1269 C1268 1.373 . S
C1269 C1285 1.377 . S
C1270 C1268 1.389 1_565 S
C1270 C1271 1.524 . S
C1270 C1284 1.377 . S
C1271 C1270 1.524 . S
C1271 C1272 1.397 . S
C1271 C1276 1.353 1_556 S
C1272 H1249 0.950 . S
C1272 C1271 1.397 . S
C1272 C1273 1.334 . S
C1273 H1250 0.950 . S
C1273 C1272 1.334 . S
C1273 C1274 1.287 . S
C1274 C1273 1.287 . S
C1274 C1275 1.524 . S
C1274 H1293 0.913 . S
C1275 H1251 0.950 1_556 S
C1275 C1274 1.524 . S
C1275 C1276 1.412 1_556 S
C1276 H1252 0.963 . S
C1276 C1271 1.353 1_554 S
C1276 C1275 1.412 1_554 S
C1277 H1253 0.951 . S
C1277 C1278 1.366 . S
C1277 C1279 1.391 1_554 S
C1278 C1277 1.366 . S
C1278 C1282 1.385 . S
C1279 H1254 0.945 . S
C1279 C1277 1.391 1_556 S
C1279 C1280 1.368 1_556 S
C1280 C1279 1.368 1_554 S
C1280 C1281 1.414 . S
C1280 C1283 1.522 . S
C1281 H1255 0.950 . S
C1281 C1280 1.414 . S
C1281 C1282 1.374 . S
C1282 H1256 0.950 . S
C1282 C1278 1.385 . S
C1282 C1281 1.374 . S
C1283 C1280 1.522 . S
C1283 C1284 1.365 1_554 S
C1283 C1285 1.373 1_564 S
C1284 H1257 0.950 1_556 S
C1284 C1270 1.377 . S
C1284 C1283 1.365 1_556 S
C1285 C1269 1.377 . S
C1285 C1283 1.373 1_546 S
C1285 C1286 1.524 . S
C1286 C1285 1.524 . S
C1286 C1287 1.397 1_556 S
C1286 C1291 1.363 . S
C1287 H1258 0.950 . S
C1287 C1286 1.397 1_554 S
C1287 C1288 1.334 . S
C1288 H1259 0.950 . S
C1288 C1287 1.334 . S
C1288 C1289 1.287 . S
C1289 C1288 1.287 . S
C1289 C1290 1.524 1_554 S
C1289 H1292 0.999 . S
C1290 H1260 0.950 . S
C1290 C1289 1.524 1_556 S
C1290 C1291 1.415 . S
C1291 H1261 0.950 . S
C1291 C1286 1.363 . S
C1291 C1290 1.415 . S
H1292 C1289 0.999 . S
H1293 C1274 0.913 . S
H1294 C1312 0.951 . S
H1295 C1314 0.951 . S
H1296 C1316 0.950 . S
H1297 C1317 0.950 . S
H1298 C1319 0.950 . S
H1299 C1322 0.950 . S
H1300 C1323 0.950 . S
H1301 C1325 0.950 . S
H1302 C1326 0.950 . S
H1303 C1327 0.951 . S
H1304 C1329 0.951 . S
H1305 C1331 0.950 . S
H1306 C1332 0.950 . S
H1307 C1334 0.950 . S
H1308 C1337 0.950 . S
H1309 C1338 0.950 . S
H1310 C1340 0.950 . S
H1311 C1341 0.950 . S
C1312 H1294 0.951 . S
C1312 C1313 1.366 . S
C1312 C1314 1.388 . S
C1313 C1312 1.366 . S
C1313 C1317 1.385 . S
C1314 H1295 0.951 . S
C1314 C1312 1.388 . S
C1314 C1315 1.366 . S
C1315 C1314 1.366 . S
C1315 C1316 1.414 . S
C1315 C1318 1.499 . S
C1316 H1296 0.950 . S
C1316 C1315 1.414 . S
C1316 C1317 1.374 . S
C1317 H1297 0.950 . S
C1317 C1313 1.385 . S
C1317 C1316 1.374 . S
C1318 C1315 1.499 . S
C1318 C1319 1.373 . S
C1318 C1320 1.389 . S
C1319 H1298 0.950 . S
C1319 C1318 1.373 . S
C1319 C1335 1.377 . S
C1320 C1318 1.389 . S
C1320 C1321 1.524 . S
C1320 C1334 1.377 . S
C1321 C1320 1.524 . S
C1321 C1322 1.397 . S
C1321 C1326 1.363 . S
C1322 H1299 0.950 . S
C1322 C1321 1.397 . S
C1322 C1323 1.334 . S
C1323 H1300 0.950 . S
C1323 C1322 1.334 . S
C1323 C1324 1.287 . S
C1324 C1323 1.287 . S
C1324 C1325 1.524 . S
C1324 H1343 0.913 . S
C1325 H1301 0.950 . S
C1325 C1324 1.524 . S
C1325 C1326 1.415 . S
C1326 H1302 0.950 . S
C1326 C1321 1.363 . S
C1326 C1325 1.415 . S
C1327 H1303 0.951 . S
C1327 C1328 1.366 . S
C1327 C1329 1.388 . S
C1328 C1327 1.366 . S
C1328 C1332 1.385 . S
C1329 H1304 0.951 . S
C1329 C1327 1.388 . S
C1329 C1330 1.366 . S
C1330 C1329 1.366 . S
C1330 C1331 1.414 . S
C1330 C1333 1.499 . S
C1331 H1305 0.950 . S
C1331 C1330 1.414 . S
C1331 C1332 1.374 . S
C1332 H1306 0.950 . S
C1332 C1328 1.385 . S
C1332 C1331 1.374 . S
C1333 C1330 1.499 . S
C1333 C1334 1.373 . S
C1333 C1335 1.389 . S
C1334 H1307 0.950 . S
C1334 C1320 1.377 . S
C1334 C1333 1.373 . S
C1335 C1319 1.377 . S
C1335 C1333 1.389 . S
C1335 C1336 1.524 . S
C1336 C1335 1.524 . S
C1336 C1337 1.397 . S
C1336 C1341 1.363 . S
C1337 H1308 0.950 . S
C1337 C1336 1.397 . S
C1337 C1338 1.334 . S
C1338 H1309 0.950 . S
C1338 C1337 1.334 . S
C1338 C1339 1.287 . S
C1339 C1338 1.287 . S
C1339 C1340 1.524 . S
C1339 H1342 0.999 . S
C1340 H1310 0.950 . S
C1340 C1339 1.524 . S
C1340 C1341 1.415 . S
C1341 H1311 0.950 . S
C1341 C1336 1.363 . S
C1341 C1340 1.415 . S
H1342 C1339 0.999 . S
H1343 C1324 0.913 . S
H1344 C1362 0.951 . S
H1345 C1364 0.951 . S
H1346 C1366 0.950 . S
H1347 C1367 0.950 . S
H1348 C1369 0.950 . S
H1349 C1372 0.950 . S
H1350 C1373 0.950 . S
H1351 C1375 0.950 . S
H1352 C1376 0.950 . S
H1353 C1377 0.951 . S
H1354 C1379 0.951 . S
H1355 C1381 0.950 . S
H1356 C1382 0.950 . S
H1357 C1384 0.950 . S
H1358 C1387 0.950 . S
H1359 C1388 0.950 . S
H1360 C1390 0.950 . S
H1361 C1391 0.950 . S
C1362 H1344 0.951 . S
C1362 C1363 1.366 1_545 S
C1362 C1364 1.388 . S
C1363 C1362 1.366 1_565 S
C1363 C1367 1.385 . S
C1364 H1345 0.951 . S
C1364 C1362 1.388 . S
C1364 C1365 1.366 . S
C1365 C1364 1.366 . S
C1365 C1366 1.414 . S
C1365 C1368 1.499 . S
C1366 H1346 0.950 . S
C1366 C1365 1.414 . S
C1366 C1367 1.374 1_545 S
C1367 H1347 0.950 . S
C1367 C1363 1.385 . S
C1367 C1366 1.374 1_565 S
C1368 C1365 1.499 . S
C1368 C1369 1.373 . S
C1368 C1370 1.389 . S
C1369 H1348 0.950 . S
C1369 C1368 1.373 . S
C1369 C1385 1.377 . S
C1370 C1368 1.389 . S
C1370 C1371 1.524 . S
C1370 C1384 1.377 . S
C1371 C1370 1.524 . S
C1371 C1372 1.397 . S
C1371 C1376 1.363 . S
C1372 H1349 0.950 . S
C1372 C1371 1.397 . S
C1372 C1373 1.334 . S
C1373 H1350 0.950 . S
C1373 C1372 1.334 . S
C1373 C1374 1.287 . S
C1374 C1373 1.287 . S
C1374 C1375 1.524 . S
C1374 H1393 0.913 . S
C1375 H1351 0.950 . S
C1375 C1374 1.524 . S
C1375 C1376 1.415 . S
C1376 H1352 0.950 . S
C1376 C1371 1.363 . S
C1376 C1375 1.415 . S
C1377 H1353 0.951 . S
C1377 C1378 1.366 . S
C1377 C1379 1.388 . S
C1378 C1377 1.366 . S
C1378 C1382 1.385 . S
C1379 H1354 0.951 . S
C1379 C1377 1.388 . S
C1379 C1380 1.366 . S
C1380 C1379 1.366 . S
C1380 C1381 1.414 . S
C1380 C1383 1.499 . S
C1381 H1355 0.950 . S
C1381 C1380 1.414 . S
C1381 C1382 1.374 . S
C1382 H1356 0.950 . S
C1382 C1378 1.385 . S
C1382 C1381 1.374 . S
C1383 C1380 1.499 . S
C1383 C1384 1.373 . S
C1383 C1385 1.389 . S
C1384 H1357 0.950 . S
C1384 C1370 1.377 . S
C1384 C1383 1.373 . S
C1385 C1369 1.377 . S
C1385 C1383 1.389 . S
C1385 C1386 1.524 . S
C1386 C1385 1.524 . S
C1386 C1387 1.397 . S
C1386 C1391 1.363 . S
C1387 H1358 0.950 . S
C1387 C1386 1.397 . S
C1387 C1388 1.334 . S
C1388 H1359 0.950 . S
C1388 C1387 1.334 . S
C1388 C1389 1.287 . S
C1389 C1388 1.287 . S
C1389 C1390 1.524 . S
C1389 H1392 0.999 . S
C1390 H1360 0.950 . S
C1390 C1389 1.524 . S
C1390 C1391 1.415 . S
C1391 H1361 0.950 . S
C1391 C1386 1.363 . S
C1391 C1390 1.415 . S
H1392 C1389 0.999 . S
H1393 C1374 0.913 . S
H1394 C1412 0.951 . S
H1395 C1414 0.951 . S
H1396 C1416 0.950 . S
H1397 C1417 0.950 . S
H1398 C1419 0.950 . S
H1399 C1422 0.950 . S
H1400 C1423 0.950 . S
H1401 C1425 0.950 . S
H1402 C1426 0.950 . S
H1403 C1427 0.951 . S
H1404 C1429 0.951 . S
H1405 C1431 0.950 . S
H1406 C1432 0.950 . S
H1407 C1434 0.950 . S
H1408 C1437 0.950 . S
H1409 C1438 0.950 . S
H1410 C1440 0.950 . S
H1411 C1441 0.950 . S
C1412 H1394 0.951 . S
C1412 C1413 1.366 . S
C1412 C1414 1.388 . S
C1413 C1412 1.366 . S
C1413 C1417 1.385 . S
C1414 H1395 0.951 . S
C1414 C1412 1.388 . S
C1414 C1415 1.366 . S
C1415 C1414 1.366 . S
C1415 C1416 1.414 . S
C1415 C1418 1.499 . S
C1416 H1396 0.950 . S
C1416 C1415 1.414 . S
C1416 C1417 1.374 . S
C1417 H1397 0.950 . S
C1417 C1413 1.385 . S
C1417 C1416 1.374 . S
C1418 C1415 1.499 . S
C1418 C1419 1.373 . S
C1418 C1420 1.389 . S
C1419 H1398 0.950 . S
C1419 C1418 1.373 . S
C1419 C1435 1.377 . S
C1420 C1418 1.389 . S
C1420 C1421 1.524 . S
C1420 C1434 1.377 . S
C1421 C1420 1.524 . S
C1421 C1422 1.397 . S
C1421 C1426 1.363 . S
C1422 H1399 0.950 . S
C1422 C1421 1.397 . S
C1422 C1423 1.334 . S
C1423 H1400 0.950 . S
C1423 C1422 1.334 . S
C1423 C1424 1.287 . S
C1424 C1423 1.287 . S
C1424 C1425 1.524 . S
C1424 H1443 0.913 . S
C1425 H1401 0.950 . S
C1425 C1424 1.524 . S
C1425 C1426 1.415 . S
C1426 H1402 0.950 . S
C1426 C1421 1.363 . S
C1426 C1425 1.415 . S
C1427 H1403 0.951 . S
C1427 C1428 1.366 . S
C1427 C1429 1.388 . S
C1428 C1427 1.366 . S
C1428 C1432 1.385 . S
C1429 H1404 0.951 . S
C1429 C1427 1.388 . S
C1429 C1430 1.366 . S
C1430 C1429 1.366 . S
C1430 C1431 1.414 . S
C1430 C1433 1.499 . S
C1431 H1405 0.950 . S
C1431 C1430 1.414 . S
C1431 C1432 1.374 . S
C1432 H1406 0.950 . S
C1432 C1428 1.385 . S
C1432 C1431 1.374 . S
C1433 C1430 1.499 . S
C1433 C1434 1.373 . S
C1433 C1435 1.389 . S
C1434 H1407 0.950 . S
C1434 C1420 1.377 . S
C1434 C1433 1.373 . S
C1435 C1419 1.377 . S
C1435 C1433 1.389 . S
C1435 C1436 1.524 . S
C1436 C1435 1.524 . S
C1436 C1437 1.397 . S
C1436 C1441 1.363 . S
C1437 H1408 0.950 . S
C1437 C1436 1.397 . S
C1437 C1438 1.334 . S
C1438 H1409 0.950 . S
C1438 C1437 1.334 . S
C1438 C1439 1.287 . S
C1439 C1438 1.287 . S
C1439 C1440 1.524 . S
C1439 H1442 0.999 . S
C1440 H1410 0.950 . S
C1440 C1439 1.524 . S
C1440 C1441 1.415 . S
C1441 H1411 0.950 . S
C1441 C1436 1.363 . S
C1441 C1440 1.415 . S
H1442 C1439 0.999 . S
H1443 C1424 0.913 . S
H1444 C1462 0.951 . S
H1445 C1464 0.951 . S
H1446 C1466 0.950 . S
H1447 C1467 0.950 . S
H1448 C1469 0.950 . S
H1449 C1472 0.950 . S
H1450 C1473 0.950 . S
H1451 C1475 0.950 . S
H1452 C1476 0.950 . S
H1453 C1477 0.951 . S
H1454 C1479 0.951 . S
H1455 C1481 0.950 . S
H1456 C1482 0.950 . S
H1457 C1484 0.950 . S
H1458 C1487 0.950 . S
H1459 C1488 0.950 . S
H1460 C1490 0.950 . S
H1461 C1491 0.950 . S
C1462 H1444 0.951 . S
C1462 C1463 1.366 . S
C1462 C1464 1.388 1_565 S
C1463 C1462 1.366 . S
C1463 C1467 1.385 1_565 S
C1464 H1445 0.951 . S
C1464 C1462 1.388 1_545 S
C1464 C1465 1.366 . S
C1465 C1464 1.366 . S
C1465 C1466 1.414 . S
C1465 C1468 1.499 . S
C1466 H1446 0.950 . S
C1466 C1465 1.414 . S
C1466 C1467 1.374 . S
C1467 H1447 0.950 . S
C1467 C1463 1.385 1_545 S
C1467 C1466 1.374 . S
C1468 C1465 1.499 . S
C1468 C1469 1.373 . S
C1468 C1470 1.389 . S
C1469 H1448 0.950 . S
C1469 C1468 1.373 . S
C1469 C1485 1.377 . S
C1470 C1468 1.389 . S
C1470 C1471 1.524 . S
C1470 C1484 1.377 . S
C1471 C1470 1.524 . S
C1471 C1472 1.397 . S
C1471 C1476 1.363 . S
C1472 H1449 0.950 . S
C1472 C1471 1.397 . S
C1472 C1473 1.334 . S
C1473 H1450 0.950 . S
C1473 C1472 1.334 . S
C1473 C1474 1.287 . S
C1474 C1473 1.287 . S
C1474 C1475 1.524 . S
C1474 H1493 0.913 . S
C1475 H1451 0.950 . S
C1475 C1474 1.524 . S
C1475 C1476 1.415 . S
C1476 H1452 0.950 . S
C1476 C1471 1.363 . S
C1476 C1475 1.415 . S
C1477 H1453 0.951 . S
C1477 C1478 1.366 . S
C1477 C1479 1.388 . S
C1478 C1477 1.366 . S
C1478 C1482 1.385 . S
C1479 H1454 0.951 . S
C1479 C1477 1.388 . S
C1479 C1480 1.366 . S
C1480 C1479 1.366 . S
C1480 C1481 1.414 . S
C1480 C1483 1.499 . S
C1481 H1455 0.950 . S
C1481 C1480 1.414 . S
C1481 C1482 1.374 . S
C1482 H1456 0.950 . S
C1482 C1478 1.385 . S
C1482 C1481 1.374 . S
C1483 C1480 1.499 . S
C1483 C1484 1.373 . S
C1483 C1485 1.389 . S
C1484 H1457 0.950 . S
C1484 C1470 1.377 . S
C1484 C1483 1.373 . S
C1485 C1469 1.377 . S
C1485 C1483 1.389 . S
C1485 C1486 1.524 . S
C1486 C1485 1.524 . S
C1486 C1487 1.397 . S
C1486 C1491 1.363 . S
C1487 H1458 0.950 . S
C1487 C1486 1.397 . S
C1487 C1488 1.334 . S
C1488 H1459 0.950 . S
C1488 C1487 1.334 . S
C1488 C1489 1.287 . S
C1489 C1488 1.287 . S
C1489 C1490 1.524 . S
C1489 H1492 0.999 . S
C1490 H1460 0.950 . S
C1490 C1489 1.524 . S
C1490 C1491 1.415 . S
C1491 H1461 0.950 . S
C1491 C1486 1.363 . S
C1491 C1490 1.415 . S
H1492 C1489 0.999 . S
H1493 C1474 0.913 . S
H1494 C1512 0.951 . S
H1495 C1514 0.951 . S
H1496 C1516 0.950 . S
H1497 C1517 0.950 . S
H1498 C1519 0.950 . S
H1499 C1522 0.950 . S
H1500 C1523 0.950 . S
H1501 C1525 0.950 . S
H1502 C1526 0.950 . S
H1503 C1527 0.951 . S
H1504 C1529 0.951 . S
H1505 C1531 0.950 . S
H1506 C1532 0.950 . S
H1507 C1534 0.950 . S
H1508 C1537 0.950 . S
H1509 C1538 0.950 . S
H1510 C1540 0.950 . S
H1511 C1541 0.950 . S
C1512 H1494 0.951 . S
C1512 C1513 1.366 . S
C1512 C1514 1.388 . S
C1513 C1512 1.366 . S
C1513 C1517 1.385 . S
C1514 H1495 0.951 . S
C1514 C1512 1.388 . S
C1514 C1515 1.366 . S
C1515 C1514 1.366 . S
C1515 C1516 1.414 . S
C1515 C1518 1.499 . S
C1516 H1496 0.950 . S
C1516 C1515 1.414 . S
C1516 C1517 1.374 . S
C1517 H1497 0.950 . S
C1517 C1513 1.385 . S
C1517 C1516 1.374 . S
C1518 C1515 1.499 . S
C1518 C1519 1.373 . S
C1518 C1520 1.389 . S
C1519 H1498 0.950 . S
C1519 C1518 1.373 . S
C1519 C1535 1.377 . S
C1520 C1518 1.389 . S
C1520 C1521 1.524 . S
C1520 C1534 1.377 . S
C1521 C1520 1.524 . S
C1521 C1522 1.397 . S
C1521 C1526 1.363 . S
C1522 H1499 0.950 . S
C1522 C1521 1.397 . S
C1522 C1523 1.334 . S
C1523 H1500 0.950 . S
C1523 C1522 1.334 . S
C1523 C1524 1.287 . S
C1524 C1523 1.287 . S
C1524 C1525 1.524 . S
C1524 H1543 0.913 . S
C1525 H1501 0.950 . S
C1525 C1524 1.524 . S
C1525 C1526 1.415 . S
C1526 H1502 0.950 . S
C1526 C1521 1.363 . S
C1526 C1525 1.415 . S
C1527 H1503 0.951 . S
C1527 C1528 1.366 . S
C1527 C1529 1.388 . S
C1528 C1527 1.366 . S
C1528 C1532 1.385 . S
C1529 H1504 0.951 . S
C1529 C1527 1.388 . S
C1529 C1530 1.366 . S
C1530 C1529 1.366 . S
C1530 C1531 1.414 . S
C1530 C1533 1.499 . S
C1531 H1505 0.950 . S
C1531 C1530 1.414 . S
C1531 C1532 1.374 . S
C1532 H1506 0.950 . S
C1532 C1528 1.385 . S
C1532 C1531 1.374 . S
C1533 C1530 1.499 . S
C1533 C1534 1.373 . S
C1533 C1535 1.389 . S
C1534 H1507 0.950 . S
C1534 C1520 1.377 . S
C1534 C1533 1.373 . S
C1535 C1519 1.377 . S
C1535 C1533 1.389 . S
C1535 C1536 1.524 . S
C1536 C1535 1.524 . S
C1536 C1537 1.397 . S
C1536 C1541 1.363 . S
C1537 H1508 0.950 . S
C1537 C1536 1.397 . S
C1537 C1538 1.334 . S
C1538 H1509 0.950 . S
C1538 C1537 1.334 . S
C1538 C1539 1.287 . S
C1539 C1538 1.287 . S
C1539 C1540 1.524 . S
C1539 H1542 0.999 . S
C1540 H1510 0.950 . S
C1540 C1539 1.524 . S
C1540 C1541 1.415 . S
C1541 H1511 0.950 . S
C1541 C1536 1.363 . S
C1541 C1540 1.415 . S
H1542 C1539 0.999 . S
H1543 C1524 0.913 . S
H1544 C1562 0.951 . S
H1545 C1564 0.951 . S
H1546 C1566 0.950 . S
H1547 C1567 0.950 . S
H1548 C1569 0.950 . S
H1549 C1572 0.950 . S
H1550 C1573 0.950 . S
H1551 C1575 0.950 . S
H1552 C1576 0.950 . S
H1553 C1577 0.951 . S
H1554 C1579 0.951 . S
H1555 C1581 0.950 . S
H1556 C1582 0.950 . S
H1557 C1584 0.950 . S
H1558 C1587 0.950 . S
H1559 C1588 0.950 . S
H1560 C1590 0.950 . S
H1561 C1591 0.950 . S
C1562 H1544 0.951 . S
C1562 C1563 1.366 . S
C1562 C1564 1.388 . S
C1563 C1562 1.366 . S
C1563 C1567 1.385 . S
C1564 H1545 0.951 . S
C1564 C1562 1.388 . S
C1564 C1565 1.366 . S
C1565 C1564 1.366 . S
C1565 C1566 1.414 . S
C1565 C1568 1.499 . S
C1566 H1546 0.950 . S
C1566 C1565 1.414 . S
C1566 C1567 1.374 . S
C1567 H1547 0.950 . S
C1567 C1563 1.385 . S
C1567 C1566 1.374 . S
C1568 C1565 1.499 . S
C1568 C1569 1.373 . S
C1568 C1570 1.389 . S
C1569 H1548 0.950 . S
C1569 C1568 1.373 . S
C1569 C1585 1.377 . S
C1570 C1568 1.389 . S
C1570 C1571 1.524 . S
C1570 C1584 1.377 . S
C1571 C1570 1.524 . S
C1571 C1572 1.397 . S
C1571 C1576 1.363 . S
C1572 H1549 0.950 . S
C1572 C1571 1.397 . S
C1572 C1573 1.334 . S
C1573 H1550 0.950 . S
C1573 C1572 1.334 . S
C1573 C1574 1.287 . S
C1574 C1573 1.287 . S
C1574 C1575 1.524 . S
C1574 H1593 0.913 . S
C1575 H1551 0.950 . S
C1575 C1574 1.524 . S
C1575 C1576 1.415 . S
C1576 H1552 0.950 . S
C1576 C1571 1.363 . S
C1576 C1575 1.415 . S
C1577 H1553 0.951 . S
C1577 C1578 1.366 . S
C1577 C1579 1.388 . S
C1578 C1577 1.366 . S
C1578 C1582 1.385 . S
C1579 H1554 0.951 . S
C1579 C1577 1.388 . S
C1579 C1580 1.366 . S
C1580 C1579 1.366 . S
C1580 C1581 1.414 . S
C1580 C1583 1.499 . S
C1581 H1555 0.950 . S
C1581 C1580 1.414 . S
C1581 C1582 1.374 . S
C1582 H1556 0.950 . S
C1582 C1578 1.385 . S
C1582 C1581 1.374 . S
C1583 C1580 1.499 . S
C1583 C1584 1.373 . S
C1583 C1585 1.389 . S
C1584 H1557 0.950 . S
C1584 C1570 1.377 . S
C1584 C1583 1.373 . S
C1585 C1569 1.377 . S
C1585 C1583 1.389 . S
C1585 C1586 1.524 . S
C1586 C1585 1.524 . S
C1586 C1587 1.397 . S
C1586 C1591 1.363 . S
C1587 H1558 0.950 . S
C1587 C1586 1.397 . S
C1587 C1588 1.334 . S
C1588 H1559 0.950 . S
C1588 C1587 1.334 . S
C1588 C1589 1.287 . S
C1589 C1588 1.287 . S
C1589 C1590 1.524 . S
C1589 H1592 0.999 . S
C1590 H1560 0.950 . S
C1590 C1589 1.524 . S
C1590 C1591 1.415 . S
C1591 H1561 0.950 . S
C1591 C1586 1.363 . S
C1591 C1590 1.415 . S
H1592 C1589 0.999 . S
H1593 C1574 0.913 . S
H1594 C1612 0.951 . S
H1595 C1614 0.951 . S
H1596 C1616 0.950 . S
H1597 C1617 0.950 . S
H1598 C1619 0.950 . S
H1599 C1622 0.950 . S
H1600 C1623 0.950 . S
H1601 C1625 0.950 . S
H1602 C1626 0.950 . S
H1603 C1627 0.951 . S
H1604 C1629 0.951 . S
H1605 C1631 0.950 . S
H1606 C1632 0.950 . S
H1607 C1634 0.950 . S
H1608 C1637 0.950 . S
H1609 C1638 0.952 1_565 S
H1610 C1640 0.950 . S
H1611 C1641 0.950 . S
C1612 H1594 0.951 . S
C1612 C1613 1.366 . S
C1612 C1614 1.388 . S
C1613 C1612 1.366 . S
C1613 C1617 1.385 . S
C1614 H1595 0.951 . S
C1614 C1612 1.388 . S
C1614 C1615 1.366 . S
C1615 C1614 1.366 . S
C1615 C1616 1.414 . S
C1615 C1618 1.499 . S
C1616 H1596 0.950 . S
C1616 C1615 1.414 . S
C1616 C1617 1.374 . S
C1617 H1597 0.950 . S
C1617 C1613 1.385 . S
C1617 C1616 1.374 . S
C1618 C1615 1.499 . S
C1618 C1619 1.373 . S
C1618 C1620 1.389 . S
C1619 H1598 0.950 . S
C1619 C1618 1.373 . S
C1619 C1635 1.377 . S
C1620 C1618 1.389 . S
C1620 C1621 1.524 . S
C1620 C1634 1.377 . S
C1621 C1620 1.524 . S
C1621 C1622 1.397 . S
C1621 C1626 1.363 . S
C1622 H1599 0.950 . S
C1622 C1621 1.397 . S
C1622 C1623 1.334 . S
C1623 H1600 0.950 . S
C1623 C1622 1.334 . S
C1623 C1624 1.287 . S
C1624 C1623 1.287 . S
C1624 C1625 1.524 . S
C1624 H1643 0.913 . S
C1625 H1601 0.950 . S
C1625 C1624 1.524 . S
C1625 C1626 1.415 . S
C1626 H1602 0.950 . S
C1626 C1621 1.363 . S
C1626 C1625 1.415 . S
C1627 H1603 0.951 . S
C1627 C1628 1.366 . S
C1627 C1629 1.388 . S
C1628 C1627 1.366 . S
C1628 C1632 1.385 . S
C1629 H1604 0.951 . S
C1629 C1627 1.388 . S
C1629 C1630 1.366 . S
C1630 C1629 1.366 . S
C1630 C1631 1.414 . S
C1630 C1633 1.499 . S
C1631 H1605 0.950 . S
C1631 C1630 1.414 . S
C1631 C1632 1.374 . S
C1632 H1606 0.950 . S
C1632 C1628 1.385 . S
C1632 C1631 1.374 . S
C1633 C1630 1.499 . S
C1633 C1634 1.373 . S
C1633 C1635 1.389 . S
C1634 H1607 0.950 . S
C1634 C1620 1.377 . S
C1634 C1633 1.373 . S
C1635 C1619 1.377 . S
C1635 C1633 1.389 . S
C1635 C1636 1.524 . S
C1636 C1635 1.524 . S
C1636 C1637 1.397 . S
C1636 C1641 1.363 . S
C1637 H1608 0.950 . S
C1637 C1636 1.397 . S
C1637 C1638 1.334 . S
C1638 H1609 0.952 1_545 S
C1638 C1637 1.334 . S
C1638 C1639 1.287 1_545 S
C1639 C1638 1.287 1_565 S
C1639 C1640 1.524 . S
C1639 H1642 0.999 . S
C1640 H1610 0.950 . S
C1640 C1639 1.524 . S
C1640 C1641 1.415 1_565 S
C1641 H1611 0.950 . S
C1641 C1636 1.363 . S
C1641 C1640 1.415 1_545 S
H1642 C1639 0.999 . S
H1643 C1624 0.913 . S
H1644 C1662 0.951 . S
H1645 C1664 0.951 . S
H1646 C1666 0.950 . S
H1647 C1667 0.950 . S
H1648 C1669 0.950 . S
H1649 C1672 0.950 . S
H1650 C1673 0.950 . S
H1651 C1675 0.950 . S
H1652 C1676 0.950 . S
H1653 C1677 0.951 . S
H1654 C1679 0.951 . S
H1655 C1681 0.950 . S
H1656 C1682 0.950 . S
H1657 C1684 0.950 . S
H1658 C1687 0.950 . S
H1659 C1688 0.950 . S
H1660 C1690 0.950 . S
H1661 C1691 0.950 . S
C1662 H1644 0.951 . S
C1662 C1663 1.366 . S
C1662 C1664 1.388 . S
C1663 C1662 1.366 . S
C1663 C1667 1.385 . S
C1664 H1645 0.951 . S
C1664 C1662 1.388 . S
C1664 C1665 1.366 . S
C1665 C1664 1.366 . S
C1665 C1666 1.414 . S
C1665 C1668 1.499 . S
C1666 H1646 0.950 . S
C1666 C1665 1.414 . S
C1666 C1667 1.374 . S
C1667 H1647 0.950 . S
C1667 C1663 1.385 . S
C1667 C1666 1.374 . S
C1668 C1665 1.499 . S
C1668 C1669 1.373 . S
C1668 C1670 1.389 . S
C1669 H1648 0.950 . S
C1669 C1668 1.373 . S
C1669 C1685 1.377 . S
C1670 C1668 1.389 . S
C1670 C1671 1.524 . S
C1670 C1684 1.377 . S
C1671 C1670 1.524 . S
C1671 C1672 1.397 . S
C1671 C1676 1.363 . S
C1672 H1649 0.950 . S
C1672 C1671 1.397 . S
C1672 C1673 1.334 . S
C1673 H1650 0.950 . S
C1673 C1672 1.334 . S
C1673 C1674 1.287 . S
C1674 C1673 1.287 . S
C1674 C1675 1.524 . S
C1674 H1693 0.913 . S
C1675 H1651 0.950 . S
C1675 C1674 1.524 . S
C1675 C1676 1.415 . S
C1676 H1652 0.950 . S
C1676 C1671 1.363 . S
C1676 C1675 1.415 . S
C1677 H1653 0.951 . S
C1677 C1678 1.366 . S
C1677 C1679 1.388 . S
C1678 C1677 1.366 . S
C1678 C1682 1.385 . S
C1679 H1654 0.951 . S
C1679 C1677 1.388 . S
C1679 C1680 1.366 . S
C1680 C1679 1.366 . S
C1680 C1681 1.414 . S
C1680 C1683 1.499 . S
C1681 H1655 0.950 . S
C1681 C1680 1.414 . S
C1681 C1682 1.374 . S
C1682 H1656 0.950 . S
C1682 C1678 1.385 . S
C1682 C1681 1.374 . S
C1683 C1680 1.499 . S
C1683 C1684 1.373 . S
C1683 C1685 1.389 . S
C1684 H1657 0.950 . S
C1684 C1670 1.377 . S
C1684 C1683 1.373 . S
C1685 C1669 1.377 . S
C1685 C1683 1.389 . S
C1685 C1686 1.524 . S
C1686 C1685 1.524 . S
C1686 C1687 1.397 . S
C1686 C1691 1.363 . S
C1687 H1658 0.950 . S
C1687 C1686 1.397 . S
C1687 C1688 1.334 . S
C1688 H1659 0.950 . S
C1688 C1687 1.334 . S
C1688 C1689 1.287 . S
C1689 C1688 1.287 . S
C1689 C1690 1.524 . S
C1689 H1692 0.999 . S
C1690 H1660 0.950 . S
C1690 C1689 1.524 . S
C1690 C1691 1.415 . S
C1691 H1661 0.950 . S
C1691 C1686 1.363 . S
C1691 C1690 1.415 . S
H1692 C1689 0.999 . S
H1693 C1674 0.913 . S
H1694 C1712 0.951 . S
H1695 C1714 0.951 . S
H1696 C1716 0.950 . S
H1697 C1717 0.950 . S
H1698 C1719 0.950 . S
H1699 C1722 0.950 . S
H1700 C1723 0.950 . S
H1701 C1725 0.950 . S
H1702 C1726 0.950 . S
H1703 C1727 0.951 . S
H1704 C1729 0.951 . S
H1705 C1731 0.950 . S
H1706 C1732 0.950 . S
H1707 C1734 0.950 . S
H1708 C1737 0.950 . S
H1709 C1738 0.950 . S
H1710 C1740 0.950 . S
H1711 C1741 0.950 . S
C1712 H1694 0.951 . S
C1712 C1713 1.366 . S
C1712 C1714 1.388 . S
C1713 C1712 1.366 . S
C1713 C1717 1.385 . S
C1714 H1695 0.951 . S
C1714 C1712 1.388 . S
C1714 C1715 1.366 . S
C1715 C1714 1.366 . S
C1715 C1716 1.414 . S
C1715 C1718 1.499 . S
C1716 H1696 0.950 . S
C1716 C1715 1.414 . S
C1716 C1717 1.374 . S
C1717 H1697 0.950 . S
C1717 C1713 1.385 . S
C1717 C1716 1.374 . S
C1718 C1715 1.499 . S
C1718 C1719 1.373 . S
C1718 C1720 1.389 . S
C1719 H1698 0.950 . S
C1719 C1718 1.373 . S
C1719 C1735 1.377 . S
C1720 C1718 1.389 . S
C1720 C1721 1.524 . S
C1720 C1734 1.377 . S
C1721 C1720 1.524 . S
C1721 C1722 1.397 . S
C1721 C1726 1.363 . S
C1722 H1699 0.950 . S
C1722 C1721 1.397 . S
C1722 C1723 1.334 . S
C1723 H1700 0.950 . S
C1723 C1722 1.334 . S
C1723 C1724 1.287 . S
C1724 C1723 1.287 . S
C1724 C1725 1.524 . S
C1724 H1743 0.913 . S
C1725 H1701 0.950 . S
C1725 C1724 1.524 . S
C1725 C1726 1.415 . S
C1726 H1702 0.950 . S
C1726 C1721 1.363 . S
C1726 C1725 1.415 . S
C1727 H1703 0.951 . S
C1727 C1728 1.366 . S
C1727 C1729 1.388 . S
C1728 C1727 1.366 . S
C1728 C1732 1.385 . S
C1729 H1704 0.951 . S
C1729 C1727 1.388 . S
C1729 C1730 1.366 . S
C1730 C1729 1.366 . S
C1730 C1731 1.414 . S
C1730 C1733 1.499 . S
C1731 H1705 0.950 . S
C1731 C1730 1.414 . S
C1731 C1732 1.374 . S
C1732 H1706 0.950 . S
C1732 C1728 1.385 . S
C1732 C1731 1.374 . S
C1733 C1730 1.499 . S
C1733 C1734 1.373 . S
C1733 C1735 1.389 . S
C1734 H1707 0.950 . S
C1734 C1720 1.377 . S
C1734 C1733 1.373 . S
C1735 C1719 1.377 . S
C1735 C1733 1.389 . S
C1735 C1736 1.524 . S
C1736 C1735 1.524 . S
C1736 C1737 1.397 . S
C1736 C1741 1.363 . S
C1737 H1708 0.950 . S
C1737 C1736 1.397 . S
C1737 C1738 1.334 . S
C1738 H1709 0.950 . S
C1738 C1737 1.334 . S
C1738 C1739 1.287 . S
C1739 C1738 1.287 . S
C1739 C1740 1.524 . S
C1739 H1742 0.999 . S
C1740 H1710 0.950 . S
C1740 C1739 1.524 . S
C1740 C1741 1.415 . S
C1741 H1711 0.950 . S
C1741 C1736 1.363 . S
C1741 C1740 1.415 . S
H1742 C1739 0.999 . S
H1743 C1724 0.913 . S
H1744 C1762 0.951 . S
H1745 C1764 0.951 . S
H1746 C1766 0.950 . S
H1747 C1767 0.950 . S
H1748 C1769 0.950 . S
H1749 C1772 0.950 . S
H1750 C1773 0.950 . S
H1751 C1775 0.950 . S
H1752 C1776 0.950 . S
H1753 C1777 0.951 . S
H1754 C1779 0.951 . S
H1755 C1781 0.950 . S
H1756 C1782 0.950 . S
H1757 C1784 0.950 . S
H1758 C1787 0.950 . S
H1759 C1788 0.950 . S
H1760 C1790 0.950 . S
H1761 C1791 0.950 . S
C1762 H1744 0.951 . S
C1762 C1763 1.366 . S
C1762 C1764 1.388 . S
C1763 C1762 1.366 . S
C1763 C1767 1.385 . S
C1764 H1745 0.951 . S
C1764 C1762 1.388 . S
C1764 C1765 1.366 . S
C1765 C1764 1.366 . S
C1765 C1766 1.414 . S
C1765 C1768 1.499 . S
C1766 H1746 0.950 . S
C1766 C1765 1.414 . S
C1766 C1767 1.374 . S
C1767 H1747 0.950 . S
C1767 C1763 1.385 . S
C1767 C1766 1.374 . S
C1768 C1765 1.499 . S
C1768 C1769 1.373 . S
C1768 C1770 1.389 . S
C1769 H1748 0.950 . S
C1769 C1768 1.373 . S
C1769 C1785 1.377 . S
C1770 C1768 1.389 . S
C1770 C1771 1.524 . S
C1770 C1784 1.377 . S
C1771 C1770 1.524 . S
C1771 C1772 1.397 . S
C1771 C1776 1.363 . S
C1772 H1749 0.950 . S
C1772 C1771 1.397 . S
C1772 C1773 1.334 . S
C1773 H1750 0.950 . S
C1773 C1772 1.334 . S
C1773 C1774 1.287 . S
C1774 C1773 1.287 . S
C1774 C1775 1.524 . S
C1774 H1793 0.913 . S
C1775 H1751 0.950 . S
C1775 C1774 1.524 . S
C1775 C1776 1.415 . S
C1776 H1752 0.950 . S
C1776 C1771 1.363 . S
C1776 C1775 1.415 . S
C1777 H1753 0.951 . S
C1777 C1778 1.366 . S
C1777 C1779 1.388 . S
C1778 C1777 1.366 . S
C1778 C1782 1.385 . S
C1779 H1754 0.951 . S
C1779 C1777 1.388 . S
C1779 C1780 1.366 . S
C1780 C1779 1.366 . S
C1780 C1781 1.414 . S
C1780 C1783 1.499 . S
C1781 H1755 0.950 . S
C1781 C1780 1.414 . S
C1781 C1782 1.374 . S
C1782 H1756 0.950 . S
C1782 C1778 1.385 . S
C1782 C1781 1.374 . S
C1783 C1780 1.499 . S
C1783 C1784 1.373 . S
C1783 C1785 1.389 . S
C1784 H1757 0.950 . S
C1784 C1770 1.377 . S
C1784 C1783 1.373 . S
C1785 C1769 1.377 . S
C1785 C1783 1.389 . S
C1785 C1786 1.524 . S
C1786 C1785 1.524 . S
C1786 C1787 1.397 . S
C1786 C1791 1.363 . S
C1787 H1758 0.950 . S
C1787 C1786 1.397 . S
C1787 C1788 1.334 . S
C1788 H1759 0.950 . S
C1788 C1787 1.334 . S
C1788 C1789 1.287 . S
C1789 C1788 1.287 . S
C1789 C1790 1.524 . S
C1789 H1792 0.999 . S
C1790 H1760 0.950 . S
C1790 C1789 1.524 . S
C1790 C1791 1.415 . S
C1791 H1761 0.950 . S
C1791 C1786 1.363 . S
C1791 C1790 1.415 . S
H1792 C1789 0.999 . S
H1793 C1774 0.913 . S
H1794 C1812 0.951 . S
H1795 C1814 0.951 . S
H1796 C1816 0.950 . S
H1797 C1817 0.950 . S
H1798 C1819 0.950 . S
H1799 C1822 0.950 . S
H1800 C1823 0.950 . S
H1801 C1825 0.950 . S
H1802 C1826 0.950 . S
H1803 C1827 0.951 . S
H1804 C1829 0.951 . S
H1805 C1831 0.950 . S
H1806 C1832 0.950 . S
H1807 C1834 0.950 . S
H1808 C1837 0.950 . S
H1809 C1838 0.950 . S
H1810 C1840 0.950 . S
H1811 C1841 0.950 . S
C1812 H1794 0.951 . S
C1812 C1813 1.366 . S
C1812 C1814 1.388 . S
C1813 C1812 1.366 . S
C1813 C1817 1.385 . S
C1814 H1795 0.951 . S
C1814 C1812 1.388 . S
C1814 C1815 1.366 . S
C1815 C1814 1.366 . S
C1815 C1816 1.414 . S
C1815 C1818 1.499 . S
C1816 H1796 0.950 . S
C1816 C1815 1.414 . S
C1816 C1817 1.374 . S
C1817 H1797 0.950 . S
C1817 C1813 1.385 . S
C1817 C1816 1.374 . S
C1818 C1815 1.499 . S
C1818 C1819 1.373 . S
C1818 C1820 1.389 . S
C1819 H1798 0.950 . S
C1819 C1818 1.373 . S
C1819 C1835 1.377 1_455 S
C1820 C1818 1.389 . S
C1820 C1821 1.524 . S
C1820 C1834 1.377 1_455 S
C1821 C1820 1.524 . S
C1821 C1822 1.397 . S
C1821 C1826 1.363 1_455 S
C1822 H1799 0.950 . S
C1822 C1821 1.397 . S
C1822 C1823 1.334 . S
C1823 H1800 0.950 . S
C1823 C1822 1.334 . S
C1823 C1824 1.287 . S
C1824 C1823 1.287 . S
C1824 C1825 1.524 1_455 S
C1824 H1843 0.913 . S
C1825 H1801 0.950 . S
C1825 C1824 1.524 1_655 S
C1825 C1826 1.415 . S
C1826 H1802 0.950 . S
C1826 C1821 1.363 1_655 S
C1826 C1825 1.415 . S
C1827 H1803 0.951 . S
C1827 C1828 1.366 . S
C1827 C1829 1.388 . S
C1828 C1827 1.366 . S
C1828 C1832 1.385 . S
C1829 H1804 0.951 . S
C1829 C1827 1.388 . S
C1829 C1830 1.366 . S
C1830 C1829 1.366 . S
C1830 C1831 1.414 . S
C1830 C1833 1.499 . S
C1831 H1805 0.950 . S
C1831 C1830 1.414 . S
C1831 C1832 1.374 . S
C1832 H1806 0.950 . S
C1832 C1828 1.385 . S
C1832 C1831 1.374 . S
C1833 C1830 1.499 . S
C1833 C1834 1.373 . S
C1833 C1835 1.389 . S
C1834 H1807 0.950 . S
C1834 C1820 1.377 1_655 S
C1834 C1833 1.373 . S
C1835 C1819 1.377 1_655 S
C1835 C1833 1.389 . S
C1835 C1836 1.524 . S
C1836 C1835 1.524 . S
C1836 C1837 1.397 . S
C1836 C1841 1.363 1_655 S
C1837 H1808 0.950 . S
C1837 C1836 1.397 . S
C1837 C1838 1.334 . S
C1838 H1809 0.950 . S
C1838 C1837 1.334 . S
C1838 C1839 1.287 . S
C1839 C1838 1.287 . S
C1839 C1840 1.524 1_655 S
C1839 H1842 0.999 . S
C1840 H1810 0.950 . S
C1840 C1839 1.524 1_455 S
C1840 C1841 1.415 . S
C1841 H1811 0.950 . S
C1841 C1836 1.363 1_455 S
C1841 C1840 1.415 . S
H1842 C1839 0.999 . S
H1843 C1824 0.913 . S
H1844 C1862 0.951 . S
H1845 C1864 0.951 . S
H1846 C1866 0.950 . S
H1847 C1867 0.950 . S
H1848 C1869 0.950 . S
H1849 C1872 0.950 . S
H1850 C1873 0.950 . S
H1851 C1875 0.950 . S
H1852 C1876 0.950 . S
H1853 C1877 0.951 . S
H1854 C1879 0.951 . S
H1855 C1881 0.950 . S
H1856 C1882 0.950 . S
H1857 C1884 0.950 . S
H1858 C1887 0.950 . S
H1859 C1888 0.950 . S
H1860 C1890 0.950 . S
H1861 C1891 0.950 . S
C1862 H1844 0.951 . S
C1862 C1863 1.366 . S
C1862 C1864 1.388 . S
C1863 C1862 1.366 . S
C1863 C1867 1.385 . S
C1864 H1845 0.951 . S
C1864 C1862 1.388 . S
C1864 C1865 1.366 . S
C1865 C1864 1.366 . S
C1865 C1866 1.414 . S
C1865 C1868 1.499 . S
C1866 H1846 0.950 . S
C1866 C1865 1.414 . S
C1866 C1867 1.374 . S
C1867 H1847 0.950 . S
C1867 C1863 1.385 . S
C1867 C1866 1.374 . S
C1868 C1865 1.499 . S
C1868 C1869 1.373 . S
C1868 C1870 1.389 . S
C1869 H1848 0.950 . S
C1869 C1868 1.373 . S
C1869 C1885 1.377 . S
C1870 C1868 1.389 . S
C1870 C1871 1.524 . S
C1870 C1884 1.377 . S
C1871 C1870 1.524 . S
C1871 C1872 1.397 . S
C1871 C1876 1.363 . S
C1872 H1849 0.950 . S
C1872 C1871 1.397 . S
C1872 C1873 1.334 . S
C1873 H1850 0.950 . S
C1873 C1872 1.334 . S
C1873 C1874 1.287 . S
C1874 C1873 1.287 . S
C1874 C1875 1.524 . S
C1874 H1893 0.913 . S
C1875 H1851 0.950 . S
C1875 C1874 1.524 . S
C1875 C1876 1.415 . S
C1876 H1852 0.950 . S
C1876 C1871 1.363 . S
C1876 C1875 1.415 . S
C1877 H1853 0.951 . S
C1877 C1878 1.366 . S
C1877 C1879 1.388 . S
C1878 C1877 1.366 . S
C1878 C1882 1.385 . S
C1879 H1854 0.951 . S
C1879 C1877 1.388 . S
C1879 C1880 1.366 . S
C1880 C1879 1.366 . S
C1880 C1881 1.414 . S
C1880 C1883 1.499 . S
C1881 H1855 0.950 . S
C1881 C1880 1.414 . S
C1881 C1882 1.374 . S
C1882 H1856 0.950 . S
C1882 C1878 1.385 . S
C1882 C1881 1.374 . S
C1883 C1880 1.499 . S
C1883 C1884 1.373 . S
C1883 C1885 1.389 . S
C1884 H1857 0.950 . S
C1884 C1870 1.377 . S
C1884 C1883 1.373 . S
C1885 C1869 1.377 . S
C1885 C1883 1.389 . S
C1885 C1886 1.524 . S
C1886 C1885 1.524 . S
C1886 C1887 1.397 . S
C1886 C1891 1.363 . S
C1887 H1858 0.950 . S
C1887 C1886 1.397 . S
C1887 C1888 1.334 . S
C1888 H1859 0.950 . S
C1888 C1887 1.334 . S
C1888 C1889 1.287 . S
C1889 C1888 1.287 . S
C1889 C1890 1.524 . S
C1889 H1892 0.999 . S
C1890 H1860 0.950 . S
C1890 C1889 1.524 . S
C1890 C1891 1.415 . S
C1891 H1861 0.950 . S
C1891 C1886 1.363 . S
C1891 C1890 1.415 . S
H1892 C1889 0.999 . S
H1893 C1874 0.913 . S
H1894 C1912 0.951 . S
H1895 C1914 0.951 . S
H1896 C1916 0.950 . S
H1897 C1917 0.950 . S
H1898 C1919 0.950 . S
H1899 C1922 0.950 . S
H1900 C1923 0.950 . S
H1901 C1925 0.950 . S
H1902 C1926 0.950 . S
H1903 C1927 0.951 . S
H1904 C1929 0.951 . S
H1905 C1931 0.950 . S
H1906 C1932 0.950 . S
H1907 C1934 0.950 . S
H1908 C1937 0.950 . S
H1909 C1938 0.950 . S
H1910 C1940 0.950 . S
H1911 C1941 0.950 . S
C1912 H1894 0.951 . S
C1912 C1913 1.366 . S
C1912 C1914 1.388 . S
C1913 C1912 1.366 . S
C1913 C1917 1.385 . S
C1914 H1895 0.951 . S
C1914 C1912 1.388 . S
C1914 C1915 1.366 . S
C1915 C1914 1.366 . S
C1915 C1916 1.414 . S
C1915 C1918 1.499 . S
C1916 H1896 0.950 . S
C1916 C1915 1.414 . S
C1916 C1917 1.374 . S
C1917 H1897 0.950 . S
C1917 C1913 1.385 . S
C1917 C1916 1.374 . S
C1918 C1915 1.499 . S
C1918 C1919 1.373 . S
C1918 C1920 1.389 . S
C1919 H1898 0.950 . S
C1919 C1918 1.373 . S
C1919 C1935 1.369 1_655 S
C1920 C1918 1.389 . S
C1920 C1921 1.524 . S
C1920 C1934 1.377 . S
C1921 C1920 1.524 . S
C1921 C1922 1.397 . S
C1921 C1926 1.363 . S
C1922 H1899 0.950 . S
C1922 C1921 1.397 . S
C1922 C1923 1.334 . S
C1923 H1900 0.950 . S
C1923 C1922 1.334 . S
C1923 C1924 1.287 . S
C1924 C1923 1.287 . S
C1924 C1925 1.524 . S
C1924 H1943 0.913 . S
C1925 H1901 0.950 . S
C1925 C1924 1.524 . S
C1925 C1926 1.415 . S
C1926 H1902 0.950 . S
C1926 C1921 1.363 . S
C1926 C1925 1.415 . S
C1927 H1903 0.951 . S
C1927 C1928 1.366 . S
C1927 C1929 1.388 . S
C1928 C1927 1.366 . S
C1928 C1932 1.385 . S
C1929 H1904 0.951 . S
C1929 C1927 1.388 . S
C1929 C1930 1.366 . S
C1930 C1929 1.366 . S
C1930 C1931 1.414 . S
C1930 C1933 1.499 . S
C1931 H1905 0.950 . S
C1931 C1930 1.414 . S
C1931 C1932 1.374 . S
C1932 H1906 0.950 . S
C1932 C1928 1.385 . S
C1932 C1931 1.374 . S
C1933 C1930 1.499 . S
C1933 C1934 1.373 1_455 S
C1933 C1935 1.389 . S
C1934 H1907 0.950 . S
C1934 C1920 1.377 . S
C1934 C1933 1.373 1_655 S
C1935 C1919 1.369 1_455 S
C1935 C1933 1.389 . S
C1935 C1936 1.532 . S
C1936 C1935 1.532 . S
C1936 C1937 1.397 . S
C1936 C1941 1.363 . S
C1937 H1908 0.950 . S
C1937 C1936 1.397 . S
C1937 C1938 1.334 . S
C1938 H1909 0.950 . S
C1938 C1937 1.334 . S
C1938 C1939 1.287 . S
C1939 C1938 1.287 . S
C1939 C1940 1.524 . S
C1939 H1942 0.999 . S
C1940 H1910 0.950 . S
C1940 C1939 1.524 . S
C1940 C1941 1.415 . S
C1941 H1911 0.950 . S
C1941 C1936 1.363 . S
C1941 C1940 1.415 . S
H1942 C1939 0.999 . S
H1943 C1924 0.913 . S
H1944 C1962 0.951 . S
H1945 C1964 0.951 . S
H1946 C1966 0.950 . S
H1947 C1967 0.950 . S
H1948 C1969 0.950 . S
H1949 C1972 0.950 . S
H1950 C1973 0.950 . S
H1951 C1975 0.950 . S
H1952 C1976 0.950 . S
H1953 C1977 0.951 . S
H1954 C1979 0.951 . S
H1955 C1981 0.950 . S
H1956 C1982 0.950 . S
H1957 C1984 0.950 . S
H1958 C1987 0.950 . S
H1959 C1988 0.950 . S
H1960 C1990 0.950 . S
H1961 C1991 0.950 . S
C1962 H1944 0.951 . S
C1962 C1963 1.366 . S
C1962 C1964 1.388 . S
C1963 C1962 1.366 . S
C1963 C1967 1.385 . S
C1964 H1945 0.951 . S
C1964 C1962 1.388 . S
C1964 C1965 1.366 . S
C1965 C1964 1.366 . S
C1965 C1966 1.414 . S
C1965 C1968 1.499 . S
C1966 H1946 0.950 . S
C1966 C1965 1.414 . S
C1966 C1967 1.374 . S
C1967 H1947 0.950 . S
C1967 C1963 1.385 . S
C1967 C1966 1.374 . S
C1968 C1965 1.499 . S
C1968 C1969 1.373 . S
C1968 C1970 1.389 . S
C1969 H1948 0.950 . S
C1969 C1968 1.373 . S
C1969 C1985 1.377 . S
C1970 C1968 1.389 . S
C1970 C1971 1.524 . S
C1970 C1984 1.377 . S
C1971 C1970 1.524 . S
C1971 C1972 1.397 . S
C1971 C1976 1.363 . S
C1972 H1949 0.950 . S
C1972 C1971 1.397 . S
C1972 C1973 1.334 . S
C1973 H1950 0.950 . S
C1973 C1972 1.334 . S
C1973 C1974 1.287 . S
C1974 C1973 1.287 . S
C1974 C1975 1.524 . S
C1974 H1993 0.913 . S
C1975 H1951 0.950 . S
C1975 C1974 1.524 . S
C1975 C1976 1.415 . S
C1976 H1952 0.950 . S
C1976 C1971 1.363 . S
C1976 C1975 1.415 . S
C1977 H1953 0.951 . S
C1977 C1978 1.366 . S
C1977 C1979 1.388 . S
C1978 C1977 1.366 . S
C1978 C1982 1.385 . S
C1979 H1954 0.951 . S
C1979 C1977 1.388 . S
C1979 C1980 1.366 . S
C1980 C1979 1.366 . S
C1980 C1981 1.414 . S
C1980 C1983 1.499 . S
C1981 H1955 0.950 . S
C1981 C1980 1.414 . S
C1981 C1982 1.374 . S
C1982 H1956 0.950 . S
C1982 C1978 1.385 . S
C1982 C1981 1.374 . S
C1983 C1980 1.499 . S
C1983 C1984 1.373 . S
C1983 C1985 1.389 . S
C1984 H1957 0.950 . S
C1984 C1970 1.377 . S
C1984 C1983 1.373 . S
C1985 C1969 1.377 . S
C1985 C1983 1.389 . S
C1985 C1986 1.524 . S
C1986 C1985 1.524 . S
C1986 C1987 1.397 . S
C1986 C1991 1.363 . S
C1987 H1958 0.950 . S
C1987 C1986 1.397 . S
C1987 C1988 1.334 . S
C1988 H1959 0.950 . S
C1988 C1987 1.334 . S
C1988 C1989 1.287 . S
C1989 C1988 1.287 . S
C1989 C1990 1.524 . S
C1989 H1992 0.999 . S
C1990 H1960 0.950 . S
C1990 C1989 1.524 . S
C1990 C1991 1.415 . S
C1991 H1961 0.950 . S
C1991 C1986 1.363 . S
C1991 C1990 1.415 . S
H1992 C1989 0.999 . S
H1993 C1974 0.913 . S
H1994 C2012 0.951 . S
H1995 C2014 0.951 . S
H1996 C2016 0.950 . S
H1997 C2017 0.950 . S
H1998 C2019 0.950 . S
H1999 C2022 0.950 . S
H2000 C2023 0.950 . S
H2001 C2025 0.966 . S
H2002 C2026 0.950 . S
H2003 C2027 0.951 . S
H2004 C2029 0.951 . S
H2005 C2031 0.950 . S
H2006 C2032 0.950 1_455 S
H2007 C2034 0.950 . S
H2008 C2037 0.950 . S
H2009 C2038 0.950 1_455 S
H2010 C2040 0.950 . S
H2011 C2041 0.950 . S
C2012 H1994 0.951 . S
C2012 C2013 1.366 . S
C2012 C2014 1.388 . S
C2013 C2012 1.366 . S
C2013 C2017 1.385 . S
C2014 H1995 0.951 . S
C2014 C2012 1.388 . S
C2014 C2015 1.366 . S
C2015 C2014 1.366 . S
C2015 C2016 1.414 . S
C2015 C2018 1.499 . S
C2016 H1996 0.950 . S
C2016 C2015 1.414 . S
C2016 C2017 1.374 . S
C2017 H1997 0.950 . S
C2017 C2013 1.385 . S
C2017 C2016 1.374 . S
C2018 C2015 1.499 . S
C2018 C2019 1.373 . S
C2018 C2020 1.389 . S
C2019 H1998 0.950 . S
C2019 C2018 1.373 . S
C2019 C2035 1.377 . S
C2020 C2018 1.389 . S
C2020 C2021 1.524 . S
C2020 C2034 1.377 . S
C2021 C2020 1.524 . S
C2021 C2022 1.397 . S
C2021 C2026 1.363 . S
C2022 H1999 0.950 . S
C2022 C2021 1.397 . S
C2022 C2023 1.334 . S
C2023 H2000 0.950 . S
C2023 C2022 1.334 . S
C2023 C2024 1.307 . S
C2024 C2023 1.307 . S
C2024 C2025 1.516 1_554 S
C2024 H2043 0.900 1_554 S
C2025 H2001 0.966 . S
C2025 C2024 1.516 1_556 S
C2025 C2026 1.401 1_556 S
C2026 H2002 0.950 . S
C2026 C2021 1.363 . S
C2026 C2025 1.401 1_554 S
C2027 H2003 0.951 . S
C2027 C2028 1.366 . S
C2027 C2029 1.388 1_556 S
C2028 C2027 1.366 . S
C2028 C2032 1.385 . S
C2029 H2004 0.951 . S
C2029 C2027 1.388 1_554 S
C2029 C2030 1.366 . S
C2030 C2029 1.366 . S
C2030 C2031 1.414 1_554 S
C2030 C2033 1.499 . S
C2031 H2005 0.950 . S
C2031 C2030 1.414 1_556 S
C2031 C2032 1.374 . S
C2032 H2006 0.950 1_655 S
C2032 C2028 1.385 . S
C2032 C2031 1.374 . S
C2033 C2030 1.499 . S
C2033 C2034 1.373 . S
C2033 C2035 1.389 . S
C2034 H2007 0.950 . S
C2034 C2020 1.377 . S
C2034 C2033 1.373 . S
C2035 C2019 1.377 . S
C2035 C2033 1.389 . S
C2035 C2036 1.524 . S
C2036 C2035 1.524 . S
C2036 C2037 1.397 . S
C2036 C2041 1.363 . S
C2037 H2008 0.950 . S
C2037 C2036 1.397 . S
C2037 C2038 1.334 . S
C2038 H2009 0.950 1_655 S
C2038 C2037 1.334 . S
C2038 C2039 1.287 . S
C2039 C2038 1.287 . S
C2039 C2040 1.524 . S
C2039 H2042 0.999 . S
C2040 H2010 0.950 . S
C2040 C2039 1.524 . S
C2040 C2041 1.415 . S
C2041 H2011 0.950 . S
C2041 C2036 1.363 . S
C2041 C2040 1.415 . S
H2042 C2039 0.999 . S
H2043 C2024 0.900 1_556 S
H2044 C2062 0.951 . S
H2045 C2064 0.951 . S
H2046 C2066 0.950 . S
H2047 C2067 0.950 . S
H2048 C2069 0.950 . S
H2049 C2072 0.950 . S
H2050 C2073 0.950 . S
H2051 C2075 0.950 . S
H2052 C2076 0.950 . S
H2053 C2077 0.951 . S
H2054 C2079 0.951 . S
H2055 C2081 0.950 . S
H2056 C2082 0.950 . S
H2057 C2084 0.950 . S
H2058 C2087 0.950 . S
H2059 C2088 0.950 . S
H2060 C2090 0.950 . S
H2061 C2091 0.950 . S
C2062 H2044 0.951 . S
C2062 C2063 1.366 . S
C2062 C2064 1.388 . S
C2063 C2062 1.366 . S
C2063 C2067 1.385 . S
C2064 H2045 0.951 . S
C2064 C2062 1.388 . S
C2064 C2065 1.366 . S
C2065 C2064 1.366 . S
C2065 C2066 1.414 . S
C2065 C2068 1.499 . S
C2066 H2046 0.950 . S
C2066 C2065 1.414 . S
C2066 C2067 1.374 . S
C2067 H2047 0.950 . S
C2067 C2063 1.385 . S
C2067 C2066 1.374 . S
C2068 C2065 1.499 . S
C2068 C2069 1.373 . S
C2068 C2070 1.389 . S
C2069 H2048 0.950 . S
C2069 C2068 1.373 . S
C2069 C2085 1.377 . S
C2070 C2068 1.389 . S
C2070 C2071 1.524 . S
C2070 C2084 1.377 . S
C2071 C2070 1.524 . S
C2071 C2072 1.397 . S
C2071 C2076 1.363 . S
C2072 H2049 0.950 . S
C2072 C2071 1.397 . S
C2072 C2073 1.334 . S
C2073 H2050 0.950 . S
C2073 C2072 1.334 . S
C2073 C2074 1.287 . S
C2074 C2073 1.287 . S
C2074 C2075 1.524 . S
C2074 H2093 0.913 . S
C2075 H2051 0.950 . S
C2075 C2074 1.524 . S
C2075 C2076 1.415 . S
C2076 H2052 0.950 . S
C2076 C2071 1.363 . S
C2076 C2075 1.415 . S
C2077 H2053 0.951 . S
C2077 C2078 1.366 . S
C2077 C2079 1.388 . S
C2078 C2077 1.366 . S
C2078 C2082 1.385 . S
C2079 H2054 0.951 . S
C2079 C2077 1.388 . S
C2079 C2080 1.366 . S
C2080 C2079 1.366 . S
C2080 C2081 1.414 . S
C2080 C2083 1.499 . S
C2081 H2055 0.950 . S
C2081 C2080 1.414 . S
C2081 C2082 1.374 . S
C2082 H2056 0.950 . S
C2082 C2078 1.385 . S
C2082 C2081 1.374 . S
C2083 C2080 1.499 . S
C2083 C2084 1.373 . S
C2083 C2085 1.389 . S
C2084 H2057 0.950 . S
C2084 C2070 1.377 . S
C2084 C2083 1.373 . S
C2085 C2069 1.377 . S
C2085 C2083 1.389 . S
C2085 C2086 1.524 . S
C2086 C2085 1.524 . S
C2086 C2087 1.397 . S
C2086 C2091 1.363 . S
C2087 H2058 0.950 . S
C2087 C2086 1.397 . S
C2087 C2088 1.334 . S
C2088 H2059 0.950 . S
C2088 C2087 1.334 . S
C2088 C2089 1.287 . S
C2089 C2088 1.287 . S
C2089 C2090 1.524 . S
C2089 H2092 0.999 . S
C2090 H2060 0.950 . S
C2090 C2089 1.524 . S
C2090 C2091 1.415 . S
C2091 H2061 0.950 . S
C2091 C2086 1.363 . S
C2091 C2090 1.415 . S
H2092 C2089 0.999 . S
H2093 C2074 0.913 . S
H2094 C2112 0.951 . S
H2095 C2114 0.951 . S
H2096 C2116 0.950 . S
H2097 C2117 0.950 . S
H2098 C2119 0.950 . S
H2099 C2122 0.950 . S
H2100 C2123 0.950 . S
H2101 C2125 0.950 . S
H2102 C2126 0.950 . S
H2103 C2127 0.951 . S
H2104 C2129 0.951 . S
H2105 C2131 0.950 . S
H2106 C2132 0.950 . S
H2107 C2134 0.950 . S
H2108 C2137 0.950 . S
H2109 C2138 0.950 . S
H2110 C2140 0.950 . S
H2111 C2141 0.950 . S
C2112 H2094 0.951 . S
C2112 C2113 1.366 . S
C2112 C2114 1.388 . S
C2113 C2112 1.366 . S
C2113 C2117 1.385 . S
C2114 H2095 0.951 . S
C2114 C2112 1.388 . S
C2114 C2115 1.366 . S
C2115 C2114 1.366 . S
C2115 C2116 1.414 . S
C2115 C2118 1.499 . S
C2116 H2096 0.950 . S
C2116 C2115 1.414 . S
C2116 C2117 1.374 . S
C2117 H2097 0.950 . S
C2117 C2113 1.385 . S
C2117 C2116 1.374 . S
C2118 C2115 1.499 . S
C2118 C2119 1.373 . S
C2118 C2120 1.389 . S
C2119 H2098 0.950 . S
C2119 C2118 1.373 . S
C2119 C2135 1.377 . S
C2120 C2118 1.389 . S
C2120 C2121 1.524 . S
C2120 C2134 1.377 . S
C2121 C2120 1.524 . S
C2121 C2122 1.397 . S
C2121 C2126 1.363 . S
C2122 H2099 0.950 . S
C2122 C2121 1.397 . S
C2122 C2123 1.334 . S
C2123 H2100 0.950 . S
C2123 C2122 1.334 . S
C2123 C2124 1.287 . S
C2124 C2123 1.287 . S
C2124 C2125 1.524 . S
C2124 H2143 0.913 . S
C2125 H2101 0.950 . S
C2125 C2124 1.524 . S
C2125 C2126 1.415 . S
C2126 H2102 0.950 . S
C2126 C2121 1.363 . S
C2126 C2125 1.415 . S
C2127 H2103 0.951 . S
C2127 C2128 1.366 . S
C2127 C2129 1.388 1_556 S
C2128 C2127 1.366 . S
C2128 C2132 1.385 1_556 S
C2129 H2104 0.951 . S
C2129 C2127 1.388 1_554 S
C2129 C2130 1.366 . S
C2130 C2129 1.366 . S
C2130 C2131 1.414 . S
C2130 C2133 1.499 . S
C2131 H2105 0.950 . S
C2131 C2130 1.414 . S
C2131 C2132 1.374 . S
C2132 H2106 0.950 . S
C2132 C2128 1.385 1_554 S
C2132 C2131 1.374 . S
C2133 C2130 1.499 . S
C2133 C2134 1.373 . S
C2133 C2135 1.389 . S
C2134 H2107 0.950 . S
C2134 C2120 1.377 . S
C2134 C2133 1.373 . S
C2135 C2119 1.377 . S
C2135 C2133 1.389 . S
C2135 C2136 1.524 . S
C2136 C2135 1.524 . S
C2136 C2137 1.397 . S
C2136 C2141 1.363 . S
C2137 H2108 0.950 . S
C2137 C2136 1.397 . S
C2137 C2138 1.334 1_554 S
C2138 H2109 0.950 . S
C2138 C2137 1.334 1_556 S
C2138 C2139 1.287 . S
C2139 C2138 1.287 . S
C2139 C2140 1.524 . S
C2139 H2142 0.999 . S
C2140 H2110 0.950 . S
C2140 C2139 1.524 . S
C2140 C2141 1.415 1_556 S
C2141 H2111 0.950 . S
C2141 C2136 1.363 . S
C2141 C2140 1.415 1_554 S
H2142 C2139 0.999 . S
H2143 C2124 0.913 . S
H2144 C2162 0.951 . S
H2145 C2164 0.951 . S
H2146 C2166 0.950 . S
H2147 C2167 0.950 . S
H2148 C2169 0.950 . S
H2149 C2172 0.950 . S
H2150 C2173 0.950 . S
H2151 C2175 0.950 . S
H2152 C2176 0.950 . S
H2153 C2177 0.951 . S
H2154 C2179 0.951 . S
H2155 C2181 0.950 . S
H2156 C2182 0.950 . S
H2157 C2184 0.950 . S
H2158 C2187 0.950 . S
H2159 C2188 0.950 . S
H2160 C2190 0.950 . S
H2161 C2191 0.950 . S
C2162 H2144 0.951 . S
C2162 C2163 1.366 . S
C2162 C2164 1.388 . S
C2163 C2162 1.366 . S
C2163 C2167 1.385 . S
C2164 H2145 0.951 . S
C2164 C2162 1.388 . S
C2164 C2165 1.366 . S
C2165 C2164 1.366 . S
C2165 C2166 1.414 . S
C2165 C2168 1.499 . S
C2166 H2146 0.950 . S
C2166 C2165 1.414 . S
C2166 C2167 1.374 . S
C2167 H2147 0.950 . S
C2167 C2163 1.385 . S
C2167 C2166 1.374 . S
C2168 C2165 1.499 . S
C2168 C2169 1.373 . S
C2168 C2170 1.389 . S
C2169 H2148 0.950 . S
C2169 C2168 1.373 . S
C2169 C2185 1.377 . S
C2170 C2168 1.389 . S
C2170 C2171 1.524 . S
C2170 C2184 1.377 . S
C2171 C2170 1.524 . S
C2171 C2172 1.397 . S
C2171 C2176 1.363 . S
C2172 H2149 0.950 . S
C2172 C2171 1.397 . S
C2172 C2173 1.334 . S
C2173 H2150 0.950 . S
C2173 C2172 1.334 . S
C2173 C2174 1.287 . S
C2174 C2173 1.287 . S
C2174 C2175 1.524 . S
C2174 H2193 0.913 . S
C2175 H2151 0.950 . S
C2175 C2174 1.524 . S
C2175 C2176 1.415 . S
C2176 H2152 0.950 . S
C2176 C2171 1.363 . S
C2176 C2175 1.415 . S
C2177 H2153 0.951 . S
C2177 C2178 1.366 . S
C2177 C2179 1.388 . S
C2178 C2177 1.366 . S
C2178 C2182 1.385 . S
C2179 H2154 0.951 . S
C2179 C2177 1.388 . S
C2179 C2180 1.366 . S
C2180 C2179 1.366 . S
C2180 C2181 1.414 . S
C2180 C2183 1.499 . S
C2181 H2155 0.950 . S
C2181 C2180 1.414 . S
C2181 C2182 1.374 . S
C2182 H2156 0.950 . S
C2182 C2178 1.385 . S
C2182 C2181 1.374 . S
C2183 C2180 1.499 . S
C2183 C2184 1.373 . S
C2183 C2185 1.389 . S
C2184 H2157 0.950 . S
C2184 C2170 1.377 . S
C2184 C2183 1.373 . S
C2185 C2169 1.377 . S
C2185 C2183 1.389 . S
C2185 C2186 1.524 . S
C2186 C2185 1.524 . S
C2186 C2187 1.397 . S
C2186 C2191 1.363 . S
C2187 H2158 0.950 . S
C2187 C2186 1.397 . S
C2187 C2188 1.334 . S
C2188 H2159 0.950 . S
C2188 C2187 1.334 . S
C2188 C2189 1.287 . S
C2189 C2188 1.287 . S
C2189 C2190 1.524 . S
C2189 H2192 0.999 . S
C2190 H2160 0.950 . S
C2190 C2189 1.524 . S
C2190 C2191 1.415 . S
C2191 H2161 0.950 . S
C2191 C2186 1.363 . S
C2191 C2190 1.415 . S
H2192 C2189 0.999 . S
H2193 C2174 0.913 . S
H2194 C2212 0.951 . S
H2195 C2214 0.951 . S
H2196 C2216 0.950 . S
H2197 C2217 0.950 . S
H2198 C2219 0.950 . S
H2199 C2222 0.950 . S
H2200 C2223 0.950 . S
H2201 C2225 0.950 . S
H2202 C2226 0.950 . S
H2203 C2227 0.951 . S
H2204 C2229 0.951 . S
H2205 C2231 0.950 . S
H2206 C2232 0.950 . S
H2207 C2234 0.950 . S
H2208 C2237 0.950 . S
H2209 C2238 0.950 . S
H2210 C2240 0.950 . S
H2211 C2241 0.950 . S
C2212 H2194 0.951 . S
C2212 C2213 1.366 . S
C2212 C2214 1.388 . S
C2213 C2212 1.366 . S
C2213 C2217 1.385 . S
C2214 H2195 0.951 . S
C2214 C2212 1.388 . S
C2214 C2215 1.366 . S
C2215 C2214 1.366 . S
C2215 C2216 1.414 . S
C2215 C2218 1.499 1_556 S
C2216 H2196 0.950 . S
C2216 C2215 1.414 . S
C2216 C2217 1.374 . S
C2217 H2197 0.950 . S
C2217 C2213 1.385 . S
C2217 C2216 1.374 . S
C2218 C2215 1.499 1_554 S
C2218 C2219 1.373 . S
C2218 C2220 1.389 . S
C2219 H2198 0.950 . S
C2219 C2218 1.373 . S
C2219 C2235 1.377 . S
C2220 C2218 1.389 . S
C2220 C2221 1.524 . S
C2220 C2234 1.377 . S
C2221 C2220 1.524 . S
C2221 C2222 1.397 . S
C2221 C2226 1.363 . S
C2222 H2199 0.950 . S
C2222 C2221 1.397 . S
C2222 C2223 1.334 . S
C2223 H2200 0.950 . S
C2223 C2222 1.334 . S
C2223 C2224 1.287 . S
C2224 C2223 1.287 . S
C2224 C2225 1.524 . S
C2224 H2243 0.913 . S
C2225 H2201 0.950 . S
C2225 C2224 1.524 . S
C2225 C2226 1.415 . S
C2226 H2202 0.950 . S
C2226 C2221 1.363 . S
C2226 C2225 1.415 . S
C2227 H2203 0.951 . S
C2227 C2228 1.366 . S
C2227 C2229 1.388 . S
C2228 C2227 1.366 . S
C2228 C2232 1.385 . S
C2229 H2204 0.951 . S
C2229 C2227 1.388 . S
C2229 C2230 1.366 . S
C2230 C2229 1.366 . S
C2230 C2231 1.414 . S
C2230 C2233 1.499 . S
C2231 H2205 0.950 . S
C2231 C2230 1.414 . S
C2231 C2232 1.374 . S
C2232 H2206 0.950 . S
C2232 C2228 1.385 . S
C2232 C2231 1.374 . S
C2233 C2230 1.499 . S
C2233 C2234 1.373 . S
C2233 C2235 1.389 . S
C2234 H2207 0.950 . S
C2234 C2220 1.377 . S
C2234 C2233 1.373 . S
C2235 C2219 1.377 . S
C2235 C2233 1.389 . S
C2235 C2236 1.524 . S
C2236 C2235 1.524 . S
C2236 C2237 1.397 . S
C2236 C2241 1.363 . S
C2237 H2208 0.950 . S
C2237 C2236 1.397 . S
C2237 C2238 1.334 . S
C2238 H2209 0.950 . S
C2238 C2237 1.334 . S
C2238 C2239 1.287 . S
C2239 C2238 1.287 . S
C2239 C2240 1.524 . S
C2239 H2242 0.999 . S
C2240 H2210 0.950 . S
C2240 C2239 1.524 . S
C2240 C2241 1.415 . S
C2241 H2211 0.950 . S
C2241 C2236 1.363 . S
C2241 C2240 1.415 . S
H2242 C2239 0.999 . S
H2243 C2224 0.913 . S
H2244 C2262 0.951 . S
H2245 C2264 0.951 . S
H2246 C2266 0.950 . S
H2247 C2267 0.950 . S
H2248 C2269 0.950 . S
H2249 C2272 0.950 . S
H2250 C2273 0.950 . S
H2251 C2275 0.950 . S
H2252 C2276 0.950 . S
H2253 C2277 0.951 . S
H2254 C2279 0.951 . S
H2255 C2281 0.950 . S
H2256 C2282 0.950 . S
H2257 C2284 0.950 . S
H2258 C2287 0.950 . S
H2259 C2288 0.950 . S
H2260 C2290 0.950 . S
H2261 C2291 0.950 . S
C2262 H2244 0.951 . S
C2262 C2263 1.366 . S
C2262 C2264 1.388 . S
C2263 C2262 1.366 . S
C2263 C2267 1.385 . S
C2264 H2245 0.951 . S
C2264 C2262 1.388 . S
C2264 C2265 1.366 . S
C2265 C2264 1.366 . S
C2265 C2266 1.414 . S
C2265 C2268 1.499 . S
C2266 H2246 0.950 . S
C2266 C2265 1.414 . S
C2266 C2267 1.374 . S
C2267 H2247 0.950 . S
C2267 C2263 1.385 . S
C2267 C2266 1.374 . S
C2268 C2265 1.499 . S
C2268 C2269 1.373 . S
C2268 C2270 1.389 . S
C2269 H2248 0.950 . S
C2269 C2268 1.373 . S
C2269 C2285 1.377 . S
C2270 C2268 1.389 . S
C2270 C2271 1.524 . S
C2270 C2284 1.377 . S
C2271 C2270 1.524 . S
C2271 C2272 1.397 . S
C2271 C2276 1.363 . S
C2272 H2249 0.950 . S
C2272 C2271 1.397 . S
C2272 C2273 1.334 . S
C2273 H2250 0.950 . S
C2273 C2272 1.334 . S
C2273 C2274 1.287 . S
C2274 C2273 1.287 . S
C2274 C2275 1.524 . S
C2274 H2293 0.913 . S
C2275 H2251 0.950 . S
C2275 C2274 1.524 . S
C2275 C2276 1.415 . S
C2276 H2252 0.950 . S
C2276 C2271 1.363 . S
C2276 C2275 1.415 . S
C2277 H2253 0.951 . S
C2277 C2278 1.366 . S
C2277 C2279 1.388 . S
C2278 C2277 1.366 . S
C2278 C2282 1.385 . S
C2279 H2254 0.951 . S
C2279 C2277 1.388 . S
C2279 C2280 1.366 . S
C2280 C2279 1.366 . S
C2280 C2281 1.414 . S
C2280 C2283 1.499 . S
C2281 H2255 0.950 . S
C2281 C2280 1.414 . S
C2281 C2282 1.374 . S
C2282 H2256 0.950 . S
C2282 C2278 1.385 . S
C2282 C2281 1.374 . S
C2283 C2280 1.499 . S
C2283 C2284 1.373 . S
C2283 C2285 1.389 . S
C2284 H2257 0.950 . S
C2284 C2270 1.377 . S
C2284 C2283 1.373 . S
C2285 C2269 1.377 . S
C2285 C2283 1.389 . S
C2285 C2286 1.524 . S
C2286 C2285 1.524 . S
C2286 C2287 1.397 . S
C2286 C2291 1.363 . S
C2287 H2258 0.950 . S
C2287 C2286 1.397 . S
C2287 C2288 1.334 . S
C2288 H2259 0.950 . S
C2288 C2287 1.334 . S
C2288 C2289 1.287 . S
C2289 C2288 1.287 . S
C2289 C2290 1.524 . S
C2289 H2292 0.999 . S
C2290 H2260 0.950 . S
C2290 C2289 1.524 . S
C2290 C2291 1.415 . S
C2291 H2261 0.950 . S
C2291 C2286 1.363 . S
C2291 C2290 1.415 . S
H2292 C2289 0.999 . S
H2293 C2274 0.913 . S
H2294 C2312 0.951 . S
H2295 C2314 0.951 . S
H2296 C2316 0.950 . S
H2297 C2317 0.950 . S
H2298 C2319 0.950 . S
H2299 C2322 0.950 . S
H2300 C2323 0.950 . S
H2301 C2325 0.950 . S
H2302 C2326 0.950 . S
H2303 C2327 0.951 . S
H2304 C2329 0.951 . S
H2305 C2331 0.950 . S
H2306 C2332 0.950 . S
H2307 C2334 0.950 . S
H2308 C2337 0.950 . S
H2309 C2338 0.950 . S
H2310 C2340 0.950 . S
H2311 C2341 0.950 . S
C2312 H2294 0.951 . S
C2312 C2313 1.366 . S
C2312 C2314 1.388 1_556 S
C2313 C2312 1.366 . S
C2313 C2317 1.385 . S
C2314 H2295 0.951 . S
C2314 C2312 1.388 1_554 S
C2314 C2315 1.366 . S
C2315 C2314 1.366 . S
C2315 C2316 1.414 . S
C2315 C2318 1.499 . S
C2316 H2296 0.950 . S
C2316 C2315 1.414 . S
C2316 C2317 1.374 1_554 S
C2317 H2297 0.950 . S
C2317 C2313 1.385 . S
C2317 C2316 1.374 1_556 S
C2318 C2315 1.499 . S
C2318 C2319 1.373 . S
C2318 C2320 1.389 . S
C2319 H2298 0.950 . S
C2319 C2318 1.373 . S
C2319 C2335 1.377 . S
C2320 C2318 1.389 . S
C2320 C2321 1.524 . S
C2320 C2334 1.377 . S
C2321 C2320 1.524 . S
C2321 C2322 1.397 . S
C2321 C2326 1.363 . S
C2322 H2299 0.950 . S
C2322 C2321 1.397 . S
C2322 C2323 1.334 . S
C2323 H2300 0.950 . S
C2323 C2322 1.334 . S
C2323 C2324 1.287 . S
C2324 C2323 1.287 . S
C2324 C2325 1.524 . S
C2324 H2343 0.913 . S
C2325 H2301 0.950 . S
C2325 C2324 1.524 . S
C2325 C2326 1.415 . S
C2326 H2302 0.950 . S
C2326 C2321 1.363 . S
C2326 C2325 1.415 . S
C2327 H2303 0.951 . S
C2327 C2328 1.366 . S
C2327 C2329 1.388 . S
C2328 C2327 1.366 . S
C2328 C2332 1.385 . S
C2329 H2304 0.951 . S
C2329 C2327 1.388 . S
C2329 C2330 1.366 . S
C2330 C2329 1.366 . S
C2330 C2331 1.414 . S
C2330 C2333 1.499 . S
C2331 H2305 0.950 . S
C2331 C2330 1.414 . S
C2331 C2332 1.374 . S
C2332 H2306 0.950 . S
C2332 C2328 1.385 . S
C2332 C2331 1.374 . S
C2333 C2330 1.499 . S
C2333 C2334 1.373 . S
C2333 C2335 1.389 . S
C2334 H2307 0.950 . S
C2334 C2320 1.377 . S
C2334 C2333 1.373 . S
C2335 C2319 1.377 . S
C2335 C2333 1.389 . S
C2335 C2336 1.524 . S
C2336 C2335 1.524 . S
C2336 C2337 1.397 . S
C2336 C2341 1.363 . S
C2337 H2308 0.950 . S
C2337 C2336 1.397 . S
C2337 C2338 1.334 . S
C2338 H2309 0.950 . S
C2338 C2337 1.334 . S
C2338 C2339 1.287 . S
C2339 C2338 1.287 . S
C2339 C2340 1.524 . S
C2339 H2342 0.999 . S
C2340 H2310 0.950 . S
C2340 C2339 1.524 . S
C2340 C2341 1.415 . S
C2341 H2311 0.950 . S
C2341 C2336 1.363 . S
C2341 C2340 1.415 . S
H2342 C2339 0.999 . S
H2343 C2324 0.913 . S
H2344 C2362 0.951 . S
H2345 C2364 0.951 . S
H2346 C2366 0.950 . S
H2347 C2367 0.950 . S
H2348 C2369 0.950 . S
H2349 C2372 0.950 . S
H2350 C2373 0.950 . S
H2351 C2375 0.950 . S
H2352 C2376 0.950 . S
H2353 C2377 0.951 . S
H2354 C2379 0.951 . S
H2355 C2381 0.950 . S
H2356 C2382 0.950 . S
H2357 C2384 0.950 . S
H2358 C2387 0.950 . S
H2359 C2388 0.950 . S
H2360 C2390 0.950 . S
H2361 C2391 0.950 . S
C2362 H2344 0.951 . S
C2362 C2363 1.366 . S
C2362 C2364 1.388 . S
C2363 C2362 1.366 . S
C2363 C2367 1.385 . S
C2364 H2345 0.951 . S
C2364 C2362 1.388 . S
C2364 C2365 1.366 . S
C2365 C2364 1.366 . S
C2365 C2366 1.414 . S
C2365 C2368 1.499 . S
C2366 H2346 0.950 . S
C2366 C2365 1.414 . S
C2366 C2367 1.374 . S
C2367 H2347 0.950 . S
C2367 C2363 1.385 . S
C2367 C2366 1.374 . S
C2368 C2365 1.499 . S
C2368 C2369 1.373 . S
C2368 C2370 1.389 . S
C2369 H2348 0.950 . S
C2369 C2368 1.373 . S
C2369 C2385 1.377 . S
C2370 C2368 1.389 . S
C2370 C2371 1.524 . S
C2370 C2384 1.377 . S
C2371 C2370 1.524 . S
C2371 C2372 1.397 . S
C2371 C2376 1.363 . S
C2372 H2349 0.950 . S
C2372 C2371 1.397 . S
C2372 C2373 1.334 . S
C2373 H2350 0.950 . S
C2373 C2372 1.334 . S
C2373 C2374 1.287 . S
C2374 C2373 1.287 . S
C2374 C2375 1.524 . S
C2374 H2393 0.913 . S
C2375 H2351 0.950 . S
C2375 C2374 1.524 . S
C2375 C2376 1.415 . S
C2376 H2352 0.950 . S
C2376 C2371 1.363 . S
C2376 C2375 1.415 . S
C2377 H2353 0.951 . S
C2377 C2378 1.366 . S
C2377 C2379 1.388 . S
C2378 C2377 1.366 . S
C2378 C2382 1.385 . S
C2379 H2354 0.951 . S
C2379 C2377 1.388 . S
C2379 C2380 1.366 . S
C2380 C2379 1.366 . S
C2380 C2381 1.414 . S
C2380 C2383 1.499 . S
C2381 H2355 0.950 . S
C2381 C2380 1.414 . S
C2381 C2382 1.374 . S
C2382 H2356 0.950 . S
C2382 C2378 1.385 . S
C2382 C2381 1.374 . S
C2383 C2380 1.499 . S
C2383 C2384 1.373 . S
C2383 C2385 1.389 . S
C2384 H2357 0.950 . S
C2384 C2370 1.377 . S
C2384 C2383 1.373 . S
C2385 C2369 1.377 . S
C2385 C2383 1.389 . S
C2385 C2386 1.524 . S
C2386 C2385 1.524 . S
C2386 C2387 1.397 . S
C2386 C2391 1.363 . S
C2387 H2358 0.950 . S
C2387 C2386 1.397 . S
C2387 C2388 1.334 . S
C2388 H2359 0.950 . S
C2388 C2387 1.334 . S
C2388 C2389 1.287 . S
C2389 C2388 1.287 . S
C2389 C2390 1.524 . S
C2389 H2392 0.999 . S
C2390 H2360 0.950 . S
C2390 C2389 1.524 . S
C2390 C2391 1.415 . S
C2391 H2361 0.950 . S
C2391 C2386 1.363 . S
C2391 C2390 1.415 . S
H2392 C2389 0.999 . S
H2393 C2374 0.913 . S
H2394 C2412 0.951 . S
H2395 C2414 0.951 . S
H2396 C2416 0.950 . S
H2397 C2417 0.950 . S
H2398 C2419 0.950 . S
H2399 C2422 0.950 . S
H2400 C2423 0.950 . S
H2401 C2425 0.950 . S
H2402 C2426 0.950 . S
H2403 C2427 0.951 . S
H2404 C2429 0.951 . S
H2405 C2431 0.950 . S
H2406 C2432 0.950 . S
H2407 C2434 0.950 . S
H2408 C2437 0.950 . S
H2409 C2438 0.950 . S
H2410 C2440 0.950 . S
H2411 C2441 0.950 . S
C2412 H2394 0.951 . S
C2412 C2413 1.366 . S
C2412 C2414 1.388 . S
C2413 C2412 1.366 . S
C2413 C2417 1.385 . S
C2414 H2395 0.951 . S
C2414 C2412 1.388 . S
C2414 C2415 1.366 . S
C2415 C2414 1.366 . S
C2415 C2416 1.414 . S
C2415 C2418 1.499 . S
C2416 H2396 0.950 . S
C2416 C2415 1.414 . S
C2416 C2417 1.374 . S
C2417 H2397 0.950 . S
C2417 C2413 1.385 . S
C2417 C2416 1.374 . S
C2418 C2415 1.499 . S
C2418 C2419 1.373 . S
C2418 C2420 1.389 . S
C2419 H2398 0.950 . S
C2419 C2418 1.373 . S
C2419 C2435 1.377 . S
C2420 C2418 1.389 . S
C2420 C2421 1.524 . S
C2420 C2434 1.377 . S
C2421 C2420 1.524 . S
C2421 C2422 1.397 . S
C2421 C2426 1.363 . S
C2422 H2399 0.950 . S
C2422 C2421 1.397 . S
C2422 C2423 1.334 . S
C2423 H2400 0.950 . S
C2423 C2422 1.334 . S
C2423 C2424 1.287 . S
C2424 C2423 1.287 . S
C2424 C2425 1.524 . S
C2424 H2443 0.913 . S
C2425 H2401 0.950 . S
C2425 C2424 1.524 . S
C2425 C2426 1.415 . S
C2426 H2402 0.950 . S
C2426 C2421 1.363 . S
C2426 C2425 1.415 . S
C2427 H2403 0.951 . S
C2427 C2428 1.366 . S
C2427 C2429 1.388 . S
C2428 C2427 1.366 . S
C2428 C2432 1.385 . S
C2429 H2404 0.951 . S
C2429 C2427 1.388 . S
C2429 C2430 1.366 . S
C2430 C2429 1.366 . S
C2430 C2431 1.414 . S
C2430 C2433 1.499 . S
C2431 H2405 0.950 . S
C2431 C2430 1.414 . S
C2431 C2432 1.374 . S
C2432 H2406 0.950 . S
C2432 C2428 1.385 . S
C2432 C2431 1.374 . S
C2433 C2430 1.499 . S
C2433 C2434 1.373 . S
C2433 C2435 1.389 . S
C2434 H2407 0.950 . S
C2434 C2420 1.377 . S
C2434 C2433 1.373 . S
C2435 C2419 1.377 . S
C2435 C2433 1.389 . S
C2435 C2436 1.524 . S
C2436 C2435 1.524 . S
C2436 C2437 1.397 . S
C2436 C2441 1.363 . S
C2437 H2408 0.950 . S
C2437 C2436 1.397 . S
C2437 C2438 1.334 . S
C2438 H2409 0.950 . S
C2438 C2437 1.334 . S
C2438 C2439 1.287 . S
C2439 C2438 1.287 . S
C2439 C2440 1.524 . S
C2439 H2442 0.999 . S
C2440 H2410 0.950 . S
C2440 C2439 1.524 . S
C2440 C2441 1.415 . S
C2441 H2411 0.950 . S
C2441 C2436 1.363 . S
C2441 C2440 1.415 . S
H2442 C2439 0.999 . S
H2443 C2424 0.913 . S
H2444 C2462 0.951 . S
H2445 C2464 0.951 . S
H2446 C2466 0.950 . S
H2447 C2467 0.950 . S
H2448 C2469 0.950 . S
H2449 C2472 0.950 . S
H2450 C2473 0.950 . S
H2451 C2475 0.950 . S
H2452 C2476 0.950 . S
H2453 C2477 0.951 . S
H2454 C2479 0.951 . S
H2455 C2481 0.950 . S
H2456 C2482 0.950 . S
H2457 C2484 0.950 . S
H2458 C2487 0.950 . S
H2459 C2488 0.950 . S
H2460 C2490 0.950 . S
H2461 C2491 0.950 . S
C2462 H2444 0.951 . S
C2462 C2463 1.366 . S
C2462 C2464 1.388 . S
C2463 C2462 1.366 . S
C2463 C2467 1.385 . S
C2464 H2445 0.951 . S
C2464 C2462 1.388 . S
C2464 C2465 1.366 . S
C2465 C2464 1.366 . S
C2465 C2466 1.414 . S
C2465 C2468 1.499 . S
C2466 H2446 0.950 . S
C2466 C2465 1.414 . S
C2466 C2467 1.374 . S
C2467 H2447 0.950 . S
C2467 C2463 1.385 . S
C2467 C2466 1.374 . S
C2468 C2465 1.499 . S
C2468 C2469 1.373 . S
C2468 C2470 1.389 . S
C2469 H2448 0.950 . S
C2469 C2468 1.373 . S
C2469 C2485 1.377 . S
C2470 C2468 1.389 . S
C2470 C2471 1.524 . S
C2470 C2484 1.377 . S
C2471 C2470 1.524 . S
C2471 C2472 1.397 . S
C2471 C2476 1.363 . S
C2472 H2449 0.950 . S
C2472 C2471 1.397 . S
C2472 C2473 1.334 . S
C2473 H2450 0.950 . S
C2473 C2472 1.334 . S
C2473 C2474 1.287 . S
C2474 C2473 1.287 . S
C2474 C2475 1.524 . S
C2474 H2493 0.913 . S
C2475 H2451 0.950 . S
C2475 C2474 1.524 . S
C2475 C2476 1.415 . S
C2476 H2452 0.950 . S
C2476 C2471 1.363 . S
C2476 C2475 1.415 . S
C2477 H2453 0.951 . S
C2477 C2478 1.366 . S
C2477 C2479 1.388 . S
C2478 C2477 1.366 . S
C2478 C2482 1.385 . S
C2479 H2454 0.951 . S
C2479 C2477 1.388 . S
C2479 C2480 1.366 . S
C2480 C2479 1.366 . S
C2480 C2481 1.414 . S
C2480 C2483 1.499 . S
C2481 H2455 0.950 . S
C2481 C2480 1.414 . S
C2481 C2482 1.374 . S
C2482 H2456 0.950 . S
C2482 C2478 1.385 . S
C2482 C2481 1.374 . S
C2483 C2480 1.499 . S
C2483 C2484 1.373 . S
C2483 C2485 1.389 . S
C2484 H2457 0.950 . S
C2484 C2470 1.377 . S
C2484 C2483 1.373 . S
C2485 C2469 1.377 . S
C2485 C2483 1.389 . S
C2485 C2486 1.524 . S
C2486 C2485 1.524 . S
C2486 C2487 1.397 . S
C2486 C2491 1.363 . S
C2487 H2458 0.950 . S
C2487 C2486 1.397 . S
C2487 C2488 1.334 . S
C2488 H2459 0.950 . S
C2488 C2487 1.334 . S
C2488 C2489 1.287 . S
C2489 C2488 1.287 . S
C2489 C2490 1.524 . S
C2489 H2492 0.999 . S
C2490 H2460 0.950 . S
C2490 C2489 1.524 . S
C2490 C2491 1.415 . S
C2491 H2461 0.950 . S
C2491 C2486 1.363 . S
C2491 C2490 1.415 . S
H2492 C2489 0.999 . S
H2493 C2474 0.913 . S
H2494 C2512 0.951 . S
H2495 C2514 0.951 . S
H2496 C2516 0.950 . S
H2497 C2517 0.950 . S
H2498 C2519 0.950 . S
H2499 C2522 0.950 . S
H2500 C2523 0.950 . S
H2501 C2525 0.950 . S
H2502 C2526 0.950 . S
H2503 C2527 0.951 . S
H2504 C2529 0.951 . S
H2505 C2531 0.950 . S
H2506 C2532 0.950 . S
H2507 C2534 0.950 . S
H2508 C2537 0.950 . S
H2509 C2538 0.950 . S
H2510 C2540 0.950 . S
H2511 C2541 0.950 . S
C2512 H2494 0.951 . S
C2512 C2513 1.366 . S
C2512 C2514 1.388 . S
C2513 C2512 1.366 . S
C2513 C2517 1.385 . S
C2514 H2495 0.951 . S
C2514 C2512 1.388 . S
C2514 C2515 1.366 . S
C2515 C2514 1.366 . S
C2515 C2516 1.414 . S
C2515 C2518 1.499 . S
C2516 H2496 0.950 . S
C2516 C2515 1.414 . S
C2516 C2517 1.374 . S
C2517 H2497 0.950 . S
C2517 C2513 1.385 . S
C2517 C2516 1.374 . S
C2518 C2515 1.499 . S
C2518 C2519 1.373 . S
C2518 C2520 1.389 . S
C2519 H2498 0.950 . S
C2519 C2518 1.373 . S
C2519 C2535 1.377 . S
C2520 C2518 1.389 . S
C2520 C2521 1.524 . S
C2520 C2534 1.377 . S
C2521 C2520 1.524 . S
C2521 C2522 1.397 . S
C2521 C2526 1.363 . S
C2522 H2499 0.950 . S
C2522 C2521 1.397 . S
C2522 C2523 1.334 . S
C2523 H2500 0.950 . S
C2523 C2522 1.334 . S
C2523 C2524 1.287 . S
C2524 C2523 1.287 . S
C2524 C2525 1.524 . S
C2524 H2543 0.913 . S
C2525 H2501 0.950 . S
C2525 C2524 1.524 . S
C2525 C2526 1.415 . S
C2526 H2502 0.950 . S
C2526 C2521 1.363 . S
C2526 C2525 1.415 . S
C2527 H2503 0.951 . S
C2527 C2528 1.366 . S
C2527 C2529 1.388 . S
C2528 C2527 1.366 . S
C2528 C2532 1.385 . S
C2529 H2504 0.951 . S
C2529 C2527 1.388 . S
C2529 C2530 1.366 . S
C2530 C2529 1.366 . S
C2530 C2531 1.414 . S
C2530 C2533 1.499 . S
C2531 H2505 0.950 . S
C2531 C2530 1.414 . S
C2531 C2532 1.374 . S
C2532 H2506 0.950 . S
C2532 C2528 1.385 . S
C2532 C2531 1.374 . S
C2533 C2530 1.499 . S
C2533 C2534 1.373 . S
C2533 C2535 1.389 . S
C2534 H2507 0.950 . S
C2534 C2520 1.377 . S
C2534 C2533 1.373 . S
C2535 C2519 1.377 . S
C2535 C2533 1.389 . S
C2535 C2536 1.524 . S
C2536 C2535 1.524 . S
C2536 C2537 1.397 . S
C2536 C2541 1.363 . S
C2537 H2508 0.950 . S
C2537 C2536 1.397 . S
C2537 C2538 1.334 . S
C2538 H2509 0.950 . S
C2538 C2537 1.334 . S
C2538 C2539 1.287 . S
C2539 C2538 1.287 . S
C2539 C2540 1.524 . S
C2539 H2542 0.999 . S
C2540 H2510 0.950 . S
C2540 C2539 1.524 . S
C2540 C2541 1.415 . S
C2541 H2511 0.950 . S
C2541 C2536 1.363 . S
C2541 C2540 1.415 . S
H2542 C2539 0.999 . S
H2543 C2524 0.913 . S
H2544 C2562 0.951 . S
H2545 C2564 0.951 . S
H2546 C2566 0.950 . S
H2547 C2567 0.950 . S
H2548 C2569 0.950 . S
H2549 C2572 0.950 . S
H2550 C2573 0.950 . S
H2551 C2575 0.950 . S
H2552 C2576 0.950 . S
H2553 C2577 0.951 1_554 S
H2554 C2579 0.951 . S
H2555 C2581 0.950 . S
H2556 C2582 0.950 . S
H2557 C2584 0.950 . S
H2558 C2587 0.950 . S
H2559 C2588 0.950 . S
H2560 C2590 0.931 1_554 S
H2561 C2591 0.950 . S
C2562 H2544 0.951 . S
C2562 C2563 1.366 . S
C2562 C2564 1.388 . S
C2563 C2562 1.366 . S
C2563 C2567 1.385 . S
C2564 H2545 0.951 . S
C2564 C2562 1.388 . S
C2564 C2565 1.366 . S
C2565 C2564 1.366 . S
C2565 C2566 1.414 . S
C2565 C2568 1.499 . S
C2566 H2546 0.950 . S
C2566 C2565 1.414 . S
C2566 C2567 1.374 . S
C2567 H2547 0.950 . S
C2567 C2563 1.385 . S
C2567 C2566 1.374 . S
C2568 C2565 1.499 . S
C2568 C2569 1.373 . S
C2568 C2570 1.389 . S
C2569 H2548 0.950 . S
C2569 C2568 1.373 . S
C2569 C2585 1.377 . S
C2570 C2568 1.389 . S
C2570 C2571 1.524 . S
C2570 C2584 1.377 . S
C2571 C2570 1.524 . S
C2571 C2572 1.397 . S
C2571 C2576 1.363 . S
C2572 H2549 0.950 . S
C2572 C2571 1.397 . S
C2572 C2573 1.334 . S
C2573 H2550 0.950 . S
C2573 C2572 1.334 . S
C2573 C2574 1.287 . S
C2574 C2573 1.287 . S
C2574 C2575 1.524 . S
C2574 H2593 0.913 . S
C2575 H2551 0.950 . S
C2575 C2574 1.524 . S
C2575 C2576 1.415 . S
C2576 H2552 0.950 . S
C2576 C2571 1.363 . S
C2576 C2575 1.415 . S
C2577 H2553 0.951 1_556 S
C2577 C2578 1.366 . S
C2577 C2579 1.388 . S
C2578 C2577 1.366 . S
C2578 C2582 1.385 . S
C2579 H2554 0.951 . S
C2579 C2577 1.388 . S
C2579 C2580 1.366 . S
C2580 C2579 1.366 . S
C2580 C2581 1.414 . S
C2580 C2583 1.499 . S
C2581 H2555 0.950 . S
C2581 C2580 1.414 . S
C2581 C2582 1.374 . S
C2582 H2556 0.950 . S
C2582 C2578 1.385 . S
C2582 C2581 1.374 . S
C2583 C2580 1.499 . S
C2583 C2584 1.373 . S
C2583 C2585 1.389 . S
C2584 H2557 0.950 . S
C2584 C2570 1.377 . S
C2584 C2583 1.373 . S
C2585 C2569 1.377 . S
C2585 C2583 1.389 . S
C2585 C2586 1.524 . S
C2586 C2585 1.524 . S
C2586 C2587 1.397 . S
C2586 C2591 1.363 . S
C2587 H2558 0.950 . S
C2587 C2586 1.397 . S
C2587 C2588 1.334 . S
C2588 H2559 0.950 . S
C2588 C2587 1.334 . S
C2588 C2589 1.287 . S
C2589 C2588 1.287 . S
C2589 C2590 1.524 . S
C2589 H2592 0.999 . S
C2590 H2560 0.931 1_556 S
C2590 C2589 1.524 . S
C2590 C2591 1.415 . S
C2591 H2561 0.950 . S
C2591 C2586 1.363 . S
C2591 C2590 1.415 . S
H2592 C2589 0.999 . S
H2593 C2574 0.913 . S
H2594 C2612 0.951 . S
H2595 C2614 0.951 . S
H2596 C2616 0.950 . S
H2597 C2617 0.950 . S
H2598 C2619 0.950 . S
H2599 C2622 0.950 . S
H2600 C2623 0.950 . S
H2601 C2625 0.950 . S
H2602 C2626 0.950 . S
H2603 C2627 0.951 . S
H2604 C2629 0.951 . S
H2605 C2631 0.950 . S
H2606 C2632 0.950 . S
H2607 C2634 0.950 . S
H2608 C2637 0.950 . S
H2609 C2638 0.950 . S
H2610 C2640 0.950 . S
H2611 C2641 0.950 . S
C2612 H2594 0.951 . S
C2612 C2613 1.366 . S
C2612 C2614 1.388 . S
C2613 C2612 1.366 . S
C2613 C2617 1.385 . S
C2614 H2595 0.951 . S
C2614 C2612 1.388 . S
C2614 C2615 1.366 . S
C2615 C2614 1.366 . S
C2615 C2616 1.414 . S
C2615 C2618 1.499 . S
C2616 H2596 0.950 . S
C2616 C2615 1.414 . S
C2616 C2617 1.374 . S
C2617 H2597 0.950 . S
C2617 C2613 1.385 . S
C2617 C2616 1.374 . S
C2618 C2615 1.499 . S
C2618 C2619 1.373 . S
C2618 C2620 1.389 . S
C2619 H2598 0.950 . S
C2619 C2618 1.373 . S
C2619 C2635 1.377 . S
C2620 C2618 1.389 . S
C2620 C2621 1.524 . S
C2620 C2634 1.377 . S
C2621 C2620 1.524 . S
C2621 C2622 1.397 . S
C2621 C2626 1.363 . S
C2622 H2599 0.950 . S
C2622 C2621 1.397 . S
C2622 C2623 1.334 . S
C2623 H2600 0.950 . S
C2623 C2622 1.334 . S
C2623 C2624 1.287 . S
C2624 C2623 1.287 . S
C2624 C2625 1.524 . S
C2624 H2643 0.913 . S
C2625 H2601 0.950 . S
C2625 C2624 1.524 . S
C2625 C2626 1.415 . S
C2626 H2602 0.950 . S
C2626 C2621 1.363 . S
C2626 C2625 1.415 . S
C2627 H2603 0.951 . S
C2627 C2628 1.366 . S
C2627 C2629 1.388 . S
C2628 C2627 1.366 . S
C2628 C2632 1.385 . S
C2629 H2604 0.951 . S
C2629 C2627 1.388 . S
C2629 C2630 1.366 . S
C2630 C2629 1.366 . S
C2630 C2631 1.414 . S
C2630 C2633 1.499 . S
C2631 H2605 0.950 . S
C2631 C2630 1.414 . S
C2631 C2632 1.374 . S
C2632 H2606 0.950 . S
C2632 C2628 1.385 . S
C2632 C2631 1.374 . S
C2633 C2630 1.499 . S
C2633 C2634 1.373 . S
C2633 C2635 1.389 . S
C2634 H2607 0.950 . S
C2634 C2620 1.377 . S
C2634 C2633 1.373 . S
C2635 C2619 1.377 . S
C2635 C2633 1.389 . S
C2635 C2636 1.524 . S
C2636 C2635 1.524 . S
C2636 C2637 1.397 . S
C2636 C2641 1.363 . S
C2637 H2608 0.950 . S
C2637 C2636 1.397 . S
C2637 C2638 1.334 . S
C2638 H2609 0.950 . S
C2638 C2637 1.334 . S
C2638 C2639 1.287 . S
C2639 C2638 1.287 . S
C2639 C2640 1.524 . S
C2639 H2642 0.999 . S
C2640 H2610 0.950 . S
C2640 C2639 1.524 . S
C2640 C2641 1.415 . S
C2641 H2611 0.950 . S
C2641 C2636 1.363 . S
C2641 C2640 1.415 . S
H2642 C2639 0.999 . S
H2643 C2624 0.913 . S
H2644 C2662 0.951 . S
H2645 C2664 0.951 . S
H2646 C2666 0.950 . S
H2647 C2667 0.950 . S
H2648 C2669 0.950 . S
H2649 C2672 0.950 . S
H2650 C2673 0.950 . S
H2651 C2675 0.950 . S
H2652 C2676 0.950 . S
H2653 C2677 0.951 . S
H2654 C2679 0.951 . S
H2655 C2681 0.950 . S
H2656 C2682 0.950 . S
H2657 C2684 0.950 . S
H2658 C2687 0.950 . S
H2659 C2688 0.950 . S
H2660 C2690 0.950 . S
H2661 C2691 0.950 . S
C2662 H2644 0.951 . S
C2662 C2663 1.366 . S
C2662 C2664 1.388 . S
C2663 C2662 1.366 . S
C2663 C2667 1.385 . S
C2664 H2645 0.951 . S
C2664 C2662 1.388 . S
C2664 C2665 1.366 . S
C2665 C2664 1.366 . S
C2665 C2666 1.414 . S
C2665 C2668 1.499 . S
C2666 H2646 0.950 . S
C2666 C2665 1.414 . S
C2666 C2667 1.374 . S
C2667 H2647 0.950 . S
C2667 C2663 1.385 . S
C2667 C2666 1.374 . S
C2668 C2665 1.499 . S
C2668 C2669 1.373 . S
C2668 C2670 1.389 . S
C2669 H2648 0.950 . S
C2669 C2668 1.373 . S
C2669 C2685 1.377 . S
C2670 C2668 1.389 . S
C2670 C2671 1.524 . S
C2670 C2684 1.377 . S
C2671 C2670 1.524 . S
C2671 C2672 1.397 . S
C2671 C2676 1.363 . S
C2672 H2649 0.950 . S
C2672 C2671 1.397 . S
C2672 C2673 1.334 . S
C2673 H2650 0.950 . S
C2673 C2672 1.334 . S
C2673 C2674 1.287 . S
C2674 C2673 1.287 . S
C2674 C2675 1.524 . S
C2674 H2693 0.913 . S
C2675 H2651 0.950 . S
C2675 C2674 1.524 . S
C2675 C2676 1.415 . S
C2676 H2652 0.950 . S
C2676 C2671 1.363 . S
C2676 C2675 1.415 . S
C2677 H2653 0.951 . S
C2677 C2678 1.366 . S
C2677 C2679 1.388 . S
C2678 C2677 1.366 . S
C2678 C2682 1.385 . S
C2679 H2654 0.951 . S
C2679 C2677 1.388 . S
C2679 C2680 1.366 . S
C2680 C2679 1.366 . S
C2680 C2681 1.414 . S
C2680 C2683 1.499 . S
C2681 H2655 0.950 . S
C2681 C2680 1.414 . S
C2681 C2682 1.374 . S
C2682 H2656 0.950 . S
C2682 C2678 1.385 . S
C2682 C2681 1.374 . S
C2683 C2680 1.499 . S
C2683 C2684 1.373 . S
C2683 C2685 1.389 . S
C2684 H2657 0.950 . S
C2684 C2670 1.377 . S
C2684 C2683 1.373 . S
C2685 C2669 1.377 . S
C2685 C2683 1.389 . S
C2685 C2686 1.524 . S
C2686 C2685 1.524 . S
C2686 C2687 1.397 . S
C2686 C2691 1.363 . S
C2687 H2658 0.950 . S
C2687 C2686 1.397 . S
C2687 C2688 1.334 . S
C2688 H2659 0.950 . S
C2688 C2687 1.334 . S
C2688 C2689 1.287 . S
C2689 C2688 1.287 . S
C2689 C2690 1.524 . S
C2689 H2692 0.999 . S
C2690 H2660 0.950 . S
C2690 C2689 1.524 . S
C2690 C2691 1.415 . S
C2691 H2661 0.950 . S
C2691 C2686 1.363 . S
C2691 C2690 1.415 . S
H2692 C2689 0.999 . S
H2693 C2674 0.913 . S
H2694 C2712 0.951 . S
H2695 C2714 0.951 . S
H2696 C2716 0.950 . S
H2697 C2717 0.950 . S
H2698 C2719 0.950 . S
H2699 C2722 0.950 . S
H2700 C2723 0.950 . S
H2701 C2725 0.950 . S
H2702 C2726 0.950 . S
H2703 C2727 0.951 . S
H2704 C2729 0.951 . S
H2705 C2731 0.950 1_545 S
H2706 C2732 0.950 . S
H2707 C2734 0.950 . S
H2708 C2737 0.950 . S
H2709 C2738 0.950 . S
H2710 C2740 0.950 . S
H2711 C2741 0.950 . S
C2712 H2694 0.951 . S
C2712 C2713 1.366 . S
C2712 C2714 1.388 . S
C2713 C2712 1.366 . S
C2713 C2717 1.385 . S
C2714 H2695 0.951 . S
C2714 C2712 1.388 . S
C2714 C2715 1.366 . S
C2715 C2714 1.366 . S
C2715 C2716 1.414 . S
C2715 C2718 1.499 . S
C2716 H2696 0.950 . S
C2716 C2715 1.414 . S
C2716 C2717 1.374 . S
C2717 H2697 0.950 . S
C2717 C2713 1.385 . S
C2717 C2716 1.374 . S
C2718 C2715 1.499 . S
C2718 C2719 1.373 . S
C2718 C2720 1.389 . S
C2719 H2698 0.950 . S
C2719 C2718 1.373 . S
C2719 C2735 1.377 . S
C2720 C2718 1.389 . S
C2720 C2721 1.524 . S
C2720 C2734 1.377 . S
C2721 C2720 1.524 . S
C2721 C2722 1.397 . S
C2721 C2726 1.363 . S
C2722 H2699 0.950 . S
C2722 C2721 1.397 . S
C2722 C2723 1.334 . S
C2723 H2700 0.950 . S
C2723 C2722 1.334 . S
C2723 C2724 1.287 . S
C2724 C2723 1.287 . S
C2724 C2725 1.524 . S
C2724 H2743 0.913 . S
C2725 H2701 0.950 . S
C2725 C2724 1.524 . S
C2725 C2726 1.415 . S
C2726 H2702 0.950 . S
C2726 C2721 1.363 . S
C2726 C2725 1.415 . S
C2727 H2703 0.951 . S
C2727 C2728 1.366 . S
C2727 C2729 1.388 . S
C2728 C2727 1.366 . S
C2728 C2732 1.385 . S
C2729 H2704 0.951 . S
C2729 C2727 1.388 . S
C2729 C2730 1.366 . S
C2730 C2729 1.366 . S
C2730 C2731 1.414 . S
C2730 C2733 1.499 1_565 S
C2731 H2705 0.950 1_565 S
C2731 C2730 1.414 . S
C2731 C2732 1.374 . S
C2732 H2706 0.950 . S
C2732 C2728 1.385 . S
C2732 C2731 1.374 . S
C2733 C2730 1.499 1_545 S
C2733 C2734 1.373 . S
C2733 C2735 1.389 . S
C2734 H2707 0.950 . S
C2734 C2720 1.377 . S
C2734 C2733 1.373 . S
C2735 C2719 1.377 . S
C2735 C2733 1.389 . S
C2735 C2736 1.524 1_545 S
C2736 C2735 1.524 1_565 S
C2736 C2737 1.397 . S
C2736 C2741 1.363 . S
C2737 H2708 0.950 . S
C2737 C2736 1.397 . S
C2737 C2738 1.334 . S
C2738 H2709 0.950 . S
C2738 C2737 1.334 . S
C2738 C2739 1.287 . S
C2739 C2738 1.287 . S
C2739 C2740 1.524 . S
C2739 H2742 0.999 . S
C2740 H2710 0.950 . S
C2740 C2739 1.524 . S
C2740 C2741 1.415 . S
C2741 H2711 0.950 . S
C2741 C2736 1.363 . S
C2741 C2740 1.415 . S
H2742 C2739 0.999 . S
H2743 C2724 0.913 . S
C378 C184 1.248 . S
C363 C62 1.222 . S
C428 C199 1.772 . S
C413 C73 1.717 . S
C463 C84 1.834 . S
C478 C212 1.862 . S
C528 C226 1.257 . S
C513 C49 1.009 . S
C578 C238 1.541 . S
C563 C118 1.576 . S
C628 C252 1.258 . S
C613 C137 1.219 . S
C663 C129 1.806 . S
C678 C266 1.771 . S
C728 C281 1.723 . S
C713 C106 1.695 . S
C763 C128 1.916 . S
C778 C297 1.978 . S
C828 C310 1.580 . S
C813 C104 1.269 . S
C863 C115 1.664 . S
C878 C295 1.866 . S
C928 C308 1.602 . S
C913 C139 1.607 . S
C963 C85 2.034 . S
C978 C324 2.027 . S
C1013 C52 1.228 . S
C1028 C323 1.251 . S
C1063 C60 1.188 . S
C1078 C322 1.294 . S
C1113 C71 1.335 . S
C1128 C325 1.606 1_655 S
C1163 C40 1.964 . S
C1178 C227 2.048 . S
C1213 C162 1.047 . S
C1228 C225 1.040 . S
C1278 C185 1.137 . S
C1263 C173 1.120 . S
C1328 C196 2.046 . S
C1313 C93 1.886 . S
C1363 C51 1.464 . S
C1378 C241 1.559 . S
C1428 C282 1.965 . S
C1413 C126 1.740 . S
C1478 C239 1.799 . S
C1463 C107 1.765 . S
C1528 C267 1.508 . S
C1513 C140 1.532 . S
C1578 C268 1.247 . S
C1563 C161 1.222 . S
C1613 C172 1.717 . S
C1628 C283 1.771 . S
C1663 C95 1.834 . S
C1678 C240 1.862 . S
C1728 C254 1.256 . S
C1713 C148 1.006 . S
C1763 C41 1.576 . S
C1778 C210 1.541 . S
C1828 C224 1.259 . S
C1813 C5 1.220 . S
C1878 C182 1.770 . S
C1863 C19 1.806 . S
C1928 C197 1.722 . S
C1913 C29 1.695 . S
C1963 C18 1.916 . S
C1978 C311 1.978 . S
C2013 C27 1.268 . S
C2028 C296 1.580 . S
C2063 C38 1.666 . S
C2078 C309 1.866 . S
C2113 C7 1.607 . S
C2128 C294 1.602 . S
C2178 C338 2.027 . S
C2163 C96 2.034 . S
C2228 C337 1.251 . S
C2213 C151 1.229 . S
C2278 C336 1.295 . S
C2263 C159 1.189 . S
C2313 C170 1.336 . S
C2328 C339 1.612 . S
C2363 C117 1.964 . S
C2378 C255 2.048 . S
C2428 C253 1.041 . S
C2413 C63 1.047 . S
C2478 C269 1.136 . S
C2463 C74 1.119 . S
C2528 C280 2.046 . S
C2513 C82 1.886 . S
C2563 C150 1.465 . S
C2578 C213 1.558 . S
C2628 C198 1.965 . S
C2613 C16 1.740 . S
C2663 C30 1.765 . S
C2678 C211 1.799 . S
C2728 C183 1.508 . S
C2713 C8 1.532 . S
