# Generated by pormake.
# Topology wbl, (4,4)-cn, num edge types: 1
# Building blocks:
#     Node 0, Type 0, BuildingBlock: MUDLON_clean_sbu_0, # of connection points: 4
#     Node 1, Type 0, BuildingBlock: MUDLON_clean_sbu_0, # of connection points: 4
#     Node 2, Type 0, BuildingBlock: MUDLON_clean_sbu_0, # of connection points: 4
#     Node 3, Type 0, BuildingBlock: MUDLON_clean_sbu_0, # of connection points: 4
#     Node 4, Type 0, BuildingBlock: MUDLON_clean_sbu_0, # of connection points: 4
#     Node 5, Type 0, BuildingBlock: MUDLON_clean_sbu_0, # of connection points: 4
#     Node 6, Type 0, BuildingBlock: MUDLON_clean_sbu_0, # of connection points: 4
#     Node 7, Type 0, BuildingBlock: MUDLON_clean_sbu_0, # of connection points: 4
#     Node 8, Type 1, BuildingBlock: QUQFOY_clean_sbu_1, # of connection points: 4
#     Node 9, Type 1, BuildingBlock: QUQFOY_clean_sbu_1, # of connection points: 4
#     Node 10, Type 1, BuildingBlock: QUQFOY_clean_sbu_1, # of connection points: 4
#     Node 11, Type 1, BuildingBlock: QUQFOY_clean_sbu_1, # of connection points: 4
#     Node 12, Type 1, BuildingBlock: QUQFOY_clean_sbu_1, # of connection points: 4
#     Node 13, Type 1, BuildingBlock: QUQFOY_clean_sbu_1, # of connection points: 4
#     Node 14, Type 1, BuildingBlock: QUQFOY_clean_sbu_1, # of connection points: 4
#     Node 15, Type 1, BuildingBlock: QUQFOY_clean_sbu_1, # of connection points: 4
#     Edge 16, Type (0, 1), BuildingBlock: ZUJKAS_clean_linker_0, # of connection points: 2
#     Edge 17, Type (0, 1), BuildingBlock: ZUJKAS_clean_linker_0, # of connection points: 2
#     Edge 18, Type (0, 1), BuildingBlock: ZUJKAS_clean_linker_0, # of connection points: 2
#     Edge 19, Type (0, 1), BuildingBlock: ZUJKAS_clean_linker_0, # of connection points: 2
#     Edge 20, Type (0, 1), BuildingBlock: ZUJKAS_clean_linker_0, # of connection points: 2
#     Edge 21, Type (0, 1), BuildingBlock: ZUJKAS_clean_linker_0, # of connection points: 2
#     Edge 22, Type (0, 1), BuildingBlock: ZUJKAS_clean_linker_0, # of connection points: 2
#     Edge 23, Type (0, 1), BuildingBlock: ZUJKAS_clean_linker_0, # of connection points: 2
#     Edge 24, Type (0, 1), BuildingBlock: ZUJKAS_clean_linker_0, # of connection points: 2
#     Edge 25, Type (0, 1), BuildingBlock: ZUJKAS_clean_linker_0, # of connection points: 2
#     Edge 26, Type (0, 1), BuildingBlock: ZUJKAS_clean_linker_0, # of connection points: 2
#     Edge 27, Type (0, 1), BuildingBlock: ZUJKAS_clean_linker_0, # of connection points: 2
#     Edge 28, Type (0, 1), BuildingBlock: ZUJKAS_clean_linker_0, # of connection points: 2
#     Edge 29, Type (0, 1), BuildingBlock: ZUJKAS_clean_linker_0, # of connection points: 2
#     Edge 30, Type (0, 1), BuildingBlock: ZUJKAS_clean_linker_0, # of connection points: 2
#     Edge 31, Type (0, 1), BuildingBlock: ZUJKAS_clean_linker_0, # of connection points: 2
#     Edge 32, Type (0, 1), BuildingBlock: ZUJKAS_clean_linker_0, # of connection points: 2
#     Edge 33, Type (0, 1), BuildingBlock: ZUJKAS_clean_linker_0, # of connection points: 2
#     Edge 34, Type (0, 1), BuildingBlock: ZUJKAS_clean_linker_0, # of connection points: 2
#     Edge 35, Type (0, 1), BuildingBlock: ZUJKAS_clean_linker_0, # of connection points: 2
#     Edge 36, Type (0, 1), BuildingBlock: ZUJKAS_clean_linker_0, # of connection points: 2
#     Edge 37, Type (0, 1), BuildingBlock: ZUJKAS_clean_linker_0, # of connection points: 2
#     Edge 38, Type (0, 1), BuildingBlock: ZUJKAS_clean_linker_0, # of connection points: 2
#     Edge 39, Type (0, 1), BuildingBlock: ZUJKAS_clean_linker_0, # of connection points: 2
#     Edge 40, Type (0, 1), BuildingBlock: ZUJKAS_clean_linker_0, # of connection points: 2
#     Edge 41, Type (0, 1), BuildingBlock: ZUJKAS_clean_linker_0, # of connection points: 2
#     Edge 42, Type (0, 1), BuildingBlock: ZUJKAS_clean_linker_0, # of connection points: 2
#     Edge 43, Type (0, 1), BuildingBlock: ZUJKAS_clean_linker_0, # of connection points: 2
#     Edge 44, Type (0, 1), BuildingBlock: ZUJKAS_clean_linker_0, # of connection points: 2
#     Edge 45, Type (0, 1), BuildingBlock: ZUJKAS_clean_linker_0, # of connection points: 2
#     Edge 46, Type (0, 1), BuildingBlock: ZUJKAS_clean_linker_0, # of connection points: 2
#     Edge 47, Type (0, 1), BuildingBlock: ZUJKAS_clean_linker_0, # of connection points: 2
# Relax obj value: 0.235
# Max RMSD: 0.253
# Mean RMSD: 0.183
data_MOF--net-wbl--node1-MUDLON_clean_sbu_0--node2-QUQFOY_clean_sbu_1--edge1-ZUJKAS_clean_linker_0
_symmetry_space_group_name_H-M    P1
_symmetry_Int_Tables_number       1
_symmetry_cell_setting            triclinic
loop_
_symmetry_equiv_pos_as_xyz
'x, y, z'
_cell_length_a     44.859622
_cell_length_b     44.768093
_cell_length_c     98.414404
_cell_angle_alpha  92.902111
_cell_angle_beta   92.937378
_cell_angle_gamma 90.777763
loop_
_atom_site_label
_atom_site_type_symbol
_atom_site_fract_x
_atom_site_fract_y
_atom_site_fract_z
_atom_type_partial_charge
Mg0 Mg 0.21157 0.16106 0.37017 0.0
C1 C 0.19365 0.13962 0.39662 0.0
O2 O 0.17792 0.16404 0.39566 0.0
C3 C 0.15706 0.14765 0.35046 0.0
O4 O 0.17335 0.12549 0.34594 0.0
C5 C 0.24719 0.11643 0.35478 0.0
O6 O 0.22829 0.09928 0.36071 0.0
O7 O 0.24546 0.14467 0.35668 0.0
O8 O 0.20881 0.13097 0.38663 0.0
O9 O 0.22374 0.20242 0.38174 0.0
C10 C 0.2044 0.22271 0.38313 0.0
O11 O 0.18006 0.22122 0.37509 0.0
O12 O 0.16769 0.1653 0.36007 0.0
Mg13 Mg 0.04821 0.72005 0.62265 0.0
C14 C 0.0674 0.6973 0.64969 0.0
O15 O 0.04147 0.68341 0.64755 0.0
C16 C 0.06632 0.66135 0.60934 0.0
O17 O 0.08873 0.66551 0.6184 0.0
C18 C 0.09297 0.75405 0.60868 0.0
O19 O 0.10492 0.72753 0.6095 0.0
O20 O 0.06718 0.75811 0.61317 0.0
O21 O 0.07725 0.71277 0.64037 0.0
O22 O 0.00598 0.72796 0.63189 0.0
C23 C 0.98463 0.70895 0.63023 0.0
O24 O 0.98587 0.68767 0.62059 0.0
O25 O 0.04592 0.68073 0.60878 0.0
Mg26 Mg 0.54018 0.56647 0.8684 0.0
C27 C 0.53358 0.61777 0.88938 0.0
O28 O 0.51408 0.62652 0.88006 0.0
C29 C 0.58321 0.5426 0.84828 0.0
O30 O 0.56862 0.5179 0.85064 0.0
C31 C 0.50056 0.60248 0.85059 0.0
O32 O 0.52709 0.61243 0.84773 0.0
O33 O 0.49886 0.58132 0.85868 0.0
O34 O 0.54948 0.59516 0.88666 0.0
O35 O 0.53634 0.52297 0.87697 0.0
C36 C 0.52129 0.52211 0.88754 0.0
O37 O 0.50576 0.54567 0.89109 0.0
O38 O 0.57621 0.56694 0.85445 0.0
Mg39 Mg 0.69552 0.04367 0.11975 0.0
C40 C 0.76156 0.02167 0.12531 0.0
O41 O 0.78453 0.00596 0.12154 0.0
C42 C 0.66633 0.98447 0.11144 0.0
O43 O 0.69236 0.97555 0.11629 0.0
C44 C 0.71753 0.09405 0.1035 0.0
O45 O 0.74277 0.08045 0.10614 0.0
O46 O 0.69372 0.08405 0.10826 0.0
O47 O 0.73881 0.02282 0.11707 0.0
O48 O 0.68491 0.05114 0.14102 0.0
C49 C 0.68866 0.02947 0.14876 0.0
O50 O 0.69891 0.0042 0.14364 0.0
O51 O 0.66147 0.01235 0.11118 0.0
Mg52 Mg 0.02189 0.7001 0.96121 0.0
C53 C 0.0441 0.76156 0.95423 0.0
O54 O 0.06709 0.75452 0.96216 0.0
C55 C 0.97925 0.67473 0.9812 0.0
O56 O 0.00275 0.67701 0.98973 0.0
C57 C 0.06606 0.70896 0.9855 0.0
O58 O 0.04702 0.72975 0.98889 0.0
O59 O 0.06096 0.69306 0.97453 0.0
O60 O 0.02096 0.74472 0.95349 0.0
O61 O 0.02351 0.67311 0.94242 0.0
C62 C 0.00258 0.67961 0.93392 0.0
O63 O 0.98368 0.70035 0.93755 0.0
O64 O 0.98077 0.68463 0.96938 0.0
Mg65 Mg 0.57402 0.51637 0.20708 0.0
C66 C 0.52268 0.49577 0.1868 0.0
O67 O 0.53949 0.47242 0.1846 0.0
C68 C 0.57519 0.45655 0.22167 0.0
O69 O 0.55475 0.44745 0.21228 0.0
C70 C 0.5554 0.57088 0.22272 0.0
O71 O 0.53134 0.55384 0.22282 0.0
O72 O 0.5781 0.56068 0.21694 0.0
O73 O 0.53031 0.51479 0.19643 0.0
O74 O 0.60549 0.51221 0.19114 0.0
C75 C 0.61256 0.48623 0.18672 0.0
O76 O 0.6022 0.46279 0.19257 0.0
O77 O 0.58494 0.48337 0.22194 0.0
Mg78 Mg 0.69277 0.06379 0.46421 0.0
C79 C 0.68912 0.1154 0.4448 0.0
O80 O 0.70668 0.12933 0.45423 0.0
C81 C 0.63864 0.08077 0.48016 0.0
O82 O 0.63751 0.10256 0.4717 0.0
C83 C 0.73543 0.10416 0.48112 0.0
O84 O 0.70996 0.11557 0.48467 0.0
O85 O 0.73506 0.08142 0.47285 0.0
O86 O 0.67883 0.08954 0.44692 0.0
O87 O 0.69792 0.01996 0.45446 0.0
C88 C 0.67732 0.0003 0.4548 0.0
O89 O 0.65555 0.00519 0.46303 0.0
O90 O 0.6595 0.06194 0.4794 0.0
Mg91 Mg 0.19168 0.21476 0.71967 0.0
C92 C 0.24267 0.23524 0.70313 0.0
O93 O 0.22583 0.25884 0.70201 0.0
C94 C 0.15283 0.25179 0.73615 0.0
O95 O 0.14009 0.22512 0.73557 0.0
C96 C 0.2111 0.16363 0.73636 0.0
O97 O 0.23709 0.17458 0.73331 0.0
O98 O 0.18743 0.17593 0.73189 0.0
O99 O 0.23562 0.21556 0.71132 0.0
O100 O 0.16231 0.21193 0.70134 0.0
C101 C 0.15523 0.23699 0.69667 0.0
O102 O 0.1633 0.26161 0.7038 0.0
O103 O 0.17808 0.25467 0.73101 0.0
O104 O 0.43535 0.70824 0.02797 0.0
Cd105 Cd 0.41516 0.72132 0.0456 0.0
Cd106 Cd 0.45603 0.68396 0.05643 0.0
O107 O 0.46474 0.67382 0.0363 0.0
O108 O 0.37803 0.74078 0.03897 0.0
O109 O 0.37781 0.69934 0.05028 0.0
C110 C 0.3631 0.71941 0.04388 0.0
C111 C 0.45167 0.64557 0.07149 0.0
C112 C 0.45444 0.68787 0.02623 0.0
C113 C 0.46154 0.74966 0.06499 0.0
O114 O 0.47312 0.72392 0.06511 0.0
O115 O 0.43697 0.7534 0.05834 0.0
O116 O 0.47709 0.65347 0.06717 0.0
O117 O 0.42817 0.65894 0.06688 0.0
O118 O 0.55068 0.91499 0.31887 0.0
Cd119 Cd 0.52671 0.9176 0.30056 0.0
Cd120 Cd 0.58171 0.92858 0.29183 0.0
O121 O 0.59383 0.93179 0.31237 0.0
O122 O 0.48453 0.92186 0.30568 0.0
O123 O 0.50924 0.95732 0.29591 0.0
C124 C 0.48516 0.94849 0.30128 0.0
C125 C 0.5969 0.96485 0.27732 0.0
C126 C 0.57764 0.92309 0.32168 0.0
C127 C 0.55066 0.87116 0.28151 0.0
O128 O 0.57493 0.88627 0.28278 0.0
O129 O 0.52747 0.88082 0.28707 0.0
O130 O 0.61543 0.94601 0.2823 0.0
O131 O 0.56968 0.96387 0.28103 0.0
O132 O 0.30196 0.02981 0.53167 0.0
Cd133 Cd 0.32362 0.01767 0.54946 0.0
Cd134 Cd 0.28796 0.05822 0.56044 0.0
O135 O 0.27995 0.06941 0.54048 0.0
O136 O 0.36079 0.99844 0.54354 0.0
O137 O 0.3606 0.0414 0.55571 0.0
C138 C 0.37538 0.02129 0.54912 0.0
C139 C 0.2974 0.09522 0.57777 0.0
C140 C 0.28635 0.05298 0.53015 0.0
C141 C 0.27723 0.99382 0.56651 0.0
O142 O 0.26706 0.02019 0.56658 0.0
O143 O 0.30172 0.98803 0.56105 0.0
O144 O 0.27128 0.09128 0.57181 0.0
O145 O 0.31879 0.07878 0.57349 0.0
O146 O 0.20317 0.81205 0.78339 0.0
Cd147 Cd 0.22296 0.83409 0.80045 0.0
Cd148 Cd 0.18558 0.79997 0.81322 0.0
O149 O 0.16737 0.78978 0.7938 0.0
O150 O 0.24275 0.86998 0.79359 0.0
O151 O 0.20453 0.87263 0.80693 0.0
C152 C 0.22343 0.88605 0.79975 0.0
C153 C 0.15536 0.81496 0.83081 0.0
C154 C 0.17966 0.7958 0.78289 0.0
C155 C 0.2509 0.78774 0.81744 0.0
O156 O 0.22438 0.7785 0.8189 0.0
O157 O 0.25547 0.81138 0.81116 0.0
O158 O 0.15507 0.7877 0.8259 0.0
O159 O 0.17237 0.83417 0.82545 0.0
O160 O 0.03992 0.30136 0.55592 0.0
Cd161 Cd 0.02839 0.32219 0.5383 0.0
Cd162 Cd 0.0668 0.28357 0.5281 0.0
O163 O 0.08017 0.27985 0.54839 0.0
O164 O 0.00846 0.3592 0.54482 0.0
O165 O 0.0509 0.35972 0.53434 0.0
C166 C 0.03047 0.37427 0.54054 0.0
C167 C 0.10187 0.29026 0.5118 0.0
C168 C 0.06351 0.28664 0.5581 0.0
C169 C 0.00182 0.27386 0.51994 0.0
O170 O 0.02743 0.26206 0.52093 0.0
O171 O 0.99794 0.30004 0.52506 0.0
O172 O 0.09889 0.26509 0.51744 0.0
O173 O 0.08547 0.31223 0.51576 0.0
O174 O 0.92383 0.53045 0.79673 0.0
Cd175 Cd 0.90311 0.51448 0.77866 0.0
Cd176 Cd 0.93645 0.55607 0.76858 0.0
O177 O 0.94214 0.5715 0.78872 0.0
O178 O 0.86626 0.49372 0.78395 0.0
O179 O 0.86565 0.53517 0.77258 0.0
C180 C 0.85123 0.51506 0.77871 0.0
C181 C 0.92363 0.58863 0.75154 0.0
C182 C 0.93723 0.55557 0.79872 0.0
C183 C 0.95206 0.49189 0.76227 0.0
O184 O 0.96071 0.51911 0.76266 0.0
O185 O 0.92717 0.48493 0.76699 0.0
O186 O 0.94992 0.58921 0.7575 0.0
O187 O 0.90411 0.56996 0.75554 0.0
O188 O 0.73308 0.42841 0.04834 0.0
Cd189 Cd 0.7422 0.40852 0.02971 0.0
Cd190 Cd 0.6966 0.43903 0.02161 0.0
O191 O 0.68685 0.43863 0.04187 0.0
O192 O 0.76354 0.3711 0.03378 0.0
O193 O 0.71774 0.37174 0.0242 0.0
C194 C 0.73949 0.3567 0.02944 0.0
C195 C 0.66018 0.42806 0.00424 0.0
C196 C 0.70711 0.43665 0.05128 0.0
C197 C 0.75701 0.45973 0.01409 0.0
O198 O 0.73059 0.46746 0.01657 0.0
O199 O 0.76588 0.43377 0.01685 0.0
O200 O 0.66001 0.45271 0.0116 0.0
O201 O 0.68056 0.4089 0.00708 0.0
O202 O 0.80468 0.17719 0.26256 0.0
Cd203 Cd 0.80821 0.20651 0.27936 0.0
Cd204 Cd 0.79161 0.15862 0.29164 0.0
O205 O 0.77761 0.14329 0.27205 0.0
O206 O 0.80255 0.24738 0.27251 0.0
O207 O 0.77031 0.22521 0.28518 0.0
C208 C 0.77719 0.2477 0.27817 0.0
C209 C 0.76031 0.15803 0.30984 0.0
C210 C 0.78871 0.15345 0.26155 0.0
C211 C 0.85495 0.18105 0.29711 0.0
O212 O 0.8369 0.15886 0.29713 0.0
O213 O 0.84678 0.20492 0.29162 0.0
O214 O 0.77182 0.13375 0.30497 0.0
O215 O 0.76559 0.18254 0.30396 0.0
H216 H 0.2927 0.14454 0.34244 0.0
H217 H 0.33257 0.12095 0.32973 0.0
H218 H 0.29504 0.03393 0.33615 0.0
H219 H 0.25516 0.05712 0.34864 0.0
H220 H 0.37439 0.08108 0.33935 0.0
H221 H 0.30772 0.0284 0.29549 0.0
H222 H 0.29315 0.05737 0.30662 0.0
H223 H 0.29355 0.01914 0.3115 0.0
C224 C 0.29276 0.12039 0.341 0.0
C225 C 0.27068 0.10273 0.34653 0.0
C226 C 0.31556 0.10696 0.33375 0.0
C227 C 0.3165 0.0757 0.33178 0.0
C228 C 0.29439 0.0581 0.33724 0.0
H229 H 0.43069 0.93424 0.31042 0.0
H230 H 0.39053 0.96815 0.3161 0.0
C231 C 0.27169 0.07144 0.34448 0.0
C232 C 0.34151 0.06109 0.32484 0.0
H233 H 0.35663 0.00843 0.2999 0.0
C234 C 0.37064 0.06563 0.33056 0.0
C235 C 0.33656 0.04097 0.31336 0.0
C236 C 0.30608 0.03639 0.3063 0.0
C237 C 0.39468 0.0493 0.32559 0.0
C238 C 0.38946 0.02819 0.3145 0.0
C239 C 0.36056 0.02457 0.30843 0.0
C240 C 0.41312 0.0078 0.30988 0.0
C241 C 0.42516 0.05357 0.33271 0.0
C242 C 0.43888 0.01873 0.30414 0.0
C243 C 0.46198 0.99932 0.30084 0.0
C244 C 0.45965 0.96868 0.30324 0.0
C245 C 0.43329 0.95772 0.30849 0.0
C246 C 0.41026 0.97706 0.31173 0.0
H247 H 0.42436 0.06698 0.34249 0.0
H248 H 0.43518 0.0316 0.33477 0.0
H249 H 0.44006 0.0654 0.32602 0.0
H250 H 0.44132 0.04233 0.30244 0.0
H251 H 0.48195 0.00845 0.29679 0.0
H252 H 0.07842 0.81339 0.60838 0.0
H253 H 0.1092 0.85472 0.60106 0.0
H254 H 0.17781 0.79255 0.59039 0.0
H255 H 0.1473 0.75123 0.59754 0.0
H256 H 0.16783 0.87128 0.61165 0.0
H257 H 0.16573 0.8411 0.55619 0.0
H258 H 0.13919 0.8259 0.5673 0.0
H259 H 0.17622 0.81117 0.56685 0.0
C260 C 0.09991 0.80849 0.60433 0.0
C261 C 0.11037 0.77901 0.60351 0.0
C262 C 0.11748 0.83212 0.60019 0.0
C263 C 0.14561 0.82661 0.59505 0.0
C264 C 0.15595 0.79721 0.5941 0.0
H265 H 0.28996 0.9341 0.56678 0.0
H266 H 0.25862 0.89386 0.57458 0.0
C267 C 0.1385 0.77363 0.59826 0.0
C268 C 0.16481 0.85164 0.59119 0.0
H269 H 0.20063 0.87887 0.56454 0.0
C270 C 0.17486 0.87311 0.60134 0.0
C271 C 0.17404 0.85379 0.57775 0.0
C272 C 0.16306 0.83193 0.56635 0.0
C273 C 0.19444 0.89641 0.59845 0.0
C274 C 0.20375 0.89852 0.58501 0.0
C275 C 0.19358 0.8771 0.57486 0.0
C276 C 0.22354 0.92311 0.58115 0.0
C277 C 0.20557 0.91814 0.60987 0.0
C278 C 0.21422 0.95286 0.58229 0.0
C279 C 0.23207 0.97588 0.57788 0.0
C280 C 0.25953 0.96959 0.57214 0.0
C281 C 0.269 0.93976 0.57118 0.0
C282 C 0.2511 0.91673 0.57561 0.0
H283 H 0.20295 0.90888 0.62001 0.0
H284 H 0.22944 0.92412 0.6089 0.0
H285 H 0.19245 0.93894 0.60944 0.0
H286 H 0.19279 0.95821 0.5863 0.0
H287 H 0.224 0.99857 0.57872 0.0
H288 H 0.49741 0.65103 0.83491 0.0
H289 H 0.45373 0.68115 0.82966 0.0
H290 H 0.39874 0.62098 0.85083 0.0
H291 H 0.44248 0.59092 0.85636 0.0
H292 H 0.39989 0.66704 0.81571 0.0
H293 H 0.38263 0.70215 0.86967 0.0
H294 H 0.4163 0.68431 0.86441 0.0
H295 H 0.38299 0.66239 0.86619 0.0
C296 C 0.47601 0.64404 0.83839 0.0
C297 C 0.47349 0.61868 0.84616 0.0
C298 C 0.45107 0.66132 0.83538 0.0
C299 C 0.42313 0.65365 0.8401 0.0
C300 C 0.42025 0.62768 0.84737 0.0
H301 H 0.24949 0.73671 0.83163 0.0
H302 H 0.29125 0.70428 0.83738 0.0
C303 C 0.44522 0.61039 0.85042 0.0
C304 C 0.39721 0.67311 0.83745 0.0
H305 H 0.34645 0.71739 0.85317 0.0
C306 C 0.38822 0.67807 0.8239 0.0
C307 C 0.38207 0.68752 0.84817 0.0
C308 C 0.39158 0.68411 0.86293 0.0
C309 C 0.36433 0.69686 0.82075 0.0
C310 C 0.34932 0.71138 0.83145 0.0
C311 C 0.35808 0.70622 0.84501 0.0
C312 C 0.32448 0.73203 0.82873 0.0
C313 C 0.35506 0.70075 0.806 0.0
C314 C 0.32954 0.75879 0.82232 0.0
C315 C 0.30577 0.77744 0.81906 0.0
C316 C 0.27649 0.76966 0.82216 0.0
C317 C 0.27172 0.74334 0.82904 0.0
C318 C 0.29554 0.72476 0.83234 0.0
H319 H 0.36415 0.68296 0.79917 0.0
H320 H 0.33036 0.70056 0.80446 0.0
H321 H 0.36363 0.72265 0.80293 0.0
H322 H 0.35185 0.76503 0.81968 0.0
H323 H 0.31029 0.79758 0.81382 0.0
H324 H 0.60993 0.99498 0.10085 0.0
H325 H 0.57035 0.95795 0.09435 0.0
H326 H 0.62942 0.88704 0.10552 0.0
H327 H 0.66895 0.92372 0.11212 0.0
H328 H 0.57176 0.9094 0.07477 0.0
H329 H 0.55413 0.87044 0.12638 0.0
H330 H 0.57361 0.905 0.1236 0.0
H331 H 0.59244 0.8699 0.12192 0.0
C332 C 0.61448 0.9715 0.10194 0.0
C333 C 0.64256 0.9623 0.10705 0.0
C334 C 0.59184 0.95042 0.09824 0.0
C335 C 0.59683 0.91986 0.0997 0.0
C336 C 0.62493 0.91059 0.1046 0.0
H337 H 0.51512 0.74974 0.0795 0.0
H338 H 0.54484 0.79305 0.08848 0.0
C339 C 0.64757 0.93159 0.10827 0.0
C340 C 0.57309 0.8974 0.09568 0.0
H341 H 0.53306 0.83981 0.10762 0.0
C342 C 0.56293 0.89443 0.08196 0.0
C343 C 0.56167 0.87799 0.10513 0.0
C344 C 0.57079 0.8811 0.12011 0.0
C345 C 0.54266 0.87157 0.07728 0.0
C346 C 0.5319 0.85159 0.08666 0.0
C347 C 0.54138 0.85516 0.10047 0.0
C348 C 0.51244 0.82561 0.08217 0.0
C349 C 0.53398 0.86817 0.06226 0.0
C350 C 0.48398 0.82956 0.07601 0.0
C351 C 0.46688 0.80481 0.07081 0.0
C352 C 0.47796 0.77569 0.07177 0.0
C353 C 0.50594 0.77183 0.07852 0.0
C354 C 0.52298 0.79656 0.08368 0.0
H355 H 0.5489 0.88141 0.05609 0.0
H356 H 0.53458 0.84433 0.05858 0.0
H357 H 0.51086 0.87612 0.06047 0.0
H358 H 0.47521 0.85181 0.07499 0.0
H359 H 0.44535 0.80858 0.06575 0.0
H360 H 0.10845 0.66628 0.98213 0.0
H361 H 0.15654 0.66289 0.99474 0.0
H362 H 0.13576 0.74071 0.01994 0.0
H363 H 0.08737 0.74391 0.00757 0.0
H364 H 0.20011 0.70481 0.99556 0.0
H365 H 0.16907 0.68545 0.04818 0.0
H366 H 0.14285 0.68052 0.03366 0.0
H367 H 0.15106 0.7173 0.04128 0.0
C368 C 0.1139 0.68242 0.99049 0.0
C369 C 0.09411 0.70543 0.99382 0.0
C370 C 0.14138 0.68042 0.9977 0.0
C371 C 0.14961 0.7013 0.0084 0.0
C372 C 0.12962 0.7239 0.01195 0.0
H373 H 0.32655 0.76153 0.03348 0.0
H374 H 0.27401 0.75564 0.02602 0.0
C375 C 0.10204 0.72585 0.00478 0.0
C376 C 0.18019 0.70126 0.01488 0.0
H377 H 0.21963 0.70175 0.04555 0.0
C378 C 0.20434 0.7038 0.00648 0.0
C379 C 0.18574 0.69967 0.02912 0.0
C380 C 0.16082 0.69528 0.03858 0.0
C381 C 0.2338 0.70576 0.01193 0.0
C382 C 0.23926 0.70576 0.02621 0.0
C383 C 0.21528 0.70215 0.03462 0.0
C384 C 0.26979 0.71037 0.03245 0.0
C385 C 0.25887 0.70794 0.00235 0.0
C386 C 0.28439 0.68732 0.03914 0.0
C387 C 0.31452 0.69067 0.04352 0.0
C388 C 0.33037 0.71713 0.04125 0.0
C389 C 0.31509 0.74074 0.03525 0.0
C390 C 0.28507 0.73742 0.03095 0.0
H391 H 0.25173 0.69987 0.9918 0.0
H392 H 0.26615 0.73168 0.00205 0.0
H393 H 0.27836 0.6948 0.00585 0.0
H394 H 0.27286 0.66633 0.04045 0.0
H395 H 0.32568 0.67211 0.04813 0.0
H396 H 0.51005 0.59922 0.2353 0.0
H397 H 0.50933 0.65089 0.24453 0.0
H398 H 0.59992 0.66432 0.23316 0.0
H399 H 0.60077 0.6127 0.22373 0.0
H400 H 0.54645 0.67895 0.26514 0.0
H401 H 0.55557 0.73401 0.21616 0.0
H402 H 0.54612 0.69483 0.21696 0.0
H403 H 0.58423 0.70748 0.21976 0.0
C404 C 0.52984 0.61313 0.23474 0.0
C405 C 0.55543 0.60188 0.22872 0.0
C406 C 0.52937 0.64266 0.24002 0.0
C407 C 0.55438 0.66154 0.23932 0.0
C408 C 0.58016 0.65028 0.23354 0.0
H409 H 0.59585 0.84403 0.26816 0.0
H410 H 0.59605 0.79333 0.25772 0.0
C411 C 0.58066 0.62072 0.22824 0.0
C412 C 0.55358 0.69283 0.24492 0.0
H413 H 0.55863 0.7656 0.23629 0.0
C414 C 0.54899 0.69792 0.25884 0.0
C415 C 0.55692 0.71747 0.23664 0.0
C416 C 0.56073 0.71331 0.22152 0.0
C417 C 0.5481 0.72703 0.26476 0.0
C418 C 0.55139 0.75167 0.25649 0.0
C419 C 0.55606 0.74661 0.24258 0.0
C420 C 0.55048 0.78288 0.26217 0.0
C421 C 0.54428 0.7312 0.27989 0.0
C422 C 0.52451 0.794 0.26781 0.0
C423 C 0.52427 0.82299 0.27379 0.0
C424 C 0.55001 0.84139 0.27419 0.0
C425 C 0.57567 0.83045 0.2681 0.0
C426 C 0.57586 0.80148 0.26211 0.0
H427 H 0.54911 0.71041 0.28524 0.0
H428 H 0.55915 0.74945 0.28447 0.0
H429 H 0.52087 0.73739 0.28164 0.0
H430 H 0.50452 0.78013 0.26772 0.0
H431 H 0.50409 0.83074 0.27832 0.0
H432 H 0.63466 0.03842 0.49912 0.0
H433 H 0.59312 0.02942 0.51365 0.0
H434 H 0.54715 0.10499 0.49763 0.0
H435 H 0.58849 0.11418 0.48302 0.0
H436 H 0.5638 0.06886 0.53376 0.0
H437 H 0.49045 0.03067 0.48878 0.0
H438 H 0.53052 0.03366 0.48814 0.0
H439 H 0.50823 0.06665 0.48774 0.0
C440 C 0.61585 0.05331 0.49876 0.0
C441 C 0.61476 0.07685 0.4898 0.0
C442 C 0.5922 0.04818 0.50711 0.0
C443 C 0.56701 0.06636 0.50659 0.0
C444 C 0.56632 0.09054 0.49806 0.0
H445 H 0.41007 0.07179 0.55457 0.0
H446 H 0.45926 0.08188 0.54594 0.0
C447 C 0.58998 0.09576 0.48974 0.0
C448 C 0.54068 0.0589 0.51431 0.0
H449 H 0.46831 0.0345 0.51001 0.0
C450 C 0.54289 0.06133 0.52861 0.0
C451 C 0.51364 0.04869 0.50753 0.0
C452 C 0.51046 0.04447 0.49221 0.0
C453 C 0.51843 0.05424 0.53632 0.0
C454 C 0.49119 0.04466 0.52951 0.0
C455 C 0.48921 0.04191 0.51522 0.0
C456 C 0.46419 0.03732 0.53683 0.0
C457 C 0.52201 0.05661 0.55166 0.0
C458 C 0.45091 0.0088 0.5348 0.0
C459 C 0.4228 0.00302 0.53963 0.0
C460 C 0.40733 0.02574 0.54655 0.0
C461 C 0.42146 0.05378 0.54933 0.0
C462 C 0.44963 0.05957 0.54444 0.0
H463 H 0.54589 0.05724 0.55528 0.0
H464 H 0.51159 0.07754 0.55547 0.0
H465 H 0.51067 0.03753 0.55615 0.0
H466 H 0.46176 0.99132 0.52894 0.0
H467 H 0.41261 0.98114 0.53736 0.0
H468 H 0.2569 0.12792 0.74425 0.0
H469 H 0.25476 0.08411 0.75796 0.0
H470 H 0.16037 0.09655 0.76196 0.0
H471 H 0.16215 0.14006 0.74787 0.0
H472 H 0.23912 0.07806 0.78397 0.0
H473 H 0.16239 0.0102 0.7481 0.0
H474 H 0.17993 0.0444 0.74341 0.0
H475 H 0.14802 0.04567 0.75375 0.0
C476 C 0.23563 0.12133 0.748 0.0
C477 C 0.20964 0.13733 0.74487 0.0
C478 C 0.23447 0.09631 0.75588 0.0
C479 C 0.20734 0.08677 0.76084 0.0
C480 C 0.18143 0.10307 0.75799 0.0
H481 H 0.17653 0.92313 0.80429 0.0
H482 H 0.17094 0.97455 0.79709 0.0
C483 C 0.18251 0.12801 0.74998 0.0
C484 C 0.20652 0.05962 0.76888 0.0
H485 H 0.17783 0.98849 0.76853 0.0
C486 C 0.22554 0.05855 0.78064 0.0
C487 C 0.18874 0.03418 0.76455 0.0
C488 C 0.16879 0.03343 0.75171 0.0
C489 C 0.2278 0.03253 0.78798 0.0
C490 C 0.21067 0.00693 0.78343 0.0
C491 C 0.19079 0.00829 0.77201 0.0
C492 C 0.21519 0.97761 0.78948 0.0
C493 C 0.24883 0.03239 0.80044 0.0
C494 C 0.24204 0.96256 0.78772 0.0
C495 C 0.2452 0.93322 0.79169 0.0
C496 C 0.22159 0.91842 0.79755 0.0
C497 C 0.19518 0.93403 0.79989 0.0
C498 C 0.19191 0.96333 0.79575 0.0
H499 H 0.25451 0.05543 0.80457 0.0
H500 H 0.23898 0.01962 0.80854 0.0
H501 H 0.26985 0.02137 0.79766 0.0
H502 H 0.26012 0.97306 0.78272 0.0
H503 H 0.2658 0.9218 0.78974 0.0
H504 H 0.61345 0.59004 0.8386 0.0
H505 H 0.65442 0.58834 0.82308 0.0
H506 H 0.64986 0.4919 0.82123 0.0
H507 H 0.60849 0.49341 0.83638 0.0
H508 H 0.70827 0.56525 0.82702 0.0
H509 H 0.65288 0.50698 0.78149 0.0
H510 H 0.63222 0.52229 0.79541 0.0
H511 H 0.64914 0.48615 0.79641 0.0
C512 C 0.62099 0.56848 0.83478 0.0
C513 C 0.60764 0.54186 0.8387 0.0
C514 C 0.64437 0.56754 0.82589 0.0
C515 C 0.65486 0.54001 0.82075 0.0
C516 C 0.6416 0.51343 0.8247 0.0
H517 H 0.8139 0.47337 0.78833 0.0
H518 H 0.76396 0.48148 0.79653 0.0
C519 C 0.61809 0.51434 0.83348 0.0
C520 C 0.68106 0.5389 0.8121 0.0
H521 H 0.70676 0.50695 0.78273 0.0
C522 C 0.70777 0.55296 0.81722 0.0
C523 C 0.68042 0.52292 0.79928 0.0
C524 C 0.65202 0.50901 0.79276 0.0
C525 C 0.73413 0.55031 0.8102 0.0
C526 C 0.73374 0.53327 0.7977 0.0
C527 C 0.70692 0.51993 0.79234 0.0
C528 C 0.76161 0.52733 0.79069 0.0
C529 C 0.76257 0.56471 0.81644 0.0
C530 C 0.77627 0.55013 0.78424 0.0
C531 C 0.80478 0.54552 0.77944 0.0
C532 C 0.8191 0.5181 0.78116 0.0
C533 C 0.80353 0.49478 0.78691 0.0
C534 C 0.77499 0.49934 0.79158 0.0
H535 H 0.75978 0.57441 0.8269 0.0
H536 H 0.78069 0.54807 0.81683 0.0
H537 H 0.76974 0.58288 0.81001 0.0
H538 H 0.76616 0.57185 0.78342 0.0
H539 H 0.8162 0.56394 0.77509 0.0
H540 H 0.76511 0.12418 0.09433 0.0
H541 H 0.76448 0.16567 0.07916 0.0
H542 H 0.6682 0.16286 0.07679 0.0
H543 H 0.66861 0.12171 0.09228 0.0
H544 H 0.74174 0.16822 0.05299 0.0
H545 H 0.6855 0.25032 0.08692 0.0
H546 H 0.70012 0.2157 0.09286 0.0
H547 H 0.66503 0.21591 0.08318 0.0
C548 C 0.74375 0.13248 0.09066 0.0
C549 C 0.71689 0.11975 0.09459 0.0
C550 C 0.74345 0.15615 0.08195 0.0
C551 C 0.71632 0.16761 0.07695 0.0
C552 C 0.68941 0.15481 0.08074 0.0
H553 H 0.68771 0.32343 0.02789 0.0
H554 H 0.68007 0.27433 0.03717 0.0
C555 C 0.68968 0.13122 0.08957 0.0
C556 C 0.71649 0.19286 0.06773 0.0
H557 H 0.69619 0.26567 0.06511 0.0
C558 C 0.73165 0.18949 0.05561 0.0
C559 C 0.70325 0.22058 0.07114 0.0
C560 C 0.68778 0.22606 0.08428 0.0
C561 C 0.73431 0.21321 0.04692 0.0
C562 C 0.72165 0.24106 0.05049 0.0
C563 C 0.70571 0.24418 0.06237 0.0
C564 C 0.72674 0.26805 0.04275 0.0
C565 C 0.75082 0.2084 0.03404 0.0
C566 C 0.75561 0.28041 0.04251 0.0
C567 C 0.76003 0.30848 0.03728 0.0
C568 C 0.73565 0.3247 0.03218 0.0
C569 C 0.70698 0.31144 0.03167 0.0
C570 C 0.70254 0.28345 0.03702 0.0
H571 H 0.75191 0.18428 0.03087 0.0
H572 H 0.74003 0.22052 0.02557 0.0
H573 H 0.77402 0.21717 0.03584 0.0
H574 H 0.77454 0.26912 0.04707 0.0
H575 H 0.78238 0.31808 0.03785 0.0
H576 H 0.11719 0.19024 0.35809 0.0
H577 H 0.06599 0.19619 0.34904 0.0
H578 H 0.07566 0.12027 0.32096 0.0
H579 H 0.1271 0.11426 0.32986 0.0
H580 H 0.04893 0.16987 0.30902 0.0
H581 H 0.99469 0.14159 0.35627 0.0
H582 H 0.02255 0.17085 0.35863 0.0
H583 H 0.0333 0.1336 0.35348 0.0
C584 C 0.10849 0.17477 0.34999 0.0
C585 C 0.12623 0.15165 0.34475 0.0
C586 C 0.07914 0.17813 0.34488 0.0
C587 C 0.06689 0.15839 0.33448 0.0
C588 C 0.08467 0.13564 0.32904 0.0
H589 H 0.8801 0.13283 0.30899 0.0
H590 H 0.93158 0.12782 0.31784 0.0
C591 C 0.11404 0.13222 0.33415 0.0
C592 C 0.0356 0.16163 0.32921 0.0
H593 H 0.96337 0.16039 0.33861 0.0
C594 C 0.0302 0.16776 0.31547 0.0
C595 C 0.01121 0.1585 0.33762 0.0
C596 C 0.01559 0.1505 0.35229 0.0
C597 C 0.00103 0.17126 0.30994 0.0
C598 C 0.97669 0.16899 0.31845 0.0
C599 C 0.98209 0.16244 0.33215 0.0
C600 C 0.94537 0.17253 0.31325 0.0
C601 C 0.9965 0.17678 0.29498 0.0
C602 C 0.93587 0.19954 0.30795 0.0
C603 C 0.90642 0.2025 0.30286 0.0
C604 C 0.88584 0.17853 0.30305 0.0
C605 C 0.89532 0.15173 0.30865 0.0
C606 C 0.92476 0.14881 0.31372 0.0
H607 H 0.01637 0.17045 0.28925 0.0
H608 H 0.97678 0.16405 0.29037 0.0
H609 H 0.99258 0.20094 0.29377 0.0
H610 H 0.95125 0.21836 0.30776 0.0
H611 H 0.89986 0.2235 0.29869 0.0
H612 H 0.10599 0.61565 0.60815 0.0
H613 H 0.10193 0.56952 0.59375 0.0
H614 H 0.01848 0.59872 0.5756 0.0
H615 H 0.02246 0.64512 0.58987 0.0
H616 H 0.05603 0.52766 0.59404 0.0
H617 H 0.06425 0.5702 0.54233 0.0
H618 H 0.07564 0.59223 0.55766 0.0
H619 H 0.03678 0.58843 0.55236 0.0
C620 C 0.0869 0.61244 0.601 0.0
C621 C 0.06452 0.63405 0.60017 0.0
C622 C 0.08466 0.58608 0.59276 0.0
C623 C 0.06012 0.58089 0.58348 0.0
C624 C 0.03792 0.60256 0.58249 0.0
H625 H 0.98937 0.41048 0.55204 0.0
H626 H 0.99689 0.4619 0.56116 0.0
C627 C 0.04013 0.62896 0.59073 0.0
C628 C 0.05663 0.55178 0.57567 0.0
H629 H 0.04874 0.51919 0.54349 0.0
C630 C 0.05462 0.52581 0.58299 0.0
C631 C 0.05502 0.54943 0.56126 0.0
C632 C 0.0583 0.57651 0.55291 0.0
C633 C 0.05041 0.49759 0.5763 0.0
C634 C 0.04778 0.49532 0.5619 0.0
C635 C 0.05048 0.52114 0.55453 0.0
C636 C 0.04187 0.4661 0.5545 0.0
C637 C 0.04882 0.47034 0.58468 0.0
C638 C 0.06426 0.45197 0.54722 0.0
C639 C 0.06004 0.42248 0.54194 0.0
C640 C 0.03333 0.40681 0.5439 0.0
C641 C 0.0103 0.42181 0.55046 0.0
C642 C 0.01454 0.45119 0.55569 0.0
H643 H 0.05758 0.47511 0.59534 0.0
H644 H 0.0252 0.46278 0.58493 0.0
H645 H 0.06164 0.45169 0.58009 0.0
H646 H 0.08549 0.46324 0.54618 0.0
H647 H 0.07818 0.41156 0.53692 0.0
H648 H 0.79196 0.08571 0.47619 0.0
H649 H 0.83903 0.11219 0.48266 0.0
H650 H 0.79062 0.18346 0.50224 0.0
H651 H 0.74358 0.15694 0.49608 0.0
H652 H 0.85703 0.16756 0.47534 0.0
H653 H 0.8538 0.16587 0.5315 0.0
H654 H 0.82953 0.14252 0.52012 0.0
H655 H 0.82068 0.18111 0.52375 0.0
C656 C 0.79135 0.10686 0.48201 0.0
C657 C 0.76403 0.11917 0.48568 0.0
C658 C 0.81826 0.12197 0.48567 0.0
C659 C 0.81834 0.14957 0.49309 0.0
C660 C 0.79112 0.16185 0.49679 0.0
H661 H 0.94334 0.29015 0.51873 0.0
H662 H 0.8999 0.25905 0.51118 0.0
C663 C 0.76423 0.14671 0.4932 0.0
C664 C 0.84672 0.16622 0.49645 0.0
H665 H 0.88897 0.19981 0.52289 0.0
C666 C 0.86422 0.17434 0.48574 0.0
C667 C 0.85607 0.17493 0.51004 0.0
C668 C 0.8392 0.1654 0.52202 0.0
C669 C 0.89032 0.19183 0.48825 0.0
C670 C 0.89907 0.20125 0.50179 0.0
C671 C 0.88195 0.19267 0.51251 0.0
C672 C 0.92562 0.2206 0.50511 0.0
C673 C 0.90795 0.20088 0.47644 0.0
C674 C 0.95443 0.20926 0.50401 0.0
C675 C 0.97939 0.22693 0.50837 0.0
C676 C 0.97586 0.25621 0.51389 0.0
C677 C 0.9469 0.26774 0.51453 0.0
C678 C 0.92203 0.25001 0.51025 0.0
H679 H 0.8959 0.19534 0.46646 0.0
H680 H 0.91298 0.22528 0.47731 0.0
H681 H 0.92954 0.18905 0.47664 0.0
H682 H 0.95755 0.18647 0.50017 0.0
H683 H 0.00136 0.21737 0.50775 0.0
H684 H 0.09908 0.25227 0.74782 0.0
H685 H 0.06682 0.29499 0.75168 0.0
H686 H 0.13423 0.35393 0.73768 0.0
H687 H 0.16691 0.31116 0.73379 0.0
H688 H 0.10441 0.37554 0.76182 0.0
H689 H 0.02515 0.33673 0.71918 0.0
H690 H 0.03365 0.30916 0.73139 0.0
H691 H 0.06257 0.32264 0.72119 0.0
C692 C 0.10727 0.27433 0.74569 0.0
C693 C 0.13549 0.27827 0.74038 0.0
C694 C 0.0887 0.29869 0.74784 0.0
C695 C 0.09791 0.32744 0.74467 0.0
C696 C 0.12666 0.3318 0.74006 0.0
H697 H 0.00682 0.49869 0.75164 0.0
H698 H 0.04267 0.45965 0.74643 0.0
C699 C 0.14532 0.30738 0.73789 0.0
C700 C 0.07706 0.35268 0.74586 0.0
H701 H 0.00942 0.37687 0.73369 0.0
C702 C 0.08377 0.37605 0.75561 0.0
C703 C 0.05019 0.35318 0.7377 0.0
C704 C 0.04248 0.32925 0.72668 0.0
C705 C 0.06373 0.39946 0.75776 0.0
C706 C 0.03661 0.39971 0.74974 0.0
C707 C 0.0302 0.37659 0.73983 0.0
C708 C 0.01413 0.42323 0.75182 0.0
C709 C 0.07128 0.42313 0.76891 0.0
C710 C 0.98567 0.41555 0.75596 0.0
C711 C 0.96498 0.43777 0.75882 0.0
C712 C 0.97237 0.46811 0.75757 0.0
C713 C 0.00045 0.47558 0.75281 0.0
C714 C 0.02109 0.45332 0.74993 0.0
H715 H 0.08931 0.41594 0.77614 0.0
H716 H 0.07908 0.44376 0.7643 0.0
H717 H 0.05134 0.42873 0.77472 0.0
H718 H 0.97978 0.3924 0.75737 0.0
H719 H 0.94357 0.4312 0.76243 0.0
H720 H 0.96234 0.65909 0.00623 0.0
H721 H 0.92249 0.62386 0.01107 0.0
H722 H 0.899 0.61167 0.96805 0.0
H723 H 0.93763 0.64792 0.96324 0.0
H724 H 0.85077 0.6124 0.98127 0.0
H725 H 0.92901 0.53553 0.00647 0.0
H726 H 0.92997 0.57189 0.015 0.0
H727 H 0.94173 0.56742 0.99778 0.0
C728 C 0.94842 0.64913 0.99784 0.0
C729 C 0.95324 0.65614 0.98436 0.0
C730 C 0.92587 0.62875 0.00059 0.0
C731 C 0.90833 0.61434 0.98989 0.0
C732 C 0.91236 0.62226 0.97648 0.0
H733 H 0.80922 0.44911 0.00152 0.0
H734 H 0.84487 0.48625 0.99424 0.0
C735 C 0.93446 0.64307 0.97374 0.0
C736 C 0.88601 0.59078 0.99258 0.0
H737 H 0.8772 0.52551 0.00852 0.0
C738 C 0.85662 0.5933 0.98717 0.0
C739 C 0.89373 0.5654 0.99996 0.0
C740 C 0.92539 0.55969 0.005 0.0
C741 C 0.83465 0.57154 0.98915 0.0
C742 C 0.84193 0.54716 0.99726 0.0
C743 C 0.87146 0.54433 0.00244 0.0
C744 C 0.81929 0.52462 0.00075 0.0
C745 C 0.8041 0.57467 0.98225 0.0
C746 C 0.79301 0.53371 0.0068 0.0
C747 C 0.77237 0.51256 0.01068 0.0
C748 C 0.77795 0.48181 0.00896 0.0
C749 C 0.8043 0.47265 0.00297 0.0
C750 C 0.8247 0.49386 0.99883 0.0
H751 H 0.80526 0.58747 0.9729 0.0
H752 H 0.7935 0.55253 0.97941 0.0
H753 H 0.78961 0.58719 0.98927 0.0
H754 H 0.78873 0.55721 0.00885 0.0
H755 H 0.75249 0.52036 0.01547 0.0
H756 H 0.56551 0.39593 0.22181 0.0
H757 H 0.59516 0.35979 0.23432 0.0
H758 H 0.64935 0.43183 0.25358 0.0
H759 H 0.61964 0.46803 0.24136 0.0
H760 H 0.65434 0.35145 0.23142 0.0
H761 H 0.63533 0.38076 0.28557 0.0
H762 H 0.6115 0.3936 0.27177 0.0
H763 H 0.64644 0.41249 0.27649 0.0
C764 C 0.58331 0.40414 0.22893 0.0
C765 C 0.59023 0.43489 0.23054 0.0
C766 C 0.60028 0.38344 0.23606 0.0
C767 C 0.6243 0.3931 0.24499 0.0
C768 C 0.63055 0.42385 0.24698 0.0
H769 H 0.78526 0.29763 0.26384 0.0
H770 H 0.74737 0.33316 0.25673 0.0
C771 C 0.61362 0.44453 0.23989 0.0
C772 C 0.64476 0.37109 0.25112 0.0
H773 H 0.67829 0.35095 0.28119 0.0
C774 C 0.65931 0.35114 0.24231 0.0
C775 C 0.6511 0.37052 0.26534 0.0
C776 C 0.63504 0.39029 0.27535 0.0
C777 C 0.68068 0.3313 0.24729 0.0
C778 C 0.68813 0.33179 0.26145 0.0
C779 C 0.67287 0.35098 0.27032 0.0
C780 C 0.71175 0.31244 0.26711 0.0
C781 C 0.69506 0.30992 0.23734 0.0
C782 C 0.70461 0.28991 0.27586 0.0
C783 C 0.7263 0.26965 0.28004 0.0
C784 C 0.75551 0.27166 0.27555 0.0
C785 C 0.76294 0.2953 0.2674 0.0
C786 C 0.74128 0.31554 0.26326 0.0
H787 H 0.68156 0.30694 0.22756 0.0
H788 H 0.71732 0.31895 0.23508 0.0
H789 H 0.69819 0.28768 0.24166 0.0
H790 H 0.68198 0.28729 0.27902 0.0
H791 H 0.71986 0.25174 0.28634 0.0
H792 H 0.22651 0.0904 0.40261 0.0
H793 H 0.23872 0.07203 0.42519 0.0
H794 H 0.18374 0.13998 0.44327 0.0
H795 H 0.17082 0.15793 0.42077 0.0
H796 H 0.26822 0.10507 0.44585 0.0
H797 H 0.15869 0.06689 0.46275 0.0
H798 H 0.16487 0.07385 0.44519 0.0
H799 H 0.15835 0.10445 0.45718 0.0
C800 C 0.21649 0.10101 0.41136 0.0
C801 C 0.19774 0.12568 0.40989 0.0
C802 C 0.22355 0.09054 0.42426 0.0
C803 C 0.21193 0.10445 0.43591 0.0
C804 C 0.19246 0.12846 0.43442 0.0
H805 H 0.24988 0.09891 0.52299 0.0
H806 H 0.23195 0.11097 0.50002 0.0
C807 C 0.18524 0.13883 0.42153 0.0
C808 C 0.22227 0.09565 0.44966 0.0
H809 H 0.19826 0.07285 0.47991 0.0
C810 C 0.25296 0.09773 0.45325 0.0
C811 C 0.20228 0.08631 0.45933 0.0
C812 C 0.16925 0.08245 0.4559 0.0
C813 C 0.26416 0.09127 0.46632 0.0
C814 C 0.24416 0.08215 0.47601 0.0
C815 C 0.21349 0.07995 0.47244 0.0
C816 C 0.25477 0.07461 0.48988 0.0
C817 C 0.29722 0.09493 0.46978 0.0
C818 C 0.27327 0.05002 0.49175 0.0
C819 C 0.28356 0.04306 0.50483 0.0
C820 C 0.27545 0.06055 0.5163 0.0
C821 C 0.25666 0.08506 0.51438 0.0
C822 C 0.24632 0.09194 0.50128 0.0
H823 H 0.30841 0.10861 0.46236 0.0
H824 H 0.30141 0.10561 0.48014 0.0
H825 H 0.30761 0.07257 0.4696 0.0
H826 H 0.27967 0.03612 0.48308 0.0
H827 H 0.29787 0.02395 0.50592 0.0
H828 H 0.1201 0.72576 0.65786 0.0
H829 H 0.13997 0.73611 0.68122 0.0
H830 H 0.06775 0.68472 0.69622 0.0
H831 H 0.04747 0.67448 0.67289 0.0
H832 H 0.07372 0.74234 0.70806 0.0
H833 H 0.1828 0.68561 0.70942 0.0
H834 H 0.17739 0.70911 0.69527 0.0
H835 H 0.15371 0.67668 0.69641 0.0
C836 C 0.10876 0.71611 0.6661 0.0
C837 C 0.08213 0.69939 0.66351 0.0
C838 C 0.12025 0.72193 0.67944 0.0
C839 C 0.10546 0.71097 0.69043 0.0
C840 C 0.07956 0.69326 0.68786 0.0
H841 H 0.132 0.7571 0.77791 0.0
H842 H 0.11306 0.73484 0.75587 0.0
C843 C 0.06806 0.68738 0.67451 0.0
C844 C 0.11535 0.72055 0.70458 0.0
H845 H 0.17542 0.72246 0.72735 0.0
C846 C 0.0958 0.73766 0.71237 0.0
C847 C 0.14421 0.71451 0.71012 0.0
C848 C 0.16566 0.69523 0.70243 0.0
C849 C 0.10474 0.74989 0.72537 0.0
C850 C 0.13383 0.74438 0.73079 0.0
C851 C 0.15315 0.7267 0.72313 0.0
C852 C 0.14507 0.75772 0.74418 0.0
C853 C 0.08341 0.76956 0.73296 0.0
C854 C 0.16961 0.77758 0.74491 0.0
C855 C 0.18057 0.79022 0.75747 0.0
C856 C 0.16725 0.78314 0.76956 0.0
C857 C 0.14264 0.7632 0.76879 0.0
C858 C 0.13172 0.75051 0.7562 0.0
H859 H 0.06473 0.77701 0.72616 0.0
H860 H 0.07375 0.75682 0.74111 0.0
H861 H 0.09519 0.78962 0.73783 0.0
H862 H 0.18023 0.78339 0.73574 0.0
H863 H 0.19959 0.80543 0.75768 0.0
H864 H 0.56149 0.59658 0.91229 0.0
H865 H 0.55168 0.61066 0.93597 0.0
H866 H 0.49289 0.67983 0.92249 0.0
H867 H 0.50224 0.66576 0.89878 0.0
H868 H 0.55615 0.66562 0.95243 0.0
H869 H 0.43924 0.62403 0.94331 0.0
H870 H 0.46794 0.61576 0.93155 0.0
H871 H 0.45041 0.65164 0.93188 0.0
C872 C 0.54692 0.61518 0.91436 0.0
C873 C 0.53234 0.62982 0.90363 0.0
C874 C 0.54132 0.62314 0.9279 0.0
C875 C 0.52108 0.64582 0.93093 0.0
C876 C 0.50812 0.66184 0.92032 0.0
H877 H 0.43662 0.71353 0.00262 0.0
H878 H 0.45451 0.70319 0.97988 0.0
C879 C 0.51362 0.65386 0.90678 0.0
C880 C 0.51196 0.65141 0.94507 0.0
H881 H 0.45162 0.64849 0.96477 0.0
C882 C 0.53335 0.66181 0.95518 0.0
C883 C 0.48223 0.64614 0.9486 0.0
C884 C 0.45864 0.63352 0.93831 0.0
C885 C 0.52555 0.66793 0.96868 0.0
C886 C 0.49571 0.66303 0.97214 0.0
C887 C 0.47445 0.65231 0.96206 0.0
C888 C 0.48574 0.66948 0.98609 0.0
C889 C 0.54906 0.68029 0.97904 0.0
C890 C 0.49716 0.65367 0.9971 0.0
C891 C 0.48696 0.65946 0.01017 0.0
C892 C 0.46504 0.68112 0.0124 0.0
C893 C 0.45354 0.69671 0.00129 0.0
C894 C 0.46373 0.69089 0.98827 0.0
H895 H 0.56889 0.68912 0.97413 0.0
H896 H 0.5399 0.69847 0.98562 0.0
H897 H 0.55655 0.6622 0.98566 0.0
H898 H 0.51374 0.63661 0.99557 0.0
H899 H 0.49621 0.647 0.01847 0.0
H900 H 0.69793 0.98833 0.16791 0.0
H901 H 0.68147 0.99022 0.19117 0.0
H902 H 0.64678 0.07843 0.18597 0.0
H903 H 0.6633 0.07686 0.16252 0.0
H904 H 0.68123 0.06455 0.21338 0.0
H905 H 0.58645 0.98855 0.19605 0.0
H906 H 0.62224 0.97746 0.19026 0.0
H907 H 0.60587 0.01134 0.18459 0.0
C908 C 0.68701 0.00828 0.17169 0.0
C909 C 0.68135 0.0322 0.16327 0.0
C910 C 0.67772 0.00933 0.18501 0.0
C911 C 0.6626 0.03427 0.19017 0.0
C912 C 0.65832 0.05894 0.1821 0.0
H913 H 0.56154 8e-05 0.26143 0.0
H914 H 0.57595 0.02561 0.24127 0.0
C915 C 0.66766 0.05793 0.16871 0.0
C916 C 0.64935 0.03309 0.20357 0.0
H917 H 0.59769 0.99379 0.21992 0.0
C918 C 0.66282 0.04932 0.21486 0.0
C919 C 0.62476 0.0139 0.20535 0.0
C920 C 0.60874 0.99696 0.19342 0.0
C921 C 0.6536 0.04516 0.22809 0.0
C922 C 0.63032 0.0243 0.22996 0.0
C923 C 0.6156 0.0097 0.21852 0.0
C924 C 0.62272 0.01467 0.24359 0.0
C925 C 0.66929 0.06261 0.23994 0.0
C926 C 0.64433 0.00064 0.25176 0.0
C927 C 0.63615 0.98595 0.26323 0.0
C928 C 0.60615 0.98489 0.26672 0.0
C929 C 0.58483 0.00049 0.25901 0.0
C930 C 0.59303 0.01511 0.24749 0.0
H931 H 0.67793 0.08443 0.23677 0.0
H932 H 0.65424 0.06675 0.24842 0.0
H933 H 0.68866 0.04969 0.24374 0.0
H934 H 0.66724 0.99944 0.24882 0.0
H935 H 0.65314 0.9742 0.26896 0.0
H936 H 0.01433 0.76239 0.92939 0.0
H937 H 0.03051 0.78753 0.90962 0.0
H938 H 0.09941 0.83468 0.9347 0.0
H939 H 0.08437 0.80808 0.95447 0.0
H940 H 0.03916 0.84126 0.90042 0.0
H941 H 0.1494 0.78801 0.90926 0.0
H942 H 0.118 0.77994 0.91921 0.0
H943 H 0.13951 0.81397 0.92269 0.0
C944 C 0.0325 0.77862 0.9308 0.0
C945 C 0.04848 0.78282 0.94344 0.0
C946 C 0.04176 0.79302 0.91945 0.0
C947 C 0.06687 0.81223 0.92055 0.0
C948 C 0.08069 0.81908 0.93349 0.0
H949 H 0.16625 0.8613 0.84971 0.0
H950 H 0.14313 0.86877 0.87171 0.0
C951 C 0.0719 0.80411 0.94481 0.0
C952 C 0.08021 0.82202 0.90794 0.0
H953 H 0.1423 0.81398 0.88943 0.0
C954 C 0.06187 0.83569 0.89811 0.0
C955 C 0.10984 0.81453 0.90483 0.0
C956 C 0.13028 0.79808 0.91448 0.0
C957 C 0.07195 0.84095 0.88514 0.0
C958 C 0.10113 0.83265 0.88199 0.0
C959 C 0.12001 0.82056 0.892 0.0
C960 C 0.11131 0.8322 0.86793 0.0
C961 C 0.05111 0.85433 0.87468 0.0
C962 C 0.10077 0.80943 0.85854 0.0
C963 C 0.11422 0.80478 0.84614 0.0
C964 C 0.13826 0.82304 0.84287 0.0
C965 C 0.14764 0.84701 0.85194 0.0
C966 C 0.13448 0.85131 0.86449 0.0
H967 H 0.03171 0.86506 0.87941 0.0
H968 H 0.06312 0.87117 0.869 0.0
H969 H 0.0426 0.83639 0.86723 0.0
H970 H 0.08318 0.7942 0.86111 0.0
H971 H 0.10648 0.78619 0.83933 0.0
H972 H 0.50037 0.55106 0.18266 0.0
H973 H 0.47381 0.56709 0.16231 0.0
H974 H 0.46673 0.47554 0.14631 0.0
H975 H 0.49526 0.45953 0.16646 0.0
H976 H 0.48744 0.50552 0.12833 0.0
H977 H 0.39329 0.57133 0.14565 0.0
H978 H 0.42596 0.58576 0.15506 0.0
H979 H 0.41382 0.54759 0.15695 0.0
C980 C 0.49244 0.53414 0.17502 0.0
C981 C 0.50016 0.504 0.17615 0.0
C982 C 0.47688 0.54337 0.16336 0.0
C983 C 0.46774 0.52258 0.15273 0.0
C984 C 0.47348 0.4921 0.15432 0.0
H985 H 0.40185 0.61879 0.08111 0.0
H986 H 0.40044 0.58314 0.09927 0.0
C987 C 0.48971 0.48292 0.16588 0.0
C988 C 0.45684 0.53337 0.1393 0.0
H989 H 0.41658 0.58921 0.12516 0.0
C990 C 0.47128 0.52324 0.12762 0.0
C991 C 0.43515 0.55593 0.13805 0.0
C992 C 0.41598 0.56542 0.14961 0.0
C993 C 0.46668 0.53684 0.11517 0.0
C994 C 0.44816 0.56212 0.11448 0.0
C995 C 0.43153 0.57042 0.12575 0.0
C996 C 0.44844 0.58203 0.10284 0.0
C997 C 0.4824 0.52432 0.10299 0.0
C998 C 0.47577 0.5935 0.09887 0.0
C999 C 0.47664 0.61339 0.08846 0.0
C1000 C 0.45013 0.62295 0.08192 0.0
C1001 C 0.42266 0.61172 0.08591 0.0
C1002 C 0.42183 0.59139 0.09629 0.0
H1003 H 0.4847 0.49969 0.10339 0.0
H1004 H 0.4703 0.52929 0.09326 0.0
H1005 H 0.50526 0.53417 0.10313 0.0
H1006 H 0.49656 0.58761 0.10407 0.0
H1007 H 0.49817 0.6219 0.08579 0.0
H1008 H 0.63293 0.95783 0.45068 0.0
H1009 H 0.61899 0.93024 0.4292 0.0
H1010 H 0.69802 0.96417 0.41166 0.0
H1011 H 0.71245 0.99119 0.43311 0.0
H1012 H 0.60634 0.96351 0.40769 0.0
H1013 H 0.69161 0.88118 0.39355 0.0
H1014 H 0.68868 0.89614 0.41082 0.0
H1015 H 0.70789 0.91705 0.39869 0.0
C1016 C 0.64793 0.95853 0.44242 0.0
C1017 C 0.6735 0.97718 0.44352 0.0
C1018 C 0.63992 0.94272 0.43014 0.0
C1019 C 0.65741 0.94517 0.41881 0.0
C1020 C 0.6844 0.96149 0.4203 0.0
H1021 H 0.63203 0.94444 0.33218 0.0
H1022 H 0.65097 0.94562 0.35598 0.0
C1023 C 0.69252 0.97717 0.43259 0.0
C1024 C 0.64483 0.93599 0.40499 0.0
H1025 H 0.66079 0.89958 0.37496 0.0
C1026 C 0.61793 0.94899 0.40063 0.0
C1027 C 0.6602 0.91742 0.39573 0.0
C1028 C 0.68856 0.90192 0.39998 0.0
C1029 C 0.60661 0.94503 0.38712 0.0
C1030 C 0.62233 0.92708 0.37777 0.0
C1031 C 0.64883 0.91337 0.38217 0.0
C1032 C 0.61209 0.92356 0.36324 0.0
C1033 C 0.57864 0.96128 0.38285 0.0
C1034 C 0.58425 0.91022 0.35944 0.0
C1035 C 0.57323 0.9098 0.34591 0.0
C1036 C 0.59002 0.92244 0.33589 0.0
C1037 C 0.61847 0.93469 0.33965 0.0
C1038 C 0.6294 0.93525 0.35322 0.0
H1039 H 0.57315 0.97931 0.39045 0.0
H1040 H 0.58103 0.97131 0.37286 0.0
H1041 H 0.55956 0.94517 0.38178 0.0
H1042 H 0.57079 0.90066 0.36701 0.0
H1043 H 0.55141 0.89982 0.34334 0.0
H1044 H 0.25281 0.26527 0.68023 0.0
H1045 H 0.275 0.24473 0.6597 0.0
H1046 H 0.30138 0.16642 0.68074 0.0
H1047 H 0.27889 0.18655 0.70132 0.0
H1048 H 0.33177 0.2176 0.65155 0.0
H1049 H 0.235 0.13826 0.65128 0.0
H1050 H 0.23777 0.17179 0.66226 0.0
H1051 H 0.25949 0.13974 0.66634 0.0
C1052 C 0.26414 0.24411 0.68066 0.0
C1053 C 0.26346 0.22723 0.69233 0.0
C1054 C 0.27689 0.23243 0.6689 0.0
C1055 C 0.28927 0.20383 0.66865 0.0
C1056 C 0.29155 0.1884 0.6807 0.0
H1057 H 0.34533 0.10033 0.59633 0.0
H1058 H 0.34763 0.12895 0.61832 0.0
C1059 C 0.2787 0.19997 0.69246 0.0
C1060 C 0.295 0.18836 0.6554 0.0
H1061 H 0.26622 0.13349 0.63297 0.0
C1062 C 0.3177 0.19901 0.64751 0.0
C1063 C 0.27621 0.16444 0.65009 0.0
C1064 C 0.25058 0.15293 0.65784 0.0
C1065 C 0.32199 0.18634 0.63437 0.0
C1066 C 0.30308 0.16254 0.6291 0.0
C1067 C 0.28071 0.15171 0.63708 0.0
C1068 C 0.30458 0.14935 0.61505 0.0
C1069 C 0.34593 0.19902 0.62602 0.0
C1070 C 0.27989 0.15177 0.60586 0.0
C1071 C 0.27843 0.1354 0.5934 0.0
C1072 C 0.30162 0.11617 0.58987 0.0
C1073 C 0.32715 0.11504 0.59874 0.0
C1074 C 0.32856 0.13143 0.61129 0.0
H1075 H 0.3558 0.22017 0.63078 0.0
H1076 H 0.36401 0.1825 0.62498 0.0
H1077 H 0.33671 0.20326 0.61562 0.0
H1078 H 0.26115 0.16545 0.60859 0.0
H1079 H 0.25853 0.13694 0.58678 0.0
H1080 H 0.50354 0.52134 0.9136 0.0
H1081 H 0.52206 0.48937 0.93133 0.0
H1082 H 0.56972 0.43712 0.90174 0.0
H1083 H 0.55218 0.46996 0.88392 0.0
H1084 H 0.52202 0.43082 0.93703 0.0
H1085 H 0.63718 0.46918 0.92708 0.0
H1086 H 0.60456 0.4852 0.91908 0.0
H1087 H 0.61735 0.44924 0.91306 0.0
C1088 C 0.51752 0.50275 0.91076 0.0
C1089 C 0.5269 0.4986 0.89739 0.0
C1090 C 0.52806 0.48439 0.92094 0.0
C1091 C 0.54797 0.46135 0.91795 0.0
C1092 C 0.5551 0.45533 0.90436 0.0
H1093 H 0.66468 0.38857 0.98229 0.0
H1094 H 0.63479 0.38788 0.96067 0.0
C1095 C 0.54488 0.47399 0.89417 0.0
C1096 C 0.56336 0.44615 0.92934 0.0
H1097 H 0.63158 0.44089 0.94605 0.0
C1098 C 0.54604 0.43257 0.93889 0.0
C1099 C 0.59475 0.44846 0.93179 0.0
C1100 C 0.6146 0.46399 0.9223 0.0
C1101 C 0.55909 0.42252 0.95108 0.0
C1102 C 0.59019 0.4262 0.95378 0.0
C1103 C 0.60773 0.43799 0.94389 0.0
C1104 C 0.60457 0.42213 0.96744 0.0
C1105 C 0.53942 0.40891 0.96117 0.0
C1106 C 0.59716 0.44128 0.97844 0.0
C1107 C 0.61433 0.44197 0.99069 0.0
C1108 C 0.6392 0.42345 0.9922 0.0
C1109 C 0.64556 0.403 0.98145 0.0
C1110 C 0.62853 0.40258 0.9691 0.0
H1111 H 0.51852 0.39929 0.95608 0.0
H1112 H 0.55124 0.39114 0.96667 0.0
H1113 H 0.53317 0.42657 0.96878 0.0
H1114 H 0.57914 0.45697 0.9773 0.0
H1115 H 0.60885 0.45794 0.99879 0.0
H1116 H 0.73731 0.07502 0.13341 0.0
H1117 H 0.73613 0.09693 0.15665 0.0
H1118 H 0.78904 0.02425 0.17133 0.0
H1119 H 0.78806 0.00117 0.14829 0.0
H1120 H 0.74835 0.03504 0.1881 0.0
H1121 H 0.79926 0.14411 0.17711 0.0
H1122 H 0.7647 0.13687 0.16751 0.0
H1123 H 0.79629 0.11332 0.16461 0.0
C1124 C 0.74839 0.06363 0.14164 0.0
C1125 C 0.76215 0.0361 0.13913 0.0
C1126 C 0.74812 0.07639 0.15491 0.0
C1127 C 0.76284 0.06251 0.16579 0.0
C1128 C 0.77732 0.03535 0.16316 0.0
H1129 H 0.82686 0.15013 0.24112 0.0
H1130 H 0.81838 0.12628 0.21842 0.0
C1131 C 0.77699 0.0223 0.14997 0.0
C1132 C 0.76346 0.07604 0.17993 0.0
H1133 H 0.78189 0.13976 0.19917 0.0
C1134 C 0.75583 0.05792 0.19053 0.0
C1135 C 0.77338 0.10585 0.18314 0.0
C1136 C 0.78416 0.12604 0.17251 0.0
C1137 C 0.75885 0.06837 0.20425 0.0
C1138 C 0.76816 0.09838 0.20742 0.0
C1139 C 0.7747 0.11678 0.19677 0.0
C1140 C 0.77342 0.11085 0.22165 0.0
C1141 C 0.75382 0.0466 0.21516 0.0
C1142 C 0.75117 0.10984 0.23119 0.0
C1143 C 0.75638 0.12277 0.24438 0.0
C1144 C 0.78353 0.13778 0.24807 0.0
C1145 C 0.80566 0.13884 0.23852 0.0
C1146 C 0.80078 0.12525 0.22553 0.0
H1147 H 0.75473 0.02301 0.21114 0.0
H1148 H 0.77075 0.05 0.22375 0.0
H1149 H 0.73146 0.05006 0.2192 0.0
H1150 H 0.72956 0.0997 0.22837 0.0
H1151 H 0.73883 0.12197 0.25153 0.0
H1152 H 0.24384 0.22093 0.40528 0.0
H1153 H 0.23619 0.24158 0.42828 0.0
H1154 H 0.15773 0.28667 0.41342 0.0
H1155 H 0.16509 0.26616 0.39035 0.0
H1156 H 0.19904 0.31824 0.43677 0.0
H1157 H 0.15834 0.20235 0.44441 0.0
H1158 H 0.1943 0.2067 0.4374 0.0
H1159 H 0.16128 0.21641 0.42766 0.0
C1160 C 0.2255 0.23603 0.40677 0.0
C1161 C 0.20478 0.2415 0.39599 0.0
C1162 C 0.22117 0.24777 0.41995 0.0
C1163 C 0.19623 0.26532 0.42252 0.0
C1164 C 0.17712 0.27315 0.4116 0.0
H1165 H 0.09729 0.32811 0.49089 0.0
H1166 H 0.12441 0.32509 0.46993 0.0
C1167 C 0.18135 0.26134 0.39842 0.0
C1168 C 0.1874 0.27145 0.43666 0.0
H1169 H 0.15514 0.23762 0.46259 0.0
C1170 C 0.18966 0.30067 0.44252 0.0
C1171 C 0.17522 0.24841 0.44406 0.0
C1172 C 0.17189 0.21669 0.43811 0.0
C1173 C 0.18003 0.30744 0.4557 0.0
C1174 C 0.16702 0.28449 0.46298 0.0
C1175 C 0.16521 0.25523 0.45709 0.0
C1176 C 0.15391 0.29003 0.47645 0.0
C1177 C 0.18425 0.33895 0.46172 0.0
C1178 C 0.16136 0.27144 0.48715 0.0
C1179 C 0.14534 0.27259 0.49895 0.0
C1180 C 0.12182 0.29269 0.50041 0.0
C1181 C 0.11554 0.31262 0.4901 0.0
C1182 C 0.1312 0.31104 0.47814 0.0
H1183 H 0.2032 0.35052 0.45724 0.0
H1184 H 0.1638 0.35182 0.4594 0.0
H1185 H 0.18839 0.33931 0.47295 0.0
H1186 H 0.17877 0.25505 0.48611 0.0
H1187 H 0.15075 0.25704 0.50676 0.0
H1188 H 0.99022 0.73405 0.65612 0.0
H1189 H 0.96469 0.71802 0.6758 0.0
H1190 H 0.90667 0.66018 0.64954 0.0
H1191 H 0.93321 0.67511 0.62975 0.0
H1192 H 0.90982 0.71549 0.68546 0.0
H1193 H 0.94829 0.60034 0.67246 0.0
H1194 H 0.9601 0.63221 0.66354 0.0
H1195 H 0.92364 0.61565 0.65978 0.0
C1196 C 0.97158 0.71844 0.65444 0.0
C1197 C 0.96411 0.7054 0.64138 0.0
C1198 C 0.95697 0.70926 0.66574 0.0
C1199 C 0.93436 0.68719 0.66421 0.0
C1200 C 0.92472 0.67651 0.65102 0.0
H1201 H 0.87888 0.58086 0.73162 0.0
H1202 H 0.8737 0.60707 0.71033 0.0
C1203 C 0.93972 0.68526 0.6397 0.0
C1204 C 0.92358 0.67331 0.67649 0.0
H1205 H 0.92456 0.60781 0.69289 0.0
C1206 C 0.91263 0.69186 0.687 0.0
C1207 C 0.92743 0.64244 0.67856 0.0
C1208 C 0.94073 0.6215 0.66806 0.0
C1209 C 0.90646 0.68059 0.69965 0.0
C1210 C 0.91128 0.65005 0.70181 0.0
C1211 C 0.92068 0.6312 0.69111 0.0
C1212 C 0.91064 0.63781 0.71549 0.0
C1213 C 0.89568 0.70154 0.71076 0.0
C1214 C 0.93288 0.64668 0.72546 0.0
C1215 C 0.93616 0.63154 0.73749 0.0
C1216 C 0.91712 0.60734 0.73981 0.0
C1217 C 0.89379 0.59952 0.73014 0.0
C1218 C 0.89079 0.61445 0.71799 0.0
H1219 H 0.88569 0.72193 0.70657 0.0
H1220 H 0.87891 0.69024 0.71674 0.0
H1221 H 0.91487 0.70861 0.71781 0.0
H1222 H 0.94875 0.6643 0.72363 0.0
H1223 H 0.95431 0.63812 0.74476 0.0
H1224 H 0.70692 0.17007 0.43656 0.0
H1225 H 0.7093 0.18548 0.41314 0.0
H1226 H 0.66847 0.10149 0.3983 0.0
H1227 H 0.66511 0.0864 0.4216 0.0
H1228 H 0.74209 0.15848 0.39502 0.0
H1229 H 0.62588 0.1566 0.37354 0.0
H1230 H 0.63475 0.15609 0.39164 0.0
H1231 H 0.63472 0.12199 0.38108 0.0
C1232 C 0.69771 0.15523 0.42833 0.0
C1233 C 0.68595 0.12695 0.43096 0.0
C1234 C 0.69911 0.16406 0.41493 0.0
C1235 C 0.68881 0.1448 0.40392 0.0
C1236 C 0.67585 0.11712 0.40658 0.0
H1237 H 0.74265 0.10972 0.32346 0.0
H1238 H 0.72173 0.10997 0.34594 0.0
C1239 C 0.67417 0.1084 0.41996 0.0
C1240 C 0.69516 0.15176 0.38973 0.0
H1241 H 0.66444 0.15137 0.35719 0.0
C1242 C 0.72496 0.15756 0.38682 0.0
C1243 C 0.67286 0.1505 0.37898 0.0
C1244 C 0.64024 0.14626 0.3815 0.0
C1245 C 0.73323 0.16075 0.37341 0.0
C1246 C 0.71119 0.158 0.36265 0.0
C1247 C 0.68126 0.15326 0.36552 0.0
C1248 C 0.71955 0.15814 0.34833 0.0
C1249 C 0.76566 0.16594 0.37072 0.0
C1250 C 0.72454 0.18518 0.34217 0.0
C1251 C 0.73643 0.18515 0.32929 0.0
C1252 C 0.74371 0.15805 0.32247 0.0
C1253 C 0.73738 0.13097 0.32846 0.0
C1254 C 0.72536 0.13104 0.34128 0.0
H1255 H 0.78015 0.16737 0.38024 0.0
H1256 H 0.77353 0.14747 0.36392 0.0
H1257 H 0.76819 0.18705 0.36541 0.0
H1258 H 0.72027 0.2063 0.34753 0.0
H1259 H 0.74108 0.20638 0.32496 0.0
H1260 H 0.12756 0.19264 0.67998 0.0
H1261 H 0.10824 0.19676 0.65636 0.0
H1262 H 0.13577 0.28969 0.65809 0.0
H1263 H 0.15361 0.28612 0.68166 0.0
H1264 H 0.08321 0.28382 0.64615 0.0
H1265 H 0.15604 0.19784 0.62322 0.0
H1266 H 0.13231 0.18373 0.63563 0.0
H1267 H 0.16092 0.21114 0.6408 0.0
C1268 C 0.12926 0.21395 0.67531 0.0
C1269 C 0.14208 0.23904 0.68267 0.0
C1270 C 0.1185 0.21621 0.66178 0.0
C1271 C 0.12109 0.2434 0.65534 0.0
C1272 C 0.13352 0.26847 0.6628 0.0
H1273 H 0.11901 0.27675 0.56964 0.0
H1274 H 0.13155 0.26478 0.59326 0.0
C1275 C 0.14371 0.26638 0.67632 0.0
C1276 C 0.11076 0.24637 0.6409 0.0
H1277 H 0.12052 0.21971 0.60832 0.0
C1278 C 0.09135 0.26975 0.63788 0.0
C1279 C 0.12172 0.22829 0.63009 0.0
C1280 C 0.14412 0.20404 0.63255 0.0
C1281 C 0.08313 0.27605 0.62441 0.0
C1282 C 0.09342 0.25749 0.6136 0.0
C1283 C 0.11243 0.23376 0.6166 0.0
C1284 C 0.08566 0.2631 0.5991 0.0
C1285 C 0.06461 0.30338 0.62196 0.0
C1286 C 0.05573 0.26544 0.59443 0.0
C1287 C 0.04862 0.27304 0.58109 0.0
C1288 C 0.07126 0.27745 0.57201 0.0
C1289 C 0.10114 0.27356 0.57645 0.0
C1290 C 0.10829 0.26666 0.58992 0.0
H1291 H 0.06661 0.31985 0.63081 0.0
H1292 H 0.07137 0.31468 0.61279 0.0
H1293 H 0.04075 0.29658 0.62045 0.0
H1294 H 0.03783 0.26173 0.60116 0.0
H1295 H 0.02535 0.27535 0.57785 0.0
H1296 H 0.96238 0.69232 0.91353 0.0
H1297 H 0.95515 0.66722 0.89106 0.0
H1298 H 0.02698 0.60749 0.90062 0.0
H1299 H 0.03475 0.63291 0.92327 0.0
H1300 H 0.02862 0.63077 0.87446 0.0
H1301 H 0.91679 0.58411 0.88346 0.0
H1302 H 0.91964 0.62372 0.88721 0.0
H1303 H 0.94202 0.59886 0.89713 0.0
C1304 C 0.97667 0.67381 0.91092 0.0
C1305 C 0.99899 0.66442 0.92024 0.0
C1306 C 0.97239 0.65942 0.89807 0.0
C1307 C 0.99013 0.63516 0.8943 0.0
C1308 C 0.01291 0.62605 0.90342 0.0
H1309 H 0.93719 0.52391 0.8217 0.0
H1310 H 0.95319 0.54105 0.8449 0.0
C1311 C 0.01729 0.64055 0.91634 0.0
C1312 C 0.98472 0.6197 0.88075 0.0
H1313 H 0.92992 0.58485 0.86023 0.0
C1314 C 0.00719 0.62038 0.87136 0.0
C1315 C 0.9569 0.60579 0.87683 0.0
C1316 C 0.93256 0.60276 0.88673 0.0
C1317 C 0.00211 0.60857 0.85794 0.0
C1318 C 0.97363 0.59633 0.85379 0.0
C1319 C 0.95162 0.59458 0.86337 0.0
C1320 C 0.96584 0.5856 0.83956 0.0
C1321 C 0.02727 0.60928 0.84835 0.0
C1322 C 0.9675 0.60503 0.82885 0.0
C1323 C 0.95851 0.59525 0.81553 0.0
C1324 C 0.94729 0.56599 0.81274 0.0
C1325 C 0.94563 0.54662 0.8235 0.0
C1326 C 0.95483 0.55634 0.83677 0.0
H1327 H 0.04938 0.61058 0.85401 0.0
H1328 H 0.02658 0.58918 0.84125 0.0
H1329 H 0.02519 0.62939 0.84226 0.0
H1330 H 0.97518 0.62795 0.83082 0.0
H1331 H 0.9599 0.61076 0.80748 0.0
H1332 H 0.61793 0.43502 0.17095 0.0
H1333 H 0.64001 0.42946 0.14888 0.0
H1334 H 0.6667 0.52263 0.1519 0.0
H1335 H 0.64352 0.52865 0.17384 0.0
H1336 H 0.64017 0.50916 0.12806 0.0
H1337 H 0.72393 0.42263 0.13789 0.0
H1338 H 0.68769 0.41014 0.14222 0.0
H1339 H 0.70527 0.44202 0.15146 0.0
C1340 C 0.62892 0.45424 0.16704 0.0
C1341 C 0.629 0.48228 0.17414 0.0
C1342 C 0.64175 0.45097 0.15444 0.0
C1343 C 0.65553 0.47548 0.14882 0.0
C1344 C 0.65633 0.50336 0.15607 0.0
H1345 H 0.74702 0.44711 0.07295 0.0
H1346 H 0.73616 0.45942 0.09666 0.0
C1347 C 0.64312 0.50676 0.1686 0.0
C1348 C 0.66672 0.4725 0.1349 0.0
H1349 H 0.70856 0.42826 0.1143 0.0
C1350 C 0.65549 0.49174 0.1251 0.0
C1351 C 0.68709 0.45013 0.13106 0.0
C1352 C 0.70192 0.43031 0.14127 0.0
C1353 C 0.66309 0.48845 0.11147 0.0
C1354 C 0.68164 0.46463 0.10744 0.0
C1355 C 0.6939 0.44619 0.11734 0.0
C1356 C 0.68815 0.45804 0.09298 0.0
C1357 C 0.65124 0.51066 0.10158 0.0
C1358 C 0.66478 0.45286 0.08306 0.0
C1359 C 0.67092 0.44622 0.06948 0.0
C1360 C 0.70056 0.44398 0.06562 0.0
C1361 C 0.72393 0.44866 0.07561 0.0
C1362 C 0.71777 0.4557 0.08916 0.0
H1363 H 0.64641 0.53242 0.1069 0.0
H1364 H 0.66728 0.51468 0.09362 0.0
H1365 H 0.63001 0.50183 0.09653 0.0
H1366 H 0.64175 0.4536 0.08583 0.0
H1367 H 0.65243 0.44239 0.06205 0.0
loop_
_geom_bond_atom_site_label_1
_geom_bond_atom_site_label_2
_geom_bond_distance
_geom_bond_site_symmetry_2
_ccdc_geom_bond_type
Mg0 O7 2.141 . S
Mg0 O8 2.048 . S
Mg0 O9 2.048 . S
Mg0 O12 2.141 . S
C1 O2 1.313 . S
C1 O8 1.195 . S
O2 C1 1.313 . S
C3 O4 1.245 . S
C3 O12 1.289 . S
O4 C3 1.245 . S
C5 O6 1.245 . S
C5 O7 1.289 . S
O6 C5 1.245 . S
O7 Mg0 2.141 . S
O7 C5 1.289 . S
O8 Mg0 2.048 . S
O8 C1 1.195 . S
O9 Mg0 2.048 . S
O9 C10 1.195 . S
C10 O9 1.195 . S
C10 O11 1.313 . S
O11 C10 1.313 . S
O12 Mg0 2.141 . S
O12 C3 1.289 . S
Mg13 O20 2.141 . S
Mg13 O21 2.048 . S
Mg13 O22 2.048 . S
Mg13 O25 2.141 . S
C14 O15 1.313 . S
C14 O21 1.195 . S
O15 C14 1.313 . S
C16 O17 1.245 . S
C16 O25 1.289 . S
O17 C16 1.245 . S
C18 O19 1.245 . S
C18 O20 1.289 . S
O19 C18 1.245 . S
O20 Mg13 2.141 . S
O20 C18 1.289 . S
O21 Mg13 2.048 . S
O21 C14 1.195 . S
O22 Mg13 2.048 . S
O22 C23 1.195 . S
C23 O22 1.195 . S
C23 O24 1.313 . S
O24 C23 1.313 . S
O25 Mg13 2.141 . S
O25 C16 1.289 . S
Mg26 O33 2.141 . S
Mg26 O34 2.048 . S
Mg26 O35 2.048 . S
Mg26 O38 2.141 . S
C27 O28 1.313 . S
C27 O34 1.195 . S
O28 C27 1.313 . S
C29 O30 1.245 . S
C29 O38 1.289 . S
O30 C29 1.245 . S
C31 O32 1.245 . S
C31 O33 1.289 . S
O32 C31 1.245 . S
O33 Mg26 2.141 . S
O33 C31 1.289 . S
O34 Mg26 2.048 . S
O34 C27 1.195 . S
O35 Mg26 2.048 . S
O35 C36 1.195 . S
C36 O35 1.195 . S
C36 O37 1.313 . S
O37 C36 1.313 . S
O38 Mg26 2.141 . S
O38 C29 1.289 . S
Mg39 O46 2.141 . S
Mg39 O47 2.048 . S
Mg39 O48 2.048 1_545 S
Mg39 O51 2.141 1_545 S
C40 O41 1.313 . S
C40 O47 1.195 . S
O41 C40 1.313 . S
C42 O43 1.245 . S
C42 O51 1.289 . S
O43 C42 1.245 . S
C44 O45 1.245 . S
C44 O46 1.289 . S
O45 C44 1.245 . S
O46 Mg39 2.141 . S
O46 C44 1.289 . S
O47 Mg39 2.048 . S
O47 C40 1.195 . S
O48 Mg39 2.048 1_565 S
O48 C49 1.195 . S
C49 O48 1.195 . S
C49 O50 1.313 . S
O50 C49 1.313 . S
O51 Mg39 2.141 1_565 S
O51 C42 1.289 . S
Mg52 O59 2.141 . S
Mg52 O60 2.048 . S
Mg52 O61 2.048 1_455 S
Mg52 O64 2.141 1_455 S
C53 O54 1.313 . S
C53 O60 1.195 . S
O54 C53 1.313 . S
C55 O56 1.245 . S
C55 O64 1.289 . S
O56 C55 1.245 . S
C57 O58 1.245 . S
C57 O59 1.289 . S
O58 C57 1.245 . S
O59 Mg52 2.141 . S
O59 C57 1.289 . S
O60 Mg52 2.048 . S
O60 C53 1.195 . S
O61 Mg52 2.048 1_655 S
O61 C62 1.195 . S
C62 O61 1.195 . S
C62 O63 1.313 . S
O63 C62 1.313 . S
O64 Mg52 2.141 1_655 S
O64 C55 1.289 . S
Mg65 O72 2.141 . S
Mg65 O73 2.048 . S
Mg65 O74 2.048 . S
Mg65 O77 2.141 . S
C66 O67 1.313 . S
C66 O73 1.195 . S
O67 C66 1.313 . S
C68 O69 1.245 . S
C68 O77 1.289 . S
O69 C68 1.245 . S
C70 O71 1.245 . S
C70 O72 1.289 . S
O71 C70 1.245 . S
O72 Mg65 2.141 . S
O72 C70 1.289 . S
O73 Mg65 2.048 . S
O73 C66 1.195 . S
O74 Mg65 2.048 . S
O74 C75 1.195 . S
C75 O74 1.195 . S
C75 O76 1.313 . S
O76 C75 1.313 . S
O77 Mg65 2.141 . S
O77 C68 1.289 . S
Mg78 O85 2.141 . S
Mg78 O86 2.048 . S
Mg78 O87 2.028 1_545 S
Mg78 O90 2.141 . S
C79 O80 1.313 . S
C79 O86 1.195 . S
O80 C79 1.313 . S
C81 O82 1.245 . S
C81 O90 1.289 . S
O82 C81 1.245 . S
C83 O84 1.245 . S
C83 O85 1.289 . S
O84 C83 1.245 . S
O85 Mg78 2.141 . S
O85 C83 1.289 . S
O86 Mg78 2.048 . S
O86 C79 1.195 . S
O87 Mg78 2.028 1_565 S
O87 C88 1.188 1_565 S
C88 O87 1.188 1_545 S
C88 O89 1.313 . S
O89 C88 1.313 . S
O90 Mg78 2.141 . S
O90 C81 1.289 . S
Mg91 O98 2.141 . S
Mg91 O99 2.048 . S
Mg91 O100 2.048 . S
Mg91 O103 2.141 . S
C92 O93 1.313 . S
C92 O99 1.195 . S
O93 C92 1.313 . S
C94 O95 1.245 . S
C94 O103 1.289 . S
O95 C94 1.245 . S
C96 O97 1.245 . S
C96 O98 1.289 . S
O97 C96 1.245 . S
O98 Mg91 2.141 . S
O98 C96 1.289 . S
O99 Mg91 2.048 . S
O99 C92 1.195 . S
O100 Mg91 2.048 . S
O100 C101 1.195 . S
C101 O100 1.195 . S
C101 O102 1.313 . S
O102 C101 1.313 . S
O103 Mg91 2.141 . S
O103 C94 1.289 . S
O104 Cd105 2.223 . S
O104 C112 1.315 . S
Cd105 O104 2.223 . S
Cd105 O108 2.297 . S
Cd105 O109 2.439 . S
Cd105 O115 2.240 . S
Cd106 O107 2.240 . S
Cd106 O114 2.223 . S
Cd106 O116 2.297 . S
Cd106 O117 2.439 . S
O107 Cd106 2.240 . S
O107 C112 1.279 . S
O108 Cd105 2.297 . S
O108 C110 1.247 . S
O109 Cd105 2.439 . S
O109 C110 1.208 . S
C110 O108 1.247 . S
C110 O109 1.208 . S
C111 O116 1.247 . S
C111 O117 1.208 . S
C112 O104 1.315 . S
C112 O107 1.279 . S
C113 O114 1.315 . S
C113 O115 1.279 . S
O114 Cd106 2.223 . S
O114 C113 1.315 . S
O115 Cd105 2.240 . S
O115 C113 1.279 . S
O116 Cd106 2.297 . S
O116 C111 1.247 . S
O117 Cd106 2.439 . S
O117 C111 1.208 . S
O118 Cd119 2.223 . S
O118 C126 1.315 . S
Cd119 O118 2.223 . S
Cd119 O122 2.297 . S
Cd119 O123 2.439 . S
Cd119 O129 2.240 . S
Cd120 O121 2.240 . S
Cd120 O128 2.223 . S
Cd120 O130 2.297 . S
Cd120 O131 2.439 . S
O121 Cd120 2.240 . S
O121 C126 1.279 . S
O122 Cd119 2.297 . S
O122 C124 1.247 . S
O123 Cd119 2.439 . S
O123 C124 1.208 . S
C124 O122 1.247 . S
C124 O123 1.208 . S
C125 O130 1.247 . S
C125 O131 1.208 . S
C126 O118 1.315 . S
C126 O121 1.279 . S
C127 O128 1.315 . S
C127 O129 1.279 . S
O128 Cd120 2.223 . S
O128 C127 1.315 . S
O129 Cd119 2.240 . S
O129 C127 1.279 . S
O130 Cd120 2.297 . S
O130 C125 1.247 . S
O131 Cd120 2.439 . S
O131 C125 1.208 . S
O132 Cd133 2.223 . S
O132 C140 1.315 . S
Cd133 O132 2.223 . S
Cd133 O136 2.297 . S
Cd133 O137 2.439 1_565 S
Cd133 O143 2.240 . S
Cd134 O135 2.240 . S
Cd134 O142 2.223 1_545 S
Cd134 O144 2.297 . S
Cd134 O145 2.439 . S
O135 Cd134 2.240 . S
O135 C140 1.279 1_545 S
O136 Cd133 2.297 . S
O136 C138 1.247 . S
O137 Cd133 2.439 1_545 S
O137 C138 1.208 1_545 S
C138 O136 1.247 . S
C138 O137 1.208 1_565 S
C139 O144 1.247 . S
C139 O145 1.208 . S
C140 O132 1.315 . S
C140 O135 1.279 1_565 S
C141 O142 1.315 . S
C141 O143 1.279 . S
O142 Cd134 2.223 1_565 S
O142 C141 1.315 . S
O143 Cd133 2.240 . S
O143 C141 1.279 . S
O144 Cd134 2.297 . S
O144 C139 1.247 . S
O145 Cd134 2.439 . S
O145 C139 1.208 . S
O146 Cd147 2.223 . S
O146 C154 1.315 . S
Cd147 O146 2.223 . S
Cd147 O150 2.297 . S
Cd147 O151 2.439 . S
Cd147 O157 2.240 . S
Cd148 O149 2.240 . S
Cd148 O156 2.223 . S
Cd148 O158 2.297 . S
Cd148 O159 2.439 . S
O149 Cd148 2.240 . S
O149 C154 1.279 . S
O150 Cd147 2.297 . S
O150 C152 1.247 . S
O151 Cd147 2.439 . S
O151 C152 1.208 . S
C152 O150 1.247 . S
C152 O151 1.208 . S
C153 O158 1.247 . S
C153 O159 1.208 . S
C154 O146 1.315 . S
C154 O149 1.279 . S
C155 O156 1.315 . S
C155 O157 1.279 . S
O156 Cd148 2.223 . S
O156 C155 1.315 . S
O157 Cd147 2.240 . S
O157 C155 1.279 . S
O158 Cd148 2.297 . S
O158 C153 1.247 . S
O159 Cd148 2.439 . S
O159 C153 1.208 . S
O160 Cd161 2.223 . S
O160 C168 1.315 1_655 S
Cd161 O160 2.223 . S
Cd161 O164 2.297 . S
Cd161 O165 2.439 1_655 S
Cd161 O171 2.240 . S
Cd162 O163 2.240 . S
Cd162 O170 2.223 1_455 S
Cd162 O172 2.297 . S
Cd162 O173 2.439 . S
O163 Cd162 2.240 . S
O163 C168 1.279 . S
O164 Cd161 2.297 . S
O164 C166 1.236 1_655 S
O165 Cd161 2.439 1_455 S
O165 C166 1.214 . S
C166 O164 1.236 1_455 S
C166 O165 1.214 . S
C167 O172 1.247 . S
C167 O173 1.208 . S
C168 O160 1.315 1_455 S
C168 O163 1.279 . S
C169 O170 1.315 . S
C169 O171 1.279 . S
O170 Cd162 2.223 1_655 S
O170 C169 1.315 . S
O171 Cd161 2.240 . S
O171 C169 1.279 . S
O172 Cd162 2.297 . S
O172 C167 1.247 . S
O173 Cd162 2.439 . S
O173 C167 1.208 . S
O174 Cd175 2.223 . S
O174 C182 1.315 . S
Cd175 O174 2.223 . S
Cd175 O178 2.297 . S
Cd175 O179 2.439 . S
Cd175 O185 2.240 . S
Cd176 O177 2.240 . S
Cd176 O184 2.223 . S
Cd176 O186 2.297 . S
Cd176 O187 2.439 . S
O177 Cd176 2.240 . S
O177 C182 1.279 . S
O178 Cd175 2.297 . S
O178 C180 1.247 . S
O179 Cd175 2.439 . S
O179 C180 1.208 . S
C180 O178 1.247 . S
C180 O179 1.208 . S
C181 O186 1.247 . S
C181 O187 1.208 . S
C182 O174 1.315 . S
C182 O177 1.279 . S
C183 O184 1.315 . S
C183 O185 1.279 . S
O184 Cd176 2.223 . S
O184 C183 1.315 . S
O185 Cd175 2.240 . S
O185 C183 1.279 . S
O186 Cd176 2.297 . S
O186 C181 1.247 . S
O187 Cd176 2.439 . S
O187 C181 1.208 . S
O188 Cd189 2.223 . S
O188 C196 1.315 . S
Cd189 O188 2.223 . S
Cd189 O192 2.297 . S
Cd189 O193 2.439 . S
Cd189 O199 2.240 . S
Cd190 O191 2.240 . S
Cd190 O198 2.223 . S
Cd190 O200 2.297 1_554 S
Cd190 O201 2.439 1_554 S
O191 Cd190 2.240 . S
O191 C196 1.279 . S
O192 Cd189 2.297 . S
O192 C194 1.247 . S
O193 Cd189 2.439 . S
O193 C194 1.208 . S
C194 O192 1.247 . S
C194 O193 1.208 . S
C195 O200 1.247 . S
C195 O201 1.208 . S
C196 O188 1.315 . S
C196 O191 1.279 . S
C197 O198 1.315 . S
C197 O199 1.279 . S
O198 Cd190 2.223 . S
O198 C197 1.315 . S
O199 Cd189 2.240 . S
O199 C197 1.279 . S
O200 Cd190 2.297 1_556 S
O200 C195 1.247 . S
O201 Cd190 2.439 1_556 S
O201 C195 1.208 . S
O202 Cd203 2.223 . S
O202 C210 1.315 . S
Cd203 O202 2.223 . S
Cd203 O206 2.297 . S
Cd203 O207 2.439 . S
Cd203 O213 2.240 . S
Cd204 O205 2.240 . S
Cd204 O212 2.223 . S
Cd204 O214 2.297 . S
Cd204 O215 2.439 . S
O205 Cd204 2.240 . S
O205 C210 1.279 . S
O206 Cd203 2.297 . S
O206 C208 1.247 . S
O207 Cd203 2.439 . S
O207 C208 1.208 . S
C208 O206 1.247 . S
C208 O207 1.208 . S
C209 O214 1.247 . S
C209 O215 1.208 . S
C210 O202 1.315 . S
C210 O205 1.279 . S
C211 O212 1.315 . S
C211 O213 1.279 . S
O212 Cd204 2.223 . S
O212 C211 1.315 . S
O213 Cd203 2.240 . S
O213 C211 1.279 . S
O214 Cd204 2.297 . S
O214 C209 1.247 . S
O215 Cd204 2.439 . S
O215 C209 1.208 . S
H216 C224 0.929 . S
H217 C226 0.930 . S
H218 C228 0.930 . S
H219 C231 0.929 . S
H220 C234 0.930 . S
H221 C236 0.960 . S
H222 C236 0.960 . S
H223 C236 0.960 . S
C224 H216 0.929 . S
C224 C225 1.377 . S
C224 C226 1.384 . S
C225 C224 1.377 . S
C225 C231 1.390 . S
C226 H217 0.930 . S
C226 C224 1.384 . S
C226 C227 1.372 . S
C227 C226 1.372 . S
C227 C228 1.400 . S
C227 C232 1.490 . S
C228 H218 0.930 . S
C228 C227 1.400 . S
C228 C231 1.386 . S
H229 C245 0.930 . S
H230 C246 0.931 . S
C231 H219 0.929 . S
C231 C225 1.390 . S
C231 C228 1.386 . S
C232 C227 1.490 . S
C232 C234 1.395 . S
C232 C235 1.403 1_545 S
H233 C239 0.930 . S
C234 H220 0.930 . S
C234 C232 1.395 . S
C234 C237 1.403 . S
C235 C232 1.403 1_565 S
C235 C236 1.524 . S
C235 C239 1.400 . S
C236 H221 0.960 . S
C236 H222 0.960 . S
C236 H223 0.960 . S
C236 C235 1.524 . S
C237 C234 1.403 . S
C237 C238 1.392 1_545 S
C237 C241 1.495 . S
C238 C237 1.392 1_565 S
C238 C239 1.385 . S
C238 C240 1.478 . S
C239 H233 0.930 . S
C239 C235 1.400 . S
C239 C238 1.385 . S
C240 C238 1.478 . S
C240 C242 1.381 . S
C240 C246 1.383 . S
C241 C237 1.495 . S
C241 H247 0.959 . S
C241 H248 0.961 . S
C241 H249 0.960 . S
C242 C240 1.381 . S
C242 C243 1.394 . S
C242 H250 0.930 . S
C243 C242 1.394 . S
C243 C244 1.383 . S
C243 H251 0.929 . S
C244 C243 1.383 . S
C244 C245 1.377 . S
C245 H229 0.930 . S
C245 C244 1.377 . S
C245 C246 1.379 . S
C246 H230 0.931 . S
C246 C240 1.383 . S
C246 C245 1.379 . S
H247 C241 0.959 . S
H248 C241 0.961 . S
H249 C241 0.960 . S
H250 C242 0.930 . S
H251 C243 0.929 . S
H252 C260 0.929 . S
H253 C262 0.930 . S
H254 C264 0.930 . S
H255 C267 0.929 . S
H256 C270 0.930 . S
H257 C272 0.960 . S
H258 C272 0.960 . S
H259 C272 0.960 . S
C260 H252 0.929 . S
C260 C261 1.377 . S
C260 C262 1.384 . S
C261 C260 1.377 . S
C261 C267 1.390 . S
C262 H253 0.930 . S
C262 C260 1.384 . S
C262 C263 1.372 . S
C263 C262 1.372 . S
C263 C264 1.400 . S
C263 C268 1.490 . S
C264 H254 0.930 . S
C264 C263 1.400 . S
C264 C267 1.386 . S
H265 C281 0.930 . S
H266 C282 0.931 . S
C267 H255 0.929 . S
C267 C261 1.390 . S
C267 C264 1.386 . S
C268 C263 1.490 . S
C268 C270 1.395 . S
C268 C271 1.403 . S
H269 C275 0.930 . S
C270 H256 0.930 . S
C270 C268 1.395 . S
C270 C273 1.403 . S
C271 C268 1.403 . S
C271 C272 1.524 . S
C271 C275 1.400 . S
C272 H257 0.960 . S
C272 H258 0.960 . S
C272 H259 0.960 . S
C272 C271 1.524 . S
C273 C270 1.403 . S
C273 C274 1.392 . S
C273 C277 1.495 . S
C274 C273 1.392 . S
C274 C275 1.385 . S
C274 C276 1.478 . S
C275 H269 0.930 . S
C275 C271 1.400 . S
C275 C274 1.385 . S
C276 C274 1.478 . S
C276 C278 1.381 . S
C276 C282 1.383 . S
C277 C273 1.495 . S
C277 H283 0.959 . S
C277 H284 0.961 . S
C277 H285 0.960 . S
C278 C276 1.381 . S
C278 C279 1.394 . S
C278 H286 0.930 . S
C279 C278 1.394 . S
C279 C280 1.383 . S
C279 H287 0.929 . S
C280 C279 1.383 . S
C280 C281 1.377 . S
C281 H265 0.930 . S
C281 C280 1.377 . S
C281 C282 1.379 . S
C282 H266 0.931 . S
C282 C276 1.383 . S
C282 C281 1.379 . S
H283 C277 0.959 . S
H284 C277 0.961 . S
H285 C277 0.960 . S
H286 C278 0.930 . S
H287 C279 0.929 . S
H288 C296 0.929 . S
H289 C298 0.930 . S
H290 C300 0.930 . S
H291 C303 0.929 . S
H292 C306 0.930 . S
H293 C308 0.960 . S
H294 C308 0.960 . S
H295 C308 0.960 . S
C296 H288 0.929 . S
C296 C297 1.377 . S
C296 C298 1.384 . S
C297 C296 1.377 . S
C297 C303 1.390 . S
C298 H289 0.930 . S
C298 C296 1.384 . S
C298 C299 1.372 . S
C299 C298 1.372 . S
C299 C300 1.400 . S
C299 C304 1.490 . S
C300 H290 0.930 . S
C300 C299 1.400 . S
C300 C303 1.386 . S
H301 C317 0.930 . S
H302 C318 0.931 . S
C303 H291 0.929 . S
C303 C297 1.390 . S
C303 C300 1.386 . S
C304 C299 1.490 . S
C304 C306 1.395 . S
C304 C307 1.403 . S
H305 C311 0.930 . S
C306 H292 0.930 . S
C306 C304 1.395 . S
C306 C309 1.403 . S
C307 C304 1.403 . S
C307 C308 1.524 . S
C307 C311 1.400 . S
C308 H293 0.960 . S
C308 H294 0.960 . S
C308 H295 0.960 . S
C308 C307 1.524 . S
C309 C306 1.403 . S
C309 C310 1.392 . S
C309 C313 1.495 . S
C310 C309 1.392 . S
C310 C311 1.385 . S
C310 C312 1.478 . S
C311 H305 0.930 . S
C311 C307 1.400 . S
C311 C310 1.385 . S
C312 C310 1.478 . S
C312 C314 1.381 . S
C312 C318 1.383 . S
C313 C309 1.495 . S
C313 H319 0.959 . S
C313 H320 0.961 . S
C313 H321 0.960 . S
C314 C312 1.381 . S
C314 C315 1.394 . S
C314 H322 0.930 . S
C315 C314 1.394 . S
C315 C316 1.383 . S
C315 H323 0.929 . S
C316 C315 1.383 . S
C316 C317 1.377 . S
C317 H301 0.930 . S
C317 C316 1.377 . S
C317 C318 1.379 . S
C318 H302 0.931 . S
C318 C312 1.383 . S
C318 C317 1.379 . S
H319 C313 0.959 . S
H320 C313 0.961 . S
H321 C313 0.960 . S
H322 C314 0.930 . S
H323 C315 0.929 . S
H324 C332 0.929 . S
H325 C334 0.930 . S
H326 C336 0.930 . S
H327 C339 0.929 . S
H328 C342 0.930 . S
H329 C344 0.960 . S
H330 C344 0.960 . S
H331 C344 0.960 . S
C332 H324 0.929 . S
C332 C333 1.377 . S
C332 C334 1.384 . S
C333 C332 1.377 . S
C333 C339 1.390 . S
C334 H325 0.930 . S
C334 C332 1.384 . S
C334 C335 1.372 . S
C335 C334 1.372 . S
C335 C336 1.400 . S
C335 C340 1.490 . S
C336 H326 0.930 . S
C336 C335 1.400 . S
C336 C339 1.386 . S
H337 C353 0.930 . S
H338 C354 0.931 . S
C339 H327 0.929 . S
C339 C333 1.390 . S
C339 C336 1.386 . S
C340 C335 1.490 . S
C340 C342 1.395 . S
C340 C343 1.403 . S
H341 C347 0.930 . S
C342 H328 0.930 . S
C342 C340 1.395 . S
C342 C345 1.403 . S
C343 C340 1.403 . S
C343 C344 1.524 . S
C343 C347 1.400 . S
C344 H329 0.960 . S
C344 H330 0.960 . S
C344 H331 0.960 . S
C344 C343 1.524 . S
C345 C342 1.403 . S
C345 C346 1.392 . S
C345 C349 1.495 . S
C346 C345 1.392 . S
C346 C347 1.385 . S
C346 C348 1.478 . S
C347 H341 0.930 . S
C347 C343 1.400 . S
C347 C346 1.385 . S
C348 C346 1.478 . S
C348 C350 1.381 . S
C348 C354 1.383 . S
C349 C345 1.495 . S
C349 H355 0.959 . S
C349 H356 0.961 . S
C349 H357 0.960 . S
C350 C348 1.381 . S
C350 C351 1.394 . S
C350 H358 0.930 . S
C351 C350 1.394 . S
C351 C352 1.383 . S
C351 H359 0.929 . S
C352 C351 1.383 . S
C352 C353 1.377 . S
C353 H337 0.930 . S
C353 C352 1.377 . S
C353 C354 1.379 . S
C354 H338 0.931 . S
C354 C348 1.383 . S
C354 C353 1.379 . S
H355 C349 0.959 . S
H356 C349 0.961 . S
H357 C349 0.960 . S
H358 C350 0.930 . S
H359 C351 0.929 . S
H360 C368 0.929 . S
H361 C370 0.930 . S
H362 C372 0.930 . S
H363 C375 0.929 1_554 S
H364 C378 0.946 . S
H365 C380 0.960 . S
H366 C380 0.960 . S
H367 C380 0.960 . S
C368 H360 0.929 . S
C368 C369 1.377 . S
C368 C370 1.384 . S
C369 C368 1.377 . S
C369 C375 1.390 . S
C370 H361 0.930 . S
C370 C368 1.384 . S
C370 C371 1.372 . S
C371 C370 1.372 . S
C371 C372 1.400 1_556 S
C371 C376 1.490 1_556 S
C372 H362 0.930 . S
C372 C371 1.400 1_554 S
C372 C375 1.386 1_554 S
H373 C389 0.930 . S
H374 C390 0.931 . S
C375 H363 0.929 1_556 S
C375 C369 1.390 . S
C375 C372 1.386 1_556 S
C376 C371 1.490 1_554 S
C376 C378 1.387 1_554 S
C376 C379 1.403 . S
H377 C383 0.930 . S
C378 H364 0.946 . S
C378 C376 1.387 1_556 S
C378 C381 1.396 1_556 S
C379 C376 1.403 . S
C379 C380 1.524 . S
C379 C383 1.400 . S
C380 H365 0.960 . S
C380 H366 0.960 . S
C380 H367 0.960 . S
C380 C379 1.524 . S
C381 C378 1.396 1_554 S
C381 C382 1.392 . S
C381 C385 1.492 . S
C382 C381 1.392 . S
C382 C383 1.385 . S
C382 C384 1.478 . S
C383 H377 0.930 . S
C383 C379 1.400 . S
C383 C382 1.385 . S
C384 C382 1.478 . S
C384 C386 1.381 . S
C384 C390 1.383 . S
C385 C381 1.492 . S
C385 H391 0.965 1_554 S
C385 H392 0.957 . S
C385 H393 0.961 1_554 S
C386 C384 1.381 . S
C386 C387 1.394 . S
C386 H394 0.930 . S
C387 C386 1.394 . S
C387 C388 1.383 . S
C387 H395 0.929 . S
C388 C387 1.383 . S
C388 C389 1.377 . S
C389 H373 0.930 . S
C389 C388 1.377 . S
C389 C390 1.379 . S
C390 H374 0.931 . S
C390 C384 1.383 . S
C390 C389 1.379 . S
H391 C385 0.965 1_556 S
H392 C385 0.957 . S
H393 C385 0.961 1_556 S
H394 C386 0.930 . S
H395 C387 0.929 . S
H396 C404 0.929 . S
H397 C406 0.930 . S
H398 C408 0.930 . S
H399 C411 0.929 . S
H400 C414 0.930 . S
H401 C416 0.960 . S
H402 C416 0.960 . S
H403 C416 0.960 . S
C404 H396 0.929 . S
C404 C405 1.377 . S
C404 C406 1.384 . S
C405 C404 1.377 . S
C405 C411 1.390 . S
C406 H397 0.930 . S
C406 C404 1.384 . S
C406 C407 1.372 . S
C407 C406 1.372 . S
C407 C408 1.400 . S
C407 C412 1.490 . S
C408 H398 0.930 . S
C408 C407 1.400 . S
C408 C411 1.386 . S
H409 C425 0.930 . S
H410 C426 0.931 . S
C411 H399 0.929 . S
C411 C405 1.390 . S
C411 C408 1.386 . S
C412 C407 1.490 . S
C412 C414 1.395 . S
C412 C415 1.403 . S
H413 C419 0.930 . S
C414 H400 0.930 . S
C414 C412 1.395 . S
C414 C417 1.403 . S
C415 C412 1.403 . S
C415 C416 1.524 . S
C415 C419 1.400 . S
C416 H401 0.960 . S
C416 H402 0.960 . S
C416 H403 0.960 . S
C416 C415 1.524 . S
C417 C414 1.403 . S
C417 C418 1.392 . S
C417 C421 1.495 . S
C418 C417 1.392 . S
C418 C419 1.385 . S
C418 C420 1.478 . S
C419 H413 0.930 . S
C419 C415 1.400 . S
C419 C418 1.385 . S
C420 C418 1.478 . S
C420 C422 1.381 . S
C420 C426 1.383 . S
C421 C417 1.495 . S
C421 H427 0.959 . S
C421 H428 0.961 . S
C421 H429 0.960 . S
C422 C420 1.381 . S
C422 C423 1.394 . S
C422 H430 0.930 . S
C423 C422 1.394 . S
C423 C424 1.383 . S
C423 H431 0.929 . S
C424 C423 1.383 . S
C424 C425 1.377 . S
C425 H409 0.930 . S
C425 C424 1.377 . S
C425 C426 1.379 . S
C426 H410 0.931 . S
C426 C420 1.383 . S
C426 C425 1.379 . S
H427 C421 0.959 . S
H428 C421 0.961 . S
H429 C421 0.960 . S
H430 C422 0.930 . S
H431 C423 0.929 . S
H432 C440 0.929 . S
H433 C442 0.930 . S
H434 C444 0.930 . S
H435 C447 0.929 . S
H436 C450 0.930 . S
H437 C452 0.962 . S
H438 C452 0.960 1_565 S
H439 C452 0.960 . S
C440 H432 0.929 . S
C440 C441 1.377 1_565 S
C440 C442 1.384 . S
C441 C440 1.377 1_545 S
C441 C447 1.390 . S
C442 H433 0.930 . S
C442 C440 1.384 . S
C442 C443 1.372 1_565 S
C443 C442 1.372 1_545 S
C443 C444 1.400 . S
C443 C448 1.490 . S
C444 H434 0.930 . S
C444 C443 1.400 . S
C444 C447 1.386 . S
H445 C461 0.930 . S
H446 C462 0.931 . S
C447 H435 0.929 . S
C447 C441 1.390 . S
C447 C444 1.386 . S
C448 C443 1.490 . S
C448 C450 1.395 . S
C448 C451 1.403 . S
H449 C455 0.930 . S
C450 H436 0.930 . S
C450 C448 1.395 . S
C450 C453 1.403 . S
C451 C448 1.403 . S
C451 C452 1.524 . S
C451 C455 1.400 . S
C452 H437 0.962 . S
C452 H438 0.960 1_545 S
C452 H439 0.960 . S
C452 C451 1.524 . S
C453 C450 1.403 . S
C453 C454 1.392 . S
C453 C457 1.495 . S
C454 C453 1.392 . S
C454 C455 1.385 . S
C454 C456 1.478 . S
C455 H449 0.930 . S
C455 C451 1.400 . S
C455 C454 1.385 . S
C456 C454 1.478 . S
C456 C458 1.381 1_545 S
C456 C462 1.383 . S
C457 C453 1.495 . S
C457 H463 0.959 . S
C457 H464 0.961 . S
C457 H465 0.960 1_545 S
C458 C456 1.381 1_565 S
C458 C459 1.394 . S
C458 H466 0.930 . S
C459 C458 1.394 . S
C459 C460 1.383 1_565 S
C459 H467 0.929 . S
C460 C459 1.383 1_545 S
C460 C461 1.377 . S
C461 H445 0.930 . S
C461 C460 1.377 . S
C461 C462 1.379 . S
C462 H446 0.931 . S
C462 C456 1.383 . S
C462 C461 1.379 . S
H463 C457 0.959 . S
H464 C457 0.961 . S
H465 C457 0.960 1_565 S
H466 C458 0.930 . S
H467 C459 0.929 . S
H468 C476 0.929 . S
H469 C478 0.930 . S
H470 C480 0.930 . S
H471 C483 0.929 . S
H472 C486 0.930 . S
H473 C488 0.960 . S
H474 C488 0.960 . S
H475 C488 0.960 . S
C476 H468 0.929 . S
C476 C477 1.377 . S
C476 C478 1.384 . S
C477 C476 1.377 . S
C477 C483 1.390 . S
C478 H469 0.930 . S
C478 C476 1.384 . S
C478 C479 1.372 . S
C479 C478 1.372 . S
C479 C480 1.400 . S
C479 C484 1.490 . S
C480 H470 0.930 . S
C480 C479 1.400 . S
C480 C483 1.386 . S
H481 C497 0.930 . S
H482 C498 0.931 . S
C483 H471 0.929 . S
C483 C477 1.390 . S
C483 C480 1.386 . S
C484 C479 1.490 . S
C484 C486 1.395 . S
C484 C487 1.403 . S
H485 C491 0.930 . S
C486 H472 0.930 . S
C486 C484 1.395 . S
C486 C489 1.403 . S
C487 C484 1.403 . S
C487 C488 1.524 . S
C487 C491 1.400 . S
C488 H473 0.960 . S
C488 H474 0.960 . S
C488 H475 0.960 . S
C488 C487 1.524 . S
C489 C486 1.403 . S
C489 C490 1.392 . S
C489 C493 1.495 . S
C490 C489 1.392 . S
C490 C491 1.385 . S
C490 C492 1.478 . S
C491 H485 0.930 . S
C491 C487 1.400 . S
C491 C490 1.385 . S
C492 C490 1.478 . S
C492 C494 1.381 . S
C492 C498 1.383 . S
C493 C489 1.495 . S
C493 H499 0.959 . S
C493 H500 0.961 . S
C493 H501 0.960 . S
C494 C492 1.381 . S
C494 C495 1.394 1_545 S
C494 H502 0.930 . S
C495 C494 1.394 1_565 S
C495 C496 1.383 . S
C495 H503 0.929 . S
C496 C495 1.383 . S
C496 C497 1.377 1_565 S
C497 H481 0.930 . S
C497 C496 1.377 1_545 S
C497 C498 1.379 . S
C498 H482 0.931 . S
C498 C492 1.383 . S
C498 C497 1.379 . S
H499 C493 0.959 . S
H500 C493 0.961 . S
H501 C493 0.960 . S
H502 C494 0.930 . S
H503 C495 0.929 . S
H504 C512 0.929 . S
H505 C514 0.930 . S
H506 C516 0.930 . S
H507 C519 0.929 . S
H508 C522 0.930 . S
H509 C524 0.960 . S
H510 C524 0.960 . S
H511 C524 0.960 . S
C512 H504 0.929 . S
C512 C513 1.377 . S
C512 C514 1.384 . S
C513 C512 1.377 . S
C513 C519 1.390 . S
C514 H505 0.930 . S
C514 C512 1.384 . S
C514 C515 1.372 . S
C515 C514 1.372 . S
C515 C516 1.400 . S
C515 C520 1.490 . S
C516 H506 0.930 . S
C516 C515 1.400 . S
C516 C519 1.386 . S
H517 C533 0.930 . S
H518 C534 0.931 . S
C519 H507 0.929 . S
C519 C513 1.390 . S
C519 C516 1.386 . S
C520 C515 1.490 . S
C520 C522 1.395 . S
C520 C523 1.403 . S
H521 C527 0.930 . S
C522 H508 0.930 . S
C522 C520 1.395 . S
C522 C525 1.403 . S
C523 C520 1.403 . S
C523 C524 1.524 . S
C523 C527 1.400 . S
C524 H509 0.960 . S
C524 H510 0.960 . S
C524 H511 0.960 . S
C524 C523 1.524 . S
C525 C522 1.403 . S
C525 C526 1.392 . S
C525 C529 1.495 . S
C526 C525 1.392 . S
C526 C527 1.385 . S
C526 C528 1.478 . S
C527 H521 0.930 . S
C527 C523 1.400 . S
C527 C526 1.385 . S
C528 C526 1.478 . S
C528 C530 1.381 . S
C528 C534 1.383 . S
C529 C525 1.495 . S
C529 H535 0.959 . S
C529 H536 0.961 . S
C529 H537 0.960 . S
C530 C528 1.381 . S
C530 C531 1.394 . S
C530 H538 0.930 . S
C531 C530 1.394 . S
C531 C532 1.383 . S
C531 H539 0.929 . S
C532 C531 1.383 . S
C532 C533 1.377 . S
C533 H517 0.930 . S
C533 C532 1.377 . S
C533 C534 1.379 . S
C534 H518 0.931 . S
C534 C528 1.383 . S
C534 C533 1.379 . S
H535 C529 0.959 . S
H536 C529 0.961 . S
H537 C529 0.960 . S
H538 C530 0.930 . S
H539 C531 0.929 . S
H540 C548 0.929 . S
H541 C550 0.930 . S
H542 C552 0.930 . S
H543 C555 0.929 . S
H544 C558 0.930 . S
H545 C560 0.960 . S
H546 C560 0.960 . S
H547 C560 0.960 . S
C548 H540 0.929 . S
C548 C549 1.377 . S
C548 C550 1.384 . S
C549 C548 1.377 . S
C549 C555 1.390 . S
C550 H541 0.930 . S
C550 C548 1.384 . S
C550 C551 1.372 . S
C551 C550 1.372 . S
C551 C552 1.400 . S
C551 C556 1.490 . S
C552 H542 0.930 . S
C552 C551 1.400 . S
C552 C555 1.386 . S
H553 C569 0.930 . S
H554 C570 0.931 . S
C555 H543 0.929 . S
C555 C549 1.390 . S
C555 C552 1.386 . S
C556 C551 1.490 . S
C556 C558 1.395 . S
C556 C559 1.403 . S
H557 C563 0.930 . S
C558 H544 0.930 . S
C558 C556 1.395 . S
C558 C561 1.403 . S
C559 C556 1.403 . S
C559 C560 1.524 . S
C559 C563 1.400 . S
C560 H545 0.960 . S
C560 H546 0.960 . S
C560 H547 0.960 . S
C560 C559 1.524 . S
C561 C558 1.403 . S
C561 C562 1.392 . S
C561 C565 1.495 . S
C562 C561 1.392 . S
C562 C563 1.385 . S
C562 C564 1.478 . S
C563 H557 0.930 . S
C563 C559 1.400 . S
C563 C562 1.385 . S
C564 C562 1.478 . S
C564 C566 1.381 . S
C564 C570 1.383 . S
C565 C561 1.495 . S
C565 H571 0.959 . S
C565 H572 0.961 . S
C565 H573 0.960 . S
C566 C564 1.381 . S
C566 C567 1.394 . S
C566 H574 0.930 . S
C567 C566 1.394 . S
C567 C568 1.383 . S
C567 H575 0.929 . S
C568 C567 1.383 . S
C568 C569 1.377 . S
C569 H553 0.930 . S
C569 C568 1.377 . S
C569 C570 1.379 . S
C570 H554 0.931 . S
C570 C564 1.383 . S
C570 C569 1.379 . S
H571 C565 0.959 . S
H572 C565 0.961 . S
H573 C565 0.960 . S
H574 C566 0.930 . S
H575 C567 0.929 . S
H576 C584 0.929 . S
H577 C586 0.930 . S
H578 C588 0.930 . S
H579 C591 0.929 . S
H580 C594 0.930 . S
H581 C596 0.960 . S
H582 C596 0.960 . S
H583 C596 0.960 . S
C584 H576 0.929 . S
C584 C585 1.377 . S
C584 C586 1.384 . S
C585 C584 1.377 . S
C585 C591 1.390 . S
C586 H577 0.930 . S
C586 C584 1.384 . S
C586 C587 1.372 . S
C587 C586 1.372 . S
C587 C588 1.400 . S
C587 C592 1.490 . S
C588 H578 0.930 . S
C588 C587 1.400 . S
C588 C591 1.386 . S
H589 C605 0.930 . S
H590 C606 0.931 1_455 S
C591 H579 0.929 . S
C591 C585 1.390 . S
C591 C588 1.386 . S
C592 C587 1.490 . S
C592 C594 1.395 . S
C592 C595 1.403 . S
H593 C599 0.930 . S
C594 H580 0.930 . S
C594 C592 1.395 . S
C594 C597 1.403 . S
C595 C592 1.403 . S
C595 C596 1.524 . S
C595 C599 1.400 . S
C596 H581 0.960 . S
C596 H582 0.960 . S
C596 H583 0.960 . S
C596 C595 1.524 . S
C597 C594 1.403 . S
C597 C598 1.392 . S
C597 C601 1.495 . S
C598 C597 1.392 . S
C598 C599 1.385 . S
C598 C600 1.478 1_455 S
C599 H593 0.930 . S
C599 C595 1.400 . S
C599 C598 1.385 . S
C600 C598 1.478 1_655 S
C600 C602 1.381 . S
C600 C606 1.383 . S
C601 C597 1.495 . S
C601 H607 0.959 . S
C601 H608 0.961 . S
C601 H609 0.960 . S
C602 C600 1.381 . S
C602 C603 1.394 . S
C602 H610 0.930 . S
C603 C602 1.394 . S
C603 C604 1.383 . S
C603 H611 0.929 . S
C604 C603 1.383 . S
C604 C605 1.377 . S
C605 H589 0.930 . S
C605 C604 1.377 . S
C605 C606 1.379 . S
C606 H590 0.931 1_655 S
C606 C600 1.383 . S
C606 C605 1.379 . S
H607 C601 0.959 . S
H608 C601 0.961 . S
H609 C601 0.960 . S
H610 C602 0.930 . S
H611 C603 0.929 . S
H612 C620 0.929 . S
H613 C622 0.930 . S
H614 C624 0.930 . S
H615 C627 0.929 . S
H616 C630 0.930 . S
H617 C632 0.960 . S
H618 C632 0.960 . S
H619 C632 0.960 . S
C620 H612 0.929 . S
C620 C621 1.377 . S
C620 C622 1.384 . S
C621 C620 1.377 . S
C621 C627 1.390 . S
C622 H613 0.930 . S
C622 C620 1.384 . S
C622 C623 1.372 . S
C623 C622 1.372 . S
C623 C624 1.400 . S
C623 C628 1.490 . S
C624 H614 0.930 . S
C624 C623 1.400 . S
C624 C627 1.386 . S
H625 C641 0.930 . S
H626 C642 0.931 . S
C627 H615 0.929 . S
C627 C621 1.390 . S
C627 C624 1.386 . S
C628 C623 1.490 . S
C628 C630 1.395 . S
C628 C631 1.403 . S
H629 C635 0.930 . S
C630 H616 0.930 . S
C630 C628 1.395 . S
C630 C633 1.403 . S
C631 C628 1.403 . S
C631 C632 1.524 . S
C631 C635 1.400 . S
C632 H617 0.960 . S
C632 H618 0.960 . S
C632 H619 0.960 . S
C632 C631 1.524 . S
C633 C630 1.403 . S
C633 C634 1.392 . S
C633 C637 1.495 1_455 S
C634 C633 1.392 . S
C634 C635 1.385 . S
C634 C636 1.478 . S
C635 H629 0.930 . S
C635 C631 1.400 . S
C635 C634 1.385 . S
C636 C634 1.478 . S
C636 C638 1.381 . S
C636 C642 1.383 1_455 S
C637 C633 1.495 1_655 S
C637 H643 0.959 . S
C637 H644 0.961 . S
C637 H645 0.960 . S
C638 C636 1.381 . S
C638 C639 1.394 . S
C638 H646 0.930 . S
C639 C638 1.394 . S
C639 C640 1.383 . S
C639 H647 0.929 . S
C640 C639 1.383 . S
C640 C641 1.377 1_455 S
C641 H625 0.930 . S
C641 C640 1.377 1_655 S
C641 C642 1.379 . S
C642 H626 0.931 . S
C642 C636 1.383 1_655 S
C642 C641 1.379 . S
H643 C637 0.959 . S
H644 C637 0.961 . S
H645 C637 0.960 . S
H646 C638 0.930 . S
H647 C639 0.929 . S
H648 C656 0.929 . S
H649 C658 0.930 . S
H650 C660 0.930 . S
H651 C663 0.929 . S
H652 C666 0.930 . S
H653 C668 0.960 . S
H654 C668 0.960 . S
H655 C668 0.960 . S
C656 H648 0.929 . S
C656 C657 1.377 . S
C656 C658 1.384 . S
C657 C656 1.377 . S
C657 C663 1.390 . S
C658 H649 0.930 . S
C658 C656 1.384 . S
C658 C659 1.372 . S
C659 C658 1.372 . S
C659 C660 1.400 . S
C659 C664 1.490 . S
C660 H650 0.930 . S
C660 C659 1.400 . S
C660 C663 1.386 . S
H661 C677 0.930 . S
H662 C678 0.931 . S
C663 H651 0.929 . S
C663 C657 1.390 . S
C663 C660 1.386 . S
C664 C659 1.490 . S
C664 C666 1.395 . S
C664 C667 1.403 . S
H665 C671 0.930 . S
C666 H652 0.930 . S
C666 C664 1.395 . S
C666 C669 1.403 . S
C667 C664 1.403 . S
C667 C668 1.524 . S
C667 C671 1.400 . S
C668 H653 0.960 . S
C668 H654 0.960 . S
C668 H655 0.960 . S
C668 C667 1.524 . S
C669 C666 1.403 . S
C669 C670 1.392 . S
C669 C673 1.495 . S
C670 C669 1.392 . S
C670 C671 1.385 . S
C670 C672 1.478 . S
C671 H665 0.930 . S
C671 C667 1.400 . S
C671 C670 1.385 . S
C672 C670 1.478 . S
C672 C674 1.381 . S
C672 C678 1.383 . S
C673 C669 1.495 . S
C673 H679 0.959 . S
C673 H680 0.961 . S
C673 H681 0.960 . S
C674 C672 1.381 . S
C674 C675 1.394 . S
C674 H682 0.930 . S
C675 C674 1.394 . S
C675 C676 1.383 . S
C675 H683 0.929 . S
C676 C675 1.383 . S
C676 C677 1.377 . S
C677 H661 0.930 . S
C677 C676 1.377 . S
C677 C678 1.379 . S
C678 H662 0.931 . S
C678 C672 1.383 . S
C678 C677 1.379 . S
H679 C673 0.959 . S
H680 C673 0.961 . S
H681 C673 0.960 . S
H682 C674 0.930 . S
H683 C675 0.929 . S
H684 C692 0.929 . S
H685 C694 0.930 . S
H686 C696 0.930 . S
H687 C699 0.929 . S
H688 C702 0.930 . S
H689 C704 0.960 . S
H690 C704 0.960 . S
H691 C704 0.960 . S
C692 H684 0.929 . S
C692 C693 1.377 . S
C692 C694 1.384 . S
C693 C692 1.377 . S
C693 C699 1.390 . S
C694 H685 0.930 . S
C694 C692 1.384 . S
C694 C695 1.372 . S
C695 C694 1.372 . S
C695 C696 1.400 . S
C695 C700 1.490 . S
C696 H686 0.930 . S
C696 C695 1.400 . S
C696 C699 1.386 . S
H697 C713 0.930 . S
H698 C714 0.931 . S
C699 H687 0.929 . S
C699 C693 1.390 . S
C699 C696 1.386 . S
C700 C695 1.490 . S
C700 C702 1.395 . S
C700 C703 1.434 . S
H701 C707 0.930 . S
C702 H688 0.930 . S
C702 C700 1.395 . S
C702 C705 1.403 . S
C703 C700 1.434 . S
C703 C704 1.515 1_455 S
C703 C707 1.376 1_455 S
C704 H689 0.960 . S
C704 H690 0.960 . S
C704 H691 0.960 . S
C704 C703 1.515 1_655 S
C705 C702 1.403 . S
C705 C706 1.392 1_455 S
C705 C709 1.495 . S
C706 C705 1.392 1_655 S
C706 C707 1.385 . S
C706 C708 1.478 . S
C707 H701 0.930 . S
C707 C703 1.376 1_655 S
C707 C706 1.385 . S
C708 C706 1.478 . S
C708 C710 1.381 . S
C708 C714 1.383 . S
C709 C705 1.495 . S
C709 H715 0.959 . S
C709 H716 0.961 . S
C709 H717 0.960 . S
C710 C708 1.381 . S
C710 C711 1.394 . S
C710 H718 0.930 . S
C711 C710 1.394 . S
C711 C712 1.383 . S
C711 H719 0.929 . S
C712 C711 1.383 . S
C712 C713 1.377 . S
C713 H697 0.930 . S
C713 C712 1.377 . S
C713 C714 1.379 . S
C714 H698 0.931 . S
C714 C708 1.383 . S
C714 C713 1.379 . S
H715 C709 0.959 . S
H716 C709 0.961 . S
H717 C709 0.960 . S
H718 C710 0.930 . S
H719 C711 0.929 . S
H720 C728 0.929 . S
H721 C730 0.932 . S
H722 C732 0.930 . S
H723 C735 0.929 . S
H724 C738 0.930 . S
H725 C740 0.960 . S
H726 C740 0.941 1_554 S
H727 C740 0.960 . S
C728 H720 0.929 . S
C728 C729 1.377 . S
C728 C730 1.384 . S
C729 C728 1.377 . S
C729 C735 1.390 . S
C730 H721 0.932 . S
C730 C728 1.384 . S
C730 C731 1.372 . S
C731 C730 1.372 . S
C731 C732 1.400 . S
C731 C736 1.490 . S
C732 H722 0.930 . S
C732 C731 1.400 . S
C732 C735 1.386 . S
H733 C749 0.930 . S
H734 C750 0.931 . S
C735 H723 0.929 . S
C735 C729 1.390 . S
C735 C732 1.386 . S
C736 C731 1.490 . S
C736 C738 1.395 . S
C736 C739 1.403 . S
H737 C743 0.929 . S
C738 H724 0.930 . S
C738 C736 1.395 . S
C738 C741 1.403 . S
C739 C736 1.403 . S
C739 C740 1.524 . S
C739 C743 1.400 . S
C740 H725 0.960 . S
C740 H726 0.941 1_556 S
C740 H727 0.960 . S
C740 C739 1.524 . S
C741 C738 1.403 . S
C741 C742 1.392 . S
C741 C745 1.495 . S
C742 C741 1.392 . S
C742 C743 1.385 . S
C742 C744 1.478 1_556 S
C743 H737 0.929 . S
C743 C739 1.400 . S
C743 C742 1.385 . S
C744 C742 1.478 1_554 S
C744 C746 1.381 . S
C744 C750 1.383 1_554 S
C745 C741 1.495 . S
C745 H751 0.959 . S
C745 H752 0.961 . S
C745 H753 0.960 1_556 S
C746 C744 1.381 . S
C746 C747 1.394 . S
C746 H754 0.930 . S
C747 C746 1.394 . S
C747 C748 1.383 . S
C747 H755 0.929 . S
C748 C747 1.383 . S
C748 C749 1.377 1_554 S
C749 H733 0.930 . S
C749 C748 1.377 1_556 S
C749 C750 1.379 . S
C750 H734 0.931 . S
C750 C744 1.383 1_556 S
C750 C749 1.379 . S
H751 C745 0.959 . S
H752 C745 0.961 . S
H753 C745 0.960 1_554 S
H754 C746 0.930 . S
H755 C747 0.929 . S
H756 C764 0.929 . S
H757 C766 0.930 . S
H758 C768 0.930 . S
H759 C771 0.929 . S
H760 C774 0.930 . S
H761 C776 0.960 . S
H762 C776 0.960 . S
H763 C776 0.960 . S
C764 H756 0.929 . S
C764 C765 1.377 . S
C764 C766 1.384 . S
C765 C764 1.377 . S
C765 C771 1.390 . S
C766 H757 0.930 . S
C766 C764 1.384 . S
C766 C767 1.372 . S
C767 C766 1.372 . S
C767 C768 1.400 . S
C767 C772 1.490 . S
C768 H758 0.930 . S
C768 C767 1.400 . S
C768 C771 1.386 . S
H769 C785 0.930 . S
H770 C786 0.931 . S
C771 H759 0.929 . S
C771 C765 1.390 . S
C771 C768 1.386 . S
C772 C767 1.490 . S
C772 C774 1.395 . S
C772 C775 1.403 . S
H773 C779 0.930 . S
C774 H760 0.930 . S
C774 C772 1.395 . S
C774 C777 1.403 . S
C775 C772 1.403 . S
C775 C776 1.524 . S
C775 C779 1.400 . S
C776 H761 0.960 . S
C776 H762 0.960 . S
C776 H763 0.960 . S
C776 C775 1.524 . S
C777 C774 1.403 . S
C777 C778 1.392 . S
C777 C781 1.495 . S
C778 C777 1.392 . S
C778 C779 1.385 . S
C778 C780 1.478 . S
C779 H773 0.930 . S
C779 C775 1.400 . S
C779 C778 1.385 . S
C780 C778 1.478 . S
C780 C782 1.381 . S
C780 C786 1.383 . S
C781 C777 1.495 . S
C781 H787 0.959 . S
C781 H788 0.961 . S
C781 H789 0.960 . S
C782 C780 1.381 . S
C782 C783 1.394 . S
C782 H790 0.930 . S
C783 C782 1.394 . S
C783 C784 1.383 . S
C783 H791 0.929 . S
C784 C783 1.383 . S
C784 C785 1.377 . S
C785 H769 0.930 . S
C785 C784 1.377 . S
C785 C786 1.379 . S
C786 H770 0.931 . S
C786 C780 1.383 . S
C786 C785 1.379 . S
H787 C781 0.959 . S
H788 C781 0.961 . S
H789 C781 0.960 . S
H790 C782 0.930 . S
H791 C783 0.929 . S
H792 C800 0.929 . S
H793 C802 0.930 . S
H794 C804 0.930 . S
H795 C807 0.929 . S
H796 C810 0.930 . S
H797 C812 0.960 . S
H798 C812 0.960 . S
H799 C812 0.960 . S
C800 H792 0.929 . S
C800 C801 1.377 . S
C800 C802 1.384 . S
C801 C800 1.377 . S
C801 C807 1.390 . S
C802 H793 0.930 . S
C802 C800 1.384 . S
C802 C803 1.372 . S
C803 C802 1.372 . S
C803 C804 1.400 . S
C803 C808 1.490 . S
C804 H794 0.930 . S
C804 C803 1.400 . S
C804 C807 1.386 . S
H805 C821 0.930 . S
H806 C822 0.931 . S
C807 H795 0.929 . S
C807 C801 1.390 . S
C807 C804 1.386 . S
C808 C803 1.490 . S
C808 C810 1.395 . S
C808 C811 1.403 . S
H809 C815 0.930 . S
C810 H796 0.930 . S
C810 C808 1.395 . S
C810 C813 1.403 . S
C811 C808 1.403 . S
C811 C812 1.524 . S
C811 C815 1.400 . S
C812 H797 0.960 . S
C812 H798 0.960 . S
C812 H799 0.960 . S
C812 C811 1.524 . S
C813 C810 1.403 . S
C813 C814 1.392 . S
C813 C817 1.495 . S
C814 C813 1.392 . S
C814 C815 1.385 . S
C814 C816 1.478 . S
C815 H809 0.930 . S
C815 C811 1.400 . S
C815 C814 1.385 . S
C816 C814 1.478 . S
C816 C818 1.381 . S
C816 C822 1.383 . S
C817 C813 1.495 . S
C817 H823 0.959 . S
C817 H824 0.961 . S
C817 H825 0.960 . S
C818 C816 1.381 . S
C818 C819 1.403 . S
C818 H826 0.930 . S
C819 C818 1.403 . S
C819 C820 1.387 . S
C819 H827 0.916 1_545 S
C820 C819 1.387 . S
C820 C821 1.377 . S
C821 H805 0.930 . S
C821 C820 1.377 . S
C821 C822 1.379 . S
C822 H806 0.931 . S
C822 C816 1.383 . S
C822 C821 1.379 . S
H823 C817 0.959 . S
H824 C817 0.961 . S
H825 C817 0.960 . S
H826 C818 0.930 . S
H827 C819 0.916 1_565 S
H828 C836 0.929 . S
H829 C838 0.930 . S
H830 C840 0.930 . S
H831 C843 0.929 . S
H832 C846 0.930 . S
H833 C848 0.960 . S
H834 C848 0.960 . S
H835 C848 0.960 . S
C836 H828 0.929 . S
C836 C837 1.377 . S
C836 C838 1.384 . S
C837 C836 1.377 . S
C837 C843 1.390 . S
C838 H829 0.930 . S
C838 C836 1.384 . S
C838 C839 1.372 . S
C839 C838 1.372 . S
C839 C840 1.400 . S
C839 C844 1.490 . S
C840 H830 0.930 . S
C840 C839 1.400 . S
C840 C843 1.386 . S
H841 C857 0.930 . S
H842 C858 0.931 . S
C843 H831 0.929 . S
C843 C837 1.390 . S
C843 C840 1.386 . S
C844 C839 1.490 . S
C844 C846 1.395 . S
C844 C847 1.403 . S
H845 C851 0.930 . S
C846 H832 0.930 . S
C846 C844 1.395 . S
C846 C849 1.403 . S
C847 C844 1.403 . S
C847 C848 1.524 . S
C847 C851 1.400 . S
C848 H833 0.960 . S
C848 H834 0.960 . S
C848 H835 0.960 . S
C848 C847 1.524 . S
C849 C846 1.403 . S
C849 C850 1.392 . S
C849 C853 1.495 . S
C850 C849 1.392 . S
C850 C851 1.385 . S
C850 C852 1.478 . S
C851 H845 0.930 . S
C851 C847 1.400 . S
C851 C850 1.385 . S
C852 C850 1.478 . S
C852 C854 1.381 . S
C852 C858 1.383 . S
C853 C849 1.495 . S
C853 H859 0.959 . S
C853 H860 0.961 . S
C853 H861 0.960 . S
C854 C852 1.381 . S
C854 C855 1.394 . S
C854 H862 0.930 . S
C855 C854 1.394 . S
C855 C856 1.383 . S
C855 H863 0.929 . S
C856 C855 1.383 . S
C856 C857 1.377 . S
C857 H841 0.930 . S
C857 C856 1.377 . S
C857 C858 1.379 . S
C858 H842 0.931 . S
C858 C852 1.383 . S
C858 C857 1.379 . S
H859 C853 0.959 . S
H860 C853 0.961 . S
H861 C853 0.960 . S
H862 C854 0.930 . S
H863 C855 0.929 . S
H864 C872 0.929 . S
H865 C874 0.930 . S
H866 C876 0.930 . S
H867 C879 0.929 . S
H868 C882 0.930 . S
H869 C884 0.960 . S
H870 C884 0.960 . S
H871 C884 0.960 . S
C872 H864 0.929 . S
C872 C873 1.377 . S
C872 C874 1.384 . S
C873 C872 1.377 . S
C873 C879 1.390 . S
C874 H865 0.930 . S
C874 C872 1.384 . S
C874 C875 1.372 . S
C875 C874 1.372 . S
C875 C876 1.400 . S
C875 C880 1.490 . S
C876 H866 0.930 . S
C876 C875 1.400 . S
C876 C879 1.386 . S
H877 C893 0.930 . S
H878 C894 0.931 . S
C879 H867 0.929 . S
C879 C873 1.390 . S
C879 C876 1.386 . S
C880 C875 1.490 . S
C880 C882 1.395 . S
C880 C883 1.403 . S
H881 C887 0.930 . S
C882 H868 0.930 . S
C882 C880 1.395 . S
C882 C885 1.403 . S
C883 C880 1.403 . S
C883 C884 1.524 . S
C883 C887 1.400 . S
C884 H869 0.960 . S
C884 H870 0.960 . S
C884 H871 0.960 . S
C884 C883 1.524 . S
C885 C882 1.403 . S
C885 C886 1.392 . S
C885 C889 1.495 . S
C886 C885 1.392 . S
C886 C887 1.385 . S
C886 C888 1.478 . S
C887 H881 0.930 . S
C887 C883 1.400 . S
C887 C886 1.385 . S
C888 C886 1.478 . S
C888 C890 1.381 1_556 S
C888 C894 1.383 . S
C889 C885 1.495 . S
C889 H895 0.959 . S
C889 H896 0.961 . S
C889 H897 0.960 . S
C890 C888 1.381 1_554 S
C890 C891 1.394 . S
C890 H898 0.930 . S
C891 C890 1.394 . S
C891 C892 1.383 . S
C891 H899 0.929 . S
C892 C891 1.383 . S
C892 C893 1.377 . S
C893 H877 0.930 . S
C893 C892 1.377 . S
C893 C894 1.379 1_554 S
C894 H878 0.931 . S
C894 C888 1.383 . S
C894 C893 1.379 1_556 S
H895 C889 0.959 . S
H896 C889 0.961 . S
H897 C889 0.960 . S
H898 C890 0.930 . S
H899 C891 0.929 . S
H900 C908 0.929 . S
H901 C910 0.930 . S
H902 C912 0.930 . S
H903 C915 0.929 . S
H904 C918 0.930 . S
H905 C920 0.960 . S
H906 C920 0.960 . S
H907 C920 0.960 . S
C908 H900 0.929 . S
C908 C909 1.377 . S
C908 C910 1.384 . S
C909 C908 1.377 . S
C909 C915 1.390 . S
C910 H901 0.930 . S
C910 C908 1.384 . S
C910 C911 1.372 . S
C911 C910 1.372 . S
C911 C912 1.400 . S
C911 C916 1.490 . S
C912 H902 0.930 . S
C912 C911 1.400 . S
C912 C915 1.386 . S
H913 C929 0.930 . S
H914 C930 0.931 . S
C915 H903 0.929 . S
C915 C909 1.390 . S
C915 C912 1.386 . S
C916 C911 1.490 . S
C916 C918 1.395 . S
C916 C919 1.403 . S
H917 C923 0.930 . S
C918 H904 0.930 . S
C918 C916 1.395 . S
C918 C921 1.403 . S
C919 C916 1.403 . S
C919 C920 1.524 . S
C919 C923 1.400 . S
C920 H905 0.960 . S
C920 H906 0.960 . S
C920 H907 0.960 . S
C920 C919 1.524 . S
C921 C918 1.403 . S
C921 C922 1.392 . S
C921 C925 1.495 . S
C922 C921 1.392 . S
C922 C923 1.385 . S
C922 C924 1.478 . S
C923 H917 0.930 . S
C923 C919 1.400 . S
C923 C922 1.385 . S
C924 C922 1.478 . S
C924 C926 1.381 . S
C924 C930 1.383 . S
C925 C921 1.495 . S
C925 H931 0.959 . S
C925 H932 0.961 . S
C925 H933 0.960 . S
C926 C924 1.381 . S
C926 C927 1.394 . S
C926 H934 0.930 . S
C927 C926 1.394 . S
C927 C928 1.383 . S
C927 H935 0.929 . S
C928 C927 1.383 . S
C928 C929 1.377 . S
C929 H913 0.930 . S
C929 C928 1.377 . S
C929 C930 1.379 . S
C930 H914 0.931 . S
C930 C924 1.383 . S
C930 C929 1.379 . S
H931 C925 0.959 . S
H932 C925 0.961 . S
H933 C925 0.960 . S
H934 C926 0.930 . S
H935 C927 0.929 . S
H936 C944 0.929 . S
H937 C946 0.930 . S
H938 C948 0.930 . S
H939 C951 0.929 . S
H940 C954 0.930 . S
H941 C956 0.960 . S
H942 C956 0.960 . S
H943 C956 0.960 . S
C944 H936 0.929 . S
C944 C945 1.377 . S
C944 C946 1.384 . S
C945 C944 1.377 . S
C945 C951 1.390 . S
C946 H937 0.930 . S
C946 C944 1.384 . S
C946 C947 1.372 . S
C947 C946 1.372 . S
C947 C948 1.400 . S
C947 C952 1.490 . S
C948 H938 0.930 . S
C948 C947 1.400 . S
C948 C951 1.386 . S
H949 C965 0.930 . S
H950 C966 0.931 . S
C951 H939 0.929 . S
C951 C945 1.390 . S
C951 C948 1.386 . S
C952 C947 1.490 . S
C952 C954 1.395 . S
C952 C955 1.403 . S
H953 C959 0.930 . S
C954 H940 0.930 . S
C954 C952 1.395 . S
C954 C957 1.403 . S
C955 C952 1.403 . S
C955 C956 1.524 . S
C955 C959 1.400 . S
C956 H941 0.960 . S
C956 H942 0.960 . S
C956 H943 0.960 . S
C956 C955 1.524 . S
C957 C954 1.403 . S
C957 C958 1.392 . S
C957 C961 1.495 . S
C958 C957 1.392 . S
C958 C959 1.385 . S
C958 C960 1.478 . S
C959 H953 0.930 . S
C959 C955 1.400 . S
C959 C958 1.385 . S
C960 C958 1.478 . S
C960 C962 1.381 . S
C960 C966 1.383 . S
C961 C957 1.495 . S
C961 H967 0.959 . S
C961 H968 0.961 . S
C961 H969 0.960 . S
C962 C960 1.381 . S
C962 C963 1.394 . S
C962 H970 0.930 . S
C963 C962 1.394 . S
C963 C964 1.383 . S
C963 H971 0.929 . S
C964 C963 1.383 . S
C964 C965 1.377 . S
C965 H949 0.930 . S
C965 C964 1.377 . S
C965 C966 1.379 . S
C966 H950 0.931 . S
C966 C960 1.383 . S
C966 C965 1.379 . S
H967 C961 0.959 . S
H968 C961 0.961 . S
H969 C961 0.960 . S
H970 C962 0.930 . S
H971 C963 0.929 . S
H972 C980 0.929 . S
H973 C982 0.930 . S
H974 C984 0.930 . S
H975 C987 0.929 . S
H976 C990 0.930 . S
H977 C992 0.960 . S
H978 C992 0.960 . S
H979 C992 0.960 . S
C980 H972 0.929 . S
C980 C981 1.377 . S
C980 C982 1.384 . S
C981 C980 1.377 . S
C981 C987 1.390 . S
C982 H973 0.930 . S
C982 C980 1.384 . S
C982 C983 1.372 . S
C983 C982 1.372 . S
C983 C984 1.400 . S
C983 C988 1.490 . S
C984 H974 0.930 . S
C984 C983 1.400 . S
C984 C987 1.386 . S
H985 C1001 0.930 . S
H986 C1002 0.931 . S
C987 H975 0.929 . S
C987 C981 1.390 . S
C987 C984 1.386 . S
C988 C983 1.490 . S
C988 C990 1.395 . S
C988 C991 1.403 . S
H989 C995 0.930 . S
C990 H976 0.930 . S
C990 C988 1.395 . S
C990 C993 1.403 . S
C991 C988 1.403 . S
C991 C992 1.524 . S
C991 C995 1.400 . S
C992 H977 0.960 . S
C992 H978 0.960 . S
C992 H979 0.960 . S
C992 C991 1.524 . S
C993 C990 1.403 . S
C993 C994 1.392 . S
C993 C997 1.495 . S
C994 C993 1.392 . S
C994 C995 1.385 . S
C994 C996 1.478 . S
C995 H989 0.930 . S
C995 C991 1.400 . S
C995 C994 1.385 . S
C996 C994 1.478 . S
C996 C998 1.381 . S
C996 C1002 1.383 . S
C997 C993 1.495 . S
C997 H1003 0.959 . S
C997 H1004 0.961 . S
C997 H1005 0.960 . S
C998 C996 1.381 . S
C998 C999 1.394 . S
C998 H1006 0.930 . S
C999 C998 1.394 . S
C999 C1000 1.383 . S
C999 H1007 0.929 . S
C1000 C999 1.383 . S
C1000 C1001 1.377 . S
C1001 H985 0.930 . S
C1001 C1000 1.377 . S
C1001 C1002 1.379 . S
C1002 H986 0.931 . S
C1002 C996 1.383 . S
C1002 C1001 1.379 . S
H1003 C997 0.959 . S
H1004 C997 0.961 . S
H1005 C997 0.960 . S
H1006 C998 0.930 . S
H1007 C999 0.929 . S
H1008 C1016 0.929 . S
H1009 C1018 0.930 . S
H1010 C1020 0.930 . S
H1011 C1023 0.929 . S
H1012 C1026 0.930 . S
H1013 C1028 0.960 . S
H1014 C1028 0.960 . S
H1015 C1028 0.960 . S
C1016 H1008 0.929 . S
C1016 C1017 1.377 . S
C1016 C1018 1.384 . S
C1017 C1016 1.377 . S
C1017 C1023 1.390 . S
C1018 H1009 0.930 . S
C1018 C1016 1.384 . S
C1018 C1019 1.372 . S
C1019 C1018 1.372 . S
C1019 C1020 1.400 . S
C1019 C1024 1.490 . S
C1020 H1010 0.930 . S
C1020 C1019 1.400 . S
C1020 C1023 1.386 . S
H1021 C1037 0.930 . S
H1022 C1038 0.931 . S
C1023 H1011 0.929 . S
C1023 C1017 1.390 . S
C1023 C1020 1.386 . S
C1024 C1019 1.490 . S
C1024 C1026 1.395 . S
C1024 C1027 1.403 . S
H1025 C1031 0.930 . S
C1026 H1012 0.930 . S
C1026 C1024 1.395 . S
C1026 C1029 1.403 . S
C1027 C1024 1.403 . S
C1027 C1028 1.524 . S
C1027 C1031 1.400 . S
C1028 H1013 0.960 . S
C1028 H1014 0.960 . S
C1028 H1015 0.960 . S
C1028 C1027 1.524 . S
C1029 C1026 1.403 . S
C1029 C1030 1.392 . S
C1029 C1033 1.495 . S
C1030 C1029 1.392 . S
C1030 C1031 1.385 . S
C1030 C1032 1.478 . S
C1031 H1025 0.930 . S
C1031 C1027 1.400 . S
C1031 C1030 1.385 . S
C1032 C1030 1.478 . S
C1032 C1034 1.381 . S
C1032 C1038 1.383 . S
C1033 C1029 1.495 . S
C1033 H1039 0.959 . S
C1033 H1040 0.961 . S
C1033 H1041 0.960 . S
C1034 C1032 1.381 . S
C1034 C1035 1.394 . S
C1034 H1042 0.930 . S
C1035 C1034 1.394 . S
C1035 C1036 1.383 . S
C1035 H1043 0.929 . S
C1036 C1035 1.383 . S
C1036 C1037 1.377 . S
C1037 H1021 0.930 . S
C1037 C1036 1.377 . S
C1037 C1038 1.379 . S
C1038 H1022 0.931 . S
C1038 C1032 1.383 . S
C1038 C1037 1.379 . S
H1039 C1033 0.959 . S
H1040 C1033 0.961 . S
H1041 C1033 0.960 . S
H1042 C1034 0.930 . S
H1043 C1035 0.929 . S
H1044 C1052 0.929 . S
H1045 C1054 0.930 . S
H1046 C1056 0.930 . S
H1047 C1059 0.929 . S
H1048 C1062 0.930 . S
H1049 C1064 0.960 . S
H1050 C1064 0.960 . S
H1051 C1064 0.960 . S
C1052 H1044 0.929 . S
C1052 C1053 1.377 . S
C1052 C1054 1.384 . S
C1053 C1052 1.377 . S
C1053 C1059 1.390 . S
C1054 H1045 0.930 . S
C1054 C1052 1.384 . S
C1054 C1055 1.372 . S
C1055 C1054 1.372 . S
C1055 C1056 1.400 . S
C1055 C1060 1.490 . S
C1056 H1046 0.930 . S
C1056 C1055 1.400 . S
C1056 C1059 1.386 . S
H1057 C1073 0.930 . S
H1058 C1074 0.931 . S
C1059 H1047 0.929 . S
C1059 C1053 1.390 . S
C1059 C1056 1.386 . S
C1060 C1055 1.490 . S
C1060 C1062 1.395 . S
C1060 C1063 1.403 . S
H1061 C1067 0.930 . S
C1062 H1048 0.930 . S
C1062 C1060 1.395 . S
C1062 C1065 1.403 . S
C1063 C1060 1.403 . S
C1063 C1064 1.524 . S
C1063 C1067 1.400 . S
C1064 H1049 0.960 . S
C1064 H1050 0.960 . S
C1064 H1051 0.960 . S
C1064 C1063 1.524 . S
C1065 C1062 1.403 . S
C1065 C1066 1.392 . S
C1065 C1069 1.495 . S
C1066 C1065 1.392 . S
C1066 C1067 1.385 . S
C1066 C1068 1.478 . S
C1067 H1061 0.930 . S
C1067 C1063 1.400 . S
C1067 C1066 1.385 . S
C1068 C1066 1.478 . S
C1068 C1070 1.381 . S
C1068 C1074 1.383 . S
C1069 C1065 1.495 . S
C1069 H1075 0.959 . S
C1069 H1076 0.961 . S
C1069 H1077 0.960 . S
C1070 C1068 1.381 . S
C1070 C1071 1.394 . S
C1070 H1078 0.930 . S
C1071 C1070 1.394 . S
C1071 C1072 1.383 . S
C1071 H1079 0.929 . S
C1072 C1071 1.383 . S
C1072 C1073 1.377 . S
C1073 H1057 0.930 . S
C1073 C1072 1.377 . S
C1073 C1074 1.379 . S
C1074 H1058 0.931 . S
C1074 C1068 1.383 . S
C1074 C1073 1.379 . S
H1075 C1069 0.959 . S
H1076 C1069 0.961 . S
H1077 C1069 0.960 . S
H1078 C1070 0.930 . S
H1079 C1071 0.929 . S
H1080 C1088 0.929 . S
H1081 C1090 0.930 . S
H1082 C1092 0.930 . S
H1083 C1095 0.929 . S
H1084 C1098 0.930 . S
H1085 C1100 0.960 . S
H1086 C1100 0.960 . S
H1087 C1100 0.960 . S
C1088 H1080 0.929 . S
C1088 C1089 1.377 . S
C1088 C1090 1.384 . S
C1089 C1088 1.377 . S
C1089 C1095 1.390 . S
C1090 H1081 0.930 . S
C1090 C1088 1.384 . S
C1090 C1091 1.372 . S
C1091 C1090 1.372 . S
C1091 C1092 1.400 . S
C1091 C1096 1.490 . S
C1092 H1082 0.930 . S
C1092 C1091 1.400 . S
C1092 C1095 1.386 . S
H1093 C1109 0.930 . S
H1094 C1110 0.931 . S
C1095 H1083 0.929 . S
C1095 C1089 1.390 . S
C1095 C1092 1.386 . S
C1096 C1091 1.490 . S
C1096 C1098 1.395 . S
C1096 C1099 1.403 . S
H1097 C1103 0.930 . S
C1098 H1084 0.930 . S
C1098 C1096 1.395 . S
C1098 C1101 1.403 . S
C1099 C1096 1.403 . S
C1099 C1100 1.524 . S
C1099 C1103 1.400 . S
C1100 H1085 0.960 . S
C1100 H1086 0.960 . S
C1100 H1087 0.960 . S
C1100 C1099 1.524 . S
C1101 C1098 1.403 . S
C1101 C1102 1.392 . S
C1101 C1105 1.495 . S
C1102 C1101 1.392 . S
C1102 C1103 1.385 . S
C1102 C1104 1.478 . S
C1103 H1097 0.930 . S
C1103 C1099 1.400 . S
C1103 C1102 1.385 . S
C1104 C1102 1.478 . S
C1104 C1106 1.381 . S
C1104 C1110 1.383 . S
C1105 C1101 1.495 . S
C1105 H1111 0.959 . S
C1105 H1112 0.961 . S
C1105 H1113 0.960 . S
C1106 C1104 1.381 . S
C1106 C1107 1.394 . S
C1106 H1114 0.930 . S
C1107 C1106 1.394 . S
C1107 C1108 1.383 . S
C1107 H1115 0.929 . S
C1108 C1107 1.383 . S
C1108 C1109 1.377 . S
C1109 H1093 0.930 . S
C1109 C1108 1.377 . S
C1109 C1110 1.379 . S
C1110 H1094 0.931 . S
C1110 C1104 1.383 . S
C1110 C1109 1.379 . S
H1111 C1105 0.959 . S
H1112 C1105 0.961 . S
H1113 C1105 0.960 . S
H1114 C1106 0.930 . S
H1115 C1107 0.929 . S
H1116 C1124 0.929 . S
H1117 C1126 0.930 . S
H1118 C1128 0.930 . S
H1119 C1131 0.929 . S
H1120 C1134 0.930 . S
H1121 C1136 0.960 . S
H1122 C1136 0.960 . S
H1123 C1136 0.960 . S
C1124 H1116 0.929 . S
C1124 C1125 1.377 . S
C1124 C1126 1.384 . S
C1125 C1124 1.377 . S
C1125 C1131 1.390 . S
C1126 H1117 0.930 . S
C1126 C1124 1.384 . S
C1126 C1127 1.372 . S
C1127 C1126 1.372 . S
C1127 C1128 1.400 . S
C1127 C1132 1.490 . S
C1128 H1118 0.930 . S
C1128 C1127 1.400 . S
C1128 C1131 1.386 . S
H1129 C1145 0.930 . S
H1130 C1146 0.931 . S
C1131 H1119 0.929 . S
C1131 C1125 1.390 . S
C1131 C1128 1.386 . S
C1132 C1127 1.490 . S
C1132 C1134 1.395 . S
C1132 C1135 1.403 . S
H1133 C1139 0.930 . S
C1134 H1120 0.930 . S
C1134 C1132 1.395 . S
C1134 C1137 1.403 . S
C1135 C1132 1.403 . S
C1135 C1136 1.524 . S
C1135 C1139 1.400 . S
C1136 H1121 0.960 . S
C1136 H1122 0.960 . S
C1136 H1123 0.960 . S
C1136 C1135 1.524 . S
C1137 C1134 1.403 . S
C1137 C1138 1.392 . S
C1137 C1141 1.495 . S
C1138 C1137 1.392 . S
C1138 C1139 1.385 . S
C1138 C1140 1.478 . S
C1139 H1133 0.930 . S
C1139 C1135 1.400 . S
C1139 C1138 1.385 . S
C1140 C1138 1.478 . S
C1140 C1142 1.381 . S
C1140 C1146 1.383 . S
C1141 C1137 1.495 . S
C1141 H1147 0.959 . S
C1141 H1148 0.961 . S
C1141 H1149 0.960 . S
C1142 C1140 1.381 . S
C1142 C1143 1.394 . S
C1142 H1150 0.930 . S
C1143 C1142 1.394 . S
C1143 C1144 1.383 . S
C1143 H1151 0.929 . S
C1144 C1143 1.383 . S
C1144 C1145 1.377 . S
C1145 H1129 0.930 . S
C1145 C1144 1.377 . S
C1145 C1146 1.379 . S
C1146 H1130 0.931 . S
C1146 C1140 1.383 . S
C1146 C1145 1.379 . S
H1147 C1141 0.959 . S
H1148 C1141 0.961 . S
H1149 C1141 0.960 . S
H1150 C1142 0.930 . S
H1151 C1143 0.929 . S
H1152 C1160 0.929 . S
H1153 C1162 0.930 . S
H1154 C1164 0.930 . S
H1155 C1167 0.929 . S
H1156 C1170 0.930 . S
H1157 C1172 0.960 . S
H1158 C1172 0.960 . S
H1159 C1172 0.960 . S
C1160 H1152 0.929 . S
C1160 C1161 1.377 . S
C1160 C1162 1.384 . S
C1161 C1160 1.377 . S
C1161 C1167 1.390 . S
C1162 H1153 0.930 . S
C1162 C1160 1.384 . S
C1162 C1163 1.372 . S
C1163 C1162 1.372 . S
C1163 C1164 1.400 . S
C1163 C1168 1.490 . S
C1164 H1154 0.930 . S
C1164 C1163 1.400 . S
C1164 C1167 1.386 . S
H1165 C1181 0.930 . S
H1166 C1182 0.931 . S
C1167 H1155 0.929 . S
C1167 C1161 1.390 . S
C1167 C1164 1.386 . S
C1168 C1163 1.490 . S
C1168 C1170 1.395 . S
C1168 C1171 1.403 . S
H1169 C1175 0.930 . S
C1170 H1156 0.930 . S
C1170 C1168 1.395 . S
C1170 C1173 1.403 . S
C1171 C1168 1.403 . S
C1171 C1172 1.524 . S
C1171 C1175 1.400 . S
C1172 H1157 0.960 . S
C1172 H1158 0.960 . S
C1172 H1159 0.960 . S
C1172 C1171 1.524 . S
C1173 C1170 1.403 . S
C1173 C1174 1.392 . S
C1173 C1177 1.495 . S
C1174 C1173 1.392 . S
C1174 C1175 1.385 . S
C1174 C1176 1.478 . S
C1175 H1169 0.930 . S
C1175 C1171 1.400 . S
C1175 C1174 1.385 . S
C1176 C1174 1.478 . S
C1176 C1178 1.381 . S
C1176 C1182 1.383 . S
C1177 C1173 1.495 . S
C1177 H1183 0.959 . S
C1177 H1184 0.961 . S
C1177 H1185 0.960 . S
C1178 C1176 1.381 . S
C1178 C1179 1.394 . S
C1178 H1186 0.930 . S
C1179 C1178 1.394 . S
C1179 C1180 1.383 . S
C1179 H1187 0.929 . S
C1180 C1179 1.383 . S
C1180 C1181 1.377 . S
C1181 H1165 0.930 . S
C1181 C1180 1.377 . S
C1181 C1182 1.379 . S
C1182 H1166 0.931 . S
C1182 C1176 1.383 . S
C1182 C1181 1.379 . S
H1183 C1177 0.959 . S
H1184 C1177 0.961 . S
H1185 C1177 0.960 . S
H1186 C1178 0.930 . S
H1187 C1179 0.929 . S
H1188 C1196 0.929 . S
H1189 C1198 0.930 . S
H1190 C1200 0.930 . S
H1191 C1203 0.929 . S
H1192 C1206 0.930 . S
H1193 C1208 0.960 . S
H1194 C1208 0.960 . S
H1195 C1208 0.960 . S
C1196 H1188 0.929 . S
C1196 C1197 1.377 . S
C1196 C1198 1.384 1_455 S
C1197 C1196 1.377 . S
C1197 C1203 1.390 1_455 S
C1198 H1189 0.930 . S
C1198 C1196 1.384 1_655 S
C1198 C1199 1.372 . S
C1199 C1198 1.372 . S
C1199 C1200 1.400 . S
C1199 C1204 1.490 . S
C1200 H1190 0.930 . S
C1200 C1199 1.400 . S
C1200 C1203 1.386 . S
H1201 C1217 0.930 . S
H1202 C1218 0.931 . S
C1203 H1191 0.929 . S
C1203 C1197 1.390 1_655 S
C1203 C1200 1.386 . S
C1204 C1199 1.490 . S
C1204 C1206 1.395 . S
C1204 C1207 1.403 . S
H1205 C1211 0.930 . S
C1206 H1192 0.930 . S
C1206 C1204 1.395 . S
C1206 C1209 1.403 . S
C1207 C1204 1.403 . S
C1207 C1208 1.524 . S
C1207 C1211 1.400 . S
C1208 H1193 0.960 . S
C1208 H1194 0.960 . S
C1208 H1195 0.960 . S
C1208 C1207 1.524 . S
C1209 C1206 1.403 . S
C1209 C1210 1.392 . S
C1209 C1213 1.495 . S
C1210 C1209 1.392 . S
C1210 C1211 1.385 . S
C1210 C1212 1.478 . S
C1211 H1205 0.930 . S
C1211 C1207 1.400 . S
C1211 C1210 1.385 . S
C1212 C1210 1.478 . S
C1212 C1214 1.381 . S
C1212 C1218 1.383 . S
C1213 C1209 1.495 . S
C1213 H1219 0.959 . S
C1213 H1220 0.961 . S
C1213 H1221 0.960 . S
C1214 C1212 1.381 . S
C1214 C1215 1.394 . S
C1214 H1222 0.930 . S
C1215 C1214 1.394 . S
C1215 C1216 1.383 . S
C1215 H1223 0.929 . S
C1216 C1215 1.383 . S
C1216 C1217 1.377 . S
C1217 H1201 0.930 . S
C1217 C1216 1.377 . S
C1217 C1218 1.379 . S
C1218 H1202 0.931 . S
C1218 C1212 1.383 . S
C1218 C1217 1.379 . S
H1219 C1213 0.959 . S
H1220 C1213 0.961 . S
H1221 C1213 0.960 . S
H1222 C1214 0.930 . S
H1223 C1215 0.929 . S
H1224 C1232 0.929 . S
H1225 C1234 0.930 . S
H1226 C1236 0.930 . S
H1227 C1239 0.929 . S
H1228 C1242 0.930 . S
H1229 C1244 0.960 . S
H1230 C1244 0.960 . S
H1231 C1244 0.960 . S
C1232 H1224 0.929 . S
C1232 C1233 1.377 . S
C1232 C1234 1.384 . S
C1233 C1232 1.377 . S
C1233 C1239 1.390 . S
C1234 H1225 0.930 . S
C1234 C1232 1.384 . S
C1234 C1235 1.372 . S
C1235 C1234 1.372 . S
C1235 C1236 1.400 . S
C1235 C1240 1.490 . S
C1236 H1226 0.930 . S
C1236 C1235 1.400 . S
C1236 C1239 1.386 . S
H1237 C1253 0.930 . S
H1238 C1254 0.931 . S
C1239 H1227 0.929 . S
C1239 C1233 1.390 . S
C1239 C1236 1.386 . S
C1240 C1235 1.490 . S
C1240 C1242 1.395 . S
C1240 C1243 1.403 . S
H1241 C1247 0.930 . S
C1242 H1228 0.930 . S
C1242 C1240 1.395 . S
C1242 C1245 1.403 . S
C1243 C1240 1.403 . S
C1243 C1244 1.524 . S
C1243 C1247 1.400 . S
C1244 H1229 0.960 . S
C1244 H1230 0.960 . S
C1244 H1231 0.960 . S
C1244 C1243 1.524 . S
C1245 C1242 1.403 . S
C1245 C1246 1.392 . S
C1245 C1249 1.495 . S
C1246 C1245 1.392 . S
C1246 C1247 1.385 . S
C1246 C1248 1.478 . S
C1247 H1241 0.930 . S
C1247 C1243 1.400 . S
C1247 C1246 1.385 . S
C1248 C1246 1.478 . S
C1248 C1250 1.381 . S
C1248 C1254 1.383 . S
C1249 C1245 1.495 . S
C1249 H1255 0.959 . S
C1249 H1256 0.961 . S
C1249 H1257 0.960 . S
C1250 C1248 1.381 . S
C1250 C1251 1.394 . S
C1250 H1258 0.930 . S
C1251 C1250 1.394 . S
C1251 C1252 1.383 . S
C1251 H1259 0.929 . S
C1252 C1251 1.383 . S
C1252 C1253 1.377 . S
C1253 H1237 0.930 . S
C1253 C1252 1.377 . S
C1253 C1254 1.379 . S
C1254 H1238 0.931 . S
C1254 C1248 1.383 . S
C1254 C1253 1.379 . S
H1255 C1249 0.959 . S
H1256 C1249 0.961 . S
H1257 C1249 0.960 . S
H1258 C1250 0.930 . S
H1259 C1251 0.929 . S
H1260 C1268 0.929 . S
H1261 C1270 0.930 . S
H1262 C1272 0.930 . S
H1263 C1275 0.929 . S
H1264 C1278 0.930 . S
H1265 C1280 0.960 . S
H1266 C1280 0.960 . S
H1267 C1280 0.960 . S
C1268 H1260 0.929 . S
C1268 C1269 1.377 . S
C1268 C1270 1.384 . S
C1269 C1268 1.377 . S
C1269 C1275 1.390 . S
C1270 H1261 0.930 . S
C1270 C1268 1.384 . S
C1270 C1271 1.372 . S
C1271 C1270 1.372 . S
C1271 C1272 1.400 . S
C1271 C1276 1.490 . S
C1272 H1262 0.930 . S
C1272 C1271 1.400 . S
C1272 C1275 1.386 . S
H1273 C1289 0.930 . S
H1274 C1290 0.931 . S
C1275 H1263 0.929 . S
C1275 C1269 1.390 . S
C1275 C1272 1.386 . S
C1276 C1271 1.490 . S
C1276 C1278 1.395 . S
C1276 C1279 1.403 . S
H1277 C1283 0.930 . S
C1278 H1264 0.930 . S
C1278 C1276 1.395 . S
C1278 C1281 1.403 . S
C1279 C1276 1.403 . S
C1279 C1280 1.524 . S
C1279 C1283 1.400 . S
C1280 H1265 0.960 . S
C1280 H1266 0.960 . S
C1280 H1267 0.960 . S
C1280 C1279 1.524 . S
C1281 C1278 1.403 . S
C1281 C1282 1.392 . S
C1281 C1285 1.495 . S
C1282 C1281 1.392 . S
C1282 C1283 1.385 . S
C1282 C1284 1.478 . S
C1283 H1277 0.930 . S
C1283 C1279 1.400 . S
C1283 C1282 1.385 . S
C1284 C1282 1.478 . S
C1284 C1286 1.381 . S
C1284 C1290 1.383 . S
C1285 C1281 1.495 . S
C1285 H1291 0.959 . S
C1285 H1292 0.961 . S
C1285 H1293 0.960 . S
C1286 C1284 1.381 . S
C1286 C1287 1.394 . S
C1286 H1294 0.930 . S
C1287 C1286 1.394 . S
C1287 C1288 1.383 . S
C1287 H1295 0.929 1_455 S
C1288 C1287 1.383 . S
C1288 C1289 1.377 . S
C1289 H1273 0.930 . S
C1289 C1288 1.377 . S
C1289 C1290 1.379 . S
C1290 H1274 0.931 . S
C1290 C1284 1.383 . S
C1290 C1289 1.379 . S
H1291 C1285 0.959 . S
H1292 C1285 0.961 . S
H1293 C1285 0.960 . S
H1294 C1286 0.930 . S
H1295 C1287 0.929 1_655 S
H1296 C1304 0.929 . S
H1297 C1306 0.930 . S
H1298 C1308 0.930 . S
H1299 C1311 0.929 . S
H1300 C1314 0.930 . S
H1301 C1316 0.960 . S
H1302 C1316 0.960 . S
H1303 C1316 0.960 . S
C1304 H1296 0.929 . S
C1304 C1305 1.377 . S
C1304 C1306 1.384 . S
C1305 C1304 1.377 . S
C1305 C1311 1.390 . S
C1306 H1297 0.930 . S
C1306 C1304 1.384 . S
C1306 C1307 1.372 . S
C1307 C1306 1.372 . S
C1307 C1308 1.400 . S
C1307 C1312 1.490 . S
C1308 H1298 0.930 . S
C1308 C1307 1.400 . S
C1308 C1311 1.386 . S
H1309 C1325 0.930 . S
H1310 C1326 0.931 . S
C1311 H1299 0.929 . S
C1311 C1305 1.390 . S
C1311 C1308 1.386 . S
C1312 C1307 1.490 . S
C1312 C1314 1.395 . S
C1312 C1315 1.403 . S
H1313 C1319 0.930 . S
C1314 H1300 0.930 . S
C1314 C1312 1.395 . S
C1314 C1317 1.403 . S
C1315 C1312 1.403 . S
C1315 C1316 1.524 . S
C1315 C1319 1.400 . S
C1316 H1301 0.960 . S
C1316 H1302 0.960 . S
C1316 H1303 0.960 . S
C1316 C1315 1.524 . S
C1317 C1314 1.403 . S
C1317 C1318 1.392 . S
C1317 C1321 1.495 . S
C1318 C1317 1.392 . S
C1318 C1319 1.385 . S
C1318 C1320 1.478 . S
C1319 H1313 0.930 . S
C1319 C1315 1.400 . S
C1319 C1318 1.385 . S
C1320 C1318 1.478 . S
C1320 C1322 1.381 . S
C1320 C1326 1.383 . S
C1321 C1317 1.495 . S
C1321 H1327 0.959 . S
C1321 H1328 0.961 . S
C1321 H1329 0.960 . S
C1322 C1320 1.381 . S
C1322 C1323 1.394 . S
C1322 H1330 0.930 . S
C1323 C1322 1.394 . S
C1323 C1324 1.383 . S
C1323 H1331 0.929 . S
C1324 C1323 1.383 . S
C1324 C1325 1.377 . S
C1325 H1309 0.930 . S
C1325 C1324 1.377 . S
C1325 C1326 1.379 . S
C1326 H1310 0.931 . S
C1326 C1320 1.383 . S
C1326 C1325 1.379 . S
H1327 C1321 0.959 . S
H1328 C1321 0.961 . S
H1329 C1321 0.960 . S
H1330 C1322 0.930 . S
H1331 C1323 0.929 . S
H1332 C1340 0.929 . S
H1333 C1342 0.930 . S
H1334 C1344 0.930 . S
H1335 C1347 0.929 . S
H1336 C1350 0.930 . S
H1337 C1352 0.960 . S
H1338 C1352 0.960 . S
H1339 C1352 0.960 . S
C1340 H1332 0.929 . S
C1340 C1341 1.377 . S
C1340 C1342 1.384 . S
C1341 C1340 1.377 . S
C1341 C1347 1.390 . S
C1342 H1333 0.930 . S
C1342 C1340 1.384 . S
C1342 C1343 1.372 . S
C1343 C1342 1.372 . S
C1343 C1344 1.400 . S
C1343 C1348 1.490 . S
C1344 H1334 0.930 . S
C1344 C1343 1.400 . S
C1344 C1347 1.386 . S
H1345 C1361 0.930 . S
H1346 C1362 0.931 . S
C1347 H1335 0.929 . S
C1347 C1341 1.390 . S
C1347 C1344 1.386 . S
C1348 C1343 1.490 . S
C1348 C1350 1.395 . S
C1348 C1351 1.403 . S
H1349 C1355 0.930 . S
C1350 H1336 0.930 . S
C1350 C1348 1.395 . S
C1350 C1353 1.403 . S
C1351 C1348 1.403 . S
C1351 C1352 1.524 . S
C1351 C1355 1.400 . S
C1352 H1337 0.960 . S
C1352 H1338 0.960 . S
C1352 H1339 0.960 . S
C1352 C1351 1.524 . S
C1353 C1350 1.403 . S
C1353 C1354 1.392 . S
C1353 C1357 1.495 . S
C1354 C1353 1.392 . S
C1354 C1355 1.385 . S
C1354 C1356 1.478 . S
C1355 H1349 0.930 . S
C1355 C1351 1.400 . S
C1355 C1354 1.385 . S
C1356 C1354 1.478 . S
C1356 C1358 1.381 . S
C1356 C1362 1.383 . S
C1357 C1353 1.495 . S
C1357 H1363 0.959 . S
C1357 H1364 0.961 . S
C1357 H1365 0.960 . S
C1358 C1356 1.381 . S
C1358 C1359 1.394 . S
C1358 H1366 0.930 . S
C1359 C1358 1.394 . S
C1359 C1360 1.383 . S
C1359 H1367 0.929 . S
C1360 C1359 1.383 . S
C1360 C1361 1.377 . S
C1361 H1345 0.930 . S
C1361 C1360 1.377 . S
C1361 C1362 1.379 . S
C1362 H1346 0.931 . S
C1362 C1356 1.383 . S
C1362 C1361 1.379 . S
H1363 C1357 0.959 . S
H1364 C1357 0.961 . S
H1365 C1357 0.960 . S
H1366 C1358 0.930 . S
H1367 C1359 0.929 . S
C244 C124 1.245 . S
C225 C5 1.235 . S
C280 C141 1.429 . S
C261 C18 1.458 . S
C316 C155 1.628 . S
C297 C31 1.625 . S
C333 C42 1.381 . S
C352 C113 1.360 . S
C369 C57 0.995 . S
C388 C110 0.931 . S
C405 C70 0.907 . S
C424 C127 0.935 . S
C460 C138 1.399 1_545 S
C441 C81 1.364 . S
C496 C152 1.118 . S
C477 C96 1.153 . S
C513 C29 1.116 . S
C532 C180 1.137 . S
C568 C194 1.373 . S
C549 C44 1.420 . S
C585 C3 0.880 . S
C604 C211 0.895 . S
C640 C166 0.967 . S
C621 C16 0.983 . S
C657 C83 1.351 . S
C676 C169 1.290 . S
C693 C94 1.648 . S
C712 C183 1.568 . S
C748 C197 1.412 . S
C729 C55 1.504 . S
C765 C68 1.214 . S
C784 C208 1.203 . S
C820 C140 1.757 1_545 S
C801 C1 1.750 . S
C856 C154 1.847 . S
C837 C14 1.809 . S
C873 C27 1.725 . S
C892 C112 1.785 . S
C909 C49 1.699 . S
C928 C125 1.612 . S
C945 C53 1.346 . S
C964 C153 1.202 . S
C1000 C111 1.064 . S
C981 C66 1.200 . S
C1036 C126 1.519 . S
C1017 C88 1.560 1_565 S
C1072 C139 1.399 . S
C1053 C92 1.477 . S
C1108 C195 1.370 . S
C1089 C36 1.477 . S
C1144 C210 1.527 . S
C1125 C40 1.563 . S
C1161 C10 1.235 . S
C1180 C167 1.189 . S
C1216 C181 1.228 . S
C1197 C23 1.323 . S
C1252 C209 1.609 . S
C1233 C79 1.627 . S
C1269 C101 1.803 . S
C1288 C168 1.779 . S
C1324 C182 1.867 . S
C1305 C62 1.872 . S
C1360 C196 1.783 . S
C1341 C75 1.796 . S
