# Generated by pormake.
# Topology pyr, (3,6)-cn, num edge types: 1
# Building blocks:
#     Node 0, Type 0, BuildingBlock: OLANEW_clean_sbu_2, # of connection points: 3
#     Node 1, Type 0, BuildingBlock: OLANEW_clean_sbu_2, # of connection points: 3
#     Node 2, Type 0, BuildingBlock: OLANEW_clean_sbu_2, # of connection points: 3
#     Node 3, Type 0, BuildingBlock: OLANEW_clean_sbu_2, # of connection points: 3
#     Node 4, Type 0, BuildingBlock: OLANEW_clean_sbu_2, # of connection points: 3
#     Node 5, Type 0, BuildingBlock: OLANEW_clean_sbu_2, # of connection points: 3
#     Node 6, Type 0, BuildingBlock: OLANEW_clean_sbu_2, # of connection points: 3
#     Node 7, Type 0, BuildingBlock: OLANEW_clean_sbu_2, # of connection points: 3
#     Node 8, Type 1, BuildingBlock: BETDAH_clean_sbu_0, # of connection points: 6
#     Node 9, Type 1, BuildingBlock: BETDAH_clean_sbu_0, # of connection points: 6
#     Node 10, Type 1, BuildingBlock: BETDAH_clean_sbu_0, # of connection points: 6
#     Node 11, Type 1, BuildingBlock: BETDAH_clean_sbu_0, # of connection points: 6
#     Edge 12, Type (0, 1), BuildingBlock: EZIPEK_clean_linker_0, # of connection points: 2
#     Edge 13, Type (0, 1), BuildingBlock: EZIPEK_clean_linker_0, # of connection points: 2
#     Edge 14, Type (0, 1), BuildingBlock: EZIPEK_clean_linker_0, # of connection points: 2
#     Edge 15, Type (0, 1), BuildingBlock: EZIPEK_clean_linker_0, # of connection points: 2
#     Edge 16, Type (0, 1), BuildingBlock: EZIPEK_clean_linker_0, # of connection points: 2
#     Edge 17, Type (0, 1), BuildingBlock: EZIPEK_clean_linker_0, # of connection points: 2
#     Edge 18, Type (0, 1), BuildingBlock: EZIPEK_clean_linker_0, # of connection points: 2
#     Edge 19, Type (0, 1), BuildingBlock: EZIPEK_clean_linker_0, # of connection points: 2
#     Edge 20, Type (0, 1), BuildingBlock: EZIPEK_clean_linker_0, # of connection points: 2
#     Edge 21, Type (0, 1), BuildingBlock: EZIPEK_clean_linker_0, # of connection points: 2
#     Edge 22, Type (0, 1), BuildingBlock: EZIPEK_clean_linker_0, # of connection points: 2
#     Edge 23, Type (0, 1), BuildingBlock: EZIPEK_clean_linker_0, # of connection points: 2
#     Edge 24, Type (0, 1), BuildingBlock: EZIPEK_clean_linker_0, # of connection points: 2
#     Edge 25, Type (0, 1), BuildingBlock: EZIPEK_clean_linker_0, # of connection points: 2
#     Edge 26, Type (0, 1), BuildingBlock: EZIPEK_clean_linker_0, # of connection points: 2
#     Edge 27, Type (0, 1), BuildingBlock: EZIPEK_clean_linker_0, # of connection points: 2
#     Edge 28, Type (0, 1), BuildingBlock: EZIPEK_clean_linker_0, # of connection points: 2
#     Edge 29, Type (0, 1), BuildingBlock: EZIPEK_clean_linker_0, # of connection points: 2
#     Edge 30, Type (0, 1), BuildingBlock: EZIPEK_clean_linker_0, # of connection points: 2
#     Edge 31, Type (0, 1), BuildingBlock: EZIPEK_clean_linker_0, # of connection points: 2
#     Edge 32, Type (0, 1), BuildingBlock: EZIPEK_clean_linker_0, # of connection points: 2
#     Edge 33, Type (0, 1), BuildingBlock: EZIPEK_clean_linker_0, # of connection points: 2
#     Edge 34, Type (0, 1), BuildingBlock: EZIPEK_clean_linker_0, # of connection points: 2
#     Edge 35, Type (0, 1), BuildingBlock: EZIPEK_clean_linker_0, # of connection points: 2
# Relax obj value: 0.186
# Max RMSD: 0.177
# Mean RMSD: 0.124
data_MOF--net-pyr--node1-OLANEW_clean_sbu_2--node2-BETDAH_clean_sbu_0--edge1-EZIPEK_clean_linker_0
_symmetry_space_group_name_H-M    P1
_symmetry_Int_Tables_number       1
_symmetry_cell_setting            triclinic
loop_
_symmetry_equiv_pos_as_xyz
'x, y, z'
_cell_length_a     30.496588
_cell_length_b     34.509759
_cell_length_c     30.394516
_cell_angle_alpha  96.563535
_cell_angle_beta   87.564944
_cell_angle_gamma 104.52408
loop_
_atom_site_label
_atom_site_type_symbol
_atom_site_fract_x
_atom_site_fract_y
_atom_site_fract_z
_atom_type_partial_charge
O0 O 0.4123 0.26641 0.16019 0.0
Cd1 Cd 0.39613 0.33405 0.17557 0.0
O2 O 0.41361 0.26657 0.23205 0.0
Cd3 Cd 0.41254 0.23755 0.29191 0.0
O4 O 0.36197 0.21409 0.34081 0.0
C5 C 0.36028 0.23132 0.37982 0.0
O6 O 0.39311 0.26233 0.39393 0.0
C7 C 0.41803 0.24912 0.19364 0.0
C8 C 0.31208 0.34776 0.15545 0.0
O9 O 0.3462 0.3561 0.12899 0.0
O10 O 0.31699 0.33146 0.19018 0.0
O11 O 0.27184 0.92093 0.70868 0.0
Cd12 Cd 0.2611 0.90005 0.62989 0.0
O13 O 0.24071 0.85941 0.72575 0.0
Cd14 Cd 0.20377 0.84481 0.66371 0.0
O15 O 0.16503 0.87298 0.62428 0.0
C16 C 0.16197 0.90659 0.64429 0.0
O17 O 0.17886 0.91757 0.6841 0.0
C18 C 0.26381 0.89519 0.73669 0.0
C19 C 0.32726 0.8582 0.61469 0.0
O20 O 0.33575 0.89538 0.60802 0.0
O21 O 0.28657 0.83996 0.62422 0.0
O22 O 0.73953 0.44781 0.89659 0.0
Cd23 Cd 0.67203 0.43197 0.84355 0.0
O24 O 0.72949 0.39597 0.93718 0.0
Cd25 Cd 0.68593 0.33477 0.95506 0.0
O26 O 0.63918 0.27386 0.96981 0.0
C27 C 0.64448 0.25279 1.00045 0.0
O28 O 0.67968 0.26615 0.02632 0.0
C29 C 0.75331 0.43025 0.92664 0.0
C30 C 0.64666 0.47934 0.7805 0.0
O31 O 0.62955 0.4784 0.81978 0.0
O32 O 0.67765 0.46037 0.77125 0.0
O33 O 0.94788 0.79198 0.3795 0.0
Cd34 Cd 0.92901 0.71797 0.34824 0.0
O35 O 0.89941 0.78268 0.43619 0.0
Cd36 Cd 0.86043 0.7202 0.42299 0.0
O37 O 0.79379 0.68674 0.44555 0.0
C38 C 0.78919 0.67147 0.48215 0.0
O39 O 0.82536 0.67185 0.50434 0.0
C40 C 0.93075 0.80562 0.4155 0.0
C41 C 0.95144 0.67769 0.26533 0.0
O42 O 0.98152 0.69335 0.29484 0.0
O43 O 0.91185 0.68369 0.27311 0.0
O44 O 0.6676 0.74135 0.75567 0.0
Cd45 Cd 0.63648 0.68513 0.79882 0.0
O46 O 0.66773 0.78311 0.8148 0.0
Cd47 Cd 0.6798 0.83682 0.86334 0.0
O48 O 0.66353 0.88353 0.91155 0.0
C49 C 0.62402 0.88914 0.90985 0.0
O50 O 0.59616 0.868 0.87915 0.0
C51 C 0.67704 0.77746 0.77362 0.0
C52 C 0.70893 0.67216 0.84249 0.0
O53 O 0.69819 0.65449 0.80363 0.0
O54 O 0.6845 0.69473 0.86133 0.0
O55 O 0.762 0.21905 0.47193 0.0
Cd56 Cd 0.80037 0.23738 0.54182 0.0
O57 O 0.8258 0.24435 0.43701 0.0
Cd58 Cd 0.84735 0.28653 0.49539 0.0
O59 O 0.80843 0.33051 0.51678 0.0
C60 C 0.79101 0.34174 0.4847 0.0
O61 O 0.80087 0.32914 0.44393 0.0
C62 C 0.78521 0.223 0.43629 0.0
C63 C 0.84447 0.17729 0.54934 0.0
O64 O 0.80512 0.17547 0.56675 0.0
O65 O 0.86384 0.20804 0.52951 0.0
O66 O 0.44757 0.82918 0.26871 0.0
Cd67 Cd 0.42259 0.76311 0.30963 0.0
O68 O 0.39698 0.8202 0.21462 0.0
Cd69 Cd 0.34475 0.76133 0.2105 0.0
O70 O 0.28132 0.71555 0.1873 0.0
C71 C 0.27473 0.70187 0.14659 0.0
O72 O 0.30682 0.71362 0.11729 0.0
C73 C 0.43172 0.84188 0.2357 0.0
C74 C 0.4555 0.72333 0.37764 0.0
O75 O 0.46333 0.71543 0.33614 0.0
O76 O 0.43517 0.75161 0.38792 0.0
O77 O 0.16724 0.46292 0.7964 0.0
Cd78 Cd 0.20679 0.43582 0.73034 0.0
O79 O 0.11976 0.40684 0.81594 0.0
Cd80 Cd 0.12827 0.35538 0.7674 0.0
O81 O 0.11357 0.29533 0.72652 0.0
C82 C 0.09483 0.26233 0.74243 0.0
O83 O 0.08412 0.26304 0.78478 0.0
C84 C 0.13614 0.445 0.82205 0.0
C85 C 0.28601 0.48187 0.68992 0.0
O86 O 0.24636 0.48285 0.67841 0.0
O87 O 0.28858 0.4612 0.72178 0.0
Ho88 Ho 0.02321 0.05527 0.53596 0.0
Ho89 Ho 0.98243 1.01287 0.61832 0.0
C90 C 0.035 0.10836 0.63206 0.0
C91 C 0.0494 0.10145 0.47424 0.0
C92 C 0.09346 0.12955 0.4685 0.0
C93 C 0.10564 0.14473 0.42773 0.0
C94 C 0.15041 0.16531 0.4197 0.0
C95 C 0.18327 0.17059 0.4523 0.0
C96 C 0.17063 0.15705 0.49382 0.0
C97 C 0.12592 0.13655 0.50185 0.0
C98 C 0.07938 0.02035 0.5762 0.0
C99 C 0.97664 0.96252 0.51996 0.0
C100 C 0.95838 0.96639 0.68071 0.0
C101 C 0.91383 0.94183 0.69312 0.0
C102 C 0.909 0.91993 0.7299 0.0
C103 C 0.8665 0.89611 0.74105 0.0
C104 C 0.82852 0.89411 0.71554 0.0
C105 C 0.83329 0.91648 0.67915 0.0
C106 C 0.87569 0.94015 0.66797 0.0
C107 C 0.92544 0.04882 0.58248 0.0
O108 O 0.03826 0.10783 0.58857 0.0
O109 O 0.01957 0.07465 0.65142 0.0
O110 O 0.05112 0.06376 0.47045 0.0
O111 O 0.02488 0.11078 0.50837 0.0
O112 O 0.07974 0.02373 0.53419 0.0
O113 O 0.05129 0.03819 0.59477 0.0
O114 O 0.981 0.96179 0.56311 0.0
O115 O 0.98211 0.99684 0.50258 0.0
O116 O 0.96288 1.00526 0.68665 0.0
O117 O 0.97469 0.9548 0.64237 0.0
O118 O 0.91941 0.03592 0.621 0.0
O119 O 0.95475 0.03321 0.56212 0.0
H120 H 0.0811 0.13909 0.40154 0.0
H121 H 0.15988 0.17557 0.38745 0.0
H122 H 0.19574 0.1608 0.51916 0.0
H123 H 0.11716 0.12442 0.53331 0.0
H124 H 0.9381 0.92096 0.74966 0.0
H125 H 0.86333 0.87875 0.76906 0.0
H126 H 0.80435 0.91499 0.65896 0.0
H127 H 0.87885 0.95683 0.63941 0.0
Ho128 Ho 0.55894 0.06264 0.12261 0.0
Ho129 Ho 0.46642 0.03054 0.07437 0.0
C130 C 0.47256 0.0993 0.15123 0.0
C131 C 0.63731 0.10641 0.14721 0.0
C132 C 0.66106 0.12014 0.189 0.0
C133 C 0.69475 0.15632 0.19245 0.0
C134 C 0.71569 0.17145 0.23287 0.0
C135 C 0.70315 0.15038 0.27003 0.0
C136 C 0.66999 0.11382 0.26651 0.0
C137 C 0.64881 0.09881 0.22613 0.0
C138 C 0.50662 0.99905 0.16477 0.0
C139 C 0.55223 0.99773 0.03539 0.0
C140 C 0.39067 0.98781 0.04081 0.0
C141 C 0.37386 0.97089 0.99656 0.0
C142 C 0.40298 0.97476 0.95943 0.0
C143 C 0.38572 0.96102 0.91705 0.0
C144 C 0.33926 0.94337 0.91155 0.0
C145 C 0.3104 0.93888 0.9488 0.0
C146 C 0.32764 0.95263 0.99111 0.0
C147 C 0.52224 0.09969 0.04609 0.0
O148 O 0.51714 0.10715 0.14575 0.0
O149 O 0.44685 0.06368 0.13689 0.0
O150 O 0.62959 0.06783 0.13408 0.0
O151 O 0.60245 0.12117 0.1424 0.0
O152 O 0.5465 0.02012 0.17704 0.0
O153 O 0.49675 1.01515 0.13224 0.0
O154 O 0.5081 0.99404 0.03383 0.0
O155 O 0.57901 0.02431 0.06382 0.0
O156 O 0.40093 0.02704 0.04766 0.0
O157 O 0.42084 0.97224 0.05658 0.0
O158 O 0.47837 0.08994 0.04371 0.0
O159 O 0.53343 0.06984 0.05856 0.0
H160 H 0.70422 0.17319 0.1641 0.0
H161 H 0.74115 0.19982 0.23539 0.0
H162 H 0.65994 0.09748 0.29518 0.0
H163 H 0.62247 0.07102 0.22404 0.0
H164 H 0.43875 0.98903 0.9632 0.0
H165 H 0.40833 0.96474 0.88853 0.0
H166 H 0.27446 0.92539 0.94497 0.0
H167 H 0.30478 0.94968 0.0195 0.0
Ho168 Ho 0.52866 0.55027 0.54652 0.0
Ho169 Ho 0.53411 0.62293 0.60993 0.0
C170 C 0.57236 0.5531 0.64445 0.0
C171 C 0.54458 0.48896 0.49703 0.0
C172 C 0.58147 0.46859 0.49681 0.0
C173 C 0.62068 0.48654 0.52149 0.0
C174 C 0.65563 0.46701 0.52169 0.0
C175 C 0.65183 0.4294 0.49709 0.0
C176 C 0.61261 0.41144 0.47249 0.0
C177 C 0.57757 0.43094 0.47239 0.0
C178 C 0.44816 0.55273 0.58862 0.0
C179 C 0.50119 0.6265 0.51158 0.0
C180 C 0.51949 0.67713 0.67002 0.0
C181 C 0.50392 0.71307 0.66439 0.0
C182 C 0.47254 0.72464 0.69479 0.0
C183 C 0.44875 0.75199 0.68442 0.0
C184 C 0.4561 0.76793 0.64352 0.0
C185 C 0.48932 0.75816 0.61413 0.0
C186 C 0.51291 0.73063 0.62437 0.0
C187 C 0.60538 0.62902 0.55184 0.0
O188 O 0.56165 0.53274 0.60497 0.0
O189 O 0.56538 0.5894 0.65455 0.0
O190 O 0.51771 0.48566 0.53171 0.0
O191 O 0.55636 0.52571 0.48615 0.0
O192 O 0.45241 0.53987 0.54728 0.0
O193 O 0.48711 0.56275 0.60516 0.0
O194 O 0.49634 0.63846 0.55409 0.0
O195 O 0.51823 0.5949 0.4999 0.0
O196 O 0.56019 0.67648 0.6549 0.0
O197 O 0.48933 0.64357 0.65862 0.0
O198 O 0.58683 0.65821 0.56578 0.0
O199 O 0.5864 0.59865 0.57118 0.0
H200 H 0.62425 0.51566 0.54053 0.0
H201 H 0.68567 0.48122 0.54086 0.0
H202 H 0.60923 0.38238 0.45337 0.0
H203 H 0.54749 0.41668 0.4533 0.0
H204 H 0.46458 0.71079 0.72535 0.0
H205 H 0.42325 0.75944 0.70745 0.0
H206 H 0.49536 0.77036 0.5825 0.0
H207 H 0.53629 0.7214 0.59999 0.0
Ho208 Ho 0.02279 0.51757 0.05759 0.0
Ho209 Ho 0.01749 0.59105 0.01432 0.0
C210 C 0.10679 0.59936 0.07002 0.0
C211 C 0.04927 0.45515 0.07521 0.0
C212 C 0.08909 0.44213 0.08921 0.0
C213 C 0.11307 0.42202 0.05789 0.0
C214 C 0.1462 0.40422 0.07107 0.0
C215 C 0.1548 0.40347 0.11637 0.0
C216 C 0.13519 0.42902 0.14673 0.0
C217 C 0.10183 0.44681 0.13366 0.0
C218 C 0.98348 0.56962 0.10974 0.0
C219 C 0.93049 0.51178 1.00704 0.0
C220 C 0.99183 0.65025 0.98772 0.0
C221 C 0.95003 0.65361 0.96728 0.0
C222 C 0.90715 0.6388 0.9865 0.0
C223 C 0.86792 0.64151 0.96626 0.0
C224 C 0.87083 0.65854 0.92618 0.0
C225 C 0.91351 0.67305 0.9067 0.0
C226 C 0.95283 0.67076 0.92723 0.0
C227 C 0.05995 0.54038 0.96422 0.0
O228 O 0.0923 0.56001 0.07282 0.0
O229 O 0.08197 0.6193 0.05132 0.0
O230 O 0.02874 0.47589 0.10422 0.0
O231 O 0.05142 0.46726 0.03579 0.0
O232 O 0.97199 0.53062 0.10998 0.0
O233 O 0.01708 0.57863 0.08374 0.0
O234 O 0.94613 0.55089 1.00408 0.0
O235 O 0.95511 0.49085 0.02446 0.0
O236 O 0.01639 0.62981 0.9633 0.0
O237 O 0.98857 0.64225 0.02896 0.0
O238 O 0.07106 0.5793 0.96474 0.0
O239 O 0.02495 0.53074 0.98845 0.0
H240 H 0.10565 0.4193 0.02295 0.0
H241 H 0.16467 0.39081 0.04504 0.0
H242 H 0.14515 0.4363 0.18081 0.0
H243 H 0.08578 0.46393 0.15858 0.0
H244 H 0.90376 0.62496 0.01703 0.0
H245 H 0.83524 0.63018 0.98173 0.0
H246 H 0.91631 0.68631 0.87575 0.0
H247 H 0.98546 0.68217 0.91168 0.0
C248 C 0.29099 0.24449 0.42066 0.0
C249 C 0.3191 0.2179 0.40713 0.0
C250 C 0.25932 0.16054 0.42727 0.0
C251 C 0.23157 0.18717 0.44129 0.0
N252 N 0.22436 0.25469 0.46225 0.0
N253 N 0.33504 0.15313 0.40841 0.0
C254 C 0.24867 0.2293 0.44173 0.0
C255 C 0.3048 0.17666 0.414 0.0
N256 N 0.30294 0.28341 0.41059 0.0
N257 N 0.24166 0.11981 0.42477 0.0
H258 H 0.36889 0.16441 0.3995 0.0
H259 H 0.3279 0.12376 0.41684 0.0
H260 H 0.20871 0.10673 0.43498 0.0
H261 H 0.25857 0.09894 0.40976 0.0
H262 H 0.28125 0.30257 0.41502 0.0
H263 H 0.33311 0.2959 0.39446 0.0
H264 H 0.23713 0.28577 0.46771 0.0
H265 H 0.19294 0.24432 0.47748 0.0
C266 C 0.31179 0.88564 0.7977 0.0
C267 C 0.28248 0.90689 0.78175 0.0
C268 C 0.29506 0.95471 0.84874 0.0
C269 C 0.3203 0.93097 0.86659 0.0
N270 N 0.34686 0.87039 0.86149 0.0
N271 N 0.23942 0.95711 0.79536 0.0
C272 C 0.32699 0.89539 0.84206 0.0
C273 C 0.27227 0.94026 0.80814 0.0
N274 N 0.32692 0.85752 0.76993 0.0
N275 N 0.2939 0.99159 0.86996 0.0
H276 H 0.22102 0.94672 0.7664 0.0
H277 H 0.22729 0.97876 0.81551 0.0
H278 H 0.31025 1.00328 0.89981 0.0
H279 H 0.28023 1.01209 0.85603 0.0
H280 H 0.35219 0.84438 0.7784 0.0
H281 H 0.31749 0.85003 0.73687 0.0
H282 H 0.3481 0.84187 0.84687 0.0
H283 H 0.35877 0.87671 0.89385 0.0
C284 C 0.65434 0.53413 0.72869 0.0
C285 C 0.62807 0.49858 0.74556 0.0
C286 C 0.56454 0.50043 0.6983 0.0
C287 C 0.59191 0.53415 0.67897 0.0
N288 N 0.66514 0.57976 0.6714 0.0
N289 N 0.56063 0.44407 0.74075 0.0
C290 C 0.63745 0.55014 0.69311 0.0
C291 C 0.58382 0.48076 0.72878 0.0
N292 N 0.69493 0.55337 0.74768 0.0
N293 N 0.5194 0.4881 0.68894 0.0
H294 H 0.57323 0.42875 0.76295 0.0
H295 H 0.53071 0.42718 0.7259 0.0
H296 H 0.50404 0.50178 0.66722 0.0
H297 H 0.49638 0.46678 0.70552 0.0
H298 H 0.7136 0.5817 0.74066 0.0
H299 H 0.70839 0.54231 0.77319 0.0
H300 H 0.69983 0.59002 0.67664 0.0
H301 H 0.65406 0.59191 0.64533 0.0
C302 C 0.98493 0.62091 0.22883 0.0
C303 C 0.96114 0.65105 0.22484 0.0
C304 C 0.94775 0.62448 0.14616 0.0
C305 C 0.97577 0.59773 0.14924 0.0
N306 N 0.02932 0.57719 0.19185 0.0
N307 N 0.92852 0.68647 0.17602 0.0
C308 C 0.99697 0.5981 0.19004 0.0
C309 C 0.94488 0.65418 0.18242 0.0
N310 N 0.99349 0.61183 0.26971 0.0
N311 N 0.92275 0.62082 0.10904 0.0
H312 H 0.92793 0.70982 0.20086 0.0
H313 H 0.92021 0.69229 0.14495 0.0
H314 H 0.9236 0.59908 0.08241 0.0
H315 H 0.89822 0.63669 0.10647 0.0
H316 H 0.00665 0.5875 0.27429 0.0
H317 H 0.9826 0.62526 0.29918 0.0
H318 H 0.04944 0.58005 0.21948 0.0
H319 H 0.03911 0.56005 0.16444 0.0
C320 C 0.46599 0.20161 0.20818 0.0
C321 C 0.42782 0.20848 0.18792 0.0
C322 C 0.41463 0.14139 0.14655 0.0
C323 C 0.45181 0.13354 0.16826 0.0
N324 N 0.50252 0.15212 0.2301 0.0
N325 N 0.35773 0.17964 0.1496 0.0
C326 C 0.4741 0.1624 0.20246 0.0
C327 C 0.39952 0.17661 0.16102 0.0
N328 N 0.49605 0.23283 0.23092 0.0
N329 N 0.39589 0.11765 0.10967 0.0
H330 H 0.34513 0.20463 0.16027 0.0
H331 H 0.3338 0.15558 0.13382 0.0
H332 H 0.4066 0.09289 0.0953 0.0
H333 H 0.37272 0.12528 0.09013 0.0
H334 H 0.52688 0.23022 0.24217 0.0
H335 H 0.49235 0.26224 0.235 0.0
H336 H 0.5167 0.17076 0.25797 0.0
H337 H 0.5076 0.12316 0.22805 0.0
C338 C 0.1583 0.95207 0.5862 0.0
C339 C 0.13956 0.93363 0.62447 0.0
C340 C 0.09073 0.98017 0.63805 0.0
C341 C 0.10522 0.99578 0.59716 0.0
N342 N 0.16554 1.00822 0.5428 0.0
N343 N 0.08138 0.92399 0.68114 0.0
C344 C 0.14237 0.98466 0.57369 0.0
C345 C 0.10384 0.94589 0.64863 0.0
N346 N 0.19127 0.93851 0.56188 0.0
N347 N 0.06861 1.00024 0.6691 0.0
H348 H 0.08938 0.89801 0.68925 0.0
H349 H 0.05179 0.92905 0.69648 0.0
H350 H 0.06498 0.02883 0.66612 0.0
H351 H 0.06086 0.99179 0.70091 0.0
H352 H 0.20236 0.94702 0.53075 0.0
H353 H 0.20577 0.9165 0.57131 0.0
H354 H 0.19485 1.0039 0.52642 0.0
H355 H 0.15908 0.03562 0.53769 0.0
C356 C 0.80325 0.45743 0.99495 0.0
C357 C 0.79887 0.44984 0.94801 0.0
C358 C 0.87943 0.48635 0.94026 0.0
C359 C 0.88498 0.49044 0.98701 0.0
N360 N 0.8528 0.47584 0.05878 0.0
N361 N 0.83655 0.44967 0.87659 0.0
C362 C 0.8471 0.47446 0.01424 0.0
C363 C 0.83801 0.46245 0.92089 0.0
N364 N 0.7652 0.45063 0.02123 0.0
N365 N 0.91364 0.50551 0.91396 0.0
H366 H 0.80787 0.43075 0.86126 0.0
H367 H 0.86508 0.45407 0.85589 0.0
H368 H 0.94512 0.52188 0.92599 0.0
H369 H 0.90957 0.50785 0.88059 0.0
H370 H 0.76533 0.45957 0.05513 0.0
H371 H 0.73269 0.43936 1.0086 0.0
H372 H 0.82823 0.46068 0.07984 0.0
H373 H 0.88335 0.49005 0.07436 0.0
C374 C 0.73218 0.67534 0.54398 0.0
C375 C 0.74319 0.65758 0.50178 0.0
C376 C 0.66368 0.62079 0.49208 0.0
C377 C 0.65316 0.63667 0.53533 0.0
N378 N 0.67995 0.67069 0.60659 0.0
N379 N 0.72178 0.60617 0.44056 0.0
C380 C 0.68826 0.66129 0.56261 0.0
C381 C 0.70962 0.62806 0.47731 0.0
N382 N 0.76262 0.70726 0.56526 0.0
N383 N 0.62976 0.60029 0.46423 0.0
H384 H 0.75523 0.61029 0.4292 0.0
H385 H 0.69957 0.58134 0.42402 0.0
H386 H 0.59587 0.59501 0.47366 0.0
H387 H 0.63492 0.59186 0.43078 0.0
H388 H 0.75468 0.72379 0.59394 0.0
H389 H 0.79447 0.71992 0.55223 0.0
H390 H 0.70545 0.68475 0.62902 0.0
H391 H 0.64836 0.66074 0.62163 0.0
C392 C 0.2452 0.34267 0.10623 0.0
C393 C 0.26823 0.35737 0.14685 0.0
C394 C 0.2035 0.38397 0.174 0.0
C395 C 0.18703 0.37936 0.13029 0.0
N396 N 0.17321 0.3272 0.06921 0.0
N397 N 0.26943 0.39561 0.21908 0.0
C398 C 0.2025 0.35101 0.09977 0.0
C399 C 0.24734 0.37884 0.18074 0.0
N400 N 0.26353 0.32041 0.0739 0.0
N401 N 0.17466 0.38524 0.20932 0.0
H402 H 0.30245 0.39451 0.22514 0.0
H403 H 0.25618 0.41408 0.24281 0.0
H404 H 0.13968 0.37885 0.20508 0.0
H405 H 0.1844 0.38537 0.24184 0.0
H406 H 0.25124 0.31368 0.04173 0.0
H407 H 0.29218 0.31014 0.07853 0.0
H408 H 0.1806 0.30335 0.04857 0.0
H409 H 0.13915 0.3278 0.06915 0.0
C410 C 0.56785 0.21215 0.02619 0.0
C411 C 0.61163 0.21306 1.0078 0.0
C412 C 0.59533 0.1391 1.0096 0.0
C413 C 0.55358 0.13879 0.0329 0.0
N414 N 0.50518 0.17829 0.07048 0.0
N415 N 0.66907 0.17755 0.98609 0.0
C416 C 0.54107 0.17619 0.0427 0.0
C417 C 0.62593 0.17657 1.00099 0.0
N418 N 0.55172 0.24588 0.02845 0.0
N419 N 0.60488 0.10359 0.99306 0.0
H420 H 0.69123 0.20336 0.97598 0.0
H421 H 0.68379 0.15339 0.98623 0.0
H422 H 0.58315 0.07566 0.99659 0.0
H423 H 0.63206 0.10174 0.97169 0.0
H424 H 0.51815 0.24589 0.03638 0.0
H425 H 0.57081 0.27321 0.01885 0.0
H426 H 0.49756 0.2052 0.08321 0.0
H427 H 0.4858 0.15366 0.08485 0.0
C428 C 0.91341 0.87212 0.44194 0.0
C429 C 0.94598 0.84875 0.4351 0.0
C430 C 1.00061 0.90265 0.47914 0.0
C431 C 0.9663 0.92368 0.49008 0.0
N432 N 0.88859 0.9265 0.48563 0.0
N433 N 0.0196 0.8401 0.4504 0.0
C434 C 0.92237 0.908 0.4722 0.0
C435 C 0.98955 0.86381 0.45413 0.0
N436 N 0.87409 0.86027 0.41859 0.0
N437 N 0.0441 0.92011 0.49211 0.0
H438 H 0.01328 0.81206 0.4317 0.0
H439 H 0.04961 0.84693 0.468 0.0
H440 H 0.05313 0.94763 0.51161 0.0
H441 H 0.07175 0.90891 0.48102 0.0
H442 H 0.85065 0.87761 0.41861 0.0
H443 H 0.86692 0.83464 0.3957 0.0
H444 H 0.85462 0.91419 0.47808 0.0
H445 H 0.89393 0.95286 0.50738 0.0
C446 C 0.3982 0.85313 0.6496 0.0
C447 C 0.36424 0.83795 0.61705 0.0
C448 C 0.39184 0.77708 0.60003 0.0
C449 C 0.42712 0.79333 0.63096 0.0
N450 N 0.47064 0.85029 0.67693 0.0
N451 N 0.33439 0.79007 0.55495 0.0
C452 C 0.43253 0.83259 0.65297 0.0
C453 C 0.36288 0.80131 0.5902 0.0
N454 N 0.39601 0.88546 0.67943 0.0
N455 N 0.38464 0.73796 0.58168 0.0
H456 H 0.31306 0.80746 0.54677 0.0
H457 H 0.33494 0.76567 0.53154 0.0
H458 H 0.40504 0.71913 0.58798 0.0
H459 H 0.35644 0.72315 0.56281 0.0
H460 H 0.41677 0.89459 0.70696 0.0
H461 H 0.37075 0.90095 0.67949 0.0
H462 H 0.47857 0.88043 0.69001 0.0
H463 H 0.4965 0.83595 0.68008 0.0
C464 C 0.72976 0.80122 0.71019 0.0
C465 C 0.70492 0.81058 0.74869 0.0
C466 C 0.75355 0.87914 0.75653 0.0
C467 C 0.7842 0.86644 0.72496 0.0
N468 N 0.80166 0.81518 0.67096 0.0
N469 N 0.67735 0.86399 0.78801 0.0
C470 C 0.77211 0.82758 0.70111 0.0
C471 C 0.71211 0.85136 0.76623 0.0
N472 N 0.71104 0.76947 0.68015 0.0
N473 N 0.76473 0.91709 0.77825 0.0
H474 H 0.64557 0.84425 0.79154 0.0
H475 H 0.67848 0.89403 0.79843 0.0
H476 H 0.79415 0.93852 0.77094 0.0
H477 H 0.74612 0.92653 0.80506 0.0
H478 H 0.72614 0.76364 0.6496 0.0
H479 H 0.67729 0.75344 0.68227 0.0
H480 H 0.79662 0.7855 0.65667 0.0
H481 H 0.83281 0.83375 0.66265 0.0
C482 C 0.7823 0.17468 0.36792 0.0
C483 C 0.76422 0.20405 0.39386 0.0
C484 C 0.70312 0.19442 0.34098 0.0
C485 C 0.7235 0.16778 0.31324 0.0
N486 N 0.78461 0.13539 0.2968 0.0
N487 N 0.71205 0.24687 0.40238 0.0
C488 C 0.76375 0.15869 0.3257 0.0
C489 C 0.72572 0.21518 0.37981 0.0
N490 N 0.81595 0.16094 0.38441 0.0
N491 N 0.66184 0.19943 0.33048 0.0
H492 H 0.72786 0.2632 0.43085 0.0
H493 H 0.68751 0.25933 0.39093 0.0
H494 H 0.6448 0.18564 0.30157 0.0
H495 H 0.64279 0.21471 0.35194 0.0
H496 H 0.82698 0.13635 0.36937 0.0
H497 H 0.83059 0.17209 0.41513 0.0
H498 H 0.81674 0.1315 0.30174 0.0
H499 H 0.77109 0.12198 0.26619 0.0
C500 C 0.43294 0.67733 0.44006 0.0
C501 C 0.46749 0.69903 0.41248 0.0
C502 C 0.52378 0.67227 0.44883 0.0
C503 C 0.48927 0.65056 0.47642 0.0
N504 N 0.41159 0.63636 0.50155 0.0
N505 N 0.54548 0.71416 0.38818 0.0
C506 C 0.4441 0.65444 0.47293 0.0
C507 C 0.51273 0.69542 0.41619 0.0
N508 N 0.38866 0.67607 0.43256 0.0
N509 N 0.56796 0.67326 0.45613 0.0
H510 H 0.54022 0.7345 0.36734 0.0
H511 H 0.57739 0.70848 0.38391 0.0
H512 H 0.57748 0.65777 0.47991 0.0
H513 H 0.59565 0.6917 0.44144 0.0
H514 H 0.36119 0.65752 0.44744 0.0
H515 H 0.37874 0.69119 0.40847 0.0
H516 H 0.37986 0.64242 0.50599 0.0
H517 H 0.41707 0.61646 0.52284 0.0
C518 C 0.14587 0.49609 0.89062 0.0
C519 C 0.11704 0.46887 0.85928 0.0
C520 C 0.05088 0.4808 0.90332 0.0
C521 C 0.07937 0.51274 0.93088 0.0
N522 N 0.15551 0.55305 0.94675 0.0
N523 N 0.0415 0.44305 0.83068 0.0
C524 C 0.12727 0.52113 0.92313 0.0
C525 C 0.0694 0.46329 0.86432 0.0
N526 N 0.19086 0.49674 0.89096 0.0
N527 N 0.00622 0.46639 0.91383 0.0
H528 H 0.05347 0.43142 0.80069 0.0
H529 H 0.00705 0.44197 0.83045 0.0
H530 H 0.99039 0.47669 0.94195 0.0
H531 H 0.98581 0.44059 0.89702 0.0
H532 H 0.21261 0.5126 0.91603 0.0
H533 H 0.20559 0.47818 0.86878 0.0
H534 H 0.18958 0.56371 0.93843 0.0
H535 H 0.1447 0.57049 0.97313 0.0
C536 C 0.59347 0.95017 0.92719 0.0
C537 C 0.6087 0.91855 0.94249 0.0
C538 C 0.59184 0.942 0.01921 0.0
C539 C 0.57253 0.97115 1.00342 0.0
N540 N 0.54878 0.99923 0.94183 0.0
N541 N 0.61578 0.88 1.00207 0.0
C542 C 0.57141 0.97407 0.95723 0.0
C543 C 0.60655 0.91347 0.98831 0.0
N544 N 0.60179 0.95844 0.88424 0.0
N545 N 0.59548 0.94105 0.06376 0.0
H546 H 0.62591 0.858 0.98056 0.0
H547 H 0.60966 0.87207 0.0342 0.0
H548 H 0.58196 0.95907 0.08772 0.0
H549 H 0.61433 0.92405 0.07716 0.0
H550 H 0.59597 0.98378 0.87227 0.0
H551 H 0.61872 0.94213 0.86147 0.0
H552 H 0.54206 0.99885 0.90845 0.0
H553 H 0.5336 0.01853 0.96242 0.0
C554 C 0.89009 0.14845 0.59626 0.0
C555 C 0.86857 0.14624 0.5556 0.0
C556 C 0.89208 0.08441 0.52886 0.0
C557 C 0.90947 0.08409 0.57154 0.0
N558 N 0.92306 0.11602 0.64723 0.0
N559 N 0.84506 0.1116 0.48406 0.0
C560 C 0.90762 0.116 0.60563 0.0
C561 C 0.86888 0.11431 0.52189 0.0
N562 N 0.89562 0.18264 0.62537 0.0
N563 N 0.89688 0.05586 0.4952 0.0
H564 H 0.82809 0.13315 0.47796 0.0
H565 H 0.83934 0.08688 0.4601 0.0
H566 H 0.91008 0.03154 0.4994 0.0
H567 H 0.89009 0.05736 0.46225 0.0
H568 H 0.91614 0.18852 0.65308 0.0
H569 H 0.88296 0.20708 0.61991 0.0
H570 H 0.91419 0.1334 0.67485 0.0
H571 H 0.94493 0.09913 0.65475 0.0
C572 C 0.18949 0.68526 0.13764 0.0
C573 C 0.23091 0.67348 0.13138 0.0
C574 C 0.1912 0.61165 0.0859 0.0
C575 C 0.14941 0.62292 0.09336 0.0
N576 N 0.10756 0.66401 0.13851 0.0
N577 N 0.26909 0.6212 0.10833 0.0
C578 C 0.14823 0.65786 0.12282 0.0
C579 C 0.23109 0.63539 0.10804 0.0
N580 N 0.18954 0.72334 0.1559 0.0
N581 N 0.19345 0.57911 0.05655 0.0
H582 H 0.29852 0.63736 0.12473 0.0
H583 H 0.27012 0.59198 0.09615 0.0
H584 H 0.16519 0.55969 0.04128 0.0
H585 H 0.22381 0.5727 0.04515 0.0
H586 H 0.16114 0.73504 0.15647 0.0
H587 H 0.21881 0.74456 0.16691 0.0
H588 H 0.10475 0.68666 0.16345 0.0
H589 H 0.07667 0.64374 0.13052 0.0
C590 C 0.33974 0.54281 0.66045 0.0
C591 C 0.32756 0.50072 0.66427 0.0
C592 C 0.39669 0.49391 0.62246 0.0
C593 C 0.40681 0.53521 0.61514 0.0
N594 N 0.38556 0.59828 0.62302 0.0
N595 N 0.33967 0.43497 0.64051 0.0
C596 C 0.37758 0.55947 0.63297 0.0
C597 C 0.35482 0.47597 0.64307 0.0
N598 N 0.31625 0.56712 0.68449 0.0
N599 N 0.42763 0.47183 0.61079 0.0
H600 H 0.30876 0.42035 0.65398 0.0
H601 H 0.35549 0.41536 0.62116 0.0
H602 H 0.45859 0.48353 0.59555 0.0
H603 H 0.4246 0.44312 0.62007 0.0
H604 H 0.32608 0.59842 0.68696 0.0
H605 H 0.28878 0.55605 0.70504 0.0
H606 H 0.36307 0.61638 0.63074 0.0
H607 H 0.41353 0.61162 0.60421 0.0
C608 C 0.7838 0.70359 0.87852 0.0
C609 C 0.75006 0.66835 0.86416 0.0
C610 C 0.79782 0.62651 0.88626 0.0
C611 C 0.82908 0.66176 0.90493 0.0
N612 N 0.8473 0.73339 0.92673 0.0
N613 N 0.72116 0.59626 0.86139 0.0
C614 C 0.82074 0.7002 0.90338 0.0
C615 C 0.75601 0.62973 0.86989 0.0
N616 N 0.78191 0.74016 0.86655 0.0
N617 N 0.80865 0.59015 0.88293 0.0
H618 H 0.68968 0.59743 0.85027 0.0
H619 H 0.72196 0.56785 0.86925 0.0
H620 H 0.83909 0.58662 0.89422 0.0
H621 H 0.78933 0.56418 0.86547 0.0
H622 H 0.80815 0.76604 0.87219 0.0
H623 H 0.75643 0.74397 0.84688 0.0
H624 H 0.83974 0.76141 0.93058 0.0
H625 H 0.87445 0.73217 0.94581 0.0
C626 C 0.4672 0.88425 0.17379 0.0
C627 C 0.45367 0.88262 0.21918 0.0
C628 C 0.47355 0.95754 0.22857 0.0
C629 C 0.48334 0.959 0.18228 0.0
N630 N 0.48329 0.92219 0.10995 0.0
N631 N 0.43774 0.9185 0.28821 0.0
C632 C 0.47798 0.92185 0.1547 0.0
C633 C 0.45546 0.91955 0.24619 0.0
N634 N 0.47206 0.8498 0.14919 0.0
N635 N 0.48161 0.9927 0.25606 0.0
H636 H 0.42466 0.89173 0.3023 0.0
H637 H 0.43283 0.9438 0.30797 0.0
H638 H 0.49104 0.02097 0.24445 0.0
H639 H 0.48117 0.99391 0.29046 0.0
H640 H 0.48651 0.84921 0.11755 0.0
H641 H 0.46602 0.82219 0.16213 0.0
H642 H 0.47469 0.89647 0.08745 0.0
H643 H 0.49285 0.94861 0.09491 0.0
C644 C 0.04799 0.21896 0.68025 0.0
C645 C 0.08132 0.22353 0.71291 0.0
C646 C 0.08551 0.15316 0.69183 0.0
C647 C 0.05142 0.14828 0.65961 0.0
N648 N 0.00856 0.18038 0.61609 0.0
N649 N 0.12927 0.19447 0.75305 0.0
C650 C 0.03521 0.18229 0.65172 0.0
C651 C 0.09925 0.19039 0.71964 0.0
N652 N 0.02584 0.2487 0.67858 0.0
N653 N 0.10775 0.12346 0.69306 0.0
H654 H 0.14297 0.2219 0.77158 0.0
H655 H 0.13904 0.1705 0.76412 0.0
H656 H 0.10125 0.09732 0.67106 0.0
H657 H 0.13579 0.12608 0.71252 0.0
H658 H 0.99687 0.24515 0.66007 0.0
H659 H 0.03359 0.2759 0.69888 0.0
H660 H 1.00178 0.2056 0.60476 0.0
H661 H 0.99543 0.15426 0.59549 0.0
C662 C 0.76534 0.40322 0.47351 0.0
C663 C 0.75739 0.36626 0.49232 0.0
C664 C 0.68344 0.3746 0.52053 0.0
C665 C 0.68904 0.4087 0.49692 0.0
N666 N 0.73271 0.4529 0.44618 0.0
N667 N 0.70586 0.31316 0.52767 0.0
C668 C 0.72939 0.42247 0.47222 0.0
C669 C 0.71577 0.35105 0.51455 0.0
N670 N 0.80764 0.42044 0.45793 0.0
N671 N 0.64758 0.36511 0.54924 0.0
H672 H 0.72807 0.29444 0.52327 0.0
H673 H 0.674 0.29883 0.53936 0.0
H674 H 0.62314 0.38164 0.55437 0.0
H675 H 0.64434 0.34319 0.57087 0.0
H676 H 0.81675 0.44929 0.44791 0.0
H677 H 0.83494 0.40744 0.459 0.0
H678 H 0.75914 0.46115 0.4236 0.0
H679 H 0.70717 0.46786 0.4444 0.0
loop_
_geom_bond_atom_site_label_1
_geom_bond_atom_site_label_2
_geom_bond_distance
_geom_bond_site_symmetry_2
_ccdc_geom_bond_type
O0 Cd1 2.300 . S
O0 C7 1.275 . S
Cd1 O0 2.300 . S
Cd1 O9 2.381 . S
Cd1 O10 2.378 . S
O2 Cd3 2.385 . S
O2 C7 1.255 . S
Cd3 O2 2.385 . S
Cd3 O4 2.317 . S
O4 Cd3 2.317 . S
O4 C5 1.232 . S
C5 O4 1.232 . S
C5 O6 1.218 . S
O6 C5 1.218 . S
C7 O0 1.275 . S
C7 O2 1.255 . S
C8 O9 1.258 . S
C8 O10 1.256 . S
O9 Cd1 2.381 . S
O9 C8 1.258 . S
O10 Cd1 2.378 . S
O10 C8 1.256 . S
O11 Cd12 2.300 . S
O11 C18 1.275 . S
Cd12 O11 2.300 . S
Cd12 O20 2.381 . S
Cd12 O21 2.378 . S
O13 Cd14 2.385 . S
O13 C18 1.255 . S
Cd14 O13 2.385 . S
Cd14 O15 2.317 . S
O15 Cd14 2.317 . S
O15 C16 1.232 . S
C16 O15 1.232 . S
C16 O17 1.218 . S
O17 C16 1.218 . S
C18 O11 1.275 . S
C18 O13 1.255 . S
C19 O20 1.258 . S
C19 O21 1.256 . S
O20 Cd12 2.381 . S
O20 C19 1.258 . S
O21 Cd12 2.378 . S
O21 C19 1.256 . S
O22 Cd23 2.300 . S
O22 C29 1.275 . S
Cd23 O22 2.300 . S
Cd23 O31 2.381 . S
Cd23 O32 2.378 . S
O24 Cd25 2.385 . S
O24 C29 1.255 . S
Cd25 O24 2.385 . S
Cd25 O26 2.317 . S
O26 Cd25 2.317 . S
O26 C27 1.232 . S
C27 O26 1.232 . S
C27 O28 1.218 . S
O28 C27 1.218 . S
C29 O22 1.275 . S
C29 O24 1.255 . S
C30 O31 1.258 . S
C30 O32 1.256 . S
O31 Cd23 2.381 . S
O31 C30 1.258 . S
O32 Cd23 2.378 . S
O32 C30 1.256 . S
O33 Cd34 2.300 . S
O33 C40 1.275 . S
Cd34 O33 2.300 . S
Cd34 O42 2.381 . S
Cd34 O43 2.378 . S
O35 Cd36 2.385 . S
O35 C40 1.255 . S
Cd36 O35 2.385 . S
Cd36 O37 2.317 . S
O37 Cd36 2.317 . S
O37 C38 1.232 . S
C38 O37 1.232 . S
C38 O39 1.218 . S
O39 C38 1.218 . S
C40 O33 1.275 . S
C40 O35 1.255 . S
C41 O42 1.258 . S
C41 O43 1.256 . S
O42 Cd34 2.381 . S
O42 C41 1.258 . S
O43 Cd34 2.378 . S
O43 C41 1.256 . S
O44 Cd45 2.300 . S
O44 C51 1.275 . S
Cd45 O44 2.300 . S
Cd45 O53 2.381 . S
Cd45 O54 2.378 . S
O46 Cd47 2.385 . S
O46 C51 1.255 . S
Cd47 O46 2.385 . S
Cd47 O48 2.317 . S
O48 Cd47 2.317 . S
O48 C49 1.232 . S
C49 O48 1.232 . S
C49 O50 1.218 . S
O50 C49 1.218 . S
C51 O44 1.275 . S
C51 O46 1.255 . S
C52 O53 1.258 . S
C52 O54 1.256 . S
O53 Cd45 2.381 . S
O53 C52 1.258 . S
O54 Cd45 2.378 . S
O54 C52 1.256 . S
O55 Cd56 2.300 . S
O55 C62 1.275 . S
Cd56 O55 2.300 . S
Cd56 O64 2.381 . S
Cd56 O65 2.378 . S
O57 Cd58 2.385 . S
O57 C62 1.255 . S
Cd58 O57 2.385 . S
Cd58 O59 2.317 . S
O59 Cd58 2.317 . S
O59 C60 1.232 . S
C60 O59 1.232 . S
C60 O61 1.218 . S
O61 C60 1.218 . S
C62 O55 1.275 . S
C62 O57 1.255 . S
C63 O64 1.258 . S
C63 O65 1.256 . S
O64 Cd56 2.381 . S
O64 C63 1.258 . S
O65 Cd56 2.378 . S
O65 C63 1.256 . S
O66 Cd67 2.300 . S
O66 C73 1.275 . S
Cd67 O66 2.300 . S
Cd67 O75 2.381 . S
Cd67 O76 2.378 . S
O68 Cd69 2.385 . S
O68 C73 1.255 . S
Cd69 O68 2.385 . S
Cd69 O70 2.317 . S
O70 Cd69 2.317 . S
O70 C71 1.232 . S
C71 O70 1.232 . S
C71 O72 1.218 . S
O72 C71 1.218 . S
C73 O66 1.275 . S
C73 O68 1.255 . S
C74 O75 1.258 . S
C74 O76 1.256 . S
O75 Cd67 2.381 . S
O75 C74 1.258 . S
O76 Cd67 2.378 . S
O76 C74 1.256 . S
O77 Cd78 2.300 . S
O77 C84 1.275 . S
Cd78 O77 2.300 . S
Cd78 O86 2.381 . S
Cd78 O87 2.378 . S
O79 Cd80 2.385 . S
O79 C84 1.255 . S
Cd80 O79 2.385 . S
Cd80 O81 2.317 . S
O81 Cd80 2.317 . S
O81 C82 1.232 . S
C82 O81 1.232 . S
C82 O83 1.218 . S
O83 C82 1.218 . S
C84 O77 1.275 . S
C84 O79 1.255 . S
C85 O86 1.258 . S
C85 O87 1.256 . S
O86 Cd78 2.381 . S
O86 C85 1.258 . S
O87 Cd78 2.378 . S
O87 C85 1.256 . S
Ho88 C91 2.811 . S
Ho88 O108 2.322 . S
Ho88 O110 2.378 . S
Ho88 O111 2.524 . S
Ho88 O112 2.381 . S
Ho88 O113 2.669 . S
Ho88 O115 2.346 1_445 S
Ho88 O119 2.305 1_455 S
Ho89 C100 2.811 1_545 S
Ho89 O109 2.346 1_655 S
Ho89 O113 2.305 1_655 S
Ho89 O114 2.322 1_545 S
Ho89 O116 2.378 1_545 S
Ho89 O117 2.524 1_545 S
Ho89 O118 2.381 . S
Ho89 O119 2.669 . S
C90 O108 1.259 . S
C90 O109 1.268 . S
C91 Ho88 2.811 . S
C91 C92 1.488 . S
C91 O110 1.215 . S
C91 O111 1.289 . S
C92 C91 1.488 . S
C92 C93 1.348 . S
C92 C97 1.413 . S
C93 C92 1.348 . S
C93 C94 1.442 . S
C93 H120 0.930 . S
C94 C93 1.442 . S
C94 C95 1.381 . S
C94 H121 0.931 . S
C95 C94 1.381 . S
C95 C96 1.321 . S
C96 C95 1.321 . S
C96 C97 1.403 . S
C96 H122 0.934 . S
C97 C92 1.413 . S
C97 C96 1.403 . S
C97 H123 0.930 . S
C98 O112 1.275 1_565 S
C98 O113 1.256 1_565 S
C99 O114 1.259 . S
C99 O115 1.268 . S
C100 Ho89 2.811 1_565 S
C100 C101 1.488 . S
C100 O116 1.215 . S
C100 O117 1.289 . S
C101 C100 1.488 . S
C101 C102 1.348 . S
C101 C106 1.413 . S
C102 C101 1.348 . S
C102 C103 1.442 . S
C102 H124 0.930 . S
C103 C102 1.442 . S
C103 C104 1.381 . S
C103 H125 0.931 . S
C104 C103 1.381 . S
C104 C105 1.321 . S
C105 C104 1.321 . S
C105 C106 1.403 . S
C105 H126 0.934 . S
C106 C101 1.413 . S
C106 C105 1.403 . S
C106 H127 0.930 . S
C107 O118 1.275 . S
C107 O119 1.256 . S
O108 Ho88 2.322 . S
O108 C90 1.259 . S
O109 Ho89 2.346 1_455 S
O109 C90 1.268 . S
O110 Ho88 2.378 . S
O110 C91 1.215 . S
O111 Ho88 2.524 . S
O111 C91 1.289 . S
O112 Ho88 2.381 . S
O112 C98 1.275 1_545 S
O113 Ho88 2.669 . S
O113 Ho89 2.305 1_455 S
O113 C98 1.256 1_545 S
O114 Ho89 2.322 1_565 S
O114 C99 1.259 . S
O115 Ho88 2.346 1_665 S
O115 C99 1.268 . S
O116 Ho89 2.378 1_565 S
O116 C100 1.215 . S
O117 Ho89 2.524 1_565 S
O117 C100 1.289 . S
O118 Ho89 2.381 . S
O118 C107 1.275 . S
O119 Ho88 2.305 1_655 S
O119 Ho89 2.669 . S
O119 C107 1.256 . S
H120 C93 0.930 . S
H121 C94 0.931 . S
H122 C96 0.934 . S
H123 C97 0.930 . S
H124 C102 0.930 . S
H125 C103 0.931 . S
H126 C105 0.934 . S
H127 C106 0.930 . S
Ho128 C131 2.811 . S
Ho128 O148 2.322 . S
Ho128 O150 2.378 . S
Ho128 O151 2.524 . S
Ho128 O152 2.381 1_545 S
Ho128 O153 2.669 . S
Ho128 O155 2.346 . S
Ho128 O159 2.305 . S
Ho129 C140 2.811 1_544 S
Ho129 O149 2.346 . S
Ho129 O153 2.305 . S
Ho129 O154 2.322 1_554 S
Ho129 O156 2.378 1_554 S
Ho129 O157 2.524 1_544 S
Ho129 O158 2.381 . S
Ho129 O159 2.669 . S
C130 O148 1.259 . S
C130 O149 1.268 . S
C131 Ho128 2.811 . S
C131 C132 1.488 . S
C131 O150 1.215 . S
C131 O151 1.289 . S
C132 C131 1.488 . S
C132 C133 1.348 . S
C132 C137 1.413 . S
C133 C132 1.348 . S
C133 C134 1.442 . S
C133 H160 0.930 . S
C134 C133 1.442 . S
C134 C135 1.381 . S
C134 H161 0.931 . S
C135 C134 1.381 . S
C135 C136 1.321 . S
C136 C135 1.321 . S
C136 C137 1.403 . S
C136 H162 0.934 . S
C137 C132 1.413 . S
C137 C136 1.403 . S
C137 H163 0.930 . S
C138 O152 1.275 . S
C138 O153 1.256 1_565 S
C139 O154 1.270 1_554 S
C139 O155 1.268 . S
C140 Ho129 2.811 1_566 S
C140 C141 1.488 . S
C140 O156 1.215 1_565 S
C140 O157 1.289 . S
C141 C140 1.488 . S
C141 C142 1.348 . S
C141 C146 1.413 . S
C142 C141 1.348 . S
C142 C143 1.442 . S
C142 H164 0.930 . S
C143 C142 1.442 . S
C143 C144 1.381 . S
C143 H165 0.931 . S
C144 C143 1.381 . S
C144 C145 1.321 . S
C145 C144 1.321 . S
C145 C146 1.403 . S
C145 H166 0.934 . S
C146 C141 1.413 . S
C146 C145 1.403 . S
C146 H167 0.930 1_565 S
C147 O158 1.275 . S
C147 O159 1.256 . S
O148 Ho128 2.322 . S
O148 C130 1.259 . S
O149 Ho129 2.346 . S
O149 C130 1.268 . S
O150 Ho128 2.378 . S
O150 C131 1.215 . S
O151 Ho128 2.524 . S
O151 C131 1.289 . S
O152 Ho128 2.381 1_565 S
O152 C138 1.275 . S
O153 Ho128 2.669 . S
O153 Ho129 2.305 . S
O153 C138 1.256 1_545 S
O154 Ho129 2.322 1_556 S
O154 C139 1.270 1_556 S
O155 Ho128 2.346 . S
O155 C139 1.268 . S
O156 Ho129 2.378 1_556 S
O156 C140 1.215 1_545 S
O157 Ho129 2.524 1_566 S
O157 C140 1.289 . S
O158 Ho129 2.381 . S
O158 C147 1.275 . S
O159 Ho128 2.305 . S
O159 Ho129 2.669 . S
O159 C147 1.256 . S
H160 C133 0.930 . S
H161 C134 0.931 . S
H162 C136 0.934 . S
H163 C137 0.930 . S
H164 C142 0.930 . S
H165 C143 0.931 . S
H166 C145 0.934 . S
H167 C146 0.930 1_545 S
Ho168 C171 2.811 . S
Ho168 O188 2.322 . S
Ho168 O190 2.378 . S
Ho168 O191 2.524 . S
Ho168 O192 2.381 . S
Ho168 O193 2.669 . S
Ho168 O195 2.346 . S
Ho168 O199 2.305 . S
Ho169 C180 2.811 . S
Ho169 O189 2.346 . S
Ho169 O193 2.305 . S
Ho169 O194 2.322 . S
Ho169 O196 2.378 . S
Ho169 O197 2.524 . S
Ho169 O198 2.381 . S
Ho169 O199 2.669 . S
C170 O188 1.259 . S
C170 O189 1.268 . S
C171 Ho168 2.811 . S
C171 C172 1.488 . S
C171 O190 1.215 . S
C171 O191 1.289 . S
C172 C171 1.488 . S
C172 C173 1.348 . S
C172 C177 1.413 . S
C173 C172 1.348 . S
C173 C174 1.442 . S
C173 H200 0.930 . S
C174 C173 1.442 . S
C174 C175 1.381 . S
C174 H201 0.931 . S
C175 C174 1.381 . S
C175 C176 1.321 . S
C176 C175 1.321 . S
C176 C177 1.403 . S
C176 H202 0.934 . S
C177 C172 1.413 . S
C177 C176 1.403 . S
C177 H203 0.930 . S
C178 O192 1.275 . S
C178 O193 1.256 . S
C179 O194 1.259 . S
C179 O195 1.268 . S
C180 Ho169 2.811 . S
C180 C181 1.488 . S
C180 O196 1.215 . S
C180 O197 1.289 . S
C181 C180 1.488 . S
C181 C182 1.348 . S
C181 C186 1.413 . S
C182 C181 1.348 . S
C182 C183 1.442 . S
C182 H204 0.930 . S
C183 C182 1.442 . S
C183 C184 1.381 . S
C183 H205 0.931 . S
C184 C183 1.381 . S
C184 C185 1.321 . S
C185 C184 1.321 . S
C185 C186 1.403 . S
C185 H206 0.934 . S
C186 C181 1.413 . S
C186 C185 1.403 . S
C186 H207 0.930 . S
C187 O198 1.275 . S
C187 O199 1.256 . S
O188 Ho168 2.322 . S
O188 C170 1.259 . S
O189 Ho169 2.346 . S
O189 C170 1.268 . S
O190 Ho168 2.378 . S
O190 C171 1.215 . S
O191 Ho168 2.524 . S
O191 C171 1.289 . S
O192 Ho168 2.381 . S
O192 C178 1.275 . S
O193 Ho168 2.669 . S
O193 Ho169 2.305 . S
O193 C178 1.256 . S
O194 Ho169 2.322 . S
O194 C179 1.259 . S
O195 Ho168 2.346 . S
O195 C179 1.268 . S
O196 Ho169 2.378 . S
O196 C180 1.215 . S
O197 Ho169 2.524 . S
O197 C180 1.289 . S
O198 Ho169 2.381 . S
O198 C187 1.275 . S
O199 Ho168 2.305 . S
O199 Ho169 2.669 . S
O199 C187 1.256 . S
H200 C173 0.930 . S
H201 C174 0.931 . S
H202 C176 0.934 . S
H203 C177 0.930 . S
H204 C182 0.930 . S
H205 C183 0.931 . S
H206 C185 0.934 . S
H207 C186 0.930 . S
Ho208 C211 2.811 . S
Ho208 O228 2.322 . S
Ho208 O230 2.378 . S
Ho208 O231 2.524 . S
Ho208 O232 2.381 1_455 S
Ho208 O233 2.659 1_455 S
Ho208 O235 2.346 1_455 S
Ho208 O239 2.305 1_554 S
Ho209 C220 2.811 1_455 S
Ho209 O229 2.346 1_556 S
Ho209 O233 2.301 1_456 S
Ho209 O234 2.322 1_455 S
Ho209 O236 2.378 1_455 S
Ho209 O237 2.524 1_455 S
Ho209 O238 2.381 . S
Ho209 O239 2.669 . S
C210 O228 1.259 . S
C210 O229 1.268 . S
C211 Ho208 2.811 . S
C211 C212 1.488 . S
C211 O230 1.215 . S
C211 O231 1.289 . S
C212 C211 1.488 . S
C212 C213 1.348 . S
C212 C217 1.413 . S
C213 C212 1.348 . S
C213 C214 1.442 . S
C213 H240 0.930 . S
C214 C213 1.442 . S
C214 C215 1.381 . S
C214 H241 0.931 . S
C215 C214 1.381 . S
C215 C216 1.321 . S
C216 C215 1.321 . S
C216 C217 1.403 . S
C216 H242 0.934 . S
C217 C212 1.413 . S
C217 C216 1.403 . S
C217 H243 0.930 . S
C218 O232 1.275 . S
C218 O233 1.260 . S
C219 O234 1.259 . S
C219 O235 1.268 1_556 S
C220 Ho209 2.811 1_655 S
C220 C221 1.488 . S
C220 O236 1.215 . S
C220 O237 1.289 . S
C221 C220 1.488 . S
C221 C222 1.348 . S
C221 C226 1.413 . S
C222 C221 1.348 . S
C222 C223 1.442 . S
C222 H244 0.930 . S
C223 C222 1.442 . S
C223 C224 1.381 . S
C223 H245 0.931 . S
C224 C223 1.381 . S
C224 C225 1.321 . S
C225 C224 1.321 . S
C225 C226 1.403 . S
C225 H246 0.934 . S
C226 C221 1.413 . S
C226 C225 1.403 . S
C226 H247 0.930 . S
C227 O238 1.275 . S
C227 O239 1.256 . S
O228 Ho208 2.322 . S
O228 C210 1.259 . S
O229 Ho209 2.346 1_554 S
O229 C210 1.268 . S
O230 Ho208 2.378 . S
O230 C211 1.215 . S
O231 Ho208 2.524 . S
O231 C211 1.289 . S
O232 Ho208 2.381 1_655 S
O232 C218 1.275 . S
O233 Ho208 2.659 1_655 S
O233 Ho209 2.301 1_654 S
O233 C218 1.260 . S
O234 Ho209 2.322 1_655 S
O234 C219 1.259 . S
O235 Ho208 2.346 1_655 S
O235 C219 1.268 1_554 S
O236 Ho209 2.378 1_655 S
O236 C220 1.215 . S
O237 Ho209 2.524 1_655 S
O237 C220 1.289 . S
O238 Ho209 2.381 . S
O238 C227 1.275 . S
O239 Ho208 2.305 1_556 S
O239 Ho209 2.669 . S
O239 C227 1.256 . S
H240 C213 0.930 . S
H241 C214 0.931 . S
H242 C216 0.934 . S
H243 C217 0.930 . S
H244 C222 0.930 . S
H245 C223 0.931 . S
H246 C225 0.934 . S
H247 C226 0.930 . S
C248 C249 1.363 . S
C248 C254 1.379 . S
C248 N256 1.356 . S
C249 C248 1.363 . S
C249 C255 1.363 . S
C250 C251 1.363 . S
C250 C255 1.379 . S
C250 N257 1.356 . S
C251 C250 1.363 . S
C251 C254 1.363 . S
N252 C254 1.356 . S
N252 H264 0.984 . S
N252 H265 0.985 . S
N253 C255 1.356 . S
N253 H258 0.984 . S
N253 H259 0.985 . S
C254 C248 1.379 . S
C254 C251 1.363 . S
C254 N252 1.356 . S
C255 C249 1.363 . S
C255 C250 1.379 . S
C255 N253 1.356 . S
N256 C248 1.356 . S
N256 H262 0.984 . S
N256 H263 0.984 . S
N257 C250 1.356 . S
N257 H260 0.984 . S
N257 H261 0.985 . S
H258 N253 0.984 . S
H259 N253 0.985 . S
H260 N257 0.984 . S
H261 N257 0.985 . S
H262 N256 0.984 . S
H263 N256 0.984 . S
H264 N252 0.984 . S
H265 N252 0.985 . S
C266 C267 1.363 . S
C266 C272 1.379 . S
C266 N274 1.356 . S
C267 C266 1.363 . S
C267 C273 1.363 . S
C268 C269 1.363 . S
C268 C273 1.379 . S
C268 N275 1.356 . S
C269 C268 1.363 . S
C269 C272 1.363 . S
N270 C272 1.356 . S
N270 H282 0.984 . S
N270 H283 0.985 . S
N271 C273 1.356 . S
N271 H276 0.984 . S
N271 H277 0.985 1_565 S
C272 C266 1.379 . S
C272 C269 1.363 . S
C272 N270 1.356 . S
C273 C267 1.363 . S
C273 C268 1.379 . S
C273 N271 1.356 . S
N274 C266 1.356 . S
N274 H280 0.984 . S
N274 H281 0.984 . S
N275 C268 1.356 . S
N275 H278 0.984 . S
N275 H279 0.985 . S
H276 N271 0.984 . S
H277 N271 0.985 1_545 S
H278 N275 0.984 . S
H279 N275 0.985 . S
H280 N274 0.984 . S
H281 N274 0.984 . S
H282 N270 0.984 . S
H283 N270 0.985 . S
C284 C285 1.363 . S
C284 C290 1.379 . S
C284 N292 1.356 . S
C285 C284 1.363 . S
C285 C291 1.363 . S
C286 C287 1.363 . S
C286 C291 1.379 . S
C286 N293 1.356 . S
C287 C286 1.363 . S
C287 C290 1.363 . S
N288 C290 1.356 . S
N288 H300 0.984 . S
N288 H301 0.985 . S
N289 C291 1.356 . S
N289 H294 0.984 . S
N289 H295 0.985 . S
C290 C284 1.379 . S
C290 C287 1.363 . S
C290 N288 1.356 . S
C291 C285 1.363 . S
C291 C286 1.379 . S
C291 N289 1.356 . S
N292 C284 1.356 . S
N292 H298 0.984 . S
N292 H299 0.984 . S
N293 C286 1.356 . S
N293 H296 0.984 . S
N293 H297 0.985 . S
H294 N289 0.984 . S
H295 N289 0.985 . S
H296 N293 0.984 . S
H297 N293 0.985 . S
H298 N292 0.984 . S
H299 N292 0.984 . S
H300 N288 0.984 . S
H301 N288 0.985 . S
C302 C303 1.363 . S
C302 C308 1.379 . S
C302 N310 1.356 . S
C303 C302 1.363 . S
C303 C309 1.363 . S
C304 C305 1.363 . S
C304 C309 1.379 . S
C304 N311 1.356 . S
C305 C304 1.363 . S
C305 C308 1.363 . S
N306 C308 1.356 . S
N306 H318 0.984 1_655 S
N306 H319 0.985 . S
N307 C309 1.356 . S
N307 H312 0.984 . S
N307 H313 0.985 . S
C308 C302 1.379 . S
C308 C305 1.363 . S
C308 N306 1.356 . S
C309 C303 1.363 . S
C309 C304 1.379 . S
C309 N307 1.356 . S
N310 C302 1.356 . S
N310 H316 0.984 . S
N310 H317 0.984 . S
N311 C304 1.356 . S
N311 H314 0.984 . S
N311 H315 0.985 . S
H312 N307 0.984 . S
H313 N307 0.985 . S
H314 N311 0.984 . S
H315 N311 0.985 . S
H316 N310 0.984 . S
H317 N310 0.984 . S
H318 N306 0.984 1_455 S
H319 N306 0.985 . S
C320 C321 1.363 . S
C320 C326 1.379 . S
C320 N328 1.356 . S
C321 C320 1.363 . S
C321 C327 1.363 . S
C322 C323 1.363 . S
C322 C327 1.379 . S
C322 N329 1.356 . S
C323 C322 1.363 . S
C323 C326 1.363 . S
N324 C326 1.356 . S
N324 H336 0.984 . S
N324 H337 0.985 . S
N325 C327 1.356 . S
N325 H330 0.984 . S
N325 H331 0.985 . S
C326 C320 1.379 . S
C326 C323 1.363 . S
C326 N324 1.356 . S
C327 C321 1.363 . S
C327 C322 1.379 . S
C327 N325 1.356 . S
N328 C320 1.356 . S
N328 H334 0.984 . S
N328 H335 0.984 . S
N329 C322 1.356 . S
N329 H332 0.984 . S
N329 H333 0.985 . S
H330 N325 0.984 . S
H331 N325 0.985 . S
H332 N329 0.984 . S
H333 N329 0.985 . S
H334 N328 0.984 . S
H335 N328 0.984 . S
H336 N324 0.984 . S
H337 N324 0.985 . S
C338 C339 1.363 . S
C338 C344 1.379 . S
C338 N346 1.356 . S
C339 C338 1.363 . S
C339 C345 1.363 . S
C340 C341 1.363 . S
C340 C345 1.379 . S
C340 N347 1.356 . S
C341 C340 1.363 . S
C341 C344 1.363 . S
N342 C344 1.356 1_545 S
N342 H354 0.984 . S
N342 H355 0.985 . S
N343 C345 1.356 . S
N343 H348 0.984 . S
N343 H349 0.985 . S
C344 C338 1.379 . S
C344 C341 1.363 . S
C344 N342 1.356 1_565 S
C345 C339 1.363 . S
C345 C340 1.379 . S
C345 N343 1.356 . S
N346 C338 1.356 . S
N346 H352 0.984 . S
N346 H353 0.984 . S
N347 C340 1.356 . S
N347 H350 0.984 . S
N347 H351 0.985 . S
H348 N343 0.984 . S
H349 N343 0.985 . S
H350 N347 0.984 . S
H351 N347 0.985 . S
H352 N346 0.984 . S
H353 N346 0.984 . S
H354 N342 0.984 . S
H355 N342 0.985 . S
C356 C357 1.363 . S
C356 C362 1.379 . S
C356 N364 1.356 . S
C357 C356 1.363 . S
C357 C363 1.363 . S
C358 C359 1.363 . S
C358 C363 1.379 . S
C358 N365 1.356 . S
C359 C358 1.363 . S
C359 C362 1.363 . S
N360 C362 1.356 1_554 S
N360 H372 0.984 . S
N360 H373 0.985 . S
N361 C363 1.356 . S
N361 H366 0.984 . S
N361 H367 0.985 . S
C362 C356 1.379 . S
C362 C359 1.363 . S
C362 N360 1.356 1_556 S
C363 C357 1.363 . S
C363 C358 1.379 . S
C363 N361 1.356 . S
N364 C356 1.356 . S
N364 H370 0.984 1_556 S
N364 H371 0.984 . S
N365 C358 1.356 . S
N365 H368 0.984 . S
N365 H369 0.985 . S
H366 N361 0.984 . S
H367 N361 0.985 . S
H368 N365 0.984 . S
H369 N365 0.985 . S
H370 N364 0.984 1_554 S
H371 N364 0.984 . S
H372 N360 0.984 . S
H373 N360 0.985 . S
C374 C375 1.363 . S
C374 C380 1.379 . S
C374 N382 1.356 . S
C375 C374 1.363 . S
C375 C381 1.363 . S
C376 C377 1.363 . S
C376 C381 1.379 . S
C376 N383 1.356 . S
C377 C376 1.363 . S
C377 C380 1.363 . S
N378 C380 1.356 . S
N378 H390 0.984 . S
N378 H391 0.985 . S
N379 C381 1.356 . S
N379 H384 0.984 . S
N379 H385 0.985 . S
C380 C374 1.379 . S
C380 C377 1.363 . S
C380 N378 1.356 . S
C381 C375 1.363 . S
C381 C376 1.379 . S
C381 N379 1.356 . S
N382 C374 1.356 . S
N382 H388 0.984 . S
N382 H389 0.984 . S
N383 C376 1.356 . S
N383 H386 0.984 . S
N383 H387 0.985 . S
H384 N379 0.984 . S
H385 N379 0.985 . S
H386 N383 0.984 . S
H387 N383 0.985 . S
H388 N382 0.984 . S
H389 N382 0.984 . S
H390 N378 0.984 . S
H391 N378 0.985 . S
C392 C393 1.363 . S
C392 C398 1.379 . S
C392 N400 1.356 . S
C393 C392 1.363 . S
C393 C399 1.363 . S
C394 C395 1.363 . S
C394 C399 1.379 . S
C394 N401 1.356 . S
C395 C394 1.363 . S
C395 C398 1.363 . S
N396 C398 1.356 . S
N396 H408 0.984 . S
N396 H409 0.985 . S
N397 C399 1.356 . S
N397 H402 0.984 . S
N397 H403 0.985 . S
C398 C392 1.379 . S
C398 C395 1.363 . S
C398 N396 1.356 . S
C399 C393 1.363 . S
C399 C394 1.379 . S
C399 N397 1.356 . S
N400 C392 1.356 . S
N400 H406 0.984 . S
N400 H407 0.984 . S
N401 C394 1.356 . S
N401 H404 0.984 . S
N401 H405 0.985 . S
H402 N397 0.984 . S
H403 N397 0.985 . S
H404 N401 0.984 . S
H405 N401 0.985 . S
H406 N400 0.984 . S
H407 N400 0.984 . S
H408 N396 0.984 . S
H409 N396 0.985 . S
C410 C411 1.363 . S
C410 C416 1.381 . S
C410 N418 1.356 . S
C411 C410 1.363 . S
C411 C417 1.363 . S
C412 C413 1.353 1_556 S
C412 C417 1.379 . S
C412 N419 1.356 . S
C413 C412 1.353 1_554 S
C413 C416 1.359 1_554 S
N414 C416 1.354 1_554 S
N414 H426 0.984 . S
N414 H427 0.985 . S
N415 C417 1.356 . S
N415 H420 0.984 . S
N415 H421 0.985 . S
C416 C410 1.381 . S
C416 C413 1.359 1_556 S
C416 N414 1.354 1_556 S
C417 C411 1.363 . S
C417 C412 1.379 . S
C417 N415 1.356 . S
N418 C410 1.356 . S
N418 H424 0.984 . S
N418 H425 0.984 . S
N419 C412 1.356 . S
N419 H422 0.984 1_556 S
N419 H423 0.985 . S
H420 N415 0.984 . S
H421 N415 0.985 . S
H422 N419 0.984 1_554 S
H423 N419 0.985 . S
H424 N418 0.984 . S
H425 N418 0.984 . S
H426 N414 0.984 . S
H427 N414 0.985 . S
C428 C429 1.363 . S
C428 C434 1.379 . S
C428 N436 1.356 . S
C429 C428 1.363 . S
C429 C435 1.363 . S
C430 C431 1.363 . S
C430 C435 1.379 . S
C430 N437 1.356 . S
C431 C430 1.363 . S
C431 C434 1.363 . S
N432 C434 1.356 . S
N432 H444 0.984 . S
N432 H445 0.985 . S
N433 C435 1.356 . S
N433 H438 0.984 . S
N433 H439 0.985 . S
C434 C428 1.379 . S
C434 C431 1.363 . S
C434 N432 1.356 . S
C435 C429 1.363 . S
C435 C430 1.379 . S
C435 N433 1.356 . S
N436 C428 1.356 . S
N436 H442 0.984 . S
N436 H443 0.984 . S
N437 C430 1.356 . S
N437 H440 0.984 . S
N437 H441 0.985 1_655 S
H438 N433 0.984 . S
H439 N433 0.985 . S
H440 N437 0.984 . S
H441 N437 0.985 1_455 S
H442 N436 0.984 . S
H443 N436 0.984 . S
H444 N432 0.984 . S
H445 N432 0.985 . S
C446 C447 1.363 . S
C446 C452 1.379 . S
C446 N454 1.356 . S
C447 C446 1.363 . S
C447 C453 1.363 . S
C448 C449 1.363 . S
C448 C453 1.379 . S
C448 N455 1.356 . S
C449 C448 1.363 . S
C449 C452 1.363 . S
N450 C452 1.356 . S
N450 H462 0.984 . S
N450 H463 0.985 . S
N451 C453 1.356 . S
N451 H456 0.984 . S
N451 H457 0.985 . S
C452 C446 1.379 . S
C452 C449 1.363 . S
C452 N450 1.356 . S
C453 C447 1.363 . S
C453 C448 1.379 . S
C453 N451 1.356 . S
N454 C446 1.356 . S
N454 H460 0.984 . S
N454 H461 0.984 . S
N455 C448 1.356 . S
N455 H458 0.984 . S
N455 H459 0.985 . S
H456 N451 0.984 . S
H457 N451 0.985 . S
H458 N455 0.984 . S
H459 N455 0.985 . S
H460 N454 0.984 . S
H461 N454 0.984 . S
H462 N450 0.984 . S
H463 N450 0.985 . S
C464 C465 1.363 . S
C464 C470 1.379 . S
C464 N472 1.356 . S
C465 C464 1.363 . S
C465 C471 1.363 . S
C466 C467 1.363 . S
C466 C471 1.379 . S
C466 N473 1.356 . S
C467 C466 1.363 . S
C467 C470 1.363 . S
N468 C470 1.356 . S
N468 H480 0.984 . S
N468 H481 0.985 . S
N469 C471 1.356 . S
N469 H474 0.984 . S
N469 H475 0.985 . S
C470 C464 1.379 . S
C470 C467 1.363 . S
C470 N468 1.356 . S
C471 C465 1.363 . S
C471 C466 1.379 . S
C471 N469 1.356 . S
N472 C464 1.356 . S
N472 H478 0.984 . S
N472 H479 0.984 . S
N473 C466 1.356 . S
N473 H476 0.984 . S
N473 H477 0.985 . S
H474 N469 0.984 . S
H475 N469 0.985 . S
H476 N473 0.984 . S
H477 N473 0.985 . S
H478 N472 0.984 . S
H479 N472 0.984 . S
H480 N468 0.984 . S
H481 N468 0.985 . S
C482 C483 1.363 . S
C482 C488 1.379 . S
C482 N490 1.356 . S
C483 C482 1.363 . S
C483 C489 1.363 . S
C484 C485 1.363 . S
C484 C489 1.379 . S
C484 N491 1.356 . S
C485 C484 1.363 . S
C485 C488 1.363 . S
N486 C488 1.356 . S
N486 H498 0.984 . S
N486 H499 0.985 . S
N487 C489 1.356 . S
N487 H492 0.984 . S
N487 H493 0.985 . S
C488 C482 1.379 . S
C488 C485 1.363 . S
C488 N486 1.356 . S
C489 C483 1.363 . S
C489 C484 1.379 . S
C489 N487 1.356 . S
N490 C482 1.356 . S
N490 H496 0.984 . S
N490 H497 0.984 . S
N491 C484 1.356 . S
N491 H494 0.984 . S
N491 H495 0.985 . S
H492 N487 0.984 . S
H493 N487 0.985 . S
H494 N491 0.984 . S
H495 N491 0.985 . S
H496 N490 0.984 . S
H497 N490 0.984 . S
H498 N486 0.984 . S
H499 N486 0.985 . S
C500 C501 1.363 . S
C500 C506 1.379 . S
C500 N508 1.356 . S
C501 C500 1.363 . S
C501 C507 1.363 . S
C502 C503 1.363 . S
C502 C507 1.379 . S
C502 N509 1.356 . S
C503 C502 1.363 . S
C503 C506 1.363 . S
N504 C506 1.356 . S
N504 H516 0.984 . S
N504 H517 0.985 . S
N505 C507 1.356 . S
N505 H510 0.984 . S
N505 H511 0.985 . S
C506 C500 1.379 . S
C506 C503 1.363 . S
C506 N504 1.356 . S
C507 C501 1.363 . S
C507 C502 1.379 . S
C507 N505 1.356 . S
N508 C500 1.356 . S
N508 H514 0.984 . S
N508 H515 0.984 . S
N509 C502 1.356 . S
N509 H512 0.984 . S
N509 H513 0.985 . S
H510 N505 0.984 . S
H511 N505 0.985 . S
H512 N509 0.984 . S
H513 N509 0.985 . S
H514 N508 0.984 . S
H515 N508 0.984 . S
H516 N504 0.984 . S
H517 N504 0.985 . S
C518 C519 1.363 . S
C518 C524 1.379 . S
C518 N526 1.356 . S
C519 C518 1.363 . S
C519 C525 1.363 . S
C520 C521 1.363 . S
C520 C525 1.379 . S
C520 N527 1.356 . S
C521 C520 1.363 . S
C521 C524 1.363 . S
N522 C524 1.356 . S
N522 H534 0.984 . S
N522 H535 0.985 . S
N523 C525 1.356 . S
N523 H528 0.984 . S
N523 H529 0.985 . S
C524 C518 1.379 . S
C524 C521 1.363 . S
C524 N522 1.356 . S
C525 C519 1.363 . S
C525 C520 1.379 . S
C525 N523 1.356 . S
N526 C518 1.356 . S
N526 H532 0.984 . S
N526 H533 0.984 . S
N527 C520 1.356 . S
N527 H530 0.984 . S
N527 H531 0.985 . S
H528 N523 0.984 . S
H529 N523 0.985 . S
H530 N527 0.984 . S
H531 N527 0.985 . S
H532 N526 0.984 . S
H533 N526 0.984 . S
H534 N522 0.984 . S
H535 N522 0.985 . S
C536 C537 1.363 . S
C536 C542 1.379 . S
C536 N544 1.356 . S
C537 C536 1.363 . S
C537 C543 1.363 . S
C538 C539 1.363 . S
C538 C543 1.379 . S
C538 N545 1.356 1_556 S
C539 C538 1.363 . S
C539 C542 1.363 . S
N540 C542 1.356 . S
N540 H552 0.984 . S
N540 H553 0.985 . S
N541 C543 1.356 . S
N541 H546 0.984 . S
N541 H547 0.985 . S
C542 C536 1.379 . S
C542 C539 1.363 . S
C542 N540 1.356 . S
C543 C537 1.363 . S
C543 C538 1.379 . S
C543 N541 1.356 . S
N544 C536 1.356 . S
N544 H550 0.984 . S
N544 H551 0.984 . S
N545 C538 1.356 1_554 S
N545 H548 0.984 . S
N545 H549 0.985 . S
H546 N541 0.984 . S
H547 N541 0.985 . S
H548 N545 0.984 . S
H549 N545 0.985 . S
H550 N544 0.984 . S
H551 N544 0.984 . S
H552 N540 0.984 . S
H553 N540 0.985 . S
C554 C555 1.363 . S
C554 C560 1.379 . S
C554 N562 1.356 . S
C555 C554 1.363 . S
C555 C561 1.363 . S
C556 C557 1.363 . S
C556 C561 1.379 . S
C556 N563 1.356 . S
C557 C556 1.363 . S
C557 C560 1.363 . S
N558 C560 1.356 . S
N558 H570 0.984 1_655 S
N558 H571 0.985 . S
N559 C561 1.356 . S
N559 H564 0.984 . S
N559 H565 0.985 . S
C560 C554 1.379 . S
C560 C557 1.363 . S
C560 N558 1.356 . S
C561 C555 1.363 . S
C561 C556 1.379 . S
C561 N559 1.356 . S
N562 C554 1.356 . S
N562 H568 0.984 . S
N562 H569 0.984 . S
N563 C556 1.356 . S
N563 H566 0.984 . S
N563 H567 0.985 . S
H564 N559 0.984 . S
H565 N559 0.985 . S
H566 N563 0.984 . S
H567 N563 0.985 . S
H568 N562 0.984 . S
H569 N562 0.984 . S
H570 N558 0.984 1_455 S
H571 N558 0.985 . S
C572 C573 1.363 . S
C572 C578 1.379 . S
C572 N580 1.356 . S
C573 C572 1.363 . S
C573 C579 1.363 . S
C574 C575 1.363 . S
C574 C579 1.379 . S
C574 N581 1.356 . S
C575 C574 1.363 . S
C575 C578 1.363 . S
N576 C578 1.356 . S
N576 H588 0.984 . S
N576 H589 0.985 . S
N577 C579 1.356 . S
N577 H582 0.984 . S
N577 H583 0.985 . S
C578 C572 1.379 . S
C578 C575 1.363 . S
C578 N576 1.356 . S
C579 C573 1.363 . S
C579 C574 1.379 . S
C579 N577 1.356 . S
N580 C572 1.356 . S
N580 H586 0.984 . S
N580 H587 0.984 . S
N581 C574 1.356 . S
N581 H584 0.984 . S
N581 H585 0.985 . S
H582 N577 0.984 . S
H583 N577 0.985 . S
H584 N581 0.984 . S
H585 N581 0.985 . S
H586 N580 0.984 . S
H587 N580 0.984 . S
H588 N576 0.984 . S
H589 N576 0.985 . S
C590 C591 1.363 . S
C590 C596 1.379 . S
C590 N598 1.356 . S
C591 C590 1.363 . S
C591 C597 1.363 . S
C592 C593 1.363 . S
C592 C597 1.379 . S
C592 N599 1.356 . S
C593 C592 1.363 . S
C593 C596 1.363 . S
N594 C596 1.356 . S
N594 H606 0.984 . S
N594 H607 0.985 . S
N595 C597 1.356 . S
N595 H600 0.984 . S
N595 H601 0.985 . S
C596 C590 1.379 . S
C596 C593 1.363 . S
C596 N594 1.356 . S
C597 C591 1.363 . S
C597 C592 1.379 . S
C597 N595 1.356 . S
N598 C590 1.356 . S
N598 H604 0.984 . S
N598 H605 0.984 . S
N599 C592 1.356 . S
N599 H602 0.984 . S
N599 H603 0.985 . S
H600 N595 0.984 . S
H601 N595 0.985 . S
H602 N599 0.984 . S
H603 N599 0.985 . S
H604 N598 0.984 . S
H605 N598 0.984 . S
H606 N594 0.984 . S
H607 N594 0.985 . S
C608 C609 1.363 . S
C608 C614 1.379 . S
C608 N616 1.356 . S
C609 C608 1.363 . S
C609 C615 1.363 . S
C610 C611 1.363 . S
C610 C615 1.379 . S
C610 N617 1.356 . S
C611 C610 1.363 . S
C611 C614 1.363 . S
N612 C614 1.356 . S
N612 H624 0.984 . S
N612 H625 0.985 . S
N613 C615 1.356 . S
N613 H618 0.984 . S
N613 H619 0.985 . S
C614 C608 1.379 . S
C614 C611 1.363 . S
C614 N612 1.356 . S
C615 C609 1.363 . S
C615 C610 1.379 . S
C615 N613 1.356 . S
N616 C608 1.356 . S
N616 H622 0.984 . S
N616 H623 0.984 . S
N617 C610 1.356 . S
N617 H620 0.984 . S
N617 H621 0.985 . S
H618 N613 0.984 . S
H619 N613 0.985 . S
H620 N617 0.984 . S
H621 N617 0.985 . S
H622 N616 0.984 . S
H623 N616 0.984 . S
H624 N612 0.984 . S
H625 N612 0.985 . S
C626 C627 1.363 . S
C626 C632 1.379 . S
C626 N634 1.356 . S
C627 C626 1.363 . S
C627 C633 1.363 . S
C628 C629 1.363 . S
C628 C633 1.379 . S
C628 N635 1.356 . S
C629 C628 1.363 . S
C629 C632 1.363 . S
N630 C632 1.356 . S
N630 H642 0.984 . S
N630 H643 0.985 . S
N631 C633 1.356 . S
N631 H636 0.984 . S
N631 H637 0.985 . S
C632 C626 1.379 . S
C632 C629 1.363 . S
C632 N630 1.356 . S
C633 C627 1.363 . S
C633 C628 1.379 . S
C633 N631 1.356 . S
N634 C626 1.356 . S
N634 H640 0.984 . S
N634 H641 0.984 . S
N635 C628 1.356 . S
N635 H638 0.984 . S
N635 H639 0.985 . S
H636 N631 0.984 . S
H637 N631 0.985 . S
H638 N635 0.984 . S
H639 N635 0.985 . S
H640 N634 0.984 . S
H641 N634 0.984 . S
H642 N630 0.984 . S
H643 N630 0.985 . S
C644 C645 1.363 . S
C644 C650 1.379 . S
C644 N652 1.356 . S
C645 C644 1.363 . S
C645 C651 1.363 . S
C646 C647 1.363 . S
C646 C651 1.379 . S
C646 N653 1.356 . S
C647 C646 1.363 . S
C647 C650 1.363 . S
N648 C650 1.356 . S
N648 H660 0.984 . S
N648 H661 0.985 . S
N649 C651 1.356 . S
N649 H654 0.984 . S
N649 H655 0.985 . S
C650 C644 1.379 . S
C650 C647 1.363 . S
C650 N648 1.356 . S
C651 C645 1.363 . S
C651 C646 1.379 . S
C651 N649 1.356 . S
N652 C644 1.356 . S
N652 H658 0.984 . S
N652 H659 0.984 . S
N653 C646 1.356 . S
N653 H656 0.984 . S
N653 H657 0.985 . S
H654 N649 0.984 . S
H655 N649 0.985 . S
H656 N653 0.984 . S
H657 N653 0.985 . S
H658 N652 0.984 . S
H659 N652 0.984 . S
H660 N648 0.984 . S
H661 N648 0.985 . S
C662 C663 1.363 . S
C662 C668 1.379 . S
C662 N670 1.356 . S
C663 C662 1.363 . S
C663 C669 1.363 . S
C664 C665 1.363 . S
C664 C669 1.379 . S
C664 N671 1.356 . S
C665 C664 1.363 . S
C665 C668 1.363 . S
N666 C668 1.356 . S
N666 H678 0.984 . S
N666 H679 0.985 . S
N667 C669 1.356 . S
N667 H672 0.984 . S
N667 H673 0.985 . S
C668 C662 1.379 . S
C668 C665 1.363 . S
C668 N666 1.356 . S
C669 C663 1.363 . S
C669 C664 1.379 . S
C669 N667 1.356 . S
N670 C662 1.356 . S
N670 H676 0.984 . S
N670 H677 0.984 . S
N671 C664 1.356 . S
N671 H674 0.984 . S
N671 H675 0.985 . S
H672 N667 0.984 . S
H673 N667 0.985 . S
H674 N671 0.984 . S
H675 N671 0.985 . S
H676 N670 0.984 . S
H677 N670 0.984 . S
H678 N666 0.984 . S
H679 N666 0.985 . S
C249 C5 1.009 . S
C251 C95 1.259 . S
C267 C18 1.051 . S
C269 C144 1.189 . S
C287 C170 2.375 . S
C285 C30 2.416 . S
C303 C41 2.207 . S
C305 C218 2.170 . S
C323 C130 2.309 . S
C321 C7 2.044 . S
C341 C98 0.847 . S
C339 C16 0.812 . S
C359 C219 2.008 . S
C357 C29 1.976 . S
C377 C187 1.392 . S
C375 C38 1.270 . S
C393 C8 1.471 . S
C395 C215 1.606 . S
C413 C147 2.564 . S
C411 C27 2.365 . S
C429 C40 2.471 . S
C431 C99 2.475 . S
C447 C19 1.069 . S
C449 C184 1.068 . S
C467 C104 1.263 . S
C465 C51 1.000 . S
C483 C62 1.507 . S
C485 C135 1.418 . S
C501 C74 2.512 . S
C503 C179 2.479 . S
C519 C84 2.272 . S
C521 C227 2.370 . S
C537 C49 1.775 . S
C539 C139 2.494 1_566 S
C557 C107 0.965 . S
C555 C63 0.974 . S
C575 C210 1.857 . S
C573 C71 1.767 . S
C593 C178 1.546 . S
C591 C85 1.522 . S
C609 C52 1.542 . S
C611 C224 1.691 . S
C629 C138 2.647 . S
C627 C73 2.719 . S
C647 C90 2.106 . S
C645 C82 1.788 . S
C663 C60 0.941 . S
C665 C175 1.036 . S
