# Generated by pormake.
# Topology wbl, (4,4)-cn, num edge types: 1
# Building blocks:
#     Node 0, Type 0, BuildingBlock: MUDLON_clean_sbu_0, # of connection points: 4
#     Node 1, Type 0, BuildingBlock: MUDLON_clean_sbu_0, # of connection points: 4
#     Node 2, Type 0, BuildingBlock: MUDLON_clean_sbu_0, # of connection points: 4
#     Node 3, Type 0, BuildingBlock: MUDLON_clean_sbu_0, # of connection points: 4
#     Node 4, Type 0, BuildingBlock: MUDLON_clean_sbu_0, # of connection points: 4
#     Node 5, Type 0, BuildingBlock: MUDLON_clean_sbu_0, # of connection points: 4
#     Node 6, Type 0, BuildingBlock: MUDLON_clean_sbu_0, # of connection points: 4
#     Node 7, Type 0, BuildingBlock: MUDLON_clean_sbu_0, # of connection points: 4
#     Node 8, Type 1, BuildingBlock: CEKHIL_clean_sbu_0, # of connection points: 4
#     Node 9, Type 1, BuildingBlock: CEKHIL_clean_sbu_0, # of connection points: 4
#     Node 10, Type 1, BuildingBlock: CEKHIL_clean_sbu_0, # of connection points: 4
#     Node 11, Type 1, BuildingBlock: CEKHIL_clean_sbu_0, # of connection points: 4
#     Node 12, Type 1, BuildingBlock: CEKHIL_clean_sbu_0, # of connection points: 4
#     Node 13, Type 1, BuildingBlock: CEKHIL_clean_sbu_0, # of connection points: 4
#     Node 14, Type 1, BuildingBlock: CEKHIL_clean_sbu_0, # of connection points: 4
#     Node 15, Type 1, BuildingBlock: CEKHIL_clean_sbu_0, # of connection points: 4
#     Edge 16, Type (0, 1), BuildingBlock: UVAHIK_clean_linker_0, # of connection points: 2
#     Edge 17, Type (0, 1), BuildingBlock: UVAHIK_clean_linker_0, # of connection points: 2
#     Edge 18, Type (0, 1), BuildingBlock: UVAHIK_clean_linker_0, # of connection points: 2
#     Edge 19, Type (0, 1), BuildingBlock: UVAHIK_clean_linker_0, # of connection points: 2
#     Edge 20, Type (0, 1), BuildingBlock: UVAHIK_clean_linker_0, # of connection points: 2
#     Edge 21, Type (0, 1), BuildingBlock: UVAHIK_clean_linker_0, # of connection points: 2
#     Edge 22, Type (0, 1), BuildingBlock: UVAHIK_clean_linker_0, # of connection points: 2
#     Edge 23, Type (0, 1), BuildingBlock: UVAHIK_clean_linker_0, # of connection points: 2
#     Edge 24, Type (0, 1), BuildingBlock: UVAHIK_clean_linker_0, # of connection points: 2
#     Edge 25, Type (0, 1), BuildingBlock: UVAHIK_clean_linker_0, # of connection points: 2
#     Edge 26, Type (0, 1), BuildingBlock: UVAHIK_clean_linker_0, # of connection points: 2
#     Edge 27, Type (0, 1), BuildingBlock: UVAHIK_clean_linker_0, # of connection points: 2
#     Edge 28, Type (0, 1), BuildingBlock: UVAHIK_clean_linker_0, # of connection points: 2
#     Edge 29, Type (0, 1), BuildingBlock: UVAHIK_clean_linker_0, # of connection points: 2
#     Edge 30, Type (0, 1), BuildingBlock: UVAHIK_clean_linker_0, # of connection points: 2
#     Edge 31, Type (0, 1), BuildingBlock: UVAHIK_clean_linker_0, # of connection points: 2
#     Edge 32, Type (0, 1), BuildingBlock: UVAHIK_clean_linker_0, # of connection points: 2
#     Edge 33, Type (0, 1), BuildingBlock: UVAHIK_clean_linker_0, # of connection points: 2
#     Edge 34, Type (0, 1), BuildingBlock: UVAHIK_clean_linker_0, # of connection points: 2
#     Edge 35, Type (0, 1), BuildingBlock: UVAHIK_clean_linker_0, # of connection points: 2
#     Edge 36, Type (0, 1), BuildingBlock: UVAHIK_clean_linker_0, # of connection points: 2
#     Edge 37, Type (0, 1), BuildingBlock: UVAHIK_clean_linker_0, # of connection points: 2
#     Edge 38, Type (0, 1), BuildingBlock: UVAHIK_clean_linker_0, # of connection points: 2
#     Edge 39, Type (0, 1), BuildingBlock: UVAHIK_clean_linker_0, # of connection points: 2
#     Edge 40, Type (0, 1), BuildingBlock: UVAHIK_clean_linker_0, # of connection points: 2
#     Edge 41, Type (0, 1), BuildingBlock: UVAHIK_clean_linker_0, # of connection points: 2
#     Edge 42, Type (0, 1), BuildingBlock: UVAHIK_clean_linker_0, # of connection points: 2
#     Edge 43, Type (0, 1), BuildingBlock: UVAHIK_clean_linker_0, # of connection points: 2
#     Edge 44, Type (0, 1), BuildingBlock: UVAHIK_clean_linker_0, # of connection points: 2
#     Edge 45, Type (0, 1), BuildingBlock: UVAHIK_clean_linker_0, # of connection points: 2
#     Edge 46, Type (0, 1), BuildingBlock: UVAHIK_clean_linker_0, # of connection points: 2
#     Edge 47, Type (0, 1), BuildingBlock: UVAHIK_clean_linker_0, # of connection points: 2
# Relax obj value: 0.232
# Max RMSD: 0.218
# Mean RMSD: 0.171
data_MOF--net-wbl--node1-MUDLON_clean_sbu_0--node2-CEKHIL_clean_sbu_0--edge1-UVAHIK_clean_linker_0
_symmetry_space_group_name_H-M    P1
_symmetry_Int_Tables_number       1
_symmetry_cell_setting            triclinic
loop_
_symmetry_equiv_pos_as_xyz
'x, y, z'
_cell_length_a     44.321377
_cell_length_b     44.543295
_cell_length_c     96.986677
_cell_angle_alpha  90.1867
_cell_angle_beta   90.145283
_cell_angle_gamma 89.984512
loop_
_atom_site_label
_atom_site_type_symbol
_atom_site_fract_x
_atom_site_fract_y
_atom_site_fract_z
_atom_type_partial_charge
Mg0 Mg 0.99244 0.0158 0.34528 0.0
C1 C 0.00193 0.95127 0.36202 0.0
O2 O 0.98154 0.93489 0.35565 0.0
C3 C 0.93022 0.01583 0.3239 0.0
O4 O 0.91536 0.99058 0.32221 0.0
C5 C 0.03471 0.99281 0.32584 0.0
O6 O 0.01451 0.97162 0.32772 0.0
O7 O 0.0312 0.01782 0.33202 0.0
O8 O 0.00573 0.97864 0.35873 0.0
O9 O 0.9854 0.05124 0.36016 0.0
C10 C 0.96785 0.04198 0.36959 0.0
O11 O 0.95681 0.01466 0.36864 0.0
O12 O 0.95319 0.01585 0.33179 0.0
Mg13 Mg 0.15126 0.49417 0.59938 0.0
C14 C 0.21421 0.51057 0.61004 0.0
O15 O 0.21833 0.52107 0.59756 0.0
C16 C 0.12216 0.46272 0.57668 0.0
O17 O 0.11294 0.49065 0.57561 0.0
C18 C 0.16961 0.5334 0.5765 0.0
O19 O 0.18118 0.50723 0.57311 0.0
O20 O 0.15359 0.53521 0.58735 0.0
O21 O 0.19107 0.49461 0.6125 0.0
O22 O 0.1154 0.48996 0.61453 0.0
C23 C 0.12113 0.46744 0.62216 0.0
O24 O 0.14576 0.45189 0.61972 0.0
O25 O 0.14195 0.45649 0.58576 0.0
Mg26 Mg 0.67292 0.64998 0.84614 0.0
C27 C 0.64145 0.70448 0.85792 0.0
O28 O 0.62261 0.69823 0.84786 0.0
C29 C 0.71748 0.63321 0.8237 0.0
O30 O 0.69433 0.63829 0.8156 0.0
C31 C 0.6348 0.66713 0.82205 0.0
O32 O 0.6558 0.68793 0.82157 0.0
O33 O 0.63645 0.64696 0.83129 0.0
O34 O 0.6665 0.6905 0.85853 0.0
O35 O 0.67294 0.61565 0.86196 0.0
C36 C 0.69155 0.62274 0.87145 0.0
O37 O 0.70637 0.64818 0.87039 0.0
O38 O 0.71579 0.64001 0.83642 0.0
Mg39 Mg 0.50837 0.17898 0.09684 0.0
C40 C 0.57014 0.17257 0.11346 0.0
O41 O 0.57513 0.14651 0.1075 0.0
C42 C 0.5247 0.12278 0.07804 0.0
O43 O 0.55267 0.13234 0.07718 0.0
C44 C 0.52031 0.21294 0.07119 0.0
O45 O 0.51952 0.1854 0.06636 0.0
O46 O 0.51061 0.21775 0.08333 0.0
O47 O 0.5465 0.18733 0.1105 0.0
O48 O 0.47179 0.17164 0.11132 0.0
C49 C 0.48032 0.1491 0.11838 0.0
O50 O 0.50672 0.13708 0.11563 0.0
O51 O 0.50559 0.13749 0.08507 0.0
Mg52 Mg 0.17597 0.50742 0.91836 0.0
C53 C 0.16103 0.54519 0.89336 0.0
O54 O 0.1464 0.52082 0.88966 0.0
C55 C 0.11064 0.49483 0.92466 0.0
O56 O 0.1095 0.49217 0.91117 0.0
C57 C 0.20379 0.54489 0.93782 0.0
O58 O 0.17606 0.55419 0.9356 0.0
O59 O 0.21227 0.52058 0.93207 0.0
O60 O 0.17342 0.54626 0.90516 0.0
O61 O 0.17954 0.47009 0.90403 0.0
C62 C 0.16387 0.44648 0.90573 0.0
O63 O 0.15323 0.44066 0.91807 0.0
O64 O 0.13542 0.50195 0.93039 0.0
Mg65 Mg 0.66165 0.66735 0.16799 0.0
C66 C 0.61212 0.65826 0.14491 0.0
O67 O 0.60999 0.62978 0.14823 0.0
C68 C 0.65637 0.62837 0.19311 0.0
O69 O 0.66096 0.65425 0.19929 0.0
C70 C 0.61998 0.70039 0.18274 0.0
O71 O 0.60797 0.67576 0.17764 0.0
O72 O 0.6482 0.70471 0.18108 0.0
O73 O 0.63117 0.67504 0.15095 0.0
O74 O 0.70537 0.65753 0.15871 0.0
C75 C 0.70291 0.63073 0.15418 0.0
O76 O 0.6768 0.61709 0.15539 0.0
O77 O 0.65314 0.62751 0.1801 0.0
Mg78 Mg 0.49059 0.15303 0.41905 0.0
C79 C 0.51256 0.21167 0.40722 0.0
O80 O 0.52763 0.21262 0.41888 0.0
C81 C 0.46108 0.11554 0.43791 0.0
O82 O 0.48702 0.10349 0.43438 0.0
C83 C 0.53128 0.16811 0.44225 0.0
O84 O 0.50635 0.18207 0.44581 0.0
O85 O 0.53162 0.15291 0.43113 0.0
O86 O 0.49158 0.19237 0.4058 0.0
O87 O 0.48761 0.11689 0.40407 0.0
C88 C 0.46075 0.11075 0.40031 0.0
O89 O 0.43833 0.12564 0.40595 0.0
O90 O 0.45467 0.14152 0.43329 0.0
Mg91 Mg 0.01135 0.99145 0.66625 0.0
C92 C 0.06438 0.99681 0.64471 0.0
O93 O 0.07598 0.01843 0.65228 0.0
C94 C 0.01464 0.02993 0.6917 0.0
O95 O 0.01112 0.00367 0.6976 0.0
C96 C 0.05196 0.95649 0.68088 0.0
O97 O 0.06493 0.98105 0.67634 0.0
O98 O 0.02376 0.95314 0.67885 0.0
O99 O 0.03954 0.98483 0.6482 0.0
O100 O 0.96731 0.00128 0.65743 0.0
C101 C 0.97034 0.02735 0.65221 0.0
O102 O 0.99695 0.04028 0.65294 0.0
O103 O 0.01882 0.03122 0.67875 0.0
Co104 Co 0.44853 0.78599 0.00587 0.0
O105 O 0.43658 0.74516 0.00324 0.0
O106 O 0.40916 0.78448 0.99706 0.0
C107 C 0.46419 0.77971 0.02781 0.0
O108 O 0.45374 0.83144 0.00776 0.0
Co109 Co 0.51638 0.79924 0.01169 0.0
O110 O 0.50186 0.8409 0.0141 0.0
C111 C 0.49676 0.77758 0.9845 0.0
C112 C 0.41197 0.75539 0.99777 0.0
C113 C 0.47505 0.84953 0.01141 0.0
O114 O 0.46939 0.78508 0.98731 0.0
O115 O 0.51801 0.77816 0.99345 0.0
O116 O 0.43577 0.78429 0.02521 0.0
O117 O 0.48118 0.77678 0.01714 0.0
Co118 Co 0.36195 0.94985 0.24691 0.0
O119 O 0.32715 0.97334 0.25129 0.0
O120 O 0.33141 0.92446 0.25508 0.0
C121 C 0.36858 0.96886 0.22564 0.0
O122 O 0.39438 0.91825 0.24325 0.0
Co123 Co 0.42318 0.98255 0.24136 0.0
O124 O 0.43779 0.94153 0.2375 0.0
C125 C 0.40112 0.97621 0.26985 0.0
C126 C 0.3152 0.94879 0.25591 0.0
C127 C 0.42231 0.91789 0.23958 0.0
O128 O 0.37942 0.95907 0.26578 0.0
O129 O 0.4193 0.98938 0.26163 0.0
O130 O 0.34905 0.94752 0.22752 0.0
O131 O 0.38098 0.9795 0.23664 0.0
Co132 Co 0.21096 0.85309 0.49524 0.0
O133 O 0.19236 0.81525 0.49907 0.0
O134 O 0.24038 0.82575 0.50322 0.0
C135 C 0.19102 0.85871 0.47397 0.0
O136 O 0.23765 0.88973 0.49201 0.0
Co137 Co 0.16874 0.90851 0.49117 0.0
O138 O 0.2074 0.92918 0.4873 0.0
C139 C 0.1781 0.88404 0.51883 0.0
C140 C 0.21834 0.80643 0.50367 0.0
C141 C 0.2335 0.91751 0.48882 0.0
O142 O 0.20023 0.86814 0.51432 0.0
O143 O 0.16039 0.89896 0.511 0.0
O144 O 0.2148 0.84205 0.47567 0.0
O145 O 0.17858 0.86838 0.48512 0.0
Co146 Co 0.2823 0.71292 0.75423 0.0
O147 O 0.24309 0.72754 0.74964 0.0
O148 O 0.28552 0.75282 0.74631 0.0
C149 C 0.26878 0.69656 0.77525 0.0
O150 O 0.3267 0.70491 0.75863 0.0
Co151 Co 0.29146 0.64505 0.75977 0.0
O152 O 0.32798 0.66013 0.76923 0.0
C153 C 0.28791 0.66658 0.7311 0.0
C154 C 0.25617 0.75192 0.74558 0.0
C155 C 0.34023 0.68501 0.76602 0.0
O156 O 0.28605 0.69394 0.73532 0.0
O157 O 0.28911 0.64392 0.73915 0.0
O158 O 0.27611 0.72449 0.77344 0.0
O159 O 0.26776 0.68017 0.76425 0.0
Co160 Co 0.88057 0.21413 0.51552 0.0
O161 O 0.91865 0.22523 0.52339 0.0
O162 O 0.87776 0.25396 0.52358 0.0
C163 C 0.89922 0.19716 0.49535 0.0
O164 O 0.83767 0.20991 0.50791 0.0
Co165 Co 0.86816 0.14712 0.50794 0.0
O166 O 0.83583 0.16557 0.49675 0.0
C167 C 0.86445 0.16701 0.53702 0.0
C168 C 0.90609 0.25045 0.52678 0.0
C169 C 0.82472 0.19123 0.49961 0.0
O170 O 0.8688 0.19457 0.53355 0.0
O171 O 0.86489 0.14507 0.52847 0.0
O172 O 0.89447 0.2257 0.49712 0.0
O173 O 0.89527 0.18066 0.50609 0.0
Co174 Co 0.94641 0.36853 0.76435 0.0
O175 O 0.93657 0.40996 0.76709 0.0
O176 O 0.90692 0.372 0.77283 0.0
C177 C 0.96296 0.37414 0.7425 0.0
O178 O 0.94846 0.32289 0.76225 0.0
Co179 Co 0.01298 0.34989 0.75898 0.0
O180 O 0.99546 0.30981 0.75568 0.0
C181 C 0.99403 0.36556 0.78714 0.0
C182 C 0.91114 0.40088 0.77217 0.0
C183 C 0.96815 0.30332 0.7584 0.0
O184 O 0.96634 0.36744 0.78319 0.0
O185 O 0.01606 0.36061 0.77896 0.0
O186 O 0.9343 0.3715 0.745 0.0
O187 O 0.98019 0.3758 0.75324 0.0
Co188 Co 0.78573 0.44333 0.01468 0.0
O189 O 0.74561 0.43613 0.02134 0.0
O190 O 0.78331 0.40357 0.02267 0.0
C191 C 0.77196 0.46204 0.99397 0.0
O192 O 0.82967 0.44257 0.00842 0.0
Co193 Co 0.80619 0.50881 0.00818 0.0
O194 O 0.84321 0.48898 0.00149 0.0
C195 C 0.80161 0.48897 0.03708 0.0
C196 C 0.75511 0.40982 0.02505 0.0
C197 C 0.84874 0.46121 0.00326 0.0
O198 O 0.79697 0.46165 0.03316 0.0
O199 O 0.80345 0.51101 0.0287 0.0
O200 O 0.77327 0.43319 0.99582 0.0
O201 O 0.77613 0.47817 0.00488 0.0
Co202 Co 0.70828 0.29915 0.26718 0.0
O203 O 0.68281 0.33279 0.263 0.0
O204 O 0.7325 0.33216 0.26042 0.0
C205 C 0.68635 0.28916 0.28769 0.0
O206 O 0.74222 0.26915 0.27115 0.0
Co207 Co 0.68224 0.23517 0.27087 0.0
O208 O 0.72075 0.2287 0.28083 0.0
C209 C 0.69108 0.25916 0.24276 0.0
C210 C 0.70722 0.34688 0.25952 0.0
C211 C 0.74386 0.24445 0.278 0.0
O212 O 0.70301 0.28327 0.24771 0.0
O213 O 0.6806 0.23797 0.25024 0.0
O214 O 0.70695 0.30982 0.2868 0.0
O215 O 0.67839 0.2769 0.27616 0.0
C216 C 0.06788 0.95694 0.3131 0.0
C217 C 0.06197 0.98639 0.31765 0.0
C218 C 0.09457 0.9502 0.30613 0.0
C219 C 0.17166 0.97929 0.30154 0.0
H220 H 0.1747 0.925 0.27019 0.0
C221 C 0.27107 0.97717 0.26475 0.0
C222 C 0.28502 0.94936 0.26228 0.0
C223 C 0.24335 0.97862 0.2714 0.0
C224 C 0.17412 0.93987 0.27904 0.0
H225 H 0.07883 0.03204 0.31801 0.0
H226 H 0.12513 0.02047 0.30557 0.0
H227 H 0.12646 0.93438 0.28177 0.0
H228 H 0.28037 0.90113 0.26438 0.0
H229 H 0.2311 0.90376 0.27597 0.0
H230 H 0.21902 0.98548 0.29856 0.0
C231 C 0.10947 0.00241 0.30769 0.0
C232 C 0.14661 0.94528 0.28567 0.0
C233 C 0.08287 0.00912 0.31474 0.0
C234 C 0.27017 0.92286 0.26623 0.0
C235 C 0.24204 0.92433 0.27279 0.0
C236 C 0.19895 0.97408 0.29488 0.0
C237 C 0.11586 0.97279 0.30352 0.0
C238 C 0.14504 0.96553 0.29683 0.0
C239 C 0.22878 0.95231 0.27564 0.0
C240 C 0.20033 0.95479 0.28343 0.0
H241 H 0.05223 0.93887 0.31521 0.0
H242 H 0.0989 0.92714 0.30316 0.0
H243 H 0.17141 0.9943 0.31034 0.0
H244 H 0.2818 0.99801 0.26179 0.0
H245 H 0.23334 0.00043 0.27333 0.0
C246 C 0.16769 0.58908 0.57256 0.0
C247 C 0.1778 0.56048 0.56853 0.0
C248 C 0.17683 0.61463 0.56533 0.0
C249 C 0.20595 0.6385 0.53155 0.0
H250 H 0.22437 0.71259 0.55094 0.0
C251 C 0.20031 0.75395 0.50603 0.0
C252 C 0.22155 0.77607 0.50957 0.0
C253 C 0.20042 0.72619 0.51259 0.0
C254 C 0.21977 0.69194 0.54538 0.0
H255 H 0.20546 0.5363 0.55376 0.0
H256 H 0.22139 0.58076 0.54124 0.0
H257 H 0.21327 0.66713 0.56404 0.0
H258 H 0.26028 0.78617 0.52244 0.0
H259 H 0.26027 0.7373 0.53416 0.0
H260 H 0.21206 0.66334 0.51291 0.0
C261 C 0.2062 0.58347 0.54988 0.0
C262 C 0.21299 0.66603 0.55288 0.0
C263 C 0.19708 0.55797 0.5571 0.0
C264 C 0.2437 0.76946 0.51949 0.0
C265 C 0.24356 0.74164 0.52624 0.0
C266 C 0.21261 0.66439 0.52407 0.0
C267 C 0.19624 0.61211 0.55392 0.0
C268 C 0.20546 0.63915 0.54604 0.0
C269 C 0.22159 0.7199 0.52298 0.0
C270 C 0.21898 0.69155 0.5309 0.0
H271 H 0.15286 0.59177 0.58133 0.0
H272 H 0.16839 0.63635 0.56857 0.0
H273 H 0.20013 0.61823 0.52595 0.0
H274 H 0.18303 0.75835 0.49837 0.0
H275 H 0.183 0.7101 0.50993 0.0
C276 C 0.60551 0.69236 0.80324 0.0
C277 C 0.60787 0.6694 0.81311 0.0
C278 C 0.57893 0.69607 0.79563 0.0
C279 C 0.50881 0.65659 0.78564 0.0
H280 H 0.47327 0.73616 0.78393 0.0
C281 C 0.38308 0.67219 0.78144 0.0
C282 C 0.37176 0.68965 0.77055 0.0
C283 C 0.41353 0.67292 0.78482 0.0
C284 C 0.48322 0.71395 0.78412 0.0
H285 H 0.58449 0.63197 0.82254 0.0
H286 H 0.53823 0.63855 0.80942 0.0
H287 H 0.52481 0.72993 0.79277 0.0
H288 H 0.38323 0.72316 0.75525 0.0
H289 H 0.43722 0.72454 0.76136 0.0
H290 H 0.46686 0.64043 0.77764 0.0
C291 C 0.55699 0.65347 0.80739 0.0
C292 C 0.51265 0.71034 0.78915 0.0
C293 C 0.58348 0.64976 0.81497 0.0
C294 C 0.39137 0.70936 0.76365 0.0
C295 C 0.42215 0.71014 0.76711 0.0
C296 C 0.47951 0.66017 0.78072 0.0
C297 C 0.55431 0.6768 0.79772 0.0
C298 C 0.5253 0.68146 0.79039 0.0
C299 C 0.4335 0.69115 0.77744 0.0
C300 C 0.46611 0.68872 0.78035 0.0
H301 H 0.62397 0.70783 0.80155 0.0
H302 H 0.57759 0.71407 0.78818 0.0
H303 H 0.5182 0.63416 0.78615 0.0
H304 H 0.3685 0.65725 0.78718 0.0
H305 H 0.42166 0.65863 0.79306 0.0
C306 C 0.53226 0.08355 0.05969 0.0
C307 C 0.51413 0.0965 0.06996 0.0
C308 C 0.52125 0.05988 0.0516 0.0
C309 C 0.46585 0.99872 0.05154 0.0
H310 H 0.48371 0.99581 0.01245 0.0
C311 C 0.44256 0.89165 0.02008 0.0
C312 C 0.46874 0.8818 0.0133 0.0
C313 C 0.44043 0.92141 0.02477 0.0
C314 C 0.4784 0.99635 0.02334 0.0
H315 H 0.47034 0.09439 0.07994 0.0
H316 H 0.45138 0.05303 0.06591 0.0
H317 H 0.49659 0.0406 0.02579 0.0
H318 H 0.51179 0.89565 0.00495 0.0
H319 H 0.50807 0.94717 0.01291 0.0
H320 H 0.44895 0.95399 0.04926 0.0
C321 C 0.47404 0.0612 0.06408 0.0
C322 C 0.48591 0.02193 0.03099 0.0
C323 C 0.48494 0.08496 0.0721 0.0
C324 C 0.49144 0.90267 0.01022 0.0
C325 C 0.48917 0.9323 0.01472 0.0
C326 C 0.45846 0.97306 0.04391 0.0
C327 C 0.49197 0.04853 0.05368 0.0
C328 C 0.48062 0.02299 0.04526 0.0
C329 C 0.46426 0.94175 0.02255 0.0
C330 C 0.46563 0.97117 0.02981 0.0
H331 H 0.5548 0.09192 0.05777 0.0
H332 H 0.5358 0.05022 0.0438 0.0
H333 H 0.4615 0.99884 0.06253 0.0
H334 H 0.4248 0.87593 0.02261 0.0
H335 H 0.42081 0.92813 0.03065 0.0
C336 C 0.25369 0.55501 0.94948 0.0
C337 C 0.22502 0.56483 0.94523 0.0
C338 C 0.27373 0.57511 0.95586 0.0
C339 C 0.29182 0.6549 0.95737 0.0
H340 H 0.33026 0.63778 0.99241 0.0
C341 C 0.36205 0.7444 0.98641 0.0
C342 C 0.38892 0.73429 0.99253 0.0
C343 C 0.34106 0.72374 0.9812 0.0
C344 C 0.31998 0.64279 0.98254 0.0
H345 H 0.19488 0.6033 0.94436 0.0
H346 H 0.22986 0.63804 0.95517 0.0
H347 H 0.29712 0.60035 0.98184 0.0
H348 H 0.41467 0.69466 0.99815 0.0
H349 H 0.37871 0.65903 0.98888 0.0
H350 H 0.31501 0.69697 0.95783 0.0
C351 C 0.23682 0.61494 0.95366 0.0
C352 C 0.30106 0.62133 0.97652 0.0
C353 C 0.21674 0.5949 0.94755 0.0
C354 C 0.39418 0.70325 0.9935 0.0
C355 C 0.37339 0.68272 0.98828 0.0
C356 C 0.31099 0.67621 0.9633 0.0
C357 C 0.26553 0.60534 0.95779 0.0
C358 C 0.28674 0.62727 0.96391 0.0
C359 C 0.34663 0.69264 0.982 0.0
C360 C 0.32529 0.67044 0.97597 0.0
H361 H 0.26064 0.53197 0.94782 0.0
H362 H 0.29585 0.56725 0.95897 0.0
H363 H 0.28118 0.65988 0.94757 0.0
H364 H 0.35733 0.76819 0.98559 0.0
H365 H 0.32046 0.73212 0.97658 0.0
C366 C 0.61028 0.74333 0.19918 0.0
C367 C 0.59984 0.7223 0.18947 0.0
C368 C 0.58975 0.76228 0.20595 0.0
C369 C 0.51313 0.79386 0.20238 0.0
H370 H 0.518 0.8065 0.24189 0.0
C371 C 0.42474 0.86555 0.23018 0.0
C372 C 0.438 0.8891 0.23767 0.0
C373 C 0.44226 0.84093 0.22608 0.0
C374 C 0.51636 0.80306 0.23085 0.0
H375 H 0.56007 0.70527 0.1789 0.0
H376 H 0.5248 0.738 0.19057 0.0
H377 H 0.55516 0.77428 0.23045 0.0
H378 H 0.47873 0.90439 0.24789 0.0
H379 H 0.50908 0.86144 0.24095 0.0
H380 H 0.47473 0.82288 0.20267 0.0
C381 C 0.54857 0.74 0.19304 0.0
C382 C 0.53775 0.78488 0.22431 0.0
C383 C 0.56885 0.72107 0.18642 0.0
C384 C 0.46814 0.88656 0.24199 0.0
C385 C 0.48544 0.86187 0.2381 0.0
C386 C 0.49177 0.81192 0.20891 0.0
C387 C 0.55867 0.76068 0.20294 0.0
C388 C 0.53646 0.7803 0.20998 0.0
C389 C 0.47306 0.83941 0.22964 0.0
C390 C 0.49331 0.81696 0.22319 0.0
H391 H 0.63405 0.74467 0.20173 0.0
H392 H 0.59817 0.77826 0.21348 0.0
H393 H 0.51173 0.79102 0.1913 0.0
H394 H 0.40151 0.8671 0.22674 0.0
H395 H 0.4321 0.82373 0.21966 0.0
C396 C 0.41323 0.10966 0.45162 0.0
C397 C 0.43906 0.09712 0.44556 0.0
C398 C 0.39229 0.09122 0.45834 0.0
C399 C 0.38257 0.01403 0.47265 0.0
H400 H 0.29777 0.02957 0.46607 0.0
C401 C 0.28754 0.92641 0.48201 0.0
C402 C 0.25976 0.93746 0.48678 0.0
C403 C 0.31092 0.94632 0.4787 0.0
C404 C 0.32135 0.0251 0.46819 0.0
H405 H 0.46311 0.05543 0.44171 0.0
H406 H 0.42652 0.02357 0.45292 0.0
H407 H 0.33526 0.06436 0.45732 0.0
H408 H 0.23548 0.97767 0.49285 0.0
H409 H 0.27621 0.01205 0.48742 0.0
H410 H 0.36848 0.97428 0.48326 0.0
C411 C 0.42268 0.04758 0.45295 0.0
C412 C 0.34287 0.04515 0.46319 0.0
C413 C 0.44363 0.06594 0.44642 0.0
C414 C 0.25641 0.9685 0.48891 0.0
C415 C 0.27973 0.98825 0.48575 0.0
C416 C 0.361 0.99388 0.47762 0.0
C417 C 0.39668 0.0599 0.45897 0.0
C418 C 0.37377 0.03976 0.46525 0.0
C419 C 0.30694 0.97753 0.48023 0.0
C420 C 0.33013 0.99913 0.47538 0.0
H421 H 0.4092 0.13363 0.45117 0.0
H422 H 0.37265 0.10149 0.46301 0.0
H423 H 0.40618 0.00939 0.4746 0.0
H424 H 0.29074 0.90259 0.48027 0.0
H425 H 0.33161 0.93736 0.47442 0.0
C426 C 0.10172 0.93232 0.68369 0.0
C427 C 0.07109 0.9334 0.68732 0.0
C428 C 0.12136 0.91269 0.69026 0.0
C429 C 0.13265 0.87259 0.72253 0.0
H430 H 0.19348 0.82963 0.70156 0.0
C431 C 0.20746 0.77909 0.74491 0.0
C432 C 0.23764 0.77711 0.74061 0.0
C433 C 0.18822 0.80054 0.73931 0.0
C434 C 0.17696 0.8419 0.70757 0.0
H435 H 0.03668 0.91437 0.70046 0.0
H436 H 0.07148 0.87966 0.71221 0.0
H437 H 0.15556 0.85934 0.68951 0.0
H438 H 0.27191 0.79684 0.72761 0.0
H439 H 0.23788 0.8345 0.71755 0.0
H440 H 0.15403 0.85488 0.74059 0.0
C441 C 0.08011 0.89425 0.70423 0.0
C442 C 0.1551 0.8587 0.70067 0.0
C443 C 0.0602 0.91384 0.69747 0.0
C444 C 0.24869 0.7979 0.73105 0.0
C445 C 0.22922 0.81925 0.72527 0.0
C446 C 0.15453 0.85571 0.72944 0.0
C447 C 0.11094 0.89371 0.70072 0.0
C448 C 0.13276 0.87427 0.70807 0.0
C449 C 0.19864 0.82033 0.72917 0.0
C450 C 0.17689 0.84019 0.72201 0.0
H451 H 0.11071 0.947 0.67582 0.0
H452 H 0.14497 0.91304 0.68741 0.0
H453 H 0.11603 0.88479 0.7285 0.0
H454 H 0.19844 0.76352 0.7524 0.0
H455 H 0.16479 0.80066 0.74246 0.0
C456 C 0.74124 0.5833 0.82644 0.0
C457 C 0.73967 0.61069 0.81934 0.0
C458 C 0.75878 0.55974 0.82134 0.0
C459 C 0.82498 0.54279 0.80159 0.0
H460 H 0.78791 0.46603 0.79295 0.0
C461 C 0.89127 0.45297 0.7727 0.0
C462 C 0.88848 0.42295 0.77685 0.0
C463 C 0.87152 0.47477 0.77761 0.0
C464 C 0.79867 0.48716 0.79549 0.0
H465 H 0.75507 0.6353 0.80151 0.0
H466 H 0.78752 0.59448 0.79297 0.0
H467 H 0.75718 0.50682 0.80252 0.0
H468 H 0.86203 0.3919 0.789 0.0
H469 H 0.82771 0.43043 0.79801 0.0
H470 H 0.86656 0.52334 0.79509 0.0
C471 C 0.77471 0.5912 0.80235 0.0
C472 C 0.78107 0.51048 0.8009 0.0
C473 C 0.7564 0.61449 0.80723 0.0
C474 C 0.86477 0.41494 0.78569 0.0
C475 C 0.84507 0.43698 0.79078 0.0
C476 C 0.84263 0.51944 0.79642 0.0
C477 C 0.7756 0.56349 0.80925 0.0
C478 C 0.79409 0.53855 0.80384 0.0
C479 C 0.84867 0.46729 0.78701 0.0
C480 C 0.82967 0.49145 0.7931 0.0
H481 H 0.72791 0.57971 0.83565 0.0
H482 H 0.75921 0.5386 0.82683 0.0
H483 H 0.83554 0.56411 0.80399 0.0
H484 H 0.90896 0.45976 0.76568 0.0
H485 H 0.87439 0.49766 0.77411 0.0
C486 C 0.56033 0.22576 0.0541 0.0
C487 C 0.54065 0.23508 0.06464 0.0
C488 C 0.58387 0.24426 0.04977 0.0
C489 C 0.62917 0.3097 0.06183 0.0
H490 H 0.65991 0.30776 0.02443 0.0
C491 C 0.70877 0.39848 0.03848 0.0
C492 C 0.73412 0.38804 0.03126 0.0
C493 C 0.68712 0.3784 0.04333 0.0
C494 C 0.65175 0.3082 0.03495 0.0
H495 H 0.52902 0.27208 0.07818 0.0
H496 H 0.56912 0.30506 0.07011 0.0
H497 H 0.61601 0.27753 0.0304 0.0
H498 H 0.75709 0.34844 0.0236 0.0
H499 H 0.71844 0.31313 0.03175 0.0
H500 H 0.6643 0.34154 0.0661 0.0
C501 C 0.56718 0.2829 0.06559 0.0
C502 C 0.62658 0.29088 0.03841 0.0
C503 C 0.54386 0.26416 0.07009 0.0
C504 C 0.73781 0.35701 0.02921 0.0
C505 C 0.7157 0.3369 0.03379 0.0
C506 C 0.65399 0.3274 0.05829 0.0
C507 C 0.58809 0.27284 0.05567 0.0
C508 C 0.6148 0.29149 0.05189 0.0
C509 C 0.69005 0.34751 0.04079 0.0
C510 C 0.66541 0.3269 0.04482 0.0
H511 H 0.55868 0.20344 0.0497 0.0
H512 H 0.59955 0.23548 0.04222 0.0
H513 H 0.62141 0.31021 0.0724 0.0
H514 H 0.70544 0.42229 0.04022 0.0
H515 H 0.66748 0.38713 0.04862 0.0
C516 C 0.89309 0.04341 0.30901 0.0
C517 C 0.9199 0.04366 0.31681 0.0
C518 C 0.88233 0.06962 0.3028 0.0
C519 C 0.88285 0.15085 0.3073 0.0
H520 H 0.84043 0.14975 0.27226 0.0
C521 C 0.79726 0.23011 0.2725 0.0
C522 C 0.77347 0.23207 0.28201 0.0
C523 C 0.82281 0.21265 0.27552 0.0
C524 C 0.85272 0.15065 0.28193 0.0
H525 H 0.95703 0.07171 0.3237 0.0
H526 H 0.93803 0.11767 0.31287 0.0
H527 H 0.87106 0.10652 0.27908 0.0
H528 H 0.7585 0.21943 0.30241 0.0
H529 H 0.8034 0.1901 0.30789 0.0
H530 H 0.86288 0.19421 0.3105 0.0
C531 C 0.92528 0.09707 0.31169 0.0
C532 C 0.87001 0.12579 0.2859 0.0
C533 C 0.93614 0.07074 0.31789 0.0
C534 C 0.77657 0.21827 0.29492 0.0
C535 C 0.8023 0.20158 0.29806 0.0
C536 C 0.86522 0.17551 0.30341 0.0
C537 C 0.89803 0.09688 0.30421 0.0
C538 C 0.88444 0.12519 0.29884 0.0
C539 C 0.82521 0.19773 0.28825 0.0
C540 C 0.84922 0.17523 0.29089 0.0
H541 H 0.87994 0.02304 0.30793 0.0
H542 H 0.86103 0.06873 0.29731 0.0
H543 H 0.89357 0.15111 0.31735 0.0
H544 H 0.79524 0.24039 0.26243 0.0
H545 H 0.84018 0.20998 0.26778 0.0
C546 C 0.08566 0.44668 0.55853 0.0
C547 C 0.10517 0.43891 0.56939 0.0
C548 C 0.06491 0.42594 0.55334 0.0
C549 C 0.02318 0.3592 0.56472 0.0
H550 H 0.99785 0.35476 0.52645 0.0
C551 C 0.94744 0.26579 0.54253 0.0
C552 C 0.92425 0.27407 0.53343 0.0
C553 C 0.96786 0.28713 0.54741 0.0
C554 C 0.00445 0.35612 0.5372 0.0
H555 H 0.11969 0.40266 0.58271 0.0
H556 H 0.08372 0.36615 0.57348 0.0
H557 H 0.03988 0.38743 0.53299 0.0
H558 H 0.90365 0.31107 0.52246 0.0
H559 H 0.94009 0.34864 0.5308 0.0
H560 H 0.9881 0.32742 0.56886 0.0
C561 C 0.08407 0.38854 0.56917 0.0
C562 C 0.02858 0.3747 0.54094 0.0
C563 C 0.10493 0.40932 0.57434 0.0
C564 C 0.9212 0.30428 0.52959 0.0
C565 C 0.94214 0.32562 0.53425 0.0
C566 C 0.99925 0.34048 0.56096 0.0
C567 C 0.06317 0.39693 0.55892 0.0
C568 C 0.0383 0.37637 0.55475 0.0
C569 C 0.9659 0.31709 0.54306 0.0
C570 C 0.98971 0.33868 0.54717 0.0
H571 H 0.08543 0.46929 0.55444 0.0
H572 H 0.04916 0.43322 0.54548 0.0
H573 H 0.02955 0.3605 0.57549 0.0
H574 H 0.95023 0.24259 0.5456 0.0
H575 H 0.98603 0.27991 0.55412 0.0
C576 C 0.58483 0.15493 0.4475 0.0
C577 C 0.55913 0.17218 0.45043 0.0
C578 C 0.61158 0.15965 0.45478 0.0
C579 C 0.65373 0.21642 0.47407 0.0
H580 H 0.70228 0.14762 0.48442 0.0
C581 C 0.77399 0.21668 0.50082 0.0
C582 C 0.79445 0.19772 0.49393 0.0
C583 C 0.7436 0.2176 0.49672 0.0
C584 C 0.68888 0.16705 0.48163 0.0
H585 H 0.54121 0.20782 0.46336 0.0
H586 H 0.58824 0.21613 0.47606 0.0
H587 H 0.65123 0.13993 0.47574 0.0
H588 H 0.79988 0.1673 0.47657 0.0
H589 H 0.74733 0.16892 0.46955 0.0
H590 H 0.69207 0.24341 0.47976 0.0
C591 C 0.58757 0.199 0.46811 0.0
C592 C 0.65976 0.16265 0.47664 0.0
C593 C 0.56065 0.19409 0.46089 0.0
C594 C 0.78458 0.18166 0.48227 0.0
C595 C 0.75448 0.18251 0.47825 0.0
C596 C 0.68304 0.22085 0.47914 0.0
C597 C 0.61329 0.18182 0.46511 0.0
C598 C 0.64225 0.18717 0.47236 0.0
C599 C 0.73352 0.19952 0.48574 0.0
C600 C 0.70113 0.19606 0.4825 0.0
H601 H 0.58439 0.13792 0.4395 0.0
H602 H 0.63117 0.14633 0.4521 0.0
H603 H 0.64069 0.23573 0.47083 0.0
H604 H 0.78102 0.22935 0.50982 0.0
H605 H 0.72776 0.23104 0.50257 0.0
C606 C 0.01236 0.05988 0.7135 0.0
C607 C 0.00642 0.05732 0.69935 0.0
C608 C 0.00191 0.08474 0.72094 0.0
C609 C 0.97052 0.16185 0.71581 0.0
H610 H 0.9543 0.15549 0.75497 0.0
C611 C 0.93576 0.26507 0.74686 0.0
C612 C 0.95911 0.27196 0.75613 0.0
C613 C 0.93317 0.23598 0.74148 0.0
C614 C 0.95833 0.15739 0.74399 0.0
H615 H 0.98402 0.07796 0.6819 0.0
H616 H 0.96446 0.1203 0.69487 0.0
H617 H 0.9673 0.11048 0.7418 0.0
H618 H 0.99608 0.25382 0.76812 0.0
H619 H 0.99086 0.20281 0.75913 0.0
H620 H 0.96128 0.20873 0.71807 0.0
C621 C 0.9784 0.10416 0.70024 0.0
C622 C 0.96625 0.13174 0.73646 0.0
C623 C 0.98961 0.07981 0.69276 0.0
C624 C 0.97782 0.24888 0.76101 0.0
C625 C 0.97479 0.21973 0.7559 0.0
C626 C 0.96192 0.18725 0.72327 0.0
C627 C 0.98447 0.10712 0.71445 0.0
C628 C 0.97328 0.13376 0.72231 0.0
C629 C 0.95347 0.21341 0.74557 0.0
C630 C 0.95648 0.18541 0.73748 0.0
H631 H 0.02513 0.04267 0.71881 0.0
H632 H 0.00772 0.0864 0.73176 0.0
H633 H 0.97626 0.16471 0.70506 0.0
H634 H 0.92132 0.28266 0.74286 0.0
H635 H 0.91658 0.23155 0.73351 0.0
C636 C 0.0844 0.49252 0.94742 0.0
C637 C 0.08432 0.48679 0.93317 0.0
C638 C 0.06011 0.48363 0.95559 0.0
C639 C 0.97967 0.46156 0.95324 0.0
H640 H 0.99281 0.43605 0.991 0.0
C641 C 0.88022 0.4302 0.98756 0.0
C642 C 0.87828 0.45052 0.99859 0.0
C643 C 0.90746 0.42679 0.98047 0.0
C644 C 0.98893 0.44283 0.98042 0.0
H645 H 0.05883 0.46713 0.9163 0.0
H646 H 0.01679 0.45104 0.93056 0.0
H647 H 0.03613 0.44684 0.97624 0.0
H648 H 0.90319 0.48116 0.01171 0.0
H649 H 0.95107 0.47439 -0.00035 0.0
H650 H 0.93251 0.45764 0.95748 0.0
C651 C 0.03528 0.46294 0.93543 0.0
C652 C 0.01364 0.44934 0.97201 0.0
C653 C 0.05943 0.4721 0.92724 0.0
C654 C 0.90438 0.46522 0.00326 0.0
C655 C 0.93171 0.46131 0.99638 0.0
C656 C 0.95507 0.4546 0.96157 0.0
C657 C 0.03531 0.46855 0.94971 0.0
C658 C 0.00928 0.45939 0.95839 0.0
C659 C 0.93309 0.44322 0.98453 0.0
C660 C 0.95944 0.44568 0.97529 0.0
H661 H 0.10323 0.50391 0.95229 0.0
H662 H 0.06066 0.48894 0.96649 0.0
H663 H 0.97534 0.46976 0.94292 0.0
H664 H 0.8602 0.41897 0.98372 0.0
H665 H 0.90809 0.41269 0.97135 0.0
C666 C 0.67444 0.5756 0.19438 0.0
C667 C 0.66062 0.60032 0.20081 0.0
C668 C 0.6813 0.54989 0.20193 0.0
C669 C 0.65666 0.5034 0.22888 0.0
H670 H 0.73953 0.47743 0.23384 0.0
C671 C 0.68242 0.39686 0.25949 0.0
C672 C 0.70571 0.3782 0.25476 0.0
C673 C 0.67907 0.42583 0.25432 0.0
C674 C 0.71625 0.4841 0.23241 0.0
H675 H 0.64273 0.61758 0.22003 0.0
H676 H 0.65336 0.57161 0.23314 0.0
H677 H 0.72883 0.52423 0.22164 0.0
H678 H 0.74435 0.37526 0.24123 0.0
H679 H 0.73765 0.42539 0.23155 0.0
H680 H 0.64356 0.46285 0.23876 0.0
C681 C 0.65938 0.57261 0.22233 0.0
C682 C 0.71022 0.51098 0.22553 0.0
C683 C 0.65323 0.59871 0.21486 0.0
C684 C 0.72622 0.38931 0.24505 0.0
C685 C 0.72243 0.41813 0.23958 0.0
C686 C 0.66258 0.47625 0.23547 0.0
C687 C 0.6738 0.54824 0.21593 0.0
C688 C 0.68039 0.52072 0.22372 0.0
C689 C 0.69842 0.43658 0.24398 0.0
C690 C 0.69246 0.46615 0.23734 0.0
H691 H 0.68079 0.57649 0.1836 0.0
H692 H 0.69229 0.53119 0.19683 0.0
H693 H 0.63347 0.51045 0.22742 0.0
H694 H 0.66659 0.38896 0.26717 0.0
H695 H 0.66097 0.43961 0.25834 0.0
C696 C 0.04461 0.95651 0.37874 0.0
C697 C 0.02223 0.93827 0.37271 0.0
C698 C 0.06456 0.94503 0.38853 0.0
C699 C 0.07468 0.88369 0.41365 0.0
H700 H 0.15737 0.91237 0.41387 0.0
C701 C 0.16324 0.84164 0.45307 0.0
C702 C 0.17767 0.86475 0.46039 0.0
C703 C 0.14648 0.84814 0.4412 0.0
C704 C 0.13436 0.90418 0.41394 0.0
H705 H 0.00331 0.89339 0.37243 0.0
H706 H 0.03848 0.87314 0.38963 0.0
H707 H 0.12327 0.92744 0.39534 0.0
H708 H 0.1873 0.91231 0.46093 0.0
H709 H 0.1589 0.92367 0.43986 0.0
H710 H 0.08597 0.86044 0.43229 0.0
C711 C 0.04034 0.89653 0.38674 0.0
C712 C 0.11473 0.91288 0.40336 0.0
C713 C 0.02023 0.90809 0.37685 0.0
C714 C 0.17636 0.89419 0.45537 0.0
C715 C 0.16019 0.90061 0.44333 0.0
C716 C 0.09443 0.87475 0.42416 0.0
C717 C 0.06291 0.91488 0.39264 0.0
C718 C 0.08445 0.90322 0.40321 0.0
C719 C 0.1444 0.87778 0.43632 0.0
C720 C 0.12433 0.88527 0.42452 0.0
H721 H 0.04689 0.97989 0.37591 0.0
H722 H 0.08109 0.96007 0.39303 0.0
H723 H 0.05148 0.87612 0.41399 0.0
H724 H 0.16381 0.81881 0.45688 0.0
H725 H 0.1347 0.8301 0.43595 0.0
C726 C 0.21654 0.52627 0.63474 0.0
C727 C 0.23047 0.5246 0.62174 0.0
C728 C 0.22855 0.54449 0.64512 0.0
C729 C 0.28587 0.57185 0.66361 0.0
H730 H 0.2504 0.65132 0.6663 0.0
C731 C 0.31279 0.64577 0.71028 0.0
C732 C 0.28799 0.66032 0.71623 0.0
C733 C 0.3109 0.63432 0.69688 0.0
C734 C 0.26054 0.62924 0.66573 0.0
H735 H 0.26881 0.53944 0.6097 0.0
H736 H 0.29038 0.57075 0.62819 0.0
H737 H 0.2378 0.61879 0.64672 0.0
H738 H 0.24227 0.6756 0.71292 0.0
H739 H 0.2382 0.65444 0.68974 0.0
H740 H 0.30706 0.58095 0.68292 0.0
C741 C 0.26986 0.55826 0.6301 0.0
C742 C 0.25352 0.61081 0.65446 0.0
C743 C 0.25762 0.54027 0.61961 0.0
C744 C 0.26176 0.66468 0.70841 0.0
C745 C 0.25957 0.65261 0.6951 0.0
C746 C 0.29272 0.59011 0.67493 0.0
C747 C 0.25491 0.561 0.64277 0.0
C748 C 0.26577 0.58186 0.65348 0.0
C749 C 0.28379 0.63634 0.68933 0.0
C750 C 0.27965 0.61884 0.67631 0.0
H751 H 0.19542 0.51483 0.6367 0.0
H752 H 0.21678 0.54639 0.65486 0.0
H753 H 0.29524 0.54941 0.66306 0.0
H754 H 0.33327 0.64231 0.71619 0.0
H755 H 0.33032 0.62277 0.69267 0.0
C756 C 0.60409 0.73882 0.86903 0.0
C757 C 0.62977 0.72045 0.87017 0.0
C758 C 0.58881 0.74859 0.88082 0.0
C759 C 0.59514 0.75345 0.91911 0.0
H760 H 0.50771 0.74856 0.91794 0.0
C761 C 0.52818 0.7472 0.96863 0.0
C762 C 0.5051 0.76844 0.97038 0.0
C763 C 0.54038 0.74177 0.95566 0.0
C764 C 0.53208 0.75027 0.91836 0.0
H765 H 0.6603 0.69896 0.88458 0.0
H766 H 0.63353 0.7154 0.90507 0.0
H767 H 0.53684 0.74089 0.8968 0.0
H768 H 0.47498 0.79902 0.95979 0.0
H769 H 0.49677 0.78965 0.93684 0.0
H770 H 0.59045 0.76185 0.94069 0.0
C771 C 0.62537 0.72288 0.89512 0.0
C772 C 0.54882 0.74605 0.90626 0.0
C773 C 0.64084 0.71344 0.88335 0.0
C774 C 0.49284 0.78259 0.9587 0.0
C775 C 0.50529 0.77725 0.94561 0.0
C776 C 0.57849 0.75734 0.93115 0.0
C777 C 0.59871 0.73994 0.89401 0.0
C778 C 0.58063 0.74713 0.90654 0.0
C779 C 0.52998 0.75763 0.94411 0.0
C780 C 0.54686 0.75528 0.93097 0.0
H781 H 0.59509 0.74464 0.85899 0.0
H782 H 0.56879 0.76226 0.87958 0.0
H783 H 0.61947 0.75517 0.91969 0.0
H784 H 0.53761 0.7355 0.97743 0.0
H785 H 0.55882 0.72591 0.95474 0.0
C786 C 0.43024 0.13658 0.12933 0.0
C787 C 0.46195 0.13558 0.1294 0.0
C788 C 0.41377 0.12028 0.13916 0.0
C789 C 0.42073 0.08876 0.17361 0.0
H790 H 0.36994 0.02218 0.16219 0.0
C791 C 0.40491 0.99138 0.20947 0.0
C792 C 0.37542 0.98181 0.21211 0.0
C793 C 0.41096 0.00959 0.19819 0.0
C794 C 0.38368 0.04096 0.16552 0.0
H795 H 0.50124 0.11773 0.13997 0.0
H796 H 0.4728 0.09023 0.15707 0.0
H797 H 0.38703 0.05906 0.14504 0.0
H798 H 0.32934 0.98171 0.20463 0.0
H799 H 0.33988 0.01444 0.18481 0.0
H800 H 0.41846 0.07061 0.19389 0.0
C801 C 0.46056 0.10324 0.14947 0.0
C802 C 0.39327 0.06208 0.15576 0.0
C803 C 0.47683 0.11896 0.13964 0.0
C804 C 0.35232 0.98884 0.20271 0.0
C805 C 0.35831 0.00757 0.19144 0.0
C806 C 0.41118 0.06789 0.18329 0.0
C807 C 0.42895 0.10348 0.14928 0.0
C808 C 0.41279 0.08549 0.15969 0.0
C809 C 0.3875 0.01915 0.18947 0.0
C810 C 0.39362 0.04309 0.17927 0.0
H811 H 0.41827 0.14902 0.12145 0.0
H812 H 0.38934 0.12074 0.13886 0.0
H813 H 0.43555 0.10678 0.1769 0.0
H814 H 0.42315 0.98583 0.21646 0.0
H815 H 0.43386 0.01738 0.19666 0.0
C816 C 0.1888 0.59149 0.88614 0.0
C817 C 0.16776 0.56873 0.88311 0.0
C818 C 0.19866 0.61097 0.87583 0.0
C819 C 0.18161 0.63697 0.8403 0.0
H820 H 0.26839 0.64686 0.83751 0.0
C821 C 0.24219 0.6586 0.78944 0.0
C822 C 0.25981 0.68472 0.78878 0.0
C823 C 0.23129 0.64849 0.80206 0.0
C824 C 0.24412 0.64463 0.83831 0.0
H825 H 0.13938 0.54964 0.8671 0.0
H826 H 0.1566 0.58343 0.84914 0.0
H827 H 0.24684 0.62279 0.8579 0.0
H828 H 0.28105 0.72006 0.80077 0.0
H829 H 0.26264 0.70153 0.82309 0.0
H830 H 0.17915 0.65732 0.82036 0.0
C831 C 0.1654 0.58641 0.85948 0.0
C832 C 0.23173 0.631 0.84997 0.0
C833 C 0.15561 0.5669 0.86976 0.0
C834 C 0.26734 0.69994 0.80103 0.0
C835 C 0.25692 0.68939 0.81374 0.0
C836 C 0.19401 0.65024 0.82862 0.0
C837 C 0.18756 0.6082 0.86231 0.0
C838 C 0.20037 0.62635 0.85092 0.0
C839 C 0.23829 0.66395 0.81427 0.0
C840 C 0.22536 0.65353 0.8274 0.0
H841 H 0.19857 0.59356 0.89635 0.0
H842 H 0.21544 0.62779 0.87838 0.0
H843 H 0.15736 0.63429 0.84086 0.0
H844 H 0.23602 0.64645 0.78016 0.0
H845 H 0.21719 0.62862 0.80228 0.0
C846 C 0.58699 0.70326 0.13504 0.0
C847 C 0.59149 0.67202 0.13476 0.0
C848 C 0.56909 0.71717 0.12514 0.0
C849 C 0.51209 0.70447 0.09791 0.0
H850 H 0.54872 0.77502 0.08161 0.0
C851 C 0.50717 0.76977 0.04363 0.0
C852 C 0.47607 0.77427 0.04179 0.0
C853 C 0.51855 0.76082 0.05635 0.0
C854 C 0.53811 0.75549 0.08613 0.0
H855 H 0.57978 0.63068 0.12422 0.0
H856 H 0.5488 0.65524 0.10655 0.0
H857 H 0.57306 0.75077 0.10114 0.0
H858 H 0.43256 0.7742 0.05196 0.0
H859 H 0.45267 0.75833 0.07439 0.0
H860 H 0.47764 0.7088 0.08247 0.0
C861 C 0.55892 0.66884 0.1146 0.0
C862 C 0.55192 0.74168 0.09736 0.0
C863 C 0.57675 0.65479 0.12465 0.0
C864 C 0.45664 0.77083 0.0531 0.0
C865 C 0.46807 0.7616 0.06588 0.0
C866 C 0.49813 0.71845 0.08668 0.0
C867 C 0.55541 0.70026 0.11462 0.0
C868 C 0.53934 0.71575 0.10325 0.0
C869 C 0.49909 0.75608 0.06753 0.0
C870 C 0.51137 0.74374 0.08053 0.0
H871 H 0.59752 0.71712 0.1429 0.0
H872 H 0.5663 0.74132 0.1256 0.0
H873 H 0.50174 0.68469 0.10233 0.0
H874 H 0.52272 0.77222 0.0351 0.0
H875 H 0.54251 0.75643 0.05729 0.0
C876 C 0.47813 0.07834 0.38071 0.0
C877 C 0.45457 0.08952 0.3889 0.0
C878 C 0.47176 0.06127 0.36895 0.0
C879 C 0.41298 0.01762 0.3506 0.0
H880 H 0.45526 0.04541 0.31812 0.0
C881 C 0.38172 0.9841 0.29395 0.0
C882 C 0.40598 0.98134 0.28473 0.0
C883 C 0.38686 0.99353 0.30758 0.0
C884 C 0.44357 0.03696 0.3271 0.0
H885 H 0.40597 0.09003 0.39167 0.0
H886 H 0.39497 0.06029 0.37111 0.0
H887 H 0.46638 0.0679 0.34036 0.0
H888 H 0.45462 0.98352 0.28276 0.0
H889 H 0.46363 0.99881 0.30645 0.0
H890 H 0.39005 0.98666 0.33717 0.0
C891 C 0.4183 0.06472 0.37378 0.0
C892 C 0.44998 0.0499 0.33986 0.0
C893 C 0.42464 0.08193 0.3855 0.0
C894 C 0.43545 0.98607 0.28958 0.0
C895 C 0.44059 0.99499 0.30314 0.0
C896 C 0.40665 0.00445 0.33776 0.0
C897 C 0.44175 0.05491 0.36518 0.0
C898 C 0.43496 0.04028 0.35177 0.0
C899 C 0.41635 -3e-05 0.31217 0.0
C900 C 0.42213 0.01383 0.32589 0.0
H901 H 0.50141 0.08365 0.3831 0.0
H902 H 0.49033 0.0536 0.3626 0.0
H903 H 0.401 0.00982 0.35962 0.0
H904 H 0.35877 0.98056 0.29044 0.0
H905 H 0.36769 0.99713 0.31429 0.0
C906 C 0.10967 0.99492 0.62906 0.0
C907 C 0.08105 0.98411 0.6328 0.0
C908 C 0.1256 0.98162 0.61816 0.0
C909 C 0.12799 0.91192 0.5968 0.0
H910 H 0.16732 0.96254 0.56984 0.0
C911 C 0.1465 0.88023 0.53988 0.0
C912 C 0.17412 0.88766 0.53377 0.0
C913 C 0.14072 0.88821 0.55356 0.0
C914 C 0.15693 0.94806 0.57742 0.0
H915 H 0.04667 0.95097 0.6279 0.0
H916 H 0.07399 0.92838 0.60893 0.0
H917 H 0.1462 0.98507 0.59067 0.0
H918 H 0.21763 0.90856 0.53703 0.0
H919 H 0.20712 0.92354 0.56095 0.0
H920 H 0.13736 0.87517 0.58313 0.0
C921 C 0.08454 0.94667 0.61453 0.0
C922 C 0.14483 0.96095 0.58936 0.0
C923 C 0.06868 0.9599 0.62536 0.0
C924 C 0.19631 0.90232 0.54164 0.0
C925 C 0.19024 0.91101 0.55524 0.0
C926 C 0.13979 0.89911 0.5848 0.0
C927 C 0.11326 0.95719 0.61082 0.0
C928 C 0.12951 0.94314 0.59903 0.0
C929 C 0.16215 0.90452 0.56123 0.0
C930 C 0.15377 0.91715 0.57485 0.0
H931 H 0.11989 0.01345 0.63462 0.0
H932 H 0.14774 0.99021 0.61561 0.0
H933 H 0.117 0.89742 0.60419 0.0
H934 H 0.12905 0.8691 0.53391 0.0
H935 H 0.1188 0.88313 0.55789 0.0
C936 C 0.69323 0.57204 0.8828 0.0
C937 C 0.69722 0.60331 0.88347 0.0
C938 C 0.7008 0.55402 0.89413 0.0
C939 C 0.70923 0.5575 0.93163 0.0
H940 H 0.76362 0.48965 0.92823 0.0
C941 C 0.76521 0.50718 0.9792 0.0
C942 C 0.76579 0.4758 0.98041 0.0
C943 C 0.75726 0.52062 0.96675 0.0
C944 C 0.74811 0.5083 0.9293 0.0
H945 H 0.71174 0.64028 0.8965 0.0
H946 H 0.72417 0.60908 0.91624 0.0
H947 H 0.74712 0.51658 0.90748 0.0
H948 H 0.75978 0.43381 0.96938 0.0
H949 H 0.74552 0.45745 0.94752 0.0
H950 H 0.71004 0.54958 0.95332 0.0
C951 C 0.71544 0.5984 0.907 0.0
C952 C 0.73866 0.52364 0.91745 0.0
C953 C 0.7084 0.61624 0.89568 0.0
C954 C 0.75935 0.45808 0.96875 0.0
C955 C 0.75133 0.4716 0.95623 0.0
C956 C 0.71848 0.54217 0.9434 0.0
C957 C 0.71183 0.56713 0.90635 0.0
C958 C 0.71957 0.54873 0.91856 0.0
C959 C 0.74955 0.50304 0.95521 0.0
C960 C 0.73851 0.51779 0.94243 0.0
H961 H 0.68493 0.56152 0.87345 0.0
H962 H 0.69779 0.52993 0.8934 0.0
H963 H 0.69413 0.57648 0.93276 0.0
H964 H 0.7704 0.52148 0.98794 0.0
H965 H 0.75683 0.54491 0.96621 0.0
C966 C 0.61451 0.16693 0.12953 0.0
C967 C 0.59038 0.18417 0.12447 0.0
C968 C 0.63162 0.17709 0.14079 0.0
C969 C 0.64903 0.2442 0.16241 0.0
H970 H 0.65943 0.18544 0.19138 0.0
C971 C 0.67372 0.27611 0.21947 0.0
C972 C 0.68902 0.25518 0.2277 0.0
C973 C 0.66708 0.26937 0.20565 0.0
C974 C 0.65746 0.20213 0.18334 0.0
H975 H 0.56625 0.22632 0.12691 0.0
H976 H 0.5958 0.24374 0.14649 0.0
H977 H 0.63877 0.16994 0.16934 0.0
H978 H 0.71158 0.21215 0.22786 0.0
H979 H 0.70174 0.20107 0.20365 0.0
H980 H 0.66744 0.27652 0.17653 0.0
C981 C 0.60171 0.2225 0.14174 0.0
C982 C 0.64548 0.19316 0.17065 0.0
C983 C 0.58459 0.21233 0.13055 0.0
C984 C 0.69944 0.22847 0.22172 0.0
C985 C 0.6935 0.22205 0.20788 0.0
C986 C 0.6613 0.25319 0.1751 0.0
C987 C 0.62505 0.20477 0.14717 0.0
C988 C 0.64071 0.21411 0.16009 0.0
C989 C 0.67611 0.24178 0.19979 0.0
C990 C 0.66534 0.2323 0.18582 0.0
H991 H 0.6197 0.14524 0.12505 0.0
H992 H 0.64971 0.16306 0.14464 0.0
H993 H 0.64587 0.26086 0.15442 0.0
H994 H 0.66531 0.29681 0.22394 0.0
H995 H 0.6535 0.28509 0.19983 0.0
C996 C 0.96399 0.09188 0.38159 0.0
C997 C 0.96059 0.06052 0.38176 0.0
C998 C 0.95674 0.10896 0.39327 0.0
C999 C 0.95461 0.10378 0.43039 0.0
H1000 H 0.897 0.16936 0.4301 0.0
C1001 C 0.90893 0.15249 0.48059 0.0
C1002 C 0.90573 0.18374 0.48176 0.0
C1003 C 0.91524 0.13927 0.4679 0.0
C1004 C 0.91348 0.15141 0.43029 0.0
H1005 H 0.94713 0.02243 0.39423 0.0
H1006 H 0.93535 0.05216 0.41463 0.0
H1007 H 0.90922 0.14314 0.40852 0.0
H1008 H 0.90607 0.2257 0.4705 0.0
H1009 H 0.91774 0.20249 0.44819 0.0
H1010 H 0.95937 0.11191 0.45197 0.0
C1011 C 0.94325 0.06352 0.40546 0.0
C1012 C 0.92037 0.13643 0.41798 0.0
C1013 C 0.94992 0.04657 0.39377 0.0
C1014 C 0.90858 0.20154 0.4699 0.0
C1015 C 0.91504 0.18825 0.45713 0.0
C1016 C 0.94802 0.11887 0.44261 0.0
C1017 C 0.94667 0.09481 0.40533 0.0
C1018 C 0.94066 0.11222 0.418 0.0
C1019 C 0.91878 0.15696 0.45605 0.0
C1020 C 0.92698 0.1425 0.44277 0.0
H1021 H 0.97203 0.10316 0.37243 0.0
H1022 H 0.95963 0.1331 0.39299 0.0
H1023 H 0.97063 0.08541 0.43061 0.0
H1024 H 0.90661 0.13811 0.48951 0.0
H1025 H 0.91729 0.11506 0.46738 0.0
C1026 C 0.07063 0.46654 0.63412 0.0
C1027 C 0.10114 0.45806 0.63356 0.0
C1028 C 0.05188 0.45545 0.64458 0.0
C1029 C 0.04873 0.39413 0.67073 0.0
H1030 H 0.99027 0.44531 0.68894 0.0
C1031 C 0.00589 0.37501 0.72591 0.0
C1032 C 0.97489 0.37824 0.72843 0.0
C1033 C 0.01778 0.38168 0.71296 0.0
C1034 C 0.0062 0.43064 0.6838 0.0
H1035 H 0.13619 0.43238 0.6438 0.0
H1036 H 0.10416 0.41409 0.6621 0.0
H1037 H 0.01781 0.46416 0.66894 0.0
H1038 H 0.93184 0.39023 0.71931 0.0
H1039 H 0.95287 0.40261 0.69667 0.0
H1040 H 0.03816 0.36121 0.68604 0.0
C1041 C 0.09417 0.42828 0.65427 0.0
C1042 C 0.02196 0.44139 0.67233 0.0
C1043 C 0.11267 0.43903 0.64381 0.0
C1044 C 0.95584 0.38749 0.71764 0.0
C1045 C 0.96784 0.39472 0.70473 0.0
C1046 C 0.03332 0.38358 0.68228 0.0
C1047 C 0.06341 0.43588 0.65471 0.0
C1048 C 0.04399 0.42353 0.66586 0.0
C1049 C 0.99898 0.39218 0.70233 0.0
C1050 C 0.01238 0.40194 0.68909 0.0
H1051 H 0.06111 0.48109 0.62631 0.0
H1052 H 0.02827 0.4617 0.64457 0.0
H1053 H 0.06487 0.37938 0.66578 0.0
H1054 H 0.02108 0.36786 0.73403 0.0
H1055 H 0.0419 0.37971 0.71141 0.0
C1056 C 0.52044 0.21354 0.38169 0.0
C1057 C 0.52598 0.22575 0.39484 0.0
C1058 C 0.53771 0.22237 0.37037 0.0
C1059 C 0.61165 0.25713 0.36187 0.0
H1060 H 0.57797 0.25793 0.32496 0.0
C1061 C 0.67626 0.29781 0.31291 0.0
C1062 C 0.67173 0.28083 0.30083 0.0
C1063 C 0.65984 0.2914 0.32489 0.0
C1064 C 0.5878 0.25754 0.33519 0.0
H1065 H 0.55281 0.25812 0.40622 0.0
H1066 H 0.58204 0.27457 0.38633 0.0
H1067 H 0.54515 0.2486 0.34451 0.0
H1068 H 0.64777 0.24282 0.29208 0.0
H1069 H 0.61946 0.23157 0.3129 0.0
H1070 H 0.65433 0.26655 0.35239 0.0
C1071 C 0.56505 0.25739 0.38485 0.0
C1072 C 0.56896 0.25216 0.34643 0.0
C1073 C 0.54802 0.24825 0.39623 0.0
C1074 C 0.65151 0.25658 0.30115 0.0
C1075 C 0.63517 0.2502 0.31307 0.0
C1076 C 0.6305 0.26282 0.35059 0.0
C1077 C 0.56068 0.244 0.37183 0.0
C1078 C 0.58061 0.25155 0.35993 0.0
C1079 C 0.63857 0.26794 0.32497 0.0
C1080 C 0.61881 0.26274 0.33711 0.0
H1081 H 0.50396 0.19583 0.38027 0.0
H1082 H 0.53387 0.21117 0.3606 0.0
H1083 H 0.62161 0.25637 0.37206 0.0
H1084 H 0.69174 0.31663 0.31297 0.0
H1085 H 0.66293 0.3055 0.3339 0.0
C1086 C 0.9491 0.07407 0.64239 0.0
C1087 C 0.94598 0.04311 0.64476 0.0
C1088 C 0.92964 0.08902 0.63348 0.0
C1089 C 0.88478 0.07285 0.60283 0.0
H1090 H 0.86823 0.15832 0.60485 0.0
C1091 C 0.84304 0.13407 0.55517 0.0
C1092 C 0.86037 0.1593 0.55169 0.0
C1093 C 0.844 0.12241 0.56849 0.0
C1094 C 0.87259 0.13443 0.60416 0.0
H1095 H 0.91855 0.00395 0.6405 0.0
H1096 H 0.88393 0.0303 0.62487 0.0
H1097 H 0.88585 0.13175 0.62537 0.0
H1098 H 0.8904 0.19364 0.55961 0.0
H1099 H 0.89273 0.17283 0.58292 0.0
H1100 H 0.87263 0.07559 0.58158 0.0
C1101 C 0.90191 0.04285 0.62979 0.0
C1102 C 0.88266 0.11918 0.6159 0.0
C1103 C 0.92155 0.02778 0.6388 0.0
C1104 C 0.87679 0.17417 0.56205 0.0
C1105 C 0.87805 0.16226 0.5754 0.0
C1106 C 0.87456 0.08802 0.59116 0.0
C1107 C 0.90639 0.07345 0.6267 0.0
C1108 C 0.88982 0.08838 0.61525 0.0
C1109 C 0.86266 0.1355 0.57857 0.0
C1110 C 0.86913 0.11913 0.59157 0.0
H1111 H 0.96751 0.08665 0.64698 0.0
H1112 H 0.93411 0.11241 0.63128 0.0
H1113 H 0.89054 0.04932 0.60184 0.0
H1114 H 0.82977 0.12247 0.54741 0.0
H1115 H 0.8313 0.10223 0.5707 0.0
C1116 C 0.13089 0.40691 0.89501 0.0
C1117 C 0.14963 0.43214 0.89351 0.0
C1118 C 0.1127 0.3971 0.88405 0.0
C1119 C 0.09933 0.40774 0.84619 0.0
H1120 H 0.01931 0.37801 0.85489 0.0
C1121 C 0.99863 0.39854 0.80781 0.0
C1122 C 0.00163 0.37004 0.80176 0.0
C1123 C 0.01282 0.40484 0.82042 0.0
C1124 C 0.04157 0.38642 0.8524 0.0
H1125 H 0.16494 0.46594 0.87906 0.0
H1126 H 0.13265 0.44983 0.86033 0.0
H1127 H 0.05437 0.39069 0.8736 0.0
H1128 H 0.01982 0.32532 0.80431 0.0
H1129 H 0.04385 0.33612 0.8266 0.0
H1130 H 0.08594 0.40416 0.82499 0.0
C1131 C 0.13231 0.43697 0.86978 0.0
C1132 C 0.06184 0.39334 0.86306 0.0
C1133 C 0.15088 0.44637 0.88061 0.0
C1134 C 0.01705 0.34736 0.80889 0.0
C1135 C 0.03074 0.3535 0.82158 0.0
C1136 C 0.07896 0.40121 0.83561 0.0
C1137 C 0.11248 0.41256 0.87141 0.0
C1138 C 0.09106 0.40412 0.8601 0.0
C1139 C 0.02962 0.38253 0.82717 0.0
C1140 C 0.05002 0.39053 0.83862 0.0
H1141 H 0.12949 0.39535 0.90479 0.0
H1142 H 0.09839 0.37772 0.88562 0.0
H1143 H 0.12168 0.41535 0.84341 0.0
H1144 H 0.98728 0.41646 0.80233 0.0
H1145 H 0.01211 0.4275 0.82451 0.0
C1146 C 0.7463 0.6285 0.13754 0.0
C1147 C 0.72737 0.61443 0.14712 0.0
C1148 C 0.76333 0.61104 0.12831 0.0
C1149 C 0.75357 0.54021 0.11064 0.0
H1150 H 0.83406 0.5524 0.09623 0.0
C1151 C 0.79068 0.47745 0.06196 0.0
C1152 C 0.80369 0.49614 0.05197 0.0
C1153 C 0.78839 0.48718 0.07567 0.0
C1154 C 0.8115 0.54874 0.10013 0.0
H1155 H 0.71384 0.57162 0.1557 0.0
H1156 H 0.74351 0.54148 0.13978 0.0
H1157 H 0.81765 0.58049 0.11665 0.0
H1158 H 0.82707 0.53836 0.04878 0.0
H1159 H 0.82259 0.55541 0.07239 0.0
H1160 H 0.74644 0.51 0.09384 0.0
C1161 C 0.74489 0.56572 0.13914 0.0
C1162 C 0.8022 0.56481 0.11181 0.0
C1163 C 0.72798 0.583 0.14826 0.0
C1164 C 0.81643 0.52361 0.05617 0.0
C1165 C 0.81418 0.53328 0.06981 0.0
C1166 C 0.76269 0.52447 0.09892 0.0
C1167 C 0.76153 0.57947 0.12864 0.0
C1168 C 0.77298 0.56096 0.11705 0.0
C1169 C 0.79915 0.51573 0.07964 0.0
C1170 C 0.79156 0.52891 0.09334 0.0
H1171 H 0.74607 0.65268 0.13643 0.0
H1172 H 0.776 0.62218 0.12028 0.0
H1173 H 0.73072 0.53713 0.11432 0.0
H1174 H 0.78085 0.45607 0.05906 0.0
H1175 H 0.77718 0.47282 0.08305 0.0
loop_
_geom_bond_atom_site_label_1
_geom_bond_atom_site_label_2
_geom_bond_distance
_geom_bond_site_symmetry_2
_ccdc_geom_bond_type
Mg0 O7 2.141 . S
Mg0 O8 2.048 1_545 S
Mg0 O9 2.048 1_455 S
Mg0 O12 2.141 1_455 S
C1 O2 1.313 . S
C1 O8 1.195 . S
O2 C1 1.313 . S
C3 O4 1.245 . S
C3 O12 1.289 . S
O4 C3 1.245 . S
C5 O6 1.245 . S
C5 O7 1.289 1_565 S
O6 C5 1.245 . S
O7 Mg0 2.141 . S
O7 C5 1.289 1_545 S
O8 Mg0 2.048 1_565 S
O8 C1 1.195 . S
O9 Mg0 2.048 1_655 S
O9 C10 1.195 . S
C10 O9 1.195 . S
C10 O11 1.344 . S
O11 C10 1.344 . S
O12 Mg0 2.141 1_655 S
O12 C3 1.289 . S
Mg13 O20 2.141 . S
Mg13 O21 2.048 . S
Mg13 O22 2.048 . S
Mg13 O25 2.141 . S
C14 O15 1.313 . S
C14 O21 1.195 . S
O15 C14 1.313 . S
C16 O17 1.245 . S
C16 O25 1.289 . S
O17 C16 1.245 . S
C18 O19 1.245 . S
C18 O20 1.289 . S
O19 C18 1.245 . S
O20 Mg13 2.141 . S
O20 C18 1.289 . S
O21 Mg13 2.048 . S
O21 C14 1.195 . S
O22 Mg13 2.048 . S
O22 C23 1.195 . S
C23 O22 1.195 . S
C23 O24 1.313 . S
O24 C23 1.313 . S
O25 Mg13 2.141 . S
O25 C16 1.289 . S
Mg26 O33 2.141 . S
Mg26 O34 2.048 . S
Mg26 O35 2.048 . S
Mg26 O38 2.141 . S
C27 O28 1.313 . S
C27 O34 1.195 . S
O28 C27 1.313 . S
C29 O30 1.245 . S
C29 O38 1.289 . S
O30 C29 1.245 . S
C31 O32 1.245 . S
C31 O33 1.289 . S
O32 C31 1.245 . S
O33 Mg26 2.141 . S
O33 C31 1.289 . S
O34 Mg26 2.048 . S
O34 C27 1.195 . S
O35 Mg26 2.048 . S
O35 C36 1.195 . S
C36 O35 1.195 . S
C36 O37 1.313 . S
O37 C36 1.313 . S
O38 Mg26 2.141 . S
O38 C29 1.289 . S
Mg39 O46 2.141 . S
Mg39 O47 2.048 . S
Mg39 O48 2.048 . S
Mg39 O51 2.141 . S
C40 O41 1.313 . S
C40 O47 1.195 . S
O41 C40 1.313 . S
C42 O43 1.245 . S
C42 O51 1.289 . S
O43 C42 1.245 . S
C44 O45 1.245 . S
C44 O46 1.289 . S
O45 C44 1.245 . S
O46 Mg39 2.141 . S
O46 C44 1.289 . S
O47 Mg39 2.048 . S
O47 C40 1.195 . S
O48 Mg39 2.048 . S
O48 C49 1.195 . S
C49 O48 1.195 . S
C49 O50 1.313 . S
O50 C49 1.313 . S
O51 Mg39 2.141 . S
O51 C42 1.289 . S
Mg52 O59 2.141 . S
Mg52 O60 2.048 . S
Mg52 O61 2.048 . S
Mg52 O64 2.141 . S
C53 O54 1.313 . S
C53 O60 1.195 . S
O54 C53 1.313 . S
C55 O56 1.245 . S
C55 O64 1.289 . S
O56 C55 1.245 . S
C57 O58 1.245 . S
C57 O59 1.289 . S
O58 C57 1.245 . S
O59 Mg52 2.141 . S
O59 C57 1.289 . S
O60 Mg52 2.048 . S
O60 C53 1.195 . S
O61 Mg52 2.048 . S
O61 C62 1.195 . S
C62 O61 1.195 . S
C62 O63 1.313 . S
O63 C62 1.313 . S
O64 Mg52 2.141 . S
O64 C55 1.289 . S
Mg65 O72 2.141 . S
Mg65 O73 2.048 . S
Mg65 O74 2.048 . S
Mg65 O77 2.141 . S
C66 O67 1.313 . S
C66 O73 1.195 . S
O67 C66 1.313 . S
C68 O69 1.245 . S
C68 O77 1.289 . S
O69 C68 1.245 . S
C70 O71 1.245 . S
C70 O72 1.289 . S
O71 C70 1.245 . S
O72 Mg65 2.141 . S
O72 C70 1.289 . S
O73 Mg65 2.048 . S
O73 C66 1.195 . S
O74 Mg65 2.048 . S
O74 C75 1.195 . S
C75 O74 1.195 . S
C75 O76 1.313 . S
O76 C75 1.313 . S
O77 Mg65 2.141 . S
O77 C68 1.289 . S
Mg78 O85 2.141 . S
Mg78 O86 2.048 . S
Mg78 O87 2.048 . S
Mg78 O90 2.141 . S
C79 O80 1.313 . S
C79 O86 1.195 . S
O80 C79 1.313 . S
C81 O82 1.245 . S
C81 O90 1.289 . S
O82 C81 1.245 . S
C83 O84 1.245 . S
C83 O85 1.289 . S
O84 C83 1.245 . S
O85 Mg78 2.141 . S
O85 C83 1.289 . S
O86 Mg78 2.048 . S
O86 C79 1.195 . S
O87 Mg78 2.048 . S
O87 C88 1.195 . S
C88 O87 1.195 . S
C88 O89 1.313 . S
O89 C88 1.313 . S
O90 Mg78 2.141 . S
O90 C81 1.289 . S
Mg91 O98 2.141 . S
Mg91 O99 2.048 . S
Mg91 O100 2.048 1_465 S
Mg91 O103 2.141 1_465 S
C92 O93 1.313 . S
C92 O99 1.195 . S
O93 C92 1.313 . S
C94 O95 1.245 1_655 S
C94 O103 1.289 . S
O95 C94 1.245 1_455 S
C96 O97 1.245 . S
C96 O98 1.289 . S
O97 C96 1.245 . S
O98 Mg91 2.141 . S
O98 C96 1.289 . S
O99 Mg91 2.048 . S
O99 C92 1.195 . S
O100 Mg91 2.048 1_645 S
O100 C101 1.195 . S
C101 O100 1.195 . S
C101 O102 1.313 1_655 S
O102 C101 1.313 1_455 S
O103 Mg91 2.141 1_645 S
O103 C94 1.289 . S
Co104 O105 2.216 1_554 S
Co104 O106 2.091 1_554 S
Co104 O108 2.004 . S
Co104 O114 2.021 1_554 S
Co104 O116 2.137 . S
Co104 O117 2.244 . S
O105 Co104 2.216 1_556 S
O105 C112 1.247 . S
O106 Co104 2.091 1_556 S
O106 C112 1.261 . S
C107 O116 1.247 . S
C107 O117 1.272 . S
O108 Co104 2.004 . S
O108 C113 1.259 . S
Co109 O110 2.061 . S
Co109 O115 2.052 1_554 S
Co109 O117 2.135 . S
O110 Co109 2.061 . S
O110 C113 1.235 . S
C111 O114 1.238 . S
C111 O115 1.241 . S
C112 O105 1.247 . S
C112 O106 1.261 . S
C113 O108 1.259 . S
C113 O110 1.235 . S
O114 Co104 2.021 1_556 S
O114 C111 1.238 . S
O115 Co109 2.052 1_556 S
O115 C111 1.241 . S
O116 Co104 2.137 . S
O116 C107 1.247 . S
O117 Co104 2.244 . S
O117 C107 1.272 . S
O117 Co109 2.135 . S
Co118 O119 2.216 . S
Co118 O120 2.091 . S
Co118 O122 2.004 . S
Co118 O128 2.021 . S
Co118 O130 2.137 . S
Co118 O131 2.244 . S
O119 Co118 2.216 . S
O119 C126 1.247 . S
O120 Co118 2.091 . S
O120 C126 1.261 . S
C121 O130 1.247 . S
C121 O131 1.272 . S
O122 Co118 2.004 . S
O122 C127 1.259 . S
Co123 O124 2.061 . S
Co123 O129 2.052 . S
Co123 O131 2.135 . S
O124 Co123 2.061 . S
O124 C127 1.235 . S
C125 O128 1.238 . S
C125 O129 1.241 . S
C126 O119 1.247 . S
C126 O120 1.261 . S
C127 O122 1.259 . S
C127 O124 1.235 . S
O128 Co118 2.021 . S
O128 C125 1.238 . S
O129 Co123 2.052 . S
O129 C125 1.241 . S
O130 Co118 2.137 . S
O130 C121 1.247 . S
O131 Co118 2.244 . S
O131 C121 1.272 . S
O131 Co123 2.135 . S
Co132 O133 2.216 . S
Co132 O134 2.091 . S
Co132 O136 2.004 . S
Co132 O142 2.021 . S
Co132 O144 2.137 . S
Co132 O145 2.244 . S
O133 Co132 2.216 . S
O133 C140 1.247 . S
O134 Co132 2.091 . S
O134 C140 1.261 . S
C135 O144 1.247 . S
C135 O145 1.272 . S
O136 Co132 2.004 . S
O136 C141 1.259 . S
Co137 O138 2.061 . S
Co137 O143 2.052 . S
Co137 O145 2.135 . S
O138 Co137 2.061 . S
O138 C141 1.235 . S
C139 O142 1.238 . S
C139 O143 1.241 . S
C140 O133 1.247 . S
C140 O134 1.261 . S
C141 O136 1.259 . S
C141 O138 1.235 . S
O142 Co132 2.021 . S
O142 C139 1.238 . S
O143 Co137 2.052 . S
O143 C139 1.241 . S
O144 Co132 2.137 . S
O144 C135 1.247 . S
O145 Co132 2.244 . S
O145 C135 1.272 . S
O145 Co137 2.135 . S
Co146 O147 2.216 . S
Co146 O148 2.091 . S
Co146 O150 2.004 . S
Co146 O156 2.021 . S
Co146 O158 2.137 . S
Co146 O159 2.244 . S
O147 Co146 2.216 . S
O147 C154 1.247 . S
O148 Co146 2.091 . S
O148 C154 1.261 . S
C149 O158 1.247 . S
C149 O159 1.272 . S
O150 Co146 2.004 . S
O150 C155 1.259 . S
Co151 O152 2.061 . S
Co151 O157 2.052 . S
Co151 O159 2.135 . S
O152 Co151 2.061 . S
O152 C155 1.235 . S
C153 O156 1.238 . S
C153 O157 1.241 . S
C154 O147 1.247 . S
C154 O148 1.261 . S
C155 O150 1.259 . S
C155 O152 1.235 . S
O156 Co146 2.021 . S
O156 C153 1.238 . S
O157 Co151 2.052 . S
O157 C153 1.241 . S
O158 Co146 2.137 . S
O158 C149 1.247 . S
O159 Co146 2.244 . S
O159 C149 1.272 . S
O159 Co151 2.135 . S
Co160 O161 2.216 . S
Co160 O162 2.091 . S
Co160 O164 2.004 . S
Co160 O170 2.021 . S
Co160 O172 2.137 . S
Co160 O173 2.244 . S
O161 Co160 2.216 . S
O161 C168 1.247 . S
O162 Co160 2.091 . S
O162 C168 1.261 . S
C163 O172 1.247 . S
C163 O173 1.272 . S
O164 Co160 2.004 . S
O164 C169 1.259 . S
Co165 O166 2.061 . S
Co165 O171 2.052 . S
Co165 O173 2.135 . S
O166 Co165 2.061 . S
O166 C169 1.235 . S
C167 O170 1.238 . S
C167 O171 1.241 . S
C168 O161 1.247 . S
C168 O162 1.261 . S
C169 O164 1.259 . S
C169 O166 1.235 . S
O170 Co160 2.021 . S
O170 C167 1.238 . S
O171 Co165 2.052 . S
O171 C167 1.241 . S
O172 Co160 2.137 . S
O172 C163 1.247 . S
O173 Co160 2.244 . S
O173 C163 1.272 . S
O173 Co165 2.135 . S
Co174 O175 2.216 . S
Co174 O176 2.091 . S
Co174 O178 2.004 . S
Co174 O184 2.021 . S
Co174 O186 2.137 . S
Co174 O187 2.244 . S
O175 Co174 2.216 . S
O175 C182 1.247 . S
O176 Co174 2.091 . S
O176 C182 1.261 . S
C177 O186 1.247 . S
C177 O187 1.272 . S
O178 Co174 2.004 . S
O178 C183 1.259 . S
Co179 O180 2.061 1_455 S
Co179 O185 2.052 1_455 S
Co179 O187 2.135 1_455 S
O180 Co179 2.061 1_655 S
O180 C183 1.235 . S
C181 O184 1.238 . S
C181 O185 1.241 . S
C182 O175 1.247 . S
C182 O176 1.261 . S
C183 O178 1.259 . S
C183 O180 1.235 . S
O184 Co174 2.021 . S
O184 C181 1.238 . S
O185 Co179 2.052 1_655 S
O185 C181 1.241 . S
O186 Co174 2.137 . S
O186 C177 1.247 . S
O187 Co174 2.244 . S
O187 C177 1.272 . S
O187 Co179 2.135 1_655 S
Co188 O189 2.216 . S
Co188 O190 2.091 . S
Co188 O192 2.004 . S
Co188 O198 2.021 . S
Co188 O200 2.137 1_554 S
Co188 O201 2.244 . S
O189 Co188 2.216 . S
O189 C196 1.247 . S
O190 Co188 2.091 . S
O190 C196 1.261 . S
C191 O200 1.247 . S
C191 O201 1.272 1_556 S
O192 Co188 2.004 . S
O192 C197 1.259 . S
Co193 O194 2.061 . S
Co193 O199 2.052 . S
Co193 O201 2.135 . S
O194 Co193 2.061 . S
O194 C197 1.235 . S
C195 O198 1.238 . S
C195 O199 1.241 . S
C196 O189 1.247 . S
C196 O190 1.261 . S
C197 O192 1.259 . S
C197 O194 1.235 . S
O198 Co188 2.021 . S
O198 C195 1.238 . S
O199 Co193 2.052 . S
O199 C195 1.241 . S
O200 Co188 2.137 1_556 S
O200 C191 1.247 . S
O201 Co188 2.244 . S
O201 C191 1.272 1_554 S
O201 Co193 2.135 . S
Co202 O203 2.216 . S
Co202 O204 2.091 . S
Co202 O206 2.004 . S
Co202 O212 2.021 . S
Co202 O214 2.137 . S
Co202 O215 2.244 . S
O203 Co202 2.216 . S
O203 C210 1.247 . S
O204 Co202 2.091 . S
O204 C210 1.261 . S
C205 O214 1.247 . S
C205 O215 1.272 . S
O206 Co202 2.004 . S
O206 C211 1.259 . S
Co207 O208 2.061 . S
Co207 O213 2.052 . S
Co207 O215 2.135 . S
O208 Co207 2.061 . S
O208 C211 1.235 . S
C209 O212 1.238 . S
C209 O213 1.241 . S
C210 O203 1.247 . S
C210 O204 1.261 . S
C211 O206 1.259 . S
C211 O208 1.235 . S
O212 Co202 2.021 . S
O212 C209 1.238 . S
O213 Co207 2.052 . S
O213 C209 1.241 . S
O214 Co202 2.137 . S
O214 C205 1.247 . S
O215 Co202 2.244 . S
O215 C205 1.272 . S
O215 Co207 2.135 . S
C216 C217 1.349 . S
C216 C218 1.327 . S
C216 H241 0.950 . S
C217 C216 1.349 . S
C217 C233 1.331 1_565 S
C218 C216 1.327 . S
C218 C237 1.429 . S
C218 H242 0.950 . S
C219 C236 1.574 . S
C219 C238 1.368 . S
C219 H243 0.949 1_565 S
H220 C224 0.949 . S
C221 C222 1.349 . S
C221 C223 1.327 . S
C221 H244 0.950 . S
C222 C221 1.349 . S
C222 C234 1.349 . S
C223 C221 1.327 . S
C223 C239 1.429 . S
C223 H245 0.950 . S
C224 H220 0.949 . S
C224 C232 1.574 . S
C224 C240 1.368 . S
H225 C233 0.972 . S
H226 C231 0.950 1_545 S
H227 C232 0.949 . S
H228 C234 0.950 . S
H229 C235 0.950 . S
H230 C236 0.949 . S
C231 H226 0.950 1_565 S
C231 C233 1.324 1_565 S
C231 C237 1.429 . S
C232 C224 1.574 . S
C232 H227 0.949 . S
C232 C238 1.368 . S
C233 C217 1.331 1_545 S
C233 H225 0.972 . S
C233 C231 1.324 1_545 S
C234 C222 1.349 . S
C234 H228 0.950 . S
C234 C235 1.327 . S
C235 H229 0.950 . S
C235 C234 1.327 . S
C235 C239 1.429 . S
C236 C219 1.574 . S
C236 H230 0.949 . S
C236 C240 1.368 . S
C237 C218 1.429 . S
C237 C231 1.429 . S
C237 C238 1.523 . S
C238 C219 1.368 . S
C238 C232 1.368 . S
C238 C237 1.523 . S
C239 C223 1.429 . S
C239 C235 1.429 . S
C239 C240 1.523 . S
C240 C224 1.368 . S
C240 C236 1.368 . S
C240 C239 1.523 . S
H241 C216 0.950 . S
H242 C218 0.950 . S
H243 C219 0.949 1_545 S
H244 C221 0.950 . S
H245 C223 0.950 . S
C246 C247 1.349 . S
C246 C248 1.327 . S
C246 H271 0.950 . S
C247 C246 1.349 . S
C247 C263 1.349 . S
C248 C246 1.327 . S
C248 C267 1.429 . S
C248 H272 0.950 . S
C249 C266 1.574 . S
C249 C268 1.368 . S
C249 H273 0.949 . S
H250 C254 0.949 . S
C251 C252 1.349 . S
C251 C253 1.327 . S
C251 H274 0.950 . S
C252 C251 1.349 . S
C252 C264 1.349 . S
C253 C251 1.327 . S
C253 C269 1.429 . S
C253 H275 0.950 . S
C254 H250 0.949 . S
C254 C262 1.574 . S
C254 C270 1.368 . S
H255 C263 0.950 . S
H256 C261 0.950 . S
H257 C262 0.949 . S
H258 C264 0.950 . S
H259 C265 0.950 . S
H260 C266 0.949 . S
C261 H256 0.950 . S
C261 C263 1.327 . S
C261 C267 1.429 . S
C262 C254 1.574 . S
C262 H257 0.949 . S
C262 C268 1.368 . S
C263 C247 1.349 . S
C263 H255 0.950 . S
C263 C261 1.327 . S
C264 C252 1.349 . S
C264 H258 0.950 . S
C264 C265 1.327 . S
C265 H259 0.950 . S
C265 C264 1.327 . S
C265 C269 1.429 . S
C266 C249 1.574 . S
C266 H260 0.949 . S
C266 C270 1.368 . S
C267 C248 1.429 . S
C267 C261 1.429 . S
C267 C268 1.523 . S
C268 C249 1.368 . S
C268 C262 1.368 . S
C268 C267 1.523 . S
C269 C253 1.429 . S
C269 C265 1.429 . S
C269 C270 1.523 . S
C270 C254 1.368 . S
C270 C266 1.368 . S
C270 C269 1.523 . S
H271 C246 0.950 . S
H272 C248 0.950 . S
H273 C249 0.949 . S
H274 C251 0.950 . S
H275 C253 0.950 . S
C276 C277 1.349 . S
C276 C278 1.327 . S
C276 H301 0.950 . S
C277 C276 1.349 . S
C277 C293 1.349 . S
C278 C276 1.327 . S
C278 C297 1.429 . S
C278 H302 0.950 . S
C279 C296 1.574 . S
C279 C298 1.368 . S
C279 H303 0.949 . S
H280 C284 0.949 . S
C281 C282 1.349 . S
C281 C283 1.327 . S
C281 H304 0.950 . S
C282 C281 1.349 . S
C282 C294 1.349 . S
C283 C281 1.327 . S
C283 C299 1.429 . S
C283 H305 0.950 . S
C284 H280 0.949 . S
C284 C292 1.574 . S
C284 C300 1.368 . S
H285 C293 0.950 . S
H286 C291 0.950 . S
H287 C292 0.949 . S
H288 C294 0.950 . S
H289 C295 0.950 . S
H290 C296 0.949 . S
C291 H286 0.950 . S
C291 C293 1.327 . S
C291 C297 1.429 . S
C292 C284 1.574 . S
C292 H287 0.949 . S
C292 C298 1.368 . S
C293 C277 1.349 . S
C293 H285 0.950 . S
C293 C291 1.327 . S
C294 C282 1.349 . S
C294 H288 0.950 . S
C294 C295 1.327 . S
C295 H289 0.950 . S
C295 C294 1.327 . S
C295 C299 1.429 . S
C296 C279 1.574 . S
C296 H290 0.949 . S
C296 C300 1.368 . S
C297 C278 1.429 . S
C297 C291 1.429 . S
C297 C298 1.523 . S
C298 C279 1.368 . S
C298 C292 1.368 . S
C298 C297 1.523 . S
C299 C283 1.429 . S
C299 C295 1.429 . S
C299 C300 1.523 . S
C300 C284 1.368 . S
C300 C296 1.368 . S
C300 C299 1.523 . S
H301 C276 0.950 . S
H302 C278 0.950 . S
H303 C279 0.949 . S
H304 C281 0.950 . S
H305 C283 0.950 . S
C306 C307 1.349 . S
C306 C308 1.327 . S
C306 H331 0.950 . S
C307 C306 1.349 . S
C307 C323 1.349 . S
C308 C306 1.327 . S
C308 C327 1.429 . S
C308 H332 0.950 . S
C309 C326 1.574 . S
C309 C328 1.368 1_565 S
C309 H333 0.949 . S
H310 C314 0.949 . S
C311 C312 1.349 . S
C311 C313 1.327 . S
C311 H334 0.950 . S
C312 C311 1.349 . S
C312 C324 1.349 . S
C313 C311 1.327 . S
C313 C329 1.429 . S
C313 H335 0.950 . S
C314 H310 0.949 . S
C314 C322 1.574 1_565 S
C314 C330 1.368 . S
H315 C323 0.950 . S
H316 C321 0.950 . S
H317 C322 0.949 . S
H318 C324 0.950 1_556 S
H319 C325 0.950 . S
H320 C326 0.949 . S
C321 H316 0.950 . S
C321 C323 1.327 . S
C321 C327 1.429 . S
C322 C314 1.574 1_545 S
C322 H317 0.949 . S
C322 C328 1.368 . S
C323 C307 1.349 . S
C323 H315 0.950 . S
C323 C321 1.327 . S
C324 C312 1.349 . S
C324 H318 0.950 1_554 S
C324 C325 1.327 . S
C325 H319 0.950 . S
C325 C324 1.327 . S
C325 C329 1.429 . S
C326 C309 1.574 . S
C326 H320 0.949 . S
C326 C330 1.368 . S
C327 C308 1.429 . S
C327 C321 1.429 . S
C327 C328 1.523 . S
C328 C309 1.368 1_545 S
C328 C322 1.368 . S
C328 C327 1.523 . S
C329 C313 1.429 . S
C329 C325 1.429 . S
C329 C330 1.523 . S
C330 C314 1.368 . S
C330 C326 1.368 . S
C330 C329 1.523 . S
H331 C306 0.950 . S
H332 C308 0.950 . S
H333 C309 0.949 . S
H334 C311 0.950 . S
H335 C313 0.950 . S
C336 C337 1.349 . S
C336 C338 1.327 . S
C336 H361 0.950 . S
C337 C336 1.349 . S
C337 C353 1.349 . S
C338 C336 1.327 . S
C338 C357 1.429 . S
C338 H362 0.950 . S
C339 C356 1.574 . S
C339 C358 1.368 . S
C339 H363 0.949 . S
H340 C344 0.949 . S
C341 C342 1.349 . S
C341 C343 1.327 . S
C341 H364 0.950 . S
C342 C341 1.349 . S
C342 C354 1.349 . S
C343 C341 1.327 . S
C343 C359 1.429 . S
C343 H365 0.950 . S
C344 H340 0.949 . S
C344 C352 1.574 . S
C344 C360 1.368 . S
H345 C353 0.950 . S
H346 C351 0.950 . S
H347 C352 0.949 . S
H348 C354 0.950 1_554 S
H349 C355 0.950 . S
H350 C356 0.949 . S
C351 H346 0.950 . S
C351 C353 1.327 . S
C351 C357 1.429 . S
C352 C344 1.574 . S
C352 H347 0.949 . S
C352 C358 1.368 . S
C353 C337 1.349 . S
C353 H345 0.950 . S
C353 C351 1.327 . S
C354 C342 1.349 . S
C354 H348 0.950 1_556 S
C354 C355 1.327 . S
C355 H349 0.950 . S
C355 C354 1.327 . S
C355 C359 1.429 . S
C356 C339 1.574 . S
C356 H350 0.949 . S
C356 C360 1.368 . S
C357 C338 1.429 . S
C357 C351 1.429 . S
C357 C358 1.523 . S
C358 C339 1.368 . S
C358 C352 1.368 . S
C358 C357 1.523 . S
C359 C343 1.429 . S
C359 C355 1.429 . S
C359 C360 1.523 . S
C360 C344 1.368 . S
C360 C356 1.368 . S
C360 C359 1.523 . S
H361 C336 0.950 . S
H362 C338 0.950 . S
H363 C339 0.949 . S
H364 C341 0.950 . S
H365 C343 0.950 . S
C366 C367 1.349 . S
C366 C368 1.327 . S
C366 H391 0.950 . S
C367 C366 1.349 . S
C367 C383 1.349 . S
C368 C366 1.327 . S
C368 C387 1.429 . S
C368 H392 0.950 . S
C369 C386 1.574 . S
C369 C388 1.368 . S
C369 H393 0.949 . S
H370 C374 0.949 . S
C371 C372 1.349 . S
C371 C373 1.327 . S
C371 H394 0.950 . S
C372 C371 1.349 . S
C372 C384 1.349 . S
C373 C371 1.327 . S
C373 C389 1.429 . S
C373 H395 0.950 . S
C374 H370 0.949 . S
C374 C382 1.574 . S
C374 C390 1.368 . S
H375 C383 0.950 . S
H376 C381 0.950 . S
H377 C382 0.949 . S
H378 C384 0.950 . S
H379 C385 0.950 . S
H380 C386 0.949 . S
C381 H376 0.950 . S
C381 C383 1.327 . S
C381 C387 1.429 . S
C382 C374 1.574 . S
C382 H377 0.949 . S
C382 C388 1.368 . S
C383 C367 1.349 . S
C383 H375 0.950 . S
C383 C381 1.327 . S
C384 C372 1.349 . S
C384 H378 0.950 . S
C384 C385 1.327 . S
C385 H379 0.950 . S
C385 C384 1.327 . S
C385 C389 1.429 . S
C386 C369 1.574 . S
C386 H380 0.949 . S
C386 C390 1.368 . S
C387 C368 1.429 . S
C387 C381 1.429 . S
C387 C388 1.523 . S
C388 C369 1.368 . S
C388 C382 1.368 . S
C388 C387 1.523 . S
C389 C373 1.429 . S
C389 C385 1.429 . S
C389 C390 1.523 . S
C390 C374 1.368 . S
C390 C386 1.368 . S
C390 C389 1.523 . S
H391 C366 0.950 . S
H392 C368 0.950 . S
H393 C369 0.949 . S
H394 C371 0.950 . S
H395 C373 0.950 . S
C396 C397 1.349 . S
C396 C398 1.327 . S
C396 H421 0.950 . S
C397 C396 1.349 . S
C397 C413 1.349 . S
C398 C396 1.327 . S
C398 C417 1.429 . S
C398 H422 0.950 . S
C399 C416 1.574 . S
C399 C418 1.368 1_565 S
C399 H423 0.949 . S
H400 C404 0.949 . S
C401 C402 1.349 . S
C401 C403 1.327 . S
C401 H424 0.950 . S
C402 C401 1.349 . S
C402 C414 1.349 . S
C403 C401 1.327 . S
C403 C419 1.429 . S
C403 H425 0.950 . S
C404 H400 0.949 . S
C404 C412 1.574 . S
C404 C420 1.368 1_545 S
H405 C413 0.950 . S
H406 C411 0.950 . S
H407 C412 0.949 . S
H408 C414 0.950 . S
H409 C415 0.950 . S
H410 C416 0.949 . S
C411 H406 0.950 . S
C411 C413 1.327 . S
C411 C417 1.429 . S
C412 C404 1.574 . S
C412 H407 0.949 . S
C412 C418 1.368 . S
C413 C397 1.349 . S
C413 H405 0.950 . S
C413 C411 1.327 . S
C414 C402 1.349 . S
C414 H408 0.950 . S
C414 C415 1.327 . S
C415 H409 0.950 . S
C415 C414 1.327 . S
C415 C419 1.429 . S
C416 C399 1.574 . S
C416 H410 0.949 . S
C416 C420 1.368 . S
C417 C398 1.429 . S
C417 C411 1.429 . S
C417 C418 1.523 . S
C418 C399 1.368 1_545 S
C418 C412 1.368 . S
C418 C417 1.523 . S
C419 C403 1.429 . S
C419 C415 1.429 . S
C419 C420 1.523 . S
C420 C404 1.368 1_565 S
C420 C416 1.368 . S
C420 C419 1.523 . S
H421 C396 0.950 . S
H422 C398 0.950 . S
H423 C399 0.949 . S
H424 C401 0.950 . S
H425 C403 0.950 . S
C426 C427 1.349 . S
C426 C428 1.327 . S
C426 H451 0.950 . S
C427 C426 1.349 . S
C427 C443 1.349 . S
C428 C426 1.327 . S
C428 C447 1.429 . S
C428 H452 0.950 . S
C429 C446 1.574 . S
C429 C448 1.368 . S
C429 H453 0.949 . S
H430 C434 0.949 . S
C431 C432 1.349 . S
C431 C433 1.327 . S
C431 H454 0.950 . S
C432 C431 1.349 . S
C432 C444 1.349 . S
C433 C431 1.327 . S
C433 C449 1.429 . S
C433 H455 0.950 . S
C434 H430 0.949 . S
C434 C442 1.574 . S
C434 C450 1.368 . S
H435 C443 0.950 . S
H436 C441 0.950 . S
H437 C442 0.949 . S
H438 C444 0.950 . S
H439 C445 0.950 . S
H440 C446 0.949 . S
C441 H436 0.950 . S
C441 C443 1.327 . S
C441 C447 1.429 . S
C442 C434 1.574 . S
C442 H437 0.949 . S
C442 C448 1.368 . S
C443 C427 1.349 . S
C443 H435 0.950 . S
C443 C441 1.327 . S
C444 C432 1.349 . S
C444 H438 0.950 . S
C444 C445 1.327 . S
C445 H439 0.950 . S
C445 C444 1.327 . S
C445 C449 1.429 . S
C446 C429 1.574 . S
C446 H440 0.949 . S
C446 C450 1.368 . S
C447 C428 1.429 . S
C447 C441 1.429 . S
C447 C448 1.523 . S
C448 C429 1.368 . S
C448 C442 1.368 . S
C448 C447 1.523 . S
C449 C433 1.429 . S
C449 C445 1.429 . S
C449 C450 1.523 . S
C450 C434 1.368 . S
C450 C446 1.368 . S
C450 C449 1.523 . S
H451 C426 0.950 . S
H452 C428 0.950 . S
H453 C429 0.949 . S
H454 C431 0.950 . S
H455 C433 0.950 . S
C456 C457 1.349 . S
C456 C458 1.327 . S
C456 H481 0.950 . S
C457 C456 1.349 . S
C457 C473 1.349 . S
C458 C456 1.327 . S
C458 C477 1.429 . S
C458 H482 0.950 . S
C459 C476 1.574 . S
C459 C478 1.368 . S
C459 H483 0.949 . S
H460 C464 0.949 . S
C461 C462 1.349 . S
C461 C463 1.327 . S
C461 H484 0.950 . S
C462 C461 1.349 . S
C462 C474 1.349 . S
C463 C461 1.327 . S
C463 C479 1.429 . S
C463 H485 0.950 . S
C464 H460 0.949 . S
C464 C472 1.574 . S
C464 C480 1.368 . S
H465 C473 0.950 . S
H466 C471 0.950 . S
H467 C472 0.949 . S
H468 C474 0.950 . S
H469 C475 0.950 . S
H470 C476 0.949 . S
C471 H466 0.950 . S
C471 C473 1.327 . S
C471 C477 1.429 . S
C472 C464 1.574 . S
C472 H467 0.949 . S
C472 C478 1.368 . S
C473 C457 1.349 . S
C473 H465 0.950 . S
C473 C471 1.327 . S
C474 C462 1.349 . S
C474 H468 0.950 . S
C474 C475 1.327 . S
C475 H469 0.950 . S
C475 C474 1.327 . S
C475 C479 1.429 . S
C476 C459 1.574 . S
C476 H470 0.949 . S
C476 C480 1.368 . S
C477 C458 1.429 . S
C477 C471 1.429 . S
C477 C478 1.523 . S
C478 C459 1.368 . S
C478 C472 1.368 . S
C478 C477 1.523 . S
C479 C463 1.429 . S
C479 C475 1.429 . S
C479 C480 1.523 . S
C480 C464 1.368 . S
C480 C476 1.368 . S
C480 C479 1.523 . S
H481 C456 0.950 . S
H482 C458 0.950 . S
H483 C459 0.949 . S
H484 C461 0.950 . S
H485 C463 0.950 . S
C486 C487 1.349 . S
C486 C488 1.327 . S
C486 H511 0.950 . S
C487 C486 1.349 . S
C487 C503 1.349 . S
C488 C486 1.327 . S
C488 C507 1.429 . S
C488 H512 0.950 . S
C489 C506 1.574 . S
C489 C508 1.368 . S
C489 H513 0.949 . S
H490 C494 0.949 . S
C491 C492 1.349 . S
C491 C493 1.327 . S
C491 H514 0.950 . S
C492 C491 1.349 . S
C492 C504 1.349 . S
C493 C491 1.327 . S
C493 C509 1.429 . S
C493 H515 0.950 . S
C494 H490 0.949 . S
C494 C502 1.574 . S
C494 C510 1.368 . S
H495 C503 0.950 . S
H496 C501 0.950 . S
H497 C502 0.949 . S
H498 C504 0.950 . S
H499 C505 0.950 . S
H500 C506 0.949 . S
C501 H496 0.950 . S
C501 C503 1.327 . S
C501 C507 1.429 . S
C502 C494 1.574 . S
C502 H497 0.949 . S
C502 C508 1.368 . S
C503 C487 1.349 . S
C503 H495 0.950 . S
C503 C501 1.327 . S
C504 C492 1.349 . S
C504 H498 0.950 . S
C504 C505 1.327 . S
C505 H499 0.950 . S
C505 C504 1.327 . S
C505 C509 1.429 . S
C506 C489 1.574 . S
C506 H500 0.949 . S
C506 C510 1.368 . S
C507 C488 1.429 . S
C507 C501 1.429 . S
C507 C508 1.523 . S
C508 C489 1.368 . S
C508 C502 1.368 . S
C508 C507 1.523 . S
C509 C493 1.429 . S
C509 C505 1.429 . S
C509 C510 1.523 . S
C510 C494 1.368 . S
C510 C506 1.368 . S
C510 C509 1.523 . S
H511 C486 0.950 . S
H512 C488 0.950 . S
H513 C489 0.949 . S
H514 C491 0.950 . S
H515 C493 0.950 . S
C516 C517 1.349 . S
C516 C518 1.327 . S
C516 H541 0.950 . S
C517 C516 1.349 . S
C517 C533 1.349 . S
C518 C516 1.327 . S
C518 C537 1.429 . S
C518 H542 0.950 . S
C519 C536 1.574 . S
C519 C538 1.368 . S
C519 H543 0.949 . S
H520 C524 0.949 . S
C521 C522 1.349 . S
C521 C523 1.327 . S
C521 H544 0.950 . S
C522 C521 1.349 . S
C522 C534 1.349 . S
C523 C521 1.327 . S
C523 C539 1.429 . S
C523 H545 0.950 . S
C524 H520 0.949 . S
C524 C532 1.574 . S
C524 C540 1.368 . S
H525 C533 0.950 . S
H526 C531 0.950 . S
H527 C532 0.949 . S
H528 C534 0.950 . S
H529 C535 0.950 . S
H530 C536 0.949 . S
C531 H526 0.950 . S
C531 C533 1.327 . S
C531 C537 1.429 . S
C532 C524 1.574 . S
C532 H527 0.949 . S
C532 C538 1.368 . S
C533 C517 1.349 . S
C533 H525 0.950 . S
C533 C531 1.327 . S
C534 C522 1.349 . S
C534 H528 0.950 . S
C534 C535 1.327 . S
C535 H529 0.950 . S
C535 C534 1.327 . S
C535 C539 1.429 . S
C536 C519 1.574 . S
C536 H530 0.949 . S
C536 C540 1.368 . S
C537 C518 1.429 . S
C537 C531 1.429 . S
C537 C538 1.523 . S
C538 C519 1.368 . S
C538 C532 1.368 . S
C538 C537 1.523 . S
C539 C523 1.429 . S
C539 C535 1.429 . S
C539 C540 1.523 . S
C540 C524 1.368 . S
C540 C536 1.368 . S
C540 C539 1.523 . S
H541 C516 0.950 . S
H542 C518 0.950 . S
H543 C519 0.949 . S
H544 C521 0.950 . S
H545 C523 0.950 . S
C546 C547 1.349 . S
C546 C548 1.327 . S
C546 H571 0.950 . S
C547 C546 1.349 . S
C547 C563 1.349 . S
C548 C546 1.327 . S
C548 C567 1.429 . S
C548 H572 0.950 . S
C549 C566 1.574 1_455 S
C549 C568 1.368 . S
C549 H573 0.949 . S
H550 C554 0.949 . S
C551 C552 1.349 . S
C551 C553 1.327 . S
C551 H574 0.950 . S
C552 C551 1.349 . S
C552 C564 1.349 . S
C553 C551 1.327 . S
C553 C569 1.429 . S
C553 H575 0.950 . S
C554 H550 0.949 . S
C554 C562 1.574 1_655 S
C554 C570 1.368 . S
H555 C563 0.950 . S
H556 C561 0.950 . S
H557 C562 0.949 . S
H558 C564 0.950 . S
H559 C565 0.950 . S
H560 C566 0.949 . S
C561 H556 0.950 . S
C561 C563 1.327 . S
C561 C567 1.429 . S
C562 C554 1.574 1_455 S
C562 H557 0.949 . S
C562 C568 1.368 . S
C563 C547 1.349 . S
C563 H555 0.950 . S
C563 C561 1.327 . S
C564 C552 1.349 . S
C564 H558 0.950 . S
C564 C565 1.327 . S
C565 H559 0.950 . S
C565 C564 1.327 . S
C565 C569 1.429 . S
C566 C549 1.574 1_655 S
C566 H560 0.949 . S
C566 C570 1.368 . S
C567 C548 1.429 . S
C567 C561 1.429 . S
C567 C568 1.523 . S
C568 C549 1.368 . S
C568 C562 1.368 . S
C568 C567 1.523 . S
C569 C553 1.429 . S
C569 C565 1.429 . S
C569 C570 1.523 . S
C570 C554 1.368 . S
C570 C566 1.368 . S
C570 C569 1.523 . S
H571 C546 0.950 . S
H572 C548 0.950 . S
H573 C549 0.949 . S
H574 C551 0.950 . S
H575 C553 0.950 . S
C576 C577 1.349 . S
C576 C578 1.327 . S
C576 H601 0.950 . S
C577 C576 1.349 . S
C577 C593 1.349 . S
C578 C576 1.327 . S
C578 C597 1.429 . S
C578 H602 0.950 . S
C579 C596 1.574 . S
C579 C598 1.368 . S
C579 H603 0.949 . S
H580 C584 0.949 . S
C581 C582 1.349 . S
C581 C583 1.327 . S
C581 H604 0.950 . S
C582 C581 1.349 . S
C582 C594 1.349 . S
C583 C581 1.327 . S
C583 C599 1.429 . S
C583 H605 0.950 . S
C584 H580 0.949 . S
C584 C592 1.574 . S
C584 C600 1.368 . S
H585 C593 0.950 . S
H586 C591 0.950 . S
H587 C592 0.949 . S
H588 C594 0.950 . S
H589 C595 0.950 . S
H590 C596 0.949 . S
C591 H586 0.950 . S
C591 C593 1.327 . S
C591 C597 1.429 . S
C592 C584 1.574 . S
C592 H587 0.949 . S
C592 C598 1.368 . S
C593 C577 1.349 . S
C593 H585 0.950 . S
C593 C591 1.327 . S
C594 C582 1.349 . S
C594 H588 0.950 . S
C594 C595 1.327 . S
C595 H589 0.950 . S
C595 C594 1.327 . S
C595 C599 1.429 . S
C596 C579 1.574 . S
C596 H590 0.949 . S
C596 C600 1.368 . S
C597 C578 1.429 . S
C597 C591 1.429 . S
C597 C598 1.523 . S
C598 C579 1.368 . S
C598 C592 1.368 . S
C598 C597 1.523 . S
C599 C583 1.429 . S
C599 C595 1.429 . S
C599 C600 1.523 . S
C600 C584 1.368 . S
C600 C596 1.368 . S
C600 C599 1.523 . S
H601 C576 0.950 . S
H602 C578 0.950 . S
H603 C579 0.949 . S
H604 C581 0.950 . S
H605 C583 0.950 . S
C606 C607 1.349 . S
C606 C608 1.327 . S
C606 H631 0.950 1_655 S
C607 C606 1.349 . S
C607 C623 1.349 . S
C608 C606 1.327 . S
C608 C627 1.429 . S
C608 H632 0.950 1_655 S
C609 C626 1.574 . S
C609 C628 1.368 . S
C609 H633 0.949 . S
H610 C614 0.949 . S
C611 C612 1.349 . S
C611 C613 1.327 . S
C611 H634 0.950 . S
C612 C611 1.349 . S
C612 C624 1.349 . S
C613 C611 1.327 . S
C613 C629 1.429 . S
C613 H635 0.950 . S
C614 H610 0.949 . S
C614 C622 1.574 . S
C614 C630 1.368 . S
H615 C623 0.950 . S
H616 C621 0.950 . S
H617 C622 0.949 . S
H618 C624 0.950 . S
H619 C625 0.950 . S
H620 C626 0.949 . S
C621 H616 0.950 . S
C621 C623 1.327 . S
C621 C627 1.429 . S
C622 C614 1.574 . S
C622 H617 0.949 . S
C622 C628 1.368 . S
C623 C607 1.349 . S
C623 H615 0.950 . S
C623 C621 1.327 . S
C624 C612 1.349 . S
C624 H618 0.950 . S
C624 C625 1.327 . S
C625 H619 0.950 . S
C625 C624 1.327 . S
C625 C629 1.429 . S
C626 C609 1.574 . S
C626 H620 0.949 . S
C626 C630 1.368 . S
C627 C608 1.429 . S
C627 C621 1.429 . S
C627 C628 1.523 . S
C628 C609 1.368 . S
C628 C622 1.368 . S
C628 C627 1.523 . S
C629 C613 1.429 . S
C629 C625 1.429 . S
C629 C630 1.523 . S
C630 C614 1.368 . S
C630 C626 1.368 . S
C630 C629 1.523 . S
H631 C606 0.950 1_455 S
H632 C608 0.950 1_455 S
H633 C609 0.949 . S
H634 C611 0.950 . S
H635 C613 0.950 . S
C636 C637 1.349 . S
C636 C638 1.327 . S
C636 H661 0.950 . S
C637 C636 1.349 . S
C637 C653 1.349 . S
C638 C636 1.327 . S
C638 C657 1.429 . S
C638 H662 0.950 . S
C639 C656 1.574 . S
C639 C658 1.368 1_655 S
C639 H663 0.949 . S
H640 C644 0.949 1_554 S
C641 C642 1.349 1_556 S
C641 C643 1.327 . S
C641 H664 0.950 . S
C642 C641 1.349 1_554 S
C642 C654 1.349 . S
C643 C641 1.327 . S
C643 C659 1.429 . S
C643 H665 0.950 . S
C644 H640 0.949 1_556 S
C644 C652 1.574 1_655 S
C644 C660 1.368 . S
H645 C653 0.950 . S
H646 C651 0.950 . S
H647 C652 0.949 . S
H648 C654 0.950 . S
H649 C655 0.950 . S
H650 C656 0.949 . S
C651 H646 0.950 . S
C651 C653 1.327 . S
C651 C657 1.429 . S
C652 C644 1.574 1_455 S
C652 H647 0.949 . S
C652 C658 1.368 . S
C653 C637 1.349 . S
C653 H645 0.950 . S
C653 C651 1.327 . S
C654 C642 1.349 . S
C654 H648 0.950 . S
C654 C655 1.327 . S
C655 H649 0.950 . S
C655 C654 1.327 . S
C655 C659 1.429 1_554 S
C656 C639 1.574 . S
C656 H650 0.949 . S
C656 C660 1.368 . S
C657 C638 1.429 . S
C657 C651 1.429 . S
C657 C658 1.523 . S
C658 C639 1.368 1_455 S
C658 C652 1.368 . S
C658 C657 1.523 . S
C659 C643 1.429 . S
C659 C655 1.429 1_556 S
C659 C660 1.523 . S
C660 C644 1.368 . S
C660 C656 1.368 . S
C660 C659 1.523 . S
H661 C636 0.950 . S
H662 C638 0.950 . S
H663 C639 0.949 . S
H664 C641 0.950 . S
H665 C643 0.950 . S
C666 C667 1.349 . S
C666 C668 1.327 . S
C666 H691 0.950 . S
C667 C666 1.349 . S
C667 C683 1.349 . S
C668 C666 1.327 . S
C668 C687 1.429 . S
C668 H692 0.950 . S
C669 C686 1.574 . S
C669 C688 1.368 . S
C669 H693 0.949 . S
H670 C674 0.949 . S
C671 C672 1.349 . S
C671 C673 1.327 . S
C671 H694 0.950 . S
C672 C671 1.349 . S
C672 C684 1.349 . S
C673 C671 1.327 . S
C673 C689 1.429 . S
C673 H695 0.950 . S
C674 H670 0.949 . S
C674 C682 1.574 . S
C674 C690 1.368 . S
H675 C683 0.950 . S
H676 C681 0.950 . S
H677 C682 0.949 . S
H678 C684 0.950 . S
H679 C685 0.950 . S
H680 C686 0.949 . S
C681 H676 0.950 . S
C681 C683 1.327 . S
C681 C687 1.429 . S
C682 C674 1.574 . S
C682 H677 0.949 . S
C682 C688 1.368 . S
C683 C667 1.349 . S
C683 H675 0.950 . S
C683 C681 1.327 . S
C684 C672 1.349 . S
C684 H678 0.950 . S
C684 C685 1.327 . S
C685 H679 0.950 . S
C685 C684 1.327 . S
C685 C689 1.429 . S
C686 C669 1.574 . S
C686 H680 0.949 . S
C686 C690 1.368 . S
C687 C668 1.429 . S
C687 C681 1.429 . S
C687 C688 1.523 . S
C688 C669 1.368 . S
C688 C682 1.368 . S
C688 C687 1.523 . S
C689 C673 1.429 . S
C689 C685 1.429 . S
C689 C690 1.523 . S
C690 C674 1.368 . S
C690 C686 1.368 . S
C690 C689 1.523 . S
H691 C666 0.950 . S
H692 C668 0.950 . S
H693 C669 0.949 . S
H694 C671 0.950 . S
H695 C673 0.950 . S
C696 C697 1.349 . S
C696 C698 1.327 . S
C696 H721 0.950 . S
C697 C696 1.349 . S
C697 C713 1.349 . S
C698 C696 1.327 . S
C698 C717 1.429 . S
C698 H722 0.950 . S
C699 C716 1.574 . S
C699 C718 1.368 . S
C699 H723 0.949 . S
H700 C704 0.949 . S
C701 C702 1.349 . S
C701 C703 1.327 . S
C701 H724 0.950 . S
C702 C701 1.349 . S
C702 C714 1.349 . S
C703 C701 1.327 . S
C703 C719 1.429 . S
C703 H725 0.950 . S
C704 H700 0.949 . S
C704 C712 1.574 . S
C704 C720 1.368 . S
H705 C713 0.950 . S
H706 C711 0.950 . S
H707 C712 0.949 . S
H708 C714 0.950 . S
H709 C715 0.950 . S
H710 C716 0.949 . S
C711 H706 0.950 . S
C711 C713 1.327 . S
C711 C717 1.429 . S
C712 C704 1.574 . S
C712 H707 0.949 . S
C712 C718 1.368 . S
C713 C697 1.349 . S
C713 H705 0.950 . S
C713 C711 1.327 . S
C714 C702 1.349 . S
C714 H708 0.950 . S
C714 C715 1.327 . S
C715 H709 0.950 . S
C715 C714 1.327 . S
C715 C719 1.429 . S
C716 C699 1.574 . S
C716 H710 0.949 . S
C716 C720 1.368 . S
C717 C698 1.429 . S
C717 C711 1.429 . S
C717 C718 1.523 . S
C718 C699 1.368 . S
C718 C712 1.368 . S
C718 C717 1.523 . S
C719 C703 1.429 . S
C719 C715 1.429 . S
C719 C720 1.523 . S
C720 C704 1.368 . S
C720 C716 1.368 . S
C720 C719 1.523 . S
H721 C696 0.950 . S
H722 C698 0.950 . S
H723 C699 0.949 . S
H724 C701 0.950 . S
H725 C703 0.950 . S
C726 C727 1.349 . S
C726 C728 1.327 . S
C726 H751 0.950 . S
C727 C726 1.349 . S
C727 C743 1.349 . S
C728 C726 1.327 . S
C728 C747 1.429 . S
C728 H752 0.950 . S
C729 C746 1.574 . S
C729 C748 1.368 . S
C729 H753 0.949 . S
H730 C734 0.949 . S
C731 C732 1.349 . S
C731 C733 1.327 . S
C731 H754 0.950 . S
C732 C731 1.349 . S
C732 C744 1.349 . S
C733 C731 1.327 . S
C733 C749 1.429 . S
C733 H755 0.950 . S
C734 H730 0.949 . S
C734 C742 1.574 . S
C734 C750 1.368 . S
H735 C743 0.950 . S
H736 C741 0.950 . S
H737 C742 0.949 . S
H738 C744 0.950 . S
H739 C745 0.950 . S
H740 C746 0.949 . S
C741 H736 0.950 . S
C741 C743 1.327 . S
C741 C747 1.429 . S
C742 C734 1.574 . S
C742 H737 0.949 . S
C742 C748 1.368 . S
C743 C727 1.349 . S
C743 H735 0.950 . S
C743 C741 1.327 . S
C744 C732 1.349 . S
C744 H738 0.950 . S
C744 C745 1.327 . S
C745 H739 0.950 . S
C745 C744 1.327 . S
C745 C749 1.429 . S
C746 C729 1.574 . S
C746 H740 0.949 . S
C746 C750 1.368 . S
C747 C728 1.429 . S
C747 C741 1.429 . S
C747 C748 1.523 . S
C748 C729 1.368 . S
C748 C742 1.368 . S
C748 C747 1.523 . S
C749 C733 1.429 . S
C749 C745 1.429 . S
C749 C750 1.523 . S
C750 C734 1.368 . S
C750 C746 1.368 . S
C750 C749 1.523 . S
H751 C726 0.950 . S
H752 C728 0.950 . S
H753 C729 0.949 . S
H754 C731 0.950 . S
H755 C733 0.950 . S
C756 C757 1.349 . S
C756 C758 1.327 . S
C756 H781 0.950 . S
C757 C756 1.349 . S
C757 C773 1.349 . S
C758 C756 1.327 . S
C758 C777 1.429 . S
C758 H782 0.950 . S
C759 C776 1.574 . S
C759 C778 1.368 . S
C759 H783 0.949 . S
H760 C764 0.949 . S
C761 C762 1.349 . S
C761 C763 1.327 . S
C761 H784 0.950 . S
C762 C761 1.349 . S
C762 C774 1.349 . S
C763 C761 1.327 . S
C763 C779 1.429 . S
C763 H785 0.950 . S
C764 H760 0.949 . S
C764 C772 1.574 . S
C764 C780 1.368 . S
H765 C773 0.950 . S
H766 C771 0.950 . S
H767 C772 0.949 . S
H768 C774 0.950 . S
H769 C775 0.950 . S
H770 C776 0.949 . S
C771 H766 0.950 . S
C771 C773 1.327 . S
C771 C777 1.429 . S
C772 C764 1.574 . S
C772 H767 0.949 . S
C772 C778 1.368 . S
C773 C757 1.349 . S
C773 H765 0.950 . S
C773 C771 1.327 . S
C774 C762 1.349 . S
C774 H768 0.950 . S
C774 C775 1.327 . S
C775 H769 0.950 . S
C775 C774 1.327 . S
C775 C779 1.429 . S
C776 C759 1.574 . S
C776 H770 0.949 . S
C776 C780 1.368 . S
C777 C758 1.429 . S
C777 C771 1.429 . S
C777 C778 1.523 . S
C778 C759 1.368 . S
C778 C772 1.368 . S
C778 C777 1.523 . S
C779 C763 1.429 . S
C779 C775 1.429 . S
C779 C780 1.523 . S
C780 C764 1.368 . S
C780 C776 1.368 . S
C780 C779 1.523 . S
H781 C756 0.950 . S
H782 C758 0.950 . S
H783 C759 0.949 . S
H784 C761 0.950 . S
H785 C763 0.950 . S
C786 C787 1.349 . S
C786 C788 1.327 . S
C786 H811 0.950 . S
C787 C786 1.349 . S
C787 C803 1.349 . S
C788 C786 1.327 . S
C788 C807 1.429 . S
C788 H812 0.950 . S
C789 C806 1.574 . S
C789 C808 1.368 . S
C789 H813 0.949 . S
H790 C794 0.949 . S
C791 C792 1.349 . S
C791 C793 1.327 . S
C791 H814 0.950 . S
C792 C791 1.349 . S
C792 C804 1.349 . S
C793 C791 1.327 . S
C793 C809 1.429 1_565 S
C793 H815 0.950 . S
C794 H790 0.949 . S
C794 C802 1.574 . S
C794 C810 1.368 . S
H795 C803 0.950 . S
H796 C801 0.950 . S
H797 C802 0.949 . S
H798 C804 0.950 . S
H799 C805 0.950 . S
H800 C806 0.949 . S
C801 H796 0.950 . S
C801 C803 1.327 . S
C801 C807 1.429 . S
C802 C794 1.574 . S
C802 H797 0.949 . S
C802 C808 1.368 . S
C803 C787 1.349 . S
C803 H795 0.950 . S
C803 C801 1.327 . S
C804 C792 1.349 . S
C804 H798 0.950 . S
C804 C805 1.327 1_565 S
C805 H799 0.950 . S
C805 C804 1.327 1_545 S
C805 C809 1.429 . S
C806 C789 1.574 . S
C806 H800 0.949 . S
C806 C810 1.368 . S
C807 C788 1.429 . S
C807 C801 1.429 . S
C807 C808 1.523 . S
C808 C789 1.368 . S
C808 C802 1.368 . S
C808 C807 1.523 . S
C809 C793 1.429 1_545 S
C809 C805 1.429 . S
C809 C810 1.523 . S
C810 C794 1.368 . S
C810 C806 1.368 . S
C810 C809 1.523 . S
H811 C786 0.950 . S
H812 C788 0.950 . S
H813 C789 0.949 . S
H814 C791 0.950 . S
H815 C793 0.950 . S
C816 C817 1.349 . S
C816 C818 1.327 . S
C816 H841 0.950 . S
C817 C816 1.349 . S
C817 C833 1.349 . S
C818 C816 1.327 . S
C818 C837 1.429 . S
C818 H842 0.950 . S
C819 C836 1.574 . S
C819 C838 1.368 . S
C819 H843 0.949 . S
H820 C824 0.949 . S
C821 C822 1.349 . S
C821 C823 1.327 . S
C821 H844 0.950 . S
C822 C821 1.349 . S
C822 C834 1.349 . S
C823 C821 1.327 . S
C823 C839 1.429 . S
C823 H845 0.950 . S
C824 H820 0.949 . S
C824 C832 1.574 . S
C824 C840 1.368 . S
H825 C833 0.950 . S
H826 C831 0.950 . S
H827 C832 0.949 . S
H828 C834 0.950 . S
H829 C835 0.950 . S
H830 C836 0.949 . S
C831 H826 0.950 . S
C831 C833 1.327 . S
C831 C837 1.429 . S
C832 C824 1.574 . S
C832 H827 0.949 . S
C832 C838 1.368 . S
C833 C817 1.349 . S
C833 H825 0.950 . S
C833 C831 1.327 . S
C834 C822 1.349 . S
C834 H828 0.950 . S
C834 C835 1.327 . S
C835 H829 0.950 . S
C835 C834 1.327 . S
C835 C839 1.429 . S
C836 C819 1.574 . S
C836 H830 0.949 . S
C836 C840 1.368 . S
C837 C818 1.429 . S
C837 C831 1.429 . S
C837 C838 1.523 . S
C838 C819 1.368 . S
C838 C832 1.368 . S
C838 C837 1.523 . S
C839 C823 1.429 . S
C839 C835 1.429 . S
C839 C840 1.523 . S
C840 C824 1.368 . S
C840 C836 1.368 . S
C840 C839 1.523 . S
H841 C816 0.950 . S
H842 C818 0.950 . S
H843 C819 0.949 . S
H844 C821 0.950 . S
H845 C823 0.950 . S
C846 C847 1.349 . S
C846 C848 1.327 . S
C846 H871 0.950 . S
C847 C846 1.349 . S
C847 C863 1.349 . S
C848 C846 1.327 . S
C848 C867 1.429 . S
C848 H872 0.950 . S
C849 C866 1.574 . S
C849 C868 1.368 . S
C849 H873 0.949 . S
H850 C854 0.949 . S
C851 C852 1.349 . S
C851 C853 1.327 . S
C851 H874 0.950 . S
C852 C851 1.349 . S
C852 C864 1.349 . S
C853 C851 1.327 . S
C853 C869 1.429 . S
C853 H875 0.950 . S
C854 H850 0.949 . S
C854 C862 1.574 . S
C854 C870 1.368 . S
H855 C863 0.950 . S
H856 C861 0.950 . S
H857 C862 0.949 . S
H858 C864 0.950 . S
H859 C865 0.950 . S
H860 C866 0.949 . S
C861 H856 0.950 . S
C861 C863 1.327 . S
C861 C867 1.429 . S
C862 C854 1.574 . S
C862 H857 0.949 . S
C862 C868 1.368 . S
C863 C847 1.349 . S
C863 H855 0.950 . S
C863 C861 1.327 . S
C864 C852 1.349 . S
C864 H858 0.950 . S
C864 C865 1.327 . S
C865 H859 0.950 . S
C865 C864 1.327 . S
C865 C869 1.429 . S
C866 C849 1.574 . S
C866 H860 0.949 . S
C866 C870 1.368 . S
C867 C848 1.429 . S
C867 C861 1.429 . S
C867 C868 1.523 . S
C868 C849 1.368 . S
C868 C862 1.368 . S
C868 C867 1.523 . S
C869 C853 1.429 . S
C869 C865 1.429 . S
C869 C870 1.523 . S
C870 C854 1.368 . S
C870 C866 1.368 . S
C870 C869 1.523 . S
H871 C846 0.950 . S
H872 C848 0.950 . S
H873 C849 0.949 . S
H874 C851 0.950 . S
H875 C853 0.950 . S
C876 C877 1.349 . S
C876 C878 1.327 . S
C876 H901 0.950 . S
C877 C876 1.349 . S
C877 C893 1.349 . S
C878 C876 1.327 . S
C878 C897 1.429 . S
C878 H902 0.950 . S
C879 C896 1.574 . S
C879 C898 1.368 . S
C879 H903 0.949 . S
H880 C884 0.949 . S
C881 C882 1.349 . S
C881 C883 1.327 . S
C881 H904 0.950 . S
C882 C881 1.349 . S
C882 C894 1.349 . S
C883 C881 1.327 . S
C883 C899 1.420 1_565 S
C883 H905 0.950 . S
C884 H880 0.949 . S
C884 C892 1.574 . S
C884 C900 1.368 . S
H885 C893 0.950 . S
H886 C891 0.950 . S
H887 C892 0.949 . S
H888 C894 0.950 . S
H889 C895 0.948 . S
H890 C896 0.949 . S
C891 H886 0.950 . S
C891 C893 1.327 . S
C891 C897 1.429 . S
C892 C884 1.574 . S
C892 H887 0.949 . S
C892 C898 1.368 . S
C893 C877 1.349 . S
C893 H885 0.950 . S
C893 C891 1.327 . S
C894 C882 1.349 . S
C894 H888 0.950 . S
C894 C895 1.329 1_565 S
C895 H889 0.948 . S
C895 C894 1.329 1_545 S
C895 C899 1.429 . S
C896 C879 1.574 . S
C896 H890 0.949 . S
C896 C900 1.368 . S
C897 C878 1.429 . S
C897 C891 1.429 . S
C897 C898 1.523 . S
C898 C879 1.368 . S
C898 C892 1.368 . S
C898 C897 1.523 . S
C899 C883 1.420 1_545 S
C899 C895 1.429 . S
C899 C900 1.531 . S
C900 C884 1.368 . S
C900 C896 1.368 . S
C900 C899 1.531 . S
H901 C876 0.950 . S
H902 C878 0.950 . S
H903 C879 0.949 . S
H904 C881 0.950 . S
H905 C883 0.950 . S
C906 C907 1.349 . S
C906 C908 1.327 . S
C906 H931 0.950 . S
C907 C906 1.349 . S
C907 C923 1.349 . S
C908 C906 1.327 . S
C908 C927 1.429 . S
C908 H932 0.950 . S
C909 C926 1.574 . S
C909 C928 1.368 . S
C909 H933 0.949 . S
H910 C914 0.949 . S
C911 C912 1.349 . S
C911 C913 1.327 . S
C911 H934 0.950 . S
C912 C911 1.349 . S
C912 C924 1.349 . S
C913 C911 1.327 . S
C913 C929 1.429 . S
C913 H935 0.950 . S
C914 H910 0.949 . S
C914 C922 1.574 . S
C914 C930 1.368 . S
H915 C923 0.950 . S
H916 C921 0.950 . S
H917 C922 0.949 . S
H918 C924 0.950 . S
H919 C925 0.950 . S
H920 C926 0.949 . S
C921 H916 0.950 . S
C921 C923 1.327 . S
C921 C927 1.429 . S
C922 C914 1.574 . S
C922 H917 0.949 . S
C922 C928 1.368 . S
C923 C907 1.349 . S
C923 H915 0.950 . S
C923 C921 1.327 . S
C924 C912 1.349 . S
C924 H918 0.950 . S
C924 C925 1.327 . S
C925 H919 0.950 . S
C925 C924 1.327 . S
C925 C929 1.429 . S
C926 C909 1.574 . S
C926 H920 0.949 . S
C926 C930 1.368 . S
C927 C908 1.429 . S
C927 C921 1.429 . S
C927 C928 1.523 . S
C928 C909 1.368 . S
C928 C922 1.368 . S
C928 C927 1.523 . S
C929 C913 1.429 . S
C929 C925 1.429 . S
C929 C930 1.523 . S
C930 C914 1.368 . S
C930 C926 1.368 . S
C930 C929 1.523 . S
H931 C906 0.950 . S
H932 C908 0.950 . S
H933 C909 0.949 . S
H934 C911 0.950 . S
H935 C913 0.950 . S
C936 C937 1.349 . S
C936 C938 1.327 . S
C936 H961 0.950 . S
C937 C936 1.349 . S
C937 C953 1.349 . S
C938 C936 1.327 . S
C938 C957 1.429 . S
C938 H962 0.950 . S
C939 C956 1.574 . S
C939 C958 1.368 . S
C939 H963 0.949 . S
H940 C944 0.949 . S
C941 C942 1.349 . S
C941 C943 1.327 . S
C941 H964 0.950 . S
C942 C941 1.349 . S
C942 C954 1.349 . S
C943 C941 1.327 . S
C943 C959 1.429 . S
C943 H965 0.950 . S
C944 H940 0.949 . S
C944 C952 1.574 . S
C944 C960 1.368 . S
H945 C953 0.950 . S
H946 C951 0.950 . S
H947 C952 0.949 . S
H948 C954 0.950 . S
H949 C955 0.950 . S
H950 C956 0.949 . S
C951 H946 0.950 . S
C951 C953 1.327 . S
C951 C957 1.429 . S
C952 C944 1.574 . S
C952 H947 0.949 . S
C952 C958 1.368 . S
C953 C937 1.349 . S
C953 H945 0.950 . S
C953 C951 1.327 . S
C954 C942 1.349 . S
C954 H948 0.950 . S
C954 C955 1.327 . S
C955 H949 0.950 . S
C955 C954 1.327 . S
C955 C959 1.429 . S
C956 C939 1.574 . S
C956 H950 0.949 . S
C956 C960 1.368 . S
C957 C938 1.429 . S
C957 C951 1.429 . S
C957 C958 1.523 . S
C958 C939 1.368 . S
C958 C952 1.368 . S
C958 C957 1.523 . S
C959 C943 1.429 . S
C959 C955 1.429 . S
C959 C960 1.523 . S
C960 C944 1.368 . S
C960 C956 1.368 . S
C960 C959 1.523 . S
H961 C936 0.950 . S
H962 C938 0.950 . S
H963 C939 0.949 . S
H964 C941 0.950 . S
H965 C943 0.950 . S
C966 C967 1.349 . S
C966 C968 1.327 . S
C966 H991 0.950 . S
C967 C966 1.349 . S
C967 C983 1.349 . S
C968 C966 1.327 . S
C968 C987 1.429 . S
C968 H992 0.950 . S
C969 C986 1.574 . S
C969 C988 1.368 . S
C969 H993 0.949 . S
H970 C974 0.949 . S
C971 C972 1.349 . S
C971 C973 1.327 . S
C971 H994 0.950 . S
C972 C971 1.349 . S
C972 C984 1.349 . S
C973 C971 1.327 . S
C973 C989 1.429 . S
C973 H995 0.950 . S
C974 H970 0.949 . S
C974 C982 1.574 . S
C974 C990 1.368 . S
H975 C983 0.950 . S
H976 C981 0.950 . S
H977 C982 0.949 . S
H978 C984 0.950 . S
H979 C985 0.950 . S
H980 C986 0.949 . S
C981 H976 0.950 . S
C981 C983 1.327 . S
C981 C987 1.429 . S
C982 C974 1.574 . S
C982 H977 0.949 . S
C982 C988 1.368 . S
C983 C967 1.349 . S
C983 H975 0.950 . S
C983 C981 1.327 . S
C984 C972 1.349 . S
C984 H978 0.950 . S
C984 C985 1.327 . S
C985 H979 0.950 . S
C985 C984 1.327 . S
C985 C989 1.429 . S
C986 C969 1.574 . S
C986 H980 0.949 . S
C986 C990 1.368 . S
C987 C968 1.429 . S
C987 C981 1.429 . S
C987 C988 1.523 . S
C988 C969 1.368 . S
C988 C982 1.368 . S
C988 C987 1.523 . S
C989 C973 1.429 . S
C989 C985 1.429 . S
C989 C990 1.523 . S
C990 C974 1.368 . S
C990 C986 1.368 . S
C990 C989 1.523 . S
H991 C966 0.950 . S
H992 C968 0.950 . S
H993 C969 0.949 . S
H994 C971 0.950 . S
H995 C973 0.950 . S
C996 C997 1.349 . S
C996 C998 1.327 . S
C996 H1021 0.950 . S
C997 C996 1.349 . S
C997 C1013 1.349 . S
C998 C996 1.327 . S
C998 C1017 1.429 . S
C998 H1022 0.950 . S
C999 C1016 1.574 . S
C999 C1018 1.368 . S
C999 H1023 0.949 . S
H1000 C1004 0.949 . S
C1001 C1002 1.349 . S
C1001 C1003 1.327 . S
C1001 H1024 0.950 . S
C1002 C1001 1.349 . S
C1002 C1014 1.349 . S
C1003 C1001 1.327 . S
C1003 C1019 1.429 . S
C1003 H1025 0.950 . S
C1004 H1000 0.949 . S
C1004 C1012 1.574 . S
C1004 C1020 1.368 . S
H1005 C1013 0.950 . S
H1006 C1011 0.950 . S
H1007 C1012 0.949 . S
H1008 C1014 0.950 . S
H1009 C1015 0.950 . S
H1010 C1016 0.949 . S
C1011 H1006 0.950 . S
C1011 C1013 1.327 . S
C1011 C1017 1.429 . S
C1012 C1004 1.574 . S
C1012 H1007 0.949 . S
C1012 C1018 1.368 . S
C1013 C997 1.349 . S
C1013 H1005 0.950 . S
C1013 C1011 1.327 . S
C1014 C1002 1.349 . S
C1014 H1008 0.950 . S
C1014 C1015 1.327 . S
C1015 H1009 0.950 . S
C1015 C1014 1.327 . S
C1015 C1019 1.429 . S
C1016 C999 1.574 . S
C1016 H1010 0.949 . S
C1016 C1020 1.368 . S
C1017 C998 1.429 . S
C1017 C1011 1.429 . S
C1017 C1018 1.523 . S
C1018 C999 1.368 . S
C1018 C1012 1.368 . S
C1018 C1017 1.523 . S
C1019 C1003 1.429 . S
C1019 C1015 1.429 . S
C1019 C1020 1.523 . S
C1020 C1004 1.368 . S
C1020 C1016 1.368 . S
C1020 C1019 1.523 . S
H1021 C996 0.950 . S
H1022 C998 0.950 . S
H1023 C999 0.949 . S
H1024 C1001 0.950 . S
H1025 C1003 0.950 . S
C1026 C1027 1.349 . S
C1026 C1028 1.327 . S
C1026 H1051 0.950 . S
C1027 C1026 1.349 . S
C1027 C1043 1.349 . S
C1028 C1026 1.327 . S
C1028 C1047 1.429 . S
C1028 H1052 0.950 . S
C1029 C1046 1.574 . S
C1029 C1048 1.368 . S
C1029 H1053 0.949 . S
H1030 C1034 0.949 1_655 S
C1031 C1032 1.322 1_455 S
C1031 C1033 1.344 . S
C1031 H1054 0.960 . S
C1032 C1031 1.322 1_655 S
C1032 C1044 1.349 . S
C1033 C1031 1.344 . S
C1033 C1049 1.429 . S
C1033 H1055 0.950 . S
C1034 H1030 0.949 1_455 S
C1034 C1042 1.574 . S
C1034 C1050 1.368 . S
H1035 C1043 0.950 . S
H1036 C1041 0.950 . S
H1037 C1042 0.949 . S
H1038 C1044 0.950 . S
H1039 C1045 0.950 . S
H1040 C1046 0.949 . S
C1041 H1036 0.950 . S
C1041 C1043 1.327 . S
C1041 C1047 1.429 . S
C1042 C1034 1.574 . S
C1042 H1037 0.949 . S
C1042 C1048 1.368 . S
C1043 C1027 1.349 . S
C1043 H1035 0.950 . S
C1043 C1041 1.327 . S
C1044 C1032 1.349 . S
C1044 H1038 0.950 . S
C1044 C1045 1.327 . S
C1045 H1039 0.950 . S
C1045 C1044 1.327 . S
C1045 C1049 1.429 1_655 S
C1046 C1029 1.574 . S
C1046 H1040 0.949 . S
C1046 C1050 1.368 . S
C1047 C1028 1.429 . S
C1047 C1041 1.429 . S
C1047 C1048 1.523 . S
C1048 C1029 1.368 . S
C1048 C1042 1.368 . S
C1048 C1047 1.523 . S
C1049 C1033 1.429 . S
C1049 C1045 1.429 1_455 S
C1049 C1050 1.523 . S
C1050 C1034 1.368 . S
C1050 C1046 1.368 . S
C1050 C1049 1.523 . S
H1051 C1026 0.950 . S
H1052 C1028 0.950 . S
H1053 C1029 0.949 . S
H1054 C1031 0.960 . S
H1055 C1033 0.950 . S
C1056 C1057 1.349 . S
C1056 C1058 1.327 . S
C1056 H1081 0.950 . S
C1057 C1056 1.349 . S
C1057 C1073 1.349 . S
C1058 C1056 1.327 . S
C1058 C1077 1.429 . S
C1058 H1082 0.950 . S
C1059 C1076 1.574 . S
C1059 C1078 1.368 . S
C1059 H1083 0.949 . S
H1060 C1064 0.949 . S
C1061 C1062 1.349 . S
C1061 C1063 1.327 . S
C1061 H1084 0.950 . S
C1062 C1061 1.349 . S
C1062 C1074 1.349 . S
C1063 C1061 1.327 . S
C1063 C1079 1.429 . S
C1063 H1085 0.950 . S
C1064 H1060 0.949 . S
C1064 C1072 1.574 . S
C1064 C1080 1.368 . S
H1065 C1073 0.950 . S
H1066 C1071 0.950 . S
H1067 C1072 0.949 . S
H1068 C1074 0.950 . S
H1069 C1075 0.950 . S
H1070 C1076 0.949 . S
C1071 H1066 0.950 . S
C1071 C1073 1.327 . S
C1071 C1077 1.429 . S
C1072 C1064 1.574 . S
C1072 H1067 0.949 . S
C1072 C1078 1.368 . S
C1073 C1057 1.349 . S
C1073 H1065 0.950 . S
C1073 C1071 1.327 . S
C1074 C1062 1.349 . S
C1074 H1068 0.950 . S
C1074 C1075 1.327 . S
C1075 H1069 0.950 . S
C1075 C1074 1.327 . S
C1075 C1079 1.429 . S
C1076 C1059 1.574 . S
C1076 H1070 0.949 . S
C1076 C1080 1.368 . S
C1077 C1058 1.429 . S
C1077 C1071 1.429 . S
C1077 C1078 1.523 . S
C1078 C1059 1.368 . S
C1078 C1072 1.368 . S
C1078 C1077 1.523 . S
C1079 C1063 1.429 . S
C1079 C1075 1.429 . S
C1079 C1080 1.523 . S
C1080 C1064 1.368 . S
C1080 C1076 1.368 . S
C1080 C1079 1.523 . S
H1081 C1056 0.950 . S
H1082 C1058 0.950 . S
H1083 C1059 0.949 . S
H1084 C1061 0.950 . S
H1085 C1063 0.950 . S
C1086 C1087 1.349 . S
C1086 C1088 1.327 . S
C1086 H1111 0.950 . S
C1087 C1086 1.349 . S
C1087 C1103 1.349 . S
C1088 C1086 1.327 . S
C1088 C1107 1.429 . S
C1088 H1112 0.950 . S
C1089 C1106 1.574 . S
C1089 C1108 1.368 . S
C1089 H1113 0.949 . S
H1090 C1094 0.949 . S
C1091 C1092 1.349 . S
C1091 C1093 1.327 . S
C1091 H1114 0.950 . S
C1092 C1091 1.349 . S
C1092 C1104 1.349 . S
C1093 C1091 1.327 . S
C1093 C1109 1.429 . S
C1093 H1115 0.950 . S
C1094 H1090 0.949 . S
C1094 C1102 1.574 . S
C1094 C1110 1.368 . S
H1095 C1103 0.950 . S
H1096 C1101 0.950 . S
H1097 C1102 0.949 . S
H1098 C1104 0.950 . S
H1099 C1105 0.950 . S
H1100 C1106 0.949 . S
C1101 H1096 0.950 . S
C1101 C1103 1.327 . S
C1101 C1107 1.429 . S
C1102 C1094 1.574 . S
C1102 H1097 0.949 . S
C1102 C1108 1.368 . S
C1103 C1087 1.349 . S
C1103 H1095 0.950 . S
C1103 C1101 1.327 . S
C1104 C1092 1.349 . S
C1104 H1098 0.950 . S
C1104 C1105 1.327 . S
C1105 H1099 0.950 . S
C1105 C1104 1.327 . S
C1105 C1109 1.429 . S
C1106 C1089 1.574 . S
C1106 H1100 0.949 . S
C1106 C1110 1.368 . S
C1107 C1088 1.429 . S
C1107 C1101 1.429 . S
C1107 C1108 1.523 . S
C1108 C1089 1.368 . S
C1108 C1102 1.368 . S
C1108 C1107 1.523 . S
C1109 C1093 1.429 . S
C1109 C1105 1.429 . S
C1109 C1110 1.523 . S
C1110 C1094 1.368 . S
C1110 C1106 1.368 . S
C1110 C1109 1.523 . S
H1111 C1086 0.950 . S
H1112 C1088 0.950 . S
H1113 C1089 0.949 . S
H1114 C1091 0.950 . S
H1115 C1093 0.950 . S
C1116 C1117 1.349 . S
C1116 C1118 1.327 . S
C1116 H1141 0.950 . S
C1117 C1116 1.349 . S
C1117 C1133 1.349 . S
C1118 C1116 1.327 . S
C1118 C1137 1.429 . S
C1118 H1142 0.950 . S
C1119 C1136 1.574 . S
C1119 C1138 1.368 . S
C1119 H1143 0.949 . S
H1120 C1124 0.949 . S
C1121 C1122 1.346 1_455 S
C1121 C1123 1.330 . S
C1121 H1144 0.950 . S
C1122 C1121 1.346 1_655 S
C1122 C1134 1.349 . S
C1123 C1121 1.330 . S
C1123 C1139 1.429 . S
C1123 H1145 0.950 . S
C1124 H1120 0.949 . S
C1124 C1132 1.574 . S
C1124 C1140 1.368 . S
H1125 C1133 0.950 . S
H1126 C1131 0.950 . S
H1127 C1132 0.949 . S
H1128 C1134 0.950 . S
H1129 C1135 0.949 . S
H1130 C1136 0.949 . S
C1131 H1126 0.950 . S
C1131 C1133 1.327 . S
C1131 C1137 1.429 . S
C1132 C1124 1.574 . S
C1132 H1127 0.949 . S
C1132 C1138 1.368 . S
C1133 C1117 1.349 . S
C1133 H1125 0.950 . S
C1133 C1131 1.327 . S
C1134 C1122 1.349 . S
C1134 H1128 0.950 . S
C1134 C1135 1.334 . S
C1135 H1129 0.949 . S
C1135 C1134 1.334 . S
C1135 C1139 1.422 1_655 S
C1136 C1119 1.574 . S
C1136 H1130 0.949 . S
C1136 C1140 1.368 . S
C1137 C1118 1.429 . S
C1137 C1131 1.429 . S
C1137 C1138 1.523 . S
C1138 C1119 1.368 . S
C1138 C1132 1.368 . S
C1138 C1137 1.523 . S
C1139 C1123 1.429 . S
C1139 C1135 1.422 1_455 S
C1139 C1140 1.523 . S
C1140 C1124 1.368 . S
C1140 C1136 1.368 . S
C1140 C1139 1.523 . S
H1141 C1116 0.950 . S
H1142 C1118 0.950 . S
H1143 C1119 0.949 . S
H1144 C1121 0.950 . S
H1145 C1123 0.950 . S
C1146 C1147 1.349 . S
C1146 C1148 1.327 . S
C1146 H1171 0.950 . S
C1147 C1146 1.349 . S
C1147 C1163 1.349 . S
C1148 C1146 1.327 . S
C1148 C1167 1.429 . S
C1148 H1172 0.950 . S
C1149 C1166 1.574 . S
C1149 C1168 1.368 . S
C1149 H1173 0.949 . S
H1150 C1154 0.949 . S
C1151 C1152 1.349 . S
C1151 C1153 1.327 . S
C1151 H1174 0.950 . S
C1152 C1151 1.349 . S
C1152 C1164 1.349 . S
C1153 C1151 1.327 . S
C1153 C1169 1.429 . S
C1153 H1175 0.950 . S
C1154 H1150 0.949 . S
C1154 C1162 1.574 . S
C1154 C1170 1.368 . S
H1155 C1163 0.950 . S
H1156 C1161 0.950 . S
H1157 C1162 0.949 . S
H1158 C1164 0.950 . S
H1159 C1165 0.950 . S
H1160 C1166 0.949 . S
C1161 H1156 0.950 . S
C1161 C1163 1.327 . S
C1161 C1167 1.429 . S
C1162 C1154 1.574 . S
C1162 H1157 0.949 . S
C1162 C1168 1.368 . S
C1163 C1147 1.349 . S
C1163 H1155 0.950 . S
C1163 C1161 1.327 . S
C1164 C1152 1.349 . S
C1164 H1158 0.950 . S
C1164 C1165 1.327 . S
C1165 H1159 0.950 . S
C1165 C1164 1.327 . S
C1165 C1169 1.429 . S
C1166 C1149 1.574 . S
C1166 H1160 0.949 . S
C1166 C1170 1.368 . S
C1167 C1148 1.429 . S
C1167 C1161 1.429 . S
C1167 C1168 1.523 . S
C1168 C1149 1.368 . S
C1168 C1162 1.368 . S
C1168 C1167 1.523 . S
C1169 C1153 1.429 . S
C1169 C1165 1.429 . S
C1169 C1170 1.523 . S
C1170 C1154 1.368 . S
C1170 C1166 1.368 . S
C1170 C1169 1.523 . S
H1171 C1146 0.950 . S
H1172 C1148 0.950 . S
H1173 C1149 0.949 . S
H1174 C1151 0.950 . S
H1175 C1153 0.950 . S
C222 C126 1.135 . S
C217 C5 1.136 . S
C252 C140 1.157 . S
C247 C18 1.158 . S
C282 C155 1.127 . S
C277 C31 1.154 . S
C307 C42 1.077 . S
C312 C113 1.091 . S
C337 C57 1.366 . S
C342 C112 1.395 . S
C367 C70 1.396 . S
C372 C127 1.383 . S
C402 C141 1.397 . S
C397 C81 1.434 . S
C432 C154 1.412 . S
C427 C96 1.382 . S
C457 C29 1.387 . S
C462 C182 1.391 . S
C492 C196 1.414 . S
C487 C44 1.384 . S
C517 C3 1.412 . S
C522 C211 1.373 . S
C552 C168 1.403 . S
C547 C16 1.401 . S
C577 C83 1.134 . S
C582 C169 1.107 . S
C607 C94 1.101 . S
C612 C183 1.115 . S
C642 C197 1.132 . S
C637 C55 1.115 . S
C667 C68 1.132 . S
C672 C210 1.178 . S
C702 C135 1.316 . S
C697 C1 1.319 . S
C732 C153 1.287 . S
C727 C14 1.314 . S
C757 C27 1.296 . S
C762 C111 1.270 . S
C787 C49 1.296 . S
C792 C121 1.301 . S
C817 C53 1.630 . S
C822 C149 1.695 . S
C852 C107 1.701 . S
C847 C66 1.633 . S
C882 C125 1.659 . S
C877 C88 1.684 . S
C912 C139 1.662 . S
C907 C92 1.628 . S
C942 C191 1.694 . S
C937 C36 1.690 . S
C972 C209 1.651 . S
C967 C40 1.618 . S
C997 C10 1.686 . S
C1002 C163 1.691 . S
C1032 C177 1.694 . S
C1027 C23 1.689 . S
C1062 C205 1.309 . S
C1057 C79 1.313 . S
C1087 C101 1.291 . S
C1092 C167 1.273 . S
C1122 C181 1.275 . S
C1117 C62 1.293 . S
C1152 C195 1.301 . S
C1147 C75 1.319 . S
