# Generated by pormake.
# Topology gar, (4,6)-cn, num edge types: 1
# Building blocks:
#     Node 0, Type 0, BuildingBlock: QUQFOY_clean_sbu_3, # of connection points: 4
#     Node 1, Type 0, BuildingBlock: QUQFOY_clean_sbu_3, # of connection points: 4
#     Node 2, Type 0, BuildingBlock: QUQFOY_clean_sbu_3, # of connection points: 4
#     Node 3, Type 0, BuildingBlock: QUQFOY_clean_sbu_3, # of connection points: 4
#     Node 4, Type 0, BuildingBlock: QUQFOY_clean_sbu_3, # of connection points: 4
#     Node 5, Type 0, BuildingBlock: QUQFOY_clean_sbu_3, # of connection points: 4
#     Node 6, Type 0, BuildingBlock: QUQFOY_clean_sbu_3, # of connection points: 4
#     Node 7, Type 0, BuildingBlock: QUQFOY_clean_sbu_3, # of connection points: 4
#     Node 8, Type 0, BuildingBlock: QUQFOY_clean_sbu_3, # of connection points: 4
#     Node 9, Type 0, BuildingBlock: QUQFOY_clean_sbu_3, # of connection points: 4
#     Node 10, Type 0, BuildingBlock: QUQFOY_clean_sbu_3, # of connection points: 4
#     Node 11, Type 0, BuildingBlock: QUQFOY_clean_sbu_3, # of connection points: 4
#     Node 12, Type 0, BuildingBlock: QUQFOY_clean_sbu_3, # of connection points: 4
#     Node 13, Type 0, BuildingBlock: QUQFOY_clean_sbu_3, # of connection points: 4
#     Node 14, Type 0, BuildingBlock: QUQFOY_clean_sbu_3, # of connection points: 4
#     Node 15, Type 0, BuildingBlock: QUQFOY_clean_sbu_3, # of connection points: 4
#     Node 16, Type 0, BuildingBlock: QUQFOY_clean_sbu_3, # of connection points: 4
#     Node 17, Type 0, BuildingBlock: QUQFOY_clean_sbu_3, # of connection points: 4
#     Node 18, Type 0, BuildingBlock: QUQFOY_clean_sbu_3, # of connection points: 4
#     Node 19, Type 0, BuildingBlock: QUQFOY_clean_sbu_3, # of connection points: 4
#     Node 20, Type 0, BuildingBlock: QUQFOY_clean_sbu_3, # of connection points: 4
#     Node 21, Type 0, BuildingBlock: QUQFOY_clean_sbu_3, # of connection points: 4
#     Node 22, Type 0, BuildingBlock: QUQFOY_clean_sbu_3, # of connection points: 4
#     Node 23, Type 0, BuildingBlock: QUQFOY_clean_sbu_3, # of connection points: 4
#     Node 24, Type 1, BuildingBlock: HISSIN_clean_sbu_0, # of connection points: 6
#     Node 25, Type 1, BuildingBlock: HISSIN_clean_sbu_0, # of connection points: 6
#     Node 26, Type 1, BuildingBlock: HISSIN_clean_sbu_0, # of connection points: 6
#     Node 27, Type 1, BuildingBlock: HISSIN_clean_sbu_0, # of connection points: 6
#     Node 28, Type 1, BuildingBlock: HISSIN_clean_sbu_0, # of connection points: 6
#     Node 29, Type 1, BuildingBlock: HISSIN_clean_sbu_0, # of connection points: 6
#     Node 30, Type 1, BuildingBlock: HISSIN_clean_sbu_0, # of connection points: 6
#     Node 31, Type 1, BuildingBlock: HISSIN_clean_sbu_0, # of connection points: 6
#     Node 32, Type 1, BuildingBlock: HISSIN_clean_sbu_0, # of connection points: 6
#     Node 33, Type 1, BuildingBlock: HISSIN_clean_sbu_0, # of connection points: 6
#     Node 34, Type 1, BuildingBlock: HISSIN_clean_sbu_0, # of connection points: 6
#     Node 35, Type 1, BuildingBlock: HISSIN_clean_sbu_0, # of connection points: 6
#     Node 36, Type 1, BuildingBlock: HISSIN_clean_sbu_0, # of connection points: 6
#     Node 37, Type 1, BuildingBlock: HISSIN_clean_sbu_0, # of connection points: 6
#     Node 38, Type 1, BuildingBlock: HISSIN_clean_sbu_0, # of connection points: 6
#     Node 39, Type 1, BuildingBlock: HISSIN_clean_sbu_0, # of connection points: 6
#     Edge 40, Type (0, 1), BuildingBlock: MIFKUJ_clean_linker_0, # of connection points: 2
#     Edge 41, Type (0, 1), BuildingBlock: MIFKUJ_clean_linker_0, # of connection points: 2
#     Edge 42, Type (0, 1), BuildingBlock: MIFKUJ_clean_linker_0, # of connection points: 2
#     Edge 43, Type (0, 1), BuildingBlock: MIFKUJ_clean_linker_0, # of connection points: 2
#     Edge 44, Type (0, 1), BuildingBlock: MIFKUJ_clean_linker_0, # of connection points: 2
#     Edge 45, Type (0, 1), BuildingBlock: MIFKUJ_clean_linker_0, # of connection points: 2
#     Edge 46, Type (0, 1), BuildingBlock: MIFKUJ_clean_linker_0, # of connection points: 2
#     Edge 47, Type (0, 1), BuildingBlock: MIFKUJ_clean_linker_0, # of connection points: 2
#     Edge 48, Type (0, 1), BuildingBlock: MIFKUJ_clean_linker_0, # of connection points: 2
#     Edge 49, Type (0, 1), BuildingBlock: MIFKUJ_clean_linker_0, # of connection points: 2
#     Edge 50, Type (0, 1), BuildingBlock: MIFKUJ_clean_linker_0, # of connection points: 2
#     Edge 51, Type (0, 1), BuildingBlock: MIFKUJ_clean_linker_0, # of connection points: 2
#     Edge 52, Type (0, 1), BuildingBlock: MIFKUJ_clean_linker_0, # of connection points: 2
#     Edge 53, Type (0, 1), BuildingBlock: MIFKUJ_clean_linker_0, # of connection points: 2
#     Edge 54, Type (0, 1), BuildingBlock: MIFKUJ_clean_linker_0, # of connection points: 2
#     Edge 55, Type (0, 1), BuildingBlock: MIFKUJ_clean_linker_0, # of connection points: 2
#     Edge 56, Type (0, 1), BuildingBlock: MIFKUJ_clean_linker_0, # of connection points: 2
#     Edge 57, Type (0, 1), BuildingBlock: MIFKUJ_clean_linker_0, # of connection points: 2
#     Edge 58, Type (0, 1), BuildingBlock: MIFKUJ_clean_linker_0, # of connection points: 2
#     Edge 59, Type (0, 1), BuildingBlock: MIFKUJ_clean_linker_0, # of connection points: 2
#     Edge 60, Type (0, 1), BuildingBlock: MIFKUJ_clean_linker_0, # of connection points: 2
#     Edge 61, Type (0, 1), BuildingBlock: MIFKUJ_clean_linker_0, # of connection points: 2
#     Edge 62, Type (0, 1), BuildingBlock: MIFKUJ_clean_linker_0, # of connection points: 2
#     Edge 63, Type (0, 1), BuildingBlock: MIFKUJ_clean_linker_0, # of connection points: 2
#     Edge 64, Type (0, 1), BuildingBlock: MIFKUJ_clean_linker_0, # of connection points: 2
#     Edge 65, Type (0, 1), BuildingBlock: MIFKUJ_clean_linker_0, # of connection points: 2
#     Edge 66, Type (0, 1), BuildingBlock: MIFKUJ_clean_linker_0, # of connection points: 2
#     Edge 67, Type (0, 1), BuildingBlock: MIFKUJ_clean_linker_0, # of connection points: 2
#     Edge 68, Type (0, 1), BuildingBlock: MIFKUJ_clean_linker_0, # of connection points: 2
#     Edge 69, Type (0, 1), BuildingBlock: MIFKUJ_clean_linker_0, # of connection points: 2
#     Edge 70, Type (0, 1), BuildingBlock: MIFKUJ_clean_linker_0, # of connection points: 2
#     Edge 71, Type (0, 1), BuildingBlock: MIFKUJ_clean_linker_0, # of connection points: 2
#     Edge 72, Type (0, 1), BuildingBlock: MIFKUJ_clean_linker_0, # of connection points: 2
#     Edge 73, Type (0, 1), BuildingBlock: MIFKUJ_clean_linker_0, # of connection points: 2
#     Edge 74, Type (0, 1), BuildingBlock: MIFKUJ_clean_linker_0, # of connection points: 2
#     Edge 75, Type (0, 1), BuildingBlock: MIFKUJ_clean_linker_0, # of connection points: 2
#     Edge 76, Type (0, 1), BuildingBlock: MIFKUJ_clean_linker_0, # of connection points: 2
#     Edge 77, Type (0, 1), BuildingBlock: MIFKUJ_clean_linker_0, # of connection points: 2
#     Edge 78, Type (0, 1), BuildingBlock: MIFKUJ_clean_linker_0, # of connection points: 2
#     Edge 79, Type (0, 1), BuildingBlock: MIFKUJ_clean_linker_0, # of connection points: 2
#     Edge 80, Type (0, 1), BuildingBlock: MIFKUJ_clean_linker_0, # of connection points: 2
#     Edge 81, Type (0, 1), BuildingBlock: MIFKUJ_clean_linker_0, # of connection points: 2
#     Edge 82, Type (0, 1), BuildingBlock: MIFKUJ_clean_linker_0, # of connection points: 2
#     Edge 83, Type (0, 1), BuildingBlock: MIFKUJ_clean_linker_0, # of connection points: 2
#     Edge 84, Type (0, 1), BuildingBlock: MIFKUJ_clean_linker_0, # of connection points: 2
#     Edge 85, Type (0, 1), BuildingBlock: MIFKUJ_clean_linker_0, # of connection points: 2
#     Edge 86, Type (0, 1), BuildingBlock: MIFKUJ_clean_linker_0, # of connection points: 2
#     Edge 87, Type (0, 1), BuildingBlock: MIFKUJ_clean_linker_0, # of connection points: 2
#     Edge 88, Type (0, 1), BuildingBlock: MIFKUJ_clean_linker_0, # of connection points: 2
#     Edge 89, Type (0, 1), BuildingBlock: MIFKUJ_clean_linker_0, # of connection points: 2
#     Edge 90, Type (0, 1), BuildingBlock: MIFKUJ_clean_linker_0, # of connection points: 2
#     Edge 91, Type (0, 1), BuildingBlock: MIFKUJ_clean_linker_0, # of connection points: 2
#     Edge 92, Type (0, 1), BuildingBlock: MIFKUJ_clean_linker_0, # of connection points: 2
#     Edge 93, Type (0, 1), BuildingBlock: MIFKUJ_clean_linker_0, # of connection points: 2
#     Edge 94, Type (0, 1), BuildingBlock: MIFKUJ_clean_linker_0, # of connection points: 2
#     Edge 95, Type (0, 1), BuildingBlock: MIFKUJ_clean_linker_0, # of connection points: 2
#     Edge 96, Type (0, 1), BuildingBlock: MIFKUJ_clean_linker_0, # of connection points: 2
#     Edge 97, Type (0, 1), BuildingBlock: MIFKUJ_clean_linker_0, # of connection points: 2
#     Edge 98, Type (0, 1), BuildingBlock: MIFKUJ_clean_linker_0, # of connection points: 2
#     Edge 99, Type (0, 1), BuildingBlock: MIFKUJ_clean_linker_0, # of connection points: 2
#     Edge 100, Type (0, 1), BuildingBlock: MIFKUJ_clean_linker_0, # of connection points: 2
#     Edge 101, Type (0, 1), BuildingBlock: MIFKUJ_clean_linker_0, # of connection points: 2
#     Edge 102, Type (0, 1), BuildingBlock: MIFKUJ_clean_linker_0, # of connection points: 2
#     Edge 103, Type (0, 1), BuildingBlock: MIFKUJ_clean_linker_0, # of connection points: 2
#     Edge 104, Type (0, 1), BuildingBlock: MIFKUJ_clean_linker_0, # of connection points: 2
#     Edge 105, Type (0, 1), BuildingBlock: MIFKUJ_clean_linker_0, # of connection points: 2
#     Edge 106, Type (0, 1), BuildingBlock: MIFKUJ_clean_linker_0, # of connection points: 2
#     Edge 107, Type (0, 1), BuildingBlock: MIFKUJ_clean_linker_0, # of connection points: 2
#     Edge 108, Type (0, 1), BuildingBlock: MIFKUJ_clean_linker_0, # of connection points: 2
#     Edge 109, Type (0, 1), BuildingBlock: MIFKUJ_clean_linker_0, # of connection points: 2
#     Edge 110, Type (0, 1), BuildingBlock: MIFKUJ_clean_linker_0, # of connection points: 2
#     Edge 111, Type (0, 1), BuildingBlock: MIFKUJ_clean_linker_0, # of connection points: 2
#     Edge 112, Type (0, 1), BuildingBlock: MIFKUJ_clean_linker_0, # of connection points: 2
#     Edge 113, Type (0, 1), BuildingBlock: MIFKUJ_clean_linker_0, # of connection points: 2
#     Edge 114, Type (0, 1), BuildingBlock: MIFKUJ_clean_linker_0, # of connection points: 2
#     Edge 115, Type (0, 1), BuildingBlock: MIFKUJ_clean_linker_0, # of connection points: 2
#     Edge 116, Type (0, 1), BuildingBlock: MIFKUJ_clean_linker_0, # of connection points: 2
#     Edge 117, Type (0, 1), BuildingBlock: MIFKUJ_clean_linker_0, # of connection points: 2
#     Edge 118, Type (0, 1), BuildingBlock: MIFKUJ_clean_linker_0, # of connection points: 2
#     Edge 119, Type (0, 1), BuildingBlock: MIFKUJ_clean_linker_0, # of connection points: 2
#     Edge 120, Type (0, 1), BuildingBlock: MIFKUJ_clean_linker_0, # of connection points: 2
#     Edge 121, Type (0, 1), BuildingBlock: MIFKUJ_clean_linker_0, # of connection points: 2
#     Edge 122, Type (0, 1), BuildingBlock: MIFKUJ_clean_linker_0, # of connection points: 2
#     Edge 123, Type (0, 1), BuildingBlock: MIFKUJ_clean_linker_0, # of connection points: 2
#     Edge 124, Type (0, 1), BuildingBlock: MIFKUJ_clean_linker_0, # of connection points: 2
#     Edge 125, Type (0, 1), BuildingBlock: MIFKUJ_clean_linker_0, # of connection points: 2
#     Edge 126, Type (0, 1), BuildingBlock: MIFKUJ_clean_linker_0, # of connection points: 2
#     Edge 127, Type (0, 1), BuildingBlock: MIFKUJ_clean_linker_0, # of connection points: 2
#     Edge 128, Type (0, 1), BuildingBlock: MIFKUJ_clean_linker_0, # of connection points: 2
#     Edge 129, Type (0, 1), BuildingBlock: MIFKUJ_clean_linker_0, # of connection points: 2
#     Edge 130, Type (0, 1), BuildingBlock: MIFKUJ_clean_linker_0, # of connection points: 2
#     Edge 131, Type (0, 1), BuildingBlock: MIFKUJ_clean_linker_0, # of connection points: 2
#     Edge 132, Type (0, 1), BuildingBlock: MIFKUJ_clean_linker_0, # of connection points: 2
#     Edge 133, Type (0, 1), BuildingBlock: MIFKUJ_clean_linker_0, # of connection points: 2
#     Edge 134, Type (0, 1), BuildingBlock: MIFKUJ_clean_linker_0, # of connection points: 2
#     Edge 135, Type (0, 1), BuildingBlock: MIFKUJ_clean_linker_0, # of connection points: 2
# Relax obj value: 0.142
# Max RMSD: 0.271
# Mean RMSD: 0.129
data_MOF--net-gar--node1-QUQFOY_clean_sbu_3--node2-HISSIN_clean_sbu_0--edge1-MIFKUJ_clean_linker_0
_symmetry_space_group_name_H-M    P1
_symmetry_Int_Tables_number       1
_symmetry_cell_setting            triclinic
loop_
_symmetry_equiv_pos_as_xyz
'x, y, z'
_cell_length_a     76.388123
_cell_length_b     77.539729
_cell_length_c     75.579003
_cell_angle_alpha  100.03176
_cell_angle_beta   93.19317
_cell_angle_gamma 100.56953
loop_
_atom_site_label
_atom_site_type_symbol
_atom_site_fract_x
_atom_site_fract_y
_atom_site_fract_z
_atom_type_partial_charge
C0 C 0.05144 0.30195 0.36339 0.0
O1 O 0.06189 0.31052 0.35401 0.0
Cd2 Cd 0.09223 0.32338 0.36307 0.0
O3 O 0.05689 0.29815 0.3782 0.0
Cd4 Cd 0.08433 0.29963 0.39754 0.0
C5 C 0.08582 0.34448 0.40601 0.0
O6 O 0.10034 0.29862 0.37251 0.0
O7 O 0.11758 0.30134 0.39672 0.0
O8 O 0.07225 0.26845 0.39632 0.0
C9 C 0.11596 0.30046 0.37976 0.0
O10 O 0.08988 0.34487 0.38993 0.0
C11 C 0.07306 0.26931 0.41328 0.0
O12 O 0.08279 0.3299 0.41198 0.0
O13 O 0.0795 0.28446 0.42318 0.0
C14 C 0.96045 0.75093 0.65434 0.0
O15 O 0.96953 0.74229 0.66282 0.0
Cd16 Cd 0.99897 0.73816 0.6589 0.0
O17 O 0.96656 0.75843 0.64164 0.0
Cd18 Cd 0.99395 0.76042 0.62572 0.0
C19 C 0.99012 0.71569 0.61508 0.0
O20 O 0.01356 0.76585 0.65274 0.0
O21 O 0.02609 0.76197 0.62791 0.0
O22 O 0.99098 0.79053 0.62292 0.0
C23 C 0.02774 0.76547 0.64497 0.0
O24 O 0.99455 0.7161 0.63164 0.0
C25 C 0.99588 0.78923 0.60705 0.0
O26 O 0.98811 0.72971 0.60921 0.0
O27 O 0.99831 0.77405 0.59936 0.0
C28 C 0.55289 0.80543 0.86418 0.0
O29 O 0.56388 0.81427 0.85552 0.0
Cd30 Cd 0.59501 0.82 0.86354 0.0
O31 O 0.55806 0.79901 0.87749 0.0
Cd32 Cd 0.58486 0.79683 0.8957 0.0
C33 C 0.59059 0.8413 0.90685 0.0
O34 O 0.59941 0.79194 0.86941 0.0
O35 O 0.61733 0.79795 0.89364 0.0
O36 O 0.5655 0.76869 0.89587 0.0
C37 C 0.61503 0.79346 0.87659 0.0
O38 O 0.59538 0.84174 0.89103 0.0
C39 C 0.57172 0.76689 0.91118 0.0
O40 O 0.58568 0.82654 0.91205 0.0
O41 O 0.58433 0.77914 0.91955 0.0
C42 C 0.46274 0.25093 0.15815 0.0
O43 O 0.47291 0.243 0.16627 0.0
Cd44 Cd 0.50148 0.23809 0.15963 0.0
O45 O 0.46761 0.25822 0.14491 0.0
Cd46 Cd 0.49381 0.26229 0.1278 0.0
C47 C 0.48886 0.21789 0.1152 0.0
O48 O 0.51511 0.2654 0.15258 0.0
O49 O 0.52581 0.26303 0.12656 0.0
O50 O 0.49634 0.29372 0.12951 0.0
C51 C 0.52854 0.26519 0.14356 0.0
O52 O 0.49392 0.21748 0.13142 0.0
C53 C 0.49465 0.29292 0.11259 0.0
O54 O 0.48748 0.23239 0.11001 0.0
O55 O 0.49099 0.27755 0.10252 0.0
C56 C 0.03309 0.75836 0.15474 0.0
O57 O 0.04305 0.75202 0.1649 0.0
Cd58 Cd 0.0741 0.75166 0.16205 0.0
O59 O 0.03918 0.76572 0.14199 0.0
Cd60 Cd 0.06654 0.77211 0.12764 0.0
C61 C 0.06542 0.72794 0.11892 0.0
O62 O 0.08714 0.77884 0.15352 0.0
O63 O 0.09847 0.77457 0.12795 0.0
O64 O 0.06 0.80018 0.12303 0.0
C65 C 0.10085 0.77775 0.14501 0.0
O66 O 0.07148 0.72872 0.13516 0.0
C67 C 0.06208 0.79728 0.10627 0.0
O68 O 0.06146 0.74149 0.11349 0.0
O69 O 0.06593 0.78241 0.09948 0.0
C70 C 0.47776 0.79 0.35645 0.0
O71 O 0.48975 0.79788 0.34802 0.0
Cd72 Cd 0.52104 0.80515 0.35706 0.0
O73 O 0.4818 0.78363 0.37019 0.0
Cd74 Cd 0.50772 0.78093 0.3888 0.0
C75 C 0.51545 0.82591 0.39972 0.0
O76 O 0.52885 0.78005 0.36701 0.0
O77 O 0.53976 0.78348 0.39471 0.0
O78 O 0.49791 0.7502 0.3912 0.0
C79 C 0.54245 0.78246 0.37821 0.0
O80 O 0.52087 0.82703 0.38423 0.0
C81 C 0.49772 0.75366 0.40827 0.0
O82 O 0.50962 0.81093 0.4041 0.0
O83 O 0.50122 0.76998 0.41601 0.0
C84 C 0.53478 0.26268 0.65568 0.0
O85 O 0.54518 0.25829 0.66708 0.0
Cd86 Cd 0.57462 0.25336 0.6617 0.0
O87 O 0.54002 0.26665 0.64099 0.0
Cd88 Cd 0.56694 0.27017 0.6254 0.0
C89 C 0.56225 0.22588 0.62039 0.0
O90 O 0.58877 0.27813 0.65004 0.0
O91 O 0.59846 0.26876 0.62448 0.0
O92 O 0.56648 0.29979 0.62112 0.0
C93 C 0.60181 0.27484 0.64128 0.0
O94 O 0.56901 0.22781 0.6366 0.0
C95 C 0.5644 0.29575 0.60403 0.0
O96 O 0.55915 0.23901 0.61358 0.0
O97 O 0.56287 0.27942 0.59671 0.0
C98 C 0.97902 0.29141 0.86027 0.0
O99 O 0.99111 0.29844 0.85135 0.0
Cd100 Cd 0.02242 0.30744 0.86098 0.0
O101 O 0.98282 0.28715 0.8753 0.0
Cd102 Cd 0.00915 0.28712 0.89475 0.0
C103 C 0.01738 0.3321 0.90191 0.0
O104 O 0.02963 0.28314 0.87279 0.0
O105 O 0.04151 0.29057 0.9003 0.0
O106 O 0.99798 0.257 0.89798 0.0
C107 C 0.0436 0.28689 0.88364 0.0
O108 O 0.02378 0.33184 0.88666 0.0
C109 C 0.99908 0.26058 0.91511 0.0
O110 O 0.01041 0.31783 0.90709 0.0
O111 O 0.00408 0.27687 0.92272 0.0
C112 C 0.44125 0.02227 0.30846 0.0
O113 O 0.44911 0.01444 0.296 0.0
Cd114 Cd 0.44211 0.01011 0.2644 0.0
O115 O 0.42792 0.02925 0.30522 0.0
Cd116 Cd 0.40926 0.03203 0.27965 0.0
C117 C 0.3999 0.98726 0.26804 0.0
O118 O 0.43145 0.03563 0.25989 0.0
O119 O 0.40456 0.03054 0.24729 0.0
O120 O 0.40767 0.06208 0.2915 0.0
C121 C 0.42116 0.03241 0.24552 0.0
O122 O 0.41523 0.98756 0.2621 0.0
C123 C 0.39068 0.05916 0.28986 0.0
O124 O 0.39516 1.00137 0.27586 0.0
O125 O 0.38242 0.04305 0.28504 0.0
C126 C 0.30145 0.15389 0.49924 0.0
O127 O 0.28869 0.14327 0.50404 0.0
Cd128 Cd 0.26029 0.14954 0.50948 0.0
O129 O 0.29894 0.16846 0.49471 0.0
Cd130 Cd 0.27242 0.18312 0.48977 0.0
C131 C 0.27459 0.1926 0.53515 0.0
O132 O 0.24932 0.15641 0.48239 0.0
O133 O 0.23954 0.18014 0.49235 0.0
O134 O 0.27944 0.18402 0.45876 0.0
C135 C 0.236 0.16354 0.4858 0.0
O136 O 0.26788 0.17601 0.53334 0.0
C137 C 0.27895 0.20035 0.45911 0.0
O138 O 0.27833 0.1996 0.52138 0.0
O139 O 0.2759 0.20919 0.47407 0.0
C140 C 0.13022 0.01491 0.79704 0.0
O141 O 0.12213 0.02332 0.7873 0.0
Cd142 Cd 0.13095 0.02921 0.75793 0.0
O143 O 0.14349 0.00814 0.7906 0.0
Cd144 Cd 0.16048 0.00539 0.75815 0.0
C145 C 0.17368 0.05482 0.76093 0.0
O146 O 0.13203 0.00293 0.7357 0.0
O147 O 0.15679 0.00871 0.72431 0.0
O148 O 0.16241 0.97043 0.75342 0.0
C149 C 0.13981 0.00581 0.72169 0.0
O150 O 0.15682 0.05378 0.75884 0.0
C151 C 0.17915 0.97119 0.75656 0.0
O152 O 0.17961 0.04036 0.76241 0.0
O153 O 0.18778 0.98735 0.76033 0.0
C154 C 0.30543 0.96276 0.99556 0.0
O155 O 0.2972 0.97021 0.98494 0.0
Cd156 Cd 0.26544 0.95891 0.97595 0.0
O157 O 0.29669 0.9502 0.00226 0.0
Cd158 Cd 0.26474 0.93425 0.00066 0.0
C159 C 0.26571 0.91677 0.95567 0.0
O160 O 0.24743 0.95926 0.00183 0.0
O161 O 0.23179 0.93256 0.9981 0.0
O162 O 0.27212 0.93375 0.03263 0.0
C163 C 0.23207 0.94925 0.00102 0.0
O164 O 0.26275 0.93169 0.95272 0.0
C165 C 0.26909 0.91682 0.0306 0.0
O166 O 0.26777 0.91437 0.97184 0.0
O167 O 0.26317 0.90812 0.01492 0.0
C168 C 0.32798 0.40783 0.02198 0.0
O169 O 0.31692 0.41447 0.01342 0.0
Cd170 Cd 0.28573 0.40432 0.00641 0.0
O171 O 0.32269 0.39388 0.02868 0.0
Cd172 Cd 0.29225 0.374 0.03026 0.0
C173 C 0.28693 0.36143 0.98463 0.0
O174 O 0.2756 0.39808 0.03374 0.0
O175 O 0.25921 0.37204 0.02602 0.0
O176 O 0.30194 0.37137 0.0615 0.0
C177 C 0.26002 0.38872 0.03016 0.0
O178 O 0.28262 0.37655 0.98463 0.0
C179 C 0.29352 0.35543 0.06036 0.0
O180 O 0.29276 0.35725 0.99917 0.0
O181 O 0.28535 0.34783 0.04512 0.0
C182 C 0.83524 0.10128 0.02257 0.0
O183 O 0.82622 0.09426 0.03399 0.0
Cd184 Cd 0.7981 0.10282 0.0414 0.0
O185 O 0.829 0.11258 0.01485 0.0
Cd186 Cd 0.79957 0.12446 0.01718 0.0
C187 C 0.80367 0.14562 0.06098 0.0
O188 O 0.77452 0.09733 0.0167 0.0
O189 O 0.76797 0.12354 0.02012 0.0
O190 O 0.79846 0.12541 0.98472 0.0
C191 C 0.76252 0.10681 0.01708 0.0
O192 O 0.80052 0.12988 0.06429 0.0
C193 C 0.79753 0.14183 0.98702 0.0
O194 O 0.80535 0.14788 0.04485 0.0
O195 O 0.7988 0.15018 0.00317 0.0
C196 C 0.12959 0.53732 0.26213 0.0
O197 O 0.11708 0.53757 0.25046 0.0
Cd198 Cd 0.12591 0.54181 0.22147 0.0
O199 O 0.14486 0.53501 0.2577 0.0
Cd200 Cd 0.16198 0.52728 0.23285 0.0
C201 C 0.16605 0.57083 0.23909 0.0
O202 O 0.13959 0.5178 0.20932 0.0
O203 O 0.16579 0.52796 0.20153 0.0
O204 O 0.16208 0.50001 0.24221 0.0
C205 C 0.14931 0.52161 0.19697 0.0
O206 O 0.15005 0.56812 0.23179 0.0
C207 C 0.17897 0.5017 0.24307 0.0
O208 O 0.17364 0.55799 0.24129 0.0
O209 O 0.18813 0.51559 0.23882 0.0
C210 C 0.82985 0.90808 0.52166 0.0
O211 O 0.81897 0.91586 0.51431 0.0
Cd212 Cd 0.78765 0.90747 0.50828 0.0
O213 O 0.82424 0.89397 0.52801 0.0
Cd214 Cd 0.79372 0.87462 0.53014 0.0
C215 C 0.7889 0.86504 0.48433 0.0
O216 O 0.77739 0.89859 0.53449 0.0
O217 O 0.76071 0.87268 0.52638 0.0
O218 O 0.80199 0.87226 0.5615 0.0
C219 C 0.76175 0.88939 0.53071 0.0
O220 O 0.78579 0.88078 0.48558 0.0
C221 C 0.79566 0.85565 0.55968 0.0
O222 O 0.79317 0.85911 0.4984 0.0
O223 O 0.78926 0.84757 0.5439 0.0
C224 C 0.94317 0.0443 0.29355 0.0
O225 O 0.95049 0.03535 0.28144 0.0
Cd226 Cd 0.93954 0.02719 0.25015 0.0
O227 O 0.92981 0.05114 0.28843 0.0
Cd228 Cd 0.91176 0.05148 0.25473 0.0
C229 C 0.89765 1.00217 0.25205 0.0
O230 O 0.93936 0.05241 0.23492 0.0
O231 O 0.91444 0.04337 0.21931 0.0
O232 O 0.91001 0.08658 0.26159 0.0
C233 C 0.93132 0.04783 0.21911 0.0
O234 O 0.91381 0.00242 0.24856 0.0
C235 C 0.89328 0.08597 0.25848 0.0
O236 O 0.8924 0.01737 0.25531 0.0
O237 O 0.88461 0.06987 0.25401 0.0
C238 C 0.33459 0.5989 0.5216 0.0
O239 O 0.32462 0.58972 0.53084 0.0
Cd240 Cd 0.29716 0.5989 0.53983 0.0
O241 O 0.32931 0.61198 0.51622 0.0
Cd242 Cd 0.29957 0.62302 0.51839 0.0
C243 C 0.3043 0.64152 0.56225 0.0
O244 O 0.27421 0.59604 0.51537 0.0
O245 O 0.2686 0.62204 0.52521 0.0
O246 O 0.29889 0.62497 0.48621 0.0
C247 C 0.26257 0.60569 0.51883 0.0
O248 O 0.29959 0.62533 0.564 0.0
C249 C 0.29644 0.64094 0.48878 0.0
O250 O 0.30731 0.64498 0.54674 0.0
O251 O 0.29665 0.64875 0.505 0.0
C252 C 0.44202 0.54574 0.79492 0.0
O253 O 0.45041 0.53665 0.78399 0.0
Cd254 Cd 0.44039 0.52638 0.75228 0.0
O255 O 0.42863 0.55181 0.78852 0.0
Cd256 Cd 0.41116 0.55214 0.75469 0.0
C257 C 0.39712 0.50299 0.75371 0.0
O258 O 0.43967 0.55106 0.73624 0.0
O259 O 0.41538 0.54748 0.7198 0.0
O260 O 0.4077 0.58651 0.76597 0.0
C261 C 0.43222 0.54863 0.72022 0.0
O262 O 0.41365 0.50299 0.75218 0.0
C263 C 0.39237 0.58638 0.75821 0.0
O264 O 0.3917 0.51809 0.75482 0.0
O265 O 0.38525 0.57088 0.74926 0.0
C266 C 0.63014 0.04166 0.76193 0.0
O267 O 0.61956 0.04532 0.75021 0.0
Cd268 Cd 0.62983 0.04791 0.7214 0.0
O269 O 0.64488 0.03738 0.75792 0.0
Cd270 Cd 0.66513 0.03159 0.73548 0.0
C271 C 0.66939 0.07577 0.74212 0.0
O272 O 0.64389 0.02349 0.71104 0.0
O273 O 0.67084 0.03211 0.70427 0.0
O274 O 0.66468 0.00303 0.7427 0.0
C275 C 0.65438 0.02649 0.69906 0.0
O276 O 0.65412 0.07328 0.73327 0.0
C277 C 0.68153 0.00529 0.7458 0.0
O278 O 0.67639 0.06277 0.74519 0.0
O279 O 0.69093 0.02016 0.74409 0.0
C280 C 0.80025 0.65597 -0.00039 0.0
O281 O 0.78799 0.64623 0.00614 0.0
Cd282 Cd 0.75958 0.65177 0.01231 0.0
O283 O 0.79749 0.66996 0.99393 0.0
Cd284 Cd 0.77089 0.68489 0.98919 0.0
C285 C 0.77378 0.69604 0.03485 0.0
O286 O 0.74972 0.65721 0.98428 0.0
O287 O 0.73726 0.67995 0.988 0.0
O288 O 0.78106 0.68715 0.95922 0.0
C289 C 0.7354 0.66309 0.98508 0.0
O290 O 0.76799 0.67948 0.03445 0.0
C291 C 0.77781 0.70259 0.95893 0.0
O292 O 0.7763 0.70221 0.02041 0.0
O293 O 0.77173 0.71015 0.97292 0.0
C294 C 0.94005 0.52334 0.80234 0.0
O295 O 0.94967 0.5196 0.78959 0.0
Cd296 Cd 0.93904 0.51099 0.75859 0.0
O297 O 0.92391 0.5249 0.79939 0.0
Cd298 Cd 0.90219 0.52543 0.77488 0.0
C299 C 0.90052 0.48135 0.76394 0.0
O300 O 0.92239 0.53259 0.75412 0.0
O301 O 0.89523 0.52272 0.74254 0.0
O302 O 0.90089 0.55501 0.78846 0.0
C303 C 0.91154 0.52761 0.74011 0.0
O304 O 0.91612 0.48442 0.75854 0.0
C305 C 0.88396 0.55274 0.78674 0.0
O306 O 0.89275 0.49373 0.77102 0.0
O307 O 0.87523 0.53685 0.78125 0.0
C308 C 0.80722 0.46184 0.49751 0.0
O309 O 0.79931 0.47152 0.48922 0.0
Cd310 Cd 0.7684 0.45917 0.47798 0.0
O311 O 0.79816 0.44783 0.50164 0.0
Cd312 Cd 0.76539 0.43353 0.50058 0.0
C313 C 0.76759 0.41647 0.45639 0.0
O314 O 0.74877 0.45923 0.50253 0.0
O315 O 0.73269 0.43266 0.49743 0.0
O316 O 0.77507 0.43444 0.53212 0.0
C317 C 0.73325 0.44937 0.50101 0.0
O318 O 0.76757 0.43243 0.45438 0.0
C319 C 0.76957 0.41791 0.5318 0.0
O320 O 0.76695 0.4127 0.4721 0.0
O321 O 0.76129 0.40871 0.51715 0.0
C322 C 0.63025 0.51625 0.29743 0.0
O323 O 0.6239 0.52611 0.28801 0.0
Cd324 Cd 0.63107 0.5299 0.25766 0.0
O325 O 0.64206 0.50748 0.29055 0.0
Cd326 Cd 0.65965 0.50494 0.25827 0.0
C327 C 0.67378 0.55443 0.26002 0.0
O328 O 0.63132 0.50305 0.2358 0.0
O329 O 0.65611 0.50782 0.22428 0.0
O330 O 0.6623 0.47002 0.25168 0.0
C331 C 0.63916 0.50545 0.22169 0.0
O332 O 0.657 0.5537 0.25769 0.0
C333 C 0.67862 0.4709 0.25707 0.0
O334 O 0.67933 0.53988 0.26198 0.0
O335 O 0.68666 0.48706 0.26286 0.0
Eu336 Eu 0.04677 0.05012 0.01644 0.0
Eu337 Eu 0.02521 0.01008 0.00422 0.0
C338 C 0.04856 0.02831 0.97469 0.0
C339 C 0.05661 0.0983 0.0158 0.0
C340 C 0.04401 0.09399 0.00071 0.0
C341 C 0.05681 0.1297 0.01674 0.0
C342 C 0.03767 0.10735 0.9938 0.0
C343 C 0.06303 0.11619 0.02381 0.0
C344 C 0.04402 0.12536 0.00169 0.0
C345 C 0.06212 0.08383 0.02334 0.0
O346 O 0.05289 0.00669 0.014 0.0
O347 O 0.06759 0.03539 0.02535 0.0
C348 C 0.0674 0.01817 0.02142 0.0
O349 O 0.03411 0.04526 0.0428 0.0
O350 O 0.02356 0.98418 0.98673 0.0
O351 O 0.0036 0.98772 0.00541 0.0
O352 O 0.0188 0.0164 0.03411 0.0
C353 C 0.02302 0.03129 0.04645 0.0
O354 O 0.01974 0.05343 0.00427 0.0
O355 O 0.00313 0.02515 0.00112 0.0
O356 O 0.03366 0.01753 0.97707 0.0
O357 O 0.05099 0.07658 0.0336 0.0
O358 O 0.0674 0.07186 0.01171 0.0
O359 O 0.05663 0.04055 0.98857 0.0
C360 C 0.01585 0.96201 0.00343 0.0
C361 C 0.02275 0.9659 0.0216 0.0
C362 C 0.02314 0.93262 0.00047 0.0
C363 C 0.02964 0.95321 0.02919 0.0
C364 C 0.01609 0.94534 0.99287 0.0
C365 C 0.02995 0.93651 0.01868 0.0
C366 C 0.01097 0.97632 0.99514 0.0
C367 C 0.00419 0.04227 0.00154 0.0
H368 H 0.03896 0.08022 0.99431 0.0
H369 H 0.06207 0.14349 0.02297 0.0
H370 H 0.02759 0.10352 0.98243 0.0
H371 H 0.07273 0.11969 0.03551 0.0
H372 H 0.02321 0.97892 0.02985 0.0
H373 H 0.02315 0.91972 0.99219 0.0
H374 H 0.03501 0.95656 0.04321 0.0
H375 H 0.0112 0.94233 0.97872 0.0
Eu376 Eu 0.28545 0.7782 0.23737 0.0
Eu377 Eu 0.27788 0.7836 0.28665 0.0
C378 C 0.2516 0.78527 0.26057 0.0
C379 C 0.28627 0.79456 0.19227 0.0
C380 C 0.27619 0.80767 0.19031 0.0
C381 C 0.30617 0.80588 0.17102 0.0
C382 C 0.28108 0.81979 0.17901 0.0
C383 C 0.30133 0.79377 0.18249 0.0
C384 C 0.29608 0.81903 0.16919 0.0
C385 C 0.28044 0.78145 0.20391 0.0
O386 O 0.26594 0.75521 0.27261 0.0
O387 O 0.27331 0.75083 0.24215 0.0
C388 C 0.26606 0.74545 0.2563 0.0
O389 O 0.31256 0.77801 0.24964 0.0
O390 O 0.26662 0.78599 0.3125 0.0
O391 O 0.29453 0.78399 0.31123 0.0
O392 O 0.29596 0.76817 0.27071 0.0
C393 C 0.31163 0.77484 0.26605 0.0
O394 O 0.29977 0.80556 0.25112 0.0
O395 O 0.29072 0.81033 0.28079 0.0
O396 O 0.24994 0.78642 0.2776 0.0
O397 O 0.29221 0.7727 0.20949 0.0
O398 O 0.27019 0.78637 0.2164 0.0
O399 O 0.26824 0.78688 0.25757 0.0
C400 C 0.27862 0.77008 0.33271 0.0
C401 C 0.29356 0.76658 0.34207 0.0
C402 C 0.25939 0.7475 0.34529 0.0
C403 C 0.29146 0.75349 0.35276 0.0
C404 C 0.26149 0.7605 0.33452 0.0
C405 C 0.27436 0.74376 0.35436 0.0
C406 C 0.28103 0.78366 0.32115 0.0
C407 C 0.29917 0.81539 0.26719 0.0
H408 H 0.2643 0.80842 0.19733 0.0
H409 H 0.31778 0.80496 0.16357 0.0
H410 H 0.27275 0.82945 0.17755 0.0
H411 H 0.30925 0.78369 0.18354 0.0
H412 H 0.30687 0.7739 0.34106 0.0
H413 H 0.24609 0.74014 0.34627 0.0
H414 H 0.3032 0.75108 0.3599 0.0
H415 H 0.24967 0.76292 0.32754 0.0
Eu416 Eu 0.55423 0.02425 0.50671 0.0
Eu417 Eu 0.51429 0.03057 0.52141 0.0
C418 C 0.54717 0.02989 0.54853 0.0
C419 C 0.59755 0.00674 0.49575 0.0
C420 C 0.59654 0.99511 0.50811 0.0
C421 C 0.62417 0.99685 0.48525 0.0
C422 C 0.60934 0.98439 0.50901 0.0
C423 C 0.61141 0.00755 0.48436 0.0
C424 C 0.62323 0.9851 0.49752 0.0
C425 C 0.58396 0.01762 0.4939 0.0
O426 O 0.5317 0.05744 0.52338 0.0
O427 O 0.55232 0.05192 0.50287 0.0
C428 C 0.54367 0.06269 0.51261 0.0
O429 O 0.53272 0.01588 0.48392 0.0
O430 O 0.49872 0.04198 0.54207 0.0
O431 O 0.4852 0.02565 0.51707 0.0
O432 O 0.515 0.03585 0.49342 0.0
C433 C 0.52103 0.02553 0.4806 0.0
O434 O 0.54213 1.00032 0.51778 0.0
O435 O 0.51282 1.00141 0.51086 0.0
O436 O 0.52988 0.02489 0.54472 0.0
O437 O 0.56808 0.00894 0.48713 0.0
O438 O 0.58339 0.03056 0.50732 0.0
O439 O 0.55842 0.03359 0.53657 0.0
C440 C 0.47214 0.04924 0.53108 0.0
C441 C 0.47553 0.06175 0.51971 0.0
C442 C 0.44663 0.06169 0.54086 0.0
C443 C 0.46436 0.07407 0.51877 0.0
C444 C 0.45777 0.0494 0.54176 0.0
C445 C 0.44965 0.07403 0.52921 0.0
C446 C 0.48355 0.03608 0.53218 0.0
C447 C 0.52539 0.99239 0.5135 0.0
H448 H 0.58585 0.99428 0.51694 0.0
H449 H 0.63463 0.99759 0.47615 0.0
H450 H 0.6084 0.97556 0.51871 0.0
H451 H 0.61227 0.01635 0.47463 0.0
H452 H 0.4867 0.06187 0.51146 0.0
H453 H 0.43563 0.06151 0.54931 0.0
H454 H 0.46697 0.0833 0.50957 0.0
H455 H 0.45511 0.03996 0.55076 0.0
Eu456 Eu 0.26699 0.28491 0.75627 0.0
Eu457 Eu 0.30438 0.27315 0.76342 0.0
C458 C 0.26743 0.24338 0.76192 0.0
C459 C 0.22217 0.29637 0.76385 0.0
C460 C 0.22035 0.28665 0.77786 0.0
C461 C 0.19984 0.31267 0.77541 0.0
C462 C 0.20823 0.28984 0.79054 0.0
C463 C 0.2119 0.30938 0.76267 0.0
C464 C 0.19792 0.30295 0.78948 0.0
C465 C 0.23642 0.29474 0.75203 0.0
O466 O 0.29724 0.26456 0.73339 0.0
O467 O 0.27693 0.28193 0.72875 0.0
C468 C 0.28754 0.2713 0.72256 0.0
O469 O 0.28689 0.31142 0.75781 0.0
O470 O 0.31953 0.25178 0.76006 0.0
O471 O 0.33241 0.2783 0.77386 0.0
O472 O 0.31369 0.30223 0.7589 0.0
C473 C 0.30449 0.31508 0.75808 0.0
O474 O 0.26974 0.28691 0.7866 0.0
O475 O 0.29894 0.28419 0.7914 0.0
O476 O 0.28394 0.24953 0.76948 0.0
O477 O 0.25136 0.30578 0.75799 0.0
O478 O 0.23882 0.27862 0.74595 0.0
O479 O 0.25928 0.25406 0.75392 0.0
C480 C 0.34845 0.26218 0.75349 0.0
C481 C 0.35297 0.27631 0.74415 0.0
C482 C 0.36664 0.24517 0.73508 0.0
C483 C 0.36435 0.2749 0.73045 0.0
C484 C 0.35539 0.24665 0.74893 0.0
C485 C 0.37112 0.25927 0.72572 0.0
C486 C 0.33463 0.26256 0.76608 0.0
C487 C 0.28399 0.2876 0.79748 0.0
H488 H 0.22851 0.2768 0.77916 0.0
H489 H 0.19219 0.32298 0.7744 0.0
H490 H 0.20683 0.28194 0.80105 0.0
H491 H 0.21353 0.31728 0.75215 0.0
H492 H 0.34741 0.28827 0.74714 0.0
H493 H 0.37197 0.23309 0.73178 0.0
H494 H 0.36763 0.2859 0.72336 0.0
H495 H 0.35176 0.23552 0.75579 0.0
Eu496 Eu 0.03044 0.04698 0.52002 0.0
Eu497 Eu 0.04472 0.01183 0.503 0.0
C498 C 0.06936 0.0496 0.5044 0.0
C499 C 0.02328 0.09288 0.52142 0.0
C500 C 0.03834 0.09656 0.51182 0.0
C501 C 0.01118 0.11606 0.50991 0.0
C502 C 0.03984 0.10987 0.50142 0.0
C503 C 0.00971 0.10273 0.52039 0.0
C504 C 0.02622 0.11969 0.50021 0.0
C505 C 0.02085 0.07741 0.53055 0.0
O506 O 0.05817 0.02037 0.53216 0.0
O507 O 0.03767 0.03531 0.54517 0.0
C508 C 0.05129 0.02709 0.54689 0.0
O509 O 0.00605 0.02517 0.51619 0.0
O510 O 0.06619 0.9967 0.50027 0.0
O511 O 0.0394 0.98417 0.48864 0.0
O512 O 0.02078 0.00242 0.51762 0.0
C513 C 0.00601 0.00871 0.51795 0.0
O514 O 0.02581 0.04595 0.48941 0.0
O515 O 0.02894 0.01736 0.47812 0.0
O516 O 0.06412 0.03366 0.49445 0.0
O517 O 0.00987 0.06329 0.52172 0.0
O518 O 0.0354 0.07344 0.53721 0.0
O519 O 0.05971 0.05579 0.51691 0.0
C520 C 0.05489 0.96791 0.50501 0.0
C521 C 0.04887 0.9711 0.52227 0.0
C522 C 0.05798 0.93824 0.50917 0.0
C523 C 0.04705 0.95789 0.53274 0.0
C524 C 0.0597 0.95152 0.49858 0.0
C525 C 0.05127 0.94122 0.52618 0.0
C526 C 0.05516 0.98166 0.49387 0.0
C527 C 0.02386 0.03233 0.47571 0.0
H528 H 0.04886 0.08892 0.51208 0.0
H529 H 1.00036 0.12325 0.50908 0.0
H530 H 0.05172 0.11248 0.49437 0.0
H531 H 0.99781 0.09982 0.52736 0.0
H532 H 0.0452 0.98372 0.52752 0.0
H533 H 0.06122 0.92543 0.50379 0.0
H534 H 0.04203 0.96061 0.54586 0.0
H535 H 0.06438 0.94886 0.48529 0.0
Eu536 Eu 0.30394 0.7911 0.75781 0.0
Eu537 Eu 0.26718 0.76561 0.75909 0.0
C538 C 0.28591 0.79293 0.79504 0.0
C539 C 0.35203 0.80921 0.76575 0.0
C540 C 0.35159 0.79725 0.77772 0.0
C541 C 0.3843 0.8162 0.77033 0.0
C542 C 0.36737 0.7946 0.7858 0.0
C543 C 0.36839 0.81872 0.76205 0.0
C544 C 0.38382 0.80398 0.78211 0.0
C545 C 0.33524 0.81068 0.75668 0.0
O546 O 0.25799 0.79119 0.75169 0.0
O547 O 0.28459 0.81105 0.75804 0.0
C548 C 0.26698 0.80807 0.75445 0.0
O549 O 0.29281 0.78123 0.72856 0.0
O550 O 0.24644 0.75046 0.77227 0.0
O551 O 0.24413 0.74862 0.74312 0.0
O552 O 0.27942 0.75481 0.73441 0.0
C553 C 0.28657 0.76415 0.72301 0.0
O554 O 0.31313 0.76421 0.76054 0.0
O555 O 0.28677 0.74727 0.76576 0.0
O556 O 0.27087 0.78466 0.78569 0.0
O557 O 0.3282 0.79687 0.7443 0.0
O558 O 0.3236 0.81562 0.76745 0.0
O559 O 0.30118 0.79304 0.78784 0.0
C560 C 0.21784 0.74693 0.7567 0.0
C561 C 0.20523 0.73468 0.74431 0.0
C562 C 0.19769 0.76782 0.75953 0.0
C563 C 0.18932 0.73932 0.73889 0.0
C564 C 0.21377 0.76326 0.76482 0.0
C565 C 0.18583 0.75613 0.74601 0.0
C566 C 0.23627 0.74446 0.75712 0.0
C567 C 0.30416 0.7488 0.76377 0.0
H568 H 0.33899 0.78984 0.78072 0.0
H569 H 0.39694 0.82353 0.76735 0.0
H570 H 0.36672 0.78534 0.79507 0.0
H571 H 0.36884 0.8279 0.75271 0.0
H572 H 0.20839 0.72222 0.73764 0.0
H573 H 0.19514 0.78092 0.76496 0.0
H574 H 0.18028 0.73029 0.72829 0.0
H575 H 0.22355 0.77302 0.77412 0.0
Eu576 Eu 0.53895 0.02724 0.02661 0.0
Eu577 Eu 0.52913 0.03746 0.9845 0.0
C578 C 0.5327 0.06632 0.01468 0.0
C579 C 0.53466 0.02272 0.07491 0.0
C580 C 0.5243 0.03309 0.08529 0.0
C581 C 0.52173 0.99704 0.08748 0.0
C582 C 0.51224 0.0253 0.09607 0.0
C583 C 0.5337 0.00478 0.07652 0.0
C584 C 0.51058 0.00713 0.09684 0.0
C585 C 0.54493 0.03016 0.06121 0.0
O586 O 0.5592 0.04768 0.99187 0.0
O587 O 0.5657 0.03381 0.0157 0.0
C588 C 0.5707 0.04335 0.00334 0.0
O589 O 0.53391 1.00078 0.00901 0.0
O590 O 0.52582 0.05209 0.96281 0.0
O591 O 0.521 0.02319 0.95688 0.0
O592 O 0.54091 0.01264 0.98374 0.0
C593 C 0.53739 0.99899 0.99211 0.0
O594 O 0.50926 0.01629 0.021 0.0
O595 O 0.50267 0.02852 0.9959 0.0
O596 O 0.52889 0.06559 0.99777 0.0
O597 O 0.55129 0.0189 0.04949 0.0
O598 O 0.53786 0.0416 0.05373 0.0
O599 O 0.53503 0.0517 0.0191 0.0
C600 C 0.53964 0.03908 0.93927 0.0
C601 C 0.5556 0.03491 0.94585 0.0
C602 C 0.55554 0.05332 0.91731 0.0
C603 C 0.57154 0.0404 0.93864 0.0
C604 C 0.53958 0.04805 0.92477 0.0
C605 C 0.57173 0.04998 0.92454 0.0
C606 C 0.52471 0.03787 0.95044 0.0
C607 C 0.49782 0.01951 0.00879 0.0
H608 H 0.52501 0.04703 0.08454 0.0
H609 H 0.52075 0.98306 0.08817 0.0
H610 H 0.50402 0.03339 0.10365 0.0
H611 H 0.5417 0.99653 0.06885 0.0
H612 H 0.55597 0.02829 0.95731 0.0
H613 H 0.55522 0.0602 0.90603 0.0
H614 H 0.58376 0.03763 0.94449 0.0
H615 H 0.52742 0.05164 0.91978 0.0
Eu616 Eu 0.28917 0.29546 0.26867 0.0
Eu617 Eu 0.27525 0.25468 0.24691 0.0
C618 C 0.28188 0.28667 0.22578 0.0
C619 C 0.28827 0.34267 0.28815 0.0
C620 C 0.27075 0.33929 0.28002 0.0
C621 C 0.28634 0.37338 0.29907 0.0
C622 C 0.26109 0.35287 0.28126 0.0
C623 C 0.296 0.35966 0.2979 0.0
C624 C 0.26889 0.37007 0.29057 0.0
C625 C 0.2983 0.32833 0.28609 0.0
O626 O 0.3048 0.2619 0.24511 0.0
O627 O 0.31334 0.28348 0.27047 0.0
C628 C 0.31709 0.27183 0.25734 0.0
O629 O 0.2803 0.27864 0.2892 0.0
O630 O 0.27463 0.23512 0.22228 0.0
O631 O 0.26004 0.22755 0.2444 0.0
O632 O 0.28577 0.25204 0.27478 0.0
C633 C 0.28355 0.26269 0.28969 0.0
O634 O 0.26014 0.29293 0.25973 0.0
O635 O 0.25172 0.2631 0.25944 0.0
O636 O 0.26981 0.2729 0.22777 0.0
O637 O 0.29181 0.31496 0.29361 0.0
O638 O 0.30231 0.32311 0.26974 0.0
O639 O 0.29374 0.29497 0.23924 0.0
C640 C 0.27658 0.20783 0.22992 0.0
C641 C 0.29134 0.21109 0.24274 0.0
C642 C 0.28288 0.17876 0.21811 0.0
C643 C 0.30176 0.1983 0.24333 0.0
C644 C 0.27235 0.19166 0.21756 0.0
C645 C 0.29774 0.18207 0.23096 0.0
C646 C 0.26651 0.22197 0.2293 0.0
C647 C 0.24795 0.27904 0.26101 0.0
H648 H 0.26468 0.32622 0.27241 0.0
H649 H 0.29255 0.3866 0.30631 0.0
H650 H 0.24779 0.35009 0.2743 0.0
H651 H 0.30951 0.36235 0.3043 0.0
H652 H 0.29485 0.22361 0.25228 0.0
H653 H 0.2796 0.16635 0.20839 0.0
H654 H 0.3129 0.20109 0.2536 0.0
H655 H 0.26108 0.18911 0.20747 0.0
Eu656 Eu 0.53036 0.54633 0.01887 0.0
Eu657 Eu 0.5437 0.51062 0.00236 0.0
C658 C 0.56876 0.54829 0.00253 0.0
C659 C 0.52306 0.59155 0.01884 0.0
C660 C 0.53397 0.5908 0.0045 0.0
C661 C 0.51552 0.6188 0.0118 0.0
C662 C 0.53559 0.60384 0.99384 0.0
C663 C 0.5138 0.60559 0.02245 0.0
C664 C 0.52644 0.61803 0.99735 0.0
C665 C 0.52062 0.57677 0.02881 0.0
O666 O 0.55739 0.5188 0.03139 0.0
O667 O 0.53821 0.53548 0.04445 0.0
C668 C 0.55129 0.52653 0.04613 0.0
O669 O 0.50563 0.52481 0.01486 0.0
O670 O 0.56481 0.49504 -0.00043 0.0
O671 O 0.53795 0.48302 0.98786 0.0
O672 O 0.51984 0.50199 0.01734 0.0
C673 C 0.50517 0.50842 0.01715 0.0
O674 O 0.52758 0.54544 0.98807 0.0
O675 O 0.5266 0.5157 0.97813 0.0
O676 O 0.56369 0.53188 0.99355 0.0
O677 O 0.50964 0.56243 0.02042 0.0
O678 O 0.53533 0.5731 0.03545 0.0
O679 O 0.55928 0.55522 0.01478 0.0
C680 C 0.55305 0.46636 0.00414 0.0
C681 C 0.54425 0.46816 0.01998 0.0
C682 C 0.5599 0.43846 0.01011 0.0
C683 C 0.54277 0.45502 0.03047 0.0
C684 C 0.56117 0.45161 -0.00061 0.0
C685 C 0.55034 0.43995 0.0255 0.0
C686 C 0.55358 0.48018 0.99308 0.0
C687 C 0.52364 0.53126 0.97494 0.0
H688 H 0.54107 0.57995 0.00136 0.0
H689 H 0.50843 0.62967 0.01496 0.0
H690 H 0.54383 0.60262 0.98265 0.0
H691 H 0.50519 0.60625 0.03336 0.0
H692 H 0.5383 0.47966 0.02415 0.0
H693 H 0.56581 0.42687 0.00606 0.0
H694 H 0.5355 0.45651 0.04239 0.0
H695 H 0.56822 0.45017 0.98734 0.0
Eu696 Eu 0.80409 0.29099 0.25544 0.0
Eu697 Eu 0.76886 0.26644 0.26293 0.0
C698 C 0.79182 0.29386 0.29645 0.0
C699 C 0.85203 0.30752 0.26092 0.0
C700 C 0.85087 0.3014 0.27731 0.0
C701 C 0.88392 0.30867 0.2633 0.0
C702 C 0.86609 0.29899 0.28668 0.0
C703 C 0.86859 0.31121 0.25392 0.0
C704 C 0.88269 0.30248 0.27971 0.0
C705 C 0.83549 0.30815 0.25069 0.0
O706 O 0.75885 0.29182 0.25574 0.0
O707 O 0.7852 0.3112 0.25536 0.0
C708 C 0.76756 0.30832 0.25522 0.0
O709 O 0.78914 0.28147 0.22783 0.0
O710 O 0.74467 0.26223 0.27695 0.0
O711 O 0.74913 0.2417 0.2554 0.0
O712 O 0.77541 0.25553 0.23491 0.0
C713 C 0.78149 0.26468 0.22282 0.0
O714 O 0.81339 0.26432 0.25967 0.0
O715 O 0.78841 0.24793 0.26825 0.0
O716 O 0.78013 0.27892 0.29136 0.0
O717 O 0.82782 0.29303 0.24052 0.0
O718 O 0.82421 0.31556 0.26017 0.0
O719 O 0.80208 0.30072 0.28508 0.0
C720 C 0.72037 0.24808 0.25633 0.0
C721 C 0.71933 0.24933 0.238 0.0
C722 C 0.69025 0.25349 0.25809 0.0
C723 C 0.70395 0.25279 0.22983 0.0
C724 C 0.70566 0.2499 0.26626 0.0
C725 C 0.68945 0.2553 0.23989 0.0
C726 C 0.73754 0.24766 0.26559 0.0
C727 C 0.8053 0.24927 0.2645 0.0
H728 H 0.83808 0.29808 0.28269 0.0
H729 H 0.89669 0.3115 0.25776 0.0
H730 H 0.8648 0.29394 0.29914 0.0
H731 H 0.86959 0.31568 0.24115 0.0
H732 H 0.7306 0.24825 0.23007 0.0
H733 H 0.67922 0.25545 0.26613 0.0
H734 H 0.70352 0.25376 0.21569 0.0
H735 H 0.70638 0.24927 0.28049 0.0
Eu736 Eu 0.04091 0.52805 0.5337 0.0
Eu737 Eu 0.03024 0.53105 0.48497 0.0
C738 C 0.03281 0.56121 0.51212 0.0
C739 C 0.03585 0.53014 0.58201 0.0
C740 C 0.02213 0.53806 0.58936 0.0
C741 C 0.02474 0.50355 0.59409 0.0
C742 C 0.00927 0.52841 0.59806 0.0
C743 C 0.03752 0.5131 0.58516 0.0
C744 C 0.01015 0.51087 0.59987 0.0
C745 C 0.04586 0.53798 0.56833 0.0
O746 O 0.06036 0.54117 0.49166 0.0
O747 O 0.06698 0.53614 0.52115 0.0
C748 C 0.07162 0.54111 0.50577 0.0
O749 O 0.04141 0.49884 0.52388 0.0
O750 O 0.02088 0.53471 0.45842 0.0
O751 O 0.03051 0.5105 0.46143 0.0
O752 O 0.03578 0.51336 0.5034 0.0
C753 C 0.03859 0.4982 0.50668 0.0
O754 O 0.0108 0.5175 0.52666 0.0
O755 O 0.00395 0.523 0.49725 0.0
O756 O 0.02945 0.56013 0.49492 0.0
O757 O 0.05552 0.5279 0.55915 0.0
O758 O 0.03674 0.54579 0.55804 0.0
O759 O 0.03581 0.54624 0.5157 0.0
C760 C 0.04131 0.52577 0.43868 0.0
C761 C 0.05878 0.52337 0.44289 0.0
C762 C 0.05263 0.54436 0.41759 0.0
C763 C 0.07307 0.53167 0.43481 0.0
C764 C 0.0383 0.536 0.42567 0.0
C765 C 0.07017 0.54258 0.42242 0.0
C766 C 0.02727 0.52109 0.45045 0.0
C767 C 0.9995 0.51766 0.51256 0.0
H768 H 0.02066 0.55124 0.58732 0.0
H769 H 0.02577 0.49014 0.59568 0.0
H770 H 0.99832 0.53446 0.60291 0.0
H771 H 0.04805 0.50667 0.57981 0.0
H772 H 0.06163 0.51581 0.45308 0.0
H773 H 0.05001 0.55233 0.40768 0.0
H774 H 0.08644 0.53003 0.43869 0.0
H775 H 0.025 0.53823 0.42241 0.0
Eu776 Eu 0.76701 0.78438 0.25618 0.0
Eu777 Eu 0.80454 0.77303 0.26388 0.0
C778 C 0.76795 0.74274 0.26169 0.0
C779 C 0.72205 0.79591 0.26359 0.0
C780 C 0.71122 0.78147 0.26909 0.0
C781 C 0.70915 0.81647 0.28453 0.0
C782 C 0.69958 0.78452 0.28231 0.0
C783 C 0.72066 0.81342 0.27118 0.0
C784 C 0.69862 0.80205 0.29033 0.0
C785 C 0.73592 0.793 0.25128 0.0
O786 O 0.79746 0.76401 0.2339 0.0
O787 O 0.77768 0.78179 0.22906 0.0
C788 C 0.78818 0.77102 0.22296 0.0
O789 O 0.78653 0.81145 0.26 0.0
O790 O 0.82015 0.75207 0.26189 0.0
O791 O 0.83294 0.77935 0.27316 0.0
O792 O 0.81312 0.80197 0.2585 0.0
C793 C 0.804 0.81506 0.25907 0.0
O794 O 0.76978 0.78779 0.2865 0.0
O795 O 0.79806 0.78238 0.29203 0.0
O796 O 0.78446 0.74885 0.26921 0.0
O797 O 0.75086 0.80459 0.25504 0.0
O798 O 0.7386 0.77674 0.2469 0.0
O799 O 0.75972 0.75348 0.25387 0.0
C800 C 0.84784 0.76234 0.25276 0.0
C801 C 0.84523 0.77006 0.2376 0.0
C802 C 0.87203 0.75014 0.23951 0.0
C803 C 0.85597 0.76786 0.22345 0.0
C804 C 0.8612 0.75233 0.25368 0.0
C805 C 0.86947 0.75789 0.22428 0.0
C806 C 0.83523 0.76333 0.26647 0.0
C807 C 0.78335 0.787 0.29757 0.0
H808 H 0.71192 0.7678 0.26344 0.0
H809 H 0.70876 0.83012 0.29053 0.0
H810 H 0.69129 0.77313 0.28619 0.0
H811 H 0.72887 0.82479 0.26716 0.0
H812 H 0.83468 0.77756 0.23658 0.0
H813 H 0.88254 0.74262 0.24056 0.0
H814 H 0.85363 0.77382 0.21182 0.0
H815 H 0.86313 0.74609 0.26521 0.0
Eu816 Eu 0.78681 0.28211 0.73846 0.0
Eu817 Eu 0.77808 0.28262 0.78866 0.0
C818 C 0.75023 0.27878 0.76173 0.0
C819 C 0.78706 0.29579 0.69256 0.0
C820 C 0.78729 0.31419 0.69718 0.0
C821 C 0.79839 0.30026 0.66397 0.0
C822 C 0.79259 0.32545 0.68508 0.0
C823 C 0.79297 0.28899 0.67602 0.0
C824 C 0.79787 0.31855 0.66818 0.0
C825 C 0.78057 0.2835 0.70466 0.0
O826 O 0.77392 0.25404 0.77379 0.0
O827 O 0.77834 0.25375 0.74274 0.0
C828 C 0.77458 0.24605 0.75684 0.0
O829 O 0.81595 0.28439 0.74803 0.0
O830 O 0.77208 0.28857 0.81667 0.0
O831 O 0.79516 0.27666 0.8098 0.0
O832 O 0.79836 0.28362 0.76907 0.0
C833 C 0.81476 0.28488 0.76519 0.0
O834 O 0.79128 0.31058 0.75347 0.0
O835 O 0.78558 0.31114 0.78428 0.0
O836 O 0.74877 0.27925 0.77884 0.0
O837 O 0.79215 0.27471 0.7104 0.0
O838 O 0.77077 0.28927 0.71723 0.0
O839 O 0.76681 0.28124 0.75834 0.0
C840 C 0.77898 0.26665 0.83299 0.0
C841 C 0.79108 0.25598 0.83704 0.0
C842 C 0.75641 0.24928 0.84786 0.0
C843 C 0.78583 0.24194 0.84606 0.0
C844 C 0.76162 0.26329 0.83864 0.0
C845 C 0.76842 0.23835 0.85143 0.0
C846 C 0.78449 0.28057 0.82222 0.0
C847 C 0.78988 0.31874 0.7702 0.0
H848 H 0.783 0.31985 0.70997 0.0
H849 H 0.80263 0.29458 0.65117 0.0
H850 H 0.7918 0.33941 0.68868 0.0
H851 H 0.79312 0.27488 0.67229 0.0
H852 H 0.80459 0.25837 0.83306 0.0
H853 H 0.74297 0.24686 0.85199 0.0
H854 H 0.79552 0.23402 0.84906 0.0
H855 H 0.75199 0.27132 0.83579 0.0
Eu856 Eu 0.78964 0.79502 0.76783 0.0
Eu857 Eu 0.77474 0.75415 0.74637 0.0
C858 C 0.78203 0.78615 0.72459 0.0
C859 C 0.78866 0.84229 0.78568 0.0
C860 C 0.7751 0.84091 0.77193 0.0
C861 C 0.78079 0.86943 0.80121 0.0
C862 C 0.76442 0.85368 0.7728 0.0
C863 C 0.79145 0.85653 0.80036 0.0
C864 C 0.76715 0.86804 0.78746 0.0
C865 C 0.79841 0.82778 0.78546 0.0
O866 O 0.8042 0.76037 0.74422 0.0
O867 O 0.81369 0.78255 0.76902 0.0
C868 C 0.81684 0.77015 0.75617 0.0
O869 O 0.77926 0.77836 0.78802 0.0
O870 O 0.77228 0.73423 0.72173 0.0
O871 O 0.76072 0.72679 0.74549 0.0
O872 O 0.78573 0.75211 0.77426 0.0
C873 C 0.78284 0.76264 0.78892 0.0
O874 O 0.76126 0.79361 0.75754 0.0
O875 O 0.75108 0.76401 0.75748 0.0
O876 O 0.77067 0.77167 0.72615 0.0
O877 O 0.7903 0.81461 0.7924 0.0
O878 O 0.80458 0.82227 0.77019 0.0
O879 O 0.79315 0.79526 0.73836 0.0
C880 C 0.77664 0.70744 0.72916 0.0
C881 C 0.79333 0.71178 0.73926 0.0
C882 C 0.78173 0.67766 0.71841 0.0
C883 C 0.80415 0.69917 0.739 0.0
C884 C 0.7709 0.6904 0.71858 0.0
C885 C 0.7984 0.68194 0.7287 0.0
C886 C 0.76577 0.72113 0.72966 0.0
C887 C 0.74824 0.78031 0.75844 0.0
H888 H 0.77265 0.82984 0.76058 0.0
H889 H 0.78309 0.88039 0.81266 0.0
H890 H 0.75422 0.85248 0.76186 0.0
H891 H 0.80167 0.85754 0.81123 0.0
H892 H 0.79789 0.72491 0.74754 0.0
H893 H 0.77703 0.66443 0.71036 0.0
H894 H 0.81674 0.70274 0.74735 0.0
H895 H 0.75809 0.68695 0.71062 0.0
Eu896 Eu 0.5472 0.55054 0.5168 0.0
Eu897 Eu 0.52586 0.50995 0.50653 0.0
C898 C 0.54849 0.5281 0.4754 0.0
C899 C 0.55887 0.59845 0.51641 0.0
C900 C 0.54755 0.59422 0.50037 0.0
C901 C 0.55796 0.62976 0.51807 0.0
C902 C 0.54144 0.60758 0.49323 0.0
C903 C 0.56409 0.61626 0.52527 0.0
C904 C 0.54655 0.62547 0.50199 0.0
C905 C 0.56368 0.58386 0.52432 0.0
O906 O 0.55283 0.50587 0.51707 0.0
O907 O 0.56852 0.53478 0.52252 0.0
C908 C 0.56796 0.51753 0.52119 0.0
O909 O 0.53231 0.54674 0.54229 0.0
O910 O 0.52119 0.48368 0.48906 0.0
O911 O 0.50352 0.48908 0.50972 0.0
O912 O 0.52265 0.51645 0.53717 0.0
C913 C 0.5241 0.53226 0.54778 0.0
O914 O 0.52028 0.55463 0.50645 0.0
O915 O 0.50476 0.5257 0.50022 0.0
O916 O 0.54047 0.51363 0.48096 0.0
O917 O 0.55189 0.57692 0.53416 0.0
O918 O 0.56911 0.57164 0.51311 0.0
O919 O 0.55002 0.54391 0.48605 0.0
C920 C 0.51248 0.4614 0.50556 0.0
C921 C 0.51893 0.46353 0.52373 0.0
C922 C 0.51822 0.43132 0.50011 0.0
C923 C 0.52509 0.44972 0.53001 0.0
C924 C 0.51193 0.44516 0.49384 0.0
C925 C 0.52516 0.43364 0.51818 0.0
C926 C 0.50885 0.47686 0.4984 0.0
C927 C 0.50527 0.54295 0.50181 0.0
H928 H 0.54314 0.58048 0.4935 0.0
H929 H 0.56213 0.64348 0.52502 0.0
H930 H 0.53238 0.60383 0.48105 0.0
H931 H 0.57265 0.61967 0.53779 0.0
H932 H 0.51975 0.47607 0.53298 0.0
H933 H 0.51825 0.41908 0.4907 0.0
H934 H 0.53004 0.45174 0.54408 0.0
H935 H 0.50729 0.44344 0.47972 0.0
Eu936 Eu 0.04885 0.51836 0.00305 0.0
Eu937 Eu 0.00989 0.52589 0.01868 0.0
C938 C 0.04412 0.52604 0.04472 0.0
C939 C 0.09108 0.49949 0.99027 0.0
C940 C 0.08852 0.4856 0.0001 0.0
C941 C 0.11912 0.49161 0.98159 0.0
C942 C 0.10131 0.47482 0.00077 0.0
C943 C 0.10633 0.50229 0.98088 0.0
C944 C 0.11688 0.47788 0.99171 0.0
C945 C 0.07831 0.5115 0.98981 0.0
O946 O 0.02265 0.55039 0.00852 0.0
O947 O 0.05197 0.54768 0.01291 0.0
C948 C 0.03983 0.55737 0.01121 0.0
O949 O 0.03282 0.52607 0.98129 0.0
O950 O 0.9958 0.54116 0.03804 0.0
O951 O 0.98068 0.5201 0.01719 0.0
O952 O 0.00532 0.51427 0.98915 0.0
C953 C 0.01572 0.51972 0.9772 0.0
O954 O 0.02982 0.49261 0.00189 0.0
O955 O 0.01294 0.49937 0.02541 0.0
O956 O 0.03142 0.53462 0.04143 0.0
O957 O 0.06233 0.50442 0.98195 0.0
O958 O 0.07799 0.52299 0.00456 0.0
O959 O 0.0503 0.51562 0.03199 0.0
C960 C 0.96763 0.54502 0.02733 0.0
C961 C 0.97032 0.55605 0.01444 0.0
C962 C 0.94172 0.5574 0.03586 0.0
C963 C 0.95871 0.56772 0.01226 0.0
C964 C 0.9533 0.54578 0.038 0.0
C965 C 0.94428 0.56851 0.02298 0.0
C966 C 0.97999 0.53321 0.03039 0.0
C967 C 0.02068 0.48813 0.01513 0.0
H968 H 0.0768 0.48329 0.00744 0.0
H969 H 0.13084 0.49416 0.97428 0.0
H970 H 0.09928 0.46445 0.0088 0.0
H971 H 0.10846 0.5129 0.97315 0.0
H972 H 0.98144 0.5557 0.00617 0.0
H973 H 0.93093 0.55791 0.04453 0.0
H974 H 0.96096 0.57603 0.00216 0.0
H975 H 0.95117 0.53749 0.04814 0.0
H976 H 0.00157 0.26398 0.95177 0.0
H977 H 0.00487 0.24054 0.96882 0.0
H978 H 0.9966 0.20166 0.91923 0.0
H979 H 0.99278 0.22482 0.9022 0.0
H980 H 0.98253 0.18686 0.94477 0.0
H981 H 0.03835 0.22233 0.93719 0.0
H982 H 0.06159 0.24934 0.93871 0.0
H983 H 0.06316 0.25975 0.99653 0.0
H984 H 0.0397 0.23294 0.99534 0.0
H985 H 0.03704 0.12663 0.96617 0.0
H986 H 0.02456 0.1492 0.9537 0.0
H987 H 0.02341 0.17869 0.00742 0.0
H988 H 0.03533 0.1558 0.02015 0.0
H989 H 0.0405 0.19845 0.98206 0.0
H990 H 0.98539 0.15723 0.9862 0.0
H991 H 0.96524 0.12769 0.98037 0.0
H992 H 0.96642 0.12536 0.92329 0.0
H993 H 0.98677 0.15475 0.92875 0.0
C994 C 0.99999 0.25035 0.94457 0.0
C995 C 0.99718 0.24623 0.92565 0.0
C996 C 0.00199 0.23702 0.9543 0.0
C997 C 0.00141 0.21951 0.94521 0.0
C998 C 0.99718 0.21513 0.92648 0.0
C999 C 0.99503 0.22839 0.91676 0.0
C1000 C 0.00668 0.20606 0.9549 0.0
C1001 C 0.99521 0.18937 0.95291 0.0
C1002 C 0.0233 0.20937 0.9654 0.0
C1003 C 0.03705 0.22579 0.96616 0.0
C1004 C 0.04347 0.23051 0.95022 0.0
C1005 C 0.05672 0.24575 0.95103 0.0
C1006 C 0.06379 0.2563 0.96771 0.0
C1007 C 0.05762 0.25161 0.98362 0.0
C1008 C 0.04434 0.2364 0.98288 0.0
C1009 C 0.03389 0.13776 0.97537 0.0
C1010 C 0.0371 0.13941 0.99416 0.0
C1011 C 0.02678 0.15062 0.96821 0.0
C1012 C 0.02289 0.16537 0.9797 0.0
C1013 C 0.02627 0.16725 0.99842 0.0
C1014 C 0.03323 0.15429 0.00563 0.0
C1015 C 0.0163 0.17939 0.97204 0.0
C1016 C 0.02764 0.19612 0.97427 0.0
C1017 C 0.99993 0.17585 0.96116 0.0
C1018 C 0.98771 0.15815 0.9579 0.0
C1019 C 0.98148 0.15035 0.97241 0.0
C1020 C 0.96999 0.13365 0.96917 0.0
C1021 C 0.96459 0.12466 0.95148 0.0
C1022 C 0.97063 0.13234 0.93698 0.0
C1023 C 0.98212 0.14903 0.94015 0.0
H1024 H 0.9557 0.11176 0.94901 0.0
H1025 H 0.07409 0.26806 0.9683 0.0
H1026 H 0.12953 0.76726 0.12949 0.0
H1027 H 0.1568 0.76262 0.1451 0.0
H1028 H 0.13646 0.77791 0.19639 0.0
H1029 H 0.10917 0.78245 0.18107 0.0
H1030 H 0.17239 0.79826 0.18508 0.0
H1031 H 0.13578 0.74018 0.18994 0.0
H1032 H 0.11838 0.71004 0.17732 0.0
H1033 H 0.16349 0.69656 0.15049 0.0
H1034 H 0.18107 0.72674 0.16274 0.0
H1035 H 0.21945 0.7942 0.26298 0.0
H1036 H 0.1952 0.78824 0.2389 0.0
H1037 H 0.22565 0.75776 0.20356 0.0
H1038 H 0.24952 0.76306 0.22791 0.0
H1039 H 0.18921 0.74316 0.19977 0.0
H1040 H 0.22737 0.799 0.19865 0.0
H1041 H 0.24531 0.829 0.21101 0.0
H1042 H 0.19833 0.84677 0.22943 0.0
H1043 H 0.18012 0.81687 0.21739 0.0
C1044 C 0.13087 0.76957 0.1441 0.0
C1045 C 0.1174 0.77543 0.15415 0.0
C1046 C 0.14628 0.76668 0.1529 0.0
C1047 C 0.14828 0.76969 0.17173 0.0
C1048 C 0.13483 0.77533 0.18177 0.0
C1049 C 0.11941 0.77809 0.17303 0.0
C1050 C 0.16535 0.7696 0.18127 0.0
C1051 C 0.17617 0.78625 0.18828 0.0
C1052 C 0.17037 0.75378 0.18463 0.0
C1053 C 0.15961 0.73583 0.17696 0.0
C1054 C 0.14189 0.7309 0.1811 0.0
C1055 C 0.13202 0.71378 0.17409 0.0
C1056 C 0.13979 0.70142 0.16303 0.0
C1057 C 0.15746 0.70616 0.15899 0.0
C1058 C 0.16737 0.72327 0.16596 0.0
C1059 C 0.2208 0.78603 0.25015 0.0
C1060 C 0.23654 0.77971 0.24688 0.0
C1061 C 0.20707 0.7827 0.23645 0.0
C1062 C 0.20904 0.77308 0.21941 0.0
C1063 C 0.22415 0.76552 0.21657 0.0
C1064 C 0.23785 0.76879 0.23035 0.0
C1065 C 0.19567 0.77194 0.20444 0.0
C1066 C 0.1857 0.75515 0.19622 0.0
C1067 C 0.19143 0.78765 0.19979 0.0
C1068 C 0.20239 0.80566 0.20715 0.0
C1069 C 0.22088 0.80927 0.20544 0.0
C1070 C 0.2311 0.82626 0.21237 0.0
C1071 C 0.22297 0.83976 0.221 0.0
C1072 C 0.2046 0.8363 0.22272 0.0
C1073 C 0.19432 0.81935 0.21582 0.0
H1074 H 0.2309 0.8529 0.22634 0.0
H1075 H 0.13215 0.68816 0.15765 0.0
H1076 H 0.51248 0.82877 0.43573 0.0
H1077 H 0.51325 0.85594 0.45774 0.0
H1078 H 0.5193 0.88698 0.41547 0.0
H1079 H 0.51901 0.85987 0.39338 0.0
H1080 H 0.54215 0.90212 0.44328 0.0
H1081 H 0.47941 0.87845 0.43391 0.0
H1082 H 0.45118 0.8566 0.43203 0.0
H1083 H 0.4613 0.85331 0.48769 0.0
H1084 H 0.48969 0.87501 0.48984 0.0
H1085 H 0.4995 0.97357 0.48793 0.0
H1086 H 0.49799 0.94321 0.47177 0.0
H1087 H 0.54148 0.93734 0.50773 0.0
H1088 H 0.54359 0.96813 0.52369 0.0
H1089 H 0.49501 0.90918 0.48509 0.0
H1090 H 0.56412 0.93 0.48755 0.0
H1091 H 0.58966 0.95395 0.48568 0.0
H1092 H 0.56313 0.96502 0.43857 0.0
H1093 H 0.53728 0.94117 0.44032 0.0
C1094 C 0.51392 0.84137 0.43111 0.0
C1095 C 0.51574 0.84227 0.41288 0.0
C1096 C 0.51426 0.85684 0.44368 0.0
C1097 C 0.51615 0.87335 0.43814 0.0
C1098 C 0.51787 0.87429 0.41994 0.0
C1099 C 0.51772 0.85884 0.40738 0.0
C1100 C 0.51699 0.88975 0.45148 0.0
C1101 C 0.53185 0.9036 0.45245 0.0
C1102 C 0.50354 0.89166 0.46338 0.0
C1103 C 0.48678 0.87816 0.46196 0.0
C1104 C 0.47572 0.8729 0.44568 0.0
C1105 C 0.45966 0.86059 0.44459 0.0
C1106 C 0.45448 0.85352 0.45971 0.0
C1107 C 0.46535 0.85875 0.47597 0.0
C1108 C 0.48142 0.87106 0.47714 0.0
C1109 C 0.50844 0.96568 0.49273 0.0
C1110 C 0.52172 0.97311 0.50698 0.0
C1111 C 0.50763 0.94843 0.48341 0.0
C1112 C 0.51991 0.93841 0.4884 0.0
C1113 C 0.53226 0.94521 0.5035 0.0
C1114 C 0.53329 0.96262 0.51268 0.0
C1115 C 0.52022 0.92123 0.47699 0.0
C1116 C 0.50549 0.90735 0.47622 0.0
C1117 C 0.53352 0.91942 0.46497 0.0
C1118 C 0.54866 0.93415 0.46433 0.0
C1119 C 0.56363 0.93776 0.47699 0.0
C1120 C 0.57817 0.95128 0.47592 0.0
C1121 C 0.57798 0.96116 0.46214 0.0
C1122 C 0.56321 0.95748 0.44934 0.0
C1123 C 0.54859 0.94399 0.45039 0.0
H1124 H 0.58931 0.97156 0.4613 0.0
H1125 H 0.44202 0.84403 0.45885 0.0
H1126 H 0.50657 0.24921 0.63084 0.0
H1127 H 0.4749 0.24429 0.63614 0.0
H1128 H 0.48909 0.26912 0.69215 0.0
H1129 H 0.52077 0.27285 0.68709 0.0
H1130 H 0.46644 0.24043 0.69044 0.0
H1131 H 0.47086 0.28957 0.65693 0.0
H1132 H 0.47691 0.30337 0.63027 0.0
H1133 H 0.43761 0.26161 0.5975 0.0
H1134 H 0.43149 0.24746 0.62393 0.0
H1135 H 0.40056 0.28368 0.72307 0.0
H1136 H 0.42392 0.2799 0.70279 0.0
H1137 H 0.39343 0.22841 0.67664 0.0
H1138 H 0.36992 0.23202 0.69715 0.0
H1139 H 0.41988 0.26241 0.65709 0.0
H1140 H 0.41534 0.21447 0.69362 0.0
H1141 H 0.40951 0.20413 0.72221 0.0
H1142 H 0.45025 0.24725 0.75076 0.0
H1143 H 0.45601 0.25806 0.72238 0.0
C1144 C 0.50281 0.25374 0.64423 0.0
C1145 C 0.51591 0.26143 0.65861 0.0
C1146 C 0.48477 0.25097 0.64721 0.0
C1147 C 0.47962 0.25647 0.66448 0.0
C1148 C 0.49278 0.26465 0.67872 0.0
C1149 C 0.51082 0.26687 0.67586 0.0
C1150 C 0.46066 0.25319 0.66819 0.0
C1151 C 0.45627 0.24512 0.683 0.0
C1152 C 0.44721 0.25876 0.65814 0.0
C1153 C 0.45088 0.26735 0.64234 0.0
C1154 C 0.4636 0.28327 0.64401 0.0
C1155 C 0.46703 0.29116 0.62895 0.0
C1156 C 0.4577 0.28333 0.61219 0.0
C1157 C 0.44487 0.26763 0.61048 0.0
C1158 C 0.44141 0.25968 0.62549 0.0
C1159 C 0.39861 0.27178 0.71268 0.0
C1160 C 0.38365 0.25803 0.71172 0.0
C1161 C 0.41188 0.26968 0.70111 0.0
C1162 C 0.41025 0.25389 0.68839 0.0
C1163 C 0.39475 0.24067 0.68645 0.0
C1164 C 0.38151 0.24267 0.6982 0.0
C1165 C 0.42616 0.25036 0.67961 0.0
C1166 C 0.42998 0.25714 0.66397 0.0
C1167 C 0.43923 0.24381 0.68894 0.0
C1168 C 0.43594 0.23717 0.70594 0.0
C1169 C 0.42291 0.22184 0.70604 0.0
C1170 C 0.41964 0.21589 0.72219 0.0
C1171 C 0.42946 0.22506 0.73831 0.0
C1172 C 0.44261 0.24018 0.73829 0.0
C1173 C 0.44587 0.24623 0.72218 0.0
H1174 H 0.42693 0.22042 0.7508 0.0
H1175 H 0.46037 0.28946 0.60055 0.0
H1176 H 0.02024 0.79408 0.58274 0.0
H1177 H 0.0315 0.82166 0.57194 0.0
H1178 H 0.9945 0.84788 0.60227 0.0
H1179 H 0.98365 0.82049 0.61383 0.0
H1180 H 0.00149 0.84347 0.55597 0.0
H1181 H 0.02148 0.86713 0.62054 0.0
H1182 H 0.03724 0.86547 0.64938 0.0
H1183 H 0.08558 0.86295 0.62348 0.0
H1184 H 0.06994 0.86416 0.59437 0.0
H1185 H 0.02059 0.93111 0.54132 0.0
H1186 H 0.01304 0.90628 0.55721 0.0
H1187 H 0.06516 0.8935 0.55036 0.0
H1188 H 0.07288 0.91853 0.53433 0.0
H1189 H 0.05224 0.89119 0.58582 0.0
H1190 H 0.03529 0.86965 0.52315 0.0
H1191 H 0.02149 0.86951 0.49285 0.0
H1192 H 0.96982 0.86576 0.51319 0.0
H1193 H 0.98338 0.86621 0.54372 0.0
C1194 C 0.01441 0.80569 0.58703 0.0
C1195 C 0.00099 0.80517 0.599 0.0
C1196 C 0.02102 0.82144 0.58103 0.0
C1197 C 0.0141 0.8368 0.58671 0.0
C1198 C 1.00028 0.83621 0.59817 0.0
C1199 C 0.99396 0.82056 0.60455 0.0
C1200 C 0.0204 0.85296 0.57936 0.0
C1201 C 0.01237 0.85408 0.56262 0.0
C1202 C 0.0351 0.86628 0.58777 0.0
C1203 C 0.04443 0.86534 0.60521 0.0
C1204 C 0.03536 0.86587 0.62091 0.0
C1205 C 0.0443 0.8651 0.63733 0.0
C1206 C 0.06238 0.864 0.63824 0.0
C1207 C 0.07155 0.86372 0.62274 0.0
C1208 C 0.06265 0.86442 0.60628 0.0
C1209 C 0.03056 0.92319 0.54342 0.0
C1210 C 0.04731 0.92667 0.53656 0.0
C1211 C 0.02621 0.90901 0.55246 0.0
C1212 C 0.03853 0.89809 0.55487 0.0
C1213 C 0.05552 0.90186 0.54863 0.0
C1214 C 0.05983 0.91599 0.53937 0.0
C1215 C 0.03293 0.88196 0.56264 0.0
C1216 C 0.04122 0.8807 0.57928 0.0
C1217 C 0.0186 0.8683 0.55403 0.0
C1218 C 0.01038 0.8682 0.53576 0.0
C1219 C 0.02102 0.86901 0.52121 0.0
C1220 C 0.01323 0.86883 0.50398 0.0
C1221 C 0.9948 0.86769 0.5011 0.0
C1222 C 0.9841 0.86669 0.51545 0.0
C1223 C 0.99183 0.86691 0.53272 0.0
H1224 H 0.98879 0.86751 0.48775 0.0
H1225 H 0.06929 0.86346 0.65097 0.0
H1226 H 0.52867 0.77443 0.85949 0.0
H1227 H 0.49696 0.7696 0.84832 0.0
H1228 H 0.50272 0.82575 0.84697 0.0
H1229 H 0.53455 0.83047 0.85728 0.0
H1230 H 0.46883 0.80487 0.86244 0.0
H1231 H 0.50585 0.8091 0.81139 0.0
H1232 H 0.52966 0.80024 0.79319 0.0
H1233 H 0.50214 0.7455 0.78364 0.0
H1234 H 0.4783 0.75406 0.80211 0.0
H1235 H 0.41077 0.82931 0.80097 0.0
H1236 H 0.43716 0.82442 0.81786 0.0
H1237 H 0.42012 0.76745 0.80033 0.0
H1238 H 0.39362 0.77226 0.78344 0.0
H1239 H 0.45694 0.78193 0.79644 0.0
H1240 H 0.41522 0.78068 0.8406 0.0
H1241 H 0.39162 0.79076 0.85832 0.0
H1242 H 0.42745 0.84017 0.88087 0.0
H1243 H 0.45121 0.83052 0.86306 0.0
C1244 C 0.52303 0.78569 0.85694 0.0
C1245 C 0.53382 0.80274 0.85893 0.0
C1246 C 0.50504 0.78295 0.8507 0.0
C1247 C 0.49773 0.79737 0.847 0.0
C1248 C 0.50829 0.81457 0.84993 0.0
C1249 C 0.52637 0.8172 0.8556 0.0
C1250 C 0.47967 0.79435 0.83809 0.0
C1251 C 0.46609 0.79978 0.84805 0.0
C1252 C 0.47627 0.78734 0.81945 0.0
C1253 C 0.4905 0.78216 0.80835 0.0
C1254 C 0.50501 0.79515 0.8056 0.0
C1255 C 0.51847 0.79019 0.7952 0.0
C1256 C 0.51746 0.7723 0.78733 0.0
C1257 C 0.50294 0.75934 0.7898 0.0
C1258 C 0.48946 0.76423 0.80024 0.0
C1259 C 0.41279 0.81578 0.80061 0.0
C1260 C 0.40032 0.80114 0.791 0.0
C1261 C 0.42767 0.813 0.81036 0.0
C1262 C 0.43027 0.79558 0.81046 0.0
C1263 C 0.41812 0.78095 0.80046 0.0
C1264 C 0.40311 0.78371 0.79087 0.0
C1265 C 0.4461 0.79291 0.82066 0.0
C1266 C 0.45937 0.78646 0.81094 0.0
C1267 C 0.44916 0.79903 0.83952 0.0
C1268 C 0.43498 0.80491 0.85039 0.0
C1269 C 0.41804 0.79376 0.84923 0.0
C1270 C 0.40463 0.79939 0.85931 0.0
C1271 C 0.40803 0.81611 0.87069 0.0
C1272 C 0.42485 0.82722 0.87204 0.0
C1273 C 0.4383 0.82167 0.86197 0.0
H1274 H 0.39763 0.82044 0.87848 0.0
H1275 H 0.52788 0.76849 0.77926 0.0
H1276 H 0.47065 0.18487 0.11687 0.0
H1277 H 0.47596 0.1568 0.09961 0.0
H1278 H 0.51185 0.18667 0.06851 0.0
H1279 H 0.50537 0.21447 0.08472 0.0
H1280 H 0.49706 0.15796 0.04851 0.0
H1281 H 0.52496 0.17254 0.11035 0.0
H1282 H 0.52538 0.17819 0.14355 0.0
H1283 H 0.49256 0.12641 0.14117 0.0
H1284 H 0.49179 0.12055 0.10796 0.0
H1285 H 0.55067 0.10028 0.01871 0.0
H1286 H 0.54473 0.12578 0.04006 0.0
H1287 H 0.50548 0.09012 0.06255 0.0
H1288 H 0.5125 0.06464 0.04223 0.0
H1289 H 0.52006 0.11974 0.08699 0.0
H1290 H 0.49353 0.10556 0.02456 0.0
H1291 H 0.49623 0.09967 0.99175 0.0
H1292 H 0.52942 0.15158 0.99604 0.0
H1293 H 0.52707 0.15768 0.02889 0.0
C1294 C 0.47904 0.18525 0.10579 0.0
C1295 C 0.48763 0.2016 0.10196 0.0
C1296 C 0.4823 0.16932 0.09618 0.0
C1297 C 0.49482 0.16974 0.08329 0.0
C1298 C 0.50222 0.18606 0.07849 0.0
C1299 C 0.49846 0.20192 0.08765 0.0
C1300 C 0.50137 0.15356 0.0757 0.0
C1301 C 0.50218 0.14972 0.05699 0.0
C1302 C 0.50779 0.14258 0.08673 0.0
C1303 C 0.50812 0.14622 0.10668 0.0
C1304 C 0.51772 0.16243 0.11691 0.0
C1305 C 0.51804 0.16565 0.13573 0.0
C1306 C 0.50895 0.15269 0.14446 0.0
C1307 C 0.49955 0.13646 0.1344 0.0
C1308 C 0.49917 0.13318 0.11558 0.0
C1309 C 0.54112 0.09806 0.02855 0.0
C1310 C 0.53133 0.08106 0.02856 0.0
C1311 C 0.53785 0.11243 0.04076 0.0
C1312 C 0.52416 0.10973 0.05222 0.0
C1313 C 0.5159 0.0924 0.05358 0.0
C1314 C 0.5197 0.07799 0.04187 0.0
C1315 C 0.51621 0.12474 0.06008 0.0
C1316 C 0.51491 0.1281 0.07867 0.0
C1317 C 0.5095 0.13543 0.04902 0.0
C1318 C 0.51011 0.13207 0.02914 0.0
C1319 C 0.50135 0.11573 0.01847 0.0
C1320 C 0.50285 0.11234 -0.00011 0.0
C1321 C 0.51298 0.12525 0.99182 0.0
C1322 C 0.52155 0.1416 0.0023 0.0
C1323 C 0.52011 0.14505 0.02089 0.0
H1324 H 0.51417 0.12258 0.97744 0.0
H1325 H 0.50923 0.15521 0.15902 0.0
H1326 H 0.14969 0.29379 0.38561 0.0
H1327 H 0.17263 0.29424 0.36401 0.0
H1328 H 0.13913 0.31478 0.32819 0.0
H1329 H 0.11623 0.31353 0.34893 0.0
H1330 H 0.14797 0.28606 0.31117 0.0
H1331 H 0.17846 0.34032 0.34958 0.0
H1332 H 0.19219 0.3598 0.37816 0.0
H1333 H 0.22999 0.32576 0.38291 0.0
H1334 H 0.21638 0.306 0.35443 0.0
H1335 H 0.23287 0.30858 0.26221 0.0
H1336 H 0.20866 0.31561 0.28051 0.0
H1337 H 0.202 0.26371 0.29535 0.0
H1338 H 0.22554 0.25635 0.27689 0.0
H1339 H 0.21306 0.31126 0.32092 0.0
H1340 H 0.17022 0.25237 0.28783 0.0
H1341 H 0.15681 0.23456 0.25828 0.0
H1342 H 0.14293 0.28138 0.24272 0.0
H1343 H 0.1567 0.29951 0.27205 0.0
C1344 C 0.14748 0.29871 0.37328 0.0
C1345 C 0.13116 0.30347 0.36888 0.0
C1346 C 0.16054 0.29903 0.36101 0.0
C1347 C 0.15745 0.30448 0.34449 0.0
C1348 C 0.14168 0.3104 0.34078 0.0
C1349 C 0.12861 0.30973 0.35275 0.0
C1350 C 0.16952 0.3022 0.33013 0.0
C1351 C 0.16217 0.29177 0.31333 0.0
C1352 C 0.18799 0.30966 0.33287 0.0
C1353 C 0.19626 0.32156 0.34997 0.0
C1354 C 0.1896 0.33691 0.35679 0.0
C1355 C 0.19739 0.34803 0.37296 0.0
C1356 C 0.21192 0.344 0.38238 0.0
C1357 C 0.21872 0.32886 0.37562 0.0
C1358 C 0.21098 0.3177 0.35945 0.0
C1359 C 0.22584 0.29849 0.26894 0.0
C1360 C 0.2311 0.28196 0.26821 0.0
C1361 C 0.2121 0.30253 0.27935 0.0
C1362 C 0.20359 0.29006 0.28901 0.0
C1363 C 0.20818 0.27326 0.28755 0.0
C1364 C 0.22167 0.26913 0.27702 0.0
C1365 C 0.19143 0.2951 0.30236 0.0
C1366 C 0.19879 0.30589 0.31889 0.0
C1367 C 0.17296 0.28815 0.29943 0.0
C1368 C 0.16467 0.27728 0.28194 0.0
C1369 C 0.16447 0.25887 0.27801 0.0
C1370 C 0.15681 0.24872 0.26133 0.0
C1371 C 0.14908 0.25684 0.2486 0.0
C1372 C 0.149 0.27512 0.25255 0.0
C1373 C 0.15678 0.28535 0.26916 0.0
H1374 H 0.1431 0.24896 0.23571 0.0
H1375 H 0.21793 0.35262 0.39489 0.0
H1376 H 0.9661 0.06372 0.21325 0.0
H1377 H 0.9815 0.06143 0.18536 0.0
H1378 H 0.9349 0.02571 0.15663 0.0
H1379 H 0.91926 0.02849 0.18432 0.0
H1380 H 0.96768 0.01342 0.14764 0.0
H1381 H 0.94552 0.06842 0.14997 0.0
H1382 H 0.94261 0.09884 0.16398 0.0
H1383 H 0.99956 0.11637 0.16702 0.0
H1384 H 0.00283 0.08598 0.15324 0.0
H1385 H 0.99492 0.00798 0.05745 0.0
H1386 H 0.9802 0.01086 0.08545 0.0
H1387 H 0.01668 0.06057 0.10616 0.0
H1388 H 0.03083 0.05807 0.07768 0.0
H1389 H 0.98979 0.06603 0.12037 0.0
H1390 H 0.0147 0.01497 0.12113 0.0
H1391 H 0.02194 0.98539 0.1106 0.0
H1392 H 0.96623 0.96115 0.10619 0.0
H1393 H 0.95864 0.99065 0.11649 0.0
C1394 C 0.95898 0.05539 0.20104 0.0
C1395 C 0.94112 0.04638 0.20155 0.0
C1396 C 0.96792 0.05408 0.18483 0.0
C1397 C 0.9597 0.04334 0.16825 0.0
C1398 C 0.94196 0.03412 0.16883 0.0
C1399 C 0.93286 0.03579 0.18491 0.0
C1400 C 0.96939 0.04173 0.15055 0.0
C1401 C 0.97221 0.02497 0.14161 0.0
C1402 C 0.97641 0.05663 0.14254 0.0
C1403 C 0.97443 0.07488 0.15074 0.0
C1404 C 0.95743 0.07872 0.15376 0.0
C1405 C 0.95572 0.09597 0.16163 0.0
C1406 C 0.97089 0.10952 0.16643 0.0
C1407 C 0.98782 0.10586 0.16332 0.0
C1408 C 0.98961 0.08863 0.15547 0.0
C1409 C 1.00004 0.01952 0.06793 0.0
C1410 C 0.01449 0.03263 0.06477 0.0
C1411 C 0.99154 0.02116 0.08438 0.0
C1412 C 0.99717 0.03582 0.09897 0.0
C1413 C 0.01161 0.04897 0.09573 0.0
C1414 C 0.01995 0.04746 0.07917 0.0
C1415 C 0.98798 0.03757 0.11712 0.0
C1416 C 0.98526 0.05438 0.12622 0.0
C1417 C 0.98168 0.0228 0.12571 0.0
C1418 C 0.98608 0.00505 0.11936 0.0
C1419 C 0.00398 0.00335 0.11777 0.0
C1420 C 0.00815 0.9866 0.11187 0.0
C1421 C 0.99455 0.97141 0.10767 0.0
C1422 C 0.97675 0.97294 0.10941 0.0
C1423 C 0.9725 0.98967 0.11528 0.0
H1424 H 0.9978 0.95844 0.10311 0.0
H1425 H 0.96954 0.12286 0.17252 0.0
H1426 H 0.27756 0.66745 0.48945 0.0
H1427 H 0.26956 0.6815 0.46433 0.0
H1428 H 0.29778 0.64847 0.42912 0.0
H1429 H 0.30533 0.63383 0.45408 0.0
H1430 H 0.30571 0.69201 0.43573 0.0
H1431 H 0.26215 0.63639 0.41718 0.0
H1432 H 0.23713 0.61297 0.42167 0.0
H1433 H 0.20416 0.65211 0.43307 0.0
H1434 H 0.22912 0.67584 0.42898 0.0
H1435 H 0.29374 0.71772 0.35444 0.0
H1436 H 0.29272 0.69662 0.37501 0.0
H1437 H 0.24964 0.7173 0.40027 0.0
H1438 H 0.25029 0.73823 0.3793 0.0
H1439 H 0.24722 0.67973 0.39908 0.0
H1440 H 0.28846 0.73497 0.41916 0.0
H1441 H 0.31189 0.75984 0.41458 0.0
H1442 H 0.34774 0.72364 0.40231 0.0
H1443 H 0.32439 0.69848 0.40657 0.0
C1444 C 0.28203 0.66315 0.47635 0.0
C1445 C 0.29218 0.64966 0.47369 0.0
C1446 C 0.2773 0.67106 0.46202 0.0
C1447 C 0.28291 0.66581 0.44494 0.0
C1448 C 0.29317 0.65247 0.44223 0.0
C1449 C 0.29754 0.64422 0.45646 0.0
C1450 C 0.2794 0.67544 0.43038 0.0
C1451 C 0.29303 0.68915 0.42754 0.0
C1452 C 0.26255 0.67214 0.42032 0.0
C1453 C 0.24762 0.65794 0.42307 0.0
C1454 C 0.24967 0.64006 0.42094 0.0
C1455 C 0.23547 0.62671 0.42333 0.0
C1456 C 0.21909 0.63106 0.42773 0.0
C1457 C 0.21687 0.64877 0.42972 0.0
C1458 C 0.23105 0.66217 0.42736 0.0
C1459 C 0.28386 0.71758 0.36419 0.0
C1460 C 0.27228 0.72976 0.36549 0.0
C1461 C 0.2832 0.70545 0.37582 0.0
C1462 C 0.27128 0.70562 0.38928 0.0
C1463 C 0.25889 0.71696 0.38992 0.0
C1464 C 0.25936 0.72896 0.37803 0.0
C1465 C 0.27375 0.69592 0.40412 0.0
C1466 C 0.25992 0.68247 0.40722 0.0
C1467 C 0.29029 0.69966 0.41478 0.0
C1468 C 0.30467 0.71485 0.41311 0.0
C1469 C 0.30134 0.73232 0.41547 0.0
C1470 C 0.31459 0.74646 0.41291 0.0
C1471 C 0.33129 0.74332 0.40814 0.0
C1472 C 0.3348 0.72604 0.40602 0.0
C1473 C 0.32158 0.71184 0.40853 0.0
H1474 H 0.34152 0.75428 0.4061 0.0
H1475 H 0.2081 0.6207 0.42953 0.0
H1476 H 0.6502 0.05921 0.69546 0.0
H1477 H 0.6291 0.06586 0.6731 0.0
H1478 H 0.62043 0.01117 0.64496 0.0
H1479 H 0.64071 0.00423 0.66792 0.0
H1480 H 0.62864 0.05586 0.63089 0.0
H1481 H 0.59029 1.00152 0.65268 0.0
H1482 H 0.57893 0.98871 0.67848 0.0
H1483 H 0.56413 0.03829 0.70076 0.0
H1484 H 0.57594 0.05152 0.67531 0.0
H1485 H 0.5743 0.01504 0.558 0.0
H1486 H 0.58987 0.01977 0.58801 0.0
H1487 H 0.55262 0.05186 0.60966 0.0
H1488 H 0.5364 0.04642 0.57948 0.0
H1489 H 0.56457 0.02923 0.63283 0.0
H1490 H 0.5887 0.0746 0.60082 0.0
H1491 H 0.59808 0.08548 0.57338 0.0
H1492 H 0.6391 0.05419 0.57024 0.0
H1493 H 0.62979 0.04289 0.59748 0.0
C1494 C 0.6441 0.0488 0.68417 0.0
C1495 C 0.64694 0.03129 0.68306 0.0
C1496 C 0.63198 0.05254 0.67167 0.0
C1497 C 0.62292 0.03879 0.658 0.0
C1498 C 0.62699 0.02169 0.65595 0.0
C1499 C 0.63875 0.01783 0.6687 0.0
C1500 C 0.60912 0.04209 0.64569 0.0
C1501 C 0.61458 0.05036 0.63138 0.0
C1502 C 0.59085 0.03539 0.64688 0.0
C1503 C 0.58441 0.02762 0.66241 0.0
C1504 C 0.58496 0.00978 0.66328 0.0
C1505 C 0.57839 0.00243 0.6778 0.0
C1506 C 0.57093 0.01272 0.69132 0.0
C1507 C 0.57005 0.03039 0.69036 0.0
C1508 C 0.57677 0.03784 0.67596 0.0
C1509 C 0.56929 0.0228 0.56926 0.0
C1510 C 0.55454 0.03069 0.56672 0.0
C1511 C 0.57809 0.02548 0.58628 0.0
C1512 C 0.57257 0.03656 0.6007 0.0
C1513 C 0.55704 0.04342 0.59849 0.0
C1514 C 0.5479 0.04037 0.58142 0.0
C1515 C 0.58425 0.04199 0.61743 0.0
C1516 C 0.57846 0.0355 0.63266 0.0
C1517 C 0.60226 0.05045 0.61711 0.0
C1518 C 0.60858 0.05797 0.60127 0.0
C1519 C 0.59974 0.07007 0.5943 0.0
C1520 C 0.60503 0.07628 0.57875 0.0
C1521 C 0.6192 0.07055 0.57009 0.0
C1522 C 0.62817 0.05866 0.577 0.0
C1523 C 0.62293 0.05239 0.59253 0.0
H1524 H 0.62323 0.07532 0.55801 0.0
H1525 H 0.56573 0.00697 0.70249 0.0
H1526 H 0.26056 0.35522 0.95757 0.0
H1527 H 0.26007 0.33849 0.92688 0.0
H1528 H 0.31033 0.32429 0.94093 0.0
H1529 H 0.3106 0.34062 0.97201 0.0
H1530 H 0.30781 0.3426 0.90928 0.0
H1531 H 0.27942 0.29214 0.93261 0.0
H1532 H 0.25741 0.27557 0.94929 0.0
H1533 H 0.21458 0.28266 0.91371 0.0
H1534 H 0.23633 0.29953 0.89697 0.0
H1535 H 0.31118 0.29065 0.82356 0.0
H1536 H 0.31133 0.30022 0.85598 0.0
H1537 H 0.25639 0.30594 0.84917 0.0
H1538 H 0.25601 0.29614 0.81646 0.0
H1539 H 0.26241 0.29034 0.878 0.0
H1540 H 0.28948 0.34211 0.856 0.0
H1541 H 0.31054 0.36005 0.83953 0.0
H1542 H 0.3548 0.35222 0.87273 0.0
H1543 H 0.33401 0.33397 0.88923 0.0
C1544 C 0.27132 0.3482 0.95422 0.0
C1545 C 0.2856 0.34915 0.96712 0.0
C1546 C 0.27101 0.33865 0.93671 0.0
C1547 C 0.28515 0.33018 0.93167 0.0
C1548 C 0.29926 0.3307 0.94463 0.0
C1549 C 0.29936 0.33992 0.96235 0.0
C1550 C 0.28569 0.32213 0.91248 0.0
C1551 C 0.29816 0.33092 0.90248 0.0
C1552 C 0.27265 0.30734 0.90358 0.0
C1553 C 0.2595 0.29726 0.91365 0.0
C1554 C 0.2653 0.29034 0.92846 0.0
C1555 C 0.25287 0.28084 0.9379 0.0
C1556 C 0.23461 0.2781 0.9326 0.0
C1557 C 0.22873 0.28481 0.91782 0.0
C1558 C 0.24111 0.29433 0.90833 0.0
C1559 C 0.29905 0.29386 0.82886 0.0
C1560 C 0.28359 0.29271 0.81731 0.0
C1561 C 0.29921 0.2994 0.84746 0.0
C1562 C 0.28396 0.30404 0.855 0.0
C1563 C 0.26833 0.30247 0.84362 0.0
C1564 C 0.26815 0.29692 0.82493 0.0
C1565 C 0.28455 0.31081 0.87472 0.0
C1566 C 0.27222 0.30187 0.8848 0.0
C1567 C 0.29762 0.32563 0.88369 0.0
C1568 C 0.31019 0.33648 0.87371 0.0
C1569 C 0.30372 0.34405 0.85967 0.0
C1570 C 0.3156 0.35431 0.85036 0.0
C1571 C 0.334 0.35723 0.85504 0.0
C1572 C 0.34055 0.34992 0.86909 0.0
C1573 C 0.32872 0.33962 0.87843 0.0
H1574 H 0.34318 0.36519 0.84783 0.0
H1575 H 0.22501 0.27074 0.93991 0.0
H1576 H 0.97307 0.03304 0.30531 0.0
H1577 H 0.98499 0.0318 0.33535 0.0
H1578 H 0.94304 0.05615 0.35816 0.0
H1579 H 0.93076 0.0575 0.32747 0.0
H1580 H 0.97432 0.06926 0.38023 0.0
H1581 H 0.94391 0.00958 0.35495 0.0
H1582 H 0.93645 0.98193 0.33197 0.0
H1583 H 0.99107 0.97552 0.33669 0.0
H1584 H 0.99891 0.00327 0.35954 0.0
H1585 H 0.99937 0.05306 0.46829 0.0
H1586 H 0.98462 0.05529 0.43956 0.0
H1587 H 0.01459 0.01872 0.41159 0.0
H1588 H 0.02812 0.01528 0.4407 0.0
H1589 H 0.98754 0.01188 0.39208 0.0
H1590 H 0.01914 0.07283 0.41432 0.0
H1591 H 0.02757 0.10146 0.43586 0.0
H1592 H 0.97239 0.10595 0.43627 0.0
H1593 H 0.96367 0.07749 0.41456 0.0
C1594 C 0.96613 0.03824 0.31653 0.0
C1595 C 0.95061 0.04533 0.3133 0.0
C1596 C 0.97309 0.03738 0.33405 0.0
C1597 C 0.965 0.04346 0.34964 0.0
C1598 C 0.94977 0.05113 0.34669 0.0
C1599 C 0.94266 0.05195 0.32893 0.0
C1600 C 0.97257 0.04163 0.36857 0.0
C1601 C 0.97693 0.05659 0.38279 0.0
C1602 C 0.97673 0.02537 0.37245 0.0
C1603 C 0.97202 0.00858 0.35886 0.0
C1604 C 0.95435 0.00233 0.35102 0.0
C1605 C 0.95006 0.98663 0.33802 0.0
C1606 C 0.96329 0.977 0.33285 0.0
C1607 C 0.98084 0.98301 0.3407 0.0
C1608 C 0.98521 0.99871 0.35369 0.0
C1609 C 0.00295 0.04548 0.45605 0.0
C1610 C 0.01526 0.03404 0.45728 0.0
C1611 C 0.99456 0.04699 0.43924 0.0
C1612 C 0.99854 0.03777 0.42247 0.0
C1613 C 0.01087 0.02625 0.42377 0.0
C1614 C 0.01884 0.02429 0.44068 0.0
C1615 C 0.98972 0.03965 0.40392 0.0
C1616 C 0.98506 0.02464 0.38968 0.0
C1617 C 0.98552 0.05594 0.39994 0.0
C1618 C 0.99076 0.07299 0.41298 0.0
C1619 C 0.00882 0.07992 0.41906 0.0
C1620 C 0.01365 0.09614 0.43127 0.0
C1621 C 0.00051 0.10549 0.43748 0.0
C1622 C 0.98254 0.09869 0.43145 0.0
C1623 C 0.97766 0.08258 0.41913 0.0
H1624 H 0.00421 0.11804 0.4469 0.0
H1625 H 0.95994 0.96486 0.32278 0.0
H1626 H 0.309 0.67756 0.56237 0.0
H1627 H 0.30604 0.70131 0.58732 0.0
H1628 H 0.29683 0.6628 0.62232 0.0
H1629 H 0.29944 0.63898 0.59741 0.0
H1630 H 0.27259 0.68359 0.62541 0.0
H1631 H 0.33738 0.69378 0.62423 0.0
H1632 H 0.36534 0.70026 0.60966 0.0
H1633 H 0.35217 0.74931 0.59933 0.0
H1634 H 0.32402 0.743 0.61364 0.0
H1635 H 0.28523 0.72868 0.71331 0.0
H1636 H 0.28837 0.71157 0.6841 0.0
H1637 H 0.29679 0.75969 0.66181 0.0
H1638 H 0.2941 0.77733 0.69173 0.0
H1639 H 0.31893 0.7379 0.64869 0.0
H1640 H 0.25648 0.73028 0.65286 0.0
H1641 H 0.22818 0.72455 0.66696 0.0
H1642 H 0.23562 0.67162 0.67029 0.0
H1643 H 0.26412 0.67711 0.65647 0.0
C1644 C 0.30658 0.67416 0.57544 0.0
C1645 C 0.30451 0.6563 0.57785 0.0
C1646 C 0.3049 0.6878 0.58973 0.0
C1647 C 0.30128 0.68393 0.6068 0.0
C1648 C 0.29957 0.66617 0.6093 0.0
C1649 C 0.30117 0.65254 0.59503 0.0
C1650 C 0.29866 0.69809 0.62201 0.0
C1651 C 0.2828 0.69538 0.63057 0.0
C1652 C 0.31154 0.71399 0.62825 0.0
C1653 C 0.32853 0.71783 0.61982 0.0
C1654 C 0.3404 0.70588 0.61874 0.0
C1655 C 0.35628 0.70954 0.61055 0.0
C1656 C 0.3605 0.72516 0.60353 0.0
C1657 C 0.34887 0.7372 0.60474 0.0
C1658 C 0.33296 0.7336 0.6129 0.0
C1659 C 0.28766 0.73577 0.70226 0.0
C1660 C 0.28911 0.75442 0.70485 0.0
C1661 C 0.28942 0.72587 0.68546 0.0
C1662 C 0.29232 0.73419 0.67054 0.0
C1663 C 0.29434 0.75292 0.67308 0.0
C1664 C 0.29278 0.76299 0.69014 0.0
C1665 C 0.29321 0.72294 0.65256 0.0
C1666 C 0.30862 0.72623 0.64339 0.0
C1667 C 0.2798 0.70764 0.64557 0.0
C1668 C 0.26251 0.70416 0.65369 0.0
C1669 C 0.25214 0.71745 0.65668 0.0
C1670 C 0.23605 0.71424 0.66463 0.0
C1671 C 0.23011 0.69774 0.66954 0.0
C1672 C 0.24023 0.6844 0.66647 0.0
C1673 C 0.25635 0.68754 0.65855 0.0
H1674 H 0.21766 0.69529 0.6757 0.0
H1675 H 0.3728 0.72796 0.59718 0.0
H1676 H 0.64076 0.02422 0.78718 0.0
H1677 H 0.63958 0.03211 0.81975 0.0
H1678 H 0.61314 0.0753 0.81241 0.0
H1679 H 0.61409 0.06735 0.77958 0.0
H1680 H 0.64453 0.08028 0.84502 0.0
H1681 H 0.58552 0.04879 0.81798 0.0
H1682 H 0.56573 0.02524 0.79574 0.0
H1683 H 0.58708 0.98503 0.8175 0.0
H1684 H 0.60727 0.00843 0.83967 0.0
H1685 H 0.58331 0.08154 0.9135 0.0
H1686 H 0.60539 0.08623 0.89186 0.0
H1687 H 0.6208 0.0364 0.89694 0.0
H1688 H 0.59833 0.03121 0.91793 0.0
H1689 H 0.59851 0.03626 0.866 0.0
H1690 H 0.65234 0.07058 0.89901 0.0
H1691 H 0.67088 0.09557 0.92067 0.0
H1692 H 0.65764 0.13268 0.88853 0.0
H1693 H 0.63869 0.10795 0.86684 0.0
C1694 C 0.63459 0.03533 0.79252 0.0
C1695 C 0.62714 0.04496 0.781 0.0
C1696 C 0.63426 0.04001 0.81104 0.0
C1697 C 0.62663 0.05446 0.81827 0.0
C1698 C 0.61937 0.06431 0.8069 0.0
C1699 C 0.61949 0.05948 0.78825 0.0
C1700 C 0.62351 0.057 0.83734 0.0
C1701 C 0.63439 0.07088 0.84979 0.0
C1702 C 0.61048 0.04447 0.84321 0.0
C1703 C 0.59802 0.03033 0.83032 0.0
C1704 C 0.58608 0.03493 0.81792 0.0
C1705 C 0.57479 0.02162 0.80534 0.0
C1706 C 0.57518 0.00365 0.80517 0.0
C1707 C 0.58682 0.99896 0.81763 0.0
C1708 C 0.59819 0.01223 0.83021 0.0
C1709 C 0.5918 0.07185 0.91041 0.0
C1710 C 0.58857 0.05562 0.91666 0.0
C1711 C 0.60469 0.07476 0.89839 0.0
C1712 C 0.61439 0.06147 0.89265 0.0
C1713 C 0.61333 0.04675 0.90127 0.0
C1714 C 0.60034 0.04374 0.91315 0.0
C1715 C 0.61964 0.05955 0.87417 0.0
C1716 C 0.6089 0.04568 0.86156 0.0
C1717 C 0.63248 0.07243 0.86835 0.0
C1718 C 0.64395 0.08737 0.88133 0.0
C1719 C 0.65321 0.08408 0.89663 0.0
C1720 C 0.66383 0.0982 0.90891 0.0
C1721 C 0.66541 0.1157 0.90599 0.0
C1722 C 0.65639 0.11911 0.89077 0.0
C1723 C 0.64572 0.10503 0.87847 0.0
H1724 H 0.67364 0.12662 0.91551 0.0
H1725 H 0.56644 0.99336 0.79541 0.0
H1726 H 0.31882 0.35889 0.0886 0.0
H1727 H 0.31578 0.34513 0.11555 0.0
H1728 H 0.26162 0.31952 0.09575 0.0
H1729 H 0.26488 0.33245 0.06839 0.0
H1730 H 0.27467 0.34499 0.13739 0.0
H1731 H 0.27468 0.29126 0.09376 0.0
H1732 H 0.28611 0.27312 0.06857 0.0
H1733 H 0.33659 0.2805 0.0997 0.0
H1734 H 0.32555 0.29911 0.12494 0.0
H1735 H 0.254 0.28505 0.20072 0.0
H1736 H 0.25528 0.29572 0.17193 0.0
H1737 H 0.31257 0.31169 0.1819 0.0
H1738 H 0.31132 0.30169 0.21096 0.0
H1739 H 0.29662 0.28993 0.14444 0.0
H1740 H 0.29521 0.34283 0.18871 0.0
H1741 H 0.28273 0.36012 0.21376 0.0
H1742 H 0.23323 0.35308 0.18106 0.0
H1743 H 0.24531 0.33542 0.15591 0.0
C1744 C 0.30635 0.35014 0.08991 0.0
C1745 C 0.29215 0.3466 0.07631 0.0
C1746 C 0.30462 0.34231 0.1053 0.0
C1747 C 0.28851 0.33121 0.1076 0.0
C1748 C 0.27423 0.32787 0.09416 0.0
C1749 C 0.27614 0.33522 0.07852 0.0
C1750 C 0.2865 0.32356 0.1243 0.0
C1751 C 0.27925 0.33283 0.13885 0.0
C1752 C 0.29261 0.3078 0.12628 0.0
C1753 C 0.29943 0.29692 0.11107 0.0
C1754 C 0.28833 0.28933 0.0951 0.0
C1755 C 0.29471 0.27888 0.08085 0.0
C1756 C 0.31211 0.27575 0.08249 0.0
C1757 C 0.32315 0.28303 0.09841 0.0
C1758 C 0.31684 0.29355 0.11269 0.0
C1759 C 0.26686 0.29083 0.19675 0.0
C1760 C 0.28255 0.29264 0.20815 0.0
C1761 C 0.26757 0.29691 0.18032 0.0
C1762 C 0.28402 0.30449 0.17476 0.0
C1763 C 0.29974 0.30588 0.18591 0.0
C1764 C 0.29899 0.30026 0.20255 0.0
C1765 C 0.28482 0.31137 0.15756 0.0
C1766 C 0.29192 0.30203 0.14294 0.0
C1767 C 0.27835 0.32694 0.15545 0.0
C1768 C 0.27107 0.33758 0.17052 0.0
C1769 C 0.28158 0.34477 0.18694 0.0
C1770 C 0.2746 0.35468 0.20114 0.0
C1771 C 0.25717 0.35764 0.19903 0.0
C1772 C 0.24671 0.35073 0.18269 0.0
C1773 C 0.25362 0.34077 0.16846 0.0
H1774 H 0.2518 0.36534 0.21004 0.0
H1775 H 0.31701 0.26761 0.07146 0.0
H1776 H 0.22759 0.98417 0.00435 0.0
H1777 H 0.20022 0.99591 0.00914 0.0
H1778 H 0.17122 0.94286 0.01001 0.0
H1779 H 0.1984 0.93103 0.00458 0.0
H1780 H 0.15072 0.95761 0.99243 0.0
H1781 H 0.18512 0.97777 0.04969 0.0
H1782 H 0.21141 0.99288 0.07082 0.0
H1783 H 0.20812 0.04276 0.05482 0.0
H1784 H 0.18192 0.0279 0.03343 0.0
H1785 H 0.07213 0.98422 0.02391 0.0
H1786 H 0.09996 0.97279 0.02306 0.0
H1787 H 0.1294 0.02532 0.02082 0.0
H1788 H 0.10177 0.03697 0.02274 0.0
H1789 H 0.14957 0.01057 0.03944 0.0
H1790 H 0.11323 0.98903 0.98264 0.0
H1791 H 0.0852 0.97319 0.96458 0.0
H1792 H 0.0917 0.92433 0.98108 0.0
H1793 H 0.11932 0.94003 -6e-05 0.0
C1794 C 0.2154 0.97498 0.00557 0.0
C1795 C 0.21535 0.9566 0.00409 0.0
C1796 C 0.19967 0.98175 0.00845 0.0
C1797 C 0.18343 0.97042 0.01028 0.0
C1798 C 0.18339 0.95203 0.00868 0.0
C1799 C 0.19906 0.94524 0.00562 0.0
C1800 C 0.16648 0.97755 0.01359 0.0
C1801 C 0.15051 0.96907 0.00289 0.0
C1802 C 0.16592 0.99271 0.02702 0.0
C1803 C 0.18167 1.00168 0.03983 0.0
C1804 C 0.19008 0.99193 0.05059 0.0
C1805 C 0.20495 1.00046 0.06262 0.0
C1806 C 0.21146 0.01876 0.06413 0.0
C1807 C 0.20308 0.02858 0.05362 0.0
C1808 C 0.18821 0.02012 0.04155 0.0
C1809 C 0.08457 0.99342 0.02357 0.0
C1810 C 0.08458 0.01157 0.02339 0.0
C1811 C 0.10055 0.98681 0.02288 0.0
C1812 C 0.11698 0.99798 0.02129 0.0
C1813 C 0.11707 0.01626 0.02191 0.0
C1814 C 0.10116 0.02297 0.02304 0.0
C1815 C 0.13385 0.99064 0.01828 0.0
C1816 C 0.14981 0.99912 0.02898 0.0
C1817 C 0.13436 0.97536 0.00496 0.0
C1818 C 0.11829 0.96575 0.99283 0.0
C1819 C 0.10866 0.97492 0.98247 0.0
C1820 C 0.0928 0.96598 0.97215 0.0
C1821 C 0.08672 0.94776 0.97162 0.0
C1822 C 0.09644 0.93844 0.98148 0.0
C1823 C 0.11216 0.94737 0.99206 0.0
H1824 H 0.07447 0.94086 0.96357 0.0
H1825 H 0.22297 0.02534 0.07346 0.0
H1826 H 0.73018 0.62761 0.98604 0.0
H1827 H 0.70258 0.6078 0.99 0.0
H1828 H 0.67432 0.65133 0.9921 0.0
H1829 H 0.70217 0.6715 0.98856 0.0
H1830 H 0.66541 0.63087 0.01823 0.0
H1831 H 0.67145 0.61951 0.95331 0.0
H1832 H 0.68845 0.61168 0.92726 0.0
H1833 H 0.69255 0.56202 0.94336 0.0
H1834 H 0.67572 0.56964 0.9696 0.0
H1835 H 0.57677 0.58433 0.00584 0.0
H1836 H 0.60551 0.60299 0.00313 0.0
H1837 H 0.6286 0.55591 0.99109 0.0
H1838 H 0.59943 0.5371 0.99284 0.0
H1839 H 0.64156 0.57712 0.97126 0.0
H1840 H 0.63594 0.58511 0.03395 0.0
H1841 H 0.62191 0.59121 0.06239 0.0
H1842 H 0.62039 0.64437 0.05424 0.0
H1843 H 0.63419 0.63852 0.02562 0.0
C1844 C 0.7181 0.63302 0.98726 0.0
C1845 C 0.71833 0.65113 0.98681 0.0
C1846 C 0.70231 0.62164 0.98953 0.0
C1847 C 0.68633 0.62801 0.99109 0.0
C1848 C 0.68651 0.64613 0.99087 0.0
C1849 C 0.70239 0.6576 0.98873 0.0
C1850 C 0.66938 0.61565 0.99263 0.0
C1851 C 0.66001 0.61926 0.00785 0.0
C1852 C 0.66286 0.6 0.97955 0.0
C1853 C 0.6724 0.59518 0.96343 0.0
C1854 C 0.676 0.60693 0.95129 0.0
C1855 C 0.68561 0.60254 0.9365 0.0
C1856 C 0.69159 0.58637 0.93367 0.0
C1857 C 0.6879 0.57453 0.94557 0.0
C1858 C 0.6783 0.57886 0.96037 0.0
C1859 C 0.58795 0.57796 0.0025 0.0
C1860 C 0.58591 0.55928 -0.00041 0.0
C1861 C 0.60445 0.58865 0.00112 0.0
C1862 C 0.61944 0.58095 0.99739 0.0
C1863 C 0.6173 0.56222 0.99407 0.0
C1864 C 0.60063 0.55146 0.99503 0.0
C1865 C 0.63719 0.5925 0.99671 0.0
C1866 C 0.64683 0.58872 0.98169 0.0
C1867 C 0.64424 0.60768 0.01029 0.0
C1868 C 0.63596 0.61131 0.02753 0.0
C1869 C 0.6325 0.59806 0.03815 0.0
C1870 C 0.6246 0.60148 0.05432 0.0
C1871 C 0.62022 0.61815 0.06009 0.0
C1872 C 0.62377 0.63146 0.04974 0.0
C1873 C 0.63165 0.6281 0.03355 0.0
H1874 H 0.61411 0.62077 0.07261 0.0
H1875 H 0.69908 0.58301 0.92224 0.0
H1876 H 0.70974 0.46675 0.27661 0.0
H1877 H 0.72316 0.44048 0.27693 0.0
H1878 H 0.68243 0.40955 0.23621 0.0
H1879 H 0.66823 0.43565 0.23705 0.0
H1880 H 0.68907 0.38586 0.25081 0.0
H1881 H 0.73643 0.42868 0.23404 0.0
H1882 H 0.75758 0.4575 0.23756 0.0
H1883 H 0.77923 0.45006 0.28873 0.0
H1884 H 0.75812 0.42127 0.28557 0.0
H1885 H 0.73504 0.3103 0.23615 0.0
H1886 H 0.72076 0.33591 0.23489 0.0
H1887 H 0.76191 0.3691 0.27393 0.0
H1888 H 0.77708 0.34384 0.27353 0.0
H1889 H 0.75467 0.39152 0.25927 0.0
H1890 H 0.70596 0.34829 0.27574 0.0
H1891 H 0.68523 0.31907 0.27082 0.0
H1892 H 0.66639 0.32692 0.21877 0.0
H1893 H 0.6871 0.35611 0.22335 0.0
C1894 C 0.70353 0.45445 0.26759 0.0
C1895 C 0.68762 0.45408 0.25672 0.0
C1896 C 0.71156 0.43902 0.26754 0.0
C1897 C 0.70474 0.42211 0.25608 0.0
C1898 C 0.68869 0.42179 0.24531 0.0
C1899 C 0.68039 0.43711 0.24571 0.0
C1900 C 0.71385 0.40509 0.25548 0.0
C1901 C 0.70349 0.38741 0.25253 0.0
C1902 C 0.7328 0.40579 0.25784 0.0
C1903 C 0.74561 0.42293 0.25964 0.0
C1904 C 0.74568 0.43323 0.24605 0.0
C1905 C 0.75765 0.44955 0.24799 0.0
C1906 C 0.76971 0.45562 0.26338 0.0
C1907 C 0.76987 0.44535 0.27683 0.0
C1908 C 0.75793 0.42903 0.27497 0.0
C1909 C 0.74115 0.32301 0.24455 0.0
C1910 C 0.75757 0.32434 0.25497 0.0
C1911 C 0.7326 0.33806 0.24411 0.0
C1912 C 0.7393 0.35544 0.25481 0.0
C1913 C 0.75573 0.35656 0.26529 0.0
C1914 C 0.76461 0.34171 0.26517 0.0
C1915 C 0.72992 0.37225 0.25496 0.0
C1916 C 0.74025 0.38993 0.25773 0.0
C1917 C 0.71096 0.37151 0.25233 0.0
C1918 C 0.69816 0.35428 0.24984 0.0
C1919 C 0.69739 0.34376 0.26326 0.0
C1920 C 0.68566 0.32721 0.26052 0.0
C1921 C 0.67453 0.32113 0.24448 0.0
C1922 C 0.67503 0.33164 0.23118 0.0
C1923 C 0.68673 0.3482 0.23386 0.0
H1924 H 0.66549 0.30831 0.24237 0.0
H1925 H 0.77894 0.46828 0.26487 0.0
H1926 H 0.82787 0.49515 0.50797 0.0
H1927 H 0.8604 0.50334 0.51369 0.0
H1928 H 0.86393 0.44765 0.50171 0.0
H1929 H 0.83115 0.43941 0.49736 0.0
H1930 H 0.88944 0.46312 0.52586 0.0
H1931 H 0.87099 0.47731 0.46959 0.0
H1932 H 0.85307 0.49063 0.44948 0.0
H1933 H 0.87502 0.54296 0.48013 0.0
H1934 H 0.89291 0.52992 0.50056 0.0
H1935 H 0.98147 0.48316 0.50579 0.0
H1936 H 0.94907 0.47233 0.50509 0.0
H1937 H 0.94186 0.5266 0.52121 0.0
H1938 H 0.97418 0.53735 0.52129 0.0
H1939 H 0.91846 0.51025 0.49432 0.0
H1940 H 0.93821 0.49388 0.55029 0.0
H1941 H 0.95616 0.47867 0.56838 0.0
H1942 H 0.93243 0.42805 0.53526 0.0
H1943 H 0.91447 0.44295 0.51683 0.0
C1944 C 0.83558 0.48465 0.5067 0.0
C1945 C 0.82695 0.46666 0.50197 0.0
C1946 C 0.85425 0.48933 0.50986 0.0
C1947 C 0.86489 0.4762 0.50752 0.0
C1948 C 0.8562 0.45813 0.50348 0.0
C1949 C 0.83743 0.45341 0.50092 0.0
C1950 C 0.88494 0.48143 0.50844 0.0
C1951 C 0.89575 0.47331 0.51881 0.0
C1952 C 0.89345 0.4947 0.49927 0.0
C1953 C 0.8832 0.50264 0.48665 0.0
C1954 C 0.87197 0.49165 0.47205 0.0
C1955 C 0.86181 0.49915 0.46061 0.0
C1956 C 0.86288 0.51763 0.46355 0.0
C1957 C 0.8742 0.52865 0.47788 0.0
C1958 C 0.88438 0.52122 0.48937 0.0
C1959 C 0.97292 0.49269 0.50939 0.0
C1960 C 0.98024 0.51105 0.51372 0.0
C1961 C 0.9544 0.48651 0.50907 0.0
C1962 C 0.94287 0.49858 0.51333 0.0
C1963 C 0.95036 0.51696 0.51789 0.0
C1964 C 0.96883 0.52312 0.51802 0.0
C1965 C 0.92297 0.49232 0.51211 0.0
C1966 C 0.91216 0.50014 0.50149 0.0
C1967 C 0.91459 0.47853 0.52074 0.0
C1968 C 0.92508 0.46956 0.5321 0.0
C1969 C 0.93687 0.47951 0.54682 0.0
C1970 C 0.94704 0.47095 0.55714 0.0
C1971 C 0.94546 0.45243 0.55296 0.0
C1972 C 0.93364 0.4424 0.53849 0.0
C1973 C 0.92344 0.4509 0.52812 0.0
H1974 H 0.95338 0.44584 0.56095 0.0
H1975 H 0.85496 0.5234 0.45471 0.0
H1976 H 0.40567 0.09376 0.29045 0.0
H1977 H 0.3911 0.11518 0.2786 0.0
H1978 H 0.33999 0.07946 0.275 0.0
H1979 H 0.35466 0.05744 0.28613 0.0
H1980 H 0.34717 0.09043 0.24309 0.0
H1981 H 0.35053 0.11889 0.30678 0.0
H1982 H 0.36821 0.13038 0.33618 0.0
H1983 H 0.40388 0.16756 0.31237 0.0
H1984 H 0.38646 0.15618 0.2828 0.0
H1985 H 0.2867 0.1463 0.22927 0.0
H1986 H 0.30503 0.12543 0.23672 0.0
H1987 H 0.35236 0.16685 0.24257 0.0
H1988 H 0.33404 0.18785 0.23572 0.0
H1989 H 0.35008 0.15369 0.27155 0.0
H1990 H 0.34703 0.12952 0.20965 0.0
H1991 H 0.33365 0.11759 0.17849 0.0
H1992 H 0.30222 0.07281 0.19587 0.0
H1993 H 0.3152 0.0846 0.22722 0.0
C1994 C 0.39125 0.09065 0.28771 0.0
C1995 C 0.38129 0.07387 0.28902 0.0
C1996 C 0.38296 0.1029 0.28085 0.0
C1997 C 0.36452 0.09879 0.27585 0.0
C1998 C 0.35429 0.08271 0.27865 0.0
C1999 C 0.36263 0.07028 0.28523 0.0
C2000 C 0.35612 0.11085 0.26673 0.0
C2001 C 0.34748 0.1042 0.24936 0.0
C2002 C 0.35758 0.12899 0.27459 0.0
C2003 C 0.3672 0.13671 0.29262 0.0
C2004 C 0.36209 0.12958 0.30786 0.0
C2005 C 0.37209 0.13604 0.32453 0.0
C2006 C 0.38715 0.14969 0.32614 0.0
C2007 C 0.39217 0.15702 0.31111 0.0
C2008 C 0.38221 0.15062 0.29441 0.0
C2009 C 0.30107 0.15078 0.23161 0.0
C2010 C 0.30897 0.16868 0.23199 0.0
C2011 C 0.31153 0.13886 0.23582 0.0
C2012 C 0.33004 0.14464 0.24018 0.0
C2013 C 0.33809 0.16218 0.23931 0.0
C2014 C 0.32762 0.17413 0.23534 0.0
C2015 C 0.34047 0.13318 0.24802 0.0
C2016 C 0.34967 0.13994 0.26515 0.0
C2017 C 0.33987 0.11526 0.23971 0.0
C2018 C 0.33198 0.10805 0.22086 0.0
C2019 C 0.33714 0.11721 0.20688 0.0
C2020 C 0.32966 0.11045 0.18916 0.0
C2021 C 0.31706 0.09448 0.18521 0.0
C2022 C 0.31197 0.08519 0.19896 0.0
C2023 C 0.3194 0.0919 0.21671 0.0
H2024 H 0.31128 0.08927 0.17149 0.0
H2025 H 0.39495 0.15459 0.33903 0.0
H2026 H 0.30933 0.12135 0.49999 0.0
H2027 H 0.33839 0.11428 0.50663 0.0
H2028 H 0.36375 0.16905 0.50808 0.0
H2029 H 0.33433 0.17637 0.50135 0.0
H2030 H 0.38256 0.14207 0.49033 0.0
H2031 H 0.35929 0.15875 0.54652 0.0
H2032 H 0.33615 0.15933 0.56797 0.0
H2033 H 0.33087 0.10285 0.56553 0.0
H2034 H 0.35377 0.10187 0.54383 0.0
H2035 H 0.45735 0.10958 0.52666 0.0
H2036 H 0.43605 0.12923 0.52334 0.0
H2037 H 0.39226 0.0856 0.52443 0.0
H2038 H 0.41329 0.06604 0.52765 0.0
H2039 H 0.38733 0.11566 0.54527 0.0
H2040 H 0.40528 0.09837 0.48466 0.0
H2041 H 0.42738 0.09688 0.46212 0.0
H2042 H 0.44225 0.15413 0.47275 0.0
H2043 H 0.42036 0.15592 0.49551 0.0
C2044 C 0.32105 0.13192 0.50151 0.0
C2045 C 0.31949 0.14949 0.50035 0.0
C2046 C 0.33766 0.12784 0.50534 0.0
C2047 C 0.35313 0.14122 0.50822 0.0
C2048 C 0.35189 0.15858 0.50603 0.0
C2049 C 0.33512 0.16272 0.50214 0.0
C2050 C 0.37024 0.13673 0.51425 0.0
C2051 C 0.38388 0.13673 0.50258 0.0
C2052 C 0.37186 0.12969 0.5302 0.0
C2053 C 0.35823 0.13024 0.54348 0.0
C2054 C 0.35313 0.14643 0.55047 0.0
C2055 C 0.34006 0.14683 0.56269 0.0
C2056 C 0.33204 0.13113 0.5681 0.0
C2057 C 0.33711 0.115 0.56133 0.0
C2058 C 0.35016 0.11452 0.54909 0.0
C2059 C 0.44317 0.1042 0.52612 0.0
C2060 C 0.43702 0.08625 0.52746 0.0
C2061 C 0.43103 0.11544 0.52427 0.0
C2062 C 0.41255 0.10887 0.52359 0.0
C2063 C 0.40645 0.09102 0.52508 0.0
C2064 C 0.41851 0.07984 0.52696 0.0
C2065 C 0.39926 0.12017 0.52091 0.0
C2066 C 0.38633 0.12148 0.53329 0.0
C2067 C 0.39832 0.12837 0.50563 0.0
C2068 C 0.41137 0.12727 0.49191 0.0
C2069 C 0.41337 0.11063 0.48227 0.0
C2070 C 0.42583 0.10973 0.46945 0.0
C2071 C 0.43626 0.1254 0.46605 0.0
C2072 C 0.4342 0.142 0.47543 0.0
C2073 C 0.42176 0.14297 0.48828 0.0
H2074 H 0.4459 0.12468 0.45612 0.0
H2075 H 0.32192 0.13147 0.57755 0.0
H2076 H 0.66507 0.58193 0.24519 0.0
H2077 H 0.6815 0.61199 0.24577 0.0
H2078 H 0.72657 0.6006 0.27513 0.0
H2079 H 0.70983 0.56989 0.27465 0.0
H2080 H 0.72201 0.63501 0.28912 0.0
H2081 H 0.72611 0.60502 0.22877 0.0
H2082 H 0.71424 0.58641 0.19916 0.0
H2083 H 0.68143 0.62397 0.18998 0.0
H2084 H 0.69296 0.64272 0.21964 0.0
H2085 H 0.77955 0.71726 0.27899 0.0
H2086 H 0.76532 0.6862 0.27884 0.0
H2087 H 0.72076 0.69183 0.24436 0.0
H2088 H 0.73505 0.72297 0.24444 0.0
H2089 H 0.726 0.65979 0.23297 0.0
H2090 H 0.71968 0.68906 0.29205 0.0
H2091 H 0.72861 0.70765 0.32226 0.0
H2092 H 0.76255 0.67204 0.33446 0.0
H2093 H 0.75401 0.65336 0.30419 0.0
C2094 C 0.67854 0.58551 0.25176 0.0
C2095 C 0.68582 0.57281 0.25979 0.0
C2096 C 0.68812 0.60305 0.25199 0.0
C2097 C 0.70569 0.60922 0.26031 0.0
C2098 C 0.71314 0.59666 0.26848 0.0
C2099 C 0.70352 0.57881 0.26809 0.0
C2100 C 0.71577 0.62858 0.26038 0.0
C2101 C 0.72315 0.64018 0.27672 0.0
C2102 C 0.71698 0.63625 0.24449 0.0
C2103 C 0.7103 0.6252 0.2265 0.0
C2104 C 0.71631 0.60927 0.22047 0.0
C2105 C 0.70965 0.5987 0.20368 0.0
C2106 C 0.69706 0.60398 0.19271 0.0
C2107 C 0.69117 0.61989 0.19849 0.0
C2108 C 0.69779 0.63051 0.21528 0.0
C2109 C 0.76666 0.71206 0.27139 0.0
C2110 C 0.75867 0.72324 0.26181 0.0
C2111 C 0.75834 0.69401 0.27138 0.0
C2112 C 0.74151 0.68599 0.26177 0.0
C2113 C 0.7336 0.6971 0.25201 0.0
C2114 C 0.74187 0.71523 0.25213 0.0
C2115 C 0.7324 0.66628 0.26174 0.0
C2116 C 0.72507 0.65462 0.24539 0.0
C2117 C 0.73101 0.65864 0.27765 0.0
C2118 C 0.73639 0.66994 0.29576 0.0
C2119 C 0.72919 0.68529 0.3011 0.0
C2120 C 0.73416 0.69583 0.31825 0.0
C2121 C 0.74619 0.69107 0.33025 0.0
C2122 C 0.75326 0.67574 0.32513 0.0
C2123 C 0.74837 0.66517 0.30798 0.0
H2124 H 0.75 0.69923 0.34353 0.0
H2125 H 0.69188 0.59576 0.17973 0.0
H2126 H 0.90749 0.45667 0.783 0.0
H2127 H 0.8878 0.42809 0.78359 0.0
H2128 H 0.85271 0.43657 0.74041 0.0
H2129 H 0.87198 0.46558 0.74058 0.0
H2130 H 0.83464 0.43043 0.76674 0.0
H2131 H 0.87681 0.40188 0.73521 0.0
H2132 H 0.90608 0.39469 0.72817 0.0
H2133 H 0.91171 0.37732 0.77874 0.0
H2134 H 0.88254 0.38453 0.78617 0.0
H2135 H 0.78352 0.34137 0.74828 0.0
H2136 H 0.80114 0.37124 0.74934 0.0
H2137 H 0.82846 0.36893 0.80018 0.0
H2138 H 0.8107 0.33904 0.79926 0.0
H2139 H 0.85008 0.37174 0.77061 0.0
H2140 H 0.80561 0.40015 0.80027 0.0
H2141 H 0.77495 0.40517 0.80387 0.0
H2142 H 0.77254 0.42057 0.75203 0.0
H2143 H 0.80312 0.41544 0.74803 0.0
C2144 C 0.89577 0.45211 0.7734 0.0
C2145 C 0.89098 0.46304 0.76181 0.0
C2146 C 0.88462 0.43581 0.77364 0.0
C2147 C 0.86881 0.43023 0.76202 0.0
C2148 C 0.86479 0.44072 0.74955 0.0
C2149 C 0.87574 0.45716 0.74959 0.0
C2150 C 0.8554 0.41482 0.76453 0.0
C2151 C 0.83798 0.41751 0.76729 0.0
C2152 C 0.85988 0.39812 0.76566 0.0
C2153 C 0.87756 0.39396 0.76135 0.0
C2154 C 0.88437 0.3967 0.74492 0.0
C2155 C 0.90092 0.39256 0.74083 0.0
C2156 C 0.91077 0.3856 0.75302 0.0
C2157 C 0.90409 0.38275 0.76933 0.0
C2158 C 0.88752 0.38682 0.77347 0.0
C2159 C 0.79278 0.34758 0.76002 0.0
C2160 C 0.79595 0.33805 0.77364 0.0
C2161 C 0.80278 0.36457 0.76062 0.0
C2162 C 0.81608 0.37206 0.77478 0.0
C2163 C 0.81816 0.36323 0.7892 0.0
C2164 C 0.80796 0.34629 0.78873 0.0
C2165 C 0.82956 0.38752 0.77288 0.0
C2166 C 0.84692 0.38475 0.77015 0.0
C2167 C 0.82493 0.40398 0.77131 0.0
C2168 C 0.80663 0.40731 0.77381 0.0
C2169 C 0.7985 0.40451 0.78959 0.0
C2170 C 0.78114 0.40739 0.79171 0.0
C2171 C 0.77179 0.41316 0.77818 0.0
C2172 C 0.7798 0.41611 0.76251 0.0
C2173 C 0.79716 0.41325 0.76033 0.0
H2174 H 0.75835 0.41537 0.77984 0.0
H2175 H 0.92357 0.38238 0.74982 0.0
H2176 H 0.04588 0.82564 0.1143 0.0
H2177 H 0.04337 0.84836 0.0961 0.0
H2178 H 0.07244 0.82244 0.05557 0.0
H2179 H 0.07475 0.79935 0.07357 0.0
H2180 H 0.08348 0.86319 0.06922 0.0
H2181 H 0.03423 0.81576 0.04246 0.0
H2182 H 0.00775 0.79235 0.04306 0.0
H2183 H 0.98069 0.83166 0.07046 0.0
H2184 H 0.00712 0.85527 0.07027 0.0
H2185 H 0.05386 0.91617 0.00604 0.0
H2186 H 0.06334 0.89223 0.01936 0.0
H2187 H 0.03074 0.90283 0.06328 0.0
H2188 H 0.02123 0.92658 0.05012 0.0
H2189 H 0.02353 0.86722 0.04337 0.0
H2190 H 0.07197 0.91376 0.07316 0.0
H2191 H 0.09833 0.938 0.07549 0.0
H2192 H 0.12674 0.90179 0.04502 0.0
H2193 H 0.10041 0.87736 0.04228 0.0
C2194 C 0.05172 0.82478 0.10152 0.0
C2195 C 0.06044 0.81078 0.09526 0.0
C2196 C 0.05029 0.83772 0.09119 0.0
C2197 C 0.05774 0.83692 0.07462 0.0
C2198 C 0.06668 0.82314 0.0684 0.0
C2199 C 0.06787 0.80999 0.0786 0.0
C2200 C 0.0557 0.85046 0.06379 0.0
C2201 C 0.07051 0.86393 0.06312 0.0
C2202 C 0.03865 0.85142 0.05634 0.0
C2203 C 0.02271 0.83726 0.05647 0.0
C2204 C 0.0227 0.81939 0.04876 0.0
C2205 C 0.00768 0.80609 0.04899 0.0
C2206 C 0.99256 0.81051 0.05682 0.0
C2207 C 0.99242 0.82825 0.06441 0.0
C2208 C 0.0074 0.8416 0.06422 0.0
C2209 C 0.04885 0.91339 0.01858 0.0
C2210 C 0.03672 0.923 0.02703 0.0
C2211 C 0.05438 0.89991 0.02622 0.0
C2212 C 0.04767 0.89591 0.04222 0.0
C2213 C 0.03602 0.90586 0.05091 0.0
C2214 C 0.03064 0.91937 0.04342 0.0
C2215 C 0.05123 0.88023 0.0491 0.0
C2216 C 0.03664 0.86632 0.04902 0.0
C2217 C 0.06843 0.87904 0.05602 0.0
C2218 C 0.0841 0.89381 0.05723 0.0
C2219 C 0.08373 0.91102 0.06671 0.0
C2220 C 0.09869 0.92478 0.06817 0.0
C2221 C 0.11417 0.92146 0.06032 0.0
C2222 C 0.11472 0.90436 0.05103 0.0
C2223 C 0.09978 0.89055 0.04952 0.0
H2224 H 0.12576 0.93211 0.06151 0.0
H2225 H 0.98094 0.80019 0.05698 0.0
H2226 H 0.95112 0.29471 0.88052 0.0
H2227 H 0.9205 0.29535 0.86962 0.0
H2228 H 0.93407 0.28364 0.81465 0.0
H2229 H 0.96483 0.28395 0.82552 0.0
H2230 H 0.91912 0.31136 0.81937 0.0
H2231 H 0.90727 0.25281 0.83753 0.0
H2232 H 0.90613 0.23256 0.85944 0.0
H2233 H 0.87232 0.2621 0.89062 0.0
H2234 H 0.87346 0.28267 0.86901 0.0
H2235 H 0.84568 0.27362 0.75944 0.0
H2236 H 0.87115 0.27672 0.78166 0.0
H2237 H 0.84327 0.30357 0.82276 0.0
H2238 H 0.81792 0.30098 0.80033 0.0
H2239 H 0.86263 0.27442 0.83204 0.0
H2240 H 0.87107 0.33001 0.81096 0.0
H2241 H 0.87015 0.34787 0.78703 0.0
H2242 H 0.90967 0.32256 0.76059 0.0
H2243 H 0.91063 0.30435 0.7842 0.0
C2244 C 0.94742 0.29203 0.86611 0.0
C2245 C 0.96023 0.28941 0.85378 0.0
C2246 C 0.92996 0.29236 0.85993 0.0
C2247 C 0.92506 0.28957 0.84135 0.0
C2248 C 0.93767 0.28602 0.82907 0.0
C2249 C 0.95518 0.28615 0.83523 0.0
C2250 C 0.90731 0.29159 0.83438 0.0
C2251 C 0.90679 0.30327 0.82219 0.0
C2252 C 0.89115 0.28172 0.83876 0.0
C2253 C 0.89067 0.26943 0.8518 0.0
C2254 C 0.89975 0.25509 0.84915 0.0
C2255 C 0.89907 0.24354 0.8615 0.0
C2256 C 0.88922 0.24608 0.87645 0.0
C2257 C 0.87999 0.26017 0.87907 0.0
C2258 C 0.88065 0.27178 0.86678 0.0
C2259 C 0.84502 0.28014 0.77322 0.0
C2260 C 0.82989 0.28677 0.77842 0.0
C2261 C 0.85942 0.28178 0.78586 0.0
C2262 C 0.85885 0.29023 0.80375 0.0
C2263 C 0.84369 0.29677 0.80904 0.0
C2264 C 0.82929 0.2952 0.79632 0.0
C2265 C 0.87485 0.29321 0.81633 0.0
C2266 C 0.87498 0.28278 0.82968 0.0
C2267 C 0.89073 0.30418 0.81306 0.0
C2268 C 0.89088 0.31578 0.79934 0.0
C2269 C 0.87955 0.32823 0.80003 0.0
C2270 C 0.87901 0.33841 0.78652 0.0
C2271 C 0.88981 0.3363 0.77228 0.0
C2272 C 0.90131 0.32416 0.77163 0.0
C2273 C 0.90189 0.31394 0.7851 0.0
H2274 H 0.88925 0.34405 0.76174 0.0
H2275 H 0.88869 0.23711 0.88598 0.0
H2276 H 0.53372 0.21177 0.59617 0.0
H2277 H 0.52991 0.18436 0.57342 0.0
H2278 H 0.57958 0.17385 0.59494 0.0
H2279 H 0.58318 0.20101 0.61817 0.0
H2280 H 0.57393 0.17633 0.55452 0.0
H2281 H 0.55019 0.14773 0.60235 0.0
H2282 H 0.53051 0.14302 0.62655 0.0
H2283 H 0.4843 0.13371 0.58857 0.0
H2284 H 0.50373 0.13867 0.56418 0.0
H2285 H 0.57543 0.0857 0.52079 0.0
H2286 H 0.57827 0.11764 0.53236 0.0
H2287 H 0.52251 0.11389 0.51558 0.0
H2288 H 0.51963 0.08191 0.50442 0.0
H2289 H 0.52938 0.12041 0.55152 0.0
H2290 H 0.55309 0.14508 0.50275 0.0
H2291 H 0.57275 0.14872 0.47835 0.0
H2292 H 0.61868 0.16472 0.51715 0.0
H2293 H 0.59931 0.16094 0.5418 0.0
C2294 C 0.54361 0.20338 0.59622 0.0
C2295 C 0.55874 0.20832 0.60874 0.0
C2296 C 0.54144 0.18785 0.58328 0.0
C2297 C 0.55456 0.17738 0.58258 0.0
C2298 C 0.56941 0.18195 0.59541 0.0
C2299 C 0.57137 0.19728 0.60866 0.0
C2300 C 0.55317 0.16219 0.56777 0.0
C2301 C 0.56435 0.16398 0.55382 0.0
C2302 C 0.54016 0.14655 0.5668 0.0
C2303 C 0.52842 0.14388 0.5815 0.0
C2304 C 0.53584 0.14496 0.59921 0.0
C2305 C 0.52472 0.14217 0.61295 0.0
C2306 C 0.50616 0.13816 0.60912 0.0
C2307 C 0.49868 0.13689 0.59153 0.0
C2308 C 0.50974 0.13969 0.57774 0.0
C2309 C 0.56412 0.09197 0.51867 0.0
C2310 C 0.5473 0.08162 0.51206 0.0
C2311 C 0.56571 0.11019 0.52525 0.0
C2312 C 0.5505 0.11797 0.52502 0.0
C2313 C 0.53433 0.10804 0.51592 0.0
C2314 C 0.53271 0.08985 0.50956 0.0
C2315 C 0.5503 0.13432 0.53811 0.0
C2316 C 0.5388 0.13281 0.55188 0.0
C2317 C 0.563 0.15018 0.53886 0.0
C2318 C 0.57474 0.15262 0.52412 0.0
C2319 C 0.56739 0.14925 0.50608 0.0
C2320 C 0.57849 0.15136 0.4922 0.0
C2321 C 0.59696 0.15692 0.49619 0.0
C2322 C 0.60437 0.16042 0.51408 0.0
C2323 C 0.59333 0.15833 0.52802 0.0
H2324 H 0.60553 0.15853 0.48542 0.0
H2325 H 0.49758 0.13597 0.61976 0.0
H2326 H 0.55268 0.80678 0.35732 0.0
H2327 H 0.5825 0.81612 0.34827 0.0
H2328 H 0.60248 0.78015 0.37834 0.0
H2329 H 0.57263 0.7717 0.38851 0.0
H2330 H 0.62764 0.80929 0.37909 0.0
H2331 H 0.5881 0.76677 0.33363 0.0
H2332 H 0.56012 0.75492 0.3139 0.0
H2333 H 0.5694 0.80069 0.28836 0.0
H2334 H 0.59731 0.81295 0.30814 0.0
H2335 H 0.69163 0.78406 0.318 0.0
H2336 H 0.66844 0.78694 0.33871 0.0
H2337 H 0.65454 0.82988 0.31497 0.0
H2338 H 0.67749 0.827 0.29408 0.0
H2339 H 0.62737 0.79939 0.31239 0.0
H2340 H 0.66967 0.83986 0.3571 0.0
H2341 H 0.69791 0.84965 0.37668 0.0
H2342 H 0.68455 0.80452 0.40261 0.0
H2343 H 0.65618 0.79444 0.38318 0.0
C2344 C 0.56343 0.80094 0.36206 0.0
C2345 C 0.56042 0.78815 0.37311 0.0
C2346 C 0.58047 0.80637 0.35701 0.0
C2347 C 0.59452 0.79844 0.36225 0.0
C2348 C 0.59174 0.78632 0.37409 0.0
C2349 C 0.57474 0.78135 0.37968 0.0
C2350 C 0.61138 0.8013 0.35368 0.0
C2351 C 0.62765 0.80704 0.36452 0.0
C2352 C 0.61128 0.79839 0.33466 0.0
C2353 C 0.59471 0.79084 0.32246 0.0
C2354 C 0.58413 0.77434 0.32385 0.0
C2355 C 0.56828 0.76756 0.31267 0.0
C2356 C 0.56296 0.77707 0.29992 0.0
C2357 C 0.57352 0.79335 0.29827 0.0
C2358 C 0.58937 0.80022 0.30945 0.0
C2359 C 0.68377 0.79426 0.31734 0.0
C2360 C 0.68624 0.8052 0.30432 0.0
C2361 C 0.67076 0.79606 0.32935 0.0
C2362 C 0.65998 0.8087 0.32836 0.0
C2363 C 0.66296 0.82021 0.316 0.0
C2364 C 0.67605 0.81852 0.30409 0.0
C2365 C 0.64363 0.80765 0.33774 0.0
C2366 C 0.62739 0.80195 0.32698 0.0
C2367 C 0.6439 0.81021 0.35672 0.0
C2368 C 0.66087 0.81631 0.36856 0.0
C2369 C 0.6728 0.83195 0.36689 0.0
C2370 C 0.68881 0.83758 0.378 0.0
C2371 C 0.69308 0.82766 0.39081 0.0
C2372 C 0.68125 0.81217 0.39265 0.0
C2373 C 0.66517 0.80653 0.38164 0.0
H2374 H 0.70554 0.83199 0.39932 0.0
H2375 H 0.55068 0.7718 0.29129 0.0
H2376 H 0.065 0.26801 0.44779 0.0
H2377 H 0.05434 0.24142 0.46038 0.0
H2378 H 0.05626 0.20798 0.40877 0.0
H2379 H 0.06618 0.23458 0.39593 0.0
H2380 H 0.02825 0.1944 0.42331 0.0
H2381 H 0.08969 0.21394 0.44295 0.0
H2382 H 0.11716 0.2355 0.45597 0.0
H2383 H 0.09483 0.24474 0.50687 0.0
H2384 H 0.0671 0.2234 0.49407 0.0
H2385 H 0.03884 0.11865 0.46687 0.0
H2386 H 0.04377 0.14281 0.4496 0.0
H2387 H 0.02283 0.17684 0.49107 0.0
H2388 H 0.01772 0.15277 0.50839 0.0
H2389 H 0.06066 0.18853 0.48003 0.0
H2390 H 0.99816 0.16599 0.45682 0.0
H2391 H 0.97272 0.14318 0.44098 0.0
H2392 H 0.00105 0.1365 0.39356 0.0
H2393 H 0.02675 0.15917 0.40917 0.0
C2394 C 0.06314 0.25499 0.43915 0.0
C2395 C 0.06663 0.25333 0.42097 0.0
C2396 C 0.05705 0.2398 0.44633 0.0
C2397 C 0.05483 0.22267 0.4356 0.0
C2398 C 0.05791 0.22103 0.41732 0.0
C2399 C 0.06369 0.23624 0.41004 0.0
C2400 C 0.04999 0.20652 0.44369 0.0
C2401 C 0.03545 0.19304 0.43561 0.0
C2402 C 0.0595 0.20459 0.45962 0.0
C2403 C 0.07627 0.21718 0.46752 0.0
C2404 C 0.0906 0.22063 0.4569 0.0
C2405 C 0.10622 0.23281 0.46424 0.0
C2406 C 0.10772 0.24152 0.48223 0.0
C2407 C 0.09364 0.238 0.49294 0.0
C2408 C 0.07797 0.22584 0.48565 0.0
C2409 C 0.03515 0.13123 0.47225 0.0
C2410 C 0.02793 0.13381 0.48904 0.0
C2411 C 0.03784 0.14494 0.46229 0.0
C2412 C 0.03355 0.1615 0.46907 0.0
C2413 C 0.02605 0.16404 0.4856 0.0
C2414 C 0.02311 0.15027 0.49544 0.0
C2415 C 0.03866 0.17677 0.45994 0.0
C2416 C 0.05344 0.18998 0.46776 0.0
C2417 C 0.02977 0.17805 0.44346 0.0
C2418 C 0.01446 0.16414 0.43425 0.0
C2419 C 0.99906 0.15951 0.44309 0.0
C2420 C 0.98454 0.14669 0.43411 0.0
C2421 C 0.98526 0.13841 0.41627 0.0
C2422 C 0.00051 0.14293 0.40737 0.0
C2423 C 0.01504 0.15578 0.41627 0.0
H2424 H 0.97402 0.12848 0.40935 0.0
H2425 H 0.11982 0.25096 0.48788 0.0
H2426 H 0.53521 0.25009 0.17209 0.0
H2427 H 0.56421 0.25135 0.18792 0.0
H2428 H 0.59002 0.28269 0.15124 0.0
H2429 H 0.56091 0.28037 0.13457 0.0
H2430 H 0.6089 0.25951 0.15822 0.0
H2431 H 0.58122 0.30214 0.19479 0.0
H2432 H 0.55663 0.31214 0.21098 0.0
H2433 H 0.55872 0.27371 0.24527 0.0
H2434 H 0.58313 0.26331 0.22913 0.0
H2435 H 0.68877 0.27945 0.21776 0.0
H2436 H 0.6625 0.28483 0.20113 0.0
H2437 H 0.62837 0.24724 0.22634 0.0
H2438 H 0.65454 0.24149 0.2427 0.0
H2439 H 0.61573 0.27857 0.22485 0.0
H2440 H 0.64 0.23361 0.18646 0.0
H2441 H 0.66319 0.22162 0.16956 0.0
H2442 H 0.66665 0.26327 0.13843 0.0
H2443 H 0.64369 0.27571 0.15539 0.0
C2444 C 0.54711 0.25716 0.16738 0.0
C2445 C 0.54601 0.26533 0.15234 0.0
C2446 C 0.56361 0.25799 0.17647 0.0
C2447 C 0.57913 0.26766 0.1711 0.0
C2448 C 0.57812 0.27536 0.15569 0.0
C2449 C 0.56159 0.27405 0.14622 0.0
C2450 C 0.59637 0.26958 0.18166 0.0
C2451 C 0.61056 0.26408 0.17273 0.0
C2452 C 0.59833 0.27529 0.20063 0.0
C2453 C 0.58399 0.28192 0.21071 0.0
C2454 C 0.57641 0.2958 0.20576 0.0
C2455 C 0.56249 0.30153 0.21492 0.0
C2456 C 0.55611 0.29356 0.22914 0.0
C2457 C 0.56368 0.27988 0.23427 0.0
C2458 C 0.57759 0.27409 0.22514 0.0
C2459 C 0.67564 0.27233 0.21971 0.0
C2460 C 0.67361 0.25986 0.23129 0.0
C2461 C 0.66073 0.27548 0.2103 0.0
C2462 C 0.64368 0.26626 0.21245 0.0
C2463 C 0.64153 0.25445 0.2246 0.0
C2464 C 0.65642 0.25122 0.23394 0.0
C2465 C 0.628 0.26815 0.20142 0.0
C2466 C 0.61417 0.27442 0.21028 0.0
C2467 C 0.62635 0.26311 0.18242 0.0
C2468 C 0.64034 0.25576 0.17241 0.0
C2469 C 0.64588 0.24036 0.17618 0.0
C2470 C 0.65894 0.23344 0.16655 0.0
C2471 C 0.66645 0.24172 0.15298 0.0
C2472 C 0.66088 0.25691 0.14899 0.0
C2473 C 0.64785 0.2639 0.15862 0.0
H2474 H 0.67653 0.23632 0.14551 0.0
H2475 H 0.54531 0.29798 0.23618 0.0
H2476 H 0.59622 0.87453 0.89844 0.0
H2477 H 0.58638 0.9007 0.91411 0.0
H2478 H 0.56848 0.87215 0.95602 0.0
H2479 H 0.57792 0.84559 0.94018 0.0
H2480 H 0.54303 0.88868 0.94345 0.0
H2481 H 0.60589 0.90446 0.96354 0.0
H2482 H 0.63819 0.90947 0.95988 0.0
H2483 H 0.63258 0.94953 0.92841 0.0
H2484 H 0.60018 0.94454 0.9316 0.0
H2485 H 0.53285 0.96765 0.00475 0.0
H2486 H 0.54034 0.93958 0.99014 0.0
H2487 H 0.55585 0.96316 0.9443 0.0
H2488 H 0.54845 0.99117 0.95862 0.0
H2489 H 0.58209 0.94874 0.96015 0.0
H2490 H 0.52038 0.93343 0.9386 0.0
H2491 H 0.48795 0.92956 0.94126 0.0
H2492 H 0.49086 0.88982 0.97382 0.0
H2493 H 0.52342 0.8937 0.97165 0.0
C2494 C 0.59052 0.87386 0.91116 0.0
C2495 C 0.58785 0.85796 0.91807 0.0
C2496 C 0.58488 0.88884 0.92008 0.0
C2497 C 0.57677 0.8883 0.93621 0.0
C2498 C 0.57468 0.87273 0.94354 0.0
C2499 C 0.58024 0.85765 0.93456 0.0
C2500 C 0.56993 0.90388 0.94501 0.0
C2501 C 0.5516 0.90177 0.94742 0.0
C2502 C 0.58107 0.92098 0.94959 0.0
C2503 C 0.60057 0.924 0.94768 0.0
C2504 C 0.61151 0.91423 0.95571 0.0
C2505 C 0.62985 0.91708 0.95373 0.0
C2506 C 0.63743 0.92977 0.94388 0.0
C2507 C 0.62669 0.93968 0.93601 0.0
C2508 C 0.60834 0.93685 0.93791 0.0
C2509 C 0.53768 0.9668 0.99148 0.0
C2510 C 0.54033 0.98166 0.98293 0.0
C2511 C 0.54183 0.95076 0.98315 0.0
C2512 C 0.54863 0.94948 0.96625 0.0
C2513 C 0.55064 0.96405 0.9574 0.0
C2514 C 0.54643 0.98002 0.96564 0.0
C2515 C 0.55527 0.93354 0.95848 0.0
C2516 C 0.57355 0.93561 0.95628 0.0
C2517 C 0.54404 0.91652 0.95393 0.0
C2518 C 0.52441 0.91401 0.95513 0.0
C2519 C 0.51416 0.92399 0.94648 0.0
C2520 C 0.49574 0.92178 0.94787 0.0
C2521 C 0.48736 0.90949 0.95775 0.0
C2522 C 0.49738 0.89936 0.9662 0.0
C2523 C 0.51582 0.90156 0.96489 0.0
H2524 H 0.47309 0.90779 0.95881 0.0
H2525 H 0.65162 0.93196 0.94237 0.0
H2526 H 0.94881 0.78217 0.66074 0.0
H2527 H 0.92435 0.78825 0.67916 0.0
H2528 H 0.9098 0.73227 0.68132 0.0
H2529 H 0.93464 0.72623 0.66361 0.0
H2530 H 0.88052 0.75787 0.67524 0.0
H2531 H 0.92944 0.74448 0.71361 0.0
H2532 H 0.96121 0.74885 0.72478 0.0
H2533 H 0.96345 0.80527 0.74015 0.0
H2534 H 0.93172 0.8012 0.72877 0.0
H2535 H 0.82923 0.74058 0.74288 0.0
H2536 H 0.85615 0.74023 0.72705 0.0
H2537 H 0.87232 0.79727 0.74453 0.0
H2538 H 0.84536 0.7977 0.76062 0.0
H2539 H 0.90138 0.77604 0.7405 0.0
H2540 H 0.85053 0.78826 0.70781 0.0
H2541 H 0.81858 0.78356 0.69737 0.0
H2542 H 0.81958 0.72997 0.67137 0.0
H2543 H 0.85157 0.73431 0.68178 0.0
C2544 C 0.94001 0.77114 0.6647 0.0
C2545 C 0.94345 0.75377 0.66092 0.0
C2546 C 0.9262 0.77463 0.67523 0.0
C2547 C 0.91558 0.76068 0.68158 0.0
C2548 C 0.91801 0.74311 0.67647 0.0
C2549 C 0.93209 0.7397 0.66639 0.0
C2550 C 0.90319 0.76454 0.69509 0.0
C2551 C 0.88501 0.76188 0.68949 0.0
C2552 C 0.90929 0.77007 0.71356 0.0
C2553 C 0.92838 0.77259 0.72006 0.0
C2554 C 0.9368 0.75784 0.71912 0.0
C2555 C 0.95476 0.76025 0.72555 0.0
C2556 C 0.96437 0.77734 0.73309 0.0
C2557 C 0.95601 0.79205 0.73423 0.0
C2558 C 0.93805 0.7897 0.72778 0.0
C2559 C 0.83889 0.75292 0.74395 0.0
C2560 C 0.83523 0.7692 0.75264 0.0
C2561 C 0.85418 0.75271 0.73491 0.0
C2562 C 0.8658 0.76879 0.73437 0.0
C2563 C 0.86334 0.78479 0.74483 0.0
C2564 C 0.84803 0.78499 0.75404 0.0
C2565 C 0.87863 0.76901 0.7207 0.0
C2566 C 0.89689 0.77243 0.72623 0.0
C2567 C 0.87259 0.76423 0.70213 0.0
C2568 C 0.8534 0.76157 0.69568 0.0
C2569 C 0.8439 0.77543 0.69997 0.0
C2570 C 0.82579 0.77284 0.69404 0.0
C2571 C 0.81702 0.75647 0.68376 0.0
C2572 C 0.82638 0.74265 0.67934 0.0
C2573 C 0.84452 0.74518 0.68521 0.0
H2574 H 0.80299 0.7545 0.6792 0.0
H2575 H 0.97826 0.77918 0.73811 0.0
H2576 H 0.09574 0.00266 0.80439 0.0
H2577 H 0.08254 0.00336 0.8331 0.0
H2578 H 0.13433 0.0264 0.86142 0.0
H2579 H 0.14776 0.02438 0.83237 0.0
H2580 H 0.11943 0.01005 0.88339 0.0
H2581 H 0.09287 0.04938 0.85235 0.0
H2582 H 0.07622 0.05814 0.82754 0.0
H2583 H 0.03055 0.01795 0.83159 0.0
H2584 H 0.047 0.00882 0.85629 0.0
H2585 H 0.08285 0.04258 0.9666 0.0
H2586 H 0.09652 0.03918 0.93789 0.0
H2587 H 0.04734 0.00629 0.91137 0.0
H2588 H 0.03368 0.00943 0.94025 0.0
H2589 H 0.06064 0.02787 0.88894 0.0
H2590 H 0.08821 0.98631 0.91648 0.0
H2591 H 0.10498 0.97602 0.94007 0.0
H2592 H 0.14772 0.02123 0.94321 0.0
H2593 H 0.13145 0.03141 0.91906 0.0
C2594 C 0.10451 0.00758 0.8167 0.0
C2595 C 0.12308 0.01314 0.81555 0.0
C2596 C 0.09675 0.0084 0.83346 0.0
C2597 C 0.10691 0.01567 0.85027 0.0
C2598 C 0.12565 0.02081 0.84917 0.0
C2599 C 0.13352 0.01954 0.83229 0.0
C2600 C 0.09814 0.01778 0.86861 0.0
C2601 C 0.10672 0.01429 0.88438 0.0
C2602 C 0.08112 0.02286 0.87087 0.0
C2603 C 0.07123 0.02831 0.85604 0.0
C2604 C 0.07931 0.04236 0.84787 0.0
C2605 C 0.0699 0.04739 0.83384 0.0
C2606 C 0.05236 0.03858 0.82796 0.0
C2607 C 0.04416 0.02474 0.83614 0.0
C2608 C 0.05351 0.01964 0.85016 0.0
C2609 C 0.07479 0.03457 0.95474 0.0
C2610 C 0.05687 0.02639 0.9563 0.0
C2611 C 0.08281 0.03247 0.93806 0.0
C2612 C 0.07336 0.02224 0.9218 0.0
C2613 C 0.05535 0.01426 0.92327 0.0
C2614 C 0.04741 0.01609 0.94006 0.0
C2615 C 0.08203 0.02024 0.90351 0.0
C2616 C 0.07341 0.02375 0.88783 0.0
C2617 C 0.099 0.01531 0.90132 0.0
C2618 C 0.10855 0.00972 0.9162 0.0
C2619 C 0.10112 0.99412 0.92233 0.0
C2620 C 0.11056 0.98828 0.93575 0.0
C2621 C 0.12728 0.9981 0.94336 0.0
C2622 C 0.13472 0.01368 0.93738 0.0
C2623 C 0.12547 0.01941 0.92372 0.0
H2624 H 0.13453 0.99357 0.9538 0.0
H2625 H 0.0451 0.04249 0.8171 0.0
H2626 H 0.79283 0.43273 0.56165 0.0
H2627 H 0.80128 0.41822 0.58624 0.0
H2628 H 0.76435 0.36984 0.5616 0.0
H2629 H 0.75593 0.38418 0.53688 0.0
H2630 H 0.76215 0.37933 0.59855 0.0
H2631 H 0.80731 0.37262 0.55695 0.0
H2632 H 0.8314 0.38305 0.53866 0.0
H2633 H 0.86268 0.41397 0.58648 0.0
H2634 H 0.83864 0.40391 0.60505 0.0
H2635 H 0.78643 0.30958 0.63242 0.0
H2636 H 0.78667 0.32944 0.61075 0.0
H2637 H 0.81558 0.37346 0.65077 0.0
H2638 H 0.81567 0.35352 0.67271 0.0
H2639 H 0.82411 0.36974 0.60924 0.0
H2640 H 0.77892 0.37673 0.65092 0.0
H2641 H 0.75577 0.36439 0.66928 0.0
H2642 H 0.72539 0.33255 0.62137 0.0
H2643 H 0.74854 0.34452 0.60274 0.0
C2644 C 0.7864 0.41904 0.56153 0.0
C2645 C 0.77369 0.40959 0.54733 0.0
C2646 C 0.79133 0.41075 0.57553 0.0
C2647 C 0.78355 0.39293 0.57564 0.0
C2648 C 0.77053 0.38361 0.56173 0.0
C2649 C 0.76574 0.39181 0.54763 0.0
C2650 C 0.78888 0.38387 0.5902 0.0
C2651 C 0.7757 0.37727 0.60084 0.0
C2652 C 0.80668 0.38154 0.59352 0.0
C2653 C 0.82107 0.38771 0.58236 0.0
C2654 C 0.81923 0.3818 0.56355 0.0
C2655 C 0.8329 0.38761 0.55313 0.0
C2656 C 0.84853 0.39922 0.56139 0.0
C2657 C 0.85054 0.40501 0.58009 0.0
C2658 C 0.8369 0.39926 0.59057 0.0
C2659 C 0.7934 0.32332 0.63652 0.0
C2660 C 0.8009 0.32999 0.65436 0.0
C2661 C 0.79348 0.33466 0.6241 0.0
C2662 C 0.80106 0.35286 0.62924 0.0
C2663 C 0.80972 0.3594 0.6466 0.0
C2664 C 0.80958 0.34804 0.65913 0.0
C2665 C 0.79733 0.36516 0.61728 0.0
C2666 C 0.81071 0.37224 0.60714 0.0
C2667 C 0.77978 0.36812 0.61445 0.0
C2668 C 0.76547 0.36145 0.62547 0.0
C2669 C 0.76732 0.36705 0.64432 0.0
C2670 C 0.75422 0.36012 0.65477 0.0
C2671 C 0.73913 0.34768 0.6465 0.0
C2672 C 0.73709 0.3422 0.62775 0.0
C2673 C 0.75018 0.34907 0.61724 0.0
H2674 H 0.72901 0.3423 0.65461 0.0
H2675 H 0.8591 0.40368 0.5533 0.0
H2676 H 0.4494 0.99433 0.32155 0.0
H2677 H 0.45968 0.9941 0.35277 0.0
H2678 H 0.45599 0.04951 0.36798 0.0
H2679 H 0.44489 0.0496 0.33686 0.0
H2680 H 0.49282 0.03241 0.36943 0.0
H2681 H 0.43416 0.03575 0.38914 0.0
H2682 H 0.4015 0.02654 0.38894 0.0
H2683 H 0.40781 0.97491 0.39839 0.0
H2684 H 0.44053 0.98371 0.39829 0.0
H2685 H 0.51393 0.05264 0.46539 0.0
H2686 H 0.50036 0.05041 0.43474 0.0
H2687 H 0.49839 0.99352 0.42433 0.0
H2688 H 0.51261 0.99576 0.45482 0.0
H2689 H 0.46379 0.01039 0.42055 0.0
H2690 H 0.52215 0.00691 0.40153 0.0
H2691 H 0.55486 0.0158 0.40186 0.0
H2692 H 0.54913 0.06713 0.39104 0.0
H2693 H 0.51637 0.05865 0.39096 0.0
C2694 C 0.45059 0.00635 0.33166 0.0
C2695 C 0.44676 0.02208 0.32705 0.0
C2696 C 0.45614 0.00612 0.34938 0.0
C2697 C 0.45821 0.02171 0.36242 0.0
C2698 C 0.45401 0.03733 0.35796 0.0
C2699 C 0.44793 0.03742 0.34031 0.0
C2700 C 0.46793 0.0224 0.37964 0.0
C2701 C 0.48652 0.02787 0.38077 0.0
C2702 C 0.45948 0.01582 0.39388 0.0
C2703 C 0.43978 0.01027 0.39331 0.0
C2704 C 0.42858 0.02231 0.3908 0.0
C2705 C 0.41005 0.0172 0.39085 0.0
C2706 C 0.40258 1.00011 0.39354 0.0
C2707 C 0.41362 0.98811 0.39622 0.0
C2708 C 0.43215 0.99316 0.39615 0.0
C2709 C 0.51077 0.03974 0.45642 0.0
C2710 C 0.51408 0.02434 0.46217 0.0
C2711 C 0.50318 0.03851 0.43905 0.0
C2712 C 0.49857 0.02183 0.42759 0.0
C2713 C 0.50209 0.00645 0.43318 0.0
C2714 C 0.51014 0.00775 0.45042 0.0
C2715 C 0.48865 0.0205 0.41033 0.0
C2716 C 0.47007 0.01489 0.40918 0.0
C2717 C 0.49709 0.0269 0.39602 0.0
C2718 C 0.51682 0.03224 0.39652 0.0
C2719 C 0.52787 0.0202 0.39951 0.0
C2720 C 0.54643 0.02514 0.39958 0.0
C2721 C 0.55408 0.04205 0.39655 0.0
C2722 C 0.54319 0.05405 0.39343 0.0
C2723 C 0.52463 0.04919 0.39338 0.0
H2724 H 0.56844 0.04582 0.39655 0.0
H2725 H 0.38824 0.9962 0.39364 0.0
H2726 H 0.76184 0.72649 0.04841 0.0
H2727 H 0.76615 0.74224 0.07998 0.0
H2728 H 0.80129 0.70745 0.09261 0.0
H2729 H 0.79611 0.69122 0.06149 0.0
H2730 H 0.77847 0.70786 0.1154 0.0
H2731 H 0.81536 0.7546 0.09196 0.0
H2732 H 0.82242 0.7768 0.07236 0.0
H2733 H 0.7805 0.80273 0.09242 0.0
H2734 H 0.77306 0.78057 0.11199 0.0
H2735 H 0.80919 0.74999 0.205 0.0
H2736 H 0.80861 0.74002 0.17242 0.0
H2737 H 0.76799 0.77035 0.16358 0.0
H2738 H 0.76858 0.78055 0.1961 0.0
H2739 H 0.7929 0.77309 0.1391 0.0
H2740 H 0.75632 0.72614 0.16235 0.0
H2741 H 0.74969 0.70415 0.18225 0.0
H2742 H 0.79192 0.67864 0.1623 0.0
H2743 H 0.79896 0.70063 0.14246 0.0
C2744 C 0.77074 0.72254 0.05793 0.0
C2745 C 0.77865 0.7077 0.05266 0.0
C2746 C 0.77326 0.73154 0.07595 0.0
C2747 C 0.7841 0.72609 0.08878 0.0
C2748 C 0.79275 0.71185 0.0831 0.0
C2749 C 0.78988 0.70263 0.0653 0.0
C2750 C 0.78527 0.73393 0.10837 0.0
C2751 C 0.78196 0.72214 0.12053 0.0
C2752 C 0.78917 0.75257 0.11516 0.0
C2753 C 0.79354 0.76581 0.1033 0.0
C2754 C 0.80755 0.76494 0.09207 0.0
C2755 C 0.81164 0.77754 0.081 0.0
C2756 C 0.80188 0.79114 0.08111 0.0
C2757 C 0.78803 0.79218 0.09233 0.0
C2758 C 0.78389 0.77962 0.10343 0.0
C2759 C 0.8002 0.75463 0.19614 0.0
C2760 C 0.7888 0.76593 0.2032 0.0
C2761 C 0.79986 0.7489 0.17751 0.0
C2762 C 0.78807 0.75425 0.16558 0.0
C2763 C 0.77717 0.76604 0.17254 0.0
C2764 C 0.7775 0.77181 0.19116 0.0
C2765 C 0.78658 0.74697 0.14593 0.0
C2766 C 0.78961 0.75883 0.13384 0.0
C2767 C 0.78251 0.72838 0.13913 0.0
C2768 C 0.77827 0.71514 0.15105 0.0
C2769 C 0.76428 0.71593 0.16232 0.0
C2770 C 0.76043 0.70345 0.17356 0.0
C2771 C 0.77041 0.69004 0.17357 0.0
C2772 C 0.78422 0.68905 0.1623 0.0
C2773 C 0.78814 0.70151 0.15104 0.0
H2774 H 0.7674 0.68038 0.18228 0.0
H2775 H 0.80508 0.80088 0.07253 0.0
H2776 H 0.1031 0.99772 0.71042 0.0
H2777 H 0.0876 1.00098 0.68213 0.0
H2778 H 0.13818 0.02139 0.66361 0.0
H2779 H 0.15366 0.01803 0.69179 0.0
H2780 H 0.11583 0.04063 0.6537 0.0
H2781 H 0.11101 0.97741 0.64644 0.0
H2782 H 0.10305 0.94721 0.65344 0.0
H2783 H 0.04771 0.95131 0.65228 0.0
H2784 H 0.05538 0.98166 0.64552 0.0
H2785 H 0.08626 0.02548 0.55738 0.0
H2786 H 0.09974 0.02246 0.58671 0.0
H2787 H 0.04872 0.02075 0.60839 0.0
H2788 H 0.0353 0.02465 0.57919 0.0
H2789 H 0.07001 0.9922 0.61685 0.0
H2790 H 0.07462 0.05505 0.62382 0.0
H2791 H 0.0823 0.08489 0.61594 0.0
H2792 H 0.13773 0.08116 0.6173 0.0
H2793 H 0.13033 0.05112 0.62489 0.0
C2794 C 0.11104 0.00282 0.70035 0.0
C2795 C 0.1299 0.00746 0.70382 0.0
C2796 C 0.10205 0.00465 0.68388 0.0
C2797 C 0.11141 0.01136 0.67002 0.0
C2798 C 0.13024 0.01617 0.67363 0.0
C2799 C 0.13923 0.01415 0.68997 0.0
C2800 C 0.1018 0.01358 0.6521 0.0
C2801 C 0.10599 0.02983 0.64568 0.0
C2802 C 0.08841 0.99995 0.64121 0.0
C2803 C 0.08381 0.98191 0.64572 0.0
C2804 C 0.09717 0.97196 0.64789 0.0
C2805 C 0.0927 0.95479 0.65176 0.0
C2806 C 0.07489 0.94737 0.65336 0.0
C2807 C 0.06151 0.9571 0.65109 0.0
C2808 C 0.06591 0.97429 0.64724 0.0
C2809 C 0.0778 0.02458 0.56834 0.0
C2810 C 0.05951 0.02545 0.5655 0.0
C2811 C 0.08563 0.02281 0.58532 0.0
C2812 C 0.07548 0.02124 0.60026 0.0
C2813 C 0.05712 0.02185 0.59741 0.0
C2814 C 0.04939 0.02419 0.58054 0.0
C2815 C 0.08413 0.01915 0.61859 0.0
C2816 C 0.07981 0.00295 0.62498 0.0
C2817 C 0.09736 0.0328 0.62948 0.0
C2818 C 0.10188 0.05072 0.62466 0.0
C2819 C 0.08842 0.06048 0.6222 0.0
C2820 C 0.09272 0.07746 0.61784 0.0
C2821 C 0.11048 0.08489 0.61605 0.0
C2822 C 0.12397 0.07536 0.61864 0.0
C2823 C 0.11973 0.05835 0.62297 0.0
H2824 H 0.1138 0.09805 0.61272 0.0
H2825 H 0.07146 0.93405 0.65631 0.0
H2826 H 0.76653 0.38055 0.45512 0.0
H2827 H 0.77024 0.35808 0.42924 0.0
H2828 H 0.77673 0.39836 0.39602 0.0
H2829 H 0.77256 0.42071 0.42163 0.0
H2830 H 0.75682 0.36991 0.37744 0.0
H2831 H 0.81268 0.38119 0.41393 0.0
H2832 H 0.83314 0.38318 0.44095 0.0
H2833 H 0.8145 0.32742 0.44075 0.0
H2834 H 0.79374 0.32515 0.41387 0.0
H2835 H 0.80261 0.3299 0.30701 0.0
H2836 H 0.79752 0.34859 0.33504 0.0
H2837 H 0.77461 0.30162 0.35526 0.0
H2838 H 0.77917 0.28269 0.32687 0.0
H2839 H 0.80121 0.33095 0.38072 0.0
H2840 H 0.74645 0.32012 0.34241 0.0
H2841 H 0.72826 0.31874 0.31403 0.0
H2842 H 0.74694 0.37493 0.31682 0.0
H2843 H 0.76549 0.3766 0.3451 0.0
C2844 C 0.76867 0.38462 0.44228 0.0
C2845 C 0.76923 0.40251 0.44054 0.0
C2846 C 0.77093 0.37175 0.42748 0.0
C2847 C 0.77403 0.37646 0.4106 0.0
C2848 C 0.77436 0.39427 0.40881 0.0
C2849 C 0.77198 0.4071 0.42354 0.0
C2850 C 0.7768 0.36296 0.39472 0.0
C2851 C 0.76666 0.36155 0.37821 0.0
C2852 C 0.78934 0.35162 0.3956 0.0
C2853 C 0.80147 0.35307 0.41204 0.0
C2854 C 0.81279 0.3694 0.41978 0.0
C2855 C 0.82448 0.37057 0.43504 0.0
C2856 C 0.82507 0.35546 0.4426 0.0
C2857 C 0.81398 0.33913 0.43491 0.0
C2858 C 0.80225 0.3379 0.41967 0.0
C2859 C 0.79682 0.32344 0.31752 0.0
C2860 C 0.79143 0.30473 0.31469 0.0
C2861 C 0.79378 0.3342 0.3335 0.0
C2862 C 0.78559 0.32653 0.3472 0.0
C2863 C 0.78094 0.30782 0.34485 0.0
C2864 C 0.78361 0.29703 0.32864 0.0
C2865 C 0.78142 0.3382 0.36364 0.0
C2866 C 0.79128 0.33926 0.38014 0.0
C2867 C 0.76878 0.34935 0.36272 0.0
C2868 C 0.75755 0.34843 0.34577 0.0
C2869 C 0.74683 0.33215 0.33688 0.0
C2870 C 0.73642 0.33133 0.32083 0.0
C2871 C 0.7365 0.34673 0.31358 0.0
C2872 C 0.74693 0.36301 0.32243 0.0
C2873 C 0.75739 0.3639 0.33848 0.0
H2874 H 0.72847 0.34606 0.30114 0.0
H2875 H 0.83416 0.35638 0.45439 0.0
H2876 H 0.4547 0.02727 0.23999 0.0
H2877 H 0.46488 0.01258 0.21255 0.0
H2878 H 0.41221 0.00511 0.18514 0.0
H2879 H 0.40148 0.01914 0.21304 0.0
H2880 H 0.4329 0.97589 0.17443 0.0
H2881 H 0.43617 0.03954 0.18014 0.0
H2882 H 0.44262 0.0701 0.19814 0.0
H2883 H 0.4977 0.06666 0.20773 0.0
H2884 H 0.49149 0.03594 0.19001 0.0
H2885 H 0.47534 0.0076 0.09444 0.0
H2886 H 0.45457 1.00067 0.11684 0.0
H2887 H 0.49551 0.98275 0.1464 0.0
H2888 H 0.51612 0.98904 0.12361 0.0
H2889 H 0.47783 0.02185 0.15457 0.0
H2890 H 0.47284 0.95657 0.14964 0.0
H2891 H 0.46514 0.92599 0.13173 0.0
H2892 H 0.41189 0.93338 0.11873 0.0
H2893 H 0.41941 0.96413 0.1364 0.0
C2894 C 0.44516 0.02234 0.22824 0.0
C2895 C 0.42736 0.02459 0.22854 0.0
C2896 C 0.45094 0.01371 0.21269 0.0
C2897 C 0.43922 0.00781 0.19701 0.0
C2898 C 0.4213 0.00945 0.19729 0.0
C2899 C 0.41535 0.0178 0.21305 0.0
C2900 C 0.44678 0.00339 0.17985 0.0
C2901 C 0.44259 0.9859 0.1699 0.0
C2902 C 0.4593 0.01658 0.17412 0.0
C2903 C 0.46335 0.03545 0.1838 0.0
C2904 C 0.44965 0.04531 0.18609 0.0
C2905 C 0.45326 0.06264 0.19627 0.0
C2906 C 0.47056 0.07031 0.20409 0.0
C2907 C 0.48431 0.06071 0.20164 0.0
C2908 C 0.48077 0.04335 0.19151 0.0
C2909 C 0.47954 1.00137 0.10528 0.0
C2910 C 0.4972 0.99896 0.10757 0.0
C2911 C 0.46767 0.99723 0.11788 0.0
C2912 C 0.47351 0.99093 0.13298 0.0
C2913 C 0.49068 0.98706 0.13447 0.0
C2914 C 0.50247 0.99086 0.12163 0.0
C2915 C 0.4643 0.99425 0.14925 0.0
C2916 C 0.46812 0.01177 0.15901 0.0
C2917 C 0.45134 0.98116 0.1545 0.0
C2918 C 0.44675 0.96268 0.14411 0.0
C2919 C 0.45957 0.95174 0.14278 0.0
C2920 C 0.45522 0.93436 0.13274 0.0
C2921 C 0.43806 0.92776 0.12404 0.0
C2922 C 0.42519 0.93851 0.12545 0.0
C2923 C 0.42948 0.95591 0.13549 0.0
H2924 H 0.43472 0.91431 0.11625 0.0
H2925 H 0.47331 0.08371 0.21202 0.0
H2926 H 0.79735 0.69344 0.9308 0.0
H2927 H 0.79983 0.70576 0.90313 0.0
H2928 H 0.7659 0.74241 0.92232 0.0
H2929 H 0.7636 0.73034 0.95023 0.0
H2930 H 0.75519 0.72424 0.88718 0.0
H2931 H 0.80751 0.75897 0.92094 0.0
H2932 H 0.83597 0.76565 0.94012 0.0
H2933 H 0.8599 0.73544 0.89834 0.0
H2934 H 0.83146 0.72832 0.87898 0.0
H2935 H 0.76954 0.77721 0.81954 0.0
H2936 H 0.77045 0.76834 0.84898 0.0
H2937 H 0.79863 0.7268 0.82852 0.0
H2938 H 0.79762 0.73551 0.79875 0.0
H2939 H 0.81266 0.74886 0.86481 0.0
H2940 H 0.75735 0.71297 0.83222 0.0
H2941 H 0.72908 0.71004 0.81346 0.0
H2942 H 0.71155 0.74715 0.8544 0.0
H2943 H 0.73958 0.75017 0.87344 0.0
C2944 C 0.79055 0.70424 0.92922 0.0
C2945 C 0.78027 0.71091 0.94272 0.0
C2946 C 0.79202 0.7113 0.91341 0.0
C2947 C 0.78307 0.72503 0.91064 0.0
C2948 C 0.77291 0.73183 0.92416 0.0
C2949 C 0.77168 0.72497 0.94013 0.0
C2950 C 0.78377 0.73169 0.8933 0.0
C2951 C 0.76776 0.72979 0.88243 0.0
C2952 C 0.80015 0.73887 0.88696 0.0
C2953 C 0.81726 0.74291 0.89859 0.0
C2954 C 0.81877 0.75356 0.91591 0.0
C2955 C 0.83492 0.75747 0.9268 0.0
C2956 C 0.84972 0.75092 0.92048 0.0
C2957 C 0.84841 0.74047 0.90323 0.0
C2958 C 0.83227 0.7365 0.89229 0.0
C2959 C 0.77598 0.7662 0.82124 0.0
C2960 C 0.78343 0.757 0.80673 0.0
C2961 C 0.7765 0.76116 0.83812 0.0
C2962 C 0.7846 0.74691 0.84095 0.0
C2963 C 0.79236 0.73788 0.82662 0.0
C2964 C 0.79165 0.74277 0.8096 0.0
C2965 C 0.78415 0.74104 0.85867 0.0
C2966 C 0.80016 0.74317 0.8696 0.0
C2967 C 0.76778 0.73434 0.86523 0.0
C2968 C 0.75054 0.73182 0.85421 0.0
C2969 C 0.7474 0.72044 0.83723 0.0
C2970 C 0.7314 0.71874 0.82656 0.0
C2971 C 0.71845 0.72834 0.83276 0.0
C2972 C 0.72146 0.73959 0.84968 0.0
C2973 C 0.73737 0.74125 0.86044 0.0
H2974 H 0.70611 0.72711 0.82446 0.0
H2975 H 0.86222 0.75398 0.92892 0.0
H2976 H 0.85026 0.07563 0.03488 0.0
H2977 H 0.87902 0.06746 0.0293 0.0
H2978 H 0.88968 0.10712 0.99574 0.0
H2979 H 0.86044 0.11516 0.001 0.0
H2980 H 0.90158 0.078 0.98093 0.0
H2981 H 0.91008 0.11415 0.03953 0.0
H2982 H 0.90341 0.12435 0.07074 0.0
H2983 H 0.90911 0.07388 0.08396 0.0
H2984 H 0.91557 0.06329 0.05275 0.0
H2985 H 0.99828 0.07444 0.9933 0.0
H2986 H 0.97022 0.08595 0.99451 0.0
H2987 H 0.94374 0.03782 0.01045 0.0
H2988 H 0.97123 0.02602 0.00865 0.0
H2989 H 0.94172 0.07453 0.03357 0.0
H2990 H 0.93124 0.03833 0.9735 0.0
H2991 H 0.93856 0.0292 0.94233 0.0
H2992 H 0.93781 0.08184 0.93218 0.0
H2993 H 0.93086 0.09142 0.96349 0.0
C2994 C 0.85863 0.08269 0.02628 0.0
C2995 C 0.85291 0.09623 0.01855 0.0
C2996 C 0.87525 0.07802 0.02315 0.0
C2997 C 0.88692 0.08686 0.01236 0.0
C2998 C 0.8811 0.10009 0.00421 0.0
C2999 C 0.86434 0.10474 0.00728 0.0
C3000 C 0.90515 0.0823 0.00997 0.0
C3001 C 0.91044 0.07757 0.9925 0.0
C3002 C 0.91692 0.08155 0.02493 0.0
C3003 C 0.91317 0.08788 0.04376 0.0
C3004 C 0.9098 0.10519 0.04906 0.0
C3005 C 0.90607 0.11104 0.06676 0.0
C3006 C 0.9058 0.09976 0.07932 0.0
C3007 C 0.90931 0.08261 0.07422 0.0
C3008 C 0.91302 0.07667 0.05653 0.0
C3009 C 0.98641 0.0662 0.99678 0.0
C3010 C 0.98709 0.04918 0.00069 0.0
C3011 C 0.97036 0.07281 0.9975 0.0
C3012 C 0.95479 0.06276 0.00259 0.0
C3013 C 0.95549 0.04583 0.00645 0.0
C3014 C 0.97128 0.03905 0.0053 0.0
C3015 C 0.93789 0.06996 0.00462 0.0
C3016 C 0.9329 0.07518 0.02205 0.0
C3017 C 0.92655 0.07134 0.98967 0.0
C3018 C 0.93083 0.06567 0.97092 0.0
C3019 C 0.93291 0.04804 0.96472 0.0
C3020 C 0.93693 0.04277 0.94702 0.0
C3021 C 0.93876 0.05497 0.93532 0.0
C3022 C 0.93649 0.07245 0.9413 0.0
C3023 C 0.93251 0.07781 0.95902 0.0
H3024 H 0.94185 0.05086 0.92161 0.0
H3025 H 0.90291 0.10432 0.09301 0.0
H3026 H 0.35805 0.39413 0.02933 0.0
H3027 H 0.38945 0.40869 0.0288 0.0
H3028 H 0.37231 0.45608 0.01782 0.0
H3029 H 0.34132 0.44168 0.01798 0.0
H3030 H 0.39577 0.4478 0.99561 0.0
H3031 H 0.39163 0.4529 0.05999 0.0
H3032 H 0.38617 0.44141 0.08804 0.0
H3033 H 0.4272 0.41057 0.07876 0.0
H3034 H 0.43273 0.42171 0.05051 0.0
H3035 H 0.47189 0.51663 0.01494 0.0
H3036 H 0.44313 0.49714 0.0159 0.0
H3037 H 0.47001 0.45435 0.0236 0.0
H3038 H 0.49896 0.47387 0.02281 0.0
H3039 H 0.44327 0.45647 0.04561 0.0
H3040 H 0.44955 0.45432 0.98281 0.0
H3041 H 0.45514 0.46636 0.95509 0.0
H3042 H 0.40996 0.49194 0.96134 0.0
H3043 H 0.40427 0.4803 0.98927 0.0
C3044 C 0.36105 0.40771 0.02701 0.0
C3045 C 0.34715 0.41668 0.0236 0.0
C3046 C 0.37899 0.41603 0.0267 0.0
C3047 C 0.38329 0.43351 0.02321 0.0
C3048 C 0.3694 0.44255 0.02033 0.0
C3049 C 0.35162 0.43427 0.0205 0.0
C3050 C 0.40209 0.44254 0.02206 0.0
C3051 C 0.40611 0.4498 0.00663 0.0
C3052 C 0.41581 0.44469 0.03612 0.0
C3053 C 0.41243 0.43795 0.05304 0.0
C3054 C 0.39937 0.44354 0.06385 0.0
C3055 C 0.39629 0.43712 0.0798 0.0
C3056 C 0.40629 0.42522 0.08515 0.0
C3057 C 0.41943 0.41975 0.07458 0.0
C3058 C 0.42255 0.42612 0.05861 0.0
C3059 C 0.47175 0.50312 0.01694 0.0
C3060 C 0.48778 0.49683 0.01876 0.0
C3061 C 0.45525 0.49193 0.01737 0.0
C3062 C 0.45437 0.47418 0.01955 0.0
C3063 C 0.47035 0.46797 0.02183 0.0
C3064 C 0.48689 0.47916 0.02136 0.0
C3065 C 0.43672 0.4622 0.01944 0.0
C3066 C 0.43297 0.45432 0.03454 0.0
C3067 C 0.4232 0.45952 0.00509 0.0
C3068 C 0.42658 0.46654 0.98825 0.0
C3069 C 0.44089 0.46263 0.97837 0.0
C3070 C 0.44407 0.46937 0.9626 0.0
C3071 C 0.43294 0.47994 0.95648 0.0
C3072 C 0.41859 0.48376 0.9661 0.0
C3073 C 0.41537 0.47709 0.9819 0.0
H3074 H 0.43541 0.48513 0.94426 0.0
H3075 H 0.40389 0.42027 0.0975 0.0
H3076 H 0.36419 0.59287 0.73604 0.0
H3077 H 0.35061 0.61944 0.73723 0.0
H3078 H 0.38583 0.64588 0.7843 0.0
H3079 H 0.39979 0.61945 0.7828 0.0
H3080 H 0.35388 0.65575 0.78967 0.0
H3081 H 0.39012 0.65835 0.74164 0.0
H3082 H 0.40295 0.64874 0.71323 0.0
H3083 H 0.35147 0.64107 0.68393 0.0
H3084 H 0.33825 0.65039 0.71225 0.0
H3085 H 0.3382 0.74671 0.77952 0.0
H3086 H 0.35253 0.72057 0.77957 0.0
H3087 H 0.30679 0.68676 0.74748 0.0
H3088 H 0.29205 0.7126 0.7483 0.0
H3089 H 0.3449 0.68147 0.73506 0.0
H3090 H 0.30958 0.68023 0.78565 0.0
H3091 H 0.2994 0.69208 0.81487 0.0
H3092 H 0.35269 0.69975 0.8402 0.0
H3093 H 0.36327 0.68825 0.81102 0.0
C3094 C 0.36922 0.60426 0.74672 0.0
C3095 C 0.38346 0.60332 0.75927 0.0
C3096 C 0.36132 0.61983 0.74738 0.0
C3097 C 0.36681 0.63555 0.76085 0.0
C3098 C 0.38084 0.63449 0.77361 0.0
C3099 C 0.38903 0.61905 0.7727 0.0
C3100 C 0.35815 0.65271 0.76148 0.0
C3101 C 0.35219 0.66128 0.77761 0.0
C3102 C 0.35543 0.66081 0.74613 0.0
C3103 C 0.36314 0.65482 0.72911 0.0
C3104 C 0.38148 0.6544 0.72917 0.0
C3105 C 0.38884 0.64906 0.71308 0.0
C3106 C 0.37802 0.64423 0.69679 0.0
C3107 C 0.35982 0.64477 0.69657 0.0
C3108 C 0.35238 0.65008 0.71264 0.0
C3109 C 0.33099 0.73374 0.77254 0.0
C3110 C 0.31353 0.73236 0.76406 0.0
C3111 C 0.33936 0.7185 0.77254 0.0
C3112 C 0.33117 0.70095 0.76346 0.0
C3113 C 0.31389 0.69967 0.75469 0.0
C3114 C 0.30527 0.71475 0.75525 0.0
C3115 C 0.34035 0.68422 0.76311 0.0
C3116 C 0.3465 0.67582 0.74705 0.0
C3117 C 0.34351 0.67648 0.77859 0.0
C3118 C 0.33727 0.68363 0.79608 0.0
C3119 C 0.31919 0.68469 0.79739 0.0
C3120 C 0.31333 0.69128 0.81396 0.0
C3121 C 0.3254 0.69674 0.82937 0.0
C3122 C 0.34336 0.69558 0.82824 0.0
C3123 C 0.3493 0.68902 0.81168 0.0
H3124 H 0.32083 0.7018 0.8422 0.0
H3125 H 0.38375 0.64014 0.68434 0.0
H3126 H 0.24432 0.5707 0.50936 0.0
H3127 H 0.21179 0.55995 0.50485 0.0
H3128 H 0.20392 0.61437 0.51567 0.0
H3129 H 0.23615 0.62504 0.52068 0.0
H3130 H 0.18178 0.59688 0.53256 0.0
H3131 H 0.19648 0.58745 0.47227 0.0
H3132 H 0.2115 0.57689 0.44561 0.0
H3133 H 0.19158 0.52248 0.45013 0.0
H3134 H 0.1767 0.53272 0.47703 0.0
H3135 H 0.08802 0.56964 0.4918 0.0
H3136 H 0.1204 0.58107 0.49233 0.0
H3137 H 0.13122 0.53768 0.51713 0.0
H3138 H 0.09902 0.52667 0.51736 0.0
H3139 H 0.15086 0.55085 0.48088 0.0
H3140 H 0.13808 0.56493 0.54513 0.0
H3141 H 0.12145 0.57898 0.5688 0.0
H3142 H 0.1369 0.62954 0.55246 0.0
H3143 H 0.15327 0.61566 0.5284 0.0
C3144 C 0.23563 0.58034 0.51074 0.0
C3145 C 0.2429 0.59873 0.51551 0.0
C3146 C 0.217 0.5742 0.50803 0.0
C3147 C 0.20522 0.58631 0.50978 0.0
C3148 C 0.21256 0.60467 0.51432 0.0
C3149 C 0.23108 0.61077 0.51718 0.0
C3150 C 0.18532 0.57999 0.50764 0.0
C3151 C 0.17513 0.58692 0.52112 0.0
C3152 C 0.17631 0.56711 0.49269 0.0
C3153 C 0.18566 0.56086 0.47682 0.0
C3154 C 0.19549 0.57323 0.46773 0.0
C3155 C 0.20394 0.5673 0.45254 0.0
C3156 C 0.20253 0.54902 0.4462 0.0
C3157 C 0.19269 0.53663 0.45507 0.0
C3158 C 0.18425 0.54249 0.4703 0.0
C3159 C 0.09734 0.5625 0.49724 0.0
C3160 C 0.09102 0.5473 0.5046 0.0
C3161 C 0.11579 0.56905 0.49758 0.0
C3162 C 0.12819 0.56026 0.50486 0.0
C3163 C 0.12188 0.54471 0.51155 0.0
C3164 C 0.1035 0.53846 0.51169 0.0
C3165 C 0.14776 0.56744 0.50596 0.0
C3166 C 0.15774 0.56075 0.49225 0.0
C3167 C 0.15653 0.58093 0.52038 0.0
C3168 C 0.1466 0.58918 0.53477 0.0
C3169 C 0.13768 0.57897 0.54639 0.0
C3170 C 0.12836 0.58692 0.55992 0.0
C3171 C 0.12804 0.60513 0.56207 0.0
C3172 C 0.13708 0.61543 0.55073 0.0
C3173 C 0.14637 0.60752 0.53713 0.0
H3174 H 0.12085 0.61127 0.57258 0.0
H3175 H 0.20902 0.54446 0.43439 0.0
H3176 H 0.66502 0.97123 0.74597 0.0
H3177 H 0.67841 0.94749 0.75492 0.0
H3178 H 0.72961 0.98353 0.76686 0.0
H3179 H 0.71637 0.00734 0.75754 0.0
H3180 H 0.73159 0.95115 0.74705 0.0
H3181 H 0.70467 0.97334 0.80076 0.0
H3182 H 0.67935 0.98184 0.81674 0.0
H3183 H 0.64942 0.92821 0.80069 0.0
H3184 H 0.67449 0.91944 0.78443 0.0
H3185 H 0.77941 0.90387 0.7947 0.0
H3186 H 0.76273 0.92694 0.78999 0.0
H3187 H 0.71443 0.88695 0.77512 0.0
H3188 H 0.73101 0.86372 0.78012 0.0
H3189 H 0.70945 0.92005 0.79601 0.0
H3190 H 0.73481 0.89746 0.7425 0.0
H3191 H 0.75832 0.88825 0.72407 0.0
H3192 H 0.78934 0.94162 0.73745 0.0
H3193 H 0.7661 0.95109 0.75619 0.0
C3194 C 0.67913 0.97412 0.75054 0.0
C3195 C 0.68969 0.9911 0.75115 0.0
C3196 C 0.6867 0.96058 0.7557 0.0
C3197 C 0.70487 0.96393 0.76178 0.0
C3198 C 0.71551 0.98081 0.76225 0.0
C3199 C 0.70796 0.99435 0.75695 0.0
C3200 C 0.71288 0.94966 0.76728 0.0
C3201 C 0.72697 0.94455 0.75795 0.0
C3202 C 0.70625 0.94066 0.781 0.0
C3203 C 0.69142 0.94576 0.79131 0.0
C3204 C 0.69267 0.96337 0.80061 0.0
C3205 C 0.67836 0.96824 0.80971 0.0
C3206 C 0.66278 0.95558 0.80971 0.0
C3207 C 0.6615 0.938 0.80068 0.0
C3208 C 0.67577 0.93306 0.79155 0.0
C3209 C 0.76515 0.90006 0.79094 0.0
C3210 C 0.7565 0.88206 0.78758 0.0
C3211 C 0.75569 0.9132 0.78817 0.0
C3212 C 0.7375 0.90849 0.78198 0.0
C3213 C 0.72851 0.89072 0.77984 0.0
C3214 C 0.73799 0.87752 0.78256 0.0
C3215 C 0.72848 0.92194 0.7761 0.0
C3216 C 0.71412 0.92677 0.78521 0.0
C3217 C 0.7347 0.93059 0.76201 0.0
C3218 C 0.74882 0.92492 0.75092 0.0
C3219 C 0.74673 0.90718 0.74168 0.0
C3220 C 0.75999 0.90193 0.73114 0.0
C3221 C 0.77534 0.91433 0.72963 0.0
C3222 C 0.77745 0.93202 0.73865 0.0
C3223 C 0.76424 0.93734 0.74923 0.0
H3224 H 0.78558 0.91025 0.72144 0.0
H3225 H 0.65169 0.95939 0.81672 0.0
H3226 H 0.7627 0.92464 0.53079 0.0
H3227 H 0.73827 0.93879 0.52265 0.0
H3228 H 0.7019 0.88783 0.51301 0.0
H3229 H 0.7266 0.87336 0.52069 0.0
H3230 H 0.69584 0.90751 0.4872 0.0
H3231 H 0.70196 0.91703 0.55177 0.0
H3232 H 0.71862 0.92574 0.58188 0.0
H3233 H 0.73543 0.97917 0.5727 0.0
H3234 H 0.71905 0.97071 0.54243 0.0
H3235 H 0.61794 0.94932 0.49837 0.0
H3236 H 0.64079 0.93118 0.5009 0.0
H3237 H 0.68214 0.9774 0.50166 0.0
H3238 H 0.65942 0.99554 0.49883 0.0
H3239 H 0.68425 0.95846 0.53156 0.0
H3240 H 0.67764 0.94877 0.46692 0.0
H3241 H 0.66173 0.93968 0.43649 0.0
H3242 H 0.64548 0.8862 0.4457 0.0
H3243 H 0.66105 0.89504 0.47634 0.0
C3244 C 0.74951 0.9164 0.52703 0.0
C3245 C 0.74655 0.89789 0.52661 0.0
C3246 C 0.73555 0.92452 0.52234 0.0
C3247 C 0.7182 0.91442 0.51747 0.0
C3248 C 0.71518 0.89588 0.51676 0.0
C3249 C 0.72926 0.88767 0.52131 0.0
C3250 C 0.70325 0.9235 0.51379 0.0
C3251 C 0.69306 0.91844 0.497 0.0
C3252 C 0.69984 0.93796 0.52646 0.0
C3253 C 0.70936 0.94321 0.54481 0.0
C3254 C 0.70927 0.93062 0.55615 0.0
C3255 C 0.71866 0.93551 0.57324 0.0
C3256 C 0.7281 0.95299 0.57919 0.0
C3257 C 0.72811 0.96564 0.56808 0.0
C3258 C 0.71875 0.96081 0.55096 0.0
C3259 C 0.63189 0.95557 0.49893 0.0
C3260 C 0.6369 0.97386 0.49845 0.0
C3261 C 0.6449 0.94517 0.50024 0.0
C3262 C 0.66311 0.95296 0.50137 0.0
C3263 C 0.66814 0.97115 0.50069 0.0
C3264 C 0.65516 0.98147 0.49907 0.0
C3265 C 0.67695 0.94263 0.50493 0.0
C3266 C 0.6869 0.94743 0.52179 0.0
C3267 C 0.67998 0.92792 0.49235 0.0
C3268 C 0.67029 0.92265 0.47406 0.0
C3269 C 0.67045 0.93513 0.46258 0.0
C3270 C 0.66155 0.93001 0.44526 0.0
C3271 C 0.65253 0.91239 0.43919 0.0
C3272 C 0.65242 0.89986 0.45043 0.0
C3273 C 0.66129 0.90492 0.46778 0.0
H3274 H 0.64568 0.90844 0.42576 0.0
H3275 H 0.73538 0.95675 0.59242 0.0
H3276 H 0.36098 0.48706 0.74055 0.0
H3277 H 0.34502 0.45639 0.74058 0.0
H3278 H 0.39062 0.44675 0.77078 0.0
H3279 H 0.40666 0.47666 0.76982 0.0
H3280 H 0.38058 0.41822 0.75124 0.0
H3281 H 0.34289 0.4521 0.7862 0.0
H3282 H 0.32343 0.47423 0.7919 0.0
H3283 H 0.28793 0.44632 0.74559 0.0
H3284 H 0.30727 0.42411 0.73952 0.0
H3285 H 0.33909 0.33338 0.77162 0.0
H3286 H 0.35329 0.36446 0.77208 0.0
H3287 H 0.3062 0.37217 0.74275 0.0
H3288 H 0.29154 0.34152 0.74371 0.0
H3289 H 0.31664 0.40161 0.76097 0.0
H3290 H 0.35485 0.36757 0.72632 0.0
H3291 H 0.37446 0.34549 0.72131 0.0
H3292 H 0.40936 0.37407 0.7678 0.0
H3293 H 0.38988 0.39621 0.77317 0.0
C3294 C 0.36755 0.47853 0.74744 0.0
C3295 C 0.38534 0.48492 0.75529 0.0
C3296 C 0.35827 0.46068 0.74754 0.0
C3297 C 0.36613 0.44844 0.75591 0.0
C3298 C 0.38377 0.45515 0.764 0.0
C3299 C 0.39307 0.47268 0.76357 0.0
C3300 C 0.35672 0.42877 0.75602 0.0
C3301 C 0.36661 0.41488 0.75364 0.0
C3302 C 0.33827 0.42332 0.75862 0.0
C3303 C 0.32661 0.43657 0.76231 0.0
C3304 C 0.33097 0.45074 0.77719 0.0
C3305 C 0.31996 0.46329 0.78049 0.0
C3306 C 0.30448 0.46171 0.76909 0.0
C3307 C 0.29994 0.44754 0.75439 0.0
C3308 C 0.31091 0.43497 0.75103 0.0
C3309 C 0.33172 0.34159 0.76514 0.0
C3310 C 0.31399 0.33436 0.75748 0.0
C3311 C 0.34005 0.35968 0.76519 0.0
C3312 C 0.33145 0.37142 0.75689 0.0
C3313 C 0.31367 0.36408 0.7493 0.0
C3314 C 0.30516 0.34619 0.74974 0.0
C3315 C 0.34055 0.39108 0.7563 0.0
C3316 C 0.3306 0.40496 0.75856 0.0
C3317 C 0.359 0.39656 0.75365 0.0
C3318 C 0.37084 0.38344 0.75021 0.0
C3319 C 0.36669 0.36911 0.73548 0.0
C3320 C 0.37778 0.35659 0.73259 0.0
C3321 C 0.39312 0.35836 0.74425 0.0
C3322 C 0.39747 0.3727 0.75878 0.0
C3323 C 0.38643 0.38525 0.76175 0.0
H3324 H 0.40166 0.34863 0.742 0.0
H3325 H 0.29599 0.47145 0.77166 0.0
H3326 H 0.15439 0.60205 0.23853 0.0
H3327 H 0.17264 0.63217 0.24519 0.0
H3328 H 0.21876 0.61087 0.25943 0.0
H3329 H 0.20065 0.5809 0.25339 0.0
H3330 H 0.2199 0.64299 0.27972 0.0
H3331 H 0.20978 0.61548 0.217 0.0
H3332 H 0.1917 0.60062 0.18855 0.0
H3333 H 0.16753 0.64647 0.18869 0.0
H3334 H 0.18518 0.66144 0.21737 0.0
H3335 H 0.28202 0.71805 0.26085 0.0
H3336 H 0.2668 0.68693 0.25966 0.0
H3337 H 0.21619 0.70133 0.24669 0.0
H3338 H 0.23145 0.73208 0.24746 0.0
H3339 H 0.22035 0.6712 0.22558 0.0
H3340 H 0.23166 0.69846 0.28989 0.0
H3341 H 0.25198 0.71274 0.31711 0.0
H3342 H 0.27652 0.66678 0.31263 0.0
H3343 H 0.25659 0.65236 0.28519 0.0
C3344 C 0.16834 0.60382 0.24334 0.0
C3345 C 0.17623 0.58912 0.24493 0.0
C3346 C 0.1787 0.62099 0.24721 0.0
C3347 C 0.19706 0.62352 0.25236 0.0
C3348 C 0.20462 0.60907 0.25535 0.0
C3349 C 0.19427 0.59195 0.25168 0.0
C3350 C 0.20881 0.64071 0.25235 0.0
C3351 C 0.22009 0.64919 0.26791 0.0
C3352 C 0.20921 0.64846 0.23674 0.0
C3353 C 0.19865 0.63949 0.21944 0.0
C3354 C 0.20049 0.62232 0.21105 0.0
C3355 C 0.19033 0.61389 0.19488 0.0
C3356 C 0.17844 0.62257 0.18685 0.0
C3357 C 0.17671 0.63973 0.19495 0.0
C3358 C 0.18678 0.64819 0.21117 0.0
C3359 C 0.26769 0.71428 0.25748 0.0
C3360 C 0.25766 0.72695 0.25406 0.0
C3361 C 0.25906 0.69673 0.25697 0.0
C3362 C 0.24043 0.69206 0.25329 0.0
C3363 C 0.23059 0.7048 0.24956 0.0
C3364 C 0.2392 0.72222 0.24996 0.0
C3365 C 0.23079 0.67393 0.2532 0.0
C3366 C 0.22011 0.66507 0.23745 0.0
C3367 C 0.23115 0.66584 0.26855 0.0
C3368 C 0.24275 0.67441 0.28536 0.0
C3369 C 0.24145 0.69144 0.29464 0.0
C3370 C 0.2529 0.69956 0.31012 0.0
C3371 C 0.26556 0.69069 0.31655 0.0
C3372 C 0.26673 0.67365 0.3076 0.0
C3373 C 0.25537 0.6655 0.29209 0.0
H3374 H 0.27444 0.69699 0.32846 0.0
H3375 H 0.17059 0.61603 0.17432 0.0
H3376 H 0.50166 0.71957 0.39705 0.0
H3377 H 0.50533 0.69789 0.41592 0.0
H3378 H 0.49411 0.73375 0.46247 0.0
H3379 H 0.49125 0.75599 0.44367 0.0
H3380 H 0.52353 0.72196 0.46935 0.0
H3381 H 0.46413 0.69383 0.44349 0.0
H3382 H 0.44091 0.68294 0.41797 0.0
H3383 H 0.47174 0.64556 0.39371 0.0
H3384 H 0.49524 0.65637 0.41897 0.0
H3385 H 0.5331 0.65332 0.5198 0.0
H3386 H 0.52001 0.67524 0.50645 0.0
H3387 H 0.53091 0.65053 0.45358 0.0
H3388 H 0.54413 0.62882 0.46677 0.0
H3389 H 0.49701 0.65722 0.45388 0.0
H3390 H 0.55749 0.68774 0.4747 0.0
H3391 H 0.58325 0.69937 0.49748 0.0
H3392 H 0.55244 0.73242 0.52883 0.0
H3393 H 0.52639 0.72077 0.50633 0.0
C3394 C 0.49951 0.72268 0.4112 0.0
C3395 C 0.49614 0.73942 0.41891 0.0
C3396 C 0.50157 0.71025 0.42199 0.0
C3397 C 0.49973 0.71411 0.44056 0.0
C3398 C 0.49552 0.73051 0.44815 0.0
C3399 C 0.49379 0.74313 0.4374 0.0
C3400 C 0.50378 0.70158 0.45214 0.0
C3401 C 0.51736 0.70788 0.46631 0.0
C3402 C 0.49605 0.68316 0.44782 0.0
C3403 C 0.48144 0.67591 0.43315 0.0
C3404 C 0.46594 0.68325 0.43274 0.0
C3405 C 0.45274 0.67712 0.41829 0.0
C3406 C 0.45485 0.66357 0.40423 0.0
C3407 C 0.4701 0.65603 0.40464 0.0
C3408 C 0.48334 0.66212 0.41905 0.0
C3409 C 0.53288 0.65274 0.50537 0.0
C3410 C 0.53961 0.6394 0.4943 0.0
C3411 C 0.5253 0.66514 0.49777 0.0
C3412 C 0.52446 0.66438 0.47906 0.0
C3413 C 0.53127 0.65116 0.46803 0.0
C3414 C 0.53884 0.63883 0.47559 0.0
C3415 C 0.51693 0.6776 0.47079 0.0
C3416 C 0.50274 0.67139 0.45725 0.0
C3417 C 0.52425 0.69606 0.47551 0.0
C3418 C 0.53993 0.70321 0.48896 0.0
C3419 C 0.55616 0.69737 0.48653 0.0
C3420 C 0.57082 0.70399 0.49937 0.0
C3421 C 0.56946 0.71658 0.51463 0.0
C3422 C 0.55345 0.72263 0.51703 0.0
C3423 C 0.53874 0.71603 0.50423 0.0
H3424 H 0.58082 0.72168 0.52457 0.0
H3425 H 0.44466 0.6589 0.39302 0.0
H3426 H 0.60968 0.28108 0.6774 0.0
H3427 H 0.63745 0.27951 0.69371 0.0
H3428 H 0.66029 0.26577 0.64345 0.0
H3429 H 0.63213 0.26704 0.62675 0.0
H3430 H 0.66618 0.24482 0.67211 0.0
H3431 H 0.6739 0.30545 0.66251 0.0
H3432 H 0.66319 0.33342 0.66146 0.0
H3433 H 0.65596 0.33974 0.718 0.0
H3434 H 0.66641 0.31168 0.71933 0.0
H3435 H 0.74979 0.26327 0.72681 0.0
H3436 H 0.72647 0.26127 0.70265 0.0
H3437 H 0.6935 0.28336 0.74175 0.0
H3438 H 0.71724 0.28609 0.76586 0.0
H3439 H 0.69661 0.30059 0.71346 0.0
H3440 H 0.68434 0.23988 0.7232 0.0
H3441 H 0.69284 0.21123 0.72602 0.0
H3442 H 0.70657 0.20422 0.67127 0.0
H3443 H 0.69843 0.23302 0.66821 0.0
C3444 C 0.62057 0.27776 0.66975 0.0
C3445 C 0.61886 0.27437 0.65083 0.0
C3446 C 0.63637 0.27679 0.67909 0.0
C3447 C 0.65079 0.27267 0.66969 0.0
C3448 C 0.64916 0.26896 0.6508 0.0
C3449 C 0.63321 0.26984 0.64136 0.0
C3450 C 0.66769 0.27317 0.68005 0.0
C3451 C 0.67322 0.25704 0.68083 0.0
C3452 C 0.67643 0.28913 0.69158 0.0
C3453 C 0.67095 0.30646 0.69101 0.0
C3454 C 0.67002 0.31281 0.67471 0.0
C3455 C 0.66398 0.32866 0.67407 0.0
C3456 C 0.6589 0.33835 0.68966 0.0
C3457 C 0.65994 0.33224 0.70595 0.0
C3458 C 0.66597 0.31639 0.70666 0.0
C3459 C 0.73761 0.26783 0.73014 0.0
C3460 C 0.73534 0.2753 0.74793 0.0
C3461 C 0.72427 0.26647 0.71643 0.0
C3462 C 0.70841 0.27229 0.7205 0.0
C3463 C 0.70579 0.27897 0.73844 0.0
C3464 C 0.7192 0.28039 0.75214 0.0
C3465 C 0.69479 0.27214 0.706 0.0
C3466 C 0.68995 0.28841 0.70443 0.0
C3467 C 0.6866 0.25628 0.69394 0.0
C3468 C 0.69095 0.23869 0.69554 0.0
C3469 C 0.68926 0.23228 0.71179 0.0
C3470 C 0.69401 0.21602 0.71343 0.0
C3471 C 0.70028 0.20595 0.69885 0.0
C3472 C 0.70173 0.21207 0.68256 0.0
C3473 C 0.69704 0.22835 0.68086 0.0
H3474 H 0.70395 0.19338 0.70016 0.0
H3475 H 0.65416 0.35059 0.68912 0.0
H3476 H 0.04238 0.36288 0.90491 0.0
H3477 H 0.04511 0.39007 0.92809 0.0
H3478 H 0.99711 0.36645 0.94939 0.0
H3479 H 0.99444 0.33939 0.92671 0.0
H3480 H 0.00211 0.40517 0.94216 0.0
H3481 H 0.03377 0.36202 0.96834 0.0
H3482 H 0.05912 0.34628 0.96729 0.0
H3483 H 0.09593 0.39615 0.97142 0.0
H3484 H 0.07078 0.41212 0.9723 0.0
H3485 H 0.99134 0.46185 0.01462 0.0
H3486 H 0.99192 0.43096 0.00101 0.0
H3487 H 0.0497 0.44384 0.00571 0.0
H3488 H 0.04894 0.47366 0.02124 0.0
H3489 H 0.04303 0.41211 0.99741 0.0
H3490 H 0.0226 0.45622 0.97103 0.0
H3491 H 0.00481 0.47877 0.96615 0.0
H3492 H 0.95715 0.4381 0.95468 0.0
H3493 H 0.97465 0.4153 0.95966 0.0
C3494 C 0.03234 0.36367 0.91443 0.0
C3495 C 0.01828 0.3491 0.9142 0.0
C3496 C 0.03396 0.37907 0.92761 0.0
C3497 C 0.02136 0.37999 0.94035 0.0
C3498 C 0.00695 0.3658 0.93961 0.0
C3499 C 0.00548 0.3504 0.92672 0.0
C3500 C 0.02308 0.39539 0.955 0.0
C3501 C 0.01094 0.40674 0.95433 0.0
C3502 C 0.03543 0.39794 0.97024 0.0
C3503 C 0.05041 0.38822 0.97029 0.0
C3504 C 0.04726 0.3696 0.96895 0.0
C3505 C 0.0616 0.36064 0.9684 0.0
C3506 C 0.07912 0.3702 0.96926 0.0
C3507 C 0.08236 0.38875 0.97076 0.0
C3508 C 0.06808 0.39776 0.97131 0.0
C3509 C 0.00405 0.45757 0.01408 0.0
C3510 C 0.02012 0.47003 0.01812 0.0
C3511 C 0.00445 0.44005 0.00596 0.0
C3512 C 0.02082 0.43558 0.00108 0.0
C3513 C 0.03684 0.44704 0.00874 0.0
C3514 C 0.03641 0.46416 0.01765 0.0
C3515 C 0.02132 0.42165 0.98512 0.0
C3516 C 0.03403 0.41067 0.9854 0.0
C3517 C 0.01054 0.42046 0.96884 0.0
C3518 C 0.99989 0.4341 0.96594 0.0
C3519 C 0.0083 0.45211 0.96758 0.0
C3520 C 0.99828 0.46493 0.96479 0.0
C3521 C 0.97985 0.45989 0.96018 0.0
C3522 C 0.97142 0.44199 0.9583 0.0
C3523 C 0.98138 0.42911 0.9611 0.0
H3524 H 0.9721 0.46982 0.95801 0.0
H3525 H 0.09019 0.36324 0.96879 0.0
H3526 H 0.01094 0.77944 0.1451 0.0
H3527 H 0.97919 0.77692 0.14964 0.0
H3528 H 0.98021 0.73024 0.17315 0.0
H3529 H 0.01216 0.73288 0.16909 0.0
H3530 H 0.94636 0.7341 0.1447 0.0
H3531 H 0.9826 0.7555 0.20376 0.0
H3532 H 0.00918 0.77461 0.222 0.0
H3533 H 0.99431 0.82106 0.20653 0.0
H3534 H 0.96778 0.80212 0.18796 0.0
H3535 H 0.88102 0.72815 0.2083 0.0
H3536 H 0.90496 0.72717 0.18818 0.0
H3537 H 0.90869 0.78322 0.18733 0.0
H3538 H 0.88515 0.78442 0.20776 0.0
H3539 H 0.93926 0.77562 0.20058 0.0
H3540 H 0.89776 0.75407 0.14896 0.0
H3541 H 0.87157 0.73498 0.13018 0.0
H3542 H 0.89545 0.68902 0.13042 0.0
H3543 H 0.92168 0.70778 0.14946 0.0
C3544 C 0.00436 0.76854 0.15108 0.0
C3545 C 0.01397 0.75652 0.15705 0.0
C3546 C 0.98625 0.76701 0.15344 0.0
C3547 C 0.97753 0.75328 0.16148 0.0
C3548 C 0.98684 0.74075 0.16669 0.0
C3549 C 0.00506 0.74247 0.16465 0.0
C3550 C 0.95969 0.75395 0.16727 0.0
C3551 C 0.94464 0.74302 0.15695 0.0
C3552 C 0.95773 0.76598 0.18294 0.0
C3553 C 0.97338 0.77742 0.19437 0.0
C3554 C 0.9851 0.76978 0.20417 0.0
C3555 C 1.00013 0.78057 0.21457 0.0
C3556 C 0.00346 0.79904 0.21538 0.0
C3557 C 0.99173 0.80675 0.20585 0.0
C3558 C 0.9767 0.796 0.1954 0.0
C3559 C 0.88677 0.74017 0.20356 0.0
C3560 C 0.88151 0.75642 0.20978 0.0
C3561 C 0.90022 0.73953 0.19188 0.0
C3562 C 0.90849 0.75513 0.18632 0.0
C3563 C 0.90234 0.77106 0.19146 0.0
C3564 C 0.88891 0.77171 0.20311 0.0
C3565 C 0.92555 0.75558 0.17819 0.0
C3566 C 0.94068 0.76679 0.18815 0.0
C3567 C 0.92741 0.74373 0.16222 0.0
C3568 C 0.91165 0.73233 0.15079 0.0
C3569 C 0.89737 0.73986 0.14516 0.0
C3570 C 0.88252 0.7291 0.13443 0.0
C3571 C 0.88183 0.71079 0.12914 0.0
C3572 C 0.896 0.70321 0.13454 0.0
C3573 C 0.91087 0.7139 0.14529 0.0
H3574 H 0.87033 0.70248 0.12083 0.0
H3575 H 0.01511 0.80737 0.22343 0.0
H3576 H 0.52707 0.31381 0.11961 0.0
H3577 H 0.53932 0.33886 0.10556 0.0
H3578 H 0.4882 0.33335 0.07539 0.0
H3579 H 0.47646 0.30708 0.08838 0.0
H3580 H 0.5125 0.33838 0.05453 0.0
H3581 H 0.50685 0.36812 0.11571 0.0
H3582 H 0.51247 0.37294 0.14885 0.0
H3583 H 0.56907 0.38482 0.14463 0.0
H3584 H 0.56379 0.37988 0.11147 0.0
H3585 H 0.51814 0.42294 0.03252 0.0
H3586 H 0.51177 0.39823 0.04882 0.0
H3587 H 0.56826 0.39944 0.05801 0.0
H3588 H 0.57474 0.4242 0.04134 0.0
H3589 H 0.54538 0.3966 0.08956 0.0
H3590 H 0.55108 0.3689 0.02903 0.0
H3591 H 0.5459 0.36382 0.99589 0.0
H3592 H 0.48947 0.34785 0.99917 0.0
H3593 H 0.49429 0.35316 0.03238 0.0
C3594 C 0.51845 0.31813 0.11009 0.0
C3595 C 0.50082 0.30886 0.10514 0.0
C3596 C 0.52541 0.3325 0.10217 0.0
C3597 C 0.51458 0.33836 0.08977 0.0
C3598 C 0.4968 0.32913 0.08499 0.0
C3599 C 0.49004 0.31426 0.09243 0.0
C3600 C 0.52197 0.35354 0.08114 0.0
C3601 C 0.51945 0.35116 0.06228 0.0
C3602 C 0.53182 0.37001 0.09114 0.0
C3603 C 0.53492 0.37352 0.11111 0.0
C3604 C 0.52049 0.37173 0.12186 0.0
C3605 C 0.52361 0.37447 0.14064 0.0
C3606 C 0.54111 0.37915 0.14883 0.0
C3607 C 0.55552 0.38119 0.13827 0.0
C3608 C 0.55247 0.37846 0.11949 0.0
C3609 C 0.5292 0.41798 0.0381 0.0
C3610 C 0.54691 0.42529 0.03565 0.0
C3611 C 0.52555 0.40393 0.04737 0.0
C3612 C 0.53956 0.39708 0.05449 0.0
C3613 C 0.55733 0.40464 0.05255 0.0
C3614 C 0.56099 0.41859 0.04297 0.0
C3615 C 0.53525 0.38145 0.0632 0.0
C3616 C 0.53844 0.38374 0.08197 0.0
C3617 C 0.52601 0.36488 0.05318 0.0
C3618 C 0.52304 0.36161 0.03321 0.0
C3619 C 0.53755 0.36449 0.0227 0.0
C3620 C 0.53468 0.36153 0.0039 0.0
C3621 C 0.51736 0.35556 0.99543 0.0
C3622 C 0.50288 0.3525 0.00575 0.0
C3623 C 0.50568 0.35547 0.02456 0.0
H3624 H 0.51517 0.35326 0.98087 0.0
H3625 H 0.5435 0.38122 0.16337 0.0
H3626 H 0.02329 0.30827 0.38197 0.0
H3627 H 0.99218 0.30379 0.3694 0.0
H3628 H 0.00639 0.2783 0.31814 0.0
H3629 H 0.03763 0.28393 0.3304 0.0
H3630 H 0.99116 0.30438 0.31405 0.0
H3631 H 0.97825 0.25595 0.34728 0.0
H3632 H 0.97832 0.24302 0.37488 0.0
H3633 H 0.94718 0.28004 0.39921 0.0
H3634 H 0.94712 0.29336 0.37187 0.0
H3635 H 0.90736 0.28398 0.26602 0.0
H3636 H 0.93412 0.27914 0.28226 0.0
H3637 H 0.92027 0.30874 0.3316 0.0
H3638 H 0.89336 0.31339 0.31545 0.0
H3639 H 0.93433 0.28002 0.33761 0.0
H3640 H 0.94855 0.32969 0.30764 0.0
H3641 H 0.94896 0.34532 0.28187 0.0
H3642 H 0.97854 0.30884 0.25363 0.0
H3643 H 0.97803 0.2928 0.27913 0.0
C3644 C 0.01956 0.30139 0.36814 0.0
C3645 C 0.03259 0.29654 0.35698 0.0
C3646 C 0.00184 0.29871 0.36102 0.0
C3647 C 0.99698 0.29061 0.34286 0.0
C3648 C 0.00991 0.28463 0.33216 0.0
C3649 C 0.02766 0.28783 0.3391 0.0
C3650 C 0.97922 0.29062 0.33422 0.0
C3651 C 0.97875 0.29864 0.31899 0.0
C3652 C 0.96308 0.28403 0.34127 0.0
C3653 C 0.96278 0.27572 0.35755 0.0
C3654 C 0.97148 0.26138 0.35855 0.0
C3655 C 0.97152 0.25399 0.37415 0.0
C3656 C 0.96278 0.26072 0.3888 0.0
C3657 C 0.95394 0.27483 0.38786 0.0
C3658 C 0.95388 0.28229 0.3723 0.0
C3659 C 0.91008 0.28942 0.28032 0.0
C3660 C 0.89858 0.29928 0.28949 0.0
C3661 C 0.9252 0.28654 0.28959 0.0
C3662 C 0.92916 0.29376 0.30804 0.0
C3663 C 0.91734 0.30303 0.31737 0.0
C3664 C 0.90212 0.30578 0.30813 0.0
C3665 C 0.94646 0.29312 0.31715 0.0
C3666 C 0.94681 0.28535 0.33256 0.0
C3667 C 0.96261 0.3002 0.31051 0.0
C3668 C 0.96308 0.30993 0.29521 0.0
C3669 C 0.95502 0.32492 0.29588 0.0
C3670 C 0.95528 0.33386 0.28133 0.0
C3671 C 0.96372 0.32805 0.2661 0.0
C3672 C 0.97197 0.31331 0.26542 0.0
C3673 C 0.9717 0.30429 0.27992 0.0
H3674 H 0.96392 0.335 0.25485 0.0
H3675 H 0.96285 0.255 0.40088 0.0
H3676 H 0.00444 0.71201 0.58309 0.0
H3677 H 0.01081 0.68448 0.56609 0.0
H3678 H 0.98151 0.65431 0.60172 0.0
H3679 H 0.97622 0.68213 0.6195 0.0
H3680 H 0.0115 0.64484 0.5987 0.0
H3681 H 0.96641 0.65182 0.5552 0.0
H3682 H 0.95125 0.66775 0.53538 0.0
H3683 H 0.99818 0.67656 0.50685 0.0
H3684 H 0.01368 0.66085 0.52662 0.0
H3685 H 0.01439 0.56097 0.54161 0.0
H3686 H 0.00725 0.58699 0.56111 0.0
H3687 H 0.03958 0.62179 0.53149 0.0
H3688 H 0.04633 0.5957 0.51177 0.0
H3689 H 0.00663 0.62757 0.53204 0.0
H3690 H 0.05138 0.61969 0.57618 0.0
H3691 H 0.06529 0.60249 0.59557 0.0
H3692 H 0.01742 0.59395 0.62268 0.0
H3693 H 0.00309 0.6108 0.60324 0.0
C3694 C 0.99891 0.69943 0.58692 0.0
C3695 C 0.98978 0.69904 0.60245 0.0
C3696 C 0.00254 0.68368 0.57722 0.0
C3697 C 0.9965 0.66728 0.58253 0.0
C3698 C 0.98637 0.66682 0.59743 0.0
C3699 C 0.9832 0.68263 0.60745 0.0
C3700 C 0.00202 0.65091 0.57346 0.0
C3701 C 0.01015 0.64087 0.58412 0.0
C3702 C 0.00059 0.64594 0.55446 0.0
C3703 C 0.99123 0.65525 0.54246 0.0
C3704 C 0.97352 0.65724 0.54475 0.0
C3705 C 0.96487 0.66621 0.53352 0.0
C3706 C 0.97376 0.67319 0.51989 0.0
C3707 C 0.99131 0.67115 0.51742 0.0
C3708 C 1.00002 0.66218 0.5286 0.0
C3709 C 0.02046 0.57423 0.53979 0.0
C3710 C 0.03104 0.57657 0.5255 0.0
C3711 C 0.01635 0.58905 0.55084 0.0
C3712 C 0.02299 0.60629 0.54777 0.0
C3713 C 0.03434 0.60857 0.53403 0.0
C3714 C 0.03819 0.59376 0.52283 0.0
C3715 C 0.01635 0.62174 0.55723 0.0
C3716 C 0.00793 0.63153 0.54662 0.0
C3717 C 0.01734 0.6263 0.57623 0.0
C3718 C 0.02609 0.61638 0.58812 0.0
C3719 C 0.04376 0.61402 0.58618 0.0
C3720 C 0.05172 0.60433 0.59718 0.0
C3721 C 0.04221 0.59705 0.61029 0.0
C3722 C 0.02475 0.59952 0.61248 0.0
C3723 C 0.0167 0.60916 0.60148 0.0
H3724 H 0.04839 0.58954 0.61879 0.0
H3725 H 0.96704 0.68015 0.51122 0.0
H3726 H 0.61446 0.77451 0.84325 0.0
H3727 H 0.63766 0.77741 0.82241 0.0
H3728 H 0.67158 0.81778 0.86269 0.0
H3729 H 0.64839 0.81466 0.88395 0.0
H3730 H 0.66077 0.81808 0.81572 0.0
H3731 H 0.69332 0.79586 0.86353 0.0
H3732 H 0.69121 0.77692 0.8867 0.0
H3733 H 0.6674 0.73109 0.84642 0.0
H3734 H 0.66924 0.74986 0.82306 0.0
H3735 H 0.74099 0.81305 0.77152 0.0
H3736 H 0.71695 0.81867 0.79011 0.0
H3737 H 0.69304 0.76252 0.77795 0.0
H3738 H 0.71742 0.75666 0.75973 0.0
H3739 H 0.70049 0.77385 0.81311 0.0
H3740 H 0.67123 0.79429 0.76477 0.0
H3741 H 0.67028 0.81222 0.74091 0.0
H3742 H 0.68573 0.86049 0.7805 0.0
H3743 H 0.68685 0.84283 0.80459 0.0
C3744 C 0.62692 0.78391 0.84771 0.0
C3745 C 0.62985 0.79421 0.86517 0.0
C3746 C 0.63999 0.7857 0.83577 0.0
C3747 C 0.65605 0.79796 0.84107 0.0
C3748 C 0.6591 0.80836 0.85848 0.0
C3749 C 0.64605 0.80638 0.87061 0.0
C3750 C 0.67004 0.79833 0.82863 0.0
C3751 C 0.66986 0.80882 0.8153 0.0
C3752 C 0.68127 0.78577 0.82795 0.0
C3753 C 0.68132 0.77425 0.84164 0.0
C3754 C 0.68764 0.78174 0.85965 0.0
C3755 C 0.68645 0.77106 0.87281 0.0
C3756 C 0.67904 0.75283 0.86807 0.0
C3757 C 0.67302 0.74522 0.8501 0.0
C3758 C 0.67421 0.75587 0.83689 0.0
C3759 C 0.73033 0.80195 0.7723 0.0
C3760 C 0.73128 0.78434 0.76454 0.0
C3761 C 0.71656 0.80522 0.78293 0.0
C3762 C 0.7034 0.79096 0.78556 0.0
C3763 C 0.70327 0.77364 0.77621 0.0
C3764 C 0.71714 0.77033 0.76576 0.0
C3765 C 0.6914 0.79365 0.79992 0.0
C3766 C 0.69182 0.78353 0.81359 0.0
C3767 C 0.68045 0.80658 0.80083 0.0
C3768 C 0.67923 0.81724 0.78646 0.0
C3769 C 0.67446 0.80873 0.76838 0.0
C3770 C 0.67388 0.81884 0.75482 0.0
C3771 C 0.67797 0.83748 0.75919 0.0
C3772 C 0.68255 0.84605 0.77714 0.0
C3773 C 0.68311 0.836 0.79076 0.0
H3774 H 0.67757 0.84529 0.74866 0.0
H3775 H 0.67809 0.74458 0.87828 0.0
H3776 H 0.46481 0.53775 0.714 0.0
H3777 H 0.48003 0.53417 0.68634 0.0
H3778 H 0.43897 0.55388 0.65901 0.0
H3779 H 0.42301 0.55583 0.68629 0.0
H3780 H 0.44709 0.53525 0.63409 0.0
H3781 H 0.49116 0.57647 0.67585 0.0
H3782 H 0.51154 0.58825 0.70354 0.0
H3783 H 0.53772 0.54356 0.69224 0.0
H3784 H 0.51737 0.53142 0.66457 0.0
H3785 H 0.51098 0.56078 0.56671 0.0
H3786 H 0.49618 0.56318 0.59494 0.0
H3787 H 0.50315 0.51038 0.5997 0.0
H3788 H 0.51725 0.5076 0.57101 0.0
H3789 H 0.5131 0.54599 0.63518 0.0
H3790 H 0.46701 0.50685 0.59108 0.0
H3791 H 0.44795 0.49995 0.56235 0.0
H3792 H 0.42669 0.54736 0.57799 0.0
H3793 H 0.44595 0.55473 0.60669 0.0
C3794 C 0.45896 0.54141 0.70215 0.0
C3795 C 0.44244 0.54723 0.70295 0.0
C3796 C 0.46798 0.53958 0.68601 0.0
C3797 C 0.46147 0.5442 0.66977 0.0
C3798 C 0.44489 0.55005 0.6707 0.0
C3799 C 0.43561 0.55132 0.68667 0.0
C3800 C 0.47139 0.54263 0.652 0.0
C3801 C 0.46155 0.53787 0.63473 0.0
C3802 C 0.49048 0.5458 0.65158 0.0
C3803 C 0.5026 0.55294 0.66827 0.0
C3804 C 0.50118 0.5691 0.67935 0.0
C3805 C 0.51274 0.57585 0.69502 0.0
C3806 C 0.52587 0.56663 0.69968 0.0
C3807 C 0.52751 0.55066 0.68864 0.0
C3808 C 0.51598 0.54385 0.67296 0.0
C3809 C 0.5095 0.54961 0.57369 0.0
C3810 C 0.51565 0.53397 0.56609 0.0
C3811 C 0.50087 0.55101 0.59006 0.0
C3812 C 0.49827 0.53703 0.60005 0.0
C3813 C 0.50473 0.52153 0.59269 0.0
C3814 C 0.51291 0.51993 0.57604 0.0
C3815 C 0.48872 0.53852 0.61778 0.0
C3816 C 0.49864 0.54338 0.63486 0.0
C3817 C 0.46978 0.53598 0.61805 0.0
C3818 C 0.45811 0.53146 0.60091 0.0
C3819 C 0.45845 0.51592 0.5883 0.0
C3820 C 0.44757 0.5119 0.57204 0.0
C3821 C 0.43617 0.52325 0.56831 0.0
C3822 C 0.43557 0.53861 0.58087 0.0
C3823 C 0.44647 0.54271 0.59713 0.0
H3824 H 0.42775 0.52012 0.55572 0.0
H3825 H 0.53481 0.57188 0.71182 0.0
H3826 H 0.80253 0.13175 0.95139 0.0
H3827 H 0.79362 0.14538 0.92615 0.0
H3828 H 0.77318 0.18421 0.96311 0.0
H3829 H 0.7825 0.1711 0.98839 0.0
H3830 H 0.74921 0.16591 0.93043 0.0
H3831 H 0.80775 0.2 0.95055 0.0
H3832 H 0.84016 0.20587 0.95926 0.0
H3833 H 0.84893 0.17962 0.90654 0.0
H3834 H 0.81648 0.17332 0.89761 0.0
H3835 H 0.75179 0.23951 0.88258 0.0
H3836 H 0.75058 0.21795 0.90284 0.0
H3837 H 0.77312 0.18299 0.86357 0.0
H3838 H 0.77415 0.20435 0.8432 0.0
H3839 H 0.79453 0.19709 0.89628 0.0
H3840 H 0.73438 0.1676 0.8755 0.0
H3841 H 0.702 0.1648 0.8682 0.0
H3842 H 0.69599 0.1857 0.92347 0.0
H3843 H 0.72838 0.18898 0.9311 0.0
C3844 C 0.79628 0.14329 0.95411 0.0
C3845 C 0.79333 0.15046 0.97183 0.0
C3846 C 0.79115 0.15098 0.93973 0.0
C3847 C 0.78265 0.16568 0.94285 0.0
C3848 C 0.77962 0.1728 0.96049 0.0
C3849 C 0.78512 0.1654 0.97489 0.0
C3850 C 0.77731 0.17394 0.92775 0.0
C3851 C 0.75905 0.17283 0.92296 0.0
C3852 C 0.79022 0.18276 0.91803 0.0
C3853 C 0.80965 0.18587 0.92353 0.0
C3854 C 0.81655 0.19519 0.94092 0.0
C3855 C 0.83494 0.19868 0.94587 0.0
C3856 C 0.84659 0.19304 0.93349 0.0
C3857 C 0.83988 0.18391 0.91614 0.0
C3858 C 0.82148 0.18036 0.91113 0.0
C3859 C 0.75582 0.22692 0.878 0.0
C3860 C 0.76345 0.22374 0.86154 0.0
C3861 C 0.75509 0.2146 0.88956 0.0
C3862 C 0.76191 0.19899 0.88471 0.0
C3863 C 0.76786 0.19501 0.86753 0.0
C3864 C 0.76857 0.20727 0.856 0.0
C3865 C 0.76636 0.18895 0.89868 0.0
C3866 C 0.78458 0.18988 0.90344 0.0
C3867 C 0.75336 0.18031 0.90851 0.0
C3868 C 0.7339 0.1787 0.90385 0.0
C3869 C 0.72622 0.17182 0.88608 0.0
C3870 C 0.70784 0.17009 0.88188 0.0
C3871 C 0.69696 0.17508 0.89534 0.0
C3872 C 0.70444 0.18184 0.91304 0.0
C3873 C 0.72281 0.18364 0.91731 0.0
H3874 H 0.68273 0.17367 0.89207 0.0
H3875 H 0.86084 0.19581 0.93732 0.0
H3876 H 0.15476 0.55359 0.18658 0.0
H3877 H 0.13568 0.56262 0.164 0.0
H3878 H 0.10534 0.50865 0.15028 0.0
H3879 H 0.12382 0.49976 0.17332 0.0
H3880 H 0.12827 0.53878 0.12383 0.0
H3881 H 0.07954 0.51734 0.16372 0.0
H3882 H 0.06689 0.52072 0.19314 0.0
H3883 H 0.07025 0.57672 0.1938 0.0
H3884 H 0.08348 0.57372 0.16459 0.0
H3885 H 0.06028 0.5032 0.05968 0.0
H3886 H 0.07743 0.50954 0.08906 0.0
H3887 H 0.06392 0.56181 0.1002 0.0
H3888 H 0.04624 0.55535 0.07092 0.0
H3889 H 0.06517 0.54453 0.13067 0.0
H3890 H 0.10151 0.56037 0.08397 0.0
H3891 H 0.11191 0.55505 0.05354 0.0
H3892 H 0.13148 0.50936 0.06515 0.0
H3893 H 0.1209 0.51419 0.09551 0.0
C3894 C 0.14418 0.54366 0.17846 0.0
C3895 C 0.14074 0.52595 0.18123 0.0
C3896 C 0.13316 0.5489 0.16597 0.0
C3897 C 0.11882 0.5364 0.15624 0.0
C3898 C 0.11598 0.51854 0.15836 0.0
C3899 C 0.1267 0.5134 0.1711 0.0
C3900 C 0.10792 0.54116 0.14218 0.0
C3901 C 0.11456 0.54037 0.12528 0.0
C3902 C 0.09027 0.54358 0.14446 0.0
C3903 C 0.08301 0.54541 0.16228 0.0
C3904 C 0.07803 0.53045 0.17035 0.0
C3905 C 0.07065 0.53227 0.18694 0.0
C3906 C 0.06791 0.54895 0.19542 0.0
C3907 C 0.07254 0.56384 0.18731 0.0
C3908 C 0.08005 0.5621 0.17078 0.0
C3909 C 0.06078 0.51593 0.06851 0.0
C3910 C 0.05237 0.52896 0.06306 0.0
C3911 C 0.07046 0.5195 0.08521 0.0
C3912 C 0.07218 0.53628 0.09636 0.0
C3913 C 0.06276 0.54887 0.09156 0.0
C3914 C 0.05278 0.54518 0.07491 0.0
C3915 C 0.08522 0.54099 0.11211 0.0
C3916 C 0.07907 0.54371 0.12927 0.0
C3917 C 0.10335 0.54018 0.11006 0.0
C3918 C 0.11042 0.53768 0.09205 0.0
C3919 C 0.10802 0.54918 0.08003 0.0
C3920 C 0.11391 0.54623 0.06278 0.0
C3921 C 0.12235 0.53188 0.05742 0.0
C3922 C 0.12497 0.52049 0.06933 0.0
C3923 C 0.11906 0.52335 0.08657 0.0
H3924 H 0.12687 0.52959 0.04404 0.0
H3925 H 0.06209 0.55032 0.2082 0.0
H3926 H 0.79315 0.83003 0.4745 0.0
H3927 H 0.7913 0.81271 0.44366 0.0
H3928 H 0.7812 0.85835 0.42219 0.0
H3929 H 0.78269 0.8754 0.45244 0.0
H3930 H 0.7583 0.82935 0.40639 0.0
H3931 H 0.82233 0.84608 0.42241 0.0
H3932 H 0.85032 0.84673 0.44066 0.0
H3933 H 0.84147 0.78945 0.42857 0.0
H3934 H 0.81329 0.78845 0.41042 0.0
H3935 H 0.77369 0.8169 0.31495 0.0
H3936 H 0.77429 0.82702 0.34745 0.0
H3937 H 0.79065 0.77862 0.35666 0.0
H3938 H 0.79162 0.76931 0.32404 0.0
H3939 H 0.80809 0.80377 0.38015 0.0
H3940 H 0.74439 0.78853 0.36076 0.0
H3941 H 0.71719 0.79004 0.34234 0.0
H3942 H 0.72636 0.84684 0.36057 0.0
H3943 H 0.75352 0.84567 0.37912 0.0
C3944 C 0.79051 0.83631 0.46318 0.0
C3945 C 0.78797 0.85409 0.466 0.0
C3946 C 0.78953 0.82644 0.44558 0.0
C3947 C 0.78611 0.83425 0.43061 0.0
C3948 C 0.78371 0.85198 0.4335 0.0
C3949 C 0.78461 0.86174 0.4509 0.0
C3950 C 0.78466 0.82427 0.41178 0.0
C3951 C 0.76919 0.82374 0.40063 0.0
C3952 C 0.79867 0.81657 0.40438 0.0
C3953 C 0.81559 0.81718 0.41527 0.0
C3954 C 0.82627 0.83362 0.42378 0.0
C3955 C 0.84219 0.83405 0.43408 0.0
C3956 C 0.84764 0.81814 0.43583 0.0
C3957 C 0.83721 0.80176 0.42724 0.0
C3958 C 0.82127 0.80125 0.41694 0.0
C3959 C 0.77726 0.80839 0.32396 0.0
C3960 C 0.7824 0.79227 0.3171 0.0
C3961 C 0.77746 0.81409 0.34256 0.0
C3962 C 0.78192 0.80334 0.35465 0.0
C3963 C 0.78702 0.78713 0.3477 0.0
C3964 C 0.78748 0.78176 0.32909 0.0
C3965 C 0.78188 0.80933 0.37451 0.0
C3966 C 0.797 0.80901 0.3859 0.0
C3967 C 0.7676 0.81647 0.38217 0.0
C3968 C 0.75101 0.817 0.37129 0.0
C3969 C 0.74058 0.80133 0.36083 0.0
C3970 C 0.72516 0.80213 0.35039 0.0
C3971 C 0.72005 0.81854 0.35031 0.0
C3972 C 0.7303 0.83415 0.3607 0.0
C3973 C 0.74565 0.83341 0.37124 0.0
H3974 H 0.70815 0.81923 0.34225 0.0
H3975 H 0.85996 0.8185 0.4438 0.0
H3976 H 0.42601 0.52839 0.82086 0.0
H3977 H 0.43913 0.52593 0.85044 0.0
H3978 H 0.48603 0.56407 0.84435 0.0
H3979 H 0.47322 0.56555 0.81427 0.0
H3980 H 0.49898 0.54411 0.86002 0.0
H3981 H 0.449 0.56962 0.87771 0.0
H3982 H 0.41751 0.57287 0.87822 0.0
H3983 H 0.40343 0.52158 0.89338 0.0
H3984 H 0.43482 0.51794 0.89276 0.0
H3985 H 0.527 0.56098 0.95827 0.0
H3986 H 0.51355 0.56384 0.92878 0.0
H3987 H 0.48716 0.50868 0.91966 0.0
H3988 H 0.50125 0.50553 0.94877 0.0
H3989 H 0.46415 0.53754 0.91263 0.0
H3990 H 0.51663 0.51434 0.89578 0.0
H3991 H 0.54893 0.51427 0.89694 0.0
H3992 H 0.55901 0.56597 0.88215 0.0
H3993 H 0.52677 0.56647 0.8812 0.0
C3994 C 0.43886 0.53677 0.82604 0.0
C3995 C 0.44801 0.54782 0.81508 0.0
C3996 C 0.44656 0.53533 0.84325 0.0
C3997 C 0.4638 0.54508 0.85066 0.0
C3998 C 0.47282 0.55627 0.83966 0.0
C3999 C 0.46525 0.55741 0.82232 0.0
C4000 C 0.47263 0.54318 0.86918 0.0
C4001 C 0.49116 0.54296 0.87144 0.0
C4002 C 0.4631 0.54138 0.88475 0.0
C4003 C 0.44421 0.54342 0.88498 0.0
C4004 C 0.43916 0.55898 0.88102 0.0
C4005 C 0.42133 0.5609 0.88135 0.0
C4006 C 0.40846 0.54742 0.88577 0.0
C4007 C 0.4134 0.532 0.88992 0.0
C4008 C 0.43121 0.53 0.88959 0.0
C4009 C 0.51845 0.54934 0.95001 0.0
C4010 C 0.5155 0.53294 0.9563 0.0
C4011 C 0.51066 0.55102 0.93294 0.0
C4012 C 0.49906 0.53655 0.92151 0.0
C4013 C 0.49592 0.52022 0.92786 0.0
C4014 C 0.50414 0.51838 0.94468 0.0
C4015 C 0.49023 0.53848 0.90321 0.0
C4016 C 0.4718 0.53874 0.90108 0.0
C4017 C 0.49992 0.54076 0.88794 0.0
C4018 C 0.5193 0.54054 0.88866 0.0
C4019 C 0.52575 0.52579 0.893 0.0
C4020 C 0.54405 0.52565 0.89357 0.0
C4021 C 0.55603 0.54013 0.88969 0.0
C4022 C 0.54972 0.55478 0.8852 0.0
C4023 C 0.53144 0.55499 0.88464 0.0
H4024 H 0.57018 0.53999 0.8901 0.0
H4025 H 0.39467 0.54894 0.88603 0.0
H4026 H 0.79038 0.17571 0.05882 0.0
H4027 H 0.78567 0.1986 0.08388 0.0
H4028 H 0.81235 0.17344 0.12118 0.0
H4029 H 0.81596 0.14999 0.0963 0.0
H4030 H 0.78229 0.17855 0.13226 0.0
H4031 H 0.82916 0.21768 0.1063 0.0
H4032 H 0.83969 0.23223 0.0812 0.0
H4033 H 0.79317 0.25598 0.08032 0.0
H4034 H 0.78231 0.24146 0.10527 0.0
H4035 H 0.79526 0.23495 0.21549 0.0
H4036 H 0.7988 0.21768 0.18623 0.0
H4037 H 0.77524 0.25407 0.1597 0.0
H4038 H 0.77293 0.27225 0.18938 0.0
H4039 H 0.79842 0.24446 0.14008 0.0
H4040 H 0.75264 0.21106 0.1659 0.0
H4041 H 0.73587 0.19497 0.18698 0.0
H4042 H 0.77172 0.15809 0.18335 0.0
H4043 H 0.78939 0.1746 0.16329 0.0
C4044 C 0.79553 0.1753 0.07236 0.0
C4045 C 0.80354 0.16105 0.07563 0.0
C4046 C 0.7929 0.18847 0.08671 0.0
C4047 C 0.79877 0.18798 0.10456 0.0
C4048 C 0.80759 0.17418 0.10761 0.0
C4049 C 0.80974 0.16077 0.09338 0.0
C4050 C 0.79442 0.20052 0.1204 0.0
C4051 C 0.78621 0.19297 0.13416 0.0
C4052 C 0.79798 0.21938 0.12222 0.0
C4053 C 0.80489 0.22841 0.10757 0.0
C4054 C 0.82117 0.22598 0.10072 0.0
C4055 C 0.82719 0.23422 0.08652 0.0
C4056 C 0.81709 0.24499 0.07915 0.0
C4057 C 0.80099 0.24763 0.08602 0.0
C4058 C 0.79491 0.23943 0.10021 0.0
C4059 C 0.79084 0.23929 0.2034 0.0
C4060 C 0.78357 0.25478 0.20468 0.0
C4061 C 0.79275 0.22932 0.18661 0.0
C4062 C 0.78673 0.23409 0.17055 0.0
C4063 C 0.77986 0.24992 0.1718 0.0
C4064 C 0.77847 0.26028 0.18874 0.0
C4065 C 0.78765 0.22239 0.1527 0.0
C4066 C 0.79477 0.23004 0.13841 0.0
C4067 C 0.78246 0.20351 0.15004 0.0
C4068 C 0.77247 0.19422 0.16315 0.0
C4069 C 0.7572 0.19977 0.16991 0.0
C4070 C 0.74755 0.19058 0.18175 0.0
C4071 C 0.7528 0.1756 0.18665 0.0
C4072 C 0.76777 0.16983 0.17978 0.0
C4073 C 0.77769 0.17917 0.16826 0.0
H4074 H 0.7452 0.1684 0.19567 0.0
H4075 H 0.82175 0.25132 0.06814 0.0
H4076 H 0.10687 0.52003 0.28253 0.0
H4077 H 0.10456 0.52932 0.31493 0.0
H4078 H 0.14566 0.57607 0.31631 0.0
H4079 H 0.14866 0.5662 0.28419 0.0
H4080 H 0.14893 0.56207 0.34672 0.0
H4081 H 0.10223 0.58025 0.3127 0.0
H4082 H 0.07801 0.57415 0.28811 0.0
H4083 H 0.04858 0.53309 0.31242 0.0
H4084 H 0.07268 0.53886 0.33707 0.0
H4085 H 0.07677 0.57684 0.4165 0.0
H4086 H 0.09704 0.58839 0.39546 0.0
H4087 H 0.11761 0.53963 0.3881 0.0
H4088 H 0.09746 0.52805 0.4088 0.0
H4089 H 0.0875 0.56679 0.36233 0.0
H4090 H 0.15041 0.54252 0.37791 0.0
H4091 H 0.17492 0.54764 0.40216 0.0
H4092 H 0.1722 0.60324 0.41446 0.0
H4093 H 0.14736 0.59829 0.39062 0.0
C4094 C 0.11536 0.53222 0.28987 0.0
C4095 C 0.12769 0.54263 0.28117 0.0
C4096 C 0.11412 0.53749 0.30825 0.0
C4097 C 0.12472 0.55356 0.3178 0.0
C4098 C 0.13739 0.56368 0.30912 0.0
C4099 C 0.13896 0.55815 0.29086 0.0
C4100 C 0.12156 0.56034 0.33649 0.0
C4101 C 0.13558 0.5634 0.35017 0.0
C4102 C 0.1043 0.56267 0.34086 0.0
C4103 C 0.08922 0.56005 0.32676 0.0
C4104 C 0.09054 0.57 0.31285 0.0
C4105 C 0.07686 0.56657 0.29888 0.0
C4106 C 0.06176 0.55326 0.29872 0.0
C4107 C 0.06025 0.54344 0.3126 0.0
C4108 C 0.07388 0.54684 0.32661 0.0
C4109 C 0.08606 0.56888 0.4108 0.0
C4110 C 0.08526 0.55138 0.4138 0.0
C4111 C 0.09782 0.57562 0.39908 0.0
C4112 C 0.10884 0.5649 0.39032 0.0
C4113 C 0.10954 0.54831 0.39505 0.0
C4114 C 0.09782 0.54158 0.40672 0.0
C4115 C 0.11465 0.56776 0.37269 0.0
C4116 C 0.10106 0.56635 0.35895 0.0
C4117 C 0.13225 0.56716 0.36833 0.0
C4118 C 0.1471 0.57004 0.38257 0.0
C4119 C 0.15508 0.55582 0.38581 0.0
C4120 C 0.16894 0.55867 0.39953 0.0
C4121 C 0.17511 0.57576 0.40984 0.0
C4122 C 0.16735 0.59 0.40653 0.0
C4123 C 0.1533 0.58715 0.39303 0.0
H4124 H 0.18591 0.57797 0.42036 0.0
H4125 H 0.05123 0.55054 0.28784 0.0
H4126 H 0.81329 0.86771 0.59332 0.0
H4127 H 0.81031 0.85356 0.61982 0.0
H4128 H 0.77246 0.80907 0.58858 0.0
H4129 H 0.77558 0.82304 0.56187 0.0
H4130 H 0.76119 0.82275 0.62263 0.0
H4131 H 0.81146 0.80191 0.59867 0.0
H4132 H 0.84085 0.80431 0.58638 0.0
H4133 H 0.86565 0.83812 0.6359 0.0
H4134 H 0.83634 0.83615 0.6484 0.0
H4135 H 0.76185 0.77053 0.6926 0.0
H4136 H 0.76339 0.78041 0.66356 0.0
H4137 H 0.80492 0.82535 0.68753 0.0
H4138 H 0.80347 0.81562 0.71654 0.0
H4139 H 0.81333 0.80868 0.65538 0.0
H4140 H 0.76259 0.83067 0.67867 0.0
H4141 H 0.73311 0.82833 0.69077 0.0
H4142 H 0.709 0.79212 0.64236 0.0
H4143 H 0.73841 0.79403 0.63007 0.0
C4144 C 0.80446 0.85484 0.59202 0.0
C4145 C 0.79476 0.84647 0.57543 0.0
C4146 C 0.80276 0.84676 0.60719 0.0
C4147 C 0.79118 0.83023 0.6062 0.0
C4148 C 0.78146 0.82182 0.58967 0.0
C4149 C 0.78336 0.82978 0.57439 0.0
C4150 C 0.7892 0.82193 0.62254 0.0
C4151 C 0.77251 0.81938 0.62964 0.0
C4152 C 0.80401 0.81778 0.63184 0.0
C4153 C 0.82167 0.81903 0.6244 0.0
C4154 C 0.82315 0.81 0.60688 0.0
C4155 C 0.8398 0.81125 0.59989 0.0
C4156 C 0.8551 0.8214 0.61034 0.0
C4157 C 0.85378 0.83028 0.62782 0.0
C4158 C 0.83716 0.82909 0.63487 0.0
C4159 C 0.77125 0.78257 0.69174 0.0
C4160 C 0.78252 0.79228 0.70698 0.0
C4161 C 0.7721 0.78822 0.6751 0.0
C4162 C 0.78421 0.80369 0.67334 0.0
C4163 C 0.79547 0.81336 0.68852 0.0
C4164 C 0.79457 0.8078 0.70515 0.0
C4165 C 0.78539 0.8098 0.65571 0.0
C4166 C 0.80195 0.81192 0.64833 0.0
C4167 C 0.77044 0.81352 0.64617 0.0
C4168 C 0.75275 0.81232 0.65354 0.0
C4169 C 0.75104 0.82207 0.67068 0.0
C4170 C 0.73433 0.82085 0.67756 0.0
C4171 C 0.7192 0.81004 0.66737 0.0
C4172 C 0.72074 0.80046 0.65026 0.0
C4173 C 0.73742 0.80161 0.64332 0.0
H4174 H 0.70628 0.80912 0.67271 0.0
H4175 H 0.86798 0.82235 0.6049 0.0
H4176 H 0.72951 0.48464 0.50695 0.0
H4177 H 0.70215 0.49653 0.51153 0.0
H4178 H 0.67183 0.44301 0.50692 0.0
H4179 H 0.699 0.43109 0.50185 0.0
H4180 H 0.65328 0.4602 0.4893 0.0
H4181 H 0.68402 0.47466 0.54901 0.0
H4182 H 0.70928 0.48799 0.57203 0.0
H4183 H 0.70776 0.54 0.56042 0.0
H4184 H 0.68262 0.52695 0.53719 0.0
H4185 H 0.57295 0.48297 0.52016 0.0
H4186 H 0.60092 0.47191 0.51833 0.0
H4187 H 0.6303 0.52569 0.52221 0.0
H4188 H 0.60245 0.53689 0.52452 0.0
H4189 H 0.64946 0.50877 0.54028 0.0
H4190 H 0.61923 0.4948 0.48073 0.0
H4191 H 0.59395 0.48198 0.45761 0.0
H4192 H 0.59477 0.42959 0.46851 0.0
H4193 H 0.61992 0.44214 0.49187 0.0
C4194 C 0.71702 0.47539 0.50694 0.0
C4195 C 0.7166 0.45685 0.50403 0.0
C4196 C 0.70131 0.48223 0.50969 0.0
C4197 C 0.6847 0.47078 0.50988 0.0
C4198 C 0.6843 0.45226 0.50688 0.0
C4199 C 0.69996 0.44542 0.50402 0.0
C4200 C 0.66772 0.47791 0.51282 0.0
C4201 C 0.65246 0.47064 0.50064 0.0
C4202 C 0.66647 0.49193 0.52727 0.0
C4203 C 0.68155 0.4998 0.54125 0.0
C4204 C 0.68916 0.48892 0.55128 0.0
C4205 C 0.70344 0.49643 0.56438 0.0
C4206 C 0.71015 0.51482 0.56765 0.0
C4207 C 0.70256 0.52575 0.55786 0.0
C4208 C 0.68829 0.51831 0.54474 0.0
C4209 C 0.58536 0.49253 0.52089 0.0
C4210 C 0.58524 0.5109 0.52249 0.0
C4211 C 0.60144 0.48613 0.51966 0.0
C4212 C 0.61792 0.49784 0.5197 0.0
C4213 C 0.61791 0.51625 0.52205 0.0
C4214 C 0.60185 0.52268 0.5234 0.0
C4215 C 0.63502 0.49093 0.51685 0.0
C4216 C 0.6503 0.49828 0.52899 0.0
C4217 C 0.63633 0.47704 0.50231 0.0
C4218 C 0.62134 0.46943 0.48815 0.0
C4219 C 0.61395 0.48056 0.47826 0.0
C4220 C 0.59965 0.47334 0.46511 0.0
C4221 C 0.59274 0.45499 0.46162 0.0
C4222 C 0.60013 0.4438 0.47124 0.0
C4223 C 0.61442 0.45096 0.48443 0.0
H4224 H 0.58167 0.44942 0.45144 0.0
H4225 H 0.72121 0.52061 0.5778 0.0
H4226 H 0.2098 0.17101 0.50759 0.0
H4227 H 0.18206 0.15068 0.51111 0.0
H4228 H 0.19484 0.11022 0.46981 0.0
H4229 H 0.22274 0.13028 0.46652 0.0
H4230 H 0.15887 0.11576 0.46609 0.0
H4231 H 0.20152 0.10535 0.50997 0.0
H4232 H 0.22436 0.11325 0.53592 0.0
H4233 H 0.18655 0.13307 0.57004 0.0
H4234 H 0.16356 0.12563 0.5442 0.0
H4235 H 0.09321 0.04246 0.47948 0.0
H4236 H 0.12215 0.06104 0.47655 0.0
H4237 H 0.11416 0.10017 0.52186 0.0
H4238 H 0.08539 0.08178 0.52494 0.0
H4239 H 0.14838 0.09453 0.52359 0.0
H4240 H 0.10656 0.10708 0.48017 0.0
H4241 H 0.08319 0.09941 0.45469 0.0
H4242 H 0.11907 0.07629 0.42034 0.0
H4243 H 0.14259 0.08358 0.44572 0.0
C4244 C 0.20658 0.15786 0.49912 0.0
C4245 C 0.21837 0.15223 0.48671 0.0
C4246 C 0.19083 0.14622 0.50125 0.0
C4247 C 0.1865 0.12892 0.4908 0.0
C4248 C 0.19798 0.1235 0.47802 0.0
C4249 C 0.21387 0.13498 0.47614 0.0
C4250 C 0.16995 0.11645 0.49308 0.0
C4251 C 0.15667 0.11093 0.47858 0.0
C4252 C 0.16698 0.11046 0.50952 0.0
C4253 C 0.18087 0.11516 0.52506 0.0
C4254 C 0.19813 0.11162 0.52294 0.0
C4255 C 0.2111 0.11597 0.53765 0.0
C4256 C 0.20693 0.12372 0.5546 0.0
C4257 C 0.18978 0.12712 0.55689 0.0
C4258 C 0.17677 0.12284 0.54221 0.0
C4259 C 0.09761 0.05502 0.48882 0.0
C4260 C 0.08688 0.06067 0.50234 0.0
C4261 C 0.11416 0.06561 0.48714 0.0
C4262 C 0.12026 0.08205 0.49893 0.0
C4263 C 0.10975 0.08754 0.51264 0.0
C4264 C 0.09321 0.07702 0.51428 0.0
C4265 C 0.13727 0.09392 0.49661 0.0
C4266 C 0.15062 0.09933 0.51109 0.0
C4267 C 0.14028 0.09995 0.48021 0.0
C4268 C 0.12626 0.09571 0.46488 0.0
C4269 C 0.10942 0.10024 0.46722 0.0
C4270 C 0.09616 0.09598 0.45279 0.0
C4271 C 0.09963 0.08732 0.43592 0.0
C4272 C 0.11639 0.08296 0.43342 0.0
C4273 C 0.1297 0.08717 0.44782 0.0
H4274 H 0.08934 0.08403 0.42476 0.0
H4275 H 0.21698 0.12704 0.56598 0.0
H4276 H 0.16482 0.93483 0.74262 0.0
H4277 H 0.17831 0.90838 0.74101 0.0
H4278 H 0.22729 0.94125 0.76813 0.0
H4279 H 0.21399 0.9679 0.76868 0.0
H4280 H 0.23894 0.91772 0.74931 0.0
H4281 H 0.18872 0.90386 0.78535 0.0
H4282 H 0.15679 0.89892 0.79089 0.0
H4283 H 0.14416 0.85926 0.74234 0.0
H4284 H 0.17602 0.86389 0.73659 0.0
H4285 H 0.28017 0.84471 0.76653 0.0
H4286 H 0.26587 0.87043 0.76711 0.0
H4287 H 0.21722 0.83571 0.74149 0.0
H4288 H 0.2314 0.80968 0.74198 0.0
H4289 H 0.2049 0.85972 0.75856 0.0
H4290 H 0.25307 0.87152 0.72211 0.0
H4291 H 0.28414 0.87596 0.7138 0.0
H4292 H 0.2998 0.91905 0.75917 0.0
H4293 H 0.26885 0.91474 0.76785 0.0
C4294 C 0.17848 0.93663 0.74835 0.0
C4295 C 0.18792 0.95421 0.75589 0.0
C4296 C 0.18636 0.92105 0.74767 0.0
C4297 C 0.20417 0.9217 0.75496 0.0
C4298 C 0.21364 0.93938 0.76233 0.0
C4299 C 0.20585 0.95502 0.76273 0.0
C4300 C 0.21299 0.90457 0.75464 0.0
C4301 C 0.23132 0.90524 0.75171 0.0
C4302 C 0.20374 0.88727 0.75689 0.0
C4303 C 0.18469 0.88433 0.76049 0.0
C4304 C 0.17911 0.89409 0.77588 0.0
C4305 C 0.16104 0.89132 0.77906 0.0
C4306 C 0.14846 0.87878 0.76698 0.0
C4307 C 0.15393 0.86893 0.75171 0.0
C4308 C 0.17199 0.87158 0.74852 0.0
C4309 C 0.26643 0.84231 0.76084 0.0
C4310 C 0.25742 0.82441 0.75401 0.0
C4311 C 0.25806 0.85747 0.76096 0.0
C4312 C 0.24009 0.8561 0.75377 0.0
C4313 C 0.23097 0.83812 0.74713 0.0
C4314 C 0.23929 0.82285 0.74731 0.0
C4315 C 0.23096 0.87297 0.75354 0.0
C4316 C 0.21258 0.87223 0.7563 0.0
C4317 C 0.24009 0.89013 0.75081 0.0
C4318 C 0.2587 0.89267 0.74574 0.0
C4319 C 0.26317 0.88186 0.73037 0.0
C4320 C 0.28075 0.88437 0.72559 0.0
C4321 C 0.29394 0.89774 0.73598 0.0
C4322 C 0.28957 0.90867 0.75116 0.0
C4323 C 0.27202 0.90621 0.75601 0.0
H4324 H 0.30754 0.89966 0.73225 0.0
H4325 H 0.13447 0.87668 0.76944 0.0
H4326 H 0.3276 0.99273 0.98937 0.0
H4327 H 0.36023 0.99999 0.99319 0.0
H4328 H 0.36117 0.95127 0.01308 0.0
H4329 H 0.3284 0.94426 0.00993 0.0
H4330 H 0.38698 0.97561 0.03092 0.0
H4331 H 0.37017 0.95466 0.96907 0.0
H4332 H 0.35328 0.95196 0.93962 0.0
H4333 H 0.37572 0.00665 0.93822 0.0
H4334 H 0.3926 0.00974 0.96778 0.0
H4335 H 0.48179 0.98903 0.02001 0.0
H4336 H 0.44976 0.97639 0.01833 0.0
H4337 H 0.43785 0.02169 0.99735 0.0
H4338 H 0.46978 0.03369 0.99796 0.0
H4339 H 0.41769 0.99382 0.97907 0.0
H4340 H 0.43342 0.0122 0.04538 0.0
H4341 H 0.44995 0.01009 0.07368 0.0
H4342 H 0.43003 0.95345 0.06404 0.0
H4343 H 0.41343 0.95524 0.03568 0.0
C4344 C 0.33471 0.9836 0.99468 0.0
C4345 C 0.3253 0.96783 0.99918 0.0
C4346 C 0.35344 0.98772 0.99678 0.0
C4347 C 0.36334 0.97599 0.00301 0.0
C4348 C 0.35396 0.96053 0.00815 0.0
C4349 C 0.33517 0.95653 0.00631 0.0
C4350 C 0.38337 0.97975 0.00361 0.0
C4351 C 0.39368 0.97945 0.01951 0.0
C4352 C 0.39234 0.98432 0.98866 0.0
C4353 C 0.38255 0.98247 0.9707 0.0
C4354 C 0.37145 0.96613 0.96251 0.0
C4355 C 0.36188 0.96453 0.9458 0.0
C4356 C 0.3634 0.97913 0.93708 0.0
C4357 C 0.37456 0.99535 0.94501 0.0
C4358 C 0.38416 0.99703 0.96172 0.0
C4359 C 0.4723 0.99635 0.01518 0.0
C4360 C 0.47837 0.01242 0.00918 0.0
C4361 C 0.45391 0.98915 0.01432 0.0
C4362 C 0.44111 0.99816 0.00801 0.0
C4363 C 0.44728 0.01435 0.00225 0.0
C4364 C 0.4656 0.02128 0.00267 0.0
C4365 C 0.42135 0.99082 0.00678 0.0
C4366 C 0.41103 0.99013 0.99056 0.0
C4367 C 0.41249 0.98474 0.02124 0.0
C4368 C 0.4223 0.98385 0.03839 0.0
C4369 C 0.43262 0.99931 0.0493 0.0
C4370 C 0.442 0.99815 0.06534 0.0
C4371 C 0.44107 0.98162 0.07061 0.0
C4372 C 0.43073 0.96623 0.05992 0.0
C4373 C 0.42131 0.96731 0.0439 0.0
H4374 H 0.44829 0.98068 0.083 0.0
H4375 H 0.35596 0.97788 0.92416 0.0
H4376 H 0.84824 0.55307 0.78173 0.0
H4377 H 0.83581 0.57668 0.77105 0.0
H4378 H 0.88848 0.61016 0.77819 0.0
H4379 H 0.90065 0.58732 0.79004 0.0
H4380 H 0.86724 0.63031 0.78335 0.0
H4381 H 0.86975 0.58206 0.73648 0.0
H4382 H 0.8648 0.55105 0.71972 0.0
H4383 H 0.80807 0.5486 0.71598 0.0
H4384 H 0.81265 0.57949 0.73298 0.0
H4385 H 0.83456 0.68485 0.7275 0.0
H4386 H 0.85255 0.66361 0.73521 0.0
H4387 H 0.80432 0.62726 0.74174 0.0
H4388 H 0.7864 0.64822 0.73391 0.0
H4389 H 0.82841 0.60975 0.7259 0.0
H4390 H 0.8303 0.66003 0.77793 0.0
H4391 H 0.83933 0.69173 0.79272 0.0
H4392 H 0.89386 0.69071 0.7823 0.0
H4393 H 0.88511 0.65908 0.76733 0.0
C4394 C 0.857 0.56574 0.78169 0.0
C4395 C 0.87545 0.56821 0.78636 0.0
C4396 C 0.84997 0.57909 0.77528 0.0
C4397 C 0.86138 0.59482 0.77301 0.0
C4398 C 0.87945 0.59802 0.77951 0.0
C4399 C 0.88638 0.58492 0.78637 0.0
C4400 C 0.85477 0.60752 0.76308 0.0
C4401 C 0.85895 0.62578 0.77066 0.0
C4402 C 0.84438 0.60175 0.74624 0.0
C4403 C 0.84155 0.58306 0.73617 0.0
C4404 C 0.85621 0.57486 0.73222 0.0
C4405 C 0.85347 0.5573 0.72266 0.0
C4406 C 0.83613 0.54785 0.71682 0.0
C4407 C 0.8215 0.55593 0.72053 0.0
C4408 C 0.82416 0.57346 0.73013 0.0
C4409 C 0.82785 0.67218 0.73031 0.0
C4410 C 0.80912 0.66817 0.73023 0.0
C4411 C 0.83811 0.66012 0.73473 0.0
C4412 C 0.82975 0.64405 0.73936 0.0
C4413 C 0.81102 0.63962 0.73822 0.0
C4414 C 0.80078 0.65156 0.73368 0.0
C4415 C 0.84016 0.63224 0.74669 0.0
C4416 C 0.83688 0.61416 0.73849 0.0
C4417 C 0.85196 0.63826 0.76257 0.0
C4418 C 0.85702 0.6573 0.77135 0.0
C4419 C 0.84418 0.66663 0.77868 0.0
C4420 C 0.84926 0.68456 0.78712 0.0
C4421 C 0.86715 0.69324 0.7884 0.0
C4422 C 0.88001 0.684 0.78127 0.0
C4423 C 0.875 0.66608 0.77281 0.0
H4424 H 0.87105 0.70711 0.79496 0.0
H4425 H 0.83404 0.53427 0.70939 0.0
H4426 H 0.83371 0.67755 0.00208 0.0
H4427 H 0.86263 0.66851 0.00729 0.0
H4428 H 0.83516 0.61385 0.00243 0.0
H4429 H 0.80666 0.62265 0.99734 0.0
H4430 H 0.8574 0.62711 0.03457 0.0
H4431 H 0.85883 0.62723 0.96927 0.0
H4432 H 0.86008 0.64275 0.94337 0.0
H4433 H 0.90825 0.67844 0.96841 0.0
H4434 H 0.90716 0.66324 0.99455 0.0
H4435 H 0.90792 0.56153 0.02231 0.0
H4436 H 0.88759 0.58201 0.02016 0.0
H4437 H 0.93224 0.62421 0.01725 0.0
H4438 H 0.95267 0.60344 0.0188 0.0
H4439 H 0.90658 0.62595 0.9945 0.0
H4440 H 0.90943 0.62356 0.05641 0.0
H4441 H 0.90925 0.6108 0.0841 0.0
H4442 H 0.85492 0.58343 0.06896 0.0
H4443 H 0.85482 0.5958 0.04105 0.0
C4444 C 0.83397 0.66358 0.00174 0.0
C4445 C 0.81794 0.65082 -0.0005 0.0
C4446 C 0.85044 0.65845 0.0048 0.0
C4447 C 0.85095 0.64054 0.00548 0.0
C4448 C 0.83503 0.62777 0.00221 0.0
C4449 C 0.81875 0.63283 0.99925 0.0
C4450 C 0.86766 0.63472 0.01052 0.0
C4451 C 0.86819 0.62682 0.02583 0.0
C4452 C 0.88216 0.63528 -0.0003 0.0
C4453 C 0.8828 0.64424 0.98392 0.0
C4454 C 0.86961 0.63847 0.9693 0.0
C4455 C 0.87031 0.64719 0.95457 0.0
C4456 C 0.88421 0.66161 0.95427 0.0
C4457 C 0.89748 0.66729 0.96867 0.0
C4458 C 0.89683 0.65863 0.98343 0.0
C4459 C 0.91345 0.5752 0.02134 0.0
C4460 C 0.93194 0.58094 0.021 0.0
C4461 C 0.90181 0.58696 0.02021 0.0
C4462 C 0.90839 0.60485 0.01906 0.0
C4463 C 0.92684 0.61054 0.01831 0.0
C4464 C 0.9385 0.59867 0.0192 0.0
C4465 C 0.89574 0.61718 0.01794 0.0
C4466 C 0.89605 0.62648 0.00352 0.0
C4467 C 0.88214 0.61825 0.02985 0.0
C4468 C 0.88216 0.61057 0.04656 0.0
C4469 C 0.89748 0.61471 0.0589 0.0
C4470 C 0.89742 0.60756 0.07466 0.0
C4471 C 0.8821 0.59629 0.07827 0.0
C4472 C 0.86679 0.59216 0.06614 0.0
C4473 C 0.86677 0.59926 0.05036 0.0
H4474 H 0.88207 0.59079 0.09049 0.0
H4475 H 0.88472 0.66834 0.94285 0.0
H4476 H 0.20968 0.07046 0.77534 0.0
H4477 H 0.2262 0.10122 0.77599 0.0
H4478 H 0.18085 0.11258 0.74702 0.0
H4479 H 0.16455 0.0824 0.74644 0.0
H4480 H 0.20843 0.12828 0.73377 0.0
H4481 H 0.19398 0.12926 0.79435 0.0
H4482 H 0.19314 0.1199 0.82389 0.0
H4483 H 0.25051 0.13218 0.83144 0.0
H4484 H 0.2517 0.1414 0.8018 0.0
H4485 H 0.23349 0.22442 0.74675 0.0
H4486 H 0.21903 0.19344 0.74685 0.0
H4487 H 0.2654 0.1862 0.77759 0.0
H4488 H 0.27976 0.21728 0.77774 0.0
H4489 H 0.23843 0.16798 0.78994 0.0
H4490 H 0.25195 0.1679 0.72851 0.0
H4491 H 0.25136 0.17712 0.69887 0.0
H4492 H 0.19401 0.16317 0.69307 0.0
H4493 H 0.19423 0.1541 0.72277 0.0
C4494 C 0.20322 0.07941 0.769 0.0
C4495 C 0.18547 0.07337 0.76086 0.0
C4496 C 0.21271 0.09731 0.76949 0.0
C4497 C 0.20503 0.10997 0.76168 0.0
C4498 C 0.18752 0.10367 0.75323 0.0
C4499 C 0.17803 0.08606 0.75297 0.0
C4500 C 0.21475 0.12956 0.76211 0.0
C4501 C 0.2148 0.13687 0.7462 0.0
C4502 C 0.22355 0.14139 0.77802 0.0
C4503 C 0.22294 0.1358 0.79577 0.0
C4504 C 0.20642 0.12981 0.80224 0.0
C4505 C 0.20588 0.12456 0.81901 0.0
C4506 C 0.22176 0.12538 0.82951 0.0
C4507 C 0.23822 0.13151 0.82327 0.0
C4508 C 0.23884 0.13675 0.80649 0.0
C4509 C 0.24073 0.21634 0.75358 0.0
C4510 C 0.25808 0.22392 0.76219 0.0
C4511 C 0.23238 0.19826 0.75352 0.0
C4512 C 0.24092 0.18661 0.76195 0.0
C4513 C 0.25813 0.19431 0.77083 0.0
C4514 C 0.26649 0.21237 0.77087 0.0
C4515 C 0.2321 0.16672 0.76156 0.0
C4516 C 0.23217 0.15936 0.77748 0.0
C4517 C 0.22325 0.15484 0.74567 0.0
C4518 C 0.22311 0.16048 0.72793 0.0
C4519 C 0.23921 0.16694 0.72097 0.0
C4520 C 0.23894 0.17212 0.70416 0.0
C4521 C 0.22265 0.17075 0.69413 0.0
C4522 C 0.20661 0.16423 0.70088 0.0
C4523 C 0.2068 0.15907 0.71769 0.0
H4524 H 0.22243 0.17466 0.6811 0.0
H4525 H 0.22131 0.12132 0.8425 0.0
H4526 H 0.3653 0.98158 0.27629 0.0
H4527 H 0.34594 0.95287 0.27649 0.0
H4528 H 0.38767 0.92559 0.25748 0.0
H4529 H 0.4071 0.95415 0.257 0.0
H4530 H 0.3551 0.90989 0.2402 0.0
H4531 H 0.38193 0.93148 0.301 0.0
H4532 H 0.39017 0.95294 0.32972 0.0
H4533 H 0.33465 0.95213 0.3368 0.0
H4534 H 0.32609 0.93078 0.308 0.0
H4535 H 0.3336 0.82644 0.26233 0.0
H4536 H 0.34908 0.85735 0.26422 0.0
H4537 H 0.30118 0.87596 0.27969 0.0
H4538 H 0.28585 0.84494 0.27848 0.0
H4539 H 0.33361 0.89693 0.29824 0.0
H4540 H 0.30787 0.87183 0.23699 0.0
H4541 H 0.30211 0.84819 0.20971 0.0
H4542 H 0.35852 0.85407 0.20476 0.0
H4543 H 0.36462 0.87762 0.2321 0.0
C4544 C 0.37032 0.96946 0.27202 0.0
C4545 C 0.38774 0.97006 0.26675 0.0
C4546 C 0.35927 0.95315 0.2722 0.0
C4547 C 0.36557 0.93731 0.26722 0.0
C4548 C 0.38269 0.93779 0.26137 0.0
C4549 C 0.39373 0.95409 0.26112 0.0
C4550 C 0.3545 0.92017 0.26852 0.0
C4551 C 0.35042 0.90702 0.25287 0.0
C4552 C 0.34829 0.9167 0.28506 0.0
C4553 C 0.35338 0.92973 0.30224 0.0
C4554 C 0.37149 0.93603 0.30859 0.0
C4555 C 0.37621 0.94812 0.32491 0.0
C4556 C 0.36295 0.95394 0.33505 0.0
C4557 C 0.34492 0.94764 0.32891 0.0
C4558 C 0.34012 0.93553 0.3126 0.0
C4559 C 0.32655 0.83721 0.26634 0.0
C4560 C 0.30866 0.83368 0.27005 0.0
C4561 C 0.33531 0.85471 0.26743 0.0
C4562 C 0.32602 0.86866 0.27169 0.0
C4563 C 0.30839 0.8652 0.27632 0.0
C4564 C 0.29971 0.84765 0.27558 0.0
C4565 C 0.33447 0.88667 0.27 0.0
C4566 C 0.338 0.89997 0.28552 0.0
C4567 C 0.34041 0.89022 0.2534 0.0
C4568 C 0.3367 0.87647 0.23659 0.0
C4569 C 0.31904 0.86806 0.23008 0.0
C4570 C 0.31571 0.85468 0.21462 0.0
C4571 C 0.32994 0.84965 0.20551 0.0
C4572 C 0.34751 0.85802 0.21181 0.0
C4573 C 0.35091 0.87141 0.22726 0.0
H4574 H 0.32738 0.83928 0.19357 0.0
H4575 H 0.36663 0.96329 0.34769 0.0
H4576 H 0.54559 0.29289 0.5717 0.0
H4577 H 0.5435 0.31703 0.5552 0.0
H4578 H 0.58153 0.35359 0.59535 0.0
H4579 H 0.5827 0.32975 0.61238 0.0
H4580 H 0.55525 0.36795 0.58979 0.0
H4581 H 0.59149 0.33796 0.55059 0.0
H4582 H 0.60026 0.31227 0.53159 0.0
H4583 H 0.55218 0.30423 0.49644 0.0
H4584 H 0.54297 0.3297 0.51537 0.0
H4585 H 0.5558 0.43764 0.54007 0.0
H4586 H 0.56699 0.41454 0.55302 0.0
H4587 H 0.5232 0.37473 0.52377 0.0
H4588 H 0.51169 0.39779 0.51103 0.0
H4589 H 0.55645 0.3638 0.52364 0.0
H4590 H 0.51963 0.39231 0.56559 0.0
H4591 H 0.51119 0.4177 0.58541 0.0
H4592 H 0.56236 0.42871 0.61602 0.0
H4593 H 0.57122 0.40355 0.59618 0.0
C4594 C 0.55358 0.30607 0.57683 0.0
C4595 C 0.56417 0.30964 0.59328 0.0
C4596 C 0.55253 0.31979 0.56736 0.0
C4597 C 0.56257 0.33706 0.57393 0.0
C4598 C 0.57366 0.34038 0.59006 0.0
C4599 C 0.5743 0.32681 0.59977 0.0
C4600 C 0.56027 0.352 0.56489 0.0
C4601 C 0.55596 0.36719 0.57538 0.0
C4602 C 0.56087 0.35087 0.54606 0.0
C4603 C 0.5665 0.3357 0.53448 0.0
C4604 C 0.58274 0.33066 0.53887 0.0
C4605 C 0.58779 0.31614 0.5281 0.0
C4606 C 0.57677 0.30661 0.51284 0.0
C4607 C 0.5607 0.31162 0.50827 0.0
C4608 C 0.55557 0.32612 0.519 0.0
C4609 C 0.54855 0.42396 0.53643 0.0
C4610 C 0.53273 0.4195 0.52476 0.0
C4611 C 0.55503 0.41082 0.54372 0.0
C4612 C 0.54579 0.39307 0.53941 0.0
C4613 C 0.53048 0.38842 0.52715 0.0
C4614 C 0.52395 0.40157 0.51991 0.0
C4615 C 0.55134 0.37946 0.54856 0.0
C4616 C 0.55618 0.36459 0.53809 0.0
C4617 C 0.55146 0.38094 0.56746 0.0
C4618 C 0.54618 0.39621 0.57923 0.0
C4619 C 0.52916 0.40027 0.57641 0.0
C4620 C 0.52429 0.4146 0.58768 0.0
C4621 C 0.53626 0.42486 0.60192 0.0
C4622 C 0.55312 0.42079 0.60494 0.0
C4623 C 0.55808 0.40651 0.59369 0.0
H4624 H 0.53244 0.43591 0.61065 0.0
H4625 H 0.5807 0.29536 0.50453 0.0
H4626 H 0.44906 0.77872 0.37438 0.0
H4627 H 0.41791 0.78021 0.36708 0.0
H4628 H 0.43269 0.80301 0.32058 0.0
H4629 H 0.46389 0.80188 0.32787 0.0
H4630 H 0.40722 0.81891 0.33899 0.0
H4631 H 0.41893 0.75867 0.31609 0.0
H4632 H 0.42793 0.73053 0.3202 0.0
H4633 H 0.38774 0.72225 0.35705 0.0
H4634 H 0.37865 0.75045 0.35327 0.0
H4635 H 0.34485 0.79441 0.26443 0.0
H4636 H 0.37019 0.80008 0.28736 0.0
H4637 H 0.338 0.7684 0.31989 0.0
H4638 H 0.31344 0.76138 0.29644 0.0
H4639 H 0.36789 0.75944 0.31825 0.0
H4640 H 0.34953 0.81455 0.33187 0.0
H4641 H 0.33901 0.84083 0.32435 0.0
H4642 H 0.38957 0.85881 0.30479 0.0
H4643 H 0.4003 0.83244 0.3118 0.0
C4644 C 0.4457 0.78405 0.36259 0.0
C4645 C 0.45888 0.78997 0.35153 0.0
C4646 C 0.42796 0.78506 0.35859 0.0
C4647 C 0.42317 0.7918 0.3434 0.0
C4648 C 0.43628 0.79799 0.33252 0.0
C4649 C 0.45402 0.79708 0.33654 0.0
C4650 C 0.40433 0.79047 0.33737 0.0
C4651 C 0.39844 0.80599 0.33458 0.0
C4652 C 0.39282 0.77363 0.33232 0.0
C4653 C 0.39834 0.75676 0.33463 0.0
C4654 C 0.41214 0.75091 0.32519 0.0
C4655 C 0.41723 0.73495 0.32743 0.0
C4656 C 0.40847 0.72465 0.33895 0.0
C4657 C 0.39456 0.73027 0.34819 0.0
C4658 C 0.38944 0.74623 0.34601 0.0
C4659 C 0.34335 0.78856 0.27641 0.0
C4660 C 0.32725 0.7777 0.27888 0.0
C4661 C 0.35762 0.79206 0.28962 0.0
C4662 C 0.35569 0.78508 0.30552 0.0
C4663 C 0.33963 0.77411 0.30783 0.0
C4664 C 0.32562 0.7702 0.29446 0.0
C4665 C 0.37099 0.78779 0.31895 0.0
C4666 C 0.37618 0.77252 0.32329 0.0
C4667 C 0.38166 0.80488 0.32552 0.0
C4668 C 0.37574 0.82144 0.32237 0.0
C4669 C 0.35844 0.8241 0.32598 0.0
C4670 C 0.35241 0.839 0.32175 0.0
C4671 C 0.36361 0.85147 0.31408 0.0
C4672 C 0.38091 0.84914 0.31075 0.0
C4673 C 0.387 0.83423 0.31488 0.0
H4674 H 0.35888 0.86294 0.31072 0.0
H4675 H 0.41243 0.7123 0.34067 0.0
H4676 H 0.0783 0.69811 0.12288 0.0
H4677 H 0.07485 0.67044 0.10063 0.0
H4678 H 0.04359 0.69206 0.06381 0.0
H4679 H 0.04692 0.71973 0.08583 0.0
H4680 H 0.02929 0.65601 0.06959 0.0
H4681 H 0.08452 0.69287 0.05614 0.0
H4682 H 0.11453 0.7112 0.06617 0.0
H4683 H 0.13141 0.66649 0.08352 0.0
H4684 H 0.10143 0.64796 0.07378 0.0
H4685 H 0.02283 0.58252 0.00076 0.0
H4686 H 0.02917 0.61444 0.01398 0.0
H4687 H 0.07474 0.60711 0.04632 0.0
H4688 H 0.06924 0.57583 0.03238 0.0
H4689 H 0.08166 0.63816 0.04072 0.0
H4690 H 0.03086 0.60192 0.05916 0.0
H4691 H 0.00124 0.58221 0.05695 0.0
H4692 H 0.97647 0.62249 0.03938 0.0
H4693 H 0.00596 0.64213 0.04074 0.0
C4694 C 0.07064 0.69694 0.11007 0.0
C4695 C 0.06297 0.71107 0.106 0.0
C4696 C 0.06875 0.68121 0.09743 0.0
C4697 C 0.05914 0.67949 0.08068 0.0
C4698 C 0.05112 0.69335 0.07672 0.0
C4699 C 0.0531 0.7091 0.08927 0.0
C4700 C 0.05746 0.66319 0.06715 0.0
C4701 C 0.04059 0.65214 0.06293 0.0
C4702 C 0.07248 0.65813 0.05926 0.0
C4703 C 0.09073 0.66905 0.06426 0.0
C4704 C 0.09463 0.68696 0.0621 0.0
C4705 C 0.11163 0.69739 0.06775 0.0
C4706 C 0.12487 0.69002 0.07548 0.0
C4707 C 0.12116 0.67217 0.0775 0.0
C4708 C 0.10418 0.66169 0.07188 0.0
C4709 C 0.03451 0.58794 0.01027 0.0
C4710 C 0.04539 0.57678 0.01581 0.0
C4711 C 0.03807 0.60609 0.01784 0.0
C4712 C 0.05208 0.61297 0.03152 0.0
C4713 C 0.06382 0.60209 0.03584 0.0
C4714 C 0.06061 0.58416 0.02789 0.0
C4715 C 0.05332 0.63064 0.04299 0.0
C4716 C 0.07016 0.64203 0.04696 0.0
C4717 C 0.03837 0.6356 0.0514 0.0
C4718 C 0.02068 0.6234 0.04976 0.0
C4719 C 0.01913 0.60645 0.0545 0.0
C4720 C 0.00235 0.59527 0.05339 0.0
C4721 C 0.98698 0.60104 0.04793 0.0
C4722 C 0.98837 0.61793 0.04342 0.0
C4723 C 0.00512 0.62907 0.04429 0.0
H4724 H 0.974 0.59249 0.04735 0.0
H4725 H 0.138 0.69813 0.07991 0.0
H4726 H 0.05107 0.2937 0.85069 0.0
H4727 H 0.08032 0.29982 0.83943 0.0
H4728 H 0.10547 0.29476 0.89034 0.0
H4729 H 0.07599 0.28929 0.90209 0.0
H4730 H 0.12472 0.32218 0.87474 0.0
H4731 H 0.09853 0.25984 0.85785 0.0
H4732 H 0.07377 0.23448 0.84599 0.0
H4733 H 0.07205 0.25102 0.79469 0.0
H4734 H 0.09661 0.27666 0.80633 0.0
H4735 H 0.20153 0.30433 0.826 0.0
H4736 H 0.17777 0.30469 0.84649 0.0
H4737 H 0.14075 0.30864 0.80281 0.0
H4738 H 0.16409 0.30767 0.78221 0.0
H4739 H 0.13014 0.27975 0.81894 0.0
H4740 H 0.15472 0.34301 0.83617 0.0
H4741 H 0.17829 0.36942 0.84817 0.0
H4742 H 0.18294 0.35166 0.89864 0.0
H4743 H 0.1596 0.32495 0.88683 0.0
C4744 C 0.0628 0.29393 0.85954 0.0
C4745 C 0.06133 0.29067 0.87712 0.0
C4746 C 0.07948 0.29753 0.85312 0.0
C4747 C 0.09491 0.29738 0.86398 0.0
C4748 C 0.09362 0.29484 0.88181 0.0
C4749 C 0.07685 0.29157 0.88839 0.0
C4750 C 0.11204 0.29838 0.85592 0.0
C4751 C 0.12614 0.31276 0.86274 0.0
C4752 C 0.11367 0.28605 0.84027 0.0
C4753 C 0.0994 0.27019 0.83299 0.0
C4754 C 0.09286 0.25808 0.84405 0.0
C4755 C 0.07884 0.24367 0.83737 0.0
C4756 C 0.07134 0.24115 0.8196 0.0
C4757 C 0.07789 0.25298 0.80844 0.0
C4758 C 0.09188 0.26744 0.81507 0.0
C4759 C 0.18834 0.30542 0.82085 0.0
C4760 C 0.18456 0.30576 0.80249 0.0
C4761 C 0.1749 0.30582 0.83258 0.0
C4762 C 0.15761 0.30666 0.82606 0.0
C4763 C 0.15408 0.30799 0.80801 0.0
C4764 C 0.16744 0.30754 0.7963 0.0
C4765 C 0.14259 0.30401 0.83725 0.0
C4766 C 0.12892 0.28908 0.8311 0.0
C4767 C 0.14148 0.31583 0.85346 0.0
C4768 C 0.15559 0.33183 0.86051 0.0
C4769 C 0.16092 0.34461 0.84975 0.0
C4770 C 0.17421 0.35966 0.85653 0.0
C4771 C 0.18216 0.36218 0.87413 0.0
C4772 C 0.17681 0.34966 0.885 0.0
C4773 C 0.16355 0.33456 0.87826 0.0
H4774 H 0.19243 0.37385 0.87937 0.0
H4775 H 0.06045 0.23001 0.81447 0.0
H4776 H 0.5899 0.75 0.93249 0.0
H4777 H 0.57816 0.72256 0.94354 0.0
H4778 H 0.52581 0.72117 0.91819 0.0
H4779 H 0.53762 0.74816 0.90643 0.0
H4780 H 0.53431 0.71858 0.96102 0.0
H4781 H 0.53425 0.69306 0.89809 0.0
H4782 H 0.54752 0.68921 0.86903 0.0
H4783 H 0.59063 0.67012 0.89321 0.0
H4784 H 0.5778 0.67425 0.92256 0.0
H4785 H 0.50065 0.63439 0.98468 0.0
H4786 H 0.50461 0.65798 0.96667 0.0
H4787 H 0.56073 0.65644 0.9661 0.0
H4788 H 0.55701 0.63321 0.98431 0.0
H4789 H 0.54588 0.65939 0.93293 0.0
H4790 H 0.54757 0.68701 0.99577 0.0
H4791 H 0.53568 0.69212 0.0255 0.0
H4792 H 0.49023 0.70804 0.00175 0.0
H4793 H 0.50174 0.70274 0.97181 0.0
C4794 C 0.5759 0.74382 0.92933 0.0
C4795 C 0.56463 0.75106 0.91865 0.0
C4796 C 0.56926 0.72818 0.93553 0.0
C4797 C 0.55122 0.7199 0.93146 0.0
C4798 C 0.53981 0.72737 0.92124 0.0
C4799 C 0.54655 0.74272 0.9146 0.0
C4800 C 0.54433 0.70365 0.93842 0.0
C4801 C 0.53641 0.70552 0.95471 0.0
C4802 C 0.54746 0.68683 0.93021 0.0
C4803 C 0.5552 0.68423 0.9126 0.0
C4804 C 0.5467 0.68829 0.89729 0.0
C4805 C 0.55411 0.686 0.88074 0.0
C4806 C 0.56995 0.67949 0.87929 0.0
C4807 C 0.57839 0.67521 0.89437 0.0
C4808 C 0.57105 0.67752 0.91097 0.0
C4809 C 0.51384 0.63915 0.9808 0.0
C4810 C 0.52853 0.632 0.98604 0.0
C4811 C 0.51604 0.6525 0.97038 0.0
C4812 C 0.53297 0.65895 0.96511 0.0
C4813 C 0.54753 0.65152 0.96991 0.0
C4814 C 0.54537 0.63825 0.98034 0.0
C4815 C 0.53593 0.67429 0.95571 0.0
C4816 C 0.5433 0.67231 0.93904 0.0
C4817 C 0.5323 0.69107 0.96357 0.0
C4818 C 0.52538 0.69424 0.98153 0.0
C4819 C 0.53495 0.69143 0.99686 0.0
C4820 C 0.5283 0.69439 0.01375 0.0
C4821 C 0.51218 0.70034 0.0155 0.0
C4822 C 0.50269 0.70338 0.00037 0.0
C4823 C 0.50927 0.7004 0.98344 0.0
H4824 H 0.50706 0.70264 0.0286 0.0
H4825 H 0.57567 0.67771 0.86646 0.0
H4826 H 0.06073 0.7698 0.63265 0.0
H4827 H 0.08922 0.77104 0.64974 0.0
H4828 H 0.06153 0.76375 0.69699 0.0
H4829 H 0.03313 0.76304 0.68017 0.0
H4830 H 0.09001 0.78959 0.70522 0.0
H4831 H 0.07679 0.72927 0.67131 0.0
H4832 H 0.06966 0.70575 0.64398 0.0
H4833 H 0.11826 0.72759 0.62304 0.0
H4834 H 0.12559 0.75136 0.65017 0.0
H4835 H 0.15314 0.75792 0.75765 0.0
H4836 H 0.12744 0.76369 0.74019 0.0
H4837 H 0.16054 0.77349 0.69709 0.0
H4838 H 0.18605 0.7674 0.71443 0.0
H4839 H 0.1309 0.74859 0.68548 0.0
H4840 H 0.1452 0.80725 0.72185 0.0
H4841 H 0.15214 0.82941 0.75016 0.0
H4842 H 0.10085 0.80964 0.76732 0.0
H4843 H 0.09378 0.78702 0.73931 0.0
C4844 C 0.06078 0.7685 0.64669 0.0
C4845 C 0.04484 0.76639 0.65516 0.0
C4846 C 0.07699 0.76911 0.65638 0.0
C4847 C 0.07737 0.76732 0.67453 0.0
C4848 C 0.06145 0.76522 0.68298 0.0
C4849 C 0.04528 0.76482 0.67338 0.0
C4850 C 0.09439 0.76796 0.68492 0.0
C4851 C 0.0989 0.78053 0.70102 0.0
C4852 C 0.10611 0.75642 0.67908 0.0
C4853 C 0.10163 0.74222 0.66268 0.0
C4854 C 0.08588 0.72916 0.6608 0.0
C4855 C 0.08182 0.71576 0.64537 0.0
C4856 C 0.09347 0.71521 0.63176 0.0
C4857 C 0.10923 0.72804 0.63358 0.0
C4858 C 0.11335 0.74147 0.64898 0.0
C4859 C 0.15487 0.76171 0.74463 0.0
C4860 C 0.17128 0.76227 0.73721 0.0
C4861 C 0.14033 0.76504 0.73472 0.0
C4862 C 0.14221 0.76907 0.71742 0.0
C4863 C 0.1589 0.7704 0.71041 0.0
C4864 C 0.17338 0.76699 0.72027 0.0
C4865 C 0.1264 0.77006 0.70594 0.0
C4866 C 0.12211 0.75779 0.6896 0.0
C4867 C 0.1148 0.78174 0.71165 0.0
C4868 C 0.11901 0.79536 0.72851 0.0
C4869 C 0.13546 0.80752 0.73172 0.0
C4870 C 0.1394 0.82019 0.74771 0.0
C4871 C 0.12692 0.82098 0.76051 0.0
C4872 C 0.11049 0.80904 0.75738 0.0
C4873 C 0.10652 0.79628 0.74145 0.0
H4874 H 0.12999 0.83084 0.77286 0.0
H4875 H 0.09032 0.70482 0.61983 0.0
H4876 H 0.09809 0.37865 0.40178 0.0
H4877 H 0.08919 0.40568 0.41721 0.0
H4878 H 0.05668 0.37468 0.44988 0.0
H4879 H 0.0656 0.34754 0.43461 0.0
H4880 H 0.03881 0.39751 0.43254 0.0
H4881 H 0.09295 0.39952 0.46932 0.0
H4882 H 0.12497 0.39932 0.47529 0.0
H4883 H 0.13892 0.44609 0.45189 0.0
H4884 H 0.10694 0.44641 0.44554 0.0
H4885 H 0.02541 0.46329 0.50624 0.0
H4886 H 0.03171 0.43772 0.48521 0.0
H4887 H 0.06302 0.47382 0.45618 0.0
H4888 H 0.0568 0.49932 0.47731 0.0
H4889 H 0.08116 0.44953 0.46879 0.0
H4890 H 0.02716 0.44951 0.43476 0.0
H4891 H 0.99523 0.4502 0.42922 0.0
H4892 H 0.98081 0.40039 0.44727 0.0
H4893 H 0.01269 0.39953 0.45322 0.0
C4894 C 0.08925 0.37762 0.41243 0.0
C4895 C 0.08254 0.36101 0.41702 0.0
C4896 C 0.08417 0.39304 0.42118 0.0
C4897 C 0.07223 0.39205 0.43455 0.0
C4898 C 0.06585 0.37559 0.43949 0.0
C4899 C 0.0711 0.36018 0.4309 0.0
C4900 C 0.06617 0.40819 0.44314 0.0
C4901 C 0.04798 0.40884 0.44065 0.0
C4902 C 0.07834 0.4231 0.45311 0.0
C4903 C 0.09756 0.42284 0.45675 0.0
C4904 C 0.10284 0.40964 0.46526 0.0
C4905 C 0.12098 0.40954 0.46876 0.0
C4906 C 0.13397 0.42265 0.46391 0.0
C4907 C 0.12884 0.43592 0.45559 0.0
C4908 C 0.11071 0.43607 0.45205 0.0
C4909 C 0.03328 0.46564 0.49509 0.0
C4910 C 0.04036 0.48306 0.49298 0.0
C4911 C 0.03677 0.45113 0.48308 0.0
C4912 C 0.04765 0.45398 0.46909 0.0
C4913 C 0.05441 0.47143 0.46677 0.0
C4914 C 0.05072 0.48592 0.47866 0.0
C4915 C 0.05374 0.43881 0.45845 0.0
C4916 C 0.07197 0.43831 0.46053 0.0
C4917 C 0.04159 0.4241 0.4481 0.0
C4918 C 0.02236 0.42455 0.44461 0.0
C4919 C 0.0172 0.43879 0.43774 0.0
C4920 C 0.9991 0.43919 0.43448 0.0
C4921 C 0.986 0.42537 0.43793 0.0
C4922 C 0.99098 0.41109 0.44462 0.0
C4923 C 0.00907 0.41064 0.44792 0.0
H4924 H 0.97199 0.42569 0.43539 0.0
H4925 H 0.14801 0.42256 0.46665 0.0
H4926 H 0.43887 0.27038 0.1476 0.0
H4927 H 0.41165 0.27521 0.16177 0.0
H4928 H 0.42044 0.23953 0.19782 0.0
H4929 H 0.44724 0.23438 0.18373 0.0
H4930 H 0.3848 0.23584 0.18518 0.0
H4931 H 0.43746 0.28486 0.20949 0.0
H4932 H 0.46048 0.30971 0.20395 0.0
H4933 H 0.4196 0.33407 0.18312 0.0
H4934 H 0.39639 0.30928 0.18841 0.0
H4935 H 0.34099 0.25046 0.2609 0.0
H4936 H 0.36716 0.24965 0.24359 0.0
H4937 H 0.35789 0.29625 0.22318 0.0
H4938 H 0.33288 0.29785 0.24161 0.0
H4939 H 0.39058 0.29618 0.22281 0.0
H4940 H 0.33773 0.25278 0.20323 0.0
H4941 H 0.31253 0.22785 0.20328 0.0
H4942 H 0.34929 0.1928 0.20812 0.0
H4943 H 0.37471 0.21767 0.20904 0.0
C4944 C 0.4348 0.26335 0.15835 0.0
C4945 C 0.44532 0.25228 0.16483 0.0
C4946 C 0.41932 0.26613 0.16637 0.0
C4947 C 0.41434 0.25789 0.18091 0.0
C4948 C 0.42418 0.24599 0.18659 0.0
C4949 C 0.43956 0.24319 0.17862 0.0
C4950 C 0.39999 0.26268 0.19161 0.0
C4951 C 0.38595 0.24899 0.19348 0.0
C4952 C 0.40128 0.28006 0.20168 0.0
C4953 C 0.41524 0.29523 0.19927 0.0
C4954 C 0.43341 0.29554 0.20374 0.0
C4955 C 0.44648 0.30959 0.20063 0.0
C4956 C 0.44151 0.32345 0.19317 0.0
C4957 C 0.42344 0.32334 0.1889 0.0
C4958 C 0.41033 0.30931 0.19198 0.0
C4959 C 0.34525 0.26097 0.25342 0.0
C4960 C 0.33525 0.27421 0.25241 0.0
C4961 C 0.35994 0.26041 0.24338 0.0
C4962 C 0.36394 0.27248 0.2316 0.0
C4963 C 0.35495 0.28674 0.23207 0.0
C4964 C 0.34071 0.28767 0.24259 0.0
C4965 C 0.37574 0.26899 0.21723 0.0
C4966 C 0.38918 0.28301 0.21451 0.0
C4967 C 0.3735 0.25197 0.20591 0.0
C4968 C 0.35817 0.23717 0.20632 0.0
C4969 C 0.34046 0.23984 0.20462 0.0
C4970 C 0.32613 0.22571 0.20451 0.0
C4971 C 0.32931 0.20876 0.2057 0.0
C4972 C 0.34683 0.20595 0.20728 0.0
C4973 C 0.36121 0.22008 0.2077 0.0
H4974 H 0.3182 0.19778 0.20524 0.0
H4975 H 0.45164 0.33428 0.19071 0.0
H4976 H 0.62867 0.49059 0.32077 0.0
H4977 H 0.6154 0.49125 0.34999 0.0
H4978 H 0.60261 0.54246 0.34686 0.0
H4979 H 0.6155 0.54179 0.31806 0.0
H4980 H 0.61349 0.54436 0.38047 0.0
H4981 H 0.57039 0.50045 0.33963 0.0
H4982 H 0.55927 0.47255 0.31764 0.0
H4983 H 0.57428 0.44198 0.35615 0.0
H4984 H 0.58571 0.46973 0.37831 0.0
H4985 H 0.55737 0.55364 0.45352 0.0
H4986 H 0.57026 0.5508 0.42446 0.0
H4987 H 0.57232 0.49592 0.42593 0.0
H4988 H 0.55822 0.49848 0.4544 0.0
H4989 H 0.56792 0.49499 0.39334 0.0
H4990 H 0.61182 0.53822 0.43397 0.0
H4991 H 0.62324 0.56586 0.45628 0.0
H4992 H 0.60801 0.59719 0.4186 0.0
H4993 H 0.59633 0.56972 0.39613 0.0
C4994 C 0.62318 0.50208 0.3263 0.0
C4995 C 0.62348 0.51614 0.31648 0.0
C4996 C 0.61531 0.50241 0.34319 0.0
C4997 C 0.60754 0.51691 0.35126 0.0
C4998 C 0.60827 0.531 0.34156 0.0
C4999 C 0.61579 0.53055 0.32473 0.0
C5000 C 0.59883 0.51785 0.36955 0.0
C5001 C 0.60341 0.5335 0.38304 0.0
C5002 C 0.58579 0.50385 0.37389 0.0
C5003 C 0.57912 0.48718 0.36055 0.0
C5004 C 0.57148 0.48779 0.34335 0.0
C5005 C 0.56509 0.472 0.33087 0.0
C5006 C 0.56613 0.45551 0.33547 0.0
C5007 C 0.57353 0.45477 0.35259 0.0
C5008 C 0.57996 0.47052 0.36512 0.0
C5009 C 0.56049 0.54089 0.44773 0.0
C5010 C 0.55651 0.52636 0.45687 0.0
C5011 C 0.56826 0.53927 0.43089 0.0
C5012 C 0.57323 0.52321 0.42241 0.0
C5013 C 0.569 0.50863 0.43151 0.0
C5014 C 0.56082 0.51013 0.44814 0.0
C5015 C 0.58258 0.52156 0.40438 0.0
C5016 C 0.57809 0.50582 0.3909 0.0
C5017 C 0.59589 0.53541 0.40008 0.0
C5018 C 0.60307 0.55193 0.41345 0.0
C5019 C 0.61086 0.55101 0.43048 0.0
C5020 C 0.61737 0.56664 0.44315 0.0
C5021 C 0.61631 0.58327 0.43887 0.0
C5022 C 0.6088 0.5843 0.4219 0.0
C5023 C 0.60225 0.56871 0.40918 0.0
H5024 H 0.62134 0.59535 0.44871 0.0
H5025 H 0.56115 0.44329 0.3258 0.0
H5026 H 0.2754 0.9307 0.06681 0.0
H5027 H 0.28371 0.91556 0.09094 0.0
H5028 H 0.28212 0.8675 0.05169 0.0
H5029 H 0.273 0.88229 0.02777 0.0
H5030 H 0.26704 0.8587 0.07852 0.0
H5031 H 0.32253 0.89749 0.07309 0.0
H5032 H 0.34291 0.92603 0.07273 0.0
H5033 H 0.33325 0.94583 0.12726 0.0
H5034 H 0.31261 0.9175 0.12787 0.0
H5035 H 0.30494 0.81071 0.13463 0.0
H5036 H 0.30558 0.82931 0.11157 0.0
H5037 H 0.29648 0.87326 0.15117 0.0
H5038 H 0.29632 0.85488 0.17442 0.0
H5039 H 0.31833 0.88434 0.12457 0.0
H5040 H 0.26157 0.84604 0.12876 0.0
H5041 H 0.2427 0.81682 0.12965 0.0
H5042 H 0.25622 0.79582 0.07687 0.0
H5043 H 0.27542 0.82487 0.07581 0.0
C5044 C 0.27674 0.91687 0.06338 0.0
C5045 C 0.27345 0.90766 0.04541 0.0
C5046 C 0.28168 0.90827 0.07716 0.0
C5047 C 0.28388 0.89043 0.07316 0.0
C5048 C 0.28053 0.88125 0.05519 0.0
C5049 C 0.27527 0.88972 0.0415 0.0
C5050 C 0.28894 0.88099 0.08764 0.0
C5051 C 0.27846 0.86426 0.08835 0.0
C5052 C 0.30359 0.88832 0.10086 0.0
C5053 C 0.31587 0.90543 0.10045 0.0
C5054 C 0.32462 0.90799 0.08495 0.0
C5055 C 0.33625 0.92412 0.08471 0.0
C5056 C 0.33933 0.93775 0.09995 0.0
C5057 C 0.33082 0.93527 0.11546 0.0
C5058 C 0.31917 0.91918 0.11576 0.0
C5059 C 0.30368 0.82451 0.13856 0.0
C5060 C 0.30022 0.83124 0.15624 0.0
C5061 C 0.30397 0.8351 0.12536 0.0
C5062 C 0.30071 0.85253 0.12961 0.0
C5063 C 0.29891 0.85981 0.14759 0.0
C5064 C 0.29864 0.84924 0.16081 0.0
C5065 C 0.2966 0.86214 0.11506 0.0
C5066 C 0.30708 0.87886 0.11452 0.0
C5067 C 0.28203 0.85483 0.10189 0.0
C5068 C 0.27002 0.83757 0.10226 0.0
C5069 C 0.26056 0.83517 0.11738 0.0
C5070 C 0.24982 0.81864 0.11792 0.0
C5071 C 0.24829 0.80446 0.10334 0.0
C5072 C 0.25744 0.80681 0.08816 0.0
C5073 C 0.26824 0.82331 0.08757 0.0
H5074 H 0.23998 0.79166 0.10379 0.0
H5075 H 0.34835 0.95022 0.09974 0.0
H5076 H 0.97423 0.53712 0.81628 0.0
H5077 H 0.98676 0.53825 0.84704 0.0
H5078 H 0.93499 0.51351 0.86037 0.0
H5079 H 0.92223 0.51332 0.82996 0.0
H5080 H 0.95065 0.53778 0.88754 0.0
H5081 H 0.96804 0.48863 0.84877 0.0
H5082 H 0.98131 0.47397 0.82263 0.0
H5083 H 0.0321 0.50868 0.84052 0.0
H5084 H 0.01909 0.52363 0.8667 0.0
H5085 H 0.98185 0.50457 0.96256 0.0
H5086 H 0.96856 0.50606 0.93285 0.0
H5087 H 0.0184 0.53703 0.92189 0.0
H5088 H 0.03191 0.53536 0.95133 0.0
H5089 H 0.00351 0.50973 0.89404 0.0
H5090 H 0.9853 0.55793 0.934 0.0
H5091 H 0.97175 0.57004 0.96117 0.0
H5092 H 0.92172 0.53466 0.94157 0.0
H5093 H 0.93504 0.52218 0.91439 0.0
C5094 C 0.96556 0.5321 0.82589 0.0
C5095 C 0.94738 0.52504 0.82091 0.0
C5096 C 0.97269 0.53269 0.84335 0.0
C5097 C 0.96184 0.52559 0.85577 0.0
C5098 C 0.94355 0.51903 0.85094 0.0
C5099 C 0.93631 0.51889 0.83362 0.0
C5100 C 0.9697 0.52435 0.87356 0.0
C5101 C 0.9621 0.5315 0.88897 0.0
C5102 C 0.98472 0.51628 0.87534 0.0
C5103 C 0.99255 0.50734 0.85958 0.0
C5104 C 0.98201 0.4932 0.84705 0.0
C5105 C 0.98949 0.48483 0.83225 0.0
C5106 C 0.00753 0.49042 0.82989 0.0
C5107 C 0.01813 0.50437 0.84236 0.0
C5108 C 0.01072 0.51278 0.85719 0.0
C5109 C 0.98998 0.51162 0.95378 0.0
C5110 C 0.00787 0.51986 0.95919 0.0
C5111 C 0.98237 0.51252 0.93692 0.0
C5112 C 0.99252 0.52185 0.92547 0.0
C5113 C 0.01044 0.52982 0.93069 0.0
C5114 C 0.0181 0.52882 0.94746 0.0
C5115 C 0.98454 0.52323 0.90788 0.0
C5116 C 0.9921 0.51606 0.89255 0.0
C5117 C 0.9694 0.53108 0.90621 0.0
C5118 C 0.96119 0.53906 0.92221 0.0
C5119 C 0.97142 0.55271 0.93551 0.0
C5120 C 0.96379 0.55963 0.95091 0.0
C5121 C 0.9459 0.55311 0.95311 0.0
C5122 C 0.93557 0.53971 0.93985 0.0
C5123 C 0.94315 0.53273 0.92443 0.0
H5124 H 0.94003 0.55844 0.96507 0.0
H5125 H 0.01329 0.48392 0.81842 0.0
H5126 H 0.28124 0.22935 0.54601 0.0
H5127 H 0.285 0.24621 0.5772 0.0
H5128 H 0.28047 0.19685 0.59712 0.0
H5129 H 0.27641 0.18012 0.56643 0.0
H5130 H 0.25887 0.21568 0.61265 0.0
H5131 H 0.32041 0.22677 0.60023 0.0
H5132 H 0.34665 0.23747 0.58469 0.0
H5133 H 0.33684 0.29089 0.59642 0.0
H5134 H 0.31037 0.28045 0.61183 0.0
H5135 H 0.29604 0.24084 0.70428 0.0
H5136 H 0.29435 0.23084 0.67155 0.0
H5137 H 0.27823 0.27952 0.66339 0.0
H5138 H 0.27934 0.28944 0.69621 0.0
H5139 H 0.30867 0.26482 0.64139 0.0
H5140 H 0.24747 0.25132 0.65701 0.0
H5141 H 0.22325 0.23827 0.67379 0.0
H5142 H 0.23482 0.18613 0.65636 0.0
H5143 H 0.25947 0.19895 0.64007 0.0
C5144 C 0.28119 0.22216 0.55708 0.0
C5145 C 0.27826 0.20337 0.5537 0.0
C5146 C 0.28341 0.2318 0.57488 0.0
C5147 C 0.28293 0.22279 0.58954 0.0
C5148 C 0.28069 0.20412 0.58609 0.0
C5149 C 0.27834 0.19455 0.56846 0.0
C5150 C 0.28359 0.23234 0.60851 0.0
C5151 C 0.26984 0.22637 0.61889 0.0
C5152 C 0.29767 0.24657 0.61665 0.0
C5153 C 0.31324 0.25277 0.60692 0.0
C5154 C 0.32369 0.24075 0.59927 0.0
C5155 C 0.33865 0.24678 0.59055 0.0
C5156 C 0.34336 0.26483 0.5895 0.0
C5157 C 0.33313 0.2769 0.59719 0.0
C5158 C 0.31815 0.27093 0.60591 0.0
C5159 C 0.29227 0.2495 0.69554 0.0
C5160 C 0.28778 0.26591 0.70281 0.0
C5161 C 0.29129 0.24375 0.67686 0.0
C5162 C 0.28615 0.25445 0.66512 0.0
C5163 C 0.28224 0.27111 0.67228 0.0
C5164 C 0.28282 0.2767 0.69099 0.0
C5165 C 0.28421 0.24776 0.64539 0.0
C5166 C 0.29763 0.25429 0.63495 0.0
C5167 C 0.27005 0.23373 0.63722 0.0
C5168 C 0.25552 0.22616 0.64754 0.0
C5169 C 0.24508 0.23713 0.65706 0.0
C5170 C 0.23123 0.22976 0.66647 0.0
C5171 C 0.22756 0.21139 0.66628 0.0
C5172 C 0.23774 0.20037 0.65668 0.0
C5173 C 0.25167 0.20769 0.64738 0.0
H5174 H 0.21676 0.2057 0.67349 0.0
H5175 H 0.35498 0.26949 0.58278 0.0
H5176 H 0.65351 0.51568 0.19113 0.0
H5177 H 0.63849 0.5192 0.16283 0.0
H5178 H 0.5873 0.50276 0.18219 0.0
H5179 H 0.60239 0.49927 0.21068 0.0
H5180 H 0.58444 0.48855 0.14674 0.0
H5181 H 0.60536 0.54793 0.17902 0.0
H5182 H 0.6272 0.5737 0.1961 0.0
H5183 H 0.65854 0.57393 0.15069 0.0
H5184 H 0.637 0.54798 0.1334 0.0
H5185 H 0.53587 0.52482 0.07888 0.0
H5186 H 0.54961 0.5209 0.10793 0.0
H5187 H 0.60011 0.52158 0.08533 0.0
H5188 H 0.58626 0.52459 0.05615 0.0
H5189 H 0.6023 0.54411 0.12269 0.0
H5190 H 0.58132 0.48441 0.09063 0.0
H5191 H 0.55914 0.45894 0.07356 0.0
H5192 H 0.52734 0.4599 0.11868 0.0
H5193 H 0.54922 0.4856 0.13594 0.0
C5194 C 0.63903 0.51276 0.18952 0.0
C5195 C 0.62943 0.50716 0.20371 0.0
C5196 C 0.6303 0.51491 0.1731 0.0
C5197 C 0.61141 0.51153 0.1698 0.0
C5198 C 0.60177 0.50559 0.18384 0.0
C5199 C 0.61053 0.50361 0.2004 0.0
C5200 C 0.60197 0.51438 0.15203 0.0
C5201 C 0.5883 0.50088 0.14178 0.0
C5202 C 0.60671 0.53023 0.14471 0.0
C5203 C 0.61966 0.54588 0.15498 0.0
C5204 C 0.61698 0.55339 0.17272 0.0
C5205 C 0.62929 0.56804 0.18243 0.0
C5206 C 0.64428 0.57541 0.1745 0.0
C5207 C 0.64694 0.56818 0.15682 0.0
C5208 C 0.63468 0.55351 0.14705 0.0
C5209 C 0.54992 0.52419 0.08002 0.0
C5210 C 0.55976 0.52511 0.06474 0.0
C5211 C 0.55787 0.52188 0.09681 0.0
C5212 C 0.57618 0.52093 0.09936 0.0
C5213 C 0.58607 0.52226 0.08422 0.0
C5214 C 0.57801 0.52398 0.06731 0.0
C5215 C 0.58493 0.51829 0.11746 0.0
C5216 C 0.59845 0.53183 0.12773 0.0
C5217 C 0.58001 0.50253 0.1248 0.0
C5218 C 0.5668 0.4871 0.1145 0.0
C5219 C 0.5695 0.47933 0.09685 0.0
C5220 C 0.557 0.46482 0.08714 0.0
C5221 C 0.54181 0.45784 0.095 0.0
C5222 C 0.5391 0.46535 0.1126 0.0
C5223 C 0.55155 0.47989 0.12235 0.0
H5224 H 0.53217 0.44659 0.08748 0.0
H5225 H 0.6538 0.58676 0.18204 0.0
H5226 H 0.28571 0.89083 0.95572 0.0
H5227 H 0.29077 0.86876 0.92994 0.0
H5228 H 0.2555 0.88836 0.89524 0.0
H5229 H 0.25088 0.91089 0.92077 0.0
H5230 H 0.25167 0.8462 0.8961 0.0
H5231 H 0.29153 0.90143 0.88856 0.0
H5232 H 0.31607 0.92716 0.89988 0.0
H5233 H 0.35133 0.89158 0.90843 0.0
H5234 H 0.32687 0.86563 0.89748 0.0
H5235 H 0.2576 0.80652 0.80724 0.0
H5236 H 0.2558 0.82609 0.83553 0.0
H5237 H 0.31012 0.82409 0.85268 0.0
H5238 H 0.31234 0.80516 0.82347 0.0
H5239 H 0.3064 0.85563 0.86377 0.0
H5240 H 0.27063 0.80092 0.87013 0.0
H5241 H 0.24762 0.77335 0.86214 0.0
H5242 H 0.20674 0.80446 0.85998 0.0
H5243 H 0.22954 0.83223 0.86773 0.0
C5244 C 0.27895 0.89038 0.94262 0.0
C5245 C 0.26785 0.90262 0.94032 0.0
C5246 C 0.28193 0.87781 0.9279 0.0
C5247 C 0.27357 0.87696 0.91066 0.0
C5248 C 0.26212 0.88882 0.90841 0.0
C5249 C 0.2595 0.90169 0.92301 0.0
C5250 C 0.27668 0.86369 0.89494 0.0
C5251 C 0.26353 0.8483 0.88888 0.0
C5252 C 0.29258 0.866 0.88612 0.0
C5253 C 0.3073 0.8816 0.89245 0.0
C5254 C 0.30445 0.8991 0.89306 0.0
C5255 C 0.31836 0.91372 0.89936 0.0
C5256 C 0.33523 0.91101 0.90494 0.0
C5257 C 0.33825 0.89367 0.90415 0.0
C5258 C 0.32436 0.879 0.8979 0.0
C5259 C 0.26916 0.81002 0.81706 0.0
C5260 C 0.28504 0.80397 0.81313 0.0
C5261 C 0.26807 0.82123 0.83341 0.0
C5262 C 0.2826 0.82629 0.84673 0.0
C5263 C 0.2986 0.82035 0.84282 0.0
C5264 C 0.29985 0.80942 0.82613 0.0
C5265 C 0.28102 0.83816 0.86433 0.0
C5266 C 0.29451 0.85331 0.87091 0.0
C5267 C 0.26563 0.83533 0.87401 0.0
C5268 C 0.25183 0.81867 0.86939 0.0
C5269 C 0.25675 0.80189 0.86784 0.0
C5270 C 0.24374 0.78622 0.86337 0.0
C5271 C 0.22573 0.78715 0.86052 0.0
C5272 C 0.2207 0.80376 0.86218 0.0
C5273 C 0.23366 0.81947 0.86664 0.0
H5274 H 0.21568 0.77501 0.85705 0.0
H5275 H 0.34598 0.92235 0.90981 0.0
H5276 H 0.89237 0.50769 0.70924 0.0
H5277 H 0.90462 0.49541 0.68151 0.0
H5278 H 0.95791 0.52073 0.70499 0.0
H5279 H 0.94594 0.53329 0.73234 0.0
H5280 H 0.94908 0.52915 0.67278 0.0
H5281 H 0.94665 0.47798 0.70086 0.0
H5282 H 0.93273 0.45276 0.71451 0.0
H5283 H 0.89955 0.42982 0.66525 0.0
H5284 H 0.9131 0.45506 0.65138 0.0
H5285 H 0.01342 0.49336 0.62765 0.0
H5286 H 0.98963 0.48441 0.64647 0.0
H5287 H 0.95086 0.49614 0.60893 0.0
H5288 H 0.97461 0.50536 0.59023 0.0
H5289 H 0.94817 0.46594 0.64518 0.0
H5290 H 0.94873 0.53107 0.6272 0.0
H5291 H 0.96786 0.55704 0.61845 0.0
H5292 H 0.0113 0.55208 0.65461 0.0
H5293 H 0.99241 0.52606 0.66343 0.0
C5294 C 0.90668 0.51075 0.70836 0.0
C5295 C 0.91823 0.52161 0.7228 0.0
C5296 C 0.91362 0.50349 0.6927 0.0
C5297 C 0.9321 0.50706 0.69145 0.0
C5298 C 0.94359 0.51781 0.70587 0.0
C5299 C 0.93672 0.52511 0.72138 0.0
C5300 C 0.93962 0.50158 0.67448 0.0
C5301 C 0.94858 0.5153 0.66664 0.0
C5302 C 0.93915 0.48351 0.66671 0.0
C5303 C 0.93068 0.46857 0.67518 0.0
C5304 C 0.9362 0.4677 0.69302 0.0
C5305 C 0.92843 0.45336 0.70077 0.0
C5306 C 0.91521 0.43974 0.69078 0.0
C5307 C 0.90975 0.44041 0.67299 0.0
C5308 C 0.91747 0.45473 0.66518 0.0
C5309 C 0.9997 0.49318 0.62301 0.0
C5310 C 0.99575 0.50048 0.6079 0.0
C5311 C 0.98612 0.48784 0.63361 0.0
C5312 C 0.96864 0.48979 0.62905 0.0
C5313 C 0.96431 0.49448 0.61251 0.0
C5314 C 0.97788 0.5 0.60204 0.0
C5315 C 0.95743 0.49356 0.64372 0.0
C5316 C 0.94795 0.47967 0.65109 0.0
C5317 C 0.95782 0.51151 0.65165 0.0
C5318 C 0.96929 0.52664 0.6458 0.0
C5319 C 0.96239 0.53552 0.63318 0.0
C5320 C 0.97317 0.55023 0.62824 0.0
C5321 C 0.99077 0.55621 0.63599 0.0
C5322 C 0.99768 0.54743 0.6486 0.0
C5323 C 0.98697 0.53269 0.65353 0.0
H5324 H 0.99907 0.56761 0.63218 0.0
H5325 H 0.90924 0.42862 0.69679 0.0
H5326 H 0.28329 0.18336 0.42536 0.0
H5327 H 0.28553 0.19553 0.39778 0.0
H5328 H 0.28193 0.24739 0.42745 0.0
H5329 H 0.27924 0.23509 0.45523 0.0
H5330 H 0.2613 0.24012 0.39653 0.0
H5331 H 0.32201 0.23823 0.41266 0.0
H5332 H 0.34713 0.22483 0.42186 0.0
H5333 H 0.33644 0.18563 0.37289 0.0
H5334 H 0.31108 0.19863 0.3635 0.0
H5335 H 0.28341 0.28298 0.32304 0.0
H5336 H 0.28442 0.27386 0.35226 0.0
H5337 H 0.28675 0.22032 0.32623 0.0
H5338 H 0.28617 0.22951 0.29676 0.0
H5339 H 0.30921 0.23045 0.35637 0.0
H5340 H 0.24739 0.23191 0.34127 0.0
H5341 H 0.22264 0.24589 0.3322 0.0
H5342 H 0.23611 0.28687 0.37964 0.0
H5343 H 0.26111 0.27326 0.38889 0.0
C5344 C 0.28309 0.19739 0.42611 0.0
C5345 C 0.28117 0.20826 0.44258 0.0
C5346 C 0.28445 0.20438 0.41028 0.0
C5347 C 0.28418 0.22248 0.41048 0.0
C5348 C 0.28224 0.2334 0.42691 0.0
C5349 C 0.28078 0.22637 0.44281 0.0
C5350 C 0.28546 0.22972 0.39341 0.0
C5351 C 0.27196 0.23827 0.38792 0.0
C5352 C 0.29918 0.22708 0.38193 0.0
C5353 C 0.31454 0.21933 0.38744 0.0
C5354 C 0.32494 0.22668 0.4039 0.0
C5355 C 0.33923 0.21916 0.40914 0.0
C5356 C 0.34335 0.20436 0.39798 0.0
C5357 C 0.33322 0.19708 0.38153 0.0
C5358 C 0.3189 0.20454 0.37623 0.0
C5359 C 0.28413 0.26924 0.32344 0.0
C5360 C 0.28452 0.25693 0.30745 0.0
C5361 C 0.28465 0.26403 0.34023 0.0
C5362 C 0.28531 0.24631 0.34151 0.0
C5363 C 0.28614 0.23406 0.32562 0.0
C5364 C 0.28575 0.23931 0.30876 0.0
C5365 C 0.28491 0.24056 0.35938 0.0
C5366 C 0.29861 0.23235 0.36504 0.0
C5367 C 0.27142 0.2436 0.37105 0.0
C5368 C 0.25621 0.25164 0.3657 0.0
C5369 C 0.24513 0.24395 0.34972 0.0
C5370 C 0.23106 0.2518 0.34456 0.0
C5371 C 0.22782 0.26726 0.35533 0.0
C5372 C 0.23863 0.27489 0.37132 0.0
C5373 C 0.25275 0.2671 0.37654 0.0
H5374 H 0.2169 0.27328 0.3513 0.0
H5375 H 0.35442 0.19856 0.40207 0.0
H5376 H 0.34184 0.56555 0.51244 0.0
H5377 H 0.37043 0.55704 0.50636 0.0
H5378 H 0.39608 0.61266 0.51571 0.0
H5379 H 0.36697 0.62116 0.52034 0.0
H5380 H 0.41243 0.59722 0.49188 0.0
H5381 H 0.39702 0.58206 0.54851 0.0
H5382 H 0.37803 0.56811 0.56956 0.0
H5383 H 0.37727 0.51617 0.5381 0.0
H5384 H 0.39607 0.52982 0.51674 0.0
H5385 H 0.50003 0.57768 0.50807 0.0
H5386 H 0.47171 0.58804 0.50972 0.0
H5387 H 0.44286 0.53369 0.49395 0.0
H5388 H 0.47113 0.52319 0.4927 0.0
H5389 H 0.42904 0.54963 0.52166 0.0
H5390 H 0.44592 0.56658 0.46525 0.0
H5391 H 0.4666 0.58186 0.44638 0.0
H5392 H 0.46672 0.63236 0.48047 0.0
H5393 H 0.44617 0.61734 0.49965 0.0
C5394 C 0.35355 0.57599 0.51309 0.0
C5395 C 0.3521 0.59405 0.51706 0.0
C5396 C 0.37005 0.5711 0.50978 0.0
C5397 C 0.38586 0.58411 0.51121 0.0
C5398 C 0.3843 0.60223 0.51464 0.0
C5399 C 0.36761 0.60713 0.51735 0.0
C5400 C 0.40386 0.57874 0.50941 0.0
C5401 C 0.41606 0.58696 0.49861 0.0
C5402 C 0.40893 0.56524 0.51799 0.0
C5403 C 0.39782 0.55698 0.53095 0.0
C5404 C 0.39273 0.56767 0.54605 0.0
C5405 C 0.382 0.55981 0.55803 0.0
C5406 C 0.37641 0.54127 0.55515 0.0
C5407 C 0.38159 0.53053 0.54031 0.0
C5408 C 0.3923 0.53832 0.52827 0.0
C5409 C 0.48769 0.5679 0.50464 0.0
C5410 C 0.48804 0.54953 0.50016 0.0
C5411 C 0.4714 0.57389 0.50556 0.0
C5412 C 0.45492 0.56173 0.50183 0.0
C5413 C 0.45527 0.54343 0.49692 0.0
C5414 C 0.47154 0.53742 0.49609 0.0
C5415 C 0.43739 0.56785 0.50391 0.0
C5416 C 0.42533 0.55984 0.51488 0.0
C5417 C 0.43266 0.58174 0.49578 0.0
C5418 C 0.4446 0.59082 0.48396 0.0
C5419 C 0.4504 0.58093 0.46875 0.0
C5420 C 0.4621 0.58955 0.458 0.0
C5421 C 0.468 0.60806 0.46225 0.0
C5422 C 0.46214 0.61802 0.4772 0.0
C5423 C 0.45044 0.60946 0.488 0.0
H5424 H 0.4771 0.61471 0.45394 0.0
H5425 H 0.36808 0.53522 0.56442 0.0
H5426 H 0.85822 0.90376 0.54378 0.0
H5427 H 0.88991 0.91794 0.54413 0.0
H5428 H 0.87654 0.94295 0.49986 0.0
H5429 H 0.84531 0.92906 0.49944 0.0
H5430 H 0.9066 0.93058 0.49486 0.0
H5431 H 0.88218 0.96626 0.54128 0.0
H5432 H 0.86663 0.97269 0.56866 0.0
H5433 H 0.90737 0.95661 0.59989 0.0
H5434 H 0.92303 0.94979 0.57257 0.0
H5435 H 0.97261 0.01126 0.50563 0.0
H5436 H 0.94433 0.99097 0.50715 0.0
H5437 H 0.97227 0.95938 0.53601 0.0
H5438 H 0.00082 0.97934 0.53403 0.0
H5439 H 0.93693 0.97231 0.5499 0.0
H5440 H 0.96265 0.94028 0.49979 0.0
H5441 H 0.97666 0.93813 0.47109 0.0
H5442 H 0.93115 0.95216 0.4453 0.0
H5443 H 0.91702 0.95474 0.47397 0.0
C5444 C 0.86213 0.91218 0.53407 0.0
C5445 C 0.84921 0.91544 0.52174 0.0
C5446 C 0.88019 0.92029 0.5343 0.0
C5447 C 0.88558 0.93159 0.52206 0.0
C5448 C 0.87276 0.93429 0.5094 0.0
C5449 C 0.85483 0.92642 0.5093 0.0
C5450 C 0.90435 0.94135 0.52274 0.0
C5451 C 0.91324 0.93963 0.50693 0.0
C5452 C 0.91301 0.95328 0.53842 0.0
C5453 C 0.90362 0.95724 0.55485 0.0
C5454 C 0.88771 0.96389 0.55394 0.0
C5455 C 0.8789 0.96765 0.56945 0.0
C5456 C 0.88596 0.96498 0.58599 0.0
C5457 C 0.90188 0.9586 0.58705 0.0
C5458 C 0.91073 0.95479 0.57156 0.0
C5459 C 0.97274 1.00006 0.5124 0.0
C5460 C 0.98891 0.99689 0.51975 0.0
C5461 C 0.9566 0.98847 0.5132 0.0
C5462 C 0.95628 0.97372 0.52167 0.0
C5463 C 0.97231 0.97072 0.52942 0.0
C5464 C 0.98856 0.98208 0.52824 0.0
C5465 C 0.93912 0.96137 0.52211 0.0
C5466 C 0.93046 0.96283 0.53803 0.0
C5467 C 0.93045 0.9496 0.50638 0.0
C5468 C 0.93886 0.94789 0.48909 0.0
C5469 C 0.95571 0.9431 0.48806 0.0
C5470 C 0.96366 0.94177 0.47178 0.0
C5471 C 0.95483 0.94505 0.45639 0.0
C5472 C 0.938 0.94964 0.45724 0.0
C5473 C 0.93001 0.95103 0.4735 0.0
H5474 H 0.961 0.944 0.4438 0.0
H5475 H 0.87913 0.96792 0.59799 0.0
H5476 H 0.90929 0.12256 0.26342 0.0
H5477 H 0.89594 0.1491 0.26464 0.0
H5478 H 0.84341 0.11592 0.2585 0.0
H5479 H 0.85691 0.08929 0.25635 0.0
H5480 H 0.83652 0.13956 0.24444 0.0
H5481 H 0.86999 0.15128 0.30111 0.0
H5482 H 0.89561 0.15578 0.32389 0.0
H5483 H 0.92307 0.19897 0.30104 0.0
H5484 H 0.89769 0.19457 0.27796 0.0
H5485 H 0.79174 0.21436 0.26966 0.0
H5486 H 0.80618 0.18859 0.2695 0.0
H5487 H 0.85605 0.22022 0.26026 0.0
H5488 H 0.84153 0.24618 0.26047 0.0
H5489 H 0.86423 0.19795 0.28242 0.0
H5490 H 0.82557 0.18475 0.22649 0.0
H5491 H 0.79608 0.181 0.20974 0.0
H5492 H 0.7747 0.13931 0.23779 0.0
H5493 H 0.80396 0.14312 0.25503 0.0
C5494 C 0.89485 0.12071 0.26236 0.0
C5495 C 0.88455 0.10306 0.25981 0.0
C5496 C 0.88697 0.13633 0.2633 0.0
C5497 C 0.86812 0.13561 0.26216 0.0
C5498 C 0.85785 0.11787 0.25952 0.0
C5499 C 0.86575 0.10222 0.25834 0.0
C5500 C 0.85922 0.15278 0.26324 0.0
C5501 C 0.84279 0.15212 0.25304 0.0
C5502 C 0.86651 0.17004 0.27419 0.0
C5503 C 0.88205 0.17241 0.28764 0.0
C5504 C 0.88158 0.1616 0.30082 0.0
C5505 C 0.89604 0.16417 0.31381 0.0
C5506 C 0.91099 0.17761 0.31387 0.0
C5507 C 0.91151 0.18852 0.30094 0.0
C5508 C 0.89709 0.18599 0.28789 0.0
C5509 C 0.80582 0.2161 0.26761 0.0
C5510 C 0.81505 0.23307 0.26507 0.0
C5511 C 0.81426 0.20094 0.26737 0.0
C5512 C 0.83262 0.2015 0.26454 0.0
C5513 C 0.84199 0.21859 0.26242 0.0
C5514 C 0.8335 0.23377 0.26251 0.0
C5515 C 0.84174 0.18457 0.26361 0.0
C5516 C 0.85817 0.18533 0.2738 0.0
C5517 C 0.83414 0.16723 0.25321 0.0
C5518 C 0.81689 0.16433 0.24215 0.0
C5519 C 0.81457 0.17479 0.22908 0.0
C5520 C 0.79788 0.17268 0.21953 0.0
C5521 C 0.7835 0.15995 0.22275 0.0
C5522 C 0.78583 0.14919 0.23536 0.0
C5523 C 0.80246 0.15133 0.24503 0.0
H5524 H 0.77052 0.15842 0.21555 0.0
H5525 H 0.92216 0.1796 0.32396 0.0
H5526 H 0.73705 0.12169 0.00241 0.0
H5527 H 0.70484 0.11068 0.99771 0.0
H5528 H 0.71118 0.06426 0.01982 0.0
H5529 H 0.74378 0.07484 0.02348 0.0
H5530 H 0.68636 0.05405 0.99435 0.0
H5531 H 0.69649 0.10375 0.04409 0.0
H5532 H 0.70793 0.13477 0.05986 0.0
H5533 H 0.67724 0.15406 0.02094 0.0
H5534 H 0.6658 0.12316 0.0048 0.0
H5535 H 0.59822 0.0326 0.0204 0.0
H5536 H 0.63029 0.04332 0.02042 0.0
H5537 H 0.62025 0.07928 0.98525 0.0
H5538 H 0.58787 0.06844 0.98497 0.0
H5539 H 0.64615 0.09519 0.01593 0.0
H5540 H 0.63491 0.04467 0.96738 0.0
H5541 H 0.62248 0.01334 0.95328 0.0
H5542 H 0.65469 0.99542 0.99206 0.0
H5543 H 0.66711 0.02666 0.00658 0.0
C5544 C 0.73161 0.10907 0.00619 0.0
C5545 C 0.743 0.09921 0.01347 0.0
C5546 C 0.71308 0.10283 0.00364 0.0
C5547 C 0.70527 0.08685 0.00892 0.0
C5548 C 0.71671 0.0767 0.01573 0.0
C5549 C 0.73538 0.08274 0.01785 0.0
C5550 C 0.68528 0.08083 0.00737 0.0
C5551 C 0.67768 0.06306 -0.00069 0.0
C5552 C 0.67361 0.09256 0.01339 0.0
C5553 C 0.68043 0.11114 0.02314 0.0
C5554 C 0.69227 0.11461 0.03883 0.0
C5555 C 0.69875 0.13217 0.04784 0.0
C5556 C 0.69336 0.14638 0.04138 0.0
C5557 C 0.68143 0.14304 0.02592 0.0
C5558 C 0.67494 0.12551 0.01684 0.0
C5559 C 0.60272 0.04275 0.01258 0.0
C5560 C 0.59033 0.04963 0.00267 0.0
C5561 C 0.62114 0.04885 0.0126 0.0
C5562 C 0.62775 0.06208 0.00281 0.0
C5563 C 0.61548 0.06907 0.99293 0.0
C5564 C 0.59697 0.0628 0.99272 0.0
C5565 C 0.64747 0.06852 0.0031 0.0
C5566 C 0.65495 0.0863 0.01093 0.0
C5567 C 0.65901 0.0568 0.99707 0.0
C5568 C 0.65185 0.03801 0.98815 0.0
C5569 C 0.63927 0.03405 0.97298 0.0
C5570 C 0.63223 0.0163 0.9649 0.0
C5571 C 0.63777 0.00239 0.97179 0.0
C5572 C 0.65041 0.00621 0.98674 0.0
C5573 C 0.65747 0.02393 0.99489 0.0
H5574 H 0.6323 0.98866 0.96552 0.0
H5575 H 0.69839 0.15996 0.04838 0.0
H5576 H 0.21361 0.49815 0.24087 0.0
H5577 H 0.22732 0.47467 0.25028 0.0
H5578 H 0.17712 0.4512 0.26787 0.0
H5579 H 0.16331 0.47454 0.25855 0.0
H5580 H 0.20632 0.45457 0.29265 0.0
H5581 H 0.18765 0.43189 0.23078 0.0
H5582 H 0.1843 0.43297 0.1984 0.0
H5583 H 0.24121 0.4401 0.1966 0.0
H5584 H 0.24495 0.43943 0.22909 0.0
H5585 H 0.23425 0.37089 0.29684 0.0
H5586 H 0.21737 0.39345 0.29034 0.0
H5587 H 0.26519 0.42423 0.275 0.0
H5588 H 0.28209 0.4018 0.2814 0.0
H5589 H 0.23431 0.41507 0.24869 0.0
H5590 H 0.25186 0.43934 0.31215 0.0
H5591 H 0.25371 0.43848 0.34464 0.0
H5592 H 0.19639 0.42704 0.34284 0.0
H5593 H 0.19421 0.42752 0.31025 0.0
C5594 C 0.20555 0.488 0.24677 0.0
C5595 C 0.18744 0.48801 0.24891 0.0
C5596 C 0.21334 0.47464 0.25206 0.0
C5597 C 0.20308 0.46128 0.25955 0.0
C5598 C 0.18512 0.46146 0.26204 0.0
C5599 C 0.17729 0.47471 0.25664 0.0
C5600 C 0.21117 0.44707 0.26481 0.0
C5601 C 0.21222 0.44571 0.28304 0.0
C5602 C 0.21877 0.4357 0.25211 0.0
C5603 C 0.2166 0.43578 0.23245 0.0
C5604 C 0.19948 0.43384 0.22353 0.0
C5605 C 0.1975 0.43436 0.20515 0.0
C5606 C 0.21254 0.43665 0.19546 0.0
C5607 C 0.22957 0.43835 0.20413 0.0
C5608 C 0.23163 0.43789 0.22254 0.0
C5609 C 0.24116 0.38266 0.29239 0.0
C5610 C 0.25941 0.38475 0.28965 0.0
C5611 C 0.23156 0.39544 0.2887 0.0
C5612 C 0.24015 0.41031 0.28218 0.0
C5613 C 0.25847 0.41274 0.28003 0.0
C5614 C 0.26809 0.40007 0.28386 0.0
C5615 C 0.2299 0.42293 0.27663 0.0
C5616 C 0.22831 0.42386 0.25827 0.0
C5617 C 0.22156 0.43371 0.28916 0.0
C5618 C 0.22288 0.4332 0.3087 0.0
C5619 C 0.23965 0.4364 0.31863 0.0
C5620 C 0.24076 0.43604 0.33708 0.0
C5621 C 0.22518 0.43264 0.34579 0.0
C5622 C 0.20845 0.42962 0.33607 0.0
C5623 C 0.20728 0.42993 0.31761 0.0
H5624 H 0.22607 0.4324 0.36008 0.0
H5625 H 0.21098 0.43706 0.18123 0.0
H5626 H 0.26029 0.42386 0.0299 0.0
H5627 H 0.23546 0.43738 0.0214 0.0
H5628 H 0.19999 0.38591 0.01222 0.0
H5629 H 0.22504 0.37211 0.02029 0.0
H5630 H 0.19385 0.40475 0.98582 0.0
H5631 H 0.19987 0.41622 0.05085 0.0
H5632 H 0.21671 0.42658 0.08079 0.0
H5633 H 0.23136 0.47937 0.06925 0.0
H5634 H 0.21477 0.46927 0.03915 0.0
H5635 H 0.11346 0.44166 0.98974 0.0
H5636 H 0.13736 0.42511 0.99417 0.0
H5637 H 0.17648 0.47419 0.00218 0.0
H5638 H 0.15277 0.49075 0.99795 0.0
H5639 H 0.17986 0.45532 0.02896 0.0
H5640 H 0.17437 0.44483 0.96459 0.0
H5641 H 0.15929 0.43511 0.93382 0.0
H5642 H 0.14474 0.38147 0.9431 0.0
H5643 H 0.15952 0.39093 0.97406 0.0
C5644 C 0.2472 0.41538 0.02619 0.0
C5645 C 0.2446 0.39692 0.02597 0.0
C5646 C 0.233 0.42315 0.02129 0.0
C5647 C 0.21579 0.41271 0.0164 0.0
C5648 C 0.21315 0.39423 0.01598 0.0
C5649 C 0.22743 0.38639 0.02074 0.0
C5650 C 0.20056 0.42129 0.01221 0.0
C5651 C 0.19055 0.4156 0.99535 0.0
C5652 C 0.19657 0.43575 0.02447 0.0
C5653 C 0.20617 0.44196 0.04273 0.0
C5654 C 0.20673 0.43002 0.05468 0.0
C5655 C 0.21623 0.43585 0.07168 0.0
C5656 C 0.22512 0.45362 0.07691 0.0
C5657 C 0.22447 0.46562 0.06518 0.0
C5658 C 0.21499 0.45985 0.04817 0.0
C5659 C 0.12717 0.44888 0.99241 0.0
C5660 C 0.13123 0.46751 0.99352 0.0
C5661 C 0.14081 0.43941 0.99478 0.0
C5662 C 0.15871 0.44843 0.99844 0.0
C5663 C 0.16277 0.46697 -0.00067 0.0
C5664 C 0.14921 0.47639 0.99682 0.0
C5665 C 0.17313 0.43886 0.00254 0.0
C5666 C 0.18301 0.44437 0.01944 0.0
C5667 C 0.177 0.42433 0.99026 0.0
C5668 C 0.16784 0.41865 0.97175 0.0
C5669 C 0.16776 0.43101 0.96016 0.0
C5670 C 0.15931 0.42553 0.94266 0.0
C5671 C 0.151 0.4077 0.93653 0.0
C5672 C 0.15115 0.3953 0.94789 0.0
C5673 C 0.15956 0.4007 0.96541 0.0
H5674 H 0.1445 0.40348 0.92297 0.0
H5675 H 0.2325 0.4581 0.09006 0.0
H5676 H 0.86101 0.99143 0.2588 0.0
H5677 H 0.8445 0.96116 0.25996 0.0
H5678 H 0.89194 0.94003 0.24899 0.0
H5679 H 0.90798 0.96959 0.24725 0.0
H5680 H 0.86853 0.91605 0.23246 0.0
H5681 H 0.87015 0.9464 0.29355 0.0
H5682 H 0.86497 0.96951 0.31848 0.0
H5683 H 0.80843 0.95512 0.30341 0.0
H5684 H 0.8133 0.93205 0.27826 0.0
H5685 H 0.84009 0.82915 0.25579 0.0
H5686 H 0.85465 0.85997 0.255 0.0
H5687 H 0.80419 0.87667 0.26033 0.0
H5688 H 0.78967 0.84595 0.26136 0.0
H5689 H 0.82795 0.90284 0.27929 0.0
H5690 H 0.82757 0.87134 0.21836 0.0
H5691 H 0.834 0.84776 0.19462 0.0
H5692 H 0.89018 0.86424 0.21107 0.0
H5693 H 0.88407 0.88779 0.23504 0.0
C5694 C 0.86797 0.98038 0.25657 0.0
C5695 C 0.88615 0.98361 0.25286 0.0
C5696 C 0.85845 0.96278 0.25741 0.0
C5697 C 0.86666 0.94751 0.25479 0.0
C5698 C 0.88474 0.95091 0.25102 0.0
C5699 C 0.89411 0.96827 0.25009 0.0
C5700 C 0.85691 0.92814 0.25564 0.0
C5701 C 0.85988 0.9134 0.24297 0.0
C5702 C 0.84509 0.92374 0.26891 0.0
C5703 C 0.84211 0.93766 0.2839 0.0
C5704 C 0.85663 0.94826 0.29547 0.0
C5705 C 0.85375 0.96133 0.30965 0.0
C5706 C 0.83639 0.96382 0.31249 0.0
C5707 C 0.82187 0.95321 0.30117 0.0
C5708 C 0.82468 0.94013 0.28695 0.0
C5709 C 0.83196 0.83928 0.25677 0.0
C5710 C 0.81342 0.83445 0.25856 0.0
C5711 C 0.8404 0.8572 0.2562 0.0
C5712 C 0.8308 0.87136 0.25729 0.0
C5713 C 0.81232 0.86654 0.25938 0.0
C5714 C 0.80388 0.84864 0.25991 0.0
C5715 C 0.83976 0.89087 0.25624 0.0
C5716 C 0.83662 0.90558 0.26883 0.0
C5717 C 0.85165 0.89526 0.24305 0.0
C5718 C 0.85535 0.88121 0.22859 0.0
C5719 C 0.84129 0.86987 0.21697 0.0
C5720 C 0.84487 0.85651 0.20347 0.0
C5721 C 0.86248 0.85447 0.20137 0.0
C5722 C 0.87655 0.86582 0.21273 0.0
C5723 C 0.87303 0.87918 0.22626 0.0
H5724 H 0.86523 0.84412 0.19092 0.0
H5725 H 0.83418 0.97394 0.32348 0.0
H5726 H 0.70118 0.08629 0.76302 0.0
H5727 H 0.71988 0.11614 0.76946 0.0
H5728 H 0.67887 0.13641 0.74264 0.0
H5729 H 0.66003 0.10666 0.73606 0.0
H5730 H 0.71173 0.13788 0.72675 0.0
H5731 H 0.68968 0.15182 0.78523 0.0
H5732 H 0.68355 0.14784 0.81611 0.0
H5733 H 0.73957 0.15197 0.83027 0.0
H5734 H 0.74603 0.15562 0.79939 0.0
H5735 H 0.74734 0.22842 0.73287 0.0
H5736 H 0.73129 0.19804 0.7316 0.0
H5737 H 0.77112 0.19025 0.77085 0.0
H5738 H 0.78637 0.22138 0.77317 0.0
H5739 H 0.74095 0.18089 0.7813 0.0
H5740 H 0.76405 0.167 0.72433 0.0
H5741 H 0.77155 0.17054 0.69367 0.0
H5742 H 0.71587 0.16479 0.67665 0.0
H5743 H 0.70805 0.16138 0.70722 0.0
C5744 C 0.69598 0.09716 0.75879 0.0
C5745 C 0.67938 0.09408 0.74855 0.0
C5746 C 0.70659 0.11421 0.76269 0.0
C5747 C 0.70068 0.12828 0.75642 0.0
C5748 C 0.68353 0.12557 0.74755 0.0
C5749 C 0.67289 0.10857 0.74368 0.0
C5750 C 0.71353 0.1446 0.75576 0.0
C5751 C 0.718 0.14748 0.73864 0.0
C5752 C 0.72229 0.15635 0.77139 0.0
C5753 C 0.71831 0.15373 0.78987 0.0
C5754 C 0.70067 0.15161 0.79483 0.0
C5755 C 0.69715 0.14948 0.81237 0.0
C5756 C 0.71115 0.14956 0.82511 0.0
C5757 C 0.72873 0.15183 0.82037 0.0
C5758 C 0.73232 0.15393 0.80285 0.0
C5759 C 0.75291 0.21998 0.74077 0.0
C5760 C 0.76801 0.22691 0.75301 0.0
C5761 C 0.74381 0.20261 0.74 0.0
C5762 C 0.75015 0.19177 0.75096 0.0
C5763 C 0.76602 0.19841 0.76231 0.0
C5764 C 0.77476 0.21604 0.76355 0.0
C5765 C 0.739 0.17446 0.75217 0.0
C5766 C 0.73489 0.17126 0.76937 0.0
C5767 C 0.73081 0.16214 0.7366 0.0
C5768 C 0.73548 0.16405 0.71813 0.0
C5769 C 0.75342 0.16659 0.71408 0.0
C5770 C 0.75772 0.16854 0.6967 0.0
C5771 C 0.7442 0.16791 0.68323 0.0
C5772 C 0.72634 0.16525 0.68708 0.0
C5773 C 0.72196 0.16326 0.70442 0.0
H5774 H 0.74756 0.16946 0.66979 0.0
H5775 H 0.70839 0.14788 0.83866 0.0
loop_
_geom_bond_atom_site_label_1
_geom_bond_atom_site_label_2
_geom_bond_distance
_geom_bond_site_symmetry_2
_ccdc_geom_bond_type
C0 O1 1.306 . S
C0 O3 1.160 . S
O1 C0 1.306 . S
O1 Cd2 2.228 . S
Cd2 O1 2.228 . S
Cd2 O6 2.273 . S
Cd2 O10 2.277 . S
O3 C0 1.160 . S
O3 Cd4 2.203 . S
Cd4 O3 2.203 . S
Cd4 O6 2.411 . S
Cd4 O7 2.333 . S
Cd4 O8 2.352 . S
Cd4 O12 2.277 . S
Cd4 O13 2.356 . S
C5 O10 1.209 . S
C5 O12 1.226 . S
O6 Cd2 2.273 . S
O6 Cd4 2.411 . S
O6 C9 1.320 . S
O7 Cd4 2.333 . S
O7 C9 1.214 . S
O8 Cd4 2.352 . S
O8 C11 1.258 . S
C9 O6 1.320 . S
C9 O7 1.214 . S
O10 Cd2 2.277 . S
O10 C5 1.209 . S
C11 O8 1.258 . S
C11 O13 1.282 . S
O12 Cd4 2.277 . S
O12 C5 1.226 . S
O13 Cd4 2.356 . S
O13 C11 1.282 . S
C14 O15 1.306 . S
C14 O17 1.160 . S
O15 C14 1.306 . S
O15 Cd16 2.228 1_655 S
Cd16 O15 2.228 1_455 S
Cd16 O20 2.273 . S
Cd16 O24 2.277 1_455 S
O17 C14 1.160 . S
O17 Cd18 2.145 1_655 S
Cd18 O17 2.145 1_455 S
Cd18 O20 2.440 . S
Cd18 O21 2.393 . S
Cd18 O22 2.344 . S
Cd18 O26 2.280 1_455 S
Cd18 O27 2.361 . S
C19 O24 1.209 . S
C19 O26 1.226 . S
O20 Cd16 2.273 . S
O20 Cd18 2.440 . S
O20 C23 1.320 . S
O21 Cd18 2.393 . S
O21 C23 1.214 . S
O22 Cd18 2.344 . S
O22 C25 1.258 . S
C23 O20 1.320 . S
C23 O21 1.214 . S
O24 Cd16 2.277 1_655 S
O24 C19 1.209 . S
C25 O22 1.258 . S
C25 O27 1.282 . S
O26 Cd18 2.280 1_655 S
O26 C19 1.226 . S
O27 Cd18 2.361 . S
O27 C25 1.282 . S
C28 O29 1.306 . S
C28 O31 1.160 . S
O29 C28 1.306 . S
O29 Cd30 2.228 . S
Cd30 O29 2.228 . S
Cd30 O34 2.273 . S
Cd30 O38 2.277 . S
O31 C28 1.160 . S
O31 Cd32 2.203 . S
Cd32 O31 2.203 . S
Cd32 O34 2.411 . S
Cd32 O35 2.333 . S
Cd32 O36 2.352 . S
Cd32 O40 2.277 . S
Cd32 O41 2.356 . S
C33 O38 1.209 . S
C33 O40 1.226 . S
O34 Cd30 2.273 . S
O34 Cd32 2.411 . S
O34 C37 1.320 . S
O35 Cd32 2.333 . S
O35 C37 1.214 . S
O36 Cd32 2.352 . S
O36 C39 1.258 . S
C37 O34 1.320 . S
C37 O35 1.214 . S
O38 Cd30 2.277 . S
O38 C33 1.209 . S
C39 O36 1.258 . S
C39 O41 1.282 . S
O40 Cd32 2.277 . S
O40 C33 1.226 . S
O41 Cd32 2.356 . S
O41 C39 1.282 . S
C42 O43 1.306 . S
C42 O45 1.160 . S
O43 C42 1.306 . S
O43 Cd44 2.228 . S
Cd44 O43 2.228 . S
Cd44 O48 2.273 . S
Cd44 O52 2.277 . S
O45 C42 1.160 . S
O45 Cd46 2.203 . S
Cd46 O45 2.203 . S
Cd46 O48 2.411 . S
Cd46 O49 2.333 . S
Cd46 O50 2.352 . S
Cd46 O54 2.277 . S
Cd46 O55 2.356 . S
C47 O52 1.209 . S
C47 O54 1.226 . S
O48 Cd44 2.273 . S
O48 Cd46 2.411 . S
O48 C51 1.320 . S
O49 Cd46 2.333 . S
O49 C51 1.214 . S
O50 Cd46 2.352 . S
O50 C53 1.258 . S
C51 O48 1.320 . S
C51 O49 1.214 . S
O52 Cd44 2.277 . S
O52 C47 1.209 . S
C53 O50 1.258 . S
C53 O55 1.282 . S
O54 Cd46 2.277 . S
O54 C47 1.226 . S
O55 Cd46 2.356 . S
O55 C53 1.282 . S
C56 O57 1.306 . S
C56 O59 1.160 . S
O57 C56 1.306 . S
O57 Cd58 2.228 . S
Cd58 O57 2.228 . S
Cd58 O62 2.273 . S
Cd58 O66 2.277 . S
O59 C56 1.160 . S
O59 Cd60 2.203 . S
Cd60 O59 2.203 . S
Cd60 O62 2.411 . S
Cd60 O63 2.333 . S
Cd60 O64 2.352 . S
Cd60 O68 2.277 . S
Cd60 O69 2.356 . S
C61 O66 1.209 . S
C61 O68 1.226 . S
O62 Cd58 2.273 . S
O62 Cd60 2.411 . S
O62 C65 1.320 . S
O63 Cd60 2.333 . S
O63 C65 1.214 . S
O64 Cd60 2.352 . S
O64 C67 1.258 . S
C65 O62 1.320 . S
C65 O63 1.214 . S
O66 Cd58 2.277 . S
O66 C61 1.209 . S
C67 O64 1.258 . S
C67 O69 1.282 . S
O68 Cd60 2.277 . S
O68 C61 1.226 . S
O69 Cd60 2.356 . S
O69 C67 1.282 . S
C70 O71 1.306 . S
C70 O73 1.160 . S
O71 C70 1.306 . S
O71 Cd72 2.228 . S
Cd72 O71 2.228 . S
Cd72 O76 2.273 . S
Cd72 O80 2.277 . S
O73 C70 1.160 . S
O73 Cd74 2.203 . S
Cd74 O73 2.203 . S
Cd74 O76 2.411 . S
Cd74 O77 2.333 . S
Cd74 O78 2.352 . S
Cd74 O82 2.277 . S
Cd74 O83 2.356 . S
C75 O80 1.209 . S
C75 O82 1.226 . S
O76 Cd72 2.273 . S
O76 Cd74 2.411 . S
O76 C79 1.320 . S
O77 Cd74 2.333 . S
O77 C79 1.214 . S
O78 Cd74 2.352 . S
O78 C81 1.258 . S
C79 O76 1.320 . S
C79 O77 1.214 . S
O80 Cd72 2.277 . S
O80 C75 1.209 . S
C81 O78 1.258 . S
C81 O83 1.282 . S
O82 Cd74 2.277 . S
O82 C75 1.226 . S
O83 Cd74 2.356 . S
O83 C81 1.282 . S
C84 O85 1.306 . S
C84 O87 1.160 . S
O85 C84 1.306 . S
O85 Cd86 2.228 . S
Cd86 O85 2.228 . S
Cd86 O90 2.273 . S
Cd86 O94 2.277 . S
O87 C84 1.160 . S
O87 Cd88 2.203 . S
Cd88 O87 2.203 . S
Cd88 O90 2.411 . S
Cd88 O91 2.333 . S
Cd88 O92 2.352 . S
Cd88 O96 2.277 . S
Cd88 O97 2.356 . S
C89 O94 1.209 . S
C89 O96 1.226 . S
O90 Cd86 2.273 . S
O90 Cd88 2.411 . S
O90 C93 1.320 . S
O91 Cd88 2.333 . S
O91 C93 1.214 . S
O92 Cd88 2.352 . S
O92 C95 1.258 . S
C93 O90 1.320 . S
C93 O91 1.214 . S
O94 Cd86 2.277 . S
O94 C89 1.209 . S
C95 O92 1.258 . S
C95 O97 1.282 . S
O96 Cd88 2.277 . S
O96 C89 1.226 . S
O97 Cd88 2.356 . S
O97 C95 1.282 . S
C98 O99 1.306 . S
C98 O101 1.160 . S
O99 C98 1.306 . S
O99 Cd100 2.228 1_655 S
Cd100 O99 2.228 1_455 S
Cd100 O104 2.273 . S
Cd100 O108 2.277 . S
O101 C98 1.160 . S
O101 Cd102 2.203 1_655 S
Cd102 O101 2.203 1_455 S
Cd102 O104 2.411 . S
Cd102 O105 2.333 . S
Cd102 O106 2.352 . S
Cd102 O110 2.277 . S
Cd102 O111 2.356 . S
C103 O108 1.209 . S
C103 O110 1.226 . S
O104 Cd100 2.273 . S
O104 Cd102 2.411 . S
O104 C107 1.320 . S
O105 Cd102 2.333 . S
O105 C107 1.214 . S
O106 Cd102 2.352 . S
O106 C109 1.258 . S
C107 O104 1.320 . S
C107 O105 1.214 . S
O108 Cd100 2.277 . S
O108 C103 1.209 . S
C109 O106 1.258 . S
C109 O111 1.282 . S
O110 Cd102 2.277 . S
O110 C103 1.226 . S
O111 Cd102 2.356 . S
O111 C109 1.282 . S
C112 O113 1.306 . S
C112 O115 1.160 . S
O113 C112 1.306 . S
O113 Cd114 2.228 1_545 S
Cd114 O113 2.228 1_565 S
Cd114 O118 2.273 1_565 S
Cd114 O122 2.277 . S
O115 C112 1.160 . S
O115 Cd116 2.203 . S
Cd116 O115 2.203 . S
Cd116 O118 2.411 . S
Cd116 O119 2.333 . S
Cd116 O120 2.352 . S
Cd116 O124 2.277 1_545 S
Cd116 O125 2.356 . S
C117 O122 1.209 . S
C117 O124 1.226 . S
O118 Cd114 2.273 1_545 S
O118 Cd116 2.411 . S
O118 C121 1.320 . S
O119 Cd116 2.333 . S
O119 C121 1.214 . S
O120 Cd116 2.352 . S
O120 C123 1.258 . S
C121 O118 1.320 . S
C121 O119 1.214 . S
O122 Cd114 2.277 . S
O122 C117 1.209 . S
C123 O120 1.258 . S
C123 O125 1.282 . S
O124 Cd116 2.277 1_565 S
O124 C117 1.226 . S
O125 Cd116 2.356 . S
O125 C123 1.282 . S
C126 O127 1.306 . S
C126 O129 1.160 . S
O127 C126 1.306 . S
O127 Cd128 2.228 . S
Cd128 O127 2.228 . S
Cd128 O132 2.273 . S
Cd128 O136 2.277 . S
O129 C126 1.160 . S
O129 Cd130 2.203 . S
Cd130 O129 2.203 . S
Cd130 O132 2.411 . S
Cd130 O133 2.333 . S
Cd130 O134 2.352 . S
Cd130 O138 2.277 . S
Cd130 O139 2.356 . S
C131 O136 1.209 . S
C131 O138 1.226 . S
O132 Cd128 2.273 . S
O132 Cd130 2.411 . S
O132 C135 1.320 . S
O133 Cd130 2.333 . S
O133 C135 1.214 . S
O134 Cd130 2.352 . S
O134 C137 1.258 . S
C135 O132 1.320 . S
C135 O133 1.214 . S
O136 Cd128 2.277 . S
O136 C131 1.209 . S
C137 O134 1.258 . S
C137 O139 1.282 . S
O138 Cd130 2.277 . S
O138 C131 1.226 . S
O139 Cd130 2.356 . S
O139 C137 1.282 . S
C140 O141 1.306 . S
C140 O143 1.160 . S
O141 C140 1.306 . S
O141 Cd142 2.228 . S
Cd142 O141 2.228 . S
Cd142 O146 2.273 . S
Cd142 O150 2.277 . S
O143 C140 1.160 . S
O143 Cd144 2.203 . S
Cd144 O143 2.203 . S
Cd144 O146 2.411 . S
Cd144 O147 2.333 1_545 S
Cd144 O148 2.352 1_545 S
Cd144 O152 2.277 . S
Cd144 O153 2.356 1_545 S
C145 O150 1.209 . S
C145 O152 1.226 . S
O146 Cd142 2.273 . S
O146 Cd144 2.411 . S
O146 C149 1.320 . S
O147 Cd144 2.333 1_565 S
O147 C149 1.213 1_565 S
O148 Cd144 2.352 1_565 S
O148 C151 1.258 . S
C149 O146 1.320 . S
C149 O147 1.213 1_545 S
O150 Cd142 2.277 . S
O150 C145 1.209 . S
C151 O148 1.258 . S
C151 O153 1.282 . S
O152 Cd144 2.277 . S
O152 C145 1.226 . S
O153 Cd144 2.356 1_565 S
O153 C151 1.282 . S
C154 O155 1.306 . S
C154 O157 1.160 . S
O155 C154 1.306 . S
O155 Cd156 2.228 1_554 S
Cd156 O155 2.228 1_556 S
Cd156 O160 2.273 1_556 S
Cd156 O164 2.277 . S
O157 C154 1.160 . S
O157 Cd158 2.203 . S
Cd158 O157 2.203 . S
Cd158 O160 2.411 . S
Cd158 O161 2.333 . S
Cd158 O162 2.352 . S
Cd158 O166 2.277 1_554 S
Cd158 O167 2.356 . S
C159 O164 1.209 . S
C159 O166 1.226 . S
O160 Cd156 2.273 1_554 S
O160 Cd158 2.411 . S
O160 C163 1.320 . S
O161 Cd158 2.333 . S
O161 C163 1.214 . S
O162 Cd158 2.352 . S
O162 C165 1.258 . S
C163 O160 1.320 . S
C163 O161 1.214 . S
O164 Cd156 2.277 . S
O164 C159 1.209 . S
C165 O162 1.258 . S
C165 O167 1.282 . S
O166 Cd158 2.277 1_556 S
O166 C159 1.226 . S
O167 Cd158 2.356 . S
O167 C165 1.282 . S
C168 O169 1.306 . S
C168 O171 1.160 . S
O169 C168 1.306 . S
O169 Cd170 2.228 1_554 S
Cd170 O169 2.228 1_556 S
Cd170 O174 2.273 1_556 S
Cd170 O178 2.277 . S
O171 C168 1.160 . S
O171 Cd172 2.203 . S
Cd172 O171 2.203 . S
Cd172 O174 2.411 . S
Cd172 O175 2.333 . S
Cd172 O176 2.352 . S
Cd172 O180 2.277 1_554 S
Cd172 O181 2.356 . S
C173 O178 1.209 . S
C173 O180 1.226 . S
O174 Cd170 2.273 1_554 S
O174 Cd172 2.411 . S
O174 C177 1.320 . S
O175 Cd172 2.333 . S
O175 C177 1.214 . S
O176 Cd172 2.352 . S
O176 C179 1.258 . S
C177 O174 1.320 . S
C177 O175 1.214 . S
O178 Cd170 2.277 . S
O178 C173 1.209 . S
C179 O176 1.258 . S
C179 O181 1.282 . S
O180 Cd172 2.277 1_556 S
O180 C173 1.226 . S
O181 Cd172 2.356 . S
O181 C179 1.282 . S
C182 O183 1.306 . S
C182 O185 1.160 . S
O183 C182 1.306 . S
O183 Cd184 2.228 . S
Cd184 O183 2.228 . S
Cd184 O188 2.273 . S
Cd184 O192 2.277 . S
O185 C182 1.160 . S
O185 Cd186 2.203 . S
Cd186 O185 2.203 . S
Cd186 O188 2.411 . S
Cd186 O189 2.333 . S
Cd186 O190 2.352 1_554 S
Cd186 O194 2.277 . S
Cd186 O195 2.356 1_554 S
C187 O192 1.209 . S
C187 O194 1.226 . S
O188 Cd184 2.273 . S
O188 Cd186 2.411 . S
O188 C191 1.320 . S
O189 Cd186 2.333 . S
O189 C191 1.214 . S
O190 Cd186 2.352 1_556 S
O190 C193 1.258 . S
C191 O188 1.320 . S
C191 O189 1.214 . S
O192 Cd184 2.277 . S
O192 C187 1.209 . S
C193 O190 1.258 . S
C193 O195 1.282 . S
O194 Cd186 2.277 . S
O194 C187 1.226 . S
O195 Cd186 2.356 1_556 S
O195 C193 1.282 . S
C196 O197 1.306 . S
C196 O199 1.160 . S
O197 C196 1.306 . S
O197 Cd198 2.228 . S
Cd198 O197 2.228 . S
Cd198 O202 2.273 . S
Cd198 O206 2.277 . S
O199 C196 1.160 . S
O199 Cd200 2.203 . S
Cd200 O199 2.203 . S
Cd200 O202 2.411 . S
Cd200 O203 2.333 . S
Cd200 O204 2.352 . S
Cd200 O208 2.277 . S
Cd200 O209 2.356 . S
C201 O206 1.209 . S
C201 O208 1.226 . S
O202 Cd198 2.273 . S
O202 Cd200 2.411 . S
O202 C205 1.320 . S
O203 Cd200 2.333 . S
O203 C205 1.214 . S
O204 Cd200 2.352 . S
O204 C207 1.258 . S
C205 O202 1.320 . S
C205 O203 1.214 . S
O206 Cd198 2.277 . S
O206 C201 1.209 . S
C207 O204 1.258 . S
C207 O209 1.282 . S
O208 Cd200 2.277 . S
O208 C201 1.226 . S
O209 Cd200 2.356 . S
O209 C207 1.282 . S
C210 O211 1.306 . S
C210 O213 1.160 . S
O211 C210 1.306 . S
O211 Cd212 2.228 . S
Cd212 O211 2.228 . S
Cd212 O216 2.273 . S
Cd212 O220 2.277 . S
O213 C210 1.160 . S
O213 Cd214 2.203 . S
Cd214 O213 2.203 . S
Cd214 O216 2.411 . S
Cd214 O217 2.333 . S
Cd214 O218 2.352 . S
Cd214 O222 2.277 . S
Cd214 O223 2.356 . S
C215 O220 1.209 . S
C215 O222 1.226 . S
O216 Cd212 2.273 . S
O216 Cd214 2.411 . S
O216 C219 1.320 . S
O217 Cd214 2.333 . S
O217 C219 1.214 . S
O218 Cd214 2.352 . S
O218 C221 1.258 . S
C219 O216 1.320 . S
C219 O217 1.214 . S
O220 Cd212 2.277 . S
O220 C215 1.209 . S
C221 O218 1.258 . S
C221 O223 1.282 . S
O222 Cd214 2.277 . S
O222 C215 1.226 . S
O223 Cd214 2.356 . S
O223 C221 1.282 . S
C224 O225 1.306 . S
C224 O227 1.160 . S
O225 C224 1.306 . S
O225 Cd226 2.228 . S
Cd226 O225 2.228 . S
Cd226 O230 2.273 . S
Cd226 O234 2.277 . S
O227 C224 1.160 . S
O227 Cd228 2.203 . S
Cd228 O227 2.203 . S
Cd228 O230 2.411 . S
Cd228 O231 2.333 . S
Cd228 O232 2.352 . S
Cd228 O236 2.277 . S
Cd228 O237 2.356 . S
C229 O234 1.209 . S
C229 O236 1.226 . S
O230 Cd226 2.273 . S
O230 Cd228 2.411 . S
O230 C233 1.320 . S
O231 Cd228 2.333 . S
O231 C233 1.214 . S
O232 Cd228 2.352 . S
O232 C235 1.258 . S
C233 O230 1.320 . S
C233 O231 1.214 . S
O234 Cd226 2.277 . S
O234 C229 1.209 . S
C235 O232 1.258 . S
C235 O237 1.282 . S
O236 Cd228 2.277 . S
O236 C229 1.226 . S
O237 Cd228 2.356 . S
O237 C235 1.282 . S
C238 O239 1.306 . S
C238 O241 1.160 . S
O239 C238 1.306 . S
O239 Cd240 2.228 . S
Cd240 O239 2.228 . S
Cd240 O244 2.273 . S
Cd240 O248 2.277 . S
O241 C238 1.160 . S
O241 Cd242 2.203 . S
Cd242 O241 2.203 . S
Cd242 O244 2.411 . S
Cd242 O245 2.333 . S
Cd242 O246 2.352 . S
Cd242 O250 2.277 . S
Cd242 O251 2.356 . S
C243 O248 1.209 . S
C243 O250 1.226 . S
O244 Cd240 2.273 . S
O244 Cd242 2.411 . S
O244 C247 1.320 . S
O245 Cd242 2.333 . S
O245 C247 1.214 . S
O246 Cd242 2.352 . S
O246 C249 1.258 . S
C247 O244 1.320 . S
C247 O245 1.214 . S
O248 Cd240 2.277 . S
O248 C243 1.209 . S
C249 O246 1.258 . S
C249 O251 1.282 . S
O250 Cd242 2.277 . S
O250 C243 1.226 . S
O251 Cd242 2.356 . S
O251 C249 1.282 . S
C252 O253 1.306 . S
C252 O255 1.160 . S
O253 C252 1.306 . S
O253 Cd254 2.228 . S
Cd254 O253 2.228 . S
Cd254 O258 2.273 . S
Cd254 O262 2.277 . S
O255 C252 1.160 . S
O255 Cd256 2.203 . S
Cd256 O255 2.203 . S
Cd256 O258 2.411 . S
Cd256 O259 2.333 . S
Cd256 O260 2.352 . S
Cd256 O264 2.277 . S
Cd256 O265 2.356 . S
C257 O262 1.209 . S
C257 O264 1.226 . S
O258 Cd254 2.273 . S
O258 Cd256 2.411 . S
O258 C261 1.320 . S
O259 Cd256 2.333 . S
O259 C261 1.214 . S
O260 Cd256 2.352 . S
O260 C263 1.258 . S
C261 O258 1.320 . S
C261 O259 1.214 . S
O262 Cd254 2.277 . S
O262 C257 1.209 . S
C263 O260 1.258 . S
C263 O265 1.282 . S
O264 Cd256 2.277 . S
O264 C257 1.226 . S
O265 Cd256 2.356 . S
O265 C263 1.282 . S
C266 O267 1.306 . S
C266 O269 1.160 . S
O267 C266 1.306 . S
O267 Cd268 2.228 . S
Cd268 O267 2.228 . S
Cd268 O272 2.273 . S
Cd268 O276 2.277 . S
O269 C266 1.160 . S
O269 Cd270 2.203 . S
Cd270 O269 2.203 . S
Cd270 O272 2.411 . S
Cd270 O273 2.333 . S
Cd270 O274 2.352 . S
Cd270 O278 2.277 . S
Cd270 O279 2.356 . S
C271 O276 1.209 . S
C271 O278 1.226 . S
O272 Cd268 2.273 . S
O272 Cd270 2.411 . S
O272 C275 1.320 . S
O273 Cd270 2.333 . S
O273 C275 1.214 . S
O274 Cd270 2.352 . S
O274 C277 1.258 . S
C275 O272 1.320 . S
C275 O273 1.214 . S
O276 Cd268 2.277 . S
O276 C271 1.209 . S
C277 O274 1.258 . S
C277 O279 1.282 . S
O278 Cd270 2.277 . S
O278 C271 1.226 . S
O279 Cd270 2.356 . S
O279 C277 1.282 . S
C280 O281 1.306 . S
C280 O283 1.160 . S
O281 C280 1.306 . S
O281 Cd282 2.228 . S
Cd282 O281 2.228 . S
Cd282 O286 2.273 . S
Cd282 O290 2.277 . S
O283 C280 1.160 . S
O283 Cd284 2.203 . S
Cd284 O283 2.203 . S
Cd284 O286 2.411 . S
Cd284 O287 2.333 . S
Cd284 O288 2.352 1_554 S
Cd284 O292 2.277 . S
Cd284 O293 2.356 1_554 S
C285 O290 1.209 . S
C285 O292 1.226 . S
O286 Cd282 2.273 . S
O286 Cd284 2.411 . S
O286 C289 1.320 . S
O287 Cd284 2.333 . S
O287 C289 1.214 . S
O288 Cd284 2.352 1_556 S
O288 C291 1.258 . S
C289 O286 1.320 . S
C289 O287 1.214 . S
O290 Cd282 2.277 . S
O290 C285 1.209 . S
C291 O288 1.258 . S
C291 O293 1.282 . S
O292 Cd284 2.277 . S
O292 C285 1.226 . S
O293 Cd284 2.356 1_556 S
O293 C291 1.282 . S
C294 O295 1.306 . S
C294 O297 1.160 . S
O295 C294 1.306 . S
O295 Cd296 2.228 . S
Cd296 O295 2.228 . S
Cd296 O300 2.273 . S
Cd296 O304 2.277 . S
O297 C294 1.160 . S
O297 Cd298 2.203 . S
Cd298 O297 2.203 . S
Cd298 O300 2.411 . S
Cd298 O301 2.333 . S
Cd298 O302 2.352 . S
Cd298 O306 2.277 . S
Cd298 O307 2.356 . S
C299 O304 1.209 . S
C299 O306 1.226 . S
O300 Cd296 2.273 . S
O300 Cd298 2.411 . S
O300 C303 1.320 . S
O301 Cd298 2.333 . S
O301 C303 1.214 . S
O302 Cd298 2.352 . S
O302 C305 1.258 . S
C303 O300 1.320 . S
C303 O301 1.214 . S
O304 Cd296 2.277 . S
O304 C299 1.209 . S
C305 O302 1.258 . S
C305 O307 1.282 . S
O306 Cd298 2.277 . S
O306 C299 1.226 . S
O307 Cd298 2.356 . S
O307 C305 1.282 . S
C308 O309 1.306 . S
C308 O311 1.160 . S
O309 C308 1.306 . S
O309 Cd310 2.228 . S
Cd310 O309 2.228 . S
Cd310 O314 2.273 . S
Cd310 O318 2.277 . S
O311 C308 1.160 . S
O311 Cd312 2.203 . S
Cd312 O311 2.203 . S
Cd312 O314 2.411 . S
Cd312 O315 2.333 . S
Cd312 O316 2.352 . S
Cd312 O320 2.277 . S
Cd312 O321 2.356 . S
C313 O318 1.209 . S
C313 O320 1.226 . S
O314 Cd310 2.273 . S
O314 Cd312 2.411 . S
O314 C317 1.320 . S
O315 Cd312 2.333 . S
O315 C317 1.214 . S
O316 Cd312 2.352 . S
O316 C319 1.258 . S
C317 O314 1.320 . S
C317 O315 1.214 . S
O318 Cd310 2.277 . S
O318 C313 1.209 . S
C319 O316 1.258 . S
C319 O321 1.282 . S
O320 Cd312 2.277 . S
O320 C313 1.226 . S
O321 Cd312 2.356 . S
O321 C319 1.282 . S
C322 O323 1.306 . S
C322 O325 1.160 . S
O323 C322 1.306 . S
O323 Cd324 2.228 . S
Cd324 O323 2.228 . S
Cd324 O328 2.273 . S
Cd324 O332 2.277 . S
O325 C322 1.160 . S
O325 Cd326 2.203 . S
Cd326 O325 2.203 . S
Cd326 O328 2.411 . S
Cd326 O329 2.333 . S
Cd326 O330 2.352 . S
Cd326 O334 2.277 . S
Cd326 O335 2.356 . S
C327 O332 1.209 . S
C327 O334 1.226 . S
O328 Cd324 2.273 . S
O328 Cd326 2.411 . S
O328 C331 1.320 . S
O329 Cd326 2.333 . S
O329 C331 1.214 . S
O330 Cd326 2.352 . S
O330 C333 1.258 . S
C331 O328 1.320 . S
C331 O329 1.214 . S
O332 Cd324 2.277 . S
O332 C327 1.209 . S
C333 O330 1.258 . S
C333 O335 1.282 . S
O334 Cd326 2.277 . S
O334 C327 1.226 . S
O335 Cd326 2.356 . S
O335 C333 1.282 . S
Eu336 C345 2.828 . S
Eu336 O347 2.392 . S
Eu336 O349 2.418 . S
Eu336 O354 2.373 . S
Eu336 O357 2.488 . S
Eu336 O358 2.471 1_554 S
Eu336 O359 2.349 1_554 S
Eu337 O346 2.373 . S
Eu337 O350 2.487 1_544 S
Eu337 O351 2.471 1_545 S
Eu337 O352 2.349 . S
Eu337 O355 2.392 1_554 S
Eu337 O356 2.418 1_554 S
Eu337 C366 2.828 1_545 S
C338 O356 1.244 . S
C338 O359 1.265 . S
C339 C340 1.379 1_554 S
C339 C343 1.373 . S
C339 C345 1.505 . S
C340 C339 1.379 1_556 S
C340 C342 1.369 . S
C340 H368 0.930 . S
C341 C343 1.383 . S
C341 C344 1.382 1_554 S
C341 H369 0.930 . S
C342 C340 1.369 . S
C342 C344 1.392 . S
C342 H370 0.930 . S
C343 C339 1.373 . S
C343 C341 1.383 . S
C343 H371 0.931 . S
C344 C341 1.382 1_556 S
C344 C342 1.392 . S
C345 Eu336 2.828 . S
C345 C339 1.505 . S
C345 O357 1.249 . S
C345 O358 1.244 1_554 S
O346 Eu337 2.373 . S
O346 C348 1.258 . S
O347 Eu336 2.392 . S
O347 C348 1.242 . S
C348 O346 1.258 . S
C348 O347 1.242 . S
O349 Eu336 2.418 . S
O349 C353 1.244 . S
O350 Eu337 2.487 1_566 S
O350 C366 1.217 1_556 S
O351 Eu337 2.471 1_565 S
O351 C366 1.244 . S
O352 Eu337 2.349 . S
O352 C353 1.265 . S
C353 O349 1.244 . S
C353 O352 1.265 . S
O354 Eu336 2.373 . S
O354 C367 1.258 . S
O355 Eu337 2.392 1_556 S
O355 C367 1.242 1_556 S
O356 Eu337 2.418 1_556 S
O356 C338 1.244 . S
O357 Eu336 2.488 . S
O357 C345 1.249 . S
O358 Eu336 2.471 1_556 S
O358 C345 1.244 1_556 S
O359 Eu336 2.349 1_556 S
O359 C338 1.265 . S
C360 C361 1.379 . S
C360 C364 1.373 . S
C360 C366 1.505 . S
C361 C360 1.379 . S
C361 C363 1.369 . S
C361 H372 0.930 . S
C362 C364 1.383 . S
C362 C365 1.382 . S
C362 H373 0.930 . S
C363 C361 1.369 . S
C363 C365 1.392 . S
C363 H374 0.930 . S
C364 C360 1.373 . S
C364 C362 1.383 . S
C364 H375 0.931 1_554 S
C365 C362 1.382 . S
C365 C363 1.392 . S
C366 Eu337 2.828 1_565 S
C366 O350 1.217 1_554 S
C366 O351 1.244 . S
C366 C360 1.505 . S
C367 O354 1.258 . S
C367 O355 1.242 1_554 S
H368 C340 0.930 . S
H369 C341 0.930 . S
H370 C342 0.930 . S
H371 C343 0.931 . S
H372 C361 0.930 . S
H373 C362 0.930 . S
H374 C363 0.930 . S
H375 C364 0.931 1_556 S
Eu376 C385 2.828 . S
Eu376 O387 2.392 . S
Eu376 O389 2.418 . S
Eu376 O394 2.373 . S
Eu376 O397 2.488 . S
Eu376 O398 2.471 . S
Eu376 O399 2.349 . S
Eu377 O386 2.373 . S
Eu377 O390 2.488 . S
Eu377 O391 2.471 . S
Eu377 O392 2.349 . S
Eu377 O395 2.392 . S
Eu377 O396 2.418 . S
Eu377 C406 2.828 . S
C378 O396 1.244 . S
C378 O399 1.265 . S
C379 C380 1.379 . S
C379 C383 1.373 . S
C379 C385 1.505 . S
C380 C379 1.379 . S
C380 C382 1.369 . S
C380 H408 0.930 . S
C381 C383 1.383 . S
C381 C384 1.382 . S
C381 H409 0.930 . S
C382 C380 1.369 . S
C382 C384 1.392 . S
C382 H410 0.930 . S
C383 C379 1.373 . S
C383 C381 1.383 . S
C383 H411 0.931 . S
C384 C381 1.382 . S
C384 C382 1.392 . S
C385 Eu376 2.828 . S
C385 C379 1.505 . S
C385 O397 1.249 . S
C385 O398 1.244 . S
O386 Eu377 2.373 . S
O386 C388 1.258 . S
O387 Eu376 2.392 . S
O387 C388 1.242 . S
C388 O386 1.258 . S
C388 O387 1.242 . S
O389 Eu376 2.418 . S
O389 C393 1.244 . S
O390 Eu377 2.488 . S
O390 C406 1.249 . S
O391 Eu377 2.471 . S
O391 C406 1.244 . S
O392 Eu377 2.349 . S
O392 C393 1.265 . S
C393 O389 1.244 . S
C393 O392 1.265 . S
O394 Eu376 2.373 . S
O394 C407 1.258 . S
O395 Eu377 2.392 . S
O395 C407 1.242 . S
O396 Eu377 2.418 . S
O396 C378 1.244 . S
O397 Eu376 2.488 . S
O397 C385 1.249 . S
O398 Eu376 2.471 . S
O398 C385 1.244 . S
O399 Eu376 2.349 . S
O399 C378 1.265 . S
C400 C401 1.379 . S
C400 C404 1.373 . S
C400 C406 1.505 . S
C401 C400 1.379 . S
C401 C403 1.369 . S
C401 H412 0.930 . S
C402 C404 1.383 . S
C402 C405 1.382 . S
C402 H413 0.930 . S
C403 C401 1.369 . S
C403 C405 1.392 . S
C403 H414 0.930 . S
C404 C400 1.373 . S
C404 C402 1.383 . S
C404 H415 0.931 . S
C405 C402 1.382 . S
C405 C403 1.392 . S
C406 Eu377 2.828 . S
C406 O390 1.249 . S
C406 O391 1.244 . S
C406 C400 1.505 . S
C407 O394 1.258 . S
C407 O395 1.242 . S
H408 C380 0.930 . S
H409 C381 0.930 . S
H410 C382 0.930 . S
H411 C383 0.931 . S
H412 C401 0.930 . S
H413 C402 0.930 . S
H414 C403 0.930 . S
H415 C404 0.931 . S
Eu416 C425 2.828 . S
Eu416 O427 2.392 . S
Eu416 O429 2.418 . S
Eu416 O434 2.325 1_545 S
Eu416 O437 2.488 . S
Eu416 O438 2.471 . S
Eu416 O439 2.349 . S
Eu417 O426 2.373 . S
Eu417 O430 2.488 . S
Eu417 O431 2.471 . S
Eu417 O432 2.349 . S
Eu417 O435 2.392 1_545 S
Eu417 O436 2.418 . S
Eu417 C446 2.828 . S
C418 O436 1.244 . S
C418 O439 1.265 . S
C419 C420 1.379 . S
C419 C423 1.373 . S
C419 C425 1.505 1_565 S
C420 C419 1.379 . S
C420 C422 1.369 . S
C420 H448 0.930 . S
C421 C423 1.383 . S
C421 C424 1.382 . S
C421 H449 0.930 . S
C422 C420 1.369 . S
C422 C424 1.392 . S
C422 H450 0.930 . S
C423 C419 1.373 . S
C423 C421 1.383 . S
C423 H451 0.931 1_565 S
C424 C421 1.382 . S
C424 C422 1.392 . S
C425 Eu416 2.828 . S
C425 C419 1.505 1_545 S
C425 O437 1.249 . S
C425 O438 1.244 . S
O426 Eu417 2.373 . S
O426 C428 1.258 . S
O427 Eu416 2.392 . S
O427 C428 1.242 . S
C428 O426 1.258 . S
C428 O427 1.242 . S
O429 Eu416 2.418 . S
O429 C433 1.244 . S
O430 Eu417 2.488 . S
O430 C446 1.249 . S
O431 Eu417 2.471 . S
O431 C446 1.244 . S
O432 Eu417 2.349 . S
O432 C433 1.265 . S
C433 O429 1.244 . S
C433 O432 1.265 . S
O434 Eu416 2.325 1_565 S
O434 C447 1.288 . S
O435 Eu417 2.392 1_565 S
O435 C447 1.242 . S
O436 Eu417 2.418 . S
O436 C418 1.244 . S
O437 Eu416 2.488 . S
O437 C425 1.249 . S
O438 Eu416 2.471 . S
O438 C425 1.244 . S
O439 Eu416 2.349 . S
O439 C418 1.265 . S
C440 C441 1.379 . S
C440 C444 1.373 . S
C440 C446 1.505 . S
C441 C440 1.379 . S
C441 C443 1.369 . S
C441 H452 0.930 . S
C442 C444 1.383 . S
C442 C445 1.382 . S
C442 H453 0.930 . S
C443 C441 1.369 . S
C443 C445 1.392 . S
C443 H454 0.930 . S
C444 C440 1.373 . S
C444 C442 1.383 . S
C444 H455 0.931 . S
C445 C442 1.382 . S
C445 C443 1.392 . S
C446 Eu417 2.828 . S
C446 O430 1.249 . S
C446 O431 1.244 . S
C446 C440 1.505 . S
C447 O434 1.288 . S
C447 O435 1.242 . S
H448 C420 0.930 . S
H449 C421 0.930 . S
H450 C422 0.930 . S
H451 C423 0.931 1_545 S
H452 C441 0.930 . S
H453 C442 0.930 . S
H454 C443 0.930 . S
H455 C444 0.931 . S
Eu456 C465 2.828 . S
Eu456 O467 2.392 . S
Eu456 O469 2.418 . S
Eu456 O474 2.373 . S
Eu456 O477 2.488 . S
Eu456 O478 2.471 . S
Eu456 O479 2.349 . S
Eu457 O466 2.373 . S
Eu457 O470 2.488 . S
Eu457 O471 2.471 . S
Eu457 O472 2.349 . S
Eu457 O475 2.392 . S
Eu457 O476 2.418 . S
Eu457 C486 2.828 . S
C458 O476 1.244 . S
C458 O479 1.265 . S
C459 C460 1.379 . S
C459 C463 1.373 . S
C459 C465 1.505 . S
C460 C459 1.379 . S
C460 C462 1.369 . S
C460 H488 0.930 . S
C461 C463 1.383 . S
C461 C464 1.382 . S
C461 H489 0.930 . S
C462 C460 1.369 . S
C462 C464 1.392 . S
C462 H490 0.930 . S
C463 C459 1.373 . S
C463 C461 1.383 . S
C463 H491 0.931 . S
C464 C461 1.382 . S
C464 C462 1.392 . S
C465 Eu456 2.828 . S
C465 C459 1.505 . S
C465 O477 1.249 . S
C465 O478 1.244 . S
O466 Eu457 2.373 . S
O466 C468 1.258 . S
O467 Eu456 2.392 . S
O467 C468 1.242 . S
C468 O466 1.258 . S
C468 O467 1.242 . S
O469 Eu456 2.418 . S
O469 C473 1.244 . S
O470 Eu457 2.488 . S
O470 C486 1.249 . S
O471 Eu457 2.471 . S
O471 C486 1.244 . S
O472 Eu457 2.349 . S
O472 C473 1.265 . S
C473 O469 1.244 . S
C473 O472 1.265 . S
O474 Eu456 2.373 . S
O474 C487 1.258 . S
O475 Eu457 2.392 . S
O475 C487 1.242 . S
O476 Eu457 2.418 . S
O476 C458 1.244 . S
O477 Eu456 2.488 . S
O477 C465 1.249 . S
O478 Eu456 2.471 . S
O478 C465 1.244 . S
O479 Eu456 2.349 . S
O479 C458 1.265 . S
C480 C481 1.379 . S
C480 C484 1.373 . S
C480 C486 1.505 . S
C481 C480 1.379 . S
C481 C483 1.369 . S
C481 H492 0.930 . S
C482 C484 1.383 . S
C482 C485 1.382 . S
C482 H493 0.930 . S
C483 C481 1.369 . S
C483 C485 1.392 . S
C483 H494 0.930 . S
C484 C480 1.373 . S
C484 C482 1.383 . S
C484 H495 0.931 . S
C485 C482 1.382 . S
C485 C483 1.392 . S
C486 Eu457 2.828 . S
C486 O470 1.249 . S
C486 O471 1.244 . S
C486 C480 1.505 . S
C487 O474 1.258 . S
C487 O475 1.242 . S
H488 C460 0.930 . S
H489 C461 0.930 . S
H490 C462 0.930 . S
H491 C463 0.931 . S
H492 C481 0.930 . S
H493 C482 0.930 . S
H494 C483 0.930 . S
H495 C484 0.931 . S
Eu496 C505 2.828 . S
Eu496 O507 2.392 . S
Eu496 O509 2.471 . S
Eu496 O514 2.373 . S
Eu496 O517 2.488 . S
Eu496 O518 2.471 . S
Eu496 O519 2.349 . S
Eu497 O506 2.373 . S
Eu497 O510 2.488 1_545 S
Eu497 O511 2.471 1_545 S
Eu497 O512 2.349 . S
Eu497 O515 2.392 . S
Eu497 O516 2.418 . S
Eu497 C526 2.828 1_545 S
C498 O516 1.244 . S
C498 O519 1.265 . S
C499 C500 1.379 . S
C499 C503 1.373 . S
C499 C505 1.505 . S
C500 C499 1.379 . S
C500 C502 1.369 . S
C500 H528 0.930 . S
C501 C503 1.383 . S
C501 C504 1.382 . S
C501 H529 0.930 1_455 S
C502 C500 1.369 . S
C502 C504 1.392 . S
C502 H530 0.930 . S
C503 C499 1.373 . S
C503 C501 1.383 . S
C503 H531 0.952 . S
C504 C501 1.382 . S
C504 C502 1.392 . S
C505 Eu496 2.828 . S
C505 C499 1.505 . S
C505 O517 1.249 . S
C505 O518 1.244 . S
O506 Eu497 2.373 . S
O506 C508 1.258 . S
O507 Eu496 2.392 . S
O507 C508 1.242 . S
C508 O506 1.258 . S
C508 O507 1.242 . S
O509 Eu496 2.471 . S
O509 C513 1.266 . S
O510 Eu497 2.488 1_565 S
O510 C526 1.249 . S
O511 Eu497 2.471 1_565 S
O511 C526 1.244 . S
O512 Eu497 2.349 . S
O512 C513 1.265 . S
C513 O509 1.266 . S
C513 O512 1.265 . S
O514 Eu496 2.373 . S
O514 C527 1.258 . S
O515 Eu497 2.392 . S
O515 C527 1.242 . S
O516 Eu497 2.418 . S
O516 C498 1.244 . S
O517 Eu496 2.488 . S
O517 C505 1.249 . S
O518 Eu496 2.471 . S
O518 C505 1.244 . S
O519 Eu496 2.349 . S
O519 C498 1.265 . S
C520 C521 1.379 . S
C520 C524 1.373 . S
C520 C526 1.505 . S
C521 C520 1.379 . S
C521 C523 1.369 . S
C521 H532 0.930 . S
C522 C524 1.383 . S
C522 C525 1.382 . S
C522 H533 0.930 . S
C523 C521 1.369 . S
C523 C525 1.392 . S
C523 H534 0.930 . S
C524 C520 1.373 . S
C524 C522 1.383 . S
C524 H535 0.931 . S
C525 C522 1.382 . S
C525 C523 1.392 . S
C526 Eu497 2.828 1_565 S
C526 O510 1.249 . S
C526 O511 1.244 . S
C526 C520 1.505 . S
C527 O514 1.258 . S
C527 O515 1.242 . S
H528 C500 0.930 . S
H529 C501 0.930 1_655 S
H530 C502 0.930 . S
H531 C503 0.952 . S
H532 C521 0.930 . S
H533 C522 0.930 . S
H534 C523 0.930 . S
H535 C524 0.931 . S
Eu536 C545 2.828 . S
Eu536 O547 2.392 . S
Eu536 O549 2.418 . S
Eu536 O554 2.373 . S
Eu536 O557 2.488 . S
Eu536 O558 2.471 . S
Eu536 O559 2.349 . S
Eu537 O546 2.373 . S
Eu537 O550 2.488 . S
Eu537 O551 2.471 . S
Eu537 O552 2.349 . S
Eu537 O555 2.392 . S
Eu537 O556 2.418 . S
Eu537 C566 2.828 . S
C538 O556 1.244 . S
C538 O559 1.265 . S
C539 C540 1.379 . S
C539 C543 1.373 . S
C539 C545 1.505 . S
C540 C539 1.379 . S
C540 C542 1.369 . S
C540 H568 0.930 . S
C541 C543 1.383 . S
C541 C544 1.382 . S
C541 H569 0.930 . S
C542 C540 1.369 . S
C542 C544 1.392 . S
C542 H570 0.930 . S
C543 C539 1.373 . S
C543 C541 1.383 . S
C543 H571 0.931 . S
C544 C541 1.382 . S
C544 C542 1.392 . S
C545 Eu536 2.828 . S
C545 C539 1.505 . S
C545 O557 1.249 . S
C545 O558 1.244 . S
O546 Eu537 2.373 . S
O546 C548 1.258 . S
O547 Eu536 2.392 . S
O547 C548 1.242 . S
C548 O546 1.258 . S
C548 O547 1.242 . S
O549 Eu536 2.418 . S
O549 C553 1.244 . S
O550 Eu537 2.488 . S
O550 C566 1.249 . S
O551 Eu537 2.471 . S
O551 C566 1.244 . S
O552 Eu537 2.349 . S
O552 C553 1.265 . S
C553 O549 1.244 . S
C553 O552 1.265 . S
O554 Eu536 2.373 . S
O554 C567 1.258 . S
O555 Eu537 2.392 . S
O555 C567 1.242 . S
O556 Eu537 2.418 . S
O556 C538 1.244 . S
O557 Eu536 2.488 . S
O557 C545 1.249 . S
O558 Eu536 2.471 . S
O558 C545 1.244 . S
O559 Eu536 2.349 . S
O559 C538 1.265 . S
C560 C561 1.379 . S
C560 C564 1.373 . S
C560 C566 1.505 . S
C561 C560 1.379 . S
C561 C563 1.369 . S
C561 H572 0.930 . S
C562 C564 1.383 . S
C562 C565 1.382 . S
C562 H573 0.930 . S
C563 C561 1.369 . S
C563 C565 1.392 . S
C563 H574 0.930 . S
C564 C560 1.373 . S
C564 C562 1.383 . S
C564 H575 0.931 . S
C565 C562 1.382 . S
C565 C563 1.392 . S
C566 Eu537 2.828 . S
C566 O550 1.249 . S
C566 O551 1.244 . S
C566 C560 1.505 . S
C567 O554 1.258 . S
C567 O555 1.242 . S
H568 C540 0.930 . S
H569 C541 0.930 . S
H570 C542 0.930 . S
H571 C543 0.931 . S
H572 C561 0.930 . S
H573 C562 0.930 . S
H574 C563 0.930 . S
H575 C564 0.931 . S
Eu576 C585 2.828 . S
Eu576 O587 2.392 . S
Eu576 O589 2.418 1_545 S
Eu576 O594 2.373 . S
Eu576 O597 2.488 . S
Eu576 O598 2.471 . S
Eu576 O599 2.349 . S
Eu577 O586 2.373 . S
Eu577 O590 2.488 . S
Eu577 O591 2.471 . S
Eu577 O592 2.349 . S
Eu577 O595 2.392 . S
Eu577 O596 2.418 1_556 S
Eu577 C606 2.828 . S
C578 O596 1.244 . S
C578 O599 1.265 . S
C579 C580 1.379 . S
C579 C583 1.373 1_545 S
C579 C585 1.505 . S
C580 C579 1.379 . S
C580 C582 1.369 . S
C580 H608 0.930 . S
C581 C583 1.383 . S
C581 C584 1.382 1_565 S
C581 H609 0.930 . S
C582 C580 1.369 . S
C582 C584 1.392 . S
C582 H610 0.930 . S
C583 C579 1.373 1_565 S
C583 C581 1.383 . S
C583 H611 0.931 . S
C584 C581 1.382 1_545 S
C584 C582 1.392 . S
C585 Eu576 2.828 . S
C585 C579 1.505 . S
C585 O597 1.249 . S
C585 O598 1.244 . S
O586 Eu577 2.373 . S
O586 C588 1.258 1_556 S
O587 Eu576 2.392 . S
O587 C588 1.242 . S
C588 O586 1.258 1_554 S
C588 O587 1.242 . S
O589 Eu576 2.418 1_565 S
O589 C593 1.264 . S
O590 Eu577 2.488 . S
O590 C606 1.249 . S
O591 Eu577 2.471 . S
O591 C606 1.244 . S
O592 Eu577 2.349 . S
O592 C593 1.257 1_546 S
C593 O589 1.264 . S
C593 O592 1.257 1_564 S
O594 Eu576 2.373 . S
O594 C607 1.258 . S
O595 Eu577 2.392 . S
O595 C607 1.242 1_556 S
O596 Eu577 2.418 1_554 S
O596 C578 1.244 . S
O597 Eu576 2.488 . S
O597 C585 1.249 . S
O598 Eu576 2.471 . S
O598 C585 1.244 . S
O599 Eu576 2.349 . S
O599 C578 1.265 . S
C600 C601 1.379 . S
C600 C604 1.373 . S
C600 C606 1.505 . S
C601 C600 1.379 . S
C601 C603 1.369 . S
C601 H612 0.930 . S
C602 C604 1.383 . S
C602 C605 1.382 . S
C602 H613 0.930 . S
C603 C601 1.369 . S
C603 C605 1.392 . S
C603 H614 0.930 . S
C604 C600 1.373 . S
C604 C602 1.383 . S
C604 H615 0.931 . S
C605 C602 1.382 . S
C605 C603 1.392 . S
C606 Eu577 2.828 . S
C606 O590 1.249 . S
C606 O591 1.244 . S
C606 C600 1.505 . S
C607 O594 1.258 . S
C607 O595 1.242 1_554 S
H608 C580 0.930 . S
H609 C581 0.930 . S
H610 C582 0.930 . S
H611 C583 0.931 . S
H612 C601 0.930 . S
H613 C602 0.930 . S
H614 C603 0.930 . S
H615 C604 0.931 . S
Eu616 C625 2.828 . S
Eu616 O627 2.392 . S
Eu616 O629 2.418 . S
Eu616 O634 2.373 . S
Eu616 O637 2.488 . S
Eu616 O638 2.471 . S
Eu616 O639 2.349 . S
Eu617 O626 2.373 . S
Eu617 O630 2.488 . S
Eu617 O631 2.471 . S
Eu617 O632 2.349 . S
Eu617 O635 2.392 . S
Eu617 O636 2.418 . S
Eu617 C646 2.828 . S
C618 O636 1.244 . S
C618 O639 1.265 . S
C619 C620 1.379 . S
C619 C623 1.373 . S
C619 C625 1.505 . S
C620 C619 1.379 . S
C620 C622 1.369 . S
C620 H648 0.930 . S
C621 C623 1.383 . S
C621 C624 1.382 . S
C621 H649 0.930 . S
C622 C620 1.369 . S
C622 C624 1.392 . S
C622 H650 0.930 . S
C623 C619 1.373 . S
C623 C621 1.383 . S
C623 H651 0.931 . S
C624 C621 1.382 . S
C624 C622 1.392 . S
C625 Eu616 2.828 . S
C625 C619 1.505 . S
C625 O637 1.249 . S
C625 O638 1.244 . S
O626 Eu617 2.373 . S
O626 C628 1.258 . S
O627 Eu616 2.392 . S
O627 C628 1.242 . S
C628 O626 1.258 . S
C628 O627 1.242 . S
O629 Eu616 2.418 . S
O629 C633 1.244 . S
O630 Eu617 2.488 . S
O630 C646 1.249 . S
O631 Eu617 2.471 . S
O631 C646 1.244 . S
O632 Eu617 2.349 . S
O632 C633 1.265 . S
C633 O629 1.244 . S
C633 O632 1.265 . S
O634 Eu616 2.373 . S
O634 C647 1.258 . S
O635 Eu617 2.392 . S
O635 C647 1.242 . S
O636 Eu617 2.418 . S
O636 C618 1.244 . S
O637 Eu616 2.488 . S
O637 C625 1.249 . S
O638 Eu616 2.471 . S
O638 C625 1.244 . S
O639 Eu616 2.349 . S
O639 C618 1.265 . S
C640 C641 1.379 . S
C640 C644 1.373 . S
C640 C646 1.505 . S
C641 C640 1.379 . S
C641 C643 1.369 . S
C641 H652 0.930 . S
C642 C644 1.383 . S
C642 C645 1.382 . S
C642 H653 0.930 . S
C643 C641 1.369 . S
C643 C645 1.392 . S
C643 H654 0.930 . S
C644 C640 1.373 . S
C644 C642 1.383 . S
C644 H655 0.931 . S
C645 C642 1.382 . S
C645 C643 1.392 . S
C646 Eu617 2.828 . S
C646 O630 1.249 . S
C646 O631 1.244 . S
C646 C640 1.505 . S
C647 O634 1.258 . S
C647 O635 1.242 . S
H648 C620 0.930 . S
H649 C621 0.930 . S
H650 C622 0.930 . S
H651 C623 0.931 . S
H652 C641 0.930 . S
H653 C642 0.930 . S
H654 C643 0.930 . S
H655 C644 0.931 . S
Eu656 C665 2.828 . S
Eu656 O667 2.392 . S
Eu656 O669 2.418 . S
Eu656 O674 2.373 1_554 S
Eu656 O677 2.488 . S
Eu656 O678 2.471 . S
Eu656 O679 2.349 . S
Eu657 O666 2.407 . S
Eu657 O670 2.502 . S
Eu657 O671 2.494 . S
Eu657 O672 2.361 . S
Eu657 O675 2.362 1_554 S
Eu657 O676 2.414 . S
Eu657 C686 2.848 . S
C658 O676 1.244 . S
C658 O679 1.265 . S
C659 C660 1.379 . S
C659 C663 1.373 . S
C659 C665 1.505 1_556 S
C660 C659 1.379 . S
C660 C662 1.369 . S
C660 H688 0.930 . S
C661 C663 1.383 . S
C661 C664 1.382 . S
C661 H689 0.930 . S
C662 C660 1.369 . S
C662 C664 1.392 . S
C662 H690 0.930 . S
C663 C659 1.373 . S
C663 C661 1.383 . S
C663 H691 0.931 1_556 S
C664 C661 1.382 . S
C664 C662 1.392 . S
C665 Eu656 2.828 . S
C665 C659 1.505 1_554 S
C665 O677 1.249 . S
C665 O678 1.244 . S
O666 Eu657 2.407 . S
O666 C668 1.258 . S
O667 Eu656 2.392 . S
O667 C668 1.242 . S
C668 O666 1.258 . S
C668 O667 1.242 . S
O669 Eu656 2.418 . S
O669 C673 1.244 . S
O670 Eu657 2.502 . S
O670 C686 1.249 . S
O671 Eu657 2.494 . S
O671 C686 1.244 . S
O672 Eu657 2.361 . S
O672 C673 1.265 . S
C673 O669 1.244 . S
C673 O672 1.265 . S
O674 Eu656 2.373 1_556 S
O674 C687 1.258 . S
O675 Eu657 2.362 1_556 S
O675 C687 1.242 . S
O676 Eu657 2.414 . S
O676 C658 1.244 . S
O677 Eu656 2.488 . S
O677 C665 1.249 . S
O678 Eu656 2.471 . S
O678 C665 1.244 . S
O679 Eu656 2.349 . S
O679 C658 1.265 . S
C680 C681 1.379 . S
C680 C684 1.373 . S
C680 C686 1.505 . S
C681 C680 1.379 . S
C681 C683 1.369 . S
C681 H692 0.930 . S
C682 C684 1.383 . S
C682 C685 1.382 . S
C682 H693 0.930 . S
C683 C681 1.369 . S
C683 C685 1.392 . S
C683 H694 0.930 . S
C684 C680 1.373 . S
C684 C682 1.383 . S
C684 H695 0.931 . S
C685 C682 1.382 . S
C685 C683 1.392 . S
C686 Eu657 2.848 . S
C686 O670 1.249 . S
C686 O671 1.244 . S
C686 C680 1.505 . S
C687 O674 1.258 . S
C687 O675 1.242 . S
H688 C660 0.930 . S
H689 C661 0.930 . S
H690 C662 0.930 . S
H691 C663 0.931 1_554 S
H692 C681 0.930 . S
H693 C682 0.930 . S
H694 C683 0.930 . S
H695 C684 0.931 . S
Eu696 C705 2.828 . S
Eu696 O707 2.392 . S
Eu696 O709 2.418 . S
Eu696 O714 2.373 . S
Eu696 O717 2.488 . S
Eu696 O718 2.471 . S
Eu696 O719 2.349 . S
Eu697 O706 2.373 . S
Eu697 O710 2.488 . S
Eu697 O711 2.471 . S
Eu697 O712 2.349 . S
Eu697 O715 2.392 . S
Eu697 O716 2.418 . S
Eu697 C726 2.828 . S
C698 O716 1.244 . S
C698 O719 1.265 . S
C699 C700 1.379 . S
C699 C703 1.373 . S
C699 C705 1.505 . S
C700 C699 1.379 . S
C700 C702 1.369 . S
C700 H728 0.930 . S
C701 C703 1.383 . S
C701 C704 1.382 . S
C701 H729 0.930 . S
C702 C700 1.369 . S
C702 C704 1.392 . S
C702 H730 0.930 . S
C703 C699 1.373 . S
C703 C701 1.383 . S
C703 H731 0.931 . S
C704 C701 1.382 . S
C704 C702 1.392 . S
C705 Eu696 2.828 . S
C705 C699 1.505 . S
C705 O717 1.249 . S
C705 O718 1.244 . S
O706 Eu697 2.373 . S
O706 C708 1.258 . S
O707 Eu696 2.392 . S
O707 C708 1.242 . S
C708 O706 1.258 . S
C708 O707 1.242 . S
O709 Eu696 2.418 . S
O709 C713 1.244 . S
O710 Eu697 2.488 . S
O710 C726 1.249 . S
O711 Eu697 2.471 . S
O711 C726 1.244 . S
O712 Eu697 2.349 . S
O712 C713 1.265 . S
C713 O709 1.244 . S
C713 O712 1.265 . S
O714 Eu696 2.373 . S
O714 C727 1.258 . S
O715 Eu697 2.392 . S
O715 C727 1.242 . S
O716 Eu697 2.418 . S
O716 C698 1.244 . S
O717 Eu696 2.488 . S
O717 C705 1.249 . S
O718 Eu696 2.471 . S
O718 C705 1.244 . S
O719 Eu696 2.349 . S
O719 C698 1.265 . S
C720 C721 1.379 . S
C720 C724 1.373 . S
C720 C726 1.505 . S
C721 C720 1.379 . S
C721 C723 1.369 . S
C721 H732 0.930 . S
C722 C724 1.383 . S
C722 C725 1.382 . S
C722 H733 0.930 . S
C723 C721 1.369 . S
C723 C725 1.392 . S
C723 H734 0.930 . S
C724 C720 1.373 . S
C724 C722 1.383 . S
C724 H735 0.931 . S
C725 C722 1.382 . S
C725 C723 1.392 . S
C726 Eu697 2.828 . S
C726 O710 1.249 . S
C726 O711 1.244 . S
C726 C720 1.505 . S
C727 O714 1.258 . S
C727 O715 1.242 . S
H728 C700 0.930 . S
H729 C701 0.930 . S
H730 C702 0.930 . S
H731 C703 0.931 . S
H732 C721 0.930 . S
H733 C722 0.930 . S
H734 C723 0.930 . S
H735 C724 0.931 . S
Eu736 C745 2.828 . S
Eu736 O747 2.392 . S
Eu736 O749 2.418 . S
Eu736 O754 2.373 . S
Eu736 O757 2.488 . S
Eu736 O758 2.471 . S
Eu736 O759 2.349 . S
Eu737 O746 2.373 . S
Eu737 O750 2.488 . S
Eu737 O751 2.471 . S
Eu737 O752 2.349 . S
Eu737 O755 2.392 . S
Eu737 O756 2.418 . S
Eu737 C766 2.828 . S
C738 O756 1.244 . S
C738 O759 1.265 . S
C739 C740 1.379 1_455 S
C739 C743 1.373 . S
C739 C745 1.505 . S
C740 C739 1.379 1_655 S
C740 C742 1.369 . S
C740 H768 0.930 . S
C741 C743 1.383 1_655 S
C741 C744 1.382 . S
C741 H769 0.941 . S
C742 C740 1.369 . S
C742 C744 1.392 . S
C742 H770 0.930 . S
C743 C739 1.373 . S
C743 C741 1.383 1_455 S
C743 H771 0.931 . S
C744 C741 1.382 . S
C744 C742 1.392 . S
C745 Eu736 2.828 . S
C745 C739 1.505 . S
C745 O757 1.249 . S
C745 O758 1.244 . S
O746 Eu737 2.373 . S
O746 C748 1.258 . S
O747 Eu736 2.392 . S
O747 C748 1.242 . S
C748 O746 1.258 . S
C748 O747 1.242 . S
O749 Eu736 2.418 . S
O749 C753 1.244 . S
O750 Eu737 2.488 . S
O750 C766 1.249 . S
O751 Eu737 2.471 . S
O751 C766 1.244 . S
O752 Eu737 2.349 . S
O752 C753 1.265 . S
C753 O749 1.244 . S
C753 O752 1.265 . S
O754 Eu736 2.373 . S
O754 C767 1.258 1_455 S
O755 Eu737 2.392 . S
O755 C767 1.242 1_455 S
O756 Eu737 2.418 . S
O756 C738 1.244 . S
O757 Eu736 2.488 . S
O757 C745 1.249 . S
O758 Eu736 2.471 . S
O758 C745 1.244 . S
O759 Eu736 2.349 . S
O759 C738 1.265 . S
C760 C761 1.379 . S
C760 C764 1.373 . S
C760 C766 1.505 . S
C761 C760 1.379 . S
C761 C763 1.369 . S
C761 H772 0.930 . S
C762 C764 1.383 . S
C762 C765 1.382 . S
C762 H773 0.930 . S
C763 C761 1.369 . S
C763 C765 1.392 . S
C763 H774 0.930 . S
C764 C760 1.373 . S
C764 C762 1.383 . S
C764 H775 0.931 . S
C765 C762 1.382 . S
C765 C763 1.392 . S
C766 Eu737 2.828 . S
C766 O750 1.249 . S
C766 O751 1.244 . S
C766 C760 1.505 . S
C767 O754 1.258 1_655 S
C767 O755 1.242 1_655 S
H768 C740 0.930 . S
H769 C741 0.941 . S
H770 C742 0.930 . S
H771 C743 0.931 . S
H772 C761 0.930 . S
H773 C762 0.930 . S
H774 C763 0.930 . S
H775 C764 0.931 . S
Eu776 C785 2.828 . S
Eu776 O787 2.392 . S
Eu776 O789 2.418 . S
Eu776 O794 2.373 . S
Eu776 O797 2.488 . S
Eu776 O798 2.471 . S
Eu776 O799 2.349 . S
Eu777 O786 2.373 . S
Eu777 O790 2.488 . S
Eu777 O791 2.471 . S
Eu777 O792 2.349 . S
Eu777 O795 2.392 . S
Eu777 O796 2.418 . S
Eu777 C806 2.828 . S
C778 O796 1.244 . S
C778 O799 1.265 . S
C779 C780 1.379 . S
C779 C783 1.373 . S
C779 C785 1.505 . S
C780 C779 1.379 . S
C780 C782 1.369 . S
C780 H808 0.930 . S
C781 C783 1.383 . S
C781 C784 1.382 . S
C781 H809 0.930 . S
C782 C780 1.369 . S
C782 C784 1.392 . S
C782 H810 0.930 . S
C783 C779 1.373 . S
C783 C781 1.383 . S
C783 H811 0.931 . S
C784 C781 1.382 . S
C784 C782 1.392 . S
C785 Eu776 2.828 . S
C785 C779 1.505 . S
C785 O797 1.249 . S
C785 O798 1.244 . S
O786 Eu777 2.373 . S
O786 C788 1.258 . S
O787 Eu776 2.392 . S
O787 C788 1.242 . S
C788 O786 1.258 . S
C788 O787 1.242 . S
O789 Eu776 2.418 . S
O789 C793 1.244 . S
O790 Eu777 2.488 . S
O790 C806 1.249 . S
O791 Eu777 2.471 . S
O791 C806 1.244 . S
O792 Eu777 2.349 . S
O792 C793 1.265 . S
C793 O789 1.244 . S
C793 O792 1.265 . S
O794 Eu776 2.373 . S
O794 C807 1.258 . S
O795 Eu777 2.392 . S
O795 C807 1.242 . S
O796 Eu777 2.418 . S
O796 C778 1.244 . S
O797 Eu776 2.488 . S
O797 C785 1.249 . S
O798 Eu776 2.471 . S
O798 C785 1.244 . S
O799 Eu776 2.349 . S
O799 C778 1.265 . S
C800 C801 1.379 . S
C800 C804 1.373 . S
C800 C806 1.505 . S
C801 C800 1.379 . S
C801 C803 1.369 . S
C801 H812 0.930 . S
C802 C804 1.383 . S
C802 C805 1.382 . S
C802 H813 0.930 . S
C803 C801 1.369 . S
C803 C805 1.392 . S
C803 H814 0.930 . S
C804 C800 1.373 . S
C804 C802 1.383 . S
C804 H815 0.931 . S
C805 C802 1.382 . S
C805 C803 1.392 . S
C806 Eu777 2.828 . S
C806 O790 1.249 . S
C806 O791 1.244 . S
C806 C800 1.505 . S
C807 O794 1.258 . S
C807 O795 1.242 . S
H808 C780 0.930 . S
H809 C781 0.930 . S
H810 C782 0.930 . S
H811 C783 0.931 . S
H812 C801 0.930 . S
H813 C802 0.930 . S
H814 C803 0.930 . S
H815 C804 0.931 . S
Eu816 C825 2.828 . S
Eu816 O827 2.392 . S
Eu816 O829 2.418 . S
Eu816 O834 2.373 . S
Eu816 O837 2.488 . S
Eu816 O838 2.471 . S
Eu816 O839 2.349 . S
Eu817 O826 2.373 . S
Eu817 O830 2.488 . S
Eu817 O831 2.471 . S
Eu817 O832 2.349 . S
Eu817 O835 2.392 . S
Eu817 O836 2.418 . S
Eu817 C846 2.828 . S
C818 O836 1.244 . S
C818 O839 1.265 . S
C819 C820 1.379 . S
C819 C823 1.373 . S
C819 C825 1.505 . S
C820 C819 1.379 . S
C820 C822 1.369 . S
C820 H848 0.930 . S
C821 C823 1.383 . S
C821 C824 1.382 . S
C821 H849 0.930 . S
C822 C820 1.369 . S
C822 C824 1.392 . S
C822 H850 0.930 . S
C823 C819 1.373 . S
C823 C821 1.383 . S
C823 H851 0.931 . S
C824 C821 1.382 . S
C824 C822 1.392 . S
C825 Eu816 2.828 . S
C825 C819 1.505 . S
C825 O837 1.249 . S
C825 O838 1.244 . S
O826 Eu817 2.373 . S
O826 C828 1.258 . S
O827 Eu816 2.392 . S
O827 C828 1.242 . S
C828 O826 1.258 . S
C828 O827 1.242 . S
O829 Eu816 2.418 . S
O829 C833 1.244 . S
O830 Eu817 2.488 . S
O830 C846 1.249 . S
O831 Eu817 2.471 . S
O831 C846 1.244 . S
O832 Eu817 2.349 . S
O832 C833 1.265 . S
C833 O829 1.244 . S
C833 O832 1.265 . S
O834 Eu816 2.373 . S
O834 C847 1.258 . S
O835 Eu817 2.392 . S
O835 C847 1.242 . S
O836 Eu817 2.418 . S
O836 C818 1.244 . S
O837 Eu816 2.488 . S
O837 C825 1.249 . S
O838 Eu816 2.471 . S
O838 C825 1.244 . S
O839 Eu816 2.349 . S
O839 C818 1.265 . S
C840 C841 1.379 . S
C840 C844 1.373 . S
C840 C846 1.505 . S
C841 C840 1.379 . S
C841 C843 1.369 . S
C841 H852 0.930 . S
C842 C844 1.383 . S
C842 C845 1.382 . S
C842 H853 0.930 . S
C843 C841 1.369 . S
C843 C845 1.392 . S
C843 H854 0.930 . S
C844 C840 1.373 . S
C844 C842 1.383 . S
C844 H855 0.931 . S
C845 C842 1.382 . S
C845 C843 1.392 . S
C846 Eu817 2.828 . S
C846 O830 1.249 . S
C846 O831 1.244 . S
C846 C840 1.505 . S
C847 O834 1.258 . S
C847 O835 1.242 . S
H848 C820 0.930 . S
H849 C821 0.930 . S
H850 C822 0.930 . S
H851 C823 0.931 . S
H852 C841 0.930 . S
H853 C842 0.930 . S
H854 C843 0.930 . S
H855 C844 0.931 . S
Eu856 C865 2.828 . S
Eu856 O867 2.392 . S
Eu856 O869 2.418 . S
Eu856 O874 2.373 . S
Eu856 O877 2.488 . S
Eu856 O878 2.471 . S
Eu856 O879 2.349 . S
Eu857 O866 2.373 . S
Eu857 O870 2.488 . S
Eu857 O871 2.471 . S
Eu857 O872 2.349 . S
Eu857 O875 2.392 . S
Eu857 O876 2.418 . S
Eu857 C886 2.828 . S
C858 O876 1.244 . S
C858 O879 1.265 . S
C859 C860 1.379 . S
C859 C863 1.373 . S
C859 C865 1.505 . S
C860 C859 1.379 . S
C860 C862 1.369 . S
C860 H888 0.930 . S
C861 C863 1.383 . S
C861 C864 1.382 . S
C861 H889 0.930 . S
C862 C860 1.369 . S
C862 C864 1.392 . S
C862 H890 0.930 . S
C863 C859 1.373 . S
C863 C861 1.383 . S
C863 H891 0.931 . S
C864 C861 1.382 . S
C864 C862 1.392 . S
C865 Eu856 2.828 . S
C865 C859 1.505 . S
C865 O877 1.249 . S
C865 O878 1.244 . S
O866 Eu857 2.373 . S
O866 C868 1.258 . S
O867 Eu856 2.392 . S
O867 C868 1.242 . S
C868 O866 1.258 . S
C868 O867 1.242 . S
O869 Eu856 2.418 . S
O869 C873 1.244 . S
O870 Eu857 2.488 . S
O870 C886 1.249 . S
O871 Eu857 2.471 . S
O871 C886 1.244 . S
O872 Eu857 2.349 . S
O872 C873 1.265 . S
C873 O869 1.244 . S
C873 O872 1.265 . S
O874 Eu856 2.373 . S
O874 C887 1.258 . S
O875 Eu857 2.392 . S
O875 C887 1.242 . S
O876 Eu857 2.418 . S
O876 C858 1.244 . S
O877 Eu856 2.488 . S
O877 C865 1.249 . S
O878 Eu856 2.471 . S
O878 C865 1.244 . S
O879 Eu856 2.349 . S
O879 C858 1.265 . S
C880 C881 1.379 . S
C880 C884 1.373 . S
C880 C886 1.505 . S
C881 C880 1.379 . S
C881 C883 1.369 . S
C881 H892 0.930 . S
C882 C884 1.383 . S
C882 C885 1.382 . S
C882 H893 0.930 . S
C883 C881 1.369 . S
C883 C885 1.392 . S
C883 H894 0.930 . S
C884 C880 1.373 . S
C884 C882 1.383 . S
C884 H895 0.931 . S
C885 C882 1.382 . S
C885 C883 1.392 . S
C886 Eu857 2.828 . S
C886 O870 1.249 . S
C886 O871 1.244 . S
C886 C880 1.505 . S
C887 O874 1.258 . S
C887 O875 1.242 . S
H888 C860 0.930 . S
H889 C861 0.930 . S
H890 C862 0.930 . S
H891 C863 0.931 . S
H892 C881 0.930 . S
H893 C882 0.930 . S
H894 C883 0.930 . S
H895 C884 0.931 . S
Eu896 C905 2.828 . S
Eu896 O907 2.392 . S
Eu896 O909 2.418 . S
Eu896 O914 2.373 . S
Eu896 O917 2.488 . S
Eu896 O918 2.471 . S
Eu896 O919 2.349 . S
Eu897 O906 2.373 . S
Eu897 O910 2.488 . S
Eu897 O911 2.471 . S
Eu897 O912 2.349 . S
Eu897 O915 2.392 . S
Eu897 O916 2.418 . S
Eu897 C926 2.828 . S
C898 O916 1.244 . S
C898 O919 1.265 . S
C899 C900 1.379 . S
C899 C903 1.373 . S
C899 C905 1.505 . S
C900 C899 1.379 . S
C900 C902 1.369 . S
C900 H928 0.930 . S
C901 C903 1.383 . S
C901 C904 1.382 . S
C901 H929 0.930 . S
C902 C900 1.369 . S
C902 C904 1.392 . S
C902 H930 0.930 . S
C903 C899 1.373 . S
C903 C901 1.383 . S
C903 H931 0.931 . S
C904 C901 1.382 . S
C904 C902 1.392 . S
C905 Eu896 2.828 . S
C905 C899 1.505 . S
C905 O917 1.249 . S
C905 O918 1.244 . S
O906 Eu897 2.373 . S
O906 C908 1.258 . S
O907 Eu896 2.392 . S
O907 C908 1.242 . S
C908 O906 1.258 . S
C908 O907 1.242 . S
O909 Eu896 2.418 . S
O909 C913 1.244 . S
O910 Eu897 2.488 . S
O910 C926 1.249 . S
O911 Eu897 2.471 . S
O911 C926 1.244 . S
O912 Eu897 2.349 . S
O912 C913 1.265 . S
C913 O909 1.244 . S
C913 O912 1.265 . S
O914 Eu896 2.373 . S
O914 C927 1.258 . S
O915 Eu897 2.392 . S
O915 C927 1.242 . S
O916 Eu897 2.418 . S
O916 C898 1.244 . S
O917 Eu896 2.488 . S
O917 C905 1.249 . S
O918 Eu896 2.471 . S
O918 C905 1.244 . S
O919 Eu896 2.349 . S
O919 C898 1.265 . S
C920 C921 1.379 . S
C920 C924 1.373 . S
C920 C926 1.505 . S
C921 C920 1.379 . S
C921 C923 1.369 . S
C921 H932 0.930 . S
C922 C924 1.383 . S
C922 C925 1.382 . S
C922 H933 0.930 . S
C923 C921 1.369 . S
C923 C925 1.392 . S
C923 H934 0.930 . S
C924 C920 1.373 . S
C924 C922 1.383 . S
C924 H935 0.931 . S
C925 C922 1.382 . S
C925 C923 1.392 . S
C926 Eu897 2.828 . S
C926 O910 1.249 . S
C926 O911 1.244 . S
C926 C920 1.505 . S
C927 O914 1.258 . S
C927 O915 1.242 . S
H928 C900 0.930 . S
H929 C901 0.930 . S
H930 C902 0.930 . S
H931 C903 0.931 . S
H932 C921 0.930 . S
H933 C922 0.930 . S
H934 C923 0.930 . S
H935 C924 0.931 . S
Eu936 C945 2.828 1_554 S
Eu936 O947 2.392 . S
Eu936 O949 2.418 1_554 S
Eu936 O954 2.373 1_554 S
Eu936 O957 2.488 1_554 S
Eu936 O958 2.471 . S
Eu936 O959 2.349 . S
Eu937 O946 2.373 . S
Eu937 O950 2.488 1_455 S
Eu937 O951 2.471 1_455 S
Eu937 O952 2.349 1_554 S
Eu937 O955 2.392 . S
Eu937 O956 2.418 . S
Eu937 C966 2.828 1_455 S
C938 O956 1.244 . S
C938 O959 1.265 . S
C939 C940 1.379 1_556 S
C939 C943 1.373 . S
C939 C945 1.505 . S
C940 C939 1.379 1_554 S
C940 C942 1.369 . S
C940 H968 0.930 . S
C941 C943 1.383 . S
C941 C944 1.382 . S
C941 H969 0.930 . S
C942 C940 1.369 . S
C942 C944 1.392 1_554 S
C942 H970 0.930 . S
C943 C939 1.373 . S
C943 C941 1.383 . S
C943 H971 0.931 . S
C944 C941 1.382 . S
C944 C942 1.392 1_556 S
C945 Eu936 2.828 1_556 S
C945 C939 1.505 . S
C945 O957 1.249 . S
C945 O958 1.244 1_556 S
O946 Eu937 2.373 . S
O946 C948 1.258 . S
O947 Eu936 2.392 . S
O947 C948 1.242 . S
C948 O946 1.258 . S
C948 O947 1.242 . S
O949 Eu936 2.418 1_556 S
O949 C953 1.244 . S
O950 Eu937 2.488 1_655 S
O950 C966 1.249 . S
O951 Eu937 2.471 1_655 S
O951 C966 1.244 . S
O952 Eu937 2.349 1_556 S
O952 C953 1.265 . S
C953 O949 1.244 . S
C953 O952 1.265 . S
O954 Eu936 2.373 1_556 S
O954 C967 1.258 1_556 S
O955 Eu937 2.392 . S
O955 C967 1.242 . S
O956 Eu937 2.418 . S
O956 C938 1.244 . S
O957 Eu936 2.488 1_556 S
O957 C945 1.249 . S
O958 Eu936 2.471 . S
O958 C945 1.244 1_554 S
O959 Eu936 2.349 . S
O959 C938 1.265 . S
C960 C961 1.379 . S
C960 C964 1.373 . S
C960 C966 1.505 . S
C961 C960 1.379 . S
C961 C963 1.369 . S
C961 H972 0.930 . S
C962 C964 1.383 . S
C962 C965 1.382 . S
C962 H973 0.930 . S
C963 C961 1.369 . S
C963 C965 1.392 . S
C963 H974 0.930 . S
C964 C960 1.373 . S
C964 C962 1.383 . S
C964 H975 0.931 . S
C965 C962 1.382 . S
C965 C963 1.392 . S
C966 Eu937 2.828 1_655 S
C966 O950 1.249 . S
C966 O951 1.244 . S
C966 C960 1.505 . S
C967 O954 1.258 1_554 S
C967 O955 1.242 . S
H968 C940 0.930 . S
H969 C941 0.930 . S
H970 C942 0.930 . S
H971 C943 0.931 . S
H972 C961 0.930 . S
H973 C962 0.930 . S
H974 C963 0.930 . S
H975 C964 0.931 . S
H976 C994 0.951 . S
H977 C996 0.951 . S
H978 C998 0.950 . S
H979 C999 0.950 . S
H980 C1001 0.950 1_655 S
H981 C1004 0.950 . S
H982 C1005 0.950 . S
H983 C1007 0.950 . S
H984 C1008 0.950 . S
H985 C1009 0.951 . S
H986 C1011 0.951 . S
H987 C1013 0.950 . S
H988 C1014 0.950 1_554 S
H989 C1016 0.950 . S
H990 C1019 0.950 . S
H991 C1020 0.950 . S
H992 C1022 0.950 . S
H993 C1023 0.950 . S
C994 H976 0.951 . S
C994 C995 1.366 . S
C994 C996 1.388 . S
C995 C994 1.366 . S
C995 C999 1.385 . S
C996 H977 0.951 . S
C996 C994 1.388 . S
C996 C997 1.366 . S
C997 C996 1.366 . S
C997 C998 1.414 . S
C997 C1000 1.499 . S
C998 H978 0.950 . S
C998 C997 1.414 . S
C998 C999 1.374 . S
C999 H979 0.950 . S
C999 C995 1.385 . S
C999 C998 1.374 . S
C1000 C997 1.499 . S
C1000 C1001 1.373 . S
C1000 C1002 1.389 . S
C1001 H980 0.950 1_455 S
C1001 C1000 1.373 . S
C1001 C1017 1.377 . S
C1002 C1000 1.389 . S
C1002 C1003 1.524 . S
C1002 C1016 1.377 . S
C1003 C1002 1.524 . S
C1003 C1004 1.397 . S
C1003 C1008 1.363 . S
C1004 H981 0.950 . S
C1004 C1003 1.397 . S
C1004 C1005 1.334 . S
C1005 H982 0.950 . S
C1005 C1004 1.334 . S
C1005 C1006 1.287 . S
C1006 C1005 1.287 . S
C1006 C1007 1.524 . S
C1006 H1025 0.913 . S
C1007 H983 0.950 . S
C1007 C1006 1.524 . S
C1007 C1008 1.415 . S
C1008 H984 0.950 . S
C1008 C1003 1.363 . S
C1008 C1007 1.415 . S
C1009 H985 0.951 . S
C1009 C1010 1.366 . S
C1009 C1011 1.388 . S
C1010 C1009 1.366 . S
C1010 C1014 1.385 . S
C1011 H986 0.951 . S
C1011 C1009 1.388 . S
C1011 C1012 1.366 . S
C1012 C1011 1.366 . S
C1012 C1013 1.414 . S
C1012 C1015 1.499 . S
C1013 H987 0.950 . S
C1013 C1012 1.414 . S
C1013 C1014 1.374 . S
C1014 H988 0.950 1_556 S
C1014 C1010 1.385 . S
C1014 C1013 1.374 . S
C1015 C1012 1.499 . S
C1015 C1016 1.373 . S
C1015 C1017 1.389 . S
C1016 H989 0.950 . S
C1016 C1002 1.377 . S
C1016 C1015 1.373 . S
C1017 C1001 1.377 . S
C1017 C1015 1.389 . S
C1017 C1018 1.524 1_455 S
C1018 C1017 1.524 1_655 S
C1018 C1019 1.397 . S
C1018 C1023 1.363 . S
C1019 H990 0.950 . S
C1019 C1018 1.397 . S
C1019 C1020 1.334 . S
C1020 H991 0.950 . S
C1020 C1019 1.334 . S
C1020 C1021 1.287 . S
C1021 C1020 1.287 . S
C1021 C1022 1.524 . S
C1021 H1024 0.999 . S
C1022 H992 0.950 . S
C1022 C1021 1.524 . S
C1022 C1023 1.415 . S
C1023 H993 0.950 . S
C1023 C1018 1.363 . S
C1023 C1022 1.415 . S
H1024 C1021 0.999 . S
H1025 C1006 0.913 . S
H1026 C1044 0.951 . S
H1027 C1046 0.951 . S
H1028 C1048 0.950 . S
H1029 C1049 0.950 . S
H1030 C1051 0.950 . S
H1031 C1054 0.950 . S
H1032 C1055 0.950 . S
H1033 C1057 0.950 . S
H1034 C1058 0.950 . S
H1035 C1059 0.951 . S
H1036 C1061 0.951 . S
H1037 C1063 0.950 . S
H1038 C1064 0.950 . S
H1039 C1066 0.950 . S
H1040 C1069 0.950 . S
H1041 C1070 0.950 . S
H1042 C1072 0.950 . S
H1043 C1073 0.950 . S
C1044 H1026 0.951 . S
C1044 C1045 1.366 . S
C1044 C1046 1.388 . S
C1045 C1044 1.366 . S
C1045 C1049 1.385 . S
C1046 H1027 0.951 . S
C1046 C1044 1.388 . S
C1046 C1047 1.366 . S
C1047 C1046 1.366 . S
C1047 C1048 1.414 . S
C1047 C1050 1.499 . S
C1048 H1028 0.950 . S
C1048 C1047 1.414 . S
C1048 C1049 1.374 . S
C1049 H1029 0.950 . S
C1049 C1045 1.385 . S
C1049 C1048 1.374 . S
C1050 C1047 1.499 . S
C1050 C1051 1.373 . S
C1050 C1052 1.389 . S
C1051 H1030 0.950 . S
C1051 C1050 1.373 . S
C1051 C1067 1.377 . S
C1052 C1050 1.389 . S
C1052 C1053 1.524 . S
C1052 C1066 1.377 . S
C1053 C1052 1.524 . S
C1053 C1054 1.397 . S
C1053 C1058 1.363 . S
C1054 H1031 0.950 . S
C1054 C1053 1.397 . S
C1054 C1055 1.334 . S
C1055 H1032 0.950 . S
C1055 C1054 1.334 . S
C1055 C1056 1.287 . S
C1056 C1055 1.287 . S
C1056 C1057 1.524 . S
C1056 H1075 0.913 . S
C1057 H1033 0.950 . S
C1057 C1056 1.524 . S
C1057 C1058 1.415 . S
C1058 H1034 0.950 . S
C1058 C1053 1.363 . S
C1058 C1057 1.415 . S
C1059 H1035 0.951 . S
C1059 C1060 1.366 . S
C1059 C1061 1.388 . S
C1060 C1059 1.366 . S
C1060 C1064 1.385 . S
C1061 H1036 0.951 . S
C1061 C1059 1.388 . S
C1061 C1062 1.366 . S
C1062 C1061 1.366 . S
C1062 C1063 1.414 . S
C1062 C1065 1.499 . S
C1063 H1037 0.950 . S
C1063 C1062 1.414 . S
C1063 C1064 1.374 . S
C1064 H1038 0.950 . S
C1064 C1060 1.385 . S
C1064 C1063 1.374 . S
C1065 C1062 1.499 . S
C1065 C1066 1.373 . S
C1065 C1067 1.389 . S
C1066 H1039 0.950 . S
C1066 C1052 1.377 . S
C1066 C1065 1.373 . S
C1067 C1051 1.377 . S
C1067 C1065 1.389 . S
C1067 C1068 1.524 . S
C1068 C1067 1.524 . S
C1068 C1069 1.397 . S
C1068 C1073 1.363 . S
C1069 H1040 0.950 . S
C1069 C1068 1.397 . S
C1069 C1070 1.334 . S
C1070 H1041 0.950 . S
C1070 C1069 1.334 . S
C1070 C1071 1.287 . S
C1071 C1070 1.287 . S
C1071 C1072 1.524 . S
C1071 H1074 0.999 . S
C1072 H1042 0.950 . S
C1072 C1071 1.524 . S
C1072 C1073 1.415 . S
C1073 H1043 0.950 . S
C1073 C1068 1.363 . S
C1073 C1072 1.415 . S
H1074 C1071 0.999 . S
H1075 C1056 0.913 . S
H1076 C1094 0.951 . S
H1077 C1096 0.951 . S
H1078 C1098 0.950 . S
H1079 C1099 0.950 . S
H1080 C1101 0.950 . S
H1081 C1104 0.950 . S
H1082 C1105 0.950 . S
H1083 C1107 0.950 . S
H1084 C1108 0.950 . S
H1085 C1109 0.951 . S
H1086 C1111 0.951 . S
H1087 C1113 0.950 . S
H1088 C1114 0.950 . S
H1089 C1116 0.950 . S
H1090 C1119 0.950 . S
H1091 C1120 0.950 . S
H1092 C1122 0.950 . S
H1093 C1123 0.950 . S
C1094 H1076 0.951 . S
C1094 C1095 1.366 . S
C1094 C1096 1.388 . S
C1095 C1094 1.366 . S
C1095 C1099 1.385 . S
C1096 H1077 0.951 . S
C1096 C1094 1.388 . S
C1096 C1097 1.366 . S
C1097 C1096 1.366 . S
C1097 C1098 1.414 . S
C1097 C1100 1.499 . S
C1098 H1078 0.950 . S
C1098 C1097 1.414 . S
C1098 C1099 1.374 . S
C1099 H1079 0.950 . S
C1099 C1095 1.385 . S
C1099 C1098 1.374 . S
C1100 C1097 1.499 . S
C1100 C1101 1.373 . S
C1100 C1102 1.389 . S
C1101 H1080 0.950 . S
C1101 C1100 1.373 . S
C1101 C1117 1.377 . S
C1102 C1100 1.389 . S
C1102 C1103 1.524 . S
C1102 C1116 1.377 . S
C1103 C1102 1.524 . S
C1103 C1104 1.397 . S
C1103 C1108 1.363 . S
C1104 H1081 0.950 . S
C1104 C1103 1.397 . S
C1104 C1105 1.334 . S
C1105 H1082 0.950 . S
C1105 C1104 1.334 . S
C1105 C1106 1.287 . S
C1106 C1105 1.287 . S
C1106 C1107 1.524 . S
C1106 H1125 0.913 . S
C1107 H1083 0.950 . S
C1107 C1106 1.524 . S
C1107 C1108 1.415 . S
C1108 H1084 0.950 . S
C1108 C1103 1.363 . S
C1108 C1107 1.415 . S
C1109 H1085 0.951 . S
C1109 C1110 1.366 . S
C1109 C1111 1.388 . S
C1110 C1109 1.366 . S
C1110 C1114 1.385 . S
C1111 H1086 0.951 . S
C1111 C1109 1.388 . S
C1111 C1112 1.366 . S
C1112 C1111 1.366 . S
C1112 C1113 1.414 . S
C1112 C1115 1.499 . S
C1113 H1087 0.950 . S
C1113 C1112 1.414 . S
C1113 C1114 1.374 . S
C1114 H1088 0.950 . S
C1114 C1110 1.385 . S
C1114 C1113 1.374 . S
C1115 C1112 1.499 . S
C1115 C1116 1.373 . S
C1115 C1117 1.389 . S
C1116 H1089 0.950 . S
C1116 C1102 1.377 . S
C1116 C1115 1.373 . S
C1117 C1101 1.377 . S
C1117 C1115 1.389 . S
C1117 C1118 1.524 . S
C1118 C1117 1.524 . S
C1118 C1119 1.397 . S
C1118 C1123 1.363 . S
C1119 H1090 0.950 . S
C1119 C1118 1.397 . S
C1119 C1120 1.334 . S
C1120 H1091 0.950 . S
C1120 C1119 1.334 . S
C1120 C1121 1.287 . S
C1121 C1120 1.287 . S
C1121 C1122 1.524 . S
C1121 H1124 0.999 . S
C1122 H1092 0.950 . S
C1122 C1121 1.524 . S
C1122 C1123 1.415 . S
C1123 H1093 0.950 . S
C1123 C1118 1.363 . S
C1123 C1122 1.415 . S
H1124 C1121 0.999 . S
H1125 C1106 0.913 . S
H1126 C1144 0.951 . S
H1127 C1146 0.951 . S
H1128 C1148 0.950 . S
H1129 C1149 0.950 . S
H1130 C1151 0.950 . S
H1131 C1154 0.950 . S
H1132 C1155 0.950 . S
H1133 C1157 0.950 . S
H1134 C1158 0.950 . S
H1135 C1159 0.951 . S
H1136 C1161 0.951 . S
H1137 C1163 0.950 . S
H1138 C1164 0.950 . S
H1139 C1166 0.950 . S
H1140 C1169 0.950 . S
H1141 C1170 0.950 . S
H1142 C1172 0.950 . S
H1143 C1173 0.950 . S
C1144 H1126 0.951 . S
C1144 C1145 1.366 . S
C1144 C1146 1.388 . S
C1145 C1144 1.366 . S
C1145 C1149 1.385 . S
C1146 H1127 0.951 . S
C1146 C1144 1.388 . S
C1146 C1147 1.366 . S
C1147 C1146 1.366 . S
C1147 C1148 1.414 . S
C1147 C1150 1.499 . S
C1148 H1128 0.950 . S
C1148 C1147 1.414 . S
C1148 C1149 1.374 . S
C1149 H1129 0.950 . S
C1149 C1145 1.385 . S
C1149 C1148 1.374 . S
C1150 C1147 1.499 . S
C1150 C1151 1.373 . S
C1150 C1152 1.389 . S
C1151 H1130 0.950 . S
C1151 C1150 1.373 . S
C1151 C1167 1.377 . S
C1152 C1150 1.389 . S
C1152 C1153 1.524 . S
C1152 C1166 1.377 . S
C1153 C1152 1.524 . S
C1153 C1154 1.397 . S
C1153 C1158 1.363 . S
C1154 H1131 0.950 . S
C1154 C1153 1.397 . S
C1154 C1155 1.334 . S
C1155 H1132 0.950 . S
C1155 C1154 1.334 . S
C1155 C1156 1.287 . S
C1156 C1155 1.287 . S
C1156 C1157 1.524 . S
C1156 H1175 0.913 . S
C1157 H1133 0.950 . S
C1157 C1156 1.524 . S
C1157 C1158 1.415 . S
C1158 H1134 0.950 . S
C1158 C1153 1.363 . S
C1158 C1157 1.415 . S
C1159 H1135 0.951 . S
C1159 C1160 1.366 . S
C1159 C1161 1.388 . S
C1160 C1159 1.366 . S
C1160 C1164 1.385 . S
C1161 H1136 0.951 . S
C1161 C1159 1.388 . S
C1161 C1162 1.366 . S
C1162 C1161 1.366 . S
C1162 C1163 1.414 . S
C1162 C1165 1.499 . S
C1163 H1137 0.950 . S
C1163 C1162 1.414 . S
C1163 C1164 1.374 . S
C1164 H1138 0.950 . S
C1164 C1160 1.385 . S
C1164 C1163 1.374 . S
C1165 C1162 1.499 . S
C1165 C1166 1.373 . S
C1165 C1167 1.389 . S
C1166 H1139 0.950 . S
C1166 C1152 1.377 . S
C1166 C1165 1.373 . S
C1167 C1151 1.377 . S
C1167 C1165 1.389 . S
C1167 C1168 1.524 . S
C1168 C1167 1.524 . S
C1168 C1169 1.397 . S
C1168 C1173 1.363 . S
C1169 H1140 0.950 . S
C1169 C1168 1.397 . S
C1169 C1170 1.334 . S
C1170 H1141 0.950 . S
C1170 C1169 1.334 . S
C1170 C1171 1.287 . S
C1171 C1170 1.287 . S
C1171 C1172 1.524 . S
C1171 H1174 0.999 . S
C1172 H1142 0.950 . S
C1172 C1171 1.524 . S
C1172 C1173 1.415 . S
C1173 H1143 0.950 . S
C1173 C1168 1.363 . S
C1173 C1172 1.415 . S
H1174 C1171 0.999 . S
H1175 C1156 0.913 . S
H1176 C1194 0.951 . S
H1177 C1196 0.951 . S
H1178 C1198 0.956 . S
H1179 C1199 0.950 . S
H1180 C1201 0.950 . S
H1181 C1204 0.950 . S
H1182 C1205 0.950 . S
H1183 C1207 0.950 . S
H1184 C1208 0.950 . S
H1185 C1209 0.951 . S
H1186 C1211 0.951 . S
H1187 C1213 0.950 . S
H1188 C1214 0.950 . S
H1189 C1216 0.950 . S
H1190 C1219 0.950 . S
H1191 C1220 0.950 . S
H1192 C1222 0.950 . S
H1193 C1223 0.950 . S
C1194 H1176 0.951 . S
C1194 C1195 1.366 . S
C1194 C1196 1.388 . S
C1195 C1194 1.366 . S
C1195 C1199 1.385 1_455 S
C1196 H1177 0.951 . S
C1196 C1194 1.388 . S
C1196 C1197 1.366 . S
C1197 C1196 1.366 . S
C1197 C1198 1.407 1_455 S
C1197 C1200 1.499 . S
C1198 H1178 0.956 . S
C1198 C1197 1.407 1_655 S
C1198 C1199 1.375 . S
C1199 H1179 0.950 . S
C1199 C1195 1.385 1_655 S
C1199 C1198 1.375 . S
C1200 C1197 1.499 . S
C1200 C1201 1.373 . S
C1200 C1202 1.389 . S
C1201 H1180 0.950 . S
C1201 C1200 1.373 . S
C1201 C1217 1.377 . S
C1202 C1200 1.389 . S
C1202 C1203 1.524 . S
C1202 C1216 1.377 . S
C1203 C1202 1.524 . S
C1203 C1204 1.397 . S
C1203 C1208 1.363 . S
C1204 H1181 0.950 . S
C1204 C1203 1.397 . S
C1204 C1205 1.334 . S
C1205 H1182 0.950 . S
C1205 C1204 1.334 . S
C1205 C1206 1.287 . S
C1206 C1205 1.287 . S
C1206 C1207 1.524 . S
C1206 H1225 0.913 . S
C1207 H1183 0.950 . S
C1207 C1206 1.524 . S
C1207 C1208 1.415 . S
C1208 H1184 0.950 . S
C1208 C1203 1.363 . S
C1208 C1207 1.415 . S
C1209 H1185 0.951 . S
C1209 C1210 1.366 . S
C1209 C1211 1.388 . S
C1210 C1209 1.366 . S
C1210 C1214 1.385 . S
C1211 H1186 0.951 . S
C1211 C1209 1.388 . S
C1211 C1212 1.366 . S
C1212 C1211 1.366 . S
C1212 C1213 1.414 . S
C1212 C1215 1.499 . S
C1213 H1187 0.950 . S
C1213 C1212 1.414 . S
C1213 C1214 1.374 . S
C1214 H1188 0.950 . S
C1214 C1210 1.385 . S
C1214 C1213 1.374 . S
C1215 C1212 1.499 . S
C1215 C1216 1.373 . S
C1215 C1217 1.389 . S
C1216 H1189 0.950 . S
C1216 C1202 1.377 . S
C1216 C1215 1.373 . S
C1217 C1201 1.377 . S
C1217 C1215 1.389 . S
C1217 C1218 1.524 . S
C1218 C1217 1.524 . S
C1218 C1219 1.397 . S
C1218 C1223 1.363 1_455 S
C1219 H1190 0.950 . S
C1219 C1218 1.397 . S
C1219 C1220 1.334 . S
C1220 H1191 0.950 . S
C1220 C1219 1.334 . S
C1220 C1221 1.287 1_455 S
C1221 C1220 1.287 1_655 S
C1221 C1222 1.524 . S
C1221 H1224 0.999 . S
C1222 H1192 0.950 . S
C1222 C1221 1.524 . S
C1222 C1223 1.415 . S
C1223 H1193 0.950 . S
C1223 C1218 1.363 1_655 S
C1223 C1222 1.415 . S
H1224 C1221 0.999 . S
H1225 C1206 0.913 . S
H1226 C1244 0.951 . S
H1227 C1246 0.951 . S
H1228 C1248 0.950 . S
H1229 C1249 0.950 . S
H1230 C1251 0.950 . S
H1231 C1254 0.950 . S
H1232 C1255 0.950 . S
H1233 C1257 0.950 . S
H1234 C1258 0.950 . S
H1235 C1259 0.951 . S
H1236 C1261 0.951 . S
H1237 C1263 0.950 . S
H1238 C1264 0.950 . S
H1239 C1266 0.950 . S
H1240 C1269 0.950 . S
H1241 C1270 0.950 . S
H1242 C1272 0.950 . S
H1243 C1273 0.950 . S
C1244 H1226 0.951 . S
C1244 C1245 1.366 . S
C1244 C1246 1.388 . S
C1245 C1244 1.366 . S
C1245 C1249 1.385 . S
C1246 H1227 0.951 . S
C1246 C1244 1.388 . S
C1246 C1247 1.366 . S
C1247 C1246 1.366 . S
C1247 C1248 1.414 . S
C1247 C1250 1.499 . S
C1248 H1228 0.950 . S
C1248 C1247 1.414 . S
C1248 C1249 1.374 . S
C1249 H1229 0.950 . S
C1249 C1245 1.385 . S
C1249 C1248 1.374 . S
C1250 C1247 1.499 . S
C1250 C1251 1.373 . S
C1250 C1252 1.389 . S
C1251 H1230 0.950 . S
C1251 C1250 1.373 . S
C1251 C1267 1.377 . S
C1252 C1250 1.389 . S
C1252 C1253 1.524 . S
C1252 C1266 1.377 . S
C1253 C1252 1.524 . S
C1253 C1254 1.397 . S
C1253 C1258 1.363 . S
C1254 H1231 0.950 . S
C1254 C1253 1.397 . S
C1254 C1255 1.334 . S
C1255 H1232 0.950 . S
C1255 C1254 1.334 . S
C1255 C1256 1.287 . S
C1256 C1255 1.287 . S
C1256 C1257 1.524 . S
C1256 H1275 0.913 . S
C1257 H1233 0.950 . S
C1257 C1256 1.524 . S
C1257 C1258 1.415 . S
C1258 H1234 0.950 . S
C1258 C1253 1.363 . S
C1258 C1257 1.415 . S
C1259 H1235 0.951 . S
C1259 C1260 1.366 . S
C1259 C1261 1.388 . S
C1260 C1259 1.366 . S
C1260 C1264 1.385 . S
C1261 H1236 0.951 . S
C1261 C1259 1.388 . S
C1261 C1262 1.366 . S
C1262 C1261 1.366 . S
C1262 C1263 1.414 . S
C1262 C1265 1.499 . S
C1263 H1237 0.950 . S
C1263 C1262 1.414 . S
C1263 C1264 1.374 . S
C1264 H1238 0.950 . S
C1264 C1260 1.385 . S
C1264 C1263 1.374 . S
C1265 C1262 1.499 . S
C1265 C1266 1.373 . S
C1265 C1267 1.389 . S
C1266 H1239 0.950 . S
C1266 C1252 1.377 . S
C1266 C1265 1.373 . S
C1267 C1251 1.377 . S
C1267 C1265 1.389 . S
C1267 C1268 1.524 . S
C1268 C1267 1.524 . S
C1268 C1269 1.397 . S
C1268 C1273 1.363 . S
C1269 H1240 0.950 . S
C1269 C1268 1.397 . S
C1269 C1270 1.334 . S
C1270 H1241 0.950 . S
C1270 C1269 1.334 . S
C1270 C1271 1.287 . S
C1271 C1270 1.287 . S
C1271 C1272 1.524 . S
C1271 H1274 0.999 . S
C1272 H1242 0.950 . S
C1272 C1271 1.524 . S
C1272 C1273 1.415 . S
C1273 H1243 0.950 . S
C1273 C1268 1.363 . S
C1273 C1272 1.415 . S
H1274 C1271 0.999 . S
H1275 C1256 0.913 . S
H1276 C1294 0.951 . S
H1277 C1296 0.951 . S
H1278 C1298 0.950 . S
H1279 C1299 0.950 . S
H1280 C1301 0.950 . S
H1281 C1304 0.950 . S
H1282 C1305 0.950 . S
H1283 C1307 0.950 . S
H1284 C1308 0.950 . S
H1285 C1309 0.951 . S
H1286 C1311 0.951 . S
H1287 C1313 0.950 . S
H1288 C1314 0.950 . S
H1289 C1316 0.950 . S
H1290 C1319 0.950 . S
H1291 C1320 0.950 1_556 S
H1292 C1322 0.950 . S
H1293 C1323 0.950 . S
C1294 H1276 0.951 . S
C1294 C1295 1.366 . S
C1294 C1296 1.388 . S
C1295 C1294 1.366 . S
C1295 C1299 1.385 . S
C1296 H1277 0.951 . S
C1296 C1294 1.388 . S
C1296 C1297 1.366 . S
C1297 C1296 1.366 . S
C1297 C1298 1.414 . S
C1297 C1300 1.499 . S
C1298 H1278 0.950 . S
C1298 C1297 1.414 . S
C1298 C1299 1.374 . S
C1299 H1279 0.950 . S
C1299 C1295 1.385 . S
C1299 C1298 1.374 . S
C1300 C1297 1.499 . S
C1300 C1301 1.373 . S
C1300 C1302 1.389 . S
C1301 H1280 0.950 . S
C1301 C1300 1.373 . S
C1301 C1317 1.377 . S
C1302 C1300 1.389 . S
C1302 C1303 1.524 . S
C1302 C1316 1.377 . S
C1303 C1302 1.524 . S
C1303 C1304 1.397 . S
C1303 C1308 1.363 . S
C1304 H1281 0.950 . S
C1304 C1303 1.397 . S
C1304 C1305 1.334 . S
C1305 H1282 0.950 . S
C1305 C1304 1.334 . S
C1305 C1306 1.287 . S
C1306 C1305 1.287 . S
C1306 C1307 1.524 . S
C1306 H1325 0.913 . S
C1307 H1283 0.950 . S
C1307 C1306 1.524 . S
C1307 C1308 1.415 . S
C1308 H1284 0.950 . S
C1308 C1303 1.363 . S
C1308 C1307 1.415 . S
C1309 H1285 0.951 . S
C1309 C1310 1.366 . S
C1309 C1311 1.388 . S
C1310 C1309 1.366 . S
C1310 C1314 1.385 . S
C1311 H1286 0.951 . S
C1311 C1309 1.388 . S
C1311 C1312 1.366 . S
C1312 C1311 1.366 . S
C1312 C1313 1.414 . S
C1312 C1315 1.499 . S
C1313 H1287 0.950 . S
C1313 C1312 1.414 . S
C1313 C1314 1.374 . S
C1314 H1288 0.950 . S
C1314 C1310 1.385 . S
C1314 C1313 1.374 . S
C1315 C1312 1.499 . S
C1315 C1316 1.373 . S
C1315 C1317 1.389 . S
C1316 H1289 0.950 . S
C1316 C1302 1.377 . S
C1316 C1315 1.373 . S
C1317 C1301 1.377 . S
C1317 C1315 1.389 . S
C1317 C1318 1.524 . S
C1318 C1317 1.524 . S
C1318 C1319 1.397 . S
C1318 C1323 1.363 . S
C1319 H1290 0.950 . S
C1319 C1318 1.397 . S
C1319 C1320 1.334 . S
C1320 H1291 0.950 1_554 S
C1320 C1319 1.334 . S
C1320 C1321 1.287 1_554 S
C1321 C1320 1.287 1_556 S
C1321 C1322 1.524 1_556 S
C1321 H1324 0.999 . S
C1322 H1292 0.950 . S
C1322 C1321 1.524 1_554 S
C1322 C1323 1.415 . S
C1323 H1293 0.950 . S
C1323 C1318 1.363 . S
C1323 C1322 1.415 . S
H1324 C1321 0.999 . S
H1325 C1306 0.913 . S
H1326 C1344 0.951 . S
H1327 C1346 0.951 . S
H1328 C1348 0.950 . S
H1329 C1349 0.950 . S
H1330 C1351 0.950 . S
H1331 C1354 0.950 . S
H1332 C1355 0.950 . S
H1333 C1357 0.950 . S
H1334 C1358 0.950 . S
H1335 C1359 0.951 . S
H1336 C1361 0.951 . S
H1337 C1363 0.950 . S
H1338 C1364 0.950 . S
H1339 C1366 0.950 . S
H1340 C1369 0.950 . S
H1341 C1370 0.950 . S
H1342 C1372 0.950 . S
H1343 C1373 0.950 . S
C1344 H1326 0.951 . S
C1344 C1345 1.366 . S
C1344 C1346 1.388 . S
C1345 C1344 1.366 . S
C1345 C1349 1.385 . S
C1346 H1327 0.951 . S
C1346 C1344 1.388 . S
C1346 C1347 1.366 . S
C1347 C1346 1.366 . S
C1347 C1348 1.414 . S
C1347 C1350 1.499 . S
C1348 H1328 0.950 . S
C1348 C1347 1.414 . S
C1348 C1349 1.374 . S
C1349 H1329 0.950 . S
C1349 C1345 1.385 . S
C1349 C1348 1.374 . S
C1350 C1347 1.499 . S
C1350 C1351 1.373 . S
C1350 C1352 1.389 . S
C1351 H1330 0.950 . S
C1351 C1350 1.373 . S
C1351 C1367 1.377 . S
C1352 C1350 1.389 . S
C1352 C1353 1.524 . S
C1352 C1366 1.377 . S
C1353 C1352 1.524 . S
C1353 C1354 1.397 . S
C1353 C1358 1.363 . S
C1354 H1331 0.950 . S
C1354 C1353 1.397 . S
C1354 C1355 1.334 . S
C1355 H1332 0.950 . S
C1355 C1354 1.334 . S
C1355 C1356 1.287 . S
C1356 C1355 1.287 . S
C1356 C1357 1.524 . S
C1356 H1375 0.913 . S
C1357 H1333 0.950 . S
C1357 C1356 1.524 . S
C1357 C1358 1.415 . S
C1358 H1334 0.950 . S
C1358 C1353 1.363 . S
C1358 C1357 1.415 . S
C1359 H1335 0.951 . S
C1359 C1360 1.366 . S
C1359 C1361 1.388 . S
C1360 C1359 1.366 . S
C1360 C1364 1.385 . S
C1361 H1336 0.951 . S
C1361 C1359 1.388 . S
C1361 C1362 1.366 . S
C1362 C1361 1.366 . S
C1362 C1363 1.414 . S
C1362 C1365 1.499 . S
C1363 H1337 0.950 . S
C1363 C1362 1.414 . S
C1363 C1364 1.374 . S
C1364 H1338 0.950 . S
C1364 C1360 1.385 . S
C1364 C1363 1.374 . S
C1365 C1362 1.499 . S
C1365 C1366 1.373 . S
C1365 C1367 1.389 . S
C1366 H1339 0.950 . S
C1366 C1352 1.377 . S
C1366 C1365 1.373 . S
C1367 C1351 1.377 . S
C1367 C1365 1.389 . S
C1367 C1368 1.524 . S
C1368 C1367 1.524 . S
C1368 C1369 1.397 . S
C1368 C1373 1.363 . S
C1369 H1340 0.950 . S
C1369 C1368 1.397 . S
C1369 C1370 1.334 . S
C1370 H1341 0.950 . S
C1370 C1369 1.334 . S
C1370 C1371 1.287 . S
C1371 C1370 1.287 . S
C1371 C1372 1.524 . S
C1371 H1374 0.999 . S
C1372 H1342 0.950 . S
C1372 C1371 1.524 . S
C1372 C1373 1.415 . S
C1373 H1343 0.950 . S
C1373 C1368 1.363 . S
C1373 C1372 1.415 . S
H1374 C1371 0.999 . S
H1375 C1356 0.913 . S
H1376 C1394 0.951 . S
H1377 C1396 0.951 . S
H1378 C1398 0.950 . S
H1379 C1399 0.950 . S
H1380 C1401 0.950 . S
H1381 C1404 0.950 . S
H1382 C1405 0.950 . S
H1383 C1407 0.950 . S
H1384 C1408 0.950 1_455 S
H1385 C1409 0.951 1_655 S
H1386 C1411 0.951 . S
H1387 C1413 0.950 . S
H1388 C1414 0.950 . S
H1389 C1416 0.950 . S
H1390 C1419 0.950 . S
H1391 C1420 0.950 . S
H1392 C1422 0.950 . S
H1393 C1423 0.950 . S
C1394 H1376 0.951 . S
C1394 C1395 1.366 . S
C1394 C1396 1.388 . S
C1395 C1394 1.366 . S
C1395 C1399 1.385 . S
C1396 H1377 0.951 . S
C1396 C1394 1.388 . S
C1396 C1397 1.366 . S
C1397 C1396 1.366 . S
C1397 C1398 1.414 . S
C1397 C1400 1.499 . S
C1398 H1378 0.950 . S
C1398 C1397 1.414 . S
C1398 C1399 1.374 . S
C1399 H1379 0.950 . S
C1399 C1395 1.385 . S
C1399 C1398 1.374 . S
C1400 C1397 1.499 . S
C1400 C1401 1.373 . S
C1400 C1402 1.389 . S
C1401 H1380 0.950 . S
C1401 C1400 1.373 . S
C1401 C1417 1.377 . S
C1402 C1400 1.389 . S
C1402 C1403 1.524 . S
C1402 C1416 1.377 . S
C1403 C1402 1.524 . S
C1403 C1404 1.397 . S
C1403 C1408 1.363 . S
C1404 H1381 0.950 . S
C1404 C1403 1.397 . S
C1404 C1405 1.334 . S
C1405 H1382 0.950 . S
C1405 C1404 1.334 . S
C1405 C1406 1.287 . S
C1406 C1405 1.287 . S
C1406 C1407 1.524 . S
C1406 H1425 0.913 . S
C1407 H1383 0.950 . S
C1407 C1406 1.524 . S
C1407 C1408 1.415 . S
C1408 H1384 0.950 1_655 S
C1408 C1403 1.363 . S
C1408 C1407 1.415 . S
C1409 H1385 0.951 1_455 S
C1409 C1410 1.366 . S
C1409 C1411 1.388 1_455 S
C1410 C1409 1.366 . S
C1410 C1414 1.385 . S
C1411 H1386 0.951 . S
C1411 C1409 1.388 1_655 S
C1411 C1412 1.366 1_655 S
C1412 C1411 1.366 1_455 S
C1412 C1413 1.414 . S
C1412 C1415 1.499 1_455 S
C1413 H1387 0.950 . S
C1413 C1412 1.414 . S
C1413 C1414 1.374 . S
C1414 H1388 0.950 . S
C1414 C1410 1.385 . S
C1414 C1413 1.374 . S
C1415 C1412 1.499 1_655 S
C1415 C1416 1.373 . S
C1415 C1417 1.389 . S
C1416 H1389 0.950 . S
C1416 C1402 1.377 . S
C1416 C1415 1.373 . S
C1417 C1401 1.377 . S
C1417 C1415 1.389 . S
C1417 C1418 1.524 . S
C1418 C1417 1.524 . S
C1418 C1419 1.397 1_655 S
C1418 C1423 1.363 1_545 S
C1419 H1390 0.950 . S
C1419 C1418 1.397 1_455 S
C1419 C1420 1.334 1_545 S
C1420 H1391 0.950 . S
C1420 C1419 1.334 1_565 S
C1420 C1421 1.253 1_455 S
C1421 C1420 1.253 1_655 S
C1421 C1422 1.583 . S
C1421 H1424 0.979 1_655 S
C1422 H1392 0.950 . S
C1422 C1421 1.583 . S
C1422 C1423 1.415 . S
C1423 H1393 0.950 . S
C1423 C1418 1.363 1_565 S
C1423 C1422 1.415 . S
H1424 C1421 0.979 1_455 S
H1425 C1406 0.913 . S
H1426 C1444 0.951 . S
H1427 C1446 0.951 . S
H1428 C1448 0.950 . S
H1429 C1449 0.950 . S
H1430 C1451 0.950 . S
H1431 C1454 0.950 . S
H1432 C1455 0.950 . S
H1433 C1457 0.950 . S
H1434 C1458 0.950 . S
H1435 C1459 0.951 . S
H1436 C1461 0.951 . S
H1437 C1463 0.950 . S
H1438 C1464 0.950 . S
H1439 C1466 0.950 . S
H1440 C1469 0.950 . S
H1441 C1470 0.950 . S
H1442 C1472 0.950 . S
H1443 C1473 0.950 . S
C1444 H1426 0.951 . S
C1444 C1445 1.366 . S
C1444 C1446 1.388 . S
C1445 C1444 1.366 . S
C1445 C1449 1.385 . S
C1446 H1427 0.951 . S
C1446 C1444 1.388 . S
C1446 C1447 1.366 . S
C1447 C1446 1.366 . S
C1447 C1448 1.414 . S
C1447 C1450 1.499 . S
C1448 H1428 0.950 . S
C1448 C1447 1.414 . S
C1448 C1449 1.374 . S
C1449 H1429 0.950 . S
C1449 C1445 1.385 . S
C1449 C1448 1.374 . S
C1450 C1447 1.499 . S
C1450 C1451 1.373 . S
C1450 C1452 1.389 . S
C1451 H1430 0.950 . S
C1451 C1450 1.373 . S
C1451 C1467 1.377 . S
C1452 C1450 1.389 . S
C1452 C1453 1.524 . S
C1452 C1466 1.377 . S
C1453 C1452 1.524 . S
C1453 C1454 1.397 . S
C1453 C1458 1.363 . S
C1454 H1431 0.950 . S
C1454 C1453 1.397 . S
C1454 C1455 1.334 . S
C1455 H1432 0.950 . S
C1455 C1454 1.334 . S
C1455 C1456 1.287 . S
C1456 C1455 1.287 . S
C1456 C1457 1.524 . S
C1456 H1475 0.913 . S
C1457 H1433 0.950 . S
C1457 C1456 1.524 . S
C1457 C1458 1.415 . S
C1458 H1434 0.950 . S
C1458 C1453 1.363 . S
C1458 C1457 1.415 . S
C1459 H1435 0.951 . S
C1459 C1460 1.366 . S
C1459 C1461 1.388 . S
C1460 C1459 1.366 . S
C1460 C1464 1.385 . S
C1461 H1436 0.951 . S
C1461 C1459 1.388 . S
C1461 C1462 1.366 . S
C1462 C1461 1.366 . S
C1462 C1463 1.414 . S
C1462 C1465 1.499 . S
C1463 H1437 0.950 . S
C1463 C1462 1.414 . S
C1463 C1464 1.374 . S
C1464 H1438 0.950 . S
C1464 C1460 1.385 . S
C1464 C1463 1.374 . S
C1465 C1462 1.499 . S
C1465 C1466 1.373 . S
C1465 C1467 1.389 . S
C1466 H1439 0.950 . S
C1466 C1452 1.377 . S
C1466 C1465 1.373 . S
C1467 C1451 1.377 . S
C1467 C1465 1.389 . S
C1467 C1468 1.524 . S
C1468 C1467 1.524 . S
C1468 C1469 1.397 . S
C1468 C1473 1.363 . S
C1469 H1440 0.950 . S
C1469 C1468 1.397 . S
C1469 C1470 1.334 . S
C1470 H1441 0.950 . S
C1470 C1469 1.334 . S
C1470 C1471 1.287 . S
C1471 C1470 1.287 . S
C1471 C1472 1.524 . S
C1471 H1474 0.999 . S
C1472 H1442 0.950 . S
C1472 C1471 1.524 . S
C1472 C1473 1.415 . S
C1473 H1443 0.950 . S
C1473 C1468 1.363 . S
C1473 C1472 1.415 . S
H1474 C1471 0.999 . S
H1475 C1456 0.913 . S
H1476 C1494 0.951 . S
H1477 C1496 0.951 . S
H1478 C1498 0.950 . S
H1479 C1499 0.950 . S
H1480 C1501 0.950 . S
H1481 C1504 0.950 . S
H1482 C1505 0.950 . S
H1483 C1507 0.950 . S
H1484 C1508 0.950 . S
H1485 C1509 0.951 . S
H1486 C1511 0.951 . S
H1487 C1513 0.950 . S
H1488 C1514 0.950 . S
H1489 C1516 0.950 . S
H1490 C1519 0.950 . S
H1491 C1520 0.950 . S
H1492 C1522 0.950 . S
H1493 C1523 0.950 . S
C1494 H1476 0.951 . S
C1494 C1495 1.366 . S
C1494 C1496 1.388 . S
C1495 C1494 1.366 . S
C1495 C1499 1.385 . S
C1496 H1477 0.951 . S
C1496 C1494 1.388 . S
C1496 C1497 1.366 . S
C1497 C1496 1.366 . S
C1497 C1498 1.414 . S
C1497 C1500 1.499 . S
C1498 H1478 0.950 . S
C1498 C1497 1.414 . S
C1498 C1499 1.374 . S
C1499 H1479 0.950 . S
C1499 C1495 1.385 . S
C1499 C1498 1.374 . S
C1500 C1497 1.499 . S
C1500 C1501 1.373 . S
C1500 C1502 1.389 . S
C1501 H1480 0.950 . S
C1501 C1500 1.373 . S
C1501 C1517 1.377 . S
C1502 C1500 1.389 . S
C1502 C1503 1.524 . S
C1502 C1516 1.377 . S
C1503 C1502 1.524 . S
C1503 C1504 1.397 . S
C1503 C1508 1.363 . S
C1504 H1481 0.950 . S
C1504 C1503 1.397 . S
C1504 C1505 1.334 1_545 S
C1505 H1482 0.950 . S
C1505 C1504 1.334 1_565 S
C1505 C1506 1.287 1_565 S
C1506 C1505 1.287 1_545 S
C1506 C1507 1.524 . S
C1506 H1525 0.913 1_545 S
C1507 H1483 0.950 . S
C1507 C1506 1.524 . S
C1507 C1508 1.415 . S
C1508 H1484 0.950 . S
C1508 C1503 1.363 . S
C1508 C1507 1.415 . S
C1509 H1485 0.951 . S
C1509 C1510 1.366 . S
C1509 C1511 1.388 . S
C1510 C1509 1.366 . S
C1510 C1514 1.385 . S
C1511 H1486 0.951 . S
C1511 C1509 1.388 . S
C1511 C1512 1.366 . S
C1512 C1511 1.366 . S
C1512 C1513 1.414 . S
C1512 C1515 1.499 . S
C1513 H1487 0.950 . S
C1513 C1512 1.414 . S
C1513 C1514 1.374 . S
C1514 H1488 0.950 . S
C1514 C1510 1.385 . S
C1514 C1513 1.374 . S
C1515 C1512 1.499 . S
C1515 C1516 1.373 . S
C1515 C1517 1.389 . S
C1516 H1489 0.950 . S
C1516 C1502 1.377 . S
C1516 C1515 1.373 . S
C1517 C1501 1.377 . S
C1517 C1515 1.389 . S
C1517 C1518 1.524 . S
C1518 C1517 1.524 . S
C1518 C1519 1.397 . S
C1518 C1523 1.363 . S
C1519 H1490 0.950 . S
C1519 C1518 1.397 . S
C1519 C1520 1.334 . S
C1520 H1491 0.950 . S
C1520 C1519 1.334 . S
C1520 C1521 1.287 . S
C1521 C1520 1.287 . S
C1521 C1522 1.524 . S
C1521 H1524 0.999 . S
C1522 H1492 0.950 . S
C1522 C1521 1.524 . S
C1522 C1523 1.415 . S
C1523 H1493 0.950 . S
C1523 C1518 1.363 . S
C1523 C1522 1.415 . S
H1524 C1521 0.999 . S
H1525 C1506 0.913 1_565 S
H1526 C1544 0.951 . S
H1527 C1546 0.951 . S
H1528 C1548 0.950 . S
H1529 C1549 0.950 . S
H1530 C1551 0.950 . S
H1531 C1554 0.950 . S
H1532 C1555 0.950 . S
H1533 C1557 0.950 . S
H1534 C1558 0.950 . S
H1535 C1559 0.951 . S
H1536 C1561 0.951 . S
H1537 C1563 0.950 . S
H1538 C1564 0.950 . S
H1539 C1566 0.950 . S
H1540 C1569 0.950 . S
H1541 C1570 0.950 . S
H1542 C1572 0.950 . S
H1543 C1573 0.950 . S
C1544 H1526 0.951 . S
C1544 C1545 1.366 . S
C1544 C1546 1.388 . S
C1545 C1544 1.366 . S
C1545 C1549 1.385 . S
C1546 H1527 0.951 . S
C1546 C1544 1.388 . S
C1546 C1547 1.366 . S
C1547 C1546 1.366 . S
C1547 C1548 1.414 . S
C1547 C1550 1.499 . S
C1548 H1528 0.950 . S
C1548 C1547 1.414 . S
C1548 C1549 1.374 . S
C1549 H1529 0.950 . S
C1549 C1545 1.385 . S
C1549 C1548 1.374 . S
C1550 C1547 1.499 . S
C1550 C1551 1.373 . S
C1550 C1552 1.389 . S
C1551 H1530 0.950 . S
C1551 C1550 1.373 . S
C1551 C1567 1.377 . S
C1552 C1550 1.389 . S
C1552 C1553 1.524 . S
C1552 C1566 1.377 . S
C1553 C1552 1.524 . S
C1553 C1554 1.397 . S
C1553 C1558 1.363 . S
C1554 H1531 0.950 . S
C1554 C1553 1.397 . S
C1554 C1555 1.334 . S
C1555 H1532 0.950 . S
C1555 C1554 1.334 . S
C1555 C1556 1.287 . S
C1556 C1555 1.287 . S
C1556 C1557 1.524 . S
C1556 H1575 0.913 . S
C1557 H1533 0.950 . S
C1557 C1556 1.524 . S
C1557 C1558 1.415 . S
C1558 H1534 0.950 . S
C1558 C1553 1.363 . S
C1558 C1557 1.415 . S
C1559 H1535 0.951 . S
C1559 C1560 1.366 . S
C1559 C1561 1.388 . S
C1560 C1559 1.366 . S
C1560 C1564 1.385 . S
C1561 H1536 0.951 . S
C1561 C1559 1.388 . S
C1561 C1562 1.366 . S
C1562 C1561 1.366 . S
C1562 C1563 1.414 . S
C1562 C1565 1.499 . S
C1563 H1537 0.950 . S
C1563 C1562 1.414 . S
C1563 C1564 1.374 . S
C1564 H1538 0.950 . S
C1564 C1560 1.385 . S
C1564 C1563 1.374 . S
C1565 C1562 1.499 . S
C1565 C1566 1.373 . S
C1565 C1567 1.389 . S
C1566 H1539 0.950 . S
C1566 C1552 1.377 . S
C1566 C1565 1.373 . S
C1567 C1551 1.377 . S
C1567 C1565 1.389 . S
C1567 C1568 1.524 . S
C1568 C1567 1.524 . S
C1568 C1569 1.397 . S
C1568 C1573 1.363 . S
C1569 H1540 0.950 . S
C1569 C1568 1.397 . S
C1569 C1570 1.334 . S
C1570 H1541 0.950 . S
C1570 C1569 1.334 . S
C1570 C1571 1.287 . S
C1571 C1570 1.287 . S
C1571 C1572 1.524 . S
C1571 H1574 0.999 . S
C1572 H1542 0.950 . S
C1572 C1571 1.524 . S
C1572 C1573 1.415 . S
C1573 H1543 0.950 . S
C1573 C1568 1.363 . S
C1573 C1572 1.415 . S
H1574 C1571 0.999 . S
H1575 C1556 0.913 . S
H1576 C1594 0.951 . S
H1577 C1596 0.951 . S
H1578 C1598 0.950 . S
H1579 C1599 0.950 . S
H1580 C1601 0.950 . S
H1581 C1604 0.950 . S
H1582 C1605 0.950 . S
H1583 C1607 0.950 . S
H1584 C1608 0.950 1_545 S
H1585 C1609 0.951 1_655 S
H1586 C1611 0.951 . S
H1587 C1613 0.950 . S
H1588 C1614 0.950 . S
H1589 C1616 0.950 . S
H1590 C1619 0.950 . S
H1591 C1620 0.950 . S
H1592 C1622 0.950 . S
H1593 C1623 0.950 . S
C1594 H1576 0.951 . S
C1594 C1595 1.366 . S
C1594 C1596 1.388 . S
C1595 C1594 1.366 . S
C1595 C1599 1.385 . S
C1596 H1577 0.951 . S
C1596 C1594 1.388 . S
C1596 C1597 1.366 . S
C1597 C1596 1.366 . S
C1597 C1598 1.414 . S
C1597 C1600 1.499 . S
C1598 H1578 0.950 . S
C1598 C1597 1.414 . S
C1598 C1599 1.374 . S
C1599 H1579 0.950 . S
C1599 C1595 1.385 . S
C1599 C1598 1.374 . S
C1600 C1597 1.499 . S
C1600 C1601 1.373 . S
C1600 C1602 1.389 . S
C1601 H1580 0.950 . S
C1601 C1600 1.373 . S
C1601 C1617 1.377 . S
C1602 C1600 1.389 . S
C1602 C1603 1.524 . S
C1602 C1616 1.377 . S
C1603 C1602 1.524 . S
C1603 C1604 1.397 . S
C1603 C1608 1.341 1_545 S
C1604 H1581 0.950 . S
C1604 C1603 1.397 . S
C1604 C1605 1.334 1_545 S
C1605 H1582 0.950 . S
C1605 C1604 1.334 1_565 S
C1605 C1606 1.287 . S
C1606 C1605 1.287 . S
C1606 C1607 1.524 . S
C1606 H1625 0.913 . S
C1607 H1583 0.950 . S
C1607 C1606 1.524 . S
C1607 C1608 1.438 . S
C1608 H1584 0.950 1_565 S
C1608 C1603 1.341 1_565 S
C1608 C1607 1.438 . S
C1609 H1585 0.951 1_455 S
C1609 C1610 1.366 . S
C1609 C1611 1.388 1_455 S
C1610 C1609 1.366 . S
C1610 C1614 1.385 . S
C1611 H1586 0.951 . S
C1611 C1609 1.388 1_655 S
C1611 C1612 1.366 1_655 S
C1612 C1611 1.366 1_455 S
C1612 C1613 1.414 . S
C1612 C1615 1.499 1_455 S
C1613 H1587 0.950 . S
C1613 C1612 1.414 . S
C1613 C1614 1.374 . S
C1614 H1588 0.950 . S
C1614 C1610 1.385 . S
C1614 C1613 1.374 . S
C1615 C1612 1.499 1_655 S
C1615 C1616 1.373 . S
C1615 C1617 1.389 . S
C1616 H1589 0.950 . S
C1616 C1602 1.377 . S
C1616 C1615 1.373 . S
C1617 C1601 1.377 . S
C1617 C1615 1.389 . S
C1617 C1618 1.524 . S
C1618 C1617 1.524 . S
C1618 C1619 1.397 1_655 S
C1618 C1623 1.363 . S
C1619 H1590 0.950 . S
C1619 C1618 1.397 1_455 S
C1619 C1620 1.334 . S
C1620 H1591 0.950 . S
C1620 C1619 1.334 . S
C1620 C1621 1.287 . S
C1621 C1620 1.287 . S
C1621 C1622 1.524 1_455 S
C1621 H1624 0.999 . S
C1622 H1592 0.950 . S
C1622 C1621 1.524 1_655 S
C1622 C1623 1.415 . S
C1623 H1593 0.950 . S
C1623 C1618 1.363 . S
C1623 C1622 1.415 . S
H1624 C1621 0.999 . S
H1625 C1606 0.913 . S
H1626 C1644 0.951 . S
H1627 C1646 0.951 . S
H1628 C1648 0.950 . S
H1629 C1649 0.950 . S
H1630 C1651 0.950 . S
H1631 C1654 0.950 . S
H1632 C1655 0.950 . S
H1633 C1657 0.950 . S
H1634 C1658 0.950 . S
H1635 C1659 0.951 . S
H1636 C1661 0.951 . S
H1637 C1663 0.950 . S
H1638 C1664 0.950 . S
H1639 C1666 0.950 . S
H1640 C1669 0.950 . S
H1641 C1670 0.950 . S
H1642 C1672 0.950 . S
H1643 C1673 0.950 . S
C1644 H1626 0.951 . S
C1644 C1645 1.366 . S
C1644 C1646 1.388 . S
C1645 C1644 1.366 . S
C1645 C1649 1.385 . S
C1646 H1627 0.951 . S
C1646 C1644 1.388 . S
C1646 C1647 1.366 . S
C1647 C1646 1.366 . S
C1647 C1648 1.414 . S
C1647 C1650 1.499 . S
C1648 H1628 0.950 . S
C1648 C1647 1.414 . S
C1648 C1649 1.374 . S
C1649 H1629 0.950 . S
C1649 C1645 1.385 . S
C1649 C1648 1.374 . S
C1650 C1647 1.499 . S
C1650 C1651 1.373 . S
C1650 C1652 1.389 . S
C1651 H1630 0.950 . S
C1651 C1650 1.373 . S
C1651 C1667 1.377 . S
C1652 C1650 1.389 . S
C1652 C1653 1.524 . S
C1652 C1666 1.377 . S
C1653 C1652 1.524 . S
C1653 C1654 1.397 . S
C1653 C1658 1.363 . S
C1654 H1631 0.950 . S
C1654 C1653 1.397 . S
C1654 C1655 1.334 . S
C1655 H1632 0.950 . S
C1655 C1654 1.334 . S
C1655 C1656 1.287 . S
C1656 C1655 1.287 . S
C1656 C1657 1.524 . S
C1656 H1675 0.913 . S
C1657 H1633 0.950 . S
C1657 C1656 1.524 . S
C1657 C1658 1.415 . S
C1658 H1634 0.950 . S
C1658 C1653 1.363 . S
C1658 C1657 1.415 . S
C1659 H1635 0.951 . S
C1659 C1660 1.366 . S
C1659 C1661 1.388 . S
C1660 C1659 1.366 . S
C1660 C1664 1.385 . S
C1661 H1636 0.951 . S
C1661 C1659 1.388 . S
C1661 C1662 1.366 . S
C1662 C1661 1.366 . S
C1662 C1663 1.414 . S
C1662 C1665 1.499 . S
C1663 H1637 0.950 . S
C1663 C1662 1.414 . S
C1663 C1664 1.374 . S
C1664 H1638 0.950 . S
C1664 C1660 1.385 . S
C1664 C1663 1.374 . S
C1665 C1662 1.499 . S
C1665 C1666 1.373 . S
C1665 C1667 1.389 . S
C1666 H1639 0.950 . S
C1666 C1652 1.377 . S
C1666 C1665 1.373 . S
C1667 C1651 1.377 . S
C1667 C1665 1.389 . S
C1667 C1668 1.524 . S
C1668 C1667 1.524 . S
C1668 C1669 1.397 . S
C1668 C1673 1.363 . S
C1669 H1640 0.950 . S
C1669 C1668 1.397 . S
C1669 C1670 1.334 . S
C1670 H1641 0.950 . S
C1670 C1669 1.334 . S
C1670 C1671 1.287 . S
C1671 C1670 1.287 . S
C1671 C1672 1.524 . S
C1671 H1674 0.999 . S
C1672 H1642 0.950 . S
C1672 C1671 1.524 . S
C1672 C1673 1.415 . S
C1673 H1643 0.950 . S
C1673 C1668 1.363 . S
C1673 C1672 1.415 . S
H1674 C1671 0.999 . S
H1675 C1656 0.913 . S
H1676 C1694 0.951 . S
H1677 C1696 0.951 . S
H1678 C1698 0.950 . S
H1679 C1699 0.950 . S
H1680 C1701 0.950 . S
H1681 C1704 0.950 . S
H1682 C1705 0.950 . S
H1683 C1707 0.950 . S
H1684 C1708 0.950 . S
H1685 C1709 0.951 . S
H1686 C1711 0.951 . S
H1687 C1713 0.950 . S
H1688 C1714 0.950 . S
H1689 C1716 0.950 . S
H1690 C1719 0.950 . S
H1691 C1720 0.950 . S
H1692 C1722 0.950 . S
H1693 C1723 0.950 . S
C1694 H1676 0.951 . S
C1694 C1695 1.366 . S
C1694 C1696 1.388 . S
C1695 C1694 1.366 . S
C1695 C1699 1.385 . S
C1696 H1677 0.951 . S
C1696 C1694 1.388 . S
C1696 C1697 1.366 . S
C1697 C1696 1.366 . S
C1697 C1698 1.414 . S
C1697 C1700 1.499 . S
C1698 H1678 0.950 . S
C1698 C1697 1.414 . S
C1698 C1699 1.374 . S
C1699 H1679 0.950 . S
C1699 C1695 1.385 . S
C1699 C1698 1.374 . S
C1700 C1697 1.499 . S
C1700 C1701 1.373 . S
C1700 C1702 1.389 . S
C1701 H1680 0.950 . S
C1701 C1700 1.373 . S
C1701 C1717 1.377 . S
C1702 C1700 1.389 . S
C1702 C1703 1.524 . S
C1702 C1716 1.377 . S
C1703 C1702 1.524 . S
C1703 C1704 1.397 . S
C1703 C1708 1.363 . S
C1704 H1681 0.950 . S
C1704 C1703 1.397 . S
C1704 C1705 1.334 . S
C1705 H1682 0.950 . S
C1705 C1704 1.334 . S
C1705 C1706 1.287 . S
C1706 C1705 1.287 . S
C1706 C1707 1.524 1_545 S
C1706 H1725 0.913 1_545 S
C1707 H1683 0.950 . S
C1707 C1706 1.524 1_565 S
C1707 C1708 1.415 1_565 S
C1708 H1684 0.950 . S
C1708 C1703 1.363 . S
C1708 C1707 1.415 1_545 S
C1709 H1685 0.951 . S
C1709 C1710 1.366 . S
C1709 C1711 1.388 . S
C1710 C1709 1.366 . S
C1710 C1714 1.385 . S
C1711 H1686 0.951 . S
C1711 C1709 1.388 . S
C1711 C1712 1.366 . S
C1712 C1711 1.366 . S
C1712 C1713 1.414 . S
C1712 C1715 1.499 . S
C1713 H1687 0.950 . S
C1713 C1712 1.414 . S
C1713 C1714 1.374 . S
C1714 H1688 0.950 . S
C1714 C1710 1.385 . S
C1714 C1713 1.374 . S
C1715 C1712 1.499 . S
C1715 C1716 1.373 . S
C1715 C1717 1.389 . S
C1716 H1689 0.950 . S
C1716 C1702 1.377 . S
C1716 C1715 1.373 . S
C1717 C1701 1.377 . S
C1717 C1715 1.389 . S
C1717 C1718 1.524 . S
C1718 C1717 1.524 . S
C1718 C1719 1.397 . S
C1718 C1723 1.363 . S
C1719 H1690 0.950 . S
C1719 C1718 1.397 . S
C1719 C1720 1.334 . S
C1720 H1691 0.950 . S
C1720 C1719 1.334 . S
C1720 C1721 1.287 . S
C1721 C1720 1.287 . S
C1721 C1722 1.524 . S
C1721 H1724 0.999 . S
C1722 H1692 0.950 . S
C1722 C1721 1.524 . S
C1722 C1723 1.415 . S
C1723 H1693 0.950 . S
C1723 C1718 1.363 . S
C1723 C1722 1.415 . S
H1724 C1721 0.999 . S
H1725 C1706 0.913 1_565 S
H1726 C1744 0.951 . S
H1727 C1746 0.951 . S
H1728 C1748 0.950 . S
H1729 C1749 0.950 . S
H1730 C1751 0.950 . S
H1731 C1754 0.950 . S
H1732 C1755 0.950 . S
H1733 C1757 0.950 . S
H1734 C1758 0.950 . S
H1735 C1759 0.951 . S
H1736 C1761 0.951 . S
H1737 C1763 0.950 . S
H1738 C1764 0.950 . S
H1739 C1766 0.950 . S
H1740 C1769 0.950 . S
H1741 C1770 0.950 . S
H1742 C1772 0.950 . S
H1743 C1773 0.950 . S
C1744 H1726 0.951 . S
C1744 C1745 1.366 . S
C1744 C1746 1.388 . S
C1745 C1744 1.366 . S
C1745 C1749 1.385 . S
C1746 H1727 0.951 . S
C1746 C1744 1.388 . S
C1746 C1747 1.366 . S
C1747 C1746 1.366 . S
C1747 C1748 1.414 . S
C1747 C1750 1.499 . S
C1748 H1728 0.950 . S
C1748 C1747 1.414 . S
C1748 C1749 1.374 . S
C1749 H1729 0.950 . S
C1749 C1745 1.385 . S
C1749 C1748 1.374 . S
C1750 C1747 1.499 . S
C1750 C1751 1.373 . S
C1750 C1752 1.389 . S
C1751 H1730 0.950 . S
C1751 C1750 1.373 . S
C1751 C1767 1.377 . S
C1752 C1750 1.389 . S
C1752 C1753 1.524 . S
C1752 C1766 1.377 . S
C1753 C1752 1.524 . S
C1753 C1754 1.397 . S
C1753 C1758 1.363 . S
C1754 H1731 0.950 . S
C1754 C1753 1.397 . S
C1754 C1755 1.334 . S
C1755 H1732 0.950 . S
C1755 C1754 1.334 . S
C1755 C1756 1.287 . S
C1756 C1755 1.287 . S
C1756 C1757 1.524 . S
C1756 H1775 0.913 . S
C1757 H1733 0.950 . S
C1757 C1756 1.524 . S
C1757 C1758 1.415 . S
C1758 H1734 0.950 . S
C1758 C1753 1.363 . S
C1758 C1757 1.415 . S
C1759 H1735 0.951 . S
C1759 C1760 1.366 . S
C1759 C1761 1.388 . S
C1760 C1759 1.366 . S
C1760 C1764 1.385 . S
C1761 H1736 0.951 . S
C1761 C1759 1.388 . S
C1761 C1762 1.366 . S
C1762 C1761 1.366 . S
C1762 C1763 1.414 . S
C1762 C1765 1.499 . S
C1763 H1737 0.950 . S
C1763 C1762 1.414 . S
C1763 C1764 1.374 . S
C1764 H1738 0.950 . S
C1764 C1760 1.385 . S
C1764 C1763 1.374 . S
C1765 C1762 1.499 . S
C1765 C1766 1.373 . S
C1765 C1767 1.389 . S
C1766 H1739 0.950 . S
C1766 C1752 1.377 . S
C1766 C1765 1.373 . S
C1767 C1751 1.377 . S
C1767 C1765 1.389 . S
C1767 C1768 1.524 . S
C1768 C1767 1.524 . S
C1768 C1769 1.397 . S
C1768 C1773 1.363 . S
C1769 H1740 0.950 . S
C1769 C1768 1.397 . S
C1769 C1770 1.334 . S
C1770 H1741 0.950 . S
C1770 C1769 1.334 . S
C1770 C1771 1.287 . S
C1771 C1770 1.287 . S
C1771 C1772 1.524 . S
C1771 H1774 0.999 . S
C1772 H1742 0.950 . S
C1772 C1771 1.524 . S
C1772 C1773 1.415 . S
C1773 H1743 0.950 . S
C1773 C1768 1.363 . S
C1773 C1772 1.415 . S
H1774 C1771 0.999 . S
H1775 C1756 0.913 . S
H1776 C1794 0.951 . S
H1777 C1796 0.951 . S
H1778 C1798 0.950 . S
H1779 C1799 0.950 . S
H1780 C1801 0.950 1_556 S
H1781 C1804 0.950 . S
H1782 C1805 0.950 . S
H1783 C1807 0.950 . S
H1784 C1808 0.950 . S
H1785 C1809 0.951 . S
H1786 C1811 0.951 . S
H1787 C1813 0.950 . S
H1788 C1814 0.950 . S
H1789 C1816 0.950 1_545 S
H1790 C1819 0.950 . S
H1791 C1820 0.950 . S
H1792 C1822 0.950 . S
H1793 C1823 0.950 . S
C1794 H1776 0.951 . S
C1794 C1795 1.366 . S
C1794 C1796 1.388 . S
C1795 C1794 1.366 . S
C1795 C1799 1.385 . S
C1796 H1777 0.951 . S
C1796 C1794 1.388 . S
C1796 C1797 1.366 . S
C1797 C1796 1.366 . S
C1797 C1798 1.414 . S
C1797 C1800 1.499 . S
C1798 H1778 0.950 . S
C1798 C1797 1.414 . S
C1798 C1799 1.374 . S
C1799 H1779 0.950 . S
C1799 C1795 1.385 . S
C1799 C1798 1.374 . S
C1800 C1797 1.499 . S
C1800 C1801 1.373 . S
C1800 C1802 1.389 . S
C1801 H1780 0.950 1_554 S
C1801 C1800 1.373 . S
C1801 C1817 1.377 . S
C1802 C1800 1.389 . S
C1802 C1803 1.524 . S
C1802 C1816 1.377 . S
C1803 C1802 1.524 . S
C1803 C1804 1.397 . S
C1803 C1808 1.363 1_565 S
C1804 H1781 0.950 . S
C1804 C1803 1.397 . S
C1804 C1805 1.334 . S
C1805 H1782 0.950 . S
C1805 C1804 1.334 . S
C1805 C1806 1.287 1_565 S
C1806 C1805 1.287 1_545 S
C1806 C1807 1.524 . S
C1806 H1825 0.913 . S
C1807 H1783 0.950 . S
C1807 C1806 1.524 . S
C1807 C1808 1.415 . S
C1808 H1784 0.950 . S
C1808 C1803 1.363 1_545 S
C1808 C1807 1.415 . S
C1809 H1785 0.951 . S
C1809 C1810 1.366 1_565 S
C1809 C1811 1.388 . S
C1810 C1809 1.366 1_545 S
C1810 C1814 1.385 . S
C1811 H1786 0.951 . S
C1811 C1809 1.388 . S
C1811 C1812 1.366 . S
C1812 C1811 1.366 . S
C1812 C1813 1.414 1_565 S
C1812 C1815 1.499 . S
C1813 H1787 0.950 . S
C1813 C1812 1.414 1_545 S
C1813 C1814 1.374 . S
C1814 H1788 0.950 . S
C1814 C1810 1.385 . S
C1814 C1813 1.374 . S
C1815 C1812 1.499 . S
C1815 C1816 1.373 . S
C1815 C1817 1.389 . S
C1816 H1789 0.950 1_565 S
C1816 C1802 1.377 . S
C1816 C1815 1.373 . S
C1817 C1801 1.377 . S
C1817 C1815 1.389 . S
C1817 C1818 1.524 1_554 S
C1818 C1817 1.524 1_556 S
C1818 C1819 1.397 . S
C1818 C1823 1.363 . S
C1819 H1790 0.950 . S
C1819 C1818 1.397 . S
C1819 C1820 1.334 . S
C1820 H1791 0.950 . S
C1820 C1819 1.334 . S
C1820 C1821 1.287 . S
C1821 C1820 1.287 . S
C1821 C1822 1.524 . S
C1821 H1824 0.999 . S
C1822 H1792 0.950 . S
C1822 C1821 1.524 . S
C1822 C1823 1.415 . S
C1823 H1793 0.950 . S
C1823 C1818 1.363 . S
C1823 C1822 1.415 . S
H1824 C1821 0.999 . S
H1825 C1806 0.913 . S
H1826 C1844 0.949 . S
H1827 C1846 0.959 . S
H1828 C1848 0.950 . S
H1829 C1849 0.950 . S
H1830 C1851 0.950 . S
H1831 C1854 0.950 . S
H1832 C1855 0.950 . S
H1833 C1857 0.950 . S
H1834 C1858 0.950 . S
H1835 C1859 0.951 . S
H1836 C1861 0.951 . S
H1837 C1863 0.950 . S
H1838 C1864 0.950 . S
H1839 C1866 0.950 . S
H1840 C1869 0.950 . S
H1841 C1870 0.950 . S
H1842 C1872 0.950 . S
H1843 C1873 0.950 . S
C1844 H1826 0.949 . S
C1844 C1845 1.360 . S
C1844 C1846 1.388 . S
C1845 C1844 1.360 . S
C1845 C1849 1.385 . S
C1846 H1827 0.959 . S
C1846 C1844 1.388 . S
C1846 C1847 1.370 . S
C1847 C1846 1.370 . S
C1847 C1848 1.414 . S
C1847 C1850 1.499 . S
C1848 H1828 0.950 . S
C1848 C1847 1.414 . S
C1848 C1849 1.374 . S
C1849 H1829 0.950 . S
C1849 C1845 1.385 . S
C1849 C1848 1.374 . S
C1850 C1847 1.499 . S
C1850 C1851 1.373 . S
C1850 C1852 1.389 1_554 S
C1851 H1830 0.950 . S
C1851 C1850 1.373 . S
C1851 C1867 1.377 . S
C1852 C1850 1.389 1_556 S
C1852 C1853 1.524 . S
C1852 C1866 1.377 . S
C1853 C1852 1.524 . S
C1853 C1854 1.397 . S
C1853 C1858 1.363 . S
C1854 H1831 0.950 . S
C1854 C1853 1.397 . S
C1854 C1855 1.334 . S
C1855 H1832 0.950 . S
C1855 C1854 1.334 . S
C1855 C1856 1.287 . S
C1856 C1855 1.287 . S
C1856 C1857 1.524 . S
C1856 H1875 0.913 . S
C1857 H1833 0.950 . S
C1857 C1856 1.524 . S
C1857 C1858 1.415 . S
C1858 H1834 0.950 . S
C1858 C1853 1.363 . S
C1858 C1857 1.415 . S
C1859 H1835 0.951 . S
C1859 C1860 1.366 . S
C1859 C1861 1.388 . S
C1860 C1859 1.366 . S
C1860 C1864 1.385 . S
C1861 H1836 0.951 . S
C1861 C1859 1.388 . S
C1861 C1862 1.366 . S
C1862 C1861 1.366 . S
C1862 C1863 1.414 . S
C1862 C1865 1.499 . S
C1863 H1837 0.950 . S
C1863 C1862 1.414 . S
C1863 C1864 1.374 . S
C1864 H1838 0.950 . S
C1864 C1860 1.385 . S
C1864 C1863 1.374 . S
C1865 C1862 1.499 . S
C1865 C1866 1.373 1_554 S
C1865 C1867 1.389 . S
C1866 H1839 0.950 . S
C1866 C1852 1.377 . S
C1866 C1865 1.373 1_556 S
C1867 C1851 1.377 . S
C1867 C1865 1.389 . S
C1867 C1868 1.524 . S
C1868 C1867 1.524 . S
C1868 C1869 1.397 . S
C1868 C1873 1.363 . S
C1869 H1840 0.950 . S
C1869 C1868 1.397 . S
C1869 C1870 1.334 . S
C1870 H1841 0.950 . S
C1870 C1869 1.334 . S
C1870 C1871 1.287 . S
C1871 C1870 1.287 . S
C1871 C1872 1.524 . S
C1871 H1874 0.999 . S
C1872 H1842 0.950 . S
C1872 C1871 1.524 . S
C1872 C1873 1.415 . S
C1873 H1843 0.950 . S
C1873 C1868 1.363 . S
C1873 C1872 1.415 . S
H1874 C1871 0.999 . S
H1875 C1856 0.913 . S
H1876 C1894 0.951 . S
H1877 C1896 0.951 . S
H1878 C1898 0.950 . S
H1879 C1899 0.950 . S
H1880 C1901 0.950 . S
H1881 C1904 0.950 . S
H1882 C1905 0.950 . S
H1883 C1907 0.950 . S
H1884 C1908 0.950 . S
H1885 C1909 0.951 . S
H1886 C1911 0.951 . S
H1887 C1913 0.950 . S
H1888 C1914 0.950 . S
H1889 C1916 0.950 . S
H1890 C1919 0.950 . S
H1891 C1920 0.950 . S
H1892 C1922 0.950 . S
H1893 C1923 0.950 . S
C1894 H1876 0.951 . S
C1894 C1895 1.366 . S
C1894 C1896 1.388 . S
C1895 C1894 1.366 . S
C1895 C1899 1.385 . S
C1896 H1877 0.951 . S
C1896 C1894 1.388 . S
C1896 C1897 1.366 . S
C1897 C1896 1.366 . S
C1897 C1898 1.414 . S
C1897 C1900 1.499 . S
C1898 H1878 0.950 . S
C1898 C1897 1.414 . S
C1898 C1899 1.374 . S
C1899 H1879 0.950 . S
C1899 C1895 1.385 . S
C1899 C1898 1.374 . S
C1900 C1897 1.499 . S
C1900 C1901 1.373 . S
C1900 C1902 1.389 . S
C1901 H1880 0.950 . S
C1901 C1900 1.373 . S
C1901 C1917 1.377 . S
C1902 C1900 1.389 . S
C1902 C1903 1.524 . S
C1902 C1916 1.377 . S
C1903 C1902 1.524 . S
C1903 C1904 1.397 . S
C1903 C1908 1.363 . S
C1904 H1881 0.950 . S
C1904 C1903 1.397 . S
C1904 C1905 1.334 . S
C1905 H1882 0.950 . S
C1905 C1904 1.334 . S
C1905 C1906 1.287 . S
C1906 C1905 1.287 . S
C1906 C1907 1.524 . S
C1906 H1925 0.913 . S
C1907 H1883 0.950 . S
C1907 C1906 1.524 . S
C1907 C1908 1.415 . S
C1908 H1884 0.950 . S
C1908 C1903 1.363 . S
C1908 C1907 1.415 . S
C1909 H1885 0.951 . S
C1909 C1910 1.366 . S
C1909 C1911 1.388 . S
C1910 C1909 1.366 . S
C1910 C1914 1.385 . S
C1911 H1886 0.951 . S
C1911 C1909 1.388 . S
C1911 C1912 1.366 . S
C1912 C1911 1.366 . S
C1912 C1913 1.414 . S
C1912 C1915 1.499 . S
C1913 H1887 0.950 . S
C1913 C1912 1.414 . S
C1913 C1914 1.374 . S
C1914 H1888 0.950 . S
C1914 C1910 1.385 . S
C1914 C1913 1.374 . S
C1915 C1912 1.499 . S
C1915 C1916 1.373 . S
C1915 C1917 1.389 . S
C1916 H1889 0.950 . S
C1916 C1902 1.377 . S
C1916 C1915 1.373 . S
C1917 C1901 1.377 . S
C1917 C1915 1.389 . S
C1917 C1918 1.524 . S
C1918 C1917 1.524 . S
C1918 C1919 1.397 . S
C1918 C1923 1.363 . S
C1919 H1890 0.950 . S
C1919 C1918 1.397 . S
C1919 C1920 1.334 . S
C1920 H1891 0.950 . S
C1920 C1919 1.334 . S
C1920 C1921 1.287 . S
C1921 C1920 1.287 . S
C1921 C1922 1.524 . S
C1921 H1924 0.999 . S
C1922 H1892 0.950 . S
C1922 C1921 1.524 . S
C1922 C1923 1.415 . S
C1923 H1893 0.950 . S
C1923 C1918 1.363 . S
C1923 C1922 1.415 . S
H1924 C1921 0.999 . S
H1925 C1906 0.913 . S
H1926 C1944 0.951 . S
H1927 C1946 0.951 . S
H1928 C1948 0.950 . S
H1929 C1949 0.950 . S
H1930 C1951 0.950 . S
H1931 C1954 0.950 . S
H1932 C1955 0.950 . S
H1933 C1957 0.950 . S
H1934 C1958 0.950 . S
H1935 C1959 0.951 . S
H1936 C1961 0.951 . S
H1937 C1963 0.950 . S
H1938 C1964 0.950 . S
H1939 C1966 0.950 . S
H1940 C1969 0.950 . S
H1941 C1970 0.950 . S
H1942 C1972 0.950 . S
H1943 C1973 0.950 . S
C1944 H1926 0.951 . S
C1944 C1945 1.366 . S
C1944 C1946 1.388 . S
C1945 C1944 1.366 . S
C1945 C1949 1.385 . S
C1946 H1927 0.951 . S
C1946 C1944 1.388 . S
C1946 C1947 1.366 . S
C1947 C1946 1.366 . S
C1947 C1948 1.414 . S
C1947 C1950 1.499 . S
C1948 H1928 0.950 . S
C1948 C1947 1.414 . S
C1948 C1949 1.374 . S
C1949 H1929 0.950 . S
C1949 C1945 1.385 . S
C1949 C1948 1.374 . S
C1950 C1947 1.499 . S
C1950 C1951 1.373 . S
C1950 C1952 1.389 . S
C1951 H1930 0.950 . S
C1951 C1950 1.373 . S
C1951 C1967 1.377 . S
C1952 C1950 1.389 . S
C1952 C1953 1.524 . S
C1952 C1966 1.377 . S
C1953 C1952 1.524 . S
C1953 C1954 1.397 . S
C1953 C1958 1.363 . S
C1954 H1931 0.950 . S
C1954 C1953 1.397 . S
C1954 C1955 1.334 . S
C1955 H1932 0.950 . S
C1955 C1954 1.334 . S
C1955 C1956 1.287 . S
C1956 C1955 1.287 . S
C1956 C1957 1.524 . S
C1956 H1975 0.913 . S
C1957 H1933 0.950 . S
C1957 C1956 1.524 . S
C1957 C1958 1.415 . S
C1958 H1934 0.950 . S
C1958 C1953 1.363 . S
C1958 C1957 1.415 . S
C1959 H1935 0.951 . S
C1959 C1960 1.366 . S
C1959 C1961 1.388 . S
C1960 C1959 1.366 . S
C1960 C1964 1.385 . S
C1961 H1936 0.951 . S
C1961 C1959 1.388 . S
C1961 C1962 1.366 . S
C1962 C1961 1.366 . S
C1962 C1963 1.414 . S
C1962 C1965 1.499 . S
C1963 H1937 0.950 . S
C1963 C1962 1.414 . S
C1963 C1964 1.374 . S
C1964 H1938 0.950 . S
C1964 C1960 1.385 . S
C1964 C1963 1.374 . S
C1965 C1962 1.499 . S
C1965 C1966 1.373 . S
C1965 C1967 1.389 . S
C1966 H1939 0.950 . S
C1966 C1952 1.377 . S
C1966 C1965 1.373 . S
C1967 C1951 1.377 . S
C1967 C1965 1.389 . S
C1967 C1968 1.524 . S
C1968 C1967 1.524 . S
C1968 C1969 1.397 . S
C1968 C1973 1.363 . S
C1969 H1940 0.950 . S
C1969 C1968 1.397 . S
C1969 C1970 1.334 . S
C1970 H1941 0.950 . S
C1970 C1969 1.334 . S
C1970 C1971 1.287 . S
C1971 C1970 1.287 . S
C1971 C1972 1.524 . S
C1971 H1974 0.999 . S
C1972 H1942 0.950 . S
C1972 C1971 1.524 . S
C1972 C1973 1.415 . S
C1973 H1943 0.950 . S
C1973 C1968 1.363 . S
C1973 C1972 1.415 . S
H1974 C1971 0.999 . S
H1975 C1956 0.913 . S
H1976 C1994 0.951 . S
H1977 C1996 0.951 . S
H1978 C1998 0.950 . S
H1979 C1999 0.950 . S
H1980 C2001 0.950 . S
H1981 C2004 0.950 . S
H1982 C2005 0.950 . S
H1983 C2007 0.950 . S
H1984 C2008 0.950 . S
H1985 C2009 0.951 . S
H1986 C2011 0.951 . S
H1987 C2013 0.950 . S
H1988 C2014 0.950 . S
H1989 C2016 0.950 . S
H1990 C2019 0.950 . S
H1991 C2020 0.950 . S
H1992 C2022 0.950 . S
H1993 C2023 0.950 . S
C1994 H1976 0.951 . S
C1994 C1995 1.366 . S
C1994 C1996 1.388 . S
C1995 C1994 1.366 . S
C1995 C1999 1.385 . S
C1996 H1977 0.951 . S
C1996 C1994 1.388 . S
C1996 C1997 1.366 . S
C1997 C1996 1.366 . S
C1997 C1998 1.414 . S
C1997 C2000 1.499 . S
C1998 H1978 0.950 . S
C1998 C1997 1.414 . S
C1998 C1999 1.374 . S
C1999 H1979 0.950 . S
C1999 C1995 1.385 . S
C1999 C1998 1.374 . S
C2000 C1997 1.499 . S
C2000 C2001 1.373 . S
C2000 C2002 1.389 . S
C2001 H1980 0.950 . S
C2001 C2000 1.373 . S
C2001 C2017 1.377 . S
C2002 C2000 1.389 . S
C2002 C2003 1.524 . S
C2002 C2016 1.377 . S
C2003 C2002 1.524 . S
C2003 C2004 1.397 . S
C2003 C2008 1.363 . S
C2004 H1981 0.950 . S
C2004 C2003 1.397 . S
C2004 C2005 1.334 . S
C2005 H1982 0.950 . S
C2005 C2004 1.334 . S
C2005 C2006 1.287 . S
C2006 C2005 1.287 . S
C2006 C2007 1.524 . S
C2006 H2025 0.913 . S
C2007 H1983 0.950 . S
C2007 C2006 1.524 . S
C2007 C2008 1.415 . S
C2008 H1984 0.950 . S
C2008 C2003 1.363 . S
C2008 C2007 1.415 . S
C2009 H1985 0.951 . S
C2009 C2010 1.366 . S
C2009 C2011 1.388 . S
C2010 C2009 1.366 . S
C2010 C2014 1.385 . S
C2011 H1986 0.951 . S
C2011 C2009 1.388 . S
C2011 C2012 1.366 . S
C2012 C2011 1.366 . S
C2012 C2013 1.414 . S
C2012 C2015 1.499 . S
C2013 H1987 0.950 . S
C2013 C2012 1.414 . S
C2013 C2014 1.374 . S
C2014 H1988 0.950 . S
C2014 C2010 1.385 . S
C2014 C2013 1.374 . S
C2015 C2012 1.499 . S
C2015 C2016 1.373 . S
C2015 C2017 1.389 . S
C2016 H1989 0.950 . S
C2016 C2002 1.377 . S
C2016 C2015 1.373 . S
C2017 C2001 1.377 . S
C2017 C2015 1.389 . S
C2017 C2018 1.524 . S
C2018 C2017 1.524 . S
C2018 C2019 1.397 . S
C2018 C2023 1.363 . S
C2019 H1990 0.950 . S
C2019 C2018 1.397 . S
C2019 C2020 1.334 . S
C2020 H1991 0.950 . S
C2020 C2019 1.334 . S
C2020 C2021 1.287 . S
C2021 C2020 1.287 . S
C2021 C2022 1.524 . S
C2021 H2024 0.999 . S
C2022 H1992 0.950 . S
C2022 C2021 1.524 . S
C2022 C2023 1.415 . S
C2023 H1993 0.950 . S
C2023 C2018 1.363 . S
C2023 C2022 1.415 . S
H2024 C2021 0.999 . S
H2025 C2006 0.913 . S
H2026 C2044 0.951 . S
H2027 C2046 0.951 . S
H2028 C2048 0.950 . S
H2029 C2049 0.950 . S
H2030 C2051 0.950 . S
H2031 C2054 0.950 . S
H2032 C2055 0.950 . S
H2033 C2057 0.950 . S
H2034 C2058 0.950 . S
H2035 C2059 0.951 . S
H2036 C2061 0.951 . S
H2037 C2063 0.950 . S
H2038 C2064 0.950 . S
H2039 C2066 0.950 . S
H2040 C2069 0.950 . S
H2041 C2070 0.950 . S
H2042 C2072 0.950 . S
H2043 C2073 0.950 . S
C2044 H2026 0.951 . S
C2044 C2045 1.366 . S
C2044 C2046 1.388 . S
C2045 C2044 1.366 . S
C2045 C2049 1.385 . S
C2046 H2027 0.951 . S
C2046 C2044 1.388 . S
C2046 C2047 1.366 . S
C2047 C2046 1.366 . S
C2047 C2048 1.414 . S
C2047 C2050 1.499 . S
C2048 H2028 0.950 . S
C2048 C2047 1.414 . S
C2048 C2049 1.374 . S
C2049 H2029 0.950 . S
C2049 C2045 1.385 . S
C2049 C2048 1.374 . S
C2050 C2047 1.499 . S
C2050 C2051 1.373 . S
C2050 C2052 1.389 . S
C2051 H2030 0.950 . S
C2051 C2050 1.373 . S
C2051 C2067 1.377 . S
C2052 C2050 1.389 . S
C2052 C2053 1.524 . S
C2052 C2066 1.377 . S
C2053 C2052 1.524 . S
C2053 C2054 1.397 . S
C2053 C2058 1.363 . S
C2054 H2031 0.950 . S
C2054 C2053 1.397 . S
C2054 C2055 1.334 . S
C2055 H2032 0.950 . S
C2055 C2054 1.334 . S
C2055 C2056 1.287 . S
C2056 C2055 1.287 . S
C2056 C2057 1.524 . S
C2056 H2075 0.913 . S
C2057 H2033 0.950 . S
C2057 C2056 1.524 . S
C2057 C2058 1.415 . S
C2058 H2034 0.950 . S
C2058 C2053 1.363 . S
C2058 C2057 1.415 . S
C2059 H2035 0.951 . S
C2059 C2060 1.366 . S
C2059 C2061 1.388 . S
C2060 C2059 1.366 . S
C2060 C2064 1.385 . S
C2061 H2036 0.951 . S
C2061 C2059 1.388 . S
C2061 C2062 1.366 . S
C2062 C2061 1.366 . S
C2062 C2063 1.414 . S
C2062 C2065 1.499 . S
C2063 H2037 0.950 . S
C2063 C2062 1.414 . S
C2063 C2064 1.374 . S
C2064 H2038 0.950 . S
C2064 C2060 1.385 . S
C2064 C2063 1.374 . S
C2065 C2062 1.499 . S
C2065 C2066 1.373 . S
C2065 C2067 1.389 . S
C2066 H2039 0.950 . S
C2066 C2052 1.377 . S
C2066 C2065 1.373 . S
C2067 C2051 1.377 . S
C2067 C2065 1.389 . S
C2067 C2068 1.524 . S
C2068 C2067 1.524 . S
C2068 C2069 1.397 . S
C2068 C2073 1.363 . S
C2069 H2040 0.950 . S
C2069 C2068 1.397 . S
C2069 C2070 1.334 . S
C2070 H2041 0.950 . S
C2070 C2069 1.334 . S
C2070 C2071 1.287 . S
C2071 C2070 1.287 . S
C2071 C2072 1.524 . S
C2071 H2074 0.999 . S
C2072 H2042 0.950 . S
C2072 C2071 1.524 . S
C2072 C2073 1.415 . S
C2073 H2043 0.950 . S
C2073 C2068 1.363 . S
C2073 C2072 1.415 . S
H2074 C2071 0.999 . S
H2075 C2056 0.913 . S
H2076 C2094 0.951 . S
H2077 C2096 0.951 . S
H2078 C2098 0.950 . S
H2079 C2099 0.950 . S
H2080 C2101 0.950 . S
H2081 C2104 0.950 . S
H2082 C2105 0.950 . S
H2083 C2107 0.950 . S
H2084 C2108 0.950 . S
H2085 C2109 0.951 . S
H2086 C2111 0.951 . S
H2087 C2113 0.950 . S
H2088 C2114 0.950 . S
H2089 C2116 0.950 . S
H2090 C2119 0.950 . S
H2091 C2120 0.950 . S
H2092 C2122 0.950 . S
H2093 C2123 0.950 . S
C2094 H2076 0.951 . S
C2094 C2095 1.366 . S
C2094 C2096 1.388 . S
C2095 C2094 1.366 . S
C2095 C2099 1.385 . S
C2096 H2077 0.951 . S
C2096 C2094 1.388 . S
C2096 C2097 1.366 . S
C2097 C2096 1.366 . S
C2097 C2098 1.414 . S
C2097 C2100 1.499 . S
C2098 H2078 0.950 . S
C2098 C2097 1.414 . S
C2098 C2099 1.374 . S
C2099 H2079 0.950 . S
C2099 C2095 1.385 . S
C2099 C2098 1.374 . S
C2100 C2097 1.499 . S
C2100 C2101 1.373 . S
C2100 C2102 1.389 . S
C2101 H2080 0.950 . S
C2101 C2100 1.373 . S
C2101 C2117 1.377 . S
C2102 C2100 1.389 . S
C2102 C2103 1.524 . S
C2102 C2116 1.377 . S
C2103 C2102 1.524 . S
C2103 C2104 1.397 . S
C2103 C2108 1.363 . S
C2104 H2081 0.950 . S
C2104 C2103 1.397 . S
C2104 C2105 1.334 . S
C2105 H2082 0.950 . S
C2105 C2104 1.334 . S
C2105 C2106 1.287 . S
C2106 C2105 1.287 . S
C2106 C2107 1.524 . S
C2106 H2125 0.913 . S
C2107 H2083 0.950 . S
C2107 C2106 1.524 . S
C2107 C2108 1.415 . S
C2108 H2084 0.950 . S
C2108 C2103 1.363 . S
C2108 C2107 1.415 . S
C2109 H2085 0.951 . S
C2109 C2110 1.366 . S
C2109 C2111 1.388 . S
C2110 C2109 1.366 . S
C2110 C2114 1.385 . S
C2111 H2086 0.951 . S
C2111 C2109 1.388 . S
C2111 C2112 1.366 . S
C2112 C2111 1.366 . S
C2112 C2113 1.414 . S
C2112 C2115 1.499 . S
C2113 H2087 0.950 . S
C2113 C2112 1.414 . S
C2113 C2114 1.374 . S
C2114 H2088 0.950 . S
C2114 C2110 1.385 . S
C2114 C2113 1.374 . S
C2115 C2112 1.499 . S
C2115 C2116 1.373 . S
C2115 C2117 1.389 . S
C2116 H2089 0.950 . S
C2116 C2102 1.377 . S
C2116 C2115 1.373 . S
C2117 C2101 1.377 . S
C2117 C2115 1.389 . S
C2117 C2118 1.524 . S
C2118 C2117 1.524 . S
C2118 C2119 1.397 . S
C2118 C2123 1.363 . S
C2119 H2090 0.950 . S
C2119 C2118 1.397 . S
C2119 C2120 1.334 . S
C2120 H2091 0.950 . S
C2120 C2119 1.334 . S
C2120 C2121 1.287 . S
C2121 C2120 1.287 . S
C2121 C2122 1.524 . S
C2121 H2124 0.999 . S
C2122 H2092 0.950 . S
C2122 C2121 1.524 . S
C2122 C2123 1.415 . S
C2123 H2093 0.950 . S
C2123 C2118 1.363 . S
C2123 C2122 1.415 . S
H2124 C2121 0.999 . S
H2125 C2106 0.913 . S
H2126 C2144 0.951 . S
H2127 C2146 0.951 . S
H2128 C2148 0.950 . S
H2129 C2149 0.950 . S
H2130 C2151 0.950 . S
H2131 C2154 0.950 . S
H2132 C2155 0.950 . S
H2133 C2157 0.950 . S
H2134 C2158 0.950 . S
H2135 C2159 0.951 . S
H2136 C2161 0.951 . S
H2137 C2163 0.950 . S
H2138 C2164 0.950 . S
H2139 C2166 0.950 . S
H2140 C2169 0.950 . S
H2141 C2170 0.950 . S
H2142 C2172 0.950 . S
H2143 C2173 0.950 . S
C2144 H2126 0.951 . S
C2144 C2145 1.366 . S
C2144 C2146 1.388 . S
C2145 C2144 1.366 . S
C2145 C2149 1.385 . S
C2146 H2127 0.951 . S
C2146 C2144 1.388 . S
C2146 C2147 1.366 . S
C2147 C2146 1.366 . S
C2147 C2148 1.414 . S
C2147 C2150 1.499 . S
C2148 H2128 0.950 . S
C2148 C2147 1.414 . S
C2148 C2149 1.374 . S
C2149 H2129 0.950 . S
C2149 C2145 1.385 . S
C2149 C2148 1.374 . S
C2150 C2147 1.499 . S
C2150 C2151 1.373 . S
C2150 C2152 1.389 . S
C2151 H2130 0.950 . S
C2151 C2150 1.373 . S
C2151 C2167 1.377 . S
C2152 C2150 1.389 . S
C2152 C2153 1.524 . S
C2152 C2166 1.377 . S
C2153 C2152 1.524 . S
C2153 C2154 1.397 . S
C2153 C2158 1.363 . S
C2154 H2131 0.950 . S
C2154 C2153 1.397 . S
C2154 C2155 1.334 . S
C2155 H2132 0.950 . S
C2155 C2154 1.334 . S
C2155 C2156 1.287 . S
C2156 C2155 1.287 . S
C2156 C2157 1.524 . S
C2156 H2175 0.913 . S
C2157 H2133 0.950 . S
C2157 C2156 1.524 . S
C2157 C2158 1.415 . S
C2158 H2134 0.950 . S
C2158 C2153 1.363 . S
C2158 C2157 1.415 . S
C2159 H2135 0.951 . S
C2159 C2160 1.366 . S
C2159 C2161 1.388 . S
C2160 C2159 1.366 . S
C2160 C2164 1.385 . S
C2161 H2136 0.951 . S
C2161 C2159 1.388 . S
C2161 C2162 1.366 . S
C2162 C2161 1.366 . S
C2162 C2163 1.414 . S
C2162 C2165 1.499 . S
C2163 H2137 0.950 . S
C2163 C2162 1.414 . S
C2163 C2164 1.374 . S
C2164 H2138 0.950 . S
C2164 C2160 1.385 . S
C2164 C2163 1.374 . S
C2165 C2162 1.499 . S
C2165 C2166 1.373 . S
C2165 C2167 1.389 . S
C2166 H2139 0.950 . S
C2166 C2152 1.377 . S
C2166 C2165 1.373 . S
C2167 C2151 1.377 . S
C2167 C2165 1.389 . S
C2167 C2168 1.524 . S
C2168 C2167 1.524 . S
C2168 C2169 1.397 . S
C2168 C2173 1.363 . S
C2169 H2140 0.950 . S
C2169 C2168 1.397 . S
C2169 C2170 1.334 . S
C2170 H2141 0.950 . S
C2170 C2169 1.334 . S
C2170 C2171 1.287 . S
C2171 C2170 1.287 . S
C2171 C2172 1.524 . S
C2171 H2174 0.999 . S
C2172 H2142 0.950 . S
C2172 C2171 1.524 . S
C2172 C2173 1.415 . S
C2173 H2143 0.950 . S
C2173 C2168 1.363 . S
C2173 C2172 1.415 . S
H2174 C2171 0.999 . S
H2175 C2156 0.913 . S
H2176 C2194 0.951 . S
H2177 C2196 0.951 . S
H2178 C2198 0.950 . S
H2179 C2199 0.950 . S
H2180 C2201 0.950 . S
H2181 C2204 0.950 . S
H2182 C2205 0.950 . S
H2183 C2207 0.950 . S
H2184 C2208 0.950 . S
H2185 C2209 0.951 . S
H2186 C2211 0.951 . S
H2187 C2213 0.950 . S
H2188 C2214 0.950 . S
H2189 C2216 0.950 . S
H2190 C2219 0.950 . S
H2191 C2220 0.950 . S
H2192 C2222 0.950 . S
H2193 C2223 0.950 . S
C2194 H2176 0.951 . S
C2194 C2195 1.366 . S
C2194 C2196 1.388 . S
C2195 C2194 1.366 . S
C2195 C2199 1.385 . S
C2196 H2177 0.951 . S
C2196 C2194 1.388 . S
C2196 C2197 1.366 . S
C2197 C2196 1.366 . S
C2197 C2198 1.414 . S
C2197 C2200 1.499 . S
C2198 H2178 0.950 . S
C2198 C2197 1.414 . S
C2198 C2199 1.374 . S
C2199 H2179 0.950 . S
C2199 C2195 1.385 . S
C2199 C2198 1.374 . S
C2200 C2197 1.499 . S
C2200 C2201 1.373 . S
C2200 C2202 1.389 . S
C2201 H2180 0.950 . S
C2201 C2200 1.373 . S
C2201 C2217 1.377 . S
C2202 C2200 1.389 . S
C2202 C2203 1.524 . S
C2202 C2216 1.377 . S
C2203 C2202 1.524 . S
C2203 C2204 1.397 . S
C2203 C2208 1.363 . S
C2204 H2181 0.950 . S
C2204 C2203 1.397 . S
C2204 C2205 1.334 . S
C2205 H2182 0.950 . S
C2205 C2204 1.334 . S
C2205 C2206 1.287 1_455 S
C2206 C2205 1.287 1_655 S
C2206 C2207 1.524 . S
C2206 H2225 0.913 . S
C2207 H2183 0.950 . S
C2207 C2206 1.524 . S
C2207 C2208 1.415 1_655 S
C2208 H2184 0.950 . S
C2208 C2203 1.363 . S
C2208 C2207 1.415 1_455 S
C2209 H2185 0.951 . S
C2209 C2210 1.366 . S
C2209 C2211 1.388 . S
C2210 C2209 1.366 . S
C2210 C2214 1.385 . S
C2211 H2186 0.951 . S
C2211 C2209 1.388 . S
C2211 C2212 1.366 . S
C2212 C2211 1.366 . S
C2212 C2213 1.414 . S
C2212 C2215 1.499 . S
C2213 H2187 0.950 . S
C2213 C2212 1.414 . S
C2213 C2214 1.374 . S
C2214 H2188 0.950 . S
C2214 C2210 1.385 . S
C2214 C2213 1.374 . S
C2215 C2212 1.499 . S
C2215 C2216 1.373 . S
C2215 C2217 1.389 . S
C2216 H2189 0.950 . S
C2216 C2202 1.377 . S
C2216 C2215 1.373 . S
C2217 C2201 1.377 . S
C2217 C2215 1.389 . S
C2217 C2218 1.524 . S
C2218 C2217 1.524 . S
C2218 C2219 1.397 . S
C2218 C2223 1.363 . S
C2219 H2190 0.950 . S
C2219 C2218 1.397 . S
C2219 C2220 1.334 . S
C2220 H2191 0.950 . S
C2220 C2219 1.334 . S
C2220 C2221 1.287 . S
C2221 C2220 1.287 . S
C2221 C2222 1.524 . S
C2221 H2224 0.999 . S
C2222 H2192 0.950 . S
C2222 C2221 1.524 . S
C2222 C2223 1.415 . S
C2223 H2193 0.950 . S
C2223 C2218 1.363 . S
C2223 C2222 1.415 . S
H2224 C2221 0.999 . S
H2225 C2206 0.913 . S
H2226 C2244 0.951 . S
H2227 C2246 0.951 . S
H2228 C2248 0.950 . S
H2229 C2249 0.950 . S
H2230 C2251 0.950 . S
H2231 C2254 0.950 . S
H2232 C2255 0.950 . S
H2233 C2257 0.950 . S
H2234 C2258 0.950 . S
H2235 C2259 0.951 . S
H2236 C2261 0.951 . S
H2237 C2263 0.950 . S
H2238 C2264 0.950 . S
H2239 C2266 0.950 . S
H2240 C2269 0.950 . S
H2241 C2270 0.950 . S
H2242 C2272 0.950 . S
H2243 C2273 0.950 . S
C2244 H2226 0.951 . S
C2244 C2245 1.366 . S
C2244 C2246 1.388 . S
C2245 C2244 1.366 . S
C2245 C2249 1.385 . S
C2246 H2227 0.951 . S
C2246 C2244 1.388 . S
C2246 C2247 1.366 . S
C2247 C2246 1.366 . S
C2247 C2248 1.414 . S
C2247 C2250 1.499 . S
C2248 H2228 0.950 . S
C2248 C2247 1.414 . S
C2248 C2249 1.374 . S
C2249 H2229 0.950 . S
C2249 C2245 1.385 . S
C2249 C2248 1.374 . S
C2250 C2247 1.499 . S
C2250 C2251 1.373 . S
C2250 C2252 1.389 . S
C2251 H2230 0.950 . S
C2251 C2250 1.373 . S
C2251 C2267 1.377 . S
C2252 C2250 1.389 . S
C2252 C2253 1.524 . S
C2252 C2266 1.377 . S
C2253 C2252 1.524 . S
C2253 C2254 1.397 . S
C2253 C2258 1.363 . S
C2254 H2231 0.950 . S
C2254 C2253 1.397 . S
C2254 C2255 1.334 . S
C2255 H2232 0.950 . S
C2255 C2254 1.334 . S
C2255 C2256 1.287 . S
C2256 C2255 1.287 . S
C2256 C2257 1.524 . S
C2256 H2275 0.913 . S
C2257 H2233 0.950 . S
C2257 C2256 1.524 . S
C2257 C2258 1.415 . S
C2258 H2234 0.950 . S
C2258 C2253 1.363 . S
C2258 C2257 1.415 . S
C2259 H2235 0.951 . S
C2259 C2260 1.366 . S
C2259 C2261 1.388 . S
C2260 C2259 1.366 . S
C2260 C2264 1.385 . S
C2261 H2236 0.951 . S
C2261 C2259 1.388 . S
C2261 C2262 1.366 . S
C2262 C2261 1.366 . S
C2262 C2263 1.414 . S
C2262 C2265 1.499 . S
C2263 H2237 0.950 . S
C2263 C2262 1.414 . S
C2263 C2264 1.374 . S
C2264 H2238 0.950 . S
C2264 C2260 1.385 . S
C2264 C2263 1.374 . S
C2265 C2262 1.499 . S
C2265 C2266 1.373 . S
C2265 C2267 1.389 . S
C2266 H2239 0.950 . S
C2266 C2252 1.377 . S
C2266 C2265 1.373 . S
C2267 C2251 1.377 . S
C2267 C2265 1.389 . S
C2267 C2268 1.524 . S
C2268 C2267 1.524 . S
C2268 C2269 1.397 . S
C2268 C2273 1.363 . S
C2269 H2240 0.950 . S
C2269 C2268 1.397 . S
C2269 C2270 1.334 . S
C2270 H2241 0.950 . S
C2270 C2269 1.334 . S
C2270 C2271 1.287 . S
C2271 C2270 1.287 . S
C2271 C2272 1.524 . S
C2271 H2274 0.999 . S
C2272 H2242 0.950 . S
C2272 C2271 1.524 . S
C2272 C2273 1.415 . S
C2273 H2243 0.950 . S
C2273 C2268 1.363 . S
C2273 C2272 1.415 . S
H2274 C2271 0.999 . S
H2275 C2256 0.913 . S
H2276 C2294 0.951 . S
H2277 C2296 0.951 . S
H2278 C2298 0.950 . S
H2279 C2299 0.950 . S
H2280 C2301 0.950 . S
H2281 C2304 0.950 . S
H2282 C2305 0.950 . S
H2283 C2307 0.950 . S
H2284 C2308 0.950 . S
H2285 C2309 0.951 . S
H2286 C2311 0.951 . S
H2287 C2313 0.950 . S
H2288 C2314 0.950 . S
H2289 C2316 0.950 . S
H2290 C2319 0.950 . S
H2291 C2320 0.950 . S
H2292 C2322 0.950 . S
H2293 C2323 0.950 . S
C2294 H2276 0.951 . S
C2294 C2295 1.366 . S
C2294 C2296 1.388 . S
C2295 C2294 1.366 . S
C2295 C2299 1.385 . S
C2296 H2277 0.951 . S
C2296 C2294 1.388 . S
C2296 C2297 1.366 . S
C2297 C2296 1.366 . S
C2297 C2298 1.414 . S
C2297 C2300 1.499 . S
C2298 H2278 0.950 . S
C2298 C2297 1.414 . S
C2298 C2299 1.374 . S
C2299 H2279 0.950 . S
C2299 C2295 1.385 . S
C2299 C2298 1.374 . S
C2300 C2297 1.499 . S
C2300 C2301 1.373 . S
C2300 C2302 1.389 . S
C2301 H2280 0.950 . S
C2301 C2300 1.373 . S
C2301 C2317 1.377 . S
C2302 C2300 1.389 . S
C2302 C2303 1.524 . S
C2302 C2316 1.377 . S
C2303 C2302 1.524 . S
C2303 C2304 1.397 . S
C2303 C2308 1.363 . S
C2304 H2281 0.950 . S
C2304 C2303 1.397 . S
C2304 C2305 1.334 . S
C2305 H2282 0.950 . S
C2305 C2304 1.334 . S
C2305 C2306 1.287 . S
C2306 C2305 1.287 . S
C2306 C2307 1.524 . S
C2306 H2325 0.913 . S
C2307 H2283 0.950 . S
C2307 C2306 1.524 . S
C2307 C2308 1.415 . S
C2308 H2284 0.950 . S
C2308 C2303 1.363 . S
C2308 C2307 1.415 . S
C2309 H2285 0.951 . S
C2309 C2310 1.366 . S
C2309 C2311 1.388 . S
C2310 C2309 1.366 . S
C2310 C2314 1.385 . S
C2311 H2286 0.951 . S
C2311 C2309 1.388 . S
C2311 C2312 1.366 . S
C2312 C2311 1.366 . S
C2312 C2313 1.414 . S
C2312 C2315 1.499 . S
C2313 H2287 0.950 . S
C2313 C2312 1.414 . S
C2313 C2314 1.374 . S
C2314 H2288 0.950 . S
C2314 C2310 1.385 . S
C2314 C2313 1.374 . S
C2315 C2312 1.499 . S
C2315 C2316 1.373 . S
C2315 C2317 1.389 . S
C2316 H2289 0.950 . S
C2316 C2302 1.377 . S
C2316 C2315 1.373 . S
C2317 C2301 1.377 . S
C2317 C2315 1.389 . S
C2317 C2318 1.524 . S
C2318 C2317 1.524 . S
C2318 C2319 1.397 . S
C2318 C2323 1.363 . S
C2319 H2290 0.950 . S
C2319 C2318 1.397 . S
C2319 C2320 1.334 . S
C2320 H2291 0.950 . S
C2320 C2319 1.334 . S
C2320 C2321 1.287 . S
C2321 C2320 1.287 . S
C2321 C2322 1.524 . S
C2321 H2324 0.999 . S
C2322 H2292 0.950 . S
C2322 C2321 1.524 . S
C2322 C2323 1.415 . S
C2323 H2293 0.950 . S
C2323 C2318 1.363 . S
C2323 C2322 1.415 . S
H2324 C2321 0.999 . S
H2325 C2306 0.913 . S
H2326 C2344 0.951 . S
H2327 C2346 0.951 . S
H2328 C2348 0.950 . S
H2329 C2349 0.950 . S
H2330 C2351 0.950 . S
H2331 C2354 0.950 . S
H2332 C2355 0.950 . S
H2333 C2357 0.950 . S
H2334 C2358 0.950 . S
H2335 C2359 0.951 . S
H2336 C2361 0.951 . S
H2337 C2363 0.950 . S
H2338 C2364 0.950 . S
H2339 C2366 0.950 . S
H2340 C2369 0.950 . S
H2341 C2370 0.950 . S
H2342 C2372 0.950 . S
H2343 C2373 0.950 . S
C2344 H2326 0.951 . S
C2344 C2345 1.366 . S
C2344 C2346 1.388 . S
C2345 C2344 1.366 . S
C2345 C2349 1.385 . S
C2346 H2327 0.951 . S
C2346 C2344 1.388 . S
C2346 C2347 1.366 . S
C2347 C2346 1.366 . S
C2347 C2348 1.414 . S
C2347 C2350 1.499 . S
C2348 H2328 0.950 . S
C2348 C2347 1.414 . S
C2348 C2349 1.374 . S
C2349 H2329 0.950 . S
C2349 C2345 1.385 . S
C2349 C2348 1.374 . S
C2350 C2347 1.499 . S
C2350 C2351 1.373 . S
C2350 C2352 1.389 . S
C2351 H2330 0.950 . S
C2351 C2350 1.373 . S
C2351 C2367 1.377 . S
C2352 C2350 1.389 . S
C2352 C2353 1.524 . S
C2352 C2366 1.377 . S
C2353 C2352 1.524 . S
C2353 C2354 1.397 . S
C2353 C2358 1.363 . S
C2354 H2331 0.950 . S
C2354 C2353 1.397 . S
C2354 C2355 1.334 . S
C2355 H2332 0.950 . S
C2355 C2354 1.334 . S
C2355 C2356 1.287 . S
C2356 C2355 1.287 . S
C2356 C2357 1.524 . S
C2356 H2375 0.913 . S
C2357 H2333 0.950 . S
C2357 C2356 1.524 . S
C2357 C2358 1.415 . S
C2358 H2334 0.950 . S
C2358 C2353 1.363 . S
C2358 C2357 1.415 . S
C2359 H2335 0.951 . S
C2359 C2360 1.366 . S
C2359 C2361 1.388 . S
C2360 C2359 1.366 . S
C2360 C2364 1.385 . S
C2361 H2336 0.951 . S
C2361 C2359 1.388 . S
C2361 C2362 1.366 . S
C2362 C2361 1.366 . S
C2362 C2363 1.414 . S
C2362 C2365 1.499 . S
C2363 H2337 0.950 . S
C2363 C2362 1.414 . S
C2363 C2364 1.374 . S
C2364 H2338 0.950 . S
C2364 C2360 1.385 . S
C2364 C2363 1.374 . S
C2365 C2362 1.499 . S
C2365 C2366 1.373 . S
C2365 C2367 1.389 . S
C2366 H2339 0.950 . S
C2366 C2352 1.377 . S
C2366 C2365 1.373 . S
C2367 C2351 1.377 . S
C2367 C2365 1.389 . S
C2367 C2368 1.524 . S
C2368 C2367 1.524 . S
C2368 C2369 1.397 . S
C2368 C2373 1.363 . S
C2369 H2340 0.950 . S
C2369 C2368 1.397 . S
C2369 C2370 1.334 . S
C2370 H2341 0.950 . S
C2370 C2369 1.334 . S
C2370 C2371 1.287 . S
C2371 C2370 1.287 . S
C2371 C2372 1.524 . S
C2371 H2374 0.999 . S
C2372 H2342 0.950 . S
C2372 C2371 1.524 . S
C2372 C2373 1.415 . S
C2373 H2343 0.950 . S
C2373 C2368 1.363 . S
C2373 C2372 1.415 . S
H2374 C2371 0.999 . S
H2375 C2356 0.913 . S
H2376 C2394 0.951 . S
H2377 C2396 0.951 . S
H2378 C2398 0.950 . S
H2379 C2399 0.950 . S
H2380 C2401 0.950 . S
H2381 C2404 0.950 . S
H2382 C2405 0.950 . S
H2383 C2407 0.950 . S
H2384 C2408 0.950 . S
H2385 C2409 0.951 . S
H2386 C2411 0.951 . S
H2387 C2413 0.950 . S
H2388 C2414 0.950 . S
H2389 C2416 0.950 . S
H2390 C2419 0.950 . S
H2391 C2420 0.950 . S
H2392 C2422 0.950 . S
H2393 C2423 0.950 . S
C2394 H2376 0.951 . S
C2394 C2395 1.366 . S
C2394 C2396 1.388 . S
C2395 C2394 1.366 . S
C2395 C2399 1.385 . S
C2396 H2377 0.951 . S
C2396 C2394 1.388 . S
C2396 C2397 1.366 . S
C2397 C2396 1.366 . S
C2397 C2398 1.414 . S
C2397 C2400 1.499 . S
C2398 H2378 0.950 . S
C2398 C2397 1.414 . S
C2398 C2399 1.374 . S
C2399 H2379 0.950 . S
C2399 C2395 1.385 . S
C2399 C2398 1.374 . S
C2400 C2397 1.499 . S
C2400 C2401 1.373 . S
C2400 C2402 1.389 . S
C2401 H2380 0.950 . S
C2401 C2400 1.373 . S
C2401 C2417 1.377 . S
C2402 C2400 1.389 . S
C2402 C2403 1.524 . S
C2402 C2416 1.377 . S
C2403 C2402 1.524 . S
C2403 C2404 1.397 . S
C2403 C2408 1.363 . S
C2404 H2381 0.950 . S
C2404 C2403 1.397 . S
C2404 C2405 1.334 . S
C2405 H2382 0.950 . S
C2405 C2404 1.334 . S
C2405 C2406 1.287 . S
C2406 C2405 1.287 . S
C2406 C2407 1.524 . S
C2406 H2425 0.913 . S
C2407 H2383 0.950 . S
C2407 C2406 1.524 . S
C2407 C2408 1.415 . S
C2408 H2384 0.950 . S
C2408 C2403 1.363 . S
C2408 C2407 1.415 . S
C2409 H2385 0.951 . S
C2409 C2410 1.366 . S
C2409 C2411 1.388 . S
C2410 C2409 1.366 . S
C2410 C2414 1.385 . S
C2411 H2386 0.951 . S
C2411 C2409 1.388 . S
C2411 C2412 1.366 . S
C2412 C2411 1.366 . S
C2412 C2413 1.414 . S
C2412 C2415 1.499 . S
C2413 H2387 0.950 . S
C2413 C2412 1.414 . S
C2413 C2414 1.374 . S
C2414 H2388 0.950 . S
C2414 C2410 1.385 . S
C2414 C2413 1.374 . S
C2415 C2412 1.499 . S
C2415 C2416 1.373 . S
C2415 C2417 1.389 . S
C2416 H2389 0.950 . S
C2416 C2402 1.377 . S
C2416 C2415 1.373 . S
C2417 C2401 1.377 . S
C2417 C2415 1.389 . S
C2417 C2418 1.524 . S
C2418 C2417 1.524 . S
C2418 C2419 1.397 1_455 S
C2418 C2423 1.363 . S
C2419 H2390 0.950 . S
C2419 C2418 1.397 1_655 S
C2419 C2420 1.334 . S
C2420 H2391 0.950 . S
C2420 C2419 1.334 . S
C2420 C2421 1.287 . S
C2421 C2420 1.287 . S
C2421 C2422 1.524 . S
C2421 H2424 0.999 . S
C2422 H2392 0.950 . S
C2422 C2421 1.524 . S
C2422 C2423 1.415 1_655 S
C2423 H2393 0.950 . S
C2423 C2418 1.363 . S
C2423 C2422 1.415 1_455 S
H2424 C2421 0.999 . S
H2425 C2406 0.913 . S
H2426 C2444 0.951 . S
H2427 C2446 0.951 . S
H2428 C2448 0.950 . S
H2429 C2449 0.950 . S
H2430 C2451 0.950 . S
H2431 C2454 0.950 . S
H2432 C2455 0.950 . S
H2433 C2457 0.950 . S
H2434 C2458 0.950 . S
H2435 C2459 0.951 . S
H2436 C2461 0.951 . S
H2437 C2463 0.950 . S
H2438 C2464 0.950 . S
H2439 C2466 0.950 . S
H2440 C2469 0.950 . S
H2441 C2470 0.950 . S
H2442 C2472 0.950 . S
H2443 C2473 0.950 . S
C2444 H2426 0.951 . S
C2444 C2445 1.366 . S
C2444 C2446 1.388 . S
C2445 C2444 1.366 . S
C2445 C2449 1.385 . S
C2446 H2427 0.951 . S
C2446 C2444 1.388 . S
C2446 C2447 1.366 . S
C2447 C2446 1.366 . S
C2447 C2448 1.414 . S
C2447 C2450 1.499 . S
C2448 H2428 0.950 . S
C2448 C2447 1.414 . S
C2448 C2449 1.374 . S
C2449 H2429 0.950 . S
C2449 C2445 1.385 . S
C2449 C2448 1.374 . S
C2450 C2447 1.499 . S
C2450 C2451 1.373 . S
C2450 C2452 1.389 . S
C2451 H2430 0.950 . S
C2451 C2450 1.373 . S
C2451 C2467 1.377 . S
C2452 C2450 1.389 . S
C2452 C2453 1.524 . S
C2452 C2466 1.377 . S
C2453 C2452 1.524 . S
C2453 C2454 1.397 . S
C2453 C2458 1.363 . S
C2454 H2431 0.950 . S
C2454 C2453 1.397 . S
C2454 C2455 1.334 . S
C2455 H2432 0.950 . S
C2455 C2454 1.334 . S
C2455 C2456 1.287 . S
C2456 C2455 1.287 . S
C2456 C2457 1.524 . S
C2456 H2475 0.913 . S
C2457 H2433 0.950 . S
C2457 C2456 1.524 . S
C2457 C2458 1.415 . S
C2458 H2434 0.950 . S
C2458 C2453 1.363 . S
C2458 C2457 1.415 . S
C2459 H2435 0.951 . S
C2459 C2460 1.366 . S
C2459 C2461 1.388 . S
C2460 C2459 1.366 . S
C2460 C2464 1.385 . S
C2461 H2436 0.951 . S
C2461 C2459 1.388 . S
C2461 C2462 1.366 . S
C2462 C2461 1.366 . S
C2462 C2463 1.414 . S
C2462 C2465 1.499 . S
C2463 H2437 0.950 . S
C2463 C2462 1.414 . S
C2463 C2464 1.374 . S
C2464 H2438 0.950 . S
C2464 C2460 1.385 . S
C2464 C2463 1.374 . S
C2465 C2462 1.499 . S
C2465 C2466 1.373 . S
C2465 C2467 1.389 . S
C2466 H2439 0.950 . S
C2466 C2452 1.377 . S
C2466 C2465 1.373 . S
C2467 C2451 1.377 . S
C2467 C2465 1.389 . S
C2467 C2468 1.524 . S
C2468 C2467 1.524 . S
C2468 C2469 1.397 . S
C2468 C2473 1.363 . S
C2469 H2440 0.950 . S
C2469 C2468 1.397 . S
C2469 C2470 1.334 . S
C2470 H2441 0.950 . S
C2470 C2469 1.334 . S
C2470 C2471 1.287 . S
C2471 C2470 1.287 . S
C2471 C2472 1.524 . S
C2471 H2474 0.999 . S
C2472 H2442 0.950 . S
C2472 C2471 1.524 . S
C2472 C2473 1.415 . S
C2473 H2443 0.950 . S
C2473 C2468 1.363 . S
C2473 C2472 1.415 . S
H2474 C2471 0.999 . S
H2475 C2456 0.913 . S
H2476 C2494 0.951 . S
H2477 C2496 0.951 . S
H2478 C2498 0.950 . S
H2479 C2499 0.950 . S
H2480 C2501 0.950 . S
H2481 C2504 0.950 . S
H2482 C2505 0.950 . S
H2483 C2507 0.950 . S
H2484 C2508 0.950 . S
H2485 C2509 0.951 1_554 S
H2486 C2511 0.951 . S
H2487 C2513 0.950 . S
H2488 C2514 0.950 . S
H2489 C2516 0.950 . S
H2490 C2519 0.950 . S
H2491 C2520 0.950 . S
H2492 C2522 0.950 . S
H2493 C2523 0.950 . S
C2494 H2476 0.951 . S
C2494 C2495 1.366 . S
C2494 C2496 1.388 . S
C2495 C2494 1.366 . S
C2495 C2499 1.385 . S
C2496 H2477 0.951 . S
C2496 C2494 1.388 . S
C2496 C2497 1.366 . S
C2497 C2496 1.366 . S
C2497 C2498 1.414 . S
C2497 C2500 1.499 . S
C2498 H2478 0.950 . S
C2498 C2497 1.414 . S
C2498 C2499 1.374 . S
C2499 H2479 0.950 . S
C2499 C2495 1.385 . S
C2499 C2498 1.374 . S
C2500 C2497 1.499 . S
C2500 C2501 1.373 . S
C2500 C2502 1.389 . S
C2501 H2480 0.950 . S
C2501 C2500 1.373 . S
C2501 C2517 1.377 . S
C2502 C2500 1.389 . S
C2502 C2503 1.524 . S
C2502 C2516 1.377 . S
C2503 C2502 1.524 . S
C2503 C2504 1.397 . S
C2503 C2508 1.363 . S
C2504 H2481 0.950 . S
C2504 C2503 1.397 . S
C2504 C2505 1.334 . S
C2505 H2482 0.950 . S
C2505 C2504 1.334 . S
C2505 C2506 1.287 . S
C2506 C2505 1.287 . S
C2506 C2507 1.524 . S
C2506 H2525 0.913 . S
C2507 H2483 0.950 . S
C2507 C2506 1.524 . S
C2507 C2508 1.415 . S
C2508 H2484 0.950 . S
C2508 C2503 1.363 . S
C2508 C2507 1.415 . S
C2509 H2485 0.951 1_556 S
C2509 C2510 1.366 . S
C2509 C2511 1.388 . S
C2510 C2509 1.366 . S
C2510 C2514 1.385 . S
C2511 H2486 0.951 . S
C2511 C2509 1.388 . S
C2511 C2512 1.366 . S
C2512 C2511 1.366 . S
C2512 C2513 1.414 . S
C2512 C2515 1.499 . S
C2513 H2487 0.950 . S
C2513 C2512 1.414 . S
C2513 C2514 1.374 . S
C2514 H2488 0.950 . S
C2514 C2510 1.385 . S
C2514 C2513 1.374 . S
C2515 C2512 1.499 . S
C2515 C2516 1.373 . S
C2515 C2517 1.389 . S
C2516 H2489 0.950 . S
C2516 C2502 1.377 . S
C2516 C2515 1.373 . S
C2517 C2501 1.377 . S
C2517 C2515 1.389 . S
C2517 C2518 1.524 . S
C2518 C2517 1.524 . S
C2518 C2519 1.397 . S
C2518 C2523 1.363 . S
C2519 H2490 0.950 . S
C2519 C2518 1.397 . S
C2519 C2520 1.334 . S
C2520 H2491 0.950 . S
C2520 C2519 1.334 . S
C2520 C2521 1.287 . S
C2521 C2520 1.287 . S
C2521 C2522 1.524 . S
C2521 H2524 0.999 . S
C2522 H2492 0.950 . S
C2522 C2521 1.524 . S
C2522 C2523 1.415 . S
C2523 H2493 0.950 . S
C2523 C2518 1.363 . S
C2523 C2522 1.415 . S
H2524 C2521 0.999 . S
H2525 C2506 0.913 . S
H2526 C2544 0.951 . S
H2527 C2546 0.951 . S
H2528 C2548 0.950 . S
H2529 C2549 0.950 . S
H2530 C2551 0.950 . S
H2531 C2554 0.950 . S
H2532 C2555 0.950 . S
H2533 C2557 0.950 . S
H2534 C2558 0.950 . S
H2535 C2559 0.951 . S
H2536 C2561 0.951 . S
H2537 C2563 0.950 . S
H2538 C2564 0.950 . S
H2539 C2566 0.950 . S
H2540 C2569 0.950 . S
H2541 C2570 0.950 . S
H2542 C2572 0.950 . S
H2543 C2573 0.950 . S
C2544 H2526 0.951 . S
C2544 C2545 1.366 . S
C2544 C2546 1.388 . S
C2545 C2544 1.366 . S
C2545 C2549 1.385 . S
C2546 H2527 0.951 . S
C2546 C2544 1.388 . S
C2546 C2547 1.366 . S
C2547 C2546 1.366 . S
C2547 C2548 1.414 . S
C2547 C2550 1.499 . S
C2548 H2528 0.950 . S
C2548 C2547 1.414 . S
C2548 C2549 1.374 . S
C2549 H2529 0.950 . S
C2549 C2545 1.385 . S
C2549 C2548 1.374 . S
C2550 C2547 1.499 . S
C2550 C2551 1.373 . S
C2550 C2552 1.389 . S
C2551 H2530 0.950 . S
C2551 C2550 1.373 . S
C2551 C2567 1.377 . S
C2552 C2550 1.389 . S
C2552 C2553 1.524 . S
C2552 C2566 1.377 . S
C2553 C2552 1.524 . S
C2553 C2554 1.397 . S
C2553 C2558 1.363 . S
C2554 H2531 0.950 . S
C2554 C2553 1.397 . S
C2554 C2555 1.334 . S
C2555 H2532 0.950 . S
C2555 C2554 1.334 . S
C2555 C2556 1.287 . S
C2556 C2555 1.287 . S
C2556 C2557 1.524 . S
C2556 H2575 0.913 . S
C2557 H2533 0.950 . S
C2557 C2556 1.524 . S
C2557 C2558 1.415 . S
C2558 H2534 0.950 . S
C2558 C2553 1.363 . S
C2558 C2557 1.415 . S
C2559 H2535 0.951 . S
C2559 C2560 1.366 . S
C2559 C2561 1.388 . S
C2560 C2559 1.366 . S
C2560 C2564 1.385 . S
C2561 H2536 0.951 . S
C2561 C2559 1.388 . S
C2561 C2562 1.366 . S
C2562 C2561 1.366 . S
C2562 C2563 1.414 . S
C2562 C2565 1.499 . S
C2563 H2537 0.950 . S
C2563 C2562 1.414 . S
C2563 C2564 1.374 . S
C2564 H2538 0.950 . S
C2564 C2560 1.385 . S
C2564 C2563 1.374 . S
C2565 C2562 1.499 . S
C2565 C2566 1.373 . S
C2565 C2567 1.389 . S
C2566 H2539 0.950 . S
C2566 C2552 1.377 . S
C2566 C2565 1.373 . S
C2567 C2551 1.377 . S
C2567 C2565 1.389 . S
C2567 C2568 1.524 . S
C2568 C2567 1.524 . S
C2568 C2569 1.397 . S
C2568 C2573 1.363 . S
C2569 H2540 0.950 . S
C2569 C2568 1.397 . S
C2569 C2570 1.334 . S
C2570 H2541 0.950 . S
C2570 C2569 1.334 . S
C2570 C2571 1.287 . S
C2571 C2570 1.287 . S
C2571 C2572 1.524 . S
C2571 H2574 0.999 . S
C2572 H2542 0.950 . S
C2572 C2571 1.524 . S
C2572 C2573 1.415 . S
C2573 H2543 0.950 . S
C2573 C2568 1.363 . S
C2573 C2572 1.415 . S
H2574 C2571 0.999 . S
H2575 C2556 0.913 . S
H2576 C2594 0.934 1_565 S
H2577 C2596 0.951 1_565 S
H2578 C2598 0.950 . S
H2579 C2599 0.950 . S
H2580 C2601 0.950 . S
H2581 C2604 0.950 . S
H2582 C2605 0.950 . S
H2583 C2607 0.950 . S
H2584 C2608 0.950 . S
H2585 C2609 0.951 . S
H2586 C2611 0.951 . S
H2587 C2613 0.963 . S
H2588 C2614 0.950 . S
H2589 C2616 0.950 . S
H2590 C2619 0.950 . S
H2591 C2620 0.950 . S
H2592 C2622 0.950 . S
H2593 C2623 0.950 . S
C2594 H2576 0.934 1_545 S
C2594 C2595 1.384 . S
C2594 C2596 1.390 . S
C2595 C2594 1.384 . S
C2595 C2599 1.385 . S
C2596 H2577 0.951 1_545 S
C2596 C2594 1.390 . S
C2596 C2597 1.366 . S
C2597 C2596 1.366 . S
C2597 C2598 1.414 . S
C2597 C2600 1.499 . S
C2598 H2578 0.950 . S
C2598 C2597 1.414 . S
C2598 C2599 1.374 . S
C2599 H2579 0.950 . S
C2599 C2595 1.385 . S
C2599 C2598 1.374 . S
C2600 C2597 1.499 . S
C2600 C2601 1.373 . S
C2600 C2602 1.389 . S
C2601 H2580 0.950 . S
C2601 C2600 1.373 . S
C2601 C2617 1.377 . S
C2602 C2600 1.389 . S
C2602 C2603 1.524 . S
C2602 C2616 1.377 . S
C2603 C2602 1.524 . S
C2603 C2604 1.397 . S
C2603 C2608 1.363 . S
C2604 H2581 0.950 . S
C2604 C2603 1.397 . S
C2604 C2605 1.334 . S
C2605 H2582 0.950 . S
C2605 C2604 1.334 . S
C2605 C2606 1.287 . S
C2606 C2605 1.287 . S
C2606 C2607 1.524 . S
C2606 H2625 0.913 . S
C2607 H2583 0.950 . S
C2607 C2606 1.524 . S
C2607 C2608 1.415 . S
C2608 H2584 0.950 . S
C2608 C2603 1.363 . S
C2608 C2607 1.415 . S
C2609 H2585 0.951 . S
C2609 C2610 1.366 . S
C2609 C2611 1.388 . S
C2610 C2609 1.366 . S
C2610 C2614 1.385 . S
C2611 H2586 0.951 . S
C2611 C2609 1.388 . S
C2611 C2612 1.366 . S
C2612 C2611 1.366 . S
C2612 C2613 1.414 . S
C2612 C2615 1.499 . S
C2613 H2587 0.963 . S
C2613 C2612 1.414 . S
C2613 C2614 1.374 . S
C2614 H2588 0.950 . S
C2614 C2610 1.385 . S
C2614 C2613 1.374 . S
C2615 C2612 1.499 . S
C2615 C2616 1.373 . S
C2615 C2617 1.389 . S
C2616 H2589 0.950 . S
C2616 C2602 1.377 . S
C2616 C2615 1.373 . S
C2617 C2601 1.377 . S
C2617 C2615 1.389 . S
C2617 C2618 1.524 . S
C2618 C2617 1.524 . S
C2618 C2619 1.397 1_545 S
C2618 C2623 1.363 . S
C2619 H2590 0.950 . S
C2619 C2618 1.397 1_565 S
C2619 C2620 1.334 . S
C2620 H2591 0.950 . S
C2620 C2619 1.334 . S
C2620 C2621 1.287 . S
C2621 C2620 1.287 . S
C2621 C2622 1.524 1_565 S
C2621 H2624 0.999 . S
C2622 H2592 0.950 . S
C2622 C2621 1.524 1_545 S
C2622 C2623 1.415 . S
C2623 H2593 0.950 . S
C2623 C2618 1.363 . S
C2623 C2622 1.415 . S
H2624 C2621 0.999 . S
H2625 C2606 0.913 . S
H2626 C2644 0.951 . S
H2627 C2646 0.951 . S
H2628 C2648 0.950 . S
H2629 C2649 0.950 . S
H2630 C2651 0.950 . S
H2631 C2654 0.950 . S
H2632 C2655 0.950 . S
H2633 C2657 0.950 . S
H2634 C2658 0.950 . S
H2635 C2659 0.951 . S
H2636 C2661 0.951 . S
H2637 C2663 0.950 . S
H2638 C2664 0.950 . S
H2639 C2666 0.950 . S
H2640 C2669 0.950 . S
H2641 C2670 0.950 . S
H2642 C2672 0.950 . S
H2643 C2673 0.950 . S
C2644 H2626 0.951 . S
C2644 C2645 1.366 . S
C2644 C2646 1.388 . S
C2645 C2644 1.366 . S
C2645 C2649 1.385 . S
C2646 H2627 0.951 . S
C2646 C2644 1.388 . S
C2646 C2647 1.366 . S
C2647 C2646 1.366 . S
C2647 C2648 1.414 . S
C2647 C2650 1.499 . S
C2648 H2628 0.950 . S
C2648 C2647 1.414 . S
C2648 C2649 1.374 . S
C2649 H2629 0.950 . S
C2649 C2645 1.385 . S
C2649 C2648 1.374 . S
C2650 C2647 1.499 . S
C2650 C2651 1.373 . S
C2650 C2652 1.389 . S
C2651 H2630 0.950 . S
C2651 C2650 1.373 . S
C2651 C2667 1.377 . S
C2652 C2650 1.389 . S
C2652 C2653 1.524 . S
C2652 C2666 1.377 . S
C2653 C2652 1.524 . S
C2653 C2654 1.397 . S
C2653 C2658 1.363 . S
C2654 H2631 0.950 . S
C2654 C2653 1.397 . S
C2654 C2655 1.334 . S
C2655 H2632 0.950 . S
C2655 C2654 1.334 . S
C2655 C2656 1.287 . S
C2656 C2655 1.287 . S
C2656 C2657 1.524 . S
C2656 H2675 0.913 . S
C2657 H2633 0.950 . S
C2657 C2656 1.524 . S
C2657 C2658 1.415 . S
C2658 H2634 0.950 . S
C2658 C2653 1.363 . S
C2658 C2657 1.415 . S
C2659 H2635 0.951 . S
C2659 C2660 1.366 . S
C2659 C2661 1.388 . S
C2660 C2659 1.366 . S
C2660 C2664 1.385 . S
C2661 H2636 0.951 . S
C2661 C2659 1.388 . S
C2661 C2662 1.366 . S
C2662 C2661 1.366 . S
C2662 C2663 1.414 . S
C2662 C2665 1.499 . S
C2663 H2637 0.950 . S
C2663 C2662 1.414 . S
C2663 C2664 1.374 . S
C2664 H2638 0.950 . S
C2664 C2660 1.385 . S
C2664 C2663 1.374 . S
C2665 C2662 1.499 . S
C2665 C2666 1.373 . S
C2665 C2667 1.389 . S
C2666 H2639 0.950 . S
C2666 C2652 1.377 . S
C2666 C2665 1.373 . S
C2667 C2651 1.377 . S
C2667 C2665 1.389 . S
C2667 C2668 1.524 . S
C2668 C2667 1.524 . S
C2668 C2669 1.397 . S
C2668 C2673 1.363 . S
C2669 H2640 0.950 . S
C2669 C2668 1.397 . S
C2669 C2670 1.334 . S
C2670 H2641 0.950 . S
C2670 C2669 1.334 . S
C2670 C2671 1.287 . S
C2671 C2670 1.287 . S
C2671 C2672 1.524 . S
C2671 H2674 0.999 . S
C2672 H2642 0.950 . S
C2672 C2671 1.524 . S
C2672 C2673 1.415 . S
C2673 H2643 0.950 . S
C2673 C2668 1.363 . S
C2673 C2672 1.415 . S
H2674 C2671 0.999 . S
H2675 C2656 0.913 . S
H2676 C2694 0.951 . S
H2677 C2696 0.971 . S
H2678 C2698 0.950 . S
H2679 C2699 0.950 . S
H2680 C2701 0.950 . S
H2681 C2704 0.950 . S
H2682 C2705 0.950 . S
H2683 C2707 0.950 . S
H2684 C2708 0.950 . S
H2685 C2709 0.951 . S
H2686 C2711 0.951 . S
H2687 C2713 0.950 1_565 S
H2688 C2714 0.962 . S
H2689 C2716 0.950 . S
H2690 C2719 0.950 . S
H2691 C2720 0.950 . S
H2692 C2722 0.950 . S
H2693 C2723 0.950 . S
C2694 H2676 0.951 . S
C2694 C2695 1.366 1_565 S
C2694 C2696 1.384 . S
C2695 C2694 1.366 1_545 S
C2695 C2699 1.385 . S
C2696 H2677 0.971 . S
C2696 C2694 1.384 . S
C2696 C2697 1.349 1_565 S
C2697 C2696 1.349 1_545 S
C2697 C2698 1.414 . S
C2697 C2700 1.499 . S
C2698 H2678 0.950 . S
C2698 C2697 1.414 . S
C2698 C2699 1.374 . S
C2699 H2679 0.950 . S
C2699 C2695 1.385 . S
C2699 C2698 1.374 . S
C2700 C2697 1.499 . S
C2700 C2701 1.373 . S
C2700 C2702 1.389 . S
C2701 H2680 0.950 . S
C2701 C2700 1.373 . S
C2701 C2717 1.377 . S
C2702 C2700 1.389 . S
C2702 C2703 1.524 . S
C2702 C2716 1.377 . S
C2703 C2702 1.524 . S
C2703 C2704 1.397 . S
C2703 C2708 1.363 1_545 S
C2704 H2681 0.950 . S
C2704 C2703 1.397 . S
C2704 C2705 1.334 . S
C2705 H2682 0.950 . S
C2705 C2704 1.334 . S
C2705 C2706 1.287 . S
C2706 C2705 1.287 . S
C2706 C2707 1.524 1_545 S
C2706 H2725 0.913 . S
C2707 H2683 0.950 . S
C2707 C2706 1.524 1_565 S
C2707 C2708 1.415 . S
C2708 H2684 0.950 . S
C2708 C2703 1.363 1_565 S
C2708 C2707 1.415 . S
C2709 H2685 0.951 . S
C2709 C2710 1.366 . S
C2709 C2711 1.388 . S
C2710 C2709 1.366 . S
C2710 C2714 1.385 . S
C2711 H2686 0.951 . S
C2711 C2709 1.388 . S
C2711 C2712 1.366 . S
C2712 C2711 1.366 . S
C2712 C2713 1.414 . S
C2712 C2715 1.499 . S
C2713 H2687 0.950 1_545 S
C2713 C2712 1.414 . S
C2713 C2714 1.374 . S
C2714 H2688 0.962 . S
C2714 C2710 1.385 . S
C2714 C2713 1.374 . S
C2715 C2712 1.499 . S
C2715 C2716 1.373 . S
C2715 C2717 1.389 . S
C2716 H2689 0.950 . S
C2716 C2702 1.377 . S
C2716 C2715 1.373 . S
C2717 C2701 1.377 . S
C2717 C2715 1.389 . S
C2717 C2718 1.524 . S
C2718 C2717 1.524 . S
C2718 C2719 1.397 . S
C2718 C2723 1.363 . S
C2719 H2690 0.950 . S
C2719 C2718 1.397 . S
C2719 C2720 1.334 . S
C2720 H2691 0.950 . S
C2720 C2719 1.334 . S
C2720 C2721 1.287 . S
C2721 C2720 1.287 . S
C2721 C2722 1.524 . S
C2721 H2724 0.999 . S
C2722 H2692 0.950 . S
C2722 C2721 1.524 . S
C2722 C2723 1.415 . S
C2723 H2693 0.950 . S
C2723 C2718 1.363 . S
C2723 C2722 1.415 . S
H2724 C2721 0.999 . S
H2725 C2706 0.913 . S
H2726 C2744 0.951 . S
H2727 C2746 0.951 . S
H2728 C2748 0.950 . S
H2729 C2749 0.950 . S
H2730 C2751 0.950 . S
H2731 C2754 0.950 . S
H2732 C2755 0.950 . S
H2733 C2757 0.950 . S
H2734 C2758 0.950 . S
H2735 C2759 0.951 . S
H2736 C2761 0.951 . S
H2737 C2763 0.950 . S
H2738 C2764 0.950 . S
H2739 C2766 0.950 . S
H2740 C2769 0.950 . S
H2741 C2770 0.950 . S
H2742 C2772 0.950 . S
H2743 C2773 0.950 . S
C2744 H2726 0.951 . S
C2744 C2745 1.366 . S
C2744 C2746 1.388 . S
C2745 C2744 1.366 . S
C2745 C2749 1.385 . S
C2746 H2727 0.951 . S
C2746 C2744 1.388 . S
C2746 C2747 1.366 . S
C2747 C2746 1.366 . S
C2747 C2748 1.414 . S
C2747 C2750 1.499 . S
C2748 H2728 0.950 . S
C2748 C2747 1.414 . S
C2748 C2749 1.374 . S
C2749 H2729 0.950 . S
C2749 C2745 1.385 . S
C2749 C2748 1.374 . S
C2750 C2747 1.499 . S
C2750 C2751 1.373 . S
C2750 C2752 1.389 . S
C2751 H2730 0.950 . S
C2751 C2750 1.373 . S
C2751 C2767 1.377 . S
C2752 C2750 1.389 . S
C2752 C2753 1.524 . S
C2752 C2766 1.377 . S
C2753 C2752 1.524 . S
C2753 C2754 1.397 . S
C2753 C2758 1.363 . S
C2754 H2731 0.950 . S
C2754 C2753 1.397 . S
C2754 C2755 1.334 . S
C2755 H2732 0.950 . S
C2755 C2754 1.334 . S
C2755 C2756 1.287 . S
C2756 C2755 1.287 . S
C2756 C2757 1.524 . S
C2756 H2775 0.913 . S
C2757 H2733 0.950 . S
C2757 C2756 1.524 . S
C2757 C2758 1.415 . S
C2758 H2734 0.950 . S
C2758 C2753 1.363 . S
C2758 C2757 1.415 . S
C2759 H2735 0.951 . S
C2759 C2760 1.366 . S
C2759 C2761 1.388 . S
C2760 C2759 1.366 . S
C2760 C2764 1.385 . S
C2761 H2736 0.951 . S
C2761 C2759 1.388 . S
C2761 C2762 1.366 . S
C2762 C2761 1.366 . S
C2762 C2763 1.414 . S
C2762 C2765 1.499 . S
C2763 H2737 0.950 . S
C2763 C2762 1.414 . S
C2763 C2764 1.374 . S
C2764 H2738 0.950 . S
C2764 C2760 1.385 . S
C2764 C2763 1.374 . S
C2765 C2762 1.499 . S
C2765 C2766 1.373 . S
C2765 C2767 1.389 . S
C2766 H2739 0.950 . S
C2766 C2752 1.377 . S
C2766 C2765 1.373 . S
C2767 C2751 1.377 . S
C2767 C2765 1.389 . S
C2767 C2768 1.524 . S
C2768 C2767 1.524 . S
C2768 C2769 1.397 . S
C2768 C2773 1.363 . S
C2769 H2740 0.950 . S
C2769 C2768 1.397 . S
C2769 C2770 1.334 . S
C2770 H2741 0.950 . S
C2770 C2769 1.334 . S
C2770 C2771 1.287 . S
C2771 C2770 1.287 . S
C2771 C2772 1.524 . S
C2771 H2774 0.999 . S
C2772 H2742 0.950 . S
C2772 C2771 1.524 . S
C2772 C2773 1.415 . S
C2773 H2743 0.950 . S
C2773 C2768 1.363 . S
C2773 C2772 1.415 . S
H2774 C2771 0.999 . S
H2775 C2756 0.913 . S
H2776 C2794 0.951 . S
H2777 C2796 0.951 . S
H2778 C2798 0.950 . S
H2779 C2799 0.950 . S
H2780 C2801 0.950 . S
H2781 C2804 0.950 . S
H2782 C2805 0.950 . S
H2783 C2807 0.950 . S
H2784 C2808 0.950 . S
H2785 C2809 0.951 . S
H2786 C2811 0.951 . S
H2787 C2813 0.950 . S
H2788 C2814 0.950 . S
H2789 C2816 0.950 . S
H2790 C2819 0.950 . S
H2791 C2820 0.950 . S
H2792 C2822 0.950 . S
H2793 C2823 0.950 . S
C2794 H2776 0.951 . S
C2794 C2795 1.366 1_565 S
C2794 C2796 1.388 . S
C2795 C2794 1.366 1_545 S
C2795 C2799 1.385 . S
C2796 H2777 0.951 . S
C2796 C2794 1.388 . S
C2796 C2797 1.366 1_565 S
C2797 C2796 1.366 1_545 S
C2797 C2798 1.414 . S
C2797 C2800 1.499 . S
C2798 H2778 0.950 . S
C2798 C2797 1.414 . S
C2798 C2799 1.374 . S
C2799 H2779 0.950 . S
C2799 C2795 1.385 . S
C2799 C2798 1.374 . S
C2800 C2797 1.499 . S
C2800 C2801 1.373 . S
C2800 C2802 1.389 1_545 S
C2801 H2780 0.950 . S
C2801 C2800 1.373 . S
C2801 C2817 1.377 . S
C2802 C2800 1.389 1_565 S
C2802 C2803 1.524 . S
C2802 C2816 1.377 . S
C2803 C2802 1.524 . S
C2803 C2804 1.397 . S
C2803 C2808 1.363 . S
C2804 H2781 0.950 . S
C2804 C2803 1.397 . S
C2804 C2805 1.334 . S
C2805 H2782 0.950 . S
C2805 C2804 1.334 . S
C2805 C2806 1.287 . S
C2806 C2805 1.287 . S
C2806 C2807 1.524 . S
C2806 H2825 0.913 . S
C2807 H2783 0.950 . S
C2807 C2806 1.524 . S
C2807 C2808 1.415 . S
C2808 H2784 0.950 . S
C2808 C2803 1.363 . S
C2808 C2807 1.415 . S
C2809 H2785 0.951 . S
C2809 C2810 1.366 . S
C2809 C2811 1.388 . S
C2810 C2809 1.366 . S
C2810 C2814 1.385 . S
C2811 H2786 0.951 . S
C2811 C2809 1.388 . S
C2811 C2812 1.366 . S
C2812 C2811 1.366 . S
C2812 C2813 1.414 . S
C2812 C2815 1.499 . S
C2813 H2787 0.950 . S
C2813 C2812 1.414 . S
C2813 C2814 1.374 . S
C2814 H2788 0.950 . S
C2814 C2810 1.385 . S
C2814 C2813 1.374 . S
C2815 C2812 1.499 . S
C2815 C2816 1.373 1_545 S
C2815 C2817 1.389 . S
C2816 H2789 0.950 . S
C2816 C2802 1.377 . S
C2816 C2815 1.373 1_565 S
C2817 C2801 1.377 . S
C2817 C2815 1.389 . S
C2817 C2818 1.524 . S
C2818 C2817 1.524 . S
C2818 C2819 1.397 . S
C2818 C2823 1.363 . S
C2819 H2790 0.950 . S
C2819 C2818 1.397 . S
C2819 C2820 1.334 . S
C2820 H2791 0.950 . S
C2820 C2819 1.334 . S
C2820 C2821 1.287 . S
C2821 C2820 1.287 . S
C2821 C2822 1.524 . S
C2821 H2824 0.999 . S
C2822 H2792 0.950 . S
C2822 C2821 1.524 . S
C2822 C2823 1.415 . S
C2823 H2793 0.950 . S
C2823 C2818 1.363 . S
C2823 C2822 1.415 . S
H2824 C2821 0.999 . S
H2825 C2806 0.913 . S
H2826 C2844 0.951 . S
H2827 C2846 0.951 . S
H2828 C2848 0.950 . S
H2829 C2849 0.950 . S
H2830 C2851 0.950 . S
H2831 C2854 0.950 . S
H2832 C2855 0.950 . S
H2833 C2857 0.950 . S
H2834 C2858 0.950 . S
H2835 C2859 0.951 . S
H2836 C2861 0.951 . S
H2837 C2863 0.950 . S
H2838 C2864 0.950 . S
H2839 C2866 0.950 . S
H2840 C2869 0.950 . S
H2841 C2870 0.950 . S
H2842 C2872 0.950 . S
H2843 C2873 0.950 . S
C2844 H2826 0.951 . S
C2844 C2845 1.366 . S
C2844 C2846 1.388 . S
C2845 C2844 1.366 . S
C2845 C2849 1.385 . S
C2846 H2827 0.951 . S
C2846 C2844 1.388 . S
C2846 C2847 1.366 . S
C2847 C2846 1.366 . S
C2847 C2848 1.414 . S
C2847 C2850 1.499 . S
C2848 H2828 0.950 . S
C2848 C2847 1.414 . S
C2848 C2849 1.374 . S
C2849 H2829 0.950 . S
C2849 C2845 1.385 . S
C2849 C2848 1.374 . S
C2850 C2847 1.499 . S
C2850 C2851 1.373 . S
C2850 C2852 1.389 . S
C2851 H2830 0.950 . S
C2851 C2850 1.373 . S
C2851 C2867 1.377 . S
C2852 C2850 1.389 . S
C2852 C2853 1.524 . S
C2852 C2866 1.377 . S
C2853 C2852 1.524 . S
C2853 C2854 1.397 . S
C2853 C2858 1.363 . S
C2854 H2831 0.950 . S
C2854 C2853 1.397 . S
C2854 C2855 1.334 . S
C2855 H2832 0.950 . S
C2855 C2854 1.334 . S
C2855 C2856 1.287 . S
C2856 C2855 1.287 . S
C2856 C2857 1.524 . S
C2856 H2875 0.913 . S
C2857 H2833 0.950 . S
C2857 C2856 1.524 . S
C2857 C2858 1.415 . S
C2858 H2834 0.950 . S
C2858 C2853 1.363 . S
C2858 C2857 1.415 . S
C2859 H2835 0.951 . S
C2859 C2860 1.366 . S
C2859 C2861 1.388 . S
C2860 C2859 1.366 . S
C2860 C2864 1.385 . S
C2861 H2836 0.951 . S
C2861 C2859 1.388 . S
C2861 C2862 1.366 . S
C2862 C2861 1.366 . S
C2862 C2863 1.414 . S
C2862 C2865 1.499 . S
C2863 H2837 0.950 . S
C2863 C2862 1.414 . S
C2863 C2864 1.374 . S
C2864 H2838 0.950 . S
C2864 C2860 1.385 . S
C2864 C2863 1.374 . S
C2865 C2862 1.499 . S
C2865 C2866 1.373 . S
C2865 C2867 1.389 . S
C2866 H2839 0.950 . S
C2866 C2852 1.377 . S
C2866 C2865 1.373 . S
C2867 C2851 1.377 . S
C2867 C2865 1.389 . S
C2867 C2868 1.524 . S
C2868 C2867 1.524 . S
C2868 C2869 1.397 . S
C2868 C2873 1.363 . S
C2869 H2840 0.950 . S
C2869 C2868 1.397 . S
C2869 C2870 1.334 . S
C2870 H2841 0.950 . S
C2870 C2869 1.334 . S
C2870 C2871 1.287 . S
C2871 C2870 1.287 . S
C2871 C2872 1.524 . S
C2871 H2874 0.999 . S
C2872 H2842 0.950 . S
C2872 C2871 1.524 . S
C2872 C2873 1.415 . S
C2873 H2843 0.950 . S
C2873 C2868 1.363 . S
C2873 C2872 1.415 . S
H2874 C2871 0.999 . S
H2875 C2856 0.913 . S
H2876 C2894 0.951 . S
H2877 C2896 0.951 . S
H2878 C2898 0.950 . S
H2879 C2899 0.950 . S
H2880 C2901 0.950 . S
H2881 C2904 0.950 . S
H2882 C2905 0.950 . S
H2883 C2907 0.950 . S
H2884 C2908 0.950 . S
H2885 C2909 0.951 . S
H2886 C2911 0.951 . S
H2887 C2913 0.950 . S
H2888 C2914 0.950 . S
H2889 C2916 0.950 . S
H2890 C2919 0.950 . S
H2891 C2920 0.950 . S
H2892 C2922 0.950 . S
H2893 C2923 0.950 . S
C2894 H2876 0.951 . S
C2894 C2895 1.366 . S
C2894 C2896 1.388 . S
C2895 C2894 1.366 . S
C2895 C2899 1.385 1_545 S
C2896 H2877 0.951 . S
C2896 C2894 1.388 . S
C2896 C2897 1.366 . S
C2897 C2896 1.366 . S
C2897 C2898 1.414 1_545 S
C2897 C2900 1.499 . S
C2898 H2878 0.950 . S
C2898 C2897 1.414 1_565 S
C2898 C2899 1.374 . S
C2899 H2879 0.950 . S
C2899 C2895 1.385 1_565 S
C2899 C2898 1.374 . S
C2900 C2897 1.499 . S
C2900 C2901 1.373 1_545 S
C2900 C2902 1.389 . S
C2901 H2880 0.950 . S
C2901 C2900 1.373 1_565 S
C2901 C2917 1.377 . S
C2902 C2900 1.389 . S
C2902 C2903 1.524 . S
C2902 C2916 1.377 . S
C2903 C2902 1.524 . S
C2903 C2904 1.397 . S
C2903 C2908 1.363 . S
C2904 H2881 0.950 . S
C2904 C2903 1.397 . S
C2904 C2905 1.334 . S
C2905 H2882 0.950 . S
C2905 C2904 1.334 . S
C2905 C2906 1.287 . S
C2906 C2905 1.287 . S
C2906 C2907 1.524 . S
C2906 H2925 0.913 . S
C2907 H2883 0.950 . S
C2907 C2906 1.524 . S
C2907 C2908 1.415 . S
C2908 H2884 0.950 . S
C2908 C2903 1.363 . S
C2908 C2907 1.415 . S
C2909 H2885 0.951 . S
C2909 C2910 1.366 1_565 S
C2909 C2911 1.388 . S
C2910 C2909 1.366 1_545 S
C2910 C2914 1.385 . S
C2911 H2886 0.951 . S
C2911 C2909 1.388 . S
C2911 C2912 1.366 1_565 S
C2912 C2911 1.366 1_545 S
C2912 C2913 1.414 . S
C2912 C2915 1.499 . S
C2913 H2887 0.950 . S
C2913 C2912 1.414 . S
C2913 C2914 1.374 . S
C2914 H2888 0.950 . S
C2914 C2910 1.385 . S
C2914 C2913 1.374 . S
C2915 C2912 1.499 . S
C2915 C2916 1.373 . S
C2915 C2917 1.389 1_545 S
C2916 H2889 0.950 . S
C2916 C2902 1.377 . S
C2916 C2915 1.373 . S
C2917 C2901 1.377 . S
C2917 C2915 1.389 1_565 S
C2917 C2918 1.524 . S
C2918 C2917 1.524 . S
C2918 C2919 1.397 . S
C2918 C2923 1.363 . S
C2919 H2890 0.950 . S
C2919 C2918 1.397 . S
C2919 C2920 1.334 . S
C2920 H2891 0.950 . S
C2920 C2919 1.334 . S
C2920 C2921 1.287 . S
C2921 C2920 1.287 . S
C2921 C2922 1.524 . S
C2921 H2924 0.999 . S
C2922 H2892 0.950 . S
C2922 C2921 1.524 . S
C2922 C2923 1.415 . S
C2923 H2893 0.950 . S
C2923 C2918 1.363 . S
C2923 C2922 1.415 . S
H2924 C2921 0.999 . S
H2925 C2906 0.913 . S
H2926 C2944 0.951 . S
H2927 C2946 0.951 . S
H2928 C2948 0.950 . S
H2929 C2949 0.950 . S
H2930 C2951 0.950 . S
H2931 C2954 0.950 . S
H2932 C2955 0.950 . S
H2933 C2957 0.950 . S
H2934 C2958 0.950 . S
H2935 C2959 0.951 . S
H2936 C2961 0.951 . S
H2937 C2963 0.950 . S
H2938 C2964 0.950 . S
H2939 C2966 0.950 . S
H2940 C2969 0.950 . S
H2941 C2970 0.950 . S
H2942 C2972 0.950 . S
H2943 C2973 0.950 . S
C2944 H2926 0.951 . S
C2944 C2945 1.366 . S
C2944 C2946 1.388 . S
C2945 C2944 1.366 . S
C2945 C2949 1.385 . S
C2946 H2927 0.951 . S
C2946 C2944 1.388 . S
C2946 C2947 1.366 . S
C2947 C2946 1.366 . S
C2947 C2948 1.414 . S
C2947 C2950 1.499 . S
C2948 H2928 0.950 . S
C2948 C2947 1.414 . S
C2948 C2949 1.374 . S
C2949 H2929 0.950 . S
C2949 C2945 1.385 . S
C2949 C2948 1.374 . S
C2950 C2947 1.499 . S
C2950 C2951 1.373 . S
C2950 C2952 1.389 . S
C2951 H2930 0.950 . S
C2951 C2950 1.373 . S
C2951 C2967 1.377 . S
C2952 C2950 1.389 . S
C2952 C2953 1.524 . S
C2952 C2966 1.377 . S
C2953 C2952 1.524 . S
C2953 C2954 1.397 . S
C2953 C2958 1.363 . S
C2954 H2931 0.950 . S
C2954 C2953 1.397 . S
C2954 C2955 1.334 . S
C2955 H2932 0.950 . S
C2955 C2954 1.334 . S
C2955 C2956 1.287 . S
C2956 C2955 1.287 . S
C2956 C2957 1.524 . S
C2956 H2975 0.913 . S
C2957 H2933 0.950 . S
C2957 C2956 1.524 . S
C2957 C2958 1.415 . S
C2958 H2934 0.950 . S
C2958 C2953 1.363 . S
C2958 C2957 1.415 . S
C2959 H2935 0.951 . S
C2959 C2960 1.366 . S
C2959 C2961 1.388 . S
C2960 C2959 1.366 . S
C2960 C2964 1.385 . S
C2961 H2936 0.951 . S
C2961 C2959 1.388 . S
C2961 C2962 1.366 . S
C2962 C2961 1.366 . S
C2962 C2963 1.414 . S
C2962 C2965 1.499 . S
C2963 H2937 0.950 . S
C2963 C2962 1.414 . S
C2963 C2964 1.374 . S
C2964 H2938 0.950 . S
C2964 C2960 1.385 . S
C2964 C2963 1.374 . S
C2965 C2962 1.499 . S
C2965 C2966 1.373 . S
C2965 C2967 1.389 . S
C2966 H2939 0.950 . S
C2966 C2952 1.377 . S
C2966 C2965 1.373 . S
C2967 C2951 1.377 . S
C2967 C2965 1.389 . S
C2967 C2968 1.524 . S
C2968 C2967 1.524 . S
C2968 C2969 1.397 . S
C2968 C2973 1.363 . S
C2969 H2940 0.950 . S
C2969 C2968 1.397 . S
C2969 C2970 1.334 . S
C2970 H2941 0.950 . S
C2970 C2969 1.334 . S
C2970 C2971 1.287 . S
C2971 C2970 1.287 . S
C2971 C2972 1.524 . S
C2971 H2974 0.999 . S
C2972 H2942 0.950 . S
C2972 C2971 1.524 . S
C2972 C2973 1.415 . S
C2973 H2943 0.950 . S
C2973 C2968 1.363 . S
C2973 C2972 1.415 . S
H2974 C2971 0.999 . S
H2975 C2956 0.913 . S
H2976 C2994 0.951 . S
H2977 C2996 0.951 . S
H2978 C2998 0.966 . S
H2979 C2999 0.926 1_556 S
H2980 C3001 0.950 . S
H2981 C3004 0.950 . S
H2982 C3005 0.950 . S
H2983 C3007 0.950 . S
H2984 C3008 0.950 . S
H2985 C3009 0.951 . S
H2986 C3011 0.951 . S
H2987 C3013 0.950 . S
H2988 C3014 0.950 . S
H2989 C3016 0.950 . S
H2990 C3019 0.950 . S
H2991 C3020 0.950 . S
H2992 C3022 0.950 . S
H2993 C3023 0.950 . S
C2994 H2976 0.951 . S
C2994 C2995 1.366 . S
C2994 C2996 1.388 . S
C2995 C2994 1.366 . S
C2995 C2999 1.411 . S
C2996 H2977 0.951 . S
C2996 C2994 1.388 . S
C2996 C2997 1.366 . S
C2997 C2996 1.366 . S
C2997 C2998 1.400 1_554 S
C2997 C3000 1.499 . S
C2998 H2978 0.966 . S
C2998 C2997 1.400 1_556 S
C2998 C2999 1.372 1_556 S
C2999 H2979 0.926 1_554 S
C2999 C2995 1.411 . S
C2999 C2998 1.372 1_554 S
C3000 C2997 1.499 . S
C3000 C3001 1.373 1_554 S
C3000 C3002 1.389 . S
C3001 H2980 0.950 . S
C3001 C3000 1.373 1_556 S
C3001 C3017 1.377 . S
C3002 C3000 1.389 . S
C3002 C3003 1.524 . S
C3002 C3016 1.377 . S
C3003 C3002 1.524 . S
C3003 C3004 1.397 . S
C3003 C3008 1.363 . S
C3004 H2981 0.950 . S
C3004 C3003 1.397 . S
C3004 C3005 1.334 . S
C3005 H2982 0.950 . S
C3005 C3004 1.334 . S
C3005 C3006 1.287 . S
C3006 C3005 1.287 . S
C3006 C3007 1.524 . S
C3006 H3025 0.913 . S
C3007 H2983 0.950 . S
C3007 C3006 1.524 . S
C3007 C3008 1.415 . S
C3008 H2984 0.950 . S
C3008 C3003 1.363 . S
C3008 C3007 1.415 . S
C3009 H2985 0.951 . S
C3009 C3010 1.366 1_556 S
C3009 C3011 1.388 . S
C3010 C3009 1.366 1_554 S
C3010 C3014 1.385 . S
C3011 H2986 0.951 . S
C3011 C3009 1.388 . S
C3011 C3012 1.366 1_556 S
C3012 C3011 1.366 1_554 S
C3012 C3013 1.414 . S
C3012 C3015 1.499 . S
C3013 H2987 0.950 . S
C3013 C3012 1.414 . S
C3013 C3014 1.374 . S
C3014 H2988 0.950 . S
C3014 C3010 1.385 . S
C3014 C3013 1.374 . S
C3015 C3012 1.499 . S
C3015 C3016 1.373 . S
C3015 C3017 1.389 1_554 S
C3016 H2989 0.950 . S
C3016 C3002 1.377 . S
C3016 C3015 1.373 . S
C3017 C3001 1.377 . S
C3017 C3015 1.389 1_556 S
C3017 C3018 1.524 . S
C3018 C3017 1.524 . S
C3018 C3019 1.397 . S
C3018 C3023 1.363 . S
C3019 H2990 0.950 . S
C3019 C3018 1.397 . S
C3019 C3020 1.334 . S
C3020 H2991 0.950 . S
C3020 C3019 1.334 . S
C3020 C3021 1.287 . S
C3021 C3020 1.287 . S
C3021 C3022 1.524 . S
C3021 H3024 0.999 . S
C3022 H2992 0.950 . S
C3022 C3021 1.524 . S
C3022 C3023 1.415 . S
C3023 H2993 0.950 . S
C3023 C3018 1.363 . S
C3023 C3022 1.415 . S
H3024 C3021 0.999 . S
H3025 C3006 0.913 . S
H3026 C3044 0.951 . S
H3027 C3046 0.951 . S
H3028 C3048 0.950 . S
H3029 C3049 0.950 . S
H3030 C3051 0.950 1_556 S
H3031 C3054 0.950 . S
H3032 C3055 0.950 . S
H3033 C3057 0.950 . S
H3034 C3058 0.950 . S
H3035 C3059 0.951 . S
H3036 C3061 0.951 . S
H3037 C3063 0.950 . S
H3038 C3064 0.950 . S
H3039 C3066 0.950 . S
H3040 C3069 0.950 . S
H3041 C3070 0.950 . S
H3042 C3072 0.950 . S
H3043 C3073 0.950 . S
C3044 H3026 0.951 . S
C3044 C3045 1.366 . S
C3044 C3046 1.388 . S
C3045 C3044 1.366 . S
C3045 C3049 1.385 . S
C3046 H3027 0.951 . S
C3046 C3044 1.388 . S
C3046 C3047 1.366 . S
C3047 C3046 1.366 . S
C3047 C3048 1.414 . S
C3047 C3050 1.499 . S
C3048 H3028 0.950 . S
C3048 C3047 1.414 . S
C3048 C3049 1.374 . S
C3049 H3029 0.950 . S
C3049 C3045 1.385 . S
C3049 C3048 1.374 . S
C3050 C3047 1.499 . S
C3050 C3051 1.373 . S
C3050 C3052 1.389 . S
C3051 H3030 0.950 1_554 S
C3051 C3050 1.373 . S
C3051 C3067 1.377 . S
C3052 C3050 1.389 . S
C3052 C3053 1.524 . S
C3052 C3066 1.377 . S
C3053 C3052 1.524 . S
C3053 C3054 1.397 . S
C3053 C3058 1.363 . S
C3054 H3031 0.950 . S
C3054 C3053 1.397 . S
C3054 C3055 1.334 . S
C3055 H3032 0.950 . S
C3055 C3054 1.334 . S
C3055 C3056 1.287 . S
C3056 C3055 1.287 . S
C3056 C3057 1.524 . S
C3056 H3075 0.913 . S
C3057 H3033 0.950 . S
C3057 C3056 1.524 . S
C3057 C3058 1.415 . S
C3058 H3034 0.950 . S
C3058 C3053 1.363 . S
C3058 C3057 1.415 . S
C3059 H3035 0.951 . S
C3059 C3060 1.366 . S
C3059 C3061 1.388 . S
C3060 C3059 1.366 . S
C3060 C3064 1.385 . S
C3061 H3036 0.951 . S
C3061 C3059 1.388 . S
C3061 C3062 1.366 . S
C3062 C3061 1.366 . S
C3062 C3063 1.414 . S
C3062 C3065 1.499 . S
C3063 H3037 0.950 . S
C3063 C3062 1.414 . S
C3063 C3064 1.374 . S
C3064 H3038 0.950 . S
C3064 C3060 1.385 . S
C3064 C3063 1.374 . S
C3065 C3062 1.499 . S
C3065 C3066 1.373 . S
C3065 C3067 1.389 . S
C3066 H3039 0.950 . S
C3066 C3052 1.377 . S
C3066 C3065 1.373 . S
C3067 C3051 1.377 . S
C3067 C3065 1.389 . S
C3067 C3068 1.524 1_554 S
C3068 C3067 1.524 1_556 S
C3068 C3069 1.397 . S
C3068 C3073 1.363 . S
C3069 H3040 0.950 . S
C3069 C3068 1.397 . S
C3069 C3070 1.334 . S
C3070 H3041 0.950 . S
C3070 C3069 1.334 . S
C3070 C3071 1.287 . S
C3071 C3070 1.287 . S
C3071 C3072 1.524 . S
C3071 H3074 0.999 . S
C3072 H3042 0.950 . S
C3072 C3071 1.524 . S
C3072 C3073 1.415 . S
C3073 H3043 0.950 . S
C3073 C3068 1.363 . S
C3073 C3072 1.415 . S
H3074 C3071 0.999 . S
H3075 C3056 0.913 . S
H3076 C3094 0.951 . S
H3077 C3096 0.951 . S
H3078 C3098 0.950 . S
H3079 C3099 0.950 . S
H3080 C3101 0.950 . S
H3081 C3104 0.950 . S
H3082 C3105 0.950 . S
H3083 C3107 0.950 . S
H3084 C3108 0.950 . S
H3085 C3109 0.951 . S
H3086 C3111 0.951 . S
H3087 C3113 0.950 . S
H3088 C3114 0.950 . S
H3089 C3116 0.950 . S
H3090 C3119 0.950 . S
H3091 C3120 0.950 . S
H3092 C3122 0.950 . S
H3093 C3123 0.950 . S
C3094 H3076 0.951 . S
C3094 C3095 1.366 . S
C3094 C3096 1.388 . S
C3095 C3094 1.366 . S
C3095 C3099 1.385 . S
C3096 H3077 0.951 . S
C3096 C3094 1.388 . S
C3096 C3097 1.366 . S
C3097 C3096 1.366 . S
C3097 C3098 1.414 . S
C3097 C3100 1.499 . S
C3098 H3078 0.950 . S
C3098 C3097 1.414 . S
C3098 C3099 1.374 . S
C3099 H3079 0.950 . S
C3099 C3095 1.385 . S
C3099 C3098 1.374 . S
C3100 C3097 1.499 . S
C3100 C3101 1.373 . S
C3100 C3102 1.389 . S
C3101 H3080 0.950 . S
C3101 C3100 1.373 . S
C3101 C3117 1.377 . S
C3102 C3100 1.389 . S
C3102 C3103 1.524 . S
C3102 C3116 1.377 . S
C3103 C3102 1.524 . S
C3103 C3104 1.397 . S
C3103 C3108 1.363 . S
C3104 H3081 0.950 . S
C3104 C3103 1.397 . S
C3104 C3105 1.334 . S
C3105 H3082 0.950 . S
C3105 C3104 1.334 . S
C3105 C3106 1.287 . S
C3106 C3105 1.287 . S
C3106 C3107 1.524 . S
C3106 H3125 0.913 . S
C3107 H3083 0.950 . S
C3107 C3106 1.524 . S
C3107 C3108 1.415 . S
C3108 H3084 0.950 . S
C3108 C3103 1.363 . S
C3108 C3107 1.415 . S
C3109 H3085 0.951 . S
C3109 C3110 1.366 . S
C3109 C3111 1.388 . S
C3110 C3109 1.366 . S
C3110 C3114 1.385 . S
C3111 H3086 0.951 . S
C3111 C3109 1.388 . S
C3111 C3112 1.366 . S
C3112 C3111 1.366 . S
C3112 C3113 1.414 . S
C3112 C3115 1.499 . S
C3113 H3087 0.950 . S
C3113 C3112 1.414 . S
C3113 C3114 1.374 . S
C3114 H3088 0.950 . S
C3114 C3110 1.385 . S
C3114 C3113 1.374 . S
C3115 C3112 1.499 . S
C3115 C3116 1.373 . S
C3115 C3117 1.389 . S
C3116 H3089 0.950 . S
C3116 C3102 1.377 . S
C3116 C3115 1.373 . S
C3117 C3101 1.377 . S
C3117 C3115 1.389 . S
C3117 C3118 1.524 . S
C3118 C3117 1.524 . S
C3118 C3119 1.397 . S
C3118 C3123 1.363 . S
C3119 H3090 0.950 . S
C3119 C3118 1.397 . S
C3119 C3120 1.334 . S
C3120 H3091 0.950 . S
C3120 C3119 1.334 . S
C3120 C3121 1.287 . S
C3121 C3120 1.287 . S
C3121 C3122 1.524 . S
C3121 H3124 0.999 . S
C3122 H3092 0.950 . S
C3122 C3121 1.524 . S
C3122 C3123 1.415 . S
C3123 H3093 0.950 . S
C3123 C3118 1.363 . S
C3123 C3122 1.415 . S
H3124 C3121 0.999 . S
H3125 C3106 0.913 . S
H3126 C3144 0.951 . S
H3127 C3146 0.951 . S
H3128 C3148 0.950 . S
H3129 C3149 0.950 . S
H3130 C3151 0.950 . S
H3131 C3154 0.950 . S
H3132 C3155 0.950 . S
H3133 C3157 0.950 . S
H3134 C3158 0.950 . S
H3135 C3159 0.951 . S
H3136 C3161 0.951 . S
H3137 C3163 0.950 . S
H3138 C3164 0.950 . S
H3139 C3166 0.950 . S
H3140 C3169 0.950 . S
H3141 C3170 0.950 . S
H3142 C3172 0.950 . S
H3143 C3173 0.950 . S
C3144 H3126 0.951 . S
C3144 C3145 1.366 . S
C3144 C3146 1.388 . S
C3145 C3144 1.366 . S
C3145 C3149 1.385 . S
C3146 H3127 0.951 . S
C3146 C3144 1.388 . S
C3146 C3147 1.366 . S
C3147 C3146 1.366 . S
C3147 C3148 1.414 . S
C3147 C3150 1.499 . S
C3148 H3128 0.950 . S
C3148 C3147 1.414 . S
C3148 C3149 1.374 . S
C3149 H3129 0.950 . S
C3149 C3145 1.385 . S
C3149 C3148 1.374 . S
C3150 C3147 1.499 . S
C3150 C3151 1.373 . S
C3150 C3152 1.389 . S
C3151 H3130 0.950 . S
C3151 C3150 1.373 . S
C3151 C3167 1.377 . S
C3152 C3150 1.389 . S
C3152 C3153 1.524 . S
C3152 C3166 1.377 . S
C3153 C3152 1.524 . S
C3153 C3154 1.397 . S
C3153 C3158 1.363 . S
C3154 H3131 0.950 . S
C3154 C3153 1.397 . S
C3154 C3155 1.334 . S
C3155 H3132 0.950 . S
C3155 C3154 1.334 . S
C3155 C3156 1.287 . S
C3156 C3155 1.287 . S
C3156 C3157 1.524 . S
C3156 H3175 0.913 . S
C3157 H3133 0.950 . S
C3157 C3156 1.524 . S
C3157 C3158 1.415 . S
C3158 H3134 0.950 . S
C3158 C3153 1.363 . S
C3158 C3157 1.415 . S
C3159 H3135 0.951 . S
C3159 C3160 1.366 . S
C3159 C3161 1.388 . S
C3160 C3159 1.366 . S
C3160 C3164 1.385 . S
C3161 H3136 0.951 . S
C3161 C3159 1.388 . S
C3161 C3162 1.366 . S
C3162 C3161 1.366 . S
C3162 C3163 1.414 . S
C3162 C3165 1.499 . S
C3163 H3137 0.950 . S
C3163 C3162 1.414 . S
C3163 C3164 1.374 . S
C3164 H3138 0.950 . S
C3164 C3160 1.385 . S
C3164 C3163 1.374 . S
C3165 C3162 1.499 . S
C3165 C3166 1.373 . S
C3165 C3167 1.389 . S
C3166 H3139 0.950 . S
C3166 C3152 1.377 . S
C3166 C3165 1.373 . S
C3167 C3151 1.377 . S
C3167 C3165 1.389 . S
C3167 C3168 1.524 . S
C3168 C3167 1.524 . S
C3168 C3169 1.397 . S
C3168 C3173 1.363 . S
C3169 H3140 0.950 . S
C3169 C3168 1.397 . S
C3169 C3170 1.334 . S
C3170 H3141 0.950 . S
C3170 C3169 1.334 . S
C3170 C3171 1.287 . S
C3171 C3170 1.287 . S
C3171 C3172 1.524 . S
C3171 H3174 0.999 . S
C3172 H3142 0.950 . S
C3172 C3171 1.524 . S
C3172 C3173 1.415 . S
C3173 H3143 0.950 . S
C3173 C3168 1.363 . S
C3173 C3172 1.415 . S
H3174 C3171 0.999 . S
H3175 C3156 0.913 . S
H3176 C3194 0.951 . S
H3177 C3196 0.951 . S
H3178 C3198 0.950 . S
H3179 C3199 0.950 . S
H3180 C3201 0.950 . S
H3181 C3204 0.950 . S
H3182 C3205 0.950 . S
H3183 C3207 0.950 . S
H3184 C3208 0.950 . S
H3185 C3209 0.951 . S
H3186 C3211 0.951 . S
H3187 C3213 0.950 . S
H3188 C3214 0.950 . S
H3189 C3216 0.950 . S
H3190 C3219 0.950 . S
H3191 C3220 0.950 . S
H3192 C3222 0.950 . S
H3193 C3223 0.950 . S
C3194 H3176 0.951 . S
C3194 C3195 1.360 1_565 S
C3194 C3196 1.388 . S
C3195 C3194 1.360 1_545 S
C3195 C3199 1.384 . S
C3196 H3177 0.951 . S
C3196 C3194 1.388 . S
C3196 C3197 1.366 . S
C3197 C3196 1.366 . S
C3197 C3198 1.414 . S
C3197 C3200 1.499 . S
C3198 H3178 0.950 . S
C3198 C3197 1.414 . S
C3198 C3199 1.374 1_565 S
C3199 H3179 0.950 . S
C3199 C3195 1.384 . S
C3199 C3198 1.374 1_545 S
C3200 C3197 1.499 . S
C3200 C3201 1.373 . S
C3200 C3202 1.389 . S
C3201 H3180 0.950 . S
C3201 C3200 1.373 . S
C3201 C3217 1.377 . S
C3202 C3200 1.389 . S
C3202 C3203 1.524 . S
C3202 C3216 1.377 . S
C3203 C3202 1.524 . S
C3203 C3204 1.397 . S
C3203 C3208 1.363 . S
C3204 H3181 0.950 . S
C3204 C3203 1.397 . S
C3204 C3205 1.334 . S
C3205 H3182 0.950 . S
C3205 C3204 1.334 . S
C3205 C3206 1.287 . S
C3206 C3205 1.287 . S
C3206 C3207 1.524 . S
C3206 H3225 0.913 . S
C3207 H3183 0.950 . S
C3207 C3206 1.524 . S
C3207 C3208 1.415 . S
C3208 H3184 0.950 . S
C3208 C3203 1.363 . S
C3208 C3207 1.415 . S
C3209 H3185 0.951 . S
C3209 C3210 1.366 . S
C3209 C3211 1.388 . S
C3210 C3209 1.366 . S
C3210 C3214 1.385 . S
C3211 H3186 0.951 . S
C3211 C3209 1.388 . S
C3211 C3212 1.366 . S
C3212 C3211 1.366 . S
C3212 C3213 1.414 . S
C3212 C3215 1.499 . S
C3213 H3187 0.950 . S
C3213 C3212 1.414 . S
C3213 C3214 1.374 . S
C3214 H3188 0.950 . S
C3214 C3210 1.385 . S
C3214 C3213 1.374 . S
C3215 C3212 1.499 . S
C3215 C3216 1.373 . S
C3215 C3217 1.389 . S
C3216 H3189 0.950 . S
C3216 C3202 1.377 . S
C3216 C3215 1.373 . S
C3217 C3201 1.377 . S
C3217 C3215 1.389 . S
C3217 C3218 1.524 . S
C3218 C3217 1.524 . S
C3218 C3219 1.397 . S
C3218 C3223 1.363 . S
C3219 H3190 0.950 . S
C3219 C3218 1.397 . S
C3219 C3220 1.334 . S
C3220 H3191 0.950 . S
C3220 C3219 1.334 . S
C3220 C3221 1.287 . S
C3221 C3220 1.287 . S
C3221 C3222 1.524 . S
C3221 H3224 0.999 . S
C3222 H3192 0.950 . S
C3222 C3221 1.524 . S
C3222 C3223 1.415 . S
C3223 H3193 0.950 . S
C3223 C3218 1.363 . S
C3223 C3222 1.415 . S
H3224 C3221 0.999 . S
H3225 C3206 0.913 . S
H3226 C3244 0.951 . S
H3227 C3246 0.951 . S
H3228 C3248 0.950 . S
H3229 C3249 0.950 . S
H3230 C3251 0.950 . S
H3231 C3254 0.950 . S
H3232 C3255 0.950 . S
H3233 C3257 0.950 . S
H3234 C3258 0.950 . S
H3235 C3259 0.951 . S
H3236 C3261 0.951 . S
H3237 C3263 0.950 . S
H3238 C3264 0.950 . S
H3239 C3266 0.950 . S
H3240 C3269 0.950 . S
H3241 C3270 0.950 . S
H3242 C3272 0.950 . S
H3243 C3273 0.950 . S
C3244 H3226 0.951 . S
C3244 C3245 1.366 . S
C3244 C3246 1.388 . S
C3245 C3244 1.366 . S
C3245 C3249 1.385 . S
C3246 H3227 0.951 . S
C3246 C3244 1.388 . S
C3246 C3247 1.366 . S
C3247 C3246 1.366 . S
C3247 C3248 1.414 . S
C3247 C3250 1.499 . S
C3248 H3228 0.950 . S
C3248 C3247 1.414 . S
C3248 C3249 1.374 . S
C3249 H3229 0.950 . S
C3249 C3245 1.385 . S
C3249 C3248 1.374 . S
C3250 C3247 1.499 . S
C3250 C3251 1.373 . S
C3250 C3252 1.389 . S
C3251 H3230 0.950 . S
C3251 C3250 1.373 . S
C3251 C3267 1.377 . S
C3252 C3250 1.389 . S
C3252 C3253 1.524 . S
C3252 C3266 1.377 . S
C3253 C3252 1.524 . S
C3253 C3254 1.397 . S
C3253 C3258 1.363 . S
C3254 H3231 0.950 . S
C3254 C3253 1.397 . S
C3254 C3255 1.334 . S
C3255 H3232 0.950 . S
C3255 C3254 1.334 . S
C3255 C3256 1.287 . S
C3256 C3255 1.287 . S
C3256 C3257 1.524 . S
C3256 H3275 0.913 . S
C3257 H3233 0.950 . S
C3257 C3256 1.524 . S
C3257 C3258 1.415 . S
C3258 H3234 0.950 . S
C3258 C3253 1.363 . S
C3258 C3257 1.415 . S
C3259 H3235 0.951 . S
C3259 C3260 1.366 . S
C3259 C3261 1.388 . S
C3260 C3259 1.366 . S
C3260 C3264 1.385 . S
C3261 H3236 0.951 . S
C3261 C3259 1.388 . S
C3261 C3262 1.366 . S
C3262 C3261 1.366 . S
C3262 C3263 1.414 . S
C3262 C3265 1.499 . S
C3263 H3237 0.950 . S
C3263 C3262 1.414 . S
C3263 C3264 1.374 . S
C3264 H3238 0.950 . S
C3264 C3260 1.385 . S
C3264 C3263 1.374 . S
C3265 C3262 1.499 . S
C3265 C3266 1.373 . S
C3265 C3267 1.389 . S
C3266 H3239 0.950 . S
C3266 C3252 1.377 . S
C3266 C3265 1.373 . S
C3267 C3251 1.377 . S
C3267 C3265 1.389 . S
C3267 C3268 1.524 . S
C3268 C3267 1.524 . S
C3268 C3269 1.397 . S
C3268 C3273 1.363 . S
C3269 H3240 0.950 . S
C3269 C3268 1.397 . S
C3269 C3270 1.334 . S
C3270 H3241 0.950 . S
C3270 C3269 1.334 . S
C3270 C3271 1.287 . S
C3271 C3270 1.287 . S
C3271 C3272 1.524 . S
C3271 H3274 0.999 . S
C3272 H3242 0.950 . S
C3272 C3271 1.524 . S
C3272 C3273 1.415 . S
C3273 H3243 0.950 . S
C3273 C3268 1.363 . S
C3273 C3272 1.415 . S
H3274 C3271 0.999 . S
H3275 C3256 0.913 . S
H3276 C3294 0.951 . S
H3277 C3296 0.951 . S
H3278 C3298 0.950 . S
H3279 C3299 0.950 . S
H3280 C3301 0.950 . S
H3281 C3304 0.950 . S
H3282 C3305 0.950 . S
H3283 C3307 0.950 . S
H3284 C3308 0.950 . S
H3285 C3309 0.951 . S
H3286 C3311 0.951 . S
H3287 C3313 0.950 . S
H3288 C3314 0.950 . S
H3289 C3316 0.950 . S
H3290 C3319 0.950 . S
H3291 C3320 0.950 . S
H3292 C3322 0.950 . S
H3293 C3323 0.950 . S
C3294 H3276 0.951 . S
C3294 C3295 1.366 . S
C3294 C3296 1.388 . S
C3295 C3294 1.366 . S
C3295 C3299 1.385 . S
C3296 H3277 0.951 . S
C3296 C3294 1.388 . S
C3296 C3297 1.366 . S
C3297 C3296 1.366 . S
C3297 C3298 1.414 . S
C3297 C3300 1.499 . S
C3298 H3278 0.950 . S
C3298 C3297 1.414 . S
C3298 C3299 1.374 . S
C3299 H3279 0.950 . S
C3299 C3295 1.385 . S
C3299 C3298 1.374 . S
C3300 C3297 1.499 . S
C3300 C3301 1.373 . S
C3300 C3302 1.389 . S
C3301 H3280 0.950 . S
C3301 C3300 1.373 . S
C3301 C3317 1.377 . S
C3302 C3300 1.389 . S
C3302 C3303 1.524 . S
C3302 C3316 1.377 . S
C3303 C3302 1.524 . S
C3303 C3304 1.397 . S
C3303 C3308 1.363 . S
C3304 H3281 0.950 . S
C3304 C3303 1.397 . S
C3304 C3305 1.334 . S
C3305 H3282 0.950 . S
C3305 C3304 1.334 . S
C3305 C3306 1.287 . S
C3306 C3305 1.287 . S
C3306 C3307 1.524 . S
C3306 H3325 0.913 . S
C3307 H3283 0.950 . S
C3307 C3306 1.524 . S
C3307 C3308 1.415 . S
C3308 H3284 0.950 . S
C3308 C3303 1.363 . S
C3308 C3307 1.415 . S
C3309 H3285 0.951 . S
C3309 C3310 1.366 . S
C3309 C3311 1.388 . S
C3310 C3309 1.366 . S
C3310 C3314 1.385 . S
C3311 H3286 0.951 . S
C3311 C3309 1.388 . S
C3311 C3312 1.366 . S
C3312 C3311 1.366 . S
C3312 C3313 1.414 . S
C3312 C3315 1.499 . S
C3313 H3287 0.950 . S
C3313 C3312 1.414 . S
C3313 C3314 1.374 . S
C3314 H3288 0.950 . S
C3314 C3310 1.385 . S
C3314 C3313 1.374 . S
C3315 C3312 1.499 . S
C3315 C3316 1.373 . S
C3315 C3317 1.389 . S
C3316 H3289 0.950 . S
C3316 C3302 1.377 . S
C3316 C3315 1.373 . S
C3317 C3301 1.377 . S
C3317 C3315 1.389 . S
C3317 C3318 1.524 . S
C3318 C3317 1.524 . S
C3318 C3319 1.397 . S
C3318 C3323 1.363 . S
C3319 H3290 0.950 . S
C3319 C3318 1.397 . S
C3319 C3320 1.334 . S
C3320 H3291 0.950 . S
C3320 C3319 1.334 . S
C3320 C3321 1.287 . S
C3321 C3320 1.287 . S
C3321 C3322 1.524 . S
C3321 H3324 0.999 . S
C3322 H3292 0.950 . S
C3322 C3321 1.524 . S
C3322 C3323 1.415 . S
C3323 H3293 0.950 . S
C3323 C3318 1.363 . S
C3323 C3322 1.415 . S
H3324 C3321 0.999 . S
H3325 C3306 0.913 . S
H3326 C3344 0.951 . S
H3327 C3346 0.951 . S
H3328 C3348 0.950 . S
H3329 C3349 0.950 . S
H3330 C3351 0.950 . S
H3331 C3354 0.950 . S
H3332 C3355 0.950 . S
H3333 C3357 0.950 . S
H3334 C3358 0.950 . S
H3335 C3359 0.951 . S
H3336 C3361 0.951 . S
H3337 C3363 0.950 . S
H3338 C3364 0.950 . S
H3339 C3366 0.950 . S
H3340 C3369 0.950 . S
H3341 C3370 0.950 . S
H3342 C3372 0.950 . S
H3343 C3373 0.950 . S
C3344 H3326 0.951 . S
C3344 C3345 1.366 . S
C3344 C3346 1.388 . S
C3345 C3344 1.366 . S
C3345 C3349 1.385 . S
C3346 H3327 0.951 . S
C3346 C3344 1.388 . S
C3346 C3347 1.366 . S
C3347 C3346 1.366 . S
C3347 C3348 1.414 . S
C3347 C3350 1.499 . S
C3348 H3328 0.950 . S
C3348 C3347 1.414 . S
C3348 C3349 1.374 . S
C3349 H3329 0.950 . S
C3349 C3345 1.385 . S
C3349 C3348 1.374 . S
C3350 C3347 1.499 . S
C3350 C3351 1.373 . S
C3350 C3352 1.389 . S
C3351 H3330 0.950 . S
C3351 C3350 1.373 . S
C3351 C3367 1.377 . S
C3352 C3350 1.389 . S
C3352 C3353 1.524 . S
C3352 C3366 1.377 . S
C3353 C3352 1.524 . S
C3353 C3354 1.397 . S
C3353 C3358 1.363 . S
C3354 H3331 0.950 . S
C3354 C3353 1.397 . S
C3354 C3355 1.334 . S
C3355 H3332 0.950 . S
C3355 C3354 1.334 . S
C3355 C3356 1.287 . S
C3356 C3355 1.287 . S
C3356 C3357 1.524 . S
C3356 H3375 0.913 . S
C3357 H3333 0.950 . S
C3357 C3356 1.524 . S
C3357 C3358 1.415 . S
C3358 H3334 0.950 . S
C3358 C3353 1.363 . S
C3358 C3357 1.415 . S
C3359 H3335 0.951 . S
C3359 C3360 1.366 . S
C3359 C3361 1.388 . S
C3360 C3359 1.366 . S
C3360 C3364 1.385 . S
C3361 H3336 0.951 . S
C3361 C3359 1.388 . S
C3361 C3362 1.366 . S
C3362 C3361 1.366 . S
C3362 C3363 1.414 . S
C3362 C3365 1.499 . S
C3363 H3337 0.950 . S
C3363 C3362 1.414 . S
C3363 C3364 1.374 . S
C3364 H3338 0.950 . S
C3364 C3360 1.385 . S
C3364 C3363 1.374 . S
C3365 C3362 1.499 . S
C3365 C3366 1.373 . S
C3365 C3367 1.389 . S
C3366 H3339 0.950 . S
C3366 C3352 1.377 . S
C3366 C3365 1.373 . S
C3367 C3351 1.377 . S
C3367 C3365 1.389 . S
C3367 C3368 1.524 . S
C3368 C3367 1.524 . S
C3368 C3369 1.397 . S
C3368 C3373 1.363 . S
C3369 H3340 0.950 . S
C3369 C3368 1.397 . S
C3369 C3370 1.334 . S
C3370 H3341 0.950 . S
C3370 C3369 1.334 . S
C3370 C3371 1.287 . S
C3371 C3370 1.287 . S
C3371 C3372 1.524 . S
C3371 H3374 0.999 . S
C3372 H3342 0.950 . S
C3372 C3371 1.524 . S
C3372 C3373 1.415 . S
C3373 H3343 0.950 . S
C3373 C3368 1.363 . S
C3373 C3372 1.415 . S
H3374 C3371 0.999 . S
H3375 C3356 0.913 . S
H3376 C3394 0.951 . S
H3377 C3396 0.951 . S
H3378 C3398 0.950 . S
H3379 C3399 0.950 . S
H3380 C3401 0.950 . S
H3381 C3404 0.950 . S
H3382 C3405 0.950 . S
H3383 C3407 0.950 . S
H3384 C3408 0.950 . S
H3385 C3409 0.951 . S
H3386 C3411 0.951 . S
H3387 C3413 0.950 . S
H3388 C3414 0.950 . S
H3389 C3416 0.950 . S
H3390 C3419 0.950 . S
H3391 C3420 0.950 . S
H3392 C3422 0.950 . S
H3393 C3423 0.950 . S
C3394 H3376 0.951 . S
C3394 C3395 1.366 . S
C3394 C3396 1.388 . S
C3395 C3394 1.366 . S
C3395 C3399 1.385 . S
C3396 H3377 0.951 . S
C3396 C3394 1.388 . S
C3396 C3397 1.366 . S
C3397 C3396 1.366 . S
C3397 C3398 1.414 . S
C3397 C3400 1.499 . S
C3398 H3378 0.950 . S
C3398 C3397 1.414 . S
C3398 C3399 1.374 . S
C3399 H3379 0.950 . S
C3399 C3395 1.385 . S
C3399 C3398 1.374 . S
C3400 C3397 1.499 . S
C3400 C3401 1.373 . S
C3400 C3402 1.389 . S
C3401 H3380 0.950 . S
C3401 C3400 1.373 . S
C3401 C3417 1.377 . S
C3402 C3400 1.389 . S
C3402 C3403 1.524 . S
C3402 C3416 1.377 . S
C3403 C3402 1.524 . S
C3403 C3404 1.397 . S
C3403 C3408 1.363 . S
C3404 H3381 0.950 . S
C3404 C3403 1.397 . S
C3404 C3405 1.334 . S
C3405 H3382 0.950 . S
C3405 C3404 1.334 . S
C3405 C3406 1.287 . S
C3406 C3405 1.287 . S
C3406 C3407 1.524 . S
C3406 H3425 0.913 . S
C3407 H3383 0.950 . S
C3407 C3406 1.524 . S
C3407 C3408 1.415 . S
C3408 H3384 0.950 . S
C3408 C3403 1.363 . S
C3408 C3407 1.415 . S
C3409 H3385 0.951 . S
C3409 C3410 1.366 . S
C3409 C3411 1.388 . S
C3410 C3409 1.366 . S
C3410 C3414 1.385 . S
C3411 H3386 0.951 . S
C3411 C3409 1.388 . S
C3411 C3412 1.366 . S
C3412 C3411 1.366 . S
C3412 C3413 1.414 . S
C3412 C3415 1.499 . S
C3413 H3387 0.950 . S
C3413 C3412 1.414 . S
C3413 C3414 1.374 . S
C3414 H3388 0.950 . S
C3414 C3410 1.385 . S
C3414 C3413 1.374 . S
C3415 C3412 1.499 . S
C3415 C3416 1.373 . S
C3415 C3417 1.389 . S
C3416 H3389 0.950 . S
C3416 C3402 1.377 . S
C3416 C3415 1.373 . S
C3417 C3401 1.377 . S
C3417 C3415 1.389 . S
C3417 C3418 1.524 . S
C3418 C3417 1.524 . S
C3418 C3419 1.397 . S
C3418 C3423 1.363 . S
C3419 H3390 0.950 . S
C3419 C3418 1.397 . S
C3419 C3420 1.334 . S
C3420 H3391 0.950 . S
C3420 C3419 1.334 . S
C3420 C3421 1.287 . S
C3421 C3420 1.287 . S
C3421 C3422 1.524 . S
C3421 H3424 0.999 . S
C3422 H3392 0.950 . S
C3422 C3421 1.524 . S
C3422 C3423 1.415 . S
C3423 H3393 0.950 . S
C3423 C3418 1.363 . S
C3423 C3422 1.415 . S
H3424 C3421 0.999 . S
H3425 C3406 0.913 . S
H3426 C3444 0.951 . S
H3427 C3446 0.951 . S
H3428 C3448 0.950 . S
H3429 C3449 0.950 . S
H3430 C3451 0.950 . S
H3431 C3454 0.950 . S
H3432 C3455 0.950 . S
H3433 C3457 0.950 . S
H3434 C3458 0.950 . S
H3435 C3459 0.951 . S
H3436 C3461 0.951 . S
H3437 C3463 0.950 . S
H3438 C3464 0.950 . S
H3439 C3466 0.950 . S
H3440 C3469 0.950 . S
H3441 C3470 0.950 . S
H3442 C3472 0.950 . S
H3443 C3473 0.950 . S
C3444 H3426 0.951 . S
C3444 C3445 1.366 . S
C3444 C3446 1.388 . S
C3445 C3444 1.366 . S
C3445 C3449 1.385 . S
C3446 H3427 0.951 . S
C3446 C3444 1.388 . S
C3446 C3447 1.366 . S
C3447 C3446 1.366 . S
C3447 C3448 1.414 . S
C3447 C3450 1.499 . S
C3448 H3428 0.950 . S
C3448 C3447 1.414 . S
C3448 C3449 1.374 . S
C3449 H3429 0.950 . S
C3449 C3445 1.385 . S
C3449 C3448 1.374 . S
C3450 C3447 1.499 . S
C3450 C3451 1.373 . S
C3450 C3452 1.389 . S
C3451 H3430 0.950 . S
C3451 C3450 1.373 . S
C3451 C3467 1.377 . S
C3452 C3450 1.389 . S
C3452 C3453 1.524 . S
C3452 C3466 1.377 . S
C3453 C3452 1.524 . S
C3453 C3454 1.397 . S
C3453 C3458 1.363 . S
C3454 H3431 0.950 . S
C3454 C3453 1.397 . S
C3454 C3455 1.334 . S
C3455 H3432 0.950 . S
C3455 C3454 1.334 . S
C3455 C3456 1.287 . S
C3456 C3455 1.287 . S
C3456 C3457 1.524 . S
C3456 H3475 0.913 . S
C3457 H3433 0.950 . S
C3457 C3456 1.524 . S
C3457 C3458 1.415 . S
C3458 H3434 0.950 . S
C3458 C3453 1.363 . S
C3458 C3457 1.415 . S
C3459 H3435 0.951 . S
C3459 C3460 1.366 . S
C3459 C3461 1.388 . S
C3460 C3459 1.366 . S
C3460 C3464 1.385 . S
C3461 H3436 0.951 . S
C3461 C3459 1.388 . S
C3461 C3462 1.366 . S
C3462 C3461 1.366 . S
C3462 C3463 1.414 . S
C3462 C3465 1.499 . S
C3463 H3437 0.950 . S
C3463 C3462 1.414 . S
C3463 C3464 1.374 . S
C3464 H3438 0.950 . S
C3464 C3460 1.385 . S
C3464 C3463 1.374 . S
C3465 C3462 1.499 . S
C3465 C3466 1.373 . S
C3465 C3467 1.389 . S
C3466 H3439 0.950 . S
C3466 C3452 1.377 . S
C3466 C3465 1.373 . S
C3467 C3451 1.377 . S
C3467 C3465 1.389 . S
C3467 C3468 1.524 . S
C3468 C3467 1.524 . S
C3468 C3469 1.397 . S
C3468 C3473 1.363 . S
C3469 H3440 0.950 . S
C3469 C3468 1.397 . S
C3469 C3470 1.334 . S
C3470 H3441 0.950 . S
C3470 C3469 1.334 . S
C3470 C3471 1.287 . S
C3471 C3470 1.287 . S
C3471 C3472 1.524 . S
C3471 H3474 0.999 . S
C3472 H3442 0.950 . S
C3472 C3471 1.524 . S
C3472 C3473 1.415 . S
C3473 H3443 0.950 . S
C3473 C3468 1.363 . S
C3473 C3472 1.415 . S
H3474 C3471 0.999 . S
H3475 C3456 0.913 . S
H3476 C3494 0.951 . S
H3477 C3496 0.951 . S
H3478 C3498 0.950 1_655 S
H3479 C3499 0.929 1_655 S
H3480 C3501 0.950 1_655 S
H3481 C3504 0.950 . S
H3482 C3505 0.950 . S
H3483 C3507 0.950 . S
H3484 C3508 0.950 . S
H3485 C3509 0.951 . S
H3486 C3511 0.951 . S
H3487 C3513 0.950 . S
H3488 C3514 0.950 . S
H3489 C3516 0.950 . S
H3490 C3519 0.950 1_455 S
H3491 C3520 0.950 . S
H3492 C3522 0.950 . S
H3493 C3523 0.950 . S
C3494 H3476 0.951 . S
C3494 C3495 1.366 . S
C3494 C3496 1.388 . S
C3495 C3494 1.366 . S
C3495 C3499 1.409 . S
C3496 H3477 0.951 . S
C3496 C3494 1.388 . S
C3496 C3497 1.366 . S
C3497 C3496 1.366 . S
C3497 C3498 1.414 . S
C3497 C3500 1.499 . S
C3498 H3478 0.950 1_455 S
C3498 C3497 1.414 . S
C3498 C3499 1.371 . S
C3499 H3479 0.929 1_455 S
C3499 C3495 1.409 . S
C3499 C3498 1.371 . S
C3500 C3497 1.499 . S
C3500 C3501 1.373 . S
C3500 C3502 1.389 . S
C3501 H3480 0.950 1_455 S
C3501 C3500 1.373 . S
C3501 C3517 1.377 . S
C3502 C3500 1.389 . S
C3502 C3503 1.524 . S
C3502 C3516 1.377 . S
C3503 C3502 1.524 . S
C3503 C3504 1.397 . S
C3503 C3508 1.363 . S
C3504 H3481 0.950 . S
C3504 C3503 1.397 . S
C3504 C3505 1.334 . S
C3505 H3482 0.950 . S
C3505 C3504 1.334 . S
C3505 C3506 1.287 . S
C3506 C3505 1.287 . S
C3506 C3507 1.524 . S
C3506 H3525 0.913 . S
C3507 H3483 0.950 . S
C3507 C3506 1.524 . S
C3507 C3508 1.415 . S
C3508 H3484 0.950 . S
C3508 C3503 1.363 . S
C3508 C3507 1.415 . S
C3509 H3485 0.951 . S
C3509 C3510 1.383 . S
C3509 C3511 1.388 1_554 S
C3510 C3509 1.383 . S
C3510 C3514 1.344 1_554 S
C3511 H3486 0.951 . S
C3511 C3509 1.388 1_556 S
C3511 C3512 1.366 . S
C3512 C3511 1.366 . S
C3512 C3513 1.414 . S
C3512 C3515 1.499 . S
C3513 H3487 0.950 . S
C3513 C3512 1.414 . S
C3513 C3514 1.374 . S
C3514 H3488 0.950 . S
C3514 C3510 1.344 1_556 S
C3514 C3513 1.374 . S
C3515 C3512 1.499 . S
C3515 C3516 1.373 . S
C3515 C3517 1.389 . S
C3516 H3489 0.950 . S
C3516 C3502 1.377 . S
C3516 C3515 1.373 . S
C3517 C3501 1.377 . S
C3517 C3515 1.389 . S
C3517 C3518 1.524 1_455 S
C3518 C3517 1.524 1_655 S
C3518 C3519 1.397 . S
C3518 C3523 1.363 . S
C3519 H3490 0.950 1_655 S
C3519 C3518 1.397 . S
C3519 C3520 1.334 . S
C3520 H3491 0.950 . S
C3520 C3519 1.334 . S
C3520 C3521 1.287 . S
C3521 C3520 1.287 . S
C3521 C3522 1.524 . S
C3521 H3524 0.999 . S
C3522 H3492 0.950 . S
C3522 C3521 1.524 . S
C3522 C3523 1.415 . S
C3523 H3493 0.950 . S
C3523 C3518 1.363 . S
C3523 C3522 1.415 . S
H3524 C3521 0.999 . S
H3525 C3506 0.913 . S
H3526 C3544 0.951 . S
H3527 C3546 0.951 . S
H3528 C3548 0.950 . S
H3529 C3549 0.950 . S
H3530 C3551 0.950 . S
H3531 C3554 0.950 . S
H3532 C3555 0.950 . S
H3533 C3557 0.950 . S
H3534 C3558 0.950 . S
H3535 C3559 0.951 . S
H3536 C3561 0.951 . S
H3537 C3563 0.950 . S
H3538 C3564 0.950 . S
H3539 C3566 0.950 . S
H3540 C3569 0.950 . S
H3541 C3570 0.950 . S
H3542 C3572 0.950 . S
H3543 C3573 0.950 . S
C3544 H3526 0.951 . S
C3544 C3545 1.366 . S
C3544 C3546 1.388 1_455 S
C3545 C3544 1.366 . S
C3545 C3549 1.385 . S
C3546 H3527 0.951 . S
C3546 C3544 1.388 1_655 S
C3546 C3547 1.366 . S
C3547 C3546 1.366 . S
C3547 C3548 1.414 . S
C3547 C3550 1.499 . S
C3548 H3528 0.950 . S
C3548 C3547 1.414 . S
C3548 C3549 1.374 1_655 S
C3549 H3529 0.950 . S
C3549 C3545 1.385 . S
C3549 C3548 1.374 1_455 S
C3550 C3547 1.499 . S
C3550 C3551 1.373 . S
C3550 C3552 1.389 . S
C3551 H3530 0.950 . S
C3551 C3550 1.373 . S
C3551 C3567 1.377 . S
C3552 C3550 1.389 . S
C3552 C3553 1.524 . S
C3552 C3566 1.377 . S
C3553 C3552 1.524 . S
C3553 C3554 1.397 . S
C3553 C3558 1.363 . S
C3554 H3531 0.950 . S
C3554 C3553 1.397 . S
C3554 C3555 1.334 1_655 S
C3555 H3532 0.950 . S
C3555 C3554 1.334 1_455 S
C3555 C3556 1.287 . S
C3556 C3555 1.287 . S
C3556 C3557 1.524 . S
C3556 H3575 0.913 . S
C3557 H3533 0.950 . S
C3557 C3556 1.524 . S
C3557 C3558 1.415 1_455 S
C3558 H3534 0.950 . S
C3558 C3553 1.363 . S
C3558 C3557 1.415 1_655 S
C3559 H3535 0.951 . S
C3559 C3560 1.366 . S
C3559 C3561 1.388 . S
C3560 C3559 1.366 . S
C3560 C3564 1.385 . S
C3561 H3536 0.951 . S
C3561 C3559 1.388 . S
C3561 C3562 1.366 . S
C3562 C3561 1.366 . S
C3562 C3563 1.414 . S
C3562 C3565 1.499 . S
C3563 H3537 0.950 . S
C3563 C3562 1.414 . S
C3563 C3564 1.374 . S
C3564 H3538 0.950 . S
C3564 C3560 1.385 . S
C3564 C3563 1.374 . S
C3565 C3562 1.499 . S
C3565 C3566 1.373 . S
C3565 C3567 1.389 . S
C3566 H3539 0.950 . S
C3566 C3552 1.377 . S
C3566 C3565 1.373 . S
C3567 C3551 1.377 . S
C3567 C3565 1.389 . S
C3567 C3568 1.524 . S
C3568 C3567 1.524 . S
C3568 C3569 1.397 . S
C3568 C3573 1.363 . S
C3569 H3540 0.950 . S
C3569 C3568 1.397 . S
C3569 C3570 1.334 . S
C3570 H3541 0.950 . S
C3570 C3569 1.334 . S
C3570 C3571 1.287 . S
C3571 C3570 1.287 . S
C3571 C3572 1.524 . S
C3571 H3574 0.999 . S
C3572 H3542 0.950 . S
C3572 C3571 1.524 . S
C3572 C3573 1.415 . S
C3573 H3543 0.950 . S
C3573 C3568 1.363 . S
C3573 C3572 1.415 . S
H3574 C3571 0.999 . S
H3575 C3556 0.913 . S
H3576 C3594 0.951 . S
H3577 C3596 0.951 . S
H3578 C3598 0.950 . S
H3579 C3599 0.950 . S
H3580 C3601 0.950 . S
H3581 C3604 0.950 . S
H3582 C3605 0.950 . S
H3583 C3607 0.950 . S
H3584 C3608 0.950 . S
H3585 C3609 0.951 . S
H3586 C3611 0.951 . S
H3587 C3613 0.950 . S
H3588 C3614 0.950 . S
H3589 C3616 0.950 . S
H3590 C3619 0.950 . S
H3591 C3620 0.950 . S
H3592 C3622 0.950 . S
H3593 C3623 0.950 . S
C3594 H3576 0.951 . S
C3594 C3595 1.366 . S
C3594 C3596 1.388 . S
C3595 C3594 1.366 . S
C3595 C3599 1.385 . S
C3596 H3577 0.951 . S
C3596 C3594 1.388 . S
C3596 C3597 1.366 . S
C3597 C3596 1.366 . S
C3597 C3598 1.414 . S
C3597 C3600 1.499 . S
C3598 H3578 0.950 . S
C3598 C3597 1.414 . S
C3598 C3599 1.374 . S
C3599 H3579 0.950 . S
C3599 C3595 1.385 . S
C3599 C3598 1.374 . S
C3600 C3597 1.499 . S
C3600 C3601 1.373 . S
C3600 C3602 1.389 . S
C3601 H3580 0.950 . S
C3601 C3600 1.373 . S
C3601 C3617 1.377 . S
C3602 C3600 1.389 . S
C3602 C3603 1.524 . S
C3602 C3616 1.377 . S
C3603 C3602 1.524 . S
C3603 C3604 1.397 . S
C3603 C3608 1.363 . S
C3604 H3581 0.950 . S
C3604 C3603 1.397 . S
C3604 C3605 1.334 . S
C3605 H3582 0.950 . S
C3605 C3604 1.334 . S
C3605 C3606 1.287 . S
C3606 C3605 1.287 . S
C3606 C3607 1.524 . S
C3606 H3625 0.913 . S
C3607 H3583 0.950 . S
C3607 C3606 1.524 . S
C3607 C3608 1.415 . S
C3608 H3584 0.950 . S
C3608 C3603 1.363 . S
C3608 C3607 1.415 . S
C3609 H3585 0.951 . S
C3609 C3610 1.366 . S
C3609 C3611 1.388 . S
C3610 C3609 1.366 . S
C3610 C3614 1.385 . S
C3611 H3586 0.951 . S
C3611 C3609 1.388 . S
C3611 C3612 1.366 . S
C3612 C3611 1.366 . S
C3612 C3613 1.414 . S
C3612 C3615 1.499 . S
C3613 H3587 0.950 . S
C3613 C3612 1.414 . S
C3613 C3614 1.374 . S
C3614 H3588 0.950 . S
C3614 C3610 1.385 . S
C3614 C3613 1.374 . S
C3615 C3612 1.499 . S
C3615 C3616 1.373 . S
C3615 C3617 1.389 . S
C3616 H3589 0.950 . S
C3616 C3602 1.377 . S
C3616 C3615 1.373 . S
C3617 C3601 1.377 . S
C3617 C3615 1.389 . S
C3617 C3618 1.524 . S
C3618 C3617 1.524 . S
C3618 C3619 1.397 . S
C3618 C3623 1.363 . S
C3619 H3590 0.950 . S
C3619 C3618 1.397 . S
C3619 C3620 1.334 . S
C3620 H3591 0.950 . S
C3620 C3619 1.334 . S
C3620 C3621 1.287 . S
C3621 C3620 1.287 . S
C3621 C3622 1.524 . S
C3621 H3624 0.999 1_554 S
C3622 H3592 0.950 . S
C3622 C3621 1.524 . S
C3622 C3623 1.415 . S
C3623 H3593 0.950 . S
C3623 C3618 1.363 . S
C3623 C3622 1.415 . S
H3624 C3621 0.999 1_556 S
H3625 C3606 0.913 . S
H3626 C3644 0.951 . S
H3627 C3646 0.951 1_655 S
H3628 C3648 0.950 . S
H3629 C3649 0.950 . S
H3630 C3651 0.950 . S
H3631 C3654 0.950 . S
H3632 C3655 0.950 . S
H3633 C3657 0.950 . S
H3634 C3658 0.950 . S
H3635 C3659 0.951 . S
H3636 C3661 0.951 . S
H3637 C3663 0.950 . S
H3638 C3664 0.950 . S
H3639 C3666 0.950 . S
H3640 C3669 0.950 . S
H3641 C3670 0.950 . S
H3642 C3672 0.950 . S
H3643 C3673 0.950 . S
C3644 H3626 0.951 . S
C3644 C3645 1.366 . S
C3644 C3646 1.388 . S
C3645 C3644 1.366 . S
C3645 C3649 1.385 . S
C3646 H3627 0.951 1_455 S
C3646 C3644 1.388 . S
C3646 C3647 1.366 . S
C3647 C3646 1.366 . S
C3647 C3648 1.414 . S
C3647 C3650 1.499 1_455 S
C3648 H3628 0.950 . S
C3648 C3647 1.414 . S
C3648 C3649 1.374 . S
C3649 H3629 0.950 . S
C3649 C3645 1.385 . S
C3649 C3648 1.374 . S
C3650 C3647 1.499 1_655 S
C3650 C3651 1.373 . S
C3650 C3652 1.389 . S
C3651 H3630 0.950 . S
C3651 C3650 1.373 . S
C3651 C3667 1.377 . S
C3652 C3650 1.389 . S
C3652 C3653 1.524 . S
C3652 C3666 1.377 . S
C3653 C3652 1.524 . S
C3653 C3654 1.397 . S
C3653 C3658 1.363 . S
C3654 H3631 0.950 . S
C3654 C3653 1.397 . S
C3654 C3655 1.334 . S
C3655 H3632 0.950 . S
C3655 C3654 1.334 . S
C3655 C3656 1.287 . S
C3656 C3655 1.287 . S
C3656 C3657 1.524 . S
C3656 H3675 0.913 . S
C3657 H3633 0.950 . S
C3657 C3656 1.524 . S
C3657 C3658 1.415 . S
C3658 H3634 0.950 . S
C3658 C3653 1.363 . S
C3658 C3657 1.415 . S
C3659 H3635 0.951 . S
C3659 C3660 1.366 . S
C3659 C3661 1.388 . S
C3660 C3659 1.366 . S
C3660 C3664 1.385 . S
C3661 H3636 0.951 . S
C3661 C3659 1.388 . S
C3661 C3662 1.366 . S
C3662 C3661 1.366 . S
C3662 C3663 1.414 . S
C3662 C3665 1.499 . S
C3663 H3637 0.950 . S
C3663 C3662 1.414 . S
C3663 C3664 1.374 . S
C3664 H3638 0.950 . S
C3664 C3660 1.385 . S
C3664 C3663 1.374 . S
C3665 C3662 1.499 . S
C3665 C3666 1.373 . S
C3665 C3667 1.389 . S
C3666 H3639 0.950 . S
C3666 C3652 1.377 . S
C3666 C3665 1.373 . S
C3667 C3651 1.377 . S
C3667 C3665 1.389 . S
C3667 C3668 1.524 . S
C3668 C3667 1.524 . S
C3668 C3669 1.397 . S
C3668 C3673 1.363 . S
C3669 H3640 0.950 . S
C3669 C3668 1.397 . S
C3669 C3670 1.334 . S
C3670 H3641 0.950 . S
C3670 C3669 1.334 . S
C3670 C3671 1.287 . S
C3671 C3670 1.287 . S
C3671 C3672 1.524 . S
C3671 H3674 0.999 . S
C3672 H3642 0.950 . S
C3672 C3671 1.524 . S
C3672 C3673 1.415 . S
C3673 H3643 0.950 . S
C3673 C3668 1.363 . S
C3673 C3672 1.415 . S
H3674 C3671 0.999 . S
H3675 C3656 0.913 . S
H3676 C3694 0.951 . S
H3677 C3696 0.951 . S
H3678 C3698 0.950 . S
H3679 C3699 0.950 . S
H3680 C3701 0.950 . S
H3681 C3704 0.950 . S
H3682 C3705 0.950 . S
H3683 C3707 0.950 1_455 S
H3684 C3708 0.950 . S
H3685 C3709 0.951 . S
H3686 C3711 0.951 . S
H3687 C3713 0.950 . S
H3688 C3714 0.950 . S
H3689 C3716 0.950 . S
H3690 C3719 0.950 . S
H3691 C3720 0.950 . S
H3692 C3722 0.950 . S
H3693 C3723 0.950 . S
C3694 H3676 0.951 . S
C3694 C3695 1.366 1_455 S
C3694 C3696 1.388 . S
C3695 C3694 1.366 1_655 S
C3695 C3699 1.385 . S
C3696 H3677 0.951 . S
C3696 C3694 1.388 . S
C3696 C3697 1.366 . S
C3697 C3696 1.366 . S
C3697 C3698 1.414 1_455 S
C3697 C3700 1.499 . S
C3698 H3678 0.950 . S
C3698 C3697 1.414 1_655 S
C3698 C3699 1.374 . S
C3699 H3679 0.950 . S
C3699 C3695 1.385 . S
C3699 C3698 1.374 . S
C3700 C3697 1.499 . S
C3700 C3701 1.373 . S
C3700 C3702 1.389 . S
C3701 H3680 0.950 . S
C3701 C3700 1.373 . S
C3701 C3717 1.377 . S
C3702 C3700 1.389 . S
C3702 C3703 1.524 1_455 S
C3702 C3716 1.377 . S
C3703 C3702 1.524 1_655 S
C3703 C3704 1.397 . S
C3703 C3708 1.363 1_655 S
C3704 H3681 0.950 . S
C3704 C3703 1.397 . S
C3704 C3705 1.334 . S
C3705 H3682 0.950 . S
C3705 C3704 1.334 . S
C3705 C3706 1.287 . S
C3706 C3705 1.287 . S
C3706 C3707 1.524 . S
C3706 H3725 0.913 . S
C3707 H3683 0.950 1_655 S
C3707 C3706 1.524 . S
C3707 C3708 1.415 1_655 S
C3708 H3684 0.950 . S
C3708 C3703 1.363 1_455 S
C3708 C3707 1.415 1_455 S
C3709 H3685 0.951 . S
C3709 C3710 1.366 . S
C3709 C3711 1.388 . S
C3710 C3709 1.366 . S
C3710 C3714 1.385 . S
C3711 H3686 0.951 . S
C3711 C3709 1.388 . S
C3711 C3712 1.366 . S
C3712 C3711 1.366 . S
C3712 C3713 1.414 . S
C3712 C3715 1.499 . S
C3713 H3687 0.950 . S
C3713 C3712 1.414 . S
C3713 C3714 1.374 . S
C3714 H3688 0.950 . S
C3714 C3710 1.385 . S
C3714 C3713 1.374 . S
C3715 C3712 1.499 . S
C3715 C3716 1.373 . S
C3715 C3717 1.389 . S
C3716 H3689 0.950 . S
C3716 C3702 1.377 . S
C3716 C3715 1.373 . S
C3717 C3701 1.377 . S
C3717 C3715 1.389 . S
C3717 C3718 1.524 . S
C3718 C3717 1.524 . S
C3718 C3719 1.397 . S
C3718 C3723 1.363 . S
C3719 H3690 0.950 . S
C3719 C3718 1.397 . S
C3719 C3720 1.334 . S
C3720 H3691 0.950 . S
C3720 C3719 1.334 . S
C3720 C3721 1.287 . S
C3721 C3720 1.287 . S
C3721 C3722 1.524 . S
C3721 H3724 0.999 . S
C3722 H3692 0.950 . S
C3722 C3721 1.524 . S
C3722 C3723 1.415 . S
C3723 H3693 0.950 . S
C3723 C3718 1.363 . S
C3723 C3722 1.415 . S
H3724 C3721 0.999 . S
H3725 C3706 0.913 . S
H3726 C3744 0.951 . S
H3727 C3746 0.951 . S
H3728 C3748 0.950 . S
H3729 C3749 0.950 . S
H3730 C3751 0.950 . S
H3731 C3754 0.950 . S
H3732 C3755 0.950 . S
H3733 C3757 0.950 . S
H3734 C3758 0.950 . S
H3735 C3759 0.951 . S
H3736 C3761 0.951 . S
H3737 C3763 0.950 . S
H3738 C3764 0.950 . S
H3739 C3766 0.950 . S
H3740 C3769 0.950 . S
H3741 C3770 0.950 . S
H3742 C3772 0.950 . S
H3743 C3773 0.950 . S
C3744 H3726 0.951 . S
C3744 C3745 1.366 . S
C3744 C3746 1.388 . S
C3745 C3744 1.366 . S
C3745 C3749 1.385 . S
C3746 H3727 0.951 . S
C3746 C3744 1.388 . S
C3746 C3747 1.366 . S
C3747 C3746 1.366 . S
C3747 C3748 1.414 . S
C3747 C3750 1.499 . S
C3748 H3728 0.950 . S
C3748 C3747 1.414 . S
C3748 C3749 1.374 . S
C3749 H3729 0.950 . S
C3749 C3745 1.385 . S
C3749 C3748 1.374 . S
C3750 C3747 1.499 . S
C3750 C3751 1.373 . S
C3750 C3752 1.389 . S
C3751 H3730 0.950 . S
C3751 C3750 1.373 . S
C3751 C3767 1.377 . S
C3752 C3750 1.389 . S
C3752 C3753 1.524 . S
C3752 C3766 1.377 . S
C3753 C3752 1.524 . S
C3753 C3754 1.397 . S
C3753 C3758 1.363 . S
C3754 H3731 0.950 . S
C3754 C3753 1.397 . S
C3754 C3755 1.334 . S
C3755 H3732 0.950 . S
C3755 C3754 1.334 . S
C3755 C3756 1.287 . S
C3756 C3755 1.287 . S
C3756 C3757 1.524 . S
C3756 H3775 0.913 . S
C3757 H3733 0.950 . S
C3757 C3756 1.524 . S
C3757 C3758 1.415 . S
C3758 H3734 0.950 . S
C3758 C3753 1.363 . S
C3758 C3757 1.415 . S
C3759 H3735 0.951 . S
C3759 C3760 1.366 . S
C3759 C3761 1.388 . S
C3760 C3759 1.366 . S
C3760 C3764 1.385 . S
C3761 H3736 0.951 . S
C3761 C3759 1.388 . S
C3761 C3762 1.366 . S
C3762 C3761 1.366 . S
C3762 C3763 1.414 . S
C3762 C3765 1.499 . S
C3763 H3737 0.950 . S
C3763 C3762 1.414 . S
C3763 C3764 1.374 . S
C3764 H3738 0.950 . S
C3764 C3760 1.385 . S
C3764 C3763 1.374 . S
C3765 C3762 1.499 . S
C3765 C3766 1.373 . S
C3765 C3767 1.389 . S
C3766 H3739 0.950 . S
C3766 C3752 1.377 . S
C3766 C3765 1.373 . S
C3767 C3751 1.377 . S
C3767 C3765 1.389 . S
C3767 C3768 1.524 . S
C3768 C3767 1.524 . S
C3768 C3769 1.397 . S
C3768 C3773 1.363 . S
C3769 H3740 0.950 . S
C3769 C3768 1.397 . S
C3769 C3770 1.334 . S
C3770 H3741 0.950 . S
C3770 C3769 1.334 . S
C3770 C3771 1.287 . S
C3771 C3770 1.287 . S
C3771 C3772 1.524 . S
C3771 H3774 0.999 . S
C3772 H3742 0.950 . S
C3772 C3771 1.524 . S
C3772 C3773 1.415 . S
C3773 H3743 0.950 . S
C3773 C3768 1.363 . S
C3773 C3772 1.415 . S
H3774 C3771 0.999 . S
H3775 C3756 0.913 . S
H3776 C3794 0.951 . S
H3777 C3796 0.951 . S
H3778 C3798 0.950 . S
H3779 C3799 0.950 . S
H3780 C3801 0.950 . S
H3781 C3804 0.950 . S
H3782 C3805 0.950 . S
H3783 C3807 0.950 . S
H3784 C3808 0.950 . S
H3785 C3809 0.951 . S
H3786 C3811 0.951 . S
H3787 C3813 0.950 . S
H3788 C3814 0.950 . S
H3789 C3816 0.950 . S
H3790 C3819 0.950 . S
H3791 C3820 0.950 . S
H3792 C3822 0.950 . S
H3793 C3823 0.950 . S
C3794 H3776 0.951 . S
C3794 C3795 1.366 . S
C3794 C3796 1.388 . S
C3795 C3794 1.366 . S
C3795 C3799 1.385 . S
C3796 H3777 0.951 . S
C3796 C3794 1.388 . S
C3796 C3797 1.366 . S
C3797 C3796 1.366 . S
C3797 C3798 1.414 . S
C3797 C3800 1.499 . S
C3798 H3778 0.950 . S
C3798 C3797 1.414 . S
C3798 C3799 1.374 . S
C3799 H3779 0.950 . S
C3799 C3795 1.385 . S
C3799 C3798 1.374 . S
C3800 C3797 1.499 . S
C3800 C3801 1.373 . S
C3800 C3802 1.389 . S
C3801 H3780 0.950 . S
C3801 C3800 1.373 . S
C3801 C3817 1.377 . S
C3802 C3800 1.389 . S
C3802 C3803 1.524 . S
C3802 C3816 1.377 . S
C3803 C3802 1.524 . S
C3803 C3804 1.397 . S
C3803 C3808 1.363 . S
C3804 H3781 0.950 . S
C3804 C3803 1.397 . S
C3804 C3805 1.334 . S
C3805 H3782 0.950 . S
C3805 C3804 1.334 . S
C3805 C3806 1.287 . S
C3806 C3805 1.287 . S
C3806 C3807 1.524 . S
C3806 H3825 0.913 . S
C3807 H3783 0.950 . S
C3807 C3806 1.524 . S
C3807 C3808 1.415 . S
C3808 H3784 0.950 . S
C3808 C3803 1.363 . S
C3808 C3807 1.415 . S
C3809 H3785 0.951 . S
C3809 C3810 1.366 . S
C3809 C3811 1.388 . S
C3810 C3809 1.366 . S
C3810 C3814 1.385 . S
C3811 H3786 0.951 . S
C3811 C3809 1.388 . S
C3811 C3812 1.366 . S
C3812 C3811 1.366 . S
C3812 C3813 1.414 . S
C3812 C3815 1.499 . S
C3813 H3787 0.950 . S
C3813 C3812 1.414 . S
C3813 C3814 1.374 . S
C3814 H3788 0.950 . S
C3814 C3810 1.385 . S
C3814 C3813 1.374 . S
C3815 C3812 1.499 . S
C3815 C3816 1.373 . S
C3815 C3817 1.389 . S
C3816 H3789 0.950 . S
C3816 C3802 1.377 . S
C3816 C3815 1.373 . S
C3817 C3801 1.377 . S
C3817 C3815 1.389 . S
C3817 C3818 1.524 . S
C3818 C3817 1.524 . S
C3818 C3819 1.397 . S
C3818 C3823 1.363 . S
C3819 H3790 0.950 . S
C3819 C3818 1.397 . S
C3819 C3820 1.334 . S
C3820 H3791 0.950 . S
C3820 C3819 1.334 . S
C3820 C3821 1.287 . S
C3821 C3820 1.287 . S
C3821 C3822 1.524 . S
C3821 H3824 0.999 . S
C3822 H3792 0.950 . S
C3822 C3821 1.524 . S
C3822 C3823 1.415 . S
C3823 H3793 0.950 . S
C3823 C3818 1.363 . S
C3823 C3822 1.415 . S
H3824 C3821 0.999 . S
H3825 C3806 0.913 . S
H3826 C3844 0.951 . S
H3827 C3846 0.951 . S
H3828 C3848 0.950 . S
H3829 C3849 0.950 . S
H3830 C3851 0.950 . S
H3831 C3854 0.950 . S
H3832 C3855 0.950 . S
H3833 C3857 0.950 . S
H3834 C3858 0.950 . S
H3835 C3859 0.951 . S
H3836 C3861 0.951 . S
H3837 C3863 0.950 . S
H3838 C3864 0.950 . S
H3839 C3866 0.950 . S
H3840 C3869 0.950 . S
H3841 C3870 0.950 . S
H3842 C3872 0.950 . S
H3843 C3873 0.950 . S
C3844 H3826 0.951 . S
C3844 C3845 1.366 . S
C3844 C3846 1.388 . S
C3845 C3844 1.366 . S
C3845 C3849 1.385 . S
C3846 H3827 0.951 . S
C3846 C3844 1.388 . S
C3846 C3847 1.366 . S
C3847 C3846 1.366 . S
C3847 C3848 1.414 . S
C3847 C3850 1.499 . S
C3848 H3828 0.950 . S
C3848 C3847 1.414 . S
C3848 C3849 1.374 . S
C3849 H3829 0.950 . S
C3849 C3845 1.385 . S
C3849 C3848 1.374 . S
C3850 C3847 1.499 . S
C3850 C3851 1.373 . S
C3850 C3852 1.389 . S
C3851 H3830 0.950 . S
C3851 C3850 1.373 . S
C3851 C3867 1.377 . S
C3852 C3850 1.389 . S
C3852 C3853 1.524 . S
C3852 C3866 1.377 . S
C3853 C3852 1.524 . S
C3853 C3854 1.397 . S
C3853 C3858 1.363 . S
C3854 H3831 0.950 . S
C3854 C3853 1.397 . S
C3854 C3855 1.334 . S
C3855 H3832 0.950 . S
C3855 C3854 1.334 . S
C3855 C3856 1.287 . S
C3856 C3855 1.287 . S
C3856 C3857 1.524 . S
C3856 H3875 0.913 . S
C3857 H3833 0.950 . S
C3857 C3856 1.524 . S
C3857 C3858 1.415 . S
C3858 H3834 0.950 . S
C3858 C3853 1.363 . S
C3858 C3857 1.415 . S
C3859 H3835 0.951 . S
C3859 C3860 1.366 . S
C3859 C3861 1.388 . S
C3860 C3859 1.366 . S
C3860 C3864 1.385 . S
C3861 H3836 0.951 . S
C3861 C3859 1.388 . S
C3861 C3862 1.366 . S
C3862 C3861 1.366 . S
C3862 C3863 1.414 . S
C3862 C3865 1.499 . S
C3863 H3837 0.950 . S
C3863 C3862 1.414 . S
C3863 C3864 1.374 . S
C3864 H3838 0.950 . S
C3864 C3860 1.385 . S
C3864 C3863 1.374 . S
C3865 C3862 1.499 . S
C3865 C3866 1.373 . S
C3865 C3867 1.389 . S
C3866 H3839 0.950 . S
C3866 C3852 1.377 . S
C3866 C3865 1.373 . S
C3867 C3851 1.377 . S
C3867 C3865 1.389 . S
C3867 C3868 1.524 . S
C3868 C3867 1.524 . S
C3868 C3869 1.397 . S
C3868 C3873 1.363 . S
C3869 H3840 0.950 . S
C3869 C3868 1.397 . S
C3869 C3870 1.334 . S
C3870 H3841 0.950 . S
C3870 C3869 1.334 . S
C3870 C3871 1.287 . S
C3871 C3870 1.287 . S
C3871 C3872 1.524 . S
C3871 H3874 0.999 . S
C3872 H3842 0.950 . S
C3872 C3871 1.524 . S
C3872 C3873 1.415 . S
C3873 H3843 0.950 . S
C3873 C3868 1.363 . S
C3873 C3872 1.415 . S
H3874 C3871 0.999 . S
H3875 C3856 0.913 . S
H3876 C3894 0.951 . S
H3877 C3896 0.951 . S
H3878 C3898 0.950 . S
H3879 C3899 0.950 . S
H3880 C3901 0.950 . S
H3881 C3904 0.950 . S
H3882 C3905 0.950 . S
H3883 C3907 0.950 . S
H3884 C3908 0.950 . S
H3885 C3909 0.951 . S
H3886 C3911 0.951 . S
H3887 C3913 0.950 . S
H3888 C3914 0.950 . S
H3889 C3916 0.950 . S
H3890 C3919 0.950 . S
H3891 C3920 0.950 . S
H3892 C3922 0.950 . S
H3893 C3923 0.950 . S
C3894 H3876 0.951 . S
C3894 C3895 1.366 . S
C3894 C3896 1.388 . S
C3895 C3894 1.366 . S
C3895 C3899 1.385 . S
C3896 H3877 0.951 . S
C3896 C3894 1.388 . S
C3896 C3897 1.366 . S
C3897 C3896 1.366 . S
C3897 C3898 1.414 . S
C3897 C3900 1.499 . S
C3898 H3878 0.950 . S
C3898 C3897 1.414 . S
C3898 C3899 1.374 . S
C3899 H3879 0.950 . S
C3899 C3895 1.385 . S
C3899 C3898 1.374 . S
C3900 C3897 1.499 . S
C3900 C3901 1.373 . S
C3900 C3902 1.389 . S
C3901 H3880 0.950 . S
C3901 C3900 1.373 . S
C3901 C3917 1.377 . S
C3902 C3900 1.389 . S
C3902 C3903 1.524 . S
C3902 C3916 1.377 . S
C3903 C3902 1.524 . S
C3903 C3904 1.397 . S
C3903 C3908 1.363 . S
C3904 H3881 0.950 . S
C3904 C3903 1.397 . S
C3904 C3905 1.334 . S
C3905 H3882 0.950 . S
C3905 C3904 1.334 . S
C3905 C3906 1.287 . S
C3906 C3905 1.287 . S
C3906 C3907 1.524 . S
C3906 H3925 0.913 . S
C3907 H3883 0.950 . S
C3907 C3906 1.524 . S
C3907 C3908 1.415 . S
C3908 H3884 0.950 . S
C3908 C3903 1.363 . S
C3908 C3907 1.415 . S
C3909 H3885 0.951 . S
C3909 C3910 1.366 . S
C3909 C3911 1.388 . S
C3910 C3909 1.366 . S
C3910 C3914 1.385 . S
C3911 H3886 0.951 . S
C3911 C3909 1.388 . S
C3911 C3912 1.366 . S
C3912 C3911 1.366 . S
C3912 C3913 1.414 . S
C3912 C3915 1.499 . S
C3913 H3887 0.950 . S
C3913 C3912 1.414 . S
C3913 C3914 1.374 . S
C3914 H3888 0.950 . S
C3914 C3910 1.385 . S
C3914 C3913 1.374 . S
C3915 C3912 1.499 . S
C3915 C3916 1.373 . S
C3915 C3917 1.389 . S
C3916 H3889 0.950 . S
C3916 C3902 1.377 . S
C3916 C3915 1.373 . S
C3917 C3901 1.377 . S
C3917 C3915 1.389 . S
C3917 C3918 1.524 . S
C3918 C3917 1.524 . S
C3918 C3919 1.397 . S
C3918 C3923 1.363 . S
C3919 H3890 0.950 . S
C3919 C3918 1.397 . S
C3919 C3920 1.334 . S
C3920 H3891 0.950 . S
C3920 C3919 1.334 . S
C3920 C3921 1.287 . S
C3921 C3920 1.287 . S
C3921 C3922 1.524 . S
C3921 H3924 0.999 . S
C3922 H3892 0.950 . S
C3922 C3921 1.524 . S
C3922 C3923 1.415 . S
C3923 H3893 0.950 . S
C3923 C3918 1.363 . S
C3923 C3922 1.415 . S
H3924 C3921 0.999 . S
H3925 C3906 0.913 . S
H3926 C3944 0.951 . S
H3927 C3946 0.951 . S
H3928 C3948 0.950 . S
H3929 C3949 0.950 . S
H3930 C3951 0.950 . S
H3931 C3954 0.950 . S
H3932 C3955 0.950 . S
H3933 C3957 0.950 . S
H3934 C3958 0.950 . S
H3935 C3959 0.951 . S
H3936 C3961 0.951 . S
H3937 C3963 0.950 . S
H3938 C3964 0.950 . S
H3939 C3966 0.950 . S
H3940 C3969 0.950 . S
H3941 C3970 0.950 . S
H3942 C3972 0.950 . S
H3943 C3973 0.950 . S
C3944 H3926 0.951 . S
C3944 C3945 1.366 . S
C3944 C3946 1.388 . S
C3945 C3944 1.366 . S
C3945 C3949 1.385 . S
C3946 H3927 0.951 . S
C3946 C3944 1.388 . S
C3946 C3947 1.366 . S
C3947 C3946 1.366 . S
C3947 C3948 1.414 . S
C3947 C3950 1.499 . S
C3948 H3928 0.950 . S
C3948 C3947 1.414 . S
C3948 C3949 1.374 . S
C3949 H3929 0.950 . S
C3949 C3945 1.385 . S
C3949 C3948 1.374 . S
C3950 C3947 1.499 . S
C3950 C3951 1.373 . S
C3950 C3952 1.389 . S
C3951 H3930 0.950 . S
C3951 C3950 1.373 . S
C3951 C3967 1.377 . S
C3952 C3950 1.389 . S
C3952 C3953 1.524 . S
C3952 C3966 1.377 . S
C3953 C3952 1.524 . S
C3953 C3954 1.397 . S
C3953 C3958 1.363 . S
C3954 H3931 0.950 . S
C3954 C3953 1.397 . S
C3954 C3955 1.334 . S
C3955 H3932 0.950 . S
C3955 C3954 1.334 . S
C3955 C3956 1.287 . S
C3956 C3955 1.287 . S
C3956 C3957 1.524 . S
C3956 H3975 0.913 . S
C3957 H3933 0.950 . S
C3957 C3956 1.524 . S
C3957 C3958 1.415 . S
C3958 H3934 0.950 . S
C3958 C3953 1.363 . S
C3958 C3957 1.415 . S
C3959 H3935 0.951 . S
C3959 C3960 1.366 . S
C3959 C3961 1.388 . S
C3960 C3959 1.366 . S
C3960 C3964 1.385 . S
C3961 H3936 0.951 . S
C3961 C3959 1.388 . S
C3961 C3962 1.366 . S
C3962 C3961 1.366 . S
C3962 C3963 1.414 . S
C3962 C3965 1.499 . S
C3963 H3937 0.950 . S
C3963 C3962 1.414 . S
C3963 C3964 1.374 . S
C3964 H3938 0.950 . S
C3964 C3960 1.385 . S
C3964 C3963 1.374 . S
C3965 C3962 1.499 . S
C3965 C3966 1.373 . S
C3965 C3967 1.389 . S
C3966 H3939 0.950 . S
C3966 C3952 1.377 . S
C3966 C3965 1.373 . S
C3967 C3951 1.377 . S
C3967 C3965 1.389 . S
C3967 C3968 1.524 . S
C3968 C3967 1.524 . S
C3968 C3969 1.397 . S
C3968 C3973 1.363 . S
C3969 H3940 0.950 . S
C3969 C3968 1.397 . S
C3969 C3970 1.334 . S
C3970 H3941 0.950 . S
C3970 C3969 1.334 . S
C3970 C3971 1.287 . S
C3971 C3970 1.287 . S
C3971 C3972 1.524 . S
C3971 H3974 0.999 . S
C3972 H3942 0.950 . S
C3972 C3971 1.524 . S
C3972 C3973 1.415 . S
C3973 H3943 0.950 . S
C3973 C3968 1.363 . S
C3973 C3972 1.415 . S
H3974 C3971 0.999 . S
H3975 C3956 0.913 . S
H3976 C3994 0.951 . S
H3977 C3996 0.951 . S
H3978 C3998 0.950 . S
H3979 C3999 0.950 . S
H3980 C4001 0.950 . S
H3981 C4004 0.950 . S
H3982 C4005 0.950 . S
H3983 C4007 0.950 . S
H3984 C4008 0.950 . S
H3985 C4009 0.951 . S
H3986 C4011 0.951 . S
H3987 C4013 0.950 . S
H3988 C4014 0.950 . S
H3989 C4016 0.950 . S
H3990 C4019 0.950 . S
H3991 C4020 0.950 . S
H3992 C4022 0.950 . S
H3993 C4023 0.950 . S
C3994 H3976 0.951 . S
C3994 C3995 1.366 . S
C3994 C3996 1.388 . S
C3995 C3994 1.366 . S
C3995 C3999 1.385 . S
C3996 H3977 0.951 . S
C3996 C3994 1.388 . S
C3996 C3997 1.366 . S
C3997 C3996 1.366 . S
C3997 C3998 1.414 . S
C3997 C4000 1.499 . S
C3998 H3978 0.950 . S
C3998 C3997 1.414 . S
C3998 C3999 1.374 . S
C3999 H3979 0.950 . S
C3999 C3995 1.385 . S
C3999 C3998 1.374 . S
C4000 C3997 1.499 . S
C4000 C4001 1.373 . S
C4000 C4002 1.389 . S
C4001 H3980 0.950 . S
C4001 C4000 1.373 . S
C4001 C4017 1.377 . S
C4002 C4000 1.389 . S
C4002 C4003 1.524 . S
C4002 C4016 1.377 . S
C4003 C4002 1.524 . S
C4003 C4004 1.397 . S
C4003 C4008 1.363 . S
C4004 H3981 0.950 . S
C4004 C4003 1.397 . S
C4004 C4005 1.334 . S
C4005 H3982 0.950 . S
C4005 C4004 1.334 . S
C4005 C4006 1.287 . S
C4006 C4005 1.287 . S
C4006 C4007 1.524 . S
C4006 H4025 0.913 . S
C4007 H3983 0.950 . S
C4007 C4006 1.524 . S
C4007 C4008 1.415 . S
C4008 H3984 0.950 . S
C4008 C4003 1.363 . S
C4008 C4007 1.415 . S
C4009 H3985 0.951 . S
C4009 C4010 1.366 . S
C4009 C4011 1.388 . S
C4010 C4009 1.366 . S
C4010 C4014 1.385 . S
C4011 H3986 0.951 . S
C4011 C4009 1.388 . S
C4011 C4012 1.366 . S
C4012 C4011 1.366 . S
C4012 C4013 1.414 . S
C4012 C4015 1.499 . S
C4013 H3987 0.950 . S
C4013 C4012 1.414 . S
C4013 C4014 1.374 . S
C4014 H3988 0.950 . S
C4014 C4010 1.385 . S
C4014 C4013 1.374 . S
C4015 C4012 1.499 . S
C4015 C4016 1.373 . S
C4015 C4017 1.389 . S
C4016 H3989 0.950 . S
C4016 C4002 1.377 . S
C4016 C4015 1.373 . S
C4017 C4001 1.377 . S
C4017 C4015 1.389 . S
C4017 C4018 1.524 . S
C4018 C4017 1.524 . S
C4018 C4019 1.397 . S
C4018 C4023 1.363 . S
C4019 H3990 0.950 . S
C4019 C4018 1.397 . S
C4019 C4020 1.334 . S
C4020 H3991 0.950 . S
C4020 C4019 1.334 . S
C4020 C4021 1.287 . S
C4021 C4020 1.287 . S
C4021 C4022 1.524 . S
C4021 H4024 0.999 . S
C4022 H3992 0.950 . S
C4022 C4021 1.524 . S
C4022 C4023 1.415 . S
C4023 H3993 0.950 . S
C4023 C4018 1.363 . S
C4023 C4022 1.415 . S
H4024 C4021 0.999 . S
H4025 C4006 0.913 . S
H4026 C4044 0.951 . S
H4027 C4046 0.951 . S
H4028 C4048 0.950 . S
H4029 C4049 0.950 . S
H4030 C4051 0.950 . S
H4031 C4054 0.950 . S
H4032 C4055 0.950 . S
H4033 C4057 0.950 . S
H4034 C4058 0.950 . S
H4035 C4059 0.951 . S
H4036 C4061 0.951 . S
H4037 C4063 0.950 . S
H4038 C4064 0.950 . S
H4039 C4066 0.950 . S
H4040 C4069 0.950 . S
H4041 C4070 0.950 . S
H4042 C4072 0.950 . S
H4043 C4073 0.950 . S
C4044 H4026 0.951 . S
C4044 C4045 1.366 . S
C4044 C4046 1.388 . S
C4045 C4044 1.366 . S
C4045 C4049 1.385 . S
C4046 H4027 0.951 . S
C4046 C4044 1.388 . S
C4046 C4047 1.366 . S
C4047 C4046 1.366 . S
C4047 C4048 1.414 . S
C4047 C4050 1.499 . S
C4048 H4028 0.950 . S
C4048 C4047 1.414 . S
C4048 C4049 1.374 . S
C4049 H4029 0.950 . S
C4049 C4045 1.385 . S
C4049 C4048 1.374 . S
C4050 C4047 1.499 . S
C4050 C4051 1.373 . S
C4050 C4052 1.389 . S
C4051 H4030 0.950 . S
C4051 C4050 1.373 . S
C4051 C4067 1.377 . S
C4052 C4050 1.389 . S
C4052 C4053 1.524 . S
C4052 C4066 1.377 . S
C4053 C4052 1.524 . S
C4053 C4054 1.397 . S
C4053 C4058 1.363 . S
C4054 H4031 0.950 . S
C4054 C4053 1.397 . S
C4054 C4055 1.334 . S
C4055 H4032 0.950 . S
C4055 C4054 1.334 . S
C4055 C4056 1.287 . S
C4056 C4055 1.287 . S
C4056 C4057 1.524 . S
C4056 H4075 0.913 . S
C4057 H4033 0.950 . S
C4057 C4056 1.524 . S
C4057 C4058 1.415 . S
C4058 H4034 0.950 . S
C4058 C4053 1.363 . S
C4058 C4057 1.415 . S
C4059 H4035 0.951 . S
C4059 C4060 1.366 . S
C4059 C4061 1.388 . S
C4060 C4059 1.366 . S
C4060 C4064 1.385 . S
C4061 H4036 0.951 . S
C4061 C4059 1.388 . S
C4061 C4062 1.366 . S
C4062 C4061 1.366 . S
C4062 C4063 1.414 . S
C4062 C4065 1.499 . S
C4063 H4037 0.950 . S
C4063 C4062 1.414 . S
C4063 C4064 1.374 . S
C4064 H4038 0.950 . S
C4064 C4060 1.385 . S
C4064 C4063 1.374 . S
C4065 C4062 1.499 . S
C4065 C4066 1.373 . S
C4065 C4067 1.389 . S
C4066 H4039 0.950 . S
C4066 C4052 1.377 . S
C4066 C4065 1.373 . S
C4067 C4051 1.377 . S
C4067 C4065 1.389 . S
C4067 C4068 1.524 . S
C4068 C4067 1.524 . S
C4068 C4069 1.397 . S
C4068 C4073 1.363 . S
C4069 H4040 0.950 . S
C4069 C4068 1.397 . S
C4069 C4070 1.334 . S
C4070 H4041 0.950 . S
C4070 C4069 1.334 . S
C4070 C4071 1.287 . S
C4071 C4070 1.287 . S
C4071 C4072 1.524 . S
C4071 H4074 0.999 . S
C4072 H4042 0.950 . S
C4072 C4071 1.524 . S
C4072 C4073 1.415 . S
C4073 H4043 0.950 . S
C4073 C4068 1.363 . S
C4073 C4072 1.415 . S
H4074 C4071 0.999 . S
H4075 C4056 0.913 . S
H4076 C4094 0.951 . S
H4077 C4096 0.951 . S
H4078 C4098 0.950 . S
H4079 C4099 0.950 . S
H4080 C4101 0.950 . S
H4081 C4104 0.950 . S
H4082 C4105 0.950 . S
H4083 C4107 0.950 . S
H4084 C4108 0.950 . S
H4085 C4109 0.951 . S
H4086 C4111 0.951 . S
H4087 C4113 0.950 . S
H4088 C4114 0.950 . S
H4089 C4116 0.950 . S
H4090 C4119 0.950 . S
H4091 C4120 0.950 . S
H4092 C4122 0.950 . S
H4093 C4123 0.950 . S
C4094 H4076 0.951 . S
C4094 C4095 1.366 . S
C4094 C4096 1.388 . S
C4095 C4094 1.366 . S
C4095 C4099 1.385 . S
C4096 H4077 0.951 . S
C4096 C4094 1.388 . S
C4096 C4097 1.366 . S
C4097 C4096 1.366 . S
C4097 C4098 1.414 . S
C4097 C4100 1.499 . S
C4098 H4078 0.950 . S
C4098 C4097 1.414 . S
C4098 C4099 1.374 . S
C4099 H4079 0.950 . S
C4099 C4095 1.385 . S
C4099 C4098 1.374 . S
C4100 C4097 1.499 . S
C4100 C4101 1.373 . S
C4100 C4102 1.389 . S
C4101 H4080 0.950 . S
C4101 C4100 1.373 . S
C4101 C4117 1.377 . S
C4102 C4100 1.389 . S
C4102 C4103 1.524 . S
C4102 C4116 1.377 . S
C4103 C4102 1.524 . S
C4103 C4104 1.397 . S
C4103 C4108 1.363 . S
C4104 H4081 0.950 . S
C4104 C4103 1.397 . S
C4104 C4105 1.334 . S
C4105 H4082 0.950 . S
C4105 C4104 1.334 . S
C4105 C4106 1.287 . S
C4106 C4105 1.287 . S
C4106 C4107 1.524 . S
C4106 H4125 0.913 . S
C4107 H4083 0.950 . S
C4107 C4106 1.524 . S
C4107 C4108 1.415 . S
C4108 H4084 0.950 . S
C4108 C4103 1.363 . S
C4108 C4107 1.415 . S
C4109 H4085 0.951 . S
C4109 C4110 1.366 . S
C4109 C4111 1.388 . S
C4110 C4109 1.366 . S
C4110 C4114 1.385 . S
C4111 H4086 0.951 . S
C4111 C4109 1.388 . S
C4111 C4112 1.366 . S
C4112 C4111 1.366 . S
C4112 C4113 1.414 . S
C4112 C4115 1.499 . S
C4113 H4087 0.950 . S
C4113 C4112 1.414 . S
C4113 C4114 1.374 . S
C4114 H4088 0.950 . S
C4114 C4110 1.385 . S
C4114 C4113 1.374 . S
C4115 C4112 1.499 . S
C4115 C4116 1.373 . S
C4115 C4117 1.389 . S
C4116 H4089 0.950 . S
C4116 C4102 1.377 . S
C4116 C4115 1.373 . S
C4117 C4101 1.377 . S
C4117 C4115 1.389 . S
C4117 C4118 1.524 . S
C4118 C4117 1.524 . S
C4118 C4119 1.397 . S
C4118 C4123 1.363 . S
C4119 H4090 0.950 . S
C4119 C4118 1.397 . S
C4119 C4120 1.334 . S
C4120 H4091 0.950 . S
C4120 C4119 1.334 . S
C4120 C4121 1.287 . S
C4121 C4120 1.287 . S
C4121 C4122 1.524 . S
C4121 H4124 0.999 . S
C4122 H4092 0.950 . S
C4122 C4121 1.524 . S
C4122 C4123 1.415 . S
C4123 H4093 0.950 . S
C4123 C4118 1.363 . S
C4123 C4122 1.415 . S
H4124 C4121 0.999 . S
H4125 C4106 0.913 . S
H4126 C4144 0.951 . S
H4127 C4146 0.951 . S
H4128 C4148 0.950 . S
H4129 C4149 0.950 . S
H4130 C4151 0.950 . S
H4131 C4154 0.950 . S
H4132 C4155 0.950 . S
H4133 C4157 0.950 . S
H4134 C4158 0.950 . S
H4135 C4159 0.951 . S
H4136 C4161 0.951 . S
H4137 C4163 0.950 . S
H4138 C4164 0.950 . S
H4139 C4166 0.950 . S
H4140 C4169 0.950 . S
H4141 C4170 0.950 . S
H4142 C4172 0.950 . S
H4143 C4173 0.950 . S
C4144 H4126 0.951 . S
C4144 C4145 1.366 . S
C4144 C4146 1.388 . S
C4145 C4144 1.366 . S
C4145 C4149 1.385 . S
C4146 H4127 0.951 . S
C4146 C4144 1.388 . S
C4146 C4147 1.366 . S
C4147 C4146 1.366 . S
C4147 C4148 1.414 . S
C4147 C4150 1.499 . S
C4148 H4128 0.950 . S
C4148 C4147 1.414 . S
C4148 C4149 1.374 . S
C4149 H4129 0.950 . S
C4149 C4145 1.385 . S
C4149 C4148 1.374 . S
C4150 C4147 1.499 . S
C4150 C4151 1.373 . S
C4150 C4152 1.389 . S
C4151 H4130 0.950 . S
C4151 C4150 1.373 . S
C4151 C4167 1.377 . S
C4152 C4150 1.389 . S
C4152 C4153 1.524 . S
C4152 C4166 1.377 . S
C4153 C4152 1.524 . S
C4153 C4154 1.397 . S
C4153 C4158 1.363 . S
C4154 H4131 0.950 . S
C4154 C4153 1.397 . S
C4154 C4155 1.334 . S
C4155 H4132 0.950 . S
C4155 C4154 1.334 . S
C4155 C4156 1.287 . S
C4156 C4155 1.287 . S
C4156 C4157 1.524 . S
C4156 H4175 0.913 . S
C4157 H4133 0.950 . S
C4157 C4156 1.524 . S
C4157 C4158 1.415 . S
C4158 H4134 0.950 . S
C4158 C4153 1.363 . S
C4158 C4157 1.415 . S
C4159 H4135 0.951 . S
C4159 C4160 1.366 . S
C4159 C4161 1.388 . S
C4160 C4159 1.366 . S
C4160 C4164 1.385 . S
C4161 H4136 0.951 . S
C4161 C4159 1.388 . S
C4161 C4162 1.366 . S
C4162 C4161 1.366 . S
C4162 C4163 1.414 . S
C4162 C4165 1.499 . S
C4163 H4137 0.950 . S
C4163 C4162 1.414 . S
C4163 C4164 1.374 . S
C4164 H4138 0.950 . S
C4164 C4160 1.385 . S
C4164 C4163 1.374 . S
C4165 C4162 1.499 . S
C4165 C4166 1.373 . S
C4165 C4167 1.389 . S
C4166 H4139 0.950 . S
C4166 C4152 1.377 . S
C4166 C4165 1.373 . S
C4167 C4151 1.377 . S
C4167 C4165 1.389 . S
C4167 C4168 1.524 . S
C4168 C4167 1.524 . S
C4168 C4169 1.397 . S
C4168 C4173 1.363 . S
C4169 H4140 0.950 . S
C4169 C4168 1.397 . S
C4169 C4170 1.334 . S
C4170 H4141 0.950 . S
C4170 C4169 1.334 . S
C4170 C4171 1.287 . S
C4171 C4170 1.287 . S
C4171 C4172 1.524 . S
C4171 H4174 0.999 . S
C4172 H4142 0.950 . S
C4172 C4171 1.524 . S
C4172 C4173 1.415 . S
C4173 H4143 0.950 . S
C4173 C4168 1.363 . S
C4173 C4172 1.415 . S
H4174 C4171 0.999 . S
H4175 C4156 0.913 . S
H4176 C4194 0.951 . S
H4177 C4196 0.951 . S
H4178 C4198 0.950 . S
H4179 C4199 0.950 . S
H4180 C4201 0.950 . S
H4181 C4204 0.950 . S
H4182 C4205 0.950 . S
H4183 C4207 0.950 . S
H4184 C4208 0.950 . S
H4185 C4209 0.951 . S
H4186 C4211 0.951 . S
H4187 C4213 0.950 . S
H4188 C4214 0.950 . S
H4189 C4216 0.950 . S
H4190 C4219 0.950 . S
H4191 C4220 0.950 . S
H4192 C4222 0.950 . S
H4193 C4223 0.950 . S
C4194 H4176 0.951 . S
C4194 C4195 1.366 . S
C4194 C4196 1.388 . S
C4195 C4194 1.366 . S
C4195 C4199 1.385 . S
C4196 H4177 0.951 . S
C4196 C4194 1.388 . S
C4196 C4197 1.366 . S
C4197 C4196 1.366 . S
C4197 C4198 1.414 . S
C4197 C4200 1.499 . S
C4198 H4178 0.950 . S
C4198 C4197 1.414 . S
C4198 C4199 1.374 . S
C4199 H4179 0.950 . S
C4199 C4195 1.385 . S
C4199 C4198 1.374 . S
C4200 C4197 1.499 . S
C4200 C4201 1.373 . S
C4200 C4202 1.389 . S
C4201 H4180 0.950 . S
C4201 C4200 1.373 . S
C4201 C4217 1.377 . S
C4202 C4200 1.389 . S
C4202 C4203 1.524 . S
C4202 C4216 1.377 . S
C4203 C4202 1.524 . S
C4203 C4204 1.397 . S
C4203 C4208 1.363 . S
C4204 H4181 0.950 . S
C4204 C4203 1.397 . S
C4204 C4205 1.334 . S
C4205 H4182 0.950 . S
C4205 C4204 1.334 . S
C4205 C4206 1.287 . S
C4206 C4205 1.287 . S
C4206 C4207 1.524 . S
C4206 H4225 0.913 . S
C4207 H4183 0.950 . S
C4207 C4206 1.524 . S
C4207 C4208 1.415 . S
C4208 H4184 0.950 . S
C4208 C4203 1.363 . S
C4208 C4207 1.415 . S
C4209 H4185 0.951 . S
C4209 C4210 1.366 . S
C4209 C4211 1.388 . S
C4210 C4209 1.366 . S
C4210 C4214 1.385 . S
C4211 H4186 0.951 . S
C4211 C4209 1.388 . S
C4211 C4212 1.366 . S
C4212 C4211 1.366 . S
C4212 C4213 1.414 . S
C4212 C4215 1.499 . S
C4213 H4187 0.950 . S
C4213 C4212 1.414 . S
C4213 C4214 1.374 . S
C4214 H4188 0.950 . S
C4214 C4210 1.385 . S
C4214 C4213 1.374 . S
C4215 C4212 1.499 . S
C4215 C4216 1.373 . S
C4215 C4217 1.389 . S
C4216 H4189 0.950 . S
C4216 C4202 1.377 . S
C4216 C4215 1.373 . S
C4217 C4201 1.377 . S
C4217 C4215 1.389 . S
C4217 C4218 1.524 . S
C4218 C4217 1.524 . S
C4218 C4219 1.397 . S
C4218 C4223 1.363 . S
C4219 H4190 0.950 . S
C4219 C4218 1.397 . S
C4219 C4220 1.334 . S
C4220 H4191 0.950 . S
C4220 C4219 1.334 . S
C4220 C4221 1.287 . S
C4221 C4220 1.287 . S
C4221 C4222 1.524 . S
C4221 H4224 0.999 . S
C4222 H4192 0.950 . S
C4222 C4221 1.524 . S
C4222 C4223 1.415 . S
C4223 H4193 0.950 . S
C4223 C4218 1.363 . S
C4223 C4222 1.415 . S
H4224 C4221 0.999 . S
H4225 C4206 0.913 . S
H4226 C4244 0.951 . S
H4227 C4246 0.951 . S
H4228 C4248 0.950 . S
H4229 C4249 0.950 . S
H4230 C4251 0.950 . S
H4231 C4254 0.950 . S
H4232 C4255 0.950 . S
H4233 C4257 0.950 . S
H4234 C4258 0.950 . S
H4235 C4259 0.951 . S
H4236 C4261 0.951 . S
H4237 C4263 0.950 . S
H4238 C4264 0.950 . S
H4239 C4266 0.950 . S
H4240 C4269 0.950 . S
H4241 C4270 0.950 . S
H4242 C4272 0.950 . S
H4243 C4273 0.950 . S
C4244 H4226 0.951 . S
C4244 C4245 1.366 . S
C4244 C4246 1.388 . S
C4245 C4244 1.366 . S
C4245 C4249 1.385 . S
C4246 H4227 0.951 . S
C4246 C4244 1.388 . S
C4246 C4247 1.366 . S
C4247 C4246 1.366 . S
C4247 C4248 1.414 . S
C4247 C4250 1.499 . S
C4248 H4228 0.950 . S
C4248 C4247 1.414 . S
C4248 C4249 1.374 . S
C4249 H4229 0.950 . S
C4249 C4245 1.385 . S
C4249 C4248 1.374 . S
C4250 C4247 1.499 . S
C4250 C4251 1.373 . S
C4250 C4252 1.389 . S
C4251 H4230 0.950 . S
C4251 C4250 1.373 . S
C4251 C4267 1.377 . S
C4252 C4250 1.389 . S
C4252 C4253 1.524 . S
C4252 C4266 1.377 . S
C4253 C4252 1.524 . S
C4253 C4254 1.397 . S
C4253 C4258 1.363 . S
C4254 H4231 0.950 . S
C4254 C4253 1.397 . S
C4254 C4255 1.334 . S
C4255 H4232 0.950 . S
C4255 C4254 1.334 . S
C4255 C4256 1.287 . S
C4256 C4255 1.287 . S
C4256 C4257 1.524 . S
C4256 H4275 0.913 . S
C4257 H4233 0.950 . S
C4257 C4256 1.524 . S
C4257 C4258 1.415 . S
C4258 H4234 0.950 . S
C4258 C4253 1.363 . S
C4258 C4257 1.415 . S
C4259 H4235 0.951 . S
C4259 C4260 1.366 . S
C4259 C4261 1.388 . S
C4260 C4259 1.366 . S
C4260 C4264 1.385 . S
C4261 H4236 0.951 . S
C4261 C4259 1.388 . S
C4261 C4262 1.366 . S
C4262 C4261 1.366 . S
C4262 C4263 1.414 . S
C4262 C4265 1.499 . S
C4263 H4237 0.950 . S
C4263 C4262 1.414 . S
C4263 C4264 1.374 . S
C4264 H4238 0.950 . S
C4264 C4260 1.385 . S
C4264 C4263 1.374 . S
C4265 C4262 1.499 . S
C4265 C4266 1.373 . S
C4265 C4267 1.389 . S
C4266 H4239 0.950 . S
C4266 C4252 1.377 . S
C4266 C4265 1.373 . S
C4267 C4251 1.377 . S
C4267 C4265 1.389 . S
C4267 C4268 1.524 . S
C4268 C4267 1.524 . S
C4268 C4269 1.397 . S
C4268 C4273 1.363 . S
C4269 H4240 0.950 . S
C4269 C4268 1.397 . S
C4269 C4270 1.334 . S
C4270 H4241 0.950 . S
C4270 C4269 1.334 . S
C4270 C4271 1.287 . S
C4271 C4270 1.287 . S
C4271 C4272 1.524 . S
C4271 H4274 0.999 . S
C4272 H4242 0.950 . S
C4272 C4271 1.524 . S
C4272 C4273 1.415 . S
C4273 H4243 0.950 . S
C4273 C4268 1.363 . S
C4273 C4272 1.415 . S
H4274 C4271 0.999 . S
H4275 C4256 0.913 . S
H4276 C4294 0.951 . S
H4277 C4296 0.951 . S
H4278 C4298 0.950 . S
H4279 C4299 0.950 . S
H4280 C4301 0.950 . S
H4281 C4304 0.950 . S
H4282 C4305 0.950 . S
H4283 C4307 0.950 . S
H4284 C4308 0.950 . S
H4285 C4309 0.951 . S
H4286 C4311 0.951 . S
H4287 C4313 0.950 . S
H4288 C4314 0.950 . S
H4289 C4316 0.950 . S
H4290 C4319 0.950 . S
H4291 C4320 0.950 . S
H4292 C4322 0.950 . S
H4293 C4323 0.950 . S
C4294 H4276 0.951 . S
C4294 C4295 1.366 . S
C4294 C4296 1.388 . S
C4295 C4294 1.366 . S
C4295 C4299 1.385 . S
C4296 H4277 0.951 . S
C4296 C4294 1.388 . S
C4296 C4297 1.366 . S
C4297 C4296 1.366 . S
C4297 C4298 1.414 . S
C4297 C4300 1.499 . S
C4298 H4278 0.950 . S
C4298 C4297 1.414 . S
C4298 C4299 1.374 . S
C4299 H4279 0.950 . S
C4299 C4295 1.385 . S
C4299 C4298 1.374 . S
C4300 C4297 1.499 . S
C4300 C4301 1.373 . S
C4300 C4302 1.389 . S
C4301 H4280 0.950 . S
C4301 C4300 1.373 . S
C4301 C4317 1.377 . S
C4302 C4300 1.389 . S
C4302 C4303 1.524 . S
C4302 C4316 1.377 . S
C4303 C4302 1.524 . S
C4303 C4304 1.397 . S
C4303 C4308 1.363 . S
C4304 H4281 0.950 . S
C4304 C4303 1.397 . S
C4304 C4305 1.334 . S
C4305 H4282 0.950 . S
C4305 C4304 1.334 . S
C4305 C4306 1.287 . S
C4306 C4305 1.287 . S
C4306 C4307 1.524 . S
C4306 H4325 0.913 . S
C4307 H4283 0.950 . S
C4307 C4306 1.524 . S
C4307 C4308 1.415 . S
C4308 H4284 0.950 . S
C4308 C4303 1.363 . S
C4308 C4307 1.415 . S
C4309 H4285 0.951 . S
C4309 C4310 1.366 . S
C4309 C4311 1.388 . S
C4310 C4309 1.366 . S
C4310 C4314 1.385 . S
C4311 H4286 0.951 . S
C4311 C4309 1.388 . S
C4311 C4312 1.366 . S
C4312 C4311 1.366 . S
C4312 C4313 1.414 . S
C4312 C4315 1.499 . S
C4313 H4287 0.950 . S
C4313 C4312 1.414 . S
C4313 C4314 1.374 . S
C4314 H4288 0.950 . S
C4314 C4310 1.385 . S
C4314 C4313 1.374 . S
C4315 C4312 1.499 . S
C4315 C4316 1.373 . S
C4315 C4317 1.389 . S
C4316 H4289 0.950 . S
C4316 C4302 1.377 . S
C4316 C4315 1.373 . S
C4317 C4301 1.377 . S
C4317 C4315 1.389 . S
C4317 C4318 1.524 . S
C4318 C4317 1.524 . S
C4318 C4319 1.397 . S
C4318 C4323 1.363 . S
C4319 H4290 0.950 . S
C4319 C4318 1.397 . S
C4319 C4320 1.334 . S
C4320 H4291 0.950 . S
C4320 C4319 1.334 . S
C4320 C4321 1.287 . S
C4321 C4320 1.287 . S
C4321 C4322 1.524 . S
C4321 H4324 0.999 . S
C4322 H4292 0.950 . S
C4322 C4321 1.524 . S
C4322 C4323 1.415 . S
C4323 H4293 0.950 . S
C4323 C4318 1.363 . S
C4323 C4322 1.415 . S
H4324 C4321 0.999 . S
H4325 C4306 0.913 . S
H4326 C4344 0.951 . S
H4327 C4346 0.951 . S
H4328 C4348 0.950 . S
H4329 C4349 0.950 . S
H4330 C4351 0.950 . S
H4331 C4354 0.950 . S
H4332 C4355 0.950 . S
H4333 C4357 0.950 1_545 S
H4334 C4358 0.950 1_545 S
H4335 C4359 0.951 . S
H4336 C4361 0.951 . S
H4337 C4363 0.950 . S
H4338 C4364 0.950 . S
H4339 C4366 0.950 . S
H4340 C4369 0.950 1_545 S
H4341 C4370 0.950 1_545 S
H4342 C4372 0.950 . S
H4343 C4373 0.950 . S
C4344 H4326 0.951 . S
C4344 C4345 1.366 . S
C4344 C4346 1.388 . S
C4345 C4344 1.366 . S
C4345 C4349 1.385 . S
C4346 H4327 0.951 . S
C4346 C4344 1.388 . S
C4346 C4347 1.366 . S
C4347 C4346 1.366 . S
C4347 C4348 1.414 . S
C4347 C4350 1.499 . S
C4348 H4328 0.950 . S
C4348 C4347 1.414 . S
C4348 C4349 1.374 . S
C4349 H4329 0.950 . S
C4349 C4345 1.385 . S
C4349 C4348 1.374 . S
C4350 C4347 1.499 . S
C4350 C4351 1.373 . S
C4350 C4352 1.389 1_554 S
C4351 H4330 0.950 . S
C4351 C4350 1.373 . S
C4351 C4367 1.377 . S
C4352 C4350 1.389 1_556 S
C4352 C4353 1.524 . S
C4352 C4366 1.377 . S
C4353 C4352 1.524 . S
C4353 C4354 1.397 . S
C4353 C4358 1.363 . S
C4354 H4331 0.950 . S
C4354 C4353 1.397 . S
C4354 C4355 1.334 . S
C4355 H4332 0.950 . S
C4355 C4354 1.334 . S
C4355 C4356 1.287 . S
C4356 C4355 1.287 . S
C4356 C4357 1.524 . S
C4356 H4375 0.913 . S
C4357 H4333 0.950 1_565 S
C4357 C4356 1.524 . S
C4357 C4358 1.415 . S
C4358 H4334 0.950 1_565 S
C4358 C4353 1.363 . S
C4358 C4357 1.415 . S
C4359 H4335 0.951 . S
C4359 C4360 1.366 1_565 S
C4359 C4361 1.388 . S
C4360 C4359 1.366 1_545 S
C4360 C4364 1.385 . S
C4361 H4336 0.951 . S
C4361 C4359 1.388 . S
C4361 C4362 1.366 . S
C4362 C4361 1.366 . S
C4362 C4363 1.414 1_565 S
C4362 C4365 1.499 . S
C4363 H4337 0.950 . S
C4363 C4362 1.414 1_545 S
C4363 C4364 1.374 . S
C4364 H4338 0.950 . S
C4364 C4360 1.385 . S
C4364 C4363 1.374 . S
C4365 C4362 1.499 . S
C4365 C4366 1.373 1_554 S
C4365 C4367 1.389 . S
C4366 H4339 0.950 . S
C4366 C4352 1.377 . S
C4366 C4365 1.373 1_556 S
C4367 C4351 1.377 . S
C4367 C4365 1.389 . S
C4367 C4368 1.524 . S
C4368 C4367 1.524 . S
C4368 C4369 1.397 . S
C4368 C4373 1.363 . S
C4369 H4340 0.950 1_565 S
C4369 C4368 1.397 . S
C4369 C4370 1.334 . S
C4370 H4341 0.950 1_565 S
C4370 C4369 1.334 . S
C4370 C4371 1.287 . S
C4371 C4370 1.287 . S
C4371 C4372 1.524 . S
C4371 H4374 0.999 . S
C4372 H4342 0.950 . S
C4372 C4371 1.524 . S
C4372 C4373 1.415 . S
C4373 H4343 0.950 . S
C4373 C4368 1.363 . S
C4373 C4372 1.415 . S
H4374 C4371 0.999 . S
H4375 C4356 0.913 . S
H4376 C4394 0.951 . S
H4377 C4396 0.951 . S
H4378 C4398 0.950 . S
H4379 C4399 0.950 . S
H4380 C4401 0.950 . S
H4381 C4404 0.950 . S
H4382 C4405 0.950 . S
H4383 C4407 0.950 . S
H4384 C4408 0.950 . S
H4385 C4409 0.951 . S
H4386 C4411 0.951 . S
H4387 C4413 0.950 . S
H4388 C4414 0.950 . S
H4389 C4416 0.950 . S
H4390 C4419 0.950 . S
H4391 C4420 0.950 . S
H4392 C4422 0.950 . S
H4393 C4423 0.950 . S
C4394 H4376 0.951 . S
C4394 C4395 1.366 . S
C4394 C4396 1.388 . S
C4395 C4394 1.366 . S
C4395 C4399 1.385 . S
C4396 H4377 0.951 . S
C4396 C4394 1.388 . S
C4396 C4397 1.366 . S
C4397 C4396 1.366 . S
C4397 C4398 1.414 . S
C4397 C4400 1.499 . S
C4398 H4378 0.950 . S
C4398 C4397 1.414 . S
C4398 C4399 1.374 . S
C4399 H4379 0.950 . S
C4399 C4395 1.385 . S
C4399 C4398 1.374 . S
C4400 C4397 1.499 . S
C4400 C4401 1.373 . S
C4400 C4402 1.389 . S
C4401 H4380 0.950 . S
C4401 C4400 1.373 . S
C4401 C4417 1.377 . S
C4402 C4400 1.389 . S
C4402 C4403 1.524 . S
C4402 C4416 1.377 . S
C4403 C4402 1.524 . S
C4403 C4404 1.397 . S
C4403 C4408 1.363 . S
C4404 H4381 0.950 . S
C4404 C4403 1.397 . S
C4404 C4405 1.334 . S
C4405 H4382 0.950 . S
C4405 C4404 1.334 . S
C4405 C4406 1.287 . S
C4406 C4405 1.287 . S
C4406 C4407 1.524 . S
C4406 H4425 0.913 . S
C4407 H4383 0.950 . S
C4407 C4406 1.524 . S
C4407 C4408 1.415 . S
C4408 H4384 0.950 . S
C4408 C4403 1.363 . S
C4408 C4407 1.415 . S
C4409 H4385 0.951 . S
C4409 C4410 1.366 . S
C4409 C4411 1.388 . S
C4410 C4409 1.366 . S
C4410 C4414 1.385 . S
C4411 H4386 0.951 . S
C4411 C4409 1.388 . S
C4411 C4412 1.366 . S
C4412 C4411 1.366 . S
C4412 C4413 1.414 . S
C4412 C4415 1.499 . S
C4413 H4387 0.950 . S
C4413 C4412 1.414 . S
C4413 C4414 1.374 . S
C4414 H4388 0.950 . S
C4414 C4410 1.385 . S
C4414 C4413 1.374 . S
C4415 C4412 1.499 . S
C4415 C4416 1.373 . S
C4415 C4417 1.389 . S
C4416 H4389 0.950 . S
C4416 C4402 1.377 . S
C4416 C4415 1.373 . S
C4417 C4401 1.377 . S
C4417 C4415 1.389 . S
C4417 C4418 1.524 . S
C4418 C4417 1.524 . S
C4418 C4419 1.397 . S
C4418 C4423 1.363 . S
C4419 H4390 0.950 . S
C4419 C4418 1.397 . S
C4419 C4420 1.334 . S
C4420 H4391 0.950 . S
C4420 C4419 1.334 . S
C4420 C4421 1.287 . S
C4421 C4420 1.287 . S
C4421 C4422 1.524 . S
C4421 H4424 0.999 . S
C4422 H4392 0.950 . S
C4422 C4421 1.524 . S
C4422 C4423 1.415 . S
C4423 H4393 0.950 . S
C4423 C4418 1.363 . S
C4423 C4422 1.415 . S
H4424 C4421 0.999 . S
H4425 C4406 0.913 . S
H4426 C4444 0.951 . S
H4427 C4446 0.951 . S
H4428 C4448 0.950 . S
H4429 C4449 0.950 . S
H4430 C4451 0.950 . S
H4431 C4454 0.950 . S
H4432 C4455 0.950 . S
H4433 C4457 0.950 . S
H4434 C4458 0.953 . S
H4435 C4459 0.951 . S
H4436 C4461 0.951 . S
H4437 C4463 0.950 . S
H4438 C4464 0.950 . S
H4439 C4466 0.950 . S
H4440 C4469 0.950 . S
H4441 C4470 0.950 . S
H4442 C4472 0.950 . S
H4443 C4473 0.950 . S
C4444 H4426 0.951 . S
C4444 C4445 1.366 . S
C4444 C4446 1.388 . S
C4445 C4444 1.366 . S
C4445 C4449 1.385 . S
C4446 H4427 0.951 . S
C4446 C4444 1.388 . S
C4446 C4447 1.366 . S
C4447 C4446 1.366 . S
C4447 C4448 1.414 . S
C4447 C4450 1.499 . S
C4448 H4428 0.950 . S
C4448 C4447 1.414 . S
C4448 C4449 1.374 . S
C4449 H4429 0.950 . S
C4449 C4445 1.385 . S
C4449 C4448 1.374 . S
C4450 C4447 1.499 . S
C4450 C4451 1.373 . S
C4450 C4452 1.389 . S
C4451 H4430 0.950 . S
C4451 C4450 1.373 . S
C4451 C4467 1.377 . S
C4452 C4450 1.389 . S
C4452 C4453 1.524 1_554 S
C4452 C4466 1.377 . S
C4453 C4452 1.524 1_556 S
C4453 C4454 1.397 . S
C4453 C4458 1.363 . S
C4454 H4431 0.950 . S
C4454 C4453 1.397 . S
C4454 C4455 1.334 . S
C4455 H4432 0.950 . S
C4455 C4454 1.334 . S
C4455 C4456 1.287 . S
C4456 C4455 1.287 . S
C4456 C4457 1.524 . S
C4456 H4475 0.913 . S
C4457 H4433 0.950 . S
C4457 C4456 1.524 . S
C4457 C4458 1.415 . S
C4458 H4434 0.953 . S
C4458 C4453 1.363 . S
C4458 C4457 1.415 . S
C4459 H4435 0.951 . S
C4459 C4460 1.366 . S
C4459 C4461 1.388 . S
C4460 C4459 1.366 . S
C4460 C4464 1.385 . S
C4461 H4436 0.951 . S
C4461 C4459 1.388 . S
C4461 C4462 1.366 . S
C4462 C4461 1.366 . S
C4462 C4463 1.414 . S
C4462 C4465 1.499 . S
C4463 H4437 0.950 . S
C4463 C4462 1.414 . S
C4463 C4464 1.374 . S
C4464 H4438 0.950 . S
C4464 C4460 1.385 . S
C4464 C4463 1.374 . S
C4465 C4462 1.499 . S
C4465 C4466 1.373 . S
C4465 C4467 1.389 . S
C4466 H4439 0.950 . S
C4466 C4452 1.377 . S
C4466 C4465 1.373 . S
C4467 C4451 1.377 . S
C4467 C4465 1.389 . S
C4467 C4468 1.524 . S
C4468 C4467 1.524 . S
C4468 C4469 1.397 . S
C4468 C4473 1.363 . S
C4469 H4440 0.950 . S
C4469 C4468 1.397 . S
C4469 C4470 1.334 . S
C4470 H4441 0.950 . S
C4470 C4469 1.334 . S
C4470 C4471 1.287 . S
C4471 C4470 1.287 . S
C4471 C4472 1.524 . S
C4471 H4474 0.999 . S
C4472 H4442 0.950 . S
C4472 C4471 1.524 . S
C4472 C4473 1.415 . S
C4473 H4443 0.950 . S
C4473 C4468 1.363 . S
C4473 C4472 1.415 . S
H4474 C4471 0.999 . S
H4475 C4456 0.913 . S
H4476 C4494 0.951 . S
H4477 C4496 0.951 . S
H4478 C4498 0.950 . S
H4479 C4499 0.950 . S
H4480 C4501 0.950 . S
H4481 C4504 0.950 . S
H4482 C4505 0.950 . S
H4483 C4507 0.950 . S
H4484 C4508 0.950 . S
H4485 C4509 0.951 . S
H4486 C4511 0.951 . S
H4487 C4513 0.950 . S
H4488 C4514 0.950 . S
H4489 C4516 0.950 . S
H4490 C4519 0.950 . S
H4491 C4520 0.950 . S
H4492 C4522 0.950 . S
H4493 C4523 0.950 . S
C4494 H4476 0.951 . S
C4494 C4495 1.366 . S
C4494 C4496 1.388 . S
C4495 C4494 1.366 . S
C4495 C4499 1.385 . S
C4496 H4477 0.951 . S
C4496 C4494 1.388 . S
C4496 C4497 1.366 . S
C4497 C4496 1.366 . S
C4497 C4498 1.414 . S
C4497 C4500 1.499 . S
C4498 H4478 0.950 . S
C4498 C4497 1.414 . S
C4498 C4499 1.374 . S
C4499 H4479 0.950 . S
C4499 C4495 1.385 . S
C4499 C4498 1.374 . S
C4500 C4497 1.499 . S
C4500 C4501 1.373 . S
C4500 C4502 1.389 . S
C4501 H4480 0.950 . S
C4501 C4500 1.373 . S
C4501 C4517 1.377 . S
C4502 C4500 1.389 . S
C4502 C4503 1.524 . S
C4502 C4516 1.377 . S
C4503 C4502 1.524 . S
C4503 C4504 1.397 . S
C4503 C4508 1.363 . S
C4504 H4481 0.950 . S
C4504 C4503 1.397 . S
C4504 C4505 1.334 . S
C4505 H4482 0.950 . S
C4505 C4504 1.334 . S
C4505 C4506 1.287 . S
C4506 C4505 1.287 . S
C4506 C4507 1.524 . S
C4506 H4525 0.913 . S
C4507 H4483 0.950 . S
C4507 C4506 1.524 . S
C4507 C4508 1.415 . S
C4508 H4484 0.950 . S
C4508 C4503 1.363 . S
C4508 C4507 1.415 . S
C4509 H4485 0.951 . S
C4509 C4510 1.366 . S
C4509 C4511 1.388 . S
C4510 C4509 1.366 . S
C4510 C4514 1.385 . S
C4511 H4486 0.951 . S
C4511 C4509 1.388 . S
C4511 C4512 1.366 . S
C4512 C4511 1.366 . S
C4512 C4513 1.414 . S
C4512 C4515 1.499 . S
C4513 H4487 0.950 . S
C4513 C4512 1.414 . S
C4513 C4514 1.374 . S
C4514 H4488 0.950 . S
C4514 C4510 1.385 . S
C4514 C4513 1.374 . S
C4515 C4512 1.499 . S
C4515 C4516 1.373 . S
C4515 C4517 1.389 . S
C4516 H4489 0.950 . S
C4516 C4502 1.377 . S
C4516 C4515 1.373 . S
C4517 C4501 1.377 . S
C4517 C4515 1.389 . S
C4517 C4518 1.524 . S
C4518 C4517 1.524 . S
C4518 C4519 1.397 . S
C4518 C4523 1.363 . S
C4519 H4490 0.950 . S
C4519 C4518 1.397 . S
C4519 C4520 1.334 . S
C4520 H4491 0.950 . S
C4520 C4519 1.334 . S
C4520 C4521 1.287 . S
C4521 C4520 1.287 . S
C4521 C4522 1.524 . S
C4521 H4524 0.999 . S
C4522 H4492 0.950 . S
C4522 C4521 1.524 . S
C4522 C4523 1.415 . S
C4523 H4493 0.950 . S
C4523 C4518 1.363 . S
C4523 C4522 1.415 . S
H4524 C4521 0.999 . S
H4525 C4506 0.913 . S
H4526 C4544 0.951 . S
H4527 C4546 0.951 . S
H4528 C4548 0.950 . S
H4529 C4549 0.950 . S
H4530 C4551 0.950 . S
H4531 C4554 0.950 . S
H4532 C4555 0.950 . S
H4533 C4557 0.950 . S
H4534 C4558 0.950 . S
H4535 C4559 0.951 . S
H4536 C4561 0.951 . S
H4537 C4563 0.950 . S
H4538 C4564 0.950 . S
H4539 C4566 0.950 . S
H4540 C4569 0.950 . S
H4541 C4570 0.950 . S
H4542 C4572 0.950 . S
H4543 C4573 0.950 . S
C4544 H4526 0.951 . S
C4544 C4545 1.366 . S
C4544 C4546 1.388 . S
C4545 C4544 1.366 . S
C4545 C4549 1.385 . S
C4546 H4527 0.951 . S
C4546 C4544 1.388 . S
C4546 C4547 1.366 . S
C4547 C4546 1.366 . S
C4547 C4548 1.414 . S
C4547 C4550 1.499 . S
C4548 H4528 0.950 . S
C4548 C4547 1.414 . S
C4548 C4549 1.374 . S
C4549 H4529 0.950 . S
C4549 C4545 1.385 . S
C4549 C4548 1.374 . S
C4550 C4547 1.499 . S
C4550 C4551 1.373 . S
C4550 C4552 1.389 . S
C4551 H4530 0.950 . S
C4551 C4550 1.373 . S
C4551 C4567 1.377 . S
C4552 C4550 1.389 . S
C4552 C4553 1.524 . S
C4552 C4566 1.377 . S
C4553 C4552 1.524 . S
C4553 C4554 1.397 . S
C4553 C4558 1.363 . S
C4554 H4531 0.950 . S
C4554 C4553 1.397 . S
C4554 C4555 1.334 . S
C4555 H4532 0.950 . S
C4555 C4554 1.334 . S
C4555 C4556 1.287 . S
C4556 C4555 1.287 . S
C4556 C4557 1.524 . S
C4556 H4575 0.913 . S
C4557 H4533 0.950 . S
C4557 C4556 1.524 . S
C4557 C4558 1.415 . S
C4558 H4534 0.950 . S
C4558 C4553 1.363 . S
C4558 C4557 1.415 . S
C4559 H4535 0.951 . S
C4559 C4560 1.366 . S
C4559 C4561 1.388 . S
C4560 C4559 1.366 . S
C4560 C4564 1.385 . S
C4561 H4536 0.951 . S
C4561 C4559 1.388 . S
C4561 C4562 1.366 . S
C4562 C4561 1.366 . S
C4562 C4563 1.414 . S
C4562 C4565 1.499 . S
C4563 H4537 0.950 . S
C4563 C4562 1.414 . S
C4563 C4564 1.374 . S
C4564 H4538 0.950 . S
C4564 C4560 1.385 . S
C4564 C4563 1.374 . S
C4565 C4562 1.499 . S
C4565 C4566 1.373 . S
C4565 C4567 1.389 . S
C4566 H4539 0.950 . S
C4566 C4552 1.377 . S
C4566 C4565 1.373 . S
C4567 C4551 1.377 . S
C4567 C4565 1.389 . S
C4567 C4568 1.524 . S
C4568 C4567 1.524 . S
C4568 C4569 1.397 . S
C4568 C4573 1.363 . S
C4569 H4540 0.950 . S
C4569 C4568 1.397 . S
C4569 C4570 1.334 . S
C4570 H4541 0.950 . S
C4570 C4569 1.334 . S
C4570 C4571 1.287 . S
C4571 C4570 1.287 . S
C4571 C4572 1.524 . S
C4571 H4574 0.999 . S
C4572 H4542 0.950 . S
C4572 C4571 1.524 . S
C4572 C4573 1.415 . S
C4573 H4543 0.950 . S
C4573 C4568 1.363 . S
C4573 C4572 1.415 . S
H4574 C4571 0.999 . S
H4575 C4556 0.913 . S
H4576 C4594 0.951 . S
H4577 C4596 0.951 . S
H4578 C4598 0.950 . S
H4579 C4599 0.950 . S
H4580 C4601 0.950 . S
H4581 C4604 0.950 . S
H4582 C4605 0.950 . S
H4583 C4607 0.950 . S
H4584 C4608 0.950 . S
H4585 C4609 0.951 . S
H4586 C4611 0.951 . S
H4587 C4613 0.950 . S
H4588 C4614 0.950 . S
H4589 C4616 0.950 . S
H4590 C4619 0.950 . S
H4591 C4620 0.950 . S
H4592 C4622 0.950 . S
H4593 C4623 0.950 . S
C4594 H4576 0.951 . S
C4594 C4595 1.366 . S
C4594 C4596 1.388 . S
C4595 C4594 1.366 . S
C4595 C4599 1.385 . S
C4596 H4577 0.951 . S
C4596 C4594 1.388 . S
C4596 C4597 1.366 . S
C4597 C4596 1.366 . S
C4597 C4598 1.414 . S
C4597 C4600 1.499 . S
C4598 H4578 0.950 . S
C4598 C4597 1.414 . S
C4598 C4599 1.374 . S
C4599 H4579 0.950 . S
C4599 C4595 1.385 . S
C4599 C4598 1.374 . S
C4600 C4597 1.499 . S
C4600 C4601 1.373 . S
C4600 C4602 1.389 . S
C4601 H4580 0.950 . S
C4601 C4600 1.373 . S
C4601 C4617 1.377 . S
C4602 C4600 1.389 . S
C4602 C4603 1.524 . S
C4602 C4616 1.377 . S
C4603 C4602 1.524 . S
C4603 C4604 1.397 . S
C4603 C4608 1.363 . S
C4604 H4581 0.950 . S
C4604 C4603 1.397 . S
C4604 C4605 1.334 . S
C4605 H4582 0.950 . S
C4605 C4604 1.334 . S
C4605 C4606 1.287 . S
C4606 C4605 1.287 . S
C4606 C4607 1.524 . S
C4606 H4625 0.913 . S
C4607 H4583 0.950 . S
C4607 C4606 1.524 . S
C4607 C4608 1.415 . S
C4608 H4584 0.950 . S
C4608 C4603 1.363 . S
C4608 C4607 1.415 . S
C4609 H4585 0.951 . S
C4609 C4610 1.366 . S
C4609 C4611 1.388 . S
C4610 C4609 1.366 . S
C4610 C4614 1.385 . S
C4611 H4586 0.951 . S
C4611 C4609 1.388 . S
C4611 C4612 1.366 . S
C4612 C4611 1.366 . S
C4612 C4613 1.414 . S
C4612 C4615 1.499 . S
C4613 H4587 0.950 . S
C4613 C4612 1.414 . S
C4613 C4614 1.374 . S
C4614 H4588 0.950 . S
C4614 C4610 1.385 . S
C4614 C4613 1.374 . S
C4615 C4612 1.499 . S
C4615 C4616 1.373 . S
C4615 C4617 1.389 . S
C4616 H4589 0.950 . S
C4616 C4602 1.377 . S
C4616 C4615 1.373 . S
C4617 C4601 1.377 . S
C4617 C4615 1.389 . S
C4617 C4618 1.524 . S
C4618 C4617 1.524 . S
C4618 C4619 1.397 . S
C4618 C4623 1.363 . S
C4619 H4590 0.950 . S
C4619 C4618 1.397 . S
C4619 C4620 1.334 . S
C4620 H4591 0.950 . S
C4620 C4619 1.334 . S
C4620 C4621 1.287 . S
C4621 C4620 1.287 . S
C4621 C4622 1.524 . S
C4621 H4624 0.999 . S
C4622 H4592 0.950 . S
C4622 C4621 1.524 . S
C4622 C4623 1.415 . S
C4623 H4593 0.950 . S
C4623 C4618 1.363 . S
C4623 C4622 1.415 . S
H4624 C4621 0.999 . S
H4625 C4606 0.913 . S
H4626 C4644 0.951 . S
H4627 C4646 0.951 . S
H4628 C4648 0.950 . S
H4629 C4649 0.950 . S
H4630 C4651 0.950 . S
H4631 C4654 0.950 . S
H4632 C4655 0.950 . S
H4633 C4657 0.950 . S
H4634 C4658 0.950 . S
H4635 C4659 0.951 . S
H4636 C4661 0.951 . S
H4637 C4663 0.950 . S
H4638 C4664 0.950 . S
H4639 C4666 0.950 . S
H4640 C4669 0.950 . S
H4641 C4670 0.950 . S
H4642 C4672 0.950 . S
H4643 C4673 0.950 . S
C4644 H4626 0.951 . S
C4644 C4645 1.366 . S
C4644 C4646 1.388 . S
C4645 C4644 1.366 . S
C4645 C4649 1.385 . S
C4646 H4627 0.951 . S
C4646 C4644 1.388 . S
C4646 C4647 1.366 . S
C4647 C4646 1.366 . S
C4647 C4648 1.414 . S
C4647 C4650 1.499 . S
C4648 H4628 0.950 . S
C4648 C4647 1.414 . S
C4648 C4649 1.374 . S
C4649 H4629 0.950 . S
C4649 C4645 1.385 . S
C4649 C4648 1.374 . S
C4650 C4647 1.499 . S
C4650 C4651 1.373 . S
C4650 C4652 1.389 . S
C4651 H4630 0.950 . S
C4651 C4650 1.373 . S
C4651 C4667 1.377 . S
C4652 C4650 1.389 . S
C4652 C4653 1.524 . S
C4652 C4666 1.377 . S
C4653 C4652 1.524 . S
C4653 C4654 1.397 . S
C4653 C4658 1.363 . S
C4654 H4631 0.950 . S
C4654 C4653 1.397 . S
C4654 C4655 1.334 . S
C4655 H4632 0.950 . S
C4655 C4654 1.334 . S
C4655 C4656 1.287 . S
C4656 C4655 1.287 . S
C4656 C4657 1.524 . S
C4656 H4675 0.913 . S
C4657 H4633 0.950 . S
C4657 C4656 1.524 . S
C4657 C4658 1.415 . S
C4658 H4634 0.950 . S
C4658 C4653 1.363 . S
C4658 C4657 1.415 . S
C4659 H4635 0.951 . S
C4659 C4660 1.366 . S
C4659 C4661 1.388 . S
C4660 C4659 1.366 . S
C4660 C4664 1.385 . S
C4661 H4636 0.951 . S
C4661 C4659 1.388 . S
C4661 C4662 1.366 . S
C4662 C4661 1.366 . S
C4662 C4663 1.414 . S
C4662 C4665 1.499 . S
C4663 H4637 0.950 . S
C4663 C4662 1.414 . S
C4663 C4664 1.374 . S
C4664 H4638 0.950 . S
C4664 C4660 1.385 . S
C4664 C4663 1.374 . S
C4665 C4662 1.499 . S
C4665 C4666 1.373 . S
C4665 C4667 1.389 . S
C4666 H4639 0.950 . S
C4666 C4652 1.377 . S
C4666 C4665 1.373 . S
C4667 C4651 1.377 . S
C4667 C4665 1.389 . S
C4667 C4668 1.524 . S
C4668 C4667 1.524 . S
C4668 C4669 1.397 . S
C4668 C4673 1.363 . S
C4669 H4640 0.950 . S
C4669 C4668 1.397 . S
C4669 C4670 1.334 . S
C4670 H4641 0.950 . S
C4670 C4669 1.334 . S
C4670 C4671 1.287 . S
C4671 C4670 1.287 . S
C4671 C4672 1.524 . S
C4671 H4674 0.999 . S
C4672 H4642 0.950 . S
C4672 C4671 1.524 . S
C4672 C4673 1.415 . S
C4673 H4643 0.950 . S
C4673 C4668 1.363 . S
C4673 C4672 1.415 . S
H4674 C4671 0.999 . S
H4675 C4656 0.913 . S
H4676 C4694 0.951 . S
H4677 C4696 0.951 . S
H4678 C4698 0.950 . S
H4679 C4699 0.950 . S
H4680 C4701 0.950 . S
H4681 C4704 0.950 . S
H4682 C4705 0.950 . S
H4683 C4707 0.950 . S
H4684 C4708 0.950 . S
H4685 C4709 0.951 . S
H4686 C4711 0.951 . S
H4687 C4713 0.950 . S
H4688 C4714 0.950 . S
H4689 C4716 0.950 . S
H4690 C4719 0.950 . S
H4691 C4720 0.950 . S
H4692 C4722 0.950 . S
H4693 C4723 0.950 1_455 S
C4694 H4676 0.951 . S
C4694 C4695 1.366 . S
C4694 C4696 1.388 . S
C4695 C4694 1.366 . S
C4695 C4699 1.385 . S
C4696 H4677 0.951 . S
C4696 C4694 1.388 . S
C4696 C4697 1.366 . S
C4697 C4696 1.366 . S
C4697 C4698 1.414 . S
C4697 C4700 1.499 . S
C4698 H4678 0.950 . S
C4698 C4697 1.414 . S
C4698 C4699 1.374 . S
C4699 H4679 0.950 . S
C4699 C4695 1.385 . S
C4699 C4698 1.374 . S
C4700 C4697 1.499 . S
C4700 C4701 1.373 . S
C4700 C4702 1.389 . S
C4701 H4680 0.950 . S
C4701 C4700 1.373 . S
C4701 C4717 1.377 . S
C4702 C4700 1.389 . S
C4702 C4703 1.524 . S
C4702 C4716 1.377 . S
C4703 C4702 1.524 . S
C4703 C4704 1.397 . S
C4703 C4708 1.363 . S
C4704 H4681 0.950 . S
C4704 C4703 1.397 . S
C4704 C4705 1.334 . S
C4705 H4682 0.950 . S
C4705 C4704 1.334 . S
C4705 C4706 1.287 . S
C4706 C4705 1.287 . S
C4706 C4707 1.524 . S
C4706 H4725 0.913 . S
C4707 H4683 0.950 . S
C4707 C4706 1.524 . S
C4707 C4708 1.415 . S
C4708 H4684 0.950 . S
C4708 C4703 1.363 . S
C4708 C4707 1.415 . S
C4709 H4685 0.951 . S
C4709 C4710 1.366 . S
C4709 C4711 1.388 . S
C4710 C4709 1.366 . S
C4710 C4714 1.385 . S
C4711 H4686 0.951 . S
C4711 C4709 1.388 . S
C4711 C4712 1.366 . S
C4712 C4711 1.366 . S
C4712 C4713 1.414 . S
C4712 C4715 1.499 . S
C4713 H4687 0.950 . S
C4713 C4712 1.414 . S
C4713 C4714 1.374 . S
C4714 H4688 0.950 . S
C4714 C4710 1.385 . S
C4714 C4713 1.374 . S
C4715 C4712 1.499 . S
C4715 C4716 1.373 . S
C4715 C4717 1.389 . S
C4716 H4689 0.950 . S
C4716 C4702 1.377 . S
C4716 C4715 1.373 . S
C4717 C4701 1.377 . S
C4717 C4715 1.389 . S
C4717 C4718 1.524 . S
C4718 C4717 1.524 . S
C4718 C4719 1.397 . S
C4718 C4723 1.363 1_455 S
C4719 H4690 0.950 . S
C4719 C4718 1.397 . S
C4719 C4720 1.334 1_455 S
C4720 H4691 0.950 . S
C4720 C4719 1.334 1_655 S
C4720 C4721 1.287 . S
C4721 C4720 1.287 . S
C4721 C4722 1.524 . S
C4721 H4724 0.999 . S
C4722 H4692 0.950 . S
C4722 C4721 1.524 . S
C4722 C4723 1.415 . S
C4723 H4693 0.950 1_655 S
C4723 C4718 1.363 1_655 S
C4723 C4722 1.415 . S
H4724 C4721 0.999 . S
H4725 C4706 0.913 . S
H4726 C4744 0.951 . S
H4727 C4746 0.951 . S
H4728 C4748 0.950 . S
H4729 C4749 0.950 . S
H4730 C4751 0.950 . S
H4731 C4754 0.950 . S
H4732 C4755 0.950 . S
H4733 C4757 0.950 . S
H4734 C4758 0.950 . S
H4735 C4759 0.951 . S
H4736 C4761 0.951 . S
H4737 C4763 0.950 . S
H4738 C4764 0.950 . S
H4739 C4766 0.950 . S
H4740 C4769 0.950 . S
H4741 C4770 0.950 . S
H4742 C4772 0.950 . S
H4743 C4773 0.950 . S
C4744 H4726 0.951 . S
C4744 C4745 1.366 . S
C4744 C4746 1.388 . S
C4745 C4744 1.366 . S
C4745 C4749 1.385 . S
C4746 H4727 0.951 . S
C4746 C4744 1.388 . S
C4746 C4747 1.366 . S
C4747 C4746 1.366 . S
C4747 C4748 1.414 . S
C4747 C4750 1.499 . S
C4748 H4728 0.950 . S
C4748 C4747 1.414 . S
C4748 C4749 1.374 . S
C4749 H4729 0.950 . S
C4749 C4745 1.385 . S
C4749 C4748 1.374 . S
C4750 C4747 1.499 . S
C4750 C4751 1.373 . S
C4750 C4752 1.389 . S
C4751 H4730 0.950 . S
C4751 C4750 1.373 . S
C4751 C4767 1.377 . S
C4752 C4750 1.389 . S
C4752 C4753 1.524 . S
C4752 C4766 1.377 . S
C4753 C4752 1.524 . S
C4753 C4754 1.397 . S
C4753 C4758 1.363 . S
C4754 H4731 0.950 . S
C4754 C4753 1.397 . S
C4754 C4755 1.334 . S
C4755 H4732 0.950 . S
C4755 C4754 1.334 . S
C4755 C4756 1.287 . S
C4756 C4755 1.287 . S
C4756 C4757 1.524 . S
C4756 H4775 0.913 . S
C4757 H4733 0.950 . S
C4757 C4756 1.524 . S
C4757 C4758 1.415 . S
C4758 H4734 0.950 . S
C4758 C4753 1.363 . S
C4758 C4757 1.415 . S
C4759 H4735 0.951 . S
C4759 C4760 1.366 . S
C4759 C4761 1.388 . S
C4760 C4759 1.366 . S
C4760 C4764 1.385 . S
C4761 H4736 0.951 . S
C4761 C4759 1.388 . S
C4761 C4762 1.366 . S
C4762 C4761 1.366 . S
C4762 C4763 1.414 . S
C4762 C4765 1.499 . S
C4763 H4737 0.950 . S
C4763 C4762 1.414 . S
C4763 C4764 1.374 . S
C4764 H4738 0.950 . S
C4764 C4760 1.385 . S
C4764 C4763 1.374 . S
C4765 C4762 1.499 . S
C4765 C4766 1.373 . S
C4765 C4767 1.389 . S
C4766 H4739 0.950 . S
C4766 C4752 1.377 . S
C4766 C4765 1.373 . S
C4767 C4751 1.377 . S
C4767 C4765 1.389 . S
C4767 C4768 1.524 . S
C4768 C4767 1.524 . S
C4768 C4769 1.397 . S
C4768 C4773 1.363 . S
C4769 H4740 0.950 . S
C4769 C4768 1.397 . S
C4769 C4770 1.334 . S
C4770 H4741 0.950 . S
C4770 C4769 1.334 . S
C4770 C4771 1.287 . S
C4771 C4770 1.287 . S
C4771 C4772 1.524 . S
C4771 H4774 0.999 . S
C4772 H4742 0.950 . S
C4772 C4771 1.524 . S
C4772 C4773 1.415 . S
C4773 H4743 0.950 . S
C4773 C4768 1.363 . S
C4773 C4772 1.415 . S
H4774 C4771 0.999 . S
H4775 C4756 0.913 . S
H4776 C4794 0.951 . S
H4777 C4796 0.951 . S
H4778 C4798 0.950 . S
H4779 C4799 0.950 . S
H4780 C4801 0.950 . S
H4781 C4804 0.950 . S
H4782 C4805 0.950 . S
H4783 C4807 0.950 . S
H4784 C4808 0.950 . S
H4785 C4809 0.951 . S
H4786 C4811 0.951 . S
H4787 C4813 0.950 . S
H4788 C4814 0.950 . S
H4789 C4816 0.950 . S
H4790 C4819 0.950 . S
H4791 C4820 0.950 . S
H4792 C4822 0.950 . S
H4793 C4823 0.950 . S
C4794 H4776 0.951 . S
C4794 C4795 1.366 . S
C4794 C4796 1.388 . S
C4795 C4794 1.366 . S
C4795 C4799 1.385 . S
C4796 H4777 0.951 . S
C4796 C4794 1.388 . S
C4796 C4797 1.366 . S
C4797 C4796 1.366 . S
C4797 C4798 1.414 . S
C4797 C4800 1.499 . S
C4798 H4778 0.950 . S
C4798 C4797 1.414 . S
C4798 C4799 1.374 . S
C4799 H4779 0.950 . S
C4799 C4795 1.385 . S
C4799 C4798 1.374 . S
C4800 C4797 1.499 . S
C4800 C4801 1.373 . S
C4800 C4802 1.389 . S
C4801 H4780 0.950 . S
C4801 C4800 1.373 . S
C4801 C4817 1.377 . S
C4802 C4800 1.389 . S
C4802 C4803 1.524 . S
C4802 C4816 1.377 . S
C4803 C4802 1.524 . S
C4803 C4804 1.397 . S
C4803 C4808 1.363 . S
C4804 H4781 0.950 . S
C4804 C4803 1.397 . S
C4804 C4805 1.334 . S
C4805 H4782 0.950 . S
C4805 C4804 1.334 . S
C4805 C4806 1.287 . S
C4806 C4805 1.287 . S
C4806 C4807 1.524 . S
C4806 H4825 0.913 . S
C4807 H4783 0.950 . S
C4807 C4806 1.524 . S
C4807 C4808 1.415 . S
C4808 H4784 0.950 . S
C4808 C4803 1.363 . S
C4808 C4807 1.415 . S
C4809 H4785 0.951 . S
C4809 C4810 1.366 . S
C4809 C4811 1.388 . S
C4810 C4809 1.366 . S
C4810 C4814 1.385 . S
C4811 H4786 0.951 . S
C4811 C4809 1.388 . S
C4811 C4812 1.366 . S
C4812 C4811 1.366 . S
C4812 C4813 1.414 . S
C4812 C4815 1.499 . S
C4813 H4787 0.950 . S
C4813 C4812 1.414 . S
C4813 C4814 1.374 . S
C4814 H4788 0.950 . S
C4814 C4810 1.385 . S
C4814 C4813 1.374 . S
C4815 C4812 1.499 . S
C4815 C4816 1.373 . S
C4815 C4817 1.389 . S
C4816 H4789 0.950 . S
C4816 C4802 1.377 . S
C4816 C4815 1.373 . S
C4817 C4801 1.377 . S
C4817 C4815 1.389 . S
C4817 C4818 1.524 . S
C4818 C4817 1.524 . S
C4818 C4819 1.397 . S
C4818 C4823 1.363 . S
C4819 H4790 0.950 . S
C4819 C4818 1.397 . S
C4819 C4820 1.334 1_556 S
C4820 H4791 0.950 . S
C4820 C4819 1.334 1_554 S
C4820 C4821 1.287 . S
C4821 C4820 1.287 . S
C4821 C4822 1.524 1_554 S
C4821 H4824 0.999 . S
C4822 H4792 0.950 . S
C4822 C4821 1.524 1_556 S
C4822 C4823 1.415 . S
C4823 H4793 0.950 . S
C4823 C4818 1.363 . S
C4823 C4822 1.415 . S
H4824 C4821 0.999 . S
H4825 C4806 0.913 . S
H4826 C4844 0.951 . S
H4827 C4846 0.951 . S
H4828 C4848 0.950 . S
H4829 C4849 0.950 . S
H4830 C4851 0.950 . S
H4831 C4854 0.950 . S
H4832 C4855 0.950 . S
H4833 C4857 0.950 . S
H4834 C4858 0.950 . S
H4835 C4859 0.951 . S
H4836 C4861 0.951 . S
H4837 C4863 0.950 . S
H4838 C4864 0.950 . S
H4839 C4866 0.950 . S
H4840 C4869 0.950 . S
H4841 C4870 0.950 . S
H4842 C4872 0.950 . S
H4843 C4873 0.950 . S
C4844 H4826 0.951 . S
C4844 C4845 1.366 . S
C4844 C4846 1.388 . S
C4845 C4844 1.366 . S
C4845 C4849 1.385 . S
C4846 H4827 0.951 . S
C4846 C4844 1.388 . S
C4846 C4847 1.366 . S
C4847 C4846 1.366 . S
C4847 C4848 1.414 . S
C4847 C4850 1.499 . S
C4848 H4828 0.950 . S
C4848 C4847 1.414 . S
C4848 C4849 1.374 . S
C4849 H4829 0.950 . S
C4849 C4845 1.385 . S
C4849 C4848 1.374 . S
C4850 C4847 1.499 . S
C4850 C4851 1.373 . S
C4850 C4852 1.389 . S
C4851 H4830 0.950 . S
C4851 C4850 1.373 . S
C4851 C4867 1.377 . S
C4852 C4850 1.389 . S
C4852 C4853 1.524 . S
C4852 C4866 1.377 . S
C4853 C4852 1.524 . S
C4853 C4854 1.397 . S
C4853 C4858 1.363 . S
C4854 H4831 0.950 . S
C4854 C4853 1.397 . S
C4854 C4855 1.334 . S
C4855 H4832 0.950 . S
C4855 C4854 1.334 . S
C4855 C4856 1.287 . S
C4856 C4855 1.287 . S
C4856 C4857 1.524 . S
C4856 H4875 0.913 . S
C4857 H4833 0.950 . S
C4857 C4856 1.524 . S
C4857 C4858 1.415 . S
C4858 H4834 0.950 . S
C4858 C4853 1.363 . S
C4858 C4857 1.415 . S
C4859 H4835 0.951 . S
C4859 C4860 1.366 . S
C4859 C4861 1.388 . S
C4860 C4859 1.366 . S
C4860 C4864 1.385 . S
C4861 H4836 0.951 . S
C4861 C4859 1.388 . S
C4861 C4862 1.366 . S
C4862 C4861 1.366 . S
C4862 C4863 1.414 . S
C4862 C4865 1.499 . S
C4863 H4837 0.950 . S
C4863 C4862 1.414 . S
C4863 C4864 1.374 . S
C4864 H4838 0.950 . S
C4864 C4860 1.385 . S
C4864 C4863 1.374 . S
C4865 C4862 1.499 . S
C4865 C4866 1.373 . S
C4865 C4867 1.389 . S
C4866 H4839 0.950 . S
C4866 C4852 1.377 . S
C4866 C4865 1.373 . S
C4867 C4851 1.377 . S
C4867 C4865 1.389 . S
C4867 C4868 1.524 . S
C4868 C4867 1.524 . S
C4868 C4869 1.397 . S
C4868 C4873 1.363 . S
C4869 H4840 0.950 . S
C4869 C4868 1.397 . S
C4869 C4870 1.334 . S
C4870 H4841 0.950 . S
C4870 C4869 1.334 . S
C4870 C4871 1.287 . S
C4871 C4870 1.287 . S
C4871 C4872 1.524 . S
C4871 H4874 0.999 . S
C4872 H4842 0.950 . S
C4872 C4871 1.524 . S
C4872 C4873 1.415 . S
C4873 H4843 0.950 . S
C4873 C4868 1.363 . S
C4873 C4872 1.415 . S
H4874 C4871 0.999 . S
H4875 C4856 0.913 . S
H4876 C4894 0.951 . S
H4877 C4896 0.951 . S
H4878 C4898 0.950 . S
H4879 C4899 0.950 . S
H4880 C4901 0.950 . S
H4881 C4904 0.950 . S
H4882 C4905 0.950 . S
H4883 C4907 0.950 . S
H4884 C4908 0.950 . S
H4885 C4909 0.951 . S
H4886 C4911 0.951 . S
H4887 C4913 0.950 . S
H4888 C4914 0.950 . S
H4889 C4916 0.950 . S
H4890 C4919 0.950 . S
H4891 C4920 0.948 1_655 S
H4892 C4922 0.950 . S
H4893 C4923 0.950 . S
C4894 H4876 0.951 . S
C4894 C4895 1.366 . S
C4894 C4896 1.388 . S
C4895 C4894 1.366 . S
C4895 C4899 1.385 . S
C4896 H4877 0.951 . S
C4896 C4894 1.388 . S
C4896 C4897 1.366 . S
C4897 C4896 1.366 . S
C4897 C4898 1.414 . S
C4897 C4900 1.499 . S
C4898 H4878 0.950 . S
C4898 C4897 1.414 . S
C4898 C4899 1.374 . S
C4899 H4879 0.950 . S
C4899 C4895 1.385 . S
C4899 C4898 1.374 . S
C4900 C4897 1.499 . S
C4900 C4901 1.373 . S
C4900 C4902 1.389 . S
C4901 H4880 0.950 . S
C4901 C4900 1.373 . S
C4901 C4917 1.377 . S
C4902 C4900 1.389 . S
C4902 C4903 1.524 . S
C4902 C4916 1.377 . S
C4903 C4902 1.524 . S
C4903 C4904 1.397 . S
C4903 C4908 1.363 . S
C4904 H4881 0.950 . S
C4904 C4903 1.397 . S
C4904 C4905 1.334 . S
C4905 H4882 0.950 . S
C4905 C4904 1.334 . S
C4905 C4906 1.287 . S
C4906 C4905 1.287 . S
C4906 C4907 1.524 . S
C4906 H4925 0.913 . S
C4907 H4883 0.950 . S
C4907 C4906 1.524 . S
C4907 C4908 1.415 . S
C4908 H4884 0.950 . S
C4908 C4903 1.363 . S
C4908 C4907 1.415 . S
C4909 H4885 0.951 . S
C4909 C4910 1.366 . S
C4909 C4911 1.388 . S
C4910 C4909 1.366 . S
C4910 C4914 1.385 . S
C4911 H4886 0.951 . S
C4911 C4909 1.388 . S
C4911 C4912 1.366 . S
C4912 C4911 1.366 . S
C4912 C4913 1.414 . S
C4912 C4915 1.499 . S
C4913 H4887 0.950 . S
C4913 C4912 1.414 . S
C4913 C4914 1.374 . S
C4914 H4888 0.950 . S
C4914 C4910 1.385 . S
C4914 C4913 1.374 . S
C4915 C4912 1.499 . S
C4915 C4916 1.373 . S
C4915 C4917 1.389 . S
C4916 H4889 0.950 . S
C4916 C4902 1.377 . S
C4916 C4915 1.373 . S
C4917 C4901 1.377 . S
C4917 C4915 1.389 . S
C4917 C4918 1.524 . S
C4918 C4917 1.524 . S
C4918 C4919 1.397 . S
C4918 C4923 1.363 . S
C4919 H4890 0.950 . S
C4919 C4918 1.397 . S
C4919 C4920 1.341 . S
C4920 H4891 0.948 1_455 S
C4920 C4919 1.341 . S
C4920 C4921 1.282 1_455 S
C4921 C4920 1.282 1_655 S
C4921 C4922 1.524 . S
C4921 H4924 0.999 . S
C4922 H4892 0.950 . S
C4922 C4921 1.524 . S
C4922 C4923 1.415 1_655 S
C4923 H4893 0.950 . S
C4923 C4918 1.363 . S
C4923 C4922 1.415 1_455 S
H4924 C4921 0.999 . S
H4925 C4906 0.913 . S
H4926 C4944 0.951 . S
H4927 C4946 0.951 . S
H4928 C4948 0.950 . S
H4929 C4949 0.950 . S
H4930 C4951 0.950 . S
H4931 C4954 0.950 . S
H4932 C4955 0.950 . S
H4933 C4957 0.950 . S
H4934 C4958 0.950 . S
H4935 C4959 0.951 . S
H4936 C4961 0.951 . S
H4937 C4963 0.950 . S
H4938 C4964 0.950 . S
H4939 C4966 0.950 . S
H4940 C4969 0.950 . S
H4941 C4970 0.950 . S
H4942 C4972 0.950 . S
H4943 C4973 0.950 . S
C4944 H4926 0.951 . S
C4944 C4945 1.366 . S
C4944 C4946 1.388 . S
C4945 C4944 1.366 . S
C4945 C4949 1.385 . S
C4946 H4927 0.951 . S
C4946 C4944 1.388 . S
C4946 C4947 1.366 . S
C4947 C4946 1.366 . S
C4947 C4948 1.414 . S
C4947 C4950 1.499 . S
C4948 H4928 0.950 . S
C4948 C4947 1.414 . S
C4948 C4949 1.374 . S
C4949 H4929 0.950 . S
C4949 C4945 1.385 . S
C4949 C4948 1.374 . S
C4950 C4947 1.499 . S
C4950 C4951 1.373 . S
C4950 C4952 1.389 . S
C4951 H4930 0.950 . S
C4951 C4950 1.373 . S
C4951 C4967 1.377 . S
C4952 C4950 1.389 . S
C4952 C4953 1.524 . S
C4952 C4966 1.377 . S
C4953 C4952 1.524 . S
C4953 C4954 1.397 . S
C4953 C4958 1.363 . S
C4954 H4931 0.950 . S
C4954 C4953 1.397 . S
C4954 C4955 1.334 . S
C4955 H4932 0.950 . S
C4955 C4954 1.334 . S
C4955 C4956 1.287 . S
C4956 C4955 1.287 . S
C4956 C4957 1.524 . S
C4956 H4975 0.913 . S
C4957 H4933 0.950 . S
C4957 C4956 1.524 . S
C4957 C4958 1.415 . S
C4958 H4934 0.950 . S
C4958 C4953 1.363 . S
C4958 C4957 1.415 . S
C4959 H4935 0.951 . S
C4959 C4960 1.366 . S
C4959 C4961 1.388 . S
C4960 C4959 1.366 . S
C4960 C4964 1.385 . S
C4961 H4936 0.951 . S
C4961 C4959 1.388 . S
C4961 C4962 1.366 . S
C4962 C4961 1.366 . S
C4962 C4963 1.414 . S
C4962 C4965 1.499 . S
C4963 H4937 0.950 . S
C4963 C4962 1.414 . S
C4963 C4964 1.374 . S
C4964 H4938 0.950 . S
C4964 C4960 1.385 . S
C4964 C4963 1.374 . S
C4965 C4962 1.499 . S
C4965 C4966 1.373 . S
C4965 C4967 1.389 . S
C4966 H4939 0.950 . S
C4966 C4952 1.377 . S
C4966 C4965 1.373 . S
C4967 C4951 1.377 . S
C4967 C4965 1.389 . S
C4967 C4968 1.524 . S
C4968 C4967 1.524 . S
C4968 C4969 1.397 . S
C4968 C4973 1.363 . S
C4969 H4940 0.950 . S
C4969 C4968 1.397 . S
C4969 C4970 1.334 . S
C4970 H4941 0.950 . S
C4970 C4969 1.334 . S
C4970 C4971 1.287 . S
C4971 C4970 1.287 . S
C4971 C4972 1.524 . S
C4971 H4974 0.999 . S
C4972 H4942 0.950 . S
C4972 C4971 1.524 . S
C4972 C4973 1.415 . S
C4973 H4943 0.950 . S
C4973 C4968 1.363 . S
C4973 C4972 1.415 . S
H4974 C4971 0.999 . S
H4975 C4956 0.913 . S
H4976 C4994 0.951 . S
H4977 C4996 0.951 . S
H4978 C4998 0.950 . S
H4979 C4999 0.950 . S
H4980 C5001 0.950 . S
H4981 C5004 0.950 . S
H4982 C5005 0.950 . S
H4983 C5007 0.950 . S
H4984 C5008 0.950 . S
H4985 C5009 0.951 . S
H4986 C5011 0.951 . S
H4987 C5013 0.950 . S
H4988 C5014 0.950 . S
H4989 C5016 0.950 . S
H4990 C5019 0.950 . S
H4991 C5020 0.950 . S
H4992 C5022 0.950 . S
H4993 C5023 0.950 . S
C4994 H4976 0.951 . S
C4994 C4995 1.366 . S
C4994 C4996 1.388 . S
C4995 C4994 1.366 . S
C4995 C4999 1.385 . S
C4996 H4977 0.951 . S
C4996 C4994 1.388 . S
C4996 C4997 1.366 . S
C4997 C4996 1.366 . S
C4997 C4998 1.414 . S
C4997 C5000 1.499 . S
C4998 H4978 0.950 . S
C4998 C4997 1.414 . S
C4998 C4999 1.374 . S
C4999 H4979 0.950 . S
C4999 C4995 1.385 . S
C4999 C4998 1.374 . S
C5000 C4997 1.499 . S
C5000 C5001 1.373 . S
C5000 C5002 1.389 . S
C5001 H4980 0.950 . S
C5001 C5000 1.373 . S
C5001 C5017 1.377 . S
C5002 C5000 1.389 . S
C5002 C5003 1.524 . S
C5002 C5016 1.377 . S
C5003 C5002 1.524 . S
C5003 C5004 1.397 . S
C5003 C5008 1.363 . S
C5004 H4981 0.950 . S
C5004 C5003 1.397 . S
C5004 C5005 1.334 . S
C5005 H4982 0.950 . S
C5005 C5004 1.334 . S
C5005 C5006 1.287 . S
C5006 C5005 1.287 . S
C5006 C5007 1.524 . S
C5006 H5025 0.913 . S
C5007 H4983 0.950 . S
C5007 C5006 1.524 . S
C5007 C5008 1.415 . S
C5008 H4984 0.950 . S
C5008 C5003 1.363 . S
C5008 C5007 1.415 . S
C5009 H4985 0.951 . S
C5009 C5010 1.366 . S
C5009 C5011 1.388 . S
C5010 C5009 1.366 . S
C5010 C5014 1.385 . S
C5011 H4986 0.951 . S
C5011 C5009 1.388 . S
C5011 C5012 1.366 . S
C5012 C5011 1.366 . S
C5012 C5013 1.414 . S
C5012 C5015 1.499 . S
C5013 H4987 0.950 . S
C5013 C5012 1.414 . S
C5013 C5014 1.374 . S
C5014 H4988 0.950 . S
C5014 C5010 1.385 . S
C5014 C5013 1.374 . S
C5015 C5012 1.499 . S
C5015 C5016 1.373 . S
C5015 C5017 1.389 . S
C5016 H4989 0.950 . S
C5016 C5002 1.377 . S
C5016 C5015 1.373 . S
C5017 C5001 1.377 . S
C5017 C5015 1.389 . S
C5017 C5018 1.524 . S
C5018 C5017 1.524 . S
C5018 C5019 1.397 . S
C5018 C5023 1.363 . S
C5019 H4990 0.950 . S
C5019 C5018 1.397 . S
C5019 C5020 1.334 . S
C5020 H4991 0.950 . S
C5020 C5019 1.334 . S
C5020 C5021 1.287 . S
C5021 C5020 1.287 . S
C5021 C5022 1.524 . S
C5021 H5024 0.999 . S
C5022 H4992 0.950 . S
C5022 C5021 1.524 . S
C5022 C5023 1.415 . S
C5023 H4993 0.950 . S
C5023 C5018 1.363 . S
C5023 C5022 1.415 . S
H5024 C5021 0.999 . S
H5025 C5006 0.913 . S
H5026 C5044 0.951 . S
H5027 C5046 0.951 . S
H5028 C5048 0.950 . S
H5029 C5049 0.950 . S
H5030 C5051 0.950 . S
H5031 C5054 0.950 . S
H5032 C5055 0.950 . S
H5033 C5057 0.950 . S
H5034 C5058 0.950 . S
H5035 C5059 0.951 . S
H5036 C5061 0.951 . S
H5037 C5063 0.950 . S
H5038 C5064 0.950 . S
H5039 C5066 0.950 . S
H5040 C5069 0.950 . S
H5041 C5070 0.950 . S
H5042 C5072 0.950 . S
H5043 C5073 0.950 . S
C5044 H5026 0.951 . S
C5044 C5045 1.366 . S
C5044 C5046 1.388 . S
C5045 C5044 1.366 . S
C5045 C5049 1.385 . S
C5046 H5027 0.951 . S
C5046 C5044 1.388 . S
C5046 C5047 1.366 . S
C5047 C5046 1.366 . S
C5047 C5048 1.414 . S
C5047 C5050 1.499 . S
C5048 H5028 0.950 . S
C5048 C5047 1.414 . S
C5048 C5049 1.374 . S
C5049 H5029 0.950 . S
C5049 C5045 1.385 . S
C5049 C5048 1.374 . S
C5050 C5047 1.499 . S
C5050 C5051 1.373 . S
C5050 C5052 1.389 . S
C5051 H5030 0.950 . S
C5051 C5050 1.373 . S
C5051 C5067 1.377 . S
C5052 C5050 1.389 . S
C5052 C5053 1.524 . S
C5052 C5066 1.377 . S
C5053 C5052 1.524 . S
C5053 C5054 1.397 . S
C5053 C5058 1.363 . S
C5054 H5031 0.950 . S
C5054 C5053 1.397 . S
C5054 C5055 1.334 . S
C5055 H5032 0.950 . S
C5055 C5054 1.334 . S
C5055 C5056 1.287 . S
C5056 C5055 1.287 . S
C5056 C5057 1.524 . S
C5056 H5075 0.913 . S
C5057 H5033 0.950 . S
C5057 C5056 1.524 . S
C5057 C5058 1.415 . S
C5058 H5034 0.950 . S
C5058 C5053 1.363 . S
C5058 C5057 1.415 . S
C5059 H5035 0.951 . S
C5059 C5060 1.366 . S
C5059 C5061 1.388 . S
C5060 C5059 1.366 . S
C5060 C5064 1.385 . S
C5061 H5036 0.951 . S
C5061 C5059 1.388 . S
C5061 C5062 1.366 . S
C5062 C5061 1.366 . S
C5062 C5063 1.414 . S
C5062 C5065 1.499 . S
C5063 H5037 0.950 . S
C5063 C5062 1.414 . S
C5063 C5064 1.374 . S
C5064 H5038 0.950 . S
C5064 C5060 1.385 . S
C5064 C5063 1.374 . S
C5065 C5062 1.499 . S
C5065 C5066 1.373 . S
C5065 C5067 1.389 . S
C5066 H5039 0.950 . S
C5066 C5052 1.377 . S
C5066 C5065 1.373 . S
C5067 C5051 1.377 . S
C5067 C5065 1.389 . S
C5067 C5068 1.524 . S
C5068 C5067 1.524 . S
C5068 C5069 1.397 . S
C5068 C5073 1.363 . S
C5069 H5040 0.950 . S
C5069 C5068 1.397 . S
C5069 C5070 1.334 . S
C5070 H5041 0.950 . S
C5070 C5069 1.334 . S
C5070 C5071 1.287 . S
C5071 C5070 1.287 . S
C5071 C5072 1.524 . S
C5071 H5074 0.999 . S
C5072 H5042 0.950 . S
C5072 C5071 1.524 . S
C5072 C5073 1.415 . S
C5073 H5043 0.950 . S
C5073 C5068 1.363 . S
C5073 C5072 1.415 . S
H5074 C5071 0.999 . S
H5075 C5056 0.913 . S
H5076 C5094 0.951 . S
H5077 C5096 0.951 . S
H5078 C5098 0.950 . S
H5079 C5099 0.950 . S
H5080 C5101 0.950 . S
H5081 C5104 0.950 . S
H5082 C5105 0.950 . S
H5083 C5107 0.950 . S
H5084 C5108 0.950 . S
H5085 C5109 0.951 . S
H5086 C5111 0.951 . S
H5087 C5113 0.950 . S
H5088 C5114 0.950 . S
H5089 C5116 0.950 1_455 S
H5090 C5119 0.950 . S
H5091 C5120 0.950 . S
H5092 C5122 0.950 . S
H5093 C5123 0.950 . S
C5094 H5076 0.951 . S
C5094 C5095 1.366 . S
C5094 C5096 1.388 . S
C5095 C5094 1.366 . S
C5095 C5099 1.385 . S
C5096 H5077 0.951 . S
C5096 C5094 1.388 . S
C5096 C5097 1.366 . S
C5097 C5096 1.366 . S
C5097 C5098 1.414 . S
C5097 C5100 1.499 . S
C5098 H5078 0.950 . S
C5098 C5097 1.414 . S
C5098 C5099 1.374 . S
C5099 H5079 0.950 . S
C5099 C5095 1.385 . S
C5099 C5098 1.374 . S
C5100 C5097 1.499 . S
C5100 C5101 1.373 . S
C5100 C5102 1.389 . S
C5101 H5080 0.950 . S
C5101 C5100 1.373 . S
C5101 C5117 1.377 . S
C5102 C5100 1.389 . S
C5102 C5103 1.524 . S
C5102 C5116 1.377 . S
C5103 C5102 1.524 . S
C5103 C5104 1.397 . S
C5103 C5108 1.363 1_655 S
C5104 H5081 0.950 . S
C5104 C5103 1.397 . S
C5104 C5105 1.334 . S
C5105 H5082 0.950 . S
C5105 C5104 1.334 . S
C5105 C5106 1.287 1_655 S
C5106 C5105 1.287 1_455 S
C5106 C5107 1.524 . S
C5106 H5125 0.913 . S
C5107 H5083 0.950 . S
C5107 C5106 1.524 . S
C5107 C5108 1.415 . S
C5108 H5084 0.950 . S
C5108 C5103 1.363 1_455 S
C5108 C5107 1.415 . S
C5109 H5085 0.951 . S
C5109 C5110 1.366 1_655 S
C5109 C5111 1.388 . S
C5110 C5109 1.366 1_455 S
C5110 C5114 1.385 . S
C5111 H5086 0.951 . S
C5111 C5109 1.388 . S
C5111 C5112 1.366 . S
C5112 C5111 1.366 . S
C5112 C5113 1.414 1_655 S
C5112 C5115 1.499 . S
C5113 H5087 0.950 . S
C5113 C5112 1.414 1_455 S
C5113 C5114 1.374 . S
C5114 H5088 0.950 . S
C5114 C5110 1.385 . S
C5114 C5113 1.374 . S
C5115 C5112 1.499 . S
C5115 C5116 1.373 . S
C5115 C5117 1.389 . S
C5116 H5089 0.950 1_655 S
C5116 C5102 1.377 . S
C5116 C5115 1.373 . S
C5117 C5101 1.377 . S
C5117 C5115 1.389 . S
C5117 C5118 1.524 . S
C5118 C5117 1.524 . S
C5118 C5119 1.397 . S
C5118 C5123 1.363 . S
C5119 H5090 0.950 . S
C5119 C5118 1.397 . S
C5119 C5120 1.334 . S
C5120 H5091 0.950 . S
C5120 C5119 1.334 . S
C5120 C5121 1.287 . S
C5121 C5120 1.287 . S
C5121 C5122 1.524 . S
C5121 H5124 0.999 . S
C5122 H5092 0.950 . S
C5122 C5121 1.524 . S
C5122 C5123 1.415 . S
C5123 H5093 0.950 . S
C5123 C5118 1.363 . S
C5123 C5122 1.415 . S
H5124 C5121 0.999 . S
H5125 C5106 0.913 . S
H5126 C5144 0.951 . S
H5127 C5146 0.951 . S
H5128 C5148 0.950 . S
H5129 C5149 0.950 . S
H5130 C5151 0.950 . S
H5131 C5154 0.950 . S
H5132 C5155 0.950 . S
H5133 C5157 0.950 . S
H5134 C5158 0.950 . S
H5135 C5159 0.951 . S
H5136 C5161 0.951 . S
H5137 C5163 0.950 . S
H5138 C5164 0.950 . S
H5139 C5166 0.950 . S
H5140 C5169 0.950 . S
H5141 C5170 0.950 . S
H5142 C5172 0.950 . S
H5143 C5173 0.950 . S
C5144 H5126 0.951 . S
C5144 C5145 1.366 . S
C5144 C5146 1.388 . S
C5145 C5144 1.366 . S
C5145 C5149 1.385 . S
C5146 H5127 0.951 . S
C5146 C5144 1.388 . S
C5146 C5147 1.366 . S
C5147 C5146 1.366 . S
C5147 C5148 1.414 . S
C5147 C5150 1.499 . S
C5148 H5128 0.950 . S
C5148 C5147 1.414 . S
C5148 C5149 1.374 . S
C5149 H5129 0.950 . S
C5149 C5145 1.385 . S
C5149 C5148 1.374 . S
C5150 C5147 1.499 . S
C5150 C5151 1.373 . S
C5150 C5152 1.389 . S
C5151 H5130 0.950 . S
C5151 C5150 1.373 . S
C5151 C5167 1.377 . S
C5152 C5150 1.389 . S
C5152 C5153 1.524 . S
C5152 C5166 1.377 . S
C5153 C5152 1.524 . S
C5153 C5154 1.397 . S
C5153 C5158 1.363 . S
C5154 H5131 0.950 . S
C5154 C5153 1.397 . S
C5154 C5155 1.334 . S
C5155 H5132 0.950 . S
C5155 C5154 1.334 . S
C5155 C5156 1.287 . S
C5156 C5155 1.287 . S
C5156 C5157 1.524 . S
C5156 H5175 0.913 . S
C5157 H5133 0.950 . S
C5157 C5156 1.524 . S
C5157 C5158 1.415 . S
C5158 H5134 0.950 . S
C5158 C5153 1.363 . S
C5158 C5157 1.415 . S
C5159 H5135 0.951 . S
C5159 C5160 1.366 . S
C5159 C5161 1.388 . S
C5160 C5159 1.366 . S
C5160 C5164 1.385 . S
C5161 H5136 0.951 . S
C5161 C5159 1.388 . S
C5161 C5162 1.366 . S
C5162 C5161 1.366 . S
C5162 C5163 1.414 . S
C5162 C5165 1.499 . S
C5163 H5137 0.950 . S
C5163 C5162 1.414 . S
C5163 C5164 1.374 . S
C5164 H5138 0.950 . S
C5164 C5160 1.385 . S
C5164 C5163 1.374 . S
C5165 C5162 1.499 . S
C5165 C5166 1.373 . S
C5165 C5167 1.389 . S
C5166 H5139 0.950 . S
C5166 C5152 1.377 . S
C5166 C5165 1.373 . S
C5167 C5151 1.377 . S
C5167 C5165 1.389 . S
C5167 C5168 1.524 . S
C5168 C5167 1.524 . S
C5168 C5169 1.397 . S
C5168 C5173 1.363 . S
C5169 H5140 0.950 . S
C5169 C5168 1.397 . S
C5169 C5170 1.334 . S
C5170 H5141 0.950 . S
C5170 C5169 1.334 . S
C5170 C5171 1.287 . S
C5171 C5170 1.287 . S
C5171 C5172 1.524 . S
C5171 H5174 0.999 . S
C5172 H5142 0.950 . S
C5172 C5171 1.524 . S
C5172 C5173 1.415 . S
C5173 H5143 0.950 . S
C5173 C5168 1.363 . S
C5173 C5172 1.415 . S
H5174 C5171 0.999 . S
H5175 C5156 0.913 . S
H5176 C5194 0.951 . S
H5177 C5196 0.951 . S
H5178 C5198 0.950 . S
H5179 C5199 0.950 . S
H5180 C5201 0.950 . S
H5181 C5204 0.950 . S
H5182 C5205 0.950 . S
H5183 C5207 0.950 . S
H5184 C5208 0.950 . S
H5185 C5209 0.951 . S
H5186 C5211 0.951 . S
H5187 C5213 0.950 . S
H5188 C5214 0.950 . S
H5189 C5216 0.950 . S
H5190 C5219 0.950 . S
H5191 C5220 0.950 . S
H5192 C5222 0.950 . S
H5193 C5223 0.950 . S
C5194 H5176 0.951 . S
C5194 C5195 1.366 . S
C5194 C5196 1.388 . S
C5195 C5194 1.366 . S
C5195 C5199 1.385 . S
C5196 H5177 0.951 . S
C5196 C5194 1.388 . S
C5196 C5197 1.366 . S
C5197 C5196 1.366 . S
C5197 C5198 1.414 . S
C5197 C5200 1.499 . S
C5198 H5178 0.950 . S
C5198 C5197 1.414 . S
C5198 C5199 1.374 . S
C5199 H5179 0.950 . S
C5199 C5195 1.385 . S
C5199 C5198 1.374 . S
C5200 C5197 1.499 . S
C5200 C5201 1.373 . S
C5200 C5202 1.389 . S
C5201 H5180 0.950 . S
C5201 C5200 1.373 . S
C5201 C5217 1.377 . S
C5202 C5200 1.389 . S
C5202 C5203 1.524 . S
C5202 C5216 1.377 . S
C5203 C5202 1.524 . S
C5203 C5204 1.397 . S
C5203 C5208 1.363 . S
C5204 H5181 0.950 . S
C5204 C5203 1.397 . S
C5204 C5205 1.334 . S
C5205 H5182 0.950 . S
C5205 C5204 1.334 . S
C5205 C5206 1.287 . S
C5206 C5205 1.287 . S
C5206 C5207 1.524 . S
C5206 H5225 0.913 . S
C5207 H5183 0.950 . S
C5207 C5206 1.524 . S
C5207 C5208 1.415 . S
C5208 H5184 0.950 . S
C5208 C5203 1.363 . S
C5208 C5207 1.415 . S
C5209 H5185 0.951 . S
C5209 C5210 1.366 . S
C5209 C5211 1.388 . S
C5210 C5209 1.366 . S
C5210 C5214 1.385 . S
C5211 H5186 0.951 . S
C5211 C5209 1.388 . S
C5211 C5212 1.366 . S
C5212 C5211 1.366 . S
C5212 C5213 1.414 . S
C5212 C5215 1.499 . S
C5213 H5187 0.950 . S
C5213 C5212 1.414 . S
C5213 C5214 1.374 . S
C5214 H5188 0.950 . S
C5214 C5210 1.385 . S
C5214 C5213 1.374 . S
C5215 C5212 1.499 . S
C5215 C5216 1.373 . S
C5215 C5217 1.389 . S
C5216 H5189 0.950 . S
C5216 C5202 1.377 . S
C5216 C5215 1.373 . S
C5217 C5201 1.377 . S
C5217 C5215 1.389 . S
C5217 C5218 1.524 . S
C5218 C5217 1.524 . S
C5218 C5219 1.397 . S
C5218 C5223 1.363 . S
C5219 H5190 0.950 . S
C5219 C5218 1.397 . S
C5219 C5220 1.334 . S
C5220 H5191 0.950 . S
C5220 C5219 1.334 . S
C5220 C5221 1.287 . S
C5221 C5220 1.287 . S
C5221 C5222 1.524 . S
C5221 H5224 0.999 . S
C5222 H5192 0.950 . S
C5222 C5221 1.524 . S
C5222 C5223 1.415 . S
C5223 H5193 0.950 . S
C5223 C5218 1.363 . S
C5223 C5222 1.415 . S
H5224 C5221 0.999 . S
H5225 C5206 0.913 . S
H5226 C5244 0.951 . S
H5227 C5246 0.951 . S
H5228 C5248 0.950 . S
H5229 C5249 0.950 . S
H5230 C5251 0.950 . S
H5231 C5254 0.950 . S
H5232 C5255 0.950 . S
H5233 C5257 0.950 . S
H5234 C5258 0.950 . S
H5235 C5259 0.951 . S
H5236 C5261 0.951 . S
H5237 C5263 0.950 . S
H5238 C5264 0.950 . S
H5239 C5266 0.950 . S
H5240 C5269 0.950 . S
H5241 C5270 0.950 . S
H5242 C5272 0.950 . S
H5243 C5273 0.950 . S
C5244 H5226 0.951 . S
C5244 C5245 1.366 . S
C5244 C5246 1.388 . S
C5245 C5244 1.366 . S
C5245 C5249 1.385 . S
C5246 H5227 0.951 . S
C5246 C5244 1.388 . S
C5246 C5247 1.366 . S
C5247 C5246 1.366 . S
C5247 C5248 1.414 . S
C5247 C5250 1.499 . S
C5248 H5228 0.950 . S
C5248 C5247 1.414 . S
C5248 C5249 1.374 . S
C5249 H5229 0.950 . S
C5249 C5245 1.385 . S
C5249 C5248 1.374 . S
C5250 C5247 1.499 . S
C5250 C5251 1.373 . S
C5250 C5252 1.389 . S
C5251 H5230 0.950 . S
C5251 C5250 1.373 . S
C5251 C5267 1.377 . S
C5252 C5250 1.389 . S
C5252 C5253 1.524 . S
C5252 C5266 1.377 . S
C5253 C5252 1.524 . S
C5253 C5254 1.397 . S
C5253 C5258 1.363 . S
C5254 H5231 0.950 . S
C5254 C5253 1.397 . S
C5254 C5255 1.334 . S
C5255 H5232 0.950 . S
C5255 C5254 1.334 . S
C5255 C5256 1.287 . S
C5256 C5255 1.287 . S
C5256 C5257 1.524 . S
C5256 H5275 0.913 . S
C5257 H5233 0.950 . S
C5257 C5256 1.524 . S
C5257 C5258 1.415 . S
C5258 H5234 0.950 . S
C5258 C5253 1.363 . S
C5258 C5257 1.415 . S
C5259 H5235 0.951 . S
C5259 C5260 1.366 . S
C5259 C5261 1.388 . S
C5260 C5259 1.366 . S
C5260 C5264 1.385 . S
C5261 H5236 0.951 . S
C5261 C5259 1.388 . S
C5261 C5262 1.366 . S
C5262 C5261 1.366 . S
C5262 C5263 1.414 . S
C5262 C5265 1.499 . S
C5263 H5237 0.950 . S
C5263 C5262 1.414 . S
C5263 C5264 1.374 . S
C5264 H5238 0.950 . S
C5264 C5260 1.385 . S
C5264 C5263 1.374 . S
C5265 C5262 1.499 . S
C5265 C5266 1.373 . S
C5265 C5267 1.389 . S
C5266 H5239 0.950 . S
C5266 C5252 1.377 . S
C5266 C5265 1.373 . S
C5267 C5251 1.377 . S
C5267 C5265 1.389 . S
C5267 C5268 1.524 . S
C5268 C5267 1.524 . S
C5268 C5269 1.397 . S
C5268 C5273 1.363 . S
C5269 H5240 0.950 . S
C5269 C5268 1.397 . S
C5269 C5270 1.334 . S
C5270 H5241 0.950 . S
C5270 C5269 1.334 . S
C5270 C5271 1.287 . S
C5271 C5270 1.287 . S
C5271 C5272 1.524 . S
C5271 H5274 0.999 . S
C5272 H5242 0.950 . S
C5272 C5271 1.524 . S
C5272 C5273 1.415 . S
C5273 H5243 0.950 . S
C5273 C5268 1.363 . S
C5273 C5272 1.415 . S
H5274 C5271 0.999 . S
H5275 C5256 0.913 . S
H5276 C5294 0.951 . S
H5277 C5296 0.951 . S
H5278 C5298 0.950 . S
H5279 C5299 0.950 . S
H5280 C5301 0.950 . S
H5281 C5304 0.950 . S
H5282 C5305 0.950 . S
H5283 C5307 0.950 . S
H5284 C5308 0.950 . S
H5285 C5309 0.951 1_455 S
H5286 C5311 0.951 . S
H5287 C5313 0.950 . S
H5288 C5314 0.950 . S
H5289 C5316 0.950 . S
H5290 C5319 0.950 . S
H5291 C5320 0.950 . S
H5292 C5322 0.950 1_455 S
H5293 C5323 0.950 . S
C5294 H5276 0.951 . S
C5294 C5295 1.366 . S
C5294 C5296 1.388 . S
C5295 C5294 1.366 . S
C5295 C5299 1.385 . S
C5296 H5277 0.951 . S
C5296 C5294 1.388 . S
C5296 C5297 1.366 . S
C5297 C5296 1.366 . S
C5297 C5298 1.414 . S
C5297 C5300 1.499 . S
C5298 H5278 0.950 . S
C5298 C5297 1.414 . S
C5298 C5299 1.374 . S
C5299 H5279 0.950 . S
C5299 C5295 1.385 . S
C5299 C5298 1.374 . S
C5300 C5297 1.499 . S
C5300 C5301 1.373 . S
C5300 C5302 1.389 . S
C5301 H5280 0.950 . S
C5301 C5300 1.373 . S
C5301 C5317 1.377 . S
C5302 C5300 1.389 . S
C5302 C5303 1.524 . S
C5302 C5316 1.377 . S
C5303 C5302 1.524 . S
C5303 C5304 1.397 . S
C5303 C5308 1.363 . S
C5304 H5281 0.950 . S
C5304 C5303 1.397 . S
C5304 C5305 1.334 . S
C5305 H5282 0.950 . S
C5305 C5304 1.334 . S
C5305 C5306 1.287 . S
C5306 C5305 1.287 . S
C5306 C5307 1.524 . S
C5306 H5325 0.913 . S
C5307 H5283 0.950 . S
C5307 C5306 1.524 . S
C5307 C5308 1.415 . S
C5308 H5284 0.950 . S
C5308 C5303 1.363 . S
C5308 C5307 1.415 . S
C5309 H5285 0.951 1_655 S
C5309 C5310 1.366 . S
C5309 C5311 1.388 . S
C5310 C5309 1.366 . S
C5310 C5314 1.385 . S
C5311 H5286 0.951 . S
C5311 C5309 1.388 . S
C5311 C5312 1.366 . S
C5312 C5311 1.366 . S
C5312 C5313 1.414 . S
C5312 C5315 1.499 . S
C5313 H5287 0.950 . S
C5313 C5312 1.414 . S
C5313 C5314 1.374 . S
C5314 H5288 0.950 . S
C5314 C5310 1.385 . S
C5314 C5313 1.374 . S
C5315 C5312 1.499 . S
C5315 C5316 1.373 . S
C5315 C5317 1.389 . S
C5316 H5289 0.950 . S
C5316 C5302 1.377 . S
C5316 C5315 1.373 . S
C5317 C5301 1.377 . S
C5317 C5315 1.389 . S
C5317 C5318 1.524 . S
C5318 C5317 1.524 . S
C5318 C5319 1.397 . S
C5318 C5323 1.363 . S
C5319 H5290 0.950 . S
C5319 C5318 1.397 . S
C5319 C5320 1.334 . S
C5320 H5291 0.950 . S
C5320 C5319 1.334 . S
C5320 C5321 1.287 . S
C5321 C5320 1.287 . S
C5321 C5322 1.524 . S
C5321 H5324 0.999 . S
C5322 H5292 0.950 1_655 S
C5322 C5321 1.524 . S
C5322 C5323 1.415 . S
C5323 H5293 0.950 . S
C5323 C5318 1.363 . S
C5323 C5322 1.415 . S
H5324 C5321 0.999 . S
H5325 C5306 0.913 . S
H5326 C5344 0.951 . S
H5327 C5346 0.951 . S
H5328 C5348 0.950 . S
H5329 C5349 0.950 . S
H5330 C5351 0.950 . S
H5331 C5354 0.950 . S
H5332 C5355 0.950 . S
H5333 C5357 0.950 . S
H5334 C5358 0.950 . S
H5335 C5359 0.951 . S
H5336 C5361 0.951 . S
H5337 C5363 0.950 . S
H5338 C5364 0.950 . S
H5339 C5366 0.950 . S
H5340 C5369 0.950 . S
H5341 C5370 0.950 . S
H5342 C5372 0.950 . S
H5343 C5373 0.950 . S
C5344 H5326 0.951 . S
C5344 C5345 1.366 . S
C5344 C5346 1.388 . S
C5345 C5344 1.366 . S
C5345 C5349 1.385 . S
C5346 H5327 0.951 . S
C5346 C5344 1.388 . S
C5346 C5347 1.366 . S
C5347 C5346 1.366 . S
C5347 C5348 1.414 . S
C5347 C5350 1.499 . S
C5348 H5328 0.950 . S
C5348 C5347 1.414 . S
C5348 C5349 1.374 . S
C5349 H5329 0.950 . S
C5349 C5345 1.385 . S
C5349 C5348 1.374 . S
C5350 C5347 1.499 . S
C5350 C5351 1.373 . S
C5350 C5352 1.389 . S
C5351 H5330 0.950 . S
C5351 C5350 1.373 . S
C5351 C5367 1.377 . S
C5352 C5350 1.389 . S
C5352 C5353 1.524 . S
C5352 C5366 1.377 . S
C5353 C5352 1.524 . S
C5353 C5354 1.397 . S
C5353 C5358 1.363 . S
C5354 H5331 0.950 . S
C5354 C5353 1.397 . S
C5354 C5355 1.334 . S
C5355 H5332 0.950 . S
C5355 C5354 1.334 . S
C5355 C5356 1.287 . S
C5356 C5355 1.287 . S
C5356 C5357 1.524 . S
C5356 H5375 0.913 . S
C5357 H5333 0.950 . S
C5357 C5356 1.524 . S
C5357 C5358 1.415 . S
C5358 H5334 0.950 . S
C5358 C5353 1.363 . S
C5358 C5357 1.415 . S
C5359 H5335 0.951 . S
C5359 C5360 1.366 . S
C5359 C5361 1.388 . S
C5360 C5359 1.366 . S
C5360 C5364 1.385 . S
C5361 H5336 0.951 . S
C5361 C5359 1.388 . S
C5361 C5362 1.366 . S
C5362 C5361 1.366 . S
C5362 C5363 1.414 . S
C5362 C5365 1.499 . S
C5363 H5337 0.950 . S
C5363 C5362 1.414 . S
C5363 C5364 1.374 . S
C5364 H5338 0.950 . S
C5364 C5360 1.385 . S
C5364 C5363 1.374 . S
C5365 C5362 1.499 . S
C5365 C5366 1.373 . S
C5365 C5367 1.389 . S
C5366 H5339 0.950 . S
C5366 C5352 1.377 . S
C5366 C5365 1.373 . S
C5367 C5351 1.377 . S
C5367 C5365 1.389 . S
C5367 C5368 1.524 . S
C5368 C5367 1.524 . S
C5368 C5369 1.397 . S
C5368 C5373 1.363 . S
C5369 H5340 0.950 . S
C5369 C5368 1.397 . S
C5369 C5370 1.334 . S
C5370 H5341 0.950 . S
C5370 C5369 1.334 . S
C5370 C5371 1.287 . S
C5371 C5370 1.287 . S
C5371 C5372 1.524 . S
C5371 H5374 0.999 . S
C5372 H5342 0.950 . S
C5372 C5371 1.524 . S
C5372 C5373 1.415 . S
C5373 H5343 0.950 . S
C5373 C5368 1.363 . S
C5373 C5372 1.415 . S
H5374 C5371 0.999 . S
H5375 C5356 0.913 . S
H5376 C5394 0.951 . S
H5377 C5396 0.951 . S
H5378 C5398 0.950 . S
H5379 C5399 0.950 . S
H5380 C5401 0.950 . S
H5381 C5404 0.950 . S
H5382 C5405 0.950 . S
H5383 C5407 0.950 . S
H5384 C5408 0.950 . S
H5385 C5409 0.951 . S
H5386 C5411 0.951 . S
H5387 C5413 0.950 . S
H5388 C5414 0.950 . S
H5389 C5416 0.950 . S
H5390 C5419 0.950 . S
H5391 C5420 0.950 . S
H5392 C5422 0.950 . S
H5393 C5423 0.950 . S
C5394 H5376 0.951 . S
C5394 C5395 1.366 . S
C5394 C5396 1.388 . S
C5395 C5394 1.366 . S
C5395 C5399 1.385 . S
C5396 H5377 0.951 . S
C5396 C5394 1.388 . S
C5396 C5397 1.366 . S
C5397 C5396 1.366 . S
C5397 C5398 1.414 . S
C5397 C5400 1.499 . S
C5398 H5378 0.950 . S
C5398 C5397 1.414 . S
C5398 C5399 1.374 . S
C5399 H5379 0.950 . S
C5399 C5395 1.385 . S
C5399 C5398 1.374 . S
C5400 C5397 1.499 . S
C5400 C5401 1.373 . S
C5400 C5402 1.389 . S
C5401 H5380 0.950 . S
C5401 C5400 1.373 . S
C5401 C5417 1.377 . S
C5402 C5400 1.389 . S
C5402 C5403 1.524 . S
C5402 C5416 1.377 . S
C5403 C5402 1.524 . S
C5403 C5404 1.397 . S
C5403 C5408 1.363 . S
C5404 H5381 0.950 . S
C5404 C5403 1.397 . S
C5404 C5405 1.334 . S
C5405 H5382 0.950 . S
C5405 C5404 1.334 . S
C5405 C5406 1.287 . S
C5406 C5405 1.287 . S
C5406 C5407 1.524 . S
C5406 H5425 0.913 . S
C5407 H5383 0.950 . S
C5407 C5406 1.524 . S
C5407 C5408 1.415 . S
C5408 H5384 0.950 . S
C5408 C5403 1.363 . S
C5408 C5407 1.415 . S
C5409 H5385 0.951 . S
C5409 C5410 1.366 . S
C5409 C5411 1.388 . S
C5410 C5409 1.366 . S
C5410 C5414 1.385 . S
C5411 H5386 0.951 . S
C5411 C5409 1.388 . S
C5411 C5412 1.366 . S
C5412 C5411 1.366 . S
C5412 C5413 1.414 . S
C5412 C5415 1.499 . S
C5413 H5387 0.950 . S
C5413 C5412 1.414 . S
C5413 C5414 1.374 . S
C5414 H5388 0.950 . S
C5414 C5410 1.385 . S
C5414 C5413 1.374 . S
C5415 C5412 1.499 . S
C5415 C5416 1.373 . S
C5415 C5417 1.389 . S
C5416 H5389 0.950 . S
C5416 C5402 1.377 . S
C5416 C5415 1.373 . S
C5417 C5401 1.377 . S
C5417 C5415 1.389 . S
C5417 C5418 1.524 . S
C5418 C5417 1.524 . S
C5418 C5419 1.397 . S
C5418 C5423 1.363 . S
C5419 H5390 0.950 . S
C5419 C5418 1.397 . S
C5419 C5420 1.334 . S
C5420 H5391 0.950 . S
C5420 C5419 1.334 . S
C5420 C5421 1.287 . S
C5421 C5420 1.287 . S
C5421 C5422 1.524 . S
C5421 H5424 0.999 . S
C5422 H5392 0.950 . S
C5422 C5421 1.524 . S
C5422 C5423 1.415 . S
C5423 H5393 0.950 . S
C5423 C5418 1.363 . S
C5423 C5422 1.415 . S
H5424 C5421 0.999 . S
H5425 C5406 0.913 . S
H5426 C5444 0.951 . S
H5427 C5446 0.951 . S
H5428 C5448 0.950 . S
H5429 C5449 0.950 . S
H5430 C5451 0.950 . S
H5431 C5454 0.950 . S
H5432 C5455 0.950 . S
H5433 C5457 0.950 . S
H5434 C5458 0.950 . S
H5435 C5459 0.951 1_545 S
H5436 C5461 0.951 . S
H5437 C5463 0.950 . S
H5438 C5464 0.950 . S
H5439 C5466 0.950 . S
H5440 C5469 0.950 . S
H5441 C5470 0.950 . S
H5442 C5472 0.950 . S
H5443 C5473 0.950 . S
C5444 H5426 0.951 . S
C5444 C5445 1.366 . S
C5444 C5446 1.388 . S
C5445 C5444 1.366 . S
C5445 C5449 1.385 . S
C5446 H5427 0.951 . S
C5446 C5444 1.388 . S
C5446 C5447 1.366 . S
C5447 C5446 1.366 . S
C5447 C5448 1.414 . S
C5447 C5450 1.499 . S
C5448 H5428 0.950 . S
C5448 C5447 1.414 . S
C5448 C5449 1.374 . S
C5449 H5429 0.950 . S
C5449 C5445 1.385 . S
C5449 C5448 1.374 . S
C5450 C5447 1.499 . S
C5450 C5451 1.373 . S
C5450 C5452 1.389 . S
C5451 H5430 0.950 . S
C5451 C5450 1.373 . S
C5451 C5467 1.377 . S
C5452 C5450 1.389 . S
C5452 C5453 1.524 . S
C5452 C5466 1.377 . S
C5453 C5452 1.524 . S
C5453 C5454 1.397 . S
C5453 C5458 1.363 . S
C5454 H5431 0.950 . S
C5454 C5453 1.397 . S
C5454 C5455 1.334 . S
C5455 H5432 0.950 . S
C5455 C5454 1.334 . S
C5455 C5456 1.287 . S
C5456 C5455 1.287 . S
C5456 C5457 1.524 . S
C5456 H5475 0.913 . S
C5457 H5433 0.950 . S
C5457 C5456 1.524 . S
C5457 C5458 1.415 . S
C5458 H5434 0.950 . S
C5458 C5453 1.363 . S
C5458 C5457 1.415 . S
C5459 H5435 0.951 1_565 S
C5459 C5460 1.366 . S
C5459 C5461 1.388 . S
C5460 C5459 1.366 . S
C5460 C5464 1.385 . S
C5461 H5436 0.951 . S
C5461 C5459 1.388 . S
C5461 C5462 1.366 . S
C5462 C5461 1.366 . S
C5462 C5463 1.414 . S
C5462 C5465 1.499 . S
C5463 H5437 0.950 . S
C5463 C5462 1.414 . S
C5463 C5464 1.374 . S
C5464 H5438 0.950 . S
C5464 C5460 1.385 . S
C5464 C5463 1.374 . S
C5465 C5462 1.499 . S
C5465 C5466 1.373 . S
C5465 C5467 1.389 . S
C5466 H5439 0.950 . S
C5466 C5452 1.377 . S
C5466 C5465 1.373 . S
C5467 C5451 1.377 . S
C5467 C5465 1.389 . S
C5467 C5468 1.524 . S
C5468 C5467 1.524 . S
C5468 C5469 1.397 . S
C5468 C5473 1.363 . S
C5469 H5440 0.950 . S
C5469 C5468 1.397 . S
C5469 C5470 1.334 . S
C5470 H5441 0.950 . S
C5470 C5469 1.334 . S
C5470 C5471 1.287 . S
C5471 C5470 1.287 . S
C5471 C5472 1.524 . S
C5471 H5474 0.999 . S
C5472 H5442 0.950 . S
C5472 C5471 1.524 . S
C5472 C5473 1.415 . S
C5473 H5443 0.950 . S
C5473 C5468 1.363 . S
C5473 C5472 1.415 . S
H5474 C5471 0.999 . S
H5475 C5456 0.913 . S
H5476 C5494 0.951 . S
H5477 C5496 0.951 . S
H5478 C5498 0.950 . S
H5479 C5499 0.950 . S
H5480 C5501 0.950 . S
H5481 C5504 0.950 . S
H5482 C5505 0.950 . S
H5483 C5507 0.950 . S
H5484 C5508 0.950 . S
H5485 C5509 0.951 . S
H5486 C5511 0.951 . S
H5487 C5513 0.950 . S
H5488 C5514 0.950 . S
H5489 C5516 0.950 . S
H5490 C5519 0.950 . S
H5491 C5520 0.950 . S
H5492 C5522 0.950 . S
H5493 C5523 0.950 . S
C5494 H5476 0.951 . S
C5494 C5495 1.366 . S
C5494 C5496 1.388 . S
C5495 C5494 1.366 . S
C5495 C5499 1.385 . S
C5496 H5477 0.951 . S
C5496 C5494 1.388 . S
C5496 C5497 1.366 . S
C5497 C5496 1.366 . S
C5497 C5498 1.414 . S
C5497 C5500 1.499 . S
C5498 H5478 0.950 . S
C5498 C5497 1.414 . S
C5498 C5499 1.374 . S
C5499 H5479 0.950 . S
C5499 C5495 1.385 . S
C5499 C5498 1.374 . S
C5500 C5497 1.499 . S
C5500 C5501 1.373 . S
C5500 C5502 1.389 . S
C5501 H5480 0.950 . S
C5501 C5500 1.373 . S
C5501 C5517 1.377 . S
C5502 C5500 1.389 . S
C5502 C5503 1.524 . S
C5502 C5516 1.377 . S
C5503 C5502 1.524 . S
C5503 C5504 1.397 . S
C5503 C5508 1.363 . S
C5504 H5481 0.950 . S
C5504 C5503 1.397 . S
C5504 C5505 1.334 . S
C5505 H5482 0.950 . S
C5505 C5504 1.334 . S
C5505 C5506 1.287 . S
C5506 C5505 1.287 . S
C5506 C5507 1.524 . S
C5506 H5525 0.913 . S
C5507 H5483 0.950 . S
C5507 C5506 1.524 . S
C5507 C5508 1.415 . S
C5508 H5484 0.950 . S
C5508 C5503 1.363 . S
C5508 C5507 1.415 . S
C5509 H5485 0.951 . S
C5509 C5510 1.366 . S
C5509 C5511 1.388 . S
C5510 C5509 1.366 . S
C5510 C5514 1.385 . S
C5511 H5486 0.951 . S
C5511 C5509 1.388 . S
C5511 C5512 1.366 . S
C5512 C5511 1.366 . S
C5512 C5513 1.414 . S
C5512 C5515 1.499 . S
C5513 H5487 0.950 . S
C5513 C5512 1.414 . S
C5513 C5514 1.374 . S
C5514 H5488 0.950 . S
C5514 C5510 1.385 . S
C5514 C5513 1.374 . S
C5515 C5512 1.499 . S
C5515 C5516 1.373 . S
C5515 C5517 1.389 . S
C5516 H5489 0.950 . S
C5516 C5502 1.377 . S
C5516 C5515 1.373 . S
C5517 C5501 1.377 . S
C5517 C5515 1.389 . S
C5517 C5518 1.524 . S
C5518 C5517 1.524 . S
C5518 C5519 1.397 . S
C5518 C5523 1.363 . S
C5519 H5490 0.950 . S
C5519 C5518 1.397 . S
C5519 C5520 1.334 . S
C5520 H5491 0.950 . S
C5520 C5519 1.334 . S
C5520 C5521 1.287 . S
C5521 C5520 1.287 . S
C5521 C5522 1.524 . S
C5521 H5524 0.999 . S
C5522 H5492 0.950 . S
C5522 C5521 1.524 . S
C5522 C5523 1.415 . S
C5523 H5493 0.950 . S
C5523 C5518 1.363 . S
C5523 C5522 1.415 . S
H5524 C5521 0.999 . S
H5525 C5506 0.913 . S
H5526 C5544 0.918 1_556 S
H5527 C5546 0.951 1_556 S
H5528 C5548 0.950 . S
H5529 C5549 0.950 . S
H5530 C5551 0.946 1_556 S
H5531 C5554 0.950 . S
H5532 C5555 0.950 . S
H5533 C5557 0.950 . S
H5534 C5558 0.950 . S
H5535 C5559 0.951 . S
H5536 C5561 0.951 . S
H5537 C5563 0.929 1_556 S
H5538 C5564 0.950 1_556 S
H5539 C5566 0.950 . S
H5540 C5569 0.950 . S
H5541 C5570 0.950 . S
H5542 C5572 0.950 1_565 S
H5543 C5573 0.908 1_554 S
C5544 H5526 0.918 1_554 S
C5544 C5545 1.392 . S
C5544 C5546 1.398 . S
C5545 C5544 1.392 . S
C5545 C5549 1.385 . S
C5546 H5527 0.951 1_554 S
C5546 C5544 1.398 . S
C5546 C5547 1.366 . S
C5547 C5546 1.366 . S
C5547 C5548 1.414 . S
C5547 C5550 1.499 . S
C5548 H5528 0.950 . S
C5548 C5547 1.414 . S
C5548 C5549 1.374 . S
C5549 H5529 0.950 . S
C5549 C5545 1.385 . S
C5549 C5548 1.374 . S
C5550 C5547 1.499 . S
C5550 C5551 1.373 . S
C5550 C5552 1.389 . S
C5551 H5530 0.946 1_554 S
C5551 C5550 1.373 . S
C5551 C5567 1.377 . S
C5552 C5550 1.389 . S
C5552 C5553 1.524 . S
C5552 C5566 1.377 . S
C5553 C5552 1.524 . S
C5553 C5554 1.397 . S
C5553 C5558 1.363 . S
C5554 H5531 0.950 . S
C5554 C5553 1.397 . S
C5554 C5555 1.334 . S
C5555 H5532 0.950 . S
C5555 C5554 1.334 . S
C5555 C5556 1.287 . S
C5556 C5555 1.287 . S
C5556 C5557 1.524 . S
C5556 H5575 0.913 . S
C5557 H5533 0.950 . S
C5557 C5556 1.524 . S
C5557 C5558 1.415 . S
C5558 H5534 0.950 . S
C5558 C5553 1.363 . S
C5558 C5557 1.415 . S
C5559 H5535 0.951 . S
C5559 C5560 1.366 . S
C5559 C5561 1.388 . S
C5560 C5559 1.366 . S
C5560 C5564 1.385 . S
C5561 H5536 0.951 . S
C5561 C5559 1.388 . S
C5561 C5562 1.366 . S
C5562 C5561 1.366 . S
C5562 C5563 1.430 . S
C5562 C5565 1.499 . S
C5563 H5537 0.929 1_554 S
C5563 C5562 1.430 . S
C5563 C5564 1.380 . S
C5564 H5538 0.950 1_554 S
C5564 C5560 1.385 . S
C5564 C5563 1.380 . S
C5565 C5562 1.499 . S
C5565 C5566 1.373 . S
C5565 C5567 1.389 . S
C5566 H5539 0.950 . S
C5566 C5552 1.377 . S
C5566 C5565 1.373 . S
C5567 C5551 1.377 . S
C5567 C5565 1.389 . S
C5567 C5568 1.524 1_554 S
C5568 C5567 1.524 1_556 S
C5568 C5569 1.397 . S
C5568 C5573 1.390 . S
C5569 H5540 0.950 . S
C5569 C5568 1.397 . S
C5569 C5570 1.334 . S
C5570 H5541 0.950 . S
C5570 C5569 1.334 . S
C5570 C5571 1.287 . S
C5571 C5570 1.287 . S
C5571 C5572 1.524 . S
C5571 H5574 0.999 1_545 S
C5572 H5542 0.950 1_545 S
C5572 C5571 1.524 . S
C5572 C5573 1.433 . S
C5573 H5543 0.908 1_556 S
C5573 C5568 1.390 . S
C5573 C5572 1.433 . S
H5574 C5571 0.999 1_565 S
H5575 C5556 0.913 . S
H5576 C5594 0.951 . S
H5577 C5596 0.951 . S
H5578 C5598 0.950 . S
H5579 C5599 0.950 . S
H5580 C5601 0.950 . S
H5581 C5604 0.950 . S
H5582 C5605 0.950 . S
H5583 C5607 0.950 . S
H5584 C5608 0.950 . S
H5585 C5609 0.951 . S
H5586 C5611 0.951 . S
H5587 C5613 0.950 . S
H5588 C5614 0.950 . S
H5589 C5616 0.950 . S
H5590 C5619 0.950 . S
H5591 C5620 0.950 . S
H5592 C5622 0.950 . S
H5593 C5623 0.950 . S
C5594 H5576 0.951 . S
C5594 C5595 1.366 . S
C5594 C5596 1.388 . S
C5595 C5594 1.366 . S
C5595 C5599 1.385 . S
C5596 H5577 0.951 . S
C5596 C5594 1.388 . S
C5596 C5597 1.366 . S
C5597 C5596 1.366 . S
C5597 C5598 1.414 . S
C5597 C5600 1.499 . S
C5598 H5578 0.950 . S
C5598 C5597 1.414 . S
C5598 C5599 1.374 . S
C5599 H5579 0.950 . S
C5599 C5595 1.385 . S
C5599 C5598 1.374 . S
C5600 C5597 1.499 . S
C5600 C5601 1.373 . S
C5600 C5602 1.389 . S
C5601 H5580 0.950 . S
C5601 C5600 1.373 . S
C5601 C5617 1.377 . S
C5602 C5600 1.389 . S
C5602 C5603 1.524 . S
C5602 C5616 1.377 . S
C5603 C5602 1.524 . S
C5603 C5604 1.397 . S
C5603 C5608 1.363 . S
C5604 H5581 0.950 . S
C5604 C5603 1.397 . S
C5604 C5605 1.334 . S
C5605 H5582 0.950 . S
C5605 C5604 1.334 . S
C5605 C5606 1.287 . S
C5606 C5605 1.287 . S
C5606 C5607 1.524 . S
C5606 H5625 0.913 . S
C5607 H5583 0.950 . S
C5607 C5606 1.524 . S
C5607 C5608 1.415 . S
C5608 H5584 0.950 . S
C5608 C5603 1.363 . S
C5608 C5607 1.415 . S
C5609 H5585 0.951 . S
C5609 C5610 1.366 . S
C5609 C5611 1.388 . S
C5610 C5609 1.366 . S
C5610 C5614 1.385 . S
C5611 H5586 0.951 . S
C5611 C5609 1.388 . S
C5611 C5612 1.366 . S
C5612 C5611 1.366 . S
C5612 C5613 1.414 . S
C5612 C5615 1.499 . S
C5613 H5587 0.950 . S
C5613 C5612 1.414 . S
C5613 C5614 1.374 . S
C5614 H5588 0.950 . S
C5614 C5610 1.385 . S
C5614 C5613 1.374 . S
C5615 C5612 1.499 . S
C5615 C5616 1.373 . S
C5615 C5617 1.389 . S
C5616 H5589 0.950 . S
C5616 C5602 1.377 . S
C5616 C5615 1.373 . S
C5617 C5601 1.377 . S
C5617 C5615 1.389 . S
C5617 C5618 1.524 . S
C5618 C5617 1.524 . S
C5618 C5619 1.397 . S
C5618 C5623 1.363 . S
C5619 H5590 0.950 . S
C5619 C5618 1.397 . S
C5619 C5620 1.334 . S
C5620 H5591 0.950 . S
C5620 C5619 1.334 . S
C5620 C5621 1.287 . S
C5621 C5620 1.287 . S
C5621 C5622 1.524 . S
C5621 H5624 0.999 . S
C5622 H5592 0.950 . S
C5622 C5621 1.524 . S
C5622 C5623 1.415 . S
C5623 H5593 0.950 . S
C5623 C5618 1.363 . S
C5623 C5622 1.415 . S
H5624 C5621 0.999 . S
H5625 C5606 0.913 . S
H5626 C5644 0.951 . S
H5627 C5646 0.951 . S
H5628 C5648 0.950 . S
H5629 C5649 0.950 . S
H5630 C5651 0.950 . S
H5631 C5654 0.950 . S
H5632 C5655 0.950 . S
H5633 C5657 0.950 . S
H5634 C5658 0.950 . S
H5635 C5659 0.951 . S
H5636 C5661 0.951 . S
H5637 C5663 0.950 1_554 S
H5638 C5664 0.950 . S
H5639 C5666 0.950 . S
H5640 C5669 0.950 . S
H5641 C5670 0.950 . S
H5642 C5672 0.950 . S
H5643 C5673 0.950 . S
C5644 H5626 0.951 . S
C5644 C5645 1.366 . S
C5644 C5646 1.388 . S
C5645 C5644 1.366 . S
C5645 C5649 1.385 . S
C5646 H5627 0.951 . S
C5646 C5644 1.388 . S
C5646 C5647 1.366 . S
C5647 C5646 1.366 . S
C5647 C5648 1.414 . S
C5647 C5650 1.499 . S
C5648 H5628 0.950 . S
C5648 C5647 1.414 . S
C5648 C5649 1.374 . S
C5649 H5629 0.950 . S
C5649 C5645 1.385 . S
C5649 C5648 1.374 . S
C5650 C5647 1.499 . S
C5650 C5651 1.373 1_554 S
C5650 C5652 1.389 . S
C5651 H5630 0.950 . S
C5651 C5650 1.373 1_556 S
C5651 C5667 1.377 . S
C5652 C5650 1.389 . S
C5652 C5653 1.524 . S
C5652 C5666 1.377 . S
C5653 C5652 1.524 . S
C5653 C5654 1.397 . S
C5653 C5658 1.363 . S
C5654 H5631 0.950 . S
C5654 C5653 1.397 . S
C5654 C5655 1.334 . S
C5655 H5632 0.950 . S
C5655 C5654 1.334 . S
C5655 C5656 1.287 . S
C5656 C5655 1.287 . S
C5656 C5657 1.524 . S
C5656 H5675 0.913 . S
C5657 H5633 0.950 . S
C5657 C5656 1.524 . S
C5657 C5658 1.415 . S
C5658 H5634 0.950 . S
C5658 C5653 1.363 . S
C5658 C5657 1.415 . S
C5659 H5635 0.951 . S
C5659 C5660 1.366 . S
C5659 C5661 1.388 . S
C5660 C5659 1.366 . S
C5660 C5664 1.385 . S
C5661 H5636 0.951 . S
C5661 C5659 1.388 . S
C5661 C5662 1.366 . S
C5662 C5661 1.366 . S
C5662 C5663 1.414 . S
C5662 C5665 1.499 . S
C5663 H5637 0.950 1_556 S
C5663 C5662 1.414 . S
C5663 C5664 1.374 . S
C5664 H5638 0.950 . S
C5664 C5660 1.385 . S
C5664 C5663 1.374 . S
C5665 C5662 1.499 . S
C5665 C5666 1.373 1_556 S
C5665 C5667 1.389 . S
C5666 H5639 0.950 . S
C5666 C5652 1.377 . S
C5666 C5665 1.373 1_554 S
C5667 C5651 1.377 . S
C5667 C5665 1.389 . S
C5667 C5668 1.524 . S
C5668 C5667 1.524 . S
C5668 C5669 1.397 . S
C5668 C5673 1.363 . S
C5669 H5640 0.950 . S
C5669 C5668 1.397 . S
C5669 C5670 1.334 . S
C5670 H5641 0.950 . S
C5670 C5669 1.334 . S
C5670 C5671 1.287 . S
C5671 C5670 1.287 . S
C5671 C5672 1.524 . S
C5671 H5674 0.999 . S
C5672 H5642 0.950 . S
C5672 C5671 1.524 . S
C5672 C5673 1.415 . S
C5673 H5643 0.950 . S
C5673 C5668 1.363 . S
C5673 C5672 1.415 . S
H5674 C5671 0.999 . S
H5675 C5656 0.913 . S
H5676 C5694 0.951 . S
H5677 C5696 0.951 . S
H5678 C5698 0.950 . S
H5679 C5699 0.950 . S
H5680 C5701 0.950 . S
H5681 C5704 0.950 . S
H5682 C5705 0.950 . S
H5683 C5707 0.950 . S
H5684 C5708 0.950 . S
H5685 C5709 0.951 . S
H5686 C5711 0.951 . S
H5687 C5713 0.950 . S
H5688 C5714 0.950 . S
H5689 C5716 0.950 . S
H5690 C5719 0.950 . S
H5691 C5720 0.950 . S
H5692 C5722 0.950 . S
H5693 C5723 0.950 . S
C5694 H5676 0.951 . S
C5694 C5695 1.366 . S
C5694 C5696 1.388 . S
C5695 C5694 1.366 . S
C5695 C5699 1.385 . S
C5696 H5677 0.951 . S
C5696 C5694 1.388 . S
C5696 C5697 1.366 . S
C5697 C5696 1.366 . S
C5697 C5698 1.414 . S
C5697 C5700 1.499 . S
C5698 H5678 0.950 . S
C5698 C5697 1.414 . S
C5698 C5699 1.374 . S
C5699 H5679 0.950 . S
C5699 C5695 1.385 . S
C5699 C5698 1.374 . S
C5700 C5697 1.499 . S
C5700 C5701 1.373 . S
C5700 C5702 1.389 . S
C5701 H5680 0.950 . S
C5701 C5700 1.373 . S
C5701 C5717 1.377 . S
C5702 C5700 1.389 . S
C5702 C5703 1.524 . S
C5702 C5716 1.377 . S
C5703 C5702 1.524 . S
C5703 C5704 1.397 . S
C5703 C5708 1.363 . S
C5704 H5681 0.950 . S
C5704 C5703 1.397 . S
C5704 C5705 1.334 . S
C5705 H5682 0.950 . S
C5705 C5704 1.334 . S
C5705 C5706 1.287 . S
C5706 C5705 1.287 . S
C5706 C5707 1.524 . S
C5706 H5725 0.913 . S
C5707 H5683 0.950 . S
C5707 C5706 1.524 . S
C5707 C5708 1.415 . S
C5708 H5684 0.950 . S
C5708 C5703 1.363 . S
C5708 C5707 1.415 . S
C5709 H5685 0.951 . S
C5709 C5710 1.366 . S
C5709 C5711 1.388 . S
C5710 C5709 1.366 . S
C5710 C5714 1.385 . S
C5711 H5686 0.951 . S
C5711 C5709 1.388 . S
C5711 C5712 1.366 . S
C5712 C5711 1.366 . S
C5712 C5713 1.414 . S
C5712 C5715 1.499 . S
C5713 H5687 0.950 . S
C5713 C5712 1.414 . S
C5713 C5714 1.374 . S
C5714 H5688 0.950 . S
C5714 C5710 1.385 . S
C5714 C5713 1.374 . S
C5715 C5712 1.499 . S
C5715 C5716 1.373 . S
C5715 C5717 1.389 . S
C5716 H5689 0.950 . S
C5716 C5702 1.377 . S
C5716 C5715 1.373 . S
C5717 C5701 1.377 . S
C5717 C5715 1.389 . S
C5717 C5718 1.524 . S
C5718 C5717 1.524 . S
C5718 C5719 1.397 . S
C5718 C5723 1.363 . S
C5719 H5690 0.950 . S
C5719 C5718 1.397 . S
C5719 C5720 1.334 . S
C5720 H5691 0.950 . S
C5720 C5719 1.334 . S
C5720 C5721 1.287 . S
C5721 C5720 1.287 . S
C5721 C5722 1.524 . S
C5721 H5724 0.999 . S
C5722 H5692 0.950 . S
C5722 C5721 1.524 . S
C5722 C5723 1.415 . S
C5723 H5693 0.950 . S
C5723 C5718 1.363 . S
C5723 C5722 1.415 . S
H5724 C5721 0.999 . S
H5725 C5706 0.913 . S
H5726 C5744 0.951 . S
H5727 C5746 0.951 . S
H5728 C5748 0.950 . S
H5729 C5749 0.950 . S
H5730 C5751 0.950 . S
H5731 C5754 0.950 . S
H5732 C5755 0.950 . S
H5733 C5757 0.950 . S
H5734 C5758 0.950 . S
H5735 C5759 0.951 . S
H5736 C5761 0.951 . S
H5737 C5763 0.950 . S
H5738 C5764 0.950 . S
H5739 C5766 0.950 . S
H5740 C5769 0.950 . S
H5741 C5770 0.950 . S
H5742 C5772 0.950 . S
H5743 C5773 0.950 . S
C5744 H5726 0.951 . S
C5744 C5745 1.366 . S
C5744 C5746 1.388 . S
C5745 C5744 1.366 . S
C5745 C5749 1.385 . S
C5746 H5727 0.951 . S
C5746 C5744 1.388 . S
C5746 C5747 1.366 . S
C5747 C5746 1.366 . S
C5747 C5748 1.414 . S
C5747 C5750 1.499 . S
C5748 H5728 0.950 . S
C5748 C5747 1.414 . S
C5748 C5749 1.374 . S
C5749 H5729 0.950 . S
C5749 C5745 1.385 . S
C5749 C5748 1.374 . S
C5750 C5747 1.499 . S
C5750 C5751 1.373 . S
C5750 C5752 1.389 . S
C5751 H5730 0.950 . S
C5751 C5750 1.373 . S
C5751 C5767 1.377 . S
C5752 C5750 1.389 . S
C5752 C5753 1.524 . S
C5752 C5766 1.377 . S
C5753 C5752 1.524 . S
C5753 C5754 1.397 . S
C5753 C5758 1.363 . S
C5754 H5731 0.950 . S
C5754 C5753 1.397 . S
C5754 C5755 1.334 . S
C5755 H5732 0.950 . S
C5755 C5754 1.334 . S
C5755 C5756 1.287 . S
C5756 C5755 1.287 . S
C5756 C5757 1.524 . S
C5756 H5775 0.913 . S
C5757 H5733 0.950 . S
C5757 C5756 1.524 . S
C5757 C5758 1.415 . S
C5758 H5734 0.950 . S
C5758 C5753 1.363 . S
C5758 C5757 1.415 . S
C5759 H5735 0.951 . S
C5759 C5760 1.366 . S
C5759 C5761 1.388 . S
C5760 C5759 1.366 . S
C5760 C5764 1.385 . S
C5761 H5736 0.951 . S
C5761 C5759 1.388 . S
C5761 C5762 1.366 . S
C5762 C5761 1.366 . S
C5762 C5763 1.414 . S
C5762 C5765 1.499 . S
C5763 H5737 0.950 . S
C5763 C5762 1.414 . S
C5763 C5764 1.374 . S
C5764 H5738 0.950 . S
C5764 C5760 1.385 . S
C5764 C5763 1.374 . S
C5765 C5762 1.499 . S
C5765 C5766 1.373 . S
C5765 C5767 1.389 . S
C5766 H5739 0.950 . S
C5766 C5752 1.377 . S
C5766 C5765 1.373 . S
C5767 C5751 1.377 . S
C5767 C5765 1.389 . S
C5767 C5768 1.524 . S
C5768 C5767 1.524 . S
C5768 C5769 1.397 . S
C5768 C5773 1.363 . S
C5769 H5740 0.950 . S
C5769 C5768 1.397 . S
C5769 C5770 1.334 . S
C5770 H5741 0.950 . S
C5770 C5769 1.334 . S
C5770 C5771 1.287 . S
C5771 C5770 1.287 . S
C5771 C5772 1.524 . S
C5771 H5774 0.999 . S
C5772 H5742 0.950 . S
C5772 C5771 1.524 . S
C5772 C5773 1.415 . S
C5773 H5743 0.950 . S
C5773 C5768 1.363 . S
C5773 C5772 1.415 . S
H5774 C5771 0.999 . S
H5775 C5756 0.913 . S
C995 C109 0.982 . S
C1010 C344 0.986 . S
C1045 C65 1.361 . S
C1060 C378 1.357 . S
C1095 C75 0.490 . S
C1110 C447 0.506 . S
C1160 C485 0.899 . S
C1145 C84 0.901 . S
C1195 C25 1.286 . S
C1210 C525 1.277 . S
C1260 C544 0.165 . S
C1245 C28 0.204 . S
C1310 C578 1.160 . S
C1295 C47 1.155 . S
C1345 C9 1.639 . S
C1360 C647 1.624 . S
C1410 C353 2.505 . S
C1395 C233 2.536 . S
C1445 C249 0.831 . S
C1460 C405 0.833 . S
C1510 C418 1.455 . S
C1495 C275 1.464 . S
C1560 C487 1.229 . S
C1545 C173 1.227 . S
C1595 C224 1.845 . S
C1610 C527 1.875 . S
C1660 C553 1.867 . S
C1645 C243 1.896 . S
C1710 C605 0.213 . S
C1695 C266 0.133 . S
C1760 C618 2.081 . S
C1745 C179 2.092 . S
C1810 C348 2.493 . S
C1795 C163 2.508 . S
C1845 C289 1.989 . S
C1860 C658 1.988 . S
C1910 C708 2.665 . S
C1895 C333 2.669 . S
C1960 C767 1.396 . S
C1945 C308 1.390 . S
C1995 C123 1.336 . S
C2010 C645 1.333 . S
C2045 C126 1.397 . S
C2060 C445 1.410 . S
C2095 C327 2.533 . S
C2110 C778 2.507 . S
C2160 C847 0.858 . S
C2145 C299 0.863 . S
C2210 C365 0.993 . S
C2195 C67 0.992 . S
C2260 C833 1.382 . S
C2245 C98 1.372 . S
C2295 C89 0.525 . S
C2310 C428 0.535 . S
C2345 C79 0.951 . S
C2360 C784 0.951 . S
C2410 C504 1.279 . S
C2395 C11 1.295 . S
C2445 C51 0.173 . S
C2460 C725 0.191 . S
C2510 C593 1.225 1_556 S
C2495 C33 1.233 . S
C2560 C868 1.612 . S
C2545 C14 1.635 . S
C2610 C338 2.481 . S
C2595 C140 2.504 . S
C2660 C824 0.826 . S
C2645 C319 0.828 . S
C2695 C112 1.477 . S
C2710 C433 1.477 . S
C2745 C285 1.258 . S
C2760 C788 1.262 . S
C2795 C149 1.899 . S
C2810 C508 1.904 . S
C2860 C698 1.908 . S
C2845 C313 1.939 . S
C2895 C121 0.212 . S
C2910 C584 0.245 . S
C2945 C291 2.132 . S
C2960 C873 2.117 . S
C2995 C182 2.535 . S
C3010 C367 2.512 1_655 S
C3045 C168 1.985 . S
C3060 C673 2.015 . S
C3095 C263 2.726 . S
C3110 C567 2.723 . S
C3145 C247 1.463 . S
C3160 C748 1.475 . S
C3210 C864 1.325 . S
C3195 C277 1.346 . S
C3245 C219 1.448 . S
C3260 C424 1.431 . S
C3310 C473 2.569 . S
C3295 C257 2.597 . S
C3360 C388 0.872 . S
C3345 C201 0.876 . S
C3395 C81 0.981 . S
C3410 C904 0.986 . S
C3460 C818 1.357 . S
C3445 C93 1.361 . S
C3495 C103 0.490 . S
C3510 C967 0.508 . S
C3545 C56 0.901 . S
C3560 C805 0.898 . S
C3595 C53 1.286 . S
C3610 C685 1.277 . S
C3660 C704 0.165 . S
C3645 C0 0.201 . S
C3710 C738 1.159 . S
C3695 C19 1.153 . S
C3760 C887 1.624 . S
C3745 C37 1.639 . S
C3810 C913 2.505 . S
C3795 C261 2.536 . S
C3845 C193 0.831 . S
C3860 C845 0.832 . S
C3910 C938 1.455 . S
C3895 C205 1.464 . S
C3960 C807 1.229 . S
C3945 C215 1.227 . S
C4010 C687 1.874 . S
C3995 C252 1.845 . S
C4045 C187 1.896 . S
C4060 C713 1.867 . S
C4110 C765 0.214 . S
C4095 C196 0.134 . S
C4145 C221 2.092 . S
C4160 C858 2.081 . S
C4210 C908 2.493 . S
C4195 C317 2.508 . S
C4245 C135 1.989 . S
C4260 C498 1.987 . S
C4310 C548 2.664 . S
C4295 C151 2.669 . S
C4360 C607 1.396 . S
C4345 C154 1.389 . S
C4410 C885 1.334 . S
C4395 C305 1.337 . S
C4445 C280 1.396 . S
C4460 C965 1.410 . S
C4510 C458 2.507 . S
C4495 C145 2.533 . S
C4560 C407 0.859 . S
C4545 C117 0.864 . S
C4595 C95 0.992 . S
C4610 C925 0.993 . S
C4660 C393 1.382 . S
C4645 C70 1.372 . S
C4695 C61 0.525 . S
C4710 C948 0.536 . S
C4745 C107 0.952 . S
C4760 C464 0.951 . S
C4795 C39 1.295 . S
C4810 C664 1.279 . S
C4860 C565 0.188 . S
C4845 C23 0.169 . S
C4895 C5 1.233 . S
C4910 C753 1.236 . S
C4945 C42 1.628 . S
C4960 C628 1.612 . S
C5010 C898 2.480 . S
C4995 C322 2.504 . S
C5045 C165 0.827 . S
C5060 C384 0.826 . S
C5110 C953 1.477 . S
C5095 C294 1.478 . S
C5145 C131 1.259 . S
C5160 C468 1.262 . S
C5195 C331 1.901 . S
C5210 C668 1.904 . S
C5260 C538 1.908 . S
C5245 C159 1.939 . S
C5295 C303 0.210 . S
C5310 C744 0.247 . S
C5360 C633 2.117 . S
C5345 C137 2.132 . S
C5410 C927 2.512 . S
C5395 C238 2.535 . S
C5460 C513 2.015 1_665 S
C5445 C210 1.985 . S
C5495 C235 2.726 . S
C5510 C727 2.723 . S
C5560 C588 1.474 . S
C5545 C191 1.463 . S
C5595 C207 1.339 . S
C5610 C624 1.324 . S
C5645 C177 1.448 . S
C5660 C944 1.431 . S
C5710 C793 2.569 . S
C5695 C229 2.597 1_565 S
C5760 C828 0.872 . S
C5745 C271 0.876 . S
