# Generated by pormake.
# Topology ana-f, (3,3)-cn, num edge types: 1
# Building blocks:
#     Node 0, Type 0, BuildingBlock: WUSLED_clean_sbu_0, # of connection points: 3
#     Node 1, Type 0, BuildingBlock: WUSLED_clean_sbu_0, # of connection points: 3
#     Node 2, Type 0, BuildingBlock: WUSLED_clean_sbu_0, # of connection points: 3
#     Node 3, Type 0, BuildingBlock: WUSLED_clean_sbu_0, # of connection points: 3
#     Node 4, Type 0, BuildingBlock: WUSLED_clean_sbu_0, # of connection points: 3
#     Node 5, Type 0, BuildingBlock: WUSLED_clean_sbu_0, # of connection points: 3
#     Node 6, Type 0, BuildingBlock: WUSLED_clean_sbu_0, # of connection points: 3
#     Node 7, Type 0, BuildingBlock: WUSLED_clean_sbu_0, # of connection points: 3
#     Node 8, Type 0, BuildingBlock: WUSLED_clean_sbu_0, # of connection points: 3
#     Node 9, Type 0, BuildingBlock: WUSLED_clean_sbu_0, # of connection points: 3
#     Node 10, Type 0, BuildingBlock: WUSLED_clean_sbu_0, # of connection points: 3
#     Node 11, Type 0, BuildingBlock: WUSLED_clean_sbu_0, # of connection points: 3
#     Node 12, Type 0, BuildingBlock: WUSLED_clean_sbu_0, # of connection points: 3
#     Node 13, Type 0, BuildingBlock: WUSLED_clean_sbu_0, # of connection points: 3
#     Node 14, Type 0, BuildingBlock: WUSLED_clean_sbu_0, # of connection points: 3
#     Node 15, Type 0, BuildingBlock: WUSLED_clean_sbu_0, # of connection points: 3
#     Node 16, Type 0, BuildingBlock: WUSLED_clean_sbu_0, # of connection points: 3
#     Node 17, Type 0, BuildingBlock: WUSLED_clean_sbu_0, # of connection points: 3
#     Node 18, Type 0, BuildingBlock: WUSLED_clean_sbu_0, # of connection points: 3
#     Node 19, Type 0, BuildingBlock: WUSLED_clean_sbu_0, # of connection points: 3
#     Node 20, Type 0, BuildingBlock: WUSLED_clean_sbu_0, # of connection points: 3
#     Node 21, Type 0, BuildingBlock: WUSLED_clean_sbu_0, # of connection points: 3
#     Node 22, Type 0, BuildingBlock: WUSLED_clean_sbu_0, # of connection points: 3
#     Node 23, Type 0, BuildingBlock: WUSLED_clean_sbu_0, # of connection points: 3
#     Node 24, Type 0, BuildingBlock: WUSLED_clean_sbu_0, # of connection points: 3
#     Node 25, Type 0, BuildingBlock: WUSLED_clean_sbu_0, # of connection points: 3
#     Node 26, Type 0, BuildingBlock: WUSLED_clean_sbu_0, # of connection points: 3
#     Node 27, Type 0, BuildingBlock: WUSLED_clean_sbu_0, # of connection points: 3
#     Node 28, Type 0, BuildingBlock: WUSLED_clean_sbu_0, # of connection points: 3
#     Node 29, Type 0, BuildingBlock: WUSLED_clean_sbu_0, # of connection points: 3
#     Node 30, Type 0, BuildingBlock: WUSLED_clean_sbu_0, # of connection points: 3
#     Node 31, Type 0, BuildingBlock: WUSLED_clean_sbu_0, # of connection points: 3
#     Node 32, Type 0, BuildingBlock: WUSLED_clean_sbu_0, # of connection points: 3
#     Node 33, Type 0, BuildingBlock: WUSLED_clean_sbu_0, # of connection points: 3
#     Node 34, Type 0, BuildingBlock: WUSLED_clean_sbu_0, # of connection points: 3
#     Node 35, Type 0, BuildingBlock: WUSLED_clean_sbu_0, # of connection points: 3
#     Node 36, Type 0, BuildingBlock: WUSLED_clean_sbu_0, # of connection points: 3
#     Node 37, Type 0, BuildingBlock: WUSLED_clean_sbu_0, # of connection points: 3
#     Node 38, Type 0, BuildingBlock: WUSLED_clean_sbu_0, # of connection points: 3
#     Node 39, Type 0, BuildingBlock: WUSLED_clean_sbu_0, # of connection points: 3
#     Node 40, Type 0, BuildingBlock: WUSLED_clean_sbu_0, # of connection points: 3
#     Node 41, Type 0, BuildingBlock: WUSLED_clean_sbu_0, # of connection points: 3
#     Node 42, Type 0, BuildingBlock: WUSLED_clean_sbu_0, # of connection points: 3
#     Node 43, Type 0, BuildingBlock: WUSLED_clean_sbu_0, # of connection points: 3
#     Node 44, Type 0, BuildingBlock: WUSLED_clean_sbu_0, # of connection points: 3
#     Node 45, Type 0, BuildingBlock: WUSLED_clean_sbu_0, # of connection points: 3
#     Node 46, Type 0, BuildingBlock: WUSLED_clean_sbu_0, # of connection points: 3
#     Node 47, Type 0, BuildingBlock: WUSLED_clean_sbu_0, # of connection points: 3
#     Node 48, Type 0, BuildingBlock: WUSLED_clean_sbu_0, # of connection points: 3
#     Node 49, Type 0, BuildingBlock: WUSLED_clean_sbu_0, # of connection points: 3
#     Node 50, Type 0, BuildingBlock: WUSLED_clean_sbu_0, # of connection points: 3
#     Node 51, Type 0, BuildingBlock: WUSLED_clean_sbu_0, # of connection points: 3
#     Node 52, Type 0, BuildingBlock: WUSLED_clean_sbu_0, # of connection points: 3
#     Node 53, Type 0, BuildingBlock: WUSLED_clean_sbu_0, # of connection points: 3
#     Node 54, Type 0, BuildingBlock: WUSLED_clean_sbu_0, # of connection points: 3
#     Node 55, Type 0, BuildingBlock: WUSLED_clean_sbu_0, # of connection points: 3
#     Node 56, Type 0, BuildingBlock: WUSLED_clean_sbu_0, # of connection points: 3
#     Node 57, Type 0, BuildingBlock: WUSLED_clean_sbu_0, # of connection points: 3
#     Node 58, Type 0, BuildingBlock: WUSLED_clean_sbu_0, # of connection points: 3
#     Node 59, Type 0, BuildingBlock: WUSLED_clean_sbu_0, # of connection points: 3
#     Node 60, Type 0, BuildingBlock: WUSLED_clean_sbu_0, # of connection points: 3
#     Node 61, Type 0, BuildingBlock: WUSLED_clean_sbu_0, # of connection points: 3
#     Node 62, Type 0, BuildingBlock: WUSLED_clean_sbu_0, # of connection points: 3
#     Node 63, Type 0, BuildingBlock: WUSLED_clean_sbu_0, # of connection points: 3
#     Node 64, Type 0, BuildingBlock: WUSLED_clean_sbu_0, # of connection points: 3
#     Node 65, Type 0, BuildingBlock: WUSLED_clean_sbu_0, # of connection points: 3
#     Node 66, Type 0, BuildingBlock: WUSLED_clean_sbu_0, # of connection points: 3
#     Node 67, Type 0, BuildingBlock: WUSLED_clean_sbu_0, # of connection points: 3
#     Node 68, Type 0, BuildingBlock: WUSLED_clean_sbu_0, # of connection points: 3
#     Node 69, Type 0, BuildingBlock: WUSLED_clean_sbu_0, # of connection points: 3
#     Node 70, Type 0, BuildingBlock: WUSLED_clean_sbu_0, # of connection points: 3
#     Node 71, Type 0, BuildingBlock: WUSLED_clean_sbu_0, # of connection points: 3
#     Node 72, Type 0, BuildingBlock: WUSLED_clean_sbu_0, # of connection points: 3
#     Node 73, Type 0, BuildingBlock: WUSLED_clean_sbu_0, # of connection points: 3
#     Node 74, Type 0, BuildingBlock: WUSLED_clean_sbu_0, # of connection points: 3
#     Node 75, Type 0, BuildingBlock: WUSLED_clean_sbu_0, # of connection points: 3
#     Node 76, Type 0, BuildingBlock: WUSLED_clean_sbu_0, # of connection points: 3
#     Node 77, Type 0, BuildingBlock: WUSLED_clean_sbu_0, # of connection points: 3
#     Node 78, Type 0, BuildingBlock: WUSLED_clean_sbu_0, # of connection points: 3
#     Node 79, Type 0, BuildingBlock: WUSLED_clean_sbu_0, # of connection points: 3
#     Node 80, Type 0, BuildingBlock: WUSLED_clean_sbu_0, # of connection points: 3
#     Node 81, Type 0, BuildingBlock: WUSLED_clean_sbu_0, # of connection points: 3
#     Node 82, Type 0, BuildingBlock: WUSLED_clean_sbu_0, # of connection points: 3
#     Node 83, Type 0, BuildingBlock: WUSLED_clean_sbu_0, # of connection points: 3
#     Node 84, Type 0, BuildingBlock: WUSLED_clean_sbu_0, # of connection points: 3
#     Node 85, Type 0, BuildingBlock: WUSLED_clean_sbu_0, # of connection points: 3
#     Node 86, Type 0, BuildingBlock: WUSLED_clean_sbu_0, # of connection points: 3
#     Node 87, Type 0, BuildingBlock: WUSLED_clean_sbu_0, # of connection points: 3
#     Node 88, Type 0, BuildingBlock: WUSLED_clean_sbu_0, # of connection points: 3
#     Node 89, Type 0, BuildingBlock: WUSLED_clean_sbu_0, # of connection points: 3
#     Node 90, Type 0, BuildingBlock: WUSLED_clean_sbu_0, # of connection points: 3
#     Node 91, Type 0, BuildingBlock: WUSLED_clean_sbu_0, # of connection points: 3
#     Node 92, Type 0, BuildingBlock: WUSLED_clean_sbu_0, # of connection points: 3
#     Node 93, Type 0, BuildingBlock: WUSLED_clean_sbu_0, # of connection points: 3
#     Node 94, Type 0, BuildingBlock: WUSLED_clean_sbu_0, # of connection points: 3
#     Node 95, Type 0, BuildingBlock: WUSLED_clean_sbu_0, # of connection points: 3
#     Node 96, Type 1, BuildingBlock: WUSLED_clean_sbu_0, # of connection points: 3
#     Node 97, Type 1, BuildingBlock: WUSLED_clean_sbu_0, # of connection points: 3
#     Node 98, Type 1, BuildingBlock: WUSLED_clean_sbu_0, # of connection points: 3
#     Node 99, Type 1, BuildingBlock: WUSLED_clean_sbu_0, # of connection points: 3
#     Node 100, Type 1, BuildingBlock: WUSLED_clean_sbu_0, # of connection points: 3
#     Node 101, Type 1, BuildingBlock: WUSLED_clean_sbu_0, # of connection points: 3
#     Node 102, Type 1, BuildingBlock: WUSLED_clean_sbu_0, # of connection points: 3
#     Node 103, Type 1, BuildingBlock: WUSLED_clean_sbu_0, # of connection points: 3
#     Node 104, Type 1, BuildingBlock: WUSLED_clean_sbu_0, # of connection points: 3
#     Node 105, Type 1, BuildingBlock: WUSLED_clean_sbu_0, # of connection points: 3
#     Node 106, Type 1, BuildingBlock: WUSLED_clean_sbu_0, # of connection points: 3
#     Node 107, Type 1, BuildingBlock: WUSLED_clean_sbu_0, # of connection points: 3
#     Node 108, Type 1, BuildingBlock: WUSLED_clean_sbu_0, # of connection points: 3
#     Node 109, Type 1, BuildingBlock: WUSLED_clean_sbu_0, # of connection points: 3
#     Node 110, Type 1, BuildingBlock: WUSLED_clean_sbu_0, # of connection points: 3
#     Node 111, Type 1, BuildingBlock: WUSLED_clean_sbu_0, # of connection points: 3
#     Node 112, Type 1, BuildingBlock: WUSLED_clean_sbu_0, # of connection points: 3
#     Node 113, Type 1, BuildingBlock: WUSLED_clean_sbu_0, # of connection points: 3
#     Node 114, Type 1, BuildingBlock: WUSLED_clean_sbu_0, # of connection points: 3
#     Node 115, Type 1, BuildingBlock: WUSLED_clean_sbu_0, # of connection points: 3
#     Node 116, Type 1, BuildingBlock: WUSLED_clean_sbu_0, # of connection points: 3
#     Node 117, Type 1, BuildingBlock: WUSLED_clean_sbu_0, # of connection points: 3
#     Node 118, Type 1, BuildingBlock: WUSLED_clean_sbu_0, # of connection points: 3
#     Node 119, Type 1, BuildingBlock: WUSLED_clean_sbu_0, # of connection points: 3
#     Node 120, Type 1, BuildingBlock: WUSLED_clean_sbu_0, # of connection points: 3
#     Node 121, Type 1, BuildingBlock: WUSLED_clean_sbu_0, # of connection points: 3
#     Node 122, Type 1, BuildingBlock: WUSLED_clean_sbu_0, # of connection points: 3
#     Node 123, Type 1, BuildingBlock: WUSLED_clean_sbu_0, # of connection points: 3
#     Node 124, Type 1, BuildingBlock: WUSLED_clean_sbu_0, # of connection points: 3
#     Node 125, Type 1, BuildingBlock: WUSLED_clean_sbu_0, # of connection points: 3
#     Node 126, Type 1, BuildingBlock: WUSLED_clean_sbu_0, # of connection points: 3
#     Node 127, Type 1, BuildingBlock: WUSLED_clean_sbu_0, # of connection points: 3
#     Node 128, Type 1, BuildingBlock: WUSLED_clean_sbu_0, # of connection points: 3
#     Node 129, Type 1, BuildingBlock: WUSLED_clean_sbu_0, # of connection points: 3
#     Node 130, Type 1, BuildingBlock: WUSLED_clean_sbu_0, # of connection points: 3
#     Node 131, Type 1, BuildingBlock: WUSLED_clean_sbu_0, # of connection points: 3
#     Node 132, Type 1, BuildingBlock: WUSLED_clean_sbu_0, # of connection points: 3
#     Node 133, Type 1, BuildingBlock: WUSLED_clean_sbu_0, # of connection points: 3
#     Node 134, Type 1, BuildingBlock: WUSLED_clean_sbu_0, # of connection points: 3
#     Node 135, Type 1, BuildingBlock: WUSLED_clean_sbu_0, # of connection points: 3
#     Node 136, Type 1, BuildingBlock: WUSLED_clean_sbu_0, # of connection points: 3
#     Node 137, Type 1, BuildingBlock: WUSLED_clean_sbu_0, # of connection points: 3
#     Node 138, Type 1, BuildingBlock: WUSLED_clean_sbu_0, # of connection points: 3
#     Node 139, Type 1, BuildingBlock: WUSLED_clean_sbu_0, # of connection points: 3
#     Node 140, Type 1, BuildingBlock: WUSLED_clean_sbu_0, # of connection points: 3
#     Node 141, Type 1, BuildingBlock: WUSLED_clean_sbu_0, # of connection points: 3
#     Node 142, Type 1, BuildingBlock: WUSLED_clean_sbu_0, # of connection points: 3
#     Node 143, Type 1, BuildingBlock: WUSLED_clean_sbu_0, # of connection points: 3
#     Node 144, Type 1, BuildingBlock: WUSLED_clean_sbu_0, # of connection points: 3
#     Node 145, Type 1, BuildingBlock: WUSLED_clean_sbu_0, # of connection points: 3
#     Node 146, Type 1, BuildingBlock: WUSLED_clean_sbu_0, # of connection points: 3
#     Node 147, Type 1, BuildingBlock: WUSLED_clean_sbu_0, # of connection points: 3
#     Node 148, Type 1, BuildingBlock: WUSLED_clean_sbu_0, # of connection points: 3
#     Node 149, Type 1, BuildingBlock: WUSLED_clean_sbu_0, # of connection points: 3
#     Node 150, Type 1, BuildingBlock: WUSLED_clean_sbu_0, # of connection points: 3
#     Node 151, Type 1, BuildingBlock: WUSLED_clean_sbu_0, # of connection points: 3
#     Node 152, Type 1, BuildingBlock: WUSLED_clean_sbu_0, # of connection points: 3
#     Node 153, Type 1, BuildingBlock: WUSLED_clean_sbu_0, # of connection points: 3
#     Node 154, Type 1, BuildingBlock: WUSLED_clean_sbu_0, # of connection points: 3
#     Node 155, Type 1, BuildingBlock: WUSLED_clean_sbu_0, # of connection points: 3
#     Node 156, Type 1, BuildingBlock: WUSLED_clean_sbu_0, # of connection points: 3
#     Node 157, Type 1, BuildingBlock: WUSLED_clean_sbu_0, # of connection points: 3
#     Node 158, Type 1, BuildingBlock: WUSLED_clean_sbu_0, # of connection points: 3
#     Node 159, Type 1, BuildingBlock: WUSLED_clean_sbu_0, # of connection points: 3
#     Node 160, Type 1, BuildingBlock: WUSLED_clean_sbu_0, # of connection points: 3
#     Node 161, Type 1, BuildingBlock: WUSLED_clean_sbu_0, # of connection points: 3
#     Node 162, Type 1, BuildingBlock: WUSLED_clean_sbu_0, # of connection points: 3
#     Node 163, Type 1, BuildingBlock: WUSLED_clean_sbu_0, # of connection points: 3
#     Node 164, Type 1, BuildingBlock: WUSLED_clean_sbu_0, # of connection points: 3
#     Node 165, Type 1, BuildingBlock: WUSLED_clean_sbu_0, # of connection points: 3
#     Node 166, Type 1, BuildingBlock: WUSLED_clean_sbu_0, # of connection points: 3
#     Node 167, Type 1, BuildingBlock: WUSLED_clean_sbu_0, # of connection points: 3
#     Node 168, Type 1, BuildingBlock: WUSLED_clean_sbu_0, # of connection points: 3
#     Node 169, Type 1, BuildingBlock: WUSLED_clean_sbu_0, # of connection points: 3
#     Node 170, Type 1, BuildingBlock: WUSLED_clean_sbu_0, # of connection points: 3
#     Node 171, Type 1, BuildingBlock: WUSLED_clean_sbu_0, # of connection points: 3
#     Node 172, Type 1, BuildingBlock: WUSLED_clean_sbu_0, # of connection points: 3
#     Node 173, Type 1, BuildingBlock: WUSLED_clean_sbu_0, # of connection points: 3
#     Node 174, Type 1, BuildingBlock: WUSLED_clean_sbu_0, # of connection points: 3
#     Node 175, Type 1, BuildingBlock: WUSLED_clean_sbu_0, # of connection points: 3
#     Node 176, Type 1, BuildingBlock: WUSLED_clean_sbu_0, # of connection points: 3
#     Node 177, Type 1, BuildingBlock: WUSLED_clean_sbu_0, # of connection points: 3
#     Node 178, Type 1, BuildingBlock: WUSLED_clean_sbu_0, # of connection points: 3
#     Node 179, Type 1, BuildingBlock: WUSLED_clean_sbu_0, # of connection points: 3
#     Node 180, Type 1, BuildingBlock: WUSLED_clean_sbu_0, # of connection points: 3
#     Node 181, Type 1, BuildingBlock: WUSLED_clean_sbu_0, # of connection points: 3
#     Node 182, Type 1, BuildingBlock: WUSLED_clean_sbu_0, # of connection points: 3
#     Node 183, Type 1, BuildingBlock: WUSLED_clean_sbu_0, # of connection points: 3
#     Node 184, Type 1, BuildingBlock: WUSLED_clean_sbu_0, # of connection points: 3
#     Node 185, Type 1, BuildingBlock: WUSLED_clean_sbu_0, # of connection points: 3
#     Node 186, Type 1, BuildingBlock: WUSLED_clean_sbu_0, # of connection points: 3
#     Node 187, Type 1, BuildingBlock: WUSLED_clean_sbu_0, # of connection points: 3
#     Node 188, Type 1, BuildingBlock: WUSLED_clean_sbu_0, # of connection points: 3
#     Node 189, Type 1, BuildingBlock: WUSLED_clean_sbu_0, # of connection points: 3
#     Node 190, Type 1, BuildingBlock: WUSLED_clean_sbu_0, # of connection points: 3
#     Node 191, Type 1, BuildingBlock: WUSLED_clean_sbu_0, # of connection points: 3
#     Edge 192, Type (0, 1), BuildingBlock: OJICUG_clean_linker_0, # of connection points: 2
#     Edge 193, Type (0, 1), BuildingBlock: OJICUG_clean_linker_0, # of connection points: 2
#     Edge 194, Type (0, 1), BuildingBlock: OJICUG_clean_linker_0, # of connection points: 2
#     Edge 195, Type (0, 1), BuildingBlock: OJICUG_clean_linker_0, # of connection points: 2
#     Edge 196, Type (0, 1), BuildingBlock: OJICUG_clean_linker_0, # of connection points: 2
#     Edge 197, Type (0, 1), BuildingBlock: OJICUG_clean_linker_0, # of connection points: 2
#     Edge 198, Type (0, 1), BuildingBlock: OJICUG_clean_linker_0, # of connection points: 2
#     Edge 199, Type (0, 1), BuildingBlock: OJICUG_clean_linker_0, # of connection points: 2
#     Edge 200, Type (0, 1), BuildingBlock: OJICUG_clean_linker_0, # of connection points: 2
#     Edge 201, Type (0, 1), BuildingBlock: OJICUG_clean_linker_0, # of connection points: 2
#     Edge 202, Type (0, 1), BuildingBlock: OJICUG_clean_linker_0, # of connection points: 2
#     Edge 203, Type (0, 1), BuildingBlock: OJICUG_clean_linker_0, # of connection points: 2
#     Edge 204, Type (0, 1), BuildingBlock: OJICUG_clean_linker_0, # of connection points: 2
#     Edge 205, Type (0, 1), BuildingBlock: OJICUG_clean_linker_0, # of connection points: 2
#     Edge 206, Type (0, 1), BuildingBlock: OJICUG_clean_linker_0, # of connection points: 2
#     Edge 207, Type (0, 1), BuildingBlock: OJICUG_clean_linker_0, # of connection points: 2
#     Edge 208, Type (0, 1), BuildingBlock: OJICUG_clean_linker_0, # of connection points: 2
#     Edge 209, Type (0, 1), BuildingBlock: OJICUG_clean_linker_0, # of connection points: 2
#     Edge 210, Type (0, 1), BuildingBlock: OJICUG_clean_linker_0, # of connection points: 2
#     Edge 211, Type (0, 1), BuildingBlock: OJICUG_clean_linker_0, # of connection points: 2
#     Edge 212, Type (0, 1), BuildingBlock: OJICUG_clean_linker_0, # of connection points: 2
#     Edge 213, Type (0, 1), BuildingBlock: OJICUG_clean_linker_0, # of connection points: 2
#     Edge 214, Type (0, 1), BuildingBlock: OJICUG_clean_linker_0, # of connection points: 2
#     Edge 215, Type (0, 1), BuildingBlock: OJICUG_clean_linker_0, # of connection points: 2
#     Edge 216, Type (0, 1), BuildingBlock: OJICUG_clean_linker_0, # of connection points: 2
#     Edge 217, Type (0, 1), BuildingBlock: OJICUG_clean_linker_0, # of connection points: 2
#     Edge 218, Type (0, 1), BuildingBlock: OJICUG_clean_linker_0, # of connection points: 2
#     Edge 219, Type (0, 1), BuildingBlock: OJICUG_clean_linker_0, # of connection points: 2
#     Edge 220, Type (0, 1), BuildingBlock: OJICUG_clean_linker_0, # of connection points: 2
#     Edge 221, Type (0, 1), BuildingBlock: OJICUG_clean_linker_0, # of connection points: 2
#     Edge 222, Type (0, 1), BuildingBlock: OJICUG_clean_linker_0, # of connection points: 2
#     Edge 223, Type (0, 1), BuildingBlock: OJICUG_clean_linker_0, # of connection points: 2
#     Edge 224, Type (0, 1), BuildingBlock: OJICUG_clean_linker_0, # of connection points: 2
#     Edge 225, Type (0, 1), BuildingBlock: OJICUG_clean_linker_0, # of connection points: 2
#     Edge 226, Type (0, 1), BuildingBlock: OJICUG_clean_linker_0, # of connection points: 2
#     Edge 227, Type (0, 1), BuildingBlock: OJICUG_clean_linker_0, # of connection points: 2
#     Edge 228, Type (0, 1), BuildingBlock: OJICUG_clean_linker_0, # of connection points: 2
#     Edge 229, Type (0, 1), BuildingBlock: OJICUG_clean_linker_0, # of connection points: 2
#     Edge 230, Type (0, 1), BuildingBlock: OJICUG_clean_linker_0, # of connection points: 2
#     Edge 231, Type (0, 1), BuildingBlock: OJICUG_clean_linker_0, # of connection points: 2
#     Edge 232, Type (0, 1), BuildingBlock: OJICUG_clean_linker_0, # of connection points: 2
#     Edge 233, Type (0, 1), BuildingBlock: OJICUG_clean_linker_0, # of connection points: 2
#     Edge 234, Type (0, 1), BuildingBlock: OJICUG_clean_linker_0, # of connection points: 2
#     Edge 235, Type (0, 1), BuildingBlock: OJICUG_clean_linker_0, # of connection points: 2
#     Edge 236, Type (0, 1), BuildingBlock: OJICUG_clean_linker_0, # of connection points: 2
#     Edge 237, Type (0, 1), BuildingBlock: OJICUG_clean_linker_0, # of connection points: 2
#     Edge 238, Type (0, 1), BuildingBlock: OJICUG_clean_linker_0, # of connection points: 2
#     Edge 239, Type (0, 1), BuildingBlock: OJICUG_clean_linker_0, # of connection points: 2
#     Edge 240, Type (0, 1), BuildingBlock: OJICUG_clean_linker_0, # of connection points: 2
#     Edge 241, Type (0, 1), BuildingBlock: OJICUG_clean_linker_0, # of connection points: 2
#     Edge 242, Type (0, 1), BuildingBlock: OJICUG_clean_linker_0, # of connection points: 2
#     Edge 243, Type (0, 1), BuildingBlock: OJICUG_clean_linker_0, # of connection points: 2
#     Edge 244, Type (0, 1), BuildingBlock: OJICUG_clean_linker_0, # of connection points: 2
#     Edge 245, Type (0, 1), BuildingBlock: OJICUG_clean_linker_0, # of connection points: 2
#     Edge 246, Type (0, 1), BuildingBlock: OJICUG_clean_linker_0, # of connection points: 2
#     Edge 247, Type (0, 1), BuildingBlock: OJICUG_clean_linker_0, # of connection points: 2
#     Edge 248, Type (0, 1), BuildingBlock: OJICUG_clean_linker_0, # of connection points: 2
#     Edge 249, Type (0, 1), BuildingBlock: OJICUG_clean_linker_0, # of connection points: 2
#     Edge 250, Type (0, 1), BuildingBlock: OJICUG_clean_linker_0, # of connection points: 2
#     Edge 251, Type (0, 1), BuildingBlock: OJICUG_clean_linker_0, # of connection points: 2
#     Edge 252, Type (0, 1), BuildingBlock: OJICUG_clean_linker_0, # of connection points: 2
#     Edge 253, Type (0, 1), BuildingBlock: OJICUG_clean_linker_0, # of connection points: 2
#     Edge 254, Type (0, 1), BuildingBlock: OJICUG_clean_linker_0, # of connection points: 2
#     Edge 255, Type (0, 1), BuildingBlock: OJICUG_clean_linker_0, # of connection points: 2
#     Edge 256, Type (0, 1), BuildingBlock: OJICUG_clean_linker_0, # of connection points: 2
#     Edge 257, Type (0, 1), BuildingBlock: OJICUG_clean_linker_0, # of connection points: 2
#     Edge 258, Type (0, 1), BuildingBlock: OJICUG_clean_linker_0, # of connection points: 2
#     Edge 259, Type (0, 1), BuildingBlock: OJICUG_clean_linker_0, # of connection points: 2
#     Edge 260, Type (0, 1), BuildingBlock: OJICUG_clean_linker_0, # of connection points: 2
#     Edge 261, Type (0, 1), BuildingBlock: OJICUG_clean_linker_0, # of connection points: 2
#     Edge 262, Type (0, 1), BuildingBlock: OJICUG_clean_linker_0, # of connection points: 2
#     Edge 263, Type (0, 1), BuildingBlock: OJICUG_clean_linker_0, # of connection points: 2
#     Edge 264, Type (0, 1), BuildingBlock: OJICUG_clean_linker_0, # of connection points: 2
#     Edge 265, Type (0, 1), BuildingBlock: OJICUG_clean_linker_0, # of connection points: 2
#     Edge 266, Type (0, 1), BuildingBlock: OJICUG_clean_linker_0, # of connection points: 2
#     Edge 267, Type (0, 1), BuildingBlock: OJICUG_clean_linker_0, # of connection points: 2
#     Edge 268, Type (0, 1), BuildingBlock: OJICUG_clean_linker_0, # of connection points: 2
#     Edge 269, Type (0, 1), BuildingBlock: OJICUG_clean_linker_0, # of connection points: 2
#     Edge 270, Type (0, 1), BuildingBlock: OJICUG_clean_linker_0, # of connection points: 2
#     Edge 271, Type (0, 1), BuildingBlock: OJICUG_clean_linker_0, # of connection points: 2
#     Edge 272, Type (0, 1), BuildingBlock: OJICUG_clean_linker_0, # of connection points: 2
#     Edge 273, Type (0, 1), BuildingBlock: OJICUG_clean_linker_0, # of connection points: 2
#     Edge 274, Type (0, 1), BuildingBlock: OJICUG_clean_linker_0, # of connection points: 2
#     Edge 275, Type (0, 1), BuildingBlock: OJICUG_clean_linker_0, # of connection points: 2
#     Edge 276, Type (0, 1), BuildingBlock: OJICUG_clean_linker_0, # of connection points: 2
#     Edge 277, Type (0, 1), BuildingBlock: OJICUG_clean_linker_0, # of connection points: 2
#     Edge 278, Type (0, 1), BuildingBlock: OJICUG_clean_linker_0, # of connection points: 2
#     Edge 279, Type (0, 1), BuildingBlock: OJICUG_clean_linker_0, # of connection points: 2
#     Edge 280, Type (0, 1), BuildingBlock: OJICUG_clean_linker_0, # of connection points: 2
#     Edge 281, Type (0, 1), BuildingBlock: OJICUG_clean_linker_0, # of connection points: 2
#     Edge 282, Type (0, 1), BuildingBlock: OJICUG_clean_linker_0, # of connection points: 2
#     Edge 283, Type (0, 1), BuildingBlock: OJICUG_clean_linker_0, # of connection points: 2
#     Edge 284, Type (0, 1), BuildingBlock: OJICUG_clean_linker_0, # of connection points: 2
#     Edge 285, Type (0, 1), BuildingBlock: OJICUG_clean_linker_0, # of connection points: 2
#     Edge 286, Type (0, 1), BuildingBlock: OJICUG_clean_linker_0, # of connection points: 2
#     Edge 287, Type (0, 1), BuildingBlock: OJICUG_clean_linker_0, # of connection points: 2
#     Edge 288, Type (0, 1), BuildingBlock: OJICUG_clean_linker_0, # of connection points: 2
#     Edge 289, Type (0, 1), BuildingBlock: OJICUG_clean_linker_0, # of connection points: 2
#     Edge 290, Type (0, 1), BuildingBlock: OJICUG_clean_linker_0, # of connection points: 2
#     Edge 291, Type (0, 1), BuildingBlock: OJICUG_clean_linker_0, # of connection points: 2
#     Edge 292, Type (0, 1), BuildingBlock: OJICUG_clean_linker_0, # of connection points: 2
#     Edge 293, Type (0, 1), BuildingBlock: OJICUG_clean_linker_0, # of connection points: 2
#     Edge 294, Type (0, 1), BuildingBlock: OJICUG_clean_linker_0, # of connection points: 2
#     Edge 295, Type (0, 1), BuildingBlock: OJICUG_clean_linker_0, # of connection points: 2
#     Edge 296, Type (0, 1), BuildingBlock: OJICUG_clean_linker_0, # of connection points: 2
#     Edge 297, Type (0, 1), BuildingBlock: OJICUG_clean_linker_0, # of connection points: 2
#     Edge 298, Type (0, 1), BuildingBlock: OJICUG_clean_linker_0, # of connection points: 2
#     Edge 299, Type (0, 1), BuildingBlock: OJICUG_clean_linker_0, # of connection points: 2
#     Edge 300, Type (0, 1), BuildingBlock: OJICUG_clean_linker_0, # of connection points: 2
#     Edge 301, Type (0, 1), BuildingBlock: OJICUG_clean_linker_0, # of connection points: 2
#     Edge 302, Type (0, 1), BuildingBlock: OJICUG_clean_linker_0, # of connection points: 2
#     Edge 303, Type (0, 1), BuildingBlock: OJICUG_clean_linker_0, # of connection points: 2
#     Edge 304, Type (0, 1), BuildingBlock: OJICUG_clean_linker_0, # of connection points: 2
#     Edge 305, Type (0, 1), BuildingBlock: OJICUG_clean_linker_0, # of connection points: 2
#     Edge 306, Type (0, 1), BuildingBlock: OJICUG_clean_linker_0, # of connection points: 2
#     Edge 307, Type (0, 1), BuildingBlock: OJICUG_clean_linker_0, # of connection points: 2
#     Edge 308, Type (0, 1), BuildingBlock: OJICUG_clean_linker_0, # of connection points: 2
#     Edge 309, Type (0, 1), BuildingBlock: OJICUG_clean_linker_0, # of connection points: 2
#     Edge 310, Type (0, 1), BuildingBlock: OJICUG_clean_linker_0, # of connection points: 2
#     Edge 311, Type (0, 1), BuildingBlock: OJICUG_clean_linker_0, # of connection points: 2
#     Edge 312, Type (0, 1), BuildingBlock: OJICUG_clean_linker_0, # of connection points: 2
#     Edge 313, Type (0, 1), BuildingBlock: OJICUG_clean_linker_0, # of connection points: 2
#     Edge 314, Type (0, 1), BuildingBlock: OJICUG_clean_linker_0, # of connection points: 2
#     Edge 315, Type (0, 1), BuildingBlock: OJICUG_clean_linker_0, # of connection points: 2
#     Edge 316, Type (0, 1), BuildingBlock: OJICUG_clean_linker_0, # of connection points: 2
#     Edge 317, Type (0, 1), BuildingBlock: OJICUG_clean_linker_0, # of connection points: 2
#     Edge 318, Type (0, 1), BuildingBlock: OJICUG_clean_linker_0, # of connection points: 2
#     Edge 319, Type (0, 1), BuildingBlock: OJICUG_clean_linker_0, # of connection points: 2
#     Edge 320, Type (0, 1), BuildingBlock: OJICUG_clean_linker_0, # of connection points: 2
#     Edge 321, Type (0, 1), BuildingBlock: OJICUG_clean_linker_0, # of connection points: 2
#     Edge 322, Type (0, 1), BuildingBlock: OJICUG_clean_linker_0, # of connection points: 2
#     Edge 323, Type (0, 1), BuildingBlock: OJICUG_clean_linker_0, # of connection points: 2
#     Edge 324, Type (0, 1), BuildingBlock: OJICUG_clean_linker_0, # of connection points: 2
#     Edge 325, Type (0, 1), BuildingBlock: OJICUG_clean_linker_0, # of connection points: 2
#     Edge 326, Type (0, 1), BuildingBlock: OJICUG_clean_linker_0, # of connection points: 2
#     Edge 327, Type (0, 1), BuildingBlock: OJICUG_clean_linker_0, # of connection points: 2
#     Edge 328, Type (0, 1), BuildingBlock: OJICUG_clean_linker_0, # of connection points: 2
#     Edge 329, Type (0, 1), BuildingBlock: OJICUG_clean_linker_0, # of connection points: 2
#     Edge 330, Type (0, 1), BuildingBlock: OJICUG_clean_linker_0, # of connection points: 2
#     Edge 331, Type (0, 1), BuildingBlock: OJICUG_clean_linker_0, # of connection points: 2
#     Edge 332, Type (0, 1), BuildingBlock: OJICUG_clean_linker_0, # of connection points: 2
#     Edge 333, Type (0, 1), BuildingBlock: OJICUG_clean_linker_0, # of connection points: 2
#     Edge 334, Type (0, 1), BuildingBlock: OJICUG_clean_linker_0, # of connection points: 2
#     Edge 335, Type (0, 1), BuildingBlock: OJICUG_clean_linker_0, # of connection points: 2
#     Edge 336, Type (0, 1), BuildingBlock: OJICUG_clean_linker_0, # of connection points: 2
#     Edge 337, Type (0, 1), BuildingBlock: OJICUG_clean_linker_0, # of connection points: 2
#     Edge 338, Type (0, 1), BuildingBlock: OJICUG_clean_linker_0, # of connection points: 2
#     Edge 339, Type (0, 1), BuildingBlock: OJICUG_clean_linker_0, # of connection points: 2
#     Edge 340, Type (0, 1), BuildingBlock: OJICUG_clean_linker_0, # of connection points: 2
#     Edge 341, Type (0, 1), BuildingBlock: OJICUG_clean_linker_0, # of connection points: 2
#     Edge 342, Type (0, 1), BuildingBlock: OJICUG_clean_linker_0, # of connection points: 2
#     Edge 343, Type (0, 1), BuildingBlock: OJICUG_clean_linker_0, # of connection points: 2
#     Edge 344, Type (0, 1), BuildingBlock: OJICUG_clean_linker_0, # of connection points: 2
#     Edge 345, Type (0, 1), BuildingBlock: OJICUG_clean_linker_0, # of connection points: 2
#     Edge 346, Type (0, 1), BuildingBlock: OJICUG_clean_linker_0, # of connection points: 2
#     Edge 347, Type (0, 1), BuildingBlock: OJICUG_clean_linker_0, # of connection points: 2
#     Edge 348, Type (0, 1), BuildingBlock: OJICUG_clean_linker_0, # of connection points: 2
#     Edge 349, Type (0, 1), BuildingBlock: OJICUG_clean_linker_0, # of connection points: 2
#     Edge 350, Type (0, 1), BuildingBlock: OJICUG_clean_linker_0, # of connection points: 2
#     Edge 351, Type (0, 1), BuildingBlock: OJICUG_clean_linker_0, # of connection points: 2
#     Edge 352, Type (0, 1), BuildingBlock: OJICUG_clean_linker_0, # of connection points: 2
#     Edge 353, Type (0, 1), BuildingBlock: OJICUG_clean_linker_0, # of connection points: 2
#     Edge 354, Type (0, 1), BuildingBlock: OJICUG_clean_linker_0, # of connection points: 2
#     Edge 355, Type (0, 1), BuildingBlock: OJICUG_clean_linker_0, # of connection points: 2
#     Edge 356, Type (0, 1), BuildingBlock: OJICUG_clean_linker_0, # of connection points: 2
#     Edge 357, Type (0, 1), BuildingBlock: OJICUG_clean_linker_0, # of connection points: 2
#     Edge 358, Type (0, 1), BuildingBlock: OJICUG_clean_linker_0, # of connection points: 2
#     Edge 359, Type (0, 1), BuildingBlock: OJICUG_clean_linker_0, # of connection points: 2
#     Edge 360, Type (0, 1), BuildingBlock: OJICUG_clean_linker_0, # of connection points: 2
#     Edge 361, Type (0, 1), BuildingBlock: OJICUG_clean_linker_0, # of connection points: 2
#     Edge 362, Type (0, 1), BuildingBlock: OJICUG_clean_linker_0, # of connection points: 2
#     Edge 363, Type (0, 1), BuildingBlock: OJICUG_clean_linker_0, # of connection points: 2
#     Edge 364, Type (0, 1), BuildingBlock: OJICUG_clean_linker_0, # of connection points: 2
#     Edge 365, Type (0, 1), BuildingBlock: OJICUG_clean_linker_0, # of connection points: 2
#     Edge 366, Type (0, 1), BuildingBlock: OJICUG_clean_linker_0, # of connection points: 2
#     Edge 367, Type (0, 1), BuildingBlock: OJICUG_clean_linker_0, # of connection points: 2
#     Edge 368, Type (0, 1), BuildingBlock: OJICUG_clean_linker_0, # of connection points: 2
#     Edge 369, Type (0, 1), BuildingBlock: OJICUG_clean_linker_0, # of connection points: 2
#     Edge 370, Type (0, 1), BuildingBlock: OJICUG_clean_linker_0, # of connection points: 2
#     Edge 371, Type (0, 1), BuildingBlock: OJICUG_clean_linker_0, # of connection points: 2
#     Edge 372, Type (0, 1), BuildingBlock: OJICUG_clean_linker_0, # of connection points: 2
#     Edge 373, Type (0, 1), BuildingBlock: OJICUG_clean_linker_0, # of connection points: 2
#     Edge 374, Type (0, 1), BuildingBlock: OJICUG_clean_linker_0, # of connection points: 2
#     Edge 375, Type (0, 1), BuildingBlock: OJICUG_clean_linker_0, # of connection points: 2
#     Edge 376, Type (0, 1), BuildingBlock: OJICUG_clean_linker_0, # of connection points: 2
#     Edge 377, Type (0, 1), BuildingBlock: OJICUG_clean_linker_0, # of connection points: 2
#     Edge 378, Type (0, 1), BuildingBlock: OJICUG_clean_linker_0, # of connection points: 2
#     Edge 379, Type (0, 1), BuildingBlock: OJICUG_clean_linker_0, # of connection points: 2
#     Edge 380, Type (0, 1), BuildingBlock: OJICUG_clean_linker_0, # of connection points: 2
#     Edge 381, Type (0, 1), BuildingBlock: OJICUG_clean_linker_0, # of connection points: 2
#     Edge 382, Type (0, 1), BuildingBlock: OJICUG_clean_linker_0, # of connection points: 2
#     Edge 383, Type (0, 1), BuildingBlock: OJICUG_clean_linker_0, # of connection points: 2
#     Edge 384, Type (0, 1), BuildingBlock: OJICUG_clean_linker_0, # of connection points: 2
#     Edge 385, Type (0, 1), BuildingBlock: OJICUG_clean_linker_0, # of connection points: 2
#     Edge 386, Type (0, 1), BuildingBlock: OJICUG_clean_linker_0, # of connection points: 2
#     Edge 387, Type (0, 1), BuildingBlock: OJICUG_clean_linker_0, # of connection points: 2
#     Edge 388, Type (0, 1), BuildingBlock: OJICUG_clean_linker_0, # of connection points: 2
#     Edge 389, Type (0, 1), BuildingBlock: OJICUG_clean_linker_0, # of connection points: 2
#     Edge 390, Type (0, 1), BuildingBlock: OJICUG_clean_linker_0, # of connection points: 2
#     Edge 391, Type (0, 1), BuildingBlock: OJICUG_clean_linker_0, # of connection points: 2
#     Edge 392, Type (0, 1), BuildingBlock: OJICUG_clean_linker_0, # of connection points: 2
#     Edge 393, Type (0, 1), BuildingBlock: OJICUG_clean_linker_0, # of connection points: 2
#     Edge 394, Type (0, 1), BuildingBlock: OJICUG_clean_linker_0, # of connection points: 2
#     Edge 395, Type (0, 1), BuildingBlock: OJICUG_clean_linker_0, # of connection points: 2
#     Edge 396, Type (0, 1), BuildingBlock: OJICUG_clean_linker_0, # of connection points: 2
#     Edge 397, Type (0, 1), BuildingBlock: OJICUG_clean_linker_0, # of connection points: 2
#     Edge 398, Type (0, 1), BuildingBlock: OJICUG_clean_linker_0, # of connection points: 2
#     Edge 399, Type (0, 1), BuildingBlock: OJICUG_clean_linker_0, # of connection points: 2
#     Edge 400, Type (0, 1), BuildingBlock: OJICUG_clean_linker_0, # of connection points: 2
#     Edge 401, Type (0, 1), BuildingBlock: OJICUG_clean_linker_0, # of connection points: 2
#     Edge 402, Type (0, 1), BuildingBlock: OJICUG_clean_linker_0, # of connection points: 2
#     Edge 403, Type (0, 1), BuildingBlock: OJICUG_clean_linker_0, # of connection points: 2
#     Edge 404, Type (0, 1), BuildingBlock: OJICUG_clean_linker_0, # of connection points: 2
#     Edge 405, Type (0, 1), BuildingBlock: OJICUG_clean_linker_0, # of connection points: 2
#     Edge 406, Type (0, 1), BuildingBlock: OJICUG_clean_linker_0, # of connection points: 2
#     Edge 407, Type (0, 1), BuildingBlock: OJICUG_clean_linker_0, # of connection points: 2
#     Edge 408, Type (0, 1), BuildingBlock: OJICUG_clean_linker_0, # of connection points: 2
#     Edge 409, Type (0, 1), BuildingBlock: OJICUG_clean_linker_0, # of connection points: 2
#     Edge 410, Type (0, 1), BuildingBlock: OJICUG_clean_linker_0, # of connection points: 2
#     Edge 411, Type (0, 1), BuildingBlock: OJICUG_clean_linker_0, # of connection points: 2
#     Edge 412, Type (0, 1), BuildingBlock: OJICUG_clean_linker_0, # of connection points: 2
#     Edge 413, Type (0, 1), BuildingBlock: OJICUG_clean_linker_0, # of connection points: 2
#     Edge 414, Type (0, 1), BuildingBlock: OJICUG_clean_linker_0, # of connection points: 2
#     Edge 415, Type (0, 1), BuildingBlock: OJICUG_clean_linker_0, # of connection points: 2
#     Edge 416, Type (0, 1), BuildingBlock: OJICUG_clean_linker_0, # of connection points: 2
#     Edge 417, Type (0, 1), BuildingBlock: OJICUG_clean_linker_0, # of connection points: 2
#     Edge 418, Type (0, 1), BuildingBlock: OJICUG_clean_linker_0, # of connection points: 2
#     Edge 419, Type (0, 1), BuildingBlock: OJICUG_clean_linker_0, # of connection points: 2
#     Edge 420, Type (0, 1), BuildingBlock: OJICUG_clean_linker_0, # of connection points: 2
#     Edge 421, Type (0, 1), BuildingBlock: OJICUG_clean_linker_0, # of connection points: 2
#     Edge 422, Type (0, 1), BuildingBlock: OJICUG_clean_linker_0, # of connection points: 2
#     Edge 423, Type (0, 1), BuildingBlock: OJICUG_clean_linker_0, # of connection points: 2
#     Edge 424, Type (0, 1), BuildingBlock: OJICUG_clean_linker_0, # of connection points: 2
#     Edge 425, Type (0, 1), BuildingBlock: OJICUG_clean_linker_0, # of connection points: 2
#     Edge 426, Type (0, 1), BuildingBlock: OJICUG_clean_linker_0, # of connection points: 2
#     Edge 427, Type (0, 1), BuildingBlock: OJICUG_clean_linker_0, # of connection points: 2
#     Edge 428, Type (0, 1), BuildingBlock: OJICUG_clean_linker_0, # of connection points: 2
#     Edge 429, Type (0, 1), BuildingBlock: OJICUG_clean_linker_0, # of connection points: 2
#     Edge 430, Type (0, 1), BuildingBlock: OJICUG_clean_linker_0, # of connection points: 2
#     Edge 431, Type (0, 1), BuildingBlock: OJICUG_clean_linker_0, # of connection points: 2
#     Edge 432, Type (0, 1), BuildingBlock: OJICUG_clean_linker_0, # of connection points: 2
#     Edge 433, Type (0, 1), BuildingBlock: OJICUG_clean_linker_0, # of connection points: 2
#     Edge 434, Type (0, 1), BuildingBlock: OJICUG_clean_linker_0, # of connection points: 2
#     Edge 435, Type (0, 1), BuildingBlock: OJICUG_clean_linker_0, # of connection points: 2
#     Edge 436, Type (0, 1), BuildingBlock: OJICUG_clean_linker_0, # of connection points: 2
#     Edge 437, Type (0, 1), BuildingBlock: OJICUG_clean_linker_0, # of connection points: 2
#     Edge 438, Type (0, 1), BuildingBlock: OJICUG_clean_linker_0, # of connection points: 2
#     Edge 439, Type (0, 1), BuildingBlock: OJICUG_clean_linker_0, # of connection points: 2
#     Edge 440, Type (0, 1), BuildingBlock: OJICUG_clean_linker_0, # of connection points: 2
#     Edge 441, Type (0, 1), BuildingBlock: OJICUG_clean_linker_0, # of connection points: 2
#     Edge 442, Type (0, 1), BuildingBlock: OJICUG_clean_linker_0, # of connection points: 2
#     Edge 443, Type (0, 1), BuildingBlock: OJICUG_clean_linker_0, # of connection points: 2
#     Edge 444, Type (0, 1), BuildingBlock: OJICUG_clean_linker_0, # of connection points: 2
#     Edge 445, Type (0, 1), BuildingBlock: OJICUG_clean_linker_0, # of connection points: 2
#     Edge 446, Type (0, 1), BuildingBlock: OJICUG_clean_linker_0, # of connection points: 2
#     Edge 447, Type (0, 1), BuildingBlock: OJICUG_clean_linker_0, # of connection points: 2
#     Edge 448, Type (0, 1), BuildingBlock: OJICUG_clean_linker_0, # of connection points: 2
#     Edge 449, Type (0, 1), BuildingBlock: OJICUG_clean_linker_0, # of connection points: 2
#     Edge 450, Type (0, 1), BuildingBlock: OJICUG_clean_linker_0, # of connection points: 2
#     Edge 451, Type (0, 1), BuildingBlock: OJICUG_clean_linker_0, # of connection points: 2
#     Edge 452, Type (0, 1), BuildingBlock: OJICUG_clean_linker_0, # of connection points: 2
#     Edge 453, Type (0, 1), BuildingBlock: OJICUG_clean_linker_0, # of connection points: 2
#     Edge 454, Type (0, 1), BuildingBlock: OJICUG_clean_linker_0, # of connection points: 2
#     Edge 455, Type (0, 1), BuildingBlock: OJICUG_clean_linker_0, # of connection points: 2
#     Edge 456, Type (0, 1), BuildingBlock: OJICUG_clean_linker_0, # of connection points: 2
#     Edge 457, Type (0, 1), BuildingBlock: OJICUG_clean_linker_0, # of connection points: 2
#     Edge 458, Type (0, 1), BuildingBlock: OJICUG_clean_linker_0, # of connection points: 2
#     Edge 459, Type (0, 1), BuildingBlock: OJICUG_clean_linker_0, # of connection points: 2
#     Edge 460, Type (0, 1), BuildingBlock: OJICUG_clean_linker_0, # of connection points: 2
#     Edge 461, Type (0, 1), BuildingBlock: OJICUG_clean_linker_0, # of connection points: 2
#     Edge 462, Type (0, 1), BuildingBlock: OJICUG_clean_linker_0, # of connection points: 2
#     Edge 463, Type (0, 1), BuildingBlock: OJICUG_clean_linker_0, # of connection points: 2
#     Edge 464, Type (0, 1), BuildingBlock: OJICUG_clean_linker_0, # of connection points: 2
#     Edge 465, Type (0, 1), BuildingBlock: OJICUG_clean_linker_0, # of connection points: 2
#     Edge 466, Type (0, 1), BuildingBlock: OJICUG_clean_linker_0, # of connection points: 2
#     Edge 467, Type (0, 1), BuildingBlock: OJICUG_clean_linker_0, # of connection points: 2
#     Edge 468, Type (0, 1), BuildingBlock: OJICUG_clean_linker_0, # of connection points: 2
#     Edge 469, Type (0, 1), BuildingBlock: OJICUG_clean_linker_0, # of connection points: 2
#     Edge 470, Type (0, 1), BuildingBlock: OJICUG_clean_linker_0, # of connection points: 2
#     Edge 471, Type (0, 1), BuildingBlock: OJICUG_clean_linker_0, # of connection points: 2
#     Edge 472, Type (0, 1), BuildingBlock: OJICUG_clean_linker_0, # of connection points: 2
#     Edge 473, Type (0, 1), BuildingBlock: OJICUG_clean_linker_0, # of connection points: 2
#     Edge 474, Type (0, 1), BuildingBlock: OJICUG_clean_linker_0, # of connection points: 2
#     Edge 475, Type (0, 1), BuildingBlock: OJICUG_clean_linker_0, # of connection points: 2
#     Edge 476, Type (0, 1), BuildingBlock: OJICUG_clean_linker_0, # of connection points: 2
#     Edge 477, Type (0, 1), BuildingBlock: OJICUG_clean_linker_0, # of connection points: 2
#     Edge 478, Type (0, 1), BuildingBlock: OJICUG_clean_linker_0, # of connection points: 2
#     Edge 479, Type (0, 1), BuildingBlock: OJICUG_clean_linker_0, # of connection points: 2
# Relax obj value: 0.121
# Max RMSD: 0.103
# Mean RMSD: 0.102
data_MOF--net-ana-f--node1-WUSLED_clean_sbu_0--node2-WUSLED_clean_sbu_0--edge1-OJICUG_clean_linker_0
_symmetry_space_group_name_H-M    P1
_symmetry_Int_Tables_number       1
_symmetry_cell_setting            triclinic
loop_
_symmetry_equiv_pos_as_xyz
'x, y, z'
_cell_length_a     186.63811
_cell_length_b     187.08606
_cell_length_c     186.93165
_cell_angle_alpha  90.011519
_cell_angle_beta   89.991997
_cell_angle_gamma 89.981143
loop_
_atom_site_label
_atom_site_type_symbol
_atom_site_fract_x
_atom_site_fract_y
_atom_site_fract_z
_atom_type_partial_charge
C0 C 0.07689 0.14724 0.43509 0.0
C1 C 0.08387 0.1482 0.43241 0.0
C2 C 0.08865 0.13979 0.4413 0.0
C3 C 0.08969 0.14449 0.43548 0.0
C4 C 0.08166 0.139 0.44402 0.0
C5 C 0.07588 0.14266 0.44094 0.0
U6 U 0.06624 0.16006 0.42219 0.0
O7 O 0.05657 0.15734 0.41597 0.0
O8 O 0.05595 0.16555 0.42433 0.0
C9 C 0.05247 0.16188 0.41944 0.0
C10 C 0.07047 0.15053 0.43172 0.0
C11 C 0.04499 0.15966 0.42105 0.0
C12 C 0.03598 0.15127 0.42554 0.0
C13 C 0.04322 0.1533 0.42468 0.0
C14 C 0.03224 0.16201 0.41937 0.0
C15 C 0.03041 0.15562 0.42286 0.0
C16 C 0.03942 0.16398 0.41846 0.0
C17 C 0.07824 0.17298 0.40998 0.0
C18 C 0.0762 0.18085 0.39971 0.0
C19 C 0.08821 0.17917 0.4043 0.0
C20 C 0.08556 0.17463 0.40959 0.0
C21 C 0.08361 0.18227 0.39924 0.0
C22 C 0.07352 0.1762 0.40504 0.0
C23 C 0.07605 0.16756 0.41535 0.0
O24 O 0.06899 0.15721 0.43334 0.0
O25 O 0.06932 0.14904 0.42495 0.0
O26 O 0.0736 0.16139 0.41305 0.0
O27 O 0.07306 0.1697 0.42134 0.0
H28 H 0.0848 0.15171 0.42791 0.0
H29 H 0.09501 0.14532 0.43332 0.0
H30 H 0.08062 0.1354 0.44843 0.0
H31 H 0.07055 0.1418 0.44308 0.0
H32 H 0.03472 0.14634 0.42829 0.0
H33 H 0.04741 0.14987 0.42674 0.0
H34 H 0.0281 0.16544 0.41719 0.0
H35 H 0.04063 0.16886 0.41559 0.0
H36 H 0.07255 0.18315 0.39584 0.0
H37 H 0.09393 0.18015 0.40404 0.0
H38 H 0.0893 0.17221 0.41331 0.0
H39 H 0.06785 0.17501 0.40522 0.0
C40 C 0.12509 0.82574 0.68506 0.0
C41 C 0.12387 0.83273 0.68259 0.0
C42 C 0.13251 0.83749 0.69127 0.0
C43 C 0.12755 0.83855 0.68566 0.0
C44 C 0.13357 0.83048 0.69378 0.0
C45 C 0.12992 0.8247 0.69072 0.0
U46 U 0.11233 0.81523 0.67204 0.0
O47 O 0.115 0.80557 0.66582 0.0
O48 O 0.10673 0.80505 0.67417 0.0
C49 C 0.11034 0.80157 0.66924 0.0
C50 C 0.12179 0.81934 0.68171 0.0
C51 C 0.11231 0.79403 0.67064 0.0
C52 C 0.11864 0.78452 0.67698 0.0
C53 C 0.11711 0.79185 0.67601 0.0
C54 C 0.11077 0.78162 0.66712 0.0
C55 C 0.11544 0.77926 0.67256 0.0
C56 C 0.1092 0.78885 0.66624 0.0
C57 C 0.09975 0.82745 0.65963 0.0
C58 C 0.09151 0.82585 0.64956 0.0
C59 C 0.09351 0.83763 0.65449 0.0
C60 C 0.09826 0.83477 0.65948 0.0
C61 C 0.08998 0.83326 0.64949 0.0
C62 C 0.09636 0.82296 0.65462 0.0
C63 C 0.10506 0.82505 0.66502 0.0
O64 O 0.11505 0.81797 0.68323 0.0
O65 O 0.12339 0.81814 0.67497 0.0
O66 O 0.11124 0.8225 0.66281 0.0
O67 O 0.10278 0.82215 0.67101 0.0
H68 H 0.12015 0.83368 0.67824 0.0
H69 H 0.1265 0.84388 0.68365 0.0
H70 H 0.13738 0.82941 0.69802 0.0
H71 H 0.13098 0.81936 0.6927 0.0
H72 H 0.12225 0.783 0.68124 0.0
H73 H 0.11962 0.79577 0.67945 0.0
H74 H 0.10838 0.7779 0.6634 0.0
H75 H 0.10554 0.79041 0.66202 0.0
H76 H 0.08891 0.82231 0.64578 0.0
H77 H 0.09269 0.84336 0.65452 0.0
H78 H 0.10086 0.83836 0.66322 0.0
H79 H 0.09745 0.81727 0.6546 0.0
C80 C 0.44674 0.87363 0.93512 0.0
C81 C 0.43979 0.87276 0.93237 0.0
C82 C 0.43505 0.88104 0.94133 0.0
C83 C 0.43399 0.87646 0.93544 0.0
C84 C 0.44198 0.88173 0.94417 0.0
C85 C 0.44776 0.87809 0.94107 0.0
U86 U 0.45713 0.86079 0.92217 0.0
O87 O 0.46676 0.86335 0.91584 0.0
O88 O 0.46734 0.8552 0.92426 0.0
C89 C 0.47082 0.85878 0.91931 0.0
C90 C 0.45314 0.87037 0.93174 0.0
C91 C 0.47829 0.86096 0.92087 0.0
C92 C 0.48734 0.86843 0.92664 0.0
C93 C 0.48011 0.86644 0.9257 0.0
C94 C 0.49094 0.85945 0.91804 0.0
C95 C 0.4928 0.86497 0.92275 0.0
C96 C 0.48378 0.85746 0.91712 0.0
C97 C 0.44507 0.84797 0.91003 0.0
C98 C 0.4472 0.84015 0.89975 0.0
C99 C 0.43516 0.84175 0.90429 0.0
C100 C 0.43776 0.84629 0.90961 0.0
C101 C 0.43981 0.8387 0.89925 0.0
C102 C 0.44983 0.8448 0.90511 0.0
C103 C 0.44719 0.8534 0.91541 0.0
O104 O 0.45457 0.86368 0.93335 0.0
O105 O 0.45423 0.87186 0.92496 0.0
O106 O 0.44966 0.85956 0.91311 0.0
O107 O 0.45018 0.85124 0.9214 0.0
H108 H 0.43887 0.86932 0.9278 0.0
H109 H 0.42868 0.87576 0.9332 0.0
H110 H 0.44297 0.88524 0.94867 0.0
H111 H 0.45307 0.87888 0.94326 0.0
H112 H 0.48866 0.87273 0.93028 0.0
H113 H 0.47596 0.86923 0.92864 0.0
H114 H 0.49504 0.85673 0.91497 0.0
H115 H 0.48251 0.85323 0.91337 0.0
H116 H 0.45088 0.83789 0.89588 0.0
H117 H 0.42945 0.84074 0.90401 0.0
H118 H 0.43399 0.84867 0.91332 0.0
H119 H 0.45549 0.84603 0.90531 0.0
C120 C 0.39843 0.19538 0.1851 0.0
C121 C 0.39962 0.18842 0.18254 0.0
C122 C 0.391 0.18361 0.1912 0.0
C123 C 0.39593 0.18259 0.18556 0.0
C124 C 0.38997 0.1906 0.1938 0.0
C125 C 0.39364 0.19639 0.19079 0.0
U126 U 0.41108 0.20615 0.17215 0.0
O127 O 0.40826 0.2159 0.16618 0.0
O128 O 0.41664 0.21631 0.17444 0.0
C129 C 0.41295 0.21985 0.16961 0.0
C130 C 0.40171 0.2018 0.18179 0.0
C131 C 0.41101 0.22735 0.17115 0.0
C132 C 0.4036 0.23672 0.17645 0.0
C133 C 0.40537 0.22942 0.17571 0.0
C134 C 0.41317 0.23981 0.16826 0.0
C135 C 0.4074 0.24198 0.17257 0.0
C136 C 0.41491 0.23261 0.16755 0.0
C137 C 0.42358 0.19386 0.15955 0.0
C138 C 0.43256 0.195 0.15006 0.0
C139 C 0.42875 0.1833 0.15404 0.0
C140 C 0.42413 0.18644 0.15896 0.0
C141 C 0.43317 0.18747 0.14957 0.0
C142 C 0.42779 0.19818 0.15502 0.0
C143 C 0.41839 0.19655 0.16492 0.0
O144 O 0.40845 0.20318 0.18329 0.0
O145 O 0.40007 0.20308 0.17508 0.0
O146 O 0.41218 0.19906 0.16277 0.0
O147 O 0.42073 0.1994 0.17091 0.0
H148 H 0.40332 0.1875 0.17817 0.0
H149 H 0.39694 0.17727 0.1835 0.0
H150 H 0.38619 0.19163 0.19807 0.0
H151 H 0.39261 0.20171 0.19283 0.0
H152 H 0.39914 0.23823 0.17983 0.0
H153 H 0.40229 0.22543 0.17856 0.0
H154 H 0.41632 0.24369 0.16534 0.0
H155 H 0.4193 0.23114 0.16404 0.0
H156 H 0.43583 0.19841 0.14671 0.0
H157 H 0.42876 0.17753 0.15371 0.0
H158 H 0.42089 0.183 0.16233 0.0
H159 H 0.42741 0.20395 0.15534 0.0
C160 C 0.07704 0.87377 0.08677 0.0
C161 C 0.08403 0.87285 0.08944 0.0
C162 C 0.08877 0.88124 0.08052 0.0
C163 C 0.08983 0.87656 0.08635 0.0
C164 C 0.08178 0.88201 0.07781 0.0
C165 C 0.07601 0.87834 0.0809 0.0
U166 U 0.06643 0.86088 0.09965 0.0
O167 O 0.05673 0.86354 0.10586 0.0
O168 O 0.05619 0.85534 0.09748 0.0
C169 C 0.05268 0.85897 0.10238 0.0
C170 C 0.07064 0.87046 0.09014 0.0
C171 C 0.04519 0.86114 0.10077 0.0
C172 C 0.03616 0.86942 0.09616 0.0
C173 C 0.04341 0.86743 0.09703 0.0
C174 C 0.03247 0.85877 0.10252 0.0
C175 C 0.03062 0.86511 0.09893 0.0
C176 C 0.03965 0.85685 0.10345 0.0
C177 C 0.07831 0.8479 0.11188 0.0
C178 C 0.07617 0.84009 0.12217 0.0
C179 C 0.0882 0.84161 0.11759 0.0
C180 C 0.08561 0.84616 0.11227 0.0
C181 C 0.08356 0.8386 0.12267 0.0
C182 C 0.07355 0.84475 0.11681 0.0
C183 C 0.07622 0.85336 0.10651 0.0
O184 O 0.06918 0.86378 0.08851 0.0
O185 O 0.06948 0.87193 0.09692 0.0
O186 O 0.07376 0.85953 0.10881 0.0
O187 O 0.07328 0.85126 0.10047 0.0
H188 H 0.08498 0.86934 0.09395 0.0
H189 H 0.09516 0.87575 0.08851 0.0
H190 H 0.08072 0.88559 0.07339 0.0
H191 H 0.07068 0.87918 0.07877 0.0
H192 H 0.03488 0.87431 0.09333 0.0
H193 H 0.04758 0.87083 0.0949 0.0
H194 H 0.02834 0.85538 0.10477 0.0
H195 H 0.04089 0.85201 0.10639 0.0
H196 H 0.07249 0.83787 0.12606 0.0
H197 H 0.09391 0.84058 0.11787 0.0
H198 H 0.08939 0.84852 0.10856 0.0
H199 H 0.06789 0.84601 0.11662 0.0
C200 C 0.39832 0.82551 0.33676 0.0
C201 C 0.39951 0.83247 0.33933 0.0
C202 C 0.39098 0.83732 0.3306 0.0
C203 C 0.39587 0.83832 0.33628 0.0
C204 C 0.38996 0.83034 0.32797 0.0
C205 C 0.39358 0.82454 0.33102 0.0
U206 U 0.41115 0.81475 0.34952 0.0
O207 O 0.40851 0.80505 0.35568 0.0
O208 O 0.41659 0.80454 0.34714 0.0
C209 C 0.41306 0.80104 0.35212 0.0
C210 C 0.40154 0.81907 0.3401 0.0
C211 C 0.41102 0.79353 0.35069 0.0
C212 C 0.40382 0.78416 0.3451 0.0
C213 C 0.40563 0.79145 0.34585 0.0
C214 C 0.41282 0.78107 0.35389 0.0
C215 C 0.40732 0.7789 0.34924 0.0
C216 C 0.41463 0.78826 0.3546 0.0
C217 C 0.42449 0.82656 0.36149 0.0
C218 C 0.43071 0.82597 0.37301 0.0
C219 C 0.43209 0.83634 0.36542 0.0
C220 C 0.42767 0.83322 0.36029 0.0
C221 C 0.43345 0.83292 0.37198 0.0
C222 C 0.4262 0.82282 0.36781 0.0
C223 C 0.41887 0.82435 0.35633 0.0
O224 O 0.4082 0.81754 0.33841 0.0
O225 O 0.40009 0.81794 0.34688 0.0
O226 O 0.41274 0.82189 0.35878 0.0
O227 O 0.42081 0.82155 0.35018 0.0
H228 H 0.40317 0.83337 0.34373 0.0
H229 H 0.39688 0.84363 0.33836 0.0
H230 H 0.38622 0.82933 0.32367 0.0
H231 H 0.39255 0.81922 0.32896 0.0
H232 H 0.39955 0.78266 0.34147 0.0
H233 H 0.40278 0.79544 0.34276 0.0
H234 H 0.41572 0.77717 0.35706 0.0
H235 H 0.41883 0.78973 0.35833 0.0
H236 H 0.43171 0.82315 0.37798 0.0
H237 H 0.43424 0.84161 0.36434 0.0
H238 H 0.42646 0.83621 0.35548 0.0
H239 H 0.42384 0.81763 0.36885 0.0
C240 C 0.44668 0.14725 0.58675 0.0
C241 C 0.43971 0.14818 0.58946 0.0
C242 C 0.43493 0.13983 0.58054 0.0
C243 C 0.4339 0.14449 0.5864 0.0
C244 C 0.4419 0.13909 0.57776 0.0
C245 C 0.44768 0.14273 0.58084 0.0
U246 U 0.45701 0.16007 0.59977 0.0
O247 O 0.46667 0.15757 0.60607 0.0
O248 O 0.46717 0.16576 0.59768 0.0
C249 C 0.47068 0.16219 0.60261 0.0
C250 C 0.45307 0.15053 0.59013 0.0
C251 C 0.47818 0.16007 0.60105 0.0
C252 C 0.4873 0.15279 0.59515 0.0
C253 C 0.48005 0.15472 0.5961 0.0
C254 C 0.4908 0.16155 0.60402 0.0
C255 C 0.49271 0.15616 0.59918 0.0
C256 C 0.48363 0.1635 0.60492 0.0
C257 C 0.44497 0.17286 0.61196 0.0
C258 C 0.44682 0.17986 0.62287 0.0
C259 C 0.4354 0.18032 0.61676 0.0
C260 C 0.43798 0.17556 0.6116 0.0
C261 C 0.43974 0.18249 0.62249 0.0
C262 C 0.44944 0.1751 0.61761 0.0
C263 C 0.44703 0.16738 0.60659 0.0
O264 O 0.45446 0.15724 0.58857 0.0
O265 O 0.45419 0.149 0.5969 0.0
O266 O 0.44959 0.16125 0.60888 0.0
O267 O 0.44993 0.16952 0.60055 0.0
H268 H 0.43879 0.15166 0.594 0.0
H269 H 0.42859 0.14527 0.5886 0.0
H270 H 0.44291 0.13553 0.5733 0.0
H271 H 0.453 0.14191 0.57867 0.0
H272 H 0.48867 0.14857 0.59142 0.0
H273 H 0.47594 0.15198 0.59307 0.0
H274 H 0.49486 0.16421 0.60719 0.0
H275 H 0.48232 0.16763 0.60876 0.0
H276 H 0.45028 0.18146 0.62724 0.0
H277 H 0.42991 0.18216 0.61638 0.0
H278 H 0.4344 0.17386 0.60736 0.0
H279 H 0.45487 0.17309 0.61802 0.0
C280 C 0.12497 0.19541 0.83673 0.0
C281 C 0.1237 0.18844 0.83922 0.0
C282 C 0.1324 0.18363 0.83063 0.0
C283 C 0.12739 0.1826 0.8362 0.0
C284 C 0.1335 0.19062 0.82809 0.0
C285 C 0.12984 0.19642 0.83111 0.0
U286 U 0.11235 0.20627 0.84968 0.0
O287 O 0.11525 0.21605 0.85559 0.0
O288 O 0.10682 0.21646 0.84737 0.0
C289 C 0.11055 0.22 0.85217 0.0
C290 C 0.1217 0.20184 0.84005 0.0
C291 C 0.1124 0.22755 0.85068 0.0
C292 C 0.11992 0.23708 0.84582 0.0
C293 C 0.11829 0.22973 0.84652 0.0
C294 C 0.1097 0.23999 0.85324 0.0
C295 C 0.1157 0.24229 0.84933 0.0
C296 C 0.10811 0.23275 0.85392 0.0
C297 C 0.09974 0.194 0.86226 0.0
C298 C 0.09078 0.19505 0.87179 0.0
C299 C 0.0945 0.18339 0.86761 0.0
C300 C 0.09912 0.18658 0.86272 0.0
C301 C 0.09012 0.18752 0.87217 0.0
C302 C 0.09556 0.19828 0.86686 0.0
C303 C 0.10495 0.19674 0.85693 0.0
O304 O 0.11496 0.20324 0.83855 0.0
O305 O 0.12333 0.20311 0.84677 0.0
O306 O 0.11117 0.19923 0.85909 0.0
O307 O 0.10265 0.19959 0.85092 0.0
H308 H 0.11995 0.18752 0.84355 0.0
H309 H 0.12632 0.17728 0.83821 0.0
H310 H 0.13735 0.19167 0.82388 0.0
H311 H 0.13093 0.20175 0.82913 0.0
H312 H 0.12458 0.23865 0.84275 0.0
H313 H 0.12168 0.2258 0.84393 0.0
H314 H 0.1062 0.24379 0.85585 0.0
H315 H 0.10353 0.23119 0.85713 0.0
H316 H 0.08755 0.19844 0.8752 0.0
H317 H 0.09447 0.17762 0.86786 0.0
H318 H 0.10233 0.18316 0.8593 0.0
H319 H 0.09598 0.20405 0.86664 0.0
C320 C 0.43575 0.07534 0.14761 0.0
C321 C 0.4339 0.08235 0.1496 0.0
C322 C 0.44179 0.08727 0.1403 0.0
C323 C 0.43689 0.08825 0.14598 0.0
C324 C 0.44366 0.08022 0.13844 0.0
C325 C 0.44069 0.07436 0.14204 0.0
U326 U 0.42299 0.06486 0.16061 0.0
O327 O 0.41664 0.05523 0.15811 0.0
O328 O 0.42513 0.05466 0.1662 0.0
C329 C 0.42014 0.05118 0.16267 0.0
C330 C 0.43249 0.06891 0.15095 0.0
C331 C 0.42166 0.0437 0.16049 0.0
C332 C 0.42728 0.03464 0.15289 0.0
C333 C 0.42638 0.04187 0.1549 0.0
C334 C 0.41886 0.03106 0.16206 0.0
C335 C 0.42346 0.02919 0.15643 0.0
C336 C 0.41798 0.03821 0.16406 0.0
C337 C 0.41083 0.07698 0.17341 0.0
C338 C 0.40053 0.07495 0.18126 0.0
C339 C 0.40514 0.08692 0.17961 0.0
C340 C 0.41046 0.08428 0.17506 0.0
C341 C 0.40007 0.08233 0.18269 0.0
C342 C 0.40588 0.07228 0.17661 0.0
C343 C 0.41621 0.0748 0.16798 0.0
O344 O 0.43414 0.06754 0.15765 0.0
O345 O 0.42572 0.0677 0.14949 0.0
O346 O 0.41389 0.07229 0.16184 0.0
O347 O 0.42221 0.07182 0.17015 0.0
H348 H 0.43011 0.08326 0.1539 0.0
H349 H 0.43539 0.09359 0.14765 0.0
H350 H 0.44733 0.07919 0.13406 0.0
H351 H 0.44218 0.06901 0.14038 0.0
H352 H 0.43085 0.03333 0.14852 0.0
H353 H 0.42928 0.046 0.15206 0.0
H354 H 0.41585 0.02697 0.16485 0.0
H355 H 0.41431 0.03948 0.16837 0.0
H356 H 0.39664 0.07131 0.18354 0.0
H357 H 0.40489 0.09263 0.1806 0.0
H358 H 0.41419 0.08801 0.17266 0.0
H359 H 0.40605 0.06662 0.1754 0.0
C360 C 0.19668 0.18455 0.39774 0.0
C361 C 0.18969 0.18193 0.39874 0.0
C362 C 0.18495 0.19076 0.39028 0.0
C363 C 0.18389 0.185 0.39503 0.0
C364 C 0.19195 0.19345 0.38945 0.0
C365 C 0.19772 0.19037 0.39312 0.0
U366 U 0.20697 0.17151 0.4106 0.0
O367 O 0.21664 0.16523 0.40807 0.0
O368 O 0.21713 0.17355 0.41632 0.0
C369 C 0.22066 0.16867 0.4127 0.0
C370 C 0.20306 0.18115 0.40104 0.0
C371 C 0.22813 0.17033 0.41053 0.0
C372 C 0.23708 0.17555 0.40256 0.0
C373 C 0.22986 0.17459 0.40457 0.0
C374 C 0.24086 0.16823 0.41254 0.0
C375 C 0.24262 0.17233 0.40652 0.0
C376 C 0.2337 0.16722 0.4145 0.0
C377 C 0.19495 0.15933 0.4234 0.0
C378 C 0.19693 0.14856 0.43056 0.0
C379 C 0.18533 0.15434 0.43068 0.0
C380 C 0.18788 0.15953 0.42594 0.0
C381 C 0.18978 0.14876 0.433 0.0
C382 C 0.19952 0.15384 0.42581 0.0
C383 C 0.19699 0.16471 0.41792 0.0
O384 O 0.20443 0.1827 0.40776 0.0
O385 O 0.20417 0.17438 0.39952 0.0
O386 O 0.19954 0.16241 0.41178 0.0
O387 O 0.1999 0.17073 0.42006 0.0
H388 H 0.18874 0.17746 0.4023 0.0
H389 H 0.17856 0.18288 0.3959 0.0
H390 H 0.19301 0.19782 0.38581 0.0
H391 H 0.20306 0.19246 0.39223 0.0
H392 H 0.23833 0.17875 0.39789 0.0
H393 H 0.22565 0.17705 0.40142 0.0
H394 H 0.24503 0.16565 0.41564 0.0
H395 H 0.2325 0.16389 0.41908 0.0
H396 H 0.20046 0.14429 0.43226 0.0
H397 H 0.17979 0.15458 0.4324 0.0
H398 H 0.18423 0.16366 0.42412 0.0
H399 H 0.205 0.15355 0.42393 0.0
C400 C 0.08763 0.94539 0.64762 0.0
C401 C 0.08959 0.93837 0.64944 0.0
C402 C 0.08154 0.93354 0.64024 0.0
C403 C 0.08658 0.93251 0.64578 0.0
C404 C 0.07954 0.94061 0.63855 0.0
C405 C 0.08254 0.94643 0.64219 0.0
U406 U 0.10045 0.95579 0.66063 0.0
O407 O 0.1069 0.96533 0.65808 0.0
O408 O 0.09835 0.96604 0.66612 0.0
C409 C 0.10341 0.96943 0.6626 0.0
C410 C 0.09094 0.95178 0.65096 0.0
C411 C 0.1021 0.97696 0.6605 0.0
C412 C 0.09568 0.98647 0.65422 0.0
C413 C 0.09664 0.97914 0.6558 0.0
C414 C 0.10574 0.98938 0.66183 0.0
C415 C 0.1002 0.99173 0.65729 0.0
C416 C 0.10661 0.98215 0.66345 0.0
C417 C 0.11257 0.9438 0.67357 0.0
C418 C 0.12297 0.94593 0.68127 0.0
C419 C 0.11828 0.93395 0.67989 0.0
C420 C 0.11292 0.93654 0.67536 0.0
C421 C 0.12342 0.93856 0.68281 0.0
C422 C 0.11757 0.94854 0.67664 0.0
C423 C 0.10717 0.9459 0.66812 0.0
O424 O 0.08929 0.95318 0.65765 0.0
O425 O 0.09774 0.95292 0.64953 0.0
O426 O 0.10949 0.94832 0.66194 0.0
O427 O 0.10118 0.94891 0.67024 0.0
H428 H 0.09349 0.93743 0.65362 0.0
H429 H 0.08818 0.92716 0.64731 0.0
H430 H 0.07576 0.94167 0.63429 0.0
H431 H 0.08096 0.95179 0.64067 0.0
H432 H 0.09134 0.98798 0.6507 0.0
H433 H 0.0931 0.97522 0.65342 0.0
H434 H 0.10954 0.9931 0.66412 0.0
H435 H 0.1109 0.9806 0.66704 0.0
H436 H 0.12691 0.94959 0.68343 0.0
H437 H 0.11852 0.92826 0.68096 0.0
H438 H 0.10915 0.93278 0.67306 0.0
H439 H 0.11742 0.95418 0.67533 0.0
C440 C 0.32685 0.83631 0.89751 0.0
C441 C 0.33381 0.83896 0.89856 0.0
C442 C 0.33862 0.83011 0.89016 0.0
C443 C 0.33965 0.83589 0.8949 0.0
C444 C 0.33165 0.82739 0.88931 0.0
C445 C 0.32585 0.83046 0.89293 0.0
U446 U 0.31622 0.84916 0.91029 0.0
O447 O 0.30649 0.85529 0.90768 0.0
O448 O 0.30607 0.84687 0.91588 0.0
C449 C 0.30253 0.85178 0.91231 0.0
C450 C 0.32042 0.83968 0.90072 0.0
C451 C 0.29503 0.85025 0.91033 0.0
C452 C 0.28568 0.84537 0.90261 0.0
C453 C 0.29299 0.84611 0.90438 0.0
C454 C 0.28251 0.85266 0.91284 0.0
C455 C 0.28037 0.8488 0.90675 0.0
C456 C 0.28972 0.85339 0.91457 0.0
C457 C 0.32797 0.86106 0.92364 0.0
C458 C 0.32736 0.87264 0.92971 0.0
C459 C 0.33758 0.86488 0.93151 0.0
C460 C 0.33451 0.85976 0.92705 0.0
C461 C 0.33423 0.87151 0.93266 0.0
C462 C 0.32426 0.86745 0.92516 0.0
C463 C 0.32589 0.85592 0.91797 0.0
O464 O 0.3189 0.83803 0.90739 0.0
O465 O 0.31933 0.84646 0.89925 0.0
O466 O 0.3234 0.85839 0.91187 0.0
O467 O 0.32311 0.84976 0.91988 0.0
H468 H 0.33472 0.84345 0.9021 0.0
H469 H 0.34496 0.83804 0.89577 0.0
H470 H 0.33063 0.82299 0.88568 0.0
H471 H 0.32052 0.82834 0.89203 0.0
H472 H 0.28421 0.84233 0.8979 0.0
H473 H 0.29702 0.84359 0.90106 0.0
H474 H 0.2786 0.85521 0.91627 0.0
H475 H 0.29117 0.85656 0.9192 0.0
H476 H 0.32461 0.87766 0.93056 0.0
H477 H 0.34277 0.86373 0.93384 0.0
H478 H 0.33746 0.85489 0.92599 0.0
H479 H 0.31916 0.86855 0.92263 0.0
C480 C 0.4358 0.94553 0.37417 0.0
C481 C 0.43356 0.93852 0.37262 0.0
C482 C 0.44188 0.93371 0.38157 0.0
C483 C 0.43657 0.93267 0.37629 0.0
C484 C 0.44416 0.94075 0.38297 0.0
C485 C 0.44116 0.94656 0.37932 0.0
U486 U 0.42292 0.95594 0.36123 0.0
O487 O 0.41662 0.96557 0.3638 0.0
O488 O 0.425 0.96609 0.35557 0.0
C489 C 0.42009 0.9696 0.35919 0.0
C490 C 0.43248 0.95193 0.37084 0.0
C491 C 0.42173 0.97705 0.36135 0.0
C492 C 0.42636 0.98605 0.36961 0.0
C493 C 0.42543 0.97883 0.36766 0.0
C494 C 0.4201 0.98972 0.35888 0.0
C495 C 0.42367 0.99158 0.36523 0.0
C496 C 0.41912 0.98256 0.357 0.0
C497 C 0.41076 0.94387 0.34842 0.0
C498 C 0.40048 0.94593 0.34056 0.0
C499 C 0.40506 0.93394 0.34222 0.0
C500 C 0.41037 0.93657 0.34676 0.0
C501 C 0.4 0.93854 0.33913 0.0
C502 C 0.40582 0.94859 0.34521 0.0
C503 C 0.41613 0.94602 0.35385 0.0
O504 O 0.4341 0.9533 0.36413 0.0
O505 O 0.4257 0.9531 0.37232 0.0
O506 O 0.41382 0.94852 0.36 0.0
O507 O 0.42214 0.94899 0.35169 0.0
H508 H 0.42943 0.93759 0.36865 0.0
H509 H 0.43475 0.92733 0.37498 0.0
H510 H 0.44817 0.9418 0.38703 0.0
H511 H 0.44295 0.95191 0.38063 0.0
H512 H 0.42918 0.98733 0.37451 0.0
H513 H 0.4275 0.97466 0.37111 0.0
H514 H 0.41788 0.99383 0.35545 0.0
H515 H 0.4162 0.98133 0.35214 0.0
H516 H 0.3966 0.94958 0.33827 0.0
H517 H 0.4048 0.92824 0.34123 0.0
H518 H 0.41409 0.93283 0.34917 0.0
H519 H 0.406 0.95425 0.34642 0.0
C520 C 0.3267 0.18468 0.62407 0.0
C521 C 0.33366 0.18196 0.62314 0.0
C522 C 0.33841 0.19086 0.63151 0.0
C523 C 0.33946 0.18502 0.62685 0.0
C524 C 0.33145 0.19365 0.63224 0.0
C525 C 0.32568 0.19058 0.62859 0.0
U526 U 0.31637 0.17167 0.61125 0.0
O527 O 0.3067 0.1654 0.61382 0.0
O528 O 0.30619 0.17378 0.6056 0.0
C529 C 0.30268 0.16886 0.6092 0.0
C530 C 0.32031 0.1813 0.6208 0.0
C531 C 0.29515 0.17037 0.61127 0.0
C532 C 0.28585 0.17594 0.61863 0.0
C533 C 0.29314 0.17514 0.61674 0.0
C534 C 0.28259 0.16736 0.60952 0.0
C535 C 0.28049 0.17192 0.61513 0.0
C536 C 0.28979 0.1666 0.60764 0.0
C537 C 0.32841 0.15948 0.59845 0.0
C538 C 0.32636 0.1488 0.59117 0.0
C539 C 0.33808 0.15432 0.59137 0.0
C540 C 0.33554 0.15954 0.59607 0.0
C541 C 0.33357 0.14886 0.58891 0.0
C542 C 0.32378 0.1541 0.5959 0.0
C543 C 0.32635 0.16487 0.60392 0.0
O544 O 0.31892 0.18286 0.61408 0.0
O545 O 0.31921 0.17453 0.62232 0.0
O546 O 0.32381 0.16258 0.61006 0.0
O547 O 0.32341 0.17087 0.60176 0.0
H548 H 0.33458 0.17743 0.61966 0.0
H549 H 0.34477 0.18281 0.62608 0.0
H550 H 0.33043 0.1981 0.63581 0.0
H551 H 0.32035 0.19275 0.6294 0.0
H552 H 0.28442 0.17951 0.62297 0.0
H553 H 0.29719 0.17814 0.61962 0.0
H554 H 0.27864 0.16429 0.60659 0.0
H555 H 0.29118 0.16292 0.60338 0.0
H556 H 0.32279 0.14461 0.58936 0.0
H557 H 0.34367 0.15444 0.58978 0.0
H558 H 0.33922 0.16358 0.598 0.0
H559 H 0.31825 0.15392 0.59766 0.0
C560 C 0.08758 0.07572 0.87423 0.0
C561 C 0.09034 0.08267 0.87338 0.0
C562 C 0.0813 0.08745 0.88161 0.0
C563 C 0.08724 0.08847 0.87706 0.0
C564 C 0.07847 0.08051 0.88228 0.0
C565 C 0.08159 0.07473 0.87866 0.0
U566 U 0.10064 0.06529 0.86145 0.0
O567 O 0.10686 0.05561 0.86406 0.0
O568 O 0.09856 0.05514 0.85576 0.0
C569 C 0.10342 0.0516 0.85943 0.0
C570 C 0.09098 0.06933 0.87097 0.0
C571 C 0.10174 0.04413 0.86155 0.0
C572 C 0.09712 0.0351 0.86981 0.0
C573 C 0.09805 0.04233 0.86787 0.0
C574 C 0.10335 0.03144 0.85907 0.0
C575 C 0.09979 0.02957 0.86542 0.0
C576 C 0.10433 0.03861 0.85718 0.0
C577 C 0.11286 0.07728 0.84859 0.0
C578 C 0.12376 0.0755 0.84154 0.0
C579 C 0.1176 0.08687 0.84114 0.0
C580 C 0.11246 0.08427 0.84591 0.0
C581 C 0.12335 0.08257 0.83894 0.0
C582 C 0.11852 0.07285 0.84631 0.0
C583 C 0.1075 0.07519 0.85409 0.0
O584 O 0.08943 0.0679 0.86426 0.0
O585 O 0.09776 0.0682 0.87251 0.0
O586 O 0.10981 0.07264 0.86022 0.0
O587 O 0.10144 0.07231 0.85196 0.0
H588 H 0.09494 0.08358 0.86996 0.0
H589 H 0.08948 0.09376 0.87634 0.0
H590 H 0.07394 0.07951 0.88576 0.0
H591 H 0.07938 0.06943 0.87944 0.0
H592 H 0.09431 0.03382 0.87472 0.0
H593 H 0.096 0.0465 0.87134 0.0
H594 H 0.10556 0.02734 0.85562 0.0
H595 H 0.10724 0.03985 0.85233 0.0
H596 H 0.12814 0.07206 0.83991 0.0
H597 H 0.11719 0.09235 0.83932 0.0
H598 H 0.10821 0.08782 0.84765 0.0
H599 H 0.11895 0.06743 0.8483 0.0
C600 C 0.1965 0.83637 0.12418 0.0
C601 C 0.18949 0.83894 0.12312 0.0
C602 C 0.18474 0.83012 0.13163 0.0
C603 C 0.18368 0.83585 0.12682 0.0
C604 C 0.19177 0.82753 0.13254 0.0
C605 C 0.19754 0.83061 0.12888 0.0
U606 U 0.207 0.84927 0.11125 0.0
O607 O 0.21666 0.85555 0.11383 0.0
O608 O 0.21723 0.84712 0.10568 0.0
C609 C 0.22072 0.85207 0.10925 0.0
C610 C 0.2029 0.83974 0.12086 0.0
C611 C 0.22822 0.85053 0.11141 0.0
C612 C 0.23729 0.84493 0.119 0.0
C613 C 0.23005 0.84585 0.11702 0.0
C614 C 0.24089 0.85323 0.10975 0.0
C615 C 0.24275 0.84867 0.1154 0.0
C616 C 0.23371 0.85414 0.10778 0.0
C617 C 0.19505 0.86146 0.09834 0.0
C618 C 0.19723 0.87175 0.09055 0.0
C619 C 0.18521 0.86712 0.09192 0.0
C620 C 0.18777 0.86182 0.09652 0.0
C621 C 0.18986 0.87219 0.08894 0.0
C622 C 0.19982 0.86641 0.09524 0.0
C623 C 0.19713 0.85607 0.1038 0.0
O624 O 0.20433 0.83812 0.11417 0.0
O625 O 0.20404 0.84651 0.12233 0.0
O626 O 0.1996 0.85837 0.10996 0.0
O627 O 0.20009 0.85006 0.10167 0.0
H628 H 0.18853 0.84337 0.11952 0.0
H629 H 0.17834 0.83793 0.12589 0.0
H630 H 0.19285 0.8232 0.13623 0.0
H631 H 0.20289 0.82856 0.12982 0.0
H632 H 0.23861 0.8414 0.12339 0.0
H633 H 0.2259 0.84301 0.11991 0.0
H634 H 0.24499 0.85619 0.10692 0.0
H635 H 0.23244 0.85779 0.10346 0.0
H636 H 0.20092 0.87564 0.08836 0.0
H637 H 0.17951 0.86736 0.09081 0.0
H638 H 0.18398 0.8581 0.09885 0.0
H639 H 0.20547 0.86625 0.09657 0.0
C640 C 0.14835 0.43466 0.07628 0.0
C641 C 0.14946 0.43211 0.08327 0.0
C642 C 0.14091 0.44089 0.08802 0.0
C643 C 0.14576 0.4352 0.08908 0.0
C644 C 0.13996 0.44347 0.081 0.0
C645 C 0.14362 0.44039 0.07523 0.0
U646 U 0.16122 0.42174 0.06571 0.0
O647 O 0.15855 0.41562 0.05597 0.0
O648 O 0.16682 0.42396 0.05552 0.0
C649 C 0.16319 0.41909 0.05198 0.0
C650 C 0.15167 0.4313 0.06988 0.0
C651 C 0.16122 0.42058 0.04443 0.0
C652 C 0.15353 0.4255 0.03502 0.0
C653 C 0.15532 0.42479 0.04234 0.0
C654 C 0.16363 0.41802 0.03189 0.0
C655 C 0.15759 0.42196 0.0297 0.0
C656 C 0.16538 0.41732 0.03912 0.0
C657 C 0.17416 0.40943 0.07757 0.0
C658 C 0.18157 0.39882 0.07553 0.0
C659 C 0.18112 0.4042 0.08729 0.0
C660 C 0.17642 0.40943 0.08473 0.0
C661 C 0.1837 0.39881 0.08277 0.0
C662 C 0.17683 0.40412 0.07293 0.0
C663 C 0.16868 0.41481 0.0755 0.0
O664 O 0.15838 0.43288 0.06847 0.0
O665 O 0.15015 0.42454 0.06871 0.0
O666 O 0.16251 0.41253 0.07298 0.0
O667 O 0.17081 0.42085 0.07262 0.0
H668 H 0.1531 0.4277 0.08422 0.0
H669 H 0.14672 0.43314 0.09441 0.0
H670 H 0.13623 0.44778 0.07993 0.0
H671 H 0.14265 0.44243 0.06989 0.0
H672 H 0.14886 0.4286 0.03355 0.0
H673 H 0.15203 0.42739 0.04634 0.0
H674 H 0.16702 0.41538 0.028 0.0
H675 H 0.16997 0.41409 0.04057 0.0
H676 H 0.18346 0.39468 0.07195 0.0
H677 H 0.18261 0.40427 0.0929 0.0
H678 H 0.17441 0.41342 0.08842 0.0
H679 H 0.17516 0.40399 0.06739 0.0
C680 C 0.64854 0.08638 0.94601 0.0
C681 C 0.64982 0.08882 0.93902 0.0
C682 C 0.64112 0.08024 0.93428 0.0
C683 C 0.64613 0.08578 0.9332 0.0
C684 C 0.64002 0.07772 0.94128 0.0
C685 C 0.64368 0.08077 0.94706 0.0
U686 U 0.66137 0.09936 0.95632 0.0
O687 O 0.65879 0.10559 0.966 0.0
O688 O 0.66704 0.09722 0.96648 0.0
C689 C 0.66342 0.10212 0.97 0.0
C690 C 0.65183 0.08974 0.95238 0.0
C691 C 0.66138 0.10061 0.97752 0.0
C692 C 0.65401 0.09509 0.98684 0.0
C693 C 0.65587 0.09587 0.97955 0.0
C694 C 0.66323 0.10359 0.99005 0.0
C695 C 0.65759 0.09908 0.99216 0.0
C696 C 0.66507 0.10435 0.98285 0.0
C697 C 0.67415 0.11161 0.94428 0.0
C698 C 0.68118 0.12251 0.94604 0.0
C699 C 0.68152 0.11641 0.93464 0.0
C700 C 0.67678 0.11125 0.93726 0.0
C701 C 0.68373 0.12213 0.93895 0.0
C702 C 0.67644 0.11725 0.94871 0.0
C703 C 0.66868 0.10623 0.94639 0.0
O704 O 0.65857 0.08819 0.95373 0.0
O705 O 0.65028 0.0965 0.95351 0.0
O706 O 0.66254 0.10851 0.94896 0.0
O707 O 0.67086 0.1002 0.94927 0.0
H708 H 0.65357 0.09314 0.93807 0.0
H709 H 0.64721 0.08776 0.92787 0.0
H710 H 0.63617 0.07352 0.94234 0.0
H711 H 0.64259 0.07881 0.95241 0.0
H712 H 0.64965 0.09156 0.98828 0.0
H713 H 0.65295 0.0929 0.97552 0.0
H714 H 0.66622 0.10663 0.99397 0.0
H715 H 0.66936 0.10799 0.98144 0.0
H716 H 0.68282 0.12687 0.94948 0.0
H717 H 0.68331 0.11603 0.92914 0.0
H718 H 0.67504 0.10701 0.9337 0.0
H719 H 0.67449 0.11766 0.95415 0.0
C720 C 0.1858 0.39719 0.19593 0.0
C721 C 0.18346 0.39863 0.18893 0.0
C722 C 0.1919 0.38979 0.18409 0.0
C723 C 0.18648 0.39496 0.18307 0.0
C724 C 0.19428 0.3885 0.19112 0.0
C725 C 0.19127 0.39215 0.19694 0.0
U726 U 0.17303 0.41016 0.20655 0.0
O727 O 0.16673 0.40759 0.2162 0.0
O728 O 0.17528 0.41562 0.2168 0.0
C729 C 0.17027 0.4121 0.22027 0.0
C730 C 0.18249 0.40052 0.20236 0.0
C731 C 0.1717 0.40995 0.22779 0.0
C732 C 0.17765 0.40283 0.23703 0.0
C733 C 0.1768 0.40476 0.22977 0.0
C734 C 0.16836 0.41124 0.24033 0.0
C735 C 0.17334 0.406 0.24236 0.0
C736 C 0.16758 0.4132 0.23316 0.0
C737 C 0.16086 0.42313 0.19454 0.0
C738 C 0.15035 0.43075 0.19641 0.0
C739 C 0.15533 0.42937 0.18454 0.0
C740 C 0.16067 0.42491 0.18726 0.0
C741 C 0.15003 0.43225 0.18902 0.0
C742 C 0.15573 0.42617 0.19916 0.0
C743 C 0.16622 0.41768 0.19675 0.0
O744 O 0.18416 0.40719 0.2038 0.0
O745 O 0.1757 0.39909 0.20354 0.0
O746 O 0.16388 0.41153 0.19921 0.0
O747 O 0.17225 0.41979 0.19971 0.0
H748 H 0.17926 0.40251 0.188 0.0
H749 H 0.18458 0.39618 0.17773 0.0
H750 H 0.19837 0.38453 0.19217 0.0
H751 H 0.19314 0.39092 0.20229 0.0
H752 H 0.1815 0.39875 0.23846 0.0
H753 H 0.18004 0.40216 0.22573 0.0
H754 H 0.165 0.41378 0.24431 0.0
H755 H 0.16364 0.41722 0.23178 0.0
H756 H 0.1463 0.43287 0.19998 0.0
H757 H 0.15521 0.43042 0.17884 0.0
H758 H 0.16454 0.42264 0.18359 0.0
H759 H 0.15575 0.42487 0.20481 0.0
C760 C 0.87481 0.93476 0.4461 0.0
C761 C 0.87387 0.93209 0.43914 0.0
C762 C 0.88224 0.94101 0.4345 0.0
C763 C 0.87758 0.93519 0.43338 0.0
C764 C 0.88295 0.94379 0.44144 0.0
C765 C 0.87929 0.94068 0.44717 0.0
U766 U 0.86214 0.92157 0.45631 0.0
O767 O 0.86479 0.91541 0.466 0.0
O768 O 0.85639 0.92363 0.46644 0.0
C769 C 0.86009 0.91882 0.46998 0.0
C770 C 0.87157 0.93132 0.45244 0.0
C771 C 0.86209 0.92043 0.4775 0.0
C772 C 0.86987 0.92536 0.48681 0.0
C773 C 0.86805 0.92459 0.4795 0.0
C774 C 0.85968 0.91808 0.49006 0.0
C775 C 0.86579 0.92194 0.49218 0.0
C776 C 0.8579 0.91731 0.48285 0.0
C777 C 0.8494 0.90935 0.4442 0.0
C778 C 0.84237 0.89844 0.44589 0.0
C779 C 0.84193 0.90469 0.43458 0.0
C780 C 0.84669 0.90981 0.43722 0.0
C781 C 0.83973 0.89891 0.43883 0.0
C782 C 0.84715 0.90365 0.44858 0.0
C783 C 0.85486 0.91472 0.44634 0.0
O784 O 0.86483 0.93279 0.45381 0.0
O785 O 0.87319 0.92456 0.45349 0.0
O786 O 0.861 0.91244 0.44892 0.0
O787 O 0.85268 0.92074 0.44923 0.0
H788 H 0.87041 0.92755 0.43818 0.0
H789 H 0.87685 0.933 0.42806 0.0
H790 H 0.88653 0.94823 0.44247 0.0
H791 H 0.8801 0.94281 0.4525 0.0
H792 H 0.8746 0.9284 0.48823 0.0
H793 H 0.87136 0.92709 0.47546 0.0
H794 H 0.85627 0.91553 0.49399 0.0
H795 H 0.85326 0.91412 0.48145 0.0
H796 H 0.84076 0.89404 0.4493 0.0
H797 H 0.84009 0.90516 0.4291 0.0
H798 H 0.8484 0.9141 0.43371 0.0
H799 H 0.84916 0.90317 0.454 0.0
C800 C 0.83755 0.12392 0.19559 0.0
C801 C 0.83979 0.12243 0.18856 0.0
C802 C 0.83137 0.13133 0.18378 0.0
C803 C 0.83673 0.1261 0.18272 0.0
C804 C 0.82913 0.1327 0.19084 0.0
C805 C 0.83217 0.12905 0.19664 0.0
U806 U 0.85035 0.11092 0.2061 0.0
O807 O 0.85663 0.11347 0.21575 0.0
O808 O 0.84821 0.1053 0.21627 0.0
C809 C 0.85315 0.10887 0.21978 0.0
C810 C 0.84087 0.12057 0.20199 0.0
C811 C 0.85156 0.111 0.22724 0.0
C812 C 0.84685 0.11915 0.23631 0.0
C813 C 0.84778 0.11726 0.22907 0.0
C814 C 0.85329 0.10851 0.23991 0.0
C815 C 0.84962 0.11479 0.24181 0.0
C816 C 0.85426 0.10667 0.23273 0.0
C817 C 0.86251 0.09798 0.19416 0.0
C818 C 0.87294 0.09031 0.19622 0.0
C819 C 0.86816 0.0917 0.18427 0.0
C820 C 0.86281 0.09618 0.1869 0.0
C821 C 0.87336 0.08881 0.18884 0.0
C822 C 0.86755 0.09492 0.19888 0.0
C823 C 0.85715 0.10344 0.19626 0.0
O824 O 0.83921 0.11389 0.2034 0.0
O825 O 0.84766 0.12201 0.20317 0.0
O826 O 0.85949 0.10959 0.19874 0.0
O827 O 0.85111 0.10134 0.1992 0.0
H828 H 0.84393 0.11849 0.1876 0.0
H829 H 0.83854 0.12481 0.17736 0.0
H830 H 0.82511 0.13673 0.19194 0.0
H831 H 0.83038 0.13033 0.202 0.0
H832 H 0.84397 0.124 0.23762 0.0
H833 H 0.84565 0.12069 0.22492 0.0
H834 H 0.85558 0.10509 0.24399 0.0
H835 H 0.85723 0.10186 0.23146 0.0
H836 H 0.87692 0.08817 0.19986 0.0
H837 H 0.86836 0.09063 0.17857 0.0
H838 H 0.859 0.09847 0.18316 0.0
H839 H 0.86743 0.09623 0.20452 0.0
C840 C 0.37497 0.58642 0.57594 0.0
C841 C 0.37383 0.58897 0.58292 0.0
C842 C 0.38238 0.58022 0.58769 0.0
C843 C 0.37751 0.58591 0.58874 0.0
C844 C 0.38335 0.57761 0.5807 0.0
C845 C 0.3797 0.58068 0.57491 0.0
U846 U 0.36224 0.59945 0.56539 0.0
O847 O 0.3649 0.60555 0.55565 0.0
O848 O 0.35662 0.59722 0.55521 0.0
C849 C 0.36025 0.60209 0.55167 0.0
C850 C 0.37169 0.58978 0.56954 0.0
C851 C 0.36226 0.60057 0.54413 0.0
C852 C 0.36943 0.59483 0.53478 0.0
C853 C 0.36757 0.59563 0.54208 0.0
C854 C 0.36062 0.60377 0.53161 0.0
C855 C 0.36606 0.59903 0.52948 0.0
C856 C 0.35876 0.60452 0.53881 0.0
C857 C 0.34959 0.61184 0.57761 0.0
C858 C 0.34176 0.62225 0.57612 0.0
C859 C 0.34289 0.61663 0.58771 0.0
C860 C 0.34766 0.61165 0.58485 0.0
C861 C 0.33981 0.62199 0.58342 0.0
C862 C 0.34661 0.61719 0.57322 0.0
C863 C 0.35496 0.60649 0.57521 0.0
O864 O 0.36495 0.58828 0.56816 0.0
O865 O 0.37329 0.59652 0.56834 0.0
O866 O 0.3611 0.60872 0.57261 0.0
O867 O 0.35271 0.60047 0.57236 0.0
H868 H 0.37018 0.59338 0.58385 0.0
H869 H 0.37654 0.58798 0.59406 0.0
H870 H 0.38708 0.57331 0.57965 0.0
H871 H 0.38068 0.57864 0.56958 0.0
H872 H 0.37364 0.59112 0.53332 0.0
H873 H 0.37035 0.5925 0.54609 0.0
H874 H 0.35784 0.607 0.52769 0.0
H875 H 0.35463 0.60833 0.54024 0.0
H876 H 0.3395 0.62631 0.57265 0.0
H877 H 0.34172 0.61634 0.59337 0.0
H878 H 0.34995 0.60765 0.58837 0.0
H879 H 0.34804 0.61748 0.56761 0.0
C880 C 0.18598 0.62377 0.326 0.0
C881 C 0.18322 0.62288 0.33294 0.0
C882 C 0.19218 0.63116 0.33773 0.0
C883 C 0.18628 0.62657 0.33875 0.0
C884 C 0.19502 0.63187 0.3308 0.0
C885 C 0.19194 0.62823 0.32501 0.0
U886 U 0.17306 0.61093 0.31557 0.0
O887 O 0.16671 0.61356 0.30598 0.0
O888 O 0.17514 0.60539 0.30535 0.0
C889 C 0.17017 0.60899 0.30191 0.0
C890 C 0.18259 0.62054 0.3196 0.0
C891 C 0.1717 0.61112 0.29444 0.0
C892 C 0.17703 0.61878 0.28529 0.0
C893 C 0.17603 0.61698 0.29256 0.0
C894 C 0.16944 0.60888 0.28183 0.0
C895 C 0.17374 0.61471 0.27985 0.0
C896 C 0.16844 0.60713 0.28901 0.0
C897 C 0.16109 0.59786 0.32752 0.0
C898 C 0.1502 0.59078 0.32579 0.0
C899 C 0.1559 0.59119 0.33741 0.0
C900 C 0.16126 0.59559 0.33466 0.0
C901 C 0.15022 0.58887 0.33308 0.0
C902 C 0.1556 0.59531 0.32302 0.0
C903 C 0.16639 0.60337 0.32541 0.0
O904 O 0.18425 0.61387 0.3181 0.0
O905 O 0.17578 0.62199 0.31855 0.0
O906 O 0.164 0.60952 0.32299 0.0
O907 O 0.17243 0.60132 0.32243 0.0
H908 H 0.17864 0.61944 0.33385 0.0
H909 H 0.18403 0.62584 0.34404 0.0
H910 H 0.19952 0.63538 0.32981 0.0
H911 H 0.19414 0.62903 0.31971 0.0
H912 H 0.18038 0.62331 0.28393 0.0
H913 H 0.1786 0.62016 0.29667 0.0
H914 H 0.16671 0.60572 0.27781 0.0
H915 H 0.16502 0.60263 0.29034 0.0
H916 H 0.14586 0.58906 0.32234 0.0
H917 H 0.15605 0.58979 0.34303 0.0
H918 H 0.16542 0.59748 0.33823 0.0
H919 H 0.15535 0.59699 0.31748 0.0
C920 C 0.33737 0.39708 0.82634 0.0
C921 C 0.34016 0.39793 0.83328 0.0
C922 C 0.33114 0.3897 0.83809 0.0
C923 C 0.33708 0.39425 0.83909 0.0
C924 C 0.32829 0.38902 0.83115 0.0
C925 C 0.33139 0.39265 0.82537 0.0
U926 U 0.35033 0.40983 0.81572 0.0
O927 O 0.3565 0.4071 0.80603 0.0
O928 O 0.34824 0.41546 0.80555 0.0
C929 C 0.35311 0.4118 0.80204 0.0
C930 C 0.34075 0.40032 0.81991 0.0
C931 C 0.35163 0.40995 0.79446 0.0
C932 C 0.34757 0.40204 0.78488 0.0
C933 C 0.34828 0.4036 0.79224 0.0
C934 C 0.35326 0.41328 0.78198 0.0
C935 C 0.3502 0.40681 0.77961 0.0
C936 C 0.35403 0.41476 0.78926 0.0
C937 C 0.36248 0.42275 0.8277 0.0
C938 C 0.37294 0.4304 0.82579 0.0
C939 C 0.36809 0.42887 0.83771 0.0
C940 C 0.36274 0.42445 0.83499 0.0
C941 C 0.37334 0.43177 0.8332 0.0
C942 C 0.36755 0.42586 0.82305 0.0
C943 C 0.35713 0.41732 0.82552 0.0
O944 O 0.33914 0.407 0.81841 0.0
O945 O 0.34753 0.39881 0.81878 0.0
O946 O 0.35947 0.41116 0.82308 0.0
O947 O 0.35112 0.41945 0.82255 0.0
H948 H 0.34476 0.40134 0.83418 0.0
H949 H 0.33934 0.39496 0.84438 0.0
H950 H 0.32376 0.38555 0.83016 0.0
H951 H 0.32917 0.39187 0.82007 0.0
H952 H 0.34517 0.397 0.78335 0.0
H953 H 0.34634 0.3998 0.79616 0.0
H954 H 0.3551 0.41728 0.77824 0.0
H955 H 0.3566 0.41971 0.79083 0.0
H956 H 0.37692 0.43261 0.82221 0.0
H957 H 0.36825 0.42988 0.84342 0.0
H958 H 0.35889 0.42215 0.83867 0.0
H959 H 0.36745 0.42463 0.81739 0.0
C960 C 0.94559 0.87114 0.58427 0.0
C961 C 0.93848 0.86961 0.58624 0.0
C962 C 0.93414 0.87953 0.57886 0.0
C963 C 0.9328 0.8738 0.58357 0.0
C964 C 0.94122 0.88083 0.57669 0.0
C965 C 0.94687 0.8767 0.5794 0.0
U966 U 0.95612 0.85795 0.59701 0.0
O967 O 0.96667 0.85299 0.59489 0.0
O968 O 0.96549 0.8608 0.60358 0.0
C969 C 0.96984 0.85655 0.60007 0.0
C970 C 0.95187 0.86758 0.58758 0.0
C971 C 0.97731 0.85905 0.599 0.0
C972 C 0.98669 0.86588 0.59293 0.0
C973 C 0.97948 0.86361 0.5934 0.0
C974 C 0.98953 0.85909 0.60357 0.0
C975 C 0.99175 0.8637 0.59809 0.0
C976 C 0.98243 0.85678 0.604 0.0
C977 C 0.94435 0.8451 0.60953 0.0
C978 C 0.94658 0.83762 0.62005 0.0
C979 C 0.93442 0.83999 0.61625 0.0
C980 C 0.93699 0.844 0.6105 0.0
C981 C 0.93915 0.83688 0.62118 0.0
C982 C 0.94918 0.84176 0.61427 0.0
C983 C 0.94645 0.85032 0.60391 0.0
O984 O 0.95305 0.86899 0.59436 0.0
O985 O 0.9532 0.86088 0.5859 0.0
O986 O 0.94963 0.84806 0.59805 0.0
O987 O 0.94861 0.85666 0.606 0.0
H988 H 0.93734 0.86534 0.58998 0.0
H989 H 0.92737 0.87263 0.58525 0.0
H990 H 0.94243 0.8852 0.57309 0.0
H991 H 0.9523 0.87801 0.57783 0.0
H992 H 0.98827 0.86947 0.58866 0.0
H993 H 0.97563 0.86545 0.58948 0.0
H994 H 0.99331 0.85729 0.60759 0.0
H995 H 0.9809 0.85326 0.60833 0.0
H996 H 0.95034 0.83529 0.6238 0.0
H997 H 0.92868 0.8395 0.61698 0.0
H998 H 0.93316 0.84651 0.60694 0.0
H999 H 0.9549 0.84254 0.61364 0.0
C1000 C 0.90113 0.19456 0.33437 0.0
C1001 C 0.90315 0.18746 0.33578 0.0
C1002 C 0.8928 0.18303 0.329 0.0
C1003 C 0.89902 0.18174 0.3331 0.0
C1004 C 0.891 0.19016 0.32742 0.0
C1005 C 0.89511 0.19582 0.33007 0.0
U1006 U 0.91423 0.20504 0.34724 0.0
O1007 O 0.91927 0.21556 0.34514 0.0
O1008 O 0.91128 0.21445 0.35369 0.0
C1009 C 0.91561 0.21877 0.35023 0.0
C1010 C 0.9047 0.20082 0.33769 0.0
C1011 C 0.91319 0.22628 0.34912 0.0
C1012 C 0.90565 0.2356 0.3438 0.0
C1013 C 0.90794 0.22839 0.34412 0.0
C1014 C 0.9139 0.23859 0.35331 0.0
C1015 C 0.90851 0.24077 0.34853 0.0
C1016 C 0.91618 0.23148 0.3536 0.0
C1017 C 0.927 0.19328 0.35988 0.0
C1018 C 0.93396 0.19548 0.37077 0.0
C1019 C 0.93305 0.18348 0.36604 0.0
C1020 C 0.92883 0.18602 0.3604 0.0
C1021 C 0.93557 0.18814 0.37135 0.0
C1022 C 0.92971 0.19805 0.36506 0.0
C1023 C 0.92176 0.19534 0.35424 0.0
O1024 O 0.90319 0.20205 0.34443 0.0
O1025 O 0.91145 0.2021 0.3361 0.0
O1026 O 0.92406 0.19845 0.34836 0.0
O1027 O 0.91543 0.19759 0.35629 0.0
H1028 H 0.90779 0.18634 0.33907 0.0
H1029 H 0.90065 0.17632 0.33432 0.0
H1030 H 0.88624 0.1914 0.32434 0.0
H1031 H 0.89343 0.20125 0.32893 0.0
H1032 H 0.9015 0.23708 0.34003 0.0
H1033 H 0.90554 0.22447 0.34059 0.0
H1034 H 0.91636 0.2424 0.35691 0.0
H1035 H 0.92025 0.23002 0.35746 0.0
H1036 H 0.93583 0.19918 0.37482 0.0
H1037 H 0.93414 0.17781 0.3664 0.0
H1038 H 0.92677 0.18223 0.35653 0.0
H1039 H 0.92838 0.20368 0.3648 0.0
C1040 C 0.57783 0.14985 0.08429 0.0
C1041 C 0.58494 0.15138 0.08624 0.0
C1042 C 0.58926 0.14146 0.07886 0.0
C1043 C 0.59061 0.14719 0.08357 0.0
C1044 C 0.58217 0.14016 0.0767 0.0
C1045 C 0.57653 0.14428 0.07942 0.0
U1046 U 0.56742 0.16303 0.09712 0.0
O1047 O 0.55692 0.16814 0.09511 0.0
O1048 O 0.55805 0.16018 0.10367 0.0
C1049 C 0.55372 0.16451 0.10022 0.0
C1050 C 0.57155 0.15342 0.08762 0.0
C1051 C 0.54629 0.16198 0.09897 0.0
C1052 C 0.53737 0.1541 0.09357 0.0
C1053 C 0.54452 0.15647 0.09416 0.0
C1054 C 0.53374 0.1628 0.10244 0.0
C1055 C 0.53193 0.15724 0.09775 0.0
C1056 C 0.54083 0.16512 0.10305 0.0
C1057 C 0.57921 0.17582 0.10961 0.0
C1058 C 0.57686 0.18335 0.12007 0.0
C1059 C 0.58906 0.18102 0.11637 0.0
C1060 C 0.58656 0.17695 0.11063 0.0
C1061 C 0.58429 0.18414 0.12125 0.0
C1062 C 0.57432 0.17917 0.11429 0.0
C1063 C 0.57716 0.1706 0.10398 0.0
O1064 O 0.5704 0.15198 0.0944 0.0
O1065 O 0.57025 0.16013 0.08597 0.0
O1066 O 0.57398 0.17286 0.09812 0.0
O1067 O 0.57498 0.16427 0.10607 0.0
H1068 H 0.58608 0.15566 0.08998 0.0
H1069 H 0.59604 0.14836 0.08524 0.0
H1070 H 0.58097 0.13578 0.07311 0.0
H1071 H 0.57109 0.14297 0.07786 0.0
H1072 H 0.53608 0.1498 0.0899 0.0
H1073 H 0.54865 0.15395 0.09095 0.0
H1074 H 0.52966 0.16528 0.10574 0.0
H1075 H 0.54207 0.16934 0.10682 0.0
H1076 H 0.57307 0.18569 0.12378 0.0
H1077 H 0.59479 0.18153 0.11715 0.0
H1078 H 0.59043 0.17443 0.10712 0.0
H1079 H 0.56862 0.17837 0.11362 0.0
C1080 C 0.62229 0.82677 0.83413 0.0
C1081 C 0.6207 0.83385 0.83608 0.0
C1082 C 0.63072 0.8382 0.82881 0.0
C1083 C 0.6249 0.83952 0.83344 0.0
C1084 C 0.63207 0.83112 0.82668 0.0
C1085 C 0.62792 0.82549 0.82932 0.0
U1086 U 0.60919 0.81614 0.84687 0.0
O1087 O 0.60447 0.8055 0.84472 0.0
O1088 O 0.61228 0.80687 0.85343 0.0
C1089 C 0.60811 0.80244 0.84991 0.0
C1090 C 0.61877 0.82049 0.83744 0.0
C1091 C 0.61061 0.79496 0.84908 0.0
C1092 C 0.61718 0.78518 0.84333 0.0
C1093 C 0.61512 0.79247 0.84357 0.0
C1094 C 0.61054 0.78304 0.85421 0.0
C1095 C 0.61484 0.7803 0.84864 0.0
C1096 C 0.60838 0.79016 0.85434 0.0
C1097 C 0.59621 0.8278 0.85945 0.0
C1098 C 0.58907 0.82575 0.87026 0.0
C1099 C 0.59095 0.83779 0.86594 0.0
C1100 C 0.59489 0.83513 0.86018 0.0
C1101 C 0.58815 0.83318 0.87116 0.0
C1102 C 0.59314 0.82306 0.86446 0.0
C1103 C 0.60143 0.82566 0.85384 0.0
O1104 O 0.62021 0.81935 0.84422 0.0
O1105 O 0.61206 0.81912 0.83577 0.0
O1106 O 0.59919 0.82247 0.84798 0.0
O1107 O 0.60782 0.82357 0.85591 0.0
H1108 H 0.61637 0.83497 0.83977 0.0
H1109 H 0.62365 0.84493 0.83509 0.0
H1110 H 0.63653 0.8299 0.82317 0.0
H1111 H 0.62926 0.82007 0.82778 0.0
H1112 H 0.62052 0.78339 0.83895 0.0
H1113 H 0.61699 0.79611 0.83947 0.0
H1114 H 0.60885 0.77975 0.85865 0.0
H1115 H 0.60499 0.79196 0.85869 0.0
H1116 H 0.58697 0.82207 0.87421 0.0
H1117 H 0.59032 0.84352 0.86648 0.0
H1118 H 0.5972 0.83889 0.85642 0.0
H1119 H 0.59408 0.81737 0.86402 0.0
C1120 C 0.94558 0.14969 0.93751 0.0
C1121 C 0.93849 0.15121 0.93547 0.0
C1122 C 0.93406 0.14138 0.94293 0.0
C1123 C 0.93277 0.14707 0.93815 0.0
C1124 C 0.94113 0.1401 0.94516 0.0
C1125 C 0.9468 0.14418 0.94246 0.0
U1126 U 0.95656 0.16261 0.92477 0.0
O1127 O 0.9671 0.16752 0.92704 0.0
O1128 O 0.96603 0.15952 0.9185 0.0
C1129 C 0.97034 0.16383 0.92199 0.0
C1130 C 0.95193 0.15316 0.9342 0.0
C1131 C 0.97775 0.16132 0.92326 0.0
C1132 C 0.98664 0.15307 0.92813 0.0
C1133 C 0.97948 0.15545 0.92763 0.0
C1134 C 0.99032 0.16248 0.92004 0.0
C1135 C 0.99211 0.15658 0.9243 0.0
C1136 C 0.98323 0.1648 0.91951 0.0
C1137 C 0.94474 0.17564 0.91229 0.0
C1138 C 0.94554 0.1824 0.90111 0.0
C1139 C 0.93434 0.18177 0.90753 0.0
C1140 C 0.93757 0.1776 0.91278 0.0
C1141 C 0.9381 0.18406 0.90136 0.0
C1142 C 0.94882 0.17822 0.90652 0.0
C1143 C 0.94726 0.17038 0.91766 0.0
O1144 O 0.95317 0.15167 0.92745 0.0
O1145 O 0.95336 0.15984 0.93585 0.0
O1146 O 0.9502 0.17256 0.92366 0.0
O1147 O 0.94947 0.16409 0.91547 0.0
H1148 H 0.93739 0.15545 0.93168 0.0
H1149 H 0.92736 0.14825 0.93642 0.0
H1150 H 0.94231 0.13576 0.94881 0.0
H1151 H 0.95222 0.14288 0.94409 0.0
H1152 H 0.98791 0.14852 0.93148 0.0
H1153 H 0.97532 0.15267 0.93056 0.0
H1154 H 0.99442 0.16525 0.91701 0.0
H1155 H 0.98201 0.16929 0.91605 0.0
H1156 H 0.94885 0.18409 0.89669 0.0
H1157 H 0.92881 0.183 0.90851 0.0
H1158 H 0.93432 0.17573 0.9172 0.0
H1159 H 0.95444 0.17684 0.90606 0.0
C1160 C 0.62237 0.19429 0.68764 0.0
C1161 C 0.62086 0.18722 0.68559 0.0
C1162 C 0.63075 0.18285 0.69302 0.0
C1163 C 0.62504 0.18154 0.68825 0.0
C1164 C 0.63201 0.18991 0.69526 0.0
C1165 C 0.62789 0.19555 0.69257 0.0
U1166 U 0.60927 0.2049 0.6749 0.0
O1167 O 0.60425 0.21538 0.67707 0.0
O1168 O 0.61228 0.21431 0.66851 0.0
C1169 C 0.60791 0.21859 0.67198 0.0
C1170 C 0.61886 0.20057 0.68432 0.0
C1171 C 0.61021 0.22606 0.67311 0.0
C1172 C 0.61822 0.23536 0.67763 0.0
C1173 C 0.61609 0.22811 0.67736 0.0
C1174 C 0.60848 0.23844 0.66966 0.0
C1175 C 0.61452 0.24059 0.67363 0.0
C1176 C 0.60642 0.23131 0.66938 0.0
C1177 C 0.59616 0.1933 0.66247 0.0
C1178 C 0.58952 0.19513 0.65132 0.0
C1179 C 0.59045 0.18329 0.65645 0.0
C1180 C 0.59434 0.18605 0.66218 0.0
C1181 C 0.58818 0.18773 0.65083 0.0
C1182 C 0.59356 0.19791 0.6571 0.0
C1183 C 0.60148 0.1954 0.66799 0.0
O1184 O 0.62029 0.20172 0.67754 0.0
O1185 O 0.61216 0.20195 0.686 0.0
O1186 O 0.59932 0.19849 0.67393 0.0
O1187 O 0.60781 0.19756 0.66581 0.0
H1188 H 0.61661 0.18611 0.6818 0.0
H1189 H 0.62388 0.17614 0.68652 0.0
H1190 H 0.63638 0.1911 0.69888 0.0
H1191 H 0.62918 0.20096 0.69419 0.0
H1192 H 0.62287 0.23681 0.68077 0.0
H1193 H 0.6191 0.22414 0.68032 0.0
H1194 H 0.60534 0.24229 0.66669 0.0
H1195 H 0.60185 0.22986 0.6661 0.0
H1196 H 0.58782 0.19867 0.64707 0.0
H1197 H 0.58946 0.17759 0.65624 0.0
H1198 H 0.59628 0.1824 0.66625 0.0
H1199 H 0.59488 0.20355 0.6572 0.0
C1200 C 0.57787 0.87129 0.43752 0.0
C1201 C 0.58497 0.86976 0.43553 0.0
C1202 C 0.58934 0.87963 0.44296 0.0
C1203 C 0.59066 0.87392 0.43821 0.0
C1204 C 0.58226 0.88092 0.44515 0.0
C1205 C 0.5766 0.87683 0.44243 0.0
U1206 U 0.56741 0.85819 0.42465 0.0
O1207 O 0.55695 0.85304 0.42675 0.0
O1208 O 0.55797 0.86098 0.41816 0.0
C1209 C 0.55371 0.85661 0.42163 0.0
C1210 C 0.57158 0.86774 0.43419 0.0
C1211 C 0.54624 0.85903 0.4228 0.0
C1212 C 0.53694 0.86592 0.42889 0.0
C1213 C 0.54414 0.86366 0.42836 0.0
C1214 C 0.53398 0.85896 0.41838 0.0
C1215 C 0.53183 0.86364 0.42383 0.0
C1216 C 0.54108 0.85667 0.4179 0.0
C1217 C 0.5792 0.84553 0.41198 0.0
C1218 C 0.5773 0.83858 0.40103 0.0
C1219 C 0.58914 0.83938 0.40623 0.0
C1220 C 0.58644 0.84362 0.41174 0.0
C1221 C 0.58466 0.83678 0.40076 0.0
C1222 C 0.57458 0.84293 0.40661 0.0
C1223 C 0.5771 0.85075 0.41759 0.0
O1224 O 0.57036 0.86923 0.42744 0.0
O1225 O 0.57031 0.86101 0.43579 0.0
O1226 O 0.57408 0.84845 0.42352 0.0
O1227 O 0.57479 0.85705 0.41553 0.0
H1228 H 0.58609 0.8655 0.43177 0.0
H1229 H 0.59608 0.87274 0.43652 0.0
H1230 H 0.58106 0.88528 0.44878 0.0
H1231 H 0.57117 0.87813 0.44401 0.0
H1232 H 0.5354 0.86957 0.43312 0.0
H1233 H 0.54804 0.86558 0.43219 0.0
H1234 H 0.53015 0.85711 0.41444 0.0
H1235 H 0.54257 0.8531 0.41358 0.0
H1236 H 0.57367 0.83666 0.39694 0.0
H1237 H 0.59484 0.83833 0.40616 0.0
H1238 H 0.59013 0.84563 0.41575 0.0
H1239 H 0.56896 0.84435 0.40665 0.0
C1240 C 0.90092 0.8266 0.18753 0.0
C1241 C 0.90248 0.83367 0.18552 0.0
C1242 C 0.89257 0.83811 0.19291 0.0
C1243 C 0.89832 0.83938 0.18818 0.0
C1244 C 0.89125 0.83105 0.19511 0.0
C1245 C 0.89536 0.82538 0.19243 0.0
U1246 U 0.91396 0.81602 0.17466 0.0
O1247 O 0.9191 0.80556 0.1768 0.0
O1248 O 0.91106 0.80656 0.16827 0.0
C1249 C 0.91547 0.80231 0.17172 0.0
C1250 C 0.90445 0.82029 0.18422 0.0
C1251 C 0.91318 0.7948 0.17282 0.0
C1252 C 0.90588 0.78539 0.17825 0.0
C1253 C 0.90806 0.79262 0.17791 0.0
C1254 C 0.91398 0.78254 0.16856 0.0
C1255 C 0.90872 0.78029 0.17345 0.0
C1256 C 0.91615 0.78967 0.16825 0.0
C1257 C 0.92665 0.82782 0.16193 0.0
C1258 C 0.9336 0.82605 0.15094 0.0
C1259 C 0.93279 0.8378 0.15627 0.0
C1260 C 0.92855 0.83505 0.16176 0.0
C1261 C 0.93538 0.8334 0.15074 0.0
C1262 C 0.92925 0.82328 0.1565 0.0
C1263 C 0.92143 0.82564 0.16754 0.0
O1264 O 0.90292 0.81904 0.17748 0.0
O1265 O 0.9112 0.819 0.1858 0.0
O1266 O 0.92375 0.82263 0.17346 0.0
O1267 O 0.91511 0.82333 0.16549 0.0
H1268 H 0.90676 0.83476 0.18176 0.0
H1269 H 0.89956 0.84477 0.18648 0.0
H1270 H 0.88686 0.82986 0.1987 0.0
H1271 H 0.89403 0.81997 0.19403 0.0
H1272 H 0.90182 0.78384 0.18209 0.0
H1273 H 0.90568 0.79649 0.18151 0.0
H1274 H 0.9164 0.77877 0.16489 0.0
H1275 H 0.92012 0.7912 0.16431 0.0
H1276 H 0.93551 0.82248 0.1468 0.0
H1277 H 0.93384 0.84349 0.15626 0.0
H1278 H 0.92654 0.83868 0.16581 0.0
H1279 H 0.92784 0.81766 0.15649 0.0
C1280 C 0.58492 0.94415 0.87156 0.0
C1281 C 0.58692 0.93707 0.87003 0.0
C1282 C 0.5796 0.93272 0.88002 0.0
C1283 C 0.58429 0.9314 0.87424 0.0
C1284 C 0.57741 0.93979 0.8813 0.0
C1285 C 0.58006 0.94542 0.87714 0.0
U1286 U 0.59776 0.95467 0.85847 0.0
O1287 O 0.59573 0.96514 0.85335 0.0
O1288 O 0.60415 0.96409 0.86151 0.0
C1289 C 0.60076 0.96836 0.85708 0.0
C1290 C 0.58824 0.95043 0.86801 0.0
C1291 C 0.59959 0.97587 0.85931 0.0
C1292 C 0.59569 0.98519 0.86762 0.0
C1293 C 0.59594 0.97792 0.86558 0.0
C1294 C 0.60233 0.98834 0.85697 0.0
C1295 C 0.59905 0.99052 0.86341 0.0
C1296 C 0.60268 0.98115 0.85504 0.0
C1297 C 0.61033 0.94299 0.84557 0.0
C1298 C 0.62092 0.94519 0.83815 0.0
C1299 C 0.61697 0.93308 0.84036 0.0
C1300 C 0.61122 0.93565 0.84438 0.0
C1301 C 0.622 0.93777 0.83735 0.0
C1302 C 0.61513 0.9478 0.84229 0.0
C1303 C 0.60472 0.94508 0.85081 0.0
O1304 O 0.59501 0.95161 0.86948 0.0
O1305 O 0.58661 0.95175 0.86129 0.0
O1306 O 0.59883 0.94822 0.84857 0.0
O1307 O 0.60682 0.94724 0.85716 0.0
H1308 H 0.59065 0.93595 0.86574 0.0
H1309 H 0.58598 0.92599 0.87303 0.0
H1310 H 0.57385 0.94102 0.88571 0.0
H1311 H 0.57847 0.95084 0.87845 0.0
H1312 H 0.59306 0.98658 0.87259 0.0
H1313 H 0.59346 0.97392 0.86896 0.0
H1314 H 0.60471 0.99216 0.85334 0.0
H1315 H 0.60549 0.97971 0.85017 0.0
H1316 H 0.62473 0.94893 0.83588 0.0
H1317 H 0.61765 0.92735 0.83982 0.0
H1318 H 0.60761 0.93184 0.84683 0.0
H1319 H 0.61456 0.9535 0.84312 0.0
C1320 C 0.82801 0.83377 0.6215 0.0
C1321 C 0.83511 0.83579 0.62003 0.0
C1322 C 0.8394 0.8284 0.62995 0.0
C1323 C 0.84077 0.83312 0.62424 0.0
C1324 C 0.83232 0.82619 0.63119 0.0
C1325 C 0.8267 0.82887 0.62703 0.0
U1326 U 0.81752 0.84665 0.60847 0.0
O1327 O 0.80691 0.84453 0.60361 0.0
O1328 O 0.80817 0.85313 0.61153 0.0
C1329 C 0.80378 0.84965 0.60729 0.0
C1330 C 0.82176 0.83712 0.61797 0.0
C1331 C 0.79624 0.84876 0.60968 0.0
C1332 C 0.78646 0.84335 0.61658 0.0
C1333 C 0.79378 0.84355 0.61454 0.0
C1334 C 0.78422 0.85371 0.60922 0.0
C1335 C 0.78149 0.84845 0.61391 0.0
C1336 C 0.79136 0.85376 0.60706 0.0
C1337 C 0.82919 0.85934 0.59565 0.0
C1338 C 0.82683 0.86997 0.58837 0.0
C1339 C 0.839 0.86587 0.59004 0.0
C1340 C 0.83651 0.86017 0.59419 0.0
C1341 C 0.83423 0.8709 0.58717 0.0
C1342 C 0.82431 0.86422 0.5926 0.0
C1343 C 0.82716 0.85367 0.60086 0.0
O1344 O 0.82061 0.84388 0.61946 0.0
O1345 O 0.82045 0.83552 0.61124 0.0
O1346 O 0.82399 0.84782 0.59857 0.0
O1347 O 0.82499 0.85569 0.60723 0.0
H1348 H 0.83626 0.83955 0.61578 0.0
H1349 H 0.84619 0.83483 0.6231 0.0
H1350 H 0.83108 0.82259 0.63555 0.0
H1351 H 0.82126 0.82728 0.62829 0.0
H1352 H 0.78475 0.83919 0.62021 0.0
H1353 H 0.79748 0.83966 0.61673 0.0
H1354 H 0.78097 0.85804 0.60724 0.0
H1355 H 0.79312 0.85789 0.6034 0.0
H1356 H 0.82304 0.8738 0.58624 0.0
H1357 H 0.84472 0.86648 0.58925 0.0
H1358 H 0.84039 0.85652 0.5965 0.0
H1359 H 0.81863 0.86372 0.59366 0.0
C1360 C 0.93836 0.07699 0.37188 0.0
C1361 C 0.9367 0.08411 0.3701 0.0
C1362 C 0.94387 0.08843 0.3802 0.0
C1363 C 0.93942 0.08979 0.37426 0.0
C1364 C 0.94571 0.08133 0.38177 0.0
C1365 C 0.94296 0.07569 0.37768 0.0
U1366 U 0.92579 0.0662 0.35862 0.0
O1367 O 0.92814 0.05559 0.35394 0.0
O1368 O 0.91927 0.05686 0.3616 0.0
C1369 C 0.92288 0.05249 0.35745 0.0
C1370 C 0.93504 0.07073 0.36831 0.0
C1371 C 0.92374 0.04501 0.35988 0.0
C1372 C 0.92992 0.03519 0.36589 0.0
C1373 C 0.9295 0.0425 0.36405 0.0
C1374 C 0.91879 0.03302 0.35962 0.0
C1375 C 0.92461 0.03032 0.36357 0.0
C1376 C 0.91841 0.04021 0.35776 0.0
C1377 C 0.91341 0.07745 0.34514 0.0
C1378 C 0.90165 0.07626 0.33942 0.0
C1379 C 0.90829 0.0873 0.33838 0.0
C1380 C 0.9139 0.08436 0.34231 0.0
C1381 C 0.90193 0.08346 0.33716 0.0
C1382 C 0.90734 0.07328 0.34345 0.0
C1383 C 0.91886 0.07547 0.35058 0.0
O1384 O 0.92822 0.06958 0.36963 0.0
O1385 O 0.93684 0.06929 0.36166 0.0
O1386 O 0.92491 0.07247 0.34858 0.0
O1387 O 0.91662 0.07339 0.35691 0.0
H1388 H 0.93318 0.08526 0.36564 0.0
H1389 H 0.93799 0.09523 0.3729 0.0
H1390 H 0.94912 0.08013 0.38631 0.0
H1391 H 0.94429 0.07025 0.37918 0.0
H1392 H 0.93446 0.03335 0.36898 0.0
H1393 H 0.93365 0.04614 0.3658 0.0
H1394 H 0.91443 0.02958 0.35796 0.0
H1395 H 0.91389 0.04203 0.35462 0.0
H1396 H 0.89688 0.0731 0.33849 0.0
H1397 H 0.90881 0.09278 0.33656 0.0
H1398 H 0.91851 0.08768 0.34351 0.0
H1399 H 0.90685 0.0679 0.34552 0.0
C1400 C 0.69574 0.18705 0.12152 0.0
C1401 C 0.68864 0.18504 0.12 0.0
C1402 C 0.68426 0.19248 0.12987 0.0
C1403 C 0.68295 0.18772 0.12417 0.0
C1404 C 0.69134 0.19469 0.13115 0.0
C1405 C 0.697 0.19198 0.12705 0.0
U1406 U 0.70635 0.17426 0.10843 0.0
O1407 O 0.71696 0.17636 0.10354 0.0
O1408 O 0.71571 0.16771 0.11138 0.0
C1409 C 0.72011 0.17121 0.10716 0.0
C1410 C 0.70204 0.18373 0.118 0.0
C1411 C 0.72757 0.1723 0.10975 0.0
C1412 C 0.73686 0.17833 0.11677 0.0
C1413 C 0.72967 0.17785 0.1144 0.0
C1414 C 0.73982 0.16778 0.10989 0.0
C1415 C 0.74198 0.17322 0.11458 0.0
C1416 C 0.73274 0.16735 0.10749 0.0
C1417 C 0.69451 0.16173 0.0956 0.0
C1418 C 0.69666 0.15127 0.088 0.0
C1419 C 0.68452 0.15503 0.09054 0.0
C1420 C 0.68713 0.16074 0.09458 0.0
C1421 C 0.68922 0.15015 0.08731 0.0
C1422 C 0.6993 0.15702 0.09216 0.0
C1423 C 0.69669 0.16734 0.10079 0.0
O1424 O 0.70322 0.17696 0.11944 0.0
O1425 O 0.70341 0.18538 0.11129 0.0
O1426 O 0.6999 0.17317 0.09851 0.0
O1427 O 0.69884 0.16527 0.10715 0.0
H1428 H 0.68753 0.18127 0.11575 0.0
H1429 H 0.67753 0.18601 0.12301 0.0
H1430 H 0.69253 0.19831 0.13551 0.0
H1431 H 0.70242 0.19357 0.12835 0.0
H1432 H 0.73838 0.18257 0.1204 0.0
H1433 H 0.72578 0.18173 0.11624 0.0
H1434 H 0.74364 0.16381 0.10809 0.0
H1435 H 0.73127 0.16305 0.1039 0.0
H1436 H 0.7004 0.14756 0.08558 0.0
H1437 H 0.67878 0.1543 0.09011 0.0
H1438 H 0.68333 0.16428 0.09717 0.0
H1439 H 0.70503 0.15764 0.09287 0.0
C1440 C 0.58509 0.07679 0.65002 0.0
C1441 C 0.5859 0.0839 0.65232 0.0
C1442 C 0.57952 0.08816 0.64171 0.0
C1443 C 0.5831 0.08956 0.64819 0.0
C1444 C 0.57856 0.08105 0.63955 0.0
C1445 C 0.5813 0.07544 0.64368 0.0
U1446 U 0.59785 0.06634 0.66335 0.0
O1447 O 0.59573 0.0558 0.66829 0.0
O1448 O 0.60436 0.05697 0.66038 0.0
C1449 C 0.60086 0.05263 0.66465 0.0
C1450 C 0.58843 0.0706 0.65371 0.0
C1451 C 0.59972 0.0452 0.66216 0.0
C1452 C 0.59447 0.03607 0.65439 0.0
C1453 C 0.595 0.04328 0.65659 0.0
C1454 C 0.60328 0.03275 0.66329 0.0
C1455 C 0.59859 0.03072 0.65777 0.0
C1456 C 0.60383 0.03987 0.66543 0.0
C1457 C 0.61041 0.07796 0.6763 0.0
C1458 C 0.62095 0.07571 0.68378 0.0
C1459 C 0.61712 0.08785 0.68147 0.0
C1460 C 0.61138 0.0853 0.67744 0.0
C1461 C 0.62207 0.08313 0.68455 0.0
C1462 C 0.61516 0.07313 0.67963 0.0
C1463 C 0.6048 0.07589 0.67105 0.0
O1464 O 0.59522 0.0694 0.6523 0.0
O1465 O 0.58675 0.06934 0.66042 0.0
O1466 O 0.59891 0.07275 0.67328 0.0
O1467 O 0.6069 0.07375 0.6647 0.0
H1468 H 0.58881 0.08509 0.6572 0.0
H1469 H 0.58388 0.09502 0.64995 0.0
H1470 H 0.57581 0.07984 0.6346 0.0
H1471 H 0.58061 0.07 0.6418 0.0
H1472 H 0.59079 0.03466 0.65014 0.0
H1473 H 0.59179 0.04731 0.65396 0.0
H1474 H 0.60663 0.02882 0.66592 0.0
H1475 H 0.60755 0.04123 0.66967 0.0
H1476 H 0.6247 0.07195 0.68611 0.0
H1477 H 0.61785 0.09357 0.68197 0.0
H1478 H 0.60781 0.08913 0.67494 0.0
H1479 H 0.61454 0.06743 0.67883 0.0
C1480 C 0.69559 0.83387 0.40022 0.0
C1481 C 0.68848 0.83588 0.40173 0.0
C1482 C 0.6841 0.82847 0.39183 0.0
C1483 C 0.68279 0.83321 0.39755 0.0
C1484 C 0.69118 0.82627 0.39055 0.0
C1485 C 0.69684 0.82897 0.39467 0.0
U1486 U 0.70625 0.84661 0.41337 0.0
O1487 O 0.71683 0.84448 0.4183 0.0
O1488 O 0.71565 0.85311 0.41044 0.0
C1489 C 0.72001 0.84962 0.41471 0.0
C1490 C 0.7019 0.83718 0.40377 0.0
C1491 C 0.72748 0.84851 0.4122 0.0
C1492 C 0.73671 0.84273 0.40492 0.0
C1493 C 0.72952 0.84322 0.40724 0.0
C1494 C 0.73984 0.85272 0.41252 0.0
C1495 C 0.74191 0.84754 0.40752 0.0
C1496 C 0.73273 0.85318 0.41484 0.0
C1497 C 0.69448 0.85914 0.42627 0.0
C1498 C 0.6966 0.86968 0.43376 0.0
C1499 C 0.68448 0.86578 0.43137 0.0
C1500 C 0.68711 0.86005 0.42736 0.0
C1501 C 0.68915 0.87076 0.43448 0.0
C1502 C 0.69926 0.86392 0.42963 0.0
C1503 C 0.69664 0.85355 0.42105 0.0
O1504 O 0.7031 0.84395 0.40235 0.0
O1505 O 0.70326 0.83551 0.41047 0.0
O1506 O 0.69981 0.84768 0.4233 0.0
O1507 O 0.6988 0.85564 0.4147 0.0
H1508 H 0.68736 0.83963 0.406 0.0
H1509 H 0.67737 0.83492 0.39873 0.0
H1510 H 0.69238 0.82265 0.38619 0.0
H1511 H 0.70227 0.82738 0.39336 0.0
H1512 H 0.73819 0.83869 0.40104 0.0
H1513 H 0.72557 0.83955 0.40511 0.0
H1514 H 0.74373 0.85649 0.4146 0.0
H1515 H 0.7313 0.8573 0.41866 0.0
H1516 H 0.70032 0.87346 0.4361 0.0
H1517 H 0.67873 0.86646 0.43183 0.0
H1518 H 0.68332 0.85646 0.42484 0.0
H1519 H 0.70499 0.86334 0.42887 0.0
C1520 C 0.9383 0.94438 0.15027 0.0
C1521 C 0.93653 0.93728 0.152 0.0
C1522 C 0.94364 0.93285 0.14187 0.0
C1523 C 0.93918 0.93157 0.14784 0.0
C1524 C 0.94558 0.93995 0.14036 0.0
C1525 C 0.94294 0.94562 0.14449 0.0
U1526 U 0.92545 0.95486 0.1634 0.0
O1527 O 0.92742 0.96536 0.1685 0.0
O1528 O 0.91893 0.96423 0.16046 0.0
C1529 C 0.92234 0.96855 0.16482 0.0
C1530 C 0.93499 0.95067 0.15383 0.0
C1531 C 0.9236 0.97598 0.16233 0.0
C1532 C 0.92848 0.98491 0.15411 0.0
C1533 C 0.92792 0.97774 0.15641 0.0
C1534 C 0.92057 0.98857 0.16369 0.0
C1535 C 0.9248 0.99039 0.15775 0.0
C1536 C 0.91996 0.98147 0.16592 0.0
C1537 C 0.9129 0.94308 0.1762 0.0
C1538 C 0.90245 0.94534 0.18381 0.0
C1539 C 0.90617 0.9332 0.18138 0.0
C1540 C 0.91189 0.93574 0.17729 0.0
C1541 C 0.9013 0.93793 0.18458 0.0
C1542 C 0.90821 0.94792 0.1796 0.0
C1543 C 0.91853 0.94517 0.17098 0.0
O1544 O 0.92822 0.95187 0.15237 0.0
O1545 O 0.93662 0.95198 0.16055 0.0
O1546 O 0.92439 0.94835 0.17326 0.0
O1547 O 0.91645 0.94735 0.16464 0.0
H1548 H 0.93298 0.93617 0.15645 0.0
H1549 H 0.93767 0.92616 0.14924 0.0
H1550 H 0.94895 0.94118 0.1358 0.0
H1551 H 0.94436 0.95104 0.14302 0.0
H1552 H 0.9318 0.98617 0.14953 0.0
H1553 H 0.93077 0.97359 0.15354 0.0
H1554 H 0.91761 0.99265 0.16655 0.0
H1555 H 0.91655 0.98025 0.17045 0.0
H1556 H 0.89875 0.94911 0.1862 0.0
H1557 H 0.90542 0.92748 0.18187 0.0
H1558 H 0.91541 0.9319 0.17473 0.0
H1559 H 0.90886 0.95362 0.17884 0.0
C1560 C 0.82781 0.18705 0.90017 0.0
C1561 C 0.83496 0.18559 0.90206 0.0
C1562 C 0.83923 0.19259 0.89185 0.0
C1563 C 0.84063 0.18834 0.89791 0.0
C1564 C 0.8321 0.19424 0.89015 0.0
C1565 C 0.82647 0.19147 0.89425 0.0
U1566 U 0.81731 0.17425 0.91339 0.0
O1567 O 0.80676 0.17637 0.91839 0.0
O1568 O 0.80789 0.16779 0.91046 0.0
C1569 C 0.80355 0.17127 0.91476 0.0
C1570 C 0.82157 0.18371 0.90379 0.0
C1571 C 0.79609 0.17246 0.91225 0.0
C1572 C 0.78702 0.17793 0.90454 0.0
C1573 C 0.7942 0.17741 0.90689 0.0
C1574 C 0.7836 0.1687 0.91294 0.0
C1575 C 0.78167 0.17352 0.90753 0.0
C1576 C 0.7907 0.16817 0.91525 0.0
C1577 C 0.82906 0.16168 0.92623 0.0
C1578 C 0.82679 0.15125 0.93383 0.0
C1579 C 0.83897 0.15498 0.93144 0.0
C1580 C 0.83642 0.16068 0.92735 0.0
C1581 C 0.83422 0.15011 0.93462 0.0
C1582 C 0.82421 0.15699 0.92962 0.0
C1583 C 0.82696 0.1673 0.92101 0.0
O1584 O 0.82039 0.17694 0.90235 0.0
O1585 O 0.82028 0.18535 0.91051 0.0
O1586 O 0.82381 0.17317 0.92327 0.0
O1587 O 0.82477 0.16522 0.91467 0.0
H1588 H 0.83615 0.18221 0.90661 0.0
H1589 H 0.84611 0.18705 0.89934 0.0
H1590 H 0.83088 0.19749 0.88551 0.0
H1591 H 0.82101 0.19265 0.89267 0.0
H1592 H 0.78565 0.1817 0.90036 0.0
H1593 H 0.79825 0.18078 0.90448 0.0
H1594 H 0.77959 0.16524 0.91531 0.0
H1595 H 0.79202 0.16431 0.91936 0.0
H1596 H 0.82302 0.14755 0.9362 0.0
H1597 H 0.8447 0.15423 0.93195 0.0
H1598 H 0.84027 0.1642 0.9248 0.0
H1599 H 0.8185 0.15763 0.92883 0.0
C1600 C 0.87239 0.58386 0.94485 0.0
C1601 C 0.87086 0.58589 0.93777 0.0
C1602 C 0.88075 0.57847 0.93334 0.0
C1603 C 0.87501 0.58322 0.93207 0.0
C1604 C 0.88203 0.57624 0.94041 0.0
C1605 C 0.87793 0.57893 0.94607 0.0
U1606 U 0.85926 0.59653 0.95562 0.0
O1607 O 0.85439 0.59433 0.96619 0.0
O1608 O 0.86221 0.60302 0.96501 0.0
C1609 C 0.85797 0.59949 0.96936 0.0
C1610 C 0.86889 0.58717 0.95118 0.0
C1611 C 0.86049 0.5984 0.97681 0.0
C1612 C 0.86772 0.5926 0.98604 0.0
C1613 C 0.86542 0.59308 0.97885 0.0
C1614 C 0.86019 0.60267 0.98912 0.0
C1615 C 0.86515 0.59746 0.9912 0.0
C1616 C 0.85788 0.60312 0.98202 0.0
C1617 C 0.84607 0.60889 0.94399 0.0
C1618 C 0.83962 0.62017 0.94561 0.0
C1619 C 0.84017 0.61466 0.93392 0.0
C1620 C 0.84407 0.60896 0.93677 0.0
C1621 C 0.8381 0.62045 0.93822 0.0
C1622 C 0.84365 0.61444 0.94848 0.0
C1623 C 0.85141 0.60341 0.94613 0.0
O1624 O 0.87029 0.59395 0.95234 0.0
O1625 O 0.86221 0.58545 0.95262 0.0
O1626 O 0.84928 0.59747 0.94923 0.0
O1627 O 0.85774 0.6056 0.94828 0.0
H1628 H 0.8666 0.58967 0.93668 0.0
H1629 H 0.87382 0.58495 0.92667 0.0
H1630 H 0.88641 0.57262 0.9416 0.0
H1631 H 0.87924 0.57731 0.95148 0.0
H1632 H 0.87158 0.58854 0.98753 0.0
H1633 H 0.86752 0.58938 0.97492 0.0
H1634 H 0.85813 0.60647 0.99299 0.0
H1635 H 0.85408 0.60726 0.98058 0.0
H1636 H 0.83807 0.62457 0.94905 0.0
H1637 H 0.83905 0.61469 0.92823 0.0
H1638 H 0.84587 0.60477 0.9332 0.0
H1639 H 0.84512 0.61451 0.95408 0.0
C1640 C 0.37244 0.93721 0.07717 0.0
C1641 C 0.37093 0.93516 0.08425 0.0
C1642 C 0.38085 0.94255 0.08866 0.0
C1643 C 0.37511 0.93781 0.08995 0.0
C1644 C 0.38212 0.94478 0.08159 0.0
C1645 C 0.37799 0.94212 0.07593 0.0
U1646 U 0.35946 0.9244 0.0664 0.0
O1647 O 0.3544 0.92661 0.05594 0.0
O1648 O 0.36253 0.91814 0.05693 0.0
C1649 C 0.35808 0.92156 0.05269 0.0
C1650 C 0.3689 0.93393 0.07085 0.0
C1651 C 0.36033 0.92268 0.0452 0.0
C1652 C 0.36782 0.92783 0.03581 0.0
C1653 C 0.36569 0.92752 0.04305 0.0
C1654 C 0.35917 0.91863 0.03293 0.0
C1655 C 0.36467 0.92325 0.0307 0.0
C1656 C 0.35707 0.91834 0.04006 0.0
C1657 C 0.34688 0.91154 0.07827 0.0
C1658 C 0.33885 0.90129 0.07677 0.0
C1659 C 0.34209 0.90533 0.08862 0.0
C1660 C 0.34622 0.91077 0.08567 0.0
C1661 C 0.33826 0.9005 0.08429 0.0
C1662 C 0.34315 0.90676 0.07378 0.0
C1663 C 0.35196 0.91712 0.07582 0.0
O1664 O 0.37046 0.92722 0.06955 0.0
O1665 O 0.36215 0.9355 0.06957 0.0
O1666 O 0.34957 0.92302 0.07282 0.0
O1667 O 0.35833 0.91515 0.07359 0.0
H1668 H 0.36666 0.9314 0.08535 0.0
H1669 H 0.37392 0.93609 0.09535 0.0
H1670 H 0.3865 0.94838 0.08039 0.0
H1671 H 0.37928 0.94374 0.07052 0.0
H1672 H 0.37207 0.93146 0.03427 0.0
H1673 H 0.36829 0.93093 0.04695 0.0
H1674 H 0.3565 0.91515 0.02914 0.0
H1675 H 0.35292 0.91458 0.0416 0.0
H1676 H 0.336 0.8977 0.07323 0.0
H1677 H 0.34209 0.90484 0.09439 0.0
H1678 H 0.34911 0.9143 0.08924 0.0
H1679 H 0.34362 0.90721 0.06802 0.0
C1680 C 0.83502 0.6212 0.82712 0.0
C1681 C 0.83692 0.61956 0.83421 0.0
C1682 C 0.82968 0.62958 0.83863 0.0
C1683 C 0.83428 0.62372 0.83991 0.0
C1684 C 0.8276 0.63098 0.83154 0.0
C1685 C 0.83025 0.62686 0.82588 0.0
U1686 U 0.84775 0.60823 0.81617 0.0
O1687 O 0.84543 0.60333 0.80564 0.0
O1688 O 0.854 0.61135 0.80669 0.0
C1689 C 0.85052 0.60699 0.80242 0.0
C1690 C 0.83828 0.61766 0.82079 0.0
C1691 C 0.84946 0.60928 0.79492 0.0
C1692 C 0.84407 0.61652 0.78547 0.0
C1693 C 0.84437 0.61436 0.7927 0.0
C1694 C 0.85383 0.60845 0.7827 0.0
C1695 C 0.84893 0.61367 0.78042 0.0
C1696 C 0.85409 0.60631 0.78983 0.0
C1697 C 0.8606 0.59556 0.82808 0.0
C1698 C 0.87084 0.58744 0.82689 0.0
C1699 C 0.86675 0.59108 0.8386 0.0
C1700 C 0.86132 0.59511 0.83549 0.0
C1701 C 0.87161 0.58709 0.83443 0.0
C1702 C 0.8654 0.59169 0.82373 0.0
C1703 C 0.85507 0.60062 0.82546 0.0
O1704 O 0.84502 0.61918 0.81947 0.0
O1705 O 0.83666 0.61095 0.81946 0.0
O1706 O 0.84914 0.59827 0.82247 0.0
O1707 O 0.85707 0.60698 0.82327 0.0
H1708 H 0.84058 0.6152 0.83531 0.0
H1709 H 0.83589 0.62242 0.84532 0.0
H1710 H 0.82412 0.63546 0.83032 0.0
H1711 H 0.82873 0.62825 0.82046 0.0
H1712 H 0.84023 0.62055 0.78387 0.0
H1713 H 0.84073 0.61673 0.79655 0.0
H1714 H 0.85755 0.60604 0.77896 0.0
H1715 H 0.85804 0.60237 0.79141 0.0
H1716 H 0.87442 0.58448 0.82343 0.0
H1717 H 0.8672 0.59134 0.84436 0.0
H1718 H 0.85776 0.59811 0.83896 0.0
H1719 H 0.865 0.592 0.81796 0.0
C1720 C 0.15125 0.08367 0.5769 0.0
C1721 C 0.15267 0.08563 0.58402 0.0
C1722 C 0.14281 0.07805 0.58819 0.0
C1723 C 0.14846 0.08285 0.58962 0.0
C1724 C 0.14164 0.07589 0.5811 0.0
C1725 C 0.14579 0.0787 0.57553 0.0
U1726 U 0.16419 0.09673 0.56637 0.0
O1727 O 0.16922 0.09466 0.55584 0.0
O1728 O 0.161 0.103 0.55691 0.0
C1729 C 0.16541 0.09961 0.5526 0.0
C1730 C 0.15477 0.08712 0.57068 0.0
C1731 C 0.16308 0.09839 0.54509 0.0
C1732 C 0.15472 0.09431 0.53584 0.0
C1733 C 0.15691 0.09454 0.54309 0.0
C1734 C 0.16498 0.10147 0.53257 0.0
C1735 C 0.15863 0.09797 0.53049 0.0
C1736 C 0.16712 0.10171 0.53973 0.0
C1737 C 0.17701 0.10941 0.57816 0.0
C1738 C 0.1847 0.11981 0.57604 0.0
C1739 C 0.18213 0.11604 0.58815 0.0
C1740 C 0.17804 0.11037 0.58552 0.0
C1741 C 0.1854 0.12092 0.58348 0.0
C1742 C 0.18049 0.1141 0.57339 0.0
C1743 C 0.17181 0.10379 0.57596 0.0
O1744 O 0.15321 0.09387 0.56956 0.0
O1745 O 0.16151 0.08558 0.56934 0.0
O1746 O 0.17411 0.09794 0.5728 0.0
O1747 O 0.16544 0.10582 0.57378 0.0
H1748 H 0.15686 0.08945 0.58522 0.0
H1749 H 0.14951 0.08456 0.59506 0.0
H1750 H 0.13729 0.07227 0.57982 0.0
H1751 H 0.14456 0.07716 0.57008 0.0
H1752 H 0.14983 0.0915 0.53447 0.0
H1753 H 0.15371 0.09188 0.54712 0.0
H1754 H 0.16831 0.10415 0.52867 0.0
H1755 H 0.17191 0.10468 0.5411 0.0
H1756 H 0.18715 0.12352 0.57232 0.0
H1757 H 0.18256 0.11676 0.59388 0.0
H1758 H 0.17543 0.10684 0.58931 0.0
H1759 H 0.17979 0.11349 0.56767 0.0
C1760 C 0.18847 0.89994 0.82701 0.0
C1761 C 0.18649 0.90151 0.83409 0.0
C1762 C 0.19381 0.89155 0.83845 0.0
C1763 C 0.18914 0.89733 0.83977 0.0
C1764 C 0.19598 0.89022 0.83137 0.0
C1765 C 0.19333 0.89436 0.82574 0.0
U1766 U 0.17564 0.91298 0.81647 0.0
O1767 O 0.17768 0.9177 0.80581 0.0
O1768 O 0.169 0.90989 0.80724 0.0
C1769 C 0.17249 0.91404 0.80277 0.0
C1770 C 0.18513 0.90343 0.82074 0.0
C1771 C 0.17342 0.91145 0.79532 0.0
C1772 C 0.17926 0.9046 0.78578 0.0
C1773 C 0.17886 0.90674 0.79304 0.0
C1774 C 0.16875 0.91171 0.78319 0.0
C1775 C 0.17423 0.90716 0.78073 0.0
C1776 C 0.1684 0.91384 0.79033 0.0
C1777 C 0.16312 0.92591 0.82821 0.0
C1778 C 0.15253 0.93334 0.82606 0.0
C1779 C 0.15644 0.93101 0.83817 0.0
C1780 C 0.1622 0.92703 0.83557 0.0
C1781 C 0.15144 0.93409 0.83349 0.0
C1782 C 0.15832 0.92923 0.82342 0.0
C1783 C 0.16876 0.92071 0.82607 0.0
O1784 O 0.17834 0.90199 0.81964 0.0
O1785 O 0.18679 0.91012 0.81935 0.0
O1786 O 0.17458 0.92296 0.8228 0.0
O1787 O 0.16668 0.91433 0.82401 0.0
H1788 H 0.18275 0.9058 0.83521 0.0
H1789 H 0.18746 0.89854 0.84518 0.0
H1790 H 0.19952 0.8858 0.83016 0.0
H1791 H 0.19489 0.89303 0.82031 0.0
H1792 H 0.18354 0.90107 0.7841 0.0
H1793 H 0.18278 0.90476 0.79682 0.0
H1794 H 0.16463 0.91364 0.7796 0.0
H1795 H 0.16411 0.9174 0.79195 0.0
H1796 H 0.14873 0.93565 0.82233 0.0
H1797 H 0.15575 0.9315 0.84391 0.0
H1798 H 0.16581 0.92454 0.83937 0.0
H1799 H 0.15891 0.92845 0.81771 0.0
C1800 C 0.65107 0.43702 0.44497 0.0
C1801 C 0.6526 0.43501 0.43788 0.0
C1802 C 0.64275 0.44249 0.43353 0.0
C1803 C 0.64844 0.43771 0.43221 0.0
C1804 C 0.64148 0.44471 0.44059 0.0
C1805 C 0.64557 0.44198 0.44624 0.0
U1806 U 0.66407 0.42409 0.45548 0.0
O1807 O 0.6691 0.42623 0.46601 0.0
O1808 O 0.66111 0.41768 0.46491 0.0
C1809 C 0.66544 0.42115 0.46923 0.0
C1810 C 0.65457 0.43366 0.45124 0.0
C1811 C 0.66302 0.42225 0.47674 0.0
C1812 C 0.65574 0.42782 0.48614 0.0
C1813 C 0.65803 0.42748 0.47891 0.0
C1814 C 0.66346 0.41784 0.48899 0.0
C1815 C 0.65834 0.42287 0.49123 0.0
C1816 C 0.66575 0.41755 0.48189 0.0
C1817 C 0.67686 0.41143 0.44372 0.0
C1818 C 0.68326 0.40014 0.44556 0.0
C1819 C 0.68349 0.40584 0.43395 0.0
C1820 C 0.67924 0.4114 0.4366 0.0
C1821 C 0.68548 0.40007 0.43834 0.0
C1822 C 0.679 0.40579 0.44824 0.0
C1823 C 0.67161 0.41705 0.4458 0.0
O1824 O 0.65305 0.42691 0.45241 0.0
O1825 O 0.66131 0.43523 0.45256 0.0
O1826 O 0.67389 0.42295 0.44887 0.0
O1827 O 0.66528 0.415 0.44808 0.0
H1828 H 0.65683 0.43121 0.43677 0.0
H1829 H 0.6496 0.436 0.4268 0.0
H1830 H 0.63712 0.44835 0.44179 0.0
H1831 H 0.64427 0.44357 0.45166 0.0
H1832 H 0.6518 0.43178 0.48768 0.0
H1833 H 0.65583 0.43119 0.47505 0.0
H1834 H 0.66569 0.41404 0.49276 0.0
H1835 H 0.66962 0.4135 0.48037 0.0
H1836 H 0.68474 0.39579 0.44908 0.0
H1837 H 0.68502 0.40591 0.42836 0.0
H1838 H 0.6776 0.41561 0.43297 0.0
H1839 H 0.67724 0.40567 0.45376 0.0
C1840 C 0.83517 0.39958 0.69475 0.0
C1841 C 0.83537 0.40217 0.68768 0.0
C1842 C 0.82951 0.39126 0.68337 0.0
C1843 C 0.8325 0.39806 0.68204 0.0
C1844 C 0.82917 0.38881 0.69046 0.0
C1845 C 0.83192 0.39294 0.69606 0.0
U1846 U 0.84786 0.41298 0.70525 0.0
O1847 O 0.84569 0.41795 0.71577 0.0
O1848 O 0.85432 0.41006 0.71467 0.0
C1849 C 0.8508 0.41434 0.71899 0.0
C1850 C 0.83848 0.40332 0.70093 0.0
C1851 C 0.84958 0.41183 0.72643 0.0
C1852 C 0.84464 0.40366 0.73538 0.0
C1853 C 0.84514 0.406 0.72821 0.0
C1854 C 0.85283 0.41302 0.73899 0.0
C1855 C 0.84851 0.40716 0.74082 0.0
C1856 C 0.85338 0.41529 0.73189 0.0
C1857 C 0.86043 0.4259 0.69358 0.0
C1858 C 0.87094 0.43342 0.69578 0.0
C1859 C 0.8671 0.43106 0.68365 0.0
C1860 C 0.86137 0.42702 0.68623 0.0
C1861 C 0.87205 0.43417 0.68835 0.0
C1862 C 0.86518 0.42925 0.69839 0.0
C1863 C 0.85484 0.42065 0.69568 0.0
O1864 O 0.84526 0.40191 0.70219 0.0
O1865 O 0.83678 0.41004 0.70216 0.0
O1866 O 0.84892 0.42287 0.6988 0.0
O1867 O 0.85695 0.41432 0.69786 0.0
H1868 H 0.83785 0.40727 0.68652 0.0
H1869 H 0.83283 0.40006 0.67661 0.0
H1870 H 0.82683 0.38365 0.69165 0.0
H1871 H 0.83166 0.39084 0.70146 0.0
H1872 H 0.84125 0.39915 0.73667 0.0
H1873 H 0.84216 0.40324 0.72408 0.0
H1874 H 0.85591 0.41577 0.74307 0.0
H1875 H 0.85688 0.41974 0.73065 0.0
H1876 H 0.8747 0.43575 0.69953 0.0
H1877 H 0.86781 0.43155 0.67792 0.0
H1878 H 0.85781 0.4245 0.68241 0.0
H1879 H 0.86457 0.42847 0.7041 0.0
C1880 C 0.68832 0.62115 0.19488 0.0
C1881 C 0.68729 0.6189 0.18777 0.0
C1882 C 0.69362 0.62955 0.1833 0.0
C1883 C 0.68996 0.62304 0.18204 0.0
C1884 C 0.69473 0.6316 0.19047 0.0
C1885 C 0.69216 0.62745 0.19613 0.0
U1886 U 0.67566 0.6079 0.20541 0.0
O1887 O 0.67776 0.60289 0.21592 0.0
O1888 O 0.66906 0.61072 0.21476 0.0
C1889 C 0.67257 0.60645 0.21909 0.0
C1890 C 0.68509 0.61752 0.20116 0.0
C1891 C 0.67363 0.60894 0.22654 0.0
C1892 C 0.67969 0.61578 0.23589 0.0
C1893 C 0.67923 0.6135 0.2287 0.0
C1894 C 0.66903 0.60897 0.23871 0.0
C1895 C 0.67451 0.61359 0.24093 0.0
C1896 C 0.66862 0.60666 0.23163 0.0
C1897 C 0.66311 0.59526 0.19339 0.0
C1898 C 0.6523 0.58805 0.19507 0.0
C1899 C 0.65675 0.59039 0.18314 0.0
C1900 C 0.66248 0.59421 0.186 0.0
C1901 C 0.65147 0.58743 0.18759 0.0
C1902 C 0.65807 0.59203 0.19797 0.0
C1903 C 0.66871 0.60039 0.19573 0.0
O1904 O 0.67833 0.61896 0.20246 0.0
O1905 O 0.68677 0.6108 0.20241 0.0
O1906 O 0.67456 0.59805 0.19888 0.0
O1907 O 0.66662 0.60671 0.19795 0.0
H1908 H 0.68435 0.61404 0.18665 0.0
H1909 H 0.6891 0.62114 0.17664 0.0
H1910 H 0.69735 0.63658 0.19179 0.0
H1911 H 0.693 0.62932 0.20156 0.0
H1912 H 0.68395 0.61937 0.23748 0.0
H1913 H 0.68315 0.61535 0.22486 0.0
H1914 H 0.66501 0.60715 0.24248 0.0
H1915 H 0.66428 0.60313 0.23009 0.0
H1916 H 0.64834 0.58576 0.19864 0.0
H1917 H 0.65634 0.5899 0.17738 0.0
H1918 H 0.6663 0.59663 0.18236 0.0
H1919 H 0.65845 0.59275 0.20371 0.0
C1920 C 0.57677 0.64732 0.93514 0.0
C1921 C 0.58374 0.6482 0.9324 0.0
C1922 C 0.58848 0.6399 0.94134 0.0
C1923 C 0.58954 0.64449 0.93546 0.0
C1924 C 0.58154 0.63921 0.94417 0.0
C1925 C 0.57576 0.64284 0.94108 0.0
U1926 U 0.56622 0.66018 0.92225 0.0
O1927 O 0.55657 0.65755 0.91597 0.0
O1928 O 0.55596 0.66563 0.92447 0.0
C1929 C 0.5525 0.66208 0.91948 0.0
C1930 C 0.57037 0.65059 0.93176 0.0
C1931 C 0.545 0.65995 0.92092 0.0
C1932 C 0.53574 0.6529 0.92688 0.0
C1933 C 0.54301 0.65477 0.92602 0.0
C1934 C 0.53247 0.66133 0.91762 0.0
C1935 C 0.53042 0.65612 0.9226 0.0
C1936 C 0.53965 0.66324 0.91682 0.0
C1937 C 0.57815 0.67318 0.91008 0.0
C1938 C 0.57622 0.68075 0.89956 0.0
C1939 C 0.58812 0.67946 0.90453 0.0
C1940 C 0.58542 0.67501 0.90988 0.0
C1941 C 0.58362 0.68228 0.89924 0.0
C1942 C 0.5735 0.67618 0.90495 0.0
C1943 C 0.576 0.66773 0.91544 0.0
O1944 O 0.5689 0.65726 0.9334 0.0
O1945 O 0.56927 0.64913 0.92497 0.0
O1946 O 0.57357 0.66156 0.91312 0.0
O1947 O 0.57303 0.66983 0.92146 0.0
H1948 H 0.58466 0.65165 0.92784 0.0
H1949 H 0.59485 0.64519 0.93323 0.0
H1950 H 0.58055 0.6357 0.94868 0.0
H1951 H 0.57044 0.64206 0.94326 0.0
H1952 H 0.53428 0.64882 0.93073 0.0
H1953 H 0.54705 0.65215 0.92925 0.0
H1954 H 0.52849 0.66391 0.91428 0.0
H1955 H 0.54105 0.66725 0.91288 0.0
H1956 H 0.57264 0.68284 0.89552 0.0
H1957 H 0.59383 0.68053 0.90441 0.0
H1958 H 0.58912 0.67277 0.91375 0.0
H1959 H 0.56785 0.67484 0.90499 0.0
C1960 C 0.62522 0.32575 0.18505 0.0
C1961 C 0.62399 0.33273 0.18254 0.0
C1962 C 0.63254 0.33755 0.19128 0.0
C1963 C 0.62762 0.33857 0.18562 0.0
C1964 C 0.63361 0.33055 0.19382 0.0
C1965 C 0.63 0.32475 0.19075 0.0
U1966 U 0.6124 0.31489 0.17231 0.0
O1967 O 0.61509 0.30514 0.16626 0.0
O1968 O 0.60693 0.30471 0.17473 0.0
C1969 C 0.61049 0.30117 0.16981 0.0
C1970 C 0.62199 0.31931 0.18171 0.0
C1971 C 0.61244 0.29364 0.17127 0.0
C1972 C 0.62012 0.28422 0.17609 0.0
C1973 C 0.61838 0.29153 0.17541 0.0
C1974 C 0.6099 0.28116 0.16874 0.0
C1975 C 0.61598 0.27895 0.1726 0.0
C1976 C 0.6082 0.28838 0.16806 0.0
C1977 C 0.59899 0.3266 0.16033 0.0
C1978 C 0.59282 0.32604 0.14878 0.0
C1979 C 0.59131 0.33634 0.15646 0.0
C1980 C 0.59573 0.33322 0.16157 0.0
C1981 C 0.59002 0.33297 0.14986 0.0
C1982 C 0.59733 0.32288 0.15398 0.0
C1983 C 0.60463 0.32443 0.16546 0.0
O1984 O 0.61533 0.31776 0.1834 0.0
O1985 O 0.62344 0.31815 0.17493 0.0
O1986 O 0.61075 0.32195 0.163 0.0
O1987 O 0.60272 0.32167 0.17164 0.0
H1988 H 0.6203 0.33364 0.17816 0.0
H1989 H 0.62657 0.34389 0.1836 0.0
H1990 H 0.63739 0.3295 0.19809 0.0
H1991 H 0.63106 0.31942 0.19276 0.0
H1992 H 0.62482 0.28271 0.17913 0.0
H1993 H 0.62172 0.29551 0.17797 0.0
H1994 H 0.60646 0.2773 0.16613 0.0
H1995 H 0.60358 0.28987 0.16488 0.0
H1996 H 0.59186 0.32325 0.14379 0.0
H1997 H 0.58911 0.34158 0.15757 0.0
H1998 H 0.5969 0.33618 0.16642 0.0
H1999 H 0.59974 0.31772 0.15291 0.0
C2000 C 0.94669 0.37358 0.43507 0.0
C2001 C 0.93973 0.37273 0.43232 0.0
C2002 C 0.93499 0.38104 0.44128 0.0
C2003 C 0.93394 0.37645 0.43539 0.0
C2004 C 0.94194 0.3817 0.44411 0.0
C2005 C 0.94771 0.37804 0.44102 0.0
U2006 U 0.9572 0.36074 0.42212 0.0
O2007 O 0.96687 0.36338 0.41585 0.0
O2008 O 0.96746 0.35523 0.42426 0.0
C2009 C 0.97095 0.35883 0.41933 0.0
C2010 C 0.95309 0.3703 0.43168 0.0
C2011 C 0.97844 0.36103 0.42089 0.0
C2012 C 0.98749 0.36868 0.42645 0.0
C2013 C 0.98025 0.36667 0.42554 0.0
C2014 C 0.99112 0.35939 0.41822 0.0
C2015 C 0.99297 0.36507 0.42273 0.0
C2016 C 0.98396 0.35739 0.41731 0.0
C2017 C 0.94518 0.34784 0.40992 0.0
C2018 C 0.94725 0.34 0.39963 0.0
C2019 C 0.93524 0.34163 0.40422 0.0
C2020 C 0.93787 0.34617 0.40953 0.0
C2021 C 0.93985 0.33856 0.39915 0.0
C2022 C 0.94991 0.34465 0.40498 0.0
C2023 C 0.94734 0.35328 0.4153 0.0
O2024 O 0.95454 0.36361 0.43328 0.0
O2025 O 0.9542 0.37179 0.4249 0.0
O2026 O 0.9498 0.35944 0.413 0.0
O2027 O 0.95033 0.35114 0.4213 0.0
H2028 H 0.9388 0.36929 0.42775 0.0
H2029 H 0.92863 0.37576 0.43316 0.0
H2030 H 0.94294 0.38521 0.44862 0.0
H2031 H 0.95303 0.37881 0.44321 0.0
H2032 H 0.98879 0.3731 0.42996 0.0
H2033 H 0.97609 0.36956 0.42837 0.0
H2034 H 0.99524 0.35654 0.41528 0.0
H2035 H 0.9827 0.35304 0.4137 0.0
H2036 H 0.95091 0.33773 0.39575 0.0
H2037 H 0.92952 0.34064 0.40396 0.0
H2038 H 0.93412 0.34857 0.41325 0.0
H2039 H 0.95558 0.34586 0.40516 0.0
C2040 C 0.89825 0.69546 0.68499 0.0
C2041 C 0.89963 0.68848 0.68255 0.0
C2042 C 0.89097 0.68363 0.69115 0.0
C2043 C 0.89601 0.68262 0.68561 0.0
C2044 C 0.88977 0.69063 0.69364 0.0
C2045 C 0.89337 0.69644 0.6906 0.0
U2046 U 0.91097 0.70628 0.67217 0.0
O2047 O 0.90829 0.71605 0.66614 0.0
O2048 O 0.91647 0.71645 0.6746 0.0
C2049 C 0.9129 0.72 0.66969 0.0
C2050 C 0.90146 0.7019 0.68166 0.0
C2051 C 0.91092 0.72752 0.67118 0.0
C2052 C 0.90365 0.7369 0.67666 0.0
C2053 C 0.90543 0.7296 0.67591 0.0
C2054 C 0.9129 0.73998 0.66814 0.0
C2055 C 0.90728 0.74215 0.67264 0.0
C2056 C 0.91467 0.73278 0.66741 0.0
C2057 C 0.92426 0.69439 0.66015 0.0
C2058 C 0.93042 0.69454 0.64857 0.0
C2059 C 0.93231 0.68475 0.6568 0.0
C2060 C 0.92772 0.68795 0.66172 0.0
C2061 C 0.9335 0.68778 0.65001 0.0
C2062 C 0.9258 0.69781 0.6536 0.0
C2063 C 0.91864 0.69672 0.66525 0.0
O2064 O 0.90814 0.70341 0.68328 0.0
O2065 O 0.89994 0.70308 0.67489 0.0
O2066 O 0.91254 0.69926 0.6628 0.0
O2067 O 0.92059 0.69945 0.67143 0.0
H2068 H 0.90341 0.68758 0.67825 0.0
H2069 H 0.89716 0.6773 0.68363 0.0
H2070 H 0.8859 0.69165 0.69783 0.0
H2071 H 0.89221 0.70177 0.69255 0.0
H2072 H 0.89929 0.7384 0.68018 0.0
H2073 H 0.90247 0.72561 0.67889 0.0
H2074 H 0.91592 0.74387 0.66507 0.0
H2075 H 0.91895 0.73131 0.66378 0.0
H2076 H 0.93126 0.69711 0.64346 0.0
H2077 H 0.93478 0.67973 0.6583 0.0
H2078 H 0.92666 0.68522 0.66672 0.0
H2079 H 0.92324 0.70284 0.65228 0.0
C2080 C 0.57695 0.37401 0.58676 0.0
C2081 C 0.58393 0.37299 0.58942 0.0
C2082 C 0.58877 0.38134 0.5805 0.0
C2083 C 0.58978 0.37663 0.58632 0.0
C2084 C 0.58177 0.3822 0.57782 0.0
C2085 C 0.57597 0.3786 0.58091 0.0
U2086 U 0.56619 0.36111 0.5995 0.0
O2087 O 0.55649 0.36365 0.60573 0.0
O2088 O 0.55597 0.35561 0.59719 0.0
C2089 C 0.55246 0.3591 0.60219 0.0
C2090 C 0.57049 0.37076 0.59011 0.0
C2091 C 0.54498 0.36123 0.60067 0.0
C2092 C 0.53589 0.36889 0.59525 0.0
C2093 C 0.54314 0.36694 0.59613 0.0
C2094 C 0.53233 0.35939 0.60328 0.0
C2095 C 0.53045 0.36514 0.59887 0.0
C2096 C 0.53951 0.35746 0.60417 0.0
C2097 C 0.57796 0.34777 0.61139 0.0
C2098 C 0.57702 0.34141 0.62279 0.0
C2099 C 0.58776 0.34036 0.61561 0.0
C2100 C 0.58475 0.34475 0.61042 0.0
C2101 C 0.5841 0.33886 0.62201 0.0
C2102 C 0.57398 0.3459 0.61752 0.0
C2103 C 0.57586 0.3534 0.60623 0.0
O2104 O 0.56894 0.36413 0.58839 0.0
O2105 O 0.56936 0.37216 0.59691 0.0
O2106 O 0.5734 0.35951 0.6087 0.0
O2107 O 0.57303 0.35148 0.60008 0.0
H2108 H 0.58484 0.36945 0.59392 0.0
H2109 H 0.59509 0.37574 0.58847 0.0
H2110 H 0.58074 0.38581 0.57341 0.0
H2111 H 0.57064 0.3795 0.57878 0.0
H2112 H 0.53455 0.37337 0.59183 0.0
H2113 H 0.54727 0.36993 0.59338 0.0
H2114 H 0.52823 0.35645 0.60615 0.0
H2115 H 0.5408 0.35306 0.60771 0.0
H2116 H 0.57403 0.34029 0.62763 0.0
H2117 H 0.59314 0.33836 0.61475 0.0
H2118 H 0.58791 0.34609 0.60574 0.0
H2119 H 0.56869 0.34813 0.61837 0.0
C2120 C 0.89824 0.32538 0.83679 0.0
C2121 C 0.89963 0.33235 0.83924 0.0
C2122 C 0.89097 0.33726 0.83066 0.0
C2123 C 0.89602 0.33823 0.8362 0.0
C2124 C 0.88976 0.33026 0.82816 0.0
C2125 C 0.89334 0.32443 0.83119 0.0
U2126 U 0.91096 0.31462 0.84963 0.0
O2127 O 0.90837 0.30488 0.85574 0.0
O2128 O 0.91652 0.30446 0.84727 0.0
C2129 C 0.91298 0.30092 0.85221 0.0
C2130 C 0.90145 0.31892 0.84011 0.0
C2131 C 0.91094 0.29344 0.85069 0.0
C2132 C 0.90389 0.28419 0.84474 0.0
C2133 C 0.90573 0.29145 0.84562 0.0
C2134 C 0.91245 0.28094 0.85392 0.0
C2135 C 0.90718 0.2789 0.84898 0.0
C2136 C 0.91431 0.28811 0.85474 0.0
C2137 C 0.9241 0.32671 0.86163 0.0
C2138 C 0.93055 0.32649 0.87303 0.0
C2139 C 0.93197 0.33649 0.86496 0.0
C2140 C 0.9273 0.33328 0.86012 0.0
C2141 C 0.93345 0.33336 0.87166 0.0
C2142 C 0.92591 0.32319 0.86804 0.0
C2143 C 0.91852 0.32427 0.85653 0.0
O2144 O 0.90814 0.31743 0.83851 0.0
O2145 O 0.89992 0.31773 0.84687 0.0
O2146 O 0.91244 0.3217 0.85897 0.0
O2147 O 0.92053 0.32151 0.85038 0.0
H2148 H 0.90342 0.33323 0.84353 0.0
H2149 H 0.89719 0.34355 0.83818 0.0
H2150 H 0.88588 0.32925 0.82397 0.0
H2151 H 0.89216 0.3191 0.82923 0.0
H2152 H 0.89978 0.28273 0.84093 0.0
H2153 H 0.90304 0.29549 0.84245 0.0
H2154 H 0.91507 0.27697 0.85723 0.0
H2155 H 0.91835 0.28952 0.85866 0.0
H2156 H 0.9316 0.3238 0.87804 0.0
H2157 H 0.93431 0.34153 0.8634 0.0
H2158 H 0.92603 0.33609 0.85521 0.0
H2159 H 0.92356 0.31804 0.8693 0.0
C2160 C 0.94659 0.64729 0.0867 0.0
C2161 C 0.93961 0.64835 0.08931 0.0
C2162 C 0.93485 0.63982 0.08057 0.0
C2163 C 0.93379 0.64464 0.08628 0.0
C2164 C 0.94184 0.63892 0.0779 0.0
C2165 C 0.94762 0.6426 0.08093 0.0
U2166 U 0.95699 0.66019 0.09959 0.0
O2167 O 0.96662 0.65765 0.10592 0.0
O2168 O 0.96719 0.66577 0.09745 0.0
C2169 C 0.97066 0.66222 0.10243 0.0
C2170 C 0.95298 0.6506 0.09004 0.0
C2171 C 0.97816 0.66012 0.10097 0.0
C2172 C 0.98745 0.65297 0.09514 0.0
C2173 C 0.98017 0.65485 0.09597 0.0
C2174 C 0.99067 0.66164 0.10421 0.0
C2175 C 0.99276 0.65628 0.09938 0.0
C2176 C 0.98349 0.66352 0.10498 0.0
C2177 C 0.94499 0.67301 0.11181 0.0
C2178 C 0.94715 0.68082 0.12209 0.0
C2179 C 0.93511 0.67925 0.11757 0.0
C2180 C 0.93769 0.67471 0.11224 0.0
C2181 C 0.93976 0.68229 0.1226 0.0
C2182 C 0.94976 0.67617 0.11672 0.0
C2183 C 0.94709 0.66759 0.1064 0.0
O2184 O 0.95438 0.65729 0.08843 0.0
O2185 O 0.95412 0.64912 0.09682 0.0
O2186 O 0.94956 0.66143 0.10869 0.0
O2187 O 0.95006 0.66975 0.1004 0.0
H2188 H 0.93867 0.65196 0.09375 0.0
H2189 H 0.92847 0.64554 0.0884 0.0
H2190 H 0.94289 0.63523 0.07356 0.0
H2191 H 0.95296 0.64167 0.07885 0.0
H2192 H 0.98891 0.64882 0.09137 0.0
H2193 H 0.97613 0.65216 0.0928 0.0
H2194 H 0.99463 0.66436 0.10746 0.0
H2195 H 0.98208 0.66761 0.10884 0.0
H2196 H 0.95084 0.68308 0.12595 0.0
H2197 H 0.9294 0.68027 0.11786 0.0
H2198 H 0.93391 0.67234 0.10853 0.0
H2199 H 0.95543 0.67493 0.11651 0.0
C2200 C 0.62509 0.69559 0.33686 0.0
C2201 C 0.6237 0.6886 0.33927 0.0
C2202 C 0.6324 0.68374 0.3307 0.0
C2203 C 0.62733 0.68274 0.33622 0.0
C2204 C 0.63362 0.69075 0.32824 0.0
C2205 C 0.63001 0.69657 0.33128 0.0
U2206 U 0.61222 0.70636 0.34961 0.0
O2207 O 0.61482 0.71606 0.35578 0.0
O2208 O 0.60674 0.71657 0.34726 0.0
C2209 C 0.61027 0.72008 0.35223 0.0
C2210 C 0.62184 0.70203 0.34019 0.0
C2211 C 0.61242 0.72756 0.3507 0.0
C2212 C 0.61998 0.73665 0.34513 0.0
C2213 C 0.61802 0.72942 0.34601 0.0
C2214 C 0.61073 0.74017 0.35349 0.0
C2215 C 0.61638 0.74207 0.34893 0.0
C2216 C 0.60878 0.73301 0.35436 0.0
C2217 C 0.59893 0.69445 0.36155 0.0
C2218 C 0.59273 0.69493 0.37309 0.0
C2219 C 0.5913 0.68465 0.36537 0.0
C2220 C 0.59573 0.68781 0.36027 0.0
C2221 C 0.58996 0.688 0.37197 0.0
C2222 C 0.59725 0.69812 0.36792 0.0
C2223 C 0.60454 0.69671 0.3564 0.0
O2224 O 0.61518 0.70356 0.33851 0.0
O2225 O 0.62329 0.70319 0.34697 0.0
O2226 O 0.61065 0.69921 0.35886 0.0
O2227 O 0.60259 0.69952 0.35026 0.0
H2228 H 0.6199 0.6877 0.34355 0.0
H2229 H 0.62616 0.67742 0.33817 0.0
H2230 H 0.63751 0.69177 0.32406 0.0
H2231 H 0.63119 0.7019 0.32934 0.0
H2232 H 0.62437 0.738 0.34159 0.0
H2233 H 0.62091 0.7253 0.34313 0.0
H2234 H 0.6079 0.74425 0.3565 0.0
H2235 H 0.60446 0.73171 0.35801 0.0
H2236 H 0.59175 0.69769 0.37808 0.0
H2237 H 0.58912 0.67941 0.36422 0.0
H2238 H 0.59692 0.68487 0.35542 0.0
H2239 H 0.59963 0.70329 0.36901 0.0
C2240 C 0.93593 0.57549 0.64771 0.0
C2241 C 0.93318 0.58242 0.64863 0.0
C2242 C 0.9421 0.58722 0.64029 0.0
C2243 C 0.93622 0.58823 0.64493 0.0
C2244 C 0.94493 0.58029 0.63955 0.0
C2245 C 0.94186 0.57451 0.6432 0.0
U2246 U 0.92296 0.56507 0.66054 0.0
O2247 O 0.91667 0.55544 0.65792 0.0
O2248 O 0.92502 0.55488 0.66617 0.0
C2249 C 0.92012 0.55139 0.66252 0.0
C2250 C 0.93256 0.56909 0.65098 0.0
C2251 C 0.92176 0.54394 0.66033 0.0
C2252 C 0.92637 0.53497 0.65201 0.0
C2253 C 0.92545 0.54219 0.654 0.0
C2254 C 0.92013 0.53125 0.66273 0.0
C2255 C 0.92368 0.52942 0.65636 0.0
C2256 C 0.91917 0.5384 0.66466 0.0
C2257 C 0.91081 0.57712 0.67339 0.0
C2258 C 0.90053 0.57503 0.68124 0.0
C2259 C 0.90512 0.58702 0.67964 0.0
C2260 C 0.91043 0.58441 0.67509 0.0
C2261 C 0.90005 0.58241 0.6827 0.0
C2262 C 0.90588 0.57239 0.67658 0.0
C2263 C 0.91619 0.57498 0.66795 0.0
O2264 O 0.93416 0.56765 0.65767 0.0
O2265 O 0.92578 0.56797 0.64947 0.0
O2266 O 0.91387 0.5725 0.66179 0.0
O2267 O 0.92219 0.57199 0.6701 0.0
H2268 H 0.92862 0.58332 0.6521 0.0
H2269 H 0.93399 0.59352 0.6457 0.0
H2270 H 0.9494 0.57929 0.636 0.0
H2271 H 0.94406 0.56921 0.64238 0.0
H2272 H 0.92917 0.53371 0.64709 0.0
H2273 H 0.92752 0.54637 0.65057 0.0
H2274 H 0.91794 0.52712 0.66615 0.0
H2275 H 0.91626 0.53962 0.66953 0.0
H2276 H 0.89664 0.57138 0.68351 0.0
H2277 H 0.90486 0.59272 0.68065 0.0
H2278 H 0.91416 0.58815 0.6727 0.0
H2279 H 0.90605 0.56674 0.67534 0.0
C2280 C 0.69656 0.68462 0.89769 0.0
C2281 C 0.68958 0.68197 0.89866 0.0
C2282 C 0.68483 0.69083 0.89023 0.0
C2283 C 0.68377 0.68503 0.89495 0.0
C2284 C 0.69182 0.69353 0.88942 0.0
C2285 C 0.69759 0.69046 0.89309 0.0
U2286 U 0.70697 0.67171 0.91059 0.0
O2287 O 0.71661 0.66538 0.90806 0.0
O2288 O 0.71717 0.67383 0.9162 0.0
C2289 C 0.72066 0.66886 0.91265 0.0
C2290 C 0.70295 0.68126 0.901 0.0
C2291 C 0.72815 0.67038 0.91049 0.0
C2292 C 0.73729 0.67635 0.90329 0.0
C2293 C 0.73004 0.67542 0.90523 0.0
C2294 C 0.74075 0.66728 0.91185 0.0
C2295 C 0.74268 0.6722 0.90654 0.0
C2296 C 0.73358 0.6664 0.91382 0.0
C2297 C 0.69496 0.65951 0.92341 0.0
C2298 C 0.69715 0.64918 0.93113 0.0
C2299 C 0.68514 0.65387 0.92985 0.0
C2300 C 0.68769 0.65917 0.92526 0.0
C2301 C 0.6898 0.64877 0.93279 0.0
C2302 C 0.69974 0.65452 0.92644 0.0
C2303 C 0.69704 0.66491 0.91797 0.0
O2304 O 0.70436 0.68287 0.9077 0.0
O2305 O 0.70409 0.67449 0.89951 0.0
O2306 O 0.69954 0.66263 0.91181 0.0
O2307 O 0.7 0.67091 0.92014 0.0
H2308 H 0.68864 0.67748 0.90219 0.0
H2309 H 0.67845 0.68288 0.89578 0.0
H2310 H 0.69287 0.69793 0.88581 0.0
H2311 H 0.70292 0.69258 0.89223 0.0
H2312 H 0.73866 0.68015 0.89914 0.0
H2313 H 0.72593 0.67854 0.90257 0.0
H2314 H 0.7448 0.66403 0.91443 0.0
H2315 H 0.73226 0.6625 0.91789 0.0
H2316 H 0.70084 0.64527 0.9333 0.0
H2317 H 0.67945 0.65365 0.931 0.0
H2318 H 0.68391 0.66292 0.92297 0.0
H2319 H 0.70538 0.65466 0.92509 0.0
C2320 C 0.58748 0.44545 0.14776 0.0
C2321 C 0.59023 0.43851 0.14865 0.0
C2322 C 0.58127 0.43379 0.14035 0.0
C2323 C 0.58715 0.43273 0.14495 0.0
C2324 C 0.57844 0.44071 0.13965 0.0
C2325 C 0.58153 0.44647 0.14329 0.0
U2326 U 0.60052 0.45585 0.1605 0.0
O2327 O 0.60669 0.46553 0.15777 0.0
O2328 O 0.59843 0.46601 0.16615 0.0
C2329 C 0.60328 0.46952 0.16245 0.0
C2330 C 0.59089 0.45182 0.15099 0.0
C2331 C 0.60171 0.47705 0.16052 0.0
C2332 C 0.59756 0.48652 0.15251 0.0
C2333 C 0.59831 0.47918 0.15415 0.0
C2334 C 0.60336 0.48956 0.16367 0.0
C2335 C 0.60024 0.49182 0.1572 0.0
C2336 C 0.60412 0.48232 0.16527 0.0
C2337 C 0.61266 0.44389 0.17348 0.0
C2338 C 0.623 0.44596 0.18127 0.0
C2339 C 0.61828 0.43401 0.17983 0.0
C2340 C 0.61297 0.43662 0.17527 0.0
C2341 C 0.62343 0.43859 0.18279 0.0
C2342 C 0.61765 0.44861 0.1766 0.0
C2343 C 0.6073 0.44601 0.168 0.0
O2344 O 0.58931 0.45327 0.15769 0.0
O2345 O 0.59768 0.45288 0.14946 0.0
O2346 O 0.60963 0.44846 0.16183 0.0
O2347 O 0.60128 0.44898 0.1701 0.0
H2348 H 0.59481 0.43759 0.15209 0.0
H2349 H 0.58938 0.42743 0.14568 0.0
H2350 H 0.57395 0.44172 0.13612 0.0
H2351 H 0.57935 0.45178 0.1425 0.0
H2352 H 0.59511 0.48802 0.14748 0.0
H2353 H 0.59637 0.47521 0.15041 0.0
H2354 H 0.60528 0.4934 0.16755 0.0
H2355 H 0.60672 0.48082 0.17023 0.0
H2356 H 0.62694 0.44961 0.18345 0.0
H2357 H 0.61849 0.42832 0.18089 0.0
H2358 H 0.6092 0.43288 0.17294 0.0
H2359 H 0.61752 0.45425 0.1753 0.0
C2360 C 0.82691 0.33634 0.3976 0.0
C2361 C 0.83388 0.33901 0.39856 0.0
C2362 C 0.83868 0.33011 0.39017 0.0
C2363 C 0.83971 0.33593 0.39487 0.0
C2364 C 0.83169 0.3274 0.38937 0.0
C2365 C 0.8259 0.33048 0.39303 0.0
U2366 U 0.81629 0.34922 0.41049 0.0
O2367 O 0.8066 0.35547 0.40788 0.0
O2368 O 0.80605 0.34705 0.41603 0.0
C2369 C 0.80254 0.35199 0.41245 0.0
C2370 C 0.82048 0.3397 0.40091 0.0
C2371 C 0.79502 0.35048 0.41031 0.0
C2372 C 0.7859 0.34494 0.40272 0.0
C2373 C 0.79315 0.34581 0.4047 0.0
C2374 C 0.78235 0.35326 0.41198 0.0
C2375 C 0.78045 0.34872 0.40632 0.0
C2376 C 0.78954 0.35412 0.41394 0.0
C2377 C 0.82829 0.36144 0.42337 0.0
C2378 C 0.82618 0.37178 0.43112 0.0
C2379 C 0.83817 0.36703 0.42979 0.0
C2380 C 0.83557 0.36175 0.42519 0.0
C2381 C 0.83355 0.37215 0.43275 0.0
C2382 C 0.82356 0.36646 0.42643 0.0
C2383 C 0.82615 0.35606 0.41793 0.0
O2384 O 0.81902 0.33808 0.40759 0.0
O2385 O 0.81931 0.34646 0.39942 0.0
O2386 O 0.82366 0.35835 0.41177 0.0
O2387 O 0.82319 0.35006 0.42008 0.0
H2388 H 0.83481 0.34352 0.40208 0.0
H2389 H 0.84503 0.3381 0.3957 0.0
H2390 H 0.83065 0.32298 0.38578 0.0
H2391 H 0.82058 0.32834 0.39217 0.0
H2392 H 0.78455 0.34141 0.39833 0.0
H2393 H 0.79727 0.34294 0.4018 0.0
H2394 H 0.77827 0.35625 0.41482 0.0
H2395 H 0.79084 0.35775 0.41827 0.0
H2396 H 0.82252 0.37571 0.43331 0.0
H2397 H 0.84386 0.36722 0.43091 0.0
H2398 H 0.83932 0.35798 0.42288 0.0
H2399 H 0.81791 0.36635 0.4251 0.0
C2400 C 0.93592 0.44547 0.87409 0.0
C2401 C 0.93317 0.43853 0.8732 0.0
C2402 C 0.9421 0.43376 0.88153 0.0
C2403 C 0.93622 0.43274 0.8769 0.0
C2404 C 0.94494 0.44069 0.88223 0.0
C2405 C 0.94186 0.44646 0.87858 0.0
U2406 U 0.92292 0.45581 0.86126 0.0
O2407 O 0.91661 0.46543 0.86386 0.0
O2408 O 0.92495 0.46597 0.85559 0.0
C2409 C 0.92005 0.46947 0.85925 0.0
C2410 C 0.93254 0.45185 0.87082 0.0
C2411 C 0.92171 0.47691 0.86142 0.0
C2412 C 0.9264 0.4859 0.86966 0.0
C2413 C 0.92544 0.47867 0.86772 0.0
C2414 C 0.9201 0.48959 0.85897 0.0
C2415 C 0.92371 0.49143 0.8653 0.0
C2416 C 0.9191 0.48243 0.85708 0.0
C2417 C 0.91078 0.44378 0.84841 0.0
C2418 C 0.90049 0.44592 0.84059 0.0
C2419 C 0.90508 0.43392 0.84212 0.0
C2420 C 0.9104 0.4365 0.84668 0.0
C2421 C 0.9 0.43854 0.8391 0.0
C2422 C 0.90585 0.44853 0.84525 0.0
C2423 C 0.91617 0.44589 0.85385 0.0
O2424 O 0.93413 0.45327 0.86412 0.0
O2425 O 0.92575 0.45295 0.87233 0.0
O2426 O 0.91385 0.44836 0.86002 0.0
O2427 O 0.92217 0.44887 0.85171 0.0
H2428 H 0.9286 0.43762 0.86974 0.0
H2429 H 0.93398 0.42745 0.87616 0.0
H2430 H 0.94942 0.44168 0.88577 0.0
H2431 H 0.94406 0.45176 0.87938 0.0
H2432 H 0.92924 0.48716 0.87456 0.0
H2433 H 0.92752 0.4745 0.87115 0.0
H2434 H 0.91787 0.4937 0.85555 0.0
H2435 H 0.91615 0.48121 0.85224 0.0
H2436 H 0.8966 0.44959 0.83834 0.0
H2437 H 0.90481 0.42822 0.84109 0.0
H2438 H 0.91412 0.43274 0.84905 0.0
H2439 H 0.90603 0.45418 0.84651 0.0
C2440 C 0.82669 0.68468 0.12409 0.0
C2441 C 0.83365 0.68196 0.12317 0.0
C2442 C 0.83844 0.69086 0.13152 0.0
C2443 C 0.83947 0.68501 0.12686 0.0
C2444 C 0.83148 0.69366 0.13226 0.0
C2445 C 0.82569 0.69059 0.12861 0.0
U2446 U 0.81629 0.67173 0.11125 0.0
O2447 O 0.80666 0.66539 0.1138 0.0
O2448 O 0.80607 0.67382 0.10566 0.0
C2449 C 0.80259 0.66886 0.10923 0.0
C2450 C 0.82028 0.68131 0.12082 0.0
C2451 C 0.79508 0.67035 0.11139 0.0
C2452 C 0.78588 0.67635 0.11853 0.0
C2453 C 0.79314 0.67545 0.11659 0.0
C2454 C 0.78249 0.66714 0.11011 0.0
C2455 C 0.7805 0.67211 0.11536 0.0
C2456 C 0.78966 0.6663 0.10813 0.0
C2457 C 0.82836 0.65956 0.09843 0.0
C2458 C 0.82619 0.64921 0.09072 0.0
C2459 C 0.83818 0.65398 0.09191 0.0
C2460 C 0.83562 0.65926 0.09653 0.0
C2461 C 0.83354 0.64886 0.089 0.0
C2462 C 0.8236 0.65454 0.09543 0.0
C2463 C 0.82626 0.66496 0.10387 0.0
O2464 O 0.81886 0.6829 0.11412 0.0
O2465 O 0.81917 0.67454 0.12232 0.0
O2466 O 0.82377 0.66267 0.11003 0.0
O2467 O 0.82327 0.67094 0.10171 0.0
H2468 H 0.83457 0.67742 0.11968 0.0
H2469 H 0.84477 0.6828 0.12608 0.0
H2470 H 0.83047 0.69811 0.13583 0.0
H2471 H 0.82037 0.69276 0.12944 0.0
H2472 H 0.78448 0.6802 0.12263 0.0
H2473 H 0.79722 0.67864 0.11919 0.0
H2474 H 0.77846 0.66382 0.10756 0.0
H2475 H 0.79101 0.66236 0.10409 0.0
H2476 H 0.82251 0.64528 0.08858 0.0
H2477 H 0.84386 0.65379 0.09072 0.0
H2478 H 0.8394 0.66304 0.0988 0.0
H2479 H 0.81797 0.65465 0.09682 0.0
C2480 C 0.58779 0.57532 0.37423 0.0
C2481 C 0.58867 0.58225 0.37147 0.0
C2482 C 0.58173 0.58731 0.38146 0.0
C2483 C 0.58563 0.58818 0.37502 0.0
C2484 C 0.58094 0.5803 0.38413 0.0
C2485 C 0.58385 0.57442 0.38053 0.0
U2486 U 0.60047 0.56486 0.36123 0.0
O2487 O 0.60685 0.55527 0.36372 0.0
O2488 O 0.59837 0.55471 0.35559 0.0
C2489 C 0.60335 0.55124 0.35914 0.0
C2490 C 0.59102 0.56889 0.37091 0.0
C2491 C 0.60179 0.5438 0.36131 0.0
C2492 C 0.59663 0.53475 0.36919 0.0
C2493 C 0.59764 0.54199 0.36733 0.0
C2494 C 0.60381 0.53117 0.35901 0.0
C2495 C 0.59971 0.52927 0.36502 0.0
C2496 C 0.60483 0.53833 0.3572 0.0
C2497 C 0.61234 0.57692 0.34821 0.0
C2498 C 0.62339 0.57541 0.34134 0.0
C2499 C 0.61725 0.58681 0.34136 0.0
C2500 C 0.61192 0.58397 0.34575 0.0
C2501 C 0.62313 0.58265 0.33925 0.0
C2502 C 0.61804 0.57256 0.34585 0.0
C2503 C 0.60709 0.57478 0.35374 0.0
O2504 O 0.58933 0.56748 0.36423 0.0
O2505 O 0.5978 0.56768 0.37236 0.0
O2506 O 0.60953 0.57228 0.35985 0.0
O2507 O 0.60104 0.57183 0.35169 0.0
H2508 H 0.5917 0.58308 0.3666 0.0
H2509 H 0.58631 0.59341 0.37266 0.0
H2510 H 0.5782 0.57926 0.38912 0.0
H2511 H 0.58313 0.56913 0.38278 0.0
H2512 H 0.59343 0.53345 0.37384 0.0
H2513 H 0.59524 0.54614 0.37059 0.0
H2514 H 0.60638 0.52711 0.35577 0.0
H2515 H 0.60811 0.5396 0.35258 0.0
H2516 H 0.6279 0.5721 0.33979 0.0
H2517 H 0.61691 0.59238 0.33982 0.0
H2518 H 0.6076 0.58743 0.34749 0.0
H2519 H 0.61847 0.56709 0.34769 0.0
C2520 C 0.69682 0.33641 0.62398 0.0
C2521 C 0.68983 0.33902 0.62295 0.0
C2522 C 0.68514 0.3302 0.63143 0.0
C2523 C 0.68404 0.33594 0.62666 0.0
C2524 C 0.69213 0.32753 0.63228 0.0
C2525 C 0.69788 0.3306 0.62861 0.0
U2526 U 0.70702 0.34945 0.61112 0.0
O2527 O 0.71667 0.35575 0.61367 0.0
O2528 O 0.71718 0.34743 0.6054 0.0
C2529 C 0.7207 0.35231 0.60905 0.0
C2530 C 0.70317 0.33981 0.62068 0.0
C2531 C 0.72814 0.3506 0.61124 0.0
C2532 C 0.73705 0.34574 0.61948 0.0
C2533 C 0.72984 0.34672 0.61746 0.0
C2534 C 0.74088 0.35228 0.60898 0.0
C2535 C 0.74263 0.34856 0.61525 0.0
C2536 C 0.73373 0.35332 0.60703 0.0
C2537 C 0.69497 0.36158 0.59833 0.0
C2538 C 0.69714 0.37205 0.5908 0.0
C2539 C 0.68524 0.36697 0.59152 0.0
C2540 C 0.68777 0.36172 0.5962 0.0
C2541 C 0.68985 0.37223 0.58882 0.0
C2542 C 0.6997 0.36674 0.59553 0.0
C2543 C 0.69701 0.35619 0.6038 0.0
O2544 O 0.70454 0.33825 0.61396 0.0
O2545 O 0.70425 0.34658 0.62221 0.0
O2546 O 0.69954 0.3585 0.60995 0.0
O2547 O 0.69998 0.35019 0.60165 0.0
H2548 H 0.68887 0.34348 0.61939 0.0
H2549 H 0.67871 0.33806 0.6258 0.0
H2550 H 0.69319 0.32316 0.63594 0.0
H2551 H 0.70323 0.32853 0.6295 0.0
H2552 H 0.73828 0.34283 0.62433 0.0
H2553 H 0.72561 0.34456 0.6208 0.0
H2554 H 0.74506 0.35457 0.60568 0.0
H2555 H 0.73255 0.35637 0.60225 0.0
H2556 H 0.70079 0.37609 0.58881 0.0
H2557 H 0.6796 0.36703 0.59014 0.0
H2558 H 0.68401 0.35784 0.59831 0.0
H2559 H 0.70528 0.36675 0.5971 0.0
C2560 C 0.64857 0.93456 0.57583 0.0
C2561 C 0.64965 0.93197 0.58281 0.0
C2562 C 0.64114 0.94075 0.58755 0.0
C2563 C 0.64596 0.93503 0.58861 0.0
C2564 C 0.64024 0.94341 0.58057 0.0
C2565 C 0.6439 0.94034 0.5748 0.0
U2566 U 0.66136 0.92152 0.56546 0.0
O2567 O 0.65878 0.91532 0.55576 0.0
O2568 O 0.66701 0.92369 0.55529 0.0
C2569 C 0.6634 0.91879 0.55176 0.0
C2570 C 0.65186 0.93117 0.56946 0.0
C2571 C 0.66132 0.92033 0.54426 0.0
C2572 C 0.6542 0.92627 0.53501 0.0
C2573 C 0.6561 0.9254 0.54228 0.0
C2574 C 0.66271 0.91709 0.53172 0.0
C2575 C 0.65741 0.922 0.52968 0.0
C2576 C 0.66464 0.91628 0.53889 0.0
C2577 C 0.6741 0.90923 0.57758 0.0
C2578 C 0.68125 0.89836 0.57601 0.0
C2579 C 0.68143 0.90463 0.58733 0.0
C2580 C 0.67666 0.9097 0.58461 0.0
C2581 C 0.68378 0.89887 0.58311 0.0
C2582 C 0.67646 0.90353 0.57324 0.0
C2583 C 0.66865 0.91459 0.57536 0.0
O2584 O 0.65859 0.9327 0.5681 0.0
O2585 O 0.65029 0.92442 0.56832 0.0
O2586 O 0.66252 0.91232 0.57277 0.0
O2587 O 0.67084 0.92062 0.5725 0.0
H2588 H 0.65326 0.92753 0.58375 0.0
H2589 H 0.64687 0.93293 0.59393 0.0
H2590 H 0.63655 0.94776 0.57952 0.0
H2591 H 0.64297 0.94241 0.56946 0.0
H2592 H 0.65008 0.93009 0.53359 0.0
H2593 H 0.65345 0.92859 0.54633 0.0
H2594 H 0.66534 0.91378 0.52775 0.0
H2595 H 0.66869 0.91237 0.54027 0.0
H2596 H 0.68297 0.89399 0.57262 0.0
H2597 H 0.68314 0.90512 0.59284 0.0
H2598 H 0.67486 0.91397 0.58809 0.0
H2599 H 0.67454 0.90303 0.5678 0.0
C2600 C 0.14827 0.5864 0.44601 0.0
C2601 C 0.14971 0.58877 0.43902 0.0
C2602 C 0.14099 0.58025 0.43417 0.0
C2603 C 0.1461 0.58572 0.43315 0.0
C2604 C 0.13972 0.57782 0.44118 0.0
C2605 C 0.14331 0.58086 0.447 0.0
U2606 U 0.1611 0.59917 0.45667 0.0
O2607 O 0.1585 0.6053 0.46639 0.0
O2608 O 0.16666 0.59683 0.46683 0.0
C2609 C 0.1631 0.60176 0.47036 0.0
C2610 C 0.1515 0.58972 0.45244 0.0
C2611 C 0.1611 0.60027 0.47788 0.0
C2612 C 0.1535 0.59521 0.48724 0.0
C2613 C 0.1553 0.59593 0.47993 0.0
C2614 C 0.1634 0.60294 0.49039 0.0
C2615 C 0.15745 0.59886 0.49254 0.0
C2616 C 0.16516 0.60365 0.48318 0.0
C2617 C 0.17442 0.61107 0.44481 0.0
C2618 C 0.18049 0.62267 0.44527 0.0
C2619 C 0.18229 0.6148 0.43516 0.0
C2620 C 0.17782 0.60972 0.43828 0.0
C2621 C 0.18346 0.62147 0.43842 0.0
C2622 C 0.17594 0.61751 0.44843 0.0
C2623 C 0.16877 0.60594 0.44699 0.0
O2624 O 0.15817 0.58806 0.45394 0.0
O2625 O 0.15003 0.5965 0.45357 0.0
O2626 O 0.16267 0.60841 0.4495 0.0
O2627 O 0.1707 0.59979 0.44977 0.0
H2628 H 0.15355 0.59302 0.43812 0.0
H2629 H 0.14731 0.58764 0.42782 0.0
H2630 H 0.13579 0.57369 0.44221 0.0
H2631 H 0.1421 0.57896 0.45234 0.0
H2632 H 0.14889 0.59201 0.48871 0.0
H2633 H 0.1521 0.59324 0.47592 0.0
H2634 H 0.16669 0.60568 0.49429 0.0
H2635 H 0.16968 0.60698 0.48173 0.0
H2636 H 0.18134 0.62771 0.44797 0.0
H2637 H 0.18462 0.61359 0.42999 0.0
H2638 H 0.17676 0.60481 0.43539 0.0
H2639 H 0.17341 0.61867 0.45352 0.0
C2640 C 0.68585 0.89706 0.69572 0.0
C2641 C 0.68365 0.89864 0.6887 0.0
C2642 C 0.69199 0.8897 0.68389 0.0
C2643 C 0.6867 0.89499 0.68284 0.0
C2644 C 0.6942 0.88824 0.69095 0.0
C2645 C 0.69117 0.89187 0.69676 0.0
U2646 U 0.67301 0.90999 0.70618 0.0
O2647 O 0.66677 0.90742 0.71586 0.0
O2648 O 0.67515 0.91565 0.71633 0.0
C2649 C 0.67024 0.91206 0.71985 0.0
C2650 C 0.68254 0.90038 0.70212 0.0
C2651 C 0.67176 0.91007 0.72737 0.0
C2652 C 0.6764 0.90217 0.7367 0.0
C2653 C 0.67566 0.90395 0.7294 0.0
C2654 C 0.66959 0.91269 0.73991 0.0
C2655 C 0.6732 0.90645 0.74205 0.0
C2656 C 0.66885 0.91444 0.7327 0.0
C2657 C 0.66084 0.92285 0.69419 0.0
C2658 C 0.65051 0.93063 0.69631 0.0
C2659 C 0.65512 0.9291 0.6843 0.0
C2660 C 0.66046 0.92457 0.68691 0.0
C2661 C 0.65003 0.9321 0.68892 0.0
C2662 C 0.65588 0.92599 0.69894 0.0
C2663 C 0.66621 0.9174 0.6963 0.0
O2664 O 0.68417 0.90707 0.70351 0.0
O2665 O 0.67576 0.89891 0.7033 0.0
O2666 O 0.66389 0.91126 0.6988 0.0
O2667 O 0.67223 0.91954 0.69925 0.0
H2668 H 0.67956 0.90263 0.68776 0.0
H2669 H 0.68493 0.89634 0.6775 0.0
H2670 H 0.69817 0.88416 0.69202 0.0
H2671 H 0.69293 0.89053 0.70212 0.0
H2672 H 0.67924 0.89733 0.73814 0.0
H2673 H 0.678 0.90051 0.72537 0.0
H2674 H 0.66722 0.91625 0.74383 0.0
H2675 H 0.66586 0.9192 0.73127 0.0
H2676 H 0.64661 0.93286 0.69997 0.0
H2677 H 0.65486 0.93013 0.6786 0.0
H2678 H 0.6642 0.92222 0.68315 0.0
H2679 H 0.65606 0.92474 0.70459 0.0
C2680 C 0.37489 0.43462 0.94621 0.0
C2681 C 0.37342 0.43229 0.93921 0.0
C2682 C 0.38226 0.4407 0.93443 0.0
C2683 C 0.37709 0.43531 0.93337 0.0
C2684 C 0.38355 0.44311 0.94144 0.0
C2685 C 0.37991 0.4401 0.94724 0.0
U2686 U 0.36219 0.42156 0.95662 0.0
O2687 O 0.36484 0.41543 0.96634 0.0
O2688 O 0.35651 0.42372 0.96676 0.0
C2689 C 0.36017 0.41887 0.97031 0.0
C2690 C 0.37161 0.43128 0.95259 0.0
C2691 C 0.36219 0.42043 0.97782 0.0
C2692 C 0.36947 0.42612 0.98711 0.0
C2693 C 0.36759 0.4253 0.97983 0.0
C2694 C 0.3605 0.41736 0.99035 0.0
C2695 C 0.36603 0.42201 0.99244 0.0
C2696 C 0.35863 0.41659 0.98317 0.0
C2697 C 0.34974 0.40914 0.94423 0.0
C2698 C 0.34143 0.39911 0.94572 0.0
C2699 C 0.34355 0.40408 0.93397 0.0
C2700 C 0.34831 0.40902 0.93689 0.0
C2701 C 0.33996 0.39908 0.9383 0.0
C2702 C 0.34628 0.40413 0.94868 0.0
C2703 C 0.35503 0.41452 0.94673 0.0
O2704 O 0.36485 0.43274 0.95391 0.0
O2705 O 0.37325 0.42455 0.95379 0.0
O2706 O 0.36118 0.41232 0.94934 0.0
O2707 O 0.35271 0.4205 0.94961 0.0
H2708 H 0.36954 0.42809 0.93828 0.0
H2709 H 0.37587 0.43342 0.92803 0.0
H2710 H 0.38754 0.44719 0.94248 0.0
H2711 H 0.38114 0.44196 0.95259 0.0
H2712 H 0.37375 0.42975 0.98855 0.0
H2713 H 0.37041 0.42835 0.97579 0.0
H2714 H 0.35766 0.41421 0.9943 0.0
H2715 H 0.35443 0.41284 0.98177 0.0
H2716 H 0.33879 0.39533 0.94922 0.0
H2717 H 0.34277 0.40413 0.92823 0.0
H2718 H 0.35096 0.41276 0.93334 0.0
H2719 H 0.34733 0.40408 0.95438 0.0
C2720 C 0.33776 0.62395 0.69584 0.0
C2721 C 0.33873 0.6213 0.68887 0.0
C2722 C 0.3316 0.6312 0.68387 0.0
C2723 C 0.33566 0.62487 0.68295 0.0
C2724 C 0.33073 0.63377 0.69092 0.0
C2725 C 0.33369 0.63017 0.69678 0.0
U2726 U 0.35039 0.61092 0.70647 0.0
O2727 O 0.35671 0.61343 0.71611 0.0
O2728 O 0.34823 0.60533 0.71666 0.0
C2729 C 0.35319 0.60888 0.72015 0.0
C2730 C 0.34098 0.6206 0.7023 0.0
C2731 C 0.35161 0.61108 0.72762 0.0
C2732 C 0.34698 0.61936 0.73661 0.0
C2733 C 0.34789 0.61738 0.72938 0.0
C2734 C 0.3533 0.6087 0.74032 0.0
C2735 C 0.34969 0.61503 0.74215 0.0
C2736 C 0.35426 0.60677 0.73315 0.0
C2737 C 0.36239 0.59794 0.69442 0.0
C2738 C 0.3732 0.59075 0.69612 0.0
C2739 C 0.36757 0.59137 0.68447 0.0
C2740 C 0.36224 0.59578 0.68725 0.0
C2741 C 0.3732 0.58892 0.6888 0.0
C2742 C 0.36783 0.59529 0.69892 0.0
C2743 C 0.3571 0.60344 0.69659 0.0
O2744 O 0.33928 0.61392 0.70371 0.0
O2745 O 0.34775 0.62204 0.70356 0.0
O2746 O 0.35951 0.60955 0.6991 0.0
O2747 O 0.35105 0.60136 0.69953 0.0
H2748 H 0.34186 0.61651 0.688 0.0
H2749 H 0.33643 0.62259 0.67769 0.0
H2750 H 0.32787 0.63868 0.69199 0.0
H2751 H 0.33288 0.63234 0.70209 0.0
H2752 H 0.34414 0.62426 0.73787 0.0
H2753 H 0.34579 0.6208 0.7252 0.0
H2754 H 0.35553 0.60529 0.74444 0.0
H2755 H 0.3572 0.60192 0.73193 0.0
H2756 H 0.3775 0.58894 0.69957 0.0
H2757 H 0.36744 0.59004 0.67883 0.0
H2758 H 0.35811 0.59776 0.68369 0.0
H2759 H 0.36806 0.59689 0.70448 0.0
C2760 C 0.87506 0.08644 0.07598 0.0
C2761 C 0.8729 0.08788 0.08304 0.0
C2762 C 0.88227 0.07995 0.08765 0.0
C2763 C 0.87645 0.08461 0.08883 0.0
C2764 C 0.88433 0.07848 0.08057 0.0
C2765 C 0.88074 0.08166 0.07482 0.0
U2766 U 0.86209 0.09943 0.06564 0.0
O2767 O 0.86469 0.10563 0.05594 0.0
O2768 O 0.85652 0.0972 0.05545 0.0
C2769 C 0.86011 0.10212 0.05193 0.0
C2770 C 0.87169 0.08987 0.06967 0.0
C2771 C 0.86217 0.10062 0.0444 0.0
C2772 C 0.86952 0.09508 0.03506 0.0
C2773 C 0.86765 0.09586 0.04236 0.0
C2774 C 0.86036 0.10365 0.03186 0.0
C2775 C 0.86597 0.0991 0.02973 0.0
C2776 C 0.85851 0.1044 0.03906 0.0
C2777 C 0.84914 0.11166 0.07756 0.0
C2778 C 0.84173 0.12227 0.07552 0.0
C2779 C 0.84214 0.11687 0.08727 0.0
C2780 C 0.84685 0.11165 0.08471 0.0
C2781 C 0.83958 0.12227 0.08275 0.0
C2782 C 0.84648 0.11697 0.07292 0.0
C2783 C 0.85464 0.10629 0.07549 0.0
O2784 O 0.86497 0.08829 0.06831 0.0
O2785 O 0.87319 0.09664 0.06857 0.0
O2786 O 0.8608 0.10859 0.07297 0.0
O2787 O 0.85253 0.10025 0.07259 0.0
H2788 H 0.86854 0.09156 0.08408 0.0
H2789 H 0.87477 0.08586 0.09424 0.0
H2790 H 0.88873 0.07486 0.07949 0.0
H2791 H 0.88246 0.08044 0.06942 0.0
H2792 H 0.87386 0.09152 0.03362 0.0
H2793 H 0.87055 0.09286 0.04638 0.0
H2794 H 0.8574 0.10672 0.02794 0.0
H2795 H 0.85425 0.10806 0.04048 0.0
H2796 H 0.83985 0.12641 0.07193 0.0
H2797 H 0.84064 0.1168 0.09287 0.0
H2798 H 0.84887 0.10767 0.08841 0.0
H2799 H 0.84817 0.11712 0.06738 0.0
C2800 C 0.68591 0.12382 0.82595 0.0
C2801 C 0.68351 0.12243 0.83294 0.0
C2802 C 0.69199 0.13122 0.83778 0.0
C2803 C 0.68653 0.1261 0.8388 0.0
C2804 C 0.69442 0.13246 0.83076 0.0
C2805 C 0.69142 0.12881 0.82494 0.0
U2806 U 0.67309 0.11091 0.81544 0.0
O2807 O 0.66684 0.1135 0.80578 0.0
O2808 O 0.67528 0.10532 0.80526 0.0
C2809 C 0.67033 0.1089 0.80177 0.0
C2810 C 0.6826 0.12052 0.81954 0.0
C2811 C 0.67181 0.11092 0.79425 0.0
C2812 C 0.67676 0.11863 0.78492 0.0
C2813 C 0.67603 0.11682 0.79222 0.0
C2814 C 0.66928 0.10857 0.78172 0.0
C2815 C 0.67323 0.1146 0.77959 0.0
C2816 C 0.66856 0.10679 0.78893 0.0
C2817 C 0.66097 0.098 0.82746 0.0
C2818 C 0.65038 0.0905 0.82563 0.0
C2819 C 0.6555 0.09173 0.83746 0.0
C2820 C 0.66085 0.09615 0.83471 0.0
C2821 C 0.65013 0.08897 0.83301 0.0
C2822 C 0.65576 0.09504 0.82286 0.0
C2823 C 0.66631 0.10344 0.82527 0.0
O2824 O 0.68425 0.11384 0.81811 0.0
O2825 O 0.67581 0.12199 0.81838 0.0
O2826 O 0.66396 0.10958 0.82279 0.0
O2827 O 0.67234 0.10133 0.82232 0.0
H2828 H 0.67927 0.11859 0.83386 0.0
H2829 H 0.68459 0.12491 0.84413 0.0
H2830 H 0.69855 0.13639 0.82971 0.0
H2831 H 0.69333 0.13 0.8196 0.0
H2832 H 0.67986 0.1233 0.78348 0.0
H2833 H 0.67862 0.12007 0.79625 0.0
H2834 H 0.66664 0.10521 0.77781 0.0
H2835 H 0.66532 0.1022 0.79036 0.0
H2836 H 0.64628 0.08843 0.82209 0.0
H2837 H 0.65545 0.09062 0.84315 0.0
H2838 H 0.6648 0.09835 0.83836 0.0
H2839 H 0.65574 0.0964 0.81723 0.0
C2840 C 0.8374 0.89724 0.32607 0.0
C2841 C 0.84019 0.89812 0.333 0.0
C2842 C 0.83124 0.88983 0.33782 0.0
C2843 C 0.83715 0.89442 0.33882 0.0
C2844 C 0.82838 0.88914 0.3309 0.0
C2845 C 0.83145 0.89277 0.3251 0.0
U2846 U 0.85027 0.91004 0.31541 0.0
O2847 O 0.85653 0.90739 0.30575 0.0
O2848 O 0.84804 0.91551 0.30517 0.0
C2849 C 0.85303 0.91195 0.3017 0.0
C2850 C 0.84075 0.9005 0.31963 0.0
C2851 C 0.85161 0.90986 0.29417 0.0
C2852 C 0.84573 0.90283 0.28483 0.0
C2853 C 0.84653 0.90469 0.29212 0.0
C2854 C 0.85502 0.91129 0.28168 0.0
C2855 C 0.85008 0.90604 0.27956 0.0
C2856 C 0.85575 0.91318 0.28887 0.0
C2857 C 0.86251 0.92284 0.32752 0.0
C2858 C 0.873 0.93051 0.32586 0.0
C2859 C 0.86813 0.92863 0.33771 0.0
C2860 C 0.86277 0.92432 0.33486 0.0
C2861 C 0.87339 0.93166 0.33331 0.0
C2862 C 0.8676 0.92605 0.32297 0.0
C2863 C 0.85714 0.91749 0.32519 0.0
O2864 O 0.83911 0.90717 0.31816 0.0
O2865 O 0.84753 0.899 0.31847 0.0
O2866 O 0.85943 0.91133 0.32273 0.0
O2867 O 0.85115 0.91968 0.32221 0.0
H2868 H 0.84477 0.90157 0.33389 0.0
H2869 H 0.83941 0.89514 0.34411 0.0
H2870 H 0.82386 0.88563 0.32993 0.0
H2871 H 0.82922 0.89197 0.31981 0.0
H2872 H 0.8419 0.89875 0.28334 0.0
H2873 H 0.84327 0.90206 0.29611 0.0
H2874 H 0.85838 0.91392 0.27776 0.0
H2875 H 0.85967 0.9172 0.29032 0.0
H2876 H 0.87698 0.93283 0.32234 0.0
H2877 H 0.86826 0.9295 0.34344 0.0
H2878 H 0.8589 0.92193 0.33846 0.0
H2879 H 0.86751 0.92499 0.31727 0.0
C2880 C 0.44546 0.37119 0.08419 0.0
C2881 C 0.43836 0.36969 0.0862 0.0
C2882 C 0.43401 0.3796 0.07882 0.0
C2883 C 0.43268 0.37388 0.08354 0.0
C2884 C 0.44109 0.38087 0.07662 0.0
C2885 C 0.44674 0.37674 0.07931 0.0
U2886 U 0.45602 0.35803 0.09691 0.0
O2887 O 0.46653 0.35301 0.09477 0.0
O2888 O 0.46543 0.36095 0.10338 0.0
C2889 C 0.46972 0.35661 0.0999 0.0
C2890 C 0.45175 0.36764 0.0875 0.0
C2891 C 0.47721 0.35895 0.09881 0.0
C2892 C 0.48654 0.36665 0.09385 0.0
C2893 C 0.4793 0.36448 0.09415 0.0
C2894 C 0.48955 0.35767 0.10268 0.0
C2895 C 0.49173 0.36334 0.09825 0.0
C2896 C 0.48242 0.35555 0.10297 0.0
C2897 C 0.44436 0.34507 0.1094 0.0
C2898 C 0.44645 0.33798 0.12021 0.0
C2899 C 0.43437 0.33976 0.11584 0.0
C2900 C 0.43702 0.34369 0.11008 0.0
C2901 C 0.439 0.33703 0.12108 0.0
C2902 C 0.44912 0.34205 0.11441 0.0
C2903 C 0.44644 0.35033 0.10383 0.0
O2904 O 0.45292 0.36905 0.09428 0.0
O2905 O 0.45309 0.36095 0.08581 0.0
O2906 O 0.44957 0.34812 0.09792 0.0
O2907 O 0.4486 0.35666 0.10596 0.0
H2908 H 0.43723 0.36542 0.08995 0.0
H2909 H 0.42725 0.37272 0.08524 0.0
H2910 H 0.4423 0.38524 0.07301 0.0
H2911 H 0.45217 0.37803 0.07772 0.0
H2912 H 0.48804 0.37102 0.09036 0.0
H2913 H 0.47536 0.36718 0.09087 0.0
H2914 H 0.49338 0.35485 0.10599 0.0
H2915 H 0.48093 0.35126 0.10658 0.0
H2916 H 0.45013 0.33592 0.12418 0.0
H2917 H 0.42863 0.33908 0.11635 0.0
H2918 H 0.43324 0.34595 0.1063 0.0
H2919 H 0.45483 0.34304 0.11399 0.0
C2920 C 0.40093 0.69455 0.83435 0.0
C2921 C 0.40264 0.68748 0.83624 0.0
C2922 C 0.39273 0.68289 0.82882 0.0
C2923 C 0.39858 0.68173 0.83352 0.0
C2924 C 0.39137 0.69 0.8267 0.0
C2925 C 0.39535 0.69571 0.82947 0.0
U2926 U 0.41395 0.70524 0.84715 0.0
O2927 O 0.41906 0.71569 0.84498 0.0
O2928 O 0.41111 0.71468 0.85359 0.0
C2929 C 0.41548 0.71893 0.85011 0.0
C2930 C 0.40442 0.7009 0.83763 0.0
C2931 C 0.41311 0.72641 0.84901 0.0
C2932 C 0.40626 0.73581 0.84303 0.0
C2933 C 0.4085 0.72861 0.84347 0.0
C2934 C 0.41322 0.73858 0.8536 0.0
C2935 C 0.40852 0.74083 0.84819 0.0
C2936 C 0.4155 0.73149 0.85397 0.0
C2937 C 0.42652 0.69322 0.85982 0.0
C2938 C 0.43428 0.69477 0.87027 0.0
C2939 C 0.4317 0.68292 0.86579 0.0
C2940 C 0.42752 0.68584 0.86037 0.0
C2941 C 0.4352 0.68728 0.87084 0.0
C2942 C 0.42995 0.69773 0.8648 0.0
C2943 C 0.4214 0.69564 0.85426 0.0
O2944 O 0.40291 0.70218 0.84437 0.0
O2945 O 0.41116 0.70222 0.83603 0.0
O2946 O 0.42376 0.69867 0.84837 0.0
O2947 O 0.41507 0.69793 0.85631 0.0
H2948 H 0.40694 0.68643 0.83997 0.0
H2949 H 0.39989 0.67641 0.83536 0.0
H2950 H 0.38718 0.69125 0.82291 0.0
H2951 H 0.39396 0.70111 0.82789 0.0
H2952 H 0.40261 0.73741 0.83882 0.0
H2953 H 0.40657 0.72478 0.83957 0.0
H2954 H 0.41511 0.74233 0.85759 0.0
H2955 H 0.41907 0.72993 0.85827 0.0
H2956 H 0.43689 0.69832 0.87404 0.0
H2957 H 0.43199 0.67715 0.86611 0.0
H2958 H 0.42486 0.68225 0.85667 0.0
H2959 H 0.42921 0.70346 0.86452 0.0
C2960 C 0.07778 0.64967 0.58423 0.0
C2961 C 0.08492 0.65173 0.58551 0.0
C2962 C 0.08923 0.64138 0.57876 0.0
C2963 C 0.09061 0.64759 0.58279 0.0
C2964 C 0.08211 0.6395 0.57731 0.0
C2965 C 0.07646 0.64359 0.58003 0.0
U2966 U 0.06732 0.66296 0.59693 0.0
O2967 O 0.05679 0.66795 0.5948 0.0
O2968 O 0.05795 0.66015 0.60351 0.0
C2969 C 0.05361 0.66441 0.59998 0.0
C2970 C 0.07153 0.6533 0.58753 0.0
C2971 C 0.04616 0.66193 0.59892 0.0
C2972 C 0.03678 0.65512 0.59287 0.0
C2973 C 0.04398 0.65737 0.59333 0.0
C2974 C 0.03397 0.66193 0.60352 0.0
C2975 C 0.03175 0.65732 0.59804 0.0
C2976 C 0.04107 0.66422 0.60393 0.0
C2977 C 0.07922 0.67567 0.60946 0.0
C2978 C 0.0773 0.68307 0.62009 0.0
C2979 C 0.08934 0.68051 0.61604 0.0
C2980 C 0.08661 0.67664 0.61029 0.0
C2981 C 0.08477 0.68361 0.62111 0.0
C2982 C 0.07452 0.67904 0.61432 0.0
C2983 C 0.07698 0.67052 0.60386 0.0
O2984 O 0.07032 0.65189 0.5943 0.0
O2985 O 0.07027 0.66001 0.58584 0.0
O2986 O 0.07382 0.67282 0.59801 0.0
O2987 O 0.07478 0.66419 0.60595 0.0
H2988 H 0.08608 0.6564 0.58873 0.0
H2989 H 0.09608 0.64916 0.58392 0.0
H2990 H 0.08092 0.63474 0.57422 0.0
H2991 H 0.07101 0.64189 0.579 0.0
H2992 H 0.03518 0.65153 0.58861 0.0
H2993 H 0.04783 0.65552 0.5894 0.0
H2994 H 0.0302 0.66374 0.60754 0.0
H2995 H 0.04262 0.66774 0.60827 0.0
H2996 H 0.07365 0.68546 0.62392 0.0
H2997 H 0.0951 0.68093 0.61662 0.0
H2998 H 0.09033 0.67411 0.60663 0.0
H2999 H 0.06878 0.67838 0.61378 0.0
C3000 C 0.12247 0.32672 0.33436 0.0
C3001 C 0.12097 0.3338 0.33639 0.0
C3002 C 0.13085 0.33818 0.32892 0.0
C3003 C 0.12514 0.33948 0.3337 0.0
C3004 C 0.1321 0.33111 0.3267 0.0
C3005 C 0.12799 0.32547 0.32941 0.0
U3006 U 0.10938 0.3162 0.34723 0.0
O3007 O 0.10429 0.30572 0.34509 0.0
O3008 O 0.11228 0.30676 0.35366 0.0
C3009 C 0.10791 0.30248 0.35019 0.0
C3010 C 0.11892 0.32044 0.33769 0.0
C3011 C 0.11024 0.29496 0.34911 0.0
C3012 C 0.1174 0.2855 0.34354 0.0
C3013 C 0.11522 0.29274 0.34389 0.0
C3014 C 0.10958 0.28272 0.35347 0.0
C3015 C 0.11469 0.28043 0.34844 0.0
C3016 C 0.10741 0.28985 0.35379 0.0
C3017 C 0.09655 0.32783 0.35993 0.0
C3018 C 0.09014 0.32584 0.37119 0.0
C3019 C 0.08988 0.3375 0.36563 0.0
C3020 C 0.09415 0.33494 0.36004 0.0
C3021 C 0.0879 0.33305 0.37133 0.0
C3022 C 0.0944 0.32323 0.3655 0.0
C3023 C 0.10183 0.32585 0.35429 0.0
O3024 O 0.12042 0.31923 0.34445 0.0
O3025 O 0.11219 0.31914 0.33609 0.0
O3026 O 0.09956 0.32281 0.34836 0.0
O3027 O 0.10816 0.32357 0.35635 0.0
H3028 H 0.11672 0.33492 0.34017 0.0
H3029 H 0.12397 0.34489 0.33542 0.0
H3030 H 0.13645 0.32991 0.32306 0.0
H3031 H 0.12927 0.32005 0.32779 0.0
H3032 H 0.12134 0.28392 0.33959 0.0
H3033 H 0.11749 0.29658 0.3402 0.0
H3034 H 0.10727 0.27897 0.35724 0.0
H3035 H 0.10355 0.29141 0.35783 0.0
H3036 H 0.08866 0.32227 0.3755 0.0
H3037 H 0.08834 0.34309 0.36562 0.0
H3038 H 0.09579 0.33862 0.35587 0.0
H3039 H 0.09618 0.31772 0.36556 0.0
C3040 C 0.44541 0.64967 0.43751 0.0
C3041 C 0.43826 0.65157 0.43608 0.0
C3042 C 0.434 0.6413 0.443 0.0
C3043 C 0.43259 0.64739 0.4388 0.0
C3044 C 0.44114 0.63959 0.44462 0.0
C3045 C 0.44677 0.64372 0.44188 0.0
U3046 U 0.45579 0.66301 0.42477 0.0
O3047 O 0.4663 0.66804 0.42691 0.0
O3048 O 0.46519 0.66021 0.41821 0.0
C3049 C 0.4695 0.6645 0.42173 0.0
C3050 C 0.45164 0.65333 0.43419 0.0
C3051 C 0.47698 0.66206 0.4228 0.0
C3052 C 0.48638 0.6551 0.42867 0.0
C3053 C 0.47916 0.65733 0.42824 0.0
C3054 C 0.48921 0.66232 0.41831 0.0
C3055 C 0.49145 0.65749 0.42361 0.0
C3056 C 0.48209 0.66456 0.41792 0.0
C3057 C 0.44412 0.67583 0.41219 0.0
C3058 C 0.44653 0.68333 0.40172 0.0
C3059 C 0.43431 0.68108 0.40538 0.0
C3060 C 0.43678 0.677 0.41113 0.0
C3061 C 0.43912 0.68418 0.40053 0.0
C3062 C 0.44903 0.67914 0.40751 0.0
C3063 C 0.44612 0.6706 0.41783 0.0
O3064 O 0.45283 0.65193 0.42741 0.0
O3065 O 0.45288 0.66005 0.43587 0.0
O3066 O 0.44925 0.67285 0.42372 0.0
O3067 O 0.44831 0.66426 0.41576 0.0
H3068 H 0.43707 0.65615 0.43274 0.0
H3069 H 0.42712 0.64885 0.43754 0.0
H3070 H 0.44237 0.63494 0.44784 0.0
H3071 H 0.45223 0.64213 0.44303 0.0
H3072 H 0.48796 0.65136 0.43281 0.0
H3073 H 0.4753 0.65532 0.43207 0.0
H3074 H 0.49298 0.66434 0.4144 0.0
H3075 H 0.48055 0.66823 0.41371 0.0
H3076 H 0.45036 0.68565 0.39803 0.0
H3077 H 0.42859 0.68163 0.40459 0.0
H3078 H 0.43288 0.67451 0.41463 0.0
H3079 H 0.45473 0.67831 0.4082 0.0
C3080 C 0.12237 0.6946 0.1875 0.0
C3081 C 0.12082 0.68753 0.18546 0.0
C3082 C 0.13066 0.68309 0.19293 0.0
C3083 C 0.12496 0.68182 0.18814 0.0
C3084 C 0.13196 0.69014 0.19517 0.0
C3085 C 0.12788 0.69581 0.19246 0.0
U3086 U 0.10932 0.7054 0.1748 0.0
O3087 O 0.1045 0.71599 0.17701 0.0
O3088 O 0.11232 0.71477 0.16832 0.0
C3089 C 0.10811 0.71915 0.17186 0.0
C3090 C 0.11891 0.70092 0.18417 0.0
C3091 C 0.1107 0.72656 0.17299 0.0
C3092 C 0.11831 0.73561 0.1786 0.0
C3093 C 0.11591 0.72846 0.1781 0.0
C3094 C 0.11031 0.73895 0.16898 0.0
C3095 C 0.11555 0.74089 0.17398 0.0
C3096 C 0.10792 0.73188 0.1685 0.0
C3097 C 0.09602 0.6938 0.1625 0.0
C3098 C 0.09013 0.69489 0.15083 0.0
C3099 C 0.08953 0.68376 0.15739 0.0
C3100 C 0.09345 0.6868 0.16297 0.0
C3101 C 0.0881 0.68762 0.15109 0.0
C3102 C 0.09413 0.69795 0.15649 0.0
C3103 C 0.10141 0.69597 0.16793 0.0
O3104 O 0.12032 0.70206 0.17738 0.0
O3105 O 0.11224 0.7024 0.18589 0.0
O3106 O 0.09932 0.69904 0.17391 0.0
O3107 O 0.10773 0.69811 0.16569 0.0
H3108 H 0.11658 0.68644 0.18166 0.0
H3109 H 0.12377 0.67643 0.18641 0.0
H3110 H 0.13632 0.69132 0.1988 0.0
H3111 H 0.12919 0.70121 0.19409 0.0
H3112 H 0.12236 0.737 0.18251 0.0
H3113 H 0.11816 0.72445 0.18163 0.0
H3114 H 0.1081 0.74291 0.16537 0.0
H3115 H 0.10392 0.73055 0.16452 0.0
H3116 H 0.08904 0.69805 0.14611 0.0
H3117 H 0.08789 0.67823 0.15789 0.0
H3118 H 0.0948 0.68349 0.16753 0.0
H3119 H 0.09602 0.70341 0.15602 0.0
C3120 C 0.07782 0.37127 0.93754 0.0
C3121 C 0.08496 0.36937 0.93605 0.0
C3122 C 0.08927 0.37959 0.94301 0.0
C3123 C 0.09065 0.37352 0.93876 0.0
C3124 C 0.08215 0.3813 0.94469 0.0
C3125 C 0.0765 0.3772 0.94196 0.0
U3126 U 0.06733 0.35804 0.92479 0.0
O3127 O 0.05683 0.35297 0.92688 0.0
O3128 O 0.05792 0.36091 0.9183 0.0
C3129 C 0.05361 0.35658 0.92177 0.0
C3130 C 0.07156 0.36766 0.93424 0.0
C3131 C 0.04619 0.35908 0.92301 0.0
C3132 C 0.03723 0.36699 0.9283 0.0
C3133 C 0.04439 0.36465 0.92775 0.0
C3134 C 0.03366 0.35817 0.91952 0.0
C3135 C 0.03183 0.36377 0.92415 0.0
C3136 C 0.04075 0.35588 0.91894 0.0
C3137 C 0.07928 0.3453 0.91227 0.0
C3138 C 0.07752 0.338 0.90154 0.0
C3139 C 0.0895 0.34041 0.90586 0.0
C3140 C 0.08667 0.34426 0.91158 0.0
C3141 C 0.08501 0.3374 0.90065 0.0
C3142 C 0.07465 0.34201 0.90729 0.0
C3143 C 0.07697 0.35046 0.91784 0.0
O3144 O 0.07035 0.36908 0.92747 0.0
O3145 O 0.07029 0.36094 0.9359 0.0
O3146 O 0.07384 0.34817 0.92371 0.0
O3147 O 0.07476 0.35679 0.91574 0.0
H3148 H 0.08612 0.36481 0.93267 0.0
H3149 H 0.09612 0.37207 0.93746 0.0
H3150 H 0.08095 0.38594 0.94794 0.0
H3151 H 0.07105 0.37879 0.94315 0.0
H3152 H 0.03591 0.37133 0.93191 0.0
H3153 H 0.0485 0.36721 0.93093 0.0
H3154 H 0.0296 0.35564 0.91624 0.0
H3155 H 0.04202 0.35162 0.91522 0.0
H3156 H 0.07393 0.33567 0.89763 0.0
H3157 H 0.09527 0.33994 0.9054 0.0
H3158 H 0.09034 0.34672 0.91534 0.0
H3159 H 0.06891 0.34272 0.90772 0.0
C3160 C 0.40108 0.32641 0.68769 0.0
C3161 C 0.40258 0.33351 0.68572 0.0
C3162 C 0.39274 0.33776 0.69328 0.0
C3163 C 0.39841 0.33914 0.68849 0.0
C3164 C 0.39152 0.3307 0.69548 0.0
C3165 C 0.39563 0.3251 0.69269 0.0
U3166 U 0.41406 0.31581 0.67474 0.0
O3167 O 0.41899 0.30526 0.67686 0.0
O3168 O 0.41098 0.30642 0.66833 0.0
C3169 C 0.41529 0.30208 0.67179 0.0
C3170 C 0.40454 0.32017 0.68424 0.0
C3171 C 0.4128 0.29465 0.67299 0.0
C3172 C 0.40479 0.28559 0.678 0.0
C3173 C 0.40703 0.29279 0.67748 0.0
C3174 C 0.4141 0.28214 0.66968 0.0
C3175 C 0.40833 0.28018 0.6741 0.0
C3176 C 0.41627 0.28925 0.66913 0.0
C3177 C 0.42738 0.32733 0.66241 0.0
C3178 C 0.43293 0.32647 0.65055 0.0
C3179 C 0.43452 0.33712 0.65768 0.0
C3180 C 0.4305 0.33409 0.66319 0.0
C3181 C 0.43551 0.33354 0.65113 0.0
C3182 C 0.42884 0.32339 0.65614 0.0
C3183 C 0.42194 0.32526 0.66784 0.0
O3184 O 0.40308 0.31912 0.67745 0.0
O3185 O 0.41124 0.31871 0.68588 0.0
O3186 O 0.42401 0.32223 0.67385 0.0
O3187 O 0.41563 0.3231 0.66562 0.0
H3188 H 0.40678 0.33466 0.6819 0.0
H3189 H 0.39951 0.34456 0.68677 0.0
H3190 H 0.38717 0.32948 0.69912 0.0
H3191 H 0.39436 0.31967 0.69425 0.0
H3192 H 0.40035 0.28423 0.68148 0.0
H3193 H 0.40424 0.29687 0.68051 0.0
H3194 H 0.41688 0.27814 0.66653 0.0
H3195 H 0.42068 0.29056 0.66558 0.0
H3196 H 0.43366 0.32349 0.64564 0.0
H3197 H 0.43661 0.34247 0.65847 0.0
H3198 H 0.42949 0.33723 0.66796 0.0
H3199 H 0.42655 0.31812 0.65543 0.0
C3200 C 0.08512 0.44438 0.37157 0.0
C3201 C 0.08668 0.43727 0.36968 0.0
C3202 C 0.07977 0.43284 0.37997 0.0
C3203 C 0.08403 0.43156 0.37385 0.0
C3204 C 0.07805 0.43997 0.38164 0.0
C3205 C 0.08069 0.44564 0.3775 0.0
U3206 U 0.09798 0.45474 0.35837 0.0
O3207 O 0.09604 0.4652 0.35318 0.0
O3208 O 0.10454 0.4641 0.36122 0.0
C3209 C 0.10113 0.46841 0.35685 0.0
C3210 C 0.08842 0.45065 0.36797 0.0
C3211 C 0.09983 0.47582 0.35935 0.0
C3212 C 0.09485 0.48468 0.36758 0.0
C3213 C 0.09545 0.47753 0.36524 0.0
C3214 C 0.10282 0.48843 0.35807 0.0
C3215 C 0.09855 0.49019 0.364 0.0
C3216 C 0.10347 0.48134 0.35581 0.0
C3217 C 0.11054 0.44297 0.34563 0.0
C3218 C 0.1211 0.44538 0.33824 0.0
C3219 C 0.11714 0.4332 0.34006 0.0
C3220 C 0.11143 0.43566 0.34423 0.0
C3221 C 0.1221 0.43799 0.33711 0.0
C3222 C 0.11534 0.44786 0.3425 0.0
C3223 C 0.10488 0.44497 0.35086 0.0
O3224 O 0.09519 0.45186 0.36944 0.0
O3225 O 0.08681 0.45191 0.36124 0.0
O3226 O 0.09901 0.44812 0.34858 0.0
O3227 O 0.10696 0.44719 0.3572 0.0
H3228 H 0.09007 0.43614 0.36512 0.0
H3229 H 0.08536 0.42614 0.37231 0.0
H3230 H 0.07485 0.44122 0.38631 0.0
H3231 H 0.07944 0.45107 0.37909 0.0
H3232 H 0.0915 0.48592 0.37215 0.0
H3233 H 0.09259 0.47336 0.36807 0.0
H3234 H 0.10578 0.49254 0.35527 0.0
H3235 H 0.10693 0.48015 0.3513 0.0
H3236 H 0.12489 0.44918 0.33606 0.0
H3237 H 0.11781 0.4275 0.33931 0.0
H3238 H 0.10783 0.43178 0.34659 0.0
H3239 H 0.11478 0.45354 0.34351 0.0
C3240 C 0.32774 0.33393 0.12149 0.0
C3241 C 0.33484 0.33594 0.12 0.0
C3242 C 0.33918 0.32848 0.12986 0.0
C3243 C 0.34051 0.33325 0.12417 0.0
C3244 C 0.3321 0.32628 0.13112 0.0
C3245 C 0.32645 0.329 0.127 0.0
U3246 U 0.31728 0.34678 0.10839 0.0
O3247 O 0.30674 0.34471 0.10338 0.0
O3248 O 0.30789 0.35332 0.11127 0.0
C3249 C 0.30355 0.34984 0.10698 0.0
C3250 C 0.32146 0.33727 0.11796 0.0
C3251 C 0.29606 0.34874 0.10947 0.0
C3252 C 0.28667 0.34266 0.1163 0.0
C3253 C 0.29388 0.34314 0.11402 0.0
C3254 C 0.28383 0.3533 0.10952 0.0
C3255 C 0.2816 0.34782 0.11412 0.0
C3256 C 0.29093 0.35373 0.10721 0.0
C3257 C 0.32907 0.35936 0.09563 0.0
C3258 C 0.32673 0.36993 0.08825 0.0
C3259 C 0.33891 0.36593 0.09012 0.0
C3260 C 0.3364 0.36024 0.09427 0.0
C3261 C 0.33414 0.3709 0.08716 0.0
C3262 C 0.32419 0.36419 0.09248 0.0
C3263 C 0.32701 0.35372 0.10084 0.0
O3264 O 0.3203 0.34403 0.11943 0.0
O3265 O 0.32015 0.33565 0.11124 0.0
O3266 O 0.32385 0.34787 0.09855 0.0
O3267 O 0.3248 0.35578 0.10719 0.0
H3268 H 0.33597 0.33972 0.11576 0.0
H3269 H 0.34594 0.33496 0.12302 0.0
H3270 H 0.33088 0.32266 0.13548 0.0
H3271 H 0.32102 0.3274 0.12828 0.0
H3272 H 0.28509 0.33839 0.11988 0.0
H3273 H 0.29774 0.33922 0.11586 0.0
H3274 H 0.28005 0.35731 0.10772 0.0
H3275 H 0.29246 0.35807 0.10369 0.0
H3276 H 0.32294 0.37372 0.08605 0.0
H3277 H 0.34464 0.36658 0.08941 0.0
H3278 H 0.34027 0.35663 0.09665 0.0
H3279 H 0.3185 0.36365 0.09346 0.0
C3280 C 0.43842 0.57687 0.87162 0.0
C3281 C 0.43663 0.58398 0.86997 0.0
C3282 C 0.44386 0.58823 0.88003 0.0
C3283 C 0.43931 0.58962 0.87418 0.0
C3284 C 0.44586 0.58114 0.88146 0.0
C3285 C 0.44313 0.57553 0.87732 0.0
U3286 U 0.4256 0.56647 0.85842 0.0
O3287 O 0.42768 0.55594 0.85348 0.0
O3288 O 0.41904 0.55715 0.86138 0.0
C3289 C 0.42252 0.55281 0.8571 0.0
C3290 C 0.43507 0.57064 0.86804 0.0
C3291 C 0.42357 0.54536 0.85955 0.0
C3292 C 0.42939 0.53591 0.86647 0.0
C3293 C 0.42885 0.54318 0.86447 0.0
C3294 C 0.41933 0.53312 0.8588 0.0
C3295 C 0.42467 0.53076 0.86356 0.0
C3296 C 0.41885 0.54027 0.85679 0.0
C3297 C 0.41302 0.57808 0.84549 0.0
C3298 C 0.40251 0.57574 0.83799 0.0
C3299 C 0.40625 0.58791 0.84026 0.0
C3300 C 0.41201 0.58541 0.84432 0.0
C3301 C 0.40134 0.58315 0.83717 0.0
C3302 C 0.40831 0.57321 0.84217 0.0
C3303 C 0.41866 0.57606 0.85073 0.0
O3304 O 0.42827 0.56952 0.86946 0.0
O3305 O 0.43674 0.56934 0.86132 0.0
O3306 O 0.42455 0.57289 0.8485 0.0
O3307 O 0.41658 0.57395 0.8571 0.0
H3308 H 0.43301 0.58514 0.8656 0.0
H3309 H 0.43777 0.59506 0.87293 0.0
H3310 H 0.44933 0.57992 0.88594 0.0
H3311 H 0.44455 0.57009 0.87872 0.0
H3312 H 0.43355 0.53432 0.87018 0.0
H3313 H 0.43253 0.54704 0.86673 0.0
H3314 H 0.41541 0.52946 0.85663 0.0
H3315 H 0.41468 0.54184 0.85307 0.0
H3316 H 0.39878 0.57195 0.83568 0.0
H3317 H 0.40549 0.59362 0.83973 0.0
H3318 H 0.41554 0.58927 0.84681 0.0
H3319 H 0.40896 0.56751 0.84299 0.0
C3320 C 0.19596 0.68723 0.62139 0.0
C3321 C 0.18886 0.68526 0.61989 0.0
C3322 C 0.18457 0.69271 0.62978 0.0
C3323 C 0.1832 0.68797 0.62407 0.0
C3324 C 0.19165 0.69489 0.63104 0.0
C3325 C 0.19727 0.69215 0.62691 0.0
U3326 U 0.20634 0.6743 0.60831 0.0
O3327 O 0.21691 0.67632 0.60333 0.0
O3328 O 0.21568 0.66771 0.61121 0.0
C3329 C 0.22007 0.67118 0.60695 0.0
C3330 C 0.20222 0.68385 0.61787 0.0
C3331 C 0.22754 0.67226 0.6095 0.0
C3332 C 0.23686 0.67813 0.6166 0.0
C3333 C 0.22967 0.67773 0.61422 0.0
C3334 C 0.23976 0.66769 0.60954 0.0
C3335 C 0.24196 0.67301 0.61436 0.0
C3336 C 0.23268 0.66734 0.60714 0.0
C3337 C 0.19442 0.66178 0.59561 0.0
C3338 C 0.19665 0.65133 0.58803 0.0
C3339 C 0.18449 0.65504 0.5905 0.0
C3340 C 0.18705 0.66076 0.59456 0.0
C3341 C 0.18922 0.65018 0.5873 0.0
C3342 C 0.19925 0.65708 0.59221 0.0
C3343 C 0.19656 0.66743 0.60078 0.0
O3344 O 0.20334 0.67708 0.61934 0.0
O3345 O 0.20354 0.68545 0.61114 0.0
O3346 O 0.19979 0.67323 0.59846 0.0
O3347 O 0.19875 0.66537 0.60713 0.0
H3348 H 0.18771 0.68148 0.61565 0.0
H3349 H 0.17777 0.68626 0.62294 0.0
H3350 H 0.19288 0.69847 0.63542 0.0
H3351 H 0.20271 0.69371 0.62819 0.0
H3352 H 0.23839 0.6823 0.62032 0.0
H3353 H 0.2258 0.6816 0.61613 0.0
H3354 H 0.24355 0.66374 0.60762 0.0
H3355 H 0.23119 0.6631 0.60348 0.0
H3356 H 0.20042 0.64762 0.58564 0.0
H3357 H 0.17875 0.65428 0.59004 0.0
H3358 H 0.18322 0.66428 0.59713 0.0
H3359 H 0.20497 0.65774 0.59294 0.0
C3360 C 0.08508 0.57647 0.15024 0.0
C3361 C 0.08704 0.58354 0.15186 0.0
C3362 C 0.07971 0.58799 0.14192 0.0
C3363 C 0.08437 0.58925 0.14773 0.0
C3364 C 0.07757 0.58092 0.14053 0.0
C3365 C 0.08024 0.57525 0.14463 0.0
U3366 U 0.09776 0.56575 0.16337 0.0
O3367 O 0.09561 0.55517 0.1682 0.0
O3368 O 0.10433 0.55642 0.16042 0.0
C3369 C 0.1008 0.55203 0.16462 0.0
C3370 C 0.08837 0.57015 0.15375 0.0
C3371 C 0.09971 0.5446 0.16202 0.0
C3372 C 0.0938 0.53542 0.15481 0.0
C3373 C 0.09429 0.54258 0.15719 0.0
C3374 C 0.10408 0.53232 0.16206 0.0
C3375 C 0.09876 0.53026 0.15719 0.0
C3376 C 0.10453 0.53939 0.16445 0.0
C3377 C 0.11016 0.57752 0.17639 0.0
C3378 C 0.12116 0.57569 0.1833 0.0
C3379 C 0.11638 0.58761 0.18175 0.0
C3380 C 0.11063 0.58484 0.17787 0.0
C3381 C 0.12183 0.58313 0.18433 0.0
C3382 C 0.11538 0.57289 0.17928 0.0
C3383 C 0.10462 0.57531 0.17113 0.0
O3384 O 0.09516 0.56897 0.15235 0.0
O3385 O 0.08665 0.56873 0.16042 0.0
O3386 O 0.09873 0.57214 0.17333 0.0
O3387 O 0.10679 0.57317 0.1648 0.0
H3388 H 0.09075 0.58463 0.15618 0.0
H3389 H 0.08603 0.59465 0.14901 0.0
H3390 H 0.07404 0.57973 0.13609 0.0
H3391 H 0.07868 0.56984 0.14325 0.0
H3392 H 0.08965 0.53395 0.15104 0.0
H3393 H 0.09051 0.5465 0.15521 0.0
H3394 H 0.10794 0.52845 0.16399 0.0
H3395 H 0.10874 0.54081 0.16818 0.0
H3396 H 0.12528 0.57211 0.18525 0.0
H3397 H 0.11672 0.59334 0.18249 0.0
H3398 H 0.1067 0.58851 0.1757 0.0
H3399 H 0.11513 0.5672 0.17821 0.0
C3400 C 0.19581 0.3337 0.90038 0.0
C3401 C 0.18868 0.33564 0.90182 0.0
C3402 C 0.1845 0.32803 0.892 0.0
C3403 C 0.18307 0.33285 0.89763 0.0
C3404 C 0.1916 0.32589 0.89081 0.0
C3405 C 0.19718 0.32872 0.89493 0.0
U3406 U 0.20628 0.34667 0.91343 0.0
O3407 O 0.21686 0.34459 0.91835 0.0
O3408 O 0.21565 0.35319 0.91045 0.0
C3409 C 0.22002 0.34972 0.91472 0.0
C3410 C 0.20204 0.33713 0.90391 0.0
C3411 C 0.22752 0.34867 0.91223 0.0
C3412 C 0.23694 0.34285 0.90519 0.0
C3413 C 0.22972 0.34322 0.9075 0.0
C3414 C 0.23973 0.35326 0.91233 0.0
C3415 C 0.24199 0.34798 0.90749 0.0
C3416 C 0.23263 0.35359 0.91466 0.0
C3417 C 0.19446 0.35926 0.92622 0.0
C3418 C 0.19668 0.36973 0.93377 0.0
C3419 C 0.18452 0.36594 0.93141 0.0
C3420 C 0.18709 0.36024 0.92732 0.0
C3421 C 0.18925 0.37083 0.93458 0.0
C3422 C 0.19928 0.36399 0.92958 0.0
C3423 C 0.19659 0.35362 0.92103 0.0
O3424 O 0.20315 0.3439 0.90242 0.0
O3425 O 0.2034 0.33553 0.91063 0.0
O3426 O 0.1998 0.34779 0.92332 0.0
O3427 O 0.19876 0.35567 0.91466 0.0
H3428 H 0.18748 0.33947 0.906 0.0
H3429 H 0.17762 0.33455 0.89869 0.0
H3430 H 0.19287 0.32226 0.88647 0.0
H3431 H 0.20264 0.32718 0.89368 0.0
H3432 H 0.23852 0.33871 0.90146 0.0
H3433 H 0.22588 0.33935 0.90554 0.0
H3434 H 0.24348 0.35722 0.9143 0.0
H3435 H 0.23109 0.3578 0.91832 0.0
H3436 H 0.20044 0.37345 0.93614 0.0
H3437 H 0.17878 0.36667 0.93192 0.0
H3438 H 0.18326 0.3567 0.92479 0.0
H3439 H 0.205 0.36337 0.9288 0.0
C3440 C 0.43827 0.44439 0.65 0.0
C3441 C 0.43734 0.43728 0.65225 0.0
C3442 C 0.44393 0.43292 0.64172 0.0
C3443 C 0.44017 0.4316 0.64815 0.0
C3444 C 0.44504 0.44008 0.6397 0.0
C3445 C 0.44224 0.44571 0.64377 0.0
U3446 U 0.42556 0.45493 0.66334 0.0
O3447 O 0.42775 0.46543 0.66833 0.0
O3448 O 0.41905 0.46433 0.66051 0.0
C3449 C 0.42258 0.46863 0.66479 0.0
C3450 C 0.43495 0.45062 0.65367 0.0
C3451 C 0.42372 0.47607 0.6623 0.0
C3452 C 0.4296 0.48526 0.6551 0.0
C3453 C 0.42908 0.47809 0.6574 0.0
C3454 C 0.41948 0.48838 0.66258 0.0
C3455 C 0.42474 0.49043 0.65764 0.0
C3456 C 0.41899 0.4813 0.66488 0.0
C3457 C 0.41303 0.443 0.6761 0.0
C3458 C 0.40233 0.44474 0.68348 0.0
C3459 C 0.40659 0.43279 0.68093 0.0
C3460 C 0.41231 0.43562 0.67706 0.0
C3461 C 0.40142 0.43726 0.68402 0.0
C3462 C 0.40808 0.44761 0.67946 0.0
C3463 C 0.41859 0.44533 0.67093 0.0
O3464 O 0.42817 0.45187 0.65226 0.0
O3465 O 0.43665 0.45189 0.66038 0.0
O3466 O 0.42448 0.44844 0.67322 0.0
O3467 O 0.41648 0.44755 0.66461 0.0
H3468 H 0.4343 0.43611 0.65704 0.0
H3469 H 0.43917 0.42617 0.6499 0.0
H3470 H 0.44805 0.44138 0.63493 0.0
H3471 H 0.44307 0.45114 0.64195 0.0
H3472 H 0.43368 0.48673 0.65126 0.0
H3473 H 0.43277 0.47414 0.6553 0.0
H3474 H 0.41568 0.49227 0.6646 0.0
H3475 H 0.41482 0.47988 0.66865 0.0
H3476 H 0.39844 0.44832 0.68587 0.0
H3477 H 0.4061 0.42703 0.68135 0.0
H3478 H 0.41605 0.43196 0.67455 0.0
H3479 H 0.40853 0.45334 0.6788 0.0
C3480 C 0.32783 0.68708 0.40025 0.0
C3481 C 0.33493 0.68509 0.40176 0.0
C3482 C 0.33929 0.69251 0.39187 0.0
C3483 C 0.34061 0.68777 0.39759 0.0
C3484 C 0.3322 0.6947 0.3906 0.0
C3485 C 0.32655 0.692 0.39472 0.0
U3486 U 0.31745 0.67419 0.41334 0.0
O3487 O 0.30697 0.67626 0.41848 0.0
O3488 O 0.30804 0.66767 0.41054 0.0
C3489 C 0.30375 0.67114 0.4149 0.0
C3490 C 0.32155 0.68375 0.40379 0.0
C3491 C 0.29627 0.67226 0.41248 0.0
C3492 C 0.28687 0.67828 0.40564 0.0
C3493 C 0.29409 0.67781 0.40788 0.0
C3494 C 0.28406 0.66773 0.41259 0.0
C3495 C 0.28182 0.67315 0.4079 0.0
C3496 C 0.29116 0.66732 0.41485 0.0
C3497 C 0.32914 0.66155 0.42607 0.0
C3498 C 0.32715 0.65028 0.43242 0.0
C3499 C 0.33881 0.6559 0.43276 0.0
C3500 C 0.33624 0.66148 0.42851 0.0
C3501 C 0.33436 0.65017 0.43471 0.0
C3502 C 0.32454 0.65595 0.42815 0.0
C3503 C 0.32719 0.66719 0.42081 0.0
O3504 O 0.32037 0.67699 0.40229 0.0
O3505 O 0.32028 0.68533 0.41052 0.0
O3506 O 0.32414 0.67311 0.42308 0.0
O3507 O 0.3249 0.66513 0.41449 0.0
H3508 H 0.33605 0.68132 0.40602 0.0
H3509 H 0.34603 0.68608 0.39878 0.0
H3510 H 0.33098 0.69831 0.38624 0.0
H3511 H 0.32112 0.69359 0.39343 0.0
H3512 H 0.28528 0.6825 0.402 0.0
H3513 H 0.29794 0.68169 0.40596 0.0
H3514 H 0.28029 0.66376 0.41449 0.0
H3515 H 0.29271 0.66301 0.41842 0.0
H3516 H 0.32358 0.64596 0.43387 0.0
H3517 H 0.3444 0.65595 0.43432 0.0
H3518 H 0.33992 0.66567 0.42692 0.0
H3519 H 0.31904 0.65586 0.42633 0.0
C3520 C 0.37266 0.08396 0.44471 0.0
C3521 C 0.37036 0.08483 0.4376 0.0
C3522 C 0.38088 0.07831 0.4333 0.0
C3523 C 0.37445 0.082 0.43192 0.0
C3524 C 0.38302 0.07727 0.44041 0.0
C3525 C 0.37895 0.08005 0.44604 0.0
U3526 U 0.35945 0.09657 0.45561 0.0
O3527 O 0.35469 0.09407 0.46617 0.0
O3528 O 0.36249 0.10281 0.46512 0.0
C3529 C 0.35825 0.0992 0.4694 0.0
C3530 C 0.36904 0.08729 0.45094 0.0
C3531 C 0.36059 0.09821 0.47692 0.0
C3532 C 0.36761 0.09265 0.48648 0.0
C3533 C 0.36545 0.09292 0.47923 0.0
C3534 C 0.36003 0.10281 0.48907 0.0
C3535 C 0.365 0.09771 0.49145 0.0
C3536 C 0.35787 0.10305 0.48194 0.0
C3537 C 0.34605 0.10907 0.44425 0.0
C3538 C 0.34055 0.12094 0.44493 0.0
C3539 C 0.33888 0.11364 0.4344 0.0
C3540 C 0.34291 0.10819 0.43751 0.0
C3541 C 0.33792 0.12025 0.43787 0.0
C3542 C 0.34463 0.1154 0.44809 0.0
C3543 C 0.35149 0.10366 0.44638 0.0
O3544 O 0.37045 0.09406 0.45218 0.0
O3545 O 0.36235 0.08557 0.45231 0.0
O3546 O 0.34945 0.09758 0.44927 0.0
O3547 O 0.35779 0.10588 0.44859 0.0
H3548 H 0.36552 0.08781 0.43643 0.0
H3549 H 0.3727 0.08283 0.42646 0.0
H3550 H 0.38794 0.07443 0.4416 0.0
H3551 H 0.38082 0.0793 0.45147 0.0
H3552 H 0.37145 0.08864 0.48815 0.0
H3553 H 0.36764 0.08911 0.47545 0.0
H3554 H 0.35781 0.10671 0.49275 0.0
H3555 H 0.3541 0.10714 0.4803 0.0
H3556 H 0.33984 0.1259 0.44784 0.0
H3557 H 0.33673 0.11273 0.4291 0.0
H3558 H 0.34389 0.10336 0.43445 0.0
H3559 H 0.34694 0.1162 0.45334 0.0
C3560 C 0.87242 0.43719 0.57711 0.0
C3561 C 0.87092 0.43515 0.58419 0.0
C3562 C 0.88082 0.44256 0.58858 0.0
C3563 C 0.8751 0.4378 0.58988 0.0
C3564 C 0.88208 0.4448 0.58152 0.0
C3565 C 0.87795 0.44212 0.57587 0.0
U3566 U 0.85932 0.42447 0.56641 0.0
O3567 O 0.85429 0.42665 0.55592 0.0
O3568 O 0.86236 0.41815 0.55695 0.0
C3569 C 0.85797 0.4216 0.55268 0.0
C3570 C 0.8689 0.43389 0.57081 0.0
C3571 C 0.86026 0.42276 0.54517 0.0
C3572 C 0.86849 0.42693 0.53587 0.0
C3573 C 0.86636 0.4267 0.54313 0.0
C3574 C 0.85832 0.41958 0.53271 0.0
C3575 C 0.86458 0.4232 0.53058 0.0
C3576 C 0.85625 0.41932 0.53987 0.0
C3577 C 0.84626 0.41201 0.57806 0.0
C3578 C 0.83944 0.40098 0.57621 0.0
C3579 C 0.84069 0.4059 0.58812 0.0
C3580 C 0.8446 0.41163 0.58536 0.0
C3581 C 0.83825 0.40039 0.58364 0.0
C3582 C 0.84349 0.40674 0.57343 0.0
C3583 C 0.85156 0.41753 0.57592 0.0
O3584 O 0.87034 0.42712 0.56962 0.0
O3585 O 0.8622 0.43556 0.56943 0.0
O3586 O 0.84938 0.42346 0.57284 0.0
O3587 O 0.85789 0.41537 0.57374 0.0
H3588 H 0.86667 0.43137 0.5853 0.0
H3589 H 0.87394 0.43607 0.59529 0.0
H3590 H 0.88644 0.44843 0.58033 0.0
H3591 H 0.87924 0.44374 0.57045 0.0
H3592 H 0.87331 0.42982 0.53446 0.0
H3593 H 0.86954 0.42942 0.54713 0.0
H3594 H 0.855 0.41683 0.52884 0.0
H3595 H 0.85151 0.41628 0.54129 0.0
H3596 H 0.8376 0.39681 0.57264 0.0
H3597 H 0.83982 0.40562 0.59384 0.0
H3598 H 0.84666 0.41561 0.58904 0.0
H3599 H 0.84469 0.40692 0.56777 0.0
C3600 C 0.33517 0.12146 0.32707 0.0
C3601 C 0.33536 0.11885 0.33413 0.0
C3602 C 0.32951 0.12976 0.33847 0.0
C3603 C 0.33249 0.12295 0.33978 0.0
C3604 C 0.32919 0.13223 0.33139 0.0
C3605 C 0.33194 0.12812 0.32578 0.0
U3606 U 0.34782 0.10805 0.31651 0.0
O3607 O 0.34562 0.1031 0.30597 0.0
O3608 O 0.35427 0.11097 0.30709 0.0
C3609 C 0.35075 0.1067 0.30276 0.0
C3610 C 0.33847 0.11773 0.32087 0.0
C3611 C 0.34955 0.10921 0.29533 0.0
C3612 C 0.34464 0.11738 0.28637 0.0
C3613 C 0.34512 0.11505 0.29354 0.0
C3614 C 0.35282 0.10802 0.28277 0.0
C3615 C 0.34851 0.11388 0.28094 0.0
C3616 C 0.35335 0.10575 0.28987 0.0
C3617 C 0.36033 0.09507 0.32817 0.0
C3618 C 0.37103 0.08779 0.32608 0.0
C3619 C 0.36684 0.08984 0.33815 0.0
C3620 C 0.36109 0.09381 0.33551 0.0
C3621 C 0.37198 0.08694 0.33352 0.0
C3622 C 0.36525 0.09189 0.32341 0.0
C3623 C 0.35477 0.10034 0.32604 0.0
O3624 O 0.34525 0.11912 0.3196 0.0
O3625 O 0.33675 0.11102 0.31962 0.0
O3626 O 0.34884 0.09814 0.32293 0.0
O3627 O 0.35692 0.10665 0.32386 0.0
H3628 H 0.33782 0.11373 0.33528 0.0
H3629 H 0.3328 0.12092 0.3452 0.0
H3630 H 0.32687 0.1374 0.3302 0.0
H3631 H 0.33169 0.13023 0.32038 0.0
H3632 H 0.34125 0.1219 0.28507 0.0
H3633 H 0.34213 0.11782 0.29766 0.0
H3634 H 0.3559 0.10525 0.27871 0.0
H3635 H 0.35684 0.10129 0.29112 0.0
H3636 H 0.37494 0.0856 0.32239 0.0
H3637 H 0.36741 0.08926 0.34389 0.0
H3638 H 0.35738 0.0962 0.33928 0.0
H3639 H 0.36478 0.09278 0.3177 0.0
C3640 C 0.65109 0.58369 0.07684 0.0
C3641 C 0.6526 0.58562 0.08395 0.0
C3642 C 0.64273 0.57808 0.08818 0.0
C3643 C 0.64843 0.58284 0.08958 0.0
C3644 C 0.64149 0.57594 0.0811 0.0
C3645 C 0.6456 0.57874 0.0755 0.0
U3646 U 0.664 0.59683 0.06649 0.0
O3647 O 0.66927 0.5948 0.05608 0.0
O3648 O 0.661 0.60312 0.057 0.0
C3649 C 0.66551 0.59976 0.05278 0.0
C3650 C 0.6546 0.58713 0.07062 0.0
C3651 C 0.66328 0.59849 0.04527 0.0
C3652 C 0.65514 0.59408 0.03601 0.0
C3653 C 0.65728 0.59439 0.04326 0.0
C3654 C 0.66509 0.60171 0.0328 0.0
C3655 C 0.65892 0.59792 0.0307 0.0
C3656 C 0.66718 0.60202 0.03996 0.0
C3657 C 0.67666 0.60953 0.0783 0.0
C3658 C 0.68341 0.62062 0.07648 0.0
C3659 C 0.68306 0.61511 0.08818 0.0
C3660 C 0.67879 0.60961 0.08547 0.0
C3661 C 0.68541 0.62074 0.08378 0.0
C3662 C 0.67906 0.61504 0.07375 0.0
C3663 C 0.67143 0.60392 0.07617 0.0
O3664 O 0.653 0.59386 0.06947 0.0
O3665 O 0.66137 0.58564 0.06935 0.0
O3666 O 0.67375 0.59801 0.07316 0.0
O3667 O 0.66511 0.60596 0.07385 0.0
H3668 H 0.65682 0.58941 0.08513 0.0
H3669 H 0.64955 0.58453 0.09501 0.0
H3670 H 0.63711 0.57235 0.07984 0.0
H3671 H 0.64432 0.57722 0.07006 0.0
H3672 H 0.65038 0.59107 0.03461 0.0
H3673 H 0.65418 0.59159 0.04727 0.0
H3674 H 0.6683 0.60455 0.02891 0.0
H3675 H 0.67183 0.6052 0.04136 0.0
H3676 H 0.68515 0.62484 0.07292 0.0
H3677 H 0.68431 0.61506 0.09383 0.0
H3678 H 0.67695 0.60549 0.08911 0.0
H3679 H 0.67748 0.61512 0.06818 0.0
C3680 C 0.68825 0.39946 0.32705 0.0
C3681 C 0.68748 0.40181 0.33416 0.0
C3682 C 0.69395 0.39122 0.33855 0.0
C3683 C 0.69033 0.39774 0.33985 0.0
C3684 C 0.69492 0.3891 0.33139 0.0
C3685 C 0.6921 0.39315 0.32576 0.0
U3686 U 0.67567 0.41278 0.31625 0.0
O3687 O 0.67796 0.41758 0.30567 0.0
O3688 O 0.66922 0.40983 0.30684 0.0
C3689 C 0.6728 0.41401 0.30249 0.0
C3690 C 0.68492 0.40309 0.3208 0.0
C3691 C 0.67396 0.41143 0.29506 0.0
C3692 C 0.67886 0.40322 0.28613 0.0
C3693 C 0.6784 0.40561 0.29329 0.0
C3694 C 0.67062 0.41253 0.28251 0.0
C3695 C 0.67495 0.40668 0.28069 0.0
C3696 C 0.67011 0.41485 0.2896 0.0
C3697 C 0.66342 0.42618 0.32773 0.0
C3698 C 0.65196 0.43237 0.32625 0.0
C3699 C 0.65793 0.43239 0.33774 0.0
C3700 C 0.66359 0.42849 0.33485 0.0
C3701 C 0.6519 0.43414 0.33359 0.0
C3702 C 0.65767 0.42835 0.32334 0.0
C3703 C 0.66883 0.42076 0.32565 0.0
O3704 O 0.67812 0.40176 0.31961 0.0
O3705 O 0.68671 0.40974 0.31938 0.0
O3706 O 0.67484 0.42278 0.32259 0.0
O3707 O 0.66654 0.41447 0.32351 0.0
H3708 H 0.68455 0.40667 0.33532 0.0
H3709 H 0.68946 0.39957 0.34528 0.0
H3710 H 0.69781 0.38426 0.33011 0.0
H3711 H 0.69282 0.39126 0.32032 0.0
H3712 H 0.68227 0.39872 0.28484 0.0
H3713 H 0.68141 0.40287 0.29742 0.0
H3714 H 0.66753 0.41526 0.27844 0.0
H3715 H 0.66662 0.41931 0.29083 0.0
H3716 H 0.6474 0.43369 0.32292 0.0
H3717 H 0.65809 0.43374 0.34338 0.0
H3718 H 0.66795 0.4269 0.33833 0.0
H3719 H 0.65743 0.42665 0.3178 0.0
C3720 C 0.15084 0.93706 0.94484 0.0
C3721 C 0.1525 0.93517 0.93775 0.0
C3722 C 0.14255 0.9425 0.93334 0.0
C3723 C 0.14835 0.93785 0.93204 0.0
C3724 C 0.14113 0.94459 0.94041 0.0
C3725 C 0.1452 0.94187 0.94608 0.0
U3726 U 0.164 0.92447 0.95571 0.0
O3727 O 0.16882 0.92683 0.96628 0.0
O3728 O 0.16101 0.91811 0.96517 0.0
C3729 C 0.16525 0.92168 0.96949 0.0
C3730 C 0.15436 0.93377 0.95116 0.0
C3731 C 0.16285 0.92271 0.97699 0.0
C3732 C 0.15527 0.92785 0.98637 0.0
C3733 C 0.15754 0.92762 0.97915 0.0
C3734 C 0.16367 0.91843 0.98926 0.0
C3735 C 0.15821 0.92312 0.99148 0.0
C3736 C 0.16593 0.91823 0.98215 0.0
C3737 C 0.17732 0.9121 0.94418 0.0
C3738 C 0.18318 0.90043 0.94527 0.0
C3739 C 0.18385 0.907 0.93415 0.0
C3740 C 0.17994 0.91258 0.93718 0.0
C3741 C 0.18525 0.90069 0.93801 0.0
C3742 C 0.17918 0.90609 0.94833 0.0
C3743 C 0.17192 0.91753 0.94634 0.0
O3744 O 0.15298 0.92699 0.95235 0.0
O3745 O 0.16103 0.93551 0.9526 0.0
O3746 O 0.17399 0.92354 0.94934 0.0
O3747 O 0.16562 0.9153 0.94852 0.0
H3748 H 0.15684 0.93149 0.93664 0.0
H3749 H 0.14962 0.93623 0.92662 0.0
H3750 H 0.1367 0.94815 0.94157 0.0
H3751 H 0.1438 0.94339 0.9515 0.0
H3752 H 0.15108 0.93154 0.9879 0.0
H3753 H 0.15509 0.93114 0.97526 0.0
H3754 H 0.16618 0.91483 0.99304 0.0
H3755 H 0.17005 0.91444 0.98063 0.0
H3756 H 0.18425 0.8957 0.94843 0.0
H3757 H 0.18552 0.90751 0.92863 0.0
H3758 H 0.17861 0.91715 0.93388 0.0
H3759 H 0.17727 0.90561 0.95378 0.0
C3760 C 0.33505 0.89975 0.19462 0.0
C3761 C 0.33697 0.90131 0.18752 0.0
C3762 C 0.32962 0.89135 0.1832 0.0
C3763 C 0.33429 0.89712 0.18185 0.0
C3764 C 0.3275 0.89002 0.19028 0.0
C3765 C 0.33021 0.89415 0.19592 0.0
U3766 U 0.34782 0.91291 0.20522 0.0
O3767 O 0.34563 0.91787 0.21576 0.0
O3768 O 0.35426 0.90996 0.21464 0.0
C3769 C 0.35076 0.91427 0.21895 0.0
C3770 C 0.33837 0.90332 0.20089 0.0
C3771 C 0.34972 0.91192 0.22647 0.0
C3772 C 0.34433 0.90463 0.23591 0.0
C3773 C 0.34465 0.9068 0.22867 0.0
C3774 C 0.354 0.91275 0.23873 0.0
C3775 C 0.34913 0.90749 0.24101 0.0
C3776 C 0.35429 0.9149 0.23159 0.0
C3777 C 0.36046 0.92581 0.19357 0.0
C3778 C 0.3709 0.93342 0.19582 0.0
C3779 C 0.36718 0.93099 0.18367 0.0
C3780 C 0.36147 0.9269 0.18622 0.0
C3781 C 0.37205 0.93418 0.1884 0.0
C3782 C 0.36514 0.92921 0.1984 0.0
C3783 C 0.35483 0.92058 0.19566 0.0
O3784 O 0.34515 0.90189 0.20209 0.0
O3785 O 0.3367 0.91003 0.20222 0.0
O3786 O 0.34893 0.92282 0.19879 0.0
O3787 O 0.35691 0.91423 0.19782 0.0
H3788 H 0.34067 0.90562 0.18637 0.0
H3789 H 0.33593 0.89831 0.17642 0.0
H3790 H 0.32392 0.88562 0.19149 0.0
H3791 H 0.32869 0.89281 0.20135 0.0
H3792 H 0.3405 0.90057 0.23748 0.0
H3793 H 0.34104 0.90441 0.22481 0.0
H3794 H 0.35767 0.9152 0.24249 0.0
H3795 H 0.35822 0.91888 0.23005 0.0
H3796 H 0.37461 0.9358 0.19959 0.0
H3797 H 0.36794 0.93147 0.17795 0.0
H3798 H 0.35795 0.92434 0.18238 0.0
H3799 H 0.3645 0.92845 0.20411 0.0
C3800 C 0.18838 0.12128 0.69474 0.0
C3801 C 0.18656 0.11957 0.68765 0.0
C3802 C 0.19392 0.12953 0.68316 0.0
C3803 C 0.18931 0.12364 0.68192 0.0
C3804 C 0.19593 0.13095 0.69029 0.0
C3805 C 0.19317 0.12692 0.69597 0.0
U3806 U 0.17562 0.10819 0.7054 0.0
O3807 O 0.17778 0.10309 0.71587 0.0
O3808 O 0.16925 0.11113 0.71488 0.0
C3809 C 0.17271 0.10674 0.71913 0.0
C3810 C 0.18507 0.11776 0.70106 0.0
C3811 C 0.17388 0.109 0.72665 0.0
C3812 C 0.1782 0.11715 0.73595 0.0
C3813 C 0.17794 0.11501 0.7287 0.0
C3814 C 0.17059 0.10718 0.73911 0.0
C3815 C 0.17435 0.11335 0.74124 0.0
C3816 C 0.17033 0.10509 0.73195 0.0
C3817 C 0.1631 0.09539 0.69347 0.0
C3818 C 0.15238 0.08806 0.69519 0.0
C3819 C 0.15674 0.09047 0.68324 0.0
C3820 C 0.16244 0.09434 0.68608 0.0
C3821 C 0.15151 0.08745 0.68771 0.0
C3822 C 0.15812 0.09209 0.69807 0.0
C3823 C 0.16865 0.10058 0.6958 0.0
O3824 O 0.17829 0.11921 0.70227 0.0
O3825 O 0.18673 0.11107 0.70241 0.0
O3826 O 0.17455 0.09832 0.69891 0.0
O3827 O 0.16651 0.10689 0.69804 0.0
H3828 H 0.18288 0.11523 0.68655 0.0
H3829 H 0.18758 0.12233 0.67656 0.0
H3830 H 0.19961 0.13524 0.69154 0.0
H3831 H 0.19467 0.12833 0.70139 0.0
H3832 H 0.18119 0.1219 0.73737 0.0
H3833 H 0.18076 0.11811 0.7247 0.0
H3834 H 0.16774 0.10395 0.74299 0.0
H3835 H 0.16719 0.10043 0.73053 0.0
H3836 H 0.14846 0.08572 0.69877 0.0
H3837 H 0.15629 0.08999 0.67749 0.0
H3838 H 0.16622 0.09681 0.68243 0.0
H3839 H 0.15852 0.0928 0.7038 0.0
C3840 C 0.14917 0.21083 0.36837 0.0
C3841 C 0.14803 0.20462 0.37248 0.0
C3842 C 0.16098 0.20343 0.37455 0.0
C3843 C 0.1539 0.20093 0.3755 0.0
C3844 C 0.16204 0.20947 0.3702 0.0
C3845 C 0.15623 0.2131 0.36717 0.0
U3846 U 0.12926 0.21743 0.3649 0.0
O3847 O 0.12555 0.22857 0.36564 0.0
O3848 O 0.12522 0.22304 0.35524 0.0
C3849 C 0.12372 0.22888 0.35886 0.0
C3850 C 0.14327 0.21541 0.36562 0.0
C3851 C 0.12362 0.23596 0.35528 0.0
C3852 C 0.12896 0.24748 0.35219 0.0
C3853 C 0.12971 0.24033 0.35449 0.0
C3854 C 0.11615 0.24582 0.35112 0.0
C3855 C 0.12213 0.25031 0.35064 0.0
C3856 C 0.11689 0.23874 0.35339 0.0
C3857 C 0.11397 0.20463 0.37339 0.0
C3858 C 0.10135 0.20469 0.37698 0.0
C3859 C 0.1087 0.1943 0.37928 0.0
C3860 C 0.11453 0.19768 0.37608 0.0
C3861 C 0.102 0.19772 0.37983 0.0
C3862 C 0.10729 0.20814 0.37379 0.0
C3863 C 0.12072 0.20799 0.37089 0.0
O3864 O 0.13928 0.21297 0.36036 0.0
O3865 O 0.1396 0.21909 0.37035 0.0
O3866 O 0.12327 0.21357 0.37431 0.0
O3867 O 0.12261 0.20764 0.36412 0.0
H3868 H 0.14264 0.20275 0.37349 0.0
H3869 H 0.15286 0.19631 0.37883 0.0
H3870 H 0.16739 0.21148 0.36921 0.0
H3871 H 0.15725 0.21784 0.364 0.0
H3872 H 0.13364 0.25088 0.35193 0.0
H3873 H 0.13496 0.23834 0.35594 0.0
H3874 H 0.11082 0.2479 0.3501 0.0
H3875 H 0.11212 0.2355 0.35404 0.0
H3876 H 0.09628 0.2075 0.37727 0.0
H3877 H 0.10957 0.18906 0.38156 0.0
H3878 H 0.11963 0.1949 0.37593 0.0
H3879 H 0.10672 0.21354 0.37177 0.0
C3880 C 0.06134 0.89771 0.61837 0.0
C3881 C 0.06704 0.89647 0.62313 0.0
C3882 C 0.06888 0.9094 0.62464 0.0
C3883 C 0.07079 0.90226 0.62622 0.0
C3884 C 0.06338 0.91054 0.61961 0.0
C3885 C 0.05967 0.90479 0.61655 0.0
U3886 U 0.05488 0.87792 0.61473 0.0
O3887 O 0.04384 0.87388 0.61563 0.0
O3888 O 0.0492 0.8738 0.60514 0.0
C3889 C 0.04344 0.87213 0.60883 0.0
C3890 C 0.05662 0.89192 0.61558 0.0
C3891 C 0.03629 0.87221 0.60534 0.0
C3892 C 0.02466 0.87763 0.6028 0.0
C3893 C 0.03184 0.87827 0.60508 0.0
C3894 C 0.02645 0.865 0.60067 0.0
C3895 C 0.02185 0.87093 0.60073 0.0
C3896 C 0.03356 0.86563 0.60297 0.0
C3897 C 0.06792 0.86267 0.62263 0.0
C3898 C 0.06721 0.85015 0.62637 0.0
C3899 C 0.07798 0.85697 0.62865 0.0
C3900 C 0.07494 0.8629 0.62529 0.0
C3901 C 0.07411 0.8506 0.6294 0.0
C3902 C 0.06411 0.85618 0.62301 0.0
C3903 C 0.06473 0.86959 0.62043 0.0
O3904 O 0.05897 0.88806 0.61018 0.0
O3905 O 0.05309 0.88813 0.62033 0.0
O3906 O 0.05917 0.87202 0.62399 0.0
O3907 O 0.06485 0.87155 0.61367 0.0
H3908 H 0.06846 0.89106 0.62463 0.0
H3909 H 0.07497 0.90112 0.63006 0.0
H3910 H 0.06184 0.91591 0.61808 0.0
H3911 H 0.05532 0.9059 0.61287 0.0
H3912 H 0.02124 0.8823 0.60286 0.0
H3913 H 0.03381 0.88341 0.60688 0.0
H3914 H 0.02445 0.85976 0.59923 0.0
H3915 H 0.03686 0.86087 0.6032 0.0
H3916 H 0.0641 0.8453 0.62694 0.0
H3917 H 0.08325 0.8575 0.63103 0.0
H3918 H 0.07796 0.86785 0.62512 0.0
H3919 H 0.05867 0.85586 0.62101 0.0
C3920 C 0.37434 0.81007 0.86824 0.0
C3921 C 0.37548 0.81629 0.87232 0.0
C3922 C 0.36254 0.81748 0.8744 0.0
C3923 C 0.36962 0.81998 0.87534 0.0
C3924 C 0.36147 0.81143 0.87007 0.0
C3925 C 0.36728 0.80779 0.86704 0.0
U3926 U 0.39426 0.80362 0.86491 0.0
O3927 O 0.39812 0.79254 0.86567 0.0
O3928 O 0.39847 0.79808 0.85528 0.0
C3929 C 0.39998 0.79224 0.8589 0.0
C3930 C 0.38024 0.80549 0.8655 0.0
C3931 C 0.39986 0.78518 0.8553 0.0
C3932 C 0.3944 0.77361 0.85273 0.0
C3933 C 0.39377 0.78076 0.85502 0.0
C3934 C 0.40707 0.77537 0.85061 0.0
C3935 C 0.40111 0.77081 0.85067 0.0
C3936 C 0.40645 0.78245 0.85292 0.0
C3937 C 0.40942 0.81647 0.87344 0.0
C3938 C 0.42207 0.81637 0.87691 0.0
C3939 C 0.41473 0.82674 0.87936 0.0
C3940 C 0.40888 0.82339 0.87619 0.0
C3941 C 0.42144 0.82332 0.87982 0.0
C3942 C 0.4161 0.81295 0.87374 0.0
C3943 C 0.40265 0.81315 0.87096 0.0
O3944 O 0.38425 0.80797 0.86028 0.0
O3945 O 0.38389 0.80183 0.87026 0.0
O3946 O 0.40012 0.80756 0.87436 0.0
O3947 O 0.4008 0.81348 0.86418 0.0
H3948 H 0.38087 0.81817 0.87333 0.0
H3949 H 0.37065 0.82462 0.87865 0.0
H3950 H 0.35612 0.80941 0.8691 0.0
H3951 H 0.36626 0.80304 0.86389 0.0
H3952 H 0.38972 0.77019 0.85282 0.0
H3953 H 0.38863 0.78273 0.85685 0.0
H3954 H 0.41232 0.77334 0.84918 0.0
H3955 H 0.41123 0.78572 0.85318 0.0
H3956 H 0.42714 0.81356 0.87713 0.0
H3957 H 0.41388 0.83196 0.8817 0.0
H3958 H 0.40378 0.82617 0.87611 0.0
H3959 H 0.41665 0.80757 0.87167 0.0
C3960 C 0.46192 0.12317 0.11848 0.0
C3961 C 0.45626 0.12442 0.12329 0.0
C3962 C 0.45439 0.11149 0.12477 0.0
C3963 C 0.45252 0.11864 0.12638 0.0
C3964 C 0.45984 0.11035 0.11967 0.0
C3965 C 0.46354 0.11609 0.11661 0.0
U3966 U 0.46864 0.14287 0.11464 0.0
O3967 O 0.47977 0.14666 0.11561 0.0
O3968 O 0.47452 0.14667 0.10504 0.0
C3969 C 0.48025 0.1483 0.1088 0.0
C3970 C 0.46666 0.12892 0.1157 0.0
C3971 C 0.48742 0.14853 0.10542 0.0
C3972 C 0.4989 0.14332 0.10193 0.0
C3973 C 0.49176 0.14249 0.10427 0.0
C3974 C 0.49731 0.15615 0.10172 0.0
C3975 C 0.50183 0.1502 0.10077 0.0
C3976 C 0.49023 0.15531 0.10397 0.0
C3977 C 0.45565 0.15839 0.12228 0.0
C3978 C 0.45623 0.17066 0.12678 0.0
C3979 C 0.44525 0.16388 0.12788 0.0
C3980 C 0.44845 0.15812 0.12436 0.0
C3981 C 0.44915 0.17012 0.12934 0.0
C3982 C 0.4595 0.16479 0.1233 0.0
C3983 C 0.45896 0.15151 0.1201 0.0
O3984 O 0.46441 0.13273 0.11023 0.0
O3985 O 0.47018 0.13274 0.12044 0.0
O3986 O 0.46446 0.14907 0.12374 0.0
O3987 O 0.45881 0.14943 0.11338 0.0
H3988 H 0.45488 0.12983 0.12481 0.0
H3989 H 0.44838 0.11978 0.13027 0.0
H3990 H 0.46134 0.10499 0.1181 0.0
H3991 H 0.46786 0.11498 0.11289 0.0
H3992 H 0.50216 0.1386 0.10116 0.0
H3993 H 0.4897 0.13719 0.10536 0.0
H3994 H 0.49932 0.16154 0.10107 0.0
H3995 H 0.48701 0.16005 0.10487 0.0
H3996 H 0.45936 0.17541 0.12789 0.0
H3997 H 0.43982 0.16329 0.12983 0.0
H3998 H 0.44539 0.15325 0.12368 0.0
H3999 H 0.46509 0.16513 0.12175 0.0
C4000 C 0.14922 0.80949 0.1536 0.0
C4001 C 0.14799 0.81564 0.14945 0.0
C4002 C 0.16091 0.81706 0.14736 0.0
C4003 C 0.15378 0.8194 0.14639 0.0
C4004 C 0.16207 0.81106 0.15177 0.0
C4005 C 0.15632 0.80734 0.15483 0.0
U4006 U 0.12921 0.80373 0.1566 0.0
O4007 O 0.12466 0.79293 0.15559 0.0
O4008 O 0.12442 0.79833 0.16603 0.0
C4009 C 0.12273 0.79258 0.16233 0.0
C4010 C 0.14333 0.80489 0.15635 0.0
C4011 C 0.12295 0.78547 0.16586 0.0
C4012 C 0.12866 0.77403 0.16857 0.0
C4013 C 0.12912 0.78117 0.16616 0.0
C4014 C 0.11595 0.77554 0.17059 0.0
C4015 C 0.12201 0.77106 0.17066 0.0
C4016 C 0.11643 0.78262 0.16825 0.0
C4017 C 0.11469 0.81702 0.14803 0.0
C4018 C 0.10196 0.81666 0.14486 0.0
C4019 C 0.10902 0.82717 0.1422 0.0
C4020 C 0.11503 0.82394 0.14524 0.0
C4021 C 0.10238 0.82362 0.14192 0.0
C4022 C 0.10808 0.81338 0.14789 0.0
C4023 C 0.12156 0.81382 0.15041 0.0
O4024 O 0.13932 0.80744 0.16155 0.0
O4025 O 0.13961 0.80136 0.15155 0.0
O4026 O 0.12396 0.80815 0.14702 0.0
O4027 O 0.12326 0.81395 0.15723 0.0
H4028 H 0.14256 0.81742 0.14842 0.0
H4029 H 0.15264 0.82398 0.14303 0.0
H4030 H 0.16746 0.80916 0.15279 0.0
H4031 H 0.15742 0.80265 0.15804 0.0
H4032 H 0.13347 0.7708 0.16864 0.0
H4033 H 0.13422 0.78323 0.16433 0.0
H4034 H 0.11072 0.7735 0.17201 0.0
H4035 H 0.11158 0.7858 0.16801 0.0
H4036 H 0.09695 0.81376 0.14477 0.0
H4037 H 0.10971 0.8324 0.13983 0.0
H4038 H 0.12007 0.82682 0.14519 0.0
H4039 H 0.10769 0.808 0.15 0.0
C4040 C 0.46203 0.89782 0.40324 0.0
C4041 C 0.45617 0.89663 0.39867 0.0
C4042 C 0.45452 0.90958 0.39711 0.0
C4043 C 0.45243 0.90246 0.39565 0.0
C4044 C 0.46019 0.91067 0.40195 0.0
C4045 C 0.46388 0.90488 0.40495 0.0
U4046 U 0.46888 0.87808 0.40702 0.0
O4047 O 0.48008 0.87447 0.40635 0.0
O4048 O 0.47455 0.87436 0.41678 0.0
C4049 C 0.48039 0.87281 0.41317 0.0
C4050 C 0.46672 0.89201 0.40599 0.0
C4051 C 0.48747 0.87271 0.41672 0.0
C4052 C 0.49915 0.87788 0.41939 0.0
C4053 C 0.492 0.8787 0.41712 0.0
C4054 C 0.49716 0.86523 0.42122 0.0
C4055 C 0.50185 0.8711 0.42129 0.0
C4056 C 0.49007 0.86604 0.41896 0.0
C4057 C 0.45604 0.86241 0.39933 0.0
C4058 C 0.45611 0.8508 0.39328 0.0
C4059 C 0.44488 0.85674 0.39578 0.0
C4060 C 0.44856 0.86233 0.39907 0.0
C4061 C 0.44858 0.85105 0.3925 0.0
C4062 C 0.45983 0.85647 0.39663 0.0
C4063 C 0.45944 0.86925 0.40149 0.0
O4064 O 0.46442 0.88815 0.41139 0.0
O4065 O 0.47032 0.88826 0.40125 0.0
O4066 O 0.465 0.87167 0.39792 0.0
O4067 O 0.45908 0.87149 0.40815 0.0
H4068 H 0.45461 0.89123 0.39727 0.0
H4069 H 0.4481 0.90138 0.39195 0.0
H4070 H 0.46188 0.91602 0.40336 0.0
H4071 H 0.46835 0.90594 0.40849 0.0
H4072 H 0.50265 0.88251 0.41944 0.0
H4073 H 0.49012 0.8839 0.41541 0.0
H4074 H 0.49908 0.85993 0.42254 0.0
H4075 H 0.48669 0.86134 0.41862 0.0
H4076 H 0.45917 0.84649 0.39091 0.0
H4077 H 0.4391 0.85705 0.39556 0.0
H4078 H 0.44551 0.86683 0.4011 0.0
H4079 H 0.46563 0.85637 0.39681 0.0
C4080 C 0.3741 0.21066 0.65347 0.0
C4081 C 0.3752 0.20436 0.6495 0.0
C4082 C 0.36228 0.20336 0.64732 0.0
C4083 C 0.36932 0.20072 0.64649 0.0
C4084 C 0.36125 0.20949 0.65154 0.0
C4085 C 0.36708 0.21308 0.65457 0.0
U4086 U 0.39408 0.21681 0.6567 0.0
O4087 O 0.39806 0.22784 0.65559 0.0
O4088 O 0.39821 0.22265 0.66619 0.0
C4089 C 0.39979 0.22835 0.66237 0.0
C4090 C 0.38004 0.21519 0.65613 0.0
C4091 C 0.40011 0.23554 0.66572 0.0
C4092 C 0.39501 0.24666 0.67037 0.0
C4093 C 0.39412 0.23957 0.66786 0.0
C4094 C 0.40778 0.24565 0.66851 0.0
C4095 C 0.40189 0.24988 0.67065 0.0
C4096 C 0.4069 0.23863 0.66621 0.0
C4097 C 0.40942 0.204 0.64869 0.0
C4098 C 0.42177 0.20514 0.64443 0.0
C4099 C 0.41569 0.19376 0.64359 0.0
C4100 C 0.4096 0.19676 0.64674 0.0
C4101 C 0.4218 0.19792 0.64225 0.0
C4102 C 0.41563 0.20816 0.64767 0.0
C4103 C 0.40237 0.20698 0.65089 0.0
O4104 O 0.38399 0.21275 0.66142 0.0
O4105 O 0.38377 0.21867 0.6513 0.0
O4106 O 0.39983 0.2125 0.64736 0.0
O4107 O 0.4005 0.20688 0.65767 0.0
H4108 H 0.38057 0.20239 0.64857 0.0
H4109 H 0.3703 0.19601 0.64326 0.0
H4110 H 0.35592 0.21161 0.65241 0.0
H4111 H 0.3661 0.2179 0.65763 0.0
H4112 H 0.3903 0.2496 0.67201 0.0
H4113 H 0.38879 0.23731 0.6675 0.0
H4114 H 0.41315 0.24778 0.6683 0.0
H4115 H 0.41159 0.23565 0.66453 0.0
H4116 H 0.42642 0.20847 0.64347 0.0
H4117 H 0.41549 0.18823 0.64186 0.0
H4118 H 0.40487 0.19347 0.64737 0.0
H4119 H 0.41564 0.21377 0.64911 0.0
C4120 C 0.06087 0.12285 0.90356 0.0
C4121 C 0.06725 0.12401 0.89972 0.0
C4122 C 0.06836 0.11116 0.89736 0.0
C4123 C 0.07099 0.1182 0.89668 0.0
C4124 C 0.06213 0.11005 0.90145 0.0
C4125 C 0.05846 0.11582 0.90451 0.0
U4126 U 0.05523 0.14284 0.90683 0.0
O4127 O 0.04443 0.14742 0.9056 0.0
O4128 O 0.04953 0.14733 0.91622 0.0
C4129 C 0.04392 0.14918 0.91238 0.0
C4130 C 0.05631 0.12877 0.90626 0.0
C4131 C 0.0367 0.14917 0.91569 0.0
C4132 C 0.0255 0.14355 0.91948 0.0
C4133 C 0.03263 0.14298 0.91699 0.0
C4134 C 0.02655 0.15644 0.91938 0.0
C4135 C 0.02231 0.15033 0.92062 0.0
C4136 C 0.03361 0.15585 0.91703 0.0
C4137 C 0.06849 0.1578 0.89927 0.0
C4138 C 0.06724 0.16995 0.8946 0.0
C4139 C 0.07876 0.16405 0.89425 0.0
C4140 C 0.07581 0.15808 0.89763 0.0
C4141 C 0.07448 0.16995 0.89247 0.0
C4142 C 0.06424 0.16389 0.89797 0.0
C4143 C 0.06552 0.1507 0.90123 0.0
O4144 O 0.05875 0.13261 0.91163 0.0
O4145 O 0.05299 0.13263 0.90142 0.0
O4146 O 0.05999 0.14833 0.89758 0.0
O4147 O 0.06546 0.14875 0.90799 0.0
H4148 H 0.06923 0.12939 0.89891 0.0
H4149 H 0.07576 0.11924 0.89356 0.0
H4150 H 0.06001 0.10471 0.90218 0.0
H4151 H 0.05358 0.11479 0.90748 0.0
H4152 H 0.02249 0.1387 0.92043 0.0
H4153 H 0.0349 0.13774 0.91598 0.0
H4154 H 0.02436 0.16176 0.91994 0.0
H4155 H 0.03662 0.1607 0.916 0.0
H4156 H 0.06381 0.17442 0.89323 0.0
H4157 H 0.08433 0.16387 0.8926 0.0
H4158 H 0.07919 0.15345 0.89854 0.0
H4159 H 0.05857 0.16381 0.89917 0.0
C4160 C 0.36914 0.14789 0.21122 0.0
C4161 C 0.37341 0.14674 0.20513 0.0
C4162 C 0.37527 0.15967 0.2038 0.0
C4163 C 0.37642 0.15259 0.20143 0.0
C4164 C 0.37074 0.16074 0.20972 0.0
C4165 C 0.36773 0.15493 0.21337 0.0
U4166 U 0.36588 0.12804 0.21773 0.0
O4167 O 0.36687 0.12426 0.22883 0.0
O4168 O 0.35633 0.12394 0.22351 0.0
C4169 C 0.36009 0.12245 0.22927 0.0
C4170 C 0.36646 0.14202 0.21584 0.0
C4171 C 0.35666 0.12222 0.23641 0.0
C4172 C 0.35268 0.12747 0.2477 0.0
C4173 C 0.3551 0.12828 0.24058 0.0
C4174 C 0.35332 0.11463 0.24643 0.0
C4175 C 0.35187 0.1206 0.25078 0.0
C4176 C 0.3556 0.11544 0.23937 0.0
C4177 C 0.37429 0.11282 0.20485 0.0
C4178 C 0.37778 0.10021 0.20502 0.0
C4179 C 0.38017 0.10744 0.19457 0.0
C4180 C 0.377 0.11331 0.1979 0.0
C4181 C 0.38066 0.10078 0.19804 0.0
C4182 C 0.37462 0.10619 0.20842 0.0
C4183 C 0.37182 0.11961 0.20815 0.0
O4184 O 0.36118 0.13802 0.21343 0.0
O4185 O 0.37127 0.13836 0.21943 0.0
O4186 O 0.3753 0.12219 0.21368 0.0
O4187 O 0.36502 0.12143 0.20791 0.0
H4188 H 0.37459 0.14135 0.20336 0.0
H4189 H 0.37989 0.15154 0.1969 0.0
H4190 H 0.36959 0.16608 0.21163 0.0
H4191 H 0.36443 0.15596 0.21803 0.0
H4192 H 0.35154 0.13222 0.25081 0.0
H4193 H 0.35589 0.13359 0.23841 0.0
H4194 H 0.35301 0.10925 0.24852 0.0
H4195 H 0.35684 0.11069 0.23629 0.0
H4196 H 0.37803 0.09517 0.20786 0.0
H4197 H 0.38248 0.10825 0.18933 0.0
H4198 H 0.3769 0.11837 0.19508 0.0
H4199 H 0.37258 0.10568 0.21382 0.0
C4200 C 0.1242 0.11777 0.46178 0.0
C4201 C 0.12538 0.12177 0.45552 0.0
C4202 C 0.11247 0.12401 0.45428 0.0
C4203 C 0.11957 0.12483 0.45178 0.0
C4204 C 0.11134 0.11975 0.46039 0.0
C4205 C 0.11712 0.11669 0.46407 0.0
U4206 U 0.14423 0.11462 0.46745 0.0
O4207 O 0.14879 0.11549 0.47829 0.0
O4208 O 0.1489 0.1051 0.47281 0.0
C4209 C 0.15064 0.10873 0.47858 0.0
C4210 C 0.13012 0.11499 0.46632 0.0
C4211 C 0.15048 0.10515 0.4857 0.0
C4212 C 0.14478 0.10217 0.49711 0.0
C4213 C 0.14427 0.10449 0.48993 0.0
C4214 C 0.15759 0.10086 0.49577 0.0
C4215 C 0.1515 0.10055 0.50015 0.0
C4216 C 0.15708 0.10309 0.48864 0.0
C4217 C 0.159 0.12295 0.45434 0.0
C4218 C 0.17135 0.12717 0.45548 0.0
C4219 C 0.16532 0.12789 0.44406 0.0
C4220 C 0.1592 0.12481 0.44708 0.0
C4221 C 0.17143 0.12925 0.44822 0.0
C4222 C 0.16518 0.12401 0.45852 0.0
C4223 C 0.15195 0.12076 0.45734 0.0
O4224 O 0.13407 0.10978 0.46374 0.0
O4225 O 0.13388 0.11977 0.46984 0.0
O4226 O 0.14958 0.12414 0.46303 0.0
O4227 O 0.15014 0.11397 0.45718 0.0
H4228 H 0.13079 0.12268 0.45362 0.0
H4229 H 0.12066 0.12807 0.44711 0.0
H4230 H 0.10598 0.11887 0.46241 0.0
H4231 H 0.11606 0.11359 0.46885 0.0
H4232 H 0.14 0.10206 0.5004 0.0
H4233 H 0.13911 0.10607 0.48781 0.0
H4234 H 0.16284 0.09973 0.49797 0.0
H4235 H 0.16195 0.10358 0.48552 0.0
H4236 H 0.17599 0.12813 0.45883 0.0
H4237 H 0.16513 0.12953 0.4385 0.0
H4238 H 0.15449 0.12414 0.44376 0.0
H4239 H 0.16517 0.12264 0.46415 0.0
C4240 C 0.15442 0.87297 0.71183 0.0
C4241 C 0.15014 0.87421 0.70576 0.0
C4242 C 0.14824 0.86131 0.70425 0.0
C4243 C 0.14711 0.86843 0.70199 0.0
C4244 C 0.15279 0.86015 0.71014 0.0
C4245 C 0.15582 0.8659 0.71387 0.0
U4246 U 0.15733 0.89291 0.71772 0.0
O4247 O 0.15649 0.89725 0.72863 0.0
O4248 O 0.16683 0.8977 0.723 0.0
C4249 C 0.16325 0.8992 0.72887 0.0
C4250 C 0.15715 0.87884 0.71645 0.0
C4251 C 0.16699 0.89889 0.73589 0.0
C4252 C 0.16861 0.89401 0.74793 0.0
C4253 C 0.16615 0.89327 0.74082 0.0
C4254 C 0.17319 0.90575 0.74506 0.0
C4255 C 0.17188 0.90043 0.75023 0.0
C4256 C 0.17074 0.90501 0.73804 0.0
C4257 C 0.14871 0.90746 0.70448 0.0
C4258 C 0.14565 0.92019 0.70476 0.0
C4259 C 0.14288 0.91309 0.69431 0.0
C4260 C 0.14587 0.9071 0.69757 0.0
C4261 C 0.14267 0.91976 0.69781 0.0
C4262 C 0.14865 0.91408 0.70808 0.0
C4263 C 0.15108 0.90061 0.70771 0.0
O4264 O 0.16232 0.88288 0.7139 0.0
O4265 O 0.15232 0.8825 0.72001 0.0
O4266 O 0.14772 0.89824 0.71341 0.0
O4267 O 0.15791 0.89889 0.70752 0.0
H4268 H 0.14899 0.87962 0.70406 0.0
H4269 H 0.14363 0.86955 0.69749 0.0
H4270 H 0.15393 0.85477 0.71197 0.0
H4271 H 0.15913 0.8648 0.71851 0.0
H4272 H 0.16755 0.88976 0.75171 0.0
H4273 H 0.1633 0.88846 0.73929 0.0
H4274 H 0.17587 0.91068 0.7465 0.0
H4275 H 0.17147 0.90942 0.73435 0.0
H4276 H 0.14562 0.92522 0.70763 0.0
H4277 H 0.14047 0.9124 0.68909 0.0
H4278 H 0.14577 0.90205 0.69472 0.0
H4279 H 0.15079 0.9145 0.71344 0.0
C4280 C 0.39924 0.90282 0.96077 0.0
C4281 C 0.39828 0.899 0.95438 0.0
C4282 C 0.41119 0.89677 0.9537 0.0
C4283 C 0.40423 0.89603 0.95083 0.0
C4284 C 0.41209 0.90082 0.95996 0.0
C4285 C 0.40619 0.90382 0.96343 0.0
U4286 U 0.37947 0.90686 0.96786 0.0
O4287 O 0.37674 0.90626 0.97929 0.0
O4288 O 0.37646 0.91673 0.9737 0.0
C4289 C 0.3753 0.91312 0.97962 0.0
C4290 C 0.39325 0.90549 0.96519 0.0
C4291 C 0.37447 0.91666 0.98658 0.0
C4292 C 0.37909 0.92046 0.99813 0.0
C4293 C 0.38031 0.91816 0.99107 0.0
C4294 C 0.36627 0.91997 0.99609 0.0
C4295 C 0.37205 0.92121 1.00071 0.0
C4296 C 0.36749 0.91776 0.98907 0.0
C4297 C 0.36327 0.89899 0.95551 0.0
C4298 C 0.35172 0.89287 0.95523 0.0
C4299 C 0.35807 0.89527 0.94421 0.0
C4300 C 0.36353 0.89863 0.94804 0.0
C4301 C 0.35222 0.89207 0.94774 0.0
C4302 C 0.35722 0.89629 0.95909 0.0
C4303 C 0.36967 0.90169 0.9593 0.0
O4304 O 0.3894 0.91089 0.96282 0.0
O4305 O 0.38952 0.90077 0.96881 0.0
O4306 O 0.37243 0.89803 0.96463 0.0
O4307 O 0.37217 0.90822 0.95853 0.0
H4308 H 0.39295 0.89816 0.95224 0.0
H4309 H 0.40338 0.89292 0.94602 0.0
H4310 H 0.41737 0.90156 0.96225 0.0
H4311 H 0.40705 0.90678 0.96834 0.0
H4312 H 0.3836 0.92128 1.00167 0.0
H4313 H 0.38575 0.91728 0.98925 0.0
H4314 H 0.36081 0.92037 0.99802 0.0
H4315 H 0.36293 0.91653 0.98568 0.0
H4316 H 0.3473 0.89053 0.95815 0.0
H4317 H 0.35858 0.89498 0.93845 0.0
H4318 H 0.36811 0.90072 0.94517 0.0
H4319 H 0.35688 0.89658 0.96487 0.0
C4320 C 0.36914 0.87311 0.31057 0.0
C4321 C 0.37338 0.87425 0.31668 0.0
C4322 C 0.3753 0.86132 0.31798 0.0
C4323 C 0.3764 0.8684 0.32038 0.0
C4324 C 0.3708 0.86026 0.31203 0.0
C4325 C 0.36778 0.86606 0.3084 0.0
U4326 U 0.36569 0.89295 0.30398 0.0
O4327 O 0.36641 0.89667 0.29283 0.0
O4328 O 0.356 0.897 0.2984 0.0
C4329 C 0.35962 0.8985 0.29255 0.0
C4330 C 0.36638 0.87898 0.30597 0.0
C4331 C 0.35602 0.89862 0.28548 0.0
C4332 C 0.35276 0.8933 0.274 0.0
C4333 C 0.35508 0.89254 0.28115 0.0
C4334 C 0.35197 0.90611 0.2756 0.0
C4335 C 0.35135 0.90013 0.27114 0.0
C4336 C 0.35426 0.90536 0.28268 0.0
C4337 C 0.3742 0.90821 0.31678 0.0
C4338 C 0.37769 0.92082 0.31674 0.0
C4339 C 0.38014 0.91346 0.32708 0.0
C4340 C 0.37695 0.90764 0.32371 0.0
C4341 C 0.38061 0.92016 0.32369 0.0
C4342 C 0.37451 0.91488 0.31329 0.0
C4343 C 0.3717 0.90147 0.31343 0.0
O4344 O 0.36112 0.88297 0.30842 0.0
O4345 O 0.37113 0.88264 0.3023 0.0
O4346 O 0.37511 0.89892 0.30784 0.0
O4347 O 0.36492 0.89958 0.31379 0.0
H4348 H 0.37451 0.87964 0.31848 0.0
H4349 H 0.37984 0.86944 0.32492 0.0
H4350 H 0.36969 0.85491 0.3101 0.0
H4351 H 0.3645 0.86503 0.30373 0.0
H4352 H 0.35239 0.88861 0.27062 0.0
H4353 H 0.35644 0.88729 0.28316 0.0
H4354 H 0.35107 0.91143 0.27349 0.0
H4355 H 0.35501 0.91013 0.28589 0.0
H4356 H 0.37791 0.92589 0.31395 0.0
H4357 H 0.38248 0.91259 0.33231 0.0
H4358 H 0.37686 0.90254 0.32647 0.0
H4359 H 0.37244 0.91546 0.30791 0.0
C4360 C 0.3992 0.1179 0.56054 0.0
C4361 C 0.39808 0.12186 0.56685 0.0
C4362 C 0.41101 0.12409 0.56791 0.0
C4363 C 0.40395 0.12489 0.57052 0.0
C4364 C 0.41206 0.11988 0.56177 0.0
C4365 C 0.40624 0.11683 0.55816 0.0
U4366 U 0.37921 0.11458 0.55436 0.0
O4367 O 0.37514 0.11539 0.54334 0.0
O4368 O 0.37491 0.10499 0.54883 0.0
C4369 C 0.3733 0.10862 0.54303 0.0
C4370 C 0.39326 0.11516 0.556 0.0
C4371 C 0.37337 0.10505 0.53593 0.0
C4372 C 0.37891 0.10216 0.52445 0.0
C4373 C 0.37952 0.10448 0.53161 0.0
C4374 C 0.36614 0.10059 0.52602 0.0
C4375 C 0.37217 0.10034 0.52157 0.0
C4376 C 0.36674 0.10292 0.53311 0.0
C4377 C 0.36399 0.12283 0.56719 0.0
C4378 C 0.35161 0.12706 0.56629 0.0
C4379 C 0.35795 0.12795 0.57754 0.0
C4380 C 0.36396 0.12479 0.57442 0.0
C4381 C 0.35172 0.12926 0.57352 0.0
C4382 C 0.35771 0.12385 0.56314 0.0
C4383 C 0.37098 0.12058 0.56412 0.0
O4384 O 0.38929 0.10992 0.5585 0.0
O4385 O 0.38955 0.11992 0.55241 0.0
O4386 O 0.37346 0.124 0.55851 0.0
O4387 O 0.37288 0.11382 0.56437 0.0
H4388 H 0.3927 0.12277 0.56881 0.0
H4389 H 0.40294 0.12811 0.57524 0.0
H4390 H 0.4174 0.11902 0.55966 0.0
H4391 H 0.40724 0.11377 0.55334 0.0
H4392 H 0.38363 0.10205 0.52109 0.0
H4393 H 0.3847 0.10611 0.53364 0.0
H4394 H 0.36087 0.09937 0.5239 0.0
H4395 H 0.36192 0.1034 0.5363 0.0
H4396 H 0.34689 0.12796 0.56305 0.0
H4397 H 0.3583 0.12968 0.58306 0.0
H4398 H 0.36876 0.12416 0.57763 0.0
H4399 H 0.35758 0.12239 0.55753 0.0
C4400 C 0.1543 0.14788 0.81059 0.0
C4401 C 0.14995 0.14672 0.81663 0.0
C4402 C 0.14813 0.15965 0.81801 0.0
C4403 C 0.14692 0.15256 0.82033 0.0
C4404 C 0.15273 0.16072 0.81215 0.0
C4405 C 0.15575 0.15493 0.8085 0.0
U4406 U 0.15772 0.12799 0.80434 0.0
O4407 O 0.15693 0.12398 0.79329 0.0
O4408 O 0.16738 0.12384 0.79877 0.0
C4409 C 0.16374 0.12222 0.79297 0.0
C4410 C 0.15705 0.142 0.806 0.0
C4411 C 0.16731 0.12209 0.78587 0.0
C4412 C 0.17095 0.12746 0.7745 0.0
C4413 C 0.16861 0.1282 0.78165 0.0
C4414 C 0.17097 0.1146 0.77586 0.0
C4415 C 0.17193 0.12061 0.77149 0.0
C4416 C 0.16874 0.11534 0.78295 0.0
C4417 C 0.14955 0.11272 0.81715 0.0
C4418 C 0.14527 0.1004 0.81615 0.0
C4419 C 0.14441 0.1066 0.82747 0.0
C4420 C 0.14758 0.11264 0.82439 0.0
C4421 C 0.14307 0.10046 0.82337 0.0
C4422 C 0.14853 0.10648 0.81306 0.0
C4423 C 0.15177 0.11972 0.8141 0.0
O4424 O 0.16234 0.13807 0.80847 0.0
O4425 O 0.15228 0.13827 0.80244 0.0
O4426 O 0.14833 0.12218 0.80849 0.0
O4427 O 0.15854 0.12164 0.81433 0.0
H4428 H 0.14875 0.14133 0.81836 0.0
H4429 H 0.1434 0.15151 0.82481 0.0
H4430 H 0.15392 0.16607 0.81028 0.0
H4431 H 0.15911 0.15596 0.80389 0.0
H4432 H 0.17158 0.13218 0.7712 0.0
H4433 H 0.16753 0.13348 0.78377 0.0
H4434 H 0.17161 0.10927 0.77367 0.0
H4435 H 0.16775 0.11055 0.78607 0.0
H4436 H 0.14431 0.09573 0.81286 0.0
H4437 H 0.14267 0.10687 0.83299 0.0
H4438 H 0.14822 0.11739 0.82764 0.0
H4439 H 0.14999 0.1064 0.80745 0.0
C4440 C 0.12424 0.90324 0.05987 0.0
C4441 C 0.12544 0.89926 0.06614 0.0
C4442 C 0.11254 0.89702 0.06742 0.0
C4443 C 0.11964 0.89621 0.0699 0.0
C4444 C 0.11139 0.90125 0.0613 0.0
C4445 C 0.11715 0.90431 0.05759 0.0
U4446 U 0.14428 0.90625 0.0542 0.0
O4447 O 0.1489 0.90537 0.04341 0.0
O4448 O 0.1491 0.91573 0.04893 0.0
C4449 C 0.15081 0.91212 0.04313 0.0
C4450 C 0.13015 0.90601 0.0553 0.0
C4451 C 0.15045 0.91573 0.03606 0.0
C4452 C 0.14457 0.91822 0.02465 0.0
C4453 C 0.14423 0.91588 0.03182 0.0
C4454 C 0.15722 0.92066 0.02603 0.0
C4455 C 0.15113 0.92048 0.02166 0.0
C4456 C 0.15688 0.91832 0.03314 0.0
C4457 C 0.1588 0.89765 0.06743 0.0
C4458 C 0.1714 0.89408 0.0668 0.0
C4459 C 0.16466 0.89217 0.07768 0.0
C4460 C 0.15863 0.89523 0.07451 0.0
C4461 C 0.17115 0.89148 0.0739 0.0
C4462 C 0.16527 0.89715 0.06358 0.0
C4463 C 0.15187 0.89998 0.06429 0.0
O4464 O 0.13415 0.91118 0.0579 0.0
O4465 O 0.13388 0.90123 0.05175 0.0
O4466 O 0.14952 0.89664 0.05857 0.0
O4467 O 0.15014 0.90679 0.06449 0.0
H4468 H 0.13085 0.89836 0.06802 0.0
H4469 H 0.12075 0.89298 0.07457 0.0
H4470 H 0.10602 0.90213 0.0593 0.0
H4471 H 0.11607 0.90739 0.05281 0.0
H4472 H 0.13981 0.91796 0.02135 0.0
H4473 H 0.1392 0.91389 0.03392 0.0
H4474 H 0.16236 0.92223 0.02383 0.0
H4475 H 0.16177 0.91818 0.03627 0.0
H4476 H 0.1763 0.89368 0.06372 0.0
H4477 H 0.16413 0.89009 0.08306 0.0
H4478 H 0.15369 0.89546 0.07756 0.0
H4479 H 0.16553 0.89896 0.05809 0.0
C4480 C 0.21215 0.36795 0.14825 0.0
C4481 C 0.20623 0.37244 0.14705 0.0
C4482 C 0.20462 0.37415 0.15999 0.0
C4483 C 0.20248 0.37549 0.15286 0.0
C4484 C 0.21037 0.36939 0.16111 0.0
C4485 C 0.21406 0.36636 0.15533 0.0
U4486 U 0.21848 0.36464 0.12835 0.0
O4487 O 0.2295 0.3655 0.12424 0.0
O4488 O 0.22405 0.35508 0.124 0.0
C4489 C 0.22986 0.35874 0.12239 0.0
C4490 C 0.21682 0.36521 0.1424 0.0
C4491 C 0.23699 0.3552 0.12251 0.0
C4492 C 0.24861 0.35267 0.12798 0.0
C4493 C 0.24143 0.35498 0.12858 0.0
C4494 C 0.24684 0.35042 0.11536 0.0
C4495 C 0.25144 0.35053 0.1213 0.0
C4496 C 0.23973 0.35274 0.11596 0.0
C4497 C 0.20552 0.37287 0.11324 0.0
C4498 C 0.20634 0.37706 0.10087 0.0
C4499 C 0.19512 0.37801 0.10727 0.0
C4500 C 0.19828 0.37485 0.11326 0.0
C4501 C 0.1991 0.37928 0.10102 0.0
C4502 C 0.20953 0.37387 0.10694 0.0
C4503 C 0.20863 0.37061 0.1202 0.0
O4504 O 0.2144 0.35993 0.13844 0.0
O4505 O 0.2204 0.36998 0.13869 0.0
O4506 O 0.21425 0.37405 0.12266 0.0
O4507 O 0.20843 0.36384 0.12208 0.0
H4508 H 0.20462 0.37376 0.14164 0.0
H4509 H 0.1981 0.37912 0.15176 0.0
H4510 H 0.2121 0.36808 0.16648 0.0
H4511 H 0.21858 0.36289 0.15641 0.0
H4512 H 0.25201 0.35277 0.13267 0.0
H4513 H 0.23946 0.35684 0.1337 0.0
H4514 H 0.24886 0.34892 0.11014 0.0
H4515 H 0.23645 0.35293 0.11118 0.0
H4516 H 0.20956 0.37793 0.09612 0.0
H4517 H 0.1896 0.37975 0.10767 0.0
H4518 H 0.1951 0.37423 0.11807 0.0
H4519 H 0.21514 0.37239 0.10678 0.0
C4520 C 0.71213 0.15303 0.87358 0.0
C4521 C 0.70617 0.14858 0.87477 0.0
C4522 C 0.70463 0.14686 0.86183 0.0
C4523 C 0.70244 0.14555 0.86895 0.0
C4524 C 0.71041 0.15157 0.86073 0.0
C4525 C 0.71409 0.15459 0.86651 0.0
U4526 U 0.71837 0.1563 0.89348 0.0
O4527 O 0.72938 0.15528 0.8976 0.0
O4528 O 0.72408 0.16579 0.89779 0.0
C4529 C 0.72982 0.16204 0.89941 0.0
C4530 C 0.71678 0.15574 0.87944 0.0
C4531 C 0.73701 0.16548 0.89942 0.0
C4532 C 0.74847 0.16869 0.89396 0.0
C4533 C 0.74131 0.16631 0.8933 0.0
C4534 C 0.74697 0.16959 0.90678 0.0
C4535 C 0.75146 0.17022 0.90076 0.0
C4536 C 0.73988 0.1673 0.9061 0.0
C4537 C 0.70539 0.14825 0.90864 0.0
C4538 C 0.70645 0.14398 0.92096 0.0
C4539 C 0.69508 0.14317 0.91482 0.0
C4540 C 0.69814 0.14632 0.90876 0.0
C4541 C 0.69921 0.14181 0.92094 0.0
C4542 C 0.70953 0.14721 0.91486 0.0
C4543 C 0.70843 0.15044 0.90162 0.0
O4544 O 0.71438 0.16104 0.88338 0.0
O4545 O 0.72029 0.15093 0.88317 0.0
O4546 O 0.71401 0.14694 0.89915 0.0
O4547 O 0.70832 0.15722 0.89976 0.0
H4548 H 0.70453 0.14729 0.88018 0.0
H4549 H 0.69803 0.14195 0.87003 0.0
H4550 H 0.71218 0.15286 0.85536 0.0
H4551 H 0.71864 0.15803 0.86545 0.0
H4552 H 0.7517 0.1692 0.88918 0.0
H4553 H 0.73923 0.16494 0.88807 0.0
H4554 H 0.74902 0.17055 0.91211 0.0
H4555 H 0.7367 0.16664 0.91091 0.0
H4556 H 0.70976 0.14301 0.92562 0.0
H4557 H 0.68954 0.14146 0.91458 0.0
H4558 H 0.69486 0.14697 0.90402 0.0
H4559 H 0.71515 0.14864 0.91491 0.0
C4560 C 0.11895 0.46152 0.12352 0.0
C4561 C 0.12312 0.45538 0.12474 0.0
C4562 C 0.12517 0.45395 0.11184 0.0
C4563 C 0.12617 0.45161 0.11896 0.0
C4564 C 0.12075 0.45993 0.11068 0.0
C4565 C 0.11769 0.46365 0.11644 0.0
U4566 U 0.11588 0.46741 0.14349 0.0
O4567 O 0.11683 0.47825 0.14793 0.0
O4568 O 0.1064 0.47281 0.1482 0.0
C4569 C 0.11006 0.47859 0.14985 0.0
C4570 C 0.11618 0.46612 0.1294 0.0
C4571 C 0.1065 0.48568 0.14955 0.0
C4572 C 0.10416 0.49722 0.14389 0.0
C4573 C 0.10652 0.49006 0.14344 0.0
C4574 C 0.10148 0.49556 0.15644 0.0
C4575 C 0.10178 0.50012 0.15046 0.0
C4576 C 0.1038 0.48846 0.15598 0.0
C4577 C 0.12461 0.4541 0.15798 0.0
C4578 C 0.12742 0.45399 0.17078 0.0
C4579 C 0.13093 0.44406 0.16328 0.0
C4580 C 0.12785 0.4474 0.15737 0.0
C4581 C 0.13079 0.44724 0.17011 0.0
C4582 C 0.12436 0.45741 0.16475 0.0
C4583 C 0.12211 0.45742 0.15122 0.0
O4584 O 0.11098 0.46358 0.13341 0.0
O4585 O 0.12097 0.46969 0.1331 0.0
O4586 O 0.12549 0.46309 0.14881 0.0
O4587 O 0.11527 0.45725 0.14955 0.0
H4588 H 0.12417 0.4536 0.13016 0.0
H4589 H 0.12956 0.44704 0.12008 0.0
H4590 H 0.1197 0.46183 0.10531 0.0
H4591 H 0.11447 0.46834 0.11534 0.0
H4592 H 0.10438 0.50053 0.13915 0.0
H4593 H 0.10858 0.48805 0.13841 0.0
H4594 H 0.09981 0.49758 0.16161 0.0
H4595 H 0.10381 0.48522 0.16078 0.0
H4596 H 0.12718 0.45663 0.17593 0.0
H4597 H 0.13364 0.43902 0.16239 0.0
H4598 H 0.1282 0.44478 0.15221 0.0
H4599 H 0.12191 0.46262 0.16535 0.0
C4600 C 0.81134 0.86785 0.37347 0.0
C4601 C 0.81776 0.87165 0.37453 0.0
C4602 C 0.81866 0.87404 0.36165 0.0
C4603 C 0.82142 0.87467 0.36866 0.0
C4604 C 0.81239 0.87001 0.36064 0.0
C4605 C 0.80881 0.86694 0.36646 0.0
U4606 U 0.8052 0.86458 0.39347 0.0
O4607 O 0.79417 0.86558 0.39752 0.0
O4608 O 0.79948 0.85508 0.39775 0.0
C4609 C 0.79372 0.85881 0.39934 0.0
C4610 C 0.80681 0.86515 0.37943 0.0
C4611 C 0.78654 0.85537 0.39927 0.0
C4612 C 0.77497 0.8526 0.39382 0.0
C4613 C 0.78214 0.85492 0.39318 0.0
C4614 C 0.77664 0.85092 0.40653 0.0
C4615 C 0.77207 0.85072 0.40055 0.0
C4616 C 0.78375 0.8532 0.40588 0.0
C4617 C 0.81809 0.87264 0.4087 0.0
C4618 C 0.817 0.87678 0.42107 0.0
C4619 C 0.82833 0.87789 0.41488 0.0
C4620 C 0.82531 0.87472 0.40881 0.0
C4621 C 0.82419 0.87911 0.42102 0.0
C4622 C 0.81397 0.87353 0.41495 0.0
C4623 C 0.81508 0.87043 0.40168 0.0
O4624 O 0.80929 0.85988 0.38338 0.0
O4625 O 0.80328 0.86994 0.38316 0.0
O4626 O 0.80951 0.87393 0.39918 0.0
O4627 O 0.81521 0.86366 0.39981 0.0
H4628 H 0.81983 0.87244 0.37989 0.0
H4629 H 0.82623 0.87776 0.36962 0.0
H4630 H 0.81017 0.86932 0.35533 0.0
H4631 H 0.8039 0.86401 0.3655 0.0
H4632 H 0.77164 0.85243 0.38907 0.0
H4633 H 0.78416 0.85657 0.388 0.0
H4634 H 0.77464 0.84965 0.41182 0.0
H4635 H 0.787 0.85356 0.41067 0.0
H4636 H 0.81369 0.87767 0.42575 0.0
H4637 H 0.83383 0.87973 0.41463 0.0
H4638 H 0.82858 0.87418 0.40405 0.0
H4639 H 0.80838 0.87198 0.41502 0.0
C4640 C 0.90441 0.06064 0.12332 0.0
C4641 C 0.89953 0.06624 0.12452 0.0
C4642 C 0.89793 0.06775 0.11161 0.0
C4643 C 0.89629 0.06975 0.1187 0.0
C4644 C 0.90306 0.06239 0.11046 0.0
C4645 C 0.90623 0.05886 0.11626 0.0
U4646 U 0.90775 0.05368 0.14307 0.0
O4647 O 0.9067 0.04243 0.14635 0.0
O4648 O 0.9173 0.04771 0.14688 0.0
C4649 C 0.91348 0.04194 0.14814 0.0
C4650 C 0.90712 0.05598 0.12914 0.0
C4651 C 0.91685 0.03481 0.1487 0.0
C4652 C 0.92145 0.02358 0.14384 0.0
C4653 C 0.91904 0.03067 0.14281 0.0
C4654 C 0.9195 0.02483 0.15657 0.0
C4655 C 0.92161 0.02051 0.15077 0.0
C4656 C 0.91725 0.03185 0.15555 0.0
C4657 C 0.89919 0.06634 0.15853 0.0
C4658 C 0.89607 0.06669 0.17126 0.0
C4659 C 0.89278 0.0765 0.1635 0.0
C4660 C 0.89598 0.07304 0.15773 0.0
C4661 C 0.89275 0.07343 0.17038 0.0
C4662 C 0.89926 0.06315 0.16536 0.0
C4663 C 0.90185 0.06289 0.1519 0.0
O4664 O 0.91238 0.05835 0.13319 0.0
O4665 O 0.90231 0.05232 0.13272 0.0
O4666 O 0.89834 0.05747 0.14912 0.0
O4667 O 0.90865 0.0632 0.1501 0.0
H4668 H 0.89804 0.06772 0.12992 0.0
H4669 H 0.89239 0.07392 0.11971 0.0
H4670 H 0.90439 0.06072 0.10507 0.0
H4671 H 0.90994 0.05452 0.11521 0.0
H4672 H 0.92311 0.02052 0.13922 0.0
H4673 H 0.91875 0.03284 0.13744 0.0
H4674 H 0.91928 0.02274 0.16196 0.0
H4675 H 0.91552 0.03492 0.16015 0.0
H4676 H 0.89619 0.06415 0.17646 0.0
H4677 H 0.89012 0.08153 0.16246 0.0
H4678 H 0.89577 0.07556 0.15251 0.0
H4679 H 0.90168 0.05794 0.16612 0.0
C4680 C 0.31049 0.65326 0.64802 0.0
C4681 C 0.31727 0.65018 0.64693 0.0
C4682 C 0.31812 0.64682 0.6597 0.0
C4683 C 0.32106 0.64707 0.65269 0.0
C4684 C 0.31136 0.65014 0.66064 0.0
C4685 C 0.30768 0.6533 0.65494 0.0
U4686 U 0.30499 0.65662 0.62804 0.0
O4687 O 0.29425 0.65561 0.62327 0.0
O4688 O 0.29958 0.66606 0.62328 0.0
C4689 C 0.29385 0.66239 0.62148 0.0
C4690 C 0.30596 0.65615 0.64213 0.0
C4691 C 0.28669 0.66587 0.62193 0.0
C4692 C 0.27515 0.66785 0.62778 0.0
C4693 C 0.28235 0.66559 0.62808 0.0
C4694 C 0.27666 0.67112 0.61536 0.0
C4695 C 0.27219 0.67049 0.62136 0.0
C4696 C 0.28381 0.66881 0.61564 0.0
C4697 C 0.31835 0.6484 0.61353 0.0
C4698 C 0.31725 0.6447 0.60104 0.0
C4699 C 0.32833 0.64263 0.60743 0.0
C4700 C 0.32543 0.64587 0.61351 0.0
C4701 C 0.32424 0.64185 0.60119 0.0
C4702 C 0.31431 0.64797 0.60719 0.0
C4703 C 0.31531 0.65059 0.62053 0.0
O4704 O 0.30856 0.66141 0.63825 0.0
O4705 O 0.30243 0.65144 0.63831 0.0
O4706 O 0.30964 0.64714 0.62284 0.0
O4707 O 0.31534 0.6574 0.62228 0.0
H4708 H 0.31959 0.6501 0.64162 0.0
H4709 H 0.32625 0.64483 0.6515 0.0
H4710 H 0.30861 0.65023 0.6657 0.0
H4711 H 0.30246 0.65566 0.65594 0.0
H4712 H 0.27182 0.6673 0.63249 0.0
H4713 H 0.28443 0.66334 0.63299 0.0
H4714 H 0.27452 0.67301 0.61031 0.0
H4715 H 0.287 0.66901 0.6108 0.0
H4716 H 0.31396 0.64409 0.5963 0.0
H4717 H 0.33367 0.64038 0.60773 0.0
H4718 H 0.32862 0.64608 0.61835 0.0
H4719 H 0.30883 0.64986 0.60708 0.0
C4720 C 0.11926 0.56035 0.3983 0.0
C4721 C 0.12374 0.56627 0.39715 0.0
C4722 C 0.12541 0.56772 0.41009 0.0
C4723 C 0.12676 0.56995 0.403 0.0
C4724 C 0.12067 0.56197 0.41116 0.0
C4725 C 0.11765 0.55835 0.40535 0.0
U4726 U 0.11563 0.55333 0.37858 0.0
O4727 O 0.11653 0.54205 0.37537 0.0
O4728 O 0.10597 0.54743 0.37499 0.0
C4729 C 0.10972 0.54162 0.37368 0.0
C4730 C 0.11655 0.55572 0.39247 0.0
C4731 C 0.10629 0.53453 0.37314 0.0
C4732 C 0.10196 0.52324 0.37803 0.0
C4733 C 0.10436 0.53032 0.37906 0.0
C4734 C 0.10336 0.52464 0.36524 0.0
C4735 C 0.10156 0.52025 0.37109 0.0
C4736 C 0.10562 0.53167 0.36626 0.0
C4737 C 0.12407 0.56612 0.36309 0.0
C4738 C 0.12705 0.56709 0.35038 0.0
C4739 C 0.13076 0.57631 0.35865 0.0
C4740 C 0.12748 0.57266 0.36425 0.0
C4741 C 0.13062 0.57365 0.35159 0.0
C4742 C 0.12382 0.56332 0.3561 0.0
C4743 C 0.12136 0.56236 0.36952 0.0
O4744 O 0.11121 0.55806 0.38851 0.0
O4745 O 0.12132 0.55207 0.38882 0.0
O4746 O 0.12492 0.55696 0.37225 0.0
O4747 O 0.11461 0.56279 0.3715 0.0
H4748 H 0.12507 0.56792 0.39175 0.0
H4749 H 0.1304 0.57434 0.40195 0.0
H4750 H 0.11936 0.56018 0.41651 0.0
H4751 H 0.11419 0.55381 0.40638 0.0
H4752 H 0.10052 0.5201 0.38268 0.0
H4753 H 0.10486 0.53243 0.38443 0.0
H4754 H 0.10336 0.52261 0.35983 0.0
H4755 H 0.10715 0.5348 0.36163 0.0
H4756 H 0.12676 0.56484 0.34506 0.0
H4757 H 0.13363 0.58115 0.35999 0.0
H4758 H 0.1278 0.57487 0.3696 0.0
H4759 H 0.12124 0.55824 0.35508 0.0
C4760 C 0.40369 0.45924 0.89794 0.0
C4761 C 0.39911 0.45337 0.89714 0.0
C4762 C 0.39782 0.45254 0.91015 0.0
C4763 C 0.39623 0.45002 0.90321 0.0
C4764 C 0.40262 0.45829 0.91087 0.0
C4765 C 0.40551 0.46159 0.90482 0.0
U4766 U 0.40772 0.46748 0.87847 0.0
O4767 O 0.41742 0.47395 0.87658 0.0
O4768 O 0.40678 0.47922 0.87745 0.0
C4769 C 0.41374 0.47994 0.87677 0.0
C4770 C 0.4061 0.46356 0.89184 0.0
C4771 C 0.41702 0.48678 0.87479 0.0
C4772 C 0.41992 0.49896 0.87821 0.0
C4773 C 0.41758 0.4921 0.88002 0.0
C4774 C 0.4216 0.49511 0.86597 0.0
C4775 C 0.42186 0.50065 0.87112 0.0
C4776 C 0.41911 0.48827 0.86777 0.0
C4777 C 0.39987 0.45579 0.86182 0.0
C4778 C 0.39652 0.45388 0.84937 0.0
C4779 C 0.39297 0.44531 0.8584 0.0
C4780 C 0.39642 0.4494 0.86367 0.0
C4781 C 0.39288 0.44755 0.85118 0.0
C4782 C 0.39997 0.45794 0.85463 0.0
C4783 C 0.40301 0.46056 0.86726 0.0
O4784 O 0.41158 0.46146 0.88793 0.0
O4785 O 0.40127 0.46724 0.88829 0.0
O4786 O 0.4094 0.45936 0.87 0.0
O4787 O 0.399 0.46507 0.87086 0.0
H4788 H 0.3976 0.45153 0.89186 0.0
H4789 H 0.3925 0.44565 0.90245 0.0
H4790 H 0.40407 0.46031 0.9161 0.0
H4791 H 0.40902 0.46616 0.90553 0.0
H4792 H 0.41988 0.50297 0.88238 0.0
H4793 H 0.41597 0.49102 0.88548 0.0
H4794 H 0.42322 0.496 0.86049 0.0
H4795 H 0.41871 0.4842 0.86367 0.0
H4796 H 0.39666 0.45573 0.84388 0.0
H4797 H 0.39015 0.44053 0.86004 0.0
H4798 H 0.39625 0.44767 0.8692 0.0
H4799 H 0.40261 0.46286 0.8531 0.0
C4800 C 0.87419 0.81249 0.65607 0.0
C4801 C 0.87512 0.81878 0.65207 0.0
C4802 C 0.86237 0.81876 0.64884 0.0
C4803 C 0.86925 0.82191 0.64851 0.0
C4804 C 0.86145 0.81273 0.65325 0.0
C4805 C 0.86728 0.80964 0.65678 0.0
U4806 U 0.89419 0.80614 0.65969 0.0
O4807 O 0.89802 0.80003 0.66914 0.0
O4808 O 0.89771 0.795 0.65845 0.0
C4809 C 0.89947 0.79437 0.66521 0.0
C4810 C 0.88022 0.80818 0.65893 0.0
C4811 C 0.89984 0.78714 0.66837 0.0
C4812 C 0.89462 0.77589 0.67243 0.0
C4813 C 0.89383 0.78316 0.67054 0.0
C4814 C 0.90737 0.77669 0.67018 0.0
C4815 C 0.90139 0.77258 0.67207 0.0
C4816 C 0.9066 0.78388 0.6684 0.0
C4817 C 0.90973 0.81847 0.65098 0.0
C4818 C 0.9222 0.81781 0.64696 0.0
C4819 C 0.91494 0.82808 0.64396 0.0
C4820 C 0.9092 0.82517 0.64773 0.0
C4821 C 0.92154 0.82446 0.64341 0.0
C4822 C 0.91632 0.81481 0.65069 0.0
C4823 C 0.90293 0.81539 0.6537 0.0
O4824 O 0.88391 0.80449 0.65423 0.0
O4825 O 0.88418 0.81078 0.66413 0.0
O4826 O 0.90126 0.81567 0.66053 0.0
O4827 O 0.90004 0.81001 0.65024 0.0
H4828 H 0.88041 0.82109 0.65145 0.0
H4829 H 0.87018 0.82656 0.6452 0.0
H4830 H 0.85625 0.81025 0.65383 0.0
H4831 H 0.86643 0.80481 0.65986 0.0
H4832 H 0.88992 0.77278 0.67378 0.0
H4833 H 0.88854 0.78555 0.67051 0.0
H4834 H 0.91261 0.77424 0.66976 0.0
H4835 H 0.91129 0.78684 0.66668 0.0
H4836 H 0.92719 0.81487 0.64675 0.0
H4837 H 0.91403 0.83307 0.64119 0.0
H4838 H 0.90416 0.82805 0.64779 0.0
H4839 H 0.91686 0.80959 0.65315 0.0
C4840 C 0.96054 0.12301 0.4061 0.0
C4841 C 0.95382 0.12377 0.40279 0.0
C4842 C 0.95414 0.11124 0.39888 0.0
C4843 C 0.95062 0.11792 0.39925 0.0
C4844 C 0.96066 0.11045 0.40259 0.0
C4845 C 0.96379 0.11625 0.40613 0.0
U4846 U 0.96589 0.1432 0.40925 0.0
O4847 O 0.972 0.14774 0.4184 0.0
O4848 O 0.97668 0.14764 0.40761 0.0
C4849 C 0.9775 0.14945 0.41434 0.0
C4850 C 0.96477 0.12912 0.40892 0.0
C4851 C 0.9849 0.14934 0.4173 0.0
C4852 C 0.9962 0.14353 0.42055 0.0
C4853 C 0.98888 0.14308 0.41859 0.0
C4854 C 0.99552 0.15641 0.41997 0.0
C4855 C 0.99968 0.15023 0.42116 0.0
C4856 C 0.98828 0.15596 0.41814 0.0
C4857 C 0.95307 0.15812 0.40083 0.0
C4858 C 0.95492 0.17022 0.3962 0.0
C4859 C 0.94342 0.16446 0.39475 0.0
C4860 C 0.94598 0.15845 0.39838 0.0
C4861 C 0.94789 0.17037 0.39342 0.0
C4862 C 0.9575 0.16414 0.39989 0.0
C4863 C 0.95576 0.15104 0.40328 0.0
O4864 O 0.96825 0.1329 0.40413 0.0
O4865 O 0.96207 0.13306 0.41409 0.0
O4866 O 0.95585 0.14954 0.41015 0.0
O4867 O 0.96117 0.14827 0.39975 0.0
H4868 H 0.95119 0.12893 0.40269 0.0
H4869 H 0.94558 0.11872 0.39649 0.0
H4870 H 0.96345 0.10538 0.40258 0.0
H4871 H 0.96896 0.1155 0.40868 0.0
H4872 H 0.99914 0.13863 0.42148 0.0
H4873 H 0.98641 0.13788 0.41795 0.0
H4874 H 0.9979 0.16168 0.42015 0.0
H4875 H 0.98537 0.16086 0.41709 0.0
H4876 H 0.95849 0.1747 0.39534 0.0
H4877 H 0.93803 0.16431 0.39261 0.0
H4878 H 0.94249 0.15385 0.39895 0.0
H4879 H 0.963 0.16403 0.40172 0.0
C4880 C 0.64937 0.20839 0.15594 0.0
C4881 C 0.64852 0.20197 0.15212 0.0
C4882 C 0.66122 0.2022 0.14867 0.0
C4883 C 0.65442 0.19888 0.14855 0.0
C4884 C 0.66206 0.20837 0.15289 0.0
C4885 C 0.65622 0.21141 0.15644 0.0
U4886 U 0.62935 0.21476 0.15968 0.0
O4887 O 0.62569 0.22093 0.16916 0.0
O4888 O 0.62599 0.22596 0.15844 0.0
C4889 C 0.62432 0.22661 0.16523 0.0
C4890 C 0.6433 0.21263 0.1588 0.0
C4891 C 0.6237 0.23383 0.16838 0.0
C4892 C 0.62858 0.24514 0.17271 0.0
C4893 C 0.62955 0.23788 0.17087 0.0
C4894 C 0.61598 0.24419 0.16979 0.0
C4895 C 0.62181 0.2484 0.17194 0.0
C4896 C 0.61691 0.23701 0.16807 0.0
C4897 C 0.61364 0.20254 0.15106 0.0
C4898 C 0.60125 0.20338 0.14684 0.0
C4899 C 0.60829 0.19285 0.14424 0.0
C4900 C 0.61405 0.19573 0.14801 0.0
C4901 C 0.60181 0.19662 0.14348 0.0
C4902 C 0.60714 0.20634 0.15058 0.0
C4903 C 0.62047 0.2056 0.15375 0.0
O4904 O 0.63959 0.21632 0.15412 0.0
O4905 O 0.63936 0.21003 0.16402 0.0
O4906 O 0.62218 0.2053 0.16057 0.0
O4907 O 0.62338 0.21096 0.15028 0.0
H4908 H 0.64328 0.19952 0.15165 0.0
H4909 H 0.65355 0.19411 0.14539 0.0
H4910 H 0.66721 0.21099 0.15332 0.0
H4911 H 0.65701 0.21635 0.15938 0.0
H4912 H 0.63317 0.2483 0.17431 0.0
H4913 H 0.63485 0.23555 0.17112 0.0
H4914 H 0.61072 0.24656 0.16913 0.0
H4915 H 0.61235 0.23399 0.16614 0.0
H4916 H 0.59634 0.20643 0.14646 0.0
H4917 H 0.60911 0.18776 0.14162 0.0
H4918 H 0.61902 0.19274 0.14822 0.0
H4919 H 0.60669 0.21164 0.15288 0.0
C4920 C 0.56343 0.89785 0.90607 0.0
C4921 C 0.56961 0.89684 0.90189 0.0
C4922 C 0.56985 0.90963 0.89884 0.0
C4923 C 0.57281 0.90268 0.89834 0.0
C4924 C 0.56395 0.91061 0.90344 0.0
C4925 C 0.56079 0.90481 0.90696 0.0
U4926 U 0.55699 0.87791 0.9097 0.0
O4927 O 0.55084 0.87397 0.9191 0.0
O4928 O 0.54587 0.87429 0.9084 0.0
C4929 C 0.54519 0.87249 0.91515 0.0
C4930 C 0.55902 0.89188 0.90894 0.0
C4931 C 0.53789 0.87245 0.91827 0.0
C4932 C 0.52631 0.87796 0.92079 0.0
C4933 C 0.53363 0.87861 0.91902 0.0
C4934 C 0.52758 0.8651 0.92139 0.0
C4935 C 0.52318 0.87118 0.92183 0.0
C4936 C 0.53482 0.86574 0.91962 0.0
C4937 C 0.56961 0.86258 0.90099 0.0
C4938 C 0.56941 0.85 0.89735 0.0
C4939 C 0.57911 0.85769 0.89359 0.0
C4940 C 0.57609 0.86336 0.89736 0.0
C4941 C 0.57585 0.8509 0.89343 0.0
C4942 C 0.56628 0.85581 0.90107 0.0
C4943 C 0.56635 0.86926 0.90375 0.0
O4944 O 0.55533 0.88819 0.90425 0.0
O4945 O 0.56156 0.88792 0.91418 0.0
O4946 O 0.56657 0.8709 0.9106 0.0
O4947 O 0.56097 0.87213 0.90026 0.0
H4948 H 0.57178 0.89153 0.90113 0.0
H4949 H 0.57736 0.90167 0.89489 0.0
H4950 H 0.56162 0.91586 0.9042 0.0
H4951 H 0.55605 0.90575 0.91018 0.0
H4952 H 0.52305 0.88274 0.92114 0.0
H4953 H 0.53587 0.88384 0.91798 0.0
H4954 H 0.52532 0.85981 0.92204 0.0
H4955 H 0.53797 0.86092 0.91896 0.0
H4956 H 0.56674 0.84486 0.89745 0.0
H4957 H 0.58389 0.85881 0.89052 0.0
H4958 H 0.5787 0.86852 0.89713 0.0
H4959 H 0.56123 0.85507 0.90383 0.0
C4960 C 0.87416 0.20839 0.86601 0.0
C4961 C 0.87472 0.20161 0.86921 0.0
C4962 C 0.8622 0.20234 0.87316 0.0
C4963 C 0.86875 0.19858 0.87271 0.0
C4964 C 0.86162 0.20892 0.86958 0.0
C4965 C 0.86751 0.21188 0.86606 0.0
U4966 U 0.89419 0.21486 0.8618 0.0
O4967 O 0.8974 0.22124 0.8523 0.0
O4968 O 0.89731 0.22611 0.8631 0.0
C4969 C 0.89881 0.22687 0.85628 0.0
C4970 C 0.88033 0.2125 0.86319 0.0
C4971 C 0.89925 0.23412 0.85323 0.0
C4972 C 0.89411 0.24567 0.8501 0.0
C4973 C 0.89322 0.23841 0.85186 0.0
C4974 C 0.907 0.24428 0.85078 0.0
C4975 C 0.90102 0.24867 0.84969 0.0
C4976 C 0.90611 0.23708 0.85253 0.0
C4977 C 0.91036 0.20256 0.86946 0.0
C4978 C 0.9223 0.20337 0.8748 0.0
C4979 C 0.91552 0.19238 0.87563 0.0
C4980 C 0.91001 0.19542 0.87163 0.0
C4981 C 0.92157 0.19641 0.8776 0.0
C4982 C 0.91668 0.20647 0.8708 0.0
C4983 C 0.90355 0.20582 0.86705 0.0
O4984 O 0.88417 0.21607 0.86785 0.0
O4985 O 0.88409 0.21002 0.85777 0.0
O4986 O 0.90145 0.20554 0.86034 0.0
O4987 O 0.90075 0.21108 0.87078 0.0
H4988 H 0.87979 0.1988 0.86924 0.0
H4989 H 0.86936 0.19348 0.87538 0.0
H4990 H 0.85664 0.2119 0.86968 0.0
H4991 H 0.86694 0.21709 0.86359 0.0
H4992 H 0.88943 0.249 0.84932 0.0
H4993 H 0.88787 0.23624 0.85242 0.0
H4994 H 0.91236 0.2465 0.85062 0.0
H4995 H 0.91082 0.23389 0.85368 0.0
H4996 H 0.92692 0.20659 0.8762 0.0
H4997 H 0.91481 0.18699 0.87764 0.0
H4998 H 0.9052 0.19231 0.87069 0.0
H4999 H 0.91709 0.212 0.86915 0.0
C5000 C 0.56366 0.12298 0.61596 0.0
C5001 C 0.57056 0.12348 0.61896 0.0
C5002 C 0.56974 0.11107 0.6231 0.0
C5003 C 0.57361 0.11752 0.62245 0.0
C5004 C 0.56303 0.11054 0.61977 0.0
C5005 C 0.56007 0.11641 0.61621 0.0
U5006 U 0.557 0.14298 0.61196 0.0
O5007 O 0.55066 0.14633 0.60245 0.0
O5008 O 0.54566 0.14586 0.61318 0.0
C5009 C 0.54495 0.14753 0.6064 0.0
C5010 C 0.55956 0.12916 0.61312 0.0
C5011 C 0.53768 0.14796 0.60331 0.0
C5012 C 0.52599 0.14286 0.60059 0.0
C5013 C 0.53328 0.14196 0.60228 0.0
C5014 C 0.52755 0.15571 0.60063 0.0
C5015 C 0.52304 0.14976 0.5999 0.0
C5016 C 0.53478 0.15481 0.60233 0.0
C5017 C 0.56933 0.15879 0.62056 0.0
C5018 C 0.56983 0.17133 0.62424 0.0
C5019 C 0.57889 0.16301 0.62826 0.0
C5020 C 0.57564 0.15757 0.62436 0.0
C5021 C 0.57605 0.17 0.62838 0.0
C5022 C 0.56645 0.16575 0.62042 0.0
C5023 C 0.56564 0.15242 0.61766 0.0
O5024 O 0.55579 0.13285 0.61776 0.0
O5025 O 0.56215 0.13307 0.60787 0.0
O5026 O 0.56617 0.1505 0.61091 0.0
O5027 O 0.56042 0.14938 0.62125 0.0
H5028 H 0.57346 0.12849 0.61883 0.0
H5029 H 0.57881 0.11806 0.62496 0.0
H5030 H 0.55996 0.10564 0.62011 0.0
H5031 H 0.55476 0.11588 0.61391 0.0
H5032 H 0.5226 0.1382 0.60004 0.0
H5033 H 0.5354 0.13662 0.60306 0.0
H5034 H 0.5254 0.16108 0.60025 0.0
H5035 H 0.53806 0.15951 0.60323 0.0
H5036 H 0.56749 0.17662 0.62404 0.0
H5037 H 0.58347 0.16154 0.63148 0.0
H5038 H 0.5779 0.15223 0.62461 0.0
H5039 H 0.56154 0.16682 0.61752 0.0
C5040 C 0.64913 0.81224 0.36586 0.0
C5041 C 0.64828 0.81872 0.3696 0.0
C5042 C 0.66099 0.81856 0.37309 0.0
C5043 C 0.65418 0.82187 0.37314 0.0
C5044 C 0.66184 0.81233 0.36895 0.0
C5045 C 0.656 0.80923 0.36542 0.0
U5046 U 0.62901 0.80627 0.36219 0.0
O5047 O 0.62498 0.80007 0.35287 0.0
O5048 O 0.62507 0.79528 0.36363 0.0
C5049 C 0.62336 0.7945 0.35686 0.0
C5050 C 0.64305 0.80796 0.36299 0.0
C5051 C 0.62343 0.78717 0.35383 0.0
C5052 C 0.62911 0.77567 0.35132 0.0
C5053 C 0.62966 0.78298 0.35312 0.0
C5054 C 0.61622 0.77678 0.35062 0.0
C5055 C 0.62236 0.77246 0.3502 0.0
C5056 C 0.61676 0.78401 0.35242 0.0
C5057 C 0.61363 0.81897 0.37044 0.0
C5058 C 0.6011 0.81783 0.37414 0.0
C5059 C 0.608 0.82815 0.37778 0.0
C5060 C 0.6139 0.82556 0.37399 0.0
C5061 C 0.6016 0.82424 0.37809 0.0
C5062 C 0.60709 0.81519 0.37034 0.0
C5063 C 0.62057 0.816 0.36794 0.0
O5064 O 0.63925 0.80441 0.3677 0.0
O5065 O 0.63917 0.81053 0.35771 0.0
O5066 O 0.62223 0.81598 0.3611 0.0
O5067 O 0.62335 0.81065 0.37153 0.0
H5068 H 0.64305 0.82118 0.37001 0.0
H5069 H 0.65329 0.82669 0.37623 0.0
H5070 H 0.66699 0.80971 0.36857 0.0
H5071 H 0.65681 0.80426 0.36255 0.0
H5072 H 0.63395 0.77248 0.35097 0.0
H5073 H 0.63488 0.78528 0.35418 0.0
H5074 H 0.61094 0.77449 0.34991 0.0
H5075 H 0.61189 0.7871 0.35303 0.0
H5076 H 0.59623 0.81469 0.37435 0.0
H5077 H 0.60858 0.83303 0.38085 0.0
H5078 H 0.61888 0.82855 0.37419 0.0
H5079 H 0.60673 0.81007 0.36766 0.0
C5080 C 0.95986 0.89778 0.11582 0.0
C5081 C 0.95378 0.89674 0.12014 0.0
C5082 C 0.95342 0.90957 0.1231 0.0
C5083 C 0.95058 0.90257 0.12372 0.0
C5084 C 0.9592 0.91057 0.11835 0.0
C5085 C 0.96238 0.90477 0.11483 0.0
U5086 U 0.96601 0.87779 0.11226 0.0
O5087 O 0.97231 0.87374 0.103 0.0
O5088 O 0.977 0.87385 0.11381 0.0
C5089 C 0.97785 0.87214 0.10706 0.0
C5090 C 0.96429 0.89181 0.11297 0.0
C5091 C 0.98523 0.87208 0.1041 0.0
C5092 C 0.99663 0.87763 0.10082 0.0
C5093 C 0.98932 0.87824 0.1027 0.0
C5094 C 0.99574 0.86476 0.10162 0.0
C5095 C 0.99999 0.87085 0.10037 0.0
C5096 C 0.9885 0.86538 0.10339 0.0
C5097 C 0.95326 0.86248 0.12053 0.0
C5098 C 0.95444 0.84999 0.12425 0.0
C5099 C 0.94405 0.85683 0.12785 0.0
C5100 C 0.94663 0.86273 0.12406 0.0
C5101 C 0.948 0.85046 0.12817 0.0
C5102 C 0.95708 0.85598 0.12046 0.0
C5103 C 0.9562 0.86942 0.118 0.0
O5104 O 0.96783 0.88803 0.11772 0.0
O5105 O 0.9618 0.88791 0.10767 0.0
O5106 O 0.95628 0.87102 0.11115 0.0
O5107 O 0.96154 0.87223 0.12161 0.0
H5108 H 0.9517 0.8914 0.12098 0.0
H5109 H 0.94613 0.90149 0.12727 0.0
H5110 H 0.96142 0.91583 0.11744 0.0
H5111 H 0.96704 0.90573 0.1115 0.0
H5112 H 0.99967 0.88246 0.09982 0.0
H5113 H 0.98692 0.88349 0.10323 0.0
H5114 H 0.99805 0.85946 0.10154 0.0
H5115 H 0.9855 0.86055 0.10452 0.0
H5116 H 0.95762 0.84514 0.12447 0.0
H5117 H 0.93914 0.85738 0.13089 0.0
H5118 H 0.94361 0.86767 0.12425 0.0
H5119 H 0.96222 0.85564 0.11779 0.0
C5120 C 0.65688 0.87303 0.81304 0.0
C5121 C 0.65258 0.87404 0.81913 0.0
C5122 C 0.64962 0.86124 0.8193 0.0
C5123 C 0.64901 0.86818 0.82225 0.0
C5124 C 0.65432 0.86028 0.81349 0.0
C5125 C 0.65786 0.86609 0.8104 0.0
U5126 U 0.66062 0.89288 0.80635 0.0
O5127 O 0.67013 0.89641 0.80013 0.0
O5128 O 0.6594 0.89597 0.79506 0.0
C5129 C 0.66621 0.89763 0.79441 0.0
C5130 C 0.65973 0.879 0.80868 0.0
C5131 C 0.66938 0.89837 0.78721 0.0
C5132 C 0.6736 0.89364 0.77579 0.0
C5133 C 0.67182 0.89259 0.78305 0.0
C5134 C 0.67076 0.90621 0.77695 0.0
C5135 C 0.67281 0.90043 0.77262 0.0
C5136 C 0.66909 0.90519 0.78414 0.0
C5137 C 0.65189 0.90857 0.8186 0.0
C5138 C 0.64794 0.92105 0.81826 0.0
C5139 C 0.64471 0.91352 0.82825 0.0
C5140 C 0.6485 0.90785 0.82523 0.0
C5141 C 0.64426 0.92021 0.82483 0.0
C5142 C 0.6517 0.91526 0.81514 0.0
C5143 C 0.6547 0.9019 0.81535 0.0
O5144 O 0.65502 0.88266 0.80497 0.0
O5145 O 0.66498 0.88295 0.81121 0.0
O5146 O 0.66153 0.90018 0.8157 0.0
O5147 O 0.65121 0.89895 0.81001 0.0
H5148 H 0.65175 0.87935 0.82127 0.0
H5149 H 0.64546 0.86918 0.82672 0.0
H5150 H 0.65515 0.85504 0.81118 0.0
H5151 H 0.66116 0.86519 0.80572 0.0
H5152 H 0.67515 0.88909 0.77255 0.0
H5153 H 0.67205 0.88726 0.78531 0.0
H5154 H 0.67011 0.9115 0.77467 0.0
H5155 H 0.6672 0.90971 0.78724 0.0
H5156 H 0.64782 0.92612 0.81547 0.0
H5157 H 0.64183 0.91247 0.83317 0.0
H5158 H 0.64849 0.90274 0.82795 0.0
H5159 H 0.65426 0.91595 0.80999 0.0
C5160 C 0.89931 0.90558 0.56277 0.0
C5161 C 0.89846 0.90186 0.56926 0.0
C5162 C 0.91115 0.89833 0.56904 0.0
C5163 C 0.90435 0.89831 0.57239 0.0
C5164 C 0.91199 0.90245 0.5628 0.0
C5165 C 0.90615 0.90599 0.55972 0.0
U5166 U 0.87924 0.90922 0.55656 0.0
O5167 O 0.87543 0.91864 0.55036 0.0
O5168 O 0.87564 0.90791 0.54543 0.0
C5169 C 0.87395 0.91468 0.54472 0.0
C5170 C 0.89324 0.90843 0.55851 0.0
C5171 C 0.8735 0.91778 0.53743 0.0
C5172 C 0.87858 0.92198 0.52612 0.0
C5173 C 0.87943 0.92014 0.53341 0.0
C5174 C 0.86592 0.91933 0.52696 0.0
C5175 C 0.87183 0.92134 0.52278 0.0
C5176 C 0.86675 0.91761 0.53417 0.0
C5177 C 0.86363 0.90072 0.56889 0.0
C5178 C 0.85144 0.89605 0.56758 0.0
C5179 C 0.85785 0.89436 0.57869 0.0
C5180 C 0.86369 0.89812 0.57591 0.0
C5181 C 0.85168 0.89311 0.57455 0.0
C5182 C 0.85738 0.89982 0.56476 0.0
C5183 C 0.87058 0.9033 0.56598 0.0
O5184 O 0.88951 0.90373 0.55486 0.0
O5185 O 0.8893 0.91366 0.56111 0.0
O5186 O 0.87226 0.91013 0.56616 0.0
O5187 O 0.87344 0.89982 0.5606 0.0
H5188 H 0.89323 0.90147 0.57174 0.0
H5189 H 0.90348 0.89523 0.57721 0.0
H5190 H 0.91714 0.9028 0.56015 0.0
H5191 H 0.90695 0.90885 0.55474 0.0
H5192 H 0.88324 0.92347 0.523 0.0
H5193 H 0.88472 0.9203 0.5358 0.0
H5194 H 0.86067 0.91877 0.52455 0.0
H5195 H 0.86211 0.91578 0.53714 0.0
H5196 H 0.84675 0.89528 0.56426 0.0
H5197 H 0.85836 0.8921 0.584 0.0
H5198 H 0.86846 0.89866 0.57917 0.0
H5199 H 0.85718 0.90177 0.55931 0.0
C5200 C 0.86663 0.14792 0.31303 0.0
C5201 C 0.87065 0.14696 0.3193 0.0
C5202 C 0.8739 0.15974 0.31938 0.0
C5203 C 0.87425 0.1528 0.32244 0.0
C5204 C 0.86934 0.16065 0.31342 0.0
C5205 C 0.86587 0.15482 0.31026 0.0
U5206 U 0.86277 0.12806 0.30629 0.0
O5207 O 0.85337 0.12471 0.29981 0.0
O5208 O 0.86424 0.12492 0.29504 0.0
C5209 C 0.85743 0.1234 0.2942 0.0
C5210 C 0.86385 0.14193 0.30865 0.0
C5211 C 0.85444 0.12276 0.28691 0.0
C5212 C 0.85004 0.12758 0.2756 0.0
C5213 C 0.85191 0.12857 0.28285 0.0
C5214 C 0.85316 0.11506 0.27653 0.0
C5215 C 0.85077 0.12081 0.2723 0.0
C5216 C 0.85491 0.11603 0.28371 0.0
C5217 C 0.87072 0.11206 0.31863 0.0
C5218 C 0.87689 0.10054 0.31782 0.0
C5219 C 0.87578 0.10648 0.32924 0.0
C5220 C 0.87194 0.11202 0.32601 0.0
C5221 C 0.8787 0.10084 0.32516 0.0
C5222 C 0.87296 0.10612 0.31457 0.0
C5223 C 0.86822 0.1189 0.31546 0.0
O5224 O 0.8686 0.13818 0.30508 0.0
O5225 O 0.85846 0.13807 0.31103 0.0
O5226 O 0.86145 0.12084 0.31567 0.0
O5227 O 0.8719 0.12175 0.31019 0.0
H5228 H 0.87127 0.14168 0.32158 0.0
H5229 H 0.87758 0.15172 0.32704 0.0
H5230 H 0.8685 0.16582 0.31101 0.0
H5231 H 0.86276 0.1557 0.30545 0.0
H5232 H 0.84813 0.13213 0.27257 0.0
H5233 H 0.85153 0.13384 0.28521 0.0
H5234 H 0.85399 0.10981 0.27425 0.0
H5235 H 0.85693 0.1115 0.28672 0.0
H5236 H 0.87889 0.09627 0.31447 0.0
H5237 H 0.87669 0.10683 0.33495 0.0
H5238 H 0.87026 0.11651 0.32927 0.0
H5239 H 0.87202 0.10599 0.30886 0.0
C5240 C 0.62414 0.11545 0.06286 0.0
C5241 C 0.62496 0.11916 0.06935 0.0
C5242 C 0.61227 0.12267 0.06908 0.0
C5243 C 0.61905 0.1227 0.07246 0.0
C5244 C 0.61146 0.11856 0.06283 0.0
C5245 C 0.61731 0.11503 0.05978 0.0
U5246 U 0.64417 0.11174 0.05644 0.0
O5247 O 0.64785 0.1023 0.0502 0.0
O5248 O 0.64753 0.11302 0.04523 0.0
C5249 C 0.64922 0.10625 0.04453 0.0
C5250 C 0.63022 0.11261 0.0586 0.0
C5251 C 0.64975 0.10313 0.03727 0.0
C5252 C 0.64473 0.09893 0.02595 0.0
C5253 C 0.64384 0.10078 0.03322 0.0
C5254 C 0.6574 0.10155 0.02684 0.0
C5255 C 0.65151 0.0995 0.02267 0.0
C5256 C 0.65653 0.1033 0.03405 0.0
C5257 C 0.65986 0.12033 0.06874 0.0
C5258 C 0.67222 0.12465 0.06793 0.0
C5259 C 0.66516 0.12711 0.0785 0.0
C5260 C 0.65943 0.12332 0.07558 0.0
C5261 C 0.67164 0.12796 0.07472 0.0
C5262 C 0.66636 0.12089 0.06494 0.0
C5263 C 0.65305 0.11763 0.06564 0.0
O5264 O 0.63392 0.1173 0.05492 0.0
O5265 O 0.63417 0.10738 0.06118 0.0
O5266 O 0.65135 0.11081 0.0659 0.0
O5267 O 0.65014 0.12112 0.06029 0.0
H5268 H 0.63018 0.11955 0.07185 0.0
H5269 H 0.61989 0.12578 0.0773 0.0
H5270 H 0.60633 0.11822 0.06016 0.0
H5271 H 0.61654 0.11218 0.05479 0.0
H5272 H 0.6401 0.09744 0.0228 0.0
H5273 H 0.63853 0.10066 0.03557 0.0
H5274 H 0.66265 0.10212 0.02443 0.0
H5275 H 0.66115 0.10514 0.03704 0.0
H5276 H 0.67713 0.12509 0.06488 0.0
H5277 H 0.66433 0.12968 0.08362 0.0
H5278 H 0.65446 0.12305 0.07857 0.0
H5279 H 0.66683 0.11864 0.05963 0.0
C5280 C 0.65683 0.14803 0.70885 0.0
C5281 C 0.65285 0.14714 0.70253 0.0
C5282 C 0.64959 0.15986 0.70264 0.0
C5283 C 0.64929 0.15303 0.69943 0.0
C5284 C 0.65397 0.16073 0.70871 0.0
C5285 C 0.6575 0.1549 0.71176 0.0
U5286 U 0.66057 0.12811 0.71536 0.0
O5287 O 0.67007 0.12453 0.72157 0.0
O5288 O 0.65933 0.1249 0.72661 0.0
C5289 C 0.66613 0.12324 0.72727 0.0
C5290 C 0.65967 0.142 0.71313 0.0
C5291 C 0.66929 0.12256 0.73448 0.0
C5292 C 0.67361 0.12737 0.74584 0.0
C5293 C 0.67179 0.12837 0.73857 0.0
C5294 C 0.67065 0.11481 0.74481 0.0
C5295 C 0.67281 0.1206 0.74906 0.0
C5296 C 0.66895 0.11578 0.73762 0.0
C5297 C 0.65191 0.11241 0.70311 0.0
C5298 C 0.64786 0.09998 0.70369 0.0
C5299 C 0.64489 0.10728 0.69344 0.0
C5300 C 0.64867 0.11299 0.6964 0.0
C5301 C 0.64431 0.10068 0.69704 0.0
C5302 C 0.6516 0.10582 0.70674 0.0
C5303 C 0.65466 0.11915 0.70628 0.0
O5304 O 0.65496 0.13832 0.71682 0.0
O5305 O 0.66491 0.13806 0.71056 0.0
O5306 O 0.66149 0.12087 0.70596 0.0
O5307 O 0.65117 0.12208 0.71162 0.0
H5308 H 0.65225 0.14189 0.70017 0.0
H5309 H 0.646 0.15213 0.69475 0.0
H5310 H 0.65453 0.16591 0.71125 0.0
H5311 H 0.66056 0.15571 0.71663 0.0
H5312 H 0.67521 0.13193 0.74903 0.0
H5313 H 0.67206 0.13367 0.73626 0.0
H5314 H 0.66996 0.10956 0.74716 0.0
H5315 H 0.667 0.11125 0.73458 0.0
H5316 H 0.64763 0.09498 0.70661 0.0
H5317 H 0.64212 0.10822 0.68845 0.0
H5318 H 0.64874 0.11803 0.69355 0.0
H5319 H 0.65405 0.10524 0.71195 0.0
C5320 C 0.62422 0.90559 0.45923 0.0
C5321 C 0.6251 0.90184 0.45277 0.0
C5322 C 0.6124 0.89836 0.45288 0.0
C5323 C 0.61923 0.89829 0.44959 0.0
C5324 C 0.61152 0.90252 0.45909 0.0
C5325 C 0.61734 0.90605 0.46221 0.0
U5326 U 0.64428 0.90922 0.46554 0.0
O5327 O 0.64821 0.91861 0.47169 0.0
O5328 O 0.64793 0.90792 0.47665 0.0
C5329 C 0.64971 0.91467 0.47733 0.0
C5330 C 0.63027 0.90846 0.46355 0.0
C5331 C 0.64987 0.9178 0.48462 0.0
C5332 C 0.64437 0.92104 0.49602 0.0
C5333 C 0.64371 0.91922 0.48872 0.0
C5334 C 0.65728 0.92033 0.49507 0.0
C5335 C 0.65117 0.92147 0.49927 0.0
C5336 C 0.65663 0.91853 0.48784 0.0
C5337 C 0.65969 0.90054 0.45301 0.0
C5338 C 0.67219 0.89659 0.45354 0.0
C5339 C 0.66482 0.89344 0.44339 0.0
C5340 C 0.6591 0.89721 0.44634 0.0
C5341 C 0.67147 0.89297 0.44693 0.0
C5342 C 0.66633 0.90032 0.45659 0.0
C5343 C 0.65292 0.90326 0.45616 0.0
O5344 O 0.63398 0.90378 0.46724 0.0
O5345 O 0.63424 0.91367 0.46096 0.0
O5346 O 0.65127 0.91009 0.45595 0.0
O5347 O 0.65006 0.89978 0.46155 0.0
H5348 H 0.63035 0.90141 0.45033 0.0
H5349 H 0.62013 0.89519 0.44479 0.0
H5350 H 0.60635 0.90291 0.46169 0.0
H5351 H 0.61651 0.90894 0.46717 0.0
H5352 H 0.63958 0.92183 0.4992 0.0
H5353 H 0.63843 0.91864 0.48639 0.0
H5354 H 0.66256 0.92048 0.49746 0.0
H5355 H 0.66144 0.91737 0.48481 0.0
H5356 H 0.67723 0.89644 0.45642 0.0
H5357 H 0.66385 0.89061 0.43844 0.0
H5358 H 0.65402 0.89721 0.44353 0.0
H5359 H 0.66693 0.90283 0.46177 0.0
C5360 C 0.86659 0.87306 0.20925 0.0
C5361 C 0.87074 0.87407 0.20305 0.0
C5362 C 0.87384 0.86129 0.2028 0.0
C5363 C 0.8743 0.86824 0.19984 0.0
C5364 C 0.86927 0.86031 0.20871 0.0
C5365 C 0.86574 0.8661 0.21189 0.0
U5366 U 0.86307 0.89306 0.21545 0.0
O5367 O 0.8537 0.89719 0.22154 0.0
O5368 O 0.86442 0.89696 0.22646 0.0
C5369 C 0.85766 0.89877 0.22714 0.0
C5370 C 0.86372 0.87905 0.21365 0.0
C5371 C 0.85453 0.89885 0.23445 0.0
C5372 C 0.85132 0.89323 0.2458 0.0
C5373 C 0.85317 0.89265 0.2385 0.0
C5374 C 0.85186 0.90612 0.24495 0.0
C5375 C 0.85079 0.89999 0.24911 0.0
C5376 C 0.85369 0.90555 0.23772 0.0
C5377 C 0.87166 0.90834 0.20287 0.0
C5378 C 0.87587 0.9207 0.20389 0.0
C5379 C 0.87833 0.9139 0.19318 0.0
C5380 C 0.87462 0.90809 0.196 0.0
C5381 C 0.87914 0.9203 0.19707 0.0
C5382 C 0.87219 0.91476 0.20679 0.0
C5383 C 0.86906 0.90145 0.20584 0.0
O5384 O 0.86844 0.88276 0.21729 0.0
O5385 O 0.85848 0.88301 0.21109 0.0
O5386 O 0.8622 0.89983 0.20571 0.0
O5387 O 0.87255 0.89864 0.21125 0.0
H5388 H 0.87147 0.87939 0.20088 0.0
H5389 H 0.87772 0.86926 0.19528 0.0
H5390 H 0.86853 0.85506 0.21104 0.0
H5391 H 0.86254 0.86516 0.21664 0.0
H5392 H 0.85058 0.88842 0.24894 0.0
H5393 H 0.85382 0.88741 0.23612 0.0
H5394 H 0.85163 0.91138 0.24738 0.0
H5395 H 0.8548 0.9104 0.23473 0.0
H5396 H 0.87629 0.92554 0.20705 0.0
H5397 H 0.88088 0.9132 0.18802 0.0
H5398 H 0.87438 0.90319 0.19291 0.0
H5399 H 0.86996 0.9151 0.21213 0.0
C5400 C 0.89922 0.11536 0.95924 0.0
C5401 C 0.89829 0.11922 0.95285 0.0
C5402 C 0.91102 0.1226 0.95285 0.0
C5403 C 0.90415 0.12277 0.94966 0.0
C5404 C 0.91194 0.11834 0.95899 0.0
C5405 C 0.90613 0.11481 0.96213 0.0
U5406 U 0.87916 0.11179 0.96546 0.0
O5407 O 0.87519 0.1024 0.9716 0.0
O5408 O 0.87539 0.11311 0.97653 0.0
C5409 C 0.87364 0.10635 0.97722 0.0
C5410 C 0.89318 0.1125 0.96358 0.0
C5411 C 0.87339 0.10325 0.98452 0.0
C5412 C 0.87878 0.09936 0.9958 0.0
C5413 C 0.87947 0.10122 0.9885 0.0
C5414 C 0.86599 0.1013 0.99509 0.0
C5415 C 0.87204 0.09957 0.99918 0.0
C5416 C 0.86666 0.10307 0.98786 0.0
C5417 C 0.86375 0.12039 0.95297 0.0
C5418 C 0.85141 0.12473 0.95399 0.0
C5419 C 0.85821 0.12703 0.94323 0.0
C5420 C 0.86401 0.12328 0.94607 0.0
C5421 C 0.85183 0.12795 0.94715 0.0
C5422 C 0.85734 0.12101 0.9569 0.0
C5423 C 0.87064 0.11776 0.95596 0.0
O5424 O 0.88946 0.11719 0.96724 0.0
O5425 O 0.88923 0.10728 0.96099 0.0
O5426 O 0.87227 0.11092 0.95579 0.0
O5427 O 0.87347 0.12123 0.96136 0.0
H5428 H 0.89301 0.11972 0.95048 0.0
H5429 H 0.90321 0.12595 0.94492 0.0
H5430 H 0.91714 0.11787 0.96151 0.0
H5431 H 0.907 0.11184 0.96703 0.0
H5432 H 0.88354 0.09813 0.99888 0.0
H5433 H 0.88474 0.10135 0.98606 0.0
H5434 H 0.86075 0.10161 0.99757 0.0
H5435 H 0.8619 0.10466 0.98494 0.0
H5436 H 0.84657 0.12523 0.95716 0.0
H5437 H 0.85892 0.12952 0.93806 0.0
H5438 H 0.86891 0.12296 0.94297 0.0
H5439 H 0.85699 0.11884 0.96226 0.0
C5440 C 0.81355 0.65562 0.8736 0.0
C5441 C 0.81964 0.65132 0.87464 0.0
C5442 C 0.81997 0.64838 0.86181 0.0
C5443 C 0.82283 0.64776 0.86879 0.0
C5444 C 0.81417 0.6531 0.86081 0.0
C5445 C 0.81101 0.65662 0.86662 0.0
U5446 U 0.80684 0.65944 0.89349 0.0
O5447 O 0.80064 0.6689 0.89718 0.0
O5448 O 0.79565 0.65821 0.89686 0.0
C5449 C 0.79497 0.66497 0.89861 0.0
C5450 C 0.80912 0.65848 0.87956 0.0
C5451 C 0.7877 0.66809 0.89879 0.0
C5452 C 0.77611 0.67074 0.89339 0.0
C5453 C 0.78342 0.669 0.89267 0.0
C5454 C 0.77742 0.67099 0.90628 0.0
C5455 C 0.77302 0.67159 0.90023 0.0
C5456 C 0.78466 0.66925 0.90556 0.0
C5457 C 0.81948 0.65088 0.909 0.0
C5458 C 0.81966 0.64683 0.92145 0.0
C5459 C 0.82925 0.64355 0.91341 0.0
C5460 C 0.82604 0.64749 0.90797 0.0
C5461 C 0.82614 0.64302 0.92029 0.0
C5462 C 0.8163 0.65064 0.91583 0.0
C5463 C 0.81594 0.65369 0.90249 0.0
O5464 O 0.80542 0.65381 0.88327 0.0
O5465 O 0.8116 0.66377 0.88349 0.0
O5466 O 0.81629 0.66047 0.90066 0.0
O5467 O 0.81061 0.65013 0.89961 0.0
H5468 H 0.82174 0.65047 0.87997 0.0
H5469 H 0.8273 0.64422 0.86984 0.0
H5470 H 0.81192 0.65397 0.85555 0.0
H5471 H 0.80634 0.65993 0.86567 0.0
H5472 H 0.7728 0.67117 0.88865 0.0
H5473 H 0.78563 0.66809 0.88739 0.0
H5474 H 0.77516 0.6715 0.91159 0.0
H5475 H 0.78783 0.66845 0.91035 0.0
H5476 H 0.81706 0.64677 0.92662 0.0
H5477 H 0.83401 0.64064 0.91194 0.0
H5478 H 0.82855 0.64754 0.90274 0.0
H5479 H 0.81119 0.65322 0.91677 0.0
C5480 C 0.31348 0.86549 0.14826 0.0
C5481 C 0.32007 0.86908 0.1475 0.0
C5482 C 0.31975 0.87266 0.16015 0.0
C5483 C 0.32319 0.87259 0.15341 0.0
C5484 C 0.3134 0.86867 0.16091 0.0
C5485 C 0.31033 0.86517 0.15506 0.0
U5486 U 0.30719 0.86156 0.12822 0.0
O5487 O 0.30085 0.85217 0.12457 0.0
O5488 O 0.29606 0.86295 0.12464 0.0
C5489 C 0.29526 0.85617 0.12303 0.0
C5490 C 0.30923 0.86265 0.14216 0.0
C5491 C 0.28791 0.85316 0.12295 0.0
C5492 C 0.27631 0.85064 0.12843 0.0
C5493 C 0.28363 0.85238 0.1291 0.0
C5494 C 0.27759 0.85015 0.11556 0.0
C5495 C 0.27318 0.84966 0.12162 0.0
C5496 C 0.28484 0.85188 0.11623 0.0
C5497 C 0.31988 0.86957 0.11257 0.0
C5498 C 0.31903 0.8739 0.10024 0.0
C5499 C 0.32943 0.87675 0.10742 0.0
C5500 C 0.32664 0.87276 0.11307 0.0
C5501 C 0.32556 0.87762 0.10104 0.0
C5502 C 0.31616 0.86994 0.10601 0.0
C5503 C 0.31667 0.86707 0.11939 0.0
O5504 O 0.30566 0.86733 0.13835 0.0
O5505 O 0.31173 0.85729 0.13834 0.0
O5506 O 0.31675 0.86028 0.12121 0.0
O5507 O 0.31134 0.87073 0.12215 0.0
H5508 H 0.32263 0.8694 0.14231 0.0
H5509 H 0.3281 0.87557 0.15261 0.0
H5510 H 0.31068 0.8684 0.16602 0.0
H5511 H 0.30528 0.86241 0.1558 0.0
H5512 H 0.27304 0.85024 0.1332 0.0
H5513 H 0.28587 0.85336 0.13436 0.0
H5514 H 0.27536 0.84954 0.11024 0.0
H5515 H 0.28801 0.85255 0.11142 0.0
H5516 H 0.31594 0.8745 0.09538 0.0
H5517 H 0.33445 0.87956 0.10821 0.0
H5518 H 0.32959 0.87258 0.11807 0.0
H5519 H 0.31091 0.86753 0.10548 0.0
C5520 C 0.90672 0.56256 0.8983 0.0
C5521 C 0.90263 0.5688 0.89739 0.0
C5522 C 0.89952 0.56882 0.91018 0.0
C5523 C 0.89909 0.57193 0.90329 0.0
C5524 C 0.90402 0.56284 0.91106 0.0
C5525 C 0.90753 0.55976 0.90521 0.0
U5526 U 0.91069 0.55599 0.87838 0.0
O5527 O 0.92003 0.54943 0.87499 0.0
O5528 O 0.90911 0.54482 0.87504 0.0
C5529 C 0.91592 0.5439 0.87355 0.0
C5530 C 0.90951 0.55821 0.89227 0.0
C5531 C 0.91882 0.53656 0.87309 0.0
C5532 C 0.92289 0.52522 0.87813 0.0
C5533 C 0.92104 0.53249 0.87902 0.0
C5534 C 0.92039 0.52615 0.86547 0.0
C5535 C 0.92248 0.52191 0.87133 0.0
C5536 C 0.91865 0.53334 0.86635 0.0
C5537 C 0.9029 0.56856 0.8625 0.0
C5538 C 0.89804 0.56767 0.85037 0.0
C5539 C 0.89612 0.57839 0.85733 0.0
C5540 C 0.90017 0.57552 0.86291 0.0
C5541 C 0.89475 0.57441 0.85112 0.0
C5542 C 0.90204 0.56471 0.85607 0.0
C5543 C 0.90536 0.56533 0.86932 0.0
O5544 O 0.90476 0.55474 0.88845 0.0
O5545 O 0.91496 0.56057 0.88848 0.0
O5546 O 0.91215 0.56538 0.87121 0.0
O5547 O 0.90161 0.56011 0.87212 0.0
H5548 H 0.90192 0.57108 0.89211 0.0
H5549 H 0.89572 0.57654 0.90236 0.0
H5550 H 0.9047 0.56039 0.91626 0.0
H5551 H 0.91067 0.55496 0.90605 0.0
H5552 H 0.92456 0.52218 0.88277 0.0
H5553 H 0.92118 0.53485 0.88431 0.0
H5554 H 0.91979 0.52387 0.86018 0.0
H5555 H 0.91688 0.53636 0.86172 0.0
H5556 H 0.89706 0.56448 0.84563 0.0
H5557 H 0.89365 0.58358 0.85808 0.0
H5558 H 0.90071 0.57857 0.86781 0.0
H5559 H 0.9041 0.55932 0.8556 0.0
C5560 C 0.20996 0.15585 0.64837 0.0
C5561 C 0.20382 0.15166 0.64719 0.0
C5562 C 0.20351 0.14827 0.65988 0.0
C5563 C 0.20062 0.1479 0.6529 0.0
C5564 C 0.20938 0.15282 0.66107 0.0
C5565 C 0.21256 0.15654 0.65539 0.0
U5566 U 0.21623 0.15931 0.62845 0.0
O5567 O 0.22234 0.16863 0.62428 0.0
O5568 O 0.22728 0.15794 0.6246 0.0
C5569 C 0.22796 0.16467 0.62275 0.0
C5570 C 0.21441 0.15879 0.64247 0.0
C5571 C 0.23527 0.16777 0.62254 0.0
C5572 C 0.24655 0.17157 0.628 0.0
C5573 C 0.23924 0.16971 0.62865 0.0
C5574 C 0.24586 0.1698 0.61519 0.0
C5575 C 0.24995 0.17145 0.62126 0.0
C5576 C 0.23862 0.16803 0.61583 0.0
C5577 C 0.20371 0.15053 0.6132 0.0
C5578 C 0.20475 0.14628 0.60084 0.0
C5579 C 0.19402 0.14382 0.60765 0.0
C5580 C 0.19684 0.14756 0.61346 0.0
C5581 C 0.19792 0.143 0.60125 0.0
C5582 C 0.20764 0.14999 0.60678 0.0
C5583 C 0.20666 0.15321 0.62008 0.0
O5584 O 0.21813 0.1541 0.6388 0.0
O5585 O 0.21181 0.16395 0.63846 0.0
O5586 O 0.20651 0.16008 0.62162 0.0
O5587 O 0.21207 0.14978 0.62295 0.0
H5588 H 0.20169 0.15105 0.64184 0.0
H5589 H 0.19602 0.14455 0.65183 0.0
H5590 H 0.21177 0.15323 0.66633 0.0
H5591 H 0.21731 0.15971 0.65644 0.0
H5592 H 0.24964 0.17273 0.63277 0.0
H5593 H 0.2368 0.16951 0.6339 0.0
H5594 H 0.24836 0.16956 0.60997 0.0
H5595 H 0.2357 0.1665 0.61106 0.0
H5596 H 0.20791 0.14585 0.596 0.0
H5597 H 0.18887 0.14127 0.60836 0.0
H5598 H 0.19374 0.14781 0.61836 0.0
H5599 H 0.21298 0.15223 0.60643 0.0
C5600 C 0.11667 0.95874 0.89849 0.0
C5601 C 0.12022 0.95216 0.89769 0.0
C5602 C 0.12386 0.95244 0.91033 0.0
C5603 C 0.12374 0.949 0.90359 0.0
C5604 C 0.11991 0.95879 0.91112 0.0
C5605 C 0.11639 0.96188 0.90529 0.0
U5606 U 0.11308 0.96505 0.87844 0.0
O5607 O 0.10375 0.97141 0.87464 0.0
O5608 O 0.11459 0.97615 0.8749 0.0
C5609 C 0.10782 0.97698 0.8732 0.0
C5610 C 0.11385 0.96302 0.89241 0.0
C5611 C 0.10485 0.98432 0.87289 0.0
C5612 C 0.10098 0.99566 0.87813 0.0
C5613 C 0.10287 0.98838 0.87892 0.0
C5614 C 0.10299 0.99477 0.86538 0.0
C5615 C 0.10113 0.99901 0.87133 0.0
C5616 C 0.10475 0.98757 0.86616 0.0
C5617 C 0.12163 0.95253 0.86296 0.0
C5618 C 0.12556 0.9531 0.85046 0.0
C5619 C 0.12869 0.94292 0.85777 0.0
C5620 C 0.12494 0.94586 0.86351 0.0
C5621 C 0.12917 0.94648 0.85115 0.0
C5622 C 0.12185 0.95613 0.85634 0.0
C5623 C 0.11893 0.95567 0.86974 0.0
O5624 O 0.11859 0.96664 0.8887 0.0
O5625 O 0.1086 0.96047 0.88846 0.0
O5626 O 0.11207 0.95554 0.87137 0.0
O5627 O 0.12248 0.96097 0.87264 0.0
H5628 H 0.1205 0.9496 0.8925 0.0
H5629 H 0.12669 0.94409 0.90277 0.0
H5630 H 0.11969 0.96151 0.91623 0.0
H5631 H 0.11366 0.96694 0.90605 0.0
H5632 H 0.0995 0.99868 0.88285 0.0
H5633 H 0.10294 0.986 0.8842 0.0
H5634 H 0.10341 0.99706 0.86009 0.0
H5635 H 0.10635 0.98458 0.86146 0.0
H5636 H 0.12572 0.956 0.84545 0.0
H5637 H 0.13152 0.93796 0.85872 0.0
H5638 H 0.12494 0.94302 0.86857 0.0
H5639 H 0.11935 0.96133 0.85577 0.0
C5640 C 0.71001 0.36528 0.37351 0.0
C5641 C 0.70386 0.3695 0.37461 0.0
C5642 C 0.70361 0.37273 0.3619 0.0
C5643 C 0.70071 0.37321 0.36884 0.0
C5644 C 0.70946 0.36815 0.36076 0.0
C5645 C 0.71263 0.36451 0.3665 0.0
U5646 U 0.71601 0.36191 0.39354 0.0
O5647 O 0.72219 0.35267 0.39783 0.0
O5648 O 0.72698 0.36341 0.39758 0.0
C5649 C 0.72777 0.35668 0.3994 0.0
C5650 C 0.71442 0.36241 0.37948 0.0
C5651 C 0.73513 0.35364 0.3993 0.0
C5652 C 0.74667 0.35116 0.3936 0.0
C5653 C 0.73933 0.35296 0.39308 0.0
C5654 C 0.74557 0.35037 0.40646 0.0
C5655 C 0.74991 0.34998 0.40033 0.0
C5656 C 0.73831 0.35218 0.40594 0.0
C5657 C 0.70335 0.37032 0.40879 0.0
C5658 C 0.705 0.37464 0.42105 0.0
C5659 C 0.69382 0.37684 0.41491 0.0
C5660 C 0.6964 0.37317 0.40891 0.0
C5661 C 0.69814 0.37781 0.42097 0.0
C5662 C 0.70759 0.37089 0.415 0.0
C5663 C 0.70613 0.36782 0.40176 0.0
O5664 O 0.718 0.36715 0.38322 0.0
O5665 O 0.71184 0.3572 0.38345 0.0
O5666 O 0.70617 0.36097 0.4002 0.0
O5667 O 0.71152 0.37135 0.39894 0.0
H5668 H 0.7017 0.37018 0.37994 0.0
H5669 H 0.69613 0.37664 0.36984 0.0
H5670 H 0.71183 0.36768 0.35549 0.0
H5671 H 0.71738 0.36133 0.36551 0.0
H5672 H 0.74985 0.35084 0.38876 0.0
H5673 H 0.73702 0.35407 0.38788 0.0
H5674 H 0.74787 0.34961 0.41173 0.0
H5675 H 0.73523 0.35275 0.41082 0.0
H5676 H 0.70845 0.3753 0.42566 0.0
H5677 H 0.68857 0.37931 0.41465 0.0
H5678 H 0.69305 0.37288 0.40418 0.0
H5679 H 0.71298 0.36875 0.41507 0.0
C5680 C 0.90683 0.4588 0.62339 0.0
C5681 C 0.90297 0.45241 0.62431 0.0
C5682 C 0.89962 0.45242 0.6116 0.0
C5683 C 0.89942 0.44923 0.61845 0.0
C5684 C 0.90389 0.45855 0.61069 0.0
C5685 C 0.90742 0.46168 0.6165 0.0
U5686 U 0.91032 0.46503 0.64342 0.0
O5687 O 0.91963 0.4713 0.64739 0.0
O5688 O 0.90882 0.47607 0.64714 0.0
C5689 C 0.91558 0.47687 0.64889 0.0
C5690 C 0.90965 0.46314 0.62942 0.0
C5691 C 0.91857 0.4842 0.64907 0.0
C5692 C 0.92214 0.49556 0.64367 0.0
C5693 C 0.92025 0.48827 0.64297 0.0
C5694 C 0.92075 0.49466 0.6565 0.0
C5695 C 0.9223 0.49889 0.65047 0.0
C5696 C 0.91898 0.48745 0.6558 0.0
C5697 C 0.90176 0.45246 0.65877 0.0
C5698 C 0.89779 0.4532 0.67124 0.0
C5699 C 0.89481 0.44285 0.6641 0.0
C5700 C 0.89854 0.44573 0.65833 0.0
C5701 C 0.89427 0.44653 0.67066 0.0
C5702 C 0.90148 0.45617 0.66533 0.0
C5703 C 0.90442 0.45551 0.65195 0.0
O5704 O 0.9049 0.46675 0.63313 0.0
O5705 O 0.9149 0.4606 0.63338 0.0
O5706 O 0.91129 0.45542 0.65035 0.0
O5707 O 0.90088 0.46085 0.64908 0.0
H5708 H 0.90244 0.45006 0.62958 0.0
H5709 H 0.89623 0.44449 0.61938 0.0
H5710 H 0.90438 0.46107 0.6055 0.0
H5711 H 0.91039 0.46658 0.61564 0.0
H5712 H 0.92338 0.49858 0.63889 0.0
H5713 H 0.91993 0.4859 0.6377 0.0
H5714 H 0.92058 0.49695 0.66181 0.0
H5715 H 0.91762 0.48445 0.66057 0.0
H5716 H 0.89758 0.45619 0.6762 0.0
H5717 H 0.89205 0.43784 0.66324 0.0
H5718 H 0.89859 0.44281 0.65332 0.0
H5719 H 0.90392 0.4614 0.66581 0.0
C5720 C 0.61805 0.56486 0.12488 0.0
C5721 C 0.62142 0.57149 0.12433 0.0
C5722 C 0.62408 0.56944 0.1117 0.0
C5723 C 0.62446 0.57371 0.1179 0.0
C5724 C 0.62024 0.56292 0.11214 0.0
C5725 C 0.61733 0.56061 0.11871 0.0
U5726 U 0.61269 0.55555 0.14384 0.0
O5727 O 0.61304 0.54392 0.14247 0.0
O5728 O 0.60261 0.54924 0.14363 0.0
C5729 C 0.60606 0.54318 0.14265 0.0
C5730 C 0.6164 0.56231 0.13216 0.0
C5731 C 0.60329 0.53652 0.14591 0.0
C5732 C 0.59867 0.52456 0.1436 0.0
C5733 C 0.60009 0.53153 0.14132 0.0
C5734 C 0.60322 0.52755 0.15535 0.0
C5735 C 0.60041 0.52239 0.15058 0.0
C5736 C 0.60468 0.53456 0.15303 0.0
C5737 C 0.62045 0.56557 0.16115 0.0
C5738 C 0.62471 0.56825 0.1732 0.0
C5739 C 0.62893 0.5753 0.16322 0.0
C5740 C 0.62463 0.57124 0.15851 0.0
C5741 C 0.62919 0.57371 0.17062 0.0
C5742 C 0.62043 0.56426 0.16854 0.0
C5743 C 0.61657 0.56039 0.15653 0.0
O5744 O 0.62048 0.55748 0.13523 0.0
O5745 O 0.6102 0.56346 0.1353 0.0
O5746 O 0.62044 0.55595 0.1527 0.0
O5747 O 0.61057 0.56232 0.15337 0.0
H5748 H 0.62211 0.5748 0.12903 0.0
H5749 H 0.62747 0.57864 0.11798 0.0
H5750 H 0.61965 0.55952 0.1075 0.0
H5751 H 0.61473 0.55544 0.11902 0.0
H5752 H 0.59661 0.52076 0.13975 0.0
H5753 H 0.59906 0.53291 0.13578 0.0
H5754 H 0.60453 0.52609 0.16081 0.0
H5755 H 0.60717 0.53831 0.15667 0.0
H5756 H 0.62459 0.56695 0.17884 0.0
H5757 H 0.63229 0.57946 0.16099 0.0
H5758 H 0.62475 0.57238 0.15283 0.0
H5759 H 0.61723 0.55993 0.17071 0.0
C5760 C 0.64936 0.7112 0.86817 0.0
C5761 C 0.64815 0.70498 0.87222 0.0
C5762 C 0.66106 0.70371 0.87441 0.0
C5763 C 0.65396 0.70125 0.87528 0.0
C5764 C 0.6622 0.70978 0.87012 0.0
C5765 C 0.65644 0.71346 0.86705 0.0
U5766 U 0.62941 0.71726 0.86504 0.0
O5767 O 0.62528 0.72826 0.86571 0.0
O5768 O 0.62488 0.72253 0.85542 0.0
C5769 C 0.62338 0.72843 0.85894 0.0
C5770 C 0.64348 0.71577 0.86539 0.0
C5771 C 0.62351 0.73542 0.85519 0.0
C5772 C 0.62861 0.74723 0.85282 0.0
C5773 C 0.62942 0.7401 0.85519 0.0
C5774 C 0.6162 0.74484 0.85001 0.0
C5775 C 0.62187 0.74977 0.85053 0.0
C5776 C 0.617 0.7378 0.85233 0.0
C5777 C 0.61466 0.70419 0.87384 0.0
C5778 C 0.60183 0.70402 0.87662 0.0
C5779 C 0.60939 0.69415 0.88018 0.0
C5780 C 0.61529 0.69751 0.8771 0.0
C5781 C 0.60253 0.69729 0.88001 0.0
C5782 C 0.60786 0.70746 0.87356 0.0
C5783 C 0.62142 0.70752 0.87132 0.0
O5784 O 0.63945 0.71317 0.86024 0.0
O5785 O 0.63982 0.71943 0.87014 0.0
O5786 O 0.62386 0.71321 0.87463 0.0
O5787 O 0.62317 0.70721 0.86451 0.0
H5788 H 0.64274 0.70313 0.87316 0.0
H5789 H 0.65286 0.69661 0.87856 0.0
H5790 H 0.66758 0.71177 0.8692 0.0
H5791 H 0.65751 0.71821 0.86392 0.0
H5792 H 0.63311 0.75086 0.85323 0.0
H5793 H 0.63452 0.73837 0.85735 0.0
H5794 H 0.61097 0.74653 0.84814 0.0
H5795 H 0.61237 0.73431 0.85227 0.0
H5796 H 0.59666 0.70663 0.87636 0.0
H5797 H 0.61031 0.68913 0.88291 0.0
H5798 H 0.62048 0.69492 0.87747 0.0
H5799 H 0.60723 0.71266 0.87109 0.0
C5800 C 0.562 0.39793 0.1187 0.0
C5801 C 0.56834 0.39703 0.12262 0.0
C5802 C 0.56894 0.40994 0.12467 0.0
C5803 C 0.57181 0.40302 0.12555 0.0
C5804 C 0.56273 0.41078 0.12051 0.0
C5805 C 0.55931 0.40483 0.11756 0.0
U5806 U 0.55472 0.37828 0.11454 0.0
O5807 O 0.54309 0.37622 0.11517 0.0
O5808 O 0.54871 0.37584 0.10466 0.0
C5809 C 0.54265 0.37536 0.10821 0.0
C5810 C 0.55768 0.39191 0.11609 0.0
C5811 C 0.53587 0.37366 0.10465 0.0
C5812 C 0.52423 0.37759 0.10039 0.0
C5813 C 0.5312 0.37917 0.10263 0.0
C5814 C 0.52664 0.36495 0.10193 0.0
C5815 C 0.52185 0.37048 0.10019 0.0
C5816 C 0.53363 0.36653 0.10414 0.0
C5817 C 0.56692 0.36193 0.12247 0.0
C5818 C 0.56739 0.35046 0.12867 0.0
C5819 C 0.57834 0.35691 0.12616 0.0
C5820 C 0.5744 0.3623 0.12277 0.0
C5821 C 0.57489 0.35103 0.1294 0.0
C5822 C 0.56345 0.35588 0.12527 0.0
C5823 C 0.5628 0.36802 0.11957 0.0
O5824 O 0.56006 0.38809 0.11068 0.0
O5825 O 0.55408 0.38818 0.12084 0.0
O5826 O 0.55758 0.37094 0.12328 0.0
O5827 O 0.56381 0.37069 0.11313 0.0
H5828 H 0.57047 0.39173 0.12357 0.0
H5829 H 0.57658 0.4022 0.12876 0.0
H5830 H 0.56044 0.41602 0.11964 0.0
H5831 H 0.55442 0.40562 0.11452 0.0
H5832 H 0.52056 0.38193 0.09922 0.0
H5833 H 0.53283 0.38471 0.10311 0.0
H5834 H 0.52486 0.35944 0.10191 0.0
H5835 H 0.53715 0.36223 0.10577 0.0
H5836 H 0.56451 0.34604 0.13105 0.0
H5837 H 0.58411 0.35747 0.12639 0.0
H5838 H 0.5772 0.36688 0.12059 0.0
H5839 H 0.55766 0.35545 0.12499 0.0
C5840 C 0.87422 0.30949 0.36817 0.0
C5841 C 0.87543 0.31574 0.37218 0.0
C5842 C 0.86252 0.31704 0.37442 0.0
C5843 C 0.86963 0.3195 0.37524 0.0
C5844 C 0.86137 0.31094 0.37016 0.0
C5845 C 0.86713 0.30724 0.36709 0.0
U5846 U 0.89423 0.30361 0.36503 0.0
O5847 O 0.8987 0.29276 0.36587 0.0
O5848 O 0.89892 0.29827 0.3555 0.0
C5849 C 0.9006 0.29247 0.35911 0.0
C5850 C 0.88012 0.30491 0.36537 0.0
C5851 C 0.90034 0.28538 0.35551 0.0
C5852 C 0.89459 0.27392 0.35297 0.0
C5853 C 0.89415 0.28109 0.35527 0.0
C5854 C 0.90727 0.27538 0.35074 0.0
C5855 C 0.90121 0.27095 0.35084 0.0
C5856 C 0.90683 0.2825 0.35304 0.0
C5857 C 0.90883 0.31683 0.37368 0.0
C5858 C 0.92152 0.3165 0.377 0.0
C5859 C 0.91444 0.32703 0.37948 0.0
C5860 C 0.90846 0.32378 0.37641 0.0
C5861 C 0.92108 0.32348 0.37988 0.0
C5862 C 0.91543 0.31319 0.37393 0.0
C5863 C 0.90198 0.3136 0.37128 0.0
O5864 O 0.88412 0.30747 0.36018 0.0
O5865 O 0.88384 0.30131 0.37013 0.0
O5866 O 0.89959 0.3079 0.37462 0.0
O5867 O 0.90025 0.31381 0.36446 0.0
H5868 H 0.88084 0.3176 0.37309 0.0
H5869 H 0.87074 0.32416 0.37849 0.0
H5870 H 0.85599 0.30895 0.36927 0.0
H5871 H 0.86604 0.30247 0.36399 0.0
H5872 H 0.88985 0.27059 0.35316 0.0
H5873 H 0.88908 0.28317 0.35717 0.0
H5874 H 0.91245 0.27321 0.34927 0.0
H5875 H 0.9117 0.28565 0.35324 0.0
H5876 H 0.92653 0.31358 0.37718 0.0
H5877 H 0.91374 0.33229 0.38179 0.0
H5878 H 0.90343 0.32667 0.37637 0.0
H5879 H 0.91585 0.30779 0.37188 0.0
C5880 C 0.96193 0.62305 0.61851 0.0
C5881 C 0.95559 0.6241 0.62245 0.0
C5882 C 0.95464 0.61119 0.62462 0.0
C5883 C 0.95195 0.6182 0.62544 0.0
C5884 C 0.96082 0.61021 0.62044 0.0
C5885 C 0.96439 0.61605 0.61743 0.0
U5886 U 0.9687 0.64285 0.61456 0.0
O5887 O 0.97994 0.64631 0.6153 0.0
O5888 O 0.9745 0.64636 0.6048 0.0
C5889 C 0.98032 0.6479 0.60846 0.0
C5890 C 0.96647 0.62896 0.61577 0.0
C5891 C 0.98742 0.64807 0.60499 0.0
C5892 C 0.99915 0.64299 0.60241 0.0
C5893 C 0.992 0.64211 0.60463 0.0
C5894 C 0.99706 0.65563 0.60056 0.0
C5895 C 1.00178 0.64979 0.60052 0.0
C5896 C 0.98997 0.65476 0.60278 0.0
C5897 C 0.95595 0.6587 0.62208 0.0
C5898 C 0.9561 0.67052 0.6277 0.0
C5899 C 0.94495 0.66404 0.6265 0.0
C5900 C 0.94853 0.6585 0.62302 0.0
C5901 C 0.94871 0.66996 0.62921 0.0
C5902 C 0.95973 0.66488 0.6242 0.0
C5903 C 0.9594 0.65191 0.61989 0.0
O5904 O 0.96413 0.63277 0.61034 0.0
O5905 O 0.97003 0.63276 0.62049 0.0
O5906 O 0.96488 0.64943 0.62354 0.0
O5907 O 0.95903 0.64962 0.61325 0.0
H5908 H 0.95357 0.62945 0.62336 0.0
H5909 H 0.9472 0.61916 0.62864 0.0
H5910 H 0.96298 0.6049 0.61957 0.0
H5911 H 0.96923 0.61509 0.61438 0.0
H5912 H 1.0027 0.6384 0.60241 0.0
H5913 H 0.99015 0.6369 0.60632 0.0
H5914 H 0.99896 0.66094 0.59926 0.0
H5915 H 0.98655 0.65943 0.60312 0.0
H5916 H 0.95915 0.67504 0.62965 0.0
H5917 H 0.93925 0.66349 0.62739 0.0
H5918 H 0.9455 0.65382 0.62144 0.0
H5919 H 0.96548 0.66519 0.62349 0.0
C5920 C 0.64921 0.31079 0.65309 0.0
C5921 C 0.64823 0.31697 0.64896 0.0
C5922 C 0.66119 0.31781 0.64709 0.0
C5923 C 0.6542 0.32048 0.64601 0.0
C5924 C 0.66209 0.31176 0.65145 0.0
C5925 C 0.65617 0.3083 0.65441 0.0
U5926 U 0.62955 0.30346 0.65722 0.0
O5927 O 0.62748 0.29185 0.65665 0.0
O5928 O 0.62708 0.29751 0.66713 0.0
C5929 C 0.62664 0.29144 0.66361 0.0
C5930 C 0.64322 0.30642 0.65571 0.0
C5931 C 0.62485 0.2847 0.66719 0.0
C5932 C 0.62873 0.2731 0.67158 0.0
C5933 C 0.63034 0.28005 0.66934 0.0
C5934 C 0.61609 0.27548 0.66976 0.0
C5935 C 0.62161 0.2707 0.67161 0.0
C5936 C 0.61771 0.28245 0.66757 0.0
C5937 C 0.61325 0.31568 0.64919 0.0
C5938 C 0.6017 0.31625 0.6431 0.0
C5939 C 0.60826 0.32712 0.64557 0.0
C5940 C 0.61368 0.32314 0.64886 0.0
C5941 C 0.60228 0.32374 0.64238 0.0
C5942 C 0.60713 0.31227 0.64646 0.0
C5943 C 0.6193 0.31151 0.65213 0.0
O5944 O 0.63937 0.30879 0.66111 0.0
O5945 O 0.63951 0.3028 0.65097 0.0
O5946 O 0.62222 0.30628 0.64844 0.0
O5947 O 0.62195 0.31253 0.65857 0.0
H5948 H 0.64289 0.31895 0.64787 0.0
H5949 H 0.65331 0.3251 0.64265 0.0
H5950 H 0.66739 0.30963 0.65251 0.0
H5951 H 0.65702 0.30354 0.6576 0.0
H5952 H 0.63306 0.26946 0.67284 0.0
H5953 H 0.6359 0.28169 0.66896 0.0
H5954 H 0.61056 0.27371 0.66969 0.0
H5955 H 0.61342 0.28596 0.66585 0.0
H5956 H 0.59723 0.31338 0.64078 0.0
H5957 H 0.60886 0.33286 0.64544 0.0
H5958 H 0.61832 0.32589 0.651 0.0
H5959 H 0.60663 0.30651 0.64676 0.0
C5960 C 0.9618 0.39795 0.90329 0.0
C5961 C 0.95544 0.39692 0.89939 0.0
C5962 C 0.95457 0.40983 0.8972 0.0
C5963 C 0.95182 0.40284 0.89641 0.0
C5964 C 0.96077 0.41078 0.90135 0.0
C5965 C 0.96432 0.40493 0.90435 0.0
U5966 U 0.96859 0.37815 0.9072 0.0
O5967 O 0.97984 0.37479 0.90628 0.0
O5968 O 0.97456 0.37475 0.91688 0.0
C5969 C 0.98033 0.37326 0.91312 0.0
C5970 C 0.96632 0.39201 0.90598 0.0
C5971 C 0.98746 0.37286 0.91648 0.0
C5972 C 0.99897 0.37787 0.92005 0.0
C5973 C 0.99184 0.37883 0.91774 0.0
C5974 C 0.99726 0.36505 0.91994 0.0
C5975 C 1.00182 0.37094 0.92103 0.0
C5976 C 0.99019 0.36602 0.91774 0.0
C5977 C 0.95587 0.3622 0.89982 0.0
C5978 C 0.95611 0.35032 0.89435 0.0
C5979 C 0.94497 0.35686 0.89521 0.0
C5980 C 0.94847 0.36242 0.89871 0.0
C5981 C 0.94877 0.3509 0.89265 0.0
C5982 C 0.95968 0.35598 0.89787 0.0
C5983 C 0.95929 0.36901 0.90199 0.0
O5984 O 0.96402 0.38822 0.91144 0.0
O5985 O 0.96982 0.38821 0.90122 0.0
O5986 O 0.9647 0.37153 0.89827 0.0
O5987 O 0.95898 0.3713 0.90863 0.0
H5988 H 0.95338 0.39159 0.89849 0.0
H5989 H 0.94706 0.40192 0.89323 0.0
H5990 H 0.96298 0.41607 0.90218 0.0
H5991 H 0.96919 0.40584 0.90737 0.0
H5992 H 1.00228 0.38255 0.92094 0.0
H5993 H 0.98984 0.38418 0.91678 0.0
H5994 H 0.99922 0.35963 0.92046 0.0
H5995 H 0.98692 0.36134 0.91672 0.0
H5996 H 0.95918 0.34576 0.89251 0.0
H5997 H 0.93929 0.35744 0.89413 0.0
H5998 H 0.94543 0.36714 0.90015 0.0
H5999 H 0.96541 0.35566 0.89872 0.0
C6000 C 0.8742 0.71081 0.15346 0.0
C6001 C 0.87531 0.70452 0.14948 0.0
C6002 C 0.86239 0.70345 0.14727 0.0
C6003 C 0.86944 0.70085 0.14644 0.0
C6004 C 0.86134 0.70958 0.1515 0.0
C6005 C 0.86715 0.71318 0.15455 0.0
U6006 U 0.8941 0.71738 0.15694 0.0
O6007 O 0.89779 0.72853 0.15621 0.0
O6008 O 0.89813 0.72298 0.16661 0.0
C6009 C 0.89961 0.72883 0.16299 0.0
C6010 C 0.8801 0.71537 0.15622 0.0
C6011 C 0.89973 0.73589 0.16658 0.0
C6012 C 0.8944 0.74738 0.16979 0.0
C6013 C 0.89364 0.74024 0.16748 0.0
C6014 C 0.90724 0.74575 0.17064 0.0
C6015 C 0.90124 0.75023 0.17123 0.0
C6016 C 0.90648 0.73868 0.16836 0.0
C6017 C 0.90943 0.70462 0.14845 0.0
C6018 C 0.92206 0.7047 0.14489 0.0
C6019 C 0.91472 0.6943 0.14257 0.0
C6020 C 0.90888 0.69767 0.14576 0.0
C6021 C 0.92142 0.69773 0.14203 0.0
C6022 C 0.91609 0.70814 0.14807 0.0
C6023 C 0.90267 0.70796 0.15095 0.0
O6024 O 0.8841 0.7129 0.16146 0.0
O6025 O 0.88377 0.71905 0.15149 0.0
O6026 O 0.90011 0.71354 0.14753 0.0
O6027 O 0.90078 0.7076 0.15771 0.0
H6028 H 0.8807 0.70257 0.14856 0.0
H6029 H 0.87046 0.69615 0.14321 0.0
H6030 H 0.856 0.71167 0.15238 0.0
H6031 H 0.86615 0.71799 0.15763 0.0
H6032 H 0.88971 0.75077 0.17013 0.0
H6033 H 0.88838 0.73823 0.1661 0.0
H6034 H 0.91257 0.74785 0.17157 0.0
H6035 H 0.91126 0.73546 0.16763 0.0
H6036 H 0.92712 0.70751 0.1446 0.0
H6037 H 0.91387 0.68906 0.14028 0.0
H6038 H 0.90379 0.69488 0.1459 0.0
H6039 H 0.91666 0.71353 0.15009 0.0
C6040 C 0.56119 0.62334 0.40341 0.0
C6041 C 0.56814 0.6243 0.40069 0.0
C6042 C 0.56875 0.61159 0.39709 0.0
C6043 C 0.57191 0.61848 0.39764 0.0
C6044 C 0.5618 0.61079 0.40002 0.0
C6045 C 0.55817 0.61651 0.40316 0.0
U6046 U 0.55446 0.64308 0.40733 0.0
O6047 O 0.54326 0.64669 0.40669 0.0
O6048 O 0.54882 0.64683 0.4171 0.0
C6049 C 0.54297 0.64838 0.4135 0.0
C6050 C 0.55664 0.62918 0.4063 0.0
C6051 C 0.53589 0.64847 0.41707 0.0
C6052 C 0.52428 0.64321 0.41989 0.0
C6053 C 0.53144 0.64243 0.41764 0.0
C6054 C 0.52609 0.65594 0.42136 0.0
C6055 C 0.52151 0.65001 0.42161 0.0
C6056 C 0.53319 0.65517 0.41912 0.0
C6057 C 0.56728 0.65862 0.39937 0.0
C6058 C 0.56725 0.67021 0.3933 0.0
C6059 C 0.57845 0.66416 0.39567 0.0
C6060 C 0.57476 0.65861 0.39901 0.0
C6061 C 0.57477 0.66989 0.39245 0.0
C6062 C 0.56352 0.66459 0.39671 0.0
C6063 C 0.56384 0.65185 0.40165 0.0
O6064 O 0.5591 0.63307 0.41162 0.0
O6065 O 0.55286 0.63287 0.40167 0.0
O6066 O 0.55826 0.64941 0.39814 0.0
O6067 O 0.56425 0.6497 0.40833 0.0
H6068 H 0.57063 0.62952 0.40084 0.0
H6069 H 0.57726 0.61949 0.3957 0.0
H6070 H 0.55887 0.60584 0.39974 0.0
H6071 H 0.55282 0.61562 0.40524 0.0
H6072 H 0.52081 0.63857 0.42 0.0
H6073 H 0.53339 0.63721 0.41607 0.0
H6074 H 0.52406 0.66125 0.42251 0.0
H6075 H 0.5365 0.65991 0.41861 0.0
H6076 H 0.56422 0.67455 0.39097 0.0
H6077 H 0.58423 0.66379 0.39537 0.0
H6078 H 0.57779 0.65409 0.40102 0.0
H6079 H 0.55772 0.66475 0.39697 0.0
C6080 C 0.86914 0.64787 0.71123 0.0
C6081 C 0.87354 0.64669 0.70523 0.0
C6082 C 0.87531 0.65962 0.70378 0.0
C6083 C 0.87657 0.65252 0.70152 0.0
C6084 C 0.87065 0.66072 0.7096 0.0
C6085 C 0.86763 0.65493 0.71326 0.0
U6086 U 0.86575 0.62803 0.7177 0.0
O6087 O 0.86644 0.62417 0.72879 0.0
O6088 O 0.85606 0.62387 0.72318 0.0
C6089 C 0.85966 0.62232 0.72903 0.0
C6090 C 0.86637 0.64202 0.71584 0.0
C6091 C 0.85602 0.62229 0.73606 0.0
C6092 C 0.85284 0.62772 0.74749 0.0
C6093 C 0.85519 0.62841 0.74036 0.0
C6094 C 0.8518 0.61492 0.74594 0.0
C6095 C 0.85129 0.62094 0.75037 0.0
C6096 C 0.85412 0.6156 0.73887 0.0
C6097 C 0.87429 0.61285 0.7049 0.0
C6098 C 0.87771 0.60021 0.70502 0.0
C6099 C 0.88023 0.60751 0.69465 0.0
C6100 C 0.87707 0.61337 0.69798 0.0
C6101 C 0.88065 0.60082 0.69807 0.0
C6102 C 0.87456 0.6062 0.70843 0.0
C6103 C 0.87183 0.61963 0.70819 0.0
O6104 O 0.86113 0.63803 0.71336 0.0
O6105 O 0.87113 0.63836 0.71951 0.0
O6106 O 0.87522 0.62215 0.71381 0.0
O6107 O 0.86505 0.62151 0.70783 0.0
H6108 H 0.87478 0.6413 0.70355 0.0
H6109 H 0.88013 0.65145 0.69708 0.0
H6110 H 0.86941 0.66607 0.71142 0.0
H6111 H 0.86423 0.65598 0.71784 0.0
H6112 H 0.85255 0.63243 0.75086 0.0
H6113 H 0.85665 0.63363 0.73833 0.0
H6114 H 0.85079 0.60963 0.74807 0.0
H6115 H 0.85481 0.61081 0.73569 0.0
H6116 H 0.8779 0.59516 0.70784 0.0
H6117 H 0.88259 0.60834 0.68942 0.0
H6118 H 0.87702 0.61845 0.69519 0.0
H6119 H 0.87247 0.60567 0.71381 0.0
C6120 C 0.62411 0.61786 0.96112 0.0
C6121 C 0.62518 0.62166 0.95471 0.0
C6122 C 0.61229 0.62407 0.95386 0.0
C6123 C 0.61929 0.62469 0.95108 0.0
C6124 C 0.61127 0.62005 0.96012 0.0
C6125 C 0.6171 0.61697 0.96367 0.0
U6126 U 0.64404 0.61441 0.96761 0.0
O6127 O 0.6477 0.61514 0.97879 0.0
O6128 O 0.64802 0.60473 0.97324 0.0
C6129 C 0.64948 0.60836 0.97909 0.0
C6130 C 0.63005 0.61511 0.96563 0.0
C6131 C 0.64976 0.60479 0.98616 0.0
C6132 C 0.64458 0.6011 0.99759 0.0
C6133 C 0.64371 0.60341 0.99045 0.0
C6134 C 0.65745 0.60128 0.99607 0.0
C6135 C 0.65149 0.60023 1.00051 0.0
C6136 C 0.65659 0.60348 0.98899 0.0
C6137 C 0.65945 0.62285 0.95493 0.0
C6138 C 0.67197 0.62674 0.9553 0.0
C6139 C 0.66497 0.62844 0.94455 0.0
C6140 C 0.65908 0.62524 0.94785 0.0
C6141 C 0.6715 0.62932 0.94821 0.0
C6142 C 0.66598 0.62353 0.95866 0.0
C6143 C 0.65262 0.6204 0.95819 0.0
O6144 O 0.63404 0.60989 0.96312 0.0
O6145 O 0.63371 0.61985 0.96931 0.0
O6146 O 0.65005 0.62381 0.96377 0.0
O6147 O 0.65072 0.61364 0.95782 0.0
H6148 H 0.63054 0.62243 0.95263 0.0
H6149 H 0.62024 0.62777 0.94626 0.0
H6150 H 0.60595 0.61939 0.96235 0.0
H6151 H 0.61614 0.61404 0.96858 0.0
H6152 H 0.6399 0.60039 1.00095 0.0
H6153 H 0.63837 0.60441 0.9884 0.0
H6154 H 0.66283 0.60074 0.99819 0.0
H6155 H 0.66132 0.60455 0.98581 0.0
H6156 H 0.67692 0.62728 0.95828 0.0
H6157 H 0.66427 0.6305 0.93919 0.0
H6158 H 0.6541 0.62487 0.9449 0.0
H6159 H 0.6664 0.62175 0.96415 0.0
C6160 C 0.65444 0.37303 0.21187 0.0
C6161 C 0.65019 0.37426 0.20578 0.0
C6162 C 0.64824 0.36136 0.20429 0.0
C6163 C 0.64714 0.36848 0.20201 0.0
C6164 C 0.65276 0.3602 0.21021 0.0
C6165 C 0.6558 0.36595 0.21393 0.0
U6166 U 0.65739 0.39297 0.21769 0.0
O6167 O 0.6563 0.39744 0.22852 0.0
O6168 O 0.6668 0.39769 0.22319 0.0
C6169 C 0.66305 0.39938 0.2289 0.0
C6170 C 0.65717 0.37889 0.21648 0.0
C6171 C 0.66651 0.39934 0.23604 0.0
C6172 C 0.67014 0.39371 0.24728 0.0
C6173 C 0.66765 0.39315 0.24016 0.0
C6174 C 0.67043 0.40658 0.24613 0.0
C6175 C 0.67144 0.40047 0.25043 0.0
C6176 C 0.66807 0.406 0.23907 0.0
C6177 C 0.64881 0.40749 0.20441 0.0
C6178 C 0.64576 0.42022 0.20467 0.0
C6179 C 0.64282 0.41308 0.1943 0.0
C6180 C 0.64587 0.4071 0.19754 0.0
C6181 C 0.64268 0.41976 0.19776 0.0
C6182 C 0.6488 0.41413 0.20798 0.0
C6183 C 0.65122 0.40065 0.20762 0.0
O6184 O 0.66238 0.3829 0.21396 0.0
O6185 O 0.65233 0.38259 0.22 0.0
O6186 O 0.6478 0.39822 0.21326 0.0
O6187 O 0.65806 0.39898 0.2075 0.0
H6188 H 0.64906 0.37967 0.20407 0.0
H6189 H 0.64369 0.36961 0.1975 0.0
H6190 H 0.65388 0.35483 0.21205 0.0
H6191 H 0.65909 0.36485 0.21858 0.0
H6192 H 0.67093 0.38885 0.25032 0.0
H6193 H 0.66646 0.38793 0.23794 0.0
H6194 H 0.67113 0.4119 0.24828 0.0
H6195 H 0.66717 0.41086 0.23604 0.0
H6196 H 0.64578 0.42526 0.20752 0.0
H6197 H 0.64034 0.41235 0.18912 0.0
H6198 H 0.64572 0.40204 0.19472 0.0
H6199 H 0.65101 0.41456 0.21331 0.0
C6200 C 0.89932 0.40307 0.46106 0.0
C6201 C 0.89826 0.39924 0.45467 0.0
C6202 C 0.91116 0.39688 0.4538 0.0
C6203 C 0.90415 0.39621 0.45104 0.0
C6204 C 0.91216 0.40094 0.46005 0.0
C6205 C 0.90632 0.404 0.4636 0.0
U6206 U 0.87937 0.40652 0.46752 0.0
O6207 O 0.87571 0.40581 0.47869 0.0
O6208 O 0.87539 0.41621 0.47311 0.0
C6209 C 0.87392 0.4126 0.47897 0.0
C6210 C 0.89337 0.40582 0.46556 0.0
C6211 C 0.87364 0.41619 0.48603 0.0
C6212 C 0.87882 0.4199 0.49746 0.0
C6213 C 0.87969 0.41757 0.49032 0.0
C6214 C 0.86594 0.41972 0.49592 0.0
C6215 C 0.8719 0.42076 0.50037 0.0
C6216 C 0.86681 0.41751 0.48885 0.0
C6217 C 0.86396 0.39806 0.45486 0.0
C6218 C 0.85144 0.39416 0.45526 0.0
C6219 C 0.85842 0.39248 0.44449 0.0
C6220 C 0.86431 0.39568 0.44778 0.0
C6221 C 0.85189 0.39159 0.44816 0.0
C6222 C 0.85744 0.39737 0.4586 0.0
C6223 C 0.8708 0.40051 0.4581 0.0
O6224 O 0.88937 0.41104 0.46304 0.0
O6225 O 0.8897 0.40109 0.46924 0.0
O6226 O 0.87337 0.39712 0.4637 0.0
O6227 O 0.87271 0.40726 0.45772 0.0
H6228 H 0.8929 0.39844 0.4526 0.0
H6229 H 0.9032 0.3931 0.44625 0.0
H6230 H 0.91748 0.40165 0.46226 0.0
H6231 H 0.90728 0.40697 0.46849 0.0
H6232 H 0.88349 0.42061 0.50082 0.0
H6233 H 0.88503 0.41657 0.48828 0.0
H6234 H 0.86057 0.42027 0.49804 0.0
H6235 H 0.86208 0.41644 0.48566 0.0
H6236 H 0.8465 0.39362 0.45825 0.0
H6237 H 0.85911 0.39043 0.43912 0.0
H6238 H 0.86929 0.39606 0.44482 0.0
H6239 H 0.85703 0.39915 0.4641 0.0
C6240 C 0.86917 0.37307 0.8106 0.0
C6241 C 0.87359 0.37425 0.81658 0.0
C6242 C 0.87534 0.36132 0.81805 0.0
C6243 C 0.87662 0.36842 0.82029 0.0
C6244 C 0.87066 0.36022 0.81225 0.0
C6245 C 0.86764 0.36601 0.80859 0.0
U6246 U 0.86585 0.39289 0.80403 0.0
O6247 O 0.86684 0.39667 0.79293 0.0
O6248 O 0.85629 0.39698 0.79826 0.0
C6249 C 0.86005 0.39848 0.7925 0.0
C6250 C 0.86646 0.37891 0.80594 0.0
C6251 C 0.85662 0.39874 0.78535 0.0
C6252 C 0.85265 0.39351 0.77405 0.0
C6253 C 0.85507 0.39269 0.78116 0.0
C6254 C 0.85327 0.40635 0.77535 0.0
C6255 C 0.85184 0.40039 0.77098 0.0
C6256 C 0.85555 0.40552 0.78241 0.0
C6257 C 0.87424 0.4081 0.81692 0.0
C6258 C 0.87767 0.42074 0.81679 0.0
C6259 C 0.88015 0.41346 0.82719 0.0
C6260 C 0.877 0.40759 0.82385 0.0
C6261 C 0.88059 0.42014 0.82375 0.0
C6262 C 0.87452 0.41475 0.81338 0.0
C6263 C 0.87178 0.40132 0.81361 0.0
O6264 O 0.86117 0.3829 0.80833 0.0
O6265 O 0.87127 0.38257 0.80235 0.0
O6266 O 0.87526 0.39875 0.80808 0.0
O6267 O 0.86498 0.3995 0.81385 0.0
H6268 H 0.87486 0.37965 0.81824 0.0
H6269 H 0.8802 0.36949 0.82472 0.0
H6270 H 0.8694 0.35487 0.81045 0.0
H6271 H 0.86422 0.36496 0.80402 0.0
H6272 H 0.85152 0.38877 0.77093 0.0
H6273 H 0.85587 0.38737 0.78332 0.0
H6274 H 0.85295 0.41174 0.77327 0.0
H6275 H 0.85679 0.41026 0.78551 0.0
H6276 H 0.87787 0.42579 0.81397 0.0
H6277 H 0.88249 0.41264 0.83242 0.0
H6278 H 0.87693 0.40252 0.82665 0.0
H6279 H 0.87245 0.41528 0.808 0.0
C6280 C 0.89913 0.61788 0.06049 0.0
C6281 C 0.89797 0.62202 0.06667 0.0
C6282 C 0.91091 0.62404 0.06793 0.0
C6283 C 0.90382 0.62504 0.07038 0.0
C6284 C 0.912 0.61965 0.06192 0.0
C6285 C 0.9062 0.61662 0.05827 0.0
U6286 U 0.87918 0.61465 0.0542 0.0
O6287 O 0.87516 0.61555 0.04318 0.0
O6288 O 0.87486 0.60511 0.0486 0.0
C6289 C 0.8733 0.60879 0.04281 0.0
C6290 C 0.89323 0.61516 0.05589 0.0
C6291 C 0.87337 0.60527 0.03569 0.0
C6292 C 0.87884 0.60247 0.02416 0.0
C6293 C 0.87948 0.6048 0.03131 0.0
C6294 C 0.86609 0.60081 0.02583 0.0
C6295 C 0.87208 0.6006 0.02128 0.0
C6296 C 0.86674 0.6031 0.03292 0.0
C6297 C 0.86405 0.62299 0.06711 0.0
C6298 C 0.85153 0.62687 0.06654 0.0
C6299 C 0.85832 0.62844 0.07745 0.0
C6300 C 0.86427 0.62528 0.07423 0.0
C6301 C 0.85186 0.62937 0.07367 0.0
C6302 C 0.85759 0.6237 0.06327 0.0
C6303 C 0.87095 0.62065 0.06394 0.0
O6304 O 0.88924 0.60992 0.05835 0.0
O6305 O 0.88955 0.61995 0.0523 0.0
O6306 O 0.87345 0.62408 0.05834 0.0
O6307 O 0.8728 0.61387 0.06417 0.0
H6308 H 0.89257 0.62307 0.06851 0.0
H6309 H 0.90277 0.6284 0.07498 0.0
H6310 H 0.91736 0.61862 0.05994 0.0
H6311 H 0.90724 0.61342 0.05355 0.0
H6312 H 0.88358 0.60229 0.02083 0.0
H6313 H 0.88466 0.60646 0.03332 0.0
H6314 H 0.8608 0.59955 0.02383 0.0
H6315 H 0.86194 0.60349 0.03617 0.0
H6316 H 0.84665 0.62746 0.06347 0.0
H6317 H 0.8589 0.63043 0.08285 0.0
H6318 H 0.8692 0.62489 0.07727 0.0
H6319 H 0.85728 0.62199 0.05774 0.0
C6320 C 0.65415 0.64786 0.31062 0.0
C6321 C 0.64972 0.64671 0.3166 0.0
C6322 C 0.64799 0.65965 0.31805 0.0
C6323 C 0.6467 0.65255 0.3203 0.0
C6324 C 0.65267 0.66072 0.31224 0.0
C6325 C 0.65569 0.65492 0.3086 0.0
U6326 U 0.6579 0.6281 0.30373 0.0
O6327 O 0.65727 0.62465 0.29251 0.0
O6328 O 0.66768 0.62436 0.2981 0.0
C6329 C 0.66408 0.6229 0.29223 0.0
C6330 C 0.65693 0.64201 0.306 0.0
C6331 C 0.66767 0.62278 0.28519 0.0
C6332 C 0.6703 0.62793 0.27352 0.0
C6333 C 0.66805 0.62876 0.28066 0.0
C6334 C 0.67219 0.61528 0.27554 0.0
C6335 C 0.67222 0.62114 0.27086 0.0
C6336 C 0.66993 0.6161 0.28262 0.0
C6337 C 0.64949 0.61271 0.31658 0.0
C6338 C 0.64613 0.6001 0.31744 0.0
C6339 C 0.64314 0.60828 0.327 0.0
C6340 C 0.64648 0.61382 0.32332 0.0
C6341 C 0.64288 0.60128 0.3242 0.0
C6342 C 0.64935 0.60579 0.31363 0.0
C6343 C 0.65214 0.61914 0.31283 0.0
O6344 O 0.66225 0.63808 0.30839 0.0
O6345 O 0.65221 0.63833 0.30231 0.0
O6346 O 0.64863 0.62175 0.30733 0.0
O6347 O 0.65885 0.62122 0.31334 0.0
H6348 H 0.64845 0.64132 0.31828 0.0
H6349 H 0.64312 0.6515 0.32473 0.0
H6350 H 0.65394 0.66607 0.31043 0.0
H6351 H 0.65911 0.65595 0.30403 0.0
H6352 H 0.6703 0.63253 0.27 0.0
H6353 H 0.66631 0.63396 0.28253 0.0
H6354 H 0.67351 0.60998 0.27361 0.0
H6355 H 0.66958 0.61141 0.286 0.0
H6356 H 0.64617 0.59484 0.31505 0.0
H6357 H 0.64053 0.6097 0.33195 0.0
H6358 H 0.64646 0.61912 0.32566 0.0
H6359 H 0.65163 0.6048 0.30839 0.0
C6360 C 0.62431 0.40323 0.55981 0.0
C6361 C 0.62553 0.39919 0.56603 0.0
C6362 C 0.61262 0.39701 0.56739 0.0
C6363 C 0.61973 0.39614 0.56981 0.0
C6364 C 0.61146 0.40132 0.56132 0.0
C6365 C 0.61722 0.40437 0.55759 0.0
U6366 U 0.64435 0.40627 0.55413 0.0
O6367 O 0.649 0.40533 0.54335 0.0
O6368 O 0.64916 0.41572 0.5488 0.0
C6369 C 0.65089 0.41209 0.54302 0.0
C6370 C 0.63022 0.406 0.55522 0.0
C6371 C 0.65052 0.41565 0.53591 0.0
C6372 C 0.64471 0.41788 0.5244 0.0
C6373 C 0.64435 0.41558 0.53158 0.0
C6374 C 0.65725 0.42076 0.52592 0.0
C6375 C 0.65122 0.42034 0.52146 0.0
C6376 C 0.6569 0.41843 0.53304 0.0
C6377 C 0.6589 0.39783 0.5674 0.0
C6378 C 0.67136 0.39387 0.56651 0.0
C6379 C 0.665 0.39271 0.57771 0.0
C6380 C 0.65893 0.39578 0.5746 0.0
C6381 C 0.67129 0.39161 0.57372 0.0
C6382 C 0.66522 0.39697 0.56337 0.0
C6383 C 0.65192 0.40009 0.56431 0.0
O6384 O 0.6342 0.4112 0.55778 0.0
O6385 O 0.63397 0.4012 0.5517 0.0
O6386 O 0.64958 0.39671 0.55861 0.0
O6387 O 0.65017 0.40689 0.56445 0.0
H6388 H 0.63095 0.39823 0.56787 0.0
H6389 H 0.62086 0.39286 0.57444 0.0
H6390 H 0.60608 0.40226 0.55936 0.0
H6391 H 0.61612 0.4075 0.55284 0.0
H6392 H 0.63999 0.41747 0.52106 0.0
H6393 H 0.63936 0.41346 0.53364 0.0
H6394 H 0.66235 0.42249 0.52378 0.0
H6395 H 0.66175 0.41846 0.53623 0.0
H6396 H 0.67613 0.39314 0.56327 0.0
H6397 H 0.66463 0.39091 0.58321 0.0
H6398 H 0.65411 0.39629 0.5778 0.0
H6399 H 0.66533 0.3985 0.55778 0.0
C6400 C 0.71253 0.86784 0.64832 0.0
C6401 C 0.7067 0.87242 0.64705 0.0
C6402 C 0.70493 0.87407 0.65996 0.0
C6403 C 0.70292 0.87549 0.65282 0.0
C6404 C 0.71059 0.86922 0.66115 0.0
C6405 C 0.71433 0.86617 0.65541 0.0
U6406 U 0.7182 0.86471 0.6284 0.0
O6407 O 0.72906 0.86553 0.62385 0.0
O6408 O 0.72347 0.85519 0.62368 0.0
C6409 C 0.7293 0.85875 0.62201 0.0
C6410 C 0.71715 0.86507 0.64249 0.0
C6411 C 0.73636 0.85507 0.62227 0.0
C6412 C 0.74812 0.85273 0.62762 0.0
C6413 C 0.74095 0.85512 0.62826 0.0
C6414 C 0.74595 0.8498 0.61521 0.0
C6415 C 0.75079 0.85036 0.62096 0.0
C6416 C 0.73888 0.85214 0.61585 0.0
C6417 C 0.70503 0.87289 0.61368 0.0
C6418 C 0.70633 0.87678 0.60126 0.0
C6419 C 0.69492 0.87809 0.60726 0.0
C6420 C 0.69782 0.87501 0.61343 0.0
C6421 C 0.69916 0.87916 0.60116 0.0
C6422 C 0.70924 0.87363 0.60747 0.0
C6423 C 0.70799 0.87078 0.62075 0.0
O6424 O 0.71461 0.85982 0.63856 0.0
O6425 O 0.72064 0.86986 0.63871 0.0
O6426 O 0.71368 0.8742 0.62308 0.0
O6427 O 0.70787 0.86401 0.62259 0.0
H6428 H 0.70519 0.87378 0.64163 0.0
H6429 H 0.69863 0.8792 0.65166 0.0
H6430 H 0.71221 0.86783 0.66653 0.0
H6431 H 0.71878 0.86262 0.65653 0.0
H6432 H 0.75168 0.8532 0.63217 0.0
H6433 H 0.73912 0.85732 0.6333 0.0
H6434 H 0.74776 0.8479 0.61004 0.0
H6435 H 0.73547 0.85203 0.61116 0.0
H6436 H 0.70972 0.87759 0.59662 0.0
H6437 H 0.68943 0.87998 0.60738 0.0
H6438 H 0.69449 0.87458 0.61816 0.0
H6439 H 0.71482 0.87204 0.60752 0.0
C6440 C 0.21197 0.65292 0.37351 0.0
C6441 C 0.20559 0.64906 0.37455 0.0
C6442 C 0.20469 0.64685 0.36164 0.0
C6443 C 0.20195 0.64608 0.36864 0.0
C6444 C 0.21092 0.65095 0.36067 0.0
C6445 C 0.21448 0.65395 0.36652 0.0
U6446 U 0.2188 0.65675 0.39334 0.0
O6447 O 0.23006 0.65609 0.39671 0.0
O6448 O 0.22454 0.66653 0.39688 0.0
C6449 C 0.2304 0.66291 0.39834 0.0
C6450 C 0.2165 0.65564 0.37945 0.0
C6451 C 0.23748 0.66644 0.39852 0.0
C6452 C 0.24919 0.66913 0.39343 0.0
C6453 C 0.24204 0.66689 0.39256 0.0
C6454 C 0.24713 0.67083 0.40611 0.0
C6455 C 0.25183 0.67096 0.40026 0.0
C6456 C 0.24004 0.66859 0.40524 0.0
C6457 C 0.20608 0.64902 0.40917 0.0
C6458 C 0.20609 0.64297 0.42078 0.0
C6459 C 0.19491 0.64524 0.41465 0.0
C6460 C 0.1986 0.64861 0.40912 0.0
C6461 C 0.19858 0.64206 0.42041 0.0
C6462 C 0.20983 0.6464 0.41517 0.0
C6463 C 0.20956 0.6513 0.40241 0.0
O6464 O 0.21413 0.66101 0.38332 0.0
O6465 O 0.22011 0.65091 0.38319 0.0
O6466 O 0.21507 0.64772 0.3999 0.0
O6467 O 0.20913 0.65795 0.40015 0.0
H6468 H 0.20353 0.64819 0.37989 0.0
H6469 H 0.19717 0.64294 0.36957 0.0
H6470 H 0.21312 0.65175 0.35536 0.0
H6471 H 0.21937 0.65694 0.36558 0.0
H6472 H 0.25274 0.66917 0.38885 0.0
H6473 H 0.24019 0.66524 0.38732 0.0
H6474 H 0.24905 0.67207 0.41144 0.0
H6475 H 0.23664 0.66818 0.40992 0.0
H6476 H 0.20911 0.64066 0.42515 0.0
H6477 H 0.18913 0.64487 0.41424 0.0
H6478 H 0.19559 0.65059 0.40458 0.0
H6479 H 0.21562 0.64669 0.41536 0.0
C6480 C 0.61947 0.96054 0.6234 0.0
C6481 C 0.62361 0.95435 0.62447 0.0
C6482 C 0.62551 0.95326 0.61153 0.0
C6483 C 0.62657 0.95072 0.61856 0.0
C6484 C 0.62112 0.95929 0.61054 0.0
C6485 C 0.61816 0.96286 0.6164 0.0
U6486 U 0.61592 0.96727 0.64322 0.0
O6487 O 0.60626 0.97317 0.64684 0.0
O6488 O 0.61684 0.97852 0.64654 0.0
C6489 C 0.61001 0.97897 0.64815 0.0
C6490 C 0.61681 0.96508 0.62931 0.0
C6491 C 0.60657 0.98607 0.64874 0.0
C6492 C 0.60223 0.99745 0.64403 0.0
C6493 C 0.60474 0.99041 0.64289 0.0
C6494 C 0.60346 0.99575 0.65678 0.0
C6495 C 0.60169 1.00035 0.65104 0.0
C6496 C 0.60574 0.98876 0.65563 0.0
C6497 C 0.62405 0.95451 0.6588 0.0
C6498 C 0.62749 0.95438 0.67143 0.0
C6499 C 0.63002 0.94416 0.66392 0.0
C6500 C 0.62683 0.9476 0.65813 0.0
C6501 C 0.63046 0.94746 0.67068 0.0
C6502 C 0.62431 0.95789 0.66552 0.0
C6503 C 0.62158 0.95797 0.65211 0.0
O6504 O 0.61147 0.96272 0.63324 0.0
O6505 O 0.62162 0.96864 0.633 0.0
O6506 O 0.62515 0.96343 0.64949 0.0
O6507 O 0.61483 0.95768 0.65012 0.0
H6508 H 0.6247 0.95246 0.62983 0.0
H6509 H 0.62994 0.9461 0.61953 0.0
H6510 H 0.62007 0.96133 0.60522 0.0
H6511 H 0.61496 0.96761 0.61545 0.0
H6512 H 0.60085 1.00057 0.63937 0.0
H6513 H 0.60536 0.98843 0.63748 0.0
H6514 H 0.60345 0.99748 0.66227 0.0
H6515 H 0.60717 0.98552 0.66022 0.0
H6516 H 0.62768 0.95709 0.67655 0.0
H6517 H 0.6324 0.93897 0.66298 0.0
H6518 H 0.62678 0.94492 0.65299 0.0
H6519 H 0.62221 0.96325 0.66618 0.0
C6520 C 0.31074 0.3677 0.87356 0.0
C6521 C 0.31714 0.37152 0.8747 0.0
C6522 C 0.3182 0.37395 0.86184 0.0
C6523 C 0.32086 0.37457 0.86888 0.0
C6524 C 0.31194 0.36991 0.86075 0.0
C6525 C 0.30829 0.36682 0.86652 0.0
U6526 U 0.30509 0.3644 0.8936 0.0
O6527 O 0.29427 0.3654 0.89817 0.0
O6528 O 0.2996 0.35493 0.89819 0.0
C6529 C 0.29386 0.35862 0.89996 0.0
C6530 C 0.30621 0.36493 0.8795 0.0
C6531 C 0.2867 0.35514 0.89959 0.0
C6532 C 0.27512 0.35305 0.89385 0.0
C6533 C 0.28232 0.35531 0.89346 0.0
C6534 C 0.27672 0.35001 0.90632 0.0
C6535 C 0.27221 0.35052 0.90034 0.0
C6536 C 0.28386 0.35231 0.90595 0.0
C6537 C 0.31837 0.37245 0.90837 0.0
C6538 C 0.3173 0.37625 0.92086 0.0
C6539 C 0.32836 0.37826 0.91441 0.0
C6540 C 0.32545 0.37495 0.90837 0.0
C6541 C 0.32428 0.37912 0.92065 0.0
C6542 C 0.31435 0.37293 0.91474 0.0
C6543 C 0.31531 0.37029 0.90136 0.0
O6544 O 0.30875 0.35964 0.88339 0.0
O6545 O 0.30276 0.36971 0.88333 0.0
O6546 O 0.30968 0.3738 0.89901 0.0
O6547 O 0.31534 0.36351 0.89953 0.0
H6548 H 0.31916 0.37228 0.88008 0.0
H6549 H 0.32566 0.37766 0.86992 0.0
H6550 H 0.30979 0.36921 0.85541 0.0
H6551 H 0.30339 0.36388 0.86549 0.0
H6552 H 0.27175 0.35351 0.88916 0.0
H6553 H 0.28436 0.35747 0.88849 0.0
H6554 H 0.27461 0.34821 0.91141 0.0
H6555 H 0.28708 0.35219 0.91077 0.0
H6556 H 0.31403 0.37692 0.92559 0.0
H6557 H 0.3337 0.38051 0.91407 0.0
H6558 H 0.32863 0.3747 0.90353 0.0
H6559 H 0.30886 0.37106 0.91488 0.0
C6560 C 0.40419 0.56023 0.62353 0.0
C6561 C 0.39995 0.56635 0.62465 0.0
C6562 C 0.39804 0.56759 0.61171 0.0
C6563 C 0.39693 0.57002 0.61879 0.0
C6564 C 0.40252 0.56164 0.61067 0.0
C6565 C 0.40554 0.55803 0.61649 0.0
U6566 U 0.40778 0.55339 0.64334 0.0
O6567 O 0.40702 0.54218 0.64676 0.0
O6568 O 0.41749 0.54767 0.64716 0.0
C6569 C 0.41382 0.54183 0.64855 0.0
C6570 C 0.40693 0.55565 0.62941 0.0
C6571 C 0.41734 0.53475 0.6487 0.0
C6572 C 0.42014 0.52312 0.64353 0.0
C6573 C 0.41787 0.53025 0.6427 0.0
C6574 C 0.42164 0.52506 0.65625 0.0
C6575 C 0.42188 0.52039 0.65036 0.0
C6576 C 0.41941 0.53213 0.65541 0.0
C6577 C 0.39923 0.5662 0.6587 0.0
C6578 C 0.3963 0.5671 0.67143 0.0
C6579 C 0.39252 0.57635 0.66322 0.0
C6580 C 0.39578 0.57273 0.65759 0.0
C6581 C 0.39271 0.57366 0.67026 0.0
C6582 C 0.39952 0.56337 0.66567 0.0
C6583 C 0.40192 0.56252 0.65222 0.0
O6584 O 0.41222 0.55805 0.63339 0.0
O6585 O 0.40219 0.55195 0.63306 0.0
O6586 O 0.39842 0.55705 0.64955 0.0
O6587 O 0.40868 0.56297 0.65028 0.0
H6588 H 0.39882 0.56817 0.63004 0.0
H6589 H 0.3935 0.57458 0.61981 0.0
H6590 H 0.40363 0.55968 0.60533 0.0
H6591 H 0.40881 0.55335 0.61548 0.0
H6592 H 0.42036 0.51968 0.63887 0.0
H6593 H 0.41629 0.53216 0.63746 0.0
H6594 H 0.42281 0.52315 0.66159 0.0
H6595 H 0.41896 0.53549 0.66012 0.0
H6596 H 0.39662 0.56483 0.67675 0.0
H6597 H 0.38962 0.58118 0.66192 0.0
H6598 H 0.39542 0.57496 0.65226 0.0
H6599 H 0.40213 0.55829 0.66666 0.0
C6600 C 0.8106 0.15317 0.14821 0.0
C6601 C 0.81651 0.14867 0.14694 0.0
C6602 C 0.81826 0.14695 0.15986 0.0
C6603 C 0.82031 0.14561 0.1527 0.0
C6604 C 0.81253 0.15171 0.16105 0.0
C6605 C 0.80876 0.15475 0.15531 0.0
U6606 U 0.80497 0.1562 0.12824 0.0
O6607 O 0.79422 0.15519 0.12351 0.0
O6608 O 0.7996 0.16561 0.12337 0.0
C6609 C 0.79386 0.16194 0.12162 0.0
C6610 C 0.80596 0.15593 0.14235 0.0
C6611 C 0.78672 0.16546 0.12198 0.0
C6612 C 0.77514 0.16759 0.12772 0.0
C6613 C 0.78232 0.16525 0.12809 0.0
C6614 C 0.7768 0.17073 0.11528 0.0
C6615 C 0.77223 0.1702 0.12125 0.0
C6616 C 0.78392 0.16838 0.11565 0.0
C6617 C 0.81829 0.1479 0.11374 0.0
C6618 C 0.81723 0.14384 0.10134 0.0
C6619 C 0.82859 0.14291 0.10748 0.0
C6620 C 0.82554 0.14597 0.11359 0.0
C6621 C 0.82448 0.14168 0.1013 0.0
C6622 C 0.81415 0.14694 0.10751 0.0
C6623 C 0.81525 0.15008 0.12075 0.0
O6624 O 0.80848 0.16117 0.1384 0.0
O6625 O 0.80248 0.15112 0.13859 0.0
O6626 O 0.80957 0.14667 0.12308 0.0
O6627 O 0.81533 0.15689 0.12251 0.0
H6628 H 0.81806 0.14737 0.14151 0.0
H6629 H 0.82466 0.14197 0.15153 0.0
H6630 H 0.81086 0.15304 0.16643 0.0
H6631 H 0.80426 0.15824 0.15644 0.0
H6632 H 0.77181 0.16718 0.13244 0.0
H6633 H 0.78433 0.16302 0.13304 0.0
H6634 H 0.77476 0.1726 0.11019 0.0
H6635 H 0.78717 0.16854 0.11085 0.0
H6636 H 0.81391 0.143 0.09666 0.0
H6637 H 0.83414 0.14121 0.10773 0.0
H6638 H 0.82882 0.14656 0.11834 0.0
H6639 H 0.80853 0.14838 0.10749 0.0
C6640 C 0.61935 0.06074 0.89837 0.0
C6641 C 0.62373 0.06675 0.8973 0.0
C6642 C 0.62546 0.0679 0.91026 0.0
C6643 C 0.62674 0.07032 0.90321 0.0
C6644 C 0.62084 0.06204 0.91124 0.0
C6645 C 0.61784 0.05852 0.90537 0.0
U6646 U 0.61557 0.05354 0.87868 0.0
O6647 O 0.61606 0.04209 0.87603 0.0
O6648 O 0.60566 0.04784 0.87543 0.0
C6649 C 0.60921 0.04184 0.87448 0.0
C6650 C 0.61664 0.05624 0.89247 0.0
C6651 C 0.60558 0.0349 0.8736 0.0
C6652 C 0.60185 0.02322 0.878 0.0
C6653 C 0.60416 0.03026 0.87934 0.0
C6654 C 0.60212 0.02559 0.86526 0.0
C6655 C 0.60108 0.02075 0.87092 0.0
C6656 C 0.60431 0.03258 0.8666 0.0
C6657 C 0.62414 0.06589 0.86284 0.0
C6658 C 0.62722 0.06688 0.85017 0.0
C6659 C 0.63078 0.07615 0.85846 0.0
C6660 C 0.62749 0.07246 0.86404 0.0
C6661 C 0.63072 0.07346 0.85141 0.0
C6662 C 0.62396 0.06311 0.85585 0.0
C6663 C 0.6213 0.06206 0.86916 0.0
O6664 O 0.61137 0.05867 0.88849 0.0
O6665 O 0.62136 0.05248 0.88887 0.0
O6666 O 0.62481 0.05668 0.87201 0.0
O6667 O 0.61463 0.06279 0.87131 0.0
H6668 H 0.62498 0.06854 0.89194 0.0
H6669 H 0.63029 0.07479 0.90225 0.0
H6670 H 0.61961 0.0601 0.91655 0.0
H6671 H 0.61446 0.05391 0.90631 0.0
H6672 H 0.60112 0.01958 0.88245 0.0
H6673 H 0.60514 0.03195 0.88479 0.0
H6674 H 0.60157 0.02384 0.85976 0.0
H6675 H 0.60541 0.03608 0.86211 0.0
H6676 H 0.62701 0.06463 0.84484 0.0
H6677 H 0.63357 0.08105 0.85977 0.0
H6678 H 0.62775 0.07466 0.8694 0.0
H6679 H 0.6214 0.05802 0.8548 0.0
C6680 C 0.90323 0.95845 0.39752 0.0
C6681 C 0.89931 0.9521 0.39735 0.0
C6682 C 0.89792 0.9525 0.41032 0.0
C6683 C 0.8967 0.94913 0.40369 0.0
C6684 C 0.90205 0.95879 0.41048 0.0
C6685 C 0.9047 0.96173 0.40412 0.0
U6686 U 0.90781 0.96739 0.37824 0.0
O6687 O 0.91771 0.97387 0.37772 0.0
O6688 O 0.90716 0.97911 0.3787 0.0
C6689 C 0.91414 0.97988 0.37853 0.0
C6690 C 0.90519 0.96208 0.39086 0.0
C6691 C 0.91705 0.98661 0.37573 0.0
C6692 C 0.92036 0.99885 0.37847 0.0
C6693 C 0.91812 0.99211 0.38068 0.0
C6694 C 0.92084 0.99462 0.36623 0.0
C6695 C 0.92171 1.00028 0.3712 0.0
C6696 C 0.91847 0.98785 0.36848 0.0
C6697 C 0.90031 0.95654 0.36114 0.0
C6698 C 0.89668 0.95392 0.3489 0.0
C6699 C 0.89315 0.94598 0.35849 0.0
C6700 C 0.89679 0.95033 0.36346 0.0
C6701 C 0.89294 0.9478 0.35114 0.0
C6702 C 0.9003 0.95821 0.35383 0.0
C6703 C 0.90377 0.96172 0.36603 0.0
O6704 O 0.91098 0.96036 0.38723 0.0
O6705 O 0.90053 0.96609 0.38744 0.0
O6706 O 0.9099 0.96013 0.36912 0.0
O6707 O 0.8997 0.96605 0.36979 0.0
H6708 H 0.89808 0.94955 0.39229 0.0
H6709 H 0.89346 0.94434 0.40337 0.0
H6710 H 0.90313 0.96149 0.4155 0.0
H6711 H 0.9077 0.96669 0.40433 0.0
H6712 H 0.92075 1.003 0.38248 0.0
H6713 H 0.91702 0.99125 0.38631 0.0
H6714 H 0.92193 0.99542 0.3606 0.0
H6715 H 0.91766 0.98365 0.36457 0.0
H6716 H 0.89678 0.95544 0.34331 0.0
H6717 H 0.8903 0.94133 0.36044 0.0
H6718 H 0.89672 0.94893 0.36908 0.0
H6719 H 0.90301 0.96296 0.35193 0.0
C6720 C 0.37422 0.31299 0.15581 0.0
C6721 C 0.37501 0.31927 0.1518 0.0
C6722 C 0.36226 0.31895 0.14864 0.0
C6723 C 0.36906 0.32225 0.14827 0.0
C6724 C 0.36148 0.31289 0.15303 0.0
C6725 C 0.36739 0.30995 0.15654 0.0
U6726 U 0.39407 0.30603 0.15986 0.0
O6727 O 0.39676 0.29965 0.16946 0.0
O6728 O 0.39623 0.29448 0.15873 0.0
C6729 C 0.39713 0.29374 0.16565 0.0
C6730 C 0.38033 0.30885 0.15857 0.0
C6731 C 0.39898 0.28683 0.16887 0.0
C6732 C 0.39495 0.27533 0.17341 0.0
C6733 C 0.39356 0.28249 0.17174 0.0
C6734 C 0.40727 0.27687 0.1696 0.0
C6735 C 0.40177 0.27242 0.17217 0.0
C6736 C 0.40588 0.28403 0.16795 0.0
C6737 C 0.41018 0.318 0.15118 0.0
C6738 C 0.4227 0.31835 0.1474 0.0
C6739 C 0.4145 0.32762 0.1436 0.0
C6740 C 0.409 0.32438 0.14748 0.0
C6741 C 0.42144 0.32464 0.1434 0.0
C6742 C 0.41709 0.31503 0.15122 0.0
C6743 C 0.40386 0.31428 0.15415 0.0
O6744 O 0.38401 0.30514 0.15389 0.0
O6745 O 0.38425 0.31141 0.16383 0.0
O6746 O 0.40189 0.31492 0.16089 0.0
O6747 O 0.40074 0.30908 0.1506 0.0
H6748 H 0.38024 0.32168 0.15115 0.0
H6749 H 0.3699 0.32691 0.14494 0.0
H6750 H 0.35634 0.31029 0.15363 0.0
H6751 H 0.36668 0.30509 0.15962 0.0
H6752 H 0.39061 0.27195 0.17524 0.0
H6753 H 0.38815 0.28453 0.17232 0.0
H6754 H 0.41256 0.27471 0.16856 0.0
H6755 H 0.41008 0.28728 0.16564 0.0
H6756 H 0.42796 0.31592 0.14748 0.0
H6757 H 0.41315 0.3323 0.1405 0.0
H6758 H 0.40368 0.32671 0.1473 0.0
H6759 H 0.41812 0.31007 0.15403 0.0
C6760 C 0.45942 0.62312 0.90601 0.0
C6761 C 0.45278 0.62376 0.90251 0.0
C6762 C 0.45341 0.61117 0.89884 0.0
C6763 C 0.44977 0.61779 0.89899 0.0
C6764 C 0.45982 0.61053 0.90273 0.0
C6765 C 0.46277 0.61642 0.90625 0.0
U6766 U 0.46609 0.64309 0.90998 0.0
O6767 O 0.47743 0.64598 0.90869 0.0
O6768 O 0.47249 0.64639 0.91946 0.0
C6769 C 0.47819 0.64759 0.91548 0.0
C6770 C 0.46357 0.62927 0.9088 0.0
C6771 C 0.48546 0.64807 0.91855 0.0
C6772 C 0.49709 0.64299 0.92156 0.0
C6773 C 0.48981 0.64207 0.91984 0.0
C6774 C 0.49562 0.65584 0.92102 0.0
C6775 C 0.50007 0.64989 0.92201 0.0
C6776 C 0.48839 0.65492 0.91931 0.0
C6777 C 0.45381 0.65903 0.90166 0.0
C6778 C 0.45412 0.67149 0.8977 0.0
C6779 C 0.44447 0.66372 0.89392 0.0
C6780 C 0.44735 0.65816 0.89796 0.0
C6781 C 0.44793 0.67037 0.89353 0.0
C6782 C 0.4571 0.66581 0.90171 0.0
C6783 C 0.45723 0.65243 0.90439 0.0
O6784 O 0.46726 0.63298 0.90412 0.0
O6785 O 0.46105 0.63315 0.91411 0.0
O6786 O 0.45689 0.65055 0.91116 0.0
O6787 O 0.46247 0.64947 0.90077 0.0
H6788 H 0.45008 0.62887 0.90225 0.0
H6789 H 0.4448 0.61848 0.89608 0.0
H6790 H 0.4627 0.6055 0.90289 0.0
H6791 H 0.46788 0.6158 0.90893 0.0
H6792 H 0.50047 0.63833 0.92227 0.0
H6793 H 0.48767 0.63672 0.91923 0.0
H6794 H 0.49781 0.6612 0.92121 0.0
H6795 H 0.48515 0.65961 0.91822 0.0
H6796 H 0.4569 0.67656 0.89746 0.0
H6797 H 0.43971 0.6627 0.89076 0.0
H6798 H 0.44475 0.65298 0.89782 0.0
H6799 H 0.46211 0.66662 0.90452 0.0
C6800 C 0.1482 0.70628 0.65478 0.0
C6801 C 0.14831 0.6998 0.65108 0.0
C6802 C 0.16106 0.70132 0.64844 0.0
C6803 C 0.15465 0.69734 0.64794 0.0
C6804 C 0.16099 0.70764 0.65256 0.0
C6805 C 0.15461 0.71012 0.65566 0.0
U6806 U 0.12886 0.71508 0.65989 0.0
O6807 O 0.12962 0.72674 0.65925 0.0
O6808 O 0.12847 0.72161 0.66981 0.0
C6809 C 0.12941 0.72758 0.66621 0.0
C6810 C 0.14128 0.70954 0.65667 0.0
C6811 C 0.12665 0.73444 0.66893 0.0
C6812 C 0.12967 0.74672 0.67186 0.0
C6813 C 0.13174 0.73973 0.67035 0.0
C6814 C 0.11724 0.74317 0.67113 0.0
C6815 C 0.12237 0.74867 0.67221 0.0
C6816 C 0.11936 0.73615 0.66938 0.0
C6817 C 0.1116 0.70482 0.65196 0.0
C6818 C 0.09948 0.70279 0.64755 0.0
C6819 C 0.10911 0.695 0.64376 0.0
C6820 C 0.11397 0.69889 0.64802 0.0
C6821 C 0.10182 0.69703 0.64333 0.0
C6822 C 0.1043 0.70661 0.65181 0.0
C6823 C 0.11646 0.70981 0.65575 0.0
O6824 O 0.13784 0.7138 0.65228 0.0
O6825 O 0.13786 0.70787 0.6626 0.0
O6826 O 0.12027 0.71425 0.65188 0.0
O6827 O 0.11957 0.7079 0.66177 0.0
H6828 H 0.1434 0.69682 0.65029 0.0
H6829 H 0.15437 0.69252 0.64476 0.0
H6830 H 0.16581 0.71079 0.65324 0.0
H6831 H 0.15462 0.71518 0.65848 0.0
H6832 H 0.13391 0.7506 0.67241 0.0
H6833 H 0.13741 0.73853 0.66994 0.0
H6834 H 0.11156 0.74423 0.6715 0.0
H6835 H 0.11533 0.73214 0.66826 0.0
H6836 H 0.09391 0.70443 0.6475 0.0
H6837 H 0.11112 0.69061 0.64057 0.0
H6838 H 0.11959 0.69742 0.64804 0.0
H6839 H 0.10234 0.71116 0.65482 0.0
C6840 C 0.06333 0.39777 0.40604 0.0
C6841 C 0.0695 0.39673 0.40186 0.0
C6842 C 0.06986 0.40954 0.39875 0.0
C6843 C 0.07273 0.40253 0.39826 0.0
C6844 C 0.064 0.41054 0.40343 0.0
C6845 C 0.06077 0.40476 0.40693 0.0
U6846 U 0.05735 0.37774 0.40946 0.0
O6847 O 0.05122 0.37344 0.41872 0.0
O6848 O 0.04641 0.37362 0.40799 0.0
C6849 C 0.04564 0.37181 0.41474 0.0
C6850 C 0.0589 0.39179 0.40891 0.0
C6851 C 0.03828 0.37193 0.4178 0.0
C6852 C 0.02678 0.37768 0.42031 0.0
C6853 C 0.03411 0.37816 0.41849 0.0
C6854 C 0.02782 0.36482 0.42109 0.0
C6855 C 0.02351 0.37097 0.42149 0.0
C6856 C 0.03508 0.3653 0.41926 0.0
C6857 C 0.07003 0.36254 0.40108 0.0
C6858 C 0.06834 0.35035 0.39666 0.0
C6859 C 0.07962 0.35638 0.39468 0.0
C6860 C 0.07704 0.36237 0.39835 0.0
C6861 C 0.07526 0.35038 0.39361 0.0
C6862 C 0.06575 0.35638 0.4004 0.0
C6863 C 0.06726 0.36958 0.40354 0.0
O6864 O 0.05533 0.38804 0.40416 0.0
O6865 O 0.06146 0.38785 0.41415 0.0
O6866 O 0.06723 0.37116 0.4104 0.0
O6867 O 0.06185 0.37236 0.40002 0.0
H6868 H 0.07164 0.3914 0.40112 0.0
H6869 H 0.07724 0.4014 0.39482 0.0
H6870 H 0.06175 0.41579 0.40433 0.0
H6871 H 0.05605 0.40573 0.41017 0.0
H6872 H 0.02362 0.38253 0.42064 0.0
H6873 H 0.03644 0.38335 0.41738 0.0
H6874 H 0.0255 0.35957 0.42184 0.0
H6875 H 0.03814 0.36042 0.41869 0.0
H6876 H 0.06487 0.34577 0.39592 0.0
H6877 H 0.08492 0.35661 0.39231 0.0
H6878 H 0.08041 0.36707 0.39872 0.0
H6879 H 0.06032 0.35636 0.40245 0.0
C6880 C 0.37416 0.70857 0.36578 0.0
C6881 C 0.37515 0.70234 0.36987 0.0
C6882 C 0.36236 0.70224 0.37305 0.0
C6883 C 0.36929 0.69918 0.37344 0.0
C6884 C 0.3614 0.70819 0.36854 0.0
C6885 C 0.36722 0.71131 0.365 0.0
U6886 U 0.39417 0.71487 0.36217 0.0
O6887 O 0.39808 0.72098 0.35275 0.0
O6888 O 0.39783 0.72596 0.36346 0.0
C6889 C 0.39959 0.72662 0.3567 0.0
C6890 C 0.38017 0.71292 0.36291 0.0
C6891 C 0.39992 0.73388 0.35356 0.0
C6892 C 0.39462 0.74513 0.34958 0.0
C6893 C 0.39387 0.73786 0.35147 0.0
C6894 C 0.4074 0.74435 0.35163 0.0
C6895 C 0.40139 0.74846 0.34982 0.0
C6896 C 0.40667 0.73715 0.35343 0.0
C6897 C 0.40969 0.70249 0.37077 0.0
C6898 C 0.42206 0.70347 0.37502 0.0
C6899 C 0.41519 0.69279 0.37747 0.0
C6900 C 0.40939 0.69563 0.37373 0.0
C6901 C 0.42161 0.69666 0.3783 0.0
C6902 C 0.41612 0.70638 0.37131 0.0
C6903 C 0.4028 0.70547 0.36814 0.0
O6904 O 0.38388 0.71658 0.36761 0.0
O6905 O 0.38413 0.71034 0.35769 0.0
O6906 O 0.40114 0.70526 0.3613 0.0
O6907 O 0.39994 0.71086 0.37161 0.0
H6908 H 0.38045 0.7001 0.37055 0.0
H6909 H 0.37027 0.69458 0.37682 0.0
H6910 H 0.35617 0.7106 0.36788 0.0
H6911 H 0.36631 0.71609 0.36185 0.0
H6912 H 0.38989 0.74824 0.34829 0.0
H6913 H 0.38859 0.73547 0.35157 0.0
H6914 H 0.41265 0.74681 0.35197 0.0
H6915 H 0.41139 0.73421 0.35508 0.0
H6916 H 0.42692 0.7066 0.37546 0.0
H6917 H 0.41446 0.68765 0.38001 0.0
H6918 H 0.40447 0.69257 0.37347 0.0
H6919 H 0.41649 0.71172 0.36908 0.0
C6920 C 0.06407 0.62311 0.11606 0.0
C6921 C 0.07018 0.624 0.12033 0.0
C6922 C 0.07017 0.6112 0.12322 0.0
C6923 C 0.07322 0.61809 0.12386 0.0
C6924 C 0.06431 0.61034 0.11854 0.0
C6925 C 0.0613 0.61622 0.11505 0.0
U6926 U 0.057 0.64287 0.1119 0.0
O6927 O 0.05051 0.64546 0.10233 0.0
O6928 O 0.04544 0.64509 0.11311 0.0
C6929 C 0.04463 0.64592 0.10619 0.0
C6930 C 0.05982 0.62916 0.11331 0.0
C6931 C 0.03765 0.64768 0.10298 0.0
C6932 C 0.02601 0.64355 0.09885 0.0
C6933 C 0.03319 0.64217 0.10052 0.0
C6934 C 0.02775 0.65604 0.1018 0.0
C6935 C 0.0232 0.65047 0.09962 0.0
C6936 C 0.03493 0.65465 0.10349 0.0
C6937 C 0.06909 0.65916 0.12003 0.0
C6938 C 0.06865 0.6707 0.12613 0.0
C6939 C 0.07986 0.66429 0.12526 0.0
C6940 C 0.07645 0.65886 0.1214 0.0
C6941 C 0.07596 0.67014 0.12805 0.0
C6942 C 0.06525 0.66525 0.12217 0.0
C6943 C 0.06554 0.65265 0.11724 0.0
O6944 O 0.05622 0.63291 0.11803 0.0
O6945 O 0.06224 0.63299 0.10793 0.0
O6946 O 0.06607 0.65052 0.11055 0.0
O6947 O 0.06029 0.6497 0.12089 0.0
H6948 H 0.0724 0.62928 0.12119 0.0
H6949 H 0.07771 0.61903 0.12739 0.0
H6950 H 0.06191 0.60514 0.1177 0.0
H6951 H 0.05658 0.61542 0.11177 0.0
H6952 H 0.02255 0.63916 0.09733 0.0
H6953 H 0.03514 0.63672 0.10027 0.0
H6954 H 0.02565 0.6614 0.10251 0.0
H6955 H 0.03827 0.65894 0.10552 0.0
H6956 H 0.06541 0.6751 0.12803 0.0
H6957 H 0.08554 0.66372 0.12621 0.0
H6958 H 0.07954 0.65423 0.11977 0.0
H6959 H 0.05956 0.66564 0.1211 0.0
C6960 C 0.14772 0.31506 0.86735 0.0
C6961 C 0.14853 0.32182 0.8704 0.0
C6962 C 0.16105 0.31937 0.87329 0.0
C6963 C 0.15503 0.32391 0.87339 0.0
C6964 C 0.16037 0.3127 0.86976 0.0
C6965 C 0.15372 0.31052 0.86689 0.0
U6966 U 0.12883 0.30573 0.86195 0.0
O6967 O 0.13042 0.29412 0.86223 0.0
O6968 O 0.12924 0.2995 0.85185 0.0
C6969 C 0.13023 0.29342 0.85525 0.0
C6970 C 0.1403 0.31278 0.86582 0.0
C6971 C 0.12683 0.28684 0.85248 0.0
C6972 C 0.12887 0.27502 0.84741 0.0
C6973 C 0.13124 0.28195 0.84888 0.0
C6974 C 0.11741 0.27783 0.85279 0.0
C6975 C 0.12202 0.2728 0.84956 0.0
C6976 C 0.1198 0.28482 0.85425 0.0
C6977 C 0.11138 0.31553 0.8696 0.0
C6978 C 0.09934 0.31816 0.87395 0.0
C6979 C 0.10933 0.3253 0.87803 0.0
C6980 C 0.11402 0.32124 0.87371 0.0
C6981 C 0.10193 0.32367 0.87836 0.0
C6982 C 0.10399 0.31417 0.86965 0.0
C6983 C 0.116 0.31036 0.86571 0.0
O6984 O 0.1373 0.30786 0.86982 0.0
O6985 O 0.13724 0.31381 0.85956 0.0
O6986 O 0.11985 0.30594 0.86958 0.0
O6987 O 0.1192 0.31233 0.85976 0.0
H6988 H 0.14396 0.32536 0.87089 0.0
H6989 H 0.15512 0.32898 0.87617 0.0
H6990 H 0.16488 0.30908 0.86941 0.0
H6991 H 0.15321 0.30525 0.86454 0.0
H6992 H 0.13258 0.27126 0.84501 0.0
H6993 H 0.13671 0.28337 0.84755 0.0
H6994 H 0.11208 0.27627 0.85446 0.0
H6995 H 0.1163 0.28849 0.85706 0.0
H6996 H 0.09369 0.31683 0.8739 0.0
H6997 H 0.11156 0.3295 0.88134 0.0
H6998 H 0.11971 0.32241 0.87377 0.0
H6999 H 0.10181 0.30981 0.86651 0.0
C7000 C 0.4598 0.39795 0.61576 0.0
C7001 C 0.4537 0.39686 0.62004 0.0
C7002 C 0.45346 0.40957 0.6232 0.0
C7003 C 0.45057 0.40263 0.62374 0.0
C7004 C 0.45926 0.41069 0.61856 0.0
C7005 C 0.46241 0.40495 0.61492 0.0
U7006 U 0.4662 0.37804 0.612 0.0
O7007 O 0.47243 0.37422 0.60261 0.0
O7008 O 0.47729 0.37438 0.61336 0.0
C7009 C 0.47804 0.37268 0.60659 0.0
C7010 C 0.46423 0.39201 0.61288 0.0
C7011 C 0.48535 0.37262 0.60354 0.0
C7012 C 0.49693 0.37809 0.60095 0.0
C7013 C 0.48961 0.37876 0.60272 0.0
C7014 C 0.49566 0.36522 0.60055 0.0
C7015 C 0.50006 0.37128 0.6 0.0
C7016 C 0.48842 0.36589 0.60229 0.0
C7017 C 0.45369 0.3623 0.61993 0.0
C7018 C 0.4548 0.35074 0.62598 0.0
C7019 C 0.44324 0.35648 0.62507 0.0
C7020 C 0.44631 0.36208 0.6212 0.0
C7021 C 0.44748 0.35093 0.6279 0.0
C7022 C 0.45791 0.35642 0.62206 0.0
C7023 C 0.45668 0.36929 0.6176 0.0
O7024 O 0.46781 0.38824 0.6176 0.0
O7025 O 0.46174 0.38812 0.60756 0.0
O7026 O 0.45653 0.37119 0.61082 0.0
O7027 O 0.46203 0.37205 0.62122 0.0
H7028 H 0.45156 0.39152 0.62076 0.0
H7029 H 0.44603 0.40164 0.62721 0.0
H7030 H 0.46162 0.41596 0.61805 0.0
H7031 H 0.46713 0.40593 0.61169 0.0
H7032 H 0.50018 0.38286 0.6005 0.0
H7033 H 0.48737 0.38402 0.60368 0.0
H7034 H 0.49789 0.3599 0.59998 0.0
H7035 H 0.48526 0.36109 0.60299 0.0
H7036 H 0.45823 0.3465 0.62794 0.0
H7037 H 0.43755 0.35673 0.62616 0.0
H7038 H 0.44293 0.36651 0.6196 0.0
H7039 H 0.46363 0.35642 0.62108 0.0
C7040 C 0.1568 0.37306 0.31251 0.0
C7041 C 0.15285 0.37401 0.31885 0.0
C7042 C 0.14959 0.36127 0.31894 0.0
C7043 C 0.14931 0.36816 0.32205 0.0
C7044 C 0.15395 0.36033 0.31287 0.0
C7045 C 0.15747 0.36614 0.30971 0.0
U7046 U 0.16024 0.39312 0.30649 0.0
O7047 O 0.16958 0.39733 0.30041 0.0
O7048 O 0.15887 0.39714 0.29552 0.0
C7049 C 0.16562 0.39895 0.29482 0.0
C7050 C 0.15966 0.37908 0.30815 0.0
C7051 C 0.16874 0.3989 0.2875 0.0
C7052 C 0.1715 0.39318 0.27607 0.0
C7053 C 0.16967 0.39267 0.28338 0.0
C7054 C 0.17183 0.40607 0.27703 0.0
C7055 C 0.17246 0.39991 0.2728 0.0
C7056 C 0.16998 0.40556 0.28427 0.0
C7057 C 0.15175 0.40838 0.31906 0.0
C7058 C 0.14725 0.42059 0.31765 0.0
C7059 C 0.14544 0.4143 0.3288 0.0
C7060 C 0.14913 0.4084 0.32608 0.0
C7061 C 0.14428 0.42045 0.32462 0.0
C7062 C 0.15094 0.41459 0.31488 0.0
C7063 C 0.15427 0.40139 0.31623 0.0
O7064 O 0.15492 0.38281 0.30454 0.0
O7065 O 0.16488 0.38303 0.31073 0.0
O7066 O 0.16113 0.39977 0.3163 0.0
O7067 O 0.15077 0.3986 0.31081 0.0
H7068 H 0.15226 0.37929 0.32114 0.0
H7069 H 0.14604 0.36913 0.32674 0.0
H7070 H 0.15453 0.35512 0.31042 0.0
H7071 H 0.16052 0.36525 0.30485 0.0
H7072 H 0.17194 0.38834 0.27291 0.0
H7073 H 0.16873 0.38746 0.28573 0.0
H7074 H 0.17241 0.41131 0.27464 0.0
H7075 H 0.1692 0.41044 0.28729 0.0
H7076 H 0.14655 0.42525 0.31429 0.0
H7077 H 0.14315 0.41385 0.3341 0.0
H7078 H 0.14959 0.40366 0.32937 0.0
H7079 H 0.15291 0.41471 0.30944 0.0
C7080 C 0.39921 0.40563 0.06257 0.0
C7081 C 0.39832 0.40188 0.06903 0.0
C7082 C 0.41103 0.39841 0.06893 0.0
C7083 C 0.4042 0.39833 0.0722 0.0
C7084 C 0.41191 0.40257 0.06272 0.0
C7085 C 0.40609 0.4061 0.0596 0.0
U7086 U 0.37911 0.40913 0.05656 0.0
O7087 O 0.375 0.41849 0.05048 0.0
O7088 O 0.37516 0.4078 0.04556 0.0
C7089 C 0.37339 0.41455 0.04488 0.0
C7090 C 0.39315 0.40849 0.05827 0.0
C7091 C 0.37328 0.41767 0.03757 0.0
C7092 C 0.37886 0.42136 0.02633 0.0
C7093 C 0.37945 0.41947 0.03363 0.0
C7094 C 0.366 0.41989 0.02697 0.0
C7095 C 0.37213 0.42142 0.02292 0.0
C7096 C 0.36658 0.41808 0.0342 0.0
C7097 C 0.36375 0.40059 0.06905 0.0
C7098 C 0.35153 0.39602 0.06768 0.0
C7099 C 0.35788 0.39424 0.0788 0.0
C7100 C 0.36376 0.39796 0.07606 0.0
C7101 C 0.35172 0.39306 0.07464 0.0
C7102 C 0.35751 0.39975 0.06489 0.0
C7103 C 0.37073 0.40314 0.0662 0.0
O7104 O 0.38942 0.40379 0.05464 0.0
O7105 O 0.3892 0.41369 0.0609 0.0
O7106 O 0.37235 0.40998 0.06633 0.0
O7107 O 0.37354 0.39967 0.06078 0.0
H7108 H 0.39307 0.40145 0.07145 0.0
H7109 H 0.40329 0.39522 0.077 0.0
H7110 H 0.41709 0.40296 0.06013 0.0
H7111 H 0.40693 0.40899 0.05464 0.0
H7112 H 0.38368 0.42243 0.02327 0.0
H7113 H 0.3847 0.41916 0.03609 0.0
H7114 H 0.36077 0.41978 0.02446 0.0
H7115 H 0.36176 0.41665 0.0371 0.0
H7116 H 0.34685 0.3953 0.06433 0.0
H7117 H 0.35837 0.39196 0.0841 0.0
H7118 H 0.36852 0.39845 0.07935 0.0
H7119 H 0.35735 0.40172 0.05945 0.0
C7120 C 0.36637 0.64803 0.81271 0.0
C7121 C 0.37026 0.64693 0.81906 0.0
C7122 C 0.37394 0.65953 0.81918 0.0
C7123 C 0.374 0.65264 0.82227 0.0
C7124 C 0.36969 0.66064 0.81306 0.0
C7125 C 0.36597 0.65496 0.80989 0.0
U7126 U 0.36298 0.62808 0.80654 0.0
O7127 O 0.35374 0.6239 0.80029 0.0
O7128 O 0.36456 0.62422 0.79555 0.0
C7129 C 0.35782 0.62239 0.79475 0.0
C7130 C 0.36345 0.64209 0.8083 0.0
C7131 C 0.35485 0.6222 0.7874 0.0
C7132 C 0.35094 0.62758 0.77614 0.0
C7133 C 0.35288 0.62827 0.78342 0.0
C7134 C 0.35293 0.61483 0.77686 0.0
C7135 C 0.35105 0.62083 0.77271 0.0
C7136 C 0.35473 0.61551 0.78406 0.0
C7137 C 0.37171 0.61287 0.81909 0.0
C7138 C 0.37572 0.60043 0.81812 0.0
C7139 C 0.3786 0.60736 0.82865 0.0
C7140 C 0.37489 0.61319 0.82585 0.0
C7141 C 0.37917 0.60088 0.82485 0.0
C7142 C 0.37204 0.6064 0.81524 0.0
C7143 C 0.36902 0.61975 0.81615 0.0
O7144 O 0.36819 0.63843 0.80463 0.0
O7145 O 0.35827 0.63809 0.8109 0.0
O7146 O 0.36213 0.62124 0.81622 0.0
O7147 O 0.37252 0.62266 0.8108 0.0
H7148 H 0.37063 0.64163 0.82137 0.0
H7149 H 0.37709 0.65163 0.82707 0.0
H7150 H 0.36953 0.66582 0.81048 0.0
H7151 H 0.36305 0.65594 0.80498 0.0
H7152 H 0.34947 0.63234 0.77319 0.0
H7153 H 0.35297 0.63352 0.78587 0.0
H7154 H 0.35332 0.60956 0.7745 0.0
H7155 H 0.35633 0.61077 0.78698 0.0
H7156 H 0.37596 0.59554 0.81504 0.0
H7157 H 0.3813 0.60811 0.83372 0.0
H7158 H 0.37481 0.61813 0.82888 0.0
H7159 H 0.36965 0.60602 0.80998 0.0
C7160 C 0.12401 0.61544 0.56295 0.0
C7161 C 0.1246 0.61859 0.56976 0.0
C7162 C 0.11213 0.62268 0.56903 0.0
C7163 C 0.11866 0.62213 0.57281 0.0
C7164 C 0.11152 0.61917 0.56242 0.0
C7165 C 0.11737 0.61559 0.55945 0.0
U7166 U 0.14412 0.61171 0.55676 0.0
O7167 O 0.14777 0.60224 0.55056 0.0
O7168 O 0.14747 0.61295 0.54555 0.0
C7169 C 0.14914 0.60616 0.54488 0.0
C7170 C 0.13017 0.61258 0.55884 0.0
C7171 C 0.14971 0.60302 0.53765 0.0
C7172 C 0.14476 0.59871 0.52635 0.0
C7173 C 0.14383 0.60055 0.53362 0.0
C7174 C 0.15737 0.60159 0.52724 0.0
C7175 C 0.15152 0.59944 0.52307 0.0
C7176 C 0.15647 0.60332 0.53444 0.0
C7177 C 0.15985 0.62034 0.56892 0.0
C7178 C 0.17217 0.62472 0.56794 0.0
C7179 C 0.1653 0.62704 0.57866 0.0
C7180 C 0.15953 0.62325 0.5758 0.0
C7181 C 0.1717 0.62796 0.57477 0.0
C7182 C 0.16628 0.62097 0.56502 0.0
C7183 C 0.153 0.61766 0.56592 0.0
O7184 O 0.13387 0.61724 0.55513 0.0
O7185 O 0.1341 0.6074 0.56153 0.0
O7186 O 0.15129 0.61084 0.56622 0.0
O7187 O 0.15007 0.62111 0.56055 0.0
H7188 H 0.12966 0.61855 0.57258 0.0
H7189 H 0.11928 0.62476 0.57794 0.0
H7190 H 0.10655 0.61938 0.55943 0.0
H7191 H 0.11678 0.61318 0.55421 0.0
H7192 H 0.14015 0.59712 0.5232 0.0
H7193 H 0.13853 0.60033 0.53598 0.0
H7194 H 0.16262 0.60224 0.52484 0.0
H7195 H 0.16106 0.60525 0.53743 0.0
H7196 H 0.17702 0.62523 0.5648 0.0
H7197 H 0.16455 0.62955 0.58382 0.0
H7198 H 0.15462 0.62293 0.57888 0.0
H7199 H 0.16667 0.61877 0.55967 0.0
C7200 C 0.15658 0.64797 0.20831 0.0
C7201 C 0.1525 0.6472 0.20207 0.0
C7202 C 0.14944 0.65995 0.20236 0.0
C7203 C 0.14898 0.65315 0.19909 0.0
C7204 C 0.15391 0.66071 0.20838 0.0
C7205 C 0.1574 0.65479 0.21131 0.0
U7206 U 0.16054 0.62814 0.21538 0.0
O7207 O 0.17006 0.62552 0.22197 0.0
O7208 O 0.15922 0.626 0.2269 0.0
C7209 C 0.16613 0.62516 0.22781 0.0
C7210 C 0.15928 0.64185 0.21248 0.0
C7211 C 0.16918 0.62326 0.23481 0.0
C7212 C 0.17435 0.62714 0.24611 0.0
C7213 C 0.17262 0.62849 0.23894 0.0
C7214 C 0.16941 0.61523 0.24501 0.0
C7215 C 0.17265 0.62053 0.24931 0.0
C7216 C 0.16767 0.6166 0.23785 0.0
C7217 C 0.15199 0.61207 0.20328 0.0
C7218 C 0.1483 0.59955 0.20279 0.0
C7219 C 0.1443 0.60784 0.1937 0.0
C7220 C 0.14819 0.61331 0.19697 0.0
C7221 C 0.14418 0.60086 0.19657 0.0
C7222 C 0.15213 0.60512 0.20614 0.0
C7223 C 0.15494 0.61834 0.20709 0.0
O7224 O 0.15454 0.6382 0.21615 0.0
O7225 O 0.16459 0.63793 0.21001 0.0
O7226 O 0.1617 0.62029 0.20653 0.0
O7227 O 0.1513 0.6215 0.2122 0.0
H7228 H 0.15178 0.64197 0.19968 0.0
H7229 H 0.1456 0.65232 0.19447 0.0
H7230 H 0.15458 0.66585 0.21095 0.0
H7231 H 0.16053 0.6555 0.21615 0.0
H7232 H 0.17693 0.63133 0.24916 0.0
H7233 H 0.1737 0.63372 0.23671 0.0
H7234 H 0.16788 0.61011 0.24722 0.0
H7235 H 0.1649 0.61255 0.23477 0.0
H7236 H 0.14847 0.59426 0.20514 0.0
H7237 H 0.1411 0.60925 0.18909 0.0
H7238 H 0.14794 0.61864 0.19472 0.0
H7239 H 0.15502 0.60404 0.21105 0.0
C7240 C 0.12405 0.40553 0.95904 0.0
C7241 C 0.12471 0.40229 0.95227 0.0
C7242 C 0.11219 0.3983 0.95286 0.0
C7243 C 0.11879 0.39875 0.94918 0.0
C7244 C 0.11151 0.40191 0.95941 0.0
C7245 C 0.11735 0.40548 0.96243 0.0
U7246 U 0.14414 0.40924 0.96527 0.0
O7247 O 0.14786 0.41867 0.97151 0.0
O7248 O 0.14759 0.40794 0.97645 0.0
C7249 C 0.14927 0.41471 0.97716 0.0
C7250 C 0.13018 0.40839 0.96321 0.0
C7251 C 0.1498 0.41781 0.98444 0.0
C7252 C 0.14481 0.42202 0.99579 0.0
C7253 C 0.1439 0.42021 0.9885 0.0
C7254 C 0.15744 0.41928 0.99487 0.0
C7255 C 0.15157 0.42134 0.99908 0.0
C7256 C 0.15656 0.41758 0.98766 0.0
C7257 C 0.15981 0.40065 0.95299 0.0
C7258 C 0.17211 0.39618 0.95402 0.0
C7259 C 0.16532 0.39402 0.94322 0.0
C7260 C 0.15954 0.3978 0.94607 0.0
C7261 C 0.17167 0.39302 0.94715 0.0
C7262 C 0.16621 0.39994 0.95693 0.0
C7263 C 0.15294 0.40331 0.95599 0.0
O7264 O 0.13389 0.40372 0.9669 0.0
O7265 O 0.13412 0.41359 0.96057 0.0
O7266 O 0.15126 0.41013 0.95576 0.0
O7267 O 0.15004 0.39984 0.96136 0.0
H7268 H 0.12982 0.40226 0.94953 0.0
H7269 H 0.11948 0.39605 0.9441 0.0
H7270 H 0.1065 0.40181 0.96233 0.0
H7271 H 0.1167 0.40797 0.96763 0.0
H7272 H 0.14018 0.42355 0.99894 0.0
H7273 H 0.1386 0.4204 0.98614 0.0
H7274 H 0.1627 0.41868 0.99726 0.0
H7275 H 0.16117 0.41573 0.98466 0.0
H7276 H 0.17693 0.39562 0.95719 0.0
H7277 H 0.16462 0.39157 0.93802 0.0
H7278 H 0.15465 0.39818 0.94296 0.0
H7279 H 0.16656 0.40208 0.96231 0.0
C7280 C 0.36793 0.37413 0.70683 0.0
C7281 C 0.37127 0.37388 0.70014 0.0
C7282 C 0.3741 0.36122 0.70187 0.0
C7283 C 0.37434 0.3675 0.69768 0.0
C7284 C 0.3703 0.36143 0.70838 0.0
C7285 C 0.36729 0.36783 0.71085 0.0
U7286 U 0.36264 0.39334 0.71572 0.0
O7287 O 0.36306 0.39238 0.72737 0.0
O7288 O 0.35259 0.39344 0.72207 0.0
C7289 C 0.35607 0.39249 0.72812 0.0
C7290 C 0.36601 0.38105 0.71004 0.0
C7291 C 0.3533 0.39554 0.73483 0.0
C7292 C 0.3492 0.39295 0.74692 0.0
C7293 C 0.35064 0.39073 0.73993 0.0
C7294 C 0.35266 0.40501 0.74373 0.0
C7295 C 0.35037 0.40008 0.74899 0.0
C7296 C 0.35416 0.40275 0.73671 0.0
C7297 C 0.37049 0.41065 0.70559 0.0
C7298 C 0.37483 0.42273 0.70327 0.0
C7299 C 0.37883 0.41295 0.69581 0.0
C7300 C 0.37455 0.40816 0.69977 0.0
C7301 C 0.37918 0.42028 0.69764 0.0
C7302 C 0.37055 0.41798 0.70717 0.0
C7303 C 0.36665 0.40587 0.71063 0.0
O7304 O 0.37035 0.38446 0.7144 0.0
O7305 O 0.36011 0.38447 0.7083 0.0
O7306 O 0.37052 0.40207 0.7151 0.0
O7307 O 0.36068 0.40269 0.70864 0.0
H7308 H 0.37185 0.3787 0.69698 0.0
H7309 H 0.37725 0.36765 0.69268 0.0
H7310 H 0.36981 0.3567 0.71169 0.0
H7311 H 0.36471 0.36793 0.71604 0.0
H7312 H 0.34757 0.38898 0.7508 0.0
H7313 H 0.35005 0.38512 0.73861 0.0
H7314 H 0.35352 0.41057 0.7451 0.0
H7315 H 0.35625 0.40654 0.73286 0.0
H7316 H 0.3748 0.42832 0.70476 0.0
H7317 H 0.3821 0.41084 0.69152 0.0
H7318 H 0.37459 0.40253 0.69844 0.0
H7319 H 0.36745 0.42002 0.71162 0.0
C7320 C 0.39921 0.61542 0.45924 0.0
C7321 C 0.39855 0.61862 0.45245 0.0
C7322 C 0.41107 0.62263 0.45297 0.0
C7323 C 0.40446 0.62215 0.44931 0.0
C7324 C 0.41175 0.61907 0.45955 0.0
C7325 C 0.40592 0.61551 0.46261 0.0
U7326 U 0.37904 0.61182 0.46516 0.0
O7327 O 0.37505 0.60248 0.47136 0.0
O7328 O 0.37516 0.61321 0.47619 0.0
C7329 C 0.37345 0.60645 0.47695 0.0
C7330 C 0.39307 0.61256 0.46343 0.0
C7331 C 0.37334 0.60339 0.48429 0.0
C7332 C 0.37891 0.59978 0.49558 0.0
C7333 C 0.37951 0.60164 0.48827 0.0
C7334 C 0.36604 0.60115 0.49488 0.0
C7335 C 0.37216 0.59967 0.49897 0.0
C7336 C 0.36663 0.60295 0.48765 0.0
C7337 C 0.36359 0.6202 0.45263 0.0
C7338 C 0.35127 0.62441 0.45411 0.0
C7339 C 0.35765 0.62692 0.44314 0.0
C7340 C 0.36361 0.62321 0.44575 0.0
C7341 C 0.35149 0.62774 0.44735 0.0
C7342 C 0.35728 0.62064 0.45674 0.0
C7343 C 0.37059 0.61769 0.45548 0.0
O7344 O 0.3893 0.61725 0.46704 0.0
O7345 O 0.38916 0.60734 0.46078 0.0
O7346 O 0.37223 0.61085 0.45544 0.0
O7347 O 0.37341 0.62121 0.46087 0.0
H7348 H 0.39343 0.61862 0.44971 0.0
H7349 H 0.40375 0.62481 0.44422 0.0
H7350 H 0.41677 0.61919 0.46245 0.0
H7351 H 0.40659 0.61306 0.46782 0.0
H7352 H 0.38371 0.59874 0.49865 0.0
H7353 H 0.38476 0.60198 0.48583 0.0
H7354 H 0.3608 0.60123 0.49738 0.0
H7355 H 0.36181 0.60433 0.48473 0.0
H7356 H 0.34657 0.62499 0.45747 0.0
H7357 H 0.35803 0.62952 0.43798 0.0
H7358 H 0.36842 0.62303 0.44252 0.0
H7359 H 0.35711 0.61838 0.46208 0.0
C7360 C 0.31362 0.15543 0.37337 0.0
C7361 C 0.3204 0.1522 0.37404 0.0
C7362 C 0.31983 0.14823 0.36156 0.0
C7363 C 0.32351 0.14866 0.36813 0.0
C7364 C 0.31325 0.15176 0.36086 0.0
C7365 C 0.31021 0.15535 0.36668 0.0
U7366 U 0.30711 0.15947 0.39338 0.0
O7367 O 0.30068 0.1689 0.39676 0.0
O7368 O 0.29587 0.15809 0.39659 0.0
C7369 C 0.29505 0.16488 0.39815 0.0
C7370 C 0.30942 0.15825 0.3795 0.0
C7371 C 0.28773 0.16787 0.39847 0.0
C7372 C 0.27608 0.17071 0.39328 0.0
C7373 C 0.28339 0.16898 0.39243 0.0
C7374 C 0.27752 0.17045 0.40614 0.0
C7375 C 0.27303 0.1713 0.40017 0.0
C7376 C 0.28475 0.16877 0.40529 0.0
C7377 C 0.31949 0.15163 0.40941 0.0
C7378 C 0.31865 0.14569 0.42105 0.0
C7379 C 0.32997 0.14609 0.41478 0.0
C7380 C 0.32682 0.15005 0.4093 0.0
C7381 C 0.32588 0.14348 0.42054 0.0
C7382 C 0.31546 0.14969 0.41548 0.0
C7383 C 0.31629 0.15408 0.40258 0.0
O7384 O 0.30583 0.15357 0.3833 0.0
O7385 O 0.3119 0.16362 0.38332 0.0
O7386 O 0.31653 0.16082 0.40057 0.0
O7387 O 0.31101 0.1504 0.39976 0.0
H7388 H 0.32315 0.15218 0.37914 0.0
H7389 H 0.32861 0.14597 0.36878 0.0
H7390 H 0.31031 0.15152 0.35586 0.0
H7391 H 0.30499 0.15779 0.36604 0.0
H7392 H 0.27279 0.17141 0.38856 0.0
H7393 H 0.28556 0.16828 0.3871 0.0
H7394 H 0.27537 0.17074 0.41152 0.0
H7395 H 0.28798 0.16785 0.41002 0.0
H7396 H 0.31534 0.14389 0.42546 0.0
H7397 H 0.33559 0.14474 0.41428 0.0
H7398 H 0.33005 0.15149 0.4047 0.0
H7399 H 0.30979 0.1509 0.41574 0.0
C7400 C 0.81378 0.36555 0.64847 0.0
C7401 C 0.82057 0.36874 0.64787 0.0
C7402 C 0.81987 0.37276 0.66032 0.0
C7403 C 0.82363 0.37228 0.6538 0.0
C7404 C 0.81326 0.36927 0.66096 0.0
C7405 C 0.81028 0.36568 0.65512 0.0
U7406 U 0.80709 0.36162 0.62848 0.0
O7407 O 0.80068 0.35217 0.62514 0.0
O7408 O 0.79575 0.36294 0.62564 0.0
C7409 C 0.79498 0.35616 0.62399 0.0
C7410 C 0.80964 0.36272 0.64232 0.0
C7411 C 0.78771 0.35312 0.62348 0.0
C7412 C 0.77611 0.34988 0.62851 0.0
C7413 C 0.78339 0.35165 0.62945 0.0
C7414 C 0.77753 0.35094 0.61568 0.0
C7415 C 0.77305 0.34966 0.6216 0.0
C7416 C 0.78475 0.3526 0.61662 0.0
C7417 C 0.81938 0.37024 0.61265 0.0
C7418 C 0.81983 0.37386 0.60008 0.0
C7419 C 0.8289 0.37796 0.60835 0.0
C7420 C 0.82568 0.37408 0.61383 0.0
C7421 C 0.82603 0.37802 0.60136 0.0
C7422 C 0.81649 0.37005 0.60569 0.0
C7423 C 0.81575 0.36734 0.61906 0.0
O7424 O 0.80589 0.36738 0.63864 0.0
O7425 O 0.81221 0.35748 0.63839 0.0
O7426 O 0.81623 0.36058 0.62093 0.0
O7427 O 0.81054 0.37092 0.62213 0.0
H7428 H 0.82338 0.36873 0.64279 0.0
H7429 H 0.82875 0.37494 0.65319 0.0
H7430 H 0.81027 0.36955 0.66592 0.0
H7431 H 0.80504 0.36325 0.65572 0.0
H7432 H 0.77285 0.34884 0.63319 0.0
H7433 H 0.78556 0.35207 0.63481 0.0
H7434 H 0.77541 0.35098 0.61029 0.0
H7435 H 0.78797 0.35383 0.61196 0.0
H7436 H 0.81747 0.37364 0.59479 0.0
H7437 H 0.83348 0.3812 0.60976 0.0
H7438 H 0.82795 0.37438 0.61916 0.0
H7439 H 0.81159 0.36712 0.60465 0.0
C7440 C 0.40675 0.06254 0.39854 0.0
C7441 C 0.4037 0.0694 0.39801 0.0
C7442 C 0.39957 0.06859 0.41044 0.0
C7443 C 0.40019 0.07244 0.40397 0.0
C7444 C 0.40296 0.06193 0.41099 0.0
C7445 C 0.40654 0.05897 0.40513 0.0
U7446 U 0.41052 0.05604 0.3785 0.0
O7447 O 0.4199 0.04957 0.37506 0.0
O7448 O 0.40906 0.04477 0.3755 0.0
C7449 C 0.41584 0.04394 0.37388 0.0
C7450 C 0.40954 0.05843 0.39237 0.0
C7451 C 0.41883 0.03665 0.37329 0.0
C7452 C 0.42289 0.02527 0.3782 0.0
C7453 C 0.42105 0.03252 0.37917 0.0
C7454 C 0.42037 0.02634 0.36555 0.0
C7455 C 0.42244 0.02203 0.37137 0.0
C7456 C 0.41865 0.03352 0.3665 0.0
C7457 C 0.40193 0.0683 0.36272 0.0
C7458 C 0.39814 0.06816 0.35019 0.0
C7459 C 0.39456 0.07787 0.35794 0.0
C7460 C 0.39837 0.07481 0.36356 0.0
C7461 C 0.39428 0.0746 0.35115 0.0
C7462 C 0.4019 0.065 0.35595 0.0
C7463 C 0.40474 0.06496 0.36934 0.0
O7464 O 0.40483 0.05475 0.38869 0.0
O7465 O 0.41479 0.06099 0.38843 0.0
O7466 O 0.41157 0.06526 0.37107 0.0
O7467 O 0.40117 0.05973 0.37235 0.0
H7468 H 0.40379 0.07226 0.39298 0.0
H7469 H 0.39763 0.07761 0.40341 0.0
H7470 H 0.40265 0.05888 0.41591 0.0
H7471 H 0.40887 0.0537 0.40567 0.0
H7472 H 0.42455 0.02218 0.38281 0.0
H7473 H 0.42119 0.03482 0.38448 0.0
H7474 H 0.41975 0.02411 0.36025 0.0
H7475 H 0.41686 0.03659 0.36192 0.0
H7476 H 0.39815 0.06549 0.34505 0.0
H7477 H 0.39155 0.08268 0.35908 0.0
H7478 H 0.39824 0.07741 0.36875 0.0
H7479 H 0.40461 0.05993 0.35517 0.0
C7480 C 0.71023 0.6557 0.14809 0.0
C7481 C 0.70329 0.65286 0.14747 0.0
C7482 C 0.70375 0.64839 0.15993 0.0
C7483 C 0.70005 0.64934 0.15334 0.0
C7484 C 0.71059 0.65162 0.16045 0.0
C7485 C 0.7137 0.65522 0.15469 0.0
U7486 U 0.71614 0.65932 0.128 0.0
O7487 O 0.72232 0.66861 0.12385 0.0
O7488 O 0.72713 0.65787 0.12398 0.0
C7489 C 0.7279 0.66462 0.12223 0.0
C7490 C 0.71447 0.65864 0.14202 0.0
C7491 C 0.73526 0.66767 0.12234 0.0
C7492 C 0.7467 0.67033 0.12813 0.0
C7493 C 0.73936 0.66854 0.1286 0.0
C7494 C 0.7458 0.67076 0.11523 0.0
C7495 C 0.75001 0.67132 0.12142 0.0
C7496 C 0.73854 0.66894 0.1157 0.0
C7497 C 0.70339 0.65086 0.11283 0.0
C7498 C 0.70459 0.64706 0.10036 0.0
C7499 C 0.69412 0.64363 0.10717 0.0
C7500 C 0.69673 0.6474 0.11307 0.0
C7501 C 0.69809 0.64325 0.10082 0.0
C7502 C 0.70724 0.65085 0.10634 0.0
C7503 C 0.70633 0.65342 0.11975 0.0
O7504 O 0.71815 0.65398 0.13827 0.0
O7505 O 0.71182 0.66385 0.13811 0.0
O7506 O 0.70635 0.66028 0.1213 0.0
O7507 O 0.71174 0.64989 0.12253 0.0
H7508 H 0.70044 0.65321 0.14244 0.0
H7509 H 0.69471 0.64727 0.15256 0.0
H7510 H 0.71387 0.65121 0.16517 0.0
H7511 H 0.71904 0.65738 0.15533 0.0
H7512 H 0.74984 0.67073 0.13299 0.0
H7513 H 0.73698 0.66758 0.1338 0.0
H7514 H 0.74822 0.67136 0.11 0.0
H7515 H 0.73554 0.6682 0.11079 0.0
H7516 H 0.70778 0.6468 0.09552 0.0
H7517 H 0.68917 0.64066 0.10771 0.0
H7518 H 0.69369 0.64727 0.11801 0.0
H7519 H 0.71241 0.65346 0.10601 0.0
C7520 C 0.61689 0.45787 0.39846 0.0
C7521 C 0.62081 0.45152 0.39774 0.0
C7522 C 0.62399 0.45195 0.41047 0.0
C7523 C 0.6243 0.44855 0.40371 0.0
C7524 C 0.61968 0.45807 0.41117 0.0
C7525 C 0.6162 0.46099 0.40524 0.0
U7526 U 0.61273 0.46499 0.37866 0.0
O7527 O 0.60317 0.47158 0.37621 0.0
O7528 O 0.61403 0.4765 0.37657 0.0
C7529 C 0.6071 0.47741 0.37581 0.0
C7530 C 0.6142 0.46199 0.39231 0.0
C7531 C 0.60408 0.48439 0.37389 0.0
C7532 C 0.59896 0.49571 0.37774 0.0
C7533 C 0.60066 0.48854 0.37911 0.0
C7534 C 0.6039 0.49454 0.36581 0.0
C7535 C 0.60069 0.49886 0.37111 0.0
C7536 C 0.6056 0.48739 0.36721 0.0
C7537 C 0.62091 0.45299 0.36233 0.0
C7538 C 0.62588 0.45281 0.35027 0.0
C7539 C 0.6273 0.44257 0.358 0.0
C7540 C 0.62339 0.44604 0.36333 0.0
C7541 C 0.62892 0.44594 0.35139 0.0
C7542 C 0.622 0.45631 0.3557 0.0
C7543 C 0.61801 0.45686 0.36858 0.0
O7544 O 0.61893 0.46561 0.3886 0.0
O7545 O 0.60881 0.45958 0.38848 0.0
O7546 O 0.61136 0.45615 0.37081 0.0
O7547 O 0.62174 0.46194 0.37169 0.0
H7548 H 0.62142 0.44903 0.39254 0.0
H7549 H 0.62756 0.44383 0.40294 0.0
H7550 H 0.61912 0.46075 0.41628 0.0
H7551 H 0.61319 0.46591 0.4059 0.0
H7552 H 0.59642 0.49881 0.38192 0.0
H7553 H 0.59956 0.48633 0.38436 0.0
H7554 H 0.60544 0.49674 0.36069 0.0
H7555 H 0.60835 0.48429 0.36316 0.0
H7556 H 0.62664 0.4557 0.34534 0.0
H7557 H 0.62917 0.43732 0.35938 0.0
H7558 H 0.6226 0.44338 0.36842 0.0
H7559 H 0.62005 0.46169 0.35479 0.0
C7560 C 0.20913 0.86561 0.87348 0.0
C7561 C 0.20299 0.86984 0.87433 0.0
C7562 C 0.20313 0.87274 0.86153 0.0
C7563 C 0.2 0.87336 0.86839 0.0
C7564 C 0.20902 0.86811 0.86071 0.0
C7565 C 0.21199 0.86463 0.86661 0.0
U7566 U 0.21619 0.86137 0.89324 0.0
O7567 O 0.22257 0.85172 0.89574 0.0
O7568 O 0.22775 0.86244 0.8954 0.0
C7569 C 0.22849 0.85551 0.89617 0.0
C7570 C 0.21332 0.86285 0.87955 0.0
C7571 C 0.2354 0.85231 0.89809 0.0
C7572 C 0.24695 0.84769 0.89419 0.0
C7573 C 0.23976 0.84931 0.89275 0.0
C7574 C 0.24534 0.85174 0.9064 0.0
C7575 C 0.24985 0.84911 0.90097 0.0
C7576 C 0.23817 0.85334 0.90496 0.0
C7577 C 0.2043 0.86958 0.90965 0.0
C7578 C 0.20471 0.87572 0.92117 0.0
C7579 C 0.19352 0.87482 0.91473 0.0
C7580 C 0.19695 0.87095 0.90932 0.0
C7581 C 0.1974 0.87762 0.92058 0.0
C7582 C 0.20813 0.87176 0.91575 0.0
C7583 C 0.2079 0.86671 0.9032 0.0
O7584 O 0.21696 0.86754 0.88329 0.0
O7585 O 0.21085 0.85749 0.88337 0.0
O7586 O 0.20717 0.86008 0.90096 0.0
O7587 O 0.21313 0.87033 0.9002 0.0
H7588 H 0.20072 0.87068 0.87959 0.0
H7589 H 0.19548 0.87687 0.86928 0.0
H7590 H 0.21148 0.8673 0.85553 0.0
H7591 H 0.21673 0.86137 0.86585 0.0
H7592 H 0.25034 0.84577 0.8899 0.0
H7593 H 0.23773 0.84862 0.88736 0.0
H7594 H 0.24746 0.85288 0.91167 0.0
H7595 H 0.2349 0.85573 0.90911 0.0
H7596 H 0.20793 0.87764 0.92558 0.0
H7597 H 0.18784 0.87578 0.91414 0.0
H7598 H 0.19388 0.86929 0.90468 0.0
H7599 H 0.21381 0.87068 0.91616 0.0
C7600 C 0.40688 0.95892 0.12353 0.0
C7601 C 0.40279 0.95268 0.12453 0.0
C7602 C 0.39965 0.95245 0.11175 0.0
C7603 C 0.39924 0.94946 0.11869 0.0
C7604 C 0.40416 0.95841 0.11077 0.0
C7605 C 0.40768 0.96159 0.11656 0.0
U7606 U 0.4103 0.96507 0.14355 0.0
O7607 O 0.41964 0.97117 0.14775 0.0
O7608 O 0.40891 0.97605 0.14748 0.0
C7609 C 0.41566 0.97677 0.14931 0.0
C7610 C 0.40973 0.96331 0.12952 0.0
C7611 C 0.41876 0.98408 0.14924 0.0
C7612 C 0.42125 0.99558 0.14358 0.0
C7613 C 0.41945 0.98827 0.14303 0.0
C7614 C 0.42201 0.99446 0.15644 0.0
C7615 C 0.4224 0.99879 0.15032 0.0
C7616 C 0.42021 0.98722 0.1559 0.0
C7617 C 0.40172 0.95244 0.15878 0.0
C7618 C 0.39751 0.95345 0.17115 0.0
C7619 C 0.39504 0.94275 0.16433 0.0
C7620 C 0.39876 0.94558 0.15851 0.0
C7621 C 0.39423 0.94664 0.17074 0.0
C7622 C 0.4012 0.95635 0.1652 0.0
C7623 C 0.40432 0.95541 0.15189 0.0
O7624 O 0.40498 0.96694 0.13323 0.0
O7625 O 0.41496 0.96076 0.13349 0.0
O7626 O 0.41119 0.95532 0.15029 0.0
O7627 O 0.40082 0.96081 0.14908 0.0
H7628 H 0.4021 0.95048 0.12984 0.0
H7629 H 0.39587 0.94486 0.1197 0.0
H7630 H 0.40484 0.96076 0.10552 0.0
H7631 H 0.41083 0.96637 0.11563 0.0
H7632 H 0.42156 0.99877 0.13875 0.0
H7633 H 0.41835 0.98598 0.13782 0.0
H7634 H 0.42274 0.99675 0.16171 0.0
H7635 H 0.41962 0.98413 0.16077 0.0
H7636 H 0.3971 0.95659 0.176 0.0
H7637 H 0.39249 0.93761 0.16362 0.0
H7638 H 0.39899 0.9425 0.15361 0.0
H7639 H 0.40343 0.96168 0.16555 0.0
C7640 C 0.11802 0.06504 0.62484 0.0
C7641 C 0.12119 0.07176 0.62412 0.0
C7642 C 0.12402 0.06944 0.61158 0.0
C7643 C 0.12421 0.0739 0.61766 0.0
C7644 C 0.12038 0.06283 0.61218 0.0
C7645 C 0.11748 0.0606 0.61879 0.0
U7646 U 0.11279 0.0558 0.64386 0.0
O7647 O 0.11338 0.04418 0.64243 0.0
O7648 O 0.10284 0.04929 0.64373 0.0
C7649 C 0.10641 0.04332 0.64265 0.0
C7650 C 0.11645 0.06265 0.63221 0.0
C7651 C 0.10373 0.03648 0.64558 0.0
C7652 C 0.10074 0.02413 0.64281 0.0
C7653 C 0.10227 0.03109 0.64061 0.0
C7654 C 0.10156 0.02789 0.65515 0.0
C7655 C 0.10043 0.0223 0.65012 0.0
C7656 C 0.1033 0.03488 0.6529 0.0
C7657 C 0.12047 0.06579 0.66122 0.0
C7658 C 0.12479 0.06831 0.67328 0.0
C7659 C 0.12888 0.07556 0.66337 0.0
C7660 C 0.12458 0.07153 0.65864 0.0
C7661 C 0.1292 0.07385 0.67075 0.0
C7662 C 0.1205 0.06437 0.66858 0.0
C7663 C 0.11664 0.06063 0.65655 0.0
O7664 O 0.12058 0.05787 0.63528 0.0
O7665 O 0.11021 0.06368 0.63531 0.0
O7666 O 0.12056 0.05626 0.65269 0.0
O7667 O 0.11062 0.06252 0.65341 0.0
H7668 H 0.12174 0.07523 0.62874 0.0
H7669 H 0.12706 0.07892 0.61762 0.0
H7670 H 0.11995 0.05928 0.60762 0.0
H7671 H 0.11505 0.05536 0.61922 0.0
H7672 H 0.10015 0.02018 0.63865 0.0
H7673 H 0.10264 0.03219 0.63493 0.0
H7674 H 0.10122 0.0269 0.66084 0.0
H7675 H 0.10443 0.03896 0.65685 0.0
H7676 H 0.12473 0.06692 0.6789 0.0
H7677 H 0.1322 0.07978 0.6612 0.0
H7678 H 0.12466 0.07275 0.65297 0.0
H7679 H 0.11736 0.05998 0.6707 0.0
C7680 C 0.01773 0.15844 0.42637 0.0
C7681 C 0.02267 0.15359 0.42348 0.0
H7682 H 1.00677 0.16104 0.42835 0.0
C7683 C 0.02006 0.14718 0.42052 0.0
H7684 H 0.01957 0.16339 0.42875 0.0
C7685 C 0.01262 0.1459 0.42004 0.0
C7686 C 1.00762 0.15096 0.4226 0.0
H7687 H 0.02374 0.14335 0.41821 0.0
H7688 H 1.01083 0.14112 0.41733 0.0
C7689 C 1.01034 0.15711 0.42604 0.0
C7690 C 0.11184 0.76626 0.67126 0.0
C7691 C 0.11696 0.77139 0.67336 0.0
H7692 H 0.10948 0.75541 0.66891 0.0
C7693 C 0.12361 0.76888 0.67586 0.0
H7694 H 0.10652 0.76785 0.6696 0.0
C7695 C 0.12518 0.76154 0.67592 0.0
C7696 C 0.12028 0.75643 0.6732 0.0
H7697 H 0.12772 0.77256 0.67759 0.0
H7698 H 0.13033 0.75997 0.67802 0.0
C7699 C 0.11351 0.75897 0.67103 0.0
C7700 C 0.50504 0.86442 0.92835 0.0
C7701 C 0.5004 0.86728 0.92316 0.0
H7702 H 0.51592 0.86345 0.93202 0.0
C7703 C 0.50324 0.87171 0.91781 0.0
H7704 H 0.50299 0.86089 0.93245 0.0
C7705 C 0.51059 0.87325 0.9176 0.0
C7706 C 0.51528 0.87028 0.92267 0.0
H7707 H 0.49979 0.87383 0.91366 0.0
H7708 H 0.51265 0.87651 0.91328 0.0
C7709 C 0.51242 0.86588 0.92808 0.0
C7710 C 0.40368 0.25334 0.17901 0.0
C7711 C 0.40533 0.24969 0.17263 0.0
H7712 H 0.40126 0.26352 0.18389 0.0
C7713 C 0.40543 0.25356 0.16618 0.0
H7714 H 0.40357 0.25053 0.18407 0.0
C7715 C 0.40428 0.26091 0.16611 0.0
C7716 C 0.40286 0.2646 0.17247 0.0
H7717 H 0.40649 0.2509 0.16114 0.0
H7718 H 0.40449 0.26374 0.16106 0.0
C7719 C 0.40241 0.26076 0.17892 0.0
C7720 C 0.02034 0.87349 0.10151 0.0
C7721 C 0.02291 0.86717 0.09836 0.0
H7722 H 1.01115 0.87959 0.10475 0.0
C7723 C 0.01796 0.86244 0.09528 0.0
H7724 H 0.02404 0.8772 0.104 0.0
C7725 C 1.01059 0.86387 0.09555 0.0
C7726 C 1.00792 0.86999 0.09908 0.0
H7727 H 0.01978 0.85754 0.09278 0.0
H7728 H 1.00698 0.86006 0.09311 0.0
C7729 C 0.01294 0.87487 0.10191 0.0
C7730 C 0.40416 0.76739 0.34272 0.0
C7731 C 0.40514 0.77121 0.34915 0.0
H7732 H 0.40221 0.75709 0.33786 0.0
C7733 C 0.40442 0.76751 0.35567 0.0
H7734 H 0.40474 0.77006 0.33762 0.0
C7735 C 0.403 0.76019 0.35579 0.0
C7736 C 0.40217 0.75634 0.34942 0.0
H7737 H 0.40506 0.77028 0.36071 0.0
H7738 H 0.40266 0.75748 0.36091 0.0
C7739 C 0.40271 0.75999 0.34286 0.0
C7740 C 0.50486 0.15628 0.59331 0.0
C7741 C 0.50032 0.15387 0.5988 0.0
H7742 H 0.51569 0.15691 0.58937 0.0
C7743 C 0.50326 0.14989 0.60445 0.0
H7744 H 0.50273 0.15948 0.58897 0.0
C7745 C 0.5106 0.14833 0.60462 0.0
C7746 C 0.51518 0.15084 0.59922 0.0
H7747 H 0.49989 0.14811 0.60882 0.0
H7748 H 0.51274 0.14539 0.60913 0.0
C7749 C 0.51225 0.15484 0.59355 0.0
C7750 C 0.11645 0.25424 0.85544 0.0
C7751 C 0.11752 0.25009 0.84923 0.0
H7752 H 0.11687 0.26458 0.86033 0.0
C7753 C 0.12004 0.25354 0.84303 0.0
H7754 H 0.11473 0.25179 0.86039 0.0
C7755 C 0.12136 0.26094 0.84304 0.0
C7756 C 0.12012 0.26506 0.84923 0.0
H7757 H 0.12089 0.25055 0.83814 0.0
H7758 H 0.12333 0.26346 0.8382 0.0
C7759 C 0.11766 0.26161 0.85541 0.0
C7760 C 0.4187 0.0188 0.14945 0.0
C7761 C 0.42388 0.02159 0.15413 0.0
H7762 H 0.41424 1.00944 0.14451 0.0
C7763 C 0.4289 0.0169 0.15719 0.0
H7764 H 0.41468 0.02228 0.14714 0.0
C7765 C 0.42862 1.00953 0.15574 0.0
C7766 C 0.42334 1.0067 0.15115 0.0
H7767 H 0.43289 0.0189 0.1609 0.0
H7768 H 0.43243 1.00601 0.15833 0.0
C7769 C 0.41846 0.01145 0.14793 0.0
C7770 C 0.25283 0.16864 0.39864 0.0
C7771 C 0.25025 0.17286 0.4043 0.0
H7772 H 0.26203 0.16481 0.39293 0.0
C7773 C 0.25514 0.1769 0.40833 0.0
H7774 H 0.24918 0.16535 0.39557 0.0
C7775 C 0.26249 0.17664 0.4068 0.0
C7776 C 0.26514 0.17227 0.40124 0.0
H7777 H 0.25328 0.18013 0.41277 0.0
H7778 H 0.26613 0.17977 0.41006 0.0
C7779 C 0.26019 0.16835 0.39713 0.0
C7780 C 0.10164 1.00478 0.66075 0.0
C7781 C 0.09937 0.99961 0.65574 0.0
H7782 H 0.10406 0.01567 0.66296 0.0
C7783 C 0.09665 1.0021 0.64917 0.0
H7784 H 0.10347 1.00322 0.66601 0.0
C7785 C 0.09656 1.00943 0.64756 0.0
C7786 C 0.09944 0.01457 0.65233 0.0
H7787 H 0.09478 0.99839 0.64514 0.0
H7788 H 0.0943 0.01098 0.64247 0.0
C7789 C 0.10181 0.01208 0.65903 0.0
C7790 C 0.26914 0.84257 0.90224 0.0
C7791 C 0.27263 0.84877 0.90473 0.0
H7792 H 0.25911 0.83778 0.89911 0.0
C7793 C 0.26856 0.85505 0.90561 0.0
H7794 H 0.2721 0.83764 0.90151 0.0
C7795 C 0.2612 0.85507 0.90442 0.0
C7796 C 0.25769 0.84886 0.90215 0.0
H7797 H 0.27107 0.85999 0.90729 0.0
H7798 H 0.25824 0.85999 0.90522 0.0
C7799 C 0.26172 0.84262 0.90092 0.0
C7800 C 0.42198 1.00174 0.37396 0.0
C7801 C 0.42431 0.99927 0.36724 0.0
H7802 H 0.41941 0.01079 0.3805 0.0
C7803 C 0.42664 1.00431 0.36218 0.0
H7804 H 0.42008 0.99799 0.37794 0.0
C7805 C 0.4264 0.01163 0.36368 0.0
C7806 C 0.42368 0.01417 0.37024 0.0
H7807 H 0.42853 1.00258 0.35698 0.0
H7808 H 0.42824 0.01531 0.3596 0.0
C7809 C 0.42162 1.0091 0.37542 0.0
C7810 C 0.26904 0.17844 0.61873 0.0
C7811 C 0.27279 0.17203 0.6174 0.0
H7812 H 0.2588 0.18333 0.621 0.0
C7813 C 0.269 0.16554 0.61789 0.0
H7814 H 0.27177 0.18353 0.61835 0.0
C7815 C 0.26167 0.16544 0.61938 0.0
C7816 C 0.25788 0.17181 0.62052 0.0
H7817 H 0.2717 0.16049 0.61701 0.0
H7818 H 0.2589 0.16035 0.61951 0.0
C7819 C 0.26163 0.17833 0.62025 0.0
C7820 C 0.09677 0.01684 0.86235 0.0
C7821 C 0.09914 0.02185 0.86742 0.0
H7822 H 0.0951 1.00587 0.85972 0.0
C7823 C 0.10149 0.01934 0.87412 0.0
H7824 H 0.09484 0.0186 0.85718 0.0
C7825 C 0.10186 0.01195 0.87554 0.0
C7826 C 0.0998 1.0069 0.87032 0.0
H7827 H 0.10339 0.02306 0.87812 0.0
H7828 H 0.10409 1.01023 0.88059 0.0
C7829 C 0.097 1.0095 0.86381 0.0
C7830 C 0.25313 0.85331 0.12248 0.0
C7831 C 0.25037 0.84824 0.11767 0.0
H7832 H 0.26248 0.85767 0.12754 0.0
C7833 C 0.25509 0.84335 0.11446 0.0
H7834 H 0.24962 0.85724 0.12488 0.0
C7835 C 0.26247 0.84362 0.11594 0.0
C7836 C 0.26527 0.84877 0.12069 0.0
H7837 H 0.2531 0.83946 0.11065 0.0
H7838 H 0.26602 0.83989 0.11326 0.0
C7839 C 0.26049 0.85354 0.124 0.0
C7840 C 0.15632 0.41564 0.0179 0.0
C7841 C 0.15548 0.42194 0.02194 0.0
H7842 H 0.15577 0.41059 1.00765 0.0
C7843 C 0.15288 0.42809 0.0184 0.0
H7844 H 0.15812 0.41074 0.02041 0.0
C7845 C 0.15137 0.42794 0.011 0.0
C7846 C 0.15249 0.42165 1.007 0.0
H7847 H 0.15219 0.43305 0.02131 0.0
H7848 H 0.14955 0.43276 1.00836 0.0
C7849 C 0.15492 0.41552 1.01057 0.0
C7850 C 0.65507 0.10544 1.0037 0.0
C7851 C 0.65538 0.09897 0.99987 0.0
H7852 H 0.65362 0.1106 0.01383 0.0
C7853 C 0.65395 0.09256 1.00358 0.0
H7854 H 0.65602 0.11049 1.00103 0.0
C7855 C 0.65247 0.09265 0.01099 0.0
C7856 C 0.65238 0.09916 0.01477 0.0
H7857 H 0.65421 0.08748 1.00082 0.0
H7858 H 0.6516 0.08766 0.01378 0.0
C7859 C 0.65365 0.10552 0.01103 0.0
C7860 C 0.16749 0.40062 0.25315 0.0
C7861 C 0.1736 0.40368 0.25 0.0
H7862 H 0.16245 0.39687 0.26277 0.0
C7863 C 0.17959 0.4051 0.25435 0.0
H7864 H 0.16278 0.39956 0.24994 0.0
C7865 C 0.17934 0.40369 0.26176 0.0
C7866 C 0.17318 0.40066 0.26489 0.0
H7867 H 0.18432 0.40756 0.25209 0.0
H7868 H 0.1839 0.40508 0.26506 0.0
C7869 C 0.16731 0.39906 0.26048 0.0
C7870 C 0.86704 0.91565 0.50398 0.0
C7871 C 0.86795 0.92193 0.49993 0.0
H7872 H 0.86754 0.91062 0.51424 0.0
C7873 C 0.87064 0.92805 0.50343 0.0
H7874 H 0.86518 0.91076 0.50149 0.0
C7875 C 0.87215 0.9279 0.51084 0.0
C7876 C 0.87096 0.92165 0.51485 0.0
H7877 H 0.87139 0.93299 0.50051 0.0
H7878 H 0.87403 0.93271 0.51346 0.0
C7879 C 0.86845 0.91553 0.51131 0.0
C7880 C 0.84686 0.11155 0.25455 0.0
C7881 C 0.84894 0.11674 0.24952 0.0
H7882 H 0.84544 0.10885 0.26555 0.0
C7883 C 0.85097 0.12353 0.25201 0.0
H7884 H 0.84519 0.10629 0.2528 0.0
C7885 C 0.8513 0.12498 0.25938 0.0
C7886 C 0.84951 0.11968 0.26445 0.0
H7887 H 0.85266 0.12762 0.24827 0.0
H7888 H 0.85328 0.13014 0.2611 0.0
C7889 C 0.84707 0.11303 0.26188 0.0
C7890 C 0.36941 0.60542 0.51817 0.0
C7891 C 0.36833 0.59891 0.52179 0.0
H7892 H 0.37152 0.61068 0.5082 0.0
C7893 C 0.36902 0.5925 0.51788 0.0
H7894 H 0.36897 0.61045 0.521 0.0
C7895 C 0.3705 0.59265 0.51047 0.0
C7896 C 0.37143 0.59921 0.5069 0.0
H7897 H 0.36815 0.5874 0.52049 0.0
H7898 H 0.37074 0.58768 0.50752 0.0
C7899 C 0.37092 0.60556 0.51084 0.0
C7900 C 0.17358 0.62348 0.26956 0.0
C7901 C 0.17454 0.61647 0.27209 0.0
H7902 H 0.17204 0.63026 0.26048 0.0
C7903 C 0.17558 0.61097 0.26707 0.0
H7904 H 0.17272 0.62784 0.27328 0.0
C7905 C 0.1753 0.61235 0.25973 0.0
C7906 C 0.17387 0.61927 0.25715 0.0
H7907 H 0.17647 0.60553 0.26883 0.0
H7908 H 0.1761 0.60793 0.25608 0.0
C7909 C 0.1732 0.62486 0.26219 0.0
C7910 C 0.34469 0.40071 0.76868 0.0
C7911 C 0.35001 0.40512 0.77172 0.0
H7912 H 0.34051 0.39577 0.75918 0.0
C7913 C 0.35527 0.40796 0.76708 0.0
H7914 H 0.34048 0.39845 0.77196 0.0
C7915 C 0.35517 0.40655 0.75974 0.0
C7916 C 0.34992 0.40212 0.75673 0.0
H7917 H 0.35965 0.41115 0.76912 0.0
H7918 H 0.35943 0.40874 0.75646 0.0
C7919 C 0.34466 0.39921 0.7613 0.0
C7920 C 1.00417 0.86442 0.59274 0.0
C7921 C 0.99928 0.86636 0.59813 0.0
H7922 H 0.0152 0.8643 0.58935 0.0
C7923 C 1.0018 0.87023 0.60406 0.0
H7924 H 1.00238 0.86133 0.58817 0.0
C7925 C 1.00906 0.87204 0.60467 0.0
C7926 C 0.01402 0.86988 0.59945 0.0
H7927 H 0.99816 0.87172 0.60832 0.0
H7928 H 1.01085 0.87483 0.60942 0.0
C7929 C 1.01149 0.86609 0.59344 0.0
C7930 C 0.90475 0.25252 0.34266 0.0
C7931 C 0.90583 0.24834 0.34885 0.0
H7932 H 0.90248 0.26302 0.33839 0.0
C7933 C 0.90476 0.25162 0.35556 0.0
H7934 H 0.90554 0.2502 0.33741 0.0
C7935 C 0.90295 0.25886 0.3561 0.0
C7936 C 0.90215 0.26308 0.34997 0.0
H7937 H 0.90545 0.24859 0.36045 0.0
H7938 H 0.90241 0.26123 0.36136 0.0
C7939 C 0.903 0.25985 0.34322 0.0
C7940 C 0.51912 0.15889 0.09413 0.0
C7941 C 0.52439 0.15473 0.0975 0.0
H7942 H 0.50795 0.16055 0.09219 0.0
C7943 C 0.52225 0.14872 0.10146 0.0
H7944 H 0.52063 0.16359 0.0911 0.0
C7945 C 0.51496 0.14704 0.10225 0.0
C7946 C 0.50962 0.15134 0.09909 0.0
H7947 H 0.52622 0.14552 0.10422 0.0
H7948 H 0.51351 0.14259 0.10565 0.0
C7949 C 0.51184 0.15717 0.09484 0.0
C7950 C 0.62302 0.76968 0.84538 0.0
C7951 C 0.61671 0.77242 0.84858 0.0
H7952 H 0.62964 0.7604 0.84342 0.0
C7953 C 0.61217 0.76751 0.85206 0.0
H7954 H 0.62668 0.77319 0.8426 0.0
C7955 C 0.614 0.76032 0.85273 0.0
C7956 C 0.62028 0.75758 0.84966 0.0
H7957 H 0.6071 0.76913 0.85434 0.0
H7958 H 0.61042 0.75689 0.85574 0.0
C7959 C 0.62478 0.76234 0.84592 0.0
C7960 C 1.00495 0.15886 0.92727 0.0
C7961 C 0.99971 0.15422 0.92457 0.0
H7962 H 0.01606 0.16108 0.92863 0.0
C7963 C 1.00191 0.14785 0.92125 0.0
H7964 H 1.00339 0.16381 0.92985 0.0
C7965 C 1.00924 0.14637 0.92026 0.0
C7966 C 0.01454 0.15121 0.92264 0.0
H7967 H 0.99797 0.14422 0.91905 0.0
H7968 H 1.01071 0.14163 0.91728 0.0
C7969 C 0.01224 0.15732 0.92645 0.0
C7970 C 0.61954 0.25194 0.67924 0.0
C7971 C 0.61689 0.24822 0.67323 0.0
H7972 H 0.62313 0.26206 0.68346 0.0
C7973 C 0.61618 0.25197 0.66673 0.0
H7974 H 0.62018 0.24924 0.68432 0.0
C7975 C 0.61765 0.25925 0.66632 0.0
C7976 C 0.62006 0.26299 0.67233 0.0
H7977 H 0.61442 0.24928 0.66191 0.0
H7978 H 0.61694 0.26198 0.66125 0.0
C7979 C 0.62117 0.25927 0.67877 0.0
C7980 C 0.5219 0.87051 0.41812 0.0
C7981 C 0.52434 0.8663 0.42385 0.0
H7982 H 0.51293 0.87541 0.41291 0.0
C7983 C 0.51939 0.86402 0.42903 0.0
H7984 H 0.5256 0.87222 0.414 0.0
C7985 C 0.51209 0.86575 0.42836 0.0
C7986 C 0.50964 0.8699 0.42256 0.0
H7987 H 0.52112 0.86067 0.43343 0.0
H7988 H 0.50833 0.86374 0.43229 0.0
C7989 C 0.51466 0.87234 0.41752 0.0
C7990 C 0.90488 0.76949 0.16646 0.0
C7991 C 0.90612 0.77272 0.17316 0.0
H7992 H 0.90232 0.75992 0.16069 0.0
C7993 C 0.90526 0.76852 0.17936 0.0
H7994 H 0.90542 0.77254 0.16157 0.0
C7995 C 0.90346 0.76122 0.17883 0.0
C7996 C 0.90237 0.75804 0.17209 0.0
H7997 H 0.90623 0.77081 0.1846 0.0
H7998 H 0.90307 0.75803 0.18365 0.0
C7999 C 0.90304 0.76227 0.16594 0.0
C8000 C 0.60523 1.00253 0.86332 0.0
C8001 C 0.59946 0.99825 0.86567 0.0
H8002 H 0.61009 0.01286 0.86299 0.0
C8003 C 0.59424 1.0015 0.87008 0.0
H8004 H 0.6096 1.00032 0.86023 0.0
C8005 C 0.59474 1.00879 0.87194 0.0
C8006 C 0.60038 0.01301 0.86929 0.0
H8007 H 0.5897 0.99848 0.87202 0.0
H8008 H 0.59065 0.01117 0.8753 0.0
C8009 C 0.6056 1.00978 0.86498 0.0
C8010 C 0.77075 0.84505 0.62201 0.0
C8011 C 0.77357 0.8485 0.61586 0.0
H8012 H 0.76139 0.84284 0.62849 0.0
C8013 C 0.76865 0.85227 0.61154 0.0
H8014 H 0.7742 0.84202 0.62554 0.0
C8015 C 0.76146 0.85295 0.6134 0.0
C8016 C 0.75866 0.84959 0.61948 0.0
H8017 H 0.7702 0.85473 0.60656 0.0
H8018 H 0.75804 0.85614 0.60997 0.0
C8019 C 0.76338 0.84558 0.62379 0.0
C8020 C 0.922 0.0175 0.36034 0.0
C8021 C 0.92489 0.02247 0.36521 0.0
H8022 H 0.91849 1.00684 0.35841 0.0
C8023 C 0.92756 0.01988 0.37176 0.0
H8024 H 0.92014 0.01918 0.35512 0.0
C8025 C 0.92693 0.01262 0.37352 0.0
C8026 C 0.92347 1.00776 0.36887 0.0
H8027 H 0.92987 0.02349 0.37565 0.0
H8028 H 0.92902 0.01088 0.37863 0.0
C8029 C 0.92119 1.0103 0.36218 0.0
C8030 C 0.75199 0.16751 0.12145 0.0
C8031 C 0.74952 0.17323 0.11724 0.0
H8032 H 0.76101 0.16215 0.1261 0.0
C8033 C 0.7545 0.17834 0.11487 0.0
H8034 H 0.74828 0.16345 0.12328 0.0
C8035 C 0.76185 0.17755 0.1164 0.0
C8036 C 0.76436 0.17168 0.12043 0.0
H8037 H 0.75276 0.18275 0.11154 0.0
H8038 H 0.76559 0.18143 0.11428 0.0
C8039 C 0.75929 0.16678 0.12308 0.0
C8040 C 0.59771 0.01781 0.66111 0.0
C8041 C 0.59817 0.023 0.65573 0.0
H8042 H 0.59776 1.00693 0.66396 0.0
C8043 C 0.59889 0.0207 0.64862 0.0
H8044 H 0.59697 0.01938 0.66664 0.0
C8045 C 0.59976 0.01339 0.64701 0.0
C8046 C 0.59977 1.00814 0.65247 0.0
H8047 H 0.5992 0.02458 0.64433 0.0
H8048 H 0.60071 0.012 0.64148 0.0
C8049 C 0.59834 0.01055 0.65951 0.0
C8050 C 0.75463 0.84312 0.40818 0.0
C8051 C 0.74946 0.84749 0.40492 0.0
H8052 H 0.76579 0.84057 0.40926 0.0
C8053 C 0.75171 0.85254 0.39983 0.0
H8054 H 0.75304 0.83927 0.4122 0.0
C8055 C 0.75899 0.85332 0.39813 0.0
C8056 C 0.76424 0.84913 0.40157 0.0
H8057 H 0.74783 0.85606 0.39734 0.0
H8058 H 0.76054 0.85746 0.39439 0.0
C8059 C 0.76193 0.84392 0.40652 0.0
C8060 C 0.92287 1.00014 0.1486 0.0
C8061 C 0.92514 0.99802 0.15545 0.0
H8062 H 0.91982 1.00881 0.14176 0.0
C8063 C 0.92698 1.00333 0.16043 0.0
H8064 H 0.92137 0.99615 0.14468 0.0
C8065 C 0.9263 0.01057 0.15872 0.0
C8066 C 0.92351 0.01278 0.15205 0.0
H8067 H 0.9288 1.00186 0.16573 0.0
H8068 H 0.92782 0.01444 0.16274 0.0
C8069 C 0.92201 1.00742 0.14694 0.0
C8070 C 0.77191 0.16937 0.89927 0.0
C8071 C 0.7741 0.17368 0.90502 0.0
H8072 H 0.76312 0.16487 0.8934 0.0
C8073 C 0.76885 0.17733 0.90897 0.0
H8074 H 0.77585 0.16639 0.89623 0.0
C8075 C 0.76155 0.17654 0.90732 0.0
C8076 C 0.75928 0.17196 0.90176 0.0
H8077 H 0.77039 0.18063 0.91348 0.0
H8078 H 0.75768 0.17939 0.91055 0.0
C8079 C 0.7646 0.16852 0.89764 0.0
C8080 C 0.86451 0.593 1.00387 0.0
C8081 C 0.86774 0.59742 0.99873 0.0
H8082 H 0.86344 0.59042 0.015 0.0
C8083 C 0.87278 0.6025 1.00098 0.0
H8084 H 0.86051 0.58911 1.00227 0.0
C8085 C 0.87447 0.60327 1.00826 0.0
C8086 C 0.87107 0.59904 0.01347 0.0
H8087 H 0.87524 0.60606 0.99713 0.0
H8088 H 0.87818 0.60745 1.00982 0.0
C8089 C 0.86615 0.59379 0.01116 0.0
C8090 C 0.36854 0.92915 0.0191 0.0
C8091 C 0.36714 0.92293 0.02311 0.0
H8092 H 0.37117 0.9335 1.00873 0.0
C8093 C 0.36775 0.91624 0.01971 0.0
H8094 H 0.36807 0.93438 0.02154 0.0
C8095 C 0.36943 0.91577 0.01246 0.0
C8096 C 0.37067 0.92196 1.00844 0.0
H8097 H 0.36685 0.91133 0.02264 0.0
H8098 H 0.36971 0.91055 1.00996 0.0
C8099 C 0.37027 0.92867 0.01179 0.0
C8100 C 0.85597 0.61757 0.76969 0.0
C8101 C 0.84926 0.61623 0.77285 0.0
H8102 H 0.86179 0.62016 0.76015 0.0
C8103 C 0.84306 0.61693 0.7686 0.0
H8104 H 0.86085 0.61713 0.7728 0.0
C8105 C 0.84363 0.61867 0.76129 0.0
C8106 C 0.85039 0.61988 0.75818 0.0
H8107 H 0.83782 0.61587 0.77085 0.0
H8108 H 0.83883 0.61893 0.75804 0.0
C8109 C 0.85652 0.61936 0.76246 0.0
C8110 C 0.15269 0.0929 0.51917 0.0
C8111 C 0.15611 0.09857 0.52283 0.0
H8112 H 0.14847 0.08905 0.50911 0.0
C8113 C 0.1574 0.10493 0.519 0.0
H8114 H 0.1516 0.08791 0.5219 0.0
C8115 C 0.1557 0.10552 0.51174 0.0
C8116 C 0.15251 0.09984 0.50805 0.0
H8117 H 0.15979 0.10952 0.52159 0.0
H8118 H 0.15698 0.11044 0.50896 0.0
C8119 C 0.1509 0.09354 0.51185 0.0
C8120 C 0.1726 0.91062 0.76785 0.0
C8121 C 0.17454 0.90537 0.77288 0.0
H8122 H 0.16996 0.91315 0.75709 0.0
C8123 C 0.17613 0.89845 0.77032 0.0
H8124 H 0.1715 0.91605 0.76952 0.0
C8125 C 0.17544 0.89679 0.76298 0.0
C8126 C 0.17317 0.90203 0.75802 0.0
H8127 H 0.17766 0.89426 0.77402 0.0
H8128 H 0.1766 0.89141 0.76119 0.0
C8129 C 0.17184 0.90896 0.76062 0.0
C8130 C 0.6539 0.41593 0.50187 0.0
C8131 C 0.65565 0.42259 0.49881 0.0
H8132 H 0.65105 0.41008 0.51132 0.0
C8133 C 0.65532 0.4287 0.5032 0.0
H8134 H 0.65405 0.41111 0.49866 0.0
C8135 C 0.65365 0.42808 0.51055 0.0
C8136 C 0.6521 0.42136 0.51358 0.0
H8137 H 0.65665 0.43391 0.50105 0.0
H8138 H 0.65373 0.43281 0.51389 0.0
C8139 C 0.65213 0.41533 0.50912 0.0
C8140 C 0.84565 0.40943 0.75371 0.0
C8141 C 0.84827 0.40479 0.74843 0.0
H8142 H 0.84427 0.41151 0.76485 0.0
C8143 C 0.85144 0.39832 0.75057 0.0
H8144 H 0.84318 0.41445 0.75221 0.0
C8145 C 0.85233 0.39671 0.75787 0.0
C8146 C 0.84998 0.4015 0.76321 0.0
H8147 H 0.85359 0.39469 0.74659 0.0
H8148 H 0.85519 0.39188 0.75929 0.0
C8149 C 0.84638 0.40776 0.76098 0.0
C8150 C 0.66829 0.61967 0.25108 0.0
C8151 C 0.67446 0.61626 0.24843 0.0
H8152 H 0.66285 0.62398 0.26021 0.0
C8153 C 0.68014 0.61483 0.25315 0.0
H8154 H 0.6638 0.62076 0.24757 0.0
C8155 C 0.67954 0.61657 0.26045 0.0
C8156 C 0.67332 0.61993 0.26308 0.0
H8157 H 0.68491 0.61211 0.25127 0.0
H8158 H 0.68387 0.61519 0.26406 0.0
C8159 C 0.66776 0.62154 0.2583 0.0
C8160 C 0.51958 0.65098 0.91673 0.0
C8161 C 0.52279 0.65389 0.92288 0.0
H8162 H 0.50989 0.64735 0.91174 0.0
C8163 C 0.5185 0.65525 0.92892 0.0
H8164 H 0.52275 0.64998 0.91198 0.0
C8165 C 0.51109 0.65387 0.92872 0.0
C8166 C 0.50793 0.65093 0.92256 0.0
H8167 H 0.52083 0.65761 0.93367 0.0
H8168 H 0.50783 0.65515 0.93334 0.0
C8169 C 0.51224 0.64947 0.9166 0.0
C8170 C 0.62061 0.26766 0.17871 0.0
C8171 C 0.61802 0.2712 0.17256 0.0
H8172 H 0.62388 0.25761 0.18337 0.0
C8173 C 0.61712 0.26719 0.16625 0.0
H8174 H 0.62133 0.27056 0.18367 0.0
C8175 C 0.61846 0.25986 0.16613 0.0
C8176 C 0.62088 0.25629 0.17226 0.0
H8177 H 0.61533 0.26971 0.16135 0.0
H8178 H 0.61758 0.25695 0.16119 0.0
C8179 C 0.62205 0.26026 0.17855 0.0
C8180 C 1.00535 0.36406 0.42799 0.0
C8181 C 1.00061 0.36735 0.42317 0.0
H8182 H 0.01629 0.36271 0.43134 0.0
C8183 C 1.00339 0.37219 0.41814 0.0
H8184 H 1.00336 0.36023 0.43186 0.0
C8185 C 1.01077 0.37364 0.41784 0.0
C8186 C 0.01557 0.3702 0.42251 0.0
H8187 H 0.99986 0.37467 0.41426 0.0
H8188 H 0.01275 0.37719 0.41372 0.0
C8189 C 0.01275 0.36547 0.42766 0.0
C8190 C 0.90384 0.75361 0.67912 0.0
C8191 C 0.90513 0.74985 0.67271 0.0
H8192 H 0.90164 0.76385 0.68397 0.0
C8193 C 0.90473 0.7536 0.6662 0.0
H8194 H 0.90418 0.75089 0.68422 0.0
C8195 C 0.90332 0.76092 0.66607 0.0
C8196 C 0.90219 0.76471 0.67244 0.0
H8197 H 0.90559 0.75088 0.66116 0.0
H8198 H 0.90323 0.76368 0.66098 0.0
C8199 C 0.9024 0.761 0.67898 0.0
C8200 C 0.51806 0.36386 0.59384 0.0
C8201 C 0.52284 0.36736 0.59846 0.0
H8202 H 0.50712 0.36246 0.59059 0.0
C8203 C 0.52015 0.37244 0.60329 0.0
H8204 H 0.52001 0.35984 0.59014 0.0
C8205 C 0.51279 0.37394 0.60357 0.0
C8206 C 0.50796 0.37034 0.59905 0.0
H8207 H 0.52372 0.37508 0.60702 0.0
H8208 H 0.51085 0.37769 0.60754 0.0
C8209 C 0.5107 0.36534 0.59413 0.0
C8210 C 0.90643 0.26699 0.84273 0.0
C8211 C 0.90495 0.2713 0.84872 0.0
H8212 H 0.90643 0.25632 0.83839 0.0
C8213 C 0.90195 0.26815 0.85484 0.0
H8214 H 0.90888 0.26929 0.83801 0.0
C8215 C 0.90045 0.26083 0.85501 0.0
C8216 C 0.90203 0.2565 0.8491 0.0
H8217 H 0.90087 0.27134 0.85955 0.0
H8218 H 0.89826 0.25851 0.85985 0.0
C8219 C 0.90506 0.25961 0.84296 0.0
C8220 C 1.00407 0.6528 0.10561 0.0
C8221 C 1.00043 0.6541 0.09914 0.0
H8222 H 0.01412 0.65069 0.11074 0.0
C8223 C 1.00433 0.65387 0.09269 0.0
H8224 H 1.00121 0.65286 0.11065 0.0
C8225 C 0.01176 0.65263 0.09277 0.0
C8226 C 0.01537 0.65159 0.09929 0.0
H8227 H 1.00168 0.6549 0.08765 0.0
H8228 H 0.01472 0.65261 0.08778 0.0
C8229 C 1.01145 0.65158 0.10567 0.0
C8230 C 0.62334 0.75244 0.35372 0.0
C8231 C 0.61864 0.74968 0.34856 0.0
H8232 H 0.62828 0.76178 0.35823 0.0
C8233 C 0.61548 0.75439 0.34363 0.0
H8234 H 0.62571 0.74893 0.35768 0.0
C8235 C 0.6169 0.76176 0.34397 0.0
C8236 C 0.62154 0.76456 0.34922 0.0
H8237 H 0.61175 0.7524 0.33967 0.0
H8238 H 0.61426 0.7653 0.34021 0.0
C8239 C 0.62482 0.75979 0.35402 0.0
C8240 C 0.92703 0.51674 0.65922 0.0
C8241 C 0.92431 0.52173 0.65431 0.0
H8242 H 0.92895 0.50578 0.66172 0.0
C8243 C 0.92157 0.51921 0.64777 0.0
H8244 H 0.92923 0.51852 0.66427 0.0
C8245 C 0.92118 0.51183 0.64636 0.0
C8246 C 0.92362 0.50679 0.65142 0.0
H8247 H 0.91938 0.52293 0.6439 0.0
H8248 H 0.91865 0.51009 0.64145 0.0
C8249 C 0.92679 0.50941 0.65776 0.0
C8250 C 0.75471 0.67832 0.90621 0.0
C8251 C 0.75029 0.67257 0.90423 0.0
H8252 H 0.76546 0.6825 0.90654 0.0
C8253 C 0.75334 0.66672 0.90063 0.0
H8254 H 0.75249 0.68283 0.9091 0.0
C8255 C 0.76068 0.6666 0.89906 0.0
C8256 C 0.76514 0.67225 0.90117 0.0
H8257 H 0.75007 0.66217 0.89917 0.0
H8258 H 0.76292 0.66194 0.89643 0.0
C8259 C 0.7621 0.67813 0.90476 0.0
C8260 C 0.5944 0.50283 0.15165 0.0
C8261 C 0.60012 0.49966 0.15541 0.0
H8262 H 0.5899 0.51248 0.14731 0.0
C8263 C 0.6058 0.50411 0.15763 0.0
H8264 H 0.58991 0.49964 0.14987 0.0
C8265 C 0.60573 0.51146 0.15629 0.0
C8266 C 0.60004 0.51464 0.15255 0.0
H8267 H 0.61043 0.50191 0.16033 0.0
H8268 H 0.61029 0.51462 0.15798 0.0
C8269 C 0.59437 0.51022 0.15022 0.0
C8270 C 0.77003 0.35342 0.39927 0.0
C8271 C 0.7728 0.34833 0.40406 0.0
H8272 H 0.76067 0.35786 0.39427 0.0
C8273 C 0.76805 0.34346 0.40726 0.0
H8274 H 0.77355 0.35733 0.39685 0.0
C8275 C 0.76066 0.34379 0.40583 0.0
C8276 C 0.75784 0.34898 0.40114 0.0
H8277 H 0.77004 0.33955 0.41105 0.0
H8278 H 0.75712 0.34007 0.40852 0.0
C8279 C 0.76265 0.35371 0.39778 0.0
C8280 C 0.92211 0.50162 0.87404 0.0
C8281 C 0.92439 0.49913 0.86731 0.0
H8282 H 0.91959 0.5107 0.88057 0.0
C8283 C 0.92669 0.50415 0.86222 0.0
H8284 H 0.92025 0.49788 0.87805 0.0
C8285 C 0.92647 0.51147 0.8637 0.0
C8286 C 0.92377 0.51405 0.87026 0.0
H8287 H 0.92855 0.5024 0.85701 0.0
H8288 H 0.92828 0.51513 0.85959 0.0
C8289 C 0.92176 0.50899 0.87548 0.0
C8290 C 0.76972 0.66641 0.12093 0.0
C8291 C 0.77286 0.67243 0.1177 0.0
H8292 H 0.76009 0.66146 0.1248 0.0
C8293 C 0.76849 0.67834 0.1161 0.0
H8294 H 0.77295 0.66175 0.12212 0.0
C8295 C 0.76107 0.67812 0.11751 0.0
C8296 C 0.75794 0.67205 0.1207 0.0
H8297 H 0.77075 0.683 0.11351 0.0
H8298 H 0.75775 0.68262 0.11597 0.0
C8299 C 0.76238 0.66626 0.12248 0.0
C8300 C 0.60018 0.51909 0.37387 0.0
C8301 C 0.59892 0.52155 0.36688 0.0
H8302 H 0.6019 0.51005 0.38067 0.0
C8303 C 0.59759 0.5165 0.36147 0.0
H8304 H 0.60128 0.52284 0.37814 0.0
C8305 C 0.59785 0.50918 0.36291 0.0
C8306 C 0.59953 0.50667 0.3698 0.0
H8307 H 0.59648 0.51822 0.35604 0.0
H8308 H 0.59685 0.50548 0.35857 0.0
C8309 C 0.60053 0.51173 0.37531 0.0
C8310 C 0.75275 0.35133 0.62365 0.0
C8311 C 0.75027 0.34797 0.61741 0.0
H8312 H 0.76185 0.35464 0.62981 0.0
C8313 C 0.75527 0.34472 0.61283 0.0
H8314 H 0.74902 0.35399 0.6272 0.0
C8315 C 0.76261 0.34496 0.61437 0.0
C8316 C 0.76517 0.34859 0.62047 0.0
H8317 H 0.75349 0.34211 0.60797 0.0
H8318 H 0.76629 0.34241 0.61069 0.0
C8319 C 0.76012 0.35168 0.62515 0.0
C8320 C 0.6553 0.92856 0.51797 0.0
C8321 C 0.65509 0.92222 0.52203 0.0
H8322 H 0.65429 0.9333 0.50749 0.0
C8323 C 0.65316 0.91582 0.51858 0.0
H8324 H 0.65687 0.93356 0.52046 0.0
C8325 C 0.6516 0.91571 0.51126 0.0
C8326 C 0.65198 0.92197 0.50717 0.0
H8327 H 0.65297 0.91085 0.52155 0.0
H8328 H 0.65031 0.91066 0.50874 0.0
C8329 C 0.65384 0.92842 0.51058 0.0
C8330 C 0.15585 0.60524 0.50423 0.0
C8331 C 0.15533 0.59886 0.50027 0.0
H8332 H 0.15508 0.61034 0.51444 0.0
C8333 C 0.15309 0.59261 0.50385 0.0
H8334 H 0.15738 0.6102 0.50166 0.0
C8335 C 0.15162 0.59274 0.51126 0.0
C8336 C 0.15241 0.59912 0.51517 0.0
H8337 H 0.15267 0.5876 0.50099 0.0
H8338 H 0.15009 0.58785 0.51395 0.0
C8339 C 0.15448 0.60535 0.51156 0.0
C8340 C 0.66706 0.90569 0.75398 0.0
C8341 C 0.67321 0.90439 0.74981 0.0
H8342 H 0.6622 0.9055 0.76433 0.0
C8343 C 0.67924 0.90134 0.7532 0.0
H8344 H 0.66222 0.90781 0.75158 0.0
C8345 C 0.67915 0.89987 0.7606 0.0
C8346 C 0.67305 0.90146 0.76473 0.0
H8347 H 0.68408 0.90028 0.75018 0.0
H8348 H 0.68389 0.89767 0.76312 0.0
C8349 C 0.66701 0.90432 0.76131 0.0
C8350 C 0.36926 0.42854 1.00396 0.0
C8351 C 0.36833 0.42212 1.00012 0.0
H8352 H 0.37119 0.43339 0.01428 0.0
C8353 C 0.36917 0.41561 1.0038 0.0
H8354 H 0.36858 0.43364 1.00131 0.0
C8355 C 0.37068 0.41548 0.01112 0.0
C8356 C 0.37143 0.42184 0.015 0.0
H8357 H 0.36856 0.41057 1.00101 0.0
H8358 H 0.37109 0.41037 0.01381 0.0
C8359 C 0.37076 0.4284 0.01136 0.0
C8360 C 0.35137 0.62372 0.75239 0.0
C8361 C 0.349 0.61704 0.74986 0.0
H8362 H 0.354 0.63015 0.76153 0.0
C8363 C 0.34656 0.61199 0.75485 0.0
H8364 H 0.35331 0.62771 0.74867 0.0
C8365 C 0.34678 0.61343 0.7622 0.0
C8366 C 0.34964 0.6199 0.76483 0.0
H8367 H 0.34461 0.60684 0.75307 0.0
H8368 H 0.34485 0.60935 0.76582 0.0
C8369 C 0.35174 0.62512 0.75979 0.0
C8370 C 0.86964 0.0926 0.01829 0.0
C8371 C 0.86821 0.099 0.02202 0.0
H8372 H 0.87199 0.08771 1.00807 0.0
C8373 C 0.86856 0.10548 0.0182 0.0
H8374 H 0.86936 0.08751 0.02103 0.0
C8375 C 0.87003 0.10558 1.01087 0.0
C8376 C 0.87128 0.09922 1.00711 0.0
H8377 H 0.86761 0.11053 0.02088 0.0
H8378 H 0.87007 0.11066 1.00809 0.0
C8379 C 0.87114 0.09271 1.01088 0.0
C8380 C 0.67946 0.11923 0.76836 0.0
C8381 C 0.67325 0.11672 0.77185 0.0
H8382 H 0.68424 0.12246 0.75834 0.0
C8383 C 0.66694 0.11595 0.76781 0.0
H8384 H 0.68443 0.11986 0.77128 0.0
C8385 C 0.66687 0.11732 0.76048 0.0
C8386 C 0.67308 0.11965 0.75695 0.0
H8387 H 0.662 0.11423 0.7703 0.0
H8388 H 0.66194 0.11653 0.75754 0.0
C8389 C 0.67937 0.1207 0.76096 0.0
C8390 C 0.84358 0.90404 0.2678 0.0
C8391 C 0.84991 0.90378 0.27189 0.0
H8392 H 0.83889 0.9031 0.25728 0.0
C8393 C 0.85634 0.90184 0.26847 0.0
H8394 H 0.83857 0.90561 0.27026 0.0
C8395 C 0.85649 0.90032 0.26114 0.0
C8396 C 0.85024 0.90074 0.25701 0.0
H8397 H 0.8613 0.90162 0.27147 0.0
H8398 H 0.86156 0.89901 0.25865 0.0
C8399 C 0.84376 0.90261 0.26039 0.0
C8400 C 0.50291 0.36589 0.10522 0.0
C8401 C 0.49935 0.36579 0.09857 0.0
H8402 H 0.5128 0.36732 0.11083 0.0
C8403 C 0.50325 0.36761 0.09238 0.0
H8404 H 0.50006 0.36474 0.11013 0.0
C8405 C 0.5106 0.36922 0.09284 0.0
C8406 C 0.51413 0.36896 0.09947 0.0
H8407 H 0.50069 0.36758 0.08718 0.0
H8408 H 0.51355 0.37052 0.08802 0.0
C8409 C 0.5102 0.36739 0.10565 0.0
C8410 C 0.40704 0.75304 0.84256 0.0
C8411 C 0.40584 0.74834 0.84831 0.0
H8412 H 0.40655 0.76393 0.83882 0.0
C8413 C 0.40262 0.75102 0.85456 0.0
H8414 H 0.4096 0.75114 0.83772 0.0
C8415 C 0.40075 0.75824 0.85513 0.0
C8416 C 0.40217 0.763 0.84951 0.0
H8417 H 0.40168 0.74753 0.85909 0.0
H8418 H 0.39848 0.76016 0.8601 0.0
C8419 C 0.40532 0.76034 0.8432 0.0
C8420 C 0.02169 0.65099 0.60414 0.0
C8421 C 0.02424 0.65467 0.59811 0.0
H8422 H 0.01263 0.64647 0.60954 0.0
C8423 C 0.0194 0.65641 0.59261 0.0
H8424 H 0.02529 0.64967 0.60849 0.0
C8425 C 0.0121 0.65469 0.59328 0.0
C8426 C 1.00957 0.65104 0.59936 0.0
H8427 H 0.02122 0.65936 0.58796 0.0
H8428 H 1.00842 0.65629 0.5891 0.0
C8429 C 0.01446 0.64913 0.60473 0.0
C8430 C 0.11881 0.26967 0.35536 0.0
C8431 C 0.11728 0.27284 0.3487 0.0
H8432 H 0.12158 0.26015 0.36112 0.0
C8433 C 0.11784 0.26857 0.34251 0.0
H8434 H 0.11849 0.27278 0.36024 0.0
C8435 C 0.11961 0.26125 0.34304 0.0
C8436 C 0.12101 0.25814 0.34975 0.0
H8437 H 0.11665 0.27081 0.3373 0.0
H8438 H 0.11976 0.25801 0.33825 0.0
C8439 C 0.12064 0.26244 0.35588 0.0
C8440 C 0.50345 0.65525 0.42957 0.0
C8441 C 0.499 0.65487 0.42349 0.0
H8442 H 0.51416 0.65408 0.43372 0.0
C8443 C 0.50198 0.65246 0.41701 0.0
H8444 H 0.50133 0.65716 0.43461 0.0
C8445 C 0.50921 0.6506 0.41654 0.0
C8446 C 0.5137 0.65117 0.42253 0.0
H8447 H 0.4987 0.65212 0.41223 0.0
H8448 H 0.51138 0.64895 0.41142 0.0
C8449 C 0.51077 0.6535 0.42906 0.0
C8450 C 0.11451 0.75358 0.17824 0.0
C8451 C 0.1181 0.74843 0.17412 0.0
H8452 H 0.11308 0.76469 0.1806 0.0
C8453 C 0.12343 0.7507 0.16933 0.0
H8454 H 0.11031 0.75197 0.1819 0.0
C8455 C 0.12497 0.758 0.16848 0.0
C8456 C 0.12117 0.76323 0.17237 0.0
H8457 H 0.12618 0.74683 0.166 0.0
H8458 H 0.12887 0.75955 0.16448 0.0
C8459 C 0.11605 0.76088 0.17741 0.0
C8460 C 0.02221 0.37234 0.92048 0.0
C8461 C 0.02429 0.36626 0.92434 0.0
H8462 H 0.01352 0.37856 0.91631 0.0
C8463 C 0.019 0.36203 0.92757 0.0
H8464 H 0.02621 0.3756 0.91782 0.0
C8465 C 0.01174 0.36377 0.92682 0.0
C8466 C 1.00958 0.3697 0.92269 0.0
H8467 H 0.02048 0.35726 0.93051 0.0
H8468 H 1.00781 0.36035 0.92937 0.0
C8469 C 0.01494 0.37404 0.91964 0.0
C8470 C 0.41147 0.26727 0.67568 0.0
C8471 C 0.40621 0.27249 0.67447 0.0
H8472 H 0.41419 0.25627 0.67609 0.0
C8473 C 0.39921 0.27021 0.67288 0.0
H8474 H 0.4169 0.26884 0.67704 0.0
C8475 C 0.39767 0.26289 0.67193 0.0
C8476 C 0.40308 0.25764 0.67271 0.0
H8477 H 0.39503 0.27411 0.67194 0.0
H8478 H 0.39233 0.26143 0.67025 0.0
C8479 C 0.4099 0.26 0.67498 0.0
C8480 C 0.0959 0.50308 0.36159 0.0
C8481 C 0.0982 0.49778 0.36637 0.0
H8482 H 0.09469 0.51422 0.35947 0.0
C8483 C 0.10094 0.49987 0.37305 0.0
H8484 H 0.09375 0.50162 0.35642 0.0
C8485 C 0.10176 0.50715 0.37474 0.0
C8486 C 0.09975 0.51251 0.36982 0.0
H8487 H 0.10282 0.49588 0.37681 0.0
H8488 H 0.1043 0.50854 0.37976 0.0
C8489 C 0.09655 0.51033 0.36334 0.0
C8490 C 0.26915 0.34251 0.1148 0.0
C8491 C 0.27406 0.34785 0.11679 0.0
H8492 H 0.25811 0.33917 0.11463 0.0
C8493 C 0.27154 0.35375 0.12071 0.0
H8494 H 0.27092 0.33795 0.11169 0.0
C8495 C 0.26427 0.35439 0.1225 0.0
C8496 C 0.25929 0.34921 0.12029 0.0
H8497 H 0.27519 0.35799 0.12223 0.0
H8498 H 0.2625 0.35912 0.12533 0.0
C8499 C 0.26182 0.34322 0.11646 0.0
C8500 C 0.42319 0.51783 0.86021 0.0
C8501 C 0.42506 0.52297 0.86539 0.0
H8502 H 0.42035 0.5071 0.85791 0.0
C8503 C 0.4267 0.52057 0.87232 0.0
H8504 H 0.42213 0.51938 0.85473 0.0
C8505 C 0.42606 0.5133 0.8741 0.0
C8506 C 0.42359 0.50824 0.86905 0.0
H8507 H 0.42822 0.52432 0.87646 0.0
H8508 H 0.42737 0.51172 0.87951 0.0
C8509 C 0.42232 0.51065 0.86203 0.0
C8510 C 0.25409 0.67881 0.61647 0.0
C8511 C 0.2495 0.67287 0.61711 0.0
H8512 H 0.26494 0.68271 0.61725 0.0
C8513 C 0.25235 0.66643 0.61977 0.0
H8514 H 0.25208 0.68382 0.61439 0.0
C8515 C 0.25962 0.66584 0.62152 0.0
C8516 C 0.2643 0.67164 0.62056 0.0
H8517 H 0.24897 0.66176 0.62032 0.0
H8518 H 0.26167 0.66073 0.62332 0.0
C8519 C 0.26145 0.67816 0.61808 0.0
C8520 C 0.09394 0.51769 0.15747 0.0
C8521 C 0.09869 0.52274 0.15456 0.0
H8522 H 0.0911 0.50661 0.15837 0.0
C8523 C 0.10404 0.52037 0.14984 0.0
H8524 H 0.08983 0.51936 0.1612 0.0
C8525 C 0.10479 0.51309 0.1482 0.0
C8526 C 0.10025 0.50795 0.15134 0.0
H8527 H 0.10784 0.52415 0.14762 0.0
H8528 H 0.10917 0.51145 0.14478 0.0
C8529 C 0.09472 0.51038 0.15588 0.0
C8530 C 0.25243 0.35468 0.90231 0.0
C8531 C 0.24955 0.34818 0.90479 0.0
H8532 H 0.26175 0.36042 0.89885 0.0
C8533 C 0.25412 0.3422 0.90522 0.0
H8534 H 0.24907 0.35938 0.90191 0.0
C8535 C 0.26147 0.34284 0.90355 0.0
C8536 C 0.26433 0.34942 0.90124 0.0
H8537 H 0.25209 0.33713 0.90715 0.0
H8538 H 0.26494 0.33825 0.90422 0.0
C8539 C 0.25969 0.35527 0.90051 0.0
C8540 C 0.42934 0.50304 0.65815 0.0
C8541 C 0.42481 0.49793 0.65503 0.0
H8542 H 0.43205 0.51416 0.65905 0.0
C8543 C 0.41965 0.50018 0.65005 0.0
H8544 H 0.43327 0.50145 0.6621 0.0
C8545 C 0.41894 0.50742 0.64829 0.0
C8546 C 0.42332 0.51261 0.65154 0.0
H8547 H 0.416 0.49634 0.6477 0.0
H8548 H 0.41473 0.50899 0.64462 0.0
C8549 C 0.42859 0.51031 0.65643 0.0
C8550 C 0.26967 0.67893 0.40618 0.0
C8551 C 0.27429 0.67305 0.40524 0.0
H8552 H 0.25883 0.68284 0.40543 0.0
C8553 C 0.27151 0.66672 0.40228 0.0
H8554 H 0.27165 0.68383 0.40854 0.0
C8555 C 0.26429 0.66621 0.4004 0.0
C8556 C 0.25962 0.67197 0.40152 0.0
H8557 H 0.27493 0.6621 0.40154 0.0
H8558 H 0.26228 0.66119 0.3983 0.0
C8559 C 0.26236 0.67835 0.40443 0.0
C8560 C 0.36766 0.09196 0.50349 0.0
C8561 C 0.36756 0.09803 0.49903 0.0
H8562 H 0.36914 0.08792 0.5142 0.0
C8563 C 0.36946 0.10468 0.50202 0.0
H8564 H 0.36616 0.08678 0.50138 0.0
C8565 C 0.37125 0.1053 0.50925 0.0
C8566 C 0.37116 0.0993 0.51374 0.0
H8567 H 0.36946 0.10946 0.49875 0.0
H8568 H 0.37249 0.11053 0.51141 0.0
C8569 C 0.36936 0.09261 0.51081 0.0
C8570 C 0.86589 0.41627 0.51911 0.0
C8571 C 0.86703 0.42267 0.52293 0.0
H8572 H 0.86648 0.41077 0.50909 0.0
C8573 C 0.87029 0.42843 0.51929 0.0
H8574 H 0.86361 0.41162 0.52171 0.0
C8575 C 0.87213 0.42783 0.51198 0.0
C8576 C 0.8707 0.42148 0.50821 0.0
H8577 H 0.87124 0.43345 0.52201 0.0
H8578 H 0.87446 0.43237 0.50925 0.0
C8579 C 0.86761 0.41573 0.51187 0.0
C8580 C 0.35144 0.12271 0.27119 0.0
C8581 C 0.34828 0.11624 0.27333 0.0
H8582 H 0.35519 0.12914 0.26246 0.0
C8583 C 0.34567 0.11159 0.26805 0.0
H8584 H 0.35358 0.12634 0.27516 0.0
C8585 C 0.34641 0.11325 0.26078 0.0
C8586 C 0.35001 0.1195 0.25855 0.0
H8587 H 0.34321 0.10656 0.26955 0.0
H8588 H 0.34431 0.10949 0.25692 0.0
C8589 C 0.35234 0.12431 0.26389 0.0
C8590 C 0.65339 0.59253 0.01939 0.0
C8591 C 0.65642 0.5984 0.02306 0.0
H8592 H 0.6494 0.58848 1.00932 0.0
C8593 C 0.65729 0.60486 0.01929 0.0
H8594 H 0.65266 0.58746 0.02208 0.0
C8595 C 0.65553 0.60538 0.01205 0.0
C8596 C 0.65268 0.59953 1.00835 0.0
H8597 H 0.65938 0.60958 0.02191 0.0
H8598 H 0.65645 0.6104 1.00931 0.0
C8599 C 0.65153 0.5931 0.01209 0.0
C8600 C 0.67176 0.39804 0.27083 0.0
C8601 C 0.67522 0.40433 0.27307 0.0
H8602 H 0.66775 0.39191 0.26202 0.0
C8603 C 0.67808 0.4089 0.26786 0.0
H8604 H 0.66944 0.39447 0.27475 0.0
C8605 C 0.6773 0.40737 0.26057 0.0
C8606 C 0.67339 0.40134 0.25823 0.0
H8607 H 0.68077 0.41379 0.26944 0.0
H8608 H 0.67961 0.41107 0.25677 0.0
C8609 C 0.67082 0.39658 0.2635 0.0
C8610 C 0.15457 0.91595 1.00226 0.0
C8611 C 0.15556 0.9227 0.99905 0.0
H8612 H 0.15232 0.91005 0.01183 0.0
C8613 C 0.15446 0.92884 1.00329 0.0
H8614 H 0.15528 0.9111 0.99917 0.0
C8615 C 0.15277 0.9282 1.01062 0.0
C8616 C 0.15198 0.92142 0.01379 0.0
H8617 H 0.15521 0.93411 1.00102 0.0
H8618 H 0.15223 0.93298 0.01384 0.0
C8619 C 0.1528 0.91533 1.0095 0.0
C8620 C 0.34322 0.90396 0.25278 0.0
C8621 C 0.34944 0.90493 0.24861 0.0
H8622 H 0.33892 0.90171 0.26327 0.0
C8623 C 0.35615 0.90383 0.25188 0.0
H8624 H 0.33797 0.90482 0.25046 0.0
C8625 C 0.35666 0.90203 0.25911 0.0
C8626 C 0.3505 0.90124 0.26331 0.0
H8627 H 0.36105 0.90444 0.24884 0.0
H8628 H 0.36192 0.90142 0.26149 0.0
C8629 C 0.34375 0.90219 0.2601 0.0
C8630 C 0.16735 0.11492 0.75265 0.0
C8631 C 0.17383 0.11583 0.74889 0.0
H8632 H 0.16178 0.11569 0.76263 0.0
C8633 C 0.17968 0.11888 0.75259 0.0
H8634 H 0.16265 0.11281 0.75001 0.0
C8635 C 0.17909 0.12071 0.7599 0.0
C8636 C 0.17265 0.11952 0.76362 0.0
H8637 H 0.18477 0.11965 0.7499 0.0
H8638 H 0.18371 0.12286 0.76268 0.0
C8639 C 0.1668 0.11666 0.75989 0.0
C8640 C 0.09534 0.13497 0.45203 0.0
C8641 C 0.09477 0.1357 0.44455 0.0
H8642 H 0.10132 0.13087 0.4609 0.0
C8643 C 0.10002 0.1324 0.44026 0.0
H8644 H 0.09146 0.13749 0.45552 0.0
C8645 C 0.10571 0.12854 0.44336 0.0
C8646 C 0.10631 0.12789 0.45085 0.0
H8647 H 0.09969 0.13272 0.43449 0.0
H8648 H 0.10961 0.12603 0.43989 0.0
C8649 C 0.10101 0.13114 0.45512 0.0
C8650 C 0.13939 0.84916 0.69026 0.0
C8651 C 0.13658 0.84361 0.69452 0.0
H8652 H 0.14536 0.85898 0.6899 0.0
C8653 C 0.13779 0.84389 0.70195 0.0
H8654 H 0.13869 0.84907 0.68451 0.0
C8655 C 0.14162 0.84956 0.70503 0.0
C8656 C 0.14438 0.85515 0.7008 0.0
H8657 H 0.13565 0.83979 0.70543 0.0
H8658 H 0.14226 0.84963 0.71079 0.0
C8659 C 0.14324 0.85484 0.69336 0.0
C8660 C 0.42443 0.88927 0.94011 0.0
C8661 C 0.42899 0.88517 0.94448 0.0
H8662 H 0.4153 0.89626 0.9396 0.0
C8663 C 0.42779 0.88512 0.9519 0.0
H8664 H 0.42532 0.88953 0.93439 0.0
C8665 C 0.42207 0.88896 0.95487 0.0
C8666 C 0.41743 0.89296 0.95049 0.0
H8667 H 0.4312 0.882 0.9554 0.0
H8668 H 0.42119 0.88867 0.96059 0.0
C8669 C 0.41871 0.89313 0.94308 0.0
C8670 C 0.38396 0.17209 0.19 0.0
C8671 C 0.38689 0.17749 0.19436 0.0
H8672 H 0.3779 0.16233 0.18949 0.0
C8673 C 0.38578 0.17706 0.2018 0.0
H8674 H 0.38457 0.17232 0.18425 0.0
C8675 C 0.38195 0.17135 0.20479 0.0
C8676 C 0.3791 0.16588 0.20046 0.0
H8677 H 0.388 0.18106 0.20534 0.0
H8678 H 0.38139 0.17114 0.21056 0.0
C8679 C 0.38011 0.16636 0.19301 0.0
C8680 C 0.10012 0.88867 0.0815 0.0
C8681 C 0.09488 0.88533 0.07723 0.0
H8682 H 0.10969 0.89507 0.08183 0.0
C8683 C 0.09544 0.88601 0.06976 0.0
H8684 H 0.09979 0.88838 0.08728 0.0
C8685 C 0.1011 0.88984 0.06664 0.0
C8686 C 0.10639 0.89314 0.07088 0.0
H8687 H 0.09157 0.88346 0.06628 0.0
H8688 H 0.1014 0.89008 0.06086 0.0
C8689 C 0.1058 0.89252 0.07837 0.0
C8690 C 0.38583 0.84393 0.31999 0.0
C8691 C 0.3869 0.84346 0.32743 0.0
H8692 H 0.3815 0.84987 0.31122 0.0
C8693 C 0.38393 0.84885 0.33179 0.0
H8694 H 0.38808 0.83993 0.31644 0.0
C8695 C 0.3801 0.85459 0.32878 0.0
C8696 C 0.37913 0.8551 0.32132 0.0
H8697 H 0.3845 0.8486 0.33754 0.0
H8698 H 0.37786 0.85861 0.3323 0.0
C8699 C 0.38202 0.84965 0.31699 0.0
C8700 C 0.42378 0.13221 0.58173 0.0
C8701 C 0.42882 0.13572 0.57736 0.0
H8702 H 0.41431 0.12569 0.58223 0.0
C8703 C 0.42803 0.13521 0.5699 0.0
H8704 H 0.42432 0.13237 0.5875 0.0
C8705 C 0.42231 0.1314 0.56689 0.0
C8706 C 0.41721 0.12795 0.57124 0.0
H8707 H 0.43177 0.13789 0.56636 0.0
H8708 H 0.42181 0.13128 0.56112 0.0
C8709 C 0.41805 0.12837 0.57871 0.0
C8710 C 0.1393 0.17201 0.8318 0.0
C8711 C 0.1365 0.17749 0.82746 0.0
H8712 H 0.14526 0.16218 0.83231 0.0
C8713 C 0.13775 0.17713 0.82005 0.0
H8714 H 0.13859 0.17218 0.83755 0.0
C8715 C 0.14157 0.17142 0.81705 0.0
C8716 C 0.14429 0.16587 0.82136 0.0
H8717 H 0.13563 0.1812 0.81651 0.0
H8718 H 0.14223 0.17127 0.81129 0.0
C8719 C 0.14314 0.16628 0.8288 0.0
C8720 C 0.44081 0.09957 0.13459 0.0
C8721 C 0.44494 0.0935 0.1363 0.0
H8722 H 0.44039 0.10985 0.12951 0.0
C8723 C 0.45215 0.09338 0.13406 0.0
H8724 H 0.43521 0.09981 0.1361 0.0
C8725 C 0.45513 0.09915 0.13031 0.0
C8726 C 0.45102 0.10525 0.12862 0.0
H8727 H 0.45556 0.08888 0.13534 0.0
H8728 H 0.46075 0.09886 0.1289 0.0
C8729 C 0.44379 0.10534 0.1308 0.0
C8730 C 0.17359 0.1896 0.38294 0.0
C8731 C 0.17884 0.19395 0.38615 0.0
H8732 H 0.16394 0.18911 0.37668 0.0
C8733 C 0.17825 0.20141 0.38533 0.0
H8734 H 0.17396 0.18383 0.38332 0.0
C8735 C 0.17252 0.20442 0.38153 0.0
C8736 C 0.1672 0.20009 0.37839 0.0
H8737 H 0.18214 0.20494 0.38777 0.0
H8738 H 0.17218 0.21019 0.38119 0.0
C8739 C 0.16785 0.19262 0.37911 0.0
C8740 C 0.08255 0.92138 0.63427 0.0
C8741 C 0.07837 0.92735 0.63619 0.0
H8742 H 0.08297 0.91116 0.62903 0.0
C8743 C 0.07112 0.9274 0.63414 0.0
H8744 H 0.08819 0.92118 0.63562 0.0
C8745 C 0.06812 0.92166 0.63037 0.0
C8746 C 0.07226 0.91564 0.62848 0.0
H8747 H 0.06768 0.93184 0.63558 0.0
H8748 H 0.06246 0.92188 0.62909 0.0
C8749 C 0.07955 0.91561 0.63047 0.0
C8750 C 0.34538 0.81948 0.88531 0.0
C8751 C 0.34474 0.82693 0.88606 0.0
H8752 H 0.35146 0.8107 0.88119 0.0
C8753 C 0.34992 0.8313 0.88276 0.0
H8754 H 0.34153 0.81594 0.88782 0.0
C8755 C 0.35564 0.82828 0.87891 0.0
C8756 C 0.35633 0.82082 0.87826 0.0
H8757 H 0.34951 0.83706 0.88309 0.0
H8758 H 0.3595 0.8318 0.8764 0.0
C8759 C 0.35108 0.81647 0.88148 0.0
C8760 C 0.44077 0.92177 0.38795 0.0
C8761 C 0.44505 0.92754 0.38564 0.0
H8762 H 0.4403 0.91171 0.39347 0.0
C8763 C 0.4524 0.9274 0.38731 0.0
H8764 H 0.43506 0.92175 0.38689 0.0
C8765 C 0.4554 0.92165 0.39108 0.0
C8766 C 0.45115 0.91583 0.39332 0.0
H8767 H 0.4559 0.93167 0.38558 0.0
H8768 H 0.46111 0.9217 0.39207 0.0
C8769 C 0.44378 0.91601 0.39174 0.0
C8770 C 0.34947 0.18962 0.63922 0.0
C8771 C 0.3445 0.19401 0.63564 0.0
H8772 H 0.3589 0.18909 0.6458 0.0
C8773 C 0.34533 0.20146 0.63612 0.0
H8774 H 0.3489 0.18386 0.63908 0.0
C8775 C 0.35103 0.20445 0.63996 0.0
C8776 C 0.35608 0.20007 0.64346 0.0
H8777 H 0.34163 0.20501 0.6334 0.0
H8778 H 0.35159 0.21021 0.64005 0.0
C8779 C 0.35519 0.19261 0.64308 0.0
C8780 C 0.08234 0.09837 0.88954 0.0
C8781 C 0.07805 0.09353 0.88568 0.0
H8782 H 0.08269 0.10764 0.89635 0.0
C8783 C 0.07057 0.09448 0.88582 0.0
H8784 H 0.08811 0.09771 0.88965 0.0
C8785 C 0.06748 0.10014 0.88965 0.0
C8786 C 0.07176 0.10503 0.89346 0.0
H8787 H 0.0671 0.0909 0.88287 0.0
H8788 H 0.06171 0.10078 0.8895 0.0
C8789 C 0.07924 0.10405 0.89339 0.0
C8790 C 0.17825 0.8194 0.13672 0.0
C8791 C 0.17862 0.82685 0.1357 0.0
H8792 H 0.17244 0.81053 0.14103 0.0
C8793 C 0.17315 0.8311 0.1387 0.0
H8794 H 0.18229 0.81592 0.13444 0.0
C8795 C 0.16746 0.82798 0.14254 0.0
C8796 C 0.16707 0.82052 0.14349 0.0
H8797 H 0.17331 0.83686 0.13816 0.0
H8798 H 0.16339 0.83143 0.14482 0.0
C8799 C 0.17258 0.81629 0.14054 0.0
C8800 C 0.13578 0.45161 0.09449 0.0
C8801 C 0.13682 0.44416 0.09413 0.0
H8802 H 0.13146 0.46048 0.10029 0.0
C8803 C 0.13385 0.43991 0.0996 0.0
H8804 H 0.13805 0.45509 0.09045 0.0
C8805 C 0.13001 0.44303 0.10529 0.0
C8806 C 0.12904 0.45049 0.10567 0.0
H8807 H 0.13441 0.43415 0.09944 0.0
H8808 H 0.12775 0.43958 0.10935 0.0
C8809 C 0.13197 0.45471 0.10016 0.0
C8810 C 0.63577 0.06971 0.92776 0.0
C8811 C 0.63699 0.07712 0.92817 0.0
H8812 H 0.6313 0.06102 0.92181 0.0
C8813 C 0.63417 0.08151 0.92275 0.0
H8814 H 0.6379 0.06614 0.9318 0.0
C8815 C 0.63033 0.07857 0.91701 0.0
C8816 C 0.62923 0.07114 0.91653 0.0
H8817 H 0.63486 0.08725 0.92298 0.0
H8818 H 0.6282 0.08211 0.91295 0.0
C8819 C 0.63195 0.06677 0.92203 0.0
C8820 C 0.20247 0.38417 0.17771 0.0
C8821 C 0.19509 0.38572 0.17791 0.0
H8822 H 0.21122 0.3795 0.17199 0.0
C8823 C 0.19081 0.38327 0.1722 0.0
H8824 H 0.20598 0.38603 0.18194 0.0
C8825 C 0.19383 0.37946 0.16645 0.0
C8826 C 0.20124 0.37799 0.16622 0.0
H8827 H 0.18508 0.38422 0.17221 0.0
H8828 H 0.19035 0.37762 0.1622 0.0
C8829 C 0.20548 0.38039 0.17198 0.0
C8830 C 0.88707 0.95146 0.42749 0.0
C8831 C 0.88655 0.94402 0.42851 0.0
H8832 H 0.89106 0.95997 0.42093 0.0
C8833 C 0.89025 0.93946 0.42383 0.0
H8834 H 0.88428 0.95511 0.43102 0.0
C8835 C 0.8942 0.94223 0.41812 0.0
C8836 C 0.89449 0.94964 0.41691 0.0
H8837 H 0.8901 0.93372 0.42459 0.0
H8838 H 0.89696 0.93857 0.41458 0.0
C8839 C 0.891 0.95424 0.42174 0.0
C8840 C 0.83225 0.13767 0.17177 0.0
C8841 C 0.82809 0.13537 0.17763 0.0
H8842 H 0.83253 0.14322 0.16171 0.0
C8843 C 0.82074 0.13705 0.17761 0.0
H8844 H 0.83795 0.13661 0.17162 0.0
C8845 C 0.81763 0.14084 0.17193 0.0
C8846 C 0.82175 0.14311 0.16604 0.0
H8847 H 0.81731 0.1353 0.18195 0.0
H8848 H 0.81191 0.14183 0.1721 0.0
C8849 C 0.82913 0.14149 0.16606 0.0
C8850 C 0.38754 0.56961 0.59428 0.0
C8851 C 0.38649 0.57704 0.59382 0.0
H8852 H 0.39184 0.56084 0.60025 0.0
C8853 C 0.38947 0.58139 0.5992 0.0
H8854 H 0.38528 0.56607 0.59029 0.0
C8855 C 0.39329 0.57838 0.60495 0.0
C8856 C 0.39423 0.57093 0.60547 0.0
H8857 H 0.38891 0.58715 0.59894 0.0
H8858 H 0.39554 0.58189 0.60896 0.0
C8859 C 0.39133 0.5666 0.60001 0.0
C8860 C 0.2028 0.63549 0.34481 0.0
C8861 C 0.19534 0.63528 0.34381 0.0
H8862 H 0.21155 0.6392 0.35123 0.0
C8863 C 0.19095 0.63909 0.3486 0.0
H8864 H 0.20634 0.63259 0.34124 0.0
C8865 C 0.19395 0.64292 0.35434 0.0
C8866 C 0.20141 0.64302 0.35541 0.0
H8867 H 0.1852 0.63916 0.34788 0.0
H8868 H 0.19044 0.64583 0.35791 0.0
C8869 C 0.20579 0.6393 0.35053 0.0
C8870 C 0.32042 0.38551 0.84516 0.0
C8871 C 0.32789 0.38563 0.84419 0.0
H8872 H 0.31156 0.38186 0.85147 0.0
C8873 C 0.33219 0.38174 0.849 0.0
H8874 H 0.31695 0.38848 0.84158 0.0
C8875 C 0.32909 0.37789 0.85469 0.0
C8876 C 0.32161 0.37785 0.8557 0.0
H8877 H 0.33795 0.3816 0.84833 0.0
H8878 H 0.33253 0.37491 0.85826 0.0
C8879 C 0.31733 0.38169 0.85082 0.0
C8880 C 0.92717 0.88559 0.56905 0.0
C8881 C 0.92825 0.88434 0.57638 0.0
H8882 H 0.92089 0.89078 0.56102 0.0
C8883 C 0.92383 0.88789 0.58133 0.0
H8884 H 0.93049 0.88294 0.56511 0.0
C8885 C 0.91839 0.89254 0.579 0.0
C8886 C 0.91718 0.8937 0.57165 0.0
H8887 H 0.92465 0.88714 0.58702 0.0
H8888 H 0.91515 0.89526 0.58296 0.0
C8889 C 0.92169 0.89016 0.56672 0.0
C8890 C 0.88478 0.17722 0.31978 0.0
C8891 C 0.88802 0.17705 0.32656 0.0
H8892 H 0.87819 0.17206 0.31212 0.0
C8893 C 0.88642 0.17125 0.33108 0.0
H8894 H 0.8859 0.18155 0.3161 0.0
C8895 C 0.88172 0.1658 0.32889 0.0
C8896 C 0.87856 0.16585 0.32202 0.0
H8897 H 0.8887 0.17099 0.3364 0.0
H8898 H 0.88057 0.1616 0.33268 0.0
C8899 C 0.88021 0.17172 0.31752 0.0
C8900 C 0.59625 0.13541 0.06906 0.0
C8901 C 0.59514 0.13665 0.07639 0.0
H8902 H 0.60256 0.13024 0.06103 0.0
C8903 C 0.59954 0.13307 0.08134 0.0
H8904 H 0.59294 0.13808 0.06512 0.0
C8905 C 0.60498 0.12842 0.07902 0.0
C8906 C 0.60622 0.1273 0.07167 0.0
H8907 H 0.59869 0.13381 0.08703 0.0
H8908 H 0.6082 0.1257 0.08299 0.0
C8909 C 0.60174 0.13085 0.06674 0.0
C8910 C 0.6382 0.84916 0.8313 0.0
C8911 C 0.63557 0.84409 0.82641 0.0
H8912 H 0.64486 0.85834 0.83303 0.0
C8913 C 0.63782 0.84453 0.81925 0.0
H8914 H 0.63671 0.84887 0.83689 0.0
C8915 C 0.64241 0.85001 0.817 0.0
C8916 C 0.64501 0.85517 0.82186 0.0
H8917 H 0.63589 0.84072 0.81533 0.0
H8918 H 0.64376 0.85028 0.81137 0.0
C8919 C 0.64288 0.8546 0.82907 0.0
C8920 C 0.92727 0.13508 0.95274 0.0
C8921 C 0.92814 0.13659 0.94543 0.0
H8922 H 0.92118 0.12971 0.96079 0.0
C8923 C 0.92349 0.13329 0.94051 0.0
H8924 H 0.93076 0.13753 0.95666 0.0
C8925 C 0.91804 0.12865 0.94286 0.0
C8926 C 0.91706 0.12723 0.9502 0.0
H8927 H 0.92412 0.13423 0.93483 0.0
H8928 H 0.91463 0.12614 0.9389 0.0
C8929 C 0.92179 0.13052 0.95509 0.0
C8930 C 0.63724 0.17616 0.70273 0.0
C8931 C 0.63558 0.17698 0.69545 0.0
H8932 H 0.64274 0.1701 0.71071 0.0
C8933 C 0.63877 0.17231 0.69049 0.0
H8934 H 0.63488 0.17968 0.70669 0.0
C8935 C 0.64344 0.16688 0.69276 0.0
C8936 C 0.64498 0.16592 0.70008 0.0
H8937 H 0.63772 0.17292 0.68482 0.0
H8938 H 0.64586 0.16344 0.68878 0.0
C8939 C 0.64183 0.17069 0.70502 0.0
C8940 C 0.59626 0.88575 0.45278 0.0
C8941 C 0.59525 0.88441 0.44546 0.0
H8942 H 0.60248 0.89096 0.46084 0.0
C8943 C 0.59977 0.88787 0.44053 0.0
H8944 H 0.59286 0.88317 0.45671 0.0
C8945 C 0.60523 0.8925 0.44288 0.0
C8946 C 0.60635 0.89373 0.45023 0.0
H8947 H 0.59902 0.88707 0.43484 0.0
H8948 H 0.60854 0.89513 0.43893 0.0
C8949 C 0.60175 0.89029 0.45514 0.0
C8950 C 0.88574 0.84459 0.20262 0.0
C8951 C 0.88778 0.84406 0.1954 0.0
H8952 H 0.88 0.85041 0.21061 0.0
C8953 C 0.88502 0.84911 0.19055 0.0
H8954 H 0.88777 0.84081 0.20652 0.0
C8955 C 0.88039 0.85458 0.19287 0.0
C8956 C 0.87845 0.85521 0.20013 0.0
H8957 H 0.88636 0.84877 0.18492 0.0
H8958 H 0.87831 0.8583 0.18894 0.0
C8959 C 0.8812 0.85009 0.20496 0.0
C8960 C 0.56994 0.92631 0.88696 0.0
C8961 C 0.57715 0.92682 0.88486 0.0
H8962 H 0.56198 0.92052 0.89276 0.0
C8963 C 0.58203 0.92178 0.8876 0.0
H8964 H 0.56602 0.93008 0.88494 0.0
C8965 C 0.57975 0.91633 0.89225 0.0
C8966 C 0.57249 0.91571 0.89424 0.0
H8967 H 0.58766 0.92211 0.88622 0.0
H8968 H 0.58369 0.91262 0.89431 0.0
C8969 C 0.56763 0.92083 0.89152 0.0
C8970 C 0.84603 0.8187 0.63652 0.0
C8971 C 0.84526 0.82596 0.63481 0.0
H8972 H 0.85206 0.81073 0.64206 0.0
C8973 C 0.84997 0.83091 0.63795 0.0
H8974 H 0.84248 0.81475 0.63419 0.0
C8975 C 0.8554 0.82864 0.64263 0.0
C8976 C 0.85631 0.82133 0.64422 0.0
H8977 H 0.8494 0.83657 0.63686 0.0
H8978 H 0.85888 0.83261 0.645 0.0
C8979 C 0.8515 0.81641 0.64111 0.0
C8980 C 0.95377 0.0959 0.38539 0.0
C8981 C 0.94643 0.09431 0.38492 0.0
H8982 H 0.9619 0.10252 0.39 0.0
C8983 C 0.94161 0.09818 0.38922 0.0
H8984 H 0.9576 0.09298 0.38217 0.0
C8985 C 0.94407 0.1036 0.39383 0.0
C8986 C 0.95142 0.10529 0.39422 0.0
H8987 H 0.93595 0.09695 0.38907 0.0
H8988 H 0.94023 0.10643 0.39712 0.0
C8989 C 0.95622 0.10133 0.38994 0.0
C8990 C 0.67738 0.20224 0.1361 0.0
C8991 C 0.67837 0.19494 0.13468 0.0
H8992 H 0.67117 0.21025 0.1414 0.0
C8993 C 0.67384 0.18998 0.13809 0.0
H8994 H 0.68078 0.20619 0.13356 0.0
C8995 C 0.6684 0.19229 0.14274 0.0
C8996 C 0.66728 0.19962 0.14405 0.0
H8997 H 0.67458 0.18431 0.13722 0.0
H8998 H 0.66508 0.18831 0.14534 0.0
C8999 C 0.67189 0.20456 0.14066 0.0
C9000 C 0.57024 0.0971 0.63789 0.0
C9001 C 0.57705 0.09405 0.63698 0.0
H9002 H 0.56261 0.10484 0.63416 0.0
C9003 C 0.58141 0.09648 0.63135 0.0
H9004 H 0.56675 0.09526 0.64214 0.0
C9005 C 0.57909 0.10201 0.62682 0.0
C9006 C 0.5723 0.10512 0.62777 0.0
H9007 H 0.58663 0.0941 0.63047 0.0
H9008 H 0.58256 0.10381 0.62254 0.0
C9009 C 0.56788 0.10255 0.63331 0.0
C9010 C 0.67365 0.8309 0.38358 0.0
C9011 C 0.67818 0.82598 0.38703 0.0
H9012 H 0.66487 0.83251 0.37632 0.0
C9013 C 0.67717 0.81866 0.38569 0.0
H9014 H 0.6744 0.83658 0.38438 0.0
C9015 C 0.67167 0.81631 0.38115 0.0
C9016 C 0.66706 0.82121 0.37771 0.0
H9017 H 0.68057 0.81473 0.38827 0.0
H9018 H 0.67094 0.81061 0.38048 0.0
C9019 C 0.66819 0.82855 0.37895 0.0
C9020 C 0.95315 0.92671 0.13442 0.0
C9021 C 0.9461 0.92688 0.13707 0.0
H9022 H 0.96101 0.92119 0.12825 0.0
C9023 C 0.94137 0.92143 0.13491 0.0
H9024 H 0.95697 0.93077 0.13599 0.0
C9025 C 0.94364 0.91595 0.13027 0.0
C9026 C 0.95076 0.91567 0.12772 0.0
H9027 H 0.93586 0.92146 0.13671 0.0
H9028 H 0.93977 0.91195 0.12866 0.0
C9029 C 0.95545 0.92119 0.12988 0.0
C9030 C 0.84856 0.19025 0.88245 0.0
C9031 C 0.84511 0.19506 0.88708 0.0
H9032 H 0.85658 0.18875 0.87432 0.0
C9033 C 0.84711 0.20229 0.88693 0.0
H9034 H 0.84699 0.18467 0.88237 0.0
C9035 C 0.85259 0.20462 0.88236 0.0
C9036 C 0.85617 0.19979 0.87779 0.0
H9037 H 0.84449 0.20611 0.89041 0.0
H9038 H 0.85413 0.2102 0.88251 0.0
C9039 C 0.85404 0.19258 0.87785 0.0
C9040 C 0.88849 0.58094 0.92254 0.0
C9041 C 0.88556 0.57602 0.92742 0.0
H9042 H 0.89535 0.58264 0.91348 0.0
C9043 C 0.88748 0.56879 0.92676 0.0
H9044 H 0.88726 0.58658 0.923 0.0
C9045 C 0.89204 0.5665 0.92125 0.0
C9046 C 0.89493 0.5714 0.91628 0.0
H9047 H 0.88532 0.56485 0.93042 0.0
H9048 H 0.89314 0.56084 0.92081 0.0
C9049 C 0.89314 0.57867 0.91707 0.0
C9050 C 0.38856 0.94017 0.09954 0.0
C9051 C 0.38566 0.94504 0.09458 0.0
H9052 H 0.39539 0.93857 0.10864 0.0
C9053 C 0.38759 0.95228 0.09517 0.0
H9054 H 0.38731 0.93453 0.09914 0.0
C9055 C 0.39215 0.95462 0.10065 0.0
C9056 C 0.39503 0.94978 0.10569 0.0
H9057 H 0.38545 0.95618 0.09146 0.0
H9058 H 0.39326 0.96028 0.10102 0.0
C9059 C 0.39321 0.9425 0.10499 0.0
C9060 C 0.83206 0.63686 0.8498 0.0
C9061 C 0.82723 0.63439 0.84457 0.0
H9062 H 0.83371 0.64335 0.85911 0.0
C9063 C 0.82009 0.63678 0.8449 0.0
H9064 H 0.83763 0.63526 0.84962 0.0
C9065 C 0.8178 0.64134 0.8504 0.0
C9066 C 0.8226 0.64378 0.85571 0.0
H9067 H 0.81621 0.63498 0.84099 0.0
H9068 H 0.81219 0.64279 0.85056 0.0
C9069 C 0.82979 0.64151 0.85526 0.0
C9070 C 0.13428 0.08088 0.59813 0.0
C9071 C 0.13778 0.07574 0.59393 0.0
H9072 H 0.12681 0.08302 0.60646 0.0
C9073 C 0.13616 0.06848 0.59506 0.0
H9074 H 0.13524 0.08652 0.59723 0.0
C9075 C 0.13148 0.06641 0.60058 0.0
C9076 C 0.12816 0.07156 0.60499 0.0
H9077 H 0.1387 0.0644 0.59182 0.0
H9078 H 0.1307 0.06075 0.60152 0.0
C9079 C 0.12945 0.07884 0.60347 0.0
C9080 C 0.19122 0.88397 0.84928 0.0
C9081 C 0.19619 0.8867 0.84432 0.0
H9082 H 0.1894 0.87723 0.85835 0.0
C9083 C 0.20338 0.88455 0.84487 0.0
H9084 H 0.18561 0.88539 0.84889 0.0
C9085 C 0.20559 0.87995 0.85036 0.0
C9086 C 0.20065 0.87728 0.8554 0.0
H9087 H 0.20735 0.88655 0.84114 0.0
H9088 H 0.21124 0.87868 0.85074 0.0
C9089 C 0.19341 0.87928 0.85471 0.0
C9090 C 0.63634 0.4522 0.42674 0.0
C9091 C 0.63792 0.44491 0.42766 0.0
H9092 H 0.63091 0.46013 0.42055 0.0
C9093 C 0.63464 0.43992 0.4231 0.0
H9094 H 0.63877 0.45617 0.43019 0.0
C9095 C 0.62997 0.44215 0.41766 0.0
C9096 C 0.62854 0.44946 0.41659 0.0
H9097 H 0.63563 0.43425 0.42379 0.0
H9098 H 0.62748 0.43814 0.41431 0.0
C9099 C 0.63176 0.45445 0.42125 0.0
C9100 C 0.83019 0.37978 0.67641 0.0
C9101 C 0.82704 0.38654 0.67744 0.0
H9102 H 0.83051 0.37016 0.67009 0.0
C9103 C 0.82145 0.38865 0.67287 0.0
H9104 H 0.83447 0.378 0.6799 0.0
C9105 C 0.8191 0.38411 0.66737 0.0
C9106 C 0.8224 0.37745 0.66622 0.0
H9107 H 0.81884 0.39377 0.67361 0.0
H9108 H 0.81474 0.38582 0.66395 0.0
C9109 C 0.82795 0.37531 0.67081 0.0
C9110 C 0.69245 0.63471 0.1707 0.0
C9111 C 0.69613 0.63431 0.17727 0.0
H9112 H 0.69179 0.63916 0.16025 0.0
C9113 C 0.70213 0.63878 0.17815 0.0
H9114 H 0.6877 0.63152 0.1698 0.0
C9115 C 0.70431 0.6435 0.17276 0.0
C9116 C 0.70082 0.64379 0.16604 0.0
H9117 H 0.70526 0.63864 0.18302 0.0
H9118 H 0.70879 0.64687 0.17407 0.0
C9119 C 0.69477 0.6393 0.16518 0.0
C9120 C 0.59899 0.63148 0.9402 0.0
C9121 C 0.59455 0.63577 0.94451 0.0
H9122 H 0.60801 0.62432 0.93976 0.0
C9123 C 0.59588 0.63602 0.95191 0.0
H9124 H 0.59799 0.63107 0.9345 0.0
C9125 C 0.60159 0.63218 0.9549 0.0
C9126 C 0.60611 0.62797 0.95058 0.0
H9127 H 0.59257 0.63929 0.95537 0.0
H9128 H 0.60256 0.63261 0.9606 0.0
C9129 C 0.60471 0.62761 0.9432 0.0
C9130 C 0.63775 0.34398 0.20197 0.0
C9131 C 0.63658 0.34368 0.19454 0.0
H9132 H 0.64218 0.34972 0.21082 0.0
C9133 C 0.63943 0.34921 0.19028 0.0
H9134 H 0.63558 0.33989 0.20545 0.0
C9135 C 0.64328 0.35489 0.19339 0.0
C9136 C 0.64438 0.35521 0.20084 0.0
H9137 H 0.63877 0.34911 0.18453 0.0
H9138 H 0.64544 0.35901 0.18993 0.0
C9139 C 0.64158 0.34964 0.20506 0.0
C9140 C 0.92777 0.38519 0.45189 0.0
C9141 C 0.92892 0.38518 0.44445 0.0
H9142 H 0.92125 0.38879 0.46061 0.0
C9143 C 0.92429 0.38923 0.4401 0.0
H9144 H 0.93122 0.38212 0.45538 0.0
C9145 C 0.91857 0.39309 0.4431 0.0
C9146 C 0.91735 0.393 0.45053 0.0
H9147 H 0.92513 0.38944 0.43437 0.0
H9148 H 0.91512 0.39619 0.43962 0.0
C9149 C 0.92206 0.38904 0.45488 0.0
C9150 C 0.8842 0.67193 0.68999 0.0
C9151 C 0.8869 0.67747 0.69432 0.0
H9152 H 0.87833 0.66206 0.6895 0.0
C9153 C 0.88558 0.67716 0.70173 0.0
H9154 H 0.88497 0.67206 0.68425 0.0
C9155 C 0.88177 0.67144 0.70473 0.0
C9156 C 0.87914 0.66584 0.70043 0.0
H9157 H 0.88763 0.68127 0.70526 0.0
H9158 H 0.88105 0.67134 0.71047 0.0
C9159 C 0.88037 0.66619 0.693 0.0
C9160 C 0.60027 0.38855 0.58148 0.0
C9161 C 0.59491 0.38537 0.57722 0.0
H9162 H 0.60994 0.39479 0.5818 0.0
C9163 C 0.59539 0.3862 0.56975 0.0
H9164 H 0.60002 0.38815 0.58725 0.0
C9165 C 0.60106 0.39001 0.56663 0.0
C9166 C 0.60646 0.39314 0.57086 0.0
H9167 H 0.59144 0.38378 0.56627 0.0
H9168 H 0.60128 0.39036 0.56085 0.0
C9169 C 0.60596 0.39238 0.57835 0.0
C9170 C 0.88557 0.34374 0.82009 0.0
C9171 C 0.88693 0.34344 0.82749 0.0
H9172 H 0.88102 0.34956 0.81136 0.0
C9173 C 0.88428 0.34901 0.83182 0.0
H9174 H 0.88758 0.33962 0.81656 0.0
C9175 C 0.88046 0.35476 0.82882 0.0
C9176 C 0.87918 0.3551 0.8214 0.0
H9177 H 0.88508 0.34889 0.83756 0.0
H9178 H 0.87845 0.35891 0.83232 0.0
C9179 C 0.88177 0.34947 0.8171 0.0
C9180 C 0.92819 0.63479 0.06994 0.0
C9181 C 0.92873 0.63569 0.0774 0.0
H9182 H 0.92218 0.63056 0.06116 0.0
C9183 C 0.92344 0.63256 0.08176 0.0
H9184 H 0.93211 0.63717 0.0664 0.0
C9185 C 0.91771 0.62871 0.07874 0.0
C9186 C 0.91712 0.6279 0.07127 0.0
H9187 H 0.92376 0.63301 0.08752 0.0
H9188 H 0.91377 0.62633 0.08226 0.0
C9189 C 0.92248 0.63097 0.06693 0.0
C9190 C 0.63909 0.67198 0.33183 0.0
C9191 C 0.63646 0.67757 0.32752 0.0
H9192 H 0.64488 0.66206 0.33232 0.0
C9193 C 0.63784 0.67728 0.32012 0.0
H9194 H 0.63827 0.67208 0.33757 0.0
C9195 C 0.64163 0.67155 0.31712 0.0
C9196 C 0.64419 0.6659 0.3214 0.0
H9197 H 0.63586 0.68143 0.3166 0.0
H9198 H 0.6424 0.67147 0.31137 0.0
C9199 C 0.6429 0.66623 0.32882 0.0
C9200 C 0.95274 0.59417 0.63571 0.0
C9201 C 0.94526 0.59332 0.63618 0.0
H9202 H 0.9615 0.60046 0.63184 0.0
C9203 C 0.94086 0.5983 0.63262 0.0
H9204 H 0.95629 0.59048 0.63842 0.0
C9205 C 0.94386 0.60404 0.6288 0.0
C9206 C 0.95134 0.60496 0.62844 0.0
H9207 H 0.93509 0.59772 0.63273 0.0
H9208 H 0.94033 0.60775 0.62609 0.0
C9209 C 0.95573 0.5999 0.63191 0.0
C9210 C 0.67814 0.70152 0.88541 0.0
C9211 C 0.67873 0.69406 0.88613 0.0
H9212 H 0.67215 0.71037 0.8813 0.0
C9213 C 0.67351 0.68975 0.88281 0.0
H9214 H 0.68201 0.70502 0.88794 0.0
C9215 C 0.66782 0.69283 0.87895 0.0
C9216 C 0.66721 0.70031 0.8783 0.0
H9217 H 0.67387 0.68398 0.88312 0.0
H9218 H 0.66394 0.68936 0.87641 0.0
C9219 C 0.67248 0.70459 0.88157 0.0
C9220 C 0.57066 0.4268 0.13588 0.0
C9221 C 0.57812 0.42775 0.13621 0.0
H9222 H 0.56193 0.42042 0.13206 0.0
C9223 C 0.58255 0.42294 0.13247 0.0
H9224 H 0.5671 0.43039 0.13872 0.0
C9225 C 0.57959 0.41723 0.12861 0.0
C9226 C 0.57213 0.4162 0.12841 0.0
H9227 H 0.58831 0.42362 0.13249 0.0
H9228 H 0.58313 0.41363 0.12577 0.0
C9229 C 0.5677 0.4211 0.13204 0.0
C9230 C 0.85009 0.3311 0.38282 0.0
C9231 C 0.84481 0.32683 0.3861 0.0
H9232 H 0.85971 0.33144 0.37647 0.0
C9233 C 0.84536 0.31937 0.38537 0.0
H9234 H 0.84978 0.33687 0.38314 0.0
C9235 C 0.85103 0.31626 0.38155 0.0
C9236 C 0.85636 0.3205 0.37831 0.0
H9237 H 0.84146 0.31588 0.38787 0.0
H9238 H 0.85132 0.31048 0.38127 0.0
C9239 C 0.85579 0.32798 0.37898 0.0
C9240 C 0.94085 0.42282 0.88936 0.0
C9241 C 0.94525 0.42768 0.88565 0.0
H9242 H 0.9403 0.41346 0.89601 0.0
C9243 C 0.95272 0.42673 0.88597 0.0
H9244 H 0.93509 0.4235 0.88934 0.0
C9245 C 0.9557 0.421 0.88977 0.0
C9246 C 0.9513 0.41606 0.89339 0.0
H9247 H 0.95627 0.43034 0.88315 0.0
H9248 H 0.96147 0.42035 0.88975 0.0
C9249 C 0.94383 0.41708 0.89318 0.0
C9250 C 0.84961 0.68966 0.13912 0.0
C9251 C 0.84455 0.69403 0.13564 0.0
H9252 H 0.8591 0.68915 0.14562 0.0
C9253 C 0.84533 0.70149 0.13618 0.0
H9254 H 0.84909 0.6839 0.13894 0.0
C9255 C 0.85105 0.70449 0.13999 0.0
C9256 C 0.85618 0.70014 0.14341 0.0
H9257 H 0.84158 0.70503 0.13353 0.0
H9258 H 0.85155 0.71026 0.14013 0.0
C9259 C 0.85534 0.69267 0.14296 0.0
C9260 C 0.57253 0.59265 0.38991 0.0
C9261 C 0.57853 0.59359 0.38545 0.0
H9262 H 0.56531 0.59698 0.3974 0.0
C9263 C 0.58147 0.60052 0.38502 0.0
H9264 H 0.56991 0.58752 0.39037 0.0
C9265 C 0.57841 0.60629 0.38879 0.0
C9266 C 0.57239 0.60535 0.3933 0.0
H9267 H 0.58617 0.60154 0.38179 0.0
H9268 H 0.5808 0.61149 0.38801 0.0
C9269 C 0.56968 0.59831 0.39388 0.0
C9270 C 0.67845 0.31961 0.6364 0.0
C9271 C 0.67907 0.32706 0.63558 0.0
H9272 H 0.67233 0.31088 0.64056 0.0
C9273 C 0.67389 0.33146 0.63882 0.0
H9274 H 0.68231 0.31604 0.63394 0.0
C9275 C 0.66817 0.3285 0.64267 0.0
C9276 C 0.66747 0.32104 0.64335 0.0
H9277 H 0.67429 0.33722 0.63843 0.0
H9278 H 0.66429 0.33204 0.64512 0.0
C9279 C 0.67273 0.31664 0.64022 0.0
C9280 C 0.63617 0.95135 0.59423 0.0
C9281 C 0.63701 0.94391 0.59364 0.0
H9282 H 0.63201 0.9601 0.60033 0.0
C9283 C 0.63383 0.93952 0.59887 0.0
H9284 H 0.63858 0.95491 0.59035 0.0
C9285 C 0.63001 0.94251 0.60461 0.0
C9286 C 0.62929 0.94997 0.60527 0.0
H9287 H 0.63424 0.93376 0.59849 0.0
H9288 H 0.6276 0.93898 0.60852 0.0
C9289 C 0.63237 0.95434 0.59997 0.0
C9290 C 0.13435 0.58143 0.4224 0.0
C9291 C 0.13694 0.5771 0.428 0.0
H9292 H 0.12858 0.58194 0.41247 0.0
C9293 C 0.13551 0.56971 0.42773 0.0
H9294 H 0.1352 0.58715 0.4225 0.0
C9295 C 0.13172 0.56674 0.42199 0.0
C9296 C 0.12921 0.57104 0.41634 0.0
H9297 H 0.13747 0.56619 0.43188 0.0
H9298 H 0.13092 0.561 0.42192 0.0
C9299 C 0.13054 0.57844 0.41665 0.0
C9300 C 0.69105 0.88343 0.67187 0.0
C9301 C 0.69523 0.88567 0.67773 0.0
H9302 H 0.69071 0.87791 0.6618 0.0
C9303 C 0.70257 0.88393 0.67772 0.0
H9304 H 0.68535 0.88455 0.67173 0.0
C9305 C 0.70564 0.88013 0.67203 0.0
C9306 C 0.70149 0.87791 0.66614 0.0
H9307 H 0.70601 0.88563 0.68206 0.0
H9308 H 0.71134 0.87908 0.6722 0.0
C9309 C 0.69412 0.8796 0.66616 0.0
C9310 C 0.38794 0.45108 0.92792 0.0
C9311 C 0.38642 0.44372 0.9283 0.0
H9312 H 0.39262 0.45963 0.92192 0.0
C9313 C 0.389 0.43925 0.92282 0.0
H9314 H 0.38601 0.4547 0.93201 0.0
C9315 C 0.39285 0.44207 0.91704 0.0
C9316 C 0.3942 0.44945 0.91656 0.0
H9317 H 0.3881 0.43353 0.92303 0.0
H9318 H 0.39477 0.43846 0.91294 0.0
C9319 C 0.39176 0.45391 0.92213 0.0
C9320 C 0.32211 0.63939 0.67859 0.0
C9321 C 0.32828 0.63516 0.67762 0.0
H9322 H 0.31452 0.64652 0.67435 0.0
C9323 C 0.33122 0.63493 0.67068 0.0
H9324 H 0.31947 0.63967 0.68374 0.0
C9325 C 0.32805 0.63869 0.66494 0.0
C9326 C 0.32185 0.64297 0.66591 0.0
H9327 H 0.33603 0.63189 0.66962 0.0
H9328 H 0.33053 0.63811 0.65977 0.0
C9329 C 0.31908 0.64329 0.67297 0.0
C9330 C 0.88269 0.073 0.09918 0.0
C9331 C 0.8863 0.07673 0.09374 0.0
H9332 H 0.88359 0.06719 0.10906 0.0
C9333 C 0.8938 0.07738 0.09415 0.0
H9334 H 0.87694 0.07228 0.09892 0.0
C9335 C 0.8976 0.07448 0.09994 0.0
C9336 C 0.89396 0.07088 0.10546 0.0
H9337 H 0.89672 0.08024 0.09004 0.0
H9338 H 0.90336 0.07512 0.10017 0.0
C9339 C 0.88649 0.0701 0.10497 0.0
C9340 C 0.69084 0.13784 0.84958 0.0
C9341 C 0.69516 0.13528 0.84394 0.0
H9342 H 0.69035 0.14358 0.85953 0.0
C9343 C 0.70255 0.13673 0.84419 0.0
H9344 H 0.68511 0.13696 0.84951 0.0
C9345 C 0.70555 0.14053 0.84992 0.0
C9346 C 0.70127 0.14303 0.85561 0.0
H9347 H 0.70608 0.1348 0.84002 0.0
H9348 H 0.7113 0.14135 0.84996 0.0
C9349 C 0.69385 0.14166 0.85533 0.0
C9350 C 0.82064 0.88581 0.34512 0.0
C9351 C 0.82807 0.88573 0.34391 0.0
H9352 H 0.8119 0.88229 0.35168 0.0
C9353 C 0.83241 0.8816 0.34849 0.0
H9354 H 0.81715 0.88894 0.34171 0.0
C9355 C 0.82939 0.87775 0.3542 0.0
C9356 C 0.82196 0.87793 0.35547 0.0
H9357 H 0.83814 0.88131 0.3476 0.0
H9358 H 0.83287 0.87459 0.3576 0.0
C9359 C 0.81763 0.88197 0.35082 0.0
C9360 C 0.42713 0.38576 0.06901 0.0
C9361 C 0.42813 0.38441 0.07633 0.0
H9362 H 0.42093 0.391 0.06096 0.0
C9363 C 0.42361 0.38787 0.08127 0.0
H9364 H 0.43052 0.38317 0.06508 0.0
C9365 C 0.41817 0.39252 0.07892 0.0
C9366 C 0.41706 0.39377 0.07157 0.0
H9367 H 0.42436 0.38706 0.08695 0.0
H9368 H 0.41486 0.39516 0.08288 0.0
C9369 C 0.42166 0.39032 0.06666 0.0
C9370 C 0.39035 0.6697 0.82608 0.0
C9371 C 0.38791 0.67684 0.82636 0.0
H9372 H 0.38791 0.65873 0.82375 0.0
C9373 C 0.38071 0.67813 0.82438 0.0
H9374 H 0.39584 0.66838 0.82737 0.0
C9375 C 0.3762 0.67255 0.82215 0.0
C9376 C 0.37864 0.66545 0.82194 0.0
H9377 H 0.37843 0.68343 0.82466 0.0
H9378 H 0.37073 0.67382 0.82067 0.0
C9379 C 0.38578 0.6641 0.82398 0.0
C9380 C 0.09749 0.63686 0.56919 0.0
C9381 C 0.09514 0.63666 0.57632 0.0
H9382 H 0.10474 0.63266 0.56136 0.0
C9383 C 0.09823 0.63168 0.58103 0.0
H9384 H 0.09514 0.64061 0.56545 0.0
C9385 C 0.10372 0.62709 0.5787 0.0
C9386 C 0.10617 0.62736 0.57159 0.0
H9387 H 0.09638 0.63133 0.58651 0.0
H9388 H 0.106 0.6233 0.58243 0.0
C9389 C 0.10295 0.63228 0.56686 0.0
C9390 C 0.13736 0.34481 0.31912 0.0
C9391 C 0.13565 0.34409 0.32641 0.0
H9392 H 0.14284 0.35079 0.31107 0.0
C9393 C 0.13874 0.34891 0.33129 0.0
H9394 H 0.13507 0.3412 0.31521 0.0
C9395 C 0.14337 0.35437 0.32894 0.0
C9396 C 0.14497 0.35521 0.32162 0.0
H9397 H 0.13765 0.34841 0.33696 0.0
H9398 H 0.1457 0.35791 0.33288 0.0
C9399 C 0.1419 0.35031 0.31676 0.0
C9400 C 0.42465 0.63189 0.44072 0.0
C9401 C 0.42811 0.63656 0.4455 0.0
H9402 H 0.41663 0.62376 0.43931 0.0
C9403 C 0.4261 0.63647 0.45273 0.0
H9404 H 0.42623 0.63176 0.43515 0.0
C9405 C 0.42062 0.63192 0.45511 0.0
C9406 C 0.41704 0.6273 0.45033 0.0
H9407 H 0.42871 0.63998 0.45653 0.0
H9408 H 0.41909 0.63211 0.4607 0.0
C9409 C 0.41917 0.62732 0.44311 0.0
C9410 C 0.13734 0.67645 0.20259 0.0
C9411 C 0.13549 0.67719 0.19534 0.0
H9412 H 0.14298 0.67042 0.2105 0.0
C9413 C 0.1385 0.67242 0.19036 0.0
H9414 H 0.13512 0.68004 0.20656 0.0
C9415 C 0.14317 0.66697 0.19259 0.0
C9416 C 0.14488 0.66609 0.19987 0.0
H9417 H 0.13731 0.67296 0.18472 0.0
H9418 H 0.14545 0.66347 0.18858 0.0
C9419 C 0.14192 0.67095 0.20483 0.0
C9420 C 0.09715 0.38449 0.95272 0.0
C9421 C 0.09517 0.38433 0.94548 0.0
H9422 H 0.10413 0.38892 0.96067 0.0
C9423 C 0.09865 0.38894 0.94067 0.0
H9424 H 0.09452 0.38103 0.95655 0.0
C9425 C 0.10412 0.39354 0.94303 0.0
C9426 C 0.10622 0.39362 0.95026 0.0
H9427 H 0.0971 0.38901 0.93509 0.0
H9428 H 0.10668 0.39706 0.9392 0.0
C9429 C 0.10262 0.38906 0.95507 0.0
C9430 C 0.38427 0.34774 0.6904 0.0
C9431 C 0.38776 0.34355 0.69556 0.0
H9432 H 0.37691 0.35622 0.68828 0.0
C9433 C 0.38627 0.34478 0.70282 0.0
H9434 H 0.38516 0.34676 0.68476 0.0
C9435 C 0.38166 0.35035 0.70488 0.0
C9436 C 0.37832 0.35473 0.69971 0.0
H9437 H 0.38883 0.34158 0.70692 0.0
H9438 H 0.38095 0.35135 0.71054 0.0
C9439 C 0.37954 0.35318 0.69244 0.0
C9440 C 0.07037 0.42693 0.38774 0.0
C9441 C 0.07728 0.42686 0.38474 0.0
H9442 H 0.06257 0.42166 0.39413 0.0
C9443 C 0.08184 0.42114 0.38655 0.0
H9444 H 0.06666 0.43119 0.38646 0.0
C9445 C 0.07956 0.41567 0.3912 0.0
C9446 C 0.07258 0.41564 0.39412 0.0
H9447 H 0.08726 0.42095 0.38446 0.0
H9448 H 0.08335 0.4115 0.39252 0.0
C9449 C 0.06805 0.42142 0.39227 0.0
C9450 C 0.34584 0.31878 0.13643 0.0
C9451 C 0.34505 0.32605 0.1347 0.0
H9452 H 0.35192 0.31084 0.14197 0.0
C9453 C 0.34976 0.33101 0.13782 0.0
H9454 H 0.34229 0.31482 0.13412 0.0
C9455 C 0.3552 0.32876 0.14249 0.0
C9456 C 0.35614 0.32146 0.14408 0.0
H9457 H 0.34918 0.33667 0.13672 0.0
H9458 H 0.35866 0.33276 0.14485 0.0
C9459 C 0.35134 0.31651 0.14101 0.0
C9460 C 0.45361 0.59556 0.88568 0.0
C9461 C 0.44629 0.59407 0.88485 0.0
H9462 H 0.46157 0.60218 0.89057 0.0
C9463 C 0.4413 0.59803 0.88886 0.0
H9464 H 0.45757 0.59256 0.88268 0.0
C9465 C 0.44358 0.60347 0.89351 0.0
C9466 C 0.4509 0.60511 0.89422 0.0
H9467 H 0.43563 0.59687 0.88843 0.0
H9468 H 0.4396 0.60638 0.89656 0.0
C9469 C 0.45589 0.60103 0.89026 0.0
C9470 C 0.17779 0.7022 0.63662 0.0
C9471 C 0.17874 0.69498 0.63474 0.0
H9472 H 0.17147 0.70991 0.64226 0.0
C9473 C 0.17423 0.68985 0.63786 0.0
H9474 H 0.18124 0.70628 0.63436 0.0
C9475 C 0.1688 0.69187 0.6426 0.0
C9476 C 0.16755 0.69913 0.64421 0.0
H9477 H 0.17496 0.68423 0.63668 0.0
H9478 H 0.16554 0.68771 0.64495 0.0
C9479 C 0.17223 0.70426 0.64124 0.0
C9480 C 0.08216 0.59904 0.13456 0.0
C9481 C 0.07728 0.59392 0.13712 0.0
H9482 H 0.0839 0.60825 0.12798 0.0
C9483 C 0.07011 0.59436 0.13485 0.0
H9484 H 0.08776 0.59876 0.13607 0.0
C9485 C 0.06785 0.59987 0.13029 0.0
C9486 C 0.07272 0.60507 0.12776 0.0
H9487 H 0.06619 0.59052 0.13672 0.0
H9488 H 0.06222 0.60014 0.12892 0.0
C9489 C 0.07993 0.6045 0.12991 0.0
C9490 C 0.17459 0.33083 0.88343 0.0
C9491 C 0.17874 0.3257 0.88699 0.0
H9492 H 0.16631 0.33294 0.87589 0.0
C9493 C 0.17755 0.31843 0.88547 0.0
H9494 H 0.17554 0.33647 0.88431 0.0
C9495 C 0.17203 0.31633 0.8808 0.0
C9496 C 0.16766 0.32147 0.87741 0.0
H9497 H 0.18076 0.31436 0.88806 0.0
H9498 H 0.17104 0.31068 0.88009 0.0
C9499 C 0.16926 0.32876 0.8786 0.0
C9500 C 0.44901 0.42045 0.63985 0.0
C9501 C 0.44646 0.42693 0.63697 0.0
H9502 H 0.45315 0.40992 0.63776 0.0
C9503 C 0.44625 0.4276 0.62944 0.0
H9504 H 0.44943 0.41975 0.64559 0.0
C9505 C 0.4485 0.422 0.62497 0.0
C9506 C 0.45089 0.4155 0.62789 0.0
H9507 H 0.44424 0.43243 0.62697 0.0
H9508 H 0.44827 0.4227 0.61923 0.0
C9509 C 0.45116 0.41481 0.63537 0.0
C9510 C 0.34583 0.70221 0.38516 0.0
C9511 C 0.34519 0.69497 0.38705 0.0
H9512 H 0.35175 0.71018 0.37951 0.0
C9513 C 0.35009 0.69006 0.38411 0.0
H9514 H 0.34216 0.70613 0.38734 0.0
C9515 C 0.35554 0.69235 0.37945 0.0
C9516 C 0.3563 0.69963 0.37767 0.0
H9517 H 0.34964 0.68442 0.38533 0.0
H9518 H 0.35914 0.68839 0.37723 0.0
C9519 C 0.35132 0.70451 0.38059 0.0
C9520 C 0.38482 0.069 0.42447 0.0
C9521 C 0.38561 0.07586 0.4274 0.0
H9522 H 0.38866 0.06136 0.41681 0.0
C9523 C 0.39116 0.08027 0.4249 0.0
H9524 H 0.38064 0.06547 0.42639 0.0
C9525 C 0.39572 0.07796 0.41939 0.0
C9526 C 0.39488 0.07113 0.41637 0.0
H9527 H 0.39195 0.08553 0.4272 0.0
H9528 H 0.39994 0.08147 0.41753 0.0
C9529 C 0.38943 0.06665 0.41903 0.0
C9530 C 0.88892 0.44012 0.59912 0.0
C9531 C 0.88562 0.44504 0.59448 0.0
H9532 H 0.89607 0.4385 0.60797 0.0
C9533 C 0.88714 0.45234 0.59536 0.0
H9534 H 0.88797 0.43444 0.59847 0.0
C9535 C 0.8917 0.45468 0.60084 0.0
C9536 C 0.89498 0.44978 0.60556 0.0
H9537 H 0.88469 0.45627 0.59187 0.0
H9538 H 0.89251 0.46038 0.60146 0.0
C9539 C 0.89357 0.44245 0.60456 0.0
C9540 C 0.32163 0.13224 0.34915 0.0
C9541 C 0.32703 0.13447 0.34442 0.0
H9542 H 0.31506 0.13496 0.35821 0.0
C9543 C 0.33 0.14134 0.34531 0.0
H9544 H 0.31916 0.12704 0.34853 0.0
C9545 C 0.32776 0.1458 0.35092 0.0
C9546 C 0.3224 0.14354 0.35568 0.0
H9547 H 0.33414 0.14321 0.3417 0.0
H9548 H 0.33016 0.15104 0.35152 0.0
C9549 C 0.31929 0.13677 0.35467 0.0
C9550 C 0.63458 0.58091 0.09845 0.0
C9551 C 0.63774 0.57578 0.09398 0.0
H9552 H 0.62738 0.58307 0.10701 0.0
C9553 C 0.63585 0.56856 0.0949 0.0
H9554 H 0.63574 0.58653 0.09772 0.0
C9555 C 0.63121 0.56649 0.10045 0.0
C9556 C 0.62821 0.57161 0.10512 0.0
H9557 H 0.63813 0.56449 0.09147 0.0
H9558 H 0.63021 0.56084 0.10121 0.0
C9559 C 0.62978 0.57888 0.10382 0.0
C9560 C 0.69931 0.38936 0.35092 0.0
C9561 C 0.69648 0.38648 0.34456 0.0
H9562 H 0.70371 0.38728 0.36136 0.0
C9563 C 0.69602 0.37896 0.34399 0.0
H9564 H 0.69991 0.39509 0.35154 0.0
C9565 C 0.6983 0.3745 0.34959 0.0
C9566 C 0.70099 0.37742 0.35598 0.0
H9567 H 0.6938 0.3765 0.33925 0.0
H9568 H 0.69789 0.36875 0.34897 0.0
C9569 C 0.7015 0.38489 0.35656 0.0
C9570 C 0.13686 0.95233 0.92613 0.0
C9571 C 0.1378 0.945 0.92743 0.0
H9572 H 0.13194 0.96039 0.91967 0.0
C9573 C 0.13396 0.94009 0.92322 0.0
H9574 H 0.13974 0.95624 0.92929 0.0
C9575 C 0.12934 0.94245 0.91777 0.0
C9576 C 0.1285 0.9498 0.91635 0.0
H9577 H 0.13446 0.93441 0.92422 0.0
H9578 H 0.1264 0.93852 0.91469 0.0
C9579 C 0.13232 0.9547 0.92064 0.0
C9580 C 0.31978 0.88547 0.17611 0.0
C9581 C 0.32713 0.88656 0.17732 0.0
H9582 H 0.31173 0.88046 0.1697 0.0
C9583 C 0.33208 0.88284 0.17303 0.0
H9584 H 0.31584 0.88825 0.17934 0.0
C9585 C 0.32973 0.87823 0.16757 0.0
C9586 C 0.32237 0.87726 0.16622 0.0
H9587 H 0.33777 0.88346 0.17395 0.0
H9588 H 0.33369 0.8754 0.16442 0.0
C9589 C 0.31744 0.88094 0.17061 0.0
C9590 C 0.19765 0.14168 0.67834 0.0
C9591 C 0.1964 0.13433 0.67716 0.0
H9592 H 0.20079 0.1518 0.67391 0.0
C9593 C 0.19743 0.13169 0.67017 0.0
H9594 H 0.19681 0.14404 0.68356 0.0
C9595 C 0.19955 0.13624 0.66457 0.0
C9596 C 0.20081 0.14355 0.66578 0.0
H9597 H 0.1967 0.12607 0.669 0.0
H9598 H 0.20037 0.13397 0.6593 0.0
C9599 C 0.19988 0.1462 0.67276 0.0
C9600 C 0.09097 0.18276 0.38815 0.0
C9601 C 0.08685 0.1864 0.39325 0.0
H9602 H 0.09864 0.18343 0.3797 0.0
C9603 C 0.08694 0.19392 0.39324 0.0
H9604 H 0.09102 0.17697 0.38805 0.0
C9605 C 0.09148 0.19769 0.38854 0.0
C9606 C 0.09603 0.194 0.38376 0.0
H9607 H 0.08385 0.19686 0.39717 0.0
H9608 H 0.09177 0.20345 0.38898 0.0
C9609 C 0.09541 0.18649 0.38342 0.0
C9610 C 0.08475 0.8349 0.63697 0.0
C9611 C 0.08484 0.83666 0.64432 0.0
H9612 H 0.08121 0.83793 0.62639 0.0
C9613 C 0.08047 0.84235 0.64664 0.0
H9614 H 0.08803 0.83056 0.63497 0.0
C9615 C 0.07665 0.84653 0.64177 0.0
C9616 C 0.07693 0.84509 0.63442 0.0
H9617 H 0.08023 0.84378 0.65225 0.0
H9618 H 0.07371 0.85113 0.64373 0.0
C9619 C 0.08085 0.83911 0.63205 0.0
C9620 C 0.43246 0.83825 0.88815 0.0
C9621 C 0.43661 0.83459 0.89322 0.0
H9622 H 0.42477 0.8376 0.87973 0.0
C9623 C 0.43656 0.82707 0.89315 0.0
H9624 H 0.43238 0.84404 0.8881 0.0
C9625 C 0.43202 0.82331 0.88844 0.0
C9626 C 0.42744 0.82702 0.88371 0.0
H9627 H 0.43968 0.82412 0.89705 0.0
H9628 H 0.43176 0.81755 0.88884 0.0
C9629 C 0.42803 0.83453 0.88341 0.0
C9630 C 0.43975 0.18633 0.13759 0.0
C9631 C 0.43825 0.18374 0.14453 0.0
H9632 H 0.4445 0.18409 0.12727 0.0
C9633 C 0.44122 0.1771 0.14651 0.0
H9634 H 0.43762 0.19142 0.13584 0.0
C9635 C 0.44497 0.17291 0.14161 0.0
C9636 C 0.44611 0.17528 0.1346 0.0
H9637 H 0.44049 0.17499 0.15185 0.0
H9638 H 0.44683 0.16768 0.14326 0.0
C9639 C 0.44368 0.18214 0.13266 0.0
C9640 C 0.08694 0.82705 0.12885 0.0
C9641 C 0.08678 0.83457 0.12874 0.0
H9642 H 0.09195 0.81762 0.13315 0.0
C9643 C 0.09091 0.83831 0.13376 0.0
H9644 H 0.08383 0.82403 0.125 0.0
C9645 C 0.09547 0.83469 0.13846 0.0
C9646 C 0.0962 0.82719 0.13816 0.0
H9647 H 0.09091 0.84411 0.13378 0.0
H9648 H 0.09872 0.83783 0.14208 0.0
C9649 C 0.0916 0.82339 0.13354 0.0
C9650 C 0.43513 0.84426 0.37881 0.0
C9651 C 0.4371 0.83709 0.37778 0.0
H9652 H 0.43727 0.8542 0.38383 0.0
C9653 C 0.4427 0.83429 0.382 0.0
H9654 H 0.43076 0.84659 0.37579 0.0
C9655 C 0.44642 0.83871 0.38688 0.0
C9656 C 0.44457 0.84599 0.38768 0.0
H9657 H 0.44434 0.82878 0.38136 0.0
H9658 H 0.45077 0.83645 0.38998 0.0
C9659 C 0.43883 0.84863 0.38357 0.0
C9660 C 0.4336 0.19384 0.62625 0.0
C9661 C 0.43657 0.18719 0.62812 0.0
H9662 H 0.42678 0.20256 0.62936 0.0
C9663 C 0.43543 0.18458 0.63508 0.0
H9664 H 0.43433 0.19594 0.6209 0.0
C9665 C 0.43098 0.1883 0.63988 0.0
C9666 C 0.42772 0.19479 0.63788 0.0
H9667 H 0.43756 0.17942 0.63663 0.0
H9668 H 0.42982 0.18594 0.64504 0.0
C9669 C 0.4293 0.19764 0.6311 0.0
C9670 C 0.08217 0.17706 0.87525 0.0
C9671 C 0.08506 0.18374 0.87721 0.0
H9672 H 0.07672 0.16755 0.87854 0.0
C9673 C 0.0835 0.18633 0.88415 0.0
H9674 H 0.0829 0.17494 0.86991 0.0
C9675 C 0.07965 0.18208 0.88909 0.0
C9676 C 0.07733 0.17519 0.88718 0.0
H9677 H 0.08555 0.19145 0.88589 0.0
H9678 H 0.07881 0.18404 0.89448 0.0
C9679 C 0.07849 0.17283 0.88017 0.0
C9680 C 0.39403 0.08568 0.19433 0.0
C9681 C 0.39405 0.08557 0.1868 0.0
H9682 H 0.38975 0.09054 0.20384 0.0
C9683 C 0.38895 0.08967 0.18313 0.0
H9684 H 0.39795 0.0826 0.19728 0.0
C9685 C 0.38422 0.09412 0.18685 0.0
C9686 C 0.38455 0.09477 0.19436 0.0
H9687 H 0.38887 0.0897 0.17734 0.0
H9688 H 0.38051 0.09734 0.18377 0.0
C9689 C 0.38931 0.09023 0.19808 0.0
C9690 C 0.18431 0.14457 0.44456 0.0
C9691 C 0.18661 0.14303 0.43755 0.0
H9692 H 0.17788 0.1413 0.45351 0.0
C9693 C 0.18468 0.13645 0.4345 0.0
H9694 H 0.18565 0.14965 0.447 0.0
C9695 C 0.18013 0.13173 0.43817 0.0
C9696 C 0.17748 0.13344 0.44502 0.0
H9697 H 0.18629 0.13518 0.42908 0.0
H9698 H 0.1784 0.12689 0.43551 0.0
C9699 C 0.17987 0.13978 0.44829 0.0
C9700 C 0.13448 0.93114 0.68307 0.0
C9701 C 0.12952 0.93534 0.68683 0.0
H9702 H 0.14275 0.92327 0.68356 0.0
C9703 C 0.1297 0.93526 0.69435 0.0
H9704 H 0.13445 0.93108 0.67727 0.0
C9705 C 0.13439 0.9306 0.69802 0.0
C9706 C 0.13894 0.92593 0.69421 0.0
H9707 H 0.1259 0.93842 0.69738 0.0
H9708 H 0.13405 0.93031 0.70379 0.0
C9709 C 0.13918 0.92658 0.6867 0.0
C9710 C 0.34566 0.87817 0.93448 0.0
C9711 C 0.33841 0.87731 0.93628 0.0
H9712 H 0.35562 0.88315 0.93674 0.0
C9713 C 0.33549 0.88172 0.94165 0.0
H9714 H 0.34808 0.87499 0.93028 0.0
C9715 C 0.33988 0.88664 0.94534 0.0
C9716 C 0.34723 0.88728 0.94367 0.0
H9717 H 0.32991 0.88121 0.94315 0.0
H9718 H 0.33753 0.8899 0.94951 0.0
C9719 C 0.35 0.88299 0.93814 0.0
C9720 C 0.38894 0.93113 0.33867 0.0
C9721 C 0.39398 0.93532 0.33502 0.0
H9722 H 0.38054 0.92342 0.33801 0.0
C9723 C 0.39391 0.93529 0.32749 0.0
H9724 H 0.38889 0.93104 0.34447 0.0
C9725 C 0.38921 0.93075 0.32372 0.0
C9726 C 0.3845 0.92614 0.32742 0.0
H9727 H 0.39779 0.93843 0.32455 0.0
H9728 H 0.38961 0.93051 0.31795 0.0
C9729 C 0.38421 0.92669 0.33494 0.0
C9730 C 0.33908 0.13673 0.58765 0.0
C9731 C 0.33671 0.14307 0.58442 0.0
H9732 H 0.34558 0.12731 0.5867 0.0
C9733 C 0.33855 0.14436 0.57724 0.0
H9734 H 0.33784 0.13566 0.59322 0.0
C9735 C 0.34295 0.13955 0.57347 0.0
C9736 C 0.34574 0.13344 0.57686 0.0
H9737 H 0.33688 0.14927 0.57466 0.0
H9738 H 0.34458 0.14089 0.56807 0.0
C9739 C 0.34355 0.13198 0.58393 0.0
C9740 C 0.12708 0.08866 0.82754 0.0
C9741 C 0.12896 0.08576 0.83423 0.0
H9742 H 0.13018 0.09539 0.81876 0.0
C9743 C 0.13591 0.08698 0.83686 0.0
H9744 H 0.12174 0.08787 0.82543 0.0
C9745 C 0.1407 0.09142 0.8331 0.0
C9746 C 0.13869 0.09458 0.82657 0.0
H9747 H 0.13748 0.08491 0.84204 0.0
H9748 H 0.14586 0.09263 0.83547 0.0
C9749 C 0.13192 0.09295 0.82372 0.0
C9750 C 0.18605 0.87784 0.07728 0.0
C9751 C 0.18669 0.87819 0.08477 0.0
H9752 H 0.18069 0.88183 0.0679 0.0
C9753 C 0.18304 0.88362 0.08844 0.0
H9754 H 0.18875 0.87365 0.07433 0.0
C9755 C 0.17848 0.88831 0.08479 0.0
C9756 C 0.17731 0.88763 0.07737 0.0
H9757 H 0.1834 0.88397 0.09421 0.0
H9758 H 0.17557 0.89226 0.08788 0.0
C9759 C 0.18143 0.88254 0.0736 0.0
C9760 C 0.19542 0.39415 0.08755 0.0
C9761 C 0.18815 0.393 0.08594 0.0
H9762 H 0.20466 0.39061 0.09344 0.0
C9763 C 0.18482 0.38681 0.08856 0.0
H9764 H 0.19808 0.39894 0.08568 0.0
C9765 C 0.18854 0.38208 0.09305 0.0
C9766 C 0.19571 0.38342 0.09503 0.0
H9767 H 0.17919 0.38585 0.08749 0.0
H9768 H 0.1857 0.37753 0.09524 0.0
C9769 C 0.19918 0.38937 0.09199 0.0
C9770 C 0.69516 0.12595 0.93293 0.0
C9771 C 0.6884 0.12776 0.93574 0.0
H9772 H 0.70398 0.12909 0.92624 0.0
C9773 C 0.68567 0.13464 0.9344 0.0
H9774 H 0.69734 0.12066 0.93381 0.0
C9775 C 0.68941 0.13941 0.92994 0.0
C9776 C 0.69602 0.13747 0.92685 0.0
H9777 H 0.68044 0.13614 0.9364 0.0
H9778 H 0.68697 0.14451 0.92863 0.0
C9779 C 0.69896 0.13078 0.92861 0.0
C9780 C 0.13944 0.43237 0.18096 0.0
C9781 C 0.14393 0.43613 0.18564 0.0
H9782 H 0.13151 0.43283 0.17277 0.0
C9783 C 0.14324 0.44361 0.18604 0.0
H9784 H 0.13983 0.4266 0.18056 0.0
C9785 C 0.13857 0.44728 0.18136 0.0
C9786 C 0.1345 0.44351 0.17622 0.0
H9787 H 0.14665 0.44664 0.1896 0.0
H9788 H 0.13853 0.45306 0.18146 0.0
C9789 C 0.13473 0.43598 0.17641 0.0
C9790 C 0.82854 0.89539 0.43224 0.0
C9791 C 0.83496 0.89336 0.43561 0.0
H9792 H 0.81998 0.89238 0.42516 0.0
C9793 C 0.83728 0.88624 0.43492 0.0
H9794 H 0.82665 0.90085 0.43263 0.0
C9795 C 0.83353 0.88141 0.43052 0.0
C9796 C 0.82728 0.88357 0.42688 0.0
H9797 H 0.84225 0.88453 0.43738 0.0
H9798 H 0.83568 0.8761 0.4297 0.0
C9799 C 0.8247 0.89053 0.42798 0.0
C9800 C 0.88405 0.08852 0.18091 0.0
C9801 C 0.87946 0.08484 0.18557 0.0
H9802 H 0.89208 0.08788 0.17282 0.0
C9803 C 0.88003 0.07736 0.18601 0.0
H9804 H 0.88373 0.09428 0.18046 0.0
C9805 C 0.88472 0.0736 0.18144 0.0
C9806 C 0.88892 0.07727 0.17635 0.0
H9807 H 0.87652 0.07439 0.18954 0.0
H9808 H 0.88468 0.06781 0.18157 0.0
C9809 C 0.88877 0.08481 0.17645 0.0
C9810 C 0.32982 0.62482 0.59201 0.0
C9811 C 0.33475 0.62723 0.58682 0.0
H9812 H 0.32263 0.6276 0.60051 0.0
C9813 C 0.33531 0.63465 0.58566 0.0
H9814 H 0.32913 0.61916 0.59299 0.0
C9815 C 0.3315 0.63952 0.58999 0.0
C9816 C 0.32697 0.63703 0.59547 0.0
H9817 H 0.33905 0.63671 0.58173 0.0
H9818 H 0.33237 0.6452 0.58931 0.0
C9819 C 0.32603 0.62965 0.59628 0.0
C9820 C 0.14272 0.57783 0.33549 0.0
C9821 C 0.1441 0.58514 0.33658 0.0
H9822 H 0.13745 0.5684 0.33938 0.0
C9823 C 0.14026 0.58876 0.34191 0.0
H9824 H 0.14562 0.57491 0.33141 0.0
C9825 C 0.13547 0.58513 0.34634 0.0
C9826 C 0.13455 0.57766 0.34579 0.0
H9827 H 0.14118 0.59441 0.34283 0.0
H9828 H 0.1327 0.58819 0.3504 0.0
C9829 C 0.13801 0.57411 0.34007 0.0
C9830 C 0.38 0.44318 0.83588 0.0
C9831 C 0.37937 0.43574 0.83655 0.0
H9832 H 0.3847 0.45279 0.84003 0.0
C9833 C 0.38378 0.43216 0.84148 0.0
H9834 H 0.3766 0.44607 0.83219 0.0
C9835 C 0.38842 0.43596 0.84595 0.0
C9836 C 0.38873 0.44346 0.84568 0.0
H9837 H 0.38338 0.42641 0.84209 0.0
H9838 H 0.3916 0.43301 0.8498 0.0
C9839 C 0.38464 0.44701 0.8404 0.0
C9840 C 0.9321 0.83799 0.63243 0.0
C9841 C 0.93606 0.83363 0.62779 0.0
H9842 H 0.92484 0.83862 0.64122 0.0
C9843 C 0.93609 0.8262 0.62899 0.0
H9844 H 0.932 0.84373 0.63166 0.0
C9845 C 0.93175 0.82319 0.63439 0.0
C9846 C 0.92734 0.82755 0.63871 0.0
H9847 H 0.93909 0.82271 0.62547 0.0
H9848 H 0.93152 0.81742 0.63485 0.0
C9849 C 0.9279 0.83502 0.63787 0.0
C9850 C 0.94645 0.18275 0.37727 0.0
C9851 C 0.93928 0.18505 0.37771 0.0
H9852 H 0.95486 0.17647 0.382 0.0
C9853 C 0.93529 0.18323 0.38381 0.0
H9854 H 0.94961 0.18398 0.37257 0.0
C9855 C 0.93824 0.17886 0.38916 0.0
C9856 C 0.94529 0.17622 0.38857 0.0
H9857 H 0.92973 0.18484 0.38423 0.0
H9858 H 0.93489 0.17728 0.39362 0.0
C9859 C 0.94945 0.17845 0.38268 0.0
C9860 C 0.59097 0.18313 0.13273 0.0
C9861 C 0.5873 0.18748 0.12784 0.0
H9862 H 0.59802 0.18253 0.14168 0.0
C9863 C 0.58759 0.19493 0.12875 0.0
H9864 H 0.59084 0.17736 0.13215 0.0
C9865 C 0.59191 0.19797 0.13415 0.0
C9866 C 0.59602 0.19359 0.13874 0.0
H9867 H 0.58484 0.19842 0.12502 0.0
H9868 H 0.59238 0.20373 0.1344 0.0
C9869 C 0.59517 0.18612 0.13814 0.0
C9870 C 0.5894 0.84092 0.88192 0.0
C9871 C 0.58506 0.8364 0.87779 0.0
H9872 H 0.59008 0.84854 0.89034 0.0
C9873 C 0.57776 0.83582 0.87957 0.0
H9874 H 0.59506 0.84142 0.88074 0.0
C9875 C 0.57477 0.84017 0.88498 0.0
C9876 C 0.57905 0.84513 0.88876 0.0
H9877 H 0.57428 0.83236 0.87648 0.0
H9878 H 0.56904 0.83995 0.88587 0.0
C9879 C 0.58648 0.8451 0.88739 0.0
C9880 C 0.93761 0.19048 0.88906 0.0
C9881 C 0.93413 0.18776 0.89525 0.0
H9882 H 0.93648 0.19535 0.87862 0.0
C9883 C 0.92656 0.18835 0.8954 0.0
H9884 H 0.94337 0.19031 0.88853 0.0
C9885 C 0.92272 0.1913 0.88976 0.0
C9886 C 0.92615 0.19374 0.88358 0.0
H9887 H 0.92331 0.18644 0.89974 0.0
H9888 H 0.91694 0.19158 0.89023 0.0
C9889 C 0.93367 0.19345 0.88331 0.0
C9890 C 0.58947 0.17914 0.64075 0.0
C9891 C 0.58528 0.18429 0.64424 0.0
H9892 H 0.59015 0.1711 0.63276 0.0
C9893 C 0.57824 0.18545 0.64182 0.0
H9894 H 0.59495 0.1782 0.64242 0.0
C9895 C 0.5753 0.1811 0.6364 0.0
C9896 C 0.57938 0.17557 0.63322 0.0
H9897 H 0.5749 0.18942 0.64439 0.0
H9898 H 0.56972 0.18184 0.63502 0.0
C9899 C 0.58663 0.17496 0.63525 0.0
C9900 C 0.58611 0.83366 0.38754 0.0
C9901 C 0.58794 0.8325 0.39478 0.0
H9902 H 0.58899 0.8319 0.37648 0.0
C9903 C 0.59362 0.82777 0.39627 0.0
H9904 H 0.58179 0.83726 0.38616 0.0
C9905 C 0.59772 0.82478 0.39077 0.0
C9906 C 0.5962 0.82629 0.38359 0.0
H9907 H 0.59512 0.82659 0.40174 0.0
H9908 H 0.60231 0.82151 0.39215 0.0
C9909 C 0.59023 0.8306 0.38199 0.0
C9910 C 0.94443 0.84238 0.14631 0.0
C9911 C 0.93967 0.83673 0.14478 0.0
H9912 H 0.95074 0.85104 0.14225 0.0
C9913 C 0.93849 0.83498 0.13752 0.0
H9914 H 0.94562 0.84382 0.15179 0.0
C9915 C 0.94157 0.83912 0.132 0.0
C9916 C 0.94592 0.84504 0.13364 0.0
H9917 H 0.93486 0.83069 0.13611 0.0
H9918 H 0.94025 0.83793 0.12649 0.0
C9919 C 0.94745 0.84649 0.14084 0.0
C9920 C 0.6331 0.93047 0.83846 0.0
C9921 C 0.62862 0.93465 0.83413 0.0
H9922 H 0.64175 0.92306 0.83905 0.0
C9923 C 0.62999 0.9349 0.82673 0.0
H9924 H 0.63219 0.93021 0.84418 0.0
C9925 C 0.63539 0.93057 0.82369 0.0
C9926 C 0.63955 0.92595 0.828 0.0
H9927 H 0.62661 0.93808 0.82326 0.0
H9928 H 0.63599 0.93053 0.81793 0.0
C9929 C 0.63853 0.92628 0.83547 0.0
C9930 C 0.83992 0.88296 0.58779 0.0
C9931 C 0.83724 0.87735 0.58358 0.0
H9932 H 0.84631 0.89245 0.58823 0.0
C9933 C 0.8386 0.87744 0.57618 0.0
H9934 H 0.83902 0.88298 0.59351 0.0
C9935 C 0.84287 0.88286 0.57312 0.0
C9936 C 0.84593 0.88825 0.57742 0.0
H9937 H 0.83669 0.87312 0.57283 0.0
H9938 H 0.84414 0.88254 0.56748 0.0
C9939 C 0.84416 0.88835 0.58475 0.0
C9940 C 0.89412 0.09431 0.33686 0.0
C9941 C 0.89551 0.08739 0.33431 0.0
H9942 H 0.88822 0.10393 0.3359 0.0
C9943 C 0.89096 0.08461 0.32897 0.0
H9944 H 0.89737 0.09661 0.34108 0.0
C9945 C 0.88538 0.08883 0.32607 0.0
C9946 C 0.88421 0.09591 0.32846 0.0
H9947 H 0.89184 0.07927 0.3269 0.0
H9948 H 0.88203 0.08655 0.32192 0.0
C9949 C 0.88868 0.09851 0.33395 0.0
C9950 C 0.68579 0.14275 0.07647 0.0
C9951 C 0.68612 0.14361 0.08394 0.0
H9952 H 0.68097 0.13715 0.06765 0.0
C9953 C 0.68247 0.1387 0.08827 0.0
H9954 H 0.68851 0.14651 0.073 0.0
C9955 C 0.67826 0.13329 0.08525 0.0
C9956 C 0.6774 0.13273 0.07778 0.0
H9957 H 0.68263 0.13922 0.09404 0.0
H9958 H 0.67544 0.12972 0.08884 0.0
C9959 C 0.68146 0.13737 0.07341 0.0
C9960 C 0.63334 0.09016 0.68346 0.0
C9961 C 0.62869 0.0862 0.68782 0.0
H9962 H 0.64212 0.09742 0.68285 0.0
C9963 C 0.62986 0.08619 0.69525 0.0
H9964 H 0.63258 0.09024 0.67772 0.0
C9965 C 0.63525 0.09052 0.69828 0.0
C9966 C 0.6396 0.09492 0.69393 0.0
H9967 H 0.62632 0.0832 0.69874 0.0
H9968 H 0.6357 0.09076 0.70405 0.0
C9969 C 0.63876 0.09436 0.68645 0.0
C9970 C 0.68617 0.87869 0.44512 0.0
C9971 C 0.686 0.87736 0.43771 0.0
H9972 H 0.68172 0.88465 0.4539 0.0
C9973 C 0.68188 0.88187 0.43336 0.0
H9974 H 0.6893 0.87528 0.4486 0.0
C9975 C 0.67768 0.8873 0.43633 0.0
C9976 C 0.67726 0.88827 0.4438 0.0
H9977 H 0.68168 0.88101 0.42763 0.0
H9978 H 0.67452 0.89055 0.43273 0.0
C9979 C 0.68182 0.88408 0.44814 0.0
C9980 C 0.89392 0.93447 0.19543 0.0
C9981 C 0.89473 0.93489 0.18796 0.0
H9982 H 0.88835 0.92956 0.20422 0.0
C9983 C 0.88975 0.93134 0.18361 0.0
H9984 H 0.89772 0.93713 0.19891 0.0
C9985 C 0.88434 0.92712 0.18661 0.0
C9986 C 0.88384 0.92614 0.19408 0.0
H9987 H 0.89025 0.93157 0.17784 0.0
H9988 H 0.88073 0.92437 0.18302 0.0
C9989 C 0.88853 0.93014 0.19846 0.0
C9990 C 0.84072 0.13851 0.9337 0.0
C9991 C 0.83727 0.14357 0.93803 0.0
H9992 H 0.84762 0.12944 0.93312 0.0
C9993 C 0.83781 0.14287 0.94551 0.0
H9994 H 0.84041 0.13894 0.92793 0.0
C9995 C 0.84214 0.13748 0.94855 0.0
C9996 C 0.84602 0.13269 0.94416 0.0
H9997 H 0.83524 0.14674 0.94898 0.0
H9998 H 0.8428 0.13737 0.9543 0.0
C9999 C 0.84494 0.13311 0.93671 0.0
C10000 C 0.83935 0.63014 0.9292 0.0
C10001 C 0.83526 0.627 0.93464 0.0
H10002 H 0.84016 0.63792 0.92106 0.0
C10003 C 0.82842 0.62981 0.93605 0.0
H10004 H 0.84471 0.62821 0.92808 0.0
C10005 C 0.82552 0.63524 0.93166 0.0
C10006 C 0.82947 0.63809 0.92584 0.0
H10007 H 0.82517 0.62755 0.94028 0.0
H10008 H 0.82007 0.6369 0.93267 0.0
C10009 C 0.8366 0.63568 0.92503 0.0
C10010 C 0.33337 0.8877 0.08499 0.0
C10011 C 0.33393 0.89469 0.08784 0.0
H10012 H 0.33018 0.87675 0.0869 0.0
C10013 C 0.33084 0.89598 0.0946 0.0
H10014 H 0.33561 0.88647 0.0798 0.0
C10015 C 0.32796 0.89043 0.09867 0.0
C10016 C 0.32779 0.88342 0.09605 0.0
H10017 H 0.33083 0.90128 0.09691 0.0
H10018 H 0.32599 0.89161 0.10399 0.0
C10019 C 0.33029 0.88212 0.08906 0.0
C10020 C 0.88426 0.58166 0.83502 0.0
C10021 C 0.87746 0.58289 0.83813 0.0
H10022 H 0.89511 0.5779 0.83662 0.0
C10023 C 0.8764 0.58049 0.84521 0.0
H10024 H 0.88536 0.58332 0.82959 0.0
C10025 C 0.88201 0.57768 0.84925 0.0
C10026 C 0.88885 0.57681 0.8463 0.0
H10027 H 0.87122 0.58089 0.84779 0.0
H10028 H 0.881 0.57623 0.85477 0.0
C10029 C 0.88989 0.57858 0.83905 0.0
C10030 C 0.19628 0.12826 0.58702 0.0
C10031 C 0.1888 0.12745 0.5866 0.0
H10032 H 0.20509 0.13382 0.59195 0.0
C10033 C 0.18445 0.13241 0.59018 0.0
H10034 H 0.19977 0.12449 0.58434 0.0
C10035 C 0.18745 0.13779 0.59442 0.0
C10036 C 0.19493 0.1383 0.5954 0.0
H10037 H 0.17867 0.13192 0.58994 0.0
H10038 H 0.18384 0.14139 0.59718 0.0
C10039 C 0.19932 0.13363 0.59138 0.0
C10040 C 0.14027 0.93295 0.84069 0.0
C10041 C 0.14482 0.93731 0.83662 0.0
H10042 H 0.13154 0.9323 0.84801 0.0
C10043 C 0.1435 0.94471 0.83648 0.0
H10044 H 0.14112 0.92722 0.84086 0.0
C10045 C 0.13808 0.94772 0.84082 0.0
C10046 C 0.13386 0.94337 0.84535 0.0
H10047 H 0.14693 0.94821 0.83339 0.0
H10048 H 0.13753 0.95348 0.84096 0.0
C10049 C 0.13482 0.93591 0.84488 0.0
C10050 C 0.69576 0.39521 0.43107 0.0
C10051 C 0.68952 0.39394 0.4351 0.0
H10052 H 0.70348 0.39102 0.42363 0.0
C10053 C 0.68665 0.38698 0.43514 0.0
H10054 H 0.69808 0.40052 0.43088 0.0
C10055 C 0.68968 0.38156 0.43085 0.0
C10056 C 0.69576 0.38294 0.42661 0.0
H10057 H 0.6818 0.38585 0.43811 0.0
H10058 H 0.6871 0.37638 0.43063 0.0
C10059 C 0.69888 0.38976 0.42694 0.0
C10060 C 0.87986 0.44485 0.68524 0.0
C10061 C 0.87867 0.43742 0.68526 0.0
H10062 H 0.88571 0.45361 0.68062 0.0
C10063 C 0.88333 0.43305 0.68132 0.0
H10064 H 0.87633 0.44835 0.68822 0.0
C10065 C 0.88876 0.436 0.67711 0.0
C10066 C 0.88959 0.44347 0.6765 0.0
H10067 H 0.88256 0.42731 0.68126 0.0
H10068 H 0.89212 0.43238 0.67408 0.0
C10069 C 0.88526 0.44785 0.68089 0.0
C10070 C 0.64127 0.58799 0.17889 0.0
C10071 C 0.64504 0.58413 0.18415 0.0
H10072 H 0.63331 0.58786 0.17064 0.0
C10073 C 0.64314 0.57697 0.18536 0.0
H10074 H 0.64256 0.59355 0.17789 0.0
C10075 C 0.63787 0.57366 0.18111 0.0
C10076 C 0.63434 0.57743 0.17558 0.0
H10077 H 0.64597 0.57384 0.18933 0.0
H10078 H 0.63682 0.56803 0.18197 0.0
C10079 C 0.636 0.58471 0.17468 0.0
C10080 C 0.58655 0.69362 0.8924 0.0
C10081 C 0.58699 0.68615 0.89313 0.0
H10082 H 0.59109 0.70308 0.88766 0.0
C10083 C 0.59173 0.68239 0.88868 0.0
H10084 H 0.58294 0.69665 0.89577 0.0
C10085 C 0.59629 0.68601 0.88398 0.0
C10086 C 0.59642 0.69354 0.88372 0.0
H10087 H 0.59217 0.67663 0.88911 0.0
H10088 H 0.59997 0.68286 0.8808 0.0
C10089 C 0.59123 0.69729 0.88773 0.0
C10090 C 0.58091 0.33431 0.13976 0.0
C10091 C 0.58642 0.33715 0.14406 0.0
H10092 H 0.57296 0.3364 0.13168 0.0
C10093 C 0.58834 0.34434 0.14309 0.0
H10094 H 0.57931 0.32878 0.14035 0.0
C10095 C 0.58468 0.3487 0.13828 0.0
C10096 C 0.57902 0.34601 0.13411 0.0
H10097 H 0.59265 0.34669 0.14618 0.0
H10098 H 0.58618 0.35428 0.13805 0.0
C10099 C 0.57723 0.33871 0.13485 0.0
C10100 C 0.9364 0.32697 0.39308 0.0
C10101 C 0.9366 0.33449 0.39311 0.0
H10102 H 0.93137 0.31753 0.38883 0.0
C10103 C 0.93252 0.3382 0.38803 0.0
H10104 H 0.93946 0.32397 0.39698 0.0
C10105 C 0.92798 0.33456 0.38334 0.0
C10106 C 0.92722 0.32707 0.38369 0.0
H10107 H 0.93256 0.344 0.38795 0.0
H10108 H 0.92477 0.33768 0.37966 0.0
C10109 C 0.93176 0.32328 0.38839 0.0
C10110 C 0.94197 0.68664 0.63924 0.0
C10111 C 0.93746 0.68351 0.64444 0.0
H10112 H 0.94912 0.68486 0.63032 0.0
C10113 C 0.93673 0.67602 0.64441 0.0
H10114 H 0.94268 0.69238 0.63906 0.0
C10115 C 0.94049 0.67179 0.63957 0.0
C10116 C 0.94499 0.67483 0.63438 0.0
H10117 H 0.93318 0.67334 0.64811 0.0
H10118 H 0.93986 0.66605 0.63995 0.0
C10119 C 0.94572 0.68234 0.63427 0.0
C10120 C 0.59513 0.33773 0.62942 0.0
C10121 C 0.58815 0.33535 0.62795 0.0
H10122 H 0.60501 0.33592 0.63466 0.0
C10123 C 0.58551 0.32943 0.63176 0.0
H10124 H 0.5973 0.34235 0.62669 0.0
C10125 C 0.58995 0.32577 0.63666 0.0
C10126 C 0.59712 0.32794 0.63781 0.0
H10127 H 0.58014 0.32748 0.63078 0.0
H10128 H 0.58778 0.32118 0.63944 0.0
C10129 C 0.59955 0.33406 0.63416 0.0
C10130 C 0.93732 0.3451 0.87702 0.0
C10131 C 0.93758 0.33757 0.87719 0.0
H10132 H 0.94085 0.355 0.88136 0.0
C10133 C 0.94171 0.33435 0.88266 0.0
H10134 H 0.93404 0.34794 0.87319 0.0
C10135 C 0.94548 0.33857 0.88769 0.0
C10136 C 0.94518 0.34608 0.88736 0.0
H10137 H 0.9421 0.32859 0.88304 0.0
H10138 H 0.94853 0.33596 0.89187 0.0
C10139 C 0.94114 0.34924 0.88188 0.0
C10140 C 0.93646 0.69394 0.12861 0.0
C10141 C 0.93658 0.68642 0.12862 0.0
H10142 H 0.93161 0.70347 0.13286 0.0
C10143 C 0.93248 0.68278 0.13375 0.0
H10144 H 0.93952 0.69687 0.12466 0.0
C10145 C 0.92804 0.68651 0.13847 0.0
C10146 C 0.9274 0.69402 0.13811 0.0
H10147 H 0.93245 0.67699 0.13385 0.0
H10148 H 0.92483 0.68346 0.1422 0.0
C10149 C 0.93192 0.69771 0.13332 0.0
C10150 C 0.58078 0.68664 0.38205 0.0
C10151 C 0.58628 0.6838 0.37773 0.0
H10152 H 0.57278 0.68453 0.39011 0.0
C10153 C 0.58812 0.67658 0.37863 0.0
H10154 H 0.57923 0.69219 0.38151 0.0
C10155 C 0.58441 0.67221 0.38338 0.0
C10156 C 0.57878 0.67491 0.3876 0.0
H10157 H 0.59242 0.67421 0.37553 0.0
H10158 H 0.58587 0.66662 0.38356 0.0
C10159 C 0.57704 0.68223 0.38692 0.0
C10160 C 0.89393 0.58565 0.69433 0.0
C10161 C 0.89402 0.58563 0.6868 0.0
H10162 H 0.8896 0.59045 0.70386 0.0
C10163 C 0.88897 0.58979 0.68313 0.0
H10164 H 0.89781 0.58252 0.69728 0.0
C10165 C 0.88423 0.59423 0.68685 0.0
C10166 C 0.88452 0.5948 0.69437 0.0
H10167 H 0.88894 0.58989 0.67734 0.0
H10168 H 0.88057 0.5975 0.68378 0.0
C10169 C 0.88921 0.5902 0.69809 0.0
C10170 C 0.68304 0.63731 0.93344 0.0
C10171 C 0.68665 0.64282 0.93703 0.0
H10172 H 0.67571 0.62857 0.93415 0.0
C10173 C 0.68603 0.64326 0.94451 0.0
H10174 H 0.68336 0.6369 0.92767 0.0
C10175 C 0.68152 0.63854 0.94828 0.0
C10176 C 0.67749 0.63332 0.9446 0.0
H10177 H 0.68869 0.64753 0.94739 0.0
H10178 H 0.68082 0.6393 0.95397 0.0
C10179 C 0.67858 0.63259 0.93717 0.0
C10180 C 0.6344 0.43106 0.18302 0.0
C10181 C 0.62952 0.43534 0.18679 0.0
H10182 H 0.64263 0.42315 0.18349 0.0
C10183 C 0.62978 0.43533 0.19431 0.0
H10184 H 0.63431 0.43096 0.17723 0.0
C10185 C 0.63447 0.43067 0.19797 0.0
C10186 C 0.63895 0.42593 0.19416 0.0
H10187 H 0.62604 0.43856 0.19735 0.0
H10188 H 0.6342 0.43043 0.20375 0.0
C10189 C 0.63911 0.42651 0.18664 0.0
C10190 C 0.83737 0.37764 0.44448 0.0
C10191 C 0.83674 0.37808 0.43699 0.0
H10192 H 0.8426 0.3816 0.45393 0.0
C10193 C 0.84034 0.38359 0.43341 0.0
H10194 H 0.83472 0.37337 0.44736 0.0
C10195 C 0.8448 0.38832 0.43714 0.0
C10196 C 0.84591 0.38759 0.44456 0.0
H10197 H 0.84 0.38402 0.42763 0.0
H10198 H 0.84766 0.39235 0.43412 0.0
C10199 C 0.84189 0.38236 0.44824 0.0
C10200 C 0.8889 0.43121 0.83867 0.0
C10201 C 0.89396 0.43535 0.83499 0.0
H10202 H 0.88049 0.42351 0.83804 0.0
C10203 C 0.89388 0.4353 0.82747 0.0
H10204 H 0.88885 0.43114 0.84447 0.0
C10205 C 0.88917 0.43075 0.82372 0.0
C10206 C 0.88446 0.42616 0.82744 0.0
H10207 H 0.89778 0.43841 0.82451 0.0
H10208 H 0.88957 0.43047 0.81795 0.0
C10209 C 0.88416 0.42676 0.83496 0.0
C10210 C 0.83747 0.64347 0.07727 0.0
C10211 C 0.83668 0.64292 0.08473 0.0
H10212 H 0.84282 0.63955 0.06786 0.0
C10213 C 0.8401 0.63728 0.0883 0.0
H10214 H 0.83495 0.64783 0.07441 0.0
C10215 C 0.84456 0.63254 0.08459 0.0
C10216 C 0.84583 0.63337 0.0772 0.0
H10217 H 0.83964 0.63678 0.09406 0.0
H10218 H 0.8473 0.62841 0.08759 0.0
C10219 C 0.84197 0.63871 0.07353 0.0
C10220 C 0.63101 0.58495 0.32845 0.0
C10221 C 0.62922 0.58629 0.33562 0.0
H10222 H 0.63658 0.58862 0.31912 0.0
C10223 C 0.63269 0.59187 0.33921 0.0
H10224 H 0.62843 0.58064 0.32557 0.0
C10225 C 0.63754 0.59629 0.33564 0.0
C10226 C 0.63884 0.59552 0.32824 0.0
H10227 H 0.63148 0.59296 0.34477 0.0
H10228 H 0.64008 0.60043 0.33876 0.0
C10229 C 0.63573 0.58956 0.32477 0.0
C10230 C 0.68535 0.37719 0.57713 0.0
C10231 C 0.68671 0.37811 0.58447 0.0
H10232 H 0.67952 0.38082 0.5679 0.0
C10233 C 0.68377 0.38408 0.58795 0.0
H10234 H 0.68747 0.37257 0.57435 0.0
C10235 C 0.6792 0.38877 0.5843 0.0
C10236 C 0.6774 0.3876 0.57707 0.0
H10237 H 0.68466 0.38486 0.59363 0.0
H10238 H 0.67678 0.39313 0.58725 0.0
C10239 C 0.68079 0.38192 0.57344 0.0
C10240 C 0.68682 0.88612 0.5865 0.0
C10241 C 0.68865 0.89342 0.58641 0.0
H10242 H 0.68873 0.87581 0.59131 0.0
C10243 C 0.69463 0.89565 0.59041 0.0
H10244 H 0.68222 0.88423 0.58353 0.0
C10245 C 0.69842 0.89084 0.59474 0.0
C10246 C 0.69627 0.88367 0.59524 0.0
H10247 H 0.69619 0.90123 0.59046 0.0
H10248 H 0.70273 0.89282 0.59806 0.0
C10249 C 0.69054 0.8813 0.59095 0.0
C10250 C 0.19245 0.63171 0.43714 0.0
C10251 C 0.18714 0.62721 0.43422 0.0
H10252 H 0.20028 0.63995 0.43512 0.0
C10253 C 0.18547 0.62796 0.42693 0.0
H10254 H 0.19385 0.6313 0.44275 0.0
C10255 C 0.18917 0.63276 0.4226 0.0
C10256 C 0.1946 0.63717 0.42539 0.0
H10257 H 0.18133 0.62473 0.42449 0.0
H10258 H 0.18784 0.63286 0.41696 0.0
C10259 C 0.19617 0.63662 0.43276 0.0
C10260 C 0.64379 0.94367 0.68578 0.0
C10261 C 0.64397 0.93616 0.68572 0.0
H10262 H 0.63937 0.9532 0.68109 0.0
C10263 C 0.63899 0.93248 0.68148 0.0
H10264 H 0.64763 0.94663 0.68897 0.0
C10265 C 0.63422 0.93619 0.67707 0.0
C10266 C 0.6344 0.94371 0.67661 0.0
H10267 H 0.63903 0.92669 0.68132 0.0
H10268 H 0.6306 0.93312 0.67375 0.0
C10269 C 0.63905 0.94742 0.68127 0.0
C10270 C 0.33472 0.38659 0.93654 0.0
C10271 C 0.33482 0.39394 0.93483 0.0
H10272 H 0.33122 0.37604 0.93339 0.0
C10273 C 0.3305 0.3963 0.92912 0.0
H10274 H 0.33796 0.38456 0.9409 0.0
C10275 C 0.32671 0.39146 0.92487 0.0
C10276 C 0.327 0.3841 0.92624 0.0
H10277 H 0.33028 0.40191 0.92772 0.0
H10278 H 0.32381 0.39345 0.92026 0.0
C10279 C 0.33086 0.3817 0.93225 0.0
C10280 C 0.38318 0.58879 0.68002 0.0
C10281 C 0.37929 0.58516 0.6853 0.0
H10282 H 0.39077 0.58819 0.67155 0.0
C10283 C 0.3806 0.57784 0.68635 0.0
H10284 H 0.38231 0.59445 0.67913 0.0
C10285 C 0.3853 0.5741 0.68177 0.0
C10286 C 0.38881 0.57766 0.67609 0.0
H10287 H 0.37766 0.57492 0.69041 0.0
H10288 H 0.38583 0.56838 0.68242 0.0
C10289 C 0.38796 0.58513 0.67558 0.0
C10290 C 0.8385 0.13431 0.08846 0.0
C10291 C 0.83515 0.12809 0.08592 0.0
H10292 H 0.83771 0.14357 0.09518 0.0
C10293 C 0.82792 0.1269 0.08769 0.0
H10294 H 0.84409 0.1353 0.08726 0.0
C10295 C 0.82423 0.13165 0.09222 0.0
C10296 C 0.82775 0.13761 0.0952 0.0
H10297 H 0.82525 0.12209 0.08589 0.0
H10298 H 0.8188 0.13037 0.0938 0.0
C10299 C 0.83485 0.13901 0.09304 0.0
C10300 C 0.63984 0.0887 0.84147 0.0
C10301 C 0.64406 0.08508 0.83642 0.0
H10302 H 0.63211 0.088 0.84983 0.0
C10303 C 0.64314 0.07767 0.83561 0.0
H10304 H 0.64042 0.09442 0.84219 0.0
C10305 C 0.63848 0.07389 0.84018 0.0
C10306 C 0.63464 0.07746 0.84562 0.0
H10307 H 0.64636 0.07475 0.83178 0.0
H10308 H 0.63825 0.06812 0.83973 0.0
C10309 C 0.63514 0.08497 0.84593 0.0
C10310 C 0.88359 0.93219 0.34193 0.0
C10311 C 0.87934 0.93566 0.33678 0.0
H10312 H 0.89126 0.93322 0.35039 0.0
C10313 C 0.88005 0.94308 0.33594 0.0
H10314 H 0.88314 0.92647 0.34268 0.0
C10315 C 0.88463 0.94699 0.34044 0.0
C10316 C 0.88861 0.94356 0.34588 0.0
H10317 H 0.87677 0.9459 0.33208 0.0
H10318 H 0.88477 0.95275 0.33989 0.0
C10319 C 0.88817 0.93607 0.34641 0.0
C10320 C 0.43646 0.32671 0.12952 0.0
C10321 C 0.43577 0.33397 0.1277 0.0
H10322 H 0.43246 0.318 0.13584 0.0
C10323 C 0.43111 0.33825 0.13174 0.0
H10324 H 0.44002 0.32328 0.12648 0.0
C10325 C 0.4269 0.33531 0.13717 0.0
C10326 C 0.42705 0.32792 0.13863 0.0
H10327 H 0.43052 0.34388 0.13051 0.0
H10328 H 0.42333 0.33884 0.14006 0.0
C10329 C 0.43212 0.3237 0.13491 0.0
C10330 C 0.44312 0.6773 0.87521 0.0
C10331 C 0.43954 0.68377 0.87666 0.0
H10332 H 0.44839 0.66805 0.87939 0.0
C10333 C 0.43958 0.68631 0.88378 0.0
H10334 H 0.44349 0.67525 0.8698 0.0
C10335 C 0.44265 0.68219 0.88932 0.0
C10336 C 0.44567 0.67546 0.88783 0.0
H10337 H 0.43693 0.69127 0.88513 0.0
H10338 H 0.44235 0.68409 0.89479 0.0
C10339 C 0.44601 0.67317 0.8807 0.0
C10340 C 0.08742 0.69426 0.629 0.0
C10341 C 0.08807 0.68692 0.62758 0.0
H10342 H 0.09134 0.70323 0.63497 0.0
C10343 C 0.0928 0.68284 0.63178 0.0
H10344 H 0.08388 0.69755 0.62579 0.0
C10345 C 0.09707 0.68606 0.63703 0.0
C10346 C 0.09675 0.69347 0.63822 0.0
H10347 H 0.09339 0.67716 0.63081 0.0
H10348 H 0.10074 0.68275 0.64006 0.0
C10349 C 0.09172 0.6975 0.63425 0.0
C10350 C 0.07746 0.33995 0.37635 0.0
C10351 C 0.0839 0.33621 0.37751 0.0
H10352 H 0.06958 0.34716 0.38063 0.0
C10353 C 0.08701 0.33648 0.38437 0.0
H10354 H 0.07498 0.33991 0.37111 0.0
C10355 C 0.08399 0.34076 0.38978 0.0
C10356 C 0.07769 0.34471 0.38851 0.0
H10357 H 0.09202 0.33374 0.3854 0.0
H10358 H 0.08673 0.34122 0.39487 0.0
C10359 C 0.07435 0.34408 0.3818 0.0
C10360 C 0.43262 0.68321 0.38893 0.0
C10361 C 0.43614 0.68756 0.39394 0.0
H10362 H 0.42568 0.68262 0.37989 0.0
C10363 C 0.4357 0.69502 0.39315 0.0
H10364 H 0.43286 0.67745 0.38942 0.0
C10365 C 0.43138 0.69805 0.38774 0.0
C10366 C 0.42742 0.69367 0.38303 0.0
H10367 H 0.43832 0.69849 0.39697 0.0
H10368 H 0.43079 0.70381 0.38758 0.0
C10369 C 0.42842 0.68621 0.38351 0.0
C10370 C 0.08793 0.67682 0.14321 0.0
C10371 C 0.08524 0.68367 0.1447 0.0
H10372 H 0.08707 0.66723 0.13729 0.0
C10373 C 0.07976 0.68637 0.14028 0.0
H10374 H 0.09227 0.6746 0.14636 0.0
C10375 C 0.07686 0.68214 0.13472 0.0
C10376 C 0.07936 0.6751 0.13346 0.0
H10377 H 0.07758 0.69165 0.14124 0.0
H10378 H 0.07263 0.68439 0.13147 0.0
C10379 C 0.085 0.6726 0.13781 0.0
C10380 C 0.08731 0.32688 0.89244 0.0
C10381 C 0.08842 0.33408 0.89422 0.0
H10382 H 0.09078 0.31791 0.8862 0.0
C10383 C 0.09358 0.33798 0.89034 0.0
H10384 H 0.08342 0.32372 0.89537 0.0
C10385 C 0.09779 0.33468 0.88508 0.0
C10386 C 0.09698 0.32737 0.88353 0.0
H10387 H 0.09451 0.34356 0.89156 0.0
H10388 H 0.10176 0.33786 0.88231 0.0
C10389 C 0.09155 0.32356 0.88718 0.0
C10390 C 0.44334 0.3346 0.63987 0.0
C10391 C 0.43853 0.33761 0.64487 0.0
H10392 H 0.44998 0.33638 0.63057 0.0
C10393 C 0.43657 0.34481 0.64397 0.0
H10394 H 0.44496 0.32907 0.64035 0.0
C10395 C 0.43948 0.34897 0.63851 0.0
C10396 C 0.44437 0.34609 0.63355 0.0
H10397 H 0.43276 0.34732 0.64754 0.0
H10398 H 0.43797 0.35455 0.63831 0.0
C10399 C 0.44626 0.33881 0.63429 0.0
C10400 C 0.13412 0.43222 0.33781 0.0
C10401 C 0.1286 0.43502 0.33356 0.0
H10402 H 0.14354 0.42572 0.33832 0.0
C10403 C 0.12881 0.4338 0.32614 0.0
H10404 H 0.13406 0.43302 0.34355 0.0
C10405 C 0.13422 0.4295 0.32311 0.0
C10406 C 0.1395 0.42628 0.32745 0.0
H10407 H 0.12456 0.43582 0.32275 0.0
H10408 H 0.13398 0.42831 0.31744 0.0
C10409 C 0.13952 0.42797 0.3348 0.0
C10410 C 0.33839 0.37757 0.07619 0.0
C10411 C 0.33716 0.37737 0.08361 0.0
H10412 H 0.34388 0.38272 0.06748 0.0
C10413 C 0.33997 0.38289 0.08785 0.0
H10414 H 0.33637 0.37333 0.0728 0.0
C10415 C 0.34422 0.38827 0.08484 0.0
C10416 C 0.34591 0.38825 0.07748 0.0
H10417 H 0.33916 0.38283 0.09359 0.0
H10418 H 0.34646 0.39229 0.08836 0.0
C10419 C 0.34269 0.38297 0.07315 0.0
C10420 C 0.38993 0.58995 0.83828 0.0
C10421 C 0.39471 0.58617 0.83389 0.0
H10422 H 0.38107 0.59711 0.83895 0.0
C10423 C 0.39365 0.58636 0.82644 0.0
H10424 H 0.3906 0.58989 0.84403 0.0
C10425 C 0.38826 0.59073 0.82344 0.0
C10426 C 0.38381 0.59498 0.82785 0.0
H10427 H 0.39727 0.58351 0.82292 0.0
H10428 H 0.3879 0.59114 0.81768 0.0
C10429 C 0.38451 0.59419 0.83532 0.0
C10430 C 0.18273 0.63858 0.58823 0.0
C10431 C 0.18617 0.64364 0.5839 0.0
H10432 H 0.17585 0.62949 0.58881 0.0
C10433 C 0.18564 0.64293 0.57642 0.0
H10434 H 0.18304 0.639 0.59401 0.0
C10435 C 0.18133 0.63753 0.57338 0.0
C10436 C 0.17747 0.63274 0.57777 0.0
H10437 H 0.18819 0.6468 0.57296 0.0
H10438 H 0.18067 0.63742 0.56763 0.0
C10439 C 0.17853 0.63316 0.58522 0.0
C10440 C 0.1322 0.5914 0.18305 0.0
C10441 C 0.12842 0.5865 0.18731 0.0
H10442 H 0.14034 0.59933 0.18242 0.0
C10443 C 0.13052 0.58562 0.19448 0.0
H10444 H 0.13076 0.59213 0.17748 0.0
C10445 C 0.13592 0.58999 0.19745 0.0
C10446 C 0.13938 0.59527 0.19328 0.0
H10447 H 0.12771 0.58187 0.19788 0.0
H10448 H 0.13706 0.58949 0.2031 0.0
C10449 C 0.13765 0.59562 0.18594 0.0
C10450 C 0.18551 0.37794 0.94549 0.0
C10451 C 0.18618 0.37735 0.93802 0.0
H10452 H 0.18044 0.38337 0.95428 0.0
C10453 C 0.18285 0.3825 0.9337 0.0
H10454 H 0.18797 0.374 0.94895 0.0
C10455 C 0.17862 0.38789 0.93672 0.0
C10456 C 0.17745 0.38823 0.94417 0.0
H10457 H 0.18325 0.38215 0.92793 0.0
H10458 H 0.17602 0.39164 0.93316 0.0
C10459 C 0.18119 0.38333 0.94854 0.0
C10460 C 0.39099 0.42889 0.68337 0.0
C10461 C 0.39499 0.43388 0.68734 0.0
H10462 H 0.38285 0.42082 0.6834 0.0
C10463 C 0.39334 0.43482 0.69461 0.0
H10464 H 0.39211 0.42809 0.67774 0.0
C10465 C 0.38808 0.43055 0.6979 0.0
C10466 C 0.38431 0.42528 0.69399 0.0
H10467 H 0.39637 0.43856 0.69783 0.0
H10468 H 0.3872 0.43117 0.7036 0.0
C10469 C 0.38573 0.42466 0.68663 0.0
C10470 C 0.33715 0.637 0.43615 0.0
C10471 C 0.33754 0.64404 0.43879 0.0
H10472 H 0.34132 0.62626 0.43676 0.0
C10473 C 0.34186 0.64536 0.44481 0.0
H10474 H 0.33394 0.63582 0.43147 0.0
C10475 C 0.34596 0.63988 0.4479 0.0
C10476 C 0.34591 0.63296 0.44501 0.0
H10477 H 0.34231 0.65071 0.44696 0.0
H10478 H 0.3495 0.64117 0.45231 0.0
C10479 C 0.34137 0.63153 0.43917 0.0
C10480 C 0.33639 0.12709 0.42641 0.0
C10481 C 0.33483 0.12645 0.43375 0.0
H10482 H 0.33466 0.13257 0.41662 0.0
C10483 C 0.33038 0.1317 0.43688 0.0
H10484 H 0.33993 0.12334 0.42378 0.0
C10485 C 0.32746 0.13729 0.4327 0.0
C10486 C 0.32898 0.13778 0.42531 0.0
H10487 H 0.32906 0.13143 0.44251 0.0
H10488 H 0.32406 0.14123 0.43524 0.0
C10489 C 0.33346 0.13255 0.42228 0.0
C10490 C 0.83952 0.39016 0.59205 0.0
C10491 C 0.8353 0.3938 0.58704 0.0
H10492 H 0.84018 0.38209 0.60002 0.0
C10493 C 0.82818 0.39155 0.58601 0.0
H10494 H 0.84506 0.39171 0.59289 0.0
C10495 C 0.82522 0.38614 0.59036 0.0
C10496 C 0.82935 0.38281 0.59576 0.0
H10497 H 0.8248 0.39425 0.58216 0.0
H10498 H 0.81959 0.38488 0.58974 0.0
C10499 C 0.83665 0.38468 0.59624 0.0
C10500 C 0.38022 0.07649 0.33627 0.0
C10501 C 0.37861 0.08382 0.33672 0.0
H10502 H 0.38641 0.06777 0.34049 0.0
C10503 C 0.38286 0.08816 0.34112 0.0
H10504 H 0.37702 0.07302 0.33291 0.0
C10505 C 0.38831 0.08523 0.34532 0.0
C10506 C 0.38956 0.07779 0.34544 0.0
H10507 H 0.38178 0.09384 0.34153 0.0
H10508 H 0.39136 0.08881 0.34869 0.0
C10509 C 0.38563 0.0735 0.34061 0.0
C10510 C 0.69478 0.62522 0.09239 0.0
C10511 C 0.68966 0.62674 0.08706 0.0
H10512 H 0.70145 0.62928 0.1008 0.0
C10513 C 0.68808 0.63398 0.08562 0.0
H10514 H 0.69623 0.61975 0.0936 0.0
C10515 C 0.69116 0.63948 0.08977 0.0
C10516 C 0.69594 0.63785 0.09536 0.0
H10517 H 0.68415 0.63536 0.0816 0.0
H10518 H 0.68954 0.64496 0.08885 0.0
C10519 C 0.69784 0.63069 0.09649 0.0
C10520 C 0.64187 0.4432 0.33537 0.0
C10521 C 0.64538 0.43686 0.33732 0.0
H10522 H 0.63405 0.45104 0.33801 0.0
C10523 C 0.64291 0.43316 0.34334 0.0
H10524 H 0.64361 0.44614 0.33068 0.0
C10525 C 0.63741 0.43588 0.34758 0.0
C10526 C 0.63413 0.44255 0.34608 0.0
H10527 H 0.64538 0.42815 0.3449 0.0
H10528 H 0.63599 0.43265 0.35212 0.0
C10529 C 0.63635 0.44603 0.33969 0.0
C10530 C 0.18547 0.89284 0.92718 0.0
C10531 C 0.18811 0.89431 0.93406 0.0
H10532 H 0.18638 0.88692 0.91758 0.0
C10533 C 0.19353 0.88985 0.9368 0.0
H10534 H 0.18118 0.89602 0.92492 0.0
C10535 C 0.19643 0.88427 0.93259 0.0
C10536 C 0.19398 0.88304 0.92553 0.0
H10537 H 0.19567 0.89078 0.94211 0.0
H10538 H 0.20062 0.881 0.93487 0.0
C10539 C 0.1884 0.88742 0.92297 0.0
C10540 C 0.37946 0.94501 0.18495 0.0
C10541 C 0.37863 0.93755 0.18535 0.0
H10542 H 0.38505 0.95379 0.18004 0.0
C10543 C 0.3836 0.9332 0.18178 0.0
H10544 H 0.37568 0.9485 0.18762 0.0
C10545 C 0.38901 0.93619 0.17755 0.0
C10546 C 0.38952 0.94365 0.17658 0.0
H10547 H 0.38309 0.92743 0.18199 0.0
H10548 H 0.39261 0.93259 0.17478 0.0
C10549 C 0.38486 0.94804 0.1806 0.0
C10550 C 0.14116 0.08809 0.67922 0.0
C10551 C 0.14507 0.08415 0.68431 0.0
H10552 H 0.13307 0.08805 0.67109 0.0
C10553 C 0.14332 0.07692 0.68534 0.0
H10554 H 0.14235 0.09369 0.67836 0.0
C10555 C 0.13805 0.07364 0.68108 0.0
C10556 C 0.13436 0.07751 0.67572 0.0
H10557 H 0.14629 0.07373 0.68916 0.0
H10558 H 0.1371 0.06798 0.68178 0.0
C10559 C 0.13588 0.08484 0.675 0.0
loop_
_geom_bond_atom_site_label_1
_geom_bond_atom_site_label_2
_geom_bond_distance
_geom_bond_site_symmetry_2
_ccdc_geom_bond_type
C0 C1 1.264 . S
C0 C5 1.479 . S
C0 C10 1.465 . S
C1 C0 1.264 . S
C1 C3 1.339 . S
C1 H28 0.931 . S
C2 C3 1.395 . S
C2 C4 1.320 . S
C3 C1 1.339 . S
C3 C2 1.395 . S
C3 H29 0.929 . S
C4 C2 1.320 . S
C4 C5 1.405 . S
C4 H30 0.930 . S
C5 C0 1.479 . S
C5 C4 1.405 . S
C5 H31 0.931 . S
U6 O7 2.454 . S
U6 O8 2.458 . S
U6 C9 2.984 . S
U6 C10 2.847 . S
U6 C23 2.882 . S
U6 O24 2.441 . S
U6 O25 2.420 . S
U6 O26 2.455 . S
U6 O27 2.449 . S
O7 U6 2.454 . S
O7 C9 1.353 . S
O8 U6 2.458 . S
O8 C9 1.286 . S
C9 U6 2.984 . S
C9 O7 1.353 . S
C9 O8 1.286 . S
C9 C11 1.363 . S
C10 C0 1.465 . S
C10 U6 2.847 . S
C10 O24 1.249 . S
C10 O25 1.202 . S
C11 C9 1.363 . S
C11 C13 1.408 . S
C11 C16 1.342 . S
C12 C13 1.310 . S
C12 C15 1.461 . S
C12 H32 0.932 . S
C13 C11 1.408 . S
C13 C12 1.310 . S
C13 H33 0.930 . S
C14 C15 1.474 . S
C14 C16 1.285 . S
C14 H34 0.929 . S
C15 C12 1.461 . S
C15 C14 1.474 . S
C16 C11 1.342 . S
C16 C14 1.285 . S
C16 H35 0.930 . S
C17 C20 1.424 . S
C17 C22 1.245 . S
C17 C23 1.428 . S
C18 C21 1.260 . S
C18 C22 1.477 . S
C18 H36 0.932 . S
C19 C20 1.384 . S
C19 C21 1.479 . S
C19 H37 0.929 . S
C20 C17 1.424 . S
C20 C19 1.384 . S
C20 H38 0.928 . S
C21 C18 1.260 . S
C21 C19 1.479 . S
C22 C17 1.245 . S
C22 C18 1.477 . S
C22 H39 0.932 . S
C23 U6 2.882 . S
C23 C17 1.428 . S
C23 O26 1.301 . S
C23 O27 1.282 . S
O24 U6 2.441 . S
O24 C10 1.249 . S
O25 U6 2.420 . S
O25 C10 1.202 . S
O26 U6 2.455 . S
O26 C23 1.301 . S
O27 U6 2.449 . S
O27 C23 1.282 . S
H28 C1 0.931 . S
H29 C3 0.929 . S
H30 C4 0.930 . S
H31 C5 0.931 . S
H32 C12 0.932 . S
H33 C13 0.930 . S
H34 C14 0.929 . S
H35 C16 0.930 . S
H36 C18 0.932 . S
H37 C19 0.929 . S
H38 C20 0.928 . S
H39 C22 0.932 . S
C40 C41 1.264 . S
C40 C45 1.479 . S
C40 C50 1.465 . S
C41 C40 1.264 . S
C41 C43 1.339 . S
C41 H68 0.931 . S
C42 C43 1.395 . S
C42 C44 1.320 . S
C43 C41 1.339 . S
C43 C42 1.395 . S
C43 H69 0.929 . S
C44 C42 1.320 . S
C44 C45 1.405 . S
C44 H70 0.930 . S
C45 C40 1.479 . S
C45 C44 1.405 . S
C45 H71 0.931 . S
U46 O47 2.454 . S
U46 O48 2.458 . S
U46 C49 2.984 . S
U46 C50 2.847 . S
U46 C63 2.882 . S
U46 O64 2.441 . S
U46 O65 2.420 . S
U46 O66 2.455 . S
U46 O67 2.449 . S
O47 U46 2.454 . S
O47 C49 1.353 . S
O48 U46 2.458 . S
O48 C49 1.286 . S
C49 U46 2.984 . S
C49 O47 1.353 . S
C49 O48 1.286 . S
C49 C51 1.363 . S
C50 C40 1.465 . S
C50 U46 2.847 . S
C50 O64 1.249 . S
C50 O65 1.202 . S
C51 C49 1.363 . S
C51 C53 1.408 . S
C51 C56 1.342 . S
C52 C53 1.310 . S
C52 C55 1.461 . S
C52 H72 0.932 . S
C53 C51 1.408 . S
C53 C52 1.310 . S
C53 H73 0.930 . S
C54 C55 1.474 . S
C54 C56 1.285 . S
C54 H74 0.929 . S
C55 C52 1.461 . S
C55 C54 1.474 . S
C56 C51 1.342 . S
C56 C54 1.285 . S
C56 H75 0.930 . S
C57 C60 1.424 . S
C57 C62 1.245 . S
C57 C63 1.428 . S
C58 C61 1.260 . S
C58 C62 1.477 . S
C58 H76 0.932 . S
C59 C60 1.384 . S
C59 C61 1.479 . S
C59 H77 0.929 . S
C60 C57 1.424 . S
C60 C59 1.384 . S
C60 H78 0.928 . S
C61 C58 1.260 . S
C61 C59 1.479 . S
C62 C57 1.245 . S
C62 C58 1.477 . S
C62 H79 0.932 . S
C63 U46 2.882 . S
C63 C57 1.428 . S
C63 O66 1.301 . S
C63 O67 1.282 . S
O64 U46 2.441 . S
O64 C50 1.249 . S
O65 U46 2.420 . S
O65 C50 1.202 . S
O66 U46 2.455 . S
O66 C63 1.301 . S
O67 U46 2.449 . S
O67 C63 1.282 . S
H68 C41 0.931 . S
H69 C43 0.929 . S
H70 C44 0.930 . S
H71 C45 0.931 . S
H72 C52 0.932 . S
H73 C53 0.930 . S
H74 C54 0.929 . S
H75 C56 0.930 . S
H76 C58 0.932 . S
H77 C59 0.929 . S
H78 C60 0.928 . S
H79 C62 0.932 . S
C80 C81 1.264 . S
C80 C85 1.479 . S
C80 C90 1.465 . S
C81 C80 1.264 . S
C81 C83 1.339 . S
C81 H108 0.931 . S
C82 C83 1.395 . S
C82 C84 1.320 . S
C83 C81 1.339 . S
C83 C82 1.395 . S
C83 H109 0.929 . S
C84 C82 1.320 . S
C84 C85 1.405 . S
C84 H110 0.930 . S
C85 C80 1.479 . S
C85 C84 1.405 . S
C85 H111 0.931 . S
U86 O87 2.454 . S
U86 O88 2.458 . S
U86 C89 2.984 . S
U86 C90 2.847 . S
U86 C103 2.882 . S
U86 O104 2.441 . S
U86 O105 2.420 . S
U86 O106 2.455 . S
U86 O107 2.449 . S
O87 U86 2.454 . S
O87 C89 1.353 . S
O88 U86 2.458 . S
O88 C89 1.286 . S
C89 U86 2.984 . S
C89 O87 1.353 . S
C89 O88 1.286 . S
C89 C91 1.363 . S
C90 C80 1.465 . S
C90 U86 2.847 . S
C90 O104 1.249 . S
C90 O105 1.202 . S
C91 C89 1.363 . S
C91 C93 1.408 . S
C91 C96 1.342 . S
C92 C93 1.310 . S
C92 C95 1.461 . S
C92 H112 0.932 . S
C93 C91 1.408 . S
C93 C92 1.310 . S
C93 H113 0.930 . S
C94 C95 1.474 . S
C94 C96 1.285 . S
C94 H114 0.929 . S
C95 C92 1.461 . S
C95 C94 1.474 . S
C96 C91 1.342 . S
C96 C94 1.285 . S
C96 H115 0.930 . S
C97 C100 1.424 . S
C97 C102 1.245 . S
C97 C103 1.428 . S
C98 C101 1.260 . S
C98 C102 1.477 . S
C98 H116 0.932 . S
C99 C100 1.384 . S
C99 C101 1.479 . S
C99 H117 0.929 . S
C100 C97 1.424 . S
C100 C99 1.384 . S
C100 H118 0.928 . S
C101 C98 1.260 . S
C101 C99 1.479 . S
C102 C97 1.245 . S
C102 C98 1.477 . S
C102 H119 0.932 . S
C103 U86 2.882 . S
C103 C97 1.428 . S
C103 O106 1.301 . S
C103 O107 1.282 . S
O104 U86 2.441 . S
O104 C90 1.249 . S
O105 U86 2.420 . S
O105 C90 1.202 . S
O106 U86 2.455 . S
O106 C103 1.301 . S
O107 U86 2.449 . S
O107 C103 1.282 . S
H108 C81 0.931 . S
H109 C83 0.929 . S
H110 C84 0.930 . S
H111 C85 0.931 . S
H112 C92 0.932 . S
H113 C93 0.930 . S
H114 C94 0.929 . S
H115 C96 0.930 . S
H116 C98 0.932 . S
H117 C99 0.929 . S
H118 C100 0.928 . S
H119 C102 0.932 . S
C120 C121 1.264 . S
C120 C125 1.479 . S
C120 C130 1.465 . S
C121 C120 1.264 . S
C121 C123 1.339 . S
C121 H148 0.931 . S
C122 C123 1.395 . S
C122 C124 1.320 . S
C123 C121 1.339 . S
C123 C122 1.395 . S
C123 H149 0.929 . S
C124 C122 1.320 . S
C124 C125 1.405 . S
C124 H150 0.930 . S
C125 C120 1.479 . S
C125 C124 1.405 . S
C125 H151 0.931 . S
U126 O127 2.454 . S
U126 O128 2.458 . S
U126 C129 2.984 . S
U126 C130 2.847 . S
U126 C143 2.882 . S
U126 O144 2.441 . S
U126 O145 2.420 . S
U126 O146 2.455 . S
U126 O147 2.449 . S
O127 U126 2.454 . S
O127 C129 1.353 . S
O128 U126 2.458 . S
O128 C129 1.286 . S
C129 U126 2.984 . S
C129 O127 1.353 . S
C129 O128 1.286 . S
C129 C131 1.363 . S
C130 C120 1.465 . S
C130 U126 2.847 . S
C130 O144 1.249 . S
C130 O145 1.202 . S
C131 C129 1.363 . S
C131 C133 1.408 . S
C131 C136 1.342 . S
C132 C133 1.310 . S
C132 C135 1.461 . S
C132 H152 0.932 . S
C133 C131 1.408 . S
C133 C132 1.310 . S
C133 H153 0.930 . S
C134 C135 1.474 . S
C134 C136 1.285 . S
C134 H154 0.929 . S
C135 C132 1.461 . S
C135 C134 1.474 . S
C136 C131 1.342 . S
C136 C134 1.285 . S
C136 H155 0.930 . S
C137 C140 1.424 . S
C137 C142 1.245 . S
C137 C143 1.428 . S
C138 C141 1.260 . S
C138 C142 1.477 . S
C138 H156 0.932 . S
C139 C140 1.384 . S
C139 C141 1.479 . S
C139 H157 0.929 . S
C140 C137 1.424 . S
C140 C139 1.384 . S
C140 H158 0.928 . S
C141 C138 1.260 . S
C141 C139 1.479 . S
C142 C137 1.245 . S
C142 C138 1.477 . S
C142 H159 0.932 . S
C143 U126 2.882 . S
C143 C137 1.428 . S
C143 O146 1.301 . S
C143 O147 1.282 . S
O144 U126 2.441 . S
O144 C130 1.249 . S
O145 U126 2.420 . S
O145 C130 1.202 . S
O146 U126 2.455 . S
O146 C143 1.301 . S
O147 U126 2.449 . S
O147 C143 1.282 . S
H148 C121 0.931 . S
H149 C123 0.929 . S
H150 C124 0.930 . S
H151 C125 0.931 . S
H152 C132 0.932 . S
H153 C133 0.930 . S
H154 C134 0.929 . S
H155 C136 0.930 . S
H156 C138 0.932 . S
H157 C139 0.929 . S
H158 C140 0.928 . S
H159 C142 0.932 . S
C160 C161 1.264 . S
C160 C165 1.479 . S
C160 C170 1.465 . S
C161 C160 1.264 . S
C161 C163 1.339 . S
C161 H188 0.931 . S
C162 C163 1.395 . S
C162 C164 1.320 . S
C163 C161 1.339 . S
C163 C162 1.395 . S
C163 H189 0.929 . S
C164 C162 1.320 . S
C164 C165 1.405 . S
C164 H190 0.930 . S
C165 C160 1.479 . S
C165 C164 1.405 . S
C165 H191 0.931 . S
U166 O167 2.454 . S
U166 O168 2.458 . S
U166 C169 2.984 . S
U166 C170 2.847 . S
U166 C183 2.882 . S
U166 O184 2.441 . S
U166 O185 2.420 . S
U166 O186 2.455 . S
U166 O187 2.449 . S
O167 U166 2.454 . S
O167 C169 1.353 . S
O168 U166 2.458 . S
O168 C169 1.286 . S
C169 U166 2.984 . S
C169 O167 1.353 . S
C169 O168 1.286 . S
C169 C171 1.363 . S
C170 C160 1.465 . S
C170 U166 2.847 . S
C170 O184 1.249 . S
C170 O185 1.202 . S
C171 C169 1.363 . S
C171 C173 1.408 . S
C171 C176 1.342 . S
C172 C173 1.310 . S
C172 C175 1.461 . S
C172 H192 0.932 . S
C173 C171 1.408 . S
C173 C172 1.310 . S
C173 H193 0.930 . S
C174 C175 1.474 . S
C174 C176 1.285 . S
C174 H194 0.929 . S
C175 C172 1.461 . S
C175 C174 1.474 . S
C176 C171 1.342 . S
C176 C174 1.285 . S
C176 H195 0.930 . S
C177 C180 1.424 . S
C177 C182 1.245 . S
C177 C183 1.428 . S
C178 C181 1.260 . S
C178 C182 1.477 . S
C178 H196 0.932 . S
C179 C180 1.384 . S
C179 C181 1.479 . S
C179 H197 0.929 . S
C180 C177 1.424 . S
C180 C179 1.384 . S
C180 H198 0.928 . S
C181 C178 1.260 . S
C181 C179 1.479 . S
C182 C177 1.245 . S
C182 C178 1.477 . S
C182 H199 0.932 . S
C183 U166 2.882 . S
C183 C177 1.428 . S
C183 O186 1.301 . S
C183 O187 1.282 . S
O184 U166 2.441 . S
O184 C170 1.249 . S
O185 U166 2.420 . S
O185 C170 1.202 . S
O186 U166 2.455 . S
O186 C183 1.301 . S
O187 U166 2.449 . S
O187 C183 1.282 . S
H188 C161 0.931 . S
H189 C163 0.929 . S
H190 C164 0.930 . S
H191 C165 0.931 . S
H192 C172 0.932 . S
H193 C173 0.930 . S
H194 C174 0.929 . S
H195 C176 0.930 . S
H196 C178 0.932 . S
H197 C179 0.929 . S
H198 C180 0.928 . S
H199 C182 0.932 . S
C200 C201 1.264 . S
C200 C205 1.479 . S
C200 C210 1.465 . S
C201 C200 1.264 . S
C201 C203 1.339 . S
C201 H228 0.931 . S
C202 C203 1.395 . S
C202 C204 1.320 . S
C203 C201 1.339 . S
C203 C202 1.395 . S
C203 H229 0.929 . S
C204 C202 1.320 . S
C204 C205 1.405 . S
C204 H230 0.930 . S
C205 C200 1.479 . S
C205 C204 1.405 . S
C205 H231 0.931 . S
U206 O207 2.454 . S
U206 O208 2.458 . S
U206 C209 2.984 . S
U206 C210 2.847 . S
U206 C223 2.882 . S
U206 O224 2.441 . S
U206 O225 2.420 . S
U206 O226 2.455 . S
U206 O227 2.449 . S
O207 U206 2.454 . S
O207 C209 1.353 . S
O208 U206 2.458 . S
O208 C209 1.286 . S
C209 U206 2.984 . S
C209 O207 1.353 . S
C209 O208 1.286 . S
C209 C211 1.363 . S
C210 C200 1.465 . S
C210 U206 2.847 . S
C210 O224 1.249 . S
C210 O225 1.202 . S
C211 C209 1.363 . S
C211 C213 1.408 . S
C211 C216 1.342 . S
C212 C213 1.310 . S
C212 C215 1.461 . S
C212 H232 0.932 . S
C213 C211 1.408 . S
C213 C212 1.310 . S
C213 H233 0.930 . S
C214 C215 1.474 . S
C214 C216 1.285 . S
C214 H234 0.929 . S
C215 C212 1.461 . S
C215 C214 1.474 . S
C216 C211 1.342 . S
C216 C214 1.285 . S
C216 H235 0.930 . S
C217 C220 1.424 . S
C217 C222 1.245 . S
C217 C223 1.428 . S
C218 C221 1.260 . S
C218 C222 1.477 . S
C218 H236 0.932 . S
C219 C220 1.384 . S
C219 C221 1.479 . S
C219 H237 0.929 . S
C220 C217 1.424 . S
C220 C219 1.384 . S
C220 H238 0.928 . S
C221 C218 1.260 . S
C221 C219 1.479 . S
C222 C217 1.245 . S
C222 C218 1.477 . S
C222 H239 0.932 . S
C223 U206 2.882 . S
C223 C217 1.428 . S
C223 O226 1.301 . S
C223 O227 1.282 . S
O224 U206 2.441 . S
O224 C210 1.249 . S
O225 U206 2.420 . S
O225 C210 1.202 . S
O226 U206 2.455 . S
O226 C223 1.301 . S
O227 U206 2.449 . S
O227 C223 1.282 . S
H228 C201 0.931 . S
H229 C203 0.929 . S
H230 C204 0.930 . S
H231 C205 0.931 . S
H232 C212 0.932 . S
H233 C213 0.930 . S
H234 C214 0.929 . S
H235 C216 0.930 . S
H236 C218 0.932 . S
H237 C219 0.929 . S
H238 C220 0.928 . S
H239 C222 0.932 . S
C240 C241 1.264 . S
C240 C245 1.479 . S
C240 C250 1.465 . S
C241 C240 1.264 . S
C241 C243 1.339 . S
C241 H268 0.931 . S
C242 C243 1.395 . S
C242 C244 1.320 . S
C243 C241 1.339 . S
C243 C242 1.395 . S
C243 H269 0.929 . S
C244 C242 1.320 . S
C244 C245 1.405 . S
C244 H270 0.930 . S
C245 C240 1.479 . S
C245 C244 1.405 . S
C245 H271 0.931 . S
U246 O247 2.454 . S
U246 O248 2.458 . S
U246 C249 2.984 . S
U246 C250 2.847 . S
U246 C263 2.882 . S
U246 O264 2.441 . S
U246 O265 2.420 . S
U246 O266 2.455 . S
U246 O267 2.449 . S
O247 U246 2.454 . S
O247 C249 1.353 . S
O248 U246 2.458 . S
O248 C249 1.286 . S
C249 U246 2.984 . S
C249 O247 1.353 . S
C249 O248 1.286 . S
C249 C251 1.363 . S
C250 C240 1.465 . S
C250 U246 2.847 . S
C250 O264 1.249 . S
C250 O265 1.202 . S
C251 C249 1.363 . S
C251 C253 1.408 . S
C251 C256 1.342 . S
C252 C253 1.310 . S
C252 C255 1.461 . S
C252 H272 0.932 . S
C253 C251 1.408 . S
C253 C252 1.310 . S
C253 H273 0.930 . S
C254 C255 1.474 . S
C254 C256 1.285 . S
C254 H274 0.929 . S
C255 C252 1.461 . S
C255 C254 1.474 . S
C256 C251 1.342 . S
C256 C254 1.285 . S
C256 H275 0.930 . S
C257 C260 1.424 . S
C257 C262 1.245 . S
C257 C263 1.428 . S
C258 C261 1.260 . S
C258 C262 1.477 . S
C258 H276 0.932 . S
C259 C260 1.384 . S
C259 C261 1.479 . S
C259 H277 0.929 . S
C260 C257 1.424 . S
C260 C259 1.384 . S
C260 H278 0.928 . S
C261 C258 1.260 . S
C261 C259 1.479 . S
C262 C257 1.245 . S
C262 C258 1.477 . S
C262 H279 0.932 . S
C263 U246 2.882 . S
C263 C257 1.428 . S
C263 O266 1.301 . S
C263 O267 1.282 . S
O264 U246 2.441 . S
O264 C250 1.249 . S
O265 U246 2.420 . S
O265 C250 1.202 . S
O266 U246 2.455 . S
O266 C263 1.301 . S
O267 U246 2.449 . S
O267 C263 1.282 . S
H268 C241 0.931 . S
H269 C243 0.929 . S
H270 C244 0.930 . S
H271 C245 0.931 . S
H272 C252 0.932 . S
H273 C253 0.930 . S
H274 C254 0.929 . S
H275 C256 0.930 . S
H276 C258 0.932 . S
H277 C259 0.929 . S
H278 C260 0.928 . S
H279 C262 0.932 . S
C280 C281 1.264 . S
C280 C285 1.479 . S
C280 C290 1.465 . S
C281 C280 1.264 . S
C281 C283 1.339 . S
C281 H308 0.931 . S
C282 C283 1.395 . S
C282 C284 1.320 . S
C283 C281 1.339 . S
C283 C282 1.395 . S
C283 H309 0.929 . S
C284 C282 1.320 . S
C284 C285 1.405 . S
C284 H310 0.930 . S
C285 C280 1.479 . S
C285 C284 1.405 . S
C285 H311 0.931 . S
U286 O287 2.454 . S
U286 O288 2.458 . S
U286 C289 2.984 . S
U286 C290 2.847 . S
U286 C303 2.882 . S
U286 O304 2.441 . S
U286 O305 2.420 . S
U286 O306 2.455 . S
U286 O307 2.449 . S
O287 U286 2.454 . S
O287 C289 1.353 . S
O288 U286 2.458 . S
O288 C289 1.286 . S
C289 U286 2.984 . S
C289 O287 1.353 . S
C289 O288 1.286 . S
C289 C291 1.363 . S
C290 C280 1.465 . S
C290 U286 2.847 . S
C290 O304 1.249 . S
C290 O305 1.202 . S
C291 C289 1.363 . S
C291 C293 1.408 . S
C291 C296 1.342 . S
C292 C293 1.310 . S
C292 C295 1.461 . S
C292 H312 0.932 . S
C293 C291 1.408 . S
C293 C292 1.310 . S
C293 H313 0.930 . S
C294 C295 1.474 . S
C294 C296 1.285 . S
C294 H314 0.929 . S
C295 C292 1.461 . S
C295 C294 1.474 . S
C296 C291 1.342 . S
C296 C294 1.285 . S
C296 H315 0.930 . S
C297 C300 1.424 . S
C297 C302 1.245 . S
C297 C303 1.428 . S
C298 C301 1.260 . S
C298 C302 1.477 . S
C298 H316 0.932 . S
C299 C300 1.384 . S
C299 C301 1.479 . S
C299 H317 0.929 . S
C300 C297 1.424 . S
C300 C299 1.384 . S
C300 H318 0.928 . S
C301 C298 1.260 . S
C301 C299 1.479 . S
C302 C297 1.245 . S
C302 C298 1.477 . S
C302 H319 0.932 . S
C303 U286 2.882 . S
C303 C297 1.428 . S
C303 O306 1.301 . S
C303 O307 1.282 . S
O304 U286 2.441 . S
O304 C290 1.249 . S
O305 U286 2.420 . S
O305 C290 1.202 . S
O306 U286 2.455 . S
O306 C303 1.301 . S
O307 U286 2.449 . S
O307 C303 1.282 . S
H308 C281 0.931 . S
H309 C283 0.929 . S
H310 C284 0.930 . S
H311 C285 0.931 . S
H312 C292 0.932 . S
H313 C293 0.930 . S
H314 C294 0.929 . S
H315 C296 0.930 . S
H316 C298 0.932 . S
H317 C299 0.929 . S
H318 C300 0.928 . S
H319 C302 0.932 . S
C320 C321 1.264 . S
C320 C325 1.479 . S
C320 C330 1.465 . S
C321 C320 1.264 . S
C321 C323 1.339 . S
C321 H348 0.931 . S
C322 C323 1.395 . S
C322 C324 1.320 . S
C323 C321 1.339 . S
C323 C322 1.395 . S
C323 H349 0.929 . S
C324 C322 1.320 . S
C324 C325 1.405 . S
C324 H350 0.930 . S
C325 C320 1.479 . S
C325 C324 1.405 . S
C325 H351 0.931 . S
U326 O327 2.454 . S
U326 O328 2.458 . S
U326 C329 2.984 . S
U326 C330 2.847 . S
U326 C343 2.882 . S
U326 O344 2.441 . S
U326 O345 2.420 . S
U326 O346 2.455 . S
U326 O347 2.449 . S
O327 U326 2.454 . S
O327 C329 1.353 . S
O328 U326 2.458 . S
O328 C329 1.286 . S
C329 U326 2.984 . S
C329 O327 1.353 . S
C329 O328 1.286 . S
C329 C331 1.363 . S
C330 C320 1.465 . S
C330 U326 2.847 . S
C330 O344 1.249 . S
C330 O345 1.202 . S
C331 C329 1.363 . S
C331 C333 1.408 . S
C331 C336 1.342 . S
C332 C333 1.310 . S
C332 C335 1.461 . S
C332 H352 0.932 . S
C333 C331 1.408 . S
C333 C332 1.310 . S
C333 H353 0.930 . S
C334 C335 1.474 . S
C334 C336 1.285 . S
C334 H354 0.929 . S
C335 C332 1.461 . S
C335 C334 1.474 . S
C336 C331 1.342 . S
C336 C334 1.285 . S
C336 H355 0.930 . S
C337 C340 1.424 . S
C337 C342 1.245 . S
C337 C343 1.428 . S
C338 C341 1.260 . S
C338 C342 1.477 . S
C338 H356 0.932 . S
C339 C340 1.384 . S
C339 C341 1.479 . S
C339 H357 0.929 . S
C340 C337 1.424 . S
C340 C339 1.384 . S
C340 H358 0.928 . S
C341 C338 1.260 . S
C341 C339 1.479 . S
C342 C337 1.245 . S
C342 C338 1.477 . S
C342 H359 0.932 . S
C343 U326 2.882 . S
C343 C337 1.428 . S
C343 O346 1.301 . S
C343 O347 1.282 . S
O344 U326 2.441 . S
O344 C330 1.249 . S
O345 U326 2.420 . S
O345 C330 1.202 . S
O346 U326 2.455 . S
O346 C343 1.301 . S
O347 U326 2.449 . S
O347 C343 1.282 . S
H348 C321 0.931 . S
H349 C323 0.929 . S
H350 C324 0.930 . S
H351 C325 0.931 . S
H352 C332 0.932 . S
H353 C333 0.930 . S
H354 C334 0.929 . S
H355 C336 0.930 . S
H356 C338 0.932 . S
H357 C339 0.929 . S
H358 C340 0.928 . S
H359 C342 0.932 . S
C360 C361 1.264 . S
C360 C365 1.479 . S
C360 C370 1.465 . S
C361 C360 1.264 . S
C361 C363 1.339 . S
C361 H388 0.931 . S
C362 C363 1.395 . S
C362 C364 1.320 . S
C363 C361 1.339 . S
C363 C362 1.395 . S
C363 H389 0.929 . S
C364 C362 1.320 . S
C364 C365 1.405 . S
C364 H390 0.930 . S
C365 C360 1.479 . S
C365 C364 1.405 . S
C365 H391 0.931 . S
U366 O367 2.454 . S
U366 O368 2.458 . S
U366 C369 2.984 . S
U366 C370 2.847 . S
U366 C383 2.882 . S
U366 O384 2.441 . S
U366 O385 2.420 . S
U366 O386 2.455 . S
U366 O387 2.449 . S
O367 U366 2.454 . S
O367 C369 1.353 . S
O368 U366 2.458 . S
O368 C369 1.286 . S
C369 U366 2.984 . S
C369 O367 1.353 . S
C369 O368 1.286 . S
C369 C371 1.363 . S
C370 C360 1.465 . S
C370 U366 2.847 . S
C370 O384 1.249 . S
C370 O385 1.202 . S
C371 C369 1.363 . S
C371 C373 1.408 . S
C371 C376 1.342 . S
C372 C373 1.310 . S
C372 C375 1.461 . S
C372 H392 0.932 . S
C373 C371 1.408 . S
C373 C372 1.310 . S
C373 H393 0.930 . S
C374 C375 1.474 . S
C374 C376 1.285 . S
C374 H394 0.929 . S
C375 C372 1.461 . S
C375 C374 1.474 . S
C376 C371 1.342 . S
C376 C374 1.285 . S
C376 H395 0.930 . S
C377 C380 1.424 . S
C377 C382 1.245 . S
C377 C383 1.428 . S
C378 C381 1.260 . S
C378 C382 1.477 . S
C378 H396 0.932 . S
C379 C380 1.384 . S
C379 C381 1.479 . S
C379 H397 0.929 . S
C380 C377 1.424 . S
C380 C379 1.384 . S
C380 H398 0.928 . S
C381 C378 1.260 . S
C381 C379 1.479 . S
C382 C377 1.245 . S
C382 C378 1.477 . S
C382 H399 0.932 . S
C383 U366 2.882 . S
C383 C377 1.428 . S
C383 O386 1.301 . S
C383 O387 1.282 . S
O384 U366 2.441 . S
O384 C370 1.249 . S
O385 U366 2.420 . S
O385 C370 1.202 . S
O386 U366 2.455 . S
O386 C383 1.301 . S
O387 U366 2.449 . S
O387 C383 1.282 . S
H388 C361 0.931 . S
H389 C363 0.929 . S
H390 C364 0.930 . S
H391 C365 0.931 . S
H392 C372 0.932 . S
H393 C373 0.930 . S
H394 C374 0.929 . S
H395 C376 0.930 . S
H396 C378 0.932 . S
H397 C379 0.929 . S
H398 C380 0.928 . S
H399 C382 0.932 . S
C400 C401 1.264 . S
C400 C405 1.479 . S
C400 C410 1.465 . S
C401 C400 1.264 . S
C401 C403 1.339 . S
C401 H428 0.931 . S
C402 C403 1.395 . S
C402 C404 1.320 . S
C403 C401 1.339 . S
C403 C402 1.395 . S
C403 H429 0.929 . S
C404 C402 1.320 . S
C404 C405 1.405 . S
C404 H430 0.930 . S
C405 C400 1.479 . S
C405 C404 1.405 . S
C405 H431 0.931 . S
U406 O407 2.454 . S
U406 O408 2.458 . S
U406 C409 2.984 . S
U406 C410 2.847 . S
U406 C423 2.882 . S
U406 O424 2.441 . S
U406 O425 2.420 . S
U406 O426 2.455 . S
U406 O427 2.449 . S
O407 U406 2.454 . S
O407 C409 1.353 . S
O408 U406 2.458 . S
O408 C409 1.286 . S
C409 U406 2.984 . S
C409 O407 1.353 . S
C409 O408 1.286 . S
C409 C411 1.363 . S
C410 C400 1.465 . S
C410 U406 2.847 . S
C410 O424 1.249 . S
C410 O425 1.202 . S
C411 C409 1.363 . S
C411 C413 1.408 . S
C411 C416 1.342 . S
C412 C413 1.310 . S
C412 C415 1.461 . S
C412 H432 0.932 . S
C413 C411 1.408 . S
C413 C412 1.310 . S
C413 H433 0.930 . S
C414 C415 1.474 . S
C414 C416 1.285 . S
C414 H434 0.929 . S
C415 C412 1.461 . S
C415 C414 1.474 . S
C416 C411 1.342 . S
C416 C414 1.285 . S
C416 H435 0.930 . S
C417 C420 1.424 . S
C417 C422 1.245 . S
C417 C423 1.428 . S
C418 C421 1.260 . S
C418 C422 1.477 . S
C418 H436 0.932 . S
C419 C420 1.384 . S
C419 C421 1.479 . S
C419 H437 0.929 . S
C420 C417 1.424 . S
C420 C419 1.384 . S
C420 H438 0.928 . S
C421 C418 1.260 . S
C421 C419 1.479 . S
C422 C417 1.245 . S
C422 C418 1.477 . S
C422 H439 0.932 . S
C423 U406 2.882 . S
C423 C417 1.428 . S
C423 O426 1.301 . S
C423 O427 1.282 . S
O424 U406 2.441 . S
O424 C410 1.249 . S
O425 U406 2.420 . S
O425 C410 1.202 . S
O426 U406 2.455 . S
O426 C423 1.301 . S
O427 U406 2.449 . S
O427 C423 1.282 . S
H428 C401 0.931 . S
H429 C403 0.929 . S
H430 C404 0.930 . S
H431 C405 0.931 . S
H432 C412 0.932 . S
H433 C413 0.930 . S
H434 C414 0.929 . S
H435 C416 0.930 . S
H436 C418 0.932 . S
H437 C419 0.929 . S
H438 C420 0.928 . S
H439 C422 0.932 . S
C440 C441 1.264 . S
C440 C445 1.479 . S
C440 C450 1.465 . S
C441 C440 1.264 . S
C441 C443 1.339 . S
C441 H468 0.931 . S
C442 C443 1.395 . S
C442 C444 1.320 . S
C443 C441 1.339 . S
C443 C442 1.395 . S
C443 H469 0.929 . S
C444 C442 1.320 . S
C444 C445 1.405 . S
C444 H470 0.930 . S
C445 C440 1.479 . S
C445 C444 1.405 . S
C445 H471 0.931 . S
U446 O447 2.454 . S
U446 O448 2.458 . S
U446 C449 2.984 . S
U446 C450 2.847 . S
U446 C463 2.882 . S
U446 O464 2.441 . S
U446 O465 2.420 . S
U446 O466 2.455 . S
U446 O467 2.449 . S
O447 U446 2.454 . S
O447 C449 1.353 . S
O448 U446 2.458 . S
O448 C449 1.286 . S
C449 U446 2.984 . S
C449 O447 1.353 . S
C449 O448 1.286 . S
C449 C451 1.363 . S
C450 C440 1.465 . S
C450 U446 2.847 . S
C450 O464 1.249 . S
C450 O465 1.202 . S
C451 C449 1.363 . S
C451 C453 1.408 . S
C451 C456 1.342 . S
C452 C453 1.310 . S
C452 C455 1.461 . S
C452 H472 0.932 . S
C453 C451 1.408 . S
C453 C452 1.310 . S
C453 H473 0.930 . S
C454 C455 1.474 . S
C454 C456 1.285 . S
C454 H474 0.929 . S
C455 C452 1.461 . S
C455 C454 1.474 . S
C456 C451 1.342 . S
C456 C454 1.285 . S
C456 H475 0.930 . S
C457 C460 1.424 . S
C457 C462 1.245 . S
C457 C463 1.428 . S
C458 C461 1.260 . S
C458 C462 1.477 . S
C458 H476 0.932 . S
C459 C460 1.384 . S
C459 C461 1.479 . S
C459 H477 0.929 . S
C460 C457 1.424 . S
C460 C459 1.384 . S
C460 H478 0.928 . S
C461 C458 1.260 . S
C461 C459 1.479 . S
C462 C457 1.245 . S
C462 C458 1.477 . S
C462 H479 0.932 . S
C463 U446 2.882 . S
C463 C457 1.428 . S
C463 O466 1.301 . S
C463 O467 1.282 . S
O464 U446 2.441 . S
O464 C450 1.249 . S
O465 U446 2.420 . S
O465 C450 1.202 . S
O466 U446 2.455 . S
O466 C463 1.301 . S
O467 U446 2.449 . S
O467 C463 1.282 . S
H468 C441 0.931 . S
H469 C443 0.929 . S
H470 C444 0.930 . S
H471 C445 0.931 . S
H472 C452 0.932 . S
H473 C453 0.930 . S
H474 C454 0.929 . S
H475 C456 0.930 . S
H476 C458 0.932 . S
H477 C459 0.929 . S
H478 C460 0.928 . S
H479 C462 0.932 . S
C480 C481 1.264 . S
C480 C485 1.479 . S
C480 C490 1.465 . S
C481 C480 1.264 . S
C481 C483 1.339 . S
C481 H508 0.931 . S
C482 C483 1.395 . S
C482 C484 1.320 . S
C483 C481 1.339 . S
C483 C482 1.395 . S
C483 H509 0.929 . S
C484 C482 1.320 . S
C484 C485 1.405 . S
C484 H510 0.930 . S
C485 C480 1.479 . S
C485 C484 1.405 . S
C485 H511 0.931 . S
U486 O487 2.454 . S
U486 O488 2.458 . S
U486 C489 2.984 . S
U486 C490 2.847 . S
U486 C503 2.882 . S
U486 O504 2.441 . S
U486 O505 2.420 . S
U486 O506 2.455 . S
U486 O507 2.449 . S
O487 U486 2.454 . S
O487 C489 1.353 . S
O488 U486 2.458 . S
O488 C489 1.286 . S
C489 U486 2.984 . S
C489 O487 1.353 . S
C489 O488 1.286 . S
C489 C491 1.363 . S
C490 C480 1.465 . S
C490 U486 2.847 . S
C490 O504 1.249 . S
C490 O505 1.202 . S
C491 C489 1.363 . S
C491 C493 1.408 . S
C491 C496 1.342 . S
C492 C493 1.310 . S
C492 C495 1.461 . S
C492 H512 0.932 . S
C493 C491 1.408 . S
C493 C492 1.310 . S
C493 H513 0.930 . S
C494 C495 1.474 . S
C494 C496 1.285 . S
C494 H514 0.929 . S
C495 C492 1.461 . S
C495 C494 1.474 . S
C496 C491 1.342 . S
C496 C494 1.285 . S
C496 H515 0.930 . S
C497 C500 1.424 . S
C497 C502 1.245 . S
C497 C503 1.428 . S
C498 C501 1.260 . S
C498 C502 1.477 . S
C498 H516 0.932 . S
C499 C500 1.384 . S
C499 C501 1.479 . S
C499 H517 0.929 . S
C500 C497 1.424 . S
C500 C499 1.384 . S
C500 H518 0.928 . S
C501 C498 1.260 . S
C501 C499 1.479 . S
C502 C497 1.245 . S
C502 C498 1.477 . S
C502 H519 0.932 . S
C503 U486 2.882 . S
C503 C497 1.428 . S
C503 O506 1.301 . S
C503 O507 1.282 . S
O504 U486 2.441 . S
O504 C490 1.249 . S
O505 U486 2.420 . S
O505 C490 1.202 . S
O506 U486 2.455 . S
O506 C503 1.301 . S
O507 U486 2.449 . S
O507 C503 1.282 . S
H508 C481 0.931 . S
H509 C483 0.929 . S
H510 C484 0.930 . S
H511 C485 0.931 . S
H512 C492 0.932 . S
H513 C493 0.930 . S
H514 C494 0.929 . S
H515 C496 0.930 . S
H516 C498 0.932 . S
H517 C499 0.929 . S
H518 C500 0.928 . S
H519 C502 0.932 . S
C520 C521 1.264 . S
C520 C525 1.479 . S
C520 C530 1.465 . S
C521 C520 1.264 . S
C521 C523 1.339 . S
C521 H548 0.931 . S
C522 C523 1.395 . S
C522 C524 1.320 . S
C523 C521 1.339 . S
C523 C522 1.395 . S
C523 H549 0.929 . S
C524 C522 1.320 . S
C524 C525 1.405 . S
C524 H550 0.930 . S
C525 C520 1.479 . S
C525 C524 1.405 . S
C525 H551 0.931 . S
U526 O527 2.454 . S
U526 O528 2.458 . S
U526 C529 2.984 . S
U526 C530 2.847 . S
U526 C543 2.882 . S
U526 O544 2.441 . S
U526 O545 2.420 . S
U526 O546 2.455 . S
U526 O547 2.449 . S
O527 U526 2.454 . S
O527 C529 1.353 . S
O528 U526 2.458 . S
O528 C529 1.286 . S
C529 U526 2.984 . S
C529 O527 1.353 . S
C529 O528 1.286 . S
C529 C531 1.363 . S
C530 C520 1.465 . S
C530 U526 2.847 . S
C530 O544 1.249 . S
C530 O545 1.202 . S
C531 C529 1.363 . S
C531 C533 1.408 . S
C531 C536 1.342 . S
C532 C533 1.310 . S
C532 C535 1.461 . S
C532 H552 0.932 . S
C533 C531 1.408 . S
C533 C532 1.310 . S
C533 H553 0.930 . S
C534 C535 1.474 . S
C534 C536 1.285 . S
C534 H554 0.929 . S
C535 C532 1.461 . S
C535 C534 1.474 . S
C536 C531 1.342 . S
C536 C534 1.285 . S
C536 H555 0.930 . S
C537 C540 1.424 . S
C537 C542 1.245 . S
C537 C543 1.428 . S
C538 C541 1.260 . S
C538 C542 1.477 . S
C538 H556 0.932 . S
C539 C540 1.384 . S
C539 C541 1.479 . S
C539 H557 0.929 . S
C540 C537 1.424 . S
C540 C539 1.384 . S
C540 H558 0.928 . S
C541 C538 1.260 . S
C541 C539 1.479 . S
C542 C537 1.245 . S
C542 C538 1.477 . S
C542 H559 0.932 . S
C543 U526 2.882 . S
C543 C537 1.428 . S
C543 O546 1.301 . S
C543 O547 1.282 . S
O544 U526 2.441 . S
O544 C530 1.249 . S
O545 U526 2.420 . S
O545 C530 1.202 . S
O546 U526 2.455 . S
O546 C543 1.301 . S
O547 U526 2.449 . S
O547 C543 1.282 . S
H548 C521 0.931 . S
H549 C523 0.929 . S
H550 C524 0.930 . S
H551 C525 0.931 . S
H552 C532 0.932 . S
H553 C533 0.930 . S
H554 C534 0.929 . S
H555 C536 0.930 . S
H556 C538 0.932 . S
H557 C539 0.929 . S
H558 C540 0.928 . S
H559 C542 0.932 . S
C560 C561 1.264 . S
C560 C565 1.479 . S
C560 C570 1.465 . S
C561 C560 1.264 . S
C561 C563 1.339 . S
C561 H588 0.931 . S
C562 C563 1.395 . S
C562 C564 1.320 . S
C563 C561 1.339 . S
C563 C562 1.395 . S
C563 H589 0.929 . S
C564 C562 1.320 . S
C564 C565 1.405 . S
C564 H590 0.930 . S
C565 C560 1.479 . S
C565 C564 1.405 . S
C565 H591 0.931 . S
U566 O567 2.454 . S
U566 O568 2.458 . S
U566 C569 2.984 . S
U566 C570 2.847 . S
U566 C583 2.882 . S
U566 O584 2.441 . S
U566 O585 2.420 . S
U566 O586 2.455 . S
U566 O587 2.449 . S
O567 U566 2.454 . S
O567 C569 1.353 . S
O568 U566 2.458 . S
O568 C569 1.286 . S
C569 U566 2.984 . S
C569 O567 1.353 . S
C569 O568 1.286 . S
C569 C571 1.363 . S
C570 C560 1.465 . S
C570 U566 2.847 . S
C570 O584 1.249 . S
C570 O585 1.202 . S
C571 C569 1.363 . S
C571 C573 1.408 . S
C571 C576 1.342 . S
C572 C573 1.310 . S
C572 C575 1.461 . S
C572 H592 0.932 . S
C573 C571 1.408 . S
C573 C572 1.310 . S
C573 H593 0.930 . S
C574 C575 1.474 . S
C574 C576 1.285 . S
C574 H594 0.929 . S
C575 C572 1.461 . S
C575 C574 1.474 . S
C576 C571 1.342 . S
C576 C574 1.285 . S
C576 H595 0.930 . S
C577 C580 1.424 . S
C577 C582 1.245 . S
C577 C583 1.428 . S
C578 C581 1.260 . S
C578 C582 1.477 . S
C578 H596 0.932 . S
C579 C580 1.384 . S
C579 C581 1.479 . S
C579 H597 0.929 . S
C580 C577 1.424 . S
C580 C579 1.384 . S
C580 H598 0.928 . S
C581 C578 1.260 . S
C581 C579 1.479 . S
C582 C577 1.245 . S
C582 C578 1.477 . S
C582 H599 0.932 . S
C583 U566 2.882 . S
C583 C577 1.428 . S
C583 O586 1.301 . S
C583 O587 1.282 . S
O584 U566 2.441 . S
O584 C570 1.249 . S
O585 U566 2.420 . S
O585 C570 1.202 . S
O586 U566 2.455 . S
O586 C583 1.301 . S
O587 U566 2.449 . S
O587 C583 1.282 . S
H588 C561 0.931 . S
H589 C563 0.929 . S
H590 C564 0.930 . S
H591 C565 0.931 . S
H592 C572 0.932 . S
H593 C573 0.930 . S
H594 C574 0.929 . S
H595 C576 0.930 . S
H596 C578 0.932 . S
H597 C579 0.929 . S
H598 C580 0.928 . S
H599 C582 0.932 . S
C600 C601 1.264 . S
C600 C605 1.479 . S
C600 C610 1.465 . S
C601 C600 1.264 . S
C601 C603 1.339 . S
C601 H628 0.931 . S
C602 C603 1.395 . S
C602 C604 1.320 . S
C603 C601 1.339 . S
C603 C602 1.395 . S
C603 H629 0.929 . S
C604 C602 1.320 . S
C604 C605 1.405 . S
C604 H630 0.930 . S
C605 C600 1.479 . S
C605 C604 1.405 . S
C605 H631 0.931 . S
U606 O607 2.454 . S
U606 O608 2.458 . S
U606 C609 2.984 . S
U606 C610 2.847 . S
U606 C623 2.882 . S
U606 O624 2.441 . S
U606 O625 2.420 . S
U606 O626 2.455 . S
U606 O627 2.449 . S
O607 U606 2.454 . S
O607 C609 1.353 . S
O608 U606 2.458 . S
O608 C609 1.286 . S
C609 U606 2.984 . S
C609 O607 1.353 . S
C609 O608 1.286 . S
C609 C611 1.363 . S
C610 C600 1.465 . S
C610 U606 2.847 . S
C610 O624 1.249 . S
C610 O625 1.202 . S
C611 C609 1.363 . S
C611 C613 1.408 . S
C611 C616 1.342 . S
C612 C613 1.310 . S
C612 C615 1.461 . S
C612 H632 0.932 . S
C613 C611 1.408 . S
C613 C612 1.310 . S
C613 H633 0.930 . S
C614 C615 1.474 . S
C614 C616 1.285 . S
C614 H634 0.929 . S
C615 C612 1.461 . S
C615 C614 1.474 . S
C616 C611 1.342 . S
C616 C614 1.285 . S
C616 H635 0.930 . S
C617 C620 1.424 . S
C617 C622 1.245 . S
C617 C623 1.428 . S
C618 C621 1.260 . S
C618 C622 1.477 . S
C618 H636 0.932 . S
C619 C620 1.384 . S
C619 C621 1.479 . S
C619 H637 0.929 . S
C620 C617 1.424 . S
C620 C619 1.384 . S
C620 H638 0.928 . S
C621 C618 1.260 . S
C621 C619 1.479 . S
C622 C617 1.245 . S
C622 C618 1.477 . S
C622 H639 0.932 . S
C623 U606 2.882 . S
C623 C617 1.428 . S
C623 O626 1.301 . S
C623 O627 1.282 . S
O624 U606 2.441 . S
O624 C610 1.249 . S
O625 U606 2.420 . S
O625 C610 1.202 . S
O626 U606 2.455 . S
O626 C623 1.301 . S
O627 U606 2.449 . S
O627 C623 1.282 . S
H628 C601 0.931 . S
H629 C603 0.929 . S
H630 C604 0.930 . S
H631 C605 0.931 . S
H632 C612 0.932 . S
H633 C613 0.930 . S
H634 C614 0.929 . S
H635 C616 0.930 . S
H636 C618 0.932 . S
H637 C619 0.929 . S
H638 C620 0.928 . S
H639 C622 0.932 . S
C640 C641 1.264 . S
C640 C645 1.479 . S
C640 C650 1.465 . S
C641 C640 1.264 . S
C641 C643 1.339 . S
C641 H668 0.931 . S
C642 C643 1.395 . S
C642 C644 1.320 . S
C643 C641 1.339 . S
C643 C642 1.395 . S
C643 H669 0.929 . S
C644 C642 1.320 . S
C644 C645 1.405 . S
C644 H670 0.930 . S
C645 C640 1.479 . S
C645 C644 1.405 . S
C645 H671 0.931 . S
U646 O647 2.454 . S
U646 O648 2.458 . S
U646 C649 2.984 . S
U646 C650 2.847 . S
U646 C663 2.882 . S
U646 O664 2.441 . S
U646 O665 2.420 . S
U646 O666 2.455 . S
U646 O667 2.449 . S
O647 U646 2.454 . S
O647 C649 1.353 . S
O648 U646 2.458 . S
O648 C649 1.286 . S
C649 U646 2.984 . S
C649 O647 1.353 . S
C649 O648 1.286 . S
C649 C651 1.363 . S
C650 C640 1.465 . S
C650 U646 2.847 . S
C650 O664 1.249 . S
C650 O665 1.202 . S
C651 C649 1.363 . S
C651 C653 1.408 . S
C651 C656 1.342 . S
C652 C653 1.310 . S
C652 C655 1.461 . S
C652 H672 0.932 . S
C653 C651 1.408 . S
C653 C652 1.310 . S
C653 H673 0.930 . S
C654 C655 1.474 . S
C654 C656 1.285 . S
C654 H674 0.929 . S
C655 C652 1.461 . S
C655 C654 1.474 . S
C656 C651 1.342 . S
C656 C654 1.285 . S
C656 H675 0.930 . S
C657 C660 1.424 . S
C657 C662 1.245 . S
C657 C663 1.428 . S
C658 C661 1.260 . S
C658 C662 1.477 . S
C658 H676 0.932 . S
C659 C660 1.384 . S
C659 C661 1.479 . S
C659 H677 0.929 . S
C660 C657 1.424 . S
C660 C659 1.384 . S
C660 H678 0.928 . S
C661 C658 1.260 . S
C661 C659 1.479 . S
C662 C657 1.245 . S
C662 C658 1.477 . S
C662 H679 0.932 . S
C663 U646 2.882 . S
C663 C657 1.428 . S
C663 O666 1.301 . S
C663 O667 1.282 . S
O664 U646 2.441 . S
O664 C650 1.249 . S
O665 U646 2.420 . S
O665 C650 1.202 . S
O666 U646 2.455 . S
O666 C663 1.301 . S
O667 U646 2.449 . S
O667 C663 1.282 . S
H668 C641 0.931 . S
H669 C643 0.929 . S
H670 C644 0.930 . S
H671 C645 0.931 . S
H672 C652 0.932 . S
H673 C653 0.930 . S
H674 C654 0.929 . S
H675 C656 0.930 . S
H676 C658 0.932 . S
H677 C659 0.929 . S
H678 C660 0.928 . S
H679 C662 0.932 . S
C680 C681 1.264 . S
C680 C685 1.479 . S
C680 C690 1.465 . S
C681 C680 1.264 . S
C681 C683 1.339 . S
C681 H708 0.931 . S
C682 C683 1.395 . S
C682 C684 1.320 . S
C683 C681 1.339 . S
C683 C682 1.395 . S
C683 H709 0.929 . S
C684 C682 1.320 . S
C684 C685 1.405 . S
C684 H710 0.930 . S
C685 C680 1.479 . S
C685 C684 1.405 . S
C685 H711 0.931 . S
U686 O687 2.454 . S
U686 O688 2.458 . S
U686 C689 2.984 . S
U686 C690 2.847 . S
U686 C703 2.882 . S
U686 O704 2.441 . S
U686 O705 2.420 . S
U686 O706 2.455 . S
U686 O707 2.449 . S
O687 U686 2.454 . S
O687 C689 1.353 . S
O688 U686 2.458 . S
O688 C689 1.286 . S
C689 U686 2.984 . S
C689 O687 1.353 . S
C689 O688 1.286 . S
C689 C691 1.363 . S
C690 C680 1.465 . S
C690 U686 2.847 . S
C690 O704 1.249 . S
C690 O705 1.202 . S
C691 C689 1.363 . S
C691 C693 1.408 . S
C691 C696 1.342 . S
C692 C693 1.310 . S
C692 C695 1.461 . S
C692 H712 0.932 . S
C693 C691 1.408 . S
C693 C692 1.310 . S
C693 H713 0.930 . S
C694 C695 1.474 . S
C694 C696 1.285 . S
C694 H714 0.929 . S
C695 C692 1.461 . S
C695 C694 1.474 . S
C696 C691 1.342 . S
C696 C694 1.285 . S
C696 H715 0.930 . S
C697 C700 1.424 . S
C697 C702 1.245 . S
C697 C703 1.428 . S
C698 C701 1.260 . S
C698 C702 1.477 . S
C698 H716 0.932 . S
C699 C700 1.384 . S
C699 C701 1.479 . S
C699 H717 0.929 . S
C700 C697 1.424 . S
C700 C699 1.384 . S
C700 H718 0.928 . S
C701 C698 1.260 . S
C701 C699 1.479 . S
C702 C697 1.245 . S
C702 C698 1.477 . S
C702 H719 0.932 . S
C703 U686 2.882 . S
C703 C697 1.428 . S
C703 O706 1.301 . S
C703 O707 1.282 . S
O704 U686 2.441 . S
O704 C690 1.249 . S
O705 U686 2.420 . S
O705 C690 1.202 . S
O706 U686 2.455 . S
O706 C703 1.301 . S
O707 U686 2.449 . S
O707 C703 1.282 . S
H708 C681 0.931 . S
H709 C683 0.929 . S
H710 C684 0.930 . S
H711 C685 0.931 . S
H712 C692 0.932 . S
H713 C693 0.930 . S
H714 C694 0.929 . S
H715 C696 0.930 . S
H716 C698 0.932 . S
H717 C699 0.929 . S
H718 C700 0.928 . S
H719 C702 0.932 . S
C720 C721 1.264 . S
C720 C725 1.479 . S
C720 C730 1.465 . S
C721 C720 1.264 . S
C721 C723 1.339 . S
C721 H748 0.931 . S
C722 C723 1.395 . S
C722 C724 1.320 . S
C723 C721 1.339 . S
C723 C722 1.395 . S
C723 H749 0.929 . S
C724 C722 1.320 . S
C724 C725 1.405 . S
C724 H750 0.930 . S
C725 C720 1.479 . S
C725 C724 1.405 . S
C725 H751 0.931 . S
U726 O727 2.454 . S
U726 O728 2.458 . S
U726 C729 2.984 . S
U726 C730 2.847 . S
U726 C743 2.882 . S
U726 O744 2.441 . S
U726 O745 2.420 . S
U726 O746 2.455 . S
U726 O747 2.449 . S
O727 U726 2.454 . S
O727 C729 1.353 . S
O728 U726 2.458 . S
O728 C729 1.286 . S
C729 U726 2.984 . S
C729 O727 1.353 . S
C729 O728 1.286 . S
C729 C731 1.363 . S
C730 C720 1.465 . S
C730 U726 2.847 . S
C730 O744 1.249 . S
C730 O745 1.202 . S
C731 C729 1.363 . S
C731 C733 1.408 . S
C731 C736 1.342 . S
C732 C733 1.310 . S
C732 C735 1.461 . S
C732 H752 0.932 . S
C733 C731 1.408 . S
C733 C732 1.310 . S
C733 H753 0.930 . S
C734 C735 1.474 . S
C734 C736 1.285 . S
C734 H754 0.929 . S
C735 C732 1.461 . S
C735 C734 1.474 . S
C736 C731 1.342 . S
C736 C734 1.285 . S
C736 H755 0.930 . S
C737 C740 1.424 . S
C737 C742 1.245 . S
C737 C743 1.428 . S
C738 C741 1.260 . S
C738 C742 1.477 . S
C738 H756 0.932 . S
C739 C740 1.384 . S
C739 C741 1.479 . S
C739 H757 0.929 . S
C740 C737 1.424 . S
C740 C739 1.384 . S
C740 H758 0.928 . S
C741 C738 1.260 . S
C741 C739 1.479 . S
C742 C737 1.245 . S
C742 C738 1.477 . S
C742 H759 0.932 . S
C743 U726 2.882 . S
C743 C737 1.428 . S
C743 O746 1.301 . S
C743 O747 1.282 . S
O744 U726 2.441 . S
O744 C730 1.249 . S
O745 U726 2.420 . S
O745 C730 1.202 . S
O746 U726 2.455 . S
O746 C743 1.301 . S
O747 U726 2.449 . S
O747 C743 1.282 . S
H748 C721 0.931 . S
H749 C723 0.929 . S
H750 C724 0.930 . S
H751 C725 0.931 . S
H752 C732 0.932 . S
H753 C733 0.930 . S
H754 C734 0.929 . S
H755 C736 0.930 . S
H756 C738 0.932 . S
H757 C739 0.929 . S
H758 C740 0.928 . S
H759 C742 0.932 . S
C760 C761 1.264 . S
C760 C765 1.479 . S
C760 C770 1.465 . S
C761 C760 1.264 . S
C761 C763 1.339 . S
C761 H788 0.931 . S
C762 C763 1.395 . S
C762 C764 1.320 . S
C763 C761 1.339 . S
C763 C762 1.395 . S
C763 H789 0.929 . S
C764 C762 1.320 . S
C764 C765 1.405 . S
C764 H790 0.930 . S
C765 C760 1.479 . S
C765 C764 1.405 . S
C765 H791 0.931 . S
U766 O767 2.454 . S
U766 O768 2.458 . S
U766 C769 2.984 . S
U766 C770 2.847 . S
U766 C783 2.882 . S
U766 O784 2.441 . S
U766 O785 2.420 . S
U766 O786 2.455 . S
U766 O787 2.449 . S
O767 U766 2.454 . S
O767 C769 1.353 . S
O768 U766 2.458 . S
O768 C769 1.286 . S
C769 U766 2.984 . S
C769 O767 1.353 . S
C769 O768 1.286 . S
C769 C771 1.363 . S
C770 C760 1.465 . S
C770 U766 2.847 . S
C770 O784 1.249 . S
C770 O785 1.202 . S
C771 C769 1.363 . S
C771 C773 1.408 . S
C771 C776 1.342 . S
C772 C773 1.310 . S
C772 C775 1.461 . S
C772 H792 0.932 . S
C773 C771 1.408 . S
C773 C772 1.310 . S
C773 H793 0.930 . S
C774 C775 1.474 . S
C774 C776 1.285 . S
C774 H794 0.929 . S
C775 C772 1.461 . S
C775 C774 1.474 . S
C776 C771 1.342 . S
C776 C774 1.285 . S
C776 H795 0.930 . S
C777 C780 1.424 . S
C777 C782 1.245 . S
C777 C783 1.428 . S
C778 C781 1.260 . S
C778 C782 1.477 . S
C778 H796 0.932 . S
C779 C780 1.384 . S
C779 C781 1.479 . S
C779 H797 0.929 . S
C780 C777 1.424 . S
C780 C779 1.384 . S
C780 H798 0.928 . S
C781 C778 1.260 . S
C781 C779 1.479 . S
C782 C777 1.245 . S
C782 C778 1.477 . S
C782 H799 0.932 . S
C783 U766 2.882 . S
C783 C777 1.428 . S
C783 O786 1.301 . S
C783 O787 1.282 . S
O784 U766 2.441 . S
O784 C770 1.249 . S
O785 U766 2.420 . S
O785 C770 1.202 . S
O786 U766 2.455 . S
O786 C783 1.301 . S
O787 U766 2.449 . S
O787 C783 1.282 . S
H788 C761 0.931 . S
H789 C763 0.929 . S
H790 C764 0.930 . S
H791 C765 0.931 . S
H792 C772 0.932 . S
H793 C773 0.930 . S
H794 C774 0.929 . S
H795 C776 0.930 . S
H796 C778 0.932 . S
H797 C779 0.929 . S
H798 C780 0.928 . S
H799 C782 0.932 . S
C800 C801 1.264 . S
C800 C805 1.479 . S
C800 C810 1.465 . S
C801 C800 1.264 . S
C801 C803 1.339 . S
C801 H828 0.931 . S
C802 C803 1.395 . S
C802 C804 1.320 . S
C803 C801 1.339 . S
C803 C802 1.395 . S
C803 H829 0.929 . S
C804 C802 1.320 . S
C804 C805 1.405 . S
C804 H830 0.930 . S
C805 C800 1.479 . S
C805 C804 1.405 . S
C805 H831 0.931 . S
U806 O807 2.454 . S
U806 O808 2.458 . S
U806 C809 2.984 . S
U806 C810 2.847 . S
U806 C823 2.882 . S
U806 O824 2.441 . S
U806 O825 2.420 . S
U806 O826 2.455 . S
U806 O827 2.449 . S
O807 U806 2.454 . S
O807 C809 1.353 . S
O808 U806 2.458 . S
O808 C809 1.286 . S
C809 U806 2.984 . S
C809 O807 1.353 . S
C809 O808 1.286 . S
C809 C811 1.363 . S
C810 C800 1.465 . S
C810 U806 2.847 . S
C810 O824 1.249 . S
C810 O825 1.202 . S
C811 C809 1.363 . S
C811 C813 1.408 . S
C811 C816 1.342 . S
C812 C813 1.310 . S
C812 C815 1.461 . S
C812 H832 0.932 . S
C813 C811 1.408 . S
C813 C812 1.310 . S
C813 H833 0.930 . S
C814 C815 1.474 . S
C814 C816 1.285 . S
C814 H834 0.929 . S
C815 C812 1.461 . S
C815 C814 1.474 . S
C816 C811 1.342 . S
C816 C814 1.285 . S
C816 H835 0.930 . S
C817 C820 1.424 . S
C817 C822 1.245 . S
C817 C823 1.428 . S
C818 C821 1.260 . S
C818 C822 1.477 . S
C818 H836 0.932 . S
C819 C820 1.384 . S
C819 C821 1.479 . S
C819 H837 0.929 . S
C820 C817 1.424 . S
C820 C819 1.384 . S
C820 H838 0.928 . S
C821 C818 1.260 . S
C821 C819 1.479 . S
C822 C817 1.245 . S
C822 C818 1.477 . S
C822 H839 0.932 . S
C823 U806 2.882 . S
C823 C817 1.428 . S
C823 O826 1.301 . S
C823 O827 1.282 . S
O824 U806 2.441 . S
O824 C810 1.249 . S
O825 U806 2.420 . S
O825 C810 1.202 . S
O826 U806 2.455 . S
O826 C823 1.301 . S
O827 U806 2.449 . S
O827 C823 1.282 . S
H828 C801 0.931 . S
H829 C803 0.929 . S
H830 C804 0.930 . S
H831 C805 0.931 . S
H832 C812 0.932 . S
H833 C813 0.930 . S
H834 C814 0.929 . S
H835 C816 0.930 . S
H836 C818 0.932 . S
H837 C819 0.929 . S
H838 C820 0.928 . S
H839 C822 0.932 . S
C840 C841 1.264 . S
C840 C845 1.479 . S
C840 C850 1.465 . S
C841 C840 1.264 . S
C841 C843 1.339 . S
C841 H868 0.931 . S
C842 C843 1.395 . S
C842 C844 1.320 . S
C843 C841 1.339 . S
C843 C842 1.395 . S
C843 H869 0.929 . S
C844 C842 1.320 . S
C844 C845 1.405 . S
C844 H870 0.930 . S
C845 C840 1.479 . S
C845 C844 1.405 . S
C845 H871 0.931 . S
U846 O847 2.454 . S
U846 O848 2.458 . S
U846 C849 2.984 . S
U846 C850 2.847 . S
U846 C863 2.882 . S
U846 O864 2.441 . S
U846 O865 2.420 . S
U846 O866 2.455 . S
U846 O867 2.449 . S
O847 U846 2.454 . S
O847 C849 1.353 . S
O848 U846 2.458 . S
O848 C849 1.286 . S
C849 U846 2.984 . S
C849 O847 1.353 . S
C849 O848 1.286 . S
C849 C851 1.363 . S
C850 C840 1.465 . S
C850 U846 2.847 . S
C850 O864 1.249 . S
C850 O865 1.202 . S
C851 C849 1.363 . S
C851 C853 1.408 . S
C851 C856 1.342 . S
C852 C853 1.310 . S
C852 C855 1.461 . S
C852 H872 0.932 . S
C853 C851 1.408 . S
C853 C852 1.310 . S
C853 H873 0.930 . S
C854 C855 1.474 . S
C854 C856 1.285 . S
C854 H874 0.929 . S
C855 C852 1.461 . S
C855 C854 1.474 . S
C856 C851 1.342 . S
C856 C854 1.285 . S
C856 H875 0.930 . S
C857 C860 1.424 . S
C857 C862 1.245 . S
C857 C863 1.428 . S
C858 C861 1.260 . S
C858 C862 1.477 . S
C858 H876 0.932 . S
C859 C860 1.384 . S
C859 C861 1.479 . S
C859 H877 0.929 . S
C860 C857 1.424 . S
C860 C859 1.384 . S
C860 H878 0.928 . S
C861 C858 1.260 . S
C861 C859 1.479 . S
C862 C857 1.245 . S
C862 C858 1.477 . S
C862 H879 0.932 . S
C863 U846 2.882 . S
C863 C857 1.428 . S
C863 O866 1.301 . S
C863 O867 1.282 . S
O864 U846 2.441 . S
O864 C850 1.249 . S
O865 U846 2.420 . S
O865 C850 1.202 . S
O866 U846 2.455 . S
O866 C863 1.301 . S
O867 U846 2.449 . S
O867 C863 1.282 . S
H868 C841 0.931 . S
H869 C843 0.929 . S
H870 C844 0.930 . S
H871 C845 0.931 . S
H872 C852 0.932 . S
H873 C853 0.930 . S
H874 C854 0.929 . S
H875 C856 0.930 . S
H876 C858 0.932 . S
H877 C859 0.929 . S
H878 C860 0.928 . S
H879 C862 0.932 . S
C880 C881 1.264 . S
C880 C885 1.479 . S
C880 C890 1.465 . S
C881 C880 1.264 . S
C881 C883 1.339 . S
C881 H908 0.931 . S
C882 C883 1.395 . S
C882 C884 1.320 . S
C883 C881 1.339 . S
C883 C882 1.395 . S
C883 H909 0.929 . S
C884 C882 1.320 . S
C884 C885 1.405 . S
C884 H910 0.930 . S
C885 C880 1.479 . S
C885 C884 1.405 . S
C885 H911 0.931 . S
U886 O887 2.454 . S
U886 O888 2.458 . S
U886 C889 2.984 . S
U886 C890 2.847 . S
U886 C903 2.882 . S
U886 O904 2.441 . S
U886 O905 2.420 . S
U886 O906 2.455 . S
U886 O907 2.449 . S
O887 U886 2.454 . S
O887 C889 1.353 . S
O888 U886 2.458 . S
O888 C889 1.286 . S
C889 U886 2.984 . S
C889 O887 1.353 . S
C889 O888 1.286 . S
C889 C891 1.363 . S
C890 C880 1.465 . S
C890 U886 2.847 . S
C890 O904 1.249 . S
C890 O905 1.202 . S
C891 C889 1.363 . S
C891 C893 1.408 . S
C891 C896 1.342 . S
C892 C893 1.310 . S
C892 C895 1.461 . S
C892 H912 0.932 . S
C893 C891 1.408 . S
C893 C892 1.310 . S
C893 H913 0.930 . S
C894 C895 1.474 . S
C894 C896 1.285 . S
C894 H914 0.929 . S
C895 C892 1.461 . S
C895 C894 1.474 . S
C896 C891 1.342 . S
C896 C894 1.285 . S
C896 H915 0.930 . S
C897 C900 1.424 . S
C897 C902 1.245 . S
C897 C903 1.428 . S
C898 C901 1.260 . S
C898 C902 1.477 . S
C898 H916 0.932 . S
C899 C900 1.384 . S
C899 C901 1.479 . S
C899 H917 0.929 . S
C900 C897 1.424 . S
C900 C899 1.384 . S
C900 H918 0.928 . S
C901 C898 1.260 . S
C901 C899 1.479 . S
C902 C897 1.245 . S
C902 C898 1.477 . S
C902 H919 0.932 . S
C903 U886 2.882 . S
C903 C897 1.428 . S
C903 O906 1.301 . S
C903 O907 1.282 . S
O904 U886 2.441 . S
O904 C890 1.249 . S
O905 U886 2.420 . S
O905 C890 1.202 . S
O906 U886 2.455 . S
O906 C903 1.301 . S
O907 U886 2.449 . S
O907 C903 1.282 . S
H908 C881 0.931 . S
H909 C883 0.929 . S
H910 C884 0.930 . S
H911 C885 0.931 . S
H912 C892 0.932 . S
H913 C893 0.930 . S
H914 C894 0.929 . S
H915 C896 0.930 . S
H916 C898 0.932 . S
H917 C899 0.929 . S
H918 C900 0.928 . S
H919 C902 0.932 . S
C920 C921 1.264 . S
C920 C925 1.479 . S
C920 C930 1.465 . S
C921 C920 1.264 . S
C921 C923 1.339 . S
C921 H948 0.931 . S
C922 C923 1.395 . S
C922 C924 1.320 . S
C923 C921 1.339 . S
C923 C922 1.395 . S
C923 H949 0.929 . S
C924 C922 1.320 . S
C924 C925 1.405 . S
C924 H950 0.930 . S
C925 C920 1.479 . S
C925 C924 1.405 . S
C925 H951 0.931 . S
U926 O927 2.454 . S
U926 O928 2.458 . S
U926 C929 2.984 . S
U926 C930 2.847 . S
U926 C943 2.882 . S
U926 O944 2.441 . S
U926 O945 2.420 . S
U926 O946 2.455 . S
U926 O947 2.449 . S
O927 U926 2.454 . S
O927 C929 1.353 . S
O928 U926 2.458 . S
O928 C929 1.286 . S
C929 U926 2.984 . S
C929 O927 1.353 . S
C929 O928 1.286 . S
C929 C931 1.363 . S
C930 C920 1.465 . S
C930 U926 2.847 . S
C930 O944 1.249 . S
C930 O945 1.202 . S
C931 C929 1.363 . S
C931 C933 1.408 . S
C931 C936 1.342 . S
C932 C933 1.310 . S
C932 C935 1.461 . S
C932 H952 0.932 . S
C933 C931 1.408 . S
C933 C932 1.310 . S
C933 H953 0.930 . S
C934 C935 1.474 . S
C934 C936 1.285 . S
C934 H954 0.929 . S
C935 C932 1.461 . S
C935 C934 1.474 . S
C936 C931 1.342 . S
C936 C934 1.285 . S
C936 H955 0.930 . S
C937 C940 1.424 . S
C937 C942 1.245 . S
C937 C943 1.428 . S
C938 C941 1.260 . S
C938 C942 1.477 . S
C938 H956 0.932 . S
C939 C940 1.384 . S
C939 C941 1.479 . S
C939 H957 0.929 . S
C940 C937 1.424 . S
C940 C939 1.384 . S
C940 H958 0.928 . S
C941 C938 1.260 . S
C941 C939 1.479 . S
C942 C937 1.245 . S
C942 C938 1.477 . S
C942 H959 0.932 . S
C943 U926 2.882 . S
C943 C937 1.428 . S
C943 O946 1.301 . S
C943 O947 1.282 . S
O944 U926 2.441 . S
O944 C930 1.249 . S
O945 U926 2.420 . S
O945 C930 1.202 . S
O946 U926 2.455 . S
O946 C943 1.301 . S
O947 U926 2.449 . S
O947 C943 1.282 . S
H948 C921 0.931 . S
H949 C923 0.929 . S
H950 C924 0.930 . S
H951 C925 0.931 . S
H952 C932 0.932 . S
H953 C933 0.930 . S
H954 C934 0.929 . S
H955 C936 0.930 . S
H956 C938 0.932 . S
H957 C939 0.929 . S
H958 C940 0.928 . S
H959 C942 0.932 . S
C960 C961 1.264 . S
C960 C965 1.479 . S
C960 C970 1.465 . S
C961 C960 1.264 . S
C961 C963 1.339 . S
C961 H988 0.931 . S
C962 C963 1.395 . S
C962 C964 1.320 . S
C963 C961 1.339 . S
C963 C962 1.395 . S
C963 H989 0.929 . S
C964 C962 1.320 . S
C964 C965 1.405 . S
C964 H990 0.930 . S
C965 C960 1.479 . S
C965 C964 1.405 . S
C965 H991 0.931 . S
U966 O967 2.454 . S
U966 O968 2.458 . S
U966 C969 2.984 . S
U966 C970 2.847 . S
U966 C983 2.882 . S
U966 O984 2.441 . S
U966 O985 2.420 . S
U966 O986 2.455 . S
U966 O987 2.449 . S
O967 U966 2.454 . S
O967 C969 1.353 . S
O968 U966 2.458 . S
O968 C969 1.286 . S
C969 U966 2.984 . S
C969 O967 1.353 . S
C969 O968 1.286 . S
C969 C971 1.363 . S
C970 C960 1.465 . S
C970 U966 2.847 . S
C970 O984 1.249 . S
C970 O985 1.202 . S
C971 C969 1.363 . S
C971 C973 1.408 . S
C971 C976 1.342 . S
C972 C973 1.310 . S
C972 C975 1.461 . S
C972 H992 0.932 . S
C973 C971 1.408 . S
C973 C972 1.310 . S
C973 H993 0.930 . S
C974 C975 1.474 . S
C974 C976 1.285 . S
C974 H994 0.929 . S
C975 C972 1.461 . S
C975 C974 1.474 . S
C976 C971 1.342 . S
C976 C974 1.285 . S
C976 H995 0.930 . S
C977 C980 1.424 . S
C977 C982 1.245 . S
C977 C983 1.428 . S
C978 C981 1.260 . S
C978 C982 1.477 . S
C978 H996 0.932 . S
C979 C980 1.384 . S
C979 C981 1.479 . S
C979 H997 0.929 . S
C980 C977 1.424 . S
C980 C979 1.384 . S
C980 H998 0.928 . S
C981 C978 1.260 . S
C981 C979 1.479 . S
C982 C977 1.245 . S
C982 C978 1.477 . S
C982 H999 0.932 . S
C983 U966 2.882 . S
C983 C977 1.428 . S
C983 O986 1.301 . S
C983 O987 1.282 . S
O984 U966 2.441 . S
O984 C970 1.249 . S
O985 U966 2.420 . S
O985 C970 1.202 . S
O986 U966 2.455 . S
O986 C983 1.301 . S
O987 U966 2.449 . S
O987 C983 1.282 . S
H988 C961 0.931 . S
H989 C963 0.929 . S
H990 C964 0.930 . S
H991 C965 0.931 . S
H992 C972 0.932 . S
H993 C973 0.930 . S
H994 C974 0.929 . S
H995 C976 0.930 . S
H996 C978 0.932 . S
H997 C979 0.929 . S
H998 C980 0.928 . S
H999 C982 0.932 . S
C1000 C1001 1.264 . S
C1000 C1005 1.479 . S
C1000 C1010 1.465 . S
C1001 C1000 1.264 . S
C1001 C1003 1.339 . S
C1001 H1028 0.931 . S
C1002 C1003 1.395 . S
C1002 C1004 1.320 . S
C1003 C1001 1.339 . S
C1003 C1002 1.395 . S
C1003 H1029 0.929 . S
C1004 C1002 1.320 . S
C1004 C1005 1.405 . S
C1004 H1030 0.930 . S
C1005 C1000 1.479 . S
C1005 C1004 1.405 . S
C1005 H1031 0.931 . S
U1006 O1007 2.454 . S
U1006 O1008 2.458 . S
U1006 C1009 2.984 . S
U1006 C1010 2.847 . S
U1006 C1023 2.882 . S
U1006 O1024 2.441 . S
U1006 O1025 2.420 . S
U1006 O1026 2.455 . S
U1006 O1027 2.449 . S
O1007 U1006 2.454 . S
O1007 C1009 1.353 . S
O1008 U1006 2.458 . S
O1008 C1009 1.286 . S
C1009 U1006 2.984 . S
C1009 O1007 1.353 . S
C1009 O1008 1.286 . S
C1009 C1011 1.363 . S
C1010 C1000 1.465 . S
C1010 U1006 2.847 . S
C1010 O1024 1.249 . S
C1010 O1025 1.202 . S
C1011 C1009 1.363 . S
C1011 C1013 1.408 . S
C1011 C1016 1.342 . S
C1012 C1013 1.310 . S
C1012 C1015 1.461 . S
C1012 H1032 0.932 . S
C1013 C1011 1.408 . S
C1013 C1012 1.310 . S
C1013 H1033 0.930 . S
C1014 C1015 1.474 . S
C1014 C1016 1.285 . S
C1014 H1034 0.929 . S
C1015 C1012 1.461 . S
C1015 C1014 1.474 . S
C1016 C1011 1.342 . S
C1016 C1014 1.285 . S
C1016 H1035 0.930 . S
C1017 C1020 1.424 . S
C1017 C1022 1.245 . S
C1017 C1023 1.428 . S
C1018 C1021 1.260 . S
C1018 C1022 1.477 . S
C1018 H1036 0.932 . S
C1019 C1020 1.384 . S
C1019 C1021 1.479 . S
C1019 H1037 0.929 . S
C1020 C1017 1.424 . S
C1020 C1019 1.384 . S
C1020 H1038 0.928 . S
C1021 C1018 1.260 . S
C1021 C1019 1.479 . S
C1022 C1017 1.245 . S
C1022 C1018 1.477 . S
C1022 H1039 0.932 . S
C1023 U1006 2.882 . S
C1023 C1017 1.428 . S
C1023 O1026 1.301 . S
C1023 O1027 1.282 . S
O1024 U1006 2.441 . S
O1024 C1010 1.249 . S
O1025 U1006 2.420 . S
O1025 C1010 1.202 . S
O1026 U1006 2.455 . S
O1026 C1023 1.301 . S
O1027 U1006 2.449 . S
O1027 C1023 1.282 . S
H1028 C1001 0.931 . S
H1029 C1003 0.929 . S
H1030 C1004 0.930 . S
H1031 C1005 0.931 . S
H1032 C1012 0.932 . S
H1033 C1013 0.930 . S
H1034 C1014 0.929 . S
H1035 C1016 0.930 . S
H1036 C1018 0.932 . S
H1037 C1019 0.929 . S
H1038 C1020 0.928 . S
H1039 C1022 0.932 . S
C1040 C1041 1.264 . S
C1040 C1045 1.479 . S
C1040 C1050 1.465 . S
C1041 C1040 1.264 . S
C1041 C1043 1.339 . S
C1041 H1068 0.931 . S
C1042 C1043 1.395 . S
C1042 C1044 1.320 . S
C1043 C1041 1.339 . S
C1043 C1042 1.395 . S
C1043 H1069 0.929 . S
C1044 C1042 1.320 . S
C1044 C1045 1.405 . S
C1044 H1070 0.930 . S
C1045 C1040 1.479 . S
C1045 C1044 1.405 . S
C1045 H1071 0.931 . S
U1046 O1047 2.454 . S
U1046 O1048 2.458 . S
U1046 C1049 2.984 . S
U1046 C1050 2.847 . S
U1046 C1063 2.882 . S
U1046 O1064 2.441 . S
U1046 O1065 2.420 . S
U1046 O1066 2.455 . S
U1046 O1067 2.449 . S
O1047 U1046 2.454 . S
O1047 C1049 1.353 . S
O1048 U1046 2.458 . S
O1048 C1049 1.286 . S
C1049 U1046 2.984 . S
C1049 O1047 1.353 . S
C1049 O1048 1.286 . S
C1049 C1051 1.363 . S
C1050 C1040 1.465 . S
C1050 U1046 2.847 . S
C1050 O1064 1.249 . S
C1050 O1065 1.202 . S
C1051 C1049 1.363 . S
C1051 C1053 1.408 . S
C1051 C1056 1.342 . S
C1052 C1053 1.310 . S
C1052 C1055 1.461 . S
C1052 H1072 0.932 . S
C1053 C1051 1.408 . S
C1053 C1052 1.310 . S
C1053 H1073 0.930 . S
C1054 C1055 1.474 . S
C1054 C1056 1.285 . S
C1054 H1074 0.929 . S
C1055 C1052 1.461 . S
C1055 C1054 1.474 . S
C1056 C1051 1.342 . S
C1056 C1054 1.285 . S
C1056 H1075 0.930 . S
C1057 C1060 1.424 . S
C1057 C1062 1.245 . S
C1057 C1063 1.428 . S
C1058 C1061 1.260 . S
C1058 C1062 1.477 . S
C1058 H1076 0.932 . S
C1059 C1060 1.384 . S
C1059 C1061 1.479 . S
C1059 H1077 0.929 . S
C1060 C1057 1.424 . S
C1060 C1059 1.384 . S
C1060 H1078 0.928 . S
C1061 C1058 1.260 . S
C1061 C1059 1.479 . S
C1062 C1057 1.245 . S
C1062 C1058 1.477 . S
C1062 H1079 0.932 . S
C1063 U1046 2.882 . S
C1063 C1057 1.428 . S
C1063 O1066 1.301 . S
C1063 O1067 1.282 . S
O1064 U1046 2.441 . S
O1064 C1050 1.249 . S
O1065 U1046 2.420 . S
O1065 C1050 1.202 . S
O1066 U1046 2.455 . S
O1066 C1063 1.301 . S
O1067 U1046 2.449 . S
O1067 C1063 1.282 . S
H1068 C1041 0.931 . S
H1069 C1043 0.929 . S
H1070 C1044 0.930 . S
H1071 C1045 0.931 . S
H1072 C1052 0.932 . S
H1073 C1053 0.930 . S
H1074 C1054 0.929 . S
H1075 C1056 0.930 . S
H1076 C1058 0.932 . S
H1077 C1059 0.929 . S
H1078 C1060 0.928 . S
H1079 C1062 0.932 . S
C1080 C1081 1.264 . S
C1080 C1085 1.479 . S
C1080 C1090 1.465 . S
C1081 C1080 1.264 . S
C1081 C1083 1.339 . S
C1081 H1108 0.931 . S
C1082 C1083 1.395 . S
C1082 C1084 1.320 . S
C1083 C1081 1.339 . S
C1083 C1082 1.395 . S
C1083 H1109 0.929 . S
C1084 C1082 1.320 . S
C1084 C1085 1.405 . S
C1084 H1110 0.930 . S
C1085 C1080 1.479 . S
C1085 C1084 1.405 . S
C1085 H1111 0.931 . S
U1086 O1087 2.454 . S
U1086 O1088 2.458 . S
U1086 C1089 2.984 . S
U1086 C1090 2.847 . S
U1086 C1103 2.882 . S
U1086 O1104 2.441 . S
U1086 O1105 2.420 . S
U1086 O1106 2.455 . S
U1086 O1107 2.449 . S
O1087 U1086 2.454 . S
O1087 C1089 1.353 . S
O1088 U1086 2.458 . S
O1088 C1089 1.286 . S
C1089 U1086 2.984 . S
C1089 O1087 1.353 . S
C1089 O1088 1.286 . S
C1089 C1091 1.363 . S
C1090 C1080 1.465 . S
C1090 U1086 2.847 . S
C1090 O1104 1.249 . S
C1090 O1105 1.202 . S
C1091 C1089 1.363 . S
C1091 C1093 1.408 . S
C1091 C1096 1.342 . S
C1092 C1093 1.310 . S
C1092 C1095 1.461 . S
C1092 H1112 0.932 . S
C1093 C1091 1.408 . S
C1093 C1092 1.310 . S
C1093 H1113 0.930 . S
C1094 C1095 1.474 . S
C1094 C1096 1.285 . S
C1094 H1114 0.929 . S
C1095 C1092 1.461 . S
C1095 C1094 1.474 . S
C1096 C1091 1.342 . S
C1096 C1094 1.285 . S
C1096 H1115 0.930 . S
C1097 C1100 1.424 . S
C1097 C1102 1.245 . S
C1097 C1103 1.428 . S
C1098 C1101 1.260 . S
C1098 C1102 1.477 . S
C1098 H1116 0.932 . S
C1099 C1100 1.384 . S
C1099 C1101 1.479 . S
C1099 H1117 0.929 . S
C1100 C1097 1.424 . S
C1100 C1099 1.384 . S
C1100 H1118 0.928 . S
C1101 C1098 1.260 . S
C1101 C1099 1.479 . S
C1102 C1097 1.245 . S
C1102 C1098 1.477 . S
C1102 H1119 0.932 . S
C1103 U1086 2.882 . S
C1103 C1097 1.428 . S
C1103 O1106 1.301 . S
C1103 O1107 1.282 . S
O1104 U1086 2.441 . S
O1104 C1090 1.249 . S
O1105 U1086 2.420 . S
O1105 C1090 1.202 . S
O1106 U1086 2.455 . S
O1106 C1103 1.301 . S
O1107 U1086 2.449 . S
O1107 C1103 1.282 . S
H1108 C1081 0.931 . S
H1109 C1083 0.929 . S
H1110 C1084 0.930 . S
H1111 C1085 0.931 . S
H1112 C1092 0.932 . S
H1113 C1093 0.930 . S
H1114 C1094 0.929 . S
H1115 C1096 0.930 . S
H1116 C1098 0.932 . S
H1117 C1099 0.929 . S
H1118 C1100 0.928 . S
H1119 C1102 0.932 . S
C1120 C1121 1.264 . S
C1120 C1125 1.479 . S
C1120 C1130 1.465 . S
C1121 C1120 1.264 . S
C1121 C1123 1.339 . S
C1121 H1148 0.931 . S
C1122 C1123 1.395 . S
C1122 C1124 1.320 . S
C1123 C1121 1.339 . S
C1123 C1122 1.395 . S
C1123 H1149 0.929 . S
C1124 C1122 1.320 . S
C1124 C1125 1.405 . S
C1124 H1150 0.930 . S
C1125 C1120 1.479 . S
C1125 C1124 1.405 . S
C1125 H1151 0.931 . S
U1126 O1127 2.454 . S
U1126 O1128 2.458 . S
U1126 C1129 2.984 . S
U1126 C1130 2.847 . S
U1126 C1143 2.882 . S
U1126 O1144 2.441 . S
U1126 O1145 2.420 . S
U1126 O1146 2.455 . S
U1126 O1147 2.449 . S
O1127 U1126 2.454 . S
O1127 C1129 1.353 . S
O1128 U1126 2.458 . S
O1128 C1129 1.286 . S
C1129 U1126 2.984 . S
C1129 O1127 1.353 . S
C1129 O1128 1.286 . S
C1129 C1131 1.363 . S
C1130 C1120 1.465 . S
C1130 U1126 2.847 . S
C1130 O1144 1.249 . S
C1130 O1145 1.202 . S
C1131 C1129 1.363 . S
C1131 C1133 1.408 . S
C1131 C1136 1.342 . S
C1132 C1133 1.310 . S
C1132 C1135 1.461 . S
C1132 H1152 0.932 . S
C1133 C1131 1.408 . S
C1133 C1132 1.310 . S
C1133 H1153 0.930 . S
C1134 C1135 1.474 . S
C1134 C1136 1.285 . S
C1134 H1154 0.929 . S
C1135 C1132 1.461 . S
C1135 C1134 1.474 . S
C1136 C1131 1.342 . S
C1136 C1134 1.285 . S
C1136 H1155 0.930 . S
C1137 C1140 1.424 . S
C1137 C1142 1.245 . S
C1137 C1143 1.428 . S
C1138 C1141 1.260 . S
C1138 C1142 1.477 . S
C1138 H1156 0.932 . S
C1139 C1140 1.384 . S
C1139 C1141 1.479 . S
C1139 H1157 0.929 . S
C1140 C1137 1.424 . S
C1140 C1139 1.384 . S
C1140 H1158 0.928 . S
C1141 C1138 1.260 . S
C1141 C1139 1.479 . S
C1142 C1137 1.245 . S
C1142 C1138 1.477 . S
C1142 H1159 0.932 . S
C1143 U1126 2.882 . S
C1143 C1137 1.428 . S
C1143 O1146 1.301 . S
C1143 O1147 1.282 . S
O1144 U1126 2.441 . S
O1144 C1130 1.249 . S
O1145 U1126 2.420 . S
O1145 C1130 1.202 . S
O1146 U1126 2.455 . S
O1146 C1143 1.301 . S
O1147 U1126 2.449 . S
O1147 C1143 1.282 . S
H1148 C1121 0.931 . S
H1149 C1123 0.929 . S
H1150 C1124 0.930 . S
H1151 C1125 0.931 . S
H1152 C1132 0.932 . S
H1153 C1133 0.930 . S
H1154 C1134 0.929 . S
H1155 C1136 0.930 . S
H1156 C1138 0.932 . S
H1157 C1139 0.929 . S
H1158 C1140 0.928 . S
H1159 C1142 0.932 . S
C1160 C1161 1.264 . S
C1160 C1165 1.479 . S
C1160 C1170 1.465 . S
C1161 C1160 1.264 . S
C1161 C1163 1.339 . S
C1161 H1188 0.931 . S
C1162 C1163 1.395 . S
C1162 C1164 1.320 . S
C1163 C1161 1.339 . S
C1163 C1162 1.395 . S
C1163 H1189 0.929 . S
C1164 C1162 1.320 . S
C1164 C1165 1.405 . S
C1164 H1190 0.930 . S
C1165 C1160 1.479 . S
C1165 C1164 1.405 . S
C1165 H1191 0.931 . S
U1166 O1167 2.454 . S
U1166 O1168 2.458 . S
U1166 C1169 2.984 . S
U1166 C1170 2.847 . S
U1166 C1183 2.882 . S
U1166 O1184 2.441 . S
U1166 O1185 2.420 . S
U1166 O1186 2.455 . S
U1166 O1187 2.449 . S
O1167 U1166 2.454 . S
O1167 C1169 1.353 . S
O1168 U1166 2.458 . S
O1168 C1169 1.286 . S
C1169 U1166 2.984 . S
C1169 O1167 1.353 . S
C1169 O1168 1.286 . S
C1169 C1171 1.363 . S
C1170 C1160 1.465 . S
C1170 U1166 2.847 . S
C1170 O1184 1.249 . S
C1170 O1185 1.202 . S
C1171 C1169 1.363 . S
C1171 C1173 1.408 . S
C1171 C1176 1.342 . S
C1172 C1173 1.310 . S
C1172 C1175 1.461 . S
C1172 H1192 0.932 . S
C1173 C1171 1.408 . S
C1173 C1172 1.310 . S
C1173 H1193 0.930 . S
C1174 C1175 1.474 . S
C1174 C1176 1.285 . S
C1174 H1194 0.929 . S
C1175 C1172 1.461 . S
C1175 C1174 1.474 . S
C1176 C1171 1.342 . S
C1176 C1174 1.285 . S
C1176 H1195 0.930 . S
C1177 C1180 1.424 . S
C1177 C1182 1.245 . S
C1177 C1183 1.428 . S
C1178 C1181 1.260 . S
C1178 C1182 1.477 . S
C1178 H1196 0.932 . S
C1179 C1180 1.384 . S
C1179 C1181 1.479 . S
C1179 H1197 0.929 . S
C1180 C1177 1.424 . S
C1180 C1179 1.384 . S
C1180 H1198 0.928 . S
C1181 C1178 1.260 . S
C1181 C1179 1.479 . S
C1182 C1177 1.245 . S
C1182 C1178 1.477 . S
C1182 H1199 0.932 . S
C1183 U1166 2.882 . S
C1183 C1177 1.428 . S
C1183 O1186 1.301 . S
C1183 O1187 1.282 . S
O1184 U1166 2.441 . S
O1184 C1170 1.249 . S
O1185 U1166 2.420 . S
O1185 C1170 1.202 . S
O1186 U1166 2.455 . S
O1186 C1183 1.301 . S
O1187 U1166 2.449 . S
O1187 C1183 1.282 . S
H1188 C1161 0.931 . S
H1189 C1163 0.929 . S
H1190 C1164 0.930 . S
H1191 C1165 0.931 . S
H1192 C1172 0.932 . S
H1193 C1173 0.930 . S
H1194 C1174 0.929 . S
H1195 C1176 0.930 . S
H1196 C1178 0.932 . S
H1197 C1179 0.929 . S
H1198 C1180 0.928 . S
H1199 C1182 0.932 . S
C1200 C1201 1.264 . S
C1200 C1205 1.479 . S
C1200 C1210 1.465 . S
C1201 C1200 1.264 . S
C1201 C1203 1.339 . S
C1201 H1228 0.931 . S
C1202 C1203 1.395 . S
C1202 C1204 1.320 . S
C1203 C1201 1.339 . S
C1203 C1202 1.395 . S
C1203 H1229 0.929 . S
C1204 C1202 1.320 . S
C1204 C1205 1.405 . S
C1204 H1230 0.930 . S
C1205 C1200 1.479 . S
C1205 C1204 1.405 . S
C1205 H1231 0.931 . S
U1206 O1207 2.454 . S
U1206 O1208 2.458 . S
U1206 C1209 2.984 . S
U1206 C1210 2.847 . S
U1206 C1223 2.882 . S
U1206 O1224 2.441 . S
U1206 O1225 2.420 . S
U1206 O1226 2.455 . S
U1206 O1227 2.449 . S
O1207 U1206 2.454 . S
O1207 C1209 1.353 . S
O1208 U1206 2.458 . S
O1208 C1209 1.286 . S
C1209 U1206 2.984 . S
C1209 O1207 1.353 . S
C1209 O1208 1.286 . S
C1209 C1211 1.363 . S
C1210 C1200 1.465 . S
C1210 U1206 2.847 . S
C1210 O1224 1.249 . S
C1210 O1225 1.202 . S
C1211 C1209 1.363 . S
C1211 C1213 1.408 . S
C1211 C1216 1.342 . S
C1212 C1213 1.310 . S
C1212 C1215 1.461 . S
C1212 H1232 0.932 . S
C1213 C1211 1.408 . S
C1213 C1212 1.310 . S
C1213 H1233 0.930 . S
C1214 C1215 1.474 . S
C1214 C1216 1.285 . S
C1214 H1234 0.929 . S
C1215 C1212 1.461 . S
C1215 C1214 1.474 . S
C1216 C1211 1.342 . S
C1216 C1214 1.285 . S
C1216 H1235 0.930 . S
C1217 C1220 1.424 . S
C1217 C1222 1.245 . S
C1217 C1223 1.428 . S
C1218 C1221 1.260 . S
C1218 C1222 1.477 . S
C1218 H1236 0.932 . S
C1219 C1220 1.384 . S
C1219 C1221 1.479 . S
C1219 H1237 0.929 . S
C1220 C1217 1.424 . S
C1220 C1219 1.384 . S
C1220 H1238 0.928 . S
C1221 C1218 1.260 . S
C1221 C1219 1.479 . S
C1222 C1217 1.245 . S
C1222 C1218 1.477 . S
C1222 H1239 0.932 . S
C1223 U1206 2.882 . S
C1223 C1217 1.428 . S
C1223 O1226 1.301 . S
C1223 O1227 1.282 . S
O1224 U1206 2.441 . S
O1224 C1210 1.249 . S
O1225 U1206 2.420 . S
O1225 C1210 1.202 . S
O1226 U1206 2.455 . S
O1226 C1223 1.301 . S
O1227 U1206 2.449 . S
O1227 C1223 1.282 . S
H1228 C1201 0.931 . S
H1229 C1203 0.929 . S
H1230 C1204 0.930 . S
H1231 C1205 0.931 . S
H1232 C1212 0.932 . S
H1233 C1213 0.930 . S
H1234 C1214 0.929 . S
H1235 C1216 0.930 . S
H1236 C1218 0.932 . S
H1237 C1219 0.929 . S
H1238 C1220 0.928 . S
H1239 C1222 0.932 . S
C1240 C1241 1.264 . S
C1240 C1245 1.479 . S
C1240 C1250 1.465 . S
C1241 C1240 1.264 . S
C1241 C1243 1.339 . S
C1241 H1268 0.931 . S
C1242 C1243 1.395 . S
C1242 C1244 1.320 . S
C1243 C1241 1.339 . S
C1243 C1242 1.395 . S
C1243 H1269 0.929 . S
C1244 C1242 1.320 . S
C1244 C1245 1.405 . S
C1244 H1270 0.930 . S
C1245 C1240 1.479 . S
C1245 C1244 1.405 . S
C1245 H1271 0.931 . S
U1246 O1247 2.454 . S
U1246 O1248 2.458 . S
U1246 C1249 2.984 . S
U1246 C1250 2.847 . S
U1246 C1263 2.882 . S
U1246 O1264 2.441 . S
U1246 O1265 2.420 . S
U1246 O1266 2.455 . S
U1246 O1267 2.449 . S
O1247 U1246 2.454 . S
O1247 C1249 1.353 . S
O1248 U1246 2.458 . S
O1248 C1249 1.286 . S
C1249 U1246 2.984 . S
C1249 O1247 1.353 . S
C1249 O1248 1.286 . S
C1249 C1251 1.363 . S
C1250 C1240 1.465 . S
C1250 U1246 2.847 . S
C1250 O1264 1.249 . S
C1250 O1265 1.202 . S
C1251 C1249 1.363 . S
C1251 C1253 1.408 . S
C1251 C1256 1.342 . S
C1252 C1253 1.310 . S
C1252 C1255 1.461 . S
C1252 H1272 0.932 . S
C1253 C1251 1.408 . S
C1253 C1252 1.310 . S
C1253 H1273 0.930 . S
C1254 C1255 1.474 . S
C1254 C1256 1.285 . S
C1254 H1274 0.929 . S
C1255 C1252 1.461 . S
C1255 C1254 1.474 . S
C1256 C1251 1.342 . S
C1256 C1254 1.285 . S
C1256 H1275 0.930 . S
C1257 C1260 1.424 . S
C1257 C1262 1.245 . S
C1257 C1263 1.428 . S
C1258 C1261 1.260 . S
C1258 C1262 1.477 . S
C1258 H1276 0.932 . S
C1259 C1260 1.384 . S
C1259 C1261 1.479 . S
C1259 H1277 0.929 . S
C1260 C1257 1.424 . S
C1260 C1259 1.384 . S
C1260 H1278 0.928 . S
C1261 C1258 1.260 . S
C1261 C1259 1.479 . S
C1262 C1257 1.245 . S
C1262 C1258 1.477 . S
C1262 H1279 0.932 . S
C1263 U1246 2.882 . S
C1263 C1257 1.428 . S
C1263 O1266 1.301 . S
C1263 O1267 1.282 . S
O1264 U1246 2.441 . S
O1264 C1250 1.249 . S
O1265 U1246 2.420 . S
O1265 C1250 1.202 . S
O1266 U1246 2.455 . S
O1266 C1263 1.301 . S
O1267 U1246 2.449 . S
O1267 C1263 1.282 . S
H1268 C1241 0.931 . S
H1269 C1243 0.929 . S
H1270 C1244 0.930 . S
H1271 C1245 0.931 . S
H1272 C1252 0.932 . S
H1273 C1253 0.930 . S
H1274 C1254 0.929 . S
H1275 C1256 0.930 . S
H1276 C1258 0.932 . S
H1277 C1259 0.929 . S
H1278 C1260 0.928 . S
H1279 C1262 0.932 . S
C1280 C1281 1.264 . S
C1280 C1285 1.479 . S
C1280 C1290 1.465 . S
C1281 C1280 1.264 . S
C1281 C1283 1.339 . S
C1281 H1308 0.931 . S
C1282 C1283 1.395 . S
C1282 C1284 1.320 . S
C1283 C1281 1.339 . S
C1283 C1282 1.395 . S
C1283 H1309 0.929 . S
C1284 C1282 1.320 . S
C1284 C1285 1.405 . S
C1284 H1310 0.930 . S
C1285 C1280 1.479 . S
C1285 C1284 1.405 . S
C1285 H1311 0.931 . S
U1286 O1287 2.454 . S
U1286 O1288 2.458 . S
U1286 C1289 2.984 . S
U1286 C1290 2.847 . S
U1286 C1303 2.882 . S
U1286 O1304 2.441 . S
U1286 O1305 2.420 . S
U1286 O1306 2.455 . S
U1286 O1307 2.449 . S
O1287 U1286 2.454 . S
O1287 C1289 1.353 . S
O1288 U1286 2.458 . S
O1288 C1289 1.286 . S
C1289 U1286 2.984 . S
C1289 O1287 1.353 . S
C1289 O1288 1.286 . S
C1289 C1291 1.363 . S
C1290 C1280 1.465 . S
C1290 U1286 2.847 . S
C1290 O1304 1.249 . S
C1290 O1305 1.202 . S
C1291 C1289 1.363 . S
C1291 C1293 1.408 . S
C1291 C1296 1.342 . S
C1292 C1293 1.310 . S
C1292 C1295 1.461 . S
C1292 H1312 0.932 . S
C1293 C1291 1.408 . S
C1293 C1292 1.310 . S
C1293 H1313 0.930 . S
C1294 C1295 1.474 . S
C1294 C1296 1.285 . S
C1294 H1314 0.929 . S
C1295 C1292 1.461 . S
C1295 C1294 1.474 . S
C1296 C1291 1.342 . S
C1296 C1294 1.285 . S
C1296 H1315 0.930 . S
C1297 C1300 1.424 . S
C1297 C1302 1.245 . S
C1297 C1303 1.428 . S
C1298 C1301 1.260 . S
C1298 C1302 1.477 . S
C1298 H1316 0.932 . S
C1299 C1300 1.384 . S
C1299 C1301 1.479 . S
C1299 H1317 0.929 . S
C1300 C1297 1.424 . S
C1300 C1299 1.384 . S
C1300 H1318 0.928 . S
C1301 C1298 1.260 . S
C1301 C1299 1.479 . S
C1302 C1297 1.245 . S
C1302 C1298 1.477 . S
C1302 H1319 0.932 . S
C1303 U1286 2.882 . S
C1303 C1297 1.428 . S
C1303 O1306 1.301 . S
C1303 O1307 1.282 . S
O1304 U1286 2.441 . S
O1304 C1290 1.249 . S
O1305 U1286 2.420 . S
O1305 C1290 1.202 . S
O1306 U1286 2.455 . S
O1306 C1303 1.301 . S
O1307 U1286 2.449 . S
O1307 C1303 1.282 . S
H1308 C1281 0.931 . S
H1309 C1283 0.929 . S
H1310 C1284 0.930 . S
H1311 C1285 0.931 . S
H1312 C1292 0.932 . S
H1313 C1293 0.930 . S
H1314 C1294 0.929 . S
H1315 C1296 0.930 . S
H1316 C1298 0.932 . S
H1317 C1299 0.929 . S
H1318 C1300 0.928 . S
H1319 C1302 0.932 . S
C1320 C1321 1.264 . S
C1320 C1325 1.479 . S
C1320 C1330 1.465 . S
C1321 C1320 1.264 . S
C1321 C1323 1.339 . S
C1321 H1348 0.931 . S
C1322 C1323 1.395 . S
C1322 C1324 1.320 . S
C1323 C1321 1.339 . S
C1323 C1322 1.395 . S
C1323 H1349 0.929 . S
C1324 C1322 1.320 . S
C1324 C1325 1.405 . S
C1324 H1350 0.930 . S
C1325 C1320 1.479 . S
C1325 C1324 1.405 . S
C1325 H1351 0.931 . S
U1326 O1327 2.454 . S
U1326 O1328 2.458 . S
U1326 C1329 2.984 . S
U1326 C1330 2.847 . S
U1326 C1343 2.882 . S
U1326 O1344 2.441 . S
U1326 O1345 2.420 . S
U1326 O1346 2.455 . S
U1326 O1347 2.449 . S
O1327 U1326 2.454 . S
O1327 C1329 1.353 . S
O1328 U1326 2.458 . S
O1328 C1329 1.286 . S
C1329 U1326 2.984 . S
C1329 O1327 1.353 . S
C1329 O1328 1.286 . S
C1329 C1331 1.363 . S
C1330 C1320 1.465 . S
C1330 U1326 2.847 . S
C1330 O1344 1.249 . S
C1330 O1345 1.202 . S
C1331 C1329 1.363 . S
C1331 C1333 1.408 . S
C1331 C1336 1.342 . S
C1332 C1333 1.310 . S
C1332 C1335 1.461 . S
C1332 H1352 0.932 . S
C1333 C1331 1.408 . S
C1333 C1332 1.310 . S
C1333 H1353 0.930 . S
C1334 C1335 1.474 . S
C1334 C1336 1.285 . S
C1334 H1354 0.929 . S
C1335 C1332 1.461 . S
C1335 C1334 1.474 . S
C1336 C1331 1.342 . S
C1336 C1334 1.285 . S
C1336 H1355 0.930 . S
C1337 C1340 1.424 . S
C1337 C1342 1.245 . S
C1337 C1343 1.428 . S
C1338 C1341 1.260 . S
C1338 C1342 1.477 . S
C1338 H1356 0.932 . S
C1339 C1340 1.384 . S
C1339 C1341 1.479 . S
C1339 H1357 0.929 . S
C1340 C1337 1.424 . S
C1340 C1339 1.384 . S
C1340 H1358 0.928 . S
C1341 C1338 1.260 . S
C1341 C1339 1.479 . S
C1342 C1337 1.245 . S
C1342 C1338 1.477 . S
C1342 H1359 0.932 . S
C1343 U1326 2.882 . S
C1343 C1337 1.428 . S
C1343 O1346 1.301 . S
C1343 O1347 1.282 . S
O1344 U1326 2.441 . S
O1344 C1330 1.249 . S
O1345 U1326 2.420 . S
O1345 C1330 1.202 . S
O1346 U1326 2.455 . S
O1346 C1343 1.301 . S
O1347 U1326 2.449 . S
O1347 C1343 1.282 . S
H1348 C1321 0.931 . S
H1349 C1323 0.929 . S
H1350 C1324 0.930 . S
H1351 C1325 0.931 . S
H1352 C1332 0.932 . S
H1353 C1333 0.930 . S
H1354 C1334 0.929 . S
H1355 C1336 0.930 . S
H1356 C1338 0.932 . S
H1357 C1339 0.929 . S
H1358 C1340 0.928 . S
H1359 C1342 0.932 . S
C1360 C1361 1.264 . S
C1360 C1365 1.479 . S
C1360 C1370 1.465 . S
C1361 C1360 1.264 . S
C1361 C1363 1.339 . S
C1361 H1388 0.931 . S
C1362 C1363 1.395 . S
C1362 C1364 1.320 . S
C1363 C1361 1.339 . S
C1363 C1362 1.395 . S
C1363 H1389 0.929 . S
C1364 C1362 1.320 . S
C1364 C1365 1.405 . S
C1364 H1390 0.930 . S
C1365 C1360 1.479 . S
C1365 C1364 1.405 . S
C1365 H1391 0.931 . S
U1366 O1367 2.454 . S
U1366 O1368 2.458 . S
U1366 C1369 2.984 . S
U1366 C1370 2.847 . S
U1366 C1383 2.882 . S
U1366 O1384 2.441 . S
U1366 O1385 2.420 . S
U1366 O1386 2.455 . S
U1366 O1387 2.449 . S
O1367 U1366 2.454 . S
O1367 C1369 1.353 . S
O1368 U1366 2.458 . S
O1368 C1369 1.286 . S
C1369 U1366 2.984 . S
C1369 O1367 1.353 . S
C1369 O1368 1.286 . S
C1369 C1371 1.363 . S
C1370 C1360 1.465 . S
C1370 U1366 2.847 . S
C1370 O1384 1.249 . S
C1370 O1385 1.202 . S
C1371 C1369 1.363 . S
C1371 C1373 1.408 . S
C1371 C1376 1.342 . S
C1372 C1373 1.310 . S
C1372 C1375 1.461 . S
C1372 H1392 0.932 . S
C1373 C1371 1.408 . S
C1373 C1372 1.310 . S
C1373 H1393 0.930 . S
C1374 C1375 1.474 . S
C1374 C1376 1.285 . S
C1374 H1394 0.929 . S
C1375 C1372 1.461 . S
C1375 C1374 1.474 . S
C1376 C1371 1.342 . S
C1376 C1374 1.285 . S
C1376 H1395 0.930 . S
C1377 C1380 1.424 . S
C1377 C1382 1.245 . S
C1377 C1383 1.428 . S
C1378 C1381 1.260 . S
C1378 C1382 1.477 . S
C1378 H1396 0.932 . S
C1379 C1380 1.384 . S
C1379 C1381 1.479 . S
C1379 H1397 0.929 . S
C1380 C1377 1.424 . S
C1380 C1379 1.384 . S
C1380 H1398 0.928 . S
C1381 C1378 1.260 . S
C1381 C1379 1.479 . S
C1382 C1377 1.245 . S
C1382 C1378 1.477 . S
C1382 H1399 0.932 . S
C1383 U1366 2.882 . S
C1383 C1377 1.428 . S
C1383 O1386 1.301 . S
C1383 O1387 1.282 . S
O1384 U1366 2.441 . S
O1384 C1370 1.249 . S
O1385 U1366 2.420 . S
O1385 C1370 1.202 . S
O1386 U1366 2.455 . S
O1386 C1383 1.301 . S
O1387 U1366 2.449 . S
O1387 C1383 1.282 . S
H1388 C1361 0.931 . S
H1389 C1363 0.929 . S
H1390 C1364 0.930 . S
H1391 C1365 0.931 . S
H1392 C1372 0.932 . S
H1393 C1373 0.930 . S
H1394 C1374 0.929 . S
H1395 C1376 0.930 . S
H1396 C1378 0.932 . S
H1397 C1379 0.929 . S
H1398 C1380 0.928 . S
H1399 C1382 0.932 . S
C1400 C1401 1.264 . S
C1400 C1405 1.479 . S
C1400 C1410 1.465 . S
C1401 C1400 1.264 . S
C1401 C1403 1.339 . S
C1401 H1428 0.931 . S
C1402 C1403 1.395 . S
C1402 C1404 1.320 . S
C1403 C1401 1.339 . S
C1403 C1402 1.395 . S
C1403 H1429 0.929 . S
C1404 C1402 1.320 . S
C1404 C1405 1.405 . S
C1404 H1430 0.930 . S
C1405 C1400 1.479 . S
C1405 C1404 1.405 . S
C1405 H1431 0.931 . S
U1406 O1407 2.454 . S
U1406 O1408 2.458 . S
U1406 C1409 2.984 . S
U1406 C1410 2.847 . S
U1406 C1423 2.882 . S
U1406 O1424 2.441 . S
U1406 O1425 2.420 . S
U1406 O1426 2.455 . S
U1406 O1427 2.449 . S
O1407 U1406 2.454 . S
O1407 C1409 1.353 . S
O1408 U1406 2.458 . S
O1408 C1409 1.286 . S
C1409 U1406 2.984 . S
C1409 O1407 1.353 . S
C1409 O1408 1.286 . S
C1409 C1411 1.363 . S
C1410 C1400 1.465 . S
C1410 U1406 2.847 . S
C1410 O1424 1.249 . S
C1410 O1425 1.202 . S
C1411 C1409 1.363 . S
C1411 C1413 1.408 . S
C1411 C1416 1.342 . S
C1412 C1413 1.310 . S
C1412 C1415 1.461 . S
C1412 H1432 0.932 . S
C1413 C1411 1.408 . S
C1413 C1412 1.310 . S
C1413 H1433 0.930 . S
C1414 C1415 1.474 . S
C1414 C1416 1.285 . S
C1414 H1434 0.929 . S
C1415 C1412 1.461 . S
C1415 C1414 1.474 . S
C1416 C1411 1.342 . S
C1416 C1414 1.285 . S
C1416 H1435 0.930 . S
C1417 C1420 1.424 . S
C1417 C1422 1.245 . S
C1417 C1423 1.428 . S
C1418 C1421 1.260 . S
C1418 C1422 1.477 . S
C1418 H1436 0.932 . S
C1419 C1420 1.384 . S
C1419 C1421 1.479 . S
C1419 H1437 0.929 . S
C1420 C1417 1.424 . S
C1420 C1419 1.384 . S
C1420 H1438 0.928 . S
C1421 C1418 1.260 . S
C1421 C1419 1.479 . S
C1422 C1417 1.245 . S
C1422 C1418 1.477 . S
C1422 H1439 0.932 . S
C1423 U1406 2.882 . S
C1423 C1417 1.428 . S
C1423 O1426 1.301 . S
C1423 O1427 1.282 . S
O1424 U1406 2.441 . S
O1424 C1410 1.249 . S
O1425 U1406 2.420 . S
O1425 C1410 1.202 . S
O1426 U1406 2.455 . S
O1426 C1423 1.301 . S
O1427 U1406 2.449 . S
O1427 C1423 1.282 . S
H1428 C1401 0.931 . S
H1429 C1403 0.929 . S
H1430 C1404 0.930 . S
H1431 C1405 0.931 . S
H1432 C1412 0.932 . S
H1433 C1413 0.930 . S
H1434 C1414 0.929 . S
H1435 C1416 0.930 . S
H1436 C1418 0.932 . S
H1437 C1419 0.929 . S
H1438 C1420 0.928 . S
H1439 C1422 0.932 . S
C1440 C1441 1.264 . S
C1440 C1445 1.479 . S
C1440 C1450 1.465 . S
C1441 C1440 1.264 . S
C1441 C1443 1.339 . S
C1441 H1468 0.931 . S
C1442 C1443 1.395 . S
C1442 C1444 1.320 . S
C1443 C1441 1.339 . S
C1443 C1442 1.395 . S
C1443 H1469 0.929 . S
C1444 C1442 1.320 . S
C1444 C1445 1.405 . S
C1444 H1470 0.930 . S
C1445 C1440 1.479 . S
C1445 C1444 1.405 . S
C1445 H1471 0.931 . S
U1446 O1447 2.454 . S
U1446 O1448 2.458 . S
U1446 C1449 2.984 . S
U1446 C1450 2.847 . S
U1446 C1463 2.882 . S
U1446 O1464 2.441 . S
U1446 O1465 2.420 . S
U1446 O1466 2.455 . S
U1446 O1467 2.449 . S
O1447 U1446 2.454 . S
O1447 C1449 1.353 . S
O1448 U1446 2.458 . S
O1448 C1449 1.286 . S
C1449 U1446 2.984 . S
C1449 O1447 1.353 . S
C1449 O1448 1.286 . S
C1449 C1451 1.363 . S
C1450 C1440 1.465 . S
C1450 U1446 2.847 . S
C1450 O1464 1.249 . S
C1450 O1465 1.202 . S
C1451 C1449 1.363 . S
C1451 C1453 1.408 . S
C1451 C1456 1.342 . S
C1452 C1453 1.310 . S
C1452 C1455 1.461 . S
C1452 H1472 0.932 . S
C1453 C1451 1.408 . S
C1453 C1452 1.310 . S
C1453 H1473 0.930 . S
C1454 C1455 1.474 . S
C1454 C1456 1.285 . S
C1454 H1474 0.929 . S
C1455 C1452 1.461 . S
C1455 C1454 1.474 . S
C1456 C1451 1.342 . S
C1456 C1454 1.285 . S
C1456 H1475 0.930 . S
C1457 C1460 1.424 . S
C1457 C1462 1.245 . S
C1457 C1463 1.428 . S
C1458 C1461 1.260 . S
C1458 C1462 1.477 . S
C1458 H1476 0.932 . S
C1459 C1460 1.384 . S
C1459 C1461 1.479 . S
C1459 H1477 0.929 . S
C1460 C1457 1.424 . S
C1460 C1459 1.384 . S
C1460 H1478 0.928 . S
C1461 C1458 1.260 . S
C1461 C1459 1.479 . S
C1462 C1457 1.245 . S
C1462 C1458 1.477 . S
C1462 H1479 0.932 . S
C1463 U1446 2.882 . S
C1463 C1457 1.428 . S
C1463 O1466 1.301 . S
C1463 O1467 1.282 . S
O1464 U1446 2.441 . S
O1464 C1450 1.249 . S
O1465 U1446 2.420 . S
O1465 C1450 1.202 . S
O1466 U1446 2.455 . S
O1466 C1463 1.301 . S
O1467 U1446 2.449 . S
O1467 C1463 1.282 . S
H1468 C1441 0.931 . S
H1469 C1443 0.929 . S
H1470 C1444 0.930 . S
H1471 C1445 0.931 . S
H1472 C1452 0.932 . S
H1473 C1453 0.930 . S
H1474 C1454 0.929 . S
H1475 C1456 0.930 . S
H1476 C1458 0.932 . S
H1477 C1459 0.929 . S
H1478 C1460 0.928 . S
H1479 C1462 0.932 . S
C1480 C1481 1.264 . S
C1480 C1485 1.479 . S
C1480 C1490 1.465 . S
C1481 C1480 1.264 . S
C1481 C1483 1.339 . S
C1481 H1508 0.931 . S
C1482 C1483 1.395 . S
C1482 C1484 1.320 . S
C1483 C1481 1.339 . S
C1483 C1482 1.395 . S
C1483 H1509 0.929 . S
C1484 C1482 1.320 . S
C1484 C1485 1.405 . S
C1484 H1510 0.930 . S
C1485 C1480 1.479 . S
C1485 C1484 1.405 . S
C1485 H1511 0.931 . S
U1486 O1487 2.454 . S
U1486 O1488 2.458 . S
U1486 C1489 2.984 . S
U1486 C1490 2.847 . S
U1486 C1503 2.882 . S
U1486 O1504 2.441 . S
U1486 O1505 2.420 . S
U1486 O1506 2.455 . S
U1486 O1507 2.449 . S
O1487 U1486 2.454 . S
O1487 C1489 1.353 . S
O1488 U1486 2.458 . S
O1488 C1489 1.286 . S
C1489 U1486 2.984 . S
C1489 O1487 1.353 . S
C1489 O1488 1.286 . S
C1489 C1491 1.363 . S
C1490 C1480 1.465 . S
C1490 U1486 2.847 . S
C1490 O1504 1.249 . S
C1490 O1505 1.202 . S
C1491 C1489 1.363 . S
C1491 C1493 1.408 . S
C1491 C1496 1.342 . S
C1492 C1493 1.310 . S
C1492 C1495 1.461 . S
C1492 H1512 0.932 . S
C1493 C1491 1.408 . S
C1493 C1492 1.310 . S
C1493 H1513 0.930 . S
C1494 C1495 1.474 . S
C1494 C1496 1.285 . S
C1494 H1514 0.929 . S
C1495 C1492 1.461 . S
C1495 C1494 1.474 . S
C1496 C1491 1.342 . S
C1496 C1494 1.285 . S
C1496 H1515 0.930 . S
C1497 C1500 1.424 . S
C1497 C1502 1.245 . S
C1497 C1503 1.428 . S
C1498 C1501 1.260 . S
C1498 C1502 1.477 . S
C1498 H1516 0.932 . S
C1499 C1500 1.384 . S
C1499 C1501 1.479 . S
C1499 H1517 0.929 . S
C1500 C1497 1.424 . S
C1500 C1499 1.384 . S
C1500 H1518 0.928 . S
C1501 C1498 1.260 . S
C1501 C1499 1.479 . S
C1502 C1497 1.245 . S
C1502 C1498 1.477 . S
C1502 H1519 0.932 . S
C1503 U1486 2.882 . S
C1503 C1497 1.428 . S
C1503 O1506 1.301 . S
C1503 O1507 1.282 . S
O1504 U1486 2.441 . S
O1504 C1490 1.249 . S
O1505 U1486 2.420 . S
O1505 C1490 1.202 . S
O1506 U1486 2.455 . S
O1506 C1503 1.301 . S
O1507 U1486 2.449 . S
O1507 C1503 1.282 . S
H1508 C1481 0.931 . S
H1509 C1483 0.929 . S
H1510 C1484 0.930 . S
H1511 C1485 0.931 . S
H1512 C1492 0.932 . S
H1513 C1493 0.930 . S
H1514 C1494 0.929 . S
H1515 C1496 0.930 . S
H1516 C1498 0.932 . S
H1517 C1499 0.929 . S
H1518 C1500 0.928 . S
H1519 C1502 0.932 . S
C1520 C1521 1.264 . S
C1520 C1525 1.479 . S
C1520 C1530 1.465 . S
C1521 C1520 1.264 . S
C1521 C1523 1.339 . S
C1521 H1548 0.931 . S
C1522 C1523 1.395 . S
C1522 C1524 1.320 . S
C1523 C1521 1.339 . S
C1523 C1522 1.395 . S
C1523 H1549 0.929 . S
C1524 C1522 1.320 . S
C1524 C1525 1.405 . S
C1524 H1550 0.930 . S
C1525 C1520 1.479 . S
C1525 C1524 1.405 . S
C1525 H1551 0.931 . S
U1526 O1527 2.454 . S
U1526 O1528 2.458 . S
U1526 C1529 2.984 . S
U1526 C1530 2.847 . S
U1526 C1543 2.882 . S
U1526 O1544 2.441 . S
U1526 O1545 2.420 . S
U1526 O1546 2.455 . S
U1526 O1547 2.449 . S
O1527 U1526 2.454 . S
O1527 C1529 1.353 . S
O1528 U1526 2.458 . S
O1528 C1529 1.286 . S
C1529 U1526 2.984 . S
C1529 O1527 1.353 . S
C1529 O1528 1.286 . S
C1529 C1531 1.363 . S
C1530 C1520 1.465 . S
C1530 U1526 2.847 . S
C1530 O1544 1.249 . S
C1530 O1545 1.202 . S
C1531 C1529 1.363 . S
C1531 C1533 1.408 . S
C1531 C1536 1.342 . S
C1532 C1533 1.310 . S
C1532 C1535 1.461 . S
C1532 H1552 0.932 . S
C1533 C1531 1.408 . S
C1533 C1532 1.310 . S
C1533 H1553 0.930 . S
C1534 C1535 1.474 . S
C1534 C1536 1.285 . S
C1534 H1554 0.929 . S
C1535 C1532 1.461 . S
C1535 C1534 1.474 . S
C1536 C1531 1.342 . S
C1536 C1534 1.285 . S
C1536 H1555 0.930 . S
C1537 C1540 1.424 . S
C1537 C1542 1.245 . S
C1537 C1543 1.428 . S
C1538 C1541 1.260 . S
C1538 C1542 1.477 . S
C1538 H1556 0.932 . S
C1539 C1540 1.384 . S
C1539 C1541 1.479 . S
C1539 H1557 0.929 . S
C1540 C1537 1.424 . S
C1540 C1539 1.384 . S
C1540 H1558 0.928 . S
C1541 C1538 1.260 . S
C1541 C1539 1.479 . S
C1542 C1537 1.245 . S
C1542 C1538 1.477 . S
C1542 H1559 0.932 . S
C1543 U1526 2.882 . S
C1543 C1537 1.428 . S
C1543 O1546 1.301 . S
C1543 O1547 1.282 . S
O1544 U1526 2.441 . S
O1544 C1530 1.249 . S
O1545 U1526 2.420 . S
O1545 C1530 1.202 . S
O1546 U1526 2.455 . S
O1546 C1543 1.301 . S
O1547 U1526 2.449 . S
O1547 C1543 1.282 . S
H1548 C1521 0.931 . S
H1549 C1523 0.929 . S
H1550 C1524 0.930 . S
H1551 C1525 0.931 . S
H1552 C1532 0.932 . S
H1553 C1533 0.930 . S
H1554 C1534 0.929 . S
H1555 C1536 0.930 . S
H1556 C1538 0.932 . S
H1557 C1539 0.929 . S
H1558 C1540 0.928 . S
H1559 C1542 0.932 . S
C1560 C1561 1.264 . S
C1560 C1565 1.479 . S
C1560 C1570 1.465 . S
C1561 C1560 1.264 . S
C1561 C1563 1.339 . S
C1561 H1588 0.931 . S
C1562 C1563 1.395 . S
C1562 C1564 1.320 . S
C1563 C1561 1.339 . S
C1563 C1562 1.395 . S
C1563 H1589 0.929 . S
C1564 C1562 1.320 . S
C1564 C1565 1.405 . S
C1564 H1590 0.930 . S
C1565 C1560 1.479 . S
C1565 C1564 1.405 . S
C1565 H1591 0.931 . S
U1566 O1567 2.454 . S
U1566 O1568 2.458 . S
U1566 C1569 2.984 . S
U1566 C1570 2.847 . S
U1566 C1583 2.882 . S
U1566 O1584 2.441 . S
U1566 O1585 2.420 . S
U1566 O1586 2.455 . S
U1566 O1587 2.449 . S
O1567 U1566 2.454 . S
O1567 C1569 1.353 . S
O1568 U1566 2.458 . S
O1568 C1569 1.286 . S
C1569 U1566 2.984 . S
C1569 O1567 1.353 . S
C1569 O1568 1.286 . S
C1569 C1571 1.363 . S
C1570 C1560 1.465 . S
C1570 U1566 2.847 . S
C1570 O1584 1.249 . S
C1570 O1585 1.202 . S
C1571 C1569 1.363 . S
C1571 C1573 1.408 . S
C1571 C1576 1.342 . S
C1572 C1573 1.310 . S
C1572 C1575 1.461 . S
C1572 H1592 0.932 . S
C1573 C1571 1.408 . S
C1573 C1572 1.310 . S
C1573 H1593 0.930 . S
C1574 C1575 1.474 . S
C1574 C1576 1.285 . S
C1574 H1594 0.929 . S
C1575 C1572 1.461 . S
C1575 C1574 1.474 . S
C1576 C1571 1.342 . S
C1576 C1574 1.285 . S
C1576 H1595 0.930 . S
C1577 C1580 1.424 . S
C1577 C1582 1.245 . S
C1577 C1583 1.428 . S
C1578 C1581 1.260 . S
C1578 C1582 1.477 . S
C1578 H1596 0.932 . S
C1579 C1580 1.384 . S
C1579 C1581 1.479 . S
C1579 H1597 0.929 . S
C1580 C1577 1.424 . S
C1580 C1579 1.384 . S
C1580 H1598 0.928 . S
C1581 C1578 1.260 . S
C1581 C1579 1.479 . S
C1582 C1577 1.245 . S
C1582 C1578 1.477 . S
C1582 H1599 0.932 . S
C1583 U1566 2.882 . S
C1583 C1577 1.428 . S
C1583 O1586 1.301 . S
C1583 O1587 1.282 . S
O1584 U1566 2.441 . S
O1584 C1570 1.249 . S
O1585 U1566 2.420 . S
O1585 C1570 1.202 . S
O1586 U1566 2.455 . S
O1586 C1583 1.301 . S
O1587 U1566 2.449 . S
O1587 C1583 1.282 . S
H1588 C1561 0.931 . S
H1589 C1563 0.929 . S
H1590 C1564 0.930 . S
H1591 C1565 0.931 . S
H1592 C1572 0.932 . S
H1593 C1573 0.930 . S
H1594 C1574 0.929 . S
H1595 C1576 0.930 . S
H1596 C1578 0.932 . S
H1597 C1579 0.929 . S
H1598 C1580 0.928 . S
H1599 C1582 0.932 . S
C1600 C1601 1.264 . S
C1600 C1605 1.479 . S
C1600 C1610 1.465 . S
C1601 C1600 1.264 . S
C1601 C1603 1.339 . S
C1601 H1628 0.931 . S
C1602 C1603 1.395 . S
C1602 C1604 1.320 . S
C1603 C1601 1.339 . S
C1603 C1602 1.395 . S
C1603 H1629 0.929 . S
C1604 C1602 1.320 . S
C1604 C1605 1.405 . S
C1604 H1630 0.930 . S
C1605 C1600 1.479 . S
C1605 C1604 1.405 . S
C1605 H1631 0.931 . S
U1606 O1607 2.454 . S
U1606 O1608 2.458 . S
U1606 C1609 2.984 . S
U1606 C1610 2.847 . S
U1606 C1623 2.882 . S
U1606 O1624 2.441 . S
U1606 O1625 2.420 . S
U1606 O1626 2.455 . S
U1606 O1627 2.449 . S
O1607 U1606 2.454 . S
O1607 C1609 1.353 . S
O1608 U1606 2.458 . S
O1608 C1609 1.286 . S
C1609 U1606 2.984 . S
C1609 O1607 1.353 . S
C1609 O1608 1.286 . S
C1609 C1611 1.363 . S
C1610 C1600 1.465 . S
C1610 U1606 2.847 . S
C1610 O1624 1.249 . S
C1610 O1625 1.202 . S
C1611 C1609 1.363 . S
C1611 C1613 1.408 . S
C1611 C1616 1.342 . S
C1612 C1613 1.310 . S
C1612 C1615 1.461 . S
C1612 H1632 0.932 . S
C1613 C1611 1.408 . S
C1613 C1612 1.310 . S
C1613 H1633 0.930 . S
C1614 C1615 1.474 . S
C1614 C1616 1.285 . S
C1614 H1634 0.929 . S
C1615 C1612 1.461 . S
C1615 C1614 1.474 . S
C1616 C1611 1.342 . S
C1616 C1614 1.285 . S
C1616 H1635 0.930 . S
C1617 C1620 1.424 . S
C1617 C1622 1.245 . S
C1617 C1623 1.428 . S
C1618 C1621 1.260 . S
C1618 C1622 1.477 . S
C1618 H1636 0.932 . S
C1619 C1620 1.384 . S
C1619 C1621 1.479 . S
C1619 H1637 0.929 . S
C1620 C1617 1.424 . S
C1620 C1619 1.384 . S
C1620 H1638 0.928 . S
C1621 C1618 1.260 . S
C1621 C1619 1.479 . S
C1622 C1617 1.245 . S
C1622 C1618 1.477 . S
C1622 H1639 0.932 . S
C1623 U1606 2.882 . S
C1623 C1617 1.428 . S
C1623 O1626 1.301 . S
C1623 O1627 1.282 . S
O1624 U1606 2.441 . S
O1624 C1610 1.249 . S
O1625 U1606 2.420 . S
O1625 C1610 1.202 . S
O1626 U1606 2.455 . S
O1626 C1623 1.301 . S
O1627 U1606 2.449 . S
O1627 C1623 1.282 . S
H1628 C1601 0.931 . S
H1629 C1603 0.929 . S
H1630 C1604 0.930 . S
H1631 C1605 0.931 . S
H1632 C1612 0.932 . S
H1633 C1613 0.930 . S
H1634 C1614 0.929 . S
H1635 C1616 0.930 . S
H1636 C1618 0.932 . S
H1637 C1619 0.929 . S
H1638 C1620 0.928 . S
H1639 C1622 0.932 . S
C1640 C1641 1.264 . S
C1640 C1645 1.479 . S
C1640 C1650 1.465 . S
C1641 C1640 1.264 . S
C1641 C1643 1.339 . S
C1641 H1668 0.931 . S
C1642 C1643 1.395 . S
C1642 C1644 1.320 . S
C1643 C1641 1.339 . S
C1643 C1642 1.395 . S
C1643 H1669 0.929 . S
C1644 C1642 1.320 . S
C1644 C1645 1.405 . S
C1644 H1670 0.930 . S
C1645 C1640 1.479 . S
C1645 C1644 1.405 . S
C1645 H1671 0.931 . S
U1646 O1647 2.454 . S
U1646 O1648 2.458 . S
U1646 C1649 2.984 . S
U1646 C1650 2.847 . S
U1646 C1663 2.882 . S
U1646 O1664 2.441 . S
U1646 O1665 2.420 . S
U1646 O1666 2.455 . S
U1646 O1667 2.449 . S
O1647 U1646 2.454 . S
O1647 C1649 1.353 . S
O1648 U1646 2.458 . S
O1648 C1649 1.286 . S
C1649 U1646 2.984 . S
C1649 O1647 1.353 . S
C1649 O1648 1.286 . S
C1649 C1651 1.363 . S
C1650 C1640 1.465 . S
C1650 U1646 2.847 . S
C1650 O1664 1.249 . S
C1650 O1665 1.202 . S
C1651 C1649 1.363 . S
C1651 C1653 1.408 . S
C1651 C1656 1.342 . S
C1652 C1653 1.310 . S
C1652 C1655 1.461 . S
C1652 H1672 0.932 . S
C1653 C1651 1.408 . S
C1653 C1652 1.310 . S
C1653 H1673 0.930 . S
C1654 C1655 1.474 . S
C1654 C1656 1.285 . S
C1654 H1674 0.929 . S
C1655 C1652 1.461 . S
C1655 C1654 1.474 . S
C1656 C1651 1.342 . S
C1656 C1654 1.285 . S
C1656 H1675 0.930 . S
C1657 C1660 1.424 . S
C1657 C1662 1.245 . S
C1657 C1663 1.428 . S
C1658 C1661 1.260 . S
C1658 C1662 1.477 . S
C1658 H1676 0.932 . S
C1659 C1660 1.384 . S
C1659 C1661 1.479 . S
C1659 H1677 0.929 . S
C1660 C1657 1.424 . S
C1660 C1659 1.384 . S
C1660 H1678 0.928 . S
C1661 C1658 1.260 . S
C1661 C1659 1.479 . S
C1662 C1657 1.245 . S
C1662 C1658 1.477 . S
C1662 H1679 0.932 . S
C1663 U1646 2.882 . S
C1663 C1657 1.428 . S
C1663 O1666 1.301 . S
C1663 O1667 1.282 . S
O1664 U1646 2.441 . S
O1664 C1650 1.249 . S
O1665 U1646 2.420 . S
O1665 C1650 1.202 . S
O1666 U1646 2.455 . S
O1666 C1663 1.301 . S
O1667 U1646 2.449 . S
O1667 C1663 1.282 . S
H1668 C1641 0.931 . S
H1669 C1643 0.929 . S
H1670 C1644 0.930 . S
H1671 C1645 0.931 . S
H1672 C1652 0.932 . S
H1673 C1653 0.930 . S
H1674 C1654 0.929 . S
H1675 C1656 0.930 . S
H1676 C1658 0.932 . S
H1677 C1659 0.929 . S
H1678 C1660 0.928 . S
H1679 C1662 0.932 . S
C1680 C1681 1.264 . S
C1680 C1685 1.479 . S
C1680 C1690 1.465 . S
C1681 C1680 1.264 . S
C1681 C1683 1.339 . S
C1681 H1708 0.931 . S
C1682 C1683 1.395 . S
C1682 C1684 1.320 . S
C1683 C1681 1.339 . S
C1683 C1682 1.395 . S
C1683 H1709 0.929 . S
C1684 C1682 1.320 . S
C1684 C1685 1.405 . S
C1684 H1710 0.930 . S
C1685 C1680 1.479 . S
C1685 C1684 1.405 . S
C1685 H1711 0.931 . S
U1686 O1687 2.454 . S
U1686 O1688 2.458 . S
U1686 C1689 2.984 . S
U1686 C1690 2.847 . S
U1686 C1703 2.882 . S
U1686 O1704 2.441 . S
U1686 O1705 2.420 . S
U1686 O1706 2.455 . S
U1686 O1707 2.449 . S
O1687 U1686 2.454 . S
O1687 C1689 1.353 . S
O1688 U1686 2.458 . S
O1688 C1689 1.286 . S
C1689 U1686 2.984 . S
C1689 O1687 1.353 . S
C1689 O1688 1.286 . S
C1689 C1691 1.363 . S
C1690 C1680 1.465 . S
C1690 U1686 2.847 . S
C1690 O1704 1.249 . S
C1690 O1705 1.202 . S
C1691 C1689 1.363 . S
C1691 C1693 1.408 . S
C1691 C1696 1.342 . S
C1692 C1693 1.310 . S
C1692 C1695 1.461 . S
C1692 H1712 0.932 . S
C1693 C1691 1.408 . S
C1693 C1692 1.310 . S
C1693 H1713 0.930 . S
C1694 C1695 1.474 . S
C1694 C1696 1.285 . S
C1694 H1714 0.929 . S
C1695 C1692 1.461 . S
C1695 C1694 1.474 . S
C1696 C1691 1.342 . S
C1696 C1694 1.285 . S
C1696 H1715 0.930 . S
C1697 C1700 1.424 . S
C1697 C1702 1.245 . S
C1697 C1703 1.428 . S
C1698 C1701 1.260 . S
C1698 C1702 1.477 . S
C1698 H1716 0.932 . S
C1699 C1700 1.384 . S
C1699 C1701 1.479 . S
C1699 H1717 0.929 . S
C1700 C1697 1.424 . S
C1700 C1699 1.384 . S
C1700 H1718 0.928 . S
C1701 C1698 1.260 . S
C1701 C1699 1.479 . S
C1702 C1697 1.245 . S
C1702 C1698 1.477 . S
C1702 H1719 0.932 . S
C1703 U1686 2.882 . S
C1703 C1697 1.428 . S
C1703 O1706 1.301 . S
C1703 O1707 1.282 . S
O1704 U1686 2.441 . S
O1704 C1690 1.249 . S
O1705 U1686 2.420 . S
O1705 C1690 1.202 . S
O1706 U1686 2.455 . S
O1706 C1703 1.301 . S
O1707 U1686 2.449 . S
O1707 C1703 1.282 . S
H1708 C1681 0.931 . S
H1709 C1683 0.929 . S
H1710 C1684 0.930 . S
H1711 C1685 0.931 . S
H1712 C1692 0.932 . S
H1713 C1693 0.930 . S
H1714 C1694 0.929 . S
H1715 C1696 0.930 . S
H1716 C1698 0.932 . S
H1717 C1699 0.929 . S
H1718 C1700 0.928 . S
H1719 C1702 0.932 . S
C1720 C1721 1.264 . S
C1720 C1725 1.479 . S
C1720 C1730 1.465 . S
C1721 C1720 1.264 . S
C1721 C1723 1.339 . S
C1721 H1748 0.931 . S
C1722 C1723 1.395 . S
C1722 C1724 1.320 . S
C1723 C1721 1.339 . S
C1723 C1722 1.395 . S
C1723 H1749 0.929 . S
C1724 C1722 1.320 . S
C1724 C1725 1.405 . S
C1724 H1750 0.930 . S
C1725 C1720 1.479 . S
C1725 C1724 1.405 . S
C1725 H1751 0.931 . S
U1726 O1727 2.454 . S
U1726 O1728 2.458 . S
U1726 C1729 2.984 . S
U1726 C1730 2.847 . S
U1726 C1743 2.882 . S
U1726 O1744 2.441 . S
U1726 O1745 2.420 . S
U1726 O1746 2.455 . S
U1726 O1747 2.449 . S
O1727 U1726 2.454 . S
O1727 C1729 1.353 . S
O1728 U1726 2.458 . S
O1728 C1729 1.286 . S
C1729 U1726 2.984 . S
C1729 O1727 1.353 . S
C1729 O1728 1.286 . S
C1729 C1731 1.363 . S
C1730 C1720 1.465 . S
C1730 U1726 2.847 . S
C1730 O1744 1.249 . S
C1730 O1745 1.202 . S
C1731 C1729 1.363 . S
C1731 C1733 1.408 . S
C1731 C1736 1.342 . S
C1732 C1733 1.310 . S
C1732 C1735 1.461 . S
C1732 H1752 0.932 . S
C1733 C1731 1.408 . S
C1733 C1732 1.310 . S
C1733 H1753 0.930 . S
C1734 C1735 1.474 . S
C1734 C1736 1.285 . S
C1734 H1754 0.929 . S
C1735 C1732 1.461 . S
C1735 C1734 1.474 . S
C1736 C1731 1.342 . S
C1736 C1734 1.285 . S
C1736 H1755 0.930 . S
C1737 C1740 1.424 . S
C1737 C1742 1.245 . S
C1737 C1743 1.428 . S
C1738 C1741 1.260 . S
C1738 C1742 1.477 . S
C1738 H1756 0.932 . S
C1739 C1740 1.384 . S
C1739 C1741 1.479 . S
C1739 H1757 0.929 . S
C1740 C1737 1.424 . S
C1740 C1739 1.384 . S
C1740 H1758 0.928 . S
C1741 C1738 1.260 . S
C1741 C1739 1.479 . S
C1742 C1737 1.245 . S
C1742 C1738 1.477 . S
C1742 H1759 0.932 . S
C1743 U1726 2.882 . S
C1743 C1737 1.428 . S
C1743 O1746 1.301 . S
C1743 O1747 1.282 . S
O1744 U1726 2.441 . S
O1744 C1730 1.249 . S
O1745 U1726 2.420 . S
O1745 C1730 1.202 . S
O1746 U1726 2.455 . S
O1746 C1743 1.301 . S
O1747 U1726 2.449 . S
O1747 C1743 1.282 . S
H1748 C1721 0.931 . S
H1749 C1723 0.929 . S
H1750 C1724 0.930 . S
H1751 C1725 0.931 . S
H1752 C1732 0.932 . S
H1753 C1733 0.930 . S
H1754 C1734 0.929 . S
H1755 C1736 0.930 . S
H1756 C1738 0.932 . S
H1757 C1739 0.929 . S
H1758 C1740 0.928 . S
H1759 C1742 0.932 . S
C1760 C1761 1.264 . S
C1760 C1765 1.479 . S
C1760 C1770 1.465 . S
C1761 C1760 1.264 . S
C1761 C1763 1.339 . S
C1761 H1788 0.931 . S
C1762 C1763 1.395 . S
C1762 C1764 1.320 . S
C1763 C1761 1.339 . S
C1763 C1762 1.395 . S
C1763 H1789 0.929 . S
C1764 C1762 1.320 . S
C1764 C1765 1.405 . S
C1764 H1790 0.930 . S
C1765 C1760 1.479 . S
C1765 C1764 1.405 . S
C1765 H1791 0.931 . S
U1766 O1767 2.454 . S
U1766 O1768 2.458 . S
U1766 C1769 2.984 . S
U1766 C1770 2.847 . S
U1766 C1783 2.882 . S
U1766 O1784 2.441 . S
U1766 O1785 2.420 . S
U1766 O1786 2.455 . S
U1766 O1787 2.449 . S
O1767 U1766 2.454 . S
O1767 C1769 1.353 . S
O1768 U1766 2.458 . S
O1768 C1769 1.286 . S
C1769 U1766 2.984 . S
C1769 O1767 1.353 . S
C1769 O1768 1.286 . S
C1769 C1771 1.363 . S
C1770 C1760 1.465 . S
C1770 U1766 2.847 . S
C1770 O1784 1.249 . S
C1770 O1785 1.202 . S
C1771 C1769 1.363 . S
C1771 C1773 1.408 . S
C1771 C1776 1.342 . S
C1772 C1773 1.310 . S
C1772 C1775 1.461 . S
C1772 H1792 0.932 . S
C1773 C1771 1.408 . S
C1773 C1772 1.310 . S
C1773 H1793 0.930 . S
C1774 C1775 1.474 . S
C1774 C1776 1.285 . S
C1774 H1794 0.929 . S
C1775 C1772 1.461 . S
C1775 C1774 1.474 . S
C1776 C1771 1.342 . S
C1776 C1774 1.285 . S
C1776 H1795 0.930 . S
C1777 C1780 1.424 . S
C1777 C1782 1.245 . S
C1777 C1783 1.428 . S
C1778 C1781 1.260 . S
C1778 C1782 1.477 . S
C1778 H1796 0.932 . S
C1779 C1780 1.384 . S
C1779 C1781 1.479 . S
C1779 H1797 0.929 . S
C1780 C1777 1.424 . S
C1780 C1779 1.384 . S
C1780 H1798 0.928 . S
C1781 C1778 1.260 . S
C1781 C1779 1.479 . S
C1782 C1777 1.245 . S
C1782 C1778 1.477 . S
C1782 H1799 0.932 . S
C1783 U1766 2.882 . S
C1783 C1777 1.428 . S
C1783 O1786 1.301 . S
C1783 O1787 1.282 . S
O1784 U1766 2.441 . S
O1784 C1770 1.249 . S
O1785 U1766 2.420 . S
O1785 C1770 1.202 . S
O1786 U1766 2.455 . S
O1786 C1783 1.301 . S
O1787 U1766 2.449 . S
O1787 C1783 1.282 . S
H1788 C1761 0.931 . S
H1789 C1763 0.929 . S
H1790 C1764 0.930 . S
H1791 C1765 0.931 . S
H1792 C1772 0.932 . S
H1793 C1773 0.930 . S
H1794 C1774 0.929 . S
H1795 C1776 0.930 . S
H1796 C1778 0.932 . S
H1797 C1779 0.929 . S
H1798 C1780 0.928 . S
H1799 C1782 0.932 . S
C1800 C1801 1.264 . S
C1800 C1805 1.479 . S
C1800 C1810 1.465 . S
C1801 C1800 1.264 . S
C1801 C1803 1.339 . S
C1801 H1828 0.931 . S
C1802 C1803 1.395 . S
C1802 C1804 1.320 . S
C1803 C1801 1.339 . S
C1803 C1802 1.395 . S
C1803 H1829 0.929 . S
C1804 C1802 1.320 . S
C1804 C1805 1.405 . S
C1804 H1830 0.930 . S
C1805 C1800 1.479 . S
C1805 C1804 1.405 . S
C1805 H1831 0.931 . S
U1806 O1807 2.454 . S
U1806 O1808 2.458 . S
U1806 C1809 2.984 . S
U1806 C1810 2.847 . S
U1806 C1823 2.882 . S
U1806 O1824 2.441 . S
U1806 O1825 2.420 . S
U1806 O1826 2.455 . S
U1806 O1827 2.449 . S
O1807 U1806 2.454 . S
O1807 C1809 1.353 . S
O1808 U1806 2.458 . S
O1808 C1809 1.286 . S
C1809 U1806 2.984 . S
C1809 O1807 1.353 . S
C1809 O1808 1.286 . S
C1809 C1811 1.363 . S
C1810 C1800 1.465 . S
C1810 U1806 2.847 . S
C1810 O1824 1.249 . S
C1810 O1825 1.202 . S
C1811 C1809 1.363 . S
C1811 C1813 1.408 . S
C1811 C1816 1.342 . S
C1812 C1813 1.310 . S
C1812 C1815 1.461 . S
C1812 H1832 0.932 . S
C1813 C1811 1.408 . S
C1813 C1812 1.310 . S
C1813 H1833 0.930 . S
C1814 C1815 1.474 . S
C1814 C1816 1.285 . S
C1814 H1834 0.929 . S
C1815 C1812 1.461 . S
C1815 C1814 1.474 . S
C1816 C1811 1.342 . S
C1816 C1814 1.285 . S
C1816 H1835 0.930 . S
C1817 C1820 1.424 . S
C1817 C1822 1.245 . S
C1817 C1823 1.428 . S
C1818 C1821 1.260 . S
C1818 C1822 1.477 . S
C1818 H1836 0.932 . S
C1819 C1820 1.384 . S
C1819 C1821 1.479 . S
C1819 H1837 0.929 . S
C1820 C1817 1.424 . S
C1820 C1819 1.384 . S
C1820 H1838 0.928 . S
C1821 C1818 1.260 . S
C1821 C1819 1.479 . S
C1822 C1817 1.245 . S
C1822 C1818 1.477 . S
C1822 H1839 0.932 . S
C1823 U1806 2.882 . S
C1823 C1817 1.428 . S
C1823 O1826 1.301 . S
C1823 O1827 1.282 . S
O1824 U1806 2.441 . S
O1824 C1810 1.249 . S
O1825 U1806 2.420 . S
O1825 C1810 1.202 . S
O1826 U1806 2.455 . S
O1826 C1823 1.301 . S
O1827 U1806 2.449 . S
O1827 C1823 1.282 . S
H1828 C1801 0.931 . S
H1829 C1803 0.929 . S
H1830 C1804 0.930 . S
H1831 C1805 0.931 . S
H1832 C1812 0.932 . S
H1833 C1813 0.930 . S
H1834 C1814 0.929 . S
H1835 C1816 0.930 . S
H1836 C1818 0.932 . S
H1837 C1819 0.929 . S
H1838 C1820 0.928 . S
H1839 C1822 0.932 . S
C1840 C1841 1.264 . S
C1840 C1845 1.479 . S
C1840 C1850 1.465 . S
C1841 C1840 1.264 . S
C1841 C1843 1.339 . S
C1841 H1868 0.931 . S
C1842 C1843 1.395 . S
C1842 C1844 1.320 . S
C1843 C1841 1.339 . S
C1843 C1842 1.395 . S
C1843 H1869 0.929 . S
C1844 C1842 1.320 . S
C1844 C1845 1.405 . S
C1844 H1870 0.930 . S
C1845 C1840 1.479 . S
C1845 C1844 1.405 . S
C1845 H1871 0.931 . S
U1846 O1847 2.454 . S
U1846 O1848 2.458 . S
U1846 C1849 2.984 . S
U1846 C1850 2.847 . S
U1846 C1863 2.882 . S
U1846 O1864 2.441 . S
U1846 O1865 2.420 . S
U1846 O1866 2.455 . S
U1846 O1867 2.449 . S
O1847 U1846 2.454 . S
O1847 C1849 1.353 . S
O1848 U1846 2.458 . S
O1848 C1849 1.286 . S
C1849 U1846 2.984 . S
C1849 O1847 1.353 . S
C1849 O1848 1.286 . S
C1849 C1851 1.363 . S
C1850 C1840 1.465 . S
C1850 U1846 2.847 . S
C1850 O1864 1.249 . S
C1850 O1865 1.202 . S
C1851 C1849 1.363 . S
C1851 C1853 1.408 . S
C1851 C1856 1.342 . S
C1852 C1853 1.310 . S
C1852 C1855 1.461 . S
C1852 H1872 0.932 . S
C1853 C1851 1.408 . S
C1853 C1852 1.310 . S
C1853 H1873 0.930 . S
C1854 C1855 1.474 . S
C1854 C1856 1.285 . S
C1854 H1874 0.929 . S
C1855 C1852 1.461 . S
C1855 C1854 1.474 . S
C1856 C1851 1.342 . S
C1856 C1854 1.285 . S
C1856 H1875 0.930 . S
C1857 C1860 1.424 . S
C1857 C1862 1.245 . S
C1857 C1863 1.428 . S
C1858 C1861 1.260 . S
C1858 C1862 1.477 . S
C1858 H1876 0.932 . S
C1859 C1860 1.384 . S
C1859 C1861 1.479 . S
C1859 H1877 0.929 . S
C1860 C1857 1.424 . S
C1860 C1859 1.384 . S
C1860 H1878 0.928 . S
C1861 C1858 1.260 . S
C1861 C1859 1.479 . S
C1862 C1857 1.245 . S
C1862 C1858 1.477 . S
C1862 H1879 0.932 . S
C1863 U1846 2.882 . S
C1863 C1857 1.428 . S
C1863 O1866 1.301 . S
C1863 O1867 1.282 . S
O1864 U1846 2.441 . S
O1864 C1850 1.249 . S
O1865 U1846 2.420 . S
O1865 C1850 1.202 . S
O1866 U1846 2.455 . S
O1866 C1863 1.301 . S
O1867 U1846 2.449 . S
O1867 C1863 1.282 . S
H1868 C1841 0.931 . S
H1869 C1843 0.929 . S
H1870 C1844 0.930 . S
H1871 C1845 0.931 . S
H1872 C1852 0.932 . S
H1873 C1853 0.930 . S
H1874 C1854 0.929 . S
H1875 C1856 0.930 . S
H1876 C1858 0.932 . S
H1877 C1859 0.929 . S
H1878 C1860 0.928 . S
H1879 C1862 0.932 . S
C1880 C1881 1.264 . S
C1880 C1885 1.479 . S
C1880 C1890 1.465 . S
C1881 C1880 1.264 . S
C1881 C1883 1.339 . S
C1881 H1908 0.931 . S
C1882 C1883 1.395 . S
C1882 C1884 1.320 . S
C1883 C1881 1.339 . S
C1883 C1882 1.395 . S
C1883 H1909 0.929 . S
C1884 C1882 1.320 . S
C1884 C1885 1.405 . S
C1884 H1910 0.930 . S
C1885 C1880 1.479 . S
C1885 C1884 1.405 . S
C1885 H1911 0.931 . S
U1886 O1887 2.454 . S
U1886 O1888 2.458 . S
U1886 C1889 2.984 . S
U1886 C1890 2.847 . S
U1886 C1903 2.882 . S
U1886 O1904 2.441 . S
U1886 O1905 2.420 . S
U1886 O1906 2.455 . S
U1886 O1907 2.449 . S
O1887 U1886 2.454 . S
O1887 C1889 1.353 . S
O1888 U1886 2.458 . S
O1888 C1889 1.286 . S
C1889 U1886 2.984 . S
C1889 O1887 1.353 . S
C1889 O1888 1.286 . S
C1889 C1891 1.363 . S
C1890 C1880 1.465 . S
C1890 U1886 2.847 . S
C1890 O1904 1.249 . S
C1890 O1905 1.202 . S
C1891 C1889 1.363 . S
C1891 C1893 1.408 . S
C1891 C1896 1.342 . S
C1892 C1893 1.310 . S
C1892 C1895 1.461 . S
C1892 H1912 0.932 . S
C1893 C1891 1.408 . S
C1893 C1892 1.310 . S
C1893 H1913 0.930 . S
C1894 C1895 1.474 . S
C1894 C1896 1.285 . S
C1894 H1914 0.929 . S
C1895 C1892 1.461 . S
C1895 C1894 1.474 . S
C1896 C1891 1.342 . S
C1896 C1894 1.285 . S
C1896 H1915 0.930 . S
C1897 C1900 1.424 . S
C1897 C1902 1.245 . S
C1897 C1903 1.428 . S
C1898 C1901 1.260 . S
C1898 C1902 1.477 . S
C1898 H1916 0.932 . S
C1899 C1900 1.384 . S
C1899 C1901 1.479 . S
C1899 H1917 0.929 . S
C1900 C1897 1.424 . S
C1900 C1899 1.384 . S
C1900 H1918 0.928 . S
C1901 C1898 1.260 . S
C1901 C1899 1.479 . S
C1902 C1897 1.245 . S
C1902 C1898 1.477 . S
C1902 H1919 0.932 . S
C1903 U1886 2.882 . S
C1903 C1897 1.428 . S
C1903 O1906 1.301 . S
C1903 O1907 1.282 . S
O1904 U1886 2.441 . S
O1904 C1890 1.249 . S
O1905 U1886 2.420 . S
O1905 C1890 1.202 . S
O1906 U1886 2.455 . S
O1906 C1903 1.301 . S
O1907 U1886 2.449 . S
O1907 C1903 1.282 . S
H1908 C1881 0.931 . S
H1909 C1883 0.929 . S
H1910 C1884 0.930 . S
H1911 C1885 0.931 . S
H1912 C1892 0.932 . S
H1913 C1893 0.930 . S
H1914 C1894 0.929 . S
H1915 C1896 0.930 . S
H1916 C1898 0.932 . S
H1917 C1899 0.929 . S
H1918 C1900 0.928 . S
H1919 C1902 0.932 . S
C1920 C1921 1.264 . S
C1920 C1925 1.479 . S
C1920 C1930 1.465 . S
C1921 C1920 1.264 . S
C1921 C1923 1.339 . S
C1921 H1948 0.931 . S
C1922 C1923 1.395 . S
C1922 C1924 1.320 . S
C1923 C1921 1.339 . S
C1923 C1922 1.395 . S
C1923 H1949 0.929 . S
C1924 C1922 1.320 . S
C1924 C1925 1.405 . S
C1924 H1950 0.930 . S
C1925 C1920 1.479 . S
C1925 C1924 1.405 . S
C1925 H1951 0.931 . S
U1926 O1927 2.454 . S
U1926 O1928 2.458 . S
U1926 C1929 2.984 . S
U1926 C1930 2.847 . S
U1926 C1943 2.882 . S
U1926 O1944 2.441 . S
U1926 O1945 2.420 . S
U1926 O1946 2.455 . S
U1926 O1947 2.449 . S
O1927 U1926 2.454 . S
O1927 C1929 1.353 . S
O1928 U1926 2.458 . S
O1928 C1929 1.286 . S
C1929 U1926 2.984 . S
C1929 O1927 1.353 . S
C1929 O1928 1.286 . S
C1929 C1931 1.363 . S
C1930 C1920 1.465 . S
C1930 U1926 2.847 . S
C1930 O1944 1.249 . S
C1930 O1945 1.202 . S
C1931 C1929 1.363 . S
C1931 C1933 1.408 . S
C1931 C1936 1.342 . S
C1932 C1933 1.310 . S
C1932 C1935 1.461 . S
C1932 H1952 0.932 . S
C1933 C1931 1.408 . S
C1933 C1932 1.310 . S
C1933 H1953 0.930 . S
C1934 C1935 1.474 . S
C1934 C1936 1.285 . S
C1934 H1954 0.929 . S
C1935 C1932 1.461 . S
C1935 C1934 1.474 . S
C1936 C1931 1.342 . S
C1936 C1934 1.285 . S
C1936 H1955 0.930 . S
C1937 C1940 1.424 . S
C1937 C1942 1.245 . S
C1937 C1943 1.428 . S
C1938 C1941 1.260 . S
C1938 C1942 1.477 . S
C1938 H1956 0.932 . S
C1939 C1940 1.384 . S
C1939 C1941 1.479 . S
C1939 H1957 0.929 . S
C1940 C1937 1.424 . S
C1940 C1939 1.384 . S
C1940 H1958 0.928 . S
C1941 C1938 1.260 . S
C1941 C1939 1.479 . S
C1942 C1937 1.245 . S
C1942 C1938 1.477 . S
C1942 H1959 0.932 . S
C1943 U1926 2.882 . S
C1943 C1937 1.428 . S
C1943 O1946 1.301 . S
C1943 O1947 1.282 . S
O1944 U1926 2.441 . S
O1944 C1930 1.249 . S
O1945 U1926 2.420 . S
O1945 C1930 1.202 . S
O1946 U1926 2.455 . S
O1946 C1943 1.301 . S
O1947 U1926 2.449 . S
O1947 C1943 1.282 . S
H1948 C1921 0.931 . S
H1949 C1923 0.929 . S
H1950 C1924 0.930 . S
H1951 C1925 0.931 . S
H1952 C1932 0.932 . S
H1953 C1933 0.930 . S
H1954 C1934 0.929 . S
H1955 C1936 0.930 . S
H1956 C1938 0.932 . S
H1957 C1939 0.929 . S
H1958 C1940 0.928 . S
H1959 C1942 0.932 . S
C1960 C1961 1.264 . S
C1960 C1965 1.479 . S
C1960 C1970 1.465 . S
C1961 C1960 1.264 . S
C1961 C1963 1.339 . S
C1961 H1988 0.931 . S
C1962 C1963 1.395 . S
C1962 C1964 1.320 . S
C1963 C1961 1.339 . S
C1963 C1962 1.395 . S
C1963 H1989 0.929 . S
C1964 C1962 1.320 . S
C1964 C1965 1.405 . S
C1964 H1990 0.930 . S
C1965 C1960 1.479 . S
C1965 C1964 1.405 . S
C1965 H1991 0.931 . S
U1966 O1967 2.454 . S
U1966 O1968 2.458 . S
U1966 C1969 2.984 . S
U1966 C1970 2.847 . S
U1966 C1983 2.882 . S
U1966 O1984 2.441 . S
U1966 O1985 2.420 . S
U1966 O1986 2.455 . S
U1966 O1987 2.449 . S
O1967 U1966 2.454 . S
O1967 C1969 1.353 . S
O1968 U1966 2.458 . S
O1968 C1969 1.286 . S
C1969 U1966 2.984 . S
C1969 O1967 1.353 . S
C1969 O1968 1.286 . S
C1969 C1971 1.363 . S
C1970 C1960 1.465 . S
C1970 U1966 2.847 . S
C1970 O1984 1.249 . S
C1970 O1985 1.202 . S
C1971 C1969 1.363 . S
C1971 C1973 1.408 . S
C1971 C1976 1.342 . S
C1972 C1973 1.310 . S
C1972 C1975 1.461 . S
C1972 H1992 0.932 . S
C1973 C1971 1.408 . S
C1973 C1972 1.310 . S
C1973 H1993 0.930 . S
C1974 C1975 1.474 . S
C1974 C1976 1.285 . S
C1974 H1994 0.929 . S
C1975 C1972 1.461 . S
C1975 C1974 1.474 . S
C1976 C1971 1.342 . S
C1976 C1974 1.285 . S
C1976 H1995 0.930 . S
C1977 C1980 1.424 . S
C1977 C1982 1.245 . S
C1977 C1983 1.428 . S
C1978 C1981 1.260 . S
C1978 C1982 1.477 . S
C1978 H1996 0.932 . S
C1979 C1980 1.384 . S
C1979 C1981 1.479 . S
C1979 H1997 0.929 . S
C1980 C1977 1.424 . S
C1980 C1979 1.384 . S
C1980 H1998 0.928 . S
C1981 C1978 1.260 . S
C1981 C1979 1.479 . S
C1982 C1977 1.245 . S
C1982 C1978 1.477 . S
C1982 H1999 0.932 . S
C1983 U1966 2.882 . S
C1983 C1977 1.428 . S
C1983 O1986 1.301 . S
C1983 O1987 1.282 . S
O1984 U1966 2.441 . S
O1984 C1970 1.249 . S
O1985 U1966 2.420 . S
O1985 C1970 1.202 . S
O1986 U1966 2.455 . S
O1986 C1983 1.301 . S
O1987 U1966 2.449 . S
O1987 C1983 1.282 . S
H1988 C1961 0.931 . S
H1989 C1963 0.929 . S
H1990 C1964 0.930 . S
H1991 C1965 0.931 . S
H1992 C1972 0.932 . S
H1993 C1973 0.930 . S
H1994 C1974 0.929 . S
H1995 C1976 0.930 . S
H1996 C1978 0.932 . S
H1997 C1979 0.929 . S
H1998 C1980 0.928 . S
H1999 C1982 0.932 . S
C2000 C2001 1.264 . S
C2000 C2005 1.479 . S
C2000 C2010 1.465 . S
C2001 C2000 1.264 . S
C2001 C2003 1.339 . S
C2001 H2028 0.931 . S
C2002 C2003 1.395 . S
C2002 C2004 1.320 . S
C2003 C2001 1.339 . S
C2003 C2002 1.395 . S
C2003 H2029 0.929 . S
C2004 C2002 1.320 . S
C2004 C2005 1.405 . S
C2004 H2030 0.930 . S
C2005 C2000 1.479 . S
C2005 C2004 1.405 . S
C2005 H2031 0.931 . S
U2006 O2007 2.454 . S
U2006 O2008 2.458 . S
U2006 C2009 2.984 . S
U2006 C2010 2.847 . S
U2006 C2023 2.882 . S
U2006 O2024 2.441 . S
U2006 O2025 2.420 . S
U2006 O2026 2.455 . S
U2006 O2027 2.449 . S
O2007 U2006 2.454 . S
O2007 C2009 1.353 . S
O2008 U2006 2.458 . S
O2008 C2009 1.286 . S
C2009 U2006 2.984 . S
C2009 O2007 1.353 . S
C2009 O2008 1.286 . S
C2009 C2011 1.363 . S
C2010 C2000 1.465 . S
C2010 U2006 2.847 . S
C2010 O2024 1.249 . S
C2010 O2025 1.202 . S
C2011 C2009 1.363 . S
C2011 C2013 1.408 . S
C2011 C2016 1.342 . S
C2012 C2013 1.310 . S
C2012 C2015 1.461 . S
C2012 H2032 0.932 . S
C2013 C2011 1.408 . S
C2013 C2012 1.310 . S
C2013 H2033 0.930 . S
C2014 C2015 1.474 . S
C2014 C2016 1.285 . S
C2014 H2034 0.929 . S
C2015 C2012 1.461 . S
C2015 C2014 1.474 . S
C2016 C2011 1.342 . S
C2016 C2014 1.285 . S
C2016 H2035 0.930 . S
C2017 C2020 1.424 . S
C2017 C2022 1.245 . S
C2017 C2023 1.428 . S
C2018 C2021 1.260 . S
C2018 C2022 1.477 . S
C2018 H2036 0.932 . S
C2019 C2020 1.384 . S
C2019 C2021 1.479 . S
C2019 H2037 0.929 . S
C2020 C2017 1.424 . S
C2020 C2019 1.384 . S
C2020 H2038 0.928 . S
C2021 C2018 1.260 . S
C2021 C2019 1.479 . S
C2022 C2017 1.245 . S
C2022 C2018 1.477 . S
C2022 H2039 0.932 . S
C2023 U2006 2.882 . S
C2023 C2017 1.428 . S
C2023 O2026 1.301 . S
C2023 O2027 1.282 . S
O2024 U2006 2.441 . S
O2024 C2010 1.249 . S
O2025 U2006 2.420 . S
O2025 C2010 1.202 . S
O2026 U2006 2.455 . S
O2026 C2023 1.301 . S
O2027 U2006 2.449 . S
O2027 C2023 1.282 . S
H2028 C2001 0.931 . S
H2029 C2003 0.929 . S
H2030 C2004 0.930 . S
H2031 C2005 0.931 . S
H2032 C2012 0.932 . S
H2033 C2013 0.930 . S
H2034 C2014 0.929 . S
H2035 C2016 0.930 . S
H2036 C2018 0.932 . S
H2037 C2019 0.929 . S
H2038 C2020 0.928 . S
H2039 C2022 0.932 . S
C2040 C2041 1.264 . S
C2040 C2045 1.479 . S
C2040 C2050 1.465 . S
C2041 C2040 1.264 . S
C2041 C2043 1.339 . S
C2041 H2068 0.931 . S
C2042 C2043 1.395 . S
C2042 C2044 1.320 . S
C2043 C2041 1.339 . S
C2043 C2042 1.395 . S
C2043 H2069 0.929 . S
C2044 C2042 1.320 . S
C2044 C2045 1.405 . S
C2044 H2070 0.930 . S
C2045 C2040 1.479 . S
C2045 C2044 1.405 . S
C2045 H2071 0.931 . S
U2046 O2047 2.454 . S
U2046 O2048 2.458 . S
U2046 C2049 2.984 . S
U2046 C2050 2.847 . S
U2046 C2063 2.882 . S
U2046 O2064 2.441 . S
U2046 O2065 2.420 . S
U2046 O2066 2.455 . S
U2046 O2067 2.449 . S
O2047 U2046 2.454 . S
O2047 C2049 1.353 . S
O2048 U2046 2.458 . S
O2048 C2049 1.286 . S
C2049 U2046 2.984 . S
C2049 O2047 1.353 . S
C2049 O2048 1.286 . S
C2049 C2051 1.363 . S
C2050 C2040 1.465 . S
C2050 U2046 2.847 . S
C2050 O2064 1.249 . S
C2050 O2065 1.202 . S
C2051 C2049 1.363 . S
C2051 C2053 1.408 . S
C2051 C2056 1.342 . S
C2052 C2053 1.310 . S
C2052 C2055 1.461 . S
C2052 H2072 0.932 . S
C2053 C2051 1.408 . S
C2053 C2052 1.310 . S
C2053 H2073 0.930 . S
C2054 C2055 1.474 . S
C2054 C2056 1.285 . S
C2054 H2074 0.929 . S
C2055 C2052 1.461 . S
C2055 C2054 1.474 . S
C2056 C2051 1.342 . S
C2056 C2054 1.285 . S
C2056 H2075 0.930 . S
C2057 C2060 1.424 . S
C2057 C2062 1.245 . S
C2057 C2063 1.428 . S
C2058 C2061 1.260 . S
C2058 C2062 1.477 . S
C2058 H2076 0.932 . S
C2059 C2060 1.384 . S
C2059 C2061 1.479 . S
C2059 H2077 0.929 . S
C2060 C2057 1.424 . S
C2060 C2059 1.384 . S
C2060 H2078 0.928 . S
C2061 C2058 1.260 . S
C2061 C2059 1.479 . S
C2062 C2057 1.245 . S
C2062 C2058 1.477 . S
C2062 H2079 0.932 . S
C2063 U2046 2.882 . S
C2063 C2057 1.428 . S
C2063 O2066 1.301 . S
C2063 O2067 1.282 . S
O2064 U2046 2.441 . S
O2064 C2050 1.249 . S
O2065 U2046 2.420 . S
O2065 C2050 1.202 . S
O2066 U2046 2.455 . S
O2066 C2063 1.301 . S
O2067 U2046 2.449 . S
O2067 C2063 1.282 . S
H2068 C2041 0.931 . S
H2069 C2043 0.929 . S
H2070 C2044 0.930 . S
H2071 C2045 0.931 . S
H2072 C2052 0.932 . S
H2073 C2053 0.930 . S
H2074 C2054 0.929 . S
H2075 C2056 0.930 . S
H2076 C2058 0.932 . S
H2077 C2059 0.929 . S
H2078 C2060 0.928 . S
H2079 C2062 0.932 . S
C2080 C2081 1.264 . S
C2080 C2085 1.479 . S
C2080 C2090 1.465 . S
C2081 C2080 1.264 . S
C2081 C2083 1.339 . S
C2081 H2108 0.931 . S
C2082 C2083 1.395 . S
C2082 C2084 1.320 . S
C2083 C2081 1.339 . S
C2083 C2082 1.395 . S
C2083 H2109 0.929 . S
C2084 C2082 1.320 . S
C2084 C2085 1.405 . S
C2084 H2110 0.930 . S
C2085 C2080 1.479 . S
C2085 C2084 1.405 . S
C2085 H2111 0.931 . S
U2086 O2087 2.454 . S
U2086 O2088 2.458 . S
U2086 C2089 2.984 . S
U2086 C2090 2.847 . S
U2086 C2103 2.882 . S
U2086 O2104 2.441 . S
U2086 O2105 2.420 . S
U2086 O2106 2.455 . S
U2086 O2107 2.449 . S
O2087 U2086 2.454 . S
O2087 C2089 1.353 . S
O2088 U2086 2.458 . S
O2088 C2089 1.286 . S
C2089 U2086 2.984 . S
C2089 O2087 1.353 . S
C2089 O2088 1.286 . S
C2089 C2091 1.363 . S
C2090 C2080 1.465 . S
C2090 U2086 2.847 . S
C2090 O2104 1.249 . S
C2090 O2105 1.202 . S
C2091 C2089 1.363 . S
C2091 C2093 1.408 . S
C2091 C2096 1.342 . S
C2092 C2093 1.310 . S
C2092 C2095 1.461 . S
C2092 H2112 0.932 . S
C2093 C2091 1.408 . S
C2093 C2092 1.310 . S
C2093 H2113 0.930 . S
C2094 C2095 1.474 . S
C2094 C2096 1.285 . S
C2094 H2114 0.929 . S
C2095 C2092 1.461 . S
C2095 C2094 1.474 . S
C2096 C2091 1.342 . S
C2096 C2094 1.285 . S
C2096 H2115 0.930 . S
C2097 C2100 1.424 . S
C2097 C2102 1.245 . S
C2097 C2103 1.428 . S
C2098 C2101 1.260 . S
C2098 C2102 1.477 . S
C2098 H2116 0.932 . S
C2099 C2100 1.384 . S
C2099 C2101 1.479 . S
C2099 H2117 0.929 . S
C2100 C2097 1.424 . S
C2100 C2099 1.384 . S
C2100 H2118 0.928 . S
C2101 C2098 1.260 . S
C2101 C2099 1.479 . S
C2102 C2097 1.245 . S
C2102 C2098 1.477 . S
C2102 H2119 0.932 . S
C2103 U2086 2.882 . S
C2103 C2097 1.428 . S
C2103 O2106 1.301 . S
C2103 O2107 1.282 . S
O2104 U2086 2.441 . S
O2104 C2090 1.249 . S
O2105 U2086 2.420 . S
O2105 C2090 1.202 . S
O2106 U2086 2.455 . S
O2106 C2103 1.301 . S
O2107 U2086 2.449 . S
O2107 C2103 1.282 . S
H2108 C2081 0.931 . S
H2109 C2083 0.929 . S
H2110 C2084 0.930 . S
H2111 C2085 0.931 . S
H2112 C2092 0.932 . S
H2113 C2093 0.930 . S
H2114 C2094 0.929 . S
H2115 C2096 0.930 . S
H2116 C2098 0.932 . S
H2117 C2099 0.929 . S
H2118 C2100 0.928 . S
H2119 C2102 0.932 . S
C2120 C2121 1.264 . S
C2120 C2125 1.479 . S
C2120 C2130 1.465 . S
C2121 C2120 1.264 . S
C2121 C2123 1.339 . S
C2121 H2148 0.931 . S
C2122 C2123 1.395 . S
C2122 C2124 1.320 . S
C2123 C2121 1.339 . S
C2123 C2122 1.395 . S
C2123 H2149 0.929 . S
C2124 C2122 1.320 . S
C2124 C2125 1.405 . S
C2124 H2150 0.930 . S
C2125 C2120 1.479 . S
C2125 C2124 1.405 . S
C2125 H2151 0.931 . S
U2126 O2127 2.454 . S
U2126 O2128 2.458 . S
U2126 C2129 2.984 . S
U2126 C2130 2.847 . S
U2126 C2143 2.882 . S
U2126 O2144 2.441 . S
U2126 O2145 2.420 . S
U2126 O2146 2.455 . S
U2126 O2147 2.449 . S
O2127 U2126 2.454 . S
O2127 C2129 1.353 . S
O2128 U2126 2.458 . S
O2128 C2129 1.286 . S
C2129 U2126 2.984 . S
C2129 O2127 1.353 . S
C2129 O2128 1.286 . S
C2129 C2131 1.363 . S
C2130 C2120 1.465 . S
C2130 U2126 2.847 . S
C2130 O2144 1.249 . S
C2130 O2145 1.202 . S
C2131 C2129 1.363 . S
C2131 C2133 1.408 . S
C2131 C2136 1.342 . S
C2132 C2133 1.310 . S
C2132 C2135 1.461 . S
C2132 H2152 0.932 . S
C2133 C2131 1.408 . S
C2133 C2132 1.310 . S
C2133 H2153 0.930 . S
C2134 C2135 1.474 . S
C2134 C2136 1.285 . S
C2134 H2154 0.929 . S
C2135 C2132 1.461 . S
C2135 C2134 1.474 . S
C2136 C2131 1.342 . S
C2136 C2134 1.285 . S
C2136 H2155 0.930 . S
C2137 C2140 1.424 . S
C2137 C2142 1.245 . S
C2137 C2143 1.428 . S
C2138 C2141 1.260 . S
C2138 C2142 1.477 . S
C2138 H2156 0.932 . S
C2139 C2140 1.384 . S
C2139 C2141 1.479 . S
C2139 H2157 0.929 . S
C2140 C2137 1.424 . S
C2140 C2139 1.384 . S
C2140 H2158 0.928 . S
C2141 C2138 1.260 . S
C2141 C2139 1.479 . S
C2142 C2137 1.245 . S
C2142 C2138 1.477 . S
C2142 H2159 0.932 . S
C2143 U2126 2.882 . S
C2143 C2137 1.428 . S
C2143 O2146 1.301 . S
C2143 O2147 1.282 . S
O2144 U2126 2.441 . S
O2144 C2130 1.249 . S
O2145 U2126 2.420 . S
O2145 C2130 1.202 . S
O2146 U2126 2.455 . S
O2146 C2143 1.301 . S
O2147 U2126 2.449 . S
O2147 C2143 1.282 . S
H2148 C2121 0.931 . S
H2149 C2123 0.929 . S
H2150 C2124 0.930 . S
H2151 C2125 0.931 . S
H2152 C2132 0.932 . S
H2153 C2133 0.930 . S
H2154 C2134 0.929 . S
H2155 C2136 0.930 . S
H2156 C2138 0.932 . S
H2157 C2139 0.929 . S
H2158 C2140 0.928 . S
H2159 C2142 0.932 . S
C2160 C2161 1.264 . S
C2160 C2165 1.479 . S
C2160 C2170 1.465 . S
C2161 C2160 1.264 . S
C2161 C2163 1.339 . S
C2161 H2188 0.931 . S
C2162 C2163 1.395 . S
C2162 C2164 1.320 . S
C2163 C2161 1.339 . S
C2163 C2162 1.395 . S
C2163 H2189 0.929 . S
C2164 C2162 1.320 . S
C2164 C2165 1.405 . S
C2164 H2190 0.930 . S
C2165 C2160 1.479 . S
C2165 C2164 1.405 . S
C2165 H2191 0.931 . S
U2166 O2167 2.454 . S
U2166 O2168 2.458 . S
U2166 C2169 2.984 . S
U2166 C2170 2.847 . S
U2166 C2183 2.882 . S
U2166 O2184 2.441 . S
U2166 O2185 2.420 . S
U2166 O2186 2.455 . S
U2166 O2187 2.449 . S
O2167 U2166 2.454 . S
O2167 C2169 1.353 . S
O2168 U2166 2.458 . S
O2168 C2169 1.286 . S
C2169 U2166 2.984 . S
C2169 O2167 1.353 . S
C2169 O2168 1.286 . S
C2169 C2171 1.363 . S
C2170 C2160 1.465 . S
C2170 U2166 2.847 . S
C2170 O2184 1.249 . S
C2170 O2185 1.202 . S
C2171 C2169 1.363 . S
C2171 C2173 1.408 . S
C2171 C2176 1.342 . S
C2172 C2173 1.310 . S
C2172 C2175 1.461 . S
C2172 H2192 0.932 . S
C2173 C2171 1.408 . S
C2173 C2172 1.310 . S
C2173 H2193 0.930 . S
C2174 C2175 1.474 . S
C2174 C2176 1.285 . S
C2174 H2194 0.929 . S
C2175 C2172 1.461 . S
C2175 C2174 1.474 . S
C2176 C2171 1.342 . S
C2176 C2174 1.285 . S
C2176 H2195 0.930 . S
C2177 C2180 1.424 . S
C2177 C2182 1.245 . S
C2177 C2183 1.428 . S
C2178 C2181 1.260 . S
C2178 C2182 1.477 . S
C2178 H2196 0.932 . S
C2179 C2180 1.384 . S
C2179 C2181 1.479 . S
C2179 H2197 0.929 . S
C2180 C2177 1.424 . S
C2180 C2179 1.384 . S
C2180 H2198 0.928 . S
C2181 C2178 1.260 . S
C2181 C2179 1.479 . S
C2182 C2177 1.245 . S
C2182 C2178 1.477 . S
C2182 H2199 0.932 . S
C2183 U2166 2.882 . S
C2183 C2177 1.428 . S
C2183 O2186 1.301 . S
C2183 O2187 1.282 . S
O2184 U2166 2.441 . S
O2184 C2170 1.249 . S
O2185 U2166 2.420 . S
O2185 C2170 1.202 . S
O2186 U2166 2.455 . S
O2186 C2183 1.301 . S
O2187 U2166 2.449 . S
O2187 C2183 1.282 . S
H2188 C2161 0.931 . S
H2189 C2163 0.929 . S
H2190 C2164 0.930 . S
H2191 C2165 0.931 . S
H2192 C2172 0.932 . S
H2193 C2173 0.930 . S
H2194 C2174 0.929 . S
H2195 C2176 0.930 . S
H2196 C2178 0.932 . S
H2197 C2179 0.929 . S
H2198 C2180 0.928 . S
H2199 C2182 0.932 . S
C2200 C2201 1.264 . S
C2200 C2205 1.479 . S
C2200 C2210 1.465 . S
C2201 C2200 1.264 . S
C2201 C2203 1.339 . S
C2201 H2228 0.931 . S
C2202 C2203 1.395 . S
C2202 C2204 1.320 . S
C2203 C2201 1.339 . S
C2203 C2202 1.395 . S
C2203 H2229 0.929 . S
C2204 C2202 1.320 . S
C2204 C2205 1.405 . S
C2204 H2230 0.930 . S
C2205 C2200 1.479 . S
C2205 C2204 1.405 . S
C2205 H2231 0.931 . S
U2206 O2207 2.454 . S
U2206 O2208 2.458 . S
U2206 C2209 2.984 . S
U2206 C2210 2.847 . S
U2206 C2223 2.882 . S
U2206 O2224 2.441 . S
U2206 O2225 2.420 . S
U2206 O2226 2.455 . S
U2206 O2227 2.449 . S
O2207 U2206 2.454 . S
O2207 C2209 1.353 . S
O2208 U2206 2.458 . S
O2208 C2209 1.286 . S
C2209 U2206 2.984 . S
C2209 O2207 1.353 . S
C2209 O2208 1.286 . S
C2209 C2211 1.363 . S
C2210 C2200 1.465 . S
C2210 U2206 2.847 . S
C2210 O2224 1.249 . S
C2210 O2225 1.202 . S
C2211 C2209 1.363 . S
C2211 C2213 1.408 . S
C2211 C2216 1.342 . S
C2212 C2213 1.310 . S
C2212 C2215 1.461 . S
C2212 H2232 0.932 . S
C2213 C2211 1.408 . S
C2213 C2212 1.310 . S
C2213 H2233 0.930 . S
C2214 C2215 1.474 . S
C2214 C2216 1.285 . S
C2214 H2234 0.929 . S
C2215 C2212 1.461 . S
C2215 C2214 1.474 . S
C2216 C2211 1.342 . S
C2216 C2214 1.285 . S
C2216 H2235 0.930 . S
C2217 C2220 1.424 . S
C2217 C2222 1.245 . S
C2217 C2223 1.428 . S
C2218 C2221 1.260 . S
C2218 C2222 1.477 . S
C2218 H2236 0.932 . S
C2219 C2220 1.384 . S
C2219 C2221 1.479 . S
C2219 H2237 0.929 . S
C2220 C2217 1.424 . S
C2220 C2219 1.384 . S
C2220 H2238 0.928 . S
C2221 C2218 1.260 . S
C2221 C2219 1.479 . S
C2222 C2217 1.245 . S
C2222 C2218 1.477 . S
C2222 H2239 0.932 . S
C2223 U2206 2.882 . S
C2223 C2217 1.428 . S
C2223 O2226 1.301 . S
C2223 O2227 1.282 . S
O2224 U2206 2.441 . S
O2224 C2210 1.249 . S
O2225 U2206 2.420 . S
O2225 C2210 1.202 . S
O2226 U2206 2.455 . S
O2226 C2223 1.301 . S
O2227 U2206 2.449 . S
O2227 C2223 1.282 . S
H2228 C2201 0.931 . S
H2229 C2203 0.929 . S
H2230 C2204 0.930 . S
H2231 C2205 0.931 . S
H2232 C2212 0.932 . S
H2233 C2213 0.930 . S
H2234 C2214 0.929 . S
H2235 C2216 0.930 . S
H2236 C2218 0.932 . S
H2237 C2219 0.929 . S
H2238 C2220 0.928 . S
H2239 C2222 0.932 . S
C2240 C2241 1.264 . S
C2240 C2245 1.479 . S
C2240 C2250 1.465 . S
C2241 C2240 1.264 . S
C2241 C2243 1.339 . S
C2241 H2268 0.931 . S
C2242 C2243 1.395 . S
C2242 C2244 1.320 . S
C2243 C2241 1.339 . S
C2243 C2242 1.395 . S
C2243 H2269 0.929 . S
C2244 C2242 1.320 . S
C2244 C2245 1.405 . S
C2244 H2270 0.930 . S
C2245 C2240 1.479 . S
C2245 C2244 1.405 . S
C2245 H2271 0.931 . S
U2246 O2247 2.454 . S
U2246 O2248 2.458 . S
U2246 C2249 2.984 . S
U2246 C2250 2.847 . S
U2246 C2263 2.882 . S
U2246 O2264 2.441 . S
U2246 O2265 2.420 . S
U2246 O2266 2.455 . S
U2246 O2267 2.449 . S
O2247 U2246 2.454 . S
O2247 C2249 1.353 . S
O2248 U2246 2.458 . S
O2248 C2249 1.286 . S
C2249 U2246 2.984 . S
C2249 O2247 1.353 . S
C2249 O2248 1.286 . S
C2249 C2251 1.363 . S
C2250 C2240 1.465 . S
C2250 U2246 2.847 . S
C2250 O2264 1.249 . S
C2250 O2265 1.202 . S
C2251 C2249 1.363 . S
C2251 C2253 1.408 . S
C2251 C2256 1.342 . S
C2252 C2253 1.310 . S
C2252 C2255 1.461 . S
C2252 H2272 0.932 . S
C2253 C2251 1.408 . S
C2253 C2252 1.310 . S
C2253 H2273 0.930 . S
C2254 C2255 1.474 . S
C2254 C2256 1.285 . S
C2254 H2274 0.929 . S
C2255 C2252 1.461 . S
C2255 C2254 1.474 . S
C2256 C2251 1.342 . S
C2256 C2254 1.285 . S
C2256 H2275 0.930 . S
C2257 C2260 1.424 . S
C2257 C2262 1.245 . S
C2257 C2263 1.428 . S
C2258 C2261 1.260 . S
C2258 C2262 1.477 . S
C2258 H2276 0.932 . S
C2259 C2260 1.384 . S
C2259 C2261 1.479 . S
C2259 H2277 0.929 . S
C2260 C2257 1.424 . S
C2260 C2259 1.384 . S
C2260 H2278 0.928 . S
C2261 C2258 1.260 . S
C2261 C2259 1.479 . S
C2262 C2257 1.245 . S
C2262 C2258 1.477 . S
C2262 H2279 0.932 . S
C2263 U2246 2.882 . S
C2263 C2257 1.428 . S
C2263 O2266 1.301 . S
C2263 O2267 1.282 . S
O2264 U2246 2.441 . S
O2264 C2250 1.249 . S
O2265 U2246 2.420 . S
O2265 C2250 1.202 . S
O2266 U2246 2.455 . S
O2266 C2263 1.301 . S
O2267 U2246 2.449 . S
O2267 C2263 1.282 . S
H2268 C2241 0.931 . S
H2269 C2243 0.929 . S
H2270 C2244 0.930 . S
H2271 C2245 0.931 . S
H2272 C2252 0.932 . S
H2273 C2253 0.930 . S
H2274 C2254 0.929 . S
H2275 C2256 0.930 . S
H2276 C2258 0.932 . S
H2277 C2259 0.929 . S
H2278 C2260 0.928 . S
H2279 C2262 0.932 . S
C2280 C2281 1.264 . S
C2280 C2285 1.479 . S
C2280 C2290 1.465 . S
C2281 C2280 1.264 . S
C2281 C2283 1.339 . S
C2281 H2308 0.931 . S
C2282 C2283 1.395 . S
C2282 C2284 1.320 . S
C2283 C2281 1.339 . S
C2283 C2282 1.395 . S
C2283 H2309 0.929 . S
C2284 C2282 1.320 . S
C2284 C2285 1.405 . S
C2284 H2310 0.930 . S
C2285 C2280 1.479 . S
C2285 C2284 1.405 . S
C2285 H2311 0.931 . S
U2286 O2287 2.454 . S
U2286 O2288 2.458 . S
U2286 C2289 2.984 . S
U2286 C2290 2.847 . S
U2286 C2303 2.882 . S
U2286 O2304 2.441 . S
U2286 O2305 2.420 . S
U2286 O2306 2.455 . S
U2286 O2307 2.449 . S
O2287 U2286 2.454 . S
O2287 C2289 1.353 . S
O2288 U2286 2.458 . S
O2288 C2289 1.286 . S
C2289 U2286 2.984 . S
C2289 O2287 1.353 . S
C2289 O2288 1.286 . S
C2289 C2291 1.363 . S
C2290 C2280 1.465 . S
C2290 U2286 2.847 . S
C2290 O2304 1.249 . S
C2290 O2305 1.202 . S
C2291 C2289 1.363 . S
C2291 C2293 1.408 . S
C2291 C2296 1.342 . S
C2292 C2293 1.310 . S
C2292 C2295 1.461 . S
C2292 H2312 0.932 . S
C2293 C2291 1.408 . S
C2293 C2292 1.310 . S
C2293 H2313 0.930 . S
C2294 C2295 1.474 . S
C2294 C2296 1.285 . S
C2294 H2314 0.929 . S
C2295 C2292 1.461 . S
C2295 C2294 1.474 . S
C2296 C2291 1.342 . S
C2296 C2294 1.285 . S
C2296 H2315 0.930 . S
C2297 C2300 1.424 . S
C2297 C2302 1.245 . S
C2297 C2303 1.428 . S
C2298 C2301 1.260 . S
C2298 C2302 1.477 . S
C2298 H2316 0.932 . S
C2299 C2300 1.384 . S
C2299 C2301 1.479 . S
C2299 H2317 0.929 . S
C2300 C2297 1.424 . S
C2300 C2299 1.384 . S
C2300 H2318 0.928 . S
C2301 C2298 1.260 . S
C2301 C2299 1.479 . S
C2302 C2297 1.245 . S
C2302 C2298 1.477 . S
C2302 H2319 0.932 . S
C2303 U2286 2.882 . S
C2303 C2297 1.428 . S
C2303 O2306 1.301 . S
C2303 O2307 1.282 . S
O2304 U2286 2.441 . S
O2304 C2290 1.249 . S
O2305 U2286 2.420 . S
O2305 C2290 1.202 . S
O2306 U2286 2.455 . S
O2306 C2303 1.301 . S
O2307 U2286 2.449 . S
O2307 C2303 1.282 . S
H2308 C2281 0.931 . S
H2309 C2283 0.929 . S
H2310 C2284 0.930 . S
H2311 C2285 0.931 . S
H2312 C2292 0.932 . S
H2313 C2293 0.930 . S
H2314 C2294 0.929 . S
H2315 C2296 0.930 . S
H2316 C2298 0.932 . S
H2317 C2299 0.929 . S
H2318 C2300 0.928 . S
H2319 C2302 0.932 . S
C2320 C2321 1.264 . S
C2320 C2325 1.479 . S
C2320 C2330 1.465 . S
C2321 C2320 1.264 . S
C2321 C2323 1.339 . S
C2321 H2348 0.931 . S
C2322 C2323 1.395 . S
C2322 C2324 1.320 . S
C2323 C2321 1.339 . S
C2323 C2322 1.395 . S
C2323 H2349 0.929 . S
C2324 C2322 1.320 . S
C2324 C2325 1.405 . S
C2324 H2350 0.930 . S
C2325 C2320 1.479 . S
C2325 C2324 1.405 . S
C2325 H2351 0.931 . S
U2326 O2327 2.454 . S
U2326 O2328 2.458 . S
U2326 C2329 2.984 . S
U2326 C2330 2.847 . S
U2326 C2343 2.882 . S
U2326 O2344 2.441 . S
U2326 O2345 2.420 . S
U2326 O2346 2.455 . S
U2326 O2347 2.449 . S
O2327 U2326 2.454 . S
O2327 C2329 1.353 . S
O2328 U2326 2.458 . S
O2328 C2329 1.286 . S
C2329 U2326 2.984 . S
C2329 O2327 1.353 . S
C2329 O2328 1.286 . S
C2329 C2331 1.363 . S
C2330 C2320 1.465 . S
C2330 U2326 2.847 . S
C2330 O2344 1.249 . S
C2330 O2345 1.202 . S
C2331 C2329 1.363 . S
C2331 C2333 1.408 . S
C2331 C2336 1.342 . S
C2332 C2333 1.310 . S
C2332 C2335 1.461 . S
C2332 H2352 0.932 . S
C2333 C2331 1.408 . S
C2333 C2332 1.310 . S
C2333 H2353 0.930 . S
C2334 C2335 1.474 . S
C2334 C2336 1.285 . S
C2334 H2354 0.929 . S
C2335 C2332 1.461 . S
C2335 C2334 1.474 . S
C2336 C2331 1.342 . S
C2336 C2334 1.285 . S
C2336 H2355 0.930 . S
C2337 C2340 1.424 . S
C2337 C2342 1.245 . S
C2337 C2343 1.428 . S
C2338 C2341 1.260 . S
C2338 C2342 1.477 . S
C2338 H2356 0.932 . S
C2339 C2340 1.384 . S
C2339 C2341 1.479 . S
C2339 H2357 0.929 . S
C2340 C2337 1.424 . S
C2340 C2339 1.384 . S
C2340 H2358 0.928 . S
C2341 C2338 1.260 . S
C2341 C2339 1.479 . S
C2342 C2337 1.245 . S
C2342 C2338 1.477 . S
C2342 H2359 0.932 . S
C2343 U2326 2.882 . S
C2343 C2337 1.428 . S
C2343 O2346 1.301 . S
C2343 O2347 1.282 . S
O2344 U2326 2.441 . S
O2344 C2330 1.249 . S
O2345 U2326 2.420 . S
O2345 C2330 1.202 . S
O2346 U2326 2.455 . S
O2346 C2343 1.301 . S
O2347 U2326 2.449 . S
O2347 C2343 1.282 . S
H2348 C2321 0.931 . S
H2349 C2323 0.929 . S
H2350 C2324 0.930 . S
H2351 C2325 0.931 . S
H2352 C2332 0.932 . S
H2353 C2333 0.930 . S
H2354 C2334 0.929 . S
H2355 C2336 0.930 . S
H2356 C2338 0.932 . S
H2357 C2339 0.929 . S
H2358 C2340 0.928 . S
H2359 C2342 0.932 . S
C2360 C2361 1.264 . S
C2360 C2365 1.479 . S
C2360 C2370 1.465 . S
C2361 C2360 1.264 . S
C2361 C2363 1.339 . S
C2361 H2388 0.931 . S
C2362 C2363 1.395 . S
C2362 C2364 1.320 . S
C2363 C2361 1.339 . S
C2363 C2362 1.395 . S
C2363 H2389 0.929 . S
C2364 C2362 1.320 . S
C2364 C2365 1.405 . S
C2364 H2390 0.930 . S
C2365 C2360 1.479 . S
C2365 C2364 1.405 . S
C2365 H2391 0.931 . S
U2366 O2367 2.454 . S
U2366 O2368 2.458 . S
U2366 C2369 2.984 . S
U2366 C2370 2.847 . S
U2366 C2383 2.882 . S
U2366 O2384 2.441 . S
U2366 O2385 2.420 . S
U2366 O2386 2.455 . S
U2366 O2387 2.449 . S
O2367 U2366 2.454 . S
O2367 C2369 1.353 . S
O2368 U2366 2.458 . S
O2368 C2369 1.286 . S
C2369 U2366 2.984 . S
C2369 O2367 1.353 . S
C2369 O2368 1.286 . S
C2369 C2371 1.363 . S
C2370 C2360 1.465 . S
C2370 U2366 2.847 . S
C2370 O2384 1.249 . S
C2370 O2385 1.202 . S
C2371 C2369 1.363 . S
C2371 C2373 1.408 . S
C2371 C2376 1.342 . S
C2372 C2373 1.310 . S
C2372 C2375 1.461 . S
C2372 H2392 0.932 . S
C2373 C2371 1.408 . S
C2373 C2372 1.310 . S
C2373 H2393 0.930 . S
C2374 C2375 1.474 . S
C2374 C2376 1.285 . S
C2374 H2394 0.929 . S
C2375 C2372 1.461 . S
C2375 C2374 1.474 . S
C2376 C2371 1.342 . S
C2376 C2374 1.285 . S
C2376 H2395 0.930 . S
C2377 C2380 1.424 . S
C2377 C2382 1.245 . S
C2377 C2383 1.428 . S
C2378 C2381 1.260 . S
C2378 C2382 1.477 . S
C2378 H2396 0.932 . S
C2379 C2380 1.384 . S
C2379 C2381 1.479 . S
C2379 H2397 0.929 . S
C2380 C2377 1.424 . S
C2380 C2379 1.384 . S
C2380 H2398 0.928 . S
C2381 C2378 1.260 . S
C2381 C2379 1.479 . S
C2382 C2377 1.245 . S
C2382 C2378 1.477 . S
C2382 H2399 0.932 . S
C2383 U2366 2.882 . S
C2383 C2377 1.428 . S
C2383 O2386 1.301 . S
C2383 O2387 1.282 . S
O2384 U2366 2.441 . S
O2384 C2370 1.249 . S
O2385 U2366 2.420 . S
O2385 C2370 1.202 . S
O2386 U2366 2.455 . S
O2386 C2383 1.301 . S
O2387 U2366 2.449 . S
O2387 C2383 1.282 . S
H2388 C2361 0.931 . S
H2389 C2363 0.929 . S
H2390 C2364 0.930 . S
H2391 C2365 0.931 . S
H2392 C2372 0.932 . S
H2393 C2373 0.930 . S
H2394 C2374 0.929 . S
H2395 C2376 0.930 . S
H2396 C2378 0.932 . S
H2397 C2379 0.929 . S
H2398 C2380 0.928 . S
H2399 C2382 0.932 . S
C2400 C2401 1.264 . S
C2400 C2405 1.479 . S
C2400 C2410 1.465 . S
C2401 C2400 1.264 . S
C2401 C2403 1.339 . S
C2401 H2428 0.931 . S
C2402 C2403 1.395 . S
C2402 C2404 1.320 . S
C2403 C2401 1.339 . S
C2403 C2402 1.395 . S
C2403 H2429 0.929 . S
C2404 C2402 1.320 . S
C2404 C2405 1.405 . S
C2404 H2430 0.930 . S
C2405 C2400 1.479 . S
C2405 C2404 1.405 . S
C2405 H2431 0.931 . S
U2406 O2407 2.454 . S
U2406 O2408 2.458 . S
U2406 C2409 2.984 . S
U2406 C2410 2.847 . S
U2406 C2423 2.882 . S
U2406 O2424 2.441 . S
U2406 O2425 2.420 . S
U2406 O2426 2.455 . S
U2406 O2427 2.449 . S
O2407 U2406 2.454 . S
O2407 C2409 1.353 . S
O2408 U2406 2.458 . S
O2408 C2409 1.286 . S
C2409 U2406 2.984 . S
C2409 O2407 1.353 . S
C2409 O2408 1.286 . S
C2409 C2411 1.363 . S
C2410 C2400 1.465 . S
C2410 U2406 2.847 . S
C2410 O2424 1.249 . S
C2410 O2425 1.202 . S
C2411 C2409 1.363 . S
C2411 C2413 1.408 . S
C2411 C2416 1.342 . S
C2412 C2413 1.310 . S
C2412 C2415 1.461 . S
C2412 H2432 0.932 . S
C2413 C2411 1.408 . S
C2413 C2412 1.310 . S
C2413 H2433 0.930 . S
C2414 C2415 1.474 . S
C2414 C2416 1.285 . S
C2414 H2434 0.929 . S
C2415 C2412 1.461 . S
C2415 C2414 1.474 . S
C2416 C2411 1.342 . S
C2416 C2414 1.285 . S
C2416 H2435 0.930 . S
C2417 C2420 1.424 . S
C2417 C2422 1.245 . S
C2417 C2423 1.428 . S
C2418 C2421 1.260 . S
C2418 C2422 1.477 . S
C2418 H2436 0.932 . S
C2419 C2420 1.384 . S
C2419 C2421 1.479 . S
C2419 H2437 0.929 . S
C2420 C2417 1.424 . S
C2420 C2419 1.384 . S
C2420 H2438 0.928 . S
C2421 C2418 1.260 . S
C2421 C2419 1.479 . S
C2422 C2417 1.245 . S
C2422 C2418 1.477 . S
C2422 H2439 0.932 . S
C2423 U2406 2.882 . S
C2423 C2417 1.428 . S
C2423 O2426 1.301 . S
C2423 O2427 1.282 . S
O2424 U2406 2.441 . S
O2424 C2410 1.249 . S
O2425 U2406 2.420 . S
O2425 C2410 1.202 . S
O2426 U2406 2.455 . S
O2426 C2423 1.301 . S
O2427 U2406 2.449 . S
O2427 C2423 1.282 . S
H2428 C2401 0.931 . S
H2429 C2403 0.929 . S
H2430 C2404 0.930 . S
H2431 C2405 0.931 . S
H2432 C2412 0.932 . S
H2433 C2413 0.930 . S
H2434 C2414 0.929 . S
H2435 C2416 0.930 . S
H2436 C2418 0.932 . S
H2437 C2419 0.929 . S
H2438 C2420 0.928 . S
H2439 C2422 0.932 . S
C2440 C2441 1.264 . S
C2440 C2445 1.479 . S
C2440 C2450 1.465 . S
C2441 C2440 1.264 . S
C2441 C2443 1.339 . S
C2441 H2468 0.931 . S
C2442 C2443 1.395 . S
C2442 C2444 1.320 . S
C2443 C2441 1.339 . S
C2443 C2442 1.395 . S
C2443 H2469 0.929 . S
C2444 C2442 1.320 . S
C2444 C2445 1.405 . S
C2444 H2470 0.930 . S
C2445 C2440 1.479 . S
C2445 C2444 1.405 . S
C2445 H2471 0.931 . S
U2446 O2447 2.454 . S
U2446 O2448 2.458 . S
U2446 C2449 2.984 . S
U2446 C2450 2.847 . S
U2446 C2463 2.882 . S
U2446 O2464 2.441 . S
U2446 O2465 2.420 . S
U2446 O2466 2.455 . S
U2446 O2467 2.449 . S
O2447 U2446 2.454 . S
O2447 C2449 1.353 . S
O2448 U2446 2.458 . S
O2448 C2449 1.286 . S
C2449 U2446 2.984 . S
C2449 O2447 1.353 . S
C2449 O2448 1.286 . S
C2449 C2451 1.363 . S
C2450 C2440 1.465 . S
C2450 U2446 2.847 . S
C2450 O2464 1.249 . S
C2450 O2465 1.202 . S
C2451 C2449 1.363 . S
C2451 C2453 1.408 . S
C2451 C2456 1.342 . S
C2452 C2453 1.310 . S
C2452 C2455 1.461 . S
C2452 H2472 0.932 . S
C2453 C2451 1.408 . S
C2453 C2452 1.310 . S
C2453 H2473 0.930 . S
C2454 C2455 1.474 . S
C2454 C2456 1.285 . S
C2454 H2474 0.929 . S
C2455 C2452 1.461 . S
C2455 C2454 1.474 . S
C2456 C2451 1.342 . S
C2456 C2454 1.285 . S
C2456 H2475 0.930 . S
C2457 C2460 1.424 . S
C2457 C2462 1.245 . S
C2457 C2463 1.428 . S
C2458 C2461 1.260 . S
C2458 C2462 1.477 . S
C2458 H2476 0.932 . S
C2459 C2460 1.384 . S
C2459 C2461 1.479 . S
C2459 H2477 0.929 . S
C2460 C2457 1.424 . S
C2460 C2459 1.384 . S
C2460 H2478 0.928 . S
C2461 C2458 1.260 . S
C2461 C2459 1.479 . S
C2462 C2457 1.245 . S
C2462 C2458 1.477 . S
C2462 H2479 0.932 . S
C2463 U2446 2.882 . S
C2463 C2457 1.428 . S
C2463 O2466 1.301 . S
C2463 O2467 1.282 . S
O2464 U2446 2.441 . S
O2464 C2450 1.249 . S
O2465 U2446 2.420 . S
O2465 C2450 1.202 . S
O2466 U2446 2.455 . S
O2466 C2463 1.301 . S
O2467 U2446 2.449 . S
O2467 C2463 1.282 . S
H2468 C2441 0.931 . S
H2469 C2443 0.929 . S
H2470 C2444 0.930 . S
H2471 C2445 0.931 . S
H2472 C2452 0.932 . S
H2473 C2453 0.930 . S
H2474 C2454 0.929 . S
H2475 C2456 0.930 . S
H2476 C2458 0.932 . S
H2477 C2459 0.929 . S
H2478 C2460 0.928 . S
H2479 C2462 0.932 . S
C2480 C2481 1.264 . S
C2480 C2485 1.479 . S
C2480 C2490 1.465 . S
C2481 C2480 1.264 . S
C2481 C2483 1.339 . S
C2481 H2508 0.931 . S
C2482 C2483 1.395 . S
C2482 C2484 1.320 . S
C2483 C2481 1.339 . S
C2483 C2482 1.395 . S
C2483 H2509 0.929 . S
C2484 C2482 1.320 . S
C2484 C2485 1.405 . S
C2484 H2510 0.930 . S
C2485 C2480 1.479 . S
C2485 C2484 1.405 . S
C2485 H2511 0.931 . S
U2486 O2487 2.454 . S
U2486 O2488 2.458 . S
U2486 C2489 2.984 . S
U2486 C2490 2.847 . S
U2486 C2503 2.882 . S
U2486 O2504 2.441 . S
U2486 O2505 2.420 . S
U2486 O2506 2.455 . S
U2486 O2507 2.449 . S
O2487 U2486 2.454 . S
O2487 C2489 1.353 . S
O2488 U2486 2.458 . S
O2488 C2489 1.286 . S
C2489 U2486 2.984 . S
C2489 O2487 1.353 . S
C2489 O2488 1.286 . S
C2489 C2491 1.363 . S
C2490 C2480 1.465 . S
C2490 U2486 2.847 . S
C2490 O2504 1.249 . S
C2490 O2505 1.202 . S
C2491 C2489 1.363 . S
C2491 C2493 1.408 . S
C2491 C2496 1.342 . S
C2492 C2493 1.310 . S
C2492 C2495 1.461 . S
C2492 H2512 0.932 . S
C2493 C2491 1.408 . S
C2493 C2492 1.310 . S
C2493 H2513 0.930 . S
C2494 C2495 1.474 . S
C2494 C2496 1.285 . S
C2494 H2514 0.929 . S
C2495 C2492 1.461 . S
C2495 C2494 1.474 . S
C2496 C2491 1.342 . S
C2496 C2494 1.285 . S
C2496 H2515 0.930 . S
C2497 C2500 1.424 . S
C2497 C2502 1.245 . S
C2497 C2503 1.428 . S
C2498 C2501 1.260 . S
C2498 C2502 1.477 . S
C2498 H2516 0.932 . S
C2499 C2500 1.384 . S
C2499 C2501 1.479 . S
C2499 H2517 0.929 . S
C2500 C2497 1.424 . S
C2500 C2499 1.384 . S
C2500 H2518 0.928 . S
C2501 C2498 1.260 . S
C2501 C2499 1.479 . S
C2502 C2497 1.245 . S
C2502 C2498 1.477 . S
C2502 H2519 0.932 . S
C2503 U2486 2.882 . S
C2503 C2497 1.428 . S
C2503 O2506 1.301 . S
C2503 O2507 1.282 . S
O2504 U2486 2.441 . S
O2504 C2490 1.249 . S
O2505 U2486 2.420 . S
O2505 C2490 1.202 . S
O2506 U2486 2.455 . S
O2506 C2503 1.301 . S
O2507 U2486 2.449 . S
O2507 C2503 1.282 . S
H2508 C2481 0.931 . S
H2509 C2483 0.929 . S
H2510 C2484 0.930 . S
H2511 C2485 0.931 . S
H2512 C2492 0.932 . S
H2513 C2493 0.930 . S
H2514 C2494 0.929 . S
H2515 C2496 0.930 . S
H2516 C2498 0.932 . S
H2517 C2499 0.929 . S
H2518 C2500 0.928 . S
H2519 C2502 0.932 . S
C2520 C2521 1.264 . S
C2520 C2525 1.479 . S
C2520 C2530 1.465 . S
C2521 C2520 1.264 . S
C2521 C2523 1.339 . S
C2521 H2548 0.931 . S
C2522 C2523 1.395 . S
C2522 C2524 1.320 . S
C2523 C2521 1.339 . S
C2523 C2522 1.395 . S
C2523 H2549 0.929 . S
C2524 C2522 1.320 . S
C2524 C2525 1.405 . S
C2524 H2550 0.930 . S
C2525 C2520 1.479 . S
C2525 C2524 1.405 . S
C2525 H2551 0.931 . S
U2526 O2527 2.454 . S
U2526 O2528 2.458 . S
U2526 C2529 2.984 . S
U2526 C2530 2.847 . S
U2526 C2543 2.882 . S
U2526 O2544 2.441 . S
U2526 O2545 2.420 . S
U2526 O2546 2.455 . S
U2526 O2547 2.449 . S
O2527 U2526 2.454 . S
O2527 C2529 1.353 . S
O2528 U2526 2.458 . S
O2528 C2529 1.286 . S
C2529 U2526 2.984 . S
C2529 O2527 1.353 . S
C2529 O2528 1.286 . S
C2529 C2531 1.363 . S
C2530 C2520 1.465 . S
C2530 U2526 2.847 . S
C2530 O2544 1.249 . S
C2530 O2545 1.202 . S
C2531 C2529 1.363 . S
C2531 C2533 1.408 . S
C2531 C2536 1.342 . S
C2532 C2533 1.310 . S
C2532 C2535 1.461 . S
C2532 H2552 0.932 . S
C2533 C2531 1.408 . S
C2533 C2532 1.310 . S
C2533 H2553 0.930 . S
C2534 C2535 1.474 . S
C2534 C2536 1.285 . S
C2534 H2554 0.929 . S
C2535 C2532 1.461 . S
C2535 C2534 1.474 . S
C2536 C2531 1.342 . S
C2536 C2534 1.285 . S
C2536 H2555 0.930 . S
C2537 C2540 1.424 . S
C2537 C2542 1.245 . S
C2537 C2543 1.428 . S
C2538 C2541 1.260 . S
C2538 C2542 1.477 . S
C2538 H2556 0.932 . S
C2539 C2540 1.384 . S
C2539 C2541 1.479 . S
C2539 H2557 0.929 . S
C2540 C2537 1.424 . S
C2540 C2539 1.384 . S
C2540 H2558 0.928 . S
C2541 C2538 1.260 . S
C2541 C2539 1.479 . S
C2542 C2537 1.245 . S
C2542 C2538 1.477 . S
C2542 H2559 0.932 . S
C2543 U2526 2.882 . S
C2543 C2537 1.428 . S
C2543 O2546 1.301 . S
C2543 O2547 1.282 . S
O2544 U2526 2.441 . S
O2544 C2530 1.249 . S
O2545 U2526 2.420 . S
O2545 C2530 1.202 . S
O2546 U2526 2.455 . S
O2546 C2543 1.301 . S
O2547 U2526 2.449 . S
O2547 C2543 1.282 . S
H2548 C2521 0.931 . S
H2549 C2523 0.929 . S
H2550 C2524 0.930 . S
H2551 C2525 0.931 . S
H2552 C2532 0.932 . S
H2553 C2533 0.930 . S
H2554 C2534 0.929 . S
H2555 C2536 0.930 . S
H2556 C2538 0.932 . S
H2557 C2539 0.929 . S
H2558 C2540 0.928 . S
H2559 C2542 0.932 . S
C2560 C2561 1.264 . S
C2560 C2565 1.479 . S
C2560 C2570 1.465 . S
C2561 C2560 1.264 . S
C2561 C2563 1.339 . S
C2561 H2588 0.931 . S
C2562 C2563 1.395 . S
C2562 C2564 1.320 . S
C2563 C2561 1.339 . S
C2563 C2562 1.395 . S
C2563 H2589 0.929 . S
C2564 C2562 1.320 . S
C2564 C2565 1.405 . S
C2564 H2590 0.930 . S
C2565 C2560 1.479 . S
C2565 C2564 1.405 . S
C2565 H2591 0.931 . S
U2566 O2567 2.454 . S
U2566 O2568 2.458 . S
U2566 C2569 2.984 . S
U2566 C2570 2.847 . S
U2566 C2583 2.882 . S
U2566 O2584 2.441 . S
U2566 O2585 2.420 . S
U2566 O2586 2.455 . S
U2566 O2587 2.449 . S
O2567 U2566 2.454 . S
O2567 C2569 1.353 . S
O2568 U2566 2.458 . S
O2568 C2569 1.286 . S
C2569 U2566 2.984 . S
C2569 O2567 1.353 . S
C2569 O2568 1.286 . S
C2569 C2571 1.363 . S
C2570 C2560 1.465 . S
C2570 U2566 2.847 . S
C2570 O2584 1.249 . S
C2570 O2585 1.202 . S
C2571 C2569 1.363 . S
C2571 C2573 1.408 . S
C2571 C2576 1.342 . S
C2572 C2573 1.310 . S
C2572 C2575 1.461 . S
C2572 H2592 0.932 . S
C2573 C2571 1.408 . S
C2573 C2572 1.310 . S
C2573 H2593 0.930 . S
C2574 C2575 1.474 . S
C2574 C2576 1.285 . S
C2574 H2594 0.929 . S
C2575 C2572 1.461 . S
C2575 C2574 1.474 . S
C2576 C2571 1.342 . S
C2576 C2574 1.285 . S
C2576 H2595 0.930 . S
C2577 C2580 1.424 . S
C2577 C2582 1.245 . S
C2577 C2583 1.428 . S
C2578 C2581 1.260 . S
C2578 C2582 1.477 . S
C2578 H2596 0.932 . S
C2579 C2580 1.384 . S
C2579 C2581 1.479 . S
C2579 H2597 0.929 . S
C2580 C2577 1.424 . S
C2580 C2579 1.384 . S
C2580 H2598 0.928 . S
C2581 C2578 1.260 . S
C2581 C2579 1.479 . S
C2582 C2577 1.245 . S
C2582 C2578 1.477 . S
C2582 H2599 0.932 . S
C2583 U2566 2.882 . S
C2583 C2577 1.428 . S
C2583 O2586 1.301 . S
C2583 O2587 1.282 . S
O2584 U2566 2.441 . S
O2584 C2570 1.249 . S
O2585 U2566 2.420 . S
O2585 C2570 1.202 . S
O2586 U2566 2.455 . S
O2586 C2583 1.301 . S
O2587 U2566 2.449 . S
O2587 C2583 1.282 . S
H2588 C2561 0.931 . S
H2589 C2563 0.929 . S
H2590 C2564 0.930 . S
H2591 C2565 0.931 . S
H2592 C2572 0.932 . S
H2593 C2573 0.930 . S
H2594 C2574 0.929 . S
H2595 C2576 0.930 . S
H2596 C2578 0.932 . S
H2597 C2579 0.929 . S
H2598 C2580 0.928 . S
H2599 C2582 0.932 . S
C2600 C2601 1.264 . S
C2600 C2605 1.479 . S
C2600 C2610 1.465 . S
C2601 C2600 1.264 . S
C2601 C2603 1.339 . S
C2601 H2628 0.931 . S
C2602 C2603 1.395 . S
C2602 C2604 1.320 . S
C2603 C2601 1.339 . S
C2603 C2602 1.395 . S
C2603 H2629 0.929 . S
C2604 C2602 1.320 . S
C2604 C2605 1.405 . S
C2604 H2630 0.930 . S
C2605 C2600 1.479 . S
C2605 C2604 1.405 . S
C2605 H2631 0.931 . S
U2606 O2607 2.454 . S
U2606 O2608 2.458 . S
U2606 C2609 2.984 . S
U2606 C2610 2.847 . S
U2606 C2623 2.882 . S
U2606 O2624 2.441 . S
U2606 O2625 2.420 . S
U2606 O2626 2.455 . S
U2606 O2627 2.449 . S
O2607 U2606 2.454 . S
O2607 C2609 1.353 . S
O2608 U2606 2.458 . S
O2608 C2609 1.286 . S
C2609 U2606 2.984 . S
C2609 O2607 1.353 . S
C2609 O2608 1.286 . S
C2609 C2611 1.363 . S
C2610 C2600 1.465 . S
C2610 U2606 2.847 . S
C2610 O2624 1.249 . S
C2610 O2625 1.202 . S
C2611 C2609 1.363 . S
C2611 C2613 1.408 . S
C2611 C2616 1.342 . S
C2612 C2613 1.310 . S
C2612 C2615 1.461 . S
C2612 H2632 0.932 . S
C2613 C2611 1.408 . S
C2613 C2612 1.310 . S
C2613 H2633 0.930 . S
C2614 C2615 1.474 . S
C2614 C2616 1.285 . S
C2614 H2634 0.929 . S
C2615 C2612 1.461 . S
C2615 C2614 1.474 . S
C2616 C2611 1.342 . S
C2616 C2614 1.285 . S
C2616 H2635 0.930 . S
C2617 C2620 1.424 . S
C2617 C2622 1.245 . S
C2617 C2623 1.428 . S
C2618 C2621 1.260 . S
C2618 C2622 1.477 . S
C2618 H2636 0.932 . S
C2619 C2620 1.384 . S
C2619 C2621 1.479 . S
C2619 H2637 0.929 . S
C2620 C2617 1.424 . S
C2620 C2619 1.384 . S
C2620 H2638 0.928 . S
C2621 C2618 1.260 . S
C2621 C2619 1.479 . S
C2622 C2617 1.245 . S
C2622 C2618 1.477 . S
C2622 H2639 0.932 . S
C2623 U2606 2.882 . S
C2623 C2617 1.428 . S
C2623 O2626 1.301 . S
C2623 O2627 1.282 . S
O2624 U2606 2.441 . S
O2624 C2610 1.249 . S
O2625 U2606 2.420 . S
O2625 C2610 1.202 . S
O2626 U2606 2.455 . S
O2626 C2623 1.301 . S
O2627 U2606 2.449 . S
O2627 C2623 1.282 . S
H2628 C2601 0.931 . S
H2629 C2603 0.929 . S
H2630 C2604 0.930 . S
H2631 C2605 0.931 . S
H2632 C2612 0.932 . S
H2633 C2613 0.930 . S
H2634 C2614 0.929 . S
H2635 C2616 0.930 . S
H2636 C2618 0.932 . S
H2637 C2619 0.929 . S
H2638 C2620 0.928 . S
H2639 C2622 0.932 . S
C2640 C2641 1.264 . S
C2640 C2645 1.479 . S
C2640 C2650 1.465 . S
C2641 C2640 1.264 . S
C2641 C2643 1.339 . S
C2641 H2668 0.931 . S
C2642 C2643 1.395 . S
C2642 C2644 1.320 . S
C2643 C2641 1.339 . S
C2643 C2642 1.395 . S
C2643 H2669 0.929 . S
C2644 C2642 1.320 . S
C2644 C2645 1.405 . S
C2644 H2670 0.930 . S
C2645 C2640 1.479 . S
C2645 C2644 1.405 . S
C2645 H2671 0.931 . S
U2646 O2647 2.454 . S
U2646 O2648 2.458 . S
U2646 C2649 2.984 . S
U2646 C2650 2.847 . S
U2646 C2663 2.882 . S
U2646 O2664 2.441 . S
U2646 O2665 2.420 . S
U2646 O2666 2.455 . S
U2646 O2667 2.449 . S
O2647 U2646 2.454 . S
O2647 C2649 1.353 . S
O2648 U2646 2.458 . S
O2648 C2649 1.286 . S
C2649 U2646 2.984 . S
C2649 O2647 1.353 . S
C2649 O2648 1.286 . S
C2649 C2651 1.363 . S
C2650 C2640 1.465 . S
C2650 U2646 2.847 . S
C2650 O2664 1.249 . S
C2650 O2665 1.202 . S
C2651 C2649 1.363 . S
C2651 C2653 1.408 . S
C2651 C2656 1.342 . S
C2652 C2653 1.310 . S
C2652 C2655 1.461 . S
C2652 H2672 0.932 . S
C2653 C2651 1.408 . S
C2653 C2652 1.310 . S
C2653 H2673 0.930 . S
C2654 C2655 1.474 . S
C2654 C2656 1.285 . S
C2654 H2674 0.929 . S
C2655 C2652 1.461 . S
C2655 C2654 1.474 . S
C2656 C2651 1.342 . S
C2656 C2654 1.285 . S
C2656 H2675 0.930 . S
C2657 C2660 1.424 . S
C2657 C2662 1.245 . S
C2657 C2663 1.428 . S
C2658 C2661 1.260 . S
C2658 C2662 1.477 . S
C2658 H2676 0.932 . S
C2659 C2660 1.384 . S
C2659 C2661 1.479 . S
C2659 H2677 0.929 . S
C2660 C2657 1.424 . S
C2660 C2659 1.384 . S
C2660 H2678 0.928 . S
C2661 C2658 1.260 . S
C2661 C2659 1.479 . S
C2662 C2657 1.245 . S
C2662 C2658 1.477 . S
C2662 H2679 0.932 . S
C2663 U2646 2.882 . S
C2663 C2657 1.428 . S
C2663 O2666 1.301 . S
C2663 O2667 1.282 . S
O2664 U2646 2.441 . S
O2664 C2650 1.249 . S
O2665 U2646 2.420 . S
O2665 C2650 1.202 . S
O2666 U2646 2.455 . S
O2666 C2663 1.301 . S
O2667 U2646 2.449 . S
O2667 C2663 1.282 . S
H2668 C2641 0.931 . S
H2669 C2643 0.929 . S
H2670 C2644 0.930 . S
H2671 C2645 0.931 . S
H2672 C2652 0.932 . S
H2673 C2653 0.930 . S
H2674 C2654 0.929 . S
H2675 C2656 0.930 . S
H2676 C2658 0.932 . S
H2677 C2659 0.929 . S
H2678 C2660 0.928 . S
H2679 C2662 0.932 . S
C2680 C2681 1.264 . S
C2680 C2685 1.479 . S
C2680 C2690 1.465 . S
C2681 C2680 1.264 . S
C2681 C2683 1.339 . S
C2681 H2708 0.931 . S
C2682 C2683 1.395 . S
C2682 C2684 1.320 . S
C2683 C2681 1.339 . S
C2683 C2682 1.395 . S
C2683 H2709 0.929 . S
C2684 C2682 1.320 . S
C2684 C2685 1.405 . S
C2684 H2710 0.930 . S
C2685 C2680 1.479 . S
C2685 C2684 1.405 . S
C2685 H2711 0.931 . S
U2686 O2687 2.454 . S
U2686 O2688 2.458 . S
U2686 C2689 2.984 . S
U2686 C2690 2.847 . S
U2686 C2703 2.882 . S
U2686 O2704 2.441 . S
U2686 O2705 2.420 . S
U2686 O2706 2.455 . S
U2686 O2707 2.449 . S
O2687 U2686 2.454 . S
O2687 C2689 1.353 . S
O2688 U2686 2.458 . S
O2688 C2689 1.286 . S
C2689 U2686 2.984 . S
C2689 O2687 1.353 . S
C2689 O2688 1.286 . S
C2689 C2691 1.363 . S
C2690 C2680 1.465 . S
C2690 U2686 2.847 . S
C2690 O2704 1.249 . S
C2690 O2705 1.202 . S
C2691 C2689 1.363 . S
C2691 C2693 1.408 . S
C2691 C2696 1.342 . S
C2692 C2693 1.310 . S
C2692 C2695 1.461 . S
C2692 H2712 0.932 . S
C2693 C2691 1.408 . S
C2693 C2692 1.310 . S
C2693 H2713 0.930 . S
C2694 C2695 1.474 . S
C2694 C2696 1.285 . S
C2694 H2714 0.929 . S
C2695 C2692 1.461 . S
C2695 C2694 1.474 . S
C2696 C2691 1.342 . S
C2696 C2694 1.285 . S
C2696 H2715 0.930 . S
C2697 C2700 1.424 . S
C2697 C2702 1.245 . S
C2697 C2703 1.428 . S
C2698 C2701 1.260 . S
C2698 C2702 1.477 . S
C2698 H2716 0.932 . S
C2699 C2700 1.384 . S
C2699 C2701 1.479 . S
C2699 H2717 0.929 . S
C2700 C2697 1.424 . S
C2700 C2699 1.384 . S
C2700 H2718 0.928 . S
C2701 C2698 1.260 . S
C2701 C2699 1.479 . S
C2702 C2697 1.245 . S
C2702 C2698 1.477 . S
C2702 H2719 0.932 . S
C2703 U2686 2.882 . S
C2703 C2697 1.428 . S
C2703 O2706 1.301 . S
C2703 O2707 1.282 . S
O2704 U2686 2.441 . S
O2704 C2690 1.249 . S
O2705 U2686 2.420 . S
O2705 C2690 1.202 . S
O2706 U2686 2.455 . S
O2706 C2703 1.301 . S
O2707 U2686 2.449 . S
O2707 C2703 1.282 . S
H2708 C2681 0.931 . S
H2709 C2683 0.929 . S
H2710 C2684 0.930 . S
H2711 C2685 0.931 . S
H2712 C2692 0.932 . S
H2713 C2693 0.930 . S
H2714 C2694 0.929 . S
H2715 C2696 0.930 . S
H2716 C2698 0.932 . S
H2717 C2699 0.929 . S
H2718 C2700 0.928 . S
H2719 C2702 0.932 . S
C2720 C2721 1.264 . S
C2720 C2725 1.479 . S
C2720 C2730 1.465 . S
C2721 C2720 1.264 . S
C2721 C2723 1.339 . S
C2721 H2748 0.931 . S
C2722 C2723 1.395 . S
C2722 C2724 1.320 . S
C2723 C2721 1.339 . S
C2723 C2722 1.395 . S
C2723 H2749 0.929 . S
C2724 C2722 1.320 . S
C2724 C2725 1.405 . S
C2724 H2750 0.930 . S
C2725 C2720 1.479 . S
C2725 C2724 1.405 . S
C2725 H2751 0.931 . S
U2726 O2727 2.454 . S
U2726 O2728 2.458 . S
U2726 C2729 2.984 . S
U2726 C2730 2.847 . S
U2726 C2743 2.882 . S
U2726 O2744 2.441 . S
U2726 O2745 2.420 . S
U2726 O2746 2.455 . S
U2726 O2747 2.449 . S
O2727 U2726 2.454 . S
O2727 C2729 1.353 . S
O2728 U2726 2.458 . S
O2728 C2729 1.286 . S
C2729 U2726 2.984 . S
C2729 O2727 1.353 . S
C2729 O2728 1.286 . S
C2729 C2731 1.363 . S
C2730 C2720 1.465 . S
C2730 U2726 2.847 . S
C2730 O2744 1.249 . S
C2730 O2745 1.202 . S
C2731 C2729 1.363 . S
C2731 C2733 1.408 . S
C2731 C2736 1.342 . S
C2732 C2733 1.310 . S
C2732 C2735 1.461 . S
C2732 H2752 0.932 . S
C2733 C2731 1.408 . S
C2733 C2732 1.310 . S
C2733 H2753 0.930 . S
C2734 C2735 1.474 . S
C2734 C2736 1.285 . S
C2734 H2754 0.929 . S
C2735 C2732 1.461 . S
C2735 C2734 1.474 . S
C2736 C2731 1.342 . S
C2736 C2734 1.285 . S
C2736 H2755 0.930 . S
C2737 C2740 1.424 . S
C2737 C2742 1.245 . S
C2737 C2743 1.428 . S
C2738 C2741 1.260 . S
C2738 C2742 1.477 . S
C2738 H2756 0.932 . S
C2739 C2740 1.384 . S
C2739 C2741 1.479 . S
C2739 H2757 0.929 . S
C2740 C2737 1.424 . S
C2740 C2739 1.384 . S
C2740 H2758 0.928 . S
C2741 C2738 1.260 . S
C2741 C2739 1.479 . S
C2742 C2737 1.245 . S
C2742 C2738 1.477 . S
C2742 H2759 0.932 . S
C2743 U2726 2.882 . S
C2743 C2737 1.428 . S
C2743 O2746 1.301 . S
C2743 O2747 1.282 . S
O2744 U2726 2.441 . S
O2744 C2730 1.249 . S
O2745 U2726 2.420 . S
O2745 C2730 1.202 . S
O2746 U2726 2.455 . S
O2746 C2743 1.301 . S
O2747 U2726 2.449 . S
O2747 C2743 1.282 . S
H2748 C2721 0.931 . S
H2749 C2723 0.929 . S
H2750 C2724 0.930 . S
H2751 C2725 0.931 . S
H2752 C2732 0.932 . S
H2753 C2733 0.930 . S
H2754 C2734 0.929 . S
H2755 C2736 0.930 . S
H2756 C2738 0.932 . S
H2757 C2739 0.929 . S
H2758 C2740 0.928 . S
H2759 C2742 0.932 . S
C2760 C2761 1.264 . S
C2760 C2765 1.479 . S
C2760 C2770 1.465 . S
C2761 C2760 1.264 . S
C2761 C2763 1.339 . S
C2761 H2788 0.931 . S
C2762 C2763 1.395 . S
C2762 C2764 1.320 . S
C2763 C2761 1.339 . S
C2763 C2762 1.395 . S
C2763 H2789 0.929 . S
C2764 C2762 1.320 . S
C2764 C2765 1.405 . S
C2764 H2790 0.930 . S
C2765 C2760 1.479 . S
C2765 C2764 1.405 . S
C2765 H2791 0.931 . S
U2766 O2767 2.454 . S
U2766 O2768 2.458 . S
U2766 C2769 2.984 . S
U2766 C2770 2.847 . S
U2766 C2783 2.882 . S
U2766 O2784 2.441 . S
U2766 O2785 2.420 . S
U2766 O2786 2.455 . S
U2766 O2787 2.449 . S
O2767 U2766 2.454 . S
O2767 C2769 1.353 . S
O2768 U2766 2.458 . S
O2768 C2769 1.286 . S
C2769 U2766 2.984 . S
C2769 O2767 1.353 . S
C2769 O2768 1.286 . S
C2769 C2771 1.363 . S
C2770 C2760 1.465 . S
C2770 U2766 2.847 . S
C2770 O2784 1.249 . S
C2770 O2785 1.202 . S
C2771 C2769 1.363 . S
C2771 C2773 1.408 . S
C2771 C2776 1.342 . S
C2772 C2773 1.310 . S
C2772 C2775 1.461 . S
C2772 H2792 0.932 . S
C2773 C2771 1.408 . S
C2773 C2772 1.310 . S
C2773 H2793 0.930 . S
C2774 C2775 1.474 . S
C2774 C2776 1.285 . S
C2774 H2794 0.929 . S
C2775 C2772 1.461 . S
C2775 C2774 1.474 . S
C2776 C2771 1.342 . S
C2776 C2774 1.285 . S
C2776 H2795 0.930 . S
C2777 C2780 1.424 . S
C2777 C2782 1.245 . S
C2777 C2783 1.428 . S
C2778 C2781 1.260 . S
C2778 C2782 1.477 . S
C2778 H2796 0.932 . S
C2779 C2780 1.384 . S
C2779 C2781 1.479 . S
C2779 H2797 0.929 . S
C2780 C2777 1.424 . S
C2780 C2779 1.384 . S
C2780 H2798 0.928 . S
C2781 C2778 1.260 . S
C2781 C2779 1.479 . S
C2782 C2777 1.245 . S
C2782 C2778 1.477 . S
C2782 H2799 0.932 . S
C2783 U2766 2.882 . S
C2783 C2777 1.428 . S
C2783 O2786 1.301 . S
C2783 O2787 1.282 . S
O2784 U2766 2.441 . S
O2784 C2770 1.249 . S
O2785 U2766 2.420 . S
O2785 C2770 1.202 . S
O2786 U2766 2.455 . S
O2786 C2783 1.301 . S
O2787 U2766 2.449 . S
O2787 C2783 1.282 . S
H2788 C2761 0.931 . S
H2789 C2763 0.929 . S
H2790 C2764 0.930 . S
H2791 C2765 0.931 . S
H2792 C2772 0.932 . S
H2793 C2773 0.930 . S
H2794 C2774 0.929 . S
H2795 C2776 0.930 . S
H2796 C2778 0.932 . S
H2797 C2779 0.929 . S
H2798 C2780 0.928 . S
H2799 C2782 0.932 . S
C2800 C2801 1.264 . S
C2800 C2805 1.479 . S
C2800 C2810 1.465 . S
C2801 C2800 1.264 . S
C2801 C2803 1.339 . S
C2801 H2828 0.931 . S
C2802 C2803 1.395 . S
C2802 C2804 1.320 . S
C2803 C2801 1.339 . S
C2803 C2802 1.395 . S
C2803 H2829 0.929 . S
C2804 C2802 1.320 . S
C2804 C2805 1.405 . S
C2804 H2830 0.930 . S
C2805 C2800 1.479 . S
C2805 C2804 1.405 . S
C2805 H2831 0.931 . S
U2806 O2807 2.454 . S
U2806 O2808 2.458 . S
U2806 C2809 2.984 . S
U2806 C2810 2.847 . S
U2806 C2823 2.882 . S
U2806 O2824 2.441 . S
U2806 O2825 2.420 . S
U2806 O2826 2.455 . S
U2806 O2827 2.449 . S
O2807 U2806 2.454 . S
O2807 C2809 1.353 . S
O2808 U2806 2.458 . S
O2808 C2809 1.286 . S
C2809 U2806 2.984 . S
C2809 O2807 1.353 . S
C2809 O2808 1.286 . S
C2809 C2811 1.363 . S
C2810 C2800 1.465 . S
C2810 U2806 2.847 . S
C2810 O2824 1.249 . S
C2810 O2825 1.202 . S
C2811 C2809 1.363 . S
C2811 C2813 1.408 . S
C2811 C2816 1.342 . S
C2812 C2813 1.310 . S
C2812 C2815 1.461 . S
C2812 H2832 0.932 . S
C2813 C2811 1.408 . S
C2813 C2812 1.310 . S
C2813 H2833 0.930 . S
C2814 C2815 1.474 . S
C2814 C2816 1.285 . S
C2814 H2834 0.929 . S
C2815 C2812 1.461 . S
C2815 C2814 1.474 . S
C2816 C2811 1.342 . S
C2816 C2814 1.285 . S
C2816 H2835 0.930 . S
C2817 C2820 1.424 . S
C2817 C2822 1.245 . S
C2817 C2823 1.428 . S
C2818 C2821 1.260 . S
C2818 C2822 1.477 . S
C2818 H2836 0.932 . S
C2819 C2820 1.384 . S
C2819 C2821 1.479 . S
C2819 H2837 0.929 . S
C2820 C2817 1.424 . S
C2820 C2819 1.384 . S
C2820 H2838 0.928 . S
C2821 C2818 1.260 . S
C2821 C2819 1.479 . S
C2822 C2817 1.245 . S
C2822 C2818 1.477 . S
C2822 H2839 0.932 . S
C2823 U2806 2.882 . S
C2823 C2817 1.428 . S
C2823 O2826 1.301 . S
C2823 O2827 1.282 . S
O2824 U2806 2.441 . S
O2824 C2810 1.249 . S
O2825 U2806 2.420 . S
O2825 C2810 1.202 . S
O2826 U2806 2.455 . S
O2826 C2823 1.301 . S
O2827 U2806 2.449 . S
O2827 C2823 1.282 . S
H2828 C2801 0.931 . S
H2829 C2803 0.929 . S
H2830 C2804 0.930 . S
H2831 C2805 0.931 . S
H2832 C2812 0.932 . S
H2833 C2813 0.930 . S
H2834 C2814 0.929 . S
H2835 C2816 0.930 . S
H2836 C2818 0.932 . S
H2837 C2819 0.929 . S
H2838 C2820 0.928 . S
H2839 C2822 0.932 . S
C2840 C2841 1.264 . S
C2840 C2845 1.479 . S
C2840 C2850 1.465 . S
C2841 C2840 1.264 . S
C2841 C2843 1.339 . S
C2841 H2868 0.931 . S
C2842 C2843 1.395 . S
C2842 C2844 1.320 . S
C2843 C2841 1.339 . S
C2843 C2842 1.395 . S
C2843 H2869 0.929 . S
C2844 C2842 1.320 . S
C2844 C2845 1.405 . S
C2844 H2870 0.930 . S
C2845 C2840 1.479 . S
C2845 C2844 1.405 . S
C2845 H2871 0.931 . S
U2846 O2847 2.454 . S
U2846 O2848 2.458 . S
U2846 C2849 2.984 . S
U2846 C2850 2.847 . S
U2846 C2863 2.882 . S
U2846 O2864 2.441 . S
U2846 O2865 2.420 . S
U2846 O2866 2.455 . S
U2846 O2867 2.449 . S
O2847 U2846 2.454 . S
O2847 C2849 1.353 . S
O2848 U2846 2.458 . S
O2848 C2849 1.286 . S
C2849 U2846 2.984 . S
C2849 O2847 1.353 . S
C2849 O2848 1.286 . S
C2849 C2851 1.363 . S
C2850 C2840 1.465 . S
C2850 U2846 2.847 . S
C2850 O2864 1.249 . S
C2850 O2865 1.202 . S
C2851 C2849 1.363 . S
C2851 C2853 1.408 . S
C2851 C2856 1.342 . S
C2852 C2853 1.310 . S
C2852 C2855 1.461 . S
C2852 H2872 0.932 . S
C2853 C2851 1.408 . S
C2853 C2852 1.310 . S
C2853 H2873 0.930 . S
C2854 C2855 1.474 . S
C2854 C2856 1.285 . S
C2854 H2874 0.929 . S
C2855 C2852 1.461 . S
C2855 C2854 1.474 . S
C2856 C2851 1.342 . S
C2856 C2854 1.285 . S
C2856 H2875 0.930 . S
C2857 C2860 1.424 . S
C2857 C2862 1.245 . S
C2857 C2863 1.428 . S
C2858 C2861 1.260 . S
C2858 C2862 1.477 . S
C2858 H2876 0.932 . S
C2859 C2860 1.384 . S
C2859 C2861 1.479 . S
C2859 H2877 0.929 . S
C2860 C2857 1.424 . S
C2860 C2859 1.384 . S
C2860 H2878 0.928 . S
C2861 C2858 1.260 . S
C2861 C2859 1.479 . S
C2862 C2857 1.245 . S
C2862 C2858 1.477 . S
C2862 H2879 0.932 . S
C2863 U2846 2.882 . S
C2863 C2857 1.428 . S
C2863 O2866 1.301 . S
C2863 O2867 1.282 . S
O2864 U2846 2.441 . S
O2864 C2850 1.249 . S
O2865 U2846 2.420 . S
O2865 C2850 1.202 . S
O2866 U2846 2.455 . S
O2866 C2863 1.301 . S
O2867 U2846 2.449 . S
O2867 C2863 1.282 . S
H2868 C2841 0.931 . S
H2869 C2843 0.929 . S
H2870 C2844 0.930 . S
H2871 C2845 0.931 . S
H2872 C2852 0.932 . S
H2873 C2853 0.930 . S
H2874 C2854 0.929 . S
H2875 C2856 0.930 . S
H2876 C2858 0.932 . S
H2877 C2859 0.929 . S
H2878 C2860 0.928 . S
H2879 C2862 0.932 . S
C2880 C2881 1.264 . S
C2880 C2885 1.479 . S
C2880 C2890 1.465 . S
C2881 C2880 1.264 . S
C2881 C2883 1.339 . S
C2881 H2908 0.931 . S
C2882 C2883 1.395 . S
C2882 C2884 1.320 . S
C2883 C2881 1.339 . S
C2883 C2882 1.395 . S
C2883 H2909 0.929 . S
C2884 C2882 1.320 . S
C2884 C2885 1.405 . S
C2884 H2910 0.930 . S
C2885 C2880 1.479 . S
C2885 C2884 1.405 . S
C2885 H2911 0.931 . S
U2886 O2887 2.454 . S
U2886 O2888 2.458 . S
U2886 C2889 2.984 . S
U2886 C2890 2.847 . S
U2886 C2903 2.882 . S
U2886 O2904 2.441 . S
U2886 O2905 2.420 . S
U2886 O2906 2.455 . S
U2886 O2907 2.449 . S
O2887 U2886 2.454 . S
O2887 C2889 1.353 . S
O2888 U2886 2.458 . S
O2888 C2889 1.286 . S
C2889 U2886 2.984 . S
C2889 O2887 1.353 . S
C2889 O2888 1.286 . S
C2889 C2891 1.363 . S
C2890 C2880 1.465 . S
C2890 U2886 2.847 . S
C2890 O2904 1.249 . S
C2890 O2905 1.202 . S
C2891 C2889 1.363 . S
C2891 C2893 1.408 . S
C2891 C2896 1.342 . S
C2892 C2893 1.310 . S
C2892 C2895 1.461 . S
C2892 H2912 0.932 . S
C2893 C2891 1.408 . S
C2893 C2892 1.310 . S
C2893 H2913 0.930 . S
C2894 C2895 1.474 . S
C2894 C2896 1.285 . S
C2894 H2914 0.929 . S
C2895 C2892 1.461 . S
C2895 C2894 1.474 . S
C2896 C2891 1.342 . S
C2896 C2894 1.285 . S
C2896 H2915 0.930 . S
C2897 C2900 1.424 . S
C2897 C2902 1.245 . S
C2897 C2903 1.428 . S
C2898 C2901 1.260 . S
C2898 C2902 1.477 . S
C2898 H2916 0.932 . S
C2899 C2900 1.384 . S
C2899 C2901 1.479 . S
C2899 H2917 0.929 . S
C2900 C2897 1.424 . S
C2900 C2899 1.384 . S
C2900 H2918 0.928 . S
C2901 C2898 1.260 . S
C2901 C2899 1.479 . S
C2902 C2897 1.245 . S
C2902 C2898 1.477 . S
C2902 H2919 0.932 . S
C2903 U2886 2.882 . S
C2903 C2897 1.428 . S
C2903 O2906 1.301 . S
C2903 O2907 1.282 . S
O2904 U2886 2.441 . S
O2904 C2890 1.249 . S
O2905 U2886 2.420 . S
O2905 C2890 1.202 . S
O2906 U2886 2.455 . S
O2906 C2903 1.301 . S
O2907 U2886 2.449 . S
O2907 C2903 1.282 . S
H2908 C2881 0.931 . S
H2909 C2883 0.929 . S
H2910 C2884 0.930 . S
H2911 C2885 0.931 . S
H2912 C2892 0.932 . S
H2913 C2893 0.930 . S
H2914 C2894 0.929 . S
H2915 C2896 0.930 . S
H2916 C2898 0.932 . S
H2917 C2899 0.929 . S
H2918 C2900 0.928 . S
H2919 C2902 0.932 . S
C2920 C2921 1.264 . S
C2920 C2925 1.479 . S
C2920 C2930 1.465 . S
C2921 C2920 1.264 . S
C2921 C2923 1.339 . S
C2921 H2948 0.931 . S
C2922 C2923 1.395 . S
C2922 C2924 1.320 . S
C2923 C2921 1.339 . S
C2923 C2922 1.395 . S
C2923 H2949 0.929 . S
C2924 C2922 1.320 . S
C2924 C2925 1.405 . S
C2924 H2950 0.930 . S
C2925 C2920 1.479 . S
C2925 C2924 1.405 . S
C2925 H2951 0.931 . S
U2926 O2927 2.454 . S
U2926 O2928 2.458 . S
U2926 C2929 2.984 . S
U2926 C2930 2.847 . S
U2926 C2943 2.882 . S
U2926 O2944 2.441 . S
U2926 O2945 2.420 . S
U2926 O2946 2.455 . S
U2926 O2947 2.449 . S
O2927 U2926 2.454 . S
O2927 C2929 1.353 . S
O2928 U2926 2.458 . S
O2928 C2929 1.286 . S
C2929 U2926 2.984 . S
C2929 O2927 1.353 . S
C2929 O2928 1.286 . S
C2929 C2931 1.363 . S
C2930 C2920 1.465 . S
C2930 U2926 2.847 . S
C2930 O2944 1.249 . S
C2930 O2945 1.202 . S
C2931 C2929 1.363 . S
C2931 C2933 1.408 . S
C2931 C2936 1.342 . S
C2932 C2933 1.310 . S
C2932 C2935 1.461 . S
C2932 H2952 0.932 . S
C2933 C2931 1.408 . S
C2933 C2932 1.310 . S
C2933 H2953 0.930 . S
C2934 C2935 1.474 . S
C2934 C2936 1.285 . S
C2934 H2954 0.929 . S
C2935 C2932 1.461 . S
C2935 C2934 1.474 . S
C2936 C2931 1.342 . S
C2936 C2934 1.285 . S
C2936 H2955 0.930 . S
C2937 C2940 1.424 . S
C2937 C2942 1.245 . S
C2937 C2943 1.428 . S
C2938 C2941 1.260 . S
C2938 C2942 1.477 . S
C2938 H2956 0.932 . S
C2939 C2940 1.384 . S
C2939 C2941 1.479 . S
C2939 H2957 0.929 . S
C2940 C2937 1.424 . S
C2940 C2939 1.384 . S
C2940 H2958 0.928 . S
C2941 C2938 1.260 . S
C2941 C2939 1.479 . S
C2942 C2937 1.245 . S
C2942 C2938 1.477 . S
C2942 H2959 0.932 . S
C2943 U2926 2.882 . S
C2943 C2937 1.428 . S
C2943 O2946 1.301 . S
C2943 O2947 1.282 . S
O2944 U2926 2.441 . S
O2944 C2930 1.249 . S
O2945 U2926 2.420 . S
O2945 C2930 1.202 . S
O2946 U2926 2.455 . S
O2946 C2943 1.301 . S
O2947 U2926 2.449 . S
O2947 C2943 1.282 . S
H2948 C2921 0.931 . S
H2949 C2923 0.929 . S
H2950 C2924 0.930 . S
H2951 C2925 0.931 . S
H2952 C2932 0.932 . S
H2953 C2933 0.930 . S
H2954 C2934 0.929 . S
H2955 C2936 0.930 . S
H2956 C2938 0.932 . S
H2957 C2939 0.929 . S
H2958 C2940 0.928 . S
H2959 C2942 0.932 . S
C2960 C2961 1.264 . S
C2960 C2965 1.479 . S
C2960 C2970 1.465 . S
C2961 C2960 1.264 . S
C2961 C2963 1.339 . S
C2961 H2988 0.931 . S
C2962 C2963 1.395 . S
C2962 C2964 1.320 . S
C2963 C2961 1.339 . S
C2963 C2962 1.395 . S
C2963 H2989 0.929 . S
C2964 C2962 1.320 . S
C2964 C2965 1.405 . S
C2964 H2990 0.930 . S
C2965 C2960 1.479 . S
C2965 C2964 1.405 . S
C2965 H2991 0.931 . S
U2966 O2967 2.454 . S
U2966 O2968 2.458 . S
U2966 C2969 2.984 . S
U2966 C2970 2.847 . S
U2966 C2983 2.882 . S
U2966 O2984 2.441 . S
U2966 O2985 2.420 . S
U2966 O2986 2.455 . S
U2966 O2987 2.449 . S
O2967 U2966 2.454 . S
O2967 C2969 1.353 . S
O2968 U2966 2.458 . S
O2968 C2969 1.286 . S
C2969 U2966 2.984 . S
C2969 O2967 1.353 . S
C2969 O2968 1.286 . S
C2969 C2971 1.363 . S
C2970 C2960 1.465 . S
C2970 U2966 2.847 . S
C2970 O2984 1.249 . S
C2970 O2985 1.202 . S
C2971 C2969 1.363 . S
C2971 C2973 1.408 . S
C2971 C2976 1.342 . S
C2972 C2973 1.310 . S
C2972 C2975 1.461 . S
C2972 H2992 0.932 . S
C2973 C2971 1.408 . S
C2973 C2972 1.310 . S
C2973 H2993 0.930 . S
C2974 C2975 1.474 . S
C2974 C2976 1.285 . S
C2974 H2994 0.929 . S
C2975 C2972 1.461 . S
C2975 C2974 1.474 . S
C2976 C2971 1.342 . S
C2976 C2974 1.285 . S
C2976 H2995 0.930 . S
C2977 C2980 1.424 . S
C2977 C2982 1.245 . S
C2977 C2983 1.428 . S
C2978 C2981 1.260 . S
C2978 C2982 1.477 . S
C2978 H2996 0.932 . S
C2979 C2980 1.384 . S
C2979 C2981 1.479 . S
C2979 H2997 0.929 . S
C2980 C2977 1.424 . S
C2980 C2979 1.384 . S
C2980 H2998 0.928 . S
C2981 C2978 1.260 . S
C2981 C2979 1.479 . S
C2982 C2977 1.245 . S
C2982 C2978 1.477 . S
C2982 H2999 0.932 . S
C2983 U2966 2.882 . S
C2983 C2977 1.428 . S
C2983 O2986 1.301 . S
C2983 O2987 1.282 . S
O2984 U2966 2.441 . S
O2984 C2970 1.249 . S
O2985 U2966 2.420 . S
O2985 C2970 1.202 . S
O2986 U2966 2.455 . S
O2986 C2983 1.301 . S
O2987 U2966 2.449 . S
O2987 C2983 1.282 . S
H2988 C2961 0.931 . S
H2989 C2963 0.929 . S
H2990 C2964 0.930 . S
H2991 C2965 0.931 . S
H2992 C2972 0.932 . S
H2993 C2973 0.930 . S
H2994 C2974 0.929 . S
H2995 C2976 0.930 . S
H2996 C2978 0.932 . S
H2997 C2979 0.929 . S
H2998 C2980 0.928 . S
H2999 C2982 0.932 . S
C3000 C3001 1.264 . S
C3000 C3005 1.479 . S
C3000 C3010 1.465 . S
C3001 C3000 1.264 . S
C3001 C3003 1.339 . S
C3001 H3028 0.931 . S
C3002 C3003 1.395 . S
C3002 C3004 1.320 . S
C3003 C3001 1.339 . S
C3003 C3002 1.395 . S
C3003 H3029 0.929 . S
C3004 C3002 1.320 . S
C3004 C3005 1.405 . S
C3004 H3030 0.930 . S
C3005 C3000 1.479 . S
C3005 C3004 1.405 . S
C3005 H3031 0.931 . S
U3006 O3007 2.454 . S
U3006 O3008 2.458 . S
U3006 C3009 2.984 . S
U3006 C3010 2.847 . S
U3006 C3023 2.882 . S
U3006 O3024 2.441 . S
U3006 O3025 2.420 . S
U3006 O3026 2.455 . S
U3006 O3027 2.449 . S
O3007 U3006 2.454 . S
O3007 C3009 1.353 . S
O3008 U3006 2.458 . S
O3008 C3009 1.286 . S
C3009 U3006 2.984 . S
C3009 O3007 1.353 . S
C3009 O3008 1.286 . S
C3009 C3011 1.363 . S
C3010 C3000 1.465 . S
C3010 U3006 2.847 . S
C3010 O3024 1.249 . S
C3010 O3025 1.202 . S
C3011 C3009 1.363 . S
C3011 C3013 1.408 . S
C3011 C3016 1.342 . S
C3012 C3013 1.310 . S
C3012 C3015 1.461 . S
C3012 H3032 0.932 . S
C3013 C3011 1.408 . S
C3013 C3012 1.310 . S
C3013 H3033 0.930 . S
C3014 C3015 1.474 . S
C3014 C3016 1.285 . S
C3014 H3034 0.929 . S
C3015 C3012 1.461 . S
C3015 C3014 1.474 . S
C3016 C3011 1.342 . S
C3016 C3014 1.285 . S
C3016 H3035 0.930 . S
C3017 C3020 1.424 . S
C3017 C3022 1.245 . S
C3017 C3023 1.428 . S
C3018 C3021 1.260 . S
C3018 C3022 1.477 . S
C3018 H3036 0.932 . S
C3019 C3020 1.384 . S
C3019 C3021 1.479 . S
C3019 H3037 0.929 . S
C3020 C3017 1.424 . S
C3020 C3019 1.384 . S
C3020 H3038 0.928 . S
C3021 C3018 1.260 . S
C3021 C3019 1.479 . S
C3022 C3017 1.245 . S
C3022 C3018 1.477 . S
C3022 H3039 0.932 . S
C3023 U3006 2.882 . S
C3023 C3017 1.428 . S
C3023 O3026 1.301 . S
C3023 O3027 1.282 . S
O3024 U3006 2.441 . S
O3024 C3010 1.249 . S
O3025 U3006 2.420 . S
O3025 C3010 1.202 . S
O3026 U3006 2.455 . S
O3026 C3023 1.301 . S
O3027 U3006 2.449 . S
O3027 C3023 1.282 . S
H3028 C3001 0.931 . S
H3029 C3003 0.929 . S
H3030 C3004 0.930 . S
H3031 C3005 0.931 . S
H3032 C3012 0.932 . S
H3033 C3013 0.930 . S
H3034 C3014 0.929 . S
H3035 C3016 0.930 . S
H3036 C3018 0.932 . S
H3037 C3019 0.929 . S
H3038 C3020 0.928 . S
H3039 C3022 0.932 . S
C3040 C3041 1.264 . S
C3040 C3045 1.479 . S
C3040 C3050 1.465 . S
C3041 C3040 1.264 . S
C3041 C3043 1.339 . S
C3041 H3068 0.931 . S
C3042 C3043 1.395 . S
C3042 C3044 1.320 . S
C3043 C3041 1.339 . S
C3043 C3042 1.395 . S
C3043 H3069 0.929 . S
C3044 C3042 1.320 . S
C3044 C3045 1.405 . S
C3044 H3070 0.930 . S
C3045 C3040 1.479 . S
C3045 C3044 1.405 . S
C3045 H3071 0.931 . S
U3046 O3047 2.454 . S
U3046 O3048 2.458 . S
U3046 C3049 2.984 . S
U3046 C3050 2.847 . S
U3046 C3063 2.882 . S
U3046 O3064 2.441 . S
U3046 O3065 2.420 . S
U3046 O3066 2.455 . S
U3046 O3067 2.449 . S
O3047 U3046 2.454 . S
O3047 C3049 1.353 . S
O3048 U3046 2.458 . S
O3048 C3049 1.286 . S
C3049 U3046 2.984 . S
C3049 O3047 1.353 . S
C3049 O3048 1.286 . S
C3049 C3051 1.363 . S
C3050 C3040 1.465 . S
C3050 U3046 2.847 . S
C3050 O3064 1.249 . S
C3050 O3065 1.202 . S
C3051 C3049 1.363 . S
C3051 C3053 1.408 . S
C3051 C3056 1.342 . S
C3052 C3053 1.310 . S
C3052 C3055 1.461 . S
C3052 H3072 0.932 . S
C3053 C3051 1.408 . S
C3053 C3052 1.310 . S
C3053 H3073 0.930 . S
C3054 C3055 1.474 . S
C3054 C3056 1.285 . S
C3054 H3074 0.929 . S
C3055 C3052 1.461 . S
C3055 C3054 1.474 . S
C3056 C3051 1.342 . S
C3056 C3054 1.285 . S
C3056 H3075 0.930 . S
C3057 C3060 1.424 . S
C3057 C3062 1.245 . S
C3057 C3063 1.428 . S
C3058 C3061 1.260 . S
C3058 C3062 1.477 . S
C3058 H3076 0.932 . S
C3059 C3060 1.384 . S
C3059 C3061 1.479 . S
C3059 H3077 0.929 . S
C3060 C3057 1.424 . S
C3060 C3059 1.384 . S
C3060 H3078 0.928 . S
C3061 C3058 1.260 . S
C3061 C3059 1.479 . S
C3062 C3057 1.245 . S
C3062 C3058 1.477 . S
C3062 H3079 0.932 . S
C3063 U3046 2.882 . S
C3063 C3057 1.428 . S
C3063 O3066 1.301 . S
C3063 O3067 1.282 . S
O3064 U3046 2.441 . S
O3064 C3050 1.249 . S
O3065 U3046 2.420 . S
O3065 C3050 1.202 . S
O3066 U3046 2.455 . S
O3066 C3063 1.301 . S
O3067 U3046 2.449 . S
O3067 C3063 1.282 . S
H3068 C3041 0.931 . S
H3069 C3043 0.929 . S
H3070 C3044 0.930 . S
H3071 C3045 0.931 . S
H3072 C3052 0.932 . S
H3073 C3053 0.930 . S
H3074 C3054 0.929 . S
H3075 C3056 0.930 . S
H3076 C3058 0.932 . S
H3077 C3059 0.929 . S
H3078 C3060 0.928 . S
H3079 C3062 0.932 . S
C3080 C3081 1.264 . S
C3080 C3085 1.479 . S
C3080 C3090 1.465 . S
C3081 C3080 1.264 . S
C3081 C3083 1.339 . S
C3081 H3108 0.931 . S
C3082 C3083 1.395 . S
C3082 C3084 1.320 . S
C3083 C3081 1.339 . S
C3083 C3082 1.395 . S
C3083 H3109 0.929 . S
C3084 C3082 1.320 . S
C3084 C3085 1.405 . S
C3084 H3110 0.930 . S
C3085 C3080 1.479 . S
C3085 C3084 1.405 . S
C3085 H3111 0.931 . S
U3086 O3087 2.454 . S
U3086 O3088 2.458 . S
U3086 C3089 2.984 . S
U3086 C3090 2.847 . S
U3086 C3103 2.882 . S
U3086 O3104 2.441 . S
U3086 O3105 2.420 . S
U3086 O3106 2.455 . S
U3086 O3107 2.449 . S
O3087 U3086 2.454 . S
O3087 C3089 1.353 . S
O3088 U3086 2.458 . S
O3088 C3089 1.286 . S
C3089 U3086 2.984 . S
C3089 O3087 1.353 . S
C3089 O3088 1.286 . S
C3089 C3091 1.363 . S
C3090 C3080 1.465 . S
C3090 U3086 2.847 . S
C3090 O3104 1.249 . S
C3090 O3105 1.202 . S
C3091 C3089 1.363 . S
C3091 C3093 1.408 . S
C3091 C3096 1.342 . S
C3092 C3093 1.310 . S
C3092 C3095 1.461 . S
C3092 H3112 0.932 . S
C3093 C3091 1.408 . S
C3093 C3092 1.310 . S
C3093 H3113 0.930 . S
C3094 C3095 1.474 . S
C3094 C3096 1.285 . S
C3094 H3114 0.929 . S
C3095 C3092 1.461 . S
C3095 C3094 1.474 . S
C3096 C3091 1.342 . S
C3096 C3094 1.285 . S
C3096 H3115 0.930 . S
C3097 C3100 1.424 . S
C3097 C3102 1.245 . S
C3097 C3103 1.428 . S
C3098 C3101 1.260 . S
C3098 C3102 1.477 . S
C3098 H3116 0.932 . S
C3099 C3100 1.384 . S
C3099 C3101 1.479 . S
C3099 H3117 0.929 . S
C3100 C3097 1.424 . S
C3100 C3099 1.384 . S
C3100 H3118 0.928 . S
C3101 C3098 1.260 . S
C3101 C3099 1.479 . S
C3102 C3097 1.245 . S
C3102 C3098 1.477 . S
C3102 H3119 0.932 . S
C3103 U3086 2.882 . S
C3103 C3097 1.428 . S
C3103 O3106 1.301 . S
C3103 O3107 1.282 . S
O3104 U3086 2.441 . S
O3104 C3090 1.249 . S
O3105 U3086 2.420 . S
O3105 C3090 1.202 . S
O3106 U3086 2.455 . S
O3106 C3103 1.301 . S
O3107 U3086 2.449 . S
O3107 C3103 1.282 . S
H3108 C3081 0.931 . S
H3109 C3083 0.929 . S
H3110 C3084 0.930 . S
H3111 C3085 0.931 . S
H3112 C3092 0.932 . S
H3113 C3093 0.930 . S
H3114 C3094 0.929 . S
H3115 C3096 0.930 . S
H3116 C3098 0.932 . S
H3117 C3099 0.929 . S
H3118 C3100 0.928 . S
H3119 C3102 0.932 . S
C3120 C3121 1.264 . S
C3120 C3125 1.479 . S
C3120 C3130 1.465 . S
C3121 C3120 1.264 . S
C3121 C3123 1.339 . S
C3121 H3148 0.931 . S
C3122 C3123 1.395 . S
C3122 C3124 1.320 . S
C3123 C3121 1.339 . S
C3123 C3122 1.395 . S
C3123 H3149 0.929 . S
C3124 C3122 1.320 . S
C3124 C3125 1.405 . S
C3124 H3150 0.930 . S
C3125 C3120 1.479 . S
C3125 C3124 1.405 . S
C3125 H3151 0.931 . S
U3126 O3127 2.454 . S
U3126 O3128 2.458 . S
U3126 C3129 2.984 . S
U3126 C3130 2.847 . S
U3126 C3143 2.882 . S
U3126 O3144 2.441 . S
U3126 O3145 2.420 . S
U3126 O3146 2.455 . S
U3126 O3147 2.449 . S
O3127 U3126 2.454 . S
O3127 C3129 1.353 . S
O3128 U3126 2.458 . S
O3128 C3129 1.286 . S
C3129 U3126 2.984 . S
C3129 O3127 1.353 . S
C3129 O3128 1.286 . S
C3129 C3131 1.363 . S
C3130 C3120 1.465 . S
C3130 U3126 2.847 . S
C3130 O3144 1.249 . S
C3130 O3145 1.202 . S
C3131 C3129 1.363 . S
C3131 C3133 1.408 . S
C3131 C3136 1.342 . S
C3132 C3133 1.310 . S
C3132 C3135 1.461 . S
C3132 H3152 0.932 . S
C3133 C3131 1.408 . S
C3133 C3132 1.310 . S
C3133 H3153 0.930 . S
C3134 C3135 1.474 . S
C3134 C3136 1.285 . S
C3134 H3154 0.929 . S
C3135 C3132 1.461 . S
C3135 C3134 1.474 . S
C3136 C3131 1.342 . S
C3136 C3134 1.285 . S
C3136 H3155 0.930 . S
C3137 C3140 1.424 . S
C3137 C3142 1.245 . S
C3137 C3143 1.428 . S
C3138 C3141 1.260 . S
C3138 C3142 1.477 . S
C3138 H3156 0.932 . S
C3139 C3140 1.384 . S
C3139 C3141 1.479 . S
C3139 H3157 0.929 . S
C3140 C3137 1.424 . S
C3140 C3139 1.384 . S
C3140 H3158 0.928 . S
C3141 C3138 1.260 . S
C3141 C3139 1.479 . S
C3142 C3137 1.245 . S
C3142 C3138 1.477 . S
C3142 H3159 0.932 . S
C3143 U3126 2.882 . S
C3143 C3137 1.428 . S
C3143 O3146 1.301 . S
C3143 O3147 1.282 . S
O3144 U3126 2.441 . S
O3144 C3130 1.249 . S
O3145 U3126 2.420 . S
O3145 C3130 1.202 . S
O3146 U3126 2.455 . S
O3146 C3143 1.301 . S
O3147 U3126 2.449 . S
O3147 C3143 1.282 . S
H3148 C3121 0.931 . S
H3149 C3123 0.929 . S
H3150 C3124 0.930 . S
H3151 C3125 0.931 . S
H3152 C3132 0.932 . S
H3153 C3133 0.930 . S
H3154 C3134 0.929 . S
H3155 C3136 0.930 . S
H3156 C3138 0.932 . S
H3157 C3139 0.929 . S
H3158 C3140 0.928 . S
H3159 C3142 0.932 . S
C3160 C3161 1.264 . S
C3160 C3165 1.479 . S
C3160 C3170 1.465 . S
C3161 C3160 1.264 . S
C3161 C3163 1.339 . S
C3161 H3188 0.931 . S
C3162 C3163 1.395 . S
C3162 C3164 1.320 . S
C3163 C3161 1.339 . S
C3163 C3162 1.395 . S
C3163 H3189 0.929 . S
C3164 C3162 1.320 . S
C3164 C3165 1.405 . S
C3164 H3190 0.930 . S
C3165 C3160 1.479 . S
C3165 C3164 1.405 . S
C3165 H3191 0.931 . S
U3166 O3167 2.454 . S
U3166 O3168 2.458 . S
U3166 C3169 2.984 . S
U3166 C3170 2.847 . S
U3166 C3183 2.882 . S
U3166 O3184 2.441 . S
U3166 O3185 2.420 . S
U3166 O3186 2.455 . S
U3166 O3187 2.449 . S
O3167 U3166 2.454 . S
O3167 C3169 1.353 . S
O3168 U3166 2.458 . S
O3168 C3169 1.286 . S
C3169 U3166 2.984 . S
C3169 O3167 1.353 . S
C3169 O3168 1.286 . S
C3169 C3171 1.363 . S
C3170 C3160 1.465 . S
C3170 U3166 2.847 . S
C3170 O3184 1.249 . S
C3170 O3185 1.202 . S
C3171 C3169 1.363 . S
C3171 C3173 1.408 . S
C3171 C3176 1.342 . S
C3172 C3173 1.310 . S
C3172 C3175 1.461 . S
C3172 H3192 0.932 . S
C3173 C3171 1.408 . S
C3173 C3172 1.310 . S
C3173 H3193 0.930 . S
C3174 C3175 1.474 . S
C3174 C3176 1.285 . S
C3174 H3194 0.929 . S
C3175 C3172 1.461 . S
C3175 C3174 1.474 . S
C3176 C3171 1.342 . S
C3176 C3174 1.285 . S
C3176 H3195 0.930 . S
C3177 C3180 1.424 . S
C3177 C3182 1.245 . S
C3177 C3183 1.428 . S
C3178 C3181 1.260 . S
C3178 C3182 1.477 . S
C3178 H3196 0.932 . S
C3179 C3180 1.384 . S
C3179 C3181 1.479 . S
C3179 H3197 0.929 . S
C3180 C3177 1.424 . S
C3180 C3179 1.384 . S
C3180 H3198 0.928 . S
C3181 C3178 1.260 . S
C3181 C3179 1.479 . S
C3182 C3177 1.245 . S
C3182 C3178 1.477 . S
C3182 H3199 0.932 . S
C3183 U3166 2.882 . S
C3183 C3177 1.428 . S
C3183 O3186 1.301 . S
C3183 O3187 1.282 . S
O3184 U3166 2.441 . S
O3184 C3170 1.249 . S
O3185 U3166 2.420 . S
O3185 C3170 1.202 . S
O3186 U3166 2.455 . S
O3186 C3183 1.301 . S
O3187 U3166 2.449 . S
O3187 C3183 1.282 . S
H3188 C3161 0.931 . S
H3189 C3163 0.929 . S
H3190 C3164 0.930 . S
H3191 C3165 0.931 . S
H3192 C3172 0.932 . S
H3193 C3173 0.930 . S
H3194 C3174 0.929 . S
H3195 C3176 0.930 . S
H3196 C3178 0.932 . S
H3197 C3179 0.929 . S
H3198 C3180 0.928 . S
H3199 C3182 0.932 . S
C3200 C3201 1.264 . S
C3200 C3205 1.479 . S
C3200 C3210 1.465 . S
C3201 C3200 1.264 . S
C3201 C3203 1.339 . S
C3201 H3228 0.931 . S
C3202 C3203 1.395 . S
C3202 C3204 1.320 . S
C3203 C3201 1.339 . S
C3203 C3202 1.395 . S
C3203 H3229 0.929 . S
C3204 C3202 1.320 . S
C3204 C3205 1.405 . S
C3204 H3230 0.930 . S
C3205 C3200 1.479 . S
C3205 C3204 1.405 . S
C3205 H3231 0.931 . S
U3206 O3207 2.454 . S
U3206 O3208 2.458 . S
U3206 C3209 2.984 . S
U3206 C3210 2.847 . S
U3206 C3223 2.882 . S
U3206 O3224 2.441 . S
U3206 O3225 2.420 . S
U3206 O3226 2.455 . S
U3206 O3227 2.449 . S
O3207 U3206 2.454 . S
O3207 C3209 1.353 . S
O3208 U3206 2.458 . S
O3208 C3209 1.286 . S
C3209 U3206 2.984 . S
C3209 O3207 1.353 . S
C3209 O3208 1.286 . S
C3209 C3211 1.363 . S
C3210 C3200 1.465 . S
C3210 U3206 2.847 . S
C3210 O3224 1.249 . S
C3210 O3225 1.202 . S
C3211 C3209 1.363 . S
C3211 C3213 1.408 . S
C3211 C3216 1.342 . S
C3212 C3213 1.310 . S
C3212 C3215 1.461 . S
C3212 H3232 0.932 . S
C3213 C3211 1.408 . S
C3213 C3212 1.310 . S
C3213 H3233 0.930 . S
C3214 C3215 1.474 . S
C3214 C3216 1.285 . S
C3214 H3234 0.929 . S
C3215 C3212 1.461 . S
C3215 C3214 1.474 . S
C3216 C3211 1.342 . S
C3216 C3214 1.285 . S
C3216 H3235 0.930 . S
C3217 C3220 1.424 . S
C3217 C3222 1.245 . S
C3217 C3223 1.428 . S
C3218 C3221 1.260 . S
C3218 C3222 1.477 . S
C3218 H3236 0.932 . S
C3219 C3220 1.384 . S
C3219 C3221 1.479 . S
C3219 H3237 0.929 . S
C3220 C3217 1.424 . S
C3220 C3219 1.384 . S
C3220 H3238 0.928 . S
C3221 C3218 1.260 . S
C3221 C3219 1.479 . S
C3222 C3217 1.245 . S
C3222 C3218 1.477 . S
C3222 H3239 0.932 . S
C3223 U3206 2.882 . S
C3223 C3217 1.428 . S
C3223 O3226 1.301 . S
C3223 O3227 1.282 . S
O3224 U3206 2.441 . S
O3224 C3210 1.249 . S
O3225 U3206 2.420 . S
O3225 C3210 1.202 . S
O3226 U3206 2.455 . S
O3226 C3223 1.301 . S
O3227 U3206 2.449 . S
O3227 C3223 1.282 . S
H3228 C3201 0.931 . S
H3229 C3203 0.929 . S
H3230 C3204 0.930 . S
H3231 C3205 0.931 . S
H3232 C3212 0.932 . S
H3233 C3213 0.930 . S
H3234 C3214 0.929 . S
H3235 C3216 0.930 . S
H3236 C3218 0.932 . S
H3237 C3219 0.929 . S
H3238 C3220 0.928 . S
H3239 C3222 0.932 . S
C3240 C3241 1.264 . S
C3240 C3245 1.479 . S
C3240 C3250 1.465 . S
C3241 C3240 1.264 . S
C3241 C3243 1.339 . S
C3241 H3268 0.931 . S
C3242 C3243 1.395 . S
C3242 C3244 1.320 . S
C3243 C3241 1.339 . S
C3243 C3242 1.395 . S
C3243 H3269 0.929 . S
C3244 C3242 1.320 . S
C3244 C3245 1.405 . S
C3244 H3270 0.930 . S
C3245 C3240 1.479 . S
C3245 C3244 1.405 . S
C3245 H3271 0.931 . S
U3246 O3247 2.454 . S
U3246 O3248 2.458 . S
U3246 C3249 2.984 . S
U3246 C3250 2.847 . S
U3246 C3263 2.882 . S
U3246 O3264 2.441 . S
U3246 O3265 2.420 . S
U3246 O3266 2.455 . S
U3246 O3267 2.449 . S
O3247 U3246 2.454 . S
O3247 C3249 1.353 . S
O3248 U3246 2.458 . S
O3248 C3249 1.286 . S
C3249 U3246 2.984 . S
C3249 O3247 1.353 . S
C3249 O3248 1.286 . S
C3249 C3251 1.363 . S
C3250 C3240 1.465 . S
C3250 U3246 2.847 . S
C3250 O3264 1.249 . S
C3250 O3265 1.202 . S
C3251 C3249 1.363 . S
C3251 C3253 1.408 . S
C3251 C3256 1.342 . S
C3252 C3253 1.310 . S
C3252 C3255 1.461 . S
C3252 H3272 0.932 . S
C3253 C3251 1.408 . S
C3253 C3252 1.310 . S
C3253 H3273 0.930 . S
C3254 C3255 1.474 . S
C3254 C3256 1.285 . S
C3254 H3274 0.929 . S
C3255 C3252 1.461 . S
C3255 C3254 1.474 . S
C3256 C3251 1.342 . S
C3256 C3254 1.285 . S
C3256 H3275 0.930 . S
C3257 C3260 1.424 . S
C3257 C3262 1.245 . S
C3257 C3263 1.428 . S
C3258 C3261 1.260 . S
C3258 C3262 1.477 . S
C3258 H3276 0.932 . S
C3259 C3260 1.384 . S
C3259 C3261 1.479 . S
C3259 H3277 0.929 . S
C3260 C3257 1.424 . S
C3260 C3259 1.384 . S
C3260 H3278 0.928 . S
C3261 C3258 1.260 . S
C3261 C3259 1.479 . S
C3262 C3257 1.245 . S
C3262 C3258 1.477 . S
C3262 H3279 0.932 . S
C3263 U3246 2.882 . S
C3263 C3257 1.428 . S
C3263 O3266 1.301 . S
C3263 O3267 1.282 . S
O3264 U3246 2.441 . S
O3264 C3250 1.249 . S
O3265 U3246 2.420 . S
O3265 C3250 1.202 . S
O3266 U3246 2.455 . S
O3266 C3263 1.301 . S
O3267 U3246 2.449 . S
O3267 C3263 1.282 . S
H3268 C3241 0.931 . S
H3269 C3243 0.929 . S
H3270 C3244 0.930 . S
H3271 C3245 0.931 . S
H3272 C3252 0.932 . S
H3273 C3253 0.930 . S
H3274 C3254 0.929 . S
H3275 C3256 0.930 . S
H3276 C3258 0.932 . S
H3277 C3259 0.929 . S
H3278 C3260 0.928 . S
H3279 C3262 0.932 . S
C3280 C3281 1.264 . S
C3280 C3285 1.479 . S
C3280 C3290 1.465 . S
C3281 C3280 1.264 . S
C3281 C3283 1.339 . S
C3281 H3308 0.931 . S
C3282 C3283 1.395 . S
C3282 C3284 1.320 . S
C3283 C3281 1.339 . S
C3283 C3282 1.395 . S
C3283 H3309 0.929 . S
C3284 C3282 1.320 . S
C3284 C3285 1.405 . S
C3284 H3310 0.930 . S
C3285 C3280 1.479 . S
C3285 C3284 1.405 . S
C3285 H3311 0.931 . S
U3286 O3287 2.454 . S
U3286 O3288 2.458 . S
U3286 C3289 2.984 . S
U3286 C3290 2.847 . S
U3286 C3303 2.882 . S
U3286 O3304 2.441 . S
U3286 O3305 2.420 . S
U3286 O3306 2.455 . S
U3286 O3307 2.449 . S
O3287 U3286 2.454 . S
O3287 C3289 1.353 . S
O3288 U3286 2.458 . S
O3288 C3289 1.286 . S
C3289 U3286 2.984 . S
C3289 O3287 1.353 . S
C3289 O3288 1.286 . S
C3289 C3291 1.363 . S
C3290 C3280 1.465 . S
C3290 U3286 2.847 . S
C3290 O3304 1.249 . S
C3290 O3305 1.202 . S
C3291 C3289 1.363 . S
C3291 C3293 1.408 . S
C3291 C3296 1.342 . S
C3292 C3293 1.310 . S
C3292 C3295 1.461 . S
C3292 H3312 0.932 . S
C3293 C3291 1.408 . S
C3293 C3292 1.310 . S
C3293 H3313 0.930 . S
C3294 C3295 1.474 . S
C3294 C3296 1.285 . S
C3294 H3314 0.929 . S
C3295 C3292 1.461 . S
C3295 C3294 1.474 . S
C3296 C3291 1.342 . S
C3296 C3294 1.285 . S
C3296 H3315 0.930 . S
C3297 C3300 1.424 . S
C3297 C3302 1.245 . S
C3297 C3303 1.428 . S
C3298 C3301 1.260 . S
C3298 C3302 1.477 . S
C3298 H3316 0.932 . S
C3299 C3300 1.384 . S
C3299 C3301 1.479 . S
C3299 H3317 0.929 . S
C3300 C3297 1.424 . S
C3300 C3299 1.384 . S
C3300 H3318 0.928 . S
C3301 C3298 1.260 . S
C3301 C3299 1.479 . S
C3302 C3297 1.245 . S
C3302 C3298 1.477 . S
C3302 H3319 0.932 . S
C3303 U3286 2.882 . S
C3303 C3297 1.428 . S
C3303 O3306 1.301 . S
C3303 O3307 1.282 . S
O3304 U3286 2.441 . S
O3304 C3290 1.249 . S
O3305 U3286 2.420 . S
O3305 C3290 1.202 . S
O3306 U3286 2.455 . S
O3306 C3303 1.301 . S
O3307 U3286 2.449 . S
O3307 C3303 1.282 . S
H3308 C3281 0.931 . S
H3309 C3283 0.929 . S
H3310 C3284 0.930 . S
H3311 C3285 0.931 . S
H3312 C3292 0.932 . S
H3313 C3293 0.930 . S
H3314 C3294 0.929 . S
H3315 C3296 0.930 . S
H3316 C3298 0.932 . S
H3317 C3299 0.929 . S
H3318 C3300 0.928 . S
H3319 C3302 0.932 . S
C3320 C3321 1.264 . S
C3320 C3325 1.479 . S
C3320 C3330 1.465 . S
C3321 C3320 1.264 . S
C3321 C3323 1.339 . S
C3321 H3348 0.931 . S
C3322 C3323 1.395 . S
C3322 C3324 1.320 . S
C3323 C3321 1.339 . S
C3323 C3322 1.395 . S
C3323 H3349 0.929 . S
C3324 C3322 1.320 . S
C3324 C3325 1.405 . S
C3324 H3350 0.930 . S
C3325 C3320 1.479 . S
C3325 C3324 1.405 . S
C3325 H3351 0.931 . S
U3326 O3327 2.454 . S
U3326 O3328 2.458 . S
U3326 C3329 2.984 . S
U3326 C3330 2.847 . S
U3326 C3343 2.882 . S
U3326 O3344 2.441 . S
U3326 O3345 2.420 . S
U3326 O3346 2.455 . S
U3326 O3347 2.449 . S
O3327 U3326 2.454 . S
O3327 C3329 1.353 . S
O3328 U3326 2.458 . S
O3328 C3329 1.286 . S
C3329 U3326 2.984 . S
C3329 O3327 1.353 . S
C3329 O3328 1.286 . S
C3329 C3331 1.363 . S
C3330 C3320 1.465 . S
C3330 U3326 2.847 . S
C3330 O3344 1.249 . S
C3330 O3345 1.202 . S
C3331 C3329 1.363 . S
C3331 C3333 1.408 . S
C3331 C3336 1.342 . S
C3332 C3333 1.310 . S
C3332 C3335 1.461 . S
C3332 H3352 0.932 . S
C3333 C3331 1.408 . S
C3333 C3332 1.310 . S
C3333 H3353 0.930 . S
C3334 C3335 1.474 . S
C3334 C3336 1.285 . S
C3334 H3354 0.929 . S
C3335 C3332 1.461 . S
C3335 C3334 1.474 . S
C3336 C3331 1.342 . S
C3336 C3334 1.285 . S
C3336 H3355 0.930 . S
C3337 C3340 1.424 . S
C3337 C3342 1.245 . S
C3337 C3343 1.428 . S
C3338 C3341 1.260 . S
C3338 C3342 1.477 . S
C3338 H3356 0.932 . S
C3339 C3340 1.384 . S
C3339 C3341 1.479 . S
C3339 H3357 0.929 . S
C3340 C3337 1.424 . S
C3340 C3339 1.384 . S
C3340 H3358 0.928 . S
C3341 C3338 1.260 . S
C3341 C3339 1.479 . S
C3342 C3337 1.245 . S
C3342 C3338 1.477 . S
C3342 H3359 0.932 . S
C3343 U3326 2.882 . S
C3343 C3337 1.428 . S
C3343 O3346 1.301 . S
C3343 O3347 1.282 . S
O3344 U3326 2.441 . S
O3344 C3330 1.249 . S
O3345 U3326 2.420 . S
O3345 C3330 1.202 . S
O3346 U3326 2.455 . S
O3346 C3343 1.301 . S
O3347 U3326 2.449 . S
O3347 C3343 1.282 . S
H3348 C3321 0.931 . S
H3349 C3323 0.929 . S
H3350 C3324 0.930 . S
H3351 C3325 0.931 . S
H3352 C3332 0.932 . S
H3353 C3333 0.930 . S
H3354 C3334 0.929 . S
H3355 C3336 0.930 . S
H3356 C3338 0.932 . S
H3357 C3339 0.929 . S
H3358 C3340 0.928 . S
H3359 C3342 0.932 . S
C3360 C3361 1.264 . S
C3360 C3365 1.479 . S
C3360 C3370 1.465 . S
C3361 C3360 1.264 . S
C3361 C3363 1.339 . S
C3361 H3388 0.931 . S
C3362 C3363 1.395 . S
C3362 C3364 1.320 . S
C3363 C3361 1.339 . S
C3363 C3362 1.395 . S
C3363 H3389 0.929 . S
C3364 C3362 1.320 . S
C3364 C3365 1.405 . S
C3364 H3390 0.930 . S
C3365 C3360 1.479 . S
C3365 C3364 1.405 . S
C3365 H3391 0.931 . S
U3366 O3367 2.454 . S
U3366 O3368 2.458 . S
U3366 C3369 2.984 . S
U3366 C3370 2.847 . S
U3366 C3383 2.882 . S
U3366 O3384 2.441 . S
U3366 O3385 2.420 . S
U3366 O3386 2.455 . S
U3366 O3387 2.449 . S
O3367 U3366 2.454 . S
O3367 C3369 1.353 . S
O3368 U3366 2.458 . S
O3368 C3369 1.286 . S
C3369 U3366 2.984 . S
C3369 O3367 1.353 . S
C3369 O3368 1.286 . S
C3369 C3371 1.363 . S
C3370 C3360 1.465 . S
C3370 U3366 2.847 . S
C3370 O3384 1.249 . S
C3370 O3385 1.202 . S
C3371 C3369 1.363 . S
C3371 C3373 1.408 . S
C3371 C3376 1.342 . S
C3372 C3373 1.310 . S
C3372 C3375 1.461 . S
C3372 H3392 0.932 . S
C3373 C3371 1.408 . S
C3373 C3372 1.310 . S
C3373 H3393 0.930 . S
C3374 C3375 1.474 . S
C3374 C3376 1.285 . S
C3374 H3394 0.929 . S
C3375 C3372 1.461 . S
C3375 C3374 1.474 . S
C3376 C3371 1.342 . S
C3376 C3374 1.285 . S
C3376 H3395 0.930 . S
C3377 C3380 1.424 . S
C3377 C3382 1.245 . S
C3377 C3383 1.428 . S
C3378 C3381 1.260 . S
C3378 C3382 1.477 . S
C3378 H3396 0.932 . S
C3379 C3380 1.384 . S
C3379 C3381 1.479 . S
C3379 H3397 0.929 . S
C3380 C3377 1.424 . S
C3380 C3379 1.384 . S
C3380 H3398 0.928 . S
C3381 C3378 1.260 . S
C3381 C3379 1.479 . S
C3382 C3377 1.245 . S
C3382 C3378 1.477 . S
C3382 H3399 0.932 . S
C3383 U3366 2.882 . S
C3383 C3377 1.428 . S
C3383 O3386 1.301 . S
C3383 O3387 1.282 . S
O3384 U3366 2.441 . S
O3384 C3370 1.249 . S
O3385 U3366 2.420 . S
O3385 C3370 1.202 . S
O3386 U3366 2.455 . S
O3386 C3383 1.301 . S
O3387 U3366 2.449 . S
O3387 C3383 1.282 . S
H3388 C3361 0.931 . S
H3389 C3363 0.929 . S
H3390 C3364 0.930 . S
H3391 C3365 0.931 . S
H3392 C3372 0.932 . S
H3393 C3373 0.930 . S
H3394 C3374 0.929 . S
H3395 C3376 0.930 . S
H3396 C3378 0.932 . S
H3397 C3379 0.929 . S
H3398 C3380 0.928 . S
H3399 C3382 0.932 . S
C3400 C3401 1.264 . S
C3400 C3405 1.479 . S
C3400 C3410 1.465 . S
C3401 C3400 1.264 . S
C3401 C3403 1.339 . S
C3401 H3428 0.931 . S
C3402 C3403 1.395 . S
C3402 C3404 1.320 . S
C3403 C3401 1.339 . S
C3403 C3402 1.395 . S
C3403 H3429 0.929 . S
C3404 C3402 1.320 . S
C3404 C3405 1.405 . S
C3404 H3430 0.930 . S
C3405 C3400 1.479 . S
C3405 C3404 1.405 . S
C3405 H3431 0.931 . S
U3406 O3407 2.454 . S
U3406 O3408 2.458 . S
U3406 C3409 2.984 . S
U3406 C3410 2.847 . S
U3406 C3423 2.882 . S
U3406 O3424 2.441 . S
U3406 O3425 2.420 . S
U3406 O3426 2.455 . S
U3406 O3427 2.449 . S
O3407 U3406 2.454 . S
O3407 C3409 1.353 . S
O3408 U3406 2.458 . S
O3408 C3409 1.286 . S
C3409 U3406 2.984 . S
C3409 O3407 1.353 . S
C3409 O3408 1.286 . S
C3409 C3411 1.363 . S
C3410 C3400 1.465 . S
C3410 U3406 2.847 . S
C3410 O3424 1.249 . S
C3410 O3425 1.202 . S
C3411 C3409 1.363 . S
C3411 C3413 1.408 . S
C3411 C3416 1.342 . S
C3412 C3413 1.310 . S
C3412 C3415 1.461 . S
C3412 H3432 0.932 . S
C3413 C3411 1.408 . S
C3413 C3412 1.310 . S
C3413 H3433 0.930 . S
C3414 C3415 1.474 . S
C3414 C3416 1.285 . S
C3414 H3434 0.929 . S
C3415 C3412 1.461 . S
C3415 C3414 1.474 . S
C3416 C3411 1.342 . S
C3416 C3414 1.285 . S
C3416 H3435 0.930 . S
C3417 C3420 1.424 . S
C3417 C3422 1.245 . S
C3417 C3423 1.428 . S
C3418 C3421 1.260 . S
C3418 C3422 1.477 . S
C3418 H3436 0.932 . S
C3419 C3420 1.384 . S
C3419 C3421 1.479 . S
C3419 H3437 0.929 . S
C3420 C3417 1.424 . S
C3420 C3419 1.384 . S
C3420 H3438 0.928 . S
C3421 C3418 1.260 . S
C3421 C3419 1.479 . S
C3422 C3417 1.245 . S
C3422 C3418 1.477 . S
C3422 H3439 0.932 . S
C3423 U3406 2.882 . S
C3423 C3417 1.428 . S
C3423 O3426 1.301 . S
C3423 O3427 1.282 . S
O3424 U3406 2.441 . S
O3424 C3410 1.249 . S
O3425 U3406 2.420 . S
O3425 C3410 1.202 . S
O3426 U3406 2.455 . S
O3426 C3423 1.301 . S
O3427 U3406 2.449 . S
O3427 C3423 1.282 . S
H3428 C3401 0.931 . S
H3429 C3403 0.929 . S
H3430 C3404 0.930 . S
H3431 C3405 0.931 . S
H3432 C3412 0.932 . S
H3433 C3413 0.930 . S
H3434 C3414 0.929 . S
H3435 C3416 0.930 . S
H3436 C3418 0.932 . S
H3437 C3419 0.929 . S
H3438 C3420 0.928 . S
H3439 C3422 0.932 . S
C3440 C3441 1.264 . S
C3440 C3445 1.479 . S
C3440 C3450 1.465 . S
C3441 C3440 1.264 . S
C3441 C3443 1.339 . S
C3441 H3468 0.931 . S
C3442 C3443 1.395 . S
C3442 C3444 1.320 . S
C3443 C3441 1.339 . S
C3443 C3442 1.395 . S
C3443 H3469 0.929 . S
C3444 C3442 1.320 . S
C3444 C3445 1.405 . S
C3444 H3470 0.930 . S
C3445 C3440 1.479 . S
C3445 C3444 1.405 . S
C3445 H3471 0.931 . S
U3446 O3447 2.454 . S
U3446 O3448 2.458 . S
U3446 C3449 2.984 . S
U3446 C3450 2.847 . S
U3446 C3463 2.882 . S
U3446 O3464 2.441 . S
U3446 O3465 2.420 . S
U3446 O3466 2.455 . S
U3446 O3467 2.449 . S
O3447 U3446 2.454 . S
O3447 C3449 1.353 . S
O3448 U3446 2.458 . S
O3448 C3449 1.286 . S
C3449 U3446 2.984 . S
C3449 O3447 1.353 . S
C3449 O3448 1.286 . S
C3449 C3451 1.363 . S
C3450 C3440 1.465 . S
C3450 U3446 2.847 . S
C3450 O3464 1.249 . S
C3450 O3465 1.202 . S
C3451 C3449 1.363 . S
C3451 C3453 1.408 . S
C3451 C3456 1.342 . S
C3452 C3453 1.310 . S
C3452 C3455 1.461 . S
C3452 H3472 0.932 . S
C3453 C3451 1.408 . S
C3453 C3452 1.310 . S
C3453 H3473 0.930 . S
C3454 C3455 1.474 . S
C3454 C3456 1.285 . S
C3454 H3474 0.929 . S
C3455 C3452 1.461 . S
C3455 C3454 1.474 . S
C3456 C3451 1.342 . S
C3456 C3454 1.285 . S
C3456 H3475 0.930 . S
C3457 C3460 1.424 . S
C3457 C3462 1.245 . S
C3457 C3463 1.428 . S
C3458 C3461 1.260 . S
C3458 C3462 1.477 . S
C3458 H3476 0.932 . S
C3459 C3460 1.384 . S
C3459 C3461 1.479 . S
C3459 H3477 0.929 . S
C3460 C3457 1.424 . S
C3460 C3459 1.384 . S
C3460 H3478 0.928 . S
C3461 C3458 1.260 . S
C3461 C3459 1.479 . S
C3462 C3457 1.245 . S
C3462 C3458 1.477 . S
C3462 H3479 0.932 . S
C3463 U3446 2.882 . S
C3463 C3457 1.428 . S
C3463 O3466 1.301 . S
C3463 O3467 1.282 . S
O3464 U3446 2.441 . S
O3464 C3450 1.249 . S
O3465 U3446 2.420 . S
O3465 C3450 1.202 . S
O3466 U3446 2.455 . S
O3466 C3463 1.301 . S
O3467 U3446 2.449 . S
O3467 C3463 1.282 . S
H3468 C3441 0.931 . S
H3469 C3443 0.929 . S
H3470 C3444 0.930 . S
H3471 C3445 0.931 . S
H3472 C3452 0.932 . S
H3473 C3453 0.930 . S
H3474 C3454 0.929 . S
H3475 C3456 0.930 . S
H3476 C3458 0.932 . S
H3477 C3459 0.929 . S
H3478 C3460 0.928 . S
H3479 C3462 0.932 . S
C3480 C3481 1.264 . S
C3480 C3485 1.479 . S
C3480 C3490 1.465 . S
C3481 C3480 1.264 . S
C3481 C3483 1.339 . S
C3481 H3508 0.931 . S
C3482 C3483 1.395 . S
C3482 C3484 1.320 . S
C3483 C3481 1.339 . S
C3483 C3482 1.395 . S
C3483 H3509 0.929 . S
C3484 C3482 1.320 . S
C3484 C3485 1.405 . S
C3484 H3510 0.930 . S
C3485 C3480 1.479 . S
C3485 C3484 1.405 . S
C3485 H3511 0.931 . S
U3486 O3487 2.454 . S
U3486 O3488 2.458 . S
U3486 C3489 2.984 . S
U3486 C3490 2.847 . S
U3486 C3503 2.882 . S
U3486 O3504 2.441 . S
U3486 O3505 2.420 . S
U3486 O3506 2.455 . S
U3486 O3507 2.449 . S
O3487 U3486 2.454 . S
O3487 C3489 1.353 . S
O3488 U3486 2.458 . S
O3488 C3489 1.286 . S
C3489 U3486 2.984 . S
C3489 O3487 1.353 . S
C3489 O3488 1.286 . S
C3489 C3491 1.363 . S
C3490 C3480 1.465 . S
C3490 U3486 2.847 . S
C3490 O3504 1.249 . S
C3490 O3505 1.202 . S
C3491 C3489 1.363 . S
C3491 C3493 1.408 . S
C3491 C3496 1.342 . S
C3492 C3493 1.310 . S
C3492 C3495 1.461 . S
C3492 H3512 0.932 . S
C3493 C3491 1.408 . S
C3493 C3492 1.310 . S
C3493 H3513 0.930 . S
C3494 C3495 1.474 . S
C3494 C3496 1.285 . S
C3494 H3514 0.929 . S
C3495 C3492 1.461 . S
C3495 C3494 1.474 . S
C3496 C3491 1.342 . S
C3496 C3494 1.285 . S
C3496 H3515 0.930 . S
C3497 C3500 1.424 . S
C3497 C3502 1.245 . S
C3497 C3503 1.428 . S
C3498 C3501 1.260 . S
C3498 C3502 1.477 . S
C3498 H3516 0.932 . S
C3499 C3500 1.384 . S
C3499 C3501 1.479 . S
C3499 H3517 0.929 . S
C3500 C3497 1.424 . S
C3500 C3499 1.384 . S
C3500 H3518 0.928 . S
C3501 C3498 1.260 . S
C3501 C3499 1.479 . S
C3502 C3497 1.245 . S
C3502 C3498 1.477 . S
C3502 H3519 0.932 . S
C3503 U3486 2.882 . S
C3503 C3497 1.428 . S
C3503 O3506 1.301 . S
C3503 O3507 1.282 . S
O3504 U3486 2.441 . S
O3504 C3490 1.249 . S
O3505 U3486 2.420 . S
O3505 C3490 1.202 . S
O3506 U3486 2.455 . S
O3506 C3503 1.301 . S
O3507 U3486 2.449 . S
O3507 C3503 1.282 . S
H3508 C3481 0.931 . S
H3509 C3483 0.929 . S
H3510 C3484 0.930 . S
H3511 C3485 0.931 . S
H3512 C3492 0.932 . S
H3513 C3493 0.930 . S
H3514 C3494 0.929 . S
H3515 C3496 0.930 . S
H3516 C3498 0.932 . S
H3517 C3499 0.929 . S
H3518 C3500 0.928 . S
H3519 C3502 0.932 . S
C3520 C3521 1.264 . S
C3520 C3525 1.479 . S
C3520 C3530 1.465 . S
C3521 C3520 1.264 . S
C3521 C3523 1.339 . S
C3521 H3548 0.931 . S
C3522 C3523 1.395 . S
C3522 C3524 1.320 . S
C3523 C3521 1.339 . S
C3523 C3522 1.395 . S
C3523 H3549 0.929 . S
C3524 C3522 1.320 . S
C3524 C3525 1.405 . S
C3524 H3550 0.930 . S
C3525 C3520 1.479 . S
C3525 C3524 1.405 . S
C3525 H3551 0.931 . S
U3526 O3527 2.454 . S
U3526 O3528 2.458 . S
U3526 C3529 2.984 . S
U3526 C3530 2.847 . S
U3526 C3543 2.882 . S
U3526 O3544 2.441 . S
U3526 O3545 2.420 . S
U3526 O3546 2.455 . S
U3526 O3547 2.449 . S
O3527 U3526 2.454 . S
O3527 C3529 1.353 . S
O3528 U3526 2.458 . S
O3528 C3529 1.286 . S
C3529 U3526 2.984 . S
C3529 O3527 1.353 . S
C3529 O3528 1.286 . S
C3529 C3531 1.363 . S
C3530 C3520 1.465 . S
C3530 U3526 2.847 . S
C3530 O3544 1.249 . S
C3530 O3545 1.202 . S
C3531 C3529 1.363 . S
C3531 C3533 1.408 . S
C3531 C3536 1.342 . S
C3532 C3533 1.310 . S
C3532 C3535 1.461 . S
C3532 H3552 0.932 . S
C3533 C3531 1.408 . S
C3533 C3532 1.310 . S
C3533 H3553 0.930 . S
C3534 C3535 1.474 . S
C3534 C3536 1.285 . S
C3534 H3554 0.929 . S
C3535 C3532 1.461 . S
C3535 C3534 1.474 . S
C3536 C3531 1.342 . S
C3536 C3534 1.285 . S
C3536 H3555 0.930 . S
C3537 C3540 1.424 . S
C3537 C3542 1.245 . S
C3537 C3543 1.428 . S
C3538 C3541 1.260 . S
C3538 C3542 1.477 . S
C3538 H3556 0.932 . S
C3539 C3540 1.384 . S
C3539 C3541 1.479 . S
C3539 H3557 0.929 . S
C3540 C3537 1.424 . S
C3540 C3539 1.384 . S
C3540 H3558 0.928 . S
C3541 C3538 1.260 . S
C3541 C3539 1.479 . S
C3542 C3537 1.245 . S
C3542 C3538 1.477 . S
C3542 H3559 0.932 . S
C3543 U3526 2.882 . S
C3543 C3537 1.428 . S
C3543 O3546 1.301 . S
C3543 O3547 1.282 . S
O3544 U3526 2.441 . S
O3544 C3530 1.249 . S
O3545 U3526 2.420 . S
O3545 C3530 1.202 . S
O3546 U3526 2.455 . S
O3546 C3543 1.301 . S
O3547 U3526 2.449 . S
O3547 C3543 1.282 . S
H3548 C3521 0.931 . S
H3549 C3523 0.929 . S
H3550 C3524 0.930 . S
H3551 C3525 0.931 . S
H3552 C3532 0.932 . S
H3553 C3533 0.930 . S
H3554 C3534 0.929 . S
H3555 C3536 0.930 . S
H3556 C3538 0.932 . S
H3557 C3539 0.929 . S
H3558 C3540 0.928 . S
H3559 C3542 0.932 . S
C3560 C3561 1.264 . S
C3560 C3565 1.479 . S
C3560 C3570 1.465 . S
C3561 C3560 1.264 . S
C3561 C3563 1.339 . S
C3561 H3588 0.931 . S
C3562 C3563 1.395 . S
C3562 C3564 1.320 . S
C3563 C3561 1.339 . S
C3563 C3562 1.395 . S
C3563 H3589 0.929 . S
C3564 C3562 1.320 . S
C3564 C3565 1.405 . S
C3564 H3590 0.930 . S
C3565 C3560 1.479 . S
C3565 C3564 1.405 . S
C3565 H3591 0.931 . S
U3566 O3567 2.454 . S
U3566 O3568 2.458 . S
U3566 C3569 2.984 . S
U3566 C3570 2.847 . S
U3566 C3583 2.882 . S
U3566 O3584 2.441 . S
U3566 O3585 2.420 . S
U3566 O3586 2.455 . S
U3566 O3587 2.449 . S
O3567 U3566 2.454 . S
O3567 C3569 1.353 . S
O3568 U3566 2.458 . S
O3568 C3569 1.286 . S
C3569 U3566 2.984 . S
C3569 O3567 1.353 . S
C3569 O3568 1.286 . S
C3569 C3571 1.363 . S
C3570 C3560 1.465 . S
C3570 U3566 2.847 . S
C3570 O3584 1.249 . S
C3570 O3585 1.202 . S
C3571 C3569 1.363 . S
C3571 C3573 1.408 . S
C3571 C3576 1.342 . S
C3572 C3573 1.310 . S
C3572 C3575 1.461 . S
C3572 H3592 0.932 . S
C3573 C3571 1.408 . S
C3573 C3572 1.310 . S
C3573 H3593 0.930 . S
C3574 C3575 1.474 . S
C3574 C3576 1.285 . S
C3574 H3594 0.929 . S
C3575 C3572 1.461 . S
C3575 C3574 1.474 . S
C3576 C3571 1.342 . S
C3576 C3574 1.285 . S
C3576 H3595 0.930 . S
C3577 C3580 1.424 . S
C3577 C3582 1.245 . S
C3577 C3583 1.428 . S
C3578 C3581 1.260 . S
C3578 C3582 1.477 . S
C3578 H3596 0.932 . S
C3579 C3580 1.384 . S
C3579 C3581 1.479 . S
C3579 H3597 0.929 . S
C3580 C3577 1.424 . S
C3580 C3579 1.384 . S
C3580 H3598 0.928 . S
C3581 C3578 1.260 . S
C3581 C3579 1.479 . S
C3582 C3577 1.245 . S
C3582 C3578 1.477 . S
C3582 H3599 0.932 . S
C3583 U3566 2.882 . S
C3583 C3577 1.428 . S
C3583 O3586 1.301 . S
C3583 O3587 1.282 . S
O3584 U3566 2.441 . S
O3584 C3570 1.249 . S
O3585 U3566 2.420 . S
O3585 C3570 1.202 . S
O3586 U3566 2.455 . S
O3586 C3583 1.301 . S
O3587 U3566 2.449 . S
O3587 C3583 1.282 . S
H3588 C3561 0.931 . S
H3589 C3563 0.929 . S
H3590 C3564 0.930 . S
H3591 C3565 0.931 . S
H3592 C3572 0.932 . S
H3593 C3573 0.930 . S
H3594 C3574 0.929 . S
H3595 C3576 0.930 . S
H3596 C3578 0.932 . S
H3597 C3579 0.929 . S
H3598 C3580 0.928 . S
H3599 C3582 0.932 . S
C3600 C3601 1.264 . S
C3600 C3605 1.479 . S
C3600 C3610 1.465 . S
C3601 C3600 1.264 . S
C3601 C3603 1.339 . S
C3601 H3628 0.931 . S
C3602 C3603 1.395 . S
C3602 C3604 1.320 . S
C3603 C3601 1.339 . S
C3603 C3602 1.395 . S
C3603 H3629 0.929 . S
C3604 C3602 1.320 . S
C3604 C3605 1.405 . S
C3604 H3630 0.930 . S
C3605 C3600 1.479 . S
C3605 C3604 1.405 . S
C3605 H3631 0.931 . S
U3606 O3607 2.454 . S
U3606 O3608 2.458 . S
U3606 C3609 2.984 . S
U3606 C3610 2.847 . S
U3606 C3623 2.882 . S
U3606 O3624 2.441 . S
U3606 O3625 2.420 . S
U3606 O3626 2.455 . S
U3606 O3627 2.449 . S
O3607 U3606 2.454 . S
O3607 C3609 1.353 . S
O3608 U3606 2.458 . S
O3608 C3609 1.286 . S
C3609 U3606 2.984 . S
C3609 O3607 1.353 . S
C3609 O3608 1.286 . S
C3609 C3611 1.363 . S
C3610 C3600 1.465 . S
C3610 U3606 2.847 . S
C3610 O3624 1.249 . S
C3610 O3625 1.202 . S
C3611 C3609 1.363 . S
C3611 C3613 1.408 . S
C3611 C3616 1.342 . S
C3612 C3613 1.310 . S
C3612 C3615 1.461 . S
C3612 H3632 0.932 . S
C3613 C3611 1.408 . S
C3613 C3612 1.310 . S
C3613 H3633 0.930 . S
C3614 C3615 1.474 . S
C3614 C3616 1.285 . S
C3614 H3634 0.929 . S
C3615 C3612 1.461 . S
C3615 C3614 1.474 . S
C3616 C3611 1.342 . S
C3616 C3614 1.285 . S
C3616 H3635 0.930 . S
C3617 C3620 1.424 . S
C3617 C3622 1.245 . S
C3617 C3623 1.428 . S
C3618 C3621 1.260 . S
C3618 C3622 1.477 . S
C3618 H3636 0.932 . S
C3619 C3620 1.384 . S
C3619 C3621 1.479 . S
C3619 H3637 0.929 . S
C3620 C3617 1.424 . S
C3620 C3619 1.384 . S
C3620 H3638 0.928 . S
C3621 C3618 1.260 . S
C3621 C3619 1.479 . S
C3622 C3617 1.245 . S
C3622 C3618 1.477 . S
C3622 H3639 0.932 . S
C3623 U3606 2.882 . S
C3623 C3617 1.428 . S
C3623 O3626 1.301 . S
C3623 O3627 1.282 . S
O3624 U3606 2.441 . S
O3624 C3610 1.249 . S
O3625 U3606 2.420 . S
O3625 C3610 1.202 . S
O3626 U3606 2.455 . S
O3626 C3623 1.301 . S
O3627 U3606 2.449 . S
O3627 C3623 1.282 . S
H3628 C3601 0.931 . S
H3629 C3603 0.929 . S
H3630 C3604 0.930 . S
H3631 C3605 0.931 . S
H3632 C3612 0.932 . S
H3633 C3613 0.930 . S
H3634 C3614 0.929 . S
H3635 C3616 0.930 . S
H3636 C3618 0.932 . S
H3637 C3619 0.929 . S
H3638 C3620 0.928 . S
H3639 C3622 0.932 . S
C3640 C3641 1.264 . S
C3640 C3645 1.479 . S
C3640 C3650 1.465 . S
C3641 C3640 1.264 . S
C3641 C3643 1.339 . S
C3641 H3668 0.931 . S
C3642 C3643 1.395 . S
C3642 C3644 1.320 . S
C3643 C3641 1.339 . S
C3643 C3642 1.395 . S
C3643 H3669 0.929 . S
C3644 C3642 1.320 . S
C3644 C3645 1.405 . S
C3644 H3670 0.930 . S
C3645 C3640 1.479 . S
C3645 C3644 1.405 . S
C3645 H3671 0.931 . S
U3646 O3647 2.454 . S
U3646 O3648 2.458 . S
U3646 C3649 2.984 . S
U3646 C3650 2.847 . S
U3646 C3663 2.882 . S
U3646 O3664 2.441 . S
U3646 O3665 2.420 . S
U3646 O3666 2.455 . S
U3646 O3667 2.449 . S
O3647 U3646 2.454 . S
O3647 C3649 1.353 . S
O3648 U3646 2.458 . S
O3648 C3649 1.286 . S
C3649 U3646 2.984 . S
C3649 O3647 1.353 . S
C3649 O3648 1.286 . S
C3649 C3651 1.363 . S
C3650 C3640 1.465 . S
C3650 U3646 2.847 . S
C3650 O3664 1.249 . S
C3650 O3665 1.202 . S
C3651 C3649 1.363 . S
C3651 C3653 1.408 . S
C3651 C3656 1.342 . S
C3652 C3653 1.310 . S
C3652 C3655 1.461 . S
C3652 H3672 0.932 . S
C3653 C3651 1.408 . S
C3653 C3652 1.310 . S
C3653 H3673 0.930 . S
C3654 C3655 1.474 . S
C3654 C3656 1.285 . S
C3654 H3674 0.929 . S
C3655 C3652 1.461 . S
C3655 C3654 1.474 . S
C3656 C3651 1.342 . S
C3656 C3654 1.285 . S
C3656 H3675 0.930 . S
C3657 C3660 1.424 . S
C3657 C3662 1.245 . S
C3657 C3663 1.428 . S
C3658 C3661 1.260 . S
C3658 C3662 1.477 . S
C3658 H3676 0.932 . S
C3659 C3660 1.384 . S
C3659 C3661 1.479 . S
C3659 H3677 0.929 . S
C3660 C3657 1.424 . S
C3660 C3659 1.384 . S
C3660 H3678 0.928 . S
C3661 C3658 1.260 . S
C3661 C3659 1.479 . S
C3662 C3657 1.245 . S
C3662 C3658 1.477 . S
C3662 H3679 0.932 . S
C3663 U3646 2.882 . S
C3663 C3657 1.428 . S
C3663 O3666 1.301 . S
C3663 O3667 1.282 . S
O3664 U3646 2.441 . S
O3664 C3650 1.249 . S
O3665 U3646 2.420 . S
O3665 C3650 1.202 . S
O3666 U3646 2.455 . S
O3666 C3663 1.301 . S
O3667 U3646 2.449 . S
O3667 C3663 1.282 . S
H3668 C3641 0.931 . S
H3669 C3643 0.929 . S
H3670 C3644 0.930 . S
H3671 C3645 0.931 . S
H3672 C3652 0.932 . S
H3673 C3653 0.930 . S
H3674 C3654 0.929 . S
H3675 C3656 0.930 . S
H3676 C3658 0.932 . S
H3677 C3659 0.929 . S
H3678 C3660 0.928 . S
H3679 C3662 0.932 . S
C3680 C3681 1.264 . S
C3680 C3685 1.479 . S
C3680 C3690 1.465 . S
C3681 C3680 1.264 . S
C3681 C3683 1.339 . S
C3681 H3708 0.931 . S
C3682 C3683 1.395 . S
C3682 C3684 1.320 . S
C3683 C3681 1.339 . S
C3683 C3682 1.395 . S
C3683 H3709 0.929 . S
C3684 C3682 1.320 . S
C3684 C3685 1.405 . S
C3684 H3710 0.930 . S
C3685 C3680 1.479 . S
C3685 C3684 1.405 . S
C3685 H3711 0.931 . S
U3686 O3687 2.454 . S
U3686 O3688 2.458 . S
U3686 C3689 2.984 . S
U3686 C3690 2.847 . S
U3686 C3703 2.882 . S
U3686 O3704 2.441 . S
U3686 O3705 2.420 . S
U3686 O3706 2.455 . S
U3686 O3707 2.449 . S
O3687 U3686 2.454 . S
O3687 C3689 1.353 . S
O3688 U3686 2.458 . S
O3688 C3689 1.286 . S
C3689 U3686 2.984 . S
C3689 O3687 1.353 . S
C3689 O3688 1.286 . S
C3689 C3691 1.363 . S
C3690 C3680 1.465 . S
C3690 U3686 2.847 . S
C3690 O3704 1.249 . S
C3690 O3705 1.202 . S
C3691 C3689 1.363 . S
C3691 C3693 1.408 . S
C3691 C3696 1.342 . S
C3692 C3693 1.310 . S
C3692 C3695 1.461 . S
C3692 H3712 0.932 . S
C3693 C3691 1.408 . S
C3693 C3692 1.310 . S
C3693 H3713 0.930 . S
C3694 C3695 1.474 . S
C3694 C3696 1.285 . S
C3694 H3714 0.929 . S
C3695 C3692 1.461 . S
C3695 C3694 1.474 . S
C3696 C3691 1.342 . S
C3696 C3694 1.285 . S
C3696 H3715 0.930 . S
C3697 C3700 1.424 . S
C3697 C3702 1.245 . S
C3697 C3703 1.428 . S
C3698 C3701 1.260 . S
C3698 C3702 1.477 . S
C3698 H3716 0.932 . S
C3699 C3700 1.384 . S
C3699 C3701 1.479 . S
C3699 H3717 0.929 . S
C3700 C3697 1.424 . S
C3700 C3699 1.384 . S
C3700 H3718 0.928 . S
C3701 C3698 1.260 . S
C3701 C3699 1.479 . S
C3702 C3697 1.245 . S
C3702 C3698 1.477 . S
C3702 H3719 0.932 . S
C3703 U3686 2.882 . S
C3703 C3697 1.428 . S
C3703 O3706 1.301 . S
C3703 O3707 1.282 . S
O3704 U3686 2.441 . S
O3704 C3690 1.249 . S
O3705 U3686 2.420 . S
O3705 C3690 1.202 . S
O3706 U3686 2.455 . S
O3706 C3703 1.301 . S
O3707 U3686 2.449 . S
O3707 C3703 1.282 . S
H3708 C3681 0.931 . S
H3709 C3683 0.929 . S
H3710 C3684 0.930 . S
H3711 C3685 0.931 . S
H3712 C3692 0.932 . S
H3713 C3693 0.930 . S
H3714 C3694 0.929 . S
H3715 C3696 0.930 . S
H3716 C3698 0.932 . S
H3717 C3699 0.929 . S
H3718 C3700 0.928 . S
H3719 C3702 0.932 . S
C3720 C3721 1.264 . S
C3720 C3725 1.479 . S
C3720 C3730 1.465 . S
C3721 C3720 1.264 . S
C3721 C3723 1.339 . S
C3721 H3748 0.931 . S
C3722 C3723 1.395 . S
C3722 C3724 1.320 . S
C3723 C3721 1.339 . S
C3723 C3722 1.395 . S
C3723 H3749 0.929 . S
C3724 C3722 1.320 . S
C3724 C3725 1.405 . S
C3724 H3750 0.930 . S
C3725 C3720 1.479 . S
C3725 C3724 1.405 . S
C3725 H3751 0.931 . S
U3726 O3727 2.454 . S
U3726 O3728 2.458 . S
U3726 C3729 2.984 . S
U3726 C3730 2.847 . S
U3726 C3743 2.882 . S
U3726 O3744 2.441 . S
U3726 O3745 2.420 . S
U3726 O3746 2.455 . S
U3726 O3747 2.449 . S
O3727 U3726 2.454 . S
O3727 C3729 1.353 . S
O3728 U3726 2.458 . S
O3728 C3729 1.286 . S
C3729 U3726 2.984 . S
C3729 O3727 1.353 . S
C3729 O3728 1.286 . S
C3729 C3731 1.363 . S
C3730 C3720 1.465 . S
C3730 U3726 2.847 . S
C3730 O3744 1.249 . S
C3730 O3745 1.202 . S
C3731 C3729 1.363 . S
C3731 C3733 1.408 . S
C3731 C3736 1.342 . S
C3732 C3733 1.310 . S
C3732 C3735 1.461 . S
C3732 H3752 0.932 . S
C3733 C3731 1.408 . S
C3733 C3732 1.310 . S
C3733 H3753 0.930 . S
C3734 C3735 1.474 . S
C3734 C3736 1.285 . S
C3734 H3754 0.929 . S
C3735 C3732 1.461 . S
C3735 C3734 1.474 . S
C3736 C3731 1.342 . S
C3736 C3734 1.285 . S
C3736 H3755 0.930 . S
C3737 C3740 1.424 . S
C3737 C3742 1.245 . S
C3737 C3743 1.428 . S
C3738 C3741 1.260 . S
C3738 C3742 1.477 . S
C3738 H3756 0.932 . S
C3739 C3740 1.384 . S
C3739 C3741 1.479 . S
C3739 H3757 0.929 . S
C3740 C3737 1.424 . S
C3740 C3739 1.384 . S
C3740 H3758 0.928 . S
C3741 C3738 1.260 . S
C3741 C3739 1.479 . S
C3742 C3737 1.245 . S
C3742 C3738 1.477 . S
C3742 H3759 0.932 . S
C3743 U3726 2.882 . S
C3743 C3737 1.428 . S
C3743 O3746 1.301 . S
C3743 O3747 1.282 . S
O3744 U3726 2.441 . S
O3744 C3730 1.249 . S
O3745 U3726 2.420 . S
O3745 C3730 1.202 . S
O3746 U3726 2.455 . S
O3746 C3743 1.301 . S
O3747 U3726 2.449 . S
O3747 C3743 1.282 . S
H3748 C3721 0.931 . S
H3749 C3723 0.929 . S
H3750 C3724 0.930 . S
H3751 C3725 0.931 . S
H3752 C3732 0.932 . S
H3753 C3733 0.930 . S
H3754 C3734 0.929 . S
H3755 C3736 0.930 . S
H3756 C3738 0.932 . S
H3757 C3739 0.929 . S
H3758 C3740 0.928 . S
H3759 C3742 0.932 . S
C3760 C3761 1.264 . S
C3760 C3765 1.479 . S
C3760 C3770 1.465 . S
C3761 C3760 1.264 . S
C3761 C3763 1.339 . S
C3761 H3788 0.931 . S
C3762 C3763 1.395 . S
C3762 C3764 1.320 . S
C3763 C3761 1.339 . S
C3763 C3762 1.395 . S
C3763 H3789 0.929 . S
C3764 C3762 1.320 . S
C3764 C3765 1.405 . S
C3764 H3790 0.930 . S
C3765 C3760 1.479 . S
C3765 C3764 1.405 . S
C3765 H3791 0.931 . S
U3766 O3767 2.454 . S
U3766 O3768 2.458 . S
U3766 C3769 2.984 . S
U3766 C3770 2.847 . S
U3766 C3783 2.882 . S
U3766 O3784 2.441 . S
U3766 O3785 2.420 . S
U3766 O3786 2.455 . S
U3766 O3787 2.449 . S
O3767 U3766 2.454 . S
O3767 C3769 1.353 . S
O3768 U3766 2.458 . S
O3768 C3769 1.286 . S
C3769 U3766 2.984 . S
C3769 O3767 1.353 . S
C3769 O3768 1.286 . S
C3769 C3771 1.363 . S
C3770 C3760 1.465 . S
C3770 U3766 2.847 . S
C3770 O3784 1.249 . S
C3770 O3785 1.202 . S
C3771 C3769 1.363 . S
C3771 C3773 1.408 . S
C3771 C3776 1.342 . S
C3772 C3773 1.310 . S
C3772 C3775 1.461 . S
C3772 H3792 0.932 . S
C3773 C3771 1.408 . S
C3773 C3772 1.310 . S
C3773 H3793 0.930 . S
C3774 C3775 1.474 . S
C3774 C3776 1.285 . S
C3774 H3794 0.929 . S
C3775 C3772 1.461 . S
C3775 C3774 1.474 . S
C3776 C3771 1.342 . S
C3776 C3774 1.285 . S
C3776 H3795 0.930 . S
C3777 C3780 1.424 . S
C3777 C3782 1.245 . S
C3777 C3783 1.428 . S
C3778 C3781 1.260 . S
C3778 C3782 1.477 . S
C3778 H3796 0.932 . S
C3779 C3780 1.384 . S
C3779 C3781 1.479 . S
C3779 H3797 0.929 . S
C3780 C3777 1.424 . S
C3780 C3779 1.384 . S
C3780 H3798 0.928 . S
C3781 C3778 1.260 . S
C3781 C3779 1.479 . S
C3782 C3777 1.245 . S
C3782 C3778 1.477 . S
C3782 H3799 0.932 . S
C3783 U3766 2.882 . S
C3783 C3777 1.428 . S
C3783 O3786 1.301 . S
C3783 O3787 1.282 . S
O3784 U3766 2.441 . S
O3784 C3770 1.249 . S
O3785 U3766 2.420 . S
O3785 C3770 1.202 . S
O3786 U3766 2.455 . S
O3786 C3783 1.301 . S
O3787 U3766 2.449 . S
O3787 C3783 1.282 . S
H3788 C3761 0.931 . S
H3789 C3763 0.929 . S
H3790 C3764 0.930 . S
H3791 C3765 0.931 . S
H3792 C3772 0.932 . S
H3793 C3773 0.930 . S
H3794 C3774 0.929 . S
H3795 C3776 0.930 . S
H3796 C3778 0.932 . S
H3797 C3779 0.929 . S
H3798 C3780 0.928 . S
H3799 C3782 0.932 . S
C3800 C3801 1.264 . S
C3800 C3805 1.479 . S
C3800 C3810 1.465 . S
C3801 C3800 1.264 . S
C3801 C3803 1.339 . S
C3801 H3828 0.931 . S
C3802 C3803 1.395 . S
C3802 C3804 1.320 . S
C3803 C3801 1.339 . S
C3803 C3802 1.395 . S
C3803 H3829 0.929 . S
C3804 C3802 1.320 . S
C3804 C3805 1.405 . S
C3804 H3830 0.930 . S
C3805 C3800 1.479 . S
C3805 C3804 1.405 . S
C3805 H3831 0.931 . S
U3806 O3807 2.454 . S
U3806 O3808 2.458 . S
U3806 C3809 2.984 . S
U3806 C3810 2.847 . S
U3806 C3823 2.882 . S
U3806 O3824 2.441 . S
U3806 O3825 2.420 . S
U3806 O3826 2.455 . S
U3806 O3827 2.449 . S
O3807 U3806 2.454 . S
O3807 C3809 1.353 . S
O3808 U3806 2.458 . S
O3808 C3809 1.286 . S
C3809 U3806 2.984 . S
C3809 O3807 1.353 . S
C3809 O3808 1.286 . S
C3809 C3811 1.363 . S
C3810 C3800 1.465 . S
C3810 U3806 2.847 . S
C3810 O3824 1.249 . S
C3810 O3825 1.202 . S
C3811 C3809 1.363 . S
C3811 C3813 1.408 . S
C3811 C3816 1.342 . S
C3812 C3813 1.310 . S
C3812 C3815 1.461 . S
C3812 H3832 0.932 . S
C3813 C3811 1.408 . S
C3813 C3812 1.310 . S
C3813 H3833 0.930 . S
C3814 C3815 1.474 . S
C3814 C3816 1.285 . S
C3814 H3834 0.929 . S
C3815 C3812 1.461 . S
C3815 C3814 1.474 . S
C3816 C3811 1.342 . S
C3816 C3814 1.285 . S
C3816 H3835 0.930 . S
C3817 C3820 1.424 . S
C3817 C3822 1.245 . S
C3817 C3823 1.428 . S
C3818 C3821 1.260 . S
C3818 C3822 1.477 . S
C3818 H3836 0.932 . S
C3819 C3820 1.384 . S
C3819 C3821 1.479 . S
C3819 H3837 0.929 . S
C3820 C3817 1.424 . S
C3820 C3819 1.384 . S
C3820 H3838 0.928 . S
C3821 C3818 1.260 . S
C3821 C3819 1.479 . S
C3822 C3817 1.245 . S
C3822 C3818 1.477 . S
C3822 H3839 0.932 . S
C3823 U3806 2.882 . S
C3823 C3817 1.428 . S
C3823 O3826 1.301 . S
C3823 O3827 1.282 . S
O3824 U3806 2.441 . S
O3824 C3810 1.249 . S
O3825 U3806 2.420 . S
O3825 C3810 1.202 . S
O3826 U3806 2.455 . S
O3826 C3823 1.301 . S
O3827 U3806 2.449 . S
O3827 C3823 1.282 . S
H3828 C3801 0.931 . S
H3829 C3803 0.929 . S
H3830 C3804 0.930 . S
H3831 C3805 0.931 . S
H3832 C3812 0.932 . S
H3833 C3813 0.930 . S
H3834 C3814 0.929 . S
H3835 C3816 0.930 . S
H3836 C3818 0.932 . S
H3837 C3819 0.929 . S
H3838 C3820 0.928 . S
H3839 C3822 0.932 . S
C3840 C3841 1.264 . S
C3840 C3845 1.479 . S
C3840 C3850 1.465 . S
C3841 C3840 1.264 . S
C3841 C3843 1.339 . S
C3841 H3868 0.931 . S
C3842 C3843 1.395 . S
C3842 C3844 1.320 . S
C3843 C3841 1.339 . S
C3843 C3842 1.395 . S
C3843 H3869 0.929 . S
C3844 C3842 1.320 . S
C3844 C3845 1.405 . S
C3844 H3870 0.930 . S
C3845 C3840 1.479 . S
C3845 C3844 1.405 . S
C3845 H3871 0.931 . S
U3846 O3847 2.454 . S
U3846 O3848 2.458 . S
U3846 C3849 2.984 . S
U3846 C3850 2.847 . S
U3846 C3863 2.882 . S
U3846 O3864 2.441 . S
U3846 O3865 2.420 . S
U3846 O3866 2.455 . S
U3846 O3867 2.449 . S
O3847 U3846 2.454 . S
O3847 C3849 1.353 . S
O3848 U3846 2.458 . S
O3848 C3849 1.286 . S
C3849 U3846 2.984 . S
C3849 O3847 1.353 . S
C3849 O3848 1.286 . S
C3849 C3851 1.363 . S
C3850 C3840 1.465 . S
C3850 U3846 2.847 . S
C3850 O3864 1.249 . S
C3850 O3865 1.202 . S
C3851 C3849 1.363 . S
C3851 C3853 1.408 . S
C3851 C3856 1.342 . S
C3852 C3853 1.310 . S
C3852 C3855 1.461 . S
C3852 H3872 0.932 . S
C3853 C3851 1.408 . S
C3853 C3852 1.310 . S
C3853 H3873 0.930 . S
C3854 C3855 1.474 . S
C3854 C3856 1.285 . S
C3854 H3874 0.929 . S
C3855 C3852 1.461 . S
C3855 C3854 1.474 . S
C3856 C3851 1.342 . S
C3856 C3854 1.285 . S
C3856 H3875 0.930 . S
C3857 C3860 1.424 . S
C3857 C3862 1.245 . S
C3857 C3863 1.428 . S
C3858 C3861 1.260 . S
C3858 C3862 1.477 . S
C3858 H3876 0.932 . S
C3859 C3860 1.384 . S
C3859 C3861 1.479 . S
C3859 H3877 0.929 . S
C3860 C3857 1.424 . S
C3860 C3859 1.384 . S
C3860 H3878 0.928 . S
C3861 C3858 1.260 . S
C3861 C3859 1.479 . S
C3862 C3857 1.245 . S
C3862 C3858 1.477 . S
C3862 H3879 0.932 . S
C3863 U3846 2.882 . S
C3863 C3857 1.428 . S
C3863 O3866 1.301 . S
C3863 O3867 1.282 . S
O3864 U3846 2.441 . S
O3864 C3850 1.249 . S
O3865 U3846 2.420 . S
O3865 C3850 1.202 . S
O3866 U3846 2.455 . S
O3866 C3863 1.301 . S
O3867 U3846 2.449 . S
O3867 C3863 1.282 . S
H3868 C3841 0.931 . S
H3869 C3843 0.929 . S
H3870 C3844 0.930 . S
H3871 C3845 0.931 . S
H3872 C3852 0.932 . S
H3873 C3853 0.930 . S
H3874 C3854 0.929 . S
H3875 C3856 0.930 . S
H3876 C3858 0.932 . S
H3877 C3859 0.929 . S
H3878 C3860 0.928 . S
H3879 C3862 0.932 . S
C3880 C3881 1.264 . S
C3880 C3885 1.479 . S
C3880 C3890 1.465 . S
C3881 C3880 1.264 . S
C3881 C3883 1.339 . S
C3881 H3908 0.931 . S
C3882 C3883 1.395 . S
C3882 C3884 1.320 . S
C3883 C3881 1.339 . S
C3883 C3882 1.395 . S
C3883 H3909 0.929 . S
C3884 C3882 1.320 . S
C3884 C3885 1.405 . S
C3884 H3910 0.930 . S
C3885 C3880 1.479 . S
C3885 C3884 1.405 . S
C3885 H3911 0.931 . S
U3886 O3887 2.454 . S
U3886 O3888 2.458 . S
U3886 C3889 2.984 . S
U3886 C3890 2.847 . S
U3886 C3903 2.882 . S
U3886 O3904 2.441 . S
U3886 O3905 2.420 . S
U3886 O3906 2.455 . S
U3886 O3907 2.449 . S
O3887 U3886 2.454 . S
O3887 C3889 1.353 . S
O3888 U3886 2.458 . S
O3888 C3889 1.286 . S
C3889 U3886 2.984 . S
C3889 O3887 1.353 . S
C3889 O3888 1.286 . S
C3889 C3891 1.363 . S
C3890 C3880 1.465 . S
C3890 U3886 2.847 . S
C3890 O3904 1.249 . S
C3890 O3905 1.202 . S
C3891 C3889 1.363 . S
C3891 C3893 1.408 . S
C3891 C3896 1.342 . S
C3892 C3893 1.310 . S
C3892 C3895 1.461 . S
C3892 H3912 0.932 . S
C3893 C3891 1.408 . S
C3893 C3892 1.310 . S
C3893 H3913 0.930 . S
C3894 C3895 1.474 . S
C3894 C3896 1.285 . S
C3894 H3914 0.929 . S
C3895 C3892 1.461 . S
C3895 C3894 1.474 . S
C3896 C3891 1.342 . S
C3896 C3894 1.285 . S
C3896 H3915 0.930 . S
C3897 C3900 1.424 . S
C3897 C3902 1.245 . S
C3897 C3903 1.428 . S
C3898 C3901 1.260 . S
C3898 C3902 1.477 . S
C3898 H3916 0.932 . S
C3899 C3900 1.384 . S
C3899 C3901 1.479 . S
C3899 H3917 0.929 . S
C3900 C3897 1.424 . S
C3900 C3899 1.384 . S
C3900 H3918 0.928 . S
C3901 C3898 1.260 . S
C3901 C3899 1.479 . S
C3902 C3897 1.245 . S
C3902 C3898 1.477 . S
C3902 H3919 0.932 . S
C3903 U3886 2.882 . S
C3903 C3897 1.428 . S
C3903 O3906 1.301 . S
C3903 O3907 1.282 . S
O3904 U3886 2.441 . S
O3904 C3890 1.249 . S
O3905 U3886 2.420 . S
O3905 C3890 1.202 . S
O3906 U3886 2.455 . S
O3906 C3903 1.301 . S
O3907 U3886 2.449 . S
O3907 C3903 1.282 . S
H3908 C3881 0.931 . S
H3909 C3883 0.929 . S
H3910 C3884 0.930 . S
H3911 C3885 0.931 . S
H3912 C3892 0.932 . S
H3913 C3893 0.930 . S
H3914 C3894 0.929 . S
H3915 C3896 0.930 . S
H3916 C3898 0.932 . S
H3917 C3899 0.929 . S
H3918 C3900 0.928 . S
H3919 C3902 0.932 . S
C3920 C3921 1.264 . S
C3920 C3925 1.479 . S
C3920 C3930 1.465 . S
C3921 C3920 1.264 . S
C3921 C3923 1.339 . S
C3921 H3948 0.931 . S
C3922 C3923 1.395 . S
C3922 C3924 1.320 . S
C3923 C3921 1.339 . S
C3923 C3922 1.395 . S
C3923 H3949 0.929 . S
C3924 C3922 1.320 . S
C3924 C3925 1.405 . S
C3924 H3950 0.930 . S
C3925 C3920 1.479 . S
C3925 C3924 1.405 . S
C3925 H3951 0.931 . S
U3926 O3927 2.454 . S
U3926 O3928 2.458 . S
U3926 C3929 2.984 . S
U3926 C3930 2.847 . S
U3926 C3943 2.882 . S
U3926 O3944 2.441 . S
U3926 O3945 2.420 . S
U3926 O3946 2.455 . S
U3926 O3947 2.449 . S
O3927 U3926 2.454 . S
O3927 C3929 1.353 . S
O3928 U3926 2.458 . S
O3928 C3929 1.286 . S
C3929 U3926 2.984 . S
C3929 O3927 1.353 . S
C3929 O3928 1.286 . S
C3929 C3931 1.363 . S
C3930 C3920 1.465 . S
C3930 U3926 2.847 . S
C3930 O3944 1.249 . S
C3930 O3945 1.202 . S
C3931 C3929 1.363 . S
C3931 C3933 1.408 . S
C3931 C3936 1.342 . S
C3932 C3933 1.310 . S
C3932 C3935 1.461 . S
C3932 H3952 0.932 . S
C3933 C3931 1.408 . S
C3933 C3932 1.310 . S
C3933 H3953 0.930 . S
C3934 C3935 1.474 . S
C3934 C3936 1.285 . S
C3934 H3954 0.929 . S
C3935 C3932 1.461 . S
C3935 C3934 1.474 . S
C3936 C3931 1.342 . S
C3936 C3934 1.285 . S
C3936 H3955 0.930 . S
C3937 C3940 1.424 . S
C3937 C3942 1.245 . S
C3937 C3943 1.428 . S
C3938 C3941 1.260 . S
C3938 C3942 1.477 . S
C3938 H3956 0.932 . S
C3939 C3940 1.384 . S
C3939 C3941 1.479 . S
C3939 H3957 0.929 . S
C3940 C3937 1.424 . S
C3940 C3939 1.384 . S
C3940 H3958 0.928 . S
C3941 C3938 1.260 . S
C3941 C3939 1.479 . S
C3942 C3937 1.245 . S
C3942 C3938 1.477 . S
C3942 H3959 0.932 . S
C3943 U3926 2.882 . S
C3943 C3937 1.428 . S
C3943 O3946 1.301 . S
C3943 O3947 1.282 . S
O3944 U3926 2.441 . S
O3944 C3930 1.249 . S
O3945 U3926 2.420 . S
O3945 C3930 1.202 . S
O3946 U3926 2.455 . S
O3946 C3943 1.301 . S
O3947 U3926 2.449 . S
O3947 C3943 1.282 . S
H3948 C3921 0.931 . S
H3949 C3923 0.929 . S
H3950 C3924 0.930 . S
H3951 C3925 0.931 . S
H3952 C3932 0.932 . S
H3953 C3933 0.930 . S
H3954 C3934 0.929 . S
H3955 C3936 0.930 . S
H3956 C3938 0.932 . S
H3957 C3939 0.929 . S
H3958 C3940 0.928 . S
H3959 C3942 0.932 . S
C3960 C3961 1.264 . S
C3960 C3965 1.479 . S
C3960 C3970 1.465 . S
C3961 C3960 1.264 . S
C3961 C3963 1.339 . S
C3961 H3988 0.931 . S
C3962 C3963 1.395 . S
C3962 C3964 1.320 . S
C3963 C3961 1.339 . S
C3963 C3962 1.395 . S
C3963 H3989 0.929 . S
C3964 C3962 1.320 . S
C3964 C3965 1.405 . S
C3964 H3990 0.930 . S
C3965 C3960 1.479 . S
C3965 C3964 1.405 . S
C3965 H3991 0.931 . S
U3966 O3967 2.454 . S
U3966 O3968 2.458 . S
U3966 C3969 2.984 . S
U3966 C3970 2.847 . S
U3966 C3983 2.882 . S
U3966 O3984 2.441 . S
U3966 O3985 2.420 . S
U3966 O3986 2.455 . S
U3966 O3987 2.449 . S
O3967 U3966 2.454 . S
O3967 C3969 1.353 . S
O3968 U3966 2.458 . S
O3968 C3969 1.286 . S
C3969 U3966 2.984 . S
C3969 O3967 1.353 . S
C3969 O3968 1.286 . S
C3969 C3971 1.363 . S
C3970 C3960 1.465 . S
C3970 U3966 2.847 . S
C3970 O3984 1.249 . S
C3970 O3985 1.202 . S
C3971 C3969 1.363 . S
C3971 C3973 1.408 . S
C3971 C3976 1.342 . S
C3972 C3973 1.310 . S
C3972 C3975 1.461 . S
C3972 H3992 0.932 . S
C3973 C3971 1.408 . S
C3973 C3972 1.310 . S
C3973 H3993 0.930 . S
C3974 C3975 1.474 . S
C3974 C3976 1.285 . S
C3974 H3994 0.929 . S
C3975 C3972 1.461 . S
C3975 C3974 1.474 . S
C3976 C3971 1.342 . S
C3976 C3974 1.285 . S
C3976 H3995 0.930 . S
C3977 C3980 1.424 . S
C3977 C3982 1.245 . S
C3977 C3983 1.428 . S
C3978 C3981 1.260 . S
C3978 C3982 1.477 . S
C3978 H3996 0.932 . S
C3979 C3980 1.384 . S
C3979 C3981 1.479 . S
C3979 H3997 0.929 . S
C3980 C3977 1.424 . S
C3980 C3979 1.384 . S
C3980 H3998 0.928 . S
C3981 C3978 1.260 . S
C3981 C3979 1.479 . S
C3982 C3977 1.245 . S
C3982 C3978 1.477 . S
C3982 H3999 0.932 . S
C3983 U3966 2.882 . S
C3983 C3977 1.428 . S
C3983 O3986 1.301 . S
C3983 O3987 1.282 . S
O3984 U3966 2.441 . S
O3984 C3970 1.249 . S
O3985 U3966 2.420 . S
O3985 C3970 1.202 . S
O3986 U3966 2.455 . S
O3986 C3983 1.301 . S
O3987 U3966 2.449 . S
O3987 C3983 1.282 . S
H3988 C3961 0.931 . S
H3989 C3963 0.929 . S
H3990 C3964 0.930 . S
H3991 C3965 0.931 . S
H3992 C3972 0.932 . S
H3993 C3973 0.930 . S
H3994 C3974 0.929 . S
H3995 C3976 0.930 . S
H3996 C3978 0.932 . S
H3997 C3979 0.929 . S
H3998 C3980 0.928 . S
H3999 C3982 0.932 . S
C4000 C4001 1.264 . S
C4000 C4005 1.479 . S
C4000 C4010 1.465 . S
C4001 C4000 1.264 . S
C4001 C4003 1.339 . S
C4001 H4028 0.931 . S
C4002 C4003 1.395 . S
C4002 C4004 1.320 . S
C4003 C4001 1.339 . S
C4003 C4002 1.395 . S
C4003 H4029 0.929 . S
C4004 C4002 1.320 . S
C4004 C4005 1.405 . S
C4004 H4030 0.930 . S
C4005 C4000 1.479 . S
C4005 C4004 1.405 . S
C4005 H4031 0.931 . S
U4006 O4007 2.454 . S
U4006 O4008 2.458 . S
U4006 C4009 2.984 . S
U4006 C4010 2.847 . S
U4006 C4023 2.882 . S
U4006 O4024 2.441 . S
U4006 O4025 2.420 . S
U4006 O4026 2.455 . S
U4006 O4027 2.449 . S
O4007 U4006 2.454 . S
O4007 C4009 1.353 . S
O4008 U4006 2.458 . S
O4008 C4009 1.286 . S
C4009 U4006 2.984 . S
C4009 O4007 1.353 . S
C4009 O4008 1.286 . S
C4009 C4011 1.363 . S
C4010 C4000 1.465 . S
C4010 U4006 2.847 . S
C4010 O4024 1.249 . S
C4010 O4025 1.202 . S
C4011 C4009 1.363 . S
C4011 C4013 1.408 . S
C4011 C4016 1.342 . S
C4012 C4013 1.310 . S
C4012 C4015 1.461 . S
C4012 H4032 0.932 . S
C4013 C4011 1.408 . S
C4013 C4012 1.310 . S
C4013 H4033 0.930 . S
C4014 C4015 1.474 . S
C4014 C4016 1.285 . S
C4014 H4034 0.929 . S
C4015 C4012 1.461 . S
C4015 C4014 1.474 . S
C4016 C4011 1.342 . S
C4016 C4014 1.285 . S
C4016 H4035 0.930 . S
C4017 C4020 1.424 . S
C4017 C4022 1.245 . S
C4017 C4023 1.428 . S
C4018 C4021 1.260 . S
C4018 C4022 1.477 . S
C4018 H4036 0.932 . S
C4019 C4020 1.384 . S
C4019 C4021 1.479 . S
C4019 H4037 0.929 . S
C4020 C4017 1.424 . S
C4020 C4019 1.384 . S
C4020 H4038 0.928 . S
C4021 C4018 1.260 . S
C4021 C4019 1.479 . S
C4022 C4017 1.245 . S
C4022 C4018 1.477 . S
C4022 H4039 0.932 . S
C4023 U4006 2.882 . S
C4023 C4017 1.428 . S
C4023 O4026 1.301 . S
C4023 O4027 1.282 . S
O4024 U4006 2.441 . S
O4024 C4010 1.249 . S
O4025 U4006 2.420 . S
O4025 C4010 1.202 . S
O4026 U4006 2.455 . S
O4026 C4023 1.301 . S
O4027 U4006 2.449 . S
O4027 C4023 1.282 . S
H4028 C4001 0.931 . S
H4029 C4003 0.929 . S
H4030 C4004 0.930 . S
H4031 C4005 0.931 . S
H4032 C4012 0.932 . S
H4033 C4013 0.930 . S
H4034 C4014 0.929 . S
H4035 C4016 0.930 . S
H4036 C4018 0.932 . S
H4037 C4019 0.929 . S
H4038 C4020 0.928 . S
H4039 C4022 0.932 . S
C4040 C4041 1.264 . S
C4040 C4045 1.479 . S
C4040 C4050 1.465 . S
C4041 C4040 1.264 . S
C4041 C4043 1.339 . S
C4041 H4068 0.931 . S
C4042 C4043 1.395 . S
C4042 C4044 1.320 . S
C4043 C4041 1.339 . S
C4043 C4042 1.395 . S
C4043 H4069 0.929 . S
C4044 C4042 1.320 . S
C4044 C4045 1.405 . S
C4044 H4070 0.930 . S
C4045 C4040 1.479 . S
C4045 C4044 1.405 . S
C4045 H4071 0.931 . S
U4046 O4047 2.454 . S
U4046 O4048 2.458 . S
U4046 C4049 2.984 . S
U4046 C4050 2.847 . S
U4046 C4063 2.882 . S
U4046 O4064 2.441 . S
U4046 O4065 2.420 . S
U4046 O4066 2.455 . S
U4046 O4067 2.449 . S
O4047 U4046 2.454 . S
O4047 C4049 1.353 . S
O4048 U4046 2.458 . S
O4048 C4049 1.286 . S
C4049 U4046 2.984 . S
C4049 O4047 1.353 . S
C4049 O4048 1.286 . S
C4049 C4051 1.363 . S
C4050 C4040 1.465 . S
C4050 U4046 2.847 . S
C4050 O4064 1.249 . S
C4050 O4065 1.202 . S
C4051 C4049 1.363 . S
C4051 C4053 1.408 . S
C4051 C4056 1.342 . S
C4052 C4053 1.310 . S
C4052 C4055 1.461 . S
C4052 H4072 0.932 . S
C4053 C4051 1.408 . S
C4053 C4052 1.310 . S
C4053 H4073 0.930 . S
C4054 C4055 1.474 . S
C4054 C4056 1.285 . S
C4054 H4074 0.929 . S
C4055 C4052 1.461 . S
C4055 C4054 1.474 . S
C4056 C4051 1.342 . S
C4056 C4054 1.285 . S
C4056 H4075 0.930 . S
C4057 C4060 1.424 . S
C4057 C4062 1.245 . S
C4057 C4063 1.428 . S
C4058 C4061 1.260 . S
C4058 C4062 1.477 . S
C4058 H4076 0.932 . S
C4059 C4060 1.384 . S
C4059 C4061 1.479 . S
C4059 H4077 0.929 . S
C4060 C4057 1.424 . S
C4060 C4059 1.384 . S
C4060 H4078 0.928 . S
C4061 C4058 1.260 . S
C4061 C4059 1.479 . S
C4062 C4057 1.245 . S
C4062 C4058 1.477 . S
C4062 H4079 0.932 . S
C4063 U4046 2.882 . S
C4063 C4057 1.428 . S
C4063 O4066 1.301 . S
C4063 O4067 1.282 . S
O4064 U4046 2.441 . S
O4064 C4050 1.249 . S
O4065 U4046 2.420 . S
O4065 C4050 1.202 . S
O4066 U4046 2.455 . S
O4066 C4063 1.301 . S
O4067 U4046 2.449 . S
O4067 C4063 1.282 . S
H4068 C4041 0.931 . S
H4069 C4043 0.929 . S
H4070 C4044 0.930 . S
H4071 C4045 0.931 . S
H4072 C4052 0.932 . S
H4073 C4053 0.930 . S
H4074 C4054 0.929 . S
H4075 C4056 0.930 . S
H4076 C4058 0.932 . S
H4077 C4059 0.929 . S
H4078 C4060 0.928 . S
H4079 C4062 0.932 . S
C4080 C4081 1.264 . S
C4080 C4085 1.479 . S
C4080 C4090 1.465 . S
C4081 C4080 1.264 . S
C4081 C4083 1.339 . S
C4081 H4108 0.931 . S
C4082 C4083 1.395 . S
C4082 C4084 1.320 . S
C4083 C4081 1.339 . S
C4083 C4082 1.395 . S
C4083 H4109 0.929 . S
C4084 C4082 1.320 . S
C4084 C4085 1.405 . S
C4084 H4110 0.930 . S
C4085 C4080 1.479 . S
C4085 C4084 1.405 . S
C4085 H4111 0.931 . S
U4086 O4087 2.454 . S
U4086 O4088 2.458 . S
U4086 C4089 2.984 . S
U4086 C4090 2.847 . S
U4086 C4103 2.882 . S
U4086 O4104 2.441 . S
U4086 O4105 2.420 . S
U4086 O4106 2.455 . S
U4086 O4107 2.449 . S
O4087 U4086 2.454 . S
O4087 C4089 1.353 . S
O4088 U4086 2.458 . S
O4088 C4089 1.286 . S
C4089 U4086 2.984 . S
C4089 O4087 1.353 . S
C4089 O4088 1.286 . S
C4089 C4091 1.363 . S
C4090 C4080 1.465 . S
C4090 U4086 2.847 . S
C4090 O4104 1.249 . S
C4090 O4105 1.202 . S
C4091 C4089 1.363 . S
C4091 C4093 1.408 . S
C4091 C4096 1.342 . S
C4092 C4093 1.310 . S
C4092 C4095 1.461 . S
C4092 H4112 0.932 . S
C4093 C4091 1.408 . S
C4093 C4092 1.310 . S
C4093 H4113 0.930 . S
C4094 C4095 1.474 . S
C4094 C4096 1.285 . S
C4094 H4114 0.929 . S
C4095 C4092 1.461 . S
C4095 C4094 1.474 . S
C4096 C4091 1.342 . S
C4096 C4094 1.285 . S
C4096 H4115 0.930 . S
C4097 C4100 1.424 . S
C4097 C4102 1.245 . S
C4097 C4103 1.428 . S
C4098 C4101 1.260 . S
C4098 C4102 1.477 . S
C4098 H4116 0.932 . S
C4099 C4100 1.384 . S
C4099 C4101 1.479 . S
C4099 H4117 0.929 . S
C4100 C4097 1.424 . S
C4100 C4099 1.384 . S
C4100 H4118 0.928 . S
C4101 C4098 1.260 . S
C4101 C4099 1.479 . S
C4102 C4097 1.245 . S
C4102 C4098 1.477 . S
C4102 H4119 0.932 . S
C4103 U4086 2.882 . S
C4103 C4097 1.428 . S
C4103 O4106 1.301 . S
C4103 O4107 1.282 . S
O4104 U4086 2.441 . S
O4104 C4090 1.249 . S
O4105 U4086 2.420 . S
O4105 C4090 1.202 . S
O4106 U4086 2.455 . S
O4106 C4103 1.301 . S
O4107 U4086 2.449 . S
O4107 C4103 1.282 . S
H4108 C4081 0.931 . S
H4109 C4083 0.929 . S
H4110 C4084 0.930 . S
H4111 C4085 0.931 . S
H4112 C4092 0.932 . S
H4113 C4093 0.930 . S
H4114 C4094 0.929 . S
H4115 C4096 0.930 . S
H4116 C4098 0.932 . S
H4117 C4099 0.929 . S
H4118 C4100 0.928 . S
H4119 C4102 0.932 . S
C4120 C4121 1.264 . S
C4120 C4125 1.479 . S
C4120 C4130 1.465 . S
C4121 C4120 1.264 . S
C4121 C4123 1.339 . S
C4121 H4148 0.931 . S
C4122 C4123 1.395 . S
C4122 C4124 1.320 . S
C4123 C4121 1.339 . S
C4123 C4122 1.395 . S
C4123 H4149 0.929 . S
C4124 C4122 1.320 . S
C4124 C4125 1.405 . S
C4124 H4150 0.930 . S
C4125 C4120 1.479 . S
C4125 C4124 1.405 . S
C4125 H4151 0.931 . S
U4126 O4127 2.454 . S
U4126 O4128 2.458 . S
U4126 C4129 2.984 . S
U4126 C4130 2.847 . S
U4126 C4143 2.882 . S
U4126 O4144 2.441 . S
U4126 O4145 2.420 . S
U4126 O4146 2.455 . S
U4126 O4147 2.449 . S
O4127 U4126 2.454 . S
O4127 C4129 1.353 . S
O4128 U4126 2.458 . S
O4128 C4129 1.286 . S
C4129 U4126 2.984 . S
C4129 O4127 1.353 . S
C4129 O4128 1.286 . S
C4129 C4131 1.363 . S
C4130 C4120 1.465 . S
C4130 U4126 2.847 . S
C4130 O4144 1.249 . S
C4130 O4145 1.202 . S
C4131 C4129 1.363 . S
C4131 C4133 1.408 . S
C4131 C4136 1.342 . S
C4132 C4133 1.310 . S
C4132 C4135 1.461 . S
C4132 H4152 0.932 . S
C4133 C4131 1.408 . S
C4133 C4132 1.310 . S
C4133 H4153 0.930 . S
C4134 C4135 1.474 . S
C4134 C4136 1.285 . S
C4134 H4154 0.929 . S
C4135 C4132 1.461 . S
C4135 C4134 1.474 . S
C4136 C4131 1.342 . S
C4136 C4134 1.285 . S
C4136 H4155 0.930 . S
C4137 C4140 1.424 . S
C4137 C4142 1.245 . S
C4137 C4143 1.428 . S
C4138 C4141 1.260 . S
C4138 C4142 1.477 . S
C4138 H4156 0.932 . S
C4139 C4140 1.384 . S
C4139 C4141 1.479 . S
C4139 H4157 0.929 . S
C4140 C4137 1.424 . S
C4140 C4139 1.384 . S
C4140 H4158 0.928 . S
C4141 C4138 1.260 . S
C4141 C4139 1.479 . S
C4142 C4137 1.245 . S
C4142 C4138 1.477 . S
C4142 H4159 0.932 . S
C4143 U4126 2.882 . S
C4143 C4137 1.428 . S
C4143 O4146 1.301 . S
C4143 O4147 1.282 . S
O4144 U4126 2.441 . S
O4144 C4130 1.249 . S
O4145 U4126 2.420 . S
O4145 C4130 1.202 . S
O4146 U4126 2.455 . S
O4146 C4143 1.301 . S
O4147 U4126 2.449 . S
O4147 C4143 1.282 . S
H4148 C4121 0.931 . S
H4149 C4123 0.929 . S
H4150 C4124 0.930 . S
H4151 C4125 0.931 . S
H4152 C4132 0.932 . S
H4153 C4133 0.930 . S
H4154 C4134 0.929 . S
H4155 C4136 0.930 . S
H4156 C4138 0.932 . S
H4157 C4139 0.929 . S
H4158 C4140 0.928 . S
H4159 C4142 0.932 . S
C4160 C4161 1.264 . S
C4160 C4165 1.479 . S
C4160 C4170 1.465 . S
C4161 C4160 1.264 . S
C4161 C4163 1.339 . S
C4161 H4188 0.931 . S
C4162 C4163 1.395 . S
C4162 C4164 1.320 . S
C4163 C4161 1.339 . S
C4163 C4162 1.395 . S
C4163 H4189 0.929 . S
C4164 C4162 1.320 . S
C4164 C4165 1.405 . S
C4164 H4190 0.930 . S
C4165 C4160 1.479 . S
C4165 C4164 1.405 . S
C4165 H4191 0.931 . S
U4166 O4167 2.454 . S
U4166 O4168 2.458 . S
U4166 C4169 2.984 . S
U4166 C4170 2.847 . S
U4166 C4183 2.882 . S
U4166 O4184 2.441 . S
U4166 O4185 2.420 . S
U4166 O4186 2.455 . S
U4166 O4187 2.449 . S
O4167 U4166 2.454 . S
O4167 C4169 1.353 . S
O4168 U4166 2.458 . S
O4168 C4169 1.286 . S
C4169 U4166 2.984 . S
C4169 O4167 1.353 . S
C4169 O4168 1.286 . S
C4169 C4171 1.363 . S
C4170 C4160 1.465 . S
C4170 U4166 2.847 . S
C4170 O4184 1.249 . S
C4170 O4185 1.202 . S
C4171 C4169 1.363 . S
C4171 C4173 1.408 . S
C4171 C4176 1.342 . S
C4172 C4173 1.310 . S
C4172 C4175 1.461 . S
C4172 H4192 0.932 . S
C4173 C4171 1.408 . S
C4173 C4172 1.310 . S
C4173 H4193 0.930 . S
C4174 C4175 1.474 . S
C4174 C4176 1.285 . S
C4174 H4194 0.929 . S
C4175 C4172 1.461 . S
C4175 C4174 1.474 . S
C4176 C4171 1.342 . S
C4176 C4174 1.285 . S
C4176 H4195 0.930 . S
C4177 C4180 1.424 . S
C4177 C4182 1.245 . S
C4177 C4183 1.428 . S
C4178 C4181 1.260 . S
C4178 C4182 1.477 . S
C4178 H4196 0.932 . S
C4179 C4180 1.384 . S
C4179 C4181 1.479 . S
C4179 H4197 0.929 . S
C4180 C4177 1.424 . S
C4180 C4179 1.384 . S
C4180 H4198 0.928 . S
C4181 C4178 1.260 . S
C4181 C4179 1.479 . S
C4182 C4177 1.245 . S
C4182 C4178 1.477 . S
C4182 H4199 0.932 . S
C4183 U4166 2.882 . S
C4183 C4177 1.428 . S
C4183 O4186 1.301 . S
C4183 O4187 1.282 . S
O4184 U4166 2.441 . S
O4184 C4170 1.249 . S
O4185 U4166 2.420 . S
O4185 C4170 1.202 . S
O4186 U4166 2.455 . S
O4186 C4183 1.301 . S
O4187 U4166 2.449 . S
O4187 C4183 1.282 . S
H4188 C4161 0.931 . S
H4189 C4163 0.929 . S
H4190 C4164 0.930 . S
H4191 C4165 0.931 . S
H4192 C4172 0.932 . S
H4193 C4173 0.930 . S
H4194 C4174 0.929 . S
H4195 C4176 0.930 . S
H4196 C4178 0.932 . S
H4197 C4179 0.929 . S
H4198 C4180 0.928 . S
H4199 C4182 0.932 . S
C4200 C4201 1.264 . S
C4200 C4205 1.479 . S
C4200 C4210 1.465 . S
C4201 C4200 1.264 . S
C4201 C4203 1.339 . S
C4201 H4228 0.931 . S
C4202 C4203 1.395 . S
C4202 C4204 1.320 . S
C4203 C4201 1.339 . S
C4203 C4202 1.395 . S
C4203 H4229 0.929 . S
C4204 C4202 1.320 . S
C4204 C4205 1.405 . S
C4204 H4230 0.930 . S
C4205 C4200 1.479 . S
C4205 C4204 1.405 . S
C4205 H4231 0.931 . S
U4206 O4207 2.454 . S
U4206 O4208 2.458 . S
U4206 C4209 2.984 . S
U4206 C4210 2.847 . S
U4206 C4223 2.882 . S
U4206 O4224 2.441 . S
U4206 O4225 2.420 . S
U4206 O4226 2.455 . S
U4206 O4227 2.449 . S
O4207 U4206 2.454 . S
O4207 C4209 1.353 . S
O4208 U4206 2.458 . S
O4208 C4209 1.286 . S
C4209 U4206 2.984 . S
C4209 O4207 1.353 . S
C4209 O4208 1.286 . S
C4209 C4211 1.363 . S
C4210 C4200 1.465 . S
C4210 U4206 2.847 . S
C4210 O4224 1.249 . S
C4210 O4225 1.202 . S
C4211 C4209 1.363 . S
C4211 C4213 1.408 . S
C4211 C4216 1.342 . S
C4212 C4213 1.310 . S
C4212 C4215 1.461 . S
C4212 H4232 0.932 . S
C4213 C4211 1.408 . S
C4213 C4212 1.310 . S
C4213 H4233 0.930 . S
C4214 C4215 1.474 . S
C4214 C4216 1.285 . S
C4214 H4234 0.929 . S
C4215 C4212 1.461 . S
C4215 C4214 1.474 . S
C4216 C4211 1.342 . S
C4216 C4214 1.285 . S
C4216 H4235 0.930 . S
C4217 C4220 1.424 . S
C4217 C4222 1.245 . S
C4217 C4223 1.428 . S
C4218 C4221 1.260 . S
C4218 C4222 1.477 . S
C4218 H4236 0.932 . S
C4219 C4220 1.384 . S
C4219 C4221 1.479 . S
C4219 H4237 0.929 . S
C4220 C4217 1.424 . S
C4220 C4219 1.384 . S
C4220 H4238 0.928 . S
C4221 C4218 1.260 . S
C4221 C4219 1.479 . S
C4222 C4217 1.245 . S
C4222 C4218 1.477 . S
C4222 H4239 0.932 . S
C4223 U4206 2.882 . S
C4223 C4217 1.428 . S
C4223 O4226 1.301 . S
C4223 O4227 1.282 . S
O4224 U4206 2.441 . S
O4224 C4210 1.249 . S
O4225 U4206 2.420 . S
O4225 C4210 1.202 . S
O4226 U4206 2.455 . S
O4226 C4223 1.301 . S
O4227 U4206 2.449 . S
O4227 C4223 1.282 . S
H4228 C4201 0.931 . S
H4229 C4203 0.929 . S
H4230 C4204 0.930 . S
H4231 C4205 0.931 . S
H4232 C4212 0.932 . S
H4233 C4213 0.930 . S
H4234 C4214 0.929 . S
H4235 C4216 0.930 . S
H4236 C4218 0.932 . S
H4237 C4219 0.929 . S
H4238 C4220 0.928 . S
H4239 C4222 0.932 . S
C4240 C4241 1.264 . S
C4240 C4245 1.479 . S
C4240 C4250 1.465 . S
C4241 C4240 1.264 . S
C4241 C4243 1.339 . S
C4241 H4268 0.931 . S
C4242 C4243 1.395 . S
C4242 C4244 1.320 . S
C4243 C4241 1.339 . S
C4243 C4242 1.395 . S
C4243 H4269 0.929 . S
C4244 C4242 1.320 . S
C4244 C4245 1.405 . S
C4244 H4270 0.930 . S
C4245 C4240 1.479 . S
C4245 C4244 1.405 . S
C4245 H4271 0.931 . S
U4246 O4247 2.454 . S
U4246 O4248 2.458 . S
U4246 C4249 2.984 . S
U4246 C4250 2.847 . S
U4246 C4263 2.882 . S
U4246 O4264 2.441 . S
U4246 O4265 2.420 . S
U4246 O4266 2.455 . S
U4246 O4267 2.449 . S
O4247 U4246 2.454 . S
O4247 C4249 1.353 . S
O4248 U4246 2.458 . S
O4248 C4249 1.286 . S
C4249 U4246 2.984 . S
C4249 O4247 1.353 . S
C4249 O4248 1.286 . S
C4249 C4251 1.363 . S
C4250 C4240 1.465 . S
C4250 U4246 2.847 . S
C4250 O4264 1.249 . S
C4250 O4265 1.202 . S
C4251 C4249 1.363 . S
C4251 C4253 1.408 . S
C4251 C4256 1.342 . S
C4252 C4253 1.310 . S
C4252 C4255 1.461 . S
C4252 H4272 0.932 . S
C4253 C4251 1.408 . S
C4253 C4252 1.310 . S
C4253 H4273 0.930 . S
C4254 C4255 1.474 . S
C4254 C4256 1.285 . S
C4254 H4274 0.929 . S
C4255 C4252 1.461 . S
C4255 C4254 1.474 . S
C4256 C4251 1.342 . S
C4256 C4254 1.285 . S
C4256 H4275 0.930 . S
C4257 C4260 1.424 . S
C4257 C4262 1.245 . S
C4257 C4263 1.428 . S
C4258 C4261 1.260 . S
C4258 C4262 1.477 . S
C4258 H4276 0.932 . S
C4259 C4260 1.384 . S
C4259 C4261 1.479 . S
C4259 H4277 0.929 . S
C4260 C4257 1.424 . S
C4260 C4259 1.384 . S
C4260 H4278 0.928 . S
C4261 C4258 1.260 . S
C4261 C4259 1.479 . S
C4262 C4257 1.245 . S
C4262 C4258 1.477 . S
C4262 H4279 0.932 . S
C4263 U4246 2.882 . S
C4263 C4257 1.428 . S
C4263 O4266 1.301 . S
C4263 O4267 1.282 . S
O4264 U4246 2.441 . S
O4264 C4250 1.249 . S
O4265 U4246 2.420 . S
O4265 C4250 1.202 . S
O4266 U4246 2.455 . S
O4266 C4263 1.301 . S
O4267 U4246 2.449 . S
O4267 C4263 1.282 . S
H4268 C4241 0.931 . S
H4269 C4243 0.929 . S
H4270 C4244 0.930 . S
H4271 C4245 0.931 . S
H4272 C4252 0.932 . S
H4273 C4253 0.930 . S
H4274 C4254 0.929 . S
H4275 C4256 0.930 . S
H4276 C4258 0.932 . S
H4277 C4259 0.929 . S
H4278 C4260 0.928 . S
H4279 C4262 0.932 . S
C4280 C4281 1.264 . S
C4280 C4285 1.479 . S
C4280 C4290 1.465 . S
C4281 C4280 1.264 . S
C4281 C4283 1.339 . S
C4281 H4308 0.931 . S
C4282 C4283 1.395 . S
C4282 C4284 1.320 . S
C4283 C4281 1.339 . S
C4283 C4282 1.395 . S
C4283 H4309 0.929 . S
C4284 C4282 1.320 . S
C4284 C4285 1.405 . S
C4284 H4310 0.930 . S
C4285 C4280 1.479 . S
C4285 C4284 1.405 . S
C4285 H4311 0.931 . S
U4286 O4287 2.454 . S
U4286 O4288 2.458 . S
U4286 C4289 2.984 . S
U4286 C4290 2.847 . S
U4286 C4303 2.882 . S
U4286 O4304 2.441 . S
U4286 O4305 2.420 . S
U4286 O4306 2.455 . S
U4286 O4307 2.449 . S
O4287 U4286 2.454 . S
O4287 C4289 1.353 . S
O4288 U4286 2.458 . S
O4288 C4289 1.286 . S
C4289 U4286 2.984 . S
C4289 O4287 1.353 . S
C4289 O4288 1.286 . S
C4289 C4291 1.363 . S
C4290 C4280 1.465 . S
C4290 U4286 2.847 . S
C4290 O4304 1.249 . S
C4290 O4305 1.202 . S
C4291 C4289 1.363 . S
C4291 C4293 1.408 . S
C4291 C4296 1.342 . S
C4292 C4293 1.310 . S
C4292 C4295 1.461 . S
C4292 H4312 0.932 . S
C4293 C4291 1.408 . S
C4293 C4292 1.310 . S
C4293 H4313 0.930 . S
C4294 C4295 1.474 . S
C4294 C4296 1.285 . S
C4294 H4314 0.929 . S
C4295 C4292 1.461 . S
C4295 C4294 1.474 . S
C4296 C4291 1.342 . S
C4296 C4294 1.285 . S
C4296 H4315 0.930 . S
C4297 C4300 1.424 . S
C4297 C4302 1.245 . S
C4297 C4303 1.428 . S
C4298 C4301 1.260 . S
C4298 C4302 1.477 . S
C4298 H4316 0.932 . S
C4299 C4300 1.384 . S
C4299 C4301 1.479 . S
C4299 H4317 0.929 . S
C4300 C4297 1.424 . S
C4300 C4299 1.384 . S
C4300 H4318 0.928 . S
C4301 C4298 1.260 . S
C4301 C4299 1.479 . S
C4302 C4297 1.245 . S
C4302 C4298 1.477 . S
C4302 H4319 0.932 . S
C4303 U4286 2.882 . S
C4303 C4297 1.428 . S
C4303 O4306 1.301 . S
C4303 O4307 1.282 . S
O4304 U4286 2.441 . S
O4304 C4290 1.249 . S
O4305 U4286 2.420 . S
O4305 C4290 1.202 . S
O4306 U4286 2.455 . S
O4306 C4303 1.301 . S
O4307 U4286 2.449 . S
O4307 C4303 1.282 . S
H4308 C4281 0.931 . S
H4309 C4283 0.929 . S
H4310 C4284 0.930 . S
H4311 C4285 0.931 . S
H4312 C4292 0.932 . S
H4313 C4293 0.930 . S
H4314 C4294 0.929 . S
H4315 C4296 0.930 . S
H4316 C4298 0.932 . S
H4317 C4299 0.929 . S
H4318 C4300 0.928 . S
H4319 C4302 0.932 . S
C4320 C4321 1.264 . S
C4320 C4325 1.479 . S
C4320 C4330 1.465 . S
C4321 C4320 1.264 . S
C4321 C4323 1.339 . S
C4321 H4348 0.931 . S
C4322 C4323 1.395 . S
C4322 C4324 1.320 . S
C4323 C4321 1.339 . S
C4323 C4322 1.395 . S
C4323 H4349 0.929 . S
C4324 C4322 1.320 . S
C4324 C4325 1.405 . S
C4324 H4350 0.930 . S
C4325 C4320 1.479 . S
C4325 C4324 1.405 . S
C4325 H4351 0.931 . S
U4326 O4327 2.454 . S
U4326 O4328 2.458 . S
U4326 C4329 2.984 . S
U4326 C4330 2.847 . S
U4326 C4343 2.882 . S
U4326 O4344 2.441 . S
U4326 O4345 2.420 . S
U4326 O4346 2.455 . S
U4326 O4347 2.449 . S
O4327 U4326 2.454 . S
O4327 C4329 1.353 . S
O4328 U4326 2.458 . S
O4328 C4329 1.286 . S
C4329 U4326 2.984 . S
C4329 O4327 1.353 . S
C4329 O4328 1.286 . S
C4329 C4331 1.363 . S
C4330 C4320 1.465 . S
C4330 U4326 2.847 . S
C4330 O4344 1.249 . S
C4330 O4345 1.202 . S
C4331 C4329 1.363 . S
C4331 C4333 1.408 . S
C4331 C4336 1.342 . S
C4332 C4333 1.310 . S
C4332 C4335 1.461 . S
C4332 H4352 0.932 . S
C4333 C4331 1.408 . S
C4333 C4332 1.310 . S
C4333 H4353 0.930 . S
C4334 C4335 1.474 . S
C4334 C4336 1.285 . S
C4334 H4354 0.929 . S
C4335 C4332 1.461 . S
C4335 C4334 1.474 . S
C4336 C4331 1.342 . S
C4336 C4334 1.285 . S
C4336 H4355 0.930 . S
C4337 C4340 1.424 . S
C4337 C4342 1.245 . S
C4337 C4343 1.428 . S
C4338 C4341 1.260 . S
C4338 C4342 1.477 . S
C4338 H4356 0.932 . S
C4339 C4340 1.384 . S
C4339 C4341 1.479 . S
C4339 H4357 0.929 . S
C4340 C4337 1.424 . S
C4340 C4339 1.384 . S
C4340 H4358 0.928 . S
C4341 C4338 1.260 . S
C4341 C4339 1.479 . S
C4342 C4337 1.245 . S
C4342 C4338 1.477 . S
C4342 H4359 0.932 . S
C4343 U4326 2.882 . S
C4343 C4337 1.428 . S
C4343 O4346 1.301 . S
C4343 O4347 1.282 . S
O4344 U4326 2.441 . S
O4344 C4330 1.249 . S
O4345 U4326 2.420 . S
O4345 C4330 1.202 . S
O4346 U4326 2.455 . S
O4346 C4343 1.301 . S
O4347 U4326 2.449 . S
O4347 C4343 1.282 . S
H4348 C4321 0.931 . S
H4349 C4323 0.929 . S
H4350 C4324 0.930 . S
H4351 C4325 0.931 . S
H4352 C4332 0.932 . S
H4353 C4333 0.930 . S
H4354 C4334 0.929 . S
H4355 C4336 0.930 . S
H4356 C4338 0.932 . S
H4357 C4339 0.929 . S
H4358 C4340 0.928 . S
H4359 C4342 0.932 . S
C4360 C4361 1.264 . S
C4360 C4365 1.479 . S
C4360 C4370 1.465 . S
C4361 C4360 1.264 . S
C4361 C4363 1.339 . S
C4361 H4388 0.931 . S
C4362 C4363 1.395 . S
C4362 C4364 1.320 . S
C4363 C4361 1.339 . S
C4363 C4362 1.395 . S
C4363 H4389 0.929 . S
C4364 C4362 1.320 . S
C4364 C4365 1.405 . S
C4364 H4390 0.930 . S
C4365 C4360 1.479 . S
C4365 C4364 1.405 . S
C4365 H4391 0.931 . S
U4366 O4367 2.454 . S
U4366 O4368 2.458 . S
U4366 C4369 2.984 . S
U4366 C4370 2.847 . S
U4366 C4383 2.882 . S
U4366 O4384 2.441 . S
U4366 O4385 2.420 . S
U4366 O4386 2.455 . S
U4366 O4387 2.449 . S
O4367 U4366 2.454 . S
O4367 C4369 1.353 . S
O4368 U4366 2.458 . S
O4368 C4369 1.286 . S
C4369 U4366 2.984 . S
C4369 O4367 1.353 . S
C4369 O4368 1.286 . S
C4369 C4371 1.363 . S
C4370 C4360 1.465 . S
C4370 U4366 2.847 . S
C4370 O4384 1.249 . S
C4370 O4385 1.202 . S
C4371 C4369 1.363 . S
C4371 C4373 1.408 . S
C4371 C4376 1.342 . S
C4372 C4373 1.310 . S
C4372 C4375 1.461 . S
C4372 H4392 0.932 . S
C4373 C4371 1.408 . S
C4373 C4372 1.310 . S
C4373 H4393 0.930 . S
C4374 C4375 1.474 . S
C4374 C4376 1.285 . S
C4374 H4394 0.929 . S
C4375 C4372 1.461 . S
C4375 C4374 1.474 . S
C4376 C4371 1.342 . S
C4376 C4374 1.285 . S
C4376 H4395 0.930 . S
C4377 C4380 1.424 . S
C4377 C4382 1.245 . S
C4377 C4383 1.428 . S
C4378 C4381 1.260 . S
C4378 C4382 1.477 . S
C4378 H4396 0.932 . S
C4379 C4380 1.384 . S
C4379 C4381 1.479 . S
C4379 H4397 0.929 . S
C4380 C4377 1.424 . S
C4380 C4379 1.384 . S
C4380 H4398 0.928 . S
C4381 C4378 1.260 . S
C4381 C4379 1.479 . S
C4382 C4377 1.245 . S
C4382 C4378 1.477 . S
C4382 H4399 0.932 . S
C4383 U4366 2.882 . S
C4383 C4377 1.428 . S
C4383 O4386 1.301 . S
C4383 O4387 1.282 . S
O4384 U4366 2.441 . S
O4384 C4370 1.249 . S
O4385 U4366 2.420 . S
O4385 C4370 1.202 . S
O4386 U4366 2.455 . S
O4386 C4383 1.301 . S
O4387 U4366 2.449 . S
O4387 C4383 1.282 . S
H4388 C4361 0.931 . S
H4389 C4363 0.929 . S
H4390 C4364 0.930 . S
H4391 C4365 0.931 . S
H4392 C4372 0.932 . S
H4393 C4373 0.930 . S
H4394 C4374 0.929 . S
H4395 C4376 0.930 . S
H4396 C4378 0.932 . S
H4397 C4379 0.929 . S
H4398 C4380 0.928 . S
H4399 C4382 0.932 . S
C4400 C4401 1.264 . S
C4400 C4405 1.479 . S
C4400 C4410 1.465 . S
C4401 C4400 1.264 . S
C4401 C4403 1.339 . S
C4401 H4428 0.931 . S
C4402 C4403 1.395 . S
C4402 C4404 1.320 . S
C4403 C4401 1.339 . S
C4403 C4402 1.395 . S
C4403 H4429 0.929 . S
C4404 C4402 1.320 . S
C4404 C4405 1.405 . S
C4404 H4430 0.930 . S
C4405 C4400 1.479 . S
C4405 C4404 1.405 . S
C4405 H4431 0.931 . S
U4406 O4407 2.454 . S
U4406 O4408 2.458 . S
U4406 C4409 2.984 . S
U4406 C4410 2.847 . S
U4406 C4423 2.882 . S
U4406 O4424 2.441 . S
U4406 O4425 2.420 . S
U4406 O4426 2.455 . S
U4406 O4427 2.449 . S
O4407 U4406 2.454 . S
O4407 C4409 1.353 . S
O4408 U4406 2.458 . S
O4408 C4409 1.286 . S
C4409 U4406 2.984 . S
C4409 O4407 1.353 . S
C4409 O4408 1.286 . S
C4409 C4411 1.363 . S
C4410 C4400 1.465 . S
C4410 U4406 2.847 . S
C4410 O4424 1.249 . S
C4410 O4425 1.202 . S
C4411 C4409 1.363 . S
C4411 C4413 1.408 . S
C4411 C4416 1.342 . S
C4412 C4413 1.310 . S
C4412 C4415 1.461 . S
C4412 H4432 0.932 . S
C4413 C4411 1.408 . S
C4413 C4412 1.310 . S
C4413 H4433 0.930 . S
C4414 C4415 1.474 . S
C4414 C4416 1.285 . S
C4414 H4434 0.929 . S
C4415 C4412 1.461 . S
C4415 C4414 1.474 . S
C4416 C4411 1.342 . S
C4416 C4414 1.285 . S
C4416 H4435 0.930 . S
C4417 C4420 1.424 . S
C4417 C4422 1.245 . S
C4417 C4423 1.428 . S
C4418 C4421 1.260 . S
C4418 C4422 1.477 . S
C4418 H4436 0.932 . S
C4419 C4420 1.384 . S
C4419 C4421 1.479 . S
C4419 H4437 0.929 . S
C4420 C4417 1.424 . S
C4420 C4419 1.384 . S
C4420 H4438 0.928 . S
C4421 C4418 1.260 . S
C4421 C4419 1.479 . S
C4422 C4417 1.245 . S
C4422 C4418 1.477 . S
C4422 H4439 0.932 . S
C4423 U4406 2.882 . S
C4423 C4417 1.428 . S
C4423 O4426 1.301 . S
C4423 O4427 1.282 . S
O4424 U4406 2.441 . S
O4424 C4410 1.249 . S
O4425 U4406 2.420 . S
O4425 C4410 1.202 . S
O4426 U4406 2.455 . S
O4426 C4423 1.301 . S
O4427 U4406 2.449 . S
O4427 C4423 1.282 . S
H4428 C4401 0.931 . S
H4429 C4403 0.929 . S
H4430 C4404 0.930 . S
H4431 C4405 0.931 . S
H4432 C4412 0.932 . S
H4433 C4413 0.930 . S
H4434 C4414 0.929 . S
H4435 C4416 0.930 . S
H4436 C4418 0.932 . S
H4437 C4419 0.929 . S
H4438 C4420 0.928 . S
H4439 C4422 0.932 . S
C4440 C4441 1.264 . S
C4440 C4445 1.479 . S
C4440 C4450 1.465 . S
C4441 C4440 1.264 . S
C4441 C4443 1.339 . S
C4441 H4468 0.931 . S
C4442 C4443 1.395 . S
C4442 C4444 1.320 . S
C4443 C4441 1.339 . S
C4443 C4442 1.395 . S
C4443 H4469 0.929 . S
C4444 C4442 1.320 . S
C4444 C4445 1.405 . S
C4444 H4470 0.930 . S
C4445 C4440 1.479 . S
C4445 C4444 1.405 . S
C4445 H4471 0.931 . S
U4446 O4447 2.454 . S
U4446 O4448 2.458 . S
U4446 C4449 2.984 . S
U4446 C4450 2.847 . S
U4446 C4463 2.882 . S
U4446 O4464 2.441 . S
U4446 O4465 2.420 . S
U4446 O4466 2.455 . S
U4446 O4467 2.449 . S
O4447 U4446 2.454 . S
O4447 C4449 1.353 . S
O4448 U4446 2.458 . S
O4448 C4449 1.286 . S
C4449 U4446 2.984 . S
C4449 O4447 1.353 . S
C4449 O4448 1.286 . S
C4449 C4451 1.363 . S
C4450 C4440 1.465 . S
C4450 U4446 2.847 . S
C4450 O4464 1.249 . S
C4450 O4465 1.202 . S
C4451 C4449 1.363 . S
C4451 C4453 1.408 . S
C4451 C4456 1.342 . S
C4452 C4453 1.310 . S
C4452 C4455 1.461 . S
C4452 H4472 0.932 . S
C4453 C4451 1.408 . S
C4453 C4452 1.310 . S
C4453 H4473 0.930 . S
C4454 C4455 1.474 . S
C4454 C4456 1.285 . S
C4454 H4474 0.929 . S
C4455 C4452 1.461 . S
C4455 C4454 1.474 . S
C4456 C4451 1.342 . S
C4456 C4454 1.285 . S
C4456 H4475 0.930 . S
C4457 C4460 1.424 . S
C4457 C4462 1.245 . S
C4457 C4463 1.428 . S
C4458 C4461 1.260 . S
C4458 C4462 1.477 . S
C4458 H4476 0.932 . S
C4459 C4460 1.384 . S
C4459 C4461 1.479 . S
C4459 H4477 0.929 . S
C4460 C4457 1.424 . S
C4460 C4459 1.384 . S
C4460 H4478 0.928 . S
C4461 C4458 1.260 . S
C4461 C4459 1.479 . S
C4462 C4457 1.245 . S
C4462 C4458 1.477 . S
C4462 H4479 0.932 . S
C4463 U4446 2.882 . S
C4463 C4457 1.428 . S
C4463 O4466 1.301 . S
C4463 O4467 1.282 . S
O4464 U4446 2.441 . S
O4464 C4450 1.249 . S
O4465 U4446 2.420 . S
O4465 C4450 1.202 . S
O4466 U4446 2.455 . S
O4466 C4463 1.301 . S
O4467 U4446 2.449 . S
O4467 C4463 1.282 . S
H4468 C4441 0.931 . S
H4469 C4443 0.929 . S
H4470 C4444 0.930 . S
H4471 C4445 0.931 . S
H4472 C4452 0.932 . S
H4473 C4453 0.930 . S
H4474 C4454 0.929 . S
H4475 C4456 0.930 . S
H4476 C4458 0.932 . S
H4477 C4459 0.929 . S
H4478 C4460 0.928 . S
H4479 C4462 0.932 . S
C4480 C4481 1.264 . S
C4480 C4485 1.479 . S
C4480 C4490 1.465 . S
C4481 C4480 1.264 . S
C4481 C4483 1.339 . S
C4481 H4508 0.931 . S
C4482 C4483 1.395 . S
C4482 C4484 1.320 . S
C4483 C4481 1.339 . S
C4483 C4482 1.395 . S
C4483 H4509 0.929 . S
C4484 C4482 1.320 . S
C4484 C4485 1.405 . S
C4484 H4510 0.930 . S
C4485 C4480 1.479 . S
C4485 C4484 1.405 . S
C4485 H4511 0.931 . S
U4486 O4487 2.454 . S
U4486 O4488 2.458 . S
U4486 C4489 2.984 . S
U4486 C4490 2.847 . S
U4486 C4503 2.882 . S
U4486 O4504 2.441 . S
U4486 O4505 2.420 . S
U4486 O4506 2.455 . S
U4486 O4507 2.449 . S
O4487 U4486 2.454 . S
O4487 C4489 1.353 . S
O4488 U4486 2.458 . S
O4488 C4489 1.286 . S
C4489 U4486 2.984 . S
C4489 O4487 1.353 . S
C4489 O4488 1.286 . S
C4489 C4491 1.363 . S
C4490 C4480 1.465 . S
C4490 U4486 2.847 . S
C4490 O4504 1.249 . S
C4490 O4505 1.202 . S
C4491 C4489 1.363 . S
C4491 C4493 1.408 . S
C4491 C4496 1.342 . S
C4492 C4493 1.310 . S
C4492 C4495 1.461 . S
C4492 H4512 0.932 . S
C4493 C4491 1.408 . S
C4493 C4492 1.310 . S
C4493 H4513 0.930 . S
C4494 C4495 1.474 . S
C4494 C4496 1.285 . S
C4494 H4514 0.929 . S
C4495 C4492 1.461 . S
C4495 C4494 1.474 . S
C4496 C4491 1.342 . S
C4496 C4494 1.285 . S
C4496 H4515 0.930 . S
C4497 C4500 1.424 . S
C4497 C4502 1.245 . S
C4497 C4503 1.428 . S
C4498 C4501 1.260 . S
C4498 C4502 1.477 . S
C4498 H4516 0.932 . S
C4499 C4500 1.384 . S
C4499 C4501 1.479 . S
C4499 H4517 0.929 . S
C4500 C4497 1.424 . S
C4500 C4499 1.384 . S
C4500 H4518 0.928 . S
C4501 C4498 1.260 . S
C4501 C4499 1.479 . S
C4502 C4497 1.245 . S
C4502 C4498 1.477 . S
C4502 H4519 0.932 . S
C4503 U4486 2.882 . S
C4503 C4497 1.428 . S
C4503 O4506 1.301 . S
C4503 O4507 1.282 . S
O4504 U4486 2.441 . S
O4504 C4490 1.249 . S
O4505 U4486 2.420 . S
O4505 C4490 1.202 . S
O4506 U4486 2.455 . S
O4506 C4503 1.301 . S
O4507 U4486 2.449 . S
O4507 C4503 1.282 . S
H4508 C4481 0.931 . S
H4509 C4483 0.929 . S
H4510 C4484 0.930 . S
H4511 C4485 0.931 . S
H4512 C4492 0.932 . S
H4513 C4493 0.930 . S
H4514 C4494 0.929 . S
H4515 C4496 0.930 . S
H4516 C4498 0.932 . S
H4517 C4499 0.929 . S
H4518 C4500 0.928 . S
H4519 C4502 0.932 . S
C4520 C4521 1.264 . S
C4520 C4525 1.479 . S
C4520 C4530 1.465 . S
C4521 C4520 1.264 . S
C4521 C4523 1.339 . S
C4521 H4548 0.931 . S
C4522 C4523 1.395 . S
C4522 C4524 1.320 . S
C4523 C4521 1.339 . S
C4523 C4522 1.395 . S
C4523 H4549 0.929 . S
C4524 C4522 1.320 . S
C4524 C4525 1.405 . S
C4524 H4550 0.930 . S
C4525 C4520 1.479 . S
C4525 C4524 1.405 . S
C4525 H4551 0.931 . S
U4526 O4527 2.454 . S
U4526 O4528 2.458 . S
U4526 C4529 2.984 . S
U4526 C4530 2.847 . S
U4526 C4543 2.882 . S
U4526 O4544 2.441 . S
U4526 O4545 2.420 . S
U4526 O4546 2.455 . S
U4526 O4547 2.449 . S
O4527 U4526 2.454 . S
O4527 C4529 1.353 . S
O4528 U4526 2.458 . S
O4528 C4529 1.286 . S
C4529 U4526 2.984 . S
C4529 O4527 1.353 . S
C4529 O4528 1.286 . S
C4529 C4531 1.363 . S
C4530 C4520 1.465 . S
C4530 U4526 2.847 . S
C4530 O4544 1.249 . S
C4530 O4545 1.202 . S
C4531 C4529 1.363 . S
C4531 C4533 1.408 . S
C4531 C4536 1.342 . S
C4532 C4533 1.310 . S
C4532 C4535 1.461 . S
C4532 H4552 0.932 . S
C4533 C4531 1.408 . S
C4533 C4532 1.310 . S
C4533 H4553 0.930 . S
C4534 C4535 1.474 . S
C4534 C4536 1.285 . S
C4534 H4554 0.929 . S
C4535 C4532 1.461 . S
C4535 C4534 1.474 . S
C4536 C4531 1.342 . S
C4536 C4534 1.285 . S
C4536 H4555 0.930 . S
C4537 C4540 1.424 . S
C4537 C4542 1.245 . S
C4537 C4543 1.428 . S
C4538 C4541 1.260 . S
C4538 C4542 1.477 . S
C4538 H4556 0.932 . S
C4539 C4540 1.384 . S
C4539 C4541 1.479 . S
C4539 H4557 0.929 . S
C4540 C4537 1.424 . S
C4540 C4539 1.384 . S
C4540 H4558 0.928 . S
C4541 C4538 1.260 . S
C4541 C4539 1.479 . S
C4542 C4537 1.245 . S
C4542 C4538 1.477 . S
C4542 H4559 0.932 . S
C4543 U4526 2.882 . S
C4543 C4537 1.428 . S
C4543 O4546 1.301 . S
C4543 O4547 1.282 . S
O4544 U4526 2.441 . S
O4544 C4530 1.249 . S
O4545 U4526 2.420 . S
O4545 C4530 1.202 . S
O4546 U4526 2.455 . S
O4546 C4543 1.301 . S
O4547 U4526 2.449 . S
O4547 C4543 1.282 . S
H4548 C4521 0.931 . S
H4549 C4523 0.929 . S
H4550 C4524 0.930 . S
H4551 C4525 0.931 . S
H4552 C4532 0.932 . S
H4553 C4533 0.930 . S
H4554 C4534 0.929 . S
H4555 C4536 0.930 . S
H4556 C4538 0.932 . S
H4557 C4539 0.929 . S
H4558 C4540 0.928 . S
H4559 C4542 0.932 . S
C4560 C4561 1.264 . S
C4560 C4565 1.479 . S
C4560 C4570 1.465 . S
C4561 C4560 1.264 . S
C4561 C4563 1.339 . S
C4561 H4588 0.931 . S
C4562 C4563 1.395 . S
C4562 C4564 1.320 . S
C4563 C4561 1.339 . S
C4563 C4562 1.395 . S
C4563 H4589 0.929 . S
C4564 C4562 1.320 . S
C4564 C4565 1.405 . S
C4564 H4590 0.930 . S
C4565 C4560 1.479 . S
C4565 C4564 1.405 . S
C4565 H4591 0.931 . S
U4566 O4567 2.454 . S
U4566 O4568 2.458 . S
U4566 C4569 2.984 . S
U4566 C4570 2.847 . S
U4566 C4583 2.882 . S
U4566 O4584 2.441 . S
U4566 O4585 2.420 . S
U4566 O4586 2.455 . S
U4566 O4587 2.449 . S
O4567 U4566 2.454 . S
O4567 C4569 1.353 . S
O4568 U4566 2.458 . S
O4568 C4569 1.286 . S
C4569 U4566 2.984 . S
C4569 O4567 1.353 . S
C4569 O4568 1.286 . S
C4569 C4571 1.363 . S
C4570 C4560 1.465 . S
C4570 U4566 2.847 . S
C4570 O4584 1.249 . S
C4570 O4585 1.202 . S
C4571 C4569 1.363 . S
C4571 C4573 1.408 . S
C4571 C4576 1.342 . S
C4572 C4573 1.310 . S
C4572 C4575 1.461 . S
C4572 H4592 0.932 . S
C4573 C4571 1.408 . S
C4573 C4572 1.310 . S
C4573 H4593 0.930 . S
C4574 C4575 1.474 . S
C4574 C4576 1.285 . S
C4574 H4594 0.929 . S
C4575 C4572 1.461 . S
C4575 C4574 1.474 . S
C4576 C4571 1.342 . S
C4576 C4574 1.285 . S
C4576 H4595 0.930 . S
C4577 C4580 1.424 . S
C4577 C4582 1.245 . S
C4577 C4583 1.428 . S
C4578 C4581 1.260 . S
C4578 C4582 1.477 . S
C4578 H4596 0.932 . S
C4579 C4580 1.384 . S
C4579 C4581 1.479 . S
C4579 H4597 0.929 . S
C4580 C4577 1.424 . S
C4580 C4579 1.384 . S
C4580 H4598 0.928 . S
C4581 C4578 1.260 . S
C4581 C4579 1.479 . S
C4582 C4577 1.245 . S
C4582 C4578 1.477 . S
C4582 H4599 0.932 . S
C4583 U4566 2.882 . S
C4583 C4577 1.428 . S
C4583 O4586 1.301 . S
C4583 O4587 1.282 . S
O4584 U4566 2.441 . S
O4584 C4570 1.249 . S
O4585 U4566 2.420 . S
O4585 C4570 1.202 . S
O4586 U4566 2.455 . S
O4586 C4583 1.301 . S
O4587 U4566 2.449 . S
O4587 C4583 1.282 . S
H4588 C4561 0.931 . S
H4589 C4563 0.929 . S
H4590 C4564 0.930 . S
H4591 C4565 0.931 . S
H4592 C4572 0.932 . S
H4593 C4573 0.930 . S
H4594 C4574 0.929 . S
H4595 C4576 0.930 . S
H4596 C4578 0.932 . S
H4597 C4579 0.929 . S
H4598 C4580 0.928 . S
H4599 C4582 0.932 . S
C4600 C4601 1.264 . S
C4600 C4605 1.479 . S
C4600 C4610 1.465 . S
C4601 C4600 1.264 . S
C4601 C4603 1.339 . S
C4601 H4628 0.931 . S
C4602 C4603 1.395 . S
C4602 C4604 1.320 . S
C4603 C4601 1.339 . S
C4603 C4602 1.395 . S
C4603 H4629 0.929 . S
C4604 C4602 1.320 . S
C4604 C4605 1.405 . S
C4604 H4630 0.930 . S
C4605 C4600 1.479 . S
C4605 C4604 1.405 . S
C4605 H4631 0.931 . S
U4606 O4607 2.454 . S
U4606 O4608 2.458 . S
U4606 C4609 2.984 . S
U4606 C4610 2.847 . S
U4606 C4623 2.882 . S
U4606 O4624 2.441 . S
U4606 O4625 2.420 . S
U4606 O4626 2.455 . S
U4606 O4627 2.449 . S
O4607 U4606 2.454 . S
O4607 C4609 1.353 . S
O4608 U4606 2.458 . S
O4608 C4609 1.286 . S
C4609 U4606 2.984 . S
C4609 O4607 1.353 . S
C4609 O4608 1.286 . S
C4609 C4611 1.363 . S
C4610 C4600 1.465 . S
C4610 U4606 2.847 . S
C4610 O4624 1.249 . S
C4610 O4625 1.202 . S
C4611 C4609 1.363 . S
C4611 C4613 1.408 . S
C4611 C4616 1.342 . S
C4612 C4613 1.310 . S
C4612 C4615 1.461 . S
C4612 H4632 0.932 . S
C4613 C4611 1.408 . S
C4613 C4612 1.310 . S
C4613 H4633 0.930 . S
C4614 C4615 1.474 . S
C4614 C4616 1.285 . S
C4614 H4634 0.929 . S
C4615 C4612 1.461 . S
C4615 C4614 1.474 . S
C4616 C4611 1.342 . S
C4616 C4614 1.285 . S
C4616 H4635 0.930 . S
C4617 C4620 1.424 . S
C4617 C4622 1.245 . S
C4617 C4623 1.428 . S
C4618 C4621 1.260 . S
C4618 C4622 1.477 . S
C4618 H4636 0.932 . S
C4619 C4620 1.384 . S
C4619 C4621 1.479 . S
C4619 H4637 0.929 . S
C4620 C4617 1.424 . S
C4620 C4619 1.384 . S
C4620 H4638 0.928 . S
C4621 C4618 1.260 . S
C4621 C4619 1.479 . S
C4622 C4617 1.245 . S
C4622 C4618 1.477 . S
C4622 H4639 0.932 . S
C4623 U4606 2.882 . S
C4623 C4617 1.428 . S
C4623 O4626 1.301 . S
C4623 O4627 1.282 . S
O4624 U4606 2.441 . S
O4624 C4610 1.249 . S
O4625 U4606 2.420 . S
O4625 C4610 1.202 . S
O4626 U4606 2.455 . S
O4626 C4623 1.301 . S
O4627 U4606 2.449 . S
O4627 C4623 1.282 . S
H4628 C4601 0.931 . S
H4629 C4603 0.929 . S
H4630 C4604 0.930 . S
H4631 C4605 0.931 . S
H4632 C4612 0.932 . S
H4633 C4613 0.930 . S
H4634 C4614 0.929 . S
H4635 C4616 0.930 . S
H4636 C4618 0.932 . S
H4637 C4619 0.929 . S
H4638 C4620 0.928 . S
H4639 C4622 0.932 . S
C4640 C4641 1.264 . S
C4640 C4645 1.479 . S
C4640 C4650 1.465 . S
C4641 C4640 1.264 . S
C4641 C4643 1.339 . S
C4641 H4668 0.931 . S
C4642 C4643 1.395 . S
C4642 C4644 1.320 . S
C4643 C4641 1.339 . S
C4643 C4642 1.395 . S
C4643 H4669 0.929 . S
C4644 C4642 1.320 . S
C4644 C4645 1.405 . S
C4644 H4670 0.930 . S
C4645 C4640 1.479 . S
C4645 C4644 1.405 . S
C4645 H4671 0.931 . S
U4646 O4647 2.454 . S
U4646 O4648 2.458 . S
U4646 C4649 2.984 . S
U4646 C4650 2.847 . S
U4646 C4663 2.882 . S
U4646 O4664 2.441 . S
U4646 O4665 2.420 . S
U4646 O4666 2.455 . S
U4646 O4667 2.449 . S
O4647 U4646 2.454 . S
O4647 C4649 1.353 . S
O4648 U4646 2.458 . S
O4648 C4649 1.286 . S
C4649 U4646 2.984 . S
C4649 O4647 1.353 . S
C4649 O4648 1.286 . S
C4649 C4651 1.363 . S
C4650 C4640 1.465 . S
C4650 U4646 2.847 . S
C4650 O4664 1.249 . S
C4650 O4665 1.202 . S
C4651 C4649 1.363 . S
C4651 C4653 1.408 . S
C4651 C4656 1.342 . S
C4652 C4653 1.310 . S
C4652 C4655 1.461 . S
C4652 H4672 0.932 . S
C4653 C4651 1.408 . S
C4653 C4652 1.310 . S
C4653 H4673 0.930 . S
C4654 C4655 1.474 . S
C4654 C4656 1.285 . S
C4654 H4674 0.929 . S
C4655 C4652 1.461 . S
C4655 C4654 1.474 . S
C4656 C4651 1.342 . S
C4656 C4654 1.285 . S
C4656 H4675 0.930 . S
C4657 C4660 1.424 . S
C4657 C4662 1.245 . S
C4657 C4663 1.428 . S
C4658 C4661 1.260 . S
C4658 C4662 1.477 . S
C4658 H4676 0.932 . S
C4659 C4660 1.384 . S
C4659 C4661 1.479 . S
C4659 H4677 0.929 . S
C4660 C4657 1.424 . S
C4660 C4659 1.384 . S
C4660 H4678 0.928 . S
C4661 C4658 1.260 . S
C4661 C4659 1.479 . S
C4662 C4657 1.245 . S
C4662 C4658 1.477 . S
C4662 H4679 0.932 . S
C4663 U4646 2.882 . S
C4663 C4657 1.428 . S
C4663 O4666 1.301 . S
C4663 O4667 1.282 . S
O4664 U4646 2.441 . S
O4664 C4650 1.249 . S
O4665 U4646 2.420 . S
O4665 C4650 1.202 . S
O4666 U4646 2.455 . S
O4666 C4663 1.301 . S
O4667 U4646 2.449 . S
O4667 C4663 1.282 . S
H4668 C4641 0.931 . S
H4669 C4643 0.929 . S
H4670 C4644 0.930 . S
H4671 C4645 0.931 . S
H4672 C4652 0.932 . S
H4673 C4653 0.930 . S
H4674 C4654 0.929 . S
H4675 C4656 0.930 . S
H4676 C4658 0.932 . S
H4677 C4659 0.929 . S
H4678 C4660 0.928 . S
H4679 C4662 0.932 . S
C4680 C4681 1.264 . S
C4680 C4685 1.479 . S
C4680 C4690 1.465 . S
C4681 C4680 1.264 . S
C4681 C4683 1.339 . S
C4681 H4708 0.931 . S
C4682 C4683 1.395 . S
C4682 C4684 1.320 . S
C4683 C4681 1.339 . S
C4683 C4682 1.395 . S
C4683 H4709 0.929 . S
C4684 C4682 1.320 . S
C4684 C4685 1.405 . S
C4684 H4710 0.930 . S
C4685 C4680 1.479 . S
C4685 C4684 1.405 . S
C4685 H4711 0.931 . S
U4686 O4687 2.454 . S
U4686 O4688 2.458 . S
U4686 C4689 2.984 . S
U4686 C4690 2.847 . S
U4686 C4703 2.882 . S
U4686 O4704 2.441 . S
U4686 O4705 2.420 . S
U4686 O4706 2.455 . S
U4686 O4707 2.449 . S
O4687 U4686 2.454 . S
O4687 C4689 1.353 . S
O4688 U4686 2.458 . S
O4688 C4689 1.286 . S
C4689 U4686 2.984 . S
C4689 O4687 1.353 . S
C4689 O4688 1.286 . S
C4689 C4691 1.363 . S
C4690 C4680 1.465 . S
C4690 U4686 2.847 . S
C4690 O4704 1.249 . S
C4690 O4705 1.202 . S
C4691 C4689 1.363 . S
C4691 C4693 1.408 . S
C4691 C4696 1.342 . S
C4692 C4693 1.310 . S
C4692 C4695 1.461 . S
C4692 H4712 0.932 . S
C4693 C4691 1.408 . S
C4693 C4692 1.310 . S
C4693 H4713 0.930 . S
C4694 C4695 1.474 . S
C4694 C4696 1.285 . S
C4694 H4714 0.929 . S
C4695 C4692 1.461 . S
C4695 C4694 1.474 . S
C4696 C4691 1.342 . S
C4696 C4694 1.285 . S
C4696 H4715 0.930 . S
C4697 C4700 1.424 . S
C4697 C4702 1.245 . S
C4697 C4703 1.428 . S
C4698 C4701 1.260 . S
C4698 C4702 1.477 . S
C4698 H4716 0.932 . S
C4699 C4700 1.384 . S
C4699 C4701 1.479 . S
C4699 H4717 0.929 . S
C4700 C4697 1.424 . S
C4700 C4699 1.384 . S
C4700 H4718 0.928 . S
C4701 C4698 1.260 . S
C4701 C4699 1.479 . S
C4702 C4697 1.245 . S
C4702 C4698 1.477 . S
C4702 H4719 0.932 . S
C4703 U4686 2.882 . S
C4703 C4697 1.428 . S
C4703 O4706 1.301 . S
C4703 O4707 1.282 . S
O4704 U4686 2.441 . S
O4704 C4690 1.249 . S
O4705 U4686 2.420 . S
O4705 C4690 1.202 . S
O4706 U4686 2.455 . S
O4706 C4703 1.301 . S
O4707 U4686 2.449 . S
O4707 C4703 1.282 . S
H4708 C4681 0.931 . S
H4709 C4683 0.929 . S
H4710 C4684 0.930 . S
H4711 C4685 0.931 . S
H4712 C4692 0.932 . S
H4713 C4693 0.930 . S
H4714 C4694 0.929 . S
H4715 C4696 0.930 . S
H4716 C4698 0.932 . S
H4717 C4699 0.929 . S
H4718 C4700 0.928 . S
H4719 C4702 0.932 . S
C4720 C4721 1.264 . S
C4720 C4725 1.479 . S
C4720 C4730 1.465 . S
C4721 C4720 1.264 . S
C4721 C4723 1.339 . S
C4721 H4748 0.931 . S
C4722 C4723 1.395 . S
C4722 C4724 1.320 . S
C4723 C4721 1.339 . S
C4723 C4722 1.395 . S
C4723 H4749 0.929 . S
C4724 C4722 1.320 . S
C4724 C4725 1.405 . S
C4724 H4750 0.930 . S
C4725 C4720 1.479 . S
C4725 C4724 1.405 . S
C4725 H4751 0.931 . S
U4726 O4727 2.454 . S
U4726 O4728 2.458 . S
U4726 C4729 2.984 . S
U4726 C4730 2.847 . S
U4726 C4743 2.882 . S
U4726 O4744 2.441 . S
U4726 O4745 2.420 . S
U4726 O4746 2.455 . S
U4726 O4747 2.449 . S
O4727 U4726 2.454 . S
O4727 C4729 1.353 . S
O4728 U4726 2.458 . S
O4728 C4729 1.286 . S
C4729 U4726 2.984 . S
C4729 O4727 1.353 . S
C4729 O4728 1.286 . S
C4729 C4731 1.363 . S
C4730 C4720 1.465 . S
C4730 U4726 2.847 . S
C4730 O4744 1.249 . S
C4730 O4745 1.202 . S
C4731 C4729 1.363 . S
C4731 C4733 1.408 . S
C4731 C4736 1.342 . S
C4732 C4733 1.310 . S
C4732 C4735 1.461 . S
C4732 H4752 0.932 . S
C4733 C4731 1.408 . S
C4733 C4732 1.310 . S
C4733 H4753 0.930 . S
C4734 C4735 1.474 . S
C4734 C4736 1.285 . S
C4734 H4754 0.929 . S
C4735 C4732 1.461 . S
C4735 C4734 1.474 . S
C4736 C4731 1.342 . S
C4736 C4734 1.285 . S
C4736 H4755 0.930 . S
C4737 C4740 1.424 . S
C4737 C4742 1.245 . S
C4737 C4743 1.428 . S
C4738 C4741 1.260 . S
C4738 C4742 1.477 . S
C4738 H4756 0.932 . S
C4739 C4740 1.384 . S
C4739 C4741 1.479 . S
C4739 H4757 0.929 . S
C4740 C4737 1.424 . S
C4740 C4739 1.384 . S
C4740 H4758 0.928 . S
C4741 C4738 1.260 . S
C4741 C4739 1.479 . S
C4742 C4737 1.245 . S
C4742 C4738 1.477 . S
C4742 H4759 0.932 . S
C4743 U4726 2.882 . S
C4743 C4737 1.428 . S
C4743 O4746 1.301 . S
C4743 O4747 1.282 . S
O4744 U4726 2.441 . S
O4744 C4730 1.249 . S
O4745 U4726 2.420 . S
O4745 C4730 1.202 . S
O4746 U4726 2.455 . S
O4746 C4743 1.301 . S
O4747 U4726 2.449 . S
O4747 C4743 1.282 . S
H4748 C4721 0.931 . S
H4749 C4723 0.929 . S
H4750 C4724 0.930 . S
H4751 C4725 0.931 . S
H4752 C4732 0.932 . S
H4753 C4733 0.930 . S
H4754 C4734 0.929 . S
H4755 C4736 0.930 . S
H4756 C4738 0.932 . S
H4757 C4739 0.929 . S
H4758 C4740 0.928 . S
H4759 C4742 0.932 . S
C4760 C4761 1.264 . S
C4760 C4765 1.479 . S
C4760 C4770 1.465 . S
C4761 C4760 1.264 . S
C4761 C4763 1.339 . S
C4761 H4788 0.931 . S
C4762 C4763 1.395 . S
C4762 C4764 1.320 . S
C4763 C4761 1.339 . S
C4763 C4762 1.395 . S
C4763 H4789 0.929 . S
C4764 C4762 1.320 . S
C4764 C4765 1.405 . S
C4764 H4790 0.930 . S
C4765 C4760 1.479 . S
C4765 C4764 1.405 . S
C4765 H4791 0.931 . S
U4766 O4767 2.454 . S
U4766 O4768 2.458 . S
U4766 C4769 2.984 . S
U4766 C4770 2.847 . S
U4766 C4783 2.882 . S
U4766 O4784 2.441 . S
U4766 O4785 2.420 . S
U4766 O4786 2.455 . S
U4766 O4787 2.449 . S
O4767 U4766 2.454 . S
O4767 C4769 1.353 . S
O4768 U4766 2.458 . S
O4768 C4769 1.286 . S
C4769 U4766 2.984 . S
C4769 O4767 1.353 . S
C4769 O4768 1.286 . S
C4769 C4771 1.363 . S
C4770 C4760 1.465 . S
C4770 U4766 2.847 . S
C4770 O4784 1.249 . S
C4770 O4785 1.202 . S
C4771 C4769 1.363 . S
C4771 C4773 1.408 . S
C4771 C4776 1.342 . S
C4772 C4773 1.310 . S
C4772 C4775 1.461 . S
C4772 H4792 0.932 . S
C4773 C4771 1.408 . S
C4773 C4772 1.310 . S
C4773 H4793 0.930 . S
C4774 C4775 1.474 . S
C4774 C4776 1.285 . S
C4774 H4794 0.929 . S
C4775 C4772 1.461 . S
C4775 C4774 1.474 . S
C4776 C4771 1.342 . S
C4776 C4774 1.285 . S
C4776 H4795 0.930 . S
C4777 C4780 1.424 . S
C4777 C4782 1.245 . S
C4777 C4783 1.428 . S
C4778 C4781 1.260 . S
C4778 C4782 1.477 . S
C4778 H4796 0.932 . S
C4779 C4780 1.384 . S
C4779 C4781 1.479 . S
C4779 H4797 0.929 . S
C4780 C4777 1.424 . S
C4780 C4779 1.384 . S
C4780 H4798 0.928 . S
C4781 C4778 1.260 . S
C4781 C4779 1.479 . S
C4782 C4777 1.245 . S
C4782 C4778 1.477 . S
C4782 H4799 0.932 . S
C4783 U4766 2.882 . S
C4783 C4777 1.428 . S
C4783 O4786 1.301 . S
C4783 O4787 1.282 . S
O4784 U4766 2.441 . S
O4784 C4770 1.249 . S
O4785 U4766 2.420 . S
O4785 C4770 1.202 . S
O4786 U4766 2.455 . S
O4786 C4783 1.301 . S
O4787 U4766 2.449 . S
O4787 C4783 1.282 . S
H4788 C4761 0.931 . S
H4789 C4763 0.929 . S
H4790 C4764 0.930 . S
H4791 C4765 0.931 . S
H4792 C4772 0.932 . S
H4793 C4773 0.930 . S
H4794 C4774 0.929 . S
H4795 C4776 0.930 . S
H4796 C4778 0.932 . S
H4797 C4779 0.929 . S
H4798 C4780 0.928 . S
H4799 C4782 0.932 . S
C4800 C4801 1.264 . S
C4800 C4805 1.479 . S
C4800 C4810 1.465 . S
C4801 C4800 1.264 . S
C4801 C4803 1.339 . S
C4801 H4828 0.931 . S
C4802 C4803 1.395 . S
C4802 C4804 1.320 . S
C4803 C4801 1.339 . S
C4803 C4802 1.395 . S
C4803 H4829 0.929 . S
C4804 C4802 1.320 . S
C4804 C4805 1.405 . S
C4804 H4830 0.930 . S
C4805 C4800 1.479 . S
C4805 C4804 1.405 . S
C4805 H4831 0.931 . S
U4806 O4807 2.454 . S
U4806 O4808 2.458 . S
U4806 C4809 2.984 . S
U4806 C4810 2.847 . S
U4806 C4823 2.882 . S
U4806 O4824 2.441 . S
U4806 O4825 2.420 . S
U4806 O4826 2.455 . S
U4806 O4827 2.449 . S
O4807 U4806 2.454 . S
O4807 C4809 1.353 . S
O4808 U4806 2.458 . S
O4808 C4809 1.286 . S
C4809 U4806 2.984 . S
C4809 O4807 1.353 . S
C4809 O4808 1.286 . S
C4809 C4811 1.363 . S
C4810 C4800 1.465 . S
C4810 U4806 2.847 . S
C4810 O4824 1.249 . S
C4810 O4825 1.202 . S
C4811 C4809 1.363 . S
C4811 C4813 1.408 . S
C4811 C4816 1.342 . S
C4812 C4813 1.310 . S
C4812 C4815 1.461 . S
C4812 H4832 0.932 . S
C4813 C4811 1.408 . S
C4813 C4812 1.310 . S
C4813 H4833 0.930 . S
C4814 C4815 1.474 . S
C4814 C4816 1.285 . S
C4814 H4834 0.929 . S
C4815 C4812 1.461 . S
C4815 C4814 1.474 . S
C4816 C4811 1.342 . S
C4816 C4814 1.285 . S
C4816 H4835 0.930 . S
C4817 C4820 1.424 . S
C4817 C4822 1.245 . S
C4817 C4823 1.428 . S
C4818 C4821 1.260 . S
C4818 C4822 1.477 . S
C4818 H4836 0.932 . S
C4819 C4820 1.384 . S
C4819 C4821 1.479 . S
C4819 H4837 0.929 . S
C4820 C4817 1.424 . S
C4820 C4819 1.384 . S
C4820 H4838 0.928 . S
C4821 C4818 1.260 . S
C4821 C4819 1.479 . S
C4822 C4817 1.245 . S
C4822 C4818 1.477 . S
C4822 H4839 0.932 . S
C4823 U4806 2.882 . S
C4823 C4817 1.428 . S
C4823 O4826 1.301 . S
C4823 O4827 1.282 . S
O4824 U4806 2.441 . S
O4824 C4810 1.249 . S
O4825 U4806 2.420 . S
O4825 C4810 1.202 . S
O4826 U4806 2.455 . S
O4826 C4823 1.301 . S
O4827 U4806 2.449 . S
O4827 C4823 1.282 . S
H4828 C4801 0.931 . S
H4829 C4803 0.929 . S
H4830 C4804 0.930 . S
H4831 C4805 0.931 . S
H4832 C4812 0.932 . S
H4833 C4813 0.930 . S
H4834 C4814 0.929 . S
H4835 C4816 0.930 . S
H4836 C4818 0.932 . S
H4837 C4819 0.929 . S
H4838 C4820 0.928 . S
H4839 C4822 0.932 . S
C4840 C4841 1.264 . S
C4840 C4845 1.479 . S
C4840 C4850 1.465 . S
C4841 C4840 1.264 . S
C4841 C4843 1.339 . S
C4841 H4868 0.931 . S
C4842 C4843 1.395 . S
C4842 C4844 1.320 . S
C4843 C4841 1.339 . S
C4843 C4842 1.395 . S
C4843 H4869 0.929 . S
C4844 C4842 1.320 . S
C4844 C4845 1.405 . S
C4844 H4870 0.930 . S
C4845 C4840 1.479 . S
C4845 C4844 1.405 . S
C4845 H4871 0.931 . S
U4846 O4847 2.454 . S
U4846 O4848 2.458 . S
U4846 C4849 2.984 . S
U4846 C4850 2.847 . S
U4846 C4863 2.882 . S
U4846 O4864 2.441 . S
U4846 O4865 2.420 . S
U4846 O4866 2.455 . S
U4846 O4867 2.449 . S
O4847 U4846 2.454 . S
O4847 C4849 1.353 . S
O4848 U4846 2.458 . S
O4848 C4849 1.286 . S
C4849 U4846 2.984 . S
C4849 O4847 1.353 . S
C4849 O4848 1.286 . S
C4849 C4851 1.363 . S
C4850 C4840 1.465 . S
C4850 U4846 2.847 . S
C4850 O4864 1.249 . S
C4850 O4865 1.202 . S
C4851 C4849 1.363 . S
C4851 C4853 1.408 . S
C4851 C4856 1.342 . S
C4852 C4853 1.310 . S
C4852 C4855 1.461 . S
C4852 H4872 0.932 . S
C4853 C4851 1.408 . S
C4853 C4852 1.310 . S
C4853 H4873 0.930 . S
C4854 C4855 1.474 . S
C4854 C4856 1.285 . S
C4854 H4874 0.929 . S
C4855 C4852 1.461 . S
C4855 C4854 1.474 . S
C4856 C4851 1.342 . S
C4856 C4854 1.285 . S
C4856 H4875 0.930 . S
C4857 C4860 1.424 . S
C4857 C4862 1.245 . S
C4857 C4863 1.428 . S
C4858 C4861 1.260 . S
C4858 C4862 1.477 . S
C4858 H4876 0.932 . S
C4859 C4860 1.384 . S
C4859 C4861 1.479 . S
C4859 H4877 0.929 . S
C4860 C4857 1.424 . S
C4860 C4859 1.384 . S
C4860 H4878 0.928 . S
C4861 C4858 1.260 . S
C4861 C4859 1.479 . S
C4862 C4857 1.245 . S
C4862 C4858 1.477 . S
C4862 H4879 0.932 . S
C4863 U4846 2.882 . S
C4863 C4857 1.428 . S
C4863 O4866 1.301 . S
C4863 O4867 1.282 . S
O4864 U4846 2.441 . S
O4864 C4850 1.249 . S
O4865 U4846 2.420 . S
O4865 C4850 1.202 . S
O4866 U4846 2.455 . S
O4866 C4863 1.301 . S
O4867 U4846 2.449 . S
O4867 C4863 1.282 . S
H4868 C4841 0.931 . S
H4869 C4843 0.929 . S
H4870 C4844 0.930 . S
H4871 C4845 0.931 . S
H4872 C4852 0.932 . S
H4873 C4853 0.930 . S
H4874 C4854 0.929 . S
H4875 C4856 0.930 . S
H4876 C4858 0.932 . S
H4877 C4859 0.929 . S
H4878 C4860 0.928 . S
H4879 C4862 0.932 . S
C4880 C4881 1.264 . S
C4880 C4885 1.479 . S
C4880 C4890 1.465 . S
C4881 C4880 1.264 . S
C4881 C4883 1.339 . S
C4881 H4908 0.931 . S
C4882 C4883 1.395 . S
C4882 C4884 1.320 . S
C4883 C4881 1.339 . S
C4883 C4882 1.395 . S
C4883 H4909 0.929 . S
C4884 C4882 1.320 . S
C4884 C4885 1.405 . S
C4884 H4910 0.930 . S
C4885 C4880 1.479 . S
C4885 C4884 1.405 . S
C4885 H4911 0.931 . S
U4886 O4887 2.454 . S
U4886 O4888 2.458 . S
U4886 C4889 2.984 . S
U4886 C4890 2.847 . S
U4886 C4903 2.882 . S
U4886 O4904 2.441 . S
U4886 O4905 2.420 . S
U4886 O4906 2.455 . S
U4886 O4907 2.449 . S
O4887 U4886 2.454 . S
O4887 C4889 1.353 . S
O4888 U4886 2.458 . S
O4888 C4889 1.286 . S
C4889 U4886 2.984 . S
C4889 O4887 1.353 . S
C4889 O4888 1.286 . S
C4889 C4891 1.363 . S
C4890 C4880 1.465 . S
C4890 U4886 2.847 . S
C4890 O4904 1.249 . S
C4890 O4905 1.202 . S
C4891 C4889 1.363 . S
C4891 C4893 1.408 . S
C4891 C4896 1.342 . S
C4892 C4893 1.310 . S
C4892 C4895 1.461 . S
C4892 H4912 0.932 . S
C4893 C4891 1.408 . S
C4893 C4892 1.310 . S
C4893 H4913 0.930 . S
C4894 C4895 1.474 . S
C4894 C4896 1.285 . S
C4894 H4914 0.929 . S
C4895 C4892 1.461 . S
C4895 C4894 1.474 . S
C4896 C4891 1.342 . S
C4896 C4894 1.285 . S
C4896 H4915 0.930 . S
C4897 C4900 1.424 . S
C4897 C4902 1.245 . S
C4897 C4903 1.428 . S
C4898 C4901 1.260 . S
C4898 C4902 1.477 . S
C4898 H4916 0.932 . S
C4899 C4900 1.384 . S
C4899 C4901 1.479 . S
C4899 H4917 0.929 . S
C4900 C4897 1.424 . S
C4900 C4899 1.384 . S
C4900 H4918 0.928 . S
C4901 C4898 1.260 . S
C4901 C4899 1.479 . S
C4902 C4897 1.245 . S
C4902 C4898 1.477 . S
C4902 H4919 0.932 . S
C4903 U4886 2.882 . S
C4903 C4897 1.428 . S
C4903 O4906 1.301 . S
C4903 O4907 1.282 . S
O4904 U4886 2.441 . S
O4904 C4890 1.249 . S
O4905 U4886 2.420 . S
O4905 C4890 1.202 . S
O4906 U4886 2.455 . S
O4906 C4903 1.301 . S
O4907 U4886 2.449 . S
O4907 C4903 1.282 . S
H4908 C4881 0.931 . S
H4909 C4883 0.929 . S
H4910 C4884 0.930 . S
H4911 C4885 0.931 . S
H4912 C4892 0.932 . S
H4913 C4893 0.930 . S
H4914 C4894 0.929 . S
H4915 C4896 0.930 . S
H4916 C4898 0.932 . S
H4917 C4899 0.929 . S
H4918 C4900 0.928 . S
H4919 C4902 0.932 . S
C4920 C4921 1.264 . S
C4920 C4925 1.479 . S
C4920 C4930 1.465 . S
C4921 C4920 1.264 . S
C4921 C4923 1.339 . S
C4921 H4948 0.931 . S
C4922 C4923 1.395 . S
C4922 C4924 1.320 . S
C4923 C4921 1.339 . S
C4923 C4922 1.395 . S
C4923 H4949 0.929 . S
C4924 C4922 1.320 . S
C4924 C4925 1.405 . S
C4924 H4950 0.930 . S
C4925 C4920 1.479 . S
C4925 C4924 1.405 . S
C4925 H4951 0.931 . S
U4926 O4927 2.454 . S
U4926 O4928 2.458 . S
U4926 C4929 2.984 . S
U4926 C4930 2.847 . S
U4926 C4943 2.882 . S
U4926 O4944 2.441 . S
U4926 O4945 2.420 . S
U4926 O4946 2.455 . S
U4926 O4947 2.449 . S
O4927 U4926 2.454 . S
O4927 C4929 1.353 . S
O4928 U4926 2.458 . S
O4928 C4929 1.286 . S
C4929 U4926 2.984 . S
C4929 O4927 1.353 . S
C4929 O4928 1.286 . S
C4929 C4931 1.363 . S
C4930 C4920 1.465 . S
C4930 U4926 2.847 . S
C4930 O4944 1.249 . S
C4930 O4945 1.202 . S
C4931 C4929 1.363 . S
C4931 C4933 1.408 . S
C4931 C4936 1.342 . S
C4932 C4933 1.310 . S
C4932 C4935 1.461 . S
C4932 H4952 0.932 . S
C4933 C4931 1.408 . S
C4933 C4932 1.310 . S
C4933 H4953 0.930 . S
C4934 C4935 1.474 . S
C4934 C4936 1.285 . S
C4934 H4954 0.929 . S
C4935 C4932 1.461 . S
C4935 C4934 1.474 . S
C4936 C4931 1.342 . S
C4936 C4934 1.285 . S
C4936 H4955 0.930 . S
C4937 C4940 1.424 . S
C4937 C4942 1.245 . S
C4937 C4943 1.428 . S
C4938 C4941 1.260 . S
C4938 C4942 1.477 . S
C4938 H4956 0.932 . S
C4939 C4940 1.384 . S
C4939 C4941 1.479 . S
C4939 H4957 0.929 . S
C4940 C4937 1.424 . S
C4940 C4939 1.384 . S
C4940 H4958 0.928 . S
C4941 C4938 1.260 . S
C4941 C4939 1.479 . S
C4942 C4937 1.245 . S
C4942 C4938 1.477 . S
C4942 H4959 0.932 . S
C4943 U4926 2.882 . S
C4943 C4937 1.428 . S
C4943 O4946 1.301 . S
C4943 O4947 1.282 . S
O4944 U4926 2.441 . S
O4944 C4930 1.249 . S
O4945 U4926 2.420 . S
O4945 C4930 1.202 . S
O4946 U4926 2.455 . S
O4946 C4943 1.301 . S
O4947 U4926 2.449 . S
O4947 C4943 1.282 . S
H4948 C4921 0.931 . S
H4949 C4923 0.929 . S
H4950 C4924 0.930 . S
H4951 C4925 0.931 . S
H4952 C4932 0.932 . S
H4953 C4933 0.930 . S
H4954 C4934 0.929 . S
H4955 C4936 0.930 . S
H4956 C4938 0.932 . S
H4957 C4939 0.929 . S
H4958 C4940 0.928 . S
H4959 C4942 0.932 . S
C4960 C4961 1.264 . S
C4960 C4965 1.479 . S
C4960 C4970 1.465 . S
C4961 C4960 1.264 . S
C4961 C4963 1.339 . S
C4961 H4988 0.931 . S
C4962 C4963 1.395 . S
C4962 C4964 1.320 . S
C4963 C4961 1.339 . S
C4963 C4962 1.395 . S
C4963 H4989 0.929 . S
C4964 C4962 1.320 . S
C4964 C4965 1.405 . S
C4964 H4990 0.930 . S
C4965 C4960 1.479 . S
C4965 C4964 1.405 . S
C4965 H4991 0.931 . S
U4966 O4967 2.454 . S
U4966 O4968 2.458 . S
U4966 C4969 2.984 . S
U4966 C4970 2.847 . S
U4966 C4983 2.882 . S
U4966 O4984 2.441 . S
U4966 O4985 2.420 . S
U4966 O4986 2.455 . S
U4966 O4987 2.449 . S
O4967 U4966 2.454 . S
O4967 C4969 1.353 . S
O4968 U4966 2.458 . S
O4968 C4969 1.286 . S
C4969 U4966 2.984 . S
C4969 O4967 1.353 . S
C4969 O4968 1.286 . S
C4969 C4971 1.363 . S
C4970 C4960 1.465 . S
C4970 U4966 2.847 . S
C4970 O4984 1.249 . S
C4970 O4985 1.202 . S
C4971 C4969 1.363 . S
C4971 C4973 1.408 . S
C4971 C4976 1.342 . S
C4972 C4973 1.310 . S
C4972 C4975 1.461 . S
C4972 H4992 0.932 . S
C4973 C4971 1.408 . S
C4973 C4972 1.310 . S
C4973 H4993 0.930 . S
C4974 C4975 1.474 . S
C4974 C4976 1.285 . S
C4974 H4994 0.929 . S
C4975 C4972 1.461 . S
C4975 C4974 1.474 . S
C4976 C4971 1.342 . S
C4976 C4974 1.285 . S
C4976 H4995 0.930 . S
C4977 C4980 1.424 . S
C4977 C4982 1.245 . S
C4977 C4983 1.428 . S
C4978 C4981 1.260 . S
C4978 C4982 1.477 . S
C4978 H4996 0.932 . S
C4979 C4980 1.384 . S
C4979 C4981 1.479 . S
C4979 H4997 0.929 . S
C4980 C4977 1.424 . S
C4980 C4979 1.384 . S
C4980 H4998 0.928 . S
C4981 C4978 1.260 . S
C4981 C4979 1.479 . S
C4982 C4977 1.245 . S
C4982 C4978 1.477 . S
C4982 H4999 0.932 . S
C4983 U4966 2.882 . S
C4983 C4977 1.428 . S
C4983 O4986 1.301 . S
C4983 O4987 1.282 . S
O4984 U4966 2.441 . S
O4984 C4970 1.249 . S
O4985 U4966 2.420 . S
O4985 C4970 1.202 . S
O4986 U4966 2.455 . S
O4986 C4983 1.301 . S
O4987 U4966 2.449 . S
O4987 C4983 1.282 . S
H4988 C4961 0.931 . S
H4989 C4963 0.929 . S
H4990 C4964 0.930 . S
H4991 C4965 0.931 . S
H4992 C4972 0.932 . S
H4993 C4973 0.930 . S
H4994 C4974 0.929 . S
H4995 C4976 0.930 . S
H4996 C4978 0.932 . S
H4997 C4979 0.929 . S
H4998 C4980 0.928 . S
H4999 C4982 0.932 . S
C5000 C5001 1.264 . S
C5000 C5005 1.479 . S
C5000 C5010 1.465 . S
C5001 C5000 1.264 . S
C5001 C5003 1.339 . S
C5001 H5028 0.931 . S
C5002 C5003 1.395 . S
C5002 C5004 1.320 . S
C5003 C5001 1.339 . S
C5003 C5002 1.395 . S
C5003 H5029 0.929 . S
C5004 C5002 1.320 . S
C5004 C5005 1.405 . S
C5004 H5030 0.930 . S
C5005 C5000 1.479 . S
C5005 C5004 1.405 . S
C5005 H5031 0.931 . S
U5006 O5007 2.454 . S
U5006 O5008 2.458 . S
U5006 C5009 2.984 . S
U5006 C5010 2.847 . S
U5006 C5023 2.882 . S
U5006 O5024 2.441 . S
U5006 O5025 2.420 . S
U5006 O5026 2.455 . S
U5006 O5027 2.449 . S
O5007 U5006 2.454 . S
O5007 C5009 1.353 . S
O5008 U5006 2.458 . S
O5008 C5009 1.286 . S
C5009 U5006 2.984 . S
C5009 O5007 1.353 . S
C5009 O5008 1.286 . S
C5009 C5011 1.363 . S
C5010 C5000 1.465 . S
C5010 U5006 2.847 . S
C5010 O5024 1.249 . S
C5010 O5025 1.202 . S
C5011 C5009 1.363 . S
C5011 C5013 1.408 . S
C5011 C5016 1.342 . S
C5012 C5013 1.310 . S
C5012 C5015 1.461 . S
C5012 H5032 0.932 . S
C5013 C5011 1.408 . S
C5013 C5012 1.310 . S
C5013 H5033 0.930 . S
C5014 C5015 1.474 . S
C5014 C5016 1.285 . S
C5014 H5034 0.929 . S
C5015 C5012 1.461 . S
C5015 C5014 1.474 . S
C5016 C5011 1.342 . S
C5016 C5014 1.285 . S
C5016 H5035 0.930 . S
C5017 C5020 1.424 . S
C5017 C5022 1.245 . S
C5017 C5023 1.428 . S
C5018 C5021 1.260 . S
C5018 C5022 1.477 . S
C5018 H5036 0.932 . S
C5019 C5020 1.384 . S
C5019 C5021 1.479 . S
C5019 H5037 0.929 . S
C5020 C5017 1.424 . S
C5020 C5019 1.384 . S
C5020 H5038 0.928 . S
C5021 C5018 1.260 . S
C5021 C5019 1.479 . S
C5022 C5017 1.245 . S
C5022 C5018 1.477 . S
C5022 H5039 0.932 . S
C5023 U5006 2.882 . S
C5023 C5017 1.428 . S
C5023 O5026 1.301 . S
C5023 O5027 1.282 . S
O5024 U5006 2.441 . S
O5024 C5010 1.249 . S
O5025 U5006 2.420 . S
O5025 C5010 1.202 . S
O5026 U5006 2.455 . S
O5026 C5023 1.301 . S
O5027 U5006 2.449 . S
O5027 C5023 1.282 . S
H5028 C5001 0.931 . S
H5029 C5003 0.929 . S
H5030 C5004 0.930 . S
H5031 C5005 0.931 . S
H5032 C5012 0.932 . S
H5033 C5013 0.930 . S
H5034 C5014 0.929 . S
H5035 C5016 0.930 . S
H5036 C5018 0.932 . S
H5037 C5019 0.929 . S
H5038 C5020 0.928 . S
H5039 C5022 0.932 . S
C5040 C5041 1.264 . S
C5040 C5045 1.479 . S
C5040 C5050 1.465 . S
C5041 C5040 1.264 . S
C5041 C5043 1.339 . S
C5041 H5068 0.931 . S
C5042 C5043 1.395 . S
C5042 C5044 1.320 . S
C5043 C5041 1.339 . S
C5043 C5042 1.395 . S
C5043 H5069 0.929 . S
C5044 C5042 1.320 . S
C5044 C5045 1.405 . S
C5044 H5070 0.930 . S
C5045 C5040 1.479 . S
C5045 C5044 1.405 . S
C5045 H5071 0.931 . S
U5046 O5047 2.454 . S
U5046 O5048 2.458 . S
U5046 C5049 2.984 . S
U5046 C5050 2.847 . S
U5046 C5063 2.882 . S
U5046 O5064 2.441 . S
U5046 O5065 2.420 . S
U5046 O5066 2.455 . S
U5046 O5067 2.449 . S
O5047 U5046 2.454 . S
O5047 C5049 1.353 . S
O5048 U5046 2.458 . S
O5048 C5049 1.286 . S
C5049 U5046 2.984 . S
C5049 O5047 1.353 . S
C5049 O5048 1.286 . S
C5049 C5051 1.363 . S
C5050 C5040 1.465 . S
C5050 U5046 2.847 . S
C5050 O5064 1.249 . S
C5050 O5065 1.202 . S
C5051 C5049 1.363 . S
C5051 C5053 1.408 . S
C5051 C5056 1.342 . S
C5052 C5053 1.310 . S
C5052 C5055 1.461 . S
C5052 H5072 0.932 . S
C5053 C5051 1.408 . S
C5053 C5052 1.310 . S
C5053 H5073 0.930 . S
C5054 C5055 1.474 . S
C5054 C5056 1.285 . S
C5054 H5074 0.929 . S
C5055 C5052 1.461 . S
C5055 C5054 1.474 . S
C5056 C5051 1.342 . S
C5056 C5054 1.285 . S
C5056 H5075 0.930 . S
C5057 C5060 1.424 . S
C5057 C5062 1.245 . S
C5057 C5063 1.428 . S
C5058 C5061 1.260 . S
C5058 C5062 1.477 . S
C5058 H5076 0.932 . S
C5059 C5060 1.384 . S
C5059 C5061 1.479 . S
C5059 H5077 0.929 . S
C5060 C5057 1.424 . S
C5060 C5059 1.384 . S
C5060 H5078 0.928 . S
C5061 C5058 1.260 . S
C5061 C5059 1.479 . S
C5062 C5057 1.245 . S
C5062 C5058 1.477 . S
C5062 H5079 0.932 . S
C5063 U5046 2.882 . S
C5063 C5057 1.428 . S
C5063 O5066 1.301 . S
C5063 O5067 1.282 . S
O5064 U5046 2.441 . S
O5064 C5050 1.249 . S
O5065 U5046 2.420 . S
O5065 C5050 1.202 . S
O5066 U5046 2.455 . S
O5066 C5063 1.301 . S
O5067 U5046 2.449 . S
O5067 C5063 1.282 . S
H5068 C5041 0.931 . S
H5069 C5043 0.929 . S
H5070 C5044 0.930 . S
H5071 C5045 0.931 . S
H5072 C5052 0.932 . S
H5073 C5053 0.930 . S
H5074 C5054 0.929 . S
H5075 C5056 0.930 . S
H5076 C5058 0.932 . S
H5077 C5059 0.929 . S
H5078 C5060 0.928 . S
H5079 C5062 0.932 . S
C5080 C5081 1.264 . S
C5080 C5085 1.479 . S
C5080 C5090 1.465 . S
C5081 C5080 1.264 . S
C5081 C5083 1.339 . S
C5081 H5108 0.931 . S
C5082 C5083 1.395 . S
C5082 C5084 1.320 . S
C5083 C5081 1.339 . S
C5083 C5082 1.395 . S
C5083 H5109 0.929 . S
C5084 C5082 1.320 . S
C5084 C5085 1.405 . S
C5084 H5110 0.930 . S
C5085 C5080 1.479 . S
C5085 C5084 1.405 . S
C5085 H5111 0.931 . S
U5086 O5087 2.454 . S
U5086 O5088 2.458 . S
U5086 C5089 2.984 . S
U5086 C5090 2.847 . S
U5086 C5103 2.882 . S
U5086 O5104 2.441 . S
U5086 O5105 2.420 . S
U5086 O5106 2.455 . S
U5086 O5107 2.449 . S
O5087 U5086 2.454 . S
O5087 C5089 1.353 . S
O5088 U5086 2.458 . S
O5088 C5089 1.286 . S
C5089 U5086 2.984 . S
C5089 O5087 1.353 . S
C5089 O5088 1.286 . S
C5089 C5091 1.363 . S
C5090 C5080 1.465 . S
C5090 U5086 2.847 . S
C5090 O5104 1.249 . S
C5090 O5105 1.202 . S
C5091 C5089 1.363 . S
C5091 C5093 1.408 . S
C5091 C5096 1.342 . S
C5092 C5093 1.310 . S
C5092 C5095 1.461 . S
C5092 H5112 0.932 . S
C5093 C5091 1.408 . S
C5093 C5092 1.310 . S
C5093 H5113 0.930 . S
C5094 C5095 1.474 . S
C5094 C5096 1.285 . S
C5094 H5114 0.929 . S
C5095 C5092 1.461 . S
C5095 C5094 1.474 . S
C5096 C5091 1.342 . S
C5096 C5094 1.285 . S
C5096 H5115 0.930 . S
C5097 C5100 1.424 . S
C5097 C5102 1.245 . S
C5097 C5103 1.428 . S
C5098 C5101 1.260 . S
C5098 C5102 1.477 . S
C5098 H5116 0.932 . S
C5099 C5100 1.384 . S
C5099 C5101 1.479 . S
C5099 H5117 0.929 . S
C5100 C5097 1.424 . S
C5100 C5099 1.384 . S
C5100 H5118 0.928 . S
C5101 C5098 1.260 . S
C5101 C5099 1.479 . S
C5102 C5097 1.245 . S
C5102 C5098 1.477 . S
C5102 H5119 0.932 . S
C5103 U5086 2.882 . S
C5103 C5097 1.428 . S
C5103 O5106 1.301 . S
C5103 O5107 1.282 . S
O5104 U5086 2.441 . S
O5104 C5090 1.249 . S
O5105 U5086 2.420 . S
O5105 C5090 1.202 . S
O5106 U5086 2.455 . S
O5106 C5103 1.301 . S
O5107 U5086 2.449 . S
O5107 C5103 1.282 . S
H5108 C5081 0.931 . S
H5109 C5083 0.929 . S
H5110 C5084 0.930 . S
H5111 C5085 0.931 . S
H5112 C5092 0.932 . S
H5113 C5093 0.930 . S
H5114 C5094 0.929 . S
H5115 C5096 0.930 . S
H5116 C5098 0.932 . S
H5117 C5099 0.929 . S
H5118 C5100 0.928 . S
H5119 C5102 0.932 . S
C5120 C5121 1.264 . S
C5120 C5125 1.479 . S
C5120 C5130 1.465 . S
C5121 C5120 1.264 . S
C5121 C5123 1.339 . S
C5121 H5148 0.931 . S
C5122 C5123 1.395 . S
C5122 C5124 1.320 . S
C5123 C5121 1.339 . S
C5123 C5122 1.395 . S
C5123 H5149 0.929 . S
C5124 C5122 1.320 . S
C5124 C5125 1.405 . S
C5124 H5150 0.930 . S
C5125 C5120 1.479 . S
C5125 C5124 1.405 . S
C5125 H5151 0.931 . S
U5126 O5127 2.454 . S
U5126 O5128 2.458 . S
U5126 C5129 2.984 . S
U5126 C5130 2.847 . S
U5126 C5143 2.882 . S
U5126 O5144 2.441 . S
U5126 O5145 2.420 . S
U5126 O5146 2.455 . S
U5126 O5147 2.449 . S
O5127 U5126 2.454 . S
O5127 C5129 1.353 . S
O5128 U5126 2.458 . S
O5128 C5129 1.286 . S
C5129 U5126 2.984 . S
C5129 O5127 1.353 . S
C5129 O5128 1.286 . S
C5129 C5131 1.363 . S
C5130 C5120 1.465 . S
C5130 U5126 2.847 . S
C5130 O5144 1.249 . S
C5130 O5145 1.202 . S
C5131 C5129 1.363 . S
C5131 C5133 1.408 . S
C5131 C5136 1.342 . S
C5132 C5133 1.310 . S
C5132 C5135 1.461 . S
C5132 H5152 0.932 . S
C5133 C5131 1.408 . S
C5133 C5132 1.310 . S
C5133 H5153 0.930 . S
C5134 C5135 1.474 . S
C5134 C5136 1.285 . S
C5134 H5154 0.929 . S
C5135 C5132 1.461 . S
C5135 C5134 1.474 . S
C5136 C5131 1.342 . S
C5136 C5134 1.285 . S
C5136 H5155 0.930 . S
C5137 C5140 1.424 . S
C5137 C5142 1.245 . S
C5137 C5143 1.428 . S
C5138 C5141 1.260 . S
C5138 C5142 1.477 . S
C5138 H5156 0.932 . S
C5139 C5140 1.384 . S
C5139 C5141 1.479 . S
C5139 H5157 0.929 . S
C5140 C5137 1.424 . S
C5140 C5139 1.384 . S
C5140 H5158 0.928 . S
C5141 C5138 1.260 . S
C5141 C5139 1.479 . S
C5142 C5137 1.245 . S
C5142 C5138 1.477 . S
C5142 H5159 0.932 . S
C5143 U5126 2.882 . S
C5143 C5137 1.428 . S
C5143 O5146 1.301 . S
C5143 O5147 1.282 . S
O5144 U5126 2.441 . S
O5144 C5130 1.249 . S
O5145 U5126 2.420 . S
O5145 C5130 1.202 . S
O5146 U5126 2.455 . S
O5146 C5143 1.301 . S
O5147 U5126 2.449 . S
O5147 C5143 1.282 . S
H5148 C5121 0.931 . S
H5149 C5123 0.929 . S
H5150 C5124 0.930 . S
H5151 C5125 0.931 . S
H5152 C5132 0.932 . S
H5153 C5133 0.930 . S
H5154 C5134 0.929 . S
H5155 C5136 0.930 . S
H5156 C5138 0.932 . S
H5157 C5139 0.929 . S
H5158 C5140 0.928 . S
H5159 C5142 0.932 . S
C5160 C5161 1.264 . S
C5160 C5165 1.479 . S
C5160 C5170 1.465 . S
C5161 C5160 1.264 . S
C5161 C5163 1.339 . S
C5161 H5188 0.931 . S
C5162 C5163 1.395 . S
C5162 C5164 1.320 . S
C5163 C5161 1.339 . S
C5163 C5162 1.395 . S
C5163 H5189 0.929 . S
C5164 C5162 1.320 . S
C5164 C5165 1.405 . S
C5164 H5190 0.930 . S
C5165 C5160 1.479 . S
C5165 C5164 1.405 . S
C5165 H5191 0.931 . S
U5166 O5167 2.454 . S
U5166 O5168 2.458 . S
U5166 C5169 2.984 . S
U5166 C5170 2.847 . S
U5166 C5183 2.882 . S
U5166 O5184 2.441 . S
U5166 O5185 2.420 . S
U5166 O5186 2.455 . S
U5166 O5187 2.449 . S
O5167 U5166 2.454 . S
O5167 C5169 1.353 . S
O5168 U5166 2.458 . S
O5168 C5169 1.286 . S
C5169 U5166 2.984 . S
C5169 O5167 1.353 . S
C5169 O5168 1.286 . S
C5169 C5171 1.363 . S
C5170 C5160 1.465 . S
C5170 U5166 2.847 . S
C5170 O5184 1.249 . S
C5170 O5185 1.202 . S
C5171 C5169 1.363 . S
C5171 C5173 1.408 . S
C5171 C5176 1.342 . S
C5172 C5173 1.310 . S
C5172 C5175 1.461 . S
C5172 H5192 0.932 . S
C5173 C5171 1.408 . S
C5173 C5172 1.310 . S
C5173 H5193 0.930 . S
C5174 C5175 1.474 . S
C5174 C5176 1.285 . S
C5174 H5194 0.929 . S
C5175 C5172 1.461 . S
C5175 C5174 1.474 . S
C5176 C5171 1.342 . S
C5176 C5174 1.285 . S
C5176 H5195 0.930 . S
C5177 C5180 1.424 . S
C5177 C5182 1.245 . S
C5177 C5183 1.428 . S
C5178 C5181 1.260 . S
C5178 C5182 1.477 . S
C5178 H5196 0.932 . S
C5179 C5180 1.384 . S
C5179 C5181 1.479 . S
C5179 H5197 0.929 . S
C5180 C5177 1.424 . S
C5180 C5179 1.384 . S
C5180 H5198 0.928 . S
C5181 C5178 1.260 . S
C5181 C5179 1.479 . S
C5182 C5177 1.245 . S
C5182 C5178 1.477 . S
C5182 H5199 0.932 . S
C5183 U5166 2.882 . S
C5183 C5177 1.428 . S
C5183 O5186 1.301 . S
C5183 O5187 1.282 . S
O5184 U5166 2.441 . S
O5184 C5170 1.249 . S
O5185 U5166 2.420 . S
O5185 C5170 1.202 . S
O5186 U5166 2.455 . S
O5186 C5183 1.301 . S
O5187 U5166 2.449 . S
O5187 C5183 1.282 . S
H5188 C5161 0.931 . S
H5189 C5163 0.929 . S
H5190 C5164 0.930 . S
H5191 C5165 0.931 . S
H5192 C5172 0.932 . S
H5193 C5173 0.930 . S
H5194 C5174 0.929 . S
H5195 C5176 0.930 . S
H5196 C5178 0.932 . S
H5197 C5179 0.929 . S
H5198 C5180 0.928 . S
H5199 C5182 0.932 . S
C5200 C5201 1.264 . S
C5200 C5205 1.479 . S
C5200 C5210 1.465 . S
C5201 C5200 1.264 . S
C5201 C5203 1.339 . S
C5201 H5228 0.931 . S
C5202 C5203 1.395 . S
C5202 C5204 1.320 . S
C5203 C5201 1.339 . S
C5203 C5202 1.395 . S
C5203 H5229 0.929 . S
C5204 C5202 1.320 . S
C5204 C5205 1.405 . S
C5204 H5230 0.930 . S
C5205 C5200 1.479 . S
C5205 C5204 1.405 . S
C5205 H5231 0.931 . S
U5206 O5207 2.454 . S
U5206 O5208 2.458 . S
U5206 C5209 2.984 . S
U5206 C5210 2.847 . S
U5206 C5223 2.882 . S
U5206 O5224 2.441 . S
U5206 O5225 2.420 . S
U5206 O5226 2.455 . S
U5206 O5227 2.449 . S
O5207 U5206 2.454 . S
O5207 C5209 1.353 . S
O5208 U5206 2.458 . S
O5208 C5209 1.286 . S
C5209 U5206 2.984 . S
C5209 O5207 1.353 . S
C5209 O5208 1.286 . S
C5209 C5211 1.363 . S
C5210 C5200 1.465 . S
C5210 U5206 2.847 . S
C5210 O5224 1.249 . S
C5210 O5225 1.202 . S
C5211 C5209 1.363 . S
C5211 C5213 1.408 . S
C5211 C5216 1.342 . S
C5212 C5213 1.310 . S
C5212 C5215 1.461 . S
C5212 H5232 0.932 . S
C5213 C5211 1.408 . S
C5213 C5212 1.310 . S
C5213 H5233 0.930 . S
C5214 C5215 1.474 . S
C5214 C5216 1.285 . S
C5214 H5234 0.929 . S
C5215 C5212 1.461 . S
C5215 C5214 1.474 . S
C5216 C5211 1.342 . S
C5216 C5214 1.285 . S
C5216 H5235 0.930 . S
C5217 C5220 1.424 . S
C5217 C5222 1.245 . S
C5217 C5223 1.428 . S
C5218 C5221 1.260 . S
C5218 C5222 1.477 . S
C5218 H5236 0.932 . S
C5219 C5220 1.384 . S
C5219 C5221 1.479 . S
C5219 H5237 0.929 . S
C5220 C5217 1.424 . S
C5220 C5219 1.384 . S
C5220 H5238 0.928 . S
C5221 C5218 1.260 . S
C5221 C5219 1.479 . S
C5222 C5217 1.245 . S
C5222 C5218 1.477 . S
C5222 H5239 0.932 . S
C5223 U5206 2.882 . S
C5223 C5217 1.428 . S
C5223 O5226 1.301 . S
C5223 O5227 1.282 . S
O5224 U5206 2.441 . S
O5224 C5210 1.249 . S
O5225 U5206 2.420 . S
O5225 C5210 1.202 . S
O5226 U5206 2.455 . S
O5226 C5223 1.301 . S
O5227 U5206 2.449 . S
O5227 C5223 1.282 . S
H5228 C5201 0.931 . S
H5229 C5203 0.929 . S
H5230 C5204 0.930 . S
H5231 C5205 0.931 . S
H5232 C5212 0.932 . S
H5233 C5213 0.930 . S
H5234 C5214 0.929 . S
H5235 C5216 0.930 . S
H5236 C5218 0.932 . S
H5237 C5219 0.929 . S
H5238 C5220 0.928 . S
H5239 C5222 0.932 . S
C5240 C5241 1.264 . S
C5240 C5245 1.479 . S
C5240 C5250 1.465 . S
C5241 C5240 1.264 . S
C5241 C5243 1.339 . S
C5241 H5268 0.931 . S
C5242 C5243 1.395 . S
C5242 C5244 1.320 . S
C5243 C5241 1.339 . S
C5243 C5242 1.395 . S
C5243 H5269 0.929 . S
C5244 C5242 1.320 . S
C5244 C5245 1.405 . S
C5244 H5270 0.930 . S
C5245 C5240 1.479 . S
C5245 C5244 1.405 . S
C5245 H5271 0.931 . S
U5246 O5247 2.454 . S
U5246 O5248 2.458 . S
U5246 C5249 2.984 . S
U5246 C5250 2.847 . S
U5246 C5263 2.882 . S
U5246 O5264 2.441 . S
U5246 O5265 2.420 . S
U5246 O5266 2.455 . S
U5246 O5267 2.449 . S
O5247 U5246 2.454 . S
O5247 C5249 1.353 . S
O5248 U5246 2.458 . S
O5248 C5249 1.286 . S
C5249 U5246 2.984 . S
C5249 O5247 1.353 . S
C5249 O5248 1.286 . S
C5249 C5251 1.363 . S
C5250 C5240 1.465 . S
C5250 U5246 2.847 . S
C5250 O5264 1.249 . S
C5250 O5265 1.202 . S
C5251 C5249 1.363 . S
C5251 C5253 1.408 . S
C5251 C5256 1.342 . S
C5252 C5253 1.310 . S
C5252 C5255 1.461 . S
C5252 H5272 0.932 . S
C5253 C5251 1.408 . S
C5253 C5252 1.310 . S
C5253 H5273 0.930 . S
C5254 C5255 1.474 . S
C5254 C5256 1.285 . S
C5254 H5274 0.929 . S
C5255 C5252 1.461 . S
C5255 C5254 1.474 . S
C5256 C5251 1.342 . S
C5256 C5254 1.285 . S
C5256 H5275 0.930 . S
C5257 C5260 1.424 . S
C5257 C5262 1.245 . S
C5257 C5263 1.428 . S
C5258 C5261 1.260 . S
C5258 C5262 1.477 . S
C5258 H5276 0.932 . S
C5259 C5260 1.384 . S
C5259 C5261 1.479 . S
C5259 H5277 0.929 . S
C5260 C5257 1.424 . S
C5260 C5259 1.384 . S
C5260 H5278 0.928 . S
C5261 C5258 1.260 . S
C5261 C5259 1.479 . S
C5262 C5257 1.245 . S
C5262 C5258 1.477 . S
C5262 H5279 0.932 . S
C5263 U5246 2.882 . S
C5263 C5257 1.428 . S
C5263 O5266 1.301 . S
C5263 O5267 1.282 . S
O5264 U5246 2.441 . S
O5264 C5250 1.249 . S
O5265 U5246 2.420 . S
O5265 C5250 1.202 . S
O5266 U5246 2.455 . S
O5266 C5263 1.301 . S
O5267 U5246 2.449 . S
O5267 C5263 1.282 . S
H5268 C5241 0.931 . S
H5269 C5243 0.929 . S
H5270 C5244 0.930 . S
H5271 C5245 0.931 . S
H5272 C5252 0.932 . S
H5273 C5253 0.930 . S
H5274 C5254 0.929 . S
H5275 C5256 0.930 . S
H5276 C5258 0.932 . S
H5277 C5259 0.929 . S
H5278 C5260 0.928 . S
H5279 C5262 0.932 . S
C5280 C5281 1.264 . S
C5280 C5285 1.479 . S
C5280 C5290 1.465 . S
C5281 C5280 1.264 . S
C5281 C5283 1.339 . S
C5281 H5308 0.931 . S
C5282 C5283 1.395 . S
C5282 C5284 1.320 . S
C5283 C5281 1.339 . S
C5283 C5282 1.395 . S
C5283 H5309 0.929 . S
C5284 C5282 1.320 . S
C5284 C5285 1.405 . S
C5284 H5310 0.930 . S
C5285 C5280 1.479 . S
C5285 C5284 1.405 . S
C5285 H5311 0.931 . S
U5286 O5287 2.454 . S
U5286 O5288 2.458 . S
U5286 C5289 2.984 . S
U5286 C5290 2.847 . S
U5286 C5303 2.882 . S
U5286 O5304 2.441 . S
U5286 O5305 2.420 . S
U5286 O5306 2.455 . S
U5286 O5307 2.449 . S
O5287 U5286 2.454 . S
O5287 C5289 1.353 . S
O5288 U5286 2.458 . S
O5288 C5289 1.286 . S
C5289 U5286 2.984 . S
C5289 O5287 1.353 . S
C5289 O5288 1.286 . S
C5289 C5291 1.363 . S
C5290 C5280 1.465 . S
C5290 U5286 2.847 . S
C5290 O5304 1.249 . S
C5290 O5305 1.202 . S
C5291 C5289 1.363 . S
C5291 C5293 1.408 . S
C5291 C5296 1.342 . S
C5292 C5293 1.310 . S
C5292 C5295 1.461 . S
C5292 H5312 0.932 . S
C5293 C5291 1.408 . S
C5293 C5292 1.310 . S
C5293 H5313 0.930 . S
C5294 C5295 1.474 . S
C5294 C5296 1.285 . S
C5294 H5314 0.929 . S
C5295 C5292 1.461 . S
C5295 C5294 1.474 . S
C5296 C5291 1.342 . S
C5296 C5294 1.285 . S
C5296 H5315 0.930 . S
C5297 C5300 1.424 . S
C5297 C5302 1.245 . S
C5297 C5303 1.428 . S
C5298 C5301 1.260 . S
C5298 C5302 1.477 . S
C5298 H5316 0.932 . S
C5299 C5300 1.384 . S
C5299 C5301 1.479 . S
C5299 H5317 0.929 . S
C5300 C5297 1.424 . S
C5300 C5299 1.384 . S
C5300 H5318 0.928 . S
C5301 C5298 1.260 . S
C5301 C5299 1.479 . S
C5302 C5297 1.245 . S
C5302 C5298 1.477 . S
C5302 H5319 0.932 . S
C5303 U5286 2.882 . S
C5303 C5297 1.428 . S
C5303 O5306 1.301 . S
C5303 O5307 1.282 . S
O5304 U5286 2.441 . S
O5304 C5290 1.249 . S
O5305 U5286 2.420 . S
O5305 C5290 1.202 . S
O5306 U5286 2.455 . S
O5306 C5303 1.301 . S
O5307 U5286 2.449 . S
O5307 C5303 1.282 . S
H5308 C5281 0.931 . S
H5309 C5283 0.929 . S
H5310 C5284 0.930 . S
H5311 C5285 0.931 . S
H5312 C5292 0.932 . S
H5313 C5293 0.930 . S
H5314 C5294 0.929 . S
H5315 C5296 0.930 . S
H5316 C5298 0.932 . S
H5317 C5299 0.929 . S
H5318 C5300 0.928 . S
H5319 C5302 0.932 . S
C5320 C5321 1.264 . S
C5320 C5325 1.479 . S
C5320 C5330 1.465 . S
C5321 C5320 1.264 . S
C5321 C5323 1.339 . S
C5321 H5348 0.931 . S
C5322 C5323 1.395 . S
C5322 C5324 1.320 . S
C5323 C5321 1.339 . S
C5323 C5322 1.395 . S
C5323 H5349 0.929 . S
C5324 C5322 1.320 . S
C5324 C5325 1.405 . S
C5324 H5350 0.930 . S
C5325 C5320 1.479 . S
C5325 C5324 1.405 . S
C5325 H5351 0.931 . S
U5326 O5327 2.454 . S
U5326 O5328 2.458 . S
U5326 C5329 2.984 . S
U5326 C5330 2.847 . S
U5326 C5343 2.882 . S
U5326 O5344 2.441 . S
U5326 O5345 2.420 . S
U5326 O5346 2.455 . S
U5326 O5347 2.449 . S
O5327 U5326 2.454 . S
O5327 C5329 1.353 . S
O5328 U5326 2.458 . S
O5328 C5329 1.286 . S
C5329 U5326 2.984 . S
C5329 O5327 1.353 . S
C5329 O5328 1.286 . S
C5329 C5331 1.363 . S
C5330 C5320 1.465 . S
C5330 U5326 2.847 . S
C5330 O5344 1.249 . S
C5330 O5345 1.202 . S
C5331 C5329 1.363 . S
C5331 C5333 1.408 . S
C5331 C5336 1.342 . S
C5332 C5333 1.310 . S
C5332 C5335 1.461 . S
C5332 H5352 0.932 . S
C5333 C5331 1.408 . S
C5333 C5332 1.310 . S
C5333 H5353 0.930 . S
C5334 C5335 1.474 . S
C5334 C5336 1.285 . S
C5334 H5354 0.929 . S
C5335 C5332 1.461 . S
C5335 C5334 1.474 . S
C5336 C5331 1.342 . S
C5336 C5334 1.285 . S
C5336 H5355 0.930 . S
C5337 C5340 1.424 . S
C5337 C5342 1.245 . S
C5337 C5343 1.428 . S
C5338 C5341 1.260 . S
C5338 C5342 1.477 . S
C5338 H5356 0.932 . S
C5339 C5340 1.384 . S
C5339 C5341 1.479 . S
C5339 H5357 0.929 . S
C5340 C5337 1.424 . S
C5340 C5339 1.384 . S
C5340 H5358 0.928 . S
C5341 C5338 1.260 . S
C5341 C5339 1.479 . S
C5342 C5337 1.245 . S
C5342 C5338 1.477 . S
C5342 H5359 0.932 . S
C5343 U5326 2.882 . S
C5343 C5337 1.428 . S
C5343 O5346 1.301 . S
C5343 O5347 1.282 . S
O5344 U5326 2.441 . S
O5344 C5330 1.249 . S
O5345 U5326 2.420 . S
O5345 C5330 1.202 . S
O5346 U5326 2.455 . S
O5346 C5343 1.301 . S
O5347 U5326 2.449 . S
O5347 C5343 1.282 . S
H5348 C5321 0.931 . S
H5349 C5323 0.929 . S
H5350 C5324 0.930 . S
H5351 C5325 0.931 . S
H5352 C5332 0.932 . S
H5353 C5333 0.930 . S
H5354 C5334 0.929 . S
H5355 C5336 0.930 . S
H5356 C5338 0.932 . S
H5357 C5339 0.929 . S
H5358 C5340 0.928 . S
H5359 C5342 0.932 . S
C5360 C5361 1.264 . S
C5360 C5365 1.479 . S
C5360 C5370 1.465 . S
C5361 C5360 1.264 . S
C5361 C5363 1.339 . S
C5361 H5388 0.931 . S
C5362 C5363 1.395 . S
C5362 C5364 1.320 . S
C5363 C5361 1.339 . S
C5363 C5362 1.395 . S
C5363 H5389 0.929 . S
C5364 C5362 1.320 . S
C5364 C5365 1.405 . S
C5364 H5390 0.930 . S
C5365 C5360 1.479 . S
C5365 C5364 1.405 . S
C5365 H5391 0.931 . S
U5366 O5367 2.454 . S
U5366 O5368 2.458 . S
U5366 C5369 2.984 . S
U5366 C5370 2.847 . S
U5366 C5383 2.882 . S
U5366 O5384 2.441 . S
U5366 O5385 2.420 . S
U5366 O5386 2.455 . S
U5366 O5387 2.449 . S
O5367 U5366 2.454 . S
O5367 C5369 1.353 . S
O5368 U5366 2.458 . S
O5368 C5369 1.286 . S
C5369 U5366 2.984 . S
C5369 O5367 1.353 . S
C5369 O5368 1.286 . S
C5369 C5371 1.363 . S
C5370 C5360 1.465 . S
C5370 U5366 2.847 . S
C5370 O5384 1.249 . S
C5370 O5385 1.202 . S
C5371 C5369 1.363 . S
C5371 C5373 1.408 . S
C5371 C5376 1.342 . S
C5372 C5373 1.310 . S
C5372 C5375 1.461 . S
C5372 H5392 0.932 . S
C5373 C5371 1.408 . S
C5373 C5372 1.310 . S
C5373 H5393 0.930 . S
C5374 C5375 1.474 . S
C5374 C5376 1.285 . S
C5374 H5394 0.929 . S
C5375 C5372 1.461 . S
C5375 C5374 1.474 . S
C5376 C5371 1.342 . S
C5376 C5374 1.285 . S
C5376 H5395 0.930 . S
C5377 C5380 1.424 . S
C5377 C5382 1.245 . S
C5377 C5383 1.428 . S
C5378 C5381 1.260 . S
C5378 C5382 1.477 . S
C5378 H5396 0.932 . S
C5379 C5380 1.384 . S
C5379 C5381 1.479 . S
C5379 H5397 0.929 . S
C5380 C5377 1.424 . S
C5380 C5379 1.384 . S
C5380 H5398 0.928 . S
C5381 C5378 1.260 . S
C5381 C5379 1.479 . S
C5382 C5377 1.245 . S
C5382 C5378 1.477 . S
C5382 H5399 0.932 . S
C5383 U5366 2.882 . S
C5383 C5377 1.428 . S
C5383 O5386 1.301 . S
C5383 O5387 1.282 . S
O5384 U5366 2.441 . S
O5384 C5370 1.249 . S
O5385 U5366 2.420 . S
O5385 C5370 1.202 . S
O5386 U5366 2.455 . S
O5386 C5383 1.301 . S
O5387 U5366 2.449 . S
O5387 C5383 1.282 . S
H5388 C5361 0.931 . S
H5389 C5363 0.929 . S
H5390 C5364 0.930 . S
H5391 C5365 0.931 . S
H5392 C5372 0.932 . S
H5393 C5373 0.930 . S
H5394 C5374 0.929 . S
H5395 C5376 0.930 . S
H5396 C5378 0.932 . S
H5397 C5379 0.929 . S
H5398 C5380 0.928 . S
H5399 C5382 0.932 . S
C5400 C5401 1.264 . S
C5400 C5405 1.479 . S
C5400 C5410 1.465 . S
C5401 C5400 1.264 . S
C5401 C5403 1.339 . S
C5401 H5428 0.931 . S
C5402 C5403 1.395 . S
C5402 C5404 1.320 . S
C5403 C5401 1.339 . S
C5403 C5402 1.395 . S
C5403 H5429 0.929 . S
C5404 C5402 1.320 . S
C5404 C5405 1.405 . S
C5404 H5430 0.930 . S
C5405 C5400 1.479 . S
C5405 C5404 1.405 . S
C5405 H5431 0.931 . S
U5406 O5407 2.454 . S
U5406 O5408 2.458 . S
U5406 C5409 2.984 . S
U5406 C5410 2.847 . S
U5406 C5423 2.882 . S
U5406 O5424 2.441 . S
U5406 O5425 2.420 . S
U5406 O5426 2.455 . S
U5406 O5427 2.449 . S
O5407 U5406 2.454 . S
O5407 C5409 1.353 . S
O5408 U5406 2.458 . S
O5408 C5409 1.286 . S
C5409 U5406 2.984 . S
C5409 O5407 1.353 . S
C5409 O5408 1.286 . S
C5409 C5411 1.363 . S
C5410 C5400 1.465 . S
C5410 U5406 2.847 . S
C5410 O5424 1.249 . S
C5410 O5425 1.202 . S
C5411 C5409 1.363 . S
C5411 C5413 1.408 . S
C5411 C5416 1.342 . S
C5412 C5413 1.310 . S
C5412 C5415 1.461 . S
C5412 H5432 0.932 . S
C5413 C5411 1.408 . S
C5413 C5412 1.310 . S
C5413 H5433 0.930 . S
C5414 C5415 1.474 . S
C5414 C5416 1.285 . S
C5414 H5434 0.929 . S
C5415 C5412 1.461 . S
C5415 C5414 1.474 . S
C5416 C5411 1.342 . S
C5416 C5414 1.285 . S
C5416 H5435 0.930 . S
C5417 C5420 1.424 . S
C5417 C5422 1.245 . S
C5417 C5423 1.428 . S
C5418 C5421 1.260 . S
C5418 C5422 1.477 . S
C5418 H5436 0.932 . S
C5419 C5420 1.384 . S
C5419 C5421 1.479 . S
C5419 H5437 0.929 . S
C5420 C5417 1.424 . S
C5420 C5419 1.384 . S
C5420 H5438 0.928 . S
C5421 C5418 1.260 . S
C5421 C5419 1.479 . S
C5422 C5417 1.245 . S
C5422 C5418 1.477 . S
C5422 H5439 0.932 . S
C5423 U5406 2.882 . S
C5423 C5417 1.428 . S
C5423 O5426 1.301 . S
C5423 O5427 1.282 . S
O5424 U5406 2.441 . S
O5424 C5410 1.249 . S
O5425 U5406 2.420 . S
O5425 C5410 1.202 . S
O5426 U5406 2.455 . S
O5426 C5423 1.301 . S
O5427 U5406 2.449 . S
O5427 C5423 1.282 . S
H5428 C5401 0.931 . S
H5429 C5403 0.929 . S
H5430 C5404 0.930 . S
H5431 C5405 0.931 . S
H5432 C5412 0.932 . S
H5433 C5413 0.930 . S
H5434 C5414 0.929 . S
H5435 C5416 0.930 . S
H5436 C5418 0.932 . S
H5437 C5419 0.929 . S
H5438 C5420 0.928 . S
H5439 C5422 0.932 . S
C5440 C5441 1.264 . S
C5440 C5445 1.479 . S
C5440 C5450 1.465 . S
C5441 C5440 1.264 . S
C5441 C5443 1.339 . S
C5441 H5468 0.931 . S
C5442 C5443 1.395 . S
C5442 C5444 1.320 . S
C5443 C5441 1.339 . S
C5443 C5442 1.395 . S
C5443 H5469 0.929 . S
C5444 C5442 1.320 . S
C5444 C5445 1.405 . S
C5444 H5470 0.930 . S
C5445 C5440 1.479 . S
C5445 C5444 1.405 . S
C5445 H5471 0.931 . S
U5446 O5447 2.454 . S
U5446 O5448 2.458 . S
U5446 C5449 2.984 . S
U5446 C5450 2.847 . S
U5446 C5463 2.882 . S
U5446 O5464 2.441 . S
U5446 O5465 2.420 . S
U5446 O5466 2.455 . S
U5446 O5467 2.449 . S
O5447 U5446 2.454 . S
O5447 C5449 1.353 . S
O5448 U5446 2.458 . S
O5448 C5449 1.286 . S
C5449 U5446 2.984 . S
C5449 O5447 1.353 . S
C5449 O5448 1.286 . S
C5449 C5451 1.363 . S
C5450 C5440 1.465 . S
C5450 U5446 2.847 . S
C5450 O5464 1.249 . S
C5450 O5465 1.202 . S
C5451 C5449 1.363 . S
C5451 C5453 1.408 . S
C5451 C5456 1.342 . S
C5452 C5453 1.310 . S
C5452 C5455 1.461 . S
C5452 H5472 0.932 . S
C5453 C5451 1.408 . S
C5453 C5452 1.310 . S
C5453 H5473 0.930 . S
C5454 C5455 1.474 . S
C5454 C5456 1.285 . S
C5454 H5474 0.929 . S
C5455 C5452 1.461 . S
C5455 C5454 1.474 . S
C5456 C5451 1.342 . S
C5456 C5454 1.285 . S
C5456 H5475 0.930 . S
C5457 C5460 1.424 . S
C5457 C5462 1.245 . S
C5457 C5463 1.428 . S
C5458 C5461 1.260 . S
C5458 C5462 1.477 . S
C5458 H5476 0.932 . S
C5459 C5460 1.384 . S
C5459 C5461 1.479 . S
C5459 H5477 0.929 . S
C5460 C5457 1.424 . S
C5460 C5459 1.384 . S
C5460 H5478 0.928 . S
C5461 C5458 1.260 . S
C5461 C5459 1.479 . S
C5462 C5457 1.245 . S
C5462 C5458 1.477 . S
C5462 H5479 0.932 . S
C5463 U5446 2.882 . S
C5463 C5457 1.428 . S
C5463 O5466 1.301 . S
C5463 O5467 1.282 . S
O5464 U5446 2.441 . S
O5464 C5450 1.249 . S
O5465 U5446 2.420 . S
O5465 C5450 1.202 . S
O5466 U5446 2.455 . S
O5466 C5463 1.301 . S
O5467 U5446 2.449 . S
O5467 C5463 1.282 . S
H5468 C5441 0.931 . S
H5469 C5443 0.929 . S
H5470 C5444 0.930 . S
H5471 C5445 0.931 . S
H5472 C5452 0.932 . S
H5473 C5453 0.930 . S
H5474 C5454 0.929 . S
H5475 C5456 0.930 . S
H5476 C5458 0.932 . S
H5477 C5459 0.929 . S
H5478 C5460 0.928 . S
H5479 C5462 0.932 . S
C5480 C5481 1.264 . S
C5480 C5485 1.479 . S
C5480 C5490 1.465 . S
C5481 C5480 1.264 . S
C5481 C5483 1.339 . S
C5481 H5508 0.931 . S
C5482 C5483 1.395 . S
C5482 C5484 1.320 . S
C5483 C5481 1.339 . S
C5483 C5482 1.395 . S
C5483 H5509 0.929 . S
C5484 C5482 1.320 . S
C5484 C5485 1.405 . S
C5484 H5510 0.930 . S
C5485 C5480 1.479 . S
C5485 C5484 1.405 . S
C5485 H5511 0.931 . S
U5486 O5487 2.454 . S
U5486 O5488 2.458 . S
U5486 C5489 2.984 . S
U5486 C5490 2.847 . S
U5486 C5503 2.882 . S
U5486 O5504 2.441 . S
U5486 O5505 2.420 . S
U5486 O5506 2.455 . S
U5486 O5507 2.449 . S
O5487 U5486 2.454 . S
O5487 C5489 1.353 . S
O5488 U5486 2.458 . S
O5488 C5489 1.286 . S
C5489 U5486 2.984 . S
C5489 O5487 1.353 . S
C5489 O5488 1.286 . S
C5489 C5491 1.363 . S
C5490 C5480 1.465 . S
C5490 U5486 2.847 . S
C5490 O5504 1.249 . S
C5490 O5505 1.202 . S
C5491 C5489 1.363 . S
C5491 C5493 1.408 . S
C5491 C5496 1.342 . S
C5492 C5493 1.310 . S
C5492 C5495 1.461 . S
C5492 H5512 0.932 . S
C5493 C5491 1.408 . S
C5493 C5492 1.310 . S
C5493 H5513 0.930 . S
C5494 C5495 1.474 . S
C5494 C5496 1.285 . S
C5494 H5514 0.929 . S
C5495 C5492 1.461 . S
C5495 C5494 1.474 . S
C5496 C5491 1.342 . S
C5496 C5494 1.285 . S
C5496 H5515 0.930 . S
C5497 C5500 1.424 . S
C5497 C5502 1.245 . S
C5497 C5503 1.428 . S
C5498 C5501 1.260 . S
C5498 C5502 1.477 . S
C5498 H5516 0.932 . S
C5499 C5500 1.384 . S
C5499 C5501 1.479 . S
C5499 H5517 0.929 . S
C5500 C5497 1.424 . S
C5500 C5499 1.384 . S
C5500 H5518 0.928 . S
C5501 C5498 1.260 . S
C5501 C5499 1.479 . S
C5502 C5497 1.245 . S
C5502 C5498 1.477 . S
C5502 H5519 0.932 . S
C5503 U5486 2.882 . S
C5503 C5497 1.428 . S
C5503 O5506 1.301 . S
C5503 O5507 1.282 . S
O5504 U5486 2.441 . S
O5504 C5490 1.249 . S
O5505 U5486 2.420 . S
O5505 C5490 1.202 . S
O5506 U5486 2.455 . S
O5506 C5503 1.301 . S
O5507 U5486 2.449 . S
O5507 C5503 1.282 . S
H5508 C5481 0.931 . S
H5509 C5483 0.929 . S
H5510 C5484 0.930 . S
H5511 C5485 0.931 . S
H5512 C5492 0.932 . S
H5513 C5493 0.930 . S
H5514 C5494 0.929 . S
H5515 C5496 0.930 . S
H5516 C5498 0.932 . S
H5517 C5499 0.929 . S
H5518 C5500 0.928 . S
H5519 C5502 0.932 . S
C5520 C5521 1.264 . S
C5520 C5525 1.479 . S
C5520 C5530 1.465 . S
C5521 C5520 1.264 . S
C5521 C5523 1.339 . S
C5521 H5548 0.931 . S
C5522 C5523 1.395 . S
C5522 C5524 1.320 . S
C5523 C5521 1.339 . S
C5523 C5522 1.395 . S
C5523 H5549 0.929 . S
C5524 C5522 1.320 . S
C5524 C5525 1.405 . S
C5524 H5550 0.930 . S
C5525 C5520 1.479 . S
C5525 C5524 1.405 . S
C5525 H5551 0.931 . S
U5526 O5527 2.454 . S
U5526 O5528 2.458 . S
U5526 C5529 2.984 . S
U5526 C5530 2.847 . S
U5526 C5543 2.882 . S
U5526 O5544 2.441 . S
U5526 O5545 2.420 . S
U5526 O5546 2.455 . S
U5526 O5547 2.449 . S
O5527 U5526 2.454 . S
O5527 C5529 1.353 . S
O5528 U5526 2.458 . S
O5528 C5529 1.286 . S
C5529 U5526 2.984 . S
C5529 O5527 1.353 . S
C5529 O5528 1.286 . S
C5529 C5531 1.363 . S
C5530 C5520 1.465 . S
C5530 U5526 2.847 . S
C5530 O5544 1.249 . S
C5530 O5545 1.202 . S
C5531 C5529 1.363 . S
C5531 C5533 1.408 . S
C5531 C5536 1.342 . S
C5532 C5533 1.310 . S
C5532 C5535 1.461 . S
C5532 H5552 0.932 . S
C5533 C5531 1.408 . S
C5533 C5532 1.310 . S
C5533 H5553 0.930 . S
C5534 C5535 1.474 . S
C5534 C5536 1.285 . S
C5534 H5554 0.929 . S
C5535 C5532 1.461 . S
C5535 C5534 1.474 . S
C5536 C5531 1.342 . S
C5536 C5534 1.285 . S
C5536 H5555 0.930 . S
C5537 C5540 1.424 . S
C5537 C5542 1.245 . S
C5537 C5543 1.428 . S
C5538 C5541 1.260 . S
C5538 C5542 1.477 . S
C5538 H5556 0.932 . S
C5539 C5540 1.384 . S
C5539 C5541 1.479 . S
C5539 H5557 0.929 . S
C5540 C5537 1.424 . S
C5540 C5539 1.384 . S
C5540 H5558 0.928 . S
C5541 C5538 1.260 . S
C5541 C5539 1.479 . S
C5542 C5537 1.245 . S
C5542 C5538 1.477 . S
C5542 H5559 0.932 . S
C5543 U5526 2.882 . S
C5543 C5537 1.428 . S
C5543 O5546 1.301 . S
C5543 O5547 1.282 . S
O5544 U5526 2.441 . S
O5544 C5530 1.249 . S
O5545 U5526 2.420 . S
O5545 C5530 1.202 . S
O5546 U5526 2.455 . S
O5546 C5543 1.301 . S
O5547 U5526 2.449 . S
O5547 C5543 1.282 . S
H5548 C5521 0.931 . S
H5549 C5523 0.929 . S
H5550 C5524 0.930 . S
H5551 C5525 0.931 . S
H5552 C5532 0.932 . S
H5553 C5533 0.930 . S
H5554 C5534 0.929 . S
H5555 C5536 0.930 . S
H5556 C5538 0.932 . S
H5557 C5539 0.929 . S
H5558 C5540 0.928 . S
H5559 C5542 0.932 . S
C5560 C5561 1.264 . S
C5560 C5565 1.479 . S
C5560 C5570 1.465 . S
C5561 C5560 1.264 . S
C5561 C5563 1.339 . S
C5561 H5588 0.931 . S
C5562 C5563 1.395 . S
C5562 C5564 1.320 . S
C5563 C5561 1.339 . S
C5563 C5562 1.395 . S
C5563 H5589 0.929 . S
C5564 C5562 1.320 . S
C5564 C5565 1.405 . S
C5564 H5590 0.930 . S
C5565 C5560 1.479 . S
C5565 C5564 1.405 . S
C5565 H5591 0.931 . S
U5566 O5567 2.454 . S
U5566 O5568 2.458 . S
U5566 C5569 2.984 . S
U5566 C5570 2.847 . S
U5566 C5583 2.882 . S
U5566 O5584 2.441 . S
U5566 O5585 2.420 . S
U5566 O5586 2.455 . S
U5566 O5587 2.449 . S
O5567 U5566 2.454 . S
O5567 C5569 1.353 . S
O5568 U5566 2.458 . S
O5568 C5569 1.286 . S
C5569 U5566 2.984 . S
C5569 O5567 1.353 . S
C5569 O5568 1.286 . S
C5569 C5571 1.363 . S
C5570 C5560 1.465 . S
C5570 U5566 2.847 . S
C5570 O5584 1.249 . S
C5570 O5585 1.202 . S
C5571 C5569 1.363 . S
C5571 C5573 1.408 . S
C5571 C5576 1.342 . S
C5572 C5573 1.310 . S
C5572 C5575 1.461 . S
C5572 H5592 0.932 . S
C5573 C5571 1.408 . S
C5573 C5572 1.310 . S
C5573 H5593 0.930 . S
C5574 C5575 1.474 . S
C5574 C5576 1.285 . S
C5574 H5594 0.929 . S
C5575 C5572 1.461 . S
C5575 C5574 1.474 . S
C5576 C5571 1.342 . S
C5576 C5574 1.285 . S
C5576 H5595 0.930 . S
C5577 C5580 1.424 . S
C5577 C5582 1.245 . S
C5577 C5583 1.428 . S
C5578 C5581 1.260 . S
C5578 C5582 1.477 . S
C5578 H5596 0.932 . S
C5579 C5580 1.384 . S
C5579 C5581 1.479 . S
C5579 H5597 0.929 . S
C5580 C5577 1.424 . S
C5580 C5579 1.384 . S
C5580 H5598 0.928 . S
C5581 C5578 1.260 . S
C5581 C5579 1.479 . S
C5582 C5577 1.245 . S
C5582 C5578 1.477 . S
C5582 H5599 0.932 . S
C5583 U5566 2.882 . S
C5583 C5577 1.428 . S
C5583 O5586 1.301 . S
C5583 O5587 1.282 . S
O5584 U5566 2.441 . S
O5584 C5570 1.249 . S
O5585 U5566 2.420 . S
O5585 C5570 1.202 . S
O5586 U5566 2.455 . S
O5586 C5583 1.301 . S
O5587 U5566 2.449 . S
O5587 C5583 1.282 . S
H5588 C5561 0.931 . S
H5589 C5563 0.929 . S
H5590 C5564 0.930 . S
H5591 C5565 0.931 . S
H5592 C5572 0.932 . S
H5593 C5573 0.930 . S
H5594 C5574 0.929 . S
H5595 C5576 0.930 . S
H5596 C5578 0.932 . S
H5597 C5579 0.929 . S
H5598 C5580 0.928 . S
H5599 C5582 0.932 . S
C5600 C5601 1.264 . S
C5600 C5605 1.479 . S
C5600 C5610 1.465 . S
C5601 C5600 1.264 . S
C5601 C5603 1.339 . S
C5601 H5628 0.931 . S
C5602 C5603 1.395 . S
C5602 C5604 1.320 . S
C5603 C5601 1.339 . S
C5603 C5602 1.395 . S
C5603 H5629 0.929 . S
C5604 C5602 1.320 . S
C5604 C5605 1.405 . S
C5604 H5630 0.930 . S
C5605 C5600 1.479 . S
C5605 C5604 1.405 . S
C5605 H5631 0.931 . S
U5606 O5607 2.454 . S
U5606 O5608 2.458 . S
U5606 C5609 2.984 . S
U5606 C5610 2.847 . S
U5606 C5623 2.882 . S
U5606 O5624 2.441 . S
U5606 O5625 2.420 . S
U5606 O5626 2.455 . S
U5606 O5627 2.449 . S
O5607 U5606 2.454 . S
O5607 C5609 1.353 . S
O5608 U5606 2.458 . S
O5608 C5609 1.286 . S
C5609 U5606 2.984 . S
C5609 O5607 1.353 . S
C5609 O5608 1.286 . S
C5609 C5611 1.363 . S
C5610 C5600 1.465 . S
C5610 U5606 2.847 . S
C5610 O5624 1.249 . S
C5610 O5625 1.202 . S
C5611 C5609 1.363 . S
C5611 C5613 1.408 . S
C5611 C5616 1.342 . S
C5612 C5613 1.310 . S
C5612 C5615 1.461 . S
C5612 H5632 0.932 . S
C5613 C5611 1.408 . S
C5613 C5612 1.310 . S
C5613 H5633 0.930 . S
C5614 C5615 1.474 . S
C5614 C5616 1.285 . S
C5614 H5634 0.929 . S
C5615 C5612 1.461 . S
C5615 C5614 1.474 . S
C5616 C5611 1.342 . S
C5616 C5614 1.285 . S
C5616 H5635 0.930 . S
C5617 C5620 1.424 . S
C5617 C5622 1.245 . S
C5617 C5623 1.428 . S
C5618 C5621 1.260 . S
C5618 C5622 1.477 . S
C5618 H5636 0.932 . S
C5619 C5620 1.384 . S
C5619 C5621 1.479 . S
C5619 H5637 0.929 . S
C5620 C5617 1.424 . S
C5620 C5619 1.384 . S
C5620 H5638 0.928 . S
C5621 C5618 1.260 . S
C5621 C5619 1.479 . S
C5622 C5617 1.245 . S
C5622 C5618 1.477 . S
C5622 H5639 0.932 . S
C5623 U5606 2.882 . S
C5623 C5617 1.428 . S
C5623 O5626 1.301 . S
C5623 O5627 1.282 . S
O5624 U5606 2.441 . S
O5624 C5610 1.249 . S
O5625 U5606 2.420 . S
O5625 C5610 1.202 . S
O5626 U5606 2.455 . S
O5626 C5623 1.301 . S
O5627 U5606 2.449 . S
O5627 C5623 1.282 . S
H5628 C5601 0.931 . S
H5629 C5603 0.929 . S
H5630 C5604 0.930 . S
H5631 C5605 0.931 . S
H5632 C5612 0.932 . S
H5633 C5613 0.930 . S
H5634 C5614 0.929 . S
H5635 C5616 0.930 . S
H5636 C5618 0.932 . S
H5637 C5619 0.929 . S
H5638 C5620 0.928 . S
H5639 C5622 0.932 . S
C5640 C5641 1.264 . S
C5640 C5645 1.479 . S
C5640 C5650 1.465 . S
C5641 C5640 1.264 . S
C5641 C5643 1.339 . S
C5641 H5668 0.931 . S
C5642 C5643 1.395 . S
C5642 C5644 1.320 . S
C5643 C5641 1.339 . S
C5643 C5642 1.395 . S
C5643 H5669 0.929 . S
C5644 C5642 1.320 . S
C5644 C5645 1.405 . S
C5644 H5670 0.930 . S
C5645 C5640 1.479 . S
C5645 C5644 1.405 . S
C5645 H5671 0.931 . S
U5646 O5647 2.454 . S
U5646 O5648 2.458 . S
U5646 C5649 2.984 . S
U5646 C5650 2.847 . S
U5646 C5663 2.882 . S
U5646 O5664 2.441 . S
U5646 O5665 2.420 . S
U5646 O5666 2.455 . S
U5646 O5667 2.449 . S
O5647 U5646 2.454 . S
O5647 C5649 1.353 . S
O5648 U5646 2.458 . S
O5648 C5649 1.286 . S
C5649 U5646 2.984 . S
C5649 O5647 1.353 . S
C5649 O5648 1.286 . S
C5649 C5651 1.363 . S
C5650 C5640 1.465 . S
C5650 U5646 2.847 . S
C5650 O5664 1.249 . S
C5650 O5665 1.202 . S
C5651 C5649 1.363 . S
C5651 C5653 1.408 . S
C5651 C5656 1.342 . S
C5652 C5653 1.310 . S
C5652 C5655 1.461 . S
C5652 H5672 0.932 . S
C5653 C5651 1.408 . S
C5653 C5652 1.310 . S
C5653 H5673 0.930 . S
C5654 C5655 1.474 . S
C5654 C5656 1.285 . S
C5654 H5674 0.929 . S
C5655 C5652 1.461 . S
C5655 C5654 1.474 . S
C5656 C5651 1.342 . S
C5656 C5654 1.285 . S
C5656 H5675 0.930 . S
C5657 C5660 1.424 . S
C5657 C5662 1.245 . S
C5657 C5663 1.428 . S
C5658 C5661 1.260 . S
C5658 C5662 1.477 . S
C5658 H5676 0.932 . S
C5659 C5660 1.384 . S
C5659 C5661 1.479 . S
C5659 H5677 0.929 . S
C5660 C5657 1.424 . S
C5660 C5659 1.384 . S
C5660 H5678 0.928 . S
C5661 C5658 1.260 . S
C5661 C5659 1.479 . S
C5662 C5657 1.245 . S
C5662 C5658 1.477 . S
C5662 H5679 0.932 . S
C5663 U5646 2.882 . S
C5663 C5657 1.428 . S
C5663 O5666 1.301 . S
C5663 O5667 1.282 . S
O5664 U5646 2.441 . S
O5664 C5650 1.249 . S
O5665 U5646 2.420 . S
O5665 C5650 1.202 . S
O5666 U5646 2.455 . S
O5666 C5663 1.301 . S
O5667 U5646 2.449 . S
O5667 C5663 1.282 . S
H5668 C5641 0.931 . S
H5669 C5643 0.929 . S
H5670 C5644 0.930 . S
H5671 C5645 0.931 . S
H5672 C5652 0.932 . S
H5673 C5653 0.930 . S
H5674 C5654 0.929 . S
H5675 C5656 0.930 . S
H5676 C5658 0.932 . S
H5677 C5659 0.929 . S
H5678 C5660 0.928 . S
H5679 C5662 0.932 . S
C5680 C5681 1.264 . S
C5680 C5685 1.479 . S
C5680 C5690 1.465 . S
C5681 C5680 1.264 . S
C5681 C5683 1.339 . S
C5681 H5708 0.931 . S
C5682 C5683 1.395 . S
C5682 C5684 1.320 . S
C5683 C5681 1.339 . S
C5683 C5682 1.395 . S
C5683 H5709 0.929 . S
C5684 C5682 1.320 . S
C5684 C5685 1.405 . S
C5684 H5710 0.930 . S
C5685 C5680 1.479 . S
C5685 C5684 1.405 . S
C5685 H5711 0.931 . S
U5686 O5687 2.454 . S
U5686 O5688 2.458 . S
U5686 C5689 2.984 . S
U5686 C5690 2.847 . S
U5686 C5703 2.882 . S
U5686 O5704 2.441 . S
U5686 O5705 2.420 . S
U5686 O5706 2.455 . S
U5686 O5707 2.449 . S
O5687 U5686 2.454 . S
O5687 C5689 1.353 . S
O5688 U5686 2.458 . S
O5688 C5689 1.286 . S
C5689 U5686 2.984 . S
C5689 O5687 1.353 . S
C5689 O5688 1.286 . S
C5689 C5691 1.363 . S
C5690 C5680 1.465 . S
C5690 U5686 2.847 . S
C5690 O5704 1.249 . S
C5690 O5705 1.202 . S
C5691 C5689 1.363 . S
C5691 C5693 1.408 . S
C5691 C5696 1.342 . S
C5692 C5693 1.310 . S
C5692 C5695 1.461 . S
C5692 H5712 0.932 . S
C5693 C5691 1.408 . S
C5693 C5692 1.310 . S
C5693 H5713 0.930 . S
C5694 C5695 1.474 . S
C5694 C5696 1.285 . S
C5694 H5714 0.929 . S
C5695 C5692 1.461 . S
C5695 C5694 1.474 . S
C5696 C5691 1.342 . S
C5696 C5694 1.285 . S
C5696 H5715 0.930 . S
C5697 C5700 1.424 . S
C5697 C5702 1.245 . S
C5697 C5703 1.428 . S
C5698 C5701 1.260 . S
C5698 C5702 1.477 . S
C5698 H5716 0.932 . S
C5699 C5700 1.384 . S
C5699 C5701 1.479 . S
C5699 H5717 0.929 . S
C5700 C5697 1.424 . S
C5700 C5699 1.384 . S
C5700 H5718 0.928 . S
C5701 C5698 1.260 . S
C5701 C5699 1.479 . S
C5702 C5697 1.245 . S
C5702 C5698 1.477 . S
C5702 H5719 0.932 . S
C5703 U5686 2.882 . S
C5703 C5697 1.428 . S
C5703 O5706 1.301 . S
C5703 O5707 1.282 . S
O5704 U5686 2.441 . S
O5704 C5690 1.249 . S
O5705 U5686 2.420 . S
O5705 C5690 1.202 . S
O5706 U5686 2.455 . S
O5706 C5703 1.301 . S
O5707 U5686 2.449 . S
O5707 C5703 1.282 . S
H5708 C5681 0.931 . S
H5709 C5683 0.929 . S
H5710 C5684 0.930 . S
H5711 C5685 0.931 . S
H5712 C5692 0.932 . S
H5713 C5693 0.930 . S
H5714 C5694 0.929 . S
H5715 C5696 0.930 . S
H5716 C5698 0.932 . S
H5717 C5699 0.929 . S
H5718 C5700 0.928 . S
H5719 C5702 0.932 . S
C5720 C5721 1.264 . S
C5720 C5725 1.479 . S
C5720 C5730 1.465 . S
C5721 C5720 1.264 . S
C5721 C5723 1.339 . S
C5721 H5748 0.931 . S
C5722 C5723 1.395 . S
C5722 C5724 1.320 . S
C5723 C5721 1.339 . S
C5723 C5722 1.395 . S
C5723 H5749 0.929 . S
C5724 C5722 1.320 . S
C5724 C5725 1.405 . S
C5724 H5750 0.930 . S
C5725 C5720 1.479 . S
C5725 C5724 1.405 . S
C5725 H5751 0.931 . S
U5726 O5727 2.454 . S
U5726 O5728 2.458 . S
U5726 C5729 2.984 . S
U5726 C5730 2.847 . S
U5726 C5743 2.882 . S
U5726 O5744 2.441 . S
U5726 O5745 2.420 . S
U5726 O5746 2.455 . S
U5726 O5747 2.449 . S
O5727 U5726 2.454 . S
O5727 C5729 1.353 . S
O5728 U5726 2.458 . S
O5728 C5729 1.286 . S
C5729 U5726 2.984 . S
C5729 O5727 1.353 . S
C5729 O5728 1.286 . S
C5729 C5731 1.363 . S
C5730 C5720 1.465 . S
C5730 U5726 2.847 . S
C5730 O5744 1.249 . S
C5730 O5745 1.202 . S
C5731 C5729 1.363 . S
C5731 C5733 1.408 . S
C5731 C5736 1.342 . S
C5732 C5733 1.310 . S
C5732 C5735 1.461 . S
C5732 H5752 0.932 . S
C5733 C5731 1.408 . S
C5733 C5732 1.310 . S
C5733 H5753 0.930 . S
C5734 C5735 1.474 . S
C5734 C5736 1.285 . S
C5734 H5754 0.929 . S
C5735 C5732 1.461 . S
C5735 C5734 1.474 . S
C5736 C5731 1.342 . S
C5736 C5734 1.285 . S
C5736 H5755 0.930 . S
C5737 C5740 1.424 . S
C5737 C5742 1.245 . S
C5737 C5743 1.428 . S
C5738 C5741 1.260 . S
C5738 C5742 1.477 . S
C5738 H5756 0.932 . S
C5739 C5740 1.384 . S
C5739 C5741 1.479 . S
C5739 H5757 0.929 . S
C5740 C5737 1.424 . S
C5740 C5739 1.384 . S
C5740 H5758 0.928 . S
C5741 C5738 1.260 . S
C5741 C5739 1.479 . S
C5742 C5737 1.245 . S
C5742 C5738 1.477 . S
C5742 H5759 0.932 . S
C5743 U5726 2.882 . S
C5743 C5737 1.428 . S
C5743 O5746 1.301 . S
C5743 O5747 1.282 . S
O5744 U5726 2.441 . S
O5744 C5730 1.249 . S
O5745 U5726 2.420 . S
O5745 C5730 1.202 . S
O5746 U5726 2.455 . S
O5746 C5743 1.301 . S
O5747 U5726 2.449 . S
O5747 C5743 1.282 . S
H5748 C5721 0.931 . S
H5749 C5723 0.929 . S
H5750 C5724 0.930 . S
H5751 C5725 0.931 . S
H5752 C5732 0.932 . S
H5753 C5733 0.930 . S
H5754 C5734 0.929 . S
H5755 C5736 0.930 . S
H5756 C5738 0.932 . S
H5757 C5739 0.929 . S
H5758 C5740 0.928 . S
H5759 C5742 0.932 . S
C5760 C5761 1.264 . S
C5760 C5765 1.479 . S
C5760 C5770 1.465 . S
C5761 C5760 1.264 . S
C5761 C5763 1.339 . S
C5761 H5788 0.931 . S
C5762 C5763 1.395 . S
C5762 C5764 1.320 . S
C5763 C5761 1.339 . S
C5763 C5762 1.395 . S
C5763 H5789 0.929 . S
C5764 C5762 1.320 . S
C5764 C5765 1.405 . S
C5764 H5790 0.930 . S
C5765 C5760 1.479 . S
C5765 C5764 1.405 . S
C5765 H5791 0.931 . S
U5766 O5767 2.454 . S
U5766 O5768 2.458 . S
U5766 C5769 2.984 . S
U5766 C5770 2.847 . S
U5766 C5783 2.882 . S
U5766 O5784 2.441 . S
U5766 O5785 2.420 . S
U5766 O5786 2.455 . S
U5766 O5787 2.449 . S
O5767 U5766 2.454 . S
O5767 C5769 1.353 . S
O5768 U5766 2.458 . S
O5768 C5769 1.286 . S
C5769 U5766 2.984 . S
C5769 O5767 1.353 . S
C5769 O5768 1.286 . S
C5769 C5771 1.363 . S
C5770 C5760 1.465 . S
C5770 U5766 2.847 . S
C5770 O5784 1.249 . S
C5770 O5785 1.202 . S
C5771 C5769 1.363 . S
C5771 C5773 1.408 . S
C5771 C5776 1.342 . S
C5772 C5773 1.310 . S
C5772 C5775 1.461 . S
C5772 H5792 0.932 . S
C5773 C5771 1.408 . S
C5773 C5772 1.310 . S
C5773 H5793 0.930 . S
C5774 C5775 1.474 . S
C5774 C5776 1.285 . S
C5774 H5794 0.929 . S
C5775 C5772 1.461 . S
C5775 C5774 1.474 . S
C5776 C5771 1.342 . S
C5776 C5774 1.285 . S
C5776 H5795 0.930 . S
C5777 C5780 1.424 . S
C5777 C5782 1.245 . S
C5777 C5783 1.428 . S
C5778 C5781 1.260 . S
C5778 C5782 1.477 . S
C5778 H5796 0.932 . S
C5779 C5780 1.384 . S
C5779 C5781 1.479 . S
C5779 H5797 0.929 . S
C5780 C5777 1.424 . S
C5780 C5779 1.384 . S
C5780 H5798 0.928 . S
C5781 C5778 1.260 . S
C5781 C5779 1.479 . S
C5782 C5777 1.245 . S
C5782 C5778 1.477 . S
C5782 H5799 0.932 . S
C5783 U5766 2.882 . S
C5783 C5777 1.428 . S
C5783 O5786 1.301 . S
C5783 O5787 1.282 . S
O5784 U5766 2.441 . S
O5784 C5770 1.249 . S
O5785 U5766 2.420 . S
O5785 C5770 1.202 . S
O5786 U5766 2.455 . S
O5786 C5783 1.301 . S
O5787 U5766 2.449 . S
O5787 C5783 1.282 . S
H5788 C5761 0.931 . S
H5789 C5763 0.929 . S
H5790 C5764 0.930 . S
H5791 C5765 0.931 . S
H5792 C5772 0.932 . S
H5793 C5773 0.930 . S
H5794 C5774 0.929 . S
H5795 C5776 0.930 . S
H5796 C5778 0.932 . S
H5797 C5779 0.929 . S
H5798 C5780 0.928 . S
H5799 C5782 0.932 . S
C5800 C5801 1.264 . S
C5800 C5805 1.479 . S
C5800 C5810 1.465 . S
C5801 C5800 1.264 . S
C5801 C5803 1.339 . S
C5801 H5828 0.931 . S
C5802 C5803 1.395 . S
C5802 C5804 1.320 . S
C5803 C5801 1.339 . S
C5803 C5802 1.395 . S
C5803 H5829 0.929 . S
C5804 C5802 1.320 . S
C5804 C5805 1.405 . S
C5804 H5830 0.930 . S
C5805 C5800 1.479 . S
C5805 C5804 1.405 . S
C5805 H5831 0.931 . S
U5806 O5807 2.454 . S
U5806 O5808 2.458 . S
U5806 C5809 2.984 . S
U5806 C5810 2.847 . S
U5806 C5823 2.882 . S
U5806 O5824 2.441 . S
U5806 O5825 2.420 . S
U5806 O5826 2.455 . S
U5806 O5827 2.449 . S
O5807 U5806 2.454 . S
O5807 C5809 1.353 . S
O5808 U5806 2.458 . S
O5808 C5809 1.286 . S
C5809 U5806 2.984 . S
C5809 O5807 1.353 . S
C5809 O5808 1.286 . S
C5809 C5811 1.363 . S
C5810 C5800 1.465 . S
C5810 U5806 2.847 . S
C5810 O5824 1.249 . S
C5810 O5825 1.202 . S
C5811 C5809 1.363 . S
C5811 C5813 1.408 . S
C5811 C5816 1.342 . S
C5812 C5813 1.310 . S
C5812 C5815 1.461 . S
C5812 H5832 0.932 . S
C5813 C5811 1.408 . S
C5813 C5812 1.310 . S
C5813 H5833 0.930 . S
C5814 C5815 1.474 . S
C5814 C5816 1.285 . S
C5814 H5834 0.929 . S
C5815 C5812 1.461 . S
C5815 C5814 1.474 . S
C5816 C5811 1.342 . S
C5816 C5814 1.285 . S
C5816 H5835 0.930 . S
C5817 C5820 1.424 . S
C5817 C5822 1.245 . S
C5817 C5823 1.428 . S
C5818 C5821 1.260 . S
C5818 C5822 1.477 . S
C5818 H5836 0.932 . S
C5819 C5820 1.384 . S
C5819 C5821 1.479 . S
C5819 H5837 0.929 . S
C5820 C5817 1.424 . S
C5820 C5819 1.384 . S
C5820 H5838 0.928 . S
C5821 C5818 1.260 . S
C5821 C5819 1.479 . S
C5822 C5817 1.245 . S
C5822 C5818 1.477 . S
C5822 H5839 0.932 . S
C5823 U5806 2.882 . S
C5823 C5817 1.428 . S
C5823 O5826 1.301 . S
C5823 O5827 1.282 . S
O5824 U5806 2.441 . S
O5824 C5810 1.249 . S
O5825 U5806 2.420 . S
O5825 C5810 1.202 . S
O5826 U5806 2.455 . S
O5826 C5823 1.301 . S
O5827 U5806 2.449 . S
O5827 C5823 1.282 . S
H5828 C5801 0.931 . S
H5829 C5803 0.929 . S
H5830 C5804 0.930 . S
H5831 C5805 0.931 . S
H5832 C5812 0.932 . S
H5833 C5813 0.930 . S
H5834 C5814 0.929 . S
H5835 C5816 0.930 . S
H5836 C5818 0.932 . S
H5837 C5819 0.929 . S
H5838 C5820 0.928 . S
H5839 C5822 0.932 . S
C5840 C5841 1.264 . S
C5840 C5845 1.479 . S
C5840 C5850 1.465 . S
C5841 C5840 1.264 . S
C5841 C5843 1.339 . S
C5841 H5868 0.931 . S
C5842 C5843 1.395 . S
C5842 C5844 1.320 . S
C5843 C5841 1.339 . S
C5843 C5842 1.395 . S
C5843 H5869 0.929 . S
C5844 C5842 1.320 . S
C5844 C5845 1.405 . S
C5844 H5870 0.930 . S
C5845 C5840 1.479 . S
C5845 C5844 1.405 . S
C5845 H5871 0.931 . S
U5846 O5847 2.454 . S
U5846 O5848 2.458 . S
U5846 C5849 2.984 . S
U5846 C5850 2.847 . S
U5846 C5863 2.882 . S
U5846 O5864 2.441 . S
U5846 O5865 2.420 . S
U5846 O5866 2.455 . S
U5846 O5867 2.449 . S
O5847 U5846 2.454 . S
O5847 C5849 1.353 . S
O5848 U5846 2.458 . S
O5848 C5849 1.286 . S
C5849 U5846 2.984 . S
C5849 O5847 1.353 . S
C5849 O5848 1.286 . S
C5849 C5851 1.363 . S
C5850 C5840 1.465 . S
C5850 U5846 2.847 . S
C5850 O5864 1.249 . S
C5850 O5865 1.202 . S
C5851 C5849 1.363 . S
C5851 C5853 1.408 . S
C5851 C5856 1.342 . S
C5852 C5853 1.310 . S
C5852 C5855 1.461 . S
C5852 H5872 0.932 . S
C5853 C5851 1.408 . S
C5853 C5852 1.310 . S
C5853 H5873 0.930 . S
C5854 C5855 1.474 . S
C5854 C5856 1.285 . S
C5854 H5874 0.929 . S
C5855 C5852 1.461 . S
C5855 C5854 1.474 . S
C5856 C5851 1.342 . S
C5856 C5854 1.285 . S
C5856 H5875 0.930 . S
C5857 C5860 1.424 . S
C5857 C5862 1.245 . S
C5857 C5863 1.428 . S
C5858 C5861 1.260 . S
C5858 C5862 1.477 . S
C5858 H5876 0.932 . S
C5859 C5860 1.384 . S
C5859 C5861 1.479 . S
C5859 H5877 0.929 . S
C5860 C5857 1.424 . S
C5860 C5859 1.384 . S
C5860 H5878 0.928 . S
C5861 C5858 1.260 . S
C5861 C5859 1.479 . S
C5862 C5857 1.245 . S
C5862 C5858 1.477 . S
C5862 H5879 0.932 . S
C5863 U5846 2.882 . S
C5863 C5857 1.428 . S
C5863 O5866 1.301 . S
C5863 O5867 1.282 . S
O5864 U5846 2.441 . S
O5864 C5850 1.249 . S
O5865 U5846 2.420 . S
O5865 C5850 1.202 . S
O5866 U5846 2.455 . S
O5866 C5863 1.301 . S
O5867 U5846 2.449 . S
O5867 C5863 1.282 . S
H5868 C5841 0.931 . S
H5869 C5843 0.929 . S
H5870 C5844 0.930 . S
H5871 C5845 0.931 . S
H5872 C5852 0.932 . S
H5873 C5853 0.930 . S
H5874 C5854 0.929 . S
H5875 C5856 0.930 . S
H5876 C5858 0.932 . S
H5877 C5859 0.929 . S
H5878 C5860 0.928 . S
H5879 C5862 0.932 . S
C5880 C5881 1.264 . S
C5880 C5885 1.479 . S
C5880 C5890 1.465 . S
C5881 C5880 1.264 . S
C5881 C5883 1.339 . S
C5881 H5908 0.931 . S
C5882 C5883 1.395 . S
C5882 C5884 1.320 . S
C5883 C5881 1.339 . S
C5883 C5882 1.395 . S
C5883 H5909 0.929 . S
C5884 C5882 1.320 . S
C5884 C5885 1.405 . S
C5884 H5910 0.930 . S
C5885 C5880 1.479 . S
C5885 C5884 1.405 . S
C5885 H5911 0.931 . S
U5886 O5887 2.454 . S
U5886 O5888 2.458 . S
U5886 C5889 2.984 . S
U5886 C5890 2.847 . S
U5886 C5903 2.882 . S
U5886 O5904 2.441 . S
U5886 O5905 2.420 . S
U5886 O5906 2.455 . S
U5886 O5907 2.449 . S
O5887 U5886 2.454 . S
O5887 C5889 1.353 . S
O5888 U5886 2.458 . S
O5888 C5889 1.286 . S
C5889 U5886 2.984 . S
C5889 O5887 1.353 . S
C5889 O5888 1.286 . S
C5889 C5891 1.363 . S
C5890 C5880 1.465 . S
C5890 U5886 2.847 . S
C5890 O5904 1.249 . S
C5890 O5905 1.202 . S
C5891 C5889 1.363 . S
C5891 C5893 1.408 . S
C5891 C5896 1.342 . S
C5892 C5893 1.310 . S
C5892 C5895 1.461 . S
C5892 H5912 0.932 . S
C5893 C5891 1.408 . S
C5893 C5892 1.310 . S
C5893 H5913 0.930 . S
C5894 C5895 1.474 . S
C5894 C5896 1.285 . S
C5894 H5914 0.929 . S
C5895 C5892 1.461 . S
C5895 C5894 1.474 . S
C5896 C5891 1.342 . S
C5896 C5894 1.285 . S
C5896 H5915 0.930 . S
C5897 C5900 1.424 . S
C5897 C5902 1.245 . S
C5897 C5903 1.428 . S
C5898 C5901 1.260 . S
C5898 C5902 1.477 . S
C5898 H5916 0.932 . S
C5899 C5900 1.384 . S
C5899 C5901 1.479 . S
C5899 H5917 0.929 . S
C5900 C5897 1.424 . S
C5900 C5899 1.384 . S
C5900 H5918 0.928 . S
C5901 C5898 1.260 . S
C5901 C5899 1.479 . S
C5902 C5897 1.245 . S
C5902 C5898 1.477 . S
C5902 H5919 0.932 . S
C5903 U5886 2.882 . S
C5903 C5897 1.428 . S
C5903 O5906 1.301 . S
C5903 O5907 1.282 . S
O5904 U5886 2.441 . S
O5904 C5890 1.249 . S
O5905 U5886 2.420 . S
O5905 C5890 1.202 . S
O5906 U5886 2.455 . S
O5906 C5903 1.301 . S
O5907 U5886 2.449 . S
O5907 C5903 1.282 . S
H5908 C5881 0.931 . S
H5909 C5883 0.929 . S
H5910 C5884 0.930 . S
H5911 C5885 0.931 . S
H5912 C5892 0.932 . S
H5913 C5893 0.930 . S
H5914 C5894 0.929 . S
H5915 C5896 0.930 . S
H5916 C5898 0.932 . S
H5917 C5899 0.929 . S
H5918 C5900 0.928 . S
H5919 C5902 0.932 . S
C5920 C5921 1.264 . S
C5920 C5925 1.479 . S
C5920 C5930 1.465 . S
C5921 C5920 1.264 . S
C5921 C5923 1.339 . S
C5921 H5948 0.931 . S
C5922 C5923 1.395 . S
C5922 C5924 1.320 . S
C5923 C5921 1.339 . S
C5923 C5922 1.395 . S
C5923 H5949 0.929 . S
C5924 C5922 1.320 . S
C5924 C5925 1.405 . S
C5924 H5950 0.930 . S
C5925 C5920 1.479 . S
C5925 C5924 1.405 . S
C5925 H5951 0.931 . S
U5926 O5927 2.454 . S
U5926 O5928 2.458 . S
U5926 C5929 2.984 . S
U5926 C5930 2.847 . S
U5926 C5943 2.882 . S
U5926 O5944 2.441 . S
U5926 O5945 2.420 . S
U5926 O5946 2.455 . S
U5926 O5947 2.449 . S
O5927 U5926 2.454 . S
O5927 C5929 1.353 . S
O5928 U5926 2.458 . S
O5928 C5929 1.286 . S
C5929 U5926 2.984 . S
C5929 O5927 1.353 . S
C5929 O5928 1.286 . S
C5929 C5931 1.363 . S
C5930 C5920 1.465 . S
C5930 U5926 2.847 . S
C5930 O5944 1.249 . S
C5930 O5945 1.202 . S
C5931 C5929 1.363 . S
C5931 C5933 1.408 . S
C5931 C5936 1.342 . S
C5932 C5933 1.310 . S
C5932 C5935 1.461 . S
C5932 H5952 0.932 . S
C5933 C5931 1.408 . S
C5933 C5932 1.310 . S
C5933 H5953 0.930 . S
C5934 C5935 1.474 . S
C5934 C5936 1.285 . S
C5934 H5954 0.929 . S
C5935 C5932 1.461 . S
C5935 C5934 1.474 . S
C5936 C5931 1.342 . S
C5936 C5934 1.285 . S
C5936 H5955 0.930 . S
C5937 C5940 1.424 . S
C5937 C5942 1.245 . S
C5937 C5943 1.428 . S
C5938 C5941 1.260 . S
C5938 C5942 1.477 . S
C5938 H5956 0.932 . S
C5939 C5940 1.384 . S
C5939 C5941 1.479 . S
C5939 H5957 0.929 . S
C5940 C5937 1.424 . S
C5940 C5939 1.384 . S
C5940 H5958 0.928 . S
C5941 C5938 1.260 . S
C5941 C5939 1.479 . S
C5942 C5937 1.245 . S
C5942 C5938 1.477 . S
C5942 H5959 0.932 . S
C5943 U5926 2.882 . S
C5943 C5937 1.428 . S
C5943 O5946 1.301 . S
C5943 O5947 1.282 . S
O5944 U5926 2.441 . S
O5944 C5930 1.249 . S
O5945 U5926 2.420 . S
O5945 C5930 1.202 . S
O5946 U5926 2.455 . S
O5946 C5943 1.301 . S
O5947 U5926 2.449 . S
O5947 C5943 1.282 . S
H5948 C5921 0.931 . S
H5949 C5923 0.929 . S
H5950 C5924 0.930 . S
H5951 C5925 0.931 . S
H5952 C5932 0.932 . S
H5953 C5933 0.930 . S
H5954 C5934 0.929 . S
H5955 C5936 0.930 . S
H5956 C5938 0.932 . S
H5957 C5939 0.929 . S
H5958 C5940 0.928 . S
H5959 C5942 0.932 . S
C5960 C5961 1.264 . S
C5960 C5965 1.479 . S
C5960 C5970 1.465 . S
C5961 C5960 1.264 . S
C5961 C5963 1.339 . S
C5961 H5988 0.931 . S
C5962 C5963 1.395 . S
C5962 C5964 1.320 . S
C5963 C5961 1.339 . S
C5963 C5962 1.395 . S
C5963 H5989 0.929 . S
C5964 C5962 1.320 . S
C5964 C5965 1.405 . S
C5964 H5990 0.930 . S
C5965 C5960 1.479 . S
C5965 C5964 1.405 . S
C5965 H5991 0.931 . S
U5966 O5967 2.454 . S
U5966 O5968 2.458 . S
U5966 C5969 2.984 . S
U5966 C5970 2.847 . S
U5966 C5983 2.882 . S
U5966 O5984 2.441 . S
U5966 O5985 2.420 . S
U5966 O5986 2.455 . S
U5966 O5987 2.449 . S
O5967 U5966 2.454 . S
O5967 C5969 1.353 . S
O5968 U5966 2.458 . S
O5968 C5969 1.286 . S
C5969 U5966 2.984 . S
C5969 O5967 1.353 . S
C5969 O5968 1.286 . S
C5969 C5971 1.363 . S
C5970 C5960 1.465 . S
C5970 U5966 2.847 . S
C5970 O5984 1.249 . S
C5970 O5985 1.202 . S
C5971 C5969 1.363 . S
C5971 C5973 1.408 . S
C5971 C5976 1.342 . S
C5972 C5973 1.310 . S
C5972 C5975 1.461 . S
C5972 H5992 0.932 . S
C5973 C5971 1.408 . S
C5973 C5972 1.310 . S
C5973 H5993 0.930 . S
C5974 C5975 1.474 . S
C5974 C5976 1.285 . S
C5974 H5994 0.929 . S
C5975 C5972 1.461 . S
C5975 C5974 1.474 . S
C5976 C5971 1.342 . S
C5976 C5974 1.285 . S
C5976 H5995 0.930 . S
C5977 C5980 1.424 . S
C5977 C5982 1.245 . S
C5977 C5983 1.428 . S
C5978 C5981 1.260 . S
C5978 C5982 1.477 . S
C5978 H5996 0.932 . S
C5979 C5980 1.384 . S
C5979 C5981 1.479 . S
C5979 H5997 0.929 . S
C5980 C5977 1.424 . S
C5980 C5979 1.384 . S
C5980 H5998 0.928 . S
C5981 C5978 1.260 . S
C5981 C5979 1.479 . S
C5982 C5977 1.245 . S
C5982 C5978 1.477 . S
C5982 H5999 0.932 . S
C5983 U5966 2.882 . S
C5983 C5977 1.428 . S
C5983 O5986 1.301 . S
C5983 O5987 1.282 . S
O5984 U5966 2.441 . S
O5984 C5970 1.249 . S
O5985 U5966 2.420 . S
O5985 C5970 1.202 . S
O5986 U5966 2.455 . S
O5986 C5983 1.301 . S
O5987 U5966 2.449 . S
O5987 C5983 1.282 . S
H5988 C5961 0.931 . S
H5989 C5963 0.929 . S
H5990 C5964 0.930 . S
H5991 C5965 0.931 . S
H5992 C5972 0.932 . S
H5993 C5973 0.930 . S
H5994 C5974 0.929 . S
H5995 C5976 0.930 . S
H5996 C5978 0.932 . S
H5997 C5979 0.929 . S
H5998 C5980 0.928 . S
H5999 C5982 0.932 . S
C6000 C6001 1.264 . S
C6000 C6005 1.479 . S
C6000 C6010 1.465 . S
C6001 C6000 1.264 . S
C6001 C6003 1.339 . S
C6001 H6028 0.931 . S
C6002 C6003 1.395 . S
C6002 C6004 1.320 . S
C6003 C6001 1.339 . S
C6003 C6002 1.395 . S
C6003 H6029 0.929 . S
C6004 C6002 1.320 . S
C6004 C6005 1.405 . S
C6004 H6030 0.930 . S
C6005 C6000 1.479 . S
C6005 C6004 1.405 . S
C6005 H6031 0.931 . S
U6006 O6007 2.454 . S
U6006 O6008 2.458 . S
U6006 C6009 2.984 . S
U6006 C6010 2.847 . S
U6006 C6023 2.882 . S
U6006 O6024 2.441 . S
U6006 O6025 2.420 . S
U6006 O6026 2.455 . S
U6006 O6027 2.449 . S
O6007 U6006 2.454 . S
O6007 C6009 1.353 . S
O6008 U6006 2.458 . S
O6008 C6009 1.286 . S
C6009 U6006 2.984 . S
C6009 O6007 1.353 . S
C6009 O6008 1.286 . S
C6009 C6011 1.363 . S
C6010 C6000 1.465 . S
C6010 U6006 2.847 . S
C6010 O6024 1.249 . S
C6010 O6025 1.202 . S
C6011 C6009 1.363 . S
C6011 C6013 1.408 . S
C6011 C6016 1.342 . S
C6012 C6013 1.310 . S
C6012 C6015 1.461 . S
C6012 H6032 0.932 . S
C6013 C6011 1.408 . S
C6013 C6012 1.310 . S
C6013 H6033 0.930 . S
C6014 C6015 1.474 . S
C6014 C6016 1.285 . S
C6014 H6034 0.929 . S
C6015 C6012 1.461 . S
C6015 C6014 1.474 . S
C6016 C6011 1.342 . S
C6016 C6014 1.285 . S
C6016 H6035 0.930 . S
C6017 C6020 1.424 . S
C6017 C6022 1.245 . S
C6017 C6023 1.428 . S
C6018 C6021 1.260 . S
C6018 C6022 1.477 . S
C6018 H6036 0.932 . S
C6019 C6020 1.384 . S
C6019 C6021 1.479 . S
C6019 H6037 0.929 . S
C6020 C6017 1.424 . S
C6020 C6019 1.384 . S
C6020 H6038 0.928 . S
C6021 C6018 1.260 . S
C6021 C6019 1.479 . S
C6022 C6017 1.245 . S
C6022 C6018 1.477 . S
C6022 H6039 0.932 . S
C6023 U6006 2.882 . S
C6023 C6017 1.428 . S
C6023 O6026 1.301 . S
C6023 O6027 1.282 . S
O6024 U6006 2.441 . S
O6024 C6010 1.249 . S
O6025 U6006 2.420 . S
O6025 C6010 1.202 . S
O6026 U6006 2.455 . S
O6026 C6023 1.301 . S
O6027 U6006 2.449 . S
O6027 C6023 1.282 . S
H6028 C6001 0.931 . S
H6029 C6003 0.929 . S
H6030 C6004 0.930 . S
H6031 C6005 0.931 . S
H6032 C6012 0.932 . S
H6033 C6013 0.930 . S
H6034 C6014 0.929 . S
H6035 C6016 0.930 . S
H6036 C6018 0.932 . S
H6037 C6019 0.929 . S
H6038 C6020 0.928 . S
H6039 C6022 0.932 . S
C6040 C6041 1.264 . S
C6040 C6045 1.479 . S
C6040 C6050 1.465 . S
C6041 C6040 1.264 . S
C6041 C6043 1.339 . S
C6041 H6068 0.931 . S
C6042 C6043 1.395 . S
C6042 C6044 1.320 . S
C6043 C6041 1.339 . S
C6043 C6042 1.395 . S
C6043 H6069 0.929 . S
C6044 C6042 1.320 . S
C6044 C6045 1.405 . S
C6044 H6070 0.930 . S
C6045 C6040 1.479 . S
C6045 C6044 1.405 . S
C6045 H6071 0.931 . S
U6046 O6047 2.454 . S
U6046 O6048 2.458 . S
U6046 C6049 2.984 . S
U6046 C6050 2.847 . S
U6046 C6063 2.882 . S
U6046 O6064 2.441 . S
U6046 O6065 2.420 . S
U6046 O6066 2.455 . S
U6046 O6067 2.449 . S
O6047 U6046 2.454 . S
O6047 C6049 1.353 . S
O6048 U6046 2.458 . S
O6048 C6049 1.286 . S
C6049 U6046 2.984 . S
C6049 O6047 1.353 . S
C6049 O6048 1.286 . S
C6049 C6051 1.363 . S
C6050 C6040 1.465 . S
C6050 U6046 2.847 . S
C6050 O6064 1.249 . S
C6050 O6065 1.202 . S
C6051 C6049 1.363 . S
C6051 C6053 1.408 . S
C6051 C6056 1.342 . S
C6052 C6053 1.310 . S
C6052 C6055 1.461 . S
C6052 H6072 0.932 . S
C6053 C6051 1.408 . S
C6053 C6052 1.310 . S
C6053 H6073 0.930 . S
C6054 C6055 1.474 . S
C6054 C6056 1.285 . S
C6054 H6074 0.929 . S
C6055 C6052 1.461 . S
C6055 C6054 1.474 . S
C6056 C6051 1.342 . S
C6056 C6054 1.285 . S
C6056 H6075 0.930 . S
C6057 C6060 1.424 . S
C6057 C6062 1.245 . S
C6057 C6063 1.428 . S
C6058 C6061 1.260 . S
C6058 C6062 1.477 . S
C6058 H6076 0.932 . S
C6059 C6060 1.384 . S
C6059 C6061 1.479 . S
C6059 H6077 0.929 . S
C6060 C6057 1.424 . S
C6060 C6059 1.384 . S
C6060 H6078 0.928 . S
C6061 C6058 1.260 . S
C6061 C6059 1.479 . S
C6062 C6057 1.245 . S
C6062 C6058 1.477 . S
C6062 H6079 0.932 . S
C6063 U6046 2.882 . S
C6063 C6057 1.428 . S
C6063 O6066 1.301 . S
C6063 O6067 1.282 . S
O6064 U6046 2.441 . S
O6064 C6050 1.249 . S
O6065 U6046 2.420 . S
O6065 C6050 1.202 . S
O6066 U6046 2.455 . S
O6066 C6063 1.301 . S
O6067 U6046 2.449 . S
O6067 C6063 1.282 . S
H6068 C6041 0.931 . S
H6069 C6043 0.929 . S
H6070 C6044 0.930 . S
H6071 C6045 0.931 . S
H6072 C6052 0.932 . S
H6073 C6053 0.930 . S
H6074 C6054 0.929 . S
H6075 C6056 0.930 . S
H6076 C6058 0.932 . S
H6077 C6059 0.929 . S
H6078 C6060 0.928 . S
H6079 C6062 0.932 . S
C6080 C6081 1.264 . S
C6080 C6085 1.479 . S
C6080 C6090 1.465 . S
C6081 C6080 1.264 . S
C6081 C6083 1.339 . S
C6081 H6108 0.931 . S
C6082 C6083 1.395 . S
C6082 C6084 1.320 . S
C6083 C6081 1.339 . S
C6083 C6082 1.395 . S
C6083 H6109 0.929 . S
C6084 C6082 1.320 . S
C6084 C6085 1.405 . S
C6084 H6110 0.930 . S
C6085 C6080 1.479 . S
C6085 C6084 1.405 . S
C6085 H6111 0.931 . S
U6086 O6087 2.454 . S
U6086 O6088 2.458 . S
U6086 C6089 2.984 . S
U6086 C6090 2.847 . S
U6086 C6103 2.882 . S
U6086 O6104 2.441 . S
U6086 O6105 2.420 . S
U6086 O6106 2.455 . S
U6086 O6107 2.449 . S
O6087 U6086 2.454 . S
O6087 C6089 1.353 . S
O6088 U6086 2.458 . S
O6088 C6089 1.286 . S
C6089 U6086 2.984 . S
C6089 O6087 1.353 . S
C6089 O6088 1.286 . S
C6089 C6091 1.363 . S
C6090 C6080 1.465 . S
C6090 U6086 2.847 . S
C6090 O6104 1.249 . S
C6090 O6105 1.202 . S
C6091 C6089 1.363 . S
C6091 C6093 1.408 . S
C6091 C6096 1.342 . S
C6092 C6093 1.310 . S
C6092 C6095 1.461 . S
C6092 H6112 0.932 . S
C6093 C6091 1.408 . S
C6093 C6092 1.310 . S
C6093 H6113 0.930 . S
C6094 C6095 1.474 . S
C6094 C6096 1.285 . S
C6094 H6114 0.929 . S
C6095 C6092 1.461 . S
C6095 C6094 1.474 . S
C6096 C6091 1.342 . S
C6096 C6094 1.285 . S
C6096 H6115 0.930 . S
C6097 C6100 1.424 . S
C6097 C6102 1.245 . S
C6097 C6103 1.428 . S
C6098 C6101 1.260 . S
C6098 C6102 1.477 . S
C6098 H6116 0.932 . S
C6099 C6100 1.384 . S
C6099 C6101 1.479 . S
C6099 H6117 0.929 . S
C6100 C6097 1.424 . S
C6100 C6099 1.384 . S
C6100 H6118 0.928 . S
C6101 C6098 1.260 . S
C6101 C6099 1.479 . S
C6102 C6097 1.245 . S
C6102 C6098 1.477 . S
C6102 H6119 0.932 . S
C6103 U6086 2.882 . S
C6103 C6097 1.428 . S
C6103 O6106 1.301 . S
C6103 O6107 1.282 . S
O6104 U6086 2.441 . S
O6104 C6090 1.249 . S
O6105 U6086 2.420 . S
O6105 C6090 1.202 . S
O6106 U6086 2.455 . S
O6106 C6103 1.301 . S
O6107 U6086 2.449 . S
O6107 C6103 1.282 . S
H6108 C6081 0.931 . S
H6109 C6083 0.929 . S
H6110 C6084 0.930 . S
H6111 C6085 0.931 . S
H6112 C6092 0.932 . S
H6113 C6093 0.930 . S
H6114 C6094 0.929 . S
H6115 C6096 0.930 . S
H6116 C6098 0.932 . S
H6117 C6099 0.929 . S
H6118 C6100 0.928 . S
H6119 C6102 0.932 . S
C6120 C6121 1.264 . S
C6120 C6125 1.479 . S
C6120 C6130 1.465 . S
C6121 C6120 1.264 . S
C6121 C6123 1.339 . S
C6121 H6148 0.931 . S
C6122 C6123 1.395 . S
C6122 C6124 1.320 . S
C6123 C6121 1.339 . S
C6123 C6122 1.395 . S
C6123 H6149 0.929 . S
C6124 C6122 1.320 . S
C6124 C6125 1.405 . S
C6124 H6150 0.930 . S
C6125 C6120 1.479 . S
C6125 C6124 1.405 . S
C6125 H6151 0.931 . S
U6126 O6127 2.454 . S
U6126 O6128 2.458 . S
U6126 C6129 2.984 . S
U6126 C6130 2.847 . S
U6126 C6143 2.882 . S
U6126 O6144 2.441 . S
U6126 O6145 2.420 . S
U6126 O6146 2.455 . S
U6126 O6147 2.449 . S
O6127 U6126 2.454 . S
O6127 C6129 1.353 . S
O6128 U6126 2.458 . S
O6128 C6129 1.286 . S
C6129 U6126 2.984 . S
C6129 O6127 1.353 . S
C6129 O6128 1.286 . S
C6129 C6131 1.363 . S
C6130 C6120 1.465 . S
C6130 U6126 2.847 . S
C6130 O6144 1.249 . S
C6130 O6145 1.202 . S
C6131 C6129 1.363 . S
C6131 C6133 1.408 . S
C6131 C6136 1.342 . S
C6132 C6133 1.310 . S
C6132 C6135 1.461 . S
C6132 H6152 0.932 . S
C6133 C6131 1.408 . S
C6133 C6132 1.310 . S
C6133 H6153 0.930 . S
C6134 C6135 1.474 . S
C6134 C6136 1.285 . S
C6134 H6154 0.929 . S
C6135 C6132 1.461 . S
C6135 C6134 1.474 . S
C6136 C6131 1.342 . S
C6136 C6134 1.285 . S
C6136 H6155 0.930 . S
C6137 C6140 1.424 . S
C6137 C6142 1.245 . S
C6137 C6143 1.428 . S
C6138 C6141 1.260 . S
C6138 C6142 1.477 . S
C6138 H6156 0.932 . S
C6139 C6140 1.384 . S
C6139 C6141 1.479 . S
C6139 H6157 0.929 . S
C6140 C6137 1.424 . S
C6140 C6139 1.384 . S
C6140 H6158 0.928 . S
C6141 C6138 1.260 . S
C6141 C6139 1.479 . S
C6142 C6137 1.245 . S
C6142 C6138 1.477 . S
C6142 H6159 0.932 . S
C6143 U6126 2.882 . S
C6143 C6137 1.428 . S
C6143 O6146 1.301 . S
C6143 O6147 1.282 . S
O6144 U6126 2.441 . S
O6144 C6130 1.249 . S
O6145 U6126 2.420 . S
O6145 C6130 1.202 . S
O6146 U6126 2.455 . S
O6146 C6143 1.301 . S
O6147 U6126 2.449 . S
O6147 C6143 1.282 . S
H6148 C6121 0.931 . S
H6149 C6123 0.929 . S
H6150 C6124 0.930 . S
H6151 C6125 0.931 . S
H6152 C6132 0.932 . S
H6153 C6133 0.930 . S
H6154 C6134 0.929 . S
H6155 C6136 0.930 . S
H6156 C6138 0.932 . S
H6157 C6139 0.929 . S
H6158 C6140 0.928 . S
H6159 C6142 0.932 . S
C6160 C6161 1.264 . S
C6160 C6165 1.479 . S
C6160 C6170 1.465 . S
C6161 C6160 1.264 . S
C6161 C6163 1.339 . S
C6161 H6188 0.931 . S
C6162 C6163 1.395 . S
C6162 C6164 1.320 . S
C6163 C6161 1.339 . S
C6163 C6162 1.395 . S
C6163 H6189 0.929 . S
C6164 C6162 1.320 . S
C6164 C6165 1.405 . S
C6164 H6190 0.930 . S
C6165 C6160 1.479 . S
C6165 C6164 1.405 . S
C6165 H6191 0.931 . S
U6166 O6167 2.454 . S
U6166 O6168 2.458 . S
U6166 C6169 2.984 . S
U6166 C6170 2.847 . S
U6166 C6183 2.882 . S
U6166 O6184 2.441 . S
U6166 O6185 2.420 . S
U6166 O6186 2.455 . S
U6166 O6187 2.449 . S
O6167 U6166 2.454 . S
O6167 C6169 1.353 . S
O6168 U6166 2.458 . S
O6168 C6169 1.286 . S
C6169 U6166 2.984 . S
C6169 O6167 1.353 . S
C6169 O6168 1.286 . S
C6169 C6171 1.363 . S
C6170 C6160 1.465 . S
C6170 U6166 2.847 . S
C6170 O6184 1.249 . S
C6170 O6185 1.202 . S
C6171 C6169 1.363 . S
C6171 C6173 1.408 . S
C6171 C6176 1.342 . S
C6172 C6173 1.310 . S
C6172 C6175 1.461 . S
C6172 H6192 0.932 . S
C6173 C6171 1.408 . S
C6173 C6172 1.310 . S
C6173 H6193 0.930 . S
C6174 C6175 1.474 . S
C6174 C6176 1.285 . S
C6174 H6194 0.929 . S
C6175 C6172 1.461 . S
C6175 C6174 1.474 . S
C6176 C6171 1.342 . S
C6176 C6174 1.285 . S
C6176 H6195 0.930 . S
C6177 C6180 1.424 . S
C6177 C6182 1.245 . S
C6177 C6183 1.428 . S
C6178 C6181 1.260 . S
C6178 C6182 1.477 . S
C6178 H6196 0.932 . S
C6179 C6180 1.384 . S
C6179 C6181 1.479 . S
C6179 H6197 0.929 . S
C6180 C6177 1.424 . S
C6180 C6179 1.384 . S
C6180 H6198 0.928 . S
C6181 C6178 1.260 . S
C6181 C6179 1.479 . S
C6182 C6177 1.245 . S
C6182 C6178 1.477 . S
C6182 H6199 0.932 . S
C6183 U6166 2.882 . S
C6183 C6177 1.428 . S
C6183 O6186 1.301 . S
C6183 O6187 1.282 . S
O6184 U6166 2.441 . S
O6184 C6170 1.249 . S
O6185 U6166 2.420 . S
O6185 C6170 1.202 . S
O6186 U6166 2.455 . S
O6186 C6183 1.301 . S
O6187 U6166 2.449 . S
O6187 C6183 1.282 . S
H6188 C6161 0.931 . S
H6189 C6163 0.929 . S
H6190 C6164 0.930 . S
H6191 C6165 0.931 . S
H6192 C6172 0.932 . S
H6193 C6173 0.930 . S
H6194 C6174 0.929 . S
H6195 C6176 0.930 . S
H6196 C6178 0.932 . S
H6197 C6179 0.929 . S
H6198 C6180 0.928 . S
H6199 C6182 0.932 . S
C6200 C6201 1.264 . S
C6200 C6205 1.479 . S
C6200 C6210 1.465 . S
C6201 C6200 1.264 . S
C6201 C6203 1.339 . S
C6201 H6228 0.931 . S
C6202 C6203 1.395 . S
C6202 C6204 1.320 . S
C6203 C6201 1.339 . S
C6203 C6202 1.395 . S
C6203 H6229 0.929 . S
C6204 C6202 1.320 . S
C6204 C6205 1.405 . S
C6204 H6230 0.930 . S
C6205 C6200 1.479 . S
C6205 C6204 1.405 . S
C6205 H6231 0.931 . S
U6206 O6207 2.454 . S
U6206 O6208 2.458 . S
U6206 C6209 2.984 . S
U6206 C6210 2.847 . S
U6206 C6223 2.882 . S
U6206 O6224 2.441 . S
U6206 O6225 2.420 . S
U6206 O6226 2.455 . S
U6206 O6227 2.449 . S
O6207 U6206 2.454 . S
O6207 C6209 1.353 . S
O6208 U6206 2.458 . S
O6208 C6209 1.286 . S
C6209 U6206 2.984 . S
C6209 O6207 1.353 . S
C6209 O6208 1.286 . S
C6209 C6211 1.363 . S
C6210 C6200 1.465 . S
C6210 U6206 2.847 . S
C6210 O6224 1.249 . S
C6210 O6225 1.202 . S
C6211 C6209 1.363 . S
C6211 C6213 1.408 . S
C6211 C6216 1.342 . S
C6212 C6213 1.310 . S
C6212 C6215 1.461 . S
C6212 H6232 0.932 . S
C6213 C6211 1.408 . S
C6213 C6212 1.310 . S
C6213 H6233 0.930 . S
C6214 C6215 1.474 . S
C6214 C6216 1.285 . S
C6214 H6234 0.929 . S
C6215 C6212 1.461 . S
C6215 C6214 1.474 . S
C6216 C6211 1.342 . S
C6216 C6214 1.285 . S
C6216 H6235 0.930 . S
C6217 C6220 1.424 . S
C6217 C6222 1.245 . S
C6217 C6223 1.428 . S
C6218 C6221 1.260 . S
C6218 C6222 1.477 . S
C6218 H6236 0.932 . S
C6219 C6220 1.384 . S
C6219 C6221 1.479 . S
C6219 H6237 0.929 . S
C6220 C6217 1.424 . S
C6220 C6219 1.384 . S
C6220 H6238 0.928 . S
C6221 C6218 1.260 . S
C6221 C6219 1.479 . S
C6222 C6217 1.245 . S
C6222 C6218 1.477 . S
C6222 H6239 0.932 . S
C6223 U6206 2.882 . S
C6223 C6217 1.428 . S
C6223 O6226 1.301 . S
C6223 O6227 1.282 . S
O6224 U6206 2.441 . S
O6224 C6210 1.249 . S
O6225 U6206 2.420 . S
O6225 C6210 1.202 . S
O6226 U6206 2.455 . S
O6226 C6223 1.301 . S
O6227 U6206 2.449 . S
O6227 C6223 1.282 . S
H6228 C6201 0.931 . S
H6229 C6203 0.929 . S
H6230 C6204 0.930 . S
H6231 C6205 0.931 . S
H6232 C6212 0.932 . S
H6233 C6213 0.930 . S
H6234 C6214 0.929 . S
H6235 C6216 0.930 . S
H6236 C6218 0.932 . S
H6237 C6219 0.929 . S
H6238 C6220 0.928 . S
H6239 C6222 0.932 . S
C6240 C6241 1.264 . S
C6240 C6245 1.479 . S
C6240 C6250 1.465 . S
C6241 C6240 1.264 . S
C6241 C6243 1.339 . S
C6241 H6268 0.931 . S
C6242 C6243 1.395 . S
C6242 C6244 1.320 . S
C6243 C6241 1.339 . S
C6243 C6242 1.395 . S
C6243 H6269 0.929 . S
C6244 C6242 1.320 . S
C6244 C6245 1.405 . S
C6244 H6270 0.930 . S
C6245 C6240 1.479 . S
C6245 C6244 1.405 . S
C6245 H6271 0.931 . S
U6246 O6247 2.454 . S
U6246 O6248 2.458 . S
U6246 C6249 2.984 . S
U6246 C6250 2.847 . S
U6246 C6263 2.882 . S
U6246 O6264 2.441 . S
U6246 O6265 2.420 . S
U6246 O6266 2.455 . S
U6246 O6267 2.449 . S
O6247 U6246 2.454 . S
O6247 C6249 1.353 . S
O6248 U6246 2.458 . S
O6248 C6249 1.286 . S
C6249 U6246 2.984 . S
C6249 O6247 1.353 . S
C6249 O6248 1.286 . S
C6249 C6251 1.363 . S
C6250 C6240 1.465 . S
C6250 U6246 2.847 . S
C6250 O6264 1.249 . S
C6250 O6265 1.202 . S
C6251 C6249 1.363 . S
C6251 C6253 1.408 . S
C6251 C6256 1.342 . S
C6252 C6253 1.310 . S
C6252 C6255 1.461 . S
C6252 H6272 0.932 . S
C6253 C6251 1.408 . S
C6253 C6252 1.310 . S
C6253 H6273 0.930 . S
C6254 C6255 1.474 . S
C6254 C6256 1.285 . S
C6254 H6274 0.929 . S
C6255 C6252 1.461 . S
C6255 C6254 1.474 . S
C6256 C6251 1.342 . S
C6256 C6254 1.285 . S
C6256 H6275 0.930 . S
C6257 C6260 1.424 . S
C6257 C6262 1.245 . S
C6257 C6263 1.428 . S
C6258 C6261 1.260 . S
C6258 C6262 1.477 . S
C6258 H6276 0.932 . S
C6259 C6260 1.384 . S
C6259 C6261 1.479 . S
C6259 H6277 0.929 . S
C6260 C6257 1.424 . S
C6260 C6259 1.384 . S
C6260 H6278 0.928 . S
C6261 C6258 1.260 . S
C6261 C6259 1.479 . S
C6262 C6257 1.245 . S
C6262 C6258 1.477 . S
C6262 H6279 0.932 . S
C6263 U6246 2.882 . S
C6263 C6257 1.428 . S
C6263 O6266 1.301 . S
C6263 O6267 1.282 . S
O6264 U6246 2.441 . S
O6264 C6250 1.249 . S
O6265 U6246 2.420 . S
O6265 C6250 1.202 . S
O6266 U6246 2.455 . S
O6266 C6263 1.301 . S
O6267 U6246 2.449 . S
O6267 C6263 1.282 . S
H6268 C6241 0.931 . S
H6269 C6243 0.929 . S
H6270 C6244 0.930 . S
H6271 C6245 0.931 . S
H6272 C6252 0.932 . S
H6273 C6253 0.930 . S
H6274 C6254 0.929 . S
H6275 C6256 0.930 . S
H6276 C6258 0.932 . S
H6277 C6259 0.929 . S
H6278 C6260 0.928 . S
H6279 C6262 0.932 . S
C6280 C6281 1.264 . S
C6280 C6285 1.479 . S
C6280 C6290 1.465 . S
C6281 C6280 1.264 . S
C6281 C6283 1.339 . S
C6281 H6308 0.931 . S
C6282 C6283 1.395 . S
C6282 C6284 1.320 . S
C6283 C6281 1.339 . S
C6283 C6282 1.395 . S
C6283 H6309 0.929 . S
C6284 C6282 1.320 . S
C6284 C6285 1.405 . S
C6284 H6310 0.930 . S
C6285 C6280 1.479 . S
C6285 C6284 1.405 . S
C6285 H6311 0.931 . S
U6286 O6287 2.454 . S
U6286 O6288 2.458 . S
U6286 C6289 2.984 . S
U6286 C6290 2.847 . S
U6286 C6303 2.882 . S
U6286 O6304 2.441 . S
U6286 O6305 2.420 . S
U6286 O6306 2.455 . S
U6286 O6307 2.449 . S
O6287 U6286 2.454 . S
O6287 C6289 1.353 . S
O6288 U6286 2.458 . S
O6288 C6289 1.286 . S
C6289 U6286 2.984 . S
C6289 O6287 1.353 . S
C6289 O6288 1.286 . S
C6289 C6291 1.363 . S
C6290 C6280 1.465 . S
C6290 U6286 2.847 . S
C6290 O6304 1.249 . S
C6290 O6305 1.202 . S
C6291 C6289 1.363 . S
C6291 C6293 1.408 . S
C6291 C6296 1.342 . S
C6292 C6293 1.310 . S
C6292 C6295 1.461 . S
C6292 H6312 0.932 . S
C6293 C6291 1.408 . S
C6293 C6292 1.310 . S
C6293 H6313 0.930 . S
C6294 C6295 1.474 . S
C6294 C6296 1.285 . S
C6294 H6314 0.929 . S
C6295 C6292 1.461 . S
C6295 C6294 1.474 . S
C6296 C6291 1.342 . S
C6296 C6294 1.285 . S
C6296 H6315 0.930 . S
C6297 C6300 1.424 . S
C6297 C6302 1.245 . S
C6297 C6303 1.428 . S
C6298 C6301 1.260 . S
C6298 C6302 1.477 . S
C6298 H6316 0.932 . S
C6299 C6300 1.384 . S
C6299 C6301 1.479 . S
C6299 H6317 0.929 . S
C6300 C6297 1.424 . S
C6300 C6299 1.384 . S
C6300 H6318 0.928 . S
C6301 C6298 1.260 . S
C6301 C6299 1.479 . S
C6302 C6297 1.245 . S
C6302 C6298 1.477 . S
C6302 H6319 0.932 . S
C6303 U6286 2.882 . S
C6303 C6297 1.428 . S
C6303 O6306 1.301 . S
C6303 O6307 1.282 . S
O6304 U6286 2.441 . S
O6304 C6290 1.249 . S
O6305 U6286 2.420 . S
O6305 C6290 1.202 . S
O6306 U6286 2.455 . S
O6306 C6303 1.301 . S
O6307 U6286 2.449 . S
O6307 C6303 1.282 . S
H6308 C6281 0.931 . S
H6309 C6283 0.929 . S
H6310 C6284 0.930 . S
H6311 C6285 0.931 . S
H6312 C6292 0.932 . S
H6313 C6293 0.930 . S
H6314 C6294 0.929 . S
H6315 C6296 0.930 . S
H6316 C6298 0.932 . S
H6317 C6299 0.929 . S
H6318 C6300 0.928 . S
H6319 C6302 0.932 . S
C6320 C6321 1.264 . S
C6320 C6325 1.479 . S
C6320 C6330 1.465 . S
C6321 C6320 1.264 . S
C6321 C6323 1.339 . S
C6321 H6348 0.931 . S
C6322 C6323 1.395 . S
C6322 C6324 1.320 . S
C6323 C6321 1.339 . S
C6323 C6322 1.395 . S
C6323 H6349 0.929 . S
C6324 C6322 1.320 . S
C6324 C6325 1.405 . S
C6324 H6350 0.930 . S
C6325 C6320 1.479 . S
C6325 C6324 1.405 . S
C6325 H6351 0.931 . S
U6326 O6327 2.454 . S
U6326 O6328 2.458 . S
U6326 C6329 2.984 . S
U6326 C6330 2.847 . S
U6326 C6343 2.882 . S
U6326 O6344 2.441 . S
U6326 O6345 2.420 . S
U6326 O6346 2.455 . S
U6326 O6347 2.449 . S
O6327 U6326 2.454 . S
O6327 C6329 1.353 . S
O6328 U6326 2.458 . S
O6328 C6329 1.286 . S
C6329 U6326 2.984 . S
C6329 O6327 1.353 . S
C6329 O6328 1.286 . S
C6329 C6331 1.363 . S
C6330 C6320 1.465 . S
C6330 U6326 2.847 . S
C6330 O6344 1.249 . S
C6330 O6345 1.202 . S
C6331 C6329 1.363 . S
C6331 C6333 1.408 . S
C6331 C6336 1.342 . S
C6332 C6333 1.310 . S
C6332 C6335 1.461 . S
C6332 H6352 0.932 . S
C6333 C6331 1.408 . S
C6333 C6332 1.310 . S
C6333 H6353 0.930 . S
C6334 C6335 1.474 . S
C6334 C6336 1.285 . S
C6334 H6354 0.929 . S
C6335 C6332 1.461 . S
C6335 C6334 1.474 . S
C6336 C6331 1.342 . S
C6336 C6334 1.285 . S
C6336 H6355 0.930 . S
C6337 C6340 1.424 . S
C6337 C6342 1.245 . S
C6337 C6343 1.428 . S
C6338 C6341 1.260 . S
C6338 C6342 1.477 . S
C6338 H6356 0.932 . S
C6339 C6340 1.384 . S
C6339 C6341 1.479 . S
C6339 H6357 0.929 . S
C6340 C6337 1.424 . S
C6340 C6339 1.384 . S
C6340 H6358 0.928 . S
C6341 C6338 1.260 . S
C6341 C6339 1.479 . S
C6342 C6337 1.245 . S
C6342 C6338 1.477 . S
C6342 H6359 0.932 . S
C6343 U6326 2.882 . S
C6343 C6337 1.428 . S
C6343 O6346 1.301 . S
C6343 O6347 1.282 . S
O6344 U6326 2.441 . S
O6344 C6330 1.249 . S
O6345 U6326 2.420 . S
O6345 C6330 1.202 . S
O6346 U6326 2.455 . S
O6346 C6343 1.301 . S
O6347 U6326 2.449 . S
O6347 C6343 1.282 . S
H6348 C6321 0.931 . S
H6349 C6323 0.929 . S
H6350 C6324 0.930 . S
H6351 C6325 0.931 . S
H6352 C6332 0.932 . S
H6353 C6333 0.930 . S
H6354 C6334 0.929 . S
H6355 C6336 0.930 . S
H6356 C6338 0.932 . S
H6357 C6339 0.929 . S
H6358 C6340 0.928 . S
H6359 C6342 0.932 . S
C6360 C6361 1.264 . S
C6360 C6365 1.479 . S
C6360 C6370 1.465 . S
C6361 C6360 1.264 . S
C6361 C6363 1.339 . S
C6361 H6388 0.931 . S
C6362 C6363 1.395 . S
C6362 C6364 1.320 . S
C6363 C6361 1.339 . S
C6363 C6362 1.395 . S
C6363 H6389 0.929 . S
C6364 C6362 1.320 . S
C6364 C6365 1.405 . S
C6364 H6390 0.930 . S
C6365 C6360 1.479 . S
C6365 C6364 1.405 . S
C6365 H6391 0.931 . S
U6366 O6367 2.454 . S
U6366 O6368 2.458 . S
U6366 C6369 2.984 . S
U6366 C6370 2.847 . S
U6366 C6383 2.882 . S
U6366 O6384 2.441 . S
U6366 O6385 2.420 . S
U6366 O6386 2.455 . S
U6366 O6387 2.449 . S
O6367 U6366 2.454 . S
O6367 C6369 1.353 . S
O6368 U6366 2.458 . S
O6368 C6369 1.286 . S
C6369 U6366 2.984 . S
C6369 O6367 1.353 . S
C6369 O6368 1.286 . S
C6369 C6371 1.363 . S
C6370 C6360 1.465 . S
C6370 U6366 2.847 . S
C6370 O6384 1.249 . S
C6370 O6385 1.202 . S
C6371 C6369 1.363 . S
C6371 C6373 1.408 . S
C6371 C6376 1.342 . S
C6372 C6373 1.310 . S
C6372 C6375 1.461 . S
C6372 H6392 0.932 . S
C6373 C6371 1.408 . S
C6373 C6372 1.310 . S
C6373 H6393 0.930 . S
C6374 C6375 1.474 . S
C6374 C6376 1.285 . S
C6374 H6394 0.929 . S
C6375 C6372 1.461 . S
C6375 C6374 1.474 . S
C6376 C6371 1.342 . S
C6376 C6374 1.285 . S
C6376 H6395 0.930 . S
C6377 C6380 1.424 . S
C6377 C6382 1.245 . S
C6377 C6383 1.428 . S
C6378 C6381 1.260 . S
C6378 C6382 1.477 . S
C6378 H6396 0.932 . S
C6379 C6380 1.384 . S
C6379 C6381 1.479 . S
C6379 H6397 0.929 . S
C6380 C6377 1.424 . S
C6380 C6379 1.384 . S
C6380 H6398 0.928 . S
C6381 C6378 1.260 . S
C6381 C6379 1.479 . S
C6382 C6377 1.245 . S
C6382 C6378 1.477 . S
C6382 H6399 0.932 . S
C6383 U6366 2.882 . S
C6383 C6377 1.428 . S
C6383 O6386 1.301 . S
C6383 O6387 1.282 . S
O6384 U6366 2.441 . S
O6384 C6370 1.249 . S
O6385 U6366 2.420 . S
O6385 C6370 1.202 . S
O6386 U6366 2.455 . S
O6386 C6383 1.301 . S
O6387 U6366 2.449 . S
O6387 C6383 1.282 . S
H6388 C6361 0.931 . S
H6389 C6363 0.929 . S
H6390 C6364 0.930 . S
H6391 C6365 0.931 . S
H6392 C6372 0.932 . S
H6393 C6373 0.930 . S
H6394 C6374 0.929 . S
H6395 C6376 0.930 . S
H6396 C6378 0.932 . S
H6397 C6379 0.929 . S
H6398 C6380 0.928 . S
H6399 C6382 0.932 . S
C6400 C6401 1.264 . S
C6400 C6405 1.479 . S
C6400 C6410 1.465 . S
C6401 C6400 1.264 . S
C6401 C6403 1.339 . S
C6401 H6428 0.931 . S
C6402 C6403 1.395 . S
C6402 C6404 1.320 . S
C6403 C6401 1.339 . S
C6403 C6402 1.395 . S
C6403 H6429 0.929 . S
C6404 C6402 1.320 . S
C6404 C6405 1.405 . S
C6404 H6430 0.930 . S
C6405 C6400 1.479 . S
C6405 C6404 1.405 . S
C6405 H6431 0.931 . S
U6406 O6407 2.454 . S
U6406 O6408 2.458 . S
U6406 C6409 2.984 . S
U6406 C6410 2.847 . S
U6406 C6423 2.882 . S
U6406 O6424 2.441 . S
U6406 O6425 2.420 . S
U6406 O6426 2.455 . S
U6406 O6427 2.449 . S
O6407 U6406 2.454 . S
O6407 C6409 1.353 . S
O6408 U6406 2.458 . S
O6408 C6409 1.286 . S
C6409 U6406 2.984 . S
C6409 O6407 1.353 . S
C6409 O6408 1.286 . S
C6409 C6411 1.363 . S
C6410 C6400 1.465 . S
C6410 U6406 2.847 . S
C6410 O6424 1.249 . S
C6410 O6425 1.202 . S
C6411 C6409 1.363 . S
C6411 C6413 1.408 . S
C6411 C6416 1.342 . S
C6412 C6413 1.310 . S
C6412 C6415 1.461 . S
C6412 H6432 0.932 . S
C6413 C6411 1.408 . S
C6413 C6412 1.310 . S
C6413 H6433 0.930 . S
C6414 C6415 1.474 . S
C6414 C6416 1.285 . S
C6414 H6434 0.929 . S
C6415 C6412 1.461 . S
C6415 C6414 1.474 . S
C6416 C6411 1.342 . S
C6416 C6414 1.285 . S
C6416 H6435 0.930 . S
C6417 C6420 1.424 . S
C6417 C6422 1.245 . S
C6417 C6423 1.428 . S
C6418 C6421 1.260 . S
C6418 C6422 1.477 . S
C6418 H6436 0.932 . S
C6419 C6420 1.384 . S
C6419 C6421 1.479 . S
C6419 H6437 0.929 . S
C6420 C6417 1.424 . S
C6420 C6419 1.384 . S
C6420 H6438 0.928 . S
C6421 C6418 1.260 . S
C6421 C6419 1.479 . S
C6422 C6417 1.245 . S
C6422 C6418 1.477 . S
C6422 H6439 0.932 . S
C6423 U6406 2.882 . S
C6423 C6417 1.428 . S
C6423 O6426 1.301 . S
C6423 O6427 1.282 . S
O6424 U6406 2.441 . S
O6424 C6410 1.249 . S
O6425 U6406 2.420 . S
O6425 C6410 1.202 . S
O6426 U6406 2.455 . S
O6426 C6423 1.301 . S
O6427 U6406 2.449 . S
O6427 C6423 1.282 . S
H6428 C6401 0.931 . S
H6429 C6403 0.929 . S
H6430 C6404 0.930 . S
H6431 C6405 0.931 . S
H6432 C6412 0.932 . S
H6433 C6413 0.930 . S
H6434 C6414 0.929 . S
H6435 C6416 0.930 . S
H6436 C6418 0.932 . S
H6437 C6419 0.929 . S
H6438 C6420 0.928 . S
H6439 C6422 0.932 . S
C6440 C6441 1.264 . S
C6440 C6445 1.479 . S
C6440 C6450 1.465 . S
C6441 C6440 1.264 . S
C6441 C6443 1.339 . S
C6441 H6468 0.931 . S
C6442 C6443 1.395 . S
C6442 C6444 1.320 . S
C6443 C6441 1.339 . S
C6443 C6442 1.395 . S
C6443 H6469 0.929 . S
C6444 C6442 1.320 . S
C6444 C6445 1.405 . S
C6444 H6470 0.930 . S
C6445 C6440 1.479 . S
C6445 C6444 1.405 . S
C6445 H6471 0.931 . S
U6446 O6447 2.454 . S
U6446 O6448 2.458 . S
U6446 C6449 2.984 . S
U6446 C6450 2.847 . S
U6446 C6463 2.882 . S
U6446 O6464 2.441 . S
U6446 O6465 2.420 . S
U6446 O6466 2.455 . S
U6446 O6467 2.449 . S
O6447 U6446 2.454 . S
O6447 C6449 1.353 . S
O6448 U6446 2.458 . S
O6448 C6449 1.286 . S
C6449 U6446 2.984 . S
C6449 O6447 1.353 . S
C6449 O6448 1.286 . S
C6449 C6451 1.363 . S
C6450 C6440 1.465 . S
C6450 U6446 2.847 . S
C6450 O6464 1.249 . S
C6450 O6465 1.202 . S
C6451 C6449 1.363 . S
C6451 C6453 1.408 . S
C6451 C6456 1.342 . S
C6452 C6453 1.310 . S
C6452 C6455 1.461 . S
C6452 H6472 0.932 . S
C6453 C6451 1.408 . S
C6453 C6452 1.310 . S
C6453 H6473 0.930 . S
C6454 C6455 1.474 . S
C6454 C6456 1.285 . S
C6454 H6474 0.929 . S
C6455 C6452 1.461 . S
C6455 C6454 1.474 . S
C6456 C6451 1.342 . S
C6456 C6454 1.285 . S
C6456 H6475 0.930 . S
C6457 C6460 1.424 . S
C6457 C6462 1.245 . S
C6457 C6463 1.428 . S
C6458 C6461 1.260 . S
C6458 C6462 1.477 . S
C6458 H6476 0.932 . S
C6459 C6460 1.384 . S
C6459 C6461 1.479 . S
C6459 H6477 0.929 . S
C6460 C6457 1.424 . S
C6460 C6459 1.384 . S
C6460 H6478 0.928 . S
C6461 C6458 1.260 . S
C6461 C6459 1.479 . S
C6462 C6457 1.245 . S
C6462 C6458 1.477 . S
C6462 H6479 0.932 . S
C6463 U6446 2.882 . S
C6463 C6457 1.428 . S
C6463 O6466 1.301 . S
C6463 O6467 1.282 . S
O6464 U6446 2.441 . S
O6464 C6450 1.249 . S
O6465 U6446 2.420 . S
O6465 C6450 1.202 . S
O6466 U6446 2.455 . S
O6466 C6463 1.301 . S
O6467 U6446 2.449 . S
O6467 C6463 1.282 . S
H6468 C6441 0.931 . S
H6469 C6443 0.929 . S
H6470 C6444 0.930 . S
H6471 C6445 0.931 . S
H6472 C6452 0.932 . S
H6473 C6453 0.930 . S
H6474 C6454 0.929 . S
H6475 C6456 0.930 . S
H6476 C6458 0.932 . S
H6477 C6459 0.929 . S
H6478 C6460 0.928 . S
H6479 C6462 0.932 . S
C6480 C6481 1.264 . S
C6480 C6485 1.479 . S
C6480 C6490 1.465 . S
C6481 C6480 1.264 . S
C6481 C6483 1.339 . S
C6481 H6508 0.931 . S
C6482 C6483 1.395 . S
C6482 C6484 1.320 . S
C6483 C6481 1.339 . S
C6483 C6482 1.395 . S
C6483 H6509 0.929 . S
C6484 C6482 1.320 . S
C6484 C6485 1.405 . S
C6484 H6510 0.930 . S
C6485 C6480 1.479 . S
C6485 C6484 1.405 . S
C6485 H6511 0.931 . S
U6486 O6487 2.454 . S
U6486 O6488 2.458 . S
U6486 C6489 2.984 . S
U6486 C6490 2.847 . S
U6486 C6503 2.882 . S
U6486 O6504 2.441 . S
U6486 O6505 2.420 . S
U6486 O6506 2.455 . S
U6486 O6507 2.449 . S
O6487 U6486 2.454 . S
O6487 C6489 1.353 . S
O6488 U6486 2.458 . S
O6488 C6489 1.286 . S
C6489 U6486 2.984 . S
C6489 O6487 1.353 . S
C6489 O6488 1.286 . S
C6489 C6491 1.363 . S
C6490 C6480 1.465 . S
C6490 U6486 2.847 . S
C6490 O6504 1.249 . S
C6490 O6505 1.202 . S
C6491 C6489 1.363 . S
C6491 C6493 1.408 . S
C6491 C6496 1.342 . S
C6492 C6493 1.310 . S
C6492 C6495 1.461 . S
C6492 H6512 0.932 . S
C6493 C6491 1.408 . S
C6493 C6492 1.310 . S
C6493 H6513 0.930 . S
C6494 C6495 1.474 . S
C6494 C6496 1.285 . S
C6494 H6514 0.929 . S
C6495 C6492 1.461 . S
C6495 C6494 1.474 . S
C6496 C6491 1.342 . S
C6496 C6494 1.285 . S
C6496 H6515 0.930 . S
C6497 C6500 1.424 . S
C6497 C6502 1.245 . S
C6497 C6503 1.428 . S
C6498 C6501 1.260 . S
C6498 C6502 1.477 . S
C6498 H6516 0.932 . S
C6499 C6500 1.384 . S
C6499 C6501 1.479 . S
C6499 H6517 0.929 . S
C6500 C6497 1.424 . S
C6500 C6499 1.384 . S
C6500 H6518 0.928 . S
C6501 C6498 1.260 . S
C6501 C6499 1.479 . S
C6502 C6497 1.245 . S
C6502 C6498 1.477 . S
C6502 H6519 0.932 . S
C6503 U6486 2.882 . S
C6503 C6497 1.428 . S
C6503 O6506 1.301 . S
C6503 O6507 1.282 . S
O6504 U6486 2.441 . S
O6504 C6490 1.249 . S
O6505 U6486 2.420 . S
O6505 C6490 1.202 . S
O6506 U6486 2.455 . S
O6506 C6503 1.301 . S
O6507 U6486 2.449 . S
O6507 C6503 1.282 . S
H6508 C6481 0.931 . S
H6509 C6483 0.929 . S
H6510 C6484 0.930 . S
H6511 C6485 0.931 . S
H6512 C6492 0.932 . S
H6513 C6493 0.930 . S
H6514 C6494 0.929 . S
H6515 C6496 0.930 . S
H6516 C6498 0.932 . S
H6517 C6499 0.929 . S
H6518 C6500 0.928 . S
H6519 C6502 0.932 . S
C6520 C6521 1.264 . S
C6520 C6525 1.479 . S
C6520 C6530 1.465 . S
C6521 C6520 1.264 . S
C6521 C6523 1.339 . S
C6521 H6548 0.931 . S
C6522 C6523 1.395 . S
C6522 C6524 1.320 . S
C6523 C6521 1.339 . S
C6523 C6522 1.395 . S
C6523 H6549 0.929 . S
C6524 C6522 1.320 . S
C6524 C6525 1.405 . S
C6524 H6550 0.930 . S
C6525 C6520 1.479 . S
C6525 C6524 1.405 . S
C6525 H6551 0.931 . S
U6526 O6527 2.454 . S
U6526 O6528 2.458 . S
U6526 C6529 2.984 . S
U6526 C6530 2.847 . S
U6526 C6543 2.882 . S
U6526 O6544 2.441 . S
U6526 O6545 2.420 . S
U6526 O6546 2.455 . S
U6526 O6547 2.449 . S
O6527 U6526 2.454 . S
O6527 C6529 1.353 . S
O6528 U6526 2.458 . S
O6528 C6529 1.286 . S
C6529 U6526 2.984 . S
C6529 O6527 1.353 . S
C6529 O6528 1.286 . S
C6529 C6531 1.363 . S
C6530 C6520 1.465 . S
C6530 U6526 2.847 . S
C6530 O6544 1.249 . S
C6530 O6545 1.202 . S
C6531 C6529 1.363 . S
C6531 C6533 1.408 . S
C6531 C6536 1.342 . S
C6532 C6533 1.310 . S
C6532 C6535 1.461 . S
C6532 H6552 0.932 . S
C6533 C6531 1.408 . S
C6533 C6532 1.310 . S
C6533 H6553 0.930 . S
C6534 C6535 1.474 . S
C6534 C6536 1.285 . S
C6534 H6554 0.929 . S
C6535 C6532 1.461 . S
C6535 C6534 1.474 . S
C6536 C6531 1.342 . S
C6536 C6534 1.285 . S
C6536 H6555 0.930 . S
C6537 C6540 1.424 . S
C6537 C6542 1.245 . S
C6537 C6543 1.428 . S
C6538 C6541 1.260 . S
C6538 C6542 1.477 . S
C6538 H6556 0.932 . S
C6539 C6540 1.384 . S
C6539 C6541 1.479 . S
C6539 H6557 0.929 . S
C6540 C6537 1.424 . S
C6540 C6539 1.384 . S
C6540 H6558 0.928 . S
C6541 C6538 1.260 . S
C6541 C6539 1.479 . S
C6542 C6537 1.245 . S
C6542 C6538 1.477 . S
C6542 H6559 0.932 . S
C6543 U6526 2.882 . S
C6543 C6537 1.428 . S
C6543 O6546 1.301 . S
C6543 O6547 1.282 . S
O6544 U6526 2.441 . S
O6544 C6530 1.249 . S
O6545 U6526 2.420 . S
O6545 C6530 1.202 . S
O6546 U6526 2.455 . S
O6546 C6543 1.301 . S
O6547 U6526 2.449 . S
O6547 C6543 1.282 . S
H6548 C6521 0.931 . S
H6549 C6523 0.929 . S
H6550 C6524 0.930 . S
H6551 C6525 0.931 . S
H6552 C6532 0.932 . S
H6553 C6533 0.930 . S
H6554 C6534 0.929 . S
H6555 C6536 0.930 . S
H6556 C6538 0.932 . S
H6557 C6539 0.929 . S
H6558 C6540 0.928 . S
H6559 C6542 0.932 . S
C6560 C6561 1.264 . S
C6560 C6565 1.479 . S
C6560 C6570 1.465 . S
C6561 C6560 1.264 . S
C6561 C6563 1.339 . S
C6561 H6588 0.931 . S
C6562 C6563 1.395 . S
C6562 C6564 1.320 . S
C6563 C6561 1.339 . S
C6563 C6562 1.395 . S
C6563 H6589 0.929 . S
C6564 C6562 1.320 . S
C6564 C6565 1.405 . S
C6564 H6590 0.930 . S
C6565 C6560 1.479 . S
C6565 C6564 1.405 . S
C6565 H6591 0.931 . S
U6566 O6567 2.454 . S
U6566 O6568 2.458 . S
U6566 C6569 2.984 . S
U6566 C6570 2.847 . S
U6566 C6583 2.882 . S
U6566 O6584 2.441 . S
U6566 O6585 2.420 . S
U6566 O6586 2.455 . S
U6566 O6587 2.449 . S
O6567 U6566 2.454 . S
O6567 C6569 1.353 . S
O6568 U6566 2.458 . S
O6568 C6569 1.286 . S
C6569 U6566 2.984 . S
C6569 O6567 1.353 . S
C6569 O6568 1.286 . S
C6569 C6571 1.363 . S
C6570 C6560 1.465 . S
C6570 U6566 2.847 . S
C6570 O6584 1.249 . S
C6570 O6585 1.202 . S
C6571 C6569 1.363 . S
C6571 C6573 1.408 . S
C6571 C6576 1.342 . S
C6572 C6573 1.310 . S
C6572 C6575 1.461 . S
C6572 H6592 0.932 . S
C6573 C6571 1.408 . S
C6573 C6572 1.310 . S
C6573 H6593 0.930 . S
C6574 C6575 1.474 . S
C6574 C6576 1.285 . S
C6574 H6594 0.929 . S
C6575 C6572 1.461 . S
C6575 C6574 1.474 . S
C6576 C6571 1.342 . S
C6576 C6574 1.285 . S
C6576 H6595 0.930 . S
C6577 C6580 1.424 . S
C6577 C6582 1.245 . S
C6577 C6583 1.428 . S
C6578 C6581 1.260 . S
C6578 C6582 1.477 . S
C6578 H6596 0.932 . S
C6579 C6580 1.384 . S
C6579 C6581 1.479 . S
C6579 H6597 0.929 . S
C6580 C6577 1.424 . S
C6580 C6579 1.384 . S
C6580 H6598 0.928 . S
C6581 C6578 1.260 . S
C6581 C6579 1.479 . S
C6582 C6577 1.245 . S
C6582 C6578 1.477 . S
C6582 H6599 0.932 . S
C6583 U6566 2.882 . S
C6583 C6577 1.428 . S
C6583 O6586 1.301 . S
C6583 O6587 1.282 . S
O6584 U6566 2.441 . S
O6584 C6570 1.249 . S
O6585 U6566 2.420 . S
O6585 C6570 1.202 . S
O6586 U6566 2.455 . S
O6586 C6583 1.301 . S
O6587 U6566 2.449 . S
O6587 C6583 1.282 . S
H6588 C6561 0.931 . S
H6589 C6563 0.929 . S
H6590 C6564 0.930 . S
H6591 C6565 0.931 . S
H6592 C6572 0.932 . S
H6593 C6573 0.930 . S
H6594 C6574 0.929 . S
H6595 C6576 0.930 . S
H6596 C6578 0.932 . S
H6597 C6579 0.929 . S
H6598 C6580 0.928 . S
H6599 C6582 0.932 . S
C6600 C6601 1.264 . S
C6600 C6605 1.479 . S
C6600 C6610 1.465 . S
C6601 C6600 1.264 . S
C6601 C6603 1.339 . S
C6601 H6628 0.931 . S
C6602 C6603 1.395 . S
C6602 C6604 1.320 . S
C6603 C6601 1.339 . S
C6603 C6602 1.395 . S
C6603 H6629 0.929 . S
C6604 C6602 1.320 . S
C6604 C6605 1.405 . S
C6604 H6630 0.930 . S
C6605 C6600 1.479 . S
C6605 C6604 1.405 . S
C6605 H6631 0.931 . S
U6606 O6607 2.454 . S
U6606 O6608 2.458 . S
U6606 C6609 2.984 . S
U6606 C6610 2.847 . S
U6606 C6623 2.882 . S
U6606 O6624 2.441 . S
U6606 O6625 2.420 . S
U6606 O6626 2.455 . S
U6606 O6627 2.449 . S
O6607 U6606 2.454 . S
O6607 C6609 1.353 . S
O6608 U6606 2.458 . S
O6608 C6609 1.286 . S
C6609 U6606 2.984 . S
C6609 O6607 1.353 . S
C6609 O6608 1.286 . S
C6609 C6611 1.363 . S
C6610 C6600 1.465 . S
C6610 U6606 2.847 . S
C6610 O6624 1.249 . S
C6610 O6625 1.202 . S
C6611 C6609 1.363 . S
C6611 C6613 1.408 . S
C6611 C6616 1.342 . S
C6612 C6613 1.310 . S
C6612 C6615 1.461 . S
C6612 H6632 0.932 . S
C6613 C6611 1.408 . S
C6613 C6612 1.310 . S
C6613 H6633 0.930 . S
C6614 C6615 1.474 . S
C6614 C6616 1.285 . S
C6614 H6634 0.929 . S
C6615 C6612 1.461 . S
C6615 C6614 1.474 . S
C6616 C6611 1.342 . S
C6616 C6614 1.285 . S
C6616 H6635 0.930 . S
C6617 C6620 1.424 . S
C6617 C6622 1.245 . S
C6617 C6623 1.428 . S
C6618 C6621 1.260 . S
C6618 C6622 1.477 . S
C6618 H6636 0.932 . S
C6619 C6620 1.384 . S
C6619 C6621 1.479 . S
C6619 H6637 0.929 . S
C6620 C6617 1.424 . S
C6620 C6619 1.384 . S
C6620 H6638 0.928 . S
C6621 C6618 1.260 . S
C6621 C6619 1.479 . S
C6622 C6617 1.245 . S
C6622 C6618 1.477 . S
C6622 H6639 0.932 . S
C6623 U6606 2.882 . S
C6623 C6617 1.428 . S
C6623 O6626 1.301 . S
C6623 O6627 1.282 . S
O6624 U6606 2.441 . S
O6624 C6610 1.249 . S
O6625 U6606 2.420 . S
O6625 C6610 1.202 . S
O6626 U6606 2.455 . S
O6626 C6623 1.301 . S
O6627 U6606 2.449 . S
O6627 C6623 1.282 . S
H6628 C6601 0.931 . S
H6629 C6603 0.929 . S
H6630 C6604 0.930 . S
H6631 C6605 0.931 . S
H6632 C6612 0.932 . S
H6633 C6613 0.930 . S
H6634 C6614 0.929 . S
H6635 C6616 0.930 . S
H6636 C6618 0.932 . S
H6637 C6619 0.929 . S
H6638 C6620 0.928 . S
H6639 C6622 0.932 . S
C6640 C6641 1.264 . S
C6640 C6645 1.479 . S
C6640 C6650 1.465 . S
C6641 C6640 1.264 . S
C6641 C6643 1.339 . S
C6641 H6668 0.931 . S
C6642 C6643 1.395 . S
C6642 C6644 1.320 . S
C6643 C6641 1.339 . S
C6643 C6642 1.395 . S
C6643 H6669 0.929 . S
C6644 C6642 1.320 . S
C6644 C6645 1.405 . S
C6644 H6670 0.930 . S
C6645 C6640 1.479 . S
C6645 C6644 1.405 . S
C6645 H6671 0.931 . S
U6646 O6647 2.454 . S
U6646 O6648 2.458 . S
U6646 C6649 2.984 . S
U6646 C6650 2.847 . S
U6646 C6663 2.882 . S
U6646 O6664 2.441 . S
U6646 O6665 2.420 . S
U6646 O6666 2.455 . S
U6646 O6667 2.449 . S
O6647 U6646 2.454 . S
O6647 C6649 1.353 . S
O6648 U6646 2.458 . S
O6648 C6649 1.286 . S
C6649 U6646 2.984 . S
C6649 O6647 1.353 . S
C6649 O6648 1.286 . S
C6649 C6651 1.363 . S
C6650 C6640 1.465 . S
C6650 U6646 2.847 . S
C6650 O6664 1.249 . S
C6650 O6665 1.202 . S
C6651 C6649 1.363 . S
C6651 C6653 1.408 . S
C6651 C6656 1.342 . S
C6652 C6653 1.310 . S
C6652 C6655 1.461 . S
C6652 H6672 0.932 . S
C6653 C6651 1.408 . S
C6653 C6652 1.310 . S
C6653 H6673 0.930 . S
C6654 C6655 1.474 . S
C6654 C6656 1.285 . S
C6654 H6674 0.929 . S
C6655 C6652 1.461 . S
C6655 C6654 1.474 . S
C6656 C6651 1.342 . S
C6656 C6654 1.285 . S
C6656 H6675 0.930 . S
C6657 C6660 1.424 . S
C6657 C6662 1.245 . S
C6657 C6663 1.428 . S
C6658 C6661 1.260 . S
C6658 C6662 1.477 . S
C6658 H6676 0.932 . S
C6659 C6660 1.384 . S
C6659 C6661 1.479 . S
C6659 H6677 0.929 . S
C6660 C6657 1.424 . S
C6660 C6659 1.384 . S
C6660 H6678 0.928 . S
C6661 C6658 1.260 . S
C6661 C6659 1.479 . S
C6662 C6657 1.245 . S
C6662 C6658 1.477 . S
C6662 H6679 0.932 . S
C6663 U6646 2.882 . S
C6663 C6657 1.428 . S
C6663 O6666 1.301 . S
C6663 O6667 1.282 . S
O6664 U6646 2.441 . S
O6664 C6650 1.249 . S
O6665 U6646 2.420 . S
O6665 C6650 1.202 . S
O6666 U6646 2.455 . S
O6666 C6663 1.301 . S
O6667 U6646 2.449 . S
O6667 C6663 1.282 . S
H6668 C6641 0.931 . S
H6669 C6643 0.929 . S
H6670 C6644 0.930 . S
H6671 C6645 0.931 . S
H6672 C6652 0.932 . S
H6673 C6653 0.930 . S
H6674 C6654 0.929 . S
H6675 C6656 0.930 . S
H6676 C6658 0.932 . S
H6677 C6659 0.929 . S
H6678 C6660 0.928 . S
H6679 C6662 0.932 . S
C6680 C6681 1.264 . S
C6680 C6685 1.479 . S
C6680 C6690 1.465 . S
C6681 C6680 1.264 . S
C6681 C6683 1.339 . S
C6681 H6708 0.931 . S
C6682 C6683 1.395 . S
C6682 C6684 1.320 . S
C6683 C6681 1.339 . S
C6683 C6682 1.395 . S
C6683 H6709 0.929 . S
C6684 C6682 1.320 . S
C6684 C6685 1.405 . S
C6684 H6710 0.930 . S
C6685 C6680 1.479 . S
C6685 C6684 1.405 . S
C6685 H6711 0.931 . S
U6686 O6687 2.454 . S
U6686 O6688 2.458 . S
U6686 C6689 2.984 . S
U6686 C6690 2.847 . S
U6686 C6703 2.882 . S
U6686 O6704 2.441 . S
U6686 O6705 2.420 . S
U6686 O6706 2.455 . S
U6686 O6707 2.449 . S
O6687 U6686 2.454 . S
O6687 C6689 1.353 . S
O6688 U6686 2.458 . S
O6688 C6689 1.286 . S
C6689 U6686 2.984 . S
C6689 O6687 1.353 . S
C6689 O6688 1.286 . S
C6689 C6691 1.363 . S
C6690 C6680 1.465 . S
C6690 U6686 2.847 . S
C6690 O6704 1.249 . S
C6690 O6705 1.202 . S
C6691 C6689 1.363 . S
C6691 C6693 1.408 . S
C6691 C6696 1.342 . S
C6692 C6693 1.310 . S
C6692 C6695 1.461 . S
C6692 H6712 0.932 . S
C6693 C6691 1.408 . S
C6693 C6692 1.310 . S
C6693 H6713 0.930 . S
C6694 C6695 1.474 . S
C6694 C6696 1.285 . S
C6694 H6714 0.929 . S
C6695 C6692 1.461 . S
C6695 C6694 1.474 . S
C6696 C6691 1.342 . S
C6696 C6694 1.285 . S
C6696 H6715 0.930 . S
C6697 C6700 1.424 . S
C6697 C6702 1.245 . S
C6697 C6703 1.428 . S
C6698 C6701 1.260 . S
C6698 C6702 1.477 . S
C6698 H6716 0.932 . S
C6699 C6700 1.384 . S
C6699 C6701 1.479 . S
C6699 H6717 0.929 . S
C6700 C6697 1.424 . S
C6700 C6699 1.384 . S
C6700 H6718 0.928 . S
C6701 C6698 1.260 . S
C6701 C6699 1.479 . S
C6702 C6697 1.245 . S
C6702 C6698 1.477 . S
C6702 H6719 0.932 . S
C6703 U6686 2.882 . S
C6703 C6697 1.428 . S
C6703 O6706 1.301 . S
C6703 O6707 1.282 . S
O6704 U6686 2.441 . S
O6704 C6690 1.249 . S
O6705 U6686 2.420 . S
O6705 C6690 1.202 . S
O6706 U6686 2.455 . S
O6706 C6703 1.301 . S
O6707 U6686 2.449 . S
O6707 C6703 1.282 . S
H6708 C6681 0.931 . S
H6709 C6683 0.929 . S
H6710 C6684 0.930 . S
H6711 C6685 0.931 . S
H6712 C6692 0.932 . S
H6713 C6693 0.930 . S
H6714 C6694 0.929 . S
H6715 C6696 0.930 . S
H6716 C6698 0.932 . S
H6717 C6699 0.929 . S
H6718 C6700 0.928 . S
H6719 C6702 0.932 . S
C6720 C6721 1.264 . S
C6720 C6725 1.479 . S
C6720 C6730 1.465 . S
C6721 C6720 1.264 . S
C6721 C6723 1.339 . S
C6721 H6748 0.931 . S
C6722 C6723 1.395 . S
C6722 C6724 1.320 . S
C6723 C6721 1.339 . S
C6723 C6722 1.395 . S
C6723 H6749 0.929 . S
C6724 C6722 1.320 . S
C6724 C6725 1.405 . S
C6724 H6750 0.930 . S
C6725 C6720 1.479 . S
C6725 C6724 1.405 . S
C6725 H6751 0.931 . S
U6726 O6727 2.454 . S
U6726 O6728 2.458 . S
U6726 C6729 2.984 . S
U6726 C6730 2.847 . S
U6726 C6743 2.882 . S
U6726 O6744 2.441 . S
U6726 O6745 2.420 . S
U6726 O6746 2.455 . S
U6726 O6747 2.449 . S
O6727 U6726 2.454 . S
O6727 C6729 1.353 . S
O6728 U6726 2.458 . S
O6728 C6729 1.286 . S
C6729 U6726 2.984 . S
C6729 O6727 1.353 . S
C6729 O6728 1.286 . S
C6729 C6731 1.363 . S
C6730 C6720 1.465 . S
C6730 U6726 2.847 . S
C6730 O6744 1.249 . S
C6730 O6745 1.202 . S
C6731 C6729 1.363 . S
C6731 C6733 1.408 . S
C6731 C6736 1.342 . S
C6732 C6733 1.310 . S
C6732 C6735 1.461 . S
C6732 H6752 0.932 . S
C6733 C6731 1.408 . S
C6733 C6732 1.310 . S
C6733 H6753 0.930 . S
C6734 C6735 1.474 . S
C6734 C6736 1.285 . S
C6734 H6754 0.929 . S
C6735 C6732 1.461 . S
C6735 C6734 1.474 . S
C6736 C6731 1.342 . S
C6736 C6734 1.285 . S
C6736 H6755 0.930 . S
C6737 C6740 1.424 . S
C6737 C6742 1.245 . S
C6737 C6743 1.428 . S
C6738 C6741 1.260 . S
C6738 C6742 1.477 . S
C6738 H6756 0.932 . S
C6739 C6740 1.384 . S
C6739 C6741 1.479 . S
C6739 H6757 0.929 . S
C6740 C6737 1.424 . S
C6740 C6739 1.384 . S
C6740 H6758 0.928 . S
C6741 C6738 1.260 . S
C6741 C6739 1.479 . S
C6742 C6737 1.245 . S
C6742 C6738 1.477 . S
C6742 H6759 0.932 . S
C6743 U6726 2.882 . S
C6743 C6737 1.428 . S
C6743 O6746 1.301 . S
C6743 O6747 1.282 . S
O6744 U6726 2.441 . S
O6744 C6730 1.249 . S
O6745 U6726 2.420 . S
O6745 C6730 1.202 . S
O6746 U6726 2.455 . S
O6746 C6743 1.301 . S
O6747 U6726 2.449 . S
O6747 C6743 1.282 . S
H6748 C6721 0.931 . S
H6749 C6723 0.929 . S
H6750 C6724 0.930 . S
H6751 C6725 0.931 . S
H6752 C6732 0.932 . S
H6753 C6733 0.930 . S
H6754 C6734 0.929 . S
H6755 C6736 0.930 . S
H6756 C6738 0.932 . S
H6757 C6739 0.929 . S
H6758 C6740 0.928 . S
H6759 C6742 0.932 . S
C6760 C6761 1.264 . S
C6760 C6765 1.479 . S
C6760 C6770 1.465 . S
C6761 C6760 1.264 . S
C6761 C6763 1.339 . S
C6761 H6788 0.931 . S
C6762 C6763 1.395 . S
C6762 C6764 1.320 . S
C6763 C6761 1.339 . S
C6763 C6762 1.395 . S
C6763 H6789 0.929 . S
C6764 C6762 1.320 . S
C6764 C6765 1.405 . S
C6764 H6790 0.930 . S
C6765 C6760 1.479 . S
C6765 C6764 1.405 . S
C6765 H6791 0.931 . S
U6766 O6767 2.454 . S
U6766 O6768 2.458 . S
U6766 C6769 2.984 . S
U6766 C6770 2.847 . S
U6766 C6783 2.882 . S
U6766 O6784 2.441 . S
U6766 O6785 2.420 . S
U6766 O6786 2.455 . S
U6766 O6787 2.449 . S
O6767 U6766 2.454 . S
O6767 C6769 1.353 . S
O6768 U6766 2.458 . S
O6768 C6769 1.286 . S
C6769 U6766 2.984 . S
C6769 O6767 1.353 . S
C6769 O6768 1.286 . S
C6769 C6771 1.363 . S
C6770 C6760 1.465 . S
C6770 U6766 2.847 . S
C6770 O6784 1.249 . S
C6770 O6785 1.202 . S
C6771 C6769 1.363 . S
C6771 C6773 1.408 . S
C6771 C6776 1.342 . S
C6772 C6773 1.310 . S
C6772 C6775 1.461 . S
C6772 H6792 0.932 . S
C6773 C6771 1.408 . S
C6773 C6772 1.310 . S
C6773 H6793 0.930 . S
C6774 C6775 1.474 . S
C6774 C6776 1.285 . S
C6774 H6794 0.929 . S
C6775 C6772 1.461 . S
C6775 C6774 1.474 . S
C6776 C6771 1.342 . S
C6776 C6774 1.285 . S
C6776 H6795 0.930 . S
C6777 C6780 1.424 . S
C6777 C6782 1.245 . S
C6777 C6783 1.428 . S
C6778 C6781 1.260 . S
C6778 C6782 1.477 . S
C6778 H6796 0.932 . S
C6779 C6780 1.384 . S
C6779 C6781 1.479 . S
C6779 H6797 0.929 . S
C6780 C6777 1.424 . S
C6780 C6779 1.384 . S
C6780 H6798 0.928 . S
C6781 C6778 1.260 . S
C6781 C6779 1.479 . S
C6782 C6777 1.245 . S
C6782 C6778 1.477 . S
C6782 H6799 0.932 . S
C6783 U6766 2.882 . S
C6783 C6777 1.428 . S
C6783 O6786 1.301 . S
C6783 O6787 1.282 . S
O6784 U6766 2.441 . S
O6784 C6770 1.249 . S
O6785 U6766 2.420 . S
O6785 C6770 1.202 . S
O6786 U6766 2.455 . S
O6786 C6783 1.301 . S
O6787 U6766 2.449 . S
O6787 C6783 1.282 . S
H6788 C6761 0.931 . S
H6789 C6763 0.929 . S
H6790 C6764 0.930 . S
H6791 C6765 0.931 . S
H6792 C6772 0.932 . S
H6793 C6773 0.930 . S
H6794 C6774 0.929 . S
H6795 C6776 0.930 . S
H6796 C6778 0.932 . S
H6797 C6779 0.929 . S
H6798 C6780 0.928 . S
H6799 C6782 0.932 . S
C6800 C6801 1.264 . S
C6800 C6805 1.479 . S
C6800 C6810 1.465 . S
C6801 C6800 1.264 . S
C6801 C6803 1.339 . S
C6801 H6828 0.931 . S
C6802 C6803 1.395 . S
C6802 C6804 1.320 . S
C6803 C6801 1.339 . S
C6803 C6802 1.395 . S
C6803 H6829 0.929 . S
C6804 C6802 1.320 . S
C6804 C6805 1.405 . S
C6804 H6830 0.930 . S
C6805 C6800 1.479 . S
C6805 C6804 1.405 . S
C6805 H6831 0.931 . S
U6806 O6807 2.454 . S
U6806 O6808 2.458 . S
U6806 C6809 2.984 . S
U6806 C6810 2.847 . S
U6806 C6823 2.882 . S
U6806 O6824 2.441 . S
U6806 O6825 2.420 . S
U6806 O6826 2.455 . S
U6806 O6827 2.449 . S
O6807 U6806 2.454 . S
O6807 C6809 1.353 . S
O6808 U6806 2.458 . S
O6808 C6809 1.286 . S
C6809 U6806 2.984 . S
C6809 O6807 1.353 . S
C6809 O6808 1.286 . S
C6809 C6811 1.363 . S
C6810 C6800 1.465 . S
C6810 U6806 2.847 . S
C6810 O6824 1.249 . S
C6810 O6825 1.202 . S
C6811 C6809 1.363 . S
C6811 C6813 1.408 . S
C6811 C6816 1.342 . S
C6812 C6813 1.310 . S
C6812 C6815 1.461 . S
C6812 H6832 0.932 . S
C6813 C6811 1.408 . S
C6813 C6812 1.310 . S
C6813 H6833 0.930 . S
C6814 C6815 1.474 . S
C6814 C6816 1.285 . S
C6814 H6834 0.929 . S
C6815 C6812 1.461 . S
C6815 C6814 1.474 . S
C6816 C6811 1.342 . S
C6816 C6814 1.285 . S
C6816 H6835 0.930 . S
C6817 C6820 1.424 . S
C6817 C6822 1.245 . S
C6817 C6823 1.428 . S
C6818 C6821 1.260 . S
C6818 C6822 1.477 . S
C6818 H6836 0.932 . S
C6819 C6820 1.384 . S
C6819 C6821 1.479 . S
C6819 H6837 0.929 . S
C6820 C6817 1.424 . S
C6820 C6819 1.384 . S
C6820 H6838 0.928 . S
C6821 C6818 1.260 . S
C6821 C6819 1.479 . S
C6822 C6817 1.245 . S
C6822 C6818 1.477 . S
C6822 H6839 0.932 . S
C6823 U6806 2.882 . S
C6823 C6817 1.428 . S
C6823 O6826 1.301 . S
C6823 O6827 1.282 . S
O6824 U6806 2.441 . S
O6824 C6810 1.249 . S
O6825 U6806 2.420 . S
O6825 C6810 1.202 . S
O6826 U6806 2.455 . S
O6826 C6823 1.301 . S
O6827 U6806 2.449 . S
O6827 C6823 1.282 . S
H6828 C6801 0.931 . S
H6829 C6803 0.929 . S
H6830 C6804 0.930 . S
H6831 C6805 0.931 . S
H6832 C6812 0.932 . S
H6833 C6813 0.930 . S
H6834 C6814 0.929 . S
H6835 C6816 0.930 . S
H6836 C6818 0.932 . S
H6837 C6819 0.929 . S
H6838 C6820 0.928 . S
H6839 C6822 0.932 . S
C6840 C6841 1.264 . S
C6840 C6845 1.479 . S
C6840 C6850 1.465 . S
C6841 C6840 1.264 . S
C6841 C6843 1.339 . S
C6841 H6868 0.931 . S
C6842 C6843 1.395 . S
C6842 C6844 1.320 . S
C6843 C6841 1.339 . S
C6843 C6842 1.395 . S
C6843 H6869 0.929 . S
C6844 C6842 1.320 . S
C6844 C6845 1.405 . S
C6844 H6870 0.930 . S
C6845 C6840 1.479 . S
C6845 C6844 1.405 . S
C6845 H6871 0.931 . S
U6846 O6847 2.454 . S
U6846 O6848 2.458 . S
U6846 C6849 2.984 . S
U6846 C6850 2.847 . S
U6846 C6863 2.882 . S
U6846 O6864 2.441 . S
U6846 O6865 2.420 . S
U6846 O6866 2.455 . S
U6846 O6867 2.449 . S
O6847 U6846 2.454 . S
O6847 C6849 1.353 . S
O6848 U6846 2.458 . S
O6848 C6849 1.286 . S
C6849 U6846 2.984 . S
C6849 O6847 1.353 . S
C6849 O6848 1.286 . S
C6849 C6851 1.363 . S
C6850 C6840 1.465 . S
C6850 U6846 2.847 . S
C6850 O6864 1.249 . S
C6850 O6865 1.202 . S
C6851 C6849 1.363 . S
C6851 C6853 1.408 . S
C6851 C6856 1.342 . S
C6852 C6853 1.310 . S
C6852 C6855 1.461 . S
C6852 H6872 0.932 . S
C6853 C6851 1.408 . S
C6853 C6852 1.310 . S
C6853 H6873 0.930 . S
C6854 C6855 1.474 . S
C6854 C6856 1.285 . S
C6854 H6874 0.929 . S
C6855 C6852 1.461 . S
C6855 C6854 1.474 . S
C6856 C6851 1.342 . S
C6856 C6854 1.285 . S
C6856 H6875 0.930 . S
C6857 C6860 1.424 . S
C6857 C6862 1.245 . S
C6857 C6863 1.428 . S
C6858 C6861 1.260 . S
C6858 C6862 1.477 . S
C6858 H6876 0.932 . S
C6859 C6860 1.384 . S
C6859 C6861 1.479 . S
C6859 H6877 0.929 . S
C6860 C6857 1.424 . S
C6860 C6859 1.384 . S
C6860 H6878 0.928 . S
C6861 C6858 1.260 . S
C6861 C6859 1.479 . S
C6862 C6857 1.245 . S
C6862 C6858 1.477 . S
C6862 H6879 0.932 . S
C6863 U6846 2.882 . S
C6863 C6857 1.428 . S
C6863 O6866 1.301 . S
C6863 O6867 1.282 . S
O6864 U6846 2.441 . S
O6864 C6850 1.249 . S
O6865 U6846 2.420 . S
O6865 C6850 1.202 . S
O6866 U6846 2.455 . S
O6866 C6863 1.301 . S
O6867 U6846 2.449 . S
O6867 C6863 1.282 . S
H6868 C6841 0.931 . S
H6869 C6843 0.929 . S
H6870 C6844 0.930 . S
H6871 C6845 0.931 . S
H6872 C6852 0.932 . S
H6873 C6853 0.930 . S
H6874 C6854 0.929 . S
H6875 C6856 0.930 . S
H6876 C6858 0.932 . S
H6877 C6859 0.929 . S
H6878 C6860 0.928 . S
H6879 C6862 0.932 . S
C6880 C6881 1.264 . S
C6880 C6885 1.479 . S
C6880 C6890 1.465 . S
C6881 C6880 1.264 . S
C6881 C6883 1.339 . S
C6881 H6908 0.931 . S
C6882 C6883 1.395 . S
C6882 C6884 1.320 . S
C6883 C6881 1.339 . S
C6883 C6882 1.395 . S
C6883 H6909 0.929 . S
C6884 C6882 1.320 . S
C6884 C6885 1.405 . S
C6884 H6910 0.930 . S
C6885 C6880 1.479 . S
C6885 C6884 1.405 . S
C6885 H6911 0.931 . S
U6886 O6887 2.454 . S
U6886 O6888 2.458 . S
U6886 C6889 2.984 . S
U6886 C6890 2.847 . S
U6886 C6903 2.882 . S
U6886 O6904 2.441 . S
U6886 O6905 2.420 . S
U6886 O6906 2.455 . S
U6886 O6907 2.449 . S
O6887 U6886 2.454 . S
O6887 C6889 1.353 . S
O6888 U6886 2.458 . S
O6888 C6889 1.286 . S
C6889 U6886 2.984 . S
C6889 O6887 1.353 . S
C6889 O6888 1.286 . S
C6889 C6891 1.363 . S
C6890 C6880 1.465 . S
C6890 U6886 2.847 . S
C6890 O6904 1.249 . S
C6890 O6905 1.202 . S
C6891 C6889 1.363 . S
C6891 C6893 1.408 . S
C6891 C6896 1.342 . S
C6892 C6893 1.310 . S
C6892 C6895 1.461 . S
C6892 H6912 0.932 . S
C6893 C6891 1.408 . S
C6893 C6892 1.310 . S
C6893 H6913 0.930 . S
C6894 C6895 1.474 . S
C6894 C6896 1.285 . S
C6894 H6914 0.929 . S
C6895 C6892 1.461 . S
C6895 C6894 1.474 . S
C6896 C6891 1.342 . S
C6896 C6894 1.285 . S
C6896 H6915 0.930 . S
C6897 C6900 1.424 . S
C6897 C6902 1.245 . S
C6897 C6903 1.428 . S
C6898 C6901 1.260 . S
C6898 C6902 1.477 . S
C6898 H6916 0.932 . S
C6899 C6900 1.384 . S
C6899 C6901 1.479 . S
C6899 H6917 0.929 . S
C6900 C6897 1.424 . S
C6900 C6899 1.384 . S
C6900 H6918 0.928 . S
C6901 C6898 1.260 . S
C6901 C6899 1.479 . S
C6902 C6897 1.245 . S
C6902 C6898 1.477 . S
C6902 H6919 0.932 . S
C6903 U6886 2.882 . S
C6903 C6897 1.428 . S
C6903 O6906 1.301 . S
C6903 O6907 1.282 . S
O6904 U6886 2.441 . S
O6904 C6890 1.249 . S
O6905 U6886 2.420 . S
O6905 C6890 1.202 . S
O6906 U6886 2.455 . S
O6906 C6903 1.301 . S
O6907 U6886 2.449 . S
O6907 C6903 1.282 . S
H6908 C6881 0.931 . S
H6909 C6883 0.929 . S
H6910 C6884 0.930 . S
H6911 C6885 0.931 . S
H6912 C6892 0.932 . S
H6913 C6893 0.930 . S
H6914 C6894 0.929 . S
H6915 C6896 0.930 . S
H6916 C6898 0.932 . S
H6917 C6899 0.929 . S
H6918 C6900 0.928 . S
H6919 C6902 0.932 . S
C6920 C6921 1.264 . S
C6920 C6925 1.479 . S
C6920 C6930 1.465 . S
C6921 C6920 1.264 . S
C6921 C6923 1.339 . S
C6921 H6948 0.931 . S
C6922 C6923 1.395 . S
C6922 C6924 1.320 . S
C6923 C6921 1.339 . S
C6923 C6922 1.395 . S
C6923 H6949 0.929 . S
C6924 C6922 1.320 . S
C6924 C6925 1.405 . S
C6924 H6950 0.930 . S
C6925 C6920 1.479 . S
C6925 C6924 1.405 . S
C6925 H6951 0.931 . S
U6926 O6927 2.454 . S
U6926 O6928 2.458 . S
U6926 C6929 2.984 . S
U6926 C6930 2.847 . S
U6926 C6943 2.882 . S
U6926 O6944 2.441 . S
U6926 O6945 2.420 . S
U6926 O6946 2.455 . S
U6926 O6947 2.449 . S
O6927 U6926 2.454 . S
O6927 C6929 1.353 . S
O6928 U6926 2.458 . S
O6928 C6929 1.286 . S
C6929 U6926 2.984 . S
C6929 O6927 1.353 . S
C6929 O6928 1.286 . S
C6929 C6931 1.363 . S
C6930 C6920 1.465 . S
C6930 U6926 2.847 . S
C6930 O6944 1.249 . S
C6930 O6945 1.202 . S
C6931 C6929 1.363 . S
C6931 C6933 1.408 . S
C6931 C6936 1.342 . S
C6932 C6933 1.310 . S
C6932 C6935 1.461 . S
C6932 H6952 0.932 . S
C6933 C6931 1.408 . S
C6933 C6932 1.310 . S
C6933 H6953 0.930 . S
C6934 C6935 1.474 . S
C6934 C6936 1.285 . S
C6934 H6954 0.929 . S
C6935 C6932 1.461 . S
C6935 C6934 1.474 . S
C6936 C6931 1.342 . S
C6936 C6934 1.285 . S
C6936 H6955 0.930 . S
C6937 C6940 1.424 . S
C6937 C6942 1.245 . S
C6937 C6943 1.428 . S
C6938 C6941 1.260 . S
C6938 C6942 1.477 . S
C6938 H6956 0.932 . S
C6939 C6940 1.384 . S
C6939 C6941 1.479 . S
C6939 H6957 0.929 . S
C6940 C6937 1.424 . S
C6940 C6939 1.384 . S
C6940 H6958 0.928 . S
C6941 C6938 1.260 . S
C6941 C6939 1.479 . S
C6942 C6937 1.245 . S
C6942 C6938 1.477 . S
C6942 H6959 0.932 . S
C6943 U6926 2.882 . S
C6943 C6937 1.428 . S
C6943 O6946 1.301 . S
C6943 O6947 1.282 . S
O6944 U6926 2.441 . S
O6944 C6930 1.249 . S
O6945 U6926 2.420 . S
O6945 C6930 1.202 . S
O6946 U6926 2.455 . S
O6946 C6943 1.301 . S
O6947 U6926 2.449 . S
O6947 C6943 1.282 . S
H6948 C6921 0.931 . S
H6949 C6923 0.929 . S
H6950 C6924 0.930 . S
H6951 C6925 0.931 . S
H6952 C6932 0.932 . S
H6953 C6933 0.930 . S
H6954 C6934 0.929 . S
H6955 C6936 0.930 . S
H6956 C6938 0.932 . S
H6957 C6939 0.929 . S
H6958 C6940 0.928 . S
H6959 C6942 0.932 . S
C6960 C6961 1.264 . S
C6960 C6965 1.479 . S
C6960 C6970 1.465 . S
C6961 C6960 1.264 . S
C6961 C6963 1.339 . S
C6961 H6988 0.931 . S
C6962 C6963 1.395 . S
C6962 C6964 1.320 . S
C6963 C6961 1.339 . S
C6963 C6962 1.395 . S
C6963 H6989 0.929 . S
C6964 C6962 1.320 . S
C6964 C6965 1.405 . S
C6964 H6990 0.930 . S
C6965 C6960 1.479 . S
C6965 C6964 1.405 . S
C6965 H6991 0.931 . S
U6966 O6967 2.454 . S
U6966 O6968 2.458 . S
U6966 C6969 2.984 . S
U6966 C6970 2.847 . S
U6966 C6983 2.882 . S
U6966 O6984 2.441 . S
U6966 O6985 2.420 . S
U6966 O6986 2.455 . S
U6966 O6987 2.449 . S
O6967 U6966 2.454 . S
O6967 C6969 1.353 . S
O6968 U6966 2.458 . S
O6968 C6969 1.286 . S
C6969 U6966 2.984 . S
C6969 O6967 1.353 . S
C6969 O6968 1.286 . S
C6969 C6971 1.363 . S
C6970 C6960 1.465 . S
C6970 U6966 2.847 . S
C6970 O6984 1.249 . S
C6970 O6985 1.202 . S
C6971 C6969 1.363 . S
C6971 C6973 1.408 . S
C6971 C6976 1.342 . S
C6972 C6973 1.310 . S
C6972 C6975 1.461 . S
C6972 H6992 0.932 . S
C6973 C6971 1.408 . S
C6973 C6972 1.310 . S
C6973 H6993 0.930 . S
C6974 C6975 1.474 . S
C6974 C6976 1.285 . S
C6974 H6994 0.929 . S
C6975 C6972 1.461 . S
C6975 C6974 1.474 . S
C6976 C6971 1.342 . S
C6976 C6974 1.285 . S
C6976 H6995 0.930 . S
C6977 C6980 1.424 . S
C6977 C6982 1.245 . S
C6977 C6983 1.428 . S
C6978 C6981 1.260 . S
C6978 C6982 1.477 . S
C6978 H6996 0.932 . S
C6979 C6980 1.384 . S
C6979 C6981 1.479 . S
C6979 H6997 0.929 . S
C6980 C6977 1.424 . S
C6980 C6979 1.384 . S
C6980 H6998 0.928 . S
C6981 C6978 1.260 . S
C6981 C6979 1.479 . S
C6982 C6977 1.245 . S
C6982 C6978 1.477 . S
C6982 H6999 0.932 . S
C6983 U6966 2.882 . S
C6983 C6977 1.428 . S
C6983 O6986 1.301 . S
C6983 O6987 1.282 . S
O6984 U6966 2.441 . S
O6984 C6970 1.249 . S
O6985 U6966 2.420 . S
O6985 C6970 1.202 . S
O6986 U6966 2.455 . S
O6986 C6983 1.301 . S
O6987 U6966 2.449 . S
O6987 C6983 1.282 . S
H6988 C6961 0.931 . S
H6989 C6963 0.929 . S
H6990 C6964 0.930 . S
H6991 C6965 0.931 . S
H6992 C6972 0.932 . S
H6993 C6973 0.930 . S
H6994 C6974 0.929 . S
H6995 C6976 0.930 . S
H6996 C6978 0.932 . S
H6997 C6979 0.929 . S
H6998 C6980 0.928 . S
H6999 C6982 0.932 . S
C7000 C7001 1.264 . S
C7000 C7005 1.479 . S
C7000 C7010 1.465 . S
C7001 C7000 1.264 . S
C7001 C7003 1.339 . S
C7001 H7028 0.931 . S
C7002 C7003 1.395 . S
C7002 C7004 1.320 . S
C7003 C7001 1.339 . S
C7003 C7002 1.395 . S
C7003 H7029 0.929 . S
C7004 C7002 1.320 . S
C7004 C7005 1.405 . S
C7004 H7030 0.930 . S
C7005 C7000 1.479 . S
C7005 C7004 1.405 . S
C7005 H7031 0.931 . S
U7006 O7007 2.454 . S
U7006 O7008 2.458 . S
U7006 C7009 2.984 . S
U7006 C7010 2.847 . S
U7006 C7023 2.882 . S
U7006 O7024 2.441 . S
U7006 O7025 2.420 . S
U7006 O7026 2.455 . S
U7006 O7027 2.449 . S
O7007 U7006 2.454 . S
O7007 C7009 1.353 . S
O7008 U7006 2.458 . S
O7008 C7009 1.286 . S
C7009 U7006 2.984 . S
C7009 O7007 1.353 . S
C7009 O7008 1.286 . S
C7009 C7011 1.363 . S
C7010 C7000 1.465 . S
C7010 U7006 2.847 . S
C7010 O7024 1.249 . S
C7010 O7025 1.202 . S
C7011 C7009 1.363 . S
C7011 C7013 1.408 . S
C7011 C7016 1.342 . S
C7012 C7013 1.310 . S
C7012 C7015 1.461 . S
C7012 H7032 0.932 . S
C7013 C7011 1.408 . S
C7013 C7012 1.310 . S
C7013 H7033 0.930 . S
C7014 C7015 1.474 . S
C7014 C7016 1.285 . S
C7014 H7034 0.929 . S
C7015 C7012 1.461 . S
C7015 C7014 1.474 . S
C7016 C7011 1.342 . S
C7016 C7014 1.285 . S
C7016 H7035 0.930 . S
C7017 C7020 1.424 . S
C7017 C7022 1.245 . S
C7017 C7023 1.428 . S
C7018 C7021 1.260 . S
C7018 C7022 1.477 . S
C7018 H7036 0.932 . S
C7019 C7020 1.384 . S
C7019 C7021 1.479 . S
C7019 H7037 0.929 . S
C7020 C7017 1.424 . S
C7020 C7019 1.384 . S
C7020 H7038 0.928 . S
C7021 C7018 1.260 . S
C7021 C7019 1.479 . S
C7022 C7017 1.245 . S
C7022 C7018 1.477 . S
C7022 H7039 0.932 . S
C7023 U7006 2.882 . S
C7023 C7017 1.428 . S
C7023 O7026 1.301 . S
C7023 O7027 1.282 . S
O7024 U7006 2.441 . S
O7024 C7010 1.249 . S
O7025 U7006 2.420 . S
O7025 C7010 1.202 . S
O7026 U7006 2.455 . S
O7026 C7023 1.301 . S
O7027 U7006 2.449 . S
O7027 C7023 1.282 . S
H7028 C7001 0.931 . S
H7029 C7003 0.929 . S
H7030 C7004 0.930 . S
H7031 C7005 0.931 . S
H7032 C7012 0.932 . S
H7033 C7013 0.930 . S
H7034 C7014 0.929 . S
H7035 C7016 0.930 . S
H7036 C7018 0.932 . S
H7037 C7019 0.929 . S
H7038 C7020 0.928 . S
H7039 C7022 0.932 . S
C7040 C7041 1.264 . S
C7040 C7045 1.479 . S
C7040 C7050 1.465 . S
C7041 C7040 1.264 . S
C7041 C7043 1.339 . S
C7041 H7068 0.931 . S
C7042 C7043 1.395 . S
C7042 C7044 1.320 . S
C7043 C7041 1.339 . S
C7043 C7042 1.395 . S
C7043 H7069 0.929 . S
C7044 C7042 1.320 . S
C7044 C7045 1.405 . S
C7044 H7070 0.930 . S
C7045 C7040 1.479 . S
C7045 C7044 1.405 . S
C7045 H7071 0.931 . S
U7046 O7047 2.454 . S
U7046 O7048 2.458 . S
U7046 C7049 2.984 . S
U7046 C7050 2.847 . S
U7046 C7063 2.882 . S
U7046 O7064 2.441 . S
U7046 O7065 2.420 . S
U7046 O7066 2.455 . S
U7046 O7067 2.449 . S
O7047 U7046 2.454 . S
O7047 C7049 1.353 . S
O7048 U7046 2.458 . S
O7048 C7049 1.286 . S
C7049 U7046 2.984 . S
C7049 O7047 1.353 . S
C7049 O7048 1.286 . S
C7049 C7051 1.363 . S
C7050 C7040 1.465 . S
C7050 U7046 2.847 . S
C7050 O7064 1.249 . S
C7050 O7065 1.202 . S
C7051 C7049 1.363 . S
C7051 C7053 1.408 . S
C7051 C7056 1.342 . S
C7052 C7053 1.310 . S
C7052 C7055 1.461 . S
C7052 H7072 0.932 . S
C7053 C7051 1.408 . S
C7053 C7052 1.310 . S
C7053 H7073 0.930 . S
C7054 C7055 1.474 . S
C7054 C7056 1.285 . S
C7054 H7074 0.929 . S
C7055 C7052 1.461 . S
C7055 C7054 1.474 . S
C7056 C7051 1.342 . S
C7056 C7054 1.285 . S
C7056 H7075 0.930 . S
C7057 C7060 1.424 . S
C7057 C7062 1.245 . S
C7057 C7063 1.428 . S
C7058 C7061 1.260 . S
C7058 C7062 1.477 . S
C7058 H7076 0.932 . S
C7059 C7060 1.384 . S
C7059 C7061 1.479 . S
C7059 H7077 0.929 . S
C7060 C7057 1.424 . S
C7060 C7059 1.384 . S
C7060 H7078 0.928 . S
C7061 C7058 1.260 . S
C7061 C7059 1.479 . S
C7062 C7057 1.245 . S
C7062 C7058 1.477 . S
C7062 H7079 0.932 . S
C7063 U7046 2.882 . S
C7063 C7057 1.428 . S
C7063 O7066 1.301 . S
C7063 O7067 1.282 . S
O7064 U7046 2.441 . S
O7064 C7050 1.249 . S
O7065 U7046 2.420 . S
O7065 C7050 1.202 . S
O7066 U7046 2.455 . S
O7066 C7063 1.301 . S
O7067 U7046 2.449 . S
O7067 C7063 1.282 . S
H7068 C7041 0.931 . S
H7069 C7043 0.929 . S
H7070 C7044 0.930 . S
H7071 C7045 0.931 . S
H7072 C7052 0.932 . S
H7073 C7053 0.930 . S
H7074 C7054 0.929 . S
H7075 C7056 0.930 . S
H7076 C7058 0.932 . S
H7077 C7059 0.929 . S
H7078 C7060 0.928 . S
H7079 C7062 0.932 . S
C7080 C7081 1.264 . S
C7080 C7085 1.479 . S
C7080 C7090 1.465 . S
C7081 C7080 1.264 . S
C7081 C7083 1.339 . S
C7081 H7108 0.931 . S
C7082 C7083 1.395 . S
C7082 C7084 1.320 . S
C7083 C7081 1.339 . S
C7083 C7082 1.395 . S
C7083 H7109 0.929 . S
C7084 C7082 1.320 . S
C7084 C7085 1.405 . S
C7084 H7110 0.930 . S
C7085 C7080 1.479 . S
C7085 C7084 1.405 . S
C7085 H7111 0.931 . S
U7086 O7087 2.454 . S
U7086 O7088 2.458 . S
U7086 C7089 2.984 . S
U7086 C7090 2.847 . S
U7086 C7103 2.882 . S
U7086 O7104 2.441 . S
U7086 O7105 2.420 . S
U7086 O7106 2.455 . S
U7086 O7107 2.449 . S
O7087 U7086 2.454 . S
O7087 C7089 1.353 . S
O7088 U7086 2.458 . S
O7088 C7089 1.286 . S
C7089 U7086 2.984 . S
C7089 O7087 1.353 . S
C7089 O7088 1.286 . S
C7089 C7091 1.363 . S
C7090 C7080 1.465 . S
C7090 U7086 2.847 . S
C7090 O7104 1.249 . S
C7090 O7105 1.202 . S
C7091 C7089 1.363 . S
C7091 C7093 1.408 . S
C7091 C7096 1.342 . S
C7092 C7093 1.310 . S
C7092 C7095 1.461 . S
C7092 H7112 0.932 . S
C7093 C7091 1.408 . S
C7093 C7092 1.310 . S
C7093 H7113 0.930 . S
C7094 C7095 1.474 . S
C7094 C7096 1.285 . S
C7094 H7114 0.929 . S
C7095 C7092 1.461 . S
C7095 C7094 1.474 . S
C7096 C7091 1.342 . S
C7096 C7094 1.285 . S
C7096 H7115 0.930 . S
C7097 C7100 1.424 . S
C7097 C7102 1.245 . S
C7097 C7103 1.428 . S
C7098 C7101 1.260 . S
C7098 C7102 1.477 . S
C7098 H7116 0.932 . S
C7099 C7100 1.384 . S
C7099 C7101 1.479 . S
C7099 H7117 0.929 . S
C7100 C7097 1.424 . S
C7100 C7099 1.384 . S
C7100 H7118 0.928 . S
C7101 C7098 1.260 . S
C7101 C7099 1.479 . S
C7102 C7097 1.245 . S
C7102 C7098 1.477 . S
C7102 H7119 0.932 . S
C7103 U7086 2.882 . S
C7103 C7097 1.428 . S
C7103 O7106 1.301 . S
C7103 O7107 1.282 . S
O7104 U7086 2.441 . S
O7104 C7090 1.249 . S
O7105 U7086 2.420 . S
O7105 C7090 1.202 . S
O7106 U7086 2.455 . S
O7106 C7103 1.301 . S
O7107 U7086 2.449 . S
O7107 C7103 1.282 . S
H7108 C7081 0.931 . S
H7109 C7083 0.929 . S
H7110 C7084 0.930 . S
H7111 C7085 0.931 . S
H7112 C7092 0.932 . S
H7113 C7093 0.930 . S
H7114 C7094 0.929 . S
H7115 C7096 0.930 . S
H7116 C7098 0.932 . S
H7117 C7099 0.929 . S
H7118 C7100 0.928 . S
H7119 C7102 0.932 . S
C7120 C7121 1.264 . S
C7120 C7125 1.479 . S
C7120 C7130 1.465 . S
C7121 C7120 1.264 . S
C7121 C7123 1.339 . S
C7121 H7148 0.931 . S
C7122 C7123 1.395 . S
C7122 C7124 1.320 . S
C7123 C7121 1.339 . S
C7123 C7122 1.395 . S
C7123 H7149 0.929 . S
C7124 C7122 1.320 . S
C7124 C7125 1.405 . S
C7124 H7150 0.930 . S
C7125 C7120 1.479 . S
C7125 C7124 1.405 . S
C7125 H7151 0.931 . S
U7126 O7127 2.454 . S
U7126 O7128 2.458 . S
U7126 C7129 2.984 . S
U7126 C7130 2.847 . S
U7126 C7143 2.882 . S
U7126 O7144 2.441 . S
U7126 O7145 2.420 . S
U7126 O7146 2.455 . S
U7126 O7147 2.449 . S
O7127 U7126 2.454 . S
O7127 C7129 1.353 . S
O7128 U7126 2.458 . S
O7128 C7129 1.286 . S
C7129 U7126 2.984 . S
C7129 O7127 1.353 . S
C7129 O7128 1.286 . S
C7129 C7131 1.363 . S
C7130 C7120 1.465 . S
C7130 U7126 2.847 . S
C7130 O7144 1.249 . S
C7130 O7145 1.202 . S
C7131 C7129 1.363 . S
C7131 C7133 1.408 . S
C7131 C7136 1.342 . S
C7132 C7133 1.310 . S
C7132 C7135 1.461 . S
C7132 H7152 0.932 . S
C7133 C7131 1.408 . S
C7133 C7132 1.310 . S
C7133 H7153 0.930 . S
C7134 C7135 1.474 . S
C7134 C7136 1.285 . S
C7134 H7154 0.929 . S
C7135 C7132 1.461 . S
C7135 C7134 1.474 . S
C7136 C7131 1.342 . S
C7136 C7134 1.285 . S
C7136 H7155 0.930 . S
C7137 C7140 1.424 . S
C7137 C7142 1.245 . S
C7137 C7143 1.428 . S
C7138 C7141 1.260 . S
C7138 C7142 1.477 . S
C7138 H7156 0.932 . S
C7139 C7140 1.384 . S
C7139 C7141 1.479 . S
C7139 H7157 0.929 . S
C7140 C7137 1.424 . S
C7140 C7139 1.384 . S
C7140 H7158 0.928 . S
C7141 C7138 1.260 . S
C7141 C7139 1.479 . S
C7142 C7137 1.245 . S
C7142 C7138 1.477 . S
C7142 H7159 0.932 . S
C7143 U7126 2.882 . S
C7143 C7137 1.428 . S
C7143 O7146 1.301 . S
C7143 O7147 1.282 . S
O7144 U7126 2.441 . S
O7144 C7130 1.249 . S
O7145 U7126 2.420 . S
O7145 C7130 1.202 . S
O7146 U7126 2.455 . S
O7146 C7143 1.301 . S
O7147 U7126 2.449 . S
O7147 C7143 1.282 . S
H7148 C7121 0.931 . S
H7149 C7123 0.929 . S
H7150 C7124 0.930 . S
H7151 C7125 0.931 . S
H7152 C7132 0.932 . S
H7153 C7133 0.930 . S
H7154 C7134 0.929 . S
H7155 C7136 0.930 . S
H7156 C7138 0.932 . S
H7157 C7139 0.929 . S
H7158 C7140 0.928 . S
H7159 C7142 0.932 . S
C7160 C7161 1.264 . S
C7160 C7165 1.479 . S
C7160 C7170 1.465 . S
C7161 C7160 1.264 . S
C7161 C7163 1.339 . S
C7161 H7188 0.931 . S
C7162 C7163 1.395 . S
C7162 C7164 1.320 . S
C7163 C7161 1.339 . S
C7163 C7162 1.395 . S
C7163 H7189 0.929 . S
C7164 C7162 1.320 . S
C7164 C7165 1.405 . S
C7164 H7190 0.930 . S
C7165 C7160 1.479 . S
C7165 C7164 1.405 . S
C7165 H7191 0.931 . S
U7166 O7167 2.454 . S
U7166 O7168 2.458 . S
U7166 C7169 2.984 . S
U7166 C7170 2.847 . S
U7166 C7183 2.882 . S
U7166 O7184 2.441 . S
U7166 O7185 2.420 . S
U7166 O7186 2.455 . S
U7166 O7187 2.449 . S
O7167 U7166 2.454 . S
O7167 C7169 1.353 . S
O7168 U7166 2.458 . S
O7168 C7169 1.286 . S
C7169 U7166 2.984 . S
C7169 O7167 1.353 . S
C7169 O7168 1.286 . S
C7169 C7171 1.363 . S
C7170 C7160 1.465 . S
C7170 U7166 2.847 . S
C7170 O7184 1.249 . S
C7170 O7185 1.202 . S
C7171 C7169 1.363 . S
C7171 C7173 1.408 . S
C7171 C7176 1.342 . S
C7172 C7173 1.310 . S
C7172 C7175 1.461 . S
C7172 H7192 0.932 . S
C7173 C7171 1.408 . S
C7173 C7172 1.310 . S
C7173 H7193 0.930 . S
C7174 C7175 1.474 . S
C7174 C7176 1.285 . S
C7174 H7194 0.929 . S
C7175 C7172 1.461 . S
C7175 C7174 1.474 . S
C7176 C7171 1.342 . S
C7176 C7174 1.285 . S
C7176 H7195 0.930 . S
C7177 C7180 1.424 . S
C7177 C7182 1.245 . S
C7177 C7183 1.428 . S
C7178 C7181 1.260 . S
C7178 C7182 1.477 . S
C7178 H7196 0.932 . S
C7179 C7180 1.384 . S
C7179 C7181 1.479 . S
C7179 H7197 0.929 . S
C7180 C7177 1.424 . S
C7180 C7179 1.384 . S
C7180 H7198 0.928 . S
C7181 C7178 1.260 . S
C7181 C7179 1.479 . S
C7182 C7177 1.245 . S
C7182 C7178 1.477 . S
C7182 H7199 0.932 . S
C7183 U7166 2.882 . S
C7183 C7177 1.428 . S
C7183 O7186 1.301 . S
C7183 O7187 1.282 . S
O7184 U7166 2.441 . S
O7184 C7170 1.249 . S
O7185 U7166 2.420 . S
O7185 C7170 1.202 . S
O7186 U7166 2.455 . S
O7186 C7183 1.301 . S
O7187 U7166 2.449 . S
O7187 C7183 1.282 . S
H7188 C7161 0.931 . S
H7189 C7163 0.929 . S
H7190 C7164 0.930 . S
H7191 C7165 0.931 . S
H7192 C7172 0.932 . S
H7193 C7173 0.930 . S
H7194 C7174 0.929 . S
H7195 C7176 0.930 . S
H7196 C7178 0.932 . S
H7197 C7179 0.929 . S
H7198 C7180 0.928 . S
H7199 C7182 0.932 . S
C7200 C7201 1.264 . S
C7200 C7205 1.479 . S
C7200 C7210 1.465 . S
C7201 C7200 1.264 . S
C7201 C7203 1.339 . S
C7201 H7228 0.931 . S
C7202 C7203 1.395 . S
C7202 C7204 1.320 . S
C7203 C7201 1.339 . S
C7203 C7202 1.395 . S
C7203 H7229 0.929 . S
C7204 C7202 1.320 . S
C7204 C7205 1.405 . S
C7204 H7230 0.930 . S
C7205 C7200 1.479 . S
C7205 C7204 1.405 . S
C7205 H7231 0.931 . S
U7206 O7207 2.454 . S
U7206 O7208 2.458 . S
U7206 C7209 2.984 . S
U7206 C7210 2.847 . S
U7206 C7223 2.882 . S
U7206 O7224 2.441 . S
U7206 O7225 2.420 . S
U7206 O7226 2.455 . S
U7206 O7227 2.449 . S
O7207 U7206 2.454 . S
O7207 C7209 1.353 . S
O7208 U7206 2.458 . S
O7208 C7209 1.286 . S
C7209 U7206 2.984 . S
C7209 O7207 1.353 . S
C7209 O7208 1.286 . S
C7209 C7211 1.363 . S
C7210 C7200 1.465 . S
C7210 U7206 2.847 . S
C7210 O7224 1.249 . S
C7210 O7225 1.202 . S
C7211 C7209 1.363 . S
C7211 C7213 1.408 . S
C7211 C7216 1.342 . S
C7212 C7213 1.310 . S
C7212 C7215 1.461 . S
C7212 H7232 0.932 . S
C7213 C7211 1.408 . S
C7213 C7212 1.310 . S
C7213 H7233 0.930 . S
C7214 C7215 1.474 . S
C7214 C7216 1.285 . S
C7214 H7234 0.929 . S
C7215 C7212 1.461 . S
C7215 C7214 1.474 . S
C7216 C7211 1.342 . S
C7216 C7214 1.285 . S
C7216 H7235 0.930 . S
C7217 C7220 1.424 . S
C7217 C7222 1.245 . S
C7217 C7223 1.428 . S
C7218 C7221 1.260 . S
C7218 C7222 1.477 . S
C7218 H7236 0.932 . S
C7219 C7220 1.384 . S
C7219 C7221 1.479 . S
C7219 H7237 0.929 . S
C7220 C7217 1.424 . S
C7220 C7219 1.384 . S
C7220 H7238 0.928 . S
C7221 C7218 1.260 . S
C7221 C7219 1.479 . S
C7222 C7217 1.245 . S
C7222 C7218 1.477 . S
C7222 H7239 0.932 . S
C7223 U7206 2.882 . S
C7223 C7217 1.428 . S
C7223 O7226 1.301 . S
C7223 O7227 1.282 . S
O7224 U7206 2.441 . S
O7224 C7210 1.249 . S
O7225 U7206 2.420 . S
O7225 C7210 1.202 . S
O7226 U7206 2.455 . S
O7226 C7223 1.301 . S
O7227 U7206 2.449 . S
O7227 C7223 1.282 . S
H7228 C7201 0.931 . S
H7229 C7203 0.929 . S
H7230 C7204 0.930 . S
H7231 C7205 0.931 . S
H7232 C7212 0.932 . S
H7233 C7213 0.930 . S
H7234 C7214 0.929 . S
H7235 C7216 0.930 . S
H7236 C7218 0.932 . S
H7237 C7219 0.929 . S
H7238 C7220 0.928 . S
H7239 C7222 0.932 . S
C7240 C7241 1.264 . S
C7240 C7245 1.479 . S
C7240 C7250 1.465 . S
C7241 C7240 1.264 . S
C7241 C7243 1.339 . S
C7241 H7268 0.931 . S
C7242 C7243 1.395 . S
C7242 C7244 1.320 . S
C7243 C7241 1.339 . S
C7243 C7242 1.395 . S
C7243 H7269 0.929 . S
C7244 C7242 1.320 . S
C7244 C7245 1.405 . S
C7244 H7270 0.930 . S
C7245 C7240 1.479 . S
C7245 C7244 1.405 . S
C7245 H7271 0.931 . S
U7246 O7247 2.454 . S
U7246 O7248 2.458 . S
U7246 C7249 2.984 . S
U7246 C7250 2.847 . S
U7246 C7263 2.882 . S
U7246 O7264 2.441 . S
U7246 O7265 2.420 . S
U7246 O7266 2.455 . S
U7246 O7267 2.449 . S
O7247 U7246 2.454 . S
O7247 C7249 1.353 . S
O7248 U7246 2.458 . S
O7248 C7249 1.286 . S
C7249 U7246 2.984 . S
C7249 O7247 1.353 . S
C7249 O7248 1.286 . S
C7249 C7251 1.363 . S
C7250 C7240 1.465 . S
C7250 U7246 2.847 . S
C7250 O7264 1.249 . S
C7250 O7265 1.202 . S
C7251 C7249 1.363 . S
C7251 C7253 1.408 . S
C7251 C7256 1.342 . S
C7252 C7253 1.310 . S
C7252 C7255 1.461 . S
C7252 H7272 0.932 . S
C7253 C7251 1.408 . S
C7253 C7252 1.310 . S
C7253 H7273 0.930 . S
C7254 C7255 1.474 . S
C7254 C7256 1.285 . S
C7254 H7274 0.929 . S
C7255 C7252 1.461 . S
C7255 C7254 1.474 . S
C7256 C7251 1.342 . S
C7256 C7254 1.285 . S
C7256 H7275 0.930 . S
C7257 C7260 1.424 . S
C7257 C7262 1.245 . S
C7257 C7263 1.428 . S
C7258 C7261 1.260 . S
C7258 C7262 1.477 . S
C7258 H7276 0.932 . S
C7259 C7260 1.384 . S
C7259 C7261 1.479 . S
C7259 H7277 0.929 . S
C7260 C7257 1.424 . S
C7260 C7259 1.384 . S
C7260 H7278 0.928 . S
C7261 C7258 1.260 . S
C7261 C7259 1.479 . S
C7262 C7257 1.245 . S
C7262 C7258 1.477 . S
C7262 H7279 0.932 . S
C7263 U7246 2.882 . S
C7263 C7257 1.428 . S
C7263 O7266 1.301 . S
C7263 O7267 1.282 . S
O7264 U7246 2.441 . S
O7264 C7250 1.249 . S
O7265 U7246 2.420 . S
O7265 C7250 1.202 . S
O7266 U7246 2.455 . S
O7266 C7263 1.301 . S
O7267 U7246 2.449 . S
O7267 C7263 1.282 . S
H7268 C7241 0.931 . S
H7269 C7243 0.929 . S
H7270 C7244 0.930 . S
H7271 C7245 0.931 . S
H7272 C7252 0.932 . S
H7273 C7253 0.930 . S
H7274 C7254 0.929 . S
H7275 C7256 0.930 . S
H7276 C7258 0.932 . S
H7277 C7259 0.929 . S
H7278 C7260 0.928 . S
H7279 C7262 0.932 . S
C7280 C7281 1.264 . S
C7280 C7285 1.479 . S
C7280 C7290 1.465 . S
C7281 C7280 1.264 . S
C7281 C7283 1.339 . S
C7281 H7308 0.931 . S
C7282 C7283 1.395 . S
C7282 C7284 1.320 . S
C7283 C7281 1.339 . S
C7283 C7282 1.395 . S
C7283 H7309 0.929 . S
C7284 C7282 1.320 . S
C7284 C7285 1.405 . S
C7284 H7310 0.930 . S
C7285 C7280 1.479 . S
C7285 C7284 1.405 . S
C7285 H7311 0.931 . S
U7286 O7287 2.454 . S
U7286 O7288 2.458 . S
U7286 C7289 2.984 . S
U7286 C7290 2.847 . S
U7286 C7303 2.882 . S
U7286 O7304 2.441 . S
U7286 O7305 2.420 . S
U7286 O7306 2.455 . S
U7286 O7307 2.449 . S
O7287 U7286 2.454 . S
O7287 C7289 1.353 . S
O7288 U7286 2.458 . S
O7288 C7289 1.286 . S
C7289 U7286 2.984 . S
C7289 O7287 1.353 . S
C7289 O7288 1.286 . S
C7289 C7291 1.363 . S
C7290 C7280 1.465 . S
C7290 U7286 2.847 . S
C7290 O7304 1.249 . S
C7290 O7305 1.202 . S
C7291 C7289 1.363 . S
C7291 C7293 1.408 . S
C7291 C7296 1.342 . S
C7292 C7293 1.310 . S
C7292 C7295 1.461 . S
C7292 H7312 0.932 . S
C7293 C7291 1.408 . S
C7293 C7292 1.310 . S
C7293 H7313 0.930 . S
C7294 C7295 1.474 . S
C7294 C7296 1.285 . S
C7294 H7314 0.929 . S
C7295 C7292 1.461 . S
C7295 C7294 1.474 . S
C7296 C7291 1.342 . S
C7296 C7294 1.285 . S
C7296 H7315 0.930 . S
C7297 C7300 1.424 . S
C7297 C7302 1.245 . S
C7297 C7303 1.428 . S
C7298 C7301 1.260 . S
C7298 C7302 1.477 . S
C7298 H7316 0.932 . S
C7299 C7300 1.384 . S
C7299 C7301 1.479 . S
C7299 H7317 0.929 . S
C7300 C7297 1.424 . S
C7300 C7299 1.384 . S
C7300 H7318 0.928 . S
C7301 C7298 1.260 . S
C7301 C7299 1.479 . S
C7302 C7297 1.245 . S
C7302 C7298 1.477 . S
C7302 H7319 0.932 . S
C7303 U7286 2.882 . S
C7303 C7297 1.428 . S
C7303 O7306 1.301 . S
C7303 O7307 1.282 . S
O7304 U7286 2.441 . S
O7304 C7290 1.249 . S
O7305 U7286 2.420 . S
O7305 C7290 1.202 . S
O7306 U7286 2.455 . S
O7306 C7303 1.301 . S
O7307 U7286 2.449 . S
O7307 C7303 1.282 . S
H7308 C7281 0.931 . S
H7309 C7283 0.929 . S
H7310 C7284 0.930 . S
H7311 C7285 0.931 . S
H7312 C7292 0.932 . S
H7313 C7293 0.930 . S
H7314 C7294 0.929 . S
H7315 C7296 0.930 . S
H7316 C7298 0.932 . S
H7317 C7299 0.929 . S
H7318 C7300 0.928 . S
H7319 C7302 0.932 . S
C7320 C7321 1.264 . S
C7320 C7325 1.479 . S
C7320 C7330 1.465 . S
C7321 C7320 1.264 . S
C7321 C7323 1.339 . S
C7321 H7348 0.931 . S
C7322 C7323 1.395 . S
C7322 C7324 1.320 . S
C7323 C7321 1.339 . S
C7323 C7322 1.395 . S
C7323 H7349 0.929 . S
C7324 C7322 1.320 . S
C7324 C7325 1.405 . S
C7324 H7350 0.930 . S
C7325 C7320 1.479 . S
C7325 C7324 1.405 . S
C7325 H7351 0.931 . S
U7326 O7327 2.454 . S
U7326 O7328 2.458 . S
U7326 C7329 2.984 . S
U7326 C7330 2.847 . S
U7326 C7343 2.882 . S
U7326 O7344 2.441 . S
U7326 O7345 2.420 . S
U7326 O7346 2.455 . S
U7326 O7347 2.449 . S
O7327 U7326 2.454 . S
O7327 C7329 1.353 . S
O7328 U7326 2.458 . S
O7328 C7329 1.286 . S
C7329 U7326 2.984 . S
C7329 O7327 1.353 . S
C7329 O7328 1.286 . S
C7329 C7331 1.363 . S
C7330 C7320 1.465 . S
C7330 U7326 2.847 . S
C7330 O7344 1.249 . S
C7330 O7345 1.202 . S
C7331 C7329 1.363 . S
C7331 C7333 1.408 . S
C7331 C7336 1.342 . S
C7332 C7333 1.310 . S
C7332 C7335 1.461 . S
C7332 H7352 0.932 . S
C7333 C7331 1.408 . S
C7333 C7332 1.310 . S
C7333 H7353 0.930 . S
C7334 C7335 1.474 . S
C7334 C7336 1.285 . S
C7334 H7354 0.929 . S
C7335 C7332 1.461 . S
C7335 C7334 1.474 . S
C7336 C7331 1.342 . S
C7336 C7334 1.285 . S
C7336 H7355 0.930 . S
C7337 C7340 1.424 . S
C7337 C7342 1.245 . S
C7337 C7343 1.428 . S
C7338 C7341 1.260 . S
C7338 C7342 1.477 . S
C7338 H7356 0.932 . S
C7339 C7340 1.384 . S
C7339 C7341 1.479 . S
C7339 H7357 0.929 . S
C7340 C7337 1.424 . S
C7340 C7339 1.384 . S
C7340 H7358 0.928 . S
C7341 C7338 1.260 . S
C7341 C7339 1.479 . S
C7342 C7337 1.245 . S
C7342 C7338 1.477 . S
C7342 H7359 0.932 . S
C7343 U7326 2.882 . S
C7343 C7337 1.428 . S
C7343 O7346 1.301 . S
C7343 O7347 1.282 . S
O7344 U7326 2.441 . S
O7344 C7330 1.249 . S
O7345 U7326 2.420 . S
O7345 C7330 1.202 . S
O7346 U7326 2.455 . S
O7346 C7343 1.301 . S
O7347 U7326 2.449 . S
O7347 C7343 1.282 . S
H7348 C7321 0.931 . S
H7349 C7323 0.929 . S
H7350 C7324 0.930 . S
H7351 C7325 0.931 . S
H7352 C7332 0.932 . S
H7353 C7333 0.930 . S
H7354 C7334 0.929 . S
H7355 C7336 0.930 . S
H7356 C7338 0.932 . S
H7357 C7339 0.929 . S
H7358 C7340 0.928 . S
H7359 C7342 0.932 . S
C7360 C7361 1.264 . S
C7360 C7365 1.479 . S
C7360 C7370 1.465 . S
C7361 C7360 1.264 . S
C7361 C7363 1.339 . S
C7361 H7388 0.931 . S
C7362 C7363 1.395 . S
C7362 C7364 1.320 . S
C7363 C7361 1.339 . S
C7363 C7362 1.395 . S
C7363 H7389 0.929 . S
C7364 C7362 1.320 . S
C7364 C7365 1.405 . S
C7364 H7390 0.930 . S
C7365 C7360 1.479 . S
C7365 C7364 1.405 . S
C7365 H7391 0.931 . S
U7366 O7367 2.454 . S
U7366 O7368 2.458 . S
U7366 C7369 2.984 . S
U7366 C7370 2.847 . S
U7366 C7383 2.882 . S
U7366 O7384 2.441 . S
U7366 O7385 2.420 . S
U7366 O7386 2.455 . S
U7366 O7387 2.449 . S
O7367 U7366 2.454 . S
O7367 C7369 1.353 . S
O7368 U7366 2.458 . S
O7368 C7369 1.286 . S
C7369 U7366 2.984 . S
C7369 O7367 1.353 . S
C7369 O7368 1.286 . S
C7369 C7371 1.363 . S
C7370 C7360 1.465 . S
C7370 U7366 2.847 . S
C7370 O7384 1.249 . S
C7370 O7385 1.202 . S
C7371 C7369 1.363 . S
C7371 C7373 1.408 . S
C7371 C7376 1.342 . S
C7372 C7373 1.310 . S
C7372 C7375 1.461 . S
C7372 H7392 0.932 . S
C7373 C7371 1.408 . S
C7373 C7372 1.310 . S
C7373 H7393 0.930 . S
C7374 C7375 1.474 . S
C7374 C7376 1.285 . S
C7374 H7394 0.929 . S
C7375 C7372 1.461 . S
C7375 C7374 1.474 . S
C7376 C7371 1.342 . S
C7376 C7374 1.285 . S
C7376 H7395 0.930 . S
C7377 C7380 1.424 . S
C7377 C7382 1.245 . S
C7377 C7383 1.428 . S
C7378 C7381 1.260 . S
C7378 C7382 1.477 . S
C7378 H7396 0.932 . S
C7379 C7380 1.384 . S
C7379 C7381 1.479 . S
C7379 H7397 0.929 . S
C7380 C7377 1.424 . S
C7380 C7379 1.384 . S
C7380 H7398 0.928 . S
C7381 C7378 1.260 . S
C7381 C7379 1.479 . S
C7382 C7377 1.245 . S
C7382 C7378 1.477 . S
C7382 H7399 0.932 . S
C7383 U7366 2.882 . S
C7383 C7377 1.428 . S
C7383 O7386 1.301 . S
C7383 O7387 1.282 . S
O7384 U7366 2.441 . S
O7384 C7370 1.249 . S
O7385 U7366 2.420 . S
O7385 C7370 1.202 . S
O7386 U7366 2.455 . S
O7386 C7383 1.301 . S
O7387 U7366 2.449 . S
O7387 C7383 1.282 . S
H7388 C7361 0.931 . S
H7389 C7363 0.929 . S
H7390 C7364 0.930 . S
H7391 C7365 0.931 . S
H7392 C7372 0.932 . S
H7393 C7373 0.930 . S
H7394 C7374 0.929 . S
H7395 C7376 0.930 . S
H7396 C7378 0.932 . S
H7397 C7379 0.929 . S
H7398 C7380 0.928 . S
H7399 C7382 0.932 . S
C7400 C7401 1.264 . S
C7400 C7405 1.479 . S
C7400 C7410 1.465 . S
C7401 C7400 1.264 . S
C7401 C7403 1.339 . S
C7401 H7428 0.931 . S
C7402 C7403 1.395 . S
C7402 C7404 1.320 . S
C7403 C7401 1.339 . S
C7403 C7402 1.395 . S
C7403 H7429 0.929 . S
C7404 C7402 1.320 . S
C7404 C7405 1.405 . S
C7404 H7430 0.930 . S
C7405 C7400 1.479 . S
C7405 C7404 1.405 . S
C7405 H7431 0.931 . S
U7406 O7407 2.454 . S
U7406 O7408 2.458 . S
U7406 C7409 2.984 . S
U7406 C7410 2.847 . S
U7406 C7423 2.882 . S
U7406 O7424 2.441 . S
U7406 O7425 2.420 . S
U7406 O7426 2.455 . S
U7406 O7427 2.449 . S
O7407 U7406 2.454 . S
O7407 C7409 1.353 . S
O7408 U7406 2.458 . S
O7408 C7409 1.286 . S
C7409 U7406 2.984 . S
C7409 O7407 1.353 . S
C7409 O7408 1.286 . S
C7409 C7411 1.363 . S
C7410 C7400 1.465 . S
C7410 U7406 2.847 . S
C7410 O7424 1.249 . S
C7410 O7425 1.202 . S
C7411 C7409 1.363 . S
C7411 C7413 1.408 . S
C7411 C7416 1.342 . S
C7412 C7413 1.310 . S
C7412 C7415 1.461 . S
C7412 H7432 0.932 . S
C7413 C7411 1.408 . S
C7413 C7412 1.310 . S
C7413 H7433 0.930 . S
C7414 C7415 1.474 . S
C7414 C7416 1.285 . S
C7414 H7434 0.929 . S
C7415 C7412 1.461 . S
C7415 C7414 1.474 . S
C7416 C7411 1.342 . S
C7416 C7414 1.285 . S
C7416 H7435 0.930 . S
C7417 C7420 1.424 . S
C7417 C7422 1.245 . S
C7417 C7423 1.428 . S
C7418 C7421 1.260 . S
C7418 C7422 1.477 . S
C7418 H7436 0.932 . S
C7419 C7420 1.384 . S
C7419 C7421 1.479 . S
C7419 H7437 0.929 . S
C7420 C7417 1.424 . S
C7420 C7419 1.384 . S
C7420 H7438 0.928 . S
C7421 C7418 1.260 . S
C7421 C7419 1.479 . S
C7422 C7417 1.245 . S
C7422 C7418 1.477 . S
C7422 H7439 0.932 . S
C7423 U7406 2.882 . S
C7423 C7417 1.428 . S
C7423 O7426 1.301 . S
C7423 O7427 1.282 . S
O7424 U7406 2.441 . S
O7424 C7410 1.249 . S
O7425 U7406 2.420 . S
O7425 C7410 1.202 . S
O7426 U7406 2.455 . S
O7426 C7423 1.301 . S
O7427 U7406 2.449 . S
O7427 C7423 1.282 . S
H7428 C7401 0.931 . S
H7429 C7403 0.929 . S
H7430 C7404 0.930 . S
H7431 C7405 0.931 . S
H7432 C7412 0.932 . S
H7433 C7413 0.930 . S
H7434 C7414 0.929 . S
H7435 C7416 0.930 . S
H7436 C7418 0.932 . S
H7437 C7419 0.929 . S
H7438 C7420 0.928 . S
H7439 C7422 0.932 . S
C7440 C7441 1.264 . S
C7440 C7445 1.479 . S
C7440 C7450 1.465 . S
C7441 C7440 1.264 . S
C7441 C7443 1.339 . S
C7441 H7468 0.931 . S
C7442 C7443 1.395 . S
C7442 C7444 1.320 . S
C7443 C7441 1.339 . S
C7443 C7442 1.395 . S
C7443 H7469 0.929 . S
C7444 C7442 1.320 . S
C7444 C7445 1.405 . S
C7444 H7470 0.930 . S
C7445 C7440 1.479 . S
C7445 C7444 1.405 . S
C7445 H7471 0.931 . S
U7446 O7447 2.454 . S
U7446 O7448 2.458 . S
U7446 C7449 2.984 . S
U7446 C7450 2.847 . S
U7446 C7463 2.882 . S
U7446 O7464 2.441 . S
U7446 O7465 2.420 . S
U7446 O7466 2.455 . S
U7446 O7467 2.449 . S
O7447 U7446 2.454 . S
O7447 C7449 1.353 . S
O7448 U7446 2.458 . S
O7448 C7449 1.286 . S
C7449 U7446 2.984 . S
C7449 O7447 1.353 . S
C7449 O7448 1.286 . S
C7449 C7451 1.363 . S
C7450 C7440 1.465 . S
C7450 U7446 2.847 . S
C7450 O7464 1.249 . S
C7450 O7465 1.202 . S
C7451 C7449 1.363 . S
C7451 C7453 1.408 . S
C7451 C7456 1.342 . S
C7452 C7453 1.310 . S
C7452 C7455 1.461 . S
C7452 H7472 0.932 . S
C7453 C7451 1.408 . S
C7453 C7452 1.310 . S
C7453 H7473 0.930 . S
C7454 C7455 1.474 . S
C7454 C7456 1.285 . S
C7454 H7474 0.929 . S
C7455 C7452 1.461 . S
C7455 C7454 1.474 . S
C7456 C7451 1.342 . S
C7456 C7454 1.285 . S
C7456 H7475 0.930 . S
C7457 C7460 1.424 . S
C7457 C7462 1.245 . S
C7457 C7463 1.428 . S
C7458 C7461 1.260 . S
C7458 C7462 1.477 . S
C7458 H7476 0.932 . S
C7459 C7460 1.384 . S
C7459 C7461 1.479 . S
C7459 H7477 0.929 . S
C7460 C7457 1.424 . S
C7460 C7459 1.384 . S
C7460 H7478 0.928 . S
C7461 C7458 1.260 . S
C7461 C7459 1.479 . S
C7462 C7457 1.245 . S
C7462 C7458 1.477 . S
C7462 H7479 0.932 . S
C7463 U7446 2.882 . S
C7463 C7457 1.428 . S
C7463 O7466 1.301 . S
C7463 O7467 1.282 . S
O7464 U7446 2.441 . S
O7464 C7450 1.249 . S
O7465 U7446 2.420 . S
O7465 C7450 1.202 . S
O7466 U7446 2.455 . S
O7466 C7463 1.301 . S
O7467 U7446 2.449 . S
O7467 C7463 1.282 . S
H7468 C7441 0.931 . S
H7469 C7443 0.929 . S
H7470 C7444 0.930 . S
H7471 C7445 0.931 . S
H7472 C7452 0.932 . S
H7473 C7453 0.930 . S
H7474 C7454 0.929 . S
H7475 C7456 0.930 . S
H7476 C7458 0.932 . S
H7477 C7459 0.929 . S
H7478 C7460 0.928 . S
H7479 C7462 0.932 . S
C7480 C7481 1.264 . S
C7480 C7485 1.479 . S
C7480 C7490 1.465 . S
C7481 C7480 1.264 . S
C7481 C7483 1.339 . S
C7481 H7508 0.931 . S
C7482 C7483 1.395 . S
C7482 C7484 1.320 . S
C7483 C7481 1.339 . S
C7483 C7482 1.395 . S
C7483 H7509 0.929 . S
C7484 C7482 1.320 . S
C7484 C7485 1.405 . S
C7484 H7510 0.930 . S
C7485 C7480 1.479 . S
C7485 C7484 1.405 . S
C7485 H7511 0.931 . S
U7486 O7487 2.454 . S
U7486 O7488 2.458 . S
U7486 C7489 2.984 . S
U7486 C7490 2.847 . S
U7486 C7503 2.882 . S
U7486 O7504 2.441 . S
U7486 O7505 2.420 . S
U7486 O7506 2.455 . S
U7486 O7507 2.449 . S
O7487 U7486 2.454 . S
O7487 C7489 1.353 . S
O7488 U7486 2.458 . S
O7488 C7489 1.286 . S
C7489 U7486 2.984 . S
C7489 O7487 1.353 . S
C7489 O7488 1.286 . S
C7489 C7491 1.363 . S
C7490 C7480 1.465 . S
C7490 U7486 2.847 . S
C7490 O7504 1.249 . S
C7490 O7505 1.202 . S
C7491 C7489 1.363 . S
C7491 C7493 1.408 . S
C7491 C7496 1.342 . S
C7492 C7493 1.310 . S
C7492 C7495 1.461 . S
C7492 H7512 0.932 . S
C7493 C7491 1.408 . S
C7493 C7492 1.310 . S
C7493 H7513 0.930 . S
C7494 C7495 1.474 . S
C7494 C7496 1.285 . S
C7494 H7514 0.929 . S
C7495 C7492 1.461 . S
C7495 C7494 1.474 . S
C7496 C7491 1.342 . S
C7496 C7494 1.285 . S
C7496 H7515 0.930 . S
C7497 C7500 1.424 . S
C7497 C7502 1.245 . S
C7497 C7503 1.428 . S
C7498 C7501 1.260 . S
C7498 C7502 1.477 . S
C7498 H7516 0.932 . S
C7499 C7500 1.384 . S
C7499 C7501 1.479 . S
C7499 H7517 0.929 . S
C7500 C7497 1.424 . S
C7500 C7499 1.384 . S
C7500 H7518 0.928 . S
C7501 C7498 1.260 . S
C7501 C7499 1.479 . S
C7502 C7497 1.245 . S
C7502 C7498 1.477 . S
C7502 H7519 0.932 . S
C7503 U7486 2.882 . S
C7503 C7497 1.428 . S
C7503 O7506 1.301 . S
C7503 O7507 1.282 . S
O7504 U7486 2.441 . S
O7504 C7490 1.249 . S
O7505 U7486 2.420 . S
O7505 C7490 1.202 . S
O7506 U7486 2.455 . S
O7506 C7503 1.301 . S
O7507 U7486 2.449 . S
O7507 C7503 1.282 . S
H7508 C7481 0.931 . S
H7509 C7483 0.929 . S
H7510 C7484 0.930 . S
H7511 C7485 0.931 . S
H7512 C7492 0.932 . S
H7513 C7493 0.930 . S
H7514 C7494 0.929 . S
H7515 C7496 0.930 . S
H7516 C7498 0.932 . S
H7517 C7499 0.929 . S
H7518 C7500 0.928 . S
H7519 C7502 0.932 . S
C7520 C7521 1.264 . S
C7520 C7525 1.479 . S
C7520 C7530 1.465 . S
C7521 C7520 1.264 . S
C7521 C7523 1.339 . S
C7521 H7548 0.931 . S
C7522 C7523 1.395 . S
C7522 C7524 1.320 . S
C7523 C7521 1.339 . S
C7523 C7522 1.395 . S
C7523 H7549 0.929 . S
C7524 C7522 1.320 . S
C7524 C7525 1.405 . S
C7524 H7550 0.930 . S
C7525 C7520 1.479 . S
C7525 C7524 1.405 . S
C7525 H7551 0.931 . S
U7526 O7527 2.454 . S
U7526 O7528 2.458 . S
U7526 C7529 2.984 . S
U7526 C7530 2.847 . S
U7526 C7543 2.882 . S
U7526 O7544 2.441 . S
U7526 O7545 2.420 . S
U7526 O7546 2.455 . S
U7526 O7547 2.449 . S
O7527 U7526 2.454 . S
O7527 C7529 1.353 . S
O7528 U7526 2.458 . S
O7528 C7529 1.286 . S
C7529 U7526 2.984 . S
C7529 O7527 1.353 . S
C7529 O7528 1.286 . S
C7529 C7531 1.363 . S
C7530 C7520 1.465 . S
C7530 U7526 2.847 . S
C7530 O7544 1.249 . S
C7530 O7545 1.202 . S
C7531 C7529 1.363 . S
C7531 C7533 1.408 . S
C7531 C7536 1.342 . S
C7532 C7533 1.310 . S
C7532 C7535 1.461 . S
C7532 H7552 0.932 . S
C7533 C7531 1.408 . S
C7533 C7532 1.310 . S
C7533 H7553 0.930 . S
C7534 C7535 1.474 . S
C7534 C7536 1.285 . S
C7534 H7554 0.929 . S
C7535 C7532 1.461 . S
C7535 C7534 1.474 . S
C7536 C7531 1.342 . S
C7536 C7534 1.285 . S
C7536 H7555 0.930 . S
C7537 C7540 1.424 . S
C7537 C7542 1.245 . S
C7537 C7543 1.428 . S
C7538 C7541 1.260 . S
C7538 C7542 1.477 . S
C7538 H7556 0.932 . S
C7539 C7540 1.384 . S
C7539 C7541 1.479 . S
C7539 H7557 0.929 . S
C7540 C7537 1.424 . S
C7540 C7539 1.384 . S
C7540 H7558 0.928 . S
C7541 C7538 1.260 . S
C7541 C7539 1.479 . S
C7542 C7537 1.245 . S
C7542 C7538 1.477 . S
C7542 H7559 0.932 . S
C7543 U7526 2.882 . S
C7543 C7537 1.428 . S
C7543 O7546 1.301 . S
C7543 O7547 1.282 . S
O7544 U7526 2.441 . S
O7544 C7530 1.249 . S
O7545 U7526 2.420 . S
O7545 C7530 1.202 . S
O7546 U7526 2.455 . S
O7546 C7543 1.301 . S
O7547 U7526 2.449 . S
O7547 C7543 1.282 . S
H7548 C7521 0.931 . S
H7549 C7523 0.929 . S
H7550 C7524 0.930 . S
H7551 C7525 0.931 . S
H7552 C7532 0.932 . S
H7553 C7533 0.930 . S
H7554 C7534 0.929 . S
H7555 C7536 0.930 . S
H7556 C7538 0.932 . S
H7557 C7539 0.929 . S
H7558 C7540 0.928 . S
H7559 C7542 0.932 . S
C7560 C7561 1.264 . S
C7560 C7565 1.479 . S
C7560 C7570 1.465 . S
C7561 C7560 1.264 . S
C7561 C7563 1.339 . S
C7561 H7588 0.931 . S
C7562 C7563 1.395 . S
C7562 C7564 1.320 . S
C7563 C7561 1.339 . S
C7563 C7562 1.395 . S
C7563 H7589 0.929 . S
C7564 C7562 1.320 . S
C7564 C7565 1.405 . S
C7564 H7590 0.930 . S
C7565 C7560 1.479 . S
C7565 C7564 1.405 . S
C7565 H7591 0.931 . S
U7566 O7567 2.454 . S
U7566 O7568 2.458 . S
U7566 C7569 2.984 . S
U7566 C7570 2.847 . S
U7566 C7583 2.882 . S
U7566 O7584 2.441 . S
U7566 O7585 2.420 . S
U7566 O7586 2.455 . S
U7566 O7587 2.449 . S
O7567 U7566 2.454 . S
O7567 C7569 1.353 . S
O7568 U7566 2.458 . S
O7568 C7569 1.286 . S
C7569 U7566 2.984 . S
C7569 O7567 1.353 . S
C7569 O7568 1.286 . S
C7569 C7571 1.363 . S
C7570 C7560 1.465 . S
C7570 U7566 2.847 . S
C7570 O7584 1.249 . S
C7570 O7585 1.202 . S
C7571 C7569 1.363 . S
C7571 C7573 1.408 . S
C7571 C7576 1.342 . S
C7572 C7573 1.310 . S
C7572 C7575 1.461 . S
C7572 H7592 0.932 . S
C7573 C7571 1.408 . S
C7573 C7572 1.310 . S
C7573 H7593 0.930 . S
C7574 C7575 1.474 . S
C7574 C7576 1.285 . S
C7574 H7594 0.929 . S
C7575 C7572 1.461 . S
C7575 C7574 1.474 . S
C7576 C7571 1.342 . S
C7576 C7574 1.285 . S
C7576 H7595 0.930 . S
C7577 C7580 1.424 . S
C7577 C7582 1.245 . S
C7577 C7583 1.428 . S
C7578 C7581 1.260 . S
C7578 C7582 1.477 . S
C7578 H7596 0.932 . S
C7579 C7580 1.384 . S
C7579 C7581 1.479 . S
C7579 H7597 0.929 . S
C7580 C7577 1.424 . S
C7580 C7579 1.384 . S
C7580 H7598 0.928 . S
C7581 C7578 1.260 . S
C7581 C7579 1.479 . S
C7582 C7577 1.245 . S
C7582 C7578 1.477 . S
C7582 H7599 0.932 . S
C7583 U7566 2.882 . S
C7583 C7577 1.428 . S
C7583 O7586 1.301 . S
C7583 O7587 1.282 . S
O7584 U7566 2.441 . S
O7584 C7570 1.249 . S
O7585 U7566 2.420 . S
O7585 C7570 1.202 . S
O7586 U7566 2.455 . S
O7586 C7583 1.301 . S
O7587 U7566 2.449 . S
O7587 C7583 1.282 . S
H7588 C7561 0.931 . S
H7589 C7563 0.929 . S
H7590 C7564 0.930 . S
H7591 C7565 0.931 . S
H7592 C7572 0.932 . S
H7593 C7573 0.930 . S
H7594 C7574 0.929 . S
H7595 C7576 0.930 . S
H7596 C7578 0.932 . S
H7597 C7579 0.929 . S
H7598 C7580 0.928 . S
H7599 C7582 0.932 . S
C7600 C7601 1.264 . S
C7600 C7605 1.479 . S
C7600 C7610 1.465 . S
C7601 C7600 1.264 . S
C7601 C7603 1.339 . S
C7601 H7628 0.931 . S
C7602 C7603 1.395 . S
C7602 C7604 1.320 . S
C7603 C7601 1.339 . S
C7603 C7602 1.395 . S
C7603 H7629 0.929 . S
C7604 C7602 1.320 . S
C7604 C7605 1.405 . S
C7604 H7630 0.930 . S
C7605 C7600 1.479 . S
C7605 C7604 1.405 . S
C7605 H7631 0.931 . S
U7606 O7607 2.454 . S
U7606 O7608 2.458 . S
U7606 C7609 2.984 . S
U7606 C7610 2.847 . S
U7606 C7623 2.882 . S
U7606 O7624 2.441 . S
U7606 O7625 2.420 . S
U7606 O7626 2.455 . S
U7606 O7627 2.449 . S
O7607 U7606 2.454 . S
O7607 C7609 1.353 . S
O7608 U7606 2.458 . S
O7608 C7609 1.286 . S
C7609 U7606 2.984 . S
C7609 O7607 1.353 . S
C7609 O7608 1.286 . S
C7609 C7611 1.363 . S
C7610 C7600 1.465 . S
C7610 U7606 2.847 . S
C7610 O7624 1.249 . S
C7610 O7625 1.202 . S
C7611 C7609 1.363 . S
C7611 C7613 1.408 . S
C7611 C7616 1.342 . S
C7612 C7613 1.310 . S
C7612 C7615 1.461 . S
C7612 H7632 0.932 . S
C7613 C7611 1.408 . S
C7613 C7612 1.310 . S
C7613 H7633 0.930 . S
C7614 C7615 1.474 . S
C7614 C7616 1.285 . S
C7614 H7634 0.929 . S
C7615 C7612 1.461 . S
C7615 C7614 1.474 . S
C7616 C7611 1.342 . S
C7616 C7614 1.285 . S
C7616 H7635 0.930 . S
C7617 C7620 1.424 . S
C7617 C7622 1.245 . S
C7617 C7623 1.428 . S
C7618 C7621 1.260 . S
C7618 C7622 1.477 . S
C7618 H7636 0.932 . S
C7619 C7620 1.384 . S
C7619 C7621 1.479 . S
C7619 H7637 0.929 . S
C7620 C7617 1.424 . S
C7620 C7619 1.384 . S
C7620 H7638 0.928 . S
C7621 C7618 1.260 . S
C7621 C7619 1.479 . S
C7622 C7617 1.245 . S
C7622 C7618 1.477 . S
C7622 H7639 0.932 . S
C7623 U7606 2.882 . S
C7623 C7617 1.428 . S
C7623 O7626 1.301 . S
C7623 O7627 1.282 . S
O7624 U7606 2.441 . S
O7624 C7610 1.249 . S
O7625 U7606 2.420 . S
O7625 C7610 1.202 . S
O7626 U7606 2.455 . S
O7626 C7623 1.301 . S
O7627 U7606 2.449 . S
O7627 C7623 1.282 . S
H7628 C7601 0.931 . S
H7629 C7603 0.929 . S
H7630 C7604 0.930 . S
H7631 C7605 0.931 . S
H7632 C7612 0.932 . S
H7633 C7613 0.930 . S
H7634 C7614 0.929 . S
H7635 C7616 0.930 . S
H7636 C7618 0.932 . S
H7637 C7619 0.929 . S
H7638 C7620 0.928 . S
H7639 C7622 0.932 . S
C7640 C7641 1.264 . S
C7640 C7645 1.479 . S
C7640 C7650 1.465 . S
C7641 C7640 1.264 . S
C7641 C7643 1.339 . S
C7641 H7668 0.931 . S
C7642 C7643 1.395 . S
C7642 C7644 1.320 . S
C7643 C7641 1.339 . S
C7643 C7642 1.395 . S
C7643 H7669 0.929 . S
C7644 C7642 1.320 . S
C7644 C7645 1.405 . S
C7644 H7670 0.930 . S
C7645 C7640 1.479 . S
C7645 C7644 1.405 . S
C7645 H7671 0.931 . S
U7646 O7647 2.454 . S
U7646 O7648 2.458 . S
U7646 C7649 2.984 . S
U7646 C7650 2.847 . S
U7646 C7663 2.882 . S
U7646 O7664 2.441 . S
U7646 O7665 2.420 . S
U7646 O7666 2.455 . S
U7646 O7667 2.449 . S
O7647 U7646 2.454 . S
O7647 C7649 1.353 . S
O7648 U7646 2.458 . S
O7648 C7649 1.286 . S
C7649 U7646 2.984 . S
C7649 O7647 1.353 . S
C7649 O7648 1.286 . S
C7649 C7651 1.363 . S
C7650 C7640 1.465 . S
C7650 U7646 2.847 . S
C7650 O7664 1.249 . S
C7650 O7665 1.202 . S
C7651 C7649 1.363 . S
C7651 C7653 1.408 . S
C7651 C7656 1.342 . S
C7652 C7653 1.310 . S
C7652 C7655 1.461 . S
C7652 H7672 0.932 . S
C7653 C7651 1.408 . S
C7653 C7652 1.310 . S
C7653 H7673 0.930 . S
C7654 C7655 1.474 . S
C7654 C7656 1.285 . S
C7654 H7674 0.929 . S
C7655 C7652 1.461 . S
C7655 C7654 1.474 . S
C7656 C7651 1.342 . S
C7656 C7654 1.285 . S
C7656 H7675 0.930 . S
C7657 C7660 1.424 . S
C7657 C7662 1.245 . S
C7657 C7663 1.428 . S
C7658 C7661 1.260 . S
C7658 C7662 1.477 . S
C7658 H7676 0.932 . S
C7659 C7660 1.384 . S
C7659 C7661 1.479 . S
C7659 H7677 0.929 . S
C7660 C7657 1.424 . S
C7660 C7659 1.384 . S
C7660 H7678 0.928 . S
C7661 C7658 1.260 . S
C7661 C7659 1.479 . S
C7662 C7657 1.245 . S
C7662 C7658 1.477 . S
C7662 H7679 0.932 . S
C7663 U7646 2.882 . S
C7663 C7657 1.428 . S
C7663 O7666 1.301 . S
C7663 O7667 1.282 . S
O7664 U7646 2.441 . S
O7664 C7650 1.249 . S
O7665 U7646 2.420 . S
O7665 C7650 1.202 . S
O7666 U7646 2.455 . S
O7666 C7663 1.301 . S
O7667 U7646 2.449 . S
O7667 C7663 1.282 . S
H7668 C7641 0.931 . S
H7669 C7643 0.929 . S
H7670 C7644 0.930 . S
H7671 C7645 0.931 . S
H7672 C7652 0.932 . S
H7673 C7653 0.930 . S
H7674 C7654 0.929 . S
H7675 C7656 0.930 . S
H7676 C7658 0.932 . S
H7677 C7659 0.929 . S
H7678 C7660 0.928 . S
H7679 C7662 0.932 . S
C7680 C7681 1.387 . S
C7680 H7684 0.950 . S
C7680 C7689 1.390 1_455 S
C7681 C7680 1.387 . S
C7681 C7683 1.387 . S
H7682 C7689 0.950 . S
C7683 C7681 1.387 . S
C7683 C7685 1.515 . S
C7683 H7687 0.950 . S
H7684 C7680 0.950 . S
C7685 C7683 1.515 . S
C7685 C7686 1.310 1_455 S
C7685 H7688 0.900 1_455 S
C7686 C7685 1.310 1_655 S
C7686 C7689 1.387 . S
H7687 C7683 0.950 . S
H7688 C7685 0.900 1_655 S
C7689 C7680 1.390 1_655 S
C7689 H7682 0.950 . S
C7689 C7686 1.387 . S
C7690 C7691 1.387 . S
C7690 H7694 0.950 . S
C7690 C7699 1.390 . S
C7691 C7690 1.387 . S
C7691 C7693 1.387 . S
H7692 C7699 0.950 . S
C7693 C7691 1.387 . S
C7693 C7695 1.390 . S
C7693 H7697 0.950 . S
H7694 C7690 0.950 . S
C7695 C7693 1.390 . S
C7695 C7696 1.387 . S
C7695 H7698 0.950 . S
C7696 C7695 1.387 . S
C7696 C7699 1.387 . S
H7697 C7693 0.950 . S
H7698 C7695 0.950 . S
C7699 C7690 1.390 . S
C7699 H7692 0.950 . S
C7699 C7696 1.387 . S
C7700 C7701 1.387 . S
C7700 H7704 0.950 . S
C7700 C7709 1.390 . S
C7701 C7700 1.387 . S
C7701 C7703 1.387 . S
H7702 C7709 0.950 . S
C7703 C7701 1.387 . S
C7703 C7705 1.390 . S
C7703 H7707 0.950 . S
H7704 C7700 0.950 . S
C7705 C7703 1.390 . S
C7705 C7706 1.387 . S
C7705 H7708 0.950 . S
C7706 C7705 1.387 . S
C7706 C7709 1.387 . S
H7707 C7703 0.950 . S
H7708 C7705 0.950 . S
C7709 C7700 1.390 . S
C7709 H7702 0.950 . S
C7709 C7706 1.387 . S
C7710 C7711 1.387 . S
C7710 H7714 0.950 . S
C7710 C7719 1.390 . S
C7711 C7710 1.387 . S
C7711 C7713 1.387 . S
H7712 C7719 0.950 . S
C7713 C7711 1.387 . S
C7713 C7715 1.390 . S
C7713 H7717 0.950 . S
H7714 C7710 0.950 . S
C7715 C7713 1.390 . S
C7715 C7716 1.387 . S
C7715 H7718 0.950 . S
C7716 C7715 1.387 . S
C7716 C7719 1.387 . S
H7717 C7713 0.950 . S
H7718 C7715 0.950 . S
C7719 C7710 1.390 . S
C7719 H7712 0.950 . S
C7719 C7716 1.387 . S
C7720 C7721 1.387 . S
C7720 H7724 0.950 . S
C7720 C7729 1.482 . S
C7721 C7720 1.387 . S
C7721 C7723 1.387 . S
H7722 C7729 0.921 1_655 S
C7723 C7721 1.387 . S
C7723 C7725 1.390 1_455 S
C7723 H7727 0.950 . S
H7724 C7720 0.950 . S
C7725 C7723 1.390 1_655 S
C7725 C7726 1.387 . S
C7725 H7728 0.950 . S
C7726 C7725 1.387 . S
C7726 C7729 1.332 1_655 S
H7727 C7723 0.950 . S
H7728 C7725 0.950 . S
C7729 C7720 1.482 . S
C7729 H7722 0.921 1_455 S
C7729 C7726 1.332 1_455 S
C7730 C7731 1.387 . S
C7730 H7734 0.950 . S
C7730 C7739 1.390 . S
C7731 C7730 1.387 . S
C7731 C7733 1.387 . S
H7732 C7739 0.950 . S
C7733 C7731 1.387 . S
C7733 C7735 1.390 . S
C7733 H7737 0.950 . S
H7734 C7730 0.950 . S
C7735 C7733 1.390 . S
C7735 C7736 1.387 . S
C7735 H7738 0.950 . S
C7736 C7735 1.387 . S
C7736 C7739 1.387 . S
H7737 C7733 0.950 . S
H7738 C7735 0.950 . S
C7739 C7730 1.390 . S
C7739 H7732 0.950 . S
C7739 C7736 1.387 . S
C7740 C7741 1.387 . S
C7740 H7744 0.950 . S
C7740 C7749 1.390 . S
C7741 C7740 1.387 . S
C7741 C7743 1.387 . S
H7742 C7749 0.950 . S
C7743 C7741 1.387 . S
C7743 C7745 1.390 . S
C7743 H7747 0.950 . S
H7744 C7740 0.950 . S
C7745 C7743 1.390 . S
C7745 C7746 1.387 . S
C7745 H7748 0.950 . S
C7746 C7745 1.387 . S
C7746 C7749 1.387 . S
H7747 C7743 0.950 . S
H7748 C7745 0.950 . S
C7749 C7740 1.390 . S
C7749 H7742 0.950 . S
C7749 C7746 1.387 . S
C7750 C7751 1.387 . S
C7750 H7754 0.950 . S
C7750 C7759 1.390 . S
C7751 C7750 1.387 . S
C7751 C7753 1.387 . S
H7752 C7759 0.950 . S
C7753 C7751 1.387 . S
C7753 C7755 1.390 . S
C7753 H7757 0.950 . S
H7754 C7750 0.950 . S
C7755 C7753 1.390 . S
C7755 C7756 1.387 . S
C7755 H7758 0.950 . S
C7756 C7755 1.387 . S
C7756 C7759 1.387 . S
H7757 C7753 0.950 . S
H7758 C7755 0.950 . S
C7759 C7750 1.390 . S
C7759 H7752 0.950 . S
C7759 C7756 1.387 . S
C7760 C7761 1.387 . S
C7760 H7764 0.950 . S
C7760 C7769 1.380 1_545 S
C7761 C7760 1.387 . S
C7761 C7763 1.387 . S
H7762 C7769 0.954 . S
C7763 C7761 1.387 . S
C7763 C7765 1.335 1_545 S
C7763 H7767 0.950 . S
H7764 C7760 0.950 . S
C7765 C7763 1.335 1_565 S
C7765 C7766 1.415 . S
C7765 H7768 0.980 . S
C7766 C7765 1.415 . S
C7766 C7769 1.393 . S
H7767 C7763 0.950 . S
H7768 C7765 0.980 . S
C7769 C7760 1.380 1_565 S
C7769 H7762 0.954 . S
C7769 C7766 1.393 . S
C7770 C7771 1.387 . S
C7770 H7774 0.950 . S
C7770 C7779 1.390 . S
C7771 C7770 1.387 . S
C7771 C7773 1.387 . S
H7772 C7779 0.950 . S
C7773 C7771 1.387 . S
C7773 C7775 1.390 . S
C7773 H7777 0.950 . S
H7774 C7770 0.950 . S
C7775 C7773 1.390 . S
C7775 C7776 1.387 . S
C7775 H7778 0.950 . S
C7776 C7775 1.387 . S
C7776 C7779 1.387 . S
H7777 C7773 0.950 . S
H7778 C7775 0.950 . S
C7779 C7770 1.390 . S
C7779 H7772 0.950 . S
C7779 C7776 1.387 . S
C7780 C7781 1.387 . S
C7780 H7784 0.950 . S
C7780 C7789 1.390 1_565 S
C7781 C7780 1.387 . S
C7781 C7783 1.387 . S
H7782 C7789 0.950 . S
C7783 C7781 1.387 . S
C7783 C7785 1.390 . S
C7783 H7787 0.950 . S
H7784 C7780 0.950 . S
C7785 C7783 1.390 . S
C7785 C7786 1.387 1_565 S
C7785 H7788 0.950 . S
C7786 C7785 1.387 1_545 S
C7786 C7789 1.387 . S
H7787 C7783 0.950 . S
H7788 C7785 0.950 . S
C7789 C7780 1.390 1_545 S
C7789 H7782 0.950 . S
C7789 C7786 1.387 . S
C7790 C7791 1.387 . S
C7790 H7794 0.950 . S
C7790 C7799 1.390 . S
C7791 C7790 1.387 . S
C7791 C7793 1.387 . S
H7792 C7799 0.950 . S
C7793 C7791 1.387 . S
C7793 C7795 1.390 . S
C7793 H7797 0.950 . S
H7794 C7790 0.950 . S
C7795 C7793 1.390 . S
C7795 C7796 1.387 . S
C7795 H7798 0.950 . S
C7796 C7795 1.387 . S
C7796 C7799 1.387 . S
H7797 C7793 0.950 . S
H7798 C7795 0.950 . S
C7799 C7790 1.390 . S
C7799 H7792 0.950 . S
C7799 C7796 1.387 . S
C7800 C7801 1.387 . S
C7800 H7804 0.950 . S
C7800 C7809 1.552 . S
C7801 C7800 1.387 . S
C7801 C7803 1.387 . S
H7802 C7809 0.910 1_545 S
C7803 C7801 1.387 . S
C7803 C7805 1.390 1_565 S
C7803 H7807 0.950 . S
H7804 C7800 0.950 . S
C7805 C7803 1.390 1_545 S
C7805 C7806 1.387 . S
C7805 H7808 0.950 . S
C7806 C7805 1.387 . S
C7806 C7809 1.284 1_545 S
H7807 C7803 0.950 . S
H7808 C7805 0.950 . S
C7809 C7800 1.552 . S
C7809 H7802 0.910 1_565 S
C7809 C7806 1.284 1_565 S
C7810 C7811 1.387 . S
C7810 H7814 0.950 . S
C7810 C7819 1.390 . S
C7811 C7810 1.387 . S
C7811 C7813 1.387 . S
H7812 C7819 0.950 . S
C7813 C7811 1.387 . S
C7813 C7815 1.390 . S
C7813 H7817 0.950 . S
H7814 C7810 0.950 . S
C7815 C7813 1.390 . S
C7815 C7816 1.387 . S
C7815 H7818 0.950 . S
C7816 C7815 1.387 . S
C7816 C7819 1.387 . S
H7817 C7813 0.950 . S
H7818 C7815 0.950 . S
C7819 C7810 1.390 . S
C7819 H7812 0.950 . S
C7819 C7816 1.387 . S
C7820 C7821 1.387 . S
C7820 H7824 0.950 . S
C7820 C7829 1.390 1_545 S
C7821 C7820 1.387 . S
C7821 C7823 1.387 . S
H7822 C7829 0.950 . S
C7823 C7821 1.387 . S
C7823 C7825 1.552 . S
C7823 H7827 0.950 . S
H7824 C7820 0.950 . S
C7825 C7823 1.552 . S
C7825 C7826 1.284 1_545 S
C7825 H7828 0.909 1_545 S
C7826 C7825 1.284 1_565 S
C7826 C7829 1.387 . S
H7827 C7823 0.950 . S
H7828 C7825 0.909 1_565 S
C7829 C7820 1.390 1_565 S
C7829 H7822 0.950 . S
C7829 C7826 1.387 . S
C7830 C7831 1.387 . S
C7830 H7834 0.950 . S
C7830 C7839 1.390 . S
C7831 C7830 1.387 . S
C7831 C7833 1.387 . S
H7832 C7839 0.950 . S
C7833 C7831 1.387 . S
C7833 C7835 1.390 . S
C7833 H7837 0.950 . S
H7834 C7830 0.950 . S
C7835 C7833 1.390 . S
C7835 C7836 1.387 . S
C7835 H7838 0.950 . S
C7836 C7835 1.387 . S
C7836 C7839 1.387 . S
H7837 C7833 0.950 . S
H7838 C7835 0.950 . S
C7839 C7830 1.390 . S
C7839 H7832 0.950 . S
C7839 C7836 1.387 . S
C7840 C7841 1.387 . S
C7840 H7844 0.950 . S
C7840 C7849 1.390 1_554 S
C7841 C7840 1.387 . S
C7841 C7843 1.387 . S
H7842 C7849 0.950 . S
C7843 C7841 1.387 . S
C7843 C7845 1.390 . S
C7843 H7847 0.950 . S
H7844 C7840 0.950 . S
C7845 C7843 1.390 . S
C7845 C7846 1.387 1_554 S
C7845 H7848 0.939 1_554 S
C7846 C7845 1.387 1_556 S
C7846 C7849 1.387 . S
H7847 C7843 0.950 . S
H7848 C7845 0.939 1_556 S
C7849 C7840 1.390 1_556 S
C7849 H7842 0.950 . S
C7849 C7846 1.387 . S
C7850 C7851 1.387 . S
C7850 H7854 0.950 . S
C7850 C7859 1.390 1_556 S
C7851 C7850 1.387 . S
C7851 C7853 1.387 . S
H7852 C7859 0.950 . S
C7853 C7851 1.387 . S
C7853 C7855 1.490 . S
C7853 H7857 0.950 . S
H7854 C7850 0.950 . S
C7855 C7853 1.490 . S
C7855 C7856 1.327 1_556 S
C7855 H7858 0.919 1_556 S
C7856 C7855 1.327 1_554 S
C7856 C7859 1.387 . S
H7857 C7853 0.950 . S
H7858 C7855 0.919 1_554 S
C7859 C7850 1.390 1_554 S
C7859 H7852 0.950 . S
C7859 C7856 1.387 . S
C7860 C7861 1.387 . S
C7860 H7864 0.950 . S
C7860 C7869 1.390 . S
C7861 C7860 1.387 . S
C7861 C7863 1.387 . S
H7862 C7869 0.950 . S
C7863 C7861 1.387 . S
C7863 C7865 1.390 . S
C7863 H7867 0.950 . S
H7864 C7860 0.950 . S
C7865 C7863 1.390 . S
C7865 C7866 1.387 . S
C7865 H7868 0.950 . S
C7866 C7865 1.387 . S
C7866 C7869 1.387 . S
H7867 C7863 0.950 . S
H7868 C7865 0.950 . S
C7869 C7860 1.390 . S
C7869 H7862 0.950 . S
C7869 C7866 1.387 . S
C7870 C7871 1.387 . S
C7870 H7874 0.950 . S
C7870 C7879 1.390 . S
C7871 C7870 1.387 . S
C7871 C7873 1.387 . S
H7872 C7879 0.950 . S
C7873 C7871 1.387 . S
C7873 C7875 1.390 . S
C7873 H7877 0.950 . S
H7874 C7870 0.950 . S
C7875 C7873 1.390 . S
C7875 C7876 1.387 . S
C7875 H7878 0.950 . S
C7876 C7875 1.387 . S
C7876 C7879 1.387 . S
H7877 C7873 0.950 . S
H7878 C7875 0.950 . S
C7879 C7870 1.390 . S
C7879 H7872 0.950 . S
C7879 C7876 1.387 . S
C7880 C7881 1.387 . S
C7880 H7884 0.950 . S
C7880 C7889 1.390 . S
C7881 C7880 1.387 . S
C7881 C7883 1.387 . S
H7882 C7889 0.950 . S
C7883 C7881 1.387 . S
C7883 C7885 1.390 . S
C7883 H7887 0.950 . S
H7884 C7880 0.950 . S
C7885 C7883 1.390 . S
C7885 C7886 1.387 . S
C7885 H7888 0.950 . S
C7886 C7885 1.387 . S
C7886 C7889 1.387 . S
H7887 C7883 0.950 . S
H7888 C7885 0.950 . S
C7889 C7880 1.390 . S
C7889 H7882 0.950 . S
C7889 C7886 1.387 . S
C7890 C7891 1.387 . S
C7890 H7894 0.950 . S
C7890 C7899 1.390 . S
C7891 C7890 1.387 . S
C7891 C7893 1.387 . S
H7892 C7899 0.950 . S
C7893 C7891 1.387 . S
C7893 C7895 1.390 . S
C7893 H7897 0.950 . S
H7894 C7890 0.950 . S
C7895 C7893 1.390 . S
C7895 C7896 1.387 . S
C7895 H7898 0.950 . S
C7896 C7895 1.387 . S
C7896 C7899 1.387 . S
H7897 C7893 0.950 . S
H7898 C7895 0.950 . S
C7899 C7890 1.390 . S
C7899 H7892 0.950 . S
C7899 C7896 1.387 . S
C7900 C7901 1.387 . S
C7900 H7904 0.950 . S
C7900 C7909 1.390 . S
C7901 C7900 1.387 . S
C7901 C7903 1.387 . S
H7902 C7909 0.950 . S
C7903 C7901 1.387 . S
C7903 C7905 1.390 . S
C7903 H7907 0.950 . S
H7904 C7900 0.950 . S
C7905 C7903 1.390 . S
C7905 C7906 1.387 . S
C7905 H7908 0.950 . S
C7906 C7905 1.387 . S
C7906 C7909 1.387 . S
H7907 C7903 0.950 . S
H7908 C7905 0.950 . S
C7909 C7900 1.390 . S
C7909 H7902 0.950 . S
C7909 C7906 1.387 . S
C7910 C7911 1.387 . S
C7910 H7914 0.950 . S
C7910 C7919 1.390 . S
C7911 C7910 1.387 . S
C7911 C7913 1.387 . S
H7912 C7919 0.950 . S
C7913 C7911 1.387 . S
C7913 C7915 1.390 . S
C7913 H7917 0.950 . S
H7914 C7910 0.950 . S
C7915 C7913 1.390 . S
C7915 C7916 1.387 . S
C7915 H7918 0.950 . S
C7916 C7915 1.387 . S
C7916 C7919 1.387 . S
H7917 C7913 0.950 . S
H7918 C7915 0.950 . S
C7919 C7910 1.390 . S
C7919 H7912 0.950 . S
C7919 C7916 1.387 . S
C7920 C7921 1.387 . S
C7920 H7924 0.950 . S
C7920 C7929 1.366 1_655 S
C7921 C7920 1.387 . S
C7921 C7923 1.387 . S
H7922 C7929 0.962 . S
C7923 C7921 1.387 . S
C7923 C7925 1.350 1_655 S
C7923 H7927 0.950 . S
H7924 C7920 0.950 . S
C7925 C7923 1.350 1_455 S
C7925 C7926 1.408 . S
C7925 H7928 0.971 . S
C7926 C7925 1.408 . S
C7926 C7929 1.400 . S
H7927 C7923 0.950 . S
H7928 C7925 0.971 . S
C7929 C7920 1.366 1_455 S
C7929 H7922 0.962 . S
C7929 C7926 1.400 . S
C7930 C7931 1.387 . S
C7930 H7934 0.950 . S
C7930 C7939 1.390 . S
C7931 C7930 1.387 . S
C7931 C7933 1.387 . S
H7932 C7939 0.950 . S
C7933 C7931 1.387 . S
C7933 C7935 1.390 . S
C7933 H7937 0.950 . S
H7934 C7930 0.950 . S
C7935 C7933 1.390 . S
C7935 C7936 1.387 . S
C7935 H7938 0.950 . S
C7936 C7935 1.387 . S
C7936 C7939 1.387 . S
H7937 C7933 0.950 . S
H7938 C7935 0.950 . S
C7939 C7930 1.390 . S
C7939 H7932 0.950 . S
C7939 C7936 1.387 . S
C7940 C7941 1.387 . S
C7940 H7944 0.950 . S
C7940 C7949 1.390 . S
C7941 C7940 1.387 . S
C7941 C7943 1.387 . S
H7942 C7949 0.950 . S
C7943 C7941 1.387 . S
C7943 C7945 1.390 . S
C7943 H7947 0.950 . S
H7944 C7940 0.950 . S
C7945 C7943 1.390 . S
C7945 C7946 1.387 . S
C7945 H7948 0.950 . S
C7946 C7945 1.387 . S
C7946 C7949 1.387 . S
H7947 C7943 0.950 . S
H7948 C7945 0.950 . S
C7949 C7940 1.390 . S
C7949 H7942 0.950 . S
C7949 C7946 1.387 . S
C7950 C7951 1.387 . S
C7950 H7954 0.950 . S
C7950 C7959 1.390 . S
C7951 C7950 1.387 . S
C7951 C7953 1.387 . S
H7952 C7959 0.950 . S
C7953 C7951 1.387 . S
C7953 C7955 1.390 . S
C7953 H7957 0.950 . S
H7954 C7950 0.950 . S
C7955 C7953 1.390 . S
C7955 C7956 1.387 . S
C7955 H7958 0.950 . S
C7956 C7955 1.387 . S
C7956 C7959 1.387 . S
H7957 C7953 0.950 . S
H7958 C7955 0.950 . S
C7959 C7950 1.390 . S
C7959 H7952 0.950 . S
C7959 C7956 1.387 . S
C7960 C7961 1.387 . S
C7960 H7964 0.950 . S
C7960 C7969 1.390 1_655 S
C7961 C7960 1.387 . S
C7961 C7963 1.387 . S
H7962 C7969 0.950 . S
C7963 C7961 1.387 . S
C7963 C7965 1.390 . S
C7963 H7967 0.950 . S
H7964 C7960 0.950 . S
C7965 C7963 1.390 . S
C7965 C7966 1.387 1_655 S
C7965 H7968 0.936 1_655 S
C7966 C7965 1.387 1_455 S
C7966 C7969 1.387 . S
H7967 C7963 0.950 . S
H7968 C7965 0.936 1_455 S
C7969 C7960 1.390 1_455 S
C7969 H7962 0.950 . S
C7969 C7966 1.387 . S
C7970 C7971 1.387 . S
C7970 H7974 0.950 . S
C7970 C7979 1.390 . S
C7971 C7970 1.387 . S
C7971 C7973 1.387 . S
H7972 C7979 0.950 . S
C7973 C7971 1.387 . S
C7973 C7975 1.390 . S
C7973 H7977 0.950 . S
H7974 C7970 0.950 . S
C7975 C7973 1.390 . S
C7975 C7976 1.387 . S
C7975 H7978 0.950 . S
C7976 C7975 1.387 . S
C7976 C7979 1.387 . S
H7977 C7973 0.950 . S
H7978 C7975 0.950 . S
C7979 C7970 1.390 . S
C7979 H7972 0.950 . S
C7979 C7976 1.387 . S
C7980 C7981 1.387 . S
C7980 H7984 0.950 . S
C7980 C7989 1.390 . S
C7981 C7980 1.387 . S
C7981 C7983 1.387 . S
H7982 C7989 0.950 . S
C7983 C7981 1.387 . S
C7983 C7985 1.390 . S
C7983 H7987 0.950 . S
H7984 C7980 0.950 . S
C7985 C7983 1.390 . S
C7985 C7986 1.387 . S
C7985 H7988 0.950 . S
C7986 C7985 1.387 . S
C7986 C7989 1.387 . S
H7987 C7983 0.950 . S
H7988 C7985 0.950 . S
C7989 C7980 1.390 . S
C7989 H7982 0.950 . S
C7989 C7986 1.387 . S
C7990 C7991 1.387 . S
C7990 H7994 0.950 . S
C7990 C7999 1.390 . S
C7991 C7990 1.387 . S
C7991 C7993 1.387 . S
H7992 C7999 0.950 . S
C7993 C7991 1.387 . S
C7993 C7995 1.390 . S
C7993 H7997 0.950 . S
H7994 C7990 0.950 . S
C7995 C7993 1.390 . S
C7995 C7996 1.387 . S
C7995 H7998 0.950 . S
C7996 C7995 1.387 . S
C7996 C7999 1.387 . S
H7997 C7993 0.950 . S
H7998 C7995 0.950 . S
C7999 C7990 1.390 . S
C7999 H7992 0.950 . S
C7999 C7996 1.387 . S
C8000 C8001 1.387 . S
C8000 H8004 0.950 . S
C8000 C8009 1.390 1_565 S
C8001 C8000 1.387 . S
C8001 C8003 1.387 . S
H8002 C8009 0.950 . S
C8003 C8001 1.387 . S
C8003 C8005 1.390 . S
C8003 H8007 0.950 . S
H8004 C8000 0.950 . S
C8005 C8003 1.390 . S
C8005 C8006 1.387 1_565 S
C8005 H8008 0.982 . S
C8006 C8005 1.387 1_545 S
C8006 C8009 1.387 . S
H8007 C8003 0.950 . S
H8008 C8005 0.982 . S
C8009 C8000 1.390 1_545 S
C8009 H8002 0.950 . S
C8009 C8006 1.387 . S
C8010 C8011 1.387 . S
C8010 H8014 0.950 . S
C8010 C8019 1.390 . S
C8011 C8010 1.387 . S
C8011 C8013 1.387 . S
H8012 C8019 0.950 . S
C8013 C8011 1.387 . S
C8013 C8015 1.390 . S
C8013 H8017 0.950 . S
H8014 C8010 0.950 . S
C8015 C8013 1.390 . S
C8015 C8016 1.387 . S
C8015 H8018 0.950 . S
C8016 C8015 1.387 . S
C8016 C8019 1.387 . S
H8017 C8013 0.950 . S
H8018 C8015 0.950 . S
C8019 C8010 1.390 . S
C8019 H8012 0.950 . S
C8019 C8016 1.387 . S
C8020 C8021 1.387 . S
C8020 H8024 0.950 . S
C8020 C8029 1.390 1_545 S
C8021 C8020 1.387 . S
C8021 C8023 1.387 . S
H8022 C8029 0.950 . S
C8023 C8021 1.387 . S
C8023 C8025 1.390 . S
C8023 H8027 0.950 . S
H8024 C8020 0.950 . S
C8025 C8023 1.390 . S
C8025 C8026 1.387 1_545 S
C8025 H8028 0.950 . S
C8026 C8025 1.387 1_565 S
C8026 C8029 1.387 . S
H8027 C8023 0.950 . S
H8028 C8025 0.950 . S
C8029 C8020 1.390 1_565 S
C8029 H8022 0.950 . S
C8029 C8026 1.387 . S
C8030 C8031 1.387 . S
C8030 H8034 0.950 . S
C8030 C8039 1.390 . S
C8031 C8030 1.387 . S
C8031 C8033 1.387 . S
H8032 C8039 0.950 . S
C8033 C8031 1.387 . S
C8033 C8035 1.390 . S
C8033 H8037 0.950 . S
H8034 C8030 0.950 . S
C8035 C8033 1.390 . S
C8035 C8036 1.387 . S
C8035 H8038 0.950 . S
C8036 C8035 1.387 . S
C8036 C8039 1.387 . S
H8037 C8033 0.950 . S
H8038 C8035 0.950 . S
C8039 C8030 1.390 . S
C8039 H8032 0.950 . S
C8039 C8036 1.387 . S
C8040 C8041 1.387 . S
C8040 H8044 0.950 . S
C8040 C8049 1.390 1_545 S
C8041 C8040 1.387 . S
C8041 C8043 1.387 . S
H8042 C8049 0.950 . S
C8043 C8041 1.387 . S
C8043 C8045 1.390 . S
C8043 H8047 0.950 . S
H8044 C8040 0.950 . S
C8045 C8043 1.390 . S
C8045 C8046 1.387 1_545 S
C8045 H8048 0.982 . S
C8046 C8045 1.387 1_565 S
C8046 C8049 1.387 . S
H8047 C8043 0.950 . S
H8048 C8045 0.982 . S
C8049 C8040 1.390 1_565 S
C8049 H8042 0.950 . S
C8049 C8046 1.387 . S
C8050 C8051 1.387 . S
C8050 H8054 0.950 . S
C8050 C8059 1.390 . S
C8051 C8050 1.387 . S
C8051 C8053 1.387 . S
H8052 C8059 0.950 . S
C8053 C8051 1.387 . S
C8053 C8055 1.390 . S
C8053 H8057 0.950 . S
H8054 C8050 0.950 . S
C8055 C8053 1.390 . S
C8055 C8056 1.387 . S
C8055 H8058 0.950 . S
C8056 C8055 1.387 . S
C8056 C8059 1.387 . S
H8057 C8053 0.950 . S
H8058 C8055 0.950 . S
C8059 C8050 1.390 . S
C8059 H8052 0.950 . S
C8059 C8056 1.387 . S
C8060 C8061 1.387 . S
C8060 H8064 0.950 . S
C8060 C8069 1.390 . S
C8061 C8060 1.387 . S
C8061 C8063 1.387 . S
H8062 C8069 0.948 . S
C8063 C8061 1.387 . S
C8063 C8065 1.390 1_565 S
C8063 H8067 0.950 . S
H8064 C8060 0.950 . S
C8065 C8063 1.390 1_545 S
C8065 C8066 1.387 . S
C8065 H8068 0.950 . S
C8066 C8065 1.387 . S
C8066 C8069 1.387 1_545 S
H8067 C8063 0.950 . S
H8068 C8065 0.950 . S
C8069 C8060 1.390 . S
C8069 H8062 0.948 . S
C8069 C8066 1.387 1_565 S
C8070 C8071 1.387 . S
C8070 H8074 0.950 . S
C8070 C8079 1.390 . S
C8071 C8070 1.387 . S
C8071 C8073 1.387 . S
H8072 C8079 0.950 . S
C8073 C8071 1.387 . S
C8073 C8075 1.390 . S
C8073 H8077 0.950 . S
H8074 C8070 0.950 . S
C8075 C8073 1.390 . S
C8075 C8076 1.387 . S
C8075 H8078 0.950 . S
C8076 C8075 1.387 . S
C8076 C8079 1.387 . S
H8077 C8073 0.950 . S
H8078 C8075 0.950 . S
C8079 C8070 1.390 . S
C8079 H8072 0.950 . S
C8079 C8076 1.387 . S
C8080 C8081 1.387 . S
C8080 H8084 0.950 . S
C8080 C8089 1.282 1_556 S
C8081 C8080 1.387 . S
C8081 C8083 1.387 . S
H8082 C8089 1.016 . S
C8083 C8081 1.387 . S
C8083 C8085 1.399 . S
C8083 H8087 0.950 . S
H8084 C8080 0.950 . S
C8085 C8083 1.399 . S
C8085 C8086 1.383 1_556 S
C8085 H8088 0.946 1_556 S
C8086 C8085 1.383 1_554 S
C8086 C8089 1.439 . S
H8087 C8083 0.950 . S
H8088 C8085 0.946 1_554 S
C8089 C8080 1.282 1_554 S
C8089 H8082 1.016 . S
C8089 C8086 1.439 . S
C8090 C8091 1.387 . S
C8090 H8094 0.950 . S
C8090 C8099 1.518 . S
C8091 C8090 1.387 . S
C8091 C8093 1.387 . S
H8092 C8099 0.902 1_556 S
C8093 C8091 1.387 . S
C8093 C8095 1.390 1_554 S
C8093 H8097 0.950 . S
H8094 C8090 0.950 . S
C8095 C8093 1.390 1_556 S
C8095 C8096 1.387 . S
C8095 H8098 0.950 . S
C8096 C8095 1.387 . S
C8096 C8099 1.308 1_556 S
H8097 C8093 0.950 . S
H8098 C8095 0.950 . S
C8099 C8090 1.518 . S
C8099 H8092 0.902 1_554 S
C8099 C8096 1.308 1_554 S
C8100 C8101 1.387 . S
C8100 H8104 0.950 . S
C8100 C8109 1.390 . S
C8101 C8100 1.387 . S
C8101 C8103 1.387 . S
H8102 C8109 0.950 . S
C8103 C8101 1.387 . S
C8103 C8105 1.390 . S
C8103 H8107 0.950 . S
H8104 C8100 0.950 . S
C8105 C8103 1.390 . S
C8105 C8106 1.387 . S
C8105 H8108 0.950 . S
C8106 C8105 1.387 . S
C8106 C8109 1.387 . S
H8107 C8103 0.950 . S
H8108 C8105 0.950 . S
C8109 C8100 1.390 . S
C8109 H8102 0.950 . S
C8109 C8106 1.387 . S
C8110 C8111 1.387 . S
C8110 H8114 0.950 . S
C8110 C8119 1.390 . S
C8111 C8110 1.387 . S
C8111 C8113 1.387 . S
H8112 C8119 0.950 . S
C8113 C8111 1.387 . S
C8113 C8115 1.390 . S
C8113 H8117 0.950 . S
H8114 C8110 0.950 . S
C8115 C8113 1.390 . S
C8115 C8116 1.387 . S
C8115 H8118 0.950 . S
C8116 C8115 1.387 . S
C8116 C8119 1.387 . S
H8117 C8113 0.950 . S
H8118 C8115 0.950 . S
C8119 C8110 1.390 . S
C8119 H8112 0.950 . S
C8119 C8116 1.387 . S
C8120 C8121 1.387 . S
C8120 H8124 0.950 . S
C8120 C8129 1.390 . S
C8121 C8120 1.387 . S
C8121 C8123 1.387 . S
H8122 C8129 0.950 . S
C8123 C8121 1.387 . S
C8123 C8125 1.390 . S
C8123 H8127 0.950 . S
H8124 C8120 0.950 . S
C8125 C8123 1.390 . S
C8125 C8126 1.387 . S
C8125 H8128 0.950 . S
C8126 C8125 1.387 . S
C8126 C8129 1.387 . S
H8127 C8123 0.950 . S
H8128 C8125 0.950 . S
C8129 C8120 1.390 . S
C8129 H8122 0.950 . S
C8129 C8126 1.387 . S
C8130 C8131 1.387 . S
C8130 H8134 0.950 . S
C8130 C8139 1.390 . S
C8131 C8130 1.387 . S
C8131 C8133 1.387 . S
H8132 C8139 0.950 . S
C8133 C8131 1.387 . S
C8133 C8135 1.390 . S
C8133 H8137 0.950 . S
H8134 C8130 0.950 . S
C8135 C8133 1.390 . S
C8135 C8136 1.387 . S
C8135 H8138 0.950 . S
C8136 C8135 1.387 . S
C8136 C8139 1.387 . S
H8137 C8133 0.950 . S
H8138 C8135 0.950 . S
C8139 C8130 1.390 . S
C8139 H8132 0.950 . S
C8139 C8136 1.387 . S
C8140 C8141 1.387 . S
C8140 H8144 0.950 . S
C8140 C8149 1.390 . S
C8141 C8140 1.387 . S
C8141 C8143 1.387 . S
H8142 C8149 0.950 . S
C8143 C8141 1.387 . S
C8143 C8145 1.390 . S
C8143 H8147 0.950 . S
H8144 C8140 0.950 . S
C8145 C8143 1.390 . S
C8145 C8146 1.387 . S
C8145 H8148 0.950 . S
C8146 C8145 1.387 . S
C8146 C8149 1.387 . S
H8147 C8143 0.950 . S
H8148 C8145 0.950 . S
C8149 C8140 1.390 . S
C8149 H8142 0.950 . S
C8149 C8146 1.387 . S
C8150 C8151 1.387 . S
C8150 H8154 0.950 . S
C8150 C8159 1.390 . S
C8151 C8150 1.387 . S
C8151 C8153 1.387 . S
H8152 C8159 0.950 . S
C8153 C8151 1.387 . S
C8153 C8155 1.390 . S
C8153 H8157 0.950 . S
H8154 C8150 0.950 . S
C8155 C8153 1.390 . S
C8155 C8156 1.387 . S
C8155 H8158 0.950 . S
C8156 C8155 1.387 . S
C8156 C8159 1.387 . S
H8157 C8153 0.950 . S
H8158 C8155 0.950 . S
C8159 C8150 1.390 . S
C8159 H8152 0.950 . S
C8159 C8156 1.387 . S
C8160 C8161 1.387 . S
C8160 H8164 0.950 . S
C8160 C8169 1.390 . S
C8161 C8160 1.387 . S
C8161 C8163 1.387 . S
H8162 C8169 0.950 . S
C8163 C8161 1.387 . S
C8163 C8165 1.390 . S
C8163 H8167 0.950 . S
H8164 C8160 0.950 . S
C8165 C8163 1.390 . S
C8165 C8166 1.387 . S
C8165 H8168 0.950 . S
C8166 C8165 1.387 . S
C8166 C8169 1.387 . S
H8167 C8163 0.950 . S
H8168 C8165 0.950 . S
C8169 C8160 1.390 . S
C8169 H8162 0.950 . S
C8169 C8166 1.387 . S
C8170 C8171 1.387 . S
C8170 H8174 0.950 . S
C8170 C8179 1.390 . S
C8171 C8170 1.387 . S
C8171 C8173 1.387 . S
H8172 C8179 0.950 . S
C8173 C8171 1.387 . S
C8173 C8175 1.390 . S
C8173 H8177 0.950 . S
H8174 C8170 0.950 . S
C8175 C8173 1.390 . S
C8175 C8176 1.387 . S
C8175 H8178 0.950 . S
C8176 C8175 1.387 . S
C8176 C8179 1.387 . S
H8177 C8173 0.950 . S
H8178 C8175 0.950 . S
C8179 C8170 1.390 . S
C8179 H8172 0.950 . S
C8179 C8176 1.387 . S
C8180 C8181 1.387 . S
C8180 H8184 0.950 . S
C8180 C8189 1.322 1_655 S
C8181 C8180 1.387 . S
C8181 C8183 1.387 . S
H8182 C8189 0.988 . S
C8183 C8181 1.387 . S
C8183 C8185 1.388 1_655 S
C8183 H8187 0.950 . S
H8184 C8180 0.950 . S
C8185 C8183 1.388 1_455 S
C8185 C8186 1.389 . S
C8185 H8188 0.951 . S
C8186 C8185 1.389 . S
C8186 C8189 1.421 . S
H8187 C8183 0.950 . S
H8188 C8185 0.951 . S
C8189 C8180 1.322 1_455 S
C8189 H8182 0.988 . S
C8189 C8186 1.421 . S
C8190 C8191 1.387 . S
C8190 H8194 0.950 . S
C8190 C8199 1.390 . S
C8191 C8190 1.387 . S
C8191 C8193 1.387 . S
H8192 C8199 0.950 . S
C8193 C8191 1.387 . S
C8193 C8195 1.390 . S
C8193 H8197 0.950 . S
H8194 C8190 0.950 . S
C8195 C8193 1.390 . S
C8195 C8196 1.387 . S
C8195 H8198 0.950 . S
C8196 C8195 1.387 . S
C8196 C8199 1.387 . S
H8197 C8193 0.950 . S
H8198 C8195 0.950 . S
C8199 C8190 1.390 . S
C8199 H8192 0.950 . S
C8199 C8196 1.387 . S
C8200 C8201 1.387 . S
C8200 H8204 0.950 . S
C8200 C8209 1.390 . S
C8201 C8200 1.387 . S
C8201 C8203 1.387 . S
H8202 C8209 0.950 . S
C8203 C8201 1.387 . S
C8203 C8205 1.390 . S
C8203 H8207 0.950 . S
H8204 C8200 0.950 . S
C8205 C8203 1.390 . S
C8205 C8206 1.387 . S
C8205 H8208 0.950 . S
C8206 C8205 1.387 . S
C8206 C8209 1.387 . S
H8207 C8203 0.950 . S
H8208 C8205 0.950 . S
C8209 C8200 1.390 . S
C8209 H8202 0.950 . S
C8209 C8206 1.387 . S
C8210 C8211 1.387 . S
C8210 H8214 0.950 . S
C8210 C8219 1.390 . S
C8211 C8210 1.387 . S
C8211 C8213 1.387 . S
H8212 C8219 0.950 . S
C8213 C8211 1.387 . S
C8213 C8215 1.390 . S
C8213 H8217 0.950 . S
H8214 C8210 0.950 . S
C8215 C8213 1.390 . S
C8215 C8216 1.387 . S
C8215 H8218 0.950 . S
C8216 C8215 1.387 . S
C8216 C8219 1.387 . S
H8217 C8213 0.950 . S
H8218 C8215 0.950 . S
C8219 C8210 1.390 . S
C8219 H8212 0.950 . S
C8219 C8216 1.387 . S
C8220 C8221 1.387 . S
C8220 H8224 0.950 . S
C8220 C8229 1.246 1_655 S
C8221 C8220 1.387 . S
C8221 C8223 1.387 . S
H8222 C8229 1.044 . S
C8223 C8221 1.387 . S
C8223 C8225 1.436 . S
C8223 H8227 0.950 . S
H8224 C8220 0.950 . S
C8225 C8223 1.436 . S
C8225 C8226 1.361 1_655 S
C8225 H8228 0.932 1_655 S
C8226 C8225 1.361 1_455 S
C8226 C8229 1.454 . S
H8227 C8223 0.950 . S
H8228 C8225 0.932 1_455 S
C8229 C8220 1.246 1_455 S
C8229 H8222 1.044 . S
C8229 C8226 1.454 . S
C8230 C8231 1.387 . S
C8230 H8234 0.950 . S
C8230 C8239 1.390 . S
C8231 C8230 1.387 . S
C8231 C8233 1.387 . S
H8232 C8239 0.950 . S
C8233 C8231 1.387 . S
C8233 C8235 1.390 . S
C8233 H8237 0.950 . S
H8234 C8230 0.950 . S
C8235 C8233 1.390 . S
C8235 C8236 1.387 . S
C8235 H8238 0.950 . S
C8236 C8235 1.387 . S
C8236 C8239 1.387 . S
H8237 C8233 0.950 . S
H8238 C8235 0.950 . S
C8239 C8230 1.390 . S
C8239 H8232 0.950 . S
C8239 C8236 1.387 . S
C8240 C8241 1.387 . S
C8240 H8244 0.950 . S
C8240 C8249 1.390 . S
C8241 C8240 1.387 . S
C8241 C8243 1.387 . S
H8242 C8249 0.950 . S
C8243 C8241 1.387 . S
C8243 C8245 1.390 . S
C8243 H8247 0.950 . S
H8244 C8240 0.950 . S
C8245 C8243 1.390 . S
C8245 C8246 1.387 . S
C8245 H8248 0.950 . S
C8246 C8245 1.387 . S
C8246 C8249 1.387 . S
H8247 C8243 0.950 . S
H8248 C8245 0.950 . S
C8249 C8240 1.390 . S
C8249 H8242 0.950 . S
C8249 C8246 1.387 . S
C8250 C8251 1.387 . S
C8250 H8254 0.950 . S
C8250 C8259 1.390 . S
C8251 C8250 1.387 . S
C8251 C8253 1.387 . S
H8252 C8259 0.950 . S
C8253 C8251 1.387 . S
C8253 C8255 1.390 . S
C8253 H8257 0.950 . S
H8254 C8250 0.950 . S
C8255 C8253 1.390 . S
C8255 C8256 1.387 . S
C8255 H8258 0.950 . S
C8256 C8255 1.387 . S
C8256 C8259 1.387 . S
H8257 C8253 0.950 . S
H8258 C8255 0.950 . S
C8259 C8250 1.390 . S
C8259 H8252 0.950 . S
C8259 C8256 1.387 . S
C8260 C8261 1.387 . S
C8260 H8264 0.950 . S
C8260 C8269 1.390 . S
C8261 C8260 1.387 . S
C8261 C8263 1.387 . S
H8262 C8269 0.950 . S
C8263 C8261 1.387 . S
C8263 C8265 1.390 . S
C8263 H8267 0.950 . S
H8264 C8260 0.950 . S
C8265 C8263 1.390 . S
C8265 C8266 1.387 . S
C8265 H8268 0.950 . S
C8266 C8265 1.387 . S
C8266 C8269 1.387 . S
H8267 C8263 0.950 . S
H8268 C8265 0.950 . S
C8269 C8260 1.390 . S
C8269 H8262 0.950 . S
C8269 C8266 1.387 . S
C8270 C8271 1.387 . S
C8270 H8274 0.950 . S
C8270 C8279 1.390 . S
C8271 C8270 1.387 . S
C8271 C8273 1.387 . S
H8272 C8279 0.950 . S
C8273 C8271 1.387 . S
C8273 C8275 1.390 . S
C8273 H8277 0.950 . S
H8274 C8270 0.950 . S
C8275 C8273 1.390 . S
C8275 C8276 1.387 . S
C8275 H8278 0.950 . S
C8276 C8275 1.387 . S
C8276 C8279 1.387 . S
H8277 C8273 0.950 . S
H8278 C8275 0.950 . S
C8279 C8270 1.390 . S
C8279 H8272 0.950 . S
C8279 C8276 1.387 . S
C8280 C8281 1.387 . S
C8280 H8284 0.950 . S
C8280 C8289 1.390 . S
C8281 C8280 1.387 . S
C8281 C8283 1.387 . S
H8282 C8289 0.950 . S
C8283 C8281 1.387 . S
C8283 C8285 1.390 . S
C8283 H8287 0.950 . S
H8284 C8280 0.950 . S
C8285 C8283 1.390 . S
C8285 C8286 1.387 . S
C8285 H8288 0.950 . S
C8286 C8285 1.387 . S
C8286 C8289 1.387 . S
H8287 C8283 0.950 . S
H8288 C8285 0.950 . S
C8289 C8280 1.390 . S
C8289 H8282 0.950 . S
C8289 C8286 1.387 . S
C8290 C8291 1.387 . S
C8290 H8294 0.950 . S
C8290 C8299 1.390 . S
C8291 C8290 1.387 . S
C8291 C8293 1.387 . S
H8292 C8299 0.950 . S
C8293 C8291 1.387 . S
C8293 C8295 1.390 . S
C8293 H8297 0.950 . S
H8294 C8290 0.950 . S
C8295 C8293 1.390 . S
C8295 C8296 1.387 . S
C8295 H8298 0.950 . S
C8296 C8295 1.387 . S
C8296 C8299 1.387 . S
H8297 C8293 0.950 . S
H8298 C8295 0.950 . S
C8299 C8290 1.390 . S
C8299 H8292 0.950 . S
C8299 C8296 1.387 . S
C8300 C8301 1.387 . S
C8300 H8304 0.950 . S
C8300 C8309 1.390 . S
C8301 C8300 1.387 . S
C8301 C8303 1.387 . S
H8302 C8309 0.950 . S
C8303 C8301 1.387 . S
C8303 C8305 1.390 . S
C8303 H8307 0.950 . S
H8304 C8300 0.950 . S
C8305 C8303 1.390 . S
C8305 C8306 1.387 . S
C8305 H8308 0.950 . S
C8306 C8305 1.387 . S
C8306 C8309 1.387 . S
H8307 C8303 0.950 . S
H8308 C8305 0.950 . S
C8309 C8300 1.390 . S
C8309 H8302 0.950 . S
C8309 C8306 1.387 . S
C8310 C8311 1.387 . S
C8310 H8314 0.950 . S
C8310 C8319 1.390 . S
C8311 C8310 1.387 . S
C8311 C8313 1.387 . S
H8312 C8319 0.950 . S
C8313 C8311 1.387 . S
C8313 C8315 1.390 . S
C8313 H8317 0.950 . S
H8314 C8310 0.950 . S
C8315 C8313 1.390 . S
C8315 C8316 1.387 . S
C8315 H8318 0.950 . S
C8316 C8315 1.387 . S
C8316 C8319 1.387 . S
H8317 C8313 0.950 . S
H8318 C8315 0.950 . S
C8319 C8310 1.390 . S
C8319 H8312 0.950 . S
C8319 C8316 1.387 . S
C8320 C8321 1.387 . S
C8320 H8324 0.950 . S
C8320 C8329 1.390 . S
C8321 C8320 1.387 . S
C8321 C8323 1.387 . S
H8322 C8329 0.950 . S
C8323 C8321 1.387 . S
C8323 C8325 1.390 . S
C8323 H8327 0.950 . S
H8324 C8320 0.950 . S
C8325 C8323 1.390 . S
C8325 C8326 1.387 . S
C8325 H8328 0.950 . S
C8326 C8325 1.387 . S
C8326 C8329 1.387 . S
H8327 C8323 0.950 . S
H8328 C8325 0.950 . S
C8329 C8320 1.390 . S
C8329 H8322 0.950 . S
C8329 C8326 1.387 . S
C8330 C8331 1.387 . S
C8330 H8334 0.950 . S
C8330 C8339 1.390 . S
C8331 C8330 1.387 . S
C8331 C8333 1.387 . S
H8332 C8339 0.950 . S
C8333 C8331 1.387 . S
C8333 C8335 1.390 . S
C8333 H8337 0.950 . S
H8334 C8330 0.950 . S
C8335 C8333 1.390 . S
C8335 C8336 1.387 . S
C8335 H8338 0.950 . S
C8336 C8335 1.387 . S
C8336 C8339 1.387 . S
H8337 C8333 0.950 . S
H8338 C8335 0.950 . S
C8339 C8330 1.390 . S
C8339 H8332 0.950 . S
C8339 C8336 1.387 . S
C8340 C8341 1.387 . S
C8340 H8344 0.950 . S
C8340 C8349 1.390 . S
C8341 C8340 1.387 . S
C8341 C8343 1.387 . S
H8342 C8349 0.950 . S
C8343 C8341 1.387 . S
C8343 C8345 1.390 . S
C8343 H8347 0.950 . S
H8344 C8340 0.950 . S
C8345 C8343 1.390 . S
C8345 C8346 1.387 . S
C8345 H8348 0.950 . S
C8346 C8345 1.387 . S
C8346 C8349 1.387 . S
H8347 C8343 0.950 . S
H8348 C8345 0.950 . S
C8349 C8340 1.390 . S
C8349 H8342 0.950 . S
C8349 C8346 1.387 . S
C8350 C8351 1.387 . S
C8350 H8354 0.950 . S
C8350 C8359 1.464 . S
C8351 C8350 1.387 . S
C8351 C8353 1.387 . S
H8352 C8359 0.924 1_554 S
C8353 C8351 1.387 . S
C8353 C8355 1.390 1_556 S
C8353 H8357 0.950 . S
H8354 C8350 0.950 . S
C8355 C8353 1.390 1_554 S
C8355 C8356 1.387 . S
C8355 H8358 0.950 . S
C8356 C8355 1.387 . S
C8356 C8359 1.343 1_554 S
H8357 C8353 0.950 . S
H8358 C8355 0.950 . S
C8359 C8350 1.464 . S
C8359 H8352 0.924 1_556 S
C8359 C8356 1.343 1_556 S
C8360 C8361 1.387 . S
C8360 H8364 0.950 . S
C8360 C8369 1.390 . S
C8361 C8360 1.387 . S
C8361 C8363 1.387 . S
H8362 C8369 0.950 . S
C8363 C8361 1.387 . S
C8363 C8365 1.390 . S
C8363 H8367 0.950 . S
H8364 C8360 0.950 . S
C8365 C8363 1.390 . S
C8365 C8366 1.387 . S
C8365 H8368 0.950 . S
C8366 C8365 1.387 . S
C8366 C8369 1.387 . S
H8367 C8363 0.950 . S
H8368 C8365 0.950 . S
C8369 C8360 1.390 . S
C8369 H8362 0.950 . S
C8369 C8366 1.387 . S
C8370 C8371 1.387 . S
C8370 H8374 0.950 . S
C8370 C8379 1.490 . S
C8371 C8370 1.387 . S
C8371 C8373 1.387 . S
H8372 C8379 0.919 1_556 S
C8373 C8371 1.387 . S
C8373 C8375 1.390 1_554 S
C8373 H8377 0.950 . S
H8374 C8370 0.950 . S
C8375 C8373 1.390 1_556 S
C8375 C8376 1.387 . S
C8375 H8378 0.950 . S
C8376 C8375 1.387 . S
C8376 C8379 1.327 1_556 S
H8377 C8373 0.950 . S
H8378 C8375 0.950 . S
C8379 C8370 1.490 . S
C8379 H8372 0.919 1_554 S
C8379 C8376 1.327 1_554 S
C8380 C8381 1.387 . S
C8380 H8384 0.950 . S
C8380 C8389 1.390 . S
C8381 C8380 1.387 . S
C8381 C8383 1.387 . S
H8382 C8389 0.950 . S
C8383 C8381 1.387 . S
C8383 C8385 1.390 . S
C8383 H8387 0.950 . S
H8384 C8380 0.950 . S
C8385 C8383 1.390 . S
C8385 C8386 1.387 . S
C8385 H8388 0.950 . S
C8386 C8385 1.387 . S
C8386 C8389 1.387 . S
H8387 C8383 0.950 . S
H8388 C8385 0.950 . S
C8389 C8380 1.390 . S
C8389 H8382 0.950 . S
C8389 C8386 1.387 . S
C8390 C8391 1.387 . S
C8390 H8394 0.950 . S
C8390 C8399 1.390 . S
C8391 C8390 1.387 . S
C8391 C8393 1.387 . S
H8392 C8399 0.950 . S
C8393 C8391 1.387 . S
C8393 C8395 1.390 . S
C8393 H8397 0.950 . S
H8394 C8390 0.950 . S
C8395 C8393 1.390 . S
C8395 C8396 1.387 . S
C8395 H8398 0.950 . S
C8396 C8395 1.387 . S
C8396 C8399 1.387 . S
H8397 C8393 0.950 . S
H8398 C8395 0.950 . S
C8399 C8390 1.390 . S
C8399 H8392 0.950 . S
C8399 C8396 1.387 . S
C8400 C8401 1.387 . S
C8400 H8404 0.950 . S
C8400 C8409 1.390 . S
C8401 C8400 1.387 . S
C8401 C8403 1.387 . S
H8402 C8409 0.950 . S
C8403 C8401 1.387 . S
C8403 C8405 1.390 . S
C8403 H8407 0.950 . S
H8404 C8400 0.950 . S
C8405 C8403 1.390 . S
C8405 C8406 1.387 . S
C8405 H8408 0.950 . S
C8406 C8405 1.387 . S
C8406 C8409 1.387 . S
H8407 C8403 0.950 . S
H8408 C8405 0.950 . S
C8409 C8400 1.390 . S
C8409 H8402 0.950 . S
C8409 C8406 1.387 . S
C8410 C8411 1.387 . S
C8410 H8414 0.950 . S
C8410 C8419 1.390 . S
C8411 C8410 1.387 . S
C8411 C8413 1.387 . S
H8412 C8419 0.950 . S
C8413 C8411 1.387 . S
C8413 C8415 1.390 . S
C8413 H8417 0.950 . S
H8414 C8410 0.950 . S
C8415 C8413 1.390 . S
C8415 C8416 1.387 . S
C8415 H8418 0.950 . S
C8416 C8415 1.387 . S
C8416 C8419 1.387 . S
H8417 C8413 0.950 . S
H8418 C8415 0.950 . S
C8419 C8410 1.390 . S
C8419 H8412 0.950 . S
C8419 C8416 1.387 . S
C8420 C8421 1.387 . S
C8420 H8424 0.950 . S
C8420 C8429 1.335 1_455 S
C8421 C8420 1.387 . S
C8421 C8423 1.387 . S
H8422 C8429 0.980 . S
C8423 C8421 1.387 . S
C8423 C8425 1.375 1_455 S
C8423 H8427 0.950 . S
H8424 C8420 0.950 . S
C8425 C8423 1.375 1_655 S
C8425 C8426 1.395 . S
C8425 H8428 0.957 . S
C8426 C8425 1.395 . S
C8426 C8429 1.415 . S
H8427 C8423 0.950 . S
H8428 C8425 0.957 . S
C8429 C8420 1.335 1_655 S
C8429 H8422 0.980 . S
C8429 C8426 1.415 . S
C8430 C8431 1.387 . S
C8430 H8434 0.950 . S
C8430 C8439 1.390 . S
C8431 C8430 1.387 . S
C8431 C8433 1.387 . S
H8432 C8439 0.950 . S
C8433 C8431 1.387 . S
C8433 C8435 1.390 . S
C8433 H8437 0.950 . S
H8434 C8430 0.950 . S
C8435 C8433 1.390 . S
C8435 C8436 1.387 . S
C8435 H8438 0.950 . S
C8436 C8435 1.387 . S
C8436 C8439 1.387 . S
H8437 C8433 0.950 . S
H8438 C8435 0.950 . S
C8439 C8430 1.390 . S
C8439 H8432 0.950 . S
C8439 C8436 1.387 . S
C8440 C8441 1.387 . S
C8440 H8444 0.950 . S
C8440 C8449 1.390 . S
C8441 C8440 1.387 . S
C8441 C8443 1.387 . S
H8442 C8449 0.950 . S
C8443 C8441 1.387 . S
C8443 C8445 1.390 . S
C8443 H8447 0.950 . S
H8444 C8440 0.950 . S
C8445 C8443 1.390 . S
C8445 C8446 1.387 . S
C8445 H8448 0.950 . S
C8446 C8445 1.387 . S
C8446 C8449 1.387 . S
H8447 C8443 0.950 . S
H8448 C8445 0.950 . S
C8449 C8440 1.390 . S
C8449 H8442 0.950 . S
C8449 C8446 1.387 . S
C8450 C8451 1.387 . S
C8450 H8454 0.950 . S
C8450 C8459 1.390 . S
C8451 C8450 1.387 . S
C8451 C8453 1.387 . S
H8452 C8459 0.950 . S
C8453 C8451 1.387 . S
C8453 C8455 1.390 . S
C8453 H8457 0.950 . S
H8454 C8450 0.950 . S
C8455 C8453 1.390 . S
C8455 C8456 1.387 . S
C8455 H8458 0.950 . S
C8456 C8455 1.387 . S
C8456 C8459 1.387 . S
H8457 C8453 0.950 . S
H8458 C8455 0.950 . S
C8459 C8450 1.390 . S
C8459 H8452 0.950 . S
C8459 C8456 1.387 . S
C8460 C8461 1.387 . S
C8460 H8464 0.950 . S
C8460 C8469 1.481 . S
C8461 C8460 1.387 . S
C8461 C8463 1.387 . S
H8462 C8469 0.921 1_655 S
C8463 C8461 1.387 . S
C8463 C8465 1.390 1_455 S
C8463 H8467 0.950 . S
H8464 C8460 0.950 . S
C8465 C8463 1.390 1_655 S
C8465 C8466 1.387 . S
C8465 H8468 0.950 . S
C8466 C8465 1.387 . S
C8466 C8469 1.332 1_655 S
H8467 C8463 0.950 . S
H8468 C8465 0.950 . S
C8469 C8460 1.481 . S
C8469 H8462 0.921 1_455 S
C8469 C8466 1.332 1_455 S
C8470 C8471 1.387 . S
C8470 H8474 0.950 . S
C8470 C8479 1.390 . S
C8471 C8470 1.387 . S
C8471 C8473 1.387 . S
H8472 C8479 0.950 . S
C8473 C8471 1.387 . S
C8473 C8475 1.390 . S
C8473 H8477 0.950 . S
H8474 C8470 0.950 . S
C8475 C8473 1.390 . S
C8475 C8476 1.387 . S
C8475 H8478 0.950 . S
C8476 C8475 1.387 . S
C8476 C8479 1.387 . S
H8477 C8473 0.950 . S
H8478 C8475 0.950 . S
C8479 C8470 1.390 . S
C8479 H8472 0.950 . S
C8479 C8476 1.387 . S
C8480 C8481 1.387 . S
C8480 H8484 0.950 . S
C8480 C8489 1.390 . S
C8481 C8480 1.387 . S
C8481 C8483 1.387 . S
H8482 C8489 0.950 . S
C8483 C8481 1.387 . S
C8483 C8485 1.390 . S
C8483 H8487 0.950 . S
H8484 C8480 0.950 . S
C8485 C8483 1.390 . S
C8485 C8486 1.387 . S
C8485 H8488 0.950 . S
C8486 C8485 1.387 . S
C8486 C8489 1.387 . S
H8487 C8483 0.950 . S
H8488 C8485 0.950 . S
C8489 C8480 1.390 . S
C8489 H8482 0.950 . S
C8489 C8486 1.387 . S
C8490 C8491 1.387 . S
C8490 H8494 0.950 . S
C8490 C8499 1.390 . S
C8491 C8490 1.387 . S
C8491 C8493 1.387 . S
H8492 C8499 0.950 . S
C8493 C8491 1.387 . S
C8493 C8495 1.390 . S
C8493 H8497 0.950 . S
H8494 C8490 0.950 . S
C8495 C8493 1.390 . S
C8495 C8496 1.387 . S
C8495 H8498 0.950 . S
C8496 C8495 1.387 . S
C8496 C8499 1.387 . S
H8497 C8493 0.950 . S
H8498 C8495 0.950 . S
C8499 C8490 1.390 . S
C8499 H8492 0.950 . S
C8499 C8496 1.387 . S
C8500 C8501 1.387 . S
C8500 H8504 0.950 . S
C8500 C8509 1.390 . S
C8501 C8500 1.387 . S
C8501 C8503 1.387 . S
H8502 C8509 0.950 . S
C8503 C8501 1.387 . S
C8503 C8505 1.390 . S
C8503 H8507 0.950 . S
H8504 C8500 0.950 . S
C8505 C8503 1.390 . S
C8505 C8506 1.387 . S
C8505 H8508 0.950 . S
C8506 C8505 1.387 . S
C8506 C8509 1.387 . S
H8507 C8503 0.950 . S
H8508 C8505 0.950 . S
C8509 C8500 1.390 . S
C8509 H8502 0.950 . S
C8509 C8506 1.387 . S
C8510 C8511 1.387 . S
C8510 H8514 0.950 . S
C8510 C8519 1.390 . S
C8511 C8510 1.387 . S
C8511 C8513 1.387 . S
H8512 C8519 0.950 . S
C8513 C8511 1.387 . S
C8513 C8515 1.390 . S
C8513 H8517 0.950 . S
H8514 C8510 0.950 . S
C8515 C8513 1.390 . S
C8515 C8516 1.387 . S
C8515 H8518 0.950 . S
C8516 C8515 1.387 . S
C8516 C8519 1.387 . S
H8517 C8513 0.950 . S
H8518 C8515 0.950 . S
C8519 C8510 1.390 . S
C8519 H8512 0.950 . S
C8519 C8516 1.387 . S
C8520 C8521 1.387 . S
C8520 H8524 0.950 . S
C8520 C8529 1.390 . S
C8521 C8520 1.387 . S
C8521 C8523 1.387 . S
H8522 C8529 0.950 . S
C8523 C8521 1.387 . S
C8523 C8525 1.390 . S
C8523 H8527 0.950 . S
H8524 C8520 0.950 . S
C8525 C8523 1.390 . S
C8525 C8526 1.387 . S
C8525 H8528 0.950 . S
C8526 C8525 1.387 . S
C8526 C8529 1.387 . S
H8527 C8523 0.950 . S
H8528 C8525 0.950 . S
C8529 C8520 1.390 . S
C8529 H8522 0.950 . S
C8529 C8526 1.387 . S
C8530 C8531 1.387 . S
C8530 H8534 0.950 . S
C8530 C8539 1.390 . S
C8531 C8530 1.387 . S
C8531 C8533 1.387 . S
H8532 C8539 0.950 . S
C8533 C8531 1.387 . S
C8533 C8535 1.390 . S
C8533 H8537 0.950 . S
H8534 C8530 0.950 . S
C8535 C8533 1.390 . S
C8535 C8536 1.387 . S
C8535 H8538 0.950 . S
C8536 C8535 1.387 . S
C8536 C8539 1.387 . S
H8537 C8533 0.950 . S
H8538 C8535 0.950 . S
C8539 C8530 1.390 . S
C8539 H8532 0.950 . S
C8539 C8536 1.387 . S
C8540 C8541 1.387 . S
C8540 H8544 0.950 . S
C8540 C8549 1.390 . S
C8541 C8540 1.387 . S
C8541 C8543 1.387 . S
H8542 C8549 0.950 . S
C8543 C8541 1.387 . S
C8543 C8545 1.390 . S
C8543 H8547 0.950 . S
H8544 C8540 0.950 . S
C8545 C8543 1.390 . S
C8545 C8546 1.387 . S
C8545 H8548 0.950 . S
C8546 C8545 1.387 . S
C8546 C8549 1.387 . S
H8547 C8543 0.950 . S
H8548 C8545 0.950 . S
C8549 C8540 1.390 . S
C8549 H8542 0.950 . S
C8549 C8546 1.387 . S
C8550 C8551 1.387 . S
C8550 H8554 0.950 . S
C8550 C8559 1.390 . S
C8551 C8550 1.387 . S
C8551 C8553 1.387 . S
H8552 C8559 0.950 . S
C8553 C8551 1.387 . S
C8553 C8555 1.390 . S
C8553 H8557 0.950 . S
H8554 C8550 0.950 . S
C8555 C8553 1.390 . S
C8555 C8556 1.387 . S
C8555 H8558 0.950 . S
C8556 C8555 1.387 . S
C8556 C8559 1.387 . S
H8557 C8553 0.950 . S
H8558 C8555 0.950 . S
C8559 C8550 1.390 . S
C8559 H8552 0.950 . S
C8559 C8556 1.387 . S
C8560 C8561 1.387 . S
C8560 H8564 0.950 . S
C8560 C8569 1.390 . S
C8561 C8560 1.387 . S
C8561 C8563 1.387 . S
H8562 C8569 0.950 . S
C8563 C8561 1.387 . S
C8563 C8565 1.390 . S
C8563 H8567 0.950 . S
H8564 C8560 0.950 . S
C8565 C8563 1.390 . S
C8565 C8566 1.387 . S
C8565 H8568 0.950 . S
C8566 C8565 1.387 . S
C8566 C8569 1.387 . S
H8567 C8563 0.950 . S
H8568 C8565 0.950 . S
C8569 C8560 1.390 . S
C8569 H8562 0.950 . S
C8569 C8566 1.387 . S
C8570 C8571 1.387 . S
C8570 H8574 0.950 . S
C8570 C8579 1.390 . S
C8571 C8570 1.387 . S
C8571 C8573 1.387 . S
H8572 C8579 0.950 . S
C8573 C8571 1.387 . S
C8573 C8575 1.390 . S
C8573 H8577 0.950 . S
H8574 C8570 0.950 . S
C8575 C8573 1.390 . S
C8575 C8576 1.387 . S
C8575 H8578 0.950 . S
C8576 C8575 1.387 . S
C8576 C8579 1.387 . S
H8577 C8573 0.950 . S
H8578 C8575 0.950 . S
C8579 C8570 1.390 . S
C8579 H8572 0.950 . S
C8579 C8576 1.387 . S
C8580 C8581 1.387 . S
C8580 H8584 0.950 . S
C8580 C8589 1.390 . S
C8581 C8580 1.387 . S
C8581 C8583 1.387 . S
H8582 C8589 0.950 . S
C8583 C8581 1.387 . S
C8583 C8585 1.390 . S
C8583 H8587 0.950 . S
H8584 C8580 0.950 . S
C8585 C8583 1.390 . S
C8585 C8586 1.387 . S
C8585 H8588 0.950 . S
C8586 C8585 1.387 . S
C8586 C8589 1.387 . S
H8587 C8583 0.950 . S
H8588 C8585 0.950 . S
C8589 C8580 1.390 . S
C8589 H8582 0.950 . S
C8589 C8586 1.387 . S
C8590 C8591 1.387 . S
C8590 H8594 0.950 . S
C8590 C8599 1.390 . S
C8591 C8590 1.387 . S
C8591 C8593 1.387 . S
H8592 C8599 0.950 . S
C8593 C8591 1.387 . S
C8593 C8595 1.390 1_554 S
C8593 H8597 0.950 . S
H8594 C8590 0.950 . S
C8595 C8593 1.390 1_556 S
C8595 C8596 1.387 . S
C8595 H8598 0.950 . S
C8596 C8595 1.387 . S
C8596 C8599 1.387 1_556 S
H8597 C8593 0.950 . S
H8598 C8595 0.950 . S
C8599 C8590 1.390 . S
C8599 H8592 0.950 . S
C8599 C8596 1.387 1_554 S
C8600 C8601 1.387 . S
C8600 H8604 0.950 . S
C8600 C8609 1.390 . S
C8601 C8600 1.387 . S
C8601 C8603 1.387 . S
H8602 C8609 0.950 . S
C8603 C8601 1.387 . S
C8603 C8605 1.390 . S
C8603 H8607 0.950 . S
H8604 C8600 0.950 . S
C8605 C8603 1.390 . S
C8605 C8606 1.387 . S
C8605 H8608 0.950 . S
C8606 C8605 1.387 . S
C8606 C8609 1.387 . S
H8607 C8603 0.950 . S
H8608 C8605 0.950 . S
C8609 C8600 1.390 . S
C8609 H8602 0.950 . S
C8609 C8606 1.387 . S
C8610 C8611 1.387 . S
C8610 H8614 0.950 . S
C8610 C8619 1.390 1_556 S
C8611 C8610 1.387 . S
C8611 C8613 1.387 . S
H8612 C8619 0.950 . S
C8613 C8611 1.387 . S
C8613 C8615 1.515 . S
C8613 H8617 0.950 . S
H8614 C8610 0.950 . S
C8615 C8613 1.515 . S
C8615 C8616 1.310 1_556 S
C8615 H8618 0.900 1_556 S
C8616 C8615 1.310 1_554 S
C8616 C8619 1.387 . S
H8617 C8613 0.950 . S
H8618 C8615 0.900 1_554 S
C8619 C8610 1.390 1_554 S
C8619 H8612 0.950 . S
C8619 C8616 1.387 . S
C8620 C8621 1.387 . S
C8620 H8624 0.950 . S
C8620 C8629 1.390 . S
C8621 C8620 1.387 . S
C8621 C8623 1.387 . S
H8622 C8629 0.950 . S
C8623 C8621 1.387 . S
C8623 C8625 1.390 . S
C8623 H8627 0.950 . S
H8624 C8620 0.950 . S
C8625 C8623 1.390 . S
C8625 C8626 1.387 . S
C8625 H8628 0.950 . S
C8626 C8625 1.387 . S
C8626 C8629 1.387 . S
H8627 C8623 0.950 . S
H8628 C8625 0.950 . S
C8629 C8620 1.390 . S
C8629 H8622 0.950 . S
C8629 C8626 1.387 . S
C8630 C8631 1.387 . S
C8630 H8634 0.950 . S
C8630 C8639 1.390 . S
C8631 C8630 1.387 . S
C8631 C8633 1.387 . S
H8632 C8639 0.950 . S
C8633 C8631 1.387 . S
C8633 C8635 1.390 . S
C8633 H8637 0.950 . S
H8634 C8630 0.950 . S
C8635 C8633 1.390 . S
C8635 C8636 1.387 . S
C8635 H8638 0.950 . S
C8636 C8635 1.387 . S
C8636 C8639 1.387 . S
H8637 C8633 0.950 . S
H8638 C8635 0.950 . S
C8639 C8630 1.390 . S
C8639 H8632 0.950 . S
C8639 C8636 1.387 . S
C8640 C8641 1.387 . S
C8640 H8644 0.950 . S
C8640 C8649 1.390 . S
C8641 C8640 1.387 . S
C8641 C8643 1.387 . S
H8642 C8649 0.950 . S
C8643 C8641 1.387 . S
C8643 C8645 1.390 . S
C8643 H8647 0.950 . S
H8644 C8640 0.950 . S
C8645 C8643 1.390 . S
C8645 C8646 1.387 . S
C8645 H8648 0.950 . S
C8646 C8645 1.387 . S
C8646 C8649 1.387 . S
H8647 C8643 0.950 . S
H8648 C8645 0.950 . S
C8649 C8640 1.390 . S
C8649 H8642 0.950 . S
C8649 C8646 1.387 . S
C8650 C8651 1.387 . S
C8650 H8654 0.950 . S
C8650 C8659 1.390 . S
C8651 C8650 1.387 . S
C8651 C8653 1.387 . S
H8652 C8659 0.950 . S
C8653 C8651 1.387 . S
C8653 C8655 1.390 . S
C8653 H8657 0.950 . S
H8654 C8650 0.950 . S
C8655 C8653 1.390 . S
C8655 C8656 1.387 . S
C8655 H8658 0.950 . S
C8656 C8655 1.387 . S
C8656 C8659 1.387 . S
H8657 C8653 0.950 . S
H8658 C8655 0.950 . S
C8659 C8650 1.390 . S
C8659 H8652 0.950 . S
C8659 C8656 1.387 . S
C8660 C8661 1.387 . S
C8660 H8664 0.950 . S
C8660 C8669 1.390 . S
C8661 C8660 1.387 . S
C8661 C8663 1.387 . S
H8662 C8669 0.950 . S
C8663 C8661 1.387 . S
C8663 C8665 1.390 . S
C8663 H8667 0.950 . S
H8664 C8660 0.950 . S
C8665 C8663 1.390 . S
C8665 C8666 1.387 . S
C8665 H8668 0.950 . S
C8666 C8665 1.387 . S
C8666 C8669 1.387 . S
H8667 C8663 0.950 . S
H8668 C8665 0.950 . S
C8669 C8660 1.390 . S
C8669 H8662 0.950 . S
C8669 C8666 1.387 . S
C8670 C8671 1.387 . S
C8670 H8674 0.950 . S
C8670 C8679 1.390 . S
C8671 C8670 1.387 . S
C8671 C8673 1.387 . S
H8672 C8679 0.950 . S
C8673 C8671 1.387 . S
C8673 C8675 1.390 . S
C8673 H8677 0.950 . S
H8674 C8670 0.950 . S
C8675 C8673 1.390 . S
C8675 C8676 1.387 . S
C8675 H8678 0.950 . S
C8676 C8675 1.387 . S
C8676 C8679 1.387 . S
H8677 C8673 0.950 . S
H8678 C8675 0.950 . S
C8679 C8670 1.390 . S
C8679 H8672 0.950 . S
C8679 C8676 1.387 . S
C8680 C8681 1.387 . S
C8680 H8684 0.950 . S
C8680 C8689 1.390 . S
C8681 C8680 1.387 . S
C8681 C8683 1.387 . S
H8682 C8689 0.950 . S
C8683 C8681 1.387 . S
C8683 C8685 1.390 . S
C8683 H8687 0.950 . S
H8684 C8680 0.950 . S
C8685 C8683 1.390 . S
C8685 C8686 1.387 . S
C8685 H8688 0.950 . S
C8686 C8685 1.387 . S
C8686 C8689 1.387 . S
H8687 C8683 0.950 . S
H8688 C8685 0.950 . S
C8689 C8680 1.390 . S
C8689 H8682 0.950 . S
C8689 C8686 1.387 . S
C8690 C8691 1.387 . S
C8690 H8694 0.950 . S
C8690 C8699 1.390 . S
C8691 C8690 1.387 . S
C8691 C8693 1.387 . S
H8692 C8699 0.950 . S
C8693 C8691 1.387 . S
C8693 C8695 1.390 . S
C8693 H8697 0.950 . S
H8694 C8690 0.950 . S
C8695 C8693 1.390 . S
C8695 C8696 1.387 . S
C8695 H8698 0.950 . S
C8696 C8695 1.387 . S
C8696 C8699 1.387 . S
H8697 C8693 0.950 . S
H8698 C8695 0.950 . S
C8699 C8690 1.390 . S
C8699 H8692 0.950 . S
C8699 C8696 1.387 . S
C8700 C8701 1.387 . S
C8700 H8704 0.950 . S
C8700 C8709 1.390 . S
C8701 C8700 1.387 . S
C8701 C8703 1.387 . S
H8702 C8709 0.950 . S
C8703 C8701 1.387 . S
C8703 C8705 1.390 . S
C8703 H8707 0.950 . S
H8704 C8700 0.950 . S
C8705 C8703 1.390 . S
C8705 C8706 1.387 . S
C8705 H8708 0.950 . S
C8706 C8705 1.387 . S
C8706 C8709 1.387 . S
H8707 C8703 0.950 . S
H8708 C8705 0.950 . S
C8709 C8700 1.390 . S
C8709 H8702 0.950 . S
C8709 C8706 1.387 . S
C8710 C8711 1.387 . S
C8710 H8714 0.950 . S
C8710 C8719 1.390 . S
C8711 C8710 1.387 . S
C8711 C8713 1.387 . S
H8712 C8719 0.950 . S
C8713 C8711 1.387 . S
C8713 C8715 1.390 . S
C8713 H8717 0.950 . S
H8714 C8710 0.950 . S
C8715 C8713 1.390 . S
C8715 C8716 1.387 . S
C8715 H8718 0.950 . S
C8716 C8715 1.387 . S
C8716 C8719 1.387 . S
H8717 C8713 0.950 . S
H8718 C8715 0.950 . S
C8719 C8710 1.390 . S
C8719 H8712 0.950 . S
C8719 C8716 1.387 . S
C8720 C8721 1.387 . S
C8720 H8724 0.950 . S
C8720 C8729 1.390 . S
C8721 C8720 1.387 . S
C8721 C8723 1.387 . S
H8722 C8729 0.950 . S
C8723 C8721 1.387 . S
C8723 C8725 1.390 . S
C8723 H8727 0.950 . S
H8724 C8720 0.950 . S
C8725 C8723 1.390 . S
C8725 C8726 1.387 . S
C8725 H8728 0.950 . S
C8726 C8725 1.387 . S
C8726 C8729 1.387 . S
H8727 C8723 0.950 . S
H8728 C8725 0.950 . S
C8729 C8720 1.390 . S
C8729 H8722 0.950 . S
C8729 C8726 1.387 . S
C8730 C8731 1.387 . S
C8730 H8734 0.950 . S
C8730 C8739 1.390 . S
C8731 C8730 1.387 . S
C8731 C8733 1.387 . S
H8732 C8739 0.950 . S
C8733 C8731 1.387 . S
C8733 C8735 1.390 . S
C8733 H8737 0.950 . S
H8734 C8730 0.950 . S
C8735 C8733 1.390 . S
C8735 C8736 1.387 . S
C8735 H8738 0.950 . S
C8736 C8735 1.387 . S
C8736 C8739 1.387 . S
H8737 C8733 0.950 . S
H8738 C8735 0.950 . S
C8739 C8730 1.390 . S
C8739 H8732 0.950 . S
C8739 C8736 1.387 . S
C8740 C8741 1.387 . S
C8740 H8744 0.950 . S
C8740 C8749 1.390 . S
C8741 C8740 1.387 . S
C8741 C8743 1.387 . S
H8742 C8749 0.950 . S
C8743 C8741 1.387 . S
C8743 C8745 1.390 . S
C8743 H8747 0.950 . S
H8744 C8740 0.950 . S
C8745 C8743 1.390 . S
C8745 C8746 1.387 . S
C8745 H8748 0.950 . S
C8746 C8745 1.387 . S
C8746 C8749 1.387 . S
H8747 C8743 0.950 . S
H8748 C8745 0.950 . S
C8749 C8740 1.390 . S
C8749 H8742 0.950 . S
C8749 C8746 1.387 . S
C8750 C8751 1.387 . S
C8750 H8754 0.950 . S
C8750 C8759 1.390 . S
C8751 C8750 1.387 . S
C8751 C8753 1.387 . S
H8752 C8759 0.950 . S
C8753 C8751 1.387 . S
C8753 C8755 1.390 . S
C8753 H8757 0.950 . S
H8754 C8750 0.950 . S
C8755 C8753 1.390 . S
C8755 C8756 1.387 . S
C8755 H8758 0.950 . S
C8756 C8755 1.387 . S
C8756 C8759 1.387 . S
H8757 C8753 0.950 . S
H8758 C8755 0.950 . S
C8759 C8750 1.390 . S
C8759 H8752 0.950 . S
C8759 C8756 1.387 . S
C8760 C8761 1.387 . S
C8760 H8764 0.950 . S
C8760 C8769 1.390 . S
C8761 C8760 1.387 . S
C8761 C8763 1.387 . S
H8762 C8769 0.950 . S
C8763 C8761 1.387 . S
C8763 C8765 1.390 . S
C8763 H8767 0.950 . S
H8764 C8760 0.950 . S
C8765 C8763 1.390 . S
C8765 C8766 1.387 . S
C8765 H8768 0.950 . S
C8766 C8765 1.387 . S
C8766 C8769 1.387 . S
H8767 C8763 0.950 . S
H8768 C8765 0.950 . S
C8769 C8760 1.390 . S
C8769 H8762 0.950 . S
C8769 C8766 1.387 . S
C8770 C8771 1.387 . S
C8770 H8774 0.950 . S
C8770 C8779 1.390 . S
C8771 C8770 1.387 . S
C8771 C8773 1.387 . S
H8772 C8779 0.950 . S
C8773 C8771 1.387 . S
C8773 C8775 1.390 . S
C8773 H8777 0.950 . S
H8774 C8770 0.950 . S
C8775 C8773 1.390 . S
C8775 C8776 1.387 . S
C8775 H8778 0.950 . S
C8776 C8775 1.387 . S
C8776 C8779 1.387 . S
H8777 C8773 0.950 . S
H8778 C8775 0.950 . S
C8779 C8770 1.390 . S
C8779 H8772 0.950 . S
C8779 C8776 1.387 . S
C8780 C8781 1.387 . S
C8780 H8784 0.950 . S
C8780 C8789 1.390 . S
C8781 C8780 1.387 . S
C8781 C8783 1.387 . S
H8782 C8789 0.950 . S
C8783 C8781 1.387 . S
C8783 C8785 1.390 . S
C8783 H8787 0.950 . S
H8784 C8780 0.950 . S
C8785 C8783 1.390 . S
C8785 C8786 1.387 . S
C8785 H8788 0.950 . S
C8786 C8785 1.387 . S
C8786 C8789 1.387 . S
H8787 C8783 0.950 . S
H8788 C8785 0.950 . S
C8789 C8780 1.390 . S
C8789 H8782 0.950 . S
C8789 C8786 1.387 . S
C8790 C8791 1.387 . S
C8790 H8794 0.950 . S
C8790 C8799 1.390 . S
C8791 C8790 1.387 . S
C8791 C8793 1.387 . S
H8792 C8799 0.950 . S
C8793 C8791 1.387 . S
C8793 C8795 1.390 . S
C8793 H8797 0.950 . S
H8794 C8790 0.950 . S
C8795 C8793 1.390 . S
C8795 C8796 1.387 . S
C8795 H8798 0.950 . S
C8796 C8795 1.387 . S
C8796 C8799 1.387 . S
H8797 C8793 0.950 . S
H8798 C8795 0.950 . S
C8799 C8790 1.390 . S
C8799 H8792 0.950 . S
C8799 C8796 1.387 . S
C8800 C8801 1.387 . S
C8800 H8804 0.950 . S
C8800 C8809 1.390 . S
C8801 C8800 1.387 . S
C8801 C8803 1.387 . S
H8802 C8809 0.950 . S
C8803 C8801 1.387 . S
C8803 C8805 1.390 . S
C8803 H8807 0.950 . S
H8804 C8800 0.950 . S
C8805 C8803 1.390 . S
C8805 C8806 1.387 . S
C8805 H8808 0.950 . S
C8806 C8805 1.387 . S
C8806 C8809 1.387 . S
H8807 C8803 0.950 . S
H8808 C8805 0.950 . S
C8809 C8800 1.390 . S
C8809 H8802 0.950 . S
C8809 C8806 1.387 . S
C8810 C8811 1.387 . S
C8810 H8814 0.950 . S
C8810 C8819 1.390 . S
C8811 C8810 1.387 . S
C8811 C8813 1.387 . S
H8812 C8819 0.950 . S
C8813 C8811 1.387 . S
C8813 C8815 1.390 . S
C8813 H8817 0.950 . S
H8814 C8810 0.950 . S
C8815 C8813 1.390 . S
C8815 C8816 1.387 . S
C8815 H8818 0.950 . S
C8816 C8815 1.387 . S
C8816 C8819 1.387 . S
H8817 C8813 0.950 . S
H8818 C8815 0.950 . S
C8819 C8810 1.390 . S
C8819 H8812 0.950 . S
C8819 C8816 1.387 . S
C8820 C8821 1.387 . S
C8820 H8824 0.950 . S
C8820 C8829 1.390 . S
C8821 C8820 1.387 . S
C8821 C8823 1.387 . S
H8822 C8829 0.950 . S
C8823 C8821 1.387 . S
C8823 C8825 1.390 . S
C8823 H8827 0.950 . S
H8824 C8820 0.950 . S
C8825 C8823 1.390 . S
C8825 C8826 1.387 . S
C8825 H8828 0.950 . S
C8826 C8825 1.387 . S
C8826 C8829 1.387 . S
H8827 C8823 0.950 . S
H8828 C8825 0.950 . S
C8829 C8820 1.390 . S
C8829 H8822 0.950 . S
C8829 C8826 1.387 . S
C8830 C8831 1.387 . S
C8830 H8834 0.950 . S
C8830 C8839 1.390 . S
C8831 C8830 1.387 . S
C8831 C8833 1.387 . S
H8832 C8839 0.950 . S
C8833 C8831 1.387 . S
C8833 C8835 1.390 . S
C8833 H8837 0.950 . S
H8834 C8830 0.950 . S
C8835 C8833 1.390 . S
C8835 C8836 1.387 . S
C8835 H8838 0.950 . S
C8836 C8835 1.387 . S
C8836 C8839 1.387 . S
H8837 C8833 0.950 . S
H8838 C8835 0.950 . S
C8839 C8830 1.390 . S
C8839 H8832 0.950 . S
C8839 C8836 1.387 . S
C8840 C8841 1.387 . S
C8840 H8844 0.950 . S
C8840 C8849 1.390 . S
C8841 C8840 1.387 . S
C8841 C8843 1.387 . S
H8842 C8849 0.950 . S
C8843 C8841 1.387 . S
C8843 C8845 1.390 . S
C8843 H8847 0.950 . S
H8844 C8840 0.950 . S
C8845 C8843 1.390 . S
C8845 C8846 1.387 . S
C8845 H8848 0.950 . S
C8846 C8845 1.387 . S
C8846 C8849 1.387 . S
H8847 C8843 0.950 . S
H8848 C8845 0.950 . S
C8849 C8840 1.390 . S
C8849 H8842 0.950 . S
C8849 C8846 1.387 . S
C8850 C8851 1.387 . S
C8850 H8854 0.950 . S
C8850 C8859 1.390 . S
C8851 C8850 1.387 . S
C8851 C8853 1.387 . S
H8852 C8859 0.950 . S
C8853 C8851 1.387 . S
C8853 C8855 1.390 . S
C8853 H8857 0.950 . S
H8854 C8850 0.950 . S
C8855 C8853 1.390 . S
C8855 C8856 1.387 . S
C8855 H8858 0.950 . S
C8856 C8855 1.387 . S
C8856 C8859 1.387 . S
H8857 C8853 0.950 . S
H8858 C8855 0.950 . S
C8859 C8850 1.390 . S
C8859 H8852 0.950 . S
C8859 C8856 1.387 . S
C8860 C8861 1.387 . S
C8860 H8864 0.950 . S
C8860 C8869 1.390 . S
C8861 C8860 1.387 . S
C8861 C8863 1.387 . S
H8862 C8869 0.950 . S
C8863 C8861 1.387 . S
C8863 C8865 1.390 . S
C8863 H8867 0.950 . S
H8864 C8860 0.950 . S
C8865 C8863 1.390 . S
C8865 C8866 1.387 . S
C8865 H8868 0.950 . S
C8866 C8865 1.387 . S
C8866 C8869 1.387 . S
H8867 C8863 0.950 . S
H8868 C8865 0.950 . S
C8869 C8860 1.390 . S
C8869 H8862 0.950 . S
C8869 C8866 1.387 . S
C8870 C8871 1.387 . S
C8870 H8874 0.950 . S
C8870 C8879 1.390 . S
C8871 C8870 1.387 . S
C8871 C8873 1.387 . S
H8872 C8879 0.950 . S
C8873 C8871 1.387 . S
C8873 C8875 1.390 . S
C8873 H8877 0.950 . S
H8874 C8870 0.950 . S
C8875 C8873 1.390 . S
C8875 C8876 1.387 . S
C8875 H8878 0.950 . S
C8876 C8875 1.387 . S
C8876 C8879 1.387 . S
H8877 C8873 0.950 . S
H8878 C8875 0.950 . S
C8879 C8870 1.390 . S
C8879 H8872 0.950 . S
C8879 C8876 1.387 . S
C8880 C8881 1.387 . S
C8880 H8884 0.950 . S
C8880 C8889 1.390 . S
C8881 C8880 1.387 . S
C8881 C8883 1.387 . S
H8882 C8889 0.950 . S
C8883 C8881 1.387 . S
C8883 C8885 1.390 . S
C8883 H8887 0.950 . S
H8884 C8880 0.950 . S
C8885 C8883 1.390 . S
C8885 C8886 1.387 . S
C8885 H8888 0.950 . S
C8886 C8885 1.387 . S
C8886 C8889 1.387 . S
H8887 C8883 0.950 . S
H8888 C8885 0.950 . S
C8889 C8880 1.390 . S
C8889 H8882 0.950 . S
C8889 C8886 1.387 . S
C8890 C8891 1.387 . S
C8890 H8894 0.950 . S
C8890 C8899 1.390 . S
C8891 C8890 1.387 . S
C8891 C8893 1.387 . S
H8892 C8899 0.950 . S
C8893 C8891 1.387 . S
C8893 C8895 1.390 . S
C8893 H8897 0.950 . S
H8894 C8890 0.950 . S
C8895 C8893 1.390 . S
C8895 C8896 1.387 . S
C8895 H8898 0.950 . S
C8896 C8895 1.387 . S
C8896 C8899 1.387 . S
H8897 C8893 0.950 . S
H8898 C8895 0.950 . S
C8899 C8890 1.390 . S
C8899 H8892 0.950 . S
C8899 C8896 1.387 . S
C8900 C8901 1.387 . S
C8900 H8904 0.950 . S
C8900 C8909 1.390 . S
C8901 C8900 1.387 . S
C8901 C8903 1.387 . S
H8902 C8909 0.950 . S
C8903 C8901 1.387 . S
C8903 C8905 1.390 . S
C8903 H8907 0.950 . S
H8904 C8900 0.950 . S
C8905 C8903 1.390 . S
C8905 C8906 1.387 . S
C8905 H8908 0.950 . S
C8906 C8905 1.387 . S
C8906 C8909 1.387 . S
H8907 C8903 0.950 . S
H8908 C8905 0.950 . S
C8909 C8900 1.390 . S
C8909 H8902 0.950 . S
C8909 C8906 1.387 . S
C8910 C8911 1.387 . S
C8910 H8914 0.950 . S
C8910 C8919 1.390 . S
C8911 C8910 1.387 . S
C8911 C8913 1.387 . S
H8912 C8919 0.950 . S
C8913 C8911 1.387 . S
C8913 C8915 1.390 . S
C8913 H8917 0.950 . S
H8914 C8910 0.950 . S
C8915 C8913 1.390 . S
C8915 C8916 1.387 . S
C8915 H8918 0.950 . S
C8916 C8915 1.387 . S
C8916 C8919 1.387 . S
H8917 C8913 0.950 . S
H8918 C8915 0.950 . S
C8919 C8910 1.390 . S
C8919 H8912 0.950 . S
C8919 C8916 1.387 . S
C8920 C8921 1.387 . S
C8920 H8924 0.950 . S
C8920 C8929 1.390 . S
C8921 C8920 1.387 . S
C8921 C8923 1.387 . S
H8922 C8929 0.950 . S
C8923 C8921 1.387 . S
C8923 C8925 1.390 . S
C8923 H8927 0.950 . S
H8924 C8920 0.950 . S
C8925 C8923 1.390 . S
C8925 C8926 1.387 . S
C8925 H8928 0.950 . S
C8926 C8925 1.387 . S
C8926 C8929 1.387 . S
H8927 C8923 0.950 . S
H8928 C8925 0.950 . S
C8929 C8920 1.390 . S
C8929 H8922 0.950 . S
C8929 C8926 1.387 . S
C8930 C8931 1.387 . S
C8930 H8934 0.950 . S
C8930 C8939 1.390 . S
C8931 C8930 1.387 . S
C8931 C8933 1.387 . S
H8932 C8939 0.950 . S
C8933 C8931 1.387 . S
C8933 C8935 1.390 . S
C8933 H8937 0.950 . S
H8934 C8930 0.950 . S
C8935 C8933 1.390 . S
C8935 C8936 1.387 . S
C8935 H8938 0.950 . S
C8936 C8935 1.387 . S
C8936 C8939 1.387 . S
H8937 C8933 0.950 . S
H8938 C8935 0.950 . S
C8939 C8930 1.390 . S
C8939 H8932 0.950 . S
C8939 C8936 1.387 . S
C8940 C8941 1.387 . S
C8940 H8944 0.950 . S
C8940 C8949 1.390 . S
C8941 C8940 1.387 . S
C8941 C8943 1.387 . S
H8942 C8949 0.950 . S
C8943 C8941 1.387 . S
C8943 C8945 1.390 . S
C8943 H8947 0.950 . S
H8944 C8940 0.950 . S
C8945 C8943 1.390 . S
C8945 C8946 1.387 . S
C8945 H8948 0.950 . S
C8946 C8945 1.387 . S
C8946 C8949 1.387 . S
H8947 C8943 0.950 . S
H8948 C8945 0.950 . S
C8949 C8940 1.390 . S
C8949 H8942 0.950 . S
C8949 C8946 1.387 . S
C8950 C8951 1.387 . S
C8950 H8954 0.950 . S
C8950 C8959 1.390 . S
C8951 C8950 1.387 . S
C8951 C8953 1.387 . S
H8952 C8959 0.950 . S
C8953 C8951 1.387 . S
C8953 C8955 1.390 . S
C8953 H8957 0.950 . S
H8954 C8950 0.950 . S
C8955 C8953 1.390 . S
C8955 C8956 1.387 . S
C8955 H8958 0.950 . S
C8956 C8955 1.387 . S
C8956 C8959 1.387 . S
H8957 C8953 0.950 . S
H8958 C8955 0.950 . S
C8959 C8950 1.390 . S
C8959 H8952 0.950 . S
C8959 C8956 1.387 . S
C8960 C8961 1.387 . S
C8960 H8964 0.950 . S
C8960 C8969 1.390 . S
C8961 C8960 1.387 . S
C8961 C8963 1.387 . S
H8962 C8969 0.950 . S
C8963 C8961 1.387 . S
C8963 C8965 1.390 . S
C8963 H8967 0.950 . S
H8964 C8960 0.950 . S
C8965 C8963 1.390 . S
C8965 C8966 1.387 . S
C8965 H8968 0.950 . S
C8966 C8965 1.387 . S
C8966 C8969 1.387 . S
H8967 C8963 0.950 . S
H8968 C8965 0.950 . S
C8969 C8960 1.390 . S
C8969 H8962 0.950 . S
C8969 C8966 1.387 . S
C8970 C8971 1.387 . S
C8970 H8974 0.950 . S
C8970 C8979 1.390 . S
C8971 C8970 1.387 . S
C8971 C8973 1.387 . S
H8972 C8979 0.950 . S
C8973 C8971 1.387 . S
C8973 C8975 1.390 . S
C8973 H8977 0.950 . S
H8974 C8970 0.950 . S
C8975 C8973 1.390 . S
C8975 C8976 1.387 . S
C8975 H8978 0.950 . S
C8976 C8975 1.387 . S
C8976 C8979 1.387 . S
H8977 C8973 0.950 . S
H8978 C8975 0.950 . S
C8979 C8970 1.390 . S
C8979 H8972 0.950 . S
C8979 C8976 1.387 . S
C8980 C8981 1.387 . S
C8980 H8984 0.950 . S
C8980 C8989 1.390 . S
C8981 C8980 1.387 . S
C8981 C8983 1.387 . S
H8982 C8989 0.950 . S
C8983 C8981 1.387 . S
C8983 C8985 1.390 . S
C8983 H8987 0.950 . S
H8984 C8980 0.950 . S
C8985 C8983 1.390 . S
C8985 C8986 1.387 . S
C8985 H8988 0.950 . S
C8986 C8985 1.387 . S
C8986 C8989 1.387 . S
H8987 C8983 0.950 . S
H8988 C8985 0.950 . S
C8989 C8980 1.390 . S
C8989 H8982 0.950 . S
C8989 C8986 1.387 . S
C8990 C8991 1.387 . S
C8990 H8994 0.950 . S
C8990 C8999 1.390 . S
C8991 C8990 1.387 . S
C8991 C8993 1.387 . S
H8992 C8999 0.950 . S
C8993 C8991 1.387 . S
C8993 C8995 1.390 . S
C8993 H8997 0.950 . S
H8994 C8990 0.950 . S
C8995 C8993 1.390 . S
C8995 C8996 1.387 . S
C8995 H8998 0.950 . S
C8996 C8995 1.387 . S
C8996 C8999 1.387 . S
H8997 C8993 0.950 . S
H8998 C8995 0.950 . S
C8999 C8990 1.390 . S
C8999 H8992 0.950 . S
C8999 C8996 1.387 . S
C9000 C9001 1.387 . S
C9000 H9004 0.950 . S
C9000 C9009 1.390 . S
C9001 C9000 1.387 . S
C9001 C9003 1.387 . S
H9002 C9009 0.950 . S
C9003 C9001 1.387 . S
C9003 C9005 1.390 . S
C9003 H9007 0.950 . S
H9004 C9000 0.950 . S
C9005 C9003 1.390 . S
C9005 C9006 1.387 . S
C9005 H9008 0.950 . S
C9006 C9005 1.387 . S
C9006 C9009 1.387 . S
H9007 C9003 0.950 . S
H9008 C9005 0.950 . S
C9009 C9000 1.390 . S
C9009 H9002 0.950 . S
C9009 C9006 1.387 . S
C9010 C9011 1.387 . S
C9010 H9014 0.950 . S
C9010 C9019 1.390 . S
C9011 C9010 1.387 . S
C9011 C9013 1.387 . S
H9012 C9019 0.950 . S
C9013 C9011 1.387 . S
C9013 C9015 1.390 . S
C9013 H9017 0.950 . S
H9014 C9010 0.950 . S
C9015 C9013 1.390 . S
C9015 C9016 1.387 . S
C9015 H9018 0.950 . S
C9016 C9015 1.387 . S
C9016 C9019 1.387 . S
H9017 C9013 0.950 . S
H9018 C9015 0.950 . S
C9019 C9010 1.390 . S
C9019 H9012 0.950 . S
C9019 C9016 1.387 . S
C9020 C9021 1.387 . S
C9020 H9024 0.950 . S
C9020 C9029 1.390 . S
C9021 C9020 1.387 . S
C9021 C9023 1.387 . S
H9022 C9029 0.950 . S
C9023 C9021 1.387 . S
C9023 C9025 1.390 . S
C9023 H9027 0.950 . S
H9024 C9020 0.950 . S
C9025 C9023 1.390 . S
C9025 C9026 1.387 . S
C9025 H9028 0.950 . S
C9026 C9025 1.387 . S
C9026 C9029 1.387 . S
H9027 C9023 0.950 . S
H9028 C9025 0.950 . S
C9029 C9020 1.390 . S
C9029 H9022 0.950 . S
C9029 C9026 1.387 . S
C9030 C9031 1.387 . S
C9030 H9034 0.950 . S
C9030 C9039 1.390 . S
C9031 C9030 1.387 . S
C9031 C9033 1.387 . S
H9032 C9039 0.950 . S
C9033 C9031 1.387 . S
C9033 C9035 1.390 . S
C9033 H9037 0.950 . S
H9034 C9030 0.950 . S
C9035 C9033 1.390 . S
C9035 C9036 1.387 . S
C9035 H9038 0.950 . S
C9036 C9035 1.387 . S
C9036 C9039 1.387 . S
H9037 C9033 0.950 . S
H9038 C9035 0.950 . S
C9039 C9030 1.390 . S
C9039 H9032 0.950 . S
C9039 C9036 1.387 . S
C9040 C9041 1.387 . S
C9040 H9044 0.950 . S
C9040 C9049 1.390 . S
C9041 C9040 1.387 . S
C9041 C9043 1.387 . S
H9042 C9049 0.950 . S
C9043 C9041 1.387 . S
C9043 C9045 1.390 . S
C9043 H9047 0.950 . S
H9044 C9040 0.950 . S
C9045 C9043 1.390 . S
C9045 C9046 1.387 . S
C9045 H9048 0.950 . S
C9046 C9045 1.387 . S
C9046 C9049 1.387 . S
H9047 C9043 0.950 . S
H9048 C9045 0.950 . S
C9049 C9040 1.390 . S
C9049 H9042 0.950 . S
C9049 C9046 1.387 . S
C9050 C9051 1.387 . S
C9050 H9054 0.950 . S
C9050 C9059 1.390 . S
C9051 C9050 1.387 . S
C9051 C9053 1.387 . S
H9052 C9059 0.950 . S
C9053 C9051 1.387 . S
C9053 C9055 1.390 . S
C9053 H9057 0.950 . S
H9054 C9050 0.950 . S
C9055 C9053 1.390 . S
C9055 C9056 1.387 . S
C9055 H9058 0.950 . S
C9056 C9055 1.387 . S
C9056 C9059 1.387 . S
H9057 C9053 0.950 . S
H9058 C9055 0.950 . S
C9059 C9050 1.390 . S
C9059 H9052 0.950 . S
C9059 C9056 1.387 . S
C9060 C9061 1.387 . S
C9060 H9064 0.950 . S
C9060 C9069 1.390 . S
C9061 C9060 1.387 . S
C9061 C9063 1.387 . S
H9062 C9069 0.950 . S
C9063 C9061 1.387 . S
C9063 C9065 1.390 . S
C9063 H9067 0.950 . S
H9064 C9060 0.950 . S
C9065 C9063 1.390 . S
C9065 C9066 1.387 . S
C9065 H9068 0.950 . S
C9066 C9065 1.387 . S
C9066 C9069 1.387 . S
H9067 C9063 0.950 . S
H9068 C9065 0.950 . S
C9069 C9060 1.390 . S
C9069 H9062 0.950 . S
C9069 C9066 1.387 . S
C9070 C9071 1.387 . S
C9070 H9074 0.950 . S
C9070 C9079 1.390 . S
C9071 C9070 1.387 . S
C9071 C9073 1.387 . S
H9072 C9079 0.950 . S
C9073 C9071 1.387 . S
C9073 C9075 1.390 . S
C9073 H9077 0.950 . S
H9074 C9070 0.950 . S
C9075 C9073 1.390 . S
C9075 C9076 1.387 . S
C9075 H9078 0.950 . S
C9076 C9075 1.387 . S
C9076 C9079 1.387 . S
H9077 C9073 0.950 . S
H9078 C9075 0.950 . S
C9079 C9070 1.390 . S
C9079 H9072 0.950 . S
C9079 C9076 1.387 . S
C9080 C9081 1.387 . S
C9080 H9084 0.950 . S
C9080 C9089 1.390 . S
C9081 C9080 1.387 . S
C9081 C9083 1.387 . S
H9082 C9089 0.950 . S
C9083 C9081 1.387 . S
C9083 C9085 1.390 . S
C9083 H9087 0.950 . S
H9084 C9080 0.950 . S
C9085 C9083 1.390 . S
C9085 C9086 1.387 . S
C9085 H9088 0.950 . S
C9086 C9085 1.387 . S
C9086 C9089 1.387 . S
H9087 C9083 0.950 . S
H9088 C9085 0.950 . S
C9089 C9080 1.390 . S
C9089 H9082 0.950 . S
C9089 C9086 1.387 . S
C9090 C9091 1.387 . S
C9090 H9094 0.950 . S
C9090 C9099 1.390 . S
C9091 C9090 1.387 . S
C9091 C9093 1.387 . S
H9092 C9099 0.950 . S
C9093 C9091 1.387 . S
C9093 C9095 1.390 . S
C9093 H9097 0.950 . S
H9094 C9090 0.950 . S
C9095 C9093 1.390 . S
C9095 C9096 1.387 . S
C9095 H9098 0.950 . S
C9096 C9095 1.387 . S
C9096 C9099 1.387 . S
H9097 C9093 0.950 . S
H9098 C9095 0.950 . S
C9099 C9090 1.390 . S
C9099 H9092 0.950 . S
C9099 C9096 1.387 . S
C9100 C9101 1.387 . S
C9100 H9104 0.950 . S
C9100 C9109 1.390 . S
C9101 C9100 1.387 . S
C9101 C9103 1.387 . S
H9102 C9109 0.950 . S
C9103 C9101 1.387 . S
C9103 C9105 1.390 . S
C9103 H9107 0.950 . S
H9104 C9100 0.950 . S
C9105 C9103 1.390 . S
C9105 C9106 1.387 . S
C9105 H9108 0.950 . S
C9106 C9105 1.387 . S
C9106 C9109 1.387 . S
H9107 C9103 0.950 . S
H9108 C9105 0.950 . S
C9109 C9100 1.390 . S
C9109 H9102 0.950 . S
C9109 C9106 1.387 . S
C9110 C9111 1.387 . S
C9110 H9114 0.950 . S
C9110 C9119 1.390 . S
C9111 C9110 1.387 . S
C9111 C9113 1.387 . S
H9112 C9119 0.950 . S
C9113 C9111 1.387 . S
C9113 C9115 1.390 . S
C9113 H9117 0.950 . S
H9114 C9110 0.950 . S
C9115 C9113 1.390 . S
C9115 C9116 1.387 . S
C9115 H9118 0.950 . S
C9116 C9115 1.387 . S
C9116 C9119 1.387 . S
H9117 C9113 0.950 . S
H9118 C9115 0.950 . S
C9119 C9110 1.390 . S
C9119 H9112 0.950 . S
C9119 C9116 1.387 . S
C9120 C9121 1.387 . S
C9120 H9124 0.950 . S
C9120 C9129 1.390 . S
C9121 C9120 1.387 . S
C9121 C9123 1.387 . S
H9122 C9129 0.950 . S
C9123 C9121 1.387 . S
C9123 C9125 1.390 . S
C9123 H9127 0.950 . S
H9124 C9120 0.950 . S
C9125 C9123 1.390 . S
C9125 C9126 1.387 . S
C9125 H9128 0.950 . S
C9126 C9125 1.387 . S
C9126 C9129 1.387 . S
H9127 C9123 0.950 . S
H9128 C9125 0.950 . S
C9129 C9120 1.390 . S
C9129 H9122 0.950 . S
C9129 C9126 1.387 . S
C9130 C9131 1.387 . S
C9130 H9134 0.950 . S
C9130 C9139 1.390 . S
C9131 C9130 1.387 . S
C9131 C9133 1.387 . S
H9132 C9139 0.950 . S
C9133 C9131 1.387 . S
C9133 C9135 1.390 . S
C9133 H9137 0.950 . S
H9134 C9130 0.950 . S
C9135 C9133 1.390 . S
C9135 C9136 1.387 . S
C9135 H9138 0.950 . S
C9136 C9135 1.387 . S
C9136 C9139 1.387 . S
H9137 C9133 0.950 . S
H9138 C9135 0.950 . S
C9139 C9130 1.390 . S
C9139 H9132 0.950 . S
C9139 C9136 1.387 . S
C9140 C9141 1.387 . S
C9140 H9144 0.950 . S
C9140 C9149 1.390 . S
C9141 C9140 1.387 . S
C9141 C9143 1.387 . S
H9142 C9149 0.950 . S
C9143 C9141 1.387 . S
C9143 C9145 1.390 . S
C9143 H9147 0.950 . S
H9144 C9140 0.950 . S
C9145 C9143 1.390 . S
C9145 C9146 1.387 . S
C9145 H9148 0.950 . S
C9146 C9145 1.387 . S
C9146 C9149 1.387 . S
H9147 C9143 0.950 . S
H9148 C9145 0.950 . S
C9149 C9140 1.390 . S
C9149 H9142 0.950 . S
C9149 C9146 1.387 . S
C9150 C9151 1.387 . S
C9150 H9154 0.950 . S
C9150 C9159 1.390 . S
C9151 C9150 1.387 . S
C9151 C9153 1.387 . S
H9152 C9159 0.950 . S
C9153 C9151 1.387 . S
C9153 C9155 1.390 . S
C9153 H9157 0.950 . S
H9154 C9150 0.950 . S
C9155 C9153 1.390 . S
C9155 C9156 1.387 . S
C9155 H9158 0.950 . S
C9156 C9155 1.387 . S
C9156 C9159 1.387 . S
H9157 C9153 0.950 . S
H9158 C9155 0.950 . S
C9159 C9150 1.390 . S
C9159 H9152 0.950 . S
C9159 C9156 1.387 . S
C9160 C9161 1.387 . S
C9160 H9164 0.950 . S
C9160 C9169 1.390 . S
C9161 C9160 1.387 . S
C9161 C9163 1.387 . S
H9162 C9169 0.950 . S
C9163 C9161 1.387 . S
C9163 C9165 1.390 . S
C9163 H9167 0.950 . S
H9164 C9160 0.950 . S
C9165 C9163 1.390 . S
C9165 C9166 1.387 . S
C9165 H9168 0.950 . S
C9166 C9165 1.387 . S
C9166 C9169 1.387 . S
H9167 C9163 0.950 . S
H9168 C9165 0.950 . S
C9169 C9160 1.390 . S
C9169 H9162 0.950 . S
C9169 C9166 1.387 . S
C9170 C9171 1.387 . S
C9170 H9174 0.950 . S
C9170 C9179 1.390 . S
C9171 C9170 1.387 . S
C9171 C9173 1.387 . S
H9172 C9179 0.950 . S
C9173 C9171 1.387 . S
C9173 C9175 1.390 . S
C9173 H9177 0.950 . S
H9174 C9170 0.950 . S
C9175 C9173 1.390 . S
C9175 C9176 1.387 . S
C9175 H9178 0.950 . S
C9176 C9175 1.387 . S
C9176 C9179 1.387 . S
H9177 C9173 0.950 . S
H9178 C9175 0.950 . S
C9179 C9170 1.390 . S
C9179 H9172 0.950 . S
C9179 C9176 1.387 . S
C9180 C9181 1.387 . S
C9180 H9184 0.950 . S
C9180 C9189 1.390 . S
C9181 C9180 1.387 . S
C9181 C9183 1.387 . S
H9182 C9189 0.950 . S
C9183 C9181 1.387 . S
C9183 C9185 1.390 . S
C9183 H9187 0.950 . S
H9184 C9180 0.950 . S
C9185 C9183 1.390 . S
C9185 C9186 1.387 . S
C9185 H9188 0.950 . S
C9186 C9185 1.387 . S
C9186 C9189 1.387 . S
H9187 C9183 0.950 . S
H9188 C9185 0.950 . S
C9189 C9180 1.390 . S
C9189 H9182 0.950 . S
C9189 C9186 1.387 . S
C9190 C9191 1.387 . S
C9190 H9194 0.950 . S
C9190 C9199 1.390 . S
C9191 C9190 1.387 . S
C9191 C9193 1.387 . S
H9192 C9199 0.950 . S
C9193 C9191 1.387 . S
C9193 C9195 1.390 . S
C9193 H9197 0.950 . S
H9194 C9190 0.950 . S
C9195 C9193 1.390 . S
C9195 C9196 1.387 . S
C9195 H9198 0.950 . S
C9196 C9195 1.387 . S
C9196 C9199 1.387 . S
H9197 C9193 0.950 . S
H9198 C9195 0.950 . S
C9199 C9190 1.390 . S
C9199 H9192 0.950 . S
C9199 C9196 1.387 . S
C9200 C9201 1.387 . S
C9200 H9204 0.950 . S
C9200 C9209 1.390 . S
C9201 C9200 1.387 . S
C9201 C9203 1.387 . S
H9202 C9209 0.950 . S
C9203 C9201 1.387 . S
C9203 C9205 1.390 . S
C9203 H9207 0.950 . S
H9204 C9200 0.950 . S
C9205 C9203 1.390 . S
C9205 C9206 1.387 . S
C9205 H9208 0.950 . S
C9206 C9205 1.387 . S
C9206 C9209 1.387 . S
H9207 C9203 0.950 . S
H9208 C9205 0.950 . S
C9209 C9200 1.390 . S
C9209 H9202 0.950 . S
C9209 C9206 1.387 . S
C9210 C9211 1.387 . S
C9210 H9214 0.950 . S
C9210 C9219 1.390 . S
C9211 C9210 1.387 . S
C9211 C9213 1.387 . S
H9212 C9219 0.950 . S
C9213 C9211 1.387 . S
C9213 C9215 1.390 . S
C9213 H9217 0.950 . S
H9214 C9210 0.950 . S
C9215 C9213 1.390 . S
C9215 C9216 1.387 . S
C9215 H9218 0.950 . S
C9216 C9215 1.387 . S
C9216 C9219 1.387 . S
H9217 C9213 0.950 . S
H9218 C9215 0.950 . S
C9219 C9210 1.390 . S
C9219 H9212 0.950 . S
C9219 C9216 1.387 . S
C9220 C9221 1.387 . S
C9220 H9224 0.950 . S
C9220 C9229 1.390 . S
C9221 C9220 1.387 . S
C9221 C9223 1.387 . S
H9222 C9229 0.950 . S
C9223 C9221 1.387 . S
C9223 C9225 1.390 . S
C9223 H9227 0.950 . S
H9224 C9220 0.950 . S
C9225 C9223 1.390 . S
C9225 C9226 1.387 . S
C9225 H9228 0.950 . S
C9226 C9225 1.387 . S
C9226 C9229 1.387 . S
H9227 C9223 0.950 . S
H9228 C9225 0.950 . S
C9229 C9220 1.390 . S
C9229 H9222 0.950 . S
C9229 C9226 1.387 . S
C9230 C9231 1.387 . S
C9230 H9234 0.950 . S
C9230 C9239 1.390 . S
C9231 C9230 1.387 . S
C9231 C9233 1.387 . S
H9232 C9239 0.950 . S
C9233 C9231 1.387 . S
C9233 C9235 1.390 . S
C9233 H9237 0.950 . S
H9234 C9230 0.950 . S
C9235 C9233 1.390 . S
C9235 C9236 1.387 . S
C9235 H9238 0.950 . S
C9236 C9235 1.387 . S
C9236 C9239 1.387 . S
H9237 C9233 0.950 . S
H9238 C9235 0.950 . S
C9239 C9230 1.390 . S
C9239 H9232 0.950 . S
C9239 C9236 1.387 . S
C9240 C9241 1.387 . S
C9240 H9244 0.950 . S
C9240 C9249 1.390 . S
C9241 C9240 1.387 . S
C9241 C9243 1.387 . S
H9242 C9249 0.950 . S
C9243 C9241 1.387 . S
C9243 C9245 1.390 . S
C9243 H9247 0.950 . S
H9244 C9240 0.950 . S
C9245 C9243 1.390 . S
C9245 C9246 1.387 . S
C9245 H9248 0.950 . S
C9246 C9245 1.387 . S
C9246 C9249 1.387 . S
H9247 C9243 0.950 . S
H9248 C9245 0.950 . S
C9249 C9240 1.390 . S
C9249 H9242 0.950 . S
C9249 C9246 1.387 . S
C9250 C9251 1.387 . S
C9250 H9254 0.950 . S
C9250 C9259 1.390 . S
C9251 C9250 1.387 . S
C9251 C9253 1.387 . S
H9252 C9259 0.950 . S
C9253 C9251 1.387 . S
C9253 C9255 1.390 . S
C9253 H9257 0.950 . S
H9254 C9250 0.950 . S
C9255 C9253 1.390 . S
C9255 C9256 1.387 . S
C9255 H9258 0.950 . S
C9256 C9255 1.387 . S
C9256 C9259 1.387 . S
H9257 C9253 0.950 . S
H9258 C9255 0.950 . S
C9259 C9250 1.390 . S
C9259 H9252 0.950 . S
C9259 C9256 1.387 . S
C9260 C9261 1.387 . S
C9260 H9264 0.950 . S
C9260 C9269 1.390 . S
C9261 C9260 1.387 . S
C9261 C9263 1.387 . S
H9262 C9269 0.950 . S
C9263 C9261 1.387 . S
C9263 C9265 1.390 . S
C9263 H9267 0.950 . S
H9264 C9260 0.950 . S
C9265 C9263 1.390 . S
C9265 C9266 1.387 . S
C9265 H9268 0.950 . S
C9266 C9265 1.387 . S
C9266 C9269 1.387 . S
H9267 C9263 0.950 . S
H9268 C9265 0.950 . S
C9269 C9260 1.390 . S
C9269 H9262 0.950 . S
C9269 C9266 1.387 . S
C9270 C9271 1.387 . S
C9270 H9274 0.950 . S
C9270 C9279 1.390 . S
C9271 C9270 1.387 . S
C9271 C9273 1.387 . S
H9272 C9279 0.950 . S
C9273 C9271 1.387 . S
C9273 C9275 1.390 . S
C9273 H9277 0.950 . S
H9274 C9270 0.950 . S
C9275 C9273 1.390 . S
C9275 C9276 1.387 . S
C9275 H9278 0.950 . S
C9276 C9275 1.387 . S
C9276 C9279 1.387 . S
H9277 C9273 0.950 . S
H9278 C9275 0.950 . S
C9279 C9270 1.390 . S
C9279 H9272 0.950 . S
C9279 C9276 1.387 . S
C9280 C9281 1.387 . S
C9280 H9284 0.950 . S
C9280 C9289 1.390 . S
C9281 C9280 1.387 . S
C9281 C9283 1.387 . S
H9282 C9289 0.950 . S
C9283 C9281 1.387 . S
C9283 C9285 1.390 . S
C9283 H9287 0.950 . S
H9284 C9280 0.950 . S
C9285 C9283 1.390 . S
C9285 C9286 1.387 . S
C9285 H9288 0.950 . S
C9286 C9285 1.387 . S
C9286 C9289 1.387 . S
H9287 C9283 0.950 . S
H9288 C9285 0.950 . S
C9289 C9280 1.390 . S
C9289 H9282 0.950 . S
C9289 C9286 1.387 . S
C9290 C9291 1.387 . S
C9290 H9294 0.950 . S
C9290 C9299 1.390 . S
C9291 C9290 1.387 . S
C9291 C9293 1.387 . S
H9292 C9299 0.950 . S
C9293 C9291 1.387 . S
C9293 C9295 1.390 . S
C9293 H9297 0.950 . S
H9294 C9290 0.950 . S
C9295 C9293 1.390 . S
C9295 C9296 1.387 . S
C9295 H9298 0.950 . S
C9296 C9295 1.387 . S
C9296 C9299 1.387 . S
H9297 C9293 0.950 . S
H9298 C9295 0.950 . S
C9299 C9290 1.390 . S
C9299 H9292 0.950 . S
C9299 C9296 1.387 . S
C9300 C9301 1.387 . S
C9300 H9304 0.950 . S
C9300 C9309 1.390 . S
C9301 C9300 1.387 . S
C9301 C9303 1.387 . S
H9302 C9309 0.950 . S
C9303 C9301 1.387 . S
C9303 C9305 1.390 . S
C9303 H9307 0.950 . S
H9304 C9300 0.950 . S
C9305 C9303 1.390 . S
C9305 C9306 1.387 . S
C9305 H9308 0.950 . S
C9306 C9305 1.387 . S
C9306 C9309 1.387 . S
H9307 C9303 0.950 . S
H9308 C9305 0.950 . S
C9309 C9300 1.390 . S
C9309 H9302 0.950 . S
C9309 C9306 1.387 . S
C9310 C9311 1.387 . S
C9310 H9314 0.950 . S
C9310 C9319 1.390 . S
C9311 C9310 1.387 . S
C9311 C9313 1.387 . S
H9312 C9319 0.950 . S
C9313 C9311 1.387 . S
C9313 C9315 1.390 . S
C9313 H9317 0.950 . S
H9314 C9310 0.950 . S
C9315 C9313 1.390 . S
C9315 C9316 1.387 . S
C9315 H9318 0.950 . S
C9316 C9315 1.387 . S
C9316 C9319 1.387 . S
H9317 C9313 0.950 . S
H9318 C9315 0.950 . S
C9319 C9310 1.390 . S
C9319 H9312 0.950 . S
C9319 C9316 1.387 . S
C9320 C9321 1.387 . S
C9320 H9324 0.950 . S
C9320 C9329 1.390 . S
C9321 C9320 1.387 . S
C9321 C9323 1.387 . S
H9322 C9329 0.950 . S
C9323 C9321 1.387 . S
C9323 C9325 1.390 . S
C9323 H9327 0.950 . S
H9324 C9320 0.950 . S
C9325 C9323 1.390 . S
C9325 C9326 1.387 . S
C9325 H9328 0.950 . S
C9326 C9325 1.387 . S
C9326 C9329 1.387 . S
H9327 C9323 0.950 . S
H9328 C9325 0.950 . S
C9329 C9320 1.390 . S
C9329 H9322 0.950 . S
C9329 C9326 1.387 . S
C9330 C9331 1.387 . S
C9330 H9334 0.950 . S
C9330 C9339 1.390 . S
C9331 C9330 1.387 . S
C9331 C9333 1.387 . S
H9332 C9339 0.950 . S
C9333 C9331 1.387 . S
C9333 C9335 1.390 . S
C9333 H9337 0.950 . S
H9334 C9330 0.950 . S
C9335 C9333 1.390 . S
C9335 C9336 1.387 . S
C9335 H9338 0.950 . S
C9336 C9335 1.387 . S
C9336 C9339 1.387 . S
H9337 C9333 0.950 . S
H9338 C9335 0.950 . S
C9339 C9330 1.390 . S
C9339 H9332 0.950 . S
C9339 C9336 1.387 . S
C9340 C9341 1.387 . S
C9340 H9344 0.950 . S
C9340 C9349 1.390 . S
C9341 C9340 1.387 . S
C9341 C9343 1.387 . S
H9342 C9349 0.950 . S
C9343 C9341 1.387 . S
C9343 C9345 1.390 . S
C9343 H9347 0.950 . S
H9344 C9340 0.950 . S
C9345 C9343 1.390 . S
C9345 C9346 1.387 . S
C9345 H9348 0.950 . S
C9346 C9345 1.387 . S
C9346 C9349 1.387 . S
H9347 C9343 0.950 . S
H9348 C9345 0.950 . S
C9349 C9340 1.390 . S
C9349 H9342 0.950 . S
C9349 C9346 1.387 . S
C9350 C9351 1.387 . S
C9350 H9354 0.950 . S
C9350 C9359 1.390 . S
C9351 C9350 1.387 . S
C9351 C9353 1.387 . S
H9352 C9359 0.950 . S
C9353 C9351 1.387 . S
C9353 C9355 1.390 . S
C9353 H9357 0.950 . S
H9354 C9350 0.950 . S
C9355 C9353 1.390 . S
C9355 C9356 1.387 . S
C9355 H9358 0.950 . S
C9356 C9355 1.387 . S
C9356 C9359 1.387 . S
H9357 C9353 0.950 . S
H9358 C9355 0.950 . S
C9359 C9350 1.390 . S
C9359 H9352 0.950 . S
C9359 C9356 1.387 . S
C9360 C9361 1.387 . S
C9360 H9364 0.950 . S
C9360 C9369 1.390 . S
C9361 C9360 1.387 . S
C9361 C9363 1.387 . S
H9362 C9369 0.950 . S
C9363 C9361 1.387 . S
C9363 C9365 1.390 . S
C9363 H9367 0.950 . S
H9364 C9360 0.950 . S
C9365 C9363 1.390 . S
C9365 C9366 1.387 . S
C9365 H9368 0.950 . S
C9366 C9365 1.387 . S
C9366 C9369 1.387 . S
H9367 C9363 0.950 . S
H9368 C9365 0.950 . S
C9369 C9360 1.390 . S
C9369 H9362 0.950 . S
C9369 C9366 1.387 . S
C9370 C9371 1.387 . S
C9370 H9374 0.950 . S
C9370 C9379 1.390 . S
C9371 C9370 1.387 . S
C9371 C9373 1.387 . S
H9372 C9379 0.950 . S
C9373 C9371 1.387 . S
C9373 C9375 1.390 . S
C9373 H9377 0.950 . S
H9374 C9370 0.950 . S
C9375 C9373 1.390 . S
C9375 C9376 1.387 . S
C9375 H9378 0.950 . S
C9376 C9375 1.387 . S
C9376 C9379 1.387 . S
H9377 C9373 0.950 . S
H9378 C9375 0.950 . S
C9379 C9370 1.390 . S
C9379 H9372 0.950 . S
C9379 C9376 1.387 . S
C9380 C9381 1.387 . S
C9380 H9384 0.950 . S
C9380 C9389 1.390 . S
C9381 C9380 1.387 . S
C9381 C9383 1.387 . S
H9382 C9389 0.950 . S
C9383 C9381 1.387 . S
C9383 C9385 1.390 . S
C9383 H9387 0.950 . S
H9384 C9380 0.950 . S
C9385 C9383 1.390 . S
C9385 C9386 1.387 . S
C9385 H9388 0.950 . S
C9386 C9385 1.387 . S
C9386 C9389 1.387 . S
H9387 C9383 0.950 . S
H9388 C9385 0.950 . S
C9389 C9380 1.390 . S
C9389 H9382 0.950 . S
C9389 C9386 1.387 . S
C9390 C9391 1.387 . S
C9390 H9394 0.950 . S
C9390 C9399 1.390 . S
C9391 C9390 1.387 . S
C9391 C9393 1.387 . S
H9392 C9399 0.950 . S
C9393 C9391 1.387 . S
C9393 C9395 1.390 . S
C9393 H9397 0.950 . S
H9394 C9390 0.950 . S
C9395 C9393 1.390 . S
C9395 C9396 1.387 . S
C9395 H9398 0.950 . S
C9396 C9395 1.387 . S
C9396 C9399 1.387 . S
H9397 C9393 0.950 . S
H9398 C9395 0.950 . S
C9399 C9390 1.390 . S
C9399 H9392 0.950 . S
C9399 C9396 1.387 . S
C9400 C9401 1.387 . S
C9400 H9404 0.950 . S
C9400 C9409 1.390 . S
C9401 C9400 1.387 . S
C9401 C9403 1.387 . S
H9402 C9409 0.950 . S
C9403 C9401 1.387 . S
C9403 C9405 1.390 . S
C9403 H9407 0.950 . S
H9404 C9400 0.950 . S
C9405 C9403 1.390 . S
C9405 C9406 1.387 . S
C9405 H9408 0.950 . S
C9406 C9405 1.387 . S
C9406 C9409 1.387 . S
H9407 C9403 0.950 . S
H9408 C9405 0.950 . S
C9409 C9400 1.390 . S
C9409 H9402 0.950 . S
C9409 C9406 1.387 . S
C9410 C9411 1.387 . S
C9410 H9414 0.950 . S
C9410 C9419 1.390 . S
C9411 C9410 1.387 . S
C9411 C9413 1.387 . S
H9412 C9419 0.950 . S
C9413 C9411 1.387 . S
C9413 C9415 1.390 . S
C9413 H9417 0.950 . S
H9414 C9410 0.950 . S
C9415 C9413 1.390 . S
C9415 C9416 1.387 . S
C9415 H9418 0.950 . S
C9416 C9415 1.387 . S
C9416 C9419 1.387 . S
H9417 C9413 0.950 . S
H9418 C9415 0.950 . S
C9419 C9410 1.390 . S
C9419 H9412 0.950 . S
C9419 C9416 1.387 . S
C9420 C9421 1.387 . S
C9420 H9424 0.950 . S
C9420 C9429 1.390 . S
C9421 C9420 1.387 . S
C9421 C9423 1.387 . S
H9422 C9429 0.950 . S
C9423 C9421 1.387 . S
C9423 C9425 1.390 . S
C9423 H9427 0.950 . S
H9424 C9420 0.950 . S
C9425 C9423 1.390 . S
C9425 C9426 1.387 . S
C9425 H9428 0.950 . S
C9426 C9425 1.387 . S
C9426 C9429 1.387 . S
H9427 C9423 0.950 . S
H9428 C9425 0.950 . S
C9429 C9420 1.390 . S
C9429 H9422 0.950 . S
C9429 C9426 1.387 . S
C9430 C9431 1.387 . S
C9430 H9434 0.950 . S
C9430 C9439 1.390 . S
C9431 C9430 1.387 . S
C9431 C9433 1.387 . S
H9432 C9439 0.950 . S
C9433 C9431 1.387 . S
C9433 C9435 1.390 . S
C9433 H9437 0.950 . S
H9434 C9430 0.950 . S
C9435 C9433 1.390 . S
C9435 C9436 1.387 . S
C9435 H9438 0.950 . S
C9436 C9435 1.387 . S
C9436 C9439 1.387 . S
H9437 C9433 0.950 . S
H9438 C9435 0.950 . S
C9439 C9430 1.390 . S
C9439 H9432 0.950 . S
C9439 C9436 1.387 . S
C9440 C9441 1.387 . S
C9440 H9444 0.950 . S
C9440 C9449 1.390 . S
C9441 C9440 1.387 . S
C9441 C9443 1.387 . S
H9442 C9449 0.950 . S
C9443 C9441 1.387 . S
C9443 C9445 1.390 . S
C9443 H9447 0.950 . S
H9444 C9440 0.950 . S
C9445 C9443 1.390 . S
C9445 C9446 1.387 . S
C9445 H9448 0.950 . S
C9446 C9445 1.387 . S
C9446 C9449 1.387 . S
H9447 C9443 0.950 . S
H9448 C9445 0.950 . S
C9449 C9440 1.390 . S
C9449 H9442 0.950 . S
C9449 C9446 1.387 . S
C9450 C9451 1.387 . S
C9450 H9454 0.950 . S
C9450 C9459 1.390 . S
C9451 C9450 1.387 . S
C9451 C9453 1.387 . S
H9452 C9459 0.950 . S
C9453 C9451 1.387 . S
C9453 C9455 1.390 . S
C9453 H9457 0.950 . S
H9454 C9450 0.950 . S
C9455 C9453 1.390 . S
C9455 C9456 1.387 . S
C9455 H9458 0.950 . S
C9456 C9455 1.387 . S
C9456 C9459 1.387 . S
H9457 C9453 0.950 . S
H9458 C9455 0.950 . S
C9459 C9450 1.390 . S
C9459 H9452 0.950 . S
C9459 C9456 1.387 . S
C9460 C9461 1.387 . S
C9460 H9464 0.950 . S
C9460 C9469 1.390 . S
C9461 C9460 1.387 . S
C9461 C9463 1.387 . S
H9462 C9469 0.950 . S
C9463 C9461 1.387 . S
C9463 C9465 1.390 . S
C9463 H9467 0.950 . S
H9464 C9460 0.950 . S
C9465 C9463 1.390 . S
C9465 C9466 1.387 . S
C9465 H9468 0.950 . S
C9466 C9465 1.387 . S
C9466 C9469 1.387 . S
H9467 C9463 0.950 . S
H9468 C9465 0.950 . S
C9469 C9460 1.390 . S
C9469 H9462 0.950 . S
C9469 C9466 1.387 . S
C9470 C9471 1.387 . S
C9470 H9474 0.950 . S
C9470 C9479 1.390 . S
C9471 C9470 1.387 . S
C9471 C9473 1.387 . S
H9472 C9479 0.950 . S
C9473 C9471 1.387 . S
C9473 C9475 1.390 . S
C9473 H9477 0.950 . S
H9474 C9470 0.950 . S
C9475 C9473 1.390 . S
C9475 C9476 1.387 . S
C9475 H9478 0.950 . S
C9476 C9475 1.387 . S
C9476 C9479 1.387 . S
H9477 C9473 0.950 . S
H9478 C9475 0.950 . S
C9479 C9470 1.390 . S
C9479 H9472 0.950 . S
C9479 C9476 1.387 . S
C9480 C9481 1.387 . S
C9480 H9484 0.950 . S
C9480 C9489 1.390 . S
C9481 C9480 1.387 . S
C9481 C9483 1.387 . S
H9482 C9489 0.950 . S
C9483 C9481 1.387 . S
C9483 C9485 1.390 . S
C9483 H9487 0.950 . S
H9484 C9480 0.950 . S
C9485 C9483 1.390 . S
C9485 C9486 1.387 . S
C9485 H9488 0.950 . S
C9486 C9485 1.387 . S
C9486 C9489 1.387 . S
H9487 C9483 0.950 . S
H9488 C9485 0.950 . S
C9489 C9480 1.390 . S
C9489 H9482 0.950 . S
C9489 C9486 1.387 . S
C9490 C9491 1.387 . S
C9490 H9494 0.950 . S
C9490 C9499 1.390 . S
C9491 C9490 1.387 . S
C9491 C9493 1.387 . S
H9492 C9499 0.950 . S
C9493 C9491 1.387 . S
C9493 C9495 1.390 . S
C9493 H9497 0.950 . S
H9494 C9490 0.950 . S
C9495 C9493 1.390 . S
C9495 C9496 1.387 . S
C9495 H9498 0.950 . S
C9496 C9495 1.387 . S
C9496 C9499 1.387 . S
H9497 C9493 0.950 . S
H9498 C9495 0.950 . S
C9499 C9490 1.390 . S
C9499 H9492 0.950 . S
C9499 C9496 1.387 . S
C9500 C9501 1.387 . S
C9500 H9504 0.950 . S
C9500 C9509 1.390 . S
C9501 C9500 1.387 . S
C9501 C9503 1.387 . S
H9502 C9509 0.950 . S
C9503 C9501 1.387 . S
C9503 C9505 1.390 . S
C9503 H9507 0.950 . S
H9504 C9500 0.950 . S
C9505 C9503 1.390 . S
C9505 C9506 1.387 . S
C9505 H9508 0.950 . S
C9506 C9505 1.387 . S
C9506 C9509 1.387 . S
H9507 C9503 0.950 . S
H9508 C9505 0.950 . S
C9509 C9500 1.390 . S
C9509 H9502 0.950 . S
C9509 C9506 1.387 . S
C9510 C9511 1.387 . S
C9510 H9514 0.950 . S
C9510 C9519 1.390 . S
C9511 C9510 1.387 . S
C9511 C9513 1.387 . S
H9512 C9519 0.950 . S
C9513 C9511 1.387 . S
C9513 C9515 1.390 . S
C9513 H9517 0.950 . S
H9514 C9510 0.950 . S
C9515 C9513 1.390 . S
C9515 C9516 1.387 . S
C9515 H9518 0.950 . S
C9516 C9515 1.387 . S
C9516 C9519 1.387 . S
H9517 C9513 0.950 . S
H9518 C9515 0.950 . S
C9519 C9510 1.390 . S
C9519 H9512 0.950 . S
C9519 C9516 1.387 . S
C9520 C9521 1.387 . S
C9520 H9524 0.950 . S
C9520 C9529 1.390 . S
C9521 C9520 1.387 . S
C9521 C9523 1.387 . S
H9522 C9529 0.950 . S
C9523 C9521 1.387 . S
C9523 C9525 1.390 . S
C9523 H9527 0.950 . S
H9524 C9520 0.950 . S
C9525 C9523 1.390 . S
C9525 C9526 1.387 . S
C9525 H9528 0.950 . S
C9526 C9525 1.387 . S
C9526 C9529 1.387 . S
H9527 C9523 0.950 . S
H9528 C9525 0.950 . S
C9529 C9520 1.390 . S
C9529 H9522 0.950 . S
C9529 C9526 1.387 . S
C9530 C9531 1.387 . S
C9530 H9534 0.950 . S
C9530 C9539 1.390 . S
C9531 C9530 1.387 . S
C9531 C9533 1.387 . S
H9532 C9539 0.950 . S
C9533 C9531 1.387 . S
C9533 C9535 1.390 . S
C9533 H9537 0.950 . S
H9534 C9530 0.950 . S
C9535 C9533 1.390 . S
C9535 C9536 1.387 . S
C9535 H9538 0.950 . S
C9536 C9535 1.387 . S
C9536 C9539 1.387 . S
H9537 C9533 0.950 . S
H9538 C9535 0.950 . S
C9539 C9530 1.390 . S
C9539 H9532 0.950 . S
C9539 C9536 1.387 . S
C9540 C9541 1.387 . S
C9540 H9544 0.950 . S
C9540 C9549 1.390 . S
C9541 C9540 1.387 . S
C9541 C9543 1.387 . S
H9542 C9549 0.950 . S
C9543 C9541 1.387 . S
C9543 C9545 1.390 . S
C9543 H9547 0.950 . S
H9544 C9540 0.950 . S
C9545 C9543 1.390 . S
C9545 C9546 1.387 . S
C9545 H9548 0.950 . S
C9546 C9545 1.387 . S
C9546 C9549 1.387 . S
H9547 C9543 0.950 . S
H9548 C9545 0.950 . S
C9549 C9540 1.390 . S
C9549 H9542 0.950 . S
C9549 C9546 1.387 . S
C9550 C9551 1.387 . S
C9550 H9554 0.950 . S
C9550 C9559 1.390 . S
C9551 C9550 1.387 . S
C9551 C9553 1.387 . S
H9552 C9559 0.950 . S
C9553 C9551 1.387 . S
C9553 C9555 1.390 . S
C9553 H9557 0.950 . S
H9554 C9550 0.950 . S
C9555 C9553 1.390 . S
C9555 C9556 1.387 . S
C9555 H9558 0.950 . S
C9556 C9555 1.387 . S
C9556 C9559 1.387 . S
H9557 C9553 0.950 . S
H9558 C9555 0.950 . S
C9559 C9550 1.390 . S
C9559 H9552 0.950 . S
C9559 C9556 1.387 . S
C9560 C9561 1.387 . S
C9560 H9564 0.950 . S
C9560 C9569 1.390 . S
C9561 C9560 1.387 . S
C9561 C9563 1.387 . S
H9562 C9569 0.950 . S
C9563 C9561 1.387 . S
C9563 C9565 1.390 . S
C9563 H9567 0.950 . S
H9564 C9560 0.950 . S
C9565 C9563 1.390 . S
C9565 C9566 1.387 . S
C9565 H9568 0.950 . S
C9566 C9565 1.387 . S
C9566 C9569 1.387 . S
H9567 C9563 0.950 . S
H9568 C9565 0.950 . S
C9569 C9560 1.390 . S
C9569 H9562 0.950 . S
C9569 C9566 1.387 . S
C9570 C9571 1.387 . S
C9570 H9574 0.950 . S
C9570 C9579 1.390 . S
C9571 C9570 1.387 . S
C9571 C9573 1.387 . S
H9572 C9579 0.950 . S
C9573 C9571 1.387 . S
C9573 C9575 1.390 . S
C9573 H9577 0.950 . S
H9574 C9570 0.950 . S
C9575 C9573 1.390 . S
C9575 C9576 1.387 . S
C9575 H9578 0.950 . S
C9576 C9575 1.387 . S
C9576 C9579 1.387 . S
H9577 C9573 0.950 . S
H9578 C9575 0.950 . S
C9579 C9570 1.390 . S
C9579 H9572 0.950 . S
C9579 C9576 1.387 . S
C9580 C9581 1.387 . S
C9580 H9584 0.950 . S
C9580 C9589 1.390 . S
C9581 C9580 1.387 . S
C9581 C9583 1.387 . S
H9582 C9589 0.950 . S
C9583 C9581 1.387 . S
C9583 C9585 1.390 . S
C9583 H9587 0.950 . S
H9584 C9580 0.950 . S
C9585 C9583 1.390 . S
C9585 C9586 1.387 . S
C9585 H9588 0.950 . S
C9586 C9585 1.387 . S
C9586 C9589 1.387 . S
H9587 C9583 0.950 . S
H9588 C9585 0.950 . S
C9589 C9580 1.390 . S
C9589 H9582 0.950 . S
C9589 C9586 1.387 . S
C9590 C9591 1.387 . S
C9590 H9594 0.950 . S
C9590 C9599 1.390 . S
C9591 C9590 1.387 . S
C9591 C9593 1.387 . S
H9592 C9599 0.950 . S
C9593 C9591 1.387 . S
C9593 C9595 1.390 . S
C9593 H9597 0.950 . S
H9594 C9590 0.950 . S
C9595 C9593 1.390 . S
C9595 C9596 1.387 . S
C9595 H9598 0.950 . S
C9596 C9595 1.387 . S
C9596 C9599 1.387 . S
H9597 C9593 0.950 . S
H9598 C9595 0.950 . S
C9599 C9590 1.390 . S
C9599 H9592 0.950 . S
C9599 C9596 1.387 . S
C9600 C9601 1.387 . S
C9600 H9604 0.950 . S
C9600 C9609 1.390 . S
C9601 C9600 1.387 . S
C9601 C9603 1.387 . S
H9602 C9609 0.950 . S
C9603 C9601 1.387 . S
C9603 C9605 1.390 . S
C9603 H9607 0.950 . S
H9604 C9600 0.950 . S
C9605 C9603 1.390 . S
C9605 C9606 1.387 . S
C9605 H9608 0.950 . S
C9606 C9605 1.387 . S
C9606 C9609 1.387 . S
H9607 C9603 0.950 . S
H9608 C9605 0.950 . S
C9609 C9600 1.390 . S
C9609 H9602 0.950 . S
C9609 C9606 1.387 . S
C9610 C9611 1.387 . S
C9610 H9614 0.950 . S
C9610 C9619 1.390 . S
C9611 C9610 1.387 . S
C9611 C9613 1.387 . S
H9612 C9619 0.950 . S
C9613 C9611 1.387 . S
C9613 C9615 1.390 . S
C9613 H9617 0.950 . S
H9614 C9610 0.950 . S
C9615 C9613 1.390 . S
C9615 C9616 1.387 . S
C9615 H9618 0.950 . S
C9616 C9615 1.387 . S
C9616 C9619 1.387 . S
H9617 C9613 0.950 . S
H9618 C9615 0.950 . S
C9619 C9610 1.390 . S
C9619 H9612 0.950 . S
C9619 C9616 1.387 . S
C9620 C9621 1.387 . S
C9620 H9624 0.950 . S
C9620 C9629 1.390 . S
C9621 C9620 1.387 . S
C9621 C9623 1.387 . S
H9622 C9629 0.950 . S
C9623 C9621 1.387 . S
C9623 C9625 1.390 . S
C9623 H9627 0.950 . S
H9624 C9620 0.950 . S
C9625 C9623 1.390 . S
C9625 C9626 1.387 . S
C9625 H9628 0.950 . S
C9626 C9625 1.387 . S
C9626 C9629 1.387 . S
H9627 C9623 0.950 . S
H9628 C9625 0.950 . S
C9629 C9620 1.390 . S
C9629 H9622 0.950 . S
C9629 C9626 1.387 . S
C9630 C9631 1.387 . S
C9630 H9634 0.950 . S
C9630 C9639 1.390 . S
C9631 C9630 1.387 . S
C9631 C9633 1.387 . S
H9632 C9639 0.950 . S
C9633 C9631 1.387 . S
C9633 C9635 1.390 . S
C9633 H9637 0.950 . S
H9634 C9630 0.950 . S
C9635 C9633 1.390 . S
C9635 C9636 1.387 . S
C9635 H9638 0.950 . S
C9636 C9635 1.387 . S
C9636 C9639 1.387 . S
H9637 C9633 0.950 . S
H9638 C9635 0.950 . S
C9639 C9630 1.390 . S
C9639 H9632 0.950 . S
C9639 C9636 1.387 . S
C9640 C9641 1.387 . S
C9640 H9644 0.950 . S
C9640 C9649 1.390 . S
C9641 C9640 1.387 . S
C9641 C9643 1.387 . S
H9642 C9649 0.950 . S
C9643 C9641 1.387 . S
C9643 C9645 1.390 . S
C9643 H9647 0.950 . S
H9644 C9640 0.950 . S
C9645 C9643 1.390 . S
C9645 C9646 1.387 . S
C9645 H9648 0.950 . S
C9646 C9645 1.387 . S
C9646 C9649 1.387 . S
H9647 C9643 0.950 . S
H9648 C9645 0.950 . S
C9649 C9640 1.390 . S
C9649 H9642 0.950 . S
C9649 C9646 1.387 . S
C9650 C9651 1.387 . S
C9650 H9654 0.950 . S
C9650 C9659 1.390 . S
C9651 C9650 1.387 . S
C9651 C9653 1.387 . S
H9652 C9659 0.950 . S
C9653 C9651 1.387 . S
C9653 C9655 1.390 . S
C9653 H9657 0.950 . S
H9654 C9650 0.950 . S
C9655 C9653 1.390 . S
C9655 C9656 1.387 . S
C9655 H9658 0.950 . S
C9656 C9655 1.387 . S
C9656 C9659 1.387 . S
H9657 C9653 0.950 . S
H9658 C9655 0.950 . S
C9659 C9650 1.390 . S
C9659 H9652 0.950 . S
C9659 C9656 1.387 . S
C9660 C9661 1.387 . S
C9660 H9664 0.950 . S
C9660 C9669 1.390 . S
C9661 C9660 1.387 . S
C9661 C9663 1.387 . S
H9662 C9669 0.950 . S
C9663 C9661 1.387 . S
C9663 C9665 1.390 . S
C9663 H9667 0.950 . S
H9664 C9660 0.950 . S
C9665 C9663 1.390 . S
C9665 C9666 1.387 . S
C9665 H9668 0.950 . S
C9666 C9665 1.387 . S
C9666 C9669 1.387 . S
H9667 C9663 0.950 . S
H9668 C9665 0.950 . S
C9669 C9660 1.390 . S
C9669 H9662 0.950 . S
C9669 C9666 1.387 . S
C9670 C9671 1.387 . S
C9670 H9674 0.950 . S
C9670 C9679 1.390 . S
C9671 C9670 1.387 . S
C9671 C9673 1.387 . S
H9672 C9679 0.950 . S
C9673 C9671 1.387 . S
C9673 C9675 1.390 . S
C9673 H9677 0.950 . S
H9674 C9670 0.950 . S
C9675 C9673 1.390 . S
C9675 C9676 1.387 . S
C9675 H9678 0.950 . S
C9676 C9675 1.387 . S
C9676 C9679 1.387 . S
H9677 C9673 0.950 . S
H9678 C9675 0.950 . S
C9679 C9670 1.390 . S
C9679 H9672 0.950 . S
C9679 C9676 1.387 . S
C9680 C9681 1.387 . S
C9680 H9684 0.950 . S
C9680 C9689 1.390 . S
C9681 C9680 1.387 . S
C9681 C9683 1.387 . S
H9682 C9689 0.950 . S
C9683 C9681 1.387 . S
C9683 C9685 1.390 . S
C9683 H9687 0.950 . S
H9684 C9680 0.950 . S
C9685 C9683 1.390 . S
C9685 C9686 1.387 . S
C9685 H9688 0.950 . S
C9686 C9685 1.387 . S
C9686 C9689 1.387 . S
H9687 C9683 0.950 . S
H9688 C9685 0.950 . S
C9689 C9680 1.390 . S
C9689 H9682 0.950 . S
C9689 C9686 1.387 . S
C9690 C9691 1.387 . S
C9690 H9694 0.950 . S
C9690 C9699 1.390 . S
C9691 C9690 1.387 . S
C9691 C9693 1.387 . S
H9692 C9699 0.950 . S
C9693 C9691 1.387 . S
C9693 C9695 1.390 . S
C9693 H9697 0.950 . S
H9694 C9690 0.950 . S
C9695 C9693 1.390 . S
C9695 C9696 1.387 . S
C9695 H9698 0.950 . S
C9696 C9695 1.387 . S
C9696 C9699 1.387 . S
H9697 C9693 0.950 . S
H9698 C9695 0.950 . S
C9699 C9690 1.390 . S
C9699 H9692 0.950 . S
C9699 C9696 1.387 . S
C9700 C9701 1.387 . S
C9700 H9704 0.950 . S
C9700 C9709 1.390 . S
C9701 C9700 1.387 . S
C9701 C9703 1.387 . S
H9702 C9709 0.950 . S
C9703 C9701 1.387 . S
C9703 C9705 1.390 . S
C9703 H9707 0.950 . S
H9704 C9700 0.950 . S
C9705 C9703 1.390 . S
C9705 C9706 1.387 . S
C9705 H9708 0.950 . S
C9706 C9705 1.387 . S
C9706 C9709 1.387 . S
H9707 C9703 0.950 . S
H9708 C9705 0.950 . S
C9709 C9700 1.390 . S
C9709 H9702 0.950 . S
C9709 C9706 1.387 . S
C9710 C9711 1.387 . S
C9710 H9714 0.950 . S
C9710 C9719 1.390 . S
C9711 C9710 1.387 . S
C9711 C9713 1.387 . S
H9712 C9719 0.950 . S
C9713 C9711 1.387 . S
C9713 C9715 1.390 . S
C9713 H9717 0.950 . S
H9714 C9710 0.950 . S
C9715 C9713 1.390 . S
C9715 C9716 1.387 . S
C9715 H9718 0.950 . S
C9716 C9715 1.387 . S
C9716 C9719 1.387 . S
H9717 C9713 0.950 . S
H9718 C9715 0.950 . S
C9719 C9710 1.390 . S
C9719 H9712 0.950 . S
C9719 C9716 1.387 . S
C9720 C9721 1.387 . S
C9720 H9724 0.950 . S
C9720 C9729 1.390 . S
C9721 C9720 1.387 . S
C9721 C9723 1.387 . S
H9722 C9729 0.950 . S
C9723 C9721 1.387 . S
C9723 C9725 1.390 . S
C9723 H9727 0.950 . S
H9724 C9720 0.950 . S
C9725 C9723 1.390 . S
C9725 C9726 1.387 . S
C9725 H9728 0.950 . S
C9726 C9725 1.387 . S
C9726 C9729 1.387 . S
H9727 C9723 0.950 . S
H9728 C9725 0.950 . S
C9729 C9720 1.390 . S
C9729 H9722 0.950 . S
C9729 C9726 1.387 . S
C9730 C9731 1.387 . S
C9730 H9734 0.950 . S
C9730 C9739 1.390 . S
C9731 C9730 1.387 . S
C9731 C9733 1.387 . S
H9732 C9739 0.950 . S
C9733 C9731 1.387 . S
C9733 C9735 1.390 . S
C9733 H9737 0.950 . S
H9734 C9730 0.950 . S
C9735 C9733 1.390 . S
C9735 C9736 1.387 . S
C9735 H9738 0.950 . S
C9736 C9735 1.387 . S
C9736 C9739 1.387 . S
H9737 C9733 0.950 . S
H9738 C9735 0.950 . S
C9739 C9730 1.390 . S
C9739 H9732 0.950 . S
C9739 C9736 1.387 . S
C9740 C9741 1.387 . S
C9740 H9744 0.950 . S
C9740 C9749 1.390 . S
C9741 C9740 1.387 . S
C9741 C9743 1.387 . S
H9742 C9749 0.950 . S
C9743 C9741 1.387 . S
C9743 C9745 1.390 . S
C9743 H9747 0.950 . S
H9744 C9740 0.950 . S
C9745 C9743 1.390 . S
C9745 C9746 1.387 . S
C9745 H9748 0.950 . S
C9746 C9745 1.387 . S
C9746 C9749 1.387 . S
H9747 C9743 0.950 . S
H9748 C9745 0.950 . S
C9749 C9740 1.390 . S
C9749 H9742 0.950 . S
C9749 C9746 1.387 . S
C9750 C9751 1.387 . S
C9750 H9754 0.950 . S
C9750 C9759 1.390 . S
C9751 C9750 1.387 . S
C9751 C9753 1.387 . S
H9752 C9759 0.950 . S
C9753 C9751 1.387 . S
C9753 C9755 1.390 . S
C9753 H9757 0.950 . S
H9754 C9750 0.950 . S
C9755 C9753 1.390 . S
C9755 C9756 1.387 . S
C9755 H9758 0.950 . S
C9756 C9755 1.387 . S
C9756 C9759 1.387 . S
H9757 C9753 0.950 . S
H9758 C9755 0.950 . S
C9759 C9750 1.390 . S
C9759 H9752 0.950 . S
C9759 C9756 1.387 . S
C9760 C9761 1.387 . S
C9760 H9764 0.950 . S
C9760 C9769 1.390 . S
C9761 C9760 1.387 . S
C9761 C9763 1.387 . S
H9762 C9769 0.950 . S
C9763 C9761 1.387 . S
C9763 C9765 1.390 . S
C9763 H9767 0.950 . S
H9764 C9760 0.950 . S
C9765 C9763 1.390 . S
C9765 C9766 1.387 . S
C9765 H9768 0.950 . S
C9766 C9765 1.387 . S
C9766 C9769 1.387 . S
H9767 C9763 0.950 . S
H9768 C9765 0.950 . S
C9769 C9760 1.390 . S
C9769 H9762 0.950 . S
C9769 C9766 1.387 . S
C9770 C9771 1.387 . S
C9770 H9774 0.950 . S
C9770 C9779 1.390 . S
C9771 C9770 1.387 . S
C9771 C9773 1.387 . S
H9772 C9779 0.950 . S
C9773 C9771 1.387 . S
C9773 C9775 1.390 . S
C9773 H9777 0.950 . S
H9774 C9770 0.950 . S
C9775 C9773 1.390 . S
C9775 C9776 1.387 . S
C9775 H9778 0.950 . S
C9776 C9775 1.387 . S
C9776 C9779 1.387 . S
H9777 C9773 0.950 . S
H9778 C9775 0.950 . S
C9779 C9770 1.390 . S
C9779 H9772 0.950 . S
C9779 C9776 1.387 . S
C9780 C9781 1.387 . S
C9780 H9784 0.950 . S
C9780 C9789 1.390 . S
C9781 C9780 1.387 . S
C9781 C9783 1.387 . S
H9782 C9789 0.950 . S
C9783 C9781 1.387 . S
C9783 C9785 1.390 . S
C9783 H9787 0.950 . S
H9784 C9780 0.950 . S
C9785 C9783 1.390 . S
C9785 C9786 1.387 . S
C9785 H9788 0.950 . S
C9786 C9785 1.387 . S
C9786 C9789 1.387 . S
H9787 C9783 0.950 . S
H9788 C9785 0.950 . S
C9789 C9780 1.390 . S
C9789 H9782 0.950 . S
C9789 C9786 1.387 . S
C9790 C9791 1.387 . S
C9790 H9794 0.950 . S
C9790 C9799 1.390 . S
C9791 C9790 1.387 . S
C9791 C9793 1.387 . S
H9792 C9799 0.950 . S
C9793 C9791 1.387 . S
C9793 C9795 1.390 . S
C9793 H9797 0.950 . S
H9794 C9790 0.950 . S
C9795 C9793 1.390 . S
C9795 C9796 1.387 . S
C9795 H9798 0.950 . S
C9796 C9795 1.387 . S
C9796 C9799 1.387 . S
H9797 C9793 0.950 . S
H9798 C9795 0.950 . S
C9799 C9790 1.390 . S
C9799 H9792 0.950 . S
C9799 C9796 1.387 . S
C9800 C9801 1.387 . S
C9800 H9804 0.950 . S
C9800 C9809 1.390 . S
C9801 C9800 1.387 . S
C9801 C9803 1.387 . S
H9802 C9809 0.950 . S
C9803 C9801 1.387 . S
C9803 C9805 1.390 . S
C9803 H9807 0.950 . S
H9804 C9800 0.950 . S
C9805 C9803 1.390 . S
C9805 C9806 1.387 . S
C9805 H9808 0.950 . S
C9806 C9805 1.387 . S
C9806 C9809 1.387 . S
H9807 C9803 0.950 . S
H9808 C9805 0.950 . S
C9809 C9800 1.390 . S
C9809 H9802 0.950 . S
C9809 C9806 1.387 . S
C9810 C9811 1.387 . S
C9810 H9814 0.950 . S
C9810 C9819 1.390 . S
C9811 C9810 1.387 . S
C9811 C9813 1.387 . S
H9812 C9819 0.950 . S
C9813 C9811 1.387 . S
C9813 C9815 1.390 . S
C9813 H9817 0.950 . S
H9814 C9810 0.950 . S
C9815 C9813 1.390 . S
C9815 C9816 1.387 . S
C9815 H9818 0.950 . S
C9816 C9815 1.387 . S
C9816 C9819 1.387 . S
H9817 C9813 0.950 . S
H9818 C9815 0.950 . S
C9819 C9810 1.390 . S
C9819 H9812 0.950 . S
C9819 C9816 1.387 . S
C9820 C9821 1.387 . S
C9820 H9824 0.950 . S
C9820 C9829 1.390 . S
C9821 C9820 1.387 . S
C9821 C9823 1.387 . S
H9822 C9829 0.950 . S
C9823 C9821 1.387 . S
C9823 C9825 1.390 . S
C9823 H9827 0.950 . S
H9824 C9820 0.950 . S
C9825 C9823 1.390 . S
C9825 C9826 1.387 . S
C9825 H9828 0.950 . S
C9826 C9825 1.387 . S
C9826 C9829 1.387 . S
H9827 C9823 0.950 . S
H9828 C9825 0.950 . S
C9829 C9820 1.390 . S
C9829 H9822 0.950 . S
C9829 C9826 1.387 . S
C9830 C9831 1.387 . S
C9830 H9834 0.950 . S
C9830 C9839 1.390 . S
C9831 C9830 1.387 . S
C9831 C9833 1.387 . S
H9832 C9839 0.950 . S
C9833 C9831 1.387 . S
C9833 C9835 1.390 . S
C9833 H9837 0.950 . S
H9834 C9830 0.950 . S
C9835 C9833 1.390 . S
C9835 C9836 1.387 . S
C9835 H9838 0.950 . S
C9836 C9835 1.387 . S
C9836 C9839 1.387 . S
H9837 C9833 0.950 . S
H9838 C9835 0.950 . S
C9839 C9830 1.390 . S
C9839 H9832 0.950 . S
C9839 C9836 1.387 . S
C9840 C9841 1.387 . S
C9840 H9844 0.950 . S
C9840 C9849 1.390 . S
C9841 C9840 1.387 . S
C9841 C9843 1.387 . S
H9842 C9849 0.950 . S
C9843 C9841 1.387 . S
C9843 C9845 1.390 . S
C9843 H9847 0.950 . S
H9844 C9840 0.950 . S
C9845 C9843 1.390 . S
C9845 C9846 1.387 . S
C9845 H9848 0.950 . S
C9846 C9845 1.387 . S
C9846 C9849 1.387 . S
H9847 C9843 0.950 . S
H9848 C9845 0.950 . S
C9849 C9840 1.390 . S
C9849 H9842 0.950 . S
C9849 C9846 1.387 . S
C9850 C9851 1.387 . S
C9850 H9854 0.950 . S
C9850 C9859 1.390 . S
C9851 C9850 1.387 . S
C9851 C9853 1.387 . S
H9852 C9859 0.950 . S
C9853 C9851 1.387 . S
C9853 C9855 1.390 . S
C9853 H9857 0.950 . S
H9854 C9850 0.950 . S
C9855 C9853 1.390 . S
C9855 C9856 1.387 . S
C9855 H9858 0.950 . S
C9856 C9855 1.387 . S
C9856 C9859 1.387 . S
H9857 C9853 0.950 . S
H9858 C9855 0.950 . S
C9859 C9850 1.390 . S
C9859 H9852 0.950 . S
C9859 C9856 1.387 . S
C9860 C9861 1.387 . S
C9860 H9864 0.950 . S
C9860 C9869 1.390 . S
C9861 C9860 1.387 . S
C9861 C9863 1.387 . S
H9862 C9869 0.950 . S
C9863 C9861 1.387 . S
C9863 C9865 1.390 . S
C9863 H9867 0.950 . S
H9864 C9860 0.950 . S
C9865 C9863 1.390 . S
C9865 C9866 1.387 . S
C9865 H9868 0.950 . S
C9866 C9865 1.387 . S
C9866 C9869 1.387 . S
H9867 C9863 0.950 . S
H9868 C9865 0.950 . S
C9869 C9860 1.390 . S
C9869 H9862 0.950 . S
C9869 C9866 1.387 . S
C9870 C9871 1.387 . S
C9870 H9874 0.950 . S
C9870 C9879 1.390 . S
C9871 C9870 1.387 . S
C9871 C9873 1.387 . S
H9872 C9879 0.950 . S
C9873 C9871 1.387 . S
C9873 C9875 1.390 . S
C9873 H9877 0.950 . S
H9874 C9870 0.950 . S
C9875 C9873 1.390 . S
C9875 C9876 1.387 . S
C9875 H9878 0.950 . S
C9876 C9875 1.387 . S
C9876 C9879 1.387 . S
H9877 C9873 0.950 . S
H9878 C9875 0.950 . S
C9879 C9870 1.390 . S
C9879 H9872 0.950 . S
C9879 C9876 1.387 . S
C9880 C9881 1.387 . S
C9880 H9884 0.950 . S
C9880 C9889 1.390 . S
C9881 C9880 1.387 . S
C9881 C9883 1.387 . S
H9882 C9889 0.950 . S
C9883 C9881 1.387 . S
C9883 C9885 1.390 . S
C9883 H9887 0.950 . S
H9884 C9880 0.950 . S
C9885 C9883 1.390 . S
C9885 C9886 1.387 . S
C9885 H9888 0.950 . S
C9886 C9885 1.387 . S
C9886 C9889 1.387 . S
H9887 C9883 0.950 . S
H9888 C9885 0.950 . S
C9889 C9880 1.390 . S
C9889 H9882 0.950 . S
C9889 C9886 1.387 . S
C9890 C9891 1.387 . S
C9890 H9894 0.950 . S
C9890 C9899 1.390 . S
C9891 C9890 1.387 . S
C9891 C9893 1.387 . S
H9892 C9899 0.950 . S
C9893 C9891 1.387 . S
C9893 C9895 1.390 . S
C9893 H9897 0.950 . S
H9894 C9890 0.950 . S
C9895 C9893 1.390 . S
C9895 C9896 1.387 . S
C9895 H9898 0.950 . S
C9896 C9895 1.387 . S
C9896 C9899 1.387 . S
H9897 C9893 0.950 . S
H9898 C9895 0.950 . S
C9899 C9890 1.390 . S
C9899 H9892 0.950 . S
C9899 C9896 1.387 . S
C9900 C9901 1.387 . S
C9900 H9904 0.950 . S
C9900 C9909 1.390 . S
C9901 C9900 1.387 . S
C9901 C9903 1.387 . S
H9902 C9909 0.950 . S
C9903 C9901 1.387 . S
C9903 C9905 1.390 . S
C9903 H9907 0.950 . S
H9904 C9900 0.950 . S
C9905 C9903 1.390 . S
C9905 C9906 1.387 . S
C9905 H9908 0.950 . S
C9906 C9905 1.387 . S
C9906 C9909 1.387 . S
H9907 C9903 0.950 . S
H9908 C9905 0.950 . S
C9909 C9900 1.390 . S
C9909 H9902 0.950 . S
C9909 C9906 1.387 . S
C9910 C9911 1.387 . S
C9910 H9914 0.950 . S
C9910 C9919 1.390 . S
C9911 C9910 1.387 . S
C9911 C9913 1.387 . S
H9912 C9919 0.950 . S
C9913 C9911 1.387 . S
C9913 C9915 1.390 . S
C9913 H9917 0.950 . S
H9914 C9910 0.950 . S
C9915 C9913 1.390 . S
C9915 C9916 1.387 . S
C9915 H9918 0.950 . S
C9916 C9915 1.387 . S
C9916 C9919 1.387 . S
H9917 C9913 0.950 . S
H9918 C9915 0.950 . S
C9919 C9910 1.390 . S
C9919 H9912 0.950 . S
C9919 C9916 1.387 . S
C9920 C9921 1.387 . S
C9920 H9924 0.950 . S
C9920 C9929 1.390 . S
C9921 C9920 1.387 . S
C9921 C9923 1.387 . S
H9922 C9929 0.950 . S
C9923 C9921 1.387 . S
C9923 C9925 1.390 . S
C9923 H9927 0.950 . S
H9924 C9920 0.950 . S
C9925 C9923 1.390 . S
C9925 C9926 1.387 . S
C9925 H9928 0.950 . S
C9926 C9925 1.387 . S
C9926 C9929 1.387 . S
H9927 C9923 0.950 . S
H9928 C9925 0.950 . S
C9929 C9920 1.390 . S
C9929 H9922 0.950 . S
C9929 C9926 1.387 . S
C9930 C9931 1.387 . S
C9930 H9934 0.950 . S
C9930 C9939 1.390 . S
C9931 C9930 1.387 . S
C9931 C9933 1.387 . S
H9932 C9939 0.950 . S
C9933 C9931 1.387 . S
C9933 C9935 1.390 . S
C9933 H9937 0.950 . S
H9934 C9930 0.950 . S
C9935 C9933 1.390 . S
C9935 C9936 1.387 . S
C9935 H9938 0.950 . S
C9936 C9935 1.387 . S
C9936 C9939 1.387 . S
H9937 C9933 0.950 . S
H9938 C9935 0.950 . S
C9939 C9930 1.390 . S
C9939 H9932 0.950 . S
C9939 C9936 1.387 . S
C9940 C9941 1.387 . S
C9940 H9944 0.950 . S
C9940 C9949 1.390 . S
C9941 C9940 1.387 . S
C9941 C9943 1.387 . S
H9942 C9949 0.950 . S
C9943 C9941 1.387 . S
C9943 C9945 1.390 . S
C9943 H9947 0.950 . S
H9944 C9940 0.950 . S
C9945 C9943 1.390 . S
C9945 C9946 1.387 . S
C9945 H9948 0.950 . S
C9946 C9945 1.387 . S
C9946 C9949 1.387 . S
H9947 C9943 0.950 . S
H9948 C9945 0.950 . S
C9949 C9940 1.390 . S
C9949 H9942 0.950 . S
C9949 C9946 1.387 . S
C9950 C9951 1.387 . S
C9950 H9954 0.950 . S
C9950 C9959 1.390 . S
C9951 C9950 1.387 . S
C9951 C9953 1.387 . S
H9952 C9959 0.950 . S
C9953 C9951 1.387 . S
C9953 C9955 1.390 . S
C9953 H9957 0.950 . S
H9954 C9950 0.950 . S
C9955 C9953 1.390 . S
C9955 C9956 1.387 . S
C9955 H9958 0.950 . S
C9956 C9955 1.387 . S
C9956 C9959 1.387 . S
H9957 C9953 0.950 . S
H9958 C9955 0.950 . S
C9959 C9950 1.390 . S
C9959 H9952 0.950 . S
C9959 C9956 1.387 . S
C9960 C9961 1.387 . S
C9960 H9964 0.950 . S
C9960 C9969 1.390 . S
C9961 C9960 1.387 . S
C9961 C9963 1.387 . S
H9962 C9969 0.950 . S
C9963 C9961 1.387 . S
C9963 C9965 1.390 . S
C9963 H9967 0.950 . S
H9964 C9960 0.950 . S
C9965 C9963 1.390 . S
C9965 C9966 1.387 . S
C9965 H9968 0.950 . S
C9966 C9965 1.387 . S
C9966 C9969 1.387 . S
H9967 C9963 0.950 . S
H9968 C9965 0.950 . S
C9969 C9960 1.390 . S
C9969 H9962 0.950 . S
C9969 C9966 1.387 . S
C9970 C9971 1.387 . S
C9970 H9974 0.950 . S
C9970 C9979 1.390 . S
C9971 C9970 1.387 . S
C9971 C9973 1.387 . S
H9972 C9979 0.950 . S
C9973 C9971 1.387 . S
C9973 C9975 1.390 . S
C9973 H9977 0.950 . S
H9974 C9970 0.950 . S
C9975 C9973 1.390 . S
C9975 C9976 1.387 . S
C9975 H9978 0.950 . S
C9976 C9975 1.387 . S
C9976 C9979 1.387 . S
H9977 C9973 0.950 . S
H9978 C9975 0.950 . S
C9979 C9970 1.390 . S
C9979 H9972 0.950 . S
C9979 C9976 1.387 . S
C9980 C9981 1.387 . S
C9980 H9984 0.950 . S
C9980 C9989 1.390 . S
C9981 C9980 1.387 . S
C9981 C9983 1.387 . S
H9982 C9989 0.950 . S
C9983 C9981 1.387 . S
C9983 C9985 1.390 . S
C9983 H9987 0.950 . S
H9984 C9980 0.950 . S
C9985 C9983 1.390 . S
C9985 C9986 1.387 . S
C9985 H9988 0.950 . S
C9986 C9985 1.387 . S
C9986 C9989 1.387 . S
H9987 C9983 0.950 . S
H9988 C9985 0.950 . S
C9989 C9980 1.390 . S
C9989 H9982 0.950 . S
C9989 C9986 1.387 . S
C9990 C9991 1.387 . S
C9990 H9994 0.950 . S
C9990 C9999 1.390 . S
C9991 C9990 1.387 . S
C9991 C9993 1.387 . S
H9992 C9999 0.950 . S
C9993 C9991 1.387 . S
C9993 C9995 1.390 . S
C9993 H9997 0.950 . S
H9994 C9990 0.950 . S
C9995 C9993 1.390 . S
C9995 C9996 1.387 . S
C9995 H9998 0.950 . S
C9996 C9995 1.387 . S
C9996 C9999 1.387 . S
H9997 C9993 0.950 . S
H9998 C9995 0.950 . S
C9999 C9990 1.390 . S
C9999 H9992 0.950 . S
C9999 C9996 1.387 . S
C10000 C10001 1.387 . S
C10000 H10004 0.950 . S
C10000 C10009 1.390 . S
C10001 C10000 1.387 . S
C10001 C10003 1.387 . S
H10002 C10009 0.950 . S
C10003 C10001 1.387 . S
C10003 C10005 1.390 . S
C10003 H10007 0.950 . S
H10004 C10000 0.950 . S
C10005 C10003 1.390 . S
C10005 C10006 1.387 . S
C10005 H10008 0.950 . S
C10006 C10005 1.387 . S
C10006 C10009 1.387 . S
H10007 C10003 0.950 . S
H10008 C10005 0.950 . S
C10009 C10000 1.390 . S
C10009 H10002 0.950 . S
C10009 C10006 1.387 . S
C10010 C10011 1.387 . S
C10010 H10014 0.950 . S
C10010 C10019 1.390 . S
C10011 C10010 1.387 . S
C10011 C10013 1.387 . S
H10012 C10019 0.950 . S
C10013 C10011 1.387 . S
C10013 C10015 1.390 . S
C10013 H10017 0.950 . S
H10014 C10010 0.950 . S
C10015 C10013 1.390 . S
C10015 C10016 1.387 . S
C10015 H10018 0.950 . S
C10016 C10015 1.387 . S
C10016 C10019 1.387 . S
H10017 C10013 0.950 . S
H10018 C10015 0.950 . S
C10019 C10010 1.390 . S
C10019 H10012 0.950 . S
C10019 C10016 1.387 . S
C10020 C10021 1.387 . S
C10020 H10024 0.950 . S
C10020 C10029 1.390 . S
C10021 C10020 1.387 . S
C10021 C10023 1.387 . S
H10022 C10029 0.950 . S
C10023 C10021 1.387 . S
C10023 C10025 1.390 . S
C10023 H10027 0.950 . S
H10024 C10020 0.950 . S
C10025 C10023 1.390 . S
C10025 C10026 1.387 . S
C10025 H10028 0.950 . S
C10026 C10025 1.387 . S
C10026 C10029 1.387 . S
H10027 C10023 0.950 . S
H10028 C10025 0.950 . S
C10029 C10020 1.390 . S
C10029 H10022 0.950 . S
C10029 C10026 1.387 . S
C10030 C10031 1.387 . S
C10030 H10034 0.950 . S
C10030 C10039 1.390 . S
C10031 C10030 1.387 . S
C10031 C10033 1.387 . S
H10032 C10039 0.950 . S
C10033 C10031 1.387 . S
C10033 C10035 1.390 . S
C10033 H10037 0.950 . S
H10034 C10030 0.950 . S
C10035 C10033 1.390 . S
C10035 C10036 1.387 . S
C10035 H10038 0.950 . S
C10036 C10035 1.387 . S
C10036 C10039 1.387 . S
H10037 C10033 0.950 . S
H10038 C10035 0.950 . S
C10039 C10030 1.390 . S
C10039 H10032 0.950 . S
C10039 C10036 1.387 . S
C10040 C10041 1.387 . S
C10040 H10044 0.950 . S
C10040 C10049 1.390 . S
C10041 C10040 1.387 . S
C10041 C10043 1.387 . S
H10042 C10049 0.950 . S
C10043 C10041 1.387 . S
C10043 C10045 1.390 . S
C10043 H10047 0.950 . S
H10044 C10040 0.950 . S
C10045 C10043 1.390 . S
C10045 C10046 1.387 . S
C10045 H10048 0.950 . S
C10046 C10045 1.387 . S
C10046 C10049 1.387 . S
H10047 C10043 0.950 . S
H10048 C10045 0.950 . S
C10049 C10040 1.390 . S
C10049 H10042 0.950 . S
C10049 C10046 1.387 . S
C10050 C10051 1.387 . S
C10050 H10054 0.950 . S
C10050 C10059 1.390 . S
C10051 C10050 1.387 . S
C10051 C10053 1.387 . S
H10052 C10059 0.950 . S
C10053 C10051 1.387 . S
C10053 C10055 1.390 . S
C10053 H10057 0.950 . S
H10054 C10050 0.950 . S
C10055 C10053 1.390 . S
C10055 C10056 1.387 . S
C10055 H10058 0.950 . S
C10056 C10055 1.387 . S
C10056 C10059 1.387 . S
H10057 C10053 0.950 . S
H10058 C10055 0.950 . S
C10059 C10050 1.390 . S
C10059 H10052 0.950 . S
C10059 C10056 1.387 . S
C10060 C10061 1.387 . S
C10060 H10064 0.950 . S
C10060 C10069 1.390 . S
C10061 C10060 1.387 . S
C10061 C10063 1.387 . S
H10062 C10069 0.950 . S
C10063 C10061 1.387 . S
C10063 C10065 1.390 . S
C10063 H10067 0.950 . S
H10064 C10060 0.950 . S
C10065 C10063 1.390 . S
C10065 C10066 1.387 . S
C10065 H10068 0.950 . S
C10066 C10065 1.387 . S
C10066 C10069 1.387 . S
H10067 C10063 0.950 . S
H10068 C10065 0.950 . S
C10069 C10060 1.390 . S
C10069 H10062 0.950 . S
C10069 C10066 1.387 . S
C10070 C10071 1.387 . S
C10070 H10074 0.950 . S
C10070 C10079 1.390 . S
C10071 C10070 1.387 . S
C10071 C10073 1.387 . S
H10072 C10079 0.950 . S
C10073 C10071 1.387 . S
C10073 C10075 1.390 . S
C10073 H10077 0.950 . S
H10074 C10070 0.950 . S
C10075 C10073 1.390 . S
C10075 C10076 1.387 . S
C10075 H10078 0.950 . S
C10076 C10075 1.387 . S
C10076 C10079 1.387 . S
H10077 C10073 0.950 . S
H10078 C10075 0.950 . S
C10079 C10070 1.390 . S
C10079 H10072 0.950 . S
C10079 C10076 1.387 . S
C10080 C10081 1.387 . S
C10080 H10084 0.950 . S
C10080 C10089 1.390 . S
C10081 C10080 1.387 . S
C10081 C10083 1.387 . S
H10082 C10089 0.950 . S
C10083 C10081 1.387 . S
C10083 C10085 1.390 . S
C10083 H10087 0.950 . S
H10084 C10080 0.950 . S
C10085 C10083 1.390 . S
C10085 C10086 1.387 . S
C10085 H10088 0.950 . S
C10086 C10085 1.387 . S
C10086 C10089 1.387 . S
H10087 C10083 0.950 . S
H10088 C10085 0.950 . S
C10089 C10080 1.390 . S
C10089 H10082 0.950 . S
C10089 C10086 1.387 . S
C10090 C10091 1.387 . S
C10090 H10094 0.950 . S
C10090 C10099 1.390 . S
C10091 C10090 1.387 . S
C10091 C10093 1.387 . S
H10092 C10099 0.950 . S
C10093 C10091 1.387 . S
C10093 C10095 1.390 . S
C10093 H10097 0.950 . S
H10094 C10090 0.950 . S
C10095 C10093 1.390 . S
C10095 C10096 1.387 . S
C10095 H10098 0.950 . S
C10096 C10095 1.387 . S
C10096 C10099 1.387 . S
H10097 C10093 0.950 . S
H10098 C10095 0.950 . S
C10099 C10090 1.390 . S
C10099 H10092 0.950 . S
C10099 C10096 1.387 . S
C10100 C10101 1.387 . S
C10100 H10104 0.950 . S
C10100 C10109 1.390 . S
C10101 C10100 1.387 . S
C10101 C10103 1.387 . S
H10102 C10109 0.950 . S
C10103 C10101 1.387 . S
C10103 C10105 1.390 . S
C10103 H10107 0.950 . S
H10104 C10100 0.950 . S
C10105 C10103 1.390 . S
C10105 C10106 1.387 . S
C10105 H10108 0.950 . S
C10106 C10105 1.387 . S
C10106 C10109 1.387 . S
H10107 C10103 0.950 . S
H10108 C10105 0.950 . S
C10109 C10100 1.390 . S
C10109 H10102 0.950 . S
C10109 C10106 1.387 . S
C10110 C10111 1.387 . S
C10110 H10114 0.950 . S
C10110 C10119 1.390 . S
C10111 C10110 1.387 . S
C10111 C10113 1.387 . S
H10112 C10119 0.950 . S
C10113 C10111 1.387 . S
C10113 C10115 1.390 . S
C10113 H10117 0.950 . S
H10114 C10110 0.950 . S
C10115 C10113 1.390 . S
C10115 C10116 1.387 . S
C10115 H10118 0.950 . S
C10116 C10115 1.387 . S
C10116 C10119 1.387 . S
H10117 C10113 0.950 . S
H10118 C10115 0.950 . S
C10119 C10110 1.390 . S
C10119 H10112 0.950 . S
C10119 C10116 1.387 . S
C10120 C10121 1.387 . S
C10120 H10124 0.950 . S
C10120 C10129 1.390 . S
C10121 C10120 1.387 . S
C10121 C10123 1.387 . S
H10122 C10129 0.950 . S
C10123 C10121 1.387 . S
C10123 C10125 1.390 . S
C10123 H10127 0.950 . S
H10124 C10120 0.950 . S
C10125 C10123 1.390 . S
C10125 C10126 1.387 . S
C10125 H10128 0.950 . S
C10126 C10125 1.387 . S
C10126 C10129 1.387 . S
H10127 C10123 0.950 . S
H10128 C10125 0.950 . S
C10129 C10120 1.390 . S
C10129 H10122 0.950 . S
C10129 C10126 1.387 . S
C10130 C10131 1.387 . S
C10130 H10134 0.950 . S
C10130 C10139 1.390 . S
C10131 C10130 1.387 . S
C10131 C10133 1.387 . S
H10132 C10139 0.950 . S
C10133 C10131 1.387 . S
C10133 C10135 1.390 . S
C10133 H10137 0.950 . S
H10134 C10130 0.950 . S
C10135 C10133 1.390 . S
C10135 C10136 1.387 . S
C10135 H10138 0.950 . S
C10136 C10135 1.387 . S
C10136 C10139 1.387 . S
H10137 C10133 0.950 . S
H10138 C10135 0.950 . S
C10139 C10130 1.390 . S
C10139 H10132 0.950 . S
C10139 C10136 1.387 . S
C10140 C10141 1.387 . S
C10140 H10144 0.950 . S
C10140 C10149 1.390 . S
C10141 C10140 1.387 . S
C10141 C10143 1.387 . S
H10142 C10149 0.950 . S
C10143 C10141 1.387 . S
C10143 C10145 1.390 . S
C10143 H10147 0.950 . S
H10144 C10140 0.950 . S
C10145 C10143 1.390 . S
C10145 C10146 1.387 . S
C10145 H10148 0.950 . S
C10146 C10145 1.387 . S
C10146 C10149 1.387 . S
H10147 C10143 0.950 . S
H10148 C10145 0.950 . S
C10149 C10140 1.390 . S
C10149 H10142 0.950 . S
C10149 C10146 1.387 . S
C10150 C10151 1.387 . S
C10150 H10154 0.950 . S
C10150 C10159 1.390 . S
C10151 C10150 1.387 . S
C10151 C10153 1.387 . S
H10152 C10159 0.950 . S
C10153 C10151 1.387 . S
C10153 C10155 1.390 . S
C10153 H10157 0.950 . S
H10154 C10150 0.950 . S
C10155 C10153 1.390 . S
C10155 C10156 1.387 . S
C10155 H10158 0.950 . S
C10156 C10155 1.387 . S
C10156 C10159 1.387 . S
H10157 C10153 0.950 . S
H10158 C10155 0.950 . S
C10159 C10150 1.390 . S
C10159 H10152 0.950 . S
C10159 C10156 1.387 . S
C10160 C10161 1.387 . S
C10160 H10164 0.950 . S
C10160 C10169 1.390 . S
C10161 C10160 1.387 . S
C10161 C10163 1.387 . S
H10162 C10169 0.950 . S
C10163 C10161 1.387 . S
C10163 C10165 1.390 . S
C10163 H10167 0.950 . S
H10164 C10160 0.950 . S
C10165 C10163 1.390 . S
C10165 C10166 1.387 . S
C10165 H10168 0.950 . S
C10166 C10165 1.387 . S
C10166 C10169 1.387 . S
H10167 C10163 0.950 . S
H10168 C10165 0.950 . S
C10169 C10160 1.390 . S
C10169 H10162 0.950 . S
C10169 C10166 1.387 . S
C10170 C10171 1.387 . S
C10170 H10174 0.950 . S
C10170 C10179 1.390 . S
C10171 C10170 1.387 . S
C10171 C10173 1.387 . S
H10172 C10179 0.950 . S
C10173 C10171 1.387 . S
C10173 C10175 1.390 . S
C10173 H10177 0.950 . S
H10174 C10170 0.950 . S
C10175 C10173 1.390 . S
C10175 C10176 1.387 . S
C10175 H10178 0.950 . S
C10176 C10175 1.387 . S
C10176 C10179 1.387 . S
H10177 C10173 0.950 . S
H10178 C10175 0.950 . S
C10179 C10170 1.390 . S
C10179 H10172 0.950 . S
C10179 C10176 1.387 . S
C10180 C10181 1.387 . S
C10180 H10184 0.950 . S
C10180 C10189 1.390 . S
C10181 C10180 1.387 . S
C10181 C10183 1.387 . S
H10182 C10189 0.950 . S
C10183 C10181 1.387 . S
C10183 C10185 1.390 . S
C10183 H10187 0.950 . S
H10184 C10180 0.950 . S
C10185 C10183 1.390 . S
C10185 C10186 1.387 . S
C10185 H10188 0.950 . S
C10186 C10185 1.387 . S
C10186 C10189 1.387 . S
H10187 C10183 0.950 . S
H10188 C10185 0.950 . S
C10189 C10180 1.390 . S
C10189 H10182 0.950 . S
C10189 C10186 1.387 . S
C10190 C10191 1.387 . S
C10190 H10194 0.950 . S
C10190 C10199 1.390 . S
C10191 C10190 1.387 . S
C10191 C10193 1.387 . S
H10192 C10199 0.950 . S
C10193 C10191 1.387 . S
C10193 C10195 1.390 . S
C10193 H10197 0.950 . S
H10194 C10190 0.950 . S
C10195 C10193 1.390 . S
C10195 C10196 1.387 . S
C10195 H10198 0.950 . S
C10196 C10195 1.387 . S
C10196 C10199 1.387 . S
H10197 C10193 0.950 . S
H10198 C10195 0.950 . S
C10199 C10190 1.390 . S
C10199 H10192 0.950 . S
C10199 C10196 1.387 . S
C10200 C10201 1.387 . S
C10200 H10204 0.950 . S
C10200 C10209 1.390 . S
C10201 C10200 1.387 . S
C10201 C10203 1.387 . S
H10202 C10209 0.950 . S
C10203 C10201 1.387 . S
C10203 C10205 1.390 . S
C10203 H10207 0.950 . S
H10204 C10200 0.950 . S
C10205 C10203 1.390 . S
C10205 C10206 1.387 . S
C10205 H10208 0.950 . S
C10206 C10205 1.387 . S
C10206 C10209 1.387 . S
H10207 C10203 0.950 . S
H10208 C10205 0.950 . S
C10209 C10200 1.390 . S
C10209 H10202 0.950 . S
C10209 C10206 1.387 . S
C10210 C10211 1.387 . S
C10210 H10214 0.950 . S
C10210 C10219 1.390 . S
C10211 C10210 1.387 . S
C10211 C10213 1.387 . S
H10212 C10219 0.950 . S
C10213 C10211 1.387 . S
C10213 C10215 1.390 . S
C10213 H10217 0.950 . S
H10214 C10210 0.950 . S
C10215 C10213 1.390 . S
C10215 C10216 1.387 . S
C10215 H10218 0.950 . S
C10216 C10215 1.387 . S
C10216 C10219 1.387 . S
H10217 C10213 0.950 . S
H10218 C10215 0.950 . S
C10219 C10210 1.390 . S
C10219 H10212 0.950 . S
C10219 C10216 1.387 . S
C10220 C10221 1.387 . S
C10220 H10224 0.950 . S
C10220 C10229 1.390 . S
C10221 C10220 1.387 . S
C10221 C10223 1.387 . S
H10222 C10229 0.950 . S
C10223 C10221 1.387 . S
C10223 C10225 1.390 . S
C10223 H10227 0.950 . S
H10224 C10220 0.950 . S
C10225 C10223 1.390 . S
C10225 C10226 1.387 . S
C10225 H10228 0.950 . S
C10226 C10225 1.387 . S
C10226 C10229 1.387 . S
H10227 C10223 0.950 . S
H10228 C10225 0.950 . S
C10229 C10220 1.390 . S
C10229 H10222 0.950 . S
C10229 C10226 1.387 . S
C10230 C10231 1.387 . S
C10230 H10234 0.950 . S
C10230 C10239 1.390 . S
C10231 C10230 1.387 . S
C10231 C10233 1.387 . S
H10232 C10239 0.950 . S
C10233 C10231 1.387 . S
C10233 C10235 1.390 . S
C10233 H10237 0.950 . S
H10234 C10230 0.950 . S
C10235 C10233 1.390 . S
C10235 C10236 1.387 . S
C10235 H10238 0.950 . S
C10236 C10235 1.387 . S
C10236 C10239 1.387 . S
H10237 C10233 0.950 . S
H10238 C10235 0.950 . S
C10239 C10230 1.390 . S
C10239 H10232 0.950 . S
C10239 C10236 1.387 . S
C10240 C10241 1.387 . S
C10240 H10244 0.950 . S
C10240 C10249 1.390 . S
C10241 C10240 1.387 . S
C10241 C10243 1.387 . S
H10242 C10249 0.950 . S
C10243 C10241 1.387 . S
C10243 C10245 1.390 . S
C10243 H10247 0.950 . S
H10244 C10240 0.950 . S
C10245 C10243 1.390 . S
C10245 C10246 1.387 . S
C10245 H10248 0.950 . S
C10246 C10245 1.387 . S
C10246 C10249 1.387 . S
H10247 C10243 0.950 . S
H10248 C10245 0.950 . S
C10249 C10240 1.390 . S
C10249 H10242 0.950 . S
C10249 C10246 1.387 . S
C10250 C10251 1.387 . S
C10250 H10254 0.950 . S
C10250 C10259 1.390 . S
C10251 C10250 1.387 . S
C10251 C10253 1.387 . S
H10252 C10259 0.950 . S
C10253 C10251 1.387 . S
C10253 C10255 1.390 . S
C10253 H10257 0.950 . S
H10254 C10250 0.950 . S
C10255 C10253 1.390 . S
C10255 C10256 1.387 . S
C10255 H10258 0.950 . S
C10256 C10255 1.387 . S
C10256 C10259 1.387 . S
H10257 C10253 0.950 . S
H10258 C10255 0.950 . S
C10259 C10250 1.390 . S
C10259 H10252 0.950 . S
C10259 C10256 1.387 . S
C10260 C10261 1.387 . S
C10260 H10264 0.950 . S
C10260 C10269 1.390 . S
C10261 C10260 1.387 . S
C10261 C10263 1.387 . S
H10262 C10269 0.950 . S
C10263 C10261 1.387 . S
C10263 C10265 1.390 . S
C10263 H10267 0.950 . S
H10264 C10260 0.950 . S
C10265 C10263 1.390 . S
C10265 C10266 1.387 . S
C10265 H10268 0.950 . S
C10266 C10265 1.387 . S
C10266 C10269 1.387 . S
H10267 C10263 0.950 . S
H10268 C10265 0.950 . S
C10269 C10260 1.390 . S
C10269 H10262 0.950 . S
C10269 C10266 1.387 . S
C10270 C10271 1.387 . S
C10270 H10274 0.950 . S
C10270 C10279 1.390 . S
C10271 C10270 1.387 . S
C10271 C10273 1.387 . S
H10272 C10279 0.950 . S
C10273 C10271 1.387 . S
C10273 C10275 1.390 . S
C10273 H10277 0.950 . S
H10274 C10270 0.950 . S
C10275 C10273 1.390 . S
C10275 C10276 1.387 . S
C10275 H10278 0.950 . S
C10276 C10275 1.387 . S
C10276 C10279 1.387 . S
H10277 C10273 0.950 . S
H10278 C10275 0.950 . S
C10279 C10270 1.390 . S
C10279 H10272 0.950 . S
C10279 C10276 1.387 . S
C10280 C10281 1.387 . S
C10280 H10284 0.950 . S
C10280 C10289 1.390 . S
C10281 C10280 1.387 . S
C10281 C10283 1.387 . S
H10282 C10289 0.950 . S
C10283 C10281 1.387 . S
C10283 C10285 1.390 . S
C10283 H10287 0.950 . S
H10284 C10280 0.950 . S
C10285 C10283 1.390 . S
C10285 C10286 1.387 . S
C10285 H10288 0.950 . S
C10286 C10285 1.387 . S
C10286 C10289 1.387 . S
H10287 C10283 0.950 . S
H10288 C10285 0.950 . S
C10289 C10280 1.390 . S
C10289 H10282 0.950 . S
C10289 C10286 1.387 . S
C10290 C10291 1.387 . S
C10290 H10294 0.950 . S
C10290 C10299 1.390 . S
C10291 C10290 1.387 . S
C10291 C10293 1.387 . S
H10292 C10299 0.950 . S
C10293 C10291 1.387 . S
C10293 C10295 1.390 . S
C10293 H10297 0.950 . S
H10294 C10290 0.950 . S
C10295 C10293 1.390 . S
C10295 C10296 1.387 . S
C10295 H10298 0.950 . S
C10296 C10295 1.387 . S
C10296 C10299 1.387 . S
H10297 C10293 0.950 . S
H10298 C10295 0.950 . S
C10299 C10290 1.390 . S
C10299 H10292 0.950 . S
C10299 C10296 1.387 . S
C10300 C10301 1.387 . S
C10300 H10304 0.950 . S
C10300 C10309 1.390 . S
C10301 C10300 1.387 . S
C10301 C10303 1.387 . S
H10302 C10309 0.950 . S
C10303 C10301 1.387 . S
C10303 C10305 1.390 . S
C10303 H10307 0.950 . S
H10304 C10300 0.950 . S
C10305 C10303 1.390 . S
C10305 C10306 1.387 . S
C10305 H10308 0.950 . S
C10306 C10305 1.387 . S
C10306 C10309 1.387 . S
H10307 C10303 0.950 . S
H10308 C10305 0.950 . S
C10309 C10300 1.390 . S
C10309 H10302 0.950 . S
C10309 C10306 1.387 . S
C10310 C10311 1.387 . S
C10310 H10314 0.950 . S
C10310 C10319 1.390 . S
C10311 C10310 1.387 . S
C10311 C10313 1.387 . S
H10312 C10319 0.950 . S
C10313 C10311 1.387 . S
C10313 C10315 1.390 . S
C10313 H10317 0.950 . S
H10314 C10310 0.950 . S
C10315 C10313 1.390 . S
C10315 C10316 1.387 . S
C10315 H10318 0.950 . S
C10316 C10315 1.387 . S
C10316 C10319 1.387 . S
H10317 C10313 0.950 . S
H10318 C10315 0.950 . S
C10319 C10310 1.390 . S
C10319 H10312 0.950 . S
C10319 C10316 1.387 . S
C10320 C10321 1.387 . S
C10320 H10324 0.950 . S
C10320 C10329 1.390 . S
C10321 C10320 1.387 . S
C10321 C10323 1.387 . S
H10322 C10329 0.950 . S
C10323 C10321 1.387 . S
C10323 C10325 1.390 . S
C10323 H10327 0.950 . S
H10324 C10320 0.950 . S
C10325 C10323 1.390 . S
C10325 C10326 1.387 . S
C10325 H10328 0.950 . S
C10326 C10325 1.387 . S
C10326 C10329 1.387 . S
H10327 C10323 0.950 . S
H10328 C10325 0.950 . S
C10329 C10320 1.390 . S
C10329 H10322 0.950 . S
C10329 C10326 1.387 . S
C10330 C10331 1.387 . S
C10330 H10334 0.950 . S
C10330 C10339 1.390 . S
C10331 C10330 1.387 . S
C10331 C10333 1.387 . S
H10332 C10339 0.950 . S
C10333 C10331 1.387 . S
C10333 C10335 1.390 . S
C10333 H10337 0.950 . S
H10334 C10330 0.950 . S
C10335 C10333 1.390 . S
C10335 C10336 1.387 . S
C10335 H10338 0.950 . S
C10336 C10335 1.387 . S
C10336 C10339 1.387 . S
H10337 C10333 0.950 . S
H10338 C10335 0.950 . S
C10339 C10330 1.390 . S
C10339 H10332 0.950 . S
C10339 C10336 1.387 . S
C10340 C10341 1.387 . S
C10340 H10344 0.950 . S
C10340 C10349 1.390 . S
C10341 C10340 1.387 . S
C10341 C10343 1.387 . S
H10342 C10349 0.950 . S
C10343 C10341 1.387 . S
C10343 C10345 1.390 . S
C10343 H10347 0.950 . S
H10344 C10340 0.950 . S
C10345 C10343 1.390 . S
C10345 C10346 1.387 . S
C10345 H10348 0.950 . S
C10346 C10345 1.387 . S
C10346 C10349 1.387 . S
H10347 C10343 0.950 . S
H10348 C10345 0.950 . S
C10349 C10340 1.390 . S
C10349 H10342 0.950 . S
C10349 C10346 1.387 . S
C10350 C10351 1.387 . S
C10350 H10354 0.950 . S
C10350 C10359 1.390 . S
C10351 C10350 1.387 . S
C10351 C10353 1.387 . S
H10352 C10359 0.950 . S
C10353 C10351 1.387 . S
C10353 C10355 1.390 . S
C10353 H10357 0.950 . S
H10354 C10350 0.950 . S
C10355 C10353 1.390 . S
C10355 C10356 1.387 . S
C10355 H10358 0.950 . S
C10356 C10355 1.387 . S
C10356 C10359 1.387 . S
H10357 C10353 0.950 . S
H10358 C10355 0.950 . S
C10359 C10350 1.390 . S
C10359 H10352 0.950 . S
C10359 C10356 1.387 . S
C10360 C10361 1.387 . S
C10360 H10364 0.950 . S
C10360 C10369 1.390 . S
C10361 C10360 1.387 . S
C10361 C10363 1.387 . S
H10362 C10369 0.950 . S
C10363 C10361 1.387 . S
C10363 C10365 1.390 . S
C10363 H10367 0.950 . S
H10364 C10360 0.950 . S
C10365 C10363 1.390 . S
C10365 C10366 1.387 . S
C10365 H10368 0.950 . S
C10366 C10365 1.387 . S
C10366 C10369 1.387 . S
H10367 C10363 0.950 . S
H10368 C10365 0.950 . S
C10369 C10360 1.390 . S
C10369 H10362 0.950 . S
C10369 C10366 1.387 . S
C10370 C10371 1.387 . S
C10370 H10374 0.950 . S
C10370 C10379 1.390 . S
C10371 C10370 1.387 . S
C10371 C10373 1.387 . S
H10372 C10379 0.950 . S
C10373 C10371 1.387 . S
C10373 C10375 1.390 . S
C10373 H10377 0.950 . S
H10374 C10370 0.950 . S
C10375 C10373 1.390 . S
C10375 C10376 1.387 . S
C10375 H10378 0.950 . S
C10376 C10375 1.387 . S
C10376 C10379 1.387 . S
H10377 C10373 0.950 . S
H10378 C10375 0.950 . S
C10379 C10370 1.390 . S
C10379 H10372 0.950 . S
C10379 C10376 1.387 . S
C10380 C10381 1.387 . S
C10380 H10384 0.950 . S
C10380 C10389 1.390 . S
C10381 C10380 1.387 . S
C10381 C10383 1.387 . S
H10382 C10389 0.950 . S
C10383 C10381 1.387 . S
C10383 C10385 1.390 . S
C10383 H10387 0.950 . S
H10384 C10380 0.950 . S
C10385 C10383 1.390 . S
C10385 C10386 1.387 . S
C10385 H10388 0.950 . S
C10386 C10385 1.387 . S
C10386 C10389 1.387 . S
H10387 C10383 0.950 . S
H10388 C10385 0.950 . S
C10389 C10380 1.390 . S
C10389 H10382 0.950 . S
C10389 C10386 1.387 . S
C10390 C10391 1.387 . S
C10390 H10394 0.950 . S
C10390 C10399 1.390 . S
C10391 C10390 1.387 . S
C10391 C10393 1.387 . S
H10392 C10399 0.950 . S
C10393 C10391 1.387 . S
C10393 C10395 1.390 . S
C10393 H10397 0.950 . S
H10394 C10390 0.950 . S
C10395 C10393 1.390 . S
C10395 C10396 1.387 . S
C10395 H10398 0.950 . S
C10396 C10395 1.387 . S
C10396 C10399 1.387 . S
H10397 C10393 0.950 . S
H10398 C10395 0.950 . S
C10399 C10390 1.390 . S
C10399 H10392 0.950 . S
C10399 C10396 1.387 . S
C10400 C10401 1.387 . S
C10400 H10404 0.950 . S
C10400 C10409 1.390 . S
C10401 C10400 1.387 . S
C10401 C10403 1.387 . S
H10402 C10409 0.950 . S
C10403 C10401 1.387 . S
C10403 C10405 1.390 . S
C10403 H10407 0.950 . S
H10404 C10400 0.950 . S
C10405 C10403 1.390 . S
C10405 C10406 1.387 . S
C10405 H10408 0.950 . S
C10406 C10405 1.387 . S
C10406 C10409 1.387 . S
H10407 C10403 0.950 . S
H10408 C10405 0.950 . S
C10409 C10400 1.390 . S
C10409 H10402 0.950 . S
C10409 C10406 1.387 . S
C10410 C10411 1.387 . S
C10410 H10414 0.950 . S
C10410 C10419 1.390 . S
C10411 C10410 1.387 . S
C10411 C10413 1.387 . S
H10412 C10419 0.950 . S
C10413 C10411 1.387 . S
C10413 C10415 1.390 . S
C10413 H10417 0.950 . S
H10414 C10410 0.950 . S
C10415 C10413 1.390 . S
C10415 C10416 1.387 . S
C10415 H10418 0.950 . S
C10416 C10415 1.387 . S
C10416 C10419 1.387 . S
H10417 C10413 0.950 . S
H10418 C10415 0.950 . S
C10419 C10410 1.390 . S
C10419 H10412 0.950 . S
C10419 C10416 1.387 . S
C10420 C10421 1.387 . S
C10420 H10424 0.950 . S
C10420 C10429 1.390 . S
C10421 C10420 1.387 . S
C10421 C10423 1.387 . S
H10422 C10429 0.950 . S
C10423 C10421 1.387 . S
C10423 C10425 1.390 . S
C10423 H10427 0.950 . S
H10424 C10420 0.950 . S
C10425 C10423 1.390 . S
C10425 C10426 1.387 . S
C10425 H10428 0.950 . S
C10426 C10425 1.387 . S
C10426 C10429 1.387 . S
H10427 C10423 0.950 . S
H10428 C10425 0.950 . S
C10429 C10420 1.390 . S
C10429 H10422 0.950 . S
C10429 C10426 1.387 . S
C10430 C10431 1.387 . S
C10430 H10434 0.950 . S
C10430 C10439 1.390 . S
C10431 C10430 1.387 . S
C10431 C10433 1.387 . S
H10432 C10439 0.950 . S
C10433 C10431 1.387 . S
C10433 C10435 1.390 . S
C10433 H10437 0.950 . S
H10434 C10430 0.950 . S
C10435 C10433 1.390 . S
C10435 C10436 1.387 . S
C10435 H10438 0.950 . S
C10436 C10435 1.387 . S
C10436 C10439 1.387 . S
H10437 C10433 0.950 . S
H10438 C10435 0.950 . S
C10439 C10430 1.390 . S
C10439 H10432 0.950 . S
C10439 C10436 1.387 . S
C10440 C10441 1.387 . S
C10440 H10444 0.950 . S
C10440 C10449 1.390 . S
C10441 C10440 1.387 . S
C10441 C10443 1.387 . S
H10442 C10449 0.950 . S
C10443 C10441 1.387 . S
C10443 C10445 1.390 . S
C10443 H10447 0.950 . S
H10444 C10440 0.950 . S
C10445 C10443 1.390 . S
C10445 C10446 1.387 . S
C10445 H10448 0.950 . S
C10446 C10445 1.387 . S
C10446 C10449 1.387 . S
H10447 C10443 0.950 . S
H10448 C10445 0.950 . S
C10449 C10440 1.390 . S
C10449 H10442 0.950 . S
C10449 C10446 1.387 . S
C10450 C10451 1.387 . S
C10450 H10454 0.950 . S
C10450 C10459 1.390 . S
C10451 C10450 1.387 . S
C10451 C10453 1.387 . S
H10452 C10459 0.950 . S
C10453 C10451 1.387 . S
C10453 C10455 1.390 . S
C10453 H10457 0.950 . S
H10454 C10450 0.950 . S
C10455 C10453 1.390 . S
C10455 C10456 1.387 . S
C10455 H10458 0.950 . S
C10456 C10455 1.387 . S
C10456 C10459 1.387 . S
H10457 C10453 0.950 . S
H10458 C10455 0.950 . S
C10459 C10450 1.390 . S
C10459 H10452 0.950 . S
C10459 C10456 1.387 . S
C10460 C10461 1.387 . S
C10460 H10464 0.950 . S
C10460 C10469 1.390 . S
C10461 C10460 1.387 . S
C10461 C10463 1.387 . S
H10462 C10469 0.950 . S
C10463 C10461 1.387 . S
C10463 C10465 1.390 . S
C10463 H10467 0.950 . S
H10464 C10460 0.950 . S
C10465 C10463 1.390 . S
C10465 C10466 1.387 . S
C10465 H10468 0.950 . S
C10466 C10465 1.387 . S
C10466 C10469 1.387 . S
H10467 C10463 0.950 . S
H10468 C10465 0.950 . S
C10469 C10460 1.390 . S
C10469 H10462 0.950 . S
C10469 C10466 1.387 . S
C10470 C10471 1.387 . S
C10470 H10474 0.950 . S
C10470 C10479 1.390 . S
C10471 C10470 1.387 . S
C10471 C10473 1.387 . S
H10472 C10479 0.950 . S
C10473 C10471 1.387 . S
C10473 C10475 1.390 . S
C10473 H10477 0.950 . S
H10474 C10470 0.950 . S
C10475 C10473 1.390 . S
C10475 C10476 1.387 . S
C10475 H10478 0.950 . S
C10476 C10475 1.387 . S
C10476 C10479 1.387 . S
H10477 C10473 0.950 . S
H10478 C10475 0.950 . S
C10479 C10470 1.390 . S
C10479 H10472 0.950 . S
C10479 C10476 1.387 . S
C10480 C10481 1.387 . S
C10480 H10484 0.950 . S
C10480 C10489 1.390 . S
C10481 C10480 1.387 . S
C10481 C10483 1.387 . S
H10482 C10489 0.950 . S
C10483 C10481 1.387 . S
C10483 C10485 1.390 . S
C10483 H10487 0.950 . S
H10484 C10480 0.950 . S
C10485 C10483 1.390 . S
C10485 C10486 1.387 . S
C10485 H10488 0.950 . S
C10486 C10485 1.387 . S
C10486 C10489 1.387 . S
H10487 C10483 0.950 . S
H10488 C10485 0.950 . S
C10489 C10480 1.390 . S
C10489 H10482 0.950 . S
C10489 C10486 1.387 . S
C10490 C10491 1.387 . S
C10490 H10494 0.950 . S
C10490 C10499 1.390 . S
C10491 C10490 1.387 . S
C10491 C10493 1.387 . S
H10492 C10499 0.950 . S
C10493 C10491 1.387 . S
C10493 C10495 1.390 . S
C10493 H10497 0.950 . S
H10494 C10490 0.950 . S
C10495 C10493 1.390 . S
C10495 C10496 1.387 . S
C10495 H10498 0.950 . S
C10496 C10495 1.387 . S
C10496 C10499 1.387 . S
H10497 C10493 0.950 . S
H10498 C10495 0.950 . S
C10499 C10490 1.390 . S
C10499 H10492 0.950 . S
C10499 C10496 1.387 . S
C10500 C10501 1.387 . S
C10500 H10504 0.950 . S
C10500 C10509 1.390 . S
C10501 C10500 1.387 . S
C10501 C10503 1.387 . S
H10502 C10509 0.950 . S
C10503 C10501 1.387 . S
C10503 C10505 1.390 . S
C10503 H10507 0.950 . S
H10504 C10500 0.950 . S
C10505 C10503 1.390 . S
C10505 C10506 1.387 . S
C10505 H10508 0.950 . S
C10506 C10505 1.387 . S
C10506 C10509 1.387 . S
H10507 C10503 0.950 . S
H10508 C10505 0.950 . S
C10509 C10500 1.390 . S
C10509 H10502 0.950 . S
C10509 C10506 1.387 . S
C10510 C10511 1.387 . S
C10510 H10514 0.950 . S
C10510 C10519 1.390 . S
C10511 C10510 1.387 . S
C10511 C10513 1.387 . S
H10512 C10519 0.950 . S
C10513 C10511 1.387 . S
C10513 C10515 1.390 . S
C10513 H10517 0.950 . S
H10514 C10510 0.950 . S
C10515 C10513 1.390 . S
C10515 C10516 1.387 . S
C10515 H10518 0.950 . S
C10516 C10515 1.387 . S
C10516 C10519 1.387 . S
H10517 C10513 0.950 . S
H10518 C10515 0.950 . S
C10519 C10510 1.390 . S
C10519 H10512 0.950 . S
C10519 C10516 1.387 . S
C10520 C10521 1.387 . S
C10520 H10524 0.950 . S
C10520 C10529 1.390 . S
C10521 C10520 1.387 . S
C10521 C10523 1.387 . S
H10522 C10529 0.950 . S
C10523 C10521 1.387 . S
C10523 C10525 1.390 . S
C10523 H10527 0.950 . S
H10524 C10520 0.950 . S
C10525 C10523 1.390 . S
C10525 C10526 1.387 . S
C10525 H10528 0.950 . S
C10526 C10525 1.387 . S
C10526 C10529 1.387 . S
H10527 C10523 0.950 . S
H10528 C10525 0.950 . S
C10529 C10520 1.390 . S
C10529 H10522 0.950 . S
C10529 C10526 1.387 . S
C10530 C10531 1.387 . S
C10530 H10534 0.950 . S
C10530 C10539 1.390 . S
C10531 C10530 1.387 . S
C10531 C10533 1.387 . S
H10532 C10539 0.950 . S
C10533 C10531 1.387 . S
C10533 C10535 1.390 . S
C10533 H10537 0.950 . S
H10534 C10530 0.950 . S
C10535 C10533 1.390 . S
C10535 C10536 1.387 . S
C10535 H10538 0.950 . S
C10536 C10535 1.387 . S
C10536 C10539 1.387 . S
H10537 C10533 0.950 . S
H10538 C10535 0.950 . S
C10539 C10530 1.390 . S
C10539 H10532 0.950 . S
C10539 C10536 1.387 . S
C10540 C10541 1.387 . S
C10540 H10544 0.950 . S
C10540 C10549 1.390 . S
C10541 C10540 1.387 . S
C10541 C10543 1.387 . S
H10542 C10549 0.950 . S
C10543 C10541 1.387 . S
C10543 C10545 1.390 . S
C10543 H10547 0.950 . S
H10544 C10540 0.950 . S
C10545 C10543 1.390 . S
C10545 C10546 1.387 . S
C10545 H10548 0.950 . S
C10546 C10545 1.387 . S
C10546 C10549 1.387 . S
H10547 C10543 0.950 . S
H10548 C10545 0.950 . S
C10549 C10540 1.390 . S
C10549 H10542 0.950 . S
C10549 C10546 1.387 . S
C10550 C10551 1.387 . S
C10550 H10554 0.950 . S
C10550 C10559 1.390 . S
C10551 C10550 1.387 . S
C10551 C10553 1.387 . S
H10552 C10559 0.950 . S
C10553 C10551 1.387 . S
C10553 C10555 1.390 . S
C10553 H10557 0.950 . S
H10554 C10550 0.950 . S
C10555 C10553 1.390 . S
C10555 C10556 1.387 . S
C10555 H10558 0.950 . S
C10556 C10555 1.387 . S
C10556 C10559 1.387 . S
H10557 C10553 0.950 . S
H10558 C10555 0.950 . S
C10559 C10550 1.390 . S
C10559 H10552 0.950 . S
C10559 C10556 1.387 . S
C7686 C4855 1.520 . S
C7681 C15 1.576 . S
C7696 C6815 1.520 . S
C7691 C55 1.576 . S
C7706 C4935 1.520 . S
C7701 C95 1.576 . S
C7716 C6735 1.521 . S
C7711 C135 1.576 . S
C7726 C5095 1.522 . S
C7721 C175 1.577 . S
C7731 C215 1.576 . S
C7736 C6895 1.521 . S
C7746 C5015 1.520 . S
C7741 C255 1.576 . S
C7756 C6975 1.521 . S
C7751 C295 1.577 . S
C7766 C7615 1.522 . S
C7761 C335 1.577 . S
C7771 C375 1.577 . S
C7776 C7375 1.522 . S
C7786 C7655 1.520 . S
C7781 C415 1.577 . S
C7791 C455 1.576 . S
C7796 C7575 1.521 . S
C7806 C7455 1.523 . S
C7801 C495 1.578 . S
C7816 C5575 1.521 . S
C7811 C535 1.576 . S
C7826 C5615 1.519 . S
C7821 C575 1.576 . S
C7831 C615 1.577 . S
C7836 C5495 1.522 . S
C7841 C655 1.577 . S
C7846 C7255 1.521 . S
C7856 C5255 1.522 . S
C7851 C695 1.578 . S
C7866 C7055 1.522 . S
C7861 C735 1.577 . S
C7876 C5175 1.521 . S
C7871 C775 1.578 . S
C7881 C815 1.576 . S
C7886 C5215 1.519 . S
C7896 C7335 1.522 . S
C7891 C855 1.577 . S
C7906 C7215 1.523 . S
C7901 C895 1.577 . S
C7911 C935 1.577 . S
C7916 C7295 1.522 . S
C7921 C975 1.577 . S
C7926 C3895 1.513 . S
C7931 C1015 1.577 . S
C7936 C5855 1.512 . S
C7946 C3975 1.513 . S
C7941 C1055 1.578 . S
C7951 C1095 1.576 . S
C7956 C5775 1.510 . S
C7966 C4135 1.513 . S
C7961 C1135 1.577 . S
C7971 C1175 1.577 . S
C7976 C5935 1.512 . S
C7986 C4055 1.510 . S
C7981 C1215 1.576 . S
C7996 C6015 1.511 . S
C7991 C1255 1.576 . S
C8001 C1295 1.577 . S
C8006 C6655 1.512 . S
C8016 C6415 1.510 . S
C8011 C1335 1.576 . S
C8021 C1375 1.577 . S
C8026 C6695 1.513 . S
C8036 C6615 1.510 . S
C8031 C1415 1.576 . S
C8046 C6495 1.513 . S
C8041 C1455 1.577 . S
C8051 C1495 1.577 . S
C8056 C4615 1.513 . S
C8061 C1535 1.576 . S
C8066 C4655 1.510 . S
C8076 C4535 1.510 . S
C8071 C1575 1.576 . S
C8081 C1615 1.577 . S
C8086 C6295 1.513 . S
C8096 C4295 1.512 . S
C8091 C1655 1.577 . S
C8101 C1695 1.576 . S
C8106 C6095 1.511 . S
C8116 C4215 1.511 . S
C8111 C1735 1.577 . S
C8121 C1775 1.577 . S
C8126 C4255 1.513 . S
C8136 C6375 1.511 . S
C8131 C1815 1.576 . S
C8146 C6255 1.513 . S
C8141 C1855 1.578 . S
C8156 C6335 1.511 . S
C8151 C1895 1.576 . S
C8161 C1935 1.578 . S
C8166 C6775 1.522 . S
C8176 C4895 1.521 . S
C8171 C1975 1.576 . S
C8186 C6855 1.520 . S
C8181 C2015 1.576 . S
C8196 C4815 1.520 . S
C8191 C2055 1.576 . S
C8201 C2095 1.576 . S
C8206 C7015 1.520 . S
C8216 C4975 1.521 . S
C8211 C2135 1.576 . S
C8226 C6935 1.522 . S
C8221 C2175 1.577 . S
C8236 C5055 1.522 . S
C8231 C2215 1.578 . S
C8241 C2255 1.576 . S
C8246 C5695 1.520 . S
C8256 C5455 1.520 . S
C8251 C2295 1.576 . S
C8266 C5735 1.522 . S
C8261 C2335 1.577 . S
C8271 C2375 1.578 . S
C8276 C5655 1.522 . S
C8281 C2415 1.578 . S
C8286 C5535 1.523 . S
C8291 C2455 1.578 . S
C8296 C7495 1.522 . S
C8301 C2495 1.577 . S
C8306 C7535 1.523 . S
C8316 C7415 1.523 . S
C8311 C2535 1.577 . S
C8321 C2575 1.576 . S
C8326 C5335 1.520 . S
C8336 C7175 1.522 . S
C8331 C2615 1.577 . S
C8346 C5135 1.521 . S
C8341 C2655 1.577 . S
C8356 C7095 1.521 . S
C8351 C2695 1.576 . S
C8361 C2735 1.577 . S
C8366 C7135 1.523 . S
C8371 C2775 1.576 . S
C8376 C5415 1.520 . S
C8386 C5295 1.521 . S
C8381 C2815 1.576 . S
C8391 C2855 1.576 . S
C8396 C5375 1.521 . S
C8401 C2895 1.576 . S
C8406 C5815 1.511 . S
C8416 C3935 1.512 . S
C8411 C2935 1.577 . S
C8426 C5895 1.511 . S
C8421 C2975 1.576 . S
C8431 C3015 1.576 . S
C8436 C3855 1.511 . S
C8446 C6055 1.512 . S
C8441 C3055 1.577 . S
C8456 C4015 1.513 . S
C8451 C3095 1.578 . S
C8461 C3135 1.576 . S
C8466 C5975 1.510 . S
C8471 C3175 1.577 . S
C8476 C4095 1.513 . S
C8486 C4735 1.513 . S
C8481 C3215 1.577 . S
C8491 C3255 1.577 . S
C8496 C4495 1.512 . S
C8506 C4775 1.513 . S
C8501 C3295 1.577 . S
C8516 C4695 1.512 . S
C8511 C3335 1.577 . S
C8521 C3375 1.578 . S
C8526 C4575 1.513 . S
C8531 C3415 1.576 . S
C8536 C6535 1.511 . S
C8546 C6575 1.513 . S
C8541 C3455 1.577 . S
C8551 C3495 1.577 . S
C8556 C6455 1.512 . S
C8566 C4375 1.512 . S
C8561 C3535 1.577 . S
C8576 C6215 1.512 . S
C8571 C3575 1.577 . S
C8581 C3615 1.576 . S
C8586 C4175 1.510 . S
C8591 C3655 1.577 . S
C8596 C6135 1.512 . S
C8601 C3695 1.576 . S
C8606 C6175 1.510 . S
C8611 C3735 1.576 . S
C8616 C4455 1.511 . S
C8621 C3775 1.577 . S
C8626 C4335 1.512 . S
C8636 C4415 1.512 . S
C8631 C3815 1.577 . S
C8646 C4202 1.793 . S
C8641 C2 1.870 . S
C8656 C4242 1.789 . S
C8651 C42 1.868 . S
C8661 C82 1.868 . S
C8666 C4282 1.790 . S
C8671 C122 1.867 . S
C8676 C4162 1.789 . S
C8681 C162 1.868 . S
C8686 C4442 1.789 . S
C8696 C4322 1.793 . S
C8691 C202 1.870 . S
C8706 C4362 1.790 . S
C8701 C242 1.868 . S
C8711 C282 1.868 . S
C8716 C4402 1.789 . S
C8721 C322 1.867 . S
C8726 C3962 1.789 . S
C8731 C362 1.868 . S
C8736 C3842 1.789 . S
C8741 C402 1.867 . S
C8746 C3882 1.789 . S
C8756 C3922 1.793 . S
C8751 C442 1.869 . S
C8761 C482 1.867 . S
C8766 C4042 1.789 . S
C8771 C522 1.868 . S
C8776 C4082 1.790 . S
C8781 C562 1.868 . S
C8786 C4122 1.789 . S
C8791 C602 1.870 . S
C8796 C4002 1.793 . S
C8806 C4562 1.793 . S
C8801 C642 1.870 . S
C8811 C682 1.870 . S
C8816 C6642 1.793 . S
C8826 C4482 1.793 . S
C8821 C722 1.870 . S
C8836 C6682 1.792 . S
C8831 C762 1.869 . S
C8841 C802 1.868 . S
C8846 C6602 1.789 . S
C8851 C842 1.869 . S
C8856 C6562 1.792 . S
C8866 C6442 1.792 . S
C8861 C882 1.869 . S
C8876 C6522 1.792 . S
C8871 C922 1.869 . S
C8886 C5162 1.950 . S
C8881 C962 1.991 . S
C8896 C5202 1.949 . S
C8891 C1002 1.990 . S
C8906 C5242 1.950 . S
C8901 C1042 1.991 . S
C8911 C1082 1.991 . S
C8916 C5122 1.951 . S
C8921 C1122 1.990 . S
C8926 C5402 1.949 . S
C8936 C5282 1.950 . S
C8931 C1162 1.990 . S
C8941 C1202 1.990 . S
C8946 C5322 1.950 . S
C8956 C5362 1.950 . S
C8951 C1242 1.991 . S
C8961 C1282 1.991 . S
C8966 C4922 1.950 . S
C8976 C4802 1.949 . S
C8971 C1322 1.990 . S
C8981 C1362 1.991 . S
C8986 C4842 1.950 . S
C8996 C4882 1.950 . S
C8991 C1402 1.990 . S
C9006 C5002 1.950 . S
C9001 C1442 1.991 . S
C9011 C1482 1.991 . S
C9016 C5042 1.952 . S
C9026 C5082 1.949 . S
C9021 C1522 1.990 . S
C9036 C4962 1.952 . S
C9031 C1562 1.991 . S
C9046 C5522 1.952 . S
C9041 C1602 1.992 . S
C9056 C7602 1.952 . S
C9051 C1642 1.991 . S
C9066 C5442 1.951 . S
C9061 C1682 1.991 . S
C9071 C1722 1.991 . S
C9076 C7642 1.952 . S
C9081 C1762 1.992 . S
C9086 C7562 1.952 . S
C9096 C7522 1.949 . S
C9091 C1802 1.990 . S
C9106 C7402 1.951 . S
C9101 C1842 1.991 . S
C9116 C7482 1.952 . S
C9111 C1882 1.991 . S
C9121 C1922 1.869 . S
C9126 C6122 1.790 . S
C9136 C6162 1.793 . S
C9131 C1962 1.870 . S
C9141 C2002 1.869 . S
C9146 C6202 1.792 . S
C9156 C6082 1.789 . S
C9151 C2042 1.867 . S
C9161 C2082 1.868 . S
C9166 C6362 1.789 . S
C9171 C2122 1.870 . S
C9176 C6242 1.793 . S
C9181 C2162 1.869 . S
C9186 C6282 1.793 . S
C9191 C2202 1.868 . S
C9196 C6322 1.789 . S
C9201 C2242 1.869 . S
C9206 C5882 1.793 . S
C9216 C5762 1.792 . S
C9211 C2282 1.869 . S
C9226 C5802 1.792 . S
C9221 C2322 1.869 . S
C9231 C2362 1.868 . S
C9236 C5842 1.789 . S
C9241 C2402 1.868 . S
C9246 C5962 1.790 . S
C9251 C2442 1.868 . S
C9256 C6002 1.790 . S
C9261 C2482 1.870 . S
C9266 C6042 1.793 . S
C9271 C2522 1.870 . S
C9276 C5922 1.793 . S
C9286 C6482 1.793 . S
C9281 C2562 1.870 . S
C9296 C4722 1.789 . S
C9291 C2602 1.867 . S
C9306 C6402 1.789 . S
C9301 C2642 1.867 . S
C9316 C4762 1.793 . S
C9311 C2682 1.870 . S
C9326 C4682 1.793 . S
C9321 C2722 1.871 . S
C9336 C4642 1.791 . S
C9331 C2762 1.868 . S
C9341 C2802 1.867 . S
C9346 C4522 1.789 . S
C9356 C4602 1.792 . S
C9351 C2842 1.869 . S
C9361 C2882 1.991 . S
C9366 C7082 1.950 . S
C9371 C2922 1.991 . S
C9376 C7122 1.951 . S
C9386 C7162 1.950 . S
C9381 C2962 1.991 . S
C9391 C3002 1.990 . S
C9396 C7042 1.949 . S
C9406 C7322 1.951 . S
C9401 C3042 1.990 . S
C9411 C3082 1.990 . S
C9416 C7202 1.950 . S
C9421 C3122 1.990 . S
C9426 C7242 1.950 . S
C9436 C7282 1.952 . S
C9431 C3162 1.992 . S
C9446 C6842 1.950 . S
C9441 C3202 1.990 . S
C9456 C6722 1.949 . S
C9451 C3242 1.990 . S
C9466 C6762 1.950 . S
C9461 C3282 1.991 . S
C9476 C6802 1.949 . S
C9471 C3322 1.990 . S
C9481 C3362 1.991 . S
C9486 C6922 1.952 . S
C9496 C6962 1.952 . S
C9491 C3402 1.991 . S
C9501 C3442 1.991 . S
C9506 C7002 1.950 . S
C9511 C3482 1.991 . S
C9516 C6882 1.950 . S
C9521 C3522 1.991 . S
C9526 C7442 1.950 . S
C9531 C3562 1.991 . S
C9536 C5682 1.952 . S
C9541 C3602 1.991 . S
C9546 C7362 1.950 . S
C9556 C5722 1.952 . S
C9551 C3642 1.991 . S
C9561 C3682 1.991 . S
C9566 C5642 1.951 . S
C9571 C3722 1.990 . S
C9576 C5602 1.949 . S
C9581 C3762 1.990 . S
C9586 C5482 1.950 . S
C9596 C5562 1.950 . S
C9591 C3802 1.990 . S
C9601 C21 1.926 . S
C9606 C3861 1.845 . S
C9611 C61 1.924 . S
C9616 C3901 1.843 . S
C9621 C101 1.926 . S
C9626 C3941 1.845 . S
C9636 C3981 1.842 . S
C9631 C141 1.923 . S
C9646 C4021 1.842 . S
C9641 C181 1.925 . S
C9651 C221 1.927 . S
C9656 C4061 1.846 . S
C9661 C261 1.926 . S
C9666 C4101 1.843 . S
C9671 C301 1.927 . S
C9676 C4141 1.845 . S
C9686 C4181 1.842 . S
C9681 C341 1.925 . S
C9696 C4221 1.843 . S
C9691 C381 1.926 . S
C9701 C421 1.926 . S
C9706 C4261 1.846 . S
C9716 C4301 1.846 . S
C9711 C461 1.927 . S
C9721 C501 1.926 . S
C9726 C4341 1.845 . S
C9731 C541 1.925 . S
C9736 C4381 1.845 . S
C9741 C581 1.926 . S
C9746 C4421 1.843 . S
C9751 C621 1.925 . S
C9756 C4461 1.842 . S
C9761 C661 1.925 . S
C9766 C4501 1.843 . S
C9771 C701 1.926 . S
C9776 C4541 1.843 . S
C9786 C4581 1.846 . S
C9781 C741 1.926 . S
C9796 C4621 1.843 . S
C9791 C781 1.926 . S
C9806 C4661 1.846 . S
C9801 C821 1.926 . S
C9816 C4701 1.844 . S
C9811 C861 1.926 . S
C9821 C901 1.924 . S
C9826 C4741 1.842 . S
C9836 C4781 1.842 . S
C9831 C941 1.924 . S
C9841 C981 2.063 . S
C9846 C4821 2.020 . S
C9851 C1021 2.062 . S
C9856 C4861 2.022 . S
C9861 C1061 2.063 . S
C9866 C4901 2.020 . S
C9876 C4941 2.020 . S
C9871 C1101 2.062 . S
C9881 C1141 2.063 . S
C9886 C4981 2.022 . S
C9896 C5021 2.020 . S
C9891 C1181 2.062 . S
C9901 C1221 2.063 . S
C9906 C5061 2.021 . S
C9911 C1261 2.062 . S
C9916 C5101 2.021 . S
C9926 C5141 2.020 . S
C9921 C1301 2.063 . S
C9931 C1341 2.063 . S
C9936 C5181 2.020 . S
C9946 C5221 2.020 . S
C9941 C1381 2.062 . S
C9951 C1421 2.063 . S
C9956 C5261 2.022 . S
C9966 C5301 2.020 . S
C9961 C1461 2.062 . S
C9976 C5341 2.022 . S
C9971 C1501 2.063 . S
C9986 C5381 2.022 . S
C9981 C1541 2.062 . S
C9991 C1581 2.063 . S
C9996 C5421 2.020 . S
C10001 C1621 2.062 . S
C10006 C5461 2.020 . S
C10011 C1661 2.063 . S
C10016 C5501 2.022 . S
C10021 C1701 2.063 . S
C10026 C5541 2.022 . S
C10031 C1741 2.063 . S
C10036 C5581 2.022 . S
C10041 C1781 2.063 . S
C10046 C5621 2.020 . S
C10056 C5661 2.021 . S
C10051 C1821 2.062 . S
C10061 C1861 2.063 . S
C10066 C5701 2.022 . S
C10076 C5741 2.020 . S
C10071 C1901 2.062 . S
C10081 C1941 1.924 . S
C10086 C5781 1.842 . S
C10096 C5821 1.842 . S
C10091 C1981 1.924 . S
C10106 C5861 1.842 . S
C10101 C2021 1.925 . S
C10116 C5901 1.842 . S
C10111 C2061 1.923 . S
C10121 C2101 1.927 . S
C10126 C5941 1.845 . S
C10131 C2141 1.927 . S
C10136 C5981 1.845 . S
C10146 C6021 1.842 . S
C10141 C2181 1.925 . S
C10156 C6061 1.842 . S
C10151 C2221 1.924 . S
C10161 C2261 1.925 . S
C10166 C6101 1.842 . S
C10171 C2301 1.925 . S
C10176 C6141 1.845 . S
C10181 C2341 1.926 . S
C10186 C6181 1.846 . S
C10191 C2381 1.925 . S
C10196 C6221 1.842 . S
C10201 C2421 1.926 . S
C10206 C6261 1.845 . S
C10216 C6301 1.842 . S
C10211 C2461 1.925 . S
C10226 C6341 1.841 . S
C10221 C2501 1.924 . S
C10236 C6381 1.843 . S
C10231 C2541 1.925 . S
C10246 C6421 1.844 . S
C10241 C2581 1.924 . S
C10251 C2621 1.923 . S
C10256 C6461 1.842 . S
C10261 C2661 1.925 . S
C10266 C6501 1.842 . S
C10276 C6541 1.843 . S
C10271 C2701 1.924 . S
C10281 C2741 1.926 . S
C10286 C6581 1.846 . S
C10296 C6621 1.845 . S
C10291 C2781 1.925 . S
C10306 C6661 1.846 . S
C10301 C2821 1.926 . S
C10316 C6701 1.845 . S
C10311 C2861 1.926 . S
C10321 C2901 2.063 . S
C10326 C6741 2.022 . S
C10331 C2941 2.062 . S
C10336 C6781 2.021 . S
C10341 C2981 2.063 . S
C10346 C6821 2.022 . S
C10351 C3021 2.062 . S
C10356 C6861 2.021 . S
C10366 C6901 2.020 . S
C10361 C3061 2.062 . S
C10376 C6941 2.020 . S
C10371 C3101 2.062 . S
C10386 C6981 2.022 . S
C10381 C3141 2.063 . S
C10391 C3181 2.063 . S
C10396 C7021 2.022 . S
C10401 C3221 2.063 . S
C10406 C7061 2.021 . S
C10416 C7101 2.022 . S
C10411 C3261 2.062 . S
C10426 C7141 2.020 . S
C10421 C3301 2.063 . S
C10436 C7181 2.020 . S
C10431 C3341 2.063 . S
C10446 C7221 2.020 . S
C10441 C3381 2.062 . S
C10456 C7261 2.022 . S
C10451 C3421 2.063 . S
C10466 C7301 2.020 . S
C10461 C3461 2.062 . S
C10476 C7341 2.021 . S
C10471 C3501 2.063 . S
C10486 C7381 2.020 . S
C10481 C3541 2.062 . S
C10496 C7421 2.020 . S
C10491 C3581 2.062 . S
C10506 C7461 2.022 . S
C10501 C3621 2.063 . S
C10511 C3661 2.062 . S
C10516 C7501 2.021 . S
C10526 C7541 2.022 . S
C10521 C3701 2.063 . S
C10531 C3741 2.062 . S
C10536 C7581 2.020 . S
C10546 C7621 2.022 . S
C10541 C3781 2.063 . S
C10556 C7661 2.020 . S
C10551 C3821 2.062 . S
