# Generated by pormake.
# Topology gar, (4,6)-cn, num edge types: 1
# Building blocks:
#     Node 0, Type 0, BuildingBlock: CEKHIL_clean_sbu_0, # of connection points: 4
#     Node 1, Type 0, BuildingBlock: CEKHIL_clean_sbu_0, # of connection points: 4
#     Node 2, Type 0, BuildingBlock: CEKHIL_clean_sbu_0, # of connection points: 4
#     Node 3, Type 0, BuildingBlock: CEKHIL_clean_sbu_0, # of connection points: 4
#     Node 4, Type 0, BuildingBlock: CEKHIL_clean_sbu_0, # of connection points: 4
#     Node 5, Type 0, BuildingBlock: CEKHIL_clean_sbu_0, # of connection points: 4
#     Node 6, Type 0, BuildingBlock: CEKHIL_clean_sbu_0, # of connection points: 4
#     Node 7, Type 0, BuildingBlock: CEKHIL_clean_sbu_0, # of connection points: 4
#     Node 8, Type 0, BuildingBlock: CEKHIL_clean_sbu_0, # of connection points: 4
#     Node 9, Type 0, BuildingBlock: CEKHIL_clean_sbu_0, # of connection points: 4
#     Node 10, Type 0, BuildingBlock: CEKHIL_clean_sbu_0, # of connection points: 4
#     Node 11, Type 0, BuildingBlock: CEKHIL_clean_sbu_0, # of connection points: 4
#     Node 12, Type 0, BuildingBlock: CEKHIL_clean_sbu_0, # of connection points: 4
#     Node 13, Type 0, BuildingBlock: CEKHIL_clean_sbu_0, # of connection points: 4
#     Node 14, Type 0, BuildingBlock: CEKHIL_clean_sbu_0, # of connection points: 4
#     Node 15, Type 0, BuildingBlock: CEKHIL_clean_sbu_0, # of connection points: 4
#     Node 16, Type 0, BuildingBlock: CEKHIL_clean_sbu_0, # of connection points: 4
#     Node 17, Type 0, BuildingBlock: CEKHIL_clean_sbu_0, # of connection points: 4
#     Node 18, Type 0, BuildingBlock: CEKHIL_clean_sbu_0, # of connection points: 4
#     Node 19, Type 0, BuildingBlock: CEKHIL_clean_sbu_0, # of connection points: 4
#     Node 20, Type 0, BuildingBlock: CEKHIL_clean_sbu_0, # of connection points: 4
#     Node 21, Type 0, BuildingBlock: CEKHIL_clean_sbu_0, # of connection points: 4
#     Node 22, Type 0, BuildingBlock: CEKHIL_clean_sbu_0, # of connection points: 4
#     Node 23, Type 0, BuildingBlock: CEKHIL_clean_sbu_0, # of connection points: 4
#     Node 24, Type 1, BuildingBlock: KUMBOL_clean_sbu_0, # of connection points: 6
#     Node 25, Type 1, BuildingBlock: KUMBOL_clean_sbu_0, # of connection points: 6
#     Node 26, Type 1, BuildingBlock: KUMBOL_clean_sbu_0, # of connection points: 6
#     Node 27, Type 1, BuildingBlock: KUMBOL_clean_sbu_0, # of connection points: 6
#     Node 28, Type 1, BuildingBlock: KUMBOL_clean_sbu_0, # of connection points: 6
#     Node 29, Type 1, BuildingBlock: KUMBOL_clean_sbu_0, # of connection points: 6
#     Node 30, Type 1, BuildingBlock: KUMBOL_clean_sbu_0, # of connection points: 6
#     Node 31, Type 1, BuildingBlock: KUMBOL_clean_sbu_0, # of connection points: 6
#     Node 32, Type 1, BuildingBlock: KUMBOL_clean_sbu_0, # of connection points: 6
#     Node 33, Type 1, BuildingBlock: KUMBOL_clean_sbu_0, # of connection points: 6
#     Node 34, Type 1, BuildingBlock: KUMBOL_clean_sbu_0, # of connection points: 6
#     Node 35, Type 1, BuildingBlock: KUMBOL_clean_sbu_0, # of connection points: 6
#     Node 36, Type 1, BuildingBlock: KUMBOL_clean_sbu_0, # of connection points: 6
#     Node 37, Type 1, BuildingBlock: KUMBOL_clean_sbu_0, # of connection points: 6
#     Node 38, Type 1, BuildingBlock: KUMBOL_clean_sbu_0, # of connection points: 6
#     Node 39, Type 1, BuildingBlock: KUMBOL_clean_sbu_0, # of connection points: 6
#     Edge 40, Type (0, 1), BuildingBlock: KIFKEQ_clean_linker_1, # of connection points: 2
#     Edge 41, Type (0, 1), BuildingBlock: KIFKEQ_clean_linker_1, # of connection points: 2
#     Edge 42, Type (0, 1), BuildingBlock: KIFKEQ_clean_linker_1, # of connection points: 2
#     Edge 43, Type (0, 1), BuildingBlock: KIFKEQ_clean_linker_1, # of connection points: 2
#     Edge 44, Type (0, 1), BuildingBlock: KIFKEQ_clean_linker_1, # of connection points: 2
#     Edge 45, Type (0, 1), BuildingBlock: KIFKEQ_clean_linker_1, # of connection points: 2
#     Edge 46, Type (0, 1), BuildingBlock: KIFKEQ_clean_linker_1, # of connection points: 2
#     Edge 47, Type (0, 1), BuildingBlock: KIFKEQ_clean_linker_1, # of connection points: 2
#     Edge 48, Type (0, 1), BuildingBlock: KIFKEQ_clean_linker_1, # of connection points: 2
#     Edge 49, Type (0, 1), BuildingBlock: KIFKEQ_clean_linker_1, # of connection points: 2
#     Edge 50, Type (0, 1), BuildingBlock: KIFKEQ_clean_linker_1, # of connection points: 2
#     Edge 51, Type (0, 1), BuildingBlock: KIFKEQ_clean_linker_1, # of connection points: 2
#     Edge 52, Type (0, 1), BuildingBlock: KIFKEQ_clean_linker_1, # of connection points: 2
#     Edge 53, Type (0, 1), BuildingBlock: KIFKEQ_clean_linker_1, # of connection points: 2
#     Edge 54, Type (0, 1), BuildingBlock: KIFKEQ_clean_linker_1, # of connection points: 2
#     Edge 55, Type (0, 1), BuildingBlock: KIFKEQ_clean_linker_1, # of connection points: 2
#     Edge 56, Type (0, 1), BuildingBlock: KIFKEQ_clean_linker_1, # of connection points: 2
#     Edge 57, Type (0, 1), BuildingBlock: KIFKEQ_clean_linker_1, # of connection points: 2
#     Edge 58, Type (0, 1), BuildingBlock: KIFKEQ_clean_linker_1, # of connection points: 2
#     Edge 59, Type (0, 1), BuildingBlock: KIFKEQ_clean_linker_1, # of connection points: 2
#     Edge 60, Type (0, 1), BuildingBlock: KIFKEQ_clean_linker_1, # of connection points: 2
#     Edge 61, Type (0, 1), BuildingBlock: KIFKEQ_clean_linker_1, # of connection points: 2
#     Edge 62, Type (0, 1), BuildingBlock: KIFKEQ_clean_linker_1, # of connection points: 2
#     Edge 63, Type (0, 1), BuildingBlock: KIFKEQ_clean_linker_1, # of connection points: 2
#     Edge 64, Type (0, 1), BuildingBlock: KIFKEQ_clean_linker_1, # of connection points: 2
#     Edge 65, Type (0, 1), BuildingBlock: KIFKEQ_clean_linker_1, # of connection points: 2
#     Edge 66, Type (0, 1), BuildingBlock: KIFKEQ_clean_linker_1, # of connection points: 2
#     Edge 67, Type (0, 1), BuildingBlock: KIFKEQ_clean_linker_1, # of connection points: 2
#     Edge 68, Type (0, 1), BuildingBlock: KIFKEQ_clean_linker_1, # of connection points: 2
#     Edge 69, Type (0, 1), BuildingBlock: KIFKEQ_clean_linker_1, # of connection points: 2
#     Edge 70, Type (0, 1), BuildingBlock: KIFKEQ_clean_linker_1, # of connection points: 2
#     Edge 71, Type (0, 1), BuildingBlock: KIFKEQ_clean_linker_1, # of connection points: 2
#     Edge 72, Type (0, 1), BuildingBlock: KIFKEQ_clean_linker_1, # of connection points: 2
#     Edge 73, Type (0, 1), BuildingBlock: KIFKEQ_clean_linker_1, # of connection points: 2
#     Edge 74, Type (0, 1), BuildingBlock: KIFKEQ_clean_linker_1, # of connection points: 2
#     Edge 75, Type (0, 1), BuildingBlock: KIFKEQ_clean_linker_1, # of connection points: 2
#     Edge 76, Type (0, 1), BuildingBlock: KIFKEQ_clean_linker_1, # of connection points: 2
#     Edge 77, Type (0, 1), BuildingBlock: KIFKEQ_clean_linker_1, # of connection points: 2
#     Edge 78, Type (0, 1), BuildingBlock: KIFKEQ_clean_linker_1, # of connection points: 2
#     Edge 79, Type (0, 1), BuildingBlock: KIFKEQ_clean_linker_1, # of connection points: 2
#     Edge 80, Type (0, 1), BuildingBlock: KIFKEQ_clean_linker_1, # of connection points: 2
#     Edge 81, Type (0, 1), BuildingBlock: KIFKEQ_clean_linker_1, # of connection points: 2
#     Edge 82, Type (0, 1), BuildingBlock: KIFKEQ_clean_linker_1, # of connection points: 2
#     Edge 83, Type (0, 1), BuildingBlock: KIFKEQ_clean_linker_1, # of connection points: 2
#     Edge 84, Type (0, 1), BuildingBlock: KIFKEQ_clean_linker_1, # of connection points: 2
#     Edge 85, Type (0, 1), BuildingBlock: KIFKEQ_clean_linker_1, # of connection points: 2
#     Edge 86, Type (0, 1), BuildingBlock: KIFKEQ_clean_linker_1, # of connection points: 2
#     Edge 87, Type (0, 1), BuildingBlock: KIFKEQ_clean_linker_1, # of connection points: 2
#     Edge 88, Type (0, 1), BuildingBlock: KIFKEQ_clean_linker_1, # of connection points: 2
#     Edge 89, Type (0, 1), BuildingBlock: KIFKEQ_clean_linker_1, # of connection points: 2
#     Edge 90, Type (0, 1), BuildingBlock: KIFKEQ_clean_linker_1, # of connection points: 2
#     Edge 91, Type (0, 1), BuildingBlock: KIFKEQ_clean_linker_1, # of connection points: 2
#     Edge 92, Type (0, 1), BuildingBlock: KIFKEQ_clean_linker_1, # of connection points: 2
#     Edge 93, Type (0, 1), BuildingBlock: KIFKEQ_clean_linker_1, # of connection points: 2
#     Edge 94, Type (0, 1), BuildingBlock: KIFKEQ_clean_linker_1, # of connection points: 2
#     Edge 95, Type (0, 1), BuildingBlock: KIFKEQ_clean_linker_1, # of connection points: 2
#     Edge 96, Type (0, 1), BuildingBlock: KIFKEQ_clean_linker_1, # of connection points: 2
#     Edge 97, Type (0, 1), BuildingBlock: KIFKEQ_clean_linker_1, # of connection points: 2
#     Edge 98, Type (0, 1), BuildingBlock: KIFKEQ_clean_linker_1, # of connection points: 2
#     Edge 99, Type (0, 1), BuildingBlock: KIFKEQ_clean_linker_1, # of connection points: 2
#     Edge 100, Type (0, 1), BuildingBlock: KIFKEQ_clean_linker_1, # of connection points: 2
#     Edge 101, Type (0, 1), BuildingBlock: KIFKEQ_clean_linker_1, # of connection points: 2
#     Edge 102, Type (0, 1), BuildingBlock: KIFKEQ_clean_linker_1, # of connection points: 2
#     Edge 103, Type (0, 1), BuildingBlock: KIFKEQ_clean_linker_1, # of connection points: 2
#     Edge 104, Type (0, 1), BuildingBlock: KIFKEQ_clean_linker_1, # of connection points: 2
#     Edge 105, Type (0, 1), BuildingBlock: KIFKEQ_clean_linker_1, # of connection points: 2
#     Edge 106, Type (0, 1), BuildingBlock: KIFKEQ_clean_linker_1, # of connection points: 2
#     Edge 107, Type (0, 1), BuildingBlock: KIFKEQ_clean_linker_1, # of connection points: 2
#     Edge 108, Type (0, 1), BuildingBlock: KIFKEQ_clean_linker_1, # of connection points: 2
#     Edge 109, Type (0, 1), BuildingBlock: KIFKEQ_clean_linker_1, # of connection points: 2
#     Edge 110, Type (0, 1), BuildingBlock: KIFKEQ_clean_linker_1, # of connection points: 2
#     Edge 111, Type (0, 1), BuildingBlock: KIFKEQ_clean_linker_1, # of connection points: 2
#     Edge 112, Type (0, 1), BuildingBlock: KIFKEQ_clean_linker_1, # of connection points: 2
#     Edge 113, Type (0, 1), BuildingBlock: KIFKEQ_clean_linker_1, # of connection points: 2
#     Edge 114, Type (0, 1), BuildingBlock: KIFKEQ_clean_linker_1, # of connection points: 2
#     Edge 115, Type (0, 1), BuildingBlock: KIFKEQ_clean_linker_1, # of connection points: 2
#     Edge 116, Type (0, 1), BuildingBlock: KIFKEQ_clean_linker_1, # of connection points: 2
#     Edge 117, Type (0, 1), BuildingBlock: KIFKEQ_clean_linker_1, # of connection points: 2
#     Edge 118, Type (0, 1), BuildingBlock: KIFKEQ_clean_linker_1, # of connection points: 2
#     Edge 119, Type (0, 1), BuildingBlock: KIFKEQ_clean_linker_1, # of connection points: 2
#     Edge 120, Type (0, 1), BuildingBlock: KIFKEQ_clean_linker_1, # of connection points: 2
#     Edge 121, Type (0, 1), BuildingBlock: KIFKEQ_clean_linker_1, # of connection points: 2
#     Edge 122, Type (0, 1), BuildingBlock: KIFKEQ_clean_linker_1, # of connection points: 2
#     Edge 123, Type (0, 1), BuildingBlock: KIFKEQ_clean_linker_1, # of connection points: 2
#     Edge 124, Type (0, 1), BuildingBlock: KIFKEQ_clean_linker_1, # of connection points: 2
#     Edge 125, Type (0, 1), BuildingBlock: KIFKEQ_clean_linker_1, # of connection points: 2
#     Edge 126, Type (0, 1), BuildingBlock: KIFKEQ_clean_linker_1, # of connection points: 2
#     Edge 127, Type (0, 1), BuildingBlock: KIFKEQ_clean_linker_1, # of connection points: 2
#     Edge 128, Type (0, 1), BuildingBlock: KIFKEQ_clean_linker_1, # of connection points: 2
#     Edge 129, Type (0, 1), BuildingBlock: KIFKEQ_clean_linker_1, # of connection points: 2
#     Edge 130, Type (0, 1), BuildingBlock: KIFKEQ_clean_linker_1, # of connection points: 2
#     Edge 131, Type (0, 1), BuildingBlock: KIFKEQ_clean_linker_1, # of connection points: 2
#     Edge 132, Type (0, 1), BuildingBlock: KIFKEQ_clean_linker_1, # of connection points: 2
#     Edge 133, Type (0, 1), BuildingBlock: KIFKEQ_clean_linker_1, # of connection points: 2
#     Edge 134, Type (0, 1), BuildingBlock: KIFKEQ_clean_linker_1, # of connection points: 2
#     Edge 135, Type (0, 1), BuildingBlock: KIFKEQ_clean_linker_1, # of connection points: 2
# Relax obj value: 0.121
# Max RMSD: 0.320
# Mean RMSD: 0.150
data_MOF--net-gar--node1-CEKHIL_clean_sbu_0--node2-KUMBOL_clean_sbu_0--edge1-KIFKEQ_clean_linker_1
_symmetry_space_group_name_H-M    P1
_symmetry_Int_Tables_number       1
_symmetry_cell_setting            triclinic
loop_
_symmetry_equiv_pos_as_xyz
'x, y, z'
_cell_length_a     62.252993
_cell_length_b     56.534038
_cell_length_c     56.11014
_cell_angle_alpha  100.16151
_cell_angle_beta   93.656693
_cell_angle_gamma 101.58321
loop_
_atom_site_label
_atom_site_type_symbol
_atom_site_fract_x
_atom_site_fract_y
_atom_site_fract_z
_atom_type_partial_charge
Co0 Co 0.12752 0.33844 0.39111 0.0
O1 O 0.15827 0.33909 0.39379 0.0
O2 O 0.13499 0.32158 0.36084 0.0
C3 C 0.13141 0.3782 0.40707 0.0
O4 O 0.09492 0.33546 0.38164 0.0
Co5 Co 0.10378 0.35259 0.43744 0.0
O6 O 0.07907 0.35238 0.41344 0.0
C7 C 0.11382 0.30304 0.42441 0.0
C8 C 0.15516 0.32786 0.37122 0.0
C9 C 0.07845 0.34264 0.39106 0.0
O10 O 0.12126 0.30729 0.40438 0.0
O11 O 0.10768 0.31901 0.44011 0.0
O12 O 0.13339 0.37155 0.38411 0.0
O13 O 0.12878 0.36109 0.41969 0.0
Co14 Co 0.01601 0.78343 0.67082 0.0
O15 O 0.98512 0.78292 0.66703 0.0
O16 O 1.00307 0.77597 0.69968 0.0
C17 C 0.02725 0.81834 0.65725 0.0
O18 O 0.04777 0.7828 0.68104 0.0
Co19 Co 0.04189 0.78034 0.62459 0.0
O20 O 0.0674 0.78273 0.64862 0.0
C21 C 1.01096 0.73705 0.63347 0.0
C22 C 0.98463 0.77797 0.68873 0.0
C23 C 0.06586 0.78253 0.67115 0.0
O24 O 1.01032 0.74754 0.6556 0.0
O25 O 0.01984 0.74831 0.6175 0.0
O26 O 0.02277 0.81948 0.67967 0.0
O27 O 0.02271 0.7968 0.64365 0.0
Co28 Co 0.62794 0.83792 0.893 0.0
O29 O 0.65895 0.83957 0.89507 0.0
O30 O 0.63523 0.82153 0.86255 0.0
C31 C 0.63007 0.87725 0.90936 0.0
O32 O 0.59512 0.83359 0.88406 0.0
Co33 Co 0.60422 0.84994 0.93991 0.0
O34 O 0.57884 0.84873 0.91632 0.0
C35 C 0.61688 0.80201 0.92633 0.0
C36 C 0.65548 0.82778 0.87266 0.0
C37 C 0.57833 0.83954 0.89381 0.0
O38 O 0.62311 0.80665 0.90596 0.0
O39 O 0.6104 0.81722 0.94249 0.0
O40 O 0.63243 0.87118 0.88639 0.0
O41 O 0.6286 0.85998 0.92174 0.0
Co42 Co 0.51496 0.28667 0.16912 0.0
O43 O 0.48426 0.28678 0.16576 0.0
O44 O 0.50265 0.28102 0.19885 0.0
C45 C 0.52606 0.32029 0.15359 0.0
O46 O 0.54689 0.28652 0.17892 0.0
Co47 Co 0.53962 0.28045 0.12221 0.0
O48 O 0.56603 0.28735 0.14619 0.0
C49 C 0.5096 0.23831 0.13442 0.0
C50 C 0.4843 0.28335 0.18799 0.0
C51 C 0.56503 0.28776 0.1689 0.0
O52 O 0.50902 0.25031 0.15595 0.0
O53 O 0.5182 0.24809 0.11741 0.0
O54 O 0.522 0.32268 0.1762 0.0
O55 O 0.52108 0.29828 0.14091 0.0
Co56 Co 0.10341 0.82786 0.12766 0.0
O57 O 0.07128 0.82377 0.12436 0.0
O58 O 0.09094 0.82068 0.15712 0.0
C59 C 0.10843 0.86422 0.11147 0.0
O60 O 0.13617 0.83126 0.14149 0.0
Co61 Co 0.132 0.82641 0.08897 0.0
O62 O 0.1585 0.83057 0.1122 0.0
C63 C 0.10714 0.77859 0.09554 0.0
C64 C 0.07167 0.82017 0.1466 0.0
C65 C 0.15559 0.83134 0.13448 0.0
O66 O 0.10032 0.79065 0.11435 0.0
O67 O 0.11924 0.78989 0.08171 0.0
O68 O 0.10657 0.86395 0.13433 0.0
O69 O 0.10776 0.84255 0.09842 0.0
Co70 Co 0.53637 0.77988 0.42707 0.0
O71 O 0.56858 0.7864 0.43113 0.0
O72 O 0.54799 0.76773 0.3971 0.0
C73 C 0.53437 0.81972 0.44475 0.0
O74 O 0.50333 0.77191 0.41271 0.0
Co75 Co 0.50762 0.78024 0.46625 0.0
O76 O 0.48347 0.78312 0.4426 0.0
C77 C 0.52939 0.73844 0.458 0.0
C78 C 0.56764 0.77664 0.40822 0.0
C79 C 0.48516 0.77702 0.41999 0.0
O80 O 0.53533 0.74638 0.43852 0.0
O81 O 0.51873 0.75042 0.47275 0.0
O82 O 0.53769 0.81343 0.42217 0.0
O83 O 0.53329 0.80203 0.45704 0.0
Co84 Co 0.60089 0.32451 0.62702 0.0
O85 O 0.56876 0.32041 0.62296 0.0
O86 O 0.58796 0.31694 0.65595 0.0
C87 C 0.60644 0.36106 0.61122 0.0
O88 O 0.63309 0.32777 0.64204 0.0
Co89 Co 0.63128 0.32396 0.59028 0.0
O90 O 0.65724 0.32947 0.61471 0.0
C91 C 0.6059 0.27567 0.59523 0.0
C92 C 0.56886 0.3166 0.64514 0.0
C93 C 0.65305 0.32913 0.6365 0.0
O94 O 0.59811 0.28741 0.61349 0.0
O95 O 0.61884 0.28731 0.58233 0.0
O96 O 0.60395 0.36056 0.63393 0.0
O97 O 0.60629 0.33953 0.59813 0.0
Co98 Co 0.03721 0.28326 0.92975 0.0
O99 O 0.06933 0.28962 0.93378 0.0
O100 O 0.04872 0.27066 0.89981 0.0
C101 C 0.03541 0.32308 0.94741 0.0
O102 O 1.00414 0.27562 0.91575 0.0
Co103 Co 1.00882 0.28401 0.96954 0.0
O104 O 0.98544 0.28874 0.94604 0.0
C105 C 0.02988 0.24169 0.96053 0.0
C106 C 0.06837 0.27948 0.91099 0.0
C107 C 0.98662 0.28221 0.92337 0.0
O108 O 0.03592 0.24978 0.94117 0.0
O109 O 0.01937 0.2537 0.97547 0.0
O110 O 0.03874 0.31683 0.92481 0.0
O111 O 0.03435 0.30538 0.95968 0.0
Co112 Co 0.43542 0.04651 0.30911 0.0
O113 O 0.43819 0.07831 0.30074 0.0
O114 O 0.40711 0.04982 0.29752 0.0
C115 C 0.4563 0.06004 0.34429 0.0
O116 O 0.42531 1.01259 0.31603 0.0
Co117 Co 0.47409 0.02134 0.31859 0.0
O118 O 0.45227 0.99628 0.33008 0.0
C119 C 0.45677 0.02218 0.26807 0.0
C120 C 0.41699 0.07158 0.2949 0.0
C121 C 0.43196 0.99551 0.32462 0.0
O122 O 0.44114 0.03234 0.27554 0.0
O123 O 0.47181 0.01774 0.28225 0.0
O124 O 0.43554 0.06089 0.34321 0.0
O125 O 0.46378 0.05181 0.32432 0.0
Co126 Co 0.30682 0.19336 0.51047 0.0
O127 O 0.33872 0.19756 0.51394 0.0
O128 O 0.31493 0.16467 0.51922 0.0
C129 C 0.30515 0.20718 0.4747 0.0
O130 O 0.27339 0.1803 0.50769 0.0
Co131 Co 0.2824 0.23527 0.50929 0.0
O132 O 0.25469 0.20978 0.50459 0.0
C133 C 0.30244 0.22937 0.55652 0.0
C134 C 0.33532 0.17551 0.51875 0.0
C135 C 0.25517 0.18757 0.50557 0.0
O136 O 0.30715 0.209 0.54616 0.0
O137 O 0.29425 0.2433 0.54452 0.0
O138 O 0.30648 0.18458 0.47501 0.0
O139 O 0.30589 0.22097 0.49584 0.0
Co140 Co 0.19076 0.0166 0.77968 0.0
O141 O 0.18787 0.97931 0.77706 0.0
O142 O 0.21769 1.00242 0.77101 0.0
C143 C 0.17407 0.02291 0.81851 0.0
O144 O 0.20554 0.0548 0.7825 0.0
Co145 Co 0.15657 0.04776 0.783 0.0
O146 O 0.18054 0.07788 0.78916 0.0
C147 C 0.16084 0.02317 0.73279 0.0
C148 C 0.20837 0.98025 0.77293 0.0
C149 C 0.20039 0.0764 0.78643 0.0
O150 O 0.17748 1.01469 0.74198 0.0
O151 O 0.1498 0.03519 0.747 0.0
O152 O 0.19427 0.02026 0.81694 0.0
O153 O 0.16437 0.02105 0.79697 0.0
Co154 Co 0.33287 0.96138 0.01787 0.0
O155 O 0.30287 0.96294 0.02064 0.0
O156 O 0.33149 0.99467 0.03125 0.0
C157 C 0.32654 0.93868 0.98049 0.0
O158 O 0.36592 0.9664 0.0168 0.0
Co159 Co 0.34716 0.91086 0.00938 0.0
O160 O 0.37468 0.93058 1.00081 0.0
C161 C 0.33382 0.93238 0.05684 0.0
C162 C 0.31027 0.9862 0.02936 0.0
C163 C 0.37964 0.95386 1.00797 0.0
O164 O 0.33528 0.95352 0.05108 0.0
O165 O 0.33589 0.91302 0.04222 0.0
O166 O 0.32916 0.96246 0.98333 0.0
O167 O 0.3266 0.92968 0.99997 0.0
Co168 Co 0.32679 0.40263 0.03573 0.0
O169 O 0.29506 0.3968 0.03302 0.0
O170 O 0.31735 0.43196 0.05071 0.0
C171 C 0.32856 0.38621 0.99611 0.0
O172 O 0.36029 0.41657 0.04038 0.0
Co173 Co 0.35124 0.36014 0.02663 0.0
O174 O 0.37685 0.38651 0.02447 0.0
C175 C 0.33129 0.36993 0.07292 0.0
C176 C 0.29731 0.41966 0.04345 0.0
C177 C 0.37748 0.40906 0.03312 0.0
O178 O 0.3271 0.38999 0.06764 0.0
O179 O 0.33935 0.3549 0.05809 0.0
O180 O 0.32638 0.40872 1.0026 0.0
O181 O 0.32807 0.37374 0.01337 0.0
Co182 Co 0.80809 0.15199 0.01437 0.0
O183 O 0.83898 0.15394 0.01902 0.0
O184 O 0.81322 0.12423 0.02772 0.0
C185 C 0.80863 0.1601 0.97682 0.0
O186 O 0.77465 0.14386 0.01109 0.0
Co187 Co 0.79036 0.19758 1.00438 0.0
O188 O 0.76202 0.17325 0.99578 0.0
C189 C 0.80555 0.19404 0.05468 0.0
C190 C 0.83399 0.13329 0.02649 0.0
C191 C 0.75888 0.1525 1.00242 0.0
O192 O 0.80875 0.17221 0.04774 0.0
O193 O 0.80006 0.20731 0.04002 0.0
O194 O 0.80755 0.13768 0.9799 0.0
O195 O 0.81069 0.17667 0.99624 0.0
Co196 Co 0.19862 0.53872 0.268 0.0
O197 O 0.19585 0.50441 0.26819 0.0
O198 O 0.225 0.52898 0.25814 0.0
C199 C 0.18612 0.54818 0.30426 0.0
O200 O 0.20796 0.57483 0.26663 0.0
Co201 Co 0.1577 0.56285 0.26979 0.0
O202 O 0.18023 0.59403 0.27487 0.0
C203 C 0.16414 0.52889 0.22605 0.0
C204 C 0.21581 0.50739 0.26195 0.0
C205 C 0.20023 0.59439 0.27092 0.0
O206 O 0.18448 0.53095 0.23359 0.0
O207 O 0.15031 0.53753 0.23906 0.0
O208 O 0.2066 0.54658 0.30331 0.0
O209 O 0.17393 0.54216 0.28383 0.0
Co210 Co 0.82826 0.90158 0.5349 0.0
O211 O 0.79652 0.89732 0.53183 0.0
O212 O 0.8201 0.93179 0.54905 0.0
C213 C 0.83042 0.88407 0.49578 0.0
O214 O 0.86173 0.91433 0.54002 0.0
Co215 Co 0.85142 0.8581 0.52772 0.0
O216 O 0.8781 0.88353 0.52602 0.0
C217 C 0.83002 0.8691 0.5726 0.0
C218 C 0.79978 0.92041 0.54198 0.0
C219 C 0.87892 0.9063 0.53383 0.0
O220 O 0.82764 0.88977 0.56722 0.0
O221 O 0.8373 0.85305 0.55815 0.0
O222 O 0.82898 0.90692 0.50153 0.0
O223 O 0.82886 0.87194 0.51332 0.0
Co224 Co 0.9455 0.08265 0.28368 0.0
O225 O 0.94866 0.12023 0.28808 0.0
O226 O 0.91801 0.09527 0.27505 0.0
C227 C 0.9641 0.08015 0.32283 0.0
O228 O 0.93087 0.04414 0.2782 0.0
Co229 Co 0.9809 0.05218 0.28202 0.0
O230 O 0.95717 0.02326 0.28374 0.0
C231 C 0.97398 0.07277 0.2379 0.0
C232 C 0.92784 0.1183 0.28117 0.0
C233 C 0.93681 0.02354 0.28017 0.0
O234 O 0.95668 0.07998 0.2473 0.0
O235 O 0.98655 0.06304 0.2503 0.0
O236 O 0.94425 0.08418 0.32035 0.0
O237 O 0.9727 0.07994 0.30241 0.0
Co238 Co 0.30274 0.6364 0.52839 0.0
O239 O 0.3332 0.63637 0.52926 0.0
O240 O 0.30669 0.60414 0.53142 0.0
C241 C 0.30177 0.65575 0.49728 0.0
O242 O 0.26937 0.63043 0.52705 0.0
Co243 Co 0.28887 0.68725 0.53733 0.0
O244 O 0.25943 0.66629 0.5249 0.0
C245 C 0.31037 0.66964 0.57675 0.0
C246 C 0.32753 0.6134 0.53076 0.0
C247 C 0.25476 0.64305 0.52373 0.0
O248 O 0.30589 0.6475 0.56459 0.0
O249 O 0.30753 0.68828 0.56792 0.0
O250 O 0.30035 0.63209 0.49287 0.0
O251 O 0.30585 0.66655 0.51971 0.0
Co252 Co 0.44469 0.5834 0.78344 0.0
O253 O 0.4476 0.62102 0.7881 0.0
O254 O 0.41707 0.59601 0.77498 0.0
C255 C 0.46328 0.58101 0.82266 0.0
O256 O 0.43014 0.54479 0.77789 0.0
Co257 Co 0.48013 0.55308 0.78188 0.0
O258 O 0.45652 0.52413 0.78383 0.0
C259 C 0.47338 0.57348 0.73759 0.0
C260 C 0.42674 0.61906 0.78139 0.0
C261 C 0.43614 0.52427 0.78011 0.0
O262 O 0.45609 0.58083 0.74698 0.0
O263 O 0.48584 0.5637 0.75007 0.0
O264 O 0.44337 0.58484 0.82009 0.0
O265 O 0.47193 0.58085 0.80227 0.0
Co266 Co 0.69565 0.04364 0.7691 0.0
O267 O 0.69136 1.00918 0.76918 0.0
O268 O 0.72123 0.03233 0.75877 0.0
C269 C 0.68397 0.0541 0.80554 0.0
O270 O 0.70643 0.07957 0.76786 0.0
Co271 Co 0.65641 0.07044 0.77145 0.0
O272 O 0.6799 0.10072 0.77584 0.0
C273 C 0.66076 0.03491 0.72795 0.0
C274 C 0.71115 1.01104 0.76254 0.0
C275 C 0.69972 0.09982 0.77201 0.0
O276 O 0.68112 0.03637 0.7349 0.0
O277 O 0.64763 0.04453 0.74128 0.0
O278 O 0.7041 0.05125 0.80428 0.0
O279 O 0.67151 0.0486 0.78529 0.0
Co280 Co 0.80692 0.69269 0.00986 0.0
O281 O 0.83883 0.69714 0.01387 0.0
O282 O 0.81508 0.66424 0.01921 0.0
C283 C 0.80575 0.70608 0.97383 0.0
O284 O 0.77344 0.67949 1.00669 0.0
Co285 Co 0.7823 0.73419 1.00777 0.0
O286 O 0.7548 0.70833 1.0009 0.0
C287 C 0.80162 0.72871 0.05554 0.0
C288 C 0.83547 0.67522 0.01898 0.0
C289 C 0.75519 0.68636 1.003 0.0
O290 O 0.80678 0.70855 0.04536 0.0
O291 O 0.79326 0.74238 0.04334 0.0
O292 O 0.80718 0.68359 0.97455 0.0
O293 O 0.80608 0.72009 0.99478 0.0
Co294 Co 0.93315 0.55527 0.81325 0.0
O295 O 0.93793 0.58833 0.80774 0.0
O296 O 0.90564 0.56159 0.80249 0.0
C297 C 0.95404 0.56511 0.84854 0.0
O298 O 0.92124 0.52043 0.81699 0.0
Co299 Co 0.96984 0.52644 0.82016 0.0
O300 O 0.94673 0.50136 0.82983 0.0
C301 C 0.95279 0.5312 0.77068 0.0
C302 C 0.91679 0.58339 0.80157 0.0
C303 C 0.9268 0.50201 0.82412 0.0
O304 O 0.93849 0.54304 0.77907 0.0
O305 O 0.96693 0.52428 0.78397 0.0
O306 O 0.9336 0.56723 0.84797 0.0
O307 O 0.96118 0.5577 0.82812 0.0
Co308 Co 0.82998 0.44619 0.52237 0.0
O309 O 0.80006 0.44767 0.5263 0.0
O310 O 0.82884 0.47893 0.53824 0.0
C311 C 0.82343 0.42643 0.48379 0.0
O312 O 0.86293 0.45143 0.5203 0.0
Co313 Co 0.84335 0.3955 0.51003 0.0
O314 O 0.87148 0.4158 0.50339 0.0
C315 C 0.83178 0.41397 0.55904 0.0
C316 C 0.80758 0.47065 0.53611 0.0
C317 C 0.87664 0.43902 0.51112 0.0
O318 O 0.83309 0.43562 0.55441 0.0
O319 O 0.83293 0.39516 0.5431 0.0
O320 O 0.82596 0.45022 0.48871 0.0
O321 O 0.82329 0.41552 0.50207 0.0
Co322 Co 0.69115 0.51591 0.27899 0.0
O323 O 0.68819 0.47841 0.2756 0.0
O324 O 0.71837 0.50196 0.27134 0.0
C325 C 0.67413 0.52182 0.31765 0.0
O326 O 0.70608 0.55415 0.28233 0.0
Co327 Co 0.65717 0.54723 0.28235 0.0
O328 O 0.68115 0.57736 0.28876 0.0
C329 C 0.6615 0.52296 0.23203 0.0
C330 C 0.70895 0.47961 0.27252 0.0
C331 C 0.70102 0.5758 0.28624 0.0
O332 O 0.67816 0.51444 0.24118 0.0
O333 O 0.65044 0.53487 0.24632 0.0
O334 O 0.69431 0.51914 0.31618 0.0
O335 O 0.66456 0.52019 0.29607 0.0
Gd336 Gd 0.09451 0.06787 0.04287 0.0
Gd337 Gd 0.04578 0.03145 0.01082 0.0
C338 C 0.03635 0.94816 1.00325 0.0
C339 C 0.0359 0.93499 0.95959 0.0
C340 C 0.03936 0.97828 0.97714 0.0
C341 C 0.03926 0.97288 1.00032 0.0
C342 C 0.03677 0.95924 0.9565 0.0
C343 C 0.03568 0.92945 0.98293 0.0
C344 C 0.03282 0.94274 0.02623 0.0
C345 C 0.03096 0.96148 0.04523 0.0
N346 N 0.0395 0.99131 0.0196 0.0
C347 C 0.03396 0.98568 0.04149 0.0
H348 H 0.03242 0.9996 0.05662 0.0
C349 C 0.03469 1.00692 0.9522 0.0
N350 N 0.03953 1.00173 0.97463 0.0
C351 C 0.03226 0.98873 0.93125 0.0
C352 C 0.03384 0.9649 0.93337 0.0
H353 H 0.03343 0.02534 0.95047 0.0
H354 H 0.03387 0.91046 0.98494 0.0
H355 H 0.10762 0.09672 0.99624 0.0
H356 H 0.03046 0.924 0.0292 0.0
H357 H 0.02735 0.95736 0.06286 0.0
H358 H 0.03429 0.9202 0.94397 0.0
H359 H 0.10278 0.07524 0.10359 0.0
H360 H 0.11517 0.17399 0.02086 0.0
H361 H 0.11516 0.13853 0.98801 0.0
H362 H 0.11179 0.18177 0.10678 0.0
H363 H 0.02917 0.9931 0.9135 0.0
H364 H 0.03178 0.95078 0.9171 0.0
H365 H 0.11334 0.18994 0.0652 0.0
H366 H 0.10879 0.10857 0.13974 0.0
N367 N 0.10235 0.10769 0.03341 0.0
C368 C 0.11174 0.15553 0.02463 0.0
C369 C 0.11184 0.13559 1.00608 0.0
C370 C 0.10828 0.15148 0.04809 0.0
C371 C 0.10382 0.12706 0.05199 0.0
C372 C 0.10754 0.11176 0.01093 0.0
N373 N 0.10094 0.09897 0.07829 0.0
C374 C 0.10306 0.12252 0.07526 0.0
C375 C 0.10709 0.11277 0.12172 0.0
C376 C 0.10809 0.13697 0.11886 0.0
C377 C 0.10377 0.09395 0.10116 0.0
C378 C 0.10654 0.14218 0.09542 0.0
H379 H 0.1108 0.15156 0.13481 0.0
O380 O 0.12276 0.06312 0.06481 0.0
O381 O 0.07704 0.02783 0.03091 0.0
O382 O 0.0392 0.0399 0.05191 0.0
O383 O 0.06757 0.07274 0.06959 0.0
O384 O 0.08969 0.03975 0.06694 0.0
O385 O 0.12589 0.06916 0.02806 0.0
O386 O 1.01199 0.01611 0.99538 0.0
O387 O 0.06354 0.07092 0.02229 0.0
O388 O 0.1025 0.05589 1.00259 0.0
O389 O 0.07083 0.0304 0.98136 0.0
O390 O 0.05095 0.05928 0.98622 0.0
O391 O 0.01997 0.05138 0.01976 0.0
C392 C 0.08001 0.02066 0.05115 0.0
C393 C 0.10938 0.16644 0.09156 0.0
C394 C 0.11024 0.17109 0.06789 0.0
C395 C 0.13592 0.06649 0.04811 0.0
C396 C 0.15748 0.08265 0.05598 0.0
C397 C 0.16028 0.10823 0.06285 0.0
C398 C 0.17572 0.0719 0.05597 0.0
C399 C 0.19696 0.08642 0.06287 0.0
C400 C 0.18146 0.1229 0.06962 0.0
C401 C 0.1998 0.11208 0.06956 0.0
C402 C 0.04809 0.05799 0.07086 0.0
C403 C 0.06083 0.07832 1.0022 0.0
C404 C 1.00439 0.0338 1.00758 0.0
C405 C 0.98502 0.02657 0.02027 0.0
C406 C 0.98177 1.00532 0.03042 0.0
C407 C 0.96934 0.04116 0.02188 0.0
C408 C 0.95003 0.03435 0.03294 0.0
C409 C 0.96289 0.99873 0.04198 0.0
C410 C 0.947 1.01303 0.04312 0.0
C411 C 0.09195 0.04163 0.98185 0.0
H412 H 0.14626 0.11681 0.06282 0.0
H413 H 0.17336 0.05211 0.05013 0.0
H414 H 0.18367 0.14266 0.07488 0.0
H415 H 0.2161 0.12366 0.0749 0.0
H416 H 0.9936 0.99369 0.02919 0.0
H417 H 0.97224 0.0578 0.01438 0.0
H418 H 0.9604 0.98227 0.04972 0.0
H419 H 0.93217 1.00709 0.05149 0.0
Gd420 Gd 0.30529 0.80767 0.3011 0.0
Gd421 Gd 0.32898 0.77916 0.24726 0.0
C422 C 0.29952 0.69744 0.21608 0.0
C423 C 0.32991 0.67839 0.22519 0.0
C424 C 0.33423 0.72283 0.23575 0.0
C425 C 0.31274 0.72077 0.22667 0.0
C426 C 0.34339 0.70178 0.23413 0.0
C427 C 0.30795 0.67622 0.21624 0.0
C428 C 0.27857 0.69619 0.20477 0.0
C429 C 0.27172 0.71789 0.20318 0.0
N430 N 0.30527 0.74172 0.22663 0.0
C431 C 0.28541 0.74055 0.21395 0.0
H432 H 0.27947 0.75677 0.21234 0.0
C433 C 0.36919 0.74892 0.24813 0.0
N434 N 0.34677 0.74566 0.24403 0.0
C435 C 0.37909 0.72868 0.2468 0.0
C436 C 0.36604 0.70494 0.24036 0.0
H437 H 0.37941 0.76727 0.25337 0.0
H438 H 0.29791 0.65814 0.20858 0.0
H439 H 0.35243 0.83991 0.33586 0.0
H440 H 0.2679 0.67865 0.19647 0.0
H441 H 0.2558 0.71722 0.19382 0.0
H442 H 0.33654 0.66197 0.22422 0.0
H443 H 0.25101 0.8044 0.29253 0.0
H444 H 0.34482 0.91256 0.36302 0.0
H445 H 0.36728 0.88095 0.35982 0.0
H446 H 0.26949 0.90989 0.33733 0.0
H447 H 0.39675 0.73143 0.25086 0.0
H448 H 0.37373 0.68926 0.23927 0.0
H449 H 0.30846 0.92338 0.35394 0.0
H450 H 0.22471 0.83142 0.29891 0.0
N451 N 0.32144 0.84731 0.32449 0.0
C452 C 0.33805 0.89432 0.35237 0.0
C453 C 0.35072 0.87652 0.35068 0.0
C454 C 0.31651 0.88808 0.341 0.0
C455 C 0.30849 0.86405 0.32731 0.0
C456 C 0.34206 0.853 0.33688 0.0
N457 N 0.27931 0.83282 0.30668 0.0
C458 C 0.28669 0.85654 0.31804 0.0
C459 C 0.24213 0.83882 0.30422 0.0
C460 C 0.2497 0.86366 0.31458 0.0
C461 C 0.25718 0.82353 0.30063 0.0
C462 C 0.27216 0.87273 0.32207 0.0
H463 H 0.238 0.87547 0.31742 0.0
O464 O 0.28104 0.7865 0.31941 0.0
O465 O 0.30763 0.77293 0.27623 0.0
O466 O 0.2978 0.7932 0.23645 0.0
O467 O 0.29011 0.82103 0.26928 0.0
O468 O 0.27645 0.77797 0.28329 0.0
O469 O 0.3146 0.80097 0.33666 0.0
O470 O 0.35602 0.78549 0.22496 0.0
O471 O 0.32703 0.81314 0.27223 0.0
O472 O 0.33939 0.80106 0.31259 0.0
O473 O 0.34808 0.77269 0.2812 0.0
O474 O 0.3578 0.81097 0.261 0.0
O475 O 0.32303 0.78988 0.21255 0.0
C476 C 0.28739 0.76308 0.27238 0.0
C477 C 0.28033 0.8971 0.33433 0.0
C478 C 0.3025 0.90478 0.34378 0.0
C479 C 0.29492 0.78853 0.33828 0.0
C480 C 0.28642 0.79199 0.3617 0.0
C481 C 0.28402 0.81482 0.37435 0.0
C482 C 0.28152 0.7712 0.37185 0.0
C483 C 0.27594 0.77294 0.39563 0.0
C484 C 0.27711 0.81654 0.39774 0.0
C485 C 0.27335 0.79573 0.40857 0.0
C486 C 0.28654 0.80983 0.24597 0.0
C487 C 0.34668 0.82468 0.27346 0.0
C488 C 0.3435 0.79089 0.20826 0.0
C489 C 0.35174 0.79751 0.18616 0.0
C490 C 0.36697 0.78561 0.17439 0.0
C491 C 0.34517 0.81685 0.17747 0.0
C492 C 0.35362 0.82429 0.15692 0.0
C493 C 0.3752 0.7928 0.15359 0.0
C494 C 0.36848 0.81205 0.14475 0.0
C495 C 0.35164 0.78533 0.30401 0.0
H496 H 0.28766 0.83107 0.36634 0.0
H497 H 0.28294 0.7536 0.36135 0.0
H498 H 0.2753 0.8341 0.40776 0.0
H499 H 0.26914 0.79764 0.42713 0.0
H500 H 0.37238 0.77078 0.18122 0.0
H501 H 0.3336 0.82625 0.1868 0.0
H502 H 0.38685 0.78354 0.14439 0.0
H503 H 0.37506 0.8176 0.12869 0.0
Gd504 Gd 0.53964 0.0425 0.54234 0.0
Gd505 Gd 0.59389 0.04995 0.52027 0.0
C506 C 0.63646 0.12598 0.52104 0.0
C507 C 0.63861 0.1257 0.47789 0.0
C508 C 0.61826 0.08988 0.49135 0.0
C509 C 0.62327 0.10195 0.51529 0.0
C510 C 0.62628 0.10137 0.47238 0.0
C511 C 0.64367 0.13801 0.5022 0.0
C512 C 0.64261 0.13689 0.54556 0.0
C513 C 0.63638 0.12345 0.56354 0.0
N514 N 0.61638 0.0896 0.53301 0.0
C515 C 0.62352 0.09954 0.55688 0.0
H516 H 0.61885 0.08942 0.57101 0.0
C517 C 0.60349 0.0526 0.46367 0.0
N518 N 0.6066 0.0663 0.48674 0.0
C519 C 0.61098 0.06322 0.4442 0.0
C520 C 0.62221 0.08781 0.44853 0.0
H521 H 0.59484 0.03358 0.46015 0.0
H522 H 0.65366 0.15655 0.50624 0.0
H523 H 0.51376 1.00246 0.49243 0.0
H524 H 0.65265 0.15536 0.55075 0.0
H525 H 0.64144 0.13149 0.58254 0.0
H526 H 0.64477 0.13494 0.46356 0.0
H527 H 0.53753 0.0609 0.602 0.0
H528 H 0.48021 0.93727 0.51424 0.0
H529 H 0.49102 0.9604 0.48179 0.0
H530 H 0.48799 0.95998 0.60128 0.0
H531 H 0.6081 0.05242 0.42589 0.0
H532 H 0.6281 0.09597 0.43343 0.0
H533 H 0.47936 0.9372 0.55898 0.0
H534 H 0.52358 0.04345 0.63671 0.0
N535 N 0.51688 1.0029 0.53053 0.0
C536 C 0.49038 0.95571 0.51903 0.0
C537 C 0.49637 0.96873 0.50068 0.0
C538 C 0.49675 0.96708 0.54339 0.0
C539 C 0.51008 0.99105 0.5486 0.0
C540 C 0.50933 0.99262 0.50682 0.0
N541 N 0.52652 0.02735 0.5763 0.0
C542 C 0.51498 1.00375 0.57231 0.0
C543 C 0.52117 0.03202 0.61871 0.0
C544 C 0.51022 1.00737 0.6151 0.0
C545 C 0.52907 0.04184 0.59896 0.0
C546 C 0.50666 0.993 0.5916 0.0
H547 H 0.50404 0.99982 0.63041 0.0
O548 O 0.52175 0.07032 0.55673 0.0
O549 O 0.56933 0.0702 0.53684 0.0
O550 O 0.59485 0.04872 0.5603 0.0
O551 O 0.56051 0.02743 0.56745 0.0
O552 O 0.55646 0.07682 0.56948 0.0
O553 O 0.51031 0.04664 0.52176 0.0
O554 O 0.61265 0.02347 0.50464 0.0
O555 O 0.56415 0.02216 0.52554 0.0
O556 O 0.53879 0.04264 0.5022 0.0
O557 O 0.57285 0.06494 0.49548 0.0
O558 O 0.57747 0.01551 0.49308 0.0
O559 O 0.62303 0.04558 0.54063 0.0
C560 C 0.57124 0.08583 0.55661 0.0
C561 C 0.49435 0.96866 0.58668 0.0
C562 C 0.48944 0.95569 0.5626 0.0
C563 C 0.50649 0.06404 0.53843 0.0
C564 C 0.48363 0.06153 0.54445 0.0
C565 C 0.47423 0.04252 0.55605 0.0
C566 C 0.47091 0.07792 0.53816 0.0
C567 C 0.44872 0.07495 0.54309 0.0
C568 C 0.45239 0.03976 0.5613 0.0
C569 C 0.43968 0.05577 0.55482 0.0
C570 C 0.58208 0.03477 0.57264 0.0
C571 C 0.56238 1.00663 0.50567 0.0
C572 C 0.62746 0.02915 0.52338 0.0
C573 C 0.65058 0.03256 0.51835 0.0
C574 C 0.66065 0.05311 0.50918 0.0
C575 C 0.66306 0.01578 0.524 0.0
C576 C 0.68566 0.01989 0.52102 0.0
C577 C 0.68303 0.05705 0.50595 0.0
C578 C 0.69554 0.04066 0.51201 0.0
C579 C 0.55146 0.05675 0.48996 0.0
H580 H 0.48371 0.02975 0.56093 0.0
H581 H 0.47807 0.09251 0.52899 0.0
H582 H 0.44525 0.02507 0.5703 0.0
H583 H 0.42274 0.05323 0.55907 0.0
H584 H 0.6513 0.06622 0.50484 0.0
H585 H 0.65539 0.99998 0.53131 0.0
H586 H 0.69076 0.073 0.49898 0.0
H587 H 0.71296 0.04412 0.50961 0.0
Gd588 Gd 0.34578 0.28983 0.78243 0.0
Gd589 Gd 0.29242 0.30723 0.77522 0.0
C590 C 0.26148 0.30478 0.69847 0.0
C591 C 0.262 0.34794 0.69886 0.0
C592 C 0.27547 0.33509 0.73506 0.0
C593 C 0.27119 0.31105 0.72277 0.0
C594 C 0.27018 0.35373 0.72358 0.0
C595 C 0.25769 0.32347 0.68629 0.0
C596 C 0.25484 0.27987 0.6876 0.0
C597 C 0.25679 0.26201 0.70141 0.0
N598 N 0.2746 0.29354 0.73533 0.0
C599 C 0.26636 0.26923 0.72553 0.0
H600 H 0.26785 0.25515 0.73582 0.0
C601 C 0.28345 0.36232 0.77313 0.0
N602 N 0.28288 0.33981 0.75898 0.0
C603 C 0.2785 0.38148 0.7626 0.0
C604 C 0.27226 0.37731 0.7376 0.0
H605 H 0.28842 0.36568 0.79245 0.0
H606 H 0.25054 0.31906 0.66751 0.0
H607 H 0.37266 0.34166 0.82095 0.0
H608 H 0.24737 0.27425 0.66894 0.0
H609 H 0.25106 0.24268 0.69346 0.0
H610 H 0.25813 0.36206 0.68959 0.0
H611 H 0.34936 0.23123 0.76506 0.0
H612 H 0.39342 0.32261 0.8877 0.0
H613 H 0.39038 0.35409 0.86288 0.0
H614 H 0.38076 0.23466 0.86752 0.0
H615 H 0.27956 0.39945 0.77375 0.0
H616 H 0.26832 0.39214 0.72949 0.0
H617 H 0.38926 0.27774 0.88944 0.0
H618 H 0.35813 0.19734 0.78355 0.0
N619 N 0.36466 0.3034 0.82192 0.0
C620 C 0.38552 0.317 0.86922 0.0
C621 C 0.38394 0.3348 0.85524 0.0
C622 C 0.37809 0.29211 0.85864 0.0
C623 C 0.36787 0.28587 0.83455 0.0
C624 C 0.37382 0.32759 0.83134 0.0
N625 N 0.35558 0.25721 0.79848 0.0
C626 C 0.36319 0.26184 0.82233 0.0
C627 C 0.35949 0.21536 0.79473 0.0
C628 C 0.36599 0.21948 0.81966 0.0
C629 C 0.35461 0.23462 0.7843 0.0
C630 C 0.36843 0.2431 0.8337 0.0
H631 H 0.36987 0.20457 0.82769 0.0
O632 O 0.36573 0.27637 0.75463 0.0
O633 O 0.31936 0.29435 0.7558 0.0
O634 O 0.28729 0.2656 0.77583 0.0
O635 O 0.32017 0.25718 0.79087 0.0
O636 O 0.3313 0.26233 0.74881 0.0
O637 O 0.37685 0.31258 0.77642 0.0
O638 O 0.27253 0.31962 0.80358 0.0
O639 O 0.31887 0.30265 0.80167 0.0
O640 O 0.35085 0.33175 0.78267 0.0
O641 O 0.31803 0.34031 0.76757 0.0
O642 O 0.30641 0.33435 0.8093 0.0
O643 O 0.26013 0.28529 0.77887 0.0
C644 C 0.31801 0.27441 0.74063 0.0
C645 C 0.37694 0.24884 0.85831 0.0
C646 C 0.38175 0.27336 0.8708 0.0
C647 C 0.38155 0.2959 0.75967 0.0
C648 C 0.40418 0.29174 0.76211 0.0
C649 C 0.41114 0.28228 0.78201 0.0
C650 C 0.41905 0.2975 0.74487 0.0
C651 C 0.4409 0.29416 0.74791 0.0
C652 C 0.43253 0.27856 0.78485 0.0
C653 C 0.4473 0.28449 0.76803 0.0
C654 C 0.29847 0.25037 0.78411 0.0
C655 C 0.32012 0.32245 0.81697 0.0
C656 C 0.25594 0.30104 0.79687 0.0
C657 C 0.23387 0.30692 0.79513 0.0
C658 C 0.22843 0.31993 0.77739 0.0
C659 C 0.21814 0.29973 0.81111 0.0
C660 C 0.19705 0.30553 0.80916 0.0
C661 C 0.20794 0.32615 0.77572 0.0
C662 C 0.19245 0.31916 0.79145 0.0
C663 C 0.33968 0.34716 0.77463 0.0
H664 H 0.40005 0.27786 0.79543 0.0
H665 H 0.41381 0.30502 0.72955 0.0
H666 H 0.43774 0.27117 0.80024 0.0
H667 H 0.46383 0.28139 0.77073 0.0
H668 H 0.24005 0.32535 0.76483 0.0
H669 H 0.22218 0.28935 0.82463 0.0
H670 H 0.20402 0.33646 0.76212 0.0
H671 H 0.1768 0.32461 0.78976 0.0
Gd672 Gd 0.07453 0.02077 0.50811 0.0
Gd673 Gd 0.06043 0.0728 0.53876 0.0
C674 C 0.06766 0.0888 0.62163 0.0
C675 C 0.02961 0.08584 0.63039 0.0
C676 C 0.0385 0.08017 0.58844 0.0
C677 C 0.06073 0.08333 0.59643 0.0
C678 C 0.02288 0.08218 0.60543 0.0
C679 C 0.05195 0.08916 0.63847 0.0
C680 C 0.09025 0.09492 0.62925 0.0
C681 C 0.10533 0.09659 0.612 0.0
N682 N 0.0757 0.08325 0.57976 0.0
C683 C 0.09776 0.09106 0.58725 0.0
H684 H 0.1099 0.09257 0.57447 0.0
C685 C 1.01158 0.07848 0.556 0.0
N686 N 0.03242 0.07721 0.56421 0.0
C687 C 0.99555 0.08021 0.57216 0.0
C688 C 1.00111 0.08157 0.59692 0.0
H689 H 1.00707 0.07763 0.53695 0.0
H690 H 0.05699 0.09296 0.65785 0.0
H691 H 0.02729 1.00187 0.46904 0.0
H692 H 0.0962 0.09925 0.64842 0.0
H693 H 0.12284 0.10203 0.61773 0.0
H694 H 0.01779 0.0871 0.64367 0.0
H695 H 0.12707 1.0122 0.5128 0.0
H696 H 0.04541 0.99893 0.39682 0.0
H697 H 0.01679 0.99451 0.42524 0.0
H698 H 0.1237 1.00928 0.40705 0.0
H699 H 0.97892 0.08053 0.56551 0.0
H700 H 0.98866 0.08307 0.60942 0.0
H701 H 0.0854 1.00517 0.3903 0.0
H702 H 0.15695 1.00998 0.48659 0.0
N703 N 0.0619 1.01189 0.4663 0.0
C704 C 0.05024 1.00238 0.41623 0.0
C705 C 0.03404 0.99978 0.4322 0.0
C706 C 0.07246 1.00798 0.4254 0.0
C707 C 0.07788 1.01224 0.45084 0.0
C708 C 0.04019 1.00415 0.45724 0.0
N709 N 0.10386 0.0156 0.48454 0.0
C710 C 0.0995 1.0142 0.46024 0.0
C711 C 0.14096 1.01144 0.47899 0.0
C712 C 0.1372 1.01177 0.45429 0.0
C713 C 0.12391 1.01286 0.49385 0.0
C714 C 0.11615 1.01247 0.44449 0.0
H715 H 0.15041 1.01045 0.44278 0.0
O716 O 0.06285 0.99207 0.5282 0.0
O717 O 0.07514 0.041 0.54722 0.0
O718 O 0.09669 0.08282 0.53371 0.0
O719 O 0.10317 0.05113 0.50481 0.0
O720 O 0.10268 0.02835 0.53847 0.0
O721 O 0.07494 0.98275 0.49333 0.0
O722 O 0.05911 0.11058 0.55392 0.0
O723 O 0.05989 0.05274 0.49956 0.0
O724 O 0.0378 1.01273 0.51074 0.0
O725 O 0.0334 0.04131 0.54373 0.0
O726 O 0.03175 0.06421 0.50898 0.0
O727 O 0.06629 0.10083 0.51676 0.0
C728 C 0.09422 0.03914 0.55657 0.0
C729 C 0.11106 1.0103 0.41937 0.0
C730 C 0.08925 1.008 0.40983 0.0
C731 C 0.06879 0.97512 0.51286 0.0
C732 C 0.08194 0.95993 0.52341 0.0
C733 C 0.10123 0.95507 0.51377 0.0
C734 C 0.07488 0.94995 0.54345 0.0
C735 C 0.08666 0.93482 0.55368 0.0
C736 C 0.11318 0.94032 0.52401 0.0
C737 C 0.10592 0.9301 0.54372 0.0
C738 C 0.10908 0.0735 0.51797 0.0
C739 C 0.0405 0.05425 0.49058 0.0
C740 C 0.0654 0.11854 0.53461 0.0
C741 C 0.0836 0.14013 0.53784 0.0
C742 C 0.09777 0.1486 0.55946 0.0
C743 C 0.0871 0.15199 0.51817 0.0
C744 C 0.10403 0.17298 0.51998 0.0
C745 C 0.11499 0.16913 0.56134 0.0
C746 C 0.11802 0.18143 0.54187 0.0
C747 C 0.02632 0.02018 0.52845 0.0
H748 H 0.10704 0.96246 0.49825 0.0
H749 H 0.06016 0.95406 0.55105 0.0
H750 H 0.12797 0.93651 0.51643 0.0
H751 H 0.11515 0.91806 0.55075 0.0
H752 H 0.09559 0.13943 0.57479 0.0
H753 H 0.0766 0.14446 0.50127 0.0
H754 H 0.12584 0.17574 0.57807 0.0
H755 H 0.13099 0.19783 0.54427 0.0
Gd756 Gd 0.29583 0.78454 0.78789 0.0
Gd757 Gd 0.34201 0.81796 0.76874 0.0
C758 C 0.33907 0.87833 0.72525 0.0
C759 C 0.35178 0.86202 0.68701 0.0
C760 C 0.3498 0.83892 0.71985 0.0
C761 C 0.34131 0.85691 0.73398 0.0
C762 C 0.35569 0.84171 0.69645 0.0
C763 C 0.34356 0.88034 0.70141 0.0
C764 C 0.33366 0.89774 0.74118 0.0
C765 C 0.33166 0.89599 0.76545 0.0
N766 N 0.33743 0.85472 0.75712 0.0
C767 C 0.3338 0.87432 0.77319 0.0
H768 H 0.33256 0.8734 0.79203 0.0
C769 C 0.36595 0.80425 0.71796 0.0
N770 N 0.35398 0.81977 0.72973 0.0
C771 C 0.3719 0.8062 0.69468 0.0
C772 C 0.36633 0.82467 0.68365 0.0
H773 H 0.37135 0.79038 0.7262 0.0
H774 H 0.3416 0.89648 0.69429 0.0
H775 H 0.30416 0.72982 0.75975 0.0
H776 H 0.33195 0.91454 0.73522 0.0
H777 H 0.32832 0.91125 0.7782 0.0
H778 H 0.35597 0.86428 0.66897 0.0
H779 H 0.28014 0.81631 0.83847 0.0
H780 H 0.29405 0.67931 0.80807 0.0
H781 H 0.30234 0.68839 0.76772 0.0
H782 H 0.27598 0.72708 0.88025 0.0
H783 H 0.38097 0.79355 0.68536 0.0
H784 H 0.37115 0.82624 0.66569 0.0
H785 H 0.28456 0.69399 0.85008 0.0
H786 H 0.27035 0.8101 0.87873 0.0
N787 N 0.29662 0.74477 0.79501 0.0
C788 C 0.29466 0.69767 0.8046 0.0
C789 C 0.29926 0.70269 0.7818 0.0
C790 C 0.29061 0.71633 0.82253 0.0
C791 C 0.29153 0.73993 0.81704 0.0
C792 C 0.30016 0.7264 0.77731 0.0
N793 N 0.28661 0.78045 0.82749 0.0
C794 C 0.28646 0.75838 0.83386 0.0
C795 C 0.27486 0.79537 0.86631 0.0
C796 C 0.27505 0.77291 0.87321 0.0
C797 C 0.28045 0.79875 0.84324 0.0
C798 C 0.28068 0.75398 0.85686 0.0
H799 H 0.27056 0.77027 0.89105 0.0
O800 O 0.26153 0.78678 0.78904 0.0
O801 O 0.30529 0.81901 0.77074 0.0
O802 O 0.33421 0.83509 0.80518 0.0
O803 O 0.31981 0.80139 0.82083 0.0
O804 O 0.28616 0.82133 0.79879 0.0
O805 O 0.27078 0.75997 0.76117 0.0
O806 O 0.3719 0.81633 0.7904 0.0
O807 O 0.33239 0.78321 0.78543 0.0
O808 O 0.30064 0.76783 0.74986 0.0
O809 O 0.32252 0.79776 0.73379 0.0
O810 O 0.35135 0.78105 0.75726 0.0
O811 O 0.36981 0.84912 0.77682 0.0
C812 C 0.29434 0.83365 0.78317 0.0
C813 C 0.28034 0.73077 0.86267 0.0
C814 C 0.28524 0.71195 0.84551 0.0
C815 C 0.2548 0.76915 0.77022 0.0
C816 C 0.23391 0.75219 0.77096 0.0
C817 C 0.23283 0.73024 0.77961 0.0
C818 C 0.21459 0.75815 0.76204 0.0
C819 C 0.1941 0.74215 0.76122 0.0
C820 C 0.21242 0.71423 0.77898 0.0
C821 C 0.19313 0.72002 0.76967 0.0
C822 C 0.32975 0.82463 0.82387 0.0
C823 C 0.34283 0.76829 0.77253 0.0
C824 C 0.38253 0.83755 0.78719 0.0
C825 C 0.40438 0.83836 0.77851 0.0
C826 C 0.4085 0.84307 0.75526 0.0
C827 C 0.42143 0.83436 0.79377 0.0
C828 C 0.44241 0.83477 0.78584 0.0
C829 C 0.4292 0.843 0.74714 0.0
C830 C 0.4461 0.83882 0.7623 0.0
C831 C 0.30882 0.77635 0.73127 0.0
H832 H 0.24766 0.72543 0.7866 0.0
H833 H 0.2156 0.77503 0.75506 0.0
H834 H 0.21155 0.69721 0.78555 0.0
H835 H 0.17748 0.70732 0.76916 0.0
H836 H 0.39584 0.84695 0.74337 0.0
H837 H 0.41836 0.83094 0.8118 0.0
H838 H 0.43222 0.84652 0.72917 0.0
H839 H 0.46222 0.83944 0.75589 0.0
Gd840 Gd 0.55586 0.07057 0.99264 0.0
Gd841 Gd 0.58014 0.05648 0.04802 0.0
C842 C 0.65464 0.076 0.06521 0.0
C843 C 0.66348 0.03566 0.0619 0.0
C844 C 0.62534 0.03926 0.05554 0.0
C845 C 0.6321 0.06472 0.05943 0.0
C846 C 0.64096 0.02454 0.05737 0.0
C847 C 0.67031 0.06132 0.0658 0.0
C848 C 0.66074 0.1017 0.07085 0.0
C849 C 0.64449 0.11551 0.07138 0.0
N850 N 0.61661 0.07852 0.05869 0.0
C851 C 0.62235 0.10357 0.0654 0.0
H852 H 0.6101 0.11459 0.06572 0.0
C853 C 0.59595 1.0044 0.05094 0.0
N854 N 0.60344 0.02896 0.05124 0.0
C855 C 0.61082 0.98909 0.05251 0.0
C856 C 0.63344 0.99913 0.05533 0.0
H857 H 0.5785 0.99647 0.04897 0.0
H858 H 0.68771 0.06968 0.06987 0.0
H859 H 0.57615 0.0499 0.9401 0.0
H860 H 0.67789 0.11104 0.07532 0.0
H861 H 0.64901 0.13539 0.07614 0.0
H862 H 0.67573 0.02463 0.06307 0.0
H863 H 0.50913 0.09023 1.00685 0.0
H864 H 0.52563 0.99329 0.89665 0.0
H865 H 0.56396 0.01775 0.90322 0.0
H866 H 0.46115 1.00245 0.93636 0.0
H867 H 0.60483 0.96958 0.05162 0.0
H868 H 0.64492 0.98723 0.05664 0.0
H869 H 0.48731 0.98694 0.90982 0.0
H870 H 0.46912 0.07461 0.99855 0.0
N871 N 0.54522 0.04323 0.95476 0.0
C872 C 0.5309 1.00738 0.9129 0.0
C873 C 0.55251 0.02126 0.91646 0.0
C874 C 0.51602 1.0129 0.92962 0.0
C875 C 0.52375 0.03142 0.95046 0.0
C876 C 0.55932 0.03956 0.93735 0.0
N877 N 0.51712 0.05971 0.9836 0.0
C878 C 0.50913 0.04001 0.96543 0.0
C879 C 0.48019 0.06441 0.9894 0.0
C880 C 0.47177 0.04258 0.97265 0.0
C881 C 0.50302 0.073 0.99436 0.0
C882 C 0.48627 0.03051 0.95983 0.0
H883 H 0.45408 0.03596 0.96886 0.0
O884 O 0.56545 0.11049 1.00176 0.0
O885 O 0.58587 0.07883 0.01933 0.0
O886 O 0.57286 0.09428 0.05377 0.0
O887 O 0.54162 0.08488 0.02679 0.0
O888 O 0.59006 0.07145 0.98225 0.0
O889 O 0.55229 0.09288 0.96529 0.0
O890 O 0.5555 0.05481 0.0737 0.0
O891 O 0.5497 0.05252 0.02385 0.0
O892 O 0.56566 0.03358 0.983 0.0
O893 O 0.58834 0.0304 0.01687 0.0
O894 O 0.5535 0.02149 0.037 0.0
O895 O 0.58985 0.06109 0.08673 0.0
C896 C 0.5998 0.07694 1.00401 0.0
C897 C 0.47862 1.01039 0.94055 0.0
C898 C 0.49351 1.00158 0.92543 0.0
C899 C 0.56265 0.11325 0.9795 0.0
C900 C 0.58215 0.12737 0.97094 0.0
C901 C 0.58962 0.15253 0.98057 0.0
C902 C 0.59464 0.11529 0.95498 0.0
C903 C 0.61422 0.12811 0.94797 0.0
C904 C 0.60923 0.16544 0.97401 0.0
C905 C 0.62146 0.15339 0.95775 0.0
C906 C 0.55342 0.09803 0.04688 0.0
C907 C 0.54093 0.03035 0.02331 0.0
C908 C 0.56966 0.05581 0.09199 0.0
C909 C 0.56397 0.03633 0.10605 0.0
C910 C 0.5773 0.01932 0.10816 0.0
C911 C 0.54413 0.03412 0.1166 0.0
C912 C 0.53744 0.01516 0.12933 0.0
C913 C 0.57055 1.00012 0.12044 0.0
C914 C 0.55071 0.99799 0.131 0.0
C915 C 0.57967 0.02307 0.99399 0.0
H916 H 0.58045 0.16207 0.99339 0.0
H917 H 0.58917 0.09572 0.94821 0.0
H918 H 0.61493 0.18488 0.98147 0.0
H919 H 0.63625 0.16401 0.95248 0.0
H920 H 0.59284 0.02079 0.10033 0.0
H921 H 0.53381 0.0472 0.11481 0.0
H922 H 0.58082 0.98701 0.12199 0.0
H923 H 0.54609 0.98338 0.14105 0.0
Gd924 Gd 0.29463 0.26518 0.25995 0.0
Gd925 Gd 0.33244 0.3219 0.29129 0.0
C926 C 0.39962 0.35397 0.26792 0.0
C927 C 0.42335 0.3305 0.28472 0.0
C928 C 0.38415 0.32242 0.28997 0.0
C929 C 0.38141 0.34052 0.27712 0.0
C930 C 0.40528 0.31741 0.29411 0.0
C931 C 0.4205 0.34863 0.27152 0.0
C932 C 0.39642 0.37276 0.25577 0.0
C933 C 0.37571 0.37851 0.25399 0.0
N934 N 0.36108 0.34537 0.27403 0.0
C935 C 0.35832 0.36501 0.2638 0.0
H936 H 0.34264 0.37044 0.26349 0.0
C937 C 0.36845 0.29099 0.3103 0.0
N938 N 0.36616 0.30937 0.29798 0.0
C939 C 0.3891 0.28579 0.31527 0.0
C940 C 0.40761 0.29908 0.30721 0.0
H941 H 0.35457 0.27951 0.31594 0.0
H942 H 0.43462 0.35864 0.26444 0.0
H943 H 0.26253 0.26142 0.30735 0.0
H944 H 0.40996 0.3834 0.24837 0.0
H945 H 0.3732 0.39361 0.24544 0.0
H946 H 0.4396 0.32666 0.2875 0.0
H947 H 0.29201 0.24745 0.1995 0.0
H948 H 0.19741 0.26366 0.28168 0.0
H949 H 0.22446 0.26115 0.31474 0.0
H950 H 0.20003 0.25967 0.19628 0.0
H951 H 0.39064 0.2712 0.325 0.0
H952 H 0.42354 0.29474 0.31078 0.0
H953 H 0.18872 0.26432 0.23772 0.0
H954 H 0.26579 0.24308 0.1633 0.0
N955 N 0.25826 0.26502 0.27005 0.0
C956 C 0.21436 0.26396 0.27817 0.0
C957 C 0.22956 0.26243 0.29684 0.0
C958 C 0.22098 0.26468 0.25493 0.0
C959 C 0.24323 0.26476 0.25125 0.0
C960 C 0.25143 0.26271 0.29242 0.0
N961 N 0.27037 0.25943 0.2246 0.0
C962 C 0.24952 0.26203 0.22784 0.0
C963 C 0.26106 0.24871 0.18131 0.0
C964 C 0.2401 0.25333 0.18421 0.0
C965 C 0.27587 0.25127 0.20184 0.0
C966 C 0.23386 0.25933 0.20768 0.0
H967 H 0.22854 0.25107 0.16829 0.0
O968 O 0.30947 0.23511 0.26682 0.0
O969 O 0.32971 0.28427 0.27047 0.0
O970 O 0.32412 0.3266 0.25241 0.0
O971 O 0.29752 0.29163 0.23333 0.0
O972 O 0.32112 0.2647 0.23461 0.0
O973 O 0.27669 0.22728 0.24836 0.0
O974 O 0.32913 0.33351 0.32978 0.0
O975 O 0.29794 0.30055 0.28512 0.0
O976 O 0.29845 0.26371 0.29994 0.0
O977 O 0.32504 0.29809 0.31958 0.0
O978 O 0.30262 0.33674 0.2816 0.0
O979 O 0.34396 0.36008 0.30933 0.0
C980 C 0.33685 0.27831 0.25014 0.0
C981 C 0.21219 0.26132 0.21152 0.0
C982 C 0.20575 0.26396 0.23512 0.0
C983 C 0.29346 0.21833 0.25427 0.0
C984 C 0.30003 0.20032 0.23553 0.0
C985 C 0.29119 0.1956 0.21104 0.0
C986 C 0.31617 0.1882 0.24234 0.0
C987 C 0.32396 0.17188 0.22495 0.0
C988 C 0.29899 0.17947 0.19359 0.0
C989 C 0.31536 0.16767 0.20045 0.0
C990 C 0.31034 0.31352 0.23347 0.0
C991 C 0.28792 0.31707 0.2816 0.0
C992 C 0.33599 0.35667 0.32955 0.0
C993 C 0.32176 0.3731 0.3394 0.0
C994 C 0.31865 0.37629 0.36421 0.0
C995 C 0.31119 0.38561 0.32432 0.0
C996 C 0.29808 0.40159 0.3341 0.0
C997 C 0.30541 0.39205 0.37392 0.0
C998 C 0.29527 0.40481 0.35899 0.0
C999 C 0.31127 0.27686 0.31945 0.0
H1000 H 0.2783 0.20426 0.20534 0.0
H1001 H 0.32245 0.19129 0.26137 0.0
H1002 H 0.29228 0.17605 0.17473 0.0
H1003 H 0.32122 0.15521 0.18668 0.0
H1004 H 0.32653 0.36665 0.37606 0.0
H1005 H 0.3135 0.38343 0.30514 0.0
H1006 H 0.3031 0.39449 0.39308 0.0
H1007 H 0.28516 0.41708 0.36682 0.0
Gd1008 Gd 0.57383 0.52239 1.00748 0.0
Gd1009 Gd 0.5601 0.57384 0.03931 0.0
C1010 C 0.56888 0.58984 0.12231 0.0
C1011 C 0.53103 0.58626 0.13194 0.0
C1012 C 0.53915 0.58076 0.0897 0.0
C1013 C 0.56153 0.58436 0.09719 0.0
C1014 C 0.52382 0.58244 0.10709 0.0
C1015 C 0.5535 0.58996 0.13953 0.0
C1016 C 0.59154 0.59611 0.1295 0.0
C1017 C 0.60628 0.59787 0.11193 0.0
N1018 N 0.57618 0.5845 0.08016 0.0
C1019 C 0.59833 0.59238 0.0873 0.0
H1020 H 0.61034 0.59406 0.07444 0.0
C1021 C 0.5114 0.57819 0.05783 0.0
N1022 N 0.53257 0.5776 0.06558 0.0
C1023 C 0.49567 0.57962 0.07439 0.0
C1024 C 0.50181 0.58129 0.09907 0.0
H1025 H 0.50643 0.57698 0.03881 0.0
H1026 H 0.55889 0.59379 0.15883 0.0
H1027 H 0.52732 0.50489 0.96762 0.0
H1028 H 0.59779 0.60042 0.14858 0.0
H1029 H 0.62384 0.60338 0.11733 0.0
H1030 H 0.51945 0.58729 0.1455 0.0
H1031 H 0.62606 0.51263 0.01323 0.0
H1032 H 0.54681 0.5019 0.8959 0.0
H1033 H 0.51759 0.49791 0.92365 0.0
H1034 H 0.62479 0.51023 0.90772 0.0
H1035 H 0.47883 0.57944 0.0681 0.0
H1036 H 0.48959 0.58254 0.11189 0.0
H1037 H 0.58693 0.50725 0.89023 0.0
H1038 H 0.65614 0.50943 0.98764 0.0
N1039 N 0.56205 0.51437 0.96555 0.0
C1040 C 0.55129 0.50522 0.91537 0.0
C1041 C 0.53475 0.50285 0.93095 0.0
C1042 C 0.57337 0.51034 0.92499 0.0
C1043 C 0.57834 0.51444 0.95049 0.0
C1044 C 0.54044 0.50703 0.95607 0.0
N1045 N 0.60361 0.51704 0.98469 0.0
C1046 C 0.59973 0.5158 0.96033 0.0
C1047 C 0.64047 0.51156 0.97979 0.0
C1048 C 0.63727 0.51209 0.95509 0.0
C1049 C 0.6233 0.51367 0.99434 0.0
C1050 C 0.61657 0.51357 0.94493 0.0
H1051 H 0.65058 0.51029 0.94384 0.0
O1052 O 0.5626 0.49308 0.02694 0.0
O1053 O 0.57447 0.54168 0.04709 0.0
O1054 O 0.59651 0.58329 0.03454 0.0
O1055 O 0.60174 0.55316 1.00329 0.0
O1056 O 0.60197 0.52935 0.03788 0.0
O1057 O 0.5727 0.48446 0.99088 0.0
O1058 O 0.55512 0.61047 0.05316 0.0
O1059 O 0.55924 0.5546 0.99977 0.0
O1060 O 0.537 0.51446 0.00973 0.0
O1061 O 0.53343 0.54186 0.04394 0.0
O1062 O 0.53136 0.56622 0.00955 0.0
O1063 O 0.56937 0.60295 0.01917 0.0
C1064 C 0.59357 0.53971 0.05626 0.0
C1065 C 0.61198 0.51162 0.91976 0.0
C1066 C 0.59042 0.50996 0.90981 0.0
C1067 C 0.56737 0.47629 0.01037 0.0
C1068 C 0.58046 0.46006 0.01906 0.0
C1069 C 0.59828 0.45376 1.00713 0.0
C1070 C 0.57463 0.45033 0.03956 0.0
C1071 C 0.58596 0.43385 0.04793 0.0
C1072 C 0.60992 0.43773 0.01561 0.0
C1073 C 0.60374 0.42764 0.03577 0.0
C1074 C 0.60836 0.57492 0.0176 0.0
C1075 C 0.53997 0.55649 0.99095 0.0
C1076 C 0.56452 0.6196 0.03581 0.0
C1077 C 0.58089 0.64284 0.04247 0.0
C1078 C 0.58839 0.65404 0.06673 0.0
C1079 C 0.58804 0.6547 0.02372 0.0
C1080 C 0.60121 0.67857 0.02873 0.0
C1081 C 0.60233 0.67737 0.07197 0.0
C1082 C 0.60844 0.6898 0.05317 0.0
C1083 C 0.52583 0.52136 0.02794 0.0
H1084 H 0.60313 0.46101 0.9912 0.0
H1085 H 0.56112 0.45563 0.04893 0.0
H1086 H 0.62355 0.4328 1.00629 0.0
H1087 H 0.61256 0.41457 0.04142 0.0
H1088 H 0.58325 0.64502 0.08157 0.0
H1089 H 0.58274 0.64532 1.00508 0.0
H1090 H 0.6079 0.68615 0.0907 0.0
H1091 H 0.61826 0.70837 0.05792 0.0
Gd1092 Gd 0.79621 0.28065 0.28241 0.0
Gd1093 Gd 0.84394 0.31897 0.26696 0.0
C1094 C 0.84286 0.37197 0.21464 0.0
C1095 C 0.8578 0.35205 0.17944 0.0
C1096 C 0.85334 0.33296 0.21495 0.0
C1097 C 0.84473 0.35223 0.2263 0.0
C1098 C 0.86005 0.33271 0.19138 0.0
C1099 C 0.84922 0.37164 0.19104 0.0
C1100 C 0.83519 0.39176 0.22731 0.0
C1101 C 0.83038 0.3919 0.2513 0.0
N1102 N 0.83903 0.35221 0.24922 0.0
C1103 C 0.83276 0.37199 0.26211 0.0
H1104 H 0.83053 0.37265 0.28107 0.0
C1105 C 0.86396 0.29532 0.21642 0.0
N1106 N 0.85524 0.3145 0.22706 0.0
C1107 C 0.87086 0.29434 0.19311 0.0
C1108 C 0.8689 0.31309 0.18052 0.0
H1109 H 0.86507 0.28017 0.22525 0.0
H1110 H 0.84785 0.38661 0.18175 0.0
H1111 H 0.80779 0.22606 0.26294 0.0
H1112 H 0.83356 0.40731 0.21901 0.0
H1113 H 0.82523 0.4075 0.2616 0.0
H1114 H 0.86282 0.35214 0.16131 0.0
H1115 H 0.77548 0.31689 0.32607 0.0
H1116 H 0.8006 0.18506 0.32027 0.0
H1117 H 0.80863 0.18776 0.2781 0.0
H1118 H 0.77676 0.2393 0.38377 0.0
H1119 H 0.87751 0.27896 0.18478 0.0
H1120 H 0.87421 0.31221 0.16243 0.0
H1121 H 0.78911 0.20463 0.35979 0.0
H1122 H 0.76383 0.31579 0.36687 0.0
N1123 N 0.79987 0.24491 0.29636 0.0
C1124 C 0.8003 0.20193 0.31375 0.0
C1125 C 0.80481 0.20336 0.28992 0.0
C1126 C 0.79476 0.222 0.32861 0.0
C1127 C 0.79438 0.24344 0.31916 0.0
C1128 C 0.80453 0.22514 0.28146 0.0
N1129 N 0.78546 0.28253 0.32216 0.0
C1130 C 0.78696 0.26279 0.33246 0.0
C1131 C 0.77028 0.30076 0.35738 0.0
C1132 C 0.77218 0.28089 0.3684 0.0
C1133 C 0.77678 0.30118 0.33406 0.0
C1134 C 0.78037 0.26147 0.35586 0.0
H1135 H 0.767 0.28057 0.38643 0.0
O1136 O 0.76736 0.27918 0.25741 0.0
O1137 O 0.80842 0.31931 0.27489 0.0
O1138 O 0.83241 0.33477 0.30209 0.0
O1139 O 0.81748 0.30037 0.31691 0.0
O1140 O 0.77695 0.31156 0.28336 0.0
O1141 O 0.7698 0.24804 0.27382 0.0
O1142 O 0.87367 0.32224 0.29119 0.0
O1143 O 0.83193 0.28073 0.27567 0.0
O1144 O 0.80767 0.26484 0.24689 0.0
O1145 O 0.82184 0.3001 0.23324 0.0
O1146 O 0.86317 0.28825 0.26689 0.0
O1147 O 0.86855 0.3532 0.27585 0.0
C1148 C 0.79098 0.32903 0.27731 0.0
C1149 C 0.78168 0.24061 0.36578 0.0
C1150 C 0.78877 0.22088 0.35215 0.0
C1151 C 0.75687 0.25858 0.26233 0.0
C1152 C 0.73516 0.25867 0.27144 0.0
C1153 C 0.73122 0.25334 0.29455 0.0
C1154 C 0.71854 0.26524 0.25756 0.0
C1155 C 0.69814 0.26647 0.26663 0.0
C1156 C 0.71106 0.25454 0.30359 0.0
C1157 C 0.69458 0.26102 0.28975 0.0
C1158 C 0.82778 0.32364 0.32044 0.0
C1159 C 0.84933 0.27099 0.27349 0.0
C1160 C 0.88259 0.34377 0.28708 0.0
C1161 C 0.90451 0.34607 0.27818 0.0
C1162 C 0.9073 0.34869 0.25404 0.0
C1163 C 0.92264 0.34445 0.29348 0.0
C1164 C 0.94342 0.34528 0.28473 0.0
C1165 C 0.92777 0.34931 0.24523 0.0
C1166 C 0.94573 0.34752 0.2604 0.0
C1167 C 0.81224 0.27665 0.22899 0.0
H1168 H 0.74369 0.24831 0.30577 0.0
H1169 H 0.72163 0.26976 0.23992 0.0
H1170 H 0.70819 0.25037 0.32136 0.0
H1171 H 0.67892 0.2614 0.29701 0.0
H1172 H 0.89369 0.35017 0.24189 0.0
H1173 H 0.92054 0.34272 0.31217 0.0
H1174 H 0.9297 0.35107 0.22655 0.0
H1175 H 0.96139 0.34768 0.25299 0.0
Gd1176 Gd 0.04845 0.56275 0.49486 0.0
Gd1177 Gd 0.07593 0.5499 0.54925 0.0
C1178 C 0.15049 0.57626 0.56663 0.0
C1179 C 0.1629 0.53778 0.55943 0.0
C1180 C 0.12377 0.53766 0.55406 0.0
C1181 C 0.12847 0.56316 0.56004 0.0
C1182 C 0.14092 0.52471 0.55446 0.0
C1183 C 0.16766 0.5635 0.56561 0.0
C1184 C 0.15458 0.60172 0.57488 0.0
C1185 C 0.13693 0.61341 0.5772 0.0
N1186 N 0.11149 0.57504 0.56098 0.0
C1187 C 0.11539 0.59973 0.57041 0.0
H1188 H 0.10221 0.60934 0.57279 0.0
C1189 C 0.09694 0.50059 0.54898 0.0
N1190 N 0.10237 0.52547 0.5499 0.0
C1191 C 0.11332 0.48694 0.54882 0.0
C1192 C 0.13542 0.499 0.55106 0.0
H1193 H 0.07985 0.49117 0.5475 0.0
H1194 H 0.18466 0.57331 0.57034 0.0
H1195 H 0.03695 0.49761 0.47416 0.0
H1196 H 0.17125 0.6124 0.58009 0.0
H1197 H 0.13988 0.63301 0.58418 0.0
H1198 H 0.17629 0.52815 0.55952 0.0
H1199 H 0.02289 0.60889 0.50963 0.0
H1200 H 0.97602 0.47687 0.43059 0.0
H1201 H 1.00993 0.46685 0.44714 0.0
H1202 H 0.94566 0.54831 0.44532 0.0
H1203 H 0.10888 0.46715 0.54714 0.0
H1204 H 0.14812 0.48841 0.55121 0.0
H1205 H 0.95222 0.50718 0.4302 0.0
H1206 H 0.98781 0.61988 0.49946 0.0
N1207 N 0.02166 0.52812 0.47102 0.0
C1208 C 0.98859 0.49128 0.44185 0.0
C1209 C 1.00773 0.48562 0.45101 0.0
C1210 C 0.98528 0.5151 0.4486 0.0
C1211 C 1.00214 0.53327 0.46352 0.0
C1212 C 0.02378 0.50398 0.46595 0.0
N1213 N 0.01383 0.5726 0.48814 0.0
C1214 C 0.99813 0.55616 0.47243 0.0
C1215 C 0.99041 0.60185 0.49177 0.0
C1216 C 0.97399 0.585 0.47593 0.0
C1217 C 1.01032 0.59539 0.49756 0.0
C1218 C 0.97767 0.56184 0.4661 0.0
H1219 H 0.95852 0.59002 0.47148 0.0
O1220 O 0.05885 0.60234 0.49926 0.0
O1221 O 0.07894 0.57304 0.52127 0.0
O1222 O 0.068 0.58756 0.55502 0.0
O1223 O 0.03568 0.57681 0.53008 0.0
O1224 O 0.0826 0.56477 0.48382 0.0
O1225 O 0.04968 0.57985 0.46304 0.0
O1226 O 0.0529 0.55227 0.5766 0.0
O1227 O 0.04463 0.54475 0.52637 0.0
O1228 O 0.06451 0.53151 0.48078 0.0
O1229 O 0.08135 0.52295 0.51641 0.0
O1230 O 0.05011 0.5141 0.53918 0.0
O1231 O 0.08526 0.54681 0.58637 0.0
C1232 C 0.09265 0.57231 0.50554 0.0
C1233 C 0.9614 0.54422 0.45043 0.0
C1234 C 0.96518 0.52087 0.44174 0.0
C1235 C 0.05882 0.60164 0.47594 0.0
C1236 C 0.07944 0.61495 0.46854 0.0
C1237 C 0.08767 0.63979 0.47917 0.0
C1238 C 0.09183 0.60278 0.45239 0.0
C1239 C 0.11217 0.61524 0.44659 0.0
C1240 C 0.10791 0.65226 0.47372 0.0
C1241 C 0.12009 0.64016 0.4575 0.0
C1242 C 0.04803 0.59069 0.5494 0.0
C1243 C 0.03644 0.52258 0.52644 0.0
C1244 C 0.06562 0.54663 0.59287 0.0
C1245 C 0.05538 0.5262 0.60405 0.0
C1246 C 0.06318 0.50436 0.60212 0.0
C1247 C 0.0367 0.52838 0.61604 0.0
C1248 C 0.02593 0.50919 0.62658 0.0
C1249 C 0.05228 0.48495 0.61214 0.0
C1250 C 0.03377 0.48731 0.6244 0.0
C1251 C 0.07579 0.51867 0.49258 0.0
H1252 H 0.07853 0.64946 0.49194 0.0
H1253 H 0.08577 0.58345 0.44465 0.0
H1254 H 0.11414 0.67143 0.482 0.0
H1255 H 0.13542 0.65054 0.45312 0.0
H1256 H 0.07761 0.50223 0.59292 0.0
H1257 H 0.03055 0.54514 0.61712 0.0
H1258 H 0.05835 0.46815 0.61067 0.0
H1259 H 0.02602 0.47233 0.63272 0.0
Gd1260 Gd 0.84637 0.78975 0.28173 0.0
Gd1261 Gd 0.79248 0.80612 0.27401 0.0
C1262 C 0.75994 0.79541 0.19602 0.0
C1263 C 0.75991 0.83746 0.19196 0.0
C1264 C 0.77399 0.82872 0.23015 0.0
C1265 C 0.76991 0.80405 0.22013 0.0
C1266 C 0.76836 0.84569 0.21649 0.0
C1267 C 0.75572 0.81232 0.18172 0.0
C1268 C 0.75358 0.77003 0.18739 0.0
C1269 C 0.75612 0.75405 0.20312 0.0
N1270 N 0.77392 0.78832 0.23467 0.0
C1271 C 0.766 0.76353 0.22689 0.0
H1272 H 0.76776 0.7506 0.23839 0.0
C1273 C 0.78254 0.85939 0.26583 0.0
N1274 N 0.78174 0.83585 0.25393 0.0
C1275 C 0.77727 0.87695 0.2531 0.0
C1276 C 0.77054 0.87018 0.22819 0.0
H1277 H 0.78808 0.86484 0.28505 0.0
H1278 H 0.74841 0.80606 0.16304 0.0
H1279 H 0.87114 0.84218 0.32092 0.0
H1280 H 0.74593 0.76263 0.16898 0.0
H1281 H 0.75061 0.73437 0.19691 0.0
H1282 H 0.75579 0.85025 0.18105 0.0
H1283 H 0.85062 0.73142 0.26457 0.0
H1284 H 0.89365 0.82357 0.38717 0.0
H1285 H 0.88882 0.8549 0.36277 0.0
H1286 H 0.88341 0.73584 0.36679 0.0
H1287 H 0.77853 0.8957 0.26248 0.0
H1288 H 0.76638 0.88377 0.21835 0.0
H1289 H 0.89105 0.77889 0.38869 0.0
H1290 H 0.86033 0.69794 0.28306 0.0
N1291 N 0.86486 0.80377 0.3214 0.0
C1292 C 0.88575 0.81782 0.36869 0.0
C1293 C 0.88316 0.83553 0.35495 0.0
C1294 C 0.87913 0.79288 0.35798 0.0
C1295 C 0.86885 0.78641 0.3339 0.0
C1296 C 0.87305 0.82814 0.33106 0.0
N1297 N 0.85672 0.75749 0.29792 0.0
C1298 C 0.86461 0.76236 0.32169 0.0
C1299 C 0.86147 0.71593 0.2942 0.0
C1300 C 0.86827 0.72027 0.31908 0.0
C1301 C 0.85604 0.73496 0.28378 0.0
C1302 C 0.87041 0.74388 0.33305 0.0
H1303 H 0.87258 0.70556 0.3271 0.0
O1304 O 0.8666 0.77664 0.254 0.0
O1305 O 0.81988 0.7941 0.25489 0.0
O1306 O 0.78787 0.7649 0.27591 0.0
O1307 O 0.82114 0.75659 0.28998 0.0
O1308 O 0.8321 0.76225 0.248 0.0
O1309 O 0.87756 0.81264 0.27613 0.0
O1310 O 0.76883 0.82208 0.29524 0.0
O1311 O 0.81928 0.80281 0.30085 0.0
O1312 O 0.85154 0.83137 0.28171 0.0
O1313 O 0.81837 0.83993 0.26786 0.0
O1314 O 0.8061 0.83403 0.3076 0.0
O1315 O 0.76529 0.78297 0.28724 0.0
C1316 C 0.81874 0.77421 0.23974 0.0
C1317 C 0.87913 0.74984 0.3576 0.0
C1318 C 0.88348 0.77434 0.37007 0.0
C1319 C 0.88238 0.7962 0.25923 0.0
C1320 C 0.90513 0.79218 0.2616 0.0
C1321 C 0.91208 0.78249 0.28134 0.0
C1322 C 0.92016 0.79836 0.24455 0.0
C1323 C 0.94211 0.79521 0.24769 0.0
C1324 C 0.93352 0.77894 0.28424 0.0
C1325 C 0.94841 0.78527 0.26767 0.0
C1326 C 0.79936 0.7497 0.28374 0.0
C1327 C 0.81997 0.82266 0.31589 0.0
C1328 C 0.75669 0.80104 0.29697 0.0
C1329 C 0.73264 0.79781 0.29125 0.0
C1330 C 0.72401 0.79494 0.267 0.0
C1331 C 0.71816 0.7973 0.30975 0.0
C1332 C 0.69512 0.79407 0.30386 0.0
C1333 C 0.70139 0.79134 0.26103 0.0
C1334 C 0.68709 0.7908 0.27916 0.0
C1335 C 0.84011 0.84679 0.27432 0.0
H1336 H 0.90094 0.77777 0.29461 0.0
H1337 H 0.91497 0.80607 0.22935 0.0
H1338 H 0.93869 0.77137 0.29952 0.0
H1339 H 0.96497 0.7823 0.27046 0.0
H1340 H 0.73477 0.79534 0.25262 0.0
H1341 H 0.72482 0.79974 0.32855 0.0
H1342 H 0.69488 0.78888 0.24219 0.0
H1343 H 0.66958 0.78756 0.27371 0.0
Gd1344 Gd 0.80301 0.31073 0.8097 0.0
Gd1345 Gd 0.82793 0.28676 0.75448 0.0
C1346 C 0.78752 0.21462 0.70805 0.0
C1347 C 0.79827 0.18388 0.72868 0.0
C1348 C 0.81568 0.22725 0.74224 0.0
C1349 C 0.80248 0.23325 0.72466 0.0
C1350 C 0.81429 0.20234 0.74387 0.0
C1351 C 0.78485 0.19003 0.71079 0.0
C1352 C 0.77651 0.22115 0.68852 0.0
C1353 C 0.78183 0.24534 0.68493 0.0
N1354 N 0.80567 0.25712 0.72245 0.0
C1355 C 0.79709 0.26295 0.70171 0.0
H1356 H 0.80176 0.2814 0.69829 0.0
C1357 C 0.84656 0.23984 0.77154 0.0
N1358 N 0.83068 0.24567 0.75691 0.0
C1359 C 0.84591 0.21547 0.77374 0.0
C1360 C 0.82938 0.19667 0.76029 0.0
H1361 H 0.86021 0.25348 0.78145 0.0
H1362 H 0.77311 0.17554 0.69855 0.0
H1363 H 0.82293 0.30595 0.86535 0.0
H1364 H 0.76483 0.20743 0.67542 0.0
H1365 H 0.77438 0.2504 0.66915 0.0
H1366 H 0.79661 0.16474 0.73009 0.0
H1367 H 0.77751 0.35053 0.78361 0.0
H1368 H 0.85848 0.37712 0.90266 0.0
H1369 H 0.84684 0.33229 0.90096 0.0
H1370 H 0.83672 0.43081 0.85317 0.0
H1371 H 0.8583 0.21122 0.78574 0.0
H1372 H 0.82889 0.1778 0.76208 0.0
H1373 H 0.85503 0.41383 0.88432 0.0
H1374 H 0.78142 0.3944 0.78638 0.0
N1375 N 0.82215 0.33532 0.84644 0.0
C1376 C 0.84812 0.36559 0.88694 0.0
C1377 C 0.84153 0.34035 0.88609 0.0
C1378 C 0.84025 0.37583 0.8681 0.0
C1379 C 0.82691 0.35998 0.84797 0.0
C1380 C 0.82801 0.32551 0.8659 0.0
N1381 N 0.80312 0.35341 0.81216 0.0
C1382 C 0.81679 0.3694 0.83042 0.0
C1383 C 0.79173 0.38765 0.79871 0.0
C1384 C 0.80699 0.40415 0.81619 0.0
C1385 C 0.78984 0.36234 0.79707 0.0
C1386 C 0.8195 0.39514 0.83261 0.0
H1387 H 0.80851 0.42376 0.81731 0.0
O1388 O 0.7672 0.30069 0.80491 0.0
O1389 O 0.80425 0.2786 0.78126 0.0
O1390 O 0.79606 0.2965 0.74077 0.0
O1391 O 0.7804 0.31086 0.77574 0.0
O1392 O 0.80561 0.27356 0.81697 0.0
O1393 O 0.78444 0.30416 0.84025 0.0
O1394 O 0.86347 0.2944 0.75351 0.0
O1395 O 0.82687 0.31828 0.78339 0.0
O1396 O 0.83636 0.30374 0.82294 0.0
O1397 O 0.85279 0.29155 0.78784 0.0
O1398 O 0.82843 0.32556 0.74877 0.0
O1399 O 0.84205 0.29003 0.72057 0.0
C1400 C 0.80429 0.26278 0.7945 0.0
C1401 C 0.83403 0.41103 0.85158 0.0
C1402 C 0.84447 0.40137 0.86927 0.0
C1403 C 0.76589 0.29559 0.82652 0.0
C1404 C 0.75405 0.27038 0.82753 0.0
C1405 C 0.73534 0.2587 0.8112 0.0
C1406 C 0.76224 0.25716 0.84364 0.0
C1407 C 0.75203 0.23264 0.84361 0.0
C1408 C 0.72522 0.23421 0.81091 0.0
C1409 C 0.73354 0.22115 0.82695 0.0
C1410 C 0.78012 0.30515 0.75166 0.0
C1411 C 0.82849 0.33516 0.77141 0.0
C1412 C 0.86199 0.29823 0.73133 0.0
C1413 C 0.87358 0.32268 0.72765 0.0
C1414 C 0.89201 0.33636 0.7435 0.0
C1415 C 0.86503 0.33344 0.7095 0.0
C1416 C 0.87442 0.35757 0.70724 0.0
C1417 C 0.9014 0.36044 0.74139 0.0
C1418 C 0.89263 0.37108 0.72344 0.0
C1419 C 0.85302 0.29691 0.8119 0.0
H1420 H 0.72875 0.26837 0.79841 0.0
H1421 H 0.77694 0.26578 0.85597 0.0
H1422 H 0.71089 0.22531 0.79818 0.0
H1423 H 0.7253 0.20229 0.82662 0.0
H1424 H 0.8989 0.32865 0.7578 0.0
H1425 H 0.85059 0.32326 0.69744 0.0
H1426 H 0.91549 0.37092 0.75378 0.0
H1427 H 0.9003 0.38967 0.72197 0.0
Gd1428 Gd 0.79919 0.7657 0.7599 0.0
Gd1429 Gd 0.83323 0.82457 0.79232 0.0
C1430 C 0.90218 0.84087 0.76624 0.0
C1431 C 0.92298 0.82099 0.7916 0.0
C1432 C 0.88436 0.82079 0.79673 0.0
C1433 C 0.88324 0.83362 0.77806 0.0
C1434 C 0.90449 0.81498 0.80415 0.0
C1435 C 0.92182 0.8339 0.77266 0.0
C1436 C 0.90096 0.85533 0.74863 0.0
C1437 C 0.88167 0.86346 0.74424 0.0
N1438 N 0.86395 0.8399 0.77211 0.0
C1439 C 0.86353 0.85617 0.7567 0.0
H1440 H 0.84938 0.86411 0.7541 0.0
C1441 C 0.86801 0.80641 0.82961 0.0
N1442 N 0.86611 0.81496 0.80834 0.0
C1443 C 0.88748 0.80018 0.83755 0.0
C1444 C 0.90567 0.80391 0.82442 0.0
H1445 H 0.85507 0.80505 0.84137 0.0
H1446 H 0.93637 0.83892 0.76347 0.0
H1447 H 0.78186 0.72434 0.79554 0.0
H1448 H 0.91508 0.86114 0.73908 0.0
H1449 H 0.88087 0.8757 0.73155 0.0
H1450 H 0.93842 0.81627 0.7968 0.0
H1451 H 0.77823 0.78681 0.71156 0.0
H1452 H 0.71661 0.72865 0.81171 0.0
H1453 H 0.75024 0.71262 0.81811 0.0
H1454 H 0.69446 0.7758 0.75547 0.0
H1455 H 0.88856 0.79298 0.85413 0.0
H1456 H 0.92081 0.79923 0.83072 0.0
H1457 H 0.69595 0.7523 0.78823 0.0
H1458 H 0.74505 0.79964 0.69891 0.0
N1459 N 0.76805 0.75 0.77924 0.0
C1460 C 0.73082 0.73451 0.80231 0.0
C1461 C 0.74978 0.72554 0.80607 0.0
C1462 C 0.72998 0.74972 0.78531 0.0
C1463 C 0.74903 0.75696 0.77368 0.0
C1464 C 0.76801 0.73287 0.79372 0.0
N1465 N 0.76666 0.77615 0.74406 0.0
C1466 C 0.74825 0.77029 0.75541 0.0
C1467 C 0.74585 0.79199 0.71524 0.0
C1468 C 0.72751 0.78819 0.72815 0.0
C1469 C 0.76513 0.78531 0.72311 0.0
C1470 C 0.72833 0.77662 0.74811 0.0
H1471 H 0.71254 0.79327 0.72194 0.0
O1472 O 0.79689 0.74896 0.72166 0.0
O1473 O 0.83255 0.79008 0.76607 0.0
O1474 O 0.82136 0.83066 0.75539 0.0
O1475 O 0.81176 0.79042 0.7335 0.0
O1476 O 0.83088 0.7535 0.76751 0.0
O1477 O 0.79178 0.72601 0.74869 0.0
O1478 O 0.8347 0.84228 0.83021 0.0
O1479 O 0.8001 0.79996 0.78636 0.0
O1480 O 0.81001 0.75944 0.79708 0.0
O1481 O 0.82182 0.79955 0.81917 0.0
O1482 O 0.80132 0.83645 0.78514 0.0
O1483 O 0.84127 0.86435 0.80262 0.0
C1484 C 0.84405 0.77444 0.76813 0.0
C1485 C 0.70973 0.77066 0.76053 0.0
C1486 C 0.71058 0.75729 0.77917 0.0
C1487 C 0.79496 0.72686 0.7261 0.0
C1488 C 0.81054 0.71281 0.71511 0.0
C1489 C 0.81279 0.71051 0.69014 0.0
C1490 C 0.82377 0.70234 0.72953 0.0
C1491 C 0.83886 0.68925 0.71918 0.0
C1492 C 0.82807 0.69786 0.67978 0.0
C1493 C 0.84102 0.6872 0.69416 0.0
C1494 C 0.81647 0.81459 0.73465 0.0
C1495 C 0.78838 0.8154 0.78456 0.0
C1496 C 0.83757 0.86424 0.82518 0.0
C1497 C 0.82258 0.87951 0.83549 0.0
C1498 C 0.82128 0.88387 0.86069 0.0
C1499 C 0.8092 0.88936 0.82047 0.0
C1500 C 0.79472 0.90357 0.83051 0.0
C1501 C 0.80684 0.89787 0.87077 0.0
C1502 C 0.79366 0.90772 0.85583 0.0
C1503 C 0.81617 0.77534 0.81787 0.0
H1504 H 0.80283 0.71862 0.67871 0.0
H1505 H 0.82245 0.70444 0.74891 0.0
H1506 H 0.82974 0.69613 0.6605 0.0
H1507 H 0.85234 0.67692 0.68562 0.0
H1508 H 0.83141 0.87637 0.87256 0.0
H1509 H 0.80988 0.88581 0.80095 0.0
H1510 H 0.80596 0.90121 0.89024 0.0
H1511 H 0.78295 0.91896 0.86418 0.0
Gd1512 Gd 0.59491 0.56513 0.54238 0.0
Gd1513 Gd 0.54596 0.52889 0.51012 0.0
C1514 C 0.53624 0.44633 0.50999 0.0
C1515 C 0.53862 0.42964 0.46757 0.0
C1516 C 0.54115 0.47355 0.48104 0.0
C1517 C 0.53949 0.47028 0.50477 0.0
C1518 C 0.53984 0.4531 0.46205 0.0
C1519 C 0.5368 0.42626 0.49151 0.0
C1520 C 0.53128 0.44301 0.53327 0.0
C1521 C 0.52843 0.463 0.55023 0.0
N1522 N 0.53869 0.49004 0.52219 0.0
C1523 C 0.53185 0.48637 0.54428 0.0
H1524 H 0.52934 0.50114 0.55792 0.0
C1525 C 0.53833 0.49924 0.45255 0.0
N1526 N 0.54164 0.49627 0.47617 0.0
C1527 C 0.53727 0.47964 0.43318 0.0
C1528 C 0.53855 0.45657 0.43795 0.0
H1529 H 0.53726 0.5171 0.44874 0.0
H1530 H 0.53477 0.40785 0.49534 0.0
H1531 H 0.60708 0.59511 0.49635 0.0
H1532 H 0.52864 0.42494 0.53796 0.0
H1533 H 0.52372 0.46049 0.568 0.0
H1534 H 0.53798 0.4138 0.45328 0.0
H1535 H 0.60453 0.57082 0.60279 0.0
H1536 H 0.61605 0.67225 0.52306 0.0
H1537 H 0.61482 0.63733 0.48917 0.0
H1538 H 0.61491 0.67796 0.6091 0.0
H1539 H 0.53542 0.48236 0.4146 0.0
H1540 H 0.53752 0.44132 0.42291 0.0
H1541 H 0.61556 0.68723 0.56787 0.0
H1542 H 0.61159 0.60335 0.63967 0.0
N1543 N 0.60291 0.60535 0.53395 0.0
C1544 C 0.61255 0.65361 0.52636 0.0
C1545 C 0.61196 0.63398 0.50723 0.0
C1546 C 0.60968 0.649 0.54976 0.0
C1547 C 0.60511 0.62436 0.55303 0.0
C1548 C 0.60755 0.60991 0.51147 0.0
N1549 N 0.60254 0.59544 0.57842 0.0
C1550 C 0.60489 0.61921 0.57609 0.0
C1551 C 0.60962 0.60808 0.62191 0.0
C1552 C 0.61092 0.63255 0.61981 0.0
C1553 C 0.60569 0.58971 0.60093 0.0
C1554 C 0.60899 0.63845 0.59669 0.0
H1555 H 0.61409 0.64678 0.63608 0.0
O1556 O 0.62255 0.5571 0.56273 0.0
O1557 O 0.57711 0.52517 0.53013 0.0
O1558 O 0.53891 0.54001 0.55096 0.0
O1559 O 0.5686 0.57085 0.56965 0.0
O1560 O 0.58926 0.53694 0.56633 0.0
O1561 O 0.62649 0.56781 0.52783 0.0
O1562 O 0.51408 0.51642 0.48903 0.0
O1563 O 0.56384 0.56834 0.52175 0.0
O1564 O 0.60313 0.55402 0.50216 0.0
O1565 O 0.5713 0.52919 0.48085 0.0
O1566 O 0.55083 0.55695 0.4858 0.0
O1567 O 0.51811 0.54451 0.52133 0.0
C1568 C 0.57969 0.51792 0.55038 0.0
C1569 C 0.612 0.66294 0.59352 0.0
C1570 C 0.61235 0.66821 0.57006 0.0
C1571 C 0.63597 0.56201 0.54662 0.0
C1572 C 0.65806 0.57626 0.55571 0.0
C1573 C 0.66249 0.60179 0.56401 0.0
C1574 C 0.67516 0.56368 0.55546 0.0
C1575 C 0.69687 0.57631 0.56349 0.0
C1576 C 0.68414 0.61458 0.57194 0.0
C1577 C 0.70133 0.60195 0.57161 0.0
C1578 C 0.54846 0.55725 0.57041 0.0
C1579 C 0.5609 0.5759 0.50176 0.0
C1580 C 0.50436 0.52966 0.50418 0.0
C1581 C 0.4838 0.51689 0.5116 0.0
C1582 C 0.4808 0.4925 0.51506 0.0
C1583 C 0.46662 0.52925 0.51446 0.0
C1584 C 0.44613 0.51727 0.52011 0.0
C1585 C 0.46067 0.48068 0.52139 0.0
C1586 C 0.44332 0.49292 0.5238 0.0
C1587 C 0.59246 0.54021 0.48134 0.0
H1588 H 0.64934 0.61175 0.5642 0.0
H1589 H 0.67155 0.54396 0.54858 0.0
H1590 H 0.68762 0.63431 0.57831 0.0
H1591 H 0.71798 0.61211 0.57793 0.0
H1592 H 0.4938 0.48247 0.51251 0.0
H1593 H 0.46921 0.5482 0.51204 0.0
H1594 H 0.45837 0.46185 0.52398 0.0
H1595 H 0.42762 0.48317 0.52798 0.0
Gd1596 Gd 0.04051 0.54522 0.04602 0.0
Gd1597 Gd 0.09406 0.55273 0.02214 0.0
C1598 C 0.13553 0.62795 0.01802 0.0
C1599 C 0.13653 0.62522 0.97441 0.0
C1600 C 0.11704 0.5905 0.99026 0.0
C1601 C 0.12253 0.60383 0.01373 0.0
C1602 C 0.12441 0.60083 0.97034 0.0
C1603 C 0.14205 0.63878 0.99822 0.0
C1604 C 0.14219 0.64016 0.0421 0.0
C1605 C 0.13665 0.62791 0.06111 0.0
N1606 N 0.11628 0.59267 0.03243 0.0
C1607 C 0.12393 0.60388 0.05589 0.0
H1608 H 0.11982 0.59461 0.07076 0.0
C1609 C 0.1021 0.55208 0.96447 0.0
N1610 N 0.10552 0.56691 0.98702 0.0
C1611 C 0.10898 0.56152 0.94414 0.0
C1612 C 0.11994 0.5861 0.94703 0.0
H1613 H 0.09379 0.53302 0.96193 0.0
H1614 H 0.15187 0.65737 1.00114 0.0
H1615 H 1.01331 0.50528 0.99676 0.0
H1616 H 0.15211 0.65874 0.04618 0.0
H1617 H 0.14213 0.63695 0.07979 0.0
H1618 H 0.14217 0.63356 0.95933 0.0
H1619 H 0.04143 0.56321 0.10622 0.0
H1620 H 0.98069 0.44017 0.01944 0.0
H1621 H 0.99034 0.4633 0.98669 0.0
H1622 H 0.99166 0.46259 0.1065 0.0
H1623 H 0.10587 0.5498 0.92626 0.0
H1624 H 0.12535 0.59333 0.93126 0.0
H1625 H 0.98144 0.44 0.06428 0.0
H1626 H 0.02898 0.54563 0.14144 0.0
N1627 N 0.01768 0.50564 0.03478 0.0
C1628 C 0.99096 0.45856 0.02396 0.0
C1629 C 0.9963 0.47159 1.00545 0.0
C1630 C 0.99814 0.46987 0.04819 0.0
C1631 C 1.01155 0.49379 0.05306 0.0
C1632 C 1.00939 0.49542 0.01126 0.0
N1633 N 0.02892 0.52998 0.08049 0.0
C1634 C 0.01725 0.50644 0.07673 0.0
C1635 C 0.02566 0.53435 0.12335 0.0
C1636 C 0.01443 0.50981 0.11989 0.0
C1637 C 0.03268 0.54426 0.10331 0.0
C1638 C 1.00981 0.49561 0.09632 0.0
H1639 H 1.00896 0.50219 0.13543 0.0
O1640 O 0.02173 0.57162 0.0617 0.0
O1641 O 0.06973 0.57289 0.03955 0.0
O1642 O 0.0957 0.5534 0.06254 0.0
O1643 O 0.06255 0.52998 0.06981 0.0
O1644 O 0.05732 0.58007 0.07242 0.0
O1645 O 1.01138 0.54985 0.02558 0.0
O1646 O 0.11043 0.52282 0.01014 0.0
O1647 O 0.06467 0.52502 0.02843 0.0
O1648 O 0.0385 0.54549 1.00583 0.0
O1649 O 0.07241 0.56668 0.99713 0.0
O1650 O 0.07712 0.51818 0.99543 0.0
O1651 O 0.12602 0.55232 0.03977 0.0
C1652 C 0.07176 0.58888 0.05909 0.0
C1653 C 0.99738 0.47133 0.09168 0.0
C1654 C 0.99158 0.45846 0.06764 0.0
C1655 C 1.0069 0.56609 0.04298 0.0
C1656 C 0.98378 0.56249 0.0482 0.0
C1657 C 0.97384 0.54136 0.05649 0.0
C1658 C 0.97141 0.58009 0.04456 0.0
C1659 C 0.94916 0.57663 0.0494 0.0
C1660 C 0.95181 0.53769 0.06105 0.0
C1661 C 0.93953 0.55511 0.05752 0.0
C1662 C 0.08407 0.53825 0.07467 0.0
C1663 C 0.06237 0.50946 0.0085 0.0
C1664 C 0.12779 0.53207 0.02565 0.0
C1665 C 0.14915 0.53176 0.01614 0.0
C1666 C 0.15636 0.54618 0.99909 0.0
C1667 C 0.1622 0.51628 0.02367 0.0
C1668 C 0.18213 0.51476 0.01366 0.0
C1669 C 0.17622 0.54485 0.98929 0.0
C1670 C 0.18897 0.52912 0.99637 0.0
C1671 C 0.05087 0.55886 0.99269 0.0
H1672 H 0.98307 0.52764 0.05929 0.0
H1673 H 0.97917 0.59651 0.03829 0.0
H1674 H 0.94419 0.52124 0.06729 0.0
H1675 H 0.92235 0.55157 0.06091 0.0
H1676 H 0.14663 0.55831 0.99325 0.0
H1677 H 0.15665 0.50505 0.03682 0.0
H1678 H 0.18168 0.55596 0.97606 0.0
H1679 H 0.20431 0.52828 0.98848 0.0
H1680 H 0.05352 0.20944 0.93566 0.0
H1681 H 0.0189 0.21946 0.99952 0.0
H1682 H 0.06275 0.17243 0.94668 0.0
H1683 H 0.02741 0.1823 0.01017 0.0
H1684 H 0.05596 0.12062 0.03501 0.0
H1685 H 0.05014 0.1598 0.02544 0.0
H1686 H 0.05335 0.13194 0.94926 0.0
H1687 H 0.06013 0.09381 0.95913 0.0
C1688 C 0.04767 0.20377 0.95198 0.0
C1689 C 0.0353 0.21794 0.96647 0.0
C1690 C 0.05291 0.18217 0.95839 0.0
C1691 C 0.04598 0.17359 0.97959 0.0
C1692 C 0.0336 0.18789 0.99398 0.0
C1693 C 0.02844 0.20942 0.98762 0.0
C1694 C 0.05582 0.12306 0.0163 0.0
C1695 C 0.05887 0.1038 0.99798 0.0
C1696 C 0.05214 0.14562 0.01059 0.0
C1697 C 0.05106 0.14979 0.98629 0.0
C1698 C 0.05432 0.13038 0.96821 0.0
C1699 C 0.0581 0.10809 0.97392 0.0
H1700 H 0.1581 0.8326 0.18474 0.0
H1701 H 0.19741 0.82712 0.12424 0.0
H1702 H 0.18918 0.82814 0.21163 0.0
H1703 H 0.22817 0.82299 0.15082 0.0
H1704 H 0.27327 0.79089 0.19708 0.0
H1705 H 0.24187 0.796 0.172 0.0
H1706 H 0.22588 0.84593 0.23235 0.0
H1707 H 0.25744 0.84067 0.25753 0.0
C1708 C 0.17334 0.83069 0.17711 0.0
C1709 C 0.17492 0.83036 0.15205 0.0
C1710 C 0.19133 0.82816 0.19264 0.0
C1711 C 0.21153 0.82495 0.18366 0.0
C1712 C 0.21304 0.82491 0.15868 0.0
C1713 C 0.19523 0.82758 0.1433 0.0
C1714 C 0.26309 0.80286 0.20525 0.0
C1715 C 0.26797 0.81479 0.22987 0.0
C1716 C 0.24497 0.80603 0.19062 0.0
C1717 C 0.23086 0.82139 0.19983 0.0
C1718 C 0.23586 0.83358 0.22441 0.0
C1719 C 0.25414 0.83052 0.23901 0.0
H1720 H 0.52815 0.842 0.49199 0.0
H1721 H 0.54585 0.85922 0.42305 0.0
H1722 H 0.53196 0.88619 0.5085 0.0
H1723 H 0.55081 0.90249 0.4394 0.0
H1724 H 0.54449 0.97898 0.46228 0.0
H1725 H 0.53531 0.93468 0.4495 0.0
H1726 H 0.5526 0.92677 0.52307 0.0
H1727 H 0.56037 0.9719 0.53608 0.0
C1728 C 0.53286 0.85511 0.48031 0.0
C1729 C 0.53638 0.84664 0.45595 0.0
C1730 C 0.53522 0.88066 0.48986 0.0
C1731 C 0.54133 0.89867 0.47541 0.0
C1732 C 0.54525 0.88986 0.45125 0.0
C1733 C 0.54262 0.86461 0.44175 0.0
C1734 C 0.54589 0.96782 0.47591 0.0
C1735 C 0.55301 0.97925 0.50026 0.0
C1736 C 0.541 0.94209 0.46847 0.0
C1737 C 0.54387 0.92635 0.48484 0.0
C1738 C 0.55013 0.93778 0.50962 0.0
C1739 C 0.55457 0.96383 0.51723 0.0
H1740 H 0.56576 0.30703 0.69075 0.0
H1741 H 0.52624 0.31832 0.6294 0.0
H1742 H 0.53391 0.30308 0.71359 0.0
H1743 H 0.49403 0.31487 0.65272 0.0
H1744 H 0.43734 0.28138 0.69772 0.0
H1745 H 0.46722 0.2872 0.67129 0.0
H1746 H 0.51184 0.32843 0.7336 0.0
H1747 H 0.48236 0.32212 0.7597 0.0
C1748 C 0.55023 0.30871 0.68209 0.0
C1749 C 0.54867 0.31309 0.65821 0.0
C1750 C 0.5319 0.30666 0.69533 0.0
C1751 C 0.51133 0.30907 0.68526 0.0
C1752 C 0.50955 0.31288 0.66111 0.0
C1753 C 0.52803 0.31492 0.64775 0.0
C1754 C 0.45348 0.292 0.70559 0.0
C1755 C 0.45758 0.30094 0.73087 0.0
C1756 C 0.47063 0.29533 0.69047 0.0
C1757 C 0.49219 0.30777 0.70034 0.0
C1758 C 0.49573 0.31805 0.72538 0.0
C1759 C 0.47875 0.31459 0.74038 0.0
H1760 H 0.01813 0.86406 0.66413 0.0
H1761 H 0.06028 0.81998 0.62846 0.0
H1762 H 0.03301 0.89738 0.64277 0.0
H1763 H 0.07541 0.8531 0.60796 0.0
H1764 H 0.11079 0.92607 0.59248 0.0
H1765 H 0.09737 0.90158 0.62233 0.0
H1766 H 0.03045 0.89362 0.59159 0.0
H1767 H 0.04366 0.91686 0.5608 0.0
C1768 C 0.03095 0.86183 0.65228 0.0
C1769 C 0.03815 0.83965 0.64785 0.0
C1770 C 0.03931 0.88069 0.64007 0.0
C1771 C 0.05539 0.87766 0.62403 0.0
C1772 C 0.06321 0.85587 0.62053 0.0
C1773 C 0.05449 0.83693 0.63215 0.0
C1774 C 0.09321 0.91917 0.59205 0.0
C1775 C 0.07837 0.9231 0.57395 0.0
C1776 C 0.08558 0.90549 0.60933 0.0
C1777 C 0.06297 0.896 0.60917 0.0
C1778 C 0.04795 0.90118 0.59219 0.0
C1779 C 0.05559 0.91448 0.57459 0.0
H1780 H 0.57272 0.83323 0.84433 0.0
H1781 H 0.53699 0.83729 0.908 0.0
H1782 H 0.53876 0.82967 0.81875 0.0
H1783 H 0.50285 0.83276 0.88232 0.0
H1784 H 0.45416 0.85833 0.83283 0.0
H1785 H 0.4863 0.85707 0.85923 0.0
H1786 H 0.50387 0.80369 0.80284 0.0
H1787 H 0.47195 0.80559 0.77619 0.0
C1788 C 0.55754 0.83299 0.85282 0.0
C1789 C 0.55754 0.83578 0.87818 0.0
C1790 C 0.53804 0.83078 0.83814 0.0
C1791 C 0.51809 0.83099 0.84851 0.0
C1792 C 0.51801 0.833 0.87382 0.0
C1793 C 0.53755 0.83551 0.88852 0.0
C1794 C 0.46476 0.8461 0.82625 0.0
C1795 C 0.46073 0.83217 0.80248 0.0
C1796 C 0.48313 0.84529 0.84137 0.0
C1797 C 0.49771 0.83035 0.83309 0.0
C1798 C 0.49319 0.81574 0.80958 0.0
C1799 C 0.47492 0.81675 0.79436 0.0
H1800 H 0.53284 0.21247 0.15717 0.0
H1801 H 0.48002 0.20512 0.10104 0.0
H1802 H 0.54021 0.17349 0.13803 0.0
H1803 H 0.48573 0.16468 0.0829 0.0
H1804 H 0.52992 0.12912 0.03301 0.0
H1805 H 0.51297 0.15767 0.05872 0.0
H1806 H 0.53622 0.13239 0.1222 0.0
H1807 H 0.55458 0.10504 0.09613 0.0
C1808 C 0.5218 0.20157 0.14164 0.0
C1809 C 0.50598 0.21161 0.13038 0.0
C1810 C 0.52606 0.17918 0.13052 0.0
C1811 C 0.51408 0.16628 0.10833 0.0
C1812 C 0.4959 0.17466 0.09939 0.0
C1813 C 0.49222 0.1975 0.11001 0.0
C1814 C 0.53127 0.12971 0.05247 0.0
C1815 C 0.54354 0.11521 0.06275 0.0
C1816 C 0.52127 0.14577 0.06727 0.0
C1817 C 0.52282 0.14715 0.09266 0.0
C1818 C 0.53481 0.13205 0.10281 0.0
C1819 C 0.54536 0.11644 0.08797 0.0
H1820 H 0.15522 0.30549 0.32367 0.0
H1821 H 0.19812 0.34533 0.38793 0.0
H1822 H 0.18744 0.30419 0.30102 0.0
H1823 H 0.22982 0.34497 0.36533 0.0
H1824 H 0.28275 0.31424 0.32796 0.0
H1825 H 0.25021 0.31642 0.34896 0.0
H1826 H 0.2168 0.32996 0.28429 0.0
H1827 H 0.24966 0.32664 0.26284 0.0
C1828 C 0.17149 0.31383 0.33294 0.0
C1829 C 0.1742 0.3252 0.3576 0.0
C1830 C 0.18988 0.31336 0.31993 0.0
C1831 C 0.21117 0.3244 0.33142 0.0
C1832 C 0.21371 0.33586 0.35605 0.0
C1833 C 0.19548 0.33608 0.36902 0.0
C1834 C 0.26842 0.31765 0.31826 0.0
C1835 C 0.26828 0.31971 0.29375 0.0
C1836 C 0.24985 0.31917 0.33033 0.0
C1837 C 0.2309 0.32336 0.31829 0.0
C1838 C 0.23107 0.32635 0.2939 0.0
C1839 C 0.24978 0.32463 0.28169 0.0
H1840 H 0.95201 0.05555 0.18938 0.0
H1841 H 0.0153 0.09272 0.22687 0.0
H1842 H 0.96845 0.05235 0.15036 0.0
H1843 H 0.03176 0.08935 0.1887 0.0
H1844 H 0.06061 0.0918 0.11543 0.0
H1845 H 0.0425 0.09686 0.15261 0.0
H1846 H 0.98863 0.03714 0.11936 0.0
H1847 H 1.00707 0.03223 0.08196 0.0
C1848 C 0.96929 0.06386 0.18952 0.0
C1849 C 0.98175 0.07536 0.21221 0.0
C1850 C 0.9791 0.06156 0.16673 0.0
C1851 C 1.00207 0.07053 0.16501 0.0
C1852 C 0.0142 0.08233 0.1878 0.0
C1853 C 1.00448 0.08445 0.21034 0.0
C1854 C 0.045 0.07947 0.11578 0.0
C1855 C 0.03599 0.06134 0.09471 0.0
C1856 C 0.03428 0.08235 0.13773 0.0
C1857 C 1.01349 0.06745 0.14043 0.0
C1858 C 1.0043 0.04947 0.11913 0.0
C1859 C 0.01517 0.04648 0.09717 0.0
H1860 H 0.29923 0.70339 0.50552 0.0
H1861 H 0.28923 0.63863 0.4484 0.0
H1862 H 0.28595 0.72597 0.47735 0.0
H1863 H 0.27689 0.66241 0.41938 0.0
H1864 H 0.30319 0.74071 0.39033 0.0
H1865 H 0.30308 0.70593 0.41001 0.0
H1866 H 0.24783 0.72186 0.44769 0.0
H1867 H 0.24691 0.75631 0.4268 0.0
C1868 C 0.29393 0.69381 0.48698 0.0
C1869 C 0.29491 0.66909 0.47918 0.0
C1870 C 0.28615 0.70677 0.47094 0.0
C1871 C 0.27981 0.69554 0.44662 0.0
C1872 C 0.28121 0.67102 0.43838 0.0
C1873 C 0.28847 0.65765 0.45478 0.0
C1874 C 0.29035 0.7363 0.40199 0.0
C1875 C 0.27492 0.75121 0.40699 0.0
C1876 C 0.29027 0.71625 0.41306 0.0
C1877 C 0.27519 0.71118 0.42981 0.0
C1878 C 0.2593 0.72541 0.43435 0.0
C1879 C 0.25908 0.74529 0.42286 0.0
H1880 H 0.67965 0.04508 0.68781 0.0
H1881 H 0.6221 1.00311 0.71185 0.0
H1882 H 0.66003 0.03947 0.64757 0.0
H1883 H 0.6027 0.99624 0.67129 0.0
H1884 H 0.56696 0.03114 0.61667 0.0
H1885 H 0.58728 0.02427 0.65233 0.0
H1886 H 0.64194 1.01473 0.61035 0.0
H1887 H 0.62173 0.02232 0.57509 0.0
C1888 C 0.66317 0.0336 0.68403 0.0
C1889 C 0.65221 0.02462 0.70267 0.0
C1890 C 0.65187 0.03041 0.66104 0.0
C1891 C 0.62963 0.0178 0.65644 0.0
C1892 C 0.6196 1.00658 0.67451 0.0
C1893 C 0.63075 1.0102 0.69756 0.0
C1894 C 0.58311 0.02721 0.61504 0.0
C1895 C 0.59292 0.02773 0.59336 0.0
C1896 C 0.59478 0.0231 0.63538 0.0
C1897 C 0.6163 0.019 0.63415 0.0
C1898 C 0.62558 0.01827 0.612 0.0
C1899 C 0.61402 0.02269 0.59183 0.0
H1900 H 0.33787 0.34137 0.97726 0.0
H1901 H 0.32214 0.40639 0.95659 0.0
H1902 H 0.3399 0.32409 0.93437 0.0
H1903 H 0.32299 0.38898 0.91423 0.0
H1904 H 0.34079 0.36666 0.84174 0.0
H1905 H 0.34639 0.38076 0.88549 0.0
H1906 H 0.31986 0.30673 0.89537 0.0
H1907 H 0.31595 0.29237 0.851 0.0
C1908 C 0.33485 0.35195 0.96356 0.0
C1909 C 0.33011 0.37538 0.97035 0.0
C1910 C 0.33587 0.34199 0.93895 0.0
C1911 C 0.33201 0.35521 0.92061 0.0
C1912 C 0.32687 0.37846 0.92765 0.0
C1913 C 0.32617 0.38846 0.95208 0.0
C1914 C 0.33684 0.35327 0.85333 0.0
C1915 C 0.32823 0.32843 0.84306 0.0
C1916 C 0.33967 0.36139 0.87847 0.0
C1917 C 0.33286 0.34514 0.89418 0.0
C1918 C 0.32532 0.31986 0.88395 0.0
C1919 C 0.32312 0.31155 0.85854 0.0
H1920 H 0.9493 0.07941 0.36927 0.0
H1921 H 1.00649 0.07078 0.33258 0.0
H1922 H 0.96748 0.07316 0.40671 0.0
H1923 H 0.02486 0.06393 0.36999 0.0
H1924 H 0.06102 0.06243 0.44674 0.0
H1925 H 0.0438 0.06818 0.4079 0.0
H1926 H 0.98031 0.05602 0.43562 0.0
H1927 H 0.99748 0.05075 0.4737 0.0
C1928 C 0.9658 0.07603 0.36891 0.0
C1929 C 0.97588 0.07574 0.34689 0.0
C1930 C 0.97656 0.07216 0.39093 0.0
C1931 C 0.99834 0.06757 0.3928 0.0
C1932 C 1.00842 0.06738 0.37062 0.0
C1933 C 0.99761 0.07129 0.34857 0.0
C1934 C 0.04334 0.06076 0.44456 0.0
C1935 C 0.03102 0.05576 0.46429 0.0
C1936 C 0.03315 0.06418 0.42181 0.0
C1937 C 1.00998 0.06313 0.41728 0.0
C1938 C 0.99796 0.05778 0.43713 0.0
C1939 C 1.00805 0.05439 0.45957 0.0
H1940 H 0.2819 0.6555 0.60782 0.0
H1941 H 0.34753 0.69622 0.60367 0.0
H1942 H 0.28113 0.68034 0.64757 0.0
H1943 H 0.34759 0.72027 0.64429 0.0
H1944 H 0.32487 0.78415 0.68832 0.0
H1945 H 0.32845 0.75265 0.65414 0.0
H1946 H 0.29228 0.69657 0.68861 0.0
H1947 H 0.28753 0.72802 0.72175 0.0
C1948 C 0.29674 0.66867 0.61627 0.0
C1949 C 0.31475 0.67418 0.603 0.0
C1950 C 0.29626 0.68313 0.63895 0.0
C1951 C 0.31404 0.70286 0.64865 0.0
C1952 C 0.33335 0.70577 0.63681 0.0
C1953 C 0.33359 0.69167 0.6139 0.0
C1954 C 0.31769 0.76512 0.68854 0.0
C1955 C 0.30688 0.75853 0.70831 0.0
C1956 C 0.31995 0.74701 0.66913 0.0
C1957 C 0.31143 0.72198 0.66917 0.0
C1958 C 0.29934 0.7156 0.68817 0.0
C1959 C 0.29676 0.73373 0.70731 0.0
H1960 H 0.70388 0.06394 0.85246 0.0
H1961 H 0.64557 0.06888 0.80908 0.0
H1962 H 0.68831 0.0803 0.88946 0.0
H1963 H 0.63086 0.08605 0.84511 0.0
H1964 H 0.59656 0.0909 0.90939 0.0
H1965 H 0.61529 0.07104 0.87821 0.0
H1966 H 0.67768 0.11734 0.91137 0.0
H1967 H 0.65906 0.13583 0.94451 0.0
C1968 C 0.68791 0.0687 0.85084 0.0
C1969 C 0.67585 0.06495 0.82798 0.0
C1970 C 0.67907 0.07811 0.8719 0.0
C1971 C 0.65817 0.08396 0.8702 0.0
C1972 C 0.64666 0.08098 0.84717 0.0
C1973 C 0.65526 0.07135 0.8264 0.0
C1974 C 0.61435 0.09645 0.91074 0.0
C1975 C 0.62623 0.1152 0.92958 0.0
C1976 C 0.62507 0.08528 0.89249 0.0
C1977 C 0.64787 0.0931 0.89198 0.0
C1978 C 0.66005 0.11101 0.91126 0.0
C1979 C 0.64932 0.12187 0.93001 0.0
H1980 H 0.31319 0.39463 0.11141 0.0
H1981 H 0.33991 0.3301 0.08964 0.0
H1982 H 0.30619 0.38213 0.1505 0.0
H1983 H 0.33363 0.3183 0.12818 0.0
H1984 H 0.3027 0.28711 0.18709 0.0
H1985 H 0.30488 0.30176 0.14923 0.0
H1986 H 0.32351 0.37673 0.18911 0.0
H1987 H 0.31931 0.36176 0.2273 0.0
C1988 C 0.31762 0.37789 0.11489 0.0
C1989 C 0.327 0.36336 0.09712 0.0
C1990 C 0.31371 0.37077 0.13735 0.0
C1991 C 0.31903 0.34895 0.14248 0.0
C1992 C 0.3287 0.33482 0.12481 0.0
C1993 C 0.3325 0.3418 0.10257 0.0
C1994 C 0.30641 0.3067 0.18792 0.0
C1995 C 0.31055 0.32313 0.21039 0.0
C1996 C 0.30822 0.31521 0.16608 0.0
C1997 C 0.31475 0.34051 0.16594 0.0
C1998 C 0.31837 0.35713 0.18841 0.0
C1999 C 0.31627 0.34852 0.21037 0.0
H2000 H 0.31999 0.03568 0.04742 0.0
H2001 H 0.26587 0.97226 0.02745 0.0
H2002 H 0.29381 0.0617 0.05867 0.0
H2003 H 0.23993 0.99817 0.03817 0.0
H2004 H 0.20066 0.04555 0.08057 0.0
H2005 H 0.22942 0.02221 0.07463 0.0
H2006 H 0.2643 0.07634 0.03717 0.0
H2007 H 0.23544 0.09979 0.04319 0.0
C2008 C 0.30255 0.02735 0.04548 0.0
C2009 C 0.29492 1.00204 0.0366 0.0
C2010 C 0.28763 0.0422 0.0518 0.0
C2011 C 0.26493 0.03188 0.04938 0.0
C2012 C 0.25738 1.00653 0.04061 0.0
C2013 C 0.27224 0.99174 0.03431 0.0
C2014 C 0.21461 0.05257 0.0713 0.0
C2015 C 0.21586 0.07437 0.06222 0.0
C2016 C 0.23099 0.03921 0.06786 0.0
C2017 C 0.24893 0.04743 0.0553 0.0
C2018 C 0.25072 0.06978 0.04715 0.0
C2019 C 0.23428 0.08319 0.05061 0.0
H2020 H 0.71384 0.6961 1.00213 0.0
H2021 H 0.74775 0.63683 1.00468 0.0
H2022 H 0.67911 0.66876 1.0054 0.0
H2023 H 0.71269 0.60935 1.00801 0.0
H2024 H 0.64032 0.56306 0.9887 0.0
H2025 H 0.67595 0.58876 0.98478 0.0
H2026 H 0.66149 0.64822 0.03648 0.0
H2027 H 0.62609 0.62247 0.0407 0.0
C2028 C 0.71394 0.67718 1.00321 0.0
C2029 C 0.73376 0.66879 1.00313 0.0
C2030 C 0.69395 0.66152 1.0053 0.0
C2031 C 0.69305 0.63688 1.00721 0.0
C2032 C 0.71274 0.6282 1.00648 0.0
C2033 C 0.73287 0.64399 1.00461 0.0
C2034 C 0.6448 0.58147 0.99948 0.0
C2035 C 0.63027 0.59046 0.01521 0.0
C2036 C 0.6653 0.59624 0.99722 0.0
C2037 C 0.67165 0.62062 0.01026 0.0
C2038 C 0.6571 0.62963 0.02595 0.0
C2039 C 0.63678 0.61476 0.02847 0.0
H2040 H 0.69342 0.42726 0.26278 0.0
H2041 H 0.75444 0.48067 0.28195 0.0
H2042 H 0.71355 0.39389 0.26268 0.0
H2043 H 0.7745 0.44743 0.28275 0.0
H2044 H 0.80246 0.379 0.30465 0.0
H2045 H 0.78449 0.41367 0.30256 0.0
H2046 H 0.73848 0.3685 0.24393 0.0
H2047 H 0.75751 0.33462 0.24499 0.0
C2048 C 0.71114 0.43226 0.26704 0.0
C2049 C 0.72168 0.45772 0.27217 0.0
C2050 C 0.72302 0.41265 0.26694 0.0
C2051 C 0.74637 0.41681 0.2727 0.0
C2052 C 0.75681 0.44233 0.27823 0.0
C2053 C 0.74502 0.46189 0.27765 0.0
C2054 C 0.78949 0.3766 0.29015 0.0
C2055 C 0.78339 0.3535 0.27354 0.0
C2056 C 0.7785 0.39683 0.28929 0.0
C2057 C 0.75944 0.39514 0.27288 0.0
C2058 C 0.75286 0.37177 0.25694 0.0
C2059 C 0.76431 0.35195 0.25728 0.0
H2060 H 0.90817 0.42248 0.48519 0.0
H2061 H 0.89701 0.48516 0.5354 0.0
H2062 H 0.94648 0.44326 0.48552 0.0
H2063 H 0.93544 0.50551 0.53644 0.0
H2064 H 1.00143 0.54444 0.52185 0.0
H2065 H 0.96266 0.52477 0.51416 0.0
H2066 H 0.97938 0.45393 0.51283 0.0
H2067 H 0.01846 0.47377 0.51884 0.0
C2068 C 0.9139 0.44067 0.49634 0.0
C2069 C 0.89959 0.45209 0.51039 0.0
C2070 C 0.93588 0.45253 0.4966 0.0
C2071 C 0.94409 0.47597 0.51111 0.0
C2072 C 0.92962 0.48761 0.52476 0.0
C2073 C 0.90759 0.47586 0.5243 0.0
C2074 C 0.99693 0.52465 0.51916 0.0
C2075 C 1.013 0.51058 0.52034 0.0
C2076 C 0.97461 0.51336 0.51517 0.0
C2077 C 0.96785 0.48776 0.51298 0.0
C2078 C 0.984 0.47365 0.51401 0.0
C2079 C 1.00636 0.48498 0.51768 0.0
H2080 H 0.43299 0.1164 0.28372 0.0
H2081 H 0.3728 0.0628 0.28441 0.0
H2082 H 0.41179 0.14173 0.26529 0.0
H2083 H 0.35175 0.08825 0.2667 0.0
H2084 H 0.3234 0.12329 0.21072 0.0
H2085 H 0.34754 0.09992 0.22721 0.0
H2086 H 0.38391 0.16631 0.27513 0.0
H2087 H 0.36052 0.18999 0.25762 0.0
C2088 C 0.41526 0.11016 0.28008 0.0
C2089 C 0.4045 0.08761 0.28519 0.0
C2090 C 0.40318 0.12464 0.26965 0.0
C2091 C 0.38024 0.11669 0.2643 0.0
C2092 C 0.36949 0.09447 0.27011 0.0
C2093 C 0.38153 0.08001 0.28039 0.0
C2094 C 0.33692 0.13298 0.22427 0.0
C2095 C 0.3401 0.15838 0.23293 0.0
C2096 C 0.3505 0.11958 0.23396 0.0
C2097 C 0.36735 0.13134 0.25261 0.0
C2098 C 0.37109 0.15688 0.26066 0.0
C2099 C 0.3576 0.17034 0.25081 0.0
H2100 H 0.33211 0.13072 0.53114 0.0
H2101 H 0.37955 0.19096 0.51436 0.0
H2102 H 0.36088 0.10812 0.53529 0.0
H2103 H 0.40859 0.16781 0.51787 0.0
H2104 H 0.45693 0.12554 0.55252 0.0
H2105 H 0.43065 0.15142 0.54593 0.0
H2106 H 0.38255 0.08654 0.51009 0.0
H2107 H 0.40843 0.06098 0.51737 0.0
C2108 C 0.34872 0.13916 0.52829 0.0
C2109 C 0.35348 0.16263 0.52236 0.0
C2110 C 0.36526 0.12605 0.53044 0.0
C2111 C 0.38707 0.13589 0.52649 0.0
C2112 C 0.39201 0.15967 0.52108 0.0
C2113 C 0.37536 0.17291 0.51901 0.0
C2114 C 0.44081 0.11698 0.54296 0.0
C2115 C 0.43452 0.09123 0.53587 0.0
C2116 C 0.42576 0.13176 0.53915 0.0
C2117 C 0.40424 0.12102 0.52802 0.0
C2118 C 0.39867 0.09541 0.51946 0.0
C2119 C 0.41355 0.08073 0.52347 0.0
H2120 H 0.69376 0.62275 0.29612 0.0
H2121 H 0.74657 0.58607 0.27792 0.0
H2122 H 0.71748 0.66206 0.29601 0.0
H2123 H 0.77082 0.62637 0.27744 0.0
H2124 H 0.81407 0.70878 0.29636 0.0
H2125 H 0.79256 0.66728 0.29687 0.0
H2126 H 0.73352 0.68901 0.27297 0.0
H2127 H 0.75467 0.72987 0.27287 0.0
C2128 C 0.71052 0.62281 0.29199 0.0
C2129 C 0.71771 0.60034 0.28698 0.0
C2130 C 0.72436 0.64589 0.29169 0.0
C2131 C 0.74648 0.64831 0.28629 0.0
C2132 C 0.75407 0.62593 0.28175 0.0
C2133 C 0.74 0.6025 0.28199 0.0
C2134 C 0.79651 0.70479 0.29121 0.0
C2135 C 0.78653 0.72349 0.28464 0.0
C2136 C 0.78399 0.68062 0.2914 0.0
C2137 C 0.76078 0.67397 0.28525 0.0
C2138 C 0.75103 0.69274 0.27848 0.0
C2139 C 0.76345 0.71664 0.27823 0.0
H2140 H 0.91656 0.46849 0.85381 0.0
H2141 H 0.9002 0.48379 0.78304 0.0
H2142 H 0.88977 0.42919 0.84332 0.0
H2143 H 0.87551 0.44409 0.77144 0.0
H2144 H 0.82279 0.37678 0.75686 0.0
H2145 H 0.84356 0.4185 0.77275 0.0
H2146 H 0.88459 0.39045 0.82157 0.0
H2147 H 0.8622 0.34944 0.80724 0.0
C2148 C 0.90722 0.4633 0.83603 0.0
C2149 C 0.91014 0.47901 0.81929 0.0
C2150 C 0.89207 0.44072 0.82982 0.0
C2151 C 0.88038 0.43313 0.80638 0.0
C2152 C 0.88348 0.44925 0.78986 0.0
C2153 C 0.89787 0.47204 0.79641 0.0
C2154 C 0.83607 0.37985 0.77125 0.0
C2155 C 0.84065 0.36028 0.78128 0.0
C2156 C 0.84823 0.40367 0.78022 0.0
C2157 C 0.86602 0.40813 0.79849 0.0
C2158 C 0.87075 0.38814 0.80807 0.0
C2159 C 0.85805 0.3645 0.7997 0.0
H2160 H 0.11006 0.91157 0.1354 0.0
H2161 H 0.09896 0.86811 0.06286 0.0
H2162 H 0.10326 0.94692 0.11972 0.0
H2163 H 0.09094 0.90345 0.04682 0.0
H2164 H 0.09005 0.97864 0.02155 0.0
H2165 H 0.09727 0.94129 0.03465 0.0
H2166 H 0.08067 0.96845 0.1065 0.0
H2167 H 0.07473 1.00541 0.09368 0.0
C2168 C 0.10606 0.90942 0.11596 0.0
C2169 C 0.10521 0.88652 0.10066 0.0
C2170 C 0.10174 0.92996 0.10674 0.0
C2171 C 0.09588 0.9288 0.08162 0.0
C2172 C 0.09538 0.90585 0.06618 0.0
C2173 C 0.09999 0.88526 0.07547 0.0
C2174 C 0.08784 0.97647 0.04008 0.0
C2175 C 0.08172 0.99542 0.05645 0.0
C2176 C 0.09203 0.95485 0.04779 0.0
C2177 C 0.09028 0.95127 0.07217 0.0
C2178 C 0.08329 0.97005 0.08794 0.0
C2179 C 0.07946 0.99151 0.0804 0.0
H2180 H 0.94927 0.29868 0.93427 0.0
H2181 H 0.97961 0.26812 0.87251 0.0
H2182 H 0.91876 0.30253 0.9076 0.0
H2183 H 0.94808 0.27083 0.84534 0.0
H2184 H 0.89565 0.29721 0.79991 0.0
H2185 H 0.92759 0.29314 0.82541 0.0
H2186 H 0.8869 0.28483 0.88425 0.0
H2187 H 0.85565 0.28978 0.85915 0.0
C2188 C 0.94936 0.29234 0.91492 0.0
C2189 C 0.96719 0.28288 0.90588 0.0
C2190 C 0.93147 0.29439 0.89936 0.0
C2191 C 0.93024 0.28675 0.87387 0.0
C2192 C 0.94812 0.2772 0.86469 0.0
C2193 C 0.96628 0.27539 0.88039 0.0
C2194 C 0.89359 0.2947 0.81839 0.0
C2195 C 0.87291 0.29441 0.82746 0.0
C2196 C 0.91201 0.29214 0.83311 0.0
C2197 C 0.91044 0.2889 0.85743 0.0
C2198 C 0.88951 0.28809 0.86613 0.0
C2199 C 0.87127 0.29093 0.85156 0.0
H2200 H 0.61887 0.24541 0.55727 0.0
H2201 H 0.58086 0.24185 0.61867 0.0
H2202 H 0.61193 0.20069 0.54746 0.0
H2203 H 0.57341 0.19689 0.60851 0.0
H2204 H 0.58021 0.11733 0.59995 0.0
H2205 H 0.58834 0.16209 0.60883 0.0
H2206 H 0.58719 0.16252 0.53188 0.0
H2207 H 0.5792 0.11727 0.52314 0.0
C2208 C 0.60885 0.23516 0.56869 0.0
C2209 C 0.60052 0.24773 0.58892 0.0
C2210 C 0.60473 0.20922 0.56289 0.0
C2211 C 0.5921 0.19457 0.57707 0.0
C2212 C 0.58354 0.20714 0.5972 0.0
C2213 C 0.58767 0.23316 0.603 0.0
C2214 C 0.58193 0.12694 0.58486 0.0
C2215 C 0.57924 0.11344 0.56082 0.0
C2216 C 0.58636 0.15283 0.58997 0.0
C2217 C 0.58818 0.16653 0.57121 0.0
C2218 C 0.58608 0.153 0.54703 0.0
C2219 C 0.58155 0.12689 0.5419 0.0
H2220 H 0.56917 0.76704 0.35907 0.0
H2221 H 0.61149 0.78936 0.4267 0.0
H2222 H 0.60136 0.77231 0.33645 0.0
H2223 H 0.64399 0.79433 0.4038 0.0
H2224 H 0.69434 0.77313 0.34514 0.0
H2225 H 0.66481 0.76883 0.37224 0.0
H2226 H 0.62976 0.81009 0.33194 0.0
H2227 H 0.65918 0.81505 0.3056 0.0
C2228 C 0.58536 0.77278 0.36917 0.0
C2229 C 0.58766 0.77776 0.39476 0.0
C2230 C 0.60386 0.77596 0.35615 0.0
C2231 C 0.62529 0.78393 0.36828 0.0
C2232 C 0.62773 0.78811 0.39389 0.0
C2233 C 0.60911 0.7853 0.407 0.0
C2234 C 0.68054 0.78169 0.34237 0.0
C2235 C 0.67901 0.79397 0.32273 0.0
C2236 C 0.66358 0.77914 0.35786 0.0
C2237 C 0.64466 0.78864 0.35391 0.0
C2238 C 0.64378 0.80199 0.33513 0.0
C2239 C 0.66071 0.80477 0.31996 0.0
H2240 H 0.07952 0.27945 0.44344 0.0
H2241 H 0.1423 0.27174 0.41824 0.0
H2242 H 0.07747 0.24321 0.46095 0.0
H2243 H 0.14003 0.23422 0.43529 0.0
H2244 H 0.14159 0.19989 0.50597 0.0
H2245 H 0.14347 0.22667 0.4763 0.0
H2246 H 0.07344 0.20088 0.45568 0.0
H2247 H 0.07092 0.177 0.48716 0.0
C2248 C 0.09265 0.26947 0.44116 0.0
C2249 C 0.1112 0.27839 0.42991 0.0
C2250 C 0.09139 0.24848 0.45094 0.0
C2251 C 0.10863 0.23577 0.44957 0.0
C2252 C 0.12661 0.2438 0.43682 0.0
C2253 C 0.12784 0.26502 0.4269 0.0
C2254 C 0.12654 0.20013 0.49531 0.0
C2255 C 0.10607 0.18652 0.49951 0.0
C2256 C 0.12773 0.21504 0.47785 0.0
C2257 C 0.10854 0.21614 0.46386 0.0
C2258 C 0.08847 0.20087 0.46655 0.0
C2259 C 0.08713 0.18675 0.48449 0.0
H2260 H 0.56971 0.28312 0.21662 0.0
H2261 H 0.60682 0.29335 0.15522 0.0
H2262 H 0.60306 0.28029 0.2401 0.0
H2263 H 0.64014 0.2909 0.17889 0.0
H2264 H 0.68521 0.25051 0.218 0.0
H2265 H 0.65386 0.25833 0.19468 0.0
H2266 H 0.63936 0.30464 0.25885 0.0
H2267 H 0.67077 0.29689 0.28217 0.0
C2268 C 0.585 0.2851 0.20823 0.0
C2269 C 0.58554 0.2883 0.18398 0.0
C2270 C 0.60413 0.28358 0.22172 0.0
C2271 C 0.62417 0.28527 0.21126 0.0
C2272 C 0.62485 0.28918 0.18729 0.0
C2273 C 0.60576 0.29069 0.17379 0.0
C2274 C 0.67556 0.26269 0.22702 0.0
C2275 C 0.68032 0.27291 0.25195 0.0
C2276 C 0.6576 0.26716 0.21367 0.0
C2277 C 0.64409 0.28197 0.22501 0.0
C2278 C 0.64927 0.29281 0.24975 0.0
C2279 C 0.66723 0.28837 0.26308 0.0
H2280 H 0.62982 0.89474 0.95699 0.0
H2281 H 0.61742 0.91149 0.88575 0.0
H2282 H 0.61721 0.9308 0.97554 0.0
H2283 H 0.60509 0.94841 0.90468 0.0
H2284 H 0.55914 0.9914 0.9525 0.0
H2285 H 0.57279 0.95742 0.92939 0.0
H2286 H 0.63133 0.97577 0.9805 0.0
H2287 H 0.61796 1.00927 1.00327 0.0
C2288 C 0.62468 0.90639 0.94533 0.0
C2289 C 0.62473 0.90057 0.92 0.0
C2290 C 0.61751 0.92702 0.95595 0.0
C2291 C 0.61039 0.94233 0.94147 0.0
C2292 C 0.61051 0.93671 0.9161 0.0
C2293 C 0.61777 0.9159 0.90537 0.0
C2294 C 0.57507 0.98834 0.95843 0.0
C2295 C 0.58749 1.0029 0.97961 0.0
C2296 C 0.58285 0.96902 0.94527 0.0
C2297 C 0.60302 0.96411 0.95333 0.0
C2298 C 0.6156 0.97908 0.97413 0.0
C2299 C 0.60787 0.99821 0.98719 0.0
H2300 H 0.9433 0.7732 0.66718 0.0
H2301 H 0.97946 0.77761 0.73671 0.0
H2302 H 0.90927 0.7711 0.68637 0.0
H2303 H 0.94541 0.77657 0.75626 0.0
H2304 H 0.87661 0.7516 0.7796 0.0
H2305 H 0.91061 0.75074 0.76007 0.0
H2306 H 0.89171 0.79704 0.71234 0.0
H2307 H 0.85769 0.79695 0.73116 0.0
C2308 C 0.94396 0.77377 0.68662 0.0
C2309 C 0.96401 0.77557 0.70047 0.0
C2310 C 0.92447 0.77275 0.69767 0.0
C2311 C 0.92461 0.77383 0.7229 0.0
C2312 C 0.94468 0.77534 0.73673 0.0
C2313 C 0.96419 0.77605 0.72558 0.0
C2314 C 0.87991 0.76158 0.76496 0.0
C2315 C 0.86496 0.77489 0.75731 0.0
C2316 C 0.89935 0.76122 0.75386 0.0
C2317 C 0.90396 0.77391 0.7347 0.0
C2318 C 0.88862 0.78677 0.72679 0.0
C2319 C 0.86923 0.78703 0.73781 0.0
H2320 H 0.19111 0.03008 0.8681 0.0
H2321 H 0.12961 0.02307 0.8254 0.0
H2322 H 0.17253 0.03435 0.90545 0.0
H2323 H 0.11093 0.0274 0.86253 0.0
H2324 H 0.07548 0.0207 0.93277 0.0
H2325 H 0.0942 0.01649 0.89576 0.0
H2326 H 0.15602 0.05241 0.93794 0.0
H2327 H 0.13708 0.0564 0.97497 0.0
C2328 C 0.17358 0.02948 0.86639 0.0
C2329 C 0.16238 0.02616 0.84271 0.0
C2330 C 0.16263 0.03209 0.88833 0.0
C2331 C 0.13954 0.03134 0.88835 0.0
C2332 C 0.12842 0.02795 0.86454 0.0
C2333 C 0.13941 0.02556 0.84266 0.0
C2334 C 0.09308 0.02769 0.9345 0.0
C2335 C 0.10419 0.03884 0.95798 0.0
C2336 C 0.10415 0.02542 0.91267 0.0
C2337 C 0.12733 0.03395 0.9125 0.0
C2338 C 0.13844 0.04508 0.9361 0.0
C2339 C 0.1273 0.04755 0.95791 0.0
H2340 H 0.80718 0.37622 0.5753 0.0
H2341 H 0.85586 0.44388 0.59908 0.0
H2342 H 0.81337 0.36497 0.61476 0.0
H2343 H 0.8629 0.43219 0.63827 0.0
H2344 H 0.86687 0.40416 0.70982 0.0
H2345 H 0.85141 0.42097 0.67687 0.0
H2346 H 0.84589 0.35138 0.62782 0.0
H2347 H 0.8613 0.33485 0.66028 0.0
C2348 C 0.81883 0.3889 0.58927 0.0
C2349 C 0.8313 0.41066 0.58427 0.0
C2350 C 0.82248 0.38245 0.61174 0.0
C2351 C 0.83904 0.39739 0.6293 0.0
C2352 C 0.85001 0.42034 0.6251 0.0
C2353 C 0.84603 0.42702 0.6027 0.0
C2354 C 0.86238 0.39257 0.69194 0.0
C2355 C 0.86521 0.36817 0.68763 0.0
C2356 C 0.85342 0.40212 0.67318 0.0
C2357 C 0.84709 0.38736 0.64992 0.0
C2358 C 0.84996 0.36301 0.64573 0.0
C2359 C 0.85892 0.35355 0.66432 0.0
H2360 H 0.44432 0.05629 0.38952 0.0
H2361 H 0.50025 0.07578 0.34966 0.0
H2362 H 0.4693 0.05939 0.42583 0.0
H2363 H 0.52517 0.08006 0.386 0.0
H2364 H 0.55953 0.04673 0.44284 0.0
H2365 H 0.53662 0.05157 0.4079 0.0
H2366 H 0.49576 0.08619 0.45656 0.0
H2367 H 0.5184 0.0805 0.49128 0.0
C2368 C 0.46192 0.06191 0.38882 0.0
C2369 C 0.47052 0.06564 0.36702 0.0
C2370 C 0.47622 0.06376 0.40951 0.0
C2371 C 0.49919 0.06981 0.40862 0.0
C2372 C 0.50759 0.07489 0.38706 0.0
C2373 C 0.49335 0.07262 0.36636 0.0
C2374 C 0.54603 0.05596 0.44588 0.0
C2375 C 0.54059 0.06341 0.46938 0.0
C2376 C 0.53288 0.05872 0.426 0.0
C2377 C 0.51435 0.0692 0.42958 0.0
C2378 C 0.5097 0.07769 0.4533 0.0
C2379 C 0.52267 0.07462 0.47308 0.0
H2380 H 0.78928 0.7678 0.08315 0.0
H2381 H 0.82009 0.70689 0.08967 0.0
H2382 H 0.79166 0.77929 0.12715 0.0
H2383 H 0.82318 0.71899 0.13392 0.0
H2384 H 0.81903 0.80694 0.20834 0.0
H2385 H 0.81534 0.79652 0.16368 0.0
H2386 H 0.80148 0.71915 0.16688 0.0
H2387 H 0.8058 0.7297 0.21107 0.0
C2388 C 0.79681 0.75694 0.09393 0.0
C2389 C 0.80443 0.73628 0.08265 0.0
C2390 C 0.79828 0.7637 0.11931 0.0
C2391 C 0.80752 0.75011 0.13431 0.0
C2392 C 0.81554 0.72969 0.12306 0.0
C2393 C 0.81395 0.72282 0.0976 0.0
C2394 C 0.81476 0.78778 0.19936 0.0
C2395 C 0.81246 0.76912 0.21312 0.0
C2396 C 0.81273 0.78172 0.17377 0.0
C2397 C 0.80846 0.7569 0.16149 0.0
C2398 C 0.80537 0.73842 0.17549 0.0
C2399 C 0.80754 0.74446 0.20087 0.0
H2400 H 0.11796 1.01418 0.71207 0.0
H2401 H 0.18324 0.02891 0.68978 0.0
H2402 H 0.1024 0.01834 0.67282 0.0
H2403 H 0.16772 0.03334 0.64984 0.0
H2404 H 0.13659 0.03916 0.57404 0.0
H2405 H 0.15239 0.0336 0.61282 0.0
H2406 H 0.08876 0.02942 0.64005 0.0
H2407 H 0.07298 0.03434 0.6005 0.0
C2408 C 0.12928 0.01783 0.69862 0.0
C2409 C 0.15228 0.02042 0.70514 0.0
C2410 C 0.12008 0.02065 0.67547 0.0
C2411 C 0.13307 0.02665 0.65655 0.0
C2412 C 0.15624 0.02872 0.6628 0.0
C2413 C 0.1655 0.02579 0.68621 0.0
C2414 C 0.12575 0.0372 0.58825 0.0
C2415 C 0.10315 0.03769 0.58313 0.0
C2416 C 0.13508 0.03391 0.61119 0.0
C2417 C 0.12259 0.03071 0.63122 0.0
C2418 C 0.09981 0.03141 0.62612 0.0
C2419 C 0.09042 0.0346 0.60292 0.0
H2420 H 0.80238 0.37958 0.46632 0.0
H2421 H 0.84481 0.44202 0.44681 0.0
H2422 H 0.80391 0.35491 0.42664 0.0
H2423 H 0.84786 0.41697 0.40762 0.0
H2424 H 0.83161 0.37305 0.33112 0.0
H2425 H 0.82952 0.39815 0.37008 0.0
H2426 H 0.82667 0.33454 0.40391 0.0
H2427 H 0.82685 0.30895 0.36421 0.0
C2428 C 0.81209 0.38792 0.45341 0.0
C2429 C 0.82334 0.41259 0.45928 0.0
C2430 C 0.81324 0.37374 0.43083 0.0
C2431 C 0.82622 0.38381 0.41397 0.0
C2432 C 0.8374 0.40869 0.41996 0.0
C2433 C 0.83573 0.42307 0.44236 0.0
C2434 C 0.83047 0.36439 0.34686 0.0
C2435 C 0.8291 0.339 0.34465 0.0
C2436 C 0.82952 0.37888 0.36932 0.0
C2437 C 0.82787 0.36844 0.39021 0.0
C2438 C 0.82739 0.34313 0.38811 0.0
C2439 C 0.82776 0.32848 0.36546 0.0
H2440 H 0.47199 0.98431 0.24395 0.0
H2441 H 0.44581 0.04737 0.23352 0.0
H2442 H 0.48332 0.98009 0.20318 0.0
H2443 H 0.45709 0.04307 0.19222 0.0
H2444 H 0.52486 0.05389 0.15641 0.0
H2445 H 0.49597 0.05242 0.18339 0.0
H2446 H 0.47606 0.9736 0.15889 0.0
H2447 H 0.50528 0.97508 0.13173 0.0
C2448 C 0.46811 0.99682 0.23257 0.0
C2449 C 0.45851 0.01644 0.24188 0.0
C2450 C 0.47433 0.99424 0.2091 0.0
C2451 C 0.47124 1.01139 0.1946 0.0
C2452 C 0.45977 0.02971 0.20314 0.0
C2453 C 0.4533 0.03213 0.22666 0.0
C2454 C 0.51388 0.03633 0.15615 0.0
C2455 C 0.51754 1.0145 0.14234 0.0
C2456 C 0.49717 0.03552 0.1715 0.0
C2457 C 0.48387 1.01285 0.17335 0.0
C2458 C 0.48628 0.99127 0.15796 0.0
C2459 C 0.50307 0.99208 0.14262 0.0
H2460 H 0.79542 0.74896 0.96544 0.0
H2461 H 0.8184 0.68577 0.93054 0.0
H2462 H 0.79764 0.7656 0.92829 0.0
H2463 H 0.82232 0.70299 0.89401 0.0
H2464 H 0.81136 0.72736 0.82338 0.0
H2465 H 0.807 0.71085 0.86001 0.0
H2466 H 0.81792 0.7848 0.90237 0.0
H2467 H 0.81973 0.80104 0.86503 0.0
C2468 C 0.80105 0.73866 0.94979 0.0
C2469 C 0.80649 0.7159 0.95089 0.0
C2470 C 0.80262 0.74836 0.92843 0.0
C2471 C 0.81019 0.73585 0.90765 0.0
C2472 C 0.81584 0.71311 0.90906 0.0
C2473 C 0.81375 0.70318 0.9302 0.0
C2474 C 0.81227 0.74014 0.84039 0.0
C2475 C 0.81535 0.76556 0.84096 0.0
C2476 C 0.81027 0.73063 0.86175 0.0
C2477 C 0.8121 0.74626 0.88468 0.0
C2478 C 0.81584 0.77186 0.88528 0.0
C2479 C 0.81722 0.78132 0.86375 0.0
H2480 H 0.87716 0.1466 0.02 0.0
H2481 H 0.8297 0.08944 0.04194 0.0
H2482 H 0.90524 0.12265 0.02248 0.0
H2483 H 0.85815 0.06543 0.04451 0.0
H2484 H 0.92431 0.04533 0.06943 0.0
H2485 H 0.89586 0.06941 0.06937 0.0
H2486 H 0.90915 0.08153 0.9974 0.0
H2487 H 0.93689 0.05675 0.99687 0.0
C2488 C 0.87279 0.12905 0.02568 0.0
C2489 C 0.85124 0.11983 0.03082 0.0
C2490 C 0.88884 0.11532 0.02692 0.0
C2491 C 0.88372 0.09224 0.03354 0.0
C2492 C 0.86242 0.08331 0.0395 0.0
C2493 C 0.84621 0.09699 0.03803 0.0
C2494 C 0.92097 0.05283 0.05346 0.0
C2495 C 0.93291 0.04914 0.03319 0.0
C2496 C 0.90477 0.06665 0.0535 0.0
C2497 C 0.90049 0.07728 0.03344 0.0
C2498 C 0.9124 0.07371 0.01321 0.0
C2499 C 0.92836 0.05964 0.01301 0.0
H2500 H 0.41674 0.39857 0.02124 0.0
H2501 H 0.38729 0.45992 0.04778 0.0
H2502 H 0.45154 0.42656 0.02092 0.0
H2503 H 0.42263 0.48834 0.04709 0.0
H2504 H 0.49801 0.52715 0.0639 0.0
H2505 H 0.46167 0.50168 0.06599 0.0
H2506 H 0.4669 0.45602 0.9972 0.0
H2507 H 0.50295 0.48122 0.99514 0.0
C2508 C 0.41761 0.41809 0.02703 0.0
C2509 C 0.39898 0.42687 0.03439 0.0
C2510 C 0.43767 0.43423 0.02667 0.0
C2511 C 0.43991 0.45979 0.0336 0.0
C2512 C 0.42151 0.46874 0.04165 0.0
C2513 C 0.40123 0.45245 0.04198 0.0
C2514 C 0.49129 0.51186 0.04909 0.0
C2515 C 0.50349 0.50636 0.02931 0.0
C2516 C 0.47041 0.49725 0.05029 0.0
C2517 C 0.46136 0.47664 0.03187 0.0
C2518 C 0.47346 0.47147 0.01196 0.0
C2519 C 0.49419 0.48605 0.01072 0.0
H2520 H 0.44193 0.66873 0.7756 0.0
H2521 H 0.38228 0.62142 0.78802 0.0
H2522 H 0.42216 0.70234 0.77502 0.0
H2523 H 0.36276 0.65544 0.78875 0.0
H2524 H 0.34026 0.73628 0.80956 0.0
H2525 H 0.35854 0.70138 0.8118 0.0
H2526 H 0.39202 0.71549 0.74954 0.0
H2527 H 0.37278 0.74825 0.74601 0.0
C2528 C 0.42464 0.6652 0.77846 0.0
C2529 C 0.41433 0.64124 0.78174 0.0
C2530 C 0.41299 0.68494 0.77812 0.0
C2531 C 0.39022 0.68276 0.78198 0.0
C2532 C 0.38005 0.65896 0.78585 0.0
C2533 C 0.39151 0.63895 0.7853 0.0
C2534 C 0.35104 0.73183 0.79586 0.0
C2535 C 0.35389 0.74598 0.77709 0.0
C2536 C 0.36196 0.71145 0.79727 0.0
C2537 C 0.37744 0.70453 0.78086 0.0
C2538 C 0.38068 0.71926 0.76284 0.0
C2539 C 0.36923 0.73864 0.76085 0.0
H2540 H 0.23528 0.59794 0.53277 0.0
H2541 H 0.22134 0.65974 0.50358 0.0
H2542 H 0.19587 0.57934 0.52788 0.0
H2543 H 0.1823 0.64102 0.49829 0.0
H2544 H 0.1146 0.61877 0.52234 0.0
H2545 H 0.15434 0.63459 0.52541 0.0
H2546 H 0.16349 0.56115 0.4982 0.0
H2547 H 0.12356 0.54547 0.49556 0.0
C2548 C 0.22385 0.6074 0.52509 0.0
C2549 C 0.23133 0.63049 0.51896 0.0
C2550 C 0.20132 0.59675 0.52227 0.0
C2551 C 0.186 0.60901 0.51321 0.0
C2552 C 0.19366 0.6315 0.50601 0.0
C2553 C 0.21605 0.64217 0.50896 0.0
C2554 C 0.12527 0.60607 0.51751 0.0
C2555 C 0.11646 0.58093 0.50972 0.0
C2556 C 0.1479 0.61508 0.51884 0.0
C2557 C 0.16203 0.59908 0.51203 0.0
C2558 C 0.15304 0.57383 0.5039 0.0
C2559 C 0.13031 0.56488 0.50241 0.0
H2560 H 0.75534 1.01399 0.76433 0.0
H2561 H 0.69318 0.9632 0.76322 0.0
H2562 H 0.77486 0.984 0.7759 0.0
H2563 H 0.71273 0.9326 0.7737 0.0
H2564 H 0.80704 0.92473 0.79178 0.0
H2565 H 0.78582 0.94585 0.768 0.0
H2566 H 0.7313 0.92998 0.81092 0.0
H2567 H 0.75191 0.90745 0.83346 0.0
C2568 C 0.74589 0.99605 0.76567 0.0
C2569 C 0.72278 0.99098 0.7632 0.0
C2570 C 0.75708 0.97877 0.77225 0.0
C2571 C 0.74533 0.956 0.7761 0.0
C2572 C 0.72223 0.9502 0.77145 0.0
C2573 C 0.71104 0.96761 0.76523 0.0
C2574 C 0.7903 0.92519 0.7957 0.0
C2575 C 0.78123 0.91467 0.81472 0.0
C2576 C 0.77824 0.93753 0.78223 0.0
C2577 C 0.75694 0.9398 0.78765 0.0
C2578 C 0.74755 0.92836 0.806 0.0
C2579 C 0.75952 0.9158 0.81926 0.0
H2580 H 0.75536 0.9011 0.53246 0.0
H2581 H 0.80311 0.96994 0.55266 0.0
H2582 H 0.72581 0.92349 0.53047 0.0
H2583 H 0.77404 0.9923 0.5494 0.0
H2584 H 0.71874 0.03029 0.55741 0.0
H2585 H 0.74442 1.00481 0.566 0.0
H2586 H 0.70996 0.9469 0.50696 0.0
H2587 H 0.6835 0.97214 0.49966 0.0
C2588 C 0.75952 0.92103 0.53664 0.0
C2589 C 0.78156 0.93375 0.54293 0.0
C2590 C 0.74259 0.93391 0.53525 0.0
C2591 C 0.74736 0.95983 0.53981 0.0
C2592 C 0.76947 0.97242 0.54636 0.0
C2593 C 0.78628 0.95957 0.54811 0.0
C2594 C 0.71654 1.01191 0.54663 0.0
C2595 C 0.69936 1.00314 0.52783 0.0
C2596 C 0.73137 0.99736 0.55131 0.0
C2597 C 0.72971 0.97388 0.53685 0.0
C2598 C 0.7118 0.96474 0.51864 0.0
C2599 C 0.69666 0.97919 0.51432 0.0
H2600 H 0.38903 0.51121 0.77859 0.0
H2601 H 0.44597 0.47867 0.77674 0.0
H2602 H 0.36538 0.47016 0.77724 0.0
H2603 H 0.42296 0.43862 0.77469 0.0
H2604 H 0.38317 0.369 0.79163 0.0
H2605 H 0.40383 0.41045 0.79334 0.0
H2606 H 0.34688 0.4288 0.7593 0.0
H2607 H 0.3258 0.38683 0.7583 0.0
C2608 C 0.39666 0.49552 0.77776 0.0
C2609 C 0.4199 0.49913 0.77801 0.0
C2610 C 0.38295 0.47161 0.77692 0.0
C2611 C 0.39177 0.45012 0.77629 0.0
C2612 C 0.41491 0.45398 0.77597 0.0
C2613 C 0.42841 0.47754 0.77691 0.0
C2614 C 0.37477 0.38164 0.78443 0.0
C2615 C 0.35239 0.3737 0.77483 0.0
C2616 C 0.38694 0.40591 0.78519 0.0
C2617 C 0.37767 0.42397 0.77612 0.0
C2618 C 0.35511 0.41615 0.76668 0.0
C2619 C 0.34283 0.39168 0.76601 0.0
H2620 H 0.24215 0.60295 0.25687 0.0
H2621 H 0.19175 0.63999 0.28436 0.0
H2622 H 0.26538 0.64269 0.25433 0.0
H2623 H 0.21501 0.67928 0.28229 0.0
H2624 H 0.24672 0.74193 0.25164 0.0
H2625 H 0.22724 0.69961 0.24915 0.0
H2626 H 0.28609 0.68279 0.28101 0.0
H2627 H 0.30588 0.72543 0.28279 0.0
C2628 C 0.23608 0.61951 0.26251 0.0
C2629 C 0.21496 0.61829 0.27055 0.0
C2630 C 0.24942 0.64221 0.26111 0.0
C2631 C 0.24182 0.66396 0.2677 0.0
C2632 C 0.22105 0.66273 0.27646 0.0
C2633 C 0.20776 0.64019 0.27777 0.0
C2634 C 0.25558 0.72901 0.25762 0.0
C2635 C 0.27772 0.73666 0.26717 0.0
C2636 C 0.24445 0.70489 0.25636 0.0
C2637 C 0.25504 0.6881 0.26537 0.0
C2638 C 0.27757 0.6954 0.27392 0.0
C2639 C 0.28886 0.71967 0.27494 0.0
H2640 H 0.55312 0.70596 0.43347 0.0
H2641 H 0.51895 0.71689 0.49756 0.0
H2642 H 0.56264 0.66932 0.44508 0.0
H2643 H 0.52777 0.68012 0.50882 0.0
H2644 H 0.56029 0.5911 0.45861 0.0
H2645 H 0.55348 0.62902 0.44832 0.0
H2646 H 0.55059 0.65774 0.52436 0.0
H2647 H 0.55652 0.61873 0.5344 0.0
C2648 C 0.54744 0.70058 0.44997 0.0
C2649 C 0.53507 0.7149 0.46433 0.0
C2650 C 0.55284 0.67919 0.45673 0.0
C2651 C 0.54613 0.67095 0.47818 0.0
C2652 C 0.53379 0.68542 0.49245 0.0
C2653 C 0.52845 0.70674 0.48573 0.0
C2654 C 0.55834 0.60552 0.4733 0.0
C2655 C 0.55918 0.60146 0.49745 0.0
C2656 C 0.55454 0.62771 0.46733 0.0
C2657 C 0.55132 0.64729 0.48522 0.0
C2658 C 0.55254 0.64341 0.50964 0.0
C2659 C 0.55628 0.62095 0.51562 0.0
H2660 H 0.69781 0.33924 0.63356 0.0
H2661 H 0.65028 0.31627 0.68205 0.0
H2662 H 0.72735 0.33497 0.66165 0.0
H2663 H 0.67986 0.31061 0.70992 0.0
H2664 H 0.74019 0.31589 0.76465 0.0
H2665 H 0.71003 0.3232 0.73878 0.0
H2666 H 0.7462 0.30999 0.67631 0.0
H2667 H 0.77653 0.3048 0.70231 0.0
C2668 C 0.69357 0.3332 0.65026 0.0
C2669 C 0.67139 0.32819 0.65525 0.0
C2670 C 0.7107 0.33036 0.66648 0.0
C2671 C 0.7065 0.32187 0.68835 0.0
C2672 C 0.68425 0.31734 0.69361 0.0
C2673 C 0.66708 0.32055 0.67745 0.0
C2674 C 0.74178 0.31472 0.7454 0.0
C2675 C 0.76108 0.30935 0.7358 0.0
C2676 C 0.72421 0.31872 0.73033 0.0
C2677 C 0.72516 0.31742 0.70498 0.0
C2678 C 0.74448 0.31185 0.69556 0.0
C2679 C 0.76203 0.30823 0.71062 0.0
H2680 H 0.04591 0.36264 0.9256 0.0
H2681 H 0.02955 0.34502 0.99481 0.0
H2682 H 0.05051 0.40586 0.94213 0.0
H2683 H 0.03305 0.38911 0.01152 0.0
H2684 H 0.06169 0.47489 0.03884 0.0
H2685 H 0.05408 0.42977 0.02577 0.0
H2686 H 0.03417 0.4375 0.95285 0.0
H2687 H 0.04315 0.48183 0.96562 0.0
C2688 C 0.04291 0.36793 0.9444 0.0
C2689 C 0.03715 0.3499 0.95864 0.0
C2690 C 0.04534 0.39312 0.954 0.0
C2691 C 0.0417 0.40174 0.9783 0.0
C2692 C 0.03606 0.38368 0.99277 0.0
C2693 C 0.03388 0.3582 0.98312 0.0
C2694 C 0.05531 0.46678 0.02014 0.0
C2695 C 0.05297 0.48213 1.00331 0.0
C2696 C 0.05098 0.44076 0.01251 0.0
C2697 C 0.04405 0.42933 0.98785 0.0
C2698 C 0.04036 0.44498 0.97168 0.0
C2699 C 0.04513 0.47069 0.97913 0.0
H2700 H 0.02883 0.82049 0.13052 0.0
H2701 H 0.06874 0.81171 0.19277 0.0
H2702 H 0.99645 0.81642 0.15346 0.0
H2703 H 0.03664 0.80707 0.21532 0.0
H2704 H 0.98332 0.82369 0.26026 0.0
H2705 H 1.01331 0.83056 0.23489 0.0
H2706 H 0.96988 0.78908 0.17175 0.0
H2707 H 0.93949 0.78275 0.19745 0.0
C2708 C 0.03069 0.81753 0.14902 0.0
C2709 C 0.05149 0.81656 0.15979 0.0
C2710 C 1.01208 0.8151 0.16217 0.0
C2711 C 0.0138 0.81172 0.18648 0.0
C2712 C 0.03459 0.81027 0.19693 0.0
C2713 C 0.05308 0.81272 0.18386 0.0
C2714 C 0.98007 0.81624 0.24091 0.0
C2715 C 0.95905 0.80241 0.23098 0.0
C2716 C 0.99737 0.81999 0.22631 0.0
C2717 C 0.99436 0.80985 0.20123 0.0
C2718 C 0.97295 0.79716 0.19096 0.0
C2719 C 0.95547 0.79354 0.20567 0.0
H2720 H 0.52171 0.36793 0.16329 0.0
H2721 H 0.55531 0.31844 0.12016 0.0
H2722 H 0.53773 0.40079 0.14195 0.0
H2723 H 0.57169 0.35106 0.09987 0.0
H2724 H 0.61129 0.42195 0.08388 0.0
H2725 H 0.5984 0.39829 0.11461 0.0
H2726 H 0.53103 0.39717 0.09024 0.0
H2727 H 0.5435 0.41936 0.05856 0.0
C2728 C 0.53289 0.36431 0.14975 0.0
C2729 C 0.5373 0.34078 0.14326 0.0
C2730 C 0.54196 0.38295 0.13764 0.0
C2731 C 0.55604 0.37827 0.11966 0.0
C2732 C 0.56112 0.35506 0.11399 0.0
C2733 C 0.55162 0.33638 0.1255 0.0
C2734 C 0.59374 0.41673 0.08506 0.0
C2735 C 0.57846 0.42232 0.06854 0.0
C2736 C 0.58645 0.40359 0.10286 0.0
C2737 C 0.56385 0.39637 0.10475 0.0
C2738 C 0.54858 0.40311 0.08931 0.0
C2739 C 0.5558 0.41579 0.07119 0.0
H2740 H 0.0735 0.33687 0.34157 0.0
H2741 H 0.03718 0.34245 0.40477 0.0
H2742 H 0.04012 0.3358 0.31574 0.0
H2743 H 1.00387 0.34141 0.37887 0.0
H2744 H 0.94493 0.3158 0.3185 0.0
H2745 H 0.97722 0.31306 0.34419 0.0
H2746 H 0.01776 0.36835 0.31259 0.0
H2747 H 0.98558 0.37163 0.28744 0.0
C2748 C 0.05836 0.3376 0.3499 0.0
C2749 C 0.05798 0.33999 0.3752 0.0
C2750 C 0.03933 0.33713 0.33515 0.0
C2751 C 0.01955 0.33872 0.34541 0.0
C2752 C 0.01892 0.34008 0.37055 0.0
C2753 C 0.03801 0.34085 0.38535 0.0
C2754 C 0.96068 0.32756 0.31724 0.0
C2755 C 0.96274 0.34382 0.30081 0.0
C2756 C 0.97913 0.32588 0.33184 0.0
C2757 C 0.99994 0.34027 0.33008 0.0
C2758 C 1.00196 0.35667 0.31388 0.0
C2759 C 0.98354 0.35852 0.29949 0.0
H2760 H 0.99049 0.70926 0.59087 0.0
H2761 H 0.02124 0.70502 0.6607 0.0
H2762 H 0.99513 0.66812 0.57425 0.0
H2763 H 0.02592 0.66359 0.64407 0.0
H2764 H 0.06889 0.62537 0.58852 0.0
H2765 H 0.05292 0.65557 0.61391 0.0
H2766 H 0.98901 0.62354 0.57393 0.0
H2767 H 1.0049 0.59342 0.54854 0.0
C2768 C 0.99725 0.69896 0.60293 0.0
C2769 C 1.00563 0.71019 0.62692 0.0
C2770 C 0.99993 0.67542 0.59346 0.0
C2771 C 1.01121 0.66291 0.60783 0.0
C2772 C 0.01737 0.67305 0.63261 0.0
C2773 C 0.01444 0.69656 0.64219 0.0
C2774 C 0.05139 0.62458 0.5854 0.0
C2775 C 0.03826 0.60751 0.56619 0.0
C2776 C 0.04218 0.64165 0.60011 0.0
C2777 C 0.01971 0.64182 0.59582 0.0
C2778 C 1.00639 0.62386 0.57747 0.0
C2779 C 0.01557 0.60681 0.56282 0.0
H2780 H 0.69786 0.83305 0.89113 0.0
H2781 H 0.65504 0.81234 0.82367 0.0
H2782 H 0.72942 0.82849 0.86866 0.0
H2783 H 0.68684 0.80767 0.80113 0.0
H2784 H 0.7551 0.83712 0.77322 0.0
H2785 H 0.72167 0.83812 0.79399 0.0
H2786 H 0.74296 0.7942 0.84276 0.0
H2787 H 0.7761 0.79326 0.82215 0.0
C2788 C 0.69517 0.8273 0.87151 0.0
C2789 C 0.67404 0.82303 0.85909 0.0
C2790 C 0.71321 0.82461 0.8587 0.0
C2791 C 0.71045 0.81779 0.83323 0.0
C2792 C 0.68931 0.81315 0.82078 0.0
C2793 C 0.67117 0.81564 0.83366 0.0
C2794 C 0.75239 0.82753 0.78823 0.0
C2795 C 0.76775 0.81467 0.79579 0.0
C2796 C 0.73334 0.82799 0.79998 0.0
C2797 C 0.72981 0.81611 0.81982 0.0
C2798 C 0.74538 0.80353 0.82754 0.0
C2799 C 0.76423 0.80287 0.81566 0.0
H2800 H 0.45157 0.55697 0.68872 0.0
H2801 H 0.51508 0.59237 0.72666 0.0
H2802 H 0.46823 0.5535 0.64983 0.0
H2803 H 0.53174 0.5887 0.68867 0.0
H2804 H 0.56211 0.58935 0.61594 0.0
H2805 H 0.54389 0.59481 0.65303 0.0
H2806 H 0.48763 0.53906 0.61805 0.0
H2807 H 0.50614 0.53384 0.58072 0.0
C2808 C 0.46896 0.56484 0.68902 0.0
C2809 C 0.48138 0.57594 0.71186 0.0
C2810 C 0.47891 0.56238 0.66626 0.0
C2811 C 0.50202 0.57073 0.66465 0.0
C2812 C 0.5141 0.58212 0.68759 0.0
C2813 C 0.50425 0.58442 0.71008 0.0
C2814 C 0.54589 0.57803 0.61585 0.0
C2815 C 0.53625 0.56093 0.59426 0.0
C2816 C 0.53509 0.58112 0.63778 0.0
C2817 C 0.5136 0.56745 0.64005 0.0
C2818 C 0.50385 0.55046 0.61826 0.0
C2819 C 0.51476 0.54729 0.5963 0.0
H2820 H 0.82774 0.2014 0.96265 0.0
H2821 H 0.77931 0.13358 0.93864 0.0
H2822 H 0.8156 0.21694 0.92754 0.0
H2823 H 0.76635 0.14951 0.90372 0.0
H2824 H 0.75739 0.18486 0.83619 0.0
H2825 H 0.77399 0.1647 0.86554 0.0
H2826 H 0.78178 0.23063 0.92056 0.0
H2827 H 0.76571 0.2507 0.89144 0.0
C2828 C 0.81475 0.18967 0.94948 0.0
C2829 C 0.80435 0.16643 0.95315 0.0
C2830 C 0.80767 0.1986 0.92955 0.0
C2831 C 0.7897 0.18464 0.91323 0.0
C2832 C 0.78029 0.1606 0.91598 0.0
C2833 C 0.78768 0.15147 0.93585 0.0
C2834 C 0.76272 0.19498 0.85455 0.0
C2835 C 0.76072 0.21954 0.86138 0.0
C2836 C 0.77217 0.18345 0.87131 0.0
C2837 C 0.77959 0.19628 0.89515 0.0
C2838 C 0.77689 0.22052 0.90209 0.0
C2839 C 0.76761 0.23201 0.88542 0.0
H2840 H 0.12781 0.49434 0.20658 0.0
H2841 H 0.18275 0.5455 0.18851 0.0
H2842 H 0.10875 0.49032 0.16628 0.0
H2843 H 0.16331 0.54314 0.14901 0.0
H2844 H 0.12664 0.53414 0.07757 0.0
H2845 H 0.14759 0.52384 0.11043 0.0
H2846 H 0.08987 0.51632 0.14998 0.0
H2847 H 0.06854 0.52479 0.11591 0.0
C2848 C 0.13604 0.50406 0.19355 0.0
C2849 C 0.15665 0.5201 0.20031 0.0
C2850 C 0.12501 0.50217 0.1707 0.0
C2851 C 0.1342 0.51688 0.15462 0.0
C2852 C 0.15575 0.53131 0.16074 0.0
C2853 C 0.16701 0.53266 0.18336 0.0
C2854 C 0.11835 0.53011 0.09316 0.0
C2855 C 0.09604 0.53077 0.09441 0.0
C2856 C 0.13042 0.52423 0.11209 0.0
C2857 C 0.12058 0.51949 0.13303 0.0
C2858 C 0.09799 0.51944 0.13397 0.0
C2859 C 0.08575 0.52466 0.11461 0.0
H2860 H 0.85403 0.90584 0.46359 0.0
H2861 H 0.81333 0.83694 0.47139 0.0
H2862 H 0.85696 0.88889 0.42137 0.0
H2863 H 0.81438 0.82031 0.4283 0.0
H2864 H 0.82339 0.79225 0.34935 0.0
H2865 H 0.83 0.80546 0.39386 0.0
H2866 H 0.83674 0.8812 0.38543 0.0
H2867 H 0.83198 0.86807 0.34192 0.0
C2868 C 0.84557 0.88703 0.45611 0.0
C2869 C 0.83331 0.87279 0.47065 0.0
C2870 C 0.84701 0.87726 0.43172 0.0
C2871 C 0.8354 0.85327 0.4208 0.0
C2872 C 0.82373 0.83873 0.43578 0.0
C2873 C 0.82295 0.8483 0.46051 0.0
C2874 C 0.82711 0.81171 0.35724 0.0
C2875 C 0.8276 0.82919 0.34221 0.0
C2876 C 0.83052 0.81936 0.38277 0.0
C2877 C 0.83401 0.84457 0.39369 0.0
C2878 C 0.83484 0.86176 0.37824 0.0
C2879 C 0.83187 0.85421 0.35305 0.0
H2880 H 0.4484 0.58035 0.86907 0.0
H2881 H 0.50582 0.57211 0.83268 0.0
H2882 H 0.46661 0.57451 0.90667 0.0
H2883 H 0.52423 0.56567 0.87026 0.0
H2884 H 0.56038 0.5647 0.9471 0.0
H2885 H 0.5431 0.57014 0.90817 0.0
H2886 H 0.47963 0.55797 0.93594 0.0
H2887 H 0.49688 0.55301 0.97413 0.0
C2888 C 0.46496 0.57715 0.86881 0.0
C2889 C 0.47509 0.57684 0.84682 0.0
C2890 C 0.47575 0.57352 0.89093 0.0
C2891 C 0.4976 0.56918 0.89295 0.0
C2892 C 0.50773 0.56895 0.8708 0.0
C2893 C 0.4969 0.57262 0.84864 0.0
C2894 C 0.54269 0.56299 0.94492 0.0
C2895 C 0.5304 0.55804 0.9647 0.0
C2896 C 0.53246 0.56621 0.92211 0.0
C2897 C 0.50928 0.56501 0.91754 0.0
C2898 C 0.49729 0.5598 0.93746 0.0
C2899 C 0.50743 0.55661 0.95998 0.0
H2900 H 0.78699 0.23082 0.07514 0.0
H2901 H 0.82552 0.17956 0.09339 0.0
H2902 H 0.78795 0.24834 0.11763 0.0
H2903 H 0.82711 0.19808 0.13671 0.0
H2904 H 0.80482 0.22663 0.21329 0.0
H2905 H 0.80365 0.20458 0.17132 0.0
H2906 H 0.81637 0.2741 0.14709 0.0
H2907 H 0.81598 0.29571 0.18813 0.0
C2908 C 0.79596 0.22347 0.08824 0.0
C2909 C 0.8066 0.20415 0.08086 0.0
C2910 C 0.79651 0.23357 0.11265 0.0
C2911 C 0.808 0.22494 0.1304 0.0
C2912 C 0.81816 0.20508 0.1233 0.0
C2913 C 0.81738 0.19464 0.0986 0.0
C2914 C 0.80704 0.23706 0.19886 0.0
C2915 C 0.81045 0.26287 0.20393 0.0
C2916 C 0.8067 0.22449 0.17498 0.0
C2917 C 0.80978 0.23764 0.15599 0.0
C2918 C 0.8135 0.26343 0.16128 0.0
C2919 C 0.81345 0.27584 0.18487 0.0
H2920 H 0.20451 0.55595 0.35158 0.0
H2921 H 0.1474 0.56244 0.30724 0.0
H2922 H 0.18753 0.5699 0.38833 0.0
H2923 H 0.1313 0.57742 0.34312 0.0
H2924 H 0.09496 0.58005 0.40615 0.0
H2925 H 0.11429 0.56158 0.37462 0.0
H2926 H 0.17645 0.60481 0.41184 0.0
H2927 H 0.15717 0.62152 0.44517 0.0
C2928 C 0.18851 0.56059 0.34971 0.0
C2929 C 0.1772 0.55793 0.32662 0.0
C2930 C 0.17883 0.56862 0.37066 0.0
C2931 C 0.15785 0.57428 0.36865 0.0
C2932 C 0.1471 0.57241 0.34543 0.0
C2933 C 0.15652 0.56409 0.32474 0.0
C2934 C 0.11278 0.58514 0.40824 0.0
C2935 C 0.12441 0.60261 0.42823 0.0
C2936 C 0.12388 0.57483 0.3898 0.0
C2937 C 0.14686 0.58228 0.39035 0.0
C2938 C 0.15872 0.59877 0.41083 0.0
C2939 C 0.1476 0.60868 0.42971 0.0
H2940 H 0.81099 0.82463 0.58164 0.0
H2941 H 0.83729 0.89981 0.6177 0.0
H2942 H 0.80601 0.81259 0.62063 0.0
H2943 H 0.83373 0.88759 0.65729 0.0
H2944 H 0.81212 0.85989 0.7261 0.0
H2945 H 0.81317 0.87417 0.68746 0.0
H2946 H 0.82584 0.80446 0.6525 0.0
H2947 H 0.82356 0.79002 0.69059 0.0
C2948 C 0.81574 0.83862 0.59804 0.0
C2949 C 0.82468 0.86312 0.59658 0.0
C2950 C 0.81317 0.83167 0.62055 0.0
C2951 C 0.82003 0.84887 0.64247 0.0
C2952 C 0.82815 0.87371 0.64097 0.0
C2953 C 0.83025 0.88079 0.61826 0.0
C2954 C 0.81506 0.84766 0.71006 0.0
C2955 C 0.81759 0.82375 0.7114 0.0
C2956 C 0.81578 0.85589 0.68786 0.0
C2957 C 0.81934 0.8405 0.66646 0.0
C2958 C 0.82234 0.81674 0.66815 0.0
C2959 C 0.82123 0.80843 0.69017 0.0
H2960 H 0.81754 0.5199 0.55554 0.0
H2961 H 0.76298 0.45749 0.53204 0.0
H2962 H 0.79149 0.54656 0.56469 0.0
H2963 H 0.73717 0.48405 0.54047 0.0
H2964 H 0.69633 0.53302 0.5785 0.0
H2965 H 0.72395 0.50802 0.57414 0.0
H2966 H 0.76472 0.56283 0.54202 0.0
H2967 H 0.73705 0.588 0.54661 0.0
C2968 C 0.80003 0.5119 0.55247 0.0
C2969 C 0.79227 0.48668 0.54315 0.0
C2970 C 0.78515 0.52714 0.55752 0.0
C2971 C 0.76233 0.51736 0.55331 0.0
C2972 C 0.75465 0.49206 0.54429 0.0
C2973 C 0.76947 0.47686 0.53933 0.0
C2974 C 0.71127 0.53978 0.57064 0.0
C2975 C 0.71459 0.56241 0.56286 0.0
C2976 C 0.72703 0.52546 0.56809 0.0
C2977 C 0.74644 0.53346 0.55766 0.0
C2978 C 0.75005 0.55639 0.55045 0.0
C2979 C 0.73426 0.57079 0.55307 0.0
H2980 H 0.21819 0.19835 0.52386 0.0
H2981 H 0.24444 0.13721 0.48988 0.0
H2982 H 0.1841 0.17058 0.52746 0.0
H2983 H 0.20943 0.10912 0.49158 0.0
H2984 H 0.14948 0.06098 0.5157 0.0
H2985 H 0.18487 0.0877 0.51269 0.0
H2986 H 0.15185 0.14773 0.50923 0.0
H2987 H 0.11724 0.12123 0.51375 0.0
C2988 C 0.21645 0.17891 0.51661 0.0
C2989 C 0.23398 0.17008 0.50632 0.0
C2990 C 0.19667 0.1628 0.51849 0.0
C2991 C 0.19341 0.13728 0.50945 0.0
C2992 C 0.21109 0.12846 0.49908 0.0
C2993 C 0.23119 0.14462 0.49784 0.0
C2994 C 0.14995 0.0799 0.51426 0.0
C2995 C 0.13063 0.08913 0.51521 0.0
C2996 C 0.17028 0.09534 0.51242 0.0
C2997 C 0.1717 0.1203 0.51093 0.0
C2998 C 0.15201 0.12907 0.51118 0.0
C2999 C 0.13193 0.11382 0.51363 0.0
H3000 H 0.24764 0.97248 0.75227 0.0
H3001 H 0.19885 0.93672 0.79253 0.0
H3002 H 0.26767 0.93896 0.75238 0.0
H3003 H 0.21923 0.90381 0.79349 0.0
H3004 H 0.27237 0.86055 0.81471 0.0
H3005 H 0.25245 0.89279 0.8111 0.0
H3006 H 0.27048 0.89266 0.73844 0.0
H3007 H 0.28962 0.85858 0.74153 0.0
C3008 C 0.24089 0.95756 0.76119 0.0
C3009 C 0.22089 0.95821 0.77221 0.0
C3010 C 0.25264 0.93786 0.76121 0.0
C3011 C 0.24575 0.91759 0.77297 0.0
C3012 C 0.22584 0.91843 0.78416 0.0
C3013 C 0.21378 0.93771 0.78351 0.0
C3014 C 0.27234 0.86701 0.79765 0.0
C3015 C 0.28363 0.85607 0.77872 0.0
C3016 C 0.26049 0.886 0.79556 0.0
C3017 C 0.25914 0.89646 0.77445 0.0
C3018 C 0.27068 0.88594 0.75534 0.0
C3019 C 0.28206 0.86606 0.75716 0.0
H3020 H 0.40776 0.94509 0.97391 0.0
H3021 H 0.40312 0.99113 0.04259 0.0
H3022 H 0.44652 0.9651 0.97541 0.0
H3023 H 0.44204 1.00967 0.04539 0.0
H3024 H 0.5086 0.05251 0.03868 0.0
H3025 H 0.46925 0.03573 0.03259 0.0
H3026 H 0.48097 0.96681 0.99396 0.0
H3027 H 0.52049 0.98479 0.99869 0.0
C3028 C 0.41517 0.95943 0.98938 0.0
C3029 C 0.40262 0.96665 1.00812 0.0
C3030 C 0.43741 0.97074 0.99042 0.0
C3031 C 0.44766 0.98892 0.01064 0.0
C3032 C 0.43482 0.99619 0.02924 0.0
C3033 C 0.41247 0.98545 0.02779 0.0
C3034 C 0.50261 0.03402 0.02829 0.0
C3035 C 0.51726 0.02016 0.01832 0.0
C3036 C 0.48006 0.02412 0.02524 0.0
C3037 C 0.47169 0.9998 0.01274 0.0
C3038 C 0.48661 0.9858 1.0031 0.0
C3039 C 0.50925 0.99593 1.00592 0.0
H3040 H 0.87361 0.57672 0.78581 0.0
H3041 H 0.93541 0.63033 0.79762 0.0
H3042 H 0.85574 0.60496 0.76845 0.0
H3043 H 0.91722 0.65914 0.78085 0.0
H3044 H 0.82412 0.66481 0.75474 0.0
H3045 H 0.84407 0.64291 0.77868 0.0
H3046 H 0.90159 0.66224 0.741 0.0
H3047 H 0.88207 0.68581 0.71817 0.0
C3048 C 0.8833 0.59471 0.78501 0.0
C3049 C 0.90588 0.60135 0.79291 0.0
C3050 C 0.87302 0.61098 0.77524 0.0
C3051 C 0.88509 0.63428 0.77339 0.0
C3052 C 0.9076 0.64118 0.78187 0.0
C3053 C 0.91795 0.62478 0.79154 0.0
C3054 C 0.8412 0.66496 0.75195 0.0
C3055 C 0.8515 0.67691 0.73443 0.0
C3056 C 0.85253 0.65215 0.76548 0.0
C3057 C 0.87426 0.65063 0.76146 0.0
C3058 C 0.88487 0.66325 0.74457 0.0
C3059 C 0.8736 0.67638 0.73122 0.0
H3060 H 0.83278 0.63245 0.03546 0.0
H3061 H 0.87938 0.68962 0.0127 0.0
H3062 H 0.86212 0.61124 0.04281 0.0
H3063 H 0.90906 0.66821 0.02026 0.0
H3064 H 0.94726 0.60212 0.01189 0.0
H3065 H 0.92132 0.6282 1.00469 0.0
H3066 H 0.89485 0.61876 0.07249 0.0
H3067 H 0.92062 0.5931 0.07973 0.0
C3068 C 0.84934 0.64058 0.03213 0.0
C3069 C 0.85376 0.66286 0.02372 0.0
C3070 C 0.86621 0.62845 0.03645 0.0
C3071 C 0.88799 0.63818 0.0324 0.0
C3072 C 0.89245 0.66027 0.02356 0.0
C3073 C 0.8755 0.67259 0.0194 0.0
C3074 C 0.93614 0.60599 0.02542 0.0
C3075 C 0.93567 0.59507 0.04614 0.0
C3076 C 0.92128 0.62091 0.02129 0.0
C3077 C 0.90571 0.62511 0.03779 0.0
C3078 C 0.90623 0.61536 0.05912 0.0
C3079 C 0.92101 0.60061 0.06326 0.0
H3080 H 0.19249 0.12311 0.79438 0.0
H3081 H 0.24625 0.08696 0.7795 0.0
H3082 H 0.2161 0.16246 0.79417 0.0
H3083 H 0.2704 0.12731 0.77897 0.0
H3084 H 0.31275 0.21012 0.79864 0.0
H3085 H 0.29127 0.16858 0.79892 0.0
H3086 H 0.23295 0.18896 0.77086 0.0
H3087 H 0.25414 0.22991 0.77078 0.0
C3088 C 0.20944 0.1233 0.79097 0.0
C3089 C 0.21693 0.10097 0.78691 0.0
C3090 C 0.22322 0.14639 0.79062 0.0
C3091 C 0.24558 0.14896 0.78617 0.0
C3092 C 0.25345 0.12674 0.78254 0.0
C3093 C 0.23944 0.10328 0.78279 0.0
C3094 C 0.29536 0.20581 0.79246 0.0
C3095 C 0.28558 0.22415 0.78475 0.0
C3096 C 0.28287 0.18163 0.79254 0.0
C3097 C 0.25986 0.17462 0.78518 0.0
C3098 C 0.25029 0.19302 0.77729 0.0
C3099 C 0.26272 0.21694 0.77709 0.0
H3100 H 0.43417 0.95889 0.35026 0.0
H3101 H 0.39302 0.98011 0.29633 0.0
H3102 H 0.40987 0.91811 0.34281 0.0
H3103 H 0.36996 0.93931 0.28757 0.0
H3104 H 0.38783 0.84193 0.29498 0.0
H3105 H 0.40574 0.88435 0.31166 0.0
H3106 H 0.34467 0.90684 0.29576 0.0
H3107 H 0.32732 0.86416 0.27745 0.0
C3108 C 0.41984 0.95489 0.33703 0.0
C3109 C 0.41565 0.97252 0.32372 0.0
C3110 C 0.40603 0.93151 0.33254 0.0
C3111 C 0.38825 0.92515 0.3141 0.0
C3112 C 0.3833 0.94343 0.30203 0.0
C3113 C 0.3967 0.96691 0.30698 0.0
C3114 C 0.37829 0.85603 0.29525 0.0
C3115 C 0.35618 0.84998 0.28554 0.0
C3116 C 0.38842 0.88032 0.30511 0.0
C3117 C 0.37662 0.89913 0.30547 0.0
C3118 C 0.35435 0.89293 0.29562 0.0
C3119 C 0.3443 0.86853 0.28541 0.0
H3120 H 0.5983 0.36534 0.5625 0.0
H3121 H 0.60731 0.40821 0.63522 0.0
H3122 H 0.59064 0.40075 0.54634 0.0
H3123 H 0.60089 0.44366 0.61946 0.0
H3124 H 0.57333 0.50243 0.59267 0.0
H3125 H 0.57888 0.4654 0.60562 0.0
H3126 H 0.59707 0.43861 0.53442 0.0
H3127 H 0.59023 0.47601 0.52116 0.0
C3128 C 0.59894 0.38238 0.57514 0.0
C3129 C 0.60346 0.38345 0.6004 0.0
C3130 C 0.59454 0.40302 0.56578 0.0
C3131 C 0.59458 0.42583 0.58121 0.0
C3132 C 0.59975 0.4268 0.60644 0.0
C3133 C 0.60385 0.40621 0.61572 0.0
C3134 C 0.5783 0.48857 0.57954 0.0
C3135 C 0.58103 0.49258 0.55569 0.0
C3136 C 0.58191 0.46707 0.58718 0.0
C3137 C 0.58922 0.44836 0.57165 0.0
C3138 C 0.59152 0.45207 0.54738 0.0
C3139 C 0.58754 0.47373 0.53957 0.0
H3140 H 0.44403 0.7842 0.42996 0.0
H3141 H 0.48133 0.7688 0.36908 0.0
H3142 H 0.41281 0.78539 0.40246 0.0
H3143 H 0.44995 0.77064 0.3412 0.0
H3144 H 0.38214 0.75556 0.29535 0.0
H3145 H 0.41392 0.75316 0.32171 0.0
H3146 H 0.39763 0.80759 0.37772 0.0
H3147 H 0.36574 0.80948 0.35151 0.0
C3148 C 0.44569 0.78105 0.41063 0.0
C3149 C 0.46556 0.77634 0.40206 0.0
C3150 C 0.42762 0.782 0.39465 0.0
C3151 C 0.42845 0.77842 0.36922 0.0
C3152 C 0.44824 0.77333 0.3605 0.0
C3153 C 0.46644 0.77233 0.3766 0.0
C3154 C 0.38534 0.76723 0.3131 0.0
C3155 C 0.37114 0.78307 0.32066 0.0
C3156 C 0.40382 0.76587 0.32846 0.0
C3157 C 0.40885 0.78015 0.35225 0.0
C3158 C 0.39453 0.79589 0.35985 0.0
C3159 C 0.3761 0.79722 0.34449 0.0
H3160 H 0.08323 0.74533 0.12042 0.0
H3161 H 0.11869 0.7478 0.05701 0.0
H3162 H 0.07554 0.70034 0.11074 0.0
H3163 H 0.11157 0.70309 0.04771 0.0
H3164 H 0.08208 0.62073 0.10211 0.0
H3165 H 0.0904 0.66548 0.11052 0.0
H3166 H 0.08656 0.66501 0.03331 0.0
H3167 H 0.07846 0.61976 0.02504 0.0
C3168 C 0.08943 0.7364 0.10442 0.0
C3169 C 0.10163 0.75066 0.08962 0.0
C3170 C 0.08517 0.71037 0.09889 0.0
C3171 C 0.09296 0.6975 0.07834 0.0
C3172 C 0.10495 0.71185 0.06347 0.0
C3173 C 0.10919 0.73779 0.06899 0.0
C3174 C 0.08326 0.63015 0.08686 0.0
C3175 C 0.07981 0.61642 0.06289 0.0
C3176 C 0.08779 0.65603 0.0917 0.0
C3177 C 0.08891 0.66947 0.07275 0.0
C3178 C 0.08601 0.65569 0.0486 0.0
C3179 C 0.08141 0.62959 0.04374 0.0
H3180 H 0.07194 0.25291 0.86629 0.0
H3181 H 0.11029 0.30698 0.92566 0.0
H3182 H 0.1038 0.25554 0.84321 0.0
H3183 H 0.14202 0.31078 0.90208 0.0
H3184 H 0.20081 0.30494 0.85861 0.0
H3185 H 0.17095 0.29573 0.88422 0.0
H3186 H 0.12345 0.28054 0.82083 0.0
H3187 H 0.15304 0.28801 0.7955 0.0
C3188 C 0.08723 0.26538 0.87444 0.0
C3189 C 0.08848 0.27974 0.89783 0.0
C3190 C 0.10557 0.26713 0.86107 0.0
C3191 C 0.12569 0.28371 0.87041 0.0
C3192 C 0.12706 0.29759 0.89418 0.0
C3193 C 0.10876 0.29551 0.90774 0.0
C3194 C 0.184 0.2991 0.85015 0.0
C3195 C 0.17942 0.29756 0.82495 0.0
C3196 C 0.16677 0.29414 0.8649 0.0
C3197 C 0.1445 0.28747 0.85484 0.0
C3198 C 0.14018 0.2852 0.8295 0.0
C3199 C 0.15729 0.28991 0.81486 0.0
H3200 H 0.58029 0.77092 0.93214 0.0
H3201 H 0.65078 0.77952 0.93354 0.0
H3202 H 0.57821 0.73639 0.95251 0.0
H3203 H 0.64892 0.74394 0.95344 0.0
H3204 H 0.63778 0.71392 0.02499 0.0
H3205 H 0.64276 0.73897 0.99394 0.0
H3206 H 0.58134 0.69667 0.95407 0.0
H3207 H 0.57483 0.67413 0.98632 0.0
C3208 C 0.59523 0.76457 0.93599 0.0
C3209 C 0.61565 0.77753 0.93144 0.0
C3210 C 0.59411 0.74471 0.94758 0.0
C3211 C 0.61347 0.73746 0.95481 0.0
C3212 C 0.63378 0.74932 0.94838 0.0
C3213 C 0.63487 0.76937 0.93674 0.0
C3214 C 0.62522 0.71012 0.00975 0.0
C3215 C 0.60583 0.69203 0.0085 0.0
C3216 C 0.62834 0.72411 0.9916 0.0
C3217 C 0.61239 0.71987 0.97154 0.0
C3218 C 0.59378 0.7007 0.96948 0.0
C3219 C 0.59028 0.68739 0.98794 0.0
H3220 H 0.07378 0.79048 0.72099 0.0
H3221 H 0.10166 0.76683 0.6545 0.0
H3222 H 0.10454 0.78118 0.74458 0.0
H3223 H 0.13188 0.75733 0.67803 0.0
H3224 H 0.16312 0.71278 0.72633 0.0
H3225 H 0.13187 0.72401 0.70577 0.0
H3226 H 0.14898 0.79663 0.75088 0.0
H3227 H 0.18041 0.78547 0.7714 0.0
C3228 C 0.08651 0.78353 0.71144 0.0
C3229 C 0.08528 0.77942 0.68588 0.0
C3230 C 0.10404 0.77824 0.72493 0.0
C3231 C 0.12033 0.76833 0.71301 0.0
C3232 C 0.11935 0.76471 0.68757 0.0
C3233 C 0.10212 0.77037 0.67415 0.0
C3234 C 0.15998 0.73098 0.7321 0.0
C3235 C 0.17408 0.74823 0.75046 0.0
C3236 C 0.14226 0.73745 0.72025 0.0
C3237 C 0.13816 0.76117 0.72679 0.0
C3238 C 0.15179 0.7782 0.74567 0.0
C3239 C 0.16975 0.77185 0.75728 0.0
H3240 H 0.14038 0.40077 0.45386 0.0
H3241 H 0.113 0.40882 0.38378 0.0
H3242 H 0.12771 0.43661 0.47341 0.0
H3243 H 0.0995 0.44443 0.4035 0.0
H3244 H 0.07517 0.47383 0.5027 0.0
H3245 H 0.09074 0.44151 0.48037 0.0
H3246 H 0.10963 0.48683 0.42734 0.0
H3247 H 0.09357 0.51914 0.44977 0.0
C3248 C 0.13194 0.41056 0.44265 0.0
C3249 C 0.12757 0.40226 0.41745 0.0
C3250 C 0.12452 0.43085 0.45382 0.0
C3251 C 0.11226 0.44288 0.43997 0.0
C3252 C 0.109 0.43547 0.41452 0.0
C3253 C 0.11674 0.41523 0.40326 0.0
C3254 C 0.08282 0.47686 0.48639 0.0
C3255 C 0.0837 0.49888 0.47807 0.0
C3256 C 0.09171 0.45847 0.47362 0.0
C3257 C 0.1018 0.46198 0.45245 0.0
C3258 C 0.10195 0.48375 0.44363 0.0
C3259 C 0.09282 0.50212 0.45637 0.0
H3260 H 0.46145 0.24808 0.20948 0.0
H3261 H 0.46299 0.3204 0.19416 0.0
H3262 H 0.42612 0.24791 0.22588 0.0
H3263 H 0.42891 0.32172 0.21271 0.0
H3264 H 0.36823 0.25699 0.26657 0.0
H3265 H 0.40561 0.26046 0.25518 0.0
H3266 H 0.39208 0.30761 0.20552 0.0
H3267 H 0.35558 0.30582 0.21912 0.0
C3268 C 0.45438 0.26419 0.21032 0.0
C3269 C 0.46462 0.28419 0.20063 0.0
C3270 C 0.43421 0.26429 0.21987 0.0
C3271 C 0.42433 0.28479 0.22058 0.0
C3272 C 0.43544 0.30527 0.21184 0.0
C3273 C 0.45513 0.30473 0.20151 0.0
C3274 C 0.37377 0.26887 0.25399 0.0
C3275 C 0.35975 0.28229 0.24474 0.0
C3276 C 0.39498 0.27038 0.24689 0.0
C3277 C 0.4022 0.28442 0.2294 0.0
C3278 C 0.38764 0.29728 0.21964 0.0
C3279 C 0.36662 0.29619 0.22724 0.0
H3280 H 0.62976 0.52272 0.32466 0.0
H3281 H 0.69107 0.52819 0.3671 0.0
H3282 H 0.61117 0.52706 0.36186 0.0
H3283 H 0.6726 0.53241 0.40449 0.0
H3284 H 0.6377 0.55378 0.47445 0.0
H3285 H 0.6565 0.54991 0.43734 0.0
H3286 H 0.5942 0.51673 0.39497 0.0
H3287 H 0.57561 0.52097 0.43203 0.0
C3288 C 0.63954 0.52486 0.34188 0.0
C3289 C 0.66243 0.52504 0.34184 0.0
C3290 C 0.6286 0.52726 0.3638 0.0
C3291 C 0.6397 0.5302 0.38756 0.0
C3292 C 0.66271 0.53052 0.38743 0.0
C3293 C 0.6736 0.52794 0.36546 0.0
C3294 C 0.62779 0.54558 0.45732 0.0
C3295 C 0.60459 0.5376 0.45738 0.0
C3296 C 0.63884 0.54316 0.43545 0.0
C3297 C 0.62757 0.5328 0.41177 0.0
C3298 C 0.60429 0.52502 0.41193 0.0
C3299 C 0.5933 0.52727 0.43381 0.0
H3300 H 0.36386 0.94706 0.0961 0.0
H3301 H 0.29654 0.90964 0.07184 0.0
H3302 H 0.36366 0.92479 0.12961 0.0
H3303 H 0.29611 0.88761 0.10554 0.0
H3304 H 0.35789 0.87112 0.18171 0.0
H3305 H 0.34701 0.9055 0.16616 0.0
H3306 H 0.32203 0.85664 0.0974 0.0
H3307 H 0.33317 0.82275 0.11276 0.0
C3308 C 0.34858 0.93535 0.09903 0.0
C3309 C 0.33029 0.92966 0.08159 0.0
C3310 C 0.34843 0.92262 0.11816 0.0
C3311 C 0.33 0.90418 0.11964 0.0
C3312 C 0.31052 0.90165 0.10451 0.0
C3313 C 0.31073 0.91424 0.08535 0.0
C3314 C 0.34986 0.8679 0.16337 0.0
C3315 C 0.34654 0.84465 0.14814 0.0
C3316 C 0.34353 0.88737 0.15465 0.0
C3317 C 0.33335 0.88349 0.13087 0.0
C3318 C 0.32937 0.85993 0.11605 0.0
C3319 C 0.33604 0.84068 0.12459 0.0
H3320 H 0.94231 0.56004 0.89364 0.0
H3321 H 0.99812 0.57873 0.85336 0.0
H3322 H 0.96744 0.56139 0.92938 0.0
H3323 H 0.02318 0.58128 0.8891 0.0
H3324 H 0.05799 0.5481 0.94527 0.0
H3325 H 0.03446 0.55255 0.91061 0.0
H3326 H 0.99432 0.58752 0.95996 0.0
H3327 H 0.01754 0.58221 0.99437 0.0
C3328 C 0.95994 0.56502 0.89271 0.0
C3329 C 0.96843 0.56911 0.87097 0.0
C3330 C 0.97431 0.56587 0.91307 0.0
C3331 C 0.99727 0.57128 0.91189 0.0
C3332 C 1.0056 0.57654 0.89036 0.0
C3333 C 0.99128 0.57526 0.87001 0.0
C3334 C 0.04447 0.55726 0.94851 0.0
C3335 C 0.03943 0.56496 0.97213 0.0
C3336 C 0.03096 0.55977 0.9288 0.0
C3337 C 1.0125 0.57031 0.93265 0.0
C3338 C 1.00818 0.57894 0.95647 0.0
C3339 C 0.02149 0.5761 0.97608 0.0
H3340 H 0.3198 0.20666 0.59068 0.0
H3341 H 0.29148 0.26932 0.58409 0.0
H3342 H 0.32268 0.21869 0.63496 0.0
H3343 H 0.29359 0.28071 0.628 0.0
H3344 H 0.31978 0.30739 0.70936 0.0
H3345 H 0.31681 0.29707 0.66473 0.0
H3346 H 0.30066 0.21966 0.66764 0.0
H3347 H 0.30431 0.23009 0.71183 0.0
C3348 C 0.31419 0.22296 0.59859 0.0
C3349 C 0.30539 0.23691 0.58363 0.0
C3350 C 0.31565 0.2298 0.62406 0.0
C3351 C 0.30821 0.25067 0.63526 0.0
C3352 C 0.29975 0.26476 0.62023 0.0
C3353 C 0.29843 0.25804 0.59487 0.0
C3354 C 0.31516 0.28825 0.70031 0.0
C3355 C 0.31206 0.26954 0.71398 0.0
C3356 C 0.31354 0.28225 0.67474 0.0
C3357 C 0.30885 0.25742 0.6624 0.0
C3358 C 0.30491 0.23891 0.67631 0.0
C3359 C 0.30668 0.24489 0.70168 0.0
H3360 H 0.61854 0.5142 0.21155 0.0
H3361 H 0.68362 0.52886 0.18873 0.0
H3362 H 0.60274 0.51856 0.17247 0.0
H3363 H 0.66782 0.53346 0.14894 0.0
H3364 H 0.63596 0.5389 0.07315 0.0
H3365 H 0.65205 0.53322 0.11177 0.0
H3366 H 0.589 0.53039 0.14007 0.0
H3367 H 0.57288 0.53541 0.10068 0.0
C3368 C 0.62977 0.51788 0.19803 0.0
C3369 C 0.6528 0.52037 0.20438 0.0
C3370 C 0.62042 0.52083 0.17497 0.0
C3371 C 0.63326 0.52684 0.15593 0.0
C3372 C 0.65645 0.52882 0.16199 0.0
C3373 C 0.66587 0.5258 0.18533 0.0
C3374 C 0.62529 0.5372 0.08754 0.0
C3375 C 0.60274 0.5381 0.08274 0.0
C3376 C 0.63481 0.53386 0.1104 0.0
C3377 C 0.62258 0.53099 0.13069 0.0
C3378 C 0.59985 0.53209 0.12592 0.0
C3379 C 0.59027 0.53535 0.10281 0.0
H3380 H 0.30947 0.89003 0.96931 0.0
H3381 H 0.34274 0.95115 0.93938 0.0
H3382 H 0.31042 0.86196 0.93148 0.0
H3383 H 0.34469 0.92287 0.90168 0.0
H3384 H 0.32221 0.87043 0.8302 0.0
H3385 H 0.32114 0.89802 0.86787 0.0
H3386 H 0.33537 0.84335 0.90807 0.0
H3387 H 0.33568 0.81506 0.86963 0.0
C3388 C 0.31703 0.89739 0.95454 0.0
C3389 C 0.32596 0.92264 0.957 0.0
C3390 C 0.3178 0.8813 0.93303 0.0
C3391 C 0.3278 0.89016 0.91374 0.0
C3392 C 0.33662 0.91555 0.91618 0.0
C3393 C 0.33552 0.93175 0.93765 0.0
C3394 C 0.32555 0.86441 0.84703 0.0
C3395 C 0.32967 0.84091 0.84714 0.0
C3396 C 0.32489 0.88026 0.86866 0.0
C3397 C 0.32855 0.87305 0.89091 0.0
C3398 C 0.33242 0.84936 0.8911 0.0
C3399 C 0.33277 0.83326 0.86926 0.0
H3400 H 0.94702 0.56044 0.73812 0.0
H3401 H 0.96079 0.48979 0.74442 0.0
H3402 H 0.95674 0.55461 0.69614 0.0
H3403 H 0.97033 0.48388 0.70283 0.0
H3404 H 0.98772 0.47602 0.62868 0.0
H3405 H 0.96074 0.48049 0.65808 0.0
H3406 H 0.99597 0.55519 0.68671 0.0
H3407 H 0.02295 0.55069 0.65802 0.0
C3408 C 0.9514 0.54336 0.73021 0.0
C3409 C 0.95366 0.52573 0.74438 0.0
C3410 C 0.95691 0.54003 0.7063 0.0
C3411 C 0.96435 0.51886 0.69637 0.0
C3412 C 0.96442 0.50024 0.70991 0.0
C3413 C 0.95926 0.50373 0.7338 0.0
C3414 C 0.98946 0.49348 0.64104 0.0
C3415 C 1.00761 0.51285 0.64132 0.0
C3416 C 0.97392 0.49611 0.6576 0.0
C3417 C 0.97632 0.51816 0.67458 0.0
C3418 C 0.99347 0.53814 0.67352 0.0
C3419 C 1.00903 0.53548 0.65714 0.0
H3420 H 0.3057 0.25465 0.47 0.0
H3421 H 0.30469 0.18271 0.42783 0.0
H3422 H 0.30687 0.27169 0.43297 0.0
H3423 H 0.30635 0.19979 0.3908 0.0
H3424 H 0.28747 0.23259 0.32611 0.0
H3425 H 0.28539 0.2162 0.3633 0.0
H3426 H 0.33028 0.28212 0.40239 0.0
H3427 H 0.33198 0.29886 0.36516 0.0
C3428 C 0.30567 0.24243 0.4528 0.0
C3429 C 0.30497 0.21726 0.45191 0.0
C3430 C 0.30655 0.25227 0.43153 0.0
C3431 C 0.30673 0.2372 0.40874 0.0
C3432 C 0.30591 0.21196 0.40789 0.0
C3433 C 0.30505 0.20213 0.42918 0.0
C3434 C 0.29686 0.24372 0.34261 0.0
C3435 C 0.3099 0.26713 0.34249 0.0
C3436 C 0.2958 0.23417 0.364 0.0
C3437 C 0.30773 0.24769 0.38598 0.0
C3438 C 0.32065 0.27121 0.38593 0.0
C3439 C 0.32174 0.28079 0.36448 0.0
H3440 H 0.32197 0.56471 0.53331 0.0
H3441 H 0.37099 0.62891 0.52719 0.0
H3442 H 0.35033 0.54019 0.53046 0.0
H3443 H 0.39899 0.60459 0.5245 0.0
H3444 H 0.43509 0.54694 0.49013 0.0
H3445 H 0.40581 0.56969 0.49329 0.0
H3446 H 0.38581 0.53899 0.5557 0.0
H3447 H 0.41556 0.51658 0.55302 0.0
C3448 C 0.33876 0.57356 0.53155 0.0
C3449 C 0.34432 0.59861 0.53047 0.0
C3450 C 0.35491 0.55961 0.52997 0.0
C3451 C 0.37667 0.57059 0.52713 0.0
C3452 C 0.38222 0.59569 0.52636 0.0
C3453 C 0.3662 0.60959 0.52807 0.0
C3454 C 0.4246 0.54518 0.50467 0.0
C3455 C 0.42771 0.53013 0.52147 0.0
C3456 C 0.40781 0.55811 0.50638 0.0
C3457 C 0.39371 0.55602 0.52476 0.0
C3458 C 0.39642 0.54061 0.54123 0.0
C3459 C 0.41337 0.52781 0.53966 0.0
H3460 H 0.91879 0.89572 0.52438 0.0
H3461 H 0.88805 0.95711 0.54626 0.0
H3462 H 0.95362 0.92398 0.52422 0.0
H3463 H 0.9232 0.98565 0.54562 0.0
H3464 H 0.99727 0.02722 0.56291 0.0
H3465 H 0.96138 1.00093 0.56528 0.0
H3466 H 0.96951 0.95207 0.49966 0.0
H3467 H 1.00513 0.97794 0.49743 0.0
C3468 C 0.91941 0.91527 0.52919 0.0
C3469 C 0.90045 0.92402 0.53521 0.0
C3470 C 0.93945 0.93156 0.52892 0.0
C3471 C 0.94124 0.95717 0.53457 0.0
C3472 C 0.92246 0.96604 0.54125 0.0
C3473 C 0.90228 0.94966 0.54154 0.0
C3474 C 0.9913 1.011 0.54888 0.0
C3475 C 1.00418 1.00482 0.52995 0.0
C3476 C 0.97068 0.99592 0.55023 0.0
C3477 C 0.96257 0.9742 0.53279 0.0
C3478 C 0.97535 0.96835 0.51371 0.0
C3479 C 0.99582 0.98336 0.51234 0.0
H3480 H 0.88373 0.12142 0.28838 0.0
H3481 H 0.94318 0.16713 0.27321 0.0
H3482 H 0.86445 0.1555 0.28806 0.0
H3483 H 0.92357 0.20074 0.27151 0.0
H3484 H 0.87366 0.24652 0.24242 0.0
H3485 H 0.89196 0.21262 0.24525 0.0
H3486 H 0.8626 0.20283 0.31099 0.0
H3487 H 0.84582 0.23882 0.30936 0.0
C3488 C 0.89294 0.13861 0.28483 0.0
C3489 C 0.91563 0.14049 0.28087 0.0
C3490 C 0.88163 0.15863 0.28473 0.0
C3491 C 0.89182 0.18193 0.27972 0.0
C3492 C 0.91444 0.18369 0.27544 0.0
C3493 C 0.92598 0.16399 0.27646 0.0
C3494 C 0.87046 0.23713 0.25746 0.0
C3495 C 0.85638 0.24561 0.27466 0.0
C3496 C 0.88146 0.2173 0.2592 0.0
C3497 C 0.87918 0.20366 0.2782 0.0
C3498 C 0.86502 0.21185 0.29558 0.0
C3499 C 0.85468 0.2326 0.29434 0.0
H3500 H 0.74377 0.1127 0.02333 0.0
H3501 H 0.72194 0.16177 0.98063 0.0
H3502 H 0.70533 0.09352 0.026 0.0
H3503 H 0.68388 0.14252 0.98318 0.0
H3504 H 0.632 0.05125 0.99905 0.0
H3505 H 0.67147 0.06825 0.99919 0.0
H3506 H 0.65939 0.14178 0.01587 0.0
H3507 H 0.62008 0.12456 0.01569 0.0
C3508 C 0.73084 0.11918 0.01425 0.0
C3509 C 0.73591 0.13891 1.00193 0.0
C3510 C 0.70887 0.1082 0.01581 0.0
C3511 C 0.6917 0.11681 1.00509 0.0
C3512 C 0.69681 0.13588 0.99206 0.0
C3513 C 0.71864 0.14681 0.99049 0.0
C3514 C 0.63804 0.07098 1.00341 0.0
C3515 C 0.62346 0.08672 1.00832 0.0
C3516 C 0.6605 0.0807 1.00342 0.0
C3517 C 0.66843 0.10631 1.0075 0.0
C3518 C 0.65369 0.12197 0.01253 0.0
C3519 C 0.63133 0.11222 0.01274 0.0
H3520 H 0.20042 0.46013 0.26693 0.0
H3521 H 0.26014 0.51221 0.26114 0.0
H3522 H 0.22236 0.43244 0.2795 0.0
H3523 H 0.28204 0.48441 0.27369 0.0
H3524 H 0.30353 0.45104 0.34033 0.0
H3525 H 0.28509 0.47441 0.31606 0.0
H3526 H 0.25108 0.40671 0.2685 0.0
H3527 H 0.26981 0.38329 0.29286 0.0
C3528 C 0.21821 0.46531 0.26761 0.0
C3529 C 0.22861 0.4884 0.26332 0.0
C3530 C 0.23075 0.44942 0.27472 0.0
C3531 C 0.25384 0.45647 0.27777 0.0
C3532 C 0.26422 0.47871 0.27165 0.0
C3533 C 0.25169 0.49452 0.26434 0.0
C3534 C 0.29225 0.44125 0.32456 0.0
C3535 C 0.28784 0.4155 0.31848 0.0
C3536 C 0.28191 0.45456 0.31053 0.0
C3537 C 0.26678 0.4423 0.29037 0.0
C3538 C 0.26271 0.41652 0.28396 0.0
C3539 C 0.27337 0.40319 0.29781 0.0
H3540 H 0.29613 0.46695 0.06465 0.0
H3541 H 0.25544 0.3998 0.02228 0.0
H3542 H 0.26592 0.4881 0.05986 0.0
H3543 H 0.2254 0.42089 0.01756 0.0
H3544 H 0.19459 0.47777 0.98397 0.0
H3545 H 0.22062 0.45317 0.99423 0.0
H3546 H 0.22708 0.48993 0.0695 0.0
H3547 H 0.20076 0.51453 0.05905 0.0
C3548 C 0.28063 0.45659 0.05474 0.0
C3549 C 0.27822 0.4317 0.04385 0.0
C3550 C 0.2633 0.46868 0.05205 0.0
C3551 C 0.24331 0.45619 0.03822 0.0
C3552 C 0.24066 0.43107 0.02813 0.0
C3553 C 0.25786 0.41896 0.031 0.0
C3554 C 0.20139 0.48032 1.00274 0.0
C3555 C 0.19584 0.49805 0.02071 0.0
C3556 C 0.21619 0.46619 0.00867 0.0
C3557 C 0.226 0.46969 0.03268 0.0
C3558 C 0.21993 0.48698 0.05082 0.0
C3559 C 0.2048 0.5009 0.04491 0.0
H3560 H 0.88988 1.011 0.28019 0.0
H3561 H 0.94629 0.97769 0.27491 0.0
H3562 H 0.86609 0.97002 0.27877 0.0
H3563 H 0.92312 0.9377 0.27276 0.0
H3564 H 0.88386 0.86815 0.2901 0.0
H3565 H 0.90458 0.90953 0.29185 0.0
H3566 H 0.84698 0.92893 0.26053 0.0
H3567 H 0.82582 0.88699 0.25954 0.0
C3568 C 0.89735 0.99515 0.27857 0.0
C3569 C 0.92049 0.99849 0.27793 0.0
C3570 C 0.88356 0.97129 0.27769 0.0
C3571 C 0.89223 0.94962 0.27611 0.0
C3572 C 0.91524 0.95322 0.27483 0.0
C3573 C 0.92883 0.97673 0.27583 0.0
C3574 C 0.87533 0.88099 0.28349 0.0
C3575 C 0.85275 0.87335 0.2746 0.0
C3576 C 0.88753 0.90522 0.28427 0.0
C3577 C 0.87809 0.92353 0.27596 0.0
C3578 C 0.85534 0.91604 0.26728 0.0
C3579 C 0.84302 0.89159 0.2666 0.0
H3580 H 0.74442 0.1064 0.77132 0.0
H3581 H 0.69149 0.14577 0.77417 0.0
H3582 H 0.77106 0.145 0.77373 0.0
H3583 H 0.71815 0.18418 0.77669 0.0
H3584 H 0.7689 0.24633 0.76065 0.0
H3585 H 0.74435 0.2057 0.75246 0.0
H3586 H 0.78507 0.18264 0.80541 0.0
H3587 H 0.80959 0.22344 0.81359 0.0
C3588 C 0.73843 0.12323 0.77235 0.0
C3589 C 0.71581 0.12303 0.77264 0.0
C3590 C 0.75372 0.1453 0.77383 0.0
C3591 C 0.74665 0.16753 0.77545 0.0
C3592 C 0.72404 0.16727 0.77526 0.0
C3593 C 0.70878 0.14528 0.77396 0.0
C3594 C 0.7728 0.23236 0.77013 0.0
C3595 C 0.79131 0.2376 0.78734 0.0
C3596 C 0.75867 0.20925 0.76563 0.0
C3597 C 0.76277 0.19111 0.7784 0.0
C3598 C 0.78163 0.19624 0.79518 0.0
C3599 C 0.79561 0.21948 0.7999 0.0
loop_
_geom_bond_atom_site_label_1
_geom_bond_atom_site_label_2
_geom_bond_distance
_geom_bond_site_symmetry_2
_ccdc_geom_bond_type
Co0 O1 2.216 . S
Co0 O2 2.091 . S
Co0 O4 2.004 . S
Co0 O10 2.021 . S
Co0 O12 2.137 . S
Co0 O13 2.244 . S
O1 Co0 2.216 . S
O1 C8 1.247 . S
O2 Co0 2.091 . S
O2 C8 1.261 . S
C3 O12 1.247 . S
C3 O13 1.272 . S
O4 Co0 2.004 . S
O4 C9 1.259 . S
Co5 O6 2.061 . S
Co5 O11 2.052 . S
Co5 O13 2.135 . S
O6 Co5 2.061 . S
O6 C9 1.235 . S
C7 O10 1.238 . S
C7 O11 1.241 . S
C8 O1 1.247 . S
C8 O2 1.261 . S
C9 O4 1.259 . S
C9 O6 1.235 . S
O10 Co0 2.021 . S
O10 C7 1.238 . S
O11 Co5 2.052 . S
O11 C7 1.241 . S
O12 Co0 2.137 . S
O12 C3 1.247 . S
O13 Co0 2.244 . S
O13 C3 1.272 . S
O13 Co5 2.135 . S
Co14 O15 2.216 . S
Co14 O16 2.091 . S
Co14 O18 2.004 1_655 S
Co14 O24 2.021 . S
Co14 O26 2.137 . S
Co14 O27 2.244 1_655 S
O15 Co14 2.216 . S
O15 C22 1.247 . S
O16 Co14 2.091 . S
O16 C22 1.261 . S
C17 O26 1.247 1_455 S
C17 O27 1.272 . S
O18 Co14 2.004 1_455 S
O18 C23 1.259 . S
Co19 O20 2.061 . S
Co19 O25 2.052 . S
Co19 O27 2.135 . S
O20 Co19 2.061 . S
O20 C23 1.235 . S
C21 O24 1.238 . S
C21 O25 1.241 1_655 S
C22 O15 1.247 . S
C22 O16 1.261 . S
C23 O18 1.259 . S
C23 O20 1.235 . S
O24 Co14 2.021 . S
O24 C21 1.238 . S
O25 Co19 2.052 . S
O25 C21 1.241 1_455 S
O26 Co14 2.137 . S
O26 C17 1.247 1_655 S
O27 Co14 2.244 1_455 S
O27 C17 1.272 . S
O27 Co19 2.135 . S
Co28 O29 2.216 . S
Co28 O30 2.091 . S
Co28 O32 2.004 . S
Co28 O38 2.021 . S
Co28 O40 2.137 . S
Co28 O41 2.244 . S
O29 Co28 2.216 . S
O29 C36 1.247 . S
O30 Co28 2.091 . S
O30 C36 1.261 . S
C31 O40 1.247 . S
C31 O41 1.272 . S
O32 Co28 2.004 . S
O32 C37 1.259 . S
Co33 O34 2.061 . S
Co33 O39 2.052 . S
Co33 O41 2.135 . S
O34 Co33 2.061 . S
O34 C37 1.235 . S
C35 O38 1.238 . S
C35 O39 1.241 . S
C36 O29 1.247 . S
C36 O30 1.261 . S
C37 O32 1.259 . S
C37 O34 1.235 . S
O38 Co28 2.021 . S
O38 C35 1.238 . S
O39 Co33 2.052 . S
O39 C35 1.241 . S
O40 Co28 2.137 . S
O40 C31 1.247 . S
O41 Co28 2.244 . S
O41 C31 1.272 . S
O41 Co33 2.135 . S
Co42 O43 2.216 . S
Co42 O44 2.091 . S
Co42 O46 2.004 . S
Co42 O52 2.021 . S
Co42 O54 2.137 . S
Co42 O55 2.244 . S
O43 Co42 2.216 . S
O43 C50 1.247 . S
O44 Co42 2.091 . S
O44 C50 1.261 . S
C45 O54 1.247 . S
C45 O55 1.272 . S
O46 Co42 2.004 . S
O46 C51 1.259 . S
Co47 O48 2.061 . S
Co47 O53 2.052 . S
Co47 O55 2.135 . S
O48 Co47 2.061 . S
O48 C51 1.235 . S
C49 O52 1.238 . S
C49 O53 1.241 . S
C50 O43 1.247 . S
C50 O44 1.261 . S
C51 O46 1.259 . S
C51 O48 1.235 . S
O52 Co42 2.021 . S
O52 C49 1.238 . S
O53 Co47 2.052 . S
O53 C49 1.241 . S
O54 Co42 2.137 . S
O54 C45 1.247 . S
O55 Co42 2.244 . S
O55 C45 1.272 . S
O55 Co47 2.135 . S
Co56 O57 2.216 . S
Co56 O58 2.091 . S
Co56 O60 2.004 . S
Co56 O66 2.021 . S
Co56 O68 2.137 . S
Co56 O69 2.244 . S
O57 Co56 2.216 . S
O57 C64 1.247 . S
O58 Co56 2.091 . S
O58 C64 1.261 . S
C59 O68 1.247 . S
C59 O69 1.272 . S
O60 Co56 2.004 . S
O60 C65 1.259 . S
Co61 O62 2.061 . S
Co61 O67 2.052 . S
Co61 O69 2.135 . S
O62 Co61 2.061 . S
O62 C65 1.235 . S
C63 O66 1.238 . S
C63 O67 1.241 . S
C64 O57 1.247 . S
C64 O58 1.261 . S
C65 O60 1.259 . S
C65 O62 1.235 . S
O66 Co56 2.021 . S
O66 C63 1.238 . S
O67 Co61 2.052 . S
O67 C63 1.241 . S
O68 Co56 2.137 . S
O68 C59 1.247 . S
O69 Co56 2.244 . S
O69 C59 1.272 . S
O69 Co61 2.135 . S
Co70 O71 2.216 . S
Co70 O72 2.091 . S
Co70 O74 2.004 . S
Co70 O80 2.021 . S
Co70 O82 2.137 . S
Co70 O83 2.244 . S
O71 Co70 2.216 . S
O71 C78 1.247 . S
O72 Co70 2.091 . S
O72 C78 1.261 . S
C73 O82 1.247 . S
C73 O83 1.272 . S
O74 Co70 2.004 . S
O74 C79 1.259 . S
Co75 O76 2.061 . S
Co75 O81 2.052 . S
Co75 O83 2.135 . S
O76 Co75 2.061 . S
O76 C79 1.235 . S
C77 O80 1.238 . S
C77 O81 1.241 . S
C78 O71 1.247 . S
C78 O72 1.261 . S
C79 O74 1.259 . S
C79 O76 1.235 . S
O80 Co70 2.021 . S
O80 C77 1.238 . S
O81 Co75 2.052 . S
O81 C77 1.241 . S
O82 Co70 2.137 . S
O82 C73 1.247 . S
O83 Co70 2.244 . S
O83 C73 1.272 . S
O83 Co75 2.135 . S
Co84 O85 2.216 . S
Co84 O86 2.091 . S
Co84 O88 2.004 . S
Co84 O94 2.021 . S
Co84 O96 2.137 . S
Co84 O97 2.244 . S
O85 Co84 2.216 . S
O85 C92 1.247 . S
O86 Co84 2.091 . S
O86 C92 1.261 . S
C87 O96 1.247 . S
C87 O97 1.272 . S
O88 Co84 2.004 . S
O88 C93 1.259 . S
Co89 O90 2.061 . S
Co89 O95 2.052 . S
Co89 O97 2.135 . S
O90 Co89 2.061 . S
O90 C93 1.235 . S
C91 O94 1.238 . S
C91 O95 1.241 . S
C92 O85 1.247 . S
C92 O86 1.261 . S
C93 O88 1.259 . S
C93 O90 1.235 . S
O94 Co84 2.021 . S
O94 C91 1.238 . S
O95 Co89 2.052 . S
O95 C91 1.241 . S
O96 Co84 2.137 . S
O96 C87 1.247 . S
O97 Co84 2.244 . S
O97 C87 1.272 . S
O97 Co89 2.135 . S
Co98 O99 2.216 . S
Co98 O100 2.091 . S
Co98 O102 2.004 1_455 S
Co98 O108 2.021 . S
Co98 O110 2.137 . S
Co98 O111 2.244 . S
O99 Co98 2.216 . S
O99 C106 1.247 . S
O100 Co98 2.091 . S
O100 C106 1.261 . S
C101 O110 1.247 . S
C101 O111 1.272 . S
O102 Co98 2.004 1_655 S
O102 C107 1.259 . S
Co103 O104 2.061 . S
Co103 O109 2.052 1_655 S
Co103 O111 2.135 1_655 S
O104 Co103 2.061 . S
O104 C107 1.235 . S
C105 O108 1.238 . S
C105 O109 1.241 . S
C106 O99 1.247 . S
C106 O100 1.261 . S
C107 O102 1.259 . S
C107 O104 1.235 . S
O108 Co98 2.021 . S
O108 C105 1.238 . S
O109 Co103 2.052 1_455 S
O109 C105 1.241 . S
O110 Co98 2.137 . S
O110 C101 1.247 . S
O111 Co98 2.244 . S
O111 C101 1.272 . S
O111 Co103 2.135 1_455 S
Co112 O113 2.216 . S
Co112 O114 2.091 . S
Co112 O116 2.004 1_545 S
Co112 O122 2.021 . S
Co112 O124 2.137 . S
Co112 O125 2.244 . S
O113 Co112 2.216 . S
O113 C120 1.247 . S
O114 Co112 2.091 . S
O114 C120 1.261 . S
C115 O124 1.247 . S
C115 O125 1.272 . S
O116 Co112 2.004 1_565 S
O116 C121 1.259 . S
Co117 O118 2.061 . S
Co117 O123 2.052 1_565 S
Co117 O125 2.135 1_565 S
O118 Co117 2.061 . S
O118 C121 1.235 . S
C119 O122 1.238 . S
C119 O123 1.241 . S
C120 O113 1.247 . S
C120 O114 1.261 . S
C121 O116 1.259 . S
C121 O118 1.235 . S
O122 Co112 2.021 . S
O122 C119 1.238 . S
O123 Co117 2.052 1_545 S
O123 C119 1.241 . S
O124 Co112 2.137 . S
O124 C115 1.247 . S
O125 Co112 2.244 . S
O125 C115 1.272 . S
O125 Co117 2.135 1_545 S
Co126 O127 2.216 . S
Co126 O128 2.091 . S
Co126 O130 2.004 . S
Co126 O136 2.021 . S
Co126 O138 2.137 . S
Co126 O139 2.244 . S
O127 Co126 2.216 . S
O127 C134 1.247 . S
O128 Co126 2.091 . S
O128 C134 1.261 . S
C129 O138 1.247 . S
C129 O139 1.272 . S
O130 Co126 2.004 . S
O130 C135 1.259 . S
Co131 O132 2.061 . S
Co131 O137 2.052 . S
Co131 O139 2.135 . S
O132 Co131 2.061 . S
O132 C135 1.235 . S
C133 O136 1.238 . S
C133 O137 1.241 . S
C134 O127 1.247 . S
C134 O128 1.261 . S
C135 O130 1.259 . S
C135 O132 1.235 . S
O136 Co126 2.021 . S
O136 C133 1.238 . S
O137 Co131 2.052 . S
O137 C133 1.241 . S
O138 Co126 2.137 . S
O138 C129 1.247 . S
O139 Co126 2.244 . S
O139 C129 1.272 . S
O139 Co131 2.135 . S
Co140 O141 2.216 . S
Co140 O142 2.091 . S
Co140 O144 2.004 1_565 S
Co140 O150 2.021 . S
Co140 O152 2.137 . S
Co140 O153 2.244 1_565 S
O141 Co140 2.216 . S
O141 C148 1.247 . S
O142 Co140 2.091 . S
O142 C148 1.261 . S
C143 O152 1.247 1_545 S
C143 O153 1.272 . S
O144 Co140 2.004 1_545 S
O144 C149 1.259 . S
Co145 O146 2.061 . S
Co145 O151 2.052 . S
Co145 O153 2.135 . S
O146 Co145 2.061 . S
O146 C149 1.235 . S
C147 O150 1.238 . S
C147 O151 1.241 1_565 S
C148 O141 1.247 . S
C148 O142 1.261 . S
C149 O144 1.259 . S
C149 O146 1.235 . S
O150 Co140 2.021 . S
O150 C147 1.238 . S
O151 Co145 2.052 . S
O151 C147 1.241 1_545 S
O152 Co140 2.137 . S
O152 C143 1.247 1_565 S
O153 Co140 2.244 1_545 S
O153 C143 1.272 . S
O153 Co145 2.135 . S
Co154 O155 2.216 . S
Co154 O156 2.091 . S
Co154 O158 2.004 . S
Co154 O164 2.021 . S
Co154 O166 2.137 1_554 S
Co154 O167 2.244 1_554 S
O155 Co154 2.216 . S
O155 C162 1.247 . S
O156 Co154 2.091 . S
O156 C162 1.261 . S
C157 O166 1.247 . S
C157 O167 1.272 . S
O158 Co154 2.004 . S
O158 C163 1.259 . S
Co159 O160 2.061 . S
Co159 O165 2.052 . S
Co159 O167 2.135 1_554 S
O160 Co159 2.061 . S
O160 C163 1.235 . S
C161 O164 1.238 . S
C161 O165 1.241 . S
C162 O155 1.247 . S
C162 O156 1.261 . S
C163 O158 1.259 . S
C163 O160 1.235 . S
O164 Co154 2.021 . S
O164 C161 1.238 . S
O165 Co159 2.052 . S
O165 C161 1.241 . S
O166 Co154 2.137 1_556 S
O166 C157 1.247 . S
O167 Co154 2.244 1_556 S
O167 C157 1.272 . S
O167 Co159 2.135 1_556 S
Co168 O169 2.216 . S
Co168 O170 2.091 . S
Co168 O172 2.004 . S
Co168 O178 2.021 . S
Co168 O180 2.137 1_554 S
Co168 O181 2.244 . S
O169 Co168 2.216 . S
O169 C176 1.247 . S
O170 Co168 2.091 . S
O170 C176 1.261 . S
C171 O180 1.247 . S
C171 O181 1.272 1_556 S
O172 Co168 2.004 . S
O172 C177 1.259 . S
Co173 O174 2.061 . S
Co173 O179 2.052 . S
Co173 O181 2.135 . S
O174 Co173 2.061 . S
O174 C177 1.235 . S
C175 O178 1.238 . S
C175 O179 1.241 . S
C176 O169 1.247 . S
C176 O170 1.261 . S
C177 O172 1.259 . S
C177 O174 1.235 . S
O178 Co168 2.021 . S
O178 C175 1.238 . S
O179 Co173 2.052 . S
O179 C175 1.241 . S
O180 Co168 2.137 1_556 S
O180 C171 1.247 . S
O181 Co168 2.244 . S
O181 C171 1.272 1_554 S
O181 Co173 2.135 . S
Co182 O183 2.216 . S
Co182 O184 2.091 . S
Co182 O186 2.004 . S
Co182 O192 2.021 . S
Co182 O194 2.137 1_554 S
Co182 O195 2.244 . S
O183 Co182 2.216 . S
O183 C190 1.247 . S
O184 Co182 2.091 . S
O184 C190 1.261 . S
C185 O194 1.247 . S
C185 O195 1.272 1_556 S
O186 Co182 2.004 . S
O186 C191 1.259 . S
Co187 O188 2.061 . S
Co187 O193 2.052 . S
Co187 O195 2.135 . S
O188 Co187 2.061 . S
O188 C191 1.235 . S
C189 O192 1.238 . S
C189 O193 1.241 . S
C190 O183 1.247 . S
C190 O184 1.261 . S
C191 O186 1.259 . S
C191 O188 1.235 . S
O192 Co182 2.021 . S
O192 C189 1.238 . S
O193 Co187 2.052 . S
O193 C189 1.241 . S
O194 Co182 2.137 1_556 S
O194 C185 1.247 . S
O195 Co182 2.244 . S
O195 C185 1.272 1_554 S
O195 Co187 2.135 . S
Co196 O197 2.216 . S
Co196 O198 2.091 . S
Co196 O200 2.004 . S
Co196 O206 2.021 . S
Co196 O208 2.137 . S
Co196 O209 2.244 . S
O197 Co196 2.216 . S
O197 C204 1.247 . S
O198 Co196 2.091 . S
O198 C204 1.261 . S
C199 O208 1.247 . S
C199 O209 1.272 . S
O200 Co196 2.004 . S
O200 C205 1.259 . S
Co201 O202 2.061 . S
Co201 O207 2.052 . S
Co201 O209 2.135 . S
O202 Co201 2.061 . S
O202 C205 1.235 . S
C203 O206 1.238 . S
C203 O207 1.241 . S
C204 O197 1.247 . S
C204 O198 1.261 . S
C205 O200 1.259 . S
C205 O202 1.235 . S
O206 Co196 2.021 . S
O206 C203 1.238 . S
O207 Co201 2.052 . S
O207 C203 1.241 . S
O208 Co196 2.137 . S
O208 C199 1.247 . S
O209 Co196 2.244 . S
O209 C199 1.272 . S
O209 Co201 2.135 . S
Co210 O211 2.216 . S
Co210 O212 2.091 . S
Co210 O214 2.004 . S
Co210 O220 2.021 . S
Co210 O222 2.137 . S
Co210 O223 2.244 . S
O211 Co210 2.216 . S
O211 C218 1.247 . S
O212 Co210 2.091 . S
O212 C218 1.261 . S
C213 O222 1.247 . S
C213 O223 1.272 . S
O214 Co210 2.004 . S
O214 C219 1.259 . S
Co215 O216 2.061 . S
Co215 O221 2.052 . S
Co215 O223 2.135 . S
O216 Co215 2.061 . S
O216 C219 1.235 . S
C217 O220 1.238 . S
C217 O221 1.241 . S
C218 O211 1.247 . S
C218 O212 1.261 . S
C219 O214 1.259 . S
C219 O216 1.235 . S
O220 Co210 2.021 . S
O220 C217 1.238 . S
O221 Co215 2.052 . S
O221 C217 1.241 . S
O222 Co210 2.137 . S
O222 C213 1.247 . S
O223 Co210 2.244 . S
O223 C213 1.272 . S
O223 Co215 2.135 . S
Co224 O225 2.216 . S
Co224 O226 2.091 . S
Co224 O228 2.004 . S
Co224 O234 2.021 . S
Co224 O236 2.137 . S
Co224 O237 2.244 . S
O225 Co224 2.216 . S
O225 C232 1.247 . S
O226 Co224 2.091 . S
O226 C232 1.261 . S
C227 O236 1.247 . S
C227 O237 1.272 . S
O228 Co224 2.004 . S
O228 C233 1.259 . S
Co229 O230 2.061 . S
Co229 O235 2.052 . S
Co229 O237 2.135 . S
O230 Co229 2.061 . S
O230 C233 1.235 . S
C231 O234 1.238 . S
C231 O235 1.241 . S
C232 O225 1.247 . S
C232 O226 1.261 . S
C233 O228 1.259 . S
C233 O230 1.235 . S
O234 Co224 2.021 . S
O234 C231 1.238 . S
O235 Co229 2.052 . S
O235 C231 1.241 . S
O236 Co224 2.137 . S
O236 C227 1.247 . S
O237 Co224 2.244 . S
O237 C227 1.272 . S
O237 Co229 2.135 . S
Co238 O239 2.216 . S
Co238 O240 2.091 . S
Co238 O242 2.004 . S
Co238 O248 2.021 . S
Co238 O250 2.137 . S
Co238 O251 2.244 . S
O239 Co238 2.216 . S
O239 C246 1.247 . S
O240 Co238 2.091 . S
O240 C246 1.261 . S
C241 O250 1.247 . S
C241 O251 1.272 . S
O242 Co238 2.004 . S
O242 C247 1.259 . S
Co243 O244 2.061 . S
Co243 O249 2.052 . S
Co243 O251 2.135 . S
O244 Co243 2.061 . S
O244 C247 1.235 . S
C245 O248 1.238 . S
C245 O249 1.241 . S
C246 O239 1.247 . S
C246 O240 1.261 . S
C247 O242 1.259 . S
C247 O244 1.235 . S
O248 Co238 2.021 . S
O248 C245 1.238 . S
O249 Co243 2.052 . S
O249 C245 1.241 . S
O250 Co238 2.137 . S
O250 C241 1.247 . S
O251 Co238 2.244 . S
O251 C241 1.272 . S
O251 Co243 2.135 . S
Co252 O253 2.216 . S
Co252 O254 2.091 . S
Co252 O256 2.004 . S
Co252 O262 2.021 . S
Co252 O264 2.137 . S
Co252 O265 2.244 . S
O253 Co252 2.216 . S
O253 C260 1.247 . S
O254 Co252 2.091 . S
O254 C260 1.261 . S
C255 O264 1.247 . S
C255 O265 1.272 . S
O256 Co252 2.004 . S
O256 C261 1.259 . S
Co257 O258 2.061 . S
Co257 O263 2.052 . S
Co257 O265 2.135 . S
O258 Co257 2.061 . S
O258 C261 1.235 . S
C259 O262 1.238 . S
C259 O263 1.241 . S
C260 O253 1.247 . S
C260 O254 1.261 . S
C261 O256 1.259 . S
C261 O258 1.235 . S
O262 Co252 2.021 . S
O262 C259 1.238 . S
O263 Co257 2.052 . S
O263 C259 1.241 . S
O264 Co252 2.137 . S
O264 C255 1.247 . S
O265 Co252 2.244 . S
O265 C255 1.272 . S
O265 Co257 2.135 . S
Co266 O267 2.216 . S
Co266 O268 2.091 . S
Co266 O270 2.004 . S
Co266 O276 2.021 . S
Co266 O278 2.137 . S
Co266 O279 2.244 . S
O267 Co266 2.216 . S
O267 C274 1.247 . S
O268 Co266 2.091 . S
O268 C274 1.261 . S
C269 O278 1.247 . S
C269 O279 1.272 . S
O270 Co266 2.004 . S
O270 C275 1.259 . S
Co271 O272 2.061 . S
Co271 O277 2.052 . S
Co271 O279 2.135 . S
O272 Co271 2.061 . S
O272 C275 1.235 . S
C273 O276 1.238 . S
C273 O277 1.241 . S
C274 O267 1.247 . S
C274 O268 1.261 . S
C275 O270 1.259 . S
C275 O272 1.235 . S
O276 Co266 2.021 . S
O276 C273 1.238 . S
O277 Co271 2.052 . S
O277 C273 1.241 . S
O278 Co266 2.137 . S
O278 C269 1.247 . S
O279 Co266 2.244 . S
O279 C269 1.272 . S
O279 Co271 2.135 . S
Co280 O281 2.216 . S
Co280 O282 2.091 . S
Co280 O284 2.004 . S
Co280 O290 2.021 1_556 S
Co280 O292 2.137 . S
Co280 O293 2.244 . S
O281 Co280 2.216 . S
O281 C288 1.246 . S
O282 Co280 2.091 . S
O282 C288 1.261 . S
C283 O292 1.247 . S
C283 O293 1.272 . S
O284 Co280 2.004 . S
O284 C289 1.259 . S
Co285 O286 2.061 . S
Co285 O291 2.052 . S
Co285 O293 2.135 1_554 S
O286 Co285 2.061 . S
O286 C289 1.235 1_554 S
C287 O290 1.238 . S
C287 O291 1.241 . S
C288 O281 1.246 . S
C288 O282 1.261 . S
C289 O284 1.259 . S
C289 O286 1.235 1_556 S
O290 Co280 2.021 1_554 S
O290 C287 1.238 . S
O291 Co285 2.052 . S
O291 C287 1.241 . S
O292 Co280 2.137 . S
O292 C283 1.247 . S
O293 Co280 2.244 . S
O293 C283 1.272 . S
O293 Co285 2.135 1_556 S
Co294 O295 2.216 . S
Co294 O296 2.091 . S
Co294 O298 2.004 . S
Co294 O304 2.021 . S
Co294 O306 2.137 . S
Co294 O307 2.244 . S
O295 Co294 2.216 . S
O295 C302 1.247 . S
O296 Co294 2.091 . S
O296 C302 1.261 . S
C297 O306 1.247 . S
C297 O307 1.272 . S
O298 Co294 2.004 . S
O298 C303 1.259 . S
Co299 O300 2.061 . S
Co299 O305 2.052 . S
Co299 O307 2.135 . S
O300 Co299 2.061 . S
O300 C303 1.235 . S
C301 O304 1.238 . S
C301 O305 1.241 . S
C302 O295 1.247 . S
C302 O296 1.261 . S
C303 O298 1.259 . S
C303 O300 1.235 . S
O304 Co294 2.021 . S
O304 C301 1.238 . S
O305 Co299 2.052 . S
O305 C301 1.241 . S
O306 Co294 2.137 . S
O306 C297 1.247 . S
O307 Co294 2.244 . S
O307 C297 1.272 . S
O307 Co299 2.135 . S
Co308 O309 2.216 . S
Co308 O310 2.091 . S
Co308 O312 2.004 . S
Co308 O318 2.021 . S
Co308 O320 2.137 . S
Co308 O321 2.244 . S
O309 Co308 2.216 . S
O309 C316 1.247 . S
O310 Co308 2.091 . S
O310 C316 1.261 . S
C311 O320 1.247 . S
C311 O321 1.272 . S
O312 Co308 2.004 . S
O312 C317 1.259 . S
Co313 O314 2.061 . S
Co313 O319 2.052 . S
Co313 O321 2.135 . S
O314 Co313 2.061 . S
O314 C317 1.235 . S
C315 O318 1.238 . S
C315 O319 1.241 . S
C316 O309 1.247 . S
C316 O310 1.261 . S
C317 O312 1.259 . S
C317 O314 1.235 . S
O318 Co308 2.021 . S
O318 C315 1.238 . S
O319 Co313 2.052 . S
O319 C315 1.241 . S
O320 Co308 2.137 . S
O320 C311 1.247 . S
O321 Co308 2.244 . S
O321 C311 1.272 . S
O321 Co313 2.135 . S
Co322 O323 2.216 . S
Co322 O324 2.091 . S
Co322 O326 2.004 . S
Co322 O332 2.021 . S
Co322 O334 2.137 . S
Co322 O335 2.244 . S
O323 Co322 2.216 . S
O323 C330 1.247 . S
O324 Co322 2.091 . S
O324 C330 1.261 . S
C325 O334 1.247 . S
C325 O335 1.272 . S
O326 Co322 2.004 . S
O326 C331 1.259 . S
Co327 O328 2.061 . S
Co327 O333 2.052 . S
Co327 O335 2.135 . S
O328 Co327 2.061 . S
O328 C331 1.235 . S
C329 O332 1.238 . S
C329 O333 1.241 . S
C330 O323 1.247 . S
C330 O324 1.261 . S
C331 O326 1.259 . S
C331 O328 1.235 . S
O332 Co322 2.021 . S
O332 C329 1.238 . S
O333 Co327 2.052 . S
O333 C329 1.241 . S
O334 Co322 2.137 . S
O334 C325 1.247 . S
O335 Co322 2.244 . S
O335 C325 1.272 . S
O335 Co327 2.135 . S
Gd336 N367 2.661 . S
Gd336 N373 2.601 . S
Gd336 O380 2.545 . S
Gd336 O381 2.606 . S
Gd336 O383 2.429 . S
Gd336 O384 2.545 . S
Gd336 O385 2.412 . S
Gd336 O387 2.362 . S
Gd336 O388 2.324 1_554 S
Gd336 C395 2.828 . S
Gd337 N346 2.661 1_545 S
Gd337 N350 2.601 1_544 S
Gd337 O381 2.362 . S
Gd337 O382 2.324 . S
Gd337 O386 2.545 1_454 S
Gd337 O387 2.606 . S
Gd337 O389 2.429 1_554 S
Gd337 O390 2.545 . S
Gd337 O391 2.412 1_455 S
Gd337 C404 2.828 1_454 S
C338 C341 1.409 1_655 S
C338 C343 1.416 1_554 S
C338 C344 1.412 . S
C339 C342 1.437 . S
C339 C343 1.348 . S
C339 H358 0.929 . S
C340 C341 1.428 1_556 S
C340 C342 1.413 1_455 S
C340 N350 1.360 . S
C341 C338 1.409 1_455 S
C341 C340 1.428 1_554 S
C341 N346 1.357 . S
C342 C339 1.437 . S
C342 C340 1.413 1_655 S
C342 C352 1.391 . S
C343 C338 1.416 1_556 S
C343 C339 1.348 . S
C343 H354 0.915 1_556 S
C344 C338 1.412 . S
C344 C345 1.355 1_655 S
C344 H356 0.930 . S
C345 C344 1.355 1_455 S
C345 C347 1.402 . S
C345 H357 0.930 . S
N346 Gd337 2.661 1_565 S
N346 C341 1.357 . S
N346 C347 1.307 . S
C347 C345 1.402 . S
C347 N346 1.307 . S
C347 H348 0.930 . S
H348 C347 0.930 . S
C349 N350 1.334 . S
C349 C351 1.394 1_455 S
C349 H353 0.930 . S
N350 Gd337 2.601 1_566 S
N350 C340 1.360 . S
N350 C349 1.334 . S
C351 C349 1.394 1_655 S
C351 C352 1.359 . S
C351 H363 0.930 . S
C352 C342 1.391 . S
C352 C351 1.359 . S
C352 H364 0.929 . S
H353 C349 0.930 . S
H354 C343 0.915 1_554 S
H355 C372 0.930 . S
H356 C344 0.930 . S
H357 C345 0.930 . S
H358 C339 0.929 . S
H359 C377 0.930 . S
H360 C368 0.911 1_556 S
H361 C369 0.930 . S
H362 C393 0.929 . S
H363 C351 0.930 . S
H364 C352 0.929 . S
H365 C394 0.930 . S
H366 C375 0.930 . S
N367 Gd336 2.661 . S
N367 C371 1.350 . S
N367 C372 1.307 1_554 S
C368 H360 0.911 1_554 S
C368 C369 1.340 1_554 S
C368 C370 1.446 . S
C369 H361 0.930 . S
C369 C368 1.340 1_556 S
C369 C372 1.402 . S
C370 C368 1.446 . S
C370 C371 1.417 . S
C370 C394 1.431 . S
C371 N367 1.350 . S
C371 C370 1.417 . S
C371 C374 1.426 . S
C372 H355 0.930 . S
C372 N367 1.307 1_556 S
C372 C369 1.402 . S
N373 Gd336 2.601 . S
N373 C374 1.359 . S
N373 C377 1.334 . S
C374 C371 1.426 . S
C374 N373 1.359 . S
C374 C378 1.413 . S
C375 H366 0.930 . S
C375 C376 1.359 . S
C375 C377 1.394 . S
C376 C375 1.359 . S
C376 C378 1.391 . S
C376 H379 0.929 . S
C377 H359 0.930 . S
C377 N373 1.334 . S
C377 C375 1.394 . S
C378 C374 1.413 . S
C378 C376 1.391 . S
C378 C393 1.437 . S
H379 C376 0.929 . S
O380 Gd336 2.545 . S
O380 C395 1.258 . S
O381 Gd336 2.606 . S
O381 Gd337 2.362 . S
O381 C392 1.284 1_545 S
O382 Gd337 2.324 . S
O382 C402 1.254 . S
O383 Gd336 2.429 . S
O383 C402 1.268 . S
O384 Gd336 2.545 . S
O384 C392 1.250 1_545 S
O385 Gd336 2.412 . S
O385 C395 1.252 . S
O386 Gd337 2.545 1_656 S
O386 C404 1.258 . S
O387 Gd336 2.362 . S
O387 Gd337 2.606 . S
O387 C403 1.284 . S
O388 Gd336 2.324 1_556 S
O388 C411 1.254 . S
O389 Gd337 2.429 1_556 S
O389 C411 1.268 . S
O390 Gd337 2.545 . S
O390 C403 1.250 . S
O391 Gd337 2.412 1_655 S
O391 C404 1.252 1_554 S
C392 O381 1.284 1_565 S
C392 O384 1.250 1_565 S
C393 H362 0.929 . S
C393 C378 1.437 . S
C393 C394 1.317 . S
C394 H365 0.930 . S
C394 C370 1.431 . S
C394 C393 1.317 . S
C395 Gd336 2.828 . S
C395 O380 1.258 . S
C395 O385 1.252 . S
C395 C396 1.497 . S
C396 C395 1.497 . S
C396 C397 1.395 . S
C396 C398 1.380 . S
C397 C396 1.395 . S
C397 C400 1.398 . S
C397 H412 0.930 . S
C398 C396 1.380 . S
C398 C399 1.391 . S
C398 H413 0.930 . S
C399 C398 1.391 . S
C399 C401 1.387 . S
C400 C397 1.398 . S
C400 C401 1.380 . S
C400 H414 0.930 . S
C401 C399 1.387 . S
C401 C400 1.380 . S
C401 H415 0.930 . S
C402 O382 1.254 . S
C402 O383 1.268 . S
C403 O387 1.284 . S
C403 O390 1.250 . S
C404 Gd337 2.828 1_656 S
C404 O386 1.258 . S
C404 O391 1.252 1_556 S
C404 C405 1.497 . S
C405 C404 1.497 . S
C405 C406 1.395 . S
C405 C407 1.380 1_556 S
C406 C405 1.395 . S
C406 C409 1.398 . S
C406 H416 0.930 . S
C407 C405 1.380 1_554 S
C407 C408 1.391 1_554 S
C407 H417 0.930 . S
C408 C407 1.391 1_556 S
C408 C410 1.388 . S
C409 C406 1.398 . S
C409 C410 1.380 . S
C409 H418 0.930 . S
C410 C408 1.388 . S
C410 C409 1.380 . S
C410 H419 0.930 . S
C411 O388 1.254 . S
C411 O389 1.268 . S
H412 C397 0.930 . S
H413 C398 0.930 . S
H414 C400 0.930 . S
H415 C401 0.930 . S
H416 C406 0.930 . S
H417 C407 0.930 . S
H418 C409 0.930 . S
H419 C410 0.930 . S
Gd420 N451 2.661 . S
Gd420 N457 2.601 . S
Gd420 O464 2.545 . S
Gd420 O465 2.606 . S
Gd420 O467 2.429 . S
Gd420 O468 2.545 . S
Gd420 O469 2.412 . S
Gd420 O471 2.362 . S
Gd420 O472 2.324 . S
Gd420 C479 2.828 . S
Gd421 N430 2.661 . S
Gd421 N434 2.601 . S
Gd421 O465 2.362 . S
Gd421 O466 2.324 . S
Gd421 O470 2.545 . S
Gd421 O471 2.606 . S
Gd421 O473 2.429 . S
Gd421 O474 2.545 . S
Gd421 O475 2.412 . S
Gd421 C488 2.828 . S
C422 C425 1.417 . S
C422 C427 1.431 . S
C422 C428 1.412 . S
C423 C426 1.437 . S
C423 C427 1.317 . S
C423 H442 0.929 . S
C424 C425 1.426 . S
C424 C426 1.413 . S
C424 N434 1.359 . S
C425 C422 1.417 . S
C425 C424 1.426 . S
C425 N430 1.350 . S
C426 C423 1.437 . S
C426 C424 1.413 . S
C426 C436 1.391 . S
C427 C422 1.431 . S
C427 C423 1.317 . S
C427 H438 0.930 . S
C428 C422 1.412 . S
C428 C429 1.355 . S
C428 H440 0.930 . S
C429 C428 1.355 . S
C429 C431 1.402 . S
C429 H441 0.930 . S
N430 Gd421 2.661 . S
N430 C425 1.350 . S
N430 C431 1.307 . S
C431 C429 1.402 . S
C431 N430 1.307 . S
C431 H432 0.930 . S
H432 C431 0.930 . S
C433 N434 1.334 . S
C433 C435 1.394 . S
C433 H437 0.930 . S
N434 Gd421 2.601 . S
N434 C424 1.359 . S
N434 C433 1.334 . S
C435 C433 1.394 . S
C435 C436 1.359 . S
C435 H447 0.930 . S
C436 C426 1.391 . S
C436 C435 1.359 . S
C436 H448 0.929 . S
H437 C433 0.930 . S
H438 C427 0.930 . S
H439 C456 0.930 . S
H440 C428 0.930 . S
H441 C429 0.930 . S
H442 C423 0.929 . S
H443 C461 0.930 . S
H444 C452 0.930 . S
H445 C453 0.930 . S
H446 C477 0.929 . S
H447 C435 0.930 . S
H448 C436 0.929 . S
H449 C478 0.930 . S
H450 C459 0.930 . S
N451 Gd420 2.661 . S
N451 C455 1.350 . S
N451 C456 1.307 . S
C452 H444 0.930 . S
C452 C453 1.355 . S
C452 C454 1.412 . S
C453 H445 0.930 . S
C453 C452 1.355 . S
C453 C456 1.402 . S
C454 C452 1.412 . S
C454 C455 1.417 . S
C454 C478 1.431 . S
C455 N451 1.350 . S
C455 C454 1.417 . S
C455 C458 1.426 . S
C456 H439 0.930 . S
C456 N451 1.307 . S
C456 C453 1.402 . S
N457 Gd420 2.601 . S
N457 C458 1.359 . S
N457 C461 1.334 . S
C458 C455 1.426 . S
C458 N457 1.359 . S
C458 C462 1.413 . S
C459 H450 0.930 . S
C459 C460 1.359 . S
C459 C461 1.394 . S
C460 C459 1.359 . S
C460 C462 1.391 . S
C460 H463 0.929 . S
C461 H443 0.930 . S
C461 N457 1.334 . S
C461 C459 1.394 . S
C462 C458 1.413 . S
C462 C460 1.391 . S
C462 C477 1.437 . S
H463 C460 0.929 . S
O464 Gd420 2.545 . S
O464 C479 1.258 . S
O465 Gd420 2.606 . S
O465 Gd421 2.362 . S
O465 C476 1.284 . S
O466 Gd421 2.324 . S
O466 C486 1.254 . S
O467 Gd420 2.429 . S
O467 C486 1.268 . S
O468 Gd420 2.545 . S
O468 C476 1.250 . S
O469 Gd420 2.412 . S
O469 C479 1.252 . S
O470 Gd421 2.545 . S
O470 C488 1.258 . S
O471 Gd420 2.362 . S
O471 Gd421 2.606 . S
O471 C487 1.284 . S
O472 Gd420 2.324 . S
O472 C495 1.254 . S
O473 Gd421 2.429 . S
O473 C495 1.268 . S
O474 Gd421 2.545 . S
O474 C487 1.250 . S
O475 Gd421 2.412 . S
O475 C488 1.252 . S
C476 O465 1.284 . S
C476 O468 1.250 . S
C477 H446 0.929 . S
C477 C462 1.437 . S
C477 C478 1.317 . S
C478 H449 0.930 . S
C478 C454 1.431 . S
C478 C477 1.317 . S
C479 Gd420 2.828 . S
C479 O464 1.258 . S
C479 O469 1.252 . S
C479 C480 1.497 . S
C480 C479 1.497 . S
C480 C481 1.395 . S
C480 C482 1.380 . S
C481 C480 1.395 . S
C481 C484 1.398 . S
C481 H496 0.930 . S
C482 C480 1.380 . S
C482 C483 1.391 . S
C482 H497 0.930 . S
C483 C482 1.391 . S
C483 C485 1.387 . S
C484 C481 1.398 . S
C484 C485 1.380 . S
C484 H498 0.930 . S
C485 C483 1.387 . S
C485 C484 1.380 . S
C485 H499 0.930 . S
C486 O466 1.254 . S
C486 O467 1.268 . S
C487 O471 1.284 . S
C487 O474 1.250 . S
C488 Gd421 2.828 . S
C488 O470 1.258 . S
C488 O475 1.252 . S
C488 C489 1.497 . S
C489 C488 1.497 . S
C489 C490 1.395 . S
C489 C491 1.380 . S
C490 C489 1.395 . S
C490 C493 1.398 . S
C490 H500 0.930 . S
C491 C489 1.380 . S
C491 C492 1.391 . S
C491 H501 0.930 . S
C492 C491 1.391 . S
C492 C494 1.387 . S
C493 C490 1.398 . S
C493 C494 1.380 . S
C493 H502 0.930 . S
C494 C492 1.387 . S
C494 C493 1.380 . S
C494 H503 0.930 . S
C495 O472 1.254 . S
C495 O473 1.268 . S
H496 C481 0.930 . S
H497 C482 0.930 . S
H498 C484 0.930 . S
H499 C485 0.930 . S
H500 C490 0.930 . S
H501 C491 0.930 . S
H502 C493 0.930 . S
H503 C494 0.930 . S
Gd504 N535 2.661 1_545 S
Gd504 N541 2.601 . S
Gd504 O548 2.545 . S
Gd504 O549 2.606 . S
Gd504 O551 2.429 . S
Gd504 O552 2.545 . S
Gd504 O553 2.412 . S
Gd504 O555 2.362 . S
Gd504 O556 2.324 . S
Gd504 C563 2.828 . S
Gd505 N514 2.661 . S
Gd505 N518 2.601 . S
Gd505 O549 2.362 . S
Gd505 O550 2.324 . S
Gd505 O554 2.545 . S
Gd505 O555 2.606 . S
Gd505 O557 2.429 . S
Gd505 O558 2.545 1_545 S
Gd505 O559 2.412 . S
Gd505 C572 2.828 . S
C506 C509 1.417 . S
C506 C511 1.431 . S
C506 C512 1.412 . S
C507 C510 1.437 . S
C507 C511 1.317 . S
C507 H526 0.929 . S
C508 C509 1.426 . S
C508 C510 1.413 . S
C508 N518 1.359 . S
C509 C506 1.417 . S
C509 C508 1.426 . S
C509 N514 1.350 . S
C510 C507 1.437 . S
C510 C508 1.413 . S
C510 C520 1.391 . S
C511 C506 1.431 . S
C511 C507 1.317 . S
C511 H522 0.930 . S
C512 C506 1.412 . S
C512 C513 1.355 . S
C512 H524 0.930 . S
C513 C512 1.355 . S
C513 C515 1.402 . S
C513 H525 0.930 . S
N514 Gd505 2.661 . S
N514 C509 1.350 . S
N514 C515 1.307 . S
C515 C513 1.402 . S
C515 N514 1.307 . S
C515 H516 0.930 . S
H516 C515 0.930 . S
C517 N518 1.334 . S
C517 C519 1.394 . S
C517 H521 0.930 . S
N518 Gd505 2.601 . S
N518 C508 1.359 . S
N518 C517 1.334 . S
C519 C517 1.394 . S
C519 C520 1.359 . S
C519 H531 0.930 . S
C520 C510 1.391 . S
C520 C519 1.359 . S
C520 H532 0.929 . S
H521 C517 0.930 . S
H522 C511 0.930 . S
H523 C540 0.930 . S
H524 C512 0.930 . S
H525 C513 0.930 . S
H526 C507 0.929 . S
H527 C545 0.930 . S
H528 C536 0.930 . S
H529 C537 0.930 . S
H530 C561 0.929 . S
H531 C519 0.930 . S
H532 C520 0.929 . S
H533 C562 0.930 . S
H534 C543 0.930 1_545 S
N535 Gd504 2.661 1_565 S
N535 C539 1.350 . S
N535 C540 1.307 . S
C536 H528 0.930 . S
C536 C537 1.355 . S
C536 C538 1.412 . S
C537 H529 0.930 . S
C537 C536 1.355 . S
C537 C540 1.402 . S
C538 C536 1.412 . S
C538 C539 1.417 . S
C538 C562 1.431 . S
C539 N535 1.350 . S
C539 C538 1.417 . S
C539 C542 1.426 . S
C540 H523 0.930 . S
C540 N535 1.307 . S
C540 C537 1.402 . S
N541 Gd504 2.601 . S
N541 C542 1.359 1_545 S
N541 C545 1.334 . S
C542 C539 1.426 . S
C542 N541 1.359 1_565 S
C542 C546 1.413 . S
C543 H534 0.930 1_565 S
C543 C544 1.358 . S
C543 C545 1.395 1_565 S
C544 C543 1.358 . S
C544 C546 1.391 . S
C544 H547 0.929 . S
C545 H527 0.930 . S
C545 N541 1.334 . S
C545 C543 1.395 1_545 S
C546 C542 1.413 . S
C546 C544 1.391 . S
C546 C561 1.437 . S
H547 C544 0.929 . S
O548 Gd504 2.545 . S
O548 C563 1.258 . S
O549 Gd504 2.606 . S
O549 Gd505 2.362 . S
O549 C560 1.284 . S
O550 Gd505 2.324 . S
O550 C570 1.254 . S
O551 Gd504 2.429 . S
O551 C570 1.268 . S
O552 Gd504 2.545 . S
O552 C560 1.250 . S
O553 Gd504 2.412 . S
O553 C563 1.252 . S
O554 Gd505 2.545 . S
O554 C572 1.258 . S
O555 Gd504 2.362 . S
O555 Gd505 2.606 . S
O555 C571 1.284 1_545 S
O556 Gd504 2.324 . S
O556 C579 1.254 . S
O557 Gd505 2.429 . S
O557 C579 1.268 . S
O558 Gd505 2.545 1_565 S
O558 C571 1.250 . S
O559 Gd505 2.412 . S
O559 C572 1.252 . S
C560 O549 1.284 . S
C560 O552 1.250 . S
C561 H530 0.929 . S
C561 C546 1.437 . S
C561 C562 1.317 . S
C562 H533 0.930 . S
C562 C538 1.431 . S
C562 C561 1.317 . S
C563 Gd504 2.828 . S
C563 O548 1.258 . S
C563 O553 1.252 . S
C563 C564 1.497 . S
C564 C563 1.497 . S
C564 C565 1.395 . S
C564 C566 1.380 . S
C565 C564 1.395 . S
C565 C568 1.398 . S
C565 H580 0.930 . S
C566 C564 1.380 . S
C566 C567 1.391 . S
C566 H581 0.930 . S
C567 C566 1.391 . S
C567 C569 1.387 . S
C568 C565 1.398 . S
C568 C569 1.380 . S
C568 H582 0.930 . S
C569 C567 1.387 . S
C569 C568 1.380 . S
C569 H583 0.930 . S
C570 O550 1.254 . S
C570 O551 1.268 . S
C571 O555 1.284 1_565 S
C571 O558 1.250 . S
C572 Gd505 2.828 . S
C572 O554 1.258 . S
C572 O559 1.252 . S
C572 C573 1.497 . S
C573 C572 1.497 . S
C573 C574 1.395 . S
C573 C575 1.380 1_545 S
C574 C573 1.395 . S
C574 C577 1.398 1_545 S
C574 H584 0.930 . S
C575 C573 1.380 1_565 S
C575 C576 1.391 . S
C575 H585 0.930 . S
C576 C575 1.391 . S
C576 C578 1.387 . S
C577 C574 1.398 1_565 S
C577 C578 1.380 . S
C577 H586 0.930 . S
C578 C576 1.387 . S
C578 C577 1.380 . S
C578 H587 0.930 . S
C579 O556 1.254 . S
C579 O557 1.268 . S
H580 C565 0.930 . S
H581 C566 0.930 . S
H582 C568 0.930 . S
H583 C569 0.930 . S
H584 C574 0.930 . S
H585 C575 0.930 . S
H586 C577 0.930 . S
H587 C578 0.930 . S
Gd588 N619 2.661 . S
Gd588 N625 2.601 . S
Gd588 O632 2.545 . S
Gd588 O633 2.606 . S
Gd588 O635 2.429 . S
Gd588 O636 2.545 . S
Gd588 O637 2.412 . S
Gd588 O639 2.362 . S
Gd588 O640 2.324 . S
Gd588 C647 2.828 . S
Gd589 N598 2.661 . S
Gd589 N602 2.601 . S
Gd589 O633 2.362 . S
Gd589 O634 2.324 . S
Gd589 O638 2.545 . S
Gd589 O639 2.606 . S
Gd589 O641 2.429 . S
Gd589 O642 2.545 . S
Gd589 O643 2.412 . S
Gd589 C656 2.828 . S
C590 C593 1.417 . S
C590 C595 1.431 . S
C590 C596 1.412 . S
C591 C594 1.437 . S
C591 C595 1.317 . S
C591 H610 0.929 . S
C592 C593 1.426 . S
C592 C594 1.413 . S
C592 N602 1.359 . S
C593 C590 1.417 . S
C593 C592 1.426 . S
C593 N598 1.350 . S
C594 C591 1.437 . S
C594 C592 1.413 . S
C594 C604 1.391 . S
C595 C590 1.431 . S
C595 C591 1.317 . S
C595 H606 0.930 . S
C596 C590 1.412 . S
C596 C597 1.355 . S
C596 H608 0.930 . S
C597 C596 1.355 . S
C597 C599 1.402 . S
C597 H609 0.930 . S
N598 Gd589 2.661 . S
N598 C593 1.350 . S
N598 C599 1.307 . S
C599 C597 1.402 . S
C599 N598 1.307 . S
C599 H600 0.930 . S
H600 C599 0.930 . S
C601 N602 1.334 . S
C601 C603 1.394 . S
C601 H605 0.930 . S
N602 Gd589 2.601 . S
N602 C592 1.359 . S
N602 C601 1.334 . S
C603 C601 1.394 . S
C603 C604 1.359 . S
C603 H615 0.930 . S
C604 C594 1.391 . S
C604 C603 1.359 . S
C604 H616 0.929 . S
H605 C601 0.930 . S
H606 C595 0.930 . S
H607 C624 0.930 . S
H608 C596 0.930 . S
H609 C597 0.930 . S
H610 C591 0.929 . S
H611 C629 0.930 . S
H612 C620 0.930 . S
H613 C621 0.930 . S
H614 C645 0.929 . S
H615 C603 0.930 . S
H616 C604 0.929 . S
H617 C646 0.930 . S
H618 C627 0.930 . S
N619 Gd588 2.661 . S
N619 C623 1.350 . S
N619 C624 1.307 . S
C620 H612 0.930 . S
C620 C621 1.355 . S
C620 C622 1.412 . S
C621 H613 0.930 . S
C621 C620 1.355 . S
C621 C624 1.402 . S
C622 C620 1.412 . S
C622 C623 1.417 . S
C622 C646 1.431 . S
C623 N619 1.350 . S
C623 C622 1.417 . S
C623 C626 1.426 . S
C624 H607 0.930 . S
C624 N619 1.307 . S
C624 C621 1.402 . S
N625 Gd588 2.601 . S
N625 C626 1.359 . S
N625 C629 1.334 . S
C626 C623 1.426 . S
C626 N625 1.359 . S
C626 C630 1.413 . S
C627 H618 0.930 . S
C627 C628 1.359 . S
C627 C629 1.394 . S
C628 C627 1.359 . S
C628 C630 1.391 . S
C628 H631 0.929 . S
C629 H611 0.930 . S
C629 N625 1.334 . S
C629 C627 1.394 . S
C630 C626 1.413 . S
C630 C628 1.391 . S
C630 C645 1.437 . S
H631 C628 0.929 . S
O632 Gd588 2.545 . S
O632 C647 1.258 . S
O633 Gd588 2.606 . S
O633 Gd589 2.362 . S
O633 C644 1.284 . S
O634 Gd589 2.324 . S
O634 C654 1.254 . S
O635 Gd588 2.429 . S
O635 C654 1.268 . S
O636 Gd588 2.545 . S
O636 C644 1.250 . S
O637 Gd588 2.412 . S
O637 C647 1.252 . S
O638 Gd589 2.545 . S
O638 C656 1.258 . S
O639 Gd588 2.362 . S
O639 Gd589 2.606 . S
O639 C655 1.284 . S
O640 Gd588 2.324 . S
O640 C663 1.254 . S
O641 Gd589 2.429 . S
O641 C663 1.268 . S
O642 Gd589 2.545 . S
O642 C655 1.250 . S
O643 Gd589 2.412 . S
O643 C656 1.252 . S
C644 O633 1.284 . S
C644 O636 1.250 . S
C645 H614 0.929 . S
C645 C630 1.437 . S
C645 C646 1.317 . S
C646 H617 0.930 . S
C646 C622 1.431 . S
C646 C645 1.317 . S
C647 Gd588 2.828 . S
C647 O632 1.258 . S
C647 O637 1.252 . S
C647 C648 1.497 . S
C648 C647 1.497 . S
C648 C649 1.395 . S
C648 C650 1.380 . S
C649 C648 1.395 . S
C649 C652 1.398 . S
C649 H664 0.930 . S
C650 C648 1.380 . S
C650 C651 1.391 . S
C650 H665 0.930 . S
C651 C650 1.391 . S
C651 C653 1.387 . S
C652 C649 1.398 . S
C652 C653 1.380 . S
C652 H666 0.930 . S
C653 C651 1.387 . S
C653 C652 1.380 . S
C653 H667 0.930 . S
C654 O634 1.254 . S
C654 O635 1.268 . S
C655 O639 1.284 . S
C655 O642 1.250 . S
C656 Gd589 2.828 . S
C656 O638 1.258 . S
C656 O643 1.252 . S
C656 C657 1.497 . S
C657 C656 1.497 . S
C657 C658 1.395 . S
C657 C659 1.380 . S
C658 C657 1.395 . S
C658 C661 1.398 . S
C658 H668 0.930 . S
C659 C657 1.380 . S
C659 C660 1.391 . S
C659 H669 0.930 . S
C660 C659 1.391 . S
C660 C662 1.387 . S
C661 C658 1.398 . S
C661 C662 1.380 . S
C661 H670 0.930 . S
C662 C660 1.387 . S
C662 C661 1.380 . S
C662 H671 0.930 . S
C663 O640 1.254 . S
C663 O641 1.268 . S
H664 C649 0.930 . S
H665 C650 0.930 . S
H666 C652 0.930 . S
H667 C653 0.930 . S
H668 C658 0.930 . S
H669 C659 0.930 . S
H670 C661 0.930 . S
H671 C662 0.930 . S
Gd672 N703 2.660 1_545 S
Gd672 N709 2.600 1_545 S
Gd672 O716 2.541 1_545 S
Gd672 O717 2.608 . S
Gd672 O719 2.431 . S
Gd672 O720 2.544 . S
Gd672 O721 2.409 1_545 S
Gd672 O723 2.365 . S
Gd672 O724 2.323 . S
Gd672 C731 2.824 1_545 S
Gd673 N682 2.661 . S
Gd673 N686 2.601 . S
Gd673 O717 2.362 . S
Gd673 O718 2.324 . S
Gd673 O722 2.545 . S
Gd673 O723 2.606 . S
Gd673 O725 2.429 . S
Gd673 O726 2.545 . S
Gd673 O727 2.412 . S
Gd673 C740 2.828 . S
C674 C677 1.417 . S
C674 C679 1.431 . S
C674 C680 1.412 . S
C675 C678 1.437 . S
C675 C679 1.317 . S
C675 H694 0.929 . S
C676 C677 1.426 . S
C676 C678 1.413 . S
C676 N686 1.359 . S
C677 C674 1.417 . S
C677 C676 1.426 . S
C677 N682 1.350 . S
C678 C675 1.437 . S
C678 C676 1.413 . S
C678 C688 1.391 . S
C679 C674 1.431 . S
C679 C675 1.317 . S
C679 H690 0.930 . S
C680 C674 1.412 . S
C680 C681 1.355 . S
C680 H692 0.930 . S
C681 C680 1.355 . S
C681 C683 1.402 . S
C681 H693 0.930 . S
N682 Gd673 2.661 . S
N682 C677 1.350 . S
N682 C683 1.307 . S
C683 C681 1.402 . S
C683 N682 1.307 . S
C683 H684 0.930 . S
H684 C683 0.930 . S
C685 N686 1.334 . S
C685 C687 1.394 . S
C685 H689 0.930 . S
N686 Gd673 2.601 . S
N686 C676 1.359 . S
N686 C685 1.334 . S
C687 C685 1.394 . S
C687 C688 1.359 . S
C687 H699 0.930 1_455 S
C688 C678 1.391 . S
C688 C687 1.359 . S
C688 H700 0.929 . S
H689 C685 0.930 . S
H690 C679 0.930 . S
H691 C708 0.930 . S
H692 C680 0.930 . S
H693 C681 0.930 . S
H694 C675 0.929 . S
H695 C713 0.930 . S
H696 C704 0.905 1_655 S
H697 C705 0.924 . S
H698 C729 0.929 . S
H699 C687 0.930 1_655 S
H700 C688 0.929 . S
H701 C730 0.930 . S
H702 C711 0.930 . S
N703 Gd672 2.660 1_565 S
N703 C707 1.350 . S
N703 C708 1.307 . S
C704 H696 0.905 1_455 S
C704 C705 1.358 1_455 S
C704 C706 1.412 . S
C705 H697 0.924 . S
C705 C704 1.358 1_655 S
C705 C708 1.405 1_655 S
C706 C704 1.412 . S
C706 C707 1.417 . S
C706 C730 1.431 . S
C707 N703 1.350 . S
C707 C706 1.417 . S
C707 C710 1.426 . S
C708 H691 0.930 . S
C708 N703 1.307 . S
C708 C705 1.405 1_455 S
N709 Gd672 2.600 1_565 S
N709 C710 1.359 . S
N709 C713 1.334 . S
C710 C707 1.426 . S
C710 N709 1.359 . S
C710 C714 1.413 . S
C711 H702 0.930 . S
C711 C712 1.359 . S
C711 C713 1.394 . S
C712 C711 1.359 . S
C712 C714 1.391 . S
C712 H715 0.929 . S
C713 H695 0.930 . S
C713 N709 1.334 . S
C713 C711 1.394 . S
C714 C710 1.413 . S
C714 C712 1.391 . S
C714 C729 1.437 . S
H715 C712 0.929 . S
O716 Gd672 2.541 1_565 S
O716 C731 1.258 . S
O717 Gd672 2.608 . S
O717 Gd673 2.362 . S
O717 C728 1.284 . S
O718 Gd673 2.324 . S
O718 C738 1.254 . S
O719 Gd672 2.431 . S
O719 C738 1.268 . S
O720 Gd672 2.544 . S
O720 C728 1.250 . S
O721 Gd672 2.409 1_565 S
O721 C731 1.252 . S
O722 Gd673 2.545 . S
O722 C740 1.258 . S
O723 Gd672 2.365 . S
O723 Gd673 2.606 . S
O723 C739 1.284 . S
O724 Gd672 2.323 . S
O724 C747 1.260 . S
O725 Gd673 2.429 . S
O725 C747 1.268 . S
O726 Gd673 2.545 . S
O726 C739 1.250 . S
O727 Gd673 2.412 . S
O727 C740 1.252 . S
C728 O717 1.284 . S
C728 O720 1.250 . S
C729 H698 0.929 . S
C729 C714 1.437 . S
C729 C730 1.317 . S
C730 H701 0.930 . S
C730 C706 1.431 . S
C730 C729 1.317 . S
C731 Gd672 2.824 1_565 S
C731 O716 1.258 . S
C731 O721 1.252 . S
C731 C732 1.497 . S
C732 C731 1.497 . S
C732 C733 1.395 . S
C732 C734 1.380 . S
C733 C732 1.395 . S
C733 C736 1.398 . S
C733 H748 0.930 . S
C734 C732 1.380 . S
C734 C735 1.391 . S
C734 H749 0.930 . S
C735 C734 1.391 . S
C735 C737 1.387 . S
C736 C733 1.398 . S
C736 C737 1.380 . S
C736 H750 0.930 . S
C737 C735 1.387 . S
C737 C736 1.380 . S
C737 H751 0.930 . S
C738 O718 1.254 . S
C738 O719 1.268 . S
C739 O723 1.284 . S
C739 O726 1.250 . S
C740 Gd673 2.828 . S
C740 O722 1.258 . S
C740 O727 1.252 . S
C740 C741 1.497 . S
C741 C740 1.497 . S
C741 C742 1.395 . S
C741 C743 1.380 . S
C742 C741 1.395 . S
C742 C745 1.398 . S
C742 H752 0.930 . S
C743 C741 1.380 . S
C743 C744 1.391 . S
C743 H753 0.930 . S
C744 C743 1.391 . S
C744 C746 1.387 . S
C745 C742 1.398 . S
C745 C746 1.380 . S
C745 H754 0.930 . S
C746 C744 1.387 . S
C746 C745 1.380 . S
C746 H755 0.930 . S
C747 O724 1.260 . S
C747 O725 1.268 . S
H748 C733 0.930 . S
H749 C734 0.930 . S
H750 C736 0.930 . S
H751 C737 0.930 . S
H752 C742 0.930 . S
H753 C743 0.930 . S
H754 C745 0.930 . S
H755 C746 0.930 . S
Gd756 N787 2.661 . S
Gd756 N793 2.601 . S
Gd756 O800 2.545 . S
Gd756 O801 2.606 . S
Gd756 O803 2.429 . S
Gd756 O804 2.545 . S
Gd756 O805 2.412 . S
Gd756 O807 2.362 . S
Gd756 O808 2.324 . S
Gd756 C815 2.828 . S
Gd757 N766 2.661 . S
Gd757 N770 2.601 . S
Gd757 O801 2.362 . S
Gd757 O802 2.324 . S
Gd757 O806 2.545 . S
Gd757 O807 2.606 . S
Gd757 O809 2.429 . S
Gd757 O810 2.545 . S
Gd757 O811 2.412 . S
Gd757 C824 2.828 . S
C758 C761 1.417 . S
C758 C763 1.431 . S
C758 C764 1.412 . S
C759 C762 1.437 . S
C759 C763 1.317 . S
C759 H778 0.929 . S
C760 C761 1.426 . S
C760 C762 1.413 . S
C760 N770 1.359 . S
C761 C758 1.417 . S
C761 C760 1.426 . S
C761 N766 1.350 . S
C762 C759 1.437 . S
C762 C760 1.413 . S
C762 C772 1.391 . S
C763 C758 1.431 . S
C763 C759 1.317 . S
C763 H774 0.930 . S
C764 C758 1.412 . S
C764 C765 1.355 . S
C764 H776 0.930 . S
C765 C764 1.355 . S
C765 C767 1.402 . S
C765 H777 0.930 . S
N766 Gd757 2.661 . S
N766 C761 1.350 . S
N766 C767 1.307 . S
C767 C765 1.402 . S
C767 N766 1.307 . S
C767 H768 0.930 . S
H768 C767 0.930 . S
C769 N770 1.334 . S
C769 C771 1.394 . S
C769 H773 0.930 . S
N770 Gd757 2.601 . S
N770 C760 1.359 . S
N770 C769 1.334 . S
C771 C769 1.394 . S
C771 C772 1.359 . S
C771 H783 0.930 . S
C772 C762 1.391 . S
C772 C771 1.359 . S
C772 H784 0.929 . S
H773 C769 0.930 . S
H774 C763 0.930 . S
H775 C792 0.930 . S
H776 C764 0.930 . S
H777 C765 0.930 . S
H778 C759 0.929 . S
H779 C797 0.930 . S
H780 C788 0.930 . S
H781 C789 0.930 . S
H782 C813 0.929 . S
H783 C771 0.930 . S
H784 C772 0.929 . S
H785 C814 0.930 . S
H786 C795 0.930 . S
N787 Gd756 2.661 . S
N787 C791 1.350 . S
N787 C792 1.307 . S
C788 H780 0.930 . S
C788 C789 1.355 . S
C788 C790 1.412 . S
C789 H781 0.930 . S
C789 C788 1.355 . S
C789 C792 1.402 . S
C790 C788 1.412 . S
C790 C791 1.417 . S
C790 C814 1.431 . S
C791 N787 1.350 . S
C791 C790 1.417 . S
C791 C794 1.426 . S
C792 H775 0.930 . S
C792 N787 1.307 . S
C792 C789 1.402 . S
N793 Gd756 2.601 . S
N793 C794 1.359 . S
N793 C797 1.334 . S
C794 C791 1.426 . S
C794 N793 1.359 . S
C794 C798 1.413 . S
C795 H786 0.930 . S
C795 C796 1.359 . S
C795 C797 1.394 . S
C796 C795 1.359 . S
C796 C798 1.391 . S
C796 H799 0.929 . S
C797 H779 0.930 . S
C797 N793 1.334 . S
C797 C795 1.394 . S
C798 C794 1.413 . S
C798 C796 1.391 . S
C798 C813 1.437 . S
H799 C796 0.929 . S
O800 Gd756 2.545 . S
O800 C815 1.258 . S
O801 Gd756 2.606 . S
O801 Gd757 2.362 . S
O801 C812 1.284 . S
O802 Gd757 2.324 . S
O802 C822 1.254 . S
O803 Gd756 2.429 . S
O803 C822 1.268 . S
O804 Gd756 2.545 . S
O804 C812 1.250 . S
O805 Gd756 2.412 . S
O805 C815 1.252 . S
O806 Gd757 2.545 . S
O806 C824 1.258 . S
O807 Gd756 2.362 . S
O807 Gd757 2.606 . S
O807 C823 1.284 . S
O808 Gd756 2.324 . S
O808 C831 1.254 . S
O809 Gd757 2.429 . S
O809 C831 1.268 . S
O810 Gd757 2.545 . S
O810 C823 1.250 . S
O811 Gd757 2.412 . S
O811 C824 1.252 . S
C812 O801 1.284 . S
C812 O804 1.250 . S
C813 H782 0.929 . S
C813 C798 1.437 . S
C813 C814 1.317 . S
C814 H785 0.930 . S
C814 C790 1.431 . S
C814 C813 1.317 . S
C815 Gd756 2.828 . S
C815 O800 1.258 . S
C815 O805 1.252 . S
C815 C816 1.497 . S
C816 C815 1.497 . S
C816 C817 1.395 . S
C816 C818 1.380 . S
C817 C816 1.395 . S
C817 C820 1.398 . S
C817 H832 0.930 . S
C818 C816 1.380 . S
C818 C819 1.391 . S
C818 H833 0.930 . S
C819 C818 1.391 . S
C819 C821 1.387 . S
C820 C817 1.398 . S
C820 C821 1.380 . S
C820 H834 0.930 . S
C821 C819 1.387 . S
C821 C820 1.380 . S
C821 H835 0.930 . S
C822 O802 1.254 . S
C822 O803 1.268 . S
C823 O807 1.284 . S
C823 O810 1.250 . S
C824 Gd757 2.828 . S
C824 O806 1.258 . S
C824 O811 1.252 . S
C824 C825 1.497 . S
C825 C824 1.497 . S
C825 C826 1.395 . S
C825 C827 1.380 . S
C826 C825 1.395 . S
C826 C829 1.398 . S
C826 H836 0.930 . S
C827 C825 1.380 . S
C827 C828 1.391 . S
C827 H837 0.930 . S
C828 C827 1.391 . S
C828 C830 1.387 . S
C829 C826 1.398 . S
C829 C830 1.380 . S
C829 H838 0.930 . S
C830 C828 1.387 . S
C830 C829 1.380 . S
C830 H839 0.930 . S
C831 O808 1.254 . S
C831 O809 1.268 . S
H832 C817 0.930 . S
H833 C818 0.930 . S
H834 C820 0.930 . S
H835 C821 0.930 . S
H836 C826 0.930 . S
H837 C827 0.930 . S
H838 C829 0.930 . S
H839 C830 0.930 . S
Gd840 N871 2.661 . S
Gd840 N877 2.601 . S
Gd840 O884 2.545 . S
Gd840 O885 2.606 1_556 S
Gd840 O887 2.429 1_556 S
Gd840 O888 2.545 . S
Gd840 O889 2.412 . S
Gd840 O891 2.362 1_556 S
Gd840 O892 2.324 . S
Gd840 C899 2.828 . S
Gd841 N850 2.661 . S
Gd841 N854 2.601 . S
Gd841 O885 2.362 . S
Gd841 O886 2.324 . S
Gd841 O890 2.545 1_545 S
Gd841 O891 2.606 . S
Gd841 O893 2.429 1_545 S
Gd841 O894 2.545 . S
Gd841 O895 2.412 . S
Gd841 C908 2.828 . S
C842 C845 1.417 . S
C842 C847 1.431 . S
C842 C848 1.412 . S
C843 C846 1.437 . S
C843 C847 1.317 . S
C843 H862 0.929 . S
C844 C845 1.426 . S
C844 C846 1.413 . S
C844 N854 1.359 . S
C845 C842 1.417 . S
C845 C844 1.426 . S
C845 N850 1.350 . S
C846 C843 1.437 . S
C846 C844 1.413 . S
C846 C856 1.391 1_545 S
C847 C842 1.431 . S
C847 C843 1.317 . S
C847 H858 0.930 . S
C848 C842 1.412 . S
C848 C849 1.355 . S
C848 H860 0.930 . S
C849 C848 1.355 . S
C849 C851 1.402 . S
C849 H861 0.930 . S
N850 Gd841 2.661 . S
N850 C845 1.350 . S
N850 C851 1.307 . S
C851 C849 1.402 . S
C851 N850 1.307 . S
C851 H852 0.930 . S
H852 C851 0.930 . S
C853 N854 1.334 1_565 S
C853 C855 1.394 . S
C853 H857 0.930 . S
N854 Gd841 2.601 . S
N854 C844 1.359 . S
N854 C853 1.334 1_545 S
C855 C853 1.394 . S
C855 C856 1.359 . S
C855 H867 0.930 . S
C856 C846 1.391 1_565 S
C856 C855 1.359 . S
C856 H868 0.929 . S
H857 C853 0.930 . S
H858 C847 0.930 . S
H859 C876 0.930 . S
H860 C848 0.930 . S
H861 C849 0.930 . S
H862 C843 0.929 . S
H863 C881 0.930 . S
H864 C872 0.930 . S
H865 C873 0.930 . S
H866 C897 0.929 . S
H867 C855 0.930 . S
H868 C856 0.929 . S
H869 C898 0.930 . S
H870 C879 0.930 . S
N871 Gd840 2.661 . S
N871 C875 1.350 . S
N871 C876 1.307 1_545 S
C872 H864 0.930 . S
C872 C873 1.355 . S
C872 C874 1.412 1_565 S
C873 H865 0.930 . S
C873 C872 1.355 . S
C873 C876 1.402 . S
C874 C872 1.412 1_545 S
C874 C875 1.417 . S
C874 C898 1.431 . S
C875 N871 1.350 . S
C875 C874 1.417 . S
C875 C878 1.426 . S
C876 H859 0.930 . S
C876 N871 1.307 1_565 S
C876 C873 1.402 . S
N877 Gd840 2.601 . S
N877 C878 1.359 . S
N877 C881 1.334 . S
C878 C875 1.426 . S
C878 N877 1.359 . S
C878 C882 1.413 . S
C879 H870 0.930 . S
C879 C880 1.359 . S
C879 C881 1.394 . S
C880 C879 1.359 . S
C880 C882 1.391 . S
C880 H883 0.929 . S
C881 H863 0.930 . S
C881 N877 1.334 . S
C881 C879 1.394 . S
C882 C878 1.413 . S
C882 C880 1.391 . S
C882 C897 1.437 . S
H883 C880 0.929 . S
O884 Gd840 2.545 . S
O884 C899 1.258 . S
O885 Gd840 2.606 1_554 S
O885 Gd841 2.362 . S
O885 C896 1.284 . S
O886 Gd841 2.324 . S
O886 C906 1.254 . S
O887 Gd840 2.429 1_554 S
O887 C906 1.268 . S
O888 Gd840 2.545 . S
O888 C896 1.250 1_556 S
O889 Gd840 2.412 . S
O889 C899 1.252 . S
O890 Gd841 2.545 1_565 S
O890 C908 1.258 1_565 S
O891 Gd840 2.362 1_554 S
O891 Gd841 2.606 . S
O891 C907 1.284 . S
O892 Gd840 2.324 . S
O892 C915 1.254 1_545 S
O893 Gd841 2.429 1_565 S
O893 C915 1.268 1_554 S
O894 Gd841 2.545 . S
O894 C907 1.250 . S
O895 Gd841 2.412 . S
O895 C908 1.252 . S
C896 O885 1.284 . S
C896 O888 1.250 1_554 S
C897 H866 0.929 . S
C897 C882 1.437 . S
C897 C898 1.317 . S
C898 H869 0.930 . S
C898 C874 1.431 . S
C898 C897 1.317 . S
C899 Gd840 2.828 . S
C899 O884 1.258 . S
C899 O889 1.252 . S
C899 C900 1.497 . S
C900 C899 1.497 . S
C900 C901 1.395 . S
C900 C902 1.380 . S
C901 C900 1.395 . S
C901 C904 1.398 . S
C901 H916 0.930 . S
C902 C900 1.380 . S
C902 C903 1.391 . S
C902 H917 0.930 . S
C903 C902 1.391 . S
C903 C905 1.387 . S
C904 C901 1.398 . S
C904 C905 1.380 . S
C904 H918 0.930 . S
C905 C903 1.387 . S
C905 C904 1.380 . S
C905 H919 0.930 . S
C906 O886 1.254 . S
C906 O887 1.268 . S
C907 O891 1.284 . S
C907 O894 1.250 . S
C908 Gd841 2.828 . S
C908 O890 1.258 1_545 S
C908 O895 1.252 . S
C908 C909 1.497 . S
C909 C908 1.497 . S
C909 C910 1.395 1_545 S
C909 C911 1.380 . S
C910 C909 1.395 1_565 S
C910 C913 1.398 . S
C910 H920 0.930 . S
C911 C909 1.380 . S
C911 C912 1.391 . S
C911 H921 0.930 . S
C912 C911 1.391 . S
C912 C914 1.387 1_545 S
C913 C910 1.398 . S
C913 C914 1.380 . S
C913 H922 0.930 . S
C914 C912 1.387 1_565 S
C914 C913 1.380 . S
C914 H923 0.930 . S
C915 O892 1.254 1_565 S
C915 O893 1.268 1_556 S
H916 C901 0.930 . S
H917 C902 0.930 . S
H918 C904 0.930 . S
H919 C905 0.930 . S
H920 C910 0.930 . S
H921 C911 0.930 . S
H922 C913 0.930 . S
H923 C914 0.930 . S
Gd924 N955 2.661 . S
Gd924 N961 2.601 . S
Gd924 O968 2.545 . S
Gd924 O969 2.606 . S
Gd924 O971 2.429 . S
Gd924 O972 2.545 . S
Gd924 O973 2.412 . S
Gd924 O975 2.362 . S
Gd924 O976 2.324 . S
Gd924 C983 2.828 . S
Gd925 N934 2.661 . S
Gd925 N938 2.601 . S
Gd925 O969 2.362 . S
Gd925 O970 2.324 . S
Gd925 O974 2.545 . S
Gd925 O975 2.606 . S
Gd925 O977 2.429 . S
Gd925 O978 2.545 . S
Gd925 O979 2.412 . S
Gd925 C992 2.828 . S
C926 C929 1.417 . S
C926 C931 1.431 . S
C926 C932 1.412 . S
C927 C930 1.437 . S
C927 C931 1.317 . S
C927 H946 0.929 . S
C928 C929 1.426 . S
C928 C930 1.413 . S
C928 N938 1.359 . S
C929 C926 1.417 . S
C929 C928 1.426 . S
C929 N934 1.350 . S
C930 C927 1.437 . S
C930 C928 1.413 . S
C930 C940 1.391 . S
C931 C926 1.431 . S
C931 C927 1.317 . S
C931 H942 0.930 . S
C932 C926 1.412 . S
C932 C933 1.355 . S
C932 H944 0.930 . S
C933 C932 1.355 . S
C933 C935 1.402 . S
C933 H945 0.930 . S
N934 Gd925 2.661 . S
N934 C929 1.350 . S
N934 C935 1.307 . S
C935 C933 1.402 . S
C935 N934 1.307 . S
C935 H936 0.930 . S
H936 C935 0.930 . S
C937 N938 1.334 . S
C937 C939 1.394 . S
C937 H941 0.930 . S
N938 Gd925 2.601 . S
N938 C928 1.359 . S
N938 C937 1.334 . S
C939 C937 1.394 . S
C939 C940 1.359 . S
C939 H951 0.930 . S
C940 C930 1.391 . S
C940 C939 1.359 . S
C940 H952 0.929 . S
H941 C937 0.930 . S
H942 C931 0.930 . S
H943 C960 0.930 . S
H944 C932 0.930 . S
H945 C933 0.930 . S
H946 C927 0.929 . S
H947 C965 0.930 . S
H948 C956 0.930 . S
H949 C957 0.930 . S
H950 C981 0.929 . S
H951 C939 0.930 . S
H952 C940 0.929 . S
H953 C982 0.930 . S
H954 C963 0.930 . S
N955 Gd924 2.661 . S
N955 C959 1.350 . S
N955 C960 1.307 . S
C956 H948 0.930 . S
C956 C957 1.355 . S
C956 C958 1.412 . S
C957 H949 0.930 . S
C957 C956 1.355 . S
C957 C960 1.402 . S
C958 C956 1.412 . S
C958 C959 1.417 . S
C958 C982 1.431 . S
C959 N955 1.350 . S
C959 C958 1.417 . S
C959 C962 1.426 . S
C960 H943 0.930 . S
C960 N955 1.307 . S
C960 C957 1.402 . S
N961 Gd924 2.601 . S
N961 C962 1.359 . S
N961 C965 1.334 . S
C962 C959 1.426 . S
C962 N961 1.359 . S
C962 C966 1.413 . S
C963 H954 0.930 . S
C963 C964 1.359 . S
C963 C965 1.394 . S
C964 C963 1.359 . S
C964 C966 1.391 . S
C964 H967 0.929 . S
C965 H947 0.930 . S
C965 N961 1.334 . S
C965 C963 1.394 . S
C966 C962 1.413 . S
C966 C964 1.391 . S
C966 C981 1.437 . S
H967 C964 0.929 . S
O968 Gd924 2.545 . S
O968 C983 1.258 . S
O969 Gd924 2.606 . S
O969 Gd925 2.362 . S
O969 C980 1.284 . S
O970 Gd925 2.324 . S
O970 C990 1.254 . S
O971 Gd924 2.429 . S
O971 C990 1.268 . S
O972 Gd924 2.545 . S
O972 C980 1.250 . S
O973 Gd924 2.412 . S
O973 C983 1.252 . S
O974 Gd925 2.545 . S
O974 C992 1.258 . S
O975 Gd924 2.362 . S
O975 Gd925 2.606 . S
O975 C991 1.284 . S
O976 Gd924 2.324 . S
O976 C999 1.254 . S
O977 Gd925 2.429 . S
O977 C999 1.268 . S
O978 Gd925 2.545 . S
O978 C991 1.250 . S
O979 Gd925 2.412 . S
O979 C992 1.252 . S
C980 O969 1.284 . S
C980 O972 1.250 . S
C981 H950 0.929 . S
C981 C966 1.437 . S
C981 C982 1.317 . S
C982 H953 0.930 . S
C982 C958 1.431 . S
C982 C981 1.317 . S
C983 Gd924 2.828 . S
C983 O968 1.258 . S
C983 O973 1.252 . S
C983 C984 1.497 . S
C984 C983 1.497 . S
C984 C985 1.395 . S
C984 C986 1.380 . S
C985 C984 1.395 . S
C985 C988 1.398 . S
C985 H1000 0.930 . S
C986 C984 1.380 . S
C986 C987 1.391 . S
C986 H1001 0.930 . S
C987 C986 1.391 . S
C987 C989 1.387 . S
C988 C985 1.398 . S
C988 C989 1.380 . S
C988 H1002 0.930 . S
C989 C987 1.387 . S
C989 C988 1.380 . S
C989 H1003 0.930 . S
C990 O970 1.254 . S
C990 O971 1.268 . S
C991 O975 1.284 . S
C991 O978 1.250 . S
C992 Gd925 2.828 . S
C992 O974 1.258 . S
C992 O979 1.252 . S
C992 C993 1.497 . S
C993 C992 1.497 . S
C993 C994 1.395 . S
C993 C995 1.380 . S
C994 C993 1.395 . S
C994 C997 1.398 . S
C994 H1004 0.930 . S
C995 C993 1.380 . S
C995 C996 1.391 . S
C995 H1005 0.930 . S
C996 C995 1.391 . S
C996 C998 1.387 . S
C997 C994 1.398 . S
C997 C998 1.380 . S
C997 H1006 0.930 . S
C998 C996 1.387 . S
C998 C997 1.380 . S
C998 H1007 0.930 . S
C999 O976 1.254 . S
C999 O977 1.268 . S
H1000 C985 0.930 . S
H1001 C986 0.930 . S
H1002 C988 0.930 . S
H1003 C989 0.930 . S
H1004 C994 0.930 . S
H1005 C995 0.930 . S
H1006 C997 0.930 . S
H1007 C998 0.930 . S
Gd1008 N1039 2.661 1_554 S
Gd1008 N1045 2.601 1_554 S
Gd1008 O1052 2.545 . S
Gd1008 O1053 2.606 . S
Gd1008 O1055 2.429 . S
Gd1008 O1056 2.545 . S
Gd1008 O1057 2.412 . S
Gd1008 O1059 2.362 1_554 S
Gd1008 O1060 2.324 . S
Gd1008 C1067 2.828 . S
Gd1009 N1018 2.661 . S
Gd1009 N1022 2.601 . S
Gd1009 O1053 2.362 . S
Gd1009 O1054 2.324 . S
Gd1009 O1058 2.545 . S
Gd1009 O1059 2.606 1_554 S
Gd1009 O1061 2.429 . S
Gd1009 O1062 2.545 1_554 S
Gd1009 O1063 2.412 . S
Gd1009 C1076 2.828 . S
C1010 C1013 1.417 . S
C1010 C1015 1.431 . S
C1010 C1016 1.412 . S
C1011 C1014 1.437 . S
C1011 C1015 1.317 . S
C1011 H1030 0.929 . S
C1012 C1013 1.426 . S
C1012 C1014 1.413 . S
C1012 N1022 1.359 . S
C1013 C1010 1.417 . S
C1013 C1012 1.426 . S
C1013 N1018 1.350 . S
C1014 C1011 1.437 . S
C1014 C1012 1.413 . S
C1014 C1024 1.391 . S
C1015 C1010 1.431 . S
C1015 C1011 1.317 . S
C1015 H1026 0.930 . S
C1016 C1010 1.412 . S
C1016 C1017 1.355 . S
C1016 H1028 0.930 . S
C1017 C1016 1.355 . S
C1017 C1019 1.402 . S
C1017 H1029 0.930 . S
N1018 Gd1009 2.661 . S
N1018 C1013 1.350 . S
N1018 C1019 1.307 . S
C1019 C1017 1.402 . S
C1019 N1018 1.307 . S
C1019 H1020 0.930 . S
H1020 C1019 0.930 . S
C1021 N1022 1.334 . S
C1021 C1023 1.394 . S
C1021 H1025 0.930 . S
N1022 Gd1009 2.601 . S
N1022 C1012 1.359 . S
N1022 C1021 1.334 . S
C1023 C1021 1.394 . S
C1023 C1024 1.359 . S
C1023 H1035 0.930 . S
C1024 C1014 1.391 . S
C1024 C1023 1.359 . S
C1024 H1036 0.929 . S
H1025 C1021 0.930 . S
H1026 C1015 0.930 . S
H1027 C1044 0.930 . S
H1028 C1016 0.930 . S
H1029 C1017 0.930 . S
H1030 C1011 0.929 . S
H1031 C1049 0.930 . S
H1032 C1040 0.930 . S
H1033 C1041 0.930 . S
H1034 C1065 0.929 . S
H1035 C1023 0.930 . S
H1036 C1024 0.929 . S
H1037 C1066 0.930 . S
H1038 C1047 0.930 . S
N1039 Gd1008 2.661 1_556 S
N1039 C1043 1.350 . S
N1039 C1044 1.307 . S
C1040 H1032 0.930 . S
C1040 C1041 1.355 . S
C1040 C1042 1.412 . S
C1041 H1033 0.930 . S
C1041 C1040 1.355 . S
C1041 C1044 1.402 . S
C1042 C1040 1.412 . S
C1042 C1043 1.417 . S
C1042 C1066 1.431 . S
C1043 N1039 1.350 . S
C1043 C1042 1.417 . S
C1043 C1046 1.426 . S
C1044 H1027 0.930 . S
C1044 N1039 1.307 . S
C1044 C1041 1.402 . S
N1045 Gd1008 2.601 1_556 S
N1045 C1046 1.359 . S
N1045 C1049 1.334 . S
C1046 C1043 1.426 . S
C1046 N1045 1.359 . S
C1046 C1050 1.413 . S
C1047 H1038 0.930 . S
C1047 C1048 1.359 . S
C1047 C1049 1.394 . S
C1048 C1047 1.359 . S
C1048 C1050 1.391 . S
C1048 H1051 0.929 . S
C1049 H1031 0.930 . S
C1049 N1045 1.334 . S
C1049 C1047 1.394 . S
C1050 C1046 1.413 . S
C1050 C1048 1.391 . S
C1050 C1065 1.437 . S
H1051 C1048 0.929 . S
O1052 Gd1008 2.545 . S
O1052 C1067 1.258 . S
O1053 Gd1008 2.606 . S
O1053 Gd1009 2.362 . S
O1053 C1064 1.284 . S
O1054 Gd1009 2.324 . S
O1054 C1074 1.254 . S
O1055 Gd1008 2.429 . S
O1055 C1074 1.268 . S
O1056 Gd1008 2.545 . S
O1056 C1064 1.250 . S
O1057 Gd1008 2.412 . S
O1057 C1067 1.252 . S
O1058 Gd1009 2.545 . S
O1058 C1076 1.258 . S
O1059 Gd1008 2.362 1_556 S
O1059 Gd1009 2.606 1_556 S
O1059 C1075 1.284 . S
O1060 Gd1008 2.324 . S
O1060 C1083 1.254 . S
O1061 Gd1009 2.429 . S
O1061 C1083 1.268 . S
O1062 Gd1009 2.545 1_556 S
O1062 C1075 1.250 . S
O1063 Gd1009 2.412 . S
O1063 C1076 1.252 . S
C1064 O1053 1.284 . S
C1064 O1056 1.250 . S
C1065 H1034 0.929 . S
C1065 C1050 1.437 . S
C1065 C1066 1.317 . S
C1066 H1037 0.930 . S
C1066 C1042 1.431 . S
C1066 C1065 1.317 . S
C1067 Gd1008 2.828 . S
C1067 O1052 1.258 . S
C1067 O1057 1.252 . S
C1067 C1068 1.497 . S
C1068 C1067 1.497 . S
C1068 C1069 1.395 . S
C1068 C1070 1.380 . S
C1069 C1068 1.395 . S
C1069 C1072 1.398 . S
C1069 H1084 0.930 . S
C1070 C1068 1.380 . S
C1070 C1071 1.391 . S
C1070 H1085 0.930 . S
C1071 C1070 1.391 . S
C1071 C1073 1.387 . S
C1072 C1069 1.398 . S
C1072 C1073 1.380 . S
C1072 H1086 0.930 . S
C1073 C1071 1.387 . S
C1073 C1072 1.380 . S
C1073 H1087 0.930 . S
C1074 O1054 1.254 . S
C1074 O1055 1.268 . S
C1075 O1059 1.284 . S
C1075 O1062 1.250 . S
C1076 Gd1009 2.828 . S
C1076 O1058 1.258 . S
C1076 O1063 1.252 . S
C1076 C1077 1.497 . S
C1077 C1076 1.497 . S
C1077 C1078 1.395 . S
C1077 C1079 1.380 . S
C1078 C1077 1.395 . S
C1078 C1081 1.398 . S
C1078 H1088 0.930 . S
C1079 C1077 1.380 . S
C1079 C1080 1.391 1_554 S
C1079 H1089 0.930 1_554 S
C1080 C1079 1.391 1_556 S
C1080 C1082 1.387 1_556 S
C1081 C1078 1.398 . S
C1081 C1082 1.380 . S
C1081 H1090 0.930 . S
C1082 C1080 1.387 1_554 S
C1082 C1081 1.380 . S
C1082 H1091 0.929 . S
C1083 O1060 1.254 . S
C1083 O1061 1.268 . S
H1084 C1069 0.930 . S
H1085 C1070 0.930 . S
H1086 C1072 0.930 . S
H1087 C1073 0.930 . S
H1088 C1078 0.930 . S
H1089 C1079 0.930 1_556 S
H1090 C1081 0.930 . S
H1091 C1082 0.929 . S
Gd1092 N1123 2.661 . S
Gd1092 N1129 2.601 . S
Gd1092 O1136 2.545 . S
Gd1092 O1137 2.606 . S
Gd1092 O1139 2.429 . S
Gd1092 O1140 2.545 . S
Gd1092 O1141 2.412 . S
Gd1092 O1143 2.362 . S
Gd1092 O1144 2.324 . S
Gd1092 C1151 2.828 . S
Gd1093 N1102 2.661 . S
Gd1093 N1106 2.601 . S
Gd1093 O1137 2.362 . S
Gd1093 O1138 2.324 . S
Gd1093 O1142 2.545 . S
Gd1093 O1143 2.606 . S
Gd1093 O1145 2.429 . S
Gd1093 O1146 2.545 . S
Gd1093 O1147 2.412 . S
Gd1093 C1160 2.828 . S
C1094 C1097 1.417 . S
C1094 C1099 1.431 . S
C1094 C1100 1.412 . S
C1095 C1098 1.437 . S
C1095 C1099 1.317 . S
C1095 H1114 0.929 . S
C1096 C1097 1.426 . S
C1096 C1098 1.413 . S
C1096 N1106 1.359 . S
C1097 C1094 1.417 . S
C1097 C1096 1.426 . S
C1097 N1102 1.350 . S
C1098 C1095 1.437 . S
C1098 C1096 1.413 . S
C1098 C1108 1.391 . S
C1099 C1094 1.431 . S
C1099 C1095 1.317 . S
C1099 H1110 0.930 . S
C1100 C1094 1.412 . S
C1100 C1101 1.355 . S
C1100 H1112 0.930 . S
C1101 C1100 1.355 . S
C1101 C1103 1.402 . S
C1101 H1113 0.930 . S
N1102 Gd1093 2.661 . S
N1102 C1097 1.350 . S
N1102 C1103 1.307 . S
C1103 C1101 1.402 . S
C1103 N1102 1.307 . S
C1103 H1104 0.930 . S
H1104 C1103 0.930 . S
C1105 N1106 1.334 . S
C1105 C1107 1.394 . S
C1105 H1109 0.930 . S
N1106 Gd1093 2.601 . S
N1106 C1096 1.359 . S
N1106 C1105 1.334 . S
C1107 C1105 1.394 . S
C1107 C1108 1.359 . S
C1107 H1119 0.930 . S
C1108 C1098 1.391 . S
C1108 C1107 1.359 . S
C1108 H1120 0.929 . S
H1109 C1105 0.930 . S
H1110 C1099 0.930 . S
H1111 C1128 0.930 . S
H1112 C1100 0.930 . S
H1113 C1101 0.930 . S
H1114 C1095 0.929 . S
H1115 C1133 0.930 . S
H1116 C1124 0.930 . S
H1117 C1125 0.930 . S
H1118 C1149 0.929 . S
H1119 C1107 0.930 . S
H1120 C1108 0.929 . S
H1121 C1150 0.930 . S
H1122 C1131 0.930 . S
N1123 Gd1092 2.661 . S
N1123 C1127 1.350 . S
N1123 C1128 1.307 . S
C1124 H1116 0.930 . S
C1124 C1125 1.355 . S
C1124 C1126 1.412 . S
C1125 H1117 0.930 . S
C1125 C1124 1.355 . S
C1125 C1128 1.402 . S
C1126 C1124 1.412 . S
C1126 C1127 1.417 . S
C1126 C1150 1.431 . S
C1127 N1123 1.350 . S
C1127 C1126 1.417 . S
C1127 C1130 1.426 . S
C1128 H1111 0.930 . S
C1128 N1123 1.307 . S
C1128 C1125 1.402 . S
N1129 Gd1092 2.601 . S
N1129 C1130 1.359 . S
N1129 C1133 1.334 . S
C1130 C1127 1.426 . S
C1130 N1129 1.359 . S
C1130 C1134 1.413 . S
C1131 H1122 0.930 . S
C1131 C1132 1.359 . S
C1131 C1133 1.394 . S
C1132 C1131 1.359 . S
C1132 C1134 1.391 . S
C1132 H1135 0.929 . S
C1133 H1115 0.930 . S
C1133 N1129 1.334 . S
C1133 C1131 1.394 . S
C1134 C1130 1.413 . S
C1134 C1132 1.391 . S
C1134 C1149 1.437 . S
H1135 C1132 0.929 . S
O1136 Gd1092 2.545 . S
O1136 C1151 1.258 . S
O1137 Gd1092 2.606 . S
O1137 Gd1093 2.362 . S
O1137 C1148 1.284 . S
O1138 Gd1093 2.324 . S
O1138 C1158 1.254 . S
O1139 Gd1092 2.429 . S
O1139 C1158 1.268 . S
O1140 Gd1092 2.545 . S
O1140 C1148 1.250 . S
O1141 Gd1092 2.412 . S
O1141 C1151 1.252 . S
O1142 Gd1093 2.545 . S
O1142 C1160 1.258 . S
O1143 Gd1092 2.362 . S
O1143 Gd1093 2.606 . S
O1143 C1159 1.284 . S
O1144 Gd1092 2.324 . S
O1144 C1167 1.254 . S
O1145 Gd1093 2.429 . S
O1145 C1167 1.268 . S
O1146 Gd1093 2.545 . S
O1146 C1159 1.250 . S
O1147 Gd1093 2.412 . S
O1147 C1160 1.252 . S
C1148 O1137 1.284 . S
C1148 O1140 1.250 . S
C1149 H1118 0.929 . S
C1149 C1134 1.437 . S
C1149 C1150 1.317 . S
C1150 H1121 0.930 . S
C1150 C1126 1.431 . S
C1150 C1149 1.317 . S
C1151 Gd1092 2.828 . S
C1151 O1136 1.258 . S
C1151 O1141 1.252 . S
C1151 C1152 1.497 . S
C1152 C1151 1.497 . S
C1152 C1153 1.395 . S
C1152 C1154 1.380 . S
C1153 C1152 1.395 . S
C1153 C1156 1.398 . S
C1153 H1168 0.930 . S
C1154 C1152 1.380 . S
C1154 C1155 1.391 . S
C1154 H1169 0.930 . S
C1155 C1154 1.391 . S
C1155 C1157 1.387 . S
C1156 C1153 1.398 . S
C1156 C1157 1.380 . S
C1156 H1170 0.930 . S
C1157 C1155 1.387 . S
C1157 C1156 1.380 . S
C1157 H1171 0.930 . S
C1158 O1138 1.254 . S
C1158 O1139 1.268 . S
C1159 O1143 1.284 . S
C1159 O1146 1.250 . S
C1160 Gd1093 2.828 . S
C1160 O1142 1.258 . S
C1160 O1147 1.252 . S
C1160 C1161 1.497 . S
C1161 C1160 1.497 . S
C1161 C1162 1.395 . S
C1161 C1163 1.380 . S
C1162 C1161 1.395 . S
C1162 C1165 1.398 . S
C1162 H1172 0.930 . S
C1163 C1161 1.380 . S
C1163 C1164 1.391 . S
C1163 H1173 0.930 . S
C1164 C1163 1.391 . S
C1164 C1166 1.387 . S
C1165 C1162 1.398 . S
C1165 C1166 1.380 . S
C1165 H1174 0.930 . S
C1166 C1164 1.387 . S
C1166 C1165 1.380 . S
C1166 H1175 0.930 . S
C1167 O1144 1.254 . S
C1167 O1145 1.268 . S
H1168 C1153 0.930 . S
H1169 C1154 0.930 . S
H1170 C1156 0.930 . S
H1171 C1157 0.930 . S
H1172 C1162 0.930 . S
H1173 C1163 0.930 . S
H1174 C1165 0.930 . S
H1175 C1166 0.930 . S
Gd1176 N1207 2.661 . S
Gd1176 N1213 2.601 . S
Gd1176 O1220 2.545 . S
Gd1176 O1221 2.606 . S
Gd1176 O1223 2.429 . S
Gd1176 O1224 2.545 . S
Gd1176 O1225 2.412 . S
Gd1176 O1227 2.362 . S
Gd1176 O1228 2.324 . S
Gd1176 C1235 2.828 . S
Gd1177 N1186 2.661 . S
Gd1177 N1190 2.601 . S
Gd1177 O1221 2.362 . S
Gd1177 O1222 2.324 . S
Gd1177 O1226 2.545 . S
Gd1177 O1227 2.606 . S
Gd1177 O1229 2.429 . S
Gd1177 O1230 2.545 . S
Gd1177 O1231 2.412 . S
Gd1177 C1244 2.828 . S
C1178 C1181 1.417 . S
C1178 C1183 1.431 . S
C1178 C1184 1.412 . S
C1179 C1182 1.437 . S
C1179 C1183 1.317 . S
C1179 H1198 0.929 . S
C1180 C1181 1.426 . S
C1180 C1182 1.413 . S
C1180 N1190 1.359 . S
C1181 C1178 1.417 . S
C1181 C1180 1.426 . S
C1181 N1186 1.350 . S
C1182 C1179 1.437 . S
C1182 C1180 1.413 . S
C1182 C1192 1.391 . S
C1183 C1178 1.431 . S
C1183 C1179 1.317 . S
C1183 H1194 0.930 . S
C1184 C1178 1.412 . S
C1184 C1185 1.355 . S
C1184 H1196 0.930 . S
C1185 C1184 1.355 . S
C1185 C1187 1.402 . S
C1185 H1197 0.930 . S
N1186 Gd1177 2.661 . S
N1186 C1181 1.350 . S
N1186 C1187 1.307 . S
C1187 C1185 1.402 . S
C1187 N1186 1.307 . S
C1187 H1188 0.930 . S
H1188 C1187 0.930 . S
C1189 N1190 1.334 . S
C1189 C1191 1.394 . S
C1189 H1193 0.930 . S
N1190 Gd1177 2.601 . S
N1190 C1180 1.359 . S
N1190 C1189 1.334 . S
C1191 C1189 1.394 . S
C1191 C1192 1.359 . S
C1191 H1203 0.930 . S
C1192 C1182 1.391 . S
C1192 C1191 1.359 . S
C1192 H1204 0.929 . S
H1193 C1189 0.930 . S
H1194 C1183 0.930 . S
H1195 C1212 0.930 . S
H1196 C1184 0.930 . S
H1197 C1185 0.930 . S
H1198 C1179 0.929 . S
H1199 C1217 0.930 . S
H1200 C1208 0.930 . S
H1201 C1209 0.930 . S
H1202 C1233 0.929 . S
H1203 C1191 0.930 . S
H1204 C1192 0.929 . S
H1205 C1234 0.930 . S
H1206 C1215 0.930 . S
N1207 Gd1176 2.661 . S
N1207 C1211 1.379 . S
N1207 C1212 1.307 . S
C1208 H1200 0.930 . S
C1208 C1209 1.355 . S
C1208 C1210 1.412 . S
C1209 H1201 0.930 . S
C1209 C1208 1.355 . S
C1209 C1212 1.402 1_655 S
C1210 C1208 1.412 . S
C1210 C1211 1.394 1_655 S
C1210 C1234 1.431 . S
C1211 N1207 1.379 . S
C1211 C1210 1.394 1_455 S
C1211 C1214 1.422 . S
C1212 H1195 0.930 . S
C1212 N1207 1.307 . S
C1212 C1209 1.402 1_455 S
N1213 Gd1176 2.601 . S
N1213 C1214 1.359 . S
N1213 C1217 1.334 . S
C1214 C1211 1.422 . S
C1214 N1213 1.359 . S
C1214 C1218 1.413 1_455 S
C1215 H1206 0.930 . S
C1215 C1216 1.359 1_455 S
C1215 C1217 1.394 . S
C1216 C1215 1.359 1_655 S
C1216 C1218 1.391 . S
C1216 H1219 0.929 . S
C1217 H1199 0.930 . S
C1217 N1213 1.334 . S
C1217 C1215 1.394 . S
C1218 C1214 1.413 1_655 S
C1218 C1216 1.391 . S
C1218 C1233 1.437 . S
H1219 C1216 0.929 . S
O1220 Gd1176 2.545 . S
O1220 C1235 1.258 . S
O1221 Gd1176 2.606 . S
O1221 Gd1177 2.362 . S
O1221 C1232 1.284 . S
O1222 Gd1177 2.324 . S
O1222 C1242 1.254 . S
O1223 Gd1176 2.429 . S
O1223 C1242 1.268 . S
O1224 Gd1176 2.545 . S
O1224 C1232 1.250 . S
O1225 Gd1176 2.412 . S
O1225 C1235 1.252 . S
O1226 Gd1177 2.545 . S
O1226 C1244 1.258 . S
O1227 Gd1176 2.362 . S
O1227 Gd1177 2.606 . S
O1227 C1243 1.284 . S
O1228 Gd1176 2.324 . S
O1228 C1251 1.254 . S
O1229 Gd1177 2.429 . S
O1229 C1251 1.268 . S
O1230 Gd1177 2.545 . S
O1230 C1243 1.250 . S
O1231 Gd1177 2.412 . S
O1231 C1244 1.252 . S
C1232 O1221 1.284 . S
C1232 O1224 1.250 . S
C1233 H1202 0.929 . S
C1233 C1218 1.437 . S
C1233 C1234 1.317 . S
C1234 H1205 0.930 . S
C1234 C1210 1.431 . S
C1234 C1233 1.317 . S
C1235 Gd1176 2.828 . S
C1235 O1220 1.258 . S
C1235 O1225 1.252 . S
C1235 C1236 1.497 . S
C1236 C1235 1.497 . S
C1236 C1237 1.395 . S
C1236 C1238 1.380 . S
C1237 C1236 1.395 . S
C1237 C1240 1.398 . S
C1237 H1252 0.930 . S
C1238 C1236 1.380 . S
C1238 C1239 1.391 . S
C1238 H1253 0.930 . S
C1239 C1238 1.391 . S
C1239 C1241 1.387 . S
C1240 C1237 1.398 . S
C1240 C1241 1.380 . S
C1240 H1254 0.930 . S
C1241 C1239 1.387 . S
C1241 C1240 1.380 . S
C1241 H1255 0.930 . S
C1242 O1222 1.254 . S
C1242 O1223 1.268 . S
C1243 O1227 1.284 . S
C1243 O1230 1.250 . S
C1244 Gd1177 2.828 . S
C1244 O1226 1.258 . S
C1244 O1231 1.252 . S
C1244 C1245 1.497 . S
C1245 C1244 1.497 . S
C1245 C1246 1.395 . S
C1245 C1247 1.380 . S
C1246 C1245 1.395 . S
C1246 C1249 1.398 . S
C1246 H1256 0.930 . S
C1247 C1245 1.380 . S
C1247 C1248 1.391 . S
C1247 H1257 0.930 . S
C1248 C1247 1.391 . S
C1248 C1250 1.387 . S
C1249 C1246 1.398 . S
C1249 C1250 1.380 . S
C1249 H1258 0.930 . S
C1250 C1248 1.387 . S
C1250 C1249 1.380 . S
C1250 H1259 0.930 . S
C1251 O1228 1.254 . S
C1251 O1229 1.268 . S
H1252 C1237 0.930 . S
H1253 C1238 0.930 . S
H1254 C1240 0.930 . S
H1255 C1241 0.930 . S
H1256 C1246 0.930 . S
H1257 C1247 0.930 . S
H1258 C1249 0.930 . S
H1259 C1250 0.930 . S
Gd1260 N1291 2.661 . S
Gd1260 N1297 2.601 . S
Gd1260 O1304 2.545 . S
Gd1260 O1305 2.606 . S
Gd1260 O1307 2.429 . S
Gd1260 O1308 2.545 . S
Gd1260 O1309 2.412 . S
Gd1260 O1311 2.362 . S
Gd1260 O1312 2.324 . S
Gd1260 C1319 2.828 . S
Gd1261 N1270 2.661 . S
Gd1261 N1274 2.601 . S
Gd1261 O1305 2.362 . S
Gd1261 O1306 2.324 . S
Gd1261 O1310 2.545 . S
Gd1261 O1311 2.606 . S
Gd1261 O1313 2.429 . S
Gd1261 O1314 2.545 . S
Gd1261 O1315 2.412 . S
Gd1261 C1328 2.828 . S
C1262 C1265 1.417 . S
C1262 C1267 1.431 . S
C1262 C1268 1.412 . S
C1263 C1266 1.437 . S
C1263 C1267 1.317 . S
C1263 H1282 0.929 . S
C1264 C1265 1.426 . S
C1264 C1266 1.413 . S
C1264 N1274 1.359 . S
C1265 C1262 1.417 . S
C1265 C1264 1.426 . S
C1265 N1270 1.350 . S
C1266 C1263 1.437 . S
C1266 C1264 1.413 . S
C1266 C1276 1.391 . S
C1267 C1262 1.431 . S
C1267 C1263 1.317 . S
C1267 H1278 0.930 . S
C1268 C1262 1.412 . S
C1268 C1269 1.355 . S
C1268 H1280 0.930 . S
C1269 C1268 1.355 . S
C1269 C1271 1.402 . S
C1269 H1281 0.930 . S
N1270 Gd1261 2.661 . S
N1270 C1265 1.350 . S
N1270 C1271 1.307 . S
C1271 C1269 1.402 . S
C1271 N1270 1.307 . S
C1271 H1272 0.930 . S
H1272 C1271 0.930 . S
C1273 N1274 1.334 . S
C1273 C1275 1.394 . S
C1273 H1277 0.930 . S
N1274 Gd1261 2.601 . S
N1274 C1264 1.359 . S
N1274 C1273 1.334 . S
C1275 C1273 1.394 . S
C1275 C1276 1.359 . S
C1275 H1287 0.930 . S
C1276 C1266 1.391 . S
C1276 C1275 1.359 . S
C1276 H1288 0.929 . S
H1277 C1273 0.930 . S
H1278 C1267 0.930 . S
H1279 C1296 0.930 . S
H1280 C1268 0.930 . S
H1281 C1269 0.930 . S
H1282 C1263 0.929 . S
H1283 C1301 0.930 . S
H1284 C1292 0.930 . S
H1285 C1293 0.930 . S
H1286 C1317 0.929 . S
H1287 C1275 0.930 . S
H1288 C1276 0.929 . S
H1289 C1318 0.930 . S
H1290 C1299 0.930 . S
N1291 Gd1260 2.661 . S
N1291 C1295 1.350 . S
N1291 C1296 1.307 . S
C1292 H1284 0.930 . S
C1292 C1293 1.355 . S
C1292 C1294 1.412 . S
C1293 H1285 0.930 . S
C1293 C1292 1.355 . S
C1293 C1296 1.402 . S
C1294 C1292 1.412 . S
C1294 C1295 1.417 . S
C1294 C1318 1.431 . S
C1295 N1291 1.350 . S
C1295 C1294 1.417 . S
C1295 C1298 1.426 . S
C1296 H1279 0.930 . S
C1296 N1291 1.307 . S
C1296 C1293 1.402 . S
N1297 Gd1260 2.601 . S
N1297 C1298 1.359 . S
N1297 C1301 1.334 . S
C1298 C1295 1.426 . S
C1298 N1297 1.359 . S
C1298 C1302 1.413 . S
C1299 H1290 0.930 . S
C1299 C1300 1.359 . S
C1299 C1301 1.394 . S
C1300 C1299 1.359 . S
C1300 C1302 1.391 . S
C1300 H1303 0.929 . S
C1301 H1283 0.930 . S
C1301 N1297 1.334 . S
C1301 C1299 1.394 . S
C1302 C1298 1.413 . S
C1302 C1300 1.391 . S
C1302 C1317 1.437 . S
H1303 C1300 0.929 . S
O1304 Gd1260 2.545 . S
O1304 C1319 1.258 . S
O1305 Gd1260 2.606 . S
O1305 Gd1261 2.362 . S
O1305 C1316 1.284 . S
O1306 Gd1261 2.324 . S
O1306 C1326 1.254 . S
O1307 Gd1260 2.429 . S
O1307 C1326 1.268 . S
O1308 Gd1260 2.545 . S
O1308 C1316 1.250 . S
O1309 Gd1260 2.412 . S
O1309 C1319 1.252 . S
O1310 Gd1261 2.545 . S
O1310 C1328 1.258 . S
O1311 Gd1260 2.362 . S
O1311 Gd1261 2.606 . S
O1311 C1327 1.284 . S
O1312 Gd1260 2.324 . S
O1312 C1335 1.254 . S
O1313 Gd1261 2.429 . S
O1313 C1335 1.268 . S
O1314 Gd1261 2.545 . S
O1314 C1327 1.250 . S
O1315 Gd1261 2.412 . S
O1315 C1328 1.252 . S
C1316 O1305 1.284 . S
C1316 O1308 1.250 . S
C1317 H1286 0.929 . S
C1317 C1302 1.437 . S
C1317 C1318 1.317 . S
C1318 H1289 0.930 . S
C1318 C1294 1.431 . S
C1318 C1317 1.317 . S
C1319 Gd1260 2.828 . S
C1319 O1304 1.258 . S
C1319 O1309 1.252 . S
C1319 C1320 1.497 . S
C1320 C1319 1.497 . S
C1320 C1321 1.395 . S
C1320 C1322 1.380 . S
C1321 C1320 1.395 . S
C1321 C1324 1.398 . S
C1321 H1336 0.930 . S
C1322 C1320 1.380 . S
C1322 C1323 1.391 . S
C1322 H1337 0.930 . S
C1323 C1322 1.391 . S
C1323 C1325 1.387 . S
C1324 C1321 1.398 . S
C1324 C1325 1.380 . S
C1324 H1338 0.930 . S
C1325 C1323 1.387 . S
C1325 C1324 1.380 . S
C1325 H1339 0.930 . S
C1326 O1306 1.254 . S
C1326 O1307 1.268 . S
C1327 O1311 1.284 . S
C1327 O1314 1.250 . S
C1328 Gd1261 2.828 . S
C1328 O1310 1.258 . S
C1328 O1315 1.252 . S
C1328 C1329 1.497 . S
C1329 C1328 1.497 . S
C1329 C1330 1.395 . S
C1329 C1331 1.380 . S
C1330 C1329 1.395 . S
C1330 C1333 1.398 . S
C1330 H1340 0.930 . S
C1331 C1329 1.380 . S
C1331 C1332 1.391 . S
C1331 H1341 0.930 . S
C1332 C1331 1.391 . S
C1332 C1334 1.387 . S
C1333 C1330 1.398 . S
C1333 C1334 1.380 . S
C1333 H1342 0.930 . S
C1334 C1332 1.387 . S
C1334 C1333 1.380 . S
C1334 H1343 0.930 . S
C1335 O1312 1.254 . S
C1335 O1313 1.268 . S
H1336 C1321 0.930 . S
H1337 C1322 0.930 . S
H1338 C1324 0.930 . S
H1339 C1325 0.930 . S
H1340 C1330 0.930 . S
H1341 C1331 0.930 . S
H1342 C1333 0.930 . S
H1343 C1334 0.930 . S
Gd1344 N1375 2.661 . S
Gd1344 N1381 2.601 . S
Gd1344 O1388 2.545 . S
Gd1344 O1389 2.606 . S
Gd1344 O1391 2.429 . S
Gd1344 O1392 2.545 . S
Gd1344 O1393 2.412 . S
Gd1344 O1395 2.362 . S
Gd1344 O1396 2.324 . S
Gd1344 C1403 2.828 . S
Gd1345 N1354 2.661 . S
Gd1345 N1358 2.601 . S
Gd1345 O1389 2.362 . S
Gd1345 O1390 2.324 . S
Gd1345 O1394 2.545 . S
Gd1345 O1395 2.606 . S
Gd1345 O1397 2.429 . S
Gd1345 O1398 2.545 . S
Gd1345 O1399 2.412 . S
Gd1345 C1412 2.828 . S
C1346 C1349 1.417 . S
C1346 C1351 1.431 . S
C1346 C1352 1.412 . S
C1347 C1350 1.437 . S
C1347 C1351 1.317 . S
C1347 H1366 0.929 . S
C1348 C1349 1.426 . S
C1348 C1350 1.413 . S
C1348 N1358 1.359 . S
C1349 C1346 1.417 . S
C1349 C1348 1.426 . S
C1349 N1354 1.350 . S
C1350 C1347 1.437 . S
C1350 C1348 1.413 . S
C1350 C1360 1.391 . S
C1351 C1346 1.431 . S
C1351 C1347 1.317 . S
C1351 H1362 0.930 . S
C1352 C1346 1.412 . S
C1352 C1353 1.355 . S
C1352 H1364 0.930 . S
C1353 C1352 1.355 . S
C1353 C1355 1.402 . S
C1353 H1365 0.930 . S
N1354 Gd1345 2.661 . S
N1354 C1349 1.350 . S
N1354 C1355 1.307 . S
C1355 C1353 1.402 . S
C1355 N1354 1.307 . S
C1355 H1356 0.930 . S
H1356 C1355 0.930 . S
C1357 N1358 1.334 . S
C1357 C1359 1.394 . S
C1357 H1361 0.930 . S
N1358 Gd1345 2.601 . S
N1358 C1348 1.359 . S
N1358 C1357 1.334 . S
C1359 C1357 1.394 . S
C1359 C1360 1.359 . S
C1359 H1371 0.930 . S
C1360 C1350 1.391 . S
C1360 C1359 1.359 . S
C1360 H1372 0.929 . S
H1361 C1357 0.930 . S
H1362 C1351 0.930 . S
H1363 C1380 0.930 . S
H1364 C1352 0.930 . S
H1365 C1353 0.930 . S
H1366 C1347 0.929 . S
H1367 C1385 0.930 . S
H1368 C1376 0.930 . S
H1369 C1377 0.930 . S
H1370 C1401 0.929 . S
H1371 C1359 0.930 . S
H1372 C1360 0.929 . S
H1373 C1402 0.930 . S
H1374 C1383 0.930 . S
N1375 Gd1344 2.661 . S
N1375 C1379 1.350 . S
N1375 C1380 1.307 . S
C1376 H1368 0.930 . S
C1376 C1377 1.355 . S
C1376 C1378 1.412 . S
C1377 H1369 0.930 . S
C1377 C1376 1.355 . S
C1377 C1380 1.402 . S
C1378 C1376 1.412 . S
C1378 C1379 1.417 . S
C1378 C1402 1.431 . S
C1379 N1375 1.350 . S
C1379 C1378 1.417 . S
C1379 C1382 1.426 . S
C1380 H1363 0.930 . S
C1380 N1375 1.307 . S
C1380 C1377 1.402 . S
N1381 Gd1344 2.601 . S
N1381 C1382 1.359 . S
N1381 C1385 1.334 . S
C1382 C1379 1.426 . S
C1382 N1381 1.359 . S
C1382 C1386 1.413 . S
C1383 H1374 0.930 . S
C1383 C1384 1.359 . S
C1383 C1385 1.394 . S
C1384 C1383 1.359 . S
C1384 C1386 1.391 . S
C1384 H1387 0.929 . S
C1385 H1367 0.930 . S
C1385 N1381 1.334 . S
C1385 C1383 1.394 . S
C1386 C1382 1.413 . S
C1386 C1384 1.391 . S
C1386 C1401 1.437 . S
H1387 C1384 0.929 . S
O1388 Gd1344 2.545 . S
O1388 C1403 1.258 . S
O1389 Gd1344 2.606 . S
O1389 Gd1345 2.362 . S
O1389 C1400 1.284 . S
O1390 Gd1345 2.324 . S
O1390 C1410 1.254 . S
O1391 Gd1344 2.429 . S
O1391 C1410 1.268 . S
O1392 Gd1344 2.545 . S
O1392 C1400 1.250 . S
O1393 Gd1344 2.412 . S
O1393 C1403 1.252 . S
O1394 Gd1345 2.545 . S
O1394 C1412 1.258 . S
O1395 Gd1344 2.362 . S
O1395 Gd1345 2.606 . S
O1395 C1411 1.284 . S
O1396 Gd1344 2.324 . S
O1396 C1419 1.254 . S
O1397 Gd1345 2.429 . S
O1397 C1419 1.268 . S
O1398 Gd1345 2.545 . S
O1398 C1411 1.250 . S
O1399 Gd1345 2.412 . S
O1399 C1412 1.252 . S
C1400 O1389 1.284 . S
C1400 O1392 1.250 . S
C1401 H1370 0.929 . S
C1401 C1386 1.437 . S
C1401 C1402 1.317 . S
C1402 H1373 0.930 . S
C1402 C1378 1.431 . S
C1402 C1401 1.317 . S
C1403 Gd1344 2.828 . S
C1403 O1388 1.258 . S
C1403 O1393 1.252 . S
C1403 C1404 1.497 . S
C1404 C1403 1.497 . S
C1404 C1405 1.395 . S
C1404 C1406 1.380 . S
C1405 C1404 1.395 . S
C1405 C1408 1.398 . S
C1405 H1420 0.930 . S
C1406 C1404 1.380 . S
C1406 C1407 1.391 . S
C1406 H1421 0.930 . S
C1407 C1406 1.391 . S
C1407 C1409 1.387 . S
C1408 C1405 1.398 . S
C1408 C1409 1.380 . S
C1408 H1422 0.930 . S
C1409 C1407 1.387 . S
C1409 C1408 1.380 . S
C1409 H1423 0.930 . S
C1410 O1390 1.254 . S
C1410 O1391 1.268 . S
C1411 O1395 1.284 . S
C1411 O1398 1.250 . S
C1412 Gd1345 2.828 . S
C1412 O1394 1.258 . S
C1412 O1399 1.252 . S
C1412 C1413 1.497 . S
C1413 C1412 1.497 . S
C1413 C1414 1.395 . S
C1413 C1415 1.380 . S
C1414 C1413 1.395 . S
C1414 C1417 1.398 . S
C1414 H1424 0.930 . S
C1415 C1413 1.380 . S
C1415 C1416 1.391 . S
C1415 H1425 0.930 . S
C1416 C1415 1.391 . S
C1416 C1418 1.387 . S
C1417 C1414 1.398 . S
C1417 C1418 1.380 . S
C1417 H1426 0.930 . S
C1418 C1416 1.387 . S
C1418 C1417 1.380 . S
C1418 H1427 0.930 . S
C1419 O1396 1.254 . S
C1419 O1397 1.268 . S
H1420 C1405 0.930 . S
H1421 C1406 0.930 . S
H1422 C1408 0.930 . S
H1423 C1409 0.930 . S
H1424 C1414 0.930 . S
H1425 C1415 0.930 . S
H1426 C1417 0.930 . S
H1427 C1418 0.930 . S
Gd1428 N1459 2.661 . S
Gd1428 N1465 2.601 . S
Gd1428 O1472 2.545 . S
Gd1428 O1473 2.606 . S
Gd1428 O1475 2.429 . S
Gd1428 O1476 2.545 . S
Gd1428 O1477 2.412 . S
Gd1428 O1479 2.362 . S
Gd1428 O1480 2.324 . S
Gd1428 C1487 2.828 . S
Gd1429 N1438 2.661 . S
Gd1429 N1442 2.601 . S
Gd1429 O1473 2.362 . S
Gd1429 O1474 2.324 . S
Gd1429 O1478 2.545 . S
Gd1429 O1479 2.606 . S
Gd1429 O1481 2.429 . S
Gd1429 O1482 2.545 . S
Gd1429 O1483 2.412 . S
Gd1429 C1496 2.828 . S
C1430 C1433 1.417 . S
C1430 C1435 1.431 . S
C1430 C1436 1.412 . S
C1431 C1434 1.437 . S
C1431 C1435 1.317 . S
C1431 H1450 0.929 . S
C1432 C1433 1.426 . S
C1432 C1434 1.413 . S
C1432 N1442 1.359 . S
C1433 C1430 1.417 . S
C1433 C1432 1.426 . S
C1433 N1438 1.350 . S
C1434 C1431 1.437 . S
C1434 C1432 1.413 . S
C1434 C1444 1.391 . S
C1435 C1430 1.431 . S
C1435 C1431 1.317 . S
C1435 H1446 0.930 . S
C1436 C1430 1.412 . S
C1436 C1437 1.355 . S
C1436 H1448 0.930 . S
C1437 C1436 1.355 . S
C1437 C1439 1.402 . S
C1437 H1449 0.930 . S
N1438 Gd1429 2.661 . S
N1438 C1433 1.350 . S
N1438 C1439 1.307 . S
C1439 C1437 1.402 . S
C1439 N1438 1.307 . S
C1439 H1440 0.930 . S
H1440 C1439 0.930 . S
C1441 N1442 1.334 . S
C1441 C1443 1.394 . S
C1441 H1445 0.930 . S
N1442 Gd1429 2.601 . S
N1442 C1432 1.359 . S
N1442 C1441 1.334 . S
C1443 C1441 1.394 . S
C1443 C1444 1.359 . S
C1443 H1455 0.930 . S
C1444 C1434 1.391 . S
C1444 C1443 1.359 . S
C1444 H1456 0.929 . S
H1445 C1441 0.930 . S
H1446 C1435 0.930 . S
H1447 C1464 0.930 . S
H1448 C1436 0.930 . S
H1449 C1437 0.930 . S
H1450 C1431 0.929 . S
H1451 C1469 0.930 . S
H1452 C1460 0.930 . S
H1453 C1461 0.930 . S
H1454 C1485 0.929 . S
H1455 C1443 0.930 . S
H1456 C1444 0.929 . S
H1457 C1486 0.930 . S
H1458 C1467 0.930 . S
N1459 Gd1428 2.661 . S
N1459 C1463 1.350 . S
N1459 C1464 1.307 . S
C1460 H1452 0.930 . S
C1460 C1461 1.355 . S
C1460 C1462 1.412 . S
C1461 H1453 0.930 . S
C1461 C1460 1.355 . S
C1461 C1464 1.402 . S
C1462 C1460 1.412 . S
C1462 C1463 1.417 . S
C1462 C1486 1.431 . S
C1463 N1459 1.350 . S
C1463 C1462 1.417 . S
C1463 C1466 1.426 . S
C1464 H1447 0.930 . S
C1464 N1459 1.307 . S
C1464 C1461 1.402 . S
N1465 Gd1428 2.601 . S
N1465 C1466 1.359 . S
N1465 C1469 1.334 . S
C1466 C1463 1.426 . S
C1466 N1465 1.359 . S
C1466 C1470 1.413 . S
C1467 H1458 0.930 . S
C1467 C1468 1.359 . S
C1467 C1469 1.394 . S
C1468 C1467 1.359 . S
C1468 C1470 1.391 . S
C1468 H1471 0.929 . S
C1469 H1451 0.930 . S
C1469 N1465 1.334 . S
C1469 C1467 1.394 . S
C1470 C1466 1.413 . S
C1470 C1468 1.391 . S
C1470 C1485 1.437 . S
H1471 C1468 0.929 . S
O1472 Gd1428 2.545 . S
O1472 C1487 1.258 . S
O1473 Gd1428 2.606 . S
O1473 Gd1429 2.362 . S
O1473 C1484 1.284 . S
O1474 Gd1429 2.324 . S
O1474 C1494 1.254 . S
O1475 Gd1428 2.429 . S
O1475 C1494 1.268 . S
O1476 Gd1428 2.545 . S
O1476 C1484 1.250 . S
O1477 Gd1428 2.412 . S
O1477 C1487 1.252 . S
O1478 Gd1429 2.545 . S
O1478 C1496 1.258 . S
O1479 Gd1428 2.362 . S
O1479 Gd1429 2.606 . S
O1479 C1495 1.284 . S
O1480 Gd1428 2.324 . S
O1480 C1503 1.254 . S
O1481 Gd1429 2.429 . S
O1481 C1503 1.268 . S
O1482 Gd1429 2.545 . S
O1482 C1495 1.250 . S
O1483 Gd1429 2.412 . S
O1483 C1496 1.252 . S
C1484 O1473 1.284 . S
C1484 O1476 1.250 . S
C1485 H1454 0.929 . S
C1485 C1470 1.437 . S
C1485 C1486 1.317 . S
C1486 H1457 0.930 . S
C1486 C1462 1.431 . S
C1486 C1485 1.317 . S
C1487 Gd1428 2.828 . S
C1487 O1472 1.258 . S
C1487 O1477 1.252 . S
C1487 C1488 1.497 . S
C1488 C1487 1.497 . S
C1488 C1489 1.395 . S
C1488 C1490 1.380 . S
C1489 C1488 1.395 . S
C1489 C1492 1.398 . S
C1489 H1504 0.930 . S
C1490 C1488 1.380 . S
C1490 C1491 1.391 . S
C1490 H1505 0.930 . S
C1491 C1490 1.391 . S
C1491 C1493 1.387 . S
C1492 C1489 1.398 . S
C1492 C1493 1.380 . S
C1492 H1506 0.930 . S
C1493 C1491 1.387 . S
C1493 C1492 1.380 . S
C1493 H1507 0.930 . S
C1494 O1474 1.254 . S
C1494 O1475 1.268 . S
C1495 O1479 1.284 . S
C1495 O1482 1.250 . S
C1496 Gd1429 2.828 . S
C1496 O1478 1.258 . S
C1496 O1483 1.252 . S
C1496 C1497 1.497 . S
C1497 C1496 1.497 . S
C1497 C1498 1.395 . S
C1497 C1499 1.380 . S
C1498 C1497 1.395 . S
C1498 C1501 1.398 . S
C1498 H1508 0.930 . S
C1499 C1497 1.380 . S
C1499 C1500 1.391 . S
C1499 H1509 0.930 . S
C1500 C1499 1.391 . S
C1500 C1502 1.387 . S
C1501 C1498 1.398 . S
C1501 C1502 1.380 . S
C1501 H1510 0.930 . S
C1502 C1500 1.387 . S
C1502 C1501 1.380 . S
C1502 H1511 0.930 . S
C1503 O1480 1.254 . S
C1503 O1481 1.268 . S
H1504 C1489 0.930 . S
H1505 C1490 0.930 . S
H1506 C1492 0.930 . S
H1507 C1493 0.930 . S
H1508 C1498 0.930 . S
H1509 C1499 0.930 . S
H1510 C1501 0.930 . S
H1511 C1502 0.930 . S
Gd1512 N1543 2.661 . S
Gd1512 N1549 2.601 . S
Gd1512 O1556 2.545 . S
Gd1512 O1557 2.606 . S
Gd1512 O1559 2.429 . S
Gd1512 O1560 2.545 . S
Gd1512 O1561 2.412 . S
Gd1512 O1563 2.362 . S
Gd1512 O1564 2.324 . S
Gd1512 C1571 2.828 . S
Gd1513 N1522 2.661 . S
Gd1513 N1526 2.601 . S
Gd1513 O1557 2.362 . S
Gd1513 O1558 2.324 . S
Gd1513 O1562 2.545 . S
Gd1513 O1563 2.606 . S
Gd1513 O1565 2.429 . S
Gd1513 O1566 2.545 . S
Gd1513 O1567 2.412 . S
Gd1513 C1580 2.828 . S
C1514 C1517 1.417 . S
C1514 C1519 1.431 . S
C1514 C1520 1.412 . S
C1515 C1518 1.437 . S
C1515 C1519 1.317 . S
C1515 H1534 0.929 . S
C1516 C1517 1.426 . S
C1516 C1518 1.413 . S
C1516 N1526 1.359 . S
C1517 C1514 1.417 . S
C1517 C1516 1.426 . S
C1517 N1522 1.350 . S
C1518 C1515 1.437 . S
C1518 C1516 1.413 . S
C1518 C1528 1.391 . S
C1519 C1514 1.431 . S
C1519 C1515 1.317 . S
C1519 H1530 0.930 . S
C1520 C1514 1.412 . S
C1520 C1521 1.355 . S
C1520 H1532 0.930 . S
C1521 C1520 1.355 . S
C1521 C1523 1.402 . S
C1521 H1533 0.930 . S
N1522 Gd1513 2.661 . S
N1522 C1517 1.350 . S
N1522 C1523 1.307 . S
C1523 C1521 1.402 . S
C1523 N1522 1.307 . S
C1523 H1524 0.930 . S
H1524 C1523 0.930 . S
C1525 N1526 1.334 . S
C1525 C1527 1.394 . S
C1525 H1529 0.930 . S
N1526 Gd1513 2.601 . S
N1526 C1516 1.359 . S
N1526 C1525 1.334 . S
C1527 C1525 1.394 . S
C1527 C1528 1.359 . S
C1527 H1539 0.930 . S
C1528 C1518 1.391 . S
C1528 C1527 1.359 . S
C1528 H1540 0.929 . S
H1529 C1525 0.930 . S
H1530 C1519 0.930 . S
H1531 C1548 0.930 . S
H1532 C1520 0.930 . S
H1533 C1521 0.930 . S
H1534 C1515 0.929 . S
H1535 C1553 0.930 . S
H1536 C1544 0.930 . S
H1537 C1545 0.930 . S
H1538 C1569 0.929 . S
H1539 C1527 0.930 . S
H1540 C1528 0.929 . S
H1541 C1570 0.930 . S
H1542 C1551 0.930 . S
N1543 Gd1512 2.661 . S
N1543 C1547 1.350 . S
N1543 C1548 1.307 . S
C1544 H1536 0.930 . S
C1544 C1545 1.355 . S
C1544 C1546 1.412 . S
C1545 H1537 0.930 . S
C1545 C1544 1.355 . S
C1545 C1548 1.402 . S
C1546 C1544 1.412 . S
C1546 C1547 1.417 . S
C1546 C1570 1.431 . S
C1547 N1543 1.350 . S
C1547 C1546 1.417 . S
C1547 C1550 1.426 . S
C1548 H1531 0.930 . S
C1548 N1543 1.307 . S
C1548 C1545 1.402 . S
N1549 Gd1512 2.601 . S
N1549 C1550 1.359 . S
N1549 C1553 1.334 . S
C1550 C1547 1.426 . S
C1550 N1549 1.359 . S
C1550 C1554 1.413 . S
C1551 H1542 0.930 . S
C1551 C1552 1.359 . S
C1551 C1553 1.394 . S
C1552 C1551 1.359 . S
C1552 C1554 1.391 . S
C1552 H1555 0.929 . S
C1553 H1535 0.930 . S
C1553 N1549 1.334 . S
C1553 C1551 1.394 . S
C1554 C1550 1.413 . S
C1554 C1552 1.391 . S
C1554 C1569 1.437 . S
H1555 C1552 0.929 . S
O1556 Gd1512 2.545 . S
O1556 C1571 1.258 . S
O1557 Gd1512 2.606 . S
O1557 Gd1513 2.362 . S
O1557 C1568 1.284 . S
O1558 Gd1513 2.324 . S
O1558 C1578 1.254 . S
O1559 Gd1512 2.429 . S
O1559 C1578 1.268 . S
O1560 Gd1512 2.545 . S
O1560 C1568 1.250 . S
O1561 Gd1512 2.412 . S
O1561 C1571 1.252 . S
O1562 Gd1513 2.545 . S
O1562 C1580 1.258 . S
O1563 Gd1512 2.362 . S
O1563 Gd1513 2.606 . S
O1563 C1579 1.284 . S
O1564 Gd1512 2.324 . S
O1564 C1587 1.254 . S
O1565 Gd1513 2.429 . S
O1565 C1587 1.268 . S
O1566 Gd1513 2.545 . S
O1566 C1579 1.250 . S
O1567 Gd1513 2.412 . S
O1567 C1580 1.252 . S
C1568 O1557 1.284 . S
C1568 O1560 1.250 . S
C1569 H1538 0.929 . S
C1569 C1554 1.437 . S
C1569 C1570 1.317 . S
C1570 H1541 0.930 . S
C1570 C1546 1.431 . S
C1570 C1569 1.317 . S
C1571 Gd1512 2.828 . S
C1571 O1556 1.258 . S
C1571 O1561 1.252 . S
C1571 C1572 1.497 . S
C1572 C1571 1.497 . S
C1572 C1573 1.395 . S
C1572 C1574 1.380 . S
C1573 C1572 1.395 . S
C1573 C1576 1.398 . S
C1573 H1588 0.930 . S
C1574 C1572 1.380 . S
C1574 C1575 1.391 . S
C1574 H1589 0.930 . S
C1575 C1574 1.391 . S
C1575 C1577 1.387 . S
C1576 C1573 1.398 . S
C1576 C1577 1.380 . S
C1576 H1590 0.930 . S
C1577 C1575 1.387 . S
C1577 C1576 1.380 . S
C1577 H1591 0.930 . S
C1578 O1558 1.254 . S
C1578 O1559 1.268 . S
C1579 O1563 1.284 . S
C1579 O1566 1.250 . S
C1580 Gd1513 2.828 . S
C1580 O1562 1.258 . S
C1580 O1567 1.252 . S
C1580 C1581 1.497 . S
C1581 C1580 1.497 . S
C1581 C1582 1.395 . S
C1581 C1583 1.380 . S
C1582 C1581 1.395 . S
C1582 C1585 1.398 . S
C1582 H1592 0.930 . S
C1583 C1581 1.380 . S
C1583 C1584 1.391 . S
C1583 H1593 0.930 . S
C1584 C1583 1.391 . S
C1584 C1586 1.387 . S
C1585 C1582 1.398 . S
C1585 C1586 1.380 . S
C1585 H1594 0.930 . S
C1586 C1584 1.387 . S
C1586 C1585 1.380 . S
C1586 H1595 0.930 . S
C1587 O1564 1.254 . S
C1587 O1565 1.268 . S
H1588 C1573 0.930 . S
H1589 C1574 0.930 . S
H1590 C1576 0.930 . S
H1591 C1577 0.930 . S
H1592 C1582 0.930 . S
H1593 C1583 0.930 . S
H1594 C1585 0.930 . S
H1595 C1586 0.930 . S
Gd1596 N1627 2.648 1_455 S
Gd1596 N1633 2.601 . S
Gd1596 O1640 2.545 . S
Gd1596 O1641 2.606 . S
Gd1596 O1643 2.429 . S
Gd1596 O1644 2.545 . S
Gd1596 O1645 2.412 1_455 S
Gd1596 O1647 2.362 . S
Gd1596 O1648 2.324 1_554 S
Gd1596 C1655 2.828 1_455 S
Gd1597 N1606 2.661 . S
Gd1597 N1610 2.601 1_554 S
Gd1597 O1641 2.362 . S
Gd1597 O1642 2.324 . S
Gd1597 O1646 2.545 1_554 S
Gd1597 O1647 2.606 . S
Gd1597 O1649 2.429 1_554 S
Gd1597 O1650 2.545 . S
Gd1597 O1651 2.412 . S
Gd1597 C1664 2.828 1_554 S
C1598 C1601 1.417 . S
C1598 C1603 1.431 . S
C1598 C1604 1.412 . S
C1599 C1602 1.437 . S
C1599 C1603 1.317 1_556 S
C1599 H1618 0.929 . S
C1600 C1601 1.426 1_556 S
C1600 C1602 1.413 . S
C1600 N1610 1.359 . S
C1601 C1598 1.417 . S
C1601 C1600 1.426 1_554 S
C1601 N1606 1.350 . S
C1602 C1599 1.437 . S
C1602 C1600 1.413 . S
C1602 C1612 1.391 . S
C1603 C1598 1.431 . S
C1603 C1599 1.317 1_554 S
C1603 H1614 0.930 . S
C1604 C1598 1.412 . S
C1604 C1605 1.355 . S
C1604 H1616 0.930 . S
C1605 C1604 1.355 . S
C1605 C1607 1.402 . S
C1605 H1617 0.930 . S
N1606 Gd1597 2.661 . S
N1606 C1601 1.350 . S
N1606 C1607 1.307 . S
C1607 C1605 1.402 . S
C1607 N1606 1.307 . S
C1607 H1608 0.930 . S
H1608 C1607 0.930 . S
C1609 N1610 1.334 . S
C1609 C1611 1.394 . S
C1609 H1613 0.930 . S
N1610 Gd1597 2.601 1_556 S
N1610 C1600 1.359 . S
N1610 C1609 1.334 . S
C1611 C1609 1.394 . S
C1611 C1612 1.359 . S
C1611 H1623 0.930 . S
C1612 C1602 1.391 . S
C1612 C1611 1.359 . S
C1612 H1624 0.929 . S
H1613 C1609 0.930 . S
H1614 C1603 0.930 . S
H1615 C1632 0.930 1_455 S
H1616 C1604 0.930 . S
H1617 C1605 0.930 . S
H1618 C1599 0.929 . S
H1619 C1637 0.930 . S
H1620 C1628 0.930 . S
H1621 C1629 0.930 . S
H1622 C1653 0.929 . S
H1623 C1611 0.930 . S
H1624 C1612 0.929 . S
H1625 C1654 0.930 . S
H1626 C1635 0.930 . S
N1627 Gd1596 2.648 1_655 S
N1627 C1631 1.361 . S
N1627 C1632 1.309 1_554 S
C1628 H1620 0.930 . S
C1628 C1629 1.355 . S
C1628 C1630 1.412 1_556 S
C1629 H1621 0.930 . S
C1629 C1628 1.355 . S
C1629 C1632 1.402 . S
C1630 C1628 1.412 1_554 S
C1630 C1631 1.417 . S
C1630 C1654 1.431 . S
C1631 N1627 1.361 . S
C1631 C1630 1.417 . S
C1631 C1634 1.426 . S
C1632 H1615 0.930 1_655 S
C1632 N1627 1.309 1_556 S
C1632 C1629 1.402 . S
N1633 Gd1596 2.601 . S
N1633 C1634 1.359 1_455 S
N1633 C1637 1.334 . S
C1634 C1631 1.426 . S
C1634 N1633 1.359 1_655 S
C1634 C1638 1.413 . S
C1635 H1626 0.930 . S
C1635 C1636 1.359 1_455 S
C1635 C1637 1.394 . S
C1636 C1635 1.359 1_655 S
C1636 C1638 1.391 . S
C1636 H1639 0.929 . S
C1637 H1619 0.930 . S
C1637 N1633 1.334 . S
C1637 C1635 1.394 . S
C1638 C1634 1.413 . S
C1638 C1636 1.391 . S
C1638 C1653 1.437 . S
H1639 C1636 0.929 . S
O1640 Gd1596 2.545 . S
O1640 C1655 1.258 1_455 S
O1641 Gd1596 2.606 . S
O1641 Gd1597 2.362 . S
O1641 C1652 1.284 . S
O1642 Gd1597 2.324 . S
O1642 C1662 1.254 . S
O1643 Gd1596 2.429 . S
O1643 C1662 1.268 . S
O1644 Gd1596 2.545 . S
O1644 C1652 1.250 . S
O1645 Gd1596 2.412 1_655 S
O1645 C1655 1.252 . S
O1646 Gd1597 2.545 1_556 S
O1646 C1664 1.258 . S
O1647 Gd1596 2.362 . S
O1647 Gd1597 2.606 . S
O1647 C1663 1.284 . S
O1648 Gd1596 2.324 1_556 S
O1648 C1671 1.254 . S
O1649 Gd1597 2.429 1_556 S
O1649 C1671 1.268 . S
O1650 Gd1597 2.545 . S
O1650 C1663 1.250 . S
O1651 Gd1597 2.412 . S
O1651 C1664 1.252 1_554 S
C1652 O1641 1.284 . S
C1652 O1644 1.250 . S
C1653 H1622 0.929 . S
C1653 C1638 1.437 . S
C1653 C1654 1.317 . S
C1654 H1625 0.930 . S
C1654 C1630 1.431 . S
C1654 C1653 1.317 . S
C1655 Gd1596 2.828 1_655 S
C1655 O1640 1.258 1_655 S
C1655 O1645 1.252 . S
C1655 C1656 1.497 . S
C1656 C1655 1.497 . S
C1656 C1657 1.395 . S
C1656 C1658 1.380 . S
C1657 C1656 1.395 . S
C1657 C1660 1.398 . S
C1657 H1672 0.930 . S
C1658 C1656 1.380 . S
C1658 C1659 1.391 . S
C1658 H1673 0.930 . S
C1659 C1658 1.391 . S
C1659 C1661 1.387 . S
C1660 C1657 1.398 . S
C1660 C1661 1.380 . S
C1660 H1674 0.930 . S
C1661 C1659 1.387 . S
C1661 C1660 1.380 . S
C1661 H1675 0.930 . S
C1662 O1642 1.254 . S
C1662 O1643 1.268 . S
C1663 O1647 1.284 . S
C1663 O1650 1.250 . S
C1664 Gd1597 2.828 1_556 S
C1664 O1646 1.258 . S
C1664 O1651 1.252 1_556 S
C1664 C1665 1.497 . S
C1665 C1664 1.497 . S
C1665 C1666 1.395 . S
C1665 C1667 1.380 1_556 S
C1666 C1665 1.395 . S
C1666 C1669 1.398 . S
C1666 H1676 0.930 . S
C1667 C1665 1.380 1_554 S
C1667 C1668 1.391 1_554 S
C1667 H1677 0.930 . S
C1668 C1667 1.391 1_556 S
C1668 C1670 1.387 . S
C1669 C1666 1.398 . S
C1669 C1670 1.380 . S
C1669 H1678 0.930 . S
C1670 C1668 1.387 . S
C1670 C1669 1.380 . S
C1670 H1679 0.930 . S
C1671 O1648 1.254 . S
C1671 O1649 1.268 . S
H1672 C1657 0.930 . S
H1673 C1658 0.930 . S
H1674 C1660 0.930 . S
H1675 C1661 0.930 . S
H1676 C1666 0.930 . S
H1677 C1667 0.930 . S
H1678 C1669 0.930 . S
H1679 C1670 0.930 . S
H1680 C1688 0.950 . S
H1681 C1693 0.944 1_554 S
H1682 C1690 0.950 . S
H1683 C1692 0.906 1_554 S
H1684 C1694 0.950 . S
H1685 C1696 0.950 . S
H1686 C1698 0.950 . S
H1687 C1699 0.950 . S
C1688 H1680 0.950 . S
C1688 C1689 1.386 . S
C1688 C1690 1.391 . S
C1689 C1688 1.386 . S
C1689 C1693 1.393 . S
C1690 H1682 0.950 . S
C1690 C1688 1.391 . S
C1690 C1691 1.400 . S
C1691 C1690 1.400 . S
C1691 C1692 1.420 . S
C1691 C1697 1.491 . S
C1692 H1683 0.906 1_556 S
C1692 C1691 1.420 . S
C1692 C1693 1.414 . S
C1693 H1681 0.944 1_556 S
C1693 C1689 1.393 . S
C1693 C1692 1.414 . S
C1694 H1684 0.950 . S
C1694 C1695 1.386 . S
C1694 C1696 1.391 . S
C1695 C1694 1.386 . S
C1695 C1699 1.393 1_554 S
C1696 H1685 0.950 . S
C1696 C1694 1.391 . S
C1696 C1697 1.400 1_554 S
C1697 C1691 1.491 . S
C1697 C1696 1.400 1_556 S
C1697 C1698 1.398 . S
C1698 H1686 0.950 . S
C1698 C1697 1.398 . S
C1698 C1699 1.391 . S
C1699 H1687 0.950 . S
C1699 C1695 1.393 1_556 S
C1699 C1698 1.391 . S
H1700 C1708 0.950 . S
H1701 C1713 0.950 . S
H1702 C1710 0.950 . S
H1703 C1712 0.950 . S
H1704 C1714 0.950 . S
H1705 C1716 0.950 . S
H1706 C1718 0.950 . S
H1707 C1719 0.950 . S
C1708 H1700 0.950 . S
C1708 C1709 1.386 . S
C1708 C1710 1.391 . S
C1709 C1708 1.386 . S
C1709 C1713 1.393 . S
C1710 H1702 0.950 . S
C1710 C1708 1.391 . S
C1710 C1711 1.400 . S
C1711 C1710 1.400 . S
C1711 C1712 1.398 . S
C1711 C1717 1.491 . S
C1712 H1703 0.950 . S
C1712 C1711 1.398 . S
C1712 C1713 1.391 . S
C1713 H1701 0.950 . S
C1713 C1709 1.393 . S
C1713 C1712 1.391 . S
C1714 H1704 0.950 . S
C1714 C1715 1.386 . S
C1714 C1716 1.391 . S
C1715 C1714 1.386 . S
C1715 C1719 1.393 . S
C1716 H1705 0.950 . S
C1716 C1714 1.391 . S
C1716 C1717 1.400 . S
C1717 C1711 1.491 . S
C1717 C1716 1.400 . S
C1717 C1718 1.398 . S
C1718 H1706 0.950 . S
C1718 C1717 1.398 . S
C1718 C1719 1.391 . S
C1719 H1707 0.950 . S
C1719 C1715 1.393 . S
C1719 C1718 1.391 . S
H1720 C1728 0.950 . S
H1721 C1733 0.950 . S
H1722 C1730 0.950 . S
H1723 C1732 0.950 . S
H1724 C1734 0.950 . S
H1725 C1736 0.950 . S
H1726 C1738 0.950 . S
H1727 C1739 0.950 . S
C1728 H1720 0.950 . S
C1728 C1729 1.386 . S
C1728 C1730 1.391 . S
C1729 C1728 1.386 . S
C1729 C1733 1.393 . S
C1730 H1722 0.950 . S
C1730 C1728 1.391 . S
C1730 C1731 1.400 . S
C1731 C1730 1.400 . S
C1731 C1732 1.398 . S
C1731 C1737 1.491 . S
C1732 H1723 0.950 . S
C1732 C1731 1.398 . S
C1732 C1733 1.391 . S
C1733 H1721 0.950 . S
C1733 C1729 1.393 . S
C1733 C1732 1.391 . S
C1734 H1724 0.950 . S
C1734 C1735 1.386 . S
C1734 C1736 1.391 . S
C1735 C1734 1.386 . S
C1735 C1739 1.393 . S
C1736 H1725 0.950 . S
C1736 C1734 1.391 . S
C1736 C1737 1.400 . S
C1737 C1731 1.491 . S
C1737 C1736 1.400 . S
C1737 C1738 1.398 . S
C1738 H1726 0.950 . S
C1738 C1737 1.398 . S
C1738 C1739 1.391 . S
C1739 H1727 0.950 . S
C1739 C1735 1.393 . S
C1739 C1738 1.391 . S
H1740 C1748 0.950 . S
H1741 C1753 0.950 . S
H1742 C1750 0.950 . S
H1743 C1752 0.950 . S
H1744 C1754 0.950 . S
H1745 C1756 0.950 . S
H1746 C1758 0.950 . S
H1747 C1759 0.950 . S
C1748 H1740 0.950 . S
C1748 C1749 1.386 . S
C1748 C1750 1.391 . S
C1749 C1748 1.386 . S
C1749 C1753 1.393 . S
C1750 H1742 0.950 . S
C1750 C1748 1.391 . S
C1750 C1751 1.400 . S
C1751 C1750 1.400 . S
C1751 C1752 1.398 . S
C1751 C1757 1.491 . S
C1752 H1743 0.950 . S
C1752 C1751 1.398 . S
C1752 C1753 1.391 . S
C1753 H1741 0.950 . S
C1753 C1749 1.393 . S
C1753 C1752 1.391 . S
C1754 H1744 0.950 . S
C1754 C1755 1.386 . S
C1754 C1756 1.391 . S
C1755 C1754 1.386 . S
C1755 C1759 1.393 . S
C1756 H1745 0.950 . S
C1756 C1754 1.391 . S
C1756 C1757 1.400 . S
C1757 C1751 1.491 . S
C1757 C1756 1.400 . S
C1757 C1758 1.398 . S
C1758 H1746 0.950 . S
C1758 C1757 1.398 . S
C1758 C1759 1.391 . S
C1759 H1747 0.950 . S
C1759 C1755 1.393 . S
C1759 C1758 1.391 . S
H1760 C1768 0.950 . S
H1761 C1773 0.950 . S
H1762 C1770 0.950 1_655 S
H1763 C1772 0.950 . S
H1764 C1774 0.950 . S
H1765 C1776 0.950 . S
H1766 C1778 0.950 . S
H1767 C1779 0.950 . S
C1768 H1760 0.950 . S
C1768 C1769 1.386 1_655 S
C1768 C1770 1.391 1_655 S
C1769 C1768 1.386 1_455 S
C1769 C1773 1.393 . S
C1770 H1762 0.950 1_455 S
C1770 C1768 1.391 1_455 S
C1770 C1771 1.400 . S
C1771 C1770 1.400 . S
C1771 C1772 1.398 . S
C1771 C1777 1.491 . S
C1772 H1763 0.950 . S
C1772 C1771 1.398 . S
C1772 C1773 1.391 . S
C1773 H1761 0.950 . S
C1773 C1769 1.393 . S
C1773 C1772 1.391 . S
C1774 H1764 0.950 . S
C1774 C1775 1.386 . S
C1774 C1776 1.391 . S
C1775 C1774 1.386 . S
C1775 C1779 1.393 . S
C1776 H1765 0.950 . S
C1776 C1774 1.391 . S
C1776 C1777 1.400 . S
C1777 C1771 1.491 . S
C1777 C1776 1.400 . S
C1777 C1778 1.398 . S
C1778 H1766 0.950 . S
C1778 C1777 1.398 . S
C1778 C1779 1.391 . S
C1779 H1767 0.950 . S
C1779 C1775 1.393 . S
C1779 C1778 1.391 . S
H1780 C1788 0.950 . S
H1781 C1793 0.950 . S
H1782 C1790 0.950 . S
H1783 C1792 0.950 . S
H1784 C1794 0.950 . S
H1785 C1796 0.950 . S
H1786 C1798 0.950 . S
H1787 C1799 0.950 . S
C1788 H1780 0.950 . S
C1788 C1789 1.386 . S
C1788 C1790 1.391 . S
C1789 C1788 1.386 . S
C1789 C1793 1.393 . S
C1790 H1782 0.950 . S
C1790 C1788 1.391 . S
C1790 C1791 1.400 . S
C1791 C1790 1.400 . S
C1791 C1792 1.398 . S
C1791 C1797 1.491 . S
C1792 H1783 0.950 . S
C1792 C1791 1.398 . S
C1792 C1793 1.391 . S
C1793 H1781 0.950 . S
C1793 C1789 1.393 . S
C1793 C1792 1.391 . S
C1794 H1784 0.950 . S
C1794 C1795 1.386 . S
C1794 C1796 1.391 . S
C1795 C1794 1.386 . S
C1795 C1799 1.393 . S
C1796 H1785 0.950 . S
C1796 C1794 1.391 . S
C1796 C1797 1.400 . S
C1797 C1791 1.491 . S
C1797 C1796 1.400 . S
C1797 C1798 1.398 . S
C1798 H1786 0.950 . S
C1798 C1797 1.398 . S
C1798 C1799 1.391 . S
C1799 H1787 0.950 . S
C1799 C1795 1.393 . S
C1799 C1798 1.391 . S
H1800 C1808 0.950 . S
H1801 C1813 0.950 . S
H1802 C1810 0.950 . S
H1803 C1812 0.950 . S
H1804 C1814 0.950 . S
H1805 C1816 0.950 . S
H1806 C1818 0.950 . S
H1807 C1819 0.950 . S
C1808 H1800 0.950 . S
C1808 C1809 1.386 . S
C1808 C1810 1.391 . S
C1809 C1808 1.386 . S
C1809 C1813 1.393 . S
C1810 H1802 0.950 . S
C1810 C1808 1.391 . S
C1810 C1811 1.400 . S
C1811 C1810 1.400 . S
C1811 C1812 1.398 . S
C1811 C1817 1.491 . S
C1812 H1803 0.950 . S
C1812 C1811 1.398 . S
C1812 C1813 1.391 . S
C1813 H1801 0.950 . S
C1813 C1809 1.393 . S
C1813 C1812 1.391 . S
C1814 H1804 0.950 . S
C1814 C1815 1.386 . S
C1814 C1816 1.391 . S
C1815 C1814 1.386 . S
C1815 C1819 1.393 . S
C1816 H1805 0.950 . S
C1816 C1814 1.391 . S
C1816 C1817 1.400 . S
C1817 C1811 1.491 . S
C1817 C1816 1.400 . S
C1817 C1818 1.398 . S
C1818 H1806 0.950 . S
C1818 C1817 1.398 . S
C1818 C1819 1.391 . S
C1819 H1807 0.950 . S
C1819 C1815 1.393 . S
C1819 C1818 1.391 . S
H1820 C1828 0.950 . S
H1821 C1833 0.950 . S
H1822 C1830 0.950 . S
H1823 C1832 0.950 . S
H1824 C1834 0.950 . S
H1825 C1836 0.950 . S
H1826 C1838 0.950 . S
H1827 C1839 0.950 . S
C1828 H1820 0.950 . S
C1828 C1829 1.386 . S
C1828 C1830 1.391 . S
C1829 C1828 1.386 . S
C1829 C1833 1.393 . S
C1830 H1822 0.950 . S
C1830 C1828 1.391 . S
C1830 C1831 1.400 . S
C1831 C1830 1.400 . S
C1831 C1832 1.398 . S
C1831 C1837 1.491 . S
C1832 H1823 0.950 . S
C1832 C1831 1.398 . S
C1832 C1833 1.391 . S
C1833 H1821 0.950 . S
C1833 C1829 1.393 . S
C1833 C1832 1.391 . S
C1834 H1824 0.950 . S
C1834 C1835 1.386 . S
C1834 C1836 1.391 . S
C1835 C1834 1.386 . S
C1835 C1839 1.393 . S
C1836 H1825 0.950 . S
C1836 C1834 1.391 . S
C1836 C1837 1.400 . S
C1837 C1831 1.491 . S
C1837 C1836 1.400 . S
C1837 C1838 1.398 . S
C1838 H1826 0.950 . S
C1838 C1837 1.398 . S
C1838 C1839 1.391 . S
C1839 H1827 0.950 . S
C1839 C1835 1.393 . S
C1839 C1838 1.391 . S
H1840 C1848 0.950 . S
H1841 C1853 0.950 . S
H1842 C1850 0.950 . S
H1843 C1852 0.977 . S
H1844 C1854 0.950 . S
H1845 C1856 0.950 . S
H1846 C1858 0.950 . S
H1847 C1859 0.950 . S
C1848 H1840 0.950 . S
C1848 C1849 1.386 . S
C1848 C1850 1.391 . S
C1849 C1848 1.386 . S
C1849 C1853 1.393 . S
C1850 H1842 0.950 . S
C1850 C1848 1.391 . S
C1850 C1851 1.400 . S
C1851 C1850 1.400 . S
C1851 C1852 1.398 . S
C1851 C1857 1.491 1_655 S
C1852 H1843 0.977 . S
C1852 C1851 1.398 . S
C1852 C1853 1.391 . S
C1853 H1841 0.950 . S
C1853 C1849 1.393 . S
C1853 C1852 1.391 . S
C1854 H1844 0.950 . S
C1854 C1855 1.386 . S
C1854 C1856 1.391 . S
C1855 C1854 1.386 . S
C1855 C1859 1.393 . S
C1856 H1845 0.950 . S
C1856 C1854 1.391 . S
C1856 C1857 1.400 . S
C1857 C1851 1.491 1_455 S
C1857 C1856 1.400 . S
C1857 C1858 1.398 . S
C1858 H1846 0.950 . S
C1858 C1857 1.398 . S
C1858 C1859 1.391 . S
C1859 H1847 0.950 . S
C1859 C1855 1.393 . S
C1859 C1858 1.391 . S
H1860 C1868 0.950 . S
H1861 C1873 0.950 . S
H1862 C1870 0.950 . S
H1863 C1872 0.950 . S
H1864 C1874 0.950 . S
H1865 C1876 0.950 . S
H1866 C1878 0.950 . S
H1867 C1879 0.950 . S
C1868 H1860 0.950 . S
C1868 C1869 1.386 . S
C1868 C1870 1.391 . S
C1869 C1868 1.386 . S
C1869 C1873 1.393 . S
C1870 H1862 0.950 . S
C1870 C1868 1.391 . S
C1870 C1871 1.400 . S
C1871 C1870 1.400 . S
C1871 C1872 1.398 . S
C1871 C1877 1.491 . S
C1872 H1863 0.950 . S
C1872 C1871 1.398 . S
C1872 C1873 1.391 . S
C1873 H1861 0.950 . S
C1873 C1869 1.393 . S
C1873 C1872 1.391 . S
C1874 H1864 0.950 . S
C1874 C1875 1.386 . S
C1874 C1876 1.391 . S
C1875 C1874 1.386 . S
C1875 C1879 1.393 . S
C1876 H1865 0.950 . S
C1876 C1874 1.391 . S
C1876 C1877 1.400 . S
C1877 C1871 1.491 . S
C1877 C1876 1.400 . S
C1877 C1878 1.398 . S
C1878 H1866 0.950 . S
C1878 C1877 1.398 . S
C1878 C1879 1.391 . S
C1879 H1867 0.950 . S
C1879 C1875 1.393 . S
C1879 C1878 1.391 . S
H1880 C1888 0.950 . S
H1881 C1893 0.950 . S
H1882 C1890 0.950 . S
H1883 C1892 0.950 . S
H1884 C1894 0.950 . S
H1885 C1896 0.950 . S
H1886 C1898 0.950 . S
H1887 C1899 0.950 . S
C1888 H1880 0.950 . S
C1888 C1889 1.386 . S
C1888 C1890 1.391 . S
C1889 C1888 1.386 . S
C1889 C1893 1.393 . S
C1890 H1882 0.950 . S
C1890 C1888 1.391 . S
C1890 C1891 1.400 . S
C1891 C1890 1.400 . S
C1891 C1892 1.398 . S
C1891 C1897 1.491 . S
C1892 H1883 0.950 . S
C1892 C1891 1.398 . S
C1892 C1893 1.391 . S
C1893 H1881 0.950 . S
C1893 C1889 1.393 . S
C1893 C1892 1.391 . S
C1894 H1884 0.950 . S
C1894 C1895 1.386 . S
C1894 C1896 1.391 . S
C1895 C1894 1.386 . S
C1895 C1899 1.393 . S
C1896 H1885 0.950 . S
C1896 C1894 1.391 . S
C1896 C1897 1.400 . S
C1897 C1891 1.491 . S
C1897 C1896 1.400 . S
C1897 C1898 1.398 . S
C1898 H1886 0.950 . S
C1898 C1897 1.398 . S
C1898 C1899 1.391 . S
C1899 H1887 0.950 . S
C1899 C1895 1.393 . S
C1899 C1898 1.391 . S
H1900 C1908 0.950 . S
H1901 C1913 0.950 . S
H1902 C1910 0.950 . S
H1903 C1912 0.950 . S
H1904 C1914 0.950 . S
H1905 C1916 0.950 . S
H1906 C1918 0.950 . S
H1907 C1919 0.950 . S
C1908 H1900 0.950 . S
C1908 C1909 1.386 . S
C1908 C1910 1.391 . S
C1909 C1908 1.386 . S
C1909 C1913 1.393 . S
C1910 H1902 0.950 . S
C1910 C1908 1.391 . S
C1910 C1911 1.400 . S
C1911 C1910 1.400 . S
C1911 C1912 1.398 . S
C1911 C1917 1.491 . S
C1912 H1903 0.950 . S
C1912 C1911 1.398 . S
C1912 C1913 1.391 . S
C1913 H1901 0.950 . S
C1913 C1909 1.393 . S
C1913 C1912 1.391 . S
C1914 H1904 0.950 . S
C1914 C1915 1.386 . S
C1914 C1916 1.391 . S
C1915 C1914 1.386 . S
C1915 C1919 1.393 . S
C1916 H1905 0.950 . S
C1916 C1914 1.391 . S
C1916 C1917 1.400 . S
C1917 C1911 1.491 . S
C1917 C1916 1.400 . S
C1917 C1918 1.398 . S
C1918 H1906 0.950 . S
C1918 C1917 1.398 . S
C1918 C1919 1.391 . S
C1919 H1907 0.950 . S
C1919 C1915 1.393 . S
C1919 C1918 1.391 . S
H1920 C1928 0.950 . S
H1921 C1933 0.950 . S
H1922 C1930 0.949 1_455 S
H1923 C1932 0.950 . S
H1924 C1934 0.950 . S
H1925 C1936 0.950 . S
H1926 C1938 0.950 . S
H1927 C1939 0.950 . S
C1928 H1920 0.950 . S
C1928 C1929 1.386 . S
C1928 C1930 1.391 . S
C1929 C1928 1.386 . S
C1929 C1933 1.393 . S
C1930 H1922 0.949 1_655 S
C1930 C1928 1.391 . S
C1930 C1931 1.400 1_655 S
C1931 C1930 1.400 1_455 S
C1931 C1932 1.398 1_455 S
C1931 C1937 1.491 . S
C1932 H1923 0.950 . S
C1932 C1931 1.398 1_655 S
C1932 C1933 1.391 . S
C1933 H1921 0.950 . S
C1933 C1929 1.393 . S
C1933 C1932 1.391 . S
C1934 H1924 0.950 . S
C1934 C1935 1.386 . S
C1934 C1936 1.391 . S
C1935 C1934 1.386 . S
C1935 C1939 1.393 . S
C1936 H1925 0.950 . S
C1936 C1934 1.391 . S
C1936 C1937 1.400 . S
C1937 C1931 1.491 . S
C1937 C1936 1.400 . S
C1937 C1938 1.398 . S
C1938 H1926 0.950 . S
C1938 C1937 1.398 . S
C1938 C1939 1.391 . S
C1939 H1927 0.950 . S
C1939 C1935 1.393 . S
C1939 C1938 1.391 . S
H1940 C1948 0.950 . S
H1941 C1953 0.950 . S
H1942 C1950 0.950 . S
H1943 C1952 0.950 . S
H1944 C1954 0.950 . S
H1945 C1956 0.950 . S
H1946 C1958 0.950 . S
H1947 C1959 0.950 . S
C1948 H1940 0.950 . S
C1948 C1949 1.386 . S
C1948 C1950 1.391 . S
C1949 C1948 1.386 . S
C1949 C1953 1.393 . S
C1950 H1942 0.950 . S
C1950 C1948 1.391 . S
C1950 C1951 1.400 . S
C1951 C1950 1.400 . S
C1951 C1952 1.398 . S
C1951 C1957 1.491 . S
C1952 H1943 0.950 . S
C1952 C1951 1.398 . S
C1952 C1953 1.391 . S
C1953 H1941 0.950 . S
C1953 C1949 1.393 . S
C1953 C1952 1.391 . S
C1954 H1944 0.950 . S
C1954 C1955 1.386 . S
C1954 C1956 1.391 . S
C1955 C1954 1.386 . S
C1955 C1959 1.393 . S
C1956 H1945 0.950 . S
C1956 C1954 1.391 . S
C1956 C1957 1.400 . S
C1957 C1951 1.491 . S
C1957 C1956 1.400 . S
C1957 C1958 1.398 . S
C1958 H1946 0.950 . S
C1958 C1957 1.398 . S
C1958 C1959 1.391 . S
C1959 H1947 0.950 . S
C1959 C1955 1.393 . S
C1959 C1958 1.391 . S
H1960 C1968 0.950 . S
H1961 C1973 0.950 . S
H1962 C1970 0.950 . S
H1963 C1972 0.950 . S
H1964 C1974 0.950 . S
H1965 C1976 0.950 . S
H1966 C1978 0.950 . S
H1967 C1979 0.950 . S
C1968 H1960 0.950 . S
C1968 C1969 1.386 . S
C1968 C1970 1.391 . S
C1969 C1968 1.386 . S
C1969 C1973 1.393 . S
C1970 H1962 0.950 . S
C1970 C1968 1.391 . S
C1970 C1971 1.400 . S
C1971 C1970 1.400 . S
C1971 C1972 1.398 . S
C1971 C1977 1.491 . S
C1972 H1963 0.950 . S
C1972 C1971 1.398 . S
C1972 C1973 1.391 . S
C1973 H1961 0.950 . S
C1973 C1969 1.393 . S
C1973 C1972 1.391 . S
C1974 H1964 0.950 . S
C1974 C1975 1.386 . S
C1974 C1976 1.391 . S
C1975 C1974 1.386 . S
C1975 C1979 1.393 . S
C1976 H1965 0.950 . S
C1976 C1974 1.391 . S
C1976 C1977 1.400 . S
C1977 C1971 1.491 . S
C1977 C1976 1.400 . S
C1977 C1978 1.398 . S
C1978 H1966 0.950 . S
C1978 C1977 1.398 . S
C1978 C1979 1.391 . S
C1979 H1967 0.950 . S
C1979 C1975 1.393 . S
C1979 C1978 1.391 . S
H1980 C1988 0.950 . S
H1981 C1993 0.950 . S
H1982 C1990 0.950 . S
H1983 C1992 0.950 . S
H1984 C1994 0.950 . S
H1985 C1996 0.950 . S
H1986 C1998 0.950 . S
H1987 C1999 0.950 . S
C1988 H1980 0.950 . S
C1988 C1989 1.386 . S
C1988 C1990 1.391 . S
C1989 C1988 1.386 . S
C1989 C1993 1.393 . S
C1990 H1982 0.950 . S
C1990 C1988 1.391 . S
C1990 C1991 1.400 . S
C1991 C1990 1.400 . S
C1991 C1992 1.398 . S
C1991 C1997 1.491 . S
C1992 H1983 0.950 . S
C1992 C1991 1.398 . S
C1992 C1993 1.391 . S
C1993 H1981 0.950 . S
C1993 C1989 1.393 . S
C1993 C1992 1.391 . S
C1994 H1984 0.950 . S
C1994 C1995 1.386 . S
C1994 C1996 1.391 . S
C1995 C1994 1.386 . S
C1995 C1999 1.393 . S
C1996 H1985 0.950 . S
C1996 C1994 1.391 . S
C1996 C1997 1.400 . S
C1997 C1991 1.491 . S
C1997 C1996 1.400 . S
C1997 C1998 1.398 . S
C1998 H1986 0.950 . S
C1998 C1997 1.398 . S
C1998 C1999 1.391 . S
C1999 H1987 0.950 . S
C1999 C1995 1.393 . S
C1999 C1998 1.391 . S
H2000 C2008 0.950 1_556 S
H2001 C2013 0.950 . S
H2002 C2010 0.947 1_556 S
H2003 C2012 0.950 . S
H2004 C2014 0.950 . S
H2005 C2016 0.950 . S
H2006 C2018 0.950 . S
H2007 C2019 0.950 . S
C2008 H2000 0.950 1_554 S
C2008 C2009 1.386 . S
C2008 C2010 1.391 . S
C2009 C2008 1.386 . S
C2009 C2013 1.393 . S
C2010 H2002 0.947 1_554 S
C2010 C2008 1.391 . S
C2010 C2011 1.400 . S
C2011 C2010 1.400 . S
C2011 C2012 1.398 . S
C2011 C2017 1.491 . S
C2012 H2003 0.950 . S
C2012 C2011 1.398 . S
C2012 C2013 1.391 . S
C2013 H2001 0.950 . S
C2013 C2009 1.393 . S
C2013 C2012 1.391 . S
C2014 H2004 0.950 . S
C2014 C2015 1.386 1_565 S
C2014 C2016 1.391 . S
C2015 C2014 1.386 1_545 S
C2015 C2019 1.393 . S
C2016 H2005 0.950 . S
C2016 C2014 1.391 . S
C2016 C2017 1.400 . S
C2017 C2011 1.491 . S
C2017 C2016 1.400 . S
C2017 C2018 1.398 1_565 S
C2018 H2006 0.950 . S
C2018 C2017 1.398 1_545 S
C2018 C2019 1.391 . S
C2019 H2007 0.950 . S
C2019 C2015 1.393 . S
C2019 C2018 1.391 . S
H2020 C2028 0.950 . S
H2021 C2033 0.950 . S
H2022 C2030 0.950 . S
H2023 C2032 0.950 . S
H2024 C2034 0.950 . S
H2025 C2036 0.950 . S
H2026 C2038 0.950 . S
H2027 C2039 0.950 . S
C2028 H2020 0.950 . S
C2028 C2029 1.386 . S
C2028 C2030 1.391 . S
C2029 C2028 1.386 . S
C2029 C2033 1.393 1_556 S
C2030 H2022 0.950 . S
C2030 C2028 1.391 . S
C2030 C2031 1.400 . S
C2031 C2030 1.400 . S
C2031 C2032 1.398 1_556 S
C2031 C2037 1.491 . S
C2032 H2023 0.950 . S
C2032 C2031 1.398 1_554 S
C2032 C2033 1.391 . S
C2033 H2021 0.950 . S
C2033 C2029 1.393 1_554 S
C2033 C2032 1.391 . S
C2034 H2024 0.950 . S
C2034 C2035 1.382 1_554 S
C2034 C2036 1.391 . S
C2035 C2034 1.382 1_556 S
C2035 C2039 1.398 . S
C2036 H2025 0.950 . S
C2036 C2034 1.391 . S
C2036 C2037 1.400 1_554 S
C2037 C2031 1.491 . S
C2037 C2036 1.400 1_556 S
C2037 C2038 1.398 . S
C2038 H2026 0.950 . S
C2038 C2037 1.398 . S
C2038 C2039 1.391 . S
C2039 H2027 0.950 . S
C2039 C2035 1.398 . S
C2039 C2038 1.391 . S
H2040 C2048 0.950 . S
H2041 C2053 0.950 . S
H2042 C2050 0.950 . S
H2043 C2052 0.950 . S
H2044 C2054 0.950 . S
H2045 C2056 0.950 . S
H2046 C2058 0.950 . S
H2047 C2059 0.950 . S
C2048 H2040 0.950 . S
C2048 C2049 1.386 . S
C2048 C2050 1.391 . S
C2049 C2048 1.386 . S
C2049 C2053 1.393 . S
C2050 H2042 0.950 . S
C2050 C2048 1.391 . S
C2050 C2051 1.400 . S
C2051 C2050 1.400 . S
C2051 C2052 1.398 . S
C2051 C2057 1.491 . S
C2052 H2043 0.950 . S
C2052 C2051 1.398 . S
C2052 C2053 1.391 . S
C2053 H2041 0.950 . S
C2053 C2049 1.393 . S
C2053 C2052 1.391 . S
C2054 H2044 0.950 . S
C2054 C2055 1.386 . S
C2054 C2056 1.391 . S
C2055 C2054 1.386 . S
C2055 C2059 1.393 . S
C2056 H2045 0.950 . S
C2056 C2054 1.391 . S
C2056 C2057 1.400 . S
C2057 C2051 1.491 . S
C2057 C2056 1.400 . S
C2057 C2058 1.398 . S
C2058 H2046 0.950 . S
C2058 C2057 1.398 . S
C2058 C2059 1.391 . S
C2059 H2047 0.950 . S
C2059 C2055 1.393 . S
C2059 C2058 1.391 . S
H2060 C2068 0.950 . S
H2061 C2073 0.950 . S
H2062 C2070 0.950 . S
H2063 C2072 0.950 . S
H2064 C2074 0.950 . S
H2065 C2076 0.950 . S
H2066 C2078 0.950 . S
H2067 C2079 0.918 1_455 S
C2068 H2060 0.950 . S
C2068 C2069 1.386 . S
C2068 C2070 1.391 . S
C2069 C2068 1.386 . S
C2069 C2073 1.393 . S
C2070 H2062 0.950 . S
C2070 C2068 1.391 . S
C2070 C2071 1.400 . S
C2071 C2070 1.400 . S
C2071 C2072 1.398 . S
C2071 C2077 1.491 . S
C2072 H2063 0.950 . S
C2072 C2071 1.398 . S
C2072 C2073 1.391 . S
C2073 H2061 0.950 . S
C2073 C2069 1.393 . S
C2073 C2072 1.391 . S
C2074 H2064 0.950 . S
C2074 C2075 1.386 1_655 S
C2074 C2076 1.391 . S
C2075 C2074 1.386 1_455 S
C2075 C2079 1.382 1_455 S
C2076 H2065 0.950 . S
C2076 C2074 1.391 . S
C2076 C2077 1.400 . S
C2077 C2071 1.491 . S
C2077 C2076 1.400 . S
C2077 C2078 1.398 . S
C2078 H2066 0.950 . S
C2078 C2077 1.398 . S
C2078 C2079 1.435 . S
C2079 H2067 0.918 1_655 S
C2079 C2075 1.382 1_655 S
C2079 C2078 1.435 . S
H2080 C2088 0.950 . S
H2081 C2093 0.950 . S
H2082 C2090 0.950 . S
H2083 C2092 0.950 . S
H2084 C2094 0.950 . S
H2085 C2096 0.950 . S
H2086 C2098 0.950 . S
H2087 C2099 0.950 . S
C2088 H2080 0.950 . S
C2088 C2089 1.386 . S
C2088 C2090 1.391 . S
C2089 C2088 1.386 . S
C2089 C2093 1.393 . S
C2090 H2082 0.950 . S
C2090 C2088 1.391 . S
C2090 C2091 1.400 . S
C2091 C2090 1.400 . S
C2091 C2092 1.398 . S
C2091 C2097 1.491 . S
C2092 H2083 0.950 . S
C2092 C2091 1.398 . S
C2092 C2093 1.391 . S
C2093 H2081 0.950 . S
C2093 C2089 1.393 . S
C2093 C2092 1.391 . S
C2094 H2084 0.950 . S
C2094 C2095 1.386 . S
C2094 C2096 1.391 . S
C2095 C2094 1.386 . S
C2095 C2099 1.393 . S
C2096 H2085 0.950 . S
C2096 C2094 1.391 . S
C2096 C2097 1.400 . S
C2097 C2091 1.491 . S
C2097 C2096 1.400 . S
C2097 C2098 1.398 . S
C2098 H2086 0.950 . S
C2098 C2097 1.398 . S
C2098 C2099 1.391 . S
C2099 H2087 0.950 . S
C2099 C2095 1.393 . S
C2099 C2098 1.391 . S
H2100 C2108 0.950 . S
H2101 C2113 0.950 . S
H2102 C2110 0.950 . S
H2103 C2112 0.950 . S
H2104 C2114 0.950 . S
H2105 C2116 0.950 . S
H2106 C2118 0.950 . S
H2107 C2119 0.950 . S
C2108 H2100 0.950 . S
C2108 C2109 1.386 . S
C2108 C2110 1.391 . S
C2109 C2108 1.386 . S
C2109 C2113 1.393 . S
C2110 H2102 0.950 . S
C2110 C2108 1.391 . S
C2110 C2111 1.400 . S
C2111 C2110 1.400 . S
C2111 C2112 1.398 . S
C2111 C2117 1.491 . S
C2112 H2103 0.950 . S
C2112 C2111 1.398 . S
C2112 C2113 1.391 . S
C2113 H2101 0.950 . S
C2113 C2109 1.393 . S
C2113 C2112 1.391 . S
C2114 H2104 0.950 . S
C2114 C2115 1.386 . S
C2114 C2116 1.391 . S
C2115 C2114 1.386 . S
C2115 C2119 1.393 . S
C2116 H2105 0.950 . S
C2116 C2114 1.391 . S
C2116 C2117 1.400 . S
C2117 C2111 1.491 . S
C2117 C2116 1.400 . S
C2117 C2118 1.398 . S
C2118 H2106 0.950 . S
C2118 C2117 1.398 . S
C2118 C2119 1.391 . S
C2119 H2107 0.950 . S
C2119 C2115 1.393 . S
C2119 C2118 1.391 . S
H2120 C2128 0.950 . S
H2121 C2133 0.950 . S
H2122 C2130 0.950 . S
H2123 C2132 0.950 . S
H2124 C2134 0.950 . S
H2125 C2136 0.950 . S
H2126 C2138 0.950 . S
H2127 C2139 0.950 . S
C2128 H2120 0.950 . S
C2128 C2129 1.386 . S
C2128 C2130 1.391 . S
C2129 C2128 1.386 . S
C2129 C2133 1.393 . S
C2130 H2122 0.950 . S
C2130 C2128 1.391 . S
C2130 C2131 1.400 . S
C2131 C2130 1.400 . S
C2131 C2132 1.398 . S
C2131 C2137 1.491 . S
C2132 H2123 0.950 . S
C2132 C2131 1.398 . S
C2132 C2133 1.391 . S
C2133 H2121 0.950 . S
C2133 C2129 1.393 . S
C2133 C2132 1.391 . S
C2134 H2124 0.950 . S
C2134 C2135 1.386 . S
C2134 C2136 1.391 . S
C2135 C2134 1.386 . S
C2135 C2139 1.393 . S
C2136 H2125 0.950 . S
C2136 C2134 1.391 . S
C2136 C2137 1.400 . S
C2137 C2131 1.491 . S
C2137 C2136 1.400 . S
C2137 C2138 1.398 . S
C2138 H2126 0.950 . S
C2138 C2137 1.398 . S
C2138 C2139 1.391 . S
C2139 H2127 0.950 . S
C2139 C2135 1.393 . S
C2139 C2138 1.391 . S
H2140 C2148 0.950 . S
H2141 C2153 0.950 . S
H2142 C2150 0.950 . S
H2143 C2152 0.950 . S
H2144 C2154 0.950 . S
H2145 C2156 0.950 . S
H2146 C2158 0.950 . S
H2147 C2159 0.950 . S
C2148 H2140 0.950 . S
C2148 C2149 1.386 . S
C2148 C2150 1.391 . S
C2149 C2148 1.386 . S
C2149 C2153 1.393 . S
C2150 H2142 0.950 . S
C2150 C2148 1.391 . S
C2150 C2151 1.400 . S
C2151 C2150 1.400 . S
C2151 C2152 1.398 . S
C2151 C2157 1.491 . S
C2152 H2143 0.950 . S
C2152 C2151 1.398 . S
C2152 C2153 1.391 . S
C2153 H2141 0.950 . S
C2153 C2149 1.393 . S
C2153 C2152 1.391 . S
C2154 H2144 0.950 . S
C2154 C2155 1.386 . S
C2154 C2156 1.391 . S
C2155 C2154 1.386 . S
C2155 C2159 1.393 . S
C2156 H2145 0.950 . S
C2156 C2154 1.391 . S
C2156 C2157 1.400 . S
C2157 C2151 1.491 . S
C2157 C2156 1.400 . S
C2157 C2158 1.398 . S
C2158 H2146 0.950 . S
C2158 C2157 1.398 . S
C2158 C2159 1.391 . S
C2159 H2147 0.950 . S
C2159 C2155 1.393 . S
C2159 C2158 1.391 . S
H2160 C2168 0.950 . S
H2161 C2173 0.950 . S
H2162 C2170 0.950 . S
H2163 C2172 0.950 . S
H2164 C2174 0.950 . S
H2165 C2176 0.950 . S
H2166 C2178 0.950 . S
H2167 C2179 0.950 . S
C2168 H2160 0.950 . S
C2168 C2169 1.386 . S
C2168 C2170 1.391 . S
C2169 C2168 1.386 . S
C2169 C2173 1.393 . S
C2170 H2162 0.950 . S
C2170 C2168 1.391 . S
C2170 C2171 1.400 . S
C2171 C2170 1.400 . S
C2171 C2172 1.398 . S
C2171 C2177 1.491 . S
C2172 H2163 0.950 . S
C2172 C2171 1.398 . S
C2172 C2173 1.391 . S
C2173 H2161 0.950 . S
C2173 C2169 1.393 . S
C2173 C2172 1.391 . S
C2174 H2164 0.950 . S
C2174 C2175 1.386 . S
C2174 C2176 1.391 . S
C2175 C2174 1.386 . S
C2175 C2179 1.393 . S
C2176 H2165 0.950 . S
C2176 C2174 1.391 . S
C2176 C2177 1.400 . S
C2177 C2171 1.491 . S
C2177 C2176 1.400 . S
C2177 C2178 1.398 . S
C2178 H2166 0.950 . S
C2178 C2177 1.398 . S
C2178 C2179 1.391 . S
C2179 H2167 0.950 . S
C2179 C2175 1.393 . S
C2179 C2178 1.391 . S
H2180 C2188 0.950 . S
H2181 C2193 0.950 . S
H2182 C2190 0.950 . S
H2183 C2192 0.950 . S
H2184 C2194 0.950 . S
H2185 C2196 0.950 . S
H2186 C2198 0.950 . S
H2187 C2199 0.950 . S
C2188 H2180 0.950 . S
C2188 C2189 1.386 . S
C2188 C2190 1.391 . S
C2189 C2188 1.386 . S
C2189 C2193 1.393 . S
C2190 H2182 0.950 . S
C2190 C2188 1.391 . S
C2190 C2191 1.400 . S
C2191 C2190 1.400 . S
C2191 C2192 1.398 . S
C2191 C2197 1.491 . S
C2192 H2183 0.950 . S
C2192 C2191 1.398 . S
C2192 C2193 1.391 . S
C2193 H2181 0.950 . S
C2193 C2189 1.393 . S
C2193 C2192 1.391 . S
C2194 H2184 0.950 . S
C2194 C2195 1.386 . S
C2194 C2196 1.391 . S
C2195 C2194 1.386 . S
C2195 C2199 1.393 . S
C2196 H2185 0.950 . S
C2196 C2194 1.391 . S
C2196 C2197 1.400 . S
C2197 C2191 1.491 . S
C2197 C2196 1.400 . S
C2197 C2198 1.398 . S
C2198 H2186 0.950 . S
C2198 C2197 1.398 . S
C2198 C2199 1.391 . S
C2199 H2187 0.950 . S
C2199 C2195 1.393 . S
C2199 C2198 1.391 . S
H2200 C2208 0.950 . S
H2201 C2213 0.950 . S
H2202 C2210 0.950 . S
H2203 C2212 0.950 . S
H2204 C2214 0.950 . S
H2205 C2216 0.950 . S
H2206 C2218 0.950 . S
H2207 C2219 0.950 . S
C2208 H2200 0.950 . S
C2208 C2209 1.386 . S
C2208 C2210 1.391 . S
C2209 C2208 1.386 . S
C2209 C2213 1.393 . S
C2210 H2202 0.950 . S
C2210 C2208 1.391 . S
C2210 C2211 1.400 . S
C2211 C2210 1.400 . S
C2211 C2212 1.398 . S
C2211 C2217 1.491 . S
C2212 H2203 0.950 . S
C2212 C2211 1.398 . S
C2212 C2213 1.391 . S
C2213 H2201 0.950 . S
C2213 C2209 1.393 . S
C2213 C2212 1.391 . S
C2214 H2204 0.950 . S
C2214 C2215 1.386 . S
C2214 C2216 1.391 . S
C2215 C2214 1.386 . S
C2215 C2219 1.393 . S
C2216 H2205 0.950 . S
C2216 C2214 1.391 . S
C2216 C2217 1.400 . S
C2217 C2211 1.491 . S
C2217 C2216 1.400 . S
C2217 C2218 1.398 . S
C2218 H2206 0.950 . S
C2218 C2217 1.398 . S
C2218 C2219 1.391 . S
C2219 H2207 0.950 . S
C2219 C2215 1.393 . S
C2219 C2218 1.391 . S
H2220 C2228 0.950 . S
H2221 C2233 0.950 . S
H2222 C2230 0.950 . S
H2223 C2232 0.950 . S
H2224 C2234 0.950 . S
H2225 C2236 0.950 . S
H2226 C2238 0.950 . S
H2227 C2239 0.950 . S
C2228 H2220 0.950 . S
C2228 C2229 1.386 . S
C2228 C2230 1.391 . S
C2229 C2228 1.386 . S
C2229 C2233 1.393 . S
C2230 H2222 0.950 . S
C2230 C2228 1.391 . S
C2230 C2231 1.400 . S
C2231 C2230 1.400 . S
C2231 C2232 1.398 . S
C2231 C2237 1.491 . S
C2232 H2223 0.950 . S
C2232 C2231 1.398 . S
C2232 C2233 1.391 . S
C2233 H2221 0.950 . S
C2233 C2229 1.393 . S
C2233 C2232 1.391 . S
C2234 H2224 0.950 . S
C2234 C2235 1.386 . S
C2234 C2236 1.391 . S
C2235 C2234 1.386 . S
C2235 C2239 1.393 . S
C2236 H2225 0.950 . S
C2236 C2234 1.391 . S
C2236 C2237 1.400 . S
C2237 C2231 1.491 . S
C2237 C2236 1.400 . S
C2237 C2238 1.398 . S
C2238 H2226 0.950 . S
C2238 C2237 1.398 . S
C2238 C2239 1.391 . S
C2239 H2227 0.950 . S
C2239 C2235 1.393 . S
C2239 C2238 1.391 . S
H2240 C2248 0.950 . S
H2241 C2253 0.950 . S
H2242 C2250 0.950 . S
H2243 C2252 0.950 . S
H2244 C2254 0.950 . S
H2245 C2256 0.950 . S
H2246 C2258 0.950 . S
H2247 C2259 0.950 . S
C2248 H2240 0.950 . S
C2248 C2249 1.386 . S
C2248 C2250 1.391 . S
C2249 C2248 1.386 . S
C2249 C2253 1.393 . S
C2250 H2242 0.950 . S
C2250 C2248 1.391 . S
C2250 C2251 1.400 . S
C2251 C2250 1.400 . S
C2251 C2252 1.398 . S
C2251 C2257 1.491 . S
C2252 H2243 0.950 . S
C2252 C2251 1.398 . S
C2252 C2253 1.391 . S
C2253 H2241 0.950 . S
C2253 C2249 1.393 . S
C2253 C2252 1.391 . S
C2254 H2244 0.950 . S
C2254 C2255 1.386 . S
C2254 C2256 1.391 . S
C2255 C2254 1.386 . S
C2255 C2259 1.393 . S
C2256 H2245 0.950 . S
C2256 C2254 1.391 . S
C2256 C2257 1.400 . S
C2257 C2251 1.491 . S
C2257 C2256 1.400 . S
C2257 C2258 1.398 . S
C2258 H2246 0.950 . S
C2258 C2257 1.398 . S
C2258 C2259 1.391 . S
C2259 H2247 0.950 . S
C2259 C2255 1.393 . S
C2259 C2258 1.391 . S
H2260 C2268 0.950 . S
H2261 C2273 0.950 . S
H2262 C2270 0.950 . S
H2263 C2272 0.950 . S
H2264 C2274 0.950 . S
H2265 C2276 0.950 . S
H2266 C2278 0.950 . S
H2267 C2279 0.950 . S
C2268 H2260 0.950 . S
C2268 C2269 1.386 . S
C2268 C2270 1.391 . S
C2269 C2268 1.386 . S
C2269 C2273 1.393 . S
C2270 H2262 0.950 . S
C2270 C2268 1.391 . S
C2270 C2271 1.400 . S
C2271 C2270 1.400 . S
C2271 C2272 1.398 . S
C2271 C2277 1.491 . S
C2272 H2263 0.950 . S
C2272 C2271 1.398 . S
C2272 C2273 1.391 . S
C2273 H2261 0.950 . S
C2273 C2269 1.393 . S
C2273 C2272 1.391 . S
C2274 H2264 0.950 . S
C2274 C2275 1.386 . S
C2274 C2276 1.391 . S
C2275 C2274 1.386 . S
C2275 C2279 1.393 . S
C2276 H2265 0.950 . S
C2276 C2274 1.391 . S
C2276 C2277 1.400 . S
C2277 C2271 1.491 . S
C2277 C2276 1.400 . S
C2277 C2278 1.398 . S
C2278 H2266 0.950 . S
C2278 C2277 1.398 . S
C2278 C2279 1.391 . S
C2279 H2267 0.950 . S
C2279 C2275 1.393 . S
C2279 C2278 1.391 . S
H2280 C2288 0.950 . S
H2281 C2293 0.950 . S
H2282 C2290 0.950 . S
H2283 C2292 0.950 . S
H2284 C2294 0.950 . S
H2285 C2296 0.950 . S
H2286 C2298 0.950 . S
H2287 C2299 0.950 1_545 S
C2288 H2280 0.950 . S
C2288 C2289 1.386 . S
C2288 C2290 1.391 . S
C2289 C2288 1.386 . S
C2289 C2293 1.393 . S
C2290 H2282 0.950 . S
C2290 C2288 1.391 . S
C2290 C2291 1.400 . S
C2291 C2290 1.400 . S
C2291 C2292 1.398 . S
C2291 C2297 1.491 . S
C2292 H2283 0.950 . S
C2292 C2291 1.398 . S
C2292 C2293 1.391 . S
C2293 H2281 0.950 . S
C2293 C2289 1.393 . S
C2293 C2292 1.391 . S
C2294 H2284 0.950 . S
C2294 C2295 1.386 . S
C2294 C2296 1.391 . S
C2295 C2294 1.386 . S
C2295 C2299 1.393 . S
C2296 H2285 0.950 . S
C2296 C2294 1.391 . S
C2296 C2297 1.400 . S
C2297 C2291 1.491 . S
C2297 C2296 1.400 . S
C2297 C2298 1.398 . S
C2298 H2286 0.950 . S
C2298 C2297 1.398 . S
C2298 C2299 1.391 . S
C2299 H2287 0.950 1_565 S
C2299 C2295 1.393 . S
C2299 C2298 1.391 . S
H2300 C2308 0.950 . S
H2301 C2313 0.950 . S
H2302 C2310 0.950 . S
H2303 C2312 0.950 . S
H2304 C2314 0.950 . S
H2305 C2316 0.950 . S
H2306 C2318 0.950 . S
H2307 C2319 0.950 . S
C2308 H2300 0.950 . S
C2308 C2309 1.386 . S
C2308 C2310 1.391 . S
C2309 C2308 1.386 . S
C2309 C2313 1.393 . S
C2310 H2302 0.950 . S
C2310 C2308 1.391 . S
C2310 C2311 1.400 . S
C2311 C2310 1.400 . S
C2311 C2312 1.398 . S
C2311 C2317 1.491 . S
C2312 H2303 0.950 . S
C2312 C2311 1.398 . S
C2312 C2313 1.391 . S
C2313 H2301 0.950 . S
C2313 C2309 1.393 . S
C2313 C2312 1.391 . S
C2314 H2304 0.950 . S
C2314 C2315 1.386 . S
C2314 C2316 1.391 . S
C2315 C2314 1.386 . S
C2315 C2319 1.393 . S
C2316 H2305 0.950 . S
C2316 C2314 1.391 . S
C2316 C2317 1.400 . S
C2317 C2311 1.491 . S
C2317 C2316 1.400 . S
C2317 C2318 1.398 . S
C2318 H2306 0.950 . S
C2318 C2317 1.398 . S
C2318 C2319 1.391 . S
C2319 H2307 0.950 . S
C2319 C2315 1.393 . S
C2319 C2318 1.391 . S
H2320 C2328 0.950 . S
H2321 C2333 0.950 . S
H2322 C2330 0.950 . S
H2323 C2332 0.950 . S
H2324 C2334 0.950 . S
H2325 C2336 0.950 . S
H2326 C2338 0.950 . S
H2327 C2339 0.950 . S
C2328 H2320 0.950 . S
C2328 C2329 1.386 . S
C2328 C2330 1.391 . S
C2329 C2328 1.386 . S
C2329 C2333 1.393 1_545 S
C2330 H2322 0.950 . S
C2330 C2328 1.391 . S
C2330 C2331 1.400 . S
C2331 C2330 1.400 . S
C2331 C2332 1.398 1_545 S
C2331 C2337 1.491 . S
C2332 H2323 0.950 . S
C2332 C2331 1.398 1_565 S
C2332 C2333 1.391 . S
C2333 H2321 0.950 . S
C2333 C2329 1.393 1_565 S
C2333 C2332 1.391 . S
C2334 H2324 0.950 . S
C2334 C2335 1.386 1_565 S
C2334 C2336 1.391 . S
C2335 C2334 1.386 1_545 S
C2335 C2339 1.393 . S
C2336 H2325 0.950 . S
C2336 C2334 1.391 . S
C2336 C2337 1.400 1_565 S
C2337 C2331 1.491 . S
C2337 C2336 1.400 1_545 S
C2337 C2338 1.398 . S
C2338 H2326 0.950 . S
C2338 C2337 1.398 . S
C2338 C2339 1.391 . S
C2339 H2327 0.950 . S
C2339 C2335 1.393 . S
C2339 C2338 1.391 . S
H2340 C2348 0.950 . S
H2341 C2353 0.950 . S
H2342 C2350 0.950 . S
H2343 C2352 0.950 . S
H2344 C2354 0.950 . S
H2345 C2356 0.950 . S
H2346 C2358 0.950 . S
H2347 C2359 0.950 . S
C2348 H2340 0.950 . S
C2348 C2349 1.386 . S
C2348 C2350 1.391 . S
C2349 C2348 1.386 . S
C2349 C2353 1.393 . S
C2350 H2342 0.950 . S
C2350 C2348 1.391 . S
C2350 C2351 1.400 . S
C2351 C2350 1.400 . S
C2351 C2352 1.398 . S
C2351 C2357 1.491 . S
C2352 H2343 0.950 . S
C2352 C2351 1.398 . S
C2352 C2353 1.391 . S
C2353 H2341 0.950 . S
C2353 C2349 1.393 . S
C2353 C2352 1.391 . S
C2354 H2344 0.950 . S
C2354 C2355 1.386 . S
C2354 C2356 1.391 . S
C2355 C2354 1.386 . S
C2355 C2359 1.393 . S
C2356 H2345 0.950 . S
C2356 C2354 1.391 . S
C2356 C2357 1.400 . S
C2357 C2351 1.491 . S
C2357 C2356 1.400 . S
C2357 C2358 1.398 . S
C2358 H2346 0.950 . S
C2358 C2357 1.398 . S
C2358 C2359 1.391 . S
C2359 H2347 0.950 . S
C2359 C2355 1.393 . S
C2359 C2358 1.391 . S
H2360 C2368 0.950 . S
H2361 C2373 0.950 . S
H2362 C2370 0.950 . S
H2363 C2372 0.950 . S
H2364 C2374 0.950 . S
H2365 C2376 0.950 . S
H2366 C2378 0.950 . S
H2367 C2379 0.950 . S
C2368 H2360 0.950 . S
C2368 C2369 1.386 . S
C2368 C2370 1.391 . S
C2369 C2368 1.386 . S
C2369 C2373 1.393 . S
C2370 H2362 0.950 . S
C2370 C2368 1.391 . S
C2370 C2371 1.400 . S
C2371 C2370 1.400 . S
C2371 C2372 1.398 . S
C2371 C2377 1.491 . S
C2372 H2363 0.950 . S
C2372 C2371 1.398 . S
C2372 C2373 1.391 . S
C2373 H2361 0.950 . S
C2373 C2369 1.393 . S
C2373 C2372 1.391 . S
C2374 H2364 0.950 . S
C2374 C2375 1.386 . S
C2374 C2376 1.391 . S
C2375 C2374 1.386 . S
C2375 C2379 1.393 . S
C2376 H2365 0.950 . S
C2376 C2374 1.391 . S
C2376 C2377 1.400 . S
C2377 C2371 1.491 . S
C2377 C2376 1.400 . S
C2377 C2378 1.398 . S
C2378 H2366 0.950 . S
C2378 C2377 1.398 . S
C2378 C2379 1.391 . S
C2379 H2367 0.950 . S
C2379 C2375 1.393 . S
C2379 C2378 1.391 . S
H2380 C2388 0.950 . S
H2381 C2393 0.950 . S
H2382 C2390 0.950 . S
H2383 C2392 0.950 . S
H2384 C2394 0.950 . S
H2385 C2396 0.950 . S
H2386 C2398 0.950 . S
H2387 C2399 0.950 . S
C2388 H2380 0.950 . S
C2388 C2389 1.386 . S
C2388 C2390 1.391 . S
C2389 C2388 1.386 . S
C2389 C2393 1.393 . S
C2390 H2382 0.950 . S
C2390 C2388 1.391 . S
C2390 C2391 1.400 . S
C2391 C2390 1.400 . S
C2391 C2392 1.398 . S
C2391 C2397 1.491 . S
C2392 H2383 0.950 . S
C2392 C2391 1.398 . S
C2392 C2393 1.391 . S
C2393 H2381 0.950 . S
C2393 C2389 1.393 . S
C2393 C2392 1.391 . S
C2394 H2384 0.950 . S
C2394 C2395 1.386 . S
C2394 C2396 1.391 . S
C2395 C2394 1.386 . S
C2395 C2399 1.393 . S
C2396 H2385 0.950 . S
C2396 C2394 1.391 . S
C2396 C2397 1.400 . S
C2397 C2391 1.491 . S
C2397 C2396 1.400 . S
C2397 C2398 1.398 . S
C2398 H2386 0.950 . S
C2398 C2397 1.398 . S
C2398 C2399 1.391 . S
C2399 H2387 0.950 . S
C2399 C2395 1.393 . S
C2399 C2398 1.391 . S
H2400 C2408 0.950 . S
H2401 C2413 0.950 . S
H2402 C2410 0.950 . S
H2403 C2412 0.950 . S
H2404 C2414 0.972 . S
H2405 C2416 0.950 . S
H2406 C2418 0.950 . S
H2407 C2419 0.950 . S
C2408 H2400 0.950 . S
C2408 C2409 1.386 1_545 S
C2408 C2410 1.391 . S
C2409 C2408 1.386 1_565 S
C2409 C2413 1.393 . S
C2410 H2402 0.950 . S
C2410 C2408 1.391 . S
C2410 C2411 1.400 . S
C2411 C2410 1.400 . S
C2411 C2412 1.398 1_545 S
C2411 C2417 1.491 . S
C2412 H2403 0.950 . S
C2412 C2411 1.398 1_565 S
C2412 C2413 1.391 . S
C2413 H2401 0.950 . S
C2413 C2409 1.393 . S
C2413 C2412 1.391 . S
C2414 H2404 0.972 . S
C2414 C2415 1.344 1_565 S
C2414 C2416 1.412 . S
C2415 C2414 1.344 1_545 S
C2415 C2419 1.393 . S
C2416 H2405 0.950 . S
C2416 C2414 1.412 . S
C2416 C2417 1.400 1_565 S
C2417 C2411 1.491 . S
C2417 C2416 1.400 1_545 S
C2417 C2418 1.398 . S
C2418 H2406 0.950 . S
C2418 C2417 1.398 . S
C2418 C2419 1.391 . S
C2419 H2407 0.950 . S
C2419 C2415 1.393 . S
C2419 C2418 1.391 . S
H2420 C2428 0.950 . S
H2421 C2433 0.950 . S
H2422 C2430 0.950 . S
H2423 C2432 0.950 . S
H2424 C2434 0.950 . S
H2425 C2436 0.950 . S
H2426 C2438 0.950 . S
H2427 C2439 0.950 . S
C2428 H2420 0.950 . S
C2428 C2429 1.386 . S
C2428 C2430 1.391 . S
C2429 C2428 1.386 . S
C2429 C2433 1.393 . S
C2430 H2422 0.950 . S
C2430 C2428 1.391 . S
C2430 C2431 1.400 . S
C2431 C2430 1.400 . S
C2431 C2432 1.398 . S
C2431 C2437 1.491 . S
C2432 H2423 0.950 . S
C2432 C2431 1.398 . S
C2432 C2433 1.391 . S
C2433 H2421 0.950 . S
C2433 C2429 1.393 . S
C2433 C2432 1.391 . S
C2434 H2424 0.950 . S
C2434 C2435 1.386 . S
C2434 C2436 1.391 . S
C2435 C2434 1.386 . S
C2435 C2439 1.393 . S
C2436 H2425 0.950 . S
C2436 C2434 1.391 . S
C2436 C2437 1.400 . S
C2437 C2431 1.491 . S
C2437 C2436 1.400 . S
C2437 C2438 1.398 . S
C2438 H2426 0.950 . S
C2438 C2437 1.398 . S
C2438 C2439 1.391 . S
C2439 H2427 0.950 . S
C2439 C2435 1.393 . S
C2439 C2438 1.391 . S
H2440 C2448 0.950 . S
H2441 C2453 0.950 . S
H2442 C2450 0.950 . S
H2443 C2452 0.950 . S
H2444 C2454 0.950 . S
H2445 C2456 0.950 . S
H2446 C2458 0.952 . S
H2447 C2459 0.945 1_565 S
C2448 H2440 0.950 . S
C2448 C2449 1.386 1_565 S
C2448 C2450 1.391 . S
C2449 C2448 1.386 1_545 S
C2449 C2453 1.393 . S
C2450 H2442 0.950 . S
C2450 C2448 1.391 . S
C2450 C2451 1.400 1_565 S
C2451 C2450 1.400 1_545 S
C2451 C2452 1.398 . S
C2451 C2457 1.491 . S
C2452 H2443 0.950 . S
C2452 C2451 1.398 . S
C2452 C2453 1.391 . S
C2453 H2441 0.950 . S
C2453 C2449 1.393 . S
C2453 C2452 1.391 . S
C2454 H2444 0.950 . S
C2454 C2455 1.386 . S
C2454 C2456 1.391 . S
C2455 C2454 1.386 . S
C2455 C2459 1.398 . S
C2456 H2445 0.950 . S
C2456 C2454 1.391 . S
C2456 C2457 1.400 . S
C2457 C2451 1.491 . S
C2457 C2456 1.400 . S
C2457 C2458 1.397 1_545 S
C2458 H2446 0.952 . S
C2458 C2457 1.397 1_565 S
C2458 C2459 1.390 1_565 S
C2459 H2447 0.945 1_545 S
C2459 C2455 1.398 . S
C2459 C2458 1.390 1_545 S
H2460 C2468 0.950 . S
H2461 C2473 0.950 . S
H2462 C2470 0.950 . S
H2463 C2472 0.950 . S
H2464 C2474 0.950 . S
H2465 C2476 0.950 . S
H2466 C2478 0.950 . S
H2467 C2479 0.950 . S
C2468 H2460 0.950 . S
C2468 C2469 1.386 . S
C2468 C2470 1.391 . S
C2469 C2468 1.386 . S
C2469 C2473 1.393 . S
C2470 H2462 0.950 . S
C2470 C2468 1.391 . S
C2470 C2471 1.400 . S
C2471 C2470 1.400 . S
C2471 C2472 1.398 . S
C2471 C2477 1.491 . S
C2472 H2463 0.950 . S
C2472 C2471 1.398 . S
C2472 C2473 1.391 . S
C2473 H2461 0.950 . S
C2473 C2469 1.393 . S
C2473 C2472 1.391 . S
C2474 H2464 0.950 . S
C2474 C2475 1.386 . S
C2474 C2476 1.391 . S
C2475 C2474 1.386 . S
C2475 C2479 1.393 . S
C2476 H2465 0.950 . S
C2476 C2474 1.391 . S
C2476 C2477 1.400 . S
C2477 C2471 1.491 . S
C2477 C2476 1.400 . S
C2477 C2478 1.398 . S
C2478 H2466 0.950 . S
C2478 C2477 1.398 . S
C2478 C2479 1.391 . S
C2479 H2467 0.950 . S
C2479 C2475 1.393 . S
C2479 C2478 1.391 . S
H2480 C2488 0.950 . S
H2481 C2493 0.950 . S
H2482 C2490 0.950 . S
H2483 C2492 0.950 . S
H2484 C2494 0.950 1_556 S
H2485 C2496 0.950 . S
H2486 C2498 0.950 . S
H2487 C2499 0.950 . S
C2488 H2480 0.950 . S
C2488 C2489 1.386 . S
C2488 C2490 1.391 . S
C2489 C2488 1.386 . S
C2489 C2493 1.393 . S
C2490 H2482 0.950 . S
C2490 C2488 1.391 . S
C2490 C2491 1.400 . S
C2491 C2490 1.400 . S
C2491 C2492 1.398 . S
C2491 C2497 1.491 . S
C2492 H2483 0.950 . S
C2492 C2491 1.398 . S
C2492 C2493 1.391 . S
C2493 H2481 0.950 . S
C2493 C2489 1.393 . S
C2493 C2492 1.391 . S
C2494 H2484 0.950 1_554 S
C2494 C2495 1.386 . S
C2494 C2496 1.391 . S
C2495 C2494 1.386 . S
C2495 C2499 1.393 . S
C2496 H2485 0.950 . S
C2496 C2494 1.391 . S
C2496 C2497 1.400 . S
C2497 C2491 1.491 . S
C2497 C2496 1.400 . S
C2497 C2498 1.398 . S
C2498 H2486 0.950 . S
C2498 C2497 1.398 . S
C2498 C2499 1.391 . S
C2499 H2487 0.950 . S
C2499 C2495 1.393 . S
C2499 C2498 1.391 . S
H2500 C2508 0.950 . S
H2501 C2513 0.950 . S
H2502 C2510 0.950 . S
H2503 C2512 0.950 . S
H2504 C2514 0.950 . S
H2505 C2516 0.950 . S
H2506 C2518 0.950 . S
H2507 C2519 0.950 . S
C2508 H2500 0.950 . S
C2508 C2509 1.386 . S
C2508 C2510 1.391 . S
C2509 C2508 1.386 . S
C2509 C2513 1.393 . S
C2510 H2502 0.950 . S
C2510 C2508 1.391 . S
C2510 C2511 1.400 . S
C2511 C2510 1.400 . S
C2511 C2512 1.398 . S
C2511 C2517 1.491 . S
C2512 H2503 0.950 . S
C2512 C2511 1.398 . S
C2512 C2513 1.391 . S
C2513 H2501 0.950 . S
C2513 C2509 1.393 . S
C2513 C2512 1.391 . S
C2514 H2504 0.950 . S
C2514 C2515 1.386 . S
C2514 C2516 1.391 . S
C2515 C2514 1.386 . S
C2515 C2519 1.393 . S
C2516 H2505 0.950 . S
C2516 C2514 1.391 . S
C2516 C2517 1.400 . S
C2517 C2511 1.491 . S
C2517 C2516 1.400 . S
C2517 C2518 1.398 . S
C2518 H2506 0.950 . S
C2518 C2517 1.398 . S
C2518 C2519 1.391 . S
C2519 H2507 0.950 . S
C2519 C2515 1.393 . S
C2519 C2518 1.391 . S
H2520 C2528 0.950 . S
H2521 C2533 0.950 . S
H2522 C2530 0.950 . S
H2523 C2532 0.950 . S
H2524 C2534 0.950 . S
H2525 C2536 0.950 . S
H2526 C2538 0.950 . S
H2527 C2539 0.950 . S
C2528 H2520 0.950 . S
C2528 C2529 1.386 . S
C2528 C2530 1.391 . S
C2529 C2528 1.386 . S
C2529 C2533 1.393 . S
C2530 H2522 0.950 . S
C2530 C2528 1.391 . S
C2530 C2531 1.400 . S
C2531 C2530 1.400 . S
C2531 C2532 1.398 . S
C2531 C2537 1.491 . S
C2532 H2523 0.950 . S
C2532 C2531 1.398 . S
C2532 C2533 1.391 . S
C2533 H2521 0.950 . S
C2533 C2529 1.393 . S
C2533 C2532 1.391 . S
C2534 H2524 0.950 . S
C2534 C2535 1.386 . S
C2534 C2536 1.391 . S
C2535 C2534 1.386 . S
C2535 C2539 1.393 . S
C2536 H2525 0.950 . S
C2536 C2534 1.391 . S
C2536 C2537 1.400 . S
C2537 C2531 1.491 . S
C2537 C2536 1.400 . S
C2537 C2538 1.398 . S
C2538 H2526 0.950 . S
C2538 C2537 1.398 . S
C2538 C2539 1.391 . S
C2539 H2527 0.950 . S
C2539 C2535 1.393 . S
C2539 C2538 1.391 . S
H2540 C2548 0.950 . S
H2541 C2553 0.950 . S
H2542 C2550 0.950 . S
H2543 C2552 0.950 . S
H2544 C2554 0.950 . S
H2545 C2556 0.950 . S
H2546 C2558 0.950 . S
H2547 C2559 0.950 . S
C2548 H2540 0.950 . S
C2548 C2549 1.386 . S
C2548 C2550 1.391 . S
C2549 C2548 1.386 . S
C2549 C2553 1.393 . S
C2550 H2542 0.950 . S
C2550 C2548 1.391 . S
C2550 C2551 1.400 . S
C2551 C2550 1.400 . S
C2551 C2552 1.398 . S
C2551 C2557 1.491 . S
C2552 H2543 0.950 . S
C2552 C2551 1.398 . S
C2552 C2553 1.391 . S
C2553 H2541 0.950 . S
C2553 C2549 1.393 . S
C2553 C2552 1.391 . S
C2554 H2544 0.950 . S
C2554 C2555 1.386 . S
C2554 C2556 1.391 . S
C2555 C2554 1.386 . S
C2555 C2559 1.393 . S
C2556 H2545 0.950 . S
C2556 C2554 1.391 . S
C2556 C2557 1.400 . S
C2557 C2551 1.491 . S
C2557 C2556 1.400 . S
C2557 C2558 1.398 . S
C2558 H2546 0.950 . S
C2558 C2557 1.398 . S
C2558 C2559 1.391 . S
C2559 H2547 0.950 . S
C2559 C2555 1.393 . S
C2559 C2558 1.391 . S
H2560 C2568 0.950 1_545 S
H2561 C2573 0.950 . S
H2562 C2570 0.950 . S
H2563 C2572 0.950 . S
H2564 C2574 0.950 . S
H2565 C2576 0.950 . S
H2566 C2578 0.950 . S
H2567 C2579 0.950 . S
C2568 H2560 0.950 1_565 S
C2568 C2569 1.386 . S
C2568 C2570 1.391 . S
C2569 C2568 1.386 . S
C2569 C2573 1.393 . S
C2570 H2562 0.950 . S
C2570 C2568 1.391 . S
C2570 C2571 1.400 . S
C2571 C2570 1.400 . S
C2571 C2572 1.398 . S
C2571 C2577 1.491 . S
C2572 H2563 0.950 . S
C2572 C2571 1.398 . S
C2572 C2573 1.391 . S
C2573 H2561 0.950 . S
C2573 C2569 1.393 . S
C2573 C2572 1.391 . S
C2574 H2564 0.950 . S
C2574 C2575 1.386 . S
C2574 C2576 1.391 . S
C2575 C2574 1.386 . S
C2575 C2579 1.393 . S
C2576 H2565 0.950 . S
C2576 C2574 1.391 . S
C2576 C2577 1.400 . S
C2577 C2571 1.491 . S
C2577 C2576 1.400 . S
C2577 C2578 1.398 . S
C2578 H2566 0.950 . S
C2578 C2577 1.398 . S
C2578 C2579 1.391 . S
C2579 H2567 0.950 . S
C2579 C2575 1.393 . S
C2579 C2578 1.391 . S
H2580 C2588 0.950 . S
H2581 C2593 0.950 . S
H2582 C2590 0.950 . S
H2583 C2592 0.950 . S
H2584 C2594 0.950 . S
H2585 C2596 0.950 . S
H2586 C2598 0.950 . S
H2587 C2599 0.950 . S
C2588 H2580 0.950 . S
C2588 C2589 1.386 . S
C2588 C2590 1.391 . S
C2589 C2588 1.386 . S
C2589 C2593 1.393 . S
C2590 H2582 0.950 . S
C2590 C2588 1.391 . S
C2590 C2591 1.400 . S
C2591 C2590 1.400 . S
C2591 C2592 1.398 . S
C2591 C2597 1.491 . S
C2592 H2583 0.950 . S
C2592 C2591 1.398 . S
C2592 C2593 1.391 . S
C2593 H2581 0.950 . S
C2593 C2589 1.393 . S
C2593 C2592 1.391 . S
C2594 H2584 0.950 . S
C2594 C2595 1.386 . S
C2594 C2596 1.391 . S
C2595 C2594 1.386 . S
C2595 C2599 1.393 . S
C2596 H2585 0.950 . S
C2596 C2594 1.391 . S
C2596 C2597 1.400 . S
C2597 C2591 1.491 . S
C2597 C2596 1.400 . S
C2597 C2598 1.398 . S
C2598 H2586 0.950 . S
C2598 C2597 1.398 . S
C2598 C2599 1.391 . S
C2599 H2587 0.950 . S
C2599 C2595 1.393 . S
C2599 C2598 1.391 . S
H2600 C2608 0.950 . S
H2601 C2613 0.950 . S
H2602 C2610 0.950 . S
H2603 C2612 0.950 . S
H2604 C2614 0.950 . S
H2605 C2616 0.950 . S
H2606 C2618 0.950 . S
H2607 C2619 0.950 . S
C2608 H2600 0.950 . S
C2608 C2609 1.386 . S
C2608 C2610 1.391 . S
C2609 C2608 1.386 . S
C2609 C2613 1.393 . S
C2610 H2602 0.950 . S
C2610 C2608 1.391 . S
C2610 C2611 1.400 . S
C2611 C2610 1.400 . S
C2611 C2612 1.398 . S
C2611 C2617 1.491 . S
C2612 H2603 0.950 . S
C2612 C2611 1.398 . S
C2612 C2613 1.391 . S
C2613 H2601 0.950 . S
C2613 C2609 1.393 . S
C2613 C2612 1.391 . S
C2614 H2604 0.950 . S
C2614 C2615 1.386 . S
C2614 C2616 1.391 . S
C2615 C2614 1.386 . S
C2615 C2619 1.393 . S
C2616 H2605 0.950 . S
C2616 C2614 1.391 . S
C2616 C2617 1.400 . S
C2617 C2611 1.491 . S
C2617 C2616 1.400 . S
C2617 C2618 1.398 . S
C2618 H2606 0.950 . S
C2618 C2617 1.398 . S
C2618 C2619 1.391 . S
C2619 H2607 0.950 . S
C2619 C2615 1.393 . S
C2619 C2618 1.391 . S
H2620 C2628 0.950 . S
H2621 C2633 0.950 . S
H2622 C2630 0.950 . S
H2623 C2632 0.950 . S
H2624 C2634 0.950 . S
H2625 C2636 0.950 . S
H2626 C2638 0.950 . S
H2627 C2639 0.950 . S
C2628 H2620 0.950 . S
C2628 C2629 1.386 . S
C2628 C2630 1.391 . S
C2629 C2628 1.386 . S
C2629 C2633 1.393 . S
C2630 H2622 0.950 . S
C2630 C2628 1.391 . S
C2630 C2631 1.400 . S
C2631 C2630 1.400 . S
C2631 C2632 1.398 . S
C2631 C2637 1.491 . S
C2632 H2623 0.950 . S
C2632 C2631 1.398 . S
C2632 C2633 1.391 . S
C2633 H2621 0.950 . S
C2633 C2629 1.393 . S
C2633 C2632 1.391 . S
C2634 H2624 0.950 . S
C2634 C2635 1.386 . S
C2634 C2636 1.391 . S
C2635 C2634 1.386 . S
C2635 C2639 1.393 . S
C2636 H2625 0.950 . S
C2636 C2634 1.391 . S
C2636 C2637 1.400 . S
C2637 C2631 1.491 . S
C2637 C2636 1.400 . S
C2637 C2638 1.398 . S
C2638 H2626 0.950 . S
C2638 C2637 1.398 . S
C2638 C2639 1.391 . S
C2639 H2627 0.950 . S
C2639 C2635 1.393 . S
C2639 C2638 1.391 . S
H2640 C2648 0.950 . S
H2641 C2653 0.950 . S
H2642 C2650 0.950 . S
H2643 C2652 0.950 . S
H2644 C2654 0.950 . S
H2645 C2656 0.950 . S
H2646 C2658 0.950 . S
H2647 C2659 0.950 . S
C2648 H2640 0.950 . S
C2648 C2649 1.386 . S
C2648 C2650 1.391 . S
C2649 C2648 1.386 . S
C2649 C2653 1.393 . S
C2650 H2642 0.950 . S
C2650 C2648 1.391 . S
C2650 C2651 1.400 . S
C2651 C2650 1.400 . S
C2651 C2652 1.398 . S
C2651 C2657 1.491 . S
C2652 H2643 0.950 . S
C2652 C2651 1.398 . S
C2652 C2653 1.391 . S
C2653 H2641 0.950 . S
C2653 C2649 1.393 . S
C2653 C2652 1.391 . S
C2654 H2644 0.950 . S
C2654 C2655 1.386 . S
C2654 C2656 1.391 . S
C2655 C2654 1.386 . S
C2655 C2659 1.393 . S
C2656 H2645 0.950 . S
C2656 C2654 1.391 . S
C2656 C2657 1.400 . S
C2657 C2651 1.491 . S
C2657 C2656 1.400 . S
C2657 C2658 1.398 . S
C2658 H2646 0.950 . S
C2658 C2657 1.398 . S
C2658 C2659 1.391 . S
C2659 H2647 0.950 . S
C2659 C2655 1.393 . S
C2659 C2658 1.391 . S
H2660 C2668 0.950 . S
H2661 C2673 0.950 . S
H2662 C2670 0.950 . S
H2663 C2672 0.950 . S
H2664 C2674 0.950 . S
H2665 C2676 0.950 . S
H2666 C2678 0.950 . S
H2667 C2679 0.950 . S
C2668 H2660 0.950 . S
C2668 C2669 1.386 . S
C2668 C2670 1.391 . S
C2669 C2668 1.386 . S
C2669 C2673 1.393 . S
C2670 H2662 0.950 . S
C2670 C2668 1.391 . S
C2670 C2671 1.400 . S
C2671 C2670 1.400 . S
C2671 C2672 1.398 . S
C2671 C2677 1.491 . S
C2672 H2663 0.950 . S
C2672 C2671 1.398 . S
C2672 C2673 1.391 . S
C2673 H2661 0.950 . S
C2673 C2669 1.393 . S
C2673 C2672 1.391 . S
C2674 H2664 0.950 . S
C2674 C2675 1.386 . S
C2674 C2676 1.391 . S
C2675 C2674 1.386 . S
C2675 C2679 1.393 . S
C2676 H2665 0.950 . S
C2676 C2674 1.391 . S
C2676 C2677 1.400 . S
C2677 C2671 1.491 . S
C2677 C2676 1.400 . S
C2677 C2678 1.398 . S
C2678 H2666 0.950 . S
C2678 C2677 1.398 . S
C2678 C2679 1.391 . S
C2679 H2667 0.950 . S
C2679 C2675 1.393 . S
C2679 C2678 1.391 . S
H2680 C2688 0.950 . S
H2681 C2693 0.950 1_655 S
H2682 C2690 0.950 . S
H2683 C2692 0.950 . S
H2684 C2694 0.950 . S
H2685 C2696 0.950 . S
H2686 C2698 0.950 . S
H2687 C2699 0.950 . S
C2688 H2680 0.950 . S
C2688 C2689 1.386 . S
C2688 C2690 1.391 . S
C2689 C2688 1.386 . S
C2689 C2693 1.393 . S
C2690 H2682 0.950 . S
C2690 C2688 1.391 . S
C2690 C2691 1.400 . S
C2691 C2690 1.400 . S
C2691 C2692 1.398 . S
C2691 C2697 1.491 . S
C2692 H2683 0.950 . S
C2692 C2691 1.398 . S
C2692 C2693 1.391 . S
C2693 H2681 0.950 1_455 S
C2693 C2689 1.393 . S
C2693 C2692 1.391 . S
C2694 H2684 0.950 . S
C2694 C2695 1.386 . S
C2694 C2696 1.391 1_554 S
C2695 C2694 1.386 . S
C2695 C2699 1.393 . S
C2696 H2685 0.950 . S
C2696 C2694 1.391 1_556 S
C2696 C2697 1.400 . S
C2697 C2691 1.491 . S
C2697 C2696 1.400 . S
C2697 C2698 1.398 1_556 S
C2698 H2686 0.950 . S
C2698 C2697 1.398 1_554 S
C2698 C2699 1.391 . S
C2699 H2687 0.950 . S
C2699 C2695 1.393 . S
C2699 C2698 1.391 . S
H2700 C2708 0.950 . S
H2701 C2713 0.950 . S
H2702 C2710 0.950 . S
H2703 C2712 0.950 . S
H2704 C2714 0.950 . S
H2705 C2716 0.950 . S
H2706 C2718 0.950 . S
H2707 C2719 0.950 . S
C2708 H2700 0.950 . S
C2708 C2709 1.386 . S
C2708 C2710 1.391 1_455 S
C2709 C2708 1.386 . S
C2709 C2713 1.393 . S
C2710 H2702 0.950 . S
C2710 C2708 1.391 1_655 S
C2710 C2711 1.400 . S
C2711 C2710 1.400 . S
C2711 C2712 1.398 1_655 S
C2711 C2717 1.491 . S
C2712 H2703 0.950 . S
C2712 C2711 1.398 1_455 S
C2712 C2713 1.391 . S
C2713 H2701 0.950 . S
C2713 C2709 1.393 . S
C2713 C2712 1.391 . S
C2714 H2704 0.950 . S
C2714 C2715 1.386 . S
C2714 C2716 1.391 . S
C2715 C2714 1.386 . S
C2715 C2719 1.393 . S
C2716 H2705 0.950 . S
C2716 C2714 1.391 . S
C2716 C2717 1.400 . S
C2717 C2711 1.491 . S
C2717 C2716 1.400 . S
C2717 C2718 1.398 . S
C2718 H2706 0.950 . S
C2718 C2717 1.398 . S
C2718 C2719 1.391 . S
C2719 H2707 0.950 . S
C2719 C2715 1.393 . S
C2719 C2718 1.391 . S
H2720 C2728 0.950 . S
H2721 C2733 0.950 . S
H2722 C2730 0.950 . S
H2723 C2732 0.950 . S
H2724 C2734 0.950 . S
H2725 C2736 0.950 . S
H2726 C2738 0.950 . S
H2727 C2739 0.950 . S
C2728 H2720 0.950 . S
C2728 C2729 1.386 . S
C2728 C2730 1.391 . S
C2729 C2728 1.386 . S
C2729 C2733 1.393 . S
C2730 H2722 0.950 . S
C2730 C2728 1.391 . S
C2730 C2731 1.400 . S
C2731 C2730 1.400 . S
C2731 C2732 1.398 . S
C2731 C2737 1.491 . S
C2732 H2723 0.950 . S
C2732 C2731 1.398 . S
C2732 C2733 1.391 . S
C2733 H2721 0.950 . S
C2733 C2729 1.393 . S
C2733 C2732 1.391 . S
C2734 H2724 0.950 . S
C2734 C2735 1.386 . S
C2734 C2736 1.391 . S
C2735 C2734 1.386 . S
C2735 C2739 1.393 . S
C2736 H2725 0.950 . S
C2736 C2734 1.391 . S
C2736 C2737 1.400 . S
C2737 C2731 1.491 . S
C2737 C2736 1.400 . S
C2737 C2738 1.398 . S
C2738 H2726 0.950 . S
C2738 C2737 1.398 . S
C2738 C2739 1.391 . S
C2739 H2727 0.950 . S
C2739 C2735 1.393 . S
C2739 C2738 1.391 . S
H2740 C2748 0.950 . S
H2741 C2753 0.950 . S
H2742 C2750 0.950 . S
H2743 C2752 0.950 . S
H2744 C2754 0.950 . S
H2745 C2756 0.950 . S
H2746 C2758 0.950 . S
H2747 C2759 0.950 . S
C2748 H2740 0.950 . S
C2748 C2749 1.386 . S
C2748 C2750 1.391 . S
C2749 C2748 1.386 . S
C2749 C2753 1.393 . S
C2750 H2742 0.950 . S
C2750 C2748 1.391 . S
C2750 C2751 1.400 . S
C2751 C2750 1.400 . S
C2751 C2752 1.398 . S
C2751 C2757 1.491 1_455 S
C2752 H2743 0.950 . S
C2752 C2751 1.398 . S
C2752 C2753 1.391 . S
C2753 H2741 0.950 . S
C2753 C2749 1.393 . S
C2753 C2752 1.391 . S
C2754 H2744 0.950 . S
C2754 C2755 1.386 . S
C2754 C2756 1.391 . S
C2755 C2754 1.386 . S
C2755 C2759 1.393 . S
C2756 H2745 0.950 . S
C2756 C2754 1.391 . S
C2756 C2757 1.400 . S
C2757 C2751 1.491 1_655 S
C2757 C2756 1.400 . S
C2757 C2758 1.398 . S
C2758 H2746 0.950 . S
C2758 C2757 1.398 . S
C2758 C2759 1.391 . S
C2759 H2747 0.950 . S
C2759 C2755 1.393 . S
C2759 C2758 1.391 . S
H2760 C2768 0.950 . S
H2761 C2773 0.950 . S
H2762 C2770 0.950 . S
H2763 C2772 0.950 . S
H2764 C2774 0.950 . S
H2765 C2776 0.950 . S
H2766 C2778 0.950 1_655 S
H2767 C2779 0.950 . S
C2768 H2760 0.950 . S
C2768 C2769 1.386 . S
C2768 C2770 1.391 . S
C2769 C2768 1.386 . S
C2769 C2773 1.393 1_655 S
C2770 H2762 0.950 . S
C2770 C2768 1.391 . S
C2770 C2771 1.400 1_655 S
C2771 C2770 1.400 1_455 S
C2771 C2772 1.398 . S
C2771 C2777 1.491 . S
C2772 H2763 0.950 . S
C2772 C2771 1.398 . S
C2772 C2773 1.391 . S
C2773 H2761 0.950 . S
C2773 C2769 1.393 1_455 S
C2773 C2772 1.391 . S
C2774 H2764 0.950 . S
C2774 C2775 1.386 . S
C2774 C2776 1.391 . S
C2775 C2774 1.386 . S
C2775 C2779 1.393 . S
C2776 H2765 0.950 . S
C2776 C2774 1.391 . S
C2776 C2777 1.400 . S
C2777 C2771 1.491 . S
C2777 C2776 1.400 . S
C2777 C2778 1.398 . S
C2778 H2766 0.950 1_455 S
C2778 C2777 1.398 . S
C2778 C2779 1.391 . S
C2779 H2767 0.950 . S
C2779 C2775 1.393 . S
C2779 C2778 1.391 . S
H2780 C2788 0.950 . S
H2781 C2793 0.950 . S
H2782 C2790 0.950 . S
H2783 C2792 0.950 . S
H2784 C2794 0.950 . S
H2785 C2796 0.950 . S
H2786 C2798 0.950 . S
H2787 C2799 0.950 . S
C2788 H2780 0.950 . S
C2788 C2789 1.386 . S
C2788 C2790 1.391 . S
C2789 C2788 1.386 . S
C2789 C2793 1.393 . S
C2790 H2782 0.950 . S
C2790 C2788 1.391 . S
C2790 C2791 1.400 . S
C2791 C2790 1.400 . S
C2791 C2792 1.398 . S
C2791 C2797 1.491 . S
C2792 H2783 0.950 . S
C2792 C2791 1.398 . S
C2792 C2793 1.391 . S
C2793 H2781 0.950 . S
C2793 C2789 1.393 . S
C2793 C2792 1.391 . S
C2794 H2784 0.950 . S
C2794 C2795 1.386 . S
C2794 C2796 1.391 . S
C2795 C2794 1.386 . S
C2795 C2799 1.393 . S
C2796 H2785 0.950 . S
C2796 C2794 1.391 . S
C2796 C2797 1.400 . S
C2797 C2791 1.491 . S
C2797 C2796 1.400 . S
C2797 C2798 1.398 . S
C2798 H2786 0.950 . S
C2798 C2797 1.398 . S
C2798 C2799 1.391 . S
C2799 H2787 0.950 . S
C2799 C2795 1.393 . S
C2799 C2798 1.391 . S
H2800 C2808 0.950 . S
H2801 C2813 0.950 . S
H2802 C2810 0.950 . S
H2803 C2812 0.950 . S
H2804 C2814 0.950 . S
H2805 C2816 0.950 . S
H2806 C2818 0.950 . S
H2807 C2819 0.950 . S
C2808 H2800 0.950 . S
C2808 C2809 1.386 . S
C2808 C2810 1.391 . S
C2809 C2808 1.386 . S
C2809 C2813 1.393 . S
C2810 H2802 0.950 . S
C2810 C2808 1.391 . S
C2810 C2811 1.400 . S
C2811 C2810 1.400 . S
C2811 C2812 1.398 . S
C2811 C2817 1.491 . S
C2812 H2803 0.950 . S
C2812 C2811 1.398 . S
C2812 C2813 1.391 . S
C2813 H2801 0.950 . S
C2813 C2809 1.393 . S
C2813 C2812 1.391 . S
C2814 H2804 0.950 . S
C2814 C2815 1.386 . S
C2814 C2816 1.391 . S
C2815 C2814 1.386 . S
C2815 C2819 1.393 . S
C2816 H2805 0.950 . S
C2816 C2814 1.391 . S
C2816 C2817 1.400 . S
C2817 C2811 1.491 . S
C2817 C2816 1.400 . S
C2817 C2818 1.398 . S
C2818 H2806 0.950 . S
C2818 C2817 1.398 . S
C2818 C2819 1.391 . S
C2819 H2807 0.950 . S
C2819 C2815 1.393 . S
C2819 C2818 1.391 . S
H2820 C2828 0.950 . S
H2821 C2833 0.950 . S
H2822 C2830 0.950 . S
H2823 C2832 0.950 . S
H2824 C2834 0.950 . S
H2825 C2836 0.950 . S
H2826 C2838 0.950 . S
H2827 C2839 0.950 . S
C2828 H2820 0.950 . S
C2828 C2829 1.386 . S
C2828 C2830 1.391 . S
C2829 C2828 1.386 . S
C2829 C2833 1.393 . S
C2830 H2822 0.950 . S
C2830 C2828 1.391 . S
C2830 C2831 1.400 . S
C2831 C2830 1.400 . S
C2831 C2832 1.398 . S
C2831 C2837 1.491 . S
C2832 H2823 0.950 . S
C2832 C2831 1.398 . S
C2832 C2833 1.391 . S
C2833 H2821 0.950 . S
C2833 C2829 1.393 . S
C2833 C2832 1.391 . S
C2834 H2824 0.950 . S
C2834 C2835 1.386 . S
C2834 C2836 1.391 . S
C2835 C2834 1.386 . S
C2835 C2839 1.393 . S
C2836 H2825 0.950 . S
C2836 C2834 1.391 . S
C2836 C2837 1.400 . S
C2837 C2831 1.491 . S
C2837 C2836 1.400 . S
C2837 C2838 1.398 . S
C2838 H2826 0.950 . S
C2838 C2837 1.398 . S
C2838 C2839 1.391 . S
C2839 H2827 0.950 . S
C2839 C2835 1.393 . S
C2839 C2838 1.391 . S
H2840 C2848 0.950 . S
H2841 C2853 0.950 . S
H2842 C2850 0.950 . S
H2843 C2852 0.950 . S
H2844 C2854 0.950 . S
H2845 C2856 0.950 . S
H2846 C2858 0.950 . S
H2847 C2859 0.950 . S
C2848 H2840 0.950 . S
C2848 C2849 1.386 . S
C2848 C2850 1.391 . S
C2849 C2848 1.386 . S
C2849 C2853 1.393 . S
C2850 H2842 0.950 . S
C2850 C2848 1.391 . S
C2850 C2851 1.400 . S
C2851 C2850 1.400 . S
C2851 C2852 1.398 . S
C2851 C2857 1.491 . S
C2852 H2843 0.950 . S
C2852 C2851 1.398 . S
C2852 C2853 1.391 . S
C2853 H2841 0.950 . S
C2853 C2849 1.393 . S
C2853 C2852 1.391 . S
C2854 H2844 0.950 . S
C2854 C2855 1.386 . S
C2854 C2856 1.391 . S
C2855 C2854 1.386 . S
C2855 C2859 1.393 . S
C2856 H2845 0.950 . S
C2856 C2854 1.391 . S
C2856 C2857 1.400 . S
C2857 C2851 1.491 . S
C2857 C2856 1.400 . S
C2857 C2858 1.398 . S
C2858 H2846 0.950 . S
C2858 C2857 1.398 . S
C2858 C2859 1.391 . S
C2859 H2847 0.950 . S
C2859 C2855 1.393 . S
C2859 C2858 1.391 . S
H2860 C2868 0.950 . S
H2861 C2873 0.950 . S
H2862 C2870 0.950 . S
H2863 C2872 0.950 . S
H2864 C2874 0.950 . S
H2865 C2876 0.950 . S
H2866 C2878 0.950 . S
H2867 C2879 0.950 . S
C2868 H2860 0.950 . S
C2868 C2869 1.386 . S
C2868 C2870 1.391 . S
C2869 C2868 1.386 . S
C2869 C2873 1.393 . S
C2870 H2862 0.950 . S
C2870 C2868 1.391 . S
C2870 C2871 1.400 . S
C2871 C2870 1.400 . S
C2871 C2872 1.398 . S
C2871 C2877 1.491 . S
C2872 H2863 0.950 . S
C2872 C2871 1.398 . S
C2872 C2873 1.391 . S
C2873 H2861 0.950 . S
C2873 C2869 1.393 . S
C2873 C2872 1.391 . S
C2874 H2864 0.950 . S
C2874 C2875 1.386 . S
C2874 C2876 1.391 . S
C2875 C2874 1.386 . S
C2875 C2879 1.393 . S
C2876 H2865 0.950 . S
C2876 C2874 1.391 . S
C2876 C2877 1.400 . S
C2877 C2871 1.491 . S
C2877 C2876 1.400 . S
C2877 C2878 1.398 . S
C2878 H2866 0.950 . S
C2878 C2877 1.398 . S
C2878 C2879 1.391 . S
C2879 H2867 0.950 . S
C2879 C2875 1.393 . S
C2879 C2878 1.391 . S
H2880 C2888 0.950 . S
H2881 C2893 0.950 . S
H2882 C2890 0.950 . S
H2883 C2892 0.950 . S
H2884 C2894 0.950 . S
H2885 C2896 0.950 . S
H2886 C2898 0.950 . S
H2887 C2899 0.950 . S
C2888 H2880 0.950 . S
C2888 C2889 1.386 . S
C2888 C2890 1.391 . S
C2889 C2888 1.386 . S
C2889 C2893 1.393 . S
C2890 H2882 0.950 . S
C2890 C2888 1.391 . S
C2890 C2891 1.400 . S
C2891 C2890 1.400 . S
C2891 C2892 1.398 . S
C2891 C2897 1.491 . S
C2892 H2883 0.950 . S
C2892 C2891 1.398 . S
C2892 C2893 1.391 . S
C2893 H2881 0.950 . S
C2893 C2889 1.393 . S
C2893 C2892 1.391 . S
C2894 H2884 0.950 . S
C2894 C2895 1.386 . S
C2894 C2896 1.391 . S
C2895 C2894 1.386 . S
C2895 C2899 1.393 . S
C2896 H2885 0.950 . S
C2896 C2894 1.391 . S
C2896 C2897 1.400 . S
C2897 C2891 1.491 . S
C2897 C2896 1.400 . S
C2897 C2898 1.398 . S
C2898 H2886 0.950 . S
C2898 C2897 1.398 . S
C2898 C2899 1.391 . S
C2899 H2887 0.950 . S
C2899 C2895 1.393 . S
C2899 C2898 1.391 . S
H2900 C2908 0.950 . S
H2901 C2913 0.950 . S
H2902 C2910 0.950 . S
H2903 C2912 0.950 . S
H2904 C2914 0.950 . S
H2905 C2916 0.950 . S
H2906 C2918 0.950 . S
H2907 C2919 0.950 . S
C2908 H2900 0.950 . S
C2908 C2909 1.386 . S
C2908 C2910 1.391 . S
C2909 C2908 1.386 . S
C2909 C2913 1.393 . S
C2910 H2902 0.950 . S
C2910 C2908 1.391 . S
C2910 C2911 1.400 . S
C2911 C2910 1.400 . S
C2911 C2912 1.398 . S
C2911 C2917 1.491 . S
C2912 H2903 0.950 . S
C2912 C2911 1.398 . S
C2912 C2913 1.391 . S
C2913 H2901 0.950 . S
C2913 C2909 1.393 . S
C2913 C2912 1.391 . S
C2914 H2904 0.950 . S
C2914 C2915 1.386 . S
C2914 C2916 1.391 . S
C2915 C2914 1.386 . S
C2915 C2919 1.393 . S
C2916 H2905 0.950 . S
C2916 C2914 1.391 . S
C2916 C2917 1.400 . S
C2917 C2911 1.491 . S
C2917 C2916 1.400 . S
C2917 C2918 1.398 . S
C2918 H2906 0.950 . S
C2918 C2917 1.398 . S
C2918 C2919 1.391 . S
C2919 H2907 0.950 . S
C2919 C2915 1.393 . S
C2919 C2918 1.391 . S
H2920 C2928 0.950 . S
H2921 C2933 0.950 . S
H2922 C2930 0.950 . S
H2923 C2932 0.950 . S
H2924 C2934 0.950 . S
H2925 C2936 0.950 . S
H2926 C2938 0.950 . S
H2927 C2939 0.950 . S
C2928 H2920 0.950 . S
C2928 C2929 1.386 . S
C2928 C2930 1.391 . S
C2929 C2928 1.386 . S
C2929 C2933 1.393 . S
C2930 H2922 0.950 . S
C2930 C2928 1.391 . S
C2930 C2931 1.400 . S
C2931 C2930 1.400 . S
C2931 C2932 1.398 . S
C2931 C2937 1.491 . S
C2932 H2923 0.950 . S
C2932 C2931 1.398 . S
C2932 C2933 1.391 . S
C2933 H2921 0.950 . S
C2933 C2929 1.393 . S
C2933 C2932 1.391 . S
C2934 H2924 0.950 . S
C2934 C2935 1.386 . S
C2934 C2936 1.391 . S
C2935 C2934 1.386 . S
C2935 C2939 1.393 . S
C2936 H2925 0.950 . S
C2936 C2934 1.391 . S
C2936 C2937 1.400 . S
C2937 C2931 1.491 . S
C2937 C2936 1.400 . S
C2937 C2938 1.398 . S
C2938 H2926 0.950 . S
C2938 C2937 1.398 . S
C2938 C2939 1.391 . S
C2939 H2927 0.950 . S
C2939 C2935 1.393 . S
C2939 C2938 1.391 . S
H2940 C2948 0.950 . S
H2941 C2953 0.950 . S
H2942 C2950 0.950 . S
H2943 C2952 0.950 . S
H2944 C2954 0.950 . S
H2945 C2956 0.950 . S
H2946 C2958 0.950 . S
H2947 C2959 0.950 . S
C2948 H2940 0.950 . S
C2948 C2949 1.386 . S
C2948 C2950 1.391 . S
C2949 C2948 1.386 . S
C2949 C2953 1.393 . S
C2950 H2942 0.950 . S
C2950 C2948 1.391 . S
C2950 C2951 1.400 . S
C2951 C2950 1.400 . S
C2951 C2952 1.398 . S
C2951 C2957 1.491 . S
C2952 H2943 0.950 . S
C2952 C2951 1.398 . S
C2952 C2953 1.391 . S
C2953 H2941 0.950 . S
C2953 C2949 1.393 . S
C2953 C2952 1.391 . S
C2954 H2944 0.950 . S
C2954 C2955 1.386 . S
C2954 C2956 1.391 . S
C2955 C2954 1.386 . S
C2955 C2959 1.393 . S
C2956 H2945 0.950 . S
C2956 C2954 1.391 . S
C2956 C2957 1.400 . S
C2957 C2951 1.491 . S
C2957 C2956 1.400 . S
C2957 C2958 1.398 . S
C2958 H2946 0.950 . S
C2958 C2957 1.398 . S
C2958 C2959 1.391 . S
C2959 H2947 0.950 . S
C2959 C2955 1.393 . S
C2959 C2958 1.391 . S
H2960 C2968 0.950 . S
H2961 C2973 0.950 . S
H2962 C2970 0.950 . S
H2963 C2972 0.950 . S
H2964 C2974 0.950 . S
H2965 C2976 0.950 . S
H2966 C2978 0.950 . S
H2967 C2979 0.950 . S
C2968 H2960 0.950 . S
C2968 C2969 1.386 . S
C2968 C2970 1.391 . S
C2969 C2968 1.386 . S
C2969 C2973 1.393 . S
C2970 H2962 0.950 . S
C2970 C2968 1.391 . S
C2970 C2971 1.400 . S
C2971 C2970 1.400 . S
C2971 C2972 1.398 . S
C2971 C2977 1.491 . S
C2972 H2963 0.950 . S
C2972 C2971 1.398 . S
C2972 C2973 1.391 . S
C2973 H2961 0.950 . S
C2973 C2969 1.393 . S
C2973 C2972 1.391 . S
C2974 H2964 0.950 . S
C2974 C2975 1.386 . S
C2974 C2976 1.391 . S
C2975 C2974 1.386 . S
C2975 C2979 1.393 . S
C2976 H2965 0.950 . S
C2976 C2974 1.391 . S
C2976 C2977 1.400 . S
C2977 C2971 1.491 . S
C2977 C2976 1.400 . S
C2977 C2978 1.398 . S
C2978 H2966 0.950 . S
C2978 C2977 1.398 . S
C2978 C2979 1.391 . S
C2979 H2967 0.950 . S
C2979 C2975 1.393 . S
C2979 C2978 1.391 . S
H2980 C2988 0.950 . S
H2981 C2993 0.950 . S
H2982 C2990 0.950 . S
H2983 C2992 0.950 . S
H2984 C2994 0.950 . S
H2985 C2996 0.950 . S
H2986 C2998 0.950 . S
H2987 C2999 0.950 . S
C2988 H2980 0.950 . S
C2988 C2989 1.386 . S
C2988 C2990 1.391 . S
C2989 C2988 1.386 . S
C2989 C2993 1.393 . S
C2990 H2982 0.950 . S
C2990 C2988 1.391 . S
C2990 C2991 1.400 . S
C2991 C2990 1.400 . S
C2991 C2992 1.398 . S
C2991 C2997 1.491 . S
C2992 H2983 0.950 . S
C2992 C2991 1.398 . S
C2992 C2993 1.391 . S
C2993 H2981 0.950 . S
C2993 C2989 1.393 . S
C2993 C2992 1.391 . S
C2994 H2984 0.950 . S
C2994 C2995 1.386 . S
C2994 C2996 1.391 . S
C2995 C2994 1.386 . S
C2995 C2999 1.393 . S
C2996 H2985 0.950 . S
C2996 C2994 1.391 . S
C2996 C2997 1.400 . S
C2997 C2991 1.491 . S
C2997 C2996 1.400 . S
C2997 C2998 1.398 . S
C2998 H2986 0.950 . S
C2998 C2997 1.398 . S
C2998 C2999 1.391 . S
C2999 H2987 0.950 . S
C2999 C2995 1.393 . S
C2999 C2998 1.391 . S
H3000 C3008 0.950 . S
H3001 C3013 0.950 . S
H3002 C3010 0.950 . S
H3003 C3012 0.950 . S
H3004 C3014 0.950 . S
H3005 C3016 0.950 . S
H3006 C3018 0.950 . S
H3007 C3019 0.950 . S
C3008 H3000 0.950 . S
C3008 C3009 1.386 . S
C3008 C3010 1.391 . S
C3009 C3008 1.386 . S
C3009 C3013 1.393 . S
C3010 H3002 0.950 . S
C3010 C3008 1.391 . S
C3010 C3011 1.400 . S
C3011 C3010 1.400 . S
C3011 C3012 1.398 . S
C3011 C3017 1.491 . S
C3012 H3003 0.950 . S
C3012 C3011 1.398 . S
C3012 C3013 1.391 . S
C3013 H3001 0.950 . S
C3013 C3009 1.393 . S
C3013 C3012 1.391 . S
C3014 H3004 0.950 . S
C3014 C3015 1.386 . S
C3014 C3016 1.391 . S
C3015 C3014 1.386 . S
C3015 C3019 1.393 . S
C3016 H3005 0.950 . S
C3016 C3014 1.391 . S
C3016 C3017 1.400 . S
C3017 C3011 1.491 . S
C3017 C3016 1.400 . S
C3017 C3018 1.398 . S
C3018 H3006 0.950 . S
C3018 C3017 1.398 . S
C3018 C3019 1.391 . S
C3019 H3007 0.950 . S
C3019 C3015 1.393 . S
C3019 C3018 1.391 . S
H3020 C3028 0.950 . S
H3021 C3033 0.950 . S
H3022 C3030 0.950 . S
H3023 C3032 0.950 1_545 S
H3024 C3034 0.950 . S
H3025 C3036 0.950 . S
H3026 C3038 0.950 . S
H3027 C3039 0.950 . S
C3028 H3020 0.950 . S
C3028 C3029 1.386 . S
C3028 C3030 1.391 . S
C3029 C3028 1.386 . S
C3029 C3033 1.393 . S
C3030 H3022 0.950 . S
C3030 C3028 1.391 . S
C3030 C3031 1.400 . S
C3031 C3030 1.400 . S
C3031 C3032 1.398 . S
C3031 C3037 1.491 . S
C3032 H3023 0.950 1_565 S
C3032 C3031 1.398 . S
C3032 C3033 1.391 . S
C3033 H3021 0.950 . S
C3033 C3029 1.393 . S
C3033 C3032 1.391 . S
C3034 H3024 0.950 . S
C3034 C3035 1.386 . S
C3034 C3036 1.391 . S
C3035 C3034 1.386 . S
C3035 C3039 1.393 1_545 S
C3036 H3025 0.950 . S
C3036 C3034 1.391 . S
C3036 C3037 1.400 1_545 S
C3037 C3031 1.491 . S
C3037 C3036 1.400 1_565 S
C3037 C3038 1.398 . S
C3038 H3026 0.950 . S
C3038 C3037 1.398 . S
C3038 C3039 1.391 . S
C3039 H3027 0.950 . S
C3039 C3035 1.393 1_565 S
C3039 C3038 1.391 . S
H3040 C3048 0.950 . S
H3041 C3053 0.950 . S
H3042 C3050 0.950 . S
H3043 C3052 0.950 . S
H3044 C3054 0.950 . S
H3045 C3056 0.950 . S
H3046 C3058 0.950 . S
H3047 C3059 0.950 . S
C3048 H3040 0.950 . S
C3048 C3049 1.386 . S
C3048 C3050 1.391 . S
C3049 C3048 1.386 . S
C3049 C3053 1.393 . S
C3050 H3042 0.950 . S
C3050 C3048 1.391 . S
C3050 C3051 1.400 . S
C3051 C3050 1.400 . S
C3051 C3052 1.398 . S
C3051 C3057 1.491 . S
C3052 H3043 0.950 . S
C3052 C3051 1.398 . S
C3052 C3053 1.391 . S
C3053 H3041 0.950 . S
C3053 C3049 1.393 . S
C3053 C3052 1.391 . S
C3054 H3044 0.950 . S
C3054 C3055 1.386 . S
C3054 C3056 1.391 . S
C3055 C3054 1.386 . S
C3055 C3059 1.393 . S
C3056 H3045 0.950 . S
C3056 C3054 1.391 . S
C3056 C3057 1.400 . S
C3057 C3051 1.491 . S
C3057 C3056 1.400 . S
C3057 C3058 1.398 . S
C3058 H3046 0.950 . S
C3058 C3057 1.398 . S
C3058 C3059 1.391 . S
C3059 H3047 0.950 . S
C3059 C3055 1.393 . S
C3059 C3058 1.391 . S
H3060 C3068 0.950 . S
H3061 C3073 0.950 . S
H3062 C3070 0.950 . S
H3063 C3072 0.950 . S
H3064 C3074 0.950 1_556 S
H3065 C3076 0.950 1_556 S
H3066 C3078 0.950 . S
H3067 C3079 0.950 . S
C3068 H3060 0.950 . S
C3068 C3069 1.386 . S
C3068 C3070 1.391 . S
C3069 C3068 1.386 . S
C3069 C3073 1.393 1_554 S
C3070 H3062 0.950 . S
C3070 C3068 1.391 . S
C3070 C3071 1.400 . S
C3071 C3070 1.400 . S
C3071 C3072 1.398 1_554 S
C3071 C3077 1.491 . S
C3072 H3063 0.950 . S
C3072 C3071 1.398 1_556 S
C3072 C3073 1.391 . S
C3073 H3061 0.950 . S
C3073 C3069 1.393 1_556 S
C3073 C3072 1.391 . S
C3074 H3064 0.950 1_554 S
C3074 C3075 1.386 . S
C3074 C3076 1.391 . S
C3075 C3074 1.386 . S
C3075 C3079 1.393 . S
C3076 H3065 0.950 1_554 S
C3076 C3074 1.391 . S
C3076 C3077 1.400 . S
C3077 C3071 1.491 . S
C3077 C3076 1.400 . S
C3077 C3078 1.398 . S
C3078 H3066 0.950 . S
C3078 C3077 1.398 . S
C3078 C3079 1.391 . S
C3079 H3067 0.950 . S
C3079 C3075 1.393 . S
C3079 C3078 1.391 . S
H3080 C3088 0.950 . S
H3081 C3093 0.950 . S
H3082 C3090 0.950 . S
H3083 C3092 0.950 . S
H3084 C3094 0.950 . S
H3085 C3096 0.950 . S
H3086 C3098 0.950 . S
H3087 C3099 0.950 . S
C3088 H3080 0.950 . S
C3088 C3089 1.386 . S
C3088 C3090 1.391 . S
C3089 C3088 1.386 . S
C3089 C3093 1.393 . S
C3090 H3082 0.950 . S
C3090 C3088 1.391 . S
C3090 C3091 1.400 . S
C3091 C3090 1.400 . S
C3091 C3092 1.398 . S
C3091 C3097 1.491 . S
C3092 H3083 0.950 . S
C3092 C3091 1.398 . S
C3092 C3093 1.391 . S
C3093 H3081 0.950 . S
C3093 C3089 1.393 . S
C3093 C3092 1.391 . S
C3094 H3084 0.950 . S
C3094 C3095 1.386 . S
C3094 C3096 1.391 . S
C3095 C3094 1.386 . S
C3095 C3099 1.393 . S
C3096 H3085 0.950 . S
C3096 C3094 1.391 . S
C3096 C3097 1.400 . S
C3097 C3091 1.491 . S
C3097 C3096 1.400 . S
C3097 C3098 1.398 . S
C3098 H3086 0.950 . S
C3098 C3097 1.398 . S
C3098 C3099 1.391 . S
C3099 H3087 0.950 . S
C3099 C3095 1.393 . S
C3099 C3098 1.391 . S
H3100 C3108 0.950 . S
H3101 C3113 0.950 . S
H3102 C3110 0.950 . S
H3103 C3112 0.950 . S
H3104 C3114 0.950 . S
H3105 C3116 0.950 . S
H3106 C3118 0.950 . S
H3107 C3119 0.950 . S
C3108 H3100 0.950 . S
C3108 C3109 1.386 . S
C3108 C3110 1.391 . S
C3109 C3108 1.386 . S
C3109 C3113 1.393 . S
C3110 H3102 0.950 . S
C3110 C3108 1.391 . S
C3110 C3111 1.400 . S
C3111 C3110 1.400 . S
C3111 C3112 1.398 . S
C3111 C3117 1.491 . S
C3112 H3103 0.950 . S
C3112 C3111 1.398 . S
C3112 C3113 1.391 . S
C3113 H3101 0.950 . S
C3113 C3109 1.393 . S
C3113 C3112 1.391 . S
C3114 H3104 0.950 . S
C3114 C3115 1.386 . S
C3114 C3116 1.391 . S
C3115 C3114 1.386 . S
C3115 C3119 1.393 . S
C3116 H3105 0.950 . S
C3116 C3114 1.391 . S
C3116 C3117 1.400 . S
C3117 C3111 1.491 . S
C3117 C3116 1.400 . S
C3117 C3118 1.398 . S
C3118 H3106 0.950 . S
C3118 C3117 1.398 . S
C3118 C3119 1.391 . S
C3119 H3107 0.950 . S
C3119 C3115 1.393 . S
C3119 C3118 1.391 . S
H3120 C3128 0.950 . S
H3121 C3133 0.950 . S
H3122 C3130 0.950 . S
H3123 C3132 0.950 . S
H3124 C3134 0.950 . S
H3125 C3136 0.950 . S
H3126 C3138 0.950 . S
H3127 C3139 0.950 . S
C3128 H3120 0.950 . S
C3128 C3129 1.386 . S
C3128 C3130 1.391 . S
C3129 C3128 1.386 . S
C3129 C3133 1.393 . S
C3130 H3122 0.950 . S
C3130 C3128 1.391 . S
C3130 C3131 1.400 . S
C3131 C3130 1.400 . S
C3131 C3132 1.398 . S
C3131 C3137 1.491 . S
C3132 H3123 0.950 . S
C3132 C3131 1.398 . S
C3132 C3133 1.391 . S
C3133 H3121 0.950 . S
C3133 C3129 1.393 . S
C3133 C3132 1.391 . S
C3134 H3124 0.950 . S
C3134 C3135 1.386 . S
C3134 C3136 1.391 . S
C3135 C3134 1.386 . S
C3135 C3139 1.393 . S
C3136 H3125 0.950 . S
C3136 C3134 1.391 . S
C3136 C3137 1.400 . S
C3137 C3131 1.491 . S
C3137 C3136 1.400 . S
C3137 C3138 1.398 . S
C3138 H3126 0.950 . S
C3138 C3137 1.398 . S
C3138 C3139 1.391 . S
C3139 H3127 0.950 . S
C3139 C3135 1.393 . S
C3139 C3138 1.391 . S
H3140 C3148 0.950 . S
H3141 C3153 0.950 . S
H3142 C3150 0.950 . S
H3143 C3152 0.950 . S
H3144 C3154 0.950 . S
H3145 C3156 0.950 . S
H3146 C3158 0.950 . S
H3147 C3159 0.950 . S
C3148 H3140 0.950 . S
C3148 C3149 1.386 . S
C3148 C3150 1.391 . S
C3149 C3148 1.386 . S
C3149 C3153 1.393 . S
C3150 H3142 0.950 . S
C3150 C3148 1.391 . S
C3150 C3151 1.400 . S
C3151 C3150 1.400 . S
C3151 C3152 1.398 . S
C3151 C3157 1.491 . S
C3152 H3143 0.950 . S
C3152 C3151 1.398 . S
C3152 C3153 1.391 . S
C3153 H3141 0.950 . S
C3153 C3149 1.393 . S
C3153 C3152 1.391 . S
C3154 H3144 0.950 . S
C3154 C3155 1.386 . S
C3154 C3156 1.391 . S
C3155 C3154 1.386 . S
C3155 C3159 1.393 . S
C3156 H3145 0.950 . S
C3156 C3154 1.391 . S
C3156 C3157 1.400 . S
C3157 C3151 1.491 . S
C3157 C3156 1.400 . S
C3157 C3158 1.398 . S
C3158 H3146 0.950 . S
C3158 C3157 1.398 . S
C3158 C3159 1.391 . S
C3159 H3147 0.950 . S
C3159 C3155 1.393 . S
C3159 C3158 1.391 . S
H3160 C3168 0.950 . S
H3161 C3173 0.950 . S
H3162 C3170 0.950 . S
H3163 C3172 0.950 . S
H3164 C3174 0.950 . S
H3165 C3176 0.950 . S
H3166 C3178 0.950 . S
H3167 C3179 0.950 . S
C3168 H3160 0.950 . S
C3168 C3169 1.386 . S
C3168 C3170 1.391 . S
C3169 C3168 1.386 . S
C3169 C3173 1.393 . S
C3170 H3162 0.950 . S
C3170 C3168 1.391 . S
C3170 C3171 1.400 . S
C3171 C3170 1.400 . S
C3171 C3172 1.398 . S
C3171 C3177 1.491 . S
C3172 H3163 0.950 . S
C3172 C3171 1.398 . S
C3172 C3173 1.391 . S
C3173 H3161 0.950 . S
C3173 C3169 1.393 . S
C3173 C3172 1.391 . S
C3174 H3164 0.950 . S
C3174 C3175 1.386 . S
C3174 C3176 1.391 . S
C3175 C3174 1.386 . S
C3175 C3179 1.393 . S
C3176 H3165 0.950 . S
C3176 C3174 1.391 . S
C3176 C3177 1.400 . S
C3177 C3171 1.491 . S
C3177 C3176 1.400 . S
C3177 C3178 1.398 . S
C3178 H3166 0.950 . S
C3178 C3177 1.398 . S
C3178 C3179 1.391 . S
C3179 H3167 0.950 . S
C3179 C3175 1.393 . S
C3179 C3178 1.391 . S
H3180 C3188 0.950 . S
H3181 C3193 0.950 . S
H3182 C3190 0.950 . S
H3183 C3192 0.950 . S
H3184 C3194 0.950 . S
H3185 C3196 0.950 . S
H3186 C3198 0.950 . S
H3187 C3199 0.950 . S
C3188 H3180 0.950 . S
C3188 C3189 1.386 . S
C3188 C3190 1.391 . S
C3189 C3188 1.386 . S
C3189 C3193 1.393 . S
C3190 H3182 0.950 . S
C3190 C3188 1.391 . S
C3190 C3191 1.400 . S
C3191 C3190 1.400 . S
C3191 C3192 1.398 . S
C3191 C3197 1.491 . S
C3192 H3183 0.950 . S
C3192 C3191 1.398 . S
C3192 C3193 1.391 . S
C3193 H3181 0.950 . S
C3193 C3189 1.393 . S
C3193 C3192 1.391 . S
C3194 H3184 0.950 . S
C3194 C3195 1.386 . S
C3194 C3196 1.391 . S
C3195 C3194 1.386 . S
C3195 C3199 1.393 . S
C3196 H3185 0.950 . S
C3196 C3194 1.391 . S
C3196 C3197 1.400 . S
C3197 C3191 1.491 . S
C3197 C3196 1.400 . S
C3197 C3198 1.398 . S
C3198 H3186 0.950 . S
C3198 C3197 1.398 . S
C3198 C3199 1.391 . S
C3199 H3187 0.950 . S
C3199 C3195 1.393 . S
C3199 C3198 1.391 . S
H3200 C3208 0.950 . S
H3201 C3213 0.950 . S
H3202 C3210 0.950 . S
H3203 C3212 0.950 . S
H3204 C3214 0.923 1_554 S
H3205 C3216 0.950 . S
H3206 C3218 0.950 . S
H3207 C3219 0.950 . S
C3208 H3200 0.950 . S
C3208 C3209 1.386 . S
C3208 C3210 1.391 . S
C3209 C3208 1.386 . S
C3209 C3213 1.393 . S
C3210 H3202 0.950 . S
C3210 C3208 1.391 . S
C3210 C3211 1.400 . S
C3211 C3210 1.400 . S
C3211 C3212 1.398 . S
C3211 C3217 1.491 . S
C3212 H3203 0.950 . S
C3212 C3211 1.398 . S
C3212 C3213 1.391 . S
C3213 H3201 0.950 . S
C3213 C3209 1.393 . S
C3213 C3212 1.391 . S
C3214 H3204 0.923 1_556 S
C3214 C3215 1.386 . S
C3214 C3216 1.391 . S
C3215 C3214 1.386 . S
C3215 C3219 1.393 . S
C3216 H3205 0.950 . S
C3216 C3214 1.391 . S
C3216 C3217 1.400 . S
C3217 C3211 1.491 . S
C3217 C3216 1.400 . S
C3217 C3218 1.398 . S
C3218 H3206 0.950 . S
C3218 C3217 1.398 . S
C3218 C3219 1.391 . S
C3219 H3207 0.950 . S
C3219 C3215 1.393 . S
C3219 C3218 1.391 . S
H3220 C3228 0.950 . S
H3221 C3233 0.950 . S
H3222 C3230 0.950 . S
H3223 C3232 0.950 . S
H3224 C3234 0.950 . S
H3225 C3236 0.950 . S
H3226 C3238 0.950 . S
H3227 C3239 0.950 . S
C3228 H3220 0.950 . S
C3228 C3229 1.386 . S
C3228 C3230 1.391 . S
C3229 C3228 1.386 . S
C3229 C3233 1.393 . S
C3230 H3222 0.950 . S
C3230 C3228 1.391 . S
C3230 C3231 1.400 . S
C3231 C3230 1.400 . S
C3231 C3232 1.398 . S
C3231 C3237 1.491 . S
C3232 H3223 0.950 . S
C3232 C3231 1.398 . S
C3232 C3233 1.391 . S
C3233 H3221 0.950 . S
C3233 C3229 1.393 . S
C3233 C3232 1.391 . S
C3234 H3224 0.950 . S
C3234 C3235 1.386 . S
C3234 C3236 1.391 . S
C3235 C3234 1.386 . S
C3235 C3239 1.393 . S
C3236 H3225 0.950 . S
C3236 C3234 1.391 . S
C3236 C3237 1.400 . S
C3237 C3231 1.491 . S
C3237 C3236 1.400 . S
C3237 C3238 1.398 . S
C3238 H3226 0.950 . S
C3238 C3237 1.398 . S
C3238 C3239 1.391 . S
C3239 H3227 0.950 . S
C3239 C3235 1.393 . S
C3239 C3238 1.391 . S
H3240 C3248 0.950 . S
H3241 C3253 0.950 . S
H3242 C3250 0.950 . S
H3243 C3252 0.950 . S
H3244 C3254 0.950 . S
H3245 C3256 0.950 . S
H3246 C3258 0.950 . S
H3247 C3259 0.950 . S
C3248 H3240 0.950 . S
C3248 C3249 1.386 . S
C3248 C3250 1.391 . S
C3249 C3248 1.386 . S
C3249 C3253 1.393 . S
C3250 H3242 0.950 . S
C3250 C3248 1.391 . S
C3250 C3251 1.400 . S
C3251 C3250 1.400 . S
C3251 C3252 1.398 . S
C3251 C3257 1.491 . S
C3252 H3243 0.950 . S
C3252 C3251 1.398 . S
C3252 C3253 1.391 . S
C3253 H3241 0.950 . S
C3253 C3249 1.393 . S
C3253 C3252 1.391 . S
C3254 H3244 0.950 . S
C3254 C3255 1.386 . S
C3254 C3256 1.391 . S
C3255 C3254 1.386 . S
C3255 C3259 1.393 . S
C3256 H3245 0.950 . S
C3256 C3254 1.391 . S
C3256 C3257 1.400 . S
C3257 C3251 1.491 . S
C3257 C3256 1.400 . S
C3257 C3258 1.398 . S
C3258 H3246 0.950 . S
C3258 C3257 1.398 . S
C3258 C3259 1.391 . S
C3259 H3247 0.950 . S
C3259 C3255 1.393 . S
C3259 C3258 1.391 . S
H3260 C3268 0.950 . S
H3261 C3273 0.950 . S
H3262 C3270 0.950 . S
H3263 C3272 0.950 . S
H3264 C3274 0.950 . S
H3265 C3276 0.950 . S
H3266 C3278 0.950 . S
H3267 C3279 0.950 . S
C3268 H3260 0.950 . S
C3268 C3269 1.386 . S
C3268 C3270 1.391 . S
C3269 C3268 1.386 . S
C3269 C3273 1.393 . S
C3270 H3262 0.950 . S
C3270 C3268 1.391 . S
C3270 C3271 1.400 . S
C3271 C3270 1.400 . S
C3271 C3272 1.398 . S
C3271 C3277 1.491 . S
C3272 H3263 0.950 . S
C3272 C3271 1.398 . S
C3272 C3273 1.391 . S
C3273 H3261 0.950 . S
C3273 C3269 1.393 . S
C3273 C3272 1.391 . S
C3274 H3264 0.950 . S
C3274 C3275 1.386 . S
C3274 C3276 1.391 . S
C3275 C3274 1.386 . S
C3275 C3279 1.393 . S
C3276 H3265 0.950 . S
C3276 C3274 1.391 . S
C3276 C3277 1.400 . S
C3277 C3271 1.491 . S
C3277 C3276 1.400 . S
C3277 C3278 1.398 . S
C3278 H3266 0.950 . S
C3278 C3277 1.398 . S
C3278 C3279 1.391 . S
C3279 H3267 0.950 . S
C3279 C3275 1.393 . S
C3279 C3278 1.391 . S
H3280 C3288 0.950 . S
H3281 C3293 0.950 . S
H3282 C3290 0.950 . S
H3283 C3292 0.950 . S
H3284 C3294 0.950 . S
H3285 C3296 0.950 . S
H3286 C3298 0.950 . S
H3287 C3299 0.950 . S
C3288 H3280 0.950 . S
C3288 C3289 1.386 . S
C3288 C3290 1.391 . S
C3289 C3288 1.386 . S
C3289 C3293 1.393 . S
C3290 H3282 0.950 . S
C3290 C3288 1.391 . S
C3290 C3291 1.400 . S
C3291 C3290 1.400 . S
C3291 C3292 1.398 . S
C3291 C3297 1.491 . S
C3292 H3283 0.950 . S
C3292 C3291 1.398 . S
C3292 C3293 1.391 . S
C3293 H3281 0.950 . S
C3293 C3289 1.393 . S
C3293 C3292 1.391 . S
C3294 H3284 0.950 . S
C3294 C3295 1.386 . S
C3294 C3296 1.391 . S
C3295 C3294 1.386 . S
C3295 C3299 1.393 . S
C3296 H3285 0.950 . S
C3296 C3294 1.391 . S
C3296 C3297 1.400 . S
C3297 C3291 1.491 . S
C3297 C3296 1.400 . S
C3297 C3298 1.398 . S
C3298 H3286 0.950 . S
C3298 C3297 1.398 . S
C3298 C3299 1.391 . S
C3299 H3287 0.950 . S
C3299 C3295 1.393 . S
C3299 C3298 1.391 . S
H3300 C3308 0.950 . S
H3301 C3313 0.950 . S
H3302 C3310 0.950 . S
H3303 C3312 0.950 . S
H3304 C3314 0.950 . S
H3305 C3316 0.950 . S
H3306 C3318 0.950 . S
H3307 C3319 0.950 . S
C3308 H3300 0.950 . S
C3308 C3309 1.386 . S
C3308 C3310 1.391 . S
C3309 C3308 1.386 . S
C3309 C3313 1.393 . S
C3310 H3302 0.950 . S
C3310 C3308 1.391 . S
C3310 C3311 1.400 . S
C3311 C3310 1.400 . S
C3311 C3312 1.398 . S
C3311 C3317 1.491 . S
C3312 H3303 0.950 . S
C3312 C3311 1.398 . S
C3312 C3313 1.391 . S
C3313 H3301 0.950 . S
C3313 C3309 1.393 . S
C3313 C3312 1.391 . S
C3314 H3304 0.950 . S
C3314 C3315 1.386 . S
C3314 C3316 1.391 . S
C3315 C3314 1.386 . S
C3315 C3319 1.393 . S
C3316 H3305 0.950 . S
C3316 C3314 1.391 . S
C3316 C3317 1.400 . S
C3317 C3311 1.491 . S
C3317 C3316 1.400 . S
C3317 C3318 1.398 . S
C3318 H3306 0.950 . S
C3318 C3317 1.398 . S
C3318 C3319 1.391 . S
C3319 H3307 0.950 . S
C3319 C3315 1.393 . S
C3319 C3318 1.391 . S
H3320 C3328 0.950 . S
H3321 C3333 0.950 . S
H3322 C3330 0.950 . S
H3323 C3332 0.950 . S
H3324 C3334 0.950 . S
H3325 C3336 0.950 . S
H3326 C3338 0.950 . S
H3327 C3339 0.950 . S
C3328 H3320 0.950 . S
C3328 C3329 1.386 . S
C3328 C3330 1.391 . S
C3329 C3328 1.386 . S
C3329 C3333 1.393 . S
C3330 H3322 0.950 . S
C3330 C3328 1.391 . S
C3330 C3331 1.400 . S
C3331 C3330 1.400 . S
C3331 C3332 1.398 . S
C3331 C3337 1.491 . S
C3332 H3323 0.950 . S
C3332 C3331 1.398 . S
C3332 C3333 1.391 . S
C3333 H3321 0.950 . S
C3333 C3329 1.393 . S
C3333 C3332 1.391 . S
C3334 H3324 0.950 . S
C3334 C3335 1.386 . S
C3334 C3336 1.391 . S
C3335 C3334 1.386 . S
C3335 C3339 1.393 . S
C3336 H3325 0.950 . S
C3336 C3334 1.391 . S
C3336 C3337 1.400 1_455 S
C3337 C3331 1.491 . S
C3337 C3336 1.400 1_655 S
C3337 C3338 1.398 . S
C3338 H3326 0.950 . S
C3338 C3337 1.398 . S
C3338 C3339 1.391 1_655 S
C3339 H3327 0.950 . S
C3339 C3335 1.393 . S
C3339 C3338 1.391 1_455 S
H3340 C3348 0.950 . S
H3341 C3353 0.950 . S
H3342 C3350 0.950 . S
H3343 C3352 0.950 . S
H3344 C3354 0.950 . S
H3345 C3356 0.950 . S
H3346 C3358 0.950 . S
H3347 C3359 0.950 . S
C3348 H3340 0.950 . S
C3348 C3349 1.386 . S
C3348 C3350 1.391 . S
C3349 C3348 1.386 . S
C3349 C3353 1.393 . S
C3350 H3342 0.950 . S
C3350 C3348 1.391 . S
C3350 C3351 1.400 . S
C3351 C3350 1.400 . S
C3351 C3352 1.398 . S
C3351 C3357 1.491 . S
C3352 H3343 0.950 . S
C3352 C3351 1.398 . S
C3352 C3353 1.391 . S
C3353 H3341 0.950 . S
C3353 C3349 1.393 . S
C3353 C3352 1.391 . S
C3354 H3344 0.950 . S
C3354 C3355 1.386 . S
C3354 C3356 1.391 . S
C3355 C3354 1.386 . S
C3355 C3359 1.393 . S
C3356 H3345 0.950 . S
C3356 C3354 1.391 . S
C3356 C3357 1.400 . S
C3357 C3351 1.491 . S
C3357 C3356 1.400 . S
C3357 C3358 1.398 . S
C3358 H3346 0.950 . S
C3358 C3357 1.398 . S
C3358 C3359 1.391 . S
C3359 H3347 0.950 . S
C3359 C3355 1.393 . S
C3359 C3358 1.391 . S
H3360 C3368 0.950 . S
H3361 C3373 0.950 . S
H3362 C3370 0.950 . S
H3363 C3372 0.950 . S
H3364 C3374 0.950 . S
H3365 C3376 0.950 . S
H3366 C3378 0.950 . S
H3367 C3379 0.950 . S
C3368 H3360 0.950 . S
C3368 C3369 1.386 . S
C3368 C3370 1.391 . S
C3369 C3368 1.386 . S
C3369 C3373 1.393 . S
C3370 H3362 0.950 . S
C3370 C3368 1.391 . S
C3370 C3371 1.400 . S
C3371 C3370 1.400 . S
C3371 C3372 1.398 . S
C3371 C3377 1.491 . S
C3372 H3363 0.950 . S
C3372 C3371 1.398 . S
C3372 C3373 1.391 . S
C3373 H3361 0.950 . S
C3373 C3369 1.393 . S
C3373 C3372 1.391 . S
C3374 H3364 0.950 . S
C3374 C3375 1.386 . S
C3374 C3376 1.391 . S
C3375 C3374 1.386 . S
C3375 C3379 1.393 . S
C3376 H3365 0.950 . S
C3376 C3374 1.391 . S
C3376 C3377 1.400 . S
C3377 C3371 1.491 . S
C3377 C3376 1.400 . S
C3377 C3378 1.398 . S
C3378 H3366 0.950 . S
C3378 C3377 1.398 . S
C3378 C3379 1.391 . S
C3379 H3367 0.950 . S
C3379 C3375 1.393 . S
C3379 C3378 1.391 . S
H3380 C3388 0.950 . S
H3381 C3393 0.950 . S
H3382 C3390 0.950 . S
H3383 C3392 0.950 . S
H3384 C3394 0.950 . S
H3385 C3396 0.950 . S
H3386 C3398 0.950 . S
H3387 C3399 0.950 . S
C3388 H3380 0.950 . S
C3388 C3389 1.386 . S
C3388 C3390 1.391 . S
C3389 C3388 1.386 . S
C3389 C3393 1.393 . S
C3390 H3382 0.950 . S
C3390 C3388 1.391 . S
C3390 C3391 1.400 . S
C3391 C3390 1.400 . S
C3391 C3392 1.398 . S
C3391 C3397 1.491 . S
C3392 H3383 0.950 . S
C3392 C3391 1.398 . S
C3392 C3393 1.391 . S
C3393 H3381 0.950 . S
C3393 C3389 1.393 . S
C3393 C3392 1.391 . S
C3394 H3384 0.950 . S
C3394 C3395 1.386 . S
C3394 C3396 1.391 . S
C3395 C3394 1.386 . S
C3395 C3399 1.393 . S
C3396 H3385 0.950 . S
C3396 C3394 1.391 . S
C3396 C3397 1.400 . S
C3397 C3391 1.491 . S
C3397 C3396 1.400 . S
C3397 C3398 1.398 . S
C3398 H3386 0.950 . S
C3398 C3397 1.398 . S
C3398 C3399 1.391 . S
C3399 H3387 0.950 . S
C3399 C3395 1.393 . S
C3399 C3398 1.391 . S
H3400 C3408 0.950 . S
H3401 C3413 0.950 . S
H3402 C3410 0.950 . S
H3403 C3412 0.950 . S
H3404 C3414 0.950 1_455 S
H3405 C3416 0.950 . S
H3406 C3418 0.950 . S
H3407 C3419 0.950 . S
C3408 H3400 0.950 . S
C3408 C3409 1.386 . S
C3408 C3410 1.391 . S
C3409 C3408 1.386 . S
C3409 C3413 1.393 . S
C3410 H3402 0.950 . S
C3410 C3408 1.391 . S
C3410 C3411 1.400 . S
C3411 C3410 1.400 . S
C3411 C3412 1.398 . S
C3411 C3417 1.491 . S
C3412 H3403 0.950 . S
C3412 C3411 1.398 . S
C3412 C3413 1.391 . S
C3413 H3401 0.950 . S
C3413 C3409 1.393 . S
C3413 C3412 1.391 . S
C3414 H3404 0.950 1_655 S
C3414 C3415 1.386 . S
C3414 C3416 1.391 . S
C3415 C3414 1.386 . S
C3415 C3419 1.393 . S
C3416 H3405 0.950 . S
C3416 C3414 1.391 . S
C3416 C3417 1.400 . S
C3417 C3411 1.491 . S
C3417 C3416 1.400 . S
C3417 C3418 1.398 . S
C3418 H3406 0.950 . S
C3418 C3417 1.398 . S
C3418 C3419 1.391 . S
C3419 H3407 0.950 . S
C3419 C3415 1.393 . S
C3419 C3418 1.391 . S
H3420 C3428 0.950 . S
H3421 C3433 0.950 . S
H3422 C3430 0.950 . S
H3423 C3432 0.950 . S
H3424 C3434 0.950 . S
H3425 C3436 0.950 . S
H3426 C3438 0.950 . S
H3427 C3439 0.950 . S
C3428 H3420 0.950 . S
C3428 C3429 1.386 . S
C3428 C3430 1.391 . S
C3429 C3428 1.386 . S
C3429 C3433 1.393 . S
C3430 H3422 0.950 . S
C3430 C3428 1.391 . S
C3430 C3431 1.400 . S
C3431 C3430 1.400 . S
C3431 C3432 1.398 . S
C3431 C3437 1.491 . S
C3432 H3423 0.950 . S
C3432 C3431 1.398 . S
C3432 C3433 1.391 . S
C3433 H3421 0.950 . S
C3433 C3429 1.393 . S
C3433 C3432 1.391 . S
C3434 H3424 0.950 . S
C3434 C3435 1.386 . S
C3434 C3436 1.391 . S
C3435 C3434 1.386 . S
C3435 C3439 1.393 . S
C3436 H3425 0.950 . S
C3436 C3434 1.391 . S
C3436 C3437 1.400 . S
C3437 C3431 1.491 . S
C3437 C3436 1.400 . S
C3437 C3438 1.398 . S
C3438 H3426 0.950 . S
C3438 C3437 1.398 . S
C3438 C3439 1.391 . S
C3439 H3427 0.950 . S
C3439 C3435 1.393 . S
C3439 C3438 1.391 . S
H3440 C3448 0.950 . S
H3441 C3453 0.950 . S
H3442 C3450 0.950 . S
H3443 C3452 0.950 . S
H3444 C3454 0.950 . S
H3445 C3456 0.950 . S
H3446 C3458 0.950 . S
H3447 C3459 0.950 . S
C3448 H3440 0.950 . S
C3448 C3449 1.386 . S
C3448 C3450 1.391 . S
C3449 C3448 1.386 . S
C3449 C3453 1.393 . S
C3450 H3442 0.950 . S
C3450 C3448 1.391 . S
C3450 C3451 1.400 . S
C3451 C3450 1.400 . S
C3451 C3452 1.398 . S
C3451 C3457 1.491 . S
C3452 H3443 0.950 . S
C3452 C3451 1.398 . S
C3452 C3453 1.391 . S
C3453 H3441 0.950 . S
C3453 C3449 1.393 . S
C3453 C3452 1.391 . S
C3454 H3444 0.950 . S
C3454 C3455 1.386 . S
C3454 C3456 1.391 . S
C3455 C3454 1.386 . S
C3455 C3459 1.393 . S
C3456 H3445 0.950 . S
C3456 C3454 1.391 . S
C3456 C3457 1.400 . S
C3457 C3451 1.491 . S
C3457 C3456 1.400 . S
C3457 C3458 1.398 . S
C3458 H3446 0.950 . S
C3458 C3457 1.398 . S
C3458 C3459 1.391 . S
C3459 H3447 0.950 . S
C3459 C3455 1.393 . S
C3459 C3458 1.391 . S
H3460 C3468 0.950 . S
H3461 C3473 0.950 . S
H3462 C3470 0.950 . S
H3463 C3472 0.950 . S
H3464 C3474 0.950 . S
H3465 C3476 0.950 . S
H3466 C3478 0.950 . S
H3467 C3479 0.950 . S
C3468 H3460 0.950 . S
C3468 C3469 1.386 . S
C3468 C3470 1.391 . S
C3469 C3468 1.386 . S
C3469 C3473 1.393 . S
C3470 H3462 0.950 . S
C3470 C3468 1.391 . S
C3470 C3471 1.400 . S
C3471 C3470 1.400 . S
C3471 C3472 1.398 . S
C3471 C3477 1.491 . S
C3472 H3463 0.950 . S
C3472 C3471 1.398 . S
C3472 C3473 1.391 . S
C3473 H3461 0.950 . S
C3473 C3469 1.393 . S
C3473 C3472 1.391 . S
C3474 H3464 0.950 . S
C3474 C3475 1.386 1_545 S
C3474 C3476 1.391 1_545 S
C3475 C3474 1.386 1_565 S
C3475 C3479 1.393 . S
C3476 H3465 0.950 . S
C3476 C3474 1.391 1_565 S
C3476 C3477 1.400 . S
C3477 C3471 1.491 . S
C3477 C3476 1.400 . S
C3477 C3478 1.398 . S
C3478 H3466 0.950 . S
C3478 C3477 1.398 . S
C3478 C3479 1.391 . S
C3479 H3467 0.950 . S
C3479 C3475 1.393 . S
C3479 C3478 1.391 . S
H3480 C3488 0.950 . S
H3481 C3493 0.950 . S
H3482 C3490 0.950 . S
H3483 C3492 0.950 . S
H3484 C3494 0.950 . S
H3485 C3496 0.950 . S
H3486 C3498 0.950 . S
H3487 C3499 0.950 . S
C3488 H3480 0.950 . S
C3488 C3489 1.386 . S
C3488 C3490 1.391 . S
C3489 C3488 1.386 . S
C3489 C3493 1.393 . S
C3490 H3482 0.950 . S
C3490 C3488 1.391 . S
C3490 C3491 1.400 . S
C3491 C3490 1.400 . S
C3491 C3492 1.398 . S
C3491 C3497 1.491 . S
C3492 H3483 0.950 . S
C3492 C3491 1.398 . S
C3492 C3493 1.391 . S
C3493 H3481 0.950 . S
C3493 C3489 1.393 . S
C3493 C3492 1.391 . S
C3494 H3484 0.950 . S
C3494 C3495 1.386 . S
C3494 C3496 1.391 . S
C3495 C3494 1.386 . S
C3495 C3499 1.393 . S
C3496 H3485 0.950 . S
C3496 C3494 1.391 . S
C3496 C3497 1.400 . S
C3497 C3491 1.491 . S
C3497 C3496 1.400 . S
C3497 C3498 1.398 . S
C3498 H3486 0.950 . S
C3498 C3497 1.398 . S
C3498 C3499 1.391 . S
C3499 H3487 0.950 . S
C3499 C3495 1.393 . S
C3499 C3498 1.391 . S
H3500 C3508 0.950 . S
H3501 C3513 0.950 1_556 S
H3502 C3510 0.950 . S
H3503 C3512 0.950 1_556 S
H3504 C3514 0.950 . S
H3505 C3516 0.927 1_556 S
H3506 C3518 0.950 . S
H3507 C3519 0.950 . S
C3508 H3500 0.950 . S
C3508 C3509 1.386 . S
C3508 C3510 1.391 . S
C3509 C3508 1.386 . S
C3509 C3513 1.393 . S
C3510 H3502 0.950 . S
C3510 C3508 1.391 . S
C3510 C3511 1.400 . S
C3511 C3510 1.400 . S
C3511 C3512 1.398 . S
C3511 C3517 1.491 . S
C3512 H3503 0.950 1_554 S
C3512 C3511 1.398 . S
C3512 C3513 1.391 . S
C3513 H3501 0.950 1_554 S
C3513 C3509 1.393 . S
C3513 C3512 1.391 . S
C3514 H3504 0.950 . S
C3514 C3515 1.385 1_556 S
C3514 C3516 1.395 1_556 S
C3515 C3514 1.385 1_554 S
C3515 C3519 1.393 . S
C3516 H3505 0.927 1_554 S
C3516 C3514 1.395 1_554 S
C3516 C3517 1.419 . S
C3517 C3511 1.491 . S
C3517 C3516 1.419 . S
C3517 C3518 1.398 . S
C3518 H3506 0.950 . S
C3518 C3517 1.398 . S
C3518 C3519 1.391 . S
C3519 H3507 0.950 . S
C3519 C3515 1.393 . S
C3519 C3518 1.391 . S
H3520 C3528 0.950 . S
H3521 C3533 0.950 . S
H3522 C3530 0.950 . S
H3523 C3532 0.950 . S
H3524 C3534 0.950 . S
H3525 C3536 0.950 . S
H3526 C3538 0.950 . S
H3527 C3539 0.950 . S
C3528 H3520 0.950 . S
C3528 C3529 1.386 . S
C3528 C3530 1.391 . S
C3529 C3528 1.386 . S
C3529 C3533 1.393 . S
C3530 H3522 0.950 . S
C3530 C3528 1.391 . S
C3530 C3531 1.400 . S
C3531 C3530 1.400 . S
C3531 C3532 1.398 . S
C3531 C3537 1.491 . S
C3532 H3523 0.950 . S
C3532 C3531 1.398 . S
C3532 C3533 1.391 . S
C3533 H3521 0.950 . S
C3533 C3529 1.393 . S
C3533 C3532 1.391 . S
C3534 H3524 0.950 . S
C3534 C3535 1.386 . S
C3534 C3536 1.391 . S
C3535 C3534 1.386 . S
C3535 C3539 1.393 . S
C3536 H3525 0.950 . S
C3536 C3534 1.391 . S
C3536 C3537 1.400 . S
C3537 C3531 1.491 . S
C3537 C3536 1.400 . S
C3537 C3538 1.398 . S
C3538 H3526 0.950 . S
C3538 C3537 1.398 . S
C3538 C3539 1.391 . S
C3539 H3527 0.950 . S
C3539 C3535 1.393 . S
C3539 C3538 1.391 . S
H3540 C3548 0.950 . S
H3541 C3553 0.950 . S
H3542 C3550 0.950 . S
H3543 C3552 0.950 . S
H3544 C3554 0.950 1_556 S
H3545 C3556 0.948 1_556 S
H3546 C3558 0.950 . S
H3547 C3559 0.950 . S
C3548 H3540 0.950 . S
C3548 C3549 1.386 . S
C3548 C3550 1.391 . S
C3549 C3548 1.386 . S
C3549 C3553 1.393 . S
C3550 H3542 0.950 . S
C3550 C3548 1.391 . S
C3550 C3551 1.400 . S
C3551 C3550 1.400 . S
C3551 C3552 1.398 . S
C3551 C3557 1.491 . S
C3552 H3543 0.950 . S
C3552 C3551 1.398 . S
C3552 C3553 1.391 . S
C3553 H3541 0.950 . S
C3553 C3549 1.393 . S
C3553 C3552 1.391 . S
C3554 H3544 0.950 1_554 S
C3554 C3555 1.386 . S
C3554 C3556 1.391 . S
C3555 C3554 1.386 . S
C3555 C3559 1.393 . S
C3556 H3545 0.948 1_554 S
C3556 C3554 1.391 . S
C3556 C3557 1.400 . S
C3557 C3551 1.491 . S
C3557 C3556 1.400 . S
C3557 C3558 1.398 . S
C3558 H3546 0.950 . S
C3558 C3557 1.398 . S
C3558 C3559 1.391 . S
C3559 H3547 0.950 . S
C3559 C3555 1.393 . S
C3559 C3558 1.391 . S
H3560 C3568 0.950 . S
H3561 C3573 0.950 . S
H3562 C3570 0.950 . S
H3563 C3572 0.950 . S
H3564 C3574 0.950 . S
H3565 C3576 0.950 . S
H3566 C3578 0.950 . S
H3567 C3579 0.950 . S
C3568 H3560 0.950 . S
C3568 C3569 1.386 . S
C3568 C3570 1.391 . S
C3569 C3568 1.386 . S
C3569 C3573 1.393 . S
C3570 H3562 0.950 . S
C3570 C3568 1.391 . S
C3570 C3571 1.400 . S
C3571 C3570 1.400 . S
C3571 C3572 1.398 . S
C3571 C3577 1.491 . S
C3572 H3563 0.950 . S
C3572 C3571 1.398 . S
C3572 C3573 1.391 . S
C3573 H3561 0.950 . S
C3573 C3569 1.393 . S
C3573 C3572 1.391 . S
C3574 H3564 0.950 . S
C3574 C3575 1.386 . S
C3574 C3576 1.391 . S
C3575 C3574 1.386 . S
C3575 C3579 1.393 . S
C3576 H3565 0.950 . S
C3576 C3574 1.391 . S
C3576 C3577 1.400 . S
C3577 C3571 1.491 . S
C3577 C3576 1.400 . S
C3577 C3578 1.398 . S
C3578 H3566 0.950 . S
C3578 C3577 1.398 . S
C3578 C3579 1.391 . S
C3579 H3567 0.950 . S
C3579 C3575 1.393 . S
C3579 C3578 1.391 . S
H3580 C3588 0.950 . S
H3581 C3593 0.950 . S
H3582 C3590 0.950 . S
H3583 C3592 0.950 . S
H3584 C3594 0.950 . S
H3585 C3596 0.950 . S
H3586 C3598 0.950 . S
H3587 C3599 0.950 . S
C3588 H3580 0.950 . S
C3588 C3589 1.386 . S
C3588 C3590 1.391 . S
C3589 C3588 1.386 . S
C3589 C3593 1.393 . S
C3590 H3582 0.950 . S
C3590 C3588 1.391 . S
C3590 C3591 1.400 . S
C3591 C3590 1.400 . S
C3591 C3592 1.398 . S
C3591 C3597 1.491 . S
C3592 H3583 0.950 . S
C3592 C3591 1.398 . S
C3592 C3593 1.391 . S
C3593 H3581 0.950 . S
C3593 C3589 1.393 . S
C3593 C3592 1.391 . S
C3594 H3584 0.950 . S
C3594 C3595 1.386 . S
C3594 C3596 1.391 . S
C3595 C3594 1.386 . S
C3595 C3599 1.393 . S
C3596 H3585 0.950 . S
C3596 C3594 1.391 . S
C3596 C3597 1.400 . S
C3597 C3591 1.491 . S
C3597 C3596 1.400 . S
C3597 C3598 1.398 . S
C3598 H3586 0.950 . S
C3598 C3597 1.398 . S
C3598 C3599 1.391 . S
C3599 H3587 0.950 . S
C3599 C3595 1.393 . S
C3599 C3598 1.391 . S
C1689 C105 1.844 . S
C1695 C403 1.681 . S
C1709 C65 2.243 . S
C1715 C486 2.185 . S
C1729 C73 1.582 . S
C1735 C571 1.513 . S
C1755 C651 1.469 . S
C1749 C92 1.589 . S
C1769 C17 1.606 . S
C1775 C735 1.550 . S
C1795 C828 0.951 . S
C1789 C37 1.010 . S
C1815 C906 0.904 . S
C1809 C49 0.902 . S
C1829 C8 1.517 . S
C1835 C991 1.353 . S
C1855 C402 2.024 . S
C1849 C231 2.074 . S
C1869 C241 0.723 . S
C1875 C483 0.734 . S
C1895 C570 1.202 . S
C1889 C273 1.225 . S
C1915 C655 1.545 . S
C1909 C171 1.635 . S
C1929 C227 2.124 . S
C1935 C739 1.954 . S
C1955 C831 1.159 . S
C1949 C245 1.207 . S
C1975 C903 0.826 . S
C1969 C269 0.811 . S
C1995 C990 1.493 . S
C1989 C175 1.616 . S
C2015 C399 1.384 . S
C2009 C162 1.488 . S
C2029 C289 1.994 . S
C2035 C1074 1.902 1_556 S
C2055 C1148 2.198 . S
C2049 C330 2.389 . S
C2075 C1243 0.588 . S
C2069 C317 0.493 . S
C2089 C120 0.913 . S
C2095 C987 0.955 . S
C2109 C134 1.492 . S
C2115 C567 1.433 . S
C2129 C331 2.229 . S
C2135 C1326 2.144 . S
C2155 C1411 0.678 . S
C2149 C303 0.697 . S
C2175 C392 1.739 . S
C2169 C59 1.845 . S
C2195 C1419 2.218 . S
C2189 C107 2.264 . S
C2209 C91 1.635 . S
C2215 C560 1.550 . S
C2229 C78 1.628 . S
C2235 C1332 1.501 . S
C2255 C744 1.560 . S
C2249 C7 1.549 . S
C2269 C51 1.026 . S
C2275 C1155 0.968 . S
C2295 C915 0.982 . S
C2289 C31 0.971 . S
C2315 C1484 1.372 . S
C2309 C22 1.508 . S
C2335 C411 2.066 . S
C2329 C143 2.159 . S
C2355 C1416 0.784 . S
C2349 C315 0.743 . S
C2369 C115 1.288 . S
C2375 C579 1.252 . S
C2389 C287 1.665 . S
C2395 C1316 1.591 . S
C2409 C147 2.060 . S
C2415 C728 1.999 . S
C2435 C1158 1.164 . S
C2429 C311 1.251 . S
C2449 C119 0.847 . S
C2455 C912 0.805 . S
C2469 C283 1.660 . S
C2475 C1503 1.542 . S
C2489 C190 1.495 . S
C2495 C408 1.396 1_554 S
C2509 C177 2.014 . S
C2515 C1083 1.956 . S
C2529 C260 2.417 . S
C2535 C823 2.245 . S
C2549 C247 0.561 . S
C2555 C1232 0.614 . S
C2575 C1500 0.895 . S
C2569 C274 0.909 1_565 S
C2589 C218 1.483 . S
C2595 C576 1.446 . S
C2615 C663 2.184 . S
C2609 C261 2.262 . S
C2635 C476 0.771 . S
C2629 C205 0.725 . S
C2649 C77 1.842 . S
C2655 C1579 1.690 . S
C2675 C1410 2.171 . S
C2669 C93 2.248 . S
C2689 C101 1.577 . S
C2695 C1663 1.517 . S
C2709 C64 1.596 . S
C2715 C1323 1.488 . S
C2729 C45 1.606 . S
C2735 C1071 1.551 . S
C2755 C1164 0.957 . S
C2749 C9 1.012 . S
C2775 C1242 0.921 . S
C2769 C21 0.840 . S
C2795 C1495 1.314 . S
C2789 C36 1.500 . S
C2815 C1578 2.017 . S
C2809 C259 2.085 . S
C2829 C185 0.735 . S
C2835 C1407 0.717 . S
C2855 C1662 1.233 . S
C2849 C203 1.206 . S
C2875 C1327 1.520 . S
C2869 C213 1.639 . S
C2895 C1075 1.958 . S
C2889 C255 2.126 . S
C2909 C189 1.203 . S
C2915 C1167 1.152 . S
C2935 C1239 0.815 . S
C2929 C199 0.813 . S
C2949 C217 1.614 . S
C2955 C1494 1.519 . S
C2975 C1575 1.383 . S
C2969 C316 1.487 . S
C2989 C135 1.992 . S
C2995 C738 1.902 . S
C3015 C812 2.223 . S
C3009 C148 2.399 . S
C3035 C907 0.545 . S
C3029 C163 0.512 . S
C3055 C1491 0.940 . S
C3049 C302 0.927 . S
C3069 C288 1.478 1_554 S
C3075 C1659 1.451 . S
C3095 C654 2.140 . S
C3089 C149 2.228 . S
C3115 C487 0.688 . S
C3109 C121 0.700 . S
C3129 C87 1.839 . S
C3135 C1568 1.709 . S
C3155 C495 2.219 . S
C3149 C79 2.263 . S
C3169 C63 1.638 . S
C3175 C1652 1.544 . S
C3189 C106 1.617 . S
C3195 C660 1.521 . S
C3209 C35 1.557 . S
C3215 C1080 1.551 . S
C3235 C819 0.995 . S
C3229 C23 1.040 . S
C3249 C3 0.966 . S
C3255 C1251 0.985 . S
C3269 C50 1.491 . S
C3275 C980 1.334 . S
C3295 C1587 2.046 . S
C3289 C325 2.158 . S
C3309 C161 0.769 . S
C3315 C492 0.753 . S
C3335 C1671 1.239 . S
C3329 C297 1.284 . S
C3349 C133 1.662 . S
C3355 C644 1.577 . S
C3369 C329 2.042 . S
C3375 C1064 1.980 . S
C3395 C822 1.163 . S
C3389 C157 1.251 . S
C3409 C301 0.824 . S
C3415 C1248 0.825 1_655 S
C3435 C999 1.521 . S
C3429 C129 1.655 . S
C3455 C1584 1.404 . S
C3449 C246 1.491 . S
C3475 C747 1.955 1_665 S
C3469 C219 2.016 . S
C3489 C232 2.418 . S
C3495 C1159 2.234 . S
C3515 C896 0.650 . S
C3509 C191 0.559 . S
C3529 C204 0.914 . S
C3535 C996 0.891 . S
C3549 C176 1.473 . S
C3555 C1668 1.464 1_554 S
C3575 C1335 2.177 . S
C3569 C233 2.268 1_565 S
C3595 C1400 0.738 . S
C3589 C275 0.732 . S
