# Generated by pormake.
# Topology pth, (4,4)-cn, num edge types: 1
# Building blocks:
#     Node 0, Type 0, BuildingBlock: QUQFOY_clean_sbu_1, # of connection points: 4
#     Node 1, Type 0, BuildingBlock: QUQFOY_clean_sbu_1, # of connection points: 4
#     Node 2, Type 0, BuildingBlock: QUQFOY_clean_sbu_1, # of connection points: 4
#     Node 3, Type 1, BuildingBlock: NAWXER_clean_sbu_0, # of connection points: 4
#     Node 4, Type 1, BuildingBlock: NAWXER_clean_sbu_0, # of connection points: 4
#     Node 5, Type 1, BuildingBlock: NAWXER_clean_sbu_0, # of connection points: 4
#     Edge 6, Type (0, 1), BuildingBlock: KIFKEQ_clean_linker_1, # of connection points: 2
#     Edge 7, Type (0, 1), BuildingBlock: KIFKEQ_clean_linker_1, # of connection points: 2
#     Edge 8, Type (0, 1), BuildingBlock: KIFKEQ_clean_linker_1, # of connection points: 2
#     Edge 9, Type (0, 1), BuildingBlock: KIFKEQ_clean_linker_1, # of connection points: 2
#     Edge 10, Type (0, 1), BuildingBlock: KIFKEQ_clean_linker_1, # of connection points: 2
#     Edge 11, Type (0, 1), BuildingBlock: KIFKEQ_clean_linker_1, # of connection points: 2
#     Edge 12, Type (0, 1), BuildingBlock: KIFKEQ_clean_linker_1, # of connection points: 2
#     Edge 13, Type (0, 1), BuildingBlock: KIFKEQ_clean_linker_1, # of connection points: 2
#     Edge 14, Type (0, 1), BuildingBlock: KIFKEQ_clean_linker_1, # of connection points: 2
#     Edge 15, Type (0, 1), BuildingBlock: KIFKEQ_clean_linker_1, # of connection points: 2
#     Edge 16, Type (0, 1), BuildingBlock: KIFKEQ_clean_linker_1, # of connection points: 2
#     Edge 17, Type (0, 1), BuildingBlock: KIFKEQ_clean_linker_1, # of connection points: 2
# Relax obj value: 0.024
# Max RMSD: 0.121
# Mean RMSD: 0.064
data_MOF--net-pth--node1-QUQFOY_clean_sbu_1--node2-NAWXER_clean_sbu_0--edge1-KIFKEQ_clean_linker_1
_symmetry_space_group_name_H-M    P1
_symmetry_Int_Tables_number       1
_symmetry_cell_setting            triclinic
loop_
_symmetry_equiv_pos_as_xyz
'x, y, z'
_cell_length_a     22.358069
_cell_length_b     24.073869
_cell_length_c     59.652973
_cell_angle_alpha  89.959297
_cell_angle_beta   90.03861
_cell_angle_gamma 119.77447
loop_
_atom_site_label
_atom_site_type_symbol
_atom_site_fract_x
_atom_site_fract_y
_atom_site_fract_z
_atom_type_partial_charge
O0 O 0.04275 0.09583 0.04311 0.0
Cd1 Cd 0.96992 0.03625 0.06537 0.0
Cd2 Cd 0.0541 0.99466 0.06994 0.0
O3 O 0.12569 0.08751 0.05977 0.0
O4 O 0.92392 0.08431 0.0761 0.0
O5 O 0.99423 0.06612 0.09707 0.0
C6 C 0.95887 0.09478 0.09442 0.0
C7 C 0.0494 0.93839 0.10225 0.0
C8 C 0.10653 0.11641 0.0461 0.0
C9 C 0.92897 0.91357 0.04385 0.0
O10 O 0.99296 0.93265 0.04544 0.0
O11 O 0.90382 0.94406 0.05392 0.0
O12 O 0.09433 0.94905 0.08677 0.0
O13 O 1.01229 0.96555 0.10037 0.0
O14 O 0.94195 0.03829 0.41625 0.0
Cd15 Cd 0.03058 0.07769 0.39736 0.0
Cd16 Cd 0.99561 0.95269 0.39771 0.0
O17 O 0.90245 0.93506 0.41114 0.0
O18 O 0.04349 0.16371 0.39023 0.0
O19 O 0.01891 0.08951 0.36444 0.0
C20 C 0.02811 0.14529 0.36972 0.0
C21 C 1.00713 0.89049 0.36982 0.0
C22 C 0.89508 0.98043 0.41895 0.0
C23 C 0.12446 0.04736 0.4225 0.0
O24 O 0.07725 0.98989 0.41944 0.0
O25 O 0.12062 0.09294 0.41311 0.0
O26 O 0.98761 0.869 0.38985 0.0
O27 O 0.01543 0.94627 0.36503 0.0
O28 O 0.91881 1.0011 0.71375 0.0
Cd29 Cd 0.96485 0.9593 0.73149 0.0
Cd30 Cd 0.0684 0.08423 0.73171 0.0
O31 O 0.99792 0.10331 0.71582 0.0
O32 O 0.88566 0.87419 0.73955 0.0
O33 O 0.94647 0.94822 0.76479 0.0
C34 C 0.89463 0.89262 0.76016 0.0
C35 C 0.13577 0.14299 0.76205 0.0
C36 C 0.93875 0.05947 0.70953 0.0
C37 C 0.09432 0.98649 0.70819 0.0
O38 O 0.11422 0.04457 0.71283 0.0
O39 O 0.03564 0.94224 0.71468 0.0
O40 O 0.1481 0.1663 0.74203 0.0
O41 O 0.08201 0.08738 0.76512 0.0
C42 C 0.06285 0.61221 0.25656 0.0
C43 C 0.03253 0.45628 0.19769 0.0
O44 O 0.11246 0.61497 0.24512 0.0
Zn45 Zn 0.05536 0.53897 0.22633 0.0
O46 O 1.00095 0.5689 0.25234 0.0
Zn47 Zn 0.94286 0.49121 0.23078 0.0
O48 O 0.90018 0.42027 0.25246 0.0
O49 O 1.01367 0.46559 0.25077 0.0
O50 O 0.97721 0.45027 0.20628 0.0
O51 O 0.09078 0.5014 0.20433 0.0
O52 O 1.00466 0.574 0.20581 0.0
O53 O 0.89306 0.52476 0.21325 0.0
C54 C 0.95615 0.42407 0.25934 0.0
C55 C 0.94477 0.56666 0.20228 0.0
C56 C 0.6204 0.07257 0.59418 0.0
C57 C 0.47482 0.07679 0.53386 0.0
O58 O 0.57442 0.01673 0.5876 0.0
Zn59 Zn 0.49154 0.97413 0.56394 0.0
O60 O 0.62323 0.12183 0.58527 0.0
Zn61 Zn 0.54716 0.07669 0.56448 0.0
O62 O 0.46011 0.03274 0.58629 0.0
O63 O 0.41087 0.92791 0.58302 0.0
O64 O 0.52187 0.1249 0.54418 0.0
O65 O 0.45974 0.02008 0.53978 0.0
O66 O 0.5203 0.92703 0.5446 0.0
O67 O 0.58603 0.03203 0.54208 0.0
C68 C 0.41256 0.9766 0.59194 0.0
C69 C 0.57172 0.97562 0.53598 0.0
C70 C 0.43058 0.45914 0.94024 0.0
C71 C 0.5698 0.60323 0.87925 0.0
O72 O 0.42198 0.5036 0.93199 0.0
Zn73 Zn 0.49667 0.53373 0.91008 0.0
O74 O 0.47831 0.44975 0.93254 0.0
Zn75 Zn 0.55821 0.48633 0.90808 0.0
O76 O 0.64108 0.51944 0.92687 0.0
O77 O 0.5819 0.56957 0.93201 0.0
O78 O 0.58571 0.56103 0.88495 0.0
O79 O 0.52171 0.60631 0.88958 0.0
O80 O 0.45734 0.45293 0.88848 0.0
O81 O 0.52745 0.41283 0.88802 0.0
C82 C 0.63251 0.56136 0.93713 0.0
C83 C 0.47222 0.41098 0.88146 0.0
H84 H 0.90031 0.17065 0.09159 0.0
H85 H 0.03486 0.13337 0.13313 0.0
H86 H 0.92297 0.26151 0.11511 0.0
H87 H 0.05632 0.22372 0.15708 0.0
H88 H 0.13208 0.42956 0.18206 0.0
H89 H 0.11414 0.3415 0.15708 0.0
H90 H 0.89835 0.28414 0.15178 0.0
H91 H 0.91632 0.37176 0.17587 0.0
C92 C 0.93377 0.1811 0.10598 0.0
C93 C 0.96533 0.14436 0.11054 0.0
C94 C 0.94693 0.23339 0.11948 0.0
C95 C 0.99179 0.25023 0.13797 0.0
C96 C 0.02243 0.21278 0.14278 0.0
C97 C 1.00932 0.16042 0.12922 0.0
C98 C 0.08119 0.3986 0.17525 0.0
C99 C 0.02576 0.40777 0.181 0.0
C100 C 0.07067 0.34776 0.16115 0.0
C101 C 1.00467 0.30554 0.15245 0.0
C102 C 0.94998 0.31596 0.15788 0.0
C103 C 0.96036 0.36626 0.17187 0.0
H104 H 0.81661 0.87742 0.44625 0.0
H105 H 0.83748 0.05564 0.42249 0.0
H106 H 0.73195 0.86956 0.47412 0.0
H107 H 0.75213 0.04695 0.44955 0.0
H108 H 0.69338 0.06904 0.51947 0.0
H109 H 0.76243 0.06169 0.48967 0.0
H110 H 0.61731 0.85986 0.48249 0.0
H111 H 0.54783 0.86694 0.51305 0.0
C112 C 0.80166 0.91387 0.44658 0.0
C113 C 0.83431 0.96767 0.4325 0.0
C114 C 0.75329 0.90942 0.46251 0.0
C115 C 0.73667 0.95848 0.4644 0.0
C116 C 0.76536 1.00936 0.449 0.0
C117 C 0.81395 1.01415 0.43338 0.0
C118 C 0.67587 0.02291 0.51163 0.0
C119 C 0.61468 0.96868 0.51853 0.0
C120 C 0.71534 0.01881 0.49438 0.0
C121 C 0.69465 0.96046 0.48336 0.0
C122 C 0.63448 0.90552 0.49063 0.0
C123 C 0.59474 0.90961 0.50808 0.0
H124 H 0.78544 0.77254 0.75498 0.0
H125 H 0.88917 0.92123 0.80449 0.0
H126 H 0.70059 0.70589 0.78281 0.0
H127 H 0.80388 0.85354 0.83259 0.0
H128 H 0.59825 0.72727 0.87152 0.0
H129 H 0.67486 0.80055 0.84233 0.0
H130 H 0.70662 0.64965 0.81648 0.0
H131 H 0.6311 0.57755 0.84511 0.0
C132 C 0.79036 0.791 0.77184 0.0
C133 C 0.84462 0.85199 0.77756 0.0
C134 C 0.74157 0.75274 0.7878 0.0
C135 C 0.74558 0.7744 0.80991 0.0
C136 C 0.79909 0.83584 0.81562 0.0
C137 C 0.84833 0.87423 0.79961 0.0
C138 C 0.62092 0.70985 0.85934 0.0
C139 C 0.6088 0.6468 0.8606 0.0
C140 C 0.66518 0.7518 0.84282 0.0
C141 C 0.69678 0.73081 0.82713 0.0
C142 C 0.68266 0.6672 0.82813 0.0
C143 C 0.63953 0.62592 0.84464 0.0
H144 H 0.12625 0.88324 0.11387 0.0
H145 H 0.93649 0.88079 0.12963 0.0
H146 H 0.09222 0.79076 0.13797 0.0
H147 H 0.90094 0.78647 0.1531 0.0
H148 H 0.89337 0.64719 0.20939 0.0
H149 H 0.9182 0.74099 0.18654 0.0
H150 H 1.01335 0.68001 0.13653 0.0
H151 H 0.9912 0.58877 0.15983 0.0
C152 C 0.0775 0.86328 0.12265 0.0
C153 C 0.03409 0.88933 0.11975 0.0
C154 C 0.0574 0.80958 0.13625 0.0
C155 C 0.99286 0.77985 0.14708 0.0
C156 C 0.95091 0.8079 0.14506 0.0
C157 C 0.97142 0.86216 0.13161 0.0
C158 C 0.91755 0.65309 0.19316 0.0
C159 C 0.93993 0.61073 0.18622 0.0
C160 C 0.93238 0.70705 0.18013 0.0
C161 C 0.96948 0.71916 0.1599 0.0
C162 C 0.98685 0.67365 0.15232 0.0
C163 C 0.973 0.6206 0.16544 0.0
H164 H 0.24138 0.1622 0.43277 0.0
H165 H 0.13835 0.95919 0.44673 0.0
H166 H 0.33589 0.17807 0.45789 0.0
H167 H 0.23019 0.97513 0.47173 0.0
H168 H 0.42374 0.99955 0.49789 0.0
H169 H 0.34812 1.001 0.46897 0.0
H170 H 0.36147 0.17072 0.49845 0.0
H171 H 0.44033 0.17057 0.52717 0.0
C172 C 0.23883 0.12114 0.44114 0.0
C173 C 0.18255 0.05938 0.43754 0.0
C174 C 0.2927 0.13025 0.45557 0.0
C175 C 0.29112 0.07772 0.46653 0.0
C176 C 0.23421 0.01647 0.46311 0.0
C177 C 0.18105 1.00741 0.4488 0.0
C178 C 0.4113 0.0377 0.49805 0.0
C179 C 0.43681 0.08429 0.51496 0.0
C180 C 0.36777 0.03845 0.48152 0.0
C181 C 0.34731 0.08502 0.48174 0.0
C182 C 0.37623 0.13418 0.49785 0.0
C183 C 0.42109 0.134 0.51431 0.0
H184 H 0.11718 0.11822 0.80717 0.0
H185 H 0.26553 0.24512 0.75858 0.0
H186 H 0.19994 0.1747 0.8373 0.0
H187 H 0.34798 0.30081 0.7886 0.0
H188 H 0.50029 0.35171 0.84694 0.0
H189 H 0.41841 0.28037 0.81852 0.0
H190 H 0.25277 0.28806 0.85288 0.0
H191 H 0.33395 0.35928 0.88085 0.0
C192 C 0.16733 0.15805 0.80292 0.0
C193 C 0.18452 0.17758 0.78052 0.0
C194 C 0.21471 0.19021 0.82014 0.0
C195 C 0.28056 0.24179 0.81524 0.0
C196 C 0.29801 0.26066 0.79283 0.0
C197 C 0.2504 0.2292 0.77568 0.0
C198 C 0.44619 0.3371 0.84855 0.0
C199 C 0.42346 0.36123 0.86596 0.0
C200 C 0.39951 0.29675 0.83227 0.0
C201 C 0.32929 0.27891 0.83349 0.0
C202 C 0.30636 0.30057 0.85158 0.0
C203 C 0.35297 0.34164 0.86751 0.0
H204 H 0.97395 0.15874 0.68 0.0
H205 H 0.79952 0.9928 0.70877 0.0
H206 H 0.89704 0.1689 0.65298 0.0
H207 H 0.72301 1.00401 0.68255 0.0
H208 H 0.63083 0.97573 0.61354 0.0
H209 H 0.70806 0.98165 0.64298 0.0
H210 H 0.79803 0.18717 0.64546 0.0
H211 H 0.72053 0.18142 0.61522 0.0
C212 C 0.91906 0.1256 0.68093 0.0
C213 C 0.89276 0.07433 0.69619 0.0
C214 C 0.87504 0.13141 0.6655 0.0
C215 C 0.80414 0.08632 0.66529 0.0
C216 C 0.77761 0.03839 0.68182 0.0
C217 C 0.8214 0.03215 0.69694 0.0
C218 C 0.66679 0.02238 0.6203 0.0
C219 C 0.66907 0.07809 0.61208 0.0
C220 C 0.7109 0.0257 0.63736 0.0
C221 C 0.75847 0.08479 0.64688 0.0
C222 C 0.76187 0.14093 0.63848 0.0
C223 C 0.71742 0.1376 0.62123 0.0
H224 H 0.79797 0.87274 0.0288 0.0
H225 H 0.96105 0.82586 0.02733 0.0
H226 H 0.72859 0.78213 1.00441 0.0
H227 H 0.89073 0.73376 1.00361 0.0
H228 H 0.77388 0.62312 0.93915 0.0
H229 H 0.84663 0.70565 0.96635 0.0
H230 H 0.66468 0.66958 1.00347 0.0
H231 H 0.59296 0.58998 0.97588 0.0
C232 C 0.81862 0.84259 0.02351 0.0
C233 C 0.88502 0.85664 0.02997 0.0
C234 C 0.77871 0.79028 1.00961 0.0
C235 C 0.80387 0.75022 1.00206 0.0
C236 C 0.87001 0.76392 1.00881 0.0
C237 C 0.91017 0.8166 0.02253 0.0
C238 C 0.75002 0.6322 0.95342 0.0
C239 C 0.67809 0.60081 0.9554 0.0
C240 C 0.79145 0.67946 0.96899 0.0
C241 C 0.76142 0.69531 0.9869 0.0
C242 C 0.68955 0.66026 0.98956 0.0
C243 C 0.64845 0.6141 0.97389 0.0
H244 H 0.01733 0.78466 0.37828 0.0
H245 H 0.03697 0.9138 0.32482 0.0
H246 H 0.04665 0.72405 0.3525 0.0
H247 H 0.06408 0.85111 0.29856 0.0
H248 H 0.15104 0.74289 0.25904 0.0
H249 H 0.14658 0.81555 0.28724 0.0
H250 H 0.98775 0.6523 0.32278 0.0
H251 H 0.99352 0.58129 0.29533 0.0
C252 C 0.02728 0.79984 0.36093 0.0
C253 C 0.02362 0.8535 0.35354 0.0
C254 C 0.04425 0.76503 0.34612 0.0
C255 C 0.05717 0.78224 0.32337 0.0
C256 C 0.05512 0.83686 0.31601 0.0
C257 C 0.03872 0.8723 0.33098 0.0
C258 C 0.11691 0.72298 0.27331 0.0
C259 C 0.0728 0.65661 0.27509 0.0
C260 C 0.11354 0.76441 0.28925 0.0
C261 C 0.06658 0.73983 0.30727 0.0
C262 C 0.02521 0.67317 0.3094 0.0
C263 C 0.02832 0.63231 0.29358 0.0
H264 H 0.23327 0.0556 0.70579 0.0
H265 H 0.05823 0.88654 0.67884 0.0
H266 H 0.30818 0.04518 0.67874 0.0
H267 H 0.13366 0.87699 0.65104 0.0
H268 H 0.31371 0.86735 0.6132 0.0
H269 H 0.23523 0.86095 0.64321 0.0
H270 H 0.31774 0.06527 0.6387 0.0
H271 H 0.3958 0.07187 0.60945 0.0
C272 C 0.2109 1.01577 0.69417 0.0
C273 C 0.13975 0.97246 0.69419 0.0
C274 C 0.25379 1.00997 0.67858 0.0
C275 C 0.22658 0.96125 0.66236 0.0
C276 C 0.15609 0.91514 0.66329 0.0
C277 C 0.11295 0.9206 0.67918 0.0
C278 C 0.31474 0.91072 0.61864 0.0
C279 C 0.36159 0.9702 0.6091 0.0
C280 C 0.26979 0.90703 0.63577 0.0
C281 C 0.27121 0.96277 0.64362 0.0
C282 C 0.31659 0.02164 0.63351 0.0
C283 C 0.36119 0.02533 0.61657 0.0
H284 H 0.07865 0.18179 0.0144 0.0
H285 H 0.24807 0.18019 0.04876 0.0
H286 H 0.15923 0.2709 0.99154 0.0
H287 H 0.32935 0.27141 0.02618 0.0
H288 H 0.44122 0.3633 0.96039 0.0
H289 H 0.36627 0.28768 0.9881 0.0
H290 H 0.24498 0.38226 0.98985 0.0
H291 H 0.3198 0.45787 0.96121 0.0
C292 C 0.13325 0.20095 0.01729 0.0
C293 C 0.15691 0.17325 0.03327 0.0
C294 C 0.17954 0.25268 1.00427 0.0
C295 C 0.25084 0.27842 1.00694 0.0
C296 C 0.27467 0.25212 0.02345 0.0
C297 C 0.22818 0.19995 0.03644 0.0
C298 C 0.39887 0.36856 0.96669 0.0
C299 C 0.3862 0.4165 0.95837 0.0
C300 C 0.35617 0.32532 0.98285 0.0
C301 C 0.29959 0.32878 0.99131 0.0
C302 C 0.28776 0.37781 0.98349 0.0
C303 C 0.33068 0.42129 0.96716 0.0
H304 H 0.05218 0.26664 0.37589 0.0
H305 H 0.97529 0.11415 0.32702 0.0
H306 H 0.02633 0.331 0.35054 0.0
H307 H 0.95002 0.17952 0.30137 0.0
H308 H 0.85856 0.29984 0.27029 0.0
H309 H 0.87262 0.2297 0.29734 0.0
H310 H 0.07418 0.38525 0.3148 0.0
H311 H 0.06013 0.45429 0.28833 0.0
C312 C 0.03021 0.24696 0.35965 0.0
C313 C 0.01647 0.18545 0.3534 0.0
C314 C 0.01527 0.28389 0.34513 0.0
C315 C 0.98604 0.26033 0.32396 0.0
C316 C 0.9718 0.19865 0.31768 0.0
C317 C 0.98712 0.16162 0.33224 0.0
C318 C 0.90517 0.31896 0.28023 0.0
C319 C 0.95821 0.38242 0.2772 0.0
C320 C 0.91359 0.27879 0.29549 0.0
C321 C 0.97462 0.30198 0.30816 0.0
C322 C 0.02635 0.366 0.3055 0.0
C323 C 0.01833 0.40552 0.29022 0.0
loop_
_geom_bond_atom_site_label_1
_geom_bond_atom_site_label_2
_geom_bond_distance
_geom_bond_site_symmetry_2
_ccdc_geom_bond_type
O0 Cd1 2.223 1_455 S
O0 C8 1.315 . S
Cd1 O0 2.223 1_655 S
Cd1 O4 2.297 . S
Cd1 O5 2.439 . S
Cd1 O11 2.240 1_545 S
Cd2 O3 2.240 1_565 S
Cd2 O10 2.223 1_455 S
Cd2 O12 2.297 . S
Cd2 O13 2.439 . S
O3 Cd2 2.240 1_545 S
O3 C8 1.279 . S
O4 Cd1 2.297 . S
O4 C6 1.247 . S
O5 Cd1 2.439 . S
O5 C6 1.208 . S
C6 O4 1.247 . S
C6 O5 1.208 . S
C7 O12 1.247 . S
C7 O13 1.208 . S
C8 O0 1.315 . S
C8 O3 1.279 . S
C9 O10 1.315 . S
C9 O11 1.279 . S
O10 Cd2 2.223 1_655 S
O10 C9 1.315 . S
O11 Cd1 2.240 1_565 S
O11 C9 1.279 . S
O12 Cd2 2.297 . S
O12 C7 1.247 . S
O13 Cd2 2.439 . S
O13 C7 1.208 . S
O14 Cd15 2.223 1_655 S
O14 C22 1.315 . S
Cd15 O14 2.223 1_455 S
Cd15 O18 2.297 . S
Cd15 O19 2.439 . S
Cd15 O25 2.240 . S
Cd16 O17 2.240 . S
Cd16 O24 2.223 1_655 S
Cd16 O26 2.297 . S
Cd16 O27 2.439 . S
O17 Cd16 2.240 . S
O17 C22 1.279 1_565 S
O18 Cd15 2.297 . S
O18 C20 1.247 . S
O19 Cd15 2.439 . S
O19 C20 1.208 . S
C20 O18 1.247 . S
C20 O19 1.208 . S
C21 O26 1.247 . S
C21 O27 1.208 . S
C22 O14 1.315 . S
C22 O17 1.279 1_545 S
C23 O24 1.315 . S
C23 O25 1.279 1_565 S
O24 Cd16 2.223 1_455 S
O24 C23 1.315 . S
O25 Cd15 2.240 . S
O25 C23 1.279 1_545 S
O26 Cd16 2.297 . S
O26 C21 1.247 . S
O27 Cd16 2.439 . S
O27 C21 1.208 . S
O28 Cd29 2.223 . S
O28 C36 1.315 . S
Cd29 O28 2.223 . S
Cd29 O32 2.297 . S
Cd29 O33 2.439 . S
Cd29 O39 2.240 1_655 S
Cd30 O31 2.240 1_455 S
Cd30 O38 2.223 . S
Cd30 O40 2.297 . S
Cd30 O41 2.439 . S
O31 Cd30 2.240 1_655 S
O31 C36 1.279 1_545 S
O32 Cd29 2.297 . S
O32 C34 1.247 . S
O33 Cd29 2.439 . S
O33 C34 1.208 . S
C34 O32 1.247 . S
C34 O33 1.208 . S
C35 O40 1.247 . S
C35 O41 1.208 . S
C36 O28 1.315 . S
C36 O31 1.279 1_565 S
C37 O38 1.315 . S
C37 O39 1.279 1_545 S
O38 Cd30 2.223 . S
O38 C37 1.315 . S
O39 Cd29 2.240 1_455 S
O39 C37 1.279 1_565 S
O40 Cd30 2.297 . S
O40 C35 1.247 . S
O41 Cd30 2.439 . S
O41 C35 1.208 . S
C42 O44 1.252 . S
C42 O46 1.255 1_455 S
C43 O50 1.248 . S
C43 O51 1.258 1_655 S
O44 C42 1.252 . S
O44 Zn45 2.028 . S
Zn45 O44 2.028 . S
Zn45 O49 2.035 . S
Zn45 O51 2.035 . S
Zn45 O52 2.028 . S
O46 C42 1.255 1_655 S
O46 Zn47 2.035 . S
Zn47 O46 2.035 . S
Zn47 O48 2.028 . S
Zn47 O50 2.028 . S
Zn47 O53 2.035 . S
O48 Zn47 2.028 . S
O48 C54 1.248 . S
O49 Zn45 2.035 . S
O49 C54 1.258 1_455 S
O50 C43 1.248 . S
O50 Zn47 2.028 . S
O51 C43 1.258 1_455 S
O51 Zn45 2.035 . S
O52 Zn45 2.028 . S
O52 C55 1.252 . S
O53 Zn47 2.035 . S
O53 C55 1.255 1_655 S
C54 O48 1.248 . S
C54 O49 1.258 1_655 S
C55 O52 1.252 . S
C55 O53 1.255 1_455 S
C56 O58 1.247 . S
C56 O60 1.258 1_565 S
C57 O64 1.250 . S
C57 O65 1.253 1_545 S
O58 C56 1.247 . S
O58 Zn59 2.028 . S
Zn59 O58 2.028 . S
Zn59 O63 2.035 . S
Zn59 O65 2.035 . S
Zn59 O66 2.028 . S
O60 C56 1.258 1_545 S
O60 Zn61 2.035 . S
Zn61 O60 2.035 . S
Zn61 O62 2.028 . S
Zn61 O64 2.028 . S
Zn61 O67 2.035 . S
O62 Zn61 2.028 . S
O62 C68 1.250 . S
O63 Zn59 2.035 . S
O63 C68 1.253 1_565 S
O64 C57 1.250 . S
O64 Zn61 2.028 . S
O65 C57 1.253 1_565 S
O65 Zn59 2.035 . S
O66 Zn59 2.028 . S
O66 C69 1.247 . S
O67 Zn61 2.035 . S
O67 C69 1.258 1_545 S
C68 O62 1.250 . S
C68 O63 1.253 1_545 S
C69 O66 1.247 . S
C69 O67 1.258 1_565 S
C70 O72 1.247 . S
C70 O74 1.258 . S
C71 O78 1.247 . S
C71 O79 1.258 . S
O72 C70 1.247 . S
O72 Zn73 2.028 . S
Zn73 O72 2.028 . S
Zn73 O77 2.035 . S
Zn73 O79 2.035 . S
Zn73 O80 2.028 . S
O74 C70 1.258 . S
O74 Zn75 2.035 . S
Zn75 O74 2.035 . S
Zn75 O76 2.028 . S
Zn75 O78 2.028 . S
Zn75 O81 2.035 . S
O76 Zn75 2.028 . S
O76 C82 1.247 . S
O77 Zn73 2.035 . S
O77 C82 1.258 . S
O78 C71 1.247 . S
O78 Zn75 2.028 . S
O79 C71 1.258 . S
O79 Zn73 2.035 . S
O80 Zn73 2.028 . S
O80 C83 1.247 . S
O81 Zn75 2.035 . S
O81 C83 1.258 . S
C82 O76 1.247 . S
C82 O77 1.258 . S
C83 O80 1.247 . S
C83 O81 1.258 . S
H84 C92 0.950 . S
H85 C97 0.950 . S
H86 C94 0.950 . S
H87 C96 0.950 . S
H88 C98 0.950 . S
H89 C100 0.950 . S
H90 C102 0.950 . S
H91 C103 0.950 . S
C92 H84 0.950 . S
C92 C93 1.402 . S
C92 C94 1.391 . S
C93 C92 1.402 . S
C93 C97 1.383 1_655 S
C94 H86 0.950 . S
C94 C92 1.391 . S
C94 C95 1.404 . S
C95 C94 1.404 . S
C95 C96 1.392 1_655 S
C95 C101 1.498 1_655 S
C96 H87 0.950 . S
C96 C95 1.392 1_455 S
C96 C97 1.391 . S
C97 H85 0.950 . S
C97 C93 1.383 1_455 S
C97 C96 1.391 . S
C98 H88 0.950 . S
C98 C99 1.386 . S
C98 C100 1.391 . S
C99 C98 1.386 . S
C99 C103 1.393 1_455 S
C100 H89 0.950 . S
C100 C98 1.391 . S
C100 C101 1.408 . S
C101 C95 1.498 1_455 S
C101 C100 1.408 . S
C101 C102 1.385 1_455 S
C102 H90 0.950 . S
C102 C101 1.385 1_655 S
C102 C103 1.391 . S
C103 H91 0.950 . S
C103 C99 1.393 1_655 S
C103 C102 1.391 . S
H104 C112 0.950 . S
H105 C117 0.950 . S
H106 C114 0.950 . S
H107 C116 0.950 . S
H108 C118 0.950 . S
H109 C120 0.950 . S
H110 C122 0.950 . S
H111 C123 0.950 . S
C112 H104 0.950 . S
C112 C113 1.386 1_565 S
C112 C114 1.391 . S
C113 C112 1.386 1_545 S
C113 C117 1.393 . S
C114 H106 0.950 . S
C114 C112 1.391 . S
C114 C115 1.400 1_565 S
C115 C114 1.400 1_545 S
C115 C116 1.398 . S
C115 C121 1.484 . S
C116 H107 0.950 . S
C116 C115 1.398 . S
C116 C117 1.391 . S
C117 H105 0.950 . S
C117 C113 1.393 . S
C117 C116 1.391 . S
C118 H108 0.950 . S
C118 C119 1.386 1_545 S
C118 C120 1.391 . S
C119 C118 1.386 1_565 S
C119 C123 1.393 . S
C120 H109 0.950 . S
C120 C118 1.391 . S
C120 C121 1.416 . S
C121 C115 1.484 . S
C121 C120 1.416 . S
C121 C122 1.390 1_545 S
C122 H110 0.950 . S
C122 C121 1.390 1_565 S
C122 C123 1.391 . S
C123 H111 0.950 . S
C123 C119 1.393 . S
C123 C122 1.391 . S
H124 C132 0.950 . S
H125 C137 0.950 . S
H126 C134 0.950 . S
H127 C136 0.950 . S
H128 C138 0.950 . S
H129 C140 0.950 . S
H130 C142 0.950 . S
H131 C143 0.950 . S
C132 H124 0.950 . S
C132 C133 1.386 . S
C132 C134 1.391 . S
C133 C132 1.386 . S
C133 C137 1.393 . S
C134 H126 0.950 . S
C134 C132 1.391 . S
C134 C135 1.400 . S
C135 C134 1.400 . S
C135 C136 1.398 . S
C135 C141 1.491 . S
C136 H127 0.950 . S
C136 C135 1.398 . S
C136 C137 1.391 . S
C137 H125 0.950 . S
C137 C133 1.393 . S
C137 C136 1.391 . S
C138 H128 0.950 . S
C138 C139 1.386 . S
C138 C140 1.391 . S
C139 C138 1.386 . S
C139 C143 1.393 . S
C140 H129 0.950 . S
C140 C138 1.391 . S
C140 C141 1.400 . S
C141 C135 1.491 . S
C141 C140 1.400 . S
C141 C142 1.398 . S
C142 H130 0.950 . S
C142 C141 1.398 . S
C142 C143 1.391 . S
C143 H131 0.950 . S
C143 C139 1.393 . S
C143 C142 1.391 . S
H144 C152 0.950 . S
H145 C157 0.950 . S
H146 C154 0.950 . S
H147 C156 0.950 . S
H148 C158 0.950 . S
H149 C160 0.950 . S
H150 C162 0.950 . S
H151 C163 0.950 . S
C152 H144 0.950 . S
C152 C153 1.386 1_655 S
C152 C154 1.391 . S
C153 C152 1.386 1_455 S
C153 C157 1.393 . S
C154 H146 0.950 . S
C154 C152 1.391 . S
C154 C155 1.390 1_655 S
C155 C154 1.390 1_455 S
C155 C156 1.404 . S
C155 C161 1.500 1_455 S
C156 H147 0.950 . S
C156 C155 1.404 . S
C156 C157 1.391 . S
C157 H145 0.950 . S
C157 C153 1.393 . S
C157 C156 1.391 . S
C158 H148 0.950 . S
C158 C159 1.386 1_455 S
C158 C160 1.391 . S
C159 C158 1.386 1_655 S
C159 C163 1.393 . S
C160 H149 0.950 . S
C160 C158 1.391 . S
C160 C161 1.392 1_455 S
C161 C155 1.500 1_655 S
C161 C160 1.392 1_655 S
C161 C162 1.403 . S
C162 H150 0.950 . S
C162 C161 1.403 . S
C162 C163 1.391 . S
C163 H151 0.950 . S
C163 C159 1.393 . S
C163 C162 1.391 . S
H164 C172 0.950 . S
H165 C177 0.950 . S
H166 C174 0.950 . S
H167 C176 0.950 . S
H168 C178 0.950 . S
H169 C180 0.950 . S
H170 C182 0.950 . S
H171 C183 0.950 . S
C172 H164 0.950 . S
C172 C173 1.386 1_545 S
C172 C174 1.391 . S
C173 C172 1.386 1_565 S
C173 C177 1.393 . S
C174 H166 0.950 . S
C174 C172 1.391 . S
C174 C175 1.400 1_545 S
C175 C174 1.400 1_565 S
C175 C176 1.398 . S
C175 C181 1.483 . S
C176 H167 0.950 . S
C176 C175 1.398 . S
C176 C177 1.391 . S
C177 H165 0.950 . S
C177 C173 1.393 . S
C177 C176 1.391 . S
C178 H168 0.950 . S
C178 C179 1.386 1_565 S
C178 C180 1.391 . S
C179 C178 1.386 1_545 S
C179 C183 1.393 . S
C180 H169 0.950 . S
C180 C178 1.391 . S
C180 C181 1.421 . S
C181 C175 1.483 . S
C181 C180 1.421 . S
C181 C182 1.386 1_565 S
C182 H170 0.950 . S
C182 C181 1.386 1_545 S
C182 C183 1.391 . S
C183 H171 0.950 . S
C183 C179 1.393 . S
C183 C182 1.391 . S
H184 C192 0.950 . S
H185 C197 0.950 . S
H186 C194 0.950 . S
H187 C196 0.950 . S
H188 C198 0.950 . S
H189 C200 0.950 . S
H190 C202 0.950 . S
H191 C203 0.950 . S
C192 H184 0.950 . S
C192 C193 1.386 . S
C192 C194 1.391 . S
C193 C192 1.386 . S
C193 C197 1.393 . S
C194 H186 0.950 . S
C194 C192 1.391 . S
C194 C195 1.400 . S
C195 C194 1.400 . S
C195 C196 1.398 . S
C195 C201 1.491 . S
C196 H187 0.950 . S
C196 C195 1.398 . S
C196 C197 1.391 . S
C197 H185 0.950 . S
C197 C193 1.393 . S
C197 C196 1.391 . S
C198 H188 0.950 . S
C198 C199 1.386 . S
C198 C200 1.391 . S
C199 C198 1.386 . S
C199 C203 1.393 . S
C200 H189 0.950 . S
C200 C198 1.391 . S
C200 C201 1.400 . S
C201 C195 1.491 . S
C201 C200 1.400 . S
C201 C202 1.398 . S
C202 H190 0.950 . S
C202 C201 1.398 . S
C202 C203 1.391 . S
C203 H191 0.950 . S
C203 C199 1.393 . S
C203 C202 1.391 . S
H204 C212 0.950 . S
H205 C217 0.950 . S
H206 C214 0.950 . S
H207 C216 0.950 . S
H208 C218 0.950 . S
H209 C220 0.950 . S
H210 C222 0.950 . S
H211 C223 0.950 . S
C212 H204 0.950 . S
C212 C213 1.386 1_545 S
C212 C214 1.391 . S
C213 C212 1.386 1_565 S
C213 C217 1.393 . S
C214 H206 0.950 . S
C214 C212 1.391 . S
C214 C215 1.400 1_545 S
C215 C214 1.400 1_565 S
C215 C216 1.398 . S
C215 C221 1.491 . S
C216 H207 0.950 . S
C216 C215 1.398 . S
C216 C217 1.391 . S
C217 H205 0.950 . S
C217 C213 1.393 . S
C217 C216 1.391 . S
C218 H208 0.950 . S
C218 C219 1.386 . S
C218 C220 1.391 . S
C219 C218 1.386 . S
C219 C223 1.393 1_565 S
C220 H209 0.950 . S
C220 C218 1.391 . S
C220 C221 1.400 . S
C221 C215 1.491 . S
C221 C220 1.400 . S
C221 C222 1.398 1_565 S
C222 H210 0.950 . S
C222 C221 1.398 1_545 S
C222 C223 1.391 . S
C223 H211 0.950 . S
C223 C219 1.393 1_545 S
C223 C222 1.391 . S
H224 C232 0.950 . S
H225 C237 0.950 . S
H226 C234 0.950 . S
H227 C236 0.950 . S
H228 C238 0.950 . S
H229 C240 0.950 . S
H230 C242 0.950 . S
H231 C243 0.950 . S
C232 H224 0.950 . S
C232 C233 1.386 1_556 S
C232 C234 1.391 . S
C233 C232 1.386 1_554 S
C233 C237 1.393 . S
C234 H226 0.950 . S
C234 C232 1.391 . S
C234 C235 1.400 . S
C235 C234 1.400 . S
C235 C236 1.398 1_556 S
C235 C241 1.491 . S
C236 H227 0.950 . S
C236 C235 1.398 1_554 S
C236 C237 1.391 . S
C237 H225 0.950 . S
C237 C233 1.393 . S
C237 C236 1.391 . S
C238 H228 0.950 . S
C238 C239 1.386 . S
C238 C240 1.391 . S
C239 C238 1.386 . S
C239 C243 1.393 . S
C240 H229 0.950 . S
C240 C238 1.391 . S
C240 C241 1.400 . S
C241 C235 1.491 . S
C241 C240 1.400 . S
C241 C242 1.398 . S
C242 H230 0.950 . S
C242 C241 1.398 . S
C242 C243 1.391 . S
C243 H231 0.950 . S
C243 C239 1.393 . S
C243 C242 1.391 . S
H244 C252 0.950 . S
H245 C257 0.950 . S
H246 C254 0.950 . S
H247 C256 0.950 . S
H248 C258 0.950 . S
H249 C260 0.950 . S
H250 C262 0.950 . S
H251 C263 0.950 . S
C252 H244 0.950 . S
C252 C253 1.386 1_655 S
C252 C254 1.391 . S
C253 C252 1.386 1_455 S
C253 C257 1.393 . S
C254 H246 0.950 . S
C254 C252 1.391 . S
C254 C255 1.400 1_655 S
C255 C254 1.400 1_455 S
C255 C256 1.398 . S
C255 C261 1.491 . S
C256 H247 0.950 . S
C256 C255 1.398 . S
C256 C257 1.391 . S
C257 H245 0.950 . S
C257 C253 1.393 . S
C257 C256 1.391 . S
C258 H248 0.950 . S
C258 C259 1.384 1_455 S
C258 C260 1.391 . S
C259 C258 1.384 1_655 S
C259 C263 1.395 . S
C260 H249 0.950 . S
C260 C258 1.391 . S
C260 C261 1.400 . S
C261 C255 1.491 . S
C261 C260 1.400 . S
C261 C262 1.398 1_455 S
C262 H250 0.950 . S
C262 C261 1.398 1_655 S
C262 C263 1.391 . S
C263 H251 0.950 . S
C263 C259 1.395 . S
C263 C262 1.391 . S
H264 C272 0.950 . S
H265 C277 0.950 . S
H266 C274 0.950 . S
H267 C276 0.950 . S
H268 C278 0.950 . S
H269 C280 0.950 . S
H270 C282 0.950 . S
H271 C283 0.950 . S
C272 H264 0.950 . S
C272 C273 1.386 . S
C272 C274 1.391 . S
C273 C272 1.386 . S
C273 C277 1.393 . S
C274 H266 0.950 . S
C274 C272 1.391 . S
C274 C275 1.400 . S
C275 C274 1.400 . S
C275 C276 1.398 . S
C275 C281 1.491 . S
C276 H267 0.950 . S
C276 C275 1.398 . S
C276 C277 1.391 . S
C277 H265 0.950 . S
C277 C273 1.393 . S
C277 C276 1.391 . S
C278 H268 0.950 . S
C278 C279 1.386 . S
C278 C280 1.391 . S
C279 C278 1.386 . S
C279 C283 1.393 1_565 S
C280 H269 0.950 . S
C280 C278 1.391 . S
C280 C281 1.400 1_565 S
C281 C275 1.491 . S
C281 C280 1.400 1_545 S
C281 C282 1.398 . S
C282 H270 0.950 . S
C282 C281 1.398 . S
C282 C283 1.391 . S
C283 H271 0.950 . S
C283 C279 1.393 1_545 S
C283 C282 1.391 . S
H284 C292 0.950 . S
H285 C297 0.950 . S
H286 C294 0.950 . S
H287 C296 0.950 . S
H288 C298 0.950 . S
H289 C300 0.950 . S
H290 C302 0.950 . S
H291 C303 0.950 . S
C292 H284 0.950 . S
C292 C293 1.386 1_556 S
C292 C294 1.391 . S
C293 C292 1.386 1_554 S
C293 C297 1.393 . S
C294 H286 0.950 . S
C294 C292 1.391 . S
C294 C295 1.400 . S
C295 C294 1.400 . S
C295 C296 1.398 . S
C295 C301 1.491 . S
C296 H287 0.950 . S
C296 C295 1.398 . S
C296 C297 1.391 1_556 S
C297 H285 0.950 . S
C297 C293 1.393 . S
C297 C296 1.391 1_554 S
C298 H288 0.950 . S
C298 C299 1.386 . S
C298 C300 1.391 . S
C299 C298 1.386 . S
C299 C303 1.393 . S
C300 H289 0.950 . S
C300 C298 1.391 . S
C300 C301 1.400 . S
C301 C295 1.491 . S
C301 C300 1.400 . S
C301 C302 1.398 . S
C302 H290 0.950 . S
C302 C301 1.398 . S
C302 C303 1.391 . S
C303 H291 0.950 . S
C303 C299 1.393 . S
C303 C302 1.391 . S
H304 C312 0.950 . S
H305 C317 0.950 . S
H306 C314 0.950 . S
H307 C316 0.950 . S
H308 C318 0.950 . S
H309 C320 0.950 . S
H310 C322 0.950 . S
H311 C323 0.950 . S
C312 H304 0.950 . S
C312 C313 1.386 1_455 S
C312 C314 1.391 . S
C313 C312 1.386 1_655 S
C313 C317 1.393 . S
C314 H306 0.950 . S
C314 C312 1.391 . S
C314 C315 1.400 1_455 S
C315 C314 1.400 1_655 S
C315 C316 1.398 . S
C315 C321 1.491 . S
C316 H307 0.950 . S
C316 C315 1.398 . S
C316 C317 1.391 . S
C317 H305 0.950 . S
C317 C313 1.393 . S
C317 C316 1.391 . S
C318 H308 0.950 . S
C318 C319 1.394 . S
C318 C320 1.391 . S
C319 C318 1.394 . S
C319 C323 1.377 1_655 S
C320 H309 0.950 . S
C320 C318 1.391 . S
C320 C321 1.400 . S
C321 C315 1.491 . S
C321 C320 1.400 . S
C321 C322 1.398 1_655 S
C322 H310 0.950 . S
C322 C321 1.398 1_455 S
C322 C323 1.391 . S
C323 H311 0.950 . S
C323 C319 1.377 1_455 S
C323 C322 1.391 . S
C99 C43 1.467 1_455 S
C93 C6 1.451 . S
C113 C22 1.526 . S
C119 C69 1.555 . S
C133 C34 1.267 . S
C139 C71 1.281 . S
C153 C7 1.448 . S
C159 C55 1.471 1_655 S
C179 C57 1.555 . S
C173 C23 1.527 . S
C193 C35 1.276 . S
C199 C83 1.279 . S
C219 C56 1.552 . S
C213 C36 1.546 . S
C233 C9 1.718 . S
C239 C82 1.762 . S
C259 C42 1.462 1_655 S
C253 C21 1.456 1_455 S
C279 C68 1.557 1_565 S
C273 C37 1.530 . S
C299 C70 1.760 . S
C293 C8 1.718 . S
C313 C20 1.451 1_655 S
C319 C54 1.470 . S
