# Generated by pormake.
# Topology tsx, (6,3)-cn, num edge types: 1
# Building blocks:
#     Node 0, Type 0, BuildingBlock: MIDCAF_clean_sbu_0, # of connection points: 6
#     Node 1, Type 0, BuildingBlock: MIDCAF_clean_sbu_0, # of connection points: 6
#     Node 2, Type 1, BuildingBlock: OLANEW_clean_sbu_2, # of connection points: 3
#     Node 3, Type 1, BuildingBlock: OLANEW_clean_sbu_2, # of connection points: 3
#     Node 4, Type 1, BuildingBlock: OLANEW_clean_sbu_2, # of connection points: 3
#     Node 5, Type 1, BuildingBlock: OLANEW_clean_sbu_2, # of connection points: 3
#     Edge 6, Type (0, 1), BuildingBlock: KIFKEQ_clean_linker_1, # of connection points: 2
#     Edge 7, Type (0, 1), BuildingBlock: KIFKEQ_clean_linker_1, # of connection points: 2
#     Edge 8, Type (0, 1), BuildingBlock: KIFKEQ_clean_linker_1, # of connection points: 2
#     Edge 9, Type (0, 1), BuildingBlock: KIFKEQ_clean_linker_1, # of connection points: 2
#     Edge 10, Type (0, 1), BuildingBlock: KIFKEQ_clean_linker_1, # of connection points: 2
#     Edge 11, Type (0, 1), BuildingBlock: KIFKEQ_clean_linker_1, # of connection points: 2
#     Edge 12, Type (0, 1), BuildingBlock: KIFKEQ_clean_linker_1, # of connection points: 2
#     Edge 13, Type (0, 1), BuildingBlock: KIFKEQ_clean_linker_1, # of connection points: 2
#     Edge 14, Type (0, 1), BuildingBlock: KIFKEQ_clean_linker_1, # of connection points: 2
#     Edge 15, Type (0, 1), BuildingBlock: KIFKEQ_clean_linker_1, # of connection points: 2
#     Edge 16, Type (0, 1), BuildingBlock: KIFKEQ_clean_linker_1, # of connection points: 2
#     Edge 17, Type (0, 1), BuildingBlock: KIFKEQ_clean_linker_1, # of connection points: 2
# Relax obj value: 0.070
# Max RMSD: 0.154
# Mean RMSD: 0.098
data_MOF--net-tsx--node1-MIDCAF_clean_sbu_0--node2-OLANEW_clean_sbu_2--edge1-KIFKEQ_clean_linker_1
_symmetry_space_group_name_H-M    P1
_symmetry_Int_Tables_number       1
_symmetry_cell_setting            triclinic
loop_
_symmetry_equiv_pos_as_xyz
'x, y, z'
_cell_length_a     21.847258
_cell_length_b     23.283408
_cell_length_c     37.589498
_cell_angle_alpha  96.589137
_cell_angle_beta   97.316272
_cell_angle_gamma 89.167029
loop_
_atom_site_label
_atom_site_type_symbol
_atom_site_fract_x
_atom_site_fract_y
_atom_site_fract_z
_atom_type_partial_charge
Zn0 Zn 0.95766 0.96309 0.94233 0.0
Zn1 Zn 0.15647 0.97579 0.02343 0.0
Zn2 Zn 0.05832 0.97586 0.98582 0.0
C3 C 0.14793 0.08378 0.00356 0.0
C4 C 0.16808 0.88731 0.97284 0.0
O5 O 0.98767 0.93399 0.01245 0.0
O6 O 0.9094 0.91685 0.96916 0.0
C7 C 0.98129 0.08333 0.96143 0.0
O8 O 0.09135 0.06671 -0.00251 0.0
O9 O 0.19038 0.04767 0.01001 0.0
O10 O 0.1892 0.90089 0.00541 0.0
O11 O 0.12295 0.9163 0.95813 0.0
O12 O 0.94216 0.04805 0.94377 0.0
O13 O 0.03046 0.06501 0.9792 0.0
O14 O 0.07709 0.93305 0.93161 0.0
O15 O 0.98598 0.92521 0.89835 0.0
C16 C 0.04374 0.91929 0.90091 0.0
O17 O 0.0412 0.945 0.03719 0.0
O18 O 0.12663 0.9781 0.07074 0.0
C19 C 0.93356 0.91267 0.00104 0.0
C20 C 0.07397 0.95552 0.06822 0.0
Zn21 Zn 0.64542 0.48071 0.53458 0.0
Zn22 Zn 0.45597 0.44614 0.43819 0.0
Zn23 Zn 0.54929 0.47019 0.48855 0.0
C24 C 0.55522 0.4116 0.40495 0.0
C25 C 0.4634 0.56837 0.45705 0.0
O26 O 0.53209 0.42853 0.53659 0.0
O27 O 0.62497 0.42566 0.56742 0.0
C28 C 0.68939 0.43023 0.47501 0.0
O29 O 0.58086 0.43201 0.43666 0.0
O30 O 0.49725 0.4081 0.39866 0.0
O31 O 0.43299 0.5296 0.43606 0.0
O32 O 0.50957 0.5547 0.47928 0.0
O33 O 0.71105 0.45707 0.5049 0.0
O34 O 0.63057 0.4295 0.46516 0.0
O35 O 0.56166 0.56392 0.50508 0.0
O36 O 0.63594 0.56392 0.55087 0.0
C37 C 0.59689 0.59114 0.5315 0.0
O38 O 0.47935 0.41955 0.50973 0.0
O39 O 0.40703 0.39773 0.46342 0.0
C40 C 0.56834 0.41353 0.5638 0.0
C41 C 0.42792 0.39476 0.496 0.0
O42 O 0.0555 0.94814 0.35049 0.0
Cd43 Cd 0.07881 0.96486 0.41632 0.0
O44 O 0.11085 0.02467 0.34641 0.0
Cd45 Cd 0.10615 0.06138 0.40168 0.0
O46 O 0.04228 0.12665 0.42097 0.0
C47 C 0.99758 0.13676 0.39734 0.0
O48 O 0.99365 0.10702 0.36523 0.0
C49 C 0.08057 0.98031 0.33131 0.0
C50 C 0.18141 0.89932 0.4387 0.0
O51 O 0.12654 0.88203 0.44043 0.0
O52 O 0.18793 0.94816 0.42702 0.0
O53 O 0.03337 0.1551 0.69708 0.0
Cd54 Cd 0.99269 0.21798 0.65254 0.0
O55 O 0.97869 0.08776 0.66288 0.0
Cd56 Cd 0.9292 0.00725 0.64332 0.0
O57 O 0.86117 0.9456 0.61406 0.0
C58 C 0.80423 0.95325 0.61709 0.0
O59 O 0.78751 -0.00236 0.63857 0.0
C60 C 0.01653 0.10258 0.69097 0.0
C61 C 0.09131 0.25336 0.62099 0.0
O62 O 0.07076 0.28554 0.64686 0.0
O63 O 0.06405 0.2052 0.60947 0.0
O64 O 0.55989 0.41983 0.84602 0.0
Cd65 Cd 0.5805 0.44752 0.91132 0.0
O66 O 0.6049 0.49987 0.83706 0.0
Cd67 Cd 0.59735 0.54199 0.89079 0.0
O68 O 0.526 0.59759 0.91129 0.0
C69 C 0.48274 0.60969 0.88731 0.0
O70 O 0.4851 0.58853 0.85356 0.0
C71 C 0.58031 0.45132 0.82465 0.0
C72 C 0.6898 0.39592 0.93855 0.0
O73 O 0.63715 0.37379 0.94057 0.0
O74 O 0.69088 0.44319 0.92423 0.0
O75 O 0.56017 0.66479 0.21353 0.0
Cd76 Cd 0.51952 0.73298 0.17232 0.0
O77 O 0.50755 0.59788 0.17739 0.0
Cd78 Cd 0.46255 0.51519 0.15698 0.0
O79 O 0.40837 0.44272 0.12741 0.0
C80 C 0.35345 0.4499 0.1127 0.0
O81 O 0.32871 0.50171 0.11595 0.0
C82 C 0.54494 0.61198 0.20581 0.0
C83 C 0.61678 0.76852 0.13952 0.0
O84 O 0.59989 0.79885 0.16725 0.0
O85 O 0.58662 0.72228 0.12692 0.0
H86 H 0.08811 0.17625 0.03509 0.0
H87 H 0.24816 0.1289 0.98188 0.0
H88 H 0.13386 0.27127 0.05693 0.0
H89 H 0.29316 0.22376 0.0027 0.0
H90 H 0.39398 0.33962 0.09774 0.0
H91 H 0.33698 0.25793 0.06408 0.0
H92 H 0.17607 0.36589 0.04604 0.0
H93 H 0.2333 0.44825 0.08042 0.0
C94 C 0.13176 0.18714 0.02679 0.0
C95 C 0.16498 0.14531 0.00716 0.0
C96 C 0.15816 0.24139 0.03941 0.0
C97 C 0.2179 0.25436 0.03233 0.0
C98 C 0.24788 0.21444 0.00947 0.0
C99 C 0.2219 0.16035 -0.00273 0.0
C100 C 0.34655 0.34621 0.08655 0.0
C101 C 0.31827 0.40051 0.0918 0.0
C102 C 0.31394 0.29942 0.06691 0.0
C103 C 0.25215 0.30558 0.05195 0.0
C104 C 0.22359 0.35981 0.05724 0.0
C105 C 0.25644 0.40692 0.07686 0.0
H106 H 0.19571 0.7842 0.99605 0.0
H107 H 0.20881 0.88178 0.90653 0.0
H108 H 0.2655 0.7116 0.97201 0.0
H109 H 0.2799 0.80937 0.88241 0.0
H110 H 0.3854 0.64587 0.842 0.0
H111 H 0.29905 0.70708 0.85816 0.0
H112 H 0.37651 0.71908 0.97039 0.0
H113 H 0.46203 0.65755 0.95444 0.0
C114 C 0.21249 0.78925 0.97066 0.0
C115 C 0.19703 0.83838 0.95303 0.0
C116 C 0.25284 0.74804 0.95709 0.0
C117 C 0.27927 0.75548 0.9258 0.0
C118 C 0.26013 0.80244 0.90657 0.0
C119 C 0.21914 0.84371 0.92015 0.0
C120 C 0.38384 0.66145 0.87015 0.0
C121 C 0.4305 0.64675 0.89699 0.0
C122 C 0.33448 0.69662 0.87932 0.0
C123 C 0.33067 0.71741 0.91552 0.0
C124 C 0.37745 0.70276 0.94229 0.0
C125 C 0.42676 0.66784 0.93314 0.0
H126 H 0.92988 0.9398 0.07327 0.0
H127 H 0.85211 0.825 0.98111 0.0
H128 H 0.86219 0.89901 0.11079 0.0
H129 H 0.781 0.78726 0.01728 0.0
H130 H 0.68154 0.70195 0.09298 0.0
H131 H 0.76737 0.73113 0.06373 0.0
H132 H 0.75588 0.90464 0.11762 0.0
H133 H 0.67196 0.87449 0.14816 0.0
C134 C 0.89979 0.90457 0.06144 0.0
C135 C 0.8975 0.88453 0.02471 0.0
C136 C 0.85977 0.88213 0.08258 0.0
C137 C 0.81587 0.83984 0.06708 0.0
C138 C 0.81481 0.81893 0.0304 0.0
C139 C 0.85522 0.84095 0.00952 0.0
C140 C 0.69764 0.74624 0.0987 0.0
C141 C 0.66972 0.78612 0.12255 0.0
C142 C 0.74674 0.76304 0.08187 0.0
C143 C 0.76835 0.82038 0.08805 0.0
C144 C 0.74117 0.85992 0.1126 0.0
C145 C 0.69263 0.84283 0.12986 0.0
H146 H 0.97029 0.15789 0.02132 0.0
H147 H 0.95343 0.14525 0.90516 0.0
H148 H 0.91274 0.24931 0.02248 0.0
H149 H 0.89736 0.23673 0.90619 0.0
H150 H 0.80371 0.4085 0.91766 0.0
H151 H 0.89402 0.34652 0.92892 0.0
H152 H 0.79605 0.25278 -0.00332 0.0
H153 H 0.70568 0.31379 0.98502 0.0
C154 C 0.95692 0.17622 -0.00375 0.0
C155 C 0.96623 0.14511 0.96315 0.0
C156 C 0.92365 0.22811 -0.00313 0.0
C157 C 0.90037 0.24981 0.96441 0.0
C158 C 0.91524 0.22134 0.93161 0.0
C159 C 0.94725 0.16903 0.93098 0.0
C160 C 0.80202 0.3755 0.93562 0.0
C161 C 0.74743 0.36542 0.95011 0.0
C162 C 0.85367 0.34016 0.94205 0.0
C163 C 0.85199 0.29502 0.9637 0.0
C164 C 0.79891 0.28772 0.98025 0.0
C165 C 0.74697 0.32228 0.97329 0.0
H166 H 0.59511 0.65489 0.59585 0.0
H167 H 0.60279 0.6688 0.48309 0.0
H168 H 0.62879 0.75492 0.61113 0.0
H169 H 0.63823 0.7693 0.49843 0.0
H170 H 0.81815 0.87123 0.56075 0.0
H171 H 0.74596 0.79466 0.534 0.0
H172 H 0.61339 0.86258 0.60385 0.0
H173 H 0.68547 0.93982 0.63053 0.0
C174 C 0.60177 0.6803 0.57424 0.0
C175 C 0.59688 0.65448 0.53841 0.0
C176 C 0.62095 0.73757 0.58293 0.0
C177 C 0.63685 0.76956 0.556 0.0
C178 C 0.62655 0.74532 0.51968 0.0
C179 C 0.60595 0.68815 0.51089 0.0
C180 C 0.77322 0.87046 0.56999 0.0
C181 C 0.75786 0.91099 0.59813 0.0
C182 C 0.73157 0.82704 0.55435 0.0
C183 C 0.67403 0.82283 0.56682 0.0
C184 C 0.65744 0.86498 0.59373 0.0
C185 C 0.69879 0.90898 0.60904 0.0
H186 H 0.8121 0.44767 0.47596 0.0
H187 H 0.66352 0.33232 0.42795 0.0
H188 H 0.88681 0.3792 0.45293 0.0
H189 H 0.73856 0.26326 0.40514 0.0
H190 H 0.89564 0.16606 0.35303 0.0
H191 H 0.82056 0.24199 0.36562 0.0
H192 H 0.92013 0.28531 0.47201 0.0
H193 H 0.99552 0.21016 0.45934 0.0
C194 C 0.79535 0.4081 0.45987 0.0
C195 C 0.73204 0.39505 0.45403 0.0
C196 C 0.83817 0.36872 0.44692 0.0
C197 C 0.81865 0.31531 0.42798 0.0
C198 C 0.755 0.30411 0.41968 0.0
C199 C 0.71198 0.34373 0.43262 0.0
C200 C 0.90156 0.19188 0.3791 0.0
C201 C 0.9516 0.18214 0.40521 0.0
C202 C 0.85844 0.23524 0.38629 0.0
C203 C 0.86471 0.26993 0.41964 0.0
C204 C 0.91468 0.26004 0.44575 0.0
C205 C 0.95763 0.21663 0.43863 0.0
H206 H 0.35801 0.29847 0.47587 0.0
H207 H 0.4064 0.43078 0.56425 0.0
H208 H 0.28052 0.26141 0.50841 0.0
H209 H 0.3338 0.39072 0.5989 0.0
H210 H 0.16618 0.1844 0.5818 0.0
H211 H 0.25623 0.21308 0.55599 0.0
H212 H 0.2268 0.39107 0.59758 0.0
H213 H 0.13902 0.36164 0.62496 0.0
C214 C 0.35368 0.31818 0.50299 0.0
C215 C 0.38968 0.3663 0.51828 0.0
C216 C 0.30958 0.29674 0.52181 0.0
C217 C 0.30074 0.32294 0.55642 0.0
C218 C 0.33881 0.36969 0.57221 0.0
C219 C 0.38207 0.39163 0.55301 0.0
C220 C 0.17925 0.22961 0.58549 0.0
C221 C 0.14552 0.27088 0.6052 0.0
C222 C 0.23076 0.24612 0.57062 0.0
C223 C 0.24897 0.30445 0.5746 0.0
C224 C 0.21516 0.34559 0.59457 0.0
C225 C 0.16436 0.32888 0.60997 0.0
H226 H 0.45537 0.64767 0.51561 0.0
H227 H 0.42001 0.62321 0.39927 0.0
H228 H 0.39769 0.73907 0.51619 0.0
H229 H 0.36424 0.71497 0.3998 0.0
H230 H 0.29386 0.90039 0.41445 0.0
H231 H 0.37731 0.82979 0.42268 0.0
H232 H 0.27403 0.74448 0.49187 0.0
H233 H 0.18989 0.81386 0.48294 0.0
C234 C 0.4372 0.6629 0.49019 0.0
C235 C 0.44174 0.62857 0.45739 0.0
C236 C 0.40406 0.71486 0.49055 0.0
C237 C 0.37662 0.73374 0.45804 0.0
C238 C 0.38541 0.70152 0.42518 0.0
C239 C 0.41707 0.64903 0.42488 0.0
C240 C 0.28953 0.86722 0.43197 0.0
C241 C 0.23521 0.86221 0.44782 0.0
C242 C 0.33722 0.82699 0.43665 0.0
C243 C 0.33201 0.78208 0.45801 0.0
C244 C 0.27937 0.77918 0.47561 0.0
C245 C 0.2311 0.81855 0.47027 0.0
H246 H 0.08992 0.86205 0.10535 0.0
H247 H 0.00981 0.03245 0.10744 0.0
H248 H 0.07977 0.86187 0.16964 0.0
H249 H 0.99866 0.03228 0.17129 0.0
H250 H 0.11084 0.05179 0.28415 0.0
H251 H 0.09209 0.0383 0.21887 0.0
H252 H 0.00986 0.87171 0.22185 0.0
H253 H 0.02845 0.88526 0.28818 0.0
C254 C 0.06754 0.8982 0.11928 0.0
C255 C 0.04997 0.94701 0.10178 0.0
C256 C 0.06179 0.89819 0.15594 0.0
C257 C 0.03925 0.9474 0.17543 0.0
C258 C 0.01682 -0.00593 0.15693 0.0
C259 C 0.02269 -0.00592 0.12045 0.0
C260 C 0.08879 0.01214 0.27113 0.0
C261 C 0.07118 0.96957 0.29144 0.0
C262 C 0.07741 0.00474 0.23364 0.0
C263 C 0.04851 0.95443 0.21537 0.0
C264 C 0.03181 0.91108 0.23541 0.0
C265 C 0.04257 0.91882 0.27324 0.0
H266 H 0.15113 0.96575 0.88763 0.0
H267 H 0.99585 0.86118 0.83672 0.0
H268 H 0.16603 -0.00414 0.82952 0.0
H269 H 1.00809 0.89392 0.77911 0.0
H270 H 0.01895 0.983 0.68132 0.0
H271 H 0.05069 0.91824 0.72713 0.0
H272 H 0.09843 0.06664 0.80553 0.0
H273 H 0.06725 0.13034 0.76022 0.0
C274 C 0.1223 0.94655 0.86377 0.0
C275 C 0.07139 0.91221 0.86684 0.0
C276 C 0.13001 0.9648 0.83046 0.0
C277 C 0.0863 0.9497 0.80001 0.0
C278 C 0.04214 0.90725 0.80199 0.0
C279 C 0.03507 0.88834 0.83516 0.0
C280 C 0.03583 0.00162 0.70839 0.0
C281 C 0.03869 0.0619 0.71736 0.0
C282 C 0.05485 0.96448 0.73454 0.0
C283 C 0.07739 0.98699 0.7701 0.0
C284 C 0.08276 0.04732 0.77837 0.0
C285 C 0.06391 0.08413 0.75238 0.0
H286 H 0.60264 0.32294 0.60184 0.0
H287 H 0.48773 0.4749 0.60053 0.0
H288 H 0.59415 0.32175 0.66623 0.0
H289 H 0.4767 0.47218 0.66379 0.0
H290 H 0.59739 0.51931 0.77289 0.0
H291 H 0.57686 0.49661 0.70804 0.0
H292 H 0.52171 0.32371 0.72091 0.0
H293 H 0.54176 0.34666 0.78696 0.0
C294 C 0.57232 0.35367 0.61474 0.0
C295 C 0.54396 0.39781 0.59597 0.0
C296 C 0.56757 0.35306 0.6515 0.0
C297 C 0.53514 0.39714 0.66985 0.0
C298 C 0.50183 0.43765 0.65016 0.0
C299 C 0.50696 0.43846 0.61369 0.0
C300 C 0.58103 0.47631 0.76218 0.0
C301 C 0.57114 0.43481 0.78516 0.0
C302 C 0.56864 0.46354 0.72495 0.0
C303 C 0.54653 0.40881 0.7096 0.0
C304 C 0.53813 0.36641 0.73226 0.0
C305 C 0.54975 0.37953 0.76989 0.0
H306 H 0.52167 0.35444 0.33807 0.0
H307 H 0.66489 0.46363 0.39956 0.0
H308 H 0.54175 0.39234 0.28341 0.0
H309 H 0.68786 0.49897 0.34442 0.0
H310 H 0.55682 0.49344 0.19191 0.0
H311 H 0.58865 0.42537 0.2357 0.0
H312 H 0.62004 0.56871 0.31985 0.0
H313 H 0.58882 0.63563 0.27649 0.0
C314 C 0.56001 0.38403 0.33963 0.0
C315 C 0.58966 0.40809 0.37335 0.0
C316 C 0.57169 0.40584 0.30809 0.0
C317 C 0.61417 0.45116 0.30984 0.0
C318 C 0.6528 0.46595 0.34248 0.0
C319 C 0.64035 0.44484 0.37416 0.0
C320 C 0.57011 0.51015 0.21981 0.0
C321 C 0.56813 0.5698 0.23096 0.0
C322 C 0.58927 0.47121 0.24483 0.0
C323 C 0.60701 0.49127 0.28143 0.0
C324 C 0.6081 0.55128 0.2919 0.0
C325 C 0.58919 0.5899 0.26701 0.0
loop_
_geom_bond_atom_site_label_1
_geom_bond_atom_site_label_2
_geom_bond_distance
_geom_bond_site_symmetry_2
_ccdc_geom_bond_type
Zn0 O6 1.920 1_545 S
Zn0 O12 1.898 . S
Zn0 O15 1.905 1_545 S
Zn1 O9 1.905 . S
Zn1 O10 1.898 1_545 S
Zn1 O18 1.920 1_545 S
Zn2 O5 2.080 1_444 S
Zn2 O8 2.114 . S
Zn2 O11 2.120 1_545 S
Zn2 O13 2.120 1_455 S
Zn2 O14 2.114 1_554 S
Zn2 O17 2.080 . S
C3 O8 1.166 . S
C3 O9 1.182 . S
C4 O10 1.158 1_556 S
C4 O11 1.296 1_556 S
O5 Zn2 2.080 1_666 S
O5 C19 1.305 1_556 S
O6 Zn0 1.920 1_565 S
O6 C19 1.234 1_556 S
C7 O12 1.167 . S
C7 O13 1.299 1_556 S
O8 Zn2 2.114 . S
O8 C3 1.166 . S
O9 Zn1 1.905 . S
O9 C3 1.182 . S
O10 Zn1 1.898 1_565 S
O10 C4 1.158 1_554 S
O11 Zn2 2.120 1_565 S
O11 C4 1.296 1_554 S
O12 Zn0 1.898 . S
O12 C7 1.167 . S
O13 Zn2 2.120 1_655 S
O13 C7 1.299 1_554 S
O14 Zn2 2.114 1_556 S
O14 C16 1.162 1_445 S
O15 Zn0 1.905 1_565 S
O15 C16 1.191 . S
C16 O14 1.162 1_665 S
C16 O15 1.191 . S
O17 Zn2 2.080 . S
O17 C20 1.305 1_545 S
O18 Zn1 1.920 1_565 S
O18 C20 1.234 . S
C19 O5 1.305 1_554 S
C19 O6 1.234 1_554 S
C20 O17 1.305 1_565 S
C20 O18 1.234 . S
Zn21 O27 1.920 . S
Zn21 O33 1.898 . S
Zn21 O36 1.905 . S
Zn22 O30 1.905 . S
Zn22 O31 1.898 . S
Zn22 O39 1.920 . S
Zn23 O26 2.080 . S
Zn23 O29 2.114 . S
Zn23 O32 2.120 . S
Zn23 O34 2.120 . S
Zn23 O35 2.114 . S
Zn23 O38 2.080 . S
C24 O29 1.166 . S
C24 O30 1.182 . S
C25 O31 1.167 . S
C25 O32 1.299 . S
O26 Zn23 2.080 . S
O26 C40 1.305 . S
O27 Zn21 1.920 . S
O27 C40 1.234 . S
C28 O33 1.167 . S
C28 O34 1.299 . S
O29 Zn23 2.114 . S
O29 C24 1.166 . S
O30 Zn22 1.905 . S
O30 C24 1.182 . S
O31 Zn22 1.898 . S
O31 C25 1.167 . S
O32 Zn23 2.120 . S
O32 C25 1.299 . S
O33 Zn21 1.898 . S
O33 C28 1.167 . S
O34 Zn23 2.120 . S
O34 C28 1.299 . S
O35 Zn23 2.114 . S
O35 C37 1.166 . S
O36 Zn21 1.905 . S
O36 C37 1.182 . S
C37 O35 1.166 . S
C37 O36 1.182 . S
O38 Zn23 2.080 . S
O38 C41 1.305 . S
O39 Zn22 1.920 . S
O39 C41 1.234 . S
C40 O26 1.305 . S
C40 O27 1.234 . S
C41 O38 1.305 . S
C41 O39 1.234 . S
O42 Cd43 2.300 1_565 S
O42 C49 1.275 1_565 S
Cd43 O42 2.300 1_545 S
Cd43 O51 2.381 1_545 S
Cd43 O52 2.378 1_545 S
O44 Cd45 2.385 . S
O44 C49 1.255 . S
Cd45 O44 2.385 . S
Cd45 O46 2.317 . S
O46 Cd45 2.317 . S
O46 C47 1.232 1_455 S
C47 O46 1.232 1_655 S
C47 O48 1.218 . S
O48 C47 1.218 . S
C49 O42 1.275 1_545 S
C49 O44 1.255 . S
C50 O51 1.258 . S
C50 O52 1.256 . S
O51 Cd43 2.381 1_565 S
O51 C50 1.258 . S
O52 Cd43 2.378 1_565 S
O52 C50 1.256 . S
O53 Cd54 2.300 . S
O53 C60 1.275 . S
Cd54 O53 2.300 . S
Cd54 O62 2.381 . S
Cd54 O63 2.378 . S
O55 Cd56 2.385 . S
O55 C60 1.255 1_565 S
Cd56 O55 2.385 . S
Cd56 O57 2.317 1_455 S
O57 Cd56 2.317 1_655 S
O57 C58 1.232 . S
C58 O57 1.232 . S
C58 O59 1.218 . S
O59 C58 1.218 . S
C60 O53 1.275 . S
C60 O55 1.255 1_545 S
C61 O62 1.258 . S
C61 O63 1.256 . S
O62 Cd54 2.381 . S
O62 C61 1.258 . S
O63 Cd54 2.378 . S
O63 C61 1.256 . S
O64 Cd65 2.300 . S
O64 C71 1.275 . S
Cd65 O64 2.300 . S
Cd65 O73 2.381 . S
Cd65 O74 2.378 . S
O66 Cd67 2.385 . S
O66 C71 1.255 . S
Cd67 O66 2.385 . S
Cd67 O68 2.317 . S
O68 Cd67 2.317 . S
O68 C69 1.232 . S
C69 O68 1.232 . S
C69 O70 1.218 . S
O70 C69 1.218 . S
C71 O64 1.275 . S
C71 O66 1.255 . S
C72 O73 1.258 . S
C72 O74 1.256 . S
O73 Cd65 2.381 . S
O73 C72 1.258 . S
O74 Cd65 2.378 . S
O74 C72 1.256 . S
O75 Cd76 2.300 . S
O75 C82 1.275 . S
Cd76 O75 2.300 . S
Cd76 O84 2.381 . S
Cd76 O85 2.378 . S
O77 Cd78 2.385 . S
O77 C82 1.255 . S
Cd78 O77 2.385 . S
Cd78 O79 2.317 . S
O79 Cd78 2.317 . S
O79 C80 1.232 . S
C80 O79 1.232 . S
C80 O81 1.218 . S
O81 C80 1.218 . S
C82 O75 1.275 . S
C82 O77 1.255 . S
C83 O84 1.258 . S
C83 O85 1.256 . S
O84 Cd76 2.381 . S
O84 C83 1.258 . S
O85 Cd76 2.378 . S
O85 C83 1.256 . S
H86 C94 0.950 . S
H87 C99 0.950 1_556 S
H88 C96 0.950 . S
H89 C98 0.950 . S
H90 C100 0.950 . S
H91 C102 0.950 . S
H92 C104 0.950 . S
H93 C105 0.950 . S
C94 H86 0.950 . S
C94 C95 1.386 . S
C94 C96 1.391 . S
C95 C94 1.386 . S
C95 C99 1.393 . S
C96 H88 0.950 . S
C96 C94 1.391 . S
C96 C97 1.400 . S
C97 C96 1.400 . S
C97 C98 1.398 . S
C97 C103 1.491 . S
C98 H89 0.950 . S
C98 C97 1.398 . S
C98 C99 1.391 . S
C99 H87 0.950 1_554 S
C99 C95 1.393 . S
C99 C98 1.391 . S
C100 H90 0.950 . S
C100 C101 1.386 . S
C100 C102 1.391 . S
C101 C100 1.386 . S
C101 C105 1.393 . S
C102 H91 0.950 . S
C102 C100 1.391 . S
C102 C103 1.400 . S
C103 C97 1.491 . S
C103 C102 1.400 . S
C103 C104 1.398 . S
C104 H92 0.950 . S
C104 C103 1.398 . S
C104 C105 1.391 . S
C105 H93 0.950 . S
C105 C101 1.393 . S
C105 C104 1.391 . S
H106 C114 0.950 . S
H107 C119 0.950 . S
H108 C116 0.948 1_554 S
H109 C118 0.950 . S
H110 C120 0.950 . S
H111 C122 0.950 . S
H112 C124 0.950 1_554 S
H113 C125 0.950 . S
C114 H106 0.950 . S
C114 C115 1.386 1_554 S
C114 C116 1.391 1_554 S
C115 C114 1.386 1_556 S
C115 C119 1.393 . S
C116 H108 0.948 1_556 S
C116 C114 1.391 1_556 S
C116 C117 1.402 . S
C117 C116 1.402 . S
C117 C118 1.398 . S
C117 C123 1.491 . S
C118 H109 0.950 . S
C118 C117 1.398 . S
C118 C119 1.391 . S
C119 H107 0.950 . S
C119 C115 1.393 . S
C119 C118 1.391 . S
C120 H110 0.950 . S
C120 C121 1.386 . S
C120 C122 1.391 . S
C121 C120 1.386 . S
C121 C125 1.393 . S
C122 H111 0.950 . S
C122 C120 1.391 . S
C122 C123 1.400 . S
C123 C117 1.491 . S
C123 C122 1.400 . S
C123 C124 1.398 . S
C124 H112 0.950 1_556 S
C124 C123 1.398 . S
C124 C125 1.391 . S
C125 H113 0.950 . S
C125 C121 1.393 . S
C125 C124 1.391 . S
H126 C134 0.950 . S
H127 C139 0.950 . S
H128 C136 0.950 . S
H129 C138 0.950 . S
H130 C140 0.950 1_556 S
H131 C142 0.950 1_556 S
H132 C144 0.950 . S
H133 C145 0.950 . S
C134 H126 0.950 . S
C134 C135 1.386 . S
C134 C136 1.391 . S
C135 C134 1.386 . S
C135 C139 1.393 1_554 S
C136 H128 0.950 . S
C136 C134 1.391 . S
C136 C137 1.400 . S
C137 C136 1.400 . S
C137 C138 1.398 1_554 S
C137 C143 1.491 . S
C138 H129 0.950 . S
C138 C137 1.398 1_556 S
C138 C139 1.391 . S
C139 H127 0.950 . S
C139 C135 1.393 1_556 S
C139 C138 1.391 . S
C140 H130 0.950 1_554 S
C140 C141 1.386 . S
C140 C142 1.391 . S
C141 C140 1.386 . S
C141 C145 1.393 . S
C142 H131 0.950 1_554 S
C142 C140 1.391 . S
C142 C143 1.400 . S
C143 C137 1.491 . S
C143 C142 1.400 . S
C143 C144 1.398 . S
C144 H132 0.950 . S
C144 C143 1.398 . S
C144 C145 1.391 . S
C145 H133 0.950 . S
C145 C141 1.393 . S
C145 C144 1.391 . S
H146 C154 0.950 . S
H147 C159 0.950 . S
H148 C156 0.950 . S
H149 C158 0.950 . S
H150 C160 0.950 . S
H151 C162 0.950 . S
H152 C164 0.950 . S
H153 C165 0.950 . S
C154 H146 0.950 . S
C154 C155 1.385 1_554 S
C154 C156 1.391 1_554 S
C155 C154 1.385 1_556 S
C155 C159 1.393 . S
C156 H148 0.950 . S
C156 C154 1.391 1_556 S
C156 C157 1.400 . S
C157 C156 1.400 . S
C157 C158 1.398 . S
C157 C163 1.491 . S
C158 H149 0.950 . S
C158 C157 1.398 . S
C158 C159 1.391 . S
C159 H147 0.950 . S
C159 C155 1.393 . S
C159 C158 1.391 . S
C160 H150 0.950 . S
C160 C161 1.386 . S
C160 C162 1.391 . S
C161 C160 1.386 . S
C161 C165 1.393 . S
C162 H151 0.950 . S
C162 C160 1.391 . S
C162 C163 1.400 . S
C163 C157 1.491 . S
C163 C162 1.400 . S
C163 C164 1.398 . S
C164 H152 0.950 . S
C164 C163 1.398 . S
C164 C165 1.391 . S
C165 H153 0.950 . S
C165 C161 1.393 . S
C165 C164 1.391 . S
H166 C174 0.950 . S
H167 C179 0.950 . S
H168 C176 0.950 . S
H169 C178 0.950 . S
H170 C180 0.950 . S
H171 C182 0.950 . S
H172 C184 0.950 . S
H173 C185 0.950 . S
C174 H166 0.950 . S
C174 C175 1.386 . S
C174 C176 1.391 . S
C175 C174 1.386 . S
C175 C179 1.393 . S
C176 H168 0.950 . S
C176 C174 1.391 . S
C176 C177 1.400 . S
C177 C176 1.400 . S
C177 C178 1.398 . S
C177 C183 1.491 . S
C178 H169 0.950 . S
C178 C177 1.398 . S
C178 C179 1.391 . S
C179 H167 0.950 . S
C179 C175 1.393 . S
C179 C178 1.391 . S
C180 H170 0.950 . S
C180 C181 1.386 . S
C180 C182 1.391 . S
C181 C180 1.386 . S
C181 C185 1.393 . S
C182 H171 0.950 . S
C182 C180 1.391 . S
C182 C183 1.400 . S
C183 C177 1.491 . S
C183 C182 1.400 . S
C183 C184 1.398 . S
C184 H172 0.950 . S
C184 C183 1.398 . S
C184 C185 1.391 . S
C185 H173 0.950 . S
C185 C181 1.393 . S
C185 C184 1.391 . S
H186 C194 0.950 . S
H187 C199 0.950 . S
H188 C196 0.950 . S
H189 C198 0.950 . S
H190 C200 0.950 . S
H191 C202 0.950 . S
H192 C204 0.950 . S
H193 C205 0.950 . S
C194 H186 0.950 . S
C194 C195 1.386 . S
C194 C196 1.391 . S
C195 C194 1.386 . S
C195 C199 1.393 . S
C196 H188 0.950 . S
C196 C194 1.391 . S
C196 C197 1.400 . S
C197 C196 1.400 . S
C197 C198 1.398 . S
C197 C203 1.491 . S
C198 H189 0.950 . S
C198 C197 1.398 . S
C198 C199 1.391 . S
C199 H187 0.950 . S
C199 C195 1.393 . S
C199 C198 1.391 . S
C200 H190 0.950 . S
C200 C201 1.386 . S
C200 C202 1.391 . S
C201 C200 1.386 . S
C201 C205 1.393 . S
C202 H191 0.950 . S
C202 C200 1.391 . S
C202 C203 1.400 . S
C203 C197 1.491 . S
C203 C202 1.400 . S
C203 C204 1.398 . S
C204 H192 0.950 . S
C204 C203 1.398 . S
C204 C205 1.391 . S
C205 H193 0.950 . S
C205 C201 1.393 . S
C205 C204 1.391 . S
H206 C214 0.950 . S
H207 C219 0.950 . S
H208 C216 0.950 . S
H209 C218 0.950 . S
H210 C220 0.950 . S
H211 C222 0.950 . S
H212 C224 0.950 . S
H213 C225 0.950 . S
C214 H206 0.950 . S
C214 C215 1.386 . S
C214 C216 1.391 . S
C215 C214 1.386 . S
C215 C219 1.393 . S
C216 H208 0.950 . S
C216 C214 1.391 . S
C216 C217 1.400 . S
C217 C216 1.400 . S
C217 C218 1.398 . S
C217 C223 1.491 . S
C218 H209 0.950 . S
C218 C217 1.398 . S
C218 C219 1.391 . S
C219 H207 0.950 . S
C219 C215 1.393 . S
C219 C218 1.391 . S
C220 H210 0.950 . S
C220 C221 1.386 . S
C220 C222 1.391 . S
C221 C220 1.386 . S
C221 C225 1.393 . S
C222 H211 0.950 . S
C222 C220 1.391 . S
C222 C223 1.400 . S
C223 C217 1.491 . S
C223 C222 1.400 . S
C223 C224 1.398 . S
C224 H212 0.950 . S
C224 C223 1.398 . S
C224 C225 1.391 . S
C225 H213 0.950 . S
C225 C221 1.393 . S
C225 C224 1.391 . S
H226 C234 0.950 . S
H227 C239 0.950 . S
H228 C236 0.950 . S
H229 C238 0.950 . S
H230 C240 0.950 . S
H231 C242 0.950 . S
H232 C244 0.950 . S
H233 C245 0.950 . S
C234 H226 0.950 . S
C234 C235 1.386 . S
C234 C236 1.391 . S
C235 C234 1.386 . S
C235 C239 1.393 . S
C236 H228 0.950 . S
C236 C234 1.391 . S
C236 C237 1.400 . S
C237 C236 1.400 . S
C237 C238 1.398 . S
C237 C243 1.491 . S
C238 H229 0.950 . S
C238 C237 1.398 . S
C238 C239 1.391 . S
C239 H227 0.950 . S
C239 C235 1.393 . S
C239 C238 1.391 . S
C240 H230 0.950 . S
C240 C241 1.386 . S
C240 C242 1.391 . S
C241 C240 1.386 . S
C241 C245 1.393 . S
C242 H231 0.950 . S
C242 C240 1.391 . S
C242 C243 1.400 . S
C243 C237 1.491 . S
C243 C242 1.400 . S
C243 C244 1.398 . S
C244 H232 0.950 . S
C244 C243 1.398 . S
C244 C245 1.391 . S
C245 H233 0.950 . S
C245 C241 1.393 . S
C245 C244 1.391 . S
H246 C254 0.950 . S
H247 C259 0.950 1_655 S
H248 C256 0.950 . S
H249 C258 0.950 1_655 S
H250 C260 0.950 . S
H251 C262 0.950 1_655 S
H252 C264 0.950 . S
H253 C265 0.950 . S
C254 H246 0.950 . S
C254 C255 1.386 . S
C254 C256 1.391 . S
C255 C254 1.386 . S
C255 C259 1.393 1_565 S
C256 H248 0.950 . S
C256 C254 1.391 . S
C256 C257 1.400 1_565 S
C257 C256 1.400 1_545 S
C257 C258 1.398 . S
C257 C263 1.491 . S
C258 H249 0.950 1_455 S
C258 C257 1.398 . S
C258 C259 1.391 . S
C259 H247 0.950 1_455 S
C259 C255 1.393 1_545 S
C259 C258 1.391 . S
C260 H250 0.950 . S
C260 C261 1.386 . S
C260 C262 1.391 . S
C261 C260 1.386 . S
C261 C265 1.393 1_545 S
C262 H251 0.950 1_455 S
C262 C260 1.391 . S
C262 C263 1.400 . S
C263 C257 1.491 . S
C263 C262 1.400 . S
C263 C264 1.398 1_545 S
C264 H252 0.950 . S
C264 C263 1.398 1_565 S
C264 C265 1.391 . S
C265 H253 0.950 . S
C265 C261 1.393 1_565 S
C265 C264 1.391 . S
H266 C274 0.950 . S
H267 C279 0.950 . S
H268 C276 0.950 . S
H269 C278 0.950 . S
H270 C280 0.950 . S
H271 C282 0.950 . S
H272 C284 0.950 . S
H273 C285 0.950 . S
C274 H266 0.950 . S
C274 C275 1.386 1_545 S
C274 C276 1.391 . S
C275 C274 1.386 1_565 S
C275 C279 1.393 1_455 S
C276 H268 0.950 . S
C276 C274 1.391 . S
C276 C277 1.400 1_545 S
C277 C276 1.400 1_565 S
C277 C278 1.398 1_455 S
C277 C283 1.491 . S
C278 H269 0.950 . S
C278 C277 1.398 1_655 S
C278 C279 1.391 . S
C279 H267 0.950 . S
C279 C275 1.393 1_655 S
C279 C278 1.391 . S
C280 H270 0.950 . S
C280 C281 1.390 1_565 S
C280 C282 1.391 . S
C281 C280 1.390 1_545 S
C281 C285 1.388 1_655 S
C282 H271 0.950 . S
C282 C280 1.391 . S
C282 C283 1.400 1_655 S
C283 C277 1.491 . S
C283 C282 1.400 1_455 S
C283 C284 1.398 1_565 S
C284 H272 0.950 . S
C284 C283 1.398 1_545 S
C284 C285 1.391 . S
C285 H273 0.950 . S
C285 C281 1.388 1_455 S
C285 C284 1.391 . S
H286 C294 0.950 . S
H287 C299 0.950 . S
H288 C296 0.950 . S
H289 C298 0.950 . S
H290 C300 0.950 . S
H291 C302 0.950 . S
H292 C304 0.950 . S
H293 C305 0.950 . S
C294 H286 0.950 . S
C294 C295 1.386 . S
C294 C296 1.391 . S
C295 C294 1.386 . S
C295 C299 1.393 . S
C296 H288 0.950 . S
C296 C294 1.391 . S
C296 C297 1.400 . S
C297 C296 1.400 . S
C297 C298 1.398 . S
C297 C303 1.491 . S
C298 H289 0.950 . S
C298 C297 1.398 . S
C298 C299 1.391 . S
C299 H287 0.950 . S
C299 C295 1.393 . S
C299 C298 1.391 . S
C300 H290 0.950 . S
C300 C301 1.386 . S
C300 C302 1.391 . S
C301 C300 1.386 . S
C301 C305 1.393 . S
C302 H291 0.950 . S
C302 C300 1.391 . S
C302 C303 1.400 . S
C303 C297 1.491 . S
C303 C302 1.400 . S
C303 C304 1.398 . S
C304 H292 0.950 . S
C304 C303 1.398 . S
C304 C305 1.391 . S
C305 H293 0.950 . S
C305 C301 1.393 . S
C305 C304 1.391 . S
H306 C314 0.950 . S
H307 C319 0.950 . S
H308 C316 0.950 . S
H309 C318 0.950 . S
H310 C320 0.950 . S
H311 C322 0.950 . S
H312 C324 0.950 . S
H313 C325 0.950 . S
C314 H306 0.950 . S
C314 C315 1.386 . S
C314 C316 1.391 . S
C315 C314 1.386 . S
C315 C319 1.393 . S
C316 H308 0.950 . S
C316 C314 1.391 . S
C316 C317 1.400 . S
C317 C316 1.400 . S
C317 C318 1.398 . S
C317 C323 1.491 . S
C318 H309 0.950 . S
C318 C317 1.398 . S
C318 C319 1.391 . S
C319 H307 0.950 . S
C319 C315 1.393 . S
C319 C318 1.391 . S
C320 H310 0.950 . S
C320 C321 1.386 . S
C320 C322 1.391 . S
C321 C320 1.386 . S
C321 C325 1.393 . S
C322 H311 0.950 . S
C322 C320 1.391 . S
C322 C323 1.400 . S
C323 C317 1.491 . S
C323 C322 1.400 . S
C323 C324 1.398 . S
C324 H312 0.950 . S
C324 C323 1.398 . S
C324 C325 1.391 . S
C325 H313 0.950 . S
C325 C321 1.393 . S
C325 C324 1.391 . S
C101 C80 1.154 . S
C95 C3 1.158 . S
C115 C4 1.531 . S
C121 C69 1.433 . S
C135 C19 1.484 . S
C141 C83 1.566 . S
C155 C7 1.166 . S
C161 C72 1.254 . S
C175 C37 1.158 . S
C181 C58 1.154 . S
C195 C28 1.512 . S
C201 C47 1.437 . S
C221 C61 1.574 . S
C215 C41 1.497 . S
C241 C50 1.251 . S
C235 C25 1.158 . S
C255 C20 1.307 . S
C261 C49 1.441 . S
C275 C16 1.393 1_455 S
C281 C60 1.494 1_655 S
C301 C71 1.443 . S
C295 C40 1.306 . S
C315 C24 1.382 . S
C321 C82 1.495 . S
