# Generated by pormake.
# Topology gar, (4,6)-cn, num edge types: 1
# Building blocks:
#     Node 0, Type 0, BuildingBlock: UXUYUI_clean_sbu_0, # of connection points: 4
#     Node 1, Type 0, BuildingBlock: UXUYUI_clean_sbu_0, # of connection points: 4
#     Node 2, Type 0, BuildingBlock: UXUYUI_clean_sbu_0, # of connection points: 4
#     Node 3, Type 0, BuildingBlock: UXUYUI_clean_sbu_0, # of connection points: 4
#     Node 4, Type 0, BuildingBlock: UXUYUI_clean_sbu_0, # of connection points: 4
#     Node 5, Type 0, BuildingBlock: UXUYUI_clean_sbu_0, # of connection points: 4
#     Node 6, Type 0, BuildingBlock: UXUYUI_clean_sbu_0, # of connection points: 4
#     Node 7, Type 0, BuildingBlock: UXUYUI_clean_sbu_0, # of connection points: 4
#     Node 8, Type 0, BuildingBlock: UXUYUI_clean_sbu_0, # of connection points: 4
#     Node 9, Type 0, BuildingBlock: UXUYUI_clean_sbu_0, # of connection points: 4
#     Node 10, Type 0, BuildingBlock: UXUYUI_clean_sbu_0, # of connection points: 4
#     Node 11, Type 0, BuildingBlock: UXUYUI_clean_sbu_0, # of connection points: 4
#     Node 12, Type 0, BuildingBlock: UXUYUI_clean_sbu_0, # of connection points: 4
#     Node 13, Type 0, BuildingBlock: UXUYUI_clean_sbu_0, # of connection points: 4
#     Node 14, Type 0, BuildingBlock: UXUYUI_clean_sbu_0, # of connection points: 4
#     Node 15, Type 0, BuildingBlock: UXUYUI_clean_sbu_0, # of connection points: 4
#     Node 16, Type 0, BuildingBlock: UXUYUI_clean_sbu_0, # of connection points: 4
#     Node 17, Type 0, BuildingBlock: UXUYUI_clean_sbu_0, # of connection points: 4
#     Node 18, Type 0, BuildingBlock: UXUYUI_clean_sbu_0, # of connection points: 4
#     Node 19, Type 0, BuildingBlock: UXUYUI_clean_sbu_0, # of connection points: 4
#     Node 20, Type 0, BuildingBlock: UXUYUI_clean_sbu_0, # of connection points: 4
#     Node 21, Type 0, BuildingBlock: UXUYUI_clean_sbu_0, # of connection points: 4
#     Node 22, Type 0, BuildingBlock: UXUYUI_clean_sbu_0, # of connection points: 4
#     Node 23, Type 0, BuildingBlock: UXUYUI_clean_sbu_0, # of connection points: 4
#     Node 24, Type 1, BuildingBlock: PAMTUU_clean_sbu_0, # of connection points: 6
#     Node 25, Type 1, BuildingBlock: PAMTUU_clean_sbu_0, # of connection points: 6
#     Node 26, Type 1, BuildingBlock: PAMTUU_clean_sbu_0, # of connection points: 6
#     Node 27, Type 1, BuildingBlock: PAMTUU_clean_sbu_0, # of connection points: 6
#     Node 28, Type 1, BuildingBlock: PAMTUU_clean_sbu_0, # of connection points: 6
#     Node 29, Type 1, BuildingBlock: PAMTUU_clean_sbu_0, # of connection points: 6
#     Node 30, Type 1, BuildingBlock: PAMTUU_clean_sbu_0, # of connection points: 6
#     Node 31, Type 1, BuildingBlock: PAMTUU_clean_sbu_0, # of connection points: 6
#     Node 32, Type 1, BuildingBlock: PAMTUU_clean_sbu_0, # of connection points: 6
#     Node 33, Type 1, BuildingBlock: PAMTUU_clean_sbu_0, # of connection points: 6
#     Node 34, Type 1, BuildingBlock: PAMTUU_clean_sbu_0, # of connection points: 6
#     Node 35, Type 1, BuildingBlock: PAMTUU_clean_sbu_0, # of connection points: 6
#     Node 36, Type 1, BuildingBlock: PAMTUU_clean_sbu_0, # of connection points: 6
#     Node 37, Type 1, BuildingBlock: PAMTUU_clean_sbu_0, # of connection points: 6
#     Node 38, Type 1, BuildingBlock: PAMTUU_clean_sbu_0, # of connection points: 6
#     Node 39, Type 1, BuildingBlock: PAMTUU_clean_sbu_0, # of connection points: 6
#     Edge 40, Type (0, 1), BuildingBlock: KIFKEQ_clean_linker_1, # of connection points: 2
#     Edge 41, Type (0, 1), BuildingBlock: KIFKEQ_clean_linker_1, # of connection points: 2
#     Edge 42, Type (0, 1), BuildingBlock: KIFKEQ_clean_linker_1, # of connection points: 2
#     Edge 43, Type (0, 1), BuildingBlock: KIFKEQ_clean_linker_1, # of connection points: 2
#     Edge 44, Type (0, 1), BuildingBlock: KIFKEQ_clean_linker_1, # of connection points: 2
#     Edge 45, Type (0, 1), BuildingBlock: KIFKEQ_clean_linker_1, # of connection points: 2
#     Edge 46, Type (0, 1), BuildingBlock: KIFKEQ_clean_linker_1, # of connection points: 2
#     Edge 47, Type (0, 1), BuildingBlock: KIFKEQ_clean_linker_1, # of connection points: 2
#     Edge 48, Type (0, 1), BuildingBlock: KIFKEQ_clean_linker_1, # of connection points: 2
#     Edge 49, Type (0, 1), BuildingBlock: KIFKEQ_clean_linker_1, # of connection points: 2
#     Edge 50, Type (0, 1), BuildingBlock: KIFKEQ_clean_linker_1, # of connection points: 2
#     Edge 51, Type (0, 1), BuildingBlock: KIFKEQ_clean_linker_1, # of connection points: 2
#     Edge 52, Type (0, 1), BuildingBlock: KIFKEQ_clean_linker_1, # of connection points: 2
#     Edge 53, Type (0, 1), BuildingBlock: KIFKEQ_clean_linker_1, # of connection points: 2
#     Edge 54, Type (0, 1), BuildingBlock: KIFKEQ_clean_linker_1, # of connection points: 2
#     Edge 55, Type (0, 1), BuildingBlock: KIFKEQ_clean_linker_1, # of connection points: 2
#     Edge 56, Type (0, 1), BuildingBlock: KIFKEQ_clean_linker_1, # of connection points: 2
#     Edge 57, Type (0, 1), BuildingBlock: KIFKEQ_clean_linker_1, # of connection points: 2
#     Edge 58, Type (0, 1), BuildingBlock: KIFKEQ_clean_linker_1, # of connection points: 2
#     Edge 59, Type (0, 1), BuildingBlock: KIFKEQ_clean_linker_1, # of connection points: 2
#     Edge 60, Type (0, 1), BuildingBlock: KIFKEQ_clean_linker_1, # of connection points: 2
#     Edge 61, Type (0, 1), BuildingBlock: KIFKEQ_clean_linker_1, # of connection points: 2
#     Edge 62, Type (0, 1), BuildingBlock: KIFKEQ_clean_linker_1, # of connection points: 2
#     Edge 63, Type (0, 1), BuildingBlock: KIFKEQ_clean_linker_1, # of connection points: 2
#     Edge 64, Type (0, 1), BuildingBlock: KIFKEQ_clean_linker_1, # of connection points: 2
#     Edge 65, Type (0, 1), BuildingBlock: KIFKEQ_clean_linker_1, # of connection points: 2
#     Edge 66, Type (0, 1), BuildingBlock: KIFKEQ_clean_linker_1, # of connection points: 2
#     Edge 67, Type (0, 1), BuildingBlock: KIFKEQ_clean_linker_1, # of connection points: 2
#     Edge 68, Type (0, 1), BuildingBlock: KIFKEQ_clean_linker_1, # of connection points: 2
#     Edge 69, Type (0, 1), BuildingBlock: KIFKEQ_clean_linker_1, # of connection points: 2
#     Edge 70, Type (0, 1), BuildingBlock: KIFKEQ_clean_linker_1, # of connection points: 2
#     Edge 71, Type (0, 1), BuildingBlock: KIFKEQ_clean_linker_1, # of connection points: 2
#     Edge 72, Type (0, 1), BuildingBlock: KIFKEQ_clean_linker_1, # of connection points: 2
#     Edge 73, Type (0, 1), BuildingBlock: KIFKEQ_clean_linker_1, # of connection points: 2
#     Edge 74, Type (0, 1), BuildingBlock: KIFKEQ_clean_linker_1, # of connection points: 2
#     Edge 75, Type (0, 1), BuildingBlock: KIFKEQ_clean_linker_1, # of connection points: 2
#     Edge 76, Type (0, 1), BuildingBlock: KIFKEQ_clean_linker_1, # of connection points: 2
#     Edge 77, Type (0, 1), BuildingBlock: KIFKEQ_clean_linker_1, # of connection points: 2
#     Edge 78, Type (0, 1), BuildingBlock: KIFKEQ_clean_linker_1, # of connection points: 2
#     Edge 79, Type (0, 1), BuildingBlock: KIFKEQ_clean_linker_1, # of connection points: 2
#     Edge 80, Type (0, 1), BuildingBlock: KIFKEQ_clean_linker_1, # of connection points: 2
#     Edge 81, Type (0, 1), BuildingBlock: KIFKEQ_clean_linker_1, # of connection points: 2
#     Edge 82, Type (0, 1), BuildingBlock: KIFKEQ_clean_linker_1, # of connection points: 2
#     Edge 83, Type (0, 1), BuildingBlock: KIFKEQ_clean_linker_1, # of connection points: 2
#     Edge 84, Type (0, 1), BuildingBlock: KIFKEQ_clean_linker_1, # of connection points: 2
#     Edge 85, Type (0, 1), BuildingBlock: KIFKEQ_clean_linker_1, # of connection points: 2
#     Edge 86, Type (0, 1), BuildingBlock: KIFKEQ_clean_linker_1, # of connection points: 2
#     Edge 87, Type (0, 1), BuildingBlock: KIFKEQ_clean_linker_1, # of connection points: 2
#     Edge 88, Type (0, 1), BuildingBlock: KIFKEQ_clean_linker_1, # of connection points: 2
#     Edge 89, Type (0, 1), BuildingBlock: KIFKEQ_clean_linker_1, # of connection points: 2
#     Edge 90, Type (0, 1), BuildingBlock: KIFKEQ_clean_linker_1, # of connection points: 2
#     Edge 91, Type (0, 1), BuildingBlock: KIFKEQ_clean_linker_1, # of connection points: 2
#     Edge 92, Type (0, 1), BuildingBlock: KIFKEQ_clean_linker_1, # of connection points: 2
#     Edge 93, Type (0, 1), BuildingBlock: KIFKEQ_clean_linker_1, # of connection points: 2
#     Edge 94, Type (0, 1), BuildingBlock: KIFKEQ_clean_linker_1, # of connection points: 2
#     Edge 95, Type (0, 1), BuildingBlock: KIFKEQ_clean_linker_1, # of connection points: 2
#     Edge 96, Type (0, 1), BuildingBlock: KIFKEQ_clean_linker_1, # of connection points: 2
#     Edge 97, Type (0, 1), BuildingBlock: KIFKEQ_clean_linker_1, # of connection points: 2
#     Edge 98, Type (0, 1), BuildingBlock: KIFKEQ_clean_linker_1, # of connection points: 2
#     Edge 99, Type (0, 1), BuildingBlock: KIFKEQ_clean_linker_1, # of connection points: 2
#     Edge 100, Type (0, 1), BuildingBlock: KIFKEQ_clean_linker_1, # of connection points: 2
#     Edge 101, Type (0, 1), BuildingBlock: KIFKEQ_clean_linker_1, # of connection points: 2
#     Edge 102, Type (0, 1), BuildingBlock: KIFKEQ_clean_linker_1, # of connection points: 2
#     Edge 103, Type (0, 1), BuildingBlock: KIFKEQ_clean_linker_1, # of connection points: 2
#     Edge 104, Type (0, 1), BuildingBlock: KIFKEQ_clean_linker_1, # of connection points: 2
#     Edge 105, Type (0, 1), BuildingBlock: KIFKEQ_clean_linker_1, # of connection points: 2
#     Edge 106, Type (0, 1), BuildingBlock: KIFKEQ_clean_linker_1, # of connection points: 2
#     Edge 107, Type (0, 1), BuildingBlock: KIFKEQ_clean_linker_1, # of connection points: 2
#     Edge 108, Type (0, 1), BuildingBlock: KIFKEQ_clean_linker_1, # of connection points: 2
#     Edge 109, Type (0, 1), BuildingBlock: KIFKEQ_clean_linker_1, # of connection points: 2
#     Edge 110, Type (0, 1), BuildingBlock: KIFKEQ_clean_linker_1, # of connection points: 2
#     Edge 111, Type (0, 1), BuildingBlock: KIFKEQ_clean_linker_1, # of connection points: 2
#     Edge 112, Type (0, 1), BuildingBlock: KIFKEQ_clean_linker_1, # of connection points: 2
#     Edge 113, Type (0, 1), BuildingBlock: KIFKEQ_clean_linker_1, # of connection points: 2
#     Edge 114, Type (0, 1), BuildingBlock: KIFKEQ_clean_linker_1, # of connection points: 2
#     Edge 115, Type (0, 1), BuildingBlock: KIFKEQ_clean_linker_1, # of connection points: 2
#     Edge 116, Type (0, 1), BuildingBlock: KIFKEQ_clean_linker_1, # of connection points: 2
#     Edge 117, Type (0, 1), BuildingBlock: KIFKEQ_clean_linker_1, # of connection points: 2
#     Edge 118, Type (0, 1), BuildingBlock: KIFKEQ_clean_linker_1, # of connection points: 2
#     Edge 119, Type (0, 1), BuildingBlock: KIFKEQ_clean_linker_1, # of connection points: 2
#     Edge 120, Type (0, 1), BuildingBlock: KIFKEQ_clean_linker_1, # of connection points: 2
#     Edge 121, Type (0, 1), BuildingBlock: KIFKEQ_clean_linker_1, # of connection points: 2
#     Edge 122, Type (0, 1), BuildingBlock: KIFKEQ_clean_linker_1, # of connection points: 2
#     Edge 123, Type (0, 1), BuildingBlock: KIFKEQ_clean_linker_1, # of connection points: 2
#     Edge 124, Type (0, 1), BuildingBlock: KIFKEQ_clean_linker_1, # of connection points: 2
#     Edge 125, Type (0, 1), BuildingBlock: KIFKEQ_clean_linker_1, # of connection points: 2
#     Edge 126, Type (0, 1), BuildingBlock: KIFKEQ_clean_linker_1, # of connection points: 2
#     Edge 127, Type (0, 1), BuildingBlock: KIFKEQ_clean_linker_1, # of connection points: 2
#     Edge 128, Type (0, 1), BuildingBlock: KIFKEQ_clean_linker_1, # of connection points: 2
#     Edge 129, Type (0, 1), BuildingBlock: KIFKEQ_clean_linker_1, # of connection points: 2
#     Edge 130, Type (0, 1), BuildingBlock: KIFKEQ_clean_linker_1, # of connection points: 2
#     Edge 131, Type (0, 1), BuildingBlock: KIFKEQ_clean_linker_1, # of connection points: 2
#     Edge 132, Type (0, 1), BuildingBlock: KIFKEQ_clean_linker_1, # of connection points: 2
#     Edge 133, Type (0, 1), BuildingBlock: KIFKEQ_clean_linker_1, # of connection points: 2
#     Edge 134, Type (0, 1), BuildingBlock: KIFKEQ_clean_linker_1, # of connection points: 2
#     Edge 135, Type (0, 1), BuildingBlock: KIFKEQ_clean_linker_1, # of connection points: 2
# Relax obj value: 0.181
# Max RMSD: 0.304
# Mean RMSD: 0.203
data_MOF--net-gar--node1-UXUYUI_clean_sbu_0--node2-PAMTUU_clean_sbu_0--edge1-KIFKEQ_clean_linker_1
_symmetry_space_group_name_H-M    P1
_symmetry_Int_Tables_number       1
_symmetry_cell_setting            triclinic
loop_
_symmetry_equiv_pos_as_xyz
'x, y, z'
_cell_length_a     73.707302
_cell_length_b     69.915577
_cell_length_c     72.796514
_cell_angle_alpha  93.578095
_cell_angle_beta   93.361042
_cell_angle_gamma 106.56242
loop_
_atom_site_label
_atom_site_type_symbol
_atom_site_fract_x
_atom_site_fract_y
_atom_site_fract_z
_atom_type_partial_charge
Li0 Li 0.02948 0.26861 0.37604 0.0
Li1 Li 0.05233 0.29149 0.40252 0.0
Li2 Li 0.06854 0.272 0.37685 0.0
Li3 Li 0.0483 0.25143 0.40196 0.0
C4 C 0.05144 0.30169 0.35862 0.0
N5 N 0.04767 0.31906 0.32612 0.0
C6 C 0.04852 0.32059 0.35905 0.0
C7 C 0.05254 0.29165 0.34171 0.0
C8 C 0.04661 0.32911 0.34245 0.0
C9 C 0.05058 0.30068 0.32542 0.0
C10 C 0.02032 0.27369 0.41857 0.0
C11 C 0.01865 0.27897 0.45139 0.0
N12 N 1.00434 0.28735 0.44816 0.0
C13 C 1.00559 0.28231 0.41555 0.0
C14 C 0.02692 0.27197 0.4366 0.0
C15 C 0.9977 0.28914 0.43071 0.0
C16 C 0.98843 0.25079 0.35648 0.0
N17 N 1.00255 0.26808 0.3621 0.0
C18 C 0.98051 0.28667 0.3522 0.0
C19 C 0.99853 0.28583 0.35993 0.0
C20 C 0.96546 0.26911 0.34637 0.0
C21 C 0.97015 0.25097 0.3487 0.0
H22 H 0.99107 0.23654 0.35828 0.0
H23 H 1.00925 0.2997 0.36452 0.0
C24 C 0.06594 0.3279 0.43195 0.0
N25 N 0.05302 0.31875 0.41747 0.0
C26 C 0.06561 0.3463 0.4414 0.0
C27 C 0.03885 0.34626 0.42117 0.0
C28 C 0.0396 0.32785 0.41218 0.0
C29 C 0.05195 0.35615 0.43618 0.0
H30 H 0.07674 0.32108 0.43629 0.0
H31 H 0.02923 0.32082 0.40082 0.0
C32 C 0.04703 0.23272 0.36135 0.0
N33 N 0.05247 0.20375 0.33652 0.0
C34 C 0.05859 0.22095 0.36665 0.0
C35 C 0.03822 0.22978 0.34346 0.0
C36 C 0.06116 0.20637 0.35389 0.0
C37 C 0.04116 0.21504 0.3311 0.0
C38 C 0.08587 0.27136 0.41635 0.0
C39 C 0.09572 0.25843 0.40953 0.0
C40 C 0.08972 0.27948 0.43468 0.0
C41 C 0.10938 0.25387 0.42119 0.0
C42 C 0.10349 0.27456 0.4459 0.0
N43 N 0.11295 0.26197 0.43898 0.0
C44 C 0.11148 0.28626 0.36988 0.0
C45 C 0.09481 0.26085 0.34753 0.0
C46 C 0.12903 0.28706 0.36195 0.0
N47 N 0.0944 0.27326 0.36282 0.0
C48 C 0.11209 0.2611 0.33927 0.0
C49 C 0.13002 0.27432 0.34626 0.0
H50 H 0.11174 0.2961 0.38203 0.0
H51 H 0.08166 0.25042 0.34155 0.0
C52 C 0.03646 0.20667 0.40927 0.0
N53 N 0.04677 0.22536 0.41681 0.0
C54 C 0.0357 0.18895 0.41838 0.0
C55 C 0.05615 0.20919 0.44323 0.0
C56 C 0.05643 0.22654 0.43372 0.0
C57 C 0.04569 0.18957 0.43582 0.0
H58 H 0.02868 0.20529 0.39594 0.0
H59 H 0.06463 0.24104 0.44006 0.0
O60 O 0.0531 0.29293 0.37464 0.0
O61 O 0.02867 0.26752 0.40397 0.0
O62 O 0.04453 0.24722 0.37355 0.0
O63 O 0.0723 0.27579 0.4052 0.0
H64 H 0.04769 0.32857 0.37205 0.0
H65 H 0.05484 0.27701 0.34119 0.0
H66 H 0.04429 0.34371 0.34255 0.0
H67 H 0.05136 0.29307 0.31221 0.0
H68 H 0.02364 0.2778 0.46543 0.0
H69 H 1.00043 0.28386 0.40166 0.0
H70 H 0.03843 0.26546 0.43911 0.0
H71 H 0.98633 0.29592 0.42861 0.0
H72 H 0.97859 0.30128 0.35081 0.0
H73 H 0.95964 0.23672 0.34495 0.0
H74 H 0.07634 0.3529 0.45258 0.0
H75 H 0.02773 0.35249 0.41641 0.0
H76 H 0.06553 0.2231 0.38045 0.0
H77 H 0.02926 0.23883 0.33917 0.0
H78 H 0.07009 0.19716 0.35777 0.0
H79 H 0.03446 0.2126 0.31719 0.0
H80 H 0.0928 0.25193 0.3954 0.0
H81 H 0.08201 0.28926 0.44024 0.0
H82 H 0.11711 0.24388 0.4161 0.0
H83 H 0.10661 0.28069 0.46013 0.0
H84 H 0.14189 0.29752 0.36852 0.0
H85 H 0.11121 0.25093 0.32721 0.0
H86 H 0.02705 0.17483 0.41162 0.0
H87 H 0.06449 0.2114 0.45631 0.0
Li88 Li 0.04495 0.80358 0.64915 0.0
Li89 Li 0.06145 0.78583 0.67338 0.0
Li90 Li 0.04013 0.7624 0.6471 0.0
Li91 Li 0.02306 0.78194 0.67395 0.0
C92 C 0.0825 0.794 0.64454 0.0
N93 N 0.12143 0.80928 0.64433 0.0
C94 C 0.09087 0.81465 0.64472 0.0
C95 C 0.09391 0.78111 0.6441 0.0
C96 C 0.11057 0.82208 0.64463 0.0
C97 C 0.11358 0.78913 0.64406 0.0
C98 C 0.05495 0.82063 0.6917 0.0
C99 C 0.05686 0.83286 0.72368 0.0
N100 N 0.07242 0.84812 0.7209 0.0
C101 C 0.0709 0.83646 0.68914 0.0
C102 C 0.04781 0.81882 0.70907 0.0
C103 C 0.07956 0.85019 0.70408 0.0
C104 C 0.04355 0.82847 0.61534 0.0
N105 N 0.04591 0.82947 0.63424 0.0
C106 C 0.04921 0.86539 0.63442 0.0
C107 C 0.04865 0.8478 0.64365 0.0
C108 C 0.04676 0.86497 0.61487 0.0
C109 C 0.04386 0.84569 0.60558 0.0
H110 H 0.04126 0.81417 0.60757 0.0
H111 H 0.05041 0.84902 0.65856 0.0
C112 C 0.09224 0.7685 0.69 0.0
N113 N 0.0883 0.78629 0.68779 0.0
C114 C 0.11018 0.76755 0.69783 0.0
C115 C 0.12076 0.80323 0.70117 0.0
C116 C 0.10256 0.80352 0.69331 0.0
C117 C 0.12528 0.78504 0.70366 0.0
H118 H 0.08156 0.75466 0.6853 0.0
H119 H 0.10018 0.81781 0.69124 0.0
C120 C 1.00898 0.78419 0.63218 0.0
N121 N 0.98688 0.79581 0.60566 0.0
C122 C 0.99796 0.79664 0.63729 0.0
C123 C 1.00882 0.77767 0.61362 0.0
C124 C 0.98687 0.80234 0.62366 0.0
C125 C 0.99752 0.7837 0.60041 0.0
C126 C 0.04184 0.75049 0.68934 0.0
C127 C 0.04298 0.73097 0.68608 0.0
C128 C 0.04425 0.75933 0.70741 0.0
C129 C 0.04669 0.72065 0.701 0.0
C130 C 0.04796 0.74852 0.72196 0.0
N131 N 0.04911 0.72957 0.71848 0.0
C132 C 0.05345 0.72706 0.63521 0.0
C133 C 0.02452 0.72512 0.61884 0.0
C134 C 0.05406 0.70883 0.62579 0.0
N135 N 0.0389 0.73522 0.63173 0.0
C136 C 0.02452 0.7067 0.60916 0.0
C137 C 0.03948 0.6979 0.61237 0.0
H138 H 0.06476 0.73461 0.64556 0.0
H139 H 0.01277 0.73117 0.61601 0.0
C140 C 0.99302 0.7976 0.69398 0.0
N141 N 0.99707 0.78043 0.68775 0.0
C142 C 0.97577 0.79728 0.70232 0.0
C143 C 0.96626 0.76166 0.69812 0.0
C144 C 0.9837 0.76261 0.68987 0.0
C145 C 0.96157 0.77914 0.70468 0.0
H146 H 1.00312 0.81191 0.69234 0.0
H147 H 0.98637 0.74878 0.68505 0.0
O148 O 0.0633 0.7866 0.64536 0.0
O149 O 0.04631 0.80698 0.67729 0.0
O150 O 0.02033 0.77893 0.64525 0.0
O151 O 0.03849 0.76097 0.67493 0.0
H152 H 0.08223 0.82482 0.64503 0.0
H153 H 0.08772 0.76513 0.64406 0.0
H154 H 0.11724 0.83804 0.64485 0.0
H155 H 0.1226 0.77934 0.64388 0.0
H156 H 0.05151 0.83163 0.73721 0.0
H157 H 0.07661 0.83806 0.67578 0.0
H158 H 0.03539 0.80671 0.71124 0.0
H159 H 0.09196 0.86248 0.70232 0.0
H160 H 0.05179 0.87931 0.64286 0.0
H161 H 0.04154 0.8436 0.59071 0.0
H162 H 0.112 0.7529 0.69925 0.0
H163 H 0.13137 0.81743 0.70482 0.0
H164 H 0.9981 0.80194 0.6516 0.0
H165 H 0.01745 0.76821 0.60946 0.0
H166 H 0.9783 0.812 0.62738 0.0
H167 H 0.99727 0.77882 0.58598 0.0
H168 H 0.04101 0.72388 0.67218 0.0
H169 H 0.04341 0.77442 0.71013 0.0
H170 H 0.04767 0.70555 0.69869 0.0
H171 H 0.04995 0.75521 0.73601 0.0
H172 H 0.06622 0.70359 0.62907 0.0
H173 H 0.01257 0.69934 0.5994 0.0
H174 H 0.97358 0.8115 0.70657 0.0
H175 H 0.95657 0.74703 0.69942 0.0
Li176 Li 0.52946 0.76918 0.87617 0.0
Li177 Li 0.55222 0.79208 0.9033 0.0
Li178 Li 0.56863 0.77299 0.87712 0.0
Li179 Li 0.54836 0.752 0.90177 0.0
C180 C 0.55077 0.80653 0.86277 0.0
N181 N 0.54587 0.83234 0.837 0.0
C182 C 0.54206 0.82131 0.86733 0.0
C183 C 0.55701 0.80484 0.84515 0.0
C184 C 0.53971 0.83423 0.85409 0.0
C185 C 0.55439 0.81805 0.8323 0.0
C186 C 0.51958 0.77049 0.9196 0.0
C187 C 0.51892 0.77262 0.95272 0.0
N188 N 0.50166 0.77604 0.95092 0.0
C189 C 0.50184 0.77402 0.91805 0.0
C190 C 0.52821 0.7698 0.93705 0.0
C191 C 0.49301 0.77679 0.93406 0.0
C192 C 0.48584 0.7564 0.86757 0.0
N193 N 0.50247 0.76823 0.86187 0.0
C194 C 0.48301 0.78091 0.83987 0.0
C195 C 0.50098 0.78024 0.84798 0.0
C196 C 0.46551 0.76916 0.84569 0.0
C197 C 0.46759 0.75665 0.85984 0.0
H198 H 0.48653 0.74677 0.87849 0.0
H199 H 0.51376 0.78974 0.84313 0.0
C200 C 0.57033 0.83326 0.92503 0.0
N201 N 0.55359 0.81933 0.91862 0.0
C202 C 0.57075 0.85198 0.93436 0.0
C203 C 0.53681 0.84226 0.93086 0.0
C204 C 0.53702 0.82388 0.92144 0.0
C205 C 0.55382 0.85702 0.93759 0.0
H206 H 0.58358 0.83004 0.92278 0.0
H207 H 0.5237 0.8134 0.91603 0.0
C208 C 0.54715 0.73815 0.85714 0.0
N209 N 0.55267 0.71916 0.82444 0.0
C210 C 0.55813 0.72485 0.85727 0.0
C211 C 0.539 0.74187 0.84042 0.0
C212 C 0.56076 0.71538 0.84057 0.0
C213 C 0.54194 0.73209 0.82402 0.0
C214 C 0.58378 0.77271 0.91933 0.0
C215 C 0.59505 0.76011 0.91567 0.0
C216 C 0.58415 0.7813 0.93725 0.0
C217 C 0.60646 0.75617 0.9301 0.0
C218 C 0.59576 0.77701 0.9513 0.0
N219 N 0.60658 0.76463 0.94747 0.0
C220 C 0.61186 0.78203 0.87299 0.0
C221 C 0.59459 0.76822 0.84495 0.0
C222 C 0.62937 0.78279 0.86505 0.0
N223 N 0.59451 0.77471 0.86314 0.0
C224 C 0.61182 0.76875 0.83646 0.0
C225 C 0.63003 0.77608 0.84632 0.0
H226 H 0.61235 0.78729 0.88736 0.0
H227 H 0.58121 0.76246 0.83671 0.0
C228 C 0.53425 0.71942 0.92937 0.0
N229 N 0.54715 0.72591 0.91661 0.0
C230 C 0.53359 0.70204 0.93902 0.0
C231 C 0.55927 0.69743 0.92252 0.0
C232 C 0.55951 0.71492 0.91325 0.0
C233 C 0.54619 0.69034 0.93585 0.0
H234 H 0.52415 0.7276 0.93216 0.0
H235 H 0.56982 0.71963 0.90325 0.0
O236 O 0.55308 0.79363 0.87543 0.0
O237 O 0.52862 0.768 0.90415 0.0
O238 O 0.54466 0.74786 0.87325 0.0
O239 O 0.57229 0.77649 0.90546 0.0
H240 H 0.53706 0.82271 0.88088 0.0
H241 H 0.56372 0.7934 0.84143 0.0
H242 H 0.53295 0.84573 0.85739 0.0
H243 H 0.55912 0.81692 0.81859 0.0
H244 H 0.52543 0.7721 0.96632 0.0
H245 H 0.49508 0.77488 0.90467 0.0
H246 H 0.54193 0.76706 0.93845 0.0
H247 H 0.47931 0.77961 0.93309 0.0
H248 H 0.48304 0.7911 0.82929 0.0
H249 H 0.45517 0.74683 0.86505 0.0
H250 H 0.58439 0.86236 0.93917 0.0
H251 H 0.52324 0.84501 0.9324 0.0
H252 H 0.56467 0.72197 0.87009 0.0
H253 H 0.53058 0.75227 0.84011 0.0
H254 H 0.56926 0.70507 0.84044 0.0
H255 H 0.53575 0.73482 0.81096 0.0
H256 H 0.59487 0.75333 0.90186 0.0
H257 H 0.57553 0.79115 0.94026 0.0
H258 H 0.6152 0.74637 0.9275 0.0
H259 H 0.59618 0.78351 0.96526 0.0
H260 H 0.64234 0.78843 0.87392 0.0
H261 H 0.61065 0.76352 0.82203 0.0
H262 H 0.52289 0.69768 0.94873 0.0
H263 H 0.56963 0.68971 0.91931 0.0
Li264 Li 0.54565 0.30409 0.14851 0.0
Li265 Li 0.56271 0.28702 0.17269 0.0
Li266 Li 0.54107 0.2638 0.14585 0.0
Li267 Li 0.52411 0.28257 0.17339 0.0
C268 C 0.5799 0.29802 0.13692 0.0
N269 N 0.61113 0.31976 0.12031 0.0
C270 C 0.59374 0.31363 0.14707 0.0
C271 C 0.58183 0.2936 0.11828 0.0
C272 C 0.60946 0.3244 0.13844 0.0
C273 C 0.59775 0.30473 0.11014 0.0
C274 C 0.55698 0.32117 0.19078 0.0
C275 C 0.56343 0.33125 0.22334 0.0
N276 N 0.57724 0.34777 0.21948 0.0
C277 C 0.57117 0.33824 0.18711 0.0
C278 C 0.55301 0.31762 0.209 0.0
C279 C 0.58128 0.35151 0.20183 0.0
C280 C 0.53319 0.33998 0.13587 0.0
N281 N 0.54668 0.33014 0.13368 0.0
C282 C 0.56114 0.35519 0.1126 0.0
C283 C 0.56051 0.33775 0.12209 0.0
C284 C 0.54742 0.36576 0.11453 0.0
C285 C 0.53326 0.35744 0.12657 0.0
H286 H 0.52211 0.33435 0.14493 0.0
H287 H 0.57139 0.33044 0.12009 0.0
C288 C 0.60194 0.28075 0.17697 0.0
N289 N 0.58941 0.28732 0.18707 0.0
C290 C 0.61996 0.28012 0.18481 0.0
C291 C 0.6126 0.2924 0.2139 0.0
C292 C 0.59471 0.29303 0.20546 0.0
C293 C 0.62599 0.28598 0.2037 0.0
H294 H 0.598 0.27578 0.16254 0.0
H295 H 0.58507 0.29808 0.21385 0.0
C296 C 0.51147 0.28461 0.12971 0.0
N297 N 0.49313 0.29561 0.09978 0.0
C298 C 0.49634 0.29255 0.13223 0.0
C299 C 0.5173 0.28225 0.112 0.0
C300 C 0.48723 0.29803 0.11691 0.0
C301 C 0.50784 0.2879 0.09704 0.0
C302 C 0.54719 0.25256 0.18724 0.0
C303 C 0.55892 0.24078 0.18249 0.0
C304 C 0.54381 0.25568 0.20572 0.0
C305 C 0.56714 0.23228 0.19639 0.0
C306 C 0.55228 0.2469 0.2192 0.0
N307 N 0.56368 0.23549 0.2143 0.0
C308 C 0.55468 0.23589 0.12002 0.0
C309 C 0.52545 0.21953 0.13108 0.0
C310 C 0.55523 0.2178 0.11025 0.0
N311 N 0.53988 0.23681 0.13024 0.0
C312 C 0.52556 0.20105 0.12167 0.0
C313 C 0.54061 0.19966 0.11087 0.0
H314 H 0.56649 0.24917 0.11966 0.0
H315 H 0.51378 0.21988 0.13933 0.0
C316 C 0.49032 0.29652 0.18702 0.0
N317 N 0.4982 0.28094 0.18735 0.0
C318 C 0.47298 0.29605 0.19522 0.0
C319 C 0.47133 0.2636 0.20456 0.0
C320 C 0.4887 0.26463 0.19613 0.0
C321 C 0.46268 0.27941 0.20437 0.0
H322 H 0.49737 0.30958 0.18015 0.0
H323 H 0.49448 0.25205 0.19666 0.0
O324 O 0.5644 0.28738 0.14514 0.0
O325 O 0.5472 0.30782 0.17662 0.0
O326 O 0.52102 0.2798 0.14455 0.0
O327 O 0.53972 0.26172 0.17396 0.0
H328 H 0.59238 0.31735 0.16147 0.0
H329 H 0.57102 0.28189 0.11011 0.0
H330 H 0.62031 0.33647 0.14615 0.0
H331 H 0.59943 0.30149 0.09572 0.0
H332 H 0.56057 0.32869 0.23752 0.0
H333 H 0.57434 0.34119 0.17305 0.0
H334 H 0.54206 0.30442 0.21202 0.0
H335 H 0.59234 0.36478 0.19922 0.0
H336 H 0.5727 0.36044 0.10397 0.0
H337 H 0.52198 0.36415 0.1288 0.0
H338 H 0.62898 0.27461 0.17595 0.0
H339 H 0.61596 0.29727 0.22842 0.0
H340 H 0.49175 0.29459 0.14588 0.0
H341 H 0.52912 0.27627 0.10989 0.0
H342 H 0.47552 0.30424 0.11864 0.0
H343 H 0.51222 0.28622 0.08325 0.0
H344 H 0.56181 0.23843 0.16824 0.0
H345 H 0.53488 0.26491 0.20959 0.0
H346 H 0.57633 0.2232 0.19294 0.0
H347 H 0.54985 0.24921 0.23357 0.0
H348 H 0.56746 0.21803 0.10264 0.0
H349 H 0.51373 0.18792 0.1228 0.0
H350 H 0.46764 0.30883 0.19398 0.0
H351 H 0.46488 0.2503 0.21135 0.0
Li352 Li 0.07983 0.81635 0.12027 0.0
Li353 Li 0.09891 0.80279 0.1429 0.0
Li354 Li 0.07731 0.78041 0.11987 0.0
Li355 Li 0.0644 0.79603 0.14438 0.0
C356 C 0.10252 0.79667 0.09794 0.0
N357 N 0.10604 0.78186 0.06266 0.0
C358 C 0.11637 0.78699 0.09478 0.0
C359 C 0.09048 0.79882 0.08315 0.0
C360 C 0.11792 0.77961 0.07684 0.0
C361 C 0.09249 0.79124 0.06542 0.0
C362 C 0.09547 0.84149 0.15179 0.0
C363 C 0.10127 0.87457 0.16695 0.0
N364 N 0.11831 0.88037 0.15953 0.0
C365 C 0.11304 0.84777 0.1443 0.0
C366 C 0.08952 0.85497 0.1632 0.0
C367 C 0.12438 0.86749 0.14839 0.0
C368 C 0.06095 0.84303 0.10675 0.0
N369 N 0.07821 0.83958 0.10765 0.0
C370 C 0.09183 0.87044 0.09416 0.0
C371 C 0.09353 0.85277 0.10136 0.0
C372 C 0.0742 0.87463 0.09338 0.0
C373 C 0.0586 0.86038 0.09958 0.0
H374 H 0.04901 0.83244 0.11197 0.0
H375 H 0.10719 0.84987 0.10238 0.0
C376 C 0.13385 0.7952 0.15097 0.0
N377 N 0.1226 0.80608 0.15741 0.0
C378 C 0.15039 0.79502 0.16129 0.0
C379 C 0.14353 0.81713 0.18493 0.0
C380 C 0.12716 0.81704 0.17403 0.0
C381 C 0.15538 0.80583 0.17871 0.0
H382 H 0.12969 0.78622 0.13798 0.0
H383 H 0.11781 0.82524 0.17911 0.0
C384 C 0.03909 0.77923 0.11386 0.0
N385 N 1.00404 0.75107 0.10674 0.0
C386 C 0.03531 0.76098 0.12188 0.0
C387 C 0.02504 0.78315 0.10223 0.0
C388 C 0.01751 0.74695 0.11811 0.0
C389 C 1.00741 0.76872 0.09879 0.0
C390 C 0.08196 0.77249 0.16429 0.0
C391 C 0.08333 0.75352 0.16788 0.0
C392 C 0.08289 0.78668 0.179 0.0
C393 C 0.0856 0.74906 0.18616 0.0
C394 C 0.08517 0.78163 0.19708 0.0
N395 N 0.08647 0.76309 0.20026 0.0
C396 C 0.08635 0.74471 0.11252 0.0
C397 C 0.06215 0.74745 0.09091 0.0
C398 C 0.08504 0.72551 0.10475 0.0
N399 N 0.07483 0.75517 0.10574 0.0
C400 C 0.06026 0.72817 0.08276 0.0
C401 C 0.07161 0.71672 0.08984 0.0
H402 H 0.09645 0.75123 0.12422 0.0
H403 H 0.05316 0.75603 0.08566 0.0
C404 C 0.03693 0.80958 0.16192 0.0
N405 N 0.04363 0.79345 0.15971 0.0
C406 C 0.02127 0.80871 0.17214 0.0
C407 C 0.01964 0.77458 0.17768 0.0
C408 C 0.03535 0.77612 0.16735 0.0
C409 C 0.01232 0.791 0.18016 0.0
H410 H 0.04362 0.82308 0.15548 0.0
H411 H 0.04081 0.7634 0.16529 0.0
O412 O 0.10022 0.80337 0.11547 0.0
O413 O 0.084 0.82233 0.14784 0.0
O414 O 0.05636 0.79329 0.11739 0.0
O415 O 0.07993 0.77706 0.14643 0.0
H416 H 0.12575 0.78508 0.10603 0.0
H417 H 0.07951 0.80603 0.08538 0.0
H418 H 0.12853 0.77204 0.0742 0.0
H419 H 0.08321 0.79274 0.05387 0.0
H420 H 0.09684 0.88517 0.17576 0.0
H421 H 0.11786 0.83757 0.13539 0.0
H422 H 0.07594 0.85033 0.16907 0.0
H423 H 0.13799 0.87256 0.14268 0.0
H424 H 0.10436 0.88095 0.08977 0.0
H425 H 0.04463 0.86258 0.099 0.0
H426 H 0.1591 0.78632 0.15565 0.0
H427 H 0.1465 0.82545 0.19834 0.0
H428 H 0.04601 0.75764 0.13087 0.0
H429 H 0.02775 0.79721 0.09591 0.0
H430 H 0.0144 0.73277 0.12421 0.0
H431 H 0.99641 0.77156 0.08981 0.0
H432 H 0.08265 0.74238 0.15665 0.0
H433 H 0.08187 0.80144 0.17653 0.0
H434 H 0.08668 0.73444 0.18914 0.0
H435 H 0.08593 0.79247 0.20858 0.0
H436 H 0.09447 0.71764 0.11047 0.0
H437 H 0.0496 0.72211 0.07139 0.0
H438 H 0.016 0.82165 0.1734 0.0
H439 H 0.01336 0.76069 0.18374 0.0
Li440 Li 0.51324 0.78181 0.43912 0.0
Li441 Li 0.49231 0.75982 0.41455 0.0
Li442 Li 0.51017 0.74505 0.4382 0.0
Li443 Li 0.52634 0.76544 0.41395 0.0
C444 C 0.48328 0.75862 0.45886 0.0
N445 N 0.46971 0.75775 0.49346 0.0
C446 C 0.46481 0.75954 0.46095 0.0
C447 C 0.49479 0.75712 0.47431 0.0
C448 C 0.45823 0.75913 0.47858 0.0
C449 C 0.48769 0.75673 0.4917 0.0
C450 C 0.50305 0.79495 0.40092 0.0
C451 C 0.49041 0.79889 0.37052 0.0
N452 N 0.483 0.81308 0.3779 0.0
C453 C 0.49534 0.80961 0.4082 0.0
C454 C 0.50064 0.7896 0.38191 0.0
C455 C 0.48525 0.8186 0.39634 0.0
C456 C 0.53096 0.82299 0.44805 0.0
N457 N 0.5171 0.8074 0.45347 0.0
C458 C 0.50754 0.82996 0.47444 0.0
C459 C 0.5055 0.81057 0.46651 0.0
C460 C 0.52168 0.84631 0.46899 0.0
C461 C 0.53364 0.84253 0.45576 0.0
H462 H 0.53947 0.8204 0.43711 0.0
H463 H 0.49424 0.79825 0.47042 0.0
C464 C 0.46307 0.74493 0.3844 0.0
N465 N 0.46854 0.75693 0.40038 0.0
C466 C 0.44674 0.74509 0.37359 0.0
C467 C 0.44172 0.76956 0.39608 0.0
C468 C 0.45801 0.7688 0.40649 0.0
C469 C 0.43592 0.75778 0.37922 0.0
H470 H 0.47154 0.73548 0.37986 0.0
H471 H 0.4627 0.77828 0.4192 0.0
C472 C 0.54893 0.78182 0.45051 0.0
N473 N 0.57919 0.81039 0.46962 0.0
C474 C 0.5621 0.79534 0.44098 0.0
C475 C 0.55121 0.78282 0.46978 0.0
C476 C 0.57729 0.80966 0.45088 0.0
C477 C 0.56658 0.79738 0.47919 0.0
C478 C 0.51305 0.72894 0.39784 0.0
C479 C 0.52228 0.71507 0.4033 0.0
C480 C 0.51181 0.73271 0.37924 0.0
C481 C 0.5302 0.70526 0.39006 0.0
C482 C 0.51995 0.72263 0.36643 0.0
N483 N 0.5289 0.70923 0.37205 0.0
C484 C 0.49732 0.70378 0.44618 0.0
C485 C 0.52559 0.72282 0.46343 0.0
C486 C 0.49912 0.68613 0.45329 0.0
N487 N 0.51061 0.72164 0.45114 0.0
C488 C 0.52782 0.70562 0.47102 0.0
C489 C 0.51472 0.68676 0.46572 0.0
H490 H 0.48574 0.70309 0.43608 0.0
H491 H 0.53616 0.73706 0.46697 0.0
C492 C 0.55007 0.77965 0.38466 0.0
N493 N 0.54727 0.76763 0.39884 0.0
C494 C 0.56543 0.78087 0.37392 0.0
C495 C 0.57485 0.75747 0.39265 0.0
C496 C 0.55939 0.7568 0.40308 0.0
C497 C 0.5781 0.76965 0.37781 0.0
H498 H 0.54049 0.78845 0.38179 0.0
H499 H 0.55698 0.74754 0.41457 0.0
O500 O 0.48994 0.75904 0.44171 0.0
O501 O 0.51257 0.7856 0.41236 0.0
O502 O 0.53384 0.76776 0.44105 0.0
O503 O 0.5056 0.73905 0.41067 0.0
H504 H 0.45569 0.76062 0.4491 0.0
H505 H 0.50903 0.75627 0.47287 0.0
H506 H 0.44399 0.75989 0.48043 0.0
H507 H 0.49647 0.75562 0.50379 0.0
H508 H 0.48832 0.79477 0.35581 0.0
H509 H 0.49684 0.81382 0.42287 0.0
H510 H 0.50634 0.77817 0.37604 0.0
H511 H 0.47912 0.82989 0.4018 0.0
H512 H 0.49801 0.83214 0.48461 0.0
H513 H 0.54448 0.85467 0.45083 0.0
H514 H 0.44271 0.73543 0.36091 0.0
H515 H 0.43415 0.77982 0.40095 0.0
H516 H 0.56049 0.79509 0.42612 0.0
H517 H 0.54126 0.77254 0.47747 0.0
H518 H 0.5875 0.82028 0.44367 0.0
H519 H 0.56848 0.79833 0.4941 0.0
H520 H 0.52358 0.71209 0.41763 0.0
H521 H 0.50487 0.7435 0.37478 0.0
H522 H 0.53747 0.69457 0.39411 0.0
H523 H 0.5192 0.72551 0.35201 0.0
H524 H 0.48875 0.67206 0.44849 0.0
H525 H 0.53989 0.70713 0.48079 0.0
H526 H 0.56752 0.79077 0.36287 0.0
H527 H 0.58403 0.74836 0.3961 0.0
Li528 Li 0.57764 0.31248 0.6193 0.0
Li529 Li 0.59658 0.299 0.64231 0.0
Li530 Li 0.57512 0.2766 0.6191 0.0
Li531 Li 0.56213 0.2923 0.64347 0.0
C532 C 0.60105 0.29255 0.59769 0.0
N533 N 0.60576 0.27713 0.56301 0.0
C534 C 0.61477 0.2825 0.59541 0.0
C535 C 0.58975 0.29478 0.58234 0.0
C536 C 0.61692 0.2748 0.57776 0.0
C537 C 0.59235 0.28688 0.56492 0.0
C538 C 0.59314 0.3378 0.65071 0.0
C539 C 0.59906 0.37091 0.66584 0.0
N540 N 0.61604 0.37668 0.6583 0.0
C541 C 0.61065 0.34405 0.64311 0.0
C542 C 0.58728 0.35131 0.66217 0.0
C543 C 0.62202 0.36377 0.64712 0.0
C544 C 0.55848 0.33859 0.60522 0.0
N545 N 0.57589 0.33548 0.60639 0.0
C546 C 0.58915 0.36615 0.59249 0.0
C547 C 0.59111 0.34877 0.60006 0.0
C548 C 0.57134 0.36997 0.59137 0.0
C549 C 0.55586 0.35563 0.59767 0.0
H550 H 0.54662 0.32793 0.61049 0.0
H551 H 0.60488 0.34614 0.60128 0.0
C552 C 0.63112 0.2909 0.65208 0.0
N553 N 0.62 0.30245 0.65739 0.0
C554 C 0.6473 0.2909 0.66314 0.0
C555 C 0.64028 0.31452 0.6852 0.0
C556 C 0.62429 0.31418 0.67362 0.0
C557 C 0.65202 0.30268 0.68007 0.0
H558 H 0.62708 0.28118 0.63948 0.0
H559 H 0.61503 0.32288 0.67785 0.0
C560 C 0.5369 0.27541 0.61296 0.0
N561 N 0.50185 0.24726 0.60582 0.0
C562 C 0.5331 0.25718 0.62101 0.0
C563 C 0.52288 0.27932 0.60128 0.0
C564 C 0.51529 0.24315 0.61723 0.0
C565 C 0.50525 0.26489 0.59784 0.0
C566 C 0.57942 0.26873 0.6636 0.0
C567 C 0.58059 0.24973 0.66732 0.0
C568 C 0.58039 0.28303 0.67822 0.0
C569 C 0.58272 0.24535 0.68564 0.0
C570 C 0.58253 0.27807 0.69635 0.0
N571 N 0.58364 0.25949 0.69966 0.0
C572 C 0.58358 0.2404 0.61114 0.0
C573 C 0.5599 0.2445 0.58962 0.0
C574 C 0.58206 0.22142 0.60267 0.0
N575 N 0.57247 0.25146 0.60467 0.0
C576 C 0.55773 0.22543 0.58086 0.0
C577 C 0.56881 0.21351 0.58746 0.0
H578 H 0.59349 0.24626 0.6231 0.0
H579 H 0.5513 0.25357 0.58457 0.0
C580 C 0.53534 0.30647 0.66145 0.0
N581 N 0.54147 0.28999 0.65885 0.0
C582 C 0.51999 0.30598 0.672 0.0
C583 C 0.51744 0.2715 0.67697 0.0
C584 C 0.53289 0.27267 0.66636 0.0
C585 C 0.51075 0.2883 0.6799 0.0
H586 H 0.54227 0.31996 0.65512 0.0
H587 H 0.53796 0.25972 0.66403 0.0
O588 O 0.59818 0.29956 0.61491 0.0
O589 O 0.58165 0.31863 0.64686 0.0
O590 O 0.55419 0.28946 0.61648 0.0
O591 O 0.57756 0.27323 0.64569 0.0
H592 H 0.62358 0.28054 0.60712 0.0
H593 H 0.57891 0.3023 0.5839 0.0
H594 H 0.62744 0.26693 0.57579 0.0
H595 H 0.58365 0.28843 0.55294 0.0
H596 H 0.5947 0.38154 0.67468 0.0
H597 H 0.61543 0.33382 0.6342 0.0
H598 H 0.57376 0.3467 0.66815 0.0
H599 H 0.63559 0.36881 0.64132 0.0
H600 H 0.60159 0.37675 0.58805 0.0
H601 H 0.54177 0.35753 0.59685 0.0
H602 H 0.65565 0.28122 0.65876 0.0
H603 H 0.64336 0.32387 0.69808 0.0
H604 H 0.54378 0.25384 0.63002 0.0
H605 H 0.52561 0.29335 0.59493 0.0
H606 H 0.51217 0.22898 0.62335 0.0
H607 H 0.49426 0.26772 0.58883 0.0
H608 H 0.57988 0.23851 0.65615 0.0
H609 H 0.57954 0.29782 0.67565 0.0
H610 H 0.58365 0.2307 0.68873 0.0
H611 H 0.58332 0.289 0.70779 0.0
H612 H 0.5908 0.21278 0.60835 0.0
H613 H 0.54749 0.22006 0.56904 0.0
H614 H 0.51517 0.3192 0.67362 0.0
H615 H 0.51089 0.25762 0.68292 0.0
Li616 Li 0.01455 0.28488 0.94038 0.0
Li617 Li 0.9921 0.26352 0.91576 0.0
Li618 Li 1.01162 0.24828 0.93869 0.0
Li619 Li 0.02672 0.26896 0.91538 0.0
C620 C 0.98039 0.26477 0.9569 0.0
N621 N 0.9576 0.27002 0.98449 0.0
C622 C 0.96547 0.27296 0.95322 0.0
C623 C 0.98341 0.25878 0.97451 0.0
C624 C 0.9542 0.27564 0.96738 0.0
C625 C 0.97182 0.26169 0.9883 0.0
C626 C 0.02331 0.30729 0.91024 0.0
C627 C 0.02733 0.33862 0.89655 0.0
N628 N 0.04563 0.34501 0.90396 0.0
C629 C 0.04217 0.31415 0.91769 0.0
C630 C 0.01582 0.31959 0.89956 0.0
C631 C 0.05321 0.33327 0.91436 0.0
C632 C 0.03483 0.32164 0.96262 0.0
N633 N 0.01768 0.31035 0.9545 0.0
C634 C 1.00432 0.33734 0.96085 0.0
C635 C 1.00261 0.3179 0.95347 0.0
C636 C 0.02191 0.34959 0.96901 0.0
C637 C 0.03724 0.34131 0.97001 0.0
H638 H 0.0469 0.31577 0.96262 0.0
H639 H 0.98939 0.30912 0.9462 0.0
C640 C 0.95657 0.24422 0.89362 0.0
N641 N 0.96848 0.2616 0.90195 0.0
C642 C 0.93981 0.24429 0.88342 0.0
C643 C 0.94791 0.28004 0.89068 0.0
C644 C 0.96438 0.27926 0.90074 0.0
C645 C 0.93537 0.26244 0.8817 0.0
H646 H 0.96017 0.23035 0.89473 0.0
H647 H 0.97394 0.29282 0.90769 0.0
C648 C 0.04403 0.2721 0.95912 0.0
N649 N 0.06164 0.27269 0.99383 0.0
C650 C 0.06186 0.2688 0.96102 0.0
C651 C 0.03526 0.27585 0.97488 0.0
C652 C 0.0705 0.2691 0.97868 0.0
C653 C 0.04435 0.27607 0.9923 0.0
C654 C 1.011 0.23551 0.89525 0.0
C655 C 0.02181 0.22203 0.89573 0.0
C656 C 1.00602 0.24189 0.87837 0.0
C657 C 0.02763 0.21529 0.87924 0.0
C658 C 0.01212 0.23479 0.86219 0.0
N659 N 0.02272 0.22176 0.86296 0.0
C660 C 0.99823 0.21299 0.95943 0.0
C661 C 0.02944 0.21996 0.94996 0.0
C662 C 1.00005 0.19571 0.96734 0.0
N663 N 0.01288 0.22477 0.95101 0.0
C664 C 0.03187 0.20292 0.95764 0.0
C665 C 0.01709 0.19042 0.96653 0.0
H666 H 0.98506 0.21687 0.9599 0.0
H667 H 0.04075 0.22926 0.94284 0.0
C668 C 0.0486 0.28127 0.88414 0.0
N669 N 0.04723 0.27121 0.89965 0.0
C670 C 0.0639 0.28253 0.87326 0.0
C671 C 0.07576 0.26261 0.89422 0.0
C672 C 0.06037 0.2619 0.90475 0.0
C673 C 0.07776 0.27311 0.87827 0.0
H674 H 0.03782 0.28829 0.88017 0.0
H675 H 0.05879 0.25376 0.91699 0.0
O676 O 0.99139 0.26175 0.94311 0.0
O677 O 0.01212 0.28872 0.91352 0.0
O678 O 0.03525 0.2715 0.9419 0.0
O679 O 1.0057 0.24284 0.91126 0.0
H680 H 0.96265 0.2773 0.93959 0.0
H681 H 0.99451 0.25186 0.97751 0.0
H682 H 0.94272 0.28214 0.96474 0.0
H683 H 0.97409 0.25723 1.00201 0.0
H684 H 0.02172 0.3483 0.88832 0.0
H685 H 0.04824 0.30488 0.92598 0.0
H686 H 1.00128 0.31451 0.89364 0.0
H687 H 0.06781 0.33878 0.92008 0.0
H688 H 0.99197 0.34279 0.95984 0.0
H689 H 0.05121 0.35016 0.97575 0.0
H690 H 0.93066 0.23038 0.87663 0.0
H691 H 0.94497 0.29431 0.89005 0.0
H692 H 0.06893 0.26595 0.94898 0.0
H693 H 0.02169 0.27884 0.97368 0.0
H694 H 0.08426 0.26649 0.98034 0.0
H695 H 0.03769 0.27898 0.00461 0.0
H696 H 0.02581 0.21701 0.9087 0.0
H697 H 0.99776 0.25243 0.87782 0.0
H698 H 0.03611 0.20495 0.8794 0.0
H699 H 1.00848 0.23969 0.84903 0.0
H700 H 0.98827 0.18669 0.97411 0.0
H701 H 0.04512 0.19937 0.95624 0.0
H702 H 0.06473 0.29054 0.86094 0.0
H703 H 0.08614 0.25525 0.89869 0.0
Li704 Li 0.4538 0.06547 0.32833 0.0
Li705 Li 0.43059 0.03309 0.31879 0.0
Li706 Li 0.44609 0.05581 0.29703 0.0
Li707 Li 0.42265 0.06439 0.31589 0.0
C708 C 0.47129 0.0366 0.30522 0.0
N709 N 0.49774 0.02622 0.28438 0.0
C710 C 0.46943 0.01648 0.30017 0.0
C711 C 0.48688 0.05141 0.30004 0.0
C712 C 0.48288 0.01154 0.28954 0.0
C713 C 0.50001 0.04587 0.2894 0.0
C714 C 0.43217 0.04773 0.35615 0.0
C715 C 0.42757 0.04875 0.38869 0.0
N716 N 0.43982 0.03765 0.39129 0.0
C717 C 0.44479 0.0364 0.35917 0.0
C718 C 0.42357 0.05405 0.37104 0.0
C719 C 0.44843 0.03144 0.37703 0.0
C720 C 0.47028 0.09195 0.35971 0.0
N721 N 0.47329 0.0785 0.34684 0.0
C722 C 0.50213 0.07858 0.36349 0.0
C723 C 0.48906 0.07217 0.34819 0.0
C724 C 0.49887 0.09156 0.37762 0.0
C725 C 0.48312 0.09896 0.37518 0.0
H726 H 0.45736 0.09634 0.35851 0.0
H727 H 0.49087 0.06106 0.33807 0.0
C728 C 0.41856 0.99406 0.30487 0.0
N729 N 0.41932 1.00534 0.32091 0.0
C730 C 0.40864 0.9738 0.30314 0.0
C731 C 0.40033 0.97696 0.33459 0.0
C732 C 0.41044 0.99729 0.3357 0.0
C733 C 0.3992 0.96499 0.31806 0.0
H734 H 0.42509 1.00105 0.29312 0.0
H735 H 0.41057 0.00669 0.34808 0.0
C736 C 0.45714 0.10094 0.31646 0.0
N737 N 0.47734 0.13876 0.33171 0.0
C738 C 0.44789 0.11296 0.32593 0.0
C739 C 0.47661 0.10825 0.31457 0.0
C740 C 0.45837 0.13202 0.33357 0.0
C741 C 0.48659 0.12737 0.32245 0.0
C742 C 0.40009 0.03141 0.2937 0.0
C743 C 0.39227 0.02529 0.2756 0.0
C744 C 0.38863 0.0268 0.30839 0.0
C745 C 0.37304 0.01466 0.27248 0.0
C746 C 0.36948 0.01616 0.3047 0.0
N747 N 0.36215 0.01036 0.28698 0.0
C748 C 0.44949 0.03682 0.26395 0.0
C749 C 0.46692 0.07128 0.26679 0.0
C750 C 0.45748 0.03378 0.24761 0.0
N751 N 0.45469 0.05518 0.27335 0.0
C752 C 0.47519 0.06894 0.25035 0.0
C753 C 0.47081 0.04987 0.24087 0.0
H754 H 0.43975 0.02436 0.26965 0.0
H755 H 0.47085 0.08565 0.27471 0.0
C756 C 0.39046 0.07269 0.32976 0.0
N757 N 0.40206 0.07517 0.31572 0.0
C758 C 0.37433 0.07937 0.32872 0.0
C759 C 0.38265 0.09117 0.29891 0.0
C760 C 0.39856 0.08422 0.30051 0.0
C761 C 0.3702 0.08862 0.31307 0.0
H762 H 0.39351 0.06511 0.34153 0.0
H763 H 0.40804 0.08581 0.28955 0.0
O764 O 0.45801 0.04178 0.31529 0.0
O765 O 0.42894 0.0535 0.33893 0.0
O766 O 0.44715 0.08219 0.309 0.0
O767 O 0.41894 0.04165 0.29692 0.0
H768 H 0.45781 1.00477 0.30446 0.0
H769 H 0.48866 0.06703 0.30397 0.0
H770 H 0.48153 0.99602 0.28544 0.0
H771 H 0.51199 0.05721 0.2851 0.0
H772 H 0.421 0.05353 0.40034 0.0
H773 H 0.45173 0.03148 0.3479 0.0
H774 H 0.41401 0.06308 0.36902 0.0
H775 H 0.45815 0.02268 0.37955 0.0
H776 H 0.51376 0.07205 0.3649 0.0
H777 H 0.48008 0.10905 0.38566 0.0
H778 H 0.40773 0.96535 0.28996 0.0
H779 H 0.39321 0.97077 0.34641 0.0
H780 H 0.43284 0.10757 0.32753 0.0
H781 H 0.48398 0.09922 0.30722 0.0
H782 H 0.45142 0.14143 0.34103 0.0
H783 H 0.50169 0.13316 0.3212 0.0
H784 H 0.40099 0.02868 0.26409 0.0
H785 H 0.39448 0.03131 0.32249 0.0
H786 H 0.36679 0.00983 0.25854 0.0
H787 H 0.36046 0.01247 0.31594 0.0
H788 H 0.45358 0.01893 0.24051 0.0
H789 H 0.48549 0.08165 0.24554 0.0
H790 H 0.36502 0.07694 0.33985 0.0
H791 H 0.3802 0.09855 0.28676 0.0
Li792 Li 0.30047 0.21001 0.54206 0.0
Li793 Li 0.31286 0.18509 0.5259 0.0
Li794 Li 0.30029 0.20937 0.50695 0.0
Li795 Li 0.27852 0.18135 0.52349 0.0
C796 C 0.33512 0.23327 0.53199 0.0
N797 N 0.36031 0.27014 0.54371 0.0
C798 C 0.35028 0.23463 0.54496 0.0
C799 C 0.33287 0.25061 0.52484 0.0
C800 C 0.36285 0.25342 0.55073 0.0
C801 C 0.34572 0.26913 0.53099 0.0
C802 C 0.3017 0.17028 0.55754 0.0
C803 C 0.30345 0.13834 0.56692 0.0
N804 N 0.31572 0.14787 0.58155 0.0
C805 C 0.31428 0.17976 0.57269 0.0
C806 C 0.29617 0.14941 0.55465 0.0
C807 C 0.32122 0.16816 0.58467 0.0
C808 C 0.28603 0.21415 0.57629 0.0
N809 N 0.30072 0.224 0.56672 0.0
C810 C 0.31375 0.24665 0.59371 0.0
C811 C 0.31434 0.24027 0.57503 0.0
C812 C 0.2989 0.23641 0.60409 0.0
C813 C 0.28472 0.22019 0.59476 0.0
H814 H 0.27543 0.20112 0.56964 0.0
H815 H 0.32599 0.24804 0.56746 0.0
C816 C 0.33059 0.15604 0.51288 0.0
N817 N 0.33161 0.17046 0.52667 0.0
C818 C 0.3434 0.14463 0.51322 0.0
C819 C 0.35852 0.16336 0.54173 0.0
C820 C 0.34538 0.17439 0.54085 0.0
C821 C 0.35759 0.14811 0.52784 0.0
H822 H 0.31982 0.15337 0.50155 0.0
H823 H 0.34607 0.18597 0.55162 0.0
C824 C 0.27062 0.2225 0.53175 0.0
N825 N 0.25398 0.2477 0.55065 0.0
C826 C 0.25434 0.21456 0.54091 0.0
C827 C 0.27833 0.24324 0.53202 0.0
C828 C 0.24617 0.22755 0.55044 0.0
C829 C 0.26974 0.25574 0.54171 0.0
C830 C 0.28426 0.16396 0.49127 0.0
C831 C 0.27724 0.16773 0.47404 0.0
C832 C 0.27974 0.14435 0.49646 0.0
C833 C 0.2657 0.15178 0.4623 0.0
C834 C 0.26814 0.12881 0.48435 0.0
N835 N 0.26141 0.13281 0.46767 0.0
C836 C 0.31888 0.22324 0.47438 0.0
C837 C 0.28784 0.22644 0.4746 0.0
C838 C 0.32025 0.22911 0.45624 0.0
N839 N 0.30279 0.22181 0.48318 0.0
C840 C 0.28858 0.2323 0.45642 0.0
C841 C 0.30485 0.23346 0.44674 0.0
H842 H 0.33049 0.21914 0.48122 0.0
H843 H 0.27503 0.22494 0.48162 0.0
C844 C 0.2486 0.15475 0.53947 0.0
N845 N 0.25353 0.16285 0.52333 0.0
C846 C 0.23043 0.14186 0.54083 0.0
C847 C 0.22263 0.14577 0.50887 0.0
C848 C 0.24092 0.15878 0.5082 0.0
C849 C 0.21708 0.13716 0.52541 0.0
H850 H 0.25868 0.15862 0.55147 0.0
H851 H 0.24497 0.16572 0.49562 0.0
O852 O 0.3228 0.21502 0.526 0.0
O853 O 0.29493 0.18137 0.54552 0.0
O854 O 0.27907 0.21002 0.52271 0.0
O855 O 0.29542 0.17941 0.50303 0.0
H856 H 0.35226 0.22135 0.55058 0.0
H857 H 0.32139 0.24976 0.51457 0.0
H858 H 0.3746 0.25472 0.56082 0.0
H859 H 0.34412 0.28268 0.52562 0.0
H860 H 0.29934 0.12218 0.56482 0.0
H861 H 0.31888 0.19591 0.57505 0.0
H862 H 0.2864 0.14184 0.54303 0.0
H863 H 0.33104 0.17529 0.59639 0.0
H864 H 0.32521 0.25913 0.60003 0.0
H865 H 0.27263 0.21197 0.60163 0.0
H866 H 0.34231 0.13333 0.50201 0.0
H867 H 0.36908 0.16652 0.55335 0.0
H868 H 0.24819 0.19853 0.54082 0.0
H869 H 0.29085 0.24962 0.52492 0.0
H870 H 0.23364 0.22162 0.5577 0.0
H871 H 0.27561 0.27183 0.54212 0.0
H872 H 0.28062 0.1828 0.46977 0.0
H873 H 0.28505 0.14118 0.50974 0.0
H874 H 0.26013 0.15448 0.44895 0.0
H875 H 0.26446 0.11357 0.48823 0.0
H876 H 0.33303 0.22945 0.4495 0.0
H877 H 0.27638 0.2357 0.44997 0.0
H878 H 0.2268 0.13605 0.55399 0.0
H879 H 0.213 0.1425 0.49653 0.0
Li880 Li 0.17135 0.03826 0.81563 0.0
Li881 Li 0.15164 0.01182 0.83189 0.0
Li882 Li 0.16964 1.00327 0.8063 0.0
Li883 Li 0.14126 0.01415 0.80066 0.0
C884 C 0.19829 0.02546 0.8373 0.0
N885 N 0.23597 0.03858 0.85095 0.0
C886 C 0.20306 0.0301 0.85626 0.0
C887 C 0.21274 0.02715 0.82536 0.0
C888 C 0.22217 0.03681 0.86288 0.0
C889 C 0.23168 0.03388 0.8325 0.0
C890 C 0.13632 0.04186 0.83544 0.0
C891 C 0.10943 0.03909 0.8535 0.0
N892 N 0.11955 0.05568 0.86437 0.0
C893 C 0.1464 0.05898 0.84667 0.0
C894 C 0.11763 0.03192 0.83874 0.0
C895 C 0.13768 0.0657 0.86126 0.0
C896 C 0.18344 0.07475 0.80141 0.0
N897 N 0.18645 0.0651 0.8164 0.0
C898 C 0.21098 0.0939 0.82937 0.0
C899 C 0.1996 0.07431 0.83047 0.0
C900 C 0.2087 0.10386 0.81363 0.0
C901 C 0.19457 0.09417 0.79965 0.0
H902 H 0.1726 0.06714 0.79063 0.0
H903 H 0.20137 0.06649 0.84246 0.0
C904 C 0.1291 0.98925 0.8577 0.0
N905 N 0.14339 1.00599 0.8555 0.0
C906 C 0.12142 0.98647 0.87475 0.0
C907 C 0.14395 0.01776 0.88704 0.0
C908 C 0.15112 0.01993 0.86978 0.0
C909 C 0.12865 1.00106 0.88957 0.0
H910 H 0.12327 0.97839 0.84609 0.0
H911 H 0.16225 0.03326 0.86751 0.0
C912 C 0.17698 0.0281 0.77574 0.0
N913 N 0.19857 0.03623 0.74578 0.0
C914 C 0.16869 0.0218 0.75779 0.0
C915 C 0.19621 0.03893 0.77836 0.0
C916 C 0.17985 0.02593 0.74285 0.0
C917 C 0.20689 0.0428 0.76307 0.0
C918 C 0.12817 0.97509 0.80326 0.0
C919 C 0.13118 0.9608 0.79045 0.0
C920 C 0.10963 0.97461 0.8069 0.0
C921 C 0.11556 0.94639 0.78127 0.0
C922 C 0.09439 0.95998 0.79741 0.0
N923 N 0.09764 0.9463 0.78489 0.0
C924 C 0.19471 0.9799 0.80954 0.0
C925 C 0.1837 0.98236 0.77877 0.0
C926 C 0.20685 0.96929 0.8033 0.0
N927 N 0.18386 0.98663 0.79726 0.0
C928 C 0.19561 0.97179 0.7719 0.0
C929 C 0.20762 0.96542 0.78423 0.0
H930 H 0.19423 0.98317 0.82419 0.0
H931 H 0.17445 0.98728 0.76934 0.0
C932 C 0.11048 0.02577 0.78539 0.0
N933 N 0.12069 0.0125 0.78317 0.0
C934 C 0.09726 0.02707 0.77136 0.0
C935 C 0.10481 1.00049 0.75339 0.0
C936 C 0.11786 0.99971 0.76775 0.0
C937 C 0.09466 0.01468 0.75489 0.0
H938 H 0.1132 0.03593 0.79771 0.0
H939 H 0.12644 0.98959 0.76619 0.0
O940 O 0.17959 0.01891 0.83062 0.0
O941 O 0.14475 0.03483 0.82131 0.0
O942 O 0.16618 0.02418 0.79054 0.0
O943 O 0.14329 0.98939 0.81229 0.0
H944 H 0.19216 0.02855 0.86581 0.0
H945 H 0.20941 0.02297 0.81078 0.0
H946 H 0.22603 0.04056 0.8775 0.0
H947 H 0.24297 0.03527 0.82337 0.0
H948 H 0.09503 0.03144 0.85633 0.0
H949 H 0.16087 0.06687 0.84427 0.0
H950 H 0.10961 0.01872 0.83011 0.0
H951 H 0.14536 0.07885 0.87015 0.0
H952 H 0.22169 0.10098 0.84046 0.0
H953 H 0.19215 0.10156 0.78749 0.0
H954 H 0.10971 0.97332 0.87621 0.0
H955 H 0.14969 0.02955 0.89799 0.0
H956 H 0.15382 0.01366 0.75538 0.0
H957 H 0.2028 0.04465 0.79199 0.0
H958 H 0.17361 0.02096 0.72893 0.0
H959 H 0.22178 0.05113 0.76496 0.0
H960 H 0.14543 0.96086 0.78758 0.0
H961 H 0.10705 0.98553 0.81679 0.0
H962 H 0.11768 0.93529 0.77125 0.0
H963 H 0.07997 0.95952 0.79998 0.0
H964 H 0.21551 0.96417 0.81328 0.0
H965 H 0.1957 0.96903 0.75711 0.0
H966 H 0.08962 0.03811 0.77313 0.0
H967 H 0.10353 0.99089 0.74083 0.0
Li968 Li 0.27382 0.93044 0.99653 0.0
Li969 Li 0.28633 0.90604 0.01114 0.0
Li970 Li 0.30623 0.93171 0.99397 0.0
Li971 Li 0.28103 0.9039 0.97837 0.0
C972 C 0.28907 0.94798 0.02878 0.0
N973 N 0.27676 0.97329 0.0524 0.0
C974 C 0.27825 0.9404 0.04324 0.0
C975 C 0.29372 0.96845 0.02638 0.0
C976 C 0.27216 0.95344 0.05504 0.0
C977 C 0.28732 0.98099 0.03844 0.0
C978 C 0.24666 0.8877 0.9873 0.0
C979 C 0.23036 0.85384 0.97524 0.0
N980 N 0.21677 0.86047 0.96649 0.0
C981 C 0.23252 0.89418 0.97824 0.0
C982 C 0.24556 0.86736 0.98587 0.0
C983 C 0.21752 0.88018 0.96778 0.0
C984 C 0.25986 0.96328 0.99056 0.0
N985 N 0.2571 0.94619 0.99928 0.0
C986 C 0.23158 0.95276 0.01467 0.0
C987 C 0.24319 0.9406 0.01097 0.0
C988 C 0.23443 0.9708 0.00624 0.0
C989 C 0.24867 0.97596 0.99394 0.0
H990 H 0.27094 0.96723 0.98124 0.0
H991 H 0.24144 0.92692 0.01774 0.0
C992 C 0.30318 0.90093 0.04436 0.0
N993 N 0.28754 0.89255 0.03258 0.0
C994 C 0.30635 0.89172 0.06012 0.0
C995 C 0.27691 0.86565 0.05166 0.0
C996 C 0.27436 0.87537 0.03593 0.0
C997 C 0.29316 0.8738 0.06393 0.0
H998 H 0.31339 0.91461 0.04125 0.0
H999 H 0.26201 0.86914 0.02633 0.0
C1000 C 0.29843 0.94443 0.96224 0.0
N1001 N 0.32221 0.96812 0.93929 0.0
C1002 C 0.30245 0.93603 0.94559 0.0
C1003 C 0.30649 0.96489 0.9672 0.0
C1004 C 0.3145 0.94826 0.93417 0.0
C1005 C 0.3185 0.9766 0.95543 0.0
C1006 C 0.3137 0.89152 1.00127 0.0
C1007 C 0.33203 0.90037 0.00957 0.0
C1008 C 0.30497 0.87114 1.00263 0.0
C1009 C 0.34127 0.88871 0.01921 0.0
C1010 C 0.31467 0.86 0.01242 0.0
N1011 N 0.33246 0.86895 0.02044 0.0
C1012 C 0.33948 0.96053 0.00871 0.0
C1013 C 0.34199 0.94456 0.97966 0.0
C1014 C 0.35889 0.97035 0.01034 0.0
N1015 N 0.33154 0.94778 0.99366 0.0
C1016 C 0.3614 0.95423 0.9806 0.0
C1017 C 0.37019 0.96693 0.99633 0.0
H1018 H 0.33093 0.96232 0.01989 0.0
H1019 H 0.33536 0.93389 0.9681 0.0
C1020 C 0.26154 0.88957 0.94342 0.0
N1021 N 0.27413 0.88655 0.95653 0.0
C1022 C 0.25769 0.87798 0.92656 0.0
C1023 C 0.27952 0.86021 0.93725 0.0
C1024 C 0.28298 0.87216 0.95384 0.0
C1025 C 0.26695 0.86325 0.92325 0.0
H1026 H 0.25496 0.90138 0.94587 0.0
H1027 H 0.29324 0.87041 0.96431 0.0
O1028 O 0.29471 0.93537 0.01676 0.0
O1029 O 0.26162 0.90122 0.99736 0.0
O1030 O 0.28671 0.93269 0.97365 0.0
O1031 O 0.30422 0.90278 0.99213 0.0
H1032 H 0.27437 0.92457 0.0452 0.0
H1033 H 0.30195 0.97453 0.01515 0.0
H1034 H 0.2637 0.94777 0.06624 0.0
H1035 H 0.29067 0.99683 0.03666 0.0
H1036 H 0.22939 0.83807 0.9739 0.0
H1037 H 0.23322 0.90988 0.9791 0.0
H1038 H 0.25646 0.86212 0.99267 0.0
H1039 H 0.20652 0.88498 0.96062 0.0
H1040 H 0.22082 0.94836 0.02435 0.0
H1041 H 0.25109 0.98962 0.987 0.0
H1042 H 0.3192 0.89836 0.06901 0.0
H1043 H 0.26628 0.852 0.05421 0.0
H1044 H 0.29648 0.92023 0.94154 0.0
H1045 H 0.30382 0.9716 0.98017 0.0
H1046 H 0.31776 0.94195 0.92127 0.0
H1047 H 0.32493 0.99242 0.95916 0.0
H1048 H 0.33902 0.9161 0.00879 0.0
H1049 H 0.29071 0.86407 0.99649 0.0
H1050 H 0.35542 0.89539 0.02577 0.0
H1051 H 0.308 0.84427 0.01372 0.0
H1052 H 0.36508 0.97968 0.02287 0.0
H1053 H 0.36953 0.95133 0.96938 0.0
H1054 H 0.24788 0.88075 0.91611 0.0
H1055 H 0.28727 0.84932 0.93512 0.0
Li1056 Li 0.27702 0.3791 0.03353 0.0
Li1057 Li 0.2899 0.35592 0.05096 0.0
Li1058 Li 0.31199 0.3838 0.03411 0.0
Li1059 Li 0.29031 0.35395 0.01558 0.0
C1060 C 0.29333 0.40068 0.06667 0.0
N1061 N 0.28713 0.43071 0.0898 0.0
C1062 C 0.28065 0.39593 0.08037 0.0
C1063 C 0.30315 0.42072 0.065 0.0
C1064 C 0.27761 0.41131 0.09185 0.0
C1065 C 0.29975 0.43568 0.07675 0.0
C1066 C 0.25573 0.33093 0.03448 0.0
C1067 C 0.24735 0.29488 0.03241 0.0
N1068 N 0.23142 0.29435 0.04113 0.0
C1069 C 0.23918 0.33005 0.04324 0.0
C1070 C 0.25979 0.31323 0.02886 0.0
C1071 C 0.22711 0.31141 0.04656 0.0
C1072 C 0.25549 0.40393 0.01895 0.0
N1073 N 0.25739 0.39267 0.03312 0.0
C1074 C 0.23181 0.401 0.04744 0.0
C1075 C 0.24562 0.39077 0.04705 0.0
C1076 C 0.22988 0.41321 0.03324 0.0
C1077 C 0.24192 0.41443 0.01879 0.0
H1078 H 0.26447 0.40483 0.00768 0.0
H1079 H 0.2469 0.38125 0.05789 0.0
C1080 C 0.30342 0.339 0.08272 0.0
N1081 N 0.28793 0.34297 0.07453 0.0
C1082 C 0.30317 0.33244 0.10064 0.0
C1083 C 0.27101 0.33398 0.10154 0.0
C1084 C 0.27183 0.34035 0.08359 0.0
C1085 C 0.28689 0.33011 0.11054 0.0
H1086 H 0.31627 0.34155 0.0756 0.0
H1087 H 0.25975 0.34394 0.07718 0.0
C1088 C 0.29911 0.39855 1.00205 0.0
N1089 N 0.31061 0.4305 0.98066 0.0
C1090 C 0.30037 0.39518 0.9831 0.0
C1091 C 0.3035 0.41818 0.01006 0.0
C1092 C 0.30627 0.41153 0.97254 0.0
C1093 C 0.30933 0.43413 0.99904 0.0
C1094 C 0.31999 0.34083 0.03061 0.0
C1095 C 0.33654 0.34579 0.02132 0.0
C1096 C 0.31255 0.32129 0.03552 0.0
C1097 C 0.34516 0.33094 0.01669 0.0
C1098 C 0.3216 0.30687 0.03067 0.0
N1099 N 0.33756 0.31195 0.02141 0.0
C1100 C 0.34727 0.41191 0.04931 0.0
C1101 C 0.34424 0.40429 0.01693 0.0
C1102 C 0.36563 0.42475 0.04841 0.0
N1103 N 0.33697 0.40207 0.03366 0.0
C1104 C 0.36233 0.41714 0.01536 0.0
C1105 C 0.37347 0.42751 0.03124 0.0
H1106 H 0.34133 0.40961 0.06251 0.0
H1107 H 0.33602 0.39594 0.00474 0.0
C1108 C 0.27386 0.32704 0.98201 0.0
N1109 N 0.28986 0.33968 0.99119 0.0
C1110 C 0.27399 0.3198 0.96351 0.0
C1111 C 0.307 0.33852 0.96418 0.0
C1112 C 0.30625 0.3453 0.98259 0.0
C1113 C 0.29068 0.32571 0.95413 0.0
H1114 H 0.26079 0.32303 0.98881 0.0
H1115 H 0.31862 0.356 0.98973 0.0
O1116 O 0.29648 0.38579 0.05529 0.0
O1117 O 0.26776 0.34904 0.0312 0.0
O1118 O 0.29369 0.38272 0.0127 0.0
O1119 O 0.31132 0.35514 0.03521 0.0
H1120 H 0.27306 0.38054 0.08202 0.0
H1121 H 0.31344 0.42472 0.05488 0.0
H1122 H 0.26769 0.40782 0.10238 0.0
H1123 H 0.30721 0.45124 0.07555 0.0
H1124 H 0.25035 0.28105 0.02818 0.0
H1125 H 0.23576 0.34363 0.04754 0.0
H1126 H 0.27236 0.31365 0.02176 0.0
H1127 H 0.21431 0.3105 0.05344 0.0
H1128 H 0.22262 0.39918 0.05867 0.0
H1129 H 0.24112 0.42368 0.00755 0.0
H1130 H 0.31588 0.32992 0.10691 0.0
H1131 H 0.25804 0.33224 0.10836 0.0
H1132 H 0.29676 0.38013 0.97658 0.0
H1133 H 0.30226 0.42104 0.02459 0.0
H1134 H 0.30737 0.40913 0.95787 0.0
H1135 H 0.3128 0.44939 0.0051 0.0
H1136 H 0.34262 0.36092 0.01765 0.0
H1137 H 0.29998 0.31731 0.04308 0.0
H1138 H 0.35791 0.33453 0.00937 0.0
H1139 H 0.31595 0.29166 0.03431 0.0
H1140 H 0.3737 0.43205 0.0611 0.0
H1141 H 0.36747 0.41889 1.00176 0.0
H1142 H 0.26103 0.30983 0.95661 0.0
H1143 H 0.32012 0.34403 0.95769 0.0
Li1144 Li 0.81696 0.16208 0.06919 0.0
Li1145 Li 0.82408 0.13982 0.04538 0.0
Li1146 Li 0.81285 0.16969 0.03792 0.0
Li1147 Li 0.79214 0.14023 0.04968 0.0
C1148 C 0.85147 0.18058 0.06287 0.0
N1149 N 0.87997 0.20368 0.08802 0.0
C1150 C 0.8632 0.17168 0.07286 0.0
C1151 C 0.85429 0.20122 0.06554 0.0
C1152 C 0.87752 0.18363 0.08554 0.0
C1153 C 0.86877 0.21264 0.07836 0.0
C1154 C 0.79757 0.11813 0.07566 0.0
C1155 C 0.77874 0.08377 0.07617 0.0
N1156 N 0.77112 0.08886 0.09165 0.0
C1157 C 0.78962 0.12301 0.09162 0.0
C1158 C 0.79217 0.09834 0.0679 0.0
C1159 C 0.77626 0.108 0.09948 0.0
C1160 C 0.82019 0.19263 0.09614 0.0
N1161 N 0.82386 0.17479 0.0932 0.0
C1162 C 0.83418 0.17543 0.12497 0.0
C1163 C 0.83103 0.1662 0.10702 0.0
C1164 C 0.82989 0.19359 0.12856 0.0
C1165 C 0.82312 0.20235 0.11379 0.0
H1166 H 0.81453 0.19904 0.0848 0.0
H1167 H 0.8338 0.15197 0.10417 0.0
C1168 C 0.84696 0.12616 0.02151 0.0
N1169 N 0.83946 0.12393 0.03811 0.0
C1170 C 0.85628 0.11275 0.01471 0.0
C1171 C 0.85025 0.09538 0.04248 0.0
C1172 C 0.84114 0.10917 0.04876 0.0
C1173 C 0.85771 0.09693 0.02514 0.0
H1174 H 0.84511 0.13794 0.01329 0.0
H1175 H 0.83496 0.10782 0.0619 0.0
C1176 C 0.77991 0.17444 0.05084 0.0
N1177 N 0.74895 0.18581 0.03761 0.0
C1178 C 0.77152 0.16768 0.03301 0.0
C1179 C 0.7725 0.18695 0.06196 0.0
C1180 C 0.7559 0.1736 0.02656 0.0
C1181 C 0.75685 0.19254 0.05502 0.0
C1182 C 0.79734 0.12771 0.01176 0.0
C1183 C 0.78873 0.13276 0.99589 0.0
C1184 C 0.79897 0.10831 0.01248 0.0
C1185 C 0.78176 0.11829 0.98108 0.0
C1186 C 0.79185 0.09428 0.99737 0.0
N1187 N 0.78346 0.09952 0.98212 0.0
C1188 C 0.81786 0.1869 0.00403 0.0
C1189 C 0.81166 0.20765 0.02846 0.0
C1190 C 0.81731 0.20113 0.99157 0.0
N1191 N 0.81466 0.19025 0.02196 0.0
C1192 C 0.81088 0.22225 0.01647 0.0
C1193 C 0.8134 0.21891 0.9977 0.0
H1194 H 0.82033 0.17294 0.99933 0.0
H1195 H 0.80938 0.20995 0.04287 0.0
C1196 C 0.75599 0.12993 0.06261 0.0
N1197 N 0.76619 0.12435 0.04937 0.0
C1198 C 0.73675 0.12002 0.06308 0.0
C1199 C 0.73888 0.09832 0.03664 0.0
C1200 C 0.75809 0.10865 0.03671 0.0
C1201 C 0.7279 0.10417 0.04979 0.0
H1202 H 0.76281 0.14224 0.07274 0.0
H1203 H 0.76631 0.10418 0.02647 0.0
O1204 O 0.83702 0.16906 0.05083 0.0
O1205 O 0.81036 0.13271 0.06753 0.0
O1206 O 0.79519 0.16881 0.05758 0.0
O1207 O 0.80464 0.14188 0.02621 0.0
H1208 H 0.86109 0.15569 0.07097 0.0
H1209 H 0.84524 0.20827 0.05795 0.0
H1210 H 0.88665 0.17695 0.09346 0.0
H1211 H 0.87105 0.22862 0.08068 0.0
H1212 H 0.77434 0.06842 0.07025 0.0
H1213 H 0.79349 0.13828 0.0977 0.0
H1214 H 0.79814 0.09431 0.05553 0.0
H1215 H 0.76989 0.11158 0.11176 0.0
H1216 H 0.83957 0.16828 0.13595 0.0
H1217 H 0.81932 0.21614 0.11594 0.0
H1218 H 0.86178 0.11436 1.00124 0.0
H1219 H 0.85137 0.08358 0.05105 0.0
H1220 H 0.77693 0.15792 0.02425 0.0
H1221 H 0.77876 0.19224 0.07584 0.0
H1222 H 0.74928 0.16847 0.01279 0.0
H1223 H 0.75098 0.20221 0.06348 0.0
H1224 H 0.78742 0.1477 0.99498 0.0
H1225 H 0.80528 0.10395 0.02468 0.0
H1226 H 0.77503 0.122 0.96874 0.0
H1227 H 0.79294 0.0792 0.99781 0.0
H1228 H 0.81914 0.19788 0.97717 0.0
H1229 H 0.80806 0.23585 0.02176 0.0
H1230 H 0.72886 0.12481 0.07365 0.0
H1231 H 0.73259 0.0863 0.02603 0.0
Li1232 Li 0.1762 0.53896 0.23123 0.0
Li1233 Li 0.15361 0.52123 0.25196 0.0
Li1234 Li 0.17235 0.50436 0.23437 0.0
Li1235 Li 0.14652 0.51421 0.21945 0.0
C1236 C 0.19369 0.5208 0.26498 0.0
N1237 N 0.21809 0.50656 0.28684 0.0
C1238 C 0.18774 0.51193 0.28113 0.0
C1239 C 0.2121 0.52253 0.26002 0.0
C1240 C 0.20029 0.50482 0.29199 0.0
C1241 C 0.2242 0.51519 0.27122 0.0
C1242 C 0.14162 0.5518 0.24356 0.0
C1243 C 0.11454 0.5567 0.25815 0.0
N1244 N 0.1252 0.57531 0.26501 0.0
C1245 C 0.15229 0.57101 0.25071 0.0
C1246 C 0.12256 0.54462 0.24723 0.0
C1247 C 0.14373 0.58265 0.26153 0.0
C1248 C 0.18919 0.57635 0.21594 0.0
N1249 N 0.19326 0.5644 0.22863 0.0
C1250 C 0.2199 0.59076 0.24194 0.0
C1251 C 0.20836 0.5711 0.24134 0.0
C1252 C 0.21575 0.60372 0.22944 0.0
C1253 C 0.20039 0.59619 0.21603 0.0
H1254 H 0.1768 0.57072 0.20627 0.0
H1255 H 0.21091 0.56151 0.25161 0.0
C1256 C 0.12798 0.50931 0.27897 0.0
N1257 N 0.14337 0.52384 0.27468 0.0
C1258 C 0.11922 0.51188 0.29498 0.0
C1259 C 0.1428 0.544 0.30215 0.0
C1260 C 0.15117 0.54073 0.28604 0.0
C1261 C 0.12643 0.52958 0.30662 0.0
H1262 H 0.12237 0.49585 0.26985 0.0
H1263 H 0.16359 0.55189 0.28228 0.0
C1264 C 0.18188 0.52782 0.19778 0.0
N1265 N 0.20129 0.55066 0.17158 0.0
C1266 C 0.1719 0.53292 0.18285 0.0
C1267 C 0.20173 0.53425 0.19934 0.0
C1268 C 0.18197 0.54449 0.16975 0.0
C1269 C 0.21128 0.54583 0.18597 0.0
C1270 C 0.13034 0.47879 0.23149 0.0
C1271 C 0.13383 0.46173 0.22322 0.0
C1272 C 0.11164 0.4796 0.23213 0.0
C1273 C 0.11853 0.44578 0.21565 0.0
C1274 C 0.09674 0.46335 0.22436 0.0
N1275 N 0.10047 0.44692 0.21636 0.0
C1276 C 0.18076 0.47263 0.24997 0.0
C1277 C 0.20062 0.48551 0.22639 0.0
C1278 C 0.19251 0.4612 0.2553 0.0
N1279 N 0.18538 0.48495 0.2362 0.0
C1280 C 0.21277 0.47425 0.23123 0.0
C1281 C 0.20909 0.4625 0.2463 0.0
H1282 H 0.16859 0.47269 0.25756 0.0
H1283 H 0.20397 0.4956 0.21561 0.0
C1284 C 0.11532 0.51997 0.19929 0.0
N1285 N 0.12649 0.50759 0.20064 0.0
C1286 C 0.10035 0.51577 0.18568 0.0
C1287 C 0.10855 0.48601 0.17517 0.0
C1288 C 0.12353 0.49094 0.18887 0.0
C1289 C 0.09685 0.49864 0.17331 0.0
H1290 H 0.11828 0.53335 0.20854 0.0
H1291 H 0.13286 0.48156 0.1901 0.0
O1292 O 0.18145 0.52741 0.25391 0.0
O1293 O 0.14984 0.54 0.23322 0.0
O1294 O 0.17228 0.51667 0.21084 0.0
O1295 O 0.14513 0.49461 0.23889 0.0
H1296 H 0.17352 0.5103 0.28513 0.0
H1297 H 0.21687 0.52911 0.24744 0.0
H1298 H 0.19584 0.49782 0.30446 0.0
H1299 H 0.23841 0.51624 0.26744 0.0
H1300 H 0.09986 0.55126 0.26123 0.0
H1301 H 0.16707 0.5768 0.24814 0.0
H1302 H 0.11413 0.52974 0.24194 0.0
H1303 H 0.15185 0.5975 0.26722 0.0
H1304 H 0.23129 0.59602 0.25278 0.0
H1305 H 0.19675 0.60567 0.2061 0.0
H1306 H 0.1069 0.50018 0.29817 0.0
H1307 H 0.14876 0.55789 0.3107 0.0
H1308 H 0.15655 0.52809 0.18143 0.0
H1309 H 0.20968 0.53064 0.21092 0.0
H1310 H 0.17444 0.5486 0.15815 0.0
H1311 H 0.22663 0.55103 0.18707 0.0
H1312 H 0.14819 0.46088 0.22249 0.0
H1313 H 0.10868 0.49275 0.2383 0.0
H1314 H 0.12103 0.43252 0.20915 0.0
H1315 H 0.08222 0.46384 0.22465 0.0
H1316 H 0.18907 0.45206 0.2668 0.0
H1317 H 0.22546 0.47565 0.22401 0.0
H1318 H 0.09208 0.52624 0.18446 0.0
H1319 H 0.10634 0.47262 0.16599 0.0
Li1320 Li 0.7762 0.8793 0.53197 0.0
Li1321 Li 0.78827 0.85596 0.54958 0.0
Li1322 Li 0.81071 0.88348 0.53285 0.0
Li1323 Li 0.78894 0.85387 0.5141 0.0
C1324 C 0.78996 0.90021 0.56416 0.0
N1325 N 0.7787 0.92914 0.5842 0.0
C1326 C 0.77593 0.89466 0.57651 0.0
C1327 C 0.79845 0.9205 0.5622 0.0
C1328 C 0.77037 0.9095 0.58646 0.0
C1329 C 0.79252 0.93489 0.5724 0.0
C1330 C 0.75503 0.83019 0.53154 0.0
C1331 C 0.74861 0.79439 0.5264 0.0
N1332 N 0.73234 0.79183 0.53509 0.0
C1333 C 0.73815 0.82722 0.54024 0.0
C1334 C 0.76022 0.81366 0.52441 0.0
C1335 C 0.72692 0.80771 0.54197 0.0
C1336 C 0.75847 0.90851 0.52015 0.0
N1337 N 0.75704 0.89346 0.53144 0.0
C1338 C 0.72893 0.899 0.54293 0.0
C1339 C 0.74249 0.88844 0.54258 0.0
C1340 C 0.7303 0.91491 0.53167 0.0
C1341 C 0.74529 0.91948 0.52007 0.0
H1342 H 0.76983 0.91209 0.51113 0.0
H1343 H 0.74156 0.8764 0.55144 0.0
C1344 C 0.80205 0.8402 0.5818 0.0
N1345 N 0.78622 0.843 0.57313 0.0
C1346 C 0.80177 0.83365 0.59971 0.0
C1347 C 0.7689 0.83288 0.59967 0.0
C1348 C 0.76977 0.83928 0.58171 0.0
C1349 C 0.7851 0.83016 0.60912 0.0
H1350 H 0.81516 0.84367 0.57505 0.0
H1351 H 0.75741 0.84197 0.57493 0.0
C1352 C 0.8005 0.89732 0.49988 0.0
N1353 N 0.81691 0.92669 0.4772 0.0
C1354 C 0.80207 0.89226 0.48127 0.0
C1355 C 0.80712 0.91737 0.50687 0.0
C1356 C 0.81044 0.90731 0.47005 0.0
C1357 C 0.81542 0.93199 0.49521 0.0
C1358 C 0.81845 0.84018 0.53142 0.0
C1359 C 0.83612 0.84454 0.52403 0.0
C1360 C 0.81019 0.82101 0.53685 0.0
C1361 C 0.84502 0.82947 0.52178 0.0
C1362 C 0.81955 0.80636 0.5344 0.0
N1363 N 0.83661 0.81085 0.52695 0.0
C1364 C 0.84526 0.91299 0.54786 0.0
C1365 C 0.84429 0.90132 0.51649 0.0
C1366 C 0.86373 0.92562 0.54708 0.0
N1367 N 0.83594 0.90124 0.53265 0.0
C1368 C 0.8625 0.91391 0.51498 0.0
C1369 C 0.87267 0.92623 0.53044 0.0
H1370 H 0.83845 0.91243 0.56066 0.0
H1371 H 0.83674 0.89157 0.50467 0.0
C1372 C 0.77162 0.83128 0.47916 0.0
N1373 N 0.78825 0.83953 0.48972 0.0
C1374 C 0.77164 0.82451 0.46054 0.0
C1375 C 0.80583 0.83445 0.46391 0.0
C1376 C 0.80516 0.84104 0.48241 0.0
C1377 C 0.78894 0.82632 0.45246 0.0
H1378 H 0.75831 0.83063 0.48498 0.0
H1379 H 0.81825 0.84845 0.49062 0.0
O1380 O 0.79533 0.88587 0.55403 0.0
O1381 O 0.76621 0.84919 0.52974 0.0
O1382 O 0.7927 0.8827 0.51118 0.0
O1383 O 0.8096 0.85478 0.53384 0.0
H1384 H 0.7692 0.87907 0.57821 0.0
H1385 H 0.80956 0.92512 0.55298 0.0
H1386 H 0.75941 0.90539 0.59595 0.0
H1387 H 0.79892 0.95064 0.57096 0.0
H1388 H 0.75251 0.78146 0.52101 0.0
H1389 H 0.73382 0.83984 0.54568 0.0
H1390 H 0.77307 0.81568 0.51738 0.0
H1391 H 0.71388 0.80519 0.54878 0.0
H1392 H 0.71774 0.895 0.5522 0.0
H1393 H 0.74675 0.93132 0.51087 0.0
H1394 H 0.81473 0.83207 0.60635 0.0
H1395 H 0.75564 0.83024 0.60612 0.0
H1396 H 0.7968 0.87691 0.4755 0.0
H1397 H 0.80594 0.92158 0.52117 0.0
H1398 H 0.81177 0.90357 0.45564 0.0
H1399 H 0.82068 0.94754 0.5005 0.0
H1400 H 0.84284 0.85937 0.51999 0.0
H1401 H 0.79678 0.81751 0.54305 0.0
H1402 H 0.85862 0.8326 0.51595 0.0
H1403 H 0.81328 0.79144 0.5385 0.0
H1404 H 0.87102 0.93447 0.55948 0.0
H1405 H 0.86845 0.91399 0.50174 0.0
H1406 H 0.75819 0.81821 0.45248 0.0
H1407 H 0.81955 0.83664 0.45843 0.0
Li1408 Li 0.95368 0.04166 0.2643 0.0
Li1409 Li 0.92413 0.02156 0.25041 0.0
Li1410 Li 0.94612 0.04617 0.23371 0.0
Li1411 Li 0.92879 0.0578 0.25823 0.0
C1412 C 0.96055 0.00973 0.247 0.0
N1413 N 0.98383 0.98623 0.25557 0.0
C1414 C 0.95278 0.99044 0.25241 0.0
C1415 C 0.98016 0.01698 0.24577 0.0
C1416 C 0.96479 0.97881 0.25672 0.0
C1417 C 0.99169 1.0049 0.25023 0.0
C1418 C 0.93383 0.03744 0.29326 0.0
C1419 C 0.95065 0.05675 0.32089 0.0
N1420 N 0.94646 0.03987 0.33007 0.0
C1421 C 0.92968 0.02028 0.30297 0.0
C1422 C 0.94437 0.05584 0.30229 0.0
C1423 C 0.9362 0.02182 0.32158 0.0
C1424 C 0.98947 0.05788 0.28502 0.0
N1425 N 0.97425 0.04136 0.28144 0.0
C1426 C 0.98817 0.02308 0.30179 0.0
C1427 C 0.97326 0.02425 0.28974 0.0
C1428 C 1.00413 0.0398 0.30564 0.0
C1429 C 1.00466 0.05747 0.29727 0.0
H1430 H 0.98978 0.07139 0.27843 0.0
H1431 H 0.96087 0.01146 0.28696 0.0
C1432 C 0.90339 0.98462 0.23202 0.0
N1433 N 0.90522 0.9968 0.24772 0.0
C1434 C 0.88997 0.96583 0.23015 0.0
C1435 C 0.88051 0.9727 0.26054 0.0
C1436 C 0.89385 0.99149 0.26166 0.0
C1437 C 0.87861 0.95942 0.24473 0.0
H1438 H 0.91257 0.98943 0.2211 0.0
H1439 H 0.89542 1.00171 0.2738 0.0
C1440 C 0.96742 0.08224 0.2448 0.0
N1441 N 0.98946 0.11073 0.22436 0.0
C1442 C 0.9615 0.09877 0.24028 0.0
C1443 C 0.98466 0.08032 0.23914 0.0
C1444 C 0.97283 0.113 0.2299 0.0
C1445 C 0.99556 0.09484 0.22873 0.0
C1446 C 0.9016 0.03272 0.22556 0.0
C1447 C 0.90038 0.02423 0.20747 0.0
C1448 C 0.88507 0.03113 0.23456 0.0
C1449 C 0.88254 0.01412 0.19869 0.0
C1450 C 0.86751 0.02089 0.22531 0.0
N1451 N 0.86662 0.01266 0.20772 0.0
C1452 C 0.96551 0.03943 0.20386 0.0
C1453 C 0.95121 0.06549 0.20017 0.0
C1454 C 0.97344 0.04248 0.18708 0.0
N1455 N 0.95497 0.0511 0.2102 0.0
C1456 C 0.95887 0.06906 0.18315 0.0
C1457 C 0.97039 0.05764 0.17664 0.0
H1458 H 0.96782 0.02775 0.21185 0.0
H1459 H 0.94251 0.07434 0.2055 0.0
C1460 C 0.90925 0.07791 0.2815 0.0
N1461 N 0.9148 0.07564 0.26423 0.0
C1462 C 0.89611 0.08844 0.28467 0.0
C1463 C 0.8948 0.09411 0.25224 0.0
C1464 C 0.90808 0.08365 0.24975 0.0
C1465 C 0.8884 0.09634 0.26984 0.0
H1466 H 0.91438 0.07088 0.29267 0.0
H1467 H 0.91239 0.08108 0.23608 0.0
O1468 O 0.949 0.02133 0.24271 0.0
O1469 O 0.92793 0.03621 0.27494 0.0
O1470 O 0.95637 0.06796 0.25466 0.0
O1471 O 0.91894 0.04229 0.23451 0.0
H1472 H 0.93767 0.98456 0.25349 0.0
H1473 H 0.98645 0.03188 0.24166 0.0
H1474 H 0.95897 0.9639 0.26103 0.0
H1475 H 1.00689 0.01039 0.24948 0.0
H1476 H 0.95892 0.07087 0.32801 0.0
H1477 H 0.92179 1.00586 0.29617 0.0
H1478 H 0.94792 0.06922 0.29491 0.0
H1479 H 0.93317 0.00865 0.32924 0.0
H1480 H 0.98704 0.00934 0.30835 0.0
H1481 H 0.01669 0.07071 0.30008 0.0
H1482 H 0.88877 0.95633 0.21754 0.0
H1483 H 0.87231 0.96844 0.27227 0.0
H1484 H 0.94828 0.10056 0.24468 0.0
H1485 H 0.98945 0.06763 0.24255 0.0
H1486 H 0.96838 0.12582 0.22621 0.0
H1487 H 1.00884 0.09345 0.22411 0.0
H1488 H 0.91309 0.02532 0.20037 0.0
H1489 H 0.88583 0.03755 0.24861 0.0
H1490 H 0.88136 0.0074 0.18472 0.0
H1491 H 0.85459 0.01944 0.23213 0.0
H1492 H 0.98181 0.03299 0.18227 0.0
H1493 H 0.95615 0.08081 0.17539 0.0
H1494 H 0.89173 0.08997 0.29849 0.0
H1495 H 0.88899 0.09958 0.24033 0.0
Li1496 Li 0.31318 0.66177 0.56559 0.0
Li1497 Li 0.32071 0.63824 0.54371 0.0
Li1498 Li 0.31139 0.66681 0.53351 0.0
Li1499 Li 0.28849 0.63841 0.54506 0.0
C1500 C 0.34884 0.67697 0.56151 0.0
N1501 N 0.3772 0.69636 0.58848 0.0
C1502 C 0.36013 0.6665 0.56999 0.0
C1503 C 0.352 0.69732 0.5667 0.0
C1504 C 0.37441 0.67658 0.58359 0.0
C1505 C 0.36639 0.70684 0.58039 0.0
C1506 C 0.29205 0.61832 0.57319 0.0
C1507 C 0.2708 0.58497 0.57357 0.0
N1508 N 0.26417 0.59074 0.5894 0.0
C1509 C 0.28501 0.62392 0.58946 0.0
C1510 C 0.2849 0.59867 0.56518 0.0
C1511 C 0.27093 0.60976 0.59744 0.0
C1512 C 0.31433 0.69178 0.5934 0.0
N1513 N 0.31895 0.67454 0.58983 0.0
C1514 C 0.3302 0.67501 0.62136 0.0
C1515 C 0.32695 0.66615 0.60327 0.0
C1516 C 0.32546 0.6928 0.62539 0.0
C1517 C 0.31766 0.70133 0.61114 0.0
H1518 H 0.30776 0.69795 0.58256 0.0
H1519 H 0.3304 0.65236 0.59999 0.0
C1520 C 0.34986 0.62828 0.52642 0.0
N1521 N 0.33667 0.62204 0.53869 0.0
C1522 C 0.3604 0.61584 0.52028 0.0
C1523 C 0.34439 0.59129 0.54044 0.0
C1524 C 0.33402 0.60417 0.54605 0.0
C1525 C 0.35755 0.59693 0.52713 0.0
H1526 H 0.35166 0.64266 0.5209 0.0
H1527 H 0.32363 0.59976 0.55602 0.0
C1528 C 0.28362 0.68039 0.54385 0.0
N1529 N 0.26743 0.70679 0.52726 0.0
C1530 C 0.26601 0.67332 0.53366 0.0
C1531 C 0.29298 0.70095 0.54558 0.0
C1532 C 0.25805 0.68689 0.52541 0.0
C1533 C 0.28458 0.71403 0.53708 0.0
C1534 C 0.3074 0.62789 0.50897 0.0
C1535 C 0.31808 0.63763 0.49524 0.0
C1536 C 0.30271 0.60703 0.50876 0.0
C1537 C 0.32396 0.62631 0.48155 0.0
C1538 C 0.30891 0.59627 0.49488 0.0
N1539 N 0.31931 0.60605 0.48168 0.0
C1540 C 0.32785 0.70306 0.51664 0.0
C1541 C 0.29938 0.68095 0.50188 0.0
C1542 C 0.32755 0.71724 0.50401 0.0
N1543 N 0.31369 0.68552 0.51549 0.0
C1544 C 0.29849 0.69463 0.48904 0.0
C1545 C 0.31252 0.71319 0.49019 0.0
H1546 H 0.33907 0.70625 0.52762 0.0
H1547 H 0.28838 0.66682 0.50132 0.0
C1548 C 0.25111 0.62583 0.55547 0.0
N1549 N 0.26274 0.62285 0.54247 0.0
C1550 C 0.23179 0.61561 0.55335 0.0
C1551 C 0.23685 0.59932 0.5246 0.0
C1552 C 0.25606 0.60992 0.52725 0.0
C1553 C 0.22444 0.60231 0.53765 0.0
H1554 H 0.2568 0.6365 0.56727 0.0
H1555 H 0.26553 0.60822 0.51692 0.0
O1556 O 0.33447 0.66724 0.54853 0.0
O1557 O 0.30562 0.63205 0.56499 0.0
O1558 O 0.29186 0.66728 0.55172 0.0
O1559 O 0.30184 0.63874 0.52271 0.0
H1560 H 0.35778 0.65071 0.56625 0.0
H1561 H 0.34319 0.70557 0.5605 0.0
H1562 H 0.38321 0.66865 0.59032 0.0
H1563 H 0.36889 0.72254 0.58465 0.0
H1564 H 0.26506 0.56976 0.56745 0.0
H1565 H 0.29013 0.6391 0.59573 0.0
H1566 H 0.28995 0.59413 0.55245 0.0
H1567 H 0.26531 0.61391 0.60999 0.0
H1568 H 0.33619 0.66802 0.63208 0.0
H1569 H 0.31352 0.71485 0.61383 0.0
H1570 H 0.37024 0.62076 0.50989 0.0
H1571 H 0.34206 0.57706 0.5464 0.0
H1572 H 0.25861 0.65751 0.53189 0.0
H1573 H 0.30687 0.70672 0.55291 0.0
H1574 H 0.24447 0.68159 0.51744 0.0
H1575 H 0.29178 0.72992 0.53815 0.0
H1576 H 0.32202 0.65375 0.49525 0.0
H1577 H 0.29469 0.59925 0.51941 0.0
H1578 H 0.33231 0.63366 0.47089 0.0
H1579 H 0.30553 0.58014 0.49467 0.0
H1580 H 0.33863 0.73139 0.50534 0.0
H1581 H 0.28689 0.69074 0.47836 0.0
H1582 H 0.22268 0.61823 0.56377 0.0
H1583 H 0.23167 0.58945 0.51216 0.0
Li1584 Li 0.42518 0.52173 0.74666 0.0
Li1585 Li 0.45492 0.54134 0.76138 0.0
Li1586 Li 0.42719 0.55572 0.7546 0.0
Li1587 Li 0.44506 0.54509 0.72947 0.0
C1588 C 0.4189 0.52171 0.78193 0.0
N1589 N 0.39636 0.49249 0.80136 0.0
C1590 C 0.42507 0.50544 0.78683 0.0
C1591 C 0.40135 0.52322 0.78707 0.0
C1592 C 0.41343 0.49078 0.79658 0.0
C1593 C 0.39016 0.50828 0.79688 0.0
C1594 C 0.4682 0.52037 0.73511 0.0
C1595 C 0.50027 0.53664 0.72805 0.0
N1596 N 0.50371 0.51855 0.72629 0.0
C1597 C 0.47208 0.50192 0.73322 0.0
C1598 C 0.48244 0.53785 0.73253 0.0
C1599 C 0.4901 0.50132 0.72876 0.0
C1600 C 0.41469 0.48001 0.74154 0.0
N1601 N 0.40759 0.49562 0.74521 0.0
C1602 C 0.37705 0.47327 0.74904 0.0
C1603 C 0.3891 0.49265 0.74871 0.0
C1604 C 0.38428 0.45695 0.74601 0.0
C1605 C 0.40325 0.46043 0.74193 0.0
H1606 H 0.42939 0.4828 0.73882 0.0
H1607 H 0.38384 0.5053 0.75185 0.0
C1608 C 0.48594 0.55995 0.78758 0.0
N1609 N 0.47562 0.54237 0.77835 0.0
C1610 C 0.50094 0.56038 0.8004 0.0
C1611 C 0.49422 0.52458 0.79401 0.0
C1612 C 0.47953 0.5249 0.78121 0.0
C1613 C 0.50511 0.54247 0.80393 0.0
H1614 H 0.48237 0.57359 0.78515 0.0
H1615 H 0.47097 0.5111 0.77378 0.0
C1616 C 0.40147 0.52888 0.72084 0.0
N1617 N 0.36883 0.50496 0.70115 0.0
C1618 C 0.40258 0.51461 0.70697 0.0
C1619 C 0.38374 0.53105 0.72464 0.0
C1620 C 0.38592 0.50263 0.6972 0.0
C1621 C 0.36742 0.5188 0.71454 0.0
C1622 C 0.46505 0.58538 0.74637 0.0
C1623 C 0.45568 0.59899 0.74053 0.0
C1624 C 0.4849 0.59131 0.74872 0.0
C1625 C 0.46629 0.61815 0.73681 0.0
C1626 C 0.49501 0.6106 0.74485 0.0
N1627 N 0.48558 0.6235 0.73902 0.0
C1628 C 0.41266 0.57787 0.78077 0.0
C1629 C 0.4043 0.5805 0.74925 0.0
C1630 C 0.40083 0.58923 0.78633 0.0
N1631 N 0.41391 0.57357 0.76251 0.0
C1632 C 0.39248 0.59199 0.75415 0.0
C1633 C 0.39045 0.59627 0.77289 0.0
H1634 H 0.42041 0.57197 0.79097 0.0
H1635 H 0.40548 0.57664 0.73484 0.0
C1636 C 0.45332 0.53326 0.69476 0.0
N1637 N 0.453 0.54983 0.70538 0.0
C1638 C 0.45898 0.53485 0.67691 0.0
C1639 C 0.46365 0.57056 0.68099 0.0
C1640 C 0.45777 0.56824 0.69881 0.0
C1641 C 0.46433 0.55369 0.66985 0.0
H1642 H 0.44932 0.51876 0.70023 0.0
H1643 H 0.457 0.58113 0.70728 0.0
O1644 O 0.42992 0.53599 0.77203 0.0
O1645 O 0.45067 0.52121 0.73983 0.0
O1646 O 0.41763 0.54068 0.73063 0.0
O1647 O 0.45485 0.56665 0.75041 0.0
H1648 H 0.43854 0.50398 0.78286 0.0
H1649 H 0.39628 0.53561 0.78327 0.0
H1650 H 0.41794 0.478 0.80029 0.0
H1651 H 0.37649 0.50919 0.80084 0.0
H1652 H 0.51136 0.5501 0.72597 0.0
H1653 H 0.46138 0.48819 0.7353 0.0
H1654 H 0.47971 0.55217 0.73375 0.0
H1655 H 0.49328 0.48714 0.72731 0.0
H1656 H 0.36253 0.47109 0.75244 0.0
H1657 H 0.40925 0.44814 0.73941 0.0
H1658 H 0.50903 0.57455 0.80758 0.0
H1659 H 0.49653 0.51032 0.79653 0.0
H1660 H 0.41611 0.51257 0.70397 0.0
H1661 H 0.38253 0.54182 0.73546 0.0
H1662 H 0.38658 0.49144 0.6865 0.0
H1663 H 0.35361 0.52024 0.7174 0.0
H1664 H 0.4404 0.59473 0.73857 0.0
H1665 H 0.49249 0.5812 0.75353 0.0
H1666 H 0.45919 0.62874 0.73214 0.0
H1667 H 0.51036 0.61532 0.74655 0.0
H1668 H 0.39969 0.59234 0.80091 0.0
H1669 H 0.38451 0.59689 0.74336 0.0
H1670 H 0.45958 0.52151 0.66887 0.0
H1671 H 0.46754 0.58532 0.67594 0.0
Li1672 Li 0.63105 1.00537 0.76552 0.0
Li1673 Li 0.65823 0.02994 0.75717 0.0
Li1674 Li 0.63369 0.01184 0.73393 0.0
Li1675 Li 0.65577 0.99533 0.75029 0.0
C1676 C 0.62917 0.04451 0.76763 0.0
N1677 N 0.62486 0.07271 0.79412 0.0
C1678 C 0.63706 0.04548 0.78574 0.0
C1679 C 0.61909 0.05797 0.76305 0.0
C1680 C 0.63473 0.05981 0.79891 0.0
C1681 C 0.61706 0.07208 0.77662 0.0
C1682 C 0.67257 0.01107 0.7873 0.0
C1683 C 0.70538 0.01257 0.79425 0.0
N1684 N 0.70287 0.01392 0.8126 0.0
C1685 C 0.67029 0.01236 0.80622 0.0
C1686 C 0.69024 0.01112 0.78125 0.0
C1687 C 0.6858 0.01385 0.81879 0.0
C1688 C 0.61394 0.98462 0.79518 0.0
N1689 N 0.6124 0.9976 0.78248 0.0
C1690 C 0.5832 1.0 0.79337 0.0
C1691 C 0.59719 1.00486 0.78104 0.0
C1692 C 0.5845 0.98699 0.80704 0.0
C1693 C 0.59995 0.97887 0.80752 0.0
H1694 H 0.62601 0.97871 0.79566 0.0
H1695 H 0.59603 0.01465 0.7704 0.0
C1696 C 0.67088 0.07009 0.75249 0.0
N1697 N 0.67511 0.05623 0.76289 0.0
C1698 C 0.68203 0.08994 0.75468 0.0
C1699 C 0.70157 0.08116 0.77866 0.0
C1700 C 0.69004 0.06138 0.77592 0.0
C1701 C 0.6976 0.09573 0.76795 0.0
H1702 H 0.65881 0.06564 0.74236 0.0
H1703 H 0.693 0.05033 0.78431 0.0
C1704 C 0.61124 0.97165 0.747 0.0
N1705 N 0.57749 0.94473 0.75431 0.0
C1706 C 0.61139 0.95458 0.75594 0.0
C1707 C 0.59395 0.97497 0.74164 0.0
C1708 C 0.59417 0.94116 0.75955 0.0
C1709 C 0.57703 0.9612 0.7455 0.0
C1710 C 0.67458 0.0316 0.72531 0.0
C1711 C 0.6686 0.04297 0.7124 0.0
C1712 C 0.69395 0.03555 0.73045 0.0
C1713 C 0.68208 0.05836 0.7051 0.0
C1714 C 0.70699 0.05109 0.72286 0.0
N1715 N 0.70084 0.06209 0.71046 0.0
C1716 C 0.61031 0.02656 0.71108 0.0
C1717 C 0.61681 0.99735 0.69839 0.0
C1718 C 0.59808 0.02643 0.69575 0.0
N1719 N 0.61925 0.01214 0.7121 0.0
C1720 C 0.60478 0.9967 0.6827 0.0
C1721 C 0.59515 0.01133 0.68131 0.0
H1722 H 0.61249 0.03799 0.72231 0.0
H1723 H 0.62404 0.98599 0.69977 0.0
C1724 C 0.66902 0.96436 0.76221 0.0
N1725 N 0.66965 0.97675 0.74848 0.0
C1726 C 0.68188 0.95317 0.76343 0.0
C1727 C 0.69514 0.96709 0.73586 0.0
C1728 C 0.68201 0.97801 0.73517 0.0
C1729 C 0.6955 0.95492 0.75044 0.0
H1730 H 0.6592 0.96401 0.77275 0.0
H1731 H 0.6823 0.98828 0.72461 0.0
O1732 O 0.63143 0.03075 0.75434 0.0
O1733 O 0.65735 0.00918 0.77489 0.0
O1734 O 0.62795 0.98526 0.74383 0.0
O1735 O 0.66154 0.01668 0.73282 0.0
H1736 H 0.64491 0.03534 0.78969 0.0
H1737 H 0.6129 0.0576 0.74916 0.0
H1738 H 0.64078 0.06068 0.81295 0.0
H1739 H 0.60929 0.08256 0.77323 0.0
H1740 H 0.71913 0.01265 0.78975 0.0
H1741 H 0.65667 0.01217 0.81113 0.0
H1742 H 0.69229 0.01017 0.76672 0.0
H1743 H 0.68424 0.0149 0.83347 0.0
H1744 H 0.57187 0.00699 0.79248 0.0
H1745 H 0.6014 0.9684 0.81743 0.0
H1746 H 0.67857 0.1006 0.74595 0.0
H1747 H 0.71326 0.08506 0.78925 0.0
H1748 H 0.62467 0.95182 0.7602 0.0
H1749 H 0.59359 0.98819 0.73482 0.0
H1750 H 0.59406 0.92793 0.76655 0.0
H1751 H 0.56354 0.96365 0.74156 0.0
H1752 H 0.65368 0.0401 0.70821 0.0
H1753 H 0.69889 0.0268 0.74026 0.0
H1754 H 0.67763 0.06737 0.6952 0.0
H1755 H 0.72201 0.0544 0.72682 0.0
H1756 H 0.59081 0.03786 0.69534 0.0
H1757 H 0.60318 0.98499 0.67175 0.0
H1758 H 0.68155 0.94376 0.77474 0.0
H1759 H 0.70553 0.96899 0.72569 0.0
Li1760 Li 0.79928 0.71048 0.04059 0.0
Li1761 Li 0.81199 0.68516 0.02276 0.0
Li1762 Li 0.79909 0.70938 0.00553 0.0
Li1763 Li 0.77802 0.68306 0.02113 0.0
C1764 C 0.8382 0.72594 0.03383 0.0
N1765 N 0.87186 0.74748 0.05336 0.0
C1766 C 0.8463 0.7173 0.0477 0.0
C1767 C 0.84728 0.74547 0.02978 0.0
C1768 C 0.8633 0.72845 0.05745 0.0
C1769 C 0.86428 0.75614 0.03984 0.0
C1770 C 0.78395 0.66623 0.05138 0.0
C1771 C 0.77016 0.6308 0.0533 0.0
N1772 N 0.76016 0.63481 0.06743 0.0
C1773 C 0.77359 0.67002 0.06595 0.0
C1774 C 0.78229 0.64648 0.04502 0.0
C1775 C 0.76163 0.65392 0.07388 0.0
C1776 C 0.7913 0.73685 0.07064 0.0
N1777 N 0.80155 0.72419 0.06564 0.0
C1778 C 0.812 0.72378 0.09755 0.0
C1779 C 0.81186 0.71776 0.07877 0.0
C1780 C 0.80118 0.73642 0.10326 0.0
C1781 C 0.791 0.74322 0.08934 0.0
H1782 H 0.78267 0.74143 0.06029 0.0
H1783 H 0.81938 0.70716 0.07479 0.0
C1784 C 0.8409 0.67039 0.00813 0.0
N1785 N 0.83068 0.67072 0.02304 0.0
C1786 C 0.85446 0.65985 0.00793 0.0
C1787 C 0.84679 0.65021 0.03846 0.0
C1788 C 0.83341 0.66095 0.03808 0.0
C1789 C 0.85756 0.64949 0.02324 0.0
H1790 H 0.8385 0.67834 0.99637 0.0
H1791 H 0.82516 0.66148 0.0498 0.0
C1792 C 0.77667 0.73063 0.02232 0.0
N1793 N 0.77338 0.76905 0.02329 0.0
C1794 C 0.75885 0.73382 0.02312 0.0
C1795 C 0.79281 0.74696 0.02197 0.0
C1796 C 0.75748 0.75336 0.02362 0.0
C1797 C 0.79085 0.76627 0.02247 0.0
C1798 C 0.78374 0.67393 0.98379 0.0
C1799 C 0.76759 0.68001 0.97955 0.0
C1800 C 0.79002 0.66249 0.97054 0.0
C1801 C 0.75794 0.67446 0.96207 0.0
C1802 C 0.77996 0.65724 0.95322 0.0
N1803 N 0.76427 0.66329 0.94938 0.0
C1804 C 0.8164 0.71939 0.97194 0.0
C1805 C 0.78948 0.73104 0.97448 0.0
C1806 C 0.81815 0.72521 0.95383 0.0
N1807 N 0.80216 0.7222 0.98191 0.0
C1808 C 0.79082 0.73727 0.95643 0.0
C1809 C 0.80514 0.73413 0.94562 0.0
H1810 H 0.82613 0.71198 0.97786 0.0
H1811 H 0.77788 0.73266 0.98226 0.0
C1812 C 0.74076 0.66971 0.03208 0.0
N1813 N 0.75298 0.6645 0.02084 0.0
C1814 C 0.72287 0.65641 0.03382 0.0
C1815 C 0.73012 0.63282 0.01185 0.0
C1816 C 0.74804 0.64645 0.01079 0.0
C1817 C 0.71735 0.63767 0.02362 0.0
H1818 H 0.74511 0.6841 0.04002 0.0
H1819 H 0.7581 0.64247 1.00221 0.0
O1820 O 0.82155 0.7153 0.02412 0.0
O1821 O 0.79529 0.68177 0.04307 0.0
O1822 O 0.77814 0.71155 0.02181 0.0
O1823 O 0.79371 0.6796 1.00064 0.0
H1824 H 0.83949 0.7022 0.05097 0.0
H1825 H 0.8413 0.75232 0.01895 0.0
H1826 H 0.86968 0.72197 0.06828 0.0
H1827 H 0.87145 0.77128 0.03688 0.0
H1828 H 0.76864 0.61544 0.04844 0.0
H1829 H 0.7746 0.68523 0.07093 0.0
H1830 H 0.79007 0.64332 0.03362 0.0
H1831 H 0.75344 0.65662 0.08509 0.0
H1832 H 0.82033 0.71824 0.10751 0.0
H1833 H 0.78218 0.7527 0.09286 0.0
H1834 H 0.86255 0.66001 0.99598 0.0
H1835 H 0.84843 0.64229 0.05047 0.0
H1836 H 0.74622 0.7213 0.02338 0.0
H1837 H 0.80667 0.74478 0.02126 0.0
H1838 H 0.74378 0.75606 0.02427 0.0
H1839 H 0.80322 0.77906 0.02221 0.0
H1840 H 0.76263 0.68902 0.98959 0.0
H1841 H 0.80258 0.65781 0.9736 0.0
H1842 H 0.74544 0.67908 0.95858 0.0
H1843 H 0.78466 0.6484 0.94281 0.0
H1844 H 0.82956 0.72259 0.94628 0.0
H1845 H 0.78025 0.74378 0.95077 0.0
H1846 H 0.71339 0.66078 0.04294 0.0
H1847 H 0.72646 0.61845 0.00388 0.0
Li1848 Li 0.92886 0.5267 0.81461 0.0
Li1849 Li 0.95631 0.55255 0.82841 0.0
Li1850 Li 0.9283 0.56103 0.8152 0.0
Li1851 Li 0.94981 0.54899 0.79522 0.0
C1852 C 0.92974 0.53605 0.85296 0.0
N1853 N 0.93014 0.51778 0.8855 0.0
C1854 C 0.93684 0.51958 0.85385 0.0
C1855 C 0.92284 0.54323 0.86862 0.0
C1856 C 0.93693 0.51055 0.87042 0.0
C1857 C 0.92316 0.53378 0.88495 0.0
C1858 C 0.9704 0.52176 0.80999 0.0
C1859 C 1.00258 0.52487 0.80278 0.0
N1860 N 1.00074 0.5061 0.80797 0.0
C1861 C 0.96876 0.50243 0.81508 0.0
C1862 C 0.98739 0.53302 0.80365 0.0
C1863 C 0.98429 0.49481 0.81404 0.0
C1864 C 0.91656 0.4873 0.80018 0.0
N1865 N 0.91335 0.49993 0.81372 0.0
C1866 C 0.88675 0.47442 0.82223 0.0
C1867 C 0.89883 0.49397 0.82472 0.0
C1868 C 0.88951 0.46121 0.80805 0.0
C1869 C 0.90467 0.46779 0.797 0.0
H1870 H 0.92808 0.49264 0.79151 0.0
H1871 H 0.89639 0.5045 0.83512 0.0
C1872 C 0.98377 0.57889 0.85413 0.0
N1873 N 0.97651 0.55954 0.84707 0.0
C1874 C 0.99927 0.58423 0.86733 0.0
C1875 C 0.99924 0.54956 0.8658 0.0
C1876 C 0.9838 0.54493 0.85274 0.0
C1877 C 1.00724 0.56943 0.87324 0.0
H1878 H 0.97757 0.59018 0.84943 0.0
H1879 H 0.97753 0.52961 0.84729 0.0
C1880 C 0.90477 0.52888 0.78662 0.0
N1881 N 0.87022 0.50283 0.77295 0.0
C1882 C 0.90348 0.51667 0.77037 0.0
C1883 C 0.88849 0.52797 0.79586 0.0
C1884 C 0.88588 0.50356 0.7637 0.0
C1885 C 0.87115 0.51467 0.78874 0.0
C1886 C 0.96964 0.58986 0.80748 0.0
C1887 C 0.96507 0.60622 0.80045 0.0
C1888 C 0.98865 0.59003 0.80973 0.0
C1889 C 0.97959 0.62233 0.79552 0.0
C1890 C 1.00276 0.60642 0.80464 0.0
N1891 N 0.99798 0.62209 0.79767 0.0
C1892 C 0.90217 0.57996 0.82974 0.0
C1893 C 0.9101 0.5851 0.79893 0.0
C1894 C 0.88863 0.59036 0.82783 0.0
N1895 N 0.9124 0.57752 0.81531 0.0
C1896 C 0.89686 0.5956 0.79643 0.0
C1897 C 0.88578 0.59816 0.81092 0.0
H1898 H 0.90411 0.57334 0.84247 0.0
H1899 H 0.91816 0.58236 0.78762 0.0
C1900 C 0.95907 0.53053 0.76476 0.0
N1901 N 0.96028 0.54913 0.77234 0.0
C1902 C 0.96749 0.52816 0.74852 0.0
C1903 C 0.97775 0.5642 0.74781 0.0
C1904 C 0.96906 0.56587 0.76411 0.0
C1905 C 0.97716 0.54514 0.73996 0.0
H1906 H 0.95191 0.51753 0.77164 0.0
H1907 H 0.96954 0.58047 0.77022 0.0
O1908 O 0.92963 0.54531 0.83694 0.0
O1909 O 0.95527 0.52938 0.81093 0.0
O1910 O 0.92198 0.54129 0.79372 0.0
O1911 O 0.95554 0.57397 0.81234 0.0
H1912 H 0.94223 0.51381 0.84191 0.0
H1913 H 0.91734 0.556 0.86818 0.0
H1914 H 0.94239 0.4978 0.87129 0.0
H1915 H 0.91787 0.53919 0.89718 0.0
H1916 H 0.01582 0.53343 0.7979 0.0
H1917 H 0.95566 0.49343 0.81989 0.0
H1918 H 0.98878 0.54778 0.79921 0.0
H1919 H 0.98324 0.47991 0.81804 0.0
H1920 H 0.87507 0.46984 0.8309 0.0
H1921 H 0.90727 0.45795 0.78602 0.0
H1922 H 1.00494 0.59968 0.87287 0.0
H1923 H 1.00449 0.53755 0.87043 0.0
H1924 H 0.91598 0.51716 0.7631 0.0
H1925 H 0.88929 0.53718 0.80856 0.0
H1926 H 0.88467 0.49392 0.7512 0.0
H1927 H 0.85845 0.5137 0.7958 0.0
H1928 H 0.95046 0.60645 0.79878 0.0
H1929 H 0.99252 0.57776 0.81551 0.0
H1930 H 0.97625 0.63504 0.78998 0.0
H1931 H 0.01752 0.60672 0.80628 0.0
H1932 H 0.88036 0.59206 0.8393 0.0
H1933 H 0.89483 0.60099 0.78306 0.0
H1934 H 0.96689 0.51322 0.74303 0.0
H1935 H 0.98486 0.57762 0.74144 0.0
Li1936 Li 0.78115 0.39667 0.5197 0.0
Li1937 Li 0.77163 0.4229 0.50475 0.0
Li1938 Li 0.78087 0.39745 0.48681 0.0
Li1939 Li 0.80412 0.42356 0.50668 0.0
C1940 C 0.74452 0.38105 0.491 0.0
N1941 N 0.71617 0.35578 0.46697 0.0
C1942 C 0.73102 0.38841 0.48187 0.0
C1943 C 0.74353 0.36082 0.48803 0.0
C1944 C 0.7168 0.37539 0.46976 0.0
C1945 C 0.72912 0.3483 0.47578 0.0
C1946 C 0.78189 0.43718 0.53915 0.0
C1947 C 0.77782 0.46916 0.54917 0.0
N1948 N 0.7662 0.46023 0.56195 0.0
C1949 C 0.76991 0.42833 0.5524 0.0
C1950 C 0.78593 0.45778 0.53755 0.0
C1951 C 0.76214 0.44024 0.5638 0.0
C1952 C 0.7931 0.38807 0.55369 0.0
N1953 N 0.77919 0.38066 0.53988 0.0
C1954 C 0.76779 0.35029 0.55441 0.0
C1955 C 0.76636 0.36234 0.54007 0.0
C1956 C 0.78267 0.35725 0.56835 0.0
C1957 C 0.79519 0.37652 0.56808 0.0
H1958 H 0.80308 0.40271 0.55309 0.0
H1959 H 0.75549 0.35682 0.52884 0.0
C1960 C 0.75916 0.4559 0.49606 0.0
N1961 N 0.75518 0.43917 0.50541 0.0
C1962 C 0.74864 0.46947 0.49822 0.0
C1963 C 0.72963 0.44783 0.51896 0.0
C1964 C 0.7405 0.43466 0.51636 0.0
C1965 C 0.7339 0.46567 0.51008 0.0
H1966 H 0.77083 0.45898 0.48734 0.0
H1967 H 0.73763 0.42113 0.52349 0.0
C1968 C 0.80904 0.38164 0.51228 0.0
N1969 N 0.82333 0.35542 0.53134 0.0
C1970 C 0.82538 0.38888 0.52438 0.0
C1971 C 0.80004 0.36104 0.5098 0.0
C1972 C 0.83238 0.37538 0.53389 0.0
C1973 C 0.80746 0.34804 0.51959 0.0
C1974 C 0.80246 0.43885 0.47552 0.0
C1975 C 0.80998 0.43091 0.46068 0.0
C1976 C 0.80989 0.45914 0.48157 0.0
C1977 C 0.82487 0.44339 0.45216 0.0
C1978 C 0.82481 0.47111 0.47271 0.0
N1979 N 0.83192 0.46306 0.45832 0.0
C1980 C 0.76452 0.38493 0.45039 0.0
C1981 C 0.78795 0.36988 0.46053 0.0
C1982 C 0.76238 0.37464 0.43298 0.0
N1983 N 0.77702 0.38223 0.46374 0.0
C1984 C 0.78642 0.35945 0.4433 0.0
C1985 C 0.77352 0.36177 0.42921 0.0
H1986 H 0.75642 0.39532 0.45319 0.0
H1987 H 0.79825 0.36856 0.47117 0.0
C1988 C 0.83529 0.45476 0.52321 0.0
N1989 N 0.82974 0.43918 0.51002 0.0
C1990 C 0.85448 0.46512 0.52685 0.0
C1991 C 0.86179 0.44309 0.50328 0.0
C1992 C 0.84245 0.43334 0.49994 0.0
C1993 C 0.86796 0.45904 0.51702 0.0
H1994 H 0.82489 0.4588 0.53125 0.0
H1995 H 0.83756 0.42073 0.48968 0.0
O1996 O 0.75864 0.39359 0.5028 0.0
O1997 O 0.78931 0.42569 0.52758 0.0
O1998 O 0.80163 0.39465 0.50324 0.0
O1999 O 0.78812 0.42679 0.48429 0.0
H2000 H 0.7316 0.40403 0.48399 0.0
H2001 H 0.75391 0.35491 0.49493 0.0
H2002 H 0.70631 0.38088 0.46253 0.0
H2003 H 0.72826 0.33264 0.47324 0.0
H2004 H 0.78067 0.48506 0.54795 0.0
H2005 H 0.76646 0.4124 0.55373 0.0
H2006 H 0.79487 0.46484 0.52716 0.0
H2007 H 0.75279 0.43358 0.57406 0.0
H2008 H 0.75788 0.33547 0.55424 0.0
H2009 H 0.80667 0.38247 0.57875 0.0
H2010 H 0.75242 0.48309 0.49118 0.0
H2011 H 0.71815 0.44419 0.52796 0.0
H2012 H 0.8324 0.40476 0.5267 0.0
H2013 H 0.78729 0.35518 0.50063 0.0
H2014 H 0.84492 0.3808 0.54339 0.0
H2015 H 0.80055 0.33209 0.51791 0.0
H2016 H 0.8045 0.41526 0.45584 0.0
H2017 H 0.80446 0.46549 0.49322 0.0
H2018 H 0.83085 0.43743 0.4407 0.0
H2019 H 0.83079 0.48679 0.47735 0.0
H2020 H 0.7522 0.37683 0.42259 0.0
H2021 H 0.79567 0.35014 0.4409 0.0
H2022 H 0.85879 0.47727 0.53764 0.0
H2023 H 0.87183 0.43813 0.49534 0.0
Li2024 Li 0.66061 0.51329 0.33585 0.0
Li2025 Li 0.68155 0.5412 0.32476 0.0
Li2026 Li 0.65486 0.52017 0.30488 0.0
Li2027 Li 0.68321 0.5085 0.31285 0.0
C2028 C 0.64257 0.53963 0.34033 0.0
N2029 N 0.6191 0.54307 0.36781 0.0
C2030 C 0.64997 0.55176 0.35659 0.0
C2031 C 0.62319 0.52945 0.33795 0.0
C2032 C 0.63788 0.55326 0.37034 0.0
C2033 C 0.61156 0.53133 0.35203 0.0
C2034 C 0.70556 0.53108 0.34866 0.0
C2035 C 0.7394 0.53784 0.35507 0.0
N2036 N 0.7392 0.55203 0.36865 0.0
C2037 C 0.7057 0.54571 0.36273 0.0
C2038 C 0.72256 0.52709 0.34482 0.0
C2039 C 0.72284 0.55615 0.37265 0.0
C2040 C 0.63106 0.48981 0.35538 0.0
N2041 N 0.64872 0.50304 0.35705 0.0
C2042 C 0.64824 0.50668 0.38977 0.0
C2043 C 0.65764 0.51089 0.37382 0.0
C2044 C 0.6295 0.4941 0.38844 0.0
C2045 C 0.62111 0.48508 0.37101 0.0
H2046 H 0.62435 0.48367 0.34187 0.0
H2047 H 0.67169 0.52124 0.37477 0.0
C2048 C 0.68729 0.58261 0.32888 0.0
N2049 N 0.69662 0.56842 0.32873 0.0
C2050 C 0.69727 0.60268 0.32798 0.0
C2051 C 0.72637 0.59328 0.32778 0.0
C2052 C 0.71581 0.57338 0.32836 0.0
C2053 C 0.71705 0.60818 0.32697 0.0
H2054 H 0.67197 0.5782 0.32852 0.0
H2055 H 0.72286 0.56182 0.32743 0.0
C2056 C 0.64299 0.48039 0.30128 0.0
N2057 N 0.61755 0.45384 0.27555 0.0
C2058 C 0.64936 0.46824 0.28876 0.0
C2059 C 0.62363 0.47889 0.30082 0.0
C2060 C 0.63629 0.45494 0.27584 0.0
C2061 C 0.61101 0.46543 0.28767 0.0
C2062 C 0.68996 0.54722 0.29 0.0
C2063 C 0.67974 0.56033 0.28478 0.0
C2064 C 0.70922 0.55163 0.28697 0.0
C2065 C 0.689 0.57768 0.27667 0.0
C2066 C 0.71796 0.56914 0.27881 0.0
N2067 N 0.70775 0.58171 0.27389 0.0
C2068 C 0.62531 0.53112 0.28506 0.0
C2069 C 0.64052 0.51077 0.26831 0.0
C2070 C 0.61488 0.53304 0.26898 0.0
N2071 N 0.6379 0.52023 0.28436 0.0
C2072 C 0.63023 0.51202 0.25202 0.0
C2073 C 0.61753 0.52368 0.25209 0.0
H2074 H 0.62399 0.53903 0.29792 0.0
H2075 H 0.65104 0.5027 0.26809 0.0
C2076 C 0.70376 0.48004 0.31348 0.0
N2077 N 0.69866 0.49366 0.30343 0.0
C2078 C 0.71567 0.46954 0.30641 0.0
C2079 C 0.71645 0.48708 0.27871 0.0
C2080 C 0.70445 0.49711 0.28626 0.0
C2081 C 0.7223 0.47316 0.28885 0.0
H2082 H 0.69868 0.47747 0.32702 0.0
H2083 H 0.69978 0.50772 0.27845 0.0
O2084 O 0.6543 0.53746 0.32696 0.0
O2085 O 0.6889 0.5205 0.33887 0.0
O2086 O 0.65562 0.49363 0.31393 0.0
O2087 O 0.6813 0.53051 0.29857 0.0
H2088 H 0.66492 0.5598 0.35865 0.0
H2089 H 0.61722 0.51994 0.32549 0.0
H2090 H 0.64344 0.56247 0.38306 0.0
H2091 H 0.59657 0.52337 0.35045 0.0
H2092 H 0.75264 0.53492 0.3522 0.0
H2093 H 0.69282 0.54932 0.36571 0.0
H2094 H 0.72281 0.51592 0.33399 0.0
H2095 H 0.72316 0.5676 0.38347 0.0
H2096 H 0.65522 0.51418 0.40285 0.0
H2097 H 0.60679 0.47507 0.36939 0.0
H2098 H 0.6894 0.61355 0.32701 0.0
H2099 H 0.74161 0.59681 0.32721 0.0
H2100 H 0.66425 0.46909 0.28896 0.0
H2101 H 0.61845 0.48827 0.31027 0.0
H2102 H 0.64104 0.4455 0.26603 0.0
H2103 H 0.59603 0.46425 0.28705 0.0
H2104 H 0.66492 0.55734 0.28728 0.0
H2105 H 0.71745 0.54187 0.29123 0.0
H2106 H 0.68129 0.58802 0.27269 0.0
H2107 H 0.73289 0.57282 0.27652 0.0
H2108 H 0.6055 0.54245 0.26965 0.0
H2109 H 0.63254 0.50428 0.23942 0.0
H2110 H 0.7195 0.45862 0.31454 0.0
H2111 H 0.72127 0.49042 0.26518 0.0
Tb2112 Tb 0.06652 0.04746 0.04013 0.0
Tb2113 Tb 0.02575 0.01851 0.02115 0.0
C2114 C 0.02866 0.04297 0.05925 0.0
C2115 C 0.11788 0.06714 0.04838 0.0
C2116 C 0.14978 0.05572 0.03825 0.0
C2117 C 0.14543 0.05613 0.05679 0.0
C2118 C 0.1296 0.06184 0.06181 0.0
C2119 C 0.12315 0.06827 0.03012 0.0
C2120 C 0.13897 0.06266 0.02513 0.0
C2121 C 0.09904 0.06856 0.05285 0.0
O2122 O 0.06785 0.01672 0.04176 0.0
O2123 O 0.03595 1.00146 0.0414 0.0
O2124 O 0.04736 0.01055 0.00607 0.0
O2125 O 0.07039 0.04058 0.01143 0.0
O2126 O 1.00099 0.99515 0.0232 0.0
O2127 O 1.00645 0.00895 0.99762 0.0
O2128 O 0.03032 0.04747 0.00932 0.0
O2129 O 0.05029 0.06772 0.03253 0.0
O2130 O 0.04686 0.04455 0.06143 0.0
O2131 O 0.01848 0.03619 0.04355 0.0
C2132 C 0.0536 1.00136 0.04499 0.0
O2133 O 0.08901 0.0737 0.03972 0.0
O2134 O 0.08881 0.05356 0.06103 0.0
C2135 C 0.06318 0.0232 1.00197 0.0
C2136 C 0.975 1.00028 0.00596 0.0
C2137 C 0.94065 0.01035 1.00348 0.0
C2138 C 0.947 1.0023 0.98777 0.0
C2139 C 0.96405 0.99723 0.98903 0.0
C2140 C 0.9684 0.00785 0.02173 0.0
C2141 C 0.95138 0.01275 0.02051 0.0
C2142 C 0.9939 0.99709 0.00684 0.0
C2143 C 0.03853 0.06536 0.01775 0.0
H2144 H 0.15346 0.05077 0.06718 0.0
H2145 H 0.12583 0.06089 0.07596 0.0
H2146 H 0.11451 0.07243 0.01942 0.0
H2147 H 0.14221 0.06283 0.01081 0.0
H2148 H 0.93898 1.00029 0.97449 0.0
H2149 H 0.96896 0.99149 0.9767 0.0
H2150 H 0.97666 0.01061 0.03493 0.0
H2151 H 0.94708 0.01931 0.03278 0.0
Tb2152 Tb 0.28562 0.78528 0.29598 0.0
Tb2153 Tb 0.31061 0.78721 0.26008 0.0
C2154 C 0.2698 0.794 0.25718 0.0
C2155 C 0.275 0.78539 0.3442 0.0
C2156 C 0.28858 0.78253 0.38052 0.0
C2157 C 0.26894 0.7779 0.3757 0.0
C2158 C 0.2622 0.77927 0.35762 0.0
C2159 C 0.2946 0.79096 0.34914 0.0
C2160 C 0.30134 0.78957 0.36717 0.0
C2161 C 0.26808 0.78386 0.32476 0.0
O2162 O 0.27255 0.75883 0.27734 0.0
O2163 O 0.3001 0.75634 0.26638 0.0
O2164 O 0.3304 0.78659 0.28327 0.0
O2165 O 0.30921 0.77388 0.30461 0.0
O2166 O 0.31492 0.7732 0.23512 0.0
O2167 O 0.33341 0.80225 0.24535 0.0
O2168 O 0.31144 0.81753 0.26947 0.0
O2169 O 0.30932 0.81228 0.29991 0.0
O2170 O 0.2707 0.79768 0.27521 0.0
O2171 O 0.28233 0.7869 0.24912 0.0
C2172 C 0.2823 0.74818 0.26926 0.0
O2173 O 0.27404 0.80005 0.31616 0.0
O2174 O 0.2695 0.76807 0.31512 0.0
C2175 C 0.32648 0.77851 0.29895 0.0
C2176 C 0.3255 0.79629 0.21342 0.0
C2177 C 0.31962 0.8104 0.17892 0.0
C2178 C 0.33703 0.80696 0.18412 0.0
C2179 C 0.33992 0.79986 0.20127 0.0
C2180 C 0.30821 0.79991 0.20834 0.0
C2181 C 0.30525 0.80681 0.19121 0.0
C2182 C 0.32838 0.78877 0.23137 0.0
C2183 C 0.31482 0.82428 0.28691 0.0
H2184 H 0.25875 0.77218 0.38561 0.0
H2185 H 0.24704 0.77476 0.35395 0.0
H2186 H 0.30468 0.79564 0.33887 0.0
H2187 H 0.31653 0.7934 0.37052 0.0
H2188 H 0.34831 0.80956 0.17486 0.0
H2189 H 0.35336 0.79715 0.20503 0.0
H2190 H 0.29697 0.7974 0.21763 0.0
H2191 H 0.29182 0.80967 0.18769 0.0
Tb2192 Tb 0.52023 0.02804 0.52167 0.0
Tb2193 Tb 0.56676 0.03426 0.52304 0.0
C2194 C 0.54291 0.02017 0.55582 0.0
C2195 C 0.47278 0.03806 0.52302 0.0
C2196 C 0.44866 0.06286 0.52764 0.0
C2197 C 0.46848 0.07066 0.53149 0.0
C2198 C 0.48043 0.05838 0.52919 0.0
C2199 C 0.45307 0.03015 0.51949 0.0
C2200 C 0.44114 0.04237 0.52178 0.0
C2201 C 0.4851 0.02528 0.51878 0.0
O2202 O 0.53337 0.06022 0.52667 0.0
O2203 O 0.56361 0.06124 0.53794 0.0
O2204 O 0.55927 0.05095 0.50115 0.0
O2205 O 0.5305 0.02824 0.49444 0.0
O2206 O 0.59303 0.04019 0.53853 0.0
O2207 O 0.59079 0.03434 0.50887 0.0
O2208 O 0.55309 1.00509 0.50816 0.0
O2209 O 0.52288 0.99766 0.51817 0.0
O2210 O 0.53087 0.02967 0.55031 0.0
O2211 O 0.55489 0.01594 0.54476 0.0
C2212 C 0.54993 0.06981 0.53543 0.0
O2213 O 0.49659 0.03105 0.50597 0.0
O2214 O 0.4935 0.01937 0.53267 0.0
C2215 C 0.54411 0.04332 0.48983 0.0
C2216 C 0.61398 0.02376 0.52586 0.0
C2217 C 0.63799 0.99868 0.52895 0.0
C2218 C 0.6456 0.01944 0.52779 0.0
C2219 C 0.63373 0.0318 0.52628 0.0
C2220 C 0.6062 1.00309 0.52698 0.0
C2221 C 0.61809 0.99066 0.5285 0.0
C2222 C 0.60184 0.03718 0.52407 0.0
C2223 C 0.53661 0.99214 0.51052 0.0
H2224 H 0.47479 0.08628 0.53623 0.0
H2225 H 0.49563 0.06481 0.53193 0.0
H2226 H 0.44691 0.01455 0.51453 0.0
H2227 H 0.42604 0.03584 0.51839 0.0
H2228 H 0.66078 0.02614 0.52775 0.0
H2229 H 0.64 0.0477 0.52533 0.0
H2230 H 0.59095 0.99659 0.52669 0.0
H2231 H 0.61171 0.97481 0.52953 0.0
Tb2232 Tb 0.31564 0.27678 0.78215 0.0
Tb2233 Tb 0.2732 0.28389 0.77588 0.0
C2234 C 0.27831 0.24399 0.78823 0.0
C2235 C 0.36495 0.27507 0.77502 0.0
C2236 C 0.3971 0.28063 0.75437 0.0
C2237 C 0.39753 0.27454 0.77242 0.0
C2238 C 0.38159 0.27176 0.78261 0.0
C2239 C 0.36451 0.28154 0.75717 0.0
C2240 C 0.38043 0.28426 0.74692 0.0
C2241 C 0.34794 0.27078 0.7855 0.0
O2242 O 0.31107 0.27851 0.75248 0.0
O2243 O 0.27846 0.26925 0.74983 0.0
O2244 O 0.29244 0.30908 0.76445 0.0
O2245 O 0.32048 0.30849 0.77986 0.0
O2246 O 0.24423 0.27133 0.76723 0.0
O2247 O 0.25535 0.30249 0.77726 0.0
O2248 O 0.28425 0.2966 0.80399 0.0
O2249 O 0.30626 0.27964 0.81002 0.0
O2250 O 0.29436 0.24787 0.78039 0.0
O2251 O 0.26984 0.25783 0.79136 0.0
C2252 C 0.29481 0.27182 0.74237 0.0
O2253 O 0.34402 0.28613 0.79356 0.0
O2254 O 0.33279 0.25798 0.77723 0.0
C2255 C 0.31042 0.31743 0.76993 0.0
C2256 C 0.22385 0.28565 0.78357 0.0
C2257 C 0.19219 0.28206 0.80468 0.0
C2258 C 0.18968 0.27731 0.78545 0.0
C2259 C 0.20535 0.27913 0.77502 0.0
C2260 C 0.22647 0.29015 0.8028 0.0
C2261 C 0.21079 0.28846 0.81324 0.0
C2262 C 0.24012 0.28777 0.77215 0.0
C2263 C 0.29533 0.2905 0.81573 0.0
H2264 H 0.41002 0.27138 0.77851 0.0
H2265 H 0.38216 0.26667 0.79634 0.0
H2266 H 0.35179 0.28422 0.75107 0.0
H2267 H 0.37969 0.2892 0.73316 0.0
H2268 H 0.17558 0.27253 0.77839 0.0
H2269 H 0.20302 0.27558 0.76021 0.0
H2270 H 0.24063 0.29504 0.80974 0.0
H2271 H 0.21321 0.292 0.82804 0.0
Tb2272 Tb 0.04372 0.03898 0.54418 0.0
Tb2273 Tb 0.04817 0.01508 0.5064 0.0
C2274 C 1.00916 0.00945 0.52224 0.0
C2275 C 0.04162 0.05079 0.59395 0.0
C2276 C 0.04691 0.04139 0.63058 0.0
C2277 C 0.03988 0.02609 0.61629 0.0
C2278 C 0.03734 0.03074 0.59815 0.0
C2279 C 0.04834 0.06612 0.60815 0.0
C2280 C 0.05098 0.06147 0.62633 0.0
C2281 C 0.0396 0.05576 0.57477 0.0
O2282 O 0.04234 0.00844 0.55266 0.0
O2283 O 0.05484 0.99617 0.528 0.0
O2284 O 0.07394 0.03948 0.51171 0.0
O2285 O 0.07411 0.04253 0.54299 0.0
O2286 O 0.0356 1.00009 0.48104 0.0
O2287 O 0.06475 1.00221 0.48984 0.0
O2288 O 0.04158 0.04251 0.49685 0.0
O2289 O 0.04614 0.06224 0.5242 0.0
O2290 O 0.01577 0.02804 0.5292 0.0
O2291 O 0.02078 1.00015 0.51581 0.0
C2292 C 0.04893 0.99436 0.54488 0.0
O2293 O 0.05518 0.06074 0.56637 0.0
O2294 O 0.02579 0.04336 0.5643 0.0
C2295 C 0.08297 0.04602 0.52788 0.0
C2296 C 0.05699 1.00329 0.45818 0.0
C2297 C 0.06188 0.01354 0.42168 0.0
C2298 C 0.06213 0.99444 0.4266 0.0
C2299 C 0.05958 0.98933 0.44472 0.0
C2300 C 0.05818 0.0228 0.4537 0.0
C2301 C 0.06053 0.02787 0.43558 0.0
C2302 C 0.05141 0.99697 0.47633 0.0
C2303 C 0.04359 0.06025 0.50591 0.0
H2304 H 0.03636 0.01048 0.6191 0.0
H2305 H 0.03213 0.01864 0.5874 0.0
H2306 H 0.0518 0.08167 0.60513 0.0
H2307 H 0.05667 0.07361 0.63697 0.0
H2308 H 0.06348 0.98318 0.4163 0.0
H2309 H 0.05886 0.97425 0.44804 0.0
H2310 H 0.05632 0.03379 0.46401 0.0
H2311 H 0.06008 0.04264 0.4323 0.0
Tb2312 Tb 0.3053 0.79837 0.76735 0.0
Tb2313 Tb 0.28546 0.75541 0.78169 0.0
C2314 C 0.30496 0.75893 0.74469 0.0
C2315 C 0.31076 0.84973 0.7586 0.0
C2316 C 0.29101 0.87862 0.75898 0.0
C2317 C 0.30579 0.87992 0.74732 0.0
C2318 C 0.31556 0.86541 0.74705 0.0
C2319 C 0.29652 0.84892 0.77073 0.0
C2320 C 0.28678 0.86325 0.77096 0.0
C2321 C 0.31876 0.83287 0.7568 0.0
O2322 O 0.27424 0.79522 0.7629 0.0
O2323 O 0.26243 0.76121 0.76334 0.0
O2324 O 0.27548 0.77613 0.79871 0.0
O2325 O 0.29987 0.80412 0.7958 0.0
O2326 O 0.26902 0.72553 0.77587 0.0
O2327 O 0.27974 0.73726 0.8038 0.0
O2328 O 0.31515 0.7643 0.79523 0.0
O2329 O 0.33011 0.78791 0.77638 0.0
O2330 O 0.3031 0.77691 0.74401 0.0
O2331 O 0.30212 0.74946 0.75966 0.0
C2332 C 0.25984 0.77864 0.75949 0.0
O2333 O 0.32444 0.82722 0.77229 0.0
O2334 O 0.30835 0.81768 0.74604 0.0
C2335 C 0.28524 0.79451 0.80426 0.0
C2336 C 0.28141 0.7054 0.79415 0.0
C2337 C 0.29922 0.67499 0.7939 0.0
C2338 C 0.2809 0.67144 0.79993 0.0
C2339 C 0.27194 0.68664 0.79996 0.0
C2340 C 0.29995 0.70902 0.78876 0.0
C2341 C 0.30875 0.69391 0.78856 0.0
C2342 C 0.2721 0.72119 0.79273 0.0
C2343 C 0.33113 0.77569 0.78939 0.0
H2344 H 0.30927 0.89164 0.73795 0.0
H2345 H 0.32639 0.86608 0.73747 0.0
H2346 H 0.2925 0.83681 0.77965 0.0
H2347 H 0.27568 0.86211 0.78031 0.0
H2348 H 0.27339 0.65684 0.80404 0.0
H2349 H 0.2576 0.68368 0.80415 0.0
H2350 H 0.30749 0.72343 0.7843 0.0
H2351 H 0.32293 0.69688 0.78393 0.0
Tb2352 Tb 0.54889 0.01941 0.04285 0.0
Tb2353 Tb 0.54998 0.03928 0.00428 0.0
C2354 C 0.5865 0.04327 0.02857 0.0
C2355 C 0.54102 0.00925 0.09098 0.0
C2356 C 0.52774 0.0188 0.12466 0.0
C2357 C 0.53523 1.00247 0.12264 0.0
C2358 C 0.54188 0.99776 0.10588 0.0
C2359 C 0.53343 0.02545 0.09287 0.0
C2360 C 0.52688 0.03024 0.10961 0.0
C2361 C 0.54828 1.00461 0.07355 0.0
O2362 O 0.55078 0.05109 0.05149 0.0
O2363 O 0.54399 0.06232 0.02359 0.0
O2364 O 0.52276 0.01728 0.00512 0.0
O2365 O 0.52063 0.02175 0.03585 0.0
O2366 O 0.56469 0.05087 0.9818 0.0
O2367 O 0.53511 0.0495 0.98333 0.0
O2368 O 0.55673 0.01063 0.99729 0.0
O2369 O 0.54548 0.99364 0.02215 0.0
O2370 O 0.57766 0.02609 0.03454 0.0
O2371 O 0.57698 0.05337 0.0196 0.0
C2372 C 0.54683 0.06512 0.04187 0.0
O2373 O 0.53547 0.99731 0.05983 0.0
O2374 O 0.56259 0.01869 0.06871 0.0
C2375 C 0.51244 0.01665 0.01915 0.0
C2376 C 0.54452 0.04065 0.95454 0.0
C2377 C 0.53524 0.0185 0.91986 0.0
C2378 C 0.52827 0.03496 0.92381 0.0
C2379 C 0.53291 0.04597 0.94104 0.0
C2380 C 0.551 0.0239 0.9508 0.0
C2381 C 0.54654 0.01306 0.93366 0.0
C2382 C 0.54918 0.05187 0.97279 0.0
C2383 C 0.55147 0.9936 0.00534 0.0
H2384 H 0.53616 0.99352 0.13409 0.0
H2385 H 0.54776 0.98524 0.10458 0.0
H2386 H 0.53259 0.03439 0.08139 0.0
H2387 H 0.52093 0.04272 0.11071 0.0
H2388 H 0.5194 0.03946 0.91356 0.0
H2389 H 0.5275 0.05865 0.9438 0.0
H2390 H 0.5598 0.01929 0.96104 0.0
H2391 H 0.55258 1.00082 0.93108 0.0
Tb2392 Tb 0.28764 0.25297 0.26915 0.0
Tb2393 Tb 0.30586 0.29901 0.28438 0.0
C2394 C 0.28807 0.28758 0.24283 0.0
C2395 C 0.27302 0.19774 0.26733 0.0
C2396 C 0.28023 0.16543 0.28446 0.0
C2397 C 0.27758 0.16473 0.2651 0.0
C2398 C 0.27403 0.1808 0.25662 0.0
C2399 C 0.2742 0.19788 0.28665 0.0
C2400 C 0.27771 0.1818 0.29516 0.0
C2401 C 0.27396 0.21616 0.25839 0.0
O2402 O 0.3186 0.25859 0.26444 0.0
O2403 O 0.33004 0.2926 0.27069 0.0
O2404 O 0.31488 0.28233 0.30588 0.0
O2405 O 0.29296 0.25184 0.29886 0.0
O2406 O 0.32108 0.32841 0.27976 0.0
O2407 O 0.3116 0.32115 0.30653 0.0
O2408 O 0.27649 0.29186 0.29397 0.0
O2409 O 0.26211 0.2622 0.27688 0.0
O2410 O 0.28739 0.26883 0.24445 0.0
O2411 O 0.29143 0.30061 0.25742 0.0
C2412 C 0.33257 0.27551 0.26414 0.0
O2413 O 0.26399 0.22729 0.26481 0.0
O2414 O 0.29105 0.22683 0.25595 0.0
C2415 C 0.30528 0.26471 0.31072 0.0
C2416 C 0.31013 0.35191 0.29633 0.0
C2417 C 0.29293 0.38255 0.29188 0.0
C2418 C 0.31277 0.38669 0.29211 0.0
C2419 C 0.32131 0.37144 0.29434 0.0
C2420 C 0.29039 0.34786 0.29664 0.0
C2421 C 0.28188 0.36306 0.29452 0.0
C2422 C 0.31876 0.33546 0.29612 0.0
C2423 C 0.26092 0.27702 0.28867 0.0
H2424 H 0.27966 0.15247 0.25645 0.0
H2425 H 0.27332 0.18055 0.24169 0.0
H2426 H 0.27347 0.21088 0.29514 0.0
H2427 H 0.27945 0.18266 0.3101 0.0
H2428 H 0.3216 0.40161 0.29019 0.0
H2429 H 0.33656 0.37474 0.29393 0.0
H2430 H 0.28147 0.3328 0.29788 0.0
H2431 H 0.26654 0.35932 0.29407 0.0
Tb2432 Tb 0.54455 0.54028 0.0446 0.0
Tb2433 Tb 0.5488 0.51634 0.00648 0.0
C2434 C 0.50984 0.51091 0.02276 0.0
C2435 C 0.54844 0.55545 0.0941 0.0
C2436 C 0.56108 0.54852 0.12965 0.0
C2437 C 0.54398 0.5535 0.12678 0.0
C2438 C 0.53771 0.55693 0.10911 0.0
C2439 C 0.56565 0.55084 0.09696 0.0
C2440 C 0.57197 0.54756 0.11457 0.0
C2441 C 0.54093 0.55703 0.07531 0.0
O2442 O 0.54485 0.51021 0.0533 0.0
O2443 O 0.55417 0.49619 0.02742 0.0
O2444 O 0.57574 0.53903 0.01284 0.0
O2445 O 0.57488 0.54382 0.04409 0.0
O2446 O 0.53573 0.50174 0.98113 0.0
O2447 O 0.5649 0.50347 0.98929 0.0
O2448 O 0.54267 0.54401 0.99711 0.0
O2449 O 0.5465 0.56342 0.02455 0.0
O2450 O 0.51647 0.52942 0.02993 0.0
O2451 O 0.52144 0.50164 0.01618 0.0
C2452 C 0.54989 0.49531 0.04488 0.0
O2453 O 0.55342 0.56526 0.06401 0.0
O2454 O 0.52873 0.54076 0.06762 0.0
C2455 C 0.58426 0.54586 0.02921 0.0
C2456 C 0.55671 0.50542 0.95786 0.0
C2457 C 0.56163 0.51663 0.92158 0.0
C2458 C 0.56286 0.49777 0.9263 0.0
C2459 C 0.56029 0.49217 0.94429 0.0
C2460 C 0.55683 0.52471 0.95359 0.0
C2461 C 0.55914 0.53024 0.93561 0.0
C2462 C 0.55138 0.49862 0.97596 0.0
C2463 C 0.54437 0.56161 0.00625 0.0
H2464 H 0.53518 0.55417 0.13806 0.0
H2465 H 0.52428 0.56024 0.10708 0.0
H2466 H 0.57407 0.54943 0.08551 0.0
H2467 H 0.58538 0.54415 0.11634 0.0
H2468 H 0.56515 0.48706 0.91595 0.0
H2469 H 0.56042 0.47726 0.94744 0.0
H2470 H 0.55423 0.53519 0.96396 0.0
H2471 H 0.55784 0.54478 0.93257 0.0
Tb2472 Tb 0.80539 0.29832 0.26871 0.0
Tb2473 Tb 0.78464 0.25542 0.28278 0.0
C2474 C 0.80538 0.25905 0.24669 0.0
C2475 C 0.81144 0.34816 0.25332 0.0
C2476 C 0.79578 0.38022 0.25087 0.0
C2477 C 0.81522 0.38309 0.24877 0.0
C2478 C 0.823 0.36711 0.24999 0.0
C2479 C 0.79201 0.34514 0.25496 0.0
C2480 C 0.78424 0.361 0.25371 0.0
C2481 C 0.81962 0.33175 0.25638 0.0
O2482 O 0.77566 0.28989 0.25524 0.0
O2483 O 0.76035 0.26691 0.27439 0.0
O2484 O 0.78503 0.27618 0.30611 0.0
O2485 O 0.79083 0.30557 0.29202 0.0
O2486 O 0.76384 0.22766 0.27754 0.0
O2487 O 0.78226 0.23442 0.30259 0.0
O2488 O 0.81574 0.25859 0.28832 0.0
O2489 O 0.82827 0.29246 0.28703 0.0
O2490 O 0.8158 0.2769 0.25305 0.0
O2491 O 0.78976 0.25033 0.25412 0.0
C2492 C 0.75954 0.27902 0.26125 0.0
O2493 O 0.82183 0.32831 0.27364 0.0
O2494 O 0.81181 0.31526 0.24591 0.0
C2495 C 0.78581 0.29512 0.30618 0.0
C2496 C 0.77601 0.20243 0.28783 0.0
C2497 C 0.79147 0.17032 0.28241 0.0
C2498 C 0.77899 0.17041 0.29631 0.0
C2499 C 0.77129 0.18641 0.299 0.0
C2500 C 0.78802 0.2021 0.27366 0.0
C2501 C 0.79563 0.1862 0.27094 0.0
C2502 C 0.77009 0.22044 0.29185 0.0
C2503 C 0.83041 0.27503 0.29141 0.0
H2504 H 0.82442 0.39772 0.2465 0.0
H2505 H 0.83807 0.36963 0.24877 0.0
H2506 H 0.78292 0.33063 0.25776 0.0
H2507 H 0.76932 0.35835 0.2558 0.0
H2508 H 0.77552 0.15834 0.30531 0.0
H2509 H 0.76215 0.18656 0.31009 0.0
H2510 H 0.79209 0.21451 0.2651 0.0
H2511 H 0.80552 0.18686 0.26039 0.0
Tb2512 Tb 0.04993 0.51851 0.54246 0.0
Tb2513 Tb 0.0426 0.53664 0.50394 0.0
C2514 C 0.08322 0.5394 0.52024 0.0
C2515 C 0.0519 0.51158 0.5916 0.0
C2516 C 0.04117 0.52102 0.62655 0.0
C2517 C 0.05064 0.5063 0.6241 0.0
C2518 C 0.05602 0.50164 0.60668 0.0
C2519 C 0.04264 0.52639 0.59402 0.0
C2520 C 0.03735 0.53111 0.61137 0.0
C2521 C 0.05688 0.50645 0.57321 0.0
O2522 O 0.0521 0.55057 0.55031 0.0
O2523 O 0.03712 0.55854 0.52463 0.0
O2524 O 0.01468 0.52071 0.51122 0.0
O2525 O 0.0203 0.51761 0.54209 0.0
O2526 O 0.05027 0.56012 0.48661 0.0
O2527 O 0.02694 0.5338 0.47843 0.0
O2528 O 0.0495 0.50838 0.49545 0.0
O2529 O 0.04374 0.49221 0.52191 0.0
O2530 O 0.0758 0.52336 0.52858 0.0
O2531 O 0.07245 0.54925 0.5128 0.0
C2532 C 0.04422 0.56296 0.54201 0.0
O2533 O 0.04252 0.49693 0.5616 0.0
O2534 O 0.06864 0.52111 0.5659 0.0
C2535 C 1.00871 0.51678 0.52753 0.0
C2536 C 0.04579 0.54859 0.45537 0.0
C2537 C 0.06167 0.54606 0.42156 0.0
C2538 C 0.05588 0.56293 0.4269 0.0
C2539 C 0.04792 0.56415 0.44372 0.0
C2540 C 0.05166 0.53179 0.45012 0.0
C2541 C 0.05945 0.53049 0.43328 0.0
C2542 C 0.03805 0.55028 0.47324 0.0
C2543 C 0.04675 0.49176 0.50415 0.0
H2544 H 0.05382 0.49839 0.63562 0.0
H2545 H 0.06319 0.49018 0.60495 0.0
H2546 H 0.03926 0.5341 0.58243 0.0
H2547 H 0.02977 0.54225 0.61278 0.0
H2548 H 0.05739 0.57508 0.41803 0.0
H2549 H 0.04354 0.57726 0.44768 0.0
H2550 H 0.05035 0.51975 0.45907 0.0
H2551 H 0.06407 0.51747 0.42958 0.0
Tb2552 Tb 0.81595 0.7792 0.28115 0.0
Tb2553 Tb 0.77275 0.78459 0.27402 0.0
C2554 C 0.7795 0.74541 0.28833 0.0
C2555 C 0.86542 0.77758 0.27416 0.0
C2556 C 0.89711 0.78121 0.25311 0.0
C2557 C 0.89805 0.77713 0.27178 0.0
C2558 C 0.88236 0.77534 0.28218 0.0
C2559 C 0.86431 0.78163 0.25555 0.0
C2560 C 0.88001 0.78341 0.2451 0.0
C2561 C 0.84911 0.77559 0.28541 0.0
O2562 O 0.80516 0.76566 0.25318 0.0
O2563 O 0.78242 0.78147 0.2464 0.0
O2564 O 0.79296 0.81404 0.27384 0.0
O2565 O 0.81913 0.80506 0.26558 0.0
O2566 O 0.74436 0.77346 0.26279 0.0
O2567 O 0.75458 0.80249 0.27781 0.0
O2568 O 0.77778 0.78521 0.30391 0.0
O2569 O 0.81044 0.79422 0.30685 0.0
O2570 O 0.79721 0.75488 0.2939 0.0
O2571 O 0.76906 0.75315 0.27752 0.0
C2572 C 0.79391 0.77112 0.24112 0.0
O2573 O 0.84482 0.79204 0.28987 0.0
O2574 O 0.834 0.76077 0.28018 0.0
C2575 C 0.80972 0.81828 0.26729 0.0
C2576 C 0.7229 0.78428 0.28082 0.0
C2577 C 0.691 0.77859 0.30182 0.0
C2578 C 0.68964 0.78227 0.28307 0.0
C2579 C 0.70547 0.78514 0.2727 0.0
C2580 C 0.72424 0.7801 0.29938 0.0
C2581 C 0.70845 0.77735 0.3098 0.0
C2582 C 0.73975 0.78874 0.27011 0.0
C2583 C 0.79401 0.79214 0.31406 0.0
H2584 H 0.91084 0.77503 0.27834 0.0
H2585 H 0.88345 0.77214 0.29651 0.0
H2586 H 0.85132 0.78344 0.24913 0.0
H2587 H 0.87884 0.78676 0.23084 0.0
H2588 H 0.67648 0.7835 0.27654 0.0
H2589 H 0.70419 0.78841 0.2584 0.0
H2590 H 0.73756 0.77927 0.30588 0.0
H2591 H 0.70992 0.77428 0.32413 0.0
Tb2592 Tb 0.78001 0.28257 0.80205 0.0
Tb2593 Tb 0.80136 0.27635 0.76476 0.0
C2594 C 0.76201 0.28645 0.76252 0.0
C2595 C 0.77115 0.28834 0.85097 0.0
C2596 C 0.78224 0.28537 0.88807 0.0
C2597 C 0.76416 0.28737 0.88307 0.0
C2598 C 0.75862 0.28873 0.86461 0.0
C2599 C 0.78957 0.28761 0.85599 0.0
C2600 C 0.79506 0.28607 0.87437 0.0
C2601 C 0.7644 0.28649 0.83143 0.0
O2602 O 0.7649 0.25418 0.78727 0.0
O2603 O 0.79061 0.24746 0.77575 0.0
O2604 O 0.8226 0.27834 0.78734 0.0
O2605 O 0.80353 0.27132 0.8115 0.0
O2606 O 0.80209 0.25814 0.74101 0.0
O2607 O 0.82342 0.28655 0.74748 0.0
O2608 O 0.80471 0.3082 0.76995 0.0
O2609 O 0.80416 0.30855 0.80129 0.0
O2610 O 0.76453 0.29293 0.78013 0.0
O2611 O 0.77298 0.27676 0.75498 0.0
C2612 C 0.77344 0.24129 0.78121 0.0
O2613 O 0.7723 0.30139 0.8219 0.0
O2614 O 0.76331 0.2693 0.82272 0.0
C2615 C 0.81999 0.27355 0.80438 0.0
C2616 C 0.81274 0.27727 0.71631 0.0
C2617 C 0.80668 0.28959 0.68099 0.0
C2618 C 0.82447 0.28749 0.68695 0.0
C2619 C 0.82745 0.28132 0.70449 0.0
C2620 C 0.79496 0.27929 0.71037 0.0
C2621 C 0.79192 0.28529 0.69284 0.0
C2622 C 0.8161 0.27168 0.73503 0.0
C2623 C 0.80878 0.31781 0.78642 0.0
H2624 H 0.75406 0.28722 0.89331 0.0
H2625 H 0.74435 0.28932 0.86092 0.0
H2626 H 0.79941 0.28729 0.84558 0.0
H2627 H 0.80899 0.28431 0.87763 0.0
H2628 H 0.83606 0.29065 0.67805 0.0
H2629 H 0.84128 0.27991 0.7089 0.0
H2630 H 0.78348 0.27645 0.71938 0.0
H2631 H 0.77818 0.2871 0.68875 0.0
Tb2632 Tb 0.78705 0.75526 0.76908 0.0
Tb2633 Tb 0.80513 0.8017 0.783 0.0
C2634 C 0.78693 0.78925 0.74189 0.0
C2635 C 0.777 0.70055 0.76578 0.0
C2636 C 0.78997 0.66859 0.77667 0.0
C2637 C 0.78047 0.66743 0.75912 0.0
C2638 C 0.77403 0.68335 0.75371 0.0
C2639 C 0.78564 0.70131 0.7836 0.0
C2640 C 0.79199 0.68545 0.78904 0.0
C2641 C 0.77283 0.71835 0.75927 0.0
O2642 O 0.8181 0.75983 0.76573 0.0
O2643 O 0.82867 0.79408 0.76896 0.0
O2644 O 0.81334 0.78685 0.8063 0.0
O2645 O 0.79451 0.7547 0.79854 0.0
O2646 O 0.82529 0.82915 0.77989 0.0
O2647 O 0.80621 0.82654 0.80137 0.0
O2648 O 0.77597 0.7944 0.79308 0.0
O2649 O 0.76156 0.76494 0.7758 0.0
O2650 O 0.78636 0.77059 0.74401 0.0
O2651 O 0.79044 0.80268 0.75613 0.0
C2652 C 0.83165 0.77673 0.764 0.0
O2653 O 0.76572 0.72834 0.77107 0.0
O2654 O 0.78639 0.73019 0.7512 0.0
C2655 C 0.80544 0.76851 0.81068 0.0
C2656 C 0.81222 0.85576 0.78585 0.0
C2657 C 0.79405 0.88382 0.77441 0.0
C2658 C 0.79929 0.8833 0.79322 0.0
C2659 C 0.80831 0.86936 0.79889 0.0
C2660 C 0.80802 0.85707 0.76697 0.0
C2661 C 0.79909 0.87103 0.7613 0.0
C2662 C 0.81829 0.83879 0.79211 0.0
C2663 C 0.76039 0.77963 0.78772 0.0
H2664 H 0.77865 0.65456 0.74936 0.0
H2665 H 0.76741 0.68258 0.73988 0.0
H2666 H 0.78821 0.71455 0.79305 0.0
H2667 H 0.79955 0.68696 0.80252 0.0
H2668 H 0.79544 0.89285 0.80366 0.0
H2669 H 0.81135 0.86851 0.81351 0.0
H2670 H 0.81088 0.84676 0.75658 0.0
H2671 H 0.79549 0.8713 0.7467 0.0
Tb2672 Tb 0.56437 0.54178 0.53619 0.0
Tb2673 Tb 0.52345 0.51387 0.51664 0.0
C2674 C 0.52654 0.53809 0.5547 0.0
C2675 C 0.61581 0.56117 0.54572 0.0
C2676 C 0.64879 0.55106 0.53695 0.0
C2677 C 0.64349 0.55086 0.5552 0.0
C2678 C 0.62715 0.55593 0.55955 0.0
C2679 C 0.62184 0.56272 0.52776 0.0
C2680 C 0.63821 0.55778 0.52345 0.0
C2681 C 0.59679 0.56253 0.54959 0.0
O2682 O 0.56496 0.51087 0.53794 0.0
O2683 O 0.53286 0.49576 0.53649 0.0
O2684 O 0.54478 0.50491 0.502 0.0
O2685 O 0.56897 0.53407 0.50786 0.0
O2686 O 0.49617 0.49485 0.51942 0.0
O2687 O 0.5059 0.50163 0.49252 0.0
O2688 O 0.52908 0.54267 0.50442 0.0
O2689 O 0.549 0.5626 0.52785 0.0
O2690 O 0.5444 0.53842 0.55727 0.0
O2691 O 0.51704 0.53284 0.53849 0.0
C2692 C 0.55042 0.49555 0.54066 0.0
O2693 O 0.58718 0.5678 0.5362 0.0
O2694 O 0.58624 0.54749 0.55748 0.0
C2695 C 0.56109 0.51689 0.49824 0.0
C2696 C 0.47442 0.50036 0.49731 0.0
C2697 C 0.44222 0.51417 0.49354 0.0
C2698 C 0.44018 0.49371 0.49511 0.0
C2699 C 0.45622 0.48685 0.49697 0.0
C2700 C 0.47644 0.52064 0.49522 0.0
C2701 C 0.46053 0.52746 0.49327 0.0
C2702 C 0.49131 0.49397 0.50181 0.0
C2703 C 0.53759 0.5605 0.51283 0.0
H2704 H 0.65127 0.54562 0.5659 0.0
H2705 H 0.62279 0.55467 0.57349 0.0
H2706 H 0.61349 0.56682 0.51676 0.0
H2707 H 0.64214 0.55842 0.50934 0.0
H2708 H 0.42623 0.48315 0.49535 0.0
H2709 H 0.45444 0.47117 0.49875 0.0
H2710 H 0.49038 0.53136 0.49582 0.0
H2711 H 0.46264 0.54337 0.49252 0.0
Tb2712 Tb 0.0239 0.53214 0.02187 0.0
Tb2713 Tb 0.07013 0.53713 0.02809 0.0
C2714 C 0.04177 0.51958 0.0567 0.0
C2715 C 0.9767 0.54342 0.02009 0.0
C2716 C 0.95132 0.56703 0.02332 0.0
C2717 C 0.94472 0.54599 0.02286 0.0
C2718 C 0.95726 0.53435 0.02122 0.0
C2719 C 0.98353 0.56443 0.02121 0.0
C2720 C 0.97097 0.5761 0.02279 0.0
C2721 C 0.98924 0.53071 0.01625 0.0
O2722 O 0.03774 0.56401 0.02821 0.0
O2723 O 0.06586 0.56332 0.04335 0.0
O2724 O 0.0652 0.55404 0.00534 0.0
O2725 O 0.03641 0.53228 0.99564 0.0
O2726 O 0.09473 0.54085 0.04576 0.0
O2727 O 0.09574 0.53895 0.01611 0.0
O2728 O 0.05771 0.50817 0.01235 0.0
O2729 O 0.02574 0.5016 0.0169 0.0
O2730 O 0.03101 0.53045 0.05106 0.0
O2731 O 0.05539 0.51678 0.0471 0.0
C2732 C 0.05318 0.57271 0.03909 0.0
O2733 O 1.00214 0.53722 0.00483 0.0
O2734 O 0.99593 0.52327 0.03021 0.0
C2735 C 0.05179 0.54605 0.99226 0.0
C2736 C 0.11692 0.52585 0.0332 0.0
C2737 C 0.14004 0.49971 0.03373 0.0
C2738 C 0.14758 0.51988 0.03015 0.0
C2739 C 0.13615 0.53278 0.0299 0.0
C2740 C 0.10926 0.50577 0.03689 0.0
C2741 C 0.12074 0.49284 0.03725 0.0
C2742 C 0.10509 0.53965 0.03203 0.0
C2743 C 0.04036 0.49579 0.01173 0.0
H2744 H 0.92978 0.53844 0.02361 0.0
H2745 H 0.95169 0.51818 0.0204 0.0
H2746 H 0.99848 0.57179 0.02033 0.0
H2747 H 0.9766 0.59221 0.02296 0.0
H2748 H 0.1624 0.52576 0.02763 0.0
H2749 H 0.14232 0.5482 0.02699 0.0
H2750 H 0.09438 0.50007 0.03931 0.0
H2751 H 0.11443 0.47737 0.03989 0.0
H2752 H 0.99077 0.15335 0.96683 0.0
H2753 H 0.04901 0.18551 0.98468 0.0
H2754 H 0.99517 0.12331 0.97954 0.0
H2755 H 0.05363 0.15538 0.99658 0.0
H2756 H 0.05175 0.10429 0.03247 0.0
H2757 H 0.04579 0.13393 0.02077 0.0
H2758 H 1.01052 0.09743 0.97468 0.0
H2759 H 0.01614 0.06757 0.98669 0.0
C2760 C 1.0045 0.15409 0.97351 0.0
C2761 C 0.01952 0.17199 0.97465 0.0
C2762 C 1.0071 0.13673 0.98061 0.0
C2763 C 0.02478 0.13676 0.98912 0.0
C2764 C 0.03973 0.15471 0.99036 0.0
C2765 C 0.03714 0.17202 0.98328 0.0
C2766 C 0.04268 0.10249 0.01985 0.0
C2767 C 0.03451 0.08342 0.01053 0.0
C2768 C 0.03934 0.1196 0.01304 0.0
C2769 C 0.02776 0.11825 0.99665 0.0
C2770 C 0.01937 0.09913 0.98743 0.0
C2771 C 0.0227 0.08196 0.99427 0.0
H2772 H 0.18009 0.83547 0.20249 0.0
H2773 H 0.16948 0.77364 0.18179 0.0
H2774 H 0.20782 0.83338 0.22147 0.0
H2775 H 0.19742 0.77187 0.20029 0.0
H2776 H 0.25973 0.78243 0.22044 0.0
H2777 H 0.23259 0.78602 0.20169 0.0
H2778 H 0.21594 0.81593 0.24865 0.0
H2779 H 0.24317 0.81239 0.26752 0.0
C2780 C 0.18354 0.8214 0.202 0.0
C2781 C 0.17246 0.80477 0.19041 0.0
C2782 C 0.19951 0.82025 0.21287 0.0
C2783 C 0.20493 0.80251 0.21231 0.0
C2784 C 0.19386 0.78589 0.20081 0.0
C2785 C 0.17782 0.78696 0.19011 0.0
C2786 C 0.25038 0.78988 0.22681 0.0
C2787 C 0.25368 0.79706 0.24557 0.0
C2788 C 0.23472 0.79183 0.21605 0.0
C2789 C 0.22201 0.80117 0.22368 0.0
C2790 C 0.22551 0.80877 0.24231 0.0
C2791 C 0.24109 0.80664 0.25315 0.0
H2792 H 0.55423 0.87623 0.48042 0.0
H2793 H 0.49333 0.86399 0.47406 0.0
H2794 H 0.55746 0.91087 0.49099 0.0
H2795 H 0.49648 0.89881 0.48411 0.0
H2796 H 0.50759 0.95932 0.51763 0.0
H2797 H 0.50392 0.92409 0.50875 0.0
H2798 H 0.5553 0.94109 0.48036 0.0
H2799 H 0.55929 0.97605 0.48982 0.0
C2800 C 0.54151 0.88097 0.48119 0.0
C2801 C 0.52353 0.86729 0.47635 0.0
C2802 C 0.54335 0.90093 0.48718 0.0
C2803 C 0.52725 0.9079 0.4883 0.0
C2804 C 0.50922 0.89408 0.48371 0.0
C2805 C 0.50739 0.87405 0.4779 0.0
C2806 C 0.51808 0.95553 0.50947 0.0
C2807 C 0.53375 0.97062 0.5045 0.0
C2808 C 0.51594 0.93527 0.50428 0.0
C2809 C 0.52935 0.92953 0.49386 0.0
C2810 C 0.54487 0.94472 0.48871 0.0
C2811 C 0.54708 0.9649 0.49402 0.0
H2812 H 0.50602 0.31691 0.70518 0.0
H2813 H 0.47777 0.25763 0.67954 0.0
H2814 H 0.47854 0.31569 0.7227 0.0
H2815 H 0.45056 0.25615 0.6975 0.0
H2816 H 0.3972 0.26874 0.71778 0.0
H2817 H 0.42453 0.27109 0.69977 0.0
H2818 H 0.46219 0.29865 0.74788 0.0
H2819 H 0.43485 0.29687 0.76574 0.0
C2820 C 0.49394 0.30362 0.70326 0.0
C2821 C 0.49413 0.28737 0.69092 0.0
C2822 C 0.47826 0.30284 0.71345 0.0
C2823 C 0.46231 0.28583 0.71152 0.0
C2824 C 0.4625 0.26958 0.69919 0.0
C2825 C 0.47821 0.27033 0.68904 0.0
C2826 C 0.4113 0.27554 0.72446 0.0
C2827 C 0.4138 0.28262 0.74323 0.0
C2828 C 0.42699 0.27666 0.71419 0.0
C2829 C 0.44559 0.28497 0.72238 0.0
C2830 C 0.44808 0.2923 0.74108 0.0
C2831 C 0.4324 0.2911 0.75138 0.0
H2832 H 0.05209 0.87257 0.57741 0.0
H2833 H 0.04243 0.90236 0.62799 0.0
H2834 H 0.05226 0.90198 0.56137 0.0
H2835 H 0.04376 0.93212 0.61222 0.0
H2836 H 0.03471 0.98289 0.57862 0.0
H2837 H 0.03391 0.95308 0.59456 0.0
H2838 H 0.06323 0.93275 0.55125 0.0
H2839 H 0.06334 0.96235 0.5351 0.0
C2840 C 0.04998 0.88521 0.58539 0.0
C2841 C 0.0472 0.88411 0.60451 0.0
C2842 C 0.05036 0.90267 0.57598 0.0
C2843 C 0.04809 0.9204 0.58499 0.0
C2844 C 0.04537 0.9193 0.60412 0.0
C2845 C 0.04487 0.90182 0.6135 0.0
C2846 C 0.04107 0.97215 0.57239 0.0
C2847 C 0.04913 0.97566 0.55526 0.0
C2848 C 0.04072 0.9547 0.58176 0.0
C2849 C 0.04851 0.93957 0.5747 0.0
C2850 C 0.05669 0.94324 0.55755 0.0
C2851 C 0.05692 0.96066 0.54813 0.0
H2852 H 0.45485 0.7814 0.8113 0.0
H2853 H 0.42958 0.75893 0.86047 0.0
H2854 H 0.42409 0.78284 0.79842 0.0
H2855 H 0.39883 0.76035 0.84757 0.0
H2856 H 0.33996 0.75167 0.81608 0.0
H2857 H 0.37082 0.74991 0.82891 0.0
H2858 H 0.39882 0.79588 0.79477 0.0
H2859 H 0.36792 0.79726 0.78177 0.0
C2860 C 0.44294 0.77687 0.81966 0.0
C2861 C 0.44564 0.77 0.83731 0.0
C2862 C 0.42484 0.77772 0.81208 0.0
C2863 C 0.40806 0.77176 0.82157 0.0
C2864 C 0.41075 0.76487 0.83921 0.0
C2865 C 0.42885 0.76403 0.8468 0.0
C2866 C 0.35263 0.7615 0.81123 0.0
C2867 C 0.35079 0.77467 0.79764 0.0
C2868 C 0.37072 0.76057 0.8188 0.0
C2869 C 0.38822 0.77274 0.81327 0.0
C2870 C 0.38628 0.78588 0.79961 0.0
C2871 C 0.36819 0.78681 0.79207 0.0
H2872 H 0.52645 0.16007 0.12032 0.0
H2873 H 0.55626 0.19301 0.0777 0.0
H2874 H 0.52762 0.12874 0.10423 0.0
H2875 H 0.55773 0.16175 0.0618 0.0
H2876 H 0.54377 0.10028 0.02743 0.0
H2877 H 0.54212 0.13151 0.04344 0.0
H2878 H 0.5456 0.10654 0.09574 0.0
H2879 H 0.54719 0.07531 0.07966 0.0
C2880 C 0.53323 0.16084 0.10748 0.0
C2881 C 0.54123 0.17973 0.10064 0.0
C2882 C 0.5341 0.14259 0.0982 0.0
C2883 C 0.54281 0.14207 0.08138 0.0
C2884 C 0.55068 0.16094 0.07447 0.0
C2885 C 0.55 0.1792 0.08386 0.0
C2886 C 0.54418 0.10131 0.04236 0.0
C2887 C 0.54565 0.08475 0.05197 0.0
C2888 C 0.54335 0.11954 0.0517 0.0
C2889 C 0.54372 0.12221 0.07122 0.0
C2890 C 0.54503 0.10553 0.08081 0.0
C2891 C 0.54608 0.08738 0.07147 0.0
H2892 H 0.1404 0.24434 0.32485 0.0
H2893 H 0.16465 0.30543 0.34716 0.0
H2894 H 0.17008 0.24495 0.31161 0.0
H2895 H 0.19425 0.30624 0.33376 0.0
H2896 H 0.25261 0.30347 0.31538 0.0
H2897 H 0.22286 0.3028 0.32867 0.0
H2898 H 0.1942 0.24961 0.2933 0.0
H2899 H 0.22423 0.25012 0.28054 0.0
C2900 C 0.15187 0.25813 0.32693 0.0
C2901 C 0.14921 0.27479 0.33752 0.0
C2902 C 0.1694 0.25853 0.31911 0.0
C2903 C 0.18567 0.27567 0.32113 0.0
C2904 C 0.18291 0.29236 0.33166 0.0
C2905 C 0.16542 0.29192 0.33958 0.0
C2906 C 0.24002 0.29156 0.3103 0.0
C2907 C 0.24156 0.27689 0.29654 0.0
C2908 C 0.22246 0.29117 0.31803 0.0
C2909 C 0.20502 0.27613 0.31253 0.0
C2910 C 0.20665 0.26152 0.29862 0.0
C2911 C 0.22426 0.26186 0.29097 0.0
H2912 H 0.95403 0.06263 0.14319 0.0
H2913 H 1.00687 0.06028 0.1705 0.0
H2914 H 0.96802 0.06357 0.11343 0.0
H2915 H 0.02052 0.06032 0.14103 0.0
H2916 H 0.04578 0.06961 0.08821 0.0
H2917 H 0.03154 0.07847 0.11555 0.0
H2918 H 0.97691 0.03931 0.09347 0.0
H2919 H 0.99109 0.03115 0.06568 0.0
C2920 C 0.9687 0.06265 0.14283 0.0
C2921 C 0.97932 0.06112 0.15904 0.0
C2922 C 0.97665 0.06298 0.12582 0.0
C2923 C 0.99533 0.06186 0.12483 0.0
C2924 C 1.00618 0.06144 0.14125 0.0
C2925 C 0.99829 0.06116 0.15815 0.0
C2926 C 0.03069 0.06304 0.08913 0.0
C2927 C 0.01959 0.04939 0.07502 0.0
C2928 C 0.02253 0.06811 0.10479 0.0
C2929 C 1.00315 0.05936 0.10683 0.0
C2930 C 0.99184 0.04647 0.09227 0.0
C2931 C 0.99998 0.04163 0.07643 0.0
H2932 H 0.28103 0.72346 0.4786 0.0
H2933 H 0.34109 0.73661 0.47199 0.0
H2934 H 0.27781 0.74452 0.45404 0.0
H2935 H 0.33805 0.75849 0.44782 0.0
H2936 H 0.31591 0.76416 0.38754 0.0
H2937 H 0.32403 0.75178 0.41638 0.0
H2938 H 0.28499 0.7777 0.44361 0.0
H2939 H 0.27669 0.78995 0.4145 0.0
C2940 C 0.2936 0.73107 0.47202 0.0
C2941 C 0.31124 0.7281 0.47696 0.0
C2942 C 0.29181 0.7434 0.45812 0.0
C2943 C 0.30766 0.75312 0.44889 0.0
C2944 C 0.32553 0.751 0.45452 0.0
C2945 C 0.3273 0.73861 0.46845 0.0
C2946 C 0.30943 0.7677 0.39978 0.0
C2947 C 0.29555 0.7779 0.39873 0.0
C2948 C 0.31411 0.76062 0.41636 0.0
C2949 C 0.30505 0.76362 0.43228 0.0
C2950 C 0.29198 0.77485 0.43149 0.0
C2951 C 0.28723 0.78187 0.41486 0.0
H2952 H 0.57017 0.97891 0.66155 0.0
H2953 H 0.59169 0.04343 0.66342 0.0
H2954 H 0.55198 0.97861 0.63232 0.0
H2955 H 0.5732 0.04308 0.63458 0.0
H2956 H 0.55703 0.99154 0.56917 0.0
H2957 H 0.56469 0.98748 0.60138 0.0
H2958 H 0.53993 0.03416 0.61834 0.0
H2959 H 0.53218 0.03825 0.58592 0.0
C2960 C 0.57089 0.99301 0.65583 0.0
C2961 C 0.58255 0.01117 0.66467 0.0
C2962 C 0.56036 0.99283 0.63922 0.0
C2963 C 0.56119 0.01081 0.63128 0.0
C2964 C 0.57206 0.02903 0.64059 0.0
C2965 C 0.58269 0.02921 0.65708 0.0
C2966 C 0.55287 1.00066 0.57978 0.0
C2967 C 0.54429 0.01541 0.57512 0.0
C2968 C 0.55709 0.9982 0.59821 0.0
C2969 C 0.55299 0.01061 0.61228 0.0
C2970 C 0.54331 0.02451 0.60767 0.0
C2971 C 0.53885 0.02679 0.58918 0.0
H2972 H 0.2621 0.31907 0.92597 0.0
H2973 H 0.32012 0.31797 0.93595 0.0
H2974 H 0.26303 0.3099 0.89332 0.0
H2975 H 0.3214 0.30996 0.90316 0.0
H2976 H 0.3135 0.27826 0.84504 0.0
H2977 H 0.31192 0.28565 0.87801 0.0
H2978 H 0.2748 0.32189 0.86568 0.0
H2979 H 0.27592 0.31396 0.83281 0.0
C2980 C 0.27507 0.3168 0.92132 0.0
C2981 C 0.29103 0.31936 0.93392 0.0
C2982 C 0.27571 0.31181 0.90238 0.0
C2983 C 0.29235 0.30925 0.89526 0.0
C2984 C 0.30822 0.31156 0.9079 0.0
C2985 C 0.30756 0.31647 0.92685 0.0
C2986 C 0.305 0.28783 0.84933 0.0
C2987 C 0.29487 0.29548 0.83606 0.0
C2988 C 0.30416 0.29219 0.86836 0.0
C2989 C 0.29321 0.30443 0.87482 0.0
C2990 C 0.28315 0.31214 0.86149 0.0
C2991 C 0.28393 0.3077 0.84248 0.0
H2992 H 0.02226 0.01095 0.30673 0.0
H2993 H 0.02023 0.06623 0.33522 0.0
H2994 H 0.04271 1.0057 0.33237 0.0
H2995 H 0.04028 0.06084 0.36106 0.0
H2996 H 0.07808 0.04843 0.40569 0.0
H2997 H 0.06988 0.05663 0.37471 0.0
H2998 H 0.0335 0.99609 0.36247 0.0
H2999 H 0.04145 0.98802 0.39312 0.0
C3000 C 0.02651 0.02214 0.31837 0.0
C3001 C 0.01948 0.03882 0.3192 0.0
C3002 C 0.03817 0.01915 0.33303 0.0
C3003 C 0.04285 0.03267 0.34888 0.0
C3004 C 0.03708 0.05021 0.349 0.0
C3005 C 0.02553 0.05328 0.33424 0.0
C3006 C 0.06857 0.03682 0.39624 0.0
C3007 C 0.0603 0.01762 0.40196 0.0
C3008 C 0.06391 0.04151 0.37851 0.0
C3009 C 0.05095 0.02706 0.36617 0.0
C3010 C 0.04377 0.00752 0.37148 0.0
C3011 C 0.04836 1.00286 0.38915 0.0
H3012 H 0.31196 0.67439 0.65569 0.0
H3013 H 0.34242 0.73165 0.63787 0.0
H3014 H 0.30945 0.69047 0.68578 0.0
H3015 H 0.34059 0.74776 0.66814 0.0
H3016 H 0.30708 0.77169 0.71009 0.0
H3017 H 0.31522 0.7555 0.68266 0.0
H3018 H 0.32422 0.70836 0.71451 0.0
H3019 H 0.3154 0.72431 0.74201 0.0
C3020 C 0.31861 0.69034 0.65846 0.0
C3021 C 0.32721 0.70186 0.6445 0.0
C3022 C 0.31721 0.69958 0.67568 0.0
C3023 C 0.32455 0.72047 0.67927 0.0
C3024 C 0.33435 0.73172 0.66566 0.0
C3025 C 0.33553 0.72252 0.6484 0.0
C3026 C 0.31087 0.75792 0.71131 0.0
C3027 C 0.31051 0.74924 0.72821 0.0
C3028 C 0.31573 0.74871 0.69558 0.0
C3029 C 0.32053 0.73069 0.69639 0.0
C3030 C 0.32043 0.72213 0.71338 0.0
C3031 C 0.31542 0.7313 0.72913 0.0
H3032 H 0.59137 0.98086 0.84333 0.0
H3033 H 0.54659 0.98573 0.80423 0.0
H3034 H 0.57129 0.98188 0.86827 0.0
H3035 H 0.52716 0.98841 0.82977 0.0
H3036 H 0.5298 0.97856 0.91007 0.0
H3037 H 0.53575 0.96432 0.88033 0.0
H3038 H 0.54 0.02049 0.85701 0.0
H3039 H 0.53523 0.0352 0.88682 0.0
C3040 C 0.5771 0.98153 0.83986 0.0
C3041 C 0.57086 0.9836 0.82165 0.0
C3042 C 0.5656 0.98218 0.85426 0.0
C3043 C 0.54779 0.9853 0.85085 0.0
C3044 C 0.5409 0.98602 0.83264 0.0
C3045 C 0.5522 0.98479 0.81811 0.0
C3046 C 0.53167 0.9878 0.89853 0.0
C3047 C 0.53268 0.00823 0.901 0.0
C3048 C 0.53482 0.97953 0.8815 0.0
C3049 C 0.53844 0.9914 0.86656 0.0
C3050 C 0.53707 0.01103 0.86836 0.0
C3051 C 0.53433 0.01944 0.88548 0.0
H3052 H 0.3027 0.30288 0.12596 0.0
H3053 H 0.27055 0.34382 0.13991 0.0
H3054 H 0.30245 0.29339 0.15764 0.0
H3055 H 0.26992 0.33396 0.17156 0.0
H3056 H 0.29004 0.32547 0.23197 0.0
H3057 H 0.28952 0.33597 0.20047 0.0
H3058 H 0.28132 0.27501 0.17868 0.0
H3059 H 0.28196 0.2646 0.20987 0.0
C3060 C 0.29559 0.30993 0.13575 0.0
C3061 C 0.2866 0.32413 0.13013 0.0
C3062 C 0.29527 0.30431 0.15398 0.0
C3063 C 0.28607 0.31277 0.16735 0.0
C3064 C 0.27726 0.32714 0.16181 0.0
C3065 C 0.27744 0.33265 0.14351 0.0
C3066 C 0.28794 0.31427 0.22047 0.0
C3067 C 0.28606 0.29414 0.22369 0.0
C3068 C 0.28762 0.32029 0.20232 0.0
C3069 C 0.28557 0.30642 0.18683 0.0
C3070 C 0.2833 0.28627 0.19012 0.0
C3071 C 0.2835 0.28025 0.20816 0.0
H3072 H 0.24638 0.0113 0.01425 0.0
H3073 H 0.19607 0.9605 0.00765 0.0
H3074 H 0.22684 0.03348 0.0211 0.0
H3075 H 0.17663 0.98256 0.0148 0.0
H3076 H 0.14583 0.02915 0.00837 0.0
H3077 H 0.1672 0.00983 0.99989 0.0
H3078 H 0.2064 0.03927 0.04643 0.0
H3079 H 0.18513 0.05913 0.05474 0.0
C3080 C 0.23114 1.00493 0.01419 0.0
C3081 C 0.22269 0.98423 0.01038 0.0
C3082 C 0.22002 0.01757 0.01825 0.0
C3083 C 0.20026 0.00972 0.01839 0.0
C3084 C 0.19183 0.98902 0.01456 0.0
C3085 C 0.20294 0.97639 0.01065 0.0
C3086 C 0.1592 0.03187 0.01657 0.0
C3087 C 0.16385 0.0457 0.03221 0.0
C3088 C 0.17131 0.02061 0.01183 0.0
C3089 C 0.18832 0.02294 0.02261 0.0
C3090 C 0.19337 0.03727 0.03786 0.0
C3091 C 0.18117 0.04851 0.04267 0.0
H3092 H 0.70034 0.6259 0.05512 0.0
H3093 H 0.69145 0.61715 0.99575 0.0
H3094 H 0.66916 0.60235 0.05773 0.0
H3095 H 0.65998 0.5944 0.99816 0.0
H3096 H 0.61046 0.54207 0.00554 0.0
H3097 H 0.64303 0.56289 0.00519 0.0
H3098 H 0.63644 0.59745 0.05443 0.0
H3099 H 0.60407 0.57573 0.05524 0.0
C3100 C 0.69161 0.61904 0.04262 0.0
C3101 C 0.69835 0.62332 0.02523 0.0
C3102 C 0.67366 0.60558 0.04409 0.0
C3103 C 0.66187 0.59628 0.02818 0.0
C3104 C 0.66869 0.60076 0.01078 0.0
C3105 C 0.68674 0.61394 0.00934 0.0
C3106 C 0.61607 0.55396 0.01643 0.0
C3107 C 0.60467 0.55729 0.03039 0.0
C3108 C 0.63474 0.5661 0.01614 0.0
C3109 C 0.64246 0.58223 0.02957 0.0
C3110 C 0.63119 0.58512 0.04391 0.0
C3111 C 0.61256 0.57269 0.04439 0.0
H3112 H 0.72198 0.45819 0.25311 0.0
H3113 H 0.75174 0.46383 0.30704 0.0
H3114 H 0.74244 0.43954 0.24068 0.0
H3115 H 0.7714 0.44418 0.29489 0.0
H3116 H 0.8117 0.41741 0.26861 0.0
H3117 H 0.796 0.44311 0.27512 0.0
H3118 H 0.74536 0.40664 0.24306 0.0
H3119 H 0.7614 0.38154 0.23573 0.0
C3120 C 0.73298 0.45559 0.26229 0.0
C3121 C 0.73514 0.46237 0.28111 0.0
C3122 C 0.74459 0.44474 0.25519 0.0
C3123 C 0.75852 0.44031 0.26679 0.0
C3124 C 0.76099 0.44755 0.2855 0.0
C3125 C 0.74949 0.45852 0.29255 0.0
C3126 C 0.79744 0.4152 0.26244 0.0
C3127 C 0.78768 0.39732 0.25187 0.0
C3128 C 0.78835 0.4298 0.26638 0.0
C3129 C 0.76931 0.42675 0.25991 0.0
C3130 C 0.76005 0.40953 0.24823 0.0
C3131 C 0.76917 0.39501 0.24419 0.0
H3132 H 0.8863 0.49905 0.52041 0.0
H3133 H 0.89556 0.44105 0.52372 0.0
H3134 H 0.92054 0.51509 0.52618 0.0
H3135 H 0.9297 0.45704 0.52949 0.0
H3136 H 0.98891 0.49409 0.55314 0.0
H3137 H 0.9543 0.48148 0.55343 0.0
H3138 H 0.94765 0.51361 0.50592 0.0
H3139 H 0.98201 0.52603 0.50549 0.0
C3140 C 0.89566 0.4898 0.52258 0.0
C3141 C 0.88842 0.46885 0.52145 0.0
C3142 C 0.91517 0.49893 0.52585 0.0
C3143 C 0.92766 0.48726 0.52831 0.0
C3144 C 0.92033 0.46636 0.52783 0.0
C3145 C 0.90087 0.45722 0.52432 0.0
C3146 C 0.98002 0.49866 0.54295 0.0
C3147 C 0.98808 0.51084 0.52917 0.0
C3148 C 0.96028 0.49141 0.54308 0.0
C3149 C 0.9484 0.49658 0.52967 0.0
C3150 C 0.95651 0.50954 0.51649 0.0
C3151 C 0.97616 0.5165 0.51617 0.0
H3152 H 0.34597 0.08571 0.2825 0.0
H3153 H 0.35588 0.10781 0.34007 0.0
H3154 H 0.32055 0.10124 0.27878 0.0
H3155 H 0.32975 0.12258 0.33656 0.0
H3156 H 0.3088 0.17336 0.31177 0.0
H3157 H 0.32703 0.15136 0.32136 0.0
H3158 H 0.28929 0.10251 0.28599 0.0
H3159 H 0.27096 0.12476 0.27622 0.0
C3160 C 0.34255 0.09368 0.29442 0.0
C3161 C 0.35317 0.09586 0.31149 0.0
C3162 C 0.32775 0.10231 0.29237 0.0
C3163 C 0.32316 0.11324 0.30736 0.0
C3164 C 0.33309 0.11445 0.3247 0.0
C3165 C 0.34796 0.10586 0.32674 0.0
C3166 C 0.30394 0.15776 0.30649 0.0
C3167 C 0.28851 0.15084 0.29311 0.0
C3168 C 0.31444 0.14511 0.31201 0.0
C3169 C 0.30975 0.12522 0.30428 0.0
C3170 C 0.29346 0.11787 0.29193 0.0
C3171 C 0.28295 0.13058 0.28637 0.0
H3172 H 0.39588 0.16063 0.53827 0.0
H3173 H 0.35022 0.10775 0.51913 0.0
H3174 H 0.41805 0.1405 0.53941 0.0
H3175 H 0.37245 0.08779 0.5197 0.0
H3176 H 0.4131 0.05405 0.54044 0.0
H3177 H 0.39151 0.07472 0.54111 0.0
H3178 H 0.43349 0.12225 0.51885 0.0
H3179 H 0.45508 0.10153 0.51806 0.0
C3180 C 0.39054 0.14471 0.53436 0.0
C3181 C 0.37122 0.13586 0.52859 0.0
C3182 C 0.40331 0.13319 0.53483 0.0
C3183 C 0.39709 0.11248 0.52965 0.0
C3184 C 0.37775 0.10363 0.52399 0.0
C3185 C 0.36501 0.11515 0.52344 0.0
C3186 C 0.41774 0.06887 0.53559 0.0
C3187 C 0.43587 0.07602 0.5291 0.0
C3188 C 0.40532 0.08075 0.53598 0.0
C3189 C 0.41067 0.10015 0.52994 0.0
C3190 C 0.42895 0.10749 0.52382 0.0
C3191 C 0.44137 0.09558 0.52339 0.0
H3192 H 0.74606 0.61979 0.30457 0.0
H3193 H 0.71159 0.64348 0.34062 0.0
H3194 H 0.76193 0.65348 0.29679 0.0
H3195 H 0.72707 0.67719 0.33209 0.0
H3196 H 0.7418 0.72641 0.28964 0.0
H3197 H 0.72751 0.69367 0.30082 0.0
H3198 H 0.78331 0.68705 0.31318 0.0
H3199 H 0.79769 0.71985 0.30215 0.0
C3200 C 0.74208 0.63217 0.31113 0.0
C3201 C 0.72757 0.6289 0.32332 0.0
C3202 C 0.75112 0.65145 0.30655 0.0
C3203 C 0.74565 0.66782 0.31382 0.0
C3204 C 0.73138 0.66471 0.32619 0.0
C3205 C 0.72251 0.64543 0.331 0.0
C3206 C 0.75102 0.71796 0.29472 0.0
C3207 C 0.77085 0.72561 0.29494 0.0
C3208 C 0.74284 0.69935 0.30126 0.0
C3209 C 0.75435 0.68796 0.30787 0.0
C3210 C 0.77417 0.69558 0.30809 0.0
C3211 C 0.78236 0.71432 0.30182 0.0
H3212 H 0.87869 0.43364 0.83304 0.0
H3213 H 0.87136 0.44267 0.77531 0.0
H3214 H 0.85852 0.39924 0.82719 0.0
H3215 H 0.85046 0.40851 0.76942 0.0
H3216 H 0.83176 0.33979 0.76243 0.0
H3217 H 0.85074 0.3748 0.76745 0.0
H3218 H 0.82716 0.37945 0.82001 0.0
H3219 H 0.80903 0.34435 0.81534 0.0
C3220 C 0.87249 0.42828 0.81914 0.0
C3221 C 0.87658 0.44068 0.80462 0.0
C3222 C 0.86086 0.40861 0.81576 0.0
C3223 C 0.85279 0.40104 0.79781 0.0
C3224 C 0.85668 0.41367 0.78334 0.0
C3225 C 0.86856 0.43325 0.7867 0.0
C3226 C 0.83061 0.34839 0.77499 0.0
C3227 C 0.81909 0.33934 0.78857 0.0
C3228 C 0.8414 0.36848 0.77785 0.0
C3229 C 0.84063 0.37997 0.79424 0.0
C3230 C 0.82852 0.37098 0.80746 0.0
C3231 C 0.81801 0.35087 0.80473 0.0
H3232 H 0.0918 0.8959 0.0653 0.0
H3233 H 0.05186 0.89731 0.10613 0.0
H3234 H 0.0876 0.92671 0.05408 0.0
H3235 H 0.04751 0.92779 0.09473 0.0
H3236 H 0.02776 0.96846 0.0562 0.0
H3237 H 0.03334 0.93856 0.06777 0.0
H3238 H 0.09339 0.96289 0.06233 0.0
H3239 H 0.08777 0.99292 0.05053 0.0
C3240 C 0.08224 0.90279 0.07202 0.0
C3241 C 0.07205 0.89382 0.08658 0.0
C3242 C 0.07982 0.92051 0.06554 0.0
C3243 C 0.06709 0.92975 0.07337 0.0
C3244 C 0.05714 0.92094 0.08808 0.0
C3245 C 0.05962 0.90334 0.0946 0.0
C3246 C 0.04219 0.96754 0.05747 0.0
C3247 C 0.0573 0.98324 0.05242 0.0
C3248 C 0.04541 0.95036 0.06424 0.0
C3249 C 0.06384 0.94823 0.06609 0.0
C3250 C 0.07898 0.96388 0.06096 0.0
C3251 C 0.07577 0.98119 0.05429 0.0
H3252 H 0.93235 0.29042 0.858 0.0
H3253 H 0.89918 0.23645 0.87969 0.0
H3254 H 0.90423 0.2926 0.84001 0.0
H3255 H 0.87097 0.23838 0.86123 0.0
H3256 H 0.8211 0.26247 0.84008 0.0
H3257 H 0.84856 0.25914 0.85882 0.0
H3258 H 0.8834 0.27506 0.8133 0.0
H3259 H 0.85625 0.27859 0.79473 0.0
C3260 C 0.91903 0.27901 0.85898 0.0
C3261 C 0.91807 0.26328 0.87037 0.0
C3262 C 0.90291 0.28016 0.84849 0.0
C3263 C 0.8853 0.26564 0.84909 0.0
C3264 C 0.88426 0.24991 0.86053 0.0
C3265 C 0.90048 0.24868 0.87097 0.0
C3266 C 0.83461 0.26522 0.83405 0.0
C3267 C 0.83639 0.27088 0.81586 0.0
C3268 C 0.85034 0.2632 0.84478 0.0
C3269 C 0.86825 0.26693 0.83762 0.0
C3270 C 0.86992 0.27236 0.81939 0.0
C3271 C 0.85425 0.27428 0.80868 0.0
H3272 H 0.5963 0.19558 0.57913 0.0
H3273 H 0.53551 0.18435 0.57676 0.0
H3274 H 0.59211 0.16145 0.56617 0.0
H3275 H 0.5312 0.15003 0.56436 0.0
H3276 H 0.52847 0.09475 0.5271 0.0
H3277 H 0.53336 0.12933 0.53873 0.0
H3278 H 0.58315 0.12765 0.5723 0.0
H3279 H 0.57863 0.09321 0.56002 0.0
C3280 C 0.58201 0.18576 0.57594 0.0
C3281 C 0.56625 0.19277 0.57896 0.0
C3282 C 0.57958 0.16608 0.56857 0.0
C3283 C 0.56129 0.15272 0.56418 0.0
C3284 C 0.54553 0.15983 0.56718 0.0
C3285 C 0.54798 0.17957 0.57436 0.0
C3286 C 0.54051 0.10174 0.53694 0.0
C3287 C 0.55315 0.09109 0.54259 0.0
C3288 C 0.54325 0.12164 0.54375 0.0
C3289 C 0.55863 0.13151 0.5566 0.0
C3290 C 0.57131 0.12082 0.56222 0.0
C3291 C 0.56866 0.10094 0.55525 0.0
H3292 H 0.61407 0.76951 0.38982 0.0
H3293 H 0.57978 0.77231 0.34041 0.0
H3294 H 0.64091 0.77065 0.37158 0.0
H3295 H 0.60696 0.77457 0.32229 0.0
H3296 H 0.65369 0.75793 0.29224 0.0
H3297 H 0.62652 0.75543 0.31052 0.0
H3298 H 0.66369 0.79286 0.35506 0.0
H3299 H 0.69082 0.79505 0.33688 0.0
C3300 C 0.61221 0.77034 0.37506 0.0
C3301 C 0.59466 0.77075 0.36663 0.0
C3302 C 0.62773 0.77127 0.3646 0.0
C3303 C 0.62619 0.77275 0.34542 0.0
C3304 C 0.60865 0.77319 0.33698 0.0
C3305 C 0.5931 0.77218 0.34744 0.0
C3306 C 0.65603 0.76566 0.30592 0.0
C3307 C 0.67444 0.77665 0.3131 0.0
C3308 C 0.64044 0.76428 0.3164 0.0
C3309 C 0.64284 0.77396 0.3343 0.0
C3310 C 0.66129 0.78491 0.34148 0.0
C3311 C 0.67688 0.78619 0.33104 0.0
H3312 H 0.05513 0.18528 0.47336 0.0
H3313 H 0.03519 0.14862 0.42226 0.0
H3314 H 0.05506 0.15575 0.489 0.0
H3315 H 0.03401 0.1189 0.43818 0.0
H3316 H 0.04322 0.06516 0.46779 0.0
H3317 H 0.04398 0.09487 0.4515 0.0
H3318 H 0.04369 0.12797 0.50349 0.0
H3319 H 0.04365 0.09849 0.51959 0.0
C3320 C 0.05068 0.17107 0.46518 0.0
C3321 C 0.04523 0.17032 0.44602 0.0
C3322 C 0.05035 0.15358 0.47448 0.0
C3323 C 0.04442 0.13395 0.46538 0.0
C3324 C 0.03894 0.13318 0.44623 0.0
C3325 C 0.03937 0.1507 0.43689 0.0
C3326 C 0.0433 0.07874 0.47585 0.0
C3327 C 0.04336 0.07882 0.49533 0.0
C3328 C 0.04365 0.09615 0.46634 0.0
C3329 C 0.04396 0.11478 0.47569 0.0
C3330 C 0.04385 0.11465 0.49522 0.0
C3331 C 0.04365 0.09731 0.50469 0.0
H3332 H 0.63754 0.28047 0.24026 0.0
H3333 H 0.66054 0.28988 0.18742 0.0
H3334 H 0.66835 0.27919 0.25364 0.0
H3335 H 0.69117 0.28822 0.20069 0.0
H3336 H 0.75096 0.30006 0.23187 0.0
H3337 H 0.72019 0.30192 0.21871 0.0
H3338 H 0.69198 0.26275 0.25829 0.0
H3339 H 0.72277 0.261 0.27141 0.0
C3340 C 0.64903 0.28236 0.23131 0.0
C3341 C 0.64573 0.28528 0.2124 0.0
C3342 C 0.66703 0.28139 0.2391 0.0
C3343 C 0.68306 0.28353 0.22859 0.0
C3344 C 0.67978 0.28663 0.20973 0.0
C3345 C 0.66175 0.28737 0.2019 0.0
C3346 C 0.73827 0.29176 0.23786 0.0
C3347 C 0.74 0.28031 0.25295 0.0
C3348 C 0.72026 0.29274 0.23013 0.0
C3349 C 0.70278 0.2825 0.23707 0.0
C3350 C 0.70459 0.27118 0.25229 0.0
C3351 C 0.72258 0.27006 0.2599 0.0
H3352 H 0.5273 0.8658 0.96025 0.0
H3353 H 0.58014 0.89516 0.93814 0.0
H3354 H 0.52679 0.89763 0.97565 0.0
H3355 H 0.57979 0.92703 0.95384 0.0
H3356 H 0.56603 0.98658 0.97166 0.0
H3357 H 0.56675 0.95484 0.95579 0.0
H3358 H 0.53902 0.92304 1.00005 0.0
H3359 H 0.53828 0.95469 0.01578 0.0
C3360 C 0.53888 0.87896 0.95851 0.0
C3361 C 0.55376 0.87725 0.94761 0.0
C3362 C 0.53869 0.8975 0.96766 0.0
C3363 C 0.55325 0.91556 0.96633 0.0
C3364 C 0.56809 0.9139 0.95535 0.0
C3365 C 0.5684 0.89528 0.94637 0.0
C3366 C 0.56007 0.97288 0.97811 0.0
C3367 C 0.5521 0.97373 0.99527 0.0
C3368 C 0.56057 0.95441 0.96894 0.0
C3369 C 0.55293 0.93572 0.97631 0.0
C3370 C 0.5449 0.93666 0.99346 0.0
C3371 C 0.54458 0.95511 1.00269 0.0
H3372 H 0.9261 0.7488 0.70201 0.0
H3373 H 0.95206 0.80796 0.72849 0.0
H3374 H 0.89656 0.74797 0.71574 0.0
H3375 H 0.92262 0.80712 0.74223 0.0
H3376 H 0.86301 0.80879 0.75783 0.0
H3377 H 0.89255 0.80927 0.7442 0.0
H3378 H 0.87467 0.74476 0.7375 0.0
H3379 H 0.84484 0.74447 0.75086 0.0
C3380 C 0.92588 0.76174 0.71084 0.0
C3381 C 0.94243 0.7785 0.71365 0.0
C3382 C 0.90845 0.76124 0.71894 0.0
C3383 C 0.90619 0.77747 0.73051 0.0
C3384 C 0.92278 0.79419 0.73336 0.0
C3385 C 0.94018 0.79469 0.72526 0.0
C3386 C 0.86522 0.79457 0.75357 0.0
C3387 C 0.85084 0.77659 0.75586 0.0
C3388 C 0.88263 0.79481 0.74563 0.0
C3389 C 0.88702 0.77707 0.73934 0.0
C3390 C 0.87256 0.75903 0.74167 0.0
C3391 C 0.8551 0.7588 0.74964 0.0
H3392 H 0.14544 0.00927 0.92481 0.0
H3393 H 0.0907 0.99094 0.89372 0.0
H3394 H 0.12999 0.01218 0.9532 0.0
H3395 H 0.07529 0.9939 0.92198 0.0
H3396 H 0.05181 0.98958 0.97795 0.0
H3397 H 0.06823 0.98097 0.95197 0.0
H3398 H 0.11371 0.03578 0.96505 0.0
H3399 H 0.09756 0.04422 0.99117 0.0
C3400 C 0.1301 1.00568 0.92409 0.0
C3401 C 0.11927 0.99998 0.90706 0.0
C3402 C 0.12127 0.00738 0.9403 0.0
C3403 C 0.10145 1.00345 0.93978 0.0
C3404 C 0.09057 0.99681 0.92287 0.0
C3405 C 0.0994 0.99509 0.90667 0.0
C3406 C 0.06536 0.99974 0.97534 0.0
C3407 C 0.07329 0.01769 0.98651 0.0
C3408 C 0.07473 0.99482 0.96044 0.0
C3409 C 0.09223 0.00771 0.95646 0.0
C3410 C 0.10036 0.02541 0.9679 0.0
C3411 C 0.09099 0.03035 0.98277 0.0
H3412 H 0.81548 0.34929 0.57895 0.0
H3413 H 0.75664 0.33649 0.59049 0.0
H3414 H 0.82144 0.33059 0.60465 0.0
H3415 H 0.76262 0.31822 0.61664 0.0
H3416 H 0.77645 0.27515 0.65533 0.0
H3417 H 0.77048 0.28922 0.62649 0.0
H3418 H 0.8239 0.33563 0.63746 0.0
H3419 H 0.82996 0.32131 0.66598 0.0
C3420 C 0.80383 0.34244 0.58705 0.0
C3421 C 0.78566 0.34446 0.58294 0.0
C3422 C 0.80724 0.3318 0.6018 0.0
C3423 C 0.79257 0.32311 0.61286 0.0
C3424 C 0.7742 0.32454 0.60829 0.0
C3425 C 0.77076 0.33504 0.59339 0.0
C3426 C 0.78693 0.2883 0.65146 0.0
C3427 C 0.80366 0.29715 0.66287 0.0
C3428 C 0.78349 0.29639 0.635 0.0
C3429 C 0.79668 0.31358 0.62967 0.0
C3430 C 0.81359 0.32217 0.64095 0.0
C3431 C 0.81707 0.314 0.65732 0.0
H3432 H 0.5369 0.09573 0.38558 0.0
H3433 H 0.48461 0.09157 0.41131 0.0
H3434 H 0.55082 0.08758 0.41435 0.0
H3435 H 0.4988 0.08436 0.4399 0.0
H3436 H 0.51336 0.03161 0.46504 0.0
H3437 H 0.50547 0.04961 0.43988 0.0
H3438 H 0.55896 0.09558 0.45145 0.0
H3439 H 0.56702 0.07752 0.47717 0.0
C3440 C 0.52862 0.0938 0.3975 0.0
C3441 C 0.50947 0.09378 0.39597 0.0
C3442 C 0.53666 0.08932 0.41397 0.0
C3443 C 0.52565 0.0849 0.42906 0.0
C3444 C 0.50743 0.08743 0.42827 0.0
C3445 C 0.49938 0.09178 0.41188 0.0
C3446 C 0.52357 0.04549 0.46227 0.0
C3447 C 0.54076 0.05322 0.47321 0.0
C3448 C 0.51895 0.05588 0.44794 0.0
C3449 C 0.53143 0.07418 0.4441 0.0
C3450 C 0.54905 0.08158 0.45437 0.0
C3451 C 0.55366 0.07121 0.46896 0.0
H3452 H 0.80132 0.71305 0.13245 0.0
H3453 H 0.79807 0.77175 0.12044 0.0
H3454 H 0.79956 0.72139 0.1651 0.0
H3455 H 0.79609 0.78001 0.15321 0.0
H3456 H 0.77434 0.78102 0.21144 0.0
H3457 H 0.77596 0.77287 0.17857 0.0
H3458 H 0.81716 0.74161 0.19182 0.0
H3459 H 0.81537 0.74952 0.22463 0.0
C3460 C 0.80047 0.72786 0.1367 0.0
C3461 C 0.80001 0.74172 0.12352 0.0
C3462 C 0.7994 0.73265 0.15557 0.0
C3463 C 0.79773 0.75145 0.16202 0.0
C3464 C 0.79711 0.76528 0.14887 0.0
C3465 C 0.79825 0.76051 0.12996 0.0
C3466 C 0.78372 0.77235 0.20739 0.0
C3467 C 0.79465 0.7659 0.22089 0.0
C3468 C 0.78476 0.76778 0.18844 0.0
C3469 C 0.79669 0.75652 0.18232 0.0
C3470 C 0.80759 0.75005 0.19585 0.0
C3471 C 0.80662 0.75469 0.21478 0.0
H3472 H 0.09307 0.05035 0.74269 0.0
H3473 H 0.07064 0.98638 0.73 0.0
H3474 H 0.07832 0.05589 0.71353 0.0
H3475 H 0.05594 0.99198 0.70066 0.0
H3476 H 0.06227 0.01221 0.64118 0.0
H3477 H 0.06999 1.00484 0.67235 0.0
H3478 H 0.04838 0.05204 0.6945 0.0
H3479 H 0.04039 0.05933 0.66315 0.0
C3480 C 0.08455 0.03746 0.73392 0.0
C3481 C 0.08314 0.0179 0.73861 0.0
C3482 C 0.07612 0.04065 0.71717 0.0
C3483 C 0.06614 0.02437 0.70473 0.0
C3484 C 0.06383 1.00481 0.70986 0.0
C3485 C 0.07223 1.00161 0.72663 0.0
C3486 C 0.05878 0.02077 0.65266 0.0
C3487 C 0.05071 0.03637 0.64966 0.0
C3488 C 0.0632 0.01652 0.67054 0.0
C3489 C 0.05973 0.02781 0.68587 0.0
C3490 C 0.05135 0.04319 0.68293 0.0
C3491 C 0.04686 0.04741 0.665 0.0
H3492 H 0.77556 0.32386 0.42051 0.0
H3493 H 0.76894 0.37626 0.39562 0.0
H3494 H 0.77684 0.3081 0.39017 0.0
H3495 H 0.7689 0.35989 0.36509 0.0
H3496 H 0.79598 0.33516 0.31688 0.0
H3497 H 0.79083 0.351 0.3461 0.0
H3498 H 0.75923 0.29319 0.36232 0.0
H3499 H 0.76511 0.27735 0.33349 0.0
C3500 C 0.77421 0.33196 0.40855 0.0
C3501 C 0.77235 0.35142 0.41055 0.0
C3502 C 0.77464 0.32278 0.39108 0.0
C3503 C 0.77299 0.33272 0.37513 0.0
C3504 C 0.77048 0.35192 0.37708 0.0
C3505 C 0.77023 0.36119 0.3946 0.0
C3506 C 0.78781 0.32589 0.32665 0.0
C3507 C 0.78117 0.305 0.32302 0.0
C3508 C 0.78475 0.33497 0.34337 0.0
C3509 C 0.77475 0.32336 0.35668 0.0
C3510 C 0.76738 0.30255 0.3526 0.0
C3511 C 0.77067 0.29346 0.33603 0.0
H3512 H 0.47672 0.07178 0.21087 0.0
H3513 H 0.48716 0.02021 0.23412 0.0
H3514 H 0.49151 0.0647 0.18305 0.0
H3515 H 0.50221 0.01329 0.20656 0.0
H3516 H 0.50501 0.99313 0.14612 0.0
H3517 H 0.49225 1.00139 0.17468 0.0
H3518 H 0.52167 0.06402 0.17162 0.0
H3519 H 0.53423 0.05572 0.14286 0.0
C3520 C 0.48239 0.05909 0.21007 0.0
C3521 C 0.48062 0.04639 0.22446 0.0
C3522 C 0.49089 0.05505 0.19422 0.0
C3523 C 0.49788 0.03833 0.19257 0.0
C3524 C 0.49659 0.02602 0.20725 0.0
C3525 C 0.48801 0.02998 0.22301 0.0
C3526 C 0.50889 0.00862 0.15167 0.0
C3527 C 0.52058 0.02379 0.14231 0.0
C3528 C 0.50162 0.01336 0.16803 0.0
C3529 C 0.50598 0.03336 0.17541 0.0
C3530 C 0.51784 0.04851 0.16613 0.0
C3531 C 0.52505 0.04377 0.14971 0.0
H3532 H 0.7988 0.76719 0.93044 0.0
H3533 H 0.81377 0.71323 0.91559 0.0
H3534 H 0.80001 0.77544 0.8983 0.0
H3535 H 0.81536 0.72168 0.88359 0.0
H3536 H 0.79457 0.73152 0.82458 0.0
H3537 H 0.79514 0.72362 0.85671 0.0
H3538 H 0.82139 0.7861 0.87402 0.0
H3539 H 0.82074 0.79404 0.84178 0.0
C3540 C 0.80235 0.75705 0.92037 0.0
C3541 C 0.8062 0.73951 0.92584 0.0
C3542 C 0.80325 0.76191 0.90188 0.0
C3543 C 0.80782 0.7493 0.88813 0.0
C3544 C 0.81164 0.73175 0.89361 0.0
C3545 C 0.81092 0.72699 0.91212 0.0
C3546 C 0.80069 0.74361 0.83515 0.0
C3547 C 0.80767 0.76346 0.83035 0.0
C3548 C 0.80105 0.73904 0.8537 0.0
C3549 C 0.80824 0.75418 0.86819 0.0
C3550 C 0.81551 0.77401 0.86338 0.0
C3551 C 0.81532 0.77856 0.84478 0.0
H3552 H 0.84511 0.05631 0.02557 0.0
H3553 H 0.89099 0.10402 0.00865 0.0
H3554 H 0.86153 0.03197 0.01613 0.0
H3555 H 0.90755 0.07983 0.99947 0.0
H3556 H 0.93163 0.03312 0.97729 0.0
H3557 H 0.90815 0.05159 0.97868 0.0
H3558 H 0.88952 0.02458 0.02873 0.0
H3559 H 0.91241 1.00557 0.02687 0.0
C3560 C 0.85869 0.06155 0.01978 0.0
C3561 C 0.86691 0.08205 0.01803 0.0
C3562 C 0.86805 0.04764 0.01434 0.0
C3563 C 0.88587 0.05396 0.00712 0.0
C3564 C 0.8937 0.0744 0.00469 0.0
C3565 C 0.88428 0.08829 0.01004 0.0
C3566 C 0.92207 0.03063 0.98821 0.0
C3567 C 0.92399 0.01812 1.00212 0.0
C3568 C 0.90878 0.04138 0.98914 0.0
C3569 C 0.89721 0.03981 0.00398 0.0
C3570 C 0.89815 0.02609 0.01706 0.0
C3571 C 0.91138 0.01533 0.01611 0.0
H3572 H 0.39932 0.422 0.0073 0.0
H3573 H 0.39279 0.46269 0.05193 0.0
H3574 H 0.4311 0.44315 0.0044 0.0
H3575 H 0.42538 0.48314 0.04996 0.0
H3576 H 0.47986 0.52532 0.03094 0.0
H3577 H 0.44669 0.50594 0.03261 0.0
H3578 H 0.46139 0.45138 0.0192 0.0
H3579 H 0.49398 0.47066 0.01675 0.0
C3580 C 0.40458 0.43549 0.01651 0.0
C3581 C 0.39326 0.44056 0.02981 0.0
C3582 C 0.42307 0.44752 0.01504 0.0
C3583 C 0.43104 0.46485 0.02705 0.0
C3584 C 0.41974 0.47003 0.04034 0.0
C3585 C 0.40109 0.45809 0.04166 0.0
C3586 C 0.47591 0.50919 0.02821 0.0
C3587 C 0.48956 0.49959 0.02353 0.0
C3588 C 0.45691 0.49804 0.02931 0.0
C3589 C 0.4512 0.47702 0.02593 0.0
C3590 C 0.46501 0.46753 0.02144 0.0
C3591 C 0.48383 0.47863 0.02013 0.0
H3592 H 0.36437 0.58767 0.7987 0.0
H3593 H 0.3861 0.62987 0.75873 0.0
H3594 H 0.33991 0.60423 0.80477 0.0
H3595 H 0.36181 0.6463 0.76473 0.0
H3596 H 0.30566 0.65734 0.76212 0.0
H3597 H 0.32697 0.6366 0.75818 0.0
H3598 H 0.33602 0.6373 0.81746 0.0
H3599 H 0.31423 0.65786 0.82128 0.0
C3600 C 0.36408 0.60065 0.79144 0.0
C3601 C 0.37698 0.6074 0.77811 0.0
C3602 C 0.35006 0.61004 0.79485 0.0
C3603 C 0.34875 0.62626 0.78494 0.0
C3604 C 0.36216 0.63346 0.7722 0.0
C3605 C 0.37611 0.62413 0.76881 0.0
C3606 C 0.31183 0.65255 0.77425 0.0
C3607 C 0.30844 0.65903 0.79197 0.0
C3608 C 0.32413 0.6409 0.77204 0.0
C3609 C 0.33344 0.63574 0.78753 0.0
C3610 C 0.32902 0.64109 0.8053 0.0
C3611 C 0.31657 0.65274 0.80751 0.0
H3612 H 0.1957 0.61903 0.54226 0.0
H3613 H 0.20666 0.56324 0.52554 0.0
H3614 H 0.16168 0.60294 0.53659 0.0
H3615 H 0.17253 0.54722 0.51941 0.0
H3616 H 0.10984 0.52274 0.53428 0.0
H3617 H 0.14419 0.53746 0.53751 0.0
H3618 H 0.13814 0.58853 0.51 0.0
H3619 H 0.10377 0.57399 0.50692 0.0
C3620 C 0.19081 0.6033 0.53745 0.0
C3621 C 0.2038 0.59235 0.53443 0.0
C3622 C 0.17136 0.59416 0.53397 0.0
C3623 C 0.16449 0.57387 0.52745 0.0
C3624 C 0.17745 0.56286 0.5245 0.0
C3625 C 0.19695 0.57205 0.5279 0.0
C3626 C 0.11583 0.53702 0.52876 0.0
C3627 C 0.10407 0.54729 0.52049 0.0
C3628 C 0.13551 0.54539 0.53054 0.0
C3629 C 0.1438 0.56421 0.52415 0.0
C3630 C 0.13209 0.57414 0.51531 0.0
C3631 C 0.11242 0.56575 0.51346 0.0
H3632 H 0.71009 0.93539 0.72392 0.0
H3633 H 0.7158 0.95309 0.78241 0.0
H3634 H 0.73589 0.92016 0.72812 0.0
H3635 H 0.741 0.93728 0.7867 0.0
H3636 H 0.79655 0.92241 0.78672 0.0
H3637 H 0.7738 0.94091 0.77965 0.0
H3638 H 0.74054 0.89102 0.74247 0.0
H3639 H 0.76317 0.87262 0.74949 0.0
C3640 C 0.71686 0.93602 0.73765 0.0
C3641 C 0.71082 0.94526 0.75286 0.0
C3642 C 0.73153 0.92722 0.74007 0.0
C3643 C 0.74048 0.92757 0.75773 0.0
C3644 C 0.73455 0.93699 0.77289 0.0
C3645 C 0.7199 0.94575 0.77047 0.0
C3646 C 0.78445 0.9155 0.77694 0.0
C3647 C 0.78164 0.89608 0.76868 0.0
C3648 C 0.77142 0.92605 0.77292 0.0
C3649 C 0.75534 0.91735 0.76059 0.0
C3650 C 0.75292 0.89823 0.75183 0.0
C3651 C 0.76592 0.8877 0.75584 0.0
H3652 H 0.73741 0.95547 0.53061 0.0
H3653 H 0.6916 0.90139 0.53358 0.0
H3654 H 0.71478 0.97493 0.53036 0.0
H3655 H 0.66895 0.92102 0.53392 0.0
H3656 H 0.63279 0.96084 0.5123 0.0
H3657 H 0.65456 0.9403 0.51367 0.0
H3658 H 0.69413 0.98633 0.55031 0.0
H3659 H 0.67238 0.00678 0.54904 0.0
C3660 C 0.72249 0.9477 0.53119 0.0
C3661 C 0.71637 0.92681 0.53204 0.0
C3662 C 0.70951 0.95892 0.53127 0.0
C3663 C 0.69 0.9496 0.53216 0.0
C3664 C 0.68384 0.9287 0.53306 0.0
C3665 C 0.69687 0.91746 0.53306 0.0
C3666 C 0.64601 0.96648 0.52085 0.0
C3667 C 0.65083 0.98559 0.53045 0.0
C3668 C 0.65853 0.95468 0.52162 0.0
C3669 C 0.67621 0.96168 0.53199 0.0
C3670 C 0.68083 0.9806 0.54189 0.0
C3671 C 0.66833 0.99236 0.54114 0.0
H3672 H 0.3484 0.43756 0.73075 0.0
H3673 H 0.39393 0.4305 0.76723 0.0
H3674 H 0.32965 0.40322 0.73481 0.0
H3675 H 0.37519 0.39674 0.77191 0.0
H3676 H 0.34741 0.33144 0.76356 0.0
H3677 H 0.36445 0.36478 0.756 0.0
H3678 H 0.31262 0.38209 0.75673 0.0
H3679 H 0.29533 0.34813 0.76345 0.0
C3680 C 0.35429 0.42865 0.7397 0.0
C3681 C 0.37264 0.43645 0.74849 0.0
C3682 C 0.34358 0.40907 0.7421 0.0
C3683 C 0.35101 0.39712 0.75351 0.0
C3684 C 0.36923 0.40526 0.76259 0.0
C3685 C 0.37996 0.42463 0.76 0.0
C3686 C 0.33965 0.34236 0.76204 0.0
C3687 C 0.32015 0.33738 0.76435 0.0
C3688 C 0.34942 0.3615 0.75779 0.0
C3689 C 0.33999 0.37626 0.75614 0.0
C3690 C 0.32029 0.37106 0.75782 0.0
C3691 C 0.31041 0.35168 0.76176 0.0
H3692 H 0.20125 0.63541 0.22693 0.0
H3693 H 0.2539 0.62091 0.23762 0.0
H3694 H 0.21769 0.67071 0.23478 0.0
H3695 H 0.27015 0.6561 0.24638 0.0
H3696 H 0.29678 0.72343 0.24792 0.0
H3697 H 0.28094 0.68909 0.23573 0.0
H3698 H 0.23093 0.69094 0.26312 0.0
H3699 H 0.24656 0.72545 0.2749 0.0
C3700 C 0.21639 0.63978 0.23066 0.0
C3701 C 0.22625 0.62534 0.23175 0.0
C3702 C 0.22576 0.65998 0.23544 0.0
C3703 C 0.24516 0.66618 0.24148 0.0
C3704 C 0.25521 0.65185 0.24173 0.0
C3705 C 0.24586 0.63166 0.23687 0.0
C3706 C 0.28241 0.7165 0.25137 0.0
C3707 C 0.27293 0.72714 0.26241 0.0
C3708 C 0.27335 0.6968 0.24439 0.0
C3709 C 0.25465 0.6873 0.24838 0.0
C3710 C 0.24522 0.69795 0.25949 0.0
C3711 C 0.25424 0.71767 0.26639 0.0
H3712 H 0.48788 0.65209 0.47343 0.0
H3713 H 0.54854 0.67827 0.47334 0.0
H3714 H 0.49311 0.62152 0.48415 0.0
H3715 H 0.55365 0.64801 0.48451 0.0
H3716 H 0.55587 0.59978 0.52397 0.0
H3717 H 0.55001 0.62969 0.51261 0.0
H3718 H 0.5052 0.59284 0.47394 0.0
H3719 H 0.5111 0.56275 0.48528 0.0
C3720 C 0.50233 0.65139 0.47557 0.0
C3721 C 0.51776 0.66793 0.47255 0.0
C3722 C 0.50531 0.6338 0.48177 0.0
C3723 C 0.52381 0.63228 0.4853 0.0
C3724 C 0.53921 0.64874 0.48225 0.0
C3725 C 0.53624 0.66621 0.4759 0.0
C3726 C 0.54476 0.59796 0.51303 0.0
C3727 C 0.53396 0.57873 0.50559 0.0
C3728 C 0.54146 0.61519 0.50644 0.0
C3729 C 0.52714 0.61375 0.49232 0.0
C3730 C 0.51623 0.59453 0.48494 0.0
C3731 C 0.51968 0.57726 0.4914 0.0
H3732 H 0.65438 0.30123 0.71773 0.0
H3733 H 0.6874 0.30242 0.67054 0.0
H3734 H 0.68097 0.29812 0.73771 0.0
H3735 H 0.7141 0.29965 0.69049 0.0
H3736 H 0.74967 0.27112 0.72697 0.0
H3737 H 0.72368 0.27596 0.70759 0.0
H3738 H 0.71228 0.31436 0.75152 0.0
H3739 H 0.73816 0.30909 0.77117 0.0
C3740 C 0.66742 0.30114 0.71164 0.0
C3741 C 0.66868 0.30199 0.69248 0.0
C3742 C 0.68272 0.29937 0.72313 0.0
C3743 C 0.69975 0.29849 0.71578 0.0
C3744 C 0.70112 0.29982 0.69666 0.0
C3745 C 0.6858 0.30148 0.68518 0.0
C3746 C 0.74173 0.28069 0.73254 0.0
C3747 C 0.74613 0.28975 0.75069 0.0
C3748 C 0.7268 0.28356 0.72132 0.0
C3749 C 0.71582 0.29566 0.72786 0.0
C3750 C 0.72023 0.30475 0.74603 0.0
C3751 C 0.73516 0.30181 0.7573 0.0
H3752 H 0.04478 0.37208 0.99873 0.0
H3753 H 1.00482 0.37612 0.95429 0.0
H3754 H 0.04917 0.40713 0.00895 0.0
H3755 H 1.00883 0.41088 0.96492 0.0
H3756 H 1.00672 0.46664 1.00159 0.0
H3757 H 1.00213 0.4314 0.99167 0.0
H3758 H 0.06275 0.44103 0.99783 0.0
H3759 H 0.06738 0.47618 0.00773 0.0
C3760 C 0.03696 0.38036 0.99107 0.0
C3761 C 0.02437 0.37102 0.97566 0.0
C3762 C 0.03946 0.4005 0.99698 0.0
C3763 C 0.02931 0.41184 0.98779 0.0
C3764 C 0.01665 0.40252 0.9725 0.0
C3765 C 0.0143 0.38248 0.96646 0.0
C3766 C 0.01908 0.46127 1.00081 0.0
C3767 C 0.03742 0.47435 0.0054 0.0
C3768 C 0.01645 0.44106 0.99505 0.0
C3769 C 0.03207 0.43335 0.99396 0.0
C3770 C 0.05039 0.4464 0.99867 0.0
C3771 C 0.05304 0.46663 0.00421 0.0
H3772 H 0.98017 0.75927 0.18016 0.0
H3773 H 1.00597 0.8197 0.20433 0.0
H3774 H 0.95255 0.75705 0.19769 0.0
H3775 H 0.97804 0.81776 0.22127 0.0
H3776 H 0.93461 0.79959 0.26414 0.0
H3777 H 0.96218 0.80166 0.24666 0.0
H3778 H 0.92536 0.76986 0.19939 0.0
H3779 H 0.89778 0.76709 0.21715 0.0
C3780 C 0.97999 0.77208 0.18924 0.0
C3781 C 0.99537 0.78965 0.19084 0.0
C3782 C 0.96402 0.7709 0.19913 0.0
C3783 C 0.963 0.78724 0.2109 0.0
C3784 C 0.97838 0.8048 0.2125 0.0
C3785 C 0.99434 0.80599 0.2026 0.0
C3786 C 0.93237 0.79288 0.25007 0.0
C3787 C 0.91393 0.78309 0.24211 0.0
C3788 C 0.94821 0.79428 0.23995 0.0
C3789 C 0.94605 0.78593 0.22158 0.0
C3790 C 0.92759 0.77626 0.21357 0.0
C3791 C 0.91174 0.77489 0.22369 0.0
H3792 H 0.56503 0.37955 0.08237 0.0
H3793 H 0.53092 0.39697 0.12268 0.0
H3794 H 0.56626 0.40956 0.06682 0.0
H3795 H 0.53133 0.42646 0.10656 0.0
H3796 H 0.5436 0.48776 0.08173 0.0
H3797 H 0.54332 0.45813 0.09793 0.0
H3798 H 0.55564 0.42948 0.04791 0.0
H3799 H 0.55643 0.4594 0.03201 0.0
C3800 C 0.55772 0.3896 0.08816 0.0
C3801 C 0.54789 0.38495 0.10429 0.0
C3802 C 0.55821 0.40713 0.07885 0.0
C3803 C 0.54889 0.42131 0.08494 0.0
C3804 C 0.53904 0.41666 0.10105 0.0
C3805 C 0.53858 0.39914 0.11039 0.0
C3806 C 0.54635 0.47523 0.07408 0.0
C3807 C 0.55012 0.47661 0.05525 0.0
C3808 C 0.54604 0.45779 0.08349 0.0
C3809 C 0.54939 0.44051 0.07469 0.0
C3810 C 0.55321 0.44201 0.05581 0.0
C3811 C 0.55359 0.45948 0.04643 0.0
H3812 H 0.93623 0.23981 0.32436 0.0
H3813 H 0.94755 0.29996 0.34946 0.0
H3814 H 0.90521 0.241 0.31189 0.0
H3815 H 0.91668 0.30114 0.33686 0.0
H3816 H 0.86414 0.30579 0.30107 0.0
H3817 H 0.89518 0.30433 0.31356 0.0
H3818 H 0.87338 0.24018 0.31332 0.0
H3819 H 0.84237 0.24174 0.30057 0.0
C3820 C 0.93235 0.25338 0.3275 0.0
C3821 C 0.94542 0.26978 0.33826 0.0
C3822 C 0.9141 0.25406 0.32015 0.0
C3823 C 0.90757 0.27122 0.32296 0.0
C3824 C 0.9206 0.28759 0.33373 0.0
C3825 C 0.9388 0.28689 0.34113 0.0
C3826 C 0.86579 0.29127 0.30365 0.0
C3827 C 0.85007 0.27393 0.29957 0.0
C3828 C 0.88392 0.29039 0.31106 0.0
C3829 C 0.88765 0.27209 0.31484 0.0
C3830 C 0.87188 0.25472 0.31067 0.0
C3831 C 0.85369 0.25562 0.30333 0.0
H3832 H 0.05927 0.67045 0.62224 0.0
H3833 H 0.02066 0.67831 0.57846 0.0
H3834 H 0.06075 0.6398 0.60588 0.0
H3835 H 0.02115 0.64689 0.56267 0.0
H3836 H 0.03378 0.59513 0.52861 0.0
H3837 H 0.03285 0.62638 0.54476 0.0
H3838 H 0.05108 0.60693 0.59597 0.0
H3839 H 0.05269 0.57603 0.57949 0.0
C3840 C 0.05101 0.66591 0.60912 0.0
C3841 C 0.03991 0.67782 0.60207 0.0
C3842 C 0.05164 0.64768 0.59964 0.0
C3843 C 0.04109 0.63997 0.5825 0.0
C3844 C 0.02988 0.65179 0.57551 0.0
C3845 C 0.02935 0.67011 0.58494 0.0
C3846 C 0.03764 0.59743 0.54334 0.0
C3847 C 0.04338 0.58255 0.55245 0.0
C3848 C 0.03697 0.61563 0.55284 0.0
C3849 C 0.04183 0.62004 0.57213 0.0
C3850 C 0.04747 0.60498 0.58123 0.0
C3851 C 0.0483 0.58685 0.57166 0.0
H3852 H 0.66811 0.79862 0.85761 0.0
H3853 H 0.63703 0.75502 0.81404 0.0
H3854 H 0.69764 0.79915 0.84428 0.0
H3855 H 0.66655 0.75623 0.80022 0.0
H3856 H 0.72453 0.7508 0.78206 0.0
H3857 H 0.69466 0.74982 0.79547 0.0
H3858 H 0.72153 0.80719 0.82525 0.0
H3859 H 0.7514 0.80776 0.81213 0.0
C3860 C 0.66723 0.78899 0.84518 0.0
C3861 C 0.64918 0.7767 0.83739 0.0
C3862 C 0.68466 0.78951 0.83716 0.0
C3863 C 0.68548 0.7778 0.82068 0.0
C3864 C 0.66744 0.76552 0.81287 0.0
C3865 C 0.64999 0.76499 0.8209 0.0
C3866 C 0.7242 0.76333 0.79142 0.0
C3867 C 0.74106 0.7794 0.79566 0.0
C3868 C 0.70666 0.76284 0.79925 0.0
C3869 C 0.7047 0.77839 0.81191 0.0
C3870 C 0.72164 0.79451 0.81601 0.0
C3871 C 0.73917 0.79497 0.8082 0.0
H3872 H 0.49552 0.58143 0.65962 0.0
H3873 H 0.44922 0.53002 0.63832 0.0
H3874 H 0.50983 0.58132 0.6302 0.0
H3875 H 0.46379 0.52948 0.6092 0.0
H3876 H 0.48965 0.53883 0.55499 0.0
H3877 H 0.47348 0.54665 0.58149 0.0
H3878 H 0.52552 0.55798 0.61639 0.0
H3879 H 0.54177 0.55055 0.58998 0.0
C3880 C 0.48823 0.57037 0.64853 0.0
C3881 C 0.4714 0.55558 0.65128 0.0
C3882 C 0.49649 0.57019 0.63178 0.0
C3883 C 0.48804 0.55525 0.61751 0.0
C3884 C 0.47059 0.54125 0.61989 0.0
C3885 C 0.46235 0.54142 0.63663 0.0
C3886 C 0.49768 0.54317 0.56829 0.0
C3887 C 0.51695 0.54387 0.57043 0.0
C3888 C 0.48841 0.54763 0.58344 0.0
C3889 C 0.49823 0.5529 0.60099 0.0
C3890 C 0.51763 0.55424 0.60299 0.0
C3891 C 0.5269 0.54978 0.58787 0.0
H3892 H 0.78545 0.23738 0.99577 0.0
H3893 H 0.83497 0.23228 0.96922 0.0
H3894 H 0.77874 0.25774 0.9717 0.0
H3895 H 0.82798 0.25224 0.94489 0.0
H3896 H 0.81652 0.29838 0.90882 0.0
H3897 H 0.82528 0.28585 0.93761 0.0
H3898 H 0.76758 0.24848 0.93868 0.0
H3899 H 0.7589 0.26056 0.90989 0.0
C3900 C 0.79511 0.24093 0.98498 0.0
C3901 C 0.81068 0.23314 0.9843 0.0
C3902 C 0.79117 0.25244 0.97113 0.0
C3903 C 0.80277 0.25648 0.95638 0.0
C3904 C 0.81887 0.24952 0.95618 0.0
C3905 C 0.82276 0.23791 0.96998 0.0
C3906 C 0.80568 0.2876 0.91528 0.0
C3907 C 0.78703 0.28039 0.90696 0.0
C3908 C 0.8107 0.28048 0.93177 0.0
C3909 C 0.79714 0.26614 0.94034 0.0
C3910 C 0.7783 0.25974 0.93255 0.0
C3911 C 0.77331 0.26673 0.91603 0.0
H3912 H 0.09963 0.48539 0.13792 0.0
H3913 H 0.06155 0.50472 0.17273 0.0
H3914 H 0.07876 0.48509 0.11104 0.0
H3915 H 0.04058 0.50476 0.14541 0.0
H3916 H 0.03797 0.53795 0.08975 0.0
H3917 H 0.04519 0.52725 0.11997 0.0
H3918 H 0.04818 0.47111 0.09381 0.0
H3919 H 0.04179 0.48226 0.06368 0.0
C3920 C 0.08648 0.48895 0.13994 0.0
C3921 C 0.08237 0.49524 0.15749 0.0
C3922 C 0.07444 0.48877 0.12445 0.0
C3923 C 0.05799 0.49493 0.12609 0.0
C3924 C 0.05324 0.5001 0.14374 0.0
C3925 C 0.06529 0.50016 0.15933 0.0
C3926 C 0.03946 0.52305 0.09062 0.0
C3927 C 0.03974 0.51103 0.07457 0.0
C3928 C 0.04353 0.51687 0.10789 0.0
C3929 C 0.04771 0.49853 0.10918 0.0
C3930 C 0.04548 0.48551 0.09318 0.0
C3931 C 0.04177 0.49183 0.07598 0.0
H3932 H 0.81389 0.80939 0.43537 0.0
H3933 H 0.76538 0.83072 0.42312 0.0
H3934 H 0.81534 0.80139 0.4025 0.0
H3935 H 0.76685 0.82277 0.3903 0.0
H3936 H 0.76277 0.78878 0.33385 0.0
H3937 H 0.76158 0.79641 0.36672 0.0
H3938 H 0.82285 0.81508 0.37363 0.0
H3939 H 0.82403 0.80697 0.34065 0.0
C3940 C 0.80356 0.81251 0.42572 0.0
C3941 C 0.78947 0.82071 0.43216 0.0
C3942 C 0.80443 0.80793 0.40674 0.0
C3943 C 0.79123 0.81138 0.39348 0.0
C3944 C 0.7771 0.81951 0.39994 0.0
C3945 C 0.77623 0.82407 0.41891 0.0
C3946 C 0.77606 0.79453 0.3423 0.0
C3947 C 0.79352 0.79724 0.33437 0.0
C3948 C 0.77536 0.79906 0.36128 0.0
C3949 C 0.7921 0.80648 0.37309 0.0
C3950 C 0.8096 0.80917 0.36517 0.0
C3951 C 0.8103 0.80463 0.34613 0.0
H3952 H 0.52951 0.51917 0.80448 0.0
H3953 H 0.51344 0.5645 0.83739 0.0
H3954 H 0.54894 0.51422 0.83109 0.0
H3955 H 0.53337 0.56001 0.86356 0.0
H3956 H 0.57561 0.55288 0.907 0.0
H3957 H 0.56706 0.5615 0.87631 0.0
H3958 H 0.53679 0.49947 0.86094 0.0
H3959 H 0.54452 0.4909 0.89159 0.0
C3960 C 0.53032 0.52829 0.81725 0.0
C3961 C 0.51962 0.542 0.81885 0.0
C3962 C 0.54157 0.52555 0.83241 0.0
C3963 C 0.54259 0.53669 0.84935 0.0
C3964 C 0.53304 0.5514 0.85058 0.0
C3965 C 0.5216 0.55397 0.83552 0.0
C3966 C 0.5673 0.54103 0.89702 0.0
C3967 C 0.56047 0.52124 0.90194 0.0
C3968 C 0.56254 0.54598 0.87944 0.0
C3969 C 0.55117 0.53117 0.86635 0.0
C3970 C 0.54575 0.51116 0.87071 0.0
C3971 C 0.55026 0.50625 0.88833 0.0
H3972 H 0.84226 0.23328 0.14079 0.0
H3973 H 0.81931 0.17439 0.15952 0.0
H3974 H 0.83827 0.24838 0.17071 0.0
H3975 H 0.81628 0.1895 0.18983 0.0
H3976 H 0.78588 0.22329 0.22808 0.0
H3977 H 0.79492 0.20691 0.20114 0.0
H3978 H 0.84771 0.25438 0.20308 0.0
H3979 H 0.83839 0.27112 0.22973 0.0
C3980 C 0.83668 0.22356 0.15142 0.0
C3981 C 0.83084 0.20265 0.14769 0.0
C3982 C 0.83459 0.23221 0.16866 0.0
C3983 C 0.82673 0.22014 0.1826 0.0
C3984 C 0.82204 0.19921 0.17925 0.0
C3985 C 0.82403 0.19055 0.16196 0.0
C3986 C 0.79944 0.23021 0.22281 0.0
C3987 C 0.8113 0.24863 0.23089 0.0
C3988 C 0.80473 0.22071 0.20746 0.0
C3989 C 0.82204 0.22935 0.19993 0.0
C3990 C 0.83415 0.24748 0.20838 0.0
C3991 C 0.82882 0.25705 0.22367 0.0
H3992 H 0.08829 0.52118 0.30955 0.0
H3993 H 0.14254 0.54606 0.34091 0.0
H3994 H 0.0721 0.52614 0.33691 0.0
H3995 H 0.12627 0.55132 0.36819 0.0
H3996 H 0.08977 0.57473 0.40785 0.0
H3997 H 0.10519 0.57179 0.37938 0.0
H3998 H 0.06868 0.51128 0.36749 0.0
H3999 H 0.05311 0.51433 0.39576 0.0
C4000 C 0.09675 0.5276 0.3223 0.0
C4001 C 0.11668 0.53308 0.32313 0.0
C4002 C 0.08748 0.53051 0.33791 0.0
C4003 C 0.09796 0.53908 0.35461 0.0
C4004 C 0.11788 0.5449 0.3554 0.0
C4005 C 0.12717 0.54189 0.3398 0.0
C4006 C 0.08492 0.56092 0.399 0.0
C4007 C 0.07031 0.54473 0.40394 0.0
C4008 C 0.09383 0.55918 0.38285 0.0
C4009 C 0.08812 0.5413 0.37133 0.0
C4010 C 0.07324 0.52528 0.37608 0.0
C4011 C 0.06445 0.52696 0.39229 0.0
H4012 H 0.80246 0.80447 0.62514 0.0
H4013 H 0.76705 0.84239 0.63789 0.0
H4014 H 0.80226 0.7952 0.65689 0.0
H4015 H 0.76649 0.83274 0.66961 0.0
H4016 H 0.78676 0.82632 0.73041 0.0
H4017 H 0.78603 0.83629 0.69876 0.0
H4018 H 0.78161 0.77587 0.67784 0.0
H4019 H 0.78252 0.766 0.70923 0.0
C4020 C 0.79463 0.81089 0.63468 0.0
C4021 C 0.78474 0.8242 0.62872 0.0
C4022 C 0.79435 0.80539 0.65295 0.0
C4023 C 0.78429 0.8131 0.66601 0.0
C4024 C 0.77452 0.82654 0.6601 0.0
C4025 C 0.77466 0.83192 0.64177 0.0
C4026 C 0.7855 0.81511 0.71907 0.0
C4027 C 0.78475 0.79531 0.72259 0.0
C4028 C 0.78502 0.82083 0.70084 0.0
C4029 C 0.78394 0.80698 0.68555 0.0
C4030 C 0.7828 0.78712 0.68912 0.0
C4031 C 0.78315 0.78139 0.70727 0.0
H4032 H 0.72057 0.48682 0.48489 0.0
H4033 H 0.72361 0.47803 0.54309 0.0
H4034 H 0.70262 0.51074 0.49063 0.0
H4035 H 0.70509 0.50134 0.54873 0.0
H4036 H 0.68332 0.55516 0.55558 0.0
H4037 H 0.70603 0.53673 0.54845 0.0
H4038 H 0.67051 0.5079 0.49939 0.0
H4039 H 0.64793 0.52611 0.50647 0.0
C4040 C 0.71749 0.49009 0.49891 0.0
C4041 C 0.72333 0.48045 0.51352 0.0
C4042 C 0.70712 0.50367 0.50217 0.0
C4043 C 0.70244 0.50788 0.52012 0.0
C4044 C 0.70867 0.49858 0.53478 0.0
C4045 C 0.71901 0.485 0.53152 0.0
C4046 C 0.68049 0.54501 0.5432 0.0
C4047 C 0.66384 0.54208 0.53161 0.0
C4048 C 0.69346 0.53447 0.53913 0.0
C4049 C 0.68999 0.52082 0.52341 0.0
C4050 C 0.67373 0.51853 0.51145 0.0
C4051 C 0.66079 0.52902 0.51551 0.0
H4052 H 0.20573 0.10404 0.54529 0.0
H4053 H 0.18362 0.13983 0.5086 0.0
H4054 H 0.17357 0.0822 0.54717 0.0
H4055 H 0.15172 0.11763 0.51009 0.0
H4056 H 0.10287 0.06001 0.49878 0.0
H4057 H 0.13505 0.08183 0.49914 0.0
H4058 H 0.14124 0.0828 0.55855 0.0
H4059 H 0.1086 0.06075 0.55829 0.0
C4060 C 0.19407 0.1074 0.53773 0.0
C4061 C 0.19742 0.12373 0.52667 0.0
C4062 C 0.17563 0.09483 0.53882 0.0
C4063 C 0.16013 0.09813 0.52872 0.0
C4064 C 0.16341 0.11451 0.51783 0.0
C4065 C 0.18177 0.12718 0.51689 0.0
C4066 C 0.11101 0.06473 0.512 0.0
C4067 C 0.10306 0.0586 0.52854 0.0
C4068 C 0.12947 0.07739 0.51217 0.0
C4069 C 0.14064 0.08419 0.52886 0.0
C4070 C 0.13296 0.07775 0.54545 0.0
C4071 C 0.11428 0.06518 0.54531 0.0
H4072 H 0.20071 0.93619 0.75579 0.0
H4073 H 0.2444 0.9705 0.79698 0.0
H4074 H 0.22187 0.91716 0.74568 0.0
H4075 H 0.26525 0.9509 0.7874 0.0
H4076 H 0.30318 0.91952 0.75992 0.0
H4077 H 0.28362 0.9425 0.7626 0.0
H4078 H 0.23324 0.89189 0.76004 0.0
H4079 H 0.25262 0.86919 0.75686 0.0
C4080 C 0.2149 0.93981 0.76255 0.0
C4081 C 0.22082 0.95467 0.77732 0.0
C4082 C 0.22696 0.92883 0.75685 0.0
C4083 C 0.24517 0.93246 0.76583 0.0
C4084 C 0.25137 0.94787 0.78009 0.0
C4085 C 0.23932 0.95887 0.78578 0.0
C4086 C 0.28789 0.91342 0.75956 0.0
C4087 C 0.27939 0.89265 0.75844 0.0
C4088 C 0.27673 0.92651 0.76122 0.0
C4089 C 0.25692 0.91898 0.76165 0.0
C4090 C 0.24842 0.89818 0.75958 0.0
C4091 C 0.25954 0.88517 0.75798 0.0
H4092 H 0.3912 1.00399 0.01197 0.0
H4093 H 0.39667 0.94842 0.98679 0.0
H4094 H 0.42571 0.01647 0.01786 0.0
H4095 H 0.43101 0.96115 0.99222 0.0
H4096 H 0.48606 0.01838 0.0437 0.0
H4097 H 0.45146 0.0072 0.03776 0.0
H4098 H 0.45734 0.98875 0.98123 0.0
H4099 H 0.49172 0.99981 0.98706 0.0
C4100 C 0.39972 0.99446 0.00767 0.0
C4101 C 0.39116 0.97524 0.99883 0.0
C4102 C 0.41944 1.00161 0.01105 0.0
C4103 C 0.43095 0.98975 0.00548 0.0
C4104 C 0.42245 0.97069 0.99644 0.0
C4105 C 0.40277 0.96347 0.99323 0.0
C4106 C 0.47994 0.01192 0.03003 0.0
C4107 C 0.49159 0.00989 0.01588 0.0
C4108 C 0.46018 1.00567 0.02661 0.0
C4109 C 0.4518 0.99712 0.00905 0.0
C4110 C 0.46346 0.99514 0.99493 0.0
C4111 C 0.48314 1.00153 0.99828 0.0
H4112 H 0.84932 0.58654 0.82111 0.0
H4113 H 0.88833 0.63204 0.79353 0.0
H4114 H 0.82368 0.60102 0.81276 0.0
H4115 H 0.86278 0.64624 0.78505 0.0
H4116 H 0.81135 0.65286 0.75442 0.0
H4117 H 0.83316 0.63416 0.76351 0.0
H4118 H 0.8145 0.63336 0.81866 0.0
H4119 H 0.79216 0.65171 0.80943 0.0
C4120 C 0.85247 0.59978 0.81352 0.0
C4121 C 0.87076 0.60807 0.80781 0.0
C4122 C 0.83779 0.60796 0.80867 0.0
C4123 C 0.84121 0.62445 0.79795 0.0
C4124 C 0.85966 0.63318 0.7929 0.0
C4125 C 0.87429 0.62511 0.79781 0.0
C4126 C 0.81142 0.64816 0.76832 0.0
C4127 C 0.80015 0.65387 0.78127 0.0
C4128 C 0.8241 0.6377 0.77358 0.0
C4129 C 0.82575 0.63272 0.79187 0.0
C4130 C 0.81352 0.63711 0.80449 0.0
C4131 C 0.80084 0.64766 0.79924 0.0
H4132 H 0.86571 0.62684 0.99438 0.0
H4133 H 0.88169 0.64564 0.05217 0.0
H4134 H 0.88867 0.60778 0.99443 0.0
H4135 H 0.90401 0.62578 0.05244 0.0
H4136 H 0.95577 0.60376 0.04209 0.0
H4137 H 0.93377 0.62405 0.04177 0.0
H4138 H 0.89359 0.57809 0.00553 0.0
H4139 H 0.91588 0.55831 0.00513 0.0
C4140 C 0.87415 0.62699 0.00711 0.0
C4141 C 0.87176 0.63785 0.02327 0.0
C4142 C 0.88717 0.61579 0.0072 0.0
C4143 C 0.8982 0.61509 0.02347 0.0
C4144 C 0.89593 0.62608 0.0396 0.0
C4145 C 0.88291 0.63729 0.0395 0.0
C4146 C 0.94232 0.59805 0.03391 0.0
C4147 C 0.93767 0.57931 0.02366 0.0
C4148 C 0.92958 0.60961 0.0339 0.0
C4149 C 0.91183 0.60278 0.02361 0.0
C4150 C 0.90718 0.58402 0.01342 0.0
C4151 C 0.91991 0.57249 0.01342 0.0
H4152 H 0.22689 0.11715 0.78348 0.0
H4153 H 0.2182 0.13631 0.83899 0.0
H4154 H 0.2452 0.15125 0.77883 0.0
H4155 H 0.23686 0.17054 0.83445 0.0
H4156 H 0.24659 0.23096 0.80694 0.0
H4157 H 0.23157 0.19695 0.81473 0.0
H4158 H 0.27546 0.17699 0.7898 0.0
H4159 H 0.29044 0.21091 0.78181 0.0
C4160 C 0.22902 0.12868 0.79471 0.0
C4161 C 0.22103 0.12421 0.81153 0.0
C4162 C 0.23964 0.14813 0.79212 0.0
C4163 C 0.24239 0.16351 0.80627 0.0
C4164 C 0.2348 0.15896 0.82327 0.0
C4165 C 0.22427 0.13941 0.82592 0.0
C4166 C 0.25309 0.21934 0.80318 0.0
C4167 C 0.26961 0.22359 0.79361 0.0
C4168 C 0.24457 0.19992 0.80779 0.0
C4169 C 0.25235 0.18437 0.80284 0.0
C4170 C 0.26907 0.18868 0.79361 0.0
C4171 C 0.27765 0.20811 0.78908 0.0
H4172 H 0.4073 0.93327 0.30006 0.0
H4173 H 0.36418 0.94871 0.33059 0.0
H4174 H 0.38633 0.89937 0.29298 0.0
H4175 H 0.34339 0.91456 0.32382 0.0
H4176 H 0.32081 0.8447 0.32102 0.0
H4177 H 0.34145 0.87855 0.32985 0.0
H4178 H 0.35538 0.88487 0.27332 0.0
H4179 H 0.33481 0.8511 0.26444 0.0
C4180 C 0.39338 0.92942 0.30532 0.0
C4181 C 0.38736 0.94377 0.31574 0.0
C4182 C 0.38139 0.91002 0.30126 0.0
C4183 C 0.36318 0.90445 0.30767 0.0
C4184 C 0.35741 0.91847 0.31876 0.0
C4185 C 0.36936 0.93798 0.32271 0.0
C4186 C 0.32819 0.85336 0.31046 0.0
C4187 C 0.32623 0.84521 0.29204 0.0
C4188 C 0.33994 0.87274 0.31552 0.0
C4189 C 0.35011 0.88422 0.3023 0.0
C4190 C 0.3479 0.87621 0.28384 0.0
C4191 C 0.33601 0.85693 0.27874 0.0
H4192 H 0.58902 0.39091 0.56318 0.0
H4193 H 0.54814 0.39219 0.60306 0.0
H4194 H 0.58447 0.42125 0.55123 0.0
H4195 H 0.5434 0.42217 0.59089 0.0
H4196 H 0.52418 0.46248 0.5513 0.0
H4197 H 0.52962 0.43266 0.56335 0.0
H4198 H 0.58988 0.45733 0.55933 0.0
H4199 H 0.58444 0.48719 0.54711 0.0
C4200 C 0.57917 0.39767 0.56953 0.0
C4201 C 0.56887 0.38881 0.58407 0.0
C4202 C 0.57654 0.41511 0.56263 0.0
C4203 C 0.56346 0.42417 0.56998 0.0
C4204 C 0.55331 0.41545 0.58461 0.0
C4205 C 0.55602 0.39813 0.59158 0.0
C4206 C 0.53862 0.46161 0.55297 0.0
C4207 C 0.55386 0.47736 0.54821 0.0
C4208 C 0.54176 0.44449 0.56 0.0
C4209 C 0.56021 0.44251 0.56239 0.0
C4210 C 0.57546 0.4582 0.55753 0.0
C4211 C 0.57234 0.47542 0.55062 0.0
H4212 H 0.4025 0.7634 0.39015 0.0
H4213 H 0.43115 0.75576 0.34131 0.0
H4214 H 0.37629 0.76826 0.37098 0.0
H4215 H 0.40439 0.7593 0.3221 0.0
H4216 H 0.36445 0.78934 0.29378 0.0
H4217 H 0.39017 0.78373 0.31308 0.0
H4218 H 0.34979 0.75285 0.34987 0.0
H4219 H 0.32408 0.75915 0.33086 0.0
C4220 C 0.40323 0.76266 0.37532 0.0
C4221 C 0.41914 0.75929 0.36738 0.0
C4222 C 0.38799 0.76517 0.36426 0.0
C4223 C 0.38812 0.76427 0.3449 0.0
C4224 C 0.40384 0.76046 0.33694 0.0
C4225 C 0.41913 0.75809 0.348 0.0
C4226 C 0.361 0.78132 0.30597 0.0
C4227 C 0.34212 0.77467 0.31068 0.0
C4228 C 0.3758 0.77796 0.31702 0.0
C4229 C 0.37218 0.7677 0.33307 0.0
C4230 C 0.35325 0.76101 0.33777 0.0
C4231 C 0.33844 0.76451 0.32677 0.0
H4232 H 0.07456 0.68457 0.10854 0.0
H4233 H 0.06314 0.70073 0.05363 0.0
H4234 H 0.07084 0.65039 0.0962 0.0
H4235 H 0.05908 0.66634 0.04137 0.0
H4236 H 0.03242 0.59812 0.03003 0.0
H4237 H 0.03718 0.63263 0.04201 0.0
H4238 H 0.08594 0.63032 0.07669 0.0
H4239 H 0.0811 0.59559 0.0648 0.0
C4240 C 0.07147 0.68097 0.09379 0.0
C4241 C 0.06925 0.69564 0.08213 0.0
C4242 C 0.0693 0.66126 0.08672 0.0
C4243 C 0.06468 0.65553 0.06777 0.0
C4244 C 0.0624 0.67013 0.05608 0.0
C4245 C 0.06469 0.6899 0.06314 0.0
C4246 C 0.04419 0.6049 0.04021 0.0
C4247 C 0.05636 0.59393 0.04644 0.0
C4248 C 0.04699 0.62481 0.047 0.0
C4249 C 0.06197 0.63436 0.06031 0.0
C4250 C 0.07414 0.62341 0.06658 0.0
C4251 C 0.07142 0.6035 0.05968 0.0
H4252 H 0.09975 0.3058 0.86295 0.0
H4253 H 0.0932 0.24307 0.86827 0.0
H4254 H 0.12724 0.30784 0.84513 0.0
H4255 H 0.12089 0.2452 0.85081 0.0
H4256 H 0.15851 0.25211 0.80186 0.0
H4257 H 0.13075 0.25003 0.81923 0.0
H4258 H 0.16029 0.30626 0.84994 0.0
H4259 H 0.18792 0.30855 0.8323 0.0
C4260 C 0.10412 0.29243 0.86024 0.0
C4261 C 0.09427 0.27428 0.86706 0.0
C4262 C 0.11999 0.29364 0.8502 0.0
C4263 C 0.12632 0.2767 0.84658 0.0
C4264 C 0.11633 0.2585 0.85322 0.0
C4265 C 0.10056 0.25733 0.86338 0.0
C4266 C 0.15905 0.26409 0.81225 0.0
C4267 C 0.17545 0.28051 0.81566 0.0
C4268 C 0.14319 0.2628 0.82232 0.0
C4269 C 0.14327 0.27799 0.83597 0.0
C4270 C 0.15968 0.29441 0.8394 0.0
C4271 C 0.17559 0.29561 0.82943 0.0
H4272 H 0.55758 0.65629 0.92494 0.0
H4273 H 0.53361 0.67968 0.97072 0.0
H4274 H 0.5572 0.62669 0.94111 0.0
H4275 H 0.53265 0.64979 0.98662 0.0
H4276 H 0.54621 0.60044 0.02001 0.0
H4277 H 0.54666 0.63008 0.00376 0.0
H4278 H 0.5424 0.5956 0.95166 0.0
H4279 H 0.5422 0.566 0.96806 0.0
C4280 C 0.55222 0.6554 0.93847 0.0
C4281 C 0.54569 0.67121 0.94612 0.0
C4282 C 0.55178 0.63792 0.94786 0.0
C4283 C 0.54488 0.63505 0.9656 0.0
C4284 C 0.53835 0.65086 0.97325 0.0
C4285 C 0.53869 0.66829 0.96382 0.0
C4286 C 0.54531 0.59898 0.00507 0.0
C4287 C 0.54412 0.5802 0.99569 0.0
C4288 C 0.54546 0.61628 0.99554 0.0
C4289 C 0.54456 0.61602 0.97597 0.0
C4290 C 0.54339 0.59717 0.96659 0.0
C4291 C 0.54313 0.57982 0.97615 0.0
H4292 H 0.1543 0.81408 0.72606 0.0
H4293 H 0.14311 0.75414 0.70052 0.0
H4294 H 0.18516 0.81271 0.73882 0.0
H4295 H 0.17384 0.75276 0.71337 0.0
H4296 H 0.22624 0.74775 0.74923 0.0
H4297 H 0.19526 0.74929 0.73655 0.0
H4298 H 0.21688 0.81355 0.73791 0.0
H4299 H 0.24776 0.81191 0.75086 0.0
C4300 C 0.15819 0.80053 0.72288 0.0
C4301 C 0.14522 0.78424 0.71191 0.0
C4302 C 0.17635 0.79973 0.73039 0.0
C4303 C 0.18286 0.78256 0.72753 0.0
C4304 C 0.16992 0.7663 0.71655 0.0
C4305 C 0.15181 0.76712 0.709 0.0
C4306 C 0.22454 0.76231 0.74687 0.0
C4307 C 0.24016 0.77966 0.75133 0.0
C4308 C 0.20646 0.76323 0.73934 0.0
C4309 C 0.2027 0.78159 0.7358 0.0
C4310 C 0.21839 0.79896 0.74036 0.0
C4311 C 0.2365 0.79802 0.74782 0.0
H4312 H 0.03934 0.38726 0.42246 0.0
H4313 H 0.06319 0.37184 0.47294 0.0
H4314 H 0.03793 0.4186 0.43813 0.0
H4315 H 0.06231 0.40347 0.48846 0.0
H4316 H 0.0441 0.45485 0.51793 0.0
H4317 H 0.04529 0.42344 0.50211 0.0
H4318 H 0.0526 0.45158 0.45093 0.0
H4319 H 0.05116 0.48299 0.46684 0.0
C4320 C 0.04429 0.39032 0.43693 0.0
C4321 C 0.05135 0.37627 0.4461 0.0
C4322 C 0.04368 0.40876 0.44602 0.0
C4323 C 0.04997 0.41428 0.46491 0.0
C4324 C 0.05703 0.40023 0.47409 0.0
C4325 C 0.05776 0.38185 0.46496 0.0
C4326 C 0.04596 0.4545 0.50328 0.0
C4327 C 0.04749 0.472 0.49394 0.0
C4328 C 0.04679 0.43622 0.49407 0.0
C4329 C 0.04911 0.43427 0.4749 0.0
C4330 C 0.05057 0.45182 0.46554 0.0
C4331 C 0.04984 0.47016 0.4748 0.0
H4332 H 0.44633 0.31046 0.21447 0.0
H4333 H 0.43379 0.24648 0.21552 0.0
H4334 H 0.41668 0.30926 0.22773 0.0
H4335 H 0.40447 0.24541 0.22963 0.0
H4336 H 0.34412 0.24411 0.24667 0.0
H4337 H 0.37377 0.24481 0.23285 0.0
H4338 H 0.39538 0.30808 0.24892 0.0
H4339 H 0.36561 0.30729 0.2622 0.0
C4340 C 0.43747 0.29594 0.21739 0.0
C4341 C 0.44349 0.27861 0.21338 0.0
C4342 C 0.42003 0.29527 0.22548 0.0
C4343 C 0.40716 0.27721 0.2303 0.0
C4344 C 0.41317 0.25985 0.22631 0.0
C4345 C 0.43062 0.26052 0.21818 0.0
C4346 C 0.35515 0.25825 0.24737 0.0
C4347 C 0.35176 0.27561 0.25591 0.0
C4348 C 0.37261 0.2587 0.23933 0.0
C4349 C 0.38798 0.27655 0.23926 0.0
C4350 C 0.3845 0.29385 0.24797 0.0
C4351 C 0.36706 0.2934 0.25594 0.0
H4352 H 0.64124 0.49076 0.42425 0.0
H4353 H 0.59254 0.49395 0.38978 0.0
H4354 H 0.62438 0.49373 0.4517 0.0
H4355 H 0.57564 0.49634 0.41714 0.0
H4356 H 0.54628 0.48739 0.47055 0.0
H4357 H 0.56236 0.47804 0.44456 0.0
H4358 H 0.61418 0.52302 0.46537 0.0
H4359 H 0.5982 0.53241 0.49137 0.0
C4360 C 0.62687 0.49181 0.42251 0.0
C4361 C 0.61829 0.49228 0.40483 0.0
C4362 C 0.61725 0.49348 0.4382 0.0
C4363 C 0.59879 0.4954 0.43649 0.0
C4364 C 0.5898 0.49468 0.41882 0.0
C4365 C 0.59947 0.49321 0.40314 0.0
C4366 C 0.56114 0.49519 0.46965 0.0
C4367 C 0.57095 0.51076 0.48289 0.0
C4368 C 0.5703 0.48985 0.45477 0.0
C4369 C 0.58947 0.49979 0.453 0.0
C4370 C 0.59942 0.51497 0.46652 0.0
C4371 C 0.59022 0.52048 0.48128 0.0
H4372 H 0.28685 0.83361 0.06699 0.0
H4373 H 0.3073 0.89116 0.09843 0.0
H4374 H 0.29372 0.81726 0.09417 0.0
H4375 H 0.31448 0.87484 0.12536 0.0
H4376 H 0.34352 0.84126 0.16327 0.0
H4377 H 0.33725 0.8558 0.13476 0.0
H4378 H 0.28213 0.81198 0.12591 0.0
H4379 H 0.28852 0.79724 0.15426 0.0
C4380 C 0.29264 0.84274 0.07971 0.0
C4381 C 0.2966 0.86369 0.08053 0.0
C4382 C 0.29665 0.83339 0.09522 0.0
C4383 C 0.3048 0.84482 0.11177 0.0
C4384 C 0.30856 0.86571 0.11265 0.0
C4385 C 0.30443 0.87504 0.09723 0.0
C4386 C 0.3302 0.83457 0.15507 0.0
C4387 C 0.31646 0.8182 0.16098 0.0
C4388 C 0.32654 0.84298 0.13888 0.0
C4389 C 0.30915 0.83508 0.12824 0.0
C4390 C 0.29568 0.8183 0.13382 0.0
C4391 C 0.29927 0.80998 0.15008 0.0
H4392 H 0.03837 0.55564 0.87543 0.0
H4393 H 1.01041 0.59296 0.90532 0.0
H4394 H 0.05729 0.55428 0.90373 0.0
H4395 H 0.02964 0.59195 0.93341 0.0
H4396 H 0.04064 0.52321 0.96013 0.0
H4397 H 0.03818 0.53469 0.92945 0.0
H4398 H 0.06306 0.59593 0.95187 0.0
H4399 H 0.06605 0.58424 0.98277 0.0
C4400 C 0.03673 0.5641 0.88789 0.0
C4401 C 0.02253 0.5739 0.88834 0.0
C4402 C 0.04766 0.56344 0.904 0.0
C4403 C 0.04467 0.57276 0.9207 0.0
C4404 C 0.03226 0.58473 0.92064 0.0
C4405 C 0.02121 0.58526 0.90455 0.0
C4406 C 0.04606 0.53906 0.9584 0.0
C4407 C 0.05339 0.5529 0.97366 0.0
C4408 C 0.04484 0.54563 0.94085 0.0
C4409 C 0.05053 0.56619 0.93835 0.0
C4410 C 0.05874 0.58001 0.95351 0.0
C4411 C 0.06042 0.57335 0.97108 0.0
H4412 H 0.28369 0.21203 0.63135 0.0
H4413 H 0.31296 0.27373 0.6238 0.0
H4414 H 0.28208 0.22106 0.66386 0.0
H4415 H 0.31206 0.28242 0.65668 0.0
H4416 H 0.32472 0.28369 0.72075 0.0
H4417 H 0.32556 0.27578 0.68767 0.0
H4418 H 0.2666 0.2412 0.68448 0.0
H4419 H 0.26566 0.24931 0.71758 0.0
C4420 C 0.28963 0.22759 0.63641 0.0
C4421 C 0.29831 0.24209 0.62446 0.0
C4422 C 0.28877 0.23274 0.65525 0.0
C4423 C 0.29687 0.2525 0.66302 0.0
C4424 C 0.30579 0.267 0.65127 0.0
C4425 C 0.30638 0.26193 0.63231 0.0
C4426 C 0.31188 0.27443 0.71303 0.0
C4427 C 0.29511 0.26715 0.72199 0.0
C4428 C 0.31235 0.26999 0.69398 0.0
C4429 C 0.29617 0.25781 0.68329 0.0
C4430 C 0.2794 0.25049 0.69224 0.0
C4431 C 0.27883 0.25524 0.71125 0.0
H4432 H 0.58128 0.52659 0.2455 0.0
H4433 H 0.63261 0.52876 0.21875 0.0
H4434 H 0.56626 0.53231 0.21626 0.0
H4435 H 0.6174 0.53375 0.18968 0.0
H4436 H 0.5772 0.51909 0.13765 0.0
H4437 H 0.58976 0.5128 0.16761 0.0
H4438 H 0.5714 0.56049 0.19366 0.0
H4439 H 0.55918 0.56725 0.16351 0.0
C4440 C 0.58937 0.52831 0.23346 0.0
C4441 C 0.60809 0.52697 0.23446 0.0
C4442 C 0.58075 0.53153 0.21675 0.0
C4443 C 0.59063 0.53325 0.20074 0.0
C4444 C 0.60934 0.53208 0.20176 0.0
C4445 C 0.618 0.5291 0.21842 0.0
C4446 C 0.57595 0.52838 0.14971 0.0
C4447 C 0.56746 0.5439 0.14814 0.0
C4448 C 0.58306 0.52468 0.16686 0.0
C4449 C 0.58167 0.53627 0.18287 0.0
C4450 C 0.57254 0.55128 0.1815 0.0
C4451 C 0.56555 0.55512 0.16426 0.0
H4452 H 0.26664 0.87832 0.88958 0.0
H4453 H 0.26316 0.82351 0.91538 0.0
H4454 H 0.2679 0.86138 0.85958 0.0
H4455 H 0.26509 0.80677 0.88548 0.0
H4456 H 0.3006 0.83325 0.81845 0.0
H4457 H 0.29275 0.84936 0.84621 0.0
H4458 H 0.24937 0.7949 0.85456 0.0
H4459 H 0.25743 0.77857 0.82692 0.0
C4460 C 0.26577 0.86256 0.88879 0.0
C4461 C 0.26494 0.85226 0.90484 0.0
C4462 C 0.26672 0.85293 0.87165 0.0
C4463 C 0.26682 0.83283 0.87022 0.0
C4464 C 0.26494 0.82225 0.88612 0.0
C4465 C 0.26401 0.83187 0.90326 0.0
C4466 C 0.28934 0.8247 0.82614 0.0
C4467 C 0.27978 0.80456 0.82058 0.0
C4468 C 0.28471 0.83401 0.84196 0.0
C4469 C 0.27044 0.82339 0.85256 0.0
C4470 C 0.26056 0.80339 0.84676 0.0
C4471 C 0.26516 0.79407 0.8309 0.0
H4472 H 0.01259 0.5668 0.73221 0.0
H4473 H 0.96403 0.5181 0.71015 0.0
H4474 H 0.02967 0.56131 0.70554 0.0
H4475 H 0.98108 0.51259 0.68361 0.0
H4476 H 0.0232 0.49385 0.64964 0.0
H4477 H 1.00871 0.50038 0.67772 0.0
H4478 H 0.02814 0.56392 0.67167 0.0
H4479 H 0.04317 0.55743 0.64388 0.0
C4480 C 1.0055 0.55511 0.72155 0.0
C4481 C 0.98703 0.54281 0.72326 0.0
C4482 C 0.01529 0.55192 0.70635 0.0
C4483 C 1.00676 0.53638 0.69266 0.0
C4484 C 0.98815 0.52439 0.69418 0.0
C4485 C 0.97837 0.52759 0.70933 0.0
C4486 C 0.02471 0.50922 0.65453 0.0
C4487 C 0.03421 0.52513 0.64457 0.0
C4488 C 0.01623 0.51294 0.67045 0.0
C4489 C 0.01711 0.53263 0.6767 0.0
C4490 C 0.02728 0.5486 0.66717 0.0
C4491 C 0.03574 0.54488 0.65122 0.0
H4492 H 0.27593 0.22274 0.4188 0.0
H4493 H 0.33533 0.25535 0.42897 0.0
H4494 H 0.27696 0.23028 0.3866 0.0
H4495 H 0.33652 0.26229 0.39653 0.0
H4496 H 0.32663 0.28834 0.34078 0.0
H4497 H 0.32691 0.2811 0.37321 0.0
H4498 H 0.28828 0.22228 0.358 0.0
H4499 H 0.28777 0.22962 0.32576 0.0
C4500 C 0.28924 0.23161 0.41427 0.0
C4501 C 0.30552 0.23842 0.42679 0.0
C4502 C 0.2899 0.23572 0.39559 0.0
C4503 C 0.30686 0.24685 0.38865 0.0
C4504 C 0.32312 0.25381 0.4012 0.0
C4505 C 0.32248 0.24962 0.41989 0.0
C4506 C 0.31835 0.27377 0.34429 0.0
C4507 C 0.30718 0.25963 0.33042 0.0
C4508 C 0.31852 0.26957 0.363 0.0
C4509 C 0.30747 0.25111 0.36852 0.0
C4510 C 0.2967 0.23682 0.35455 0.0
C4511 C 0.29655 0.24099 0.33589 0.0
H4512 H 0.34445 0.55616 0.51974 0.0
H4513 H 0.39462 0.60653 0.51894 0.0
H4514 H 0.36216 0.53362 0.50866 0.0
H4515 H 0.41199 0.58409 0.50741 0.0
H4516 H 0.43441 0.54258 0.47289 0.0
H4517 H 0.41167 0.5612 0.47894 0.0
H4518 H 0.39029 0.52293 0.52191 0.0
H4519 H 0.4132 0.50448 0.51609 0.0
C4520 C 0.35924 0.56243 0.51726 0.0
C4521 C 0.36814 0.58316 0.52025 0.0
C4522 C 0.36929 0.54953 0.51079 0.0
C4523 C 0.38833 0.55716 0.507 0.0
C4524 C 0.39718 0.57786 0.50985 0.0
C4525 C 0.38722 0.59071 0.51647 0.0
C4526 C 0.42464 0.53795 0.48343 0.0
C4527 C 0.42576 0.52228 0.49421 0.0
C4528 C 0.41167 0.5486 0.48688 0.0
C4529 C 0.39948 0.54368 0.50108 0.0
C4530 C 0.3995 0.52698 0.51083 0.0
C4531 C 0.41257 0.51638 0.50745 0.0
H4532 H 0.89073 0.9634 0.54847 0.0
H4533 H 0.90001 0.91849 0.50955 0.0
H4534 H 0.92339 0.98373 0.54683 0.0
H4535 H 0.93182 0.93947 0.50668 0.0
H4536 H 0.99405 0.96908 0.51969 0.0
H4537 H 0.96149 0.94981 0.52227 0.0
H4538 H 0.94548 1.00458 0.52908 0.0
H4539 H 0.97865 0.024 0.52745 0.0
C4540 C 0.89964 0.95783 0.53952 0.0
C4541 C 0.89254 0.93916 0.52918 0.0
C4542 C 0.91835 0.9697 0.53834 0.0
C4543 C 0.93044 0.96332 0.52666 0.0
C4544 C 0.9232 0.94482 0.51613 0.0
C4545 C 0.90467 0.93286 0.51752 0.0
C4546 C 0.9836 0.97707 0.52164 0.0
C4547 C 0.98894 0.9981 0.5232 0.0
C4548 C 0.9648 0.96597 0.52303 0.0
C4549 C 0.95061 0.97551 0.52566 0.0
C4550 C 0.95597 0.99663 0.52725 0.0
C4551 C 0.97496 0.0078 0.52617 0.0
H4552 H 0.85863 0.08529 0.29162 0.0
H4553 H 0.88332 0.12894 0.25372 0.0
H4554 H 0.83278 0.10038 0.29484 0.0
H4555 H 0.85717 0.14347 0.25654 0.0
H4556 H 0.79884 0.15164 0.25084 0.0
H4557 H 0.82121 0.13196 0.24805 0.0
H4558 H 0.82967 0.13461 0.30744 0.0
H4559 H 0.80763 0.1547 0.31031 0.0
C4560 C 0.85866 0.09818 0.28411 0.0
C4561 C 0.87307 0.10591 0.2724 0.0
C4562 C 0.84378 0.10668 0.28586 0.0
C4563 C 0.84291 0.12287 0.27576 0.0
C4564 C 0.85733 0.1307 0.26418 0.0
C4565 C 0.8723 0.12238 0.26259 0.0
C4566 C 0.80532 0.14784 0.2633 0.0
C4567 C 0.80171 0.15497 0.28079 0.0
C4568 C 0.8181 0.1366 0.26169 0.0
C4569 C 0.82734 0.1321 0.27753 0.0
C4570 C 0.82268 0.13788 0.29503 0.0
C4571 C 0.80999 0.1493 0.29665 0.0
H4572 H 0.70875 0.06433 0.04298 0.0
H4573 H 0.70014 0.1224 0.05435 0.0
H4574 H 0.67443 0.04916 0.03846 0.0
H4575 H 0.66593 0.10715 0.05058 0.0
H4576 H 0.6091 0.07814 0.01773 0.0
H4577 H 0.6432 0.09228 0.02422 0.0
H4578 H 0.64505 0.04164 0.05462 0.0
H4579 H 0.61083 0.02721 0.04784 0.0
C4580 C 0.69952 0.07381 0.04467 0.0
C4581 C 0.70714 0.09457 0.0489 0.0
C4582 C 0.67989 0.0651 0.04226 0.0
C4583 C 0.66752 0.077 0.04402 0.0
C4584 C 0.67513 0.09765 0.04886 0.0
C4585 C 0.69473 0.10634 0.05126 0.0
C4586 C 0.61674 0.06997 0.02578 0.0
C4587 C 0.60726 0.05155 0.03228 0.0
C4588 C 0.63627 0.07816 0.02961 0.0
C4589 C 0.64677 0.06814 0.04005 0.0
C4590 C 0.63734 0.04963 0.04643 0.0
C4591 C 0.61775 0.04141 0.0426 0.0
H4592 H 0.22804 0.44073 0.22675 0.0
H4593 H 0.22195 0.46284 0.2821 0.0
H4594 H 0.25057 0.42409 0.23901 0.0
H4595 H 0.24458 0.44643 0.29436 0.0
H4596 H 0.30073 0.40834 0.26485 0.0
H4597 H 0.28228 0.4302 0.25457 0.0
H4598 H 0.24461 0.41212 0.29771 0.0
H4599 H 0.26346 0.39089 0.30838 0.0
C4600 C 0.23168 0.44216 0.2415 0.0
C4601 C 0.22308 0.45278 0.2535 0.0
C4602 C 0.24464 0.43276 0.24853 0.0
C4603 C 0.2493 0.43393 0.26766 0.0
C4604 C 0.24103 0.445 0.27959 0.0
C4605 C 0.22805 0.45432 0.27258 0.0
C4606 C 0.28881 0.40946 0.27242 0.0
C4607 C 0.28345 0.39786 0.28736 0.0
C4608 C 0.27811 0.42176 0.26639 0.0
C4609 C 0.26189 0.42269 0.2752 0.0
C4610 C 0.2571 0.41182 0.2907 0.0
C4611 C 0.26779 0.39954 0.29672 0.0
H4612 H 0.20812 0.42026 0.00389 0.0
H4613 H 0.21901 0.43222 0.06307 0.0
H4614 H 0.1859 0.44021 0.00402 0.0
H4615 H 0.19655 0.45199 0.06319 0.0
H4616 H 0.14189 0.4715 0.05791 0.0
H4617 H 0.16258 0.44964 0.0578 0.0
H4618 H 0.18688 0.47537 0.00923 0.0
H4619 H 0.16598 0.49682 0.0091 0.0
C4620 C 0.20588 0.42721 0.01694 0.0
C4621 C 0.21555 0.42467 0.03346 0.0
C4622 C 0.19307 0.43864 0.01701 0.0
C4623 C 0.18947 0.44781 0.0336 0.0
C4624 C 0.1988 0.44496 0.05018 0.0
C4625 C 0.21169 0.43358 0.0501 0.0
C4626 C 0.15152 0.47234 0.04711 0.0
C4627 C 0.15229 0.48598 0.03355 0.0
C4628 C 0.16351 0.45995 0.04715 0.0
C4629 C 0.17643 0.46073 0.03352 0.0
C4630 C 0.177 0.4742 0.01984 0.0
C4631 C 0.16514 0.48667 0.01988 0.0
H4632 H 0.84404 0.94609 0.25926 0.0
H4633 H 0.88457 0.92528 0.22907 0.0
H4634 H 0.82641 0.91166 0.26294 0.0
H4635 H 0.866 0.89097 0.23129 0.0
H4636 H 0.847 0.8357 0.26297 0.0
H4637 H 0.86182 0.86942 0.25496 0.0
H4638 H 0.80686 0.88025 0.25012 0.0
H4639 H 0.79211 0.8466 0.25906 0.0
C4640 C 0.84906 0.93421 0.25316 0.0
C4641 C 0.86599 0.93856 0.24419 0.0
C4642 C 0.83875 0.9144 0.25502 0.0
C4643 C 0.84494 0.89849 0.24767 0.0
C4644 C 0.86108 0.90285 0.23755 0.0
C4645 C 0.87158 0.92262 0.23599 0.0
C4646 C 0.83805 0.84524 0.26011 0.0
C4647 C 0.81842 0.83856 0.26173 0.0
C4648 C 0.84653 0.86456 0.25534 0.0
C4649 C 0.83554 0.87758 0.25175 0.0
C4650 C 0.8158 0.87073 0.25303 0.0
C4651 C 0.80733 0.85144 0.2581 0.0
H4652 H 0.73632 0.11034 0.77412 0.0
H4653 H 0.68539 0.12906 0.76801 0.0
H4654 H 0.75545 0.14537 0.77844 0.0
H4655 H 0.70446 0.16386 0.77136 0.0
H4656 H 0.74084 0.22356 0.79676 0.0
H4657 H 0.72341 0.18823 0.79462 0.0
H4658 H 0.76543 0.1748 0.76112 0.0
H4659 H 0.78327 0.21028 0.76373 0.0
C4660 C 0.72922 0.12191 0.77374 0.0
C4661 C 0.70935 0.11693 0.77071 0.0
C4662 C 0.74018 0.14196 0.77599 0.0
C4663 C 0.73147 0.15739 0.77527 0.0
C4664 C 0.71161 0.15235 0.77226 0.0
C4665 C 0.70068 0.13238 0.77009 0.0
C4666 C 0.74641 0.21309 0.78896 0.0
C4667 C 0.76335 0.21971 0.78028 0.0
C4668 C 0.73636 0.19283 0.78768 0.0
C4669 C 0.74292 0.17873 0.77754 0.0
C4670 C 0.76009 0.18528 0.76917 0.0
C4671 C 0.77025 0.2056 0.77057 0.0
loop_
_geom_bond_atom_site_label_1
_geom_bond_atom_site_label_2
_geom_bond_distance
_geom_bond_site_symmetry_2
_ccdc_geom_bond_type
Li0 N17 1.990 1_455 S
Li0 O60 1.956 . S
Li0 O61 1.970 . S
Li0 O62 1.961 . S
Li1 N25 1.990 . S
Li1 O60 1.970 . S
Li1 O61 1.956 . S
Li1 O63 1.961 . S
Li2 N47 1.990 . S
Li2 O60 1.961 . S
Li2 O62 1.956 . S
Li2 O63 1.970 . S
Li3 N53 1.990 . S
Li3 O61 1.961 . S
Li3 O62 1.970 . S
Li3 O63 1.956 . S
C4 C6 1.348 . S
C4 C7 1.356 . S
C4 O60 1.325 . S
N5 C8 1.314 . S
N5 C9 1.279 . S
C6 C4 1.348 . S
C6 C8 1.353 . S
C6 H64 0.929 . S
C7 C4 1.356 . S
C7 C9 1.358 . S
C7 H65 0.930 . S
C8 N5 1.314 . S
C8 C6 1.353 . S
C8 H66 0.930 . S
C9 N5 1.279 . S
C9 C7 1.358 . S
C9 H67 0.930 . S
C10 C13 1.348 . S
C10 C14 1.356 . S
C10 O61 1.325 1_655 S
C11 N12 1.279 . S
C11 C14 1.358 . S
C11 H68 0.930 . S
N12 C11 1.279 . S
N12 C15 1.314 . S
C13 C10 1.348 . S
C13 C15 1.353 . S
C13 H69 0.929 . S
C14 C10 1.356 . S
C14 C11 1.358 . S
C14 H70 0.930 1_655 S
C15 N12 1.314 . S
C15 C13 1.353 . S
C15 H71 0.930 . S
C16 N17 1.314 . S
C16 C21 1.353 . S
C16 H22 0.930 . S
N17 Li0 1.990 1_655 S
N17 C16 1.314 . S
N17 C19 1.279 . S
C18 C19 1.358 . S
C18 C20 1.356 . S
C18 H72 0.930 . S
C19 N17 1.279 . S
C19 C18 1.358 . S
C19 H23 0.930 . S
C20 C18 1.356 . S
C20 C21 1.348 . S
C21 C16 1.353 . S
C21 C20 1.348 . S
C21 H73 0.929 . S
H22 C16 0.930 . S
H23 C19 0.930 . S
C24 N25 1.314 . S
C24 C26 1.353 . S
C24 H30 0.930 . S
N25 Li1 1.990 . S
N25 C24 1.314 . S
N25 C28 1.279 . S
C26 C24 1.353 . S
C26 C29 1.348 . S
C26 H74 0.929 . S
C27 C28 1.358 . S
C27 C29 1.356 . S
C27 H75 0.930 . S
C28 N25 1.279 . S
C28 C27 1.358 . S
C28 H31 0.930 . S
C29 C26 1.348 . S
C29 C27 1.356 . S
H30 C24 0.930 . S
H31 C28 0.930 . S
C32 C34 1.348 . S
C32 C35 1.356 . S
C32 O62 1.325 . S
N33 C36 1.314 . S
N33 C37 1.279 . S
C34 C32 1.348 . S
C34 C36 1.353 . S
C34 H76 0.929 . S
C35 C32 1.356 . S
C35 C37 1.358 . S
C35 H77 0.930 . S
C36 N33 1.314 . S
C36 C34 1.353 . S
C36 H78 0.930 . S
C37 N33 1.279 . S
C37 C35 1.358 . S
C37 H79 0.930 . S
C38 C39 1.348 . S
C38 C40 1.356 . S
C38 O63 1.325 . S
C39 C38 1.348 . S
C39 C41 1.353 . S
C39 H80 0.929 . S
C40 C38 1.356 . S
C40 C42 1.358 . S
C40 H81 0.930 . S
C41 C39 1.353 . S
C41 N43 1.314 . S
C41 H82 0.930 . S
C42 C40 1.358 . S
C42 N43 1.279 . S
C42 H83 0.930 . S
N43 C41 1.314 . S
N43 C42 1.279 . S
C44 C46 1.353 . S
C44 N47 1.314 . S
C44 H50 0.930 . S
C45 N47 1.279 . S
C45 C48 1.358 . S
C45 H51 0.930 . S
C46 C44 1.353 . S
C46 C49 1.348 . S
C46 H84 0.929 . S
N47 Li2 1.990 . S
N47 C44 1.314 . S
N47 C45 1.279 . S
C48 C45 1.358 . S
C48 C49 1.356 . S
C48 H85 0.930 . S
C49 C46 1.348 . S
C49 C48 1.356 . S
H50 C44 0.930 . S
H51 C45 0.930 . S
C52 N53 1.314 . S
C52 C54 1.353 . S
C52 H58 0.951 . S
N53 Li3 1.990 . S
N53 C52 1.314 . S
N53 C56 1.279 . S
C54 C52 1.353 . S
C54 C57 1.348 . S
C54 H86 0.929 1_455 S
C55 C56 1.358 . S
C55 C57 1.356 . S
C55 H87 0.930 . S
C56 N53 1.279 . S
C56 C55 1.358 . S
C56 H59 0.930 . S
C57 C54 1.348 . S
C57 C55 1.356 . S
H58 C52 0.951 . S
H59 C56 0.930 . S
O60 Li0 1.956 . S
O60 Li1 1.970 . S
O60 Li2 1.961 . S
O60 C4 1.325 . S
O61 Li0 1.970 . S
O61 Li1 1.956 . S
O61 Li3 1.961 . S
O61 C10 1.325 1_455 S
O62 Li0 1.961 . S
O62 Li2 1.956 . S
O62 Li3 1.970 . S
O62 C32 1.325 . S
O63 Li1 1.961 . S
O63 Li2 1.970 . S
O63 Li3 1.956 . S
O63 C38 1.325 . S
H64 C6 0.929 . S
H65 C7 0.930 . S
H66 C8 0.930 . S
H67 C9 0.930 . S
H68 C11 0.930 . S
H69 C13 0.929 . S
H70 C14 0.930 1_455 S
H71 C15 0.930 . S
H72 C18 0.930 . S
H73 C21 0.929 . S
H74 C26 0.929 . S
H75 C27 0.930 . S
H76 C34 0.929 . S
H77 C35 0.930 . S
H78 C36 0.930 . S
H79 C37 0.930 . S
H80 C39 0.929 . S
H81 C40 0.930 . S
H82 C41 0.930 . S
H83 C42 0.930 . S
H84 C46 0.929 . S
H85 C48 0.930 . S
H86 C54 0.929 1_655 S
H87 C55 0.930 . S
Li88 N105 1.990 . S
Li88 O148 1.956 . S
Li88 O149 1.970 . S
Li88 O150 1.961 . S
Li89 N113 1.990 . S
Li89 O148 1.970 . S
Li89 O149 1.956 . S
Li89 O151 1.961 . S
Li90 N135 1.990 . S
Li90 O148 1.961 . S
Li90 O150 1.956 . S
Li90 O151 1.970 . S
Li91 N141 2.033 . S
Li91 O149 1.961 . S
Li91 O150 1.970 . S
Li91 O151 1.956 . S
C92 C94 1.348 . S
C92 C95 1.356 . S
C92 O148 1.325 . S
N93 C96 1.314 . S
N93 C97 1.279 . S
C94 C92 1.348 . S
C94 C96 1.353 . S
C94 H152 0.929 . S
C95 C92 1.356 . S
C95 C97 1.358 . S
C95 H153 0.930 . S
C96 N93 1.314 . S
C96 C94 1.353 . S
C96 H154 0.930 . S
C97 N93 1.279 . S
C97 C95 1.358 . S
C97 H155 0.930 . S
C98 C101 1.348 . S
C98 C102 1.356 . S
C98 O149 1.325 . S
C99 N100 1.279 . S
C99 C102 1.358 . S
C99 H156 0.930 . S
N100 C99 1.279 . S
N100 C103 1.314 . S
C101 C98 1.348 . S
C101 C103 1.353 . S
C101 H157 0.929 . S
C102 C98 1.356 . S
C102 C99 1.358 . S
C102 H158 0.930 . S
C103 N100 1.314 . S
C103 C101 1.353 . S
C103 H159 0.930 . S
C104 N105 1.314 . S
C104 C109 1.353 . S
C104 H110 0.930 . S
N105 Li88 1.990 . S
N105 C104 1.314 . S
N105 C107 1.279 . S
C106 C107 1.358 . S
C106 C108 1.356 . S
C106 H160 0.930 . S
C107 N105 1.279 . S
C107 C106 1.358 . S
C107 H111 0.930 . S
C108 C106 1.356 . S
C108 C109 1.348 . S
C109 C104 1.353 . S
C109 C108 1.348 . S
C109 H161 0.929 . S
H110 C104 0.930 . S
H111 C107 0.930 . S
C112 N113 1.314 . S
C112 C114 1.353 . S
C112 H118 0.930 . S
N113 Li89 1.990 . S
N113 C112 1.314 . S
N113 C116 1.279 . S
C114 C112 1.353 . S
C114 C117 1.348 . S
C114 H162 0.929 . S
C115 C116 1.358 . S
C115 C117 1.356 . S
C115 H163 0.930 . S
C116 N113 1.279 . S
C116 C115 1.358 . S
C116 H119 0.930 . S
C117 C114 1.348 . S
C117 C115 1.356 . S
H118 C112 0.930 . S
H119 C116 0.930 . S
C120 C122 1.348 1_455 S
C120 C123 1.356 . S
C120 O150 1.325 . S
N121 C124 1.314 . S
N121 C125 1.279 . S
C122 C120 1.348 1_655 S
C122 C124 1.353 . S
C122 H164 0.929 . S
C123 C120 1.356 . S
C123 C125 1.358 1_455 S
C123 H165 0.930 . S
C124 N121 1.314 . S
C124 C122 1.353 . S
C124 H166 0.930 . S
C125 N121 1.279 . S
C125 C123 1.358 1_655 S
C125 H167 0.930 . S
C126 C127 1.348 . S
C126 C128 1.356 . S
C126 O151 1.325 . S
C127 C126 1.348 . S
C127 C129 1.353 . S
C127 H168 0.929 . S
C128 C126 1.356 . S
C128 C130 1.358 . S
C128 H169 0.930 . S
C129 C127 1.353 . S
C129 N131 1.314 . S
C129 H170 0.930 . S
C130 C128 1.358 . S
C130 N131 1.279 . S
C130 H171 0.930 . S
N131 C129 1.314 . S
N131 C130 1.279 . S
C132 C134 1.353 . S
C132 N135 1.314 . S
C132 H138 0.930 . S
C133 N135 1.279 . S
C133 C136 1.358 . S
C133 H139 0.930 . S
C134 C132 1.353 . S
C134 C137 1.348 . S
C134 H172 0.929 . S
N135 Li90 1.990 . S
N135 C132 1.314 . S
N135 C133 1.279 . S
C136 C133 1.358 . S
C136 C137 1.356 . S
C136 H173 0.954 . S
C137 C134 1.348 . S
C137 C136 1.356 . S
H138 C132 0.930 . S
H139 C133 0.930 . S
C140 N141 1.278 1_655 S
C140 C142 1.353 . S
C140 H146 0.930 . S
N141 Li91 2.033 . S
N141 C140 1.278 1_455 S
N141 C144 1.266 1_455 S
C142 C140 1.353 . S
C142 C145 1.348 . S
C142 H174 0.929 . S
C143 C144 1.358 . S
C143 C145 1.356 . S
C143 H175 0.930 . S
C144 N141 1.266 1_655 S
C144 C143 1.358 . S
C144 H147 0.930 . S
C145 C142 1.348 . S
C145 C143 1.356 . S
H146 C140 0.930 . S
H147 C144 0.930 . S
O148 Li88 1.956 . S
O148 Li89 1.970 . S
O148 Li90 1.961 . S
O148 C92 1.325 . S
O149 Li88 1.970 . S
O149 Li89 1.956 . S
O149 Li91 1.961 . S
O149 C98 1.325 . S
O150 Li88 1.961 . S
O150 Li90 1.956 . S
O150 Li91 1.970 . S
O150 C120 1.325 . S
O151 Li89 1.961 . S
O151 Li90 1.970 . S
O151 Li91 1.956 . S
O151 C126 1.325 . S
H152 C94 0.929 . S
H153 C95 0.930 . S
H154 C96 0.930 . S
H155 C97 0.930 . S
H156 C99 0.930 . S
H157 C101 0.929 . S
H158 C102 0.930 . S
H159 C103 0.930 . S
H160 C106 0.930 . S
H161 C109 0.929 . S
H162 C114 0.929 . S
H163 C115 0.930 . S
H164 C122 0.929 . S
H165 C123 0.930 . S
H166 C124 0.930 . S
H167 C125 0.930 . S
H168 C127 0.929 . S
H169 C128 0.930 . S
H170 C129 0.930 . S
H171 C130 0.930 . S
H172 C134 0.929 . S
H173 C136 0.954 . S
H174 C142 0.929 . S
H175 C143 0.930 . S
Li176 N193 1.990 . S
Li176 O236 1.956 . S
Li176 O237 1.970 . S
Li176 O238 1.961 . S
Li177 N201 1.990 . S
Li177 O236 1.970 . S
Li177 O237 1.956 . S
Li177 O239 1.961 . S
Li178 N223 1.990 . S
Li178 O236 1.961 . S
Li178 O238 1.956 . S
Li178 O239 1.970 . S
Li179 N229 1.990 . S
Li179 O237 1.961 . S
Li179 O238 1.970 . S
Li179 O239 1.956 . S
C180 C182 1.348 . S
C180 C183 1.356 . S
C180 O236 1.325 . S
N181 C184 1.314 . S
N181 C185 1.279 . S
C182 C180 1.348 . S
C182 C184 1.353 . S
C182 H240 0.929 . S
C183 C180 1.356 . S
C183 C185 1.358 . S
C183 H241 0.930 . S
C184 N181 1.314 . S
C184 C182 1.353 . S
C184 H242 0.930 . S
C185 N181 1.279 . S
C185 C183 1.358 . S
C185 H243 0.930 . S
C186 C189 1.348 . S
C186 C190 1.356 . S
C186 O237 1.325 . S
C187 N188 1.279 . S
C187 C190 1.358 . S
C187 H244 0.930 . S
N188 C187 1.279 . S
N188 C191 1.314 . S
C189 C186 1.348 . S
C189 C191 1.353 . S
C189 H245 0.929 . S
C190 C186 1.356 . S
C190 C187 1.358 . S
C190 H246 0.930 . S
C191 N188 1.314 . S
C191 C189 1.353 . S
C191 H247 0.930 . S
C192 N193 1.314 . S
C192 C197 1.353 . S
C192 H198 0.930 . S
N193 Li176 1.990 . S
N193 C192 1.314 . S
N193 C195 1.279 . S
C194 C195 1.358 . S
C194 C196 1.356 . S
C194 H248 0.930 . S
C195 N193 1.279 . S
C195 C194 1.358 . S
C195 H199 0.930 . S
C196 C194 1.356 . S
C196 C197 1.348 . S
C197 C192 1.353 . S
C197 C196 1.348 . S
C197 H249 0.929 . S
H198 C192 0.930 . S
H199 C195 0.930 . S
C200 N201 1.314 . S
C200 C202 1.353 . S
C200 H206 0.930 . S
N201 Li177 1.990 . S
N201 C200 1.314 . S
N201 C204 1.279 . S
C202 C200 1.353 . S
C202 C205 1.348 . S
C202 H250 0.929 . S
C203 C204 1.358 . S
C203 C205 1.356 . S
C203 H251 0.930 . S
C204 N201 1.279 . S
C204 C203 1.358 . S
C204 H207 0.930 . S
C205 C202 1.348 . S
C205 C203 1.356 . S
H206 C200 0.930 . S
H207 C204 0.930 . S
C208 C210 1.348 . S
C208 C211 1.356 . S
C208 O238 1.325 . S
N209 C212 1.314 . S
N209 C213 1.279 . S
C210 C208 1.348 . S
C210 C212 1.353 . S
C210 H252 0.929 . S
C211 C208 1.356 . S
C211 C213 1.358 . S
C211 H253 0.930 . S
C212 N209 1.314 . S
C212 C210 1.353 . S
C212 H254 0.930 . S
C213 N209 1.279 . S
C213 C211 1.358 . S
C213 H255 0.930 . S
C214 C215 1.348 . S
C214 C216 1.356 . S
C214 O239 1.325 . S
C215 C214 1.348 . S
C215 C217 1.353 . S
C215 H256 0.929 . S
C216 C214 1.356 . S
C216 C218 1.358 . S
C216 H257 0.930 . S
C217 C215 1.353 . S
C217 N219 1.314 . S
C217 H258 0.930 . S
C218 C216 1.358 . S
C218 N219 1.279 . S
C218 H259 0.930 . S
N219 C217 1.314 . S
N219 C218 1.279 . S
C220 C222 1.353 . S
C220 N223 1.314 . S
C220 H226 0.930 . S
C221 N223 1.279 . S
C221 C224 1.358 . S
C221 H227 0.930 . S
C222 C220 1.353 . S
C222 C225 1.348 . S
C222 H260 0.929 . S
N223 Li178 1.990 . S
N223 C220 1.314 . S
N223 C221 1.279 . S
C224 C221 1.358 . S
C224 C225 1.356 . S
C224 H261 0.930 . S
C225 C222 1.348 . S
C225 C224 1.356 . S
H226 C220 0.930 . S
H227 C221 0.930 . S
C228 N229 1.314 . S
C228 C230 1.353 . S
C228 H234 0.930 . S
N229 Li179 1.990 . S
N229 C228 1.314 . S
N229 C232 1.279 . S
C230 C228 1.353 . S
C230 C233 1.348 . S
C230 H262 0.929 . S
C231 C232 1.358 . S
C231 C233 1.356 . S
C231 H263 0.930 . S
C232 N229 1.279 . S
C232 C231 1.358 . S
C232 H235 0.930 . S
C233 C230 1.348 . S
C233 C231 1.356 . S
H234 C228 0.930 . S
H235 C232 0.930 . S
O236 Li176 1.956 . S
O236 Li177 1.970 . S
O236 Li178 1.961 . S
O236 C180 1.325 . S
O237 Li176 1.970 . S
O237 Li177 1.956 . S
O237 Li179 1.961 . S
O237 C186 1.325 . S
O238 Li176 1.961 . S
O238 Li178 1.956 . S
O238 Li179 1.970 . S
O238 C208 1.325 . S
O239 Li177 1.961 . S
O239 Li178 1.970 . S
O239 Li179 1.956 . S
O239 C214 1.325 . S
H240 C182 0.929 . S
H241 C183 0.930 . S
H242 C184 0.930 . S
H243 C185 0.930 . S
H244 C187 0.930 . S
H245 C189 0.929 . S
H246 C190 0.930 . S
H247 C191 0.930 . S
H248 C194 0.930 . S
H249 C197 0.929 . S
H250 C202 0.929 . S
H251 C203 0.930 . S
H252 C210 0.929 . S
H253 C211 0.930 . S
H254 C212 0.930 . S
H255 C213 0.930 . S
H256 C215 0.929 . S
H257 C216 0.930 . S
H258 C217 0.930 . S
H259 C218 0.930 . S
H260 C222 0.929 . S
H261 C224 0.930 . S
H262 C230 0.929 . S
H263 C231 0.930 . S
Li264 N281 1.990 . S
Li264 O324 1.956 . S
Li264 O325 1.970 . S
Li264 O326 1.961 . S
Li265 N289 1.990 . S
Li265 O324 1.970 . S
Li265 O325 1.956 . S
Li265 O327 1.961 . S
Li266 N311 1.990 . S
Li266 O324 1.961 . S
Li266 O326 1.956 . S
Li266 O327 1.970 . S
Li267 N317 1.990 . S
Li267 O325 1.961 . S
Li267 O326 1.970 . S
Li267 O327 1.956 . S
C268 C270 1.348 . S
C268 C271 1.356 . S
C268 O324 1.325 . S
N269 C272 1.314 . S
N269 C273 1.279 . S
C270 C268 1.348 . S
C270 C272 1.353 . S
C270 H328 0.929 . S
C271 C268 1.356 . S
C271 C273 1.358 . S
C271 H329 0.930 . S
C272 N269 1.314 . S
C272 C270 1.353 . S
C272 H330 0.930 . S
C273 N269 1.279 . S
C273 C271 1.358 . S
C273 H331 0.930 . S
C274 C277 1.348 . S
C274 C278 1.356 . S
C274 O325 1.325 . S
C275 N276 1.279 . S
C275 C278 1.358 . S
C275 H332 0.930 . S
N276 C275 1.279 . S
N276 C279 1.314 . S
C277 C274 1.348 . S
C277 C279 1.353 . S
C277 H333 0.929 . S
C278 C274 1.356 . S
C278 C275 1.358 . S
C278 H334 0.930 . S
C279 N276 1.314 . S
C279 C277 1.353 . S
C279 H335 0.930 . S
C280 N281 1.314 . S
C280 C285 1.353 . S
C280 H286 0.930 . S
N281 Li264 1.990 . S
N281 C280 1.314 . S
N281 C283 1.279 . S
C282 C283 1.358 . S
C282 C284 1.356 . S
C282 H336 0.930 . S
C283 N281 1.279 . S
C283 C282 1.358 . S
C283 H287 0.930 . S
C284 C282 1.356 . S
C284 C285 1.348 . S
C285 C280 1.353 . S
C285 C284 1.348 . S
C285 H337 0.929 . S
H286 C280 0.930 . S
H287 C283 0.930 . S
C288 N289 1.314 . S
C288 C290 1.353 . S
C288 H294 0.930 . S
N289 Li265 1.990 . S
N289 C288 1.314 . S
N289 C292 1.279 . S
C290 C288 1.353 . S
C290 C293 1.348 . S
C290 H338 0.929 . S
C291 C292 1.358 . S
C291 C293 1.356 . S
C291 H339 0.930 . S
C292 N289 1.279 . S
C292 C291 1.358 . S
C292 H295 0.930 . S
C293 C290 1.348 . S
C293 C291 1.356 . S
H294 C288 0.930 . S
H295 C292 0.930 . S
C296 C298 1.348 . S
C296 C299 1.356 . S
C296 O326 1.325 . S
N297 C300 1.314 . S
N297 C301 1.279 . S
C298 C296 1.348 . S
C298 C300 1.353 . S
C298 H340 0.929 . S
C299 C296 1.356 . S
C299 C301 1.358 . S
C299 H341 0.930 . S
C300 N297 1.314 . S
C300 C298 1.353 . S
C300 H342 0.930 . S
C301 N297 1.279 . S
C301 C299 1.358 . S
C301 H343 0.930 . S
C302 C303 1.348 . S
C302 C304 1.356 . S
C302 O327 1.325 . S
C303 C302 1.348 . S
C303 C305 1.353 . S
C303 H344 0.929 . S
C304 C302 1.356 . S
C304 C306 1.358 . S
C304 H345 0.930 . S
C305 C303 1.353 . S
C305 N307 1.314 . S
C305 H346 0.930 . S
C306 C304 1.358 . S
C306 N307 1.279 . S
C306 H347 0.930 . S
N307 C305 1.314 . S
N307 C306 1.279 . S
C308 C310 1.353 . S
C308 N311 1.314 . S
C308 H314 0.930 . S
C309 N311 1.279 . S
C309 C312 1.358 . S
C309 H315 0.930 . S
C310 C308 1.353 . S
C310 C313 1.348 . S
C310 H348 0.929 . S
N311 Li266 1.990 . S
N311 C308 1.314 . S
N311 C309 1.279 . S
C312 C309 1.358 . S
C312 C313 1.356 . S
C312 H349 0.930 . S
C313 C310 1.348 . S
C313 C312 1.356 . S
H314 C308 0.930 . S
H315 C309 0.930 . S
C316 N317 1.314 . S
C316 C318 1.353 . S
C316 H322 0.930 . S
N317 Li267 1.990 . S
N317 C316 1.314 . S
N317 C320 1.279 . S
C318 C316 1.353 . S
C318 C321 1.348 . S
C318 H350 0.929 . S
C319 C320 1.358 . S
C319 C321 1.356 . S
C319 H351 0.930 . S
C320 N317 1.279 . S
C320 C319 1.358 . S
C320 H323 0.930 . S
C321 C318 1.348 . S
C321 C319 1.356 . S
H322 C316 0.930 . S
H323 C320 0.930 . S
O324 Li264 1.956 . S
O324 Li265 1.970 . S
O324 Li266 1.961 . S
O324 C268 1.325 . S
O325 Li264 1.970 . S
O325 Li265 1.956 . S
O325 Li267 1.961 . S
O325 C274 1.325 . S
O326 Li264 1.961 . S
O326 Li266 1.956 . S
O326 Li267 1.970 . S
O326 C296 1.325 . S
O327 Li265 1.961 . S
O327 Li266 1.970 . S
O327 Li267 1.956 . S
O327 C302 1.325 . S
H328 C270 0.929 . S
H329 C271 0.930 . S
H330 C272 0.930 . S
H331 C273 0.930 . S
H332 C275 0.930 . S
H333 C277 0.929 . S
H334 C278 0.930 . S
H335 C279 0.930 . S
H336 C282 0.930 . S
H337 C285 0.929 . S
H338 C290 0.929 . S
H339 C291 0.930 . S
H340 C298 0.929 . S
H341 C299 0.930 . S
H342 C300 0.930 . S
H343 C301 0.930 . S
H344 C303 0.929 . S
H345 C304 0.930 . S
H346 C305 0.930 . S
H347 C306 0.930 . S
H348 C310 0.929 . S
H349 C312 0.930 . S
H350 C318 0.929 . S
H351 C319 0.930 . S
Li352 N369 1.990 . S
Li352 O412 1.956 . S
Li352 O413 1.970 . S
Li352 O414 1.961 . S
Li353 N377 1.990 . S
Li353 O412 1.970 . S
Li353 O413 1.956 . S
Li353 O415 1.961 . S
Li354 N399 1.990 . S
Li354 O412 1.961 . S
Li354 O414 1.956 . S
Li354 O415 1.970 . S
Li355 N405 1.990 . S
Li355 O413 1.961 . S
Li355 O414 1.970 . S
Li355 O415 1.956 . S
C356 C358 1.348 . S
C356 C359 1.356 . S
C356 O412 1.325 . S
N357 C360 1.314 . S
N357 C361 1.279 . S
C358 C356 1.348 . S
C358 C360 1.353 . S
C358 H416 0.929 . S
C359 C356 1.356 . S
C359 C361 1.358 . S
C359 H417 0.930 . S
C360 N357 1.314 . S
C360 C358 1.353 . S
C360 H418 0.930 . S
C361 N357 1.279 . S
C361 C359 1.358 . S
C361 H419 0.930 . S
C362 C365 1.348 . S
C362 C366 1.356 . S
C362 O413 1.325 . S
C363 N364 1.279 . S
C363 C366 1.358 . S
C363 H420 0.930 . S
N364 C363 1.279 . S
N364 C367 1.314 . S
C365 C362 1.348 . S
C365 C367 1.353 . S
C365 H421 0.929 . S
C366 C362 1.356 . S
C366 C363 1.358 . S
C366 H422 0.930 . S
C367 N364 1.314 . S
C367 C365 1.353 . S
C367 H423 0.930 . S
C368 N369 1.314 . S
C368 C373 1.353 . S
C368 H374 0.930 . S
N369 Li352 1.990 . S
N369 C368 1.314 . S
N369 C371 1.279 . S
C370 C371 1.358 . S
C370 C372 1.356 . S
C370 H424 0.930 . S
C371 N369 1.279 . S
C371 C370 1.358 . S
C371 H375 0.930 . S
C372 C370 1.356 . S
C372 C373 1.348 . S
C373 C368 1.353 . S
C373 C372 1.348 . S
C373 H425 0.929 . S
H374 C368 0.930 . S
H375 C371 0.930 . S
C376 N377 1.314 . S
C376 C378 1.353 . S
C376 H382 0.930 . S
N377 Li353 1.990 . S
N377 C376 1.314 . S
N377 C380 1.279 . S
C378 C376 1.353 . S
C378 C381 1.348 . S
C378 H426 0.929 . S
C379 C380 1.358 . S
C379 C381 1.356 . S
C379 H427 0.930 . S
C380 N377 1.279 . S
C380 C379 1.358 . S
C380 H383 0.930 . S
C381 C378 1.348 . S
C381 C379 1.356 . S
H382 C376 0.930 . S
H383 C380 0.930 . S
C384 C386 1.348 . S
C384 C387 1.356 . S
C384 O414 1.325 . S
N385 C388 1.314 . S
N385 C389 1.279 . S
C386 C384 1.348 . S
C386 C388 1.353 . S
C386 H428 0.929 . S
C387 C384 1.356 . S
C387 C389 1.358 . S
C387 H429 0.930 . S
C388 N385 1.314 . S
C388 C386 1.353 . S
C388 H430 0.930 1_455 S
C389 N385 1.279 . S
C389 C387 1.358 . S
C389 H431 0.930 . S
C390 C391 1.348 . S
C390 C392 1.356 . S
C390 O415 1.325 . S
C391 C390 1.348 . S
C391 C393 1.353 . S
C391 H432 0.929 . S
C392 C390 1.356 . S
C392 C394 1.358 . S
C392 H433 0.930 . S
C393 C391 1.353 . S
C393 N395 1.314 . S
C393 H434 0.930 . S
C394 C392 1.358 . S
C394 N395 1.279 . S
C394 H435 0.930 . S
N395 C393 1.314 . S
N395 C394 1.279 . S
C396 C398 1.353 . S
C396 N399 1.314 . S
C396 H402 0.930 . S
C397 N399 1.279 . S
C397 C400 1.358 . S
C397 H403 0.930 . S
C398 C396 1.353 . S
C398 C401 1.348 . S
C398 H436 0.929 . S
N399 Li354 1.990 . S
N399 C396 1.314 . S
N399 C397 1.279 . S
C400 C397 1.358 . S
C400 C401 1.356 . S
C400 H437 0.930 . S
C401 C398 1.348 . S
C401 C400 1.356 . S
H402 C396 0.930 . S
H403 C397 0.930 . S
C404 N405 1.314 . S
C404 C406 1.353 . S
C404 H410 0.930 . S
N405 Li355 1.990 . S
N405 C404 1.314 . S
N405 C408 1.279 . S
C406 C404 1.353 . S
C406 C409 1.346 1_455 S
C406 H438 0.929 . S
C407 C408 1.358 . S
C407 C409 1.351 1_455 S
C407 H439 0.930 . S
C408 N405 1.279 . S
C408 C407 1.358 . S
C408 H411 0.930 . S
C409 C406 1.346 1_655 S
C409 C407 1.351 1_655 S
H410 C404 0.930 . S
H411 C408 0.930 . S
O412 Li352 1.956 . S
O412 Li353 1.970 . S
O412 Li354 1.961 . S
O412 C356 1.325 . S
O413 Li352 1.970 . S
O413 Li353 1.956 . S
O413 Li355 1.961 . S
O413 C362 1.325 . S
O414 Li352 1.961 . S
O414 Li354 1.956 . S
O414 Li355 1.970 . S
O414 C384 1.325 . S
O415 Li353 1.961 . S
O415 Li354 1.970 . S
O415 Li355 1.956 . S
O415 C390 1.325 . S
H416 C358 0.929 . S
H417 C359 0.930 . S
H418 C360 0.930 . S
H419 C361 0.930 . S
H420 C363 0.930 . S
H421 C365 0.929 . S
H422 C366 0.930 . S
H423 C367 0.930 . S
H424 C370 0.930 . S
H425 C373 0.929 . S
H426 C378 0.929 . S
H427 C379 0.930 . S
H428 C386 0.929 . S
H429 C387 0.930 . S
H430 C388 0.930 1_655 S
H431 C389 0.930 . S
H432 C391 0.929 . S
H433 C392 0.930 . S
H434 C393 0.930 . S
H435 C394 0.930 . S
H436 C398 0.929 . S
H437 C400 0.930 . S
H438 C406 0.929 . S
H439 C407 0.930 . S
Li440 N457 1.990 . S
Li440 O500 1.956 . S
Li440 O501 1.970 . S
Li440 O502 1.961 . S
Li441 N465 1.990 . S
Li441 O500 1.970 . S
Li441 O501 1.956 . S
Li441 O503 1.961 . S
Li442 N487 1.990 . S
Li442 O500 1.961 . S
Li442 O502 1.956 . S
Li442 O503 1.970 . S
Li443 N493 1.990 . S
Li443 O501 1.961 . S
Li443 O502 1.970 . S
Li443 O503 1.956 . S
C444 C446 1.348 . S
C444 C447 1.356 . S
C444 O500 1.325 . S
N445 C448 1.314 . S
N445 C449 1.279 . S
C446 C444 1.348 . S
C446 C448 1.353 . S
C446 H504 0.929 . S
C447 C444 1.356 . S
C447 C449 1.358 . S
C447 H505 0.930 . S
C448 N445 1.314 . S
C448 C446 1.353 . S
C448 H506 0.930 . S
C449 N445 1.279 . S
C449 C447 1.358 . S
C449 H507 0.930 . S
C450 C453 1.348 . S
C450 C454 1.356 . S
C450 O501 1.325 . S
C451 N452 1.279 . S
C451 C454 1.358 . S
C451 H508 0.930 . S
N452 C451 1.279 . S
N452 C455 1.314 . S
C453 C450 1.348 . S
C453 C455 1.353 . S
C453 H509 0.929 . S
C454 C450 1.356 . S
C454 C451 1.358 . S
C454 H510 0.930 . S
C455 N452 1.314 . S
C455 C453 1.353 . S
C455 H511 0.930 . S
C456 N457 1.314 . S
C456 C461 1.353 . S
C456 H462 0.930 . S
N457 Li440 1.990 . S
N457 C456 1.314 . S
N457 C459 1.279 . S
C458 C459 1.358 . S
C458 C460 1.356 . S
C458 H512 0.930 . S
C459 N457 1.279 . S
C459 C458 1.358 . S
C459 H463 0.930 . S
C460 C458 1.356 . S
C460 C461 1.348 . S
C461 C456 1.353 . S
C461 C460 1.348 . S
C461 H513 0.929 . S
H462 C456 0.930 . S
H463 C459 0.930 . S
C464 N465 1.314 . S
C464 C466 1.353 . S
C464 H470 0.930 . S
N465 Li441 1.990 . S
N465 C464 1.314 . S
N465 C468 1.279 . S
C466 C464 1.353 . S
C466 C469 1.348 . S
C466 H514 0.929 . S
C467 C468 1.358 . S
C467 C469 1.356 . S
C467 H515 0.930 . S
C468 N465 1.279 . S
C468 C467 1.358 . S
C468 H471 0.930 . S
C469 C466 1.348 . S
C469 C467 1.356 . S
H470 C464 0.930 . S
H471 C468 0.930 . S
C472 C474 1.348 . S
C472 C475 1.356 . S
C472 O502 1.325 . S
N473 C476 1.314 . S
N473 C477 1.279 . S
C474 C472 1.348 . S
C474 C476 1.353 . S
C474 H516 0.929 . S
C475 C472 1.356 . S
C475 C477 1.358 . S
C475 H517 0.930 . S
C476 N473 1.314 . S
C476 C474 1.353 . S
C476 H518 0.930 . S
C477 N473 1.279 . S
C477 C475 1.358 . S
C477 H519 0.930 . S
C478 C479 1.348 . S
C478 C480 1.356 . S
C478 O503 1.325 . S
C479 C478 1.348 . S
C479 C481 1.353 . S
C479 H520 0.929 . S
C480 C478 1.356 . S
C480 C482 1.358 . S
C480 H521 0.930 . S
C481 C479 1.353 . S
C481 N483 1.314 . S
C481 H522 0.930 . S
C482 C480 1.358 . S
C482 N483 1.279 . S
C482 H523 0.930 . S
N483 C481 1.314 . S
N483 C482 1.279 . S
C484 C486 1.353 . S
C484 N487 1.314 . S
C484 H490 0.930 . S
C485 N487 1.279 . S
C485 C488 1.358 . S
C485 H491 0.930 . S
C486 C484 1.353 . S
C486 C489 1.348 . S
C486 H524 0.929 . S
N487 Li442 1.990 . S
N487 C484 1.314 . S
N487 C485 1.279 . S
C488 C485 1.358 . S
C488 C489 1.356 . S
C488 H525 0.930 . S
C489 C486 1.348 . S
C489 C488 1.356 . S
H490 C484 0.930 . S
H491 C485 0.930 . S
C492 N493 1.314 . S
C492 C494 1.353 . S
C492 H498 0.930 . S
N493 Li443 1.990 . S
N493 C492 1.314 . S
N493 C496 1.279 . S
C494 C492 1.353 . S
C494 C497 1.348 . S
C494 H526 0.929 . S
C495 C496 1.358 . S
C495 C497 1.356 . S
C495 H527 0.930 . S
C496 N493 1.279 . S
C496 C495 1.358 . S
C496 H499 0.930 . S
C497 C494 1.348 . S
C497 C495 1.356 . S
H498 C492 0.930 . S
H499 C496 0.930 . S
O500 Li440 1.956 . S
O500 Li441 1.970 . S
O500 Li442 1.961 . S
O500 C444 1.325 . S
O501 Li440 1.970 . S
O501 Li441 1.956 . S
O501 Li443 1.961 . S
O501 C450 1.325 . S
O502 Li440 1.961 . S
O502 Li442 1.956 . S
O502 Li443 1.970 . S
O502 C472 1.325 . S
O503 Li441 1.961 . S
O503 Li442 1.970 . S
O503 Li443 1.956 . S
O503 C478 1.325 . S
H504 C446 0.929 . S
H505 C447 0.930 . S
H506 C448 0.930 . S
H507 C449 0.930 . S
H508 C451 0.930 . S
H509 C453 0.929 . S
H510 C454 0.930 . S
H511 C455 0.930 . S
H512 C458 0.930 . S
H513 C461 0.929 . S
H514 C466 0.929 . S
H515 C467 0.930 . S
H516 C474 0.929 . S
H517 C475 0.930 . S
H518 C476 0.930 . S
H519 C477 0.930 . S
H520 C479 0.929 . S
H521 C480 0.930 . S
H522 C481 0.930 . S
H523 C482 0.930 . S
H524 C486 0.929 . S
H525 C488 0.930 . S
H526 C494 0.929 . S
H527 C495 0.930 . S
Li528 N545 1.990 . S
Li528 O588 1.956 . S
Li528 O589 1.970 . S
Li528 O590 1.961 . S
Li529 N553 1.990 . S
Li529 O588 1.970 . S
Li529 O589 1.956 . S
Li529 O591 1.961 . S
Li530 N575 1.990 . S
Li530 O588 1.961 . S
Li530 O590 1.956 . S
Li530 O591 1.970 . S
Li531 N581 1.990 . S
Li531 O589 1.961 . S
Li531 O590 1.970 . S
Li531 O591 1.956 . S
C532 C534 1.348 . S
C532 C535 1.356 . S
C532 O588 1.325 . S
N533 C536 1.314 . S
N533 C537 1.279 . S
C534 C532 1.348 . S
C534 C536 1.353 . S
C534 H592 0.929 . S
C535 C532 1.356 . S
C535 C537 1.358 . S
C535 H593 0.930 . S
C536 N533 1.314 . S
C536 C534 1.353 . S
C536 H594 0.930 . S
C537 N533 1.279 . S
C537 C535 1.358 . S
C537 H595 0.930 . S
C538 C541 1.348 . S
C538 C542 1.356 . S
C538 O589 1.325 . S
C539 N540 1.279 . S
C539 C542 1.358 . S
C539 H596 0.930 . S
N540 C539 1.279 . S
N540 C543 1.314 . S
C541 C538 1.348 . S
C541 C543 1.353 . S
C541 H597 0.929 . S
C542 C538 1.356 . S
C542 C539 1.358 . S
C542 H598 0.930 . S
C543 N540 1.314 . S
C543 C541 1.353 . S
C543 H599 0.930 . S
C544 N545 1.314 . S
C544 C549 1.353 . S
C544 H550 0.930 . S
N545 Li528 1.990 . S
N545 C544 1.314 . S
N545 C547 1.279 . S
C546 C547 1.358 . S
C546 C548 1.356 . S
C546 H600 0.930 . S
C547 N545 1.279 . S
C547 C546 1.358 . S
C547 H551 0.930 . S
C548 C546 1.356 . S
C548 C549 1.348 . S
C549 C544 1.353 . S
C549 C548 1.348 . S
C549 H601 0.929 . S
H550 C544 0.930 . S
H551 C547 0.930 . S
C552 N553 1.314 . S
C552 C554 1.353 . S
C552 H558 0.930 . S
N553 Li529 1.990 . S
N553 C552 1.314 . S
N553 C556 1.279 . S
C554 C552 1.353 . S
C554 C557 1.348 . S
C554 H602 0.929 . S
C555 C556 1.358 . S
C555 C557 1.356 . S
C555 H603 0.930 . S
C556 N553 1.279 . S
C556 C555 1.358 . S
C556 H559 0.930 . S
C557 C554 1.348 . S
C557 C555 1.356 . S
H558 C552 0.930 . S
H559 C556 0.930 . S
C560 C562 1.348 . S
C560 C563 1.356 . S
C560 O590 1.325 . S
N561 C564 1.314 . S
N561 C565 1.279 . S
C562 C560 1.348 . S
C562 C564 1.353 . S
C562 H604 0.929 . S
C563 C560 1.356 . S
C563 C565 1.358 . S
C563 H605 0.930 . S
C564 N561 1.314 . S
C564 C562 1.353 . S
C564 H606 0.930 . S
C565 N561 1.279 . S
C565 C563 1.358 . S
C565 H607 0.930 . S
C566 C567 1.348 . S
C566 C568 1.356 . S
C566 O591 1.325 . S
C567 C566 1.348 . S
C567 C569 1.353 . S
C567 H608 0.929 . S
C568 C566 1.356 . S
C568 C570 1.358 . S
C568 H609 0.930 . S
C569 C567 1.353 . S
C569 N571 1.314 . S
C569 H610 0.930 . S
C570 C568 1.358 . S
C570 N571 1.279 . S
C570 H611 0.930 . S
N571 C569 1.314 . S
N571 C570 1.279 . S
C572 C574 1.353 . S
C572 N575 1.314 . S
C572 H578 0.930 . S
C573 N575 1.279 . S
C573 C576 1.358 . S
C573 H579 0.930 . S
C574 C572 1.353 . S
C574 C577 1.348 . S
C574 H612 0.929 . S
N575 Li530 1.990 . S
N575 C572 1.314 . S
N575 C573 1.279 . S
C576 C573 1.358 . S
C576 C577 1.356 . S
C576 H613 0.930 . S
C577 C574 1.348 . S
C577 C576 1.356 . S
H578 C572 0.930 . S
H579 C573 0.930 . S
C580 N581 1.314 . S
C580 C582 1.353 . S
C580 H586 0.930 . S
N581 Li531 1.990 . S
N581 C580 1.314 . S
N581 C584 1.279 . S
C582 C580 1.353 . S
C582 C585 1.348 . S
C582 H614 0.929 . S
C583 C584 1.358 . S
C583 C585 1.356 . S
C583 H615 0.930 . S
C584 N581 1.279 . S
C584 C583 1.358 . S
C584 H587 0.930 . S
C585 C582 1.348 . S
C585 C583 1.356 . S
H586 C580 0.930 . S
H587 C584 0.930 . S
O588 Li528 1.956 . S
O588 Li529 1.970 . S
O588 Li530 1.961 . S
O588 C532 1.325 . S
O589 Li528 1.970 . S
O589 Li529 1.956 . S
O589 Li531 1.961 . S
O589 C538 1.325 . S
O590 Li528 1.961 . S
O590 Li530 1.956 . S
O590 Li531 1.970 . S
O590 C560 1.325 . S
O591 Li529 1.961 . S
O591 Li530 1.970 . S
O591 Li531 1.956 . S
O591 C566 1.325 . S
H592 C534 0.929 . S
H593 C535 0.930 . S
H594 C536 0.930 . S
H595 C537 0.930 . S
H596 C539 0.930 . S
H597 C541 0.929 . S
H598 C542 0.930 . S
H599 C543 0.930 . S
H600 C546 0.930 . S
H601 C549 0.929 . S
H602 C554 0.929 . S
H603 C555 0.930 . S
H604 C562 0.929 . S
H605 C563 0.930 . S
H606 C564 0.930 . S
H607 C565 0.930 . S
H608 C567 0.929 . S
H609 C568 0.930 . S
H610 C569 0.930 . S
H611 C570 0.930 . S
H612 C574 0.929 . S
H613 C576 0.930 . S
H614 C582 0.929 . S
H615 C583 0.930 . S
Li616 N633 1.990 . S
Li616 O676 1.956 1_455 S
Li616 O677 1.970 . S
Li616 O678 1.961 . S
Li617 N641 1.990 . S
Li617 O676 1.970 . S
Li617 O677 1.956 1_655 S
Li617 O679 1.961 . S
Li618 N663 1.990 . S
Li618 O676 1.961 . S
Li618 O678 1.956 1_655 S
Li618 O679 1.970 . S
Li619 N669 1.990 . S
Li619 O677 1.961 . S
Li619 O678 1.970 . S
Li619 O679 1.956 1_455 S
C620 C622 1.348 . S
C620 C623 1.356 . S
C620 O676 1.325 . S
N621 C624 1.314 . S
N621 C625 1.279 . S
C622 C620 1.348 . S
C622 C624 1.353 . S
C622 H680 0.929 . S
C623 C620 1.356 . S
C623 C625 1.358 . S
C623 H681 0.930 . S
C624 N621 1.314 . S
C624 C622 1.353 . S
C624 H682 0.930 . S
C625 N621 1.279 . S
C625 C623 1.358 . S
C625 H683 0.930 . S
C626 C629 1.348 . S
C626 C630 1.356 . S
C626 O677 1.325 . S
C627 N628 1.279 . S
C627 C630 1.358 . S
C627 H684 0.930 . S
N628 C627 1.279 . S
N628 C631 1.314 . S
C629 C626 1.348 . S
C629 C631 1.353 . S
C629 H685 0.910 1_455 S
C630 C626 1.356 . S
C630 C627 1.358 . S
C630 H686 0.930 . S
C631 N628 1.314 . S
C631 C629 1.353 . S
C631 H687 0.930 . S
C632 N633 1.314 . S
C632 C637 1.353 . S
C632 H638 0.930 . S
N633 Li616 1.990 . S
N633 C632 1.314 . S
N633 C635 1.279 1_455 S
C634 C635 1.358 . S
C634 C636 1.356 1_655 S
C634 H688 0.930 . S
C635 N633 1.279 1_655 S
C635 C634 1.358 . S
C635 H639 0.930 . S
C636 C634 1.356 1_455 S
C636 C637 1.348 . S
C637 C632 1.353 . S
C637 C636 1.348 . S
C637 H689 0.929 . S
H638 C632 0.930 . S
H639 C635 0.930 . S
C640 N641 1.314 . S
C640 C642 1.353 . S
C640 H646 0.930 . S
N641 Li617 1.990 . S
N641 C640 1.314 . S
N641 C644 1.279 . S
C642 C640 1.353 . S
C642 C645 1.348 . S
C642 H690 0.929 . S
C643 C644 1.358 . S
C643 C645 1.356 . S
C643 H691 0.930 . S
C644 N641 1.279 . S
C644 C643 1.358 . S
C644 H647 0.930 . S
C645 C642 1.348 . S
C645 C643 1.356 . S
H646 C640 0.930 . S
H647 C644 0.930 . S
C648 C650 1.348 . S
C648 C651 1.356 . S
C648 O678 1.325 . S
N649 C652 1.314 . S
N649 C653 1.279 . S
C650 C648 1.348 . S
C650 C652 1.353 . S
C650 H692 0.929 . S
C651 C648 1.356 . S
C651 C653 1.358 . S
C651 H693 0.930 . S
C652 N649 1.314 . S
C652 C650 1.353 . S
C652 H694 0.930 . S
C653 N649 1.279 . S
C653 C651 1.358 . S
C653 H695 0.930 . S
C654 C655 1.348 . S
C654 C656 1.356 . S
C654 O679 1.325 . S
C655 C654 1.348 . S
C655 C657 1.353 . S
C655 H696 0.920 1_655 S
C656 C654 1.356 . S
C656 C658 1.358 . S
C656 H697 0.930 . S
C657 C655 1.353 . S
C657 N659 1.314 . S
C657 H698 0.930 . S
C658 C656 1.358 . S
C658 N659 1.279 . S
C658 H699 0.930 . S
N659 C657 1.314 . S
N659 C658 1.279 . S
C660 C662 1.353 . S
C660 N663 1.314 . S
C660 H666 0.930 . S
C661 N663 1.279 1_455 S
C661 C664 1.358 . S
C661 H667 0.930 . S
C662 C660 1.353 . S
C662 C665 1.348 . S
C662 H700 0.929 . S
N663 Li618 1.990 . S
N663 C660 1.314 . S
N663 C661 1.279 1_655 S
C664 C661 1.358 . S
C664 C665 1.356 1_455 S
C664 H701 0.930 . S
C665 C662 1.348 . S
C665 C664 1.356 1_655 S
H666 C660 0.930 . S
H667 C661 0.930 . S
C668 N669 1.314 . S
C668 C670 1.353 . S
C668 H674 0.930 . S
N669 Li619 1.990 . S
N669 C668 1.314 . S
N669 C672 1.279 . S
C670 C668 1.353 . S
C670 C673 1.348 . S
C670 H702 0.929 . S
C671 C672 1.358 . S
C671 C673 1.356 . S
C671 H703 0.930 . S
C672 N669 1.279 . S
C672 C671 1.358 . S
C672 H675 0.930 . S
C673 C670 1.348 . S
C673 C671 1.356 . S
H674 C668 0.930 . S
H675 C672 0.930 . S
O676 Li616 1.956 1_655 S
O676 Li617 1.970 . S
O676 Li618 1.961 . S
O676 C620 1.325 . S
O677 Li616 1.970 . S
O677 Li617 1.956 1_455 S
O677 Li619 1.961 . S
O677 C626 1.325 . S
O678 Li616 1.961 . S
O678 Li618 1.956 1_455 S
O678 Li619 1.970 . S
O678 C648 1.325 . S
O679 Li617 1.961 . S
O679 Li618 1.970 . S
O679 Li619 1.956 1_655 S
O679 C654 1.325 . S
H680 C622 0.929 . S
H681 C623 0.930 . S
H682 C624 0.930 . S
H683 C625 0.930 . S
H684 C627 0.930 . S
H685 C629 0.910 1_655 S
H686 C630 0.930 . S
H687 C631 0.930 . S
H688 C634 0.930 . S
H689 C637 0.929 . S
H690 C642 0.929 . S
H691 C643 0.930 . S
H692 C650 0.929 . S
H693 C651 0.930 . S
H694 C652 0.930 . S
H695 C653 0.930 . S
H696 C655 0.920 1_455 S
H697 C656 0.930 . S
H698 C657 0.930 . S
H699 C658 0.930 . S
H700 C662 0.929 . S
H701 C664 0.930 . S
H702 C670 0.929 . S
H703 C671 0.930 . S
Li704 N721 1.990 . S
Li704 O764 1.956 . S
Li704 O765 1.970 . S
Li704 O766 1.961 . S
Li705 N729 1.990 1_545 S
Li705 O764 1.970 . S
Li705 O765 1.956 . S
Li705 O767 1.961 . S
Li706 N751 1.990 . S
Li706 O764 1.961 . S
Li706 O766 1.956 . S
Li706 O767 1.970 . S
Li707 N757 1.990 . S
Li707 O765 1.961 . S
Li707 O766 1.970 . S
Li707 O767 1.956 . S
C708 C710 1.348 . S
C708 C711 1.356 . S
C708 O764 1.325 1_565 S
N709 C712 1.314 . S
N709 C713 1.279 . S
C710 C708 1.348 . S
C710 C712 1.353 . S
C710 H768 0.929 . S
C711 C708 1.356 . S
C711 C713 1.358 . S
C711 H769 0.930 1_565 S
C712 N709 1.314 . S
C712 C710 1.353 . S
C712 H770 0.930 . S
C713 N709 1.279 . S
C713 C711 1.358 . S
C713 H771 0.930 . S
C714 C717 1.348 . S
C714 C718 1.356 . S
C714 O765 1.325 . S
C715 N716 1.279 . S
C715 C718 1.358 . S
C715 H772 0.930 . S
N716 C715 1.279 . S
N716 C719 1.314 . S
C717 C714 1.348 . S
C717 C719 1.353 . S
C717 H773 0.929 . S
C718 C714 1.356 . S
C718 C715 1.358 . S
C718 H774 0.930 . S
C719 N716 1.314 . S
C719 C717 1.353 . S
C719 H775 0.930 . S
C720 N721 1.314 . S
C720 C725 1.353 . S
C720 H726 0.930 . S
N721 Li704 1.990 . S
N721 C720 1.314 . S
N721 C723 1.279 . S
C722 C723 1.358 . S
C722 C724 1.356 . S
C722 H776 0.930 . S
C723 N721 1.279 . S
C723 C722 1.358 . S
C723 H727 0.930 . S
C724 C722 1.356 . S
C724 C725 1.348 . S
C725 C720 1.353 . S
C725 C724 1.348 . S
C725 H777 0.929 . S
H726 C720 0.930 . S
H727 C723 0.930 . S
C728 N729 1.314 . S
C728 C730 1.353 . S
C728 H734 0.930 . S
N729 Li705 1.990 1_565 S
N729 C728 1.314 . S
N729 C732 1.279 . S
C730 C728 1.353 . S
C730 C733 1.348 . S
C730 H778 0.929 . S
C731 C732 1.358 . S
C731 C733 1.356 . S
C731 H779 0.930 . S
C732 N729 1.279 . S
C732 C731 1.358 . S
C732 H735 0.930 . S
C733 C730 1.348 . S
C733 C731 1.356 . S
H734 C728 0.930 . S
H735 C732 0.930 . S
C736 C738 1.348 . S
C736 C739 1.356 . S
C736 O766 1.325 . S
N737 C740 1.314 . S
N737 C741 1.279 . S
C738 C736 1.348 . S
C738 C740 1.353 . S
C738 H780 0.929 . S
C739 C736 1.356 . S
C739 C741 1.358 . S
C739 H781 0.930 . S
C740 N737 1.314 . S
C740 C738 1.353 . S
C740 H782 0.930 . S
C741 N737 1.279 . S
C741 C739 1.358 . S
C741 H783 0.930 . S
C742 C743 1.348 . S
C742 C744 1.356 . S
C742 O767 1.325 . S
C743 C742 1.348 . S
C743 C745 1.353 . S
C743 H784 0.929 . S
C744 C742 1.356 . S
C744 C746 1.358 . S
C744 H785 0.930 . S
C745 C743 1.353 . S
C745 N747 1.314 . S
C745 H786 0.930 . S
C746 C744 1.358 . S
C746 N747 1.279 . S
C746 H787 0.930 . S
N747 C745 1.314 . S
N747 C746 1.279 . S
C748 C750 1.353 . S
C748 N751 1.314 . S
C748 H754 0.930 . S
C749 N751 1.279 . S
C749 C752 1.358 . S
C749 H755 0.930 . S
C750 C748 1.353 . S
C750 C753 1.348 . S
C750 H788 0.929 . S
N751 Li706 1.990 . S
N751 C748 1.314 . S
N751 C749 1.279 . S
C752 C749 1.358 . S
C752 C753 1.356 . S
C752 H789 0.930 . S
C753 C750 1.348 . S
C753 C752 1.356 . S
H754 C748 0.930 . S
H755 C749 0.930 . S
C756 N757 1.314 . S
C756 C758 1.353 . S
C756 H762 0.930 . S
N757 Li707 1.990 . S
N757 C756 1.314 . S
N757 C760 1.279 . S
C758 C756 1.353 . S
C758 C761 1.348 . S
C758 H790 0.929 . S
C759 C760 1.358 . S
C759 C761 1.356 . S
C759 H791 0.930 . S
C760 N757 1.279 . S
C760 C759 1.358 . S
C760 H763 0.930 . S
C761 C758 1.348 . S
C761 C759 1.356 . S
H762 C756 0.930 . S
H763 C760 0.930 . S
O764 Li704 1.956 . S
O764 Li705 1.970 . S
O764 Li706 1.961 . S
O764 C708 1.325 1_545 S
O765 Li704 1.970 . S
O765 Li705 1.956 . S
O765 Li707 1.961 . S
O765 C714 1.325 . S
O766 Li704 1.961 . S
O766 Li706 1.956 . S
O766 Li707 1.970 . S
O766 C736 1.325 . S
O767 Li705 1.961 . S
O767 Li706 1.970 . S
O767 Li707 1.956 . S
O767 C742 1.325 . S
H768 C710 0.929 . S
H769 C711 0.930 1_545 S
H770 C712 0.930 . S
H771 C713 0.930 . S
H772 C715 0.930 . S
H773 C717 0.929 . S
H774 C718 0.930 . S
H775 C719 0.930 . S
H776 C722 0.930 . S
H777 C725 0.929 . S
H778 C730 0.929 . S
H779 C731 0.930 . S
H780 C738 0.929 . S
H781 C739 0.930 . S
H782 C740 0.930 . S
H783 C741 0.930 . S
H784 C743 0.929 . S
H785 C744 0.930 . S
H786 C745 0.930 . S
H787 C746 0.930 . S
H788 C750 0.929 . S
H789 C752 0.930 . S
H790 C758 0.929 . S
H791 C759 0.930 . S
Li792 N809 1.990 . S
Li792 O852 1.956 . S
Li792 O853 1.970 . S
Li792 O854 1.961 . S
Li793 N817 1.990 . S
Li793 O852 1.970 . S
Li793 O853 1.956 . S
Li793 O855 1.961 . S
Li794 N839 1.990 . S
Li794 O852 1.961 . S
Li794 O854 1.956 . S
Li794 O855 1.970 . S
Li795 N845 1.990 . S
Li795 O853 1.961 . S
Li795 O854 1.970 . S
Li795 O855 1.956 . S
C796 C798 1.348 . S
C796 C799 1.356 . S
C796 O852 1.325 . S
N797 C800 1.314 . S
N797 C801 1.279 . S
C798 C796 1.348 . S
C798 C800 1.353 . S
C798 H856 0.929 . S
C799 C796 1.356 . S
C799 C801 1.358 . S
C799 H857 0.930 . S
C800 N797 1.314 . S
C800 C798 1.353 . S
C800 H858 0.930 . S
C801 N797 1.279 . S
C801 C799 1.358 . S
C801 H859 0.930 . S
C802 C805 1.348 . S
C802 C806 1.356 . S
C802 O853 1.325 . S
C803 N804 1.279 . S
C803 C806 1.358 . S
C803 H860 0.930 . S
N804 C803 1.279 . S
N804 C807 1.314 . S
C805 C802 1.348 . S
C805 C807 1.353 . S
C805 H861 0.929 . S
C806 C802 1.356 . S
C806 C803 1.358 . S
C806 H862 0.930 . S
C807 N804 1.314 . S
C807 C805 1.353 . S
C807 H863 0.930 . S
C808 N809 1.314 . S
C808 C813 1.353 . S
C808 H814 0.930 . S
N809 Li792 1.990 . S
N809 C808 1.314 . S
N809 C811 1.279 . S
C810 C811 1.358 . S
C810 C812 1.356 . S
C810 H864 0.930 . S
C811 N809 1.279 . S
C811 C810 1.358 . S
C811 H815 0.930 . S
C812 C810 1.356 . S
C812 C813 1.348 . S
C813 C808 1.353 . S
C813 C812 1.348 . S
C813 H865 0.929 . S
H814 C808 0.930 . S
H815 C811 0.930 . S
C816 N817 1.314 . S
C816 C818 1.353 . S
C816 H822 0.930 . S
N817 Li793 1.990 . S
N817 C816 1.314 . S
N817 C820 1.279 . S
C818 C816 1.353 . S
C818 C821 1.348 . S
C818 H866 0.929 . S
C819 C820 1.358 . S
C819 C821 1.356 . S
C819 H867 0.930 . S
C820 N817 1.279 . S
C820 C819 1.358 . S
C820 H823 0.930 . S
C821 C818 1.348 . S
C821 C819 1.356 . S
H822 C816 0.930 . S
H823 C820 0.930 . S
C824 C826 1.348 . S
C824 C827 1.356 . S
C824 O854 1.325 . S
N825 C828 1.314 . S
N825 C829 1.279 . S
C826 C824 1.348 . S
C826 C828 1.353 . S
C826 H868 0.929 . S
C827 C824 1.356 . S
C827 C829 1.358 . S
C827 H869 0.930 . S
C828 N825 1.314 . S
C828 C826 1.353 . S
C828 H870 0.930 . S
C829 N825 1.279 . S
C829 C827 1.358 . S
C829 H871 0.930 . S
C830 C831 1.348 . S
C830 C832 1.356 . S
C830 O855 1.325 . S
C831 C830 1.348 . S
C831 C833 1.353 . S
C831 H872 0.929 . S
C832 C830 1.356 . S
C832 C834 1.358 . S
C832 H873 0.930 . S
C833 C831 1.353 . S
C833 N835 1.314 . S
C833 H874 0.930 . S
C834 C832 1.358 . S
C834 N835 1.279 . S
C834 H875 0.930 . S
N835 C833 1.314 . S
N835 C834 1.279 . S
C836 C838 1.353 . S
C836 N839 1.314 . S
C836 H842 0.930 . S
C837 N839 1.279 . S
C837 C840 1.358 . S
C837 H843 0.930 . S
C838 C836 1.353 . S
C838 C841 1.348 . S
C838 H876 0.929 . S
N839 Li794 1.990 . S
N839 C836 1.314 . S
N839 C837 1.279 . S
C840 C837 1.358 . S
C840 C841 1.356 . S
C840 H877 0.930 . S
C841 C838 1.348 . S
C841 C840 1.356 . S
H842 C836 0.930 . S
H843 C837 0.930 . S
C844 N845 1.314 . S
C844 C846 1.353 . S
C844 H850 0.930 . S
N845 Li795 1.990 . S
N845 C844 1.314 . S
N845 C848 1.279 . S
C846 C844 1.353 . S
C846 C849 1.348 . S
C846 H878 0.929 . S
C847 C848 1.358 . S
C847 C849 1.356 . S
C847 H879 0.930 . S
C848 N845 1.279 . S
C848 C847 1.358 . S
C848 H851 0.930 . S
C849 C846 1.348 . S
C849 C847 1.356 . S
H850 C844 0.930 . S
H851 C848 0.930 . S
O852 Li792 1.956 . S
O852 Li793 1.970 . S
O852 Li794 1.961 . S
O852 C796 1.325 . S
O853 Li792 1.970 . S
O853 Li793 1.956 . S
O853 Li795 1.961 . S
O853 C802 1.325 . S
O854 Li792 1.961 . S
O854 Li794 1.956 . S
O854 Li795 1.970 . S
O854 C824 1.325 . S
O855 Li793 1.961 . S
O855 Li794 1.970 . S
O855 Li795 1.956 . S
O855 C830 1.325 . S
H856 C798 0.929 . S
H857 C799 0.930 . S
H858 C800 0.930 . S
H859 C801 0.930 . S
H860 C803 0.930 . S
H861 C805 0.929 . S
H862 C806 0.930 . S
H863 C807 0.930 . S
H864 C810 0.930 . S
H865 C813 0.929 . S
H866 C818 0.929 . S
H867 C819 0.930 . S
H868 C826 0.929 . S
H869 C827 0.930 . S
H870 C828 0.930 . S
H871 C829 0.930 . S
H872 C831 0.929 . S
H873 C832 0.930 . S
H874 C833 0.930 . S
H875 C834 0.930 . S
H876 C838 0.929 . S
H877 C840 0.930 . S
H878 C846 0.929 . S
H879 C847 0.930 . S
Li880 N897 1.990 . S
Li880 O940 1.956 . S
Li880 O941 1.970 . S
Li880 O942 1.961 . S
Li881 N905 1.990 . S
Li881 O940 1.970 . S
Li881 O941 1.956 . S
Li881 O943 1.961 . S
Li882 N927 1.990 . S
Li882 O940 1.961 . S
Li882 O942 1.956 . S
Li882 O943 1.970 . S
Li883 N933 1.990 . S
Li883 O941 1.961 . S
Li883 O942 1.970 . S
Li883 O943 1.956 . S
C884 C886 1.348 . S
C884 C887 1.356 . S
C884 O940 1.325 . S
N885 C888 1.314 . S
N885 C889 1.279 . S
C886 C884 1.348 . S
C886 C888 1.353 . S
C886 H944 0.929 . S
C887 C884 1.356 . S
C887 C889 1.358 . S
C887 H945 0.930 . S
C888 N885 1.314 . S
C888 C886 1.353 . S
C888 H946 0.930 . S
C889 N885 1.279 . S
C889 C887 1.358 . S
C889 H947 0.930 . S
C890 C893 1.348 . S
C890 C894 1.356 . S
C890 O941 1.325 . S
C891 N892 1.279 . S
C891 C894 1.358 . S
C891 H948 0.930 . S
N892 C891 1.279 . S
N892 C895 1.314 . S
C893 C890 1.348 . S
C893 C895 1.353 . S
C893 H949 0.929 . S
C894 C890 1.356 . S
C894 C891 1.358 . S
C894 H950 0.930 . S
C895 N892 1.314 . S
C895 C893 1.353 . S
C895 H951 0.930 . S
C896 N897 1.314 . S
C896 C901 1.353 . S
C896 H902 0.930 . S
N897 Li880 1.990 . S
N897 C896 1.314 . S
N897 C899 1.279 . S
C898 C899 1.358 . S
C898 C900 1.356 . S
C898 H952 0.930 . S
C899 N897 1.279 . S
C899 C898 1.358 . S
C899 H903 0.930 . S
C900 C898 1.356 . S
C900 C901 1.348 . S
C901 C896 1.353 . S
C901 C900 1.348 . S
C901 H953 0.929 . S
H902 C896 0.930 . S
H903 C899 0.930 . S
C904 N905 1.314 . S
C904 C906 1.353 . S
C904 H910 0.930 . S
N905 Li881 1.990 . S
N905 C904 1.314 . S
N905 C908 1.279 . S
C906 C904 1.353 . S
C906 C909 1.348 . S
C906 H954 0.929 . S
C907 C908 1.358 . S
C907 C909 1.356 . S
C907 H955 0.930 . S
C908 N905 1.279 . S
C908 C907 1.358 . S
C908 H911 0.930 . S
C909 C906 1.348 . S
C909 C907 1.356 . S
H910 C904 0.930 . S
H911 C908 0.930 . S
C912 C914 1.348 . S
C912 C915 1.356 . S
C912 O942 1.325 . S
N913 C916 1.314 . S
N913 C917 1.279 . S
C914 C912 1.348 . S
C914 C916 1.353 . S
C914 H956 0.929 . S
C915 C912 1.356 . S
C915 C917 1.358 . S
C915 H957 0.930 . S
C916 N913 1.314 . S
C916 C914 1.353 . S
C916 H958 0.930 . S
C917 N913 1.279 . S
C917 C915 1.358 . S
C917 H959 0.930 . S
C918 C919 1.348 . S
C918 C920 1.356 . S
C918 O943 1.325 1_565 S
C919 C918 1.348 . S
C919 C921 1.353 . S
C919 H960 0.929 . S
C920 C918 1.356 . S
C920 C922 1.358 . S
C920 H961 0.930 1_565 S
C921 C919 1.353 . S
C921 N923 1.314 . S
C921 H962 0.930 . S
C922 C920 1.358 . S
C922 N923 1.279 . S
C922 H963 0.930 . S
N923 C921 1.314 . S
N923 C922 1.279 . S
C924 C926 1.353 . S
C924 N927 1.314 1_565 S
C924 H930 0.930 . S
C925 N927 1.279 1_565 S
C925 C928 1.358 . S
C925 H931 0.930 1_565 S
C926 C924 1.353 . S
C926 C929 1.348 . S
C926 H964 0.929 . S
N927 Li882 1.990 . S
N927 C924 1.314 1_545 S
N927 C925 1.279 1_545 S
C928 C925 1.358 . S
C928 C929 1.356 . S
C928 H965 0.930 . S
C929 C926 1.348 . S
C929 C928 1.356 . S
H930 C924 0.930 . S
H931 C925 0.930 1_545 S
C932 N933 1.314 . S
C932 C934 1.353 . S
C932 H938 0.930 . S
N933 Li883 1.990 . S
N933 C932 1.314 . S
N933 C936 1.279 . S
C934 C932 1.353 . S
C934 C937 1.348 . S
C934 H966 0.929 . S
C935 C936 1.358 . S
C935 C937 1.356 . S
C935 H967 0.930 1_545 S
C936 N933 1.279 . S
C936 C935 1.358 . S
C936 H939 0.976 . S
C937 C934 1.348 . S
C937 C935 1.356 . S
H938 C932 0.930 . S
H939 C936 0.976 . S
O940 Li880 1.956 . S
O940 Li881 1.970 . S
O940 Li882 1.961 . S
O940 C884 1.325 . S
O941 Li880 1.970 . S
O941 Li881 1.956 . S
O941 Li883 1.961 . S
O941 C890 1.325 . S
O942 Li880 1.961 . S
O942 Li882 1.956 . S
O942 Li883 1.970 . S
O942 C912 1.325 . S
O943 Li881 1.961 . S
O943 Li882 1.970 . S
O943 Li883 1.956 . S
O943 C918 1.325 1_545 S
H944 C886 0.929 . S
H945 C887 0.930 . S
H946 C888 0.930 . S
H947 C889 0.930 . S
H948 C891 0.930 . S
H949 C893 0.929 . S
H950 C894 0.930 . S
H951 C895 0.930 . S
H952 C898 0.930 . S
H953 C901 0.929 . S
H954 C906 0.929 . S
H955 C907 0.930 . S
H956 C914 0.929 . S
H957 C915 0.930 . S
H958 C916 0.930 . S
H959 C917 0.930 . S
H960 C919 0.929 . S
H961 C920 0.930 1_545 S
H962 C921 0.930 . S
H963 C922 0.930 . S
H964 C926 0.929 . S
H965 C928 0.930 . S
H966 C934 0.929 . S
H967 C935 0.930 1_565 S
Li968 N985 1.991 . S
Li968 O1028 1.987 . S
Li968 O1029 1.971 1_554 S
Li968 O1030 1.927 1_554 S
Li969 N993 1.990 . S
Li969 O1028 1.970 . S
Li969 O1029 1.956 1_554 S
Li969 O1031 1.986 . S
Li970 N1015 1.988 . S
Li970 O1028 2.012 . S
Li970 O1030 1.911 1_554 S
Li970 O1031 1.972 . S
Li971 N1021 1.990 . S
Li971 O1029 1.961 . S
Li971 O1030 1.970 . S
Li971 O1031 1.931 1_556 S
C972 C974 1.348 . S
C972 C975 1.356 . S
C972 O1028 1.325 . S
N973 C976 1.314 . S
N973 C977 1.279 . S
C974 C972 1.348 . S
C974 C976 1.353 . S
C974 H1032 0.929 . S
C975 C972 1.356 . S
C975 C977 1.358 . S
C975 H1033 0.930 . S
C976 N973 1.314 . S
C976 C974 1.353 . S
C976 H1034 0.930 . S
C977 N973 1.279 . S
C977 C975 1.358 . S
C977 H1035 0.930 . S
C978 C981 1.348 1_556 S
C978 C982 1.356 . S
C978 O1029 1.325 . S
C979 N980 1.279 . S
C979 C982 1.358 . S
C979 H1036 0.930 . S
N980 C979 1.279 . S
N980 C983 1.314 1_556 S
C981 C978 1.348 1_554 S
C981 C983 1.353 . S
C981 H1037 0.929 . S
C982 C978 1.356 . S
C982 C979 1.358 . S
C982 H1038 0.930 . S
C983 N980 1.314 1_554 S
C983 C981 1.353 . S
C983 H1039 0.930 . S
C984 N985 1.314 1_556 S
C984 C989 1.353 . S
C984 H990 0.930 . S
N985 Li968 1.991 . S
N985 C984 1.314 1_554 S
N985 C987 1.279 . S
C986 C987 1.358 . S
C986 C988 1.368 . S
C986 H1040 0.930 . S
C987 N985 1.279 . S
C987 C986 1.358 . S
C987 H991 0.930 . S
C988 C986 1.368 . S
C988 C989 1.335 1_554 S
C989 C984 1.353 . S
C989 C988 1.335 1_556 S
C989 H1041 0.929 . S
H990 C984 0.930 . S
H991 C987 0.930 . S
C992 N993 1.314 . S
C992 C994 1.353 . S
C992 H998 0.930 . S
N993 Li969 1.990 . S
N993 C992 1.314 . S
N993 C996 1.279 . S
C994 C992 1.353 . S
C994 C997 1.348 . S
C994 H1042 0.929 . S
C995 C996 1.358 . S
C995 C997 1.356 . S
C995 H1043 0.930 . S
C996 N993 1.279 . S
C996 C995 1.358 . S
C996 H999 0.930 . S
C997 C994 1.348 . S
C997 C995 1.356 . S
H998 C992 0.930 . S
H999 C996 0.930 . S
C1000 C1002 1.348 . S
C1000 C1003 1.356 . S
C1000 O1030 1.325 . S
N1001 C1004 1.314 . S
N1001 C1005 1.279 . S
C1002 C1000 1.348 . S
C1002 C1004 1.353 . S
C1002 H1044 0.929 . S
C1003 C1000 1.356 . S
C1003 C1005 1.358 . S
C1003 H1045 0.930 . S
C1004 N1001 1.314 . S
C1004 C1002 1.353 . S
C1004 H1046 0.930 . S
C1005 N1001 1.279 . S
C1005 C1003 1.358 . S
C1005 H1047 0.930 . S
C1006 C1007 1.348 1_554 S
C1006 C1008 1.356 . S
C1006 O1031 1.324 . S
C1007 C1006 1.348 1_556 S
C1007 C1009 1.353 . S
C1007 H1048 0.929 . S
C1008 C1006 1.356 . S
C1008 C1010 1.358 . S
C1008 H1049 0.930 . S
C1009 C1007 1.353 . S
C1009 N1011 1.314 . S
C1009 H1050 0.930 . S
C1010 C1008 1.358 . S
C1010 N1011 1.279 1_554 S
C1010 H1051 0.930 . S
N1011 C1009 1.314 . S
N1011 C1010 1.279 1_556 S
C1012 C1014 1.353 . S
C1012 N1015 1.314 . S
C1012 H1018 0.930 . S
C1013 N1015 1.279 1_556 S
C1013 C1016 1.358 . S
C1013 H1019 0.930 . S
C1014 C1012 1.353 . S
C1014 C1017 1.348 . S
C1014 H1052 0.929 . S
N1015 Li970 1.988 . S
N1015 C1012 1.314 . S
N1015 C1013 1.279 1_554 S
C1016 C1013 1.358 . S
C1016 C1017 1.356 1_556 S
C1016 H1053 0.930 . S
C1017 C1014 1.348 . S
C1017 C1016 1.356 1_554 S
H1018 C1012 0.930 . S
H1019 C1013 0.930 . S
C1020 N1021 1.314 . S
C1020 C1022 1.353 . S
C1020 H1026 0.930 . S
N1021 Li971 1.990 . S
N1021 C1020 1.314 . S
N1021 C1024 1.279 . S
C1022 C1020 1.353 . S
C1022 C1025 1.348 . S
C1022 H1054 0.929 . S
C1023 C1024 1.358 . S
C1023 C1025 1.356 . S
C1023 H1055 0.930 . S
C1024 N1021 1.279 . S
C1024 C1023 1.358 . S
C1024 H1027 0.930 . S
C1025 C1022 1.348 . S
C1025 C1023 1.356 . S
H1026 C1020 0.930 . S
H1027 C1024 0.930 . S
O1028 Li968 1.987 . S
O1028 Li969 1.970 . S
O1028 Li970 2.012 . S
O1028 C972 1.325 . S
O1029 Li968 1.971 1_556 S
O1029 Li969 1.956 1_556 S
O1029 Li971 1.961 . S
O1029 C978 1.325 . S
O1030 Li968 1.927 1_556 S
O1030 Li970 1.911 1_556 S
O1030 Li971 1.970 . S
O1030 C1000 1.325 . S
O1031 Li969 1.986 . S
O1031 Li970 1.972 . S
O1031 Li971 1.931 1_554 S
O1031 C1006 1.324 . S
H1032 C974 0.929 . S
H1033 C975 0.930 . S
H1034 C976 0.930 . S
H1035 C977 0.930 . S
H1036 C979 0.930 . S
H1037 C981 0.929 . S
H1038 C982 0.930 . S
H1039 C983 0.930 . S
H1040 C986 0.930 . S
H1041 C989 0.929 . S
H1042 C994 0.929 . S
H1043 C995 0.930 . S
H1044 C1002 0.929 . S
H1045 C1003 0.930 . S
H1046 C1004 0.930 . S
H1047 C1005 0.930 . S
H1048 C1007 0.929 . S
H1049 C1008 0.930 . S
H1050 C1009 0.930 . S
H1051 C1010 0.930 . S
H1052 C1014 0.929 . S
H1053 C1016 0.930 . S
H1054 C1022 0.929 . S
H1055 C1023 0.930 . S
Li1056 N1073 1.990 . S
Li1056 O1116 1.956 . S
Li1056 O1117 1.970 . S
Li1056 O1118 1.961 . S
Li1057 N1081 1.990 . S
Li1057 O1116 1.970 . S
Li1057 O1117 1.956 . S
Li1057 O1119 1.961 . S
Li1058 N1103 1.990 . S
Li1058 O1116 1.961 . S
Li1058 O1118 1.956 . S
Li1058 O1119 1.970 . S
Li1059 N1109 1.990 1_554 S
Li1059 O1117 1.961 . S
Li1059 O1118 1.970 . S
Li1059 O1119 1.956 . S
C1060 C1062 1.348 . S
C1060 C1063 1.356 . S
C1060 O1116 1.325 . S
N1061 C1064 1.314 . S
N1061 C1065 1.279 . S
C1062 C1060 1.348 . S
C1062 C1064 1.353 . S
C1062 H1120 0.929 . S
C1063 C1060 1.356 . S
C1063 C1065 1.358 . S
C1063 H1121 0.930 . S
C1064 N1061 1.314 . S
C1064 C1062 1.353 . S
C1064 H1122 0.930 . S
C1065 N1061 1.279 . S
C1065 C1063 1.358 . S
C1065 H1123 0.930 . S
C1066 C1069 1.348 . S
C1066 C1070 1.356 . S
C1066 O1117 1.325 . S
C1067 N1068 1.279 . S
C1067 C1070 1.358 . S
C1067 H1124 0.930 . S
N1068 C1067 1.279 . S
N1068 C1071 1.314 . S
C1069 C1066 1.348 . S
C1069 C1071 1.353 . S
C1069 H1125 0.929 . S
C1070 C1066 1.356 . S
C1070 C1067 1.358 . S
C1070 H1126 0.930 . S
C1071 N1068 1.314 . S
C1071 C1069 1.353 . S
C1071 H1127 0.930 . S
C1072 N1073 1.314 . S
C1072 C1077 1.353 . S
C1072 H1078 0.876 1_554 S
N1073 Li1056 1.990 . S
N1073 C1072 1.314 . S
N1073 C1075 1.279 . S
C1074 C1075 1.358 . S
C1074 C1076 1.356 . S
C1074 H1128 0.930 . S
C1075 N1073 1.279 . S
C1075 C1074 1.358 . S
C1075 H1079 0.930 . S
C1076 C1074 1.356 . S
C1076 C1077 1.348 . S
C1077 C1072 1.353 . S
C1077 C1076 1.348 . S
C1077 H1129 0.929 1_554 S
H1078 C1072 0.876 1_556 S
H1079 C1075 0.930 . S
C1080 N1081 1.314 . S
C1080 C1082 1.353 . S
C1080 H1086 0.930 . S
N1081 Li1057 1.990 . S
N1081 C1080 1.314 . S
N1081 C1084 1.279 . S
C1082 C1080 1.353 . S
C1082 C1085 1.348 . S
C1082 H1130 0.929 . S
C1083 C1084 1.358 . S
C1083 C1085 1.356 . S
C1083 H1131 0.930 . S
C1084 N1081 1.279 . S
C1084 C1083 1.358 . S
C1084 H1087 0.930 . S
C1085 C1082 1.348 . S
C1085 C1083 1.356 . S
H1086 C1080 0.930 . S
H1087 C1084 0.930 . S
C1088 C1090 1.348 . S
C1088 C1091 1.356 . S
C1088 O1118 1.325 1_556 S
N1089 C1092 1.314 . S
N1089 C1093 1.279 . S
C1090 C1088 1.348 . S
C1090 C1092 1.353 . S
C1090 H1132 0.929 . S
C1091 C1088 1.356 . S
C1091 C1093 1.358 . S
C1091 H1133 0.930 1_556 S
C1092 N1089 1.314 . S
C1092 C1090 1.353 . S
C1092 H1134 0.930 . S
C1093 N1089 1.279 . S
C1093 C1091 1.358 . S
C1093 H1135 0.930 . S
C1094 C1095 1.348 . S
C1094 C1096 1.356 . S
C1094 O1119 1.325 . S
C1095 C1094 1.348 . S
C1095 C1097 1.353 . S
C1095 H1136 0.929 . S
C1096 C1094 1.356 . S
C1096 C1098 1.358 . S
C1096 H1137 0.930 . S
C1097 C1095 1.353 . S
C1097 N1099 1.314 . S
C1097 H1138 0.930 . S
C1098 C1096 1.358 . S
C1098 N1099 1.279 . S
C1098 H1139 0.930 . S
N1099 C1097 1.314 . S
N1099 C1098 1.279 . S
C1100 C1102 1.353 . S
C1100 N1103 1.314 . S
C1100 H1106 0.930 . S
C1101 N1103 1.279 . S
C1101 C1104 1.358 . S
C1101 H1107 0.930 . S
C1102 C1100 1.353 . S
C1102 C1105 1.348 . S
C1102 H1140 0.929 . S
N1103 Li1058 1.990 . S
N1103 C1100 1.314 . S
N1103 C1101 1.279 . S
C1104 C1101 1.358 . S
C1104 C1105 1.356 . S
C1104 H1141 0.930 . S
C1105 C1102 1.348 . S
C1105 C1104 1.356 . S
H1106 C1100 0.930 . S
H1107 C1101 0.930 . S
C1108 N1109 1.314 . S
C1108 C1110 1.353 . S
C1108 H1114 0.930 . S
N1109 Li1059 1.990 1_556 S
N1109 C1108 1.314 . S
N1109 C1112 1.279 . S
C1110 C1108 1.353 . S
C1110 C1113 1.348 . S
C1110 H1142 0.929 . S
C1111 C1112 1.358 . S
C1111 C1113 1.356 . S
C1111 H1143 0.930 . S
C1112 N1109 1.279 . S
C1112 C1111 1.358 . S
C1112 H1115 0.930 . S
C1113 C1110 1.348 . S
C1113 C1111 1.356 . S
H1114 C1108 0.930 . S
H1115 C1112 0.930 . S
O1116 Li1056 1.956 . S
O1116 Li1057 1.970 . S
O1116 Li1058 1.961 . S
O1116 C1060 1.325 . S
O1117 Li1056 1.970 . S
O1117 Li1057 1.956 . S
O1117 Li1059 1.961 . S
O1117 C1066 1.325 . S
O1118 Li1056 1.961 . S
O1118 Li1058 1.956 . S
O1118 Li1059 1.970 . S
O1118 C1088 1.325 1_554 S
O1119 Li1057 1.961 . S
O1119 Li1058 1.970 . S
O1119 Li1059 1.956 . S
O1119 C1094 1.325 . S
H1120 C1062 0.929 . S
H1121 C1063 0.930 . S
H1122 C1064 0.930 . S
H1123 C1065 0.930 . S
H1124 C1067 0.930 . S
H1125 C1069 0.929 . S
H1126 C1070 0.930 . S
H1127 C1071 0.930 . S
H1128 C1074 0.930 . S
H1129 C1077 0.929 1_556 S
H1130 C1082 0.929 . S
H1131 C1083 0.930 . S
H1132 C1090 0.929 . S
H1133 C1091 0.930 1_554 S
H1134 C1092 0.930 . S
H1135 C1093 0.930 . S
H1136 C1095 0.929 . S
H1137 C1096 0.930 . S
H1138 C1097 0.930 . S
H1139 C1098 0.930 . S
H1140 C1102 0.929 . S
H1141 C1104 0.930 . S
H1142 C1110 0.929 . S
H1143 C1111 0.930 . S
Li1144 N1161 1.990 . S
Li1144 O1204 1.956 . S
Li1144 O1205 1.970 . S
Li1144 O1206 1.961 . S
Li1145 N1169 1.990 . S
Li1145 O1204 1.970 . S
Li1145 O1205 1.956 . S
Li1145 O1207 1.961 . S
Li1146 N1191 1.990 . S
Li1146 O1204 1.961 . S
Li1146 O1206 1.956 . S
Li1146 O1207 1.970 . S
Li1147 N1197 1.990 . S
Li1147 O1205 1.961 . S
Li1147 O1206 1.970 . S
Li1147 O1207 1.956 . S
C1148 C1150 1.348 . S
C1148 C1151 1.356 . S
C1148 O1204 1.325 . S
N1149 C1152 1.314 . S
N1149 C1153 1.279 . S
C1150 C1148 1.348 . S
C1150 C1152 1.353 . S
C1150 H1208 0.929 . S
C1151 C1148 1.356 . S
C1151 C1153 1.358 . S
C1151 H1209 0.930 . S
C1152 N1149 1.314 . S
C1152 C1150 1.353 . S
C1152 H1210 0.930 . S
C1153 N1149 1.279 . S
C1153 C1151 1.358 . S
C1153 H1211 0.930 . S
C1154 C1157 1.348 . S
C1154 C1158 1.356 . S
C1154 O1205 1.325 . S
C1155 N1156 1.279 . S
C1155 C1158 1.358 . S
C1155 H1212 0.930 . S
N1156 C1155 1.279 . S
N1156 C1159 1.314 . S
C1157 C1154 1.348 . S
C1157 C1159 1.353 . S
C1157 H1213 0.929 . S
C1158 C1154 1.356 . S
C1158 C1155 1.358 . S
C1158 H1214 0.930 . S
C1159 N1156 1.314 . S
C1159 C1157 1.353 . S
C1159 H1215 0.930 . S
C1160 N1161 1.314 . S
C1160 C1165 1.353 . S
C1160 H1166 0.930 . S
N1161 Li1144 1.990 . S
N1161 C1160 1.314 . S
N1161 C1163 1.279 . S
C1162 C1163 1.358 . S
C1162 C1164 1.356 . S
C1162 H1216 0.930 . S
C1163 N1161 1.279 . S
C1163 C1162 1.358 . S
C1163 H1167 0.930 . S
C1164 C1162 1.356 . S
C1164 C1165 1.348 . S
C1165 C1160 1.353 . S
C1165 C1164 1.348 . S
C1165 H1217 0.929 . S
H1166 C1160 0.930 . S
H1167 C1163 0.930 . S
C1168 N1169 1.314 . S
C1168 C1170 1.353 . S
C1168 H1174 0.930 . S
N1169 Li1145 1.990 . S
N1169 C1168 1.314 . S
N1169 C1172 1.279 . S
C1170 C1168 1.353 . S
C1170 C1173 1.348 . S
C1170 H1218 0.929 . S
C1171 C1172 1.358 . S
C1171 C1173 1.356 . S
C1171 H1219 0.930 . S
C1172 N1169 1.279 . S
C1172 C1171 1.358 . S
C1172 H1175 0.930 . S
C1173 C1170 1.348 . S
C1173 C1171 1.356 . S
H1174 C1168 0.930 . S
H1175 C1172 0.930 . S
C1176 C1178 1.348 . S
C1176 C1179 1.356 . S
C1176 O1206 1.325 . S
N1177 C1180 1.314 . S
N1177 C1181 1.279 . S
C1178 C1176 1.348 . S
C1178 C1180 1.353 . S
C1178 H1220 0.929 . S
C1179 C1176 1.356 . S
C1179 C1181 1.358 . S
C1179 H1221 0.930 . S
C1180 N1177 1.314 . S
C1180 C1178 1.353 . S
C1180 H1222 0.930 . S
C1181 N1177 1.279 . S
C1181 C1179 1.358 . S
C1181 H1223 0.930 . S
C1182 C1183 1.348 1_554 S
C1182 C1184 1.356 . S
C1182 O1207 1.325 . S
C1183 C1182 1.348 1_556 S
C1183 C1185 1.353 . S
C1183 H1224 0.929 . S
C1184 C1182 1.356 . S
C1184 C1186 1.358 1_554 S
C1184 H1225 0.930 . S
C1185 C1183 1.353 . S
C1185 N1187 1.314 . S
C1185 H1226 0.930 . S
C1186 C1184 1.358 1_556 S
C1186 N1187 1.279 . S
C1186 H1227 0.930 . S
N1187 C1185 1.314 . S
N1187 C1186 1.279 . S
C1188 C1190 1.299 1_554 S
C1188 N1191 1.353 . S
C1188 H1194 0.950 . S
C1189 N1191 1.279 . S
C1189 C1192 1.358 1_554 S
C1189 H1195 0.930 . S
C1190 C1188 1.299 1_556 S
C1190 C1193 1.348 . S
C1190 H1228 0.929 . S
N1191 Li1146 1.990 . S
N1191 C1188 1.353 . S
N1191 C1189 1.279 . S
C1192 C1189 1.358 1_556 S
C1192 C1193 1.356 . S
C1192 H1229 0.930 . S
C1193 C1190 1.348 . S
C1193 C1192 1.356 . S
H1194 C1188 0.950 . S
H1195 C1189 0.930 . S
C1196 N1197 1.314 . S
C1196 C1198 1.353 . S
C1196 H1202 0.930 . S
N1197 Li1147 1.990 . S
N1197 C1196 1.314 . S
N1197 C1200 1.279 . S
C1198 C1196 1.353 . S
C1198 C1201 1.348 . S
C1198 H1230 0.929 . S
C1199 C1200 1.358 . S
C1199 C1201 1.356 . S
C1199 H1231 0.930 . S
C1200 N1197 1.279 . S
C1200 C1199 1.358 . S
C1200 H1203 0.930 . S
C1201 C1198 1.348 . S
C1201 C1199 1.356 . S
H1202 C1196 0.930 . S
H1203 C1200 0.930 . S
O1204 Li1144 1.956 . S
O1204 Li1145 1.970 . S
O1204 Li1146 1.961 . S
O1204 C1148 1.325 . S
O1205 Li1144 1.970 . S
O1205 Li1145 1.956 . S
O1205 Li1147 1.961 . S
O1205 C1154 1.325 . S
O1206 Li1144 1.961 . S
O1206 Li1146 1.956 . S
O1206 Li1147 1.970 . S
O1206 C1176 1.325 . S
O1207 Li1145 1.961 . S
O1207 Li1146 1.970 . S
O1207 Li1147 1.956 . S
O1207 C1182 1.325 . S
H1208 C1150 0.929 . S
H1209 C1151 0.930 . S
H1210 C1152 0.930 . S
H1211 C1153 0.930 . S
H1212 C1155 0.930 . S
H1213 C1157 0.929 . S
H1214 C1158 0.930 . S
H1215 C1159 0.930 . S
H1216 C1162 0.930 . S
H1217 C1165 0.929 . S
H1218 C1170 0.929 . S
H1219 C1171 0.930 . S
H1220 C1178 0.929 . S
H1221 C1179 0.930 . S
H1222 C1180 0.930 . S
H1223 C1181 0.930 . S
H1224 C1183 0.929 . S
H1225 C1184 0.930 . S
H1226 C1185 0.930 . S
H1227 C1186 0.930 . S
H1228 C1190 0.929 . S
H1229 C1192 0.930 . S
H1230 C1198 0.929 . S
H1231 C1199 0.930 . S
Li1232 N1249 1.990 . S
Li1232 O1292 1.956 . S
Li1232 O1293 1.970 . S
Li1232 O1294 1.961 . S
Li1233 N1257 1.990 . S
Li1233 O1292 1.970 . S
Li1233 O1293 1.956 . S
Li1233 O1295 1.961 . S
Li1234 N1279 1.990 . S
Li1234 O1292 1.961 . S
Li1234 O1294 1.956 . S
Li1234 O1295 1.970 . S
Li1235 N1285 1.990 . S
Li1235 O1293 1.961 . S
Li1235 O1294 1.970 . S
Li1235 O1295 1.956 . S
C1236 C1238 1.348 . S
C1236 C1239 1.356 . S
C1236 O1292 1.325 . S
N1237 C1240 1.314 . S
N1237 C1241 1.279 . S
C1238 C1236 1.348 . S
C1238 C1240 1.353 . S
C1238 H1296 0.929 . S
C1239 C1236 1.356 . S
C1239 C1241 1.358 . S
C1239 H1297 0.930 . S
C1240 N1237 1.314 . S
C1240 C1238 1.353 . S
C1240 H1298 0.930 . S
C1241 N1237 1.279 . S
C1241 C1239 1.358 . S
C1241 H1299 0.930 . S
C1242 C1245 1.348 . S
C1242 C1246 1.356 . S
C1242 O1293 1.325 . S
C1243 N1244 1.279 . S
C1243 C1246 1.358 . S
C1243 H1300 0.930 . S
N1244 C1243 1.279 . S
N1244 C1247 1.314 . S
C1245 C1242 1.348 . S
C1245 C1247 1.353 . S
C1245 H1301 0.929 . S
C1246 C1242 1.356 . S
C1246 C1243 1.358 . S
C1246 H1302 0.930 . S
C1247 N1244 1.314 . S
C1247 C1245 1.353 . S
C1247 H1303 0.930 . S
C1248 N1249 1.314 . S
C1248 C1253 1.353 . S
C1248 H1254 0.930 . S
N1249 Li1232 1.990 . S
N1249 C1248 1.314 . S
N1249 C1251 1.279 . S
C1250 C1251 1.358 . S
C1250 C1252 1.356 . S
C1250 H1304 0.930 . S
C1251 N1249 1.279 . S
C1251 C1250 1.358 . S
C1251 H1255 0.930 . S
C1252 C1250 1.356 . S
C1252 C1253 1.348 . S
C1253 C1248 1.353 . S
C1253 C1252 1.348 . S
C1253 H1305 0.929 . S
H1254 C1248 0.930 . S
H1255 C1251 0.930 . S
C1256 N1257 1.314 . S
C1256 C1258 1.353 . S
C1256 H1262 0.930 . S
N1257 Li1233 1.990 . S
N1257 C1256 1.314 . S
N1257 C1260 1.279 . S
C1258 C1256 1.353 . S
C1258 C1261 1.348 . S
C1258 H1306 0.929 . S
C1259 C1260 1.358 . S
C1259 C1261 1.356 . S
C1259 H1307 0.930 . S
C1260 N1257 1.279 . S
C1260 C1259 1.358 . S
C1260 H1263 0.930 . S
C1261 C1258 1.348 . S
C1261 C1259 1.356 . S
H1262 C1256 0.930 . S
H1263 C1260 0.930 . S
C1264 C1266 1.348 . S
C1264 C1267 1.356 . S
C1264 O1294 1.325 . S
N1265 C1268 1.314 . S
N1265 C1269 1.279 . S
C1266 C1264 1.348 . S
C1266 C1268 1.353 . S
C1266 H1308 0.929 . S
C1267 C1264 1.356 . S
C1267 C1269 1.358 . S
C1267 H1309 0.930 . S
C1268 N1265 1.314 . S
C1268 C1266 1.353 . S
C1268 H1310 0.930 . S
C1269 N1265 1.279 . S
C1269 C1267 1.358 . S
C1269 H1311 0.930 . S
C1270 C1271 1.348 . S
C1270 C1272 1.356 . S
C1270 O1295 1.325 . S
C1271 C1270 1.348 . S
C1271 C1273 1.353 . S
C1271 H1312 0.929 . S
C1272 C1270 1.356 . S
C1272 C1274 1.358 . S
C1272 H1313 0.930 . S
C1273 C1271 1.353 . S
C1273 N1275 1.314 . S
C1273 H1314 0.930 . S
C1274 C1272 1.358 . S
C1274 N1275 1.279 . S
C1274 H1315 0.930 . S
N1275 C1273 1.314 . S
N1275 C1274 1.279 . S
C1276 C1278 1.353 . S
C1276 N1279 1.314 . S
C1276 H1282 0.930 . S
C1277 N1279 1.279 . S
C1277 C1280 1.358 . S
C1277 H1283 0.930 . S
C1278 C1276 1.353 . S
C1278 C1281 1.348 . S
C1278 H1316 0.929 . S
N1279 Li1234 1.990 . S
N1279 C1276 1.314 . S
N1279 C1277 1.279 . S
C1280 C1277 1.358 . S
C1280 C1281 1.356 . S
C1280 H1317 0.930 . S
C1281 C1278 1.348 . S
C1281 C1280 1.356 . S
H1282 C1276 0.930 . S
H1283 C1277 0.930 . S
C1284 N1285 1.314 . S
C1284 C1286 1.353 . S
C1284 H1290 0.930 . S
N1285 Li1235 1.990 . S
N1285 C1284 1.314 . S
N1285 C1288 1.279 . S
C1286 C1284 1.353 . S
C1286 C1289 1.348 . S
C1286 H1318 0.929 . S
C1287 C1288 1.358 . S
C1287 C1289 1.356 . S
C1287 H1319 0.930 . S
C1288 N1285 1.279 . S
C1288 C1287 1.358 . S
C1288 H1291 0.930 . S
C1289 C1286 1.348 . S
C1289 C1287 1.356 . S
H1290 C1284 0.930 . S
H1291 C1288 0.930 . S
O1292 Li1232 1.956 . S
O1292 Li1233 1.970 . S
O1292 Li1234 1.961 . S
O1292 C1236 1.325 . S
O1293 Li1232 1.970 . S
O1293 Li1233 1.956 . S
O1293 Li1235 1.961 . S
O1293 C1242 1.325 . S
O1294 Li1232 1.961 . S
O1294 Li1234 1.956 . S
O1294 Li1235 1.970 . S
O1294 C1264 1.325 . S
O1295 Li1233 1.961 . S
O1295 Li1234 1.970 . S
O1295 Li1235 1.956 . S
O1295 C1270 1.325 . S
H1296 C1238 0.929 . S
H1297 C1239 0.930 . S
H1298 C1240 0.930 . S
H1299 C1241 0.930 . S
H1300 C1243 0.930 . S
H1301 C1245 0.929 . S
H1302 C1246 0.930 . S
H1303 C1247 0.930 . S
H1304 C1250 0.930 . S
H1305 C1253 0.929 . S
H1306 C1258 0.929 . S
H1307 C1259 0.930 . S
H1308 C1266 0.929 . S
H1309 C1267 0.930 . S
H1310 C1268 0.930 . S
H1311 C1269 0.930 . S
H1312 C1271 0.929 . S
H1313 C1272 0.930 . S
H1314 C1273 0.930 . S
H1315 C1274 0.930 . S
H1316 C1278 0.929 . S
H1317 C1280 0.930 . S
H1318 C1286 0.929 . S
H1319 C1287 0.930 . S
Li1320 N1337 1.990 . S
Li1320 O1380 1.956 . S
Li1320 O1381 1.970 . S
Li1320 O1382 1.961 . S
Li1321 N1345 1.990 . S
Li1321 O1380 1.970 . S
Li1321 O1381 1.956 . S
Li1321 O1383 1.961 . S
Li1322 N1367 1.990 . S
Li1322 O1380 1.961 . S
Li1322 O1382 1.956 . S
Li1322 O1383 1.970 . S
Li1323 N1373 1.990 . S
Li1323 O1381 1.961 . S
Li1323 O1382 1.970 . S
Li1323 O1383 1.956 . S
C1324 C1326 1.348 . S
C1324 C1327 1.356 . S
C1324 O1380 1.325 . S
N1325 C1328 1.314 . S
N1325 C1329 1.279 . S
C1326 C1324 1.348 . S
C1326 C1328 1.353 . S
C1326 H1384 0.929 . S
C1327 C1324 1.356 . S
C1327 C1329 1.358 . S
C1327 H1385 0.930 . S
C1328 N1325 1.314 . S
C1328 C1326 1.353 . S
C1328 H1386 0.930 . S
C1329 N1325 1.279 . S
C1329 C1327 1.358 . S
C1329 H1387 0.930 . S
C1330 C1333 1.348 . S
C1330 C1334 1.356 . S
C1330 O1381 1.325 . S
C1331 N1332 1.279 . S
C1331 C1334 1.358 . S
C1331 H1388 0.930 . S
N1332 C1331 1.279 . S
N1332 C1335 1.314 . S
C1333 C1330 1.348 . S
C1333 C1335 1.353 . S
C1333 H1389 0.929 . S
C1334 C1330 1.356 . S
C1334 C1331 1.358 . S
C1334 H1390 0.930 . S
C1335 N1332 1.314 . S
C1335 C1333 1.353 . S
C1335 H1391 0.930 . S
C1336 N1337 1.314 . S
C1336 C1341 1.353 . S
C1336 H1342 0.930 . S
N1337 Li1320 1.990 . S
N1337 C1336 1.314 . S
N1337 C1339 1.279 . S
C1338 C1339 1.358 . S
C1338 C1340 1.356 . S
C1338 H1392 0.930 . S
C1339 N1337 1.279 . S
C1339 C1338 1.358 . S
C1339 H1343 0.930 . S
C1340 C1338 1.356 . S
C1340 C1341 1.348 . S
C1341 C1336 1.353 . S
C1341 C1340 1.348 . S
C1341 H1393 0.929 . S
H1342 C1336 0.930 . S
H1343 C1339 0.930 . S
C1344 N1345 1.314 . S
C1344 C1346 1.353 . S
C1344 H1350 0.930 . S
N1345 Li1321 1.990 . S
N1345 C1344 1.314 . S
N1345 C1348 1.279 . S
C1346 C1344 1.353 . S
C1346 C1349 1.348 . S
C1346 H1394 0.929 . S
C1347 C1348 1.358 . S
C1347 C1349 1.356 . S
C1347 H1395 0.930 . S
C1348 N1345 1.279 . S
C1348 C1347 1.358 . S
C1348 H1351 0.930 . S
C1349 C1346 1.348 . S
C1349 C1347 1.356 . S
H1350 C1344 0.930 . S
H1351 C1348 0.930 . S
C1352 C1354 1.348 . S
C1352 C1355 1.356 . S
C1352 O1382 1.325 . S
N1353 C1356 1.314 . S
N1353 C1357 1.279 . S
C1354 C1352 1.348 . S
C1354 C1356 1.353 . S
C1354 H1396 0.929 . S
C1355 C1352 1.356 . S
C1355 C1357 1.358 . S
C1355 H1397 0.930 . S
C1356 N1353 1.314 . S
C1356 C1354 1.353 . S
C1356 H1398 0.930 . S
C1357 N1353 1.279 . S
C1357 C1355 1.358 . S
C1357 H1399 0.930 . S
C1358 C1359 1.348 . S
C1358 C1360 1.356 . S
C1358 O1383 1.325 . S
C1359 C1358 1.348 . S
C1359 C1361 1.353 . S
C1359 H1400 0.929 . S
C1360 C1358 1.356 . S
C1360 C1362 1.358 . S
C1360 H1401 0.930 . S
C1361 C1359 1.353 . S
C1361 N1363 1.314 . S
C1361 H1402 0.930 . S
C1362 C1360 1.358 . S
C1362 N1363 1.279 . S
C1362 H1403 0.930 . S
N1363 C1361 1.314 . S
N1363 C1362 1.279 . S
C1364 C1366 1.353 . S
C1364 N1367 1.314 . S
C1364 H1370 0.930 . S
C1365 N1367 1.279 . S
C1365 C1368 1.358 . S
C1365 H1371 0.930 . S
C1366 C1364 1.353 . S
C1366 C1369 1.348 . S
C1366 H1404 0.929 . S
N1367 Li1322 1.990 . S
N1367 C1364 1.314 . S
N1367 C1365 1.279 . S
C1368 C1365 1.358 . S
C1368 C1369 1.356 . S
C1368 H1405 0.930 . S
C1369 C1366 1.348 . S
C1369 C1368 1.356 . S
H1370 C1364 0.930 . S
H1371 C1365 0.930 . S
C1372 N1373 1.314 . S
C1372 C1374 1.353 . S
C1372 H1378 0.930 . S
N1373 Li1323 1.990 . S
N1373 C1372 1.314 . S
N1373 C1376 1.279 . S
C1374 C1372 1.353 . S
C1374 C1377 1.348 . S
C1374 H1406 0.929 . S
C1375 C1376 1.358 . S
C1375 C1377 1.356 . S
C1375 H1407 0.930 . S
C1376 N1373 1.279 . S
C1376 C1375 1.358 . S
C1376 H1379 0.930 . S
C1377 C1374 1.348 . S
C1377 C1375 1.356 . S
H1378 C1372 0.930 . S
H1379 C1376 0.930 . S
O1380 Li1320 1.956 . S
O1380 Li1321 1.970 . S
O1380 Li1322 1.961 . S
O1380 C1324 1.325 . S
O1381 Li1320 1.970 . S
O1381 Li1321 1.956 . S
O1381 Li1323 1.961 . S
O1381 C1330 1.325 . S
O1382 Li1320 1.961 . S
O1382 Li1322 1.956 . S
O1382 Li1323 1.970 . S
O1382 C1352 1.325 . S
O1383 Li1321 1.961 . S
O1383 Li1322 1.970 . S
O1383 Li1323 1.956 . S
O1383 C1358 1.325 . S
H1384 C1326 0.929 . S
H1385 C1327 0.930 . S
H1386 C1328 0.930 . S
H1387 C1329 0.930 . S
H1388 C1331 0.930 . S
H1389 C1333 0.929 . S
H1390 C1334 0.930 . S
H1391 C1335 0.930 . S
H1392 C1338 0.930 . S
H1393 C1341 0.929 . S
H1394 C1346 0.929 . S
H1395 C1347 0.930 . S
H1396 C1354 0.929 . S
H1397 C1355 0.930 . S
H1398 C1356 0.930 . S
H1399 C1357 0.930 . S
H1400 C1359 0.929 . S
H1401 C1360 0.930 . S
H1402 C1361 0.930 . S
H1403 C1362 0.930 . S
H1404 C1366 0.929 . S
H1405 C1368 0.930 . S
H1406 C1374 0.929 . S
H1407 C1375 0.930 . S
Li1408 N1425 1.990 . S
Li1408 O1468 1.956 1_545 S
Li1408 O1469 1.970 . S
Li1408 O1470 1.961 . S
Li1409 N1433 1.990 . S
Li1409 O1468 1.970 . S
Li1409 O1469 1.956 1_565 S
Li1409 O1471 1.961 1_565 S
Li1410 N1455 1.990 . S
Li1410 O1468 1.961 1_545 S
Li1410 O1470 1.956 . S
Li1410 O1471 1.970 . S
Li1411 N1461 1.990 . S
Li1411 O1469 1.961 . S
Li1411 O1470 1.970 . S
Li1411 O1471 1.956 . S
C1412 C1414 1.348 . S
C1412 C1415 1.356 . S
C1412 O1468 1.325 . S
N1413 C1416 1.314 . S
N1413 C1417 1.279 . S
C1414 C1412 1.348 . S
C1414 C1416 1.353 . S
C1414 H1472 0.929 . S
C1415 C1412 1.356 . S
C1415 C1417 1.358 . S
C1415 H1473 0.930 . S
C1416 N1413 1.314 . S
C1416 C1414 1.353 . S
C1416 H1474 0.930 . S
C1417 N1413 1.279 . S
C1417 C1415 1.358 . S
C1417 H1475 0.930 . S
C1418 C1421 1.348 . S
C1418 C1422 1.356 . S
C1418 O1469 1.325 . S
C1419 N1420 1.279 . S
C1419 C1422 1.358 . S
C1419 H1476 0.930 . S
N1420 C1419 1.279 . S
N1420 C1423 1.314 . S
C1421 C1418 1.348 . S
C1421 C1423 1.353 . S
C1421 H1477 0.929 . S
C1422 C1418 1.356 . S
C1422 C1419 1.358 . S
C1422 H1478 0.930 . S
C1423 N1420 1.314 . S
C1423 C1421 1.353 . S
C1423 H1479 0.940 . S
C1424 N1425 1.314 . S
C1424 C1429 1.353 . S
C1424 H1430 0.930 . S
N1425 Li1408 1.990 . S
N1425 C1424 1.314 . S
N1425 C1427 1.279 . S
C1426 C1427 1.358 . S
C1426 C1428 1.356 . S
C1426 H1480 0.930 1_545 S
C1427 N1425 1.279 . S
C1427 C1426 1.358 . S
C1427 H1431 0.930 1_545 S
C1428 C1426 1.356 . S
C1428 C1429 1.348 . S
C1429 C1424 1.353 . S
C1429 C1428 1.348 . S
C1429 H1481 0.929 . S
H1430 C1424 0.930 . S
H1431 C1427 0.930 1_565 S
C1432 N1433 1.314 . S
C1432 C1434 1.353 . S
C1432 H1438 0.930 . S
N1433 Li1409 1.990 . S
N1433 C1432 1.314 . S
N1433 C1436 1.279 . S
C1434 C1432 1.353 . S
C1434 C1437 1.348 . S
C1434 H1482 0.929 . S
C1435 C1436 1.358 . S
C1435 C1437 1.356 . S
C1435 H1483 0.930 . S
C1436 N1433 1.279 . S
C1436 C1435 1.358 . S
C1436 H1439 0.930 . S
C1437 C1434 1.348 . S
C1437 C1435 1.356 . S
H1438 C1432 0.930 . S
H1439 C1436 0.930 . S
C1440 C1442 1.348 . S
C1440 C1443 1.356 . S
C1440 O1470 1.325 . S
N1441 C1444 1.314 . S
N1441 C1445 1.279 . S
C1442 C1440 1.348 . S
C1442 C1444 1.353 . S
C1442 H1484 0.929 . S
C1443 C1440 1.356 . S
C1443 C1445 1.358 . S
C1443 H1485 0.930 . S
C1444 N1441 1.314 . S
C1444 C1442 1.353 . S
C1444 H1486 0.930 . S
C1445 N1441 1.279 . S
C1445 C1443 1.358 . S
C1445 H1487 0.930 . S
C1446 C1447 1.348 . S
C1446 C1448 1.356 1_545 S
C1446 O1471 1.325 . S
C1447 C1446 1.348 . S
C1447 C1449 1.353 . S
C1447 H1488 0.929 . S
C1448 C1446 1.356 1_565 S
C1448 C1450 1.358 . S
C1448 H1489 0.930 . S
C1449 C1447 1.353 . S
C1449 N1451 1.314 . S
C1449 H1490 0.930 . S
C1450 C1448 1.358 . S
C1450 N1451 1.279 1_565 S
C1450 H1491 0.930 . S
N1451 C1449 1.314 . S
N1451 C1450 1.279 1_545 S
C1452 C1454 1.353 . S
C1452 N1455 1.314 . S
C1452 H1458 0.930 1_545 S
C1453 N1455 1.279 . S
C1453 C1456 1.358 . S
C1453 H1459 0.930 . S
C1454 C1452 1.353 . S
C1454 C1457 1.348 . S
C1454 H1492 0.929 1_545 S
N1455 Li1410 1.990 . S
N1455 C1452 1.314 . S
N1455 C1453 1.279 . S
C1456 C1453 1.358 . S
C1456 C1457 1.356 . S
C1456 H1493 0.930 . S
C1457 C1454 1.348 . S
C1457 C1456 1.356 . S
H1458 C1452 0.930 1_565 S
H1459 C1453 0.930 . S
C1460 N1461 1.314 . S
C1460 C1462 1.353 . S
C1460 H1466 0.930 . S
N1461 Li1411 1.990 . S
N1461 C1460 1.314 . S
N1461 C1464 1.279 . S
C1462 C1460 1.353 . S
C1462 C1465 1.348 . S
C1462 H1494 0.929 . S
C1463 C1464 1.358 . S
C1463 C1465 1.356 . S
C1463 H1495 0.930 . S
C1464 N1461 1.279 . S
C1464 C1463 1.358 . S
C1464 H1467 0.930 . S
C1465 C1462 1.348 . S
C1465 C1463 1.356 . S
H1466 C1460 0.930 . S
H1467 C1464 0.930 . S
O1468 Li1408 1.956 1_565 S
O1468 Li1409 1.970 . S
O1468 Li1410 1.961 1_565 S
O1468 C1412 1.325 . S
O1469 Li1408 1.970 . S
O1469 Li1409 1.956 1_545 S
O1469 Li1411 1.961 . S
O1469 C1418 1.325 . S
O1470 Li1408 1.961 . S
O1470 Li1410 1.956 . S
O1470 Li1411 1.970 . S
O1470 C1440 1.325 . S
O1471 Li1409 1.961 1_545 S
O1471 Li1410 1.970 . S
O1471 Li1411 1.956 . S
O1471 C1446 1.325 . S
H1472 C1414 0.929 . S
H1473 C1415 0.930 . S
H1474 C1416 0.930 . S
H1475 C1417 0.930 . S
H1476 C1419 0.930 . S
H1477 C1421 0.929 . S
H1478 C1422 0.930 . S
H1479 C1423 0.940 . S
H1480 C1426 0.930 1_565 S
H1481 C1429 0.929 . S
H1482 C1434 0.929 . S
H1483 C1435 0.930 . S
H1484 C1442 0.929 . S
H1485 C1443 0.930 . S
H1486 C1444 0.930 . S
H1487 C1445 0.930 . S
H1488 C1447 0.929 . S
H1489 C1448 0.930 . S
H1490 C1449 0.930 . S
H1491 C1450 0.930 . S
H1492 C1454 0.929 1_565 S
H1493 C1456 0.930 . S
H1494 C1462 0.929 . S
H1495 C1463 0.930 . S
Li1496 N1513 1.990 . S
Li1496 O1556 1.956 . S
Li1496 O1557 1.970 . S
Li1496 O1558 1.961 . S
Li1497 N1521 1.990 . S
Li1497 O1556 1.970 . S
Li1497 O1557 1.956 . S
Li1497 O1559 1.961 . S
Li1498 N1543 1.990 . S
Li1498 O1556 1.961 . S
Li1498 O1558 1.956 . S
Li1498 O1559 1.970 . S
Li1499 N1549 1.990 . S
Li1499 O1557 1.961 . S
Li1499 O1558 1.970 . S
Li1499 O1559 1.956 . S
C1500 C1502 1.348 . S
C1500 C1503 1.356 . S
C1500 O1556 1.325 . S
N1501 C1504 1.314 . S
N1501 C1505 1.279 . S
C1502 C1500 1.348 . S
C1502 C1504 1.353 . S
C1502 H1560 0.929 . S
C1503 C1500 1.356 . S
C1503 C1505 1.358 . S
C1503 H1561 0.930 . S
C1504 N1501 1.314 . S
C1504 C1502 1.353 . S
C1504 H1562 0.930 . S
C1505 N1501 1.279 . S
C1505 C1503 1.358 . S
C1505 H1563 0.930 . S
C1506 C1509 1.348 . S
C1506 C1510 1.356 . S
C1506 O1557 1.325 . S
C1507 N1508 1.279 . S
C1507 C1510 1.358 . S
C1507 H1564 0.930 . S
N1508 C1507 1.279 . S
N1508 C1511 1.314 . S
C1509 C1506 1.348 . S
C1509 C1511 1.353 . S
C1509 H1565 0.929 . S
C1510 C1506 1.356 . S
C1510 C1507 1.358 . S
C1510 H1566 0.930 . S
C1511 N1508 1.314 . S
C1511 C1509 1.353 . S
C1511 H1567 0.930 . S
C1512 N1513 1.314 . S
C1512 C1517 1.353 . S
C1512 H1518 0.930 . S
N1513 Li1496 1.990 . S
N1513 C1512 1.314 . S
N1513 C1515 1.279 . S
C1514 C1515 1.358 . S
C1514 C1516 1.356 . S
C1514 H1568 0.930 . S
C1515 N1513 1.279 . S
C1515 C1514 1.358 . S
C1515 H1519 0.930 . S
C1516 C1514 1.356 . S
C1516 C1517 1.348 . S
C1517 C1512 1.353 . S
C1517 C1516 1.348 . S
C1517 H1569 0.929 . S
H1518 C1512 0.930 . S
H1519 C1515 0.930 . S
C1520 N1521 1.314 . S
C1520 C1522 1.353 . S
C1520 H1526 0.930 . S
N1521 Li1497 1.990 . S
N1521 C1520 1.314 . S
N1521 C1524 1.279 . S
C1522 C1520 1.353 . S
C1522 C1525 1.348 . S
C1522 H1570 0.929 . S
C1523 C1524 1.358 . S
C1523 C1525 1.356 . S
C1523 H1571 0.930 . S
C1524 N1521 1.279 . S
C1524 C1523 1.358 . S
C1524 H1527 0.930 . S
C1525 C1522 1.348 . S
C1525 C1523 1.356 . S
H1526 C1520 0.930 . S
H1527 C1524 0.930 . S
C1528 C1530 1.348 . S
C1528 C1531 1.356 . S
C1528 O1558 1.325 . S
N1529 C1532 1.314 . S
N1529 C1533 1.279 . S
C1530 C1528 1.348 . S
C1530 C1532 1.353 . S
C1530 H1572 0.929 . S
C1531 C1528 1.356 . S
C1531 C1533 1.358 . S
C1531 H1573 0.930 . S
C1532 N1529 1.314 . S
C1532 C1530 1.353 . S
C1532 H1574 0.930 . S
C1533 N1529 1.279 . S
C1533 C1531 1.358 . S
C1533 H1575 0.930 . S
C1534 C1535 1.348 . S
C1534 C1536 1.356 . S
C1534 O1559 1.325 . S
C1535 C1534 1.348 . S
C1535 C1537 1.353 . S
C1535 H1576 0.929 . S
C1536 C1534 1.356 . S
C1536 C1538 1.358 . S
C1536 H1577 0.930 . S
C1537 C1535 1.353 . S
C1537 N1539 1.314 . S
C1537 H1578 0.930 . S
C1538 C1536 1.358 . S
C1538 N1539 1.279 . S
C1538 H1579 0.930 . S
N1539 C1537 1.314 . S
N1539 C1538 1.279 . S
C1540 C1542 1.353 . S
C1540 N1543 1.314 . S
C1540 H1546 0.930 . S
C1541 N1543 1.279 . S
C1541 C1544 1.358 . S
C1541 H1547 0.930 . S
C1542 C1540 1.353 . S
C1542 C1545 1.348 . S
C1542 H1580 0.929 . S
N1543 Li1498 1.990 . S
N1543 C1540 1.314 . S
N1543 C1541 1.279 . S
C1544 C1541 1.358 . S
C1544 C1545 1.356 . S
C1544 H1581 0.930 . S
C1545 C1542 1.348 . S
C1545 C1544 1.356 . S
H1546 C1540 0.930 . S
H1547 C1541 0.930 . S
C1548 N1549 1.314 . S
C1548 C1550 1.353 . S
C1548 H1554 0.930 . S
N1549 Li1499 1.990 . S
N1549 C1548 1.314 . S
N1549 C1552 1.279 . S
C1550 C1548 1.353 . S
C1550 C1553 1.348 . S
C1550 H1582 0.929 . S
C1551 C1552 1.358 . S
C1551 C1553 1.356 . S
C1551 H1583 0.930 . S
C1552 N1549 1.279 . S
C1552 C1551 1.358 . S
C1552 H1555 0.930 . S
C1553 C1550 1.348 . S
C1553 C1551 1.356 . S
H1554 C1548 0.930 . S
H1555 C1552 0.930 . S
O1556 Li1496 1.956 . S
O1556 Li1497 1.970 . S
O1556 Li1498 1.961 . S
O1556 C1500 1.325 . S
O1557 Li1496 1.970 . S
O1557 Li1497 1.956 . S
O1557 Li1499 1.961 . S
O1557 C1506 1.325 . S
O1558 Li1496 1.961 . S
O1558 Li1498 1.956 . S
O1558 Li1499 1.970 . S
O1558 C1528 1.325 . S
O1559 Li1497 1.961 . S
O1559 Li1498 1.970 . S
O1559 Li1499 1.956 . S
O1559 C1534 1.325 . S
H1560 C1502 0.929 . S
H1561 C1503 0.930 . S
H1562 C1504 0.930 . S
H1563 C1505 0.930 . S
H1564 C1507 0.930 . S
H1565 C1509 0.929 . S
H1566 C1510 0.930 . S
H1567 C1511 0.930 . S
H1568 C1514 0.930 . S
H1569 C1517 0.929 . S
H1570 C1522 0.929 . S
H1571 C1523 0.930 . S
H1572 C1530 0.929 . S
H1573 C1531 0.930 . S
H1574 C1532 0.930 . S
H1575 C1533 0.930 . S
H1576 C1535 0.929 . S
H1577 C1536 0.930 . S
H1578 C1537 0.930 . S
H1579 C1538 0.930 . S
H1580 C1542 0.929 . S
H1581 C1544 0.930 . S
H1582 C1550 0.929 . S
H1583 C1551 0.930 . S
Li1584 N1601 1.990 . S
Li1584 O1644 1.956 . S
Li1584 O1645 1.970 . S
Li1584 O1646 1.961 . S
Li1585 N1609 1.990 . S
Li1585 O1644 1.970 . S
Li1585 O1645 1.956 . S
Li1585 O1647 1.961 . S
Li1586 N1631 1.990 . S
Li1586 O1644 1.961 . S
Li1586 O1646 1.956 . S
Li1586 O1647 1.970 . S
Li1587 N1637 1.990 . S
Li1587 O1645 1.961 . S
Li1587 O1646 1.970 . S
Li1587 O1647 1.956 . S
C1588 C1590 1.348 . S
C1588 C1591 1.356 . S
C1588 O1644 1.325 . S
N1589 C1592 1.314 . S
N1589 C1593 1.279 . S
C1590 C1588 1.348 . S
C1590 C1592 1.353 . S
C1590 H1648 0.929 . S
C1591 C1588 1.356 . S
C1591 C1593 1.358 . S
C1591 H1649 0.930 . S
C1592 N1589 1.314 . S
C1592 C1590 1.353 . S
C1592 H1650 0.930 . S
C1593 N1589 1.279 . S
C1593 C1591 1.358 . S
C1593 H1651 0.930 . S
C1594 C1597 1.348 . S
C1594 C1598 1.356 . S
C1594 O1645 1.325 . S
C1595 N1596 1.279 . S
C1595 C1598 1.358 . S
C1595 H1652 0.930 . S
N1596 C1595 1.279 . S
N1596 C1599 1.314 . S
C1597 C1594 1.348 . S
C1597 C1599 1.353 . S
C1597 H1653 0.929 . S
C1598 C1594 1.356 . S
C1598 C1595 1.358 . S
C1598 H1654 0.930 . S
C1599 N1596 1.314 . S
C1599 C1597 1.353 . S
C1599 H1655 0.930 . S
C1600 N1601 1.314 . S
C1600 C1605 1.353 . S
C1600 H1606 0.930 . S
N1601 Li1584 1.990 . S
N1601 C1600 1.314 . S
N1601 C1603 1.279 . S
C1602 C1603 1.358 . S
C1602 C1604 1.356 . S
C1602 H1656 0.930 . S
C1603 N1601 1.279 . S
C1603 C1602 1.358 . S
C1603 H1607 0.930 . S
C1604 C1602 1.356 . S
C1604 C1605 1.348 . S
C1605 C1600 1.353 . S
C1605 C1604 1.348 . S
C1605 H1657 0.929 . S
H1606 C1600 0.930 . S
H1607 C1603 0.930 . S
C1608 N1609 1.314 . S
C1608 C1610 1.353 . S
C1608 H1614 0.930 . S
N1609 Li1585 1.990 . S
N1609 C1608 1.314 . S
N1609 C1612 1.279 . S
C1610 C1608 1.353 . S
C1610 C1613 1.348 . S
C1610 H1658 0.929 . S
C1611 C1612 1.358 . S
C1611 C1613 1.356 . S
C1611 H1659 0.930 . S
C1612 N1609 1.279 . S
C1612 C1611 1.358 . S
C1612 H1615 0.930 . S
C1613 C1610 1.348 . S
C1613 C1611 1.356 . S
H1614 C1608 0.930 . S
H1615 C1612 0.930 . S
C1616 C1618 1.348 . S
C1616 C1619 1.356 . S
C1616 O1646 1.325 . S
N1617 C1620 1.314 . S
N1617 C1621 1.279 . S
C1618 C1616 1.348 . S
C1618 C1620 1.353 . S
C1618 H1660 0.929 . S
C1619 C1616 1.356 . S
C1619 C1621 1.358 . S
C1619 H1661 0.930 . S
C1620 N1617 1.314 . S
C1620 C1618 1.353 . S
C1620 H1662 0.930 . S
C1621 N1617 1.279 . S
C1621 C1619 1.358 . S
C1621 H1663 0.930 . S
C1622 C1623 1.348 . S
C1622 C1624 1.356 . S
C1622 O1647 1.325 . S
C1623 C1622 1.348 . S
C1623 C1625 1.353 . S
C1623 H1664 0.929 . S
C1624 C1622 1.356 . S
C1624 C1626 1.358 . S
C1624 H1665 0.930 . S
C1625 C1623 1.353 . S
C1625 N1627 1.314 . S
C1625 H1666 0.930 . S
C1626 C1624 1.358 . S
C1626 N1627 1.279 . S
C1626 H1667 0.930 . S
N1627 C1625 1.314 . S
N1627 C1626 1.279 . S
C1628 C1630 1.353 . S
C1628 N1631 1.314 . S
C1628 H1634 0.930 . S
C1629 N1631 1.279 . S
C1629 C1632 1.358 . S
C1629 H1635 0.930 . S
C1630 C1628 1.353 . S
C1630 C1633 1.348 . S
C1630 H1668 0.929 . S
N1631 Li1586 1.990 . S
N1631 C1628 1.314 . S
N1631 C1629 1.279 . S
C1632 C1629 1.358 . S
C1632 C1633 1.356 . S
C1632 H1669 0.930 . S
C1633 C1630 1.348 . S
C1633 C1632 1.356 . S
H1634 C1628 0.930 . S
H1635 C1629 0.930 . S
C1636 N1637 1.314 . S
C1636 C1638 1.353 . S
C1636 H1642 0.930 . S
N1637 Li1587 1.990 . S
N1637 C1636 1.314 . S
N1637 C1640 1.279 . S
C1638 C1636 1.353 . S
C1638 C1641 1.348 . S
C1638 H1670 0.929 . S
C1639 C1640 1.358 . S
C1639 C1641 1.356 . S
C1639 H1671 0.930 . S
C1640 N1637 1.279 . S
C1640 C1639 1.358 . S
C1640 H1643 0.930 . S
C1641 C1638 1.348 . S
C1641 C1639 1.356 . S
H1642 C1636 0.930 . S
H1643 C1640 0.930 . S
O1644 Li1584 1.956 . S
O1644 Li1585 1.970 . S
O1644 Li1586 1.961 . S
O1644 C1588 1.325 . S
O1645 Li1584 1.970 . S
O1645 Li1585 1.956 . S
O1645 Li1587 1.961 . S
O1645 C1594 1.325 . S
O1646 Li1584 1.961 . S
O1646 Li1586 1.956 . S
O1646 Li1587 1.970 . S
O1646 C1616 1.325 . S
O1647 Li1585 1.961 . S
O1647 Li1586 1.970 . S
O1647 Li1587 1.956 . S
O1647 C1622 1.325 . S
H1648 C1590 0.929 . S
H1649 C1591 0.930 . S
H1650 C1592 0.930 . S
H1651 C1593 0.930 . S
H1652 C1595 0.930 . S
H1653 C1597 0.929 . S
H1654 C1598 0.930 . S
H1655 C1599 0.930 . S
H1656 C1602 0.930 . S
H1657 C1605 0.929 . S
H1658 C1610 0.929 . S
H1659 C1611 0.930 . S
H1660 C1618 0.929 . S
H1661 C1619 0.930 . S
H1662 C1620 0.930 . S
H1663 C1621 0.930 . S
H1664 C1623 0.929 . S
H1665 C1624 0.930 . S
H1666 C1625 0.930 . S
H1667 C1626 0.930 . S
H1668 C1630 0.929 . S
H1669 C1632 0.930 . S
H1670 C1638 0.929 . S
H1671 C1639 0.930 . S
Li1672 N1689 1.990 . S
Li1672 O1732 1.956 . S
Li1672 O1733 1.970 . S
Li1672 O1734 1.961 1_545 S
Li1673 N1697 1.990 . S
Li1673 O1732 1.970 . S
Li1673 O1733 1.956 . S
Li1673 O1735 1.961 . S
Li1674 N1719 1.990 . S
Li1674 O1732 1.961 . S
Li1674 O1734 1.956 1_545 S
Li1674 O1735 1.970 . S
Li1675 N1725 1.990 1_545 S
Li1675 O1733 1.961 . S
Li1675 O1734 1.970 1_545 S
Li1675 O1735 1.956 . S
C1676 C1678 1.348 . S
C1676 C1679 1.356 . S
C1676 O1732 1.325 . S
N1677 C1680 1.314 . S
N1677 C1681 1.279 . S
C1678 C1676 1.348 . S
C1678 C1680 1.353 . S
C1678 H1736 0.929 . S
C1679 C1676 1.356 . S
C1679 C1681 1.358 . S
C1679 H1737 0.930 . S
C1680 N1677 1.314 . S
C1680 C1678 1.353 . S
C1680 H1738 0.930 . S
C1681 N1677 1.279 . S
C1681 C1679 1.358 . S
C1681 H1739 0.930 . S
C1682 C1685 1.348 . S
C1682 C1686 1.356 . S
C1682 O1733 1.325 . S
C1683 N1684 1.279 . S
C1683 C1686 1.358 . S
C1683 H1740 0.930 . S
N1684 C1683 1.279 . S
N1684 C1687 1.314 . S
C1685 C1682 1.348 . S
C1685 C1687 1.353 . S
C1685 H1741 0.929 . S
C1686 C1682 1.356 . S
C1686 C1683 1.358 . S
C1686 H1742 0.930 . S
C1687 N1684 1.314 . S
C1687 C1685 1.353 . S
C1687 H1743 0.930 . S
C1688 N1689 1.314 . S
C1688 C1693 1.356 . S
C1688 H1694 0.930 1_545 S
N1689 Li1672 1.990 . S
N1689 C1688 1.314 . S
N1689 C1691 1.279 . S
C1690 C1691 1.358 . S
C1690 C1692 1.356 . S
C1690 H1744 0.930 . S
C1691 N1689 1.279 . S
C1691 C1690 1.358 . S
C1691 H1695 0.930 . S
C1692 C1690 1.356 . S
C1692 C1693 1.394 . S
C1693 C1688 1.356 . S
C1693 C1692 1.394 . S
C1693 H1745 0.882 1_545 S
H1694 C1688 0.930 1_565 S
H1695 C1691 0.930 . S
C1696 N1697 1.314 . S
C1696 C1698 1.353 . S
C1696 H1702 0.930 . S
N1697 Li1673 1.990 . S
N1697 C1696 1.314 . S
N1697 C1700 1.279 . S
C1698 C1696 1.353 . S
C1698 C1701 1.348 . S
C1698 H1746 0.929 . S
C1699 C1700 1.358 . S
C1699 C1701 1.356 . S
C1699 H1747 0.930 . S
C1700 N1697 1.279 . S
C1700 C1699 1.358 . S
C1700 H1703 0.930 . S
C1701 C1698 1.348 . S
C1701 C1699 1.356 . S
H1702 C1696 0.930 . S
H1703 C1700 0.930 . S
C1704 C1706 1.348 . S
C1704 C1707 1.356 . S
C1704 O1734 1.325 . S
N1705 C1708 1.314 . S
N1705 C1709 1.279 . S
C1706 C1704 1.348 . S
C1706 C1708 1.353 . S
C1706 H1748 0.929 . S
C1707 C1704 1.356 . S
C1707 C1709 1.358 . S
C1707 H1749 0.930 . S
C1708 N1705 1.314 . S
C1708 C1706 1.353 . S
C1708 H1750 0.930 . S
C1709 N1705 1.279 . S
C1709 C1707 1.358 . S
C1709 H1751 0.930 . S
C1710 C1711 1.348 . S
C1710 C1712 1.356 . S
C1710 O1735 1.325 . S
C1711 C1710 1.348 . S
C1711 C1713 1.353 . S
C1711 H1752 0.929 . S
C1712 C1710 1.356 . S
C1712 C1714 1.358 . S
C1712 H1753 0.930 . S
C1713 C1711 1.353 . S
C1713 N1715 1.314 . S
C1713 H1754 0.930 . S
C1714 C1712 1.358 . S
C1714 N1715 1.279 . S
C1714 H1755 0.930 . S
N1715 C1713 1.314 . S
N1715 C1714 1.279 . S
C1716 C1718 1.353 . S
C1716 N1719 1.314 . S
C1716 H1722 0.930 . S
C1717 N1719 1.279 1_565 S
C1717 C1720 1.358 . S
C1717 H1723 0.930 . S
C1718 C1716 1.353 . S
C1718 C1721 1.348 . S
C1718 H1756 0.929 . S
N1719 Li1674 1.990 . S
N1719 C1716 1.314 . S
N1719 C1717 1.279 1_545 S
C1720 C1717 1.358 . S
C1720 C1721 1.356 1_565 S
C1720 H1757 0.930 . S
C1721 C1718 1.348 . S
C1721 C1720 1.356 1_545 S
H1722 C1716 0.930 . S
H1723 C1717 0.930 . S
C1724 N1725 1.314 . S
C1724 C1726 1.353 . S
C1724 H1730 0.930 . S
N1725 Li1675 1.990 1_565 S
N1725 C1724 1.314 . S
N1725 C1728 1.279 . S
C1726 C1724 1.353 . S
C1726 C1729 1.348 . S
C1726 H1758 0.929 . S
C1727 C1728 1.358 . S
C1727 C1729 1.356 . S
C1727 H1759 0.930 . S
C1728 N1725 1.279 . S
C1728 C1727 1.358 . S
C1728 H1731 0.930 . S
C1729 C1726 1.348 . S
C1729 C1727 1.356 . S
H1730 C1724 0.930 . S
H1731 C1728 0.930 . S
O1732 Li1672 1.956 . S
O1732 Li1673 1.970 . S
O1732 Li1674 1.961 . S
O1732 C1676 1.325 . S
O1733 Li1672 1.970 . S
O1733 Li1673 1.956 . S
O1733 Li1675 1.961 . S
O1733 C1682 1.325 . S
O1734 Li1672 1.961 1_565 S
O1734 Li1674 1.956 1_565 S
O1734 Li1675 1.970 1_565 S
O1734 C1704 1.325 . S
O1735 Li1673 1.961 . S
O1735 Li1674 1.970 . S
O1735 Li1675 1.956 . S
O1735 C1710 1.325 . S
H1736 C1678 0.929 . S
H1737 C1679 0.930 . S
H1738 C1680 0.930 . S
H1739 C1681 0.930 . S
H1740 C1683 0.930 . S
H1741 C1685 0.929 . S
H1742 C1686 0.930 . S
H1743 C1687 0.930 . S
H1744 C1690 0.930 . S
H1745 C1693 0.882 1_565 S
H1746 C1698 0.929 . S
H1747 C1699 0.930 . S
H1748 C1706 0.929 . S
H1749 C1707 0.930 . S
H1750 C1708 0.930 . S
H1751 C1709 0.930 . S
H1752 C1711 0.929 . S
H1753 C1712 0.930 . S
H1754 C1713 0.930 . S
H1755 C1714 0.930 . S
H1756 C1718 0.929 . S
H1757 C1720 0.930 . S
H1758 C1726 0.929 . S
H1759 C1727 0.930 . S
Li1760 N1777 1.990 . S
Li1760 O1820 1.956 . S
Li1760 O1821 1.970 . S
Li1760 O1822 1.961 . S
Li1761 N1785 1.990 . S
Li1761 O1820 1.970 . S
Li1761 O1821 1.956 . S
Li1761 O1823 1.961 . S
Li1762 N1807 1.990 1_554 S
Li1762 O1820 1.961 . S
Li1762 O1822 1.956 . S
Li1762 O1823 1.970 . S
Li1763 N1813 1.990 . S
Li1763 O1821 1.961 . S
Li1763 O1822 1.970 . S
Li1763 O1823 1.956 . S
C1764 C1766 1.348 . S
C1764 C1767 1.356 . S
C1764 O1820 1.325 . S
N1765 C1768 1.314 . S
N1765 C1769 1.279 . S
C1766 C1764 1.348 . S
C1766 C1768 1.353 . S
C1766 H1824 0.929 . S
C1767 C1764 1.356 . S
C1767 C1769 1.358 . S
C1767 H1825 0.930 . S
C1768 N1765 1.314 . S
C1768 C1766 1.353 . S
C1768 H1826 0.930 . S
C1769 N1765 1.279 . S
C1769 C1767 1.358 . S
C1769 H1827 0.930 . S
C1770 C1773 1.348 . S
C1770 C1774 1.356 . S
C1770 O1821 1.325 . S
C1771 N1772 1.279 . S
C1771 C1774 1.358 . S
C1771 H1828 0.930 . S
N1772 C1771 1.279 . S
N1772 C1775 1.314 . S
C1773 C1770 1.348 . S
C1773 C1775 1.353 . S
C1773 H1829 0.929 . S
C1774 C1770 1.356 . S
C1774 C1771 1.358 . S
C1774 H1830 0.930 . S
C1775 N1772 1.314 . S
C1775 C1773 1.353 . S
C1775 H1831 0.930 . S
C1776 N1777 1.314 . S
C1776 C1781 1.353 . S
C1776 H1782 0.930 . S
N1777 Li1760 1.990 . S
N1777 C1776 1.314 . S
N1777 C1779 1.279 . S
C1778 C1779 1.358 . S
C1778 C1780 1.356 . S
C1778 H1832 0.930 . S
C1779 N1777 1.279 . S
C1779 C1778 1.358 . S
C1779 H1783 0.930 . S
C1780 C1778 1.356 . S
C1780 C1781 1.348 . S
C1781 C1776 1.353 . S
C1781 C1780 1.348 . S
C1781 H1833 0.929 . S
H1782 C1776 0.930 . S
H1783 C1779 0.930 . S
C1784 N1785 1.314 . S
C1784 C1786 1.353 . S
C1784 H1790 0.954 . S
N1785 Li1761 1.990 . S
N1785 C1784 1.314 . S
N1785 C1788 1.279 . S
C1786 C1784 1.353 . S
C1786 C1789 1.348 . S
C1786 H1834 0.929 1_554 S
C1787 C1788 1.358 . S
C1787 C1789 1.356 . S
C1787 H1835 0.930 . S
C1788 N1785 1.279 . S
C1788 C1787 1.358 . S
C1788 H1791 0.930 . S
C1789 C1786 1.348 . S
C1789 C1787 1.356 . S
H1790 C1784 0.954 . S
H1791 C1788 0.930 . S
C1792 C1794 1.348 . S
C1792 C1795 1.356 . S
C1792 O1822 1.325 . S
N1793 C1796 1.314 . S
N1793 C1797 1.279 . S
C1794 C1792 1.348 . S
C1794 C1796 1.353 . S
C1794 H1836 0.929 . S
C1795 C1792 1.356 . S
C1795 C1797 1.358 . S
C1795 H1837 0.930 . S
C1796 N1793 1.314 . S
C1796 C1794 1.353 . S
C1796 H1838 0.930 . S
C1797 N1793 1.279 . S
C1797 C1795 1.358 . S
C1797 H1839 0.930 . S
C1798 C1799 1.348 . S
C1798 C1800 1.356 . S
C1798 O1823 1.325 1_556 S
C1799 C1798 1.348 . S
C1799 C1801 1.353 . S
C1799 H1840 0.929 . S
C1800 C1798 1.356 . S
C1800 C1802 1.358 . S
C1800 H1841 0.933 1_556 S
C1801 C1799 1.353 . S
C1801 N1803 1.314 . S
C1801 H1842 0.930 . S
C1802 C1800 1.358 . S
C1802 N1803 1.279 . S
C1802 H1843 0.930 . S
N1803 C1801 1.314 . S
N1803 C1802 1.279 . S
C1804 C1806 1.353 . S
C1804 N1807 1.314 . S
C1804 H1810 0.930 . S
C1805 N1807 1.279 . S
C1805 C1808 1.358 . S
C1805 H1811 0.930 . S
C1806 C1804 1.353 . S
C1806 C1809 1.348 . S
C1806 H1844 0.929 . S
N1807 Li1762 1.990 1_556 S
N1807 C1804 1.314 . S
N1807 C1805 1.279 . S
C1808 C1805 1.358 . S
C1808 C1809 1.356 . S
C1808 H1845 0.930 . S
C1809 C1806 1.348 . S
C1809 C1808 1.356 . S
H1810 C1804 0.930 . S
H1811 C1805 0.930 . S
C1812 N1813 1.314 . S
C1812 C1814 1.353 . S
C1812 H1818 0.930 . S
N1813 Li1763 1.990 . S
N1813 C1812 1.314 . S
N1813 C1816 1.279 . S
C1814 C1812 1.353 . S
C1814 C1817 1.348 . S
C1814 H1846 0.929 . S
C1815 C1816 1.358 . S
C1815 C1817 1.356 . S
C1815 H1847 0.930 1_554 S
C1816 N1813 1.279 . S
C1816 C1815 1.358 . S
C1816 H1819 0.930 1_554 S
C1817 C1814 1.348 . S
C1817 C1815 1.356 . S
H1818 C1812 0.930 . S
H1819 C1816 0.930 1_556 S
O1820 Li1760 1.956 . S
O1820 Li1761 1.970 . S
O1820 Li1762 1.961 . S
O1820 C1764 1.325 . S
O1821 Li1760 1.970 . S
O1821 Li1761 1.956 . S
O1821 Li1763 1.961 . S
O1821 C1770 1.325 . S
O1822 Li1760 1.961 . S
O1822 Li1762 1.956 . S
O1822 Li1763 1.970 . S
O1822 C1792 1.325 . S
O1823 Li1761 1.961 . S
O1823 Li1762 1.970 . S
O1823 Li1763 1.956 . S
O1823 C1798 1.325 1_554 S
H1824 C1766 0.929 . S
H1825 C1767 0.930 . S
H1826 C1768 0.930 . S
H1827 C1769 0.930 . S
H1828 C1771 0.930 . S
H1829 C1773 0.929 . S
H1830 C1774 0.930 . S
H1831 C1775 0.930 . S
H1832 C1778 0.930 . S
H1833 C1781 0.929 . S
H1834 C1786 0.929 1_556 S
H1835 C1787 0.930 . S
H1836 C1794 0.929 . S
H1837 C1795 0.930 . S
H1838 C1796 0.930 . S
H1839 C1797 0.930 . S
H1840 C1799 0.929 . S
H1841 C1800 0.933 1_554 S
H1842 C1801 0.930 . S
H1843 C1802 0.930 . S
H1844 C1806 0.929 . S
H1845 C1808 0.930 . S
H1846 C1814 0.929 . S
H1847 C1815 0.930 1_556 S
Li1848 N1865 1.990 . S
Li1848 O1908 1.956 . S
Li1848 O1909 1.970 . S
Li1848 O1910 1.961 . S
Li1849 N1873 1.990 . S
Li1849 O1908 1.970 . S
Li1849 O1909 1.956 . S
Li1849 O1911 1.961 . S
Li1850 N1895 1.990 . S
Li1850 O1908 1.961 . S
Li1850 O1910 1.956 . S
Li1850 O1911 1.970 . S
Li1851 N1901 1.990 . S
Li1851 O1909 1.961 . S
Li1851 O1910 1.970 . S
Li1851 O1911 1.956 . S
C1852 C1854 1.348 . S
C1852 C1855 1.356 . S
C1852 O1908 1.325 . S
N1853 C1856 1.314 . S
N1853 C1857 1.279 . S
C1854 C1852 1.348 . S
C1854 C1856 1.353 . S
C1854 H1912 0.929 . S
C1855 C1852 1.356 . S
C1855 C1857 1.358 . S
C1855 H1913 0.930 . S
C1856 N1853 1.314 . S
C1856 C1854 1.353 . S
C1856 H1914 0.930 . S
C1857 N1853 1.279 . S
C1857 C1855 1.358 . S
C1857 H1915 0.930 . S
C1858 C1861 1.348 . S
C1858 C1862 1.356 . S
C1858 O1909 1.325 . S
C1859 N1860 1.279 . S
C1859 C1862 1.358 . S
C1859 H1916 0.930 . S
N1860 C1859 1.279 . S
N1860 C1863 1.314 . S
C1861 C1858 1.348 . S
C1861 C1863 1.353 . S
C1861 H1917 0.929 . S
C1862 C1858 1.356 . S
C1862 C1859 1.358 . S
C1862 H1918 0.930 . S
C1863 N1860 1.314 . S
C1863 C1861 1.353 . S
C1863 H1919 0.930 . S
C1864 N1865 1.314 . S
C1864 C1869 1.353 . S
C1864 H1870 0.930 . S
N1865 Li1848 1.990 . S
N1865 C1864 1.314 . S
N1865 C1867 1.279 . S
C1866 C1867 1.358 . S
C1866 C1868 1.356 . S
C1866 H1920 0.930 . S
C1867 N1865 1.279 . S
C1867 C1866 1.358 . S
C1867 H1871 0.930 . S
C1868 C1866 1.356 . S
C1868 C1869 1.348 . S
C1869 C1864 1.353 . S
C1869 C1868 1.348 . S
C1869 H1921 0.929 . S
H1870 C1864 0.930 . S
H1871 C1867 0.930 . S
C1872 N1873 1.314 . S
C1872 C1874 1.353 . S
C1872 H1878 0.930 . S
N1873 Li1849 1.990 . S
N1873 C1872 1.314 . S
N1873 C1876 1.279 . S
C1874 C1872 1.353 . S
C1874 C1877 1.348 . S
C1874 H1922 0.929 . S
C1875 C1876 1.358 . S
C1875 C1877 1.356 . S
C1875 H1923 0.930 . S
C1876 N1873 1.279 . S
C1876 C1875 1.358 . S
C1876 H1879 0.930 . S
C1877 C1874 1.348 . S
C1877 C1875 1.356 . S
H1878 C1872 0.930 . S
H1879 C1876 0.930 . S
C1880 C1882 1.348 . S
C1880 C1883 1.356 . S
C1880 O1910 1.325 . S
N1881 C1884 1.314 . S
N1881 C1885 1.279 . S
C1882 C1880 1.348 . S
C1882 C1884 1.353 . S
C1882 H1924 0.929 . S
C1883 C1880 1.356 . S
C1883 C1885 1.358 . S
C1883 H1925 0.930 . S
C1884 N1881 1.314 . S
C1884 C1882 1.353 . S
C1884 H1926 0.930 . S
C1885 N1881 1.279 . S
C1885 C1883 1.358 . S
C1885 H1927 0.930 . S
C1886 C1887 1.348 . S
C1886 C1888 1.356 . S
C1886 O1911 1.325 . S
C1887 C1886 1.348 . S
C1887 C1889 1.353 . S
C1887 H1928 0.929 . S
C1888 C1886 1.356 . S
C1888 C1890 1.358 . S
C1888 H1929 0.930 . S
C1889 C1887 1.353 . S
C1889 N1891 1.314 . S
C1889 H1930 0.930 . S
C1890 C1888 1.358 . S
C1890 N1891 1.279 . S
C1890 H1931 0.930 . S
N1891 C1889 1.314 . S
N1891 C1890 1.279 . S
C1892 C1894 1.353 . S
C1892 N1895 1.314 . S
C1892 H1898 0.930 . S
C1893 N1895 1.279 . S
C1893 C1896 1.358 . S
C1893 H1899 0.930 . S
C1894 C1892 1.353 . S
C1894 C1897 1.348 . S
C1894 H1932 0.929 . S
N1895 Li1850 1.990 . S
N1895 C1892 1.314 . S
N1895 C1893 1.279 . S
C1896 C1893 1.358 . S
C1896 C1897 1.356 . S
C1896 H1933 0.930 . S
C1897 C1894 1.348 . S
C1897 C1896 1.356 . S
H1898 C1892 0.930 . S
H1899 C1893 0.930 . S
C1900 N1901 1.314 . S
C1900 C1902 1.353 . S
C1900 H1906 0.930 . S
N1901 Li1851 1.990 . S
N1901 C1900 1.314 . S
N1901 C1904 1.279 . S
C1902 C1900 1.353 . S
C1902 C1905 1.348 . S
C1902 H1934 0.929 . S
C1903 C1904 1.358 . S
C1903 C1905 1.356 . S
C1903 H1935 0.930 . S
C1904 N1901 1.279 . S
C1904 C1903 1.358 . S
C1904 H1907 0.930 . S
C1905 C1902 1.348 . S
C1905 C1903 1.356 . S
H1906 C1900 0.930 . S
H1907 C1904 0.930 . S
O1908 Li1848 1.956 . S
O1908 Li1849 1.970 . S
O1908 Li1850 1.961 . S
O1908 C1852 1.325 . S
O1909 Li1848 1.970 . S
O1909 Li1849 1.956 . S
O1909 Li1851 1.961 . S
O1909 C1858 1.325 . S
O1910 Li1848 1.961 . S
O1910 Li1850 1.956 . S
O1910 Li1851 1.970 . S
O1910 C1880 1.325 . S
O1911 Li1849 1.961 . S
O1911 Li1850 1.970 . S
O1911 Li1851 1.956 . S
O1911 C1886 1.325 . S
H1912 C1854 0.929 . S
H1913 C1855 0.930 . S
H1914 C1856 0.930 . S
H1915 C1857 0.930 . S
H1916 C1859 0.930 . S
H1917 C1861 0.929 . S
H1918 C1862 0.930 . S
H1919 C1863 0.930 . S
H1920 C1866 0.930 . S
H1921 C1869 0.929 . S
H1922 C1874 0.929 . S
H1923 C1875 0.930 . S
H1924 C1882 0.929 . S
H1925 C1883 0.930 . S
H1926 C1884 0.930 . S
H1927 C1885 0.930 . S
H1928 C1887 0.929 . S
H1929 C1888 0.930 . S
H1930 C1889 0.930 . S
H1931 C1890 0.930 . S
H1932 C1894 0.929 . S
H1933 C1896 0.930 . S
H1934 C1902 0.929 . S
H1935 C1903 0.930 . S
Li1936 N1953 1.990 . S
Li1936 O1996 1.956 . S
Li1936 O1997 1.970 . S
Li1936 O1998 1.961 . S
Li1937 N1961 1.990 . S
Li1937 O1996 1.970 . S
Li1937 O1997 1.956 . S
Li1937 O1999 1.961 . S
Li1938 N1983 1.990 . S
Li1938 O1996 1.961 . S
Li1938 O1998 1.956 . S
Li1938 O1999 1.970 . S
Li1939 N1989 1.990 . S
Li1939 O1997 1.961 . S
Li1939 O1998 1.970 . S
Li1939 O1999 1.956 . S
C1940 C1942 1.348 . S
C1940 C1943 1.356 . S
C1940 O1996 1.325 . S
N1941 C1944 1.314 . S
N1941 C1945 1.279 . S
C1942 C1940 1.348 . S
C1942 C1944 1.353 . S
C1942 H2000 0.929 . S
C1943 C1940 1.356 . S
C1943 C1945 1.358 . S
C1943 H2001 0.930 . S
C1944 N1941 1.314 . S
C1944 C1942 1.353 . S
C1944 H2002 0.930 . S
C1945 N1941 1.279 . S
C1945 C1943 1.358 . S
C1945 H2003 0.930 . S
C1946 C1949 1.348 . S
C1946 C1950 1.356 . S
C1946 O1997 1.325 . S
C1947 N1948 1.279 . S
C1947 C1950 1.358 . S
C1947 H2004 0.930 . S
N1948 C1947 1.279 . S
N1948 C1951 1.314 . S
C1949 C1946 1.348 . S
C1949 C1951 1.353 . S
C1949 H2005 0.929 . S
C1950 C1946 1.356 . S
C1950 C1947 1.358 . S
C1950 H2006 0.930 . S
C1951 N1948 1.314 . S
C1951 C1949 1.353 . S
C1951 H2007 0.930 . S
C1952 N1953 1.314 . S
C1952 C1957 1.353 . S
C1952 H1958 0.930 . S
N1953 Li1936 1.990 . S
N1953 C1952 1.314 . S
N1953 C1955 1.279 . S
C1954 C1955 1.358 . S
C1954 C1956 1.356 . S
C1954 H2008 0.930 . S
C1955 N1953 1.279 . S
C1955 C1954 1.358 . S
C1955 H1959 0.930 . S
C1956 C1954 1.356 . S
C1956 C1957 1.348 . S
C1957 C1952 1.353 . S
C1957 C1956 1.348 . S
C1957 H2009 0.929 . S
H1958 C1952 0.930 . S
H1959 C1955 0.930 . S
C1960 N1961 1.314 . S
C1960 C1962 1.353 . S
C1960 H1966 0.930 . S
N1961 Li1937 1.990 . S
N1961 C1960 1.314 . S
N1961 C1964 1.279 . S
C1962 C1960 1.353 . S
C1962 C1965 1.348 . S
C1962 H2010 0.929 . S
C1963 C1964 1.358 . S
C1963 C1965 1.356 . S
C1963 H2011 0.930 . S
C1964 N1961 1.279 . S
C1964 C1963 1.358 . S
C1964 H1967 0.930 . S
C1965 C1962 1.348 . S
C1965 C1963 1.356 . S
H1966 C1960 0.930 . S
H1967 C1964 0.930 . S
C1968 C1970 1.348 . S
C1968 C1971 1.356 . S
C1968 O1998 1.325 . S
N1969 C1972 1.314 . S
N1969 C1973 1.279 . S
C1970 C1968 1.348 . S
C1970 C1972 1.353 . S
C1970 H2012 0.929 . S
C1971 C1968 1.356 . S
C1971 C1973 1.358 . S
C1971 H2013 0.930 . S
C1972 N1969 1.314 . S
C1972 C1970 1.353 . S
C1972 H2014 0.930 . S
C1973 N1969 1.279 . S
C1973 C1971 1.358 . S
C1973 H2015 0.930 . S
C1974 C1975 1.348 . S
C1974 C1976 1.356 . S
C1974 O1999 1.325 . S
C1975 C1974 1.348 . S
C1975 C1977 1.353 . S
C1975 H2016 0.929 . S
C1976 C1974 1.356 . S
C1976 C1978 1.358 . S
C1976 H2017 0.930 . S
C1977 C1975 1.353 . S
C1977 N1979 1.314 . S
C1977 H2018 0.930 . S
C1978 C1976 1.358 . S
C1978 N1979 1.279 . S
C1978 H2019 0.930 . S
N1979 C1977 1.314 . S
N1979 C1978 1.279 . S
C1980 C1982 1.353 . S
C1980 N1983 1.314 . S
C1980 H1986 0.930 . S
C1981 N1983 1.279 . S
C1981 C1984 1.358 . S
C1981 H1987 0.930 . S
C1982 C1980 1.353 . S
C1982 C1985 1.348 . S
C1982 H2020 0.929 . S
N1983 Li1938 1.990 . S
N1983 C1980 1.314 . S
N1983 C1981 1.279 . S
C1984 C1981 1.358 . S
C1984 C1985 1.356 . S
C1984 H2021 0.930 . S
C1985 C1982 1.348 . S
C1985 C1984 1.356 . S
H1986 C1980 0.930 . S
H1987 C1981 0.930 . S
C1988 N1989 1.314 . S
C1988 C1990 1.353 . S
C1988 H1994 0.930 . S
N1989 Li1939 1.990 . S
N1989 C1988 1.314 . S
N1989 C1992 1.279 . S
C1990 C1988 1.353 . S
C1990 C1993 1.348 . S
C1990 H2022 0.929 . S
C1991 C1992 1.358 . S
C1991 C1993 1.356 . S
C1991 H2023 0.930 . S
C1992 N1989 1.279 . S
C1992 C1991 1.358 . S
C1992 H1995 0.930 . S
C1993 C1990 1.348 . S
C1993 C1991 1.356 . S
H1994 C1988 0.930 . S
H1995 C1992 0.930 . S
O1996 Li1936 1.956 . S
O1996 Li1937 1.970 . S
O1996 Li1938 1.961 . S
O1996 C1940 1.325 . S
O1997 Li1936 1.970 . S
O1997 Li1937 1.956 . S
O1997 Li1939 1.961 . S
O1997 C1946 1.325 . S
O1998 Li1936 1.961 . S
O1998 Li1938 1.956 . S
O1998 Li1939 1.970 . S
O1998 C1968 1.325 . S
O1999 Li1937 1.961 . S
O1999 Li1938 1.970 . S
O1999 Li1939 1.956 . S
O1999 C1974 1.325 . S
H2000 C1942 0.929 . S
H2001 C1943 0.930 . S
H2002 C1944 0.930 . S
H2003 C1945 0.930 . S
H2004 C1947 0.930 . S
H2005 C1949 0.929 . S
H2006 C1950 0.930 . S
H2007 C1951 0.930 . S
H2008 C1954 0.930 . S
H2009 C1957 0.929 . S
H2010 C1962 0.929 . S
H2011 C1963 0.930 . S
H2012 C1970 0.929 . S
H2013 C1971 0.930 . S
H2014 C1972 0.930 . S
H2015 C1973 0.930 . S
H2016 C1975 0.929 . S
H2017 C1976 0.930 . S
H2018 C1977 0.930 . S
H2019 C1978 0.930 . S
H2020 C1982 0.929 . S
H2021 C1984 0.930 . S
H2022 C1990 0.929 . S
H2023 C1991 0.930 . S
Li2024 N2041 1.990 . S
Li2024 O2084 1.956 . S
Li2024 O2085 1.970 . S
Li2024 O2086 1.961 . S
Li2025 N2049 1.990 . S
Li2025 O2084 1.970 . S
Li2025 O2085 1.956 . S
Li2025 O2087 1.961 . S
Li2026 N2071 1.990 . S
Li2026 O2084 1.961 . S
Li2026 O2086 1.956 . S
Li2026 O2087 1.970 . S
Li2027 N2077 1.990 . S
Li2027 O2085 1.961 . S
Li2027 O2086 1.970 . S
Li2027 O2087 1.956 . S
C2028 C2030 1.348 . S
C2028 C2031 1.356 . S
C2028 O2084 1.325 . S
N2029 C2032 1.314 . S
N2029 C2033 1.279 . S
C2030 C2028 1.348 . S
C2030 C2032 1.353 . S
C2030 H2088 0.929 . S
C2031 C2028 1.356 . S
C2031 C2033 1.358 . S
C2031 H2089 0.930 . S
C2032 N2029 1.314 . S
C2032 C2030 1.353 . S
C2032 H2090 0.930 . S
C2033 N2029 1.279 . S
C2033 C2031 1.358 . S
C2033 H2091 0.930 . S
C2034 C2037 1.348 . S
C2034 C2038 1.356 . S
C2034 O2085 1.325 . S
C2035 N2036 1.279 . S
C2035 C2038 1.358 . S
C2035 H2092 0.930 . S
N2036 C2035 1.279 . S
N2036 C2039 1.314 . S
C2037 C2034 1.348 . S
C2037 C2039 1.353 . S
C2037 H2093 0.929 . S
C2038 C2034 1.356 . S
C2038 C2035 1.358 . S
C2038 H2094 0.930 . S
C2039 N2036 1.314 . S
C2039 C2037 1.353 . S
C2039 H2095 0.930 . S
C2040 N2041 1.314 . S
C2040 C2045 1.353 . S
C2040 H2046 0.930 . S
N2041 Li2024 1.990 . S
N2041 C2040 1.314 . S
N2041 C2043 1.279 . S
C2042 C2043 1.358 . S
C2042 C2044 1.356 . S
C2042 H2096 0.930 . S
C2043 N2041 1.279 . S
C2043 C2042 1.358 . S
C2043 H2047 0.930 . S
C2044 C2042 1.356 . S
C2044 C2045 1.348 . S
C2045 C2040 1.353 . S
C2045 C2044 1.348 . S
C2045 H2097 0.929 . S
H2046 C2040 0.930 . S
H2047 C2043 0.930 . S
C2048 N2049 1.314 . S
C2048 C2050 1.353 . S
C2048 H2054 0.930 . S
N2049 Li2025 1.990 . S
N2049 C2048 1.314 . S
N2049 C2052 1.279 . S
C2050 C2048 1.353 . S
C2050 C2053 1.348 . S
C2050 H2098 0.929 . S
C2051 C2052 1.358 . S
C2051 C2053 1.356 . S
C2051 H2099 0.930 . S
C2052 N2049 1.279 . S
C2052 C2051 1.358 . S
C2052 H2055 0.930 . S
C2053 C2050 1.348 . S
C2053 C2051 1.356 . S
H2054 C2048 0.930 . S
H2055 C2052 0.930 . S
C2056 C2058 1.348 . S
C2056 C2059 1.356 . S
C2056 O2086 1.325 . S
N2057 C2060 1.314 . S
N2057 C2061 1.279 . S
C2058 C2056 1.348 . S
C2058 C2060 1.353 . S
C2058 H2100 0.929 . S
C2059 C2056 1.356 . S
C2059 C2061 1.358 . S
C2059 H2101 0.930 . S
C2060 N2057 1.314 . S
C2060 C2058 1.353 . S
C2060 H2102 0.930 . S
C2061 N2057 1.279 . S
C2061 C2059 1.358 . S
C2061 H2103 0.930 . S
C2062 C2063 1.348 . S
C2062 C2064 1.356 . S
C2062 O2087 1.325 . S
C2063 C2062 1.348 . S
C2063 C2065 1.353 . S
C2063 H2104 0.929 . S
C2064 C2062 1.356 . S
C2064 C2066 1.358 . S
C2064 H2105 0.930 . S
C2065 C2063 1.353 . S
C2065 N2067 1.314 . S
C2065 H2106 0.930 . S
C2066 C2064 1.358 . S
C2066 N2067 1.279 . S
C2066 H2107 0.930 . S
N2067 C2065 1.314 . S
N2067 C2066 1.279 . S
C2068 C2070 1.353 . S
C2068 N2071 1.314 . S
C2068 H2074 0.930 . S
C2069 N2071 1.279 . S
C2069 C2072 1.358 . S
C2069 H2075 0.930 . S
C2070 C2068 1.353 . S
C2070 C2073 1.348 . S
C2070 H2108 0.929 . S
N2071 Li2026 1.990 . S
N2071 C2068 1.314 . S
N2071 C2069 1.279 . S
C2072 C2069 1.358 . S
C2072 C2073 1.356 . S
C2072 H2109 0.930 . S
C2073 C2070 1.348 . S
C2073 C2072 1.356 . S
H2074 C2068 0.930 . S
H2075 C2069 0.930 . S
C2076 N2077 1.314 . S
C2076 C2078 1.353 . S
C2076 H2082 0.930 . S
N2077 Li2027 1.990 . S
N2077 C2076 1.314 . S
N2077 C2080 1.279 . S
C2078 C2076 1.353 . S
C2078 C2081 1.348 . S
C2078 H2110 0.929 . S
C2079 C2080 1.358 . S
C2079 C2081 1.356 . S
C2079 H2111 0.930 . S
C2080 N2077 1.279 . S
C2080 C2079 1.358 . S
C2080 H2083 0.930 . S
C2081 C2078 1.348 . S
C2081 C2079 1.356 . S
H2082 C2076 0.930 . S
H2083 C2080 0.930 . S
O2084 Li2024 1.956 . S
O2084 Li2025 1.970 . S
O2084 Li2026 1.961 . S
O2084 C2028 1.325 . S
O2085 Li2024 1.970 . S
O2085 Li2025 1.956 . S
O2085 Li2027 1.961 . S
O2085 C2034 1.325 . S
O2086 Li2024 1.961 . S
O2086 Li2026 1.956 . S
O2086 Li2027 1.970 . S
O2086 C2056 1.325 . S
O2087 Li2025 1.961 . S
O2087 Li2026 1.970 . S
O2087 Li2027 1.956 . S
O2087 C2062 1.325 . S
H2088 C2030 0.929 . S
H2089 C2031 0.930 . S
H2090 C2032 0.930 . S
H2091 C2033 0.930 . S
H2092 C2035 0.930 . S
H2093 C2037 0.929 . S
H2094 C2038 0.930 . S
H2095 C2039 0.930 . S
H2096 C2042 0.930 . S
H2097 C2045 0.929 . S
H2098 C2050 0.929 . S
H2099 C2051 0.930 . S
H2100 C2058 0.929 . S
H2101 C2059 0.930 . S
H2102 C2060 0.930 . S
H2103 C2061 0.930 . S
H2104 C2063 0.929 . S
H2105 C2064 0.930 . S
H2106 C2065 0.930 . S
H2107 C2066 0.930 . S
H2108 C2070 0.929 . S
H2109 C2072 0.930 . S
H2110 C2078 0.929 . S
H2111 C2079 0.930 . S
Tb2112 C2121 2.764 . S
Tb2112 O2122 2.325 . S
Tb2112 O2125 2.303 . S
Tb2112 O2129 2.322 . S
Tb2112 O2130 2.349 . S
Tb2112 O2133 2.415 . S
Tb2112 O2134 2.399 . S
Tb2113 O2123 2.322 1_545 S
Tb2113 O2124 2.349 1_554 S
Tb2113 O2126 2.415 1_455 S
Tb2113 O2127 2.399 1_454 S
Tb2113 O2128 2.325 . S
Tb2113 O2131 2.303 . S
Tb2113 C2142 2.764 1_455 S
C2114 O2130 1.261 . S
C2114 O2131 1.257 . S
C2115 C2118 1.358 . S
C2115 C2119 1.332 . S
C2115 C2121 1.504 . S
C2116 C2117 1.373 . S
C2116 C2120 1.308 . S
C2117 C2116 1.373 . S
C2117 C2118 1.429 . S
C2117 H2144 0.932 . S
C2118 C2115 1.358 . S
C2118 C2117 1.429 . S
C2118 H2145 0.930 . S
C2119 C2115 1.332 . S
C2119 C2120 1.394 . S
C2119 H2146 0.932 . S
C2120 C2116 1.308 . S
C2120 C2119 1.394 . S
C2120 H2147 0.929 1_545 S
C2121 Tb2112 2.764 . S
C2121 C2115 1.504 . S
C2121 O2133 1.239 . S
C2121 O2134 1.263 . S
O2122 Tb2112 2.325 . S
O2122 C2132 1.236 1_545 S
O2123 Tb2113 2.322 1_565 S
O2123 C2132 1.257 . S
O2124 Tb2113 2.349 1_556 S
O2124 C2135 1.261 . S
O2125 Tb2112 2.303 . S
O2125 C2135 1.257 1_554 S
O2126 Tb2113 2.415 1_655 S
O2126 C2142 1.239 . S
O2127 Tb2113 2.399 1_656 S
O2127 C2142 1.263 1_556 S
O2128 Tb2113 2.325 . S
O2128 C2143 1.236 . S
O2129 Tb2112 2.322 . S
O2129 C2143 1.257 . S
O2130 Tb2112 2.349 . S
O2130 C2114 1.261 . S
O2131 Tb2113 2.303 . S
O2131 C2114 1.257 . S
C2132 O2122 1.236 1_565 S
C2132 O2123 1.257 . S
O2133 Tb2112 2.415 . S
O2133 C2121 1.239 . S
O2134 Tb2112 2.399 . S
O2134 C2121 1.263 . S
C2135 O2124 1.261 . S
C2135 O2125 1.257 1_556 S
C2136 C2139 1.358 1_554 S
C2136 C2140 1.332 . S
C2136 C2142 1.504 . S
C2137 C2138 1.373 . S
C2137 C2141 1.308 1_556 S
C2138 C2137 1.373 . S
C2138 C2139 1.429 . S
C2138 H2148 0.932 . S
C2139 C2136 1.358 1_556 S
C2139 C2138 1.429 . S
C2139 H2149 0.930 . S
C2140 C2136 1.332 . S
C2140 C2141 1.394 . S
C2140 H2150 0.932 . S
C2141 C2137 1.308 1_554 S
C2141 C2140 1.394 . S
C2141 H2151 0.929 . S
C2142 Tb2113 2.764 1_655 S
C2142 O2126 1.239 . S
C2142 O2127 1.263 1_554 S
C2142 C2136 1.504 . S
C2143 O2128 1.236 . S
C2143 O2129 1.257 . S
H2144 C2117 0.932 . S
H2145 C2118 0.930 . S
H2146 C2119 0.932 . S
H2147 C2120 0.929 1_565 S
H2148 C2138 0.932 . S
H2149 C2139 0.930 . S
H2150 C2140 0.932 . S
H2151 C2141 0.929 . S
Tb2152 C2161 2.764 . S
Tb2152 O2162 2.325 . S
Tb2152 O2165 2.303 . S
Tb2152 O2169 2.322 . S
Tb2152 O2170 2.349 . S
Tb2152 O2173 2.415 . S
Tb2152 O2174 2.399 . S
Tb2153 O2163 2.322 . S
Tb2153 O2164 2.349 . S
Tb2153 O2166 2.415 . S
Tb2153 O2167 2.399 . S
Tb2153 O2168 2.325 . S
Tb2153 O2171 2.303 . S
Tb2153 C2182 2.764 . S
C2154 O2170 1.261 . S
C2154 O2171 1.257 . S
C2155 C2158 1.358 . S
C2155 C2159 1.332 . S
C2155 C2161 1.504 . S
C2156 C2157 1.373 . S
C2156 C2160 1.308 . S
C2157 C2156 1.373 . S
C2157 C2158 1.429 . S
C2157 H2184 0.932 . S
C2158 C2155 1.358 . S
C2158 C2157 1.429 . S
C2158 H2185 0.930 . S
C2159 C2155 1.332 . S
C2159 C2160 1.394 . S
C2159 H2186 0.932 . S
C2160 C2156 1.308 . S
C2160 C2159 1.394 . S
C2160 H2187 0.929 . S
C2161 Tb2152 2.764 . S
C2161 C2155 1.504 . S
C2161 O2173 1.239 . S
C2161 O2174 1.263 . S
O2162 Tb2152 2.325 . S
O2162 C2172 1.236 . S
O2163 Tb2153 2.322 . S
O2163 C2172 1.257 . S
O2164 Tb2153 2.349 . S
O2164 C2175 1.261 . S
O2165 Tb2152 2.303 . S
O2165 C2175 1.257 . S
O2166 Tb2153 2.415 . S
O2166 C2182 1.239 . S
O2167 Tb2153 2.399 . S
O2167 C2182 1.263 . S
O2168 Tb2153 2.325 . S
O2168 C2183 1.236 . S
O2169 Tb2152 2.322 . S
O2169 C2183 1.257 . S
O2170 Tb2152 2.349 . S
O2170 C2154 1.261 . S
O2171 Tb2153 2.303 . S
O2171 C2154 1.257 . S
C2172 O2162 1.236 . S
C2172 O2163 1.257 . S
O2173 Tb2152 2.415 . S
O2173 C2161 1.239 . S
O2174 Tb2152 2.399 . S
O2174 C2161 1.263 . S
C2175 O2164 1.261 . S
C2175 O2165 1.257 . S
C2176 C2179 1.358 . S
C2176 C2180 1.332 . S
C2176 C2182 1.504 . S
C2177 C2178 1.373 . S
C2177 C2181 1.308 . S
C2178 C2177 1.373 . S
C2178 C2179 1.429 . S
C2178 H2188 0.932 . S
C2179 C2176 1.358 . S
C2179 C2178 1.429 . S
C2179 H2189 0.930 . S
C2180 C2176 1.332 . S
C2180 C2181 1.394 . S
C2180 H2190 0.932 . S
C2181 C2177 1.308 . S
C2181 C2180 1.394 . S
C2181 H2191 0.929 . S
C2182 Tb2153 2.764 . S
C2182 O2166 1.239 . S
C2182 O2167 1.263 . S
C2182 C2176 1.504 . S
C2183 O2168 1.236 . S
C2183 O2169 1.257 . S
H2184 C2157 0.932 . S
H2185 C2158 0.930 . S
H2186 C2159 0.932 . S
H2187 C2160 0.929 . S
H2188 C2178 0.932 . S
H2189 C2179 0.930 . S
H2190 C2180 0.932 . S
H2191 C2181 0.929 . S
Tb2192 C2201 2.764 . S
Tb2192 O2202 2.325 . S
Tb2192 O2205 2.303 . S
Tb2192 O2209 2.322 1_545 S
Tb2192 O2210 2.349 . S
Tb2192 O2213 2.415 . S
Tb2192 O2214 2.399 . S
Tb2193 O2203 2.322 . S
Tb2193 O2204 2.349 . S
Tb2193 O2206 2.415 . S
Tb2193 O2207 2.399 . S
Tb2193 O2208 2.325 1_545 S
Tb2193 O2211 2.303 . S
Tb2193 C2222 2.764 . S
C2194 O2210 1.261 . S
C2194 O2211 1.257 . S
C2195 C2198 1.358 . S
C2195 C2199 1.332 . S
C2195 C2201 1.504 . S
C2196 C2197 1.373 . S
C2196 C2200 1.308 . S
C2197 C2196 1.373 . S
C2197 C2198 1.429 . S
C2197 H2224 0.932 . S
C2198 C2195 1.358 . S
C2198 C2197 1.429 . S
C2198 H2225 0.930 . S
C2199 C2195 1.332 . S
C2199 C2200 1.394 . S
C2199 H2226 0.932 . S
C2200 C2196 1.308 . S
C2200 C2199 1.394 . S
C2200 H2227 0.929 . S
C2201 Tb2192 2.764 . S
C2201 C2195 1.504 . S
C2201 O2213 1.239 . S
C2201 O2214 1.263 . S
O2202 Tb2192 2.325 . S
O2202 C2212 1.236 . S
O2203 Tb2193 2.322 . S
O2203 C2212 1.257 . S
O2204 Tb2193 2.349 . S
O2204 C2215 1.261 . S
O2205 Tb2192 2.303 . S
O2205 C2215 1.257 . S
O2206 Tb2193 2.415 . S
O2206 C2222 1.239 . S
O2207 Tb2193 2.399 . S
O2207 C2222 1.263 . S
O2208 Tb2193 2.325 1_565 S
O2208 C2223 1.236 . S
O2209 Tb2192 2.322 1_565 S
O2209 C2223 1.257 . S
O2210 Tb2192 2.349 . S
O2210 C2194 1.261 . S
O2211 Tb2193 2.303 . S
O2211 C2194 1.257 . S
C2212 O2202 1.236 . S
C2212 O2203 1.257 . S
O2213 Tb2192 2.415 . S
O2213 C2201 1.239 . S
O2214 Tb2192 2.399 . S
O2214 C2201 1.263 . S
C2215 O2204 1.261 . S
C2215 O2205 1.257 . S
C2216 C2219 1.358 . S
C2216 C2220 1.332 . S
C2216 C2222 1.504 1_565 S
C2217 C2218 1.373 . S
C2217 C2221 1.308 . S
C2218 C2217 1.373 . S
C2218 C2219 1.445 . S
C2218 H2228 0.932 . S
C2219 C2216 1.358 . S
C2219 C2218 1.445 . S
C2219 H2229 0.915 1_565 S
C2220 C2216 1.332 . S
C2220 C2221 1.394 . S
C2220 H2230 0.932 . S
C2221 C2217 1.308 . S
C2221 C2220 1.394 . S
C2221 H2231 0.929 . S
C2222 Tb2193 2.764 . S
C2222 O2206 1.239 . S
C2222 O2207 1.263 . S
C2222 C2216 1.504 1_545 S
C2223 O2208 1.236 . S
C2223 O2209 1.257 . S
H2224 C2197 0.932 . S
H2225 C2198 0.930 . S
H2226 C2199 0.932 . S
H2227 C2200 0.929 . S
H2228 C2218 0.932 . S
H2229 C2219 0.915 1_545 S
H2230 C2220 0.932 . S
H2231 C2221 0.929 . S
Tb2232 C2241 2.764 . S
Tb2232 O2242 2.325 . S
Tb2232 O2245 2.303 . S
Tb2232 O2249 2.322 . S
Tb2232 O2250 2.349 . S
Tb2232 O2253 2.415 . S
Tb2232 O2254 2.399 . S
Tb2233 O2243 2.322 . S
Tb2233 O2244 2.349 . S
Tb2233 O2246 2.415 . S
Tb2233 O2247 2.399 . S
Tb2233 O2248 2.325 . S
Tb2233 O2251 2.303 . S
Tb2233 C2262 2.764 . S
C2234 O2250 1.261 . S
C2234 O2251 1.257 . S
C2235 C2238 1.358 . S
C2235 C2239 1.332 . S
C2235 C2241 1.504 . S
C2236 C2237 1.373 . S
C2236 C2240 1.308 . S
C2237 C2236 1.373 . S
C2237 C2238 1.429 . S
C2237 H2264 0.932 . S
C2238 C2235 1.358 . S
C2238 C2237 1.429 . S
C2238 H2265 0.930 . S
C2239 C2235 1.332 . S
C2239 C2240 1.394 . S
C2239 H2266 0.932 . S
C2240 C2236 1.308 . S
C2240 C2239 1.394 . S
C2240 H2267 0.929 . S
C2241 Tb2232 2.764 . S
C2241 C2235 1.504 . S
C2241 O2253 1.239 . S
C2241 O2254 1.263 . S
O2242 Tb2232 2.325 . S
O2242 C2252 1.236 . S
O2243 Tb2233 2.322 . S
O2243 C2252 1.257 . S
O2244 Tb2233 2.349 . S
O2244 C2255 1.261 . S
O2245 Tb2232 2.303 . S
O2245 C2255 1.257 . S
O2246 Tb2233 2.415 . S
O2246 C2262 1.239 . S
O2247 Tb2233 2.399 . S
O2247 C2262 1.263 . S
O2248 Tb2233 2.325 . S
O2248 C2263 1.236 . S
O2249 Tb2232 2.322 . S
O2249 C2263 1.257 . S
O2250 Tb2232 2.349 . S
O2250 C2234 1.261 . S
O2251 Tb2233 2.303 . S
O2251 C2234 1.257 . S
C2252 O2242 1.236 . S
C2252 O2243 1.257 . S
O2253 Tb2232 2.415 . S
O2253 C2241 1.239 . S
O2254 Tb2232 2.399 . S
O2254 C2241 1.263 . S
C2255 O2244 1.261 . S
C2255 O2245 1.257 . S
C2256 C2259 1.358 . S
C2256 C2260 1.332 . S
C2256 C2262 1.504 . S
C2257 C2258 1.373 . S
C2257 C2261 1.308 . S
C2258 C2257 1.373 . S
C2258 C2259 1.429 . S
C2258 H2268 0.932 . S
C2259 C2256 1.358 . S
C2259 C2258 1.429 . S
C2259 H2269 0.930 . S
C2260 C2256 1.332 . S
C2260 C2261 1.394 . S
C2260 H2270 0.932 . S
C2261 C2257 1.308 . S
C2261 C2260 1.394 . S
C2261 H2271 0.929 . S
C2262 Tb2233 2.764 . S
C2262 O2246 1.239 . S
C2262 O2247 1.263 . S
C2262 C2256 1.504 . S
C2263 O2248 1.236 . S
C2263 O2249 1.257 . S
H2264 C2237 0.932 . S
H2265 C2238 0.930 . S
H2266 C2239 0.932 . S
H2267 C2240 0.929 . S
H2268 C2258 0.932 . S
H2269 C2259 0.930 . S
H2270 C2260 0.932 . S
H2271 C2261 0.929 . S
Tb2272 C2281 2.764 . S
Tb2272 O2282 2.325 . S
Tb2272 O2285 2.303 . S
Tb2272 O2289 2.322 . S
Tb2272 O2290 2.349 . S
Tb2272 O2293 2.415 . S
Tb2272 O2294 2.399 . S
Tb2273 O2283 2.322 1_545 S
Tb2273 O2284 2.349 . S
Tb2273 O2286 2.415 . S
Tb2273 O2287 2.399 . S
Tb2273 O2288 2.325 . S
Tb2273 O2291 2.303 . S
Tb2273 C2302 2.764 . S
C2274 O2290 1.262 1_655 S
C2274 O2291 1.233 1_655 S
C2275 C2278 1.358 . S
C2275 C2279 1.332 . S
C2275 C2281 1.504 . S
C2276 C2277 1.373 . S
C2276 C2280 1.308 . S
C2277 C2276 1.373 . S
C2277 C2278 1.429 . S
C2277 H2304 0.932 . S
C2278 C2275 1.358 . S
C2278 C2277 1.429 . S
C2278 H2305 0.930 . S
C2279 C2275 1.332 . S
C2279 C2280 1.394 . S
C2279 H2306 0.932 . S
C2280 C2276 1.308 . S
C2280 C2279 1.394 . S
C2280 H2307 0.929 . S
C2281 Tb2272 2.764 . S
C2281 C2275 1.504 . S
C2281 O2293 1.239 . S
C2281 O2294 1.263 . S
O2282 Tb2272 2.325 . S
O2282 C2292 1.236 1_545 S
O2283 Tb2273 2.322 1_565 S
O2283 C2292 1.257 . S
O2284 Tb2273 2.349 . S
O2284 C2295 1.261 . S
O2285 Tb2272 2.303 . S
O2285 C2295 1.257 . S
O2286 Tb2273 2.415 . S
O2286 C2302 1.239 . S
O2287 Tb2273 2.399 . S
O2287 C2302 1.263 . S
O2288 Tb2273 2.325 . S
O2288 C2303 1.236 . S
O2289 Tb2272 2.322 . S
O2289 C2303 1.257 . S
O2290 Tb2272 2.349 . S
O2290 C2274 1.262 1_455 S
O2291 Tb2273 2.303 . S
O2291 C2274 1.233 1_455 S
C2292 O2282 1.236 1_565 S
C2292 O2283 1.257 . S
O2293 Tb2272 2.415 . S
O2293 C2281 1.239 . S
O2294 Tb2272 2.399 . S
O2294 C2281 1.263 . S
C2295 O2284 1.261 . S
C2295 O2285 1.257 . S
C2296 C2299 1.358 . S
C2296 C2300 1.288 1_455 S
C2296 C2302 1.504 . S
C2297 C2298 1.373 . S
C2297 C2301 1.308 1_455 S
C2298 C2297 1.373 . S
C2298 C2299 1.429 . S
C2298 H2308 0.932 . S
C2299 C2296 1.358 . S
C2299 C2298 1.429 . S
C2299 H2309 0.930 . S
C2300 C2296 1.288 1_655 S
C2300 C2301 1.408 . S
C2300 H2310 0.965 . S
C2301 C2297 1.308 1_655 S
C2301 C2300 1.408 . S
C2301 H2311 0.929 . S
C2302 Tb2273 2.764 . S
C2302 O2286 1.239 . S
C2302 O2287 1.263 . S
C2302 C2296 1.504 . S
C2303 O2288 1.236 . S
C2303 O2289 1.257 . S
H2304 C2277 0.932 . S
H2305 C2278 0.930 . S
H2306 C2279 0.932 . S
H2307 C2280 0.929 . S
H2308 C2298 0.932 . S
H2309 C2299 0.930 . S
H2310 C2300 0.965 . S
H2311 C2301 0.929 . S
Tb2312 C2321 2.764 . S
Tb2312 O2322 2.325 . S
Tb2312 O2325 2.303 . S
Tb2312 O2329 2.322 . S
Tb2312 O2330 2.349 . S
Tb2312 O2333 2.415 . S
Tb2312 O2334 2.399 . S
Tb2313 O2323 2.322 . S
Tb2313 O2324 2.349 . S
Tb2313 O2326 2.415 . S
Tb2313 O2327 2.399 . S
Tb2313 O2328 2.325 . S
Tb2313 O2331 2.303 . S
Tb2313 C2342 2.764 . S
C2314 O2330 1.261 . S
C2314 O2331 1.257 . S
C2315 C2318 1.358 . S
C2315 C2319 1.332 . S
C2315 C2321 1.504 . S
C2316 C2317 1.373 . S
C2316 C2320 1.308 . S
C2317 C2316 1.373 . S
C2317 C2318 1.429 . S
C2317 H2344 0.932 . S
C2318 C2315 1.358 . S
C2318 C2317 1.429 . S
C2318 H2345 0.930 . S
C2319 C2315 1.332 . S
C2319 C2320 1.394 . S
C2319 H2346 0.932 . S
C2320 C2316 1.308 . S
C2320 C2319 1.394 . S
C2320 H2347 0.929 . S
C2321 Tb2312 2.764 . S
C2321 C2315 1.504 . S
C2321 O2333 1.239 . S
C2321 O2334 1.263 . S
O2322 Tb2312 2.325 . S
O2322 C2332 1.236 . S
O2323 Tb2313 2.322 . S
O2323 C2332 1.257 . S
O2324 Tb2313 2.349 . S
O2324 C2335 1.261 . S
O2325 Tb2312 2.303 . S
O2325 C2335 1.257 . S
O2326 Tb2313 2.415 . S
O2326 C2342 1.239 . S
O2327 Tb2313 2.399 . S
O2327 C2342 1.263 . S
O2328 Tb2313 2.325 . S
O2328 C2343 1.236 . S
O2329 Tb2312 2.322 . S
O2329 C2343 1.257 . S
O2330 Tb2312 2.349 . S
O2330 C2314 1.261 . S
O2331 Tb2313 2.303 . S
O2331 C2314 1.257 . S
C2332 O2322 1.236 . S
C2332 O2323 1.257 . S
O2333 Tb2312 2.415 . S
O2333 C2321 1.239 . S
O2334 Tb2312 2.399 . S
O2334 C2321 1.263 . S
C2335 O2324 1.261 . S
C2335 O2325 1.257 . S
C2336 C2339 1.358 . S
C2336 C2340 1.332 . S
C2336 C2342 1.504 . S
C2337 C2338 1.373 . S
C2337 C2341 1.308 . S
C2338 C2337 1.373 . S
C2338 C2339 1.429 . S
C2338 H2348 0.932 . S
C2339 C2336 1.358 . S
C2339 C2338 1.429 . S
C2339 H2349 0.930 . S
C2340 C2336 1.332 . S
C2340 C2341 1.394 . S
C2340 H2350 0.932 . S
C2341 C2337 1.308 . S
C2341 C2340 1.394 . S
C2341 H2351 0.929 . S
C2342 Tb2313 2.764 . S
C2342 O2326 1.239 . S
C2342 O2327 1.263 . S
C2342 C2336 1.504 . S
C2343 O2328 1.236 . S
C2343 O2329 1.257 . S
H2344 C2317 0.932 . S
H2345 C2318 0.930 . S
H2346 C2319 0.932 . S
H2347 C2320 0.929 . S
H2348 C2338 0.932 . S
H2349 C2339 0.930 . S
H2350 C2340 0.932 . S
H2351 C2341 0.929 . S
Tb2352 C2361 2.764 . S
Tb2352 O2362 2.325 . S
Tb2352 O2365 2.303 . S
Tb2352 O2369 2.322 1_545 S
Tb2352 O2370 2.349 . S
Tb2352 O2373 2.415 . S
Tb2352 O2374 2.399 . S
Tb2353 O2363 2.320 1_556 S
Tb2353 O2364 2.351 . S
Tb2353 O2366 2.417 . S
Tb2353 O2367 2.402 . S
Tb2353 O2368 2.325 . S
Tb2353 O2371 2.301 1_556 S
Tb2353 C2382 2.767 . S
C2354 O2370 1.261 . S
C2354 O2371 1.257 . S
C2355 C2358 1.358 . S
C2355 C2359 1.332 . S
C2355 C2361 1.504 . S
C2356 C2357 1.373 . S
C2356 C2360 1.308 . S
C2357 C2356 1.373 . S
C2357 C2358 1.429 . S
C2357 H2384 0.932 . S
C2358 C2355 1.358 . S
C2358 C2357 1.429 . S
C2358 H2385 0.930 . S
C2359 C2355 1.332 . S
C2359 C2360 1.394 . S
C2359 H2386 0.932 . S
C2360 C2356 1.308 . S
C2360 C2359 1.394 . S
C2360 H2387 0.929 . S
C2361 Tb2352 2.764 . S
C2361 C2355 1.504 . S
C2361 O2373 1.239 . S
C2361 O2374 1.263 . S
O2362 Tb2352 2.325 . S
O2362 C2372 1.236 . S
O2363 Tb2353 2.320 1_554 S
O2363 C2372 1.257 . S
O2364 Tb2353 2.351 . S
O2364 C2375 1.241 1_556 S
O2365 Tb2352 2.303 . S
O2365 C2375 1.257 . S
O2366 Tb2353 2.417 . S
O2366 C2382 1.239 . S
O2367 Tb2353 2.402 . S
O2367 C2382 1.263 . S
O2368 Tb2353 2.325 . S
O2368 C2383 1.236 1_546 S
O2369 Tb2352 2.322 1_565 S
O2369 C2383 1.257 . S
O2370 Tb2352 2.349 . S
O2370 C2354 1.261 . S
O2371 Tb2353 2.301 1_554 S
O2371 C2354 1.257 . S
C2372 O2362 1.236 . S
C2372 O2363 1.257 . S
O2373 Tb2352 2.415 . S
O2373 C2361 1.239 . S
O2374 Tb2352 2.399 . S
O2374 C2361 1.263 . S
C2375 O2364 1.241 1_554 S
C2375 O2365 1.257 . S
C2376 C2379 1.358 . S
C2376 C2380 1.332 . S
C2376 C2382 1.504 . S
C2377 C2378 1.373 . S
C2377 C2381 1.308 . S
C2378 C2377 1.373 . S
C2378 C2379 1.429 . S
C2378 H2388 0.932 . S
C2379 C2376 1.358 . S
C2379 C2378 1.429 . S
C2379 H2389 0.930 . S
C2380 C2376 1.332 . S
C2380 C2381 1.394 . S
C2380 H2390 0.932 . S
C2381 C2377 1.308 . S
C2381 C2380 1.394 . S
C2381 H2391 0.929 . S
C2382 Tb2353 2.767 . S
C2382 O2366 1.239 . S
C2382 O2367 1.263 . S
C2382 C2376 1.504 . S
C2383 O2368 1.236 1_564 S
C2383 O2369 1.257 . S
H2384 C2357 0.932 . S
H2385 C2358 0.930 . S
H2386 C2359 0.932 . S
H2387 C2360 0.929 . S
H2388 C2378 0.932 . S
H2389 C2379 0.930 . S
H2390 C2380 0.932 . S
H2391 C2381 0.929 . S
Tb2392 C2401 2.764 . S
Tb2392 O2402 2.325 . S
Tb2392 O2405 2.303 . S
Tb2392 O2409 2.322 . S
Tb2392 O2410 2.349 . S
Tb2392 O2413 2.415 . S
Tb2392 O2414 2.399 . S
Tb2393 O2403 2.322 . S
Tb2393 O2404 2.349 . S
Tb2393 O2406 2.415 . S
Tb2393 O2407 2.399 . S
Tb2393 O2408 2.325 . S
Tb2393 O2411 2.303 . S
Tb2393 C2422 2.764 . S
C2394 O2410 1.261 . S
C2394 O2411 1.257 . S
C2395 C2398 1.358 . S
C2395 C2399 1.332 . S
C2395 C2401 1.504 . S
C2396 C2397 1.373 . S
C2396 C2400 1.308 . S
C2397 C2396 1.373 . S
C2397 C2398 1.429 . S
C2397 H2424 0.932 . S
C2398 C2395 1.358 . S
C2398 C2397 1.429 . S
C2398 H2425 0.930 . S
C2399 C2395 1.332 . S
C2399 C2400 1.394 . S
C2399 H2426 0.932 . S
C2400 C2396 1.308 . S
C2400 C2399 1.394 . S
C2400 H2427 0.929 . S
C2401 Tb2392 2.764 . S
C2401 C2395 1.504 . S
C2401 O2413 1.239 . S
C2401 O2414 1.263 . S
O2402 Tb2392 2.325 . S
O2402 C2412 1.236 . S
O2403 Tb2393 2.322 . S
O2403 C2412 1.257 . S
O2404 Tb2393 2.349 . S
O2404 C2415 1.261 . S
O2405 Tb2392 2.303 . S
O2405 C2415 1.257 . S
O2406 Tb2393 2.415 . S
O2406 C2422 1.239 . S
O2407 Tb2393 2.399 . S
O2407 C2422 1.263 . S
O2408 Tb2393 2.325 . S
O2408 C2423 1.236 . S
O2409 Tb2392 2.322 . S
O2409 C2423 1.257 . S
O2410 Tb2392 2.349 . S
O2410 C2394 1.261 . S
O2411 Tb2393 2.303 . S
O2411 C2394 1.257 . S
C2412 O2402 1.236 . S
C2412 O2403 1.257 . S
O2413 Tb2392 2.415 . S
O2413 C2401 1.239 . S
O2414 Tb2392 2.399 . S
O2414 C2401 1.263 . S
C2415 O2404 1.261 . S
C2415 O2405 1.257 . S
C2416 C2419 1.358 . S
C2416 C2420 1.332 . S
C2416 C2422 1.504 . S
C2417 C2418 1.373 . S
C2417 C2421 1.308 . S
C2418 C2417 1.373 . S
C2418 C2419 1.429 . S
C2418 H2428 0.932 . S
C2419 C2416 1.358 . S
C2419 C2418 1.429 . S
C2419 H2429 0.930 . S
C2420 C2416 1.332 . S
C2420 C2421 1.394 . S
C2420 H2430 0.932 . S
C2421 C2417 1.308 . S
C2421 C2420 1.394 . S
C2421 H2431 0.929 . S
C2422 Tb2393 2.764 . S
C2422 O2406 1.239 . S
C2422 O2407 1.263 . S
C2422 C2416 1.504 . S
C2423 O2408 1.236 . S
C2423 O2409 1.257 . S
H2424 C2397 0.932 . S
H2425 C2398 0.930 . S
H2426 C2399 0.932 . S
H2427 C2400 0.929 . S
H2428 C2418 0.932 . S
H2429 C2419 0.930 . S
H2430 C2420 0.932 . S
H2431 C2421 0.929 . S
Tb2432 C2441 2.764 . S
Tb2432 O2442 2.325 . S
Tb2432 O2445 2.303 . S
Tb2432 O2449 2.322 . S
Tb2432 O2450 2.349 . S
Tb2432 O2453 2.415 . S
Tb2432 O2454 2.399 . S
Tb2433 O2443 2.277 1_556 S
Tb2433 O2444 2.347 1_556 S
Tb2433 O2446 2.457 . S
Tb2433 O2447 2.458 . S
Tb2433 O2448 2.330 . S
Tb2433 O2451 2.263 1_556 S
Tb2433 C2462 2.820 . S
C2434 O2450 1.261 . S
C2434 O2451 1.257 . S
C2435 C2438 1.358 . S
C2435 C2439 1.332 . S
C2435 C2441 1.504 . S
C2436 C2437 1.373 . S
C2436 C2440 1.308 . S
C2437 C2436 1.373 . S
C2437 C2438 1.429 . S
C2437 H2464 0.932 . S
C2438 C2435 1.358 . S
C2438 C2437 1.429 . S
C2438 H2465 0.930 . S
C2439 C2435 1.332 . S
C2439 C2440 1.394 . S
C2439 H2466 0.932 . S
C2440 C2436 1.308 . S
C2440 C2439 1.394 . S
C2440 H2467 0.929 . S
C2441 Tb2432 2.764 . S
C2441 C2435 1.504 . S
C2441 O2453 1.239 . S
C2441 O2454 1.263 . S
O2442 Tb2432 2.325 . S
O2442 C2452 1.236 . S
O2443 Tb2433 2.277 1_554 S
O2443 C2452 1.257 . S
O2444 Tb2433 2.347 1_554 S
O2444 C2455 1.261 . S
O2445 Tb2432 2.303 . S
O2445 C2455 1.257 . S
O2446 Tb2433 2.457 . S
O2446 C2462 1.239 . S
O2447 Tb2433 2.458 . S
O2447 C2462 1.263 . S
O2448 Tb2433 2.330 . S
O2448 C2463 1.236 1_556 S
O2449 Tb2432 2.322 . S
O2449 C2463 1.257 . S
O2450 Tb2432 2.349 . S
O2450 C2434 1.261 . S
O2451 Tb2433 2.263 1_554 S
O2451 C2434 1.257 . S
C2452 O2442 1.236 . S
C2452 O2443 1.257 . S
O2453 Tb2432 2.415 . S
O2453 C2441 1.239 . S
O2454 Tb2432 2.399 . S
O2454 C2441 1.263 . S
C2455 O2444 1.261 . S
C2455 O2445 1.257 . S
C2456 C2459 1.358 . S
C2456 C2460 1.332 . S
C2456 C2462 1.504 . S
C2457 C2458 1.373 . S
C2457 C2461 1.308 . S
C2458 C2457 1.373 . S
C2458 C2459 1.429 . S
C2458 H2468 0.932 . S
C2459 C2456 1.358 . S
C2459 C2458 1.429 . S
C2459 H2469 0.930 . S
C2460 C2456 1.332 . S
C2460 C2461 1.394 . S
C2460 H2470 0.932 . S
C2461 C2457 1.308 . S
C2461 C2460 1.394 . S
C2461 H2471 0.929 . S
C2462 Tb2433 2.820 . S
C2462 O2446 1.239 . S
C2462 O2447 1.263 . S
C2462 C2456 1.504 . S
C2463 O2448 1.236 1_554 S
C2463 O2449 1.257 . S
H2464 C2437 0.932 . S
H2465 C2438 0.930 . S
H2466 C2439 0.932 . S
H2467 C2440 0.929 . S
H2468 C2458 0.932 . S
H2469 C2459 0.930 . S
H2470 C2460 0.932 . S
H2471 C2461 0.929 . S
Tb2472 C2481 2.764 . S
Tb2472 O2482 2.325 . S
Tb2472 O2485 2.303 . S
Tb2472 O2489 2.322 . S
Tb2472 O2490 2.349 . S
Tb2472 O2493 2.415 . S
Tb2472 O2494 2.399 . S
Tb2473 O2483 2.322 . S
Tb2473 O2484 2.349 . S
Tb2473 O2486 2.415 . S
Tb2473 O2487 2.399 . S
Tb2473 O2488 2.325 . S
Tb2473 O2491 2.303 . S
Tb2473 C2502 2.764 . S
C2474 O2490 1.261 . S
C2474 O2491 1.257 . S
C2475 C2478 1.358 . S
C2475 C2479 1.332 . S
C2475 C2481 1.504 . S
C2476 C2477 1.373 . S
C2476 C2480 1.308 . S
C2477 C2476 1.373 . S
C2477 C2478 1.429 . S
C2477 H2504 0.932 . S
C2478 C2475 1.358 . S
C2478 C2477 1.429 . S
C2478 H2505 0.930 . S
C2479 C2475 1.332 . S
C2479 C2480 1.394 . S
C2479 H2506 0.932 . S
C2480 C2476 1.308 . S
C2480 C2479 1.394 . S
C2480 H2507 0.929 . S
C2481 Tb2472 2.764 . S
C2481 C2475 1.504 . S
C2481 O2493 1.239 . S
C2481 O2494 1.263 . S
O2482 Tb2472 2.325 . S
O2482 C2492 1.236 . S
O2483 Tb2473 2.322 . S
O2483 C2492 1.257 . S
O2484 Tb2473 2.349 . S
O2484 C2495 1.261 . S
O2485 Tb2472 2.303 . S
O2485 C2495 1.257 . S
O2486 Tb2473 2.415 . S
O2486 C2502 1.239 . S
O2487 Tb2473 2.399 . S
O2487 C2502 1.263 . S
O2488 Tb2473 2.325 . S
O2488 C2503 1.236 . S
O2489 Tb2472 2.322 . S
O2489 C2503 1.257 . S
O2490 Tb2472 2.349 . S
O2490 C2474 1.261 . S
O2491 Tb2473 2.303 . S
O2491 C2474 1.257 . S
C2492 O2482 1.236 . S
C2492 O2483 1.257 . S
O2493 Tb2472 2.415 . S
O2493 C2481 1.239 . S
O2494 Tb2472 2.399 . S
O2494 C2481 1.263 . S
C2495 O2484 1.261 . S
C2495 O2485 1.257 . S
C2496 C2499 1.358 . S
C2496 C2500 1.332 . S
C2496 C2502 1.504 . S
C2497 C2498 1.373 . S
C2497 C2501 1.308 . S
C2498 C2497 1.373 . S
C2498 C2499 1.429 . S
C2498 H2508 0.932 . S
C2499 C2496 1.358 . S
C2499 C2498 1.429 . S
C2499 H2509 0.930 . S
C2500 C2496 1.332 . S
C2500 C2501 1.394 . S
C2500 H2510 0.932 . S
C2501 C2497 1.308 . S
C2501 C2500 1.394 . S
C2501 H2511 0.929 . S
C2502 Tb2473 2.764 . S
C2502 O2486 1.239 . S
C2502 O2487 1.263 . S
C2502 C2496 1.504 . S
C2503 O2488 1.236 . S
C2503 O2489 1.257 . S
H2504 C2477 0.932 . S
H2505 C2478 0.930 . S
H2506 C2479 0.932 . S
H2507 C2480 0.929 . S
H2508 C2498 0.932 . S
H2509 C2499 0.930 . S
H2510 C2500 0.932 . S
H2511 C2501 0.929 . S
Tb2512 C2521 2.764 . S
Tb2512 O2522 2.325 . S
Tb2512 O2525 2.303 . S
Tb2512 O2529 2.322 . S
Tb2512 O2530 2.349 . S
Tb2512 O2533 2.415 . S
Tb2512 O2534 2.399 . S
Tb2513 O2523 2.322 . S
Tb2513 O2524 2.349 . S
Tb2513 O2526 2.415 . S
Tb2513 O2527 2.399 . S
Tb2513 O2528 2.325 . S
Tb2513 O2531 2.303 . S
Tb2513 C2542 2.764 . S
C2514 O2530 1.261 . S
C2514 O2531 1.257 . S
C2515 C2518 1.358 . S
C2515 C2519 1.332 . S
C2515 C2521 1.504 . S
C2516 C2517 1.373 . S
C2516 C2520 1.308 1_455 S
C2517 C2516 1.373 . S
C2517 C2518 1.429 . S
C2517 H2544 0.932 . S
C2518 C2515 1.358 . S
C2518 C2517 1.429 . S
C2518 H2545 0.930 . S
C2519 C2515 1.332 . S
C2519 C2520 1.394 1_455 S
C2519 H2546 0.932 1_455 S
C2520 C2516 1.308 1_655 S
C2520 C2519 1.394 1_655 S
C2520 H2547 0.929 . S
C2521 Tb2512 2.764 . S
C2521 C2515 1.504 . S
C2521 O2533 1.239 . S
C2521 O2534 1.263 . S
O2522 Tb2512 2.325 . S
O2522 C2532 1.236 . S
O2523 Tb2513 2.322 . S
O2523 C2532 1.257 . S
O2524 Tb2513 2.349 . S
O2524 C2535 1.257 1_455 S
O2525 Tb2512 2.303 . S
O2525 C2535 1.230 1_455 S
O2526 Tb2513 2.415 . S
O2526 C2542 1.239 . S
O2527 Tb2513 2.399 . S
O2527 C2542 1.263 . S
O2528 Tb2513 2.325 . S
O2528 C2543 1.236 . S
O2529 Tb2512 2.322 . S
O2529 C2543 1.257 . S
O2530 Tb2512 2.349 . S
O2530 C2514 1.261 . S
O2531 Tb2513 2.303 . S
O2531 C2514 1.257 . S
C2532 O2522 1.236 . S
C2532 O2523 1.257 . S
O2533 Tb2512 2.415 . S
O2533 C2521 1.239 . S
O2534 Tb2512 2.399 . S
O2534 C2521 1.263 . S
C2535 O2524 1.257 1_655 S
C2535 O2525 1.230 1_655 S
C2536 C2539 1.358 . S
C2536 C2540 1.332 . S
C2536 C2542 1.504 . S
C2537 C2538 1.373 . S
C2537 C2541 1.308 . S
C2538 C2537 1.373 . S
C2538 C2539 1.429 . S
C2538 H2548 0.932 . S
C2539 C2536 1.358 . S
C2539 C2538 1.429 . S
C2539 H2549 0.930 . S
C2540 C2536 1.332 . S
C2540 C2541 1.394 . S
C2540 H2550 0.932 . S
C2541 C2537 1.308 . S
C2541 C2540 1.394 . S
C2541 H2551 0.929 . S
C2542 Tb2513 2.764 . S
C2542 O2526 1.239 . S
C2542 O2527 1.263 . S
C2542 C2536 1.504 . S
C2543 O2528 1.236 . S
C2543 O2529 1.257 . S
H2544 C2517 0.932 . S
H2545 C2518 0.930 . S
H2546 C2519 0.932 1_655 S
H2547 C2520 0.929 . S
H2548 C2538 0.932 . S
H2549 C2539 0.930 . S
H2550 C2540 0.932 . S
H2551 C2541 0.929 . S
Tb2552 C2561 2.764 . S
Tb2552 O2562 2.325 . S
Tb2552 O2565 2.303 . S
Tb2552 O2569 2.322 . S
Tb2552 O2570 2.349 . S
Tb2552 O2573 2.415 . S
Tb2552 O2574 2.399 . S
Tb2553 O2563 2.322 . S
Tb2553 O2564 2.349 . S
Tb2553 O2566 2.415 . S
Tb2553 O2567 2.399 . S
Tb2553 O2568 2.325 . S
Tb2553 O2571 2.303 . S
Tb2553 C2582 2.764 . S
C2554 O2570 1.261 . S
C2554 O2571 1.257 . S
C2555 C2558 1.358 . S
C2555 C2559 1.332 . S
C2555 C2561 1.504 . S
C2556 C2557 1.373 . S
C2556 C2560 1.308 . S
C2557 C2556 1.373 . S
C2557 C2558 1.429 . S
C2557 H2584 0.932 . S
C2558 C2555 1.358 . S
C2558 C2557 1.429 . S
C2558 H2585 0.930 . S
C2559 C2555 1.332 . S
C2559 C2560 1.394 . S
C2559 H2586 0.932 . S
C2560 C2556 1.308 . S
C2560 C2559 1.394 . S
C2560 H2587 0.929 . S
C2561 Tb2552 2.764 . S
C2561 C2555 1.504 . S
C2561 O2573 1.239 . S
C2561 O2574 1.263 . S
O2562 Tb2552 2.325 . S
O2562 C2572 1.236 . S
O2563 Tb2553 2.322 . S
O2563 C2572 1.257 . S
O2564 Tb2553 2.349 . S
O2564 C2575 1.261 . S
O2565 Tb2552 2.303 . S
O2565 C2575 1.257 . S
O2566 Tb2553 2.415 . S
O2566 C2582 1.239 . S
O2567 Tb2553 2.399 . S
O2567 C2582 1.263 . S
O2568 Tb2553 2.325 . S
O2568 C2583 1.236 . S
O2569 Tb2552 2.322 . S
O2569 C2583 1.257 . S
O2570 Tb2552 2.349 . S
O2570 C2554 1.261 . S
O2571 Tb2553 2.303 . S
O2571 C2554 1.257 . S
C2572 O2562 1.236 . S
C2572 O2563 1.257 . S
O2573 Tb2552 2.415 . S
O2573 C2561 1.239 . S
O2574 Tb2552 2.399 . S
O2574 C2561 1.263 . S
C2575 O2564 1.261 . S
C2575 O2565 1.257 . S
C2576 C2579 1.358 . S
C2576 C2580 1.332 . S
C2576 C2582 1.504 . S
C2577 C2578 1.373 . S
C2577 C2581 1.308 . S
C2578 C2577 1.373 . S
C2578 C2579 1.429 . S
C2578 H2588 0.932 . S
C2579 C2576 1.358 . S
C2579 C2578 1.429 . S
C2579 H2589 0.930 . S
C2580 C2576 1.332 . S
C2580 C2581 1.394 . S
C2580 H2590 0.932 . S
C2581 C2577 1.308 . S
C2581 C2580 1.394 . S
C2581 H2591 0.929 . S
C2582 Tb2553 2.764 . S
C2582 O2566 1.239 . S
C2582 O2567 1.263 . S
C2582 C2576 1.504 . S
C2583 O2568 1.236 . S
C2583 O2569 1.257 . S
H2584 C2557 0.932 . S
H2585 C2558 0.930 . S
H2586 C2559 0.932 . S
H2587 C2560 0.929 . S
H2588 C2578 0.932 . S
H2589 C2579 0.930 . S
H2590 C2580 0.932 . S
H2591 C2581 0.929 . S
Tb2592 C2601 2.764 . S
Tb2592 O2602 2.325 . S
Tb2592 O2605 2.303 . S
Tb2592 O2609 2.322 . S
Tb2592 O2610 2.349 . S
Tb2592 O2613 2.415 . S
Tb2592 O2614 2.399 . S
Tb2593 O2603 2.322 . S
Tb2593 O2604 2.349 . S
Tb2593 O2606 2.415 . S
Tb2593 O2607 2.399 . S
Tb2593 O2608 2.325 . S
Tb2593 O2611 2.303 . S
Tb2593 C2622 2.764 . S
C2594 O2610 1.261 . S
C2594 O2611 1.257 . S
C2595 C2598 1.358 . S
C2595 C2599 1.332 . S
C2595 C2601 1.504 . S
C2596 C2597 1.373 . S
C2596 C2600 1.308 . S
C2597 C2596 1.373 . S
C2597 C2598 1.429 . S
C2597 H2624 0.932 . S
C2598 C2595 1.358 . S
C2598 C2597 1.429 . S
C2598 H2625 0.930 . S
C2599 C2595 1.332 . S
C2599 C2600 1.394 . S
C2599 H2626 0.932 . S
C2600 C2596 1.308 . S
C2600 C2599 1.394 . S
C2600 H2627 0.929 . S
C2601 Tb2592 2.764 . S
C2601 C2595 1.504 . S
C2601 O2613 1.239 . S
C2601 O2614 1.263 . S
O2602 Tb2592 2.325 . S
O2602 C2612 1.236 . S
O2603 Tb2593 2.322 . S
O2603 C2612 1.257 . S
O2604 Tb2593 2.349 . S
O2604 C2615 1.261 . S
O2605 Tb2592 2.303 . S
O2605 C2615 1.257 . S
O2606 Tb2593 2.415 . S
O2606 C2622 1.239 . S
O2607 Tb2593 2.399 . S
O2607 C2622 1.263 . S
O2608 Tb2593 2.325 . S
O2608 C2623 1.236 . S
O2609 Tb2592 2.322 . S
O2609 C2623 1.257 . S
O2610 Tb2592 2.349 . S
O2610 C2594 1.261 . S
O2611 Tb2593 2.303 . S
O2611 C2594 1.257 . S
C2612 O2602 1.236 . S
C2612 O2603 1.257 . S
O2613 Tb2592 2.415 . S
O2613 C2601 1.239 . S
O2614 Tb2592 2.399 . S
O2614 C2601 1.263 . S
C2615 O2604 1.261 . S
C2615 O2605 1.257 . S
C2616 C2619 1.358 . S
C2616 C2620 1.332 . S
C2616 C2622 1.504 . S
C2617 C2618 1.373 . S
C2617 C2621 1.308 . S
C2618 C2617 1.373 . S
C2618 C2619 1.429 . S
C2618 H2628 0.932 . S
C2619 C2616 1.358 . S
C2619 C2618 1.429 . S
C2619 H2629 0.930 . S
C2620 C2616 1.332 . S
C2620 C2621 1.394 . S
C2620 H2630 0.932 . S
C2621 C2617 1.308 . S
C2621 C2620 1.394 . S
C2621 H2631 0.929 . S
C2622 Tb2593 2.764 . S
C2622 O2606 1.239 . S
C2622 O2607 1.263 . S
C2622 C2616 1.504 . S
C2623 O2608 1.236 . S
C2623 O2609 1.257 . S
H2624 C2597 0.932 . S
H2625 C2598 0.930 . S
H2626 C2599 0.932 . S
H2627 C2600 0.929 . S
H2628 C2618 0.932 . S
H2629 C2619 0.930 . S
H2630 C2620 0.932 . S
H2631 C2621 0.929 . S
Tb2632 C2641 2.764 . S
Tb2632 O2642 2.325 . S
Tb2632 O2645 2.303 . S
Tb2632 O2649 2.322 . S
Tb2632 O2650 2.349 . S
Tb2632 O2653 2.415 . S
Tb2632 O2654 2.399 . S
Tb2633 O2643 2.322 . S
Tb2633 O2644 2.349 . S
Tb2633 O2646 2.415 . S
Tb2633 O2647 2.399 . S
Tb2633 O2648 2.325 . S
Tb2633 O2651 2.303 . S
Tb2633 C2662 2.764 . S
C2634 O2650 1.261 . S
C2634 O2651 1.257 . S
C2635 C2638 1.358 . S
C2635 C2639 1.332 . S
C2635 C2641 1.504 . S
C2636 C2637 1.373 . S
C2636 C2640 1.308 . S
C2637 C2636 1.373 . S
C2637 C2638 1.429 . S
C2637 H2664 0.932 . S
C2638 C2635 1.358 . S
C2638 C2637 1.429 . S
C2638 H2665 0.930 . S
C2639 C2635 1.332 . S
C2639 C2640 1.394 . S
C2639 H2666 0.932 . S
C2640 C2636 1.308 . S
C2640 C2639 1.394 . S
C2640 H2667 0.929 . S
C2641 Tb2632 2.764 . S
C2641 C2635 1.504 . S
C2641 O2653 1.239 . S
C2641 O2654 1.263 . S
O2642 Tb2632 2.325 . S
O2642 C2652 1.236 . S
O2643 Tb2633 2.322 . S
O2643 C2652 1.257 . S
O2644 Tb2633 2.349 . S
O2644 C2655 1.261 . S
O2645 Tb2632 2.303 . S
O2645 C2655 1.257 . S
O2646 Tb2633 2.415 . S
O2646 C2662 1.239 . S
O2647 Tb2633 2.399 . S
O2647 C2662 1.263 . S
O2648 Tb2633 2.325 . S
O2648 C2663 1.236 . S
O2649 Tb2632 2.322 . S
O2649 C2663 1.257 . S
O2650 Tb2632 2.349 . S
O2650 C2634 1.261 . S
O2651 Tb2633 2.303 . S
O2651 C2634 1.257 . S
C2652 O2642 1.236 . S
C2652 O2643 1.257 . S
O2653 Tb2632 2.415 . S
O2653 C2641 1.239 . S
O2654 Tb2632 2.399 . S
O2654 C2641 1.263 . S
C2655 O2644 1.261 . S
C2655 O2645 1.257 . S
C2656 C2659 1.358 . S
C2656 C2660 1.332 . S
C2656 C2662 1.504 . S
C2657 C2658 1.373 . S
C2657 C2661 1.308 . S
C2658 C2657 1.373 . S
C2658 C2659 1.429 . S
C2658 H2668 0.932 . S
C2659 C2656 1.358 . S
C2659 C2658 1.429 . S
C2659 H2669 0.930 . S
C2660 C2656 1.332 . S
C2660 C2661 1.394 . S
C2660 H2670 0.932 . S
C2661 C2657 1.308 . S
C2661 C2660 1.394 . S
C2661 H2671 0.929 . S
C2662 Tb2633 2.764 . S
C2662 O2646 1.239 . S
C2662 O2647 1.263 . S
C2662 C2656 1.504 . S
C2663 O2648 1.236 . S
C2663 O2649 1.257 . S
H2664 C2637 0.932 . S
H2665 C2638 0.930 . S
H2666 C2639 0.932 . S
H2667 C2640 0.929 . S
H2668 C2658 0.932 . S
H2669 C2659 0.930 . S
H2670 C2660 0.932 . S
H2671 C2661 0.929 . S
Tb2672 C2681 2.764 . S
Tb2672 O2682 2.325 . S
Tb2672 O2685 2.303 . S
Tb2672 O2689 2.322 . S
Tb2672 O2690 2.349 . S
Tb2672 O2693 2.415 . S
Tb2672 O2694 2.399 . S
Tb2673 O2683 2.322 . S
Tb2673 O2684 2.349 . S
Tb2673 O2686 2.415 . S
Tb2673 O2687 2.399 . S
Tb2673 O2688 2.325 . S
Tb2673 O2691 2.303 . S
Tb2673 C2702 2.764 . S
C2674 O2690 1.261 . S
C2674 O2691 1.257 . S
C2675 C2678 1.358 . S
C2675 C2679 1.332 . S
C2675 C2681 1.504 . S
C2676 C2677 1.373 . S
C2676 C2680 1.308 . S
C2677 C2676 1.373 . S
C2677 C2678 1.429 . S
C2677 H2704 0.932 . S
C2678 C2675 1.358 . S
C2678 C2677 1.429 . S
C2678 H2705 0.930 . S
C2679 C2675 1.332 . S
C2679 C2680 1.394 . S
C2679 H2706 0.932 . S
C2680 C2676 1.308 . S
C2680 C2679 1.394 . S
C2680 H2707 0.929 . S
C2681 Tb2672 2.764 . S
C2681 C2675 1.504 . S
C2681 O2693 1.239 . S
C2681 O2694 1.263 . S
O2682 Tb2672 2.325 . S
O2682 C2692 1.236 . S
O2683 Tb2673 2.322 . S
O2683 C2692 1.257 . S
O2684 Tb2673 2.349 . S
O2684 C2695 1.261 . S
O2685 Tb2672 2.303 . S
O2685 C2695 1.257 . S
O2686 Tb2673 2.415 . S
O2686 C2702 1.239 . S
O2687 Tb2673 2.399 . S
O2687 C2702 1.263 . S
O2688 Tb2673 2.325 . S
O2688 C2703 1.236 . S
O2689 Tb2672 2.322 . S
O2689 C2703 1.257 . S
O2690 Tb2672 2.349 . S
O2690 C2674 1.261 . S
O2691 Tb2673 2.303 . S
O2691 C2674 1.257 . S
C2692 O2682 1.236 . S
C2692 O2683 1.257 . S
O2693 Tb2672 2.415 . S
O2693 C2681 1.239 . S
O2694 Tb2672 2.399 . S
O2694 C2681 1.263 . S
C2695 O2684 1.261 . S
C2695 O2685 1.257 . S
C2696 C2699 1.358 . S
C2696 C2700 1.332 . S
C2696 C2702 1.504 . S
C2697 C2698 1.373 . S
C2697 C2701 1.308 . S
C2698 C2697 1.373 . S
C2698 C2699 1.429 . S
C2698 H2708 0.932 . S
C2699 C2696 1.358 . S
C2699 C2698 1.429 . S
C2699 H2709 0.930 . S
C2700 C2696 1.332 . S
C2700 C2701 1.394 . S
C2700 H2710 0.932 . S
C2701 C2697 1.308 . S
C2701 C2700 1.394 . S
C2701 H2711 0.929 . S
C2702 Tb2673 2.764 . S
C2702 O2686 1.239 . S
C2702 O2687 1.263 . S
C2702 C2696 1.504 . S
C2703 O2688 1.236 . S
C2703 O2689 1.257 . S
H2704 C2677 0.932 . S
H2705 C2678 0.930 . S
H2706 C2679 0.932 . S
H2707 C2680 0.929 . S
H2708 C2698 0.932 . S
H2709 C2699 0.930 . S
H2710 C2700 0.932 . S
H2711 C2701 0.929 . S
Tb2712 C2721 2.764 1_455 S
Tb2712 O2722 2.325 . S
Tb2712 O2725 2.303 . S
Tb2712 O2729 2.322 . S
Tb2712 O2730 2.349 . S
Tb2712 O2733 2.415 1_455 S
Tb2712 O2734 2.399 1_455 S
Tb2713 O2723 2.322 . S
Tb2713 O2724 2.349 1_554 S
Tb2713 O2726 2.415 . S
Tb2713 O2727 2.399 1_554 S
Tb2713 O2728 2.325 . S
Tb2713 O2731 2.303 . S
Tb2713 C2742 2.764 . S
C2714 O2730 1.261 . S
C2714 O2731 1.257 . S
C2715 C2718 1.358 . S
C2715 C2719 1.332 . S
C2715 C2721 1.504 . S
C2716 C2717 1.373 . S
C2716 C2720 1.308 . S
C2717 C2716 1.373 . S
C2717 C2718 1.429 . S
C2717 H2744 0.932 . S
C2718 C2715 1.358 . S
C2718 C2717 1.429 . S
C2718 H2745 0.930 . S
C2719 C2715 1.332 . S
C2719 C2720 1.394 . S
C2719 H2746 0.932 . S
C2720 C2716 1.308 . S
C2720 C2719 1.394 . S
C2720 H2747 0.929 . S
C2721 Tb2712 2.764 1_655 S
C2721 C2715 1.504 . S
C2721 O2733 1.239 . S
C2721 O2734 1.263 . S
O2722 Tb2712 2.325 . S
O2722 C2732 1.236 . S
O2723 Tb2713 2.322 . S
O2723 C2732 1.257 . S
O2724 Tb2713 2.349 1_556 S
O2724 C2735 1.261 . S
O2725 Tb2712 2.303 . S
O2725 C2735 1.257 1_554 S
O2726 Tb2713 2.415 . S
O2726 C2742 1.239 . S
O2727 Tb2713 2.399 1_556 S
O2727 C2742 1.263 1_556 S
O2728 Tb2713 2.325 . S
O2728 C2743 1.236 . S
O2729 Tb2712 2.322 . S
O2729 C2743 1.257 . S
O2730 Tb2712 2.349 . S
O2730 C2714 1.261 . S
O2731 Tb2713 2.303 . S
O2731 C2714 1.257 . S
C2732 O2722 1.236 . S
C2732 O2723 1.257 . S
O2733 Tb2712 2.415 1_655 S
O2733 C2721 1.239 . S
O2734 Tb2712 2.399 1_655 S
O2734 C2721 1.263 . S
C2735 O2724 1.261 . S
C2735 O2725 1.257 1_556 S
C2736 C2739 1.358 1_554 S
C2736 C2740 1.332 . S
C2736 C2742 1.504 . S
C2737 C2738 1.373 1_554 S
C2737 C2741 1.308 . S
C2738 C2737 1.373 1_556 S
C2738 C2739 1.429 . S
C2738 H2748 0.932 . S
C2739 C2736 1.358 1_556 S
C2739 C2738 1.429 . S
C2739 H2749 0.930 . S
C2740 C2736 1.332 . S
C2740 C2741 1.394 . S
C2740 H2750 0.932 . S
C2741 C2737 1.308 . S
C2741 C2740 1.394 . S
C2741 H2751 0.929 . S
C2742 Tb2713 2.764 . S
C2742 O2726 1.239 . S
C2742 O2727 1.263 1_554 S
C2742 C2736 1.504 . S
C2743 O2728 1.236 . S
C2743 O2729 1.257 . S
H2744 C2717 0.932 . S
H2745 C2718 0.930 . S
H2746 C2719 0.932 . S
H2747 C2720 0.929 . S
H2748 C2738 0.932 . S
H2749 C2739 0.930 . S
H2750 C2740 0.932 . S
H2751 C2741 0.929 . S
H2752 C2760 0.950 . S
H2753 C2765 0.950 1_554 S
H2754 C2762 0.950 . S
H2755 C2764 0.950 . S
H2756 C2766 0.950 . S
H2757 C2768 0.950 . S
H2758 C2770 0.950 . S
H2759 C2771 0.950 . S
C2760 H2752 0.950 . S
C2760 C2761 1.386 . S
C2760 C2762 1.391 . S
C2761 C2760 1.386 . S
C2761 C2765 1.393 1_655 S
C2762 H2754 0.950 . S
C2762 C2760 1.391 . S
C2762 C2763 1.400 1_655 S
C2763 C2762 1.400 1_455 S
C2763 C2764 1.398 1_556 S
C2763 C2769 1.491 1_556 S
C2764 H2755 0.950 . S
C2764 C2763 1.398 1_554 S
C2764 C2765 1.391 1_554 S
C2765 H2753 0.950 1_556 S
C2765 C2761 1.393 1_455 S
C2765 C2764 1.391 1_556 S
C2766 H2756 0.950 . S
C2766 C2767 1.386 . S
C2766 C2768 1.391 . S
C2767 C2766 1.386 . S
C2767 C2771 1.393 1_554 S
C2768 H2757 0.950 . S
C2768 C2766 1.391 . S
C2768 C2769 1.400 . S
C2769 C2763 1.491 1_554 S
C2769 C2768 1.400 . S
C2769 C2770 1.398 1_554 S
C2770 H2758 0.950 . S
C2770 C2769 1.398 1_556 S
C2770 C2771 1.391 . S
C2771 H2759 0.950 . S
C2771 C2767 1.393 1_556 S
C2771 C2770 1.391 . S
H2772 C2780 0.950 . S
H2773 C2785 0.950 . S
H2774 C2782 0.950 . S
H2775 C2784 0.950 . S
H2776 C2786 0.950 . S
H2777 C2788 0.950 . S
H2778 C2790 0.950 . S
H2779 C2791 0.950 . S
C2780 H2772 0.950 . S
C2780 C2781 1.386 . S
C2780 C2782 1.391 . S
C2781 C2780 1.386 . S
C2781 C2785 1.393 . S
C2782 H2774 0.950 . S
C2782 C2780 1.391 . S
C2782 C2783 1.400 . S
C2783 C2782 1.400 . S
C2783 C2784 1.398 . S
C2783 C2789 1.491 . S
C2784 H2775 0.950 . S
C2784 C2783 1.398 . S
C2784 C2785 1.391 . S
C2785 H2773 0.950 . S
C2785 C2781 1.393 . S
C2785 C2784 1.391 . S
C2786 H2776 0.950 . S
C2786 C2787 1.386 . S
C2786 C2788 1.391 . S
C2787 C2786 1.386 . S
C2787 C2791 1.393 . S
C2788 H2777 0.950 . S
C2788 C2786 1.391 . S
C2788 C2789 1.400 . S
C2789 C2783 1.491 . S
C2789 C2788 1.400 . S
C2789 C2790 1.398 . S
C2790 H2778 0.950 . S
C2790 C2789 1.398 . S
C2790 C2791 1.391 . S
C2791 H2779 0.950 . S
C2791 C2787 1.393 . S
C2791 C2790 1.391 . S
H2792 C2800 0.950 . S
H2793 C2805 0.950 . S
H2794 C2802 0.950 . S
H2795 C2804 0.950 . S
H2796 C2806 0.950 . S
H2797 C2808 0.950 . S
H2798 C2810 0.950 . S
H2799 C2811 0.950 . S
C2800 H2792 0.950 . S
C2800 C2801 1.386 . S
C2800 C2802 1.391 . S
C2801 C2800 1.386 . S
C2801 C2805 1.393 . S
C2802 H2794 0.950 . S
C2802 C2800 1.391 . S
C2802 C2803 1.400 . S
C2803 C2802 1.400 . S
C2803 C2804 1.398 . S
C2803 C2809 1.491 . S
C2804 H2795 0.950 . S
C2804 C2803 1.398 . S
C2804 C2805 1.391 . S
C2805 H2793 0.950 . S
C2805 C2801 1.393 . S
C2805 C2804 1.391 . S
C2806 H2796 0.950 . S
C2806 C2807 1.386 . S
C2806 C2808 1.391 . S
C2807 C2806 1.386 . S
C2807 C2811 1.393 . S
C2808 H2797 0.950 . S
C2808 C2806 1.391 . S
C2808 C2809 1.400 . S
C2809 C2803 1.491 . S
C2809 C2808 1.400 . S
C2809 C2810 1.398 . S
C2810 H2798 0.950 . S
C2810 C2809 1.398 . S
C2810 C2811 1.391 . S
C2811 H2799 0.950 . S
C2811 C2807 1.393 . S
C2811 C2810 1.391 . S
H2812 C2820 0.950 . S
H2813 C2825 0.950 . S
H2814 C2822 0.950 . S
H2815 C2824 0.950 . S
H2816 C2826 0.950 . S
H2817 C2828 0.950 . S
H2818 C2830 0.950 . S
H2819 C2831 0.950 . S
C2820 H2812 0.950 . S
C2820 C2821 1.386 . S
C2820 C2822 1.391 . S
C2821 C2820 1.386 . S
C2821 C2825 1.393 . S
C2822 H2814 0.950 . S
C2822 C2820 1.391 . S
C2822 C2823 1.400 . S
C2823 C2822 1.400 . S
C2823 C2824 1.398 . S
C2823 C2829 1.491 . S
C2824 H2815 0.950 . S
C2824 C2823 1.398 . S
C2824 C2825 1.391 . S
C2825 H2813 0.950 . S
C2825 C2821 1.393 . S
C2825 C2824 1.391 . S
C2826 H2816 0.950 . S
C2826 C2827 1.386 . S
C2826 C2828 1.391 . S
C2827 C2826 1.386 . S
C2827 C2831 1.393 . S
C2828 H2817 0.950 . S
C2828 C2826 1.391 . S
C2828 C2829 1.400 . S
C2829 C2823 1.491 . S
C2829 C2828 1.400 . S
C2829 C2830 1.398 . S
C2830 H2818 0.950 . S
C2830 C2829 1.398 . S
C2830 C2831 1.391 . S
C2831 H2819 0.950 . S
C2831 C2827 1.393 . S
C2831 C2830 1.391 . S
H2832 C2840 0.950 . S
H2833 C2845 0.950 . S
H2834 C2842 0.950 . S
H2835 C2844 0.950 . S
H2836 C2846 0.950 . S
H2837 C2848 0.950 . S
H2838 C2850 0.950 . S
H2839 C2851 0.950 . S
C2840 H2832 0.950 . S
C2840 C2841 1.386 . S
C2840 C2842 1.391 . S
C2841 C2840 1.386 . S
C2841 C2845 1.393 . S
C2842 H2834 0.950 . S
C2842 C2840 1.391 . S
C2842 C2843 1.400 . S
C2843 C2842 1.400 . S
C2843 C2844 1.398 . S
C2843 C2849 1.491 . S
C2844 H2835 0.950 . S
C2844 C2843 1.398 . S
C2844 C2845 1.391 . S
C2845 H2833 0.950 . S
C2845 C2841 1.393 . S
C2845 C2844 1.391 . S
C2846 H2836 0.950 . S
C2846 C2847 1.386 . S
C2846 C2848 1.391 . S
C2847 C2846 1.386 . S
C2847 C2851 1.393 . S
C2848 H2837 0.950 . S
C2848 C2846 1.391 . S
C2848 C2849 1.400 . S
C2849 C2843 1.491 . S
C2849 C2848 1.400 . S
C2849 C2850 1.398 . S
C2850 H2838 0.950 . S
C2850 C2849 1.398 . S
C2850 C2851 1.391 . S
C2851 H2839 0.950 . S
C2851 C2847 1.393 . S
C2851 C2850 1.391 . S
H2852 C2860 0.950 . S
H2853 C2865 0.950 . S
H2854 C2862 0.950 . S
H2855 C2864 0.950 . S
H2856 C2866 0.950 . S
H2857 C2868 0.950 . S
H2858 C2870 0.950 . S
H2859 C2871 0.950 . S
C2860 H2852 0.950 . S
C2860 C2861 1.386 . S
C2860 C2862 1.391 . S
C2861 C2860 1.386 . S
C2861 C2865 1.393 . S
C2862 H2854 0.950 . S
C2862 C2860 1.391 . S
C2862 C2863 1.400 . S
C2863 C2862 1.400 . S
C2863 C2864 1.398 . S
C2863 C2869 1.491 . S
C2864 H2855 0.950 . S
C2864 C2863 1.398 . S
C2864 C2865 1.391 . S
C2865 H2853 0.950 . S
C2865 C2861 1.393 . S
C2865 C2864 1.391 . S
C2866 H2856 0.950 . S
C2866 C2867 1.386 . S
C2866 C2868 1.391 . S
C2867 C2866 1.386 . S
C2867 C2871 1.393 . S
C2868 H2857 0.950 . S
C2868 C2866 1.391 . S
C2868 C2869 1.400 . S
C2869 C2863 1.491 . S
C2869 C2868 1.400 . S
C2869 C2870 1.398 . S
C2870 H2858 0.950 . S
C2870 C2869 1.398 . S
C2870 C2871 1.391 . S
C2871 H2859 0.950 . S
C2871 C2867 1.393 . S
C2871 C2870 1.391 . S
H2872 C2880 0.950 . S
H2873 C2885 0.950 . S
H2874 C2882 0.950 . S
H2875 C2884 0.950 . S
H2876 C2886 0.950 . S
H2877 C2888 0.950 . S
H2878 C2890 0.950 . S
H2879 C2891 0.950 . S
C2880 H2872 0.950 . S
C2880 C2881 1.386 . S
C2880 C2882 1.391 . S
C2881 C2880 1.386 . S
C2881 C2885 1.393 . S
C2882 H2874 0.950 . S
C2882 C2880 1.391 . S
C2882 C2883 1.400 . S
C2883 C2882 1.400 . S
C2883 C2884 1.398 . S
C2883 C2889 1.491 . S
C2884 H2875 0.950 . S
C2884 C2883 1.398 . S
C2884 C2885 1.391 . S
C2885 H2873 0.950 . S
C2885 C2881 1.393 . S
C2885 C2884 1.391 . S
C2886 H2876 0.950 . S
C2886 C2887 1.386 . S
C2886 C2888 1.391 . S
C2887 C2886 1.386 . S
C2887 C2891 1.393 . S
C2888 H2877 0.950 . S
C2888 C2886 1.391 . S
C2888 C2889 1.400 . S
C2889 C2883 1.491 . S
C2889 C2888 1.400 . S
C2889 C2890 1.398 . S
C2890 H2878 0.950 . S
C2890 C2889 1.398 . S
C2890 C2891 1.391 . S
C2891 H2879 0.950 . S
C2891 C2887 1.393 . S
C2891 C2890 1.391 . S
H2892 C2900 0.950 . S
H2893 C2905 0.950 . S
H2894 C2902 0.950 . S
H2895 C2904 0.950 . S
H2896 C2906 0.950 . S
H2897 C2908 0.950 . S
H2898 C2910 0.950 . S
H2899 C2911 0.950 . S
C2900 H2892 0.950 . S
C2900 C2901 1.386 . S
C2900 C2902 1.391 . S
C2901 C2900 1.386 . S
C2901 C2905 1.393 . S
C2902 H2894 0.950 . S
C2902 C2900 1.391 . S
C2902 C2903 1.400 . S
C2903 C2902 1.400 . S
C2903 C2904 1.398 . S
C2903 C2909 1.491 . S
C2904 H2895 0.950 . S
C2904 C2903 1.398 . S
C2904 C2905 1.391 . S
C2905 H2893 0.950 . S
C2905 C2901 1.393 . S
C2905 C2904 1.391 . S
C2906 H2896 0.950 . S
C2906 C2907 1.386 . S
C2906 C2908 1.391 . S
C2907 C2906 1.386 . S
C2907 C2911 1.393 . S
C2908 H2897 0.950 . S
C2908 C2906 1.391 . S
C2908 C2909 1.400 . S
C2909 C2903 1.491 . S
C2909 C2908 1.400 . S
C2909 C2910 1.398 . S
C2910 H2898 0.950 . S
C2910 C2909 1.398 . S
C2910 C2911 1.391 . S
C2911 H2899 0.950 . S
C2911 C2907 1.393 . S
C2911 C2910 1.391 . S
H2912 C2920 0.950 . S
H2913 C2925 0.950 . S
H2914 C2922 0.950 . S
H2915 C2924 0.950 1_455 S
H2916 C2926 0.950 . S
H2917 C2928 0.950 . S
H2918 C2930 0.950 . S
H2919 C2931 0.950 . S
C2920 H2912 0.950 . S
C2920 C2921 1.386 . S
C2920 C2922 1.391 . S
C2921 C2920 1.386 . S
C2921 C2925 1.393 . S
C2922 H2914 0.950 . S
C2922 C2920 1.391 . S
C2922 C2923 1.400 . S
C2923 C2922 1.400 . S
C2923 C2924 1.398 . S
C2923 C2929 1.491 1_655 S
C2924 H2915 0.950 1_655 S
C2924 C2923 1.398 . S
C2924 C2925 1.391 . S
C2925 H2913 0.950 . S
C2925 C2921 1.393 . S
C2925 C2924 1.391 . S
C2926 H2916 0.950 . S
C2926 C2927 1.386 . S
C2926 C2928 1.391 . S
C2927 C2926 1.386 . S
C2927 C2931 1.393 . S
C2928 H2917 0.950 . S
C2928 C2926 1.391 . S
C2928 C2929 1.400 . S
C2929 C2923 1.491 1_455 S
C2929 C2928 1.400 . S
C2929 C2930 1.398 1_455 S
C2930 H2918 0.950 . S
C2930 C2929 1.398 1_655 S
C2930 C2931 1.391 1_655 S
C2931 H2919 0.950 . S
C2931 C2927 1.393 . S
C2931 C2930 1.391 1_455 S
H2932 C2940 0.950 . S
H2933 C2945 0.950 . S
H2934 C2942 0.950 . S
H2935 C2944 0.950 . S
H2936 C2946 0.950 . S
H2937 C2948 0.950 . S
H2938 C2950 0.950 . S
H2939 C2951 0.950 . S
C2940 H2932 0.950 . S
C2940 C2941 1.386 . S
C2940 C2942 1.391 . S
C2941 C2940 1.386 . S
C2941 C2945 1.393 . S
C2942 H2934 0.950 . S
C2942 C2940 1.391 . S
C2942 C2943 1.400 . S
C2943 C2942 1.400 . S
C2943 C2944 1.398 . S
C2943 C2949 1.491 . S
C2944 H2935 0.950 . S
C2944 C2943 1.398 . S
C2944 C2945 1.391 . S
C2945 H2933 0.950 . S
C2945 C2941 1.393 . S
C2945 C2944 1.391 . S
C2946 H2936 0.950 . S
C2946 C2947 1.386 . S
C2946 C2948 1.391 . S
C2947 C2946 1.386 . S
C2947 C2951 1.393 . S
C2948 H2937 0.950 . S
C2948 C2946 1.391 . S
C2948 C2949 1.400 . S
C2949 C2943 1.491 . S
C2949 C2948 1.400 . S
C2949 C2950 1.398 . S
C2950 H2938 0.950 . S
C2950 C2949 1.398 . S
C2950 C2951 1.391 . S
C2951 H2939 0.950 . S
C2951 C2947 1.393 . S
C2951 C2950 1.391 . S
H2952 C2960 0.950 . S
H2953 C2965 0.950 1_565 S
H2954 C2962 0.950 . S
H2955 C2964 0.950 . S
H2956 C2966 0.950 . S
H2957 C2968 0.950 . S
H2958 C2970 0.950 . S
H2959 C2971 0.950 . S
C2960 H2952 0.950 . S
C2960 C2961 1.386 . S
C2960 C2962 1.391 . S
C2961 C2960 1.386 . S
C2961 C2965 1.393 . S
C2962 H2954 0.950 . S
C2962 C2960 1.391 . S
C2962 C2963 1.400 . S
C2963 C2962 1.400 . S
C2963 C2964 1.398 . S
C2963 C2969 1.491 . S
C2964 H2955 0.950 . S
C2964 C2963 1.398 . S
C2964 C2965 1.391 . S
C2965 H2953 0.950 1_545 S
C2965 C2961 1.393 . S
C2965 C2964 1.391 . S
C2966 H2956 0.950 . S
C2966 C2967 1.386 . S
C2966 C2968 1.391 . S
C2967 C2966 1.386 . S
C2967 C2971 1.393 . S
C2968 H2957 0.950 . S
C2968 C2966 1.391 . S
C2968 C2969 1.400 . S
C2969 C2963 1.491 . S
C2969 C2968 1.400 . S
C2969 C2970 1.398 . S
C2970 H2958 0.950 . S
C2970 C2969 1.398 . S
C2970 C2971 1.391 . S
C2971 H2959 0.950 . S
C2971 C2967 1.393 . S
C2971 C2970 1.391 . S
H2972 C2980 0.950 . S
H2973 C2985 0.950 . S
H2974 C2982 0.950 . S
H2975 C2984 0.950 . S
H2976 C2986 0.950 . S
H2977 C2988 0.950 . S
H2978 C2990 0.950 . S
H2979 C2991 0.950 . S
C2980 H2972 0.950 . S
C2980 C2981 1.386 . S
C2980 C2982 1.391 . S
C2981 C2980 1.386 . S
C2981 C2985 1.393 . S
C2982 H2974 0.950 . S
C2982 C2980 1.391 . S
C2982 C2983 1.400 . S
C2983 C2982 1.400 . S
C2983 C2984 1.398 . S
C2983 C2989 1.491 . S
C2984 H2975 0.950 . S
C2984 C2983 1.398 . S
C2984 C2985 1.391 . S
C2985 H2973 0.950 . S
C2985 C2981 1.393 . S
C2985 C2984 1.391 . S
C2986 H2976 0.950 . S
C2986 C2987 1.386 . S
C2986 C2988 1.391 . S
C2987 C2986 1.386 . S
C2987 C2991 1.393 . S
C2988 H2977 0.950 . S
C2988 C2986 1.391 . S
C2988 C2989 1.400 . S
C2989 C2983 1.491 . S
C2989 C2988 1.400 . S
C2989 C2990 1.398 . S
C2990 H2978 0.950 . S
C2990 C2989 1.398 . S
C2990 C2991 1.391 . S
C2991 H2979 0.950 . S
C2991 C2987 1.393 . S
C2991 C2990 1.391 . S
H2992 C3000 0.950 . S
H2993 C3005 0.950 . S
H2994 C3002 0.950 . S
H2995 C3004 0.950 . S
H2996 C3006 0.950 . S
H2997 C3008 0.950 . S
H2998 C3010 0.977 1_565 S
H2999 C3011 0.982 . S
C3000 H2992 0.950 . S
C3000 C3001 1.386 . S
C3000 C3002 1.391 . S
C3001 C3000 1.386 . S
C3001 C3005 1.393 . S
C3002 H2994 0.950 . S
C3002 C3000 1.391 . S
C3002 C3003 1.400 . S
C3003 C3002 1.400 . S
C3003 C3004 1.398 . S
C3003 C3009 1.491 . S
C3004 H2995 0.950 . S
C3004 C3003 1.398 . S
C3004 C3005 1.391 . S
C3005 H2993 0.950 . S
C3005 C3001 1.393 . S
C3005 C3004 1.391 . S
C3006 H2996 0.950 . S
C3006 C3007 1.386 1_655 S
C3006 C3008 1.391 . S
C3007 C3006 1.386 1_455 S
C3007 C3011 1.373 1_545 S
C3008 H2997 0.950 . S
C3008 C3006 1.391 . S
C3008 C3009 1.400 . S
C3009 C3003 1.491 . S
C3009 C3008 1.400 . S
C3009 C3010 1.356 1_655 S
C3010 H2998 0.977 1_545 S
C3010 C3009 1.356 1_455 S
C3010 C3011 1.397 1_545 S
C3011 H2999 0.982 . S
C3011 C3007 1.373 1_565 S
C3011 C3010 1.397 1_565 S
H3012 C3020 0.950 . S
H3013 C3025 0.950 . S
H3014 C3022 0.950 . S
H3015 C3024 0.950 . S
H3016 C3026 0.950 . S
H3017 C3028 0.950 . S
H3018 C3030 0.950 . S
H3019 C3031 0.950 . S
C3020 H3012 0.950 . S
C3020 C3021 1.386 . S
C3020 C3022 1.391 . S
C3021 C3020 1.386 . S
C3021 C3025 1.393 . S
C3022 H3014 0.950 . S
C3022 C3020 1.391 . S
C3022 C3023 1.400 . S
C3023 C3022 1.400 . S
C3023 C3024 1.398 . S
C3023 C3029 1.491 . S
C3024 H3015 0.950 . S
C3024 C3023 1.398 . S
C3024 C3025 1.391 . S
C3025 H3013 0.950 . S
C3025 C3021 1.393 . S
C3025 C3024 1.391 . S
C3026 H3016 0.950 . S
C3026 C3027 1.386 . S
C3026 C3028 1.391 . S
C3027 C3026 1.386 . S
C3027 C3031 1.393 . S
C3028 H3017 0.950 . S
C3028 C3026 1.391 . S
C3028 C3029 1.400 . S
C3029 C3023 1.491 . S
C3029 C3028 1.400 . S
C3029 C3030 1.398 . S
C3030 H3018 0.950 . S
C3030 C3029 1.398 . S
C3030 C3031 1.391 . S
C3031 H3019 0.950 . S
C3031 C3027 1.393 . S
C3031 C3030 1.391 . S
H3032 C3040 0.950 . S
H3033 C3045 0.948 1_565 S
H3034 C3042 0.950 . S
H3035 C3044 0.950 1_565 S
H3036 C3046 0.942 1_565 S
H3037 C3048 0.950 1_565 S
H3038 C3050 0.950 . S
H3039 C3051 0.950 . S
C3040 H3032 0.950 . S
C3040 C3041 1.386 . S
C3040 C3042 1.391 . S
C3041 C3040 1.386 . S
C3041 C3045 1.394 . S
C3042 H3034 0.950 . S
C3042 C3040 1.391 . S
C3042 C3043 1.400 . S
C3043 C3042 1.400 . S
C3043 C3044 1.398 . S
C3043 C3049 1.491 . S
C3044 H3035 0.950 1_545 S
C3044 C3043 1.398 . S
C3044 C3045 1.391 . S
C3045 H3033 0.948 1_545 S
C3045 C3041 1.394 . S
C3045 C3044 1.391 . S
C3046 H3036 0.942 1_545 S
C3046 C3047 1.386 . S
C3046 C3048 1.391 . S
C3047 C3046 1.386 . S
C3047 C3051 1.393 . S
C3048 H3037 0.950 1_545 S
C3048 C3046 1.391 . S
C3048 C3049 1.400 . S
C3049 C3043 1.491 . S
C3049 C3048 1.400 . S
C3049 C3050 1.398 . S
C3050 H3038 0.950 . S
C3050 C3049 1.398 . S
C3050 C3051 1.391 . S
C3051 H3039 0.950 . S
C3051 C3047 1.393 . S
C3051 C3050 1.391 . S
H3052 C3060 0.950 . S
H3053 C3065 0.950 . S
H3054 C3062 0.950 . S
H3055 C3064 0.950 . S
H3056 C3066 0.950 . S
H3057 C3068 0.950 . S
H3058 C3070 0.950 . S
H3059 C3071 0.950 . S
C3060 H3052 0.950 . S
C3060 C3061 1.386 . S
C3060 C3062 1.391 . S
C3061 C3060 1.386 . S
C3061 C3065 1.393 . S
C3062 H3054 0.950 . S
C3062 C3060 1.391 . S
C3062 C3063 1.400 . S
C3063 C3062 1.400 . S
C3063 C3064 1.398 . S
C3063 C3069 1.491 . S
C3064 H3055 0.950 . S
C3064 C3063 1.398 . S
C3064 C3065 1.391 . S
C3065 H3053 0.950 . S
C3065 C3061 1.393 . S
C3065 C3064 1.391 . S
C3066 H3056 0.950 . S
C3066 C3067 1.386 . S
C3066 C3068 1.391 . S
C3067 C3066 1.386 . S
C3067 C3071 1.393 . S
C3068 H3057 0.950 . S
C3068 C3066 1.391 . S
C3068 C3069 1.400 . S
C3069 C3063 1.491 . S
C3069 C3068 1.400 . S
C3069 C3070 1.398 . S
C3070 H3058 0.950 . S
C3070 C3069 1.398 . S
C3070 C3071 1.391 . S
C3071 H3059 0.950 . S
C3071 C3067 1.393 . S
C3071 C3070 1.391 . S
H3072 C3080 0.950 . S
H3073 C3085 0.950 . S
H3074 C3082 0.950 1_556 S
H3075 C3084 0.950 . S
H3076 C3086 0.952 . S
H3077 C3088 0.950 . S
H3078 C3090 0.950 . S
H3079 C3091 0.950 . S
C3080 H3072 0.950 . S
C3080 C3081 1.386 1_556 S
C3080 C3082 1.391 1_556 S
C3081 C3080 1.386 1_554 S
C3081 C3085 1.393 . S
C3082 H3074 0.950 1_554 S
C3082 C3080 1.391 1_554 S
C3082 C3083 1.400 . S
C3083 C3082 1.400 . S
C3083 C3084 1.398 . S
C3083 C3089 1.491 . S
C3084 H3075 0.950 . S
C3084 C3083 1.398 . S
C3084 C3085 1.391 . S
C3085 H3073 0.950 . S
C3085 C3081 1.393 . S
C3085 C3084 1.391 . S
C3086 H3076 0.952 . S
C3086 C3087 1.383 . S
C3086 C3088 1.394 1_545 S
C3087 C3086 1.383 . S
C3087 C3091 1.393 . S
C3088 H3077 0.950 . S
C3088 C3086 1.394 1_565 S
C3088 C3089 1.400 . S
C3089 C3083 1.491 . S
C3089 C3088 1.400 . S
C3089 C3090 1.398 . S
C3090 H3078 0.950 . S
C3090 C3089 1.398 . S
C3090 C3091 1.391 1_565 S
C3091 H3079 0.950 . S
C3091 C3087 1.393 . S
C3091 C3090 1.391 1_545 S
H3092 C3100 0.950 . S
H3093 C3105 0.950 1_556 S
H3094 C3102 0.950 . S
H3095 C3104 0.950 1_556 S
H3096 C3106 0.950 1_556 S
H3097 C3108 0.950 1_556 S
H3098 C3110 0.950 . S
H3099 C3111 0.950 . S
C3100 H3092 0.950 . S
C3100 C3101 1.386 . S
C3100 C3102 1.391 . S
C3101 C3100 1.386 . S
C3101 C3105 1.393 . S
C3102 H3094 0.950 . S
C3102 C3100 1.391 . S
C3102 C3103 1.400 . S
C3103 C3102 1.400 . S
C3103 C3104 1.398 . S
C3103 C3109 1.491 . S
C3104 H3095 0.950 1_554 S
C3104 C3103 1.398 . S
C3104 C3105 1.391 . S
C3105 H3093 0.950 1_554 S
C3105 C3101 1.393 . S
C3105 C3104 1.391 . S
C3106 H3096 0.950 1_554 S
C3106 C3107 1.386 . S
C3106 C3108 1.391 . S
C3107 C3106 1.386 . S
C3107 C3111 1.393 . S
C3108 H3097 0.950 1_554 S
C3108 C3106 1.391 . S
C3108 C3109 1.400 . S
C3109 C3103 1.491 . S
C3109 C3108 1.400 . S
C3109 C3110 1.398 . S
C3110 H3098 0.950 . S
C3110 C3109 1.398 . S
C3110 C3111 1.391 . S
C3111 H3099 0.950 . S
C3111 C3107 1.393 . S
C3111 C3110 1.391 . S
H3112 C3120 0.950 . S
H3113 C3125 0.950 . S
H3114 C3122 0.950 . S
H3115 C3124 0.950 . S
H3116 C3126 0.950 . S
H3117 C3128 0.950 . S
H3118 C3130 0.950 . S
H3119 C3131 0.950 . S
C3120 H3112 0.950 . S
C3120 C3121 1.386 . S
C3120 C3122 1.391 . S
C3121 C3120 1.386 . S
C3121 C3125 1.393 . S
C3122 H3114 0.950 . S
C3122 C3120 1.391 . S
C3122 C3123 1.400 . S
C3123 C3122 1.400 . S
C3123 C3124 1.398 . S
C3123 C3129 1.491 . S
C3124 H3115 0.950 . S
C3124 C3123 1.398 . S
C3124 C3125 1.391 . S
C3125 H3113 0.950 . S
C3125 C3121 1.393 . S
C3125 C3124 1.391 . S
C3126 H3116 0.950 . S
C3126 C3127 1.386 . S
C3126 C3128 1.391 . S
C3127 C3126 1.386 . S
C3127 C3131 1.393 . S
C3128 H3117 0.950 . S
C3128 C3126 1.391 . S
C3128 C3129 1.400 . S
C3129 C3123 1.491 . S
C3129 C3128 1.400 . S
C3129 C3130 1.398 . S
C3130 H3118 0.950 . S
C3130 C3129 1.398 . S
C3130 C3131 1.391 . S
C3131 H3119 0.950 . S
C3131 C3127 1.393 . S
C3131 C3130 1.391 . S
H3132 C3140 0.950 . S
H3133 C3145 0.950 . S
H3134 C3142 0.950 . S
H3135 C3144 0.950 . S
H3136 C3146 0.950 . S
H3137 C3148 0.950 . S
H3138 C3150 0.950 . S
H3139 C3151 0.950 . S
C3140 H3132 0.950 . S
C3140 C3141 1.386 . S
C3140 C3142 1.391 . S
C3141 C3140 1.386 . S
C3141 C3145 1.393 . S
C3142 H3134 0.950 . S
C3142 C3140 1.391 . S
C3142 C3143 1.400 . S
C3143 C3142 1.400 . S
C3143 C3144 1.398 . S
C3143 C3149 1.491 . S
C3144 H3135 0.950 . S
C3144 C3143 1.398 . S
C3144 C3145 1.391 . S
C3145 H3133 0.950 . S
C3145 C3141 1.393 . S
C3145 C3144 1.391 . S
C3146 H3136 0.950 . S
C3146 C3147 1.386 . S
C3146 C3148 1.391 . S
C3147 C3146 1.386 . S
C3147 C3151 1.393 . S
C3148 H3137 0.950 . S
C3148 C3146 1.391 . S
C3148 C3149 1.400 . S
C3149 C3143 1.491 . S
C3149 C3148 1.400 . S
C3149 C3150 1.398 . S
C3150 H3138 0.950 . S
C3150 C3149 1.398 . S
C3150 C3151 1.391 . S
C3151 H3139 0.950 . S
C3151 C3147 1.393 . S
C3151 C3150 1.391 . S
H3152 C3160 0.950 . S
H3153 C3165 0.950 . S
H3154 C3162 0.950 . S
H3155 C3164 0.950 . S
H3156 C3166 0.950 . S
H3157 C3168 0.950 . S
H3158 C3170 0.950 . S
H3159 C3171 0.950 . S
C3160 H3152 0.950 . S
C3160 C3161 1.386 . S
C3160 C3162 1.391 . S
C3161 C3160 1.386 . S
C3161 C3165 1.393 . S
C3162 H3154 0.950 . S
C3162 C3160 1.391 . S
C3162 C3163 1.400 . S
C3163 C3162 1.400 . S
C3163 C3164 1.398 . S
C3163 C3169 1.491 . S
C3164 H3155 0.950 . S
C3164 C3163 1.398 . S
C3164 C3165 1.391 . S
C3165 H3153 0.950 . S
C3165 C3161 1.393 . S
C3165 C3164 1.391 . S
C3166 H3156 0.950 . S
C3166 C3167 1.386 . S
C3166 C3168 1.391 . S
C3167 C3166 1.386 . S
C3167 C3171 1.393 . S
C3168 H3157 0.950 . S
C3168 C3166 1.391 . S
C3168 C3169 1.400 . S
C3169 C3163 1.491 . S
C3169 C3168 1.400 . S
C3169 C3170 1.398 . S
C3170 H3158 0.950 . S
C3170 C3169 1.398 . S
C3170 C3171 1.391 . S
C3171 H3159 0.950 . S
C3171 C3167 1.393 . S
C3171 C3170 1.391 . S
H3172 C3180 0.950 . S
H3173 C3185 0.950 . S
H3174 C3182 0.950 . S
H3175 C3184 0.950 . S
H3176 C3186 0.950 . S
H3177 C3188 0.950 . S
H3178 C3190 0.950 . S
H3179 C3191 0.950 . S
C3180 H3172 0.950 . S
C3180 C3181 1.386 . S
C3180 C3182 1.391 . S
C3181 C3180 1.386 . S
C3181 C3185 1.393 . S
C3182 H3174 0.950 . S
C3182 C3180 1.391 . S
C3182 C3183 1.400 . S
C3183 C3182 1.400 . S
C3183 C3184 1.398 . S
C3183 C3189 1.491 . S
C3184 H3175 0.950 . S
C3184 C3183 1.398 . S
C3184 C3185 1.391 . S
C3185 H3173 0.950 . S
C3185 C3181 1.393 . S
C3185 C3184 1.391 . S
C3186 H3176 0.950 . S
C3186 C3187 1.386 . S
C3186 C3188 1.391 . S
C3187 C3186 1.386 . S
C3187 C3191 1.393 . S
C3188 H3177 0.950 . S
C3188 C3186 1.391 . S
C3188 C3189 1.400 . S
C3189 C3183 1.491 . S
C3189 C3188 1.400 . S
C3189 C3190 1.398 . S
C3190 H3178 0.950 . S
C3190 C3189 1.398 . S
C3190 C3191 1.391 . S
C3191 H3179 0.950 . S
C3191 C3187 1.393 . S
C3191 C3190 1.391 . S
H3192 C3200 0.950 . S
H3193 C3205 0.950 . S
H3194 C3202 0.950 . S
H3195 C3204 0.950 . S
H3196 C3206 0.950 . S
H3197 C3208 0.950 . S
H3198 C3210 0.950 . S
H3199 C3211 0.950 . S
C3200 H3192 0.950 . S
C3200 C3201 1.386 . S
C3200 C3202 1.391 . S
C3201 C3200 1.386 . S
C3201 C3205 1.393 . S
C3202 H3194 0.950 . S
C3202 C3200 1.391 . S
C3202 C3203 1.400 . S
C3203 C3202 1.400 . S
C3203 C3204 1.398 . S
C3203 C3209 1.491 . S
C3204 H3195 0.950 . S
C3204 C3203 1.398 . S
C3204 C3205 1.391 . S
C3205 H3193 0.950 . S
C3205 C3201 1.393 . S
C3205 C3204 1.391 . S
C3206 H3196 0.950 . S
C3206 C3207 1.386 . S
C3206 C3208 1.391 . S
C3207 C3206 1.386 . S
C3207 C3211 1.393 . S
C3208 H3197 0.950 . S
C3208 C3206 1.391 . S
C3208 C3209 1.400 . S
C3209 C3203 1.491 . S
C3209 C3208 1.400 . S
C3209 C3210 1.398 . S
C3210 H3198 0.950 . S
C3210 C3209 1.398 . S
C3210 C3211 1.391 . S
C3211 H3199 0.950 . S
C3211 C3207 1.393 . S
C3211 C3210 1.391 . S
H3212 C3220 0.950 . S
H3213 C3225 0.950 . S
H3214 C3222 0.950 . S
H3215 C3224 0.950 . S
H3216 C3226 0.950 . S
H3217 C3228 0.950 . S
H3218 C3230 0.950 . S
H3219 C3231 0.950 . S
C3220 H3212 0.950 . S
C3220 C3221 1.386 . S
C3220 C3222 1.391 . S
C3221 C3220 1.386 . S
C3221 C3225 1.393 . S
C3222 H3214 0.950 . S
C3222 C3220 1.391 . S
C3222 C3223 1.400 . S
C3223 C3222 1.400 . S
C3223 C3224 1.398 . S
C3223 C3229 1.491 . S
C3224 H3215 0.950 . S
C3224 C3223 1.398 . S
C3224 C3225 1.391 . S
C3225 H3213 0.950 . S
C3225 C3221 1.393 . S
C3225 C3224 1.391 . S
C3226 H3216 0.950 . S
C3226 C3227 1.386 . S
C3226 C3228 1.391 . S
C3227 C3226 1.386 . S
C3227 C3231 1.393 . S
C3228 H3217 0.950 . S
C3228 C3226 1.391 . S
C3228 C3229 1.400 . S
C3229 C3223 1.491 . S
C3229 C3228 1.400 . S
C3229 C3230 1.398 . S
C3230 H3218 0.950 . S
C3230 C3229 1.398 . S
C3230 C3231 1.391 . S
C3231 H3219 0.950 . S
C3231 C3227 1.393 . S
C3231 C3230 1.391 . S
H3232 C3240 0.950 . S
H3233 C3245 0.950 . S
H3234 C3242 0.950 . S
H3235 C3244 0.950 . S
H3236 C3246 0.950 . S
H3237 C3248 0.950 . S
H3238 C3250 0.950 . S
H3239 C3251 0.950 . S
C3240 H3232 0.950 . S
C3240 C3241 1.386 . S
C3240 C3242 1.391 . S
C3241 C3240 1.386 . S
C3241 C3245 1.393 . S
C3242 H3234 0.950 . S
C3242 C3240 1.391 . S
C3242 C3243 1.400 . S
C3243 C3242 1.400 . S
C3243 C3244 1.398 . S
C3243 C3249 1.491 . S
C3244 H3235 0.950 . S
C3244 C3243 1.398 . S
C3244 C3245 1.391 . S
C3245 H3233 0.950 . S
C3245 C3241 1.393 . S
C3245 C3244 1.391 . S
C3246 H3236 0.950 . S
C3246 C3247 1.386 . S
C3246 C3248 1.391 . S
C3247 C3246 1.386 . S
C3247 C3251 1.393 . S
C3248 H3237 0.950 . S
C3248 C3246 1.391 . S
C3248 C3249 1.400 . S
C3249 C3243 1.491 . S
C3249 C3248 1.400 . S
C3249 C3250 1.398 . S
C3250 H3238 0.950 . S
C3250 C3249 1.398 . S
C3250 C3251 1.391 . S
C3251 H3239 0.950 . S
C3251 C3247 1.393 . S
C3251 C3250 1.391 . S
H3252 C3260 0.950 . S
H3253 C3265 0.950 . S
H3254 C3262 0.950 . S
H3255 C3264 0.950 . S
H3256 C3266 0.950 . S
H3257 C3268 0.950 . S
H3258 C3270 0.950 . S
H3259 C3271 0.950 . S
C3260 H3252 0.950 . S
C3260 C3261 1.386 . S
C3260 C3262 1.391 . S
C3261 C3260 1.386 . S
C3261 C3265 1.393 . S
C3262 H3254 0.950 . S
C3262 C3260 1.391 . S
C3262 C3263 1.400 . S
C3263 C3262 1.400 . S
C3263 C3264 1.398 . S
C3263 C3269 1.491 . S
C3264 H3255 0.950 . S
C3264 C3263 1.398 . S
C3264 C3265 1.391 . S
C3265 H3253 0.950 . S
C3265 C3261 1.393 . S
C3265 C3264 1.391 . S
C3266 H3256 0.950 . S
C3266 C3267 1.386 . S
C3266 C3268 1.391 . S
C3267 C3266 1.386 . S
C3267 C3271 1.393 . S
C3268 H3257 0.950 . S
C3268 C3266 1.391 . S
C3268 C3269 1.400 . S
C3269 C3263 1.491 . S
C3269 C3268 1.400 . S
C3269 C3270 1.398 . S
C3270 H3258 0.950 . S
C3270 C3269 1.398 . S
C3270 C3271 1.391 . S
C3271 H3259 0.950 . S
C3271 C3267 1.393 . S
C3271 C3270 1.391 . S
H3272 C3280 0.950 . S
H3273 C3285 0.950 . S
H3274 C3282 0.950 . S
H3275 C3284 0.950 . S
H3276 C3286 0.950 . S
H3277 C3288 0.950 . S
H3278 C3290 0.950 . S
H3279 C3291 0.950 . S
C3280 H3272 0.950 . S
C3280 C3281 1.386 . S
C3280 C3282 1.391 . S
C3281 C3280 1.386 . S
C3281 C3285 1.393 . S
C3282 H3274 0.950 . S
C3282 C3280 1.391 . S
C3282 C3283 1.400 . S
C3283 C3282 1.400 . S
C3283 C3284 1.398 . S
C3283 C3289 1.491 . S
C3284 H3275 0.950 . S
C3284 C3283 1.398 . S
C3284 C3285 1.391 . S
C3285 H3273 0.950 . S
C3285 C3281 1.393 . S
C3285 C3284 1.391 . S
C3286 H3276 0.950 . S
C3286 C3287 1.386 . S
C3286 C3288 1.391 . S
C3287 C3286 1.386 . S
C3287 C3291 1.393 . S
C3288 H3277 0.950 . S
C3288 C3286 1.391 . S
C3288 C3289 1.400 . S
C3289 C3283 1.491 . S
C3289 C3288 1.400 . S
C3289 C3290 1.398 . S
C3290 H3278 0.950 . S
C3290 C3289 1.398 . S
C3290 C3291 1.391 . S
C3291 H3279 0.950 . S
C3291 C3287 1.393 . S
C3291 C3290 1.391 . S
H3292 C3300 0.950 . S
H3293 C3305 0.950 . S
H3294 C3302 0.950 . S
H3295 C3304 0.950 . S
H3296 C3306 0.950 . S
H3297 C3308 0.950 . S
H3298 C3310 0.950 . S
H3299 C3311 0.950 . S
C3300 H3292 0.950 . S
C3300 C3301 1.386 . S
C3300 C3302 1.391 . S
C3301 C3300 1.386 . S
C3301 C3305 1.393 . S
C3302 H3294 0.950 . S
C3302 C3300 1.391 . S
C3302 C3303 1.400 . S
C3303 C3302 1.400 . S
C3303 C3304 1.398 . S
C3303 C3309 1.491 . S
C3304 H3295 0.950 . S
C3304 C3303 1.398 . S
C3304 C3305 1.391 . S
C3305 H3293 0.950 . S
C3305 C3301 1.393 . S
C3305 C3304 1.391 . S
C3306 H3296 0.950 . S
C3306 C3307 1.386 . S
C3306 C3308 1.391 . S
C3307 C3306 1.386 . S
C3307 C3311 1.393 . S
C3308 H3297 0.950 . S
C3308 C3306 1.391 . S
C3308 C3309 1.400 . S
C3309 C3303 1.491 . S
C3309 C3308 1.400 . S
C3309 C3310 1.398 . S
C3310 H3298 0.950 . S
C3310 C3309 1.398 . S
C3310 C3311 1.391 . S
C3311 H3299 0.950 . S
C3311 C3307 1.393 . S
C3311 C3310 1.391 . S
H3312 C3320 0.950 . S
H3313 C3325 0.950 1_655 S
H3314 C3322 0.950 . S
H3315 C3324 0.950 1_655 S
H3316 C3326 0.950 1_655 S
H3317 C3328 0.950 1_655 S
H3318 C3330 0.950 . S
H3319 C3331 0.950 . S
C3320 H3312 0.950 . S
C3320 C3321 1.386 . S
C3320 C3322 1.391 . S
C3321 C3320 1.386 . S
C3321 C3325 1.393 . S
C3322 H3314 0.950 . S
C3322 C3320 1.391 . S
C3322 C3323 1.400 . S
C3323 C3322 1.400 . S
C3323 C3324 1.398 . S
C3323 C3329 1.491 . S
C3324 H3315 0.950 1_455 S
C3324 C3323 1.398 . S
C3324 C3325 1.391 . S
C3325 H3313 0.950 1_455 S
C3325 C3321 1.393 . S
C3325 C3324 1.391 . S
C3326 H3316 0.950 1_455 S
C3326 C3327 1.386 . S
C3326 C3328 1.391 . S
C3327 C3326 1.386 . S
C3327 C3331 1.393 . S
C3328 H3317 0.950 1_455 S
C3328 C3326 1.391 . S
C3328 C3329 1.400 . S
C3329 C3323 1.491 . S
C3329 C3328 1.400 . S
C3329 C3330 1.398 . S
C3330 H3318 0.950 . S
C3330 C3329 1.398 . S
C3330 C3331 1.391 . S
C3331 H3319 0.950 . S
C3331 C3327 1.393 . S
C3331 C3330 1.391 . S
H3332 C3340 0.950 . S
H3333 C3345 0.950 . S
H3334 C3342 0.950 . S
H3335 C3344 0.950 . S
H3336 C3346 0.950 . S
H3337 C3348 0.950 . S
H3338 C3350 0.950 . S
H3339 C3351 0.950 . S
C3340 H3332 0.950 . S
C3340 C3341 1.386 . S
C3340 C3342 1.391 . S
C3341 C3340 1.386 . S
C3341 C3345 1.393 . S
C3342 H3334 0.950 . S
C3342 C3340 1.391 . S
C3342 C3343 1.400 . S
C3343 C3342 1.400 . S
C3343 C3344 1.398 . S
C3343 C3349 1.491 . S
C3344 H3335 0.950 . S
C3344 C3343 1.398 . S
C3344 C3345 1.391 . S
C3345 H3333 0.950 . S
C3345 C3341 1.393 . S
C3345 C3344 1.391 . S
C3346 H3336 0.950 . S
C3346 C3347 1.386 . S
C3346 C3348 1.391 . S
C3347 C3346 1.386 . S
C3347 C3351 1.393 . S
C3348 H3337 0.950 . S
C3348 C3346 1.391 . S
C3348 C3349 1.400 . S
C3349 C3343 1.491 . S
C3349 C3348 1.400 . S
C3349 C3350 1.398 . S
C3350 H3338 0.950 . S
C3350 C3349 1.398 . S
C3350 C3351 1.391 . S
C3351 H3339 0.950 . S
C3351 C3347 1.393 . S
C3351 C3350 1.391 . S
H3352 C3360 0.950 . S
H3353 C3365 0.950 . S
H3354 C3362 0.950 . S
H3355 C3364 0.950 . S
H3356 C3366 0.950 . S
H3357 C3368 0.950 . S
H3358 C3370 0.950 . S
H3359 C3371 0.950 . S
C3360 H3352 0.950 . S
C3360 C3361 1.386 . S
C3360 C3362 1.391 . S
C3361 C3360 1.386 . S
C3361 C3365 1.393 . S
C3362 H3354 0.950 . S
C3362 C3360 1.391 . S
C3362 C3363 1.400 . S
C3363 C3362 1.400 . S
C3363 C3364 1.398 . S
C3363 C3369 1.491 . S
C3364 H3355 0.950 . S
C3364 C3363 1.398 . S
C3364 C3365 1.391 . S
C3365 H3353 0.950 . S
C3365 C3361 1.393 . S
C3365 C3364 1.391 . S
C3366 H3356 0.950 . S
C3366 C3367 1.386 . S
C3366 C3368 1.391 . S
C3367 C3366 1.386 . S
C3367 C3371 1.393 . S
C3368 H3357 0.950 . S
C3368 C3366 1.391 . S
C3368 C3369 1.400 . S
C3369 C3363 1.491 . S
C3369 C3368 1.400 . S
C3369 C3370 1.398 . S
C3370 H3358 0.950 . S
C3370 C3369 1.398 . S
C3370 C3371 1.391 . S
C3371 H3359 0.950 . S
C3371 C3367 1.393 . S
C3371 C3370 1.391 . S
H3372 C3380 0.950 . S
H3373 C3385 0.950 . S
H3374 C3382 0.950 . S
H3375 C3384 0.950 . S
H3376 C3386 0.950 . S
H3377 C3388 0.950 . S
H3378 C3390 0.950 . S
H3379 C3391 0.950 . S
C3380 H3372 0.950 . S
C3380 C3381 1.386 . S
C3380 C3382 1.391 . S
C3381 C3380 1.386 . S
C3381 C3385 1.393 . S
C3382 H3374 0.950 . S
C3382 C3380 1.391 . S
C3382 C3383 1.400 . S
C3383 C3382 1.400 . S
C3383 C3384 1.398 . S
C3383 C3389 1.491 . S
C3384 H3375 0.950 . S
C3384 C3383 1.398 . S
C3384 C3385 1.391 . S
C3385 H3373 0.950 . S
C3385 C3381 1.393 . S
C3385 C3384 1.391 . S
C3386 H3376 0.950 . S
C3386 C3387 1.386 . S
C3386 C3388 1.391 . S
C3387 C3386 1.386 . S
C3387 C3391 1.393 . S
C3388 H3377 0.950 . S
C3388 C3386 1.391 . S
C3388 C3389 1.400 . S
C3389 C3383 1.491 . S
C3389 C3388 1.400 . S
C3389 C3390 1.398 . S
C3390 H3378 0.950 . S
C3390 C3389 1.398 . S
C3390 C3391 1.391 . S
C3391 H3379 0.950 . S
C3391 C3387 1.393 . S
C3391 C3390 1.391 . S
H3392 C3400 0.950 . S
H3393 C3405 0.950 . S
H3394 C3402 0.950 . S
H3395 C3404 0.942 1_565 S
H3396 C3406 0.950 1_565 S
H3397 C3408 0.950 1_565 S
H3398 C3410 0.950 . S
H3399 C3411 0.950 . S
C3400 H3392 0.950 . S
C3400 C3401 1.386 . S
C3400 C3402 1.391 . S
C3401 C3400 1.386 . S
C3401 C3405 1.393 . S
C3402 H3394 0.950 . S
C3402 C3400 1.391 . S
C3402 C3403 1.400 . S
C3403 C3402 1.400 . S
C3403 C3404 1.398 . S
C3403 C3409 1.491 . S
C3404 H3395 0.942 1_545 S
C3404 C3403 1.398 . S
C3404 C3405 1.391 . S
C3405 H3393 0.950 . S
C3405 C3401 1.393 . S
C3405 C3404 1.391 . S
C3406 H3396 0.950 1_545 S
C3406 C3407 1.386 . S
C3406 C3408 1.391 . S
C3407 C3406 1.386 . S
C3407 C3411 1.393 . S
C3408 H3397 0.950 1_545 S
C3408 C3406 1.391 . S
C3408 C3409 1.400 . S
C3409 C3403 1.491 . S
C3409 C3408 1.400 . S
C3409 C3410 1.398 . S
C3410 H3398 0.950 . S
C3410 C3409 1.398 . S
C3410 C3411 1.391 . S
C3411 H3399 0.950 . S
C3411 C3407 1.393 . S
C3411 C3410 1.391 . S
H3412 C3420 0.950 . S
H3413 C3425 0.950 . S
H3414 C3422 0.950 . S
H3415 C3424 0.950 . S
H3416 C3426 0.950 . S
H3417 C3428 0.950 . S
H3418 C3430 0.950 . S
H3419 C3431 0.950 . S
C3420 H3412 0.950 . S
C3420 C3421 1.386 . S
C3420 C3422 1.391 . S
C3421 C3420 1.386 . S
C3421 C3425 1.393 . S
C3422 H3414 0.950 . S
C3422 C3420 1.391 . S
C3422 C3423 1.400 . S
C3423 C3422 1.400 . S
C3423 C3424 1.398 . S
C3423 C3429 1.491 . S
C3424 H3415 0.950 . S
C3424 C3423 1.398 . S
C3424 C3425 1.391 . S
C3425 H3413 0.950 . S
C3425 C3421 1.393 . S
C3425 C3424 1.391 . S
C3426 H3416 0.950 . S
C3426 C3427 1.386 . S
C3426 C3428 1.391 . S
C3427 C3426 1.386 . S
C3427 C3431 1.393 . S
C3428 H3417 0.950 . S
C3428 C3426 1.391 . S
C3428 C3429 1.400 . S
C3429 C3423 1.491 . S
C3429 C3428 1.400 . S
C3429 C3430 1.398 . S
C3430 H3418 0.950 . S
C3430 C3429 1.398 . S
C3430 C3431 1.391 . S
C3431 H3419 0.950 . S
C3431 C3427 1.393 . S
C3431 C3430 1.391 . S
H3432 C3440 0.950 . S
H3433 C3445 0.950 . S
H3434 C3442 0.950 . S
H3435 C3444 0.950 . S
H3436 C3446 0.950 . S
H3437 C3448 0.950 . S
H3438 C3450 0.950 . S
H3439 C3451 0.950 . S
C3440 H3432 0.950 . S
C3440 C3441 1.386 . S
C3440 C3442 1.391 . S
C3441 C3440 1.386 . S
C3441 C3445 1.393 . S
C3442 H3434 0.950 . S
C3442 C3440 1.391 . S
C3442 C3443 1.400 . S
C3443 C3442 1.400 . S
C3443 C3444 1.398 . S
C3443 C3449 1.491 . S
C3444 H3435 0.950 . S
C3444 C3443 1.398 . S
C3444 C3445 1.391 . S
C3445 H3433 0.950 . S
C3445 C3441 1.393 . S
C3445 C3444 1.391 . S
C3446 H3436 0.950 . S
C3446 C3447 1.386 . S
C3446 C3448 1.391 . S
C3447 C3446 1.386 . S
C3447 C3451 1.393 . S
C3448 H3437 0.950 . S
C3448 C3446 1.391 . S
C3448 C3449 1.400 . S
C3449 C3443 1.491 . S
C3449 C3448 1.400 . S
C3449 C3450 1.398 . S
C3450 H3438 0.950 . S
C3450 C3449 1.398 . S
C3450 C3451 1.391 . S
C3451 H3439 0.950 . S
C3451 C3447 1.393 . S
C3451 C3450 1.391 . S
H3452 C3460 0.950 . S
H3453 C3465 0.950 . S
H3454 C3462 0.950 . S
H3455 C3464 0.950 . S
H3456 C3466 0.950 . S
H3457 C3468 0.950 . S
H3458 C3470 0.950 . S
H3459 C3471 0.950 . S
C3460 H3452 0.950 . S
C3460 C3461 1.386 . S
C3460 C3462 1.391 . S
C3461 C3460 1.386 . S
C3461 C3465 1.393 . S
C3462 H3454 0.950 . S
C3462 C3460 1.391 . S
C3462 C3463 1.400 . S
C3463 C3462 1.400 . S
C3463 C3464 1.398 . S
C3463 C3469 1.491 . S
C3464 H3455 0.950 . S
C3464 C3463 1.398 . S
C3464 C3465 1.391 . S
C3465 H3453 0.950 . S
C3465 C3461 1.393 . S
C3465 C3464 1.391 . S
C3466 H3456 0.950 . S
C3466 C3467 1.386 . S
C3466 C3468 1.391 . S
C3467 C3466 1.386 . S
C3467 C3471 1.393 . S
C3468 H3457 0.950 . S
C3468 C3466 1.391 . S
C3468 C3469 1.400 . S
C3469 C3463 1.491 . S
C3469 C3468 1.400 . S
C3469 C3470 1.398 . S
C3470 H3458 0.950 . S
C3470 C3469 1.398 . S
C3470 C3471 1.391 . S
C3471 H3459 0.950 . S
C3471 C3467 1.393 . S
C3471 C3470 1.391 . S
H3472 C3480 0.950 . S
H3473 C3485 0.950 . S
H3474 C3482 0.950 . S
H3475 C3484 0.950 . S
H3476 C3486 0.950 . S
H3477 C3488 0.950 . S
H3478 C3490 0.950 . S
H3479 C3491 0.950 . S
C3480 H3472 0.950 . S
C3480 C3481 1.386 . S
C3480 C3482 1.391 . S
C3481 C3480 1.386 . S
C3481 C3485 1.393 . S
C3482 H3474 0.950 . S
C3482 C3480 1.391 . S
C3482 C3483 1.400 . S
C3483 C3482 1.400 . S
C3483 C3484 1.398 . S
C3483 C3489 1.491 . S
C3484 H3475 0.950 . S
C3484 C3483 1.398 . S
C3484 C3485 1.391 . S
C3485 H3473 0.950 . S
C3485 C3481 1.393 . S
C3485 C3484 1.391 . S
C3486 H3476 0.950 . S
C3486 C3487 1.386 . S
C3486 C3488 1.391 . S
C3487 C3486 1.386 . S
C3487 C3491 1.393 . S
C3488 H3477 0.950 . S
C3488 C3486 1.391 . S
C3488 C3489 1.400 . S
C3489 C3483 1.491 . S
C3489 C3488 1.400 . S
C3489 C3490 1.398 . S
C3490 H3478 0.950 . S
C3490 C3489 1.398 . S
C3490 C3491 1.391 . S
C3491 H3479 0.950 . S
C3491 C3487 1.393 . S
C3491 C3490 1.391 . S
H3492 C3500 0.950 . S
H3493 C3505 0.950 . S
H3494 C3502 0.950 . S
H3495 C3504 0.950 . S
H3496 C3506 0.950 . S
H3497 C3508 0.950 . S
H3498 C3510 0.950 . S
H3499 C3511 0.950 . S
C3500 H3492 0.950 . S
C3500 C3501 1.386 . S
C3500 C3502 1.391 . S
C3501 C3500 1.386 . S
C3501 C3505 1.393 . S
C3502 H3494 0.950 . S
C3502 C3500 1.391 . S
C3502 C3503 1.400 . S
C3503 C3502 1.400 . S
C3503 C3504 1.398 . S
C3503 C3509 1.491 . S
C3504 H3495 0.950 . S
C3504 C3503 1.398 . S
C3504 C3505 1.391 . S
C3505 H3493 0.950 . S
C3505 C3501 1.393 . S
C3505 C3504 1.391 . S
C3506 H3496 0.950 . S
C3506 C3507 1.386 . S
C3506 C3508 1.391 . S
C3507 C3506 1.386 . S
C3507 C3511 1.393 . S
C3508 H3497 0.950 . S
C3508 C3506 1.391 . S
C3508 C3509 1.400 . S
C3509 C3503 1.491 . S
C3509 C3508 1.400 . S
C3509 C3510 1.398 . S
C3510 H3498 0.950 . S
C3510 C3509 1.398 . S
C3510 C3511 1.391 . S
C3511 H3499 0.950 . S
C3511 C3507 1.393 . S
C3511 C3510 1.391 . S
H3512 C3520 0.950 . S
H3513 C3525 0.950 . S
H3514 C3522 0.950 . S
H3515 C3524 0.950 . S
H3516 C3526 0.950 1_565 S
H3517 C3528 0.950 1_565 S
H3518 C3530 0.950 . S
H3519 C3531 0.950 . S
C3520 H3512 0.950 . S
C3520 C3521 1.386 . S
C3520 C3522 1.391 . S
C3521 C3520 1.386 . S
C3521 C3525 1.393 . S
C3522 H3514 0.950 . S
C3522 C3520 1.391 . S
C3522 C3523 1.400 . S
C3523 C3522 1.400 . S
C3523 C3524 1.398 . S
C3523 C3529 1.491 . S
C3524 H3515 0.950 . S
C3524 C3523 1.398 . S
C3524 C3525 1.391 . S
C3525 H3513 0.950 . S
C3525 C3521 1.393 . S
C3525 C3524 1.391 . S
C3526 H3516 0.950 1_545 S
C3526 C3527 1.386 . S
C3526 C3528 1.391 . S
C3527 C3526 1.386 . S
C3527 C3531 1.393 . S
C3528 H3517 0.950 1_545 S
C3528 C3526 1.391 . S
C3528 C3529 1.400 . S
C3529 C3523 1.491 . S
C3529 C3528 1.400 . S
C3529 C3530 1.398 . S
C3530 H3518 0.950 . S
C3530 C3529 1.398 . S
C3530 C3531 1.391 . S
C3531 H3519 0.950 . S
C3531 C3527 1.393 . S
C3531 C3530 1.391 . S
H3532 C3540 0.950 . S
H3533 C3545 0.950 . S
H3534 C3542 0.950 . S
H3535 C3544 0.950 . S
H3536 C3546 0.950 . S
H3537 C3548 0.950 . S
H3538 C3550 0.950 . S
H3539 C3551 0.950 . S
C3540 H3532 0.950 . S
C3540 C3541 1.386 . S
C3540 C3542 1.391 . S
C3541 C3540 1.386 . S
C3541 C3545 1.393 . S
C3542 H3534 0.950 . S
C3542 C3540 1.391 . S
C3542 C3543 1.400 . S
C3543 C3542 1.400 . S
C3543 C3544 1.398 . S
C3543 C3549 1.491 . S
C3544 H3535 0.950 . S
C3544 C3543 1.398 . S
C3544 C3545 1.391 . S
C3545 H3533 0.950 . S
C3545 C3541 1.393 . S
C3545 C3544 1.391 . S
C3546 H3536 0.950 . S
C3546 C3547 1.386 . S
C3546 C3548 1.391 . S
C3547 C3546 1.386 . S
C3547 C3551 1.393 . S
C3548 H3537 0.950 . S
C3548 C3546 1.391 . S
C3548 C3549 1.400 . S
C3549 C3543 1.491 . S
C3549 C3548 1.400 . S
C3549 C3550 1.398 . S
C3550 H3538 0.950 . S
C3550 C3549 1.398 . S
C3550 C3551 1.391 . S
C3551 H3539 0.950 . S
C3551 C3547 1.393 . S
C3551 C3550 1.391 . S
H3552 C3560 0.950 . S
H3553 C3565 0.950 . S
H3554 C3562 0.950 . S
H3555 C3564 0.950 . S
H3556 C3566 0.950 . S
H3557 C3568 0.950 1_556 S
H3558 C3570 0.950 . S
H3559 C3571 0.950 . S
C3560 H3552 0.950 . S
C3560 C3561 1.386 . S
C3560 C3562 1.391 . S
C3561 C3560 1.386 . S
C3561 C3565 1.393 . S
C3562 H3554 0.950 . S
C3562 C3560 1.391 . S
C3562 C3563 1.400 . S
C3563 C3562 1.400 . S
C3563 C3564 1.398 . S
C3563 C3569 1.491 . S
C3564 H3555 0.950 . S
C3564 C3563 1.398 . S
C3564 C3565 1.391 . S
C3565 H3553 0.950 . S
C3565 C3561 1.393 . S
C3565 C3564 1.391 . S
C3566 H3556 0.950 . S
C3566 C3567 1.374 1_556 S
C3566 C3568 1.392 1_556 S
C3567 C3566 1.374 1_554 S
C3567 C3571 1.417 . S
C3568 H3557 0.950 1_554 S
C3568 C3566 1.392 1_554 S
C3568 C3569 1.399 . S
C3569 C3563 1.491 . S
C3569 C3568 1.399 . S
C3569 C3570 1.398 . S
C3570 H3558 0.950 . S
C3570 C3569 1.398 . S
C3570 C3571 1.391 . S
C3571 H3559 0.950 . S
C3571 C3567 1.417 . S
C3571 C3570 1.391 . S
H3572 C3580 0.950 . S
H3573 C3585 0.950 . S
H3574 C3582 0.950 . S
H3575 C3584 0.950 . S
H3576 C3586 0.950 . S
H3577 C3588 0.950 . S
H3578 C3590 0.950 . S
H3579 C3591 0.950 . S
C3580 H3572 0.950 . S
C3580 C3581 1.386 . S
C3580 C3582 1.391 . S
C3581 C3580 1.386 . S
C3581 C3585 1.393 . S
C3582 H3574 0.950 . S
C3582 C3580 1.391 . S
C3582 C3583 1.400 . S
C3583 C3582 1.400 . S
C3583 C3584 1.398 . S
C3583 C3589 1.491 . S
C3584 H3575 0.950 . S
C3584 C3583 1.398 . S
C3584 C3585 1.391 . S
C3585 H3573 0.950 . S
C3585 C3581 1.393 . S
C3585 C3584 1.391 . S
C3586 H3576 0.950 . S
C3586 C3587 1.386 . S
C3586 C3588 1.391 . S
C3587 C3586 1.386 . S
C3587 C3591 1.393 . S
C3588 H3577 0.950 . S
C3588 C3586 1.391 . S
C3588 C3589 1.400 . S
C3589 C3583 1.491 . S
C3589 C3588 1.400 . S
C3589 C3590 1.398 . S
C3590 H3578 0.950 . S
C3590 C3589 1.398 . S
C3590 C3591 1.391 . S
C3591 H3579 0.950 . S
C3591 C3587 1.393 . S
C3591 C3590 1.391 . S
H3592 C3600 0.950 . S
H3593 C3605 0.950 . S
H3594 C3602 0.950 . S
H3595 C3604 0.950 . S
H3596 C3606 0.950 . S
H3597 C3608 0.950 . S
H3598 C3610 0.950 . S
H3599 C3611 0.950 . S
C3600 H3592 0.950 . S
C3600 C3601 1.386 . S
C3600 C3602 1.391 . S
C3601 C3600 1.386 . S
C3601 C3605 1.393 . S
C3602 H3594 0.950 . S
C3602 C3600 1.391 . S
C3602 C3603 1.400 . S
C3603 C3602 1.400 . S
C3603 C3604 1.398 . S
C3603 C3609 1.491 . S
C3604 H3595 0.950 . S
C3604 C3603 1.398 . S
C3604 C3605 1.391 . S
C3605 H3593 0.950 . S
C3605 C3601 1.393 . S
C3605 C3604 1.391 . S
C3606 H3596 0.950 . S
C3606 C3607 1.386 . S
C3606 C3608 1.391 . S
C3607 C3606 1.386 . S
C3607 C3611 1.393 . S
C3608 H3597 0.950 . S
C3608 C3606 1.391 . S
C3608 C3609 1.400 . S
C3609 C3603 1.491 . S
C3609 C3608 1.400 . S
C3609 C3610 1.398 . S
C3610 H3598 0.950 . S
C3610 C3609 1.398 . S
C3610 C3611 1.391 . S
C3611 H3599 0.950 . S
C3611 C3607 1.393 . S
C3611 C3610 1.391 . S
H3612 C3620 0.950 . S
H3613 C3625 0.950 . S
H3614 C3622 0.950 . S
H3615 C3624 0.950 . S
H3616 C3626 0.950 . S
H3617 C3628 0.950 . S
H3618 C3630 0.950 . S
H3619 C3631 0.950 . S
C3620 H3612 0.950 . S
C3620 C3621 1.386 . S
C3620 C3622 1.391 . S
C3621 C3620 1.386 . S
C3621 C3625 1.393 . S
C3622 H3614 0.950 . S
C3622 C3620 1.391 . S
C3622 C3623 1.400 . S
C3623 C3622 1.400 . S
C3623 C3624 1.398 . S
C3623 C3629 1.491 . S
C3624 H3615 0.950 . S
C3624 C3623 1.398 . S
C3624 C3625 1.391 . S
C3625 H3613 0.950 . S
C3625 C3621 1.393 . S
C3625 C3624 1.391 . S
C3626 H3616 0.950 . S
C3626 C3627 1.386 . S
C3626 C3628 1.391 . S
C3627 C3626 1.386 . S
C3627 C3631 1.393 . S
C3628 H3617 0.950 . S
C3628 C3626 1.391 . S
C3628 C3629 1.400 . S
C3629 C3623 1.491 . S
C3629 C3628 1.400 . S
C3629 C3630 1.398 . S
C3630 H3618 0.950 . S
C3630 C3629 1.398 . S
C3630 C3631 1.391 . S
C3631 H3619 0.950 . S
C3631 C3627 1.393 . S
C3631 C3630 1.391 . S
H3632 C3640 0.950 . S
H3633 C3645 0.950 . S
H3634 C3642 0.950 . S
H3635 C3644 0.950 . S
H3636 C3646 0.950 . S
H3637 C3648 0.950 . S
H3638 C3650 0.950 . S
H3639 C3651 0.950 . S
C3640 H3632 0.950 . S
C3640 C3641 1.386 . S
C3640 C3642 1.391 . S
C3641 C3640 1.386 . S
C3641 C3645 1.393 . S
C3642 H3634 0.950 . S
C3642 C3640 1.391 . S
C3642 C3643 1.400 . S
C3643 C3642 1.400 . S
C3643 C3644 1.398 . S
C3643 C3649 1.491 . S
C3644 H3635 0.950 . S
C3644 C3643 1.398 . S
C3644 C3645 1.391 . S
C3645 H3633 0.950 . S
C3645 C3641 1.393 . S
C3645 C3644 1.391 . S
C3646 H3636 0.950 . S
C3646 C3647 1.386 . S
C3646 C3648 1.391 . S
C3647 C3646 1.386 . S
C3647 C3651 1.393 . S
C3648 H3637 0.950 . S
C3648 C3646 1.391 . S
C3648 C3649 1.400 . S
C3649 C3643 1.491 . S
C3649 C3648 1.400 . S
C3649 C3650 1.398 . S
C3650 H3638 0.950 . S
C3650 C3649 1.398 . S
C3650 C3651 1.391 . S
C3651 H3639 0.950 . S
C3651 C3647 1.393 . S
C3651 C3650 1.391 . S
H3652 C3660 0.950 . S
H3653 C3665 0.950 . S
H3654 C3662 0.950 . S
H3655 C3664 0.950 . S
H3656 C3666 0.950 . S
H3657 C3668 0.950 . S
H3658 C3670 0.950 . S
H3659 C3671 0.950 . S
C3660 H3652 0.950 . S
C3660 C3661 1.386 . S
C3660 C3662 1.391 . S
C3661 C3660 1.386 . S
C3661 C3665 1.393 . S
C3662 H3654 0.950 . S
C3662 C3660 1.391 . S
C3662 C3663 1.400 . S
C3663 C3662 1.400 . S
C3663 C3664 1.398 . S
C3663 C3669 1.491 . S
C3664 H3655 0.950 . S
C3664 C3663 1.398 . S
C3664 C3665 1.391 . S
C3665 H3653 0.950 . S
C3665 C3661 1.393 . S
C3665 C3664 1.391 . S
C3666 H3656 0.950 . S
C3666 C3667 1.386 . S
C3666 C3668 1.391 . S
C3667 C3666 1.386 . S
C3667 C3671 1.393 . S
C3668 H3657 0.950 . S
C3668 C3666 1.391 . S
C3668 C3669 1.400 . S
C3669 C3663 1.491 . S
C3669 C3668 1.400 . S
C3669 C3670 1.398 . S
C3670 H3658 0.950 . S
C3670 C3669 1.398 . S
C3670 C3671 1.391 . S
C3671 H3659 0.950 . S
C3671 C3667 1.393 . S
C3671 C3670 1.391 . S
H3672 C3680 0.950 . S
H3673 C3685 0.950 . S
H3674 C3682 0.950 . S
H3675 C3684 0.950 . S
H3676 C3686 0.950 . S
H3677 C3688 0.950 . S
H3678 C3690 0.950 . S
H3679 C3691 0.950 . S
C3680 H3672 0.950 . S
C3680 C3681 1.386 . S
C3680 C3682 1.391 . S
C3681 C3680 1.386 . S
C3681 C3685 1.393 . S
C3682 H3674 0.950 . S
C3682 C3680 1.391 . S
C3682 C3683 1.400 . S
C3683 C3682 1.400 . S
C3683 C3684 1.398 . S
C3683 C3689 1.491 . S
C3684 H3675 0.950 . S
C3684 C3683 1.398 . S
C3684 C3685 1.391 . S
C3685 H3673 0.950 . S
C3685 C3681 1.393 . S
C3685 C3684 1.391 . S
C3686 H3676 0.950 . S
C3686 C3687 1.386 . S
C3686 C3688 1.391 . S
C3687 C3686 1.386 . S
C3687 C3691 1.393 . S
C3688 H3677 0.950 . S
C3688 C3686 1.391 . S
C3688 C3689 1.400 . S
C3689 C3683 1.491 . S
C3689 C3688 1.400 . S
C3689 C3690 1.398 . S
C3690 H3678 0.950 . S
C3690 C3689 1.398 . S
C3690 C3691 1.391 . S
C3691 H3679 0.950 . S
C3691 C3687 1.393 . S
C3691 C3690 1.391 . S
H3692 C3700 0.950 . S
H3693 C3705 0.950 . S
H3694 C3702 0.950 . S
H3695 C3704 0.950 . S
H3696 C3706 0.950 . S
H3697 C3708 0.950 . S
H3698 C3710 0.950 . S
H3699 C3711 0.950 . S
C3700 H3692 0.950 . S
C3700 C3701 1.386 . S
C3700 C3702 1.391 . S
C3701 C3700 1.386 . S
C3701 C3705 1.393 . S
C3702 H3694 0.950 . S
C3702 C3700 1.391 . S
C3702 C3703 1.400 . S
C3703 C3702 1.400 . S
C3703 C3704 1.398 . S
C3703 C3709 1.491 . S
C3704 H3695 0.950 . S
C3704 C3703 1.398 . S
C3704 C3705 1.391 . S
C3705 H3693 0.950 . S
C3705 C3701 1.393 . S
C3705 C3704 1.391 . S
C3706 H3696 0.950 . S
C3706 C3707 1.386 . S
C3706 C3708 1.391 . S
C3707 C3706 1.386 . S
C3707 C3711 1.393 . S
C3708 H3697 0.950 . S
C3708 C3706 1.391 . S
C3708 C3709 1.400 . S
C3709 C3703 1.491 . S
C3709 C3708 1.400 . S
C3709 C3710 1.398 . S
C3710 H3698 0.950 . S
C3710 C3709 1.398 . S
C3710 C3711 1.391 . S
C3711 H3699 0.950 . S
C3711 C3707 1.393 . S
C3711 C3710 1.391 . S
H3712 C3720 0.950 . S
H3713 C3725 0.950 . S
H3714 C3722 0.950 . S
H3715 C3724 0.950 . S
H3716 C3726 0.950 . S
H3717 C3728 0.950 . S
H3718 C3730 0.950 . S
H3719 C3731 0.950 . S
C3720 H3712 0.950 . S
C3720 C3721 1.386 . S
C3720 C3722 1.391 . S
C3721 C3720 1.386 . S
C3721 C3725 1.393 . S
C3722 H3714 0.950 . S
C3722 C3720 1.391 . S
C3722 C3723 1.400 . S
C3723 C3722 1.400 . S
C3723 C3724 1.398 . S
C3723 C3729 1.491 . S
C3724 H3715 0.950 . S
C3724 C3723 1.398 . S
C3724 C3725 1.391 . S
C3725 H3713 0.950 . S
C3725 C3721 1.393 . S
C3725 C3724 1.391 . S
C3726 H3716 0.950 . S
C3726 C3727 1.386 . S
C3726 C3728 1.391 . S
C3727 C3726 1.386 . S
C3727 C3731 1.393 . S
C3728 H3717 0.950 . S
C3728 C3726 1.391 . S
C3728 C3729 1.400 . S
C3729 C3723 1.491 . S
C3729 C3728 1.400 . S
C3729 C3730 1.398 . S
C3730 H3718 0.950 . S
C3730 C3729 1.398 . S
C3730 C3731 1.391 . S
C3731 H3719 0.950 . S
C3731 C3727 1.393 . S
C3731 C3730 1.391 . S
H3732 C3740 0.950 . S
H3733 C3745 0.950 . S
H3734 C3742 0.950 . S
H3735 C3744 0.950 . S
H3736 C3746 0.950 . S
H3737 C3748 0.950 . S
H3738 C3750 0.950 . S
H3739 C3751 0.950 . S
C3740 H3732 0.950 . S
C3740 C3741 1.386 . S
C3740 C3742 1.391 . S
C3741 C3740 1.386 . S
C3741 C3745 1.393 . S
C3742 H3734 0.950 . S
C3742 C3740 1.391 . S
C3742 C3743 1.400 . S
C3743 C3742 1.400 . S
C3743 C3744 1.398 . S
C3743 C3749 1.491 . S
C3744 H3735 0.950 . S
C3744 C3743 1.398 . S
C3744 C3745 1.391 . S
C3745 H3733 0.950 . S
C3745 C3741 1.393 . S
C3745 C3744 1.391 . S
C3746 H3736 0.950 . S
C3746 C3747 1.386 . S
C3746 C3748 1.391 . S
C3747 C3746 1.386 . S
C3747 C3751 1.393 . S
C3748 H3737 0.950 . S
C3748 C3746 1.391 . S
C3748 C3749 1.400 . S
C3749 C3743 1.491 . S
C3749 C3748 1.400 . S
C3749 C3750 1.398 . S
C3750 H3738 0.950 . S
C3750 C3749 1.398 . S
C3750 C3751 1.391 . S
C3751 H3739 0.950 . S
C3751 C3747 1.393 . S
C3751 C3750 1.391 . S
H3752 C3760 0.950 . S
H3753 C3765 0.950 1_655 S
H3754 C3762 0.933 1_554 S
H3755 C3764 0.950 1_655 S
H3756 C3766 0.936 1_655 S
H3757 C3768 0.950 1_655 S
H3758 C3770 0.950 . S
H3759 C3771 0.950 . S
C3760 H3752 0.950 . S
C3760 C3761 1.386 . S
C3760 C3762 1.402 . S
C3761 C3760 1.386 . S
C3761 C3765 1.393 . S
C3762 H3754 0.933 1_556 S
C3762 C3760 1.402 . S
C3762 C3763 1.408 . S
C3763 C3762 1.408 . S
C3763 C3764 1.398 . S
C3763 C3769 1.491 1_556 S
C3764 H3755 0.950 1_455 S
C3764 C3763 1.398 . S
C3764 C3765 1.391 . S
C3765 H3753 0.950 1_455 S
C3765 C3761 1.393 . S
C3765 C3764 1.391 . S
C3766 H3756 0.936 1_455 S
C3766 C3767 1.386 . S
C3766 C3768 1.391 1_554 S
C3767 C3766 1.386 . S
C3767 C3771 1.393 . S
C3768 H3757 0.950 1_455 S
C3768 C3766 1.391 1_556 S
C3768 C3769 1.400 1_556 S
C3769 C3763 1.491 1_554 S
C3769 C3768 1.400 1_554 S
C3769 C3770 1.398 . S
C3770 H3758 0.950 . S
C3770 C3769 1.398 . S
C3770 C3771 1.391 . S
C3771 H3759 0.950 . S
C3771 C3767 1.393 . S
C3771 C3770 1.391 . S
H3772 C3780 0.950 . S
H3773 C3785 0.950 . S
H3774 C3782 0.950 . S
H3775 C3784 0.950 . S
H3776 C3786 0.950 . S
H3777 C3788 0.950 . S
H3778 C3790 0.950 . S
H3779 C3791 0.950 . S
C3780 H3772 0.950 . S
C3780 C3781 1.386 . S
C3780 C3782 1.391 . S
C3781 C3780 1.386 . S
C3781 C3785 1.393 . S
C3782 H3774 0.950 . S
C3782 C3780 1.391 . S
C3782 C3783 1.400 . S
C3783 C3782 1.400 . S
C3783 C3784 1.398 . S
C3783 C3789 1.491 . S
C3784 H3775 0.950 . S
C3784 C3783 1.398 . S
C3784 C3785 1.391 . S
C3785 H3773 0.950 . S
C3785 C3781 1.393 . S
C3785 C3784 1.391 . S
C3786 H3776 0.950 . S
C3786 C3787 1.386 . S
C3786 C3788 1.391 . S
C3787 C3786 1.386 . S
C3787 C3791 1.393 . S
C3788 H3777 0.950 . S
C3788 C3786 1.391 . S
C3788 C3789 1.400 . S
C3789 C3783 1.491 . S
C3789 C3788 1.400 . S
C3789 C3790 1.398 . S
C3790 H3778 0.950 . S
C3790 C3789 1.398 . S
C3790 C3791 1.391 . S
C3791 H3779 0.950 . S
C3791 C3787 1.393 . S
C3791 C3790 1.391 . S
H3792 C3800 0.950 . S
H3793 C3805 0.950 . S
H3794 C3802 0.950 . S
H3795 C3804 0.950 . S
H3796 C3806 0.950 . S
H3797 C3808 0.950 . S
H3798 C3810 0.950 . S
H3799 C3811 0.950 . S
C3800 H3792 0.950 . S
C3800 C3801 1.386 . S
C3800 C3802 1.391 . S
C3801 C3800 1.386 . S
C3801 C3805 1.393 . S
C3802 H3794 0.950 . S
C3802 C3800 1.391 . S
C3802 C3803 1.400 . S
C3803 C3802 1.400 . S
C3803 C3804 1.398 . S
C3803 C3809 1.491 . S
C3804 H3795 0.950 . S
C3804 C3803 1.398 . S
C3804 C3805 1.391 . S
C3805 H3793 0.950 . S
C3805 C3801 1.393 . S
C3805 C3804 1.391 . S
C3806 H3796 0.950 . S
C3806 C3807 1.386 . S
C3806 C3808 1.391 . S
C3807 C3806 1.386 . S
C3807 C3811 1.393 . S
C3808 H3797 0.950 . S
C3808 C3806 1.391 . S
C3808 C3809 1.400 . S
C3809 C3803 1.491 . S
C3809 C3808 1.400 . S
C3809 C3810 1.398 . S
C3810 H3798 0.950 . S
C3810 C3809 1.398 . S
C3810 C3811 1.391 . S
C3811 H3799 0.950 . S
C3811 C3807 1.393 . S
C3811 C3810 1.391 . S
H3812 C3820 0.950 . S
H3813 C3825 0.950 . S
H3814 C3822 0.950 . S
H3815 C3824 0.950 . S
H3816 C3826 0.950 . S
H3817 C3828 0.950 . S
H3818 C3830 0.950 . S
H3819 C3831 0.950 . S
C3820 H3812 0.950 . S
C3820 C3821 1.386 . S
C3820 C3822 1.391 . S
C3821 C3820 1.386 . S
C3821 C3825 1.393 . S
C3822 H3814 0.950 . S
C3822 C3820 1.391 . S
C3822 C3823 1.400 . S
C3823 C3822 1.400 . S
C3823 C3824 1.398 . S
C3823 C3829 1.491 . S
C3824 H3815 0.950 . S
C3824 C3823 1.398 . S
C3824 C3825 1.391 . S
C3825 H3813 0.950 . S
C3825 C3821 1.393 . S
C3825 C3824 1.391 . S
C3826 H3816 0.950 . S
C3826 C3827 1.386 . S
C3826 C3828 1.391 . S
C3827 C3826 1.386 . S
C3827 C3831 1.393 . S
C3828 H3817 0.950 . S
C3828 C3826 1.391 . S
C3828 C3829 1.400 . S
C3829 C3823 1.491 . S
C3829 C3828 1.400 . S
C3829 C3830 1.398 . S
C3830 H3818 0.950 . S
C3830 C3829 1.398 . S
C3830 C3831 1.391 . S
C3831 H3819 0.950 . S
C3831 C3827 1.393 . S
C3831 C3830 1.391 . S
H3832 C3840 0.950 . S
H3833 C3845 0.950 . S
H3834 C3842 0.950 . S
H3835 C3844 0.950 . S
H3836 C3846 0.950 . S
H3837 C3848 0.950 . S
H3838 C3850 0.950 . S
H3839 C3851 0.950 . S
C3840 H3832 0.950 . S
C3840 C3841 1.386 . S
C3840 C3842 1.391 . S
C3841 C3840 1.386 . S
C3841 C3845 1.393 . S
C3842 H3834 0.950 . S
C3842 C3840 1.391 . S
C3842 C3843 1.400 . S
C3843 C3842 1.400 . S
C3843 C3844 1.398 . S
C3843 C3849 1.491 . S
C3844 H3835 0.950 . S
C3844 C3843 1.398 . S
C3844 C3845 1.391 . S
C3845 H3833 0.950 . S
C3845 C3841 1.393 . S
C3845 C3844 1.391 . S
C3846 H3836 0.950 . S
C3846 C3847 1.386 . S
C3846 C3848 1.391 . S
C3847 C3846 1.386 . S
C3847 C3851 1.393 . S
C3848 H3837 0.950 . S
C3848 C3846 1.391 . S
C3848 C3849 1.400 . S
C3849 C3843 1.491 . S
C3849 C3848 1.400 . S
C3849 C3850 1.398 . S
C3850 H3838 0.950 . S
C3850 C3849 1.398 . S
C3850 C3851 1.391 . S
C3851 H3839 0.950 . S
C3851 C3847 1.393 . S
C3851 C3850 1.391 . S
H3852 C3860 0.950 . S
H3853 C3865 0.950 . S
H3854 C3862 0.950 . S
H3855 C3864 0.950 . S
H3856 C3866 0.950 . S
H3857 C3868 0.950 . S
H3858 C3870 0.950 . S
H3859 C3871 0.950 . S
C3860 H3852 0.950 . S
C3860 C3861 1.386 . S
C3860 C3862 1.391 . S
C3861 C3860 1.386 . S
C3861 C3865 1.393 . S
C3862 H3854 0.950 . S
C3862 C3860 1.391 . S
C3862 C3863 1.400 . S
C3863 C3862 1.400 . S
C3863 C3864 1.398 . S
C3863 C3869 1.491 . S
C3864 H3855 0.950 . S
C3864 C3863 1.398 . S
C3864 C3865 1.391 . S
C3865 H3853 0.950 . S
C3865 C3861 1.393 . S
C3865 C3864 1.391 . S
C3866 H3856 0.950 . S
C3866 C3867 1.386 . S
C3866 C3868 1.391 . S
C3867 C3866 1.386 . S
C3867 C3871 1.393 . S
C3868 H3857 0.950 . S
C3868 C3866 1.391 . S
C3868 C3869 1.400 . S
C3869 C3863 1.491 . S
C3869 C3868 1.400 . S
C3869 C3870 1.398 . S
C3870 H3858 0.950 . S
C3870 C3869 1.398 . S
C3870 C3871 1.391 . S
C3871 H3859 0.950 . S
C3871 C3867 1.393 . S
C3871 C3870 1.391 . S
H3872 C3880 0.950 . S
H3873 C3885 0.950 . S
H3874 C3882 0.950 . S
H3875 C3884 0.950 . S
H3876 C3886 0.950 . S
H3877 C3888 0.950 . S
H3878 C3890 0.950 . S
H3879 C3891 0.950 . S
C3880 H3872 0.950 . S
C3880 C3881 1.386 . S
C3880 C3882 1.391 . S
C3881 C3880 1.386 . S
C3881 C3885 1.393 . S
C3882 H3874 0.950 . S
C3882 C3880 1.391 . S
C3882 C3883 1.400 . S
C3883 C3882 1.400 . S
C3883 C3884 1.398 . S
C3883 C3889 1.491 . S
C3884 H3875 0.950 . S
C3884 C3883 1.398 . S
C3884 C3885 1.391 . S
C3885 H3873 0.950 . S
C3885 C3881 1.393 . S
C3885 C3884 1.391 . S
C3886 H3876 0.950 . S
C3886 C3887 1.386 . S
C3886 C3888 1.391 . S
C3887 C3886 1.386 . S
C3887 C3891 1.393 . S
C3888 H3877 0.950 . S
C3888 C3886 1.391 . S
C3888 C3889 1.400 . S
C3889 C3883 1.491 . S
C3889 C3888 1.400 . S
C3889 C3890 1.398 . S
C3890 H3878 0.950 . S
C3890 C3889 1.398 . S
C3890 C3891 1.391 . S
C3891 H3879 0.950 . S
C3891 C3887 1.393 . S
C3891 C3890 1.391 . S
H3892 C3900 0.950 . S
H3893 C3905 0.950 . S
H3894 C3902 0.950 . S
H3895 C3904 0.950 . S
H3896 C3906 0.950 . S
H3897 C3908 0.950 . S
H3898 C3910 0.950 . S
H3899 C3911 0.950 . S
C3900 H3892 0.950 . S
C3900 C3901 1.386 . S
C3900 C3902 1.391 . S
C3901 C3900 1.386 . S
C3901 C3905 1.393 . S
C3902 H3894 0.950 . S
C3902 C3900 1.391 . S
C3902 C3903 1.400 . S
C3903 C3902 1.400 . S
C3903 C3904 1.398 . S
C3903 C3909 1.491 . S
C3904 H3895 0.950 . S
C3904 C3903 1.398 . S
C3904 C3905 1.391 . S
C3905 H3893 0.950 . S
C3905 C3901 1.393 . S
C3905 C3904 1.391 . S
C3906 H3896 0.950 . S
C3906 C3907 1.386 . S
C3906 C3908 1.391 . S
C3907 C3906 1.386 . S
C3907 C3911 1.393 . S
C3908 H3897 0.950 . S
C3908 C3906 1.391 . S
C3908 C3909 1.400 . S
C3909 C3903 1.491 . S
C3909 C3908 1.400 . S
C3909 C3910 1.398 . S
C3910 H3898 0.950 . S
C3910 C3909 1.398 . S
C3910 C3911 1.391 . S
C3911 H3899 0.950 . S
C3911 C3907 1.393 . S
C3911 C3910 1.391 . S
H3912 C3920 0.950 . S
H3913 C3925 0.950 . S
H3914 C3922 0.950 . S
H3915 C3924 0.950 . S
H3916 C3926 0.950 . S
H3917 C3928 0.950 . S
H3918 C3930 0.950 . S
H3919 C3931 0.950 . S
C3920 H3912 0.950 . S
C3920 C3921 1.386 . S
C3920 C3922 1.391 . S
C3921 C3920 1.386 . S
C3921 C3925 1.393 . S
C3922 H3914 0.950 . S
C3922 C3920 1.391 . S
C3922 C3923 1.400 . S
C3923 C3922 1.400 . S
C3923 C3924 1.398 . S
C3923 C3929 1.491 . S
C3924 H3915 0.950 . S
C3924 C3923 1.398 . S
C3924 C3925 1.391 . S
C3925 H3913 0.950 . S
C3925 C3921 1.393 . S
C3925 C3924 1.391 . S
C3926 H3916 0.950 . S
C3926 C3927 1.386 . S
C3926 C3928 1.391 . S
C3927 C3926 1.386 . S
C3927 C3931 1.393 . S
C3928 H3917 0.950 . S
C3928 C3926 1.391 . S
C3928 C3929 1.400 . S
C3929 C3923 1.491 . S
C3929 C3928 1.400 . S
C3929 C3930 1.398 . S
C3930 H3918 0.950 . S
C3930 C3929 1.398 . S
C3930 C3931 1.391 . S
C3931 H3919 0.950 . S
C3931 C3927 1.393 . S
C3931 C3930 1.391 . S
H3932 C3940 0.950 . S
H3933 C3945 0.950 . S
H3934 C3942 0.950 . S
H3935 C3944 0.950 . S
H3936 C3946 0.950 . S
H3937 C3948 0.950 . S
H3938 C3950 0.950 . S
H3939 C3951 0.950 . S
C3940 H3932 0.950 . S
C3940 C3941 1.386 . S
C3940 C3942 1.391 . S
C3941 C3940 1.386 . S
C3941 C3945 1.393 . S
C3942 H3934 0.950 . S
C3942 C3940 1.391 . S
C3942 C3943 1.400 . S
C3943 C3942 1.400 . S
C3943 C3944 1.398 . S
C3943 C3949 1.491 . S
C3944 H3935 0.950 . S
C3944 C3943 1.398 . S
C3944 C3945 1.391 . S
C3945 H3933 0.950 . S
C3945 C3941 1.393 . S
C3945 C3944 1.391 . S
C3946 H3936 0.950 . S
C3946 C3947 1.386 . S
C3946 C3948 1.391 . S
C3947 C3946 1.386 . S
C3947 C3951 1.393 . S
C3948 H3937 0.950 . S
C3948 C3946 1.391 . S
C3948 C3949 1.400 . S
C3949 C3943 1.491 . S
C3949 C3948 1.400 . S
C3949 C3950 1.398 . S
C3950 H3938 0.950 . S
C3950 C3949 1.398 . S
C3950 C3951 1.391 . S
C3951 H3939 0.950 . S
C3951 C3947 1.393 . S
C3951 C3950 1.391 . S
H3952 C3960 0.950 . S
H3953 C3965 0.950 . S
H3954 C3962 0.950 . S
H3955 C3964 0.950 . S
H3956 C3966 0.950 . S
H3957 C3968 0.950 . S
H3958 C3970 0.950 . S
H3959 C3971 0.950 . S
C3960 H3952 0.950 . S
C3960 C3961 1.386 . S
C3960 C3962 1.391 . S
C3961 C3960 1.386 . S
C3961 C3965 1.393 . S
C3962 H3954 0.950 . S
C3962 C3960 1.391 . S
C3962 C3963 1.400 . S
C3963 C3962 1.400 . S
C3963 C3964 1.398 . S
C3963 C3969 1.491 . S
C3964 H3955 0.950 . S
C3964 C3963 1.398 . S
C3964 C3965 1.391 . S
C3965 H3953 0.950 . S
C3965 C3961 1.393 . S
C3965 C3964 1.391 . S
C3966 H3956 0.950 . S
C3966 C3967 1.386 . S
C3966 C3968 1.391 . S
C3967 C3966 1.386 . S
C3967 C3971 1.393 . S
C3968 H3957 0.950 . S
C3968 C3966 1.391 . S
C3968 C3969 1.400 . S
C3969 C3963 1.491 . S
C3969 C3968 1.400 . S
C3969 C3970 1.398 . S
C3970 H3958 0.950 . S
C3970 C3969 1.398 . S
C3970 C3971 1.391 . S
C3971 H3959 0.950 . S
C3971 C3967 1.393 . S
C3971 C3970 1.391 . S
H3972 C3980 0.950 . S
H3973 C3985 0.950 . S
H3974 C3982 0.950 . S
H3975 C3984 0.950 . S
H3976 C3986 0.950 . S
H3977 C3988 0.950 . S
H3978 C3990 0.950 . S
H3979 C3991 0.950 . S
C3980 H3972 0.950 . S
C3980 C3981 1.386 . S
C3980 C3982 1.391 . S
C3981 C3980 1.386 . S
C3981 C3985 1.393 . S
C3982 H3974 0.950 . S
C3982 C3980 1.391 . S
C3982 C3983 1.400 . S
C3983 C3982 1.400 . S
C3983 C3984 1.398 . S
C3983 C3989 1.491 . S
C3984 H3975 0.950 . S
C3984 C3983 1.398 . S
C3984 C3985 1.391 . S
C3985 H3973 0.950 . S
C3985 C3981 1.393 . S
C3985 C3984 1.391 . S
C3986 H3976 0.950 . S
C3986 C3987 1.386 . S
C3986 C3988 1.391 . S
C3987 C3986 1.386 . S
C3987 C3991 1.393 . S
C3988 H3977 0.950 . S
C3988 C3986 1.391 . S
C3988 C3989 1.400 . S
C3989 C3983 1.491 . S
C3989 C3988 1.400 . S
C3989 C3990 1.398 . S
C3990 H3978 0.950 . S
C3990 C3989 1.398 . S
C3990 C3991 1.391 . S
C3991 H3979 0.950 . S
C3991 C3987 1.393 . S
C3991 C3990 1.391 . S
H3992 C4000 0.950 . S
H3993 C4005 0.950 . S
H3994 C4002 0.950 . S
H3995 C4004 0.950 . S
H3996 C4006 0.950 . S
H3997 C4008 0.950 . S
H3998 C4010 0.950 . S
H3999 C4011 0.950 . S
C4000 H3992 0.950 . S
C4000 C4001 1.386 . S
C4000 C4002 1.391 . S
C4001 C4000 1.386 . S
C4001 C4005 1.393 . S
C4002 H3994 0.950 . S
C4002 C4000 1.391 . S
C4002 C4003 1.400 . S
C4003 C4002 1.400 . S
C4003 C4004 1.398 . S
C4003 C4009 1.491 . S
C4004 H3995 0.950 . S
C4004 C4003 1.398 . S
C4004 C4005 1.391 . S
C4005 H3993 0.950 . S
C4005 C4001 1.393 . S
C4005 C4004 1.391 . S
C4006 H3996 0.950 . S
C4006 C4007 1.386 . S
C4006 C4008 1.391 . S
C4007 C4006 1.386 . S
C4007 C4011 1.393 . S
C4008 H3997 0.950 . S
C4008 C4006 1.391 . S
C4008 C4009 1.400 . S
C4009 C4003 1.491 . S
C4009 C4008 1.400 . S
C4009 C4010 1.398 . S
C4010 H3998 0.950 . S
C4010 C4009 1.398 . S
C4010 C4011 1.391 . S
C4011 H3999 0.950 . S
C4011 C4007 1.393 . S
C4011 C4010 1.391 . S
H4012 C4020 0.950 . S
H4013 C4025 0.950 . S
H4014 C4022 0.950 . S
H4015 C4024 0.950 . S
H4016 C4026 0.950 . S
H4017 C4028 0.950 . S
H4018 C4030 0.950 . S
H4019 C4031 0.950 . S
C4020 H4012 0.950 . S
C4020 C4021 1.386 . S
C4020 C4022 1.391 . S
C4021 C4020 1.386 . S
C4021 C4025 1.393 . S
C4022 H4014 0.950 . S
C4022 C4020 1.391 . S
C4022 C4023 1.400 . S
C4023 C4022 1.400 . S
C4023 C4024 1.398 . S
C4023 C4029 1.491 . S
C4024 H4015 0.950 . S
C4024 C4023 1.398 . S
C4024 C4025 1.391 . S
C4025 H4013 0.950 . S
C4025 C4021 1.393 . S
C4025 C4024 1.391 . S
C4026 H4016 0.950 . S
C4026 C4027 1.386 . S
C4026 C4028 1.391 . S
C4027 C4026 1.386 . S
C4027 C4031 1.393 . S
C4028 H4017 0.950 . S
C4028 C4026 1.391 . S
C4028 C4029 1.400 . S
C4029 C4023 1.491 . S
C4029 C4028 1.400 . S
C4029 C4030 1.398 . S
C4030 H4018 0.950 . S
C4030 C4029 1.398 . S
C4030 C4031 1.391 . S
C4031 H4019 0.950 . S
C4031 C4027 1.393 . S
C4031 C4030 1.391 . S
H4032 C4040 0.950 . S
H4033 C4045 0.950 . S
H4034 C4042 0.950 . S
H4035 C4044 0.950 . S
H4036 C4046 0.950 . S
H4037 C4048 0.950 . S
H4038 C4050 0.950 . S
H4039 C4051 0.950 . S
C4040 H4032 0.950 . S
C4040 C4041 1.386 . S
C4040 C4042 1.391 . S
C4041 C4040 1.386 . S
C4041 C4045 1.393 . S
C4042 H4034 0.950 . S
C4042 C4040 1.391 . S
C4042 C4043 1.400 . S
C4043 C4042 1.400 . S
C4043 C4044 1.398 . S
C4043 C4049 1.491 . S
C4044 H4035 0.950 . S
C4044 C4043 1.398 . S
C4044 C4045 1.391 . S
C4045 H4033 0.950 . S
C4045 C4041 1.393 . S
C4045 C4044 1.391 . S
C4046 H4036 0.950 . S
C4046 C4047 1.386 . S
C4046 C4048 1.391 . S
C4047 C4046 1.386 . S
C4047 C4051 1.393 . S
C4048 H4037 0.950 . S
C4048 C4046 1.391 . S
C4048 C4049 1.400 . S
C4049 C4043 1.491 . S
C4049 C4048 1.400 . S
C4049 C4050 1.398 . S
C4050 H4038 0.950 . S
C4050 C4049 1.398 . S
C4050 C4051 1.391 . S
C4051 H4039 0.950 . S
C4051 C4047 1.393 . S
C4051 C4050 1.391 . S
H4052 C4060 0.950 . S
H4053 C4065 0.950 . S
H4054 C4062 0.950 . S
H4055 C4064 0.950 . S
H4056 C4066 0.950 . S
H4057 C4068 0.950 . S
H4058 C4070 0.950 . S
H4059 C4071 0.950 . S
C4060 H4052 0.950 . S
C4060 C4061 1.386 . S
C4060 C4062 1.391 . S
C4061 C4060 1.386 . S
C4061 C4065 1.393 . S
C4062 H4054 0.950 . S
C4062 C4060 1.391 . S
C4062 C4063 1.400 . S
C4063 C4062 1.400 . S
C4063 C4064 1.398 . S
C4063 C4069 1.491 . S
C4064 H4055 0.950 . S
C4064 C4063 1.398 . S
C4064 C4065 1.391 . S
C4065 H4053 0.950 . S
C4065 C4061 1.393 . S
C4065 C4064 1.391 . S
C4066 H4056 0.950 . S
C4066 C4067 1.386 . S
C4066 C4068 1.391 . S
C4067 C4066 1.386 . S
C4067 C4071 1.393 . S
C4068 H4057 0.950 . S
C4068 C4066 1.391 . S
C4068 C4069 1.400 . S
C4069 C4063 1.491 . S
C4069 C4068 1.400 . S
C4069 C4070 1.398 . S
C4070 H4058 0.950 . S
C4070 C4069 1.398 . S
C4070 C4071 1.391 . S
C4071 H4059 0.950 . S
C4071 C4067 1.393 . S
C4071 C4070 1.391 . S
H4072 C4080 0.950 . S
H4073 C4085 0.950 . S
H4074 C4082 0.950 . S
H4075 C4084 0.950 . S
H4076 C4086 0.950 . S
H4077 C4088 0.950 . S
H4078 C4090 0.950 . S
H4079 C4091 0.950 . S
C4080 H4072 0.950 . S
C4080 C4081 1.386 . S
C4080 C4082 1.391 . S
C4081 C4080 1.386 . S
C4081 C4085 1.393 . S
C4082 H4074 0.950 . S
C4082 C4080 1.391 . S
C4082 C4083 1.400 . S
C4083 C4082 1.400 . S
C4083 C4084 1.398 . S
C4083 C4089 1.491 . S
C4084 H4075 0.950 . S
C4084 C4083 1.398 . S
C4084 C4085 1.391 . S
C4085 H4073 0.950 . S
C4085 C4081 1.393 . S
C4085 C4084 1.391 . S
C4086 H4076 0.950 . S
C4086 C4087 1.386 . S
C4086 C4088 1.391 . S
C4087 C4086 1.386 . S
C4087 C4091 1.393 . S
C4088 H4077 0.950 . S
C4088 C4086 1.391 . S
C4088 C4089 1.400 . S
C4089 C4083 1.491 . S
C4089 C4088 1.400 . S
C4089 C4090 1.398 . S
C4090 H4078 0.950 . S
C4090 C4089 1.398 . S
C4090 C4091 1.391 . S
C4091 H4079 0.950 . S
C4091 C4087 1.393 . S
C4091 C4090 1.391 . S
H4092 C4100 0.950 . S
H4093 C4105 0.950 . S
H4094 C4102 0.949 . S
H4095 C4104 0.950 . S
H4096 C4106 0.950 . S
H4097 C4108 0.950 . S
H4098 C4110 0.950 1_556 S
H4099 C4111 0.980 . S
C4100 H4092 0.950 . S
C4100 C4101 1.386 1_546 S
C4100 C4102 1.391 . S
C4101 C4100 1.386 1_564 S
C4101 C4105 1.393 . S
C4102 H4094 0.949 . S
C4102 C4100 1.391 . S
C4102 C4103 1.401 1_546 S
C4103 C4102 1.401 1_564 S
C4103 C4104 1.398 . S
C4103 C4109 1.491 1_565 S
C4104 H4095 0.950 . S
C4104 C4103 1.398 . S
C4104 C4105 1.391 . S
C4105 H4093 0.950 . S
C4105 C4101 1.393 . S
C4105 C4104 1.391 . S
C4106 H4096 0.950 . S
C4106 C4107 1.386 1_565 S
C4106 C4108 1.391 . S
C4107 C4106 1.386 1_545 S
C4107 C4111 1.393 . S
C4108 H4097 0.950 . S
C4108 C4106 1.391 . S
C4108 C4109 1.400 1_565 S
C4109 C4103 1.491 1_545 S
C4109 C4108 1.400 1_545 S
C4109 C4110 1.398 . S
C4110 H4098 0.950 1_554 S
C4110 C4109 1.398 . S
C4110 C4111 1.391 . S
C4111 H4099 0.980 . S
C4111 C4107 1.393 . S
C4111 C4110 1.391 . S
H4112 C4120 0.950 . S
H4113 C4125 0.950 . S
H4114 C4122 0.950 . S
H4115 C4124 0.950 . S
H4116 C4126 0.950 . S
H4117 C4128 0.950 . S
H4118 C4130 0.950 . S
H4119 C4131 0.950 . S
C4120 H4112 0.950 . S
C4120 C4121 1.386 . S
C4120 C4122 1.391 . S
C4121 C4120 1.386 . S
C4121 C4125 1.393 . S
C4122 H4114 0.950 . S
C4122 C4120 1.391 . S
C4122 C4123 1.400 . S
C4123 C4122 1.400 . S
C4123 C4124 1.398 . S
C4123 C4129 1.491 . S
C4124 H4115 0.950 . S
C4124 C4123 1.398 . S
C4124 C4125 1.391 . S
C4125 H4113 0.950 . S
C4125 C4121 1.393 . S
C4125 C4124 1.391 . S
C4126 H4116 0.950 . S
C4126 C4127 1.386 . S
C4126 C4128 1.391 . S
C4127 C4126 1.386 . S
C4127 C4131 1.393 . S
C4128 H4117 0.950 . S
C4128 C4126 1.391 . S
C4128 C4129 1.400 . S
C4129 C4123 1.491 . S
C4129 C4128 1.400 . S
C4129 C4130 1.398 . S
C4130 H4118 0.950 . S
C4130 C4129 1.398 . S
C4130 C4131 1.391 . S
C4131 H4119 0.950 . S
C4131 C4127 1.393 . S
C4131 C4130 1.391 . S
H4132 C4140 0.950 . S
H4133 C4145 0.950 . S
H4134 C4142 0.950 . S
H4135 C4144 0.950 . S
H4136 C4146 0.950 . S
H4137 C4148 0.950 . S
H4138 C4150 0.950 . S
H4139 C4151 0.950 . S
C4140 H4132 0.950 . S
C4140 C4141 1.386 . S
C4140 C4142 1.391 . S
C4141 C4140 1.386 . S
C4141 C4145 1.393 . S
C4142 H4134 0.950 . S
C4142 C4140 1.391 . S
C4142 C4143 1.400 . S
C4143 C4142 1.400 . S
C4143 C4144 1.398 . S
C4143 C4149 1.491 . S
C4144 H4135 0.950 . S
C4144 C4143 1.398 . S
C4144 C4145 1.391 . S
C4145 H4133 0.950 . S
C4145 C4141 1.393 . S
C4145 C4144 1.391 . S
C4146 H4136 0.950 . S
C4146 C4147 1.386 . S
C4146 C4148 1.391 . S
C4147 C4146 1.386 . S
C4147 C4151 1.393 . S
C4148 H4137 0.950 . S
C4148 C4146 1.391 . S
C4148 C4149 1.400 . S
C4149 C4143 1.491 . S
C4149 C4148 1.400 . S
C4149 C4150 1.398 . S
C4150 H4138 0.950 . S
C4150 C4149 1.398 . S
C4150 C4151 1.391 . S
C4151 H4139 0.950 . S
C4151 C4147 1.393 . S
C4151 C4150 1.391 . S
H4152 C4160 0.950 . S
H4153 C4165 0.950 . S
H4154 C4162 0.950 . S
H4155 C4164 0.950 . S
H4156 C4166 0.950 . S
H4157 C4168 0.950 . S
H4158 C4170 0.950 . S
H4159 C4171 0.950 . S
C4160 H4152 0.950 . S
C4160 C4161 1.386 . S
C4160 C4162 1.391 . S
C4161 C4160 1.386 . S
C4161 C4165 1.393 . S
C4162 H4154 0.950 . S
C4162 C4160 1.391 . S
C4162 C4163 1.400 . S
C4163 C4162 1.400 . S
C4163 C4164 1.398 . S
C4163 C4169 1.491 . S
C4164 H4155 0.950 . S
C4164 C4163 1.398 . S
C4164 C4165 1.391 . S
C4165 H4153 0.950 . S
C4165 C4161 1.393 . S
C4165 C4164 1.391 . S
C4166 H4156 0.950 . S
C4166 C4167 1.386 . S
C4166 C4168 1.391 . S
C4167 C4166 1.386 . S
C4167 C4171 1.393 . S
C4168 H4157 0.950 . S
C4168 C4166 1.391 . S
C4168 C4169 1.400 . S
C4169 C4163 1.491 . S
C4169 C4168 1.400 . S
C4169 C4170 1.398 . S
C4170 H4158 0.950 . S
C4170 C4169 1.398 . S
C4170 C4171 1.391 . S
C4171 H4159 0.950 . S
C4171 C4167 1.393 . S
C4171 C4170 1.391 . S
H4172 C4180 0.950 . S
H4173 C4185 0.950 . S
H4174 C4182 0.950 . S
H4175 C4184 0.950 . S
H4176 C4186 0.950 . S
H4177 C4188 0.950 . S
H4178 C4190 0.950 . S
H4179 C4191 0.950 . S
C4180 H4172 0.950 . S
C4180 C4181 1.386 . S
C4180 C4182 1.391 . S
C4181 C4180 1.386 . S
C4181 C4185 1.393 . S
C4182 H4174 0.950 . S
C4182 C4180 1.391 . S
C4182 C4183 1.400 . S
C4183 C4182 1.400 . S
C4183 C4184 1.398 . S
C4183 C4189 1.491 . S
C4184 H4175 0.950 . S
C4184 C4183 1.398 . S
C4184 C4185 1.391 . S
C4185 H4173 0.950 . S
C4185 C4181 1.393 . S
C4185 C4184 1.391 . S
C4186 H4176 0.950 . S
C4186 C4187 1.386 . S
C4186 C4188 1.391 . S
C4187 C4186 1.386 . S
C4187 C4191 1.393 . S
C4188 H4177 0.950 . S
C4188 C4186 1.391 . S
C4188 C4189 1.400 . S
C4189 C4183 1.491 . S
C4189 C4188 1.400 . S
C4189 C4190 1.398 . S
C4190 H4178 0.950 . S
C4190 C4189 1.398 . S
C4190 C4191 1.391 . S
C4191 H4179 0.950 . S
C4191 C4187 1.393 . S
C4191 C4190 1.391 . S
H4192 C4200 0.950 . S
H4193 C4205 0.950 . S
H4194 C4202 0.950 . S
H4195 C4204 0.950 . S
H4196 C4206 0.950 . S
H4197 C4208 0.950 . S
H4198 C4210 0.950 . S
H4199 C4211 0.950 . S
C4200 H4192 0.950 . S
C4200 C4201 1.386 . S
C4200 C4202 1.391 . S
C4201 C4200 1.386 . S
C4201 C4205 1.393 . S
C4202 H4194 0.950 . S
C4202 C4200 1.391 . S
C4202 C4203 1.400 . S
C4203 C4202 1.400 . S
C4203 C4204 1.398 . S
C4203 C4209 1.491 . S
C4204 H4195 0.950 . S
C4204 C4203 1.398 . S
C4204 C4205 1.391 . S
C4205 H4193 0.950 . S
C4205 C4201 1.393 . S
C4205 C4204 1.391 . S
C4206 H4196 0.950 . S
C4206 C4207 1.386 . S
C4206 C4208 1.391 . S
C4207 C4206 1.386 . S
C4207 C4211 1.393 . S
C4208 H4197 0.950 . S
C4208 C4206 1.391 . S
C4208 C4209 1.400 . S
C4209 C4203 1.491 . S
C4209 C4208 1.400 . S
C4209 C4210 1.398 . S
C4210 H4198 0.950 . S
C4210 C4209 1.398 . S
C4210 C4211 1.391 . S
C4211 H4199 0.950 . S
C4211 C4207 1.393 . S
C4211 C4210 1.391 . S
H4212 C4220 0.950 . S
H4213 C4225 0.950 . S
H4214 C4222 0.950 . S
H4215 C4224 0.950 . S
H4216 C4226 0.950 . S
H4217 C4228 0.950 . S
H4218 C4230 0.950 . S
H4219 C4231 0.950 . S
C4220 H4212 0.950 . S
C4220 C4221 1.386 . S
C4220 C4222 1.391 . S
C4221 C4220 1.386 . S
C4221 C4225 1.393 . S
C4222 H4214 0.950 . S
C4222 C4220 1.391 . S
C4222 C4223 1.400 . S
C4223 C4222 1.400 . S
C4223 C4224 1.398 . S
C4223 C4229 1.491 . S
C4224 H4215 0.950 . S
C4224 C4223 1.398 . S
C4224 C4225 1.391 . S
C4225 H4213 0.950 . S
C4225 C4221 1.393 . S
C4225 C4224 1.391 . S
C4226 H4216 0.950 . S
C4226 C4227 1.386 . S
C4226 C4228 1.391 . S
C4227 C4226 1.386 . S
C4227 C4231 1.393 . S
C4228 H4217 0.950 . S
C4228 C4226 1.391 . S
C4228 C4229 1.400 . S
C4229 C4223 1.491 . S
C4229 C4228 1.400 . S
C4229 C4230 1.398 . S
C4230 H4218 0.950 . S
C4230 C4229 1.398 . S
C4230 C4231 1.391 . S
C4231 H4219 0.950 . S
C4231 C4227 1.393 . S
C4231 C4230 1.391 . S
H4232 C4240 0.950 . S
H4233 C4245 0.950 . S
H4234 C4242 0.950 . S
H4235 C4244 0.950 . S
H4236 C4246 0.950 . S
H4237 C4248 0.950 . S
H4238 C4250 0.950 . S
H4239 C4251 0.950 . S
C4240 H4232 0.950 . S
C4240 C4241 1.386 . S
C4240 C4242 1.391 . S
C4241 C4240 1.386 . S
C4241 C4245 1.393 . S
C4242 H4234 0.950 . S
C4242 C4240 1.391 . S
C4242 C4243 1.400 . S
C4243 C4242 1.400 . S
C4243 C4244 1.398 . S
C4243 C4249 1.491 . S
C4244 H4235 0.950 . S
C4244 C4243 1.398 . S
C4244 C4245 1.391 . S
C4245 H4233 0.950 . S
C4245 C4241 1.393 . S
C4245 C4244 1.391 . S
C4246 H4236 0.950 . S
C4246 C4247 1.386 . S
C4246 C4248 1.391 . S
C4247 C4246 1.386 . S
C4247 C4251 1.393 . S
C4248 H4237 0.950 . S
C4248 C4246 1.391 . S
C4248 C4249 1.400 . S
C4249 C4243 1.491 . S
C4249 C4248 1.400 . S
C4249 C4250 1.398 . S
C4250 H4238 0.950 . S
C4250 C4249 1.398 . S
C4250 C4251 1.391 . S
C4251 H4239 0.950 . S
C4251 C4247 1.393 . S
C4251 C4250 1.391 . S
H4252 C4260 0.950 . S
H4253 C4265 0.950 . S
H4254 C4262 0.950 . S
H4255 C4264 0.950 . S
H4256 C4266 0.950 . S
H4257 C4268 0.950 . S
H4258 C4270 0.950 . S
H4259 C4271 0.950 . S
C4260 H4252 0.950 . S
C4260 C4261 1.386 . S
C4260 C4262 1.391 . S
C4261 C4260 1.386 . S
C4261 C4265 1.393 . S
C4262 H4254 0.950 . S
C4262 C4260 1.391 . S
C4262 C4263 1.400 . S
C4263 C4262 1.400 . S
C4263 C4264 1.398 . S
C4263 C4269 1.491 . S
C4264 H4255 0.950 . S
C4264 C4263 1.398 . S
C4264 C4265 1.391 . S
C4265 H4253 0.950 . S
C4265 C4261 1.393 . S
C4265 C4264 1.391 . S
C4266 H4256 0.950 . S
C4266 C4267 1.386 . S
C4266 C4268 1.391 . S
C4267 C4266 1.386 . S
C4267 C4271 1.393 . S
C4268 H4257 0.950 . S
C4268 C4266 1.391 . S
C4268 C4269 1.400 . S
C4269 C4263 1.491 . S
C4269 C4268 1.400 . S
C4269 C4270 1.398 . S
C4270 H4258 0.950 . S
C4270 C4269 1.398 . S
C4270 C4271 1.391 . S
C4271 H4259 0.950 . S
C4271 C4267 1.393 . S
C4271 C4270 1.391 . S
H4272 C4280 0.950 . S
H4273 C4285 0.950 . S
H4274 C4282 0.950 . S
H4275 C4284 0.950 . S
H4276 C4286 0.950 1_554 S
H4277 C4288 0.950 . S
H4278 C4290 0.950 . S
H4279 C4291 0.950 . S
C4280 H4272 0.950 . S
C4280 C4281 1.386 . S
C4280 C4282 1.391 . S
C4281 C4280 1.386 . S
C4281 C4285 1.393 . S
C4282 H4274 0.950 . S
C4282 C4280 1.391 . S
C4282 C4283 1.400 . S
C4283 C4282 1.400 . S
C4283 C4284 1.398 . S
C4283 C4289 1.491 . S
C4284 H4275 0.950 . S
C4284 C4283 1.398 . S
C4284 C4285 1.391 . S
C4285 H4273 0.950 . S
C4285 C4281 1.393 . S
C4285 C4284 1.391 . S
C4286 H4276 0.950 1_556 S
C4286 C4287 1.386 . S
C4286 C4288 1.391 . S
C4287 C4286 1.386 . S
C4287 C4291 1.393 . S
C4288 H4277 0.950 . S
C4288 C4286 1.391 . S
C4288 C4289 1.400 . S
C4289 C4283 1.491 . S
C4289 C4288 1.400 . S
C4289 C4290 1.398 . S
C4290 H4278 0.950 . S
C4290 C4289 1.398 . S
C4290 C4291 1.391 . S
C4291 H4279 0.950 . S
C4291 C4287 1.393 . S
C4291 C4290 1.391 . S
H4292 C4300 0.950 . S
H4293 C4305 0.950 . S
H4294 C4302 0.950 . S
H4295 C4304 0.950 . S
H4296 C4306 0.950 . S
H4297 C4308 0.950 . S
H4298 C4310 0.950 . S
H4299 C4311 0.950 . S
C4300 H4292 0.950 . S
C4300 C4301 1.386 . S
C4300 C4302 1.391 . S
C4301 C4300 1.386 . S
C4301 C4305 1.393 . S
C4302 H4294 0.950 . S
C4302 C4300 1.391 . S
C4302 C4303 1.400 . S
C4303 C4302 1.400 . S
C4303 C4304 1.398 . S
C4303 C4309 1.491 . S
C4304 H4295 0.950 . S
C4304 C4303 1.398 . S
C4304 C4305 1.391 . S
C4305 H4293 0.950 . S
C4305 C4301 1.393 . S
C4305 C4304 1.391 . S
C4306 H4296 0.950 . S
C4306 C4307 1.386 . S
C4306 C4308 1.391 . S
C4307 C4306 1.386 . S
C4307 C4311 1.393 . S
C4308 H4297 0.950 . S
C4308 C4306 1.391 . S
C4308 C4309 1.400 . S
C4309 C4303 1.491 . S
C4309 C4308 1.400 . S
C4309 C4310 1.398 . S
C4310 H4298 0.950 . S
C4310 C4309 1.398 . S
C4310 C4311 1.391 . S
C4311 H4299 0.950 . S
C4311 C4307 1.393 . S
C4311 C4310 1.391 . S
H4312 C4320 0.950 . S
H4313 C4325 0.950 . S
H4314 C4322 0.950 . S
H4315 C4324 0.950 . S
H4316 C4326 0.950 . S
H4317 C4328 0.950 . S
H4318 C4330 0.950 . S
H4319 C4331 0.950 . S
C4320 H4312 0.950 . S
C4320 C4321 1.386 . S
C4320 C4322 1.391 . S
C4321 C4320 1.386 . S
C4321 C4325 1.393 . S
C4322 H4314 0.950 . S
C4322 C4320 1.391 . S
C4322 C4323 1.400 . S
C4323 C4322 1.400 . S
C4323 C4324 1.398 . S
C4323 C4329 1.491 . S
C4324 H4315 0.950 . S
C4324 C4323 1.398 . S
C4324 C4325 1.391 . S
C4325 H4313 0.950 . S
C4325 C4321 1.393 . S
C4325 C4324 1.391 . S
C4326 H4316 0.950 . S
C4326 C4327 1.386 . S
C4326 C4328 1.391 . S
C4327 C4326 1.386 . S
C4327 C4331 1.393 . S
C4328 H4317 0.950 . S
C4328 C4326 1.391 . S
C4328 C4329 1.400 . S
C4329 C4323 1.491 . S
C4329 C4328 1.400 . S
C4329 C4330 1.398 . S
C4330 H4318 0.950 . S
C4330 C4329 1.398 . S
C4330 C4331 1.391 . S
C4331 H4319 0.950 . S
C4331 C4327 1.393 . S
C4331 C4330 1.391 . S
H4332 C4340 0.950 . S
H4333 C4345 0.950 . S
H4334 C4342 0.950 . S
H4335 C4344 0.950 . S
H4336 C4346 0.950 . S
H4337 C4348 0.950 . S
H4338 C4350 0.950 . S
H4339 C4351 0.950 . S
C4340 H4332 0.950 . S
C4340 C4341 1.386 . S
C4340 C4342 1.391 . S
C4341 C4340 1.386 . S
C4341 C4345 1.393 . S
C4342 H4334 0.950 . S
C4342 C4340 1.391 . S
C4342 C4343 1.400 . S
C4343 C4342 1.400 . S
C4343 C4344 1.398 . S
C4343 C4349 1.491 . S
C4344 H4335 0.950 . S
C4344 C4343 1.398 . S
C4344 C4345 1.391 . S
C4345 H4333 0.950 . S
C4345 C4341 1.393 . S
C4345 C4344 1.391 . S
C4346 H4336 0.950 . S
C4346 C4347 1.386 . S
C4346 C4348 1.391 . S
C4347 C4346 1.386 . S
C4347 C4351 1.393 . S
C4348 H4337 0.950 . S
C4348 C4346 1.391 . S
C4348 C4349 1.400 . S
C4349 C4343 1.491 . S
C4349 C4348 1.400 . S
C4349 C4350 1.398 . S
C4350 H4338 0.950 . S
C4350 C4349 1.398 . S
C4350 C4351 1.391 . S
C4351 H4339 0.950 . S
C4351 C4347 1.393 . S
C4351 C4350 1.391 . S
H4352 C4360 0.950 . S
H4353 C4365 0.950 . S
H4354 C4362 0.950 . S
H4355 C4364 0.950 . S
H4356 C4366 0.950 . S
H4357 C4368 0.950 . S
H4358 C4370 0.950 . S
H4359 C4371 0.950 . S
C4360 H4352 0.950 . S
C4360 C4361 1.386 . S
C4360 C4362 1.391 . S
C4361 C4360 1.386 . S
C4361 C4365 1.393 . S
C4362 H4354 0.950 . S
C4362 C4360 1.391 . S
C4362 C4363 1.400 . S
C4363 C4362 1.400 . S
C4363 C4364 1.398 . S
C4363 C4369 1.491 . S
C4364 H4355 0.950 . S
C4364 C4363 1.398 . S
C4364 C4365 1.391 . S
C4365 H4353 0.950 . S
C4365 C4361 1.393 . S
C4365 C4364 1.391 . S
C4366 H4356 0.950 . S
C4366 C4367 1.386 . S
C4366 C4368 1.391 . S
C4367 C4366 1.386 . S
C4367 C4371 1.393 . S
C4368 H4357 0.950 . S
C4368 C4366 1.391 . S
C4368 C4369 1.400 . S
C4369 C4363 1.491 . S
C4369 C4368 1.400 . S
C4369 C4370 1.398 . S
C4370 H4358 0.950 . S
C4370 C4369 1.398 . S
C4370 C4371 1.391 . S
C4371 H4359 0.950 . S
C4371 C4367 1.393 . S
C4371 C4370 1.391 . S
H4372 C4380 0.950 . S
H4373 C4385 0.950 . S
H4374 C4382 0.950 . S
H4375 C4384 0.950 . S
H4376 C4386 0.950 . S
H4377 C4388 0.950 . S
H4378 C4390 0.950 . S
H4379 C4391 0.950 . S
C4380 H4372 0.950 . S
C4380 C4381 1.386 . S
C4380 C4382 1.391 . S
C4381 C4380 1.386 . S
C4381 C4385 1.393 . S
C4382 H4374 0.950 . S
C4382 C4380 1.391 . S
C4382 C4383 1.400 . S
C4383 C4382 1.400 . S
C4383 C4384 1.398 . S
C4383 C4389 1.491 . S
C4384 H4375 0.950 . S
C4384 C4383 1.398 . S
C4384 C4385 1.391 . S
C4385 H4373 0.950 . S
C4385 C4381 1.393 . S
C4385 C4384 1.391 . S
C4386 H4376 0.950 . S
C4386 C4387 1.386 . S
C4386 C4388 1.391 . S
C4387 C4386 1.386 . S
C4387 C4391 1.393 . S
C4388 H4377 0.950 . S
C4388 C4386 1.391 . S
C4388 C4389 1.400 . S
C4389 C4383 1.491 . S
C4389 C4388 1.400 . S
C4389 C4390 1.398 . S
C4390 H4378 0.950 . S
C4390 C4389 1.398 . S
C4390 C4391 1.391 . S
C4391 H4379 0.950 . S
C4391 C4387 1.393 . S
C4391 C4390 1.391 . S
H4392 C4400 0.950 . S
H4393 C4405 0.950 . S
H4394 C4402 0.950 . S
H4395 C4404 0.950 . S
H4396 C4406 0.950 1_655 S
H4397 C4408 0.950 . S
H4398 C4410 0.950 . S
H4399 C4411 0.950 . S
C4400 H4392 0.950 . S
C4400 C4401 1.386 1_455 S
C4400 C4402 1.391 . S
C4401 C4400 1.386 1_655 S
C4401 C4405 1.393 . S
C4402 H4394 0.950 . S
C4402 C4400 1.391 . S
C4402 C4403 1.410 . S
C4403 C4402 1.410 . S
C4403 C4404 1.379 1_455 S
C4403 C4409 1.500 . S
C4404 H4395 0.950 . S
C4404 C4403 1.379 1_655 S
C4404 C4405 1.391 . S
C4405 H4393 0.950 . S
C4405 C4401 1.393 . S
C4405 C4404 1.391 . S
C4406 H4396 0.950 1_455 S
C4406 C4407 1.386 . S
C4406 C4408 1.391 1_455 S
C4407 C4406 1.386 . S
C4407 C4411 1.393 . S
C4408 H4397 0.950 . S
C4408 C4406 1.391 1_655 S
C4408 C4409 1.400 1_655 S
C4409 C4403 1.500 . S
C4409 C4408 1.400 1_455 S
C4409 C4410 1.398 . S
C4410 H4398 0.950 . S
C4410 C4409 1.398 . S
C4410 C4411 1.391 . S
C4411 H4399 0.950 . S
C4411 C4407 1.393 . S
C4411 C4410 1.391 . S
H4412 C4420 0.950 . S
H4413 C4425 0.950 . S
H4414 C4422 0.950 . S
H4415 C4424 0.950 . S
H4416 C4426 0.950 . S
H4417 C4428 0.950 . S
H4418 C4430 0.950 . S
H4419 C4431 0.950 . S
C4420 H4412 0.950 . S
C4420 C4421 1.386 . S
C4420 C4422 1.391 . S
C4421 C4420 1.386 . S
C4421 C4425 1.393 . S
C4422 H4414 0.950 . S
C4422 C4420 1.391 . S
C4422 C4423 1.400 . S
C4423 C4422 1.400 . S
C4423 C4424 1.398 . S
C4423 C4429 1.491 . S
C4424 H4415 0.950 . S
C4424 C4423 1.398 . S
C4424 C4425 1.391 . S
C4425 H4413 0.950 . S
C4425 C4421 1.393 . S
C4425 C4424 1.391 . S
C4426 H4416 0.950 . S
C4426 C4427 1.386 . S
C4426 C4428 1.391 . S
C4427 C4426 1.386 . S
C4427 C4431 1.393 . S
C4428 H4417 0.950 . S
C4428 C4426 1.391 . S
C4428 C4429 1.400 . S
C4429 C4423 1.491 . S
C4429 C4428 1.400 . S
C4429 C4430 1.398 . S
C4430 H4418 0.950 . S
C4430 C4429 1.398 . S
C4430 C4431 1.391 . S
C4431 H4419 0.950 . S
C4431 C4427 1.393 . S
C4431 C4430 1.391 . S
H4432 C4440 0.950 . S
H4433 C4445 0.950 . S
H4434 C4442 0.950 . S
H4435 C4444 0.950 . S
H4436 C4446 0.950 . S
H4437 C4448 0.950 . S
H4438 C4450 0.950 . S
H4439 C4451 0.950 . S
C4440 H4432 0.950 . S
C4440 C4441 1.386 . S
C4440 C4442 1.391 . S
C4441 C4440 1.386 . S
C4441 C4445 1.393 . S
C4442 H4434 0.950 . S
C4442 C4440 1.391 . S
C4442 C4443 1.400 . S
C4443 C4442 1.400 . S
C4443 C4444 1.398 . S
C4443 C4449 1.491 . S
C4444 H4435 0.950 . S
C4444 C4443 1.398 . S
C4444 C4445 1.391 . S
C4445 H4433 0.950 . S
C4445 C4441 1.393 . S
C4445 C4444 1.391 . S
C4446 H4436 0.950 . S
C4446 C4447 1.386 . S
C4446 C4448 1.391 . S
C4447 C4446 1.386 . S
C4447 C4451 1.393 . S
C4448 H4437 0.950 . S
C4448 C4446 1.391 . S
C4448 C4449 1.400 . S
C4449 C4443 1.491 . S
C4449 C4448 1.400 . S
C4449 C4450 1.398 . S
C4450 H4438 0.950 . S
C4450 C4449 1.398 . S
C4450 C4451 1.391 . S
C4451 H4439 0.950 . S
C4451 C4447 1.393 . S
C4451 C4450 1.391 . S
H4452 C4460 0.950 . S
H4453 C4465 0.950 . S
H4454 C4462 0.950 . S
H4455 C4464 0.950 . S
H4456 C4466 0.950 . S
H4457 C4468 0.950 . S
H4458 C4470 0.950 . S
H4459 C4471 0.950 . S
C4460 H4452 0.950 . S
C4460 C4461 1.386 . S
C4460 C4462 1.391 . S
C4461 C4460 1.386 . S
C4461 C4465 1.393 . S
C4462 H4454 0.950 . S
C4462 C4460 1.391 . S
C4462 C4463 1.400 . S
C4463 C4462 1.400 . S
C4463 C4464 1.398 . S
C4463 C4469 1.491 . S
C4464 H4455 0.950 . S
C4464 C4463 1.398 . S
C4464 C4465 1.391 . S
C4465 H4453 0.950 . S
C4465 C4461 1.393 . S
C4465 C4464 1.391 . S
C4466 H4456 0.950 . S
C4466 C4467 1.386 . S
C4466 C4468 1.391 . S
C4467 C4466 1.386 . S
C4467 C4471 1.393 . S
C4468 H4457 0.950 . S
C4468 C4466 1.391 . S
C4468 C4469 1.400 . S
C4469 C4463 1.491 . S
C4469 C4468 1.400 . S
C4469 C4470 1.398 . S
C4470 H4458 0.950 . S
C4470 C4469 1.398 . S
C4470 C4471 1.391 . S
C4471 H4459 0.950 . S
C4471 C4467 1.393 . S
C4471 C4470 1.391 . S
H4472 C4480 0.950 . S
H4473 C4485 0.950 . S
H4474 C4482 0.950 1_455 S
H4475 C4484 0.950 . S
H4476 C4486 0.950 . S
H4477 C4488 0.950 . S
H4478 C4490 0.950 . S
H4479 C4491 0.950 . S
C4480 H4472 0.950 . S
C4480 C4481 1.386 . S
C4480 C4482 1.391 . S
C4481 C4480 1.386 . S
C4481 C4485 1.393 . S
C4482 H4474 0.950 1_655 S
C4482 C4480 1.391 . S
C4482 C4483 1.400 . S
C4483 C4482 1.400 . S
C4483 C4484 1.398 . S
C4483 C4489 1.491 . S
C4484 H4475 0.950 . S
C4484 C4483 1.398 . S
C4484 C4485 1.391 . S
C4485 H4473 0.950 . S
C4485 C4481 1.393 . S
C4485 C4484 1.391 . S
C4486 H4476 0.950 . S
C4486 C4487 1.386 1_655 S
C4486 C4488 1.391 . S
C4487 C4486 1.386 1_455 S
C4487 C4491 1.393 . S
C4488 H4477 0.950 . S
C4488 C4486 1.391 . S
C4488 C4489 1.400 . S
C4489 C4483 1.491 . S
C4489 C4488 1.400 . S
C4489 C4490 1.398 1_655 S
C4490 H4478 0.950 . S
C4490 C4489 1.398 1_455 S
C4490 C4491 1.391 . S
C4491 H4479 0.950 . S
C4491 C4487 1.393 . S
C4491 C4490 1.391 . S
H4492 C4500 0.950 . S
H4493 C4505 0.950 . S
H4494 C4502 0.950 . S
H4495 C4504 0.950 . S
H4496 C4506 0.950 . S
H4497 C4508 0.950 . S
H4498 C4510 0.950 . S
H4499 C4511 0.950 . S
C4500 H4492 0.950 . S
C4500 C4501 1.386 . S
C4500 C4502 1.391 . S
C4501 C4500 1.386 . S
C4501 C4505 1.393 . S
C4502 H4494 0.950 . S
C4502 C4500 1.391 . S
C4502 C4503 1.400 . S
C4503 C4502 1.400 . S
C4503 C4504 1.398 . S
C4503 C4509 1.491 . S
C4504 H4495 0.950 . S
C4504 C4503 1.398 . S
C4504 C4505 1.391 . S
C4505 H4493 0.950 . S
C4505 C4501 1.393 . S
C4505 C4504 1.391 . S
C4506 H4496 0.950 . S
C4506 C4507 1.386 . S
C4506 C4508 1.391 . S
C4507 C4506 1.386 . S
C4507 C4511 1.393 . S
C4508 H4497 0.950 . S
C4508 C4506 1.391 . S
C4508 C4509 1.400 . S
C4509 C4503 1.491 . S
C4509 C4508 1.400 . S
C4509 C4510 1.398 . S
C4510 H4498 0.950 . S
C4510 C4509 1.398 . S
C4510 C4511 1.391 . S
C4511 H4499 0.950 . S
C4511 C4507 1.393 . S
C4511 C4510 1.391 . S
H4512 C4520 0.950 . S
H4513 C4525 0.950 . S
H4514 C4522 0.950 . S
H4515 C4524 0.950 . S
H4516 C4526 0.950 . S
H4517 C4528 0.950 . S
H4518 C4530 0.950 . S
H4519 C4531 0.950 . S
C4520 H4512 0.950 . S
C4520 C4521 1.386 . S
C4520 C4522 1.391 . S
C4521 C4520 1.386 . S
C4521 C4525 1.393 . S
C4522 H4514 0.950 . S
C4522 C4520 1.391 . S
C4522 C4523 1.400 . S
C4523 C4522 1.400 . S
C4523 C4524 1.398 . S
C4523 C4529 1.491 . S
C4524 H4515 0.950 . S
C4524 C4523 1.398 . S
C4524 C4525 1.391 . S
C4525 H4513 0.950 . S
C4525 C4521 1.393 . S
C4525 C4524 1.391 . S
C4526 H4516 0.950 . S
C4526 C4527 1.386 . S
C4526 C4528 1.391 . S
C4527 C4526 1.386 . S
C4527 C4531 1.393 . S
C4528 H4517 0.950 . S
C4528 C4526 1.391 . S
C4528 C4529 1.400 . S
C4529 C4523 1.491 . S
C4529 C4528 1.400 . S
C4529 C4530 1.398 . S
C4530 H4518 0.950 . S
C4530 C4529 1.398 . S
C4530 C4531 1.391 . S
C4531 H4519 0.950 . S
C4531 C4527 1.393 . S
C4531 C4530 1.391 . S
H4532 C4540 0.950 . S
H4533 C4545 0.950 . S
H4534 C4542 0.950 . S
H4535 C4544 0.950 . S
H4536 C4546 0.950 . S
H4537 C4548 0.950 . S
H4538 C4550 0.950 . S
H4539 C4551 0.950 . S
C4540 H4532 0.950 . S
C4540 C4541 1.386 . S
C4540 C4542 1.391 . S
C4541 C4540 1.386 . S
C4541 C4545 1.393 . S
C4542 H4534 0.950 . S
C4542 C4540 1.391 . S
C4542 C4543 1.400 . S
C4543 C4542 1.400 . S
C4543 C4544 1.398 . S
C4543 C4549 1.491 . S
C4544 H4535 0.950 . S
C4544 C4543 1.398 . S
C4544 C4545 1.391 . S
C4545 H4533 0.950 . S
C4545 C4541 1.393 . S
C4545 C4544 1.391 . S
C4546 H4536 0.950 . S
C4546 C4547 1.388 . S
C4546 C4548 1.391 . S
C4547 C4546 1.388 . S
C4547 C4551 1.391 1_565 S
C4548 H4537 0.950 . S
C4548 C4546 1.391 . S
C4548 C4549 1.400 . S
C4549 C4543 1.491 . S
C4549 C4548 1.400 . S
C4549 C4550 1.398 . S
C4550 H4538 0.950 . S
C4550 C4549 1.398 . S
C4550 C4551 1.391 1_565 S
C4551 H4539 0.950 . S
C4551 C4547 1.391 1_545 S
C4551 C4550 1.391 1_545 S
H4552 C4560 0.950 . S
H4553 C4565 0.950 . S
H4554 C4562 0.950 . S
H4555 C4564 0.950 . S
H4556 C4566 0.950 . S
H4557 C4568 0.950 . S
H4558 C4570 0.950 . S
H4559 C4571 0.950 . S
C4560 H4552 0.950 . S
C4560 C4561 1.386 . S
C4560 C4562 1.391 . S
C4561 C4560 1.386 . S
C4561 C4565 1.393 . S
C4562 H4554 0.950 . S
C4562 C4560 1.391 . S
C4562 C4563 1.400 . S
C4563 C4562 1.400 . S
C4563 C4564 1.398 . S
C4563 C4569 1.491 . S
C4564 H4555 0.950 . S
C4564 C4563 1.398 . S
C4564 C4565 1.391 . S
C4565 H4553 0.950 . S
C4565 C4561 1.393 . S
C4565 C4564 1.391 . S
C4566 H4556 0.950 . S
C4566 C4567 1.386 . S
C4566 C4568 1.391 . S
C4567 C4566 1.386 . S
C4567 C4571 1.393 . S
C4568 H4557 0.950 . S
C4568 C4566 1.391 . S
C4568 C4569 1.400 . S
C4569 C4563 1.491 . S
C4569 C4568 1.400 . S
C4569 C4570 1.398 . S
C4570 H4558 0.950 . S
C4570 C4569 1.398 . S
C4570 C4571 1.391 . S
C4571 H4559 0.950 . S
C4571 C4567 1.393 . S
C4571 C4570 1.391 . S
H4572 C4580 0.950 . S
H4573 C4585 0.950 . S
H4574 C4582 0.950 . S
H4575 C4584 0.950 . S
H4576 C4586 0.950 . S
H4577 C4588 0.950 . S
H4578 C4590 0.950 . S
H4579 C4591 0.950 . S
C4580 H4572 0.950 . S
C4580 C4581 1.386 . S
C4580 C4582 1.391 . S
C4581 C4580 1.386 . S
C4581 C4585 1.393 . S
C4582 H4574 0.950 . S
C4582 C4580 1.391 . S
C4582 C4583 1.400 . S
C4583 C4582 1.400 . S
C4583 C4584 1.398 . S
C4583 C4589 1.491 . S
C4584 H4575 0.950 . S
C4584 C4583 1.398 . S
C4584 C4585 1.391 . S
C4585 H4573 0.950 . S
C4585 C4581 1.393 . S
C4585 C4584 1.391 . S
C4586 H4576 0.950 . S
C4586 C4587 1.386 . S
C4586 C4588 1.391 . S
C4587 C4586 1.386 . S
C4587 C4591 1.393 . S
C4588 H4577 0.950 . S
C4588 C4586 1.391 . S
C4588 C4589 1.400 . S
C4589 C4583 1.491 . S
C4589 C4588 1.400 . S
C4589 C4590 1.398 . S
C4590 H4578 0.950 . S
C4590 C4589 1.398 . S
C4590 C4591 1.391 . S
C4591 H4579 0.950 . S
C4591 C4587 1.393 . S
C4591 C4590 1.391 . S
H4592 C4600 0.950 . S
H4593 C4605 0.950 . S
H4594 C4602 0.950 . S
H4595 C4604 0.950 . S
H4596 C4606 0.950 . S
H4597 C4608 0.950 . S
H4598 C4610 0.950 . S
H4599 C4611 0.950 . S
C4600 H4592 0.950 . S
C4600 C4601 1.386 . S
C4600 C4602 1.391 . S
C4601 C4600 1.386 . S
C4601 C4605 1.393 . S
C4602 H4594 0.950 . S
C4602 C4600 1.391 . S
C4602 C4603 1.400 . S
C4603 C4602 1.400 . S
C4603 C4604 1.398 . S
C4603 C4609 1.491 . S
C4604 H4595 0.950 . S
C4604 C4603 1.398 . S
C4604 C4605 1.391 . S
C4605 H4593 0.950 . S
C4605 C4601 1.393 . S
C4605 C4604 1.391 . S
C4606 H4596 0.950 . S
C4606 C4607 1.386 . S
C4606 C4608 1.391 . S
C4607 C4606 1.386 . S
C4607 C4611 1.393 . S
C4608 H4597 0.950 . S
C4608 C4606 1.391 . S
C4608 C4609 1.400 . S
C4609 C4603 1.491 . S
C4609 C4608 1.400 . S
C4609 C4610 1.398 . S
C4610 H4598 0.950 . S
C4610 C4609 1.398 . S
C4610 C4611 1.391 . S
C4611 H4599 0.950 . S
C4611 C4607 1.393 . S
C4611 C4610 1.391 . S
H4612 C4620 0.950 . S
H4613 C4625 0.950 . S
H4614 C4622 0.950 1_556 S
H4615 C4624 0.950 . S
H4616 C4626 0.950 . S
H4617 C4628 0.950 . S
H4618 C4630 0.950 . S
H4619 C4631 0.950 . S
C4620 H4612 0.950 . S
C4620 C4621 1.386 . S
C4620 C4622 1.391 . S
C4621 C4620 1.386 . S
C4621 C4625 1.393 . S
C4622 H4614 0.950 1_554 S
C4622 C4620 1.391 . S
C4622 C4623 1.400 . S
C4623 C4622 1.400 . S
C4623 C4624 1.398 . S
C4623 C4629 1.491 . S
C4624 H4615 0.950 . S
C4624 C4623 1.398 . S
C4624 C4625 1.391 . S
C4625 H4613 0.950 . S
C4625 C4621 1.393 . S
C4625 C4624 1.391 . S
C4626 H4616 0.950 . S
C4626 C4627 1.386 . S
C4626 C4628 1.391 . S
C4627 C4626 1.386 . S
C4627 C4631 1.393 1_554 S
C4628 H4617 0.950 . S
C4628 C4626 1.391 . S
C4628 C4629 1.400 . S
C4629 C4623 1.491 . S
C4629 C4628 1.400 . S
C4629 C4630 1.398 1_554 S
C4630 H4618 0.950 . S
C4630 C4629 1.398 1_556 S
C4630 C4631 1.391 . S
C4631 H4619 0.950 . S
C4631 C4627 1.393 1_556 S
C4631 C4630 1.391 . S
H4632 C4640 0.950 . S
H4633 C4645 0.950 . S
H4634 C4642 0.950 . S
H4635 C4644 0.950 . S
H4636 C4646 0.950 . S
H4637 C4648 0.950 . S
H4638 C4650 0.950 . S
H4639 C4651 0.950 . S
C4640 H4632 0.950 . S
C4640 C4641 1.386 . S
C4640 C4642 1.391 . S
C4641 C4640 1.386 . S
C4641 C4645 1.393 . S
C4642 H4634 0.950 . S
C4642 C4640 1.391 . S
C4642 C4643 1.400 . S
C4643 C4642 1.400 . S
C4643 C4644 1.398 . S
C4643 C4649 1.491 . S
C4644 H4635 0.950 . S
C4644 C4643 1.398 . S
C4644 C4645 1.391 . S
C4645 H4633 0.950 . S
C4645 C4641 1.393 . S
C4645 C4644 1.391 . S
C4646 H4636 0.950 . S
C4646 C4647 1.386 . S
C4646 C4648 1.391 . S
C4647 C4646 1.386 . S
C4647 C4651 1.393 . S
C4648 H4637 0.950 . S
C4648 C4646 1.391 . S
C4648 C4649 1.400 . S
C4649 C4643 1.491 . S
C4649 C4648 1.400 . S
C4649 C4650 1.398 . S
C4650 H4638 0.950 . S
C4650 C4649 1.398 . S
C4650 C4651 1.391 . S
C4651 H4639 0.950 . S
C4651 C4647 1.393 . S
C4651 C4650 1.391 . S
H4652 C4660 0.950 . S
H4653 C4665 0.950 . S
H4654 C4662 0.950 . S
H4655 C4664 0.950 . S
H4656 C4666 0.950 . S
H4657 C4668 0.950 . S
H4658 C4670 0.950 . S
H4659 C4671 0.950 . S
C4660 H4652 0.950 . S
C4660 C4661 1.386 . S
C4660 C4662 1.391 . S
C4661 C4660 1.386 . S
C4661 C4665 1.393 . S
C4662 H4654 0.950 . S
C4662 C4660 1.391 . S
C4662 C4663 1.400 . S
C4663 C4662 1.400 . S
C4663 C4664 1.398 . S
C4663 C4669 1.491 . S
C4664 H4655 0.950 . S
C4664 C4663 1.398 . S
C4664 C4665 1.391 . S
C4665 H4653 0.950 . S
C4665 C4661 1.393 . S
C4665 C4664 1.391 . S
C4666 H4656 0.950 . S
C4666 C4667 1.386 . S
C4666 C4668 1.391 . S
C4667 C4666 1.386 . S
C4667 C4671 1.393 . S
C4668 H4657 0.950 . S
C4668 C4666 1.391 . S
C4668 C4669 1.400 . S
C4669 C4663 1.491 . S
C4669 C4668 1.400 . S
C4669 C4670 1.398 . S
C4670 H4658 0.950 . S
C4670 C4669 1.398 . S
C4670 C4671 1.391 . S
C4671 H4659 0.950 . S
C4671 C4667 1.393 . S
C4671 C4670 1.391 . S
C2761 C665 2.023 . S
C2767 C2143 2.048 . S
C2781 C381 1.704 . S
C2787 C2154 1.720 . S
C2801 C460 1.500 . S
C2807 C2223 1.524 . S
C2827 C2236 1.206 . S
C2821 C585 1.208 . S
C2841 C108 2.469 . S
C2847 C2292 2.440 . S
C2867 C2343 2.041 . S
C2861 C196 2.016 . S
C2887 C2372 2.380 . S
C2881 C313 2.390 . S
C2901 C49 2.380 . S
C2907 C2423 2.365 . S
C2927 C2114 1.000 . S
C2921 C1457 1.009 . S
C2941 C1545 0.859 . S
C2947 C2156 0.855 . S
C2967 C2194 1.032 . S
C2961 C1721 1.032 . S
C2987 C2263 1.686 . S
C2981 C1113 1.624 . S
C3001 C1428 0.558 . S
C3007 C2297 0.535 . S
C3027 C2314 1.349 . S
C3021 C1516 1.360 . S
C3047 C2377 0.223 . S
C3041 C1692 0.288 . S
C3067 C2394 2.064 . S
C3061 C1085 2.087 . S
C3087 C2116 1.528 . S
C3081 C988 1.575 . S
C3101 C1817 1.569 . S
C3107 C2455 1.533 . S
C3127 C2476 1.308 . S
C3121 C2081 1.379 . S
C3147 C2535 0.353 . S
C3141 C1993 0.390 . S
C3161 C761 0.893 . S
C3167 C2396 0.882 . S
C3181 C821 1.311 . S
C3187 C2196 1.274 . S
C3201 C2053 0.919 . S
C3207 C2554 0.936 . S
C3227 C2623 0.853 . S
C3221 C1868 0.874 . S
C3247 C2132 2.044 . S
C3241 C372 2.027 . S
C3267 C2615 1.712 . S
C3261 C645 1.711 . S
C3281 C577 1.496 . S
C3287 C2212 1.518 . S
C3301 C497 1.209 . S
C3307 C2577 1.196 . S
C3327 C2303 2.431 . S
C3321 C57 2.464 . S
C3341 C293 2.002 . S
C3347 C2492 2.030 . S
C3367 C2383 2.376 1_556 S
C3361 C205 2.384 . S
C3387 C2652 2.362 . S
C3381 C145 2.378 . S
C3407 C2135 1.008 . S
C3401 C909 1.008 . S
C3427 C2617 0.830 . S
C3421 C1956 0.832 . S
C3441 C724 1.039 . S
C3447 C2215 1.020 . S
C3461 C1780 1.637 . S
C3467 C2572 1.679 . S
C3481 C937 0.533 . S
C3487 C2276 0.543 . S
C3507 C2495 1.337 . S
C3501 C1985 1.356 . S
C3521 C753 0.295 . S
C3527 C2356 0.233 . S
C3541 C1809 2.091 . S
C3547 C2655 2.063 . S
C3561 C1173 1.580 . S
C3567 C2137 1.507 1_554 S
C3581 C1105 1.567 . S
C3587 C2434 1.518 . S
C3601 C1633 1.393 . S
C3607 C2337 1.329 . S
C3621 C1553 0.359 . S
C3627 C2514 0.318 . S
C3647 C2657 0.866 . S
C3641 C1729 0.884 . S
C3661 C1340 1.313 . S
C3667 C2217 1.276 . S
C3687 C2255 0.930 . S
C3681 C1604 0.934 . S
C3707 C2172 0.845 . S
C3701 C1252 0.860 . S
C3721 C489 2.026 . S
C3727 C2703 2.059 . S
C3747 C2594 1.720 . S
C3741 C557 1.699 . S
C3761 C636 1.501 . S
C3767 C2743 1.525 . S
C3781 C409 1.215 . S
C3787 C2556 1.187 . S
C3801 C284 2.468 . S
C3807 C2452 2.442 . S
C3827 C2503 2.043 . S
C3821 C20 2.010 . S
C3847 C2532 2.378 . S
C3841 C137 2.390 . S
C3867 C2663 2.369 . S
C3861 C225 2.371 . S
C3887 C2674 1.007 . S
C3881 C1641 1.012 . S
C3901 C1193 0.855 . S
C3907 C2596 0.840 . S
C3927 C2714 1.042 . S
C3921 C1289 1.050 . S
C3947 C2583 1.688 . S
C3941 C1377 1.643 . S
C3967 C2457 0.526 . S
C3961 C1613 0.556 . S
C3981 C1164 1.360 . S
C3987 C2474 1.350 . S
C4007 C2537 0.282 . S
C4001 C1261 0.260 . S
C4021 C1349 2.088 . S
C4027 C2634 2.067 . S
C4047 C2676 1.518 . S
C4041 C1965 1.567 . S
C4061 C849 1.569 . S
C4067 C2295 1.534 . S
C4087 C2316 1.308 . S
C4081 C929 1.378 . S
C4107 C2375 0.341 . S
C4101 C1017 0.400 . S
C4127 C2636 0.876 . S
C4121 C1897 0.881 . S
C4141 C1789 1.323 . S
C4147 C2716 1.299 . S
C4167 C2234 0.919 . S
C4161 C900 0.902 . S
C4187 C2183 0.877 . S
C4181 C733 0.869 . S
C4201 C548 2.029 . S
C4207 C2692 2.042 . S
C4227 C2175 1.717 . S
C4221 C469 1.694 . S
C4241 C401 1.502 . S
C4247 C2732 1.514 . S
C4261 C673 1.206 . S
C4267 C2257 1.196 . S
C4281 C233 2.462 . S
C4287 C2463 2.434 1_556 S
C4307 C2332 2.025 . S
C4301 C117 2.010 . S
C4321 C29 2.382 . S
C4327 C2543 2.379 . S
C4341 C321 2.371 . S
C4347 C2412 2.370 . S
C4367 C2695 1.008 . S
C4361 C2044 1.008 . S
C4381 C997 0.836 . S
C4387 C2177 0.806 . S
C4407 C2735 1.017 . S
C4401 C1877 1.035 . S
C4421 C812 1.629 . S
C4427 C2252 1.682 . S
C4441 C2073 0.499 . S
C4447 C2436 0.513 . S
C4467 C2335 1.345 . S
C4461 C1025 1.359 . S
C4481 C1905 0.275 . S
C4487 C2516 0.217 . S
C4507 C2415 2.072 . S
C4501 C841 2.095 . S
C4527 C2697 1.508 . S
C4521 C1525 1.573 . S
C4547 C2274 1.560 1_565 S
C4541 C1369 1.568 . S
C4561 C1465 1.400 . S
C4567 C2497 1.339 . S
C4587 C2354 0.403 . S
C4581 C1201 0.396 . S
C4601 C1281 0.893 . S
C4607 C2417 0.881 . S
C4621 C1076 1.322 . S
C4627 C2737 1.298 . S
C4647 C2575 0.908 . S
C4641 C1437 0.908 . S
C4667 C2612 0.869 . S
C4661 C1701 0.870 . S
