# Generated by pormake.
# Topology anh, (6,3)-cn, num edge types: 1
# Building blocks:
#     Node 0, Type 0, BuildingBlock: BETGAK_clean_sbu_0, # of connection points: 6
#     Node 1, Type 0, BuildingBlock: BETGAK_clean_sbu_0, # of connection points: 6
#     Node 2, Type 0, BuildingBlock: BETGAK_clean_sbu_0, # of connection points: 6
#     Node 3, Type 1, BuildingBlock: WUSLED_clean_sbu_0, # of connection points: 3
#     Node 4, Type 1, BuildingBlock: WUSLED_clean_sbu_0, # of connection points: 3
#     Node 5, Type 1, BuildingBlock: WUSLED_clean_sbu_0, # of connection points: 3
#     Node 6, Type 1, BuildingBlock: WUSLED_clean_sbu_0, # of connection points: 3
#     Node 7, Type 1, BuildingBlock: WUSLED_clean_sbu_0, # of connection points: 3
#     Node 8, Type 1, BuildingBlock: WUSLED_clean_sbu_0, # of connection points: 3
#     Edge 9, Type (0, 1), BuildingBlock: CIFDUS_clean_linker_0, # of connection points: 2
#     Edge 10, Type (0, 1), BuildingBlock: CIFDUS_clean_linker_0, # of connection points: 2
#     Edge 11, Type (0, 1), BuildingBlock: CIFDUS_clean_linker_0, # of connection points: 2
#     Edge 12, Type (0, 1), BuildingBlock: CIFDUS_clean_linker_0, # of connection points: 2
#     Edge 13, Type (0, 1), BuildingBlock: CIFDUS_clean_linker_0, # of connection points: 2
#     Edge 14, Type (0, 1), BuildingBlock: CIFDUS_clean_linker_0, # of connection points: 2
#     Edge 15, Type (0, 1), BuildingBlock: CIFDUS_clean_linker_0, # of connection points: 2
#     Edge 16, Type (0, 1), BuildingBlock: CIFDUS_clean_linker_0, # of connection points: 2
#     Edge 17, Type (0, 1), BuildingBlock: CIFDUS_clean_linker_0, # of connection points: 2
#     Edge 18, Type (0, 1), BuildingBlock: CIFDUS_clean_linker_0, # of connection points: 2
#     Edge 19, Type (0, 1), BuildingBlock: CIFDUS_clean_linker_0, # of connection points: 2
#     Edge 20, Type (0, 1), BuildingBlock: CIFDUS_clean_linker_0, # of connection points: 2
#     Edge 21, Type (0, 1), BuildingBlock: CIFDUS_clean_linker_0, # of connection points: 2
#     Edge 22, Type (0, 1), BuildingBlock: CIFDUS_clean_linker_0, # of connection points: 2
#     Edge 23, Type (0, 1), BuildingBlock: CIFDUS_clean_linker_0, # of connection points: 2
#     Edge 24, Type (0, 1), BuildingBlock: CIFDUS_clean_linker_0, # of connection points: 2
#     Edge 25, Type (0, 1), BuildingBlock: CIFDUS_clean_linker_0, # of connection points: 2
#     Edge 26, Type (0, 1), BuildingBlock: CIFDUS_clean_linker_0, # of connection points: 2
# Relax obj value: 0.180
# Max RMSD: 0.205
# Mean RMSD: 0.152
data_MOF--net-anh--node1-BETGAK_clean_sbu_0--node2-WUSLED_clean_sbu_0--edge1-CIFDUS_clean_linker_0
_symmetry_space_group_name_H-M    P1
_symmetry_Int_Tables_number       1
_symmetry_cell_setting            triclinic
loop_
_symmetry_equiv_pos_as_xyz
'x, y, z'
_cell_length_a     37.33102
_cell_length_b     42.446132
_cell_length_c     63.332108
_cell_angle_alpha  91.732691
_cell_angle_beta   89.692235
_cell_angle_gamma 128.92081
loop_
_atom_site_label
_atom_site_type_symbol
_atom_site_fract_x
_atom_site_fract_y
_atom_site_fract_z
_atom_type_partial_charge
La0 La 0.09885 0.50409 0.16929 0.0
La1 La 1.05529 0.53926 0.16822 0.0
C2 C 0.15256 0.48906 0.16442 0.0
C3 C 0.20111 0.51574 0.17058 0.0
C4 C 0.21486 0.52308 0.19199 0.0
C5 C 0.2613 0.54686 0.19741 0.0
C6 C 0.29413 0.56297 0.18148 0.0
C7 C 0.28056 0.56013 0.16039 0.0
C8 C 0.23425 0.53623 0.15496 0.0
C9 C 0.07424 0.512 0.20719 0.0
C10 C 0.16205 0.60137 0.17036 0.0
C11 C 1.01661 0.56459 0.18434 0.0
C12 C 0.96788 0.54434 0.18523 0.0
C13 C 0.94326 0.5379 0.1668 0.0
C14 C 0.89588 0.51349 0.16724 0.0
C15 C 0.87268 0.49499 0.18603 0.0
C16 C 0.8971 0.50066 0.20429 0.0
C17 C 0.94462 0.52566 0.20397 0.0
C18 C 0.05914 0.52334 0.12749 0.0
C19 C 0.99316 0.44279 0.16739 0.0
O20 O 0.12355 0.47472 0.17991 0.0
O21 O 0.1419 0.50209 0.14916 0.0
O22 O 0.06907 0.48041 0.20028 0.0
O23 O 0.09334 0.53772 0.19278 0.0
O24 O 0.16004 0.56926 0.17248 0.0
O25 O 0.1242 0.59666 0.16731 0.0
O26 O 1.0355 0.57549 0.1657 0.0
O27 O 1.02818 0.54616 0.19488 0.0
O28 O 1.0399 0.53824 0.13475 0.0
O29 O 0.07404 0.51612 0.14315 0.0
O30 O 0.99487 0.47447 0.17176 0.0
O31 O 1.03067 0.448 0.16224 0.0
H32 H 0.18991 0.50895 0.2045 0.0
H33 H 0.27117 0.54882 0.21375 0.0
H34 H 0.30513 0.57213 0.14772 0.0
H35 H 0.22434 0.53218 0.13843 0.0
H36 H 0.96035 0.55142 0.15206 0.0
H37 H 0.87761 0.5105 0.15309 0.0
H38 H 0.87948 0.48682 0.2189 0.0
H39 H 0.96318 0.52975 0.21826 0.0
La40 La 0.58961 1.00977 0.48982 0.0
La41 La 0.54304 0.04246 0.48664 0.0
C42 C 0.61556 0.96936 0.4988 0.0
C43 C 0.59777 0.9269 0.49777 0.0
C44 C 0.59754 0.90878 0.47874 0.0
C45 C 0.58769 0.87111 0.47867 0.0
C46 C 0.57825 0.85095 0.49764 0.0
C47 C 0.57597 0.86815 0.51643 0.0
C48 C 0.58556 0.90565 0.51647 0.0
C49 C 0.58813 0.0298 0.45088 0.0
C50 C 0.48008 0.94971 0.48217 0.0
C51 C 0.51983 0.08479 0.47762 0.0
C52 C 0.53654 0.12603 0.48307 0.0
C53 C 0.5431 0.13979 0.50422 0.0
C54 C 0.55139 0.17611 0.50915 0.0
C55 C 0.55346 0.19928 0.49306 0.0
C56 C 0.5516 0.18759 0.47188 0.0
C57 C 0.54302 0.15103 0.46693 0.0
C58 C 0.54782 0.02426 0.52581 0.0
C59 C 0.6528 0.10365 0.4914 0.0
O60 O 0.6238 0.98707 0.4809 0.0
O61 O 0.5969 0.97877 0.51242 0.0
O62 O 0.62268 0.03544 0.45999 0.0
O63 O 0.55458 1.01214 0.46338 0.0
O64 O 0.51595 0.95444 0.49027 0.0
O65 O 0.48503 0.98158 0.47599 0.0
O66 O 0.5014 0.05885 0.49276 0.0
O67 O 0.54679 0.08215 0.46591 0.0
O68 O 0.51239 0.01835 0.51761 0.0
O69 O 0.57978 0.04144 0.51263 0.0
O70 O 0.61505 0.09767 0.48551 0.0
O71 O 0.65048 0.07269 0.49709 0.0
H72 H 0.60661 0.92427 0.46399 0.0
H73 H 0.5888 0.85835 0.46385 0.0
H74 H 0.56931 0.85383 0.53139 0.0
H75 H 0.58555 0.9189 0.53136 0.0
H76 H 0.53955 0.12163 0.51699 0.0
H77 H 0.55361 0.18502 0.52562 0.0
H78 H 0.55339 0.20511 0.45922 0.0
H79 H 0.53902 0.14125 0.45051 0.0
La80 La 0.62779 0.58574 0.84193 0.0
La81 La 0.56998 0.49891 0.83985 0.0
C82 C 0.662 0.65734 0.83377 0.0
C83 C 0.64481 0.68075 0.83327 0.0
C84 C 0.64644 0.70153 0.85148 0.0
C85 C 0.63286 0.72562 0.85052 0.0
C86 C 0.61758 0.7296 0.8313 0.0
C87 C 0.6145 0.70769 0.81331 0.0
C88 C 0.62817 0.68378 0.81425 0.0
C89 C 0.61187 0.55374 0.8781 0.0
C90 C 0.51396 0.53453 0.8455 0.0
C91 C 0.53363 0.42575 0.8453 0.0
C92 C 0.5469 0.39961 0.84197 0.0
C93 C 0.52218 0.36727 0.82703 0.0
C94 C 0.53243 0.34098 0.82405 0.0
C95 C 0.56775 0.34646 0.83591 0.0
C96 C 0.59338 0.37938 0.85053 0.0
C97 C 0.58294 0.40567 0.85361 0.0
C98 C 0.58476 0.53026 0.80241 0.0
C99 C 0.68384 0.5502 0.84414 0.0
O100 O 0.66533 0.64646 0.85228 0.0
O101 O 0.64554 0.62836 0.81929 0.0
O102 O 0.65142 0.58732 0.87342 0.0
O103 O 0.58265 0.5406 0.8635 0.0
O104 O 0.55641 0.57039 0.84364 0.0
O105 O 0.51136 0.50142 0.84562 0.0
O106 O 0.52764 0.43861 0.82824 0.0
O107 O 0.5551 0.45403 0.8603 0.0
O108 O 0.54625 0.49747 0.80851 0.0
O109 O 0.61482 0.54416 0.81703 0.0
O110 O 0.64102 0.51432 0.84357 0.0
O111 O 0.6872 0.58349 0.84221 0.0
H112 H 0.65912 0.69989 0.86641 0.0
H113 H 0.63586 0.74222 0.86464 0.0
H114 H 0.60197 0.70938 0.79834 0.0
H115 H 0.62631 0.66814 0.79994 0.0
H116 H 0.49454 0.36208 0.81772 0.0
H117 H 0.51275 0.31633 0.81238 0.0
H118 H 0.62086 0.3843 0.85984 0.0
H119 H 0.60283 0.43044 0.86519 0.0
C120 C 0.67209 0.13664 0.18978 0.0
C121 C 0.70073 0.16302 0.20671 0.0
C122 C 0.75218 0.21766 0.18218 0.0
C123 C 0.74048 0.20313 0.20293 0.0
C124 C 0.72343 0.19064 0.16545 0.0
C125 C 0.68415 0.15097 0.16921 0.0
U126 U 0.56812 0.03443 0.21691 0.0
O127 O 0.49767 0.99359 0.20281 0.0
O128 O 0.53868 0.97282 0.20498 0.0
C129 C 0.50024 0.96463 0.1983 0.0
C130 C 0.62968 0.094 0.19227 0.0
C131 C 0.45736 0.92175 0.19595 0.0
C132 C 0.39087 0.86993 0.17369 0.0
C133 C 0.43043 0.91015 0.1775 0.0
C134 C 0.4043 0.85126 0.20663 0.0
C135 C 0.37695 0.83982 0.18821 0.0
C136 C 0.4441 0.89185 0.21049 0.0
C137 C 0.56855 0.04109 0.28082 0.0
C138 C 0.52275 1.00085 0.31091 0.0
C139 C 0.59621 0.06738 0.31677 0.0
C140 C 0.60199 0.07183 0.29498 0.0
C141 C 0.55689 0.03165 0.3252 0.0
C142 C 0.52853 1.00553 0.28887 0.0
C143 C 0.57785 0.04845 0.25801 0.0
O144 O 0.6338 0.06788 0.19978 0.0
O145 O 0.59194 0.08759 0.19833 0.0
O146 O 0.55265 0.05312 0.24625 0.0
O147 O 0.59546 0.03386 0.24763 0.0
H148 H 0.69231 0.15276 0.22276 0.0
H149 H 0.76151 0.22296 0.21627 0.0
H150 H 0.73142 0.20003 0.14925 0.0
H151 H 0.66295 0.13124 0.15585 0.0
H152 H 0.37128 0.8623 0.1592 0.0
H153 H 0.4403 0.93233 0.1658 0.0
H154 H 0.39449 0.82895 0.21821 0.0
H155 H 0.46442 0.89981 0.22475 0.0
H156 H 0.49208 0.97282 0.31672 0.0
H157 H 0.62279 0.09234 0.32701 0.0
H158 H 0.63298 0.09967 0.28915 0.0
H159 H 0.50213 0.98142 0.2782 0.0
C160 C 0.56325 0.59692 0.5346 0.0
C161 C 0.55937 0.61691 0.55137 0.0
C162 C 0.55635 0.65783 0.52643 0.0
C163 C 0.55596 0.64714 0.54731 0.0
C164 C 0.56065 0.63786 0.50973 0.0
C165 C 0.56406 0.60765 0.51381 0.0
U166 U 0.57377 0.53376 0.57185 0.0
O167 O 0.53968 0.46862 0.56998 0.0
O168 O 0.61522 0.51352 0.56841 0.0
C169 C 0.5788 0.47502 0.56779 0.0
C170 C 0.56651 0.56489 0.53852 0.0
C171 C 0.57907 0.44817 0.55274 0.0
C172 C 0.57764 0.42285 0.51741 0.0
C173 C 0.57809 0.45041 0.53063 0.0
C174 C 0.57967 0.39174 0.54838 0.0
C175 C 0.57772 0.39292 0.52633 0.0
C176 C 0.58024 0.41896 0.56138 0.0
C177 C 0.5806 0.55517 0.63244 0.0
C178 C 0.56535 0.51141 0.66112 0.0
C179 C 0.59884 0.58125 0.66894 0.0
C180 C 0.59818 0.58711 0.64734 0.0
C181 C 0.58159 0.54313 0.67617 0.0
C182 C 0.56497 0.51739 0.63945 0.0
C183 C 0.57678 0.56184 0.61002 0.0
O184 O 0.60617 0.57736 0.54636 0.0
O185 O 0.53086 0.53285 0.54776 0.0
O186 O 0.53822 0.53292 0.59993 0.0
O187 O 0.61348 0.5775 0.59848 0.0
H188 H 0.55899 0.60912 0.56755 0.0
H189 H 0.55349 0.66243 0.56054 0.0
H190 H 0.56065 0.64511 0.49348 0.0
H191 H 0.5671 0.5925 0.5007 0.0
H192 H 0.57607 0.42421 0.50042 0.0
H193 H 0.57726 0.47297 0.5237 0.0
H194 H 0.58036 0.36933 0.55564 0.0
H195 H 0.58124 0.41694 0.57836 0.0
H196 H 0.55223 0.48176 0.66614 0.0
H197 H 0.61107 0.60614 0.68006 0.0
H198 H 0.61032 0.61647 0.64228 0.0
H199 H 0.55153 0.49232 0.62826 0.0
C200 C 0.98762 0.54063 0.8682 0.0
C201 C 0.97161 0.55369 0.88415 0.0
C202 C 0.90745 0.54207 0.86139 0.0
C203 C 0.93332 0.55447 0.88087 0.0
C204 C 0.92386 0.52926 0.84562 0.0
C205 C 0.96209 0.5289 0.8488 0.0
U206 U 0.09508 0.53652 0.88823 0.0
O207 O 0.11845 0.50448 0.87114 0.0
O208 O 0.16636 0.56931 0.87487 0.0
C209 C 0.16127 0.53701 0.86808 0.0
C210 C 1.03023 0.53988 0.8703 0.0
C211 C 0.20369 0.53588 0.8679 0.0
C212 C 0.24932 0.5169 0.84949 0.0
C213 C 0.20964 0.5159 0.85124 0.0
C214 C 0.28077 0.55774 0.88107 0.0
C215 C 0.28728 0.53825 0.86423 0.0
C216 C 0.2412 0.55683 0.88276 0.0
C217 C 0.08797 0.5295 0.95334 0.0
C218 C 0.11358 0.53257 0.98973 0.0
C219 C 1.04237 0.52105 0.98395 0.0
C220 C 1.04883 0.52261 0.96183 0.0
C221 C 0.07488 0.52649 0.99848 0.0
C222 C 0.11995 0.5341 0.96763 0.0
C223 C 0.09678 0.5319 0.92993 0.0
O224 O 0.07176 0.57147 0.87698 0.0
O225 O 1.02493 0.50646 0.87291 0.0
O226 O 0.07045 0.5 0.91711 0.0
O227 O 0.11975 0.56641 0.92027 0.0
H228 H 0.98858 0.56329 0.89951 0.0
H229 H 0.92332 0.56413 0.89404 0.0
H230 H 0.90697 0.51939 0.83024 0.0
H231 H 0.97182 0.5191 0.83558 0.0
H232 H 0.2504 0.50122 0.83603 0.0
H233 H 0.18336 0.49959 0.83893 0.0
H234 H 0.30661 0.57424 0.8935 0.0
H235 H 0.24038 0.57316 0.89596 0.0
H236 H 0.13979 0.53723 0.99994 0.0
H237 H 1.01144 0.51535 0.98962 0.0
H238 H 1.02324 0.51856 0.9514 0.0
H239 H 0.15044 0.53926 0.96166 0.0
C240 C 0.95328 0.41854 0.46736 0.0
C241 C 0.92014 0.39805 0.45099 0.0
C242 C 0.87135 0.33726 0.47219 0.0
C243 C 0.87974 0.3579 0.45336 0.0
C244 C 0.90513 0.35786 0.48838 0.0
C245 C 0.94539 0.39791 0.48599 0.0
U246 U 0.05561 0.52518 0.44336 0.0
O247 O 0.08328 0.58456 0.45833 0.0
O248 O 0.1257 0.56512 0.45757 0.0
C249 C 0.12219 0.59274 0.46411 0.0
C250 C 0.99511 0.46183 0.46635 0.0
C251 C 0.1647 0.63561 0.46664 0.0
C252 C 0.2239 0.69006 0.49076 0.0
C253 C 0.18312 0.65046 0.48714 0.0
C254 C 0.22873 0.7016 0.45335 0.0
C255 C 0.24787 0.71625 0.47394 0.0
C256 C 0.1876 0.66162 0.44972 0.0
C257 C 1.05013 0.52065 0.37854 0.0
C258 C 0.09118 0.55028 0.34561 0.0
C259 C 1.01028 0.49218 0.34445 0.0
C260 C 1.00998 0.49195 0.36659 0.0
C261 C 1.05075 0.52153 0.33349 0.0
C262 C 0.09088 0.54976 0.36787 0.0
C263 C 1.04839 0.51908 0.40197 0.0
O264 O 1.03325 0.46993 0.45942 0.0
O265 O 0.98998 0.48824 0.46049 0.0
O266 O 1.02826 0.53004 0.41354 0.0
O267 O 0.0733 0.51266 0.41262 0.0
H268 H 0.92522 0.41317 0.43648 0.0
H269 H 0.85495 0.34302 0.4404 0.0
H270 H 0.8999 0.34349 0.50319 0.0
H271 H 0.97018 0.41315 0.49897 0.0
H272 H 0.23662 0.70014 0.50687 0.0
H273 H 0.16599 0.63113 0.5005 0.0
H274 H 0.24616 0.72067 0.43995 0.0
H275 H 0.17407 0.65095 0.43375 0.0
H276 H 0.12296 0.57363 0.33793 0.0
H277 H 0.97865 0.46887 0.33593 0.0
H278 H 0.97821 0.46892 0.37443 0.0
H279 H 0.12235 0.5723 0.37674 0.0
C280 C 0.56587 0.946 0.79324 0.0
C281 C 0.56168 0.92153 0.77645 0.0
C282 C 0.57711 0.8872 0.80053 0.0
C283 C 0.56695 0.89225 0.78008 0.0
C284 C 0.5795 0.91082 0.81741 0.0
C285 C 0.57393 0.93992 0.81376 0.0
U286 U 0.56164 1.01551 0.75723 0.0
O287 O 0.52655 0.04169 0.76225 0.0
O288 O 0.60204 0.08174 0.7601 0.0
C289 C 0.56541 0.07912 0.76306 0.0
C290 C 0.56449 0.9794 0.78956 0.0
C291 C 0.56976 0.10832 0.77843 0.0
C292 C 0.54662 0.12516 0.81007 0.0
C293 C 0.54676 0.09705 0.7978 0.0
C294 C 0.59414 0.1762 0.78428 0.0
C295 C 0.56942 0.16482 0.80313 0.0
C296 C 0.59428 0.14831 0.77214 0.0
C297 C 0.55773 0.99814 0.69583 0.0
C298 C 0.56127 0.03851 0.66795 0.0
C299 C 0.55886 0.9815 0.65875 0.0
C300 C 0.557 0.97361 0.68022 0.0
C301 C 0.56127 1.01419 0.65216 0.0
C302 C 0.55964 0.03064 0.68956 0.0
C303 C 0.55797 0.98937 0.71832 0.0
O304 O 0.60135 1.01136 0.78091 0.0
O305 O 0.52597 0.96923 0.78151 0.0
O306 O 0.52119 0.97595 0.72935 0.0
O307 O 0.59655 1.01546 0.72908 0.0
H308 H 0.55527 0.92562 0.7605 0.0
H309 H 0.56379 0.87399 0.76676 0.0
H310 H 0.58753 0.90805 0.83331 0.0
H311 H 0.57723 0.95853 0.82694 0.0
H312 H 0.52765 0.1156 0.82465 0.0
H313 H 0.52773 0.06637 0.80307 0.0
H314 H 0.6114 0.20611 0.77824 0.0
H315 H 0.61195 0.15757 0.75721 0.0
H316 H 0.56235 0.06358 0.66367 0.0
H317 H 0.55957 0.96237 0.64736 0.0
H318 H 0.55571 0.94847 0.68468 0.0
H319 H 0.56017 0.05001 0.70132 0.0
C320 C 0.5971 0.4778 0.13764 0.0
C321 C 0.62897 0.48458 0.12272 0.0
C322 C 0.66141 0.46851 0.1487 0.0
C323 C 0.66134 0.48018 0.12828 0.0
C324 C 0.6304 0.46313 0.16377 0.0
C325 C 0.5983 0.46791 0.15824 0.0
U326 U 0.53222 0.47067 0.09209 0.0
O327 O 0.45775 0.43271 0.08607 0.0
O328 O 0.50115 0.4993 0.08562 0.0
C329 C 0.4595 0.46464 0.08749 0.0
C330 C 0.55854 0.47472 0.13057 0.0
C331 C 0.43569 0.46507 0.10552 0.0
C332 C 0.43555 0.47336 0.1436 0.0
C333 C 0.45019 0.46448 0.12589 0.0
C334 C 0.38963 0.48111 0.12075 0.0
C335 C 0.4062 0.4827 0.14095 0.0
C336 C 0.40457 0.47247 0.103 0.0
C337 C 0.57343 0.4771 0.038 0.0
C338 C 0.52679 0.47068 0.00909 0.0
C339 C 0.60719 0.50164 1.00393 0.0
C340 C 0.61134 0.49547 0.02487 0.0
C341 C 0.56482 0.48904 0.9958 0.0
C342 C 0.53117 0.46494 0.03016 0.0
C343 C 0.57965 0.47537 0.0604 0.0
O344 O 0.5698 0.50672 0.1209 0.0
O345 O 0.52728 0.44012 0.12044 0.0
O346 O 0.54711 0.44076 0.06904 0.0
O347 O 0.59111 0.50743 0.07128 0.0
H348 H 0.62758 0.4917 0.10661 0.0
H349 H 0.68568 0.48524 0.11662 0.0
H350 H 0.62997 0.45394 0.1796 0.0
H351 H 0.57322 0.46211 0.16966 0.0
H352 H 0.44884 0.47496 0.15912 0.0
H353 H 0.47468 0.45923 0.12802 0.0
H354 H 0.36683 0.48844 0.11869 0.0
H355 H 0.39372 0.47353 0.08739 0.0
H356 H 0.49386 0.46083 1.00322 0.0
H357 H 0.63749 0.51706 0.99421 0.0
H358 H 0.64443 0.50604 0.03097 0.0
H359 H 0.5019 0.45169 0.04042 0.0
H360 H 0.29808 0.50969 0.19981 0.0
H361 H 0.38147 0.62401 0.16889 0.0
H362 H 0.43366 0.61108 0.15709 0.0
H363 H 0.44047 0.55904 0.14716 0.0
H364 H 0.3488 0.44063 0.17325 0.0
H365 H 0.31452 0.46307 0.19573 0.0
C366 C 0.32926 0.53295 0.19163 0.0
C367 C 0.33593 0.56753 0.18493 0.0
C368 C 0.35646 0.52367 0.1835 0.0
C369 C 0.37603 0.59726 0.17416 0.0
C370 C 0.40521 0.58945 0.1671 0.0
C371 C 0.41424 0.53892 0.15846 0.0
C372 C 0.3963 0.49846 0.15868 0.0
C373 C 0.39358 0.55151 0.17035 0.0
C374 C 0.36254 0.47195 0.17307 0.0
C375 C 0.34299 0.48474 0.18575 0.0
H376 H 0.66859 0.16977 0.47499 0.0
H377 H 0.73861 0.13283 0.50627 0.0
H378 H 0.81189 0.20173 0.50388 0.0
H379 H 0.85672 0.27239 0.4916 0.0
H380 H 0.78475 0.30721 0.45995 0.0
H381 H 0.71209 0.23936 0.46367 0.0
C382 C 0.69974 0.1766 0.48142 0.0
C383 C 0.69773 0.14578 0.49083 0.0
C384 C 0.74177 0.21608 0.47972 0.0
C385 C 0.73884 0.15566 0.49891 0.0
C386 C 0.78087 0.19517 0.49752 0.0
C387 C 0.82514 0.26525 0.48561 0.0
C388 C 0.82681 0.29523 0.47517 0.0
C389 C 0.78289 0.22565 0.48777 0.0
C390 C 0.78517 0.28494 0.46756 0.0
C391 C 0.74333 0.24605 0.46983 0.0
H392 H 0.6415 0.78072 0.79974 0.0
H393 H 0.57113 0.74307 0.85916 0.0
H394 H 0.55298 0.789 0.85529 0.0
H395 H 0.55454 0.83796 0.834 0.0
H396 H 0.62628 0.87495 0.77477 0.0
H397 H 0.6449 0.83006 0.7793 0.0
C398 C 0.62163 0.78208 0.81175 0.0
C399 C 0.6071 0.75798 0.82953 0.0
C400 C 0.611 0.8081 0.80931 0.0
C401 C 0.58276 0.76126 0.84528 0.0
C402 C 0.57216 0.78737 0.84301 0.0
C403 C 0.57449 0.8364 0.82215 0.0
C404 C 0.58821 0.85947 0.80385 0.0
C405 C 0.58576 0.8107 0.82496 0.0
C406 C 0.61401 0.85684 0.78869 0.0
C407 C 0.62515 0.83143 0.79136 0.0
H408 H 0.80503 0.44043 0.15881 0.0
H409 H 0.83539 0.51306 0.21542 0.0
H410 H 0.76784 0.508 0.20924 0.0
H411 H 0.71157 0.49561 0.18418 0.0
H412 H 0.68413 0.42814 0.12579 0.0
H413 H 0.74189 0.42089 0.13544 0.0
C414 C 0.79549 0.45366 0.17012 0.0
C415 C 0.82467 0.47732 0.18729 0.0
C416 C 0.75901 0.45338 0.16559 0.0
C417 C 0.81275 0.49435 0.20216 0.0
C418 C 0.77488 0.4923 0.19839 0.0
C419 C 0.71725 0.47825 0.17389 0.0
C420 C 0.69407 0.4623 0.15448 0.0
C421 C 0.74959 0.47392 0.17958 0.0
C422 C 0.7024 0.44098 0.1408 0.0
C423 C 0.73476 0.4364 0.14638 0.0
H424 H 0.44682 0.87866 0.50122 0.0
H425 H 0.4104 0.92788 0.45542 0.0
H426 H 0.33637 0.8611 0.44878 0.0
H427 H 0.28144 0.78803 0.45557 0.0
H428 H 0.31699 0.73883 0.50188 0.0
H429 H 0.39056 0.80572 0.50888 0.0
C430 C 0.42273 0.87474 0.48975 0.0
C431 C 0.43466 0.90847 0.47873 0.0
C432 C 0.37953 0.836 0.48612 0.0
C433 C 0.40247 0.9027 0.46416 0.0
C434 C 0.35996 0.86436 0.4603 0.0
C435 C 0.30537 0.79177 0.46706 0.0
C436 C 0.29317 0.7579 0.47805 0.0
C437 C 0.34808 0.83065 0.47108 0.0
C438 C 0.32472 0.76402 0.49323 0.0
C439 C 0.36721 0.80241 0.4972 0.0
H440 H 0.50654 0.26453 0.83631 0.0
H441 H 0.65067 0.36402 0.82851 0.0
H442 H 0.66501 0.31626 0.81954 0.0
H443 H 0.6351 0.24633 0.81113 0.0
H444 H 0.49065 0.14709 0.81895 0.0
H445 H 0.47809 0.1945 0.83117 0.0
C446 C 0.54113 0.27566 0.83278 0.0
C447 C 0.57741 0.31766 0.83279 0.0
C448 C 0.54904 0.24806 0.8277 0.0
C449 C 0.62222 0.33179 0.82858 0.0
C450 C 0.63035 0.30451 0.82337 0.0
C451 C 0.60095 0.23505 0.81571 0.0
C452 C 0.56382 0.19314 0.81396 0.0
C453 C 0.59383 0.26259 0.82247 0.0
C454 C 0.51994 0.17904 0.82029 0.0
C455 C 0.51261 0.20621 0.82708 0.0
H456 H 0.52136 0.78479 0.52164 0.0
H457 H 0.62835 0.83466 0.47534 0.0
H458 H 0.62893 0.77807 0.47921 0.0
H459 H 0.6039 0.71759 0.49794 0.0
H460 H 0.49922 0.66935 0.54525 0.0
H461 H 0.49436 0.72311 0.53936 0.0
C462 C 0.54494 0.78342 0.51242 0.0
C463 C 0.57486 0.81417 0.49831 0.0
C464 C 0.54622 0.75149 0.5152 0.0
C465 C 0.60441 0.81125 0.48614 0.0
C466 C 0.6052 0.77909 0.48851 0.0
C467 C 0.57956 0.71849 0.50675 0.0
C468 C 0.55222 0.68964 0.52213 0.0
C469 C 0.5769 0.74948 0.50329 0.0
C470 C 0.52126 0.69159 0.53359 0.0
C471 C 0.5182 0.72214 0.53013 0.0
H472 H 0.70401 0.4938 0.83727 0.0
H473 H 0.7704 0.61561 0.86061 0.0
H474 H 0.84028 0.62422 0.86867 0.0
H475 H 0.88654 0.59808 0.8698 0.0
H476 H 0.82238 0.47872 0.84311 0.0
H477 H 0.75185 0.46949 0.83616 0.0
C478 C 0.73349 0.52255 0.84409 0.0
C479 C 0.72907 0.55387 0.84817 0.0
C480 C 0.77605 0.52812 0.84839 0.0
C481 C 0.77008 0.59035 0.85694 0.0
C482 C 0.81113 0.59542 0.86173 0.0
C483 C 0.85739 0.56972 0.86252 0.0
C484 C 0.86242 0.53895 0.85748 0.0
C485 C 0.81526 0.56465 0.85769 0.0
C486 C 0.82222 0.50344 0.84758 0.0
C487 C 0.78073 0.49797 0.84349 0.0
H488 H 0.17796 0.67355 0.16676 0.0
H489 H 0.24677 0.6247 0.18169 0.0
H490 H 0.3184 0.69325 0.18897 0.0
H491 H 0.36203 0.76772 0.19154 0.0
H492 H 0.29319 0.81598 0.17556 0.0
H493 H 0.22169 0.74754 0.16833 0.0
C494 C 0.20862 0.67774 0.17148 0.0
C495 C 0.2066 0.64355 0.17359 0.0
C496 C 0.24998 0.71745 0.1756 0.0
C497 C 0.24699 0.6501 0.17981 0.0
C498 C 0.28809 0.68946 0.18407 0.0
C499 C 0.3313 0.76321 0.1866 0.0
C500 C 0.33325 0.79726 0.18421 0.0
C501 C 0.29005 0.72344 0.18215 0.0
C502 C 0.29303 0.79062 0.17746 0.0
C503 C 0.25195 0.75134 0.17334 0.0
H504 H 0.60703 0.2776 0.47972 0.0
H505 H 0.49051 0.19174 0.51815 0.0
H506 H 0.48375 0.24316 0.52911 0.0
H507 H 0.51432 0.31315 0.53034 0.0
H508 H 0.6331 0.40184 0.49413 0.0
H509 H 0.63488 0.34867 0.47908 0.0
C510 C 0.58014 0.27036 0.49038 0.0
C511 C 0.54996 0.23132 0.49855 0.0
C512 C 0.57666 0.30041 0.49685 0.0
C513 C 0.51487 0.22193 0.51216 0.0
C514 C 0.51071 0.25117 0.51829 0.0
C515 C 0.54017 0.32069 0.51888 0.0
C516 C 0.57372 0.36114 0.51345 0.0
C517 C 0.54192 0.29058 0.5111 0.0
C518 C 0.60681 0.37072 0.49845 0.0
C519 C 0.60811 0.34044 0.49008 0.0
H520 H 0.49401 0.58353 0.86755 0.0
H521 H 0.42656 0.47629 0.82734 0.0
H522 H 0.35535 0.46805 0.82825 0.0
H523 H 0.30813 0.49006 0.84074 0.0
H524 H 0.37573 0.59539 0.88278 0.0
H525 H 0.44624 0.60376 0.88105 0.0
C526 C 0.46403 0.55813 0.85886 0.0
C527 C 0.46838 0.5308 0.84713 0.0
C528 C 0.42088 0.55251 0.85996 0.0
C529 C 0.42677 0.49829 0.83658 0.0
C530 C 0.385 0.49346 0.83711 0.0
C531 C 0.33789 0.51514 0.84967 0.0
C532 C 0.33307 0.54171 0.86218 0.0
C533 C 0.38083 0.52018 0.84879 0.0
C534 C 0.37467 0.57331 0.8732 0.0
C535 C 0.41657 0.57858 0.87211 0.0
H536 H 0.90511 0.39731 0.15041 0.0
H537 H 0.98817 0.39397 0.19571 0.0
H538 H 0.92181 0.32544 0.20513 0.0
H539 H 0.83966 0.26536 0.20021 0.0
H540 H 0.75761 0.26753 0.15349 0.0
H541 H 0.82346 0.33625 0.14472 0.0
C542 C 0.90849 0.38155 0.16238 0.0
C543 C 0.95151 0.40096 0.17246 0.0
C544 C 0.87018 0.34142 0.16738 0.0
C545 C 0.95547 0.37979 0.18771 0.0
C546 C 0.91745 0.34052 0.19313 0.0
C547 C 0.83598 0.28096 0.18827 0.0
C548 C 0.79317 0.26075 0.17764 0.0
C549 C 0.87448 0.32087 0.18308 0.0
C550 C 0.78985 0.28169 0.16191 0.0
C551 C 0.82762 0.32133 0.1569 0.0
H552 H 1.03289 0.54471 0.09439 0.0
H553 H 0.10118 0.49495 0.10748 0.0
H554 H 0.1125 0.49152 0.06937 0.0
H555 H 0.10227 0.50245 0.03172 0.0
H556 H 1.03581 0.55482 0.02018 0.0
H557 H 1.02442 0.55685 0.05777 0.0
C558 C 1.05015 0.5329 0.08901 0.0
C559 C 0.06579 0.51985 0.10411 0.0
C560 C 0.05676 0.53126 0.06702 0.0
C561 C 0.08841 0.50503 0.09649 0.0
C562 C 0.09496 0.50314 0.07456 0.0
C563 C 0.08545 0.51451 0.03732 0.0
C564 C 0.06921 0.52771 0.0224 0.0
C565 C 0.07926 0.51618 0.05954 0.0
C566 C 1.04756 0.54313 0.0306 0.0
C567 C 1.04133 0.54474 0.05237 0.0
H568 H 0.51373 1.00152 0.42389 0.0
H569 H 0.66105 0.06906 0.42567 0.0
H570 H 0.6639 0.07446 0.38764 0.0
H571 H 0.62568 0.0583 0.35369 0.0
H572 H 0.47931 0.99403 0.35008 0.0
H573 H 0.47491 0.98819 0.38862 0.0
C574 C 0.54636 0.01764 0.4159 0.0
C575 C 0.58712 0.03455 0.42773 0.0
C576 C 0.54799 0.02079 0.39358 0.0
C577 C 0.6291 0.05541 0.41708 0.0
C578 C 0.63086 0.05853 0.39523 0.0
C579 C 0.59273 0.04357 0.36121 0.0
C580 C 0.55299 0.02692 0.34875 0.0
C581 C 0.59063 0.04106 0.3833 0.0
C582 C 0.51056 1.00685 0.35907 0.0
C583 C 0.50807 1.00378 0.3812 0.0
H584 H 0.52493 0.48716 0.77005 0.0
H585 H 0.66361 0.59558 0.78353 0.0
H586 H 0.67512 0.60962 0.74559 0.0
H587 H 0.64511 0.59006 0.70836 0.0
H588 H 0.50687 0.4796 0.69613 0.0
H589 H 0.49609 0.46717 0.7338 0.0
C590 C 0.55782 0.51396 0.76479 0.0
C591 C 0.59336 0.54034 0.77967 0.0
C592 C 0.56431 0.52125 0.74309 0.0
C593 C 0.63568 0.5748 0.77244 0.0
C594 C 0.64222 0.58275 0.75074 0.0
C595 C 0.61269 0.56327 0.71398 0.0
C596 C 0.57693 0.53561 0.69931 0.0
C597 C 0.60674 0.55606 0.73587 0.0
C598 C 0.53522 0.50099 0.70691 0.0
C599 C 0.52889 0.494 0.72851 0.0
H600 H 0.59492 0.07967 0.55867 0.0
H601 H 0.50652 0.95173 0.54322 0.0
H602 H 0.50332 0.93709 0.58064 0.0
H603 H 0.52136 0.96029 0.61793 0.0
H604 H 0.60958 0.08848 0.63374 0.0
H605 H 0.61581 0.10317 0.59634 0.0
C606 C 0.57554 0.04868 0.56355 0.0
C607 C 0.55121 1.01676 0.54821 0.0
C608 C 0.57291 0.04045 0.58527 0.0
C609 C 0.52564 0.97673 0.55473 0.0
C610 C 0.52364 0.96837 0.57615 0.0
C611 C 0.54256 0.99155 0.61331 0.0
C612 C 0.56477 0.0231 0.62901 0.0
C613 C 0.54646 0.99993 0.59162 0.0
C614 C 0.59123 0.06331 0.62233 0.0
C615 C 0.59525 0.07185 0.60081 0.0
H616 H 0.55611 0.54701 0.90739 0.0
H617 H 0.64586 0.51847 0.89267 0.0
H618 H 0.63291 0.48964 0.92749 0.0
H619 H 0.60119 0.47797 0.96258 0.0
H620 H 0.52053 0.51556 0.97935 0.0
H621 H 0.52339 0.53451 0.94293 0.0
C622 C 0.57231 0.53407 0.91194 0.0
C623 C 0.60185 0.5346 0.89806 0.0
C624 C 0.5662 0.51929 0.93213 0.0
C625 C 0.62324 0.51828 0.90358 0.0
C626 C 0.61578 0.50187 0.92331 0.0
C627 C 0.58437 0.49045 0.95828 0.0
C628 C 0.56129 0.49592 0.97357 0.0
C629 C 0.58822 0.50314 0.93782 0.0
C630 C 0.53836 0.51091 0.96774 0.0
C631 C 0.54034 0.52208 0.94703 0.0
H632 H 1.01081 0.50308 0.23406 0.0
H633 H 0.14831 0.54132 0.23235 0.0
H634 H 0.15423 0.54883 0.271 0.0
H635 H 0.11854 0.54045 0.30557 0.0
H636 H 0.98138 0.50375 0.30719 0.0
H637 H 0.97715 0.49959 0.26872 0.0
C638 C 1.04237 0.51385 0.24217 0.0
C639 C 0.0794 0.52222 0.2303 0.0
C640 C 1.04537 0.51782 0.26454 0.0
C641 C 0.11968 0.53533 0.24109 0.0
C642 C 0.12291 0.53935 0.26323 0.0
C643 C 0.08792 0.53211 0.29759 0.0
C644 C 1.0501 0.52186 0.30964 0.0
C645 C 0.08576 0.53014 0.2752 0.0
C646 C 1.01071 0.51082 0.29865 0.0
C647 C 1.00832 0.50872 0.2765 0.0
loop_
_geom_bond_atom_site_label_1
_geom_bond_atom_site_label_2
_geom_bond_distance
_geom_bond_site_symmetry_2
_ccdc_geom_bond_type
La0 C2 2.928 . S
La0 O20 2.521 . S
La0 O21 2.628 . S
La0 O22 2.554 . S
La0 O23 2.757 . S
La0 O24 2.470 . S
La0 O29 2.482 . S
La0 O31 2.503 1_455 S
La1 C11 2.928 . S
La1 O23 2.482 1_655 S
La1 O25 2.503 1_655 S
La1 O26 2.521 . S
La1 O27 2.628 . S
La1 O28 2.554 . S
La1 O29 2.757 1_655 S
La1 O30 2.470 . S
C2 La0 2.928 . S
C2 C3 1.503 . S
C2 O20 1.261 . S
C2 O21 1.243 . S
C3 C2 1.503 . S
C3 C4 1.394 . S
C3 C8 1.373 . S
C4 C3 1.394 . S
C4 C5 1.380 . S
C4 H32 0.930 . S
C5 C4 1.380 . S
C5 C6 1.376 . S
C5 H33 0.930 . S
C6 C5 1.376 . S
C6 C7 1.370 . S
C7 C6 1.370 . S
C7 C8 1.396 . S
C7 H34 0.929 . S
C8 C3 1.373 . S
C8 C7 1.396 . S
C8 H35 0.929 . S
C9 O22 1.240 . S
C9 O23 1.289 . S
C10 O24 1.258 . S
C10 O25 1.256 . S
C11 La1 2.928 . S
C11 C12 1.503 . S
C11 O26 1.261 . S
C11 O27 1.243 . S
C12 C11 1.503 . S
C12 C13 1.394 . S
C12 C17 1.373 . S
C13 C12 1.394 . S
C13 C14 1.380 . S
C13 H36 0.930 . S
C14 C13 1.380 . S
C14 C15 1.376 . S
C14 H37 0.930 . S
C15 C14 1.376 . S
C15 C16 1.370 . S
C16 C15 1.370 . S
C16 C17 1.396 . S
C16 H38 0.929 . S
C17 C12 1.373 . S
C17 C16 1.396 . S
C17 H39 0.929 . S
C18 O28 1.240 1_455 S
C18 O29 1.289 . S
C19 O30 1.258 . S
C19 O31 1.256 . S
O20 La0 2.521 . S
O20 C2 1.261 . S
O21 La0 2.628 . S
O21 C2 1.243 . S
O22 La0 2.554 . S
O22 C9 1.240 . S
O23 La0 2.757 . S
O23 La1 2.482 1_455 S
O23 C9 1.289 . S
O24 La0 2.470 . S
O24 C10 1.258 . S
O25 La1 2.503 1_455 S
O25 C10 1.256 . S
O26 La1 2.521 . S
O26 C11 1.261 . S
O27 La1 2.628 . S
O27 C11 1.243 . S
O28 La1 2.554 . S
O28 C18 1.240 1_655 S
O29 La0 2.482 . S
O29 La1 2.757 1_455 S
O29 C18 1.289 . S
O30 La1 2.470 . S
O30 C19 1.258 . S
O31 La0 2.503 1_655 S
O31 C19 1.256 . S
H32 C4 0.930 . S
H33 C5 0.930 . S
H34 C7 0.929 . S
H35 C8 0.929 . S
H36 C13 0.930 . S
H37 C14 0.930 . S
H38 C16 0.929 . S
H39 C17 0.929 . S
La40 C42 2.928 . S
La40 O60 2.521 . S
La40 O61 2.628 . S
La40 O62 2.554 . S
La40 O63 2.757 1_565 S
La40 O64 2.470 . S
La40 O69 2.482 . S
La40 O71 2.503 1_565 S
La41 C51 2.928 . S
La41 O63 2.482 . S
La41 O65 2.503 1_545 S
La41 O66 2.521 . S
La41 O67 2.628 . S
La41 O68 2.554 . S
La41 O69 2.757 1_545 S
La41 O70 2.470 . S
C42 La40 2.928 . S
C42 C43 1.503 . S
C42 O60 1.261 . S
C42 O61 1.243 . S
C43 C42 1.503 . S
C43 C44 1.394 . S
C43 C48 1.373 . S
C44 C43 1.394 . S
C44 C45 1.380 . S
C44 H72 0.930 . S
C45 C44 1.380 . S
C45 C46 1.376 . S
C45 H73 0.930 . S
C46 C45 1.376 . S
C46 C47 1.370 . S
C47 C46 1.370 . S
C47 C48 1.396 . S
C47 H74 0.929 . S
C48 C43 1.373 . S
C48 C47 1.396 . S
C48 H75 0.929 . S
C49 O62 1.240 1_545 S
C49 O63 1.289 . S
C50 O64 1.258 . S
C50 O65 1.256 . S
C51 La41 2.928 . S
C51 C52 1.503 . S
C51 O66 1.261 . S
C51 O67 1.243 . S
C52 C51 1.503 . S
C52 C53 1.394 . S
C52 C57 1.373 . S
C53 C52 1.394 . S
C53 C54 1.380 . S
C53 H76 0.930 . S
C54 C53 1.380 . S
C54 C55 1.376 . S
C54 H77 0.930 . S
C55 C54 1.376 . S
C55 C56 1.370 . S
C56 C55 1.370 . S
C56 C57 1.396 . S
C56 H78 0.929 . S
C57 C52 1.373 . S
C57 C56 1.396 . S
C57 H79 0.929 . S
C58 O68 1.240 . S
C58 O69 1.289 1_545 S
C59 O70 1.258 . S
C59 O71 1.256 . S
O60 La40 2.521 . S
O60 C42 1.261 . S
O61 La40 2.628 . S
O61 C42 1.243 . S
O62 La40 2.554 . S
O62 C49 1.240 1_565 S
O63 La40 2.757 1_545 S
O63 La41 2.482 . S
O63 C49 1.289 . S
O64 La40 2.470 . S
O64 C50 1.258 . S
O65 La41 2.503 1_565 S
O65 C50 1.256 . S
O66 La41 2.521 . S
O66 C51 1.261 . S
O67 La41 2.628 . S
O67 C51 1.243 . S
O68 La41 2.554 . S
O68 C58 1.240 . S
O69 La40 2.482 . S
O69 La41 2.757 1_565 S
O69 C58 1.289 1_565 S
O70 La41 2.470 . S
O70 C59 1.258 . S
O71 La40 2.503 1_545 S
O71 C59 1.256 . S
H72 C44 0.930 . S
H73 C45 0.930 . S
H74 C47 0.929 . S
H75 C48 0.929 . S
H76 C53 0.930 . S
H77 C54 0.930 . S
H78 C56 0.929 . S
H79 C57 0.929 . S
La80 C82 2.928 . S
La80 O100 2.521 . S
La80 O101 2.628 . S
La80 O102 2.554 . S
La80 O103 2.757 . S
La80 O104 2.470 . S
La80 O109 2.482 . S
La80 O111 2.503 . S
La81 C91 2.928 . S
La81 O103 2.482 . S
La81 O105 2.503 . S
La81 O106 2.521 . S
La81 O107 2.628 . S
La81 O108 2.554 . S
La81 O109 2.757 . S
La81 O110 2.470 . S
C82 La80 2.928 . S
C82 C83 1.503 . S
C82 O100 1.261 . S
C82 O101 1.243 . S
C83 C82 1.503 . S
C83 C84 1.394 . S
C83 C88 1.373 . S
C84 C83 1.394 . S
C84 C85 1.380 . S
C84 H112 0.930 . S
C85 C84 1.380 . S
C85 C86 1.376 . S
C85 H113 0.930 . S
C86 C85 1.376 . S
C86 C87 1.370 . S
C87 C86 1.370 . S
C87 C88 1.396 . S
C87 H114 0.929 . S
C88 C83 1.373 . S
C88 C87 1.396 . S
C88 H115 0.929 . S
C89 O102 1.240 . S
C89 O103 1.289 . S
C90 O104 1.258 . S
C90 O105 1.256 . S
C91 La81 2.928 . S
C91 C92 1.503 . S
C91 O106 1.261 . S
C91 O107 1.243 . S
C92 C91 1.503 . S
C92 C93 1.394 . S
C92 C97 1.373 . S
C93 C92 1.394 . S
C93 C94 1.380 . S
C93 H116 0.930 . S
C94 C93 1.380 . S
C94 C95 1.376 . S
C94 H117 0.930 . S
C95 C94 1.376 . S
C95 C96 1.370 . S
C96 C95 1.370 . S
C96 C97 1.396 . S
C96 H118 0.929 . S
C97 C92 1.373 . S
C97 C96 1.396 . S
C97 H119 0.929 . S
C98 O108 1.240 . S
C98 O109 1.289 . S
C99 O110 1.258 . S
C99 O111 1.256 . S
O100 La80 2.521 . S
O100 C82 1.261 . S
O101 La80 2.628 . S
O101 C82 1.243 . S
O102 La80 2.554 . S
O102 C89 1.240 . S
O103 La80 2.757 . S
O103 La81 2.482 . S
O103 C89 1.289 . S
O104 La80 2.470 . S
O104 C90 1.258 . S
O105 La81 2.503 . S
O105 C90 1.256 . S
O106 La81 2.521 . S
O106 C91 1.261 . S
O107 La81 2.628 . S
O107 C91 1.243 . S
O108 La81 2.554 . S
O108 C98 1.240 . S
O109 La80 2.482 . S
O109 La81 2.757 . S
O109 C98 1.289 . S
O110 La81 2.470 . S
O110 C99 1.258 . S
O111 La80 2.503 . S
O111 C99 1.256 . S
H112 C84 0.930 . S
H113 C85 0.930 . S
H114 C87 0.929 . S
H115 C88 0.929 . S
H116 C93 0.930 . S
H117 C94 0.930 . S
H118 C96 0.929 . S
H119 C97 0.929 . S
C120 C121 1.264 . S
C120 C125 1.479 . S
C120 C130 1.465 . S
C121 C120 1.264 . S
C121 C123 1.339 . S
C121 H148 0.931 . S
C122 C123 1.395 . S
C122 C124 1.320 . S
C123 C121 1.339 . S
C123 C122 1.395 . S
C123 H149 0.929 . S
C124 C122 1.320 . S
C124 C125 1.405 . S
C124 H150 0.930 . S
C125 C120 1.479 . S
C125 C124 1.405 . S
C125 H151 0.931 . S
U126 O127 2.454 1_545 S
U126 O128 2.458 1_545 S
U126 C129 2.984 1_545 S
U126 C130 2.847 . S
U126 C143 2.882 . S
U126 O144 2.441 . S
U126 O145 2.420 . S
U126 O146 2.455 1_545 S
U126 O147 2.449 . S
O127 U126 2.454 1_565 S
O127 C129 1.353 . S
O128 U126 2.458 1_565 S
O128 C129 1.286 . S
C129 U126 2.984 1_565 S
C129 O127 1.353 . S
C129 O128 1.286 . S
C129 C131 1.363 . S
C130 C120 1.465 . S
C130 U126 2.847 . S
C130 O144 1.249 . S
C130 O145 1.202 . S
C131 C129 1.363 . S
C131 C133 1.408 . S
C131 C136 1.342 . S
C132 C133 1.310 . S
C132 C135 1.461 . S
C132 H152 0.932 . S
C133 C131 1.408 . S
C133 C132 1.310 . S
C133 H153 0.930 . S
C134 C135 1.474 . S
C134 C136 1.285 . S
C134 H154 0.929 . S
C135 C132 1.461 . S
C135 C134 1.474 . S
C136 C131 1.342 . S
C136 C134 1.285 . S
C136 H155 0.930 . S
C137 C140 1.424 . S
C137 C142 1.245 1_545 S
C137 C143 1.428 . S
C138 C141 1.260 1_565 S
C138 C142 1.477 . S
C138 H156 0.932 . S
C139 C140 1.384 . S
C139 C141 1.479 . S
C139 H157 0.929 . S
C140 C137 1.424 . S
C140 C139 1.384 . S
C140 H158 0.928 . S
C141 C138 1.260 1_545 S
C141 C139 1.479 . S
C142 C137 1.245 1_565 S
C142 C138 1.477 . S
C142 H159 0.932 . S
C143 U126 2.882 . S
C143 C137 1.428 . S
C143 O146 1.301 1_545 S
C143 O147 1.282 . S
O144 U126 2.441 . S
O144 C130 1.249 . S
O145 U126 2.420 . S
O145 C130 1.202 . S
O146 U126 2.455 1_565 S
O146 C143 1.301 1_565 S
O147 U126 2.449 . S
O147 C143 1.282 . S
H148 C121 0.931 . S
H149 C123 0.929 . S
H150 C124 0.930 . S
H151 C125 0.931 . S
H152 C132 0.932 . S
H153 C133 0.930 . S
H154 C134 0.929 . S
H155 C136 0.930 . S
H156 C138 0.932 . S
H157 C139 0.929 . S
H158 C140 0.928 . S
H159 C142 0.932 . S
C160 C161 1.264 . S
C160 C165 1.479 . S
C160 C170 1.465 . S
C161 C160 1.264 . S
C161 C163 1.339 . S
C161 H188 0.931 . S
C162 C163 1.395 . S
C162 C164 1.320 . S
C163 C161 1.339 . S
C163 C162 1.395 . S
C163 H189 0.929 . S
C164 C162 1.320 . S
C164 C165 1.405 . S
C164 H190 0.930 . S
C165 C160 1.479 . S
C165 C164 1.405 . S
C165 H191 0.931 . S
U166 O167 2.454 . S
U166 O168 2.458 . S
U166 C169 2.984 . S
U166 C170 2.847 . S
U166 C183 2.882 . S
U166 O184 2.441 . S
U166 O185 2.420 . S
U166 O186 2.455 . S
U166 O187 2.449 . S
O167 U166 2.454 . S
O167 C169 1.353 . S
O168 U166 2.458 . S
O168 C169 1.286 . S
C169 U166 2.984 . S
C169 O167 1.353 . S
C169 O168 1.286 . S
C169 C171 1.363 . S
C170 C160 1.465 . S
C170 U166 2.847 . S
C170 O184 1.249 . S
C170 O185 1.202 . S
C171 C169 1.363 . S
C171 C173 1.408 . S
C171 C176 1.342 . S
C172 C173 1.310 . S
C172 C175 1.461 . S
C172 H192 0.932 . S
C173 C171 1.408 . S
C173 C172 1.310 . S
C173 H193 0.930 . S
C174 C175 1.474 . S
C174 C176 1.285 . S
C174 H194 0.929 . S
C175 C172 1.461 . S
C175 C174 1.474 . S
C176 C171 1.342 . S
C176 C174 1.285 . S
C176 H195 0.930 . S
C177 C180 1.424 . S
C177 C182 1.245 . S
C177 C183 1.428 . S
C178 C181 1.260 . S
C178 C182 1.477 . S
C178 H196 0.932 . S
C179 C180 1.384 . S
C179 C181 1.479 . S
C179 H197 0.929 . S
C180 C177 1.424 . S
C180 C179 1.384 . S
C180 H198 0.928 . S
C181 C178 1.260 . S
C181 C179 1.479 . S
C182 C177 1.245 . S
C182 C178 1.477 . S
C182 H199 0.932 . S
C183 U166 2.882 . S
C183 C177 1.428 . S
C183 O186 1.301 . S
C183 O187 1.282 . S
O184 U166 2.441 . S
O184 C170 1.249 . S
O185 U166 2.420 . S
O185 C170 1.202 . S
O186 U166 2.455 . S
O186 C183 1.301 . S
O187 U166 2.449 . S
O187 C183 1.282 . S
H188 C161 0.931 . S
H189 C163 0.929 . S
H190 C164 0.930 . S
H191 C165 0.931 . S
H192 C172 0.932 . S
H193 C173 0.930 . S
H194 C174 0.929 . S
H195 C176 0.930 . S
H196 C178 0.932 . S
H197 C179 0.929 . S
H198 C180 0.928 . S
H199 C182 0.932 . S
C200 C201 1.264 . S
C200 C205 1.479 . S
C200 C210 1.465 . S
C201 C200 1.264 . S
C201 C203 1.339 . S
C201 H228 0.931 . S
C202 C203 1.395 . S
C202 C204 1.320 . S
C203 C201 1.339 . S
C203 C202 1.395 . S
C203 H229 0.929 . S
C204 C202 1.320 . S
C204 C205 1.405 . S
C204 H230 0.930 . S
C205 C200 1.479 . S
C205 C204 1.405 . S
C205 H231 0.931 . S
U206 O207 2.454 . S
U206 O208 2.458 . S
U206 C209 2.984 . S
U206 C210 2.847 1_455 S
U206 C223 2.882 . S
U206 O224 2.441 1_455 S
U206 O225 2.420 1_455 S
U206 O226 2.455 . S
U206 O227 2.449 1_455 S
O207 U206 2.454 . S
O207 C209 1.353 . S
O208 U206 2.458 . S
O208 C209 1.286 . S
C209 U206 2.984 . S
C209 O207 1.353 . S
C209 O208 1.286 . S
C209 C211 1.363 . S
C210 C200 1.465 . S
C210 U206 2.847 1_655 S
C210 O224 1.249 . S
C210 O225 1.202 . S
C211 C209 1.363 . S
C211 C213 1.408 . S
C211 C216 1.342 . S
C212 C213 1.310 . S
C212 C215 1.461 . S
C212 H232 0.932 . S
C213 C211 1.408 . S
C213 C212 1.310 . S
C213 H233 0.930 . S
C214 C215 1.474 . S
C214 C216 1.285 . S
C214 H234 0.929 . S
C215 C212 1.461 . S
C215 C214 1.474 . S
C216 C211 1.342 . S
C216 C214 1.285 . S
C216 H235 0.930 . S
C217 C220 1.406 1_455 S
C217 C222 1.245 . S
C217 C223 1.428 . S
C218 C221 1.260 . S
C218 C222 1.477 . S
C218 H236 0.932 . S
C219 C220 1.386 . S
C219 C221 1.479 1_655 S
C219 H237 0.929 . S
C220 C217 1.406 1_655 S
C220 C219 1.386 . S
C220 H238 0.944 . S
C221 C218 1.260 . S
C221 C219 1.479 1_455 S
C222 C217 1.245 . S
C222 C218 1.477 . S
C222 H239 0.932 . S
C223 U206 2.882 . S
C223 C217 1.428 . S
C223 O226 1.301 . S
C223 O227 1.282 1_455 S
O224 U206 2.441 1_655 S
O224 C210 1.249 . S
O225 U206 2.420 1_655 S
O225 C210 1.202 . S
O226 U206 2.455 . S
O226 C223 1.301 . S
O227 U206 2.449 1_655 S
O227 C223 1.282 1_655 S
H228 C201 0.931 . S
H229 C203 0.929 . S
H230 C204 0.930 . S
H231 C205 0.931 . S
H232 C212 0.932 . S
H233 C213 0.930 . S
H234 C214 0.929 . S
H235 C216 0.930 . S
H236 C218 0.932 . S
H237 C219 0.929 . S
H238 C220 0.944 . S
H239 C222 0.932 . S
C240 C241 1.264 . S
C240 C245 1.479 . S
C240 C250 1.465 . S
C241 C240 1.264 . S
C241 C243 1.339 . S
C241 H268 0.931 . S
C242 C243 1.395 . S
C242 C244 1.320 . S
C243 C241 1.339 . S
C243 C242 1.395 . S
C243 H269 0.929 . S
C244 C242 1.320 . S
C244 C245 1.405 . S
C244 H270 0.930 . S
C245 C240 1.479 . S
C245 C244 1.405 . S
C245 H271 0.931 . S
U246 O247 2.454 1_655 S
U246 O248 2.458 1_655 S
U246 C249 2.984 1_655 S
U246 C250 2.847 . S
U246 C263 2.882 . S
U246 O264 2.441 . S
U246 O265 2.420 . S
U246 O266 2.455 1_655 S
U246 O267 2.449 . S
O247 U246 2.454 1_455 S
O247 C249 1.353 . S
O248 U246 2.458 1_455 S
O248 C249 1.286 . S
C249 U246 2.984 1_455 S
C249 O247 1.353 . S
C249 O248 1.286 . S
C249 C251 1.363 . S
C250 C240 1.465 . S
C250 U246 2.847 . S
C250 O264 1.249 . S
C250 O265 1.202 . S
C251 C249 1.363 . S
C251 C253 1.408 . S
C251 C256 1.342 . S
C252 C253 1.310 . S
C252 C255 1.461 . S
C252 H272 0.932 . S
C253 C251 1.408 . S
C253 C252 1.310 . S
C253 H273 0.930 . S
C254 C255 1.474 . S
C254 C256 1.285 . S
C254 H274 0.929 . S
C255 C252 1.461 . S
C255 C254 1.474 . S
C256 C251 1.342 . S
C256 C254 1.285 . S
C256 H275 0.930 . S
C257 C260 1.424 . S
C257 C262 1.245 1_655 S
C257 C263 1.428 . S
C258 C261 1.260 1_455 S
C258 C262 1.477 . S
C258 H276 0.932 . S
C259 C260 1.384 . S
C259 C261 1.479 . S
C259 H277 0.929 . S
C260 C257 1.424 . S
C260 C259 1.384 . S
C260 H278 0.928 . S
C261 C258 1.260 1_655 S
C261 C259 1.479 . S
C262 C257 1.245 1_455 S
C262 C258 1.477 . S
C262 H279 0.932 . S
C263 U246 2.882 . S
C263 C257 1.428 . S
C263 O266 1.301 1_655 S
C263 O267 1.282 . S
O264 U246 2.441 . S
O264 C250 1.249 . S
O265 U246 2.420 . S
O265 C250 1.202 . S
O266 U246 2.455 1_455 S
O266 C263 1.301 1_455 S
O267 U246 2.449 . S
O267 C263 1.282 . S
H268 C241 0.931 . S
H269 C243 0.929 . S
H270 C244 0.930 . S
H271 C245 0.931 . S
H272 C252 0.932 . S
H273 C253 0.930 . S
H274 C254 0.929 . S
H275 C256 0.930 . S
H276 C258 0.932 . S
H277 C259 0.929 . S
H278 C260 0.928 . S
H279 C262 0.932 . S
C280 C281 1.264 . S
C280 C285 1.479 . S
C280 C290 1.465 . S
C281 C280 1.264 . S
C281 C283 1.339 . S
C281 H308 0.931 . S
C282 C283 1.395 . S
C282 C284 1.320 . S
C283 C281 1.339 . S
C283 C282 1.395 . S
C283 H309 0.929 . S
C284 C282 1.320 . S
C284 C285 1.405 . S
C284 H310 0.930 . S
C285 C280 1.479 . S
C285 C284 1.405 . S
C285 H311 0.931 . S
U286 O287 2.454 1_565 S
U286 O288 2.458 1_565 S
U286 C289 2.984 1_565 S
U286 C290 2.847 . S
U286 C303 2.882 . S
U286 O304 2.441 . S
U286 O305 2.420 . S
U286 O306 2.455 1_565 S
U286 O307 2.449 . S
O287 U286 2.454 1_545 S
O287 C289 1.353 . S
O288 U286 2.458 1_545 S
O288 C289 1.286 . S
C289 U286 2.984 1_545 S
C289 O287 1.353 . S
C289 O288 1.286 . S
C289 C291 1.363 . S
C290 C280 1.465 . S
C290 U286 2.847 . S
C290 O304 1.249 . S
C290 O305 1.202 . S
C291 C289 1.363 . S
C291 C293 1.408 . S
C291 C296 1.342 . S
C292 C293 1.310 . S
C292 C295 1.461 . S
C292 H312 0.932 . S
C293 C291 1.408 . S
C293 C292 1.310 . S
C293 H313 0.930 . S
C294 C295 1.474 . S
C294 C296 1.285 . S
C294 H314 0.929 . S
C295 C292 1.461 . S
C295 C294 1.474 . S
C296 C291 1.342 . S
C296 C294 1.285 . S
C296 H315 0.930 . S
C297 C300 1.424 . S
C297 C302 1.245 1_565 S
C297 C303 1.428 . S
C298 C301 1.260 1_545 S
C298 C302 1.477 . S
C298 H316 0.932 . S
C299 C300 1.384 . S
C299 C301 1.479 . S
C299 H317 0.929 . S
C300 C297 1.424 . S
C300 C299 1.384 . S
C300 H318 0.928 . S
C301 C298 1.260 1_565 S
C301 C299 1.479 . S
C302 C297 1.245 1_545 S
C302 C298 1.477 . S
C302 H319 0.932 . S
C303 U286 2.882 . S
C303 C297 1.428 . S
C303 O306 1.301 1_565 S
C303 O307 1.282 . S
O304 U286 2.441 . S
O304 C290 1.249 . S
O305 U286 2.420 . S
O305 C290 1.202 . S
O306 U286 2.455 1_545 S
O306 C303 1.301 1_545 S
O307 U286 2.449 . S
O307 C303 1.282 . S
H308 C281 0.931 . S
H309 C283 0.929 . S
H310 C284 0.930 . S
H311 C285 0.931 . S
H312 C292 0.932 . S
H313 C293 0.930 . S
H314 C294 0.929 . S
H315 C296 0.930 . S
H316 C298 0.932 . S
H317 C299 0.929 . S
H318 C300 0.928 . S
H319 C302 0.932 . S
C320 C321 1.264 . S
C320 C325 1.479 . S
C320 C330 1.465 . S
C321 C320 1.264 . S
C321 C323 1.339 . S
C321 H348 0.931 . S
C322 C323 1.395 . S
C322 C324 1.320 . S
C323 C321 1.339 . S
C323 C322 1.395 . S
C323 H349 0.929 . S
C324 C322 1.320 . S
C324 C325 1.405 . S
C324 H350 0.930 . S
C325 C320 1.479 . S
C325 C324 1.405 . S
C325 H351 0.931 . S
U326 O327 2.454 . S
U326 O328 2.458 . S
U326 C329 2.984 . S
U326 C330 2.847 . S
U326 C343 2.882 . S
U326 O344 2.441 . S
U326 O345 2.420 . S
U326 O346 2.455 . S
U326 O347 2.449 . S
O327 U326 2.454 . S
O327 C329 1.353 . S
O328 U326 2.458 . S
O328 C329 1.286 . S
C329 U326 2.984 . S
C329 O327 1.353 . S
C329 O328 1.286 . S
C329 C331 1.363 . S
C330 C320 1.465 . S
C330 U326 2.847 . S
C330 O344 1.249 . S
C330 O345 1.202 . S
C331 C329 1.363 . S
C331 C333 1.408 . S
C331 C336 1.342 . S
C332 C333 1.310 . S
C332 C335 1.461 . S
C332 H352 0.932 . S
C333 C331 1.408 . S
C333 C332 1.310 . S
C333 H353 0.930 . S
C334 C335 1.474 . S
C334 C336 1.285 . S
C334 H354 0.929 . S
C335 C332 1.461 . S
C335 C334 1.474 . S
C336 C331 1.342 . S
C336 C334 1.285 . S
C336 H355 0.930 . S
C337 C340 1.424 . S
C337 C342 1.245 . S
C337 C343 1.428 . S
C338 C341 1.260 . S
C338 C342 1.477 1_556 S
C338 H356 0.932 . S
C339 C340 1.384 1_556 S
C339 C341 1.479 . S
C339 H357 0.929 . S
C340 C337 1.424 . S
C340 C339 1.384 1_554 S
C340 H358 0.928 . S
C341 C338 1.260 . S
C341 C339 1.479 . S
C342 C337 1.245 . S
C342 C338 1.477 1_554 S
C342 H359 0.932 . S
C343 U326 2.882 . S
C343 C337 1.428 . S
C343 O346 1.301 . S
C343 O347 1.282 . S
O344 U326 2.441 . S
O344 C330 1.249 . S
O345 U326 2.420 . S
O345 C330 1.202 . S
O346 U326 2.455 . S
O346 C343 1.301 . S
O347 U326 2.449 . S
O347 C343 1.282 . S
H348 C321 0.931 . S
H349 C323 0.929 . S
H350 C324 0.930 . S
H351 C325 0.931 . S
H352 C332 0.932 . S
H353 C333 0.930 . S
H354 C334 0.929 . S
H355 C336 0.930 . S
H356 C338 0.932 . S
H357 C339 0.929 . S
H358 C340 0.928 . S
H359 C342 0.932 . S
H360 C366 0.930 . S
H361 C369 0.930 . S
H362 C370 0.930 . S
H363 C371 0.930 . S
H364 C374 0.930 . S
H365 C375 0.930 . S
C366 H360 0.930 . S
C366 C367 1.355 . S
C366 C368 1.415 . S
C367 C366 1.355 . S
C367 C369 1.419 . S
C368 C366 1.415 . S
C368 C373 1.425 . S
C368 C375 1.409 . S
C369 H361 0.930 . S
C369 C367 1.419 . S
C369 C370 1.362 . S
C370 H362 0.930 . S
C370 C369 1.362 . S
C370 C373 1.409 . S
C371 H363 0.930 . S
C371 C372 1.355 . S
C371 C373 1.415 . S
C372 C371 1.355 . S
C372 C374 1.419 . S
C373 C368 1.425 . S
C373 C370 1.409 . S
C373 C371 1.415 . S
C374 H364 0.930 . S
C374 C372 1.419 . S
C374 C375 1.362 . S
C375 H365 0.930 . S
C375 C368 1.409 . S
C375 C374 1.362 . S
H376 C382 0.930 . S
H377 C385 0.930 . S
H378 C386 0.930 . S
H379 C387 0.930 . S
H380 C390 0.930 . S
H381 C391 0.930 . S
C382 H376 0.930 . S
C382 C383 1.355 . S
C382 C384 1.415 . S
C383 C382 1.355 . S
C383 C385 1.419 . S
C384 C382 1.415 . S
C384 C389 1.425 . S
C384 C391 1.409 . S
C385 H377 0.930 . S
C385 C383 1.419 . S
C385 C386 1.362 . S
C386 H378 0.930 . S
C386 C385 1.362 . S
C386 C389 1.409 . S
C387 H379 0.930 . S
C387 C388 1.355 . S
C387 C389 1.415 . S
C388 C387 1.355 . S
C388 C390 1.419 . S
C389 C384 1.425 . S
C389 C386 1.409 . S
C389 C387 1.415 . S
C390 H380 0.930 . S
C390 C388 1.419 . S
C390 C391 1.362 . S
C391 H381 0.930 . S
C391 C384 1.409 . S
C391 C390 1.362 . S
H392 C398 0.930 . S
H393 C401 0.930 . S
H394 C402 0.930 . S
H395 C403 0.930 . S
H396 C406 0.930 . S
H397 C407 0.930 . S
C398 H392 0.930 . S
C398 C399 1.355 . S
C398 C400 1.415 . S
C399 C398 1.355 . S
C399 C401 1.419 . S
C400 C398 1.415 . S
C400 C405 1.425 . S
C400 C407 1.409 . S
C401 H393 0.930 . S
C401 C399 1.419 . S
C401 C402 1.362 . S
C402 H394 0.930 . S
C402 C401 1.362 . S
C402 C405 1.409 . S
C403 H395 0.930 . S
C403 C404 1.355 . S
C403 C405 1.415 . S
C404 C403 1.355 . S
C404 C406 1.419 . S
C405 C400 1.425 . S
C405 C402 1.409 . S
C405 C403 1.415 . S
C406 H396 0.930 . S
C406 C404 1.419 . S
C406 C407 1.362 . S
C407 H397 0.930 . S
C407 C400 1.409 . S
C407 C406 1.362 . S
H408 C414 0.930 . S
H409 C417 0.930 . S
H410 C418 0.930 . S
H411 C419 0.930 . S
H412 C422 0.930 . S
H413 C423 0.930 . S
C414 H408 0.930 . S
C414 C415 1.355 . S
C414 C416 1.415 . S
C415 C414 1.355 . S
C415 C417 1.419 . S
C416 C414 1.415 . S
C416 C421 1.425 . S
C416 C423 1.409 . S
C417 H409 0.930 . S
C417 C415 1.419 . S
C417 C418 1.362 . S
C418 H410 0.930 . S
C418 C417 1.362 . S
C418 C421 1.409 . S
C419 H411 0.930 . S
C419 C420 1.355 . S
C419 C421 1.415 . S
C420 C419 1.355 . S
C420 C422 1.419 . S
C421 C416 1.425 . S
C421 C418 1.409 . S
C421 C419 1.415 . S
C422 H412 0.930 . S
C422 C420 1.419 . S
C422 C423 1.362 . S
C423 H413 0.930 . S
C423 C416 1.409 . S
C423 C422 1.362 . S
H424 C430 0.930 . S
H425 C433 0.930 . S
H426 C434 0.930 . S
H427 C435 0.930 . S
H428 C438 0.930 . S
H429 C439 0.930 . S
C430 H424 0.930 . S
C430 C431 1.355 . S
C430 C432 1.415 . S
C431 C430 1.355 . S
C431 C433 1.419 . S
C432 C430 1.415 . S
C432 C437 1.425 . S
C432 C439 1.409 . S
C433 H425 0.930 . S
C433 C431 1.419 . S
C433 C434 1.362 . S
C434 H426 0.930 . S
C434 C433 1.362 . S
C434 C437 1.409 . S
C435 H427 0.930 . S
C435 C436 1.355 . S
C435 C437 1.415 . S
C436 C435 1.355 . S
C436 C438 1.419 . S
C437 C432 1.425 . S
C437 C434 1.409 . S
C437 C435 1.415 . S
C438 H428 0.930 . S
C438 C436 1.419 . S
C438 C439 1.362 . S
C439 H429 0.930 . S
C439 C432 1.409 . S
C439 C438 1.362 . S
H440 C446 0.930 . S
H441 C449 0.930 . S
H442 C450 0.930 . S
H443 C451 0.930 . S
H444 C454 0.930 . S
H445 C455 0.930 . S
C446 H440 0.930 . S
C446 C447 1.355 . S
C446 C448 1.415 . S
C447 C446 1.355 . S
C447 C449 1.419 . S
C448 C446 1.415 . S
C448 C453 1.425 . S
C448 C455 1.409 . S
C449 H441 0.930 . S
C449 C447 1.419 . S
C449 C450 1.362 . S
C450 H442 0.930 . S
C450 C449 1.362 . S
C450 C453 1.409 . S
C451 H443 0.930 . S
C451 C452 1.355 . S
C451 C453 1.415 . S
C452 C451 1.355 . S
C452 C454 1.419 . S
C453 C448 1.425 . S
C453 C450 1.409 . S
C453 C451 1.415 . S
C454 H444 0.930 . S
C454 C452 1.419 . S
C454 C455 1.362 . S
C455 H445 0.930 . S
C455 C448 1.409 . S
C455 C454 1.362 . S
H456 C462 0.930 . S
H457 C465 0.930 . S
H458 C466 0.930 . S
H459 C467 0.930 . S
H460 C470 0.930 . S
H461 C471 0.930 . S
C462 H456 0.930 . S
C462 C463 1.355 . S
C462 C464 1.415 . S
C463 C462 1.355 . S
C463 C465 1.419 . S
C464 C462 1.415 . S
C464 C469 1.425 . S
C464 C471 1.409 . S
C465 H457 0.930 . S
C465 C463 1.419 . S
C465 C466 1.362 . S
C466 H458 0.930 . S
C466 C465 1.362 . S
C466 C469 1.409 . S
C467 H459 0.930 . S
C467 C468 1.355 . S
C467 C469 1.415 . S
C468 C467 1.355 . S
C468 C470 1.419 . S
C469 C464 1.425 . S
C469 C466 1.409 . S
C469 C467 1.415 . S
C470 H460 0.930 . S
C470 C468 1.419 . S
C470 C471 1.362 . S
C471 H461 0.930 . S
C471 C464 1.409 . S
C471 C470 1.362 . S
H472 C478 0.930 . S
H473 C481 0.930 . S
H474 C482 0.930 . S
H475 C483 0.930 . S
H476 C486 0.930 . S
H477 C487 0.930 . S
C478 H472 0.930 . S
C478 C479 1.355 . S
C478 C480 1.415 . S
C479 C478 1.355 . S
C479 C481 1.419 . S
C480 C478 1.415 . S
C480 C485 1.425 . S
C480 C487 1.409 . S
C481 H473 0.930 . S
C481 C479 1.419 . S
C481 C482 1.362 . S
C482 H474 0.930 . S
C482 C481 1.362 . S
C482 C485 1.409 . S
C483 H475 0.930 . S
C483 C484 1.355 . S
C483 C485 1.415 . S
C484 C483 1.355 . S
C484 C486 1.419 . S
C485 C480 1.425 . S
C485 C482 1.409 . S
C485 C483 1.415 . S
C486 H476 0.930 . S
C486 C484 1.419 . S
C486 C487 1.362 . S
C487 H477 0.930 . S
C487 C480 1.409 . S
C487 C486 1.362 . S
H488 C494 0.930 . S
H489 C497 0.930 . S
H490 C498 0.930 . S
H491 C499 0.930 . S
H492 C502 0.930 . S
H493 C503 0.930 . S
C494 H488 0.930 . S
C494 C495 1.355 . S
C494 C496 1.415 . S
C495 C494 1.355 . S
C495 C497 1.419 . S
C496 C494 1.415 . S
C496 C501 1.425 . S
C496 C503 1.409 . S
C497 H489 0.930 . S
C497 C495 1.419 . S
C497 C498 1.362 . S
C498 H490 0.930 . S
C498 C497 1.362 . S
C498 C501 1.409 . S
C499 H491 0.930 . S
C499 C500 1.355 . S
C499 C501 1.415 . S
C500 C499 1.355 . S
C500 C502 1.419 . S
C501 C496 1.425 . S
C501 C498 1.409 . S
C501 C499 1.415 . S
C502 H492 0.930 . S
C502 C500 1.419 . S
C502 C503 1.362 . S
C503 H493 0.930 . S
C503 C496 1.409 . S
C503 C502 1.362 . S
H504 C510 0.930 . S
H505 C513 0.930 . S
H506 C514 0.930 . S
H507 C515 0.930 . S
H508 C518 0.930 . S
H509 C519 0.930 . S
C510 H504 0.930 . S
C510 C511 1.355 . S
C510 C512 1.415 . S
C511 C510 1.355 . S
C511 C513 1.419 . S
C512 C510 1.415 . S
C512 C517 1.425 . S
C512 C519 1.409 . S
C513 H505 0.930 . S
C513 C511 1.419 . S
C513 C514 1.362 . S
C514 H506 0.930 . S
C514 C513 1.362 . S
C514 C517 1.409 . S
C515 H507 0.930 . S
C515 C516 1.355 . S
C515 C517 1.415 . S
C516 C515 1.355 . S
C516 C518 1.419 . S
C517 C512 1.425 . S
C517 C514 1.409 . S
C517 C515 1.415 . S
C518 H508 0.930 . S
C518 C516 1.419 . S
C518 C519 1.362 . S
C519 H509 0.930 . S
C519 C512 1.409 . S
C519 C518 1.362 . S
H520 C526 0.930 . S
H521 C529 0.930 . S
H522 C530 0.930 . S
H523 C531 0.930 . S
H524 C534 0.930 . S
H525 C535 0.930 . S
C526 H520 0.930 . S
C526 C527 1.355 . S
C526 C528 1.415 . S
C527 C526 1.355 . S
C527 C529 1.419 . S
C528 C526 1.415 . S
C528 C533 1.425 . S
C528 C535 1.409 . S
C529 H521 0.930 . S
C529 C527 1.419 . S
C529 C530 1.362 . S
C530 H522 0.930 . S
C530 C529 1.362 . S
C530 C533 1.409 . S
C531 H523 0.930 . S
C531 C532 1.355 . S
C531 C533 1.415 . S
C532 C531 1.355 . S
C532 C534 1.419 . S
C533 C528 1.425 . S
C533 C530 1.409 . S
C533 C531 1.415 . S
C534 H524 0.930 . S
C534 C532 1.419 . S
C534 C535 1.362 . S
C535 H525 0.930 . S
C535 C528 1.409 . S
C535 C534 1.362 . S
H536 C542 0.930 . S
H537 C545 0.930 . S
H538 C546 0.930 . S
H539 C547 0.930 . S
H540 C550 0.930 . S
H541 C551 0.930 . S
C542 H536 0.930 . S
C542 C543 1.355 . S
C542 C544 1.415 . S
C543 C542 1.355 . S
C543 C545 1.419 . S
C544 C542 1.415 . S
C544 C549 1.425 . S
C544 C551 1.409 . S
C545 H537 0.930 . S
C545 C543 1.419 . S
C545 C546 1.362 . S
C546 H538 0.930 . S
C546 C545 1.362 . S
C546 C549 1.409 . S
C547 H539 0.930 . S
C547 C548 1.355 . S
C547 C549 1.415 . S
C548 C547 1.355 . S
C548 C550 1.419 . S
C549 C544 1.425 . S
C549 C546 1.409 . S
C549 C547 1.415 . S
C550 H540 0.930 . S
C550 C548 1.419 . S
C550 C551 1.362 . S
C551 H541 0.930 . S
C551 C544 1.409 . S
C551 C550 1.362 . S
H552 C558 0.930 1_655 S
H553 C561 0.930 . S
H554 C562 0.930 . S
H555 C563 0.930 . S
H556 C566 0.930 1_655 S
H557 C567 0.930 . S
C558 H552 0.930 1_455 S
C558 C559 1.355 . S
C558 C560 1.415 . S
C559 C558 1.355 . S
C559 C561 1.419 . S
C560 C558 1.415 . S
C560 C565 1.425 . S
C560 C567 1.409 1_455 S
C561 H553 0.930 . S
C561 C559 1.419 . S
C561 C562 1.362 . S
C562 H554 0.930 . S
C562 C561 1.362 . S
C562 C565 1.409 . S
C563 H555 0.930 . S
C563 C564 1.355 . S
C563 C565 1.415 . S
C564 C563 1.355 . S
C564 C566 1.419 . S
C565 C560 1.425 . S
C565 C562 1.409 . S
C565 C563 1.415 . S
C566 H556 0.930 1_455 S
C566 C564 1.419 . S
C566 C567 1.362 1_455 S
C567 H557 0.930 . S
C567 C560 1.409 1_655 S
C567 C566 1.362 1_655 S
H568 C574 0.930 1_565 S
H569 C577 0.930 . S
H570 C578 0.930 . S
H571 C579 0.930 . S
H572 C582 0.930 . S
H573 C583 0.930 1_565 S
C574 H568 0.930 1_545 S
C574 C575 1.355 . S
C574 C576 1.415 . S
C575 C574 1.355 . S
C575 C577 1.419 . S
C576 C574 1.415 . S
C576 C581 1.425 . S
C576 C583 1.409 . S
C577 H569 0.930 . S
C577 C575 1.419 . S
C577 C578 1.362 . S
C578 H570 0.930 . S
C578 C577 1.362 . S
C578 C581 1.409 . S
C579 H571 0.930 . S
C579 C580 1.355 . S
C579 C581 1.415 . S
C580 C579 1.355 . S
C580 C582 1.419 . S
C581 C576 1.425 . S
C581 C578 1.409 . S
C581 C579 1.415 . S
C582 H572 0.930 . S
C582 C580 1.419 . S
C582 C583 1.362 . S
C583 H573 0.930 1_545 S
C583 C576 1.409 . S
C583 C582 1.362 . S
H584 C590 0.930 . S
H585 C593 0.930 . S
H586 C594 0.930 . S
H587 C595 0.930 . S
H588 C598 0.930 . S
H589 C599 0.930 . S
C590 H584 0.930 . S
C590 C591 1.355 . S
C590 C592 1.415 . S
C591 C590 1.355 . S
C591 C593 1.419 . S
C592 C590 1.415 . S
C592 C597 1.425 . S
C592 C599 1.409 . S
C593 H585 0.930 . S
C593 C591 1.419 . S
C593 C594 1.362 . S
C594 H586 0.930 . S
C594 C593 1.362 . S
C594 C597 1.409 . S
C595 H587 0.930 . S
C595 C596 1.355 . S
C595 C597 1.415 . S
C596 C595 1.355 . S
C596 C598 1.419 . S
C597 C592 1.425 . S
C597 C594 1.409 . S
C597 C595 1.415 . S
C598 H588 0.930 . S
C598 C596 1.419 . S
C598 C599 1.362 . S
C599 H589 0.930 . S
C599 C592 1.409 . S
C599 C598 1.362 . S
H600 C606 0.930 . S
H601 C609 0.930 . S
H602 C610 0.930 . S
H603 C611 0.930 . S
H604 C614 0.930 . S
H605 C615 0.930 . S
C606 H600 0.930 . S
C606 C607 1.355 1_545 S
C606 C608 1.415 . S
C607 C606 1.355 1_565 S
C607 C609 1.419 . S
C608 C606 1.415 . S
C608 C613 1.425 1_545 S
C608 C615 1.409 . S
C609 H601 0.930 . S
C609 C607 1.419 . S
C609 C610 1.362 . S
C610 H602 0.930 . S
C610 C609 1.362 . S
C610 C613 1.409 . S
C611 H603 0.930 . S
C611 C612 1.355 . S
C611 C613 1.415 . S
C612 C611 1.355 . S
C612 C614 1.419 1_565 S
C613 C608 1.425 1_565 S
C613 C610 1.409 . S
C613 C611 1.415 . S
C614 H604 0.930 . S
C614 C612 1.419 1_545 S
C614 C615 1.362 . S
C615 H605 0.930 . S
C615 C608 1.409 . S
C615 C614 1.362 . S
H616 C622 0.930 . S
H617 C625 0.930 . S
H618 C626 0.930 . S
H619 C627 0.930 . S
H620 C630 0.930 . S
H621 C631 0.930 . S
C622 H616 0.930 . S
C622 C623 1.355 . S
C622 C624 1.415 . S
C623 C622 1.355 . S
C623 C625 1.419 . S
C624 C622 1.415 . S
C624 C629 1.425 . S
C624 C631 1.409 . S
C625 H617 0.930 . S
C625 C623 1.419 . S
C625 C626 1.362 . S
C626 H618 0.930 . S
C626 C625 1.362 . S
C626 C629 1.409 . S
C627 H619 0.930 . S
C627 C628 1.355 . S
C627 C629 1.415 . S
C628 C627 1.355 . S
C628 C630 1.419 . S
C629 C624 1.425 . S
C629 C626 1.409 . S
C629 C627 1.415 . S
C630 H620 0.930 . S
C630 C628 1.419 . S
C630 C631 1.362 . S
C631 H621 0.930 . S
C631 C624 1.409 . S
C631 C630 1.362 . S
H632 C638 0.930 . S
H633 C641 0.930 . S
H634 C642 0.930 . S
H635 C643 0.930 . S
H636 C646 0.930 . S
H637 C647 0.930 . S
C638 H632 0.930 . S
C638 C639 1.355 1_655 S
C638 C640 1.415 . S
C639 C638 1.355 1_455 S
C639 C641 1.419 . S
C640 C638 1.415 . S
C640 C645 1.425 1_655 S
C640 C647 1.409 . S
C641 H633 0.930 . S
C641 C639 1.419 . S
C641 C642 1.362 . S
C642 H634 0.930 . S
C642 C641 1.362 . S
C642 C645 1.409 . S
C643 H635 0.930 . S
C643 C644 1.355 1_455 S
C643 C645 1.415 . S
C644 C643 1.355 1_655 S
C644 C646 1.419 . S
C645 C640 1.425 1_455 S
C645 C642 1.409 . S
C645 C643 1.415 . S
C646 H636 0.930 . S
C646 C644 1.419 . S
C646 C647 1.362 . S
C647 H637 0.930 . S
C647 C640 1.409 . S
C647 C646 1.362 . S
C367 C6 0.764 . S
C372 C335 0.728 . S
C383 C59 1.987 . S
C388 C242 1.964 . S
C399 C86 1.260 . S
C404 C282 1.255 . S
C415 C15 0.452 . S
C420 C322 0.295 . S
C436 C255 2.117 . S
C431 C50 2.161 . S
C452 C295 1.327 . S
C447 C95 1.343 . S
C463 C46 1.205 . S
C468 C162 1.177 . S
C479 C99 3.199 . S
C484 C202 3.166 . S
C495 C10 2.215 . S
C500 C135 2.124 . S
C516 C175 1.337 . S
C511 C55 1.290 . S
C532 C215 3.067 . S
C527 C90 3.132 . S
C543 C19 2.004 . S
C548 C122 1.995 . S
C564 C221 1.763 1_554 S
C559 C18 1.732 . S
C575 C49 1.295 . S
C580 C141 1.357 . S
C591 C98 1.470 . S
C596 C181 1.483 . S
C612 C301 1.486 . S
C607 C58 1.459 1_565 S
C628 C341 1.104 . S
C623 C89 1.090 . S
C639 C9 1.301 . S
C644 C261 1.352 . S
