# Generated by pormake.
# Topology ctn, (3,4)-cn, num edge types: 1
# Building blocks:
#     Node 0, Type 0, BuildingBlock: OLANEW_clean_sbu_2, # of connection points: 3
#     Node 1, Type 0, BuildingBlock: OLANEW_clean_sbu_2, # of connection points: 3
#     Node 2, Type 0, BuildingBlock: OLANEW_clean_sbu_2, # of connection points: 3
#     Node 3, Type 0, BuildingBlock: OLANEW_clean_sbu_2, # of connection points: 3
#     Node 4, Type 0, BuildingBlock: OLANEW_clean_sbu_2, # of connection points: 3
#     Node 5, Type 0, BuildingBlock: OLANEW_clean_sbu_2, # of connection points: 3
#     Node 6, Type 0, BuildingBlock: OLANEW_clean_sbu_2, # of connection points: 3
#     Node 7, Type 0, BuildingBlock: OLANEW_clean_sbu_2, # of connection points: 3
#     Node 8, Type 0, BuildingBlock: OLANEW_clean_sbu_2, # of connection points: 3
#     Node 9, Type 0, BuildingBlock: OLANEW_clean_sbu_2, # of connection points: 3
#     Node 10, Type 0, BuildingBlock: OLANEW_clean_sbu_2, # of connection points: 3
#     Node 11, Type 0, BuildingBlock: OLANEW_clean_sbu_2, # of connection points: 3
#     Node 12, Type 0, BuildingBlock: OLANEW_clean_sbu_2, # of connection points: 3
#     Node 13, Type 0, BuildingBlock: OLANEW_clean_sbu_2, # of connection points: 3
#     Node 14, Type 0, BuildingBlock: OLANEW_clean_sbu_2, # of connection points: 3
#     Node 15, Type 0, BuildingBlock: OLANEW_clean_sbu_2, # of connection points: 3
#     Node 16, Type 1, BuildingBlock: QUQFOY_clean_sbu_1, # of connection points: 4
#     Node 17, Type 1, BuildingBlock: QUQFOY_clean_sbu_1, # of connection points: 4
#     Node 18, Type 1, BuildingBlock: QUQFOY_clean_sbu_1, # of connection points: 4
#     Node 19, Type 1, BuildingBlock: QUQFOY_clean_sbu_1, # of connection points: 4
#     Node 20, Type 1, BuildingBlock: QUQFOY_clean_sbu_1, # of connection points: 4
#     Node 21, Type 1, BuildingBlock: QUQFOY_clean_sbu_1, # of connection points: 4
#     Node 22, Type 1, BuildingBlock: QUQFOY_clean_sbu_1, # of connection points: 4
#     Node 23, Type 1, BuildingBlock: QUQFOY_clean_sbu_1, # of connection points: 4
#     Node 24, Type 1, BuildingBlock: QUQFOY_clean_sbu_1, # of connection points: 4
#     Node 25, Type 1, BuildingBlock: QUQFOY_clean_sbu_1, # of connection points: 4
#     Node 26, Type 1, BuildingBlock: QUQFOY_clean_sbu_1, # of connection points: 4
#     Node 27, Type 1, BuildingBlock: QUQFOY_clean_sbu_1, # of connection points: 4
#     Edge 28, Type (0, 1), BuildingBlock: XIVTED_clean_linker_0, # of connection points: 2
#     Edge 29, Type (0, 1), BuildingBlock: XIVTED_clean_linker_0, # of connection points: 2
#     Edge 30, Type (0, 1), BuildingBlock: XIVTED_clean_linker_0, # of connection points: 2
#     Edge 31, Type (0, 1), BuildingBlock: XIVTED_clean_linker_0, # of connection points: 2
#     Edge 32, Type (0, 1), BuildingBlock: XIVTED_clean_linker_0, # of connection points: 2
#     Edge 33, Type (0, 1), BuildingBlock: XIVTED_clean_linker_0, # of connection points: 2
#     Edge 34, Type (0, 1), BuildingBlock: XIVTED_clean_linker_0, # of connection points: 2
#     Edge 35, Type (0, 1), BuildingBlock: XIVTED_clean_linker_0, # of connection points: 2
#     Edge 36, Type (0, 1), BuildingBlock: XIVTED_clean_linker_0, # of connection points: 2
#     Edge 37, Type (0, 1), BuildingBlock: XIVTED_clean_linker_0, # of connection points: 2
#     Edge 38, Type (0, 1), BuildingBlock: XIVTED_clean_linker_0, # of connection points: 2
#     Edge 39, Type (0, 1), BuildingBlock: XIVTED_clean_linker_0, # of connection points: 2
#     Edge 40, Type (0, 1), BuildingBlock: XIVTED_clean_linker_0, # of connection points: 2
#     Edge 41, Type (0, 1), BuildingBlock: XIVTED_clean_linker_0, # of connection points: 2
#     Edge 42, Type (0, 1), BuildingBlock: XIVTED_clean_linker_0, # of connection points: 2
#     Edge 43, Type (0, 1), BuildingBlock: XIVTED_clean_linker_0, # of connection points: 2
#     Edge 44, Type (0, 1), BuildingBlock: XIVTED_clean_linker_0, # of connection points: 2
#     Edge 45, Type (0, 1), BuildingBlock: XIVTED_clean_linker_0, # of connection points: 2
#     Edge 46, Type (0, 1), BuildingBlock: XIVTED_clean_linker_0, # of connection points: 2
#     Edge 47, Type (0, 1), BuildingBlock: XIVTED_clean_linker_0, # of connection points: 2
#     Edge 48, Type (0, 1), BuildingBlock: XIVTED_clean_linker_0, # of connection points: 2
#     Edge 49, Type (0, 1), BuildingBlock: XIVTED_clean_linker_0, # of connection points: 2
#     Edge 50, Type (0, 1), BuildingBlock: XIVTED_clean_linker_0, # of connection points: 2
#     Edge 51, Type (0, 1), BuildingBlock: XIVTED_clean_linker_0, # of connection points: 2
#     Edge 52, Type (0, 1), BuildingBlock: XIVTED_clean_linker_0, # of connection points: 2
#     Edge 53, Type (0, 1), BuildingBlock: XIVTED_clean_linker_0, # of connection points: 2
#     Edge 54, Type (0, 1), BuildingBlock: XIVTED_clean_linker_0, # of connection points: 2
#     Edge 55, Type (0, 1), BuildingBlock: XIVTED_clean_linker_0, # of connection points: 2
#     Edge 56, Type (0, 1), BuildingBlock: XIVTED_clean_linker_0, # of connection points: 2
#     Edge 57, Type (0, 1), BuildingBlock: XIVTED_clean_linker_0, # of connection points: 2
#     Edge 58, Type (0, 1), BuildingBlock: XIVTED_clean_linker_0, # of connection points: 2
#     Edge 59, Type (0, 1), BuildingBlock: XIVTED_clean_linker_0, # of connection points: 2
#     Edge 60, Type (0, 1), BuildingBlock: XIVTED_clean_linker_0, # of connection points: 2
#     Edge 61, Type (0, 1), BuildingBlock: XIVTED_clean_linker_0, # of connection points: 2
#     Edge 62, Type (0, 1), BuildingBlock: XIVTED_clean_linker_0, # of connection points: 2
#     Edge 63, Type (0, 1), BuildingBlock: XIVTED_clean_linker_0, # of connection points: 2
#     Edge 64, Type (0, 1), BuildingBlock: XIVTED_clean_linker_0, # of connection points: 2
#     Edge 65, Type (0, 1), BuildingBlock: XIVTED_clean_linker_0, # of connection points: 2
#     Edge 66, Type (0, 1), BuildingBlock: XIVTED_clean_linker_0, # of connection points: 2
#     Edge 67, Type (0, 1), BuildingBlock: XIVTED_clean_linker_0, # of connection points: 2
#     Edge 68, Type (0, 1), BuildingBlock: XIVTED_clean_linker_0, # of connection points: 2
#     Edge 69, Type (0, 1), BuildingBlock: XIVTED_clean_linker_0, # of connection points: 2
#     Edge 70, Type (0, 1), BuildingBlock: XIVTED_clean_linker_0, # of connection points: 2
#     Edge 71, Type (0, 1), BuildingBlock: XIVTED_clean_linker_0, # of connection points: 2
#     Edge 72, Type (0, 1), BuildingBlock: XIVTED_clean_linker_0, # of connection points: 2
#     Edge 73, Type (0, 1), BuildingBlock: XIVTED_clean_linker_0, # of connection points: 2
#     Edge 74, Type (0, 1), BuildingBlock: XIVTED_clean_linker_0, # of connection points: 2
#     Edge 75, Type (0, 1), BuildingBlock: XIVTED_clean_linker_0, # of connection points: 2
# Relax obj value: 0.082
# Max RMSD: 0.186
# Mean RMSD: 0.126
data_MOF--net-ctn--node1-OLANEW_clean_sbu_2--node2-QUQFOY_clean_sbu_1--edge1-XIVTED_clean_linker_0
_symmetry_space_group_name_H-M    P1
_symmetry_Int_Tables_number       1
_symmetry_cell_setting            triclinic
loop_
_symmetry_equiv_pos_as_xyz
'x, y, z'
_cell_length_a     57.870488
_cell_length_b     59.614314
_cell_length_c     56.213163
_cell_angle_alpha  94.073633
_cell_angle_beta   94.947724
_cell_angle_gamma 100.36217
loop_
_atom_site_label
_atom_site_type_symbol
_atom_site_fract_x
_atom_site_fract_y
_atom_site_fract_z
_atom_type_partial_charge
O0 O 0.05183 0.10664 0.04822 0.0
Cd1 Cd 0.04811 0.07535 0.07476 0.0
O2 O 0.07163 0.1327 0.07581 0.0
Cd3 Cd 0.0661 0.10952 0.10391 0.0
O4 O 0.04702 0.09235 0.13138 0.0
C5 C 0.03278 0.10282 0.14164 0.0
O6 O 0.03074 0.12334 0.13566 0.0
C7 C 0.06256 0.12709 0.05431 0.0
C8 C 0.0763 0.04278 0.06566 0.0
O9 O 0.05584 0.04117 0.05424 0.0
O10 O 0.08362 0.05998 0.08118 0.0
O11 O 0.3384 0.8172 0.28385 0.0
Cd12 Cd 0.2967 0.8165 0.27089 0.0
O13 O 0.33776 0.78105 0.27212 0.0
Cd14 Cd 0.30028 0.77237 0.25983 0.0
O15 O 0.26976 0.74537 0.26163 0.0
C16 C 0.27207 0.7329 0.27879 0.0
O17 O 0.2915 0.73776 0.29359 0.0
C18 C 0.34895 0.80029 0.2818 0.0
C19 C 0.28875 0.83865 0.22967 0.0
O20 O 0.29504 0.85005 0.2501 0.0
O21 O 0.28653 0.8168 0.22861 0.0
O22 O 0.9046 0.51471 0.17474 0.0
Cd23 Cd 0.86268 0.50926 0.16137 0.0
O24 O 0.90625 0.48053 0.15854 0.0
Cd25 Cd 0.92552 0.45462 0.14557 0.0
O26 O 0.9449 0.43327 0.12501 0.0
C27 C 0.93829 0.41168 0.12172 0.0
O28 O 0.91972 0.40189 0.1316 0.0
C29 C 0.91656 0.49937 0.16989 0.0
C30 C 0.85447 0.54194 0.13015 0.0
O31 O 0.85298 0.54548 0.15268 0.0
O32 O 0.85967 0.52291 0.12242 0.0
O33 O 0.74947 0.82948 0.22689 0.0
Cd34 Cd 0.72004 0.79406 0.22087 0.0
O35 O 0.74005 0.82794 0.2635 0.0
Cd36 Cd 0.73948 0.83624 0.30188 0.0
O37 O 0.72117 0.83581 0.33414 0.0
C38 C 0.71281 0.85317 0.34109 0.0
O39 O 0.71705 0.87174 0.32968 0.0
C40 C 0.75214 0.83837 0.24839 0.0
C41 C 0.72089 0.76733 0.17845 0.0
O42 O 0.7074 0.78216 0.17953 0.0
O43 O 0.73426 0.76546 0.19732 0.0
O44 O 0.16704 0.93712 0.51897 0.0
Cd45 Cd 0.16192 0.89653 0.52494 0.0
O46 O 0.13209 0.93064 0.49848 0.0
Cd47 Cd 0.10276 0.94289 0.47973 0.0
O48 O 0.07413 0.95671 0.4618 0.0
C49 C 0.07793 0.96764 0.44351 0.0
O50 O 0.09903 0.97034 0.43594 0.0
C51 C 0.15083 0.94448 0.5069 0.0
C52 C 0.12673 0.88417 0.55484 0.0
O53 O 0.14844 0.88994 0.56338 0.0
O54 O 0.12174 0.8842 0.53218 0.0
O55 O 0.28278 0.76028 0.87273 0.0
Cd56 Cd 0.28835 0.7366 0.83699 0.0
O57 O 0.24728 0.75766 0.85482 0.0
Cd58 Cd 0.21047 0.76182 0.84877 0.0
O59 O 0.17452 0.76353 0.83479 0.0
C60 C 0.17124 0.77819 0.82011 0.0
O61 O 0.18959 0.79241 0.81434 0.0
C62 C 0.26246 0.76561 0.87253 0.0
C63 C 0.31126 0.69999 0.84466 0.0
O64 O 0.32276 0.71926 0.83969 0.0
O65 O 0.28911 0.69825 0.8466 0.0
O66 O 0.92465 0.61221 0.40239 0.0
Cd67 Cd 0.89364 0.62511 0.42343 0.0
O68 O 0.94077 0.60894 0.43805 0.0
Cd69 Cd 0.96376 0.6044 0.46953 0.0
O70 O 0.96687 0.61933 0.50645 0.0
C71 C 0.94956 0.62896 0.51061 0.0
O72 O 0.93246 0.62794 0.49336 0.0
C73 C 0.94168 0.60723 0.41549 0.0
C74 C 0.86731 0.58896 0.44376 0.0
O75 O 0.86102 0.59423 0.42277 0.0
O76 O 0.88607 0.60093 0.45529 0.0
O77 O 0.7608 0.8077 0.83898 0.0
Cd78 Cd 0.76423 0.83742 0.81111 0.0
O79 O 0.72283 0.79568 0.82848 0.0
Cd80 Cd 0.71847 0.82555 0.80942 0.0
O81 O 0.70486 0.85689 0.8039 0.0
C82 C 0.70399 0.86962 0.82279 0.0
O83 O 0.71192 0.86356 0.84353 0.0
C84 C 0.74194 0.79331 0.84015 0.0
C85 C 0.80148 0.83142 0.7846 0.0
O86 O 0.80462 0.84654 0.80254 0.0
O87 O 0.78064 0.81981 0.77874 0.0
O88 O 0.25022 0.30199 0.32373 0.0
Cd89 Cd 0.25287 0.32948 0.29341 0.0
O90 O 0.21325 0.30262 0.32975 0.0
Cd91 Cd 0.20984 0.33124 0.30836 0.0
O92 O 0.19868 0.3638 0.30306 0.0
C93 C 0.20141 0.37775 0.3217 0.0
O94 O 0.2113 0.37199 0.34173 0.0
C95 C 0.23193 0.29452 0.33389 0.0
C96 C 0.29271 0.32593 0.26987 0.0
O97 O 0.29352 0.34177 0.28674 0.0
O98 O 0.273 0.31227 0.26375 0.0
O99 O 0.40397 0.01077 0.65705 0.0
Cd100 Cd 0.36221 0.00425 0.64255 0.0
O101 O 0.406 0.97621 0.6423 0.0
Cd102 Cd 0.42559 0.94987 0.63135 0.0
O103 O 0.44572 0.92828 0.6122 0.0
C104 C 0.4377 0.90708 0.60688 0.0
O105 O 0.41729 0.89795 0.61389 0.0
C106 C 0.41604 0.99527 0.65336 0.0
C107 C 0.35266 0.03661 0.61147 0.0
O108 O 0.35164 0.04011 0.63408 0.0
O109 O 0.35823 0.0178 0.60356 0.0
O110 O 0.28009 0.31431 0.75761 0.0
Cd111 Cd 0.26326 0.27348 0.75172 0.0
O112 O 0.25924 0.31514 0.78809 0.0
Cd113 Cd 0.24292 0.32845 0.81837 0.0
O114 O 0.21878 0.33057 0.84578 0.0
C115 C 0.20919 0.34792 0.84927 0.0
O116 O 0.21465 0.3655 0.83665 0.0
C117 C 0.27391 0.32565 0.77518 0.0
C118 C 0.25609 0.25641 0.70371 0.0
O119 O 0.23991 0.26445 0.71382 0.0
O120 O 0.27571 0.25666 0.71628 0.0
O121 O 0.83657 0.29863 0.7835 0.0
Cd122 Cd 0.79781 0.29129 0.76008 0.0
O123 O 0.84138 0.26329 0.77473 0.0
Cd124 Cd 0.80609 0.2505 0.75685 0.0
O125 O 0.77492 0.22391 0.75716 0.0
C126 C 0.77524 0.2126 0.77549 0.0
O127 O 0.79337 0.21809 0.79192 0.0
C128 C 0.84918 0.28326 0.78496 0.0
C129 C 0.79458 0.31933 0.72265 0.0
O130 O 0.78771 0.32459 0.74305 0.0
O131 O 0.80316 0.30102 0.7201 0.0
O132 O 0.57967 0.62538 0.55679 0.0
Cd133 Cd 0.59043 0.60346 0.59006 0.0
O134 O 0.54174 0.61927 0.56149 0.0
Cd135 Cd 0.54365 0.60115 0.59373 0.0
O136 O 0.52957 0.59034 0.62675 0.0
C137 C 0.51829 0.57006 0.62725 0.0
O138 O 0.51657 0.55552 0.6082 0.0
C139 C 0.5588 0.62795 0.55021 0.0
C140 C 0.60868 0.56496 0.57536 0.0
O141 O 0.58733 0.56282 0.58062 0.0
O142 O 0.62125 0.58512 0.57695 0.0
O143 O 0.66724 0.41835 0.99437 0.0
Cd144 Cd 0.65316 0.37873 0.00202 0.0
O145 O 0.6307 0.42362 0.99191 0.0
Cd146 Cd 0.6006 0.44119 0.9876 0.0
O147 O 0.57278 0.45768 0.97202 0.0
C148 C 0.57292 0.46064 0.94986 0.0
O149 O 0.5894 0.45375 0.9381 0.0
C150 C 0.65253 0.43153 0.99083 0.0
C151 C 0.62031 0.37514 0.03564 0.0
O152 O 0.64235 0.37658 0.04212 0.0
O153 O 0.61387 0.37551 0.0133 0.0
O154 O 0.77108 0.25143 0.37015 0.0
Cd155 Cd 0.77528 0.22649 0.33479 0.0
O156 O 0.73688 0.25258 0.35108 0.0
Cd157 Cd 0.70154 0.26041 0.34396 0.0
O158 O 0.6665 0.26378 0.32863 0.0
C159 C 0.66442 0.2785 0.31369 0.0
O160 O 0.68348 0.29202 0.3084 0.0
C161 C 0.75184 0.25896 0.36933 0.0
C162 C 0.80161 0.19224 0.34216 0.0
O163 O 0.81125 0.21162 0.33566 0.0
O164 O 0.77975 0.18932 0.34581 0.0
O165 O 0.418 0.10352 0.88966 0.0
Cd166 Cd 0.38667 0.11952 0.90712 0.0
O167 O 0.43358 0.10437 0.92642 0.0
Cd168 Cd 0.45639 0.10304 0.95911 0.0
O169 O 0.46143 0.12069 0.99499 0.0
C170 C 0.44623 0.13333 0.99801 0.0
O171 O 0.42997 0.13372 0.98029 0.0
C172 C 0.43479 0.09997 0.90414 0.0
C173 C 0.35886 0.08732 0.93122 0.0
O174 O 0.35322 0.09003 0.9092 0.0
O175 O 0.37767 0.09995 0.94194 0.0
O176 O 0.25582 0.89258 0.01269 0.0
Cd177 Cd 0.2591 0.92026 0.03783 0.0
Cd178 Cd 0.22017 0.92639 0.01207 0.0
O179 O 0.22004 0.89389 0.9965 0.0
O180 O 0.28105 0.91453 0.06506 0.0
O181 O 0.24315 0.91482 0.06785 0.0
C182 C 0.26331 0.91191 0.07764 0.0
C183 C 0.18725 0.93827 0.0263 0.0
C184 C 0.23781 0.88404 0.99814 0.0
C185 C 0.26401 0.96129 0.01026 0.0
O186 O 0.24349 0.95254 0.0004 0.0
O187 O 0.27314 0.95214 0.02759 0.0
O188 O 0.18851 0.93405 0.00368 0.0
O189 O 0.20413 0.93428 0.04107 0.0
O190 O 0.14868 0.58649 0.3172 0.0
Cd191 Cd 0.1248 0.5584 0.32469 0.0
Cd192 Cd 0.09978 0.56734 0.28486 0.0
O193 O 0.13076 0.58964 0.2817 0.0
O194 O 0.14233 0.53777 0.34205 0.0
O195 O 0.1239 0.52859 0.30545 0.0
C196 C 0.13677 0.52324 0.32337 0.0
C197 C 0.07646 0.54981 0.25025 0.0
C198 C 0.14806 0.59603 0.2977 0.0
C199 C 0.07933 0.57175 0.33269 0.0
O200 O 0.07871 0.57533 0.31067 0.0
O201 O 0.09631 0.56377 0.3426 0.0
O202 O 0.08008 0.57159 0.25546 0.0
O203 O 0.08737 0.53781 0.26403 0.0
O204 O 0.72287 0.66409 0.96172 0.0
Cd205 Cd 0.71798 0.64551 0.99088 0.0
Cd206 Cd 0.7598 0.63443 0.97989 0.0
O207 O 0.75972 0.66067 0.95755 0.0
O208 O 0.69803 0.66051 0.01207 0.0
O209 O 0.7356 0.65919 0.02204 0.0
C210 C 0.71654 0.66588 0.02738 0.0
C211 C 0.79048 0.63197 0.00859 0.0
C212 C 0.74173 0.66937 0.95169 0.0
C213 C 0.71711 0.59645 0.97633 0.0
O214 O 0.73797 0.60305 0.97088 0.0
O215 O 0.70587 0.61067 0.98574 0.0
O216 O 0.79207 0.62708 0.98611 0.0
O217 O 0.77233 0.6401 0.01441 0.0
O218 O 0.94259 0.00862 0.32409 0.0
Cd219 Cd 0.91821 0.0121 0.29631 0.0
Cd220 Cd 0.89436 0.02163 0.33483 0.0
O221 O 0.92408 0.01671 0.35538 0.0
O222 O 0.93637 0.00877 0.26823 0.0
O223 O 0.92381 0.04059 0.27854 0.0
C224 C 0.93531 0.02962 0.26449 0.0
C225 C 0.88132 0.05628 0.33885 0.0
C226 C 0.94204 0.01123 0.34665 0.0
C227 C 0.87127 0.98158 0.30045 0.0
O228 O 0.87032 0.99315 0.32011 0.0
O229 O 0.88854 0.9868 0.28812 0.0
O230 O 0.87697 0.04115 0.354 0.0
O231 O 0.89358 0.05185 0.32151 0.0
O232 O 0.21983 0.17629 0.46933 0.0
Cd233 Cd 0.21943 0.15801 0.49932 0.0
Cd234 Cd 0.2481 0.13654 0.47342 0.0
O235 O 0.24867 0.16358 0.4525 0.0
O236 O 0.20667 0.17585 0.52505 0.0
O237 O 0.24347 0.17018 0.52714 0.0
C238 C 0.22731 0.17889 0.5368 0.0
C239 C 0.28012 0.1289 0.49709 0.0
C240 C 0.23402 0.17712 0.45319 0.0
C241 C 0.2035 0.10781 0.48311 0.0
O242 O 0.21954 0.11004 0.46893 0.0
O243 O 0.20165 0.12444 0.49784 0.0
O244 O 0.27733 0.12294 0.47431 0.0
O245 O 0.26561 0.14056 0.50585 0.0
O246 O 0.44128 0.50959 0.83123 0.0
Cd247 Cd 0.41616 0.51274 0.80389 0.0
Cd248 Cd 0.39421 0.52337 0.84384 0.0
O249 O 0.42462 0.51903 0.8634 0.0
O250 O 0.43229 0.50486 0.77543 0.0
O251 O 0.42308 0.53884 0.78274 0.0
C252 C 0.43252 0.52526 0.76931 0.0
C253 C 0.38212 0.55849 0.84578 0.0
C254 C 0.44188 0.51287 0.85388 0.0
C255 C 0.36947 0.48285 0.81159 0.0
O256 O 0.36981 0.49434 0.83157 0.0
O257 O 0.3856 0.48826 0.79793 0.0
O258 O 0.37803 0.54461 0.8622 0.0
O259 O 0.39348 0.55247 0.82829 0.0
O260 O 0.75496 0.38614 0.51142 0.0
Cd261 Cd 0.76357 0.41322 0.53765 0.0
Cd262 Cd 0.72455 0.42442 0.51249 0.0
O263 O 0.72075 0.39208 0.4951 0.0
O264 O 0.78697 0.40268 0.56022 0.0
O265 O 0.75255 0.40904 0.57048 0.0
C266 C 0.77217 0.40231 0.5761 0.0
C267 C 0.6928 0.4407 0.52359 0.0
C268 C 0.73668 0.37993 0.49654 0.0
C269 C 0.77222 0.45523 0.51187 0.0
O270 O 0.75098 0.44887 0.5028 0.0
O271 O 0.78076 0.44428 0.52799 0.0
O272 O 0.69624 0.43696 0.50143 0.0
O273 O 0.70637 0.43345 0.53961 0.0
O274 O 0.64333 0.0731 0.81424 0.0
Cd275 Cd 0.61891 0.04533 0.82136 0.0
Cd276 Cd 0.59525 0.05419 0.77967 0.0
O277 O 0.62699 0.0759 0.77792 0.0
O278 O 0.6358 0.02535 0.84043 0.0
O279 O 0.61923 0.01519 0.80325 0.0
C280 C 0.6314 0.01046 0.82201 0.0
C281 C 0.57272 0.03855 0.74388 0.0
C282 C 0.64374 0.08227 0.79451 0.0
C283 C 0.57294 0.05868 0.82673 0.0
O284 O 0.57321 0.0619 0.80466 0.0
O285 O 0.5896 0.05103 0.83768 0.0
O286 O 0.57688 0.06018 0.75011 0.0
O287 O 0.58267 0.02561 0.75734 0.0
O288 O 0.99666 0.30672 0.98583 0.0
Cd289 Cd 0.00502 0.28673 0.95734 0.0
Cd290 Cd 0.02548 0.32765 0.94502 0.0
O291 O 0.01789 0.33949 0.97812 0.0
O292 O 0.9988 0.25473 0.96671 0.0
O293 O 0.03451 0.27329 0.96179 0.0
C294 C 0.02118 0.25502 0.96737 0.0
C295 C 0.0639 0.33409 0.93459 0.0
C296 C 0.00463 0.32791 0.9915 0.0
C297 C 0.98494 0.30238 0.91164 0.0
O298 O 0.99864 0.3215 0.91749 0.0
O299 O 0.98577 0.28568 0.92437 0.0
O300 O 0.05159 0.35012 0.93462 0.0
O301 O 0.05445 0.31443 0.94109 0.0
O302 O 0.49626 0.80219 0.47084 0.0
Cd303 Cd 0.50526 0.78305 0.4421 0.0
Cd304 Cd 0.52885 0.82407 0.4334 0.0
O305 O 0.51993 0.83463 0.46638 0.0
O306 O 0.49549 0.75084 0.44967 0.0
O307 O 0.53274 0.7668 0.44761 0.0
C308 C 0.51747 0.74925 0.4518 0.0
C309 C 0.56807 0.83121 0.42539 0.0
C310 C 0.50512 0.82286 0.47816 0.0
C311 C 0.48903 0.80225 0.39705 0.0
O312 O 0.50347 0.82054 0.40461 0.0
O313 O 0.48808 0.78457 0.40861 0.0
O314 O 0.55581 0.84726 0.42592 0.0
O315 O 0.55807 0.81098 0.42989 0.0
O316 O 0.94914 0.77487 0.71529 0.0
Cd317 Cd 0.978 0.76336 0.70304 0.0
Cd318 Cd 0.97183 0.79196 0.66919 0.0
O319 O 0.94892 0.80287 0.69161 0.0
O320 O 0.99627 0.7525 0.73026 0.0
O321 O 0.01016 0.78252 0.71115 0.0
C322 C 0.01335 0.76905 0.72765 0.0
C323 C 0.00094 0.81769 0.65402 0.0
C324 C 0.94091 0.79213 0.70879 0.0
C325 C 0.96444 0.74164 0.65349 0.0
O326 O 0.96116 0.76131 0.64833 0.0
O327 O 0.97263 0.73869 0.6745 0.0
O328 O 0.97905 0.81522 0.64575 0.0
O329 O 0.00613 0.80626 0.67174 0.0
O330 O 0.44632 0.27872 0.20251 0.0
Cd331 Cd 0.47571 0.26882 0.18967 0.0
Cd332 Cd 0.46802 0.29822 0.15742 0.0
O333 O 0.44489 0.30773 0.18046 0.0
O334 O 0.49331 0.25649 0.21631 0.0
O335 O 0.50775 0.28782 0.19952 0.0
C336 C 0.51047 0.27339 0.21514 0.0
C337 C 0.49744 0.3242 0.14308 0.0
C338 C 0.43729 0.29585 0.19705 0.0
C339 C 0.46191 0.24862 0.13958 0.0
O340 O 0.45755 0.26821 0.13548 0.0
O341 O 0.47092 0.24527 0.16014 0.0
O342 O 0.47556 0.32241 0.13505 0.0
O343 O 0.50241 0.31216 0.16037 0.0
H344 H 0.28281 0.77228 0.91878 0.0
H345 H 0.20702 0.86595 0.95875 0.0
H346 H 0.23068 0.79478 0.87128 0.0
H347 H 0.27043 0.85593 -0.00032 0.0
H348 H 0.21125 0.83517 0.92923 0.0
H349 H 0.27484 0.7988 0.95103 0.0
C350 C 0.26947 0.78257 0.9152 0.0
C351 C 0.25697 0.78085 0.8924 0.0
C352 C 0.22414 0.83962 0.94477 0.0
C353 C 0.2478 0.81125 0.9292 0.0
C354 C 0.22166 0.85711 0.96171 0.0
C355 C 0.2385 0.86369 0.98165 0.0
C356 C 0.24349 0.8285 0.94784 0.0
C357 C 0.25712 0.85158 0.98449 0.0
C358 C 0.26492 0.79768 0.93361 0.0
C359 C 0.24002 0.79473 0.88874 0.0
N360 N 0.25917 0.83465 0.96773 0.0
N361 N 0.23595 0.80934 0.90692 0.0
H362 H 0.94401 0.59632 0.36815 0.0
H363 H 0.0757 0.57165 0.38136 0.0
H364 H 0.98551 0.60259 0.4367 0.0
H365 H 0.03773 0.58208 0.31471 0.0
H366 H 0.04201 0.57909 0.40251 0.0
H367 H 0.97731 0.58675 0.34877 0.0
C368 C 0.9601 0.59561 0.37922 0.0
C369 C 0.96184 0.60029 0.4042 0.0
C370 C 0.04117 0.57975 0.38326 0.0
C371 C 0.0003 0.58931 0.38194 0.0
C372 C 0.06034 0.5755 0.37119 0.0
C373 C 0.05959 0.57633 0.34623 0.0
C374 C 0.0211 0.5846 0.37019 0.0
C375 C 0.03923 0.58136 0.33396 0.0
C376 C 0.97916 0.59015 0.36809 0.0
C377 C 0.98317 0.59892 0.41751 0.0
N378 N 0.02086 0.58524 0.34604 0.0
N379 N 0.00162 0.5936 0.4062 0.0
H380 H 0.7042 0.76183 0.84996 0.0
H381 H 0.78057 0.69229 0.93268 0.0
H382 H 0.78001 0.78051 0.86456 0.0
H383 H 0.70473 0.68493 0.92937 0.0
H384 H 0.78112 0.72166 0.90417 0.0
H385 H 0.70454 0.7305 0.87551 0.0
C386 C 0.72094 0.75933 0.85849 0.0
C387 C 0.74209 0.77393 0.8552 0.0
C388 C 0.76439 0.71353 0.90968 0.0
C389 C 0.7426 0.73797 0.88452 0.0
C390 C 0.76405 0.69672 0.92586 0.0
C391 C 0.74259 0.68622 0.93352 0.0
C392 C 0.7431 0.71967 0.90097 0.0
C393 C 0.72171 0.69266 0.92412 0.0
C394 C 0.72112 0.74143 0.87312 0.0
C395 C 0.76326 0.76976 0.8667 0.0
N396 N 0.72251 0.70894 0.90838 0.0
N397 N 0.76298 0.75216 0.88087 0.0
H398 H 0.07882 0.98741 0.4011 0.0
H399 H 0.94461 0.00532 0.39486 0.0
H400 H 0.03314 0.96796 0.45593 0.0
H401 H 0.98605 0.00825 0.33447 0.0
H402 H 0.97832 0.99667 0.41974 0.0
H403 H 0.04635 0.00028 0.3787 0.0
C404 C 0.06199 0.98593 0.4085 0.0
C405 C 0.05866 0.97643 0.43035 0.0
C406 C 0.97999 0.9993 0.40106 0.0
C407 C 0.02137 0.99119 0.40477 0.0
C408 C 0.96081 0.00431 0.38688 0.0
C409 C 0.96245 0.00735 0.36251 0.0
C410 C 0.00098 0.99757 0.39081 0.0
C411 C 0.98388 0.00584 0.35311 0.0
C412 C 0.04343 0.99325 0.39566 0.0
C413 C 0.03645 0.97503 0.43907 0.0
N414 N 0.00226 0.00105 0.36726 0.0
N415 N 0.01862 0.98229 0.42623 0.0
H416 H 0.21613 0.25238 0.67258 0.0
H417 H 0.26865 0.18722 0.56622 0.0
H418 H 0.28681 0.23802 0.67731 0.0
H419 H 0.1972 0.19952 0.56202 0.0
H420 H 0.27615 0.20737 0.60627 0.0
H421 H 0.2094 0.23473 0.63138 0.0
C422 C 0.23027 0.2456 0.66493 0.0
C423 C 0.25205 0.24661 0.67845 0.0
C424 C 0.25884 0.20572 0.59658 0.0
C425 C 0.24444 0.22633 0.63131 0.0
C426 C 0.25455 0.19422 0.57369 0.0
C427 C 0.23223 0.19163 0.56077 0.0
C428 C 0.2407 0.2147 0.60668 0.0
C429 C 0.21465 0.20108 0.57136 0.0
C430 C 0.22641 0.2355 0.64141 0.0
C431 C 0.26973 0.23756 0.66759 0.0
N432 N 0.21924 0.21215 0.59371 0.0
N433 N 0.26551 0.22776 0.64469 0.0
H434 H 0.49674 0.52723 0.63622 0.0
H435 H 0.44476 0.56891 0.75566 0.0
H436 H 0.51127 0.59765 0.66613 0.0
H437 H 0.44635 0.49827 0.73424 0.0
H438 H 0.46567 0.58022 0.72092 0.0
H439 H 0.47499 0.51666 0.67031 0.0
C440 C 0.49542 0.54048 0.64999 0.0
C441 C 0.50591 0.56335 0.64834 0.0
C442 C 0.46138 0.56226 0.72387 0.0
C443 C 0.48081 0.55139 0.68736 0.0
C444 C 0.44935 0.5558 0.74359 0.0
C445 C 0.44387 0.53263 0.74787 0.0
C446 C 0.4677 0.54539 0.70826 0.0
C447 C 0.45031 0.51634 0.73171 0.0
C448 C 0.48299 0.53443 0.66947 0.0
C449 C 0.50357 0.57978 0.66674 0.0
N450 N 0.46184 0.52302 0.71264 0.0
N451 N 0.49118 0.5735 0.68545 0.0
H452 H 0.76848 0.35325 0.71827 0.0
H453 H 0.80953 0.38259 0.59008 0.0
H454 H 0.8155 0.31801 0.68098 0.0
H455 H 0.74612 0.40047 0.61494 0.0
H456 H 0.81606 0.36419 0.62677 0.0
H457 H 0.76395 0.37562 0.68372 0.0
C458 C 0.77796 0.35032 0.7029 0.0
C459 C 0.79233 0.33367 0.70246 0.0
C460 C 0.80077 0.37222 0.62427 0.0
C461 C 0.78736 0.35928 0.66309 0.0
C462 C 0.79706 0.38284 0.60335 0.0
C463 C 0.77714 0.39299 0.59934 0.0
C464 C 0.78458 0.37183 0.64149 0.0
C465 C 0.76164 0.39277 0.61725 0.0
C466 C 0.7753 0.36303 0.6832 0.0
C467 C 0.80414 0.33055 0.68206 0.0
N468 N 0.76565 0.38229 0.63757 0.0
N469 N 0.80144 0.34326 0.66324 0.0
H470 H 0.44691 0.03548 0.65413 0.0
H471 H 0.54901 0.99417 0.7337 0.0
H472 H 0.44276 0.96572 0.67171 0.0
H473 H 0.55442 0.06168 0.70909 0.0
H474 H 0.51267 0.98156 0.70668 0.0
H475 H 0.4883 0.04396 0.67045 0.0
C476 C 0.45485 0.02188 0.66121 0.0
C477 C 0.4415 0.99985 0.66142 0.0
C478 C 0.52207 0.99902 0.70688 0.0
C479 C 0.48882 0.00942 0.68045 0.0
C480 C 0.5429 0.00617 0.72218 0.0
C481 C 0.55452 0.0291 0.7239 0.0
C482 C 0.51288 0.01496 0.69337 0.0
C483 C 0.54582 0.04393 0.70861 0.0
C484 C 0.4785 0.02668 0.67044 0.0
C485 C 0.45259 0.98283 0.67077 0.0
N486 N 0.52537 0.0367 0.69427 0.0
N487 N 0.47557 0.98803 0.68018 0.0
H488 H 0.87274 0.32381 0.80921 0.0
H489 H 0.95934 0.26269 0.8883 0.0
H490 H 0.87733 0.25256 0.79607 0.0
H491 H 0.97012 0.33614 0.88699 0.0
H492 H 0.92849 0.2588 0.85499 0.0
H493 H 0.90797 0.32911 0.83804 0.0
C494 C 0.88127 0.30936 0.81216 0.0
C495 C 0.87193 0.28767 0.8003 0.0
C496 C 0.93773 0.27577 0.86185 0.0
C497 C 0.91199 0.29356 0.83344 0.0
C498 C 0.95529 0.278 0.88093 0.0
C499 C 0.96727 0.29977 0.89051 0.0
C500 C 0.9318 0.29545 0.85247 0.0
C501 C 0.96134 0.31901 0.88015 0.0
C502 C 0.90137 0.3124 0.82862 0.0
C503 C 0.88378 0.26957 0.80484 0.0
N504 N 0.94385 0.31642 0.86184 0.0
N505 N 0.90299 0.27287 0.82121 0.0
H506 H 0.47942 0.9212 0.5881 0.0
H507 H 0.47101 0.80432 0.50583 0.0
H508 H 0.42442 0.86198 0.58958 0.0
H509 H 0.52151 0.86602 0.49997 0.0
H510 H 0.45656 0.82355 0.53982 0.0
H511 H 0.49792 0.89955 0.55923 0.0
C512 C 0.47131 0.90358 0.5825 0.0
C513 C 0.45019 0.89346 0.59111 0.0
C514 C 0.4709 0.83282 0.53117 0.0
C515 C 0.47128 0.86858 0.55793 0.0
C516 C 0.47919 0.82185 0.51178 0.0
C517 C 0.49738 0.83363 0.49987 0.0
C518 C 0.48088 0.85574 0.53875 0.0
C519 C 0.50734 0.8563 0.50846 0.0
C520 C 0.48188 0.89123 0.56597 0.0
C521 C 0.4406 0.87052 0.5833 0.0
N522 N 0.49888 0.86664 0.52728 0.0
N523 N 0.45113 0.85889 0.56702 0.0
H524 H 0.19248 0.31346 0.87656 0.0
H525 H 0.08781 0.37309 0.91863 0.0
H526 H 0.18314 0.38093 0.85936 0.0
H527 H 0.09398 0.30364 0.93088 0.0
H528 H 0.12536 0.37793 0.90112 0.0
H529 H 0.1592 0.31132 0.9007 0.0
C530 C 0.18356 0.32792 0.878 0.0
C531 C 0.19049 0.34733 0.8657 0.0
C532 C 0.11859 0.36168 0.90779 0.0
C533 C 0.15227 0.34493 0.8933 0.0
C534 C 0.09716 0.35891 0.91783 0.0
C535 C 0.08763 0.33785 0.92605 0.0
C536 C 0.13062 0.34327 0.90591 0.0
C537 C 0.10059 0.32012 0.92464 0.0
C538 C 0.16452 0.32666 0.89178 0.0
C539 C 0.17833 0.36557 0.86838 0.0
N540 N 0.12134 0.32319 0.9146 0.0
N541 N 0.15971 0.36385 0.88175 0.0
H542 H 0.59089 0.65837 0.52936 0.0
H543 H 0.48914 0.70861 0.45737 0.0
H544 H 0.51633 0.63087 0.52669 0.0
H545 H 0.56218 0.74261 0.46647 0.0
H546 H 0.50022 0.67637 0.47684 0.0
H547 H 0.582 0.68566 0.5008 0.0
C548 C 0.5727 0.65783 0.52251 0.0
C549 C 0.55429 0.64248 0.53065 0.0
C550 C 0.5139 0.69076 0.47442 0.0
C551 C 0.54405 0.67362 0.49807 0.0
C552 C 0.50759 0.7092 0.46325 0.0
C553 C 0.52472 0.72848 0.46055 0.0
C554 C 0.53754 0.69156 0.48316 0.0
C555 C 0.54838 0.72814 0.46831 0.0
C556 C 0.56765 0.67346 0.50629 0.0
C557 C 0.53107 0.64256 0.52116 0.0
N558 N 0.55407 0.71007 0.47954 0.0
N559 N 0.52663 0.65796 0.50554 0.0
H560 H 0.80457 0.79189 0.7587 0.0
H561 H 0.92916 0.83464 0.71304 0.0
H562 H 0.84412 0.85951 0.78209 0.0
H563 H 0.90736 0.76521 0.73067 0.0
H564 H 0.89497 0.8451 0.73117 0.0
H565 H 0.83899 0.78276 0.74031 0.0
C566 C 0.82041 0.8049 0.75973 0.0
C567 C 0.82156 0.82647 0.77196 0.0
C568 C 0.89781 0.82763 0.73109 0.0
C569 C 0.86077 0.81618 0.75086 0.0
C570 C 0.9172 0.82164 0.72074 0.0
C571 C 0.92108 0.79905 0.72045 0.0
C572 C 0.88193 0.81075 0.74055 0.0
C573 C 0.9051 0.78285 0.73069 0.0
C574 C 0.84004 0.79961 0.7494 0.0
C575 C 0.84258 0.84264 0.7729 0.0
N576 N 0.88606 0.78896 0.74009 0.0
N577 N 0.86138 0.83722 0.76234 0.0
H578 H 0.07894 0.87629 0.54324 0.0
H579 H 0.04861 0.82713 0.66738 0.0
H580 H 0.13185 0.87638 0.6023 0.0
H581 H 0.99586 0.8395 0.61327 0.0
H582 H 0.07943 0.84607 0.64452 0.0
H583 H 0.04826 0.86337 0.56903 0.0
C584 C 0.08411 0.87366 0.56166 0.0
C585 C 0.108 0.87728 0.57059 0.0
C586 C 0.06111 0.84486 0.6378 0.0
C587 C 0.07295 0.86242 0.60023 0.0
C588 C 0.0435 0.83407 0.65085 0.0
C589 C 0.01963 0.83159 0.64214 0.0
C590 C 0.05479 0.85301 0.61577 0.0
C591 C 0.01404 0.84094 0.62063 0.0
C592 C 0.06657 0.86636 0.57641 0.0
C593 C 0.11365 0.87374 0.59466 0.0
N594 N 0.03148 0.85102 0.60807 0.0
N595 N 0.09625 0.86632 0.60859 0.0
H596 H 0.12966 0.75025 0.82683 0.0
H597 H 0.05322 0.80125 0.72558 0.0
H598 H 0.15825 0.80624 0.78688 0.0
H599 H 0.02542 0.74381 0.76397 0.0
H600 H 0.09123 0.80491 0.74955 0.0
H601 H 0.09074 0.74926 0.80576 0.0
C602 C 0.12775 0.76242 0.81371 0.0
C603 C 0.1473 0.77827 0.80853 0.0
C604 C 0.07679 0.79156 0.7528 0.0
C605 C 0.10274 0.77718 0.78426 0.0
C606 C 0.05507 0.78947 0.73913 0.0
C607 C 0.03613 0.77214 0.74271 0.0
C608 C 0.07961 0.7762 0.77019 0.0
C609 C 0.03955 0.75738 0.76054 0.0
C610 C 0.1055 0.76183 0.80166 0.0
C611 C 0.14371 0.79366 0.7914 0.0
N612 N 0.06088 0.75971 0.77354 0.0
N613 N 0.1219 0.79267 0.77981 0.0
H614 H 0.91817 0.65611 0.52178 0.0
H615 H 0.98151 0.70156 0.65264 0.0
H616 H 0.98052 0.63349 0.55143 0.0
H617 H 0.93702 0.73828 0.61094 0.0
H618 H 0.97613 0.6717 0.6192 0.0
H619 H 0.91964 0.68138 0.55812 0.0
C620 C 0.93208 0.6563 0.53601 0.0
C621 C 0.9494 0.64281 0.53345 0.0
C622 C 0.96745 0.68625 0.61751 0.0
C623 C 0.95111 0.67174 0.57518 0.0
C624 C 0.9704 0.70321 0.63659 0.0
C625 C 0.9598 0.72249 0.63449 0.0
C626 C 0.95353 0.68847 0.5964 0.0
C627 C 0.94566 0.72381 0.61325 0.0
C628 C 0.93293 0.6708 0.55673 0.0
C629 C 0.96693 0.64374 0.55258 0.0
N630 N 0.94295 0.70704 0.59505 0.0
N631 N 0.96739 0.65805 0.57266 0.0
H632 H 0.79102 0.85557 0.22668 0.0
H633 H 0.83132 0.96532 0.32167 0.0
H634 H 0.75136 0.87104 0.28528 0.0
H635 H 0.86857 0.95177 0.26046 0.0
H636 H 0.80164 0.93108 0.30852 0.0
H637 H 0.81932 0.89109 0.23851 0.0
C638 C 0.78832 0.86639 0.24212 0.0
C639 C 0.76912 0.85999 0.2554 0.0
C640 C 0.81626 0.93564 0.29792 0.0
C641 C 0.8014 0.90075 0.26902 0.0
C642 C 0.83324 0.95522 0.30542 0.0
C643 C 0.85255 0.96144 0.2922 0.0
C644 C 0.81862 0.92212 0.27708 0.0
C645 C 0.85404 0.94766 0.27126 0.0
C646 C 0.80449 0.88666 0.24888 0.0
C647 C 0.76638 0.87476 0.27511 0.0
N648 N 0.83736 0.92863 0.26442 0.0
N649 N 0.78237 0.89441 0.28136 0.0
H650 H 0.78903 0.15225 0.36284 0.0
H651 H 0.89134 0.09417 0.31378 0.0
H652 H 0.84436 0.18908 0.32598 0.0
H653 H 0.8492 0.06699 0.36855 0.0
H654 H 0.87347 0.12845 0.31638 0.0
H655 H 0.80991 0.1201 0.36363 0.0
C656 C 0.80565 0.15363 0.35503 0.0
C657 C 0.81494 0.17336 0.34429 0.0
C658 C 0.86828 0.11503 0.32793 0.0
C659 C 0.83881 0.1365 0.34489 0.0
C660 C 0.87842 0.09545 0.32642 0.0
C661 C 0.87171 0.07766 0.34092 0.0
C662 C 0.85108 0.11668 0.34383 0.0
C663 C 0.85492 0.08026 0.35701 0.0
C664 C 0.81758 0.13528 0.35553 0.0
C665 C 0.83658 0.17421 0.33449 0.0
N666 N 0.84506 0.09929 0.35789 0.0
N667 N 0.84768 0.15594 0.33483 0.0
H668 H 0.3157 0.0615 0.91506 0.0
H669 H 0.30819 0.98566 0.02677 0.0
H670 H 0.36859 0.07346 0.9759 0.0
H671 H 0.25083 0.98295 0.9715 0.0
H672 H 0.33096 0.01753 0.00859 0.0
H673 H 0.29209 0.03214 0.93547 0.0
C674 C 0.32234 0.05798 0.93275 0.0
C675 C 0.34418 0.06992 0.94377 0.0
C676 C 0.31333 0.01002 0.00056 0.0
C677 C 0.31723 0.0362 0.96726 0.0
C678 C 0.30032 0.99182 0.01092 0.0
C679 C 0.27759 0.98152 0.0006 0.0
C680 C 0.30359 0.01783 0.97965 0.0
C681 C 0.26829 0.99027 0.98008 0.0
C682 C 0.30881 0.04123 0.94443 0.0
C683 C 0.35184 0.06466 0.96675 0.0
N684 N 0.28137 0.0078 0.97022 0.0
N685 N 0.33843 0.04809 0.9777 0.0
H686 H 0.20591 0.41134 0.35829 0.0
H687 H 0.13059 0.48961 0.28607 0.0
H688 H 0.17658 0.39377 0.28465 0.0
H689 H 0.1631 0.50715 0.35864 0.0
H690 H 0.14656 0.45419 0.28501 0.0
H691 H 0.18997 0.44645 0.35844 0.0
C692 C 0.19616 0.41489 0.34209 0.0
C693 C 0.19257 0.39955 0.32143 0.0
C694 C 0.15016 0.4658 0.30115 0.0
C695 C 0.17409 0.43985 0.32151 0.0
C696 C 0.14101 0.48599 0.3018 0.0
C697 C 0.14552 0.50138 0.32248 0.0
C698 C 0.16388 0.46098 0.32135 0.0
C699 C 0.15917 0.49582 0.3423 0.0
C700 C 0.18703 0.43498 0.3422 0.0
C701 C 0.17979 0.40513 0.30098 0.0
N702 N 0.16784 0.47613 0.34123 0.0
N703 N 0.17096 0.42481 0.30156 0.0
H704 H 0.1413 0.963 0.465 0.0
H705 H 0.18138 0.09217 0.5213 0.0
H706 H 0.16794 0.98112 0.53918 0.0
H707 H 0.19401 0.07106 0.44925 0.0
H708 H 0.16435 0.05242 0.52664 0.0
H709 H 0.14924 0.00379 0.45791 0.0
C710 C 0.1484 0.97564 0.47985 0.0
C711 C 0.15391 0.96887 0.50272 0.0
C712 C 0.17053 0.05663 0.50956 0.0
C713 C 0.16283 0.01515 0.49482 0.0
C714 C 0.18008 0.07929 0.50641 0.0
C715 C 0.18932 0.08488 0.48485 0.0
C716 C 0.16982 0.03955 0.4909 0.0
C717 C 0.18728 0.06743 0.46622 0.0
C718 C 0.15304 0.99878 0.47577 0.0
C719 C 0.16353 0.98575 0.52129 0.0
N720 N 0.1778 0.04547 0.46969 0.0
N721 N 0.16762 0.00817 0.51697 0.0
H722 H 0.77077 0.18602 0.81304 0.0
H723 H 0.64946 0.10688 0.75538 0.0
H724 H 0.73581 0.19517 0.74437 0.0
H725 H 0.68291 0.10032 0.8256 0.0
H726 H 0.68147 0.13844 0.75043 0.0
H727 H 0.73918 0.15397 0.81741 0.0
C728 C 0.75643 0.18131 0.79886 0.0
C729 C 0.75594 0.19333 0.7783 0.0
C730 C 0.68182 0.13008 0.76691 0.0
C731 C 0.71966 0.15652 0.7832 0.0
C732 C 0.66356 0.11201 0.76975 0.0
C733 C 0.66345 0.10092 0.79098 0.0
C734 C 0.70016 0.13713 0.7854 0.0
C735 C 0.68222 0.10836 0.80895 0.0
C736 C 0.73838 0.16297 0.80138 0.0
C737 C 0.73689 0.18641 0.76053 0.0
N738 N 0.69978 0.126 0.80576 0.0
N739 N 0.71951 0.16844 0.76339 0.0
H740 H 0.33925 0.07755 0.62256 0.0
H741 H 0.3088 0.09869 0.48552 0.0
H742 H 0.35279 0.03408 0.56261 0.0
H743 H 0.29018 0.13866 0.54554 0.0
H744 H 0.33107 0.07894 0.51348 0.0
H745 H 0.32683 0.10371 0.59466 0.0
C746 C 0.33977 0.07358 0.60354 0.0
C747 C 0.34681 0.05344 0.5949 0.0
C748 C 0.32237 0.09225 0.52052 0.0
C749 C 0.33259 0.08334 0.56282 0.0
C750 C 0.30976 0.10363 0.50454 0.0
C751 C 0.29736 0.12015 0.51321 0.0
C752 C 0.32254 0.0974 0.54532 0.0
C753 C 0.29927 0.12587 0.53806 0.0
C754 C 0.33269 0.08854 0.5876 0.0
C755 C 0.3473 0.04928 0.57006 0.0
N756 N 0.31136 0.11433 0.55324 0.0
N757 N 0.34009 0.064 0.55489 0.0
H758 H 0.5984 0.52128 0.58897 0.0
H759 H 0.67285 0.46867 0.49531 0.0
H760 H 0.6416 0.56304 0.54394 0.0
H761 H 0.67508 0.44716 0.56708 0.0
H762 H 0.65029 0.49761 0.50768 0.0
H763 H 0.61645 0.4885 0.5762 0.0
C764 C 0.61152 0.52347 0.57628 0.0
C765 C 0.61863 0.54485 0.5675 0.0
C766 C 0.65547 0.48632 0.52059 0.0
C767 C 0.63866 0.50761 0.55256 0.0
C768 C 0.6682 0.46968 0.51357 0.0
C769 C 0.67599 0.45552 0.53025 0.0
C770 C 0.65001 0.48855 0.54433 0.0
C771 C 0.6695 0.4578 0.5537 0.0
C772 C 0.62181 0.50487 0.56914 0.0
C773 C 0.63576 0.54688 0.55121 0.0
N774 N 0.65683 0.47406 0.5601 0.0
N775 N 0.64503 0.52844 0.54407 0.0
H776 H 0.7703 0.26293 0.41609 0.0
H777 H 0.70651 0.36643 0.4555 0.0
H778 H 0.72404 0.29181 0.36768 0.0
H779 H 0.76384 0.34688 0.49861 0.0
H780 H 0.708 0.33513 0.42534 0.0
H781 H 0.76402 0.29013 0.4485 0.0
C782 C 0.7586 0.27481 0.41233 0.0
C783 C 0.74727 0.27473 0.38921 0.0
C784 C 0.72012 0.33761 0.4415 0.0
C785 C 0.74004 0.30597 0.42621 0.0
C786 C 0.71919 0.35539 0.45879 0.0
C787 C 0.73521 0.35943 0.47955 0.0
C788 C 0.73707 0.32368 0.44505 0.0
C789 C 0.75128 0.34456 0.4828 0.0
C790 C 0.755 0.29031 0.43084 0.0
C791 C 0.73241 0.2906 0.38534 0.0
N792 N 0.75187 0.32745 0.4657 0.0
N793 N 0.72926 0.30559 0.40363 0.0
H794 H 0.479 0.09929 0.92729 0.0
H795 H 0.5306 0.06489 0.8061 0.0
H796 H 0.43728 0.08211 0.85884 0.0
H797 H 0.56855 0.06305 0.87532 0.0
H798 H 0.49699 0.07308 0.82582 0.0
H799 H 0.51245 0.08738 0.90951 0.0
C800 C 0.47665 0.09269 0.90871 0.0
C801 C 0.45513 0.09163 0.89464 0.0
C802 C 0.51259 0.07082 0.83678 0.0
C803 C 0.49359 0.0785 0.87404 0.0
C804 C 0.5319 0.06625 0.82552 0.0
C805 C 0.55252 0.06338 0.83908 0.0
C806 C 0.51381 0.07282 0.86189 0.0
C807 C 0.553 0.06514 0.86418 0.0
C808 C 0.49586 0.08602 0.89852 0.0
C809 C 0.45349 0.08339 0.87042 0.0
N810 N 0.53395 0.06993 0.87483 0.0
N811 N 0.47245 0.07729 0.86091 0.0
H812 H 0.26718 0.27038 0.34413 0.0
H813 H 0.20178 0.20496 0.446 0.0
H814 H 0.19778 0.27786 0.36223 0.0
H815 H 0.26483 0.18789 0.41938 0.0
H816 H 0.20113 0.23304 0.41659 0.0
H817 H 0.26769 0.24134 0.37272 0.0
C818 C 0.25204 0.26592 0.35408 0.0
C819 C 0.23241 0.27661 0.35078 0.0
C820 C 0.21508 0.22313 0.41712 0.0
C821 C 0.23295 0.24346 0.38358 0.0
C822 C 0.2155 0.2071 0.43397 0.0
C823 C 0.2334 0.19403 0.4352 0.0
C824 C 0.23277 0.22628 0.40143 0.0
C825 C 0.25067 0.19755 0.41906 0.0
C826 C 0.25234 0.24931 0.37037 0.0
C827 C 0.21329 0.27008 0.36415 0.0
N828 N 0.24997 0.21341 0.4029 0.0
N829 N 0.21408 0.25401 0.38 0.0
H830 H 0.53438 0.47448 0.96754 0.0
H831 H 0.48365 0.50492 0.83932 0.0
H832 H 0.56954 0.47026 0.90313 0.0
H833 H 0.44723 0.51049 0.90276 0.0
H834 H 0.5164 0.49461 0.86346 0.0
H835 H 0.50336 0.48985 0.94517 0.0
C836 C 0.53564 0.47688 0.94875 0.0
C837 C 0.55451 0.47092 0.93715 0.0
C838 C 0.50133 0.49818 0.8722 0.0
C839 C 0.51915 0.48848 0.91151 0.0
C840 C 0.48256 0.50409 0.85839 0.0
C841 C 0.46253 0.50842 0.86898 0.0
C842 C 0.50012 0.49642 0.89685 0.0
C843 C 0.46229 0.50723 0.89383 0.0
C844 C 0.51794 0.48565 0.936 0.0
C845 C 0.55528 0.47446 0.9128 0.0
N846 N 0.48075 0.50117 0.90692 0.0
N847 N 0.53783 0.4829 0.90081 0.0
H848 H 0.75069 0.73779 0.16878 0.0
H849 H 0.68181 0.68829 0.04105 0.0
H850 H 0.69036 0.76268 0.13762 0.0
H851 H 0.75077 0.67564 0.06522 0.0
H852 H 0.68271 0.71297 0.07794 0.0
H853 H 0.74927 0.71248 0.13232 0.0
C854 C 0.73716 0.73797 0.15426 0.0
C855 C 0.72064 0.7524 0.15624 0.0
C856 C 0.69763 0.70477 0.07516 0.0
C857 C 0.71881 0.72335 0.11454 0.0
C858 C 0.69707 0.6906 0.05417 0.0
C859 C 0.71626 0.67993 0.05005 0.0
C860 C 0.71742 0.70813 0.09223 0.0
C861 C 0.73562 0.68358 0.06763 0.0
C862 C 0.73638 0.72352 0.13344 0.0
C863 C 0.7035 0.7519 0.13684 0.0
N864 N 0.73569 0.69736 0.08796 0.0
N865 N 0.70298 0.73754 0.11683 0.0
H866 H 0.03008 0.05947 0.15576 0.0
H867 H 0.93832 0.07383 0.25214 0.0
H868 H 0.00218 0.12127 0.16827 0.0
H869 H 0.96143 0.01052 0.23341 0.0
H870 H 0.96165 0.09187 0.22184 0.0
H871 H 0.00542 0.04163 0.1849 0.0
C872 C 0.0188 0.06931 0.16466 0.0
C873 C 0.01822 0.0919 0.15955 0.0
C874 C 0.9615 0.074 0.22433 0.0
C875 C 0.98986 0.07156 0.19297 0.0
C876 C 0.94816 0.0637 0.24158 0.0
C877 C 0.94795 0.04065 0.24535 0.0
C878 C 0.97477 0.06117 0.21087 0.0
C879 C 0.96107 0.02834 0.23118 0.0
C880 C 0.00466 0.05909 0.18127 0.0
C881 C 0.0032 0.1038 0.17163 0.0
N882 N 0.97399 0.03876 0.21467 0.0
N883 N 0.98964 0.0935 0.18781 0.0
H884 H 0.2594 0.82145 0.18932 0.0
H885 H 0.30263 0.92048 0.10973 0.0
H886 H 0.30712 0.88245 0.22082 0.0
H887 H 0.23012 0.88516 0.1003 0.0
H888 H 0.30789 0.90392 0.14813 0.0
H889 H 0.25161 0.84129 0.15352 0.0
C890 C 0.26827 0.83899 0.18866 0.0
C891 C 0.28395 0.85035 0.20799 0.0
C892 C 0.29078 0.90004 0.13774 0.0
C893 C 0.27536 0.8729 0.16715 0.0
C894 C 0.28778 0.90942 0.11588 0.0
C895 C 0.2659 0.90419 0.10193 0.0
C896 C 0.27199 0.88479 0.14528 0.0
C897 C 0.24721 0.88973 0.11065 0.0
C898 C 0.26369 0.8503 0.16835 0.0
C899 C 0.29486 0.87312 0.2063 0.0
N900 N 0.25079 0.88018 0.13162 0.0
N901 N 0.29061 0.88358 0.18608 0.0
H902 H 0.94467 0.46984 0.18575 0.0
H903 H 0.05734 0.57038 0.21375 0.0
H904 H 0.9467 0.53984 0.16985 0.0
H905 H 0.05254 0.50529 0.24383 0.0
H906 H 0.02036 0.55574 0.18892 0.0
H907 H 0.98702 0.47935 0.19933 0.0
C908 C 0.95414 0.48707 0.18463 0.0
C909 C 0.94227 0.50408 0.17657 0.0
C910 C 0.02753 0.5445 0.20067 0.0
C911 C 0.99044 0.51509 0.19223 0.0
C912 C 0.04873 0.55281 0.21477 0.0
C913 C 0.0578 0.53914 0.23116 0.0
C914 C 0.01514 0.52242 0.20313 0.0
C915 C 0.04605 0.51644 0.23152 0.0
C916 C 0.97824 0.49251 0.19253 0.0
C917 C 0.95519 0.52626 0.17608 0.0
N918 N 0.02504 0.50887 0.21801 0.0
N919 N 0.97854 0.53113 0.18385 0.0
H920 H 0.37906 0.83851 0.30383 0.0
H921 H 0.46114 0.76504 0.37113 0.0
H922 H 0.37423 0.76597 0.28647 0.0
H923 H 0.47798 0.83882 0.37458 0.0
H924 H 0.43017 0.76521 0.33881 0.0
H925 H 0.4164 0.83948 0.32823 0.0
C926 C 0.386 0.82286 0.30483 0.0
C927 C 0.37331 0.80208 0.29329 0.0
C928 C 0.44082 0.78136 0.34642 0.0
C929 C 0.41585 0.80302 0.32145 0.0
C930 C 0.45848 0.78128 0.36494 0.0
C931 C 0.47204 0.80196 0.37573 0.0
C932 C 0.43642 0.8023 0.33886 0.0
C933 C 0.4679 0.82247 0.36684 0.0
C934 C 0.40732 0.82342 0.31878 0.0
C935 C 0.38326 0.78236 0.29518 0.0
N936 N 0.45024 0.82214 0.34915 0.0
N937 N 0.40373 0.78326 0.30928 0.0
H938 H 0.9275 0.36551 0.10846 0.0
H939 H 0.02 0.37226 0.01027 0.0
H940 H 0.97634 0.4269 0.0976 0.0
H941 H 0.97304 0.30995 0.02205 0.0
H942 H 0.00602 0.39181 0.0442 0.0
H943 H 0.94572 0.34413 0.07891 0.0
C944 C 0.94216 0.37447 0.10001 0.0
C945 C 0.95027 0.39808 0.10538 0.0
C946 C 0.99886 0.37382 0.03948 0.0
C947 C 0.97113 0.37374 0.07149 0.0
C948 C 0.00684 0.36263 0.02007 0.0
C949 C 0.99756 0.33945 0.01315 0.0
C950 C 0.98135 0.36182 0.05205 0.0
C951 C 0.98063 0.32785 0.02666 0.0
C952 C 0.95255 0.36225 0.08312 0.0
C953 C 0.96938 0.40876 0.09392 0.0
N954 N 0.97294 0.33921 0.04536 0.0
N955 N 0.97904 0.39654 0.07743 0.0
H956 H 0.69664 0.81581 0.3649 0.0
H957 H 0.59393 0.87218 0.41634 0.0
H958 H 0.68952 0.88603 0.35833 0.0
H959 H 0.59764 0.80065 0.41845 0.0
H960 H 0.63234 0.87883 0.40068 0.0
H961 H 0.6641 0.8114 0.39015 0.0
C962 C 0.68845 0.83041 0.36901 0.0
C963 C 0.69562 0.85125 0.35919 0.0
C964 C 0.62488 0.86171 0.40476 0.0
C965 C 0.65825 0.84623 0.38798 0.0
C966 C 0.60293 0.85788 0.41372 0.0
C967 C 0.59242 0.83575 0.41844 0.0
C968 C 0.63643 0.84326 0.40036 0.0
C969 C 0.605 0.81795 0.41488 0.0
C970 C 0.66983 0.82784 0.3834 0.0
C971 C 0.68445 0.86958 0.36529 0.0
N972 N 0.62625 0.82206 0.40583 0.0
N973 N 0.66617 0.86657 0.37908 0.0
H974 H 0.08863 0.17065 0.0585 0.0
H975 H 0.0673 0.25366 0.98236 0.0
H976 H 0.03466 0.12456 0.01196 0.0
H977 H 0.99763 0.21168 0.97116 0.0
H978 H 0.08222 0.22197 0.0001 0.0
H979 H 0.0826 0.20169 0.03396 0.0
C980 C 0.07587 0.16694 0.04281 0.0
C981 C 0.06205 0.14497 0.03737 0.0
C982 C 0.06367 0.21974 0.9938 0.0
C983 C 0.05507 0.18046 0.0091 0.0
C984 C 0.0552 0.23773 0.98346 0.0
C985 C 0.03112 0.2354 0.97561 0.0
C986 C 0.04794 0.19928 0.99612 0.0
C987 C 0.01625 0.21433 0.97731 0.0
C988 C 0.07255 0.18467 0.02868 0.0
C989 C 0.04573 0.1412 0.01684 0.0
N990 N 0.02489 0.19712 0.98742 0.0
N991 N 0.04238 0.15886 0.00375 0.0
H992 H 0.33309 0.35752 0.26764 0.0
H993 H 0.40633 0.26668 0.21961 0.0
H994 H 0.30116 0.28694 0.24675 0.0
H995 H 0.42156 0.3366 0.20144 0.0
H996 H 0.3711 0.27461 0.23715 0.0
H997 H 0.36905 0.35094 0.25011 0.0
C998 C 0.33364 0.34069 0.25934 0.0
C999 C 0.31414 0.32275 0.25856 0.0
C1000 C 0.38222 0.28821 0.22937 0.0
C1001 C 0.35514 0.31508 0.2391 0.0
C1002 C 0.40239 0.28376 0.21952 0.0
C1003 C 0.41686 0.30101 0.20901 0.0
C1004 C 0.37671 0.31016 0.22918 0.0
C1005 C 0.4108 0.3228 0.20926 0.0
C1006 C 0.35408 0.33699 0.24933 0.0
C1007 C 0.31574 0.30127 0.24759 0.0
N1008 N 0.39122 0.32683 0.21933 0.0
N1009 N 0.33598 0.29796 0.23852 0.0
H1010 H 0.57314 0.37603 0.02839 0.0
H1011 H 0.54532 0.33058 0.15465 0.0
H1012 H 0.62732 0.3677 0.08305 0.0
H1013 H 0.49265 0.34773 0.10349 0.0
H1014 H 0.57603 0.34714 0.13036 0.0
H1015 H 0.54379 0.36838 0.05691 0.0
C1016 C 0.57889 0.37272 0.04645 0.0
C1017 C 0.60269 0.37228 0.05328 0.0
C1018 C 0.55778 0.34756 0.12461 0.0
C1019 C 0.56913 0.36339 0.08604 0.0
C1020 C 0.54023 0.33816 0.13852 0.0
C1021 C 0.51635 0.33755 0.13096 0.0
C1022 C 0.55138 0.35623 0.1029 0.0
C1023 C 0.51081 0.34767 0.10993 0.0
C1024 C 0.56212 0.36842 0.06276 0.0
C1025 C 0.60914 0.36809 0.07697 0.0
N1026 N 0.52816 0.35633 0.09649 0.0
N1027 N 0.59242 0.36357 0.09243 0.0
H1028 H 0.62178 0.2516 0.31878 0.0
H1029 H 0.55089 0.3055 0.21542 0.0
H1030 H 0.65376 0.30708 0.27996 0.0
H1031 H 0.52077 0.24681 0.25084 0.0
H1032 H 0.58796 0.30823 0.24085 0.0
H1033 H 0.58384 0.2516 0.29613 0.0
C1034 C 0.62081 0.26388 0.30558 0.0
C1035 C 0.64104 0.27929 0.30118 0.0
C1036 C 0.57321 0.29481 0.24311 0.0
C1037 C 0.5976 0.27932 0.27509 0.0
C1038 C 0.55203 0.29325 0.22861 0.0
C1039 C 0.53273 0.27584 0.23094 0.0
C1040 C 0.57509 0.27887 0.26009 0.0
C1041 C 0.53522 0.26045 0.24835 0.0
C1042 C 0.59913 0.26384 0.29262 0.0
C1043 C 0.63866 0.29483 0.28389 0.0
N1044 N 0.55601 0.2623 0.2622 0.0
N1045 N 0.61737 0.29439 0.27142 0.0
H1046 H 0.47573 0.13569 0.03959 0.0
H1047 H 0.43549 0.24697 0.09663 0.0
H1048 H 0.41922 0.16534 0.00719 0.0
H1049 H 0.47834 0.20816 0.1376 0.0
H1050 H 0.43037 0.21755 0.06324 0.0
H1051 H 0.47808 0.16238 0.07537 0.0
C1052 C 0.46376 0.14771 0.04003 0.0
C1053 C 0.44734 0.14836 0.02032 0.0
C1054 C 0.44076 0.21535 0.07958 0.0
C1055 C 0.45002 0.17893 0.06102 0.0
C1056 C 0.44374 0.23219 0.09865 0.0
C1057 C 0.45742 0.23006 0.11993 0.0
C1058 C 0.45179 0.19633 0.0816 0.0
C1059 C 0.46761 0.21047 0.12153 0.0
C1060 C 0.46508 0.16289 0.06046 0.0
C1061 C 0.43221 0.16424 0.0219 0.0
N1062 N 0.46476 0.19443 0.10252 0.0
N1063 N 0.43404 0.17897 0.0418 0.0
H1064 H 0.27993 0.35216 0.81823 0.0
H1065 H 0.35937 0.45806 0.76793 0.0
H1066 H 0.29198 0.35518 0.74376 0.0
H1067 H 0.33847 0.45981 0.83984 0.0
H1068 H 0.33282 0.42126 0.75827 0.0
H1069 H 0.29914 0.39224 0.82612 0.0
C1070 C 0.286 0.36137 0.8034 0.0
C1071 C 0.28395 0.35034 0.78021 0.0
C1072 C 0.33384 0.42977 0.77611 0.0
C1073 C 0.30682 0.3961 0.78929 0.0
C1074 C 0.34903 0.45081 0.78165 0.0
C1075 C 0.35134 0.46196 0.80481 0.0
C1076 C 0.32101 0.4196 0.79391 0.0
C1077 C 0.33733 0.45179 0.82178 0.0
C1078 C 0.29725 0.38424 0.80798 0.0
C1079 C 0.29319 0.36298 0.76192 0.0
N1080 N 0.32297 0.43105 0.81607 0.0
N1081 N 0.30433 0.38511 0.76688 0.0
H1082 H 0.29479 0.66008 0.86396 0.0
H1083 H 0.39386 0.59503 0.81924 0.0
H1084 H 0.35409 0.69427 0.83044 0.0
H1085 H 0.35031 0.57165 0.87446 0.0
H1086 H 0.37786 0.63045 0.82045 0.0
H1087 H 0.31321 0.6263 0.86549 0.0
C1088 C 0.31174 0.66052 0.85703 0.0
C1089 C 0.32292 0.68001 0.84705 0.0
C1090 C 0.37194 0.6176 0.83238 0.0
C1091 C 0.34395 0.64131 0.84847 0.0
C1092 C 0.38099 0.59737 0.83165 0.0
C1093 C 0.37338 0.58035 0.84675 0.0
C1094 C 0.35489 0.62065 0.84805 0.0
C1095 C 0.35671 0.58431 0.86252 0.0
C1096 C 0.32227 0.64125 0.85795 0.0
C1097 C 0.3449 0.67963 0.83836 0.0
N1098 N 0.34789 0.60394 0.86262 0.0
N1099 N 0.3546 0.6605 0.83906 0.0
H1100 H 0.82466 0.56337 0.42567 0.0
H1101 H 0.81768 0.47666 0.52829 0.0
H1102 H 0.8781 0.57025 0.48562 0.0
H1103 H 0.76006 0.47964 0.47511 0.0
H1104 H 0.84121 0.50963 0.5123 0.0
H1105 H 0.80183 0.53115 0.44281 0.0
C1106 C 0.8316 0.55811 0.44247 0.0
C1107 C 0.85331 0.56954 0.45424 0.0
C1108 C 0.82339 0.50305 0.50423 0.0
C1109 C 0.82724 0.53252 0.474 0.0
C1110 C 0.80997 0.48423 0.51331 0.0
C1111 C 0.78686 0.47533 0.50303 0.0
C1112 C 0.81364 0.51287 0.48464 0.0
C1113 C 0.77776 0.48585 0.48366 0.0
C1114 C 0.81853 0.53971 0.45229 0.0
C1115 C 0.86141 0.56194 0.47598 0.0
N1116 N 0.79119 0.50396 0.47509 0.0
N1117 N 0.84839 0.54383 0.48515 0.0
H1118 H 0.6823 0.88555 0.78365 0.0
H1119 H 0.65484 0.99479 0.85972 0.0
H1120 H 0.70118 0.9009 0.85981 0.0
H1121 H 0.62993 0.97743 0.78491 0.0
H1122 H 0.67233 0.96056 0.85963 0.0
H1123 H 0.66378 0.91942 0.78318 0.0
C1124 C 0.68262 0.89606 0.80025 0.0
C1125 C 0.69332 0.89037 0.82181 0.0
C1126 C 0.66298 0.96414 0.84322 0.0
C1127 C 0.67212 0.92906 0.8214 0.0
C1128 C 0.65295 0.98372 0.84327 0.0
C1129 C 0.6409 0.98902 0.82228 0.0
C1130 C 0.66109 0.94971 0.822 0.0
C1131 C 0.63903 0.97398 0.80151 0.0
C1132 C 0.67199 0.91535 0.79997 0.0
C1133 C 0.69315 0.90458 0.84277 0.0
N1134 N 0.64911 0.95505 0.80186 0.0
N1135 N 0.68275 0.92323 0.84202 0.0
H1136 H 0.62859 0.46145 0.96797 0.0
H1137 H 0.7406 0.56086 0.97162 0.0
H1138 H 0.69714 0.45618 0.00126 0.0
H1139 H 0.67073 0.57569 0.97643 0.0
H1140 H 0.72455 0.5202 0.97286 0.0
H1141 H 0.64351 0.5015 0.96241 0.0
C1142 C 0.64653 0.46875 0.9747 0.0
C1143 C 0.66124 0.4556 0.98613 0.0
C1144 C 0.71274 0.53237 0.97343 0.0
C1145 C 0.67891 0.50103 0.97828 0.0
C1146 C 0.72182 0.55555 0.97255 0.0
C1147 C 0.70698 0.57171 0.97406 0.0
C1148 C 0.6886 0.52523 0.97542 0.0
C1149 C 0.68279 0.5638 0.97538 0.0
C1150 C 0.65516 0.49154 0.97109 0.0
C1151 C 0.68501 0.46571 0.99268 0.0
N1152 N 0.67432 0.54106 0.97603 0.0
N1153 N 0.6931 0.48781 0.98867 0.0
H1154 H 0.27144 0.70417 0.31456 0.0
H1155 H 0.15096 0.62205 0.25943 0.0
H1156 H 0.23125 0.71558 0.24965 0.0
H1157 H 0.18809 0.61436 0.3275 0.0
H1158 H 0.18115 0.65522 0.25455 0.0
H1159 H 0.24183 0.67038 0.31876 0.0
C1160 C 0.25635 0.6996 0.30119 0.0
C1161 C 0.25382 0.71276 0.28172 0.0
C1162 C 0.18272 0.64625 0.27053 0.0
C1163 C 0.21985 0.67395 0.28639 0.0
C1164 C 0.16551 0.62725 0.27332 0.0
C1165 C 0.16694 0.61539 0.29395 0.0
C1166 C 0.20155 0.65348 0.28847 0.0
C1167 C 0.18623 0.62297 0.31132 0.0
C1168 C 0.23945 0.68027 0.30361 0.0
C1169 C 0.2339 0.70597 0.26497 0.0
N1170 N 0.20274 0.64154 0.30819 0.0
N1171 N 0.21769 0.68701 0.26767 0.0
H1172 H 0.83807 0.58163 0.13992 0.0
H1173 H 0.82595 0.60796 0.00236 0.0
H1174 H 0.86029 0.54132 0.08233 0.0
H1175 H 0.79163 0.63965 0.05732 0.0
H1176 H 0.84622 0.5894 0.03306 0.0
H1177 H 0.8279 0.60826 0.11133 0.0
C1178 C 0.84099 0.57847 0.12131 0.0
C1179 C 0.84976 0.55906 0.11344 0.0
C1180 C 0.83452 0.6007 0.03844 0.0
C1181 C 0.83828 0.58952 0.08068 0.0
C1182 C 0.82306 0.61144 0.02094 0.0
C1183 C 0.8068 0.62513 0.02723 0.0
C1184 C 0.8297 0.60368 0.06241 0.0
C1185 C 0.80383 0.62904 0.05161 0.0
C1186 C 0.83519 0.59369 0.105 0.0
C1187 C 0.85331 0.55591 0.08914 0.0
N1188 N 0.81493 0.61813 0.06828 0.0
N1189 N 0.84743 0.5709 0.0736 0.0
H1190 H 0.0684 0.00763 0.0301 0.0
H1191 H 0.18541 0.96006 0.07057 0.0
H1192 H 0.11762 0.03794 0.09084 0.0
H1193 H 0.14627 0.94297 0.00079 0.0
H1194 H 0.15689 0.9838 0.08167 0.0
H1195 H 0.09332 0.9794 0.02231 0.0
C1196 C 0.08441 0.00832 0.04185 0.0
C1197 C 0.09101 0.0253 0.06105 0.0
C1198 C 0.15444 0.97466 0.06402 0.0
C1199 C 0.11953 0.99288 0.05233 0.0
C1200 C 0.1706 0.96097 0.05773 0.0
C1201 C 0.16829 0.94962 0.03466 0.0
C1202 C 0.13574 0.97686 0.04718 0.0
C1203 C 0.14882 0.95153 0.01872 0.0
C1204 C 0.09863 0.99219 0.03738 0.0
C1205 C 0.11193 0.02527 0.07573 0.0
N1206 N 0.13338 0.96496 0.02524 0.0
N1207 N 0.12545 0.00933 0.07105 0.0
loop_
_geom_bond_atom_site_label_1
_geom_bond_atom_site_label_2
_geom_bond_distance
_geom_bond_site_symmetry_2
_ccdc_geom_bond_type
O0 Cd1 2.300 . S
O0 C7 1.275 . S
Cd1 O0 2.300 . S
Cd1 O9 2.381 . S
Cd1 O10 2.378 . S
O2 Cd3 2.385 . S
O2 C7 1.255 . S
Cd3 O2 2.385 . S
Cd3 O4 2.317 . S
O4 Cd3 2.317 . S
O4 C5 1.232 . S
C5 O4 1.232 . S
C5 O6 1.218 . S
O6 C5 1.218 . S
C7 O0 1.275 . S
C7 O2 1.255 . S
C8 O9 1.258 . S
C8 O10 1.256 . S
O9 Cd1 2.381 . S
O9 C8 1.258 . S
O10 Cd1 2.378 . S
O10 C8 1.256 . S
O11 Cd12 2.300 . S
O11 C18 1.275 . S
Cd12 O11 2.300 . S
Cd12 O20 2.381 . S
Cd12 O21 2.378 . S
O13 Cd14 2.385 . S
O13 C18 1.255 . S
Cd14 O13 2.385 . S
Cd14 O15 2.317 . S
O15 Cd14 2.317 . S
O15 C16 1.232 . S
C16 O15 1.232 . S
C16 O17 1.218 . S
O17 C16 1.218 . S
C18 O11 1.275 . S
C18 O13 1.255 . S
C19 O20 1.258 . S
C19 O21 1.256 . S
O20 Cd12 2.381 . S
O20 C19 1.258 . S
O21 Cd12 2.378 . S
O21 C19 1.256 . S
O22 Cd23 2.300 . S
O22 C29 1.275 . S
Cd23 O22 2.300 . S
Cd23 O31 2.381 . S
Cd23 O32 2.378 . S
O24 Cd25 2.385 . S
O24 C29 1.255 . S
Cd25 O24 2.385 . S
Cd25 O26 2.317 . S
O26 Cd25 2.317 . S
O26 C27 1.232 . S
C27 O26 1.232 . S
C27 O28 1.218 . S
O28 C27 1.218 . S
C29 O22 1.275 . S
C29 O24 1.255 . S
C30 O31 1.258 . S
C30 O32 1.256 . S
O31 Cd23 2.381 . S
O31 C30 1.258 . S
O32 Cd23 2.378 . S
O32 C30 1.256 . S
O33 Cd34 2.300 . S
O33 C40 1.275 . S
Cd34 O33 2.300 . S
Cd34 O42 2.381 . S
Cd34 O43 2.378 . S
O35 Cd36 2.385 . S
O35 C40 1.255 . S
Cd36 O35 2.385 . S
Cd36 O37 2.317 . S
O37 Cd36 2.317 . S
O37 C38 1.232 . S
C38 O37 1.232 . S
C38 O39 1.218 . S
O39 C38 1.218 . S
C40 O33 1.275 . S
C40 O35 1.255 . S
C41 O42 1.258 . S
C41 O43 1.256 . S
O42 Cd34 2.381 . S
O42 C41 1.258 . S
O43 Cd34 2.378 . S
O43 C41 1.256 . S
O44 Cd45 2.300 . S
O44 C51 1.275 . S
Cd45 O44 2.300 . S
Cd45 O53 2.381 . S
Cd45 O54 2.378 . S
O46 Cd47 2.385 1_565 S
O46 C51 1.255 . S
Cd47 O46 2.385 1_545 S
Cd47 O48 2.317 1_545 S
O48 Cd47 2.317 1_565 S
O48 C49 1.232 . S
C49 O48 1.232 . S
C49 O50 1.218 1_565 S
O50 C49 1.218 1_545 S
C51 O44 1.275 . S
C51 O46 1.255 . S
C52 O53 1.258 . S
C52 O54 1.256 . S
O53 Cd45 2.381 . S
O53 C52 1.258 . S
O54 Cd45 2.378 . S
O54 C52 1.256 . S
O55 Cd56 2.300 . S
O55 C62 1.275 . S
Cd56 O55 2.300 . S
Cd56 O64 2.381 . S
Cd56 O65 2.378 . S
O57 Cd58 2.385 . S
O57 C62 1.255 . S
Cd58 O57 2.385 . S
Cd58 O59 2.317 . S
O59 Cd58 2.317 . S
O59 C60 1.232 . S
C60 O59 1.232 . S
C60 O61 1.218 . S
O61 C60 1.218 . S
C62 O55 1.275 . S
C62 O57 1.255 . S
C63 O64 1.258 . S
C63 O65 1.256 . S
O64 Cd56 2.381 . S
O64 C63 1.258 . S
O65 Cd56 2.378 . S
O65 C63 1.256 . S
O66 Cd67 2.300 . S
O66 C73 1.275 . S
Cd67 O66 2.300 . S
Cd67 O75 2.381 . S
Cd67 O76 2.378 . S
O68 Cd69 2.385 . S
O68 C73 1.255 . S
Cd69 O68 2.385 . S
Cd69 O70 2.317 . S
O70 Cd69 2.317 . S
O70 C71 1.232 . S
C71 O70 1.232 . S
C71 O72 1.218 . S
O72 C71 1.218 . S
C73 O66 1.275 . S
C73 O68 1.255 . S
C74 O75 1.258 . S
C74 O76 1.256 . S
O75 Cd67 2.381 . S
O75 C74 1.258 . S
O76 Cd67 2.378 . S
O76 C74 1.256 . S
O77 Cd78 2.300 . S
O77 C84 1.275 . S
Cd78 O77 2.300 . S
Cd78 O86 2.381 . S
Cd78 O87 2.378 . S
O79 Cd80 2.385 . S
O79 C84 1.255 . S
Cd80 O79 2.385 . S
Cd80 O81 2.317 . S
O81 Cd80 2.317 . S
O81 C82 1.232 . S
C82 O81 1.232 . S
C82 O83 1.218 . S
O83 C82 1.218 . S
C84 O77 1.275 . S
C84 O79 1.255 . S
C85 O86 1.258 . S
C85 O87 1.256 . S
O86 Cd78 2.381 . S
O86 C85 1.258 . S
O87 Cd78 2.378 . S
O87 C85 1.256 . S
O88 Cd89 2.300 . S
O88 C95 1.275 . S
Cd89 O88 2.300 . S
Cd89 O97 2.381 . S
Cd89 O98 2.378 . S
O90 Cd91 2.385 . S
O90 C95 1.255 . S
Cd91 O90 2.385 . S
Cd91 O92 2.317 . S
O92 Cd91 2.317 . S
O92 C93 1.232 . S
C93 O92 1.232 . S
C93 O94 1.218 . S
O94 C93 1.218 . S
C95 O88 1.275 . S
C95 O90 1.255 . S
C96 O97 1.258 . S
C96 O98 1.256 . S
O97 Cd89 2.381 . S
O97 C96 1.258 . S
O98 Cd89 2.378 . S
O98 C96 1.256 . S
O99 Cd100 2.300 . S
O99 C106 1.275 . S
Cd100 O99 2.300 . S
Cd100 O108 2.381 . S
Cd100 O109 2.378 . S
O101 Cd102 2.385 . S
O101 C106 1.255 . S
Cd102 O101 2.385 . S
Cd102 O103 2.317 . S
O103 Cd102 2.317 . S
O103 C104 1.232 . S
C104 O103 1.232 . S
C104 O105 1.218 . S
O105 C104 1.218 . S
C106 O99 1.275 . S
C106 O101 1.255 . S
C107 O108 1.258 . S
C107 O109 1.256 . S
O108 Cd100 2.381 . S
O108 C107 1.258 . S
O109 Cd100 2.378 . S
O109 C107 1.256 . S
O110 Cd111 2.300 . S
O110 C117 1.275 . S
Cd111 O110 2.300 . S
Cd111 O119 2.381 . S
Cd111 O120 2.378 . S
O112 Cd113 2.385 . S
O112 C117 1.255 . S
Cd113 O112 2.385 . S
Cd113 O114 2.317 . S
O114 Cd113 2.317 . S
O114 C115 1.232 . S
C115 O114 1.232 . S
C115 O116 1.218 . S
O116 C115 1.218 . S
C117 O110 1.275 . S
C117 O112 1.255 . S
C118 O119 1.258 . S
C118 O120 1.256 . S
O119 Cd111 2.381 . S
O119 C118 1.258 . S
O120 Cd111 2.378 . S
O120 C118 1.256 . S
O121 Cd122 2.300 . S
O121 C128 1.275 . S
Cd122 O121 2.300 . S
Cd122 O130 2.381 . S
Cd122 O131 2.378 . S
O123 Cd124 2.385 . S
O123 C128 1.255 . S
Cd124 O123 2.385 . S
Cd124 O125 2.317 . S
O125 Cd124 2.317 . S
O125 C126 1.232 . S
C126 O125 1.232 . S
C126 O127 1.218 . S
O127 C126 1.218 . S
C128 O121 1.275 . S
C128 O123 1.255 . S
C129 O130 1.258 . S
C129 O131 1.256 . S
O130 Cd122 2.381 . S
O130 C129 1.258 . S
O131 Cd122 2.378 . S
O131 C129 1.256 . S
O132 Cd133 2.300 . S
O132 C139 1.275 . S
Cd133 O132 2.300 . S
Cd133 O141 2.381 . S
Cd133 O142 2.378 . S
O134 Cd135 2.385 . S
O134 C139 1.255 . S
Cd135 O134 2.385 . S
Cd135 O136 2.317 . S
O136 Cd135 2.317 . S
O136 C137 1.232 . S
C137 O136 1.232 . S
C137 O138 1.218 . S
O138 C137 1.218 . S
C139 O132 1.275 . S
C139 O134 1.255 . S
C140 O141 1.258 . S
C140 O142 1.256 . S
O141 Cd133 2.381 . S
O141 C140 1.258 . S
O142 Cd133 2.378 . S
O142 C140 1.256 . S
O143 Cd144 2.300 . S
O143 C150 1.275 . S
Cd144 O143 2.300 . S
Cd144 O152 2.381 . S
Cd144 O153 2.378 . S
O145 Cd146 2.385 . S
O145 C150 1.255 . S
Cd146 O145 2.385 . S
Cd146 O147 2.317 . S
O147 Cd146 2.317 . S
O147 C148 1.232 . S
C148 O147 1.232 . S
C148 O149 1.218 . S
O149 C148 1.218 . S
C150 O143 1.275 . S
C150 O145 1.255 . S
C151 O152 1.258 . S
C151 O153 1.256 . S
O152 Cd144 2.381 . S
O152 C151 1.258 . S
O153 Cd144 2.378 . S
O153 C151 1.256 . S
O154 Cd155 2.300 . S
O154 C161 1.275 . S
Cd155 O154 2.300 . S
Cd155 O163 2.381 . S
Cd155 O164 2.378 . S
O156 Cd157 2.385 . S
O156 C161 1.255 . S
Cd157 O156 2.385 . S
Cd157 O158 2.317 . S
O158 Cd157 2.317 . S
O158 C159 1.232 . S
C159 O158 1.232 . S
C159 O160 1.218 . S
O160 C159 1.218 . S
C161 O154 1.275 . S
C161 O156 1.255 . S
C162 O163 1.258 . S
C162 O164 1.256 . S
O163 Cd155 2.381 . S
O163 C162 1.258 . S
O164 Cd155 2.378 . S
O164 C162 1.256 . S
O165 Cd166 2.300 . S
O165 C172 1.275 . S
Cd166 O165 2.300 . S
Cd166 O174 2.381 . S
Cd166 O175 2.378 . S
O167 Cd168 2.385 . S
O167 C172 1.255 . S
Cd168 O167 2.385 . S
Cd168 O169 2.317 . S
O169 Cd168 2.317 . S
O169 C170 1.232 . S
C170 O169 1.232 . S
C170 O171 1.218 . S
O171 C170 1.218 . S
C172 O165 1.275 . S
C172 O167 1.255 . S
C173 O174 1.258 . S
C173 O175 1.256 . S
O174 Cd166 2.381 . S
O174 C173 1.258 . S
O175 Cd166 2.378 . S
O175 C173 1.256 . S
O176 Cd177 2.223 . S
O176 C184 1.315 . S
Cd177 O176 2.223 . S
Cd177 O180 2.297 . S
Cd177 O181 2.439 . S
Cd177 O187 2.240 . S
Cd178 O179 2.240 . S
Cd178 O186 2.223 . S
Cd178 O188 2.297 . S
Cd178 O189 2.439 . S
O179 Cd178 2.240 . S
O179 C184 1.279 . S
O180 Cd177 2.297 . S
O180 C182 1.247 . S
O181 Cd177 2.439 . S
O181 C182 1.208 . S
C182 O180 1.247 . S
C182 O181 1.208 . S
C183 O188 1.247 . S
C183 O189 1.208 . S
C184 O176 1.315 . S
C184 O179 1.279 . S
C185 O186 1.315 . S
C185 O187 1.279 . S
O186 Cd178 2.223 . S
O186 C185 1.315 . S
O187 Cd177 2.240 . S
O187 C185 1.279 . S
O188 Cd178 2.297 . S
O188 C183 1.247 . S
O189 Cd178 2.439 . S
O189 C183 1.208 . S
O190 Cd191 2.223 . S
O190 C198 1.315 . S
Cd191 O190 2.223 . S
Cd191 O194 2.297 . S
Cd191 O195 2.439 . S
Cd191 O201 2.240 . S
Cd192 O193 2.240 . S
Cd192 O200 2.223 . S
Cd192 O202 2.297 . S
Cd192 O203 2.439 . S
O193 Cd192 2.240 . S
O193 C198 1.279 . S
O194 Cd191 2.297 . S
O194 C196 1.247 . S
O195 Cd191 2.439 . S
O195 C196 1.208 . S
C196 O194 1.247 . S
C196 O195 1.208 . S
C197 O202 1.247 . S
C197 O203 1.208 . S
C198 O190 1.315 . S
C198 O193 1.279 . S
C199 O200 1.315 . S
C199 O201 1.279 . S
O200 Cd192 2.223 . S
O200 C199 1.315 . S
O201 Cd191 2.240 . S
O201 C199 1.279 . S
O202 Cd192 2.297 . S
O202 C197 1.247 . S
O203 Cd192 2.439 . S
O203 C197 1.208 . S
O204 Cd205 2.223 1_556 S
O204 C212 1.315 . S
Cd205 O204 2.223 1_554 S
Cd205 O208 2.297 . S
Cd205 O209 2.439 . S
Cd205 O215 2.240 . S
Cd206 O207 2.242 . S
Cd206 O214 2.235 . S
Cd206 O216 2.288 1_556 S
Cd206 O217 2.415 1_556 S
O207 Cd206 2.242 . S
O207 C212 1.279 . S
O208 Cd205 2.297 . S
O208 C210 1.247 . S
O209 Cd205 2.439 . S
O209 C210 1.208 . S
C210 O208 1.247 . S
C210 O209 1.208 . S
C211 O216 1.247 . S
C211 O217 1.208 . S
C212 O204 1.315 . S
C212 O207 1.279 . S
C213 O214 1.315 . S
C213 O215 1.279 1_556 S
O214 Cd206 2.235 . S
O214 C213 1.315 . S
O215 Cd205 2.240 . S
O215 C213 1.279 1_554 S
O216 Cd206 2.288 1_554 S
O216 C211 1.247 . S
O217 Cd206 2.415 1_554 S
O217 C211 1.208 . S
O218 Cd219 2.223 . S
O218 C226 1.315 . S
Cd219 O218 2.223 . S
Cd219 O222 2.297 . S
Cd219 O223 2.439 . S
Cd219 O229 2.240 . S
Cd220 O221 2.240 . S
Cd220 O228 2.223 . S
Cd220 O230 2.297 . S
Cd220 O231 2.439 . S
O221 Cd220 2.240 . S
O221 C226 1.279 . S
O222 Cd219 2.297 . S
O222 C224 1.247 . S
O223 Cd219 2.439 . S
O223 C224 1.208 . S
C224 O222 1.247 . S
C224 O223 1.208 . S
C225 O230 1.247 . S
C225 O231 1.208 . S
C226 O218 1.315 . S
C226 O221 1.279 . S
C227 O228 1.315 . S
C227 O229 1.279 . S
O228 Cd220 2.223 . S
O228 C227 1.315 . S
O229 Cd219 2.240 . S
O229 C227 1.279 . S
O230 Cd220 2.297 . S
O230 C225 1.247 . S
O231 Cd220 2.439 . S
O231 C225 1.208 . S
O232 Cd233 2.223 . S
O232 C240 1.315 . S
Cd233 O232 2.223 . S
Cd233 O236 2.297 . S
Cd233 O237 2.439 . S
Cd233 O243 2.240 . S
Cd234 O235 2.240 . S
Cd234 O242 2.223 . S
Cd234 O244 2.297 . S
Cd234 O245 2.439 . S
O235 Cd234 2.240 . S
O235 C240 1.279 . S
O236 Cd233 2.297 . S
O236 C238 1.247 . S
O237 Cd233 2.439 . S
O237 C238 1.208 . S
C238 O236 1.247 . S
C238 O237 1.208 . S
C239 O244 1.247 . S
C239 O245 1.208 . S
C240 O232 1.315 . S
C240 O235 1.279 . S
C241 O242 1.315 . S
C241 O243 1.279 . S
O242 Cd234 2.223 . S
O242 C241 1.315 . S
O243 Cd233 2.240 . S
O243 C241 1.279 . S
O244 Cd234 2.297 . S
O244 C239 1.247 . S
O245 Cd234 2.439 . S
O245 C239 1.208 . S
O246 Cd247 2.223 . S
O246 C254 1.315 . S
Cd247 O246 2.223 . S
Cd247 O250 2.297 . S
Cd247 O251 2.439 . S
Cd247 O257 2.240 . S
Cd248 O249 2.240 . S
Cd248 O256 2.223 . S
Cd248 O258 2.297 . S
Cd248 O259 2.439 . S
O249 Cd248 2.240 . S
O249 C254 1.279 . S
O250 Cd247 2.297 . S
O250 C252 1.247 . S
O251 Cd247 2.439 . S
O251 C252 1.208 . S
C252 O250 1.247 . S
C252 O251 1.208 . S
C253 O258 1.247 . S
C253 O259 1.208 . S
C254 O246 1.315 . S
C254 O249 1.279 . S
C255 O256 1.315 . S
C255 O257 1.279 . S
O256 Cd248 2.223 . S
O256 C255 1.315 . S
O257 Cd247 2.240 . S
O257 C255 1.279 . S
O258 Cd248 2.297 . S
O258 C253 1.247 . S
O259 Cd248 2.439 . S
O259 C253 1.208 . S
O260 Cd261 2.223 . S
O260 C268 1.315 . S
Cd261 O260 2.223 . S
Cd261 O264 2.297 . S
Cd261 O265 2.439 . S
Cd261 O271 2.240 . S
Cd262 O263 2.240 . S
Cd262 O270 2.223 . S
Cd262 O272 2.297 . S
Cd262 O273 2.439 . S
O263 Cd262 2.240 . S
O263 C268 1.279 . S
O264 Cd261 2.297 . S
O264 C266 1.247 . S
O265 Cd261 2.439 . S
O265 C266 1.208 . S
C266 O264 1.247 . S
C266 O265 1.208 . S
C267 O272 1.247 . S
C267 O273 1.208 . S
C268 O260 1.315 . S
C268 O263 1.279 . S
C269 O270 1.315 . S
C269 O271 1.279 . S
O270 Cd262 2.223 . S
O270 C269 1.315 . S
O271 Cd261 2.240 . S
O271 C269 1.279 . S
O272 Cd262 2.297 . S
O272 C267 1.247 . S
O273 Cd262 2.439 . S
O273 C267 1.208 . S
O274 Cd275 2.223 1_545 S
O274 C282 1.315 . S
Cd275 O274 2.223 1_565 S
Cd275 O278 2.297 . S
Cd275 O279 2.439 . S
Cd275 O285 2.240 1_565 S
Cd276 O277 2.240 . S
Cd276 O284 2.223 . S
Cd276 O286 2.297 . S
Cd276 O287 2.439 1_545 S
O277 Cd276 2.240 . S
O277 C282 1.279 . S
O278 Cd275 2.297 . S
O278 C280 1.247 . S
O279 Cd275 2.439 . S
O279 C280 1.208 . S
C280 O278 1.247 . S
C280 O279 1.208 . S
C281 O286 1.247 1_565 S
C281 O287 1.208 . S
C282 O274 1.315 . S
C282 O277 1.279 . S
C283 O284 1.315 . S
C283 O285 1.279 . S
O284 Cd276 2.223 . S
O284 C283 1.315 . S
O285 Cd275 2.240 1_545 S
O285 C283 1.279 . S
O286 Cd276 2.297 . S
O286 C281 1.247 1_545 S
O287 Cd276 2.439 1_565 S
O287 C281 1.208 . S
O288 Cd289 2.223 . S
O288 C296 1.315 . S
Cd289 O288 2.223 . S
Cd289 O292 2.297 1_656 S
Cd289 O293 2.439 1_655 S
Cd289 O299 2.240 . S
Cd290 O291 2.240 . S
Cd290 O298 2.223 1_455 S
Cd290 O300 2.297 . S
Cd290 O301 2.439 . S
O291 Cd290 2.240 . S
O291 C296 1.279 1_455 S
O292 Cd289 2.297 1_454 S
O292 C294 1.247 1_554 S
O293 Cd289 2.439 1_455 S
O293 C294 1.208 . S
C294 O292 1.247 1_556 S
C294 O293 1.208 . S
C295 O300 1.247 . S
C295 O301 1.208 . S
C296 O288 1.315 . S
C296 O291 1.279 1_655 S
C297 O298 1.315 . S
C297 O299 1.279 . S
O298 Cd290 2.223 1_655 S
O298 C297 1.315 . S
O299 Cd289 2.240 . S
O299 C297 1.279 . S
O300 Cd290 2.297 . S
O300 C295 1.247 . S
O301 Cd290 2.439 . S
O301 C295 1.208 . S
O302 Cd303 2.223 . S
O302 C310 1.315 . S
Cd303 O302 2.223 . S
Cd303 O306 2.297 . S
Cd303 O307 2.439 . S
Cd303 O313 2.240 . S
Cd304 O305 2.240 . S
Cd304 O312 2.223 . S
Cd304 O314 2.297 . S
Cd304 O315 2.439 . S
O305 Cd304 2.240 . S
O305 C310 1.279 . S
O306 Cd303 2.297 . S
O306 C308 1.247 . S
O307 Cd303 2.439 . S
O307 C308 1.208 . S
C308 O306 1.247 . S
C308 O307 1.208 . S
C309 O314 1.247 . S
C309 O315 1.208 . S
C310 O302 1.315 . S
C310 O305 1.279 . S
C311 O312 1.315 . S
C311 O313 1.279 . S
O312 Cd304 2.223 . S
O312 C311 1.315 . S
O313 Cd303 2.240 . S
O313 C311 1.279 . S
O314 Cd304 2.297 . S
O314 C309 1.247 . S
O315 Cd304 2.439 . S
O315 C309 1.208 . S
O316 Cd317 2.223 1_655 S
O316 C324 1.315 . S
Cd317 O316 2.223 1_455 S
Cd317 O320 2.297 . S
Cd317 O321 2.439 . S
Cd317 O327 2.240 . S
Cd318 O319 2.240 . S
Cd318 O326 2.223 1_455 S
Cd318 O328 2.297 . S
Cd318 O329 2.439 . S
O319 Cd318 2.240 . S
O319 C324 1.279 1_455 S
O320 Cd317 2.297 . S
O320 C322 1.247 . S
O321 Cd317 2.439 . S
O321 C322 1.208 . S
C322 O320 1.247 . S
C322 O321 1.208 . S
C323 O328 1.247 . S
C323 O329 1.208 . S
C324 O316 1.315 . S
C324 O319 1.279 1_655 S
C325 O326 1.315 . S
C325 O327 1.279 1_655 S
O326 Cd318 2.223 1_655 S
O326 C325 1.315 . S
O327 Cd317 2.240 . S
O327 C325 1.279 1_455 S
O328 Cd318 2.297 . S
O328 C323 1.247 . S
O329 Cd318 2.439 . S
O329 C323 1.208 . S
O330 Cd331 2.223 . S
O330 C338 1.315 . S
Cd331 O330 2.223 . S
Cd331 O334 2.297 . S
Cd331 O335 2.439 . S
Cd331 O341 2.240 . S
Cd332 O333 2.240 . S
Cd332 O340 2.223 . S
Cd332 O342 2.297 . S
Cd332 O343 2.439 . S
O333 Cd332 2.240 . S
O333 C338 1.279 . S
O334 Cd331 2.297 . S
O334 C336 1.247 . S
O335 Cd331 2.439 . S
O335 C336 1.208 . S
C336 O334 1.247 . S
C336 O335 1.208 . S
C337 O342 1.247 . S
C337 O343 1.208 . S
C338 O330 1.315 . S
C338 O333 1.279 . S
C339 O340 1.315 . S
C339 O341 1.279 . S
O340 Cd332 2.223 . S
O340 C339 1.315 . S
O341 Cd331 2.240 . S
O341 C339 1.279 . S
O342 Cd332 2.297 . S
O342 C337 1.247 . S
O343 Cd332 2.439 . S
O343 C337 1.208 . S
H344 C350 0.930 . S
H345 C354 0.930 . S
H346 C359 0.929 . S
H347 C357 0.929 1_554 S
H348 C352 0.929 . S
H349 C358 0.929 . S
C350 H344 0.930 . S
C350 C351 1.367 . S
C350 C358 1.378 . S
C351 C350 1.367 . S
C351 C359 1.433 . S
C352 H348 0.929 . S
C352 C354 1.378 . S
C352 C356 1.350 . S
C353 C356 1.463 . S
C353 C358 1.350 . S
C353 N361 1.427 . S
C354 H345 0.930 . S
C354 C352 1.378 . S
C354 C355 1.367 . S
C355 C354 1.367 . S
C355 C357 1.433 . S
C356 C352 1.350 . S
C356 C353 1.463 . S
C356 N360 1.427 . S
C357 H347 0.929 1_556 S
C357 C355 1.433 . S
C357 N360 1.384 . S
C358 H349 0.929 . S
C358 C350 1.378 . S
C358 C353 1.350 . S
C359 H346 0.929 . S
C359 C351 1.433 . S
C359 N361 1.384 . S
N360 C356 1.427 . S
N360 C357 1.384 . S
N361 C353 1.427 . S
N361 C359 1.384 . S
H362 C368 0.930 . S
H363 C372 0.930 . S
H364 C377 0.929 . S
H365 C375 0.929 . S
H366 C370 0.929 . S
H367 C376 0.929 . S
C368 H362 0.930 . S
C368 C369 1.367 . S
C368 C376 1.378 . S
C369 C368 1.367 . S
C369 C377 1.433 . S
C370 H366 0.929 . S
C370 C372 1.378 . S
C370 C374 1.350 . S
C371 C374 1.463 . S
C371 C376 1.350 1_455 S
C371 N379 1.427 . S
C372 H363 0.930 . S
C372 C370 1.378 . S
C372 C373 1.367 . S
C373 C372 1.367 . S
C373 C375 1.433 . S
C374 C370 1.350 . S
C374 C371 1.463 . S
C374 N378 1.427 . S
C375 H365 0.929 . S
C375 C373 1.433 . S
C375 N378 1.384 . S
C376 H367 0.929 . S
C376 C368 1.378 . S
C376 C371 1.350 1_655 S
C377 H364 0.929 . S
C377 C369 1.433 . S
C377 N379 1.384 1_655 S
N378 C374 1.427 . S
N378 C375 1.384 . S
N379 C371 1.427 . S
N379 C377 1.384 1_455 S
H380 C386 0.930 . S
H381 C390 0.930 . S
H382 C395 0.929 . S
H383 C393 0.929 . S
H384 C388 0.929 . S
H385 C394 0.929 . S
C386 H380 0.930 . S
C386 C387 1.367 . S
C386 C394 1.378 . S
C387 C386 1.367 . S
C387 C395 1.433 . S
C388 H384 0.929 . S
C388 C390 1.378 . S
C388 C392 1.350 . S
C389 C392 1.463 . S
C389 C394 1.350 . S
C389 N397 1.427 . S
C390 H381 0.930 . S
C390 C388 1.378 . S
C390 C391 1.367 . S
C391 C390 1.367 . S
C391 C393 1.433 . S
C392 C388 1.350 . S
C392 C389 1.463 . S
C392 N396 1.427 . S
C393 H383 0.929 . S
C393 C391 1.433 . S
C393 N396 1.384 . S
C394 H385 0.929 . S
C394 C386 1.378 . S
C394 C389 1.350 . S
C395 H382 0.929 . S
C395 C387 1.433 . S
C395 N397 1.384 . S
N396 C392 1.427 . S
N396 C393 1.384 . S
N397 C389 1.427 . S
N397 C395 1.384 . S
H398 C404 0.930 . S
H399 C408 0.930 . S
H400 C413 0.926 . S
H401 C411 0.929 . S
H402 C406 0.929 . S
H403 C412 0.924 1_655 S
C404 H398 0.930 . S
C404 C405 1.367 . S
C404 C412 1.408 . S
C405 C404 1.367 . S
C405 C413 1.418 1_565 S
C406 H402 0.929 . S
C406 C408 1.378 . S
C406 C410 1.350 . S
C407 C410 1.463 . S
C407 C412 1.327 1_645 S
C407 N415 1.420 1_655 S
C408 H399 0.930 . S
C408 C406 1.378 . S
C408 C409 1.367 . S
C409 C408 1.367 . S
C409 C411 1.433 . S
C410 C406 1.350 . S
C410 C407 1.463 . S
C410 N414 1.427 . S
C411 H401 0.929 . S
C411 C409 1.433 . S
C411 N414 1.384 . S
C412 H403 0.924 1_455 S
C412 C404 1.408 . S
C412 C407 1.327 1_465 S
C413 H400 0.926 . S
C413 C405 1.418 1_545 S
C413 N415 1.431 . S
N414 C410 1.427 . S
N414 C411 1.384 . S
N415 C407 1.420 1_455 S
N415 C413 1.431 . S
H416 C422 0.930 . S
H417 C426 0.930 . S
H418 C431 0.929 . S
H419 C429 0.929 . S
H420 C424 0.929 . S
H421 C430 0.929 . S
C422 H416 0.930 . S
C422 C423 1.367 . S
C422 C430 1.378 . S
C423 C422 1.367 . S
C423 C431 1.433 . S
C424 H420 0.929 . S
C424 C426 1.378 . S
C424 C428 1.350 . S
C425 C428 1.463 . S
C425 C430 1.350 . S
C425 N433 1.427 . S
C426 H417 0.930 . S
C426 C424 1.378 . S
C426 C427 1.367 . S
C427 C426 1.367 . S
C427 C429 1.433 . S
C428 C424 1.350 . S
C428 C425 1.463 . S
C428 N432 1.427 . S
C429 H419 0.929 . S
C429 C427 1.433 . S
C429 N432 1.384 . S
C430 H421 0.929 . S
C430 C422 1.378 . S
C430 C425 1.350 . S
C431 H418 0.929 . S
C431 C423 1.433 . S
C431 N433 1.384 . S
N432 C428 1.427 . S
N432 C429 1.384 . S
N433 C425 1.427 . S
N433 C431 1.384 . S
H434 C440 0.930 . S
H435 C444 0.930 . S
H436 C449 0.929 . S
H437 C447 0.929 . S
H438 C442 0.929 . S
H439 C448 0.929 . S
C440 H434 0.930 . S
C440 C441 1.367 . S
C440 C448 1.378 . S
C441 C440 1.367 . S
C441 C449 1.433 . S
C442 H438 0.929 . S
C442 C444 1.378 . S
C442 C446 1.350 . S
C443 C446 1.463 . S
C443 C448 1.350 . S
C443 N451 1.427 . S
C444 H435 0.930 . S
C444 C442 1.378 . S
C444 C445 1.367 . S
C445 C444 1.367 . S
C445 C447 1.433 . S
C446 C442 1.350 . S
C446 C443 1.463 . S
C446 N450 1.427 . S
C447 H437 0.929 . S
C447 C445 1.433 . S
C447 N450 1.384 . S
C448 H439 0.929 . S
C448 C440 1.378 . S
C448 C443 1.350 . S
C449 H436 0.929 . S
C449 C441 1.433 . S
C449 N451 1.384 . S
N450 C446 1.427 . S
N450 C447 1.384 . S
N451 C443 1.427 . S
N451 C449 1.384 . S
H452 C458 0.930 . S
H453 C462 0.930 . S
H454 C467 0.929 . S
H455 C465 0.929 . S
H456 C460 0.929 . S
H457 C466 0.929 . S
C458 H452 0.930 . S
C458 C459 1.367 . S
C458 C466 1.378 . S
C459 C458 1.367 . S
C459 C467 1.433 . S
C460 H456 0.929 . S
C460 C462 1.378 . S
C460 C464 1.350 . S
C461 C464 1.463 . S
C461 C466 1.350 . S
C461 N469 1.427 . S
C462 H453 0.930 . S
C462 C460 1.378 . S
C462 C463 1.367 . S
C463 C462 1.367 . S
C463 C465 1.433 . S
C464 C460 1.350 . S
C464 C461 1.463 . S
C464 N468 1.427 . S
C465 H455 0.929 . S
C465 C463 1.433 . S
C465 N468 1.384 . S
C466 H457 0.929 . S
C466 C458 1.378 . S
C466 C461 1.350 . S
C467 H454 0.929 . S
C467 C459 1.433 . S
C467 N469 1.384 . S
N468 C464 1.427 . S
N468 C465 1.384 . S
N469 C461 1.427 . S
N469 C467 1.384 . S
H470 C476 0.930 . S
H471 C480 0.930 . S
H472 C485 0.929 . S
H473 C483 0.929 1_545 S
H474 C478 0.929 . S
H475 C484 0.929 . S
C476 H470 0.930 . S
C476 C477 1.367 . S
C476 C484 1.378 . S
C477 C476 1.367 . S
C477 C485 1.433 . S
C478 H474 0.929 . S
C478 C480 1.378 . S
C478 C482 1.350 . S
C479 C482 1.463 . S
C479 C484 1.350 . S
C479 N487 1.427 . S
C480 H471 0.930 . S
C480 C478 1.378 . S
C480 C481 1.367 . S
C481 C480 1.367 . S
C481 C483 1.433 . S
C482 C478 1.350 . S
C482 C479 1.463 . S
C482 N486 1.427 . S
C483 H473 0.929 1_565 S
C483 C481 1.433 . S
C483 N486 1.384 . S
C484 H475 0.929 . S
C484 C476 1.378 . S
C484 C479 1.350 . S
C485 H472 0.929 . S
C485 C477 1.433 . S
C485 N487 1.384 . S
N486 C482 1.427 . S
N486 C483 1.384 . S
N487 C479 1.427 . S
N487 C485 1.384 . S
H488 C494 0.930 . S
H489 C498 0.930 . S
H490 C503 0.929 . S
H491 C501 0.929 . S
H492 C496 0.929 . S
H493 C502 0.929 . S
C494 H488 0.930 . S
C494 C495 1.367 . S
C494 C502 1.378 . S
C495 C494 1.367 . S
C495 C503 1.433 . S
C496 H492 0.929 . S
C496 C498 1.378 . S
C496 C500 1.350 . S
C497 C500 1.463 . S
C497 C502 1.350 . S
C497 N505 1.427 . S
C498 H489 0.930 . S
C498 C496 1.378 . S
C498 C499 1.367 . S
C499 C498 1.367 . S
C499 C501 1.433 . S
C500 C496 1.350 . S
C500 C497 1.463 . S
C500 N504 1.427 . S
C501 H491 0.929 . S
C501 C499 1.433 . S
C501 N504 1.384 . S
C502 H493 0.929 . S
C502 C494 1.378 . S
C502 C497 1.350 . S
C503 H490 0.929 . S
C503 C495 1.433 . S
C503 N505 1.384 . S
N504 C500 1.427 . S
N504 C501 1.384 . S
N505 C497 1.427 . S
N505 C503 1.384 . S
H506 C512 0.930 . S
H507 C516 0.930 . S
H508 C521 0.929 . S
H509 C519 0.929 . S
H510 C514 0.929 . S
H511 C520 0.929 . S
C512 H506 0.930 . S
C512 C513 1.367 . S
C512 C520 1.378 . S
C513 C512 1.367 . S
C513 C521 1.433 . S
C514 H510 0.929 . S
C514 C516 1.378 . S
C514 C518 1.350 . S
C515 C518 1.463 . S
C515 C520 1.350 . S
C515 N523 1.427 . S
C516 H507 0.930 . S
C516 C514 1.378 . S
C516 C517 1.367 . S
C517 C516 1.367 . S
C517 C519 1.433 . S
C518 C514 1.350 . S
C518 C515 1.463 . S
C518 N522 1.427 . S
C519 H509 0.929 . S
C519 C517 1.433 . S
C519 N522 1.384 . S
C520 H511 0.929 . S
C520 C512 1.378 . S
C520 C515 1.350 . S
C521 H508 0.929 . S
C521 C513 1.433 . S
C521 N523 1.384 . S
N522 C518 1.427 . S
N522 C519 1.384 . S
N523 C515 1.427 . S
N523 C521 1.384 . S
H524 C530 0.930 . S
H525 C534 0.930 . S
H526 C539 0.929 . S
H527 C537 0.929 . S
H528 C532 0.929 . S
H529 C538 0.929 . S
C530 H524 0.930 . S
C530 C531 1.367 . S
C530 C538 1.378 . S
C531 C530 1.367 . S
C531 C539 1.433 . S
C532 H528 0.929 . S
C532 C534 1.378 . S
C532 C536 1.350 . S
C533 C536 1.463 . S
C533 C538 1.350 . S
C533 N541 1.427 . S
C534 H525 0.930 . S
C534 C532 1.378 . S
C534 C535 1.367 . S
C535 C534 1.367 . S
C535 C537 1.433 . S
C536 C532 1.350 . S
C536 C533 1.463 . S
C536 N540 1.427 . S
C537 H527 0.929 . S
C537 C535 1.433 . S
C537 N540 1.384 . S
C538 H529 0.929 . S
C538 C530 1.378 . S
C538 C533 1.350 . S
C539 H526 0.929 . S
C539 C531 1.433 . S
C539 N541 1.384 . S
N540 C536 1.427 . S
N540 C537 1.384 . S
N541 C533 1.427 . S
N541 C539 1.384 . S
H542 C548 0.930 . S
H543 C552 0.930 . S
H544 C557 0.929 . S
H545 C555 0.929 . S
H546 C550 0.929 . S
H547 C556 0.929 . S
C548 H542 0.930 . S
C548 C549 1.367 . S
C548 C556 1.378 . S
C549 C548 1.367 . S
C549 C557 1.433 . S
C550 H546 0.929 . S
C550 C552 1.378 . S
C550 C554 1.350 . S
C551 C554 1.463 . S
C551 C556 1.350 . S
C551 N559 1.427 . S
C552 H543 0.930 . S
C552 C550 1.378 . S
C552 C553 1.367 . S
C553 C552 1.367 . S
C553 C555 1.433 . S
C554 C550 1.350 . S
C554 C551 1.463 . S
C554 N558 1.427 . S
C555 H545 0.929 . S
C555 C553 1.433 . S
C555 N558 1.384 . S
C556 H547 0.929 . S
C556 C548 1.378 . S
C556 C551 1.350 . S
C557 H544 0.929 . S
C557 C549 1.433 . S
C557 N559 1.384 . S
N558 C554 1.427 . S
N558 C555 1.384 . S
N559 C551 1.427 . S
N559 C557 1.384 . S
H560 C566 0.930 . S
H561 C570 0.930 . S
H562 C575 0.929 . S
H563 C573 0.929 . S
H564 C568 0.929 . S
H565 C574 0.929 . S
C566 H560 0.930 . S
C566 C567 1.367 . S
C566 C574 1.378 . S
C567 C566 1.367 . S
C567 C575 1.433 . S
C568 H564 0.929 . S
C568 C570 1.378 . S
C568 C572 1.350 . S
C569 C572 1.463 . S
C569 C574 1.350 . S
C569 N577 1.427 . S
C570 H561 0.930 . S
C570 C568 1.378 . S
C570 C571 1.367 . S
C571 C570 1.367 . S
C571 C573 1.433 . S
C572 C568 1.350 . S
C572 C569 1.463 . S
C572 N576 1.427 . S
C573 H563 0.929 . S
C573 C571 1.433 . S
C573 N576 1.384 . S
C574 H565 0.929 . S
C574 C566 1.378 . S
C574 C569 1.350 . S
C575 H562 0.929 . S
C575 C567 1.433 . S
C575 N577 1.384 . S
N576 C572 1.427 . S
N576 C573 1.384 . S
N577 C569 1.427 . S
N577 C575 1.384 . S
H578 C584 0.930 . S
H579 C588 0.930 . S
H580 C593 0.929 . S
H581 C591 0.929 . S
H582 C586 0.929 . S
H583 C592 0.929 . S
C584 H578 0.930 . S
C584 C585 1.367 . S
C584 C592 1.378 . S
C585 C584 1.367 . S
C585 C593 1.433 . S
C586 H582 0.929 . S
C586 C588 1.378 . S
C586 C590 1.350 . S
C587 C590 1.463 . S
C587 C592 1.350 . S
C587 N595 1.427 . S
C588 H579 0.930 . S
C588 C586 1.378 . S
C588 C589 1.367 . S
C589 C588 1.367 . S
C589 C591 1.433 . S
C590 C586 1.350 . S
C590 C587 1.463 . S
C590 N594 1.427 . S
C591 H581 0.929 . S
C591 C589 1.433 . S
C591 N594 1.384 . S
C592 H583 0.929 . S
C592 C584 1.378 . S
C592 C587 1.350 . S
C593 H580 0.929 . S
C593 C585 1.433 . S
C593 N595 1.384 . S
N594 C590 1.427 . S
N594 C591 1.384 . S
N595 C587 1.427 . S
N595 C593 1.384 . S
H596 C602 0.930 . S
H597 C606 0.930 . S
H598 C611 0.929 . S
H599 C609 0.929 . S
H600 C604 0.929 . S
H601 C610 0.929 . S
C602 H596 0.930 . S
C602 C603 1.367 . S
C602 C610 1.378 . S
C603 C602 1.367 . S
C603 C611 1.433 . S
C604 H600 0.929 . S
C604 C606 1.378 . S
C604 C608 1.350 . S
C605 C608 1.463 . S
C605 C610 1.350 . S
C605 N613 1.427 . S
C606 H597 0.930 . S
C606 C604 1.378 . S
C606 C607 1.367 . S
C607 C606 1.367 . S
C607 C609 1.433 . S
C608 C604 1.350 . S
C608 C605 1.463 . S
C608 N612 1.427 . S
C609 H599 0.929 . S
C609 C607 1.433 . S
C609 N612 1.384 . S
C610 H601 0.929 . S
C610 C602 1.378 . S
C610 C605 1.350 . S
C611 H598 0.929 . S
C611 C603 1.433 . S
C611 N613 1.384 . S
N612 C608 1.427 . S
N612 C609 1.384 . S
N613 C605 1.427 . S
N613 C611 1.384 . S
H614 C620 0.930 . S
H615 C624 0.930 1_455 S
H616 C629 0.929 . S
H617 C627 0.929 . S
H618 C622 0.929 1_455 S
H619 C628 0.929 . S
C620 H614 0.930 . S
C620 C621 1.367 . S
C620 C628 1.378 . S
C621 C620 1.367 . S
C621 C629 1.433 . S
C622 H618 0.929 1_655 S
C622 C624 1.378 . S
C622 C626 1.350 . S
C623 C626 1.463 . S
C623 C628 1.350 . S
C623 N631 1.427 . S
C624 H615 0.930 1_655 S
C624 C622 1.378 . S
C624 C625 1.367 . S
C625 C624 1.367 . S
C625 C627 1.433 . S
C626 C622 1.350 . S
C626 C623 1.463 . S
C626 N630 1.427 . S
C627 H617 0.929 . S
C627 C625 1.433 . S
C627 N630 1.384 . S
C628 H619 0.929 . S
C628 C620 1.378 . S
C628 C623 1.350 . S
C629 H616 0.929 . S
C629 C621 1.433 . S
C629 N631 1.384 . S
N630 C626 1.427 . S
N630 C627 1.384 . S
N631 C623 1.427 . S
N631 C629 1.384 . S
H632 C638 0.930 . S
H633 C642 0.930 . S
H634 C647 0.929 . S
H635 C645 0.929 . S
H636 C640 0.929 . S
H637 C646 0.929 . S
C638 H632 0.930 . S
C638 C639 1.367 . S
C638 C646 1.378 . S
C639 C638 1.367 . S
C639 C647 1.433 . S
C640 H636 0.929 . S
C640 C642 1.378 1_565 S
C640 C644 1.350 . S
C641 C644 1.463 . S
C641 C646 1.350 . S
C641 N649 1.427 . S
C642 H633 0.930 . S
C642 C640 1.378 1_545 S
C642 C643 1.367 . S
C643 C642 1.367 . S
C643 C645 1.433 1_545 S
C644 C640 1.350 . S
C644 C641 1.463 . S
C644 N648 1.427 . S
C645 H635 0.929 . S
C645 C643 1.433 1_565 S
C645 N648 1.384 . S
C646 H637 0.929 . S
C646 C638 1.378 . S
C646 C641 1.350 . S
C647 H634 0.929 . S
C647 C639 1.433 . S
C647 N649 1.384 . S
N648 C644 1.427 . S
N648 C645 1.384 . S
N649 C641 1.427 . S
N649 C647 1.384 . S
H650 C656 0.930 . S
H651 C660 0.930 . S
H652 C665 0.929 . S
H653 C663 0.929 . S
H654 C658 0.929 . S
H655 C664 0.929 . S
C656 H650 0.930 . S
C656 C657 1.367 . S
C656 C664 1.378 . S
C657 C656 1.367 . S
C657 C665 1.433 . S
C658 H654 0.929 . S
C658 C660 1.378 . S
C658 C662 1.350 . S
C659 C662 1.463 . S
C659 C664 1.350 . S
C659 N667 1.427 . S
C660 H651 0.930 . S
C660 C658 1.378 . S
C660 C661 1.367 . S
C661 C660 1.367 . S
C661 C663 1.433 . S
C662 C658 1.350 . S
C662 C659 1.463 . S
C662 N666 1.427 . S
C663 H653 0.929 . S
C663 C661 1.433 . S
C663 N666 1.384 . S
C664 H655 0.929 . S
C664 C656 1.378 . S
C664 C659 1.350 . S
C665 H652 0.929 . S
C665 C657 1.433 . S
C665 N667 1.384 . S
N666 C662 1.427 . S
N666 C663 1.384 . S
N667 C659 1.427 . S
N667 C665 1.384 . S
H668 C674 0.930 . S
H669 C678 0.930 . S
H670 C683 0.929 . S
H671 C681 0.929 . S
H672 C676 0.929 . S
H673 C682 0.929 . S
C674 H668 0.930 . S
C674 C675 1.367 . S
C674 C682 1.378 . S
C675 C674 1.367 . S
C675 C683 1.433 . S
C676 H672 0.929 . S
C676 C678 1.378 1_556 S
C676 C680 1.350 . S
C677 C680 1.463 1_545 S
C677 C682 1.350 . S
C677 N685 1.427 1_545 S
C678 H669 0.930 . S
C678 C676 1.378 1_554 S
C678 C679 1.367 . S
C679 C678 1.367 . S
C679 C681 1.433 . S
C680 C676 1.350 . S
C680 C677 1.463 1_565 S
C680 N684 1.427 1_556 S
C681 H671 0.929 . S
C681 C679 1.433 . S
C681 N684 1.384 . S
C682 H673 0.929 . S
C682 C674 1.378 . S
C682 C677 1.350 . S
C683 H670 0.929 . S
C683 C675 1.433 . S
C683 N685 1.384 1_545 S
N684 C680 1.427 1_554 S
N684 C681 1.384 . S
N685 C677 1.427 1_565 S
N685 C683 1.384 1_565 S
H686 C692 0.930 . S
H687 C696 0.930 . S
H688 C701 0.929 . S
H689 C699 0.929 . S
H690 C694 0.929 . S
H691 C700 0.929 . S
C692 H686 0.930 . S
C692 C693 1.367 . S
C692 C700 1.378 . S
C693 C692 1.367 . S
C693 C701 1.433 . S
C694 H690 0.929 . S
C694 C696 1.378 . S
C694 C698 1.350 . S
C695 C698 1.463 . S
C695 C700 1.350 . S
C695 N703 1.427 . S
C696 H687 0.930 . S
C696 C694 1.378 . S
C696 C697 1.367 . S
C697 C696 1.367 . S
C697 C699 1.433 . S
C698 C694 1.350 . S
C698 C695 1.463 . S
C698 N702 1.427 . S
C699 H689 0.929 . S
C699 C697 1.433 . S
C699 N702 1.384 . S
C700 H691 0.929 . S
C700 C692 1.378 . S
C700 C695 1.350 . S
C701 H688 0.929 . S
C701 C693 1.433 . S
C701 N703 1.384 . S
N702 C698 1.427 . S
N702 C699 1.384 . S
N703 C695 1.427 . S
N703 C701 1.384 . S
H704 C710 0.930 . S
H705 C714 0.930 . S
H706 C719 0.929 1_565 S
H707 C717 0.929 . S
H708 C712 0.929 . S
H709 C718 0.929 . S
C710 H704 0.930 . S
C710 C711 1.367 . S
C710 C718 1.378 . S
C711 C710 1.367 . S
C711 C719 1.433 . S
C712 H708 0.929 . S
C712 C714 1.378 . S
C712 C716 1.350 . S
C713 C716 1.463 . S
C713 C718 1.350 . S
C713 N721 1.427 . S
C714 H705 0.930 . S
C714 C712 1.378 . S
C714 C715 1.367 . S
C715 C714 1.367 . S
C715 C717 1.433 . S
C716 C712 1.350 . S
C716 C713 1.463 . S
C716 N720 1.427 . S
C717 H707 0.929 . S
C717 C715 1.433 . S
C717 N720 1.384 . S
C718 H709 0.929 . S
C718 C710 1.378 . S
C718 C713 1.350 . S
C719 H706 0.929 1_545 S
C719 C711 1.433 . S
C719 N721 1.384 . S
N720 C716 1.427 . S
N720 C717 1.384 . S
N721 C713 1.427 . S
N721 C719 1.384 . S
H722 C728 0.930 . S
H723 C732 0.930 . S
H724 C737 0.929 . S
H725 C735 0.929 . S
H726 C730 0.929 . S
H727 C736 0.929 . S
C728 H722 0.930 . S
C728 C729 1.367 . S
C728 C736 1.378 . S
C729 C728 1.367 . S
C729 C737 1.433 . S
C730 H726 0.929 . S
C730 C732 1.378 . S
C730 C734 1.350 . S
C731 C734 1.463 . S
C731 C736 1.350 . S
C731 N739 1.427 . S
C732 H723 0.930 . S
C732 C730 1.378 . S
C732 C733 1.367 . S
C733 C732 1.367 . S
C733 C735 1.433 . S
C734 C730 1.350 . S
C734 C731 1.463 . S
C734 N738 1.427 . S
C735 H725 0.929 . S
C735 C733 1.433 . S
C735 N738 1.384 . S
C736 H727 0.929 . S
C736 C728 1.378 . S
C736 C731 1.350 . S
C737 H724 0.929 . S
C737 C729 1.433 . S
C737 N739 1.384 . S
N738 C734 1.427 . S
N738 C735 1.384 . S
N739 C731 1.427 . S
N739 C737 1.384 . S
H740 C746 0.930 . S
H741 C750 0.930 . S
H742 C755 0.929 1_565 S
H743 C753 0.929 . S
H744 C748 0.929 . S
H745 C754 0.929 . S
C746 H740 0.930 . S
C746 C747 1.367 . S
C746 C754 1.378 . S
C747 C746 1.367 . S
C747 C755 1.433 . S
C748 H744 0.929 . S
C748 C750 1.378 . S
C748 C752 1.350 . S
C749 C752 1.463 . S
C749 C754 1.350 . S
C749 N757 1.427 . S
C750 H741 0.930 . S
C750 C748 1.378 . S
C750 C751 1.367 . S
C751 C750 1.367 . S
C751 C753 1.433 . S
C752 C748 1.350 . S
C752 C749 1.463 . S
C752 N756 1.427 . S
C753 H743 0.929 . S
C753 C751 1.433 . S
C753 N756 1.384 . S
C754 H745 0.929 . S
C754 C746 1.378 . S
C754 C749 1.350 . S
C755 H742 0.929 1_545 S
C755 C747 1.433 . S
C755 N757 1.384 . S
N756 C752 1.427 . S
N756 C753 1.384 . S
N757 C749 1.427 . S
N757 C755 1.384 . S
H758 C764 0.930 . S
H759 C768 0.930 . S
H760 C773 0.929 . S
H761 C771 0.929 . S
H762 C766 0.929 . S
H763 C772 0.929 . S
C764 H758 0.930 . S
C764 C765 1.367 . S
C764 C772 1.378 . S
C765 C764 1.367 . S
C765 C773 1.433 . S
C766 H762 0.929 . S
C766 C768 1.378 . S
C766 C770 1.350 . S
C767 C770 1.463 . S
C767 C772 1.350 . S
C767 N775 1.427 . S
C768 H759 0.930 . S
C768 C766 1.378 . S
C768 C769 1.367 . S
C769 C768 1.367 . S
C769 C771 1.433 . S
C770 C766 1.350 . S
C770 C767 1.463 . S
C770 N774 1.427 . S
C771 H761 0.929 . S
C771 C769 1.433 . S
C771 N774 1.384 . S
C772 H763 0.929 . S
C772 C764 1.378 . S
C772 C767 1.350 . S
C773 H760 0.929 . S
C773 C765 1.433 . S
C773 N775 1.384 . S
N774 C770 1.427 . S
N774 C771 1.384 . S
N775 C767 1.427 . S
N775 C773 1.384 . S
H776 C782 0.930 . S
H777 C786 0.930 . S
H778 C791 0.929 . S
H779 C789 0.929 . S
H780 C784 0.929 . S
H781 C790 0.929 . S
C782 H776 0.930 . S
C782 C783 1.367 . S
C782 C790 1.378 . S
C783 C782 1.367 . S
C783 C791 1.433 . S
C784 H780 0.929 . S
C784 C786 1.378 . S
C784 C788 1.350 . S
C785 C788 1.463 . S
C785 C790 1.350 . S
C785 N793 1.427 . S
C786 H777 0.930 . S
C786 C784 1.378 . S
C786 C787 1.367 . S
C787 C786 1.367 . S
C787 C789 1.433 . S
C788 C784 1.350 . S
C788 C785 1.463 . S
C788 N792 1.427 . S
C789 H779 0.929 . S
C789 C787 1.433 . S
C789 N792 1.384 . S
C790 H781 0.929 . S
C790 C782 1.378 . S
C790 C785 1.350 . S
C791 H778 0.929 . S
C791 C783 1.433 . S
C791 N793 1.384 . S
N792 C788 1.427 . S
N792 C789 1.384 . S
N793 C785 1.427 . S
N793 C791 1.384 . S
H794 C800 0.930 . S
H795 C804 0.930 . S
H796 C809 0.929 . S
H797 C807 0.929 . S
H798 C802 0.929 . S
H799 C808 0.929 . S
C800 H794 0.930 . S
C800 C801 1.367 . S
C800 C808 1.378 . S
C801 C800 1.367 . S
C801 C809 1.433 . S
C802 H798 0.929 . S
C802 C804 1.378 . S
C802 C806 1.350 . S
C803 C806 1.463 . S
C803 C808 1.350 . S
C803 N811 1.427 . S
C804 H795 0.930 . S
C804 C802 1.378 . S
C804 C805 1.367 . S
C805 C804 1.367 . S
C805 C807 1.433 . S
C806 C802 1.350 . S
C806 C803 1.463 . S
C806 N810 1.427 . S
C807 H797 0.929 . S
C807 C805 1.433 . S
C807 N810 1.384 . S
C808 H799 0.929 . S
C808 C800 1.378 . S
C808 C803 1.350 . S
C809 H796 0.929 . S
C809 C801 1.433 . S
C809 N811 1.384 . S
N810 C806 1.427 . S
N810 C807 1.384 . S
N811 C803 1.427 . S
N811 C809 1.384 . S
H812 C818 0.930 . S
H813 C822 0.930 . S
H814 C827 0.929 . S
H815 C825 0.929 . S
H816 C820 0.929 . S
H817 C826 0.929 . S
C818 H812 0.930 . S
C818 C819 1.367 . S
C818 C826 1.378 . S
C819 C818 1.367 . S
C819 C827 1.433 . S
C820 H816 0.929 . S
C820 C822 1.378 . S
C820 C824 1.350 . S
C821 C824 1.463 . S
C821 C826 1.350 . S
C821 N829 1.427 . S
C822 H813 0.930 . S
C822 C820 1.378 . S
C822 C823 1.367 . S
C823 C822 1.367 . S
C823 C825 1.433 . S
C824 C820 1.350 . S
C824 C821 1.463 . S
C824 N828 1.427 . S
C825 H815 0.929 . S
C825 C823 1.433 . S
C825 N828 1.384 . S
C826 H817 0.929 . S
C826 C818 1.378 . S
C826 C821 1.350 . S
C827 H814 0.929 . S
C827 C819 1.433 . S
C827 N829 1.384 . S
N828 C824 1.427 . S
N828 C825 1.384 . S
N829 C821 1.427 . S
N829 C827 1.384 . S
H830 C836 0.930 . S
H831 C840 0.930 . S
H832 C845 0.929 . S
H833 C843 0.929 . S
H834 C838 0.929 . S
H835 C844 0.929 . S
C836 H830 0.930 . S
C836 C837 1.367 . S
C836 C844 1.378 . S
C837 C836 1.367 . S
C837 C845 1.433 . S
C838 H834 0.929 . S
C838 C840 1.378 . S
C838 C842 1.350 . S
C839 C842 1.463 . S
C839 C844 1.350 . S
C839 N847 1.427 . S
C840 H831 0.930 . S
C840 C838 1.378 . S
C840 C841 1.367 . S
C841 C840 1.367 . S
C841 C843 1.433 . S
C842 C838 1.350 . S
C842 C839 1.463 . S
C842 N846 1.427 . S
C843 H833 0.929 . S
C843 C841 1.433 . S
C843 N846 1.384 . S
C844 H835 0.929 . S
C844 C836 1.378 . S
C844 C839 1.350 . S
C845 H832 0.929 . S
C845 C837 1.433 . S
C845 N847 1.384 . S
N846 C842 1.427 . S
N846 C843 1.384 . S
N847 C839 1.427 . S
N847 C845 1.384 . S
H848 C854 0.930 . S
H849 C858 0.930 . S
H850 C863 0.929 . S
H851 C861 0.929 . S
H852 C856 0.929 . S
H853 C862 0.929 . S
C854 H848 0.930 . S
C854 C855 1.367 . S
C854 C862 1.378 . S
C855 C854 1.367 . S
C855 C863 1.433 . S
C856 H852 0.929 . S
C856 C858 1.378 . S
C856 C860 1.350 . S
C857 C860 1.463 . S
C857 C862 1.350 . S
C857 N865 1.427 . S
C858 H849 0.930 . S
C858 C856 1.378 . S
C858 C859 1.367 . S
C859 C858 1.367 . S
C859 C861 1.433 . S
C860 C856 1.350 . S
C860 C857 1.463 . S
C860 N864 1.427 . S
C861 H851 0.929 . S
C861 C859 1.433 . S
C861 N864 1.384 . S
C862 H853 0.929 . S
C862 C854 1.378 . S
C862 C857 1.350 . S
C863 H850 0.929 . S
C863 C855 1.433 . S
C863 N865 1.384 . S
N864 C860 1.427 . S
N864 C861 1.384 . S
N865 C857 1.427 . S
N865 C863 1.384 . S
H866 C872 0.930 . S
H867 C876 0.930 . S
H868 C881 0.929 . S
H869 C879 0.929 . S
H870 C874 0.929 . S
H871 C880 0.929 . S
C872 H866 0.930 . S
C872 C873 1.367 . S
C872 C880 1.378 . S
C873 C872 1.367 . S
C873 C881 1.433 . S
C874 H870 0.929 . S
C874 C876 1.378 . S
C874 C878 1.350 . S
C875 C878 1.463 1_455 S
C875 C880 1.350 . S
C875 N883 1.427 . S
C876 H867 0.930 . S
C876 C874 1.378 . S
C876 C877 1.367 . S
C877 C876 1.367 . S
C877 C879 1.433 . S
C878 C874 1.350 . S
C878 C875 1.463 1_655 S
C878 N882 1.427 . S
C879 H869 0.929 . S
C879 C877 1.433 . S
C879 N882 1.384 . S
C880 H871 0.929 . S
C880 C872 1.378 . S
C880 C875 1.350 . S
C881 H868 0.929 . S
C881 C873 1.433 . S
C881 N883 1.384 . S
N882 C878 1.427 . S
N882 C879 1.384 . S
N883 C875 1.427 . S
N883 C881 1.384 . S
H884 C890 0.930 . S
H885 C894 0.930 . S
H886 C899 0.929 . S
H887 C897 0.929 . S
H888 C892 0.929 . S
H889 C898 0.929 . S
C890 H884 0.930 . S
C890 C891 1.367 . S
C890 C898 1.378 . S
C891 C890 1.367 . S
C891 C899 1.433 . S
C892 H888 0.929 . S
C892 C894 1.378 . S
C892 C896 1.350 . S
C893 C896 1.463 . S
C893 C898 1.350 . S
C893 N901 1.427 . S
C894 H885 0.930 . S
C894 C892 1.378 . S
C894 C895 1.367 . S
C895 C894 1.367 . S
C895 C897 1.433 . S
C896 C892 1.350 . S
C896 C893 1.463 . S
C896 N900 1.427 . S
C897 H887 0.929 . S
C897 C895 1.433 . S
C897 N900 1.384 . S
C898 H889 0.929 . S
C898 C890 1.378 . S
C898 C893 1.350 . S
C899 H886 0.929 . S
C899 C891 1.433 . S
C899 N901 1.384 . S
N900 C896 1.427 . S
N900 C897 1.384 . S
N901 C893 1.427 . S
N901 C899 1.384 . S
H902 C908 0.930 . S
H903 C912 0.930 . S
H904 C917 0.929 . S
H905 C915 0.929 . S
H906 C910 0.929 . S
H907 C916 0.929 . S
C908 H902 0.930 . S
C908 C909 1.367 . S
C908 C916 1.378 . S
C909 C908 1.367 . S
C909 C917 1.433 . S
C910 H906 0.929 . S
C910 C912 1.378 1_655 S
C910 C914 1.350 . S
C911 C914 1.463 . S
C911 C916 1.350 . S
C911 N919 1.427 . S
C912 H903 0.930 . S
C912 C910 1.378 1_455 S
C912 C913 1.367 . S
C913 C912 1.367 . S
C913 C915 1.433 . S
C914 C910 1.350 . S
C914 C911 1.463 . S
C914 N918 1.427 1_655 S
C915 H905 0.929 . S
C915 C913 1.433 . S
C915 N918 1.384 . S
C916 H907 0.929 . S
C916 C908 1.378 . S
C916 C911 1.350 . S
C917 H904 0.929 . S
C917 C909 1.433 . S
C917 N919 1.384 . S
N918 C914 1.427 1_455 S
N918 C915 1.384 . S
N919 C911 1.427 . S
N919 C917 1.384 . S
H920 C926 0.930 . S
H921 C930 0.930 . S
H922 C935 0.929 . S
H923 C933 0.929 . S
H924 C928 0.929 . S
H925 C934 0.929 . S
C926 H920 0.930 . S
C926 C927 1.367 . S
C926 C934 1.378 . S
C927 C926 1.367 . S
C927 C935 1.433 . S
C928 H924 0.929 . S
C928 C930 1.378 . S
C928 C932 1.350 . S
C929 C932 1.463 . S
C929 C934 1.350 . S
C929 N937 1.427 . S
C930 H921 0.930 . S
C930 C928 1.378 . S
C930 C931 1.367 . S
C931 C930 1.367 . S
C931 C933 1.433 . S
C932 C928 1.350 . S
C932 C929 1.463 . S
C932 N936 1.427 . S
C933 H923 0.929 . S
C933 C931 1.433 . S
C933 N936 1.384 . S
C934 H925 0.929 . S
C934 C926 1.378 . S
C934 C929 1.350 . S
C935 H922 0.929 . S
C935 C927 1.433 . S
C935 N937 1.384 . S
N936 C932 1.427 . S
N936 C933 1.384 . S
N937 C929 1.427 . S
N937 C935 1.384 . S
H938 C944 0.930 . S
H939 C948 0.930 1_455 S
H940 C953 0.929 . S
H941 C951 0.929 . S
H942 C946 0.929 . S
H943 C952 0.929 . S
C944 H938 0.930 . S
C944 C945 1.367 . S
C944 C952 1.378 . S
C945 C944 1.367 . S
C945 C953 1.433 . S
C946 H942 0.929 . S
C946 C948 1.378 . S
C946 C950 1.350 . S
C947 C950 1.463 . S
C947 C952 1.350 . S
C947 N955 1.427 . S
C948 H939 0.930 1_655 S
C948 C946 1.378 . S
C948 C949 1.367 1_554 S
C949 C948 1.367 1_556 S
C949 C951 1.433 . S
C950 C946 1.350 . S
C950 C947 1.463 . S
C950 N954 1.427 . S
C951 H941 0.929 . S
C951 C949 1.433 . S
C951 N954 1.384 1_556 S
C952 H943 0.929 . S
C952 C944 1.378 . S
C952 C947 1.350 . S
C953 H940 0.929 . S
C953 C945 1.433 . S
C953 N955 1.384 . S
N954 C950 1.427 . S
N954 C951 1.384 1_554 S
N955 C947 1.427 . S
N955 C953 1.384 . S
H956 C962 0.930 . S
H957 C966 0.930 . S
H958 C971 0.929 . S
H959 C969 0.929 . S
H960 C964 0.929 . S
H961 C970 0.929 . S
C962 H956 0.930 . S
C962 C963 1.367 . S
C962 C970 1.378 . S
C963 C962 1.367 . S
C963 C971 1.433 . S
C964 H960 0.929 . S
C964 C966 1.378 . S
C964 C968 1.350 . S
C965 C968 1.463 . S
C965 C970 1.350 . S
C965 N973 1.427 . S
C966 H957 0.930 . S
C966 C964 1.378 . S
C966 C967 1.367 . S
C967 C966 1.367 . S
C967 C969 1.433 . S
C968 C964 1.350 . S
C968 C965 1.463 . S
C968 N972 1.427 . S
C969 H959 0.929 . S
C969 C967 1.433 . S
C969 N972 1.384 . S
C970 H961 0.929 . S
C970 C962 1.378 . S
C970 C965 1.350 . S
C971 H958 0.929 . S
C971 C963 1.433 . S
C971 N973 1.384 . S
N972 C968 1.427 . S
N972 C969 1.384 . S
N973 C965 1.427 . S
N973 C971 1.384 . S
H974 C980 0.930 . S
H975 C984 0.930 1_556 S
H976 C989 0.929 . S
H977 C987 0.929 . S
H978 C982 0.929 . S
H979 C988 0.929 . S
C980 H974 0.930 . S
C980 C981 1.367 . S
C980 C988 1.378 . S
C981 C980 1.367 . S
C981 C989 1.433 . S
C982 H978 0.929 . S
C982 C984 1.378 . S
C982 C986 1.350 . S
C983 C986 1.463 . S
C983 C988 1.350 . S
C983 N991 1.427 . S
C984 H975 0.930 1_554 S
C984 C982 1.378 . S
C984 C985 1.367 . S
C985 C984 1.367 . S
C985 C987 1.433 . S
C986 C982 1.350 . S
C986 C983 1.463 . S
C986 N990 1.427 . S
C987 H977 0.929 . S
C987 C985 1.433 . S
C987 N990 1.384 . S
C988 H979 0.929 . S
C988 C980 1.378 . S
C988 C983 1.350 . S
C989 H976 0.929 . S
C989 C981 1.433 . S
C989 N991 1.384 . S
N990 C986 1.427 . S
N990 C987 1.384 . S
N991 C983 1.427 . S
N991 C989 1.384 . S
H992 C998 0.930 . S
H993 C1002 0.930 . S
H994 C1007 0.929 . S
H995 C1005 0.929 . S
H996 C1000 0.929 . S
H997 C1006 0.929 . S
C998 H992 0.930 . S
C998 C999 1.367 . S
C998 C1006 1.378 . S
C999 C998 1.367 . S
C999 C1007 1.433 . S
C1000 H996 0.929 . S
C1000 C1002 1.378 . S
C1000 C1004 1.350 . S
C1001 C1004 1.463 . S
C1001 C1006 1.350 . S
C1001 N1009 1.427 . S
C1002 H993 0.930 . S
C1002 C1000 1.378 . S
C1002 C1003 1.367 . S
C1003 C1002 1.367 . S
C1003 C1005 1.433 . S
C1004 C1000 1.350 . S
C1004 C1001 1.463 . S
C1004 N1008 1.427 . S
C1005 H995 0.929 . S
C1005 C1003 1.433 . S
C1005 N1008 1.384 . S
C1006 H997 0.929 . S
C1006 C998 1.378 . S
C1006 C1001 1.350 . S
C1007 H994 0.929 . S
C1007 C999 1.433 . S
C1007 N1009 1.384 . S
N1008 C1004 1.427 . S
N1008 C1005 1.384 . S
N1009 C1001 1.427 . S
N1009 C1007 1.384 . S
H1010 C1016 0.930 . S
H1011 C1020 0.930 . S
H1012 C1025 0.929 . S
H1013 C1023 0.929 . S
H1014 C1018 0.929 . S
H1015 C1024 0.929 . S
C1016 H1010 0.930 . S
C1016 C1017 1.367 . S
C1016 C1024 1.378 1_556 S
C1017 C1016 1.367 . S
C1017 C1025 1.433 . S
C1018 H1014 0.929 . S
C1018 C1020 1.378 . S
C1018 C1022 1.350 . S
C1019 C1022 1.463 . S
C1019 C1024 1.350 . S
C1019 N1027 1.427 . S
C1020 H1011 0.930 . S
C1020 C1018 1.378 . S
C1020 C1021 1.367 . S
C1021 C1020 1.367 . S
C1021 C1023 1.433 . S
C1022 C1018 1.350 . S
C1022 C1019 1.463 . S
C1022 N1026 1.427 . S
C1023 H1013 0.929 . S
C1023 C1021 1.433 . S
C1023 N1026 1.384 . S
C1024 H1015 0.929 . S
C1024 C1016 1.378 1_554 S
C1024 C1019 1.350 . S
C1025 H1012 0.929 . S
C1025 C1017 1.433 . S
C1025 N1027 1.384 1_556 S
N1026 C1022 1.427 . S
N1026 C1023 1.384 . S
N1027 C1019 1.427 . S
N1027 C1025 1.384 1_554 S
H1028 C1034 0.930 . S
H1029 C1038 0.930 . S
H1030 C1043 0.929 . S
H1031 C1041 0.929 . S
H1032 C1036 0.929 . S
H1033 C1042 0.929 . S
C1034 H1028 0.930 . S
C1034 C1035 1.367 . S
C1034 C1042 1.378 . S
C1035 C1034 1.367 . S
C1035 C1043 1.433 . S
C1036 H1032 0.929 . S
C1036 C1038 1.378 . S
C1036 C1040 1.350 . S
C1037 C1040 1.463 . S
C1037 C1042 1.350 . S
C1037 N1045 1.427 . S
C1038 H1029 0.930 . S
C1038 C1036 1.378 . S
C1038 C1039 1.367 . S
C1039 C1038 1.367 . S
C1039 C1041 1.433 . S
C1040 C1036 1.350 . S
C1040 C1037 1.463 . S
C1040 N1044 1.427 . S
C1041 H1031 0.929 . S
C1041 C1039 1.433 . S
C1041 N1044 1.384 . S
C1042 H1033 0.929 . S
C1042 C1034 1.378 . S
C1042 C1037 1.350 . S
C1043 H1030 0.929 . S
C1043 C1035 1.433 . S
C1043 N1045 1.384 . S
N1044 C1040 1.427 . S
N1044 C1041 1.384 . S
N1045 C1037 1.427 . S
N1045 C1043 1.384 . S
H1046 C1052 0.930 . S
H1047 C1056 0.930 . S
H1048 C1061 0.929 . S
H1049 C1059 0.929 . S
H1050 C1054 0.929 . S
H1051 C1060 0.929 . S
C1052 H1046 0.930 . S
C1052 C1053 1.367 1_554 S
C1052 C1060 1.378 . S
C1053 C1052 1.367 1_556 S
C1053 C1061 1.433 . S
C1054 H1050 0.929 . S
C1054 C1056 1.378 . S
C1054 C1058 1.350 . S
C1055 C1058 1.463 . S
C1055 C1060 1.350 . S
C1055 N1063 1.427 . S
C1056 H1047 0.930 . S
C1056 C1054 1.378 . S
C1056 C1057 1.367 . S
C1057 C1056 1.367 . S
C1057 C1059 1.433 . S
C1058 C1054 1.350 . S
C1058 C1055 1.463 . S
C1058 N1062 1.427 . S
C1059 H1049 0.929 . S
C1059 C1057 1.433 . S
C1059 N1062 1.384 . S
C1060 H1051 0.929 . S
C1060 C1052 1.378 . S
C1060 C1055 1.350 . S
C1061 H1048 0.929 . S
C1061 C1053 1.433 . S
C1061 N1063 1.384 1_556 S
N1062 C1058 1.427 . S
N1062 C1059 1.384 . S
N1063 C1055 1.427 . S
N1063 C1061 1.384 1_554 S
H1064 C1070 0.930 . S
H1065 C1074 0.930 . S
H1066 C1079 0.929 . S
H1067 C1077 0.929 . S
H1068 C1072 0.929 . S
H1069 C1078 0.929 . S
C1070 H1064 0.930 . S
C1070 C1071 1.367 . S
C1070 C1078 1.378 . S
C1071 C1070 1.367 . S
C1071 C1079 1.433 . S
C1072 H1068 0.929 . S
C1072 C1074 1.378 . S
C1072 C1076 1.350 . S
C1073 C1076 1.463 . S
C1073 C1078 1.350 . S
C1073 N1081 1.427 . S
C1074 H1065 0.930 . S
C1074 C1072 1.378 . S
C1074 C1075 1.367 . S
C1075 C1074 1.367 . S
C1075 C1077 1.433 . S
C1076 C1072 1.350 . S
C1076 C1073 1.463 . S
C1076 N1080 1.427 . S
C1077 H1067 0.929 . S
C1077 C1075 1.433 . S
C1077 N1080 1.384 . S
C1078 H1069 0.929 . S
C1078 C1070 1.378 . S
C1078 C1073 1.350 . S
C1079 H1066 0.929 . S
C1079 C1071 1.433 . S
C1079 N1081 1.384 . S
N1080 C1076 1.427 . S
N1080 C1077 1.384 . S
N1081 C1073 1.427 . S
N1081 C1079 1.384 . S
H1082 C1088 0.930 . S
H1083 C1092 0.930 . S
H1084 C1097 0.929 . S
H1085 C1095 0.929 . S
H1086 C1090 0.929 . S
H1087 C1096 0.929 . S
C1088 H1082 0.930 . S
C1088 C1089 1.367 . S
C1088 C1096 1.378 . S
C1089 C1088 1.367 . S
C1089 C1097 1.433 . S
C1090 H1086 0.929 . S
C1090 C1092 1.378 . S
C1090 C1094 1.350 . S
C1091 C1094 1.463 . S
C1091 C1096 1.350 . S
C1091 N1099 1.427 . S
C1092 H1083 0.930 . S
C1092 C1090 1.378 . S
C1092 C1093 1.367 . S
C1093 C1092 1.367 . S
C1093 C1095 1.433 . S
C1094 C1090 1.350 . S
C1094 C1091 1.463 . S
C1094 N1098 1.427 . S
C1095 H1085 0.929 . S
C1095 C1093 1.433 . S
C1095 N1098 1.384 . S
C1096 H1087 0.929 . S
C1096 C1088 1.378 . S
C1096 C1091 1.350 . S
C1097 H1084 0.929 . S
C1097 C1089 1.433 . S
C1097 N1099 1.384 . S
N1098 C1094 1.427 . S
N1098 C1095 1.384 . S
N1099 C1091 1.427 . S
N1099 C1097 1.384 . S
H1100 C1106 0.930 . S
H1101 C1110 0.930 . S
H1102 C1115 0.929 . S
H1103 C1113 0.929 . S
H1104 C1108 0.929 . S
H1105 C1114 0.929 . S
C1106 H1100 0.930 . S
C1106 C1107 1.367 . S
C1106 C1114 1.378 . S
C1107 C1106 1.367 . S
C1107 C1115 1.433 . S
C1108 H1104 0.929 . S
C1108 C1110 1.378 . S
C1108 C1112 1.350 . S
C1109 C1112 1.463 . S
C1109 C1114 1.350 . S
C1109 N1117 1.427 . S
C1110 H1101 0.930 . S
C1110 C1108 1.378 . S
C1110 C1111 1.367 . S
C1111 C1110 1.367 . S
C1111 C1113 1.433 . S
C1112 C1108 1.350 . S
C1112 C1109 1.463 . S
C1112 N1116 1.427 . S
C1113 H1103 0.929 . S
C1113 C1111 1.433 . S
C1113 N1116 1.384 . S
C1114 H1105 0.929 . S
C1114 C1106 1.378 . S
C1114 C1109 1.350 . S
C1115 H1102 0.929 . S
C1115 C1107 1.433 . S
C1115 N1117 1.384 . S
N1116 C1112 1.427 . S
N1116 C1113 1.384 . S
N1117 C1109 1.427 . S
N1117 C1115 1.384 . S
H1118 C1124 0.930 . S
H1119 C1128 0.930 . S
H1120 C1133 0.929 . S
H1121 C1131 0.929 . S
H1122 C1126 0.929 . S
H1123 C1132 0.929 . S
C1124 H1118 0.930 . S
C1124 C1125 1.367 . S
C1124 C1132 1.378 . S
C1125 C1124 1.367 . S
C1125 C1133 1.433 . S
C1126 H1122 0.929 . S
C1126 C1128 1.378 . S
C1126 C1130 1.350 . S
C1127 C1130 1.463 . S
C1127 C1132 1.350 . S
C1127 N1135 1.427 . S
C1128 H1119 0.930 . S
C1128 C1126 1.378 . S
C1128 C1129 1.367 . S
C1129 C1128 1.367 . S
C1129 C1131 1.433 . S
C1130 C1126 1.350 . S
C1130 C1127 1.463 . S
C1130 N1134 1.427 . S
C1131 H1121 0.929 . S
C1131 C1129 1.433 . S
C1131 N1134 1.384 . S
C1132 H1123 0.929 . S
C1132 C1124 1.378 . S
C1132 C1127 1.350 . S
C1133 H1120 0.929 . S
C1133 C1125 1.433 . S
C1133 N1135 1.384 . S
N1134 C1130 1.427 . S
N1134 C1131 1.384 . S
N1135 C1127 1.427 . S
N1135 C1133 1.384 . S
H1136 C1142 0.930 . S
H1137 C1146 0.946 . S
H1138 C1151 0.929 . S
H1139 C1149 0.929 . S
H1140 C1144 0.929 . S
H1141 C1150 0.929 . S
C1142 H1136 0.930 . S
C1142 C1143 1.367 . S
C1142 C1150 1.378 . S
C1143 C1142 1.367 . S
C1143 C1151 1.433 . S
C1144 H1140 0.929 . S
C1144 C1146 1.378 . S
C1144 C1148 1.350 . S
C1145 C1148 1.463 . S
C1145 C1150 1.350 . S
C1145 N1153 1.427 . S
C1146 H1137 0.946 . S
C1146 C1144 1.378 . S
C1146 C1147 1.367 . S
C1147 C1146 1.367 . S
C1147 C1149 1.433 . S
C1148 C1144 1.350 . S
C1148 C1145 1.463 . S
C1148 N1152 1.427 . S
C1149 H1139 0.929 . S
C1149 C1147 1.433 . S
C1149 N1152 1.384 . S
C1150 H1141 0.929 . S
C1150 C1142 1.378 . S
C1150 C1145 1.350 . S
C1151 H1138 0.929 . S
C1151 C1143 1.433 . S
C1151 N1153 1.384 . S
N1152 C1148 1.427 . S
N1152 C1149 1.384 . S
N1153 C1145 1.427 . S
N1153 C1151 1.384 . S
H1154 C1160 0.930 . S
H1155 C1164 0.930 . S
H1156 C1169 0.929 . S
H1157 C1167 0.929 . S
H1158 C1162 0.929 . S
H1159 C1168 0.929 . S
C1160 H1154 0.930 . S
C1160 C1161 1.367 . S
C1160 C1168 1.378 . S
C1161 C1160 1.367 . S
C1161 C1169 1.433 . S
C1162 H1158 0.929 . S
C1162 C1164 1.378 . S
C1162 C1166 1.350 . S
C1163 C1166 1.463 . S
C1163 C1168 1.350 . S
C1163 N1171 1.427 . S
C1164 H1155 0.930 . S
C1164 C1162 1.378 . S
C1164 C1165 1.367 . S
C1165 C1164 1.367 . S
C1165 C1167 1.433 . S
C1166 C1162 1.350 . S
C1166 C1163 1.463 . S
C1166 N1170 1.427 . S
C1167 H1157 0.929 . S
C1167 C1165 1.433 . S
C1167 N1170 1.384 . S
C1168 H1159 0.929 . S
C1168 C1160 1.378 . S
C1168 C1163 1.350 . S
C1169 H1156 0.929 . S
C1169 C1161 1.433 . S
C1169 N1171 1.384 . S
N1170 C1166 1.427 . S
N1170 C1167 1.384 . S
N1171 C1163 1.427 . S
N1171 C1169 1.384 . S
H1172 C1178 0.930 . S
H1173 C1182 0.930 . S
H1174 C1187 0.929 . S
H1175 C1185 0.929 . S
H1176 C1180 0.929 . S
H1177 C1186 0.929 . S
C1178 H1172 0.930 . S
C1178 C1179 1.367 . S
C1178 C1186 1.378 . S
C1179 C1178 1.367 . S
C1179 C1187 1.433 . S
C1180 H1176 0.929 . S
C1180 C1182 1.378 . S
C1180 C1184 1.350 . S
C1181 C1184 1.463 . S
C1181 C1186 1.350 . S
C1181 N1189 1.427 . S
C1182 H1173 0.930 . S
C1182 C1180 1.378 . S
C1182 C1183 1.367 . S
C1183 C1182 1.367 . S
C1183 C1185 1.433 . S
C1184 C1180 1.350 . S
C1184 C1181 1.463 . S
C1184 N1188 1.427 . S
C1185 H1175 0.929 . S
C1185 C1183 1.433 . S
C1185 N1188 1.384 . S
C1186 H1177 0.929 . S
C1186 C1178 1.378 . S
C1186 C1181 1.350 . S
C1187 H1174 0.929 . S
C1187 C1179 1.433 . S
C1187 N1189 1.384 . S
N1188 C1184 1.427 . S
N1188 C1185 1.384 . S
N1189 C1181 1.427 . S
N1189 C1187 1.384 . S
H1190 C1196 0.930 . S
H1191 C1200 0.930 . S
H1192 C1205 0.929 . S
H1193 C1203 0.929 . S
H1194 C1198 0.929 . S
H1195 C1204 0.929 . S
C1196 H1190 0.930 . S
C1196 C1197 1.367 . S
C1196 C1204 1.378 . S
C1197 C1196 1.367 . S
C1197 C1205 1.433 . S
C1198 H1194 0.929 . S
C1198 C1200 1.378 1_545 S
C1198 C1202 1.350 . S
C1199 C1202 1.463 . S
C1199 C1204 1.350 . S
C1199 N1207 1.427 . S
C1200 H1191 0.930 . S
C1200 C1198 1.378 1_565 S
C1200 C1201 1.367 . S
C1201 C1200 1.367 . S
C1201 C1203 1.433 . S
C1202 C1198 1.350 . S
C1202 C1199 1.463 . S
C1202 N1206 1.427 1_545 S
C1203 H1193 0.929 . S
C1203 C1201 1.433 . S
C1203 N1206 1.384 . S
C1204 H1195 0.929 . S
C1204 C1196 1.378 . S
C1204 C1199 1.350 . S
C1205 H1192 0.929 . S
C1205 C1197 1.433 . S
C1205 N1207 1.384 . S
N1206 C1202 1.427 1_565 S
N1206 C1203 1.384 . S
N1207 C1199 1.427 . S
N1207 C1205 1.384 . S
C355 C184 1.264 1_556 S
C351 C62 1.223 . S
C373 C199 1.773 . S
C369 C73 1.713 . S
C387 C84 1.780 . S
C391 C212 1.806 . S
C409 C226 1.354 . S
C405 C49 1.081 . S
C427 C238 1.523 . S
C423 C118 1.562 . S
C445 C252 1.327 . S
C441 C137 1.293 . S
C459 C129 1.757 . S
C463 C266 1.713 . S
C481 C281 1.704 . S
C477 C106 1.666 . S
C495 C128 1.843 . S
C499 C297 1.907 . S
C517 C310 1.583 . S
C513 C104 1.249 . S
C531 C115 1.598 . S
C535 C295 1.792 . S
C553 C308 1.604 . S
C549 C139 1.605 . S
C567 C85 1.941 . S
C571 C324 1.935 . S
C585 C52 1.286 . S
C589 C323 1.334 . S
C603 C60 1.201 . S
C607 C322 1.324 . S
C621 C71 1.406 . S
C625 C325 1.672 . S
C639 C40 1.868 . S
C643 C227 1.959 . S
C657 C162 1.132 . S
C661 C225 1.131 . S
C679 C185 1.230 . S
C675 C173 1.205 . S
C697 C196 1.972 . S
C693 C93 1.832 . S
C711 C51 1.503 1_545 S
C715 C241 1.587 . S
C733 C282 1.895 . S
C729 C126 1.695 . S
C751 C239 1.766 . S
C747 C107 1.720 1_545 S
C769 C267 1.549 . S
C765 C140 1.572 . S
C787 C268 1.265 . S
C783 C161 1.230 . S
C801 C172 1.714 . S
C805 C283 1.762 . S
C819 C95 1.773 . S
C823 C240 1.801 . S
C841 C254 1.344 . S
C837 C148 1.049 . S
C855 C41 1.555 . S
C859 C210 1.514 . S
C877 C224 1.329 . S
C873 C5 1.289 . S
C895 C182 1.712 . S
C891 C19 1.752 . S
C913 C197 1.694 . S
C909 C29 1.675 . S
C927 C18 1.844 . S
C931 C311 1.906 . S
C945 C27 1.278 . S
C949 C296 1.589 . S
C963 C38 1.603 . S
C967 C309 1.791 . S
C981 C7 1.612 . S
C985 C294 1.604 1_554 S
C1003 C338 1.936 . S
C999 C96 1.943 . S
C1021 C337 1.335 . S
C1017 C151 1.287 . S
C1039 C336 1.326 . S
C1035 C159 1.211 . S
C1053 C170 1.382 . S
C1057 C339 1.664 . S
C1071 C117 1.874 . S
C1075 C255 1.961 . S
C1093 C253 1.128 . S
C1089 C63 1.128 . S
C1111 C269 1.225 . S
C1107 C74 1.208 . S
C1129 C280 1.968 . S
C1125 C82 1.821 . S
C1143 C150 1.501 . S
C1147 C213 1.586 . S
C1165 C198 1.895 . S
C1161 C16 1.695 . S
C1179 C30 1.723 . S
C1183 C211 1.766 . S
C1201 C183 1.552 . S
C1197 C8 1.572 . S
