# Generated by pormake.
# Topology fgl, (4,4)-cn, num edge types: 1
# Building blocks:
#     Node 0, Type 0, BuildingBlock: ESEHIV_clean_sbu_0, # of connection points: 4
#     Node 1, Type 0, BuildingBlock: ESEHIV_clean_sbu_0, # of connection points: 4
#     Node 2, Type 0, BuildingBlock: ESEHIV_clean_sbu_0, # of connection points: 4
#     Node 3, Type 0, BuildingBlock: ESEHIV_clean_sbu_0, # of connection points: 4
#     Node 4, Type 0, BuildingBlock: ESEHIV_clean_sbu_0, # of connection points: 4
#     Node 5, Type 0, BuildingBlock: ESEHIV_clean_sbu_0, # of connection points: 4
#     Node 6, Type 0, BuildingBlock: ESEHIV_clean_sbu_0, # of connection points: 4
#     Node 7, Type 0, BuildingBlock: ESEHIV_clean_sbu_0, # of connection points: 4
#     Node 8, Type 0, BuildingBlock: ESEHIV_clean_sbu_0, # of connection points: 4
#     Node 9, Type 0, BuildingBlock: ESEHIV_clean_sbu_0, # of connection points: 4
#     Node 10, Type 0, BuildingBlock: ESEHIV_clean_sbu_0, # of connection points: 4
#     Node 11, Type 0, BuildingBlock: ESEHIV_clean_sbu_0, # of connection points: 4
#     Node 12, Type 0, BuildingBlock: ESEHIV_clean_sbu_0, # of connection points: 4
#     Node 13, Type 0, BuildingBlock: ESEHIV_clean_sbu_0, # of connection points: 4
#     Node 14, Type 0, BuildingBlock: ESEHIV_clean_sbu_0, # of connection points: 4
#     Node 15, Type 0, BuildingBlock: ESEHIV_clean_sbu_0, # of connection points: 4
#     Node 16, Type 0, BuildingBlock: ESEHIV_clean_sbu_0, # of connection points: 4
#     Node 17, Type 0, BuildingBlock: ESEHIV_clean_sbu_0, # of connection points: 4
#     Node 18, Type 1, BuildingBlock: GALJAG_clean_sbu_0, # of connection points: 4
#     Node 19, Type 1, BuildingBlock: GALJAG_clean_sbu_0, # of connection points: 4
#     Node 20, Type 1, BuildingBlock: GALJAG_clean_sbu_0, # of connection points: 4
#     Node 21, Type 1, BuildingBlock: GALJAG_clean_sbu_0, # of connection points: 4
#     Node 22, Type 1, BuildingBlock: GALJAG_clean_sbu_0, # of connection points: 4
#     Node 23, Type 1, BuildingBlock: GALJAG_clean_sbu_0, # of connection points: 4
#     Node 24, Type 1, BuildingBlock: GALJAG_clean_sbu_0, # of connection points: 4
#     Node 25, Type 1, BuildingBlock: GALJAG_clean_sbu_0, # of connection points: 4
#     Node 26, Type 1, BuildingBlock: GALJAG_clean_sbu_0, # of connection points: 4
#     Node 27, Type 1, BuildingBlock: GALJAG_clean_sbu_0, # of connection points: 4
#     Node 28, Type 1, BuildingBlock: GALJAG_clean_sbu_0, # of connection points: 4
#     Node 29, Type 1, BuildingBlock: GALJAG_clean_sbu_0, # of connection points: 4
#     Node 30, Type 1, BuildingBlock: GALJAG_clean_sbu_0, # of connection points: 4
#     Node 31, Type 1, BuildingBlock: GALJAG_clean_sbu_0, # of connection points: 4
#     Node 32, Type 1, BuildingBlock: GALJAG_clean_sbu_0, # of connection points: 4
#     Node 33, Type 1, BuildingBlock: GALJAG_clean_sbu_0, # of connection points: 4
#     Node 34, Type 1, BuildingBlock: GALJAG_clean_sbu_0, # of connection points: 4
#     Node 35, Type 1, BuildingBlock: GALJAG_clean_sbu_0, # of connection points: 4
#     Edge 36, Type (0, 1), BuildingBlock: EZIPEK_clean_linker_0, # of connection points: 2
#     Edge 37, Type (0, 1), BuildingBlock: EZIPEK_clean_linker_0, # of connection points: 2
#     Edge 38, Type (0, 1), BuildingBlock: EZIPEK_clean_linker_0, # of connection points: 2
#     Edge 39, Type (0, 1), BuildingBlock: EZIPEK_clean_linker_0, # of connection points: 2
#     Edge 40, Type (0, 1), BuildingBlock: EZIPEK_clean_linker_0, # of connection points: 2
#     Edge 41, Type (0, 1), BuildingBlock: EZIPEK_clean_linker_0, # of connection points: 2
#     Edge 42, Type (0, 1), BuildingBlock: EZIPEK_clean_linker_0, # of connection points: 2
#     Edge 43, Type (0, 1), BuildingBlock: EZIPEK_clean_linker_0, # of connection points: 2
#     Edge 44, Type (0, 1), BuildingBlock: EZIPEK_clean_linker_0, # of connection points: 2
#     Edge 45, Type (0, 1), BuildingBlock: EZIPEK_clean_linker_0, # of connection points: 2
#     Edge 46, Type (0, 1), BuildingBlock: EZIPEK_clean_linker_0, # of connection points: 2
#     Edge 47, Type (0, 1), BuildingBlock: EZIPEK_clean_linker_0, # of connection points: 2
#     Edge 48, Type (0, 1), BuildingBlock: EZIPEK_clean_linker_0, # of connection points: 2
#     Edge 49, Type (0, 1), BuildingBlock: EZIPEK_clean_linker_0, # of connection points: 2
#     Edge 50, Type (0, 1), BuildingBlock: EZIPEK_clean_linker_0, # of connection points: 2
#     Edge 51, Type (0, 1), BuildingBlock: EZIPEK_clean_linker_0, # of connection points: 2
#     Edge 52, Type (0, 1), BuildingBlock: EZIPEK_clean_linker_0, # of connection points: 2
#     Edge 53, Type (0, 1), BuildingBlock: EZIPEK_clean_linker_0, # of connection points: 2
#     Edge 54, Type (0, 1), BuildingBlock: EZIPEK_clean_linker_0, # of connection points: 2
#     Edge 55, Type (0, 1), BuildingBlock: EZIPEK_clean_linker_0, # of connection points: 2
#     Edge 56, Type (0, 1), BuildingBlock: EZIPEK_clean_linker_0, # of connection points: 2
#     Edge 57, Type (0, 1), BuildingBlock: EZIPEK_clean_linker_0, # of connection points: 2
#     Edge 58, Type (0, 1), BuildingBlock: EZIPEK_clean_linker_0, # of connection points: 2
#     Edge 59, Type (0, 1), BuildingBlock: EZIPEK_clean_linker_0, # of connection points: 2
#     Edge 60, Type (0, 1), BuildingBlock: EZIPEK_clean_linker_0, # of connection points: 2
#     Edge 61, Type (0, 1), BuildingBlock: EZIPEK_clean_linker_0, # of connection points: 2
#     Edge 62, Type (0, 1), BuildingBlock: EZIPEK_clean_linker_0, # of connection points: 2
#     Edge 63, Type (0, 1), BuildingBlock: EZIPEK_clean_linker_0, # of connection points: 2
#     Edge 64, Type (0, 1), BuildingBlock: EZIPEK_clean_linker_0, # of connection points: 2
#     Edge 65, Type (0, 1), BuildingBlock: EZIPEK_clean_linker_0, # of connection points: 2
#     Edge 66, Type (0, 1), BuildingBlock: EZIPEK_clean_linker_0, # of connection points: 2
#     Edge 67, Type (0, 1), BuildingBlock: EZIPEK_clean_linker_0, # of connection points: 2
#     Edge 68, Type (0, 1), BuildingBlock: EZIPEK_clean_linker_0, # of connection points: 2
#     Edge 69, Type (0, 1), BuildingBlock: EZIPEK_clean_linker_0, # of connection points: 2
#     Edge 70, Type (0, 1), BuildingBlock: EZIPEK_clean_linker_0, # of connection points: 2
#     Edge 71, Type (0, 1), BuildingBlock: EZIPEK_clean_linker_0, # of connection points: 2
#     Edge 72, Type (0, 1), BuildingBlock: EZIPEK_clean_linker_0, # of connection points: 2
#     Edge 73, Type (0, 1), BuildingBlock: EZIPEK_clean_linker_0, # of connection points: 2
#     Edge 74, Type (0, 1), BuildingBlock: EZIPEK_clean_linker_0, # of connection points: 2
#     Edge 75, Type (0, 1), BuildingBlock: EZIPEK_clean_linker_0, # of connection points: 2
#     Edge 76, Type (0, 1), BuildingBlock: EZIPEK_clean_linker_0, # of connection points: 2
#     Edge 77, Type (0, 1), BuildingBlock: EZIPEK_clean_linker_0, # of connection points: 2
#     Edge 78, Type (0, 1), BuildingBlock: EZIPEK_clean_linker_0, # of connection points: 2
#     Edge 79, Type (0, 1), BuildingBlock: EZIPEK_clean_linker_0, # of connection points: 2
#     Edge 80, Type (0, 1), BuildingBlock: EZIPEK_clean_linker_0, # of connection points: 2
#     Edge 81, Type (0, 1), BuildingBlock: EZIPEK_clean_linker_0, # of connection points: 2
#     Edge 82, Type (0, 1), BuildingBlock: EZIPEK_clean_linker_0, # of connection points: 2
#     Edge 83, Type (0, 1), BuildingBlock: EZIPEK_clean_linker_0, # of connection points: 2
#     Edge 84, Type (0, 1), BuildingBlock: EZIPEK_clean_linker_0, # of connection points: 2
#     Edge 85, Type (0, 1), BuildingBlock: EZIPEK_clean_linker_0, # of connection points: 2
#     Edge 86, Type (0, 1), BuildingBlock: EZIPEK_clean_linker_0, # of connection points: 2
#     Edge 87, Type (0, 1), BuildingBlock: EZIPEK_clean_linker_0, # of connection points: 2
#     Edge 88, Type (0, 1), BuildingBlock: EZIPEK_clean_linker_0, # of connection points: 2
#     Edge 89, Type (0, 1), BuildingBlock: EZIPEK_clean_linker_0, # of connection points: 2
#     Edge 90, Type (0, 1), BuildingBlock: EZIPEK_clean_linker_0, # of connection points: 2
#     Edge 91, Type (0, 1), BuildingBlock: EZIPEK_clean_linker_0, # of connection points: 2
#     Edge 92, Type (0, 1), BuildingBlock: EZIPEK_clean_linker_0, # of connection points: 2
#     Edge 93, Type (0, 1), BuildingBlock: EZIPEK_clean_linker_0, # of connection points: 2
#     Edge 94, Type (0, 1), BuildingBlock: EZIPEK_clean_linker_0, # of connection points: 2
#     Edge 95, Type (0, 1), BuildingBlock: EZIPEK_clean_linker_0, # of connection points: 2
#     Edge 96, Type (0, 1), BuildingBlock: EZIPEK_clean_linker_0, # of connection points: 2
#     Edge 97, Type (0, 1), BuildingBlock: EZIPEK_clean_linker_0, # of connection points: 2
#     Edge 98, Type (0, 1), BuildingBlock: EZIPEK_clean_linker_0, # of connection points: 2
#     Edge 99, Type (0, 1), BuildingBlock: EZIPEK_clean_linker_0, # of connection points: 2
#     Edge 100, Type (0, 1), BuildingBlock: EZIPEK_clean_linker_0, # of connection points: 2
#     Edge 101, Type (0, 1), BuildingBlock: EZIPEK_clean_linker_0, # of connection points: 2
#     Edge 102, Type (0, 1), BuildingBlock: EZIPEK_clean_linker_0, # of connection points: 2
#     Edge 103, Type (0, 1), BuildingBlock: EZIPEK_clean_linker_0, # of connection points: 2
#     Edge 104, Type (0, 1), BuildingBlock: EZIPEK_clean_linker_0, # of connection points: 2
#     Edge 105, Type (0, 1), BuildingBlock: EZIPEK_clean_linker_0, # of connection points: 2
#     Edge 106, Type (0, 1), BuildingBlock: EZIPEK_clean_linker_0, # of connection points: 2
#     Edge 107, Type (0, 1), BuildingBlock: EZIPEK_clean_linker_0, # of connection points: 2
# Relax obj value: 0.035
# Max RMSD: 0.120
# Mean RMSD: 0.093
data_MOF--net-fgl--node1-ESEHIV_clean_sbu_0--node2-GALJAG_clean_sbu_0--edge1-EZIPEK_clean_linker_0
_symmetry_space_group_name_H-M    P1
_symmetry_Int_Tables_number       1
_symmetry_cell_setting            triclinic
loop_
_symmetry_equiv_pos_as_xyz
'x, y, z'
_cell_length_a     55.771338
_cell_length_b     55.517711
_cell_length_c     37.449913
_cell_angle_alpha  90.064506
_cell_angle_beta   90.652558
_cell_angle_gamma 119.67647
loop_
_atom_site_label
_atom_site_type_symbol
_atom_site_fract_x
_atom_site_fract_y
_atom_site_fract_z
_atom_type_partial_charge
Cu0 Cu 0.02426 0.54187 0.02913 0.0
N1 N 1.0048 0.5462 0.06694 0.0
N2 N 0.9996 0.56764 0.11452 0.0
C3 C 1.01545 0.56984 0.08643 0.0
C4 C 0.97799 0.54159 0.11279 0.0
C5 C 0.98121 0.52837 0.08329 0.0
O6 O 0.0385 0.57648 1.00346 0.0
C7 C 0.04077 0.51187 0.06733 0.0
O8 O 1.01375 0.49684 0.06822 0.0
H9 H 0.03507 0.58804 0.0809 0.0
H10 H 0.96787 0.50704 0.07521 0.0
N11 N 1.00501 0.51195 0.99712 0.0
N12 N 1.00005 0.4835 0.95166 0.0
C13 C 1.01791 0.50508 0.97219 0.0
C14 C 0.9779 0.49396 0.99226 0.0
C15 C 0.97477 0.47637 0.96406 0.0
C16 C 0.02482 0.57791 0.97687 0.0
O17 O 1.00458 0.55508 0.96298 0.0
H18 H 0.04005 0.51608 0.96869 0.0
H19 H 0.96159 0.49389 1.00768 0.0
O20 O 0.05174 0.53505 0.05129 0.0
H21 H 0.96154 0.53259 0.13201 0.0
H22 H 0.95551 0.4599 0.95321 0.0
Cu23 Cu 0.5447 0.57188 0.02639 0.0
N24 N 0.54762 0.58505 0.97952 0.0
N25 N 0.5661 0.60145 0.92622 0.0
C26 C 0.56888 0.59118 0.95759 0.0
C27 C 0.54201 0.60152 0.92803 0.0
C28 C 0.53065 0.59143 0.96107 0.0
O29 O 0.57629 0.60163 0.0534 0.0
C30 C 0.51569 0.51694 1.00205 0.0
O31 O 0.50901 0.52944 0.97738 0.0
H32 H 0.58629 0.58855 0.96456 0.0
H33 H 0.51157 0.58925 0.97107 0.0
N34 N 0.51501 0.56968 0.05141 0.0
N35 N 0.48691 0.55724 0.09804 0.0
C36 C 0.50454 0.55247 0.0793 0.0
C37 C 0.50379 0.58629 0.05276 0.0
C38 C 0.48624 0.57854 0.08169 0.0
C39 C 0.60209 0.614 0.04695 0.0
O40 O 0.61176 0.60279 0.02455 0.0
H41 H 0.51096 0.5377 0.08699 0.0
H42 H 0.50926 0.60381 0.03549 0.0
O43 O 0.53449 0.53201 0.02508 0.0
H44 H 0.53374 0.60912 0.90742 0.0
H45 H 0.47504 0.58857 0.09104 0.0
Cu46 Cu 0.56187 0.07984 0.02285 0.0
N47 N 0.55481 0.10076 0.99013 0.0
N48 N 0.53492 0.10893 0.94359 0.0
C49 C 0.5361 0.08947 0.96356 0.0
C50 C 0.55357 0.13357 0.95782 0.0
C51 C 0.56603 0.12843 0.9867 0.0
O52 O 0.52645 0.04911 0.03731 0.0
C53 C 0.61121 0.09017 0.99607 0.0
O54 O 0.61614 0.11515 1.00487 0.0
H55 H 0.52349 0.06737 0.95899 0.0
H56 H 0.58214 0.14374 1.00378 0.0
N57 N 0.57958 0.09977 0.06399 0.0
N58 N 0.60409 0.1095 0.11438 0.0
C59 C 0.5937 0.09225 0.08621 0.0
C60 C 0.58092 0.12257 0.07877 0.0
C61 C 0.59616 0.12865 0.11019 0.0
C62 C 0.51031 0.0566 0.05097 0.0
O63 O 0.51851 0.08313 0.05386 0.0
H64 H 0.59591 0.07414 0.08216 0.0
H65 H 0.5711 0.13362 0.06794 0.0
O66 O 0.58708 0.06969 1.00075 0.0
H67 H 0.55781 0.15361 0.948 0.0
H68 H 0.60057 0.14531 0.1288 0.0
Cu69 Cu 0.54754 0.06149 0.53911 0.0
N70 N 0.5502 0.05283 0.49189 0.0
N71 N 0.57017 0.05311 0.44077 0.0
C72 C 0.57421 0.06197 0.47485 0.0
C73 C 0.54263 0.03777 0.43591 0.0
C74 C 0.53028 0.03761 0.46769 0.0
O75 O 0.58102 0.0657 0.56388 0.0
C76 C 0.51548 0.08596 0.52443 0.0
O77 O 0.49932 0.06053 0.51296 0.0
H78 H 0.59428 0.0748 0.48718 0.0
H79 H 0.50837 0.02705 0.47275 0.0
N80 N 0.51766 0.03254 0.56153 0.0
N81 N 0.48412 1.01296 0.60113 0.0
C82 C 0.50714 0.03613 0.59178 0.0
C83 C 0.50079 1.006 0.55144 0.0
C84 C 0.4798 0.99379 0.57599 0.0
C85 C 0.58461 0.04468 0.56074 0.0
O86 O 0.56616 0.02307 0.54247 0.0
H87 H 0.51561 0.05573 0.60594 0.0
H88 H 0.50306 0.99649 0.52746 0.0
O89 O 0.53917 0.09231 0.53791 0.0
H90 H 0.53235 0.02725 0.41134 0.0
H91 H 0.46239 0.97293 0.57497 0.0
Cu92 Cu 0.07023 0.5703 0.5376 0.0
N93 N 0.09286 0.56211 0.56722 0.0
N94 N 0.10112 0.53923 0.61067 0.0
C95 C 0.08298 0.54609 0.59646 0.0
C96 C 0.12358 0.5517 0.58985 0.0
C97 C 0.11838 0.56569 0.56291 0.0
O98 O 0.03889 0.53365 0.52785 0.0
C99 C 0.08547 0.6192 0.57321 0.0
O100 O 0.10865 0.61852 0.57522 0.0
H101 H 0.06235 0.53863 0.60636 0.0
H102 H 0.13178 0.57654 0.54095 0.0
N103 N 0.08355 0.5867 0.49287 0.0
N104 N 0.08278 0.60885 0.44316 0.0
C105 C 0.06783 0.59177 0.46971 0.0
C106 C 0.1094 0.60094 0.48023 0.0
C107 C 0.10896 0.61463 0.44952 0.0
C108 C 0.04661 0.51869 0.51102 0.0
O109 O 0.07224 0.53006 0.50027 0.0
H110 H 0.04615 0.58467 0.47368 0.0
H111 H 0.12756 0.60296 0.49366 0.0
O112 O 0.0638 0.59793 0.56115 0.0
H113 H 0.14192 0.54986 0.59305 0.0
H114 H 0.12664 0.62882 0.43409 0.0
Cu115 Cu 0.56589 0.53103 0.53175 0.0
N116 N 0.5985 0.53254 0.5181 0.0
N117 N 0.64199 0.55303 0.50035 0.0
C118 C 0.61886 0.55474 0.5022 0.0
C119 C 0.63624 0.52883 0.51559 0.0
C120 C 0.60917 0.51613 0.5267 0.0
O121 O 0.57656 0.56215 0.56416 0.0
C122 C 0.54366 0.51636 0.46334 0.0
O123 O 0.55802 0.50343 0.4643 0.0
H124 H 0.61733 0.5727 0.49431 0.0
H125 H 0.59878 0.49734 0.54209 0.0
N126 N 0.54304 0.49851 0.55559 0.0
N127 N 0.50466 0.46831 0.58288 0.0
C128 C 0.52214 0.49522 0.57629 0.0
C129 C 0.53867 0.47278 0.54894 0.0
C130 C 0.51487 0.454 0.56589 0.0
C131 C 0.59049 0.56247 0.59153 0.0
O132 O 0.59511 0.54173 0.5968 0.0
H133 H 0.51824 0.51191 0.58321 0.0
H134 H 0.55028 0.46784 0.5303 0.0
O135 O 0.54508 0.53143 0.48984 0.0
H136 H 0.651 0.52186 0.52035 0.0
H137 H 0.50454 0.43165 0.56332 0.0
Cu138 Cu 0.69551 0.87776 0.36543 0.0
N139 N 0.66855 0.88558 0.34903 0.0
N140 N 0.65344 0.9133 0.32851 0.0
C141 C 0.67437 0.91188 0.34439 0.0
C142 C 0.63326 0.88688 0.32314 0.0
C143 C 0.64274 0.86963 0.33589 0.0
O144 O 0.71446 0.90633 0.40373 0.0
C145 C 0.70732 0.87448 0.29112 0.0
O146 O 0.69109 0.88483 0.28464 0.0
H147 H 0.69415 0.92973 0.35109 0.0
H148 H 0.63211 0.84726 0.33413 0.0
N149 N 0.68088 0.84262 0.38519 0.0
N150 N 0.68108 0.80415 0.40116 0.0
C151 C 0.6964 0.83067 0.39111 0.0
C152 C 0.6547 0.82292 0.39184 0.0
C153 C 0.65478 0.79895 0.40177 0.0
C154 C 0.7026 0.90147 0.43417 0.0
O155 O 0.68201 0.87646 0.44011 0.0
H156 H 0.71841 0.84087 0.38659 0.0
H157 H 0.63681 0.82548 0.38866 0.0
O158 O 0.71529 0.87435 0.32336 0.0
H159 H 0.61368 0.88065 0.3099 0.0
H160 H 0.63701 0.77913 0.40792 0.0
Cu161 Cu 0.2242 0.91247 0.37434 0.0
N162 N 0.1916 0.8922 0.34664 0.0
N163 N 0.15715 0.85463 0.31972 0.0
C164 C 0.1776 0.86423 0.34456 0.0
C165 C 0.15818 0.87746 0.3056 0.0
C166 C 0.17916 0.90054 0.3225 0.0
O167 O 0.21846 0.88977 0.41704 0.0
C168 C 0.2567 0.93316 0.31459 0.0
O169 O 0.23665 0.93827 0.30711 0.0
H170 H 0.18285 0.8511 0.36016 0.0
H171 H 0.1853 0.92183 0.3166 0.0
N172 N 0.23218 0.94793 0.39029 0.0
N173 N 0.2602 0.99087 0.41164 0.0
C174 C 0.2538 0.96399 0.41216 0.0
C175 C 0.22428 0.96524 0.37615 0.0
C176 C 0.24151 0.99169 0.38926 0.0
C177 C 0.19661 0.8843 0.43411 0.0
O178 O 0.18178 0.89534 0.42303 0.0
H179 H 0.2662 0.95661 0.42558 0.0
H180 H 0.20861 0.95962 0.35564 0.0
O181 O 0.2556 0.92034 0.34347 0.0
H182 H 0.14475 0.87742 0.28447 0.0
H183 H 0.24141 1.01039 0.38132 0.0
Cu184 Cu 0.23572 0.42739 0.38522 0.0
N185 N 0.23406 0.45288 0.35472 0.0
N186 N 0.21584 0.46554 0.31063 0.0
C187 C 0.21722 0.44449 0.32606 0.0
C188 C 0.23278 0.48843 0.32977 0.0
C189 C 0.24427 0.48051 0.35711 0.0
O190 O 0.19744 0.3989 0.39269 0.0
C191 C 0.28437 0.43468 0.35888 0.0
O192 O 0.29145 0.46001 0.36906 0.0
H193 H 0.2051 0.42305 0.31768 0.0
H194 H 0.25817 0.49379 0.37784 0.0
N195 N 0.25084 0.44214 0.42978 0.0
N196 N 0.26972 0.44424 0.48301 0.0
C197 C 0.26033 0.42991 0.45232 0.0
C198 C 0.254 0.46485 0.44712 0.0
C199 C 0.2659 0.46629 0.48018 0.0
C200 C 0.1825 0.40834 0.40522 0.0
O201 O 0.19382 0.43492 0.41244 0.0
H202 H 0.26027 0.41079 0.44639 0.0
H203 H 0.2477 0.47908 0.43688 0.0
O204 O 0.25962 0.41532 0.36341 0.0
H205 H 0.23572 0.50895 0.32512 0.0
H206 H 0.27112 0.482 0.50058 0.0
Cu207 Cu 0.23137 0.40609 0.89748 0.0
N208 N 0.25885 0.4343 0.87102 0.0
N209 N 0.29132 0.4536 0.83012 0.0
C210 C 0.2724 0.4298 0.84487 0.0
C211 C 0.28997 0.47412 0.84758 0.0
C212 C 0.26968 0.46202 0.87305 0.0
O213 O 0.24353 0.37851 0.90604 0.0
C214 C 0.19247 0.40217 0.84264 0.0
O215 O 0.21372 0.41225 0.82129 0.0
H216 H 0.26823 0.4094 0.83648 0.0
H217 H 0.26319 0.47259 0.89153 0.0
N218 N 0.22978 0.41967 0.94217 0.0
N219 N 0.2121 0.42314 0.99352 0.0
C220 C 0.20676 0.4104 0.9615 0.0
C221 C 0.25035 0.43902 0.96265 0.0
C222 C 0.23943 0.44117 0.99458 0.0
C223 C 0.26834 0.38865 0.91805 0.0
O224 O 0.28322 0.41556 0.92293 0.0
H225 H 0.18652 0.39454 0.9524 0.0
H226 H 0.27174 0.45071 0.95498 0.0
O227 O 0.19512 0.39506 0.87432 0.0
H228 H 0.30237 0.496 0.84191 0.0
H229 H 0.25052 0.45494 0.01669 0.0
Cu230 Cu 0.72885 0.89526 0.84985 0.0
N231 N 0.74505 0.87614 0.82979 0.0
N232 N 0.74702 0.83956 0.80892 0.0
C233 C 0.73266 0.84831 0.82843 0.0
C234 C 0.76944 0.86267 0.79751 0.0
C235 C 0.76803 0.88533 0.81019 0.0
O236 O 0.70829 0.87089 0.89098 0.0
C237 C 0.70331 0.92053 0.80451 0.0
O238 O 0.69977 0.93167 0.83346 0.0
H239 H 0.71292 0.83469 0.84039 0.0
H240 H 0.78207 0.90684 0.80419 0.0
N241 N 0.75588 0.92982 0.86772 0.0
N242 N 0.77418 0.97131 0.89407 0.0
C243 C 0.75084 0.94881 0.8829 0.0
C244 C 0.78347 0.94058 0.87012 0.0
C245 C 0.79488 0.96634 0.88636 0.0
C246 C 0.72007 0.87605 0.92197 0.0
O247 O 0.74246 0.9 0.92745 0.0
H248 H 0.73047 0.94615 0.88636 0.0
H249 H 0.79454 0.93036 0.8612 0.0
O250 O 0.71128 0.90259 0.80748 0.0
H251 H 0.78501 0.86304 0.78016 0.0
H252 H 0.81655 0.98047 0.89167 0.0
Cu253 Cu 0.22116 0.8878 0.87966 0.0
N254 N 0.20865 0.89548 0.83669 0.0
N255 N 0.18922 0.88326 0.78219 0.0
C256 C 0.18731 0.87629 0.81699 0.0
C257 C 0.21214 0.90828 0.78 0.0
C258 C 0.22402 0.91581 0.81359 0.0
O259 O 0.19428 0.85079 0.89412 0.0
C260 C 0.27663 0.91583 0.86776 0.0
O261 O 0.27244 0.93658 0.87481 0.0
H262 H 0.17238 0.85624 0.82694 0.0
H263 H 0.24398 0.93346 0.81971 0.0
N264 N 0.22653 0.91241 0.9171 0.0
N265 N 0.24573 0.93748 0.96645 0.0
C266 C 0.24302 0.91646 0.94567 0.0
C267 C 0.21836 0.93144 0.92007 0.0
C268 C 0.23026 0.94703 0.95068 0.0
C269 C 0.17108 0.84772 0.90327 0.0
O270 O 0.16749 0.86938 0.90386 0.0
H271 H 0.25401 0.90519 0.95013 0.0
H272 H 0.20564 0.9345 0.90063 0.0
O273 O 0.25665 0.89111 0.86946 0.0
H274 H 0.22086 0.9192 0.75539 0.0
H275 H 0.22869 0.9647 0.95982 0.0
Cu276 Cu 0.36378 0.21837 0.7361 0.0
N277 N 0.33502 0.22347 0.71934 0.0
N278 N 0.31365 0.24609 0.70087 0.0
C279 C 0.33781 0.24822 0.71094 0.0
C280 C 0.29468 0.219 0.70275 0.0
C281 C 0.30804 0.20496 0.71419 0.0
O282 O 0.37954 0.24322 0.77803 0.0
C283 C 0.3808 0.221 0.66324 0.0
O284 O 0.36398 0.23061 0.65641 0.0
H285 H 0.35725 0.26742 0.71163 0.0
H286 H 0.29874 0.18289 0.71849 0.0
N287 N 0.3497 0.18273 0.75384 0.0
N288 N 0.34881 0.14343 0.76804 0.0
C289 C 0.36255 0.16777 0.75108 0.0
C290 C 0.32709 0.16735 0.77346 0.0
C291 C 0.32644 0.14285 0.78225 0.0
C292 C 0.39397 0.26961 0.77932 0.0
O293 O 0.40445 0.28347 0.74983 0.0
H294 H 0.382 0.17487 0.73771 0.0
H295 H 0.31254 0.17378 0.78153 0.0
O296 O 0.38677 0.21886 0.69576 0.0
H297 H 0.27296 0.21015 0.69628 0.0
H298 H 0.31132 0.12633 0.79853 0.0
Cu299 Cu 0.89849 0.21115 0.68659 0.0
N300 N 0.92657 0.21633 0.65564 0.0
N301 N 0.95688 0.23862 0.61277 0.0
C302 C 0.93284 0.23319 0.6274 0.0
C303 C 0.96614 0.22434 0.63212 0.0
C304 C 0.94735 0.21065 0.65889 0.0
O305 O 0.90761 0.24922 0.6989 0.0
C306 C 0.85991 0.16254 0.65189 0.0
O307 O 0.88213 0.16017 0.64946 0.0
H308 H 0.92087 0.24277 0.61911 0.0
H309 H 0.94967 0.19897 0.68039 0.0
N310 N 0.89856 0.19494 0.7299 0.0
N311 N 0.88082 0.17759 0.78291 0.0
C312 C 0.88406 0.19606 0.75763 0.0
C313 C 0.90498 0.17516 0.73802 0.0
C314 C 0.89392 0.16431 0.77092 0.0
C315 C 0.93101 0.26268 0.71505 0.0
O316 O 0.94491 0.24991 0.72251 0.0
H317 H 0.87365 0.20815 0.75759 0.0
H318 H 0.91448 0.16726 0.71997 0.0
O319 O 0.86228 0.18497 0.66497 0.0
H320 H 0.9857 0.22507 0.62838 0.0
H321 H 0.89348 0.14659 0.78359 0.0
Cu322 Cu 0.8932 0.73729 0.6744 0.0
N323 N 0.88854 0.76032 0.64224 0.0
N324 N 0.87182 0.77088 0.59422 0.0
C325 C 0.8708 0.75041 0.6144 0.0
C326 C 0.89099 0.79477 0.60959 0.0
C327 C 0.90141 0.78816 0.63938 0.0
O328 O 0.85633 0.70674 0.68474 0.0
C329 C 0.94371 0.74869 0.64983 0.0
O330 O 0.94822 0.77348 0.65872 0.0
H331 H 0.85759 0.72854 0.60875 0.0
H332 H 0.91758 0.80262 0.65712 0.0
N333 N 0.90877 0.75396 0.71818 0.0
N334 N 0.93045 0.75836 0.77005 0.0
C335 C 0.91745 0.74176 0.74195 0.0
C336 C 0.91601 0.77908 0.73215 0.0
C337 C 0.92956 0.78188 0.7644 0.0
C338 C 0.84092 0.71465 0.6997 0.0
O339 O 0.85101 0.74115 0.70666 0.0
H340 H 0.91505 0.72134 0.73814 0.0
H341 H 0.91235 0.79448 0.71955 0.0
O342 O 0.91961 0.72787 0.6538 0.0
H343 H 0.89713 0.81532 0.59974 0.0
H344 H 0.93874 0.79993 0.78174 0.0
Cu345 Cu 0.87373 0.72912 0.18176 0.0
N346 N 0.88622 0.72988 0.1355 0.0
N347 N 0.90666 0.72449 0.08781 0.0
C348 C 0.89164 0.71222 0.11709 0.0
C349 C 0.9104 0.75034 0.08739 0.0
C350 C 0.89797 0.75363 0.11687 0.0
O351 O 0.9029 0.73302 0.21516 0.0
C352 C 0.84138 0.75049 0.16005 0.0
O353 O 0.83319 0.72861 0.13937 0.0
H354 H 0.88638 0.69166 0.12585 0.0
H355 H 0.89921 0.77276 0.1257 0.0
N356 N 0.84247 0.69701 0.19568 0.0
N357 N 0.80739 0.67462 0.23257 0.0
C358 C 0.83218 0.69699 0.22781 0.0
C359 C 0.82353 0.67352 0.17921 0.0
C360 C 0.80159 0.65945 0.20227 0.0
C361 C 0.90734 0.71251 0.21449 0.0
O362 O 0.89229 0.69177 0.19268 0.0
H363 H 0.84202 0.71409 0.24664 0.0
H364 H 0.8248 0.66788 0.15193 0.0
O365 O 0.86123 0.75661 0.18231 0.0
H366 H 0.92275 0.76617 0.06827 0.0
H367 H 0.78244 0.64056 0.19659 0.0
Cu368 Cu 0.41791 0.24283 0.21254 0.0
N369 N 0.43255 0.22149 0.19454 0.0
N370 N 0.43149 0.1824 0.17752 0.0
C371 C 0.41904 0.19361 0.19644 0.0
C372 C 0.45377 0.20394 0.16291 0.0
C373 C 0.45432 0.22815 0.1734 0.0
O374 O 0.39988 0.22316 0.25723 0.0
C375 C 0.38398 0.25992 0.16938 0.0
O376 O 0.37197 0.26164 0.19847 0.0
H377 H 0.39966 0.18165 0.21006 0.0
H378 H 0.4687 0.2489 0.16468 0.0
N379 N 0.44411 0.27913 0.22503 0.0
N380 N 0.45811 0.32334 0.23823 0.0
C381 C 0.43664 0.29737 0.23655 0.0
C382 C 0.47152 0.29407 0.21971 0.0
C383 C 0.48029 0.32154 0.22803 0.0
C384 C 0.41696 0.22625 0.28255 0.0
O385 O 0.44321 0.24414 0.27801 0.0
H386 H 0.41556 0.29191 0.24209 0.0
H387 H 0.484 0.2859 0.20907 0.0
O388 O 0.39927 0.2488 0.17095 0.0
H389 H 0.4678 0.20217 0.14478 0.0
H390 H 0.50094 0.33894 0.22529 0.0
Cu391 Cu 0.88396 0.25104 0.20586 0.0
N392 N 0.8685 0.25243 0.16211 0.0
N393 N 0.84737 0.23663 0.10958 0.0
C394 C 0.85649 0.23058 0.13973 0.0
C395 C 0.85419 0.26347 0.11251 0.0
C396 C 0.86732 0.27326 0.14519 0.0
O397 O 0.85938 0.2144 0.22499 0.0
C398 C 0.93718 0.28384 0.1858 0.0
O399 O 0.92654 0.29994 0.17991 0.0
H400 H 0.8545 0.21056 0.14541 0.0
H401 H 0.87573 0.29412 0.15552 0.0
N402 N 0.8871 0.27778 0.23855 0.0
N403 N 0.90622 0.30721 0.28415 0.0
C404 C 0.90391 0.28478 0.26726 0.0
C405 C 0.87812 0.29628 0.23744 0.0
C406 C 0.8901 0.3147 0.2657 0.0
C407 C 0.83594 0.2103 0.23524 0.0
O408 O 0.83069 0.23088 0.23426 0.0
H409 H 0.91543 0.27453 0.27454 0.0
H410 H 0.86482 0.2971 0.21684 0.0
O411 O 0.92165 0.25931 0.19708 0.0
H412 H 0.85005 0.27504 0.09248 0.0
H413 H 0.88811 0.33275 0.27137 0.0
In414 In 0.03747 0.68635 0.2803 0.0
O415 O 0.0782 0.7247 0.2626 0.0
O416 O 0.05949 0.72793 0.31006 0.0
C417 C 0.0261 0.65013 0.22497 0.0
C418 C 0.0497 0.66067 0.33404 0.0
C419 C 0.99389 0.69544 0.27188 0.0
O420 O 0.04782 0.67352 0.22641 0.0
O421 O 1.0102 0.64504 0.25101 0.0
O422 O 0.99533 0.68113 0.29723 0.0
O423 O 1.01434 0.70526 0.25138 0.0
C424 C 0.07922 0.73973 0.28863 0.0
O425 O 0.0299 0.66558 0.33579 0.0
O426 O 0.06318 0.66864 0.30557 0.0
In427 In 0.43579 0.46025 0.28346 0.0
O428 O 0.42753 0.48697 0.24348 0.0
O429 O 0.46494 0.48625 0.23879 0.0
C430 C 0.38371 0.44428 0.30363 0.0
C431 C 0.44224 0.41612 0.2672 0.0
C432 C 0.46742 0.48304 0.3429 0.0
O433 O 0.38952 0.42843 0.28607 0.0
O434 O 0.40392 0.46793 0.31081 0.0
O435 O 0.44307 0.46299 0.34373 0.0
O436 O 0.47557 0.49269 0.31211 0.0
C437 C 0.4496 0.49505 0.22669 0.0
O438 O 0.45471 0.43256 0.29262 0.0
O439 O 0.42608 0.42156 0.24966 0.0
In440 In 0.6824 0.07327 0.28083 0.0
O441 O 0.67634 0.08123 0.33938 0.0
O442 O 0.64136 0.06271 0.30426 0.0
C443 C 0.73584 0.11057 0.26957 0.0
C444 C 0.67447 0.02189 0.29121 0.0
C445 C 0.66169 0.08785 0.22545 0.0
O446 O 0.72125 0.11489 0.29143 0.0
O447 O 0.72401 0.08685 0.25512 0.0
O448 O 0.66505 0.06694 0.22404 0.0
O449 O 0.66921 0.10151 0.25425 0.0
C450 C 0.65053 0.07092 0.33534 0.0
O451 O 0.66021 0.02687 0.2692 0.0
O452 O 0.69376 0.043 0.30649 0.0
In453 In 0.05453 0.42238 0.77985 0.0
O454 O 0.04673 0.42658 0.83953 0.0
O455 O 0.03057 0.44315 0.80189 0.0
C456 C 1.00935 0.37337 0.75965 0.0
C457 C 0.07488 0.46088 0.72615 0.0
C458 C 0.09854 0.41505 0.79728 0.0
O459 O 0.02551 0.37508 0.78466 0.0
O460 O 1.01545 0.39627 0.74559 0.0
O461 O 0.09495 0.43389 0.81057 0.0
O462 O 0.08045 0.40022 0.77426 0.0
C463 C 0.0337 0.43944 0.83438 0.0
O464 O 0.05887 0.43537 0.72069 0.0
O465 O 0.08177 0.46695 0.75853 0.0
In466 In 0.68196 0.66965 0.75948 0.0
O467 O 0.66615 0.64208 0.8095 0.0
O468 O 0.64512 0.66328 0.79235 0.0
C469 C 0.72968 0.67113 0.74239 0.0
C470 C 0.65026 0.64053 0.70305 0.0
C471 C 0.70419 0.724 0.77625 0.0
O472 O 0.71577 0.65794 0.76925 0.0
O473 O 0.71894 0.68238 0.72387 0.0
O474 O 0.68417 0.71175 0.75447 0.0
O475 O 0.71283 0.70879 0.78957 0.0
C476 C 0.64656 0.64698 0.81453 0.0
O477 O 0.66009 0.66642 0.70591 0.0
O478 O 0.65619 0.62948 0.72851 0.0
In479 In 0.41367 0.03541 0.78508 0.0
O480 O 0.4345 0.04208 0.83936 0.0
O481 O 0.45475 0.07358 0.80048 0.0
C482 C 0.39175 0.06899 0.7795 0.0
C483 C 0.43098 0.02309 0.7244 0.0
C484 C 0.37644 0.98536 0.80967 0.0
O485 O 0.39072 0.05623 0.80776 0.0
O486 O 0.40383 0.06492 0.75386 0.0
O487 O 0.40201 0.9942 0.81241 0.0
O488 O 0.36981 1.00118 0.79363 0.0
C489 C 0.45493 0.06522 0.83175 0.0
O490 O 0.40692 0.0194 0.72752 0.0
O491 O 0.44618 0.03269 0.75179 0.0
In492 In 0.71309 1.00778 0.60964 0.0
O493 O 0.75504 0.04512 0.59265 0.0
O494 O 0.73909 0.04778 0.64249 0.0
C495 C 0.71224 0.97601 0.55165 0.0
C496 C 0.7076 0.97573 0.6687 0.0
C497 C 0.67267 0.02206 0.60078 0.0
O498 O 0.7285 0.98167 0.57797 0.0
O499 O 0.6965 0.9861 0.55469 0.0
O500 O 0.67386 1.00871 0.62744 0.0
O501 O 0.69175 0.02814 0.57873 0.0
C502 C 0.75823 0.05939 0.62036 0.0
O503 O 0.68704 0.97352 0.65123 0.0
O504 O 0.73049 0.99328 0.6559 0.0
In505 In 0.10425 0.77949 0.60419 0.0
O506 O 0.11141 0.80523 0.55303 0.0
O507 O 0.145 0.80148 0.57369 0.0
C508 C 0.05064 0.7646 0.61401 0.0
C509 C 0.09716 0.72811 0.59405 0.0
C510 C 0.13026 0.81209 0.6622 0.0
O511 O 0.06578 0.78362 0.59264 0.0
O512 O 0.06239 0.75304 0.62958 0.0
O513 O 0.13814 0.79675 0.64766 0.0
O514 O 0.10914 0.81078 0.64777 0.0
C515 C 0.13636 0.81144 0.5499 0.0
O516 O 0.1046 0.74058 0.62374 0.0
O517 O 0.09395 0.74167 0.56923 0.0
In518 In 0.34211 0.4039 0.65359 0.0
O519 O 0.31475 0.35782 0.63991 0.0
O520 O 0.33938 0.36872 0.68732 0.0
C521 C 0.31669 0.41303 0.59809 0.0
C522 C 0.33518 0.42811 0.71157 0.0
C523 C 0.39538 0.4263 0.63551 0.0
O524 O 0.33243 0.40301 0.59398 0.0
O525 O 0.31307 0.41755 0.62997 0.0
O526 O 0.3819 0.43878 0.63086 0.0
O527 O 0.38232 0.40288 0.6499 0.0
C528 C 0.3227 0.3497 0.66667 0.0
O529 O 0.35848 0.4373 0.69739 0.0
O530 O 0.31579 0.40682 0.69695 0.0
In531 In 0.71318 0.78303 0.10873 0.0
O532 O 0.6949 0.78523 0.16316 0.0
O533 O 0.72708 0.82271 0.14271 0.0
C534 C 0.67465 0.72909 0.09272 0.0
C535 C 0.71119 0.80863 0.0462 0.0
C536 C 0.75994 0.78199 0.12873 0.0
O537 O 0.66911 0.74432 0.11217 0.0
O538 O 0.69897 0.74102 0.08129 0.0
O539 O 0.76037 0.80041 0.10858 0.0
O540 O 0.73619 0.76448 0.13907 0.0
C541 C 0.71072 0.81097 0.1681 0.0
O542 O 0.72466 0.79604 0.05006 0.0
O543 O 0.69831 0.80822 0.07394 0.0
In544 In 0.35887 1.00982 0.13884 0.0
O545 O 0.35156 0.98063 0.18661 0.0
O546 O 0.32721 1.00015 0.18262 0.0
C547 C 0.40417 1.01119 0.11115 0.0
C548 C 0.32148 0.98519 0.08498 0.0
C549 C 0.38138 0.06442 0.15577 0.0
O550 O 0.39271 0.9975 0.13886 0.0
O551 O 0.39209 0.02288 0.09686 0.0
O552 O 0.35794 0.0506 0.14101 0.0
O553 O 0.39299 0.0505 0.16343 0.0
C554 C 0.33249 0.98373 0.1997 0.0
O555 O 0.33369 1.01091 0.09088 0.0
O556 O 0.32788 0.9716 0.10619 0.0
In557 In 0.09719 0.40765 0.14715 0.0
O558 O 0.11475 0.40556 0.20173 0.0
O559 O 0.13452 0.44373 0.1734 0.0
C560 C 0.08167 0.44433 0.12662 0.0
C561 C 0.13027 0.40559 0.09698 0.0
C562 C 0.04973 0.36002 0.16067 0.0
O563 O 0.09248 0.44563 0.15683 0.0
O564 O 0.07801 0.42417 0.10721 0.0
O565 O 0.06725 0.36107 0.13884 0.0
O566 O 0.05647 0.38256 0.17652 0.0
C567 C 0.13418 0.43039 0.20074 0.0
O568 O 0.12996 0.3973 0.12839 0.0
O569 O 0.11286 0.41323 0.09043 0.0
In570 In 0.39021 0.34745 0.97632 0.0
O571 O 0.37145 0.328 0.03079 0.0
O572 O 0.40423 0.32253 1.0125 0.0
C573 C 0.34423 0.35147 0.95825 0.0
C574 C 0.43384 0.39915 0.99355 0.0
C575 C 0.39557 0.32389 0.91444 0.0
O576 O 0.3428 0.32883 0.96673 0.0
O577 O 0.36836 0.37182 0.95935 0.0
O578 O 0.40492 0.34959 0.91831 0.0
O579 O 0.38409 0.30996 0.9419 0.0
C580 C 0.38691 0.31781 0.03675 0.0
O581 O 0.43496 0.38416 0.96896 0.0
O582 O 0.4114 0.38767 1.01024 0.0
In583 In 0.76884 0.11436 0.95079 0.0
O584 O 0.77886 0.08095 0.96996 0.0
O585 O 0.75766 0.07488 0.92029 0.0
C586 C 0.79244 0.15363 1.00151 0.0
C587 C 0.80397 0.14101 0.89767 0.0
C588 C 0.71512 0.09993 0.95764 0.0
O589 O 0.79009 0.1299 1.00494 0.0
O590 O 0.78275 0.1575 0.97285 0.0
O591 O 0.72766 0.10774 0.92841 0.0
O592 O 0.72943 0.09857 0.98308 0.0
C593 C 0.76878 0.06613 0.94225 0.0
O594 O 0.77922 0.13594 0.8966 0.0
O595 O 0.8111 0.13378 0.92589 0.0
In596 In 1.00958 0.71866 0.93344 0.0
O597 O 0.99923 0.73181 0.98608 0.0
O598 O 0.96757 0.69592 0.95959 0.0
C599 C 0.06302 0.75659 0.92493 0.0
C600 C 1.01586 0.67489 0.94692 0.0
C601 C 0.98591 0.73045 0.87819 0.0
O602 O 0.04755 0.76048 0.94574 0.0
O603 O 0.05147 0.73365 0.90859 0.0
O604 O 0.98649 0.708 0.87957 0.0
O605 O 0.99764 0.74692 0.90392 0.0
C606 C 0.97439 0.71252 0.98566 0.0
O607 O 1.00417 0.67651 0.91858 0.0
O608 O 0.02405 0.69509 0.96837 0.0
In609 In 0.40172 0.14053 0.47969 0.0
O610 O 0.38159 0.14034 0.53325 0.0
O611 O 0.41486 0.17864 0.51678 0.0
C612 C 0.35507 0.09169 0.46339 0.0
C613 C 0.40486 0.16685 0.41603 0.0
C614 C 0.44597 0.13316 0.49597 0.0
O615 O 0.35464 0.11388 0.46926 0.0
O616 O 0.37864 0.094 0.46668 0.0
O617 O 0.44788 0.15205 0.4754 0.0
O618 O 0.42227 0.11872 0.50878 0.0
C619 C 0.39697 0.16577 0.54024 0.0
O620 O 0.40689 0.14526 0.41848 0.0
O621 O 0.40205 0.17581 0.44578 0.0
In622 In 1.01946 0.36297 0.45592 0.0
O623 O 1.00882 0.34734 0.51332 0.0
O624 O 1.00669 0.31896 0.47366 0.0
C625 C 0.06976 0.37054 0.43817 0.0
C626 C 0.98373 0.34961 0.40014 0.0
C627 C 1.01923 0.40904 0.47888 0.0
O628 O 0.06605 0.3817 0.46537 0.0
O629 O 0.04814 0.35535 0.42027 0.0
O630 O 0.03802 0.40987 0.45958 0.0
O631 O 1.00058 0.385 0.48718 0.0
C632 C 1.00342 0.32295 0.50593 0.0
O633 O 1.00672 0.37159 0.40123 0.0
O634 O 0.97865 0.33442 0.42713 0.0
In635 In 0.75665 0.70594 0.42675 0.0
O636 O 0.80024 0.74049 0.44299 0.0
O637 O 0.7735 0.7152 0.48371 0.0
C638 C 0.73176 0.73691 0.41965 0.0
C639 C 0.7668 0.69141 0.36218 0.0
C640 C 0.72722 0.6544 0.45171 0.0
O641 O 0.72447 0.71792 0.44235 0.0
O642 O 0.7518 0.74062 0.40059 0.0
O643 O 0.75299 0.66575 0.44791 0.0
O644 O 0.71643 0.66891 0.44316 0.0
C645 C 0.79698 0.73474 0.4758 0.0
O646 O 0.74316 0.68682 0.37094 0.0
O647 O 0.78542 0.70364 0.38565 0.0
C648 C 0.07411 0.49384 0.06428 0.0
C649 C 0.05718 0.50085 0.08476 0.0
C650 C 0.05781 0.47232 0.13414 0.0
C651 C 0.07507 0.46559 0.1139 0.0
N652 N 0.1064 0.47663 0.06476 0.0
N653 N 0.0397 0.50361 0.14217 0.0
C654 C 0.08538 0.47849 0.08052 0.0
C655 C 0.05139 0.49238 0.12079 0.0
N656 N 0.07813 0.5003 0.02885 0.0
N657 N 0.04605 0.45832 0.16483 0.0
H658 H 0.03504 0.51859 0.13303 0.0
H659 H 0.0373 0.50024 0.16958 0.0
H660 H 0.04946 0.44283 0.17514 0.0
H661 H 0.03093 0.46031 0.17843 0.0
H662 H 0.08731 0.49253 1.01172 0.0
H663 H 0.07064 0.51187 1.01589 0.0
H664 H 0.11647 0.48778 0.04213 0.0
H665 H 0.11577 0.46627 0.07645 0.0
C666 C 0.63139 0.66533 0.03379 0.0
C667 C 0.62008 0.64356 0.05936 0.0
C668 C 0.64372 0.67818 0.10759 0.0
C669 C 0.65415 0.69985 0.08205 0.0
N670 N 0.65342 0.71474 0.02196 0.0
N671 N 0.61231 0.62966 0.12102 0.0
C672 C 0.6468 0.69355 0.04545 0.0
C673 C 0.62516 0.65018 0.09642 0.0
N674 N 0.62739 0.65916 0.99812 0.0
N675 N 0.65264 0.68418 0.14231 0.0
H676 H 0.6001 0.60881 0.11399 0.0
H677 H 0.61237 0.63338 0.14827 0.0
H678 H 0.66586 0.70432 0.15146 0.0
H679 H 0.64854 0.6692 0.16159 0.0
H680 H 0.6385 0.67336 0.97831 0.0
H681 H 0.61395 0.63946 0.98804 0.0
H682 H 0.64609 0.71184 0.99573 0.0
H683 H 0.66422 0.7356 0.02955 0.0
C684 C 0.48096 0.03522 0.10378 0.0
C685 C 0.48331 0.03657 0.06619 0.0
C686 C 0.4329 1.01147 0.06014 0.0
C687 C 0.43084 1.01535 0.09724 0.0
N688 N 0.45352 0.03269 0.15463 0.0
N689 N 0.46199 0.02593 1.00783 0.0
C690 C 0.45495 0.02709 0.1194 0.0
C691 C 0.45937 0.02422 0.04409 0.0
N692 N 0.50386 0.0422 0.12444 0.0
N693 N 0.4095 0.99541 0.04043 0.0
H694 H 0.48109 0.03411 0.99544 0.0
H695 H 0.4455 0.02049 0.99019 0.0
H696 H 0.38996 0.98526 0.05181 0.0
H697 H 0.40965 0.98994 1.01386 0.0
H698 H 0.50326 0.03937 0.15197 0.0
H699 H 0.52307 0.04815 0.11333 0.0
H700 H 0.47087 0.0443 0.17074 0.0
H701 H 0.43519 0.02771 0.16741 0.0
C702 C 0.49148 0.11115 0.54763 0.0
C703 C 0.50537 0.10618 0.51954 0.0
C704 C 0.48326 0.12247 0.47587 0.0
C705 C 0.46909 0.1273 0.50396 0.0
N706 N 0.46571 0.13343 0.56707 0.0
N707 N 0.52037 0.1139 0.45876 0.0
C708 C 0.47514 0.12391 0.54004 0.0
C709 C 0.50328 0.11433 0.4843 0.0
N710 N 0.49285 0.10246 0.58131 0.0
N711 N 0.47618 0.12349 0.44106 0.0
H712 H 0.53506 0.10793 0.46439 0.0
H713 H 0.52191 0.12198 0.43328 0.0
H714 H 0.46126 0.12861 0.43338 0.0
H715 H 0.48342 0.11701 0.4197 0.0
H716 H 0.48043 0.10207 0.60211 0.0
H717 H 0.50558 0.09427 0.58794 0.0
H718 H 0.47135 0.13383 0.59376 0.0
H719 H 0.45442 0.14353 0.56242 0.0
C720 C 0.02216 0.47832 0.4698 0.0
C721 C 0.02886 0.48843 0.50535 0.0
C722 C 0.02359 0.44399 0.52517 0.0
C723 C 1.01862 0.43453 0.48918 0.0
N724 N 1.00527 0.4389 0.42923 0.0
N725 N 0.02792 0.47893 0.56801 0.0
C726 C 1.01527 0.45051 0.46211 0.0
C727 C 0.02663 0.47042 0.53348 0.0
N728 N 0.02368 0.49589 0.44327 0.0
N729 N 0.02705 0.4285 0.55093 0.0
H730 H 0.02937 0.49788 0.57437 0.0
H731 H 0.02476 0.46634 0.59005 0.0
H732 H 0.02461 0.40893 0.54587 0.0
H733 H 0.03389 0.43559 0.57683 0.0
H734 H 0.02251 0.49119 0.41616 0.0
H735 H 0.02708 0.51581 0.44865 0.0
H736 H 1.00015 0.44855 0.40912 0.0
H737 H 0.99977 0.41845 0.42307 0.0
C738 C 0.6765 0.57795 0.45454 0.0
C739 C 0.66833 0.57551 0.49052 0.0
C740 C 0.7036 0.62349 0.50295 0.0
C741 C 0.71061 0.62644 0.46634 0.0
N742 N 0.70898 0.60607 0.40896 0.0
N743 N 0.67678 0.59263 0.5508 0.0
C744 C 0.69889 0.60338 0.44269 0.0
C745 C 0.68305 0.59725 0.51542 0.0
N746 N 0.66165 0.55633 0.43155 0.0
N747 N 0.71579 0.64609 0.52521 0.0
H748 H 0.66138 0.57357 0.56017 0.0
H749 H 0.68776 0.60677 0.57111 0.0
H750 H 0.73179 0.66528 0.51709 0.0
H751 H 0.70966 0.64629 0.55129 0.0
H752 H 0.66435 0.55738 0.40404 0.0
H753 H 0.64564 0.53733 0.4402 0.0
H754 H 0.70283 0.58961 0.39111 0.0
H755 H 0.72515 0.62467 0.39959 0.0
C756 C 1.00494 0.60844 0.98968 0.0
C757 C 0.02434 0.60391 0.9708 0.0
C758 C 0.03766 0.64557 0.93529 0.0
C759 C 1.01903 0.65065 0.95518 0.0
N760 N 0.98781 0.63964 1.00446 0.0
N761 N 0.0616 0.61917 0.92937 0.0
C762 C 1.00367 0.63298 0.98348 0.0
C763 C 0.04147 0.62282 0.94467 0.0
N764 N 0.98685 0.58866 1.01242 0.0
N765 N 0.05152 0.66243 0.90737 0.0
H766 H 0.06452 0.60245 0.9355 0.0
H767 H 0.0766 0.63347 0.91256 0.0
H768 H 0.0504 0.68012 0.90097 0.0
H769 H 0.0631 0.65829 0.88934 0.0
H770 H 0.97004 0.58905 0.02356 0.0
H771 H 0.9873 0.57056 0.01835 0.0
H772 H 0.97923 0.62979 0.02841 0.0
H773 H 0.98446 0.65618 0.99924 0.0
C774 C 0.50446 0.46626 1.00365 0.0
C775 C 0.49605 0.48647 1.0071 0.0
C776 C 0.44747 0.44969 1.00091 0.0
C777 C 0.45551 0.42908 0.99943 0.0
N778 N 0.49164 0.41753 1.00682 0.0
N779 N 0.45916 0.49594 0.01961 0.0
C780 C 0.48405 0.43731 1.003 0.0
C781 C 0.46743 0.4776 1.00928 0.0
N782 N 0.53177 0.47468 0.99958 0.0
N783 N 0.42115 0.44326 0.99168 0.0
H784 H 0.47302 0.51656 0.02597 0.0
H785 H 0.43874 0.48996 0.02544 0.0
H786 H 0.40608 0.42368 0.98296 0.0
H787 H 0.41512 0.45816 0.98858 0.0
H788 H 0.53905 0.46127 0.99283 0.0
H789 H 0.54707 0.4955 1.00088 0.0
H790 H 0.51174 0.42212 1.0129 0.0
H791 H 0.47735 0.39638 1.00716 0.0
C792 C 0.64311 0.06978 0.99602 0.0
C793 C 0.63401 0.08722 0.98044 0.0
C794 C 0.67746 0.11224 0.94827 0.0
C795 C 0.68625 0.09411 0.96254 0.0
N796 N 0.67346 0.0504 0.99089 0.0
N797 N 0.63847 0.11816 0.93271 0.0
C798 C 0.66779 0.07118 0.98354 0.0
C799 C 0.64985 0.10606 0.95342 0.0
N800 N 0.62932 0.05308 0.02402 0.0
N801 N 0.69575 0.13652 0.93232 0.0
H802 H 0.61798 0.11347 0.93531 0.0
H803 H 0.64832 0.13024 0.91056 0.0
H804 H 0.71674 0.14336 0.93016 0.0
H805 H 0.69064 0.15152 0.92483 0.0
H806 H 0.63707 0.04256 0.03896 0.0
H807 H 0.61121 0.0513 0.03415 0.0
H808 H 0.65952 0.03207 1.00342 0.0
H809 H 0.69068 0.05008 0.98087 0.0
C810 C 0.60182 0.01818 0.59678 0.0
C811 C 0.6081 0.04272 0.57784 0.0
C812 C 0.65741 0.05664 0.58269 0.0
C813 C 0.65048 0.02973 0.59519 0.0
N814 N 0.61446 0.98309 0.60844 0.0
N815 N 0.64245 0.08456 0.54967 0.0
C816 C 0.62226 1.01008 0.60113 0.0
C817 C 0.6361 0.06194 0.57023 0.0
N818 N 0.57619 1.0026 0.61095 0.0
N819 N 0.68425 0.07749 0.58384 0.0
H820 H 0.62771 0.08946 0.54044 0.0
H821 H 0.66212 0.09736 0.53968 0.0
H822 H 0.70017 0.07487 0.59445 0.0
H823 H 0.69022 0.09805 0.57812 0.0
H824 H 0.57116 0.98588 0.62782 0.0
H825 H 0.56101 1.00836 0.60913 0.0
H826 H 0.59388 0.96747 0.60931 0.0
H827 H 0.62821 0.97553 0.60972 0.0
C828 C 0.06993 0.65022 0.60243 0.0
C829 C 0.08665 0.64647 0.57726 0.0
C830 C 0.11131 0.69652 0.56514 0.0
C831 C 0.09337 0.69997 0.58836 0.0
N832 N 0.05273 0.67983 0.62478 0.0
N833 N 0.11917 0.66515 0.52895 0.0
C834 C 0.07184 0.67673 0.60583 0.0
C835 C 0.10618 0.66939 0.55699 0.0
N836 N 0.05312 0.62883 0.62415 0.0
N837 N 0.13397 0.71927 0.55192 0.0
H838 H 0.11545 0.64558 0.52116 0.0
H839 H 0.13121 0.68053 0.51082 0.0
H840 H 0.1386 0.73956 0.55741 0.0
H841 H 0.14957 0.71819 0.53826 0.0
H842 H 0.04276 0.63107 0.64573 0.0
H843 H 0.05113 0.60918 0.62231 0.0
H844 H 0.03488 0.66326 0.63491 0.0
H845 H 0.05352 0.69888 0.62791 0.0
C846 C 0.4724 0.45195 0.63293 0.0
C847 C 0.4772 0.45726 0.59608 0.0
C848 C 0.42814 0.44047 0.58483 0.0
C849 C 0.4236 0.43715 0.62215 0.0
N850 N 0.44129 0.44247 0.68244 0.0
N851 N 0.46128 0.46053 0.53729 0.0
C852 C 0.44569 0.4435 0.64649 0.0
C853 C 0.45551 0.45266 0.57211 0.0
N854 N 0.49349 0.4548 0.65467 0.0
N855 N 0.40622 0.43077 0.56148 0.0
H856 H 0.48105 0.46886 0.52693 0.0
H857 H 0.44702 0.46075 0.51931 0.0
H858 H 0.38576 0.42123 0.56965 0.0
H859 H 0.40804 0.42991 0.53393 0.0
H860 H 0.49103 0.44877 0.68129 0.0
H861 H 0.51335 0.46164 0.6452 0.0
H862 H 0.45699 0.44934 0.70163 0.0
H863 H 0.422 0.43655 0.69323 0.0
C864 C 0.70136 0.78346 0.44058 0.0
C865 C 0.69115 0.78509 0.40653 0.0
C866 C 0.70471 0.75272 0.38203 0.0
C867 C 0.71743 0.7532 0.41532 0.0
N868 N 0.73078 0.77138 0.47529 0.0
N869 N 0.68509 0.77411 0.34392 0.0
C870 C 0.71633 0.76901 0.44451 0.0
C871 C 0.69331 0.77042 0.37698 0.0
N872 N 0.69662 0.79584 0.46907 0.0
N873 N 0.70254 0.73455 0.35581 0.0
H874 H 0.6758 0.78623 0.33977 0.0
H875 H 0.68899 0.76667 0.32043 0.0
H876 H 0.71019 0.7209 0.35871 0.0
H877 H 0.69111 0.73125 0.33233 0.0
H878 H 0.70104 0.79334 0.49543 0.0
H879 H 0.68624 0.80707 0.46646 0.0
H880 H 0.73322 0.78484 0.49615 0.0
H881 H 0.7423 0.76145 0.47897 0.0
C882 C 0.3105 0.02475 0.41077 0.0
C883 C 0.28437 1.01471 0.4268 0.0
C884 C 0.30513 0.05368 0.46974 0.0
C885 C 0.3304 0.06538 0.45085 0.0
N886 N 0.35467 0.06483 0.39807 0.0
N887 N 0.25594 0.02038 0.4698 0.0
C888 C 0.33246 0.05161 0.41999 0.0
C889 C 0.28146 0.02952 0.45574 0.0
N890 N 0.31459 1.00857 0.38694 0.0
N891 N 0.30406 0.06482 0.50183 0.0
H892 H 0.23871 1.00188 0.46153 0.0
H893 H 0.25156 0.03176 0.48811 0.0
H894 H 0.32104 0.08198 0.51336 0.0
H895 H 0.2871 0.05569 0.51856 0.0
H896 H 0.33393 1.0137 0.3771 0.0
H897 H 0.29929 0.98869 0.37983 0.0
H898 H 0.3558 0.05695 0.37327 0.0
H899 H 0.37056 0.08507 0.40254 0.0
C900 C 0.1339 0.38797 0.38371 0.0
C901 C 0.15255 0.39066 0.41138 0.0
C902 C 0.11468 0.3726 0.45413 0.0
C903 C 0.09747 0.37524 0.42796 0.0
N904 N 0.0919 0.38833 0.36804 0.0
N905 N 0.1614 0.38595 0.47325 0.0
C906 C 0.10718 0.38322 0.39255 0.0
C907 C 0.14306 0.38281 0.44667 0.0
N908 N 0.14196 0.39032 0.34901 0.0
N909 N 0.10372 0.35962 0.48565 0.0
H910 H 0.18197 0.3919 0.46821 0.0
H911 H 0.15658 0.38394 0.50026 0.0
H912 H 0.08282 0.35096 0.49146 0.0
H913 H 0.11467 0.35491 0.50443 0.0
H914 H 0.12864 0.38631 0.32729 0.0
H915 H 0.16135 0.39346 0.34211 0.0
H916 H 0.09922 0.39682 0.34304 0.0
H917 H 0.07289 0.38668 0.3736 0.0
C918 C 0.14082 0.38152 0.83079 0.0
C919 C 0.16783 0.40491 0.8322 0.0
C920 C 0.14966 0.43364 0.80644 0.0
C921 C 0.12232 0.41098 0.80807 0.0
N922 N 0.09142 0.36437 0.82776 0.0
N923 N 0.19652 0.4547 0.82941 0.0
C924 C 0.11776 0.38513 0.82178 0.0
C925 C 0.17183 0.43138 0.82223 0.0
N926 N 0.13725 0.35571 0.83698 0.0
N927 N 0.15473 0.45711 0.78852 0.0
H928 H 0.21294 0.45426 0.84239 0.0
H929 H 0.19969 0.4747 0.8261 0.0
H930 H 0.13926 0.45939 0.77575 0.0
H931 H 0.17456 0.47311 0.78313 0.0
H932 H 0.11862 0.33751 0.83253 0.0
H933 H 0.15354 0.35235 0.84388 0.0
H934 H 0.08683 0.34624 0.84126 0.0
H935 H 0.07407 0.36624 0.82205 0.0
C936 C 0.7368 0.79295 0.82761 0.0
C937 C 0.7385 0.81115 0.80017 0.0
C938 C 0.72272 0.77333 0.75648 0.0
C939 C 0.7171 0.75417 0.78465 0.0
N940 N 0.71553 0.74571 0.84832 0.0
N941 N 0.72861 0.818 0.73953 0.0
C942 C 0.72345 0.76395 0.82062 0.0
C943 C 0.73029 0.80119 0.76483 0.0
N944 N 0.74844 0.80359 0.86025 0.0
N945 N 0.72212 0.76536 0.72179 0.0
H946 H 0.73341 0.83833 0.74497 0.0
H947 H 0.71998 0.81093 0.71423 0.0
H948 H 0.71834 0.74563 0.71451 0.0
H949 H 0.72852 0.77922 0.70059 0.0
H950 H 0.75038 0.79179 0.88049 0.0
H951 H 0.75856 0.82481 0.86582 0.0
H952 H 0.71684 0.75171 0.87496 0.0
H953 H 0.70536 0.72431 0.84488 0.0
C954 C 0.30798 0.92157 0.81771 0.0
C955 C 0.30405 0.92248 0.85488 0.0
C956 C 0.3523 0.95799 0.86369 0.0
C957 C 0.35528 0.95947 0.82605 0.0
N958 N 0.3403 0.93753 0.76859 0.0
N959 N 0.32321 0.93377 0.91414 0.0
C960 C 0.33453 0.93924 0.80354 0.0
C961 C 0.32674 0.93789 0.87818 0.0
N962 N 0.28593 0.90558 0.79582 0.0
N963 N 0.37292 0.97711 0.88522 0.0
H964 H 0.30436 0.91905 0.92477 0.0
H965 H 0.33918 0.94292 0.93293 0.0
H966 H 0.39219 0.99165 0.87564 0.0
H967 H 0.37073 0.97933 0.91239 0.0
H968 H 0.28659 0.90662 0.76808 0.0
H969 H 0.26649 0.89167 0.80562 0.0
H970 H 0.32683 0.92201 0.75108 0.0
H971 H 0.35982 0.95041 0.75807 0.0
C972 C 0.65247 0.95562 0.34389 0.0
C973 C 0.6545 0.93858 0.31754 0.0
C974 C 0.66725 0.97511 0.27296 0.0
C975 C 0.66776 0.99323 0.30025 0.0
N976 N 0.66299 1.00158 0.36264 0.0
N977 N 0.66594 0.93183 0.25821 0.0
C978 C 0.66097 0.98373 0.33603 0.0
C979 C 0.66212 0.94813 0.28224 0.0
N980 N 0.64193 0.94445 0.37638 0.0
N981 N 0.67216 0.98385 0.23833 0.0
H982 H 0.66176 0.91179 0.26413 0.0
H983 H 0.67467 0.93853 0.23322 0.0
H984 H 0.67862 1.0042 0.23077 0.0
H985 H 0.66871 0.97068 0.21671 0.0
H986 H 0.63725 0.95461 0.39614 0.0
H987 H 0.63556 0.92381 0.3824 0.0
H988 H 0.66155 0.9968 0.38966 0.0
H989 H 0.66762 0.02193 0.35825 0.0
C990 C 0.10933 0.81606 0.30964 0.0
C991 C 0.13812 0.82594 0.31025 0.0
C992 C 0.1289 0.77871 0.29612 0.0
C993 C 0.10032 0.7697 0.29258 0.0
N994 N 0.06573 0.78289 0.28288 0.0
N995 N 0.17545 0.81791 0.29469 0.0
C996 C 0.09123 0.78931 0.29551 0.0
C997 C 0.14802 0.8076 0.30082 0.0
N998 N 0.09903 0.83162 0.32398 0.0
N999 N 0.13777 0.75978 0.29606 0.0
H1000 H 0.18967 0.83907 0.29568 0.0
H1001 H 0.18349 0.80588 0.2848 0.0
H1002 H 0.12441 0.73858 0.29254 0.0
H1003 H 0.15803 0.76496 0.30228 0.0
H1004 H 0.07792 0.82418 0.32661 0.0
H1005 H 0.11145 0.85049 0.33698 0.0
H1006 H 0.05881 0.79721 0.28193 0.0
H1007 H 0.05341 0.76451 0.26881 0.0
C1008 C 0.32669 0.4306 0.36823 0.0
C1009 C 0.30606 0.42942 0.34458 0.0
C1010 C 0.33462 0.43332 0.29308 0.0
C1011 C 0.35563 0.43555 0.31689 0.0
N1012 N 0.36929 0.42917 0.37572 0.0
N1013 N 0.2872 0.42345 0.28507 0.0
C1014 C 0.35085 0.43189 0.35409 0.0
C1015 C 0.30894 0.42852 0.3071 0.0
N1016 N 0.3235 0.43144 0.40427 0.0
N1017 N 0.33983 0.43734 0.25735 0.0
H1018 H 0.26839 0.42029 0.29473 0.0
H1019 H 0.28689 0.42015 0.25767 0.0
H1020 H 0.35817 0.44038 0.24621 0.0
H1021 H 0.32673 0.43914 0.23889 0.0
H1022 H 0.33911 0.43589 0.423 0.0
H1023 H 0.30533 0.42877 0.41548 0.0
H1024 H 0.36594 0.42393 0.40259 0.0
H1025 H 0.38701 0.42973 0.366 0.0
C1026 C 0.29023 0.37454 0.96606 0.0
C1027 C 0.28072 0.37144 0.9301 0.0
C1028 C 0.30617 0.34688 0.9163 0.0
C1029 C 0.31963 0.35475 0.95023 0.0
N1030 N 0.32434 0.3758 1.00806 0.0
N1031 N 0.28002 0.35519 0.87028 0.0
C1032 C 0.3114 0.36829 0.97542 0.0
C1033 C 0.28838 0.35727 0.90512 0.0
N1034 N 0.27863 0.38325 0.99131 0.0
N1035 N 0.31045 0.32953 0.89479 0.0
H1036 H 0.26651 0.36191 0.86151 0.0
H1037 H 0.28759 0.34824 0.84979 0.0
H1038 H 0.32296 0.32136 0.90259 0.0
H1039 H 0.29964 0.32115 0.87098 0.0
H1040 H 0.28273 0.38375 0.01857 0.0
H1041 H 0.26272 0.3874 0.98521 0.0
H1042 H 0.32188 0.38876 0.02595 0.0
H1043 H 0.3387 0.37012 0.01665 0.0
C1044 C 0.76527 0.99572 0.9427 0.0
C1045 C 0.77611 0.99621 0.90851 0.0
C1046 C 0.78773 0.04448 0.90124 0.0
C1047 C 0.77329 0.04276 0.93299 0.0
N1048 N 0.74671 1.01635 0.98328 0.0
N1049 N 0.79427 0.01947 0.85291 0.0
C1050 C 0.76186 0.01836 0.95387 0.0
C1051 C 0.78662 0.02024 0.88722 0.0
N1052 N 0.7586 0.97362 0.96444 0.0
N1053 N 0.80324 0.06951 0.88507 0.0
H1054 H 0.79357 1.00197 0.84163 0.0
H1055 H 0.79901 0.03533 0.83469 0.0
H1056 H 0.80543 0.08794 0.89536 0.0
H1057 H 0.81623 0.07247 0.86375 0.0
H1058 H 0.75284 0.97283 0.99094 0.0
H1059 H 0.76114 0.95697 0.95667 0.0
H1060 H 0.7354 0.99807 0.99743 0.0
H1061 H 0.74394 0.03259 0.99224 0.0
C1062 C 0.13295 0.802 0.88233 0.0
C1063 C 0.14734 0.82021 0.91106 0.0
C1064 C 0.10924 0.7914 0.95064 0.0
C1065 C 0.09259 0.77729 0.9203 0.0
N1066 N 0.08812 0.77262 0.85576 0.0
N1067 N 0.14962 0.83271 0.9731 0.0
C1068 C 0.10434 0.78318 0.88569 0.0
C1069 C 0.13564 0.81497 0.94548 0.0
N1070 N 0.14645 0.80276 0.85182 0.0
N1071 N 0.10041 0.78169 0.98423 0.0
H1072 H 0.16979 0.84909 0.9707 0.0
H1073 H 0.14073 0.83189 0.99771 0.0
H1074 H 0.08195 0.76349 0.98901 0.0
H1075 H 0.11276 0.78988 1.00701 0.0
H1076 H 0.13722 0.78845 0.83103 0.0
H1077 H 0.1677 0.81541 0.84926 0.0
H1078 H 0.09557 0.77872 0.83004 0.0
H1079 H 0.06674 0.76028 0.85635 0.0
C1080 C 0.34892 0.10125 0.748 0.0
C1081 C 0.35798 0.12358 0.77244 0.0
C1082 C 0.39039 0.11123 0.80002 0.0
C1083 C 0.38008 0.08774 0.777 0.0
N1084 N 0.34657 0.0576 0.73306 0.0
N1085 N 0.38397 0.1481 0.82465 0.0
C1086 C 0.35854 0.08197 0.75198 0.0
C1087 C 0.37767 0.12796 0.79945 0.0
N1088 N 0.33166 0.09903 0.72048 0.0
N1089 N 0.4132 0.11834 0.821 0.0
H1090 H 0.37526 0.16096 0.82429 0.0
H1091 H 0.39604 0.15069 0.84729 0.0
H1092 H 0.42359 0.10706 0.82142 0.0
H1093 H 0.42336 0.13671 0.8357 0.0
H1094 H 0.32656 0.0851 0.6993 0.0
H1095 H 0.32383 0.11256 0.71766 0.0
H1096 H 0.32899 0.05094 0.71708 0.0
H1097 H 0.35285 0.04283 0.73555 0.0
C1098 C 0.94625 0.30065 0.7608 0.0
C1099 C 0.94427 0.29269 0.72439 0.0
C1100 C 0.98363 0.33831 0.71034 0.0
C1101 C 0.98569 0.34641 0.74687 0.0
N1102 N 0.96463 0.33798 0.80474 0.0
N1103 N 0.95599 0.30582 0.66328 0.0
C1104 C 0.96562 0.32837 0.77147 0.0
C1105 C 0.96117 0.31232 0.69875 0.0
N1106 N 0.93019 0.28135 0.78536 0.0
N1107 N 1.00415 0.35441 0.6872 0.0
H1108 H 0.93967 0.28694 0.65431 0.0
H1109 H 0.96594 0.31995 0.64292 0.0
H1110 H 1.02151 0.37302 0.69462 0.0
H1111 H 1.00531 0.3482 0.66135 0.0
H1112 H 0.93296 0.28461 0.81284 0.0
H1113 H 0.91473 0.26144 0.77805 0.0
H1114 H 0.94897 0.32675 0.82279 0.0
H1115 H 0.9781 0.35828 0.81313 0.0
C1116 C 0.8066 0.69425 0.74815 0.0
C1117 C 0.81235 0.69511 0.7113 0.0
C1118 C 0.76265 0.67055 0.69786 0.0
C1119 C 0.75739 0.67498 0.73363 0.0
N1120 N 0.77511 0.69299 0.79289 0.0
N1121 N 0.79613 0.68413 0.65041 0.0
C1122 C 0.77945 0.68676 0.75909 0.0
C1123 C 0.79042 0.68277 0.68596 0.0
N1124 N 0.82736 0.70095 0.77261 0.0
N1125 N 0.74102 0.65445 0.67542 0.0
H1126 H 0.81613 0.69199 0.64098 0.0
H1127 H 0.78126 0.67876 0.63029 0.0
H1128 H 0.72054 0.64475 0.68369 0.0
H1129 H 0.74341 0.64848 0.64994 0.0
H1130 H 0.82415 0.69835 0.80002 0.0
H1131 H 0.84738 0.7064 0.76507 0.0
H1132 H 0.79105 0.70466 0.81099 0.0
H1133 H 0.75586 0.68855 0.80224 0.0
C1134 C 0.82521 0.776 0.12104 0.0
C1135 C 0.82689 0.76685 0.15583 0.0
C1136 C 0.79016 0.77619 0.1747 0.0
C1137 C 0.78495 0.77992 0.1384 0.0
N1138 N 0.79618 0.78033 0.07607 0.0
N1139 N 0.81051 0.75756 0.21625 0.0
C1140 C 0.80242 0.77954 0.11132 0.0
C1141 C 0.80956 0.76721 0.18303 0.0
N1142 N 0.84547 0.78112 0.09714 0.0
N1143 N 0.77687 0.78166 0.20123 0.0
H1144 H 0.82477 0.75143 0.22353 0.0
H1145 H 0.79624 0.75423 0.23602 0.0
H1146 H 0.76301 0.78874 0.19608 0.0
H1147 H 0.78155 0.78181 0.22826 0.0
H1148 H 0.84693 0.79031 0.07243 0.0
H1149 H 0.86248 0.77892 0.10378 0.0
H1150 H 0.8064 0.77686 0.05532 0.0
H1151 H 0.77917 0.78179 0.06726 0.0
C1152 C 0.4065 0.14101 0.13863 0.0
C1153 C 0.42074 0.15321 0.17097 0.0
C1154 C 0.40754 0.10718 0.19461 0.0
C1155 C 0.39512 0.09503 0.16112 0.0
N1156 N 0.38919 0.10163 0.09843 0.0
N1157 N 0.43985 0.1491 0.2267 0.0
C1158 C 0.39633 0.11228 0.13228 0.0
C1159 C 0.42278 0.13658 0.19804 0.0
N1160 N 0.40202 0.15676 0.1144 0.0
N1161 N 0.40371 0.09076 0.22357 0.0
H1162 H 0.45173 0.17062 0.22898 0.0
H1163 H 0.44428 0.13836 0.24604 0.0
H1164 H 0.39194 0.06921 0.22255 0.0
H1165 H 0.40998 0.09858 0.24936 0.0
H1166 H 0.38915 0.14843 0.09207 0.0
H1167 H 0.40934 0.17789 0.11826 0.0
H1168 H 0.39221 0.11386 0.07602 0.0
H1169 H 0.38307 0.08108 0.09206 0.0
C1170 C 0.98635 0.3042 0.20705 0.0
C1171 C 0.96688 0.29512 0.17845 0.0
C1172 C 1.003 0.32465 0.13671 0.0
C1173 C 0.02233 0.335 0.1656 0.0
N1174 N 0.03456 0.33015 0.22595 0.0
N1175 N 0.9576 0.28958 0.11539 0.0
C1176 C 1.01466 0.32321 0.20009 0.0
C1177 C 0.97568 0.30294 0.14298 0.0
N1178 N 0.9775 0.29564 0.24096 0.0
N1179 N 1.01004 0.3369 0.10394 0.0
H1180 H 0.9375 0.27352 0.11963 0.0
H1181 H 0.9632 0.29239 0.08865 0.0
H1182 H 0.02968 0.35303 0.09804 0.0
H1183 H 0.99589 0.33248 0.08313 0.0
H1184 H 0.98983 0.30374 0.26372 0.0
H1185 H 0.95722 0.28073 0.24645 0.0
H1186 H 0.03092 0.32085 0.25089 0.0
H1187 H 0.05542 0.34379 0.22134 0.0
C1188 C 0.31596 0.27845 0.65479 0.0
C1189 C 0.30988 0.26881 0.6902 0.0
C1190 C 0.30455 0.30853 0.70659 0.0
C1191 C 0.31483 0.32037 0.67272 0.0
N1192 N 0.33307 0.31784 0.61531 0.0
N1193 N 0.3 0.2746 0.75075 0.0
C1194 C 0.32079 0.30547 0.64663 0.0
C1195 C 0.3043 0.28369 0.71631 0.0
N1196 N 0.31761 0.26178 0.62926 0.0
N1197 N 0.29463 0.32085 0.72912 0.0
H1198 H 0.29901 0.25603 0.75824 0.0
H1199 H 0.29911 0.28616 0.77209 0.0
H1200 H 0.29396 0.33874 0.72234 0.0
H1201 H 0.28473 0.312 0.75291 0.0
H1202 H 0.31936 0.26627 0.60211 0.0
H1203 H 0.31478 0.24217 0.63508 0.0
H1204 H 0.34072 0.30914 0.59723 0.0
H1205 H 0.33777 0.33785 0.60838 0.0
C1206 C 0.81416 0.13628 0.61805 0.0
C1207 C 0.83239 0.13713 0.6455 0.0
C1208 C 0.80276 0.08682 0.65446 0.0
C1209 C 0.78381 0.08622 0.62843 0.0
N1210 N 0.76915 0.11061 0.58868 0.0
N1211 N 0.84138 0.11418 0.69431 0.0
C1212 C 0.78885 0.11105 0.61114 0.0
C1213 C 0.82587 0.11264 0.66495 0.0
N1214 N 0.8216 0.15919 0.59754 0.0
N1215 N 0.79929 0.06248 0.66821 0.0
H1216 H 0.85846 0.13254 0.70298 0.0
H1217 H 0.83586 0.09797 0.71216 0.0
H1218 H 0.78261 0.04314 0.66145 0.0
H1219 H 0.81407 0.06111 0.68396 0.0
H1220 H 0.8109 0.15918 0.57458 0.0
H1221 H 0.83969 0.17796 0.60214 0.0
H1222 H 0.76998 0.12836 0.5782 0.0
H1223 H 0.75087 0.09245 0.58237 0.0
C1224 C 0.98616 0.74729 0.66695 0.0
C1225 C 0.9678 0.74582 0.63958 0.0
C1226 C 1.00202 0.75158 0.59474 0.0
C1227 C 0.02187 0.75757 0.62248 0.0
N1228 N 0.03374 0.76604 0.6854 0.0
N1229 N 0.95828 0.74808 0.57724 0.0
C1230 C 1.01414 0.75646 0.65876 0.0
C1231 C 0.97566 0.74821 0.60333 0.0
N1232 N 0.97679 0.73991 0.70091 0.0
N1233 N 1.00798 0.74821 0.56043 0.0
H1234 H 0.93841 0.74436 0.58262 0.0
H1235 H 0.96406 0.75306 0.55075 0.0
H1236 H 0.02675 0.74985 0.5533 0.0
H1237 H 0.99346 0.74128 0.53967 0.0
H1238 H 0.98852 0.73807 0.72146 0.0
H1239 H 0.95623 0.73262 0.70734 0.0
H1240 H 0.02949 0.76832 0.71181 0.0
H1241 H 0.05479 0.77465 0.68076 0.0
C1242 C 0.92139 0.68395 0.25178 0.0
C1243 C 0.9283 0.7104 0.23765 0.0
C1244 C 0.97538 0.72784 0.2606 0.0
C1245 C 0.97011 0.70037 0.26571 0.0
N1246 N 0.93725 0.6513 0.26393 0.0
N1247 N 0.964 0.75768 0.22631 0.0
C1248 C 0.94277 0.67809 0.26119 0.0
C1249 C 0.95582 0.73259 0.24178 0.0
N1250 N 0.89436 0.6646 0.25684 0.0
N1251 N 0.99859 0.74935 0.27524 0.0
H1252 H 0.95088 0.76216 0.21137 0.0
H1253 H 0.9846 0.77333 0.22584 0.0
H1254 H 1.01132 0.74581 0.29247 0.0
H1255 H 1.0027 0.76983 0.27454 0.0
H1256 H 0.88827 0.64583 0.26967 0.0
H1257 H 0.8783 0.66879 0.25213 0.0
H1258 H 0.91816 0.63439 0.25697 0.0
H1259 H 0.95225 0.64596 0.27034 0.0
C1260 C 0.44985 0.35227 0.28054 0.0
C1261 C 0.45623 0.34781 0.24561 0.0
C1262 C 0.45544 0.38935 0.225 0.0
C1263 C 0.44633 0.3922 0.25923 0.0
N1264 N 0.43041 0.37368 0.31801 0.0
N1265 N 0.46112 0.35917 0.1832 0.0
C1266 C 0.44243 0.37298 0.28669 0.0
C1267 C 0.45803 0.36561 0.21742 0.0
N1268 N 0.45139 0.33684 0.30792 0.0
N1269 N 0.46268 0.40981 0.20024 0.0
H1270 H 0.4626 0.34169 0.17673 0.0
H1271 H 0.45983 0.36971 0.16095 0.0
H1272 H 0.46148 0.4277 0.20489 0.0
H1273 H 0.47216 0.41026 0.17627 0.0
H1274 H 0.44969 0.34076 0.3347 0.0
H1275 H 0.45689 0.3216 0.30394 0.0
H1276 H 0.42457 0.35857 0.33758 0.0
H1277 H 0.42379 0.38792 0.32314 0.0
C1278 C 0.79132 0.16911 0.21599 0.0
C1279 C 0.81282 0.18195 0.24195 0.0
C1280 C 0.78514 0.14564 0.28501 0.0
C1281 C 0.76363 0.13289 0.25899 0.0
N1282 N 0.74882 0.1287 0.19714 0.0
N1283 N 0.83285 0.18028 0.29846 0.0
C1284 C 0.76765 0.14327 0.2236 0.0
C1285 C 0.81061 0.16938 0.27559 0.0
N1286 N 0.79285 0.18232 0.18458 0.0
N1287 N 0.78095 0.13524 0.31886 0.0
H1288 H 0.85149 0.19792 0.29243 0.0
H1289 H 0.83365 0.1709 0.32212 0.0
H1290 H 0.76338 0.11684 0.32589 0.0
H1291 H 0.79428 0.14521 0.34031 0.0
H1292 H 0.77633 0.1761 0.16677 0.0
H1293 H 0.81011 0.2008 0.17733 0.0
H1294 H 0.75245 0.13345 0.17016 0.0
H1295 H 0.73029 0.11055 0.20138 0.0
C1296 C 1.01854 0.48795 0.89075 0.0
C1297 C 1.00691 0.47176 0.92157 0.0
C1298 C 1.00923 0.43302 0.8932 0.0
C1299 C 0.02396 0.45038 0.86414 0.0
N1300 N 0.04754 0.49656 0.83938 0.0
N1301 N 0.9952 0.43053 0.95488 0.0
C1302 C 0.02984 0.47844 0.8639 0.0
C1303 C 1.00331 0.44469 0.92353 0.0
N1304 N 1.01826 0.51226 0.88687 0.0
N1305 N 0.99983 0.40516 0.89129 0.0
H1306 H 0.99099 0.43868 0.97753 0.0
H1307 H 0.99501 0.41192 0.95932 0.0
H1308 H 1.00274 0.3956 0.86908 0.0
H1309 H 0.98675 0.39116 0.91012 0.0
H1310 H 0.02391 0.52373 0.86342 0.0
H1311 H 1.00973 0.51947 0.90588 0.0
H1312 H 0.0546 0.51779 0.84022 0.0
H1313 H 0.05761 0.49108 0.8205 0.0
C1314 C 0.5889 0.59463 0.87393 0.0
C1315 C 0.58631 0.61272 0.8983 0.0
C1316 C 0.6252 0.65279 0.8703 0.0
C1317 C 0.62662 0.63488 0.84429 0.0
N1318 N 0.60768 0.58923 0.81817 0.0
N1319 N 0.59992 0.65881 0.91869 0.0
C1320 C 0.60802 0.60585 0.84539 0.0
C1321 C 0.60388 0.64177 0.89611 0.0
N1322 N 0.57298 0.56666 0.87831 0.0
N1323 N 0.64497 0.68019 0.87116 0.0
H1324 H 0.58564 0.65132 0.93924 0.0
H1325 H 0.60968 0.68025 0.91611 0.0
H1326 H 0.66082 0.68893 0.85272 0.0
H1327 H 0.64706 0.69388 0.89154 0.0
H1328 H 0.57573 0.55208 0.86418 0.0
H1329 H 0.55786 0.55802 0.89781 0.0
H1330 H 0.59279 0.56844 0.81525 0.0
H1331 H 0.62122 0.59669 0.79679 0.0
C1332 C 0.52475 0.09977 0.87952 0.0
C1333 C 0.51661 0.10351 0.91371 0.0
C1334 C 0.47008 0.08883 0.89104 0.0
C1335 C 0.47709 0.08129 0.85818 0.0
N1336 N 0.51052 0.07799 0.8211 0.0
N1337 N 0.48203 0.10084 0.95356 0.0
C1338 C 0.50444 0.08679 0.85207 0.0
C1339 C 0.48945 0.09812 0.9198 0.0
N1340 N 0.55193 0.10831 0.87376 0.0
N1341 N 0.44511 0.08762 0.89438 0.0
H1342 H 0.49618 0.10852 0.97479 0.0
H1343 H 0.46175 0.0941 0.96097 0.0
H1344 H 0.43059 0.08125 0.87358 0.0
H1345 H 0.43973 0.09521 0.91649 0.0
H1346 H 0.55998 0.10864 0.84872 0.0
H1347 H 0.56691 0.1172 0.89394 0.0
H1348 H 0.52921 0.07863 0.81666 0.0
H1349 H 0.49622 0.06825 0.80043 0.0
C1350 C 0.45185 0.02567 0.6275 0.0
C1351 C 0.46655 1.01105 0.62996 0.0
C1352 C 0.45218 0.99906 0.69185 0.0
C1353 C 0.44103 1.01717 0.69099 0.0
N1354 N 0.43268 0.0502 0.659 0.0
N1355 N 0.48294 0.98552 0.66429 0.0
C1356 C 0.44111 0.03088 0.65894 0.0
C1357 C 0.46708 0.99792 0.662 0.0
N1358 N 0.44833 0.03458 0.5949 0.0
N1359 N 0.44794 0.98254 0.72082 0.0
H1360 H 0.49379 0.98416 0.6426 0.0
H1361 H 0.48681 0.97829 0.68809 0.0
H1362 H 0.43658 0.98243 0.74283 0.0
H1363 H 0.4534 0.96712 0.72166 0.0
H1364 H 0.43576 0.04326 0.59049 0.0
H1365 H 0.45613 0.03093 0.57156 0.0
H1366 H 0.43516 0.06301 0.63742 0.0
H1367 H 0.42525 0.0552 0.68158 0.0
C1368 C 0.09453 0.49435 0.63379 0.0
C1369 C 0.09607 0.52028 0.63994 0.0
C1370 C 0.08184 0.50669 0.70195 0.0
C1371 C 0.08336 0.48201 0.69698 0.0
N1372 N 0.09735 0.45581 0.65949 0.0
N1373 N 0.09638 0.55337 0.68151 0.0
C1374 C 0.09149 0.47682 0.66323 0.0
C1375 C 0.09135 0.52711 0.6746 0.0
N1376 N 0.09468 0.48585 0.59962 0.0
N1377 N 0.06966 0.50998 0.73161 0.0
H1378 H 0.10359 0.56875 0.66207 0.0
H1379 H 0.09597 0.56052 0.70711 0.0
H1380 H 0.06072 0.49497 0.75127 0.0
H1381 H 0.06564 0.52629 0.73477 0.0
H1382 H 0.09075 0.46594 0.59321 0.0
H1383 H 0.09587 0.49772 0.57744 0.0
H1384 H 0.10576 0.45275 0.63638 0.0
H1385 H 0.09671 0.44335 0.68068 0.0
C1386 C 0.62763 0.61001 0.60933 0.0
C1387 C 0.60234 0.5859 0.61729 0.0
C1388 C 0.60555 0.6022 0.679 0.0
C1389 C 0.63277 0.62389 0.67246 0.0
N1390 N 0.67084 0.64779 0.63222 0.0
N1391 N 0.56675 0.55842 0.65909 0.0
C1392 C 0.64398 0.62799 0.63767 0.0
C1393 C 0.59103 0.58197 0.65192 0.0
N1394 N 0.63615 0.61544 0.57473 0.0
N1395 N 0.59348 0.60135 0.71091 0.0
H1396 H 0.55479 0.54406 0.63933 0.0
H1397 H 0.55905 0.55246 0.6847 0.0
H1398 H 0.60348 0.6161 0.73109 0.0
H1399 H 0.57285 0.58761 0.71632 0.0
H1400 H 0.65306 0.63392 0.56659 0.0
H1401 H 0.62491 0.60236 0.55354 0.0
H1402 H 0.68126 0.64958 0.60863 0.0
H1403 H 0.68353 0.66134 0.65221 0.0
C1404 C 0.99349 0.60499 0.14158 0.0
C1405 C 1.00606 0.58819 0.14233 0.0
C1406 C 0.03222 0.61235 0.19676 0.0
C1407 C 1.02001 0.62955 0.19568 0.0
N1408 N 0.9908 0.64422 0.16641 0.0
N1409 N 0.03827 0.57626 0.16832 0.0
C1410 C 1.00103 0.62635 0.1679 0.0
C1411 C 0.02571 0.59204 0.16934 0.0
N1412 N 0.97429 0.60027 0.11548 0.0
N1413 N 0.04944 0.61501 0.22466 0.0
H1414 H 0.03271 0.56027 0.1498 0.0
H1415 H 0.05479 0.57941 0.18466 0.0
H1416 H 0.05552 0.63036 0.24426 0.0
H1417 H 0.05698 0.60152 0.22952 0.0
H1418 H 0.96256 0.61009 0.11406 0.0
H1419 H 0.96929 0.58544 0.09539 0.0
H1420 H 0.97831 0.64461 0.14588 0.0
H1421 H 0.99588 0.6599 0.18531 0.0
C1422 C 0.49101 0.55453 0.16338 0.0
C1423 C 0.47507 0.54446 0.13158 0.0
C1424 C 0.44094 0.50288 0.1627 0.0
C1425 C 0.4569 0.51301 0.19471 0.0
N1426 N 0.49373 0.55068 0.22772 0.0
N1427 N 0.43324 0.51224 0.10135 0.0
C1428 C 0.48095 0.53956 0.1957 0.0
C1429 C 0.44935 0.51967 0.13155 0.0
N1430 N 0.5163 0.57793 0.16216 0.0
N1431 N 0.41876 0.47661 0.16151 0.0
H1432 H 0.43944 0.52412 0.07819 0.0
H1433 H 0.41312 0.49572 0.09994 0.0
H1434 H 0.41201 0.46364 0.18364 0.0
H1435 H 0.40802 0.46685 0.13817 0.0
H1436 H 0.53059 0.58477 0.18316 0.0
H1437 H 0.52361 0.58983 0.13914 0.0
H1438 H 0.50983 0.57095 0.23086 0.0
H1439 H 0.48669 0.54036 0.2519 0.0
C1440 C 0.60345 0.08494 0.16902 0.0
C1441 C 0.6185 0.10605 0.1441 0.0
C1442 C 0.66181 0.11727 0.17472 0.0
C1443 C 0.64699 0.09413 0.19728 0.0
N1444 N 0.60401 0.05467 0.21521 0.0
N1445 N 0.66157 0.14052 0.11991 0.0
C1446 C 0.61785 0.07754 0.19422 0.0
C1447 C 0.64761 0.12188 0.14616 0.0
N1448 N 0.57531 0.07257 0.16892 0.0
N1449 N 0.68931 0.13493 0.18087 0.0
H1450 H 0.65149 0.14443 0.09899 0.0
H1451 H 0.68294 0.15067 0.11748 0.0
H1452 H 0.70039 0.13194 0.20131 0.0
H1453 H 0.7007 0.15359 0.16751 0.0
H1454 H 0.56287 0.05871 0.18827 0.0
H1455 H 0.56448 0.07809 0.15092 0.0
H1456 H 0.58326 0.04005 0.21156 0.0
H1457 H 0.61361 0.04927 0.2352 0.0
C1458 C 0.60851 0.08497 0.40247 0.0
C1459 C 0.59123 0.0579 0.41552 0.0
C1460 C 0.61299 0.03944 0.37621 0.0
C1461 C 0.63165 0.06682 0.36486 0.0
N1462 N 0.64994 0.11618 0.37036 0.0
N1463 N 0.58096 1.01068 0.42151 0.0
C1464 C 0.63042 0.08982 0.37924 0.0
C1465 C 0.59462 0.03548 0.4043 0.0
N1466 N 0.60299 0.10565 0.41098 0.0
N1467 N 0.61231 1.01714 0.35964 0.0
H1468 H 0.56782 1.00743 0.4428 0.0
H1469 H 0.58469 0.99431 0.41708 0.0
H1470 H 0.62568 0.01899 0.33928 0.0
H1471 H 0.59711 0.99673 0.3642 0.0
H1472 H 0.61303 0.12528 0.39965 0.0
H1473 H 0.58663 0.10243 0.42727 0.0
H1474 H 0.65177 0.13383 0.3827 0.0
H1475 H 0.66565 0.12043 0.35233 0.0
C1476 C 0.06732 0.61009 0.38122 0.0
C1477 C 0.07339 0.6212 0.41632 0.0
C1478 C 0.06431 0.65851 0.39767 0.0
C1479 C 0.05673 0.64651 0.36293 0.0
N1480 N 0.04594 0.60798 0.32354 0.0
N1481 N 0.0734 0.65301 0.45986 0.0
C1482 C 0.05692 0.6215 0.35518 0.0
C1483 C 0.07049 0.64449 0.4251 0.0
N1484 N 0.07169 0.58864 0.37287 0.0
N1485 N 0.06699 0.684 0.40402 0.0
H1486 H 0.07836 0.64345 0.48025 0.0
H1487 H 0.06877 0.66796 0.46894 0.0
H1488 H 0.06298 0.69507 0.38466 0.0
H1489 H 0.07536 0.69526 0.42751 0.0
H1490 H 0.07067 0.58136 0.34696 0.0
H1491 H 0.07808 0.57919 0.39187 0.0
H1492 H 0.04314 0.58845 0.31741 0.0
H1493 H 0.03717 0.61513 0.30456 0.0
C1494 C 0.52247 0.5292 0.41176 0.0
C1495 C 0.52237 0.50886 0.43479 0.0
C1496 C 0.48751 0.47202 0.39672 0.0
C1497 C 0.48592 0.49218 0.37499 0.0
N1498 N 0.49777 0.53988 0.3664 0.0
N1499 N 0.49901 0.4614 0.45476 0.0
C1500 C 0.50223 0.52081 0.38382 0.0
C1501 C 0.50304 0.48044 0.42901 0.0
N1502 N 0.54249 0.55632 0.41563 0.0
N1503 N 0.47577 0.445 0.38565 0.0
H1504 H 0.50956 0.46676 0.47921 0.0
H1505 H 0.48307 0.44088 0.45345 0.0
H1506 H 0.46552 0.43779 0.36127 0.0
H1507 H 0.47896 0.43029 0.39888 0.0
H1508 H 0.54549 0.57159 0.39723 0.0
H1509 H 0.55749 0.56321 0.43585 0.0
H1510 H 0.50713 0.56066 0.37401 0.0
H1511 H 0.4827 0.53446 0.3465 0.0
C1512 C 0.73484 0.86215 0.24793 0.0
C1513 C 0.70924 0.85635 0.26272 0.0
C1514 C 0.68477 0.82189 0.21491 0.0
C1515 C 0.71027 0.82627 0.20119 0.0
N1516 N 0.75945 0.84605 0.21058 0.0
N1517 N 0.66032 0.82463 0.26638 0.0
C1518 C 0.73532 0.84516 0.21938 0.0
C1519 C 0.68438 0.83432 0.24805 0.0
N1520 N 0.75865 0.88437 0.26035 0.0
N1521 N 0.66092 0.80718 0.19545 0.0
H1522 H 0.65937 0.83237 0.2914 0.0
H1523 H 0.6421 0.80689 0.25873 0.0
H1524 H 0.66024 0.79891 0.17022 0.0
H1525 H 0.6423 0.80584 0.20258 0.0
H1526 H 0.77762 0.89166 0.248 0.0
H1527 H 0.75903 0.89673 0.2816 0.0
H1528 H 0.77776 0.85732 0.22513 0.0
H1529 H 0.76063 0.83332 0.19102 0.0
C1530 C 0.29592 0.9752 0.28706 0.0
C1531 C 0.28132 0.94589 0.29116 0.0
C1532 C 0.30321 0.941 0.23704 0.0
C1533 C 0.31789 0.97035 0.23334 0.0
N1534 N 0.33485 1.01513 0.26103 0.0
N1535 N 0.2755 0.90134 0.27484 0.0
C1536 C 0.31636 0.98734 0.26042 0.0
C1537 C 0.28673 0.92897 0.26794 0.0
N1538 N 0.28943 0.99151 0.30755 0.0
N1539 N 0.30335 0.92453 0.20998 0.0
H1540 H 0.26276 0.8919 0.29658 0.0
H1541 H 0.28067 0.88833 0.26096 0.0
H1542 H 0.3148 0.93239 0.18687 0.0
H1543 H 0.29058 0.90311 0.20917 0.0
H1544 H 0.29688 1.01249 0.30268 0.0
H1545 H 0.27516 0.98377 0.32807 0.0
H1546 H 0.33654 0.02819 0.28209 0.0
H1547 H 0.35055 0.02457 0.24239 0.0
C1548 C 0.16898 0.45385 0.29168 0.0
C1549 C 0.19661 0.4623 0.28279 0.0
C1550 C 0.1837 0.45124 0.21988 0.0
C1551 C 0.15588 0.44268 0.22869 0.0
N1552 N 0.12265 0.44068 0.27094 0.0
N1553 N 0.23178 0.47424 0.23935 0.0
C1554 C 0.14867 0.44545 0.26406 0.0
C1555 C 0.20442 0.46285 0.247 0.0
N1556 N 0.16222 0.45305 0.32677 0.0
N1557 N 0.19001 0.4467 0.18623 0.0
H1558 H 0.24711 0.48231 0.2592 0.0
H1559 H 0.23948 0.47777 0.21355 0.0
H1560 H 0.17544 0.43787 0.16565 0.0
H1561 H 0.2093 0.44977 0.17914 0.0
H1562 H 0.14209 0.4444 0.33583 0.0
H1563 H 0.17698 0.46003 0.34731 0.0
H1564 H 0.11667 0.4446 0.29549 0.0
H1565 H 0.10737 0.43472 0.25118 0.0
C1566 C 0.18611 0.44015 0.02796 0.0
C1567 C 0.19227 0.41889 0.02041 0.0
C1568 C 0.15652 0.38787 0.0616 0.0
C1569 C 0.15196 0.40998 0.0713 0.0
N1570 N 0.16774 0.45918 0.07065 0.0
N1571 N 0.18744 0.37446 0.03417 0.0
C1572 C 0.16825 0.43674 0.05644 0.0
C1573 C 0.17865 0.39326 0.03848 0.0
N1574 N 0.19659 0.4632 1.00705 0.0
N1575 N 0.13912 0.3616 0.07325 0.0
H1576 H 0.2039 0.37818 0.01775 0.0
H1577 H 0.18016 0.35646 0.04917 0.0
H1578 H 0.12244 0.35681 0.08978 0.0
H1579 H 0.13978 0.34422 0.06413 0.0
H1580 H 0.1905 0.47812 1.00901 0.0
H1581 H 0.20936 0.46606 0.98546 0.0
H1582 H 0.18114 0.47948 0.06286 0.0
H1583 H 0.15616 0.45797 0.09293 0.0
C1584 C 0.73654 0.84948 0.95888 0.0
C1585 C 0.71435 0.85383 0.94895 0.0
C1586 C 0.68765 0.82353 0.9986 0.0
C1587 C 0.7118 0.82375 1.0123 0.0
N1588 N 0.76134 0.84336 1.0079 0.0
N1589 N 0.66896 0.84636 0.96113 0.0
C1590 C 0.73678 0.83826 0.99293 0.0
C1591 C 0.68983 0.84108 0.96919 0.0
N1592 N 0.75757 0.85612 0.93561 0.0
N1593 N 0.66245 0.80577 1.0125 0.0
H1594 H 0.66969 0.85835 0.93929 0.0
H1595 H 0.65187 0.8403 0.97733 0.0
H1596 H 0.6597 0.79162 0.03249 0.0
H1597 H 0.64398 0.80299 1.00156 0.0
H1598 H 0.77301 0.85104 0.94012 0.0
H1599 H 0.75772 0.86375 0.91009 0.0
H1600 H 0.78028 0.85598 0.99594 0.0
H1601 H 0.76336 0.83822 0.03406 0.0
C1602 C 0.29272 0.96862 0.98992 0.0
C1603 C 0.26456 0.94962 0.99626 0.0
C1604 C 0.27339 0.95436 0.06093 0.0
C1605 C 0.30191 0.97225 0.05453 0.0
N1606 N 0.33966 0.99308 1.01332 0.0
N1607 N 0.22822 0.92139 0.0363 0.0
C1608 C 0.31185 0.97853 0.01908 0.0
C1609 C 0.25494 0.94163 0.03142 0.0
N1610 N 0.30092 0.97756 0.95592 0.0
N1611 N 0.26383 0.95039 0.09511 0.0
H1612 H 0.21429 0.91229 1.01503 0.0
H1613 H 0.22033 0.91234 0.06086 0.0
H1614 H 0.27675 0.95924 0.11733 0.0
H1615 H 0.24299 0.93993 0.10142 0.0
H1616 H 0.32055 0.99342 0.94954 0.0
H1617 H 0.28731 0.97041 0.93412 0.0
H1618 H 0.34842 0.99581 0.98821 0.0
H1619 H 0.35429 1.00063 0.034 0.0
C1620 C 0.68338 0.92477 0.47276 0.0
C1621 C 0.70701 0.92401 0.4604 0.0
C1622 C 0.73521 0.96124 0.50383 0.0
C1623 C 0.71083 0.9582 0.52017 0.0
N1624 N 0.66106 0.93127 0.52371 0.0
N1625 N 0.75564 0.94015 0.46696 0.0
C1626 C 0.68474 0.93846 0.50549 0.0
C1627 C 0.73307 0.94199 0.47659 0.0
N1628 N 0.65959 0.91289 0.45274 0.0
N1629 N 0.76036 0.98316 0.51304 0.0
H1630 H 0.75489 0.92668 0.447 0.0
H1631 H 0.77451 0.95049 0.48056 0.0
H1632 H 0.7628 0.99833 0.53143 0.0
H1633 H 0.77843 0.98788 0.49967 0.0
H1634 H 0.64256 0.91503 0.45895 0.0
H1635 H 0.65813 0.90388 0.42776 0.0
H1636 H 0.64185 0.91511 0.51553 0.0
H1637 H 0.66089 0.93885 0.54912 0.0
C1638 C 0.18175 0.87748 0.49769 0.0
C1639 C 0.18726 0.86648 0.46661 0.0
C1640 C 0.16374 0.81998 0.49346 0.0
C1641 C 0.15473 0.83046 0.52184 0.0
N1642 N 0.15469 0.86909 0.55127 0.0
N1643 N 0.18364 0.82717 0.4344 0.0
C1644 C 0.16371 0.85923 0.52409 0.0
C1645 C 0.17873 0.83776 0.46462 0.0
N1646 N 0.19455 0.90561 0.50229 0.0
N1647 N 0.15785 0.79296 0.49402 0.0
H1648 H 0.196 0.83958 0.41391 0.0
H1649 H 0.17469 0.80605 0.42892 0.0
H1650 H 0.14572 0.779 0.51357 0.0
H1651 H 0.16635 0.78474 0.47652 0.0
H1652 H 0.19362 0.91526 0.52565 0.0
H1653 H 0.2085 0.9194 0.48388 0.0
H1654 H 0.15766 0.88912 0.55214 0.0
H1655 H 0.14278 0.85674 0.5722 0.0
C1656 C 0.26409 0.41831 0.53829 0.0
C1657 C 0.28159 0.43712 0.51243 0.0
C1658 C 0.32223 0.44098 0.54324 0.0
C1659 C 0.30459 0.42059 0.56786 0.0
N1660 N 0.25877 0.38678 0.58627 0.0
N1661 N 0.32628 0.46364 0.48644 0.0
C1662 C 0.27547 0.40846 0.56481 0.0
C1663 C 0.3104 0.44765 0.51379 0.0
N1664 N 0.23662 0.4102 0.53747 0.0
N1665 N 0.35017 0.45496 0.54896 0.0
H1666 H 0.31815 0.46953 0.46513 0.0
H1667 H 0.34698 0.46941 0.48351 0.0
H1668 H 0.35971 0.45113 0.57056 0.0
H1669 H 0.36383 0.47199 0.53404 0.0
H1670 H 0.22296 0.39867 0.55748 0.0
H1671 H 0.22782 0.41676 0.51773 0.0
H1672 H 0.23742 0.37529 0.58317 0.0
H1673 H 0.26642 0.37868 0.60553 0.0
C1674 C 0.32963 0.44938 0.80592 0.0
C1675 C 0.30799 0.45532 0.80037 0.0
C1676 C 0.31209 0.45288 0.73583 0.0
C1677 C 0.33004 0.442 0.74163 0.0
N1678 N 0.35684 0.43023 0.78151 0.0
N1679 N 0.27752 0.46201 0.76098 0.0
C1680 C 0.33963 0.44091 0.77648 0.0
C1681 C 0.29929 0.45746 0.76551 0.0
N1682 N 0.34 0.45137 0.83968 0.0
N1683 N 0.30747 0.45886 0.70192 0.0
H1684 H 0.26791 0.46571 0.78232 0.0
H1685 H 0.26794 0.46049 0.7364 0.0
H1686 H 0.31708 0.45612 0.67976 0.0
H1687 H 0.2964 0.46897 0.69611 0.0
H1688 H 0.35715 0.44933 0.84574 0.0
H1689 H 0.33253 0.45736 0.86141 0.0
H1690 H 0.36221 0.42602 0.80648 0.0
H1691 H 0.36488 0.4243 0.7604 0.0
C1692 C 0.68672 0.91835 0.73989 0.0
C1693 C 0.70438 0.93376 0.76892 0.0
C1694 C 0.72108 0.97652 0.73366 0.0
C1695 C 0.70552 0.96093 0.70334 0.0
N1696 N 0.67668 0.91607 0.67615 0.0
N1697 N 0.74352 0.97663 0.78936 0.0
C1698 C 0.68909 0.93155 0.70609 0.0
C1699 C 0.723 0.96259 0.7646 0.0
N1700 N 0.66712 0.89129 0.74485 0.0
N1701 N 0.73309 1.00478 0.73376 0.0
H1702 H 0.74649 0.96716 0.81166 0.0
H1703 H 0.75944 0.99687 0.78567 0.0
H1704 H 0.73123 1.01591 0.71253 0.0
H1705 H 0.74225 1.01696 0.75643 0.0
H1706 H 0.65162 0.87972 0.72618 0.0
H1707 H 0.66509 0.88103 0.7689 0.0
H1708 H 0.66687 0.89451 0.67553 0.0
H1709 H 0.67824 0.92481 0.65106 0.0
C1710 C 0.17258 0.83919 0.74828 0.0
C1711 C 0.17398 0.86525 0.75252 0.0
C1712 C 0.14947 0.85795 0.69528 0.0
C1713 C 0.14478 0.83031 0.69363 0.0
N1714 N 0.14602 0.79268 0.7246 0.0
N1715 N 0.15895 0.89704 0.73352 0.0
C1716 C 0.15461 0.82031 0.7219 0.0
C1717 C 0.16092 0.87389 0.72703 0.0
N1718 N 0.18946 0.83294 0.76806 0.0
N1719 N 0.14459 0.86969 0.66605 0.0
H1720 H 0.16662 0.90874 0.75692 0.0
H1721 H 0.14735 0.90289 0.71745 0.0
H1722 H 0.138 0.85961 0.64144 0.0
H1723 H 0.15012 0.89056 0.66508 0.0
H1724 H 0.19078 0.81508 0.76375 0.0
H1725 H 0.20452 0.84705 0.78561 0.0
H1726 H 0.1508 0.78429 0.74661 0.0
H1727 H 0.13152 0.77779 0.7072 0.0
C1728 C 0.3627 0.1844 0.61513 0.0
C1729 C 0.38581 0.20559 0.634 0.0
C1730 C 0.41643 0.19763 0.59472 0.0
C1731 C 0.39339 0.17957 0.5727 0.0
N1732 N 0.34493 0.16086 0.55862 0.0
N1733 N 0.4351 0.23439 0.63962 0.0
C1734 C 0.3666 0.17427 0.58207 0.0
C1735 C 0.41285 0.21272 0.62329 0.0
N1736 N 0.33694 0.17313 0.62941 0.0
N1737 N 0.4415 0.19949 0.58946 0.0
H1738 H 0.43319 0.24549 0.66084 0.0
H1739 H 0.4552 0.24261 0.63045 0.0
H1740 H 0.44477 0.18813 0.56985 0.0
H1741 H 0.45831 0.21014 0.60676 0.0
H1742 H 0.31982 0.15581 0.61845 0.0
H1743 H 0.33327 0.17897 0.65435 0.0
H1744 H 0.32563 0.15899 0.5628 0.0
H1745 H 0.3469 0.15442 0.53322 0.0
C1746 C 0.99371 0.28485 0.59376 0.0
C1747 C 0.97077 0.25862 0.58516 0.0
C1748 C 0.96834 0.27483 0.52522 0.0
C1749 C 0.99276 0.3004 0.53273 0.0
N1750 N 0.03212 0.3272 0.57157 0.0
N1751 N 0.93952 0.22658 0.54143 0.0
C1752 C 1.00649 0.30469 0.56629 0.0
C1753 C 0.95924 0.25298 0.55034 0.0
N1754 N 1.00243 0.29128 0.62844 0.0
N1755 N 0.95277 0.27193 0.49535 0.0
H1756 H 0.93255 0.21029 0.55957 0.0
H1757 H 0.93208 0.2204 0.51545 0.0
H1758 H 0.95767 0.2878 0.47711 0.0
H1759 H 0.93341 0.25472 0.49053 0.0
H1760 H 1.01716 0.31111 0.6369 0.0
H1761 H 0.99316 0.27743 0.64931 0.0
H1762 H 0.04413 0.32994 0.59435 0.0
H1763 H 0.04259 0.3417 0.55172 0.0
C1764 C 0.83031 0.7669 0.56487 0.0
C1765 C 0.85565 0.76709 0.56243 0.0
C1766 C 0.8443 0.749 0.50121 0.0
C1767 C 0.81889 0.74908 0.50343 0.0
N1768 N 0.79081 0.76437 0.5337 0.0
N1769 N 0.88974 0.76414 0.52732 0.0
C1770 C 0.81288 0.76002 0.53419 0.0
C1771 C 0.86364 0.76019 0.53006 0.0
N1772 N 0.82246 0.77212 0.59706 0.0
N1773 N 0.84916 0.73653 0.47287 0.0
H1774 H 0.90394 0.77184 0.54851 0.0
H1775 H 0.89803 0.76209 0.5035 0.0
H1776 H 0.83547 0.72765 0.45141 0.0
H1777 H 0.86588 0.7331 0.47175 0.0
H1778 H 0.80283 0.76915 0.60186 0.0
H1779 H 0.83519 0.77778 0.61974 0.0
H1780 H 0.7867 0.77455 0.55406 0.0
H1781 H 0.77809 0.76017 0.51127 0.0
C1782 C 0.79462 0.66079 0.29466 0.0
C1783 C 0.79021 0.67139 0.26252 0.0
C1784 C 0.76717 0.69243 0.29492 0.0
C1785 C 0.77226 0.68239 0.32741 0.0
N1786 N 0.78398 0.65108 0.35739 0.0
N1787 N 0.7676 0.69177 0.22996 0.0
C1788 C 0.78383 0.66464 0.32701 0.0
C1789 C 0.77456 0.68511 0.26205 0.0
N1790 N 0.8104 0.64828 0.29422 0.0
N1791 N 0.75711 0.71045 0.29565 0.0
H1792 H 0.77358 0.68723 0.20573 0.0
H1793 H 0.75425 0.69971 0.22708 0.0
H1794 H 0.75202 0.71685 0.31915 0.0
H1795 H 0.75543 0.72062 0.27326 0.0
H1796 H 0.81745 0.64303 0.31716 0.0
H1797 H 0.81756 0.64436 0.27048 0.0
H1798 H 0.78985 0.63597 0.35807 0.0
H1799 H 0.77586 0.65312 0.38143 0.0
C1800 C 0.39023 0.20507 0.33995 0.0
C1801 C 0.40967 0.20726 0.31416 0.0
C1802 C 0.42687 0.18481 0.35599 0.0
C1803 C 0.40623 0.18073 0.38094 0.0
N1804 N 0.36399 0.18136 0.39246 0.0
N1805 N 0.44064 0.19158 0.29421 0.0
C1806 C 0.38665 0.18926 0.37173 0.0
C1807 C 0.42606 0.19465 0.32118 0.0
N1808 N 0.37596 0.21892 0.33494 0.0
N1809 N 0.44839 0.18097 0.36601 0.0
H1810 H 0.43993 0.19773 0.26812 0.0
H1811 H 0.45081 0.18019 0.29688 0.0
H1812 H 0.45095 0.17545 0.39178 0.0
H1813 H 0.46544 0.18642 0.34995 0.0
H1814 H 0.36392 0.22079 0.35462 0.0
H1815 H 0.37775 0.23024 0.31194 0.0
H1816 H 0.34774 0.18464 0.38526 0.0
H1817 H 0.36003 0.16904 0.41502 0.0
C1818 C 0.95417 0.33519 0.30528 0.0
C1819 C 0.92563 0.32207 0.31245 0.0
C1820 C 0.93593 0.33315 0.37592 0.0
C1821 C 0.96417 0.34198 0.36951 0.0
N1822 N 0.99973 0.34809 0.32801 0.0
N1823 N 0.88867 0.30624 0.35428 0.0
C1824 C 0.97333 0.3425 0.33409 0.0
C1825 C 0.9163 0.32061 0.34769 0.0
N1826 N 0.96277 0.34059 0.27076 0.0
N1827 N 0.92804 0.33758 0.40857 0.0
H1828 H 0.87387 0.29714 0.33395 0.0
H1829 H 0.8806 0.30172 0.37991 0.0
H1830 H 0.94201 0.34776 0.42946 0.0
H1831 H 0.90816 0.3338 0.41375 0.0
H1832 H 0.98342 0.35239 0.26372 0.0
H1833 H 0.94896 0.33543 0.24928 0.0
H1834 H 1.00663 0.34618 0.30301 0.0
H1835 H 1.01419 0.35213 0.3483 0.0
C1836 C 0.40812 0.28048 0.84472 0.0
C1837 C 0.39575 0.28465 0.8136 0.0
C1838 C 0.3827 0.31396 0.84896 0.0
C1839 C 0.39627 0.3109 0.87956 0.0
N1840 N 0.42545 0.29484 0.90548 0.0
N1841 N 0.37316 0.30741 0.78532 0.0
C1842 C 0.40982 0.29499 0.87717 0.0
C1843 C 0.38381 0.30217 0.81549 0.0
N1844 N 0.41826 0.26257 0.8433 0.0
N1845 N 0.36728 0.3268 0.85234 0.0
H1846 H 0.37072 0.29723 0.76112 0.0
H1847 H 0.36793 0.32295 0.78359 0.0
H1848 H 0.36621 0.33613 0.87594 0.0
H1849 H 0.35378 0.3265 0.83271 0.0
H1850 H 0.42427 0.25572 0.86574 0.0
H1851 H 0.41945 0.25331 0.81964 0.0
H1852 H 0.43832 0.28625 0.90455 0.0
H1853 H 0.42738 0.30537 0.92937 0.0
C1854 C 0.86915 0.18313 0.84449 0.0
C1855 C 0.86122 0.16901 0.81131 0.0
C1856 C 0.8154 0.13692 0.8342 0.0
C1857 C 0.82274 0.15194 0.86697 0.0
N1858 N 0.85451 0.19221 0.90131 0.0
N1859 N 0.82543 0.13707 0.77148 0.0
C1860 C 0.84909 0.17591 0.87159 0.0
C1861 C 0.83389 0.14728 0.80525 0.0
N1862 N 0.89599 0.20317 0.84998 0.0
N1863 N 0.79154 0.11199 0.83119 0.0
H1864 H 0.83848 0.14463 0.7497 0.0
H1865 H 0.80498 0.12318 0.76455 0.0
H1866 H 0.77741 0.10324 0.85175 0.0
H1867 H 0.7869 0.09871 0.80934 0.0
H1868 H 0.904 0.21254 0.87465 0.0
H1869 H 0.91076 0.20911 0.83005 0.0
H1870 H 0.87246 0.21118 0.90502 0.0
H1871 H 0.83985 0.18797 0.92096 0.0
C1872 C 0.92895 0.73243 0.82392 0.0
C1873 C 0.94459 0.75248 0.79806 0.0
C1874 C 0.98749 0.75845 0.82492 0.0
C1875 C 0.97172 0.73695 0.84935 0.0
N1876 N 0.9275 0.70093 0.8698 0.0
N1877 N 0.98791 0.78138 0.76958 0.0
C1878 C 0.94242 0.72309 0.84809 0.0
C1879 C 0.97369 0.76474 0.79745 0.0
N1880 N 0.90126 0.72301 0.8258 0.0
N1881 N 1.01563 0.7729 0.82806 0.0
H1882 H 0.97829 0.78616 0.74895 0.0
H1883 H 1.00877 0.78861 0.76526 0.0
H1884 H 0.02657 0.76788 0.84653 0.0
H1885 H 0.0281 0.79082 0.81379 0.0
H1886 H 0.88877 0.71034 0.84603 0.0
H1887 H 0.89112 0.72983 0.80846 0.0
H1888 H 0.9062 0.68824 0.86773 0.0
H1889 H 0.93658 0.69391 0.88849 0.0
C1890 C 0.94458 0.71498 0.07512 0.0
C1891 C 0.92007 0.71471 0.06407 0.0
C1892 C 0.93004 0.71104 1.0016 0.0
C1893 C 0.95434 0.71066 1.01258 0.0
N1894 N 0.98082 0.70487 0.05974 0.0
N1895 N 0.88588 0.70575 0.01897 0.0
C1896 C 0.96036 0.71024 0.0494 0.0
C1897 C 0.91156 0.71021 0.02792 0.0
N1898 N 0.95364 0.72141 0.10969 0.0
N1899 N 0.92564 0.71442 0.96641 0.0
H1900 H 0.87225 0.70536 0.03816 0.0
H1901 H 0.87724 0.69987 0.99345 0.0
H1902 H 0.93935 0.71672 0.94633 0.0
H1903 H 0.9097 0.71762 0.95746 0.0
H1904 H 0.97297 0.72509 0.11843 0.0
H1905 H 0.9426 0.72499 0.12925 0.0
H1906 H 0.98443 0.70174 0.08622 0.0
H1907 H 0.99244 0.70085 0.0415 0.0
C1908 C 0.39187 0.30329 0.13606 0.0
C1909 C 0.38313 0.27433 0.13549 0.0
C1910 C 0.37534 0.27364 0.07008 0.0
C1911 C 0.38566 0.30274 0.07059 0.0
N1912 N 0.40701 0.34601 0.10291 0.0
N1913 N 0.36771 0.23214 0.10153 0.0
C1914 C 0.39452 0.31767 0.10334 0.0
C1915 C 0.37531 0.25963 0.10229 0.0
N1916 N 0.398 0.31738 0.16784 0.0
N1917 N 0.36445 0.2592 0.03894 0.0
H1918 H 0.36467 0.22048 0.12455 0.0
H1919 H 0.36536 0.22096 0.07819 0.0
H1920 H 0.36439 0.26876 1.015 0.0
H1921 H 0.35379 0.23767 0.03704 0.0
H1922 H 0.39996 0.33692 0.17078 0.0
H1923 H 0.40019 0.30938 0.19194 0.0
H1924 H 0.41694 0.3587 0.12487 0.0
H1925 H 0.40943 0.35729 0.07967 0.0
C1926 C 0.8044 0.20299 0.07881 0.0
C1927 C 0.8336 0.21779 0.08038 0.0
C1928 C 0.83577 0.19189 0.02867 0.0
C1929 C 0.80653 0.17579 0.02855 0.0
N1930 N 0.76262 0.16416 0.05392 0.0
N1931 N 0.87753 0.22637 0.05921 0.0
C1932 C 0.79067 0.18096 0.0536 0.0
C1933 C 0.84941 0.21231 0.0558 0.0
N1934 N 0.79001 0.21023 0.1016 0.0
N1935 N 0.85036 0.18793 1.00241 0.0
H1936 H 0.88795 0.24238 0.07777 0.0
H1937 H 0.89055 0.22159 0.04496 0.0
H1938 H 0.84108 0.17249 0.98289 0.0
H1939 H 0.8714 0.20073 0.99856 0.0
H1940 H 0.76875 0.20212 0.10036 0.0
H1941 H 0.79971 0.22571 0.12098 0.0
H1942 H 0.74988 0.16494 0.07338 0.0
H1943 H 0.75196 0.14811 0.03547 0.0
loop_
_geom_bond_atom_site_label_1
_geom_bond_atom_site_label_2
_geom_bond_distance
_geom_bond_site_symmetry_2
_ccdc_geom_bond_type
Cu0 N1 1.999 . S
Cu0 O6 1.974 1_554 S
Cu0 N11 1.985 1_554 S
Cu0 O20 1.959 . S
N1 Cu0 1.999 . S
N1 C3 1.263 . S
N1 C5 1.389 . S
N2 C3 1.358 . S
N2 C4 1.400 . S
C3 N1 1.263 . S
C3 N2 1.358 . S
C3 H9 0.930 1_455 S
C4 N2 1.400 . S
C4 C5 1.351 . S
C4 H21 0.930 . S
C5 N1 1.389 . S
C5 C4 1.351 . S
C5 H10 0.930 . S
O6 Cu0 1.974 1_556 S
O6 C16 1.282 1_455 S
C7 O8 1.235 1_455 S
C7 O20 1.263 . S
O8 C7 1.235 1_655 S
H9 C3 0.930 1_655 S
H10 C5 0.930 . S
N11 Cu0 1.985 1_556 S
N11 C13 1.335 . S
N11 C14 1.390 1_455 S
N12 C13 1.345 . S
N12 C15 1.336 1_455 S
C13 N11 1.335 . S
C13 N12 1.345 . S
C13 H18 0.930 . S
C14 N11 1.390 1_655 S
C14 C15 1.346 . S
C14 H19 0.930 . S
C15 N12 1.336 1_655 S
C15 C14 1.346 . S
C15 H22 0.929 . S
C16 O6 1.282 1_655 S
C16 O17 1.216 . S
O17 C16 1.216 . S
H18 C13 0.930 . S
H19 C14 0.930 . S
O20 Cu0 1.959 . S
O20 C7 1.263 . S
H21 C4 0.930 . S
H22 C15 0.929 . S
Cu23 N24 1.999 1_554 S
Cu23 O29 1.974 . S
Cu23 N34 1.985 . S
Cu23 O43 1.959 1_554 S
N24 Cu23 1.999 1_556 S
N24 C26 1.263 . S
N24 C28 1.389 . S
N25 C26 1.358 . S
N25 C27 1.400 . S
C26 N24 1.263 . S
C26 N25 1.358 . S
C26 H32 0.930 . S
C27 N25 1.400 . S
C27 C28 1.351 . S
C27 H44 0.930 . S
C28 N24 1.389 . S
C28 C27 1.351 . S
C28 H33 0.930 . S
O29 Cu23 1.974 . S
O29 C39 1.282 . S
C30 O31 1.261 1_556 S
C30 O43 1.251 . S
O31 C30 1.261 1_554 S
H32 C26 0.930 . S
H33 C28 0.930 . S
N34 Cu23 1.985 . S
N34 C36 1.335 . S
N34 C37 1.390 . S
N35 C36 1.345 . S
N35 C38 1.336 . S
C36 N34 1.335 . S
C36 N35 1.345 . S
C36 H41 0.930 . S
C37 N34 1.390 . S
C37 C38 1.346 . S
C37 H42 0.930 . S
C38 N35 1.336 . S
C38 C37 1.346 . S
C38 H45 0.929 . S
C39 O29 1.282 . S
C39 O40 1.216 . S
O40 C39 1.216 . S
H41 C36 0.930 . S
H42 C37 0.930 . S
O43 Cu23 1.959 1_556 S
O43 C30 1.251 . S
H44 C27 0.930 . S
H45 C38 0.929 . S
Cu46 N47 1.999 1_554 S
Cu46 O52 1.974 . S
Cu46 N57 1.985 . S
Cu46 O66 1.959 . S
N47 Cu46 1.999 1_556 S
N47 C49 1.263 . S
N47 C51 1.389 . S
N48 C49 1.358 . S
N48 C50 1.400 . S
C49 N47 1.263 . S
C49 N48 1.358 . S
C49 H55 0.930 . S
C50 N48 1.400 . S
C50 C51 1.351 . S
C50 H67 0.930 . S
C51 N47 1.389 . S
C51 C50 1.351 . S
C51 H56 0.930 . S
O52 Cu46 1.974 . S
O52 C62 1.282 . S
C53 O54 1.264 . S
C53 O66 1.251 1_556 S
O54 C53 1.264 . S
H55 C49 0.930 . S
H56 C51 0.930 . S
N57 Cu46 1.985 . S
N57 C59 1.335 . S
N57 C60 1.390 . S
N58 C59 1.345 . S
N58 C61 1.336 . S
C59 N57 1.335 . S
C59 N58 1.345 . S
C59 H64 0.930 . S
C60 N57 1.390 . S
C60 C61 1.346 . S
C60 H65 0.930 . S
C61 N58 1.336 . S
C61 C60 1.346 . S
C61 H68 0.929 . S
C62 O52 1.282 . S
C62 O63 1.216 . S
O63 C62 1.216 . S
H64 C59 0.930 . S
H65 C60 0.930 . S
O66 Cu46 1.959 . S
O66 C53 1.251 1_554 S
H67 C50 0.930 . S
H68 C61 0.929 . S
Cu69 N70 1.999 . S
Cu69 O75 1.974 . S
Cu69 N80 1.985 . S
Cu69 O89 1.959 . S
N70 Cu69 1.999 . S
N70 C72 1.263 . S
N70 C74 1.389 . S
N71 C72 1.358 . S
N71 C73 1.400 . S
C72 N70 1.263 . S
C72 N71 1.358 . S
C72 H78 0.930 . S
C73 N71 1.400 . S
C73 C74 1.351 . S
C73 H90 0.930 . S
C74 N70 1.389 . S
C74 C73 1.351 . S
C74 H79 0.930 . S
O75 Cu69 1.974 . S
O75 C85 1.282 . S
C76 O77 1.261 . S
C76 O89 1.251 . S
O77 C76 1.261 . S
H78 C72 0.930 . S
H79 C74 0.930 . S
N80 Cu69 1.985 . S
N80 C82 1.335 . S
N80 C83 1.390 . S
N81 C82 1.345 . S
N81 C84 1.336 . S
C82 N80 1.335 . S
C82 N81 1.345 . S
C82 H87 0.930 . S
C83 N80 1.390 . S
C83 C84 1.346 . S
C83 H88 0.903 1_545 S
C84 N81 1.336 . S
C84 C83 1.346 . S
C84 H91 0.929 1_545 S
C85 O75 1.282 . S
C85 O86 1.216 1_545 S
O86 C85 1.216 1_565 S
H87 C82 0.930 . S
H88 C83 0.903 1_565 S
O89 Cu69 1.959 . S
O89 C76 1.251 . S
H90 C73 0.930 . S
H91 C84 0.929 1_565 S
Cu92 N93 1.999 . S
Cu92 O98 1.974 . S
Cu92 N103 1.985 . S
Cu92 O112 1.959 . S
N93 Cu92 1.999 . S
N93 C95 1.263 . S
N93 C97 1.389 . S
N94 C95 1.358 . S
N94 C96 1.400 . S
C95 N93 1.263 . S
C95 N94 1.358 . S
C95 H101 0.930 . S
C96 N94 1.400 . S
C96 C97 1.351 . S
C96 H113 0.930 . S
C97 N93 1.389 . S
C97 C96 1.351 . S
C97 H102 0.930 . S
O98 Cu92 1.974 . S
O98 C108 1.282 . S
C99 O100 1.261 . S
C99 O112 1.251 . S
O100 C99 1.261 . S
H101 C95 0.930 . S
H102 C97 0.930 . S
N103 Cu92 1.985 . S
N103 C105 1.335 . S
N103 C106 1.390 . S
N104 C105 1.345 . S
N104 C107 1.336 . S
C105 N103 1.335 . S
C105 N104 1.345 . S
C105 H110 0.930 . S
C106 N103 1.390 . S
C106 C107 1.346 . S
C106 H111 0.930 . S
C107 N104 1.336 . S
C107 C106 1.346 . S
C107 H114 0.929 . S
C108 O98 1.282 . S
C108 O109 1.216 . S
O109 C108 1.216 . S
H110 C105 0.930 . S
H111 C106 0.930 . S
O112 Cu92 1.959 . S
O112 C99 1.251 . S
H113 C96 0.930 . S
H114 C107 0.929 . S
Cu115 N116 1.999 . S
Cu115 O121 1.974 . S
Cu115 N126 1.985 . S
Cu115 O135 1.959 . S
N116 Cu115 1.999 . S
N116 C118 1.263 . S
N116 C120 1.389 . S
N117 C118 1.358 . S
N117 C119 1.400 . S
C118 N116 1.263 . S
C118 N117 1.358 . S
C118 H124 0.930 . S
C119 N117 1.400 . S
C119 C120 1.351 . S
C119 H136 0.930 . S
C120 N116 1.389 . S
C120 C119 1.351 . S
C120 H125 0.930 . S
O121 Cu115 1.974 . S
O121 C131 1.282 . S
C122 O123 1.261 . S
C122 O135 1.251 . S
O123 C122 1.261 . S
H124 C118 0.930 . S
H125 C120 0.930 . S
N126 Cu115 1.985 . S
N126 C128 1.335 . S
N126 C129 1.390 . S
N127 C128 1.345 . S
N127 C130 1.336 . S
C128 N126 1.335 . S
C128 N127 1.345 . S
C128 H133 0.930 . S
C129 N126 1.390 . S
C129 C130 1.346 . S
C129 H134 0.930 . S
C130 N127 1.336 . S
C130 C129 1.346 . S
C130 H137 0.929 . S
C131 O121 1.282 . S
C131 O132 1.216 . S
O132 C131 1.216 . S
H133 C128 0.930 . S
H134 C129 0.930 . S
O135 Cu115 1.959 . S
O135 C122 1.251 . S
H136 C119 0.930 . S
H137 C130 0.929 . S
Cu138 N139 1.999 . S
Cu138 O144 1.974 . S
Cu138 N149 1.985 . S
Cu138 O158 1.959 . S
N139 Cu138 1.999 . S
N139 C141 1.263 . S
N139 C143 1.389 . S
N140 C141 1.358 . S
N140 C142 1.400 . S
C141 N139 1.263 . S
C141 N140 1.358 . S
C141 H147 0.930 . S
C142 N140 1.400 . S
C142 C143 1.351 . S
C142 H159 0.930 . S
C143 N139 1.389 . S
C143 C142 1.351 . S
C143 H148 0.930 . S
O144 Cu138 1.974 . S
O144 C154 1.282 . S
C145 O146 1.261 . S
C145 O158 1.251 . S
O146 C145 1.261 . S
H147 C141 0.930 . S
H148 C143 0.930 . S
N149 Cu138 1.985 . S
N149 C151 1.335 . S
N149 C152 1.390 . S
N150 C151 1.345 . S
N150 C153 1.336 . S
C151 N149 1.335 . S
C151 N150 1.345 . S
C151 H156 0.930 . S
C152 N149 1.390 . S
C152 C153 1.346 . S
C152 H157 0.930 . S
C153 N150 1.336 . S
C153 C152 1.346 . S
C153 H160 0.929 . S
C154 O144 1.282 . S
C154 O155 1.216 . S
O155 C154 1.216 . S
H156 C151 0.930 . S
H157 C152 0.930 . S
O158 Cu138 1.959 . S
O158 C145 1.251 . S
H159 C142 0.930 . S
H160 C153 0.929 . S
Cu161 N162 1.999 . S
Cu161 O167 1.974 . S
Cu161 N172 1.985 . S
Cu161 O181 1.959 . S
N162 Cu161 1.999 . S
N162 C164 1.263 . S
N162 C166 1.389 . S
N163 C164 1.358 . S
N163 C165 1.400 . S
C164 N162 1.263 . S
C164 N163 1.358 . S
C164 H170 0.930 . S
C165 N163 1.400 . S
C165 C166 1.351 . S
C165 H182 0.930 . S
C166 N162 1.389 . S
C166 C165 1.351 . S
C166 H171 0.930 . S
O167 Cu161 1.974 . S
O167 C177 1.282 . S
C168 O169 1.261 . S
C168 O181 1.251 . S
O169 C168 1.261 . S
H170 C164 0.930 . S
H171 C166 0.930 . S
N172 Cu161 1.985 . S
N172 C174 1.335 . S
N172 C175 1.390 . S
N173 C174 1.345 . S
N173 C176 1.336 . S
C174 N172 1.335 . S
C174 N173 1.345 . S
C174 H179 0.930 . S
C175 N172 1.390 . S
C175 C176 1.346 . S
C175 H180 0.930 . S
C176 N173 1.336 . S
C176 C175 1.346 . S
C176 H183 0.929 . S
C177 O167 1.282 . S
C177 O178 1.216 . S
O178 C177 1.216 . S
H179 C174 0.930 . S
H180 C175 0.930 . S
O181 Cu161 1.959 . S
O181 C168 1.251 . S
H182 C165 0.930 . S
H183 C176 0.929 . S
Cu184 N185 1.999 . S
Cu184 O190 1.974 . S
Cu184 N195 1.985 . S
Cu184 O204 1.959 . S
N185 Cu184 1.999 . S
N185 C187 1.263 . S
N185 C189 1.389 . S
N186 C187 1.358 . S
N186 C188 1.400 . S
C187 N185 1.263 . S
C187 N186 1.358 . S
C187 H193 0.930 . S
C188 N186 1.400 . S
C188 C189 1.351 . S
C188 H205 0.930 . S
C189 N185 1.389 . S
C189 C188 1.351 . S
C189 H194 0.930 . S
O190 Cu184 1.974 . S
O190 C200 1.282 . S
C191 O192 1.261 . S
C191 O204 1.251 . S
O192 C191 1.261 . S
H193 C187 0.930 . S
H194 C189 0.930 . S
N195 Cu184 1.985 . S
N195 C197 1.335 . S
N195 C198 1.390 . S
N196 C197 1.345 . S
N196 C199 1.336 . S
C197 N195 1.335 . S
C197 N196 1.345 . S
C197 H202 0.930 . S
C198 N195 1.390 . S
C198 C199 1.346 . S
C198 H203 0.930 . S
C199 N196 1.336 . S
C199 C198 1.346 . S
C199 H206 0.929 . S
C200 O190 1.282 . S
C200 O201 1.216 . S
O201 C200 1.216 . S
H202 C197 0.930 . S
H203 C198 0.930 . S
O204 Cu184 1.959 . S
O204 C191 1.251 . S
H205 C188 0.930 . S
H206 C199 0.929 . S
Cu207 N208 1.999 . S
Cu207 O213 1.974 . S
Cu207 N218 1.985 . S
Cu207 O227 1.959 . S
N208 Cu207 1.999 . S
N208 C210 1.263 . S
N208 C212 1.389 . S
N209 C210 1.358 . S
N209 C211 1.400 . S
C210 N208 1.263 . S
C210 N209 1.358 . S
C210 H216 0.930 . S
C211 N209 1.400 . S
C211 C212 1.351 . S
C211 H228 0.930 . S
C212 N208 1.389 . S
C212 C211 1.351 . S
C212 H217 0.930 . S
O213 Cu207 1.974 . S
O213 C223 1.282 . S
C214 O215 1.261 . S
C214 O227 1.251 . S
O215 C214 1.261 . S
H216 C210 0.930 . S
H217 C212 0.930 . S
N218 Cu207 1.985 . S
N218 C220 1.335 . S
N218 C221 1.390 . S
N219 C220 1.345 . S
N219 C222 1.336 . S
C220 N218 1.335 . S
C220 N219 1.345 . S
C220 H225 0.930 . S
C221 N218 1.390 . S
C221 C222 1.346 . S
C221 H226 0.930 . S
C222 N219 1.336 . S
C222 C221 1.346 . S
C222 H229 0.929 . S
C223 O213 1.282 . S
C223 O224 1.216 . S
O224 C223 1.216 . S
H225 C220 0.930 . S
H226 C221 0.930 . S
O227 Cu207 1.959 . S
O227 C214 1.251 . S
H228 C211 0.930 . S
H229 C222 0.929 . S
Cu230 N231 1.999 . S
Cu230 O236 1.974 . S
Cu230 N241 1.985 . S
Cu230 O250 1.959 . S
N231 Cu230 1.999 . S
N231 C233 1.263 . S
N231 C235 1.389 . S
N232 C233 1.358 . S
N232 C234 1.400 . S
C233 N231 1.263 . S
C233 N232 1.358 . S
C233 H239 0.930 . S
C234 N232 1.400 . S
C234 C235 1.351 . S
C234 H251 0.930 . S
C235 N231 1.389 . S
C235 C234 1.351 . S
C235 H240 0.930 . S
O236 Cu230 1.974 . S
O236 C246 1.282 . S
C237 O238 1.261 . S
C237 O250 1.251 . S
O238 C237 1.261 . S
H239 C233 0.930 . S
H240 C235 0.930 . S
N241 Cu230 1.985 . S
N241 C243 1.335 . S
N241 C244 1.390 . S
N242 C243 1.345 . S
N242 C245 1.336 . S
C243 N241 1.335 . S
C243 N242 1.345 . S
C243 H248 0.930 . S
C244 N241 1.390 . S
C244 C245 1.346 . S
C244 H249 0.930 . S
C245 N242 1.336 . S
C245 C244 1.346 . S
C245 H252 0.929 . S
C246 O236 1.282 . S
C246 O247 1.216 . S
O247 C246 1.216 . S
H248 C243 0.930 . S
H249 C244 0.930 . S
O250 Cu230 1.959 . S
O250 C237 1.251 . S
H251 C234 0.930 . S
H252 C245 0.929 . S
Cu253 N254 1.999 . S
Cu253 O259 1.974 . S
Cu253 N264 1.985 . S
Cu253 O273 1.959 . S
N254 Cu253 1.999 . S
N254 C256 1.263 . S
N254 C258 1.389 . S
N255 C256 1.358 . S
N255 C257 1.400 . S
C256 N254 1.263 . S
C256 N255 1.358 . S
C256 H262 0.930 . S
C257 N255 1.400 . S
C257 C258 1.351 . S
C257 H274 0.930 . S
C258 N254 1.389 . S
C258 C257 1.351 . S
C258 H263 0.930 . S
O259 Cu253 1.974 . S
O259 C269 1.282 . S
C260 O261 1.261 . S
C260 O273 1.251 . S
O261 C260 1.261 . S
H262 C256 0.930 . S
H263 C258 0.930 . S
N264 Cu253 1.985 . S
N264 C266 1.335 . S
N264 C267 1.390 . S
N265 C266 1.345 . S
N265 C268 1.336 . S
C266 N264 1.335 . S
C266 N265 1.345 . S
C266 H271 0.930 . S
C267 N264 1.390 . S
C267 C268 1.346 . S
C267 H272 0.930 . S
C268 N265 1.336 . S
C268 C267 1.346 . S
C268 H275 0.929 . S
C269 O259 1.282 . S
C269 O270 1.216 . S
O270 C269 1.216 . S
H271 C266 0.930 . S
H272 C267 0.930 . S
O273 Cu253 1.959 . S
O273 C260 1.251 . S
H274 C257 0.930 . S
H275 C268 0.929 . S
Cu276 N277 1.999 . S
Cu276 O282 1.974 . S
Cu276 N287 1.985 . S
Cu276 O296 1.959 . S
N277 Cu276 1.999 . S
N277 C279 1.263 . S
N277 C281 1.389 . S
N278 C279 1.358 . S
N278 C280 1.400 . S
C279 N277 1.263 . S
C279 N278 1.358 . S
C279 H285 0.930 . S
C280 N278 1.400 . S
C280 C281 1.351 . S
C280 H297 0.930 . S
C281 N277 1.389 . S
C281 C280 1.351 . S
C281 H286 0.930 . S
O282 Cu276 1.974 . S
O282 C292 1.282 . S
C283 O284 1.261 . S
C283 O296 1.251 . S
O284 C283 1.261 . S
H285 C279 0.930 . S
H286 C281 0.930 . S
N287 Cu276 1.985 . S
N287 C289 1.335 . S
N287 C290 1.390 . S
N288 C289 1.345 . S
N288 C291 1.336 . S
C289 N287 1.335 . S
C289 N288 1.345 . S
C289 H294 0.930 . S
C290 N287 1.390 . S
C290 C291 1.346 . S
C290 H295 0.930 . S
C291 N288 1.336 . S
C291 C290 1.346 . S
C291 H298 0.929 . S
C292 O282 1.282 . S
C292 O293 1.216 . S
O293 C292 1.216 . S
H294 C289 0.930 . S
H295 C290 0.930 . S
O296 Cu276 1.959 . S
O296 C283 1.251 . S
H297 C280 0.930 . S
H298 C291 0.929 . S
Cu299 N300 1.999 . S
Cu299 O305 1.974 . S
Cu299 N310 1.985 . S
Cu299 O319 1.959 . S
N300 Cu299 1.999 . S
N300 C302 1.263 . S
N300 C304 1.389 . S
N301 C302 1.358 . S
N301 C303 1.400 . S
C302 N300 1.263 . S
C302 N301 1.358 . S
C302 H308 0.930 . S
C303 N301 1.400 . S
C303 C304 1.351 . S
C303 H320 0.930 . S
C304 N300 1.389 . S
C304 C303 1.351 . S
C304 H309 0.930 . S
O305 Cu299 1.974 . S
O305 C315 1.282 . S
C306 O307 1.261 . S
C306 O319 1.251 . S
O307 C306 1.261 . S
H308 C302 0.930 . S
H309 C304 0.930 . S
N310 Cu299 1.985 . S
N310 C312 1.335 . S
N310 C313 1.390 . S
N311 C312 1.345 . S
N311 C314 1.336 . S
C312 N310 1.335 . S
C312 N311 1.345 . S
C312 H317 0.930 . S
C313 N310 1.390 . S
C313 C314 1.346 . S
C313 H318 0.930 . S
C314 N311 1.336 . S
C314 C313 1.346 . S
C314 H321 0.929 . S
C315 O305 1.282 . S
C315 O316 1.216 . S
O316 C315 1.216 . S
H317 C312 0.930 . S
H318 C313 0.930 . S
O319 Cu299 1.959 . S
O319 C306 1.251 . S
H320 C303 0.930 . S
H321 C314 0.929 . S
Cu322 N323 1.999 . S
Cu322 O328 1.974 . S
Cu322 N333 1.985 . S
Cu322 O342 1.959 . S
N323 Cu322 1.999 . S
N323 C325 1.263 . S
N323 C327 1.389 . S
N324 C325 1.358 . S
N324 C326 1.400 . S
C325 N323 1.263 . S
C325 N324 1.358 . S
C325 H331 0.930 . S
C326 N324 1.400 . S
C326 C327 1.351 . S
C326 H343 0.930 . S
C327 N323 1.389 . S
C327 C326 1.351 . S
C327 H332 0.930 . S
O328 Cu322 1.974 . S
O328 C338 1.282 . S
C329 O330 1.261 . S
C329 O342 1.251 . S
O330 C329 1.261 . S
H331 C325 0.930 . S
H332 C327 0.930 . S
N333 Cu322 1.985 . S
N333 C335 1.335 . S
N333 C336 1.390 . S
N334 C335 1.345 . S
N334 C337 1.336 . S
C335 N333 1.335 . S
C335 N334 1.345 . S
C335 H340 0.930 . S
C336 N333 1.390 . S
C336 C337 1.346 . S
C336 H341 0.930 . S
C337 N334 1.336 . S
C337 C336 1.346 . S
C337 H344 0.929 . S
C338 O328 1.282 . S
C338 O339 1.216 . S
O339 C338 1.216 . S
H340 C335 0.930 . S
H341 C336 0.930 . S
O342 Cu322 1.959 . S
O342 C329 1.251 . S
H343 C326 0.930 . S
H344 C337 0.929 . S
Cu345 N346 1.999 . S
Cu345 O351 1.974 . S
Cu345 N356 1.985 . S
Cu345 O365 1.959 . S
N346 Cu345 1.999 . S
N346 C348 1.263 . S
N346 C350 1.389 . S
N347 C348 1.358 . S
N347 C349 1.400 . S
C348 N346 1.263 . S
C348 N347 1.358 . S
C348 H354 0.930 . S
C349 N347 1.400 . S
C349 C350 1.351 . S
C349 H366 0.930 . S
C350 N346 1.389 . S
C350 C349 1.351 . S
C350 H355 0.930 . S
O351 Cu345 1.974 . S
O351 C361 1.282 . S
C352 O353 1.261 . S
C352 O365 1.251 . S
O353 C352 1.261 . S
H354 C348 0.930 . S
H355 C350 0.930 . S
N356 Cu345 1.985 . S
N356 C358 1.335 . S
N356 C359 1.390 . S
N357 C358 1.345 . S
N357 C360 1.336 . S
C358 N356 1.335 . S
C358 N357 1.345 . S
C358 H363 0.930 . S
C359 N356 1.390 . S
C359 C360 1.346 . S
C359 H364 0.930 . S
C360 N357 1.336 . S
C360 C359 1.346 . S
C360 H367 0.929 . S
C361 O351 1.282 . S
C361 O362 1.216 . S
O362 C361 1.216 . S
H363 C358 0.930 . S
H364 C359 0.930 . S
O365 Cu345 1.959 . S
O365 C352 1.251 . S
H366 C349 0.930 . S
H367 C360 0.929 . S
Cu368 N369 1.999 . S
Cu368 O374 1.974 . S
Cu368 N379 1.985 . S
Cu368 O388 1.959 . S
N369 Cu368 1.999 . S
N369 C371 1.263 . S
N369 C373 1.389 . S
N370 C371 1.358 . S
N370 C372 1.400 . S
C371 N369 1.263 . S
C371 N370 1.358 . S
C371 H377 0.930 . S
C372 N370 1.400 . S
C372 C373 1.351 . S
C372 H389 0.930 . S
C373 N369 1.389 . S
C373 C372 1.351 . S
C373 H378 0.930 . S
O374 Cu368 1.974 . S
O374 C384 1.282 . S
C375 O376 1.261 . S
C375 O388 1.251 . S
O376 C375 1.261 . S
H377 C371 0.930 . S
H378 C373 0.930 . S
N379 Cu368 1.985 . S
N379 C381 1.335 . S
N379 C382 1.390 . S
N380 C381 1.345 . S
N380 C383 1.336 . S
C381 N379 1.335 . S
C381 N380 1.345 . S
C381 H386 0.930 . S
C382 N379 1.390 . S
C382 C383 1.346 . S
C382 H387 0.930 . S
C383 N380 1.336 . S
C383 C382 1.346 . S
C383 H390 0.929 . S
C384 O374 1.282 . S
C384 O385 1.216 . S
O385 C384 1.216 . S
H386 C381 0.930 . S
H387 C382 0.930 . S
O388 Cu368 1.959 . S
O388 C375 1.251 . S
H389 C372 0.930 . S
H390 C383 0.929 . S
Cu391 N392 1.999 . S
Cu391 O397 1.974 . S
Cu391 N402 1.985 . S
Cu391 O411 1.959 . S
N392 Cu391 1.999 . S
N392 C394 1.263 . S
N392 C396 1.389 . S
N393 C394 1.358 . S
N393 C395 1.400 . S
C394 N392 1.263 . S
C394 N393 1.358 . S
C394 H400 0.930 . S
C395 N393 1.400 . S
C395 C396 1.351 . S
C395 H412 0.930 . S
C396 N392 1.389 . S
C396 C395 1.351 . S
C396 H401 0.930 . S
O397 Cu391 1.974 . S
O397 C407 1.282 . S
C398 O399 1.261 . S
C398 O411 1.251 . S
O399 C398 1.261 . S
H400 C394 0.930 . S
H401 C396 0.930 . S
N402 Cu391 1.985 . S
N402 C404 1.335 . S
N402 C405 1.390 . S
N403 C404 1.345 . S
N403 C406 1.336 . S
C404 N402 1.335 . S
C404 N403 1.345 . S
C404 H409 0.930 . S
C405 N402 1.390 . S
C405 C406 1.346 . S
C405 H410 0.930 . S
C406 N403 1.336 . S
C406 C405 1.346 . S
C406 H413 0.929 . S
C407 O397 1.282 . S
C407 O408 1.216 . S
O408 C407 1.216 . S
H409 C404 0.930 . S
H410 C405 0.930 . S
O411 Cu391 1.959 . S
O411 C398 1.251 . S
H412 C395 0.930 . S
H413 C406 0.929 . S
In414 O415 2.294 . S
In414 O416 2.326 . S
In414 O420 2.266 . S
In414 O421 2.326 1_455 S
In414 O422 2.266 1_455 S
In414 O423 2.326 . S
In414 O425 2.294 . S
In414 O426 2.326 . S
O415 In414 2.294 . S
O415 C424 1.240 . S
O416 In414 2.326 . S
O416 C424 1.252 . S
C417 O420 1.252 . S
C417 O421 1.260 1_455 S
C418 O425 1.240 . S
C418 O426 1.252 . S
C419 O422 1.252 . S
C419 O423 1.260 1_655 S
O420 In414 2.266 . S
O420 C417 1.252 . S
O421 In414 2.326 1_655 S
O421 C417 1.260 1_655 S
O422 In414 2.266 1_655 S
O422 C419 1.252 . S
O423 In414 2.326 . S
O423 C419 1.260 1_455 S
C424 O415 1.240 . S
C424 O416 1.252 . S
O425 In414 2.294 . S
O425 C418 1.240 . S
O426 In414 2.326 . S
O426 C418 1.252 . S
In427 O428 2.294 . S
In427 O429 2.326 . S
In427 O433 2.266 . S
In427 O434 2.326 . S
In427 O435 2.266 . S
In427 O436 2.326 . S
In427 O438 2.294 . S
In427 O439 2.326 . S
O428 In427 2.294 . S
O428 C437 1.240 . S
O429 In427 2.326 . S
O429 C437 1.252 . S
C430 O433 1.252 . S
C430 O434 1.260 . S
C431 O438 1.240 . S
C431 O439 1.252 . S
C432 O435 1.252 . S
C432 O436 1.260 . S
O433 In427 2.266 . S
O433 C430 1.252 . S
O434 In427 2.326 . S
O434 C430 1.260 . S
O435 In427 2.266 . S
O435 C432 1.252 . S
O436 In427 2.326 . S
O436 C432 1.260 . S
C437 O428 1.240 . S
C437 O429 1.252 . S
O438 In427 2.294 . S
O438 C431 1.240 . S
O439 In427 2.326 . S
O439 C431 1.252 . S
In440 O441 2.294 . S
In440 O442 2.326 . S
In440 O446 2.266 . S
In440 O447 2.326 . S
In440 O448 2.266 . S
In440 O449 2.326 . S
In440 O451 2.294 . S
In440 O452 2.326 . S
O441 In440 2.294 . S
O441 C450 1.240 . S
O442 In440 2.326 . S
O442 C450 1.252 . S
C443 O446 1.252 . S
C443 O447 1.260 . S
C444 O451 1.240 . S
C444 O452 1.252 . S
C445 O448 1.252 . S
C445 O449 1.260 . S
O446 In440 2.266 . S
O446 C443 1.252 . S
O447 In440 2.326 . S
O447 C443 1.260 . S
O448 In440 2.266 . S
O448 C445 1.252 . S
O449 In440 2.326 . S
O449 C445 1.260 . S
C450 O441 1.240 . S
C450 O442 1.252 . S
O451 In440 2.294 . S
O451 C444 1.240 . S
O452 In440 2.326 . S
O452 C444 1.252 . S
In453 O454 2.294 . S
In453 O455 2.326 . S
In453 O459 2.266 1_455 S
In453 O460 2.326 . S
In453 O461 2.266 . S
In453 O462 2.326 . S
In453 O464 2.294 . S
In453 O465 2.326 . S
O454 In453 2.294 . S
O454 C463 1.240 . S
O455 In453 2.326 . S
O455 C463 1.252 . S
C456 O459 1.252 1_455 S
C456 O460 1.260 . S
C457 O464 1.240 . S
C457 O465 1.252 . S
C458 O461 1.252 . S
C458 O462 1.260 . S
O459 In453 2.266 1_655 S
O459 C456 1.252 1_655 S
O460 In453 2.326 . S
O460 C456 1.260 . S
O461 In453 2.266 . S
O461 C458 1.252 . S
O462 In453 2.326 . S
O462 C458 1.260 . S
C463 O454 1.240 . S
C463 O455 1.252 . S
O464 In453 2.294 . S
O464 C457 1.240 . S
O465 In453 2.326 . S
O465 C457 1.252 . S
In466 O467 2.294 . S
In466 O468 2.326 . S
In466 O472 2.266 . S
In466 O473 2.326 . S
In466 O474 2.266 . S
In466 O475 2.326 . S
In466 O477 2.294 . S
In466 O478 2.326 . S
O467 In466 2.294 . S
O467 C476 1.240 . S
O468 In466 2.326 . S
O468 C476 1.252 . S
C469 O472 1.252 . S
C469 O473 1.260 . S
C470 O477 1.240 . S
C470 O478 1.252 . S
C471 O474 1.252 . S
C471 O475 1.260 . S
O472 In466 2.266 . S
O472 C469 1.252 . S
O473 In466 2.326 . S
O473 C469 1.260 . S
O474 In466 2.266 . S
O474 C471 1.252 . S
O475 In466 2.326 . S
O475 C471 1.260 . S
C476 O467 1.240 . S
C476 O468 1.252 . S
O477 In466 2.294 . S
O477 C470 1.240 . S
O478 In466 2.326 . S
O478 C470 1.252 . S
In479 O480 2.294 . S
In479 O481 2.326 . S
In479 O485 2.266 . S
In479 O486 2.326 . S
In479 O487 2.266 1_545 S
In479 O488 2.326 . S
In479 O490 2.294 . S
In479 O491 2.326 . S
O480 In479 2.294 . S
O480 C489 1.240 . S
O481 In479 2.326 . S
O481 C489 1.252 . S
C482 O485 1.252 . S
C482 O486 1.260 . S
C483 O490 1.240 . S
C483 O491 1.252 . S
C484 O487 1.252 . S
C484 O488 1.260 1_565 S
O485 In479 2.266 . S
O485 C482 1.252 . S
O486 In479 2.326 . S
O486 C482 1.260 . S
O487 In479 2.266 1_565 S
O487 C484 1.252 . S
O488 In479 2.326 . S
O488 C484 1.260 1_545 S
C489 O480 1.240 . S
C489 O481 1.252 . S
O490 In479 2.294 . S
O490 C483 1.240 . S
O491 In479 2.326 . S
O491 C483 1.252 . S
In492 O493 2.294 1_565 S
In492 O494 2.326 1_565 S
In492 O498 2.266 . S
In492 O499 2.326 . S
In492 O500 2.266 . S
In492 O501 2.326 1_565 S
In492 O503 2.294 . S
In492 O504 2.326 . S
O493 In492 2.294 1_545 S
O493 C502 1.240 . S
O494 In492 2.326 1_545 S
O494 C502 1.252 . S
C495 O498 1.252 . S
C495 O499 1.260 . S
C496 O503 1.240 . S
C496 O504 1.252 . S
C497 O500 1.252 . S
C497 O501 1.260 1_565 S
O498 In492 2.266 . S
O498 C495 1.252 . S
O499 In492 2.326 . S
O499 C495 1.260 . S
O500 In492 2.266 . S
O500 C497 1.252 . S
O501 In492 2.326 1_545 S
O501 C497 1.260 1_545 S
C502 O493 1.240 . S
C502 O494 1.252 . S
O503 In492 2.294 . S
O503 C496 1.240 . S
O504 In492 2.326 . S
O504 C496 1.252 . S
In505 O506 2.294 . S
In505 O507 2.326 . S
In505 O511 2.266 . S
In505 O512 2.326 . S
In505 O513 2.266 . S
In505 O514 2.326 . S
In505 O516 2.294 . S
In505 O517 2.326 . S
O506 In505 2.294 . S
O506 C515 1.240 . S
O507 In505 2.326 . S
O507 C515 1.252 . S
C508 O511 1.252 . S
C508 O512 1.260 . S
C509 O516 1.240 . S
C509 O517 1.252 . S
C510 O513 1.252 . S
C510 O514 1.260 . S
O511 In505 2.266 . S
O511 C508 1.252 . S
O512 In505 2.326 . S
O512 C508 1.260 . S
O513 In505 2.266 . S
O513 C510 1.252 . S
O514 In505 2.326 . S
O514 C510 1.260 . S
C515 O506 1.240 . S
C515 O507 1.252 . S
O516 In505 2.294 . S
O516 C509 1.240 . S
O517 In505 2.326 . S
O517 C509 1.252 . S
In518 O519 2.294 . S
In518 O520 2.326 . S
In518 O524 2.266 . S
In518 O525 2.326 . S
In518 O526 2.266 . S
In518 O527 2.326 . S
In518 O529 2.294 . S
In518 O530 2.326 . S
O519 In518 2.294 . S
O519 C528 1.240 . S
O520 In518 2.326 . S
O520 C528 1.252 . S
C521 O524 1.252 . S
C521 O525 1.260 . S
C522 O529 1.240 . S
C522 O530 1.252 . S
C523 O526 1.252 . S
C523 O527 1.260 . S
O524 In518 2.266 . S
O524 C521 1.252 . S
O525 In518 2.326 . S
O525 C521 1.260 . S
O526 In518 2.266 . S
O526 C523 1.252 . S
O527 In518 2.326 . S
O527 C523 1.260 . S
C528 O519 1.240 . S
C528 O520 1.252 . S
O529 In518 2.294 . S
O529 C522 1.240 . S
O530 In518 2.326 . S
O530 C522 1.252 . S
In531 O532 2.294 . S
In531 O533 2.326 . S
In531 O537 2.266 . S
In531 O538 2.326 . S
In531 O539 2.266 . S
In531 O540 2.326 . S
In531 O542 2.294 . S
In531 O543 2.326 . S
O532 In531 2.294 . S
O532 C541 1.240 . S
O533 In531 2.326 . S
O533 C541 1.252 . S
C534 O537 1.252 . S
C534 O538 1.260 . S
C535 O542 1.240 . S
C535 O543 1.252 . S
C536 O539 1.252 . S
C536 O540 1.260 . S
O537 In531 2.266 . S
O537 C534 1.252 . S
O538 In531 2.326 . S
O538 C534 1.260 . S
O539 In531 2.266 . S
O539 C536 1.252 . S
O540 In531 2.326 . S
O540 C536 1.260 . S
C541 O532 1.240 . S
C541 O533 1.252 . S
O542 In531 2.294 . S
O542 C535 1.240 . S
O543 In531 2.326 . S
O543 C535 1.252 . S
In544 O545 2.300 . S
In544 O546 2.327 . S
In544 O550 2.270 1_565 S
In544 O551 2.324 1_565 S
In544 O552 2.257 1_565 S
In544 O553 2.320 1_565 S
In544 O555 2.293 . S
In544 O556 2.333 . S
O545 In544 2.300 . S
O545 C554 1.240 . S
O546 In544 2.327 . S
O546 C554 1.252 . S
C547 O550 1.252 . S
C547 O551 1.260 . S
C548 O555 1.240 . S
C548 O556 1.252 . S
C549 O552 1.252 . S
C549 O553 1.260 . S
O550 In544 2.270 1_545 S
O550 C547 1.252 . S
O551 In544 2.324 1_545 S
O551 C547 1.260 . S
O552 In544 2.257 1_545 S
O552 C549 1.252 . S
O553 In544 2.320 1_545 S
O553 C549 1.260 . S
C554 O545 1.240 . S
C554 O546 1.252 . S
O555 In544 2.293 . S
O555 C548 1.240 . S
O556 In544 2.333 . S
O556 C548 1.252 . S
In557 O558 2.294 . S
In557 O559 2.326 . S
In557 O563 2.266 . S
In557 O564 2.326 . S
In557 O565 2.266 . S
In557 O566 2.326 . S
In557 O568 2.294 . S
In557 O569 2.326 . S
O558 In557 2.294 . S
O558 C567 1.240 . S
O559 In557 2.326 . S
O559 C567 1.252 . S
C560 O563 1.252 . S
C560 O564 1.260 . S
C561 O568 1.240 . S
C561 O569 1.252 . S
C562 O565 1.252 . S
C562 O566 1.260 . S
O563 In557 2.266 . S
O563 C560 1.252 . S
O564 In557 2.326 . S
O564 C560 1.260 . S
O565 In557 2.266 . S
O565 C562 1.252 . S
O566 In557 2.326 . S
O566 C562 1.260 . S
C567 O558 1.240 . S
C567 O559 1.252 . S
O568 In557 2.294 . S
O568 C561 1.240 . S
O569 In557 2.326 . S
O569 C561 1.252 . S
In570 O571 2.294 1_556 S
In570 O572 2.326 . S
In570 O576 2.266 . S
In570 O577 2.326 . S
In570 O578 2.266 . S
In570 O579 2.326 . S
In570 O581 2.294 . S
In570 O582 2.326 . S
O571 In570 2.294 1_554 S
O571 C580 1.240 . S
O572 In570 2.326 . S
O572 C580 1.252 1_556 S
C573 O576 1.252 . S
C573 O577 1.260 . S
C574 O581 1.240 . S
C574 O582 1.252 . S
C575 O578 1.252 . S
C575 O579 1.260 . S
O576 In570 2.266 . S
O576 C573 1.252 . S
O577 In570 2.326 . S
O577 C573 1.260 . S
O578 In570 2.266 . S
O578 C575 1.252 . S
O579 In570 2.326 . S
O579 C575 1.260 . S
C580 O571 1.240 . S
C580 O572 1.252 1_554 S
O581 In570 2.294 . S
O581 C574 1.240 . S
O582 In570 2.326 . S
O582 C574 1.252 . S
In583 O584 2.294 . S
In583 O585 2.326 . S
In583 O589 2.266 . S
In583 O590 2.326 . S
In583 O591 2.266 . S
In583 O592 2.326 . S
In583 O594 2.294 . S
In583 O595 2.326 . S
O584 In583 2.294 . S
O584 C593 1.240 . S
O585 In583 2.326 . S
O585 C593 1.252 . S
C586 O589 1.252 . S
C586 O590 1.260 . S
C587 O594 1.240 . S
C587 O595 1.252 . S
C588 O591 1.252 . S
C588 O592 1.260 . S
O589 In583 2.266 . S
O589 C586 1.252 . S
O590 In583 2.326 . S
O590 C586 1.260 . S
O591 In583 2.266 . S
O591 C588 1.252 . S
O592 In583 2.326 . S
O592 C588 1.260 . S
C593 O584 1.240 . S
C593 O585 1.252 . S
O594 In583 2.294 . S
O594 C587 1.240 . S
O595 In583 2.326 . S
O595 C587 1.252 . S
In596 O597 2.294 . S
In596 O598 2.326 . S
In596 O602 2.266 1_655 S
In596 O603 2.326 1_655 S
In596 O604 2.266 . S
In596 O605 2.326 . S
In596 O607 2.294 . S
In596 O608 2.326 1_655 S
O597 In596 2.294 . S
O597 C606 1.240 . S
O598 In596 2.326 . S
O598 C606 1.252 . S
C599 O602 1.252 . S
C599 O603 1.260 . S
C600 O607 1.240 . S
C600 O608 1.252 1_655 S
C601 O604 1.252 . S
C601 O605 1.260 . S
O602 In596 2.266 1_455 S
O602 C599 1.252 . S
O603 In596 2.326 1_455 S
O603 C599 1.260 . S
O604 In596 2.266 . S
O604 C601 1.252 . S
O605 In596 2.326 . S
O605 C601 1.260 . S
C606 O597 1.240 . S
C606 O598 1.252 . S
O607 In596 2.294 . S
O607 C600 1.240 . S
O608 In596 2.326 1_455 S
O608 C600 1.252 1_455 S
In609 O610 2.294 . S
In609 O611 2.326 . S
In609 O615 2.266 . S
In609 O616 2.326 . S
In609 O617 2.266 . S
In609 O618 2.326 . S
In609 O620 2.294 . S
In609 O621 2.326 . S
O610 In609 2.294 . S
O610 C619 1.240 . S
O611 In609 2.326 . S
O611 C619 1.252 . S
C612 O615 1.252 . S
C612 O616 1.260 . S
C613 O620 1.240 . S
C613 O621 1.252 . S
C614 O617 1.252 . S
C614 O618 1.260 . S
O615 In609 2.266 . S
O615 C612 1.252 . S
O616 In609 2.326 . S
O616 C612 1.260 . S
O617 In609 2.266 . S
O617 C614 1.252 . S
O618 In609 2.326 . S
O618 C614 1.260 . S
C619 O610 1.240 . S
C619 O611 1.252 . S
O620 In609 2.294 . S
O620 C613 1.240 . S
O621 In609 2.326 . S
O621 C613 1.252 . S
In622 O623 2.293 . S
In622 O624 2.330 . S
In622 O628 2.262 1_655 S
In622 O629 2.323 1_655 S
In622 O630 2.268 1_655 S
In622 O631 2.325 1_655 S
In622 O633 2.297 . S
In622 O634 2.327 . S
O623 In622 2.293 . S
O623 C632 1.240 . S
O624 In622 2.330 . S
O624 C632 1.252 . S
C625 O628 1.252 . S
C625 O629 1.260 . S
C626 O633 1.240 . S
C626 O634 1.252 . S
C627 O630 1.252 . S
C627 O631 1.260 . S
O628 In622 2.262 1_455 S
O628 C625 1.252 . S
O629 In622 2.323 1_455 S
O629 C625 1.260 . S
O630 In622 2.268 1_455 S
O630 C627 1.252 . S
O631 In622 2.325 1_455 S
O631 C627 1.260 . S
C632 O623 1.240 . S
C632 O624 1.252 . S
O633 In622 2.297 . S
O633 C626 1.240 . S
O634 In622 2.327 . S
O634 C626 1.252 . S
In635 O636 2.294 . S
In635 O637 2.326 . S
In635 O641 2.266 . S
In635 O642 2.326 . S
In635 O643 2.266 . S
In635 O644 2.326 . S
In635 O646 2.294 . S
In635 O647 2.326 . S
O636 In635 2.294 . S
O636 C645 1.240 . S
O637 In635 2.326 . S
O637 C645 1.252 . S
C638 O641 1.252 . S
C638 O642 1.260 . S
C639 O646 1.240 . S
C639 O647 1.252 . S
C640 O643 1.252 . S
C640 O644 1.260 . S
O641 In635 2.266 . S
O641 C638 1.252 . S
O642 In635 2.326 . S
O642 C638 1.260 . S
O643 In635 2.266 . S
O643 C640 1.252 . S
O644 In635 2.326 . S
O644 C640 1.260 . S
C645 O636 1.240 . S
C645 O637 1.252 . S
O646 In635 2.294 . S
O646 C639 1.240 . S
O647 In635 2.326 . S
O647 C639 1.252 . S
C648 C649 1.363 . S
C648 C654 1.379 . S
C648 N656 1.356 . S
C649 C648 1.363 . S
C649 C655 1.363 1_455 S
C650 C651 1.363 . S
C650 C655 1.379 1_455 S
C650 N657 1.356 1_455 S
C651 C650 1.363 . S
C651 C654 1.363 . S
N652 C654 1.356 . S
N652 H664 0.984 . S
N652 H665 0.985 . S
N653 C655 1.356 . S
N653 H658 0.984 . S
N653 H659 0.985 . S
C654 C648 1.379 . S
C654 C651 1.363 . S
C654 N652 1.356 . S
C655 C649 1.363 1_655 S
C655 C650 1.379 1_655 S
C655 N653 1.356 . S
N656 C648 1.356 . S
N656 H662 0.984 . S
N656 H663 0.984 . S
N657 C650 1.356 1_655 S
N657 H660 0.984 1_655 S
N657 H661 0.985 . S
H658 N653 0.984 . S
H659 N653 0.985 . S
H660 N657 0.984 1_455 S
H661 N657 0.985 . S
H662 N656 0.984 . S
H663 N656 0.984 . S
H664 N652 0.984 . S
H665 N652 0.985 . S
C666 C667 1.363 . S
C666 C672 1.379 . S
C666 N674 1.341 1_554 S
C667 C666 1.363 . S
C667 C673 1.363 . S
C668 C669 1.363 . S
C668 C673 1.379 . S
C668 N675 1.356 . S
C669 C668 1.363 . S
C669 C672 1.363 . S
N670 C672 1.356 . S
N670 H682 0.984 1_554 S
N670 H683 0.985 . S
N671 C673 1.356 . S
N671 H676 0.984 . S
N671 H677 0.985 . S
C672 C666 1.379 . S
C672 C669 1.363 . S
C672 N670 1.356 . S
C673 C667 1.363 . S
C673 C668 1.379 . S
C673 N671 1.356 . S
N674 C666 1.341 1_556 S
N674 H680 1.001 . S
N674 H681 0.984 1_556 S
N675 C668 1.356 . S
N675 H678 0.984 . S
N675 H679 0.985 . S
H676 N671 0.984 . S
H677 N671 0.985 . S
H678 N675 0.984 . S
H679 N675 0.985 . S
H680 N674 1.001 . S
H681 N674 0.984 1_554 S
H682 N670 0.984 1_556 S
H683 N670 0.985 . S
C684 C685 1.363 . S
C684 C690 1.379 . S
C684 N692 1.356 . S
C685 C684 1.363 . S
C685 C691 1.363 . S
C686 C687 1.363 . S
C686 C691 1.379 . S
C686 N693 1.356 . S
C687 C686 1.363 . S
C687 C690 1.363 . S
N688 C690 1.356 . S
N688 H700 0.984 . S
N688 H701 0.985 . S
N689 C691 1.356 . S
N689 H694 0.984 . S
N689 H695 0.985 1_554 S
C690 C684 1.379 . S
C690 C687 1.363 . S
C690 N688 1.356 . S
C691 C685 1.363 . S
C691 C686 1.379 . S
C691 N689 1.356 . S
N692 C684 1.356 . S
N692 H698 0.984 . S
N692 H699 0.984 . S
N693 C686 1.356 . S
N693 H696 0.984 . S
N693 H697 0.985 . S
H694 N689 0.984 . S
H695 N689 0.985 1_556 S
H696 N693 0.984 . S
H697 N693 0.985 . S
H698 N692 0.984 . S
H699 N692 0.984 . S
H700 N688 0.984 . S
H701 N688 0.985 . S
C702 C703 1.363 . S
C702 C708 1.379 . S
C702 N710 1.356 . S
C703 C702 1.363 . S
C703 C709 1.363 . S
C704 C705 1.363 . S
C704 C709 1.379 . S
C704 N711 1.356 . S
C705 C704 1.363 . S
C705 C708 1.363 . S
N706 C708 1.356 . S
N706 H718 0.984 . S
N706 H719 0.985 . S
N707 C709 1.356 . S
N707 H712 0.984 . S
N707 H713 0.985 . S
C708 C702 1.379 . S
C708 C705 1.363 . S
C708 N706 1.356 . S
C709 C703 1.363 . S
C709 C704 1.379 . S
C709 N707 1.356 . S
N710 C702 1.356 . S
N710 H716 0.984 . S
N710 H717 0.984 . S
N711 C704 1.356 . S
N711 H714 0.984 . S
N711 H715 0.985 . S
H712 N707 0.984 . S
H713 N707 0.985 . S
H714 N711 0.984 . S
H715 N711 0.985 . S
H716 N710 0.984 . S
H717 N710 0.984 . S
H718 N706 0.984 . S
H719 N706 0.985 . S
C720 C721 1.363 . S
C720 C726 1.379 . S
C720 N728 1.356 . S
C721 C720 1.363 . S
C721 C727 1.363 . S
C722 C723 1.363 . S
C722 C727 1.379 . S
C722 N729 1.356 . S
C723 C722 1.363 . S
C723 C726 1.363 . S
N724 C726 1.356 1_655 S
N724 H736 0.984 . S
N724 H737 0.985 . S
N725 C727 1.356 . S
N725 H730 0.984 . S
N725 H731 0.985 . S
C726 C720 1.379 . S
C726 C723 1.363 . S
C726 N724 1.356 1_455 S
C727 C721 1.363 . S
C727 C722 1.379 . S
C727 N725 1.356 . S
N728 C720 1.356 . S
N728 H734 0.984 . S
N728 H735 0.984 . S
N729 C722 1.356 . S
N729 H732 0.984 . S
N729 H733 0.985 . S
H730 N725 0.984 . S
H731 N725 0.985 . S
H732 N729 0.984 . S
H733 N729 0.985 . S
H734 N728 0.984 . S
H735 N728 0.984 . S
H736 N724 0.984 . S
H737 N724 0.985 . S
C738 C739 1.363 . S
C738 C744 1.379 . S
C738 N746 1.356 . S
C739 C738 1.363 . S
C739 C745 1.363 . S
C740 C741 1.363 . S
C740 C745 1.379 . S
C740 N747 1.356 . S
C741 C740 1.363 . S
C741 C744 1.363 . S
N742 C744 1.356 . S
N742 H754 0.984 . S
N742 H755 0.985 . S
N743 C745 1.356 . S
N743 H748 0.984 . S
N743 H749 0.985 . S
C744 C738 1.379 . S
C744 C741 1.363 . S
C744 N742 1.356 . S
C745 C739 1.363 . S
C745 C740 1.379 . S
C745 N743 1.356 . S
N746 C738 1.356 . S
N746 H752 0.984 . S
N746 H753 0.984 . S
N747 C740 1.356 . S
N747 H750 0.984 . S
N747 H751 0.985 . S
H748 N743 0.984 . S
H749 N743 0.985 . S
H750 N747 0.984 . S
H751 N747 0.985 . S
H752 N746 0.984 . S
H753 N746 0.984 . S
H754 N742 0.984 . S
H755 N742 0.985 . S
C756 C757 1.363 . S
C756 C762 1.379 . S
C756 N764 1.356 1_556 S
C757 C756 1.363 . S
C757 C763 1.369 . S
C758 C759 1.363 1_455 S
C758 C763 1.385 1_455 S
C758 N765 1.356 . S
C759 C758 1.363 1_655 S
C759 C762 1.363 . S
N760 C762 1.356 1_554 S
N760 H772 0.984 . S
N760 H773 0.985 1_554 S
N761 C763 1.345 1_455 S
N761 H766 0.984 1_455 S
N761 H767 0.985 . S
C762 C756 1.379 . S
C762 C759 1.363 . S
C762 N760 1.356 1_556 S
C763 C757 1.369 . S
C763 C758 1.385 1_655 S
C763 N761 1.345 1_655 S
N764 C756 1.356 1_554 S
N764 H770 0.984 . S
N764 H771 0.984 . S
N765 C758 1.356 . S
N765 H768 0.984 . S
N765 H769 0.985 . S
H766 N761 0.984 1_655 S
H767 N761 0.985 . S
H768 N765 0.984 . S
H769 N765 0.985 . S
H770 N764 0.984 . S
H771 N764 0.984 . S
H772 N760 0.984 . S
H773 N760 0.985 1_556 S
C774 C775 1.363 1_554 S
C774 C780 1.379 . S
C774 N782 1.356 . S
C775 C774 1.363 1_556 S
C775 C781 1.363 . S
C776 C777 1.363 . S
C776 C781 1.379 . S
C776 N783 1.356 . S
C777 C776 1.363 . S
C777 C780 1.363 1_556 S
N778 C780 1.356 . S
N778 H790 0.984 . S
N778 H791 0.985 . S
N779 C781 1.356 . S
N779 H784 0.984 . S
N779 H785 0.985 . S
C780 C774 1.379 . S
C780 C777 1.363 1_554 S
C780 N778 1.356 . S
C781 C775 1.363 . S
C781 C776 1.379 . S
C781 N779 1.356 . S
N782 C774 1.356 . S
N782 H788 0.984 . S
N782 H789 0.984 . S
N783 C776 1.356 . S
N783 H786 0.984 . S
N783 H787 0.985 . S
H784 N779 0.984 . S
H785 N779 0.985 . S
H786 N783 0.984 . S
H787 N783 0.985 . S
H788 N782 0.984 . S
H789 N782 0.984 . S
H790 N778 0.984 . S
H791 N778 0.985 . S
C792 C793 1.363 . S
C792 C798 1.379 . S
C792 N800 1.356 1_556 S
C793 C792 1.363 . S
C793 C799 1.363 . S
C794 C795 1.363 . S
C794 C799 1.379 . S
C794 N801 1.356 . S
C795 C794 1.363 . S
C795 C798 1.363 . S
N796 C798 1.356 . S
N796 H808 0.984 1_556 S
N796 H809 0.985 . S
N797 C799 1.356 . S
N797 H802 0.984 . S
N797 H803 0.985 . S
C798 C792 1.379 . S
C798 C795 1.363 . S
C798 N796 1.356 . S
C799 C793 1.363 . S
C799 C794 1.379 . S
C799 N797 1.356 . S
N800 C792 1.356 1_554 S
N800 H806 0.984 . S
N800 H807 0.984 . S
N801 C794 1.356 . S
N801 H804 0.984 . S
N801 H805 0.985 . S
H802 N797 0.984 . S
H803 N797 0.985 . S
H804 N801 0.984 . S
H805 N801 0.985 . S
H806 N800 0.984 . S
H807 N800 0.984 . S
H808 N796 0.984 1_554 S
H809 N796 0.985 . S
C810 C811 1.363 1_565 S
C810 C816 1.379 . S
C810 N818 1.356 . S
C811 C810 1.363 1_545 S
C811 C817 1.363 . S
C812 C813 1.400 . S
C812 C817 1.379 . S
C812 N819 1.356 . S
C813 C812 1.400 . S
C813 C816 1.349 1_545 S
N814 C816 1.356 . S
N814 H826 0.984 . S
N814 H827 0.985 . S
N815 C817 1.356 . S
N815 H820 0.984 . S
N815 H821 0.985 . S
C816 C810 1.379 . S
C816 C813 1.349 1_565 S
C816 N814 1.356 . S
C817 C811 1.363 . S
C817 C812 1.379 . S
C817 N815 1.356 . S
N818 C810 1.356 . S
N818 H824 0.984 . S
N818 H825 0.984 . S
N819 C812 1.356 . S
N819 H822 0.984 . S
N819 H823 0.985 . S
H820 N815 0.984 . S
H821 N815 0.985 . S
H822 N819 0.984 . S
H823 N819 0.985 . S
H824 N818 0.984 . S
H825 N818 0.984 . S
H826 N814 0.984 . S
H827 N814 0.985 . S
C828 C829 1.363 . S
C828 C834 1.379 . S
C828 N836 1.356 . S
C829 C828 1.363 . S
C829 C835 1.363 . S
C830 C831 1.363 . S
C830 C835 1.379 . S
C830 N837 1.356 . S
C831 C830 1.363 . S
C831 C834 1.363 . S
N832 C834 1.356 . S
N832 H844 0.984 . S
N832 H845 0.985 . S
N833 C835 1.356 . S
N833 H838 0.984 . S
N833 H839 0.985 . S
C834 C828 1.379 . S
C834 C831 1.363 . S
C834 N832 1.356 . S
C835 C829 1.363 . S
C835 C830 1.379 . S
C835 N833 1.356 . S
N836 C828 1.356 . S
N836 H842 0.984 . S
N836 H843 0.984 . S
N837 C830 1.356 . S
N837 H840 0.984 . S
N837 H841 0.985 . S
H838 N833 0.984 . S
H839 N833 0.985 . S
H840 N837 0.984 . S
H841 N837 0.985 . S
H842 N836 0.984 . S
H843 N836 0.984 . S
H844 N832 0.984 . S
H845 N832 0.985 . S
C846 C847 1.363 . S
C846 C852 1.379 . S
C846 N854 1.356 . S
C847 C846 1.363 . S
C847 C853 1.363 . S
C848 C849 1.363 . S
C848 C853 1.379 . S
C848 N855 1.356 . S
C849 C848 1.363 . S
C849 C852 1.363 . S
N850 C852 1.356 . S
N850 H862 0.984 . S
N850 H863 0.985 . S
N851 C853 1.356 . S
N851 H856 0.984 . S
N851 H857 0.985 . S
C852 C846 1.379 . S
C852 C849 1.363 . S
C852 N850 1.356 . S
C853 C847 1.363 . S
C853 C848 1.379 . S
C853 N851 1.356 . S
N854 C846 1.356 . S
N854 H860 0.984 . S
N854 H861 0.984 . S
N855 C848 1.356 . S
N855 H858 0.984 . S
N855 H859 0.985 . S
H856 N851 0.984 . S
H857 N851 0.985 . S
H858 N855 0.984 . S
H859 N855 0.985 . S
H860 N854 0.984 . S
H861 N854 0.984 . S
H862 N850 0.984 . S
H863 N850 0.985 . S
C864 C865 1.363 . S
C864 C870 1.379 . S
C864 N872 1.356 . S
C865 C864 1.363 . S
C865 C871 1.363 . S
C866 C867 1.363 . S
C866 C871 1.379 . S
C866 N873 1.356 . S
C867 C866 1.363 . S
C867 C870 1.363 . S
N868 C870 1.356 . S
N868 H880 0.984 . S
N868 H881 0.985 . S
N869 C871 1.356 . S
N869 H874 0.984 . S
N869 H875 0.985 . S
C870 C864 1.379 . S
C870 C867 1.363 . S
C870 N868 1.356 . S
C871 C865 1.363 . S
C871 C866 1.379 . S
C871 N869 1.356 . S
N872 C864 1.356 . S
N872 H878 0.984 . S
N872 H879 0.984 . S
N873 C866 1.356 . S
N873 H876 0.984 . S
N873 H877 0.985 . S
H874 N869 0.984 . S
H875 N869 0.985 . S
H876 N873 0.984 . S
H877 N873 0.985 . S
H878 N872 0.984 . S
H879 N872 0.984 . S
H880 N868 0.984 . S
H881 N868 0.985 . S
C882 C883 1.363 . S
C882 C888 1.379 1_565 S
C882 N890 1.356 . S
C883 C882 1.363 . S
C883 C889 1.363 . S
C884 C885 1.363 . S
C884 C889 1.379 1_545 S
C884 N891 1.356 . S
C885 C884 1.363 . S
C885 C888 1.363 . S
N886 C888 1.356 . S
N886 H898 0.984 . S
N886 H899 0.985 . S
N887 C889 1.356 . S
N887 H892 0.984 . S
N887 H893 0.985 . S
C888 C882 1.379 1_545 S
C888 C885 1.363 . S
C888 N886 1.356 . S
C889 C883 1.363 . S
C889 C884 1.379 1_565 S
C889 N887 1.356 . S
N890 C882 1.356 . S
N890 H896 0.984 . S
N890 H897 0.984 . S
N891 C884 1.356 . S
N891 H894 0.984 . S
N891 H895 0.985 . S
H892 N887 0.984 . S
H893 N887 0.985 . S
H894 N891 0.984 . S
H895 N891 0.985 . S
H896 N890 0.984 . S
H897 N890 0.984 . S
H898 N886 0.984 . S
H899 N886 0.985 . S
C900 C901 1.363 . S
C900 C906 1.379 . S
C900 N908 1.356 . S
C901 C900 1.363 . S
C901 C907 1.363 . S
C902 C903 1.363 . S
C902 C907 1.379 . S
C902 N909 1.356 . S
C903 C902 1.363 . S
C903 C906 1.363 . S
N904 C906 1.356 . S
N904 H916 0.984 . S
N904 H917 0.985 . S
N905 C907 1.356 . S
N905 H910 0.984 . S
N905 H911 0.985 . S
C906 C900 1.379 . S
C906 C903 1.363 . S
C906 N904 1.356 . S
C907 C901 1.363 . S
C907 C902 1.379 . S
C907 N905 1.356 . S
N908 C900 1.356 . S
N908 H914 0.984 . S
N908 H915 0.984 . S
N909 C902 1.356 . S
N909 H912 0.984 . S
N909 H913 0.985 . S
H910 N905 0.984 . S
H911 N905 0.985 . S
H912 N909 0.984 . S
H913 N909 0.985 . S
H914 N908 0.984 . S
H915 N908 0.984 . S
H916 N904 0.984 . S
H917 N904 0.985 . S
C918 C919 1.363 . S
C918 C924 1.379 . S
C918 N926 1.356 . S
C919 C918 1.363 . S
C919 C925 1.363 . S
C920 C921 1.363 . S
C920 C925 1.379 . S
C920 N927 1.356 . S
C921 C920 1.363 . S
C921 C924 1.363 . S
N922 C924 1.356 . S
N922 H934 0.984 . S
N922 H935 0.985 . S
N923 C925 1.356 . S
N923 H928 0.984 . S
N923 H929 0.985 . S
C924 C918 1.379 . S
C924 C921 1.363 . S
C924 N922 1.356 . S
C925 C919 1.363 . S
C925 C920 1.379 . S
C925 N923 1.356 . S
N926 C918 1.356 . S
N926 H932 0.984 . S
N926 H933 0.984 . S
N927 C920 1.356 . S
N927 H930 0.984 . S
N927 H931 0.985 . S
H928 N923 0.984 . S
H929 N923 0.985 . S
H930 N927 0.984 . S
H931 N927 0.985 . S
H932 N926 0.984 . S
H933 N926 0.984 . S
H934 N922 0.984 . S
H935 N922 0.985 . S
C936 C937 1.363 . S
C936 C942 1.379 . S
C936 N944 1.356 . S
C937 C936 1.363 . S
C937 C943 1.363 . S
C938 C939 1.363 . S
C938 C943 1.379 . S
C938 N945 1.356 . S
C939 C938 1.363 . S
C939 C942 1.363 . S
N940 C942 1.356 . S
N940 H952 0.984 . S
N940 H953 0.985 . S
N941 C943 1.356 . S
N941 H946 0.984 . S
N941 H947 0.985 . S
C942 C936 1.379 . S
C942 C939 1.363 . S
C942 N940 1.356 . S
C943 C937 1.363 . S
C943 C938 1.379 . S
C943 N941 1.356 . S
N944 C936 1.356 . S
N944 H950 0.984 . S
N944 H951 0.984 . S
N945 C938 1.356 . S
N945 H948 0.984 . S
N945 H949 0.985 . S
H946 N941 0.984 . S
H947 N941 0.985 . S
H948 N945 0.984 . S
H949 N945 0.985 . S
H950 N944 0.984 . S
H951 N944 0.984 . S
H952 N940 0.984 . S
H953 N940 0.985 . S
C954 C955 1.363 . S
C954 C960 1.379 . S
C954 N962 1.356 . S
C955 C954 1.363 . S
C955 C961 1.363 . S
C956 C957 1.363 . S
C956 C961 1.379 . S
C956 N963 1.356 . S
C957 C956 1.363 . S
C957 C960 1.363 . S
N958 C960 1.356 . S
N958 H970 0.984 . S
N958 H971 0.985 . S
N959 C961 1.356 . S
N959 H964 0.984 . S
N959 H965 0.985 . S
C960 C954 1.379 . S
C960 C957 1.363 . S
C960 N958 1.356 . S
C961 C955 1.363 . S
C961 C956 1.379 . S
C961 N959 1.356 . S
N962 C954 1.356 . S
N962 H968 0.984 . S
N962 H969 0.984 . S
N963 C956 1.356 . S
N963 H966 0.984 1_565 S
N963 H967 0.985 1_565 S
H964 N959 0.984 . S
H965 N959 0.985 . S
H966 N963 0.984 1_545 S
H967 N963 0.985 1_545 S
H968 N962 0.984 . S
H969 N962 0.984 . S
H970 N958 0.984 . S
H971 N958 0.985 . S
C972 C973 1.363 . S
C972 C978 1.379 . S
C972 N980 1.356 . S
C973 C972 1.363 . S
C973 C979 1.363 . S
C974 C975 1.363 1_565 S
C974 C979 1.379 . S
C974 N981 1.356 1_565 S
C975 C974 1.363 1_545 S
C975 C978 1.363 1_545 S
N976 C978 1.356 1_545 S
N976 H988 0.982 1_545 S
N976 H989 0.985 . S
N977 C979 1.356 . S
N977 H982 0.984 . S
N977 H983 0.985 . S
C978 C972 1.379 . S
C978 C975 1.363 1_565 S
C978 N976 1.356 1_565 S
C979 C973 1.363 . S
C979 C974 1.379 . S
C979 N977 1.356 . S
N980 C972 1.356 . S
N980 H986 0.984 . S
N980 H987 0.984 . S
N981 C974 1.356 1_545 S
N981 H984 0.984 . S
N981 H985 0.985 . S
H982 N977 0.984 . S
H983 N977 0.985 . S
H984 N981 0.984 . S
H985 N981 0.985 . S
H986 N980 0.984 . S
H987 N980 0.984 . S
H988 N976 0.982 1_565 S
H989 N976 0.985 . S
C990 C991 1.363 . S
C990 C996 1.379 . S
C990 N998 1.356 . S
C991 C990 1.363 . S
C991 C997 1.363 . S
C992 C993 1.363 . S
C992 C997 1.379 . S
C992 N999 1.356 . S
C993 C992 1.363 . S
C993 C996 1.363 . S
N994 C996 1.356 . S
N994 H1006 0.984 . S
N994 H1007 0.985 . S
N995 C997 1.356 . S
N995 H1000 0.984 . S
N995 H1001 0.985 . S
C996 C990 1.379 . S
C996 C993 1.363 . S
C996 N994 1.356 . S
C997 C991 1.363 . S
C997 C992 1.379 . S
C997 N995 1.356 . S
N998 C990 1.356 . S
N998 H1004 0.984 . S
N998 H1005 0.984 . S
N999 C992 1.356 . S
N999 H1002 0.984 . S
N999 H1003 0.985 . S
H1000 N995 0.984 . S
H1001 N995 0.985 . S
H1002 N999 0.984 . S
H1003 N999 0.985 . S
H1004 N998 0.984 . S
H1005 N998 0.984 . S
H1006 N994 0.984 . S
H1007 N994 0.985 . S
C1008 C1009 1.363 . S
C1008 C1014 1.379 . S
C1008 N1016 1.356 . S
C1009 C1008 1.363 . S
C1009 C1015 1.363 . S
C1010 C1011 1.363 . S
C1010 C1015 1.379 . S
C1010 N1017 1.356 . S
C1011 C1010 1.363 . S
C1011 C1014 1.363 . S
N1012 C1014 1.356 . S
N1012 H1024 0.984 . S
N1012 H1025 0.985 . S
N1013 C1015 1.356 . S
N1013 H1018 0.984 . S
N1013 H1019 0.985 . S
C1014 C1008 1.379 . S
C1014 C1011 1.363 . S
C1014 N1012 1.356 . S
C1015 C1009 1.363 . S
C1015 C1010 1.379 . S
C1015 N1013 1.356 . S
N1016 C1008 1.356 . S
N1016 H1022 0.984 . S
N1016 H1023 0.984 . S
N1017 C1010 1.356 . S
N1017 H1020 0.984 . S
N1017 H1021 0.985 . S
H1018 N1013 0.984 . S
H1019 N1013 0.985 . S
H1020 N1017 0.984 . S
H1021 N1017 0.985 . S
H1022 N1016 0.984 . S
H1023 N1016 0.984 . S
H1024 N1012 0.984 . S
H1025 N1012 0.985 . S
C1026 C1027 1.363 . S
C1026 C1032 1.379 . S
C1026 N1034 1.356 . S
C1027 C1026 1.363 . S
C1027 C1033 1.363 . S
C1028 C1029 1.363 . S
C1028 C1033 1.379 . S
C1028 N1035 1.356 . S
C1029 C1028 1.363 . S
C1029 C1032 1.363 . S
N1030 C1032 1.356 . S
N1030 H1042 0.984 . S
N1030 H1043 0.985 . S
N1031 C1033 1.356 . S
N1031 H1036 0.984 . S
N1031 H1037 0.985 . S
C1032 C1026 1.379 . S
C1032 C1029 1.363 . S
C1032 N1030 1.356 . S
C1033 C1027 1.363 . S
C1033 C1028 1.379 . S
C1033 N1031 1.356 . S
N1034 C1026 1.356 . S
N1034 H1040 0.984 . S
N1034 H1041 0.984 . S
N1035 C1028 1.356 . S
N1035 H1038 0.984 . S
N1035 H1039 0.985 . S
H1036 N1031 0.984 . S
H1037 N1031 0.985 . S
H1038 N1035 0.984 . S
H1039 N1035 0.985 . S
H1040 N1034 0.984 . S
H1041 N1034 0.984 . S
H1042 N1030 0.984 . S
H1043 N1030 0.985 . S
C1044 C1045 1.363 . S
C1044 C1050 1.379 1_565 S
C1044 N1052 1.356 . S
C1045 C1044 1.363 . S
C1045 C1051 1.363 1_565 S
C1046 C1047 1.363 . S
C1046 C1051 1.379 . S
C1046 N1053 1.356 . S
C1047 C1046 1.363 . S
C1047 C1050 1.363 . S
N1048 C1050 1.356 . S
N1048 H1060 0.984 1_545 S
N1048 H1061 0.985 . S
N1049 C1051 1.356 . S
N1049 H1054 0.984 . S
N1049 H1055 0.985 . S
C1050 C1044 1.379 1_545 S
C1050 C1047 1.363 . S
C1050 N1048 1.356 . S
C1051 C1045 1.363 1_545 S
C1051 C1046 1.379 . S
C1051 N1049 1.356 . S
N1052 C1044 1.356 . S
N1052 H1058 0.984 . S
N1052 H1059 0.984 . S
N1053 C1046 1.356 . S
N1053 H1056 0.984 . S
N1053 H1057 0.985 . S
H1054 N1049 0.984 . S
H1055 N1049 0.985 . S
H1056 N1053 0.984 . S
H1057 N1053 0.985 . S
H1058 N1052 0.984 . S
H1059 N1052 0.984 . S
H1060 N1048 0.984 1_565 S
H1061 N1048 0.985 . S
C1062 C1063 1.363 . S
C1062 C1068 1.379 . S
C1062 N1070 1.356 . S
C1063 C1062 1.363 . S
C1063 C1069 1.363 . S
C1064 C1065 1.363 . S
C1064 C1069 1.379 . S
C1064 N1071 1.356 . S
C1065 C1064 1.363 . S
C1065 C1068 1.363 . S
N1066 C1068 1.356 . S
N1066 H1078 0.984 . S
N1066 H1079 0.985 . S
N1067 C1069 1.356 . S
N1067 H1072 0.984 . S
N1067 H1073 0.985 . S
C1068 C1062 1.379 . S
C1068 C1065 1.363 . S
C1068 N1066 1.356 . S
C1069 C1063 1.363 . S
C1069 C1064 1.379 . S
C1069 N1067 1.356 . S
N1070 C1062 1.356 . S
N1070 H1076 0.984 . S
N1070 H1077 0.984 . S
N1071 C1064 1.356 . S
N1071 H1074 0.984 . S
N1071 H1075 0.985 . S
H1072 N1067 0.984 . S
H1073 N1067 0.985 . S
H1074 N1071 0.984 . S
H1075 N1071 0.985 . S
H1076 N1070 0.984 . S
H1077 N1070 0.984 . S
H1078 N1066 0.984 . S
H1079 N1066 0.985 . S
C1080 C1081 1.363 . S
C1080 C1086 1.379 . S
C1080 N1088 1.356 . S
C1081 C1080 1.363 . S
C1081 C1087 1.363 . S
C1082 C1083 1.363 . S
C1082 C1087 1.379 . S
C1082 N1089 1.356 . S
C1083 C1082 1.363 . S
C1083 C1086 1.363 . S
N1084 C1086 1.356 . S
N1084 H1096 0.984 . S
N1084 H1097 0.985 . S
N1085 C1087 1.356 . S
N1085 H1090 0.984 . S
N1085 H1091 0.985 . S
C1086 C1080 1.379 . S
C1086 C1083 1.363 . S
C1086 N1084 1.356 . S
C1087 C1081 1.363 . S
C1087 C1082 1.379 . S
C1087 N1085 1.356 . S
N1088 C1080 1.356 . S
N1088 H1094 0.984 . S
N1088 H1095 0.984 . S
N1089 C1082 1.356 . S
N1089 H1092 0.984 . S
N1089 H1093 0.985 . S
H1090 N1085 0.984 . S
H1091 N1085 0.985 . S
H1092 N1089 0.984 . S
H1093 N1089 0.985 . S
H1094 N1088 0.984 . S
H1095 N1088 0.984 . S
H1096 N1084 0.984 . S
H1097 N1084 0.985 . S
C1098 C1099 1.363 . S
C1098 C1104 1.379 . S
C1098 N1106 1.356 . S
C1099 C1098 1.363 . S
C1099 C1105 1.363 . S
C1100 C1101 1.363 . S
C1100 C1105 1.379 . S
C1100 N1107 1.356 1_655 S
C1101 C1100 1.363 . S
C1101 C1104 1.363 . S
N1102 C1104 1.356 . S
N1102 H1114 0.984 . S
N1102 H1115 0.985 . S
N1103 C1105 1.356 . S
N1103 H1108 0.984 . S
N1103 H1109 0.985 . S
C1104 C1098 1.379 . S
C1104 C1101 1.363 . S
C1104 N1102 1.356 . S
C1105 C1099 1.363 . S
C1105 C1100 1.379 . S
C1105 N1103 1.356 . S
N1106 C1098 1.356 . S
N1106 H1112 0.984 . S
N1106 H1113 0.984 . S
N1107 C1100 1.356 1_455 S
N1107 H1110 0.984 . S
N1107 H1111 0.985 . S
H1108 N1103 0.984 . S
H1109 N1103 0.985 . S
H1110 N1107 0.984 . S
H1111 N1107 0.985 . S
H1112 N1106 0.984 . S
H1113 N1106 0.984 . S
H1114 N1102 0.984 . S
H1115 N1102 0.985 . S
C1116 C1117 1.363 . S
C1116 C1122 1.379 . S
C1116 N1124 1.356 . S
C1117 C1116 1.363 . S
C1117 C1123 1.363 . S
C1118 C1119 1.363 . S
C1118 C1123 1.379 . S
C1118 N1125 1.356 . S
C1119 C1118 1.363 . S
C1119 C1122 1.363 . S
N1120 C1122 1.356 . S
N1120 H1132 0.984 . S
N1120 H1133 0.985 . S
N1121 C1123 1.356 . S
N1121 H1126 0.984 . S
N1121 H1127 0.985 . S
C1122 C1116 1.379 . S
C1122 C1119 1.363 . S
C1122 N1120 1.356 . S
C1123 C1117 1.363 . S
C1123 C1118 1.379 . S
C1123 N1121 1.356 . S
N1124 C1116 1.356 . S
N1124 H1130 0.984 . S
N1124 H1131 0.984 . S
N1125 C1118 1.356 . S
N1125 H1128 0.984 . S
N1125 H1129 0.985 . S
H1126 N1121 0.984 . S
H1127 N1121 0.985 . S
H1128 N1125 0.984 . S
H1129 N1125 0.985 . S
H1130 N1124 0.984 . S
H1131 N1124 0.984 . S
H1132 N1120 0.984 . S
H1133 N1120 0.985 . S
C1134 C1135 1.363 . S
C1134 C1140 1.379 . S
C1134 N1142 1.356 . S
C1135 C1134 1.363 . S
C1135 C1141 1.363 . S
C1136 C1137 1.363 . S
C1136 C1141 1.379 . S
C1136 N1143 1.356 . S
C1137 C1136 1.363 . S
C1137 C1140 1.363 . S
N1138 C1140 1.356 . S
N1138 H1150 0.984 . S
N1138 H1151 0.985 . S
N1139 C1141 1.356 . S
N1139 H1144 0.984 . S
N1139 H1145 0.985 . S
C1140 C1134 1.379 . S
C1140 C1137 1.363 . S
C1140 N1138 1.356 . S
C1141 C1135 1.363 . S
C1141 C1136 1.379 . S
C1141 N1139 1.356 . S
N1142 C1134 1.356 . S
N1142 H1148 0.984 . S
N1142 H1149 0.984 . S
N1143 C1136 1.356 . S
N1143 H1146 0.984 . S
N1143 H1147 0.985 . S
H1144 N1139 0.984 . S
H1145 N1139 0.985 . S
H1146 N1143 0.984 . S
H1147 N1143 0.985 . S
H1148 N1142 0.984 . S
H1149 N1142 0.984 . S
H1150 N1138 0.984 . S
H1151 N1138 0.985 . S
C1152 C1153 1.363 . S
C1152 C1158 1.379 . S
C1152 N1160 1.356 . S
C1153 C1152 1.363 . S
C1153 C1159 1.363 . S
C1154 C1155 1.363 . S
C1154 C1159 1.379 . S
C1154 N1161 1.356 . S
C1155 C1154 1.363 . S
C1155 C1158 1.363 . S
N1156 C1158 1.356 . S
N1156 H1168 0.984 . S
N1156 H1169 0.985 . S
N1157 C1159 1.356 . S
N1157 H1162 0.984 . S
N1157 H1163 0.985 . S
C1158 C1152 1.379 . S
C1158 C1155 1.363 . S
C1158 N1156 1.356 . S
C1159 C1153 1.363 . S
C1159 C1154 1.379 . S
C1159 N1157 1.356 . S
N1160 C1152 1.356 . S
N1160 H1166 0.984 . S
N1160 H1167 0.984 . S
N1161 C1154 1.356 . S
N1161 H1164 0.984 . S
N1161 H1165 0.985 . S
H1162 N1157 0.984 . S
H1163 N1157 0.985 . S
H1164 N1161 0.984 . S
H1165 N1161 0.985 . S
H1166 N1160 0.984 . S
H1167 N1160 0.984 . S
H1168 N1156 0.984 . S
H1169 N1156 0.985 . S
C1170 C1171 1.363 . S
C1170 C1176 1.379 . S
C1170 N1178 1.356 . S
C1171 C1170 1.363 . S
C1171 C1177 1.363 . S
C1172 C1173 1.363 . S
C1172 C1177 1.379 . S
C1172 N1179 1.356 . S
C1173 C1172 1.363 . S
C1173 C1176 1.363 . S
N1174 C1176 1.356 . S
N1174 H1186 0.984 . S
N1174 H1187 0.985 1_655 S
N1175 C1177 1.356 . S
N1175 H1180 0.984 . S
N1175 H1181 0.985 . S
C1176 C1170 1.379 . S
C1176 C1173 1.363 . S
C1176 N1174 1.356 . S
C1177 C1171 1.363 . S
C1177 C1172 1.379 . S
C1177 N1175 1.356 . S
N1178 C1170 1.356 . S
N1178 H1184 0.984 . S
N1178 H1185 0.984 . S
N1179 C1172 1.356 . S
N1179 H1182 0.984 . S
N1179 H1183 0.985 . S
H1180 N1175 0.984 . S
H1181 N1175 0.985 . S
H1182 N1179 0.984 . S
H1183 N1179 0.985 . S
H1184 N1178 0.984 . S
H1185 N1178 0.984 . S
H1186 N1174 0.984 . S
H1187 N1174 0.985 1_455 S
C1188 C1189 1.363 . S
C1188 C1194 1.379 . S
C1188 N1196 1.356 . S
C1189 C1188 1.363 . S
C1189 C1195 1.363 . S
C1190 C1191 1.363 . S
C1190 C1195 1.379 . S
C1190 N1197 1.356 . S
C1191 C1190 1.363 . S
C1191 C1194 1.363 . S
N1192 C1194 1.356 . S
N1192 H1204 0.984 . S
N1192 H1205 0.985 . S
N1193 C1195 1.356 . S
N1193 H1198 0.984 . S
N1193 H1199 0.985 . S
C1194 C1188 1.379 . S
C1194 C1191 1.363 . S
C1194 N1192 1.356 . S
C1195 C1189 1.363 . S
C1195 C1190 1.379 . S
C1195 N1193 1.356 . S
N1196 C1188 1.356 . S
N1196 H1202 0.984 . S
N1196 H1203 0.984 . S
N1197 C1190 1.356 . S
N1197 H1200 0.984 . S
N1197 H1201 0.985 . S
H1198 N1193 0.984 . S
H1199 N1193 0.985 . S
H1200 N1197 0.984 . S
H1201 N1197 0.985 . S
H1202 N1196 0.984 . S
H1203 N1196 0.984 . S
H1204 N1192 0.984 . S
H1205 N1192 0.985 . S
C1206 C1207 1.363 . S
C1206 C1212 1.379 . S
C1206 N1214 1.356 . S
C1207 C1206 1.363 . S
C1207 C1213 1.363 . S
C1208 C1209 1.363 . S
C1208 C1213 1.379 . S
C1208 N1215 1.356 . S
C1209 C1208 1.363 . S
C1209 C1212 1.363 . S
N1210 C1212 1.356 . S
N1210 H1222 0.984 . S
N1210 H1223 0.985 . S
N1211 C1213 1.356 . S
N1211 H1216 0.984 . S
N1211 H1217 0.985 . S
C1212 C1206 1.379 . S
C1212 C1209 1.363 . S
C1212 N1210 1.356 . S
C1213 C1207 1.363 . S
C1213 C1208 1.379 . S
C1213 N1211 1.356 . S
N1214 C1206 1.356 . S
N1214 H1220 0.984 . S
N1214 H1221 0.984 . S
N1215 C1208 1.356 . S
N1215 H1218 0.984 . S
N1215 H1219 0.985 . S
H1216 N1211 0.984 . S
H1217 N1211 0.985 . S
H1218 N1215 0.984 . S
H1219 N1215 0.985 . S
H1220 N1214 0.984 . S
H1221 N1214 0.984 . S
H1222 N1210 0.984 . S
H1223 N1210 0.985 . S
C1224 C1225 1.363 . S
C1224 C1230 1.380 1_655 S
C1224 N1232 1.356 . S
C1225 C1224 1.363 . S
C1225 C1231 1.363 . S
C1226 C1227 1.363 1_655 S
C1226 C1231 1.379 . S
C1226 N1233 1.356 1_655 S
C1227 C1226 1.363 1_455 S
C1227 C1230 1.363 . S
N1228 C1230 1.355 . S
N1228 H1240 0.984 . S
N1228 H1241 0.985 . S
N1229 C1231 1.356 . S
N1229 H1234 0.984 . S
N1229 H1235 0.985 . S
C1230 C1224 1.380 1_455 S
C1230 C1227 1.363 . S
C1230 N1228 1.355 . S
C1231 C1225 1.363 . S
C1231 C1226 1.379 . S
C1231 N1229 1.356 . S
N1232 C1224 1.356 . S
N1232 H1238 0.984 . S
N1232 H1239 0.984 . S
N1233 C1226 1.356 1_455 S
N1233 H1236 0.984 . S
N1233 H1237 0.985 . S
H1234 N1229 0.984 . S
H1235 N1229 0.985 . S
H1236 N1233 0.984 . S
H1237 N1233 0.985 . S
H1238 N1232 0.984 . S
H1239 N1232 0.984 . S
H1240 N1228 0.984 . S
H1241 N1228 0.985 . S
C1242 C1243 1.363 . S
C1242 C1248 1.379 . S
C1242 N1250 1.356 . S
C1243 C1242 1.363 . S
C1243 C1249 1.363 . S
C1244 C1245 1.363 . S
C1244 C1249 1.379 . S
C1244 N1251 1.356 . S
C1245 C1244 1.363 . S
C1245 C1248 1.363 . S
N1246 C1248 1.356 . S
N1246 H1258 0.984 . S
N1246 H1259 0.985 . S
N1247 C1249 1.356 . S
N1247 H1252 0.984 . S
N1247 H1253 0.985 . S
C1248 C1242 1.379 . S
C1248 C1245 1.363 . S
C1248 N1246 1.356 . S
C1249 C1243 1.363 . S
C1249 C1244 1.379 . S
C1249 N1247 1.356 . S
N1250 C1242 1.356 . S
N1250 H1256 0.984 . S
N1250 H1257 0.984 . S
N1251 C1244 1.356 . S
N1251 H1254 0.984 . S
N1251 H1255 0.985 . S
H1252 N1247 0.984 . S
H1253 N1247 0.985 . S
H1254 N1251 0.984 . S
H1255 N1251 0.985 . S
H1256 N1250 0.984 . S
H1257 N1250 0.984 . S
H1258 N1246 0.984 . S
H1259 N1246 0.985 . S
C1260 C1261 1.363 . S
C1260 C1266 1.379 . S
C1260 N1268 1.356 . S
C1261 C1260 1.363 . S
C1261 C1267 1.363 . S
C1262 C1263 1.363 . S
C1262 C1267 1.379 . S
C1262 N1269 1.356 . S
C1263 C1262 1.363 . S
C1263 C1266 1.363 . S
N1264 C1266 1.356 . S
N1264 H1276 0.984 . S
N1264 H1277 0.985 . S
N1265 C1267 1.356 . S
N1265 H1270 0.984 . S
N1265 H1271 0.985 . S
C1266 C1260 1.379 . S
C1266 C1263 1.363 . S
C1266 N1264 1.356 . S
C1267 C1261 1.363 . S
C1267 C1262 1.379 . S
C1267 N1265 1.356 . S
N1268 C1260 1.356 . S
N1268 H1274 0.984 . S
N1268 H1275 0.984 . S
N1269 C1262 1.356 . S
N1269 H1272 0.984 . S
N1269 H1273 0.985 . S
H1270 N1265 0.984 . S
H1271 N1265 0.985 . S
H1272 N1269 0.984 . S
H1273 N1269 0.985 . S
H1274 N1268 0.984 . S
H1275 N1268 0.984 . S
H1276 N1264 0.984 . S
H1277 N1264 0.985 . S
C1278 C1279 1.363 . S
C1278 C1284 1.379 . S
C1278 N1286 1.356 . S
C1279 C1278 1.363 . S
C1279 C1285 1.363 . S
C1280 C1281 1.363 . S
C1280 C1285 1.379 . S
C1280 N1287 1.356 . S
C1281 C1280 1.363 . S
C1281 C1284 1.363 . S
N1282 C1284 1.356 . S
N1282 H1294 0.984 . S
N1282 H1295 0.985 . S
N1283 C1285 1.356 . S
N1283 H1288 0.984 . S
N1283 H1289 0.985 . S
C1284 C1278 1.379 . S
C1284 C1281 1.363 . S
C1284 N1282 1.356 . S
C1285 C1279 1.363 . S
C1285 C1280 1.379 . S
C1285 N1283 1.356 . S
N1286 C1278 1.356 . S
N1286 H1292 0.984 . S
N1286 H1293 0.984 . S
N1287 C1280 1.356 . S
N1287 H1290 0.984 . S
N1287 H1291 0.985 . S
H1288 N1283 0.984 . S
H1289 N1283 0.985 . S
H1290 N1287 0.984 . S
H1291 N1287 0.985 . S
H1292 N1286 0.984 . S
H1293 N1286 0.984 . S
H1294 N1282 0.984 . S
H1295 N1282 0.985 . S
C1296 C1297 1.363 . S
C1296 C1302 1.379 . S
C1296 N1304 1.356 . S
C1297 C1296 1.363 . S
C1297 C1303 1.363 1_455 S
C1298 C1299 1.367 1_655 S
C1298 C1303 1.376 . S
C1298 N1305 1.356 . S
C1299 C1298 1.367 1_455 S
C1299 C1302 1.363 . S
N1300 C1302 1.356 . S
N1300 H1312 0.984 . S
N1300 H1313 0.985 . S
N1301 C1303 1.356 . S
N1301 H1306 0.984 . S
N1301 H1307 0.985 . S
C1302 C1296 1.379 . S
C1302 C1299 1.363 . S
C1302 N1300 1.356 . S
C1303 C1297 1.363 1_655 S
C1303 C1298 1.376 . S
C1303 N1301 1.356 . S
N1304 C1296 1.356 . S
N1304 H1310 0.984 . S
N1304 H1311 0.984 . S
N1305 C1298 1.356 . S
N1305 H1308 0.984 . S
N1305 H1309 0.985 . S
H1306 N1301 0.984 . S
H1307 N1301 0.985 . S
H1308 N1305 0.984 . S
H1309 N1305 0.985 . S
H1310 N1304 0.984 . S
H1311 N1304 0.984 . S
H1312 N1300 0.984 . S
H1313 N1300 0.985 . S
C1314 C1315 1.363 . S
C1314 C1320 1.379 . S
C1314 N1322 1.356 . S
C1315 C1314 1.363 . S
C1315 C1321 1.363 . S
C1316 C1317 1.363 . S
C1316 C1321 1.379 . S
C1316 N1323 1.356 . S
C1317 C1316 1.363 . S
C1317 C1320 1.363 . S
N1318 C1320 1.356 . S
N1318 H1330 0.984 . S
N1318 H1331 0.985 . S
N1319 C1321 1.356 . S
N1319 H1324 0.984 . S
N1319 H1325 0.985 . S
C1320 C1314 1.379 . S
C1320 C1317 1.363 . S
C1320 N1318 1.356 . S
C1321 C1315 1.363 . S
C1321 C1316 1.379 . S
C1321 N1319 1.356 . S
N1322 C1314 1.356 . S
N1322 H1328 0.984 . S
N1322 H1329 0.984 . S
N1323 C1316 1.356 . S
N1323 H1326 0.984 . S
N1323 H1327 0.985 . S
H1324 N1319 0.984 . S
H1325 N1319 0.985 . S
H1326 N1323 0.984 . S
H1327 N1323 0.985 . S
H1328 N1322 0.984 . S
H1329 N1322 0.984 . S
H1330 N1318 0.984 . S
H1331 N1318 0.985 . S
C1332 C1333 1.363 . S
C1332 C1338 1.379 . S
C1332 N1340 1.356 . S
C1333 C1332 1.363 . S
C1333 C1339 1.363 . S
C1334 C1335 1.363 . S
C1334 C1339 1.379 . S
C1334 N1341 1.356 . S
C1335 C1334 1.363 . S
C1335 C1338 1.363 . S
N1336 C1338 1.356 1_565 S
N1336 H1348 0.984 . S
N1336 H1349 0.985 . S
N1337 C1339 1.356 . S
N1337 H1342 0.984 . S
N1337 H1343 0.985 . S
C1338 C1332 1.379 . S
C1338 C1335 1.363 . S
C1338 N1336 1.356 1_545 S
C1339 C1333 1.363 . S
C1339 C1334 1.379 . S
C1339 N1337 1.356 . S
N1340 C1332 1.356 . S
N1340 H1346 0.984 1_545 S
N1340 H1347 0.984 . S
N1341 C1334 1.356 . S
N1341 H1344 0.984 . S
N1341 H1345 0.985 . S
H1342 N1337 0.984 . S
H1343 N1337 0.985 . S
H1344 N1341 0.984 . S
H1345 N1341 0.985 . S
H1346 N1340 0.984 1_565 S
H1347 N1340 0.984 . S
H1348 N1336 0.984 . S
H1349 N1336 0.985 . S
C1350 C1351 1.363 . S
C1350 C1356 1.379 . S
C1350 N1358 1.356 1_545 S
C1351 C1350 1.363 . S
C1351 C1357 1.363 . S
C1352 C1353 1.363 . S
C1352 C1357 1.379 . S
C1352 N1359 1.356 . S
C1353 C1352 1.363 . S
C1353 C1356 1.363 . S
N1354 C1356 1.356 1_565 S
N1354 H1366 0.984 . S
N1354 H1367 0.985 . S
N1355 C1357 1.356 . S
N1355 H1360 0.984 . S
N1355 H1361 0.985 . S
C1356 C1350 1.379 . S
C1356 C1353 1.363 . S
C1356 N1354 1.356 1_545 S
C1357 C1351 1.363 . S
C1357 C1352 1.379 . S
C1357 N1355 1.356 . S
N1358 C1350 1.356 1_565 S
N1358 H1364 0.984 . S
N1358 H1365 0.984 . S
N1359 C1352 1.356 . S
N1359 H1362 0.984 . S
N1359 H1363 0.985 . S
H1360 N1355 0.984 . S
H1361 N1355 0.985 . S
H1362 N1359 0.984 . S
H1363 N1359 0.985 . S
H1364 N1358 0.984 . S
H1365 N1358 0.984 . S
H1366 N1354 0.984 . S
H1367 N1354 0.985 . S
C1368 C1369 1.363 . S
C1368 C1374 1.379 . S
C1368 N1376 1.356 . S
C1369 C1368 1.363 . S
C1369 C1375 1.363 . S
C1370 C1371 1.363 . S
C1370 C1375 1.379 . S
C1370 N1377 1.356 . S
C1371 C1370 1.363 . S
C1371 C1374 1.363 . S
N1372 C1374 1.356 . S
N1372 H1384 0.984 . S
N1372 H1385 0.985 . S
N1373 C1375 1.356 . S
N1373 H1378 0.984 . S
N1373 H1379 0.985 . S
C1374 C1368 1.379 . S
C1374 C1371 1.363 . S
C1374 N1372 1.356 . S
C1375 C1369 1.363 . S
C1375 C1370 1.379 . S
C1375 N1373 1.356 . S
N1376 C1368 1.356 . S
N1376 H1382 0.984 . S
N1376 H1383 0.984 . S
N1377 C1370 1.356 . S
N1377 H1380 0.984 . S
N1377 H1381 0.985 . S
H1378 N1373 0.984 . S
H1379 N1373 0.985 . S
H1380 N1377 0.984 . S
H1381 N1377 0.985 . S
H1382 N1376 0.984 . S
H1383 N1376 0.984 . S
H1384 N1372 0.984 . S
H1385 N1372 0.985 . S
C1386 C1387 1.363 . S
C1386 C1392 1.379 . S
C1386 N1394 1.356 . S
C1387 C1386 1.363 . S
C1387 C1393 1.363 . S
C1388 C1389 1.363 . S
C1388 C1393 1.379 . S
C1388 N1395 1.356 . S
C1389 C1388 1.363 . S
C1389 C1392 1.363 . S
N1390 C1392 1.356 . S
N1390 H1402 0.984 . S
N1390 H1403 0.985 . S
N1391 C1393 1.356 . S
N1391 H1396 0.984 . S
N1391 H1397 0.985 . S
C1392 C1386 1.379 . S
C1392 C1389 1.363 . S
C1392 N1390 1.356 . S
C1393 C1387 1.363 . S
C1393 C1388 1.379 . S
C1393 N1391 1.356 . S
N1394 C1386 1.356 . S
N1394 H1400 0.984 . S
N1394 H1401 0.984 . S
N1395 C1388 1.356 . S
N1395 H1398 0.984 . S
N1395 H1399 0.985 . S
H1396 N1391 0.984 . S
H1397 N1391 0.985 . S
H1398 N1395 0.984 . S
H1399 N1395 0.985 . S
H1400 N1394 0.984 . S
H1401 N1394 0.984 . S
H1402 N1390 0.984 . S
H1403 N1390 0.985 . S
C1404 C1405 1.363 1_655 S
C1404 C1410 1.379 . S
C1404 N1412 1.356 . S
C1405 C1404 1.363 1_455 S
C1405 C1411 1.363 . S
C1406 C1407 1.363 . S
C1406 C1411 1.379 . S
C1406 N1413 1.356 . S
C1407 C1406 1.363 . S
C1407 C1410 1.363 1_455 S
N1408 C1410 1.356 . S
N1408 H1420 0.984 . S
N1408 H1421 0.985 . S
N1409 C1411 1.356 . S
N1409 H1414 0.984 . S
N1409 H1415 0.985 . S
C1410 C1404 1.379 . S
C1410 C1407 1.363 1_655 S
C1410 N1408 1.356 . S
C1411 C1405 1.363 . S
C1411 C1406 1.379 . S
C1411 N1409 1.356 . S
N1412 C1404 1.356 . S
N1412 H1418 0.984 . S
N1412 H1419 0.984 . S
N1413 C1406 1.356 . S
N1413 H1416 0.984 . S
N1413 H1417 0.985 . S
H1414 N1409 0.984 . S
H1415 N1409 0.985 . S
H1416 N1413 0.984 . S
H1417 N1413 0.985 . S
H1418 N1412 0.984 . S
H1419 N1412 0.984 . S
H1420 N1408 0.984 . S
H1421 N1408 0.985 . S
C1422 C1423 1.363 . S
C1422 C1428 1.379 . S
C1422 N1430 1.356 . S
C1423 C1422 1.363 . S
C1423 C1429 1.363 . S
C1424 C1425 1.363 . S
C1424 C1429 1.379 . S
C1424 N1431 1.356 . S
C1425 C1424 1.363 . S
C1425 C1428 1.363 . S
N1426 C1428 1.356 . S
N1426 H1438 0.984 . S
N1426 H1439 0.985 . S
N1427 C1429 1.356 . S
N1427 H1432 0.984 . S
N1427 H1433 0.985 . S
C1428 C1422 1.379 . S
C1428 C1425 1.363 . S
C1428 N1426 1.356 . S
C1429 C1423 1.363 . S
C1429 C1424 1.379 . S
C1429 N1427 1.356 . S
N1430 C1422 1.356 . S
N1430 H1436 0.984 . S
N1430 H1437 0.984 . S
N1431 C1424 1.356 . S
N1431 H1434 0.984 . S
N1431 H1435 0.985 . S
H1432 N1427 0.984 . S
H1433 N1427 0.985 . S
H1434 N1431 0.984 . S
H1435 N1431 0.985 . S
H1436 N1430 0.984 . S
H1437 N1430 0.984 . S
H1438 N1426 0.984 . S
H1439 N1426 0.985 . S
C1440 C1441 1.363 . S
C1440 C1446 1.379 . S
C1440 N1448 1.356 . S
C1441 C1440 1.363 . S
C1441 C1447 1.363 . S
C1442 C1443 1.363 . S
C1442 C1447 1.379 . S
C1442 N1449 1.356 . S
C1443 C1442 1.363 . S
C1443 C1446 1.363 . S
N1444 C1446 1.356 . S
N1444 H1456 0.984 . S
N1444 H1457 0.985 . S
N1445 C1447 1.356 . S
N1445 H1450 0.984 . S
N1445 H1451 0.985 . S
C1446 C1440 1.379 . S
C1446 C1443 1.363 . S
C1446 N1444 1.356 . S
C1447 C1441 1.363 . S
C1447 C1442 1.379 . S
C1447 N1445 1.356 . S
N1448 C1440 1.356 . S
N1448 H1454 0.984 . S
N1448 H1455 0.984 . S
N1449 C1442 1.356 . S
N1449 H1452 0.984 . S
N1449 H1453 0.985 . S
H1450 N1445 0.984 . S
H1451 N1445 0.985 . S
H1452 N1449 0.984 . S
H1453 N1449 0.985 . S
H1454 N1448 0.984 . S
H1455 N1448 0.984 . S
H1456 N1444 0.984 . S
H1457 N1444 0.985 . S
C1458 C1459 1.363 . S
C1458 C1464 1.379 . S
C1458 N1466 1.356 . S
C1459 C1458 1.363 . S
C1459 C1465 1.363 . S
C1460 C1461 1.363 . S
C1460 C1465 1.379 . S
C1460 N1467 1.356 . S
C1461 C1460 1.363 . S
C1461 C1464 1.363 . S
N1462 C1464 1.356 . S
N1462 H1474 0.984 . S
N1462 H1475 0.985 . S
N1463 C1465 1.356 . S
N1463 H1468 0.984 . S
N1463 H1469 0.985 1_545 S
C1464 C1458 1.379 . S
C1464 C1461 1.363 . S
C1464 N1462 1.356 . S
C1465 C1459 1.363 . S
C1465 C1460 1.379 . S
C1465 N1463 1.356 . S
N1466 C1458 1.356 . S
N1466 H1472 0.984 . S
N1466 H1473 0.984 . S
N1467 C1460 1.356 . S
N1467 H1470 0.984 . S
N1467 H1471 0.985 1_545 S
H1468 N1463 0.984 . S
H1469 N1463 0.985 1_565 S
H1470 N1467 0.984 . S
H1471 N1467 0.985 1_565 S
H1472 N1466 0.984 . S
H1473 N1466 0.984 . S
H1474 N1462 0.984 . S
H1475 N1462 0.985 . S
C1476 C1477 1.363 . S
C1476 C1482 1.379 . S
C1476 N1484 1.356 . S
C1477 C1476 1.363 . S
C1477 C1483 1.363 . S
C1478 C1479 1.363 . S
C1478 C1483 1.379 . S
C1478 N1485 1.356 . S
C1479 C1478 1.363 . S
C1479 C1482 1.363 . S
N1480 C1482 1.356 . S
N1480 H1492 0.984 . S
N1480 H1493 0.985 . S
N1481 C1483 1.356 . S
N1481 H1486 0.984 . S
N1481 H1487 0.985 . S
C1482 C1476 1.379 . S
C1482 C1479 1.363 . S
C1482 N1480 1.356 . S
C1483 C1477 1.363 . S
C1483 C1478 1.379 . S
C1483 N1481 1.356 . S
N1484 C1476 1.356 . S
N1484 H1490 0.984 . S
N1484 H1491 0.984 . S
N1485 C1478 1.356 . S
N1485 H1488 0.984 . S
N1485 H1489 0.985 . S
H1486 N1481 0.984 . S
H1487 N1481 0.985 . S
H1488 N1485 0.984 . S
H1489 N1485 0.985 . S
H1490 N1484 0.984 . S
H1491 N1484 0.984 . S
H1492 N1480 0.984 . S
H1493 N1480 0.985 . S
C1494 C1495 1.363 . S
C1494 C1500 1.379 . S
C1494 N1502 1.356 . S
C1495 C1494 1.363 . S
C1495 C1501 1.363 . S
C1496 C1497 1.363 . S
C1496 C1501 1.379 . S
C1496 N1503 1.356 . S
C1497 C1496 1.363 . S
C1497 C1500 1.363 . S
N1498 C1500 1.356 . S
N1498 H1510 0.984 . S
N1498 H1511 0.985 . S
N1499 C1501 1.356 . S
N1499 H1504 0.984 . S
N1499 H1505 0.985 . S
C1500 C1494 1.379 . S
C1500 C1497 1.363 . S
C1500 N1498 1.356 . S
C1501 C1495 1.363 . S
C1501 C1496 1.379 . S
C1501 N1499 1.356 . S
N1502 C1494 1.356 . S
N1502 H1508 0.984 . S
N1502 H1509 0.984 . S
N1503 C1496 1.356 . S
N1503 H1506 0.984 . S
N1503 H1507 0.985 . S
H1504 N1499 0.984 . S
H1505 N1499 0.985 . S
H1506 N1503 0.984 . S
H1507 N1503 0.985 . S
H1508 N1502 0.984 . S
H1509 N1502 0.984 . S
H1510 N1498 0.984 . S
H1511 N1498 0.985 . S
C1512 C1513 1.363 . S
C1512 C1518 1.379 . S
C1512 N1520 1.356 . S
C1513 C1512 1.363 . S
C1513 C1519 1.363 . S
C1514 C1515 1.363 . S
C1514 C1519 1.379 . S
C1514 N1521 1.356 . S
C1515 C1514 1.363 . S
C1515 C1518 1.363 . S
N1516 C1518 1.356 . S
N1516 H1528 0.984 . S
N1516 H1529 0.985 . S
N1517 C1519 1.356 . S
N1517 H1522 0.984 . S
N1517 H1523 0.985 . S
C1518 C1512 1.379 . S
C1518 C1515 1.363 . S
C1518 N1516 1.356 . S
C1519 C1513 1.363 . S
C1519 C1514 1.379 . S
C1519 N1517 1.356 . S
N1520 C1512 1.356 . S
N1520 H1526 0.984 . S
N1520 H1527 0.984 . S
N1521 C1514 1.356 . S
N1521 H1524 0.984 . S
N1521 H1525 0.985 . S
H1522 N1517 0.984 . S
H1523 N1517 0.985 . S
H1524 N1521 0.984 . S
H1525 N1521 0.985 . S
H1526 N1520 0.984 . S
H1527 N1520 0.984 . S
H1528 N1516 0.984 . S
H1529 N1516 0.985 . S
C1530 C1531 1.363 . S
C1530 C1536 1.379 . S
C1530 N1538 1.356 . S
C1531 C1530 1.363 . S
C1531 C1537 1.363 . S
C1532 C1533 1.363 . S
C1532 C1537 1.379 . S
C1532 N1539 1.356 . S
C1533 C1532 1.363 . S
C1533 C1536 1.363 . S
N1534 C1536 1.356 . S
N1534 H1546 0.984 . S
N1534 H1547 0.985 . S
N1535 C1537 1.356 . S
N1535 H1540 0.984 . S
N1535 H1541 0.985 . S
C1536 C1530 1.379 . S
C1536 C1533 1.363 . S
C1536 N1534 1.356 . S
C1537 C1531 1.363 . S
C1537 C1532 1.379 . S
C1537 N1535 1.356 . S
N1538 C1530 1.356 . S
N1538 H1544 0.984 . S
N1538 H1545 0.984 . S
N1539 C1532 1.356 . S
N1539 H1542 0.984 . S
N1539 H1543 0.985 . S
H1540 N1535 0.984 . S
H1541 N1535 0.985 . S
H1542 N1539 0.984 . S
H1543 N1539 0.985 . S
H1544 N1538 0.984 . S
H1545 N1538 0.984 . S
H1546 N1534 0.984 . S
H1547 N1534 0.985 . S
C1548 C1549 1.363 . S
C1548 C1554 1.379 . S
C1548 N1556 1.356 . S
C1549 C1548 1.363 . S
C1549 C1555 1.363 . S
C1550 C1551 1.363 . S
C1550 C1555 1.379 . S
C1550 N1557 1.356 . S
C1551 C1550 1.363 . S
C1551 C1554 1.363 . S
N1552 C1554 1.356 . S
N1552 H1564 0.984 . S
N1552 H1565 0.985 . S
N1553 C1555 1.356 . S
N1553 H1558 0.984 . S
N1553 H1559 0.985 . S
C1554 C1548 1.379 . S
C1554 C1551 1.363 . S
C1554 N1552 1.356 . S
C1555 C1549 1.363 . S
C1555 C1550 1.379 . S
C1555 N1553 1.356 . S
N1556 C1548 1.356 . S
N1556 H1562 0.984 . S
N1556 H1563 0.984 . S
N1557 C1550 1.356 . S
N1557 H1560 0.984 . S
N1557 H1561 0.985 . S
H1558 N1553 0.984 . S
H1559 N1553 0.985 . S
H1560 N1557 0.984 . S
H1561 N1557 0.985 . S
H1562 N1556 0.984 . S
H1563 N1556 0.984 . S
H1564 N1552 0.984 . S
H1565 N1552 0.985 . S
C1566 C1567 1.363 1_554 S
C1566 C1572 1.379 . S
C1566 N1574 1.356 . S
C1567 C1566 1.363 1_556 S
C1567 C1573 1.363 . S
C1568 C1569 1.363 . S
C1568 C1573 1.379 1_554 S
C1568 N1575 1.356 . S
C1569 C1568 1.363 . S
C1569 C1572 1.363 . S
N1570 C1572 1.356 . S
N1570 H1582 0.984 . S
N1570 H1583 0.985 . S
N1571 C1573 1.356 . S
N1571 H1576 0.984 . S
N1571 H1577 0.985 . S
C1572 C1566 1.379 . S
C1572 C1569 1.363 . S
C1572 N1570 1.356 . S
C1573 C1567 1.363 . S
C1573 C1568 1.379 1_556 S
C1573 N1571 1.356 . S
N1574 C1566 1.356 . S
N1574 H1580 0.984 . S
N1574 H1581 0.984 1_554 S
N1575 C1568 1.356 . S
N1575 H1578 0.984 . S
N1575 H1579 0.985 1_554 S
H1576 N1571 0.984 . S
H1577 N1571 0.985 . S
H1578 N1575 0.984 . S
H1579 N1575 0.985 1_556 S
H1580 N1574 0.984 . S
H1581 N1574 0.984 1_556 S
H1582 N1570 0.984 . S
H1583 N1570 0.985 . S
C1584 C1585 1.363 . S
C1584 C1590 1.400 . S
C1584 N1592 1.356 . S
C1585 C1584 1.363 . S
C1585 C1591 1.363 . S
C1586 C1587 1.363 1_556 S
C1586 C1591 1.379 . S
C1586 N1593 1.356 . S
C1587 C1586 1.363 1_554 S
C1587 C1590 1.358 1_554 S
N1588 C1590 1.336 1_554 S
N1588 H1600 0.984 . S
N1588 H1601 0.985 . S
N1589 C1591 1.356 . S
N1589 H1594 0.984 . S
N1589 H1595 0.985 . S
C1590 C1584 1.400 . S
C1590 C1587 1.358 1_556 S
C1590 N1588 1.336 1_556 S
C1591 C1585 1.363 . S
C1591 C1586 1.379 . S
C1591 N1589 1.356 . S
N1592 C1584 1.356 . S
N1592 H1598 0.984 . S
N1592 H1599 0.984 . S
N1593 C1586 1.356 . S
N1593 H1596 0.984 1_556 S
N1593 H1597 0.985 . S
H1594 N1589 0.984 . S
H1595 N1589 0.985 . S
H1596 N1593 0.984 1_554 S
H1597 N1593 0.985 . S
H1598 N1592 0.984 . S
H1599 N1592 0.984 . S
H1600 N1588 0.984 . S
H1601 N1588 0.985 . S
C1602 C1603 1.363 . S
C1602 C1608 1.379 1_556 S
C1602 N1610 1.356 . S
C1603 C1602 1.363 . S
C1603 C1609 1.363 1_556 S
C1604 C1605 1.363 . S
C1604 C1609 1.379 . S
C1604 N1611 1.356 . S
C1605 C1604 1.363 . S
C1605 C1608 1.363 . S
N1606 C1608 1.356 . S
N1606 H1618 0.984 1_565 S
N1606 H1619 0.985 . S
N1607 C1609 1.356 . S
N1607 H1612 0.984 1_554 S
N1607 H1613 0.985 . S
C1608 C1602 1.379 1_554 S
C1608 C1605 1.363 . S
C1608 N1606 1.356 . S
C1609 C1603 1.363 1_554 S
C1609 C1604 1.379 . S
C1609 N1607 1.356 . S
N1610 C1602 1.356 . S
N1610 H1616 0.984 . S
N1610 H1617 0.984 . S
N1611 C1604 1.356 . S
N1611 H1614 0.984 . S
N1611 H1615 0.985 . S
H1612 N1607 0.984 1_556 S
H1613 N1607 0.985 . S
H1614 N1611 0.984 . S
H1615 N1611 0.985 . S
H1616 N1610 0.984 . S
H1617 N1610 0.984 . S
H1618 N1606 0.984 1_545 S
H1619 N1606 0.985 . S
C1620 C1621 1.363 . S
C1620 C1626 1.379 . S
C1620 N1628 1.356 . S
C1621 C1620 1.363 . S
C1621 C1627 1.363 . S
C1622 C1623 1.363 . S
C1622 C1627 1.379 . S
C1622 N1629 1.356 . S
C1623 C1622 1.363 . S
C1623 C1626 1.363 . S
N1624 C1626 1.356 . S
N1624 H1636 0.984 . S
N1624 H1637 0.985 . S
N1625 C1627 1.356 . S
N1625 H1630 0.984 . S
N1625 H1631 0.985 . S
C1626 C1620 1.379 . S
C1626 C1623 1.363 . S
C1626 N1624 1.356 . S
C1627 C1621 1.363 . S
C1627 C1622 1.379 . S
C1627 N1625 1.356 . S
N1628 C1620 1.356 . S
N1628 H1634 0.984 . S
N1628 H1635 0.984 . S
N1629 C1622 1.356 . S
N1629 H1632 0.984 . S
N1629 H1633 0.985 . S
H1630 N1625 0.984 . S
H1631 N1625 0.985 . S
H1632 N1629 0.984 . S
H1633 N1629 0.985 . S
H1634 N1628 0.984 . S
H1635 N1628 0.984 . S
H1636 N1624 0.984 . S
H1637 N1624 0.985 . S
C1638 C1639 1.363 . S
C1638 C1644 1.379 . S
C1638 N1646 1.356 . S
C1639 C1638 1.363 . S
C1639 C1645 1.363 . S
C1640 C1641 1.363 . S
C1640 C1645 1.379 . S
C1640 N1647 1.356 . S
C1641 C1640 1.363 . S
C1641 C1644 1.363 . S
N1642 C1644 1.356 . S
N1642 H1654 0.984 . S
N1642 H1655 0.985 . S
N1643 C1645 1.356 . S
N1643 H1648 0.984 . S
N1643 H1649 0.985 . S
C1644 C1638 1.379 . S
C1644 C1641 1.363 . S
C1644 N1642 1.356 . S
C1645 C1639 1.363 . S
C1645 C1640 1.379 . S
C1645 N1643 1.356 . S
N1646 C1638 1.356 . S
N1646 H1652 0.984 . S
N1646 H1653 0.984 . S
N1647 C1640 1.356 . S
N1647 H1650 0.984 . S
N1647 H1651 0.985 . S
H1648 N1643 0.984 . S
H1649 N1643 0.985 . S
H1650 N1647 0.984 . S
H1651 N1647 0.985 . S
H1652 N1646 0.984 . S
H1653 N1646 0.984 . S
H1654 N1642 0.984 . S
H1655 N1642 0.985 . S
C1656 C1657 1.363 . S
C1656 C1662 1.379 . S
C1656 N1664 1.356 . S
C1657 C1656 1.363 . S
C1657 C1663 1.363 . S
C1658 C1659 1.363 . S
C1658 C1663 1.379 . S
C1658 N1665 1.356 . S
C1659 C1658 1.363 . S
C1659 C1662 1.363 . S
N1660 C1662 1.356 . S
N1660 H1672 0.984 . S
N1660 H1673 0.985 . S
N1661 C1663 1.356 . S
N1661 H1666 0.984 . S
N1661 H1667 0.985 . S
C1662 C1656 1.379 . S
C1662 C1659 1.363 . S
C1662 N1660 1.356 . S
C1663 C1657 1.363 . S
C1663 C1658 1.379 . S
C1663 N1661 1.356 . S
N1664 C1656 1.356 . S
N1664 H1670 0.984 . S
N1664 H1671 0.984 . S
N1665 C1658 1.356 . S
N1665 H1668 0.984 . S
N1665 H1669 0.985 . S
H1666 N1661 0.984 . S
H1667 N1661 0.985 . S
H1668 N1665 0.984 . S
H1669 N1665 0.985 . S
H1670 N1664 0.984 . S
H1671 N1664 0.984 . S
H1672 N1660 0.984 . S
H1673 N1660 0.985 . S
C1674 C1675 1.363 . S
C1674 C1680 1.379 . S
C1674 N1682 1.356 . S
C1675 C1674 1.363 . S
C1675 C1681 1.363 . S
C1676 C1677 1.363 . S
C1676 C1681 1.379 . S
C1676 N1683 1.356 . S
C1677 C1676 1.363 . S
C1677 C1680 1.363 . S
N1678 C1680 1.356 . S
N1678 H1690 0.984 . S
N1678 H1691 0.985 . S
N1679 C1681 1.356 . S
N1679 H1684 0.984 . S
N1679 H1685 0.985 . S
C1680 C1674 1.379 . S
C1680 C1677 1.363 . S
C1680 N1678 1.356 . S
C1681 C1675 1.363 . S
C1681 C1676 1.379 . S
C1681 N1679 1.356 . S
N1682 C1674 1.356 . S
N1682 H1688 0.984 . S
N1682 H1689 0.984 . S
N1683 C1676 1.356 . S
N1683 H1686 0.984 . S
N1683 H1687 0.985 . S
H1684 N1679 0.984 . S
H1685 N1679 0.985 . S
H1686 N1683 0.984 . S
H1687 N1683 0.985 . S
H1688 N1682 0.984 . S
H1689 N1682 0.984 . S
H1690 N1678 0.984 . S
H1691 N1678 0.985 . S
C1692 C1693 1.363 . S
C1692 C1698 1.379 . S
C1692 N1700 1.356 . S
C1693 C1692 1.363 . S
C1693 C1699 1.363 . S
C1694 C1695 1.363 . S
C1694 C1699 1.379 . S
C1694 N1701 1.356 . S
C1695 C1694 1.363 . S
C1695 C1698 1.363 . S
N1696 C1698 1.356 . S
N1696 H1708 0.984 . S
N1696 H1709 0.985 . S
N1697 C1699 1.356 . S
N1697 H1702 0.984 . S
N1697 H1703 0.985 . S
C1698 C1692 1.379 . S
C1698 C1695 1.363 . S
C1698 N1696 1.356 . S
C1699 C1693 1.363 . S
C1699 C1694 1.379 . S
C1699 N1697 1.356 . S
N1700 C1692 1.356 . S
N1700 H1706 0.984 . S
N1700 H1707 0.984 . S
N1701 C1694 1.356 . S
N1701 H1704 0.984 . S
N1701 H1705 0.985 . S
H1702 N1697 0.984 . S
H1703 N1697 0.985 . S
H1704 N1701 0.984 . S
H1705 N1701 0.985 . S
H1706 N1700 0.984 . S
H1707 N1700 0.984 . S
H1708 N1696 0.984 . S
H1709 N1696 0.985 . S
C1710 C1711 1.363 . S
C1710 C1716 1.379 . S
C1710 N1718 1.356 . S
C1711 C1710 1.363 . S
C1711 C1717 1.363 . S
C1712 C1713 1.363 . S
C1712 C1717 1.379 . S
C1712 N1719 1.356 . S
C1713 C1712 1.363 . S
C1713 C1716 1.363 . S
N1714 C1716 1.356 . S
N1714 H1726 0.984 . S
N1714 H1727 0.985 . S
N1715 C1717 1.356 . S
N1715 H1720 0.984 . S
N1715 H1721 0.985 . S
C1716 C1710 1.379 . S
C1716 C1713 1.363 . S
C1716 N1714 1.356 . S
C1717 C1711 1.363 . S
C1717 C1712 1.379 . S
C1717 N1715 1.356 . S
N1718 C1710 1.356 . S
N1718 H1724 0.984 . S
N1718 H1725 0.984 . S
N1719 C1712 1.356 . S
N1719 H1722 0.984 . S
N1719 H1723 0.985 . S
H1720 N1715 0.984 . S
H1721 N1715 0.985 . S
H1722 N1719 0.984 . S
H1723 N1719 0.985 . S
H1724 N1718 0.984 . S
H1725 N1718 0.984 . S
H1726 N1714 0.984 . S
H1727 N1714 0.985 . S
C1728 C1729 1.363 . S
C1728 C1734 1.379 . S
C1728 N1736 1.356 . S
C1729 C1728 1.363 . S
C1729 C1735 1.363 . S
C1730 C1731 1.363 . S
C1730 C1735 1.379 . S
C1730 N1737 1.356 . S
C1731 C1730 1.363 . S
C1731 C1734 1.363 . S
N1732 C1734 1.356 . S
N1732 H1744 0.984 . S
N1732 H1745 0.985 . S
N1733 C1735 1.356 . S
N1733 H1738 0.984 . S
N1733 H1739 0.985 . S
C1734 C1728 1.379 . S
C1734 C1731 1.363 . S
C1734 N1732 1.356 . S
C1735 C1729 1.363 . S
C1735 C1730 1.379 . S
C1735 N1733 1.356 . S
N1736 C1728 1.356 . S
N1736 H1742 0.984 . S
N1736 H1743 0.984 . S
N1737 C1730 1.356 . S
N1737 H1740 0.984 . S
N1737 H1741 0.985 . S
H1738 N1733 0.984 . S
H1739 N1733 0.985 . S
H1740 N1737 0.984 . S
H1741 N1737 0.985 . S
H1742 N1736 0.984 . S
H1743 N1736 0.984 . S
H1744 N1732 0.984 . S
H1745 N1732 0.985 . S
C1746 C1747 1.363 . S
C1746 C1752 1.379 . S
C1746 N1754 1.356 . S
C1747 C1746 1.363 . S
C1747 C1753 1.363 . S
C1748 C1749 1.363 . S
C1748 C1753 1.379 . S
C1748 N1755 1.356 . S
C1749 C1748 1.363 . S
C1749 C1752 1.363 . S
N1750 C1752 1.356 . S
N1750 H1762 0.984 . S
N1750 H1763 0.985 . S
N1751 C1753 1.356 . S
N1751 H1756 0.984 . S
N1751 H1757 0.985 . S
C1752 C1746 1.379 . S
C1752 C1749 1.363 . S
C1752 N1750 1.356 . S
C1753 C1747 1.363 . S
C1753 C1748 1.379 . S
C1753 N1751 1.356 . S
N1754 C1746 1.356 . S
N1754 H1760 0.984 . S
N1754 H1761 0.984 . S
N1755 C1748 1.356 . S
N1755 H1758 0.984 . S
N1755 H1759 0.985 . S
H1756 N1751 0.984 . S
H1757 N1751 0.985 . S
H1758 N1755 0.984 . S
H1759 N1755 0.985 . S
H1760 N1754 0.984 . S
H1761 N1754 0.984 . S
H1762 N1750 0.984 . S
H1763 N1750 0.985 . S
C1764 C1765 1.363 . S
C1764 C1770 1.379 . S
C1764 N1772 1.356 . S
C1765 C1764 1.363 . S
C1765 C1771 1.363 . S
C1766 C1767 1.363 . S
C1766 C1771 1.379 . S
C1766 N1773 1.356 . S
C1767 C1766 1.363 . S
C1767 C1770 1.363 . S
N1768 C1770 1.356 . S
N1768 H1780 0.984 . S
N1768 H1781 0.985 . S
N1769 C1771 1.356 . S
N1769 H1774 0.984 . S
N1769 H1775 0.985 . S
C1770 C1764 1.379 . S
C1770 C1767 1.363 . S
C1770 N1768 1.356 . S
C1771 C1765 1.363 . S
C1771 C1766 1.379 . S
C1771 N1769 1.356 . S
N1772 C1764 1.356 . S
N1772 H1778 0.984 . S
N1772 H1779 0.984 . S
N1773 C1766 1.356 . S
N1773 H1776 0.984 . S
N1773 H1777 0.985 . S
H1774 N1769 0.984 . S
H1775 N1769 0.985 . S
H1776 N1773 0.984 . S
H1777 N1773 0.985 . S
H1778 N1772 0.984 . S
H1779 N1772 0.984 . S
H1780 N1768 0.984 . S
H1781 N1768 0.985 . S
C1782 C1783 1.363 . S
C1782 C1788 1.379 . S
C1782 N1790 1.356 . S
C1783 C1782 1.363 . S
C1783 C1789 1.363 . S
C1784 C1785 1.363 . S
C1784 C1789 1.379 . S
C1784 N1791 1.356 . S
C1785 C1784 1.363 . S
C1785 C1788 1.363 . S
N1786 C1788 1.356 . S
N1786 H1798 0.984 . S
N1786 H1799 0.985 . S
N1787 C1789 1.356 . S
N1787 H1792 0.984 . S
N1787 H1793 0.985 . S
C1788 C1782 1.379 . S
C1788 C1785 1.363 . S
C1788 N1786 1.356 . S
C1789 C1783 1.363 . S
C1789 C1784 1.379 . S
C1789 N1787 1.356 . S
N1790 C1782 1.356 . S
N1790 H1796 0.984 . S
N1790 H1797 0.984 . S
N1791 C1784 1.356 . S
N1791 H1794 0.984 . S
N1791 H1795 0.985 . S
H1792 N1787 0.984 . S
H1793 N1787 0.985 . S
H1794 N1791 0.984 . S
H1795 N1791 0.985 . S
H1796 N1790 0.984 . S
H1797 N1790 0.984 . S
H1798 N1786 0.984 . S
H1799 N1786 0.985 . S
C1800 C1801 1.363 . S
C1800 C1806 1.379 . S
C1800 N1808 1.356 . S
C1801 C1800 1.363 . S
C1801 C1807 1.363 . S
C1802 C1803 1.363 . S
C1802 C1807 1.379 . S
C1802 N1809 1.356 . S
C1803 C1802 1.363 . S
C1803 C1806 1.363 . S
N1804 C1806 1.356 . S
N1804 H1816 0.984 . S
N1804 H1817 0.985 . S
N1805 C1807 1.356 . S
N1805 H1810 0.984 . S
N1805 H1811 0.985 . S
C1806 C1800 1.379 . S
C1806 C1803 1.363 . S
C1806 N1804 1.356 . S
C1807 C1801 1.363 . S
C1807 C1802 1.379 . S
C1807 N1805 1.356 . S
N1808 C1800 1.356 . S
N1808 H1814 0.984 . S
N1808 H1815 0.984 . S
N1809 C1802 1.356 . S
N1809 H1812 0.984 . S
N1809 H1813 0.985 . S
H1810 N1805 0.984 . S
H1811 N1805 0.985 . S
H1812 N1809 0.984 . S
H1813 N1809 0.985 . S
H1814 N1808 0.984 . S
H1815 N1808 0.984 . S
H1816 N1804 0.984 . S
H1817 N1804 0.985 . S
C1818 C1819 1.363 . S
C1818 C1824 1.379 . S
C1818 N1826 1.356 . S
C1819 C1818 1.363 . S
C1819 C1825 1.363 . S
C1820 C1821 1.363 . S
C1820 C1825 1.379 . S
C1820 N1827 1.356 . S
C1821 C1820 1.363 . S
C1821 C1824 1.363 . S
N1822 C1824 1.356 . S
N1822 H1834 0.984 . S
N1822 H1835 0.985 . S
N1823 C1825 1.356 . S
N1823 H1828 0.984 . S
N1823 H1829 0.985 . S
C1824 C1818 1.379 . S
C1824 C1821 1.363 . S
C1824 N1822 1.356 . S
C1825 C1819 1.363 . S
C1825 C1820 1.379 . S
C1825 N1823 1.356 . S
N1826 C1818 1.356 . S
N1826 H1832 0.984 . S
N1826 H1833 0.984 . S
N1827 C1820 1.356 . S
N1827 H1830 0.984 . S
N1827 H1831 0.985 . S
H1828 N1823 0.984 . S
H1829 N1823 0.985 . S
H1830 N1827 0.984 . S
H1831 N1827 0.985 . S
H1832 N1826 0.984 . S
H1833 N1826 0.984 . S
H1834 N1822 0.984 . S
H1835 N1822 0.985 . S
C1836 C1837 1.363 . S
C1836 C1842 1.379 . S
C1836 N1844 1.356 . S
C1837 C1836 1.363 . S
C1837 C1843 1.363 . S
C1838 C1839 1.363 . S
C1838 C1843 1.379 . S
C1838 N1845 1.356 . S
C1839 C1838 1.363 . S
C1839 C1842 1.363 . S
N1840 C1842 1.356 . S
N1840 H1852 0.984 . S
N1840 H1853 0.985 . S
N1841 C1843 1.356 . S
N1841 H1846 0.984 . S
N1841 H1847 0.985 . S
C1842 C1836 1.379 . S
C1842 C1839 1.363 . S
C1842 N1840 1.356 . S
C1843 C1837 1.363 . S
C1843 C1838 1.379 . S
C1843 N1841 1.356 . S
N1844 C1836 1.356 . S
N1844 H1850 0.984 . S
N1844 H1851 0.984 . S
N1845 C1838 1.356 . S
N1845 H1848 0.984 . S
N1845 H1849 0.985 . S
H1846 N1841 0.984 . S
H1847 N1841 0.985 . S
H1848 N1845 0.984 . S
H1849 N1845 0.985 . S
H1850 N1844 0.984 . S
H1851 N1844 0.984 . S
H1852 N1840 0.984 . S
H1853 N1840 0.985 . S
C1854 C1855 1.363 . S
C1854 C1860 1.379 . S
C1854 N1862 1.356 . S
C1855 C1854 1.363 . S
C1855 C1861 1.363 . S
C1856 C1857 1.363 . S
C1856 C1861 1.379 . S
C1856 N1863 1.356 . S
C1857 C1856 1.363 . S
C1857 C1860 1.363 . S
N1858 C1860 1.356 . S
N1858 H1870 0.984 . S
N1858 H1871 0.985 . S
N1859 C1861 1.356 . S
N1859 H1864 0.984 . S
N1859 H1865 0.985 . S
C1860 C1854 1.379 . S
C1860 C1857 1.363 . S
C1860 N1858 1.356 . S
C1861 C1855 1.363 . S
C1861 C1856 1.379 . S
C1861 N1859 1.356 . S
N1862 C1854 1.356 . S
N1862 H1868 0.984 . S
N1862 H1869 0.984 . S
N1863 C1856 1.356 . S
N1863 H1866 0.984 . S
N1863 H1867 0.985 . S
H1864 N1859 0.984 . S
H1865 N1859 0.985 . S
H1866 N1863 0.984 . S
H1867 N1863 0.985 . S
H1868 N1862 0.984 . S
H1869 N1862 0.984 . S
H1870 N1858 0.984 . S
H1871 N1858 0.985 . S
C1872 C1873 1.363 . S
C1872 C1878 1.379 . S
C1872 N1880 1.356 . S
C1873 C1872 1.363 . S
C1873 C1879 1.363 . S
C1874 C1875 1.363 . S
C1874 C1879 1.379 . S
C1874 N1881 1.356 . S
C1875 C1874 1.363 . S
C1875 C1878 1.363 . S
N1876 C1878 1.356 . S
N1876 H1888 0.984 . S
N1876 H1889 0.985 . S
N1877 C1879 1.356 . S
N1877 H1882 0.984 . S
N1877 H1883 0.985 . S
C1878 C1872 1.379 . S
C1878 C1875 1.363 . S
C1878 N1876 1.356 . S
C1879 C1873 1.363 . S
C1879 C1874 1.379 . S
C1879 N1877 1.356 . S
N1880 C1872 1.356 . S
N1880 H1886 0.984 . S
N1880 H1887 0.984 . S
N1881 C1874 1.356 . S
N1881 H1884 0.982 1_655 S
N1881 H1885 0.985 1_655 S
H1882 N1877 0.984 . S
H1883 N1877 0.985 . S
H1884 N1881 0.982 1_455 S
H1885 N1881 0.985 1_455 S
H1886 N1880 0.984 . S
H1887 N1880 0.984 . S
H1888 N1876 0.984 . S
H1889 N1876 0.985 . S
C1890 C1891 1.363 . S
C1890 C1896 1.379 . S
C1890 N1898 1.356 . S
C1891 C1890 1.363 . S
C1891 C1897 1.363 . S
C1892 C1893 1.363 . S
C1892 C1897 1.379 . S
C1892 N1899 1.356 1_554 S
C1893 C1892 1.363 . S
C1893 C1896 1.363 . S
N1894 C1896 1.356 . S
N1894 H1906 0.984 . S
N1894 H1907 0.985 . S
N1895 C1897 1.356 . S
N1895 H1900 0.984 . S
N1895 H1901 0.985 . S
C1896 C1890 1.379 . S
C1896 C1893 1.363 . S
C1896 N1894 1.356 . S
C1897 C1891 1.363 . S
C1897 C1892 1.379 . S
C1897 N1895 1.356 . S
N1898 C1890 1.356 . S
N1898 H1904 0.984 . S
N1898 H1905 0.984 . S
N1899 C1892 1.356 1_556 S
N1899 H1902 0.984 . S
N1899 H1903 0.985 . S
H1900 N1895 0.984 . S
H1901 N1895 0.985 . S
H1902 N1899 0.984 . S
H1903 N1899 0.985 . S
H1904 N1898 0.984 . S
H1905 N1898 0.984 . S
H1906 N1894 0.984 . S
H1907 N1894 0.985 . S
C1908 C1909 1.363 . S
C1908 C1914 1.379 . S
C1908 N1916 1.356 . S
C1909 C1908 1.363 . S
C1909 C1915 1.363 . S
C1910 C1911 1.363 . S
C1910 C1915 1.379 . S
C1910 N1917 1.356 . S
C1911 C1910 1.363 . S
C1911 C1914 1.363 . S
N1912 C1914 1.356 . S
N1912 H1924 0.984 . S
N1912 H1925 0.985 . S
N1913 C1915 1.356 . S
N1913 H1918 0.984 . S
N1913 H1919 0.985 . S
C1914 C1908 1.379 . S
C1914 C1911 1.363 . S
C1914 N1912 1.356 . S
C1915 C1909 1.363 . S
C1915 C1910 1.379 . S
C1915 N1913 1.356 . S
N1916 C1908 1.356 . S
N1916 H1922 0.984 . S
N1916 H1923 0.984 . S
N1917 C1910 1.356 . S
N1917 H1920 0.984 1_554 S
N1917 H1921 0.985 . S
H1918 N1913 0.984 . S
H1919 N1913 0.985 . S
H1920 N1917 0.984 1_556 S
H1921 N1917 0.985 . S
H1922 N1916 0.984 . S
H1923 N1916 0.984 . S
H1924 N1912 0.984 . S
H1925 N1912 0.985 . S
C1926 C1927 1.363 . S
C1926 C1932 1.379 . S
C1926 N1934 1.356 . S
C1927 C1926 1.363 . S
C1927 C1933 1.363 . S
C1928 C1929 1.363 . S
C1928 C1933 1.379 . S
C1928 N1935 1.356 . S
C1929 C1928 1.363 . S
C1929 C1932 1.363 . S
N1930 C1932 1.356 . S
N1930 H1942 0.984 . S
N1930 H1943 0.985 1_554 S
N1931 C1933 1.356 . S
N1931 H1936 0.984 . S
N1931 H1937 0.985 . S
C1932 C1926 1.379 . S
C1932 C1929 1.363 . S
C1932 N1930 1.356 . S
C1933 C1927 1.363 . S
C1933 C1928 1.379 . S
C1933 N1931 1.356 . S
N1934 C1926 1.356 . S
N1934 H1940 0.984 . S
N1934 H1941 0.984 . S
N1935 C1928 1.356 . S
N1935 H1938 0.994 . S
N1935 H1939 0.985 . S
H1936 N1931 0.984 . S
H1937 N1931 0.985 . S
H1938 N1935 0.994 . S
H1939 N1935 0.985 . S
H1940 N1934 0.984 . S
H1941 N1934 0.984 . S
H1942 N1930 0.984 . S
H1943 N1930 0.985 1_556 S
C649 C7 1.561 . S
C651 C560 1.546 . S
C669 C534 1.848 . S
C667 C39 1.848 . S
C687 C547 1.679 . S
C685 C62 1.683 . S
C703 C76 1.871 . S
C705 C614 1.874 . S
C721 C108 1.505 . S
C723 C627 1.498 . S
C739 N117 1.412 . S
C741 C640 1.409 . S
C759 C600 1.481 . S
C757 C16 1.505 . S
C775 C30 1.804 . S
C777 C574 1.801 . S
C795 C588 1.515 . S
C793 C53 1.508 . S
C811 C85 1.778 . S
C813 C497 1.751 1_545 S
C831 C509 1.627 . S
C829 C99 1.625 . S
C847 N127 1.321 . S
C849 C523 1.369 . S
C865 N150 1.199 . S
C867 C638 1.235 . S
C885 C612 1.639 . S
C883 N173 1.593 . S
C903 C625 1.491 . S
C901 C200 1.502 . S
C919 C214 1.668 . S
C921 C458 1.682 . S
C937 N232 1.548 . S
C939 C471 1.562 . S
C955 C260 1.531 . S
C957 C484 1.540 . S
C975 C444 1.353 . S
C973 N140 1.387 . S
C991 N163 1.462 . S
C993 C424 1.436 . S
C1011 C430 1.578 . S
C1009 C191 1.574 . S
C1029 C573 1.833 . S
C1027 C223 1.841 . S
C1047 C593 1.491 . S
C1045 N242 1.450 . S
C1065 C599 1.511 . S
C1063 C269 1.527 . S
C1081 N288 1.339 . S
C1083 C482 1.357 . S
C1099 C315 1.582 . S
C1101 C456 1.581 1_655 S
C1117 C338 1.775 . S
C1119 C469 1.765 . S
C1135 C352 1.915 . S
C1137 C536 1.923 . S
C1155 C549 1.581 . S
C1153 N370 1.576 . S
C1173 C562 1.609 1_655 S
C1171 C398 1.596 . S
C1191 C528 1.235 . S
C1189 N278 1.237 . S
C1207 C306 1.691 . S
C1209 C502 1.689 . S
C1225 C329 1.605 . S
C1227 C508 1.609 . S
C1245 C419 1.538 . S
C1243 C361 1.544 . S
C1261 N380 1.481 . S
C1263 C431 1.512 . S
C1281 C443 1.451 . S
C1279 C407 1.459 . S
C1299 C463 1.438 . S
C1297 N12 1.426 . S
C1315 N25 1.514 . S
C1317 C476 1.555 . S
C1335 C489 1.342 . S
C1333 N48 1.292 . S
C1353 C483 1.408 . S
C1351 N81 1.394 . S
C1371 C457 1.628 . S
C1369 N94 1.569 . S
C1389 C470 1.683 . S
C1387 C131 1.656 . S
C1407 C417 1.363 . S
C1405 N2 1.319 . S
C1423 N35 1.430 . S
C1425 C437 1.476 . S
C1441 N58 1.215 . S
C1443 C445 1.242 . S
C1461 C450 1.367 . S
C1459 N71 1.326 . S
C1479 C418 1.453 . S
C1477 N104 1.417 . S
C1497 C432 1.643 . S
C1495 C122 1.644 . S
C1513 C145 1.981 . S
C1515 C541 1.976 . S
C1531 C168 1.673 . S
C1533 C554 1.672 . S
C1549 N186 1.453 . S
C1551 C567 1.517 . S
C1569 C561 1.493 . S
C1567 N219 1.490 . S
C1587 C535 1.860 . S
C1585 C246 1.838 . S
C1605 C548 1.549 . S
C1603 N265 1.536 . S
C1623 C495 1.816 . S
C1621 C154 1.812 . S
C1639 C177 1.718 . S
C1641 C515 1.721 . S
C1657 N196 1.309 . S
C1659 C521 1.348 . S
C1675 N209 1.231 . S
C1677 C522 1.313 . S
C1693 C237 1.835 . S
C1695 C496 1.834 . S
C1713 C510 1.463 . S
C1711 N255 1.411 . S
C1729 C283 1.854 . S
C1731 C619 1.849 . S
C1747 N301 1.479 . S
C1749 C632 1.540 . S
C1765 N324 1.247 . S
C1767 C645 1.280 . S
C1785 C639 1.249 . S
C1783 N357 1.227 . S
C1803 C613 1.829 . S
C1801 C384 1.821 . S
C1819 N403 1.425 . S
C1821 C626 1.431 . S
C1837 C292 1.830 . S
C1839 C575 1.856 . S
C1857 C587 1.415 . S
C1855 N311 1.374 . S
C1873 N334 1.310 . S
C1875 C601 1.348 . S
C1891 N347 1.356 . S
C1893 C606 1.392 1_554 S
C1911 C580 1.887 . S
C1909 C375 1.891 . S
C1927 N393 1.379 . S
C1929 C586 1.440 1_554 S
