# Generated by pormake.
# Topology iac, (4,6)-cn, num edge types: 1
# Building blocks:
#     Node 0, Type 0, BuildingBlock: GALJAG_clean_sbu_0, # of connection points: 4
#     Node 1, Type 0, BuildingBlock: GALJAG_clean_sbu_0, # of connection points: 4
#     Node 2, Type 0, BuildingBlock: GALJAG_clean_sbu_0, # of connection points: 4
#     Node 3, Type 0, BuildingBlock: GALJAG_clean_sbu_0, # of connection points: 4
#     Node 4, Type 0, BuildingBlock: GALJAG_clean_sbu_0, # of connection points: 4
#     Node 5, Type 0, BuildingBlock: GALJAG_clean_sbu_0, # of connection points: 4
#     Node 6, Type 0, BuildingBlock: GALJAG_clean_sbu_0, # of connection points: 4
#     Node 7, Type 0, BuildingBlock: GALJAG_clean_sbu_0, # of connection points: 4
#     Node 8, Type 0, BuildingBlock: GALJAG_clean_sbu_0, # of connection points: 4
#     Node 9, Type 0, BuildingBlock: GALJAG_clean_sbu_0, # of connection points: 4
#     Node 10, Type 0, BuildingBlock: GALJAG_clean_sbu_0, # of connection points: 4
#     Node 11, Type 0, BuildingBlock: GALJAG_clean_sbu_0, # of connection points: 4
#     Node 12, Type 0, BuildingBlock: GALJAG_clean_sbu_0, # of connection points: 4
#     Node 13, Type 0, BuildingBlock: GALJAG_clean_sbu_0, # of connection points: 4
#     Node 14, Type 0, BuildingBlock: GALJAG_clean_sbu_0, # of connection points: 4
#     Node 15, Type 0, BuildingBlock: GALJAG_clean_sbu_0, # of connection points: 4
#     Node 16, Type 0, BuildingBlock: GALJAG_clean_sbu_0, # of connection points: 4
#     Node 17, Type 0, BuildingBlock: GALJAG_clean_sbu_0, # of connection points: 4
#     Node 18, Type 0, BuildingBlock: GALJAG_clean_sbu_0, # of connection points: 4
#     Node 19, Type 0, BuildingBlock: GALJAG_clean_sbu_0, # of connection points: 4
#     Node 20, Type 0, BuildingBlock: GALJAG_clean_sbu_0, # of connection points: 4
#     Node 21, Type 0, BuildingBlock: GALJAG_clean_sbu_0, # of connection points: 4
#     Node 22, Type 0, BuildingBlock: GALJAG_clean_sbu_0, # of connection points: 4
#     Node 23, Type 0, BuildingBlock: GALJAG_clean_sbu_0, # of connection points: 4
#     Node 24, Type 1, BuildingBlock: VOLQOD_clean_sbu_1, # of connection points: 6
#     Node 25, Type 1, BuildingBlock: VOLQOD_clean_sbu_1, # of connection points: 6
#     Node 26, Type 1, BuildingBlock: VOLQOD_clean_sbu_1, # of connection points: 6
#     Node 27, Type 1, BuildingBlock: VOLQOD_clean_sbu_1, # of connection points: 6
#     Node 28, Type 1, BuildingBlock: VOLQOD_clean_sbu_1, # of connection points: 6
#     Node 29, Type 1, BuildingBlock: VOLQOD_clean_sbu_1, # of connection points: 6
#     Node 30, Type 1, BuildingBlock: VOLQOD_clean_sbu_1, # of connection points: 6
#     Node 31, Type 1, BuildingBlock: VOLQOD_clean_sbu_1, # of connection points: 6
#     Node 32, Type 1, BuildingBlock: VOLQOD_clean_sbu_1, # of connection points: 6
#     Node 33, Type 1, BuildingBlock: VOLQOD_clean_sbu_1, # of connection points: 6
#     Node 34, Type 1, BuildingBlock: VOLQOD_clean_sbu_1, # of connection points: 6
#     Node 35, Type 1, BuildingBlock: VOLQOD_clean_sbu_1, # of connection points: 6
#     Node 36, Type 1, BuildingBlock: VOLQOD_clean_sbu_1, # of connection points: 6
#     Node 37, Type 1, BuildingBlock: VOLQOD_clean_sbu_1, # of connection points: 6
#     Node 38, Type 1, BuildingBlock: VOLQOD_clean_sbu_1, # of connection points: 6
#     Node 39, Type 1, BuildingBlock: VOLQOD_clean_sbu_1, # of connection points: 6
#     Edge 40, Type (0, 1), BuildingBlock: UVAHIK_clean_linker_0, # of connection points: 2
#     Edge 41, Type (0, 1), BuildingBlock: UVAHIK_clean_linker_0, # of connection points: 2
#     Edge 42, Type (0, 1), BuildingBlock: UVAHIK_clean_linker_0, # of connection points: 2
#     Edge 43, Type (0, 1), BuildingBlock: UVAHIK_clean_linker_0, # of connection points: 2
#     Edge 44, Type (0, 1), BuildingBlock: UVAHIK_clean_linker_0, # of connection points: 2
#     Edge 45, Type (0, 1), BuildingBlock: UVAHIK_clean_linker_0, # of connection points: 2
#     Edge 46, Type (0, 1), BuildingBlock: UVAHIK_clean_linker_0, # of connection points: 2
#     Edge 47, Type (0, 1), BuildingBlock: UVAHIK_clean_linker_0, # of connection points: 2
#     Edge 48, Type (0, 1), BuildingBlock: UVAHIK_clean_linker_0, # of connection points: 2
#     Edge 49, Type (0, 1), BuildingBlock: UVAHIK_clean_linker_0, # of connection points: 2
#     Edge 50, Type (0, 1), BuildingBlock: UVAHIK_clean_linker_0, # of connection points: 2
#     Edge 51, Type (0, 1), BuildingBlock: UVAHIK_clean_linker_0, # of connection points: 2
#     Edge 52, Type (0, 1), BuildingBlock: UVAHIK_clean_linker_0, # of connection points: 2
#     Edge 53, Type (0, 1), BuildingBlock: UVAHIK_clean_linker_0, # of connection points: 2
#     Edge 54, Type (0, 1), BuildingBlock: UVAHIK_clean_linker_0, # of connection points: 2
#     Edge 55, Type (0, 1), BuildingBlock: UVAHIK_clean_linker_0, # of connection points: 2
#     Edge 56, Type (0, 1), BuildingBlock: UVAHIK_clean_linker_0, # of connection points: 2
#     Edge 57, Type (0, 1), BuildingBlock: UVAHIK_clean_linker_0, # of connection points: 2
#     Edge 58, Type (0, 1), BuildingBlock: UVAHIK_clean_linker_0, # of connection points: 2
#     Edge 59, Type (0, 1), BuildingBlock: UVAHIK_clean_linker_0, # of connection points: 2
#     Edge 60, Type (0, 1), BuildingBlock: UVAHIK_clean_linker_0, # of connection points: 2
#     Edge 61, Type (0, 1), BuildingBlock: UVAHIK_clean_linker_0, # of connection points: 2
#     Edge 62, Type (0, 1), BuildingBlock: UVAHIK_clean_linker_0, # of connection points: 2
#     Edge 63, Type (0, 1), BuildingBlock: UVAHIK_clean_linker_0, # of connection points: 2
#     Edge 64, Type (0, 1), BuildingBlock: UVAHIK_clean_linker_0, # of connection points: 2
#     Edge 65, Type (0, 1), BuildingBlock: UVAHIK_clean_linker_0, # of connection points: 2
#     Edge 66, Type (0, 1), BuildingBlock: UVAHIK_clean_linker_0, # of connection points: 2
#     Edge 67, Type (0, 1), BuildingBlock: UVAHIK_clean_linker_0, # of connection points: 2
#     Edge 68, Type (0, 1), BuildingBlock: UVAHIK_clean_linker_0, # of connection points: 2
#     Edge 69, Type (0, 1), BuildingBlock: UVAHIK_clean_linker_0, # of connection points: 2
#     Edge 70, Type (0, 1), BuildingBlock: UVAHIK_clean_linker_0, # of connection points: 2
#     Edge 71, Type (0, 1), BuildingBlock: UVAHIK_clean_linker_0, # of connection points: 2
#     Edge 72, Type (0, 1), BuildingBlock: UVAHIK_clean_linker_0, # of connection points: 2
#     Edge 73, Type (0, 1), BuildingBlock: UVAHIK_clean_linker_0, # of connection points: 2
#     Edge 74, Type (0, 1), BuildingBlock: UVAHIK_clean_linker_0, # of connection points: 2
#     Edge 75, Type (0, 1), BuildingBlock: UVAHIK_clean_linker_0, # of connection points: 2
#     Edge 76, Type (0, 1), BuildingBlock: UVAHIK_clean_linker_0, # of connection points: 2
#     Edge 77, Type (0, 1), BuildingBlock: UVAHIK_clean_linker_0, # of connection points: 2
#     Edge 78, Type (0, 1), BuildingBlock: UVAHIK_clean_linker_0, # of connection points: 2
#     Edge 79, Type (0, 1), BuildingBlock: UVAHIK_clean_linker_0, # of connection points: 2
#     Edge 80, Type (0, 1), BuildingBlock: UVAHIK_clean_linker_0, # of connection points: 2
#     Edge 81, Type (0, 1), BuildingBlock: UVAHIK_clean_linker_0, # of connection points: 2
#     Edge 82, Type (0, 1), BuildingBlock: UVAHIK_clean_linker_0, # of connection points: 2
#     Edge 83, Type (0, 1), BuildingBlock: UVAHIK_clean_linker_0, # of connection points: 2
#     Edge 84, Type (0, 1), BuildingBlock: UVAHIK_clean_linker_0, # of connection points: 2
#     Edge 85, Type (0, 1), BuildingBlock: UVAHIK_clean_linker_0, # of connection points: 2
#     Edge 86, Type (0, 1), BuildingBlock: UVAHIK_clean_linker_0, # of connection points: 2
#     Edge 87, Type (0, 1), BuildingBlock: UVAHIK_clean_linker_0, # of connection points: 2
#     Edge 88, Type (0, 1), BuildingBlock: UVAHIK_clean_linker_0, # of connection points: 2
#     Edge 89, Type (0, 1), BuildingBlock: UVAHIK_clean_linker_0, # of connection points: 2
#     Edge 90, Type (0, 1), BuildingBlock: UVAHIK_clean_linker_0, # of connection points: 2
#     Edge 91, Type (0, 1), BuildingBlock: UVAHIK_clean_linker_0, # of connection points: 2
#     Edge 92, Type (0, 1), BuildingBlock: UVAHIK_clean_linker_0, # of connection points: 2
#     Edge 93, Type (0, 1), BuildingBlock: UVAHIK_clean_linker_0, # of connection points: 2
#     Edge 94, Type (0, 1), BuildingBlock: UVAHIK_clean_linker_0, # of connection points: 2
#     Edge 95, Type (0, 1), BuildingBlock: UVAHIK_clean_linker_0, # of connection points: 2
#     Edge 96, Type (0, 1), BuildingBlock: UVAHIK_clean_linker_0, # of connection points: 2
#     Edge 97, Type (0, 1), BuildingBlock: UVAHIK_clean_linker_0, # of connection points: 2
#     Edge 98, Type (0, 1), BuildingBlock: UVAHIK_clean_linker_0, # of connection points: 2
#     Edge 99, Type (0, 1), BuildingBlock: UVAHIK_clean_linker_0, # of connection points: 2
#     Edge 100, Type (0, 1), BuildingBlock: UVAHIK_clean_linker_0, # of connection points: 2
#     Edge 101, Type (0, 1), BuildingBlock: UVAHIK_clean_linker_0, # of connection points: 2
#     Edge 102, Type (0, 1), BuildingBlock: UVAHIK_clean_linker_0, # of connection points: 2
#     Edge 103, Type (0, 1), BuildingBlock: UVAHIK_clean_linker_0, # of connection points: 2
#     Edge 104, Type (0, 1), BuildingBlock: UVAHIK_clean_linker_0, # of connection points: 2
#     Edge 105, Type (0, 1), BuildingBlock: UVAHIK_clean_linker_0, # of connection points: 2
#     Edge 106, Type (0, 1), BuildingBlock: UVAHIK_clean_linker_0, # of connection points: 2
#     Edge 107, Type (0, 1), BuildingBlock: UVAHIK_clean_linker_0, # of connection points: 2
#     Edge 108, Type (0, 1), BuildingBlock: UVAHIK_clean_linker_0, # of connection points: 2
#     Edge 109, Type (0, 1), BuildingBlock: UVAHIK_clean_linker_0, # of connection points: 2
#     Edge 110, Type (0, 1), BuildingBlock: UVAHIK_clean_linker_0, # of connection points: 2
#     Edge 111, Type (0, 1), BuildingBlock: UVAHIK_clean_linker_0, # of connection points: 2
#     Edge 112, Type (0, 1), BuildingBlock: UVAHIK_clean_linker_0, # of connection points: 2
#     Edge 113, Type (0, 1), BuildingBlock: UVAHIK_clean_linker_0, # of connection points: 2
#     Edge 114, Type (0, 1), BuildingBlock: UVAHIK_clean_linker_0, # of connection points: 2
#     Edge 115, Type (0, 1), BuildingBlock: UVAHIK_clean_linker_0, # of connection points: 2
#     Edge 116, Type (0, 1), BuildingBlock: UVAHIK_clean_linker_0, # of connection points: 2
#     Edge 117, Type (0, 1), BuildingBlock: UVAHIK_clean_linker_0, # of connection points: 2
#     Edge 118, Type (0, 1), BuildingBlock: UVAHIK_clean_linker_0, # of connection points: 2
#     Edge 119, Type (0, 1), BuildingBlock: UVAHIK_clean_linker_0, # of connection points: 2
#     Edge 120, Type (0, 1), BuildingBlock: UVAHIK_clean_linker_0, # of connection points: 2
#     Edge 121, Type (0, 1), BuildingBlock: UVAHIK_clean_linker_0, # of connection points: 2
#     Edge 122, Type (0, 1), BuildingBlock: UVAHIK_clean_linker_0, # of connection points: 2
#     Edge 123, Type (0, 1), BuildingBlock: UVAHIK_clean_linker_0, # of connection points: 2
#     Edge 124, Type (0, 1), BuildingBlock: UVAHIK_clean_linker_0, # of connection points: 2
#     Edge 125, Type (0, 1), BuildingBlock: UVAHIK_clean_linker_0, # of connection points: 2
#     Edge 126, Type (0, 1), BuildingBlock: UVAHIK_clean_linker_0, # of connection points: 2
#     Edge 127, Type (0, 1), BuildingBlock: UVAHIK_clean_linker_0, # of connection points: 2
#     Edge 128, Type (0, 1), BuildingBlock: UVAHIK_clean_linker_0, # of connection points: 2
#     Edge 129, Type (0, 1), BuildingBlock: UVAHIK_clean_linker_0, # of connection points: 2
#     Edge 130, Type (0, 1), BuildingBlock: UVAHIK_clean_linker_0, # of connection points: 2
#     Edge 131, Type (0, 1), BuildingBlock: UVAHIK_clean_linker_0, # of connection points: 2
#     Edge 132, Type (0, 1), BuildingBlock: UVAHIK_clean_linker_0, # of connection points: 2
#     Edge 133, Type (0, 1), BuildingBlock: UVAHIK_clean_linker_0, # of connection points: 2
#     Edge 134, Type (0, 1), BuildingBlock: UVAHIK_clean_linker_0, # of connection points: 2
#     Edge 135, Type (0, 1), BuildingBlock: UVAHIK_clean_linker_0, # of connection points: 2
# Relax obj value: 0.329
# Max RMSD: 0.288
# Mean RMSD: 0.183
data_MOF--net-iac--node1-GALJAG_clean_sbu_0--node2-VOLQOD_clean_sbu_1--edge1-UVAHIK_clean_linker_0
_symmetry_space_group_name_H-M    P1
_symmetry_Int_Tables_number       1
_symmetry_cell_setting            triclinic
loop_
_symmetry_equiv_pos_as_xyz
'x, y, z'
_cell_length_a     69.741087
_cell_length_b     69.711299
_cell_length_c     69.732344
_cell_angle_alpha  90.042316
_cell_angle_beta   90.110241
_cell_angle_gamma 90.559927
loop_
_atom_site_label
_atom_site_type_symbol
_atom_site_fract_x
_atom_site_fract_y
_atom_site_fract_z
_atom_type_partial_charge
In0 In 0.00812 0.26414 0.18101 0.0
O1 O 0.0008 0.24745 0.15394 0.0
O2 O 0.01216 0.23206 0.17769 0.0
C3 C 0.00637 0.29771 0.16254 0.0
C4 C 0.97626 0.25764 0.20167 0.0
C5 C 0.04363 0.27091 0.19436 0.0
O6 O 0.00763 0.28188 0.15381 0.0
O7 O 0.00512 0.29649 0.18057 0.0
O8 O 0.02894 0.27375 0.2045 0.0
O9 O 0.04034 0.26335 0.17826 0.0
C10 C 0.00539 0.23142 0.1609 0.0
O11 O 0.99218 0.25045 0.20619 0.0
O12 O 0.97685 0.26903 0.18765 0.0
In13 In 0.03686 0.74219 0.39718 0.0
O14 O 0.04533 0.71733 0.37785 0.0
O15 O 0.06566 0.73989 0.38219 0.0
C16 C 0.00246 0.74514 0.37987 0.0
C17 C 0.03823 0.7198 0.42853 0.0
C18 C 0.04467 0.77901 0.40648 0.0
O19 O 0.01771 0.74174 0.37088 0.0
O20 O 0.00444 0.74689 0.3978 0.0
O21 O 0.04354 0.76573 0.41863 0.0
O22 O 0.0421 0.77378 0.38935 0.0
C23 C 0.0618 0.72401 0.37427 0.0
O24 O 0.0526 0.72882 0.42217 0.0
O25 O 0.02302 0.72188 0.41892 0.0
In26 In 0.49158 0.75752 0.64735 0.0
O27 O 0.50369 0.77321 0.62126 0.0
O28 O 0.49065 0.7896 0.6434 0.0
C29 C 0.4915 0.72168 0.63379 0.0
C30 C 0.52203 0.76154 0.67053 0.0
C31 C 0.45428 0.75553 0.65641 0.0
O32 O 0.49106 0.7361 0.62277 0.0
O33 O 0.49294 0.7255 0.65144 0.0
O34 O 0.46731 0.7537 0.6689 0.0
O35 O 0.46016 0.75964 0.63981 0.0
C36 C 0.49969 0.78962 0.62775 0.0
O37 O 0.506 0.76877 0.67462 0.0
O38 O 0.52223 0.75152 0.65547 0.0
In39 In 0.54349 0.2396 0.88462 0.0
O40 O 0.55159 0.21717 0.86239 0.0
O41 O 0.57149 0.23985 0.86795 0.0
C42 C 0.50906 0.24507 0.86814 0.0
C43 C 0.54148 0.21404 0.91356 0.0
C44 C 0.55282 0.27474 0.89827 0.0
O45 O 0.52363 0.24008 0.85875 0.0
O46 O 0.5118 0.24713 0.88593 0.0
O47 O 0.55615 0.2595 0.90731 0.0
O48 O 0.54553 0.27226 0.8819 0.0
C49 C 0.5676 0.22479 0.8586 0.0
O50 O 0.55717 0.22023 0.90702 0.0
O51 O 0.5268 0.22036 0.90519 0.0
In52 In 0.13888 0.03384 0.27235 0.0
O53 O 0.16277 0.0138 0.26309 0.0
O54 O 0.14153 0.00295 0.28217 0.0
C55 C 0.15998 0.0636 0.25922 0.0
C56 C 0.10821 0.02378 0.2509 0.0
C57 C 0.12937 0.04535 0.30788 0.0
O58 O 0.16537 0.0531 0.27286 0.0
O59 O 0.14396 0.05904 0.25207 0.0
O60 O 0.12196 0.05248 0.29301 0.0
O61 O 0.14176 0.03266 0.30476 0.0
C62 C 0.15641 -0.00034 0.27251 0.0
O63 O 0.12518 0.02267 0.24484 0.0
O64 O 0.10664 0.03053 0.26759 0.0
In65 In 0.26956 0.90034 0.51132 0.0
O66 O 0.25489 0.919 0.53364 0.0
O67 O 0.24872 0.92414 0.50421 0.0
C68 C 0.30414 0.91735 0.51548 0.0
C69 C 0.25558 0.87049 0.53166 0.0
C70 C 0.27083 0.8832 0.47673 0.0
O71 O 0.29109 0.92429 0.50512 0.0
O72 O 0.29982 0.90173 0.5236 0.0
O73 O 0.25813 0.89517 0.48113 0.0
O74 O 0.28337 0.88052 0.48948 0.0
C75 C 0.24571 0.92867 0.52147 0.0
O76 O 0.24702 0.87742 0.51737 0.0
O77 O 0.27113 0.87887 0.53601 0.0
In78 In 0.35367 0.00041 0.75233 0.0
O79 O 0.33136 0.01835 0.73687 0.0
O80 O 0.33315 0.02063 0.76725 0.0
C81 C 0.33502 0.9675 0.7439 0.0
C82 C 0.38376 0.00962 0.72984 0.0
C83 C 0.37316 -3e-05 0.78557 0.0
O84 O 0.33328 0.97596 0.75977 0.0
O85 O 0.34617 0.97567 0.73219 0.0
O86 O 0.36789 0.98481 0.77708 0.0
O87 O 0.368 0.01534 0.77763 0.0
C88 C 0.32508 0.02601 0.75198 0.0
O89 O 0.36906 0.01996 0.73087 0.0
O90 O 0.38293 0.99441 0.73954 0.0
In91 In 0.21656 0.12945 0.00785 0.0
O92 O 0.23512 0.10697 0.02241 0.0
O93 O 0.23784 0.11052 0.99228 0.0
C94 C 0.18372 0.10921 0.01227 0.0
C95 C 0.22316 0.15695 0.03419 0.0
C96 C 0.22023 0.15265 0.97723 0.0
O97 O 0.19063 0.11973 0.02533 0.0
O98 O 0.19319 0.10917 -0.00311 0.0
O99 O 0.23397 0.14853 0.98817 0.0
O100 O 0.20445 0.14461 0.98136 0.0
C101 C 0.24342 0.10197 0.00717 0.0
O102 O 0.20867 0.15715 0.02332 0.0
O103 O 0.23362 0.1424 0.03242 0.0
In104 In 0.77152 0.40351 0.00262 0.0
O105 O 0.75477 0.38 0.0178 0.0
O106 O 0.78506 0.37714 0.0163 0.0
C107 C 0.76625 0.38772 0.96783 0.0
C108 C 0.74611 0.42904 0.0157 0.0
C109 C 0.80307 0.42568 0.00568 0.0
O110 O 0.75281 0.39546 0.97701 0.0
O111 O 0.78245 0.38869 0.97587 0.0
O112 O 0.79761 0.41457 0.0189 0.0
O113 O 0.79279 0.42534 0.99077 0.0
C114 C 0.76924 0.36997 0.02157 0.0
O115 O 0.75011 0.42748 -0.00188 0.0
O116 O 0.75488 0.41765 0.02661 0.0
In117 In 0.86663 0.49434 0.24322 0.0
O118 O 0.88691 0.51805 0.23318 0.0
O119 O 0.88908 0.49075 0.21983 0.0
C120 C 0.88793 0.49108 0.27527 0.0
C121 C 0.83766 0.51936 0.24003 0.0
C122 C 0.84774 0.46112 0.23659 0.0
O123 O 0.88807 0.47861 0.26217 0.0
O124 O 0.87649 0.5047 0.27253 0.0
O125 O 0.84691 0.4698 0.25245 0.0
O126 O 0.85818 0.46914 0.22415 0.0
C127 C 0.89543 0.50772 0.22113 0.0
O128 O 0.84617 0.51259 0.22562 0.0
O129 O 0.84358 0.51325 0.25598 0.0
In130 In 0.72687 0.61158 0.5027 0.0
O131 O 0.74726 0.58752 0.51094 0.0
O132 O 0.75313 0.603 0.48543 0.0
C133 C 0.69602 0.58856 0.50804 0.0
C134 C 0.73254 0.63446 0.53323 0.0
C135 C 0.72279 0.63741 0.47425 0.0
O136 O 0.70212 0.60004 0.52065 0.0
O137 O 0.70537 0.58877 0.49258 0.0
O138 O 0.73417 0.63967 0.4881 0.0
O139 O 0.71327 0.62191 0.47456 0.0
C140 C 0.75824 0.58999 0.49681 0.0
O141 O 0.7178 0.63559 0.52275 0.0
O142 O 0.74406 0.62138 0.52865 0.0
In143 In 0.62232 0.5244 0.77213 0.0
O144 O 0.64261 0.508 0.75273 0.0
O145 O 0.64267 0.50119 0.78242 0.0
C146 C 0.64242 0.55735 0.76955 0.0
C147 C 0.59445 0.51292 0.74773 0.0
C148 C 0.60254 0.52865 0.80494 0.0
O149 O 0.64705 0.54404 0.78088 0.0
O150 O 0.62759 0.55404 0.75961 0.0
O151 O 0.60432 0.54202 0.79289 0.0
O152 O 0.61097 0.51333 0.80058 0.0
C153 C 0.6493 0.49773 0.76597 0.0
O154 O 0.59728 0.50504 0.7637 0.0
O155 O 0.60549 0.5269 0.74412 0.0
In156 In 0.00188 0.77192 0.88819 0.0
O157 O 0.01168 0.79122 0.86352 0.0
O158 O 0.03296 0.77773 0.8805 0.0
C159 C 0.97296 0.76063 0.8651 0.0
C160 C 0.00739 0.73836 0.9064 0.0
C161 C -0.00323 0.7991 0.91509 0.0
O162 O 0.99014 0.75614 0.86191 0.0
O163 O 0.97048 0.77087 0.87979 0.0
O164 O 0.01092 0.78798 0.9152 0.0
O165 O 0.98535 0.79672 0.90123 0.0
C166 C 0.02929 0.78855 0.86652 0.0
O167 O 0.99432 0.74983 0.91098 0.0
O168 O 0.01775 0.74381 0.8926 0.0
In169 In 0.00676 0.27436 0.63619 0.0
O170 O 0.98975 0.27903 0.60876 0.0
O171 O 0.01462 0.29631 0.61323 0.0
C172 C 0.00269 0.23675 0.6285 0.0
C173 C 0.04235 0.27978 0.65057 0.0
C174 C 0.98179 0.28665 0.66276 0.0
O175 O 0.0151 0.24736 0.62065 0.0
O176 O 0.99193 0.24513 0.64033 0.0
O177 O 0.99383 0.27369 0.66623 0.0
O178 O 0.98232 0.29323 0.64593 0.0
C179 C 0.00065 0.29208 0.60245 0.0
O180 O 0.02954 0.29233 0.65211 0.0
O181 O 0.03721 0.26486 0.64173 0.0
In182 In 0.51192 0.25436 0.3711 0.0
O183 O 0.53147 0.23916 0.35029 0.0
O184 O 0.53651 0.26895 0.35529 0.0
C185 C 0.48342 0.24787 0.34579 0.0
C186 C 0.51434 0.22686 0.39802 0.0
C187 C 0.50861 0.28674 0.39186 0.0
O188 O 0.49654 0.26008 0.34296 0.0
O189 O 0.48422 0.23935 0.36171 0.0
O190 O 0.52324 0.27632 0.39256 0.0
O191 O 0.49579 0.28106 0.38035 0.0
C192 C 0.54103 0.25405 0.34611 0.0
O193 O 0.499 0.23552 0.39433 0.0
O194 O 0.52854 0.23191 0.38795 0.0
In195 In 0.50158 0.76401 0.14287 0.0
O196 O 0.51243 0.73928 0.1249 0.0
O197 O 0.48825 0.73393 0.14265 0.0
C198 C 0.4945 0.78859 0.11406 0.0
C199 C 0.47325 0.77238 0.16749 0.0
C200 C 0.5364 0.76885 0.15906 0.0
O201 O 0.49832 0.7712 0.11108 0.0
O202 O 0.49501 0.79367 0.13141 0.0
O203 O 0.52465 0.75607 0.16432 0.0
O204 O 0.53058 0.77938 0.14559 0.0
C205 C 0.50003 0.72737 0.13068 0.0
O206 O 0.49055 0.77149 0.17272 0.0
O207 O 0.47025 0.76843 0.15008 0.0
In208 In 0.90998 0.01694 0.77012 0.0
O209 O 0.93549 -0.00207 0.76402 0.0
O210 O 0.93305 0.02359 0.74784 0.0
C211 C 0.91534 0.01675 0.80836 0.0
C212 C 0.89122 0.05026 0.76744 0.0
C213 C 0.88787 0.99106 0.75175 0.0
O214 O 0.92605 0.02608 0.79711 0.0
O215 O 0.90217 0.00719 0.80028 0.0
O216 O 0.89048 0.00785 0.74545 0.0
O217 O 0.89609 0.98747 0.76749 0.0
C218 C 0.94211 0.00826 0.75073 0.0
O219 O 0.88286 0.0344 0.77025 0.0
O220 O 0.90925 0.04941 0.76584 0.0
In221 In 0.78488 0.15387 0.49073 0.0
O222 O 0.79173 0.12406 0.4796 0.0
O223 O 0.81508 0.14325 0.48469 0.0
C224 C 0.75665 0.13986 0.51321 0.0
C225 C 0.79818 0.18052 0.51549 0.0
C226 C 0.77396 0.1677 0.45646 0.0
O227 O 0.77255 0.13166 0.5113 0.0
O228 O 0.75487 0.15508 0.50362 0.0
O229 O 0.7894 0.17272 0.46455 0.0
O230 O 0.76404 0.15555 0.4656 0.0
C231 C 0.80964 0.12672 0.47946 0.0
O232 O 0.78748 0.18461 0.50153 0.0
O233 O 0.80263 0.16307 0.51662 0.0
In234 In 0.60224 0.97872 0.26202 0.0
O235 O 0.63174 0.97219 0.27385 0.0
O236 O 0.6175 0.95039 0.25756 0.0
C237 C 0.61951 0.00823 0.24386 0.0
C238 C 0.57047 0.97403 0.24041 0.0
C239 C 0.58869 0.97775 0.29796 0.0
O240 O 0.61937 0.9914 0.23726 0.0
O241 O 0.61086 0.01023 0.25961 0.0
O242 O 0.59015 0.96285 0.28779 0.0
O243 O 0.59402 0.99314 0.28997 0.0
C244 C 0.63226 0.95548 0.26691 0.0
O245 O 0.57226 0.987 0.25288 0.0
O246 O 0.58469 0.96306 0.23896 0.0
In247 In 0.72796 0.84925 0.02114 0.0
O248 O 0.70478 0.86378 0.03891 0.0
O249 O 0.69629 0.85039 0.01295 0.0
C250 C 0.74848 0.87879 0.03555 0.0
C251 C 0.74086 0.81675 0.0375 0.0
C252 C 0.73333 0.84541 0.98318 0.0
O253 O 0.73871 0.88022 0.02036 0.0
O254 O 0.74808 0.86243 0.04326 0.0
O255 O 0.72156 0.83517 0.99245 0.0
O256 O 0.74261 0.85748 0.99312 0.0
C257 C 0.69144 0.86036 0.02717 0.0
O258 O 0.75023 0.8261 0.02518 0.0
O259 O 0.72451 0.82342 0.04118 0.0
In260 In 0.29273 0.65819 -0.00173 0.0
O261 O 0.27493 0.68259 0.00969 0.0
O262 O 0.30451 0.68237 0.0172 0.0
C263 C 0.29464 0.66934 0.96152 0.0
C264 C 0.32245 0.63427 0.00359 0.0
C265 C 0.26229 0.63641 0.00861 0.0
O266 O 0.30124 0.67968 0.97495 0.0
O267 O 0.28741 0.65351 0.96671 0.0
O268 O 0.27697 0.6383 0.01897 0.0
O269 O 0.26293 0.64549 0.993 0.0
C270 C 0.28844 0.69042 0.01894 0.0
O271 O 0.31492 0.64344 0.01716 0.0
O272 O 0.31574 0.63803 0.98727 0.0
In273 In 0.09316 0.47066 0.76182 0.0
O274 O 0.11604 0.45203 0.74813 0.0
O275 O 0.12104 0.46239 0.77646 0.0
C276 C 0.10649 0.50605 0.75321 0.0
C277 C 0.06401 0.46423 0.73716 0.0
C278 C 0.07657 0.46092 0.79515 0.0
O279 O 0.10064 0.50165 0.76975 0.0
O280 O 0.10552 0.49266 0.7411 0.0
O281 O 0.08397 0.4486 0.78422 0.0
O282 O 0.07737 0.47797 0.78912 0.0
C283 C 0.12721 0.45289 0.7624 0.0
O284 O 0.06433 0.47797 0.7489 0.0
O285 O 0.0783 0.45328 0.73811 0.0
In286 In 0.2253 0.31893 0.51649 0.0
O287 O 0.24678 0.29545 0.52203 0.0
O288 O 0.22063 0.29414 0.53754 0.0
C289 C 0.22466 0.31403 0.47829 0.0
C290 C 0.19101 0.33448 0.52482 0.0
C291 C 0.25296 0.34451 0.5259 0.0
O292 O 0.22387 0.30002 0.48977 0.0
O293 O 0.2255 0.33032 0.48614 0.0
O294 O 0.24341 0.33549 0.53837 0.0
O295 O 0.24862 0.34054 0.50879 0.0
C296 C 0.23694 0.28697 0.53461 0.0
O297 O 0.20639 0.33959 0.53285 0.0
O298 O 0.19266 0.32063 0.51332 0.0
In299 In 0.43731 0.5372 0.26346 0.0
O300 O 0.46422 0.51914 0.26396 0.0
O301 O 0.46182 0.53981 0.24183 0.0
C302 C 0.43681 0.54392 0.30136 0.0
C303 C 0.41915 0.569 0.25158 0.0
C304 C 0.41706 0.50585 0.25331 0.0
O305 O 0.45076 0.54895 0.29094 0.0
O306 O 0.42328 0.53552 0.29265 0.0
O307 O 0.42311 0.5086 0.27019 0.0
O308 O 0.42113 0.51902 0.24153 0.0
C309 C 0.47139 0.52632 0.24903 0.0
O310 O 0.41252 0.55232 0.2491 0.0
O311 O 0.43546 0.56972 0.25944 0.0
O312 O 0.95473 0.04924 0.06214 0.0
Zn313 Zn 0.96116 0.02579 0.04707 0.0
O314 O 0.95437 0.00254 0.06113 0.0
Zn315 Zn 0.97728 0.98707 0.0652 0.0
Zn316 Zn 0.94284 0.00919 0.08589 0.0
Zn317 Zn 0.936 0.98816 0.04584 0.0
O318 O 0.97463 0.96118 0.05263 0.0
O319 O 0.94504 0.96141 0.04086 0.0
O320 O 0.9894 0.02704 0.0425 0.0
O321 O 0.00101 0.00016 0.05468 0.0
O322 O 0.98183 0.98307 0.0933 0.0
O323 O 0.95754 -0.00254 0.10774 0.0
O324 O 0.91498 0.00078 0.08744 0.0
O325 O 0.94881 0.02707 0.02109 0.0
O326 O 0.91061 0.98729 0.05878 0.0
O327 O 0.93193 2e-05 0.02004 0.0
C328 C 0.94881 0.05184 0.07918 0.0
C329 C 0.96085 0.9529 0.04382 0.0
C330 C 0.97293 0.98779 0.10849 0.0
C331 C 0.00345 0.01611 0.04609 0.0
C332 C 0.90431 0.99256 0.07501 0.0
C333 C 0.93775 0.01547 0.01222 0.0
O334 O 0.94422 0.0378 0.08997 0.0
O335 O 0.24606 0.74217 0.21316 0.0
Zn336 Zn 0.24604 0.73775 0.24178 0.0
O337 O 0.25125 0.76185 0.25535 0.0
Zn338 Zn 0.27261 0.7584 0.27301 0.0
Zn339 Zn 0.25767 0.78213 0.23715 0.0
Zn340 Zn 0.22872 0.7694 0.26968 0.0
O341 O 0.2654 0.76417 0.30015 0.0
O342 O 0.2348 0.77225 0.2978 0.0
O343 O 0.26652 0.71833 0.24748 0.0
O344 O 0.28324 0.73194 0.27103 0.0
O345 O 0.29468 0.7757 0.26631 0.0
O346 O 0.28506 0.79071 0.24004 0.0
O347 O 0.2411 0.80522 0.2407 0.0
O348 O 0.22039 0.72634 0.24945 0.0
O349 O 0.21927 0.7952 0.26158 0.0
O350 O 0.20767 0.74999 0.26653 0.0
C351 C 0.24979 0.75677 0.20277 0.0
C352 C 0.24989 0.76981 0.30778 0.0
C353 C 0.29785 0.7873 0.25259 0.0
C354 C 0.28006 0.7179 0.25976 0.0
C355 C 0.22606 0.80809 0.25055 0.0
C356 C 0.20647 0.73349 0.25875 0.0
O357 O 0.25439 0.77285 0.21019 0.0
O358 O 0.5457 0.97354 0.54867 0.0
Zn359 Zn 0.53321 0.99475 0.53462 0.0
O360 O 0.54122 0.01922 0.54508 0.0
Zn361 Zn 0.51848 0.03492 0.54912 0.0
Zn362 Zn 0.5555 0.01549 0.56914 0.0
Zn363 Zn 0.55776 0.03121 0.52641 0.0
O364 O 0.51976 0.0596 0.534 0.0
O365 O 0.54772 0.0569 0.51914 0.0
O366 O 0.50494 0.99111 0.5368 0.0
O367 O 0.49404 0.02041 0.54233 0.0
O368 O 0.51622 0.04124 0.57708 0.0
O369 O 0.54058 0.0265 0.59121 0.0
O370 O 0.58185 0.02833 0.56814 0.0
O371 O 0.53979 0.99182 0.50686 0.0
O372 O 0.58372 0.03548 0.53716 0.0
O373 O 0.56004 0.01603 0.50213 0.0
C374 C 0.55502 0.97231 0.56429 0.0
C375 C 0.53264 0.06631 0.52288 0.0
C376 C 0.52549 0.03663 0.59212 0.0
C377 C 0.4911 0.00266 0.53893 0.0
C378 C 0.59123 0.03464 0.55375 0.0
C379 C 0.55134 0.00106 0.49617 0.0
O380 O 0.55917 0.98708 0.57433 0.0
O381 O 0.26951 0.27451 0.80755 0.0
Zn382 Zn 0.28335 0.28421 0.78397 0.0
O383 O 0.27547 0.26957 0.76134 0.0
Zn384 Zn 0.2962 0.25341 0.75266 0.0
Zn385 Zn 0.25331 0.25346 0.76741 0.0
Zn386 Zn 0.26904 0.28719 0.74086 0.0
O387 O 0.30094 0.25642 0.72445 0.0
O388 O 0.28326 0.28149 0.71657 0.0
O389 O 0.31171 0.281 0.78877 0.0
O390 O 0.3204 0.25934 0.7671 0.0
O391 O 0.28942 0.22567 0.75573 0.0
O392 O 0.25808 0.22567 0.7612 0.0
O393 O 0.22984 0.26202 0.75335 0.0
O394 O 0.27748 0.31243 0.78044 0.0
O395 O 0.24096 0.28514 0.73443 0.0
O396 O 0.27324 0.31438 0.74891 0.0
C397 C 0.25546 0.26288 0.80972 0.0
C398 C 0.29496 0.26835 0.71207 0.0
C399 C 0.27356 0.21674 0.75783 0.0
C400 C 0.32444 0.27053 0.78101 0.0
C401 C 0.22718 0.27476 0.74059 0.0
C402 C 0.27484 0.32232 0.76529 0.0
O403 O 0.24778 0.25436 0.79547 0.0
O404 O 0.01736 0.01593 0.48069 0.0
Zn405 Zn 0.00401 -0.0014 0.49927 0.0
O406 O 0.01309 0.0033 0.52526 0.0
Zn407 Zn 0.02558 0.98041 0.53508 0.0
Zn408 Zn 0.0315 0.02474 0.52516 0.0
Zn409 Zn 0.99114 0.00927 0.54141 0.0
O410 O 0.01432 0.9721 0.56025 0.0
O411 O 0.98913 0.99103 0.56362 0.0
O412 O 0.00972 0.9718 0.49091 0.0
O413 O 0.0243 0.9588 0.51599 0.0
O414 O 0.05336 0.98561 0.54023 0.0
O415 O 0.0574 0.01674 0.53499 0.0
O416 O 0.02218 0.04617 0.5417 0.0
O417 O 0.97578 0.00312 0.49665 0.0
O418 O 0.99423 0.03561 0.55292 0.0
O419 O 0.96647 0.00929 0.52639 0.0
C420 C 0.02953 0.02956 0.48217 0.0
C421 C -0.0003 0.9775 0.56962 0.0
C422 C 0.06398 0.00055 0.54004 0.0
C423 C 0.01787 0.95765 0.49891 0.0
C424 C 0.00723 0.04851 0.55185 0.0
C425 C 0.96268 0.00704 0.50866 0.0
O426 O 0.03604 0.03478 0.49844 0.0
O427 O 0.26551 0.72661 0.71894 0.0
Zn428 Zn 0.24641 0.7418 0.73325 0.0
O429 O 0.22076 0.73611 0.72369 0.0
Zn430 Zn 0.20878 0.75961 0.71457 0.0
Zn431 Zn 0.22192 0.71727 0.70266 0.0
Zn432 Zn 0.20586 0.72611 0.74491 0.0
O433 O 0.18553 0.76682 0.72991 0.0
O434 O 0.18512 0.74424 0.75233 0.0
O435 O 0.25328 0.76957 0.72984 0.0
O436 O 0.22718 0.78182 0.7166 0.0
O437 O 0.20183 0.75748 0.68686 0.0
O438 O 0.21239 0.72891 0.6779 0.0
O439 O 0.20564 0.69383 0.70896 0.0
O440 O 0.24993 0.73496 0.76091 0.0
O441 O 0.19409 0.70092 0.73778 0.0
O442 O 0.22178 0.72219 0.76857 0.0
C443 C 0.26506 0.71441 0.70541 0.0
C444 C 0.17845 0.75953 0.74508 0.0
C445 C 0.20458 0.74488 0.67396 0.0
C446 C 0.24422 0.78373 0.72291 0.0
C447 C 0.19529 0.68965 0.72347 0.0
C448 C 0.23891 0.72683 0.77297 0.0
O449 O 0.24936 0.70927 0.69746 0.0
O450 O 0.49586 0.00869 0.05648 0.0
Zn451 Zn 0.50146 0.01112 0.02839 0.0
O452 O 0.4795 0.0019 0.01339 0.0
Zn453 Zn 0.48771 0.98183 -0.0042 0.0
Zn454 Zn 0.45942 0.99192 0.03041 0.0
Zn455 Zn 0.46933 0.02295 -0.00143 0.0
O456 O 0.48278 0.98858 0.96829 0.0
O457 O 0.47124 0.01802 0.97034 0.0
O458 O 0.52494 0.99527 0.02316 0.0
O459 O 0.51558 0.97627 -0.00071 0.0
O460 O 0.47414 0.95699 0.00132 0.0
O461 O 0.45539 0.96371 0.02604 0.0
O462 O 0.43411 0.00505 0.02615 0.0
O463 O 0.50758 0.03899 0.02304 0.0
O464 O 0.44149 0.02654 0.00382 0.0
O465 O 0.48322 0.04742 0.00439 0.0
C466 C 0.48187 0.00201 0.06619 0.0
C467 C 0.4764 0.00367 0.96039 0.0
C468 C 0.46199 0.95181 0.01393 0.0
C469 C 0.5284 0.98213 0.01098 0.0
C470 C 0.42933 0.01854 0.01487 0.0
C471 C 0.49836 0.05165 0.01377 0.0
O472 O 0.46697 0.99508 0.05808 0.0
O473 O 0.2318 0.3042 0.2283 0.0
Zn474 Zn 0.25143 0.28603 0.2374 0.0
O475 O 0.27578 0.29163 0.22529 0.0
Zn476 Zn 0.28556 0.26853 0.21302 0.0
Zn477 Zn 0.27275 0.31202 0.20602 0.0
Zn478 Zn 0.29335 0.29954 0.24536 0.0
O479 O 0.31117 0.26055 0.22357 0.0
O480 O 0.31416 0.28035 0.24843 0.0
O481 O 0.24273 0.25912 0.23227 0.0
O482 O 0.2673 0.24629 0.21687 0.0
O483 O 0.2875 0.27217 0.18474 0.0
O484 O 0.27617 0.30134 0.17925 0.0
O485 O 0.2922 0.33334 0.21075 0.0
O486 O 0.25215 0.28938 0.2658 0.0
O487 O 0.30543 0.32461 0.23841 0.0
O488 O 0.28091 0.30191 0.27126 0.0
C489 C 0.23142 0.31823 0.2167 0.0
C490 C 0.31995 0.26619 0.23858 0.0
C491 C 0.28263 0.2854 0.17321 0.0
C492 C 0.25073 0.24481 0.22439 0.0
C493 C 0.30398 0.33632 0.22449 0.0
C494 C 0.26452 0.29646 0.27723 0.0
O495 O 0.24599 0.32316 0.20683 0.0
O496 O 0.50318 0.49512 0.9874 0.0
Zn497 Zn 0.49492 0.47988 0.01044 0.0
O498 O 0.50907 0.48816 0.03323 0.0
Zn499 Zn 0.52519 0.46745 0.04243 0.0
Zn500 Zn 0.52501 0.51053 0.02677 0.0
Zn501 Zn 0.4911 0.49469 0.05343 0.0
O502 O 0.51877 0.45943 0.06927 0.0
O503 O 0.49452 0.47832 0.07682 0.0
O504 O 0.50086 0.45249 0.00386 0.0
O505 O 0.52354 0.44471 0.02481 0.0
O506 O 0.55249 0.47612 0.04387 0.0
O507 O 0.55287 0.50587 0.03244 0.0
O508 O 0.51729 0.53338 0.04214 0.0
O509 O 0.46645 0.48393 0.01354 0.0
O510 O 0.49469 0.52222 0.06164 0.0
O511 O 0.46412 0.49259 0.04409 0.0
C512 C 0.51418 0.50957 0.98491 0.0
C513 C 0.50626 0.46514 0.08115 0.0
C514 C 0.56143 0.4915 0.03955 0.0
C515 C 0.5131 0.44067 0.01032 0.0
C516 C 0.50534 0.53589 0.05565 0.0
C517 C 0.45641 0.48885 0.02794 0.0
O518 O 0.52319 0.51726 -0.00114 0.0
O519 O 0.77966 0.22166 0.22474 0.0
Zn520 Zn 0.75598 0.23669 0.22821 0.0
O521 O 0.73646 0.22793 0.21047 0.0
Zn522 Zn 0.72644 0.25022 0.19675 0.0
Zn523 Zn 0.74719 0.20879 0.19267 0.0
Zn524 Zn 0.71616 0.21626 0.22533 0.0
O525 O 0.69855 0.25527 0.20272 0.0
O526 O 0.69196 0.23048 0.22171 0.0
O527 O 0.76281 0.26428 0.22428 0.0
O528 O 0.74146 0.27437 0.20307 0.0
O529 O 0.72949 0.24594 0.16855 0.0
O530 O 0.74699 0.21951 0.1657 0.0
O531 O 0.73141 0.18396 0.1928 0.0
O532 O 0.74834 0.23314 0.25549 0.0
O533 O 0.71078 0.18994 0.2162 0.0
O534 O 0.72179 0.21553 0.25372 0.0
C535 C 0.78541 0.20881 0.21324 0.0
C536 C 0.68684 0.24543 0.21273 0.0
C537 C 0.73859 0.23391 0.15833 0.0
C538 C 0.75573 0.27756 0.21407 0.0
C539 C 0.71729 0.17891 0.2033 0.0
C540 C 0.73489 0.22375 0.26355 0.0
O541 O 0.77473 0.2025 0.19973 0.0
O542 O 0.0123 0.50052 0.54362 0.0
Zn543 Zn 0.01953 0.50419 0.51605 0.0
O544 O -0.00172 0.49677 0.4991 0.0
Zn545 Zn 0.00658 0.47711 0.48109 0.0
Zn546 Zn 0.97693 0.48693 0.51446 0.0
Zn547 Zn 0.99002 0.51884 0.48443 0.0
O548 O 0.00305 0.48473 0.45358 0.0
O549 O 0.9906 0.51372 0.45619 0.0
O550 O 0.04253 0.48744 0.51132 0.0
O551 O 0.03387 0.47016 0.48593 0.0
O552 O 0.99163 0.45274 0.48482 0.0
O553 O 0.97106 0.45944 0.50802 0.0
O554 O 0.95318 0.50233 0.51017 0.0
O555 O 0.02715 0.53196 0.51254 0.0
O556 O 0.96274 0.52556 0.49053 0.0
O557 O 0.00708 0.54142 0.48963 0.0
C558 C -0.00237 0.49358 0.55206 0.0
C559 C -0.00385 0.49973 0.44595 0.0
C560 C 0.97807 0.44773 0.49597 0.0
C561 C 0.04614 0.47477 0.49869 0.0
C562 C 0.94977 0.51743 0.50055 0.0
C563 C 0.02089 0.54473 0.50115 0.0
O564 O 0.98309 0.48763 0.54265 0.0
O565 O 0.76507 0.76 0.30535 0.0
Zn566 Zn 0.77984 0.77269 0.28395 0.0
O567 O 0.7742 0.76042 0.25937 0.0
Zn568 Zn 0.79667 0.74724 0.2496 0.0
Zn569 Zn 0.75328 0.74193 0.26248 0.0
Zn570 Zn 0.76691 0.78003 0.24112 0.0
O571 O 0.80228 0.75453 0.22218 0.0
O572 O 0.78237 0.77865 0.21707 0.0
O573 O 0.80791 0.77023 0.29012 0.0
O574 O 0.8197 0.75284 0.26621 0.0
O575 O 0.79206 0.71884 0.2488 0.0
O576 O 0.76072 0.71564 0.25345 0.0
O577 O 0.72977 0.75019 0.24831 0.0
O578 O 0.77301 0.80081 0.28356 0.0
O579 O 0.73924 0.77675 0.23342 0.0
O580 O 0.76911 0.80628 0.25242 0.0
C581 C 0.75217 0.74695 0.30558 0.0
C582 C 0.7955 0.7675 0.21135 0.0
C583 C 0.77694 0.70846 0.24948 0.0
C584 C 0.82192 0.76202 0.28189 0.0
C585 C 0.72632 0.76436 0.23737 0.0
C586 C 0.77021 0.81227 0.26963 0.0
O587 O 0.7463 0.73905 0.29017 0.0
O588 O 0.76039 0.24728 0.7044 0.0
Zn589 Zn 0.75349 0.24487 0.73219 0.0
O590 O 0.75824 0.26927 0.7452 0.0
Zn591 Zn 0.77788 0.26576 0.76486 0.0
Zn592 Zn 0.76667 0.28891 0.72684 0.0
Zn593 Zn 0.73466 0.27757 0.75716 0.0
O594 O 0.76821 0.27309 0.79083 0.0
O595 O 0.73754 0.27956 0.78575 0.0
O596 O 0.76988 0.22405 0.74309 0.0
O597 O 0.78699 0.23854 0.76582 0.0
O598 O 0.80115 0.2818 0.75934 0.0
O599 O 0.79369 0.29751 0.73275 0.0
O600 O 0.75005 0.31247 0.7276 0.0
O601 O 0.72599 0.23596 0.73467 0.0
O602 O 0.72783 0.30395 0.74873 0.0
O603 O 0.71286 0.2597 0.75118 0.0
C604 C 0.76534 0.26118 0.69359 0.0
C605 C 0.75181 0.27797 0.79702 0.0
C606 C 0.80551 0.29357 0.74609 0.0
C607 C 0.78252 0.22361 0.75625 0.0
C608 C 0.73511 0.31621 0.73731 0.0
C609 C 0.7115 0.2437 0.74245 0.0
O610 O 0.76742 0.27816 0.70008 0.0
O611 O 0.7166 0.79069 0.73975 0.0
Zn612 Zn 0.74004 0.7799 0.75162 0.0
O613 O 0.76193 0.78447 0.73514 0.0
Zn614 Zn 0.77395 0.76006 0.72886 0.0
Zn615 Zn 0.75401 0.79792 0.71167 0.0
Zn616 Zn 0.78006 0.80004 0.7493 0.0
O617 O 0.80017 0.75728 0.74081 0.0
O618 O 0.80278 0.78468 0.75685 0.0
O619 O 0.73504 0.75185 0.75547 0.0
O620 O 0.75788 0.73792 0.73848 0.0
O621 O 0.77559 0.7568 0.70047 0.0
O622 O 0.75846 0.78083 0.68866 0.0
O623 O 0.76971 0.82236 0.70778 0.0
O624 O 0.7429 0.79258 0.77719 0.0
O625 O 0.78911 0.82172 0.73313 0.0
O626 O 0.76921 0.81034 0.7739 0.0
C627 C 0.71269 0.79995 0.72457 0.0
C628 C 0.80923 0.76831 0.7523 0.0
C629 C 0.76795 0.76546 0.68637 0.0
C630 C 0.74306 0.73684 0.74907 0.0
C631 C 0.78371 0.82925 0.71744 0.0
C632 C 0.7547 0.80503 0.78365 0.0
O633 O 0.72563 0.80411 0.71232 0.0
O634 O 0.46037 0.53279 0.55409 0.0
Zn635 Zn 0.47079 0.51253 0.53744 0.0
O636 O 0.46182 0.48763 0.54597 0.0
Zn637 Zn 0.48399 0.47117 0.55039 0.0
Zn638 Zn 0.44655 0.49014 0.56958 0.0
Zn639 Zn 0.44599 0.47707 0.52565 0.0
O640 O 0.48299 0.44761 0.53367 0.0
O641 O 0.4571 0.45265 0.51586 0.0
O642 O 0.49931 0.51443 0.53739 0.0
O643 O 0.5089 0.48505 0.54451 0.0
O644 O 0.48541 0.46361 0.57812 0.0
O645 O 0.46047 0.47787 0.59162 0.0
O646 O 0.42028 0.47746 0.56668 0.0
O647 O 0.46234 0.51893 0.51094 0.0
O648 O 0.42004 0.4709 0.53549 0.0
O649 O 0.44311 0.49474 0.50311 0.0
C650 C 0.44969 0.53339 0.5688 0.0
C651 C 0.47152 0.44252 0.52032 0.0
C652 C 0.47549 0.46769 0.59287 0.0
C653 C 0.51263 0.50236 0.5399 0.0
C654 C 0.41177 0.47117 0.55171 0.0
C655 C 0.45097 0.5108 0.4992 0.0
O656 O 0.44318 0.5182 0.57673 0.0
O657 O 0.03707 0.47136 0.04591 0.0
Zn658 Zn 0.02986 0.49136 0.02712 0.0
O659 O 0.04073 0.516 0.03446 0.0
Zn660 Zn 0.02007 0.53425 0.03853 0.0
Zn661 Zn 0.05602 0.51347 0.05812 0.0
Zn662 Zn 0.0567 0.52481 0.01345 0.0
O663 O 0.02315 0.55749 0.0219 0.0
O664 O 0.04761 0.55004 0.00311 0.0
O665 O 0.00136 0.49237 0.02571 0.0
O666 O 0.99426 0.52256 0.03246 0.0
O667 O 0.01911 0.54245 0.06598 0.0
O668 O 0.04409 0.52853 0.07972 0.0
O669 O 0.08342 0.52283 0.05406 0.0
O670 O 0.03852 0.48251 0.00135 0.0
O671 O 0.08322 0.52906 0.02281 0.0
O672 O 0.0577 0.50603 0.99158 0.0
C673 C 0.04747 0.47089 0.06089 0.0
C674 C 0.03445 0.56151 0.00814 0.0
C675 C 0.02935 0.53914 0.08071 0.0
C676 C 0.98914 0.50562 0.02779 0.0
C677 C 0.09197 0.52819 0.0388 0.0
C678 C 0.0496 0.48982 0.98885 0.0
O679 O 0.05597 0.48586 0.06728 0.0
C680 C 0.99474 0.21308 0.13193 0.0
C681 C 0.00097 0.21319 0.1511 0.0
C682 C 0.98829 0.19606 0.12342 0.0
C683 C 0.96585 0.15044 0.13569 0.0
H684 H 0.98353 0.13319 0.08599 0.0
C685 C 0.95099 0.07423 0.10709 0.0
C686 C 0.94957 0.07144 0.08719 0.0
C687 C 0.95515 0.0924 0.11452 0.0
C688 C 0.97811 0.13798 0.0997 0.0
H689 H 0.00587 0.19558 0.17624 0.0
H690 H 0.99444 0.16587 0.16137 0.0
H691 H -0.00389 0.16306 0.09939 0.0
H692 H 0.94988 0.08569 0.05955 0.0
H693 H 0.9564 0.11752 0.07255 0.0
H694 H 0.94764 0.1256 0.136 0.0
C695 C 0.99451 0.17895 0.15299 0.0
C696 C 0.98545 0.15501 0.1074 0.0
C697 C 0.0012 0.1959 0.16142 0.0
C698 C 0.95111 0.08737 0.07495 0.0
C699 C 0.95502 0.10558 0.0824 0.0
C700 C 0.95831 0.13353 0.1279 0.0
C701 C 0.98773 0.17895 0.13403 0.0
C702 C 0.97957 0.16125 0.12556 0.0
C703 C 0.95773 0.1082 0.10222 0.0
C704 C 0.96452 0.12696 0.1099 0.0
H705 H 0.9944 0.22623 0.12368 0.0
H706 H 0.9831 0.1964 0.10877 0.0
H707 H 0.96086 0.15515 0.14961 0.0
H708 H 0.94998 0.06222 0.11689 0.0
H709 H 0.95731 0.09382 0.12984 0.0
C710 C 0.06869 0.70079 0.34787 0.0
C711 C 0.07527 0.71441 0.36129 0.0
C712 C 0.08127 0.69316 0.33431 0.0
C713 C 0.13253 0.68804 0.32229 0.0
H714 H 0.11775 0.70288 0.2708 0.0
C715 C 0.17128 0.73151 0.26329 0.0
C716 C 0.18891 0.72212 0.26199 0.0
C717 C 0.15521 0.7219 0.27039 0.0
C718 C 0.12195 0.69815 0.28498 0.0
H719 H 0.10021 0.72989 0.37189 0.0
H720 H 0.12219 0.71642 0.34849 0.0
H721 H 0.09357 0.7014 0.29605 0.0
H722 H 0.2034 0.69501 0.26561 0.0
H723 H 0.17525 0.67825 0.27877 0.0
H724 H 0.16118 0.68642 0.31167 0.0
C725 C 0.10737 0.71162 0.34836 0.0
C726 C 0.10812 0.69723 0.29942 0.0
C727 C 0.09476 0.7195 0.36163 0.0
C728 C 0.1899 0.70252 0.26647 0.0
C729 C 0.17385 0.69296 0.274 0.0
C730 C 0.14633 0.6888 0.30784 0.0
C731 C 0.10067 0.69872 0.33431 0.0
C732 C 0.11356 0.69338 0.31842 0.0
C733 C 0.15657 0.70282 0.27669 0.0
C734 C 0.14136 0.69509 0.28936 0.0
H735 H 0.05369 0.69664 0.34734 0.0
H736 H 0.07578 0.68332 0.32356 0.0
H737 H 0.137 0.68482 0.33682 0.0
H738 H 0.17018 0.7466 0.2598 0.0
H739 H 0.14218 0.72997 0.2725 0.0
C740 C 0.50585 0.82476 0.62961 0.0
C741 C 0.50728 0.80751 0.61931 0.0
C742 C 0.5151 0.84131 0.62314 0.0
C743 C 0.53316 0.8653 0.58085 0.0
H744 H 0.5629 0.89543 0.61732 0.0
C745 C 0.56265 0.93812 0.55847 0.0
C746 C 0.55902 0.95297 0.57153 0.0
C747 C 0.56175 0.91904 0.56436 0.0
C748 C 0.55461 0.88723 0.60697 0.0
H749 H 0.51897 0.79416 0.59385 0.0
H750 H 0.53479 0.82347 0.58219 0.0
H751 H 0.54926 0.86454 0.62703 0.0
H752 H 0.55308 0.95977 0.6012 0.0
H753 H 0.55077 0.92643 0.61146 0.0
H754 H 0.53742 0.88824 0.56111 0.0
C755 C 0.52667 0.82399 0.5954 0.0
C756 C 0.54685 0.86955 0.61252 0.0
C757 C 0.51758 0.80729 0.60202 0.0
C758 C 0.55603 0.94854 0.59091 0.0
C759 C 0.55474 0.9294 0.59675 0.0
C760 C 0.5407 0.88306 0.57536 0.0
C761 C 0.5258 0.84102 0.60613 0.0
C762 C 0.53573 0.85865 0.59963 0.0
C763 C 0.55674 0.91442 0.58333 0.0
C764 C 0.5512 0.89444 0.58847 0.0
H765 H 0.49805 0.82536 0.64302 0.0
H766 H 0.51392 0.85437 0.63147 0.0
H767 H 0.52451 0.8572 0.5707 0.0
H768 H 0.56521 0.94125 0.54347 0.0
H769 H 0.56397 0.90789 0.55379 0.0
C770 C 0.47519 0.25639 0.86947 0.0
C771 C 0.49037 0.24853 0.85895 0.0
C772 C 0.45758 0.25988 0.86063 0.0
C773 C 0.42625 0.27601 0.83462 0.0
H774 H 0.40375 0.23589 0.80301 0.0
C775 C 0.34804 0.27831 0.80709 0.0
C776 C 0.34413 0.27056 0.78887 0.0
C777 C 0.36631 0.27677 0.81517 0.0
C778 C 0.40995 0.24739 0.81152 0.0
H779 H 0.49909 0.23815 0.831 0.0
H780 H 0.46825 0.2441 0.81561 0.0
H781 H 0.4348 0.23085 0.81806 0.0
H782 H 0.35658 0.25598 0.76444 0.0
H783 H 0.3885 0.25376 0.77828 0.0
H784 H 0.40147 0.29263 0.82796 0.0
C785 C 0.46997 0.24751 0.83068 0.0
C786 C 0.42771 0.24445 0.8202 0.0
C787 C 0.48762 0.24418 0.83946 0.0
C788 C 0.35905 0.2619 0.7786 0.0
C789 C 0.37734 0.26052 0.7866 0.0
C790 C 0.40852 0.27902 0.82581 0.0
C791 C 0.45478 0.25541 0.84117 0.0
C792 C 0.43601 0.2587 0.83187 0.0
C793 C 0.3811 0.2676 0.80512 0.0
C794 C 0.40015 0.26472 0.81418 0.0
H795 H 0.47694 0.25991 0.88451 0.0
H796 H 0.44604 0.26581 0.86909 0.0
H797 H 0.43244 0.28731 0.84339 0.0
H798 H 0.33683 0.28501 0.8154 0.0
H799 H 0.36864 0.28221 0.82954 0.0
C800 C 0.04217 0.81413 0.39979 0.0
C801 C 0.04713 0.79918 0.41227 0.0
C802 C 0.04181 0.83305 0.40643 0.0
C803 C 0.05719 0.86473 0.4463 0.0
H804 H 0.00846 0.88975 0.43792 0.0
C805 C 0.03047 0.92428 0.49592 0.0
C806 C 0.02123 0.94006 0.48761 0.0
C807 C 0.03497 0.90828 0.48485 0.0
C808 C 0.02227 0.88314 0.44014 0.0
H809 H 0.05676 0.79225 0.441 0.0
H810 H 0.05625 0.82517 0.45254 0.0
H811 H 0.01561 0.8602 0.42077 0.0
H812 H 0.00921 0.95125 0.46116 0.0
H813 H 0.01719 0.92334 0.44187 0.0
H814 H 0.0637 0.88742 0.46598 0.0
C815 C 0.05264 0.82239 0.43767 0.0
C816 C 0.02639 0.86625 0.43027 0.0
C817 C 0.05281 0.80352 0.43111 0.0
C818 C 0.01627 0.93931 0.46806 0.0
C819 C 0.02082 0.92331 0.45698 0.0
C820 C 0.05311 0.88164 0.45611 0.0
C821 C 0.04664 0.83727 0.42557 0.0
C822 C 0.04369 0.85665 0.43362 0.0
C823 C 0.03038 0.90771 0.46522 0.0
C824 C 0.03541 0.89076 0.4535 0.0
H825 H 0.03774 0.81112 0.38519 0.0
H826 H 0.03726 0.84431 0.39679 0.0
H827 H 0.07074 0.85772 0.44895 0.0
H828 H 0.03444 0.92435 0.51095 0.0
H829 H 0.04199 0.8963 0.49171 0.0
C830 C 0.42095 0.74957 0.64478 0.0
C831 C 0.4341 0.75029 0.66006 0.0
C832 C 0.40259 0.74192 0.64744 0.0
C833 C 0.37507 0.71009 0.67998 0.0
H834 H 0.33091 0.73474 0.65731 0.0
C835 C 0.29931 0.70669 0.71017 0.0
C836 C 0.28356 0.70808 0.69772 0.0
C837 C 0.31788 0.70611 0.70292 0.0
C838 C 0.34312 0.72737 0.66334 0.0
H839 H 0.43815 0.74421 0.69027 0.0
H840 H 0.40584 0.7314 0.6951 0.0
H841 H 0.36291 0.74709 0.6505 0.0
H842 H 0.27458 0.70818 0.66797 0.0
H843 H 0.30727 0.70736 0.65517 0.0
H844 H 0.35509 0.69093 0.69354 0.0
C845 C 0.40989 0.73628 0.68093 0.0
C846 C 0.36147 0.73453 0.65952 0.0
C847 C 0.42831 0.74386 0.67824 0.0
C848 C 0.28652 0.70705 0.67784 0.0
C849 C 0.3052 0.70674 0.67055 0.0
C850 C 0.3567 0.70299 0.68386 0.0
C851 C 0.39695 0.73491 0.66547 0.0
C852 C 0.37762 0.72628 0.6682 0.0
C853 C 0.32104 0.70715 0.68306 0.0
C854 C 0.34051 0.71187 0.67597 0.0
H855 H 0.42506 0.75428 0.63055 0.0
H856 H 0.39302 0.74098 0.63522 0.0
H857 H 0.38726 0.70311 0.6865 0.0
H858 H 0.29734 0.70738 0.72557 0.0
H859 H 0.32977 0.70653 0.71293 0.0
C860 C 0.5571 0.19367 0.93848 0.0
C861 C 0.54034 0.20075 0.92992 0.0
C862 C 0.55593 0.18073 0.95373 0.0
C863 C 0.52228 0.1603 0.98969 0.0
H864 H 0.55096 0.11354 0.98213 0.0
C865 C 0.4933 0.08634 0.00736 0.0
C866 C 0.50567 0.07156 0.01288 0.0
C867 C 0.50044 0.1047 0.00382 0.0
C868 C 0.54323 0.12666 0.98485 0.0
H869 H 0.50927 0.20035 0.93091 0.0
H870 H 0.50719 0.17759 0.95727 0.0
H871 H 0.55839 0.14163 0.96276 0.0
H872 H 0.53503 0.06467 0.02026 0.0
H873 H 0.54764 0.09693 0.01373 0.0
H874 H 0.50634 0.14488 0.011 0.0
C875 C 0.52125 0.1822 0.95244 0.0
C876 C 0.54746 0.14277 0.9737 0.0
C877 C 0.52242 0.19507 0.93718 0.0
C878 C 0.52518 0.07579 0.01594 0.0
C879 C 0.5324 0.0942 0.01218 0.0
C880 C 0.51804 0.14419 0.00083 0.0
C881 C 0.53797 0.17473 0.96074 0.0
C882 C 0.53642 0.15944 0.9754 0.0
C883 C 0.52015 0.10868 0.00558 0.0
C884 C 0.52788 0.12695 -0.00213 0.0
H885 H 0.57112 0.19795 0.93324 0.0
H886 H 0.56904 0.17527 0.95992 0.0
H887 H 0.51383 0.17311 0.99159 0.0
H888 H 0.47815 0.08356 0.00508 0.0
H889 H 0.49066 0.11546 -0.00146 0.0
C890 C 0.06551 0.28923 0.21635 0.0
C891 C 0.06262 0.27898 0.19922 0.0
C892 C 0.08262 0.29943 0.2194 0.0
C893 C 0.12553 0.30853 0.22496 0.0
H894 H 0.14644 0.33824 0.1827 0.0
C895 C 0.20386 0.32594 0.19584 0.0
C896 C 0.21288 0.32741 0.21373 0.0
C897 C 0.18396 0.32766 0.19451 0.0
C898 C 0.14078 0.33008 0.19466 0.0
H899 H 0.0755 0.27083 0.17213 0.0
H900 H 0.10528 0.28851 0.17753 0.0
H901 H 0.11432 0.32416 0.18005 0.0
H902 H 0.20907 0.33433 0.24372 0.0
H903 H 0.17449 0.33855 0.24126 0.0
H904 H 0.15223 0.31314 0.23913 0.0
C905 C 0.09426 0.2889 0.18845 0.0
C906 C 0.12243 0.32203 0.19314 0.0
C907 C 0.07732 0.27858 0.1855 0.0
C908 C 0.20227 0.33308 0.22978 0.0
C909 C 0.18247 0.33525 0.22839 0.0
C910 C 0.14394 0.31637 0.22641 0.0
C911 C 0.09693 0.29969 0.20525 0.0
C912 C 0.11493 0.31067 0.20803 0.0
C913 C 0.17294 0.33113 0.21106 0.0
C914 C 0.15206 0.32671 0.21102 0.0
H915 H 0.05436 0.28987 0.22712 0.0
H916 H 0.08444 0.30755 0.23254 0.0
H917 H 0.1201 0.29976 0.2366 0.0
H918 H 0.21183 0.32137 0.18335 0.0
H919 H 0.17718 0.32435 0.18091 0.0
C920 C 0.07282 0.01997 0.24613 0.0
C921 C 0.0916 0.01691 0.23965 0.0
C922 C 0.05714 0.0132 0.2355 0.0
C923 C 0.04335 0.97859 0.19776 0.0
H924 H 0.00443 0.0157 0.18467 0.0
C925 C 0.00017 0.97564 0.12823 0.0
C926 C 0.98197 0.98407 0.12732 0.0
C927 C 0.01047 0.97553 0.14538 0.0
C928 C 0.01483 0.00493 0.18854 0.0
H929 H 0.10879 0.00412 0.21723 0.0
H930 H 0.08145 0.99235 0.19867 0.0
H931 H 0.02872 0.0239 0.20843 0.0
H932 H 0.95952 -0.00274 0.14418 0.0
H933 H 0.97742 -0.00326 0.17424 0.0
H934 H 0.02979 0.95981 0.17748 0.0
C935 C 0.07882 -0.00016 0.21201 0.0
C936 C 0.02881 0.00969 0.20212 0.0
C937 C 0.09446 0.00676 0.22252 0.0
C938 C 0.97362 0.99089 0.14432 0.0
C939 C 0.98391 0.99069 0.16153 0.0
C940 C 0.02927 0.97376 0.18428 0.0
C941 C 0.06002 0.00307 0.21834 0.0
C942 C 0.04357 -0.00318 0.20636 0.0
C943 C 0.00276 0.98371 0.16207 0.0
C944 C 0.01526 0.98714 0.17902 0.0
H945 H 0.07022 0.02768 0.25935 0.0
H946 H 0.04278 0.01584 0.24071 0.0
H947 H 0.0544 0.96828 0.20105 0.0
H948 H 0.007 0.97013 0.11545 0.0
H949 H 0.02499 0.97016 0.14518 0.0
C950 C 0.28403 0.85802 0.45509 0.0
C951 C 0.2698 0.87157 0.4591 0.0
C952 C 0.28194 0.84546 0.4396 0.0
C953 C 0.24494 0.82317 0.4092 0.0
H954 H 0.28706 0.81301 0.37458 0.0
C955 C 0.23518 0.78722 0.33539 0.0
C956 C 0.25021 0.77613 0.32803 0.0
C957 C 0.2371 0.79637 0.35311 0.0
C958 C 0.27524 0.81537 0.38433 0.0
H959 H 0.24252 0.88299 0.44977 0.0
H960 H 0.23894 0.86112 0.42262 0.0
H961 H 0.29187 0.83491 0.40142 0.0
H962 H 0.27831 0.76455 0.33429 0.0
H963 H 0.28143 0.78015 0.36542 0.0
H964 H 0.22826 0.80371 0.39209 0.0
C965 C 0.25158 0.86007 0.4316 0.0
C966 C 0.278 0.828 0.39964 0.0
C967 C 0.25373 0.8727 0.44701 0.0
C968 C 0.26656 0.7732 0.33943 0.0
C969 C 0.26842 0.78225 0.35721 0.0
C970 C 0.2422 0.81044 0.39395 0.0
C971 C 0.26553 0.84615 0.42791 0.0
C972 C 0.26281 0.83222 0.41208 0.0
C973 C 0.25401 0.7945 0.36393 0.0
C974 C 0.25727 0.80657 0.3812 0.0
H975 H 0.29654 0.85679 0.46422 0.0
H976 H 0.29288 0.83482 0.43713 0.0
H977 H 0.23307 0.8259 0.41879 0.0
H978 H 0.22238 0.78977 0.32699 0.0
H979 H 0.22576 0.80577 0.35779 0.0
C980 C 0.41827 0.00552 0.72191 0.0
C981 C 0.40098 0.01523 0.71894 0.0
C982 C 0.43474 0.01087 0.71187 0.0
C983 C 0.45567 0.04947 0.6812 0.0
H984 H 0.48588 0.0076 0.66121 0.0
C985 C 0.50045 0.05221 0.61227 0.0
C986 C 0.51696 0.04086 0.61104 0.0
C987 C 0.48977 0.05268 0.62916 0.0
C988 C 0.47791 0.01952 0.66703 0.0
H989 H 0.38732 0.03827 0.70338 0.0
H990 H 0.41591 0.04715 0.68518 0.0
H991 H 0.45981 0.00076 0.68314 0.0
H992 H 0.53633 0.02276 0.62719 0.0
H993 H 0.5176 0.0236 0.65667 0.0
H994 H 0.47331 0.06807 0.66406 0.0
C995 C 0.41692 0.03573 0.69564 0.0
C996 C 0.46289 0.0156 0.67961 0.0
C997 C 0.40048 0.03052 0.70589 0.0
C998 C 0.52356 0.03148 0.62759 0.0
C999 C 0.51281 0.03188 0.64445 0.0
C1000 C 0.47064 0.05338 0.66843 0.0
C1001 C 0.43423 0.02588 0.69843 0.0
C1002 C 0.45134 0.03046 0.68657 0.0
C1003 C 0.49537 0.04177 0.6451 0.0
C1004 C 0.48166 0.03838 0.66095 0.0
H1005 H 0.41913 0.99385 0.73212 0.0
H1006 H 0.44789 0.00321 0.71465 0.0
H1007 H 0.44727 0.0613 0.68658 0.0
H1008 H 0.49509 0.0598 0.59985 0.0
H1009 H 0.47636 0.0604 0.6292 0.0
C1010 C 0.23921 0.17776 0.96026 0.0
C1011 C 0.22251 0.16642 0.96136 0.0
C1012 C 0.24162 0.19095 0.94544 0.0
C1013 C 0.2155 0.21692 0.9071 0.0
H1014 H 0.26625 0.22084 0.88471 0.0
C1015 C 0.23204 0.24689 0.83172 0.0
C1016 C 0.24907 0.25754 0.82921 0.0
C1017 C 0.22748 0.23905 0.84956 0.0
C1018 C 0.25208 0.22018 0.89102 0.0
H1019 H 0.19513 0.16004 0.94798 0.0
H1020 H 0.1996 0.18268 0.92156 0.0
H1021 H 0.26096 0.19988 0.91202 0.0
H1022 H 0.27404 0.26943 0.84374 0.0
H1023 H 0.26609 0.25559 0.87494 0.0
H1024 H 0.20657 0.23672 0.88539 0.0
C1025 C 0.21066 0.18169 0.93242 0.0
C1026 C 0.24902 0.20814 0.90669 0.0
C1027 C 0.20815 0.16861 0.94743 0.0
C1028 C 0.26085 0.26123 0.84519 0.0
C1029 C 0.25637 0.25323 0.86301 0.0
C1030 C 0.21854 0.22885 0.89126 0.0
C1031 C 0.22749 0.19295 0.93121 0.0
C1032 C 0.23068 0.20627 0.91488 0.0
C1033 C 0.23994 0.2416 0.8652 0.0
C1034 C 0.23685 0.23049 0.88302 0.0
H1035 H 0.25042 0.17656 0.97096 0.0
H1036 H 0.25457 0.19965 0.94521 0.0
H1037 H 0.20127 0.21604 0.91324 0.0
H1038 H 0.22258 0.24392 0.81971 0.0
H1039 H 0.21478 0.23008 0.85081 0.0
C1040 C 0.12959 0.03961 0.34313 0.0
C1041 C 0.12256 0.04987 0.32734 0.0
C1042 C 0.121 0.04145 0.36106 0.0
C1043 C 0.08809 0.03467 0.38834 0.0
H1044 H 0.07191 0.08092 0.41448 0.0
C1045 C 0.03154 0.03108 0.44647 0.0
C1046 C 0.03777 0.03786 0.46445 0.0
C1047 C 0.04151 0.03599 0.42988 0.0
C1048 C 0.0764 0.06796 0.40727 0.0
H1049 H 0.1021 0.07126 0.31819 0.0
H1050 H 0.08706 0.07447 0.34968 0.0
H1051 H 0.0923 0.08339 0.38577 0.0
H1052 H 0.05835 0.05651 0.47886 0.0
H1053 H 0.07575 0.06517 0.44962 0.0
H1054 H 0.07203 0.0192 0.4094 0.0
C1055 C 0.09919 0.06501 0.34813 0.0
C1056 C 0.08798 0.06935 0.39093 0.0
C1057 C 0.10772 0.06308 0.33011 0.0
C1058 C 0.05327 0.05093 0.46525 0.0
C1059 C 0.06319 0.05596 0.44855 0.0
C1060 C 0.07635 0.0333 0.40438 0.0
C1061 C 0.10532 0.05367 0.36355 0.0
C1062 C 0.09393 0.05268 0.38137 0.0
C1063 C 0.05781 0.04789 0.43087 0.0
C1064 C 0.07031 0.04989 0.41392 0.0
H1065 H 0.14112 0.02944 0.34145 0.0
H1066 H 0.12611 0.03272 0.37282 0.0
H1067 H 0.09224 0.0216 0.38109 0.0
H1068 H 0.01953 0.02118 0.44527 0.0
H1069 H 0.03696 0.02982 0.41633 0.0
C1070 C 0.23098 0.84461 0.53622 0.0
C1071 C 0.24807 0.85369 0.54217 0.0
C1072 C 0.2238 0.8287 0.54615 0.0
C1073 C 0.23767 0.79141 0.58127 0.0
H1074 H 0.18378 0.79147 0.59487 0.0
C1075 C 0.21075 0.74041 0.63887 0.0
C1076 C 0.20163 0.75045 0.65372 0.0
C1077 C 0.21248 0.74862 0.62066 0.0
C1078 C 0.19882 0.79113 0.59104 0.0
H1079 H 0.27113 0.8532 0.56302 0.0
H1080 H 0.25847 0.82567 0.58059 0.0
H1081 H 0.19613 0.81522 0.57229 0.0
H1082 H 0.18504 0.77574 0.66047 0.0
H1083 H 0.18825 0.79008 0.62901 0.0
H1084 H 0.24071 0.76824 0.60098 0.0
C1085 C 0.25076 0.83059 0.56805 0.0
C1086 C 0.20588 0.80466 0.578 0.0
C1087 C 0.25794 0.84648 0.55811 0.0
C1088 C 0.19241 0.76776 0.64942 0.0
C1089 C 0.19413 0.77594 0.63126 0.0
C1090 C 0.23064 0.77794 0.59434 0.0
C1091 C 0.23358 0.82156 0.56222 0.0
C1092 C 0.22553 0.80538 0.57354 0.0
C1093 C 0.20507 0.76695 0.61699 0.0
C1094 C 0.21128 0.7781 0.59992 0.0
H1095 H 0.22312 0.8498 0.52389 0.0
H1096 H 0.21062 0.82197 0.54123 0.0
H1097 H 0.25281 0.79135 0.57781 0.0
H1098 H 0.21785 0.72694 0.64166 0.0
H1099 H 0.22065 0.74116 0.60981 0.0
C1100 C 0.39039 0.01693 0.81209 0.0
C1101 C 0.38559 -0.00025 0.80265 0.0
C1102 C 0.40309 0.01686 0.82759 0.0
C1103 C 0.42357 0.98489 0.86418 0.0
H1104 H 0.45997 0.0268 0.871 0.0
C1105 C 0.474 0.98671 0.92883 0.0
C1106 C 0.47273 0.00376 0.93952 0.0
C1107 C 0.46708 0.98593 0.91005 0.0
C1108 C 0.44991 0.015 0.86922 0.0
H1109 H 0.39027 0.96906 0.80189 0.0
H1110 H 0.41264 0.96895 0.82877 0.0
H1111 H 0.43969 0.02577 0.8424 0.0
H1112 H 0.4648 0.03378 0.93831 0.0
H1113 H 0.45273 0.03236 0.90558 0.0
H1114 H 0.43356 0.97426 0.89109 0.0
C1115 C 0.40639 0.98244 0.82444 0.0
C1116 C 0.43823 0.01445 0.85294 0.0
C1117 C 0.3936 0.98249 0.80903 0.0
C1118 C 0.46583 0.02037 0.93053 0.0
C1119 C 0.45901 0.0196 0.91172 0.0
C1120 C 0.43532 0.98538 0.88037 0.0
C1121 C 0.41132 -0.00037 0.83386 0.0
C1122 C 0.42469 -0.00043 0.85042 0.0
C1123 C 0.45892 0.0022 0.90157 0.0
C1124 C 0.44837 0.00059 0.88321 0.0
H1125 H 0.38441 0.03044 0.80747 0.0
H1126 H 0.4063 0.0303 0.83476 0.0
H1127 H 0.41312 0.97337 0.86283 0.0
H1128 H 0.47937 0.97369 0.93527 0.0
H1129 H 0.46743 0.9724 0.9024 0.0
C1130 C 0.2181 0.19037 0.04621 0.0
C1131 C 0.2288 0.17339 0.04633 0.0
C1132 C 0.22467 0.20659 0.05615 0.0
C1133 C 0.23692 0.23396 0.08836 0.0
H1134 H 0.29154 0.24514 0.0887 0.0
C1135 C 0.29209 0.26509 0.14553 0.0
C1136 C 0.28156 0.28061 0.15262 0.0
C1137 C 0.28743 0.25687 0.12789 0.0
C1138 C 0.27624 0.2423 0.08862 0.0
H1139 H 0.25451 0.15992 0.05724 0.0
H1140 H 0.26579 0.18803 0.07478 0.0
H1141 H 0.27879 0.22021 0.06749 0.0
H1142 H 0.25921 0.30098 0.14596 0.0
H1143 H 0.25103 0.28654 0.11501 0.0
H1144 H 0.23445 0.25539 0.11011 0.0
C1145 C 0.25253 0.18898 0.06673 0.0
C1146 C 0.26895 0.22798 0.07657 0.0
C1147 C 0.24595 0.1728 0.05687 0.0
C1148 C 0.26755 0.28898 0.14087 0.0
C1149 C 0.26276 0.28063 0.12323 0.0
C1150 C 0.24421 0.24827 0.10043 0.0
C1151 C 0.24211 0.20612 0.06628 0.0
C1152 C 0.24933 0.22319 0.07683 0.0
C1153 C 0.27205 0.26394 0.11702 0.0
C1154 C 0.26404 0.25212 0.10118 0.0
H1155 H 0.20488 0.19126 0.03809 0.0
H1156 H 0.21634 0.21961 0.05556 0.0
H1157 H 0.22175 0.23055 0.08893 0.0
H1158 H 0.30308 0.25843 0.15421 0.0
H1159 H 0.29484 0.24398 0.12358 0.0
C1160 C 0.15611 0.09811 0.03229 0.0
C1161 C 0.1662 0.0975 0.01491 0.0
C1162 C 0.1396 0.08692 0.03485 0.0
C1163 C 0.10136 0.06245 0.00768 0.0
H1164 H 0.09032 0.0387 0.05677 0.0
C1165 C 0.02548 0.03946 0.02994 0.0
C1166 C 0.02297 0.02253 0.04062 0.0
C1167 C 0.04381 0.04628 0.02559 0.0
C1168 C 0.09331 0.04501 0.04289 0.0
H1169 H 0.16714 0.08454 0.98665 0.0
H1170 H 0.13837 0.06488 0.99115 0.0
H1171 H 0.12112 0.05481 0.05177 0.0
H1172 H 0.03782 -0.00078 0.05473 0.0
H1173 H 0.06997 0.01119 0.04704 0.0
H1174 H 0.07356 0.05268 -0.0012 0.0
C1175 C 0.14307 0.07418 0.00273 0.0
C1176 C 0.11084 0.05444 0.04011 0.0
C1177 C 0.15957 0.08539 0.00017 0.0
C1178 C 0.03926 0.01233 0.04651 0.0
C1179 C 0.05766 0.01923 0.04219 0.0
C1180 C 0.08384 0.05303 0.01046 0.0
C1181 C 0.13287 0.07486 0.02008 0.0
C1182 C 0.11492 0.06355 0.02258 0.0
C1183 C 0.0601 0.03636 0.03182 0.0
C1184 C 0.07948 0.04451 0.02821 0.0
H1185 H 0.1609 0.10732 0.04391 0.0
H1186 H 0.13191 0.08799 0.04828 0.0
H1187 H 0.104 0.06941 0.99405 0.0
H1188 H 0.01328 0.04768 0.02514 0.0
H1189 H 0.0452 0.05966 0.01782 0.0
C1190 C 0.72563 0.4415 0.04209 0.0
C1191 C 0.73134 0.44219 0.0228 0.0
C1192 C 0.70992 0.45204 0.04829 0.0
C1193 C 0.67569 0.4901 0.03543 0.0
H1194 H 0.63821 0.45519 0.05748 0.0
C1195 C 0.59433 0.50108 0.02913 0.0
C1196 C 0.58224 0.4923 0.04262 0.0
C1197 C 0.6142 0.49923 0.0307 0.0
C1198 C 0.64853 0.46542 0.05187 0.0
H1199 H 0.72612 0.45549 0.9952 0.0
H1200 H 0.69856 0.47386 0.00604 0.0
H1201 H 0.67087 0.4448 0.05334 0.0
H1202 H 0.58115 0.47644 0.06929 0.0
H1203 H 0.61578 0.47411 0.07268 0.0
H1204 H 0.65315 0.51065 0.03364 0.0
C1205 C 0.70626 0.46523 0.01636 0.0
C1206 C 0.66732 0.45938 0.04944 0.0
C1207 C 0.72192 0.45459 0.01012 0.0
C1208 C 0.59025 0.483 0.0585 0.0
C1209 C 0.61008 0.48159 0.06036 0.0
C1210 C 0.65687 0.49629 0.03812 0.0
C1211 C 0.69975 0.46354 0.03533 0.0
C1212 C 0.68094 0.47144 0.04073 0.0
C1213 C 0.62229 0.48892 0.04603 0.0
C1214 C 0.64292 0.48381 0.04588 0.0
H1215 H 0.73277 0.43218 0.05221 0.0
H1216 H 0.70525 0.45063 0.06303 0.0
H1217 H 0.68601 0.4997 0.02878 0.0
H1218 H 0.5884 0.50834 0.01676 0.0
H1219 H 0.62308 0.50492 0.01928 0.0
C1220 C 0.82435 0.43561 0.24643 0.0
C1221 C 0.83735 0.44297 0.23289 0.0
C1222 C 0.81466 0.41832 0.24299 0.0
C1223 C 0.8189 0.37347 0.21635 0.0
H1224 H 0.76471 0.36735 0.22754 0.0
C1225 C 0.7553 0.31283 0.20678 0.0
C1226 C 0.76449 0.29694 0.21497 0.0
C1227 C 0.76369 0.33111 0.20785 0.0
C1228 C 0.7798 0.36891 0.22421 0.0
H1229 H 0.85034 0.43815 0.20509 0.0
H1230 H 0.83351 0.40782 0.19915 0.0
H1231 H 0.78012 0.39881 0.23138 0.0
H1232 H 0.78979 0.28779 0.23056 0.0
H1233 H 0.80439 0.31958 0.23229 0.0
H1234 H 0.81866 0.34356 0.20939 0.0
C1235 C 0.83085 0.41542 0.21243 0.0
C1236 C 0.78864 0.38683 0.22656 0.0
C1237 C 0.84042 0.43279 0.2158 0.0
C1238 C 0.78229 0.2997 0.22412 0.0
C1239 C 0.79074 0.31789 0.22501 0.0
C1240 C 0.81011 0.35553 0.21417 0.0
C1241 C 0.81792 0.40799 0.22601 0.0
C1242 C 0.8083 0.38924 0.22277 0.0
C1243 C 0.78152 0.33377 0.21693 0.0
C1244 C 0.79052 0.35304 0.21823 0.0
H1245 H 0.82169 0.44318 0.25972 0.0
H1246 H 0.80492 0.41282 0.25379 0.0
H1247 H 0.8341 0.37488 0.21346 0.0
H1248 H 0.74157 0.31118 0.19965 0.0
H1249 H 0.75634 0.34312 0.20142 0.0
C1250 C 0.78203 0.56601 0.50829 0.0
C1251 C 0.77659 0.57991 0.49481 0.0
C1252 C 0.80035 0.55813 0.5077 0.0
C1253 C 0.84887 0.57036 0.49224 0.0
H1254 H 0.85914 0.51648 0.5008 0.0
C1255 C 0.92498 0.53936 0.487 0.0
C1256 C 0.93009 0.52511 0.50026 0.0
C1257 C 0.90612 0.54577 0.48592 0.0
C1258 C 0.85651 0.53161 0.49862 0.0
H1259 H 0.78568 0.59584 0.46965 0.0
H1260 H 0.81768 0.58203 0.46864 0.0
H1261 H 0.82604 0.5274 0.49891 0.0
H1262 H 0.91949 0.5068 0.52315 0.0
H1263 H 0.8867 0.51835 0.52157 0.0
H1264 H 0.87925 0.57471 0.49233 0.0
C1265 C 0.80785 0.5774 0.47976 0.0
C1266 C 0.83757 0.53782 0.49746 0.0
C1267 C 0.78951 0.5852 0.48027 0.0
C1268 C 0.91601 0.51771 0.51268 0.0
C1269 C 0.89717 0.52422 0.51169 0.0
C1270 C 0.86779 0.56418 0.49352 0.0
C1271 C 0.81357 0.56408 0.49369 0.0
C1272 C 0.83358 0.55726 0.49427 0.0
C1273 C 0.89197 0.53819 0.49817 0.0
C1274 C 0.87184 0.54474 0.49676 0.0
H1275 H 0.77235 0.56167 0.51965 0.0
H1276 H 0.80442 0.54796 0.51869 0.0
H1277 H 0.84621 0.58549 0.4901 0.0
H1278 H 0.93545 0.54528 0.47713 0.0
H1279 H 0.90255 0.55638 0.47519 0.0
C1280 C 0.18758 0.08627 0.26301 0.0
C1281 C 0.1711 0.08051 0.25287 0.0
C1282 C 0.19722 0.10318 0.25811 0.0
C1283 C 0.20347 0.14606 0.25431 0.0
H1284 H 0.21535 0.1615 0.20219 0.0
C1285 C 0.22415 0.22344 0.2358 0.0
C1286 C 0.24095 0.22591 0.22493 0.0
C1287 C 0.21572 0.20533 0.2377 0.0
C1288 C 0.21216 0.15729 0.21679 0.0
H1289 H 0.15223 0.08736 0.22914 0.0
H1290 H 0.16918 0.11699 0.22053 0.0
H1291 H 0.20136 0.12965 0.20824 0.0
H1292 H 0.26158 0.21142 0.20685 0.0
H1293 H 0.24667 0.17971 0.21014 0.0
H1294 H 0.21407 0.17362 0.26292 0.0
C1295 C 0.17462 0.1084 0.23224 0.0
C1296 C 0.20408 0.13918 0.22024 0.0
C1297 C 0.16487 0.09153 0.23724 0.0
C1298 C 0.2487 0.20998 0.2154 0.0
C1299 C 0.24014 0.19186 0.21719 0.0
C1300 C 0.21131 0.16417 0.25086 0.0
C1301 C 0.19063 0.11456 0.2429 0.0
C1302 C 0.19969 0.13343 0.23904 0.0
C1303 C 0.2238 0.18934 0.22867 0.0
C1304 C 0.21566 0.16999 0.23208 0.0
H1305 H 0.19276 0.078 0.27507 0.0
H1306 H 0.20968 0.10753 0.26641 0.0
H1307 H 0.20002 0.14206 0.26892 0.0
H1308 H 0.21773 0.23539 0.24326 0.0
H1309 H 0.20296 0.2038 0.24643 0.0
C1310 C 0.3382 0.91694 0.52648 0.0
C1311 C 0.32295 0.92684 0.51799 0.0
C1312 C 0.35608 0.92586 0.5287 0.0
C1313 C 0.37987 0.9724 0.53325 0.0
H1314 H 0.42488 0.94542 0.51562 0.0
C1315 C 0.45585 0.00711 0.53323 0.0
C1316 C 0.47132 0.99504 0.53739 0.0
C1317 C 0.43737 -0.00056 0.53087 0.0
C1318 C 0.41252 0.95306 0.5209 0.0
H1319 H 0.31425 0.95387 0.50547 0.0
H1320 H 0.34553 0.96957 0.50966 0.0
H1321 H 0.39334 0.93068 0.51182 0.0
H1322 H 0.47945 0.96564 0.5432 0.0
H1323 H 0.44734 0.95244 0.5398 0.0
H1324 H 0.39905 0.99458 0.54284 0.0
C1325 C 0.34362 0.9549 0.51448 0.0
C1326 C 0.39446 0.94463 0.51863 0.0
C1327 C 0.32581 0.94589 0.512 0.0
C1328 C 0.46788 0.97529 0.5397 0.0
C1329 C 0.44945 0.9677 0.53762 0.0
C1330 C 0.39801 0.98076 0.53578 0.0
C1331 C 0.35894 0.9449 0.52273 0.0
C1332 C 0.37799 0.95416 0.52486 0.0
C1333 C 0.43399 0.97959 0.53286 0.0
C1334 C 0.41458 0.97112 0.52975 0.0
H1335 H 0.33638 0.90225 0.53125 0.0
H1336 H 0.36765 0.9179 0.53524 0.0
H1337 H 0.36735 0.97997 0.53827 0.0
H1338 H 0.45809 0.02238 0.53133 0.0
H1339 H 0.42584 0.00901 0.52705 0.0
C1340 C 0.81704 0.54415 0.25508 0.0
C1341 C 0.82343 0.53477 0.2385 0.0
C1342 C 0.80617 0.56078 0.25362 0.0
C1343 C 0.80064 0.60075 0.22037 0.0
H1344 H 0.76602 0.61892 0.2597 0.0
C1345 C 0.79611 0.67977 0.24043 0.0
C1346 C 0.77838 0.68769 0.24547 0.0
C1347 C 0.7977 0.66019 0.23689 0.0
C1348 C 0.77538 0.614 0.24839 0.0
H1349 H 0.82208 0.53435 0.20745 0.0
H1350 H 0.80273 0.56322 0.20487 0.0
H1351 H 0.77391 0.58493 0.25821 0.0
H1352 H 0.74829 0.68121 0.25049 0.0
H1353 H 0.75111 0.64685 0.24425 0.0
H1354 H 0.80234 0.6298 0.21071 0.0
C1355 C 0.80653 0.55802 0.219 0.0
C1356 C 0.78006 0.59456 0.24764 0.0
C1357 C 0.81754 0.54145 0.22046 0.0
C1358 C 0.76218 0.67556 0.24669 0.0
C1359 C 0.76379 0.65589 0.24317 0.0
C1360 C 0.7959 0.62012 0.22106 0.0
C1361 C 0.80135 0.56828 0.23554 0.0
C1362 C 0.79329 0.58786 0.23406 0.0
C1363 C 0.78158 0.64801 0.23827 0.0
C1364 C 0.78382 0.62707 0.23551 0.0
H1365 H 0.82132 0.53928 0.2692 0.0
H1366 H 0.80263 0.56838 0.26667 0.0
H1367 H 0.81098 0.59618 0.20979 0.0
H1368 H 0.8089 0.68867 0.23937 0.0
H1369 H 0.81169 0.65452 0.23352 0.0
C1370 C 0.6706 0.47942 0.74392 0.0
C1371 C 0.66258 0.48186 0.76221 0.0
C1372 C 0.68161 0.46328 0.73983 0.0
C1373 C 0.69147 0.42188 0.73142 0.0
H1374 H 0.72156 0.39672 0.77069 0.0
C1375 C 0.71479 0.34152 0.75188 0.0
C1376 C 0.72716 0.33579 0.73709 0.0
C1377 C 0.70893 0.36049 0.75328 0.0
C1378 C 0.71329 0.40369 0.75957 0.0
H1379 H 0.66015 0.46972 0.7907 0.0
H1380 H 0.67879 0.44137 0.78352 0.0
H1381 H 0.70918 0.42876 0.77662 0.0
H1382 H 0.74238 0.34533 0.71165 0.0
H1383 H 0.73148 0.37867 0.71386 0.0
H1384 H 0.69576 0.39658 0.71444 0.0
C1385 C 0.67706 0.45204 0.77238 0.0
C1386 C 0.70609 0.42196 0.76298 0.0
C1387 C 0.66625 0.46825 0.77651 0.0
C1388 C 0.73288 0.34933 0.72322 0.0
C1389 C 0.72669 0.36834 0.72446 0.0
C1390 C 0.69896 0.40368 0.72791 0.0
C1391 C 0.68464 0.4492 0.75391 0.0
C1392 C 0.69458 0.43104 0.74919 0.0
C1393 C 0.71504 0.37409 0.73977 0.0
C1394 C 0.70944 0.39427 0.74219 0.0
H1395 H 0.66808 0.48978 0.73265 0.0
H1396 H 0.6875 0.46173 0.72557 0.0
H1397 H 0.68251 0.42832 0.72055 0.0
H1398 H 0.71012 0.33151 0.76283 0.0
H1399 H 0.69974 0.36461 0.76507 0.0
C1400 C 0.00729 0.81634 0.94477 0.0
C1401 C 0.99349 0.8133 0.93037 0.0
C1402 C 0.00398 0.82951 0.95947 0.0
C1403 C 0.96539 0.85474 0.9846 0.0
H1404 H 0.00488 0.89238 -0.0033 0.0
C1405 C 0.94968 0.92551 0.02334 0.0
C1406 C 0.96378 0.9337 0.03532 0.0
C1407 C 0.95332 0.90864 0.0133 0.0
C1408 C 0.99383 0.88174 0.99382 0.0
H1409 H 0.96541 0.82153 0.92 0.0
H1410 H 0.95964 0.84456 0.94567 0.0
H1411 H 0.01145 0.8672 0.97347 0.0
H1412 H 0.99233 0.9299 0.04707 0.0
H1413 H -0.00146 0.90021 0.02976 0.0
H1414 H 0.94768 0.86936 0.00478 0.0
C1415 C 0.97294 0.83666 0.94568 0.0
C1416 C -0.00241 0.86736 0.98045 0.0
C1417 C 0.97631 0.82361 0.93092 0.0
C1418 C 0.98122 0.92407 0.03782 0.0
C1419 C 0.98483 0.90712 0.02782 0.0
C1420 C 0.96166 0.86904 -0.00193 0.0
C1421 C 0.98674 0.83974 0.96009 0.0
C1422 C 0.98328 0.85396 0.97544 0.0
C1423 C 0.97109 0.89948 0.01508 0.0
C1424 C 0.97571 0.88294 0.00255 0.0
H1425 H 0.02064 0.80854 0.94472 0.0
H1426 H 0.01481 0.83155 0.97046 0.0
H1427 H 0.95421 0.84437 0.98122 0.0
H1428 H 0.93607 0.93252 0.02109 0.0
H1429 H 0.94249 0.90329 0.00345 0.0
C1430 C 0.95313 0.30585 0.67145 0.0
C1431 C 0.96757 0.29308 0.67693 0.0
C1432 C 0.93861 0.31068 0.68424 0.0
C1433 C 0.91344 0.29015 0.7254 0.0
H1434 H 0.88581 0.33812 0.72308 0.0
C1435 C 0.83921 0.29519 0.75844 0.0
C1436 C 0.82542 0.30099 0.74494 0.0
C1437 C 0.85865 0.29897 0.75534 0.0
C1438 C 0.89348 0.32471 0.72401 0.0
H1439 H 0.97888 0.27624 0.70042 0.0
H1440 H 0.95362 0.28491 0.72295 0.0
H1441 H 0.91725 0.3357 0.7079 0.0
H1442 H 0.82108 0.31694 0.71859 0.0
H1443 H 0.85495 0.32331 0.7131 0.0
H1444 H 0.88944 0.2789 0.74079 0.0
C1445 C 0.9533 0.2909 0.70862 0.0
C1446 C 0.91143 0.32329 0.71528 0.0
C1447 C 0.96778 0.28596 0.69576 0.0
C1448 C 0.83133 0.31211 0.72918 0.0
C1449 C 0.85077 0.3159 0.7261 0.0
C1450 C 0.89559 0.29161 0.73421 0.0
C1451 C 0.93829 0.30294 0.70285 0.0
C1452 C 0.92126 0.30576 0.71525 0.0
C1453 C 0.86467 0.30866 0.73873 0.0
C1454 C 0.88511 0.30868 0.733 0.0
H1455 H 0.95264 0.3116 0.65703 0.0
H1456 H 0.92715 0.31974 0.67917 0.0
H1457 H 0.92045 0.27636 0.72548 0.0
H1458 H 0.83514 0.28682 0.77089 0.0
H1459 H 0.86904 0.29349 0.76546 0.0
C1460 C 0.49929 0.20728 0.42398 0.0
C1461 C 0.51554 0.2121 0.41307 0.0
C1462 C 0.50034 0.19327 0.43822 0.0
C1463 C 0.53473 0.16711 0.46858 0.0
H1464 H 0.49453 0.12833 0.47077 0.0
C1465 C 0.54525 0.09357 0.5033 0.0
C1466 C 0.53005 0.08518 0.51362 0.0
C1467 C 0.54274 0.1108 0.49357 0.0
C1468 C 0.50568 0.13925 0.47059 0.0
H1469 H 0.54564 0.20617 0.40849 0.0
H1470 H 0.54744 0.18151 0.43321 0.0
H1471 H 0.49156 0.15515 0.44857 0.0
H1472 H 0.5004 0.0886 0.52225 0.0
H1473 H 0.496 0.11884 0.5051 0.0
H1474 H 0.54907 0.15094 0.49027 0.0
C1475 C 0.53395 0.18874 0.43096 0.0
C1476 C 0.50401 0.15459 0.45786 0.0
C1477 C 0.5329 0.20275 0.41671 0.0
C1478 C 0.51238 0.09467 0.51439 0.0
C1479 C 0.50983 0.11193 0.50452 0.0
C1480 C 0.53641 0.15178 0.4813 0.0
C1481 C 0.51767 0.18382 0.44183 0.0
C1482 C 0.51869 0.16847 0.45646 0.0
C1483 C 0.52495 0.12005 0.49387 0.0
C1484 C 0.52209 0.13749 0.48215 0.0
H1485 H 0.48573 0.21433 0.42153 0.0
H1486 H 0.48761 0.18991 0.44649 0.0
H1487 H 0.54609 0.1778 0.4681 0.0
H1488 H 0.55909 0.08669 0.50246 0.0
H1489 H 0.55459 0.11656 0.48528 0.0
C1490 C 0.56119 0.75839 0.18246 0.0
C1491 C 0.55555 0.77094 0.1678 0.0
C1492 C 0.57949 0.75983 0.19044 0.0
C1493 C 0.62814 0.77735 0.17997 0.0
H1494 H 0.63567 0.76904 0.23446 0.0
C1495 C 0.70271 0.78152 0.2165 0.0
C1496 C 0.7068 0.76661 0.22941 0.0
C1497 C 0.68419 0.78372 0.20921 0.0
C1498 C 0.63379 0.77129 0.2192 0.0
H1499 H 0.56446 0.79501 0.15017 0.0
H1500 H 0.59651 0.79764 0.16428 0.0
H1501 H 0.60323 0.77036 0.2215 0.0
H1502 H 0.6946 0.74231 0.24476 0.0
H1503 H 0.66239 0.74612 0.23197 0.0
H1504 H 0.65875 0.77807 0.1777 0.0
C1505 C 0.58682 0.78656 0.16943 0.0
C1506 C 0.61523 0.77204 0.21178 0.0
C1507 C 0.56847 0.78512 0.16142 0.0
C1508 C 0.69197 0.75397 0.23486 0.0
C1509 C 0.67346 0.75622 0.22764 0.0
C1510 C 0.64673 0.77664 0.18742 0.0
C1511 C 0.59254 0.77387 0.18397 0.0
C1512 C 0.6122 0.77475 0.19204 0.0
C1513 C 0.66937 0.77113 0.21477 0.0
C1514 C 0.64972 0.77328 0.20706 0.0
H1515 H 0.55155 0.74728 0.18763 0.0
H1516 H 0.58355 0.74963 0.2014 0.0
H1517 H 0.62628 0.77924 0.16467 0.0
H1518 H 0.7138 0.79153 0.21202 0.0
H1519 H 0.6814 0.79542 0.1994 0.0
C1520 C 0.01606 0.20744 0.61367 0.0
C1521 C 0.00142 0.21607 0.62431 0.0
C1522 C 0.01526 0.18793 0.60953 0.0
C1523 C 0.98257 0.14814 0.60187 0.0
H1524 H 0.02908 0.11832 0.60602 0.0
C1525 C 0.98862 0.06994 0.57383 0.0
C1526 C 0.00515 0.0665 0.56287 0.0
C1527 C 0.98689 0.08693 0.58433 0.0
C1528 C 0.01598 0.12646 0.60477 0.0
H1529 H 0.97442 0.21118 0.63894 0.0
H1530 H 0.97286 0.17677 0.63132 0.0
H1531 H 0.0282 0.15057 0.61949 0.0
H1532 H 0.0328 0.07824 0.55433 0.0
H1533 H 0.0297 0.10778 0.57243 0.0
H1534 H 0.97062 0.12427 0.58642 0.0
C1535 C 0.98498 0.18522 0.62635 0.0
C1536 C 0.01547 0.14486 0.61252 0.0
C1537 C 0.98589 0.20482 0.63072 0.0
C1538 C 0.01989 0.08037 0.56264 0.0
C1539 C 0.01819 0.09726 0.57316 0.0
C1540 C 0.9831 0.12969 0.59403 0.0
C1541 C -0.00026 0.17663 0.6158 0.0
C1542 C -0.00101 0.15609 0.61059 0.0
C1543 C 0.00172 0.1007 0.58415 0.0
C1544 C 4e-05 0.11894 0.59487 0.0
H1545 H 0.02821 0.21574 0.60854 0.0
H1546 H 0.02667 0.18174 0.60109 0.0
H1547 H 0.96973 0.15658 0.60013 0.0
H1548 H 0.977 0.05953 0.57432 0.0
H1549 H 0.97406 0.08921 0.59273 0.0
C1550 C 0.55584 0.23875 0.3176 0.0
C1551 C 0.55479 0.25445 0.33014 0.0
C1552 C 0.56755 0.2396 0.30146 0.0
C1553 C 0.60187 0.24007 0.27577 0.0
H1554 H 0.60885 0.28682 0.2463 0.0
C1555 C 0.66383 0.2692 0.22523 0.0
C1556 C 0.66716 0.25184 0.2157 0.0
C1557 C 0.64644 0.272 0.23475 0.0
C1558 C 0.60691 0.27367 0.25437 0.0
H1559 H 0.56523 0.2833 0.3358 0.0
H1560 H 0.58638 0.28452 0.30792 0.0
H1561 H 0.58628 0.28623 0.27321 0.0
H1562 H 0.65455 0.22496 0.20629 0.0
H1563 H 0.62392 0.23016 0.22216 0.0
H1564 H 0.62258 0.22754 0.25734 0.0
C1565 C 0.57776 0.27174 0.3103 0.0
C1566 C 0.59414 0.27335 0.26983 0.0
C1567 C 0.56585 0.27096 0.32638 0.0
C1568 C 0.6522 0.23844 0.21363 0.0
C1569 C 0.63477 0.24136 0.22283 0.0
C1570 C 0.61443 0.24035 0.26032 0.0
C1571 C 0.57868 0.25608 0.29763 0.0
C1572 C 0.59162 0.25655 0.28078 0.0
C1573 C 0.63229 0.25748 0.23463 0.0
C1574 C 0.61719 0.25715 0.24951 0.0
H1575 H 0.54725 0.22595 0.31999 0.0
H1576 H 0.56766 0.2274 0.29184 0.0
H1577 H 0.60065 0.22704 0.28414 0.0
H1578 H 0.67533 0.2796 0.22712 0.0
H1579 H 0.64491 0.28457 0.24373 0.0
C1580 C 0.47839 0.81838 0.10348 0.0
C1581 C 0.48832 0.80164 0.09872 0.0
C1582 C 0.47158 0.83042 0.08912 0.0
C1583 C 0.48217 0.8478 0.04233 0.0
H1584 H 0.43086 0.86862 0.04507 0.0
C1585 C 0.46558 0.91755 0.00377 0.0
C1586 C 0.4575 0.93117 0.01618 0.0
C1587 C 0.46481 0.89804 0.0083 0.0
C1588 C 0.4452 0.8629 0.04402 0.0
H1589 H 0.49906 0.78431 0.07533 0.0
H1590 H 0.48772 0.806 0.05005 0.0
H1591 H 0.4392 0.84083 0.06458 0.0
H1592 H 0.44062 0.93482 0.04202 0.0
H1593 H 0.43971 0.90111 0.05014 0.0
H1594 H 0.48881 0.87069 0.02311 0.0
C1595 C 0.48496 0.80949 0.06492 0.0
C1596 C 0.44992 0.84697 0.05511 0.0
C1597 C 0.49147 0.79719 0.07933 0.0
C1598 C 0.44714 0.92474 0.03223 0.0
C1599 C 0.44649 0.90529 0.0368 0.0
C1600 C 0.47755 0.86389 0.03142 0.0
C1601 C 0.47482 0.82611 0.06975 0.0
C1602 C 0.46866 0.83982 0.05493 0.0
C1603 C 0.45603 0.8918 0.02535 0.0
C1604 C 0.45925 0.87215 0.03282 0.0
H1605 H 0.47565 0.82208 0.11831 0.0
H1606 H 0.46409 0.84334 0.09319 0.0
H1607 H 0.49674 0.84255 0.04203 0.0
H1608 H 0.47342 0.922 0.99112 0.0
H1609 H 0.47194 0.88796 -0.00105 0.0
C1610 C 0.93811 0.75933 0.85757 0.0
C1611 C 0.95696 0.75466 0.85256 0.0
C1612 C 0.9229 0.75443 0.84552 0.0
C1613 C 0.91166 0.7458 0.79524 0.0
H1614 H 0.86171 0.73376 0.81671 0.0
C1615 C 0.83829 0.74724 0.75362 0.0
C1616 C 0.82687 0.76163 0.76175 0.0
C1617 C 0.85485 0.74105 0.76311 0.0
C1618 C 0.87564 0.73676 0.81047 0.0
H1619 H 0.97472 0.74082 0.83124 0.0
H1620 H 0.94793 0.73226 0.80999 0.0
H1621 H 0.8902 0.7318 0.83697 0.0
H1622 H 0.82357 0.78054 0.78627 0.0
H1623 H 0.85204 0.76945 0.80286 0.0
H1624 H 0.89678 0.75153 0.76892 0.0
C1625 C 0.94501 0.73977 0.82326 0.0
C1626 C 0.8919 0.73578 0.82205 0.0
C1627 C 0.96029 0.74463 0.83541 0.0
C1628 C 0.83213 0.76953 0.77955 0.0
C1629 C 0.84832 0.76309 0.78914 0.0
C1630 C 0.89535 0.7466 0.78358 0.0
C1631 C 0.92616 0.74473 0.82816 0.0
C1632 C 0.90993 0.74125 0.81482 0.0
C1633 C 0.85979 0.74884 0.78104 0.0
C1634 C 0.87717 0.74294 0.7914 0.0
H1635 H 0.9351 0.76705 0.8707 0.0
H1636 H 0.9086 0.75882 0.84955 0.0
H1637 H 0.92536 0.75014 0.78928 0.0
H1638 H 0.83454 0.74094 0.73989 0.0
H1639 H 0.86365 0.73011 0.75661 0.0
C1640 C 0.90578 0.00631 0.84124 0.0
C1641 C 0.91749 0.01767 0.82936 0.0
C1642 C 0.90727 0.00776 0.86115 0.0
C1643 C 0.93991 0.02416 0.89967 0.0
H1644 H 0.89383 0.02159 0.93067 0.0
C1645 C 0.94235 0.03365 0.98158 0.0
C1646 C 0.93279 0.01917 0.99195 0.0
C1647 C 0.93934 0.03558 0.96187 0.0
C1648 C 0.90681 0.02229 0.92218 0.0
H1649 H 0.93992 0.03942 0.8289 0.0
H1650 H 0.94234 0.04216 0.86367 0.0
H1651 H 0.89123 0.02046 0.89578 0.0
H1652 H 0.91181 0.99603 0.98995 0.0
H1653 H 0.90656 -0.00053 0.95561 0.0
H1654 H 0.95547 0.0259 0.92608 0.0
C1655 C 0.93222 0.03192 0.85764 0.0
C1656 C 0.90535 0.02156 0.90222 0.0
C1657 C 0.93079 0.0304 0.83773 0.0
C1658 C 0.91947 0.00728 0.98238 0.0
C1659 C 0.91637 0.00931 0.96272 0.0
C1660 C 0.94136 0.02499 0.91961 0.0
C1661 C 0.92042 0.02066 0.86958 0.0
C1662 C 0.9219 0.02226 0.89075 0.0
C1663 C 0.92659 0.02319 0.9522 0.0
C1664 C 0.92484 0.02385 0.93106 0.0
H1665 H 0.89543 -0.00367 0.83516 0.0
H1666 H 0.89822 -0.00137 0.86994 0.0
H1667 H 0.95296 0.02447 0.89127 0.0
H1668 H 0.95267 0.04308 0.98852 0.0
H1669 H 0.94723 0.04656 0.95413 0.0
C1670 C 0.79713 0.21364 0.5291 0.0
C1671 C 0.80266 0.1944 0.53082 0.0
C1672 C 0.79786 0.22584 0.54499 0.0
C1673 C 0.81343 0.22852 0.59639 0.0
H1674 H 0.7654 0.25544 0.60259 0.0
C1675 C 0.77602 0.23848 0.66829 0.0
C1676 C 0.77066 0.25713 0.67354 0.0
C1677 C 0.78277 0.23475 0.64989 0.0
C1678 C 0.77902 0.2483 0.60092 0.0
H1679 H 0.81469 0.1732 0.54999 0.0
H1680 H 0.81544 0.19412 0.57775 0.0
H1681 H 0.77375 0.24229 0.57137 0.0
H1682 H 0.76767 0.28641 0.66351 0.0
H1683 H 0.77885 0.27958 0.63086 0.0
H1684 H 0.81781 0.23331 0.62644 0.0
C1685 C 0.81084 0.20006 0.56418 0.0
C1686 C 0.78391 0.24084 0.58302 0.0
C1687 C 0.81029 0.18797 0.54826 0.0
C1688 C 0.77172 0.2719 0.65984 0.0
C1689 C 0.77812 0.26805 0.64124 0.0
C1690 C 0.80837 0.2357 0.61433 0.0
C1691 C 0.80396 0.21894 0.56293 0.0
C1692 C 0.80086 0.23026 0.5807 0.0
C1693 C 0.78398 0.24951 0.63628 0.0
C1694 C 0.79086 0.24509 0.61683 0.0
H1695 H 0.79137 0.21902 0.51573 0.0
H1696 H 0.79287 0.24041 0.54342 0.0
H1697 H 0.8268 0.22087 0.59502 0.0
H1698 H 0.77551 0.22682 0.67854 0.0
H1699 H 0.78696 0.22027 0.64625 0.0
C1700 C 0.58169 0.95978 0.32809 0.0
C1701 C 0.58186 0.97714 0.31788 0.0
C1702 C 0.57643 0.95945 0.3474 0.0
C1703 C 0.58036 0.96938 0.39033 0.0
H1704 H 0.53419 0.99365 0.40911 0.0
C1705 C 0.57104 -4e-05 0.46639 0.0
C1706 C 0.55427 0.99469 0.47626 0.0
C1707 C 0.57346 0.99469 0.44726 0.0
C1708 C 0.54701 0.98664 0.40401 0.0
H1709 H 0.57599 0.00758 0.31946 0.0
H1710 H 0.56637 0.0069 0.35315 0.0
H1711 H 0.53929 0.99041 0.37448 0.0
H1712 H 0.52695 0.97967 0.474 0.0
H1713 H 0.53101 0.97096 0.44023 0.0
H1714 H 0.58853 0.96648 0.41982 0.0
C1715 C 0.57044 0.99363 0.34624 0.0
C1716 C 0.54995 0.98489 0.3843 0.0
C1717 C 0.57605 0.99403 0.32705 0.0
C1718 C 0.54005 0.98386 0.46674 0.0
C1719 C 0.54231 0.97893 0.44747 0.0
C1720 C 0.57758 0.97146 0.41002 0.0
C1721 C 0.57089 0.9764 0.35662 0.0
C1722 C 0.56677 0.97648 0.37733 0.0
C1723 C 0.559 0.98438 0.4376 0.0
C1724 C 0.56102 0.98033 0.41698 0.0
H1725 H 0.58614 0.94656 0.32132 0.0
H1726 H 0.57684 0.94601 0.35517 0.0
H1727 H 0.59349 0.96297 0.38523 0.0
H1728 H 0.58225 0.00823 0.47341 0.0
H1729 H 0.58637 -0.00083 0.43983 0.0
C1730 C 0.76919 0.79701 0.04619 0.0
C1731 C 0.74979 0.80149 0.04901 0.0
C1732 C 0.77911 0.78629 0.05982 0.0
C1733 C 0.77414 0.75813 0.10481 0.0
H1734 H 0.81615 0.79051 0.12255 0.0
C1735 C 0.79914 0.78515 0.18059 0.0
C1736 C 0.80072 0.76797 0.1909 0.0
C1737 C 0.79956 0.78499 0.16061 0.0
C1738 C 0.80475 0.78107 0.11757 0.0
H1739 H 0.72504 0.79659 0.06715 0.0
H1740 H 0.74233 0.77791 0.09097 0.0
H1741 H 0.80246 0.79577 0.09083 0.0
H1742 H 0.80525 0.73733 0.18858 0.0
H1743 H 0.80545 0.73701 0.15345 0.0
H1744 H 0.77561 0.74435 0.13218 0.0
C1745 C 0.74991 0.78264 0.07826 0.0
C1746 C 0.79696 0.78398 0.09938 0.0
C1747 C 0.74001 0.79344 0.06467 0.0
C1748 C 0.80412 0.7508 0.18095 0.0
C1749 C 0.80413 0.75058 0.16089 0.0
C1750 C 0.78207 0.7551 0.12296 0.0
C1751 C 0.76977 0.77977 0.07643 0.0
C1752 C 0.78098 0.77315 0.09319 0.0
C1753 C 0.80122 0.7676 0.15058 0.0
C1754 C 0.79682 0.76717 0.12983 0.0
H1755 H 0.77707 0.80286 0.03413 0.0
H1756 H 0.79435 0.78408 0.05794 0.0
H1757 H 0.76194 0.7495 0.10032 0.0
H1758 H 0.79652 0.79857 0.18794 0.0
H1759 H 0.7971 0.79831 0.15302 0.0
C1760 C 0.96409 0.01329 0.72296 0.0
C1761 C 0.9568 0.00124 0.73737 0.0
C1762 C 0.97448 0.00562 0.70773 0.0
C1763 C 3e-05 0.98515 0.67866 0.0
H1764 H 0.96685 0.94813 0.65302 0.0
C1765 C 0.01235 0.96418 0.60029 0.0
C1766 C -0.00337 0.97021 0.58924 0.0
C1767 C 0.01051 0.96184 0.6201 0.0
C1768 C 0.97646 0.95814 0.66017 0.0
H1769 H 0.95594 0.972 0.74803 0.0
H1770 H 0.97376 0.95858 0.72113 0.0
H1771 H 0.96043 0.95707 0.68628 0.0
H1772 H 0.96631 0.97667 0.58985 0.0
H1773 H 0.96298 0.97208 0.62436 0.0
H1774 H 0.01545 0.98695 0.65221 0.0
C1775 C 0.9715 0.97393 0.7217 0.0
C1776 C 0.97287 0.96319 0.67919 0.0
C1777 C 0.96137 0.98164 0.73709 0.0
C1778 C 0.97866 0.9721 0.59803 0.0
C1779 C 0.97675 0.96938 0.61776 0.0
C1780 C 0.00381 0.97986 0.65974 0.0
C1781 C 0.97752 0.98576 0.70656 0.0
C1782 C 0.98416 0.97731 0.68833 0.0
C1783 C 0.99283 0.96506 0.62905 0.0
C1784 C 0.99158 0.96689 0.65011 0.0
H1785 H 0.96081 0.02845 0.72286 0.0
H1786 H 0.97886 0.01504 0.69615 0.0
H1787 H 0.00892 0.99605 0.68543 0.0
H1788 H 0.02641 0.96268 0.5939 0.0
H1789 H 0.02308 0.95847 0.62855 0.0
C1790 C 0.77886 0.19002 0.42897 0.0
C1791 C 0.76805 0.17539 0.43772 0.0
C1792 C 0.77364 0.19701 0.411 0.0
C1793 C 0.73372 0.1988 0.37597 0.0
H1794 H 0.77506 0.20711 0.33971 0.0
C1795 C 0.72328 0.20812 0.29386 0.0
C1796 C 0.73545 0.22137 0.28461 0.0
C1797 C 0.72558 0.20429 0.31341 0.0
C1798 C 0.76336 0.20513 0.34975 0.0
H1799 H 0.74311 0.1568 0.43475 0.0
H1800 H 0.73419 0.16874 0.40309 0.0
H1801 H 0.78244 0.19682 0.37213 0.0
H1802 H 0.75867 0.24193 0.28889 0.0
H1803 H 0.76251 0.23533 0.32288 0.0
H1804 H 0.71463 0.20679 0.35324 0.0
C1805 C 0.74653 0.17502 0.41026 0.0
C1806 C 0.7676 0.19924 0.36834 0.0
C1807 C 0.75171 0.16809 0.42831 0.0
C1808 C 0.74922 0.23144 0.2955 0.0
C1809 C 0.75149 0.22763 0.31497 0.0
C1810 C 0.72947 0.20465 0.35727 0.0
C1811 C 0.75757 0.18943 0.40133 0.0
C1812 C 0.75285 0.19602 0.38168 0.0
C1813 C 0.74006 0.21364 0.32401 0.0
C1814 C 0.74427 0.2079 0.344 0.0
H1815 H 0.79143 0.19604 0.43598 0.0
H1816 H 0.78225 0.20836 0.40465 0.0
H1817 H 0.72206 0.19661 0.38599 0.0
H1818 H 0.71249 0.20016 0.28588 0.0
H1819 H 0.71661 0.19338 0.32001 0.0
C1820 C 0.5542 0.96138 0.21101 0.0
C1821 C 0.55395 0.97331 0.22722 0.0
C1822 C 0.54019 0.9632 0.19681 0.0
C1823 C 0.50619 0.96698 0.16989 0.0
H1824 H 0.50061 0.02035 0.15537 0.0
C1825 C 0.47173 0.98877 0.09805 0.0
C1826 C 0.4837 0.00101 0.08727 0.0
C1827 C 0.47517 0.98597 0.1176 0.0
C1828 C 0.50186 0.00539 0.15935 0.0
H1829 H 0.53801 0.99528 0.24217 0.0
H1830 H 0.51343 -0.0017 0.21748 0.0
H1831 H 0.51587 0.0124 0.1857 0.0
H1832 H 0.50788 0.02078 0.08876 0.0
H1833 H 0.51382 0.01593 0.12275 0.0
H1834 H 0.49322 0.96003 0.14289 0.0
C1835 C 0.52464 0.98783 0.21554 0.0
C1836 C 0.51043 0.00081 0.17681 0.0
C1837 C 0.53867 0.98605 0.22969 0.0
C1838 C 0.49847 0.01118 0.09663 0.0
C1839 C 0.50178 0.00852 0.11616 0.0
C1840 C 0.49756 0.97157 0.15241 0.0
C1841 C 0.52565 0.97694 0.19863 0.0
C1842 C 0.51329 0.98155 0.18197 0.0
C1843 C 0.49047 0.99554 0.12674 0.0
C1844 C 0.49596 0.99082 0.14669 0.0
H1845 H 0.5658 0.95141 0.20876 0.0
H1846 H 0.54148 0.9547 0.18388 0.0
H1847 H 0.508 0.95202 0.1736 0.0
H1848 H 0.46021 0.98074 0.09125 0.0
H1849 H 0.46617 0.97598 0.12548 0.0
C1850 C 0.74992 0.8543 0.95265 0.0
C1851 C 0.7357 0.84366 0.96227 0.0
C1852 C 0.75195 0.85271 0.93278 0.0
C1853 C 0.72562 0.83843 0.88924 0.0
H1854 H 0.77601 0.82965 0.86773 0.0
C1855 C 0.73628 0.80646 0.81432 0.0
C1856 C 0.7518 0.81287 0.80313 0.0
C1857 C 0.73408 0.81288 0.83311 0.0
C1858 C 0.76189 0.83245 0.87344 0.0
H1859 H 0.71241 0.8231 0.95875 0.0
H1860 H 0.71596 0.82033 0.9241 0.0
H1861 H 0.77276 0.83587 0.90199 0.0
H1862 H 0.77689 0.83155 0.80275 0.0
H1863 H 0.7729 0.84293 0.83559 0.0
H1864 H 0.71468 0.8348 0.86079 0.0
C1865 C 0.72544 0.82999 0.93186 0.0
C1866 C 0.76003 0.83597 0.89307 0.0
C1867 C 0.72351 0.83147 0.9517 0.0
C1868 C 0.76482 0.82625 0.81101 0.0
C1869 C 0.7626 0.83271 0.82985 0.0
C1870 C 0.72747 0.83501 0.86962 0.0
C1871 C 0.73967 0.84059 0.9222 0.0
C1872 C 0.74184 0.8386 0.9012 0.0
C1873 C 0.74732 0.82592 0.84116 0.0
C1874 C 0.74558 0.83159 0.86157 0.0
H1875 H 0.75949 0.86383 0.96046 0.0
H1876 H 0.76297 0.86111 0.92566 0.0
H1877 H 0.71145 0.84075 0.8951 0.0
H1878 H 0.72598 0.79614 0.80872 0.0
H1879 H 0.72232 0.80714 0.84152 0.0
C1880 C 0.77168 0.892 0.05954 0.0
C1881 C 0.75974 0.89489 0.0436 0.0
C1882 C 0.78324 0.90692 0.06651 0.0
C1883 C 0.80703 0.9504 0.04923 0.0
H1884 H 0.82152 0.95644 0.10265 0.0
C1885 C 0.87026 -0.00183 0.0676 0.0
C1886 C 0.884 0.98904 0.07896 0.0
C1887 C 0.8514 0.9914 0.06725 0.0
C1888 C 0.81755 0.95497 0.08769 0.0
H1889 H 0.74971 0.91584 0.02302 0.0
H1890 H 0.76977 0.94199 0.03529 0.0
H1891 H 0.79477 0.93513 0.09404 0.0
H1892 H 0.88899 0.96663 0.09972 0.0
H1893 H 0.85607 0.95426 0.09875 0.0
H1894 H 0.83017 0.9694 0.04265 0.0
C1895 C 0.77045 0.92811 0.04222 0.0
C1896 C 0.80228 0.94276 0.08276 0.0
C1897 C 0.75896 0.91316 0.0352 0.0
C1898 C 0.87844 0.97397 0.09107 0.0
C1899 C 0.8596 0.96696 0.0905 0.0
C1900 C 0.82223 0.96255 0.05413 0.0
C1901 C 0.78302 0.92504 0.0577 0.0
C1902 C 0.79719 0.93999 0.06341 0.0
C1903 C 0.84612 0.97503 0.07785 0.0
C1904 C 0.82799 0.96464 0.07337 0.0
H1905 H 0.77251 0.87807 0.06634 0.0
H1906 H 0.79294 0.90398 0.07827 0.0
H1907 H 0.80374 0.94836 0.03417 0.0
H1908 H 0.87439 0.0098 0.05812 0.0
H1909 H 0.84126 -0.00181 0.0577 0.0
C1910 C 0.33921 0.61151 0.02535 0.0
C1911 C 0.33588 0.6184 0.00674 0.0
C1912 C 0.34969 0.59479 0.02816 0.0
C1913 C 0.36567 0.55111 0.00263 0.0
H1914 H 0.40185 0.54797 0.04471 0.0
C1915 C 0.4296 0.4996 0.00688 0.0
C1916 C 0.43618 0.49431 0.02518 0.0
C1917 C 0.41323 0.51086 0.00499 0.0
C1918 C 0.39149 0.54841 0.03314 0.0
H1919 H 0.34143 0.61368 0.97653 0.0
H1920 H 0.36031 0.58484 0.98147 0.0
H1921 H 0.38302 0.57676 0.0407 0.0
H1922 H 0.42924 0.49408 0.05549 0.0
H1923 H 0.40054 0.51341 0.05212 0.0
H1924 H 0.37484 0.52292 0.9947 0.0
C1925 C 0.35438 0.59202 0.99386 0.0
C1926 C 0.38074 0.56499 0.03079 0.0
C1927 C 0.34378 0.60867 0.99105 0.0
C1928 C 0.42472 0.49826 0.04123 0.0
C1929 C 0.40835 0.50942 0.03933 0.0
C1930 C 0.37654 0.53452 0.00492 0.0
C1931 C 0.35717 0.5847 0.01243 0.0
C1932 C 0.36789 0.56665 0.01537 0.0
C1933 C 0.40318 0.51684 0.02136 0.0
C1934 C 0.38971 0.5331 0.02009 0.0
H1935 H 0.33312 0.61863 0.0377 0.0
H1936 H 0.35144 0.58947 0.04264 0.0
H1937 H 0.35561 0.5518 0.9908 0.0
H1938 H 0.43805 0.49669 0.99421 0.0
H1939 H 0.40956 0.5163 0.99093 0.0
C1940 C 0.12194 0.52875 0.73015 0.0
C1941 C 0.11413 0.52522 0.74838 0.0
C1942 C 0.12958 0.54677 0.72565 0.0
C1943 C 0.12849 0.59749 0.74001 0.0
H1944 H 0.17855 0.60049 0.71598 0.0
C1945 C 0.17373 0.66646 0.74041 0.0
C1946 C 0.18465 0.6712 0.72413 0.0
C1947 C 0.16407 0.64893 0.74155 0.0
C1948 C 0.16442 0.59991 0.72238 0.0
H1949 H 0.10801 0.53773 0.77615 0.0
H1950 H 0.12137 0.56926 0.76829 0.0
H1951 H 0.16354 0.56921 0.7215 0.0
H1952 H 0.19372 0.66126 0.69611 0.0
H1953 H 0.17658 0.63056 0.69805 0.0
H1954 H 0.12937 0.62813 0.74104 0.0
C1955 C 0.12146 0.55813 0.75744 0.0
C1956 C 0.15585 0.582 0.72558 0.0
C1957 C 0.11392 0.54007 0.76197 0.0
C1958 C 0.18548 0.65803 0.70887 0.0
C1959 C 0.17574 0.64042 0.71002 0.0
C1960 C 0.13699 0.61538 0.73673 0.0
C1961 C 0.12944 0.56163 0.73926 0.0
C1962 C 0.13795 0.58062 0.73471 0.0
C1963 C 0.16498 0.63568 0.72641 0.0
C1964 C 0.1552 0.61678 0.72819 0.0
H1965 H 0.12227 0.51756 0.71938 0.0
H1966 H 0.13549 0.54913 0.71148 0.0
H1967 H 0.11452 0.59685 0.74676 0.0
H1968 H 0.1728 0.67619 0.75248 0.0
H1969 H 0.1562 0.64559 0.75452 0.0
C1970 C 0.17284 0.36167 0.5389 0.0
C1971 C 0.17362 0.34627 0.52592 0.0
C1972 C 0.15862 0.37552 0.53716 0.0
C1973 C 0.13007 0.39752 0.49972 0.0
H1974 H 0.10179 0.42081 0.54134 0.0
C1975 C 0.06726 0.44853 0.48698 0.0
C1976 C 0.06382 0.4633 0.50024 0.0
C1977 C 0.08193 0.43546 0.49009 0.0
C1978 C 0.10985 0.41469 0.52961 0.0
H1979 H 0.15939 0.33248 0.50184 0.0
H1980 H 0.1345 0.3567 0.49882 0.0
H1981 H 0.12324 0.39412 0.54801 0.0
H1982 H 0.07401 0.47669 0.52651 0.0
H1983 H 0.09998 0.45405 0.5317 0.0
H1984 H 0.11702 0.41815 0.48133 0.0
C1985 C 0.14502 0.35815 0.51019 0.0
C1986 C 0.12199 0.39932 0.53343 0.0
C1987 C 0.15914 0.34421 0.51204 0.0
C1988 C 0.07619 0.46542 0.51606 0.0
C1989 C 0.09095 0.45233 0.51914 0.0
C1990 C 0.1181 0.41297 0.49593 0.0
C1991 C 0.14504 0.37426 0.52231 0.0
C1992 C 0.13201 0.39044 0.51847 0.0
C1993 C 0.09363 0.43689 0.50646 0.0
C1994 C 0.10766 0.4216 0.51078 0.0
H1995 H 0.18383 0.3636 0.54975 0.0
H1996 H 0.15896 0.3878 0.54669 0.0
H1997 H 0.13801 0.39123 0.48799 0.0
H1998 H 0.05806 0.44648 0.4746 0.0
H1999 H 0.08345 0.42367 0.4801 0.0
C2000 C 0.86353 0.9818 0.7269 0.0
C2001 C 0.87673 0.97647 0.74115 0.0
C2002 C 0.85305 0.96777 0.71691 0.0
C2003 C 0.85392 0.91743 0.7028 0.0
H2004 H 0.79897 0.91582 0.7111 0.0
C2005 C 0.81354 0.84874 0.716 0.0
C2006 C 0.79427 0.84635 0.71065 0.0
C2007 C 0.82332 0.86571 0.71193 0.0
C2008 C 0.81418 0.91628 0.70804 0.0
H2009 H 0.88969 0.95248 0.75589 0.0
H2010 H 0.87173 0.92803 0.73818 0.0
H2011 H 0.81717 0.94489 0.71906 0.0
H2012 H 0.77032 0.85938 0.69593 0.0
H2013 H 0.78748 0.88957 0.68904 0.0
H2014 H 0.8512 0.88858 0.69269 0.0
C2015 C 0.86941 0.943 0.7348 0.0
C2016 C 0.82459 0.9329 0.71268 0.0
C2017 C 0.87953 0.95697 0.74504 0.0
C2018 C 0.78519 0.86092 0.70022 0.0
C2019 C 0.79496 0.87815 0.69634 0.0
C2020 C 0.84353 0.90094 0.69797 0.0
C2021 C 0.85605 0.94827 0.72072 0.0
C2022 C 0.84465 0.93316 0.71106 0.0
C2023 C 0.81403 0.88082 0.70251 0.0
C2024 C 0.82373 0.8998 0.70163 0.0
H2025 H 0.86113 -0.00322 0.72367 0.0
H2026 H 0.84271 0.9721 0.70618 0.0
H2027 H 0.86937 0.91747 0.7012 0.0
H2028 H 0.82096 0.83767 0.7239 0.0
H2029 H 0.83787 0.86735 0.71718 0.0
C2030 C 0.74267 0.11327 0.53282 0.0
C2031 C 0.74099 0.13169 0.52488 0.0
C2032 C 0.72704 0.10456 0.54191 0.0
C2033 C 0.69231 0.09008 0.56432 0.0
H2034 H 0.64689 0.09469 0.53258 0.0
C2035 C 0.6168 0.05125 0.57331 0.0
C2036 C 0.61073 0.04269 0.55603 0.0
C2037 C 0.63367 0.06238 0.57381 0.0
C2038 C 0.65942 0.09342 0.5417 0.0
H2039 H 0.72225 0.15609 0.52157 0.0
H2040 H 0.69499 0.14098 0.53766 0.0
H2041 H 0.67435 0.11543 0.52655 0.0
H2042 H 0.61842 0.03737 0.52637 0.0
H2043 H 0.64761 0.05662 0.52731 0.0
H2044 H 0.67727 0.06724 0.57883 0.0
C2045 C 0.70825 0.1331 0.53651 0.0
C2046 C 0.67509 0.10542 0.5384 0.0
C2047 C 0.72384 0.14175 0.52731 0.0
C2048 C 0.62255 0.04407 0.5398 0.0
C2049 C 0.63924 0.05509 0.5403 0.0
C2050 C 0.67646 0.07806 0.56772 0.0
C2051 C 0.70946 0.11416 0.5433 0.0
C2052 C 0.69193 0.10355 0.54928 0.0
C2053 C 0.64451 0.06496 0.55704 0.0
C2054 C 0.66017 0.07927 0.55597 0.0
H2055 H 0.75578 0.10522 0.53125 0.0
H2056 H 0.72841 0.08989 0.54681 0.0
H2057 H 0.70505 0.08844 0.57305 0.0
H2058 H 0.60793 0.0504 0.58602 0.0
H2059 H 0.63759 0.06985 0.58689 0.0
C2060 C 0.15511 0.43889 0.74527 0.0
C2061 C 0.14614 0.44374 0.76255 0.0
C2062 C 0.17302 0.43013 0.74538 0.0
C2063 C 0.21432 0.41735 0.77725 0.0
H2064 H 0.22083 0.37728 0.73934 0.0
C2065 C 0.26199 0.35011 0.78382 0.0
C2066 C 0.26978 0.3428 0.76675 0.0
C2067 C 0.2515 0.36712 0.78353 0.0
C2068 C 0.21945 0.38868 0.7498 0.0
H2069 H 0.14881 0.44352 0.79351 0.0
H2070 H 0.17959 0.42727 0.79382 0.0
H2071 H 0.1926 0.39708 0.73816 0.0
H2072 H 0.27517 0.34895 0.73673 0.0
H2073 H 0.257 0.37859 0.73633 0.0
H2074 H 0.24084 0.40777 0.78953 0.0
C2075 C 0.17321 0.43077 0.78011 0.0
C2076 C 0.20322 0.40012 0.74911 0.0
C2077 C 0.15546 0.43991 0.77997 0.0
C2078 C 0.26902 0.35403 0.75004 0.0
C2079 C 0.25859 0.37098 0.74977 0.0
C2080 C 0.2305 0.40564 0.7781 0.0
C2081 C 0.18216 0.4256 0.76281 0.0
C2082 C 0.20029 0.41449 0.76292 0.0
C2083 C 0.24876 0.37702 0.76622 0.0
C2084 C 0.23312 0.39111 0.76443 0.0
H2085 H 0.14835 0.44199 0.73163 0.0
H2086 H 0.17964 0.42682 0.73176 0.0
H2087 H 0.21273 0.42848 0.78795 0.0
H2088 H 0.26241 0.34184 0.79695 0.0
H2089 H 0.24409 0.37149 0.79643 0.0
C2090 C 0.38999 0.58436 0.23813 0.0
C2091 C 0.40742 0.58611 0.24813 0.0
C2092 C 0.37711 0.59954 0.23776 0.0
C2093 C 0.36264 0.63934 0.26772 0.0
H2094 H 0.33296 0.65516 0.22351 0.0
C2095 C 0.31054 0.70276 0.27061 0.0
C2096 C 0.29357 0.70168 0.25973 0.0
C2097 C 0.32442 0.68859 0.26902 0.0
C2098 C 0.34093 0.6507 0.23605 0.0
H2099 H 0.4256 0.60539 0.26464 0.0
H2100 H 0.40298 0.63198 0.26405 0.0
H2101 H 0.35833 0.63158 0.21962 0.0
H2102 H 0.27752 0.68439 0.23925 0.0
H2103 H 0.30156 0.65933 0.2369 0.0
H2104 H 0.34503 0.65796 0.2843 0.0
C2105 C 0.39928 0.61881 0.25661 0.0
C2106 C 0.35554 0.63732 0.23377 0.0
C2107 C 0.41226 0.60367 0.25681 0.0
C2108 C 0.29048 0.6857 0.24776 0.0
C2109 C 0.30434 0.67143 0.24628 0.0
C2110 C 0.34794 0.65256 0.27004 0.0
C2111 C 0.38137 0.61667 0.24753 0.0
C2112 C 0.36655 0.63156 0.24959 0.0
C2113 C 0.32161 0.67289 0.25664 0.0
C2114 C 0.33692 0.65842 0.25423 0.0
H2115 H 0.38592 0.57096 0.23128 0.0
H2116 H 0.36338 0.59749 0.23071 0.0
H2117 H 0.37065 0.63484 0.28024 0.0
H2118 H 0.31346 0.7149 0.2799 0.0
H2119 H 0.33764 0.69031 0.27704 0.0
C2120 C 0.48328 0.69848 0.6077 0.0
C2121 C 0.48813 0.70195 0.62694 0.0
C2122 C 0.47756 0.68015 0.60182 0.0
C2123 C 0.45705 0.6351 0.62073 0.0
H2124 H 0.47399 0.61433 0.57215 0.0
C2125 C 0.44854 0.55558 0.59684 0.0
C2126 C 0.44615 0.55235 0.57712 0.0
C2127 C 0.45053 0.57435 0.60376 0.0
C2128 C 0.46886 0.62006 0.58562 0.0
H2129 H 0.49155 0.68893 0.65497 0.0
H2130 H 0.48192 0.65685 0.64461 0.0
H2131 H 0.48543 0.64577 0.58229 0.0
H2132 H 0.44177 0.56579 0.54948 0.0
H2133 H 0.44452 0.59845 0.56161 0.0
H2134 H 0.44065 0.60913 0.62409 0.0
C2135 C 0.48215 0.66834 0.63417 0.0
C2136 C 0.47547 0.63805 0.59144 0.0
C2137 C 0.48785 0.68666 0.64004 0.0
C2138 C 0.44383 0.568 0.56474 0.0
C2139 C 0.44555 0.58665 0.57165 0.0
C2140 C 0.45042 0.61703 0.61489 0.0
C2141 C 0.47663 0.66498 0.61508 0.0
C2142 C 0.46965 0.64577 0.60904 0.0
C2143 C 0.44997 0.58999 0.59102 0.0
C2144 C 0.45622 0.60938 0.59723 0.0
H2145 H 0.48325 0.71004 0.59733 0.0
H2146 H 0.47326 0.67802 0.58704 0.0
H2147 H 0.45213 0.64082 0.63428 0.0
H2148 H 0.45048 0.54367 0.6066 0.0
H2149 H 0.4539 0.57652 0.61878 0.0
C2150 C 0.59995 0.22229 0.84394 0.0
C2151 C 0.58048 0.21714 0.84382 0.0
C2152 C 0.61196 0.21623 0.82924 0.0
C2153 C 0.6114 0.20827 0.77904 0.0
H2154 H 0.66397 0.19319 0.78831 0.0
C2155 C 0.69294 0.21303 0.74549 0.0
C2156 C 0.69316 0.23309 0.74357 0.0
C2157 C 0.67632 0.20354 0.75172 0.0
C2158 C 0.64922 0.19683 0.78522 0.0
H2159 H 0.55827 0.20127 0.82863 0.0
H2160 H 0.57932 0.19125 0.80234 0.0
H2161 H 0.64026 0.18959 0.81369 0.0
H2162 H 0.67581 0.25868 0.74427 0.0
H2163 H 0.64684 0.24222 0.75484 0.0
H2164 H 0.62077 0.21714 0.75114 0.0
C2165 C 0.58526 0.19965 0.81404 0.0
C2166 C 0.6357 0.19491 0.79983 0.0
C2167 C 0.57329 0.20539 0.82902 0.0
C2168 C 0.67603 0.24322 0.74583 0.0
C2169 C 0.65939 0.23373 0.75172 0.0
C2170 C 0.62498 0.21039 0.76447 0.0
C2171 C 0.60466 0.20518 0.81397 0.0
C2172 C 0.61698 0.2016 0.79719 0.0
C2173 C 0.65966 0.21398 0.75575 0.0
C2174 C 0.64425 0.20571 0.76784 0.0
H2175 H 0.60584 0.23128 0.85523 0.0
H2176 H 0.62681 0.22094 0.82935 0.0
H2177 H 0.59702 0.21354 0.77668 0.0
H2178 H 0.70598 0.20489 0.74381 0.0
H2179 H 0.67686 0.1883 0.75466 0.0
C2180 C 0.0094 0.31687 0.13251 0.0
C2181 C 0.00843 0.31624 0.1526 0.0
C2182 C 0.01366 0.33405 0.12316 0.0
C2183 C 0.0385 0.37985 0.13055 0.0
H2184 H 0.01141 0.39494 0.08446 0.0
C2185 C 0.04978 0.45288 0.09183 0.0
C2186 C 0.048 0.4528 0.07177 0.0
C2187 C 0.0464 0.43606 0.10228 0.0
C2188 C 0.01932 0.39078 0.09716 0.0
H2189 H 0.01062 0.33312 0.17868 0.0
H2190 H 0.01805 0.36323 0.16225 0.0
H2191 H 0.00116 0.36633 0.10172 0.0
H2192 H 0.04306 0.4349 0.04676 0.0
H2193 H 0.03782 0.40554 0.06487 0.0
H2194 H 0.0568 0.40425 0.12584 0.0
C2195 C 0.01564 0.35039 0.1538 0.0
C2196 C 0.01336 0.37445 0.10708 0.0
C2197 C 0.01123 0.33322 0.16316 0.0
C2198 C 0.04424 0.43542 0.06225 0.0
C2199 C 0.04109 0.41864 0.07263 0.0
C2200 C 0.04454 0.39619 0.12055 0.0
C2201 C 0.01716 0.3509 0.13373 0.0
C2202 C 0.02295 0.36876 0.12379 0.0
C2203 C 0.04137 0.41892 0.09277 0.0
C2204 C 0.03511 0.40171 0.10364 0.0
H2205 H 0.00737 0.30397 0.12403 0.0
H2206 H 0.01488 0.33401 0.10767 0.0
H2207 H 0.04627 0.37564 0.1433 0.0
H2208 H 0.05258 0.46613 0.09951 0.0
H2209 H 0.04671 0.43673 0.11779 0.0
C2210 C 0.98241 0.74328 0.35029 0.0
C2211 C 0.98388 0.74722 0.37 0.0
C2212 C 0.96499 0.74547 0.34072 0.0
C2213 C 0.9238 0.73985 0.32756 0.0
H2214 H 0.89374 0.78569 0.3354 0.0
C2215 C 0.85712 0.75514 0.28171 0.0
C2216 C 0.84098 0.76234 0.29125 0.0
C2217 C 0.87484 0.75431 0.29101 0.0
C2218 C 0.90186 0.77271 0.33321 0.0
H2219 H 0.96836 0.7566 0.39516 0.0
H2220 H 0.9378 0.7605 0.37836 0.0
H2221 H 0.92389 0.78179 0.35276 0.0
H2222 H 0.83092 0.77467 0.31796 0.0
H2223 H 0.86171 0.77284 0.33427 0.0
H2224 H 0.90174 0.73056 0.30829 0.0
C2225 C 0.95018 0.75578 0.37035 0.0
C2226 C 0.91911 0.7705 0.34314 0.0
C2227 C 0.96761 0.75344 0.37997 0.0
C2228 C 0.84307 0.76909 0.31016 0.0
C2229 C 0.86076 0.76813 0.3195 0.0
C2230 C 0.90651 0.74199 0.31773 0.0
C2231 C 0.94871 0.75177 0.35063 0.0
C2232 C 0.93027 0.75406 0.34037 0.0
C2233 C 0.87681 0.76052 0.31011 0.0
C2234 C 0.89534 0.75847 0.3204 0.0
H2235 H 0.99474 0.73851 0.34222 0.0
H2236 H 0.96432 0.74247 0.32549 0.0
H2237 H 0.93198 0.72691 0.32535 0.0
H2238 H 0.85605 0.74998 0.26709 0.0
H2239 H 0.88699 0.74871 0.28323 0.0
C2240 C 0.56312 0.29557 0.92551 0.0
C2241 C 0.55432 0.29371 0.90748 0.0
C2242 C 0.56121 0.31244 0.93609 0.0
C2243 C 0.54436 0.36287 0.93389 0.0
H2244 H 0.53134 0.35352 0.98717 0.0
C2245 C 0.50867 0.41996 0.98128 0.0
C2246 C 0.51673 0.42278 -0.00043 0.0
C2247 C 0.51399 0.40428 0.97009 0.0
C2248 C 0.53512 0.35638 0.97238 0.0
H2249 H 0.53774 0.30841 0.88576 0.0
H2250 H 0.53407 0.33773 0.90434 0.0
H2251 H 0.54115 0.32692 0.96696 0.0
H2252 H 0.53612 0.41089 0.02076 0.0
H2253 H 0.54524 0.38344 0.00126 0.0
H2254 H 0.53783 0.39233 0.93933 0.0
C2255 C 0.54264 0.3263 0.91027 0.0
C2256 C 0.54087 0.34117 0.9608 0.0
C2257 C 0.54471 0.30947 0.89962 0.0
C2258 C 0.52964 0.40916 0.00673 0.0
C2259 C 0.53485 0.39341 0.99558 0.0
C2260 C 0.53849 0.37808 0.94547 0.0
C2261 C 0.5503 0.3277 0.92891 0.0
C2262 C 0.54548 0.34421 0.9414 0.0
C2263 C 0.52735 0.39102 0.97702 0.0
C2264 C 0.53372 0.37495 0.96479 0.0
H2265 H 0.57077 0.28368 0.93183 0.0
H2266 H 0.5677 0.31325 0.95019 0.0
H2267 H 0.54802 0.36574 0.91908 0.0
H2268 H 0.49869 0.43017 0.97531 0.0
H2269 H 0.50775 0.4026 0.95594 0.0
C2270 C 0.94086 0.2596 0.204 0.0
C2271 C 0.95787 0.25034 0.20914 0.0
C2272 C 0.92322 0.25044 0.20652 0.0
C2273 C 0.89215 0.22192 0.19739 0.0
H2274 H 0.8739 0.19556 0.24283 0.0
C2275 C 0.81536 0.19522 0.199 0.0
C2276 C 0.8056 0.20281 0.21483 0.0
C2277 C 0.83538 0.19405 0.19928 0.0
C2278 C 0.8789 0.20271 0.22997 0.0
H2279 H 0.96977 0.22493 0.22236 0.0
H2280 H 0.93873 0.20887 0.22683 0.0
H2281 H 0.9061 0.20987 0.24266 0.0
H2282 H 0.80878 0.21272 0.24419 0.0
H2283 H 0.8434 0.2111 0.24453 0.0
H2284 H 0.86484 0.21588 0.18497 0.0
C2285 C 0.93911 0.22318 0.22081 0.0
C2286 C 0.89732 0.21084 0.22988 0.0
C2287 C 0.95684 0.23242 0.21833 0.0
C2288 C 0.81595 0.20717 0.23161 0.0
C2289 C 0.83586 0.20601 0.23189 0.0
C2290 C 0.87383 0.21384 0.19747 0.0
C2291 C 0.92224 0.2318 0.21414 0.0
C2292 C 0.90379 0.22115 0.21382 0.0
C2293 C 0.84587 0.20043 0.21538 0.0
C2294 C 0.86671 0.20472 0.21398 0.0
H2295 H 0.94123 0.27349 0.19703 0.0
H2296 H 0.91036 0.25765 0.20178 0.0
H2297 H 0.89699 0.22935 0.18462 0.0
H2298 H 0.80774 0.19154 0.18594 0.0
H2299 H 0.8427 0.1893 0.18647 0.0
C2300 C 0.02354 0.69621 0.45122 0.0
C2301 C 0.03955 0.70694 0.44522 0.0
C2302 C 0.02548 0.68221 0.46536 0.0
C2303 C 0.03245 0.65474 0.49828 0.0
H2304 H 0.07196 0.6199 0.48123 0.0
C2305 C 0.03341 0.57394 0.51804 0.0
C2306 C 0.0298 0.56386 0.50093 0.0
C2307 C 0.03946 0.59315 0.51739 0.0
C2308 C 0.06121 0.62967 0.48656 0.0
H2309 H 0.06978 0.71263 0.45034 0.0
H2310 H 0.07318 0.68801 0.47495 0.0
H2311 H 0.07216 0.65289 0.46982 0.0
H2312 H 0.03065 0.56522 0.46993 0.0
H2313 H 0.04186 0.59842 0.46878 0.0
H2314 H 0.02071 0.63086 0.51382 0.0
C2315 C 0.05919 0.69033 0.46863 0.0
C2316 C 0.06132 0.64858 0.48009 0.0
C2317 C 0.05723 0.70437 0.45452 0.0
C2318 C 0.03333 0.57277 0.48327 0.0
C2319 C 0.03986 0.59167 0.48264 0.0
C2320 C 0.03246 0.63583 0.50491 0.0
C2321 C 0.04348 0.67867 0.47371 0.0
C2322 C 0.04633 0.66097 0.48503 0.0
C2323 C 0.04253 0.60215 0.49964 0.0
C2324 C 0.04624 0.62293 0.49821 0.0
H2325 H 0.00972 0.69801 0.44438 0.0
H2326 H 0.01315 0.6733 0.4688 0.0
H2327 H 0.02086 0.66409 0.50247 0.0
H2328 H 0.03062 0.56728 0.5318 0.0
H2329 H 0.04129 0.60108 0.53064 0.0
C2330 C 0.55662 0.75639 0.67687 0.0
C2331 C 0.53995 0.76689 0.68042 0.0
C2332 C 0.57443 0.7634 0.68281 0.0
C2333 C 0.6101 0.78764 0.68303 0.0
H2334 H 0.6202 0.81187 0.73209 0.0
C2335 C 0.68644 0.81079 0.70247 0.0
C2336 C 0.69233 0.80418 0.72055 0.0
C2337 C 0.66692 0.81147 0.69785 0.0
C2338 C 0.61759 0.80518 0.71829 0.0
H2339 H 0.5286 0.79244 0.6938 0.0
H2340 H 0.55989 0.80488 0.70407 0.0
H2341 H 0.58782 0.8006 0.72449 0.0
H2342 H 0.68232 0.79477 0.74853 0.0
H2343 H 0.64866 0.79543 0.74036 0.0
H2344 H 0.63992 0.7911 0.67718 0.0
C2345 C 0.55916 0.79114 0.69682 0.0
C2346 C 0.59901 0.79885 0.7139 0.0
C2347 C 0.54126 0.784 0.69102 0.0
C2348 C 0.67832 0.79971 0.73436 0.0
C2349 C 0.65891 0.80029 0.72973 0.0
C2350 C 0.62864 0.79382 0.68745 0.0
C2351 C 0.57599 0.78119 0.69222 0.0
C2352 C 0.5952 0.78951 0.69643 0.0
C2353 C 0.65298 0.80549 0.71121 0.0
C2354 C 0.63273 0.80221 0.70534 0.0
H2355 H 0.55599 0.74309 0.66883 0.0
H2356 H 0.58707 0.75509 0.67957 0.0
H2357 H 0.60753 0.78097 0.66921 0.0
H2358 H 0.69687 0.81454 0.69158 0.0
H2359 H 0.6628 0.81593 0.68357 0.0
C2360 C 0.56829 0.48987 0.73876 0.0
C2361 C 0.58017 0.50553 0.73392 0.0
C2362 C 0.5557 0.48197 0.72523 0.0
C2363 C 0.54916 0.47793 0.67319 0.0
H2364 H 0.49612 0.46573 0.68509 0.0
C2365 C 0.47627 0.47254 0.62839 0.0
C2366 C 0.48337 0.4632 0.61203 0.0
C2367 C 0.48668 0.47244 0.64551 0.0
C2368 C 0.51094 0.46894 0.68161 0.0
H2369 H 0.5879 0.52553 0.71137 0.0
H2370 H 0.56584 0.51183 0.68777 0.0
H2371 H 0.51748 0.47771 0.71038 0.0
H2372 H 0.50559 0.44434 0.60153 0.0
H2373 H 0.52354 0.44388 0.63151 0.0
H2374 H 0.54261 0.47008 0.64436 0.0
C2375 C 0.56644 0.50549 0.70193 0.0
C2376 C 0.52317 0.4757 0.69608 0.0
C2377 C 0.57895 0.51343 0.71547 0.0
C2378 C 0.49992 0.45199 0.61376 0.0
C2379 C 0.51026 0.45179 0.63092 0.0
C2380 C 0.53701 0.47115 0.65879 0.0
C2381 C 0.55487 0.48953 0.7066 0.0
C2382 C 0.54226 0.48073 0.69186 0.0
C2383 C 0.5043 0.46288 0.64661 0.0
C2384 C 0.51765 0.46697 0.66272 0.0
H2385 H 0.56895 0.48349 0.75291 0.0
H2386 H 0.547 0.46965 0.72918 0.0
H2387 H 0.56391 0.48137 0.66961 0.0
H2388 H 0.46348 0.4812 0.6276 0.0
H2389 H 0.48168 0.48114 0.65732 0.0
C2390 C 0.77805 0.36621 0.94198 0.0
C2391 C 0.76298 0.37659 0.95015 0.0
C2392 C 0.77463 0.35395 0.92652 0.0
C2393 C 0.74155 0.34395 0.88695 0.0
H2394 H 0.76502 0.29372 0.88805 0.0
C2395 C 0.73255 0.29175 0.82391 0.0
C2396 C 0.74987 0.28407 0.81723 0.0
C2397 C 0.73168 0.30051 0.8419 0.0
C2398 C 0.7584 0.3077 0.88753 0.0
H2399 H 0.73262 0.3828 0.94824 0.0
H2400 H 0.72666 0.36144 0.92099 0.0
H2401 H 0.76873 0.31519 0.91548 0.0
H2402 H 0.77948 0.27833 0.82478 0.0
H2403 H 0.77802 0.29375 0.85594 0.0
H2404 H 0.73175 0.33677 0.85877 0.0
C2405 C 0.74111 0.36278 0.92661 0.0
C2406 C 0.76055 0.31999 0.90319 0.0
C2407 C 0.74452 0.37499 0.94218 0.0
C2408 C 0.76593 0.28418 0.82943 0.0
C2409 C 0.76506 0.29294 0.84738 0.0
C2410 C 0.73947 0.33169 0.87124 0.0
C2411 C 0.75608 0.35191 0.91887 0.0
C2412 C 0.75248 0.33837 0.90289 0.0
C2413 C 0.7481 0.30172 0.85356 0.0
C2414 C 0.74819 0.31358 0.87121 0.0
H2415 H 0.79244 0.36717 0.94783 0.0
H2416 H 0.7865 0.34601 0.92059 0.0
H2417 H 0.73527 0.35809 0.88631 0.0
H2418 H 0.71985 0.29176 0.81494 0.0
H2419 H 0.71832 0.30685 0.84643 0.0
C2420 C 0.91962 0.5332 0.21314 0.0
C2421 C 0.9121 0.51467 0.21007 0.0
C2422 C 0.93582 0.53952 0.20309 0.0
C2423 C 0.97661 0.52142 0.17449 0.0
H2424 H 0.97601 0.57175 0.1509 0.0
C2425 C 0.031 0.5388 0.11664 0.0
C2426 C 0.02212 0.54515 0.09971 0.0
C2427 C 0.02151 0.54017 0.13422 0.0
C2428 C 0.97648 0.5577 0.1575 0.0
H2429 H 0.91548 0.48827 0.19405 0.0
H2430 H 0.94341 0.49937 0.17623 0.0
H2431 H 0.95078 0.56268 0.17339 0.0
H2432 H -0.0026 0.56008 0.08835 0.0
H2433 H 0.98076 0.56198 0.11866 0.0
H2434 H 0.00139 0.5158 0.15764 0.0
C2435 C 0.93712 0.50891 0.18669 0.0
C2436 C 0.9621 0.55256 0.17051 0.0
C2437 C 0.92099 0.50261 0.19674 0.0
C2438 C 0.00455 0.55477 0.10105 0.0
C2439 C 0.99503 0.55602 0.11856 0.0
C2440 C 0.99088 0.52649 0.16142 0.0
C2441 C 0.94478 0.52741 0.18979 0.0
C2442 C 0.96161 0.53408 0.17856 0.0
C2443 C 0.00294 0.54782 0.13517 0.0
C2444 C 0.99058 0.54443 0.1522 0.0
H2445 H 0.9131 0.54278 0.22342 0.0
H2446 H 0.94142 0.5538 0.20586 0.0
H2447 H 0.97689 0.50724 0.18081 0.0
H2448 H 0.04468 0.53159 0.11617 0.0
H2449 H 0.02822 0.53416 0.14685 0.0
C2450 C 0.71154 0.64735 0.44162 0.0
C2451 C 0.72154 0.65156 0.45862 0.0
C2452 C 0.71199 0.66026 0.42627 0.0
C2453 C 0.74286 0.69839 0.40677 0.0
H2454 H 0.7001 0.70758 0.37248 0.0
C2455 C 0.75167 0.74749 0.34153 0.0
C2456 C 0.74477 0.73982 0.32416 0.0
C2457 C 0.7463 0.73928 0.35899 0.0
C2458 C 0.71217 0.70511 0.38193 0.0
H2459 H 0.73891 0.67295 0.47337 0.0
H2460 H 0.73945 0.69551 0.44679 0.0
H2461 H 0.69525 0.6881 0.40126 0.0
H2462 H 0.72598 0.71816 0.31161 0.0
H2463 H 0.7169 0.70372 0.34202 0.0
H2464 H 0.75991 0.71491 0.38735 0.0
C2465 C 0.73163 0.68211 0.44509 0.0
C2466 C 0.7094 0.69395 0.39836 0.0
C2467 C 0.73126 0.66921 0.46034 0.0
C2468 C 0.73164 0.72439 0.32471 0.0
C2469 C 0.72631 0.71617 0.34217 0.0
C2470 C 0.74562 0.70952 0.3904 0.0
C2471 C 0.72239 0.6776 0.42773 0.0
C2472 C 0.72478 0.69033 0.41086 0.0
C2473 C 0.73395 0.72322 0.35946 0.0
C2474 C 0.73037 0.71285 0.37768 0.0
H2475 H 0.70391 0.63384 0.43994 0.0
H2476 H 0.70484 0.65631 0.41302 0.0
H2477 H 0.7551 0.69558 0.41589 0.0
H2478 H 0.76166 0.75949 0.34164 0.0
H2479 H 0.75218 0.74523 0.37213 0.0
C2480 C 0.58362 0.51387 0.83136 0.0
C2481 C 0.59088 0.53042 0.82239 0.0
C2482 C 0.57223 0.51538 0.84768 0.0
C2483 C 0.56544 0.54249 0.88995 0.0
H2484 H 0.51518 0.5183 0.89232 0.0
C2485 C 0.52662 0.53444 0.96207 0.0
C2486 C 0.51791 0.51647 0.96524 0.0
C2487 C 0.53224 0.53989 0.94362 0.0
C2488 C 0.52923 0.52502 0.89197 0.0
H2489 H 0.59216 0.56149 0.82341 0.0
H2490 H 0.57276 0.56406 0.85267 0.0
H2491 H 0.53202 0.52028 0.86172 0.0
H2492 H 0.50756 0.49044 0.95148 0.0
H2493 H 0.518 0.49948 0.91962 0.0
H2494 H 0.56355 0.54596 0.92028 0.0
C2495 C 0.57564 0.55001 0.84674 0.0
C2496 C 0.53875 0.52628 0.87443 0.0
C2497 C 0.58668 0.54853 0.83009 0.0
C2498 C 0.51417 0.50442 0.9495 0.0
C2499 C 0.52007 0.50971 0.93114 0.0
C2500 C 0.55611 0.54089 0.90759 0.0
C2501 C 0.56825 0.53343 0.85554 0.0
C2502 C 0.55708 0.53464 0.87339 0.0
C2503 C 0.52956 0.52734 0.928 0.0
C2504 C 0.53809 0.53168 0.90891 0.0
H2505 H 0.58657 0.49975 0.82564 0.0
H2506 H 0.56681 0.50242 0.85441 0.0
H2507 H 0.57966 0.54887 0.88943 0.0
H2508 H 0.52949 0.54413 0.97391 0.0
H2509 H 0.5391 0.55375 0.9417 0.0
C2510 C 0.74965 0.34431 0.03712 0.0
C2511 C 0.7676 0.35105 0.03088 0.0
C2512 C 0.7479 0.32642 0.04589 0.0
C2513 C 0.77587 0.29185 0.07345 0.0
H2514 H 0.72891 0.26186 0.06903 0.0
C2515 C 0.72744 0.24951 0.12833 0.0
C2516 C 0.74107 0.23826 0.13781 0.0
C2517 C 0.73145 0.25725 0.11035 0.0
C2518 C 0.74222 0.26993 0.07022 0.0
H2519 H 0.79776 0.3442 0.02844 0.0
H2520 H 0.7947 0.31278 0.04374 0.0
H2521 H 0.73522 0.28786 0.04639 0.0
H2522 H 0.76896 0.225 0.13539 0.0
H2523 H 0.77617 0.23896 0.10396 0.0
H2524 H 0.78248 0.27443 0.09775 0.0
C2525 C 0.782 0.32144 0.04203 0.0
C2526 C 0.74578 0.28489 0.05737 0.0
C2527 C 0.78376 0.33942 0.03329 0.0
C2528 C 0.75819 0.23364 0.12836 0.0
C2529 C 0.76236 0.24166 0.11045 0.0
C2530 C 0.77237 0.27679 0.0862 0.0
C2531 C 0.76406 0.3148 0.04854 0.0
C2532 C 0.76222 0.29657 0.05941 0.0
C2533 C 0.74929 0.2541 0.10162 0.0
C2534 C 0.75512 0.26626 0.08522 0.0
H2535 H 0.73694 0.35296 0.03544 0.0
H2536 H 0.73394 0.32198 0.05111 0.0
H2537 H 0.78862 0.3006 0.07551 0.0
H2538 H 0.71407 0.25318 0.13525 0.0
H2539 H 0.72116 0.26691 0.10399 0.0
C2540 C 0.91403 0.47547 0.29412 0.0
C2541 C 0.90131 0.49077 0.29165 0.0
C2542 C 0.92769 0.47599 0.30881 0.0
C2543 C 0.95378 0.50971 0.34025 0.0
H2544 H 0.95934 0.46604 0.3741 0.0
C2545 C 0.98286 0.5157 0.41682 0.0
C2546 C 0.9923 0.50002 0.42509 0.0
C2547 C 0.97594 0.51463 0.39807 0.0
C2548 C 0.95835 0.47822 0.36454 0.0
H2549 H 0.89269 0.51848 0.30267 0.0
H2550 H 0.91644 0.51933 0.32834 0.0
H2551 H 0.93831 0.46355 0.34628 0.0
H2552 H 0.0034 0.47156 0.41957 0.0
H2553 H 0.99154 0.46983 0.3867 0.0
H2554 H 0.97351 0.52453 0.3587 0.0
C2555 C 0.91602 0.50705 0.31881 0.0
C2556 C 0.94622 0.4768 0.34865 0.0
C2557 C 0.9023 0.50646 0.30425 0.0
C2558 C -0.00401 0.48382 0.41371 0.0
C2559 C 0.9891 0.48277 0.39491 0.0
C2560 C 0.96601 0.51111 0.35607 0.0
C2561 C 0.92895 0.49191 0.32114 0.0
C2562 C 0.94343 0.49269 0.33666 0.0
C2563 C 0.9784 0.49789 0.38714 0.0
C2564 C 0.96802 0.49554 0.36869 0.0
H2565 H 0.91362 0.46322 0.28455 0.0
H2566 H 0.93752 0.46414 0.31028 0.0
H2567 H 0.95216 0.52207 0.331 0.0
H2568 H 0.97987 0.52846 0.42513 0.0
H2569 H 0.96765 0.52649 0.39261 0.0
C2570 C 0.75344 0.64642 0.55981 0.0
C2571 C 0.73676 0.64829 0.54869 0.0
C2572 C 0.75816 0.66019 0.57361 0.0
C2573 C 0.7497 0.71042 0.58707 0.0
H2574 H 0.76701 0.6938 0.63718 0.0
C2575 C 0.75408 0.75983 0.65369 0.0
C2576 C 0.76833 0.75604 0.66741 0.0
C2577 C 0.75219 0.7482 0.63745 0.0
C2578 C 0.76256 0.69873 0.62315 0.0
H2579 H 0.71184 0.66588 0.54333 0.0
H2580 H 0.72002 0.68989 0.56762 0.0
H2581 H 0.75919 0.67001 0.61284 0.0
H2582 H 0.7929 0.73835 0.67399 0.0
H2583 H 0.78993 0.71845 0.64544 0.0
H2584 H 0.75295 0.73919 0.5975 0.0
C2585 C 0.72953 0.67789 0.5655 0.0
C2586 C 0.758 0.68507 0.60923 0.0
C2587 C 0.72477 0.66406 0.55175 0.0
C2588 C 0.78158 0.74142 0.66382 0.0
C2589 C 0.7798 0.72995 0.64752 0.0
C2590 C 0.75434 0.72413 0.60101 0.0
C2591 C 0.74632 0.67612 0.5765 0.0
C2592 C 0.75143 0.69075 0.59109 0.0
C2593 C 0.76462 0.7327 0.63457 0.0
C2594 C 0.76076 0.71842 0.61923 0.0
H2595 H 0.763 0.63445 0.55769 0.0
H2596 H 0.77127 0.65854 0.58177 0.0
H2597 H 0.7449 0.7152 0.57311 0.0
H2598 H 0.74365 0.77098 0.65608 0.0
H2599 H 0.7403 0.75067 0.62778 0.0
C2600 C 0.67181 0.56464 0.49616 0.0
C2601 C 0.67911 0.57609 0.51111 0.0
C2602 C 0.65526 0.55353 0.4989 0.0
C2603 C 0.62327 0.53314 0.53613 0.0
H2604 H 0.58397 0.53825 0.4971 0.0
C2605 C 0.54814 0.49639 0.54077 0.0
C2606 C 0.53271 0.5086 0.5367 0.0
C2607 C 0.56701 0.50238 0.53721 0.0
C2608 C 0.59483 0.53665 0.50809 0.0
H2609 H 0.67523 0.58447 0.54079 0.0
H2610 H 0.64628 0.5652 0.54553 0.0
H2611 H 0.61559 0.55243 0.49184 0.0
H2612 H 0.52507 0.5367 0.5258 0.0
H2613 H 0.55782 0.54703 0.51966 0.0
H2614 H 0.60218 0.5179 0.55264 0.0
C2615 C 0.65341 0.56466 0.53176 0.0
C2616 C 0.61299 0.54459 0.505 0.0
C2617 C 0.66989 0.57582 0.52899 0.0
C2618 C 0.53657 0.5269 0.5291 0.0
C2619 C 0.55534 0.53279 0.52542 0.0
C2620 C 0.60509 0.52509 0.53918 0.0
C2621 C 0.64577 0.5536 0.51667 0.0
C2622 C 0.62728 0.54327 0.51915 0.0
C2623 C 0.57075 0.52059 0.52934 0.0
C2624 C 0.59059 0.52716 0.52536 0.0
H2625 H 0.6787 0.56449 0.48225 0.0
H2626 H 0.64978 0.54501 0.48706 0.0
H2627 H 0.63408 0.53175 0.5472 0.0
H2628 H 0.54565 0.48221 0.54666 0.0
H2629 H 0.57865 0.49269 0.54033 0.0
C2630 C 0.22858 0.94784 0.54634 0.0
C2631 C 0.23147 0.94314 0.52697 0.0
C2632 C 0.21353 0.95982 0.55164 0.0
C2633 C 0.17556 0.99179 0.53183 0.0
H2634 H 0.1452 0.9705 0.57333 0.0
C2635 C 0.09728 0.01436 0.54286 0.0
C2636 C 0.08458 -0.00133 0.54469 0.0
C2637 C 0.11702 0.01188 0.54524 0.0
C2638 C 0.15355 0.97671 0.56176 0.0
H2639 H 0.2216 0.94804 0.49789 0.0
H2640 H 0.19512 0.96838 0.50711 0.0
H2641 H 0.17742 0.95882 0.5679 0.0
H2642 H 0.08258 0.96832 0.55152 0.0
H2643 H 0.11677 0.96397 0.55523 0.0
H2644 H 0.15106 0.00852 0.52473 0.0
C2645 C 0.20459 0.96323 0.51824 0.0
C2646 C 0.17215 0.97018 0.55879 0.0
C2647 C 0.21969 0.95139 0.51295 0.0
C2648 C 0.09194 0.98072 0.5499 0.0
C2649 C 0.1116 0.97825 0.55224 0.0
C2650 C 0.15687 -0.00181 0.53469 0.0
C2651 C 0.20102 0.9672 0.53769 0.0
C2652 C 0.18309 0.97707 0.54329 0.0
C2653 C 0.12443 0.99369 0.54953 0.0
C2654 C 0.14538 0.99011 0.5492 0.0
H2655 H 0.23757 0.94182 0.55742 0.0
H2656 H 0.21136 0.96283 0.56672 0.0
H2657 H 0.18376 -0.00229 0.52002 0.0
H2658 H 0.09207 0.02841 0.539 0.0
H2659 H 0.12652 0.02411 0.54328 0.0
C2660 C 0.32827 0.93969 0.72219 0.0
C2661 C 0.32499 0.94933 0.73955 0.0
C2662 C 0.31909 0.9222 0.71839 0.0
C2663 C 0.27762 0.89243 0.73274 0.0
H2664 H 0.30768 0.8502 0.71318 0.0
C2665 C 0.27248 0.80531 0.7291 0.0
C2666 C 0.25359 0.80283 0.72238 0.0
C2667 C 0.28111 0.82345 0.72914 0.0
C2668 C 0.29913 0.86187 0.71866 0.0
H2669 H 0.30945 0.94842 0.76646 0.0
H2670 H 0.2935 0.91788 0.75985 0.0
H2671 H 0.32269 0.88173 0.71738 0.0
H2672 H 0.22914 0.81743 0.71001 0.0
H2673 H 0.24429 0.84907 0.71005 0.0
H2674 H 0.25422 0.87249 0.73458 0.0
C2675 C 0.303 0.92389 0.74911 0.0
C2676 C 0.30765 0.87994 0.72088 0.0
C2677 C 0.31222 0.94131 0.75294 0.0
C2678 C 0.24367 0.81884 0.71539 0.0
C2679 C 0.2523 0.83698 0.71547 0.0
C2680 C 0.26909 0.8744 0.73047 0.0
C2681 C 0.3064 0.91412 0.73184 0.0
C2682 C 0.29704 0.89532 0.72819 0.0
C2683 C 0.27105 0.83949 0.72249 0.0
C2684 C 0.27982 0.85888 0.72364 0.0
H2685 H 0.33803 0.94558 0.71161 0.0
H2686 H 0.32184 0.91504 0.70489 0.0
H2687 H 0.26905 0.90409 0.73821 0.0
H2688 H 0.28055 0.79328 0.73456 0.0
H2689 H 0.2955 0.82498 0.73485 0.0
C2690 C 0.27068 0.08653 0.9903 0.0
C2691 C 0.25981 0.0888 0.00706 0.0
C2692 C 0.28783 0.07644 0.99078 0.0
C2693 C 0.31698 0.0422 0.01763 0.0
H2694 H 0.35964 0.07218 -0.00225 0.0
C2695 C 0.3964 0.02091 0.02908 0.0
C2696 C 0.4092 0.02484 0.01403 0.0
C2697 C 0.37749 0.02739 0.02821 0.0
C2698 C 0.3479 0.06342 0.00307 0.0
H2699 H 0.25764 0.08125 0.03716 0.0
H2700 H 0.28766 0.06338 0.03791 0.0
H2701 H 0.32734 0.08467 0.99552 0.0
H2702 H 0.41206 0.03788 0.98592 0.0
H2703 H 0.37914 0.04855 0.98411 0.0
H2704 H 0.33755 0.02079 0.02494 0.0
C2705 C 0.2829 0.06951 0.02447 0.0
C2706 C 0.32939 0.07063 0.00183 0.0
C2707 C 0.26579 0.07978 0.02404 0.0
C2708 C 0.40263 0.0349 -0.00209 0.0
C2709 C 0.38375 0.04111 -0.00309 0.0
C2710 C 0.33554 0.03483 0.01866 0.0
C2711 C 0.29434 0.06828 0.00798 0.0
C2712 C 0.31377 0.0601 0.00904 0.0
C2713 C 0.371 0.0377 0.01215 0.0
C2714 C 0.35121 0.04536 0.01134 0.0
H2715 H 0.26638 0.09326 0.97699 0.0
H2716 H 0.29632 0.07548 0.97782 0.0
H2717 H 0.30511 0.03383 0.02328 0.0
H2718 H 0.40108 0.01319 0.04169 0.0
H2719 H 0.36812 0.02468 0.04028 0.0
C2720 C 0.66959 0.5787 0.77974 0.0
C2721 C 0.65344 0.57544 0.76808 0.0
C2722 C 0.67992 0.59591 0.77841 0.0
C2723 C 0.67517 0.64597 0.7623 0.0
H2724 H 0.73077 0.64618 0.76365 0.0
C2725 C 0.74132 0.70118 0.74445 0.0
C2726 C 0.73437 0.71786 0.75328 0.0
C2727 C 0.73216 0.68351 0.74735 0.0
C2728 C 0.71525 0.64633 0.76316 0.0
H2729 H 0.63553 0.58747 0.74575 0.0
H2730 H 0.65367 0.61742 0.74328 0.0
H2731 H 0.71321 0.61579 0.76588 0.0
H2732 H 0.7128 0.7289 0.77269 0.0
H2733 H 0.69704 0.69806 0.77792 0.0
H2734 H 0.67715 0.6764 0.7591 0.0
C2735 C 0.6582 0.60682 0.75365 0.0
C2736 C 0.70519 0.62896 0.76464 0.0
C2737 C 0.64787 0.58963 0.75499 0.0
C2738 C 0.71844 0.71637 0.76553 0.0
C2739 C 0.70933 0.69871 0.76845 0.0
C2740 C 0.6852 0.66331 0.76084 0.0
C2741 C 0.67429 0.61018 0.7654 0.0
C2742 C 0.68504 0.6286 0.76414 0.0
C2743 C 0.7159 0.68214 0.75916 0.0
C2744 C 0.70535 0.66369 0.76121 0.0
H2745 H 0.67419 0.568 0.78998 0.0
H2746 H 0.69213 0.59816 0.7878 0.0
H2747 H 0.65964 0.64619 0.7621 0.0
H2748 H 0.75354 0.70182 0.73491 0.0
H2749 H 0.73747 0.67103 0.73985 0.0
C2750 C 0.82591 0.44993 0.99222 0.0
C2751 C 0.82015 0.43812 0.00751 0.0
C2752 C 0.84248 0.46121 0.99374 0.0
C2753 C 0.87774 0.48093 0.02845 0.0
H2754 H 0.91334 0.47632 0.98607 0.0
C2755 C 0.95431 0.5142 0.02947 0.0
C2756 C 0.96869 0.50115 0.02438 0.0
C2757 C 0.93499 0.50962 0.02637 0.0
C2758 C 0.90349 0.47783 -0.00204 0.0
H2759 H 0.82677 0.42925 0.03655 0.0
H2760 H 0.85585 0.44874 0.03913 0.0
H2761 H 0.88113 0.46281 0.9831 0.0
H2762 H 0.97408 0.4732 0.01181 0.0
H2763 H 0.94053 0.46529 0.00645 0.0
H2764 H 0.90051 0.49521 0.0436 0.0
C2765 C 0.84746 0.44948 0.02606 0.0
C2766 C 0.88501 0.47027 -0.0038 0.0
C2767 C 0.83092 0.43817 0.02452 0.0
C2768 C 0.96338 0.48357 0.01594 0.0
C2769 C 0.94416 0.4791 0.0127 0.0
C2770 C 0.89625 0.48858 0.03018 0.0
C2771 C 0.85354 0.46092 0.0106 0.0
C2772 C 0.87212 0.47129 0.01161 0.0
C2773 C 0.92978 0.49203 0.01791 0.0
C2774 C 0.90944 0.48659 0.01514 0.0
H2775 H 0.81776 0.45026 0.97898 0.0
H2776 H 0.84675 0.47003 0.98167 0.0
H2777 H 0.868 0.48212 0.04046 0.0
H2778 H 0.95796 0.52786 0.03602 0.0
H2779 H 0.92414 0.51983 0.03048 0.0
C2780 C 0.30223 0.04702 0.73435 0.0
C2781 C 0.31085 0.04148 0.75167 0.0
C2782 C 0.29118 0.0636 0.73351 0.0
C2783 C 0.27013 0.10276 0.76332 0.0
H2784 H 0.28797 0.13484 0.72148 0.0
C2785 C 0.25645 0.18485 0.75947 0.0
C2786 C 0.27318 0.19564 0.75567 0.0
C2787 C 0.25634 0.1649 0.75716 0.0
C2788 C 0.28273 0.12602 0.73317 0.0
H2789 H 0.31349 0.04799 0.78197 0.0
H2790 H 0.29474 0.07714 0.78044 0.0
H2791 H 0.29498 0.10082 0.72124 0.0
H2792 H 0.30283 0.19392 0.7464 0.0
H2793 H 0.30262 0.15937 0.74255 0.0
H2794 H 0.25906 0.12845 0.77584 0.0
C2795 C 0.29618 0.06863 0.76754 0.0
C2796 C 0.28652 0.10644 0.73293 0.0
C2797 C 0.3071 0.05199 0.76839 0.0
C2798 C 0.28969 0.1861 0.74946 0.0
C2799 C 0.28953 0.16628 0.74706 0.0
C2800 C 0.26637 0.12242 0.76357 0.0
C2801 C 0.28869 0.07501 0.74995 0.0
C2802 C 0.28092 0.0947 0.74836 0.0
C2803 C 0.27287 0.15547 0.75084 0.0
C2804 C 0.27335 0.13433 0.74887 0.0
H2805 H 0.30469 0.03902 0.72128 0.0
H2806 H 0.28529 0.06793 0.71982 0.0
H2807 H 0.26534 0.09403 0.77526 0.0
H2808 H 0.24349 0.19179 0.76427 0.0
H2809 H 0.24331 0.15688 0.76019 0.0
C2810 C 0.15656 0.96505 0.28142 0.0
C2811 C 0.16481 0.9804 0.27126 0.0
C2812 C 0.16344 0.94648 0.27906 0.0
C2813 C 0.1871 0.91028 0.27875 0.0
H2814 H 0.19802 0.89297 0.22705 0.0
C2815 C 0.22555 0.84239 0.23991 0.0
C2816 C 0.21727 0.8273 0.2505 0.0
C2817 C 0.21858 0.86102 0.24161 0.0
C2818 C 0.19517 0.89766 0.24158 0.0
H2819 H 0.18704 0.98855 0.25106 0.0
H2820 H 0.19925 0.95607 0.2471 0.0
H2821 H 0.18791 0.92596 0.23242 0.0
H2822 H 0.19454 0.81979 0.27046 0.0
H2823 H 0.18228 0.85224 0.27323 0.0
H2824 H 0.19434 0.88201 0.28792 0.0
C2825 C 0.18727 0.95836 0.25667 0.0
C2826 C 0.18945 0.91654 0.24466 0.0
C2827 C 0.18039 0.97695 0.25905 0.0
C2828 C 0.20135 0.8311 0.2622 0.0
C2829 C 0.1944 0.84971 0.2639 0.0
C2830 C 0.19281 0.89142 0.27567 0.0
C2831 C 0.17872 0.9429 0.26649 0.0
C2832 C 0.18531 0.92303 0.26327 0.0
C2833 C 0.20319 0.86492 0.25394 0.0
C2834 C 0.19685 0.88489 0.25705 0.0
H2835 H 0.14449 0.96729 0.29089 0.0
H2836 H 0.15643 0.93484 0.28668 0.0
H2837 H 0.18428 0.91495 0.29328 0.0
H2838 H 0.23782 0.83997 0.23075 0.0
H2839 H 0.22571 0.87248 0.23384 0.0
C2840 C 0.48907 0.31398 0.40387 0.0
C2841 C 0.50609 0.30343 0.40452 0.0
C2842 C 0.48597 0.32876 0.41696 0.0
C2843 C 0.51033 0.36152 0.45078 0.0
H2844 H 0.45992 0.36405 0.47401 0.0
C2845 C 0.49258 0.41492 0.5115 0.0
C2846 C 0.47538 0.42501 0.50909 0.0
C2847 C 0.49667 0.39918 0.49982 0.0
C2848 C 0.47403 0.36359 0.46756 0.0
H2849 H 0.53345 0.30034 0.41897 0.0
H2850 H 0.52799 0.32613 0.44194 0.0
H2851 H 0.4667 0.33893 0.45075 0.0
H2852 H 0.44879 0.42615 0.49287 0.0
H2853 H 0.45599 0.39887 0.47256 0.0
H2854 H 0.51757 0.38631 0.46753 0.0
C2855 C 0.5171 0.32306 0.43124 0.0
C2856 C 0.47789 0.34925 0.45421 0.0
C2857 C 0.5202 0.30827 0.41814 0.0
C2858 C 0.46218 0.41873 0.49512 0.0
C2859 C 0.46624 0.40301 0.48353 0.0
C2860 C 0.50645 0.37588 0.46416 0.0
C2861 C 0.49983 0.33325 0.43097 0.0
C2862 C 0.49601 0.3482 0.44552 0.0
C2863 C 0.4836 0.39319 0.48562 0.0
C2864 C 0.48819 0.37717 0.47251 0.0
H2865 H 0.47798 0.3106 0.39347 0.0
H2866 H 0.47266 0.33661 0.41619 0.0
H2867 H 0.52438 0.36114 0.4442 0.0
H2868 H 0.50304 0.41938 0.52214 0.0
H2869 H 0.51008 0.39174 0.50186 0.0
C2870 C 0.44027 0.78454 0.17258 0.0
C2871 C 0.45783 0.77866 0.18034 0.0
C2872 C 0.4257 0.79097 0.18453 0.0
C2873 C 0.40597 0.78401 0.23137 0.0
H2874 H 0.37528 0.82822 0.2182 0.0
C2875 C 0.33169 0.79195 0.26383 0.0
C2876 C 0.31746 0.79501 0.24989 0.0
C2877 C 0.35094 0.79577 0.25971 0.0
C2878 C 0.38372 0.81587 0.22213 0.0
H2879 H 0.47407 0.77495 0.2066 0.0
H2880 H 0.44813 0.78566 0.22769 0.0
H2881 H 0.4058 0.82306 0.20198 0.0
H2882 H 0.31207 0.80613 0.22134 0.0
H2883 H 0.34548 0.81222 0.21396 0.0
H2884 H 0.3834 0.77587 0.25035 0.0
C2885 C 0.44586 0.78551 0.21231 0.0
C2886 C 0.4012 0.81298 0.2129 0.0
C2887 C 0.46061 0.77936 0.20029 0.0
C2888 C 0.32268 0.80348 0.23237 0.0
C2889 C 0.34191 0.80713 0.22819 0.0
C2890 C 0.38839 0.78675 0.24042 0.0
C2891 C 0.42831 0.79141 0.20449 0.0
C2892 C 0.41209 0.79664 0.21694 0.0
C2893 C 0.35634 0.80258 0.24152 0.0
C2894 C 0.3767 0.8023 0.23533 0.0
H2895 H 0.4378 0.78426 0.15724 0.0
H2896 H 0.41218 0.79514 0.17818 0.0
H2897 H 0.41409 0.77124 0.23464 0.0
H2898 H 0.32809 0.78572 0.27761 0.0
H2899 H 0.36166 0.79252 0.27046 0.0
C2900 C 0.02505 0.70768 0.91086 0.0
C2901 C 0.01031 0.72005 0.91646 0.0
C2902 C 0.0278 0.69036 0.92048 0.0
C2903 C 0.00296 0.65533 0.95146 0.0
H2904 H 0.05446 0.6395 0.96473 0.0
C2905 C 0.01743 0.5925 0.00276 0.0
C2906 C 0.03204 0.57974 -0.00237 0.0
C2907 C 0.01494 0.60956 0.99265 0.0
C2908 C 0.04002 0.64364 0.96093 0.0
H2909 H 0.98692 0.72412 0.93646 0.0
H2910 H 0.99183 0.69398 0.95336 0.0
H2911 H 0.04976 0.66939 0.94724 0.0
H2912 H 0.05556 0.57497 0.97788 0.0
H2913 H 0.05108 0.6047 0.96017 0.0
H2914 H 0.99321 0.62962 0.96519 0.0
C2915 C 0.0011 0.69752 0.94141 0.0
C2916 C 0.03732 0.66073 0.95092 0.0
C2917 C -0.00164 0.71482 0.9318 0.0
C2918 C 0.04419 0.58449 0.98224 0.0
C2919 C 0.04169 0.60157 0.97214 0.0
C2920 C 0.00565 0.63825 0.96147 0.0
C2921 C 0.01585 0.68511 0.93585 0.0
C2922 C 0.01876 0.66679 0.94615 0.0
C2923 C 0.027 0.61424 0.9772 0.0
C2924 C 0.0242 0.63226 0.96637 0.0
H2925 H 0.03444 0.71135 0.89904 0.0
H2926 H 0.03914 0.68098 0.91575 0.0
H2927 H 0.9885 0.65948 0.94771 0.0
H2928 H 0.00786 0.58933 0.01458 0.0
H2929 H 0.00366 0.61918 -0.00295 0.0
C2930 C 0.07542 0.26773 0.65542 0.0
C2931 C 0.0616 0.28174 0.65913 0.0
C2932 C 0.09321 0.2685 0.6645 0.0
C2933 C 0.1267 0.30003 0.69096 0.0
H2934 H 0.14607 0.25149 0.70959 0.0
C2935 C 0.19201 0.2673 0.74037 0.0
C2936 C 0.20772 0.27738 0.73261 0.0
C2937 C 0.17375 0.26923 0.73245 0.0
C2938 C 0.14079 0.26521 0.70469 0.0
H2939 H 0.05566 0.30787 0.6748 0.0
H2940 H 0.08685 0.30911 0.69097 0.0
H2941 H 0.11509 0.25244 0.69368 0.0
H2942 H 0.21647 0.29776 0.7107 0.0
H2943 H 0.18464 0.30081 0.69665 0.0
H2944 H 0.15239 0.31279 0.7023 0.0
C2945 C 0.08394 0.29763 0.68088 0.0
C2946 C 0.12314 0.26571 0.69533 0.0
C2947 C 0.06609 0.29689 0.67169 0.0
C2948 C 0.20468 0.28976 0.71701 0.0
C2949 C 0.18641 0.29163 0.70904 0.0
C2950 C 0.1444 0.29953 0.70039 0.0
C2951 C 0.09754 0.28323 0.6776 0.0
C2952 C 0.11599 0.28307 0.68817 0.0
C2953 C 0.17079 0.2812 0.71653 0.0
C2954 C 0.15168 0.28207 0.70724 0.0
H2955 H 0.07242 0.25597 0.64566 0.0
H2956 H 0.10354 0.25743 0.66135 0.0
H2957 H 0.12158 0.3136 0.68554 0.0
H2958 H 0.1938 0.25779 0.75251 0.0
H2959 H 0.16195 0.26125 0.73875 0.0
C2960 C 0.48584 0.69425 0.13104 0.0
C2961 C 0.4996 0.7073 0.12404 0.0
C2962 C 0.48581 0.67515 0.12489 0.0
C2963 C 0.51744 0.63906 0.10327 0.0
H2964 H 0.47006 0.61316 0.08896 0.0
C2965 C 0.51668 0.56983 0.05909 0.0
C2966 C 0.50397 0.55507 0.06459 0.0
C2967 C 0.51564 0.58789 0.06756 0.0
C2968 C 0.48337 0.62013 0.09315 0.0
H2969 H 0.52392 0.71078 0.10497 0.0
H2970 H 0.52375 0.67762 0.09412 0.0
H2971 H 0.46909 0.64585 0.10161 0.0
H2972 H 0.48007 0.54779 0.0832 0.0
H2973 H 0.47831 0.5795 0.09803 0.0
H2974 H 0.53176 0.61352 0.09459 0.0
C2975 C 0.51318 0.68198 0.10457 0.0
C2976 C 0.48282 0.63883 0.10039 0.0
C2977 C 0.5132 0.70101 0.11069 0.0
C2978 C 0.49009 0.55885 0.07866 0.0
C2979 C 0.48901 0.577 0.08709 0.0
C2980 C 0.51799 0.62044 0.09603 0.0
C2981 C 0.49958 0.66882 0.11168 0.0
C2982 C 0.49989 0.64857 0.10523 0.0
C2983 C 0.50186 0.59166 0.08169 0.0
C2984 C 0.501 0.6109 0.09062 0.0
H2985 H 0.47519 0.69874 0.14136 0.0
H2986 H 0.47523 0.66529 0.1307 0.0
H2987 H 0.5308 0.64605 0.10727 0.0
H2988 H 0.52751 0.56746 0.04826 0.0
H2989 H 0.52554 0.59901 0.06289 0.0
C2990 C 0.06373 0.79279 0.85828 0.0
C2991 C 0.04442 0.79594 0.85372 0.0
C2992 C 0.07807 0.79712 0.84507 0.0
C2993 C 0.08449 0.79845 0.79344 0.0
H2994 H 0.13693 0.80964 0.80865 0.0
C2995 C 0.15098 0.78257 0.74578 0.0
C2996 C 0.16304 0.76961 0.75531 0.0
C2997 C 0.13652 0.79204 0.75584 0.0
C2998 C 0.1223 0.80681 0.80411 0.0
H2999 H 0.02499 0.80729 0.83234 0.0
H3000 H 0.0502 0.81494 0.80912 0.0
H3001 H 0.11074 0.8168 0.83063 0.0
H3002 H 0.16983 0.75684 0.78284 0.0
H3003 H 0.14491 0.77354 0.80033 0.0
H3004 H 0.09626 0.78766 0.76723 0.0
C3005 C 0.05419 0.80894 0.82286 0.0
C3006 C 0.10734 0.81081 0.81668 0.0
C3007 C 0.03979 0.80463 0.83616 0.0
C3008 C 0.16066 0.7666 0.77507 0.0
C3009 C 0.14655 0.77633 0.78513 0.0
C3010 C 0.09947 0.79463 0.78077 0.0
C3011 C 0.07344 0.80472 0.82698 0.0
C3012 C 0.08838 0.80568 0.8119 0.0
C3013 C 0.13432 0.78905 0.77563 0.0
C3014 C 0.11853 0.79787 0.78645 0.0
H3015 H 0.06772 0.78618 0.87175 0.0
H3016 H 0.09269 0.7934 0.84865 0.0
H3017 H 0.07007 0.79422 0.78933 0.0
H3018 H 0.15254 0.78515 0.73054 0.0
H3019 H 0.12711 0.8017 0.74824 0.0
C3020 C 0.98064 0.29739 0.5732 0.0
C3021 C -0.00315 0.30214 0.58429 0.0
C3022 C 0.97622 0.30799 0.5568 0.0
C3023 C 0.96307 0.34288 0.53434 0.0
H3024 H 0.00284 0.36744 0.50408 0.0
C3025 C 0.96086 0.4206 0.512 0.0
C3026 C 0.97242 0.42726 0.49689 0.0
C3027 C 0.95951 0.40102 0.5159 0.0
C3028 C 0.99136 0.36042 0.51191 0.0
H3029 H 0.02159 0.32106 0.58657 0.0
H3030 H 0.01376 0.33974 0.55826 0.0
H3031 H 0.01065 0.33989 0.5237 0.0
H3032 H 0.98943 0.41851 0.47241 0.0
H3033 H 0.98677 0.38429 0.47906 0.0
H3034 H 0.94389 0.36379 0.52296 0.0
C3035 C 0.00458 0.32769 0.56195 0.0
C3036 C -0.00405 0.34477 0.5234 0.0
C3037 C 0.00898 0.31712 0.57831 0.0
C3038 C 0.98073 0.41385 0.48442 0.0
C3039 C 0.97926 0.39424 0.48825 0.0
C3040 C 0.95843 0.35847 0.52272 0.0
C3041 C 0.98797 0.32347 0.5512 0.0
C3042 C 0.9821 0.33653 0.53553 0.0
C3043 C 0.96955 0.3877 0.50468 0.0
C3044 C 0.97278 0.36808 0.51221 0.0
H3045 H 0.9711 0.2858 0.57743 0.0
H3046 H 0.96342 0.30431 0.54873 0.0
H3047 H 0.95203 0.33681 0.54347 0.0
H3048 H 0.95407 0.43052 0.52176 0.0
H3049 H 0.95195 0.39659 0.52873 0.0
C3050 C 0.47219 0.24752 0.31192 0.0
C3051 C 0.46867 0.24357 0.33132 0.0
C3052 C 0.45811 0.2438 0.29813 0.0
C3053 C 0.4096 0.221 0.29137 0.0
H3054 H 0.40413 0.26128 0.25348 0.0
C3055 C 0.3396 0.25285 0.26486 0.0
C3056 C 0.33706 0.25604 0.24517 0.0
C3057 C 0.35661 0.24512 0.27168 0.0
C3058 C 0.40572 0.24964 0.26364 0.0
H3059 H 0.44802 0.23231 0.35163 0.0
H3060 H 0.42294 0.22694 0.32788 0.0
H3061 H 0.43294 0.26015 0.27298 0.0
H3062 H 0.34976 0.25312 0.21702 0.0
H3063 H 0.38026 0.2404 0.22919 0.0
H3064 H 0.38132 0.21183 0.28309 0.0
C3065 C 0.43676 0.23219 0.32302 0.0
C3066 C 0.42226 0.24894 0.27486 0.0
C3067 C 0.45102 0.23549 0.33672 0.0
C3068 C 0.35148 0.2507 0.23227 0.0
C3069 C 0.36881 0.24344 0.23917 0.0
C3070 C 0.39287 0.22199 0.2804 0.0
C3071 C 0.44003 0.23651 0.30355 0.0
C3072 C 0.42412 0.23503 0.28937 0.0
C3073 C 0.37154 0.24089 0.25897 0.0
C3074 C 0.3906 0.23669 0.26691 0.0
H3075 H 0.48586 0.25344 0.30737 0.0
H3076 H 0.46134 0.2469 0.28327 0.0
H3077 H 0.41075 0.20975 0.30199 0.0
H3078 H 0.32857 0.25677 0.27503 0.0
H3079 H 0.35853 0.24351 0.28702 0.0
C3080 C 0.45132 0.55722 0.33142 0.0
C3081 C 0.43659 0.54682 0.32226 0.0
C3082 C 0.4517 0.55872 0.3514 0.0
C3083 C 0.42249 0.54954 0.39528 0.0
H3084 H 0.47201 0.53944 0.41833 0.0
C3085 C 0.43289 0.51288 0.46826 0.0
C3086 C 0.44745 0.51985 0.48041 0.0
C3087 C 0.43043 0.52068 0.45001 0.0
C3088 C 0.45814 0.54263 0.41215 0.0
H3089 H 0.41039 0.53041 0.32662 0.0
H3090 H 0.41134 0.53248 0.36135 0.0
H3091 H 0.46989 0.54532 0.38404 0.0
H3092 H 0.47048 0.5409 0.4832 0.0
H3093 H 0.46631 0.55427 0.45116 0.0
H3094 H 0.4107 0.54569 0.42339 0.0
C3095 C 0.42238 0.53987 0.35324 0.0
C3096 C 0.45691 0.54607 0.39249 0.0
C3097 C 0.42193 0.53851 0.33332 0.0
C3098 C 0.45914 0.53516 0.47416 0.0
C3099 C 0.45682 0.54281 0.45584 0.0
C3100 C 0.42371 0.54589 0.41492 0.0
C3101 C 0.43743 0.54972 0.36255 0.0
C3102 C 0.439 0.54906 0.38375 0.0
C3103 C 0.44261 0.53546 0.44352 0.0
C3104 C 0.44149 0.54196 0.42341 0.0
H3105 H 0.46271 0.56392 0.3232 0.0
H3106 H 0.46333 0.56664 0.35812 0.0
H3107 H 0.40853 0.5522 0.38905 0.0
H3108 H 0.42359 0.50117 0.4727 0.0
H3109 H 0.41949 0.51463 0.44069 0.0
C3110 C 0.29855 0.71024 0.04709 0.0
C3111 C 0.28485 0.70579 0.03296 0.0
C3112 C 0.29353 0.72142 0.06291 0.0
C3113 C 0.25067 0.73049 0.09118 0.0
H3114 H 0.28531 0.76234 0.12122 0.0
C3115 C 0.25581 0.77027 0.17001 0.0
C3116 C 0.25004 0.75477 0.18165 0.0
C3117 C 0.25789 0.76789 0.15025 0.0
C3118 C 0.27532 0.75373 0.11288 0.0
H3119 H 0.25585 0.71111 0.02318 0.0
H3120 H 0.24722 0.73093 0.05059 0.0
H3121 H 0.29392 0.75361 0.08847 0.0
H3122 H 0.24117 0.72484 0.18147 0.0
H3123 H 0.24492 0.72069 0.14704 0.0
H3124 H 0.23227 0.73027 0.11569 0.0
C3125 C 0.26165 0.72539 0.04974 0.0
C3126 C 0.28034 0.7486 0.09419 0.0
C3127 C 0.26663 0.71413 0.034 0.0
C3128 C 0.24566 0.73707 0.17296 0.0
C3129 C 0.24769 0.73472 0.15319 0.0
C3130 C 0.24568 0.7356 0.10984 0.0
C3131 C 0.27477 0.72842 0.06478 0.0
C3132 C 0.26828 0.73652 0.08332 0.0
C3133 C 0.25416 0.75001 0.14168 0.0
C3134 C 0.25818 0.74684 0.12107 0.0
H3135 H 0.31271 0.70401 0.04664 0.0
H3136 H 0.30396 0.72341 0.07428 0.0
H3137 H 0.24114 0.72098 0.0833 0.0
H3138 H 0.25921 0.78414 0.17621 0.0
H3139 H 0.26268 0.77998 0.1417 0.0
C3140 C 0.075 0.43947 0.82379 0.0
C3141 C 0.06915 0.45621 0.81432 0.0
C3142 C 0.07048 0.43667 0.84312 0.0
C3143 C 0.07412 0.44721 0.88566 0.0
H3144 H 0.02562 0.46084 0.90888 0.0
C3145 C 0.0672 0.48523 0.95801 0.0
C3146 C 0.05232 0.47974 0.97044 0.0
C3147 C 0.06884 0.47674 0.93998 0.0
C3148 C 0.03916 0.45664 0.90264 0.0
H3149 H 0.05288 0.4824 0.81701 0.0
H3150 H 0.04473 0.47737 0.8506 0.0
H3151 H 0.0273 0.45536 0.87429 0.0
H3152 H 0.02783 0.46059 0.97397 0.0
H3153 H 0.03053 0.44604 0.94222 0.0
H3154 H 0.08621 0.44961 0.91383 0.0
C3155 C 0.05285 0.46646 0.84321 0.0
C3156 C 0.04013 0.4536 0.88288 0.0
C3157 C 0.05763 0.46941 0.82403 0.0
C3158 C 0.03946 0.46514 0.96471 0.0
C3159 C 0.04095 0.45683 0.94655 0.0
C3160 C 0.0732 0.45046 0.90538 0.0
C3161 C 0.05974 0.45039 0.85309 0.0
C3162 C 0.05774 0.44947 0.87415 0.0
C3163 C 0.0555 0.46275 0.93395 0.0
C3164 C 0.05584 0.45581 0.91393 0.0
H3165 H 0.08392 0.42908 0.81659 0.0
H3166 H 0.07591 0.42415 0.85045 0.0
H3167 H 0.08791 0.44419 0.87926 0.0
H3168 H 0.07738 0.49636 0.96206 0.0
H3169 H 0.08006 0.48172 0.93043 0.0
C3170 C 0.23593 0.26689 0.5642 0.0
C3171 C 0.24554 0.27261 0.54746 0.0
C3172 C 0.24601 0.25809 0.57906 0.0
C3173 C 0.29327 0.26362 0.59872 0.0
H3174 H 0.27289 0.23072 0.63872 0.0
C3175 C 0.30251 0.24644 0.68484 0.0
C3176 C 0.29916 0.26512 0.69161 0.0
C3177 C 0.30193 0.24252 0.66518 0.0
C3178 C 0.27908 0.2396 0.62753 0.0
H3179 H 0.27248 0.27136 0.53202 0.0
H3180 H 0.29004 0.25604 0.55801 0.0
H3181 H 0.25879 0.22951 0.60661 0.0
H3182 H 0.29439 0.2946 0.68319 0.0
H3183 H 0.29385 0.28787 0.6489 0.0
H3184 H 0.31258 0.27474 0.62 0.0
C3185 C 0.27485 0.25861 0.55977 0.0
C3186 C 0.27092 0.23899 0.60922 0.0
C3187 C 0.26477 0.26735 0.5449 0.0
C3188 C 0.29695 0.28008 0.67837 0.0
C3189 C 0.29674 0.27623 0.65874 0.0
C3190 C 0.30127 0.26437 0.61705 0.0
C3191 C 0.26583 0.25492 0.57738 0.0
C3192 C 0.2774 0.25159 0.59488 0.0
C3193 C 0.29844 0.2573 0.65203 0.0
C3194 C 0.29369 0.25297 0.63181 0.0
H3195 H 0.22108 0.27066 0.56651 0.0
H3196 H 0.23866 0.25547 0.59249 0.0
H3197 H 0.29849 0.27365 0.58803 0.0
H3198 H 0.30418 0.2346 0.69474 0.0
H3199 H 0.30331 0.22784 0.66032 0.0
C3200 C 0.49398 0.52476 0.22144 0.0
C3201 C 0.48709 0.51691 0.23864 0.0
C3202 C 0.50456 0.51351 0.20881 0.0
C3203 C 0.5277 0.48632 0.1841 0.0
H3204 H 0.49231 0.44458 0.17248 0.0
C3205 C 0.52537 0.45421 0.10928 0.0
C3206 C 0.50748 0.45894 0.10131 0.0
C3207 C 0.52778 0.4537 0.12917 0.0
C3208 C 0.50265 0.45582 0.17577 0.0
H3209 H 0.4877 0.49193 0.25719 0.0
H3210 H 0.50587 0.47218 0.2349 0.0
H3211 H 0.49069 0.46059 0.20352 0.0
H3212 H 0.47768 0.46459 0.10767 0.0
H3213 H 0.48176 0.46326 0.14233 0.0
H3214 H 0.53861 0.48252 0.15573 0.0
C3215 C 0.50308 0.48699 0.2312 0.0
C3216 C 0.50181 0.46494 0.19357 0.0
C3217 C 0.49271 0.49833 0.24394 0.0
C3218 C 0.49163 0.46102 0.11345 0.0
C3219 C 0.49396 0.46014 0.1333 0.0
C3220 C 0.52869 0.47704 0.16639 0.0
C3221 C 0.50823 0.49418 0.21312 0.0
C3222 C 0.51358 0.48099 0.19744 0.0
C3223 C 0.51225 0.45749 0.14132 0.0
C3224 C 0.51541 0.46247 0.16169 0.0
H3225 H 0.48996 0.53908 0.21706 0.0
H3226 H 0.50825 0.51942 0.19492 0.0
H3227 H 0.53698 0.49859 0.1868 0.0
H3228 H 0.53786 0.45256 0.10024 0.0
H3229 H 0.54199 0.4516 0.13505 0.0
C3230 C 0.29498 0.6951 0.9366 0.0
C3231 C 0.29405 0.67557 0.94138 0.0
C3232 C 0.29152 0.701 0.91775 0.0
C3233 C 0.266 0.68371 0.87469 0.0
H3234 H 0.28937 0.72814 0.85045 0.0
C3235 C 0.26598 0.72358 0.7964 0.0
C3236 C 0.24625 0.72232 0.79233 0.0
C3237 C 0.27295 0.71848 0.81447 0.0
C3238 C 0.28283 0.71559 0.85696 0.0
H3239 H 0.29034 0.64677 0.93016 0.0
H3240 H 0.28504 0.65693 0.89722 0.0
H3241 H 0.30116 0.71737 0.88161 0.0
H3242 H 0.2183 0.71542 0.80423 0.0
H3243 H 0.23039 0.70698 0.83581 0.0
H3244 H 0.24803 0.68154 0.84999 0.0
C3245 C 0.2877 0.6678 0.90804 0.0
C3246 C 0.28946 0.70955 0.87489 0.0
C3247 C 0.29086 0.66196 0.92687 0.0
C3248 C 0.23361 0.71634 0.80683 0.0
C3249 C 0.24055 0.7114 0.82491 0.0
C3250 C 0.25949 0.68965 0.85679 0.0
C3251 C 0.28731 0.68741 0.90337 0.0
C3252 C 0.28106 0.69356 0.88398 0.0
C3253 C 0.26032 0.71214 0.82887 0.0
C3254 C 0.26769 0.70575 0.84777 0.0
H3255 H 0.29738 0.70587 0.94758 0.0
H3256 H 0.29122 0.71621 0.91468 0.0
H3257 H 0.25894 0.67155 0.88138 0.0
H3258 H 0.27611 0.72811 0.78552 0.0
H3259 H 0.28828 0.71903 0.81699 0.0
C3260 C 0.03389 0.47554 0.72182 0.0
C3261 C 0.04941 0.46285 0.72191 0.0
C3262 C 0.02219 0.47707 0.70566 0.0
C3263 C 0.01459 0.48986 0.66511 0.0
H3264 H 0.00198 0.44908 0.62926 0.0
C3265 C 0.01226 0.50085 0.58399 0.0
C3266 C -0.00194 0.4914 0.57313 0.0
C3267 C 0.01383 0.49756 0.60364 0.0
C3268 C 0.0051 0.46061 0.63925 0.0
H3269 H 0.06393 0.44068 0.70587 0.0
H3270 H 0.04368 0.44354 0.67749 0.0
H3271 H 0.01218 0.44106 0.66183 0.0
H3272 H 0.97398 0.47147 0.57448 0.0
H3273 H 0.9769 0.46559 0.60894 0.0
H3274 H 0.00813 0.50938 0.6424 0.0
C3275 C 0.04042 0.45221 0.68994 0.0
C3276 C 0.01108 0.45602 0.65782 0.0
C3277 C 0.05209 0.45062 0.70616 0.0
C3278 C 0.98507 0.479 0.58247 0.0
C3279 C 0.98678 0.47554 0.60214 0.0
C3280 C 0.00869 0.49443 0.64657 0.0
C3281 C 0.02584 0.46601 0.68925 0.0
C3282 C 0.01639 0.4706 0.67077 0.0
C3283 C 0.00132 0.48464 0.61285 0.0
C3284 C 0.00444 0.47985 0.63329 0.0
H3285 H 0.03136 0.48499 0.73387 0.0
H3286 H 0.01084 0.48757 0.70567 0.0
H3287 H 0.01876 0.50144 0.67464 0.0
H3288 H 0.02245 0.51054 0.57725 0.0
H3289 H 0.02532 0.5046 0.61149 0.0
C3290 C 0.22522 0.32788 0.44539 0.0
C3291 C 0.22576 0.31169 0.45733 0.0
C3292 C 0.22797 0.32603 0.42569 0.0
C3293 C 0.24798 0.31998 0.38795 0.0
H3294 H 0.22771 0.2772 0.35843 0.0
C3295 C 0.27365 0.30398 0.31121 0.0
C3296 C 0.25969 0.29825 0.29778 0.0
C3297 C 0.26903 0.30545 0.33063 0.0
C3298 C 0.23335 0.28932 0.36644 0.0
H3299 H 0.229 0.2808 0.45804 0.0
H3300 H 0.23415 0.27758 0.42357 0.0
H3301 H 0.21931 0.28028 0.39222 0.0
H3302 H 0.22986 0.28972 0.29419 0.0
H3303 H 0.22176 0.29261 0.32797 0.0
H3304 H 0.26167 0.32927 0.36214 0.0
C3305 C 0.23135 0.29168 0.4294 0.0
C3306 C 0.2287 0.29096 0.38584 0.0
C3307 C 0.22848 0.29352 0.44914 0.0
C3308 C 0.241 0.29408 0.30417 0.0
C3309 C 0.23636 0.29563 0.32356 0.0
C3310 C 0.25257 0.31837 0.36857 0.0
C3311 C 0.23146 0.30797 0.41751 0.0
C3312 C 0.23599 0.30631 0.39681 0.0
C3313 C 0.25032 0.3013 0.33701 0.0
C3314 C 0.24536 0.303 0.3576 0.0
H3315 H 0.22298 0.34205 0.45131 0.0
H3316 H 0.22756 0.33881 0.41687 0.0
H3317 H 0.25407 0.33182 0.39606 0.0
H3318 H 0.28821 0.30719 0.30678 0.0
H3319 H 0.28018 0.3096 0.34068 0.0
C3320 C 0.27718 0.36907 0.51627 0.0
C3321 C 0.26806 0.35859 0.53085 0.0
C3322 C 0.29176 0.38213 0.52071 0.0
C3323 C 0.31324 0.41091 0.55977 0.0
H3324 H 0.35686 0.41159 0.52537 0.0
C3325 C 0.38578 0.45369 0.56974 0.0
C3326 C 0.39241 0.46257 0.55288 0.0
C3327 C 0.36916 0.44221 0.56931 0.0
C3328 C 0.34472 0.41162 0.53504 0.0
H3329 H 0.26674 0.35371 0.56153 0.0
H3330 H 0.29259 0.37645 0.5693 0.0
H3331 H 0.33115 0.38839 0.52027 0.0
H3332 H 0.38589 0.4681 0.52295 0.0
H3333 H 0.35706 0.44831 0.52229 0.0
H3334 H 0.32721 0.43424 0.57459 0.0
C3335 C 0.28828 0.37468 0.55447 0.0
C3336 C 0.32997 0.39838 0.5321 0.0
C3337 C 0.27359 0.36161 0.55001 0.0
C3338 C 0.38134 0.46113 0.53609 0.0
C3339 C 0.36485 0.44979 0.53568 0.0
C3340 C 0.32817 0.42417 0.5628 0.0
C3341 C 0.29766 0.38491 0.53981 0.0
C3342 C 0.31386 0.39814 0.54413 0.0
C3343 C 0.35907 0.43958 0.55203 0.0
C3344 C 0.34379 0.42488 0.55016 0.0
H3345 H 0.2731 0.36717 0.50139 0.0
H3346 H 0.29843 0.39009 0.50913 0.0
H3347 H 0.30097 0.41105 0.56927 0.0
H3348 H 0.39406 0.45459 0.58288 0.0
H3349 H 0.36489 0.43449 0.58211 0.0
C3350 C 0.81648 0.09227 0.47269 0.0
C3351 C 0.82318 0.11119 0.47524 0.0
C3352 C 0.82941 0.07717 0.47118 0.0
C3353 C 0.85948 0.04933 0.48583 0.0
H3354 H 0.90876 0.05431 0.4606 0.0
C3355 C 0.9287 0.01666 0.51444 0.0
C3356 C 0.94317 0.01132 0.50156 0.0
C3357 C 0.91146 0.0241 0.50767 0.0
C3358 C 0.89493 0.05243 0.46742 0.0
H3359 H 0.84855 0.1293 0.47713 0.0
H3360 H 0.87111 0.10298 0.47453 0.0
H3361 H 0.88362 0.07733 0.45367 0.0
H3362 H 0.9502 0.00801 0.47141 0.0
H3363 H 0.92005 0.02099 0.45965 0.0
H3364 H 0.87104 0.02482 0.50011 0.0
C3365 C 0.8559 0.09978 0.47359 0.0
C3366 C 0.88062 0.06575 0.4636 0.0
C3367 C 0.84299 0.11486 0.47522 0.0
C3368 C 0.93943 0.01218 0.48174 0.0
C3369 C 0.9222 0.01968 0.47498 0.0
C3370 C 0.87382 0.03603 0.48971 0.0
C3371 C 0.84925 0.08074 0.47204 0.0
C3372 C 0.86299 0.06472 0.47326 0.0
C3373 C 0.90833 0.02635 0.48788 0.0
C3374 C 0.89191 0.03784 0.48103 0.0
H3375 H 0.80126 0.08904 0.47258 0.0
H3376 H 0.82389 0.06265 0.46982 0.0
H3377 H 0.84607 0.04821 0.49358 0.0
H3378 H 0.93103 0.01606 0.52979 0.0
H3379 H 0.90112 0.02923 0.518 0.0
C3380 C 0.62516 0.04324 0.23912 0.0
C3381 C 0.62929 0.02425 0.23407 0.0
C3382 C 0.63462 0.05845 0.2301 0.0
C3383 C 0.67937 0.07194 0.20833 0.0
H3384 H 0.65089 0.11618 0.19097 0.0
C3385 C 0.71627 0.14493 0.19078 0.0
C3386 C 0.70754 0.16019 0.20051 0.0
C3387 C 0.70694 0.12704 0.18948 0.0
C3388 C 0.65906 0.1039 0.19565 0.0
H3389 H 0.64654 0.00617 0.21572 0.0
H3390 H 0.66355 0.03295 0.20028 0.0
H3391 H 0.63374 0.08675 0.1995 0.0
H3392 H 0.68191 0.16891 0.21577 0.0
H3393 H 0.66598 0.13812 0.21363 0.0
H3394 H 0.70461 0.08953 0.20575 0.0
C3395 C 0.6528 0.03597 0.21103 0.0
C3396 C 0.64924 0.08709 0.2005 0.0
C3397 C 0.64305 0.02072 0.21982 0.0
C3398 C 0.68915 0.15744 0.20829 0.0
C3399 C 0.67986 0.1398 0.20686 0.0
C3400 C 0.68922 0.08888 0.20366 0.0
C3401 C 0.6486 0.05495 0.21608 0.0
C3402 C 0.65925 0.07124 0.20756 0.0
C3403 C 0.68866 0.12432 0.19762 0.0
C3404 C 0.67906 0.10527 0.19806 0.0
H3405 H 0.61461 0.04635 0.25004 0.0
H3406 H 0.63133 0.07299 0.23441 0.0
H3407 H 0.68737 0.05986 0.21377 0.0
H3408 H 0.73042 0.14665 0.18463 0.0
H3409 H 0.71404 0.11533 0.18227 0.0
C3410 C 0.66932 0.88367 0.0426 0.0
C3411 C 0.67277 0.87005 0.0282 0.0
C3412 C 0.65335 0.89556 0.04152 0.0
C3413 C 0.62137 0.91601 0.00526 0.0
H3414 H 0.5911 0.93196 0.04892 0.0
C3415 C 0.55109 0.95792 -0.00215 0.0
C3416 C 0.54695 0.97203 0.0116 0.0
C3417 C 0.56728 0.94648 -0.00023 0.0
C3418 C 0.59963 0.92786 0.03665 0.0
H3419 H 0.66158 0.85724 0.00208 0.0
H3420 H 0.6335 0.87776 0.00036 0.0
H3421 H 0.61649 0.90849 0.05334 0.0
H3422 H 0.55711 0.98582 0.03768 0.0
H3423 H 0.58554 0.96591 0.0409 0.0
H3424 H 0.60453 0.93531 0.98855 0.0
C3425 C 0.64336 0.87955 0.01226 0.0
C3426 C 0.61409 0.91435 0.03917 0.0
C3427 C 0.65933 0.86768 0.01335 0.0
C3428 C 0.55985 0.97505 0.02685 0.0
C3429 C 0.57604 0.96354 0.0288 0.0
C3430 C 0.60694 0.9295 0.00275 0.0
C3431 C 0.64054 0.89401 0.026 0.0
C3432 C 0.62501 0.90818 0.02346 0.0
C3433 C 0.5797 0.94888 0.01549 0.0
C3434 C 0.59582 0.93548 0.01838 0.0
H3435 H 0.67947 0.88584 0.0542 0.0
H3436 H 0.65159 0.90659 0.05229 0.0
H3437 H 0.62984 0.91188 0.99295 0.0
H3438 H 0.5415 0.95523 0.98589 0.0
H3439 H 0.56961 0.93523 0.98934 0.0
C3440 C 0.40429 0.47323 0.26082 0.0
C3441 C 0.40618 0.48847 0.24782 0.0
C3442 C 0.39417 0.45666 0.25568 0.0
C3443 C 0.35632 0.4387 0.2242 0.0
H3444 H 0.37745 0.3891 0.23712 0.0
C3445 C 0.31596 0.36692 0.20934 0.0
C3446 C 0.31635 0.35368 0.22454 0.0
C3447 C 0.32777 0.38327 0.20974 0.0
C3448 C 0.37131 0.40284 0.2335 0.0
H3449 H 0.39892 0.49849 0.2193 0.0
H3450 H 0.38096 0.46945 0.21037 0.0
H3451 H 0.39653 0.41807 0.24254 0.0
H3452 H 0.3294 0.34734 0.25212 0.0
H3453 H 0.34957 0.37577 0.2529 0.0
H3454 H 0.33083 0.4235 0.21575 0.0
C3455 C 0.38737 0.47037 0.22451 0.0
C3456 C 0.38224 0.4194 0.23658 0.0
C3457 C 0.39767 0.48691 0.22959 0.0
C3458 C 0.32877 0.35714 0.24009 0.0
C3459 C 0.34048 0.3734 0.24049 0.0
C3460 C 0.3453 0.4221 0.22121 0.0
C3461 C 0.38562 0.45507 0.23749 0.0
C3462 C 0.3747 0.4375 0.23235 0.0
C3463 C 0.34019 0.38663 0.22533 0.0
C3464 C 0.35253 0.40404 0.22626 0.0
H3465 H 0.41068 0.47405 0.27497 0.0
H3466 H 0.39281 0.44517 0.26606 0.0
H3467 H 0.35014 0.45252 0.2209 0.0
H3468 H 0.30658 0.36466 0.19713 0.0
H3469 H 0.32731 0.39318 0.1978 0.0
C3470 C 0.24467 0.61657 0.0328 0.0
C3471 C 0.24563 0.62466 0.01437 0.0
C3472 C 0.22869 0.60567 0.03831 0.0
C3473 C 0.17802 0.59697 0.02501 0.0
H3474 H 0.18365 0.54912 0.05281 0.0
C3475 C 0.12175 0.53854 0.0221 0.0
C3476 C 0.11202 0.5352 0.03944 0.0
C3477 C 0.13919 0.54834 0.02197 0.0
C3478 C 0.18195 0.5626 0.0453 0.0
H3479 H 0.23092 0.62744 0.98712 0.0
H3480 H 0.20329 0.60811 -0.0035 0.0
H3481 H 0.21198 0.56933 0.04652 0.0
H3482 H 0.11374 0.53812 0.07039 0.0
H3483 H 0.14474 0.55527 0.07006 0.0
H3484 H 0.14821 0.58978 0.02298 0.0
C3485 C 0.2146 0.61054 0.00691 0.0
C3486 C 0.19807 0.57416 0.04171 0.0
C3487 C 0.23048 0.6215 0.00147 0.0
C3488 C 0.12088 0.54055 0.05682 0.0
C3489 C 0.13854 0.55033 0.05666 0.0
C3490 C 0.16206 0.58537 0.02841 0.0
C3491 C 0.21343 0.60263 0.02544 0.0
C3492 C 0.1963 0.59124 0.03109 0.0
C3493 C 0.14738 0.55483 0.03915 0.0
C3494 C 0.16397 0.56794 0.0382 0.0
H3495 H 0.25618 0.61882 0.04304 0.0
H3496 H 0.22815 0.59989 0.05271 0.0
H3497 H 0.17609 0.61027 0.01724 0.0
H3498 H 0.1155 0.53435 0.00848 0.0
H3499 H 0.14594 0.55153 0.00834 0.0
C3500 C 0.64934 0.92484 0.26062 0.0
C3501 C 0.64912 0.94308 0.2691 0.0
C3502 C 0.66559 0.91343 0.26201 0.0
C3503 C 0.70541 0.89822 0.25621 0.0
H3504 H 0.73253 0.89129 0.30429 0.0
C3505 C 0.76679 0.84607 0.25879 0.0
C3506 C 0.76491 0.83234 0.27339 0.0
C3507 C 0.75711 0.86343 0.25999 0.0
C3508 C 0.72516 0.89317 0.29075 0.0
H3509 H 0.66556 0.96361 0.28598 0.0
H3510 H 0.69407 0.94363 0.28831 0.0
H3511 H 0.70534 0.91316 0.30278 0.0
H3512 H 0.75309 0.82673 0.30158 0.0
H3513 H 0.73569 0.85678 0.30347 0.0
H3514 H 0.72437 0.87766 0.2443 0.0
C3515 C 0.68162 0.93814 0.2807 0.0
C3516 C 0.70968 0.90577 0.28986 0.0
C3517 C 0.66535 0.94958 0.27929 0.0
C3518 C 0.75478 0.83707 0.2901 0.0
C3519 C 0.74483 0.85434 0.29118 0.0
C3520 C 0.7208 0.88568 0.25709 0.0
C3521 C 0.68198 0.92003 0.27188 0.0
C3522 C 0.69939 0.90805 0.27266 0.0
C3523 C 0.74507 0.86723 0.27566 0.0
C3524 C 0.73065 0.88271 0.27444 0.0
H3525 H 0.637 0.91942 0.25277 0.0
H3526 H 0.66531 0.89937 0.25536 0.0
H3527 H 0.69797 0.89994 0.24268 0.0
H3528 H 0.77477 0.84289 0.24587 0.0
H3529 H 0.75805 0.87333 0.24805 0.0
C3530 C 0.86063 0.06788 0.76346 0.0
C3531 C 0.88056 0.06834 0.7663 0.0
C3532 C 0.85029 0.08487 0.76267 0.0
C3533 C 0.85011 0.13406 0.77918 0.0
H3534 H 0.81569 0.14283 0.73641 0.0
C3535 C 0.81132 0.20607 0.76805 0.0
C3536 C 0.79301 0.20564 0.75964 0.0
C3537 C 0.822 0.1893 0.7696 0.0
C3538 C 0.82495 0.14049 0.74865 0.0
H3539 H 0.90536 0.08682 0.77068 0.0
H3540 H 0.88709 0.1167 0.76969 0.0
H3541 H 0.83458 0.11366 0.73743 0.0
H3542 H 0.77109 0.18722 0.74715 0.0
H3543 H 0.78933 0.15784 0.75058 0.0
H3544 H 0.84012 0.16053 0.79077 0.0
C3545 C 0.87958 0.10313 0.76795 0.0
C3546 C 0.83587 0.12385 0.74911 0.0
C3547 C 0.89 0.08611 0.76841 0.0
C3548 C 0.78527 0.18802 0.7535 0.0
C3549 C 0.7958 0.1712 0.75533 0.0
C3550 C 0.83896 0.1506 0.77888 0.0
C3551 C 0.85966 0.10262 0.76501 0.0
C3552 C 0.84853 0.1205 0.76437 0.0
C3553 C 0.81447 0.17169 0.76303 0.0
C3554 C 0.82622 0.15401 0.7636 0.0
H3555 H 0.853 0.05436 0.76178 0.0
H3556 H 0.83491 0.08413 0.76051 0.0
H3557 H 0.85966 0.13164 0.7912 0.0
H3558 H 0.81772 0.21949 0.7728 0.0
H3559 H 0.8364 0.1903 0.77538 0.0
loop_
_geom_bond_atom_site_label_1
_geom_bond_atom_site_label_2
_geom_bond_distance
_geom_bond_site_symmetry_2
_ccdc_geom_bond_type
In0 O1 2.294 . S
In0 O2 2.326 . S
In0 O6 2.266 . S
In0 O7 2.326 . S
In0 O8 2.266 . S
In0 O9 2.326 . S
In0 O11 2.294 1_455 S
In0 O12 2.326 1_455 S
O1 In0 2.294 . S
O1 C10 1.240 . S
O2 In0 2.326 . S
O2 C10 1.252 . S
C3 O6 1.252 . S
C3 O7 1.260 . S
C4 O11 1.240 . S
C4 O12 1.252 . S
C5 O8 1.252 . S
C5 O9 1.260 . S
O6 In0 2.266 . S
O6 C3 1.252 . S
O7 In0 2.326 . S
O7 C3 1.260 . S
O8 In0 2.266 . S
O8 C5 1.252 . S
O9 In0 2.326 . S
O9 C5 1.260 . S
C10 O1 1.240 . S
C10 O2 1.252 . S
O11 In0 2.294 1_655 S
O11 C4 1.240 . S
O12 In0 2.326 1_655 S
O12 C4 1.252 . S
In13 O14 2.294 . S
In13 O15 2.326 . S
In13 O19 2.266 1_455 S
In13 O20 2.326 1_455 S
In13 O21 2.266 . S
In13 O22 2.326 . S
In13 O24 2.294 . S
In13 O25 2.326 . S
O14 In13 2.294 . S
O14 C23 1.240 . S
O15 In13 2.326 . S
O15 C23 1.252 . S
C16 O19 1.252 . S
C16 O20 1.260 . S
C17 O24 1.240 . S
C17 O25 1.252 . S
C18 O21 1.252 . S
C18 O22 1.260 . S
O19 In13 2.266 1_655 S
O19 C16 1.252 . S
O20 In13 2.326 1_655 S
O20 C16 1.260 . S
O21 In13 2.266 . S
O21 C18 1.252 . S
O22 In13 2.326 . S
O22 C18 1.260 . S
C23 O14 1.240 . S
C23 O15 1.252 . S
O24 In13 2.294 . S
O24 C17 1.240 . S
O25 In13 2.326 . S
O25 C17 1.252 . S
In26 O27 2.294 . S
In26 O28 2.326 . S
In26 O32 2.266 . S
In26 O33 2.326 . S
In26 O34 2.266 . S
In26 O35 2.326 . S
In26 O37 2.294 . S
In26 O38 2.326 . S
O27 In26 2.294 . S
O27 C36 1.240 . S
O28 In26 2.326 . S
O28 C36 1.252 . S
C29 O32 1.252 . S
C29 O33 1.260 . S
C30 O37 1.240 . S
C30 O38 1.252 . S
C31 O34 1.252 . S
C31 O35 1.260 . S
O32 In26 2.266 . S
O32 C29 1.252 . S
O33 In26 2.326 . S
O33 C29 1.260 . S
O34 In26 2.266 . S
O34 C31 1.252 . S
O35 In26 2.326 . S
O35 C31 1.260 . S
C36 O27 1.240 . S
C36 O28 1.252 . S
O37 In26 2.294 . S
O37 C30 1.240 . S
O38 In26 2.326 . S
O38 C30 1.252 . S
In39 O40 2.294 . S
In39 O41 2.326 . S
In39 O45 2.266 . S
In39 O46 2.326 . S
In39 O47 2.266 . S
In39 O48 2.326 . S
In39 O50 2.294 . S
In39 O51 2.326 . S
O40 In39 2.294 . S
O40 C49 1.240 . S
O41 In39 2.326 . S
O41 C49 1.252 . S
C42 O45 1.252 . S
C42 O46 1.260 . S
C43 O50 1.240 . S
C43 O51 1.252 . S
C44 O47 1.252 . S
C44 O48 1.260 . S
O45 In39 2.266 . S
O45 C42 1.252 . S
O46 In39 2.326 . S
O46 C42 1.260 . S
O47 In39 2.266 . S
O47 C44 1.252 . S
O48 In39 2.326 . S
O48 C44 1.260 . S
C49 O40 1.240 . S
C49 O41 1.252 . S
O50 In39 2.294 . S
O50 C43 1.240 . S
O51 In39 2.326 . S
O51 C43 1.252 . S
In52 O53 2.294 1_545 S
In52 O54 2.326 1_545 S
In52 O58 2.266 . S
In52 O59 2.326 . S
In52 O60 2.266 . S
In52 O61 2.326 . S
In52 O63 2.294 . S
In52 O64 2.326 . S
O53 In52 2.294 1_565 S
O53 C62 1.240 . S
O54 In52 2.326 1_565 S
O54 C62 1.252 . S
C55 O58 1.252 . S
C55 O59 1.260 . S
C56 O63 1.240 . S
C56 O64 1.252 . S
C57 O60 1.252 . S
C57 O61 1.260 . S
O58 In52 2.266 . S
O58 C55 1.252 . S
O59 In52 2.326 . S
O59 C55 1.260 . S
O60 In52 2.266 . S
O60 C57 1.252 . S
O61 In52 2.326 . S
O61 C57 1.260 . S
C62 O53 1.240 . S
C62 O54 1.252 . S
O63 In52 2.294 . S
O63 C56 1.240 . S
O64 In52 2.326 . S
O64 C56 1.252 . S
In65 O66 2.294 . S
In65 O67 2.326 . S
In65 O71 2.266 . S
In65 O72 2.326 . S
In65 O73 2.266 . S
In65 O74 2.326 . S
In65 O76 2.294 . S
In65 O77 2.326 . S
O66 In65 2.294 . S
O66 C75 1.240 . S
O67 In65 2.326 . S
O67 C75 1.252 . S
C68 O71 1.252 . S
C68 O72 1.260 . S
C69 O76 1.240 . S
C69 O77 1.252 . S
C70 O73 1.252 . S
C70 O74 1.260 . S
O71 In65 2.266 . S
O71 C68 1.252 . S
O72 In65 2.326 . S
O72 C68 1.260 . S
O73 In65 2.266 . S
O73 C70 1.252 . S
O74 In65 2.326 . S
O74 C70 1.260 . S
C75 O66 1.240 . S
C75 O67 1.252 . S
O76 In65 2.294 . S
O76 C69 1.240 . S
O77 In65 2.326 . S
O77 C69 1.252 . S
In78 O79 2.294 . S
In78 O80 2.326 . S
In78 O84 2.266 1_545 S
In78 O85 2.326 1_545 S
In78 O86 2.266 1_545 S
In78 O87 2.324 1_545 S
In78 O89 2.294 . S
In78 O90 2.326 . S
O79 In78 2.294 . S
O79 C88 1.240 . S
O80 In78 2.326 . S
O80 C88 1.252 . S
C81 O84 1.252 . S
C81 O85 1.260 . S
C82 O89 1.240 . S
C82 O90 1.252 . S
C83 O86 1.252 . S
C83 O87 1.262 . S
O84 In78 2.266 1_565 S
O84 C81 1.252 . S
O85 In78 2.326 1_565 S
O85 C81 1.260 . S
O86 In78 2.266 1_565 S
O86 C83 1.252 . S
O87 In78 2.324 1_565 S
O87 C83 1.262 . S
C88 O79 1.240 . S
C88 O80 1.252 . S
O89 In78 2.294 . S
O89 C82 1.240 . S
O90 In78 2.326 . S
O90 C82 1.252 . S
In91 O92 2.294 . S
In91 O93 2.326 . S
In91 O97 2.266 . S
In91 O98 2.326 . S
In91 O99 2.266 1_554 S
In91 O100 2.326 1_554 S
In91 O102 2.294 . S
In91 O103 2.326 . S
O92 In91 2.294 . S
O92 C101 1.240 . S
O93 In91 2.326 . S
O93 C101 1.252 . S
C94 O97 1.252 . S
C94 O98 1.260 . S
C95 O102 1.240 . S
C95 O103 1.252 . S
C96 O99 1.252 . S
C96 O100 1.260 . S
O97 In91 2.266 . S
O97 C94 1.252 . S
O98 In91 2.326 . S
O98 C94 1.260 . S
O99 In91 2.266 1_556 S
O99 C96 1.252 . S
O100 In91 2.326 1_556 S
O100 C96 1.260 . S
C101 O92 1.240 . S
C101 O93 1.252 . S
O102 In91 2.294 . S
O102 C95 1.240 . S
O103 In91 2.326 . S
O103 C95 1.252 . S
In104 O105 2.294 . S
In104 O106 2.326 . S
In104 O110 2.266 1_554 S
In104 O111 2.326 1_554 S
In104 O112 2.266 . S
In104 O113 2.326 . S
In104 O115 2.294 . S
In104 O116 2.326 . S
O105 In104 2.294 . S
O105 C114 1.240 . S
O106 In104 2.326 . S
O106 C114 1.252 . S
C107 O110 1.252 . S
C107 O111 1.260 . S
C108 O115 1.240 . S
C108 O116 1.252 . S
C109 O112 1.252 . S
C109 O113 1.260 . S
O110 In104 2.266 1_556 S
O110 C107 1.252 . S
O111 In104 2.326 1_556 S
O111 C107 1.260 . S
O112 In104 2.266 . S
O112 C109 1.252 . S
O113 In104 2.326 . S
O113 C109 1.260 . S
C114 O105 1.240 . S
C114 O106 1.252 . S
O115 In104 2.294 . S
O115 C108 1.240 . S
O116 In104 2.326 . S
O116 C108 1.252 . S
In117 O118 2.294 . S
In117 O119 2.326 . S
In117 O123 2.266 . S
In117 O124 2.326 . S
In117 O125 2.266 . S
In117 O126 2.326 . S
In117 O128 2.294 . S
In117 O129 2.326 . S
O118 In117 2.294 . S
O118 C127 1.240 . S
O119 In117 2.326 . S
O119 C127 1.252 . S
C120 O123 1.252 . S
C120 O124 1.260 . S
C121 O128 1.240 . S
C121 O129 1.252 . S
C122 O125 1.252 . S
C122 O126 1.260 . S
O123 In117 2.266 . S
O123 C120 1.252 . S
O124 In117 2.326 . S
O124 C120 1.260 . S
O125 In117 2.266 . S
O125 C122 1.252 . S
O126 In117 2.326 . S
O126 C122 1.260 . S
C127 O118 1.240 . S
C127 O119 1.252 . S
O128 In117 2.294 . S
O128 C121 1.240 . S
O129 In117 2.326 . S
O129 C121 1.252 . S
In130 O131 2.294 . S
In130 O132 2.326 . S
In130 O136 2.266 . S
In130 O137 2.326 . S
In130 O138 2.266 . S
In130 O139 2.326 . S
In130 O141 2.294 . S
In130 O142 2.326 . S
O131 In130 2.294 . S
O131 C140 1.240 . S
O132 In130 2.326 . S
O132 C140 1.252 . S
C133 O136 1.252 . S
C133 O137 1.260 . S
C134 O141 1.240 . S
C134 O142 1.252 . S
C135 O138 1.252 . S
C135 O139 1.260 . S
O136 In130 2.266 . S
O136 C133 1.252 . S
O137 In130 2.326 . S
O137 C133 1.260 . S
O138 In130 2.266 . S
O138 C135 1.252 . S
O139 In130 2.326 . S
O139 C135 1.260 . S
C140 O131 1.240 . S
C140 O132 1.252 . S
O141 In130 2.294 . S
O141 C134 1.240 . S
O142 In130 2.326 . S
O142 C134 1.252 . S
In143 O144 2.294 . S
In143 O145 2.326 . S
In143 O149 2.266 . S
In143 O150 2.326 . S
In143 O151 2.266 . S
In143 O152 2.326 . S
In143 O154 2.294 . S
In143 O155 2.326 . S
O144 In143 2.294 . S
O144 C153 1.240 . S
O145 In143 2.326 . S
O145 C153 1.252 . S
C146 O149 1.252 . S
C146 O150 1.260 . S
C147 O154 1.240 . S
C147 O155 1.252 . S
C148 O151 1.252 . S
C148 O152 1.260 . S
O149 In143 2.266 . S
O149 C146 1.252 . S
O150 In143 2.326 . S
O150 C146 1.260 . S
O151 In143 2.266 . S
O151 C148 1.252 . S
O152 In143 2.326 . S
O152 C148 1.260 . S
C153 O144 1.240 . S
C153 O145 1.252 . S
O154 In143 2.294 . S
O154 C147 1.240 . S
O155 In143 2.326 . S
O155 C147 1.252 . S
In156 O157 2.294 . S
In156 O158 2.326 . S
In156 O162 2.266 1_455 S
In156 O163 2.326 1_455 S
In156 O164 2.266 . S
In156 O165 2.326 . S
In156 O167 2.294 . S
In156 O168 2.326 . S
O157 In156 2.294 . S
O157 C166 1.240 . S
O158 In156 2.326 . S
O158 C166 1.252 . S
C159 O162 1.252 . S
C159 O163 1.260 . S
C160 O167 1.240 . S
C160 O168 1.252 . S
C161 O164 1.252 . S
C161 O165 1.260 . S
O162 In156 2.266 1_655 S
O162 C159 1.252 . S
O163 In156 2.326 1_655 S
O163 C159 1.260 . S
O164 In156 2.266 . S
O164 C161 1.252 . S
O165 In156 2.326 . S
O165 C161 1.260 . S
C166 O157 1.240 . S
C166 O158 1.252 . S
O167 In156 2.294 . S
O167 C160 1.240 . S
O168 In156 2.326 . S
O168 C160 1.252 . S
In169 O170 2.294 . S
In169 O171 2.326 . S
In169 O175 2.266 . S
In169 O176 2.326 . S
In169 O177 2.266 1_455 S
In169 O178 2.326 1_455 S
In169 O180 2.294 . S
In169 O181 2.326 . S
O170 In169 2.294 . S
O170 C179 1.240 . S
O171 In169 2.326 . S
O171 C179 1.252 . S
C172 O175 1.252 . S
C172 O176 1.260 . S
C173 O180 1.240 . S
C173 O181 1.252 . S
C174 O177 1.252 . S
C174 O178 1.260 . S
O175 In169 2.266 . S
O175 C172 1.252 . S
O176 In169 2.326 . S
O176 C172 1.260 . S
O177 In169 2.266 1_655 S
O177 C174 1.252 . S
O178 In169 2.326 1_655 S
O178 C174 1.260 . S
C179 O170 1.240 . S
C179 O171 1.252 . S
O180 In169 2.294 . S
O180 C173 1.240 . S
O181 In169 2.326 . S
O181 C173 1.252 . S
In182 O183 2.294 . S
In182 O184 2.326 . S
In182 O188 2.266 . S
In182 O189 2.326 . S
In182 O190 2.266 . S
In182 O191 2.326 . S
In182 O193 2.294 . S
In182 O194 2.326 . S
O183 In182 2.294 . S
O183 C192 1.240 . S
O184 In182 2.326 . S
O184 C192 1.252 . S
C185 O188 1.252 . S
C185 O189 1.260 . S
C186 O193 1.240 . S
C186 O194 1.252 . S
C187 O190 1.252 . S
C187 O191 1.260 . S
O188 In182 2.266 . S
O188 C185 1.252 . S
O189 In182 2.326 . S
O189 C185 1.260 . S
O190 In182 2.266 . S
O190 C187 1.252 . S
O191 In182 2.326 . S
O191 C187 1.260 . S
C192 O183 1.240 . S
C192 O184 1.252 . S
O193 In182 2.294 . S
O193 C186 1.240 . S
O194 In182 2.326 . S
O194 C186 1.252 . S
In195 O196 2.294 . S
In195 O197 2.326 . S
In195 O201 2.266 . S
In195 O202 2.326 . S
In195 O203 2.266 . S
In195 O204 2.326 . S
In195 O206 2.294 . S
In195 O207 2.326 . S
O196 In195 2.294 . S
O196 C205 1.240 . S
O197 In195 2.326 . S
O197 C205 1.252 . S
C198 O201 1.252 . S
C198 O202 1.260 . S
C199 O206 1.240 . S
C199 O207 1.252 . S
C200 O203 1.252 . S
C200 O204 1.260 . S
O201 In195 2.266 . S
O201 C198 1.252 . S
O202 In195 2.326 . S
O202 C198 1.260 . S
O203 In195 2.266 . S
O203 C200 1.252 . S
O204 In195 2.326 . S
O204 C200 1.260 . S
C205 O196 1.240 . S
C205 O197 1.252 . S
O206 In195 2.294 . S
O206 C199 1.240 . S
O207 In195 2.326 . S
O207 C199 1.252 . S
In208 O209 2.294 . S
In208 O210 2.326 . S
In208 O214 2.266 . S
In208 O215 2.326 . S
In208 O216 2.237 1_545 S
In208 O217 2.326 1_545 S
In208 O219 2.294 . S
In208 O220 2.326 . S
O209 In208 2.294 . S
O209 C218 1.240 . S
O210 In208 2.326 . S
O210 C218 1.252 . S
C211 O214 1.252 . S
C211 O215 1.260 . S
C212 O219 1.240 . S
C212 O220 1.252 . S
C213 O216 1.289 . S
C213 O217 1.260 . S
O214 In208 2.266 . S
O214 C211 1.252 . S
O215 In208 2.326 . S
O215 C211 1.260 . S
O216 In208 2.237 1_565 S
O216 C213 1.289 . S
O217 In208 2.326 1_565 S
O217 C213 1.260 . S
C218 O209 1.240 . S
C218 O210 1.252 . S
O219 In208 2.294 . S
O219 C212 1.240 . S
O220 In208 2.326 . S
O220 C212 1.252 . S
In221 O222 2.294 . S
In221 O223 2.326 . S
In221 O227 2.266 . S
In221 O228 2.326 . S
In221 O229 2.266 . S
In221 O230 2.326 . S
In221 O232 2.294 . S
In221 O233 2.326 . S
O222 In221 2.294 . S
O222 C231 1.240 . S
O223 In221 2.326 . S
O223 C231 1.252 . S
C224 O227 1.252 . S
C224 O228 1.260 . S
C225 O232 1.240 . S
C225 O233 1.252 . S
C226 O229 1.252 . S
C226 O230 1.260 . S
O227 In221 2.266 . S
O227 C224 1.252 . S
O228 In221 2.326 . S
O228 C224 1.260 . S
O229 In221 2.266 . S
O229 C226 1.252 . S
O230 In221 2.326 . S
O230 C226 1.260 . S
C231 O222 1.240 . S
C231 O223 1.252 . S
O232 In221 2.294 . S
O232 C225 1.240 . S
O233 In221 2.326 . S
O233 C225 1.252 . S
In234 O235 2.256 1_545 S
In234 O236 2.267 1_545 S
In234 O240 2.305 . S
In234 O241 2.385 . S
In234 O242 2.276 . S
In234 O243 2.330 . S
In234 O245 2.288 1_545 S
In234 O246 2.321 1_545 S
O235 In234 2.256 1_565 S
O235 C244 1.240 . S
O236 In234 2.267 1_565 S
O236 C244 1.252 . S
C237 O240 1.252 . S
C237 O241 1.260 . S
C238 O245 1.240 . S
C238 O246 1.252 . S
C239 O242 1.252 . S
C239 O243 1.260 . S
O240 In234 2.305 . S
O240 C237 1.252 . S
O241 In234 2.385 . S
O241 C237 1.260 . S
O242 In234 2.276 . S
O242 C239 1.252 . S
O243 In234 2.330 . S
O243 C239 1.260 . S
C244 O235 1.240 . S
C244 O236 1.252 . S
O245 In234 2.288 1_565 S
O245 C238 1.240 . S
O246 In234 2.321 1_565 S
O246 C238 1.252 . S
In247 O248 2.294 . S
In247 O249 2.326 . S
In247 O253 2.266 . S
In247 O254 2.326 . S
In247 O255 2.266 1_554 S
In247 O256 2.326 1_554 S
In247 O258 2.294 . S
In247 O259 2.326 . S
O248 In247 2.294 . S
O248 C257 1.240 . S
O249 In247 2.326 . S
O249 C257 1.252 . S
C250 O253 1.252 . S
C250 O254 1.260 . S
C251 O258 1.240 . S
C251 O259 1.252 . S
C252 O255 1.252 . S
C252 O256 1.260 . S
O253 In247 2.266 . S
O253 C250 1.252 . S
O254 In247 2.326 . S
O254 C250 1.260 . S
O255 In247 2.266 1_556 S
O255 C252 1.252 . S
O256 In247 2.326 1_556 S
O256 C252 1.260 . S
C257 O248 1.240 . S
C257 O249 1.252 . S
O258 In247 2.294 . S
O258 C251 1.240 . S
O259 In247 2.326 . S
O259 C251 1.252 . S
In260 O261 2.294 . S
In260 O262 2.326 . S
In260 O266 2.266 1_554 S
In260 O267 2.326 1_554 S
In260 O268 2.266 . S
In260 O269 2.326 . S
In260 O271 2.294 . S
In260 O272 2.326 . S
O261 In260 2.294 . S
O261 C270 1.240 . S
O262 In260 2.326 . S
O262 C270 1.252 . S
C263 O266 1.252 . S
C263 O267 1.260 . S
C264 O271 1.240 . S
C264 O272 1.252 . S
C265 O268 1.252 . S
C265 O269 1.260 . S
O266 In260 2.266 1_556 S
O266 C263 1.252 . S
O267 In260 2.326 1_556 S
O267 C263 1.260 . S
O268 In260 2.266 . S
O268 C265 1.252 . S
O269 In260 2.326 . S
O269 C265 1.260 . S
C270 O261 1.240 . S
C270 O262 1.252 . S
O271 In260 2.294 . S
O271 C264 1.240 . S
O272 In260 2.326 . S
O272 C264 1.252 . S
In273 O274 2.294 . S
In273 O275 2.326 . S
In273 O279 2.266 . S
In273 O280 2.326 . S
In273 O281 2.266 . S
In273 O282 2.326 . S
In273 O284 2.294 . S
In273 O285 2.326 . S
O274 In273 2.294 . S
O274 C283 1.240 . S
O275 In273 2.326 . S
O275 C283 1.252 . S
C276 O279 1.252 . S
C276 O280 1.260 . S
C277 O284 1.240 . S
C277 O285 1.252 . S
C278 O281 1.252 . S
C278 O282 1.260 . S
O279 In273 2.266 . S
O279 C276 1.252 . S
O280 In273 2.326 . S
O280 C276 1.260 . S
O281 In273 2.266 . S
O281 C278 1.252 . S
O282 In273 2.326 . S
O282 C278 1.260 . S
C283 O274 1.240 . S
C283 O275 1.252 . S
O284 In273 2.294 . S
O284 C277 1.240 . S
O285 In273 2.326 . S
O285 C277 1.252 . S
In286 O287 2.294 . S
In286 O288 2.326 . S
In286 O292 2.266 . S
In286 O293 2.326 . S
In286 O294 2.266 . S
In286 O295 2.326 . S
In286 O297 2.294 . S
In286 O298 2.326 . S
O287 In286 2.294 . S
O287 C296 1.240 . S
O288 In286 2.326 . S
O288 C296 1.252 . S
C289 O292 1.252 . S
C289 O293 1.260 . S
C290 O297 1.240 . S
C290 O298 1.252 . S
C291 O294 1.252 . S
C291 O295 1.260 . S
O292 In286 2.266 . S
O292 C289 1.252 . S
O293 In286 2.326 . S
O293 C289 1.260 . S
O294 In286 2.266 . S
O294 C291 1.252 . S
O295 In286 2.326 . S
O295 C291 1.260 . S
C296 O287 1.240 . S
C296 O288 1.252 . S
O297 In286 2.294 . S
O297 C290 1.240 . S
O298 In286 2.326 . S
O298 C290 1.252 . S
In299 O300 2.294 . S
In299 O301 2.326 . S
In299 O305 2.266 . S
In299 O306 2.326 . S
In299 O307 2.266 . S
In299 O308 2.326 . S
In299 O310 2.294 . S
In299 O311 2.326 . S
O300 In299 2.294 . S
O300 C309 1.240 . S
O301 In299 2.326 . S
O301 C309 1.252 . S
C302 O305 1.252 . S
C302 O306 1.260 . S
C303 O310 1.240 . S
C303 O311 1.252 . S
C304 O307 1.252 . S
C304 O308 1.260 . S
O305 In299 2.266 . S
O305 C302 1.252 . S
O306 In299 2.326 . S
O306 C302 1.260 . S
O307 In299 2.266 . S
O307 C304 1.252 . S
O308 In299 2.326 . S
O308 C304 1.260 . S
C309 O300 1.240 . S
C309 O301 1.252 . S
O310 In299 2.294 . S
O310 C303 1.240 . S
O311 In299 2.326 . S
O311 C303 1.252 . S
O312 Zn313 1.953 . S
O312 C328 1.225 1_455 S
Zn313 O312 1.953 . S
Zn313 O314 1.960 . S
Zn313 O320 1.922 . S
Zn313 O325 1.924 1_454 S
O314 Zn313 1.960 . S
O314 Zn315 1.948 1_545 S
O314 Zn316 1.931 1_455 S
O314 Zn317 1.929 1_444 S
Zn315 O314 1.948 1_565 S
Zn315 O318 1.933 . S
Zn315 O321 1.941 1_565 S
Zn315 O322 1.965 . S
Zn316 O314 1.931 1_655 S
Zn316 O323 1.938 . S
Zn316 O324 1.906 1_545 S
Zn316 O334 1.953 . S
Zn317 O314 1.929 1_666 S
Zn317 O319 1.932 . S
Zn317 O326 1.977 1_556 S
Zn317 O327 1.910 1_565 S
O318 Zn315 1.933 . S
O318 C329 1.226 1_554 S
O319 Zn317 1.932 . S
O319 C329 1.307 1_655 S
O320 Zn313 1.922 . S
O320 C331 1.258 . S
O321 Zn315 1.941 1_545 S
O321 C331 1.283 . S
O322 Zn315 1.965 . S
O322 C330 1.340 . S
O323 Zn316 1.938 . S
O323 C330 1.225 1_645 S
O324 Zn316 1.906 1_565 S
O324 C332 1.304 . S
O325 Zn313 1.924 1_656 S
O325 C333 1.311 . S
O326 Zn317 1.977 1_554 S
O326 C332 1.272 . S
O327 Zn317 1.910 1_545 S
O327 C333 1.231 . S
C328 O312 1.225 1_655 S
C328 O334 1.298 . S
C329 O318 1.226 1_556 S
C329 O319 1.307 1_455 S
C330 O322 1.340 . S
C330 O323 1.225 1_465 S
C331 O320 1.258 . S
C331 O321 1.283 . S
C332 O324 1.304 . S
C332 O326 1.272 . S
C333 O325 1.311 . S
C333 O327 1.231 . S
O334 Zn316 1.953 . S
O334 C328 1.298 . S
O335 Zn336 1.953 . S
O335 C351 1.225 . S
Zn336 O335 1.953 . S
Zn336 O337 1.949 . S
Zn336 O343 1.919 . S
Zn336 O348 1.924 . S
O337 Zn336 1.949 . S
O337 Zn338 1.923 . S
O337 Zn339 1.950 . S
O337 Zn340 1.945 . S
Zn338 O337 1.923 . S
Zn338 O341 1.933 . S
Zn338 O344 1.941 . S
Zn338 O345 1.965 . S
Zn339 O337 1.950 . S
Zn339 O346 1.938 . S
Zn339 O347 1.906 . S
Zn339 O357 1.953 . S
Zn340 O337 1.945 . S
Zn340 O342 1.932 . S
Zn340 O349 1.977 . S
Zn340 O350 1.910 . S
O341 Zn338 1.933 . S
O341 C352 1.226 . S
O342 Zn340 1.932 . S
O342 C352 1.307 . S
O343 Zn336 1.919 . S
O343 C354 1.253 . S
O344 Zn338 1.941 . S
O344 C354 1.283 . S
O345 Zn338 1.965 . S
O345 C353 1.303 . S
O346 Zn339 1.938 . S
O346 C353 1.247 . S
O347 Zn339 1.906 . S
O347 C355 1.304 . S
O348 Zn336 1.924 . S
O348 C356 1.311 . S
O349 Zn340 1.977 . S
O349 C355 1.272 . S
O350 Zn340 1.910 . S
O350 C356 1.231 . S
C351 O335 1.225 . S
C351 O357 1.298 . S
C352 O341 1.226 . S
C352 O342 1.307 . S
C353 O345 1.303 . S
C353 O346 1.247 . S
C354 O343 1.253 . S
C354 O344 1.283 . S
C355 O347 1.304 . S
C355 O349 1.272 . S
C356 O348 1.311 . S
C356 O350 1.231 . S
O357 Zn339 1.953 . S
O357 C351 1.298 . S
O358 Zn359 1.953 . S
O358 C374 1.225 . S
Zn359 O358 1.953 . S
Zn359 O360 1.949 1_565 S
Zn359 O366 1.919 . S
Zn359 O371 1.924 . S
O360 Zn359 1.949 1_545 S
O360 Zn361 1.923 . S
O360 Zn362 1.950 . S
O360 Zn363 1.945 . S
Zn361 O360 1.923 . S
Zn361 O364 1.933 . S
Zn361 O367 1.941 . S
Zn361 O368 1.965 . S
Zn362 O360 1.950 . S
Zn362 O369 1.938 . S
Zn362 O370 1.906 . S
Zn362 O380 1.953 1_545 S
Zn363 O360 1.945 . S
Zn363 O365 1.932 . S
Zn363 O372 1.977 . S
Zn363 O373 1.910 . S
O364 Zn361 1.933 . S
O364 C375 1.226 . S
O365 Zn363 1.932 . S
O365 C375 1.307 . S
O366 Zn359 1.919 . S
O366 C377 1.253 1_565 S
O367 Zn361 1.941 . S
O367 C377 1.283 . S
O368 Zn361 1.965 . S
O368 C376 1.303 . S
O369 Zn362 1.938 . S
O369 C376 1.247 . S
O370 Zn362 1.906 . S
O370 C378 1.304 . S
O371 Zn359 1.924 . S
O371 C379 1.311 . S
O372 Zn363 1.977 . S
O372 C378 1.272 . S
O373 Zn363 1.910 . S
O373 C379 1.231 1_545 S
C374 O358 1.225 . S
C374 O380 1.298 . S
C375 O364 1.226 . S
C375 O365 1.307 . S
C376 O368 1.303 . S
C376 O369 1.247 . S
C377 O366 1.253 1_545 S
C377 O367 1.283 . S
C378 O370 1.304 . S
C378 O372 1.272 . S
C379 O371 1.311 . S
C379 O373 1.231 1_565 S
O380 Zn362 1.953 1_565 S
O380 C374 1.298 . S
O381 Zn382 1.953 . S
O381 C397 1.225 . S
Zn382 O381 1.953 . S
Zn382 O383 1.949 . S
Zn382 O389 1.919 . S
Zn382 O394 1.924 . S
O383 Zn382 1.949 . S
O383 Zn384 1.923 . S
O383 Zn385 1.950 . S
O383 Zn386 1.945 . S
Zn384 O383 1.923 . S
Zn384 O387 1.933 . S
Zn384 O390 1.941 . S
Zn384 O391 1.965 . S
Zn385 O383 1.950 . S
Zn385 O392 1.938 . S
Zn385 O393 1.906 . S
Zn385 O403 1.953 . S
Zn386 O383 1.945 . S
Zn386 O388 1.932 . S
Zn386 O395 1.977 . S
Zn386 O396 1.910 . S
O387 Zn384 1.933 . S
O387 C398 1.226 . S
O388 Zn386 1.932 . S
O388 C398 1.307 . S
O389 Zn382 1.919 . S
O389 C400 1.253 . S
O390 Zn384 1.941 . S
O390 C400 1.283 . S
O391 Zn384 1.965 . S
O391 C399 1.303 . S
O392 Zn385 1.938 . S
O392 C399 1.247 . S
O393 Zn385 1.906 . S
O393 C401 1.304 . S
O394 Zn382 1.924 . S
O394 C402 1.311 . S
O395 Zn386 1.977 . S
O395 C401 1.272 . S
O396 Zn386 1.910 . S
O396 C402 1.231 . S
C397 O381 1.225 . S
C397 O403 1.298 . S
C398 O387 1.226 . S
C398 O388 1.307 . S
C399 O391 1.303 . S
C399 O392 1.247 . S
C400 O389 1.253 . S
C400 O390 1.283 . S
C401 O393 1.304 . S
C401 O395 1.272 . S
C402 O394 1.311 . S
C402 O396 1.231 . S
O403 Zn385 1.953 . S
O403 C397 1.298 . S
O404 Zn405 1.953 1_455 S
O404 C420 1.225 . S
Zn405 O404 1.953 1_655 S
Zn405 O406 1.949 1_655 S
Zn405 O412 1.919 1_545 S
Zn405 O417 1.924 . S
O406 Zn405 1.949 1_455 S
O406 Zn407 1.923 1_545 S
O406 Zn408 1.950 . S
O406 Zn409 1.945 1_455 S
Zn407 O406 1.923 1_565 S
Zn407 O410 1.933 . S
Zn407 O413 1.941 . S
Zn407 O414 1.965 . S
Zn408 O406 1.950 . S
Zn408 O415 1.938 . S
Zn408 O416 1.906 . S
Zn408 O426 1.953 . S
Zn409 O406 1.945 1_655 S
Zn409 O411 1.932 . S
Zn409 O418 1.977 1_655 S
Zn409 O419 1.910 . S
O410 Zn407 1.933 . S
O410 C421 1.226 1_465 S
O411 Zn409 1.932 . S
O411 C421 1.307 . S
O412 Zn405 1.919 1_565 S
O412 C423 1.268 . S
O413 Zn407 1.941 . S
O413 C423 1.248 1_455 S
O414 Zn407 1.965 . S
O414 C422 1.303 1_565 S
O415 Zn408 1.938 . S
O415 C422 1.247 . S
O416 Zn408 1.906 . S
O416 C424 1.304 . S
O417 Zn405 1.924 . S
O417 C425 1.311 . S
O418 Zn409 1.977 1_455 S
O418 C424 1.272 . S
O419 Zn409 1.910 . S
O419 C425 1.231 . S
C420 O404 1.225 . S
C420 O426 1.298 . S
C421 O410 1.226 1_645 S
C421 O411 1.307 . S
C422 O414 1.303 1_545 S
C422 O415 1.247 . S
C423 O412 1.268 . S
C423 O413 1.248 1_655 S
C424 O416 1.304 . S
C424 O418 1.272 . S
C425 O417 1.311 . S
C425 O419 1.231 . S
O426 Zn408 1.953 . S
O426 C420 1.298 . S
O427 Zn428 1.953 . S
O427 C443 1.225 . S
Zn428 O427 1.953 . S
Zn428 O429 1.949 . S
Zn428 O435 1.919 . S
Zn428 O440 1.924 . S
O429 Zn428 1.949 . S
O429 Zn430 1.923 . S
O429 Zn431 1.950 . S
O429 Zn432 1.945 . S
Zn430 O429 1.923 . S
Zn430 O433 1.933 . S
Zn430 O436 1.941 . S
Zn430 O437 1.965 . S
Zn431 O429 1.950 . S
Zn431 O438 1.938 . S
Zn431 O439 1.906 . S
Zn431 O449 1.953 . S
Zn432 O429 1.945 . S
Zn432 O434 1.932 . S
Zn432 O441 1.977 . S
Zn432 O442 1.910 . S
O433 Zn430 1.933 . S
O433 C444 1.226 . S
O434 Zn432 1.932 . S
O434 C444 1.307 . S
O435 Zn428 1.919 . S
O435 C446 1.253 . S
O436 Zn430 1.941 . S
O436 C446 1.283 . S
O437 Zn430 1.965 . S
O437 C445 1.303 . S
O438 Zn431 1.938 . S
O438 C445 1.247 . S
O439 Zn431 1.906 . S
O439 C447 1.304 . S
O440 Zn428 1.924 . S
O440 C448 1.311 . S
O441 Zn432 1.977 . S
O441 C447 1.272 . S
O442 Zn432 1.910 . S
O442 C448 1.231 . S
C443 O427 1.225 . S
C443 O449 1.298 . S
C444 O433 1.226 . S
C444 O434 1.307 . S
C445 O437 1.303 . S
C445 O438 1.247 . S
C446 O435 1.253 . S
C446 O436 1.283 . S
C447 O439 1.304 . S
C447 O441 1.272 . S
C448 O440 1.311 . S
C448 O442 1.231 . S
O449 Zn431 1.953 . S
O449 C443 1.298 . S
O450 Zn451 1.953 . S
O450 C466 1.225 . S
Zn451 O450 1.953 . S
Zn451 O452 1.949 . S
Zn451 O458 1.919 1_545 S
Zn451 O463 1.924 . S
O452 Zn451 1.949 . S
O452 Zn453 1.923 1_545 S
O452 Zn454 1.950 . S
O452 Zn455 1.945 . S
Zn453 O452 1.923 1_565 S
Zn453 O456 1.933 1_554 S
Zn453 O459 1.941 . S
Zn453 O460 1.965 . S
Zn454 O452 1.950 . S
Zn454 O461 1.938 1_545 S
Zn454 O462 1.906 . S
Zn454 O472 1.953 . S
Zn455 O452 1.945 . S
Zn455 O457 1.932 1_554 S
Zn455 O464 1.977 . S
Zn455 O465 1.910 . S
O456 Zn453 1.933 1_556 S
O456 C467 1.226 . S
O457 Zn455 1.932 1_556 S
O457 C467 1.307 1_545 S
O458 Zn451 1.919 1_565 S
O458 C469 1.253 . S
O459 Zn453 1.941 . S
O459 C469 1.283 . S
O460 Zn453 1.965 . S
O460 C468 1.303 . S
O461 Zn454 1.938 1_565 S
O461 C468 1.247 . S
O462 Zn454 1.906 . S
O462 C470 1.304 . S
O463 Zn451 1.924 . S
O463 C471 1.311 . S
O464 Zn455 1.977 . S
O464 C470 1.272 . S
O465 Zn455 1.910 . S
O465 C471 1.231 . S
C466 O450 1.225 . S
C466 O472 1.298 . S
C467 O456 1.226 . S
C467 O457 1.307 1_565 S
C468 O460 1.303 . S
C468 O461 1.247 . S
C469 O458 1.253 . S
C469 O459 1.283 . S
C470 O462 1.304 . S
C470 O464 1.272 . S
C471 O463 1.311 . S
C471 O465 1.231 . S
O472 Zn454 1.953 . S
O472 C466 1.298 . S
O473 Zn474 1.953 . S
O473 C489 1.225 . S
Zn474 O473 1.953 . S
Zn474 O475 1.949 . S
Zn474 O481 1.919 . S
Zn474 O486 1.924 . S
O475 Zn474 1.949 . S
O475 Zn476 1.923 . S
O475 Zn477 1.950 . S
O475 Zn478 1.945 . S
Zn476 O475 1.923 . S
Zn476 O479 1.933 . S
Zn476 O482 1.941 . S
Zn476 O483 1.965 . S
Zn477 O475 1.950 . S
Zn477 O484 1.938 . S
Zn477 O485 1.906 . S
Zn477 O495 1.953 . S
Zn478 O475 1.945 . S
Zn478 O480 1.932 . S
Zn478 O487 1.977 . S
Zn478 O488 1.910 . S
O479 Zn476 1.933 . S
O479 C490 1.226 . S
O480 Zn478 1.932 . S
O480 C490 1.307 . S
O481 Zn474 1.919 . S
O481 C492 1.253 . S
O482 Zn476 1.941 . S
O482 C492 1.283 . S
O483 Zn476 1.965 . S
O483 C491 1.303 . S
O484 Zn477 1.938 . S
O484 C491 1.247 . S
O485 Zn477 1.906 . S
O485 C493 1.304 . S
O486 Zn474 1.924 . S
O486 C494 1.311 . S
O487 Zn478 1.977 . S
O487 C493 1.272 . S
O488 Zn478 1.910 . S
O488 C494 1.231 . S
C489 O473 1.225 . S
C489 O495 1.298 . S
C490 O479 1.226 . S
C490 O480 1.307 . S
C491 O483 1.303 . S
C491 O484 1.247 . S
C492 O481 1.253 . S
C492 O482 1.283 . S
C493 O485 1.304 . S
C493 O487 1.272 . S
C494 O486 1.311 . S
C494 O488 1.231 . S
O495 Zn477 1.953 . S
O495 C489 1.298 . S
O496 Zn497 1.953 . S
O496 C512 1.225 . S
Zn497 O496 1.953 . S
Zn497 O498 1.949 1_556 S
Zn497 O504 1.919 . S
Zn497 O509 1.924 . S
O498 Zn497 1.949 1_554 S
O498 Zn499 1.923 . S
O498 Zn500 1.950 . S
O498 Zn501 1.945 . S
Zn499 O498 1.923 . S
Zn499 O502 1.933 . S
Zn499 O505 1.941 . S
Zn499 O506 1.965 . S
Zn500 O498 1.950 . S
Zn500 O507 1.938 . S
Zn500 O508 1.906 . S
Zn500 O518 1.953 1_554 S
Zn501 O498 1.945 . S
Zn501 O503 1.932 . S
Zn501 O510 1.977 . S
Zn501 O511 1.910 . S
O502 Zn499 1.933 . S
O502 C513 1.226 . S
O503 Zn501 1.932 . S
O503 C513 1.307 . S
O504 Zn497 1.919 . S
O504 C515 1.253 1_556 S
O505 Zn499 1.941 . S
O505 C515 1.283 . S
O506 Zn499 1.965 . S
O506 C514 1.303 . S
O507 Zn500 1.938 . S
O507 C514 1.247 . S
O508 Zn500 1.906 . S
O508 C516 1.304 . S
O509 Zn497 1.924 . S
O509 C517 1.311 1_556 S
O510 Zn501 1.977 . S
O510 C516 1.272 . S
O511 Zn501 1.910 . S
O511 C517 1.231 . S
C512 O496 1.225 . S
C512 O518 1.298 . S
C513 O502 1.226 . S
C513 O503 1.307 . S
C514 O506 1.303 . S
C514 O507 1.247 . S
C515 O504 1.253 1_554 S
C515 O505 1.283 . S
C516 O508 1.304 . S
C516 O510 1.272 . S
C517 O509 1.311 1_554 S
C517 O511 1.231 . S
O518 Zn500 1.953 1_556 S
O518 C512 1.298 . S
O519 Zn520 1.953 . S
O519 C535 1.225 . S
Zn520 O519 1.953 . S
Zn520 O521 1.949 . S
Zn520 O527 1.919 . S
Zn520 O532 1.924 . S
O521 Zn520 1.949 . S
O521 Zn522 1.923 . S
O521 Zn523 1.950 . S
O521 Zn524 1.945 . S
Zn522 O521 1.923 . S
Zn522 O525 1.933 . S
Zn522 O528 1.941 . S
Zn522 O529 1.965 . S
Zn523 O521 1.950 . S
Zn523 O530 1.938 . S
Zn523 O531 1.906 . S
Zn523 O541 1.953 . S
Zn524 O521 1.945 . S
Zn524 O526 1.932 . S
Zn524 O533 1.977 . S
Zn524 O534 1.910 . S
O525 Zn522 1.933 . S
O525 C536 1.226 . S
O526 Zn524 1.932 . S
O526 C536 1.307 . S
O527 Zn520 1.919 . S
O527 C538 1.253 . S
O528 Zn522 1.941 . S
O528 C538 1.283 . S
O529 Zn522 1.965 . S
O529 C537 1.303 . S
O530 Zn523 1.938 . S
O530 C537 1.247 . S
O531 Zn523 1.906 . S
O531 C539 1.304 . S
O532 Zn520 1.924 . S
O532 C540 1.311 . S
O533 Zn524 1.977 . S
O533 C539 1.272 . S
O534 Zn524 1.910 . S
O534 C540 1.231 . S
C535 O519 1.225 . S
C535 O541 1.298 . S
C536 O525 1.226 . S
C536 O526 1.307 . S
C537 O529 1.303 . S
C537 O530 1.247 . S
C538 O527 1.253 . S
C538 O528 1.283 . S
C539 O531 1.304 . S
C539 O533 1.272 . S
C540 O532 1.311 . S
C540 O534 1.231 . S
O541 Zn523 1.953 . S
O541 C535 1.298 . S
O542 Zn543 1.953 . S
O542 C558 1.225 . S
Zn543 O542 1.953 . S
Zn543 O544 1.949 . S
Zn543 O550 1.919 . S
Zn543 O555 1.924 . S
O544 Zn543 1.949 . S
O544 Zn545 1.923 . S
O544 Zn546 1.950 1_455 S
O544 Zn547 1.945 1_455 S
Zn545 O544 1.923 . S
Zn545 O548 1.933 1_455 S
Zn545 O551 1.941 . S
Zn545 O552 1.965 1_455 S
Zn546 O544 1.950 1_655 S
Zn546 O553 1.938 . S
Zn546 O554 1.906 . S
Zn546 O564 1.953 1_655 S
Zn547 O544 1.945 1_655 S
Zn547 O549 1.932 . S
Zn547 O556 1.977 . S
Zn547 O557 1.910 1_655 S
O548 Zn545 1.933 1_655 S
O548 C559 1.226 . S
O549 Zn547 1.932 . S
O549 C559 1.307 . S
O550 Zn543 1.919 . S
O550 C561 1.253 . S
O551 Zn545 1.941 . S
O551 C561 1.283 . S
O552 Zn545 1.965 1_655 S
O552 C560 1.303 . S
O553 Zn546 1.938 . S
O553 C560 1.247 . S
O554 Zn546 1.906 . S
O554 C562 1.304 . S
O555 Zn543 1.924 . S
O555 C563 1.311 . S
O556 Zn547 1.977 . S
O556 C562 1.272 . S
O557 Zn547 1.910 1_455 S
O557 C563 1.231 . S
C558 O542 1.225 . S
C558 O564 1.298 . S
C559 O548 1.226 . S
C559 O549 1.307 . S
C560 O552 1.303 . S
C560 O553 1.247 . S
C561 O550 1.253 . S
C561 O551 1.283 . S
C562 O554 1.304 . S
C562 O556 1.272 . S
C563 O555 1.311 . S
C563 O557 1.231 . S
O564 Zn546 1.953 1_455 S
O564 C558 1.298 . S
O565 Zn566 1.953 . S
O565 C581 1.225 . S
Zn566 O565 1.953 . S
Zn566 O567 1.949 . S
Zn566 O573 1.919 . S
Zn566 O578 1.924 . S
O567 Zn566 1.949 . S
O567 Zn568 1.923 . S
O567 Zn569 1.950 . S
O567 Zn570 1.945 . S
Zn568 O567 1.923 . S
Zn568 O571 1.933 . S
Zn568 O574 1.941 . S
Zn568 O575 1.965 . S
Zn569 O567 1.950 . S
Zn569 O576 1.938 . S
Zn569 O577 1.906 . S
Zn569 O587 1.953 . S
Zn570 O567 1.945 . S
Zn570 O572 1.932 . S
Zn570 O579 1.977 . S
Zn570 O580 1.910 . S
O571 Zn568 1.933 . S
O571 C582 1.226 . S
O572 Zn570 1.932 . S
O572 C582 1.307 . S
O573 Zn566 1.919 . S
O573 C584 1.253 . S
O574 Zn568 1.941 . S
O574 C584 1.283 . S
O575 Zn568 1.965 . S
O575 C583 1.303 . S
O576 Zn569 1.938 . S
O576 C583 1.247 . S
O577 Zn569 1.906 . S
O577 C585 1.304 . S
O578 Zn566 1.924 . S
O578 C586 1.311 . S
O579 Zn570 1.977 . S
O579 C585 1.272 . S
O580 Zn570 1.910 . S
O580 C586 1.231 . S
C581 O565 1.225 . S
C581 O587 1.298 . S
C582 O571 1.226 . S
C582 O572 1.307 . S
C583 O575 1.303 . S
C583 O576 1.247 . S
C584 O573 1.253 . S
C584 O574 1.283 . S
C585 O577 1.304 . S
C585 O579 1.272 . S
C586 O578 1.311 . S
C586 O580 1.231 . S
O587 Zn569 1.953 . S
O587 C581 1.298 . S
O588 Zn589 1.953 . S
O588 C604 1.225 . S
Zn589 O588 1.953 . S
Zn589 O590 1.949 . S
Zn589 O596 1.919 . S
Zn589 O601 1.924 . S
O590 Zn589 1.949 . S
O590 Zn591 1.923 . S
O590 Zn592 1.950 . S
O590 Zn593 1.945 . S
Zn591 O590 1.923 . S
Zn591 O594 1.933 . S
Zn591 O597 1.941 . S
Zn591 O598 1.965 . S
Zn592 O590 1.950 . S
Zn592 O599 1.938 . S
Zn592 O600 1.906 . S
Zn592 O610 1.953 . S
Zn593 O590 1.945 . S
Zn593 O595 1.932 . S
Zn593 O602 1.977 . S
Zn593 O603 1.910 . S
O594 Zn591 1.933 . S
O594 C605 1.226 . S
O595 Zn593 1.932 . S
O595 C605 1.307 . S
O596 Zn589 1.919 . S
O596 C607 1.253 . S
O597 Zn591 1.941 . S
O597 C607 1.283 . S
O598 Zn591 1.965 . S
O598 C606 1.303 . S
O599 Zn592 1.938 . S
O599 C606 1.247 . S
O600 Zn592 1.906 . S
O600 C608 1.304 . S
O601 Zn589 1.924 . S
O601 C609 1.311 . S
O602 Zn593 1.977 . S
O602 C608 1.272 . S
O603 Zn593 1.910 . S
O603 C609 1.231 . S
C604 O588 1.225 . S
C604 O610 1.298 . S
C605 O594 1.226 . S
C605 O595 1.307 . S
C606 O598 1.303 . S
C606 O599 1.247 . S
C607 O596 1.253 . S
C607 O597 1.283 . S
C608 O600 1.304 . S
C608 O602 1.272 . S
C609 O601 1.311 . S
C609 O603 1.231 . S
O610 Zn592 1.953 . S
O610 C604 1.298 . S
O611 Zn612 1.953 . S
O611 C627 1.225 . S
Zn612 O611 1.953 . S
Zn612 O613 1.949 . S
Zn612 O619 1.919 . S
Zn612 O624 1.924 . S
O613 Zn612 1.949 . S
O613 Zn614 1.923 . S
O613 Zn615 1.950 . S
O613 Zn616 1.945 . S
Zn614 O613 1.923 . S
Zn614 O617 1.933 . S
Zn614 O620 1.941 . S
Zn614 O621 1.965 . S
Zn615 O613 1.950 . S
Zn615 O622 1.938 . S
Zn615 O623 1.906 . S
Zn615 O633 1.953 . S
Zn616 O613 1.945 . S
Zn616 O618 1.932 . S
Zn616 O625 1.977 . S
Zn616 O626 1.910 . S
O617 Zn614 1.933 . S
O617 C628 1.226 . S
O618 Zn616 1.932 . S
O618 C628 1.307 . S
O619 Zn612 1.919 . S
O619 C630 1.253 . S
O620 Zn614 1.941 . S
O620 C630 1.283 . S
O621 Zn614 1.965 . S
O621 C629 1.303 . S
O622 Zn615 1.938 . S
O622 C629 1.247 . S
O623 Zn615 1.906 . S
O623 C631 1.304 . S
O624 Zn612 1.924 . S
O624 C632 1.311 . S
O625 Zn616 1.977 . S
O625 C631 1.272 . S
O626 Zn616 1.910 . S
O626 C632 1.231 . S
C627 O611 1.225 . S
C627 O633 1.298 . S
C628 O617 1.226 . S
C628 O618 1.307 . S
C629 O621 1.303 . S
C629 O622 1.247 . S
C630 O619 1.253 . S
C630 O620 1.283 . S
C631 O623 1.304 . S
C631 O625 1.272 . S
C632 O624 1.311 . S
C632 O626 1.231 . S
O633 Zn615 1.953 . S
O633 C627 1.298 . S
O634 Zn635 1.953 . S
O634 C650 1.225 . S
Zn635 O634 1.953 . S
Zn635 O636 1.949 . S
Zn635 O642 1.919 . S
Zn635 O647 1.924 . S
O636 Zn635 1.949 . S
O636 Zn637 1.923 . S
O636 Zn638 1.950 . S
O636 Zn639 1.945 . S
Zn637 O636 1.923 . S
Zn637 O640 1.933 . S
Zn637 O643 1.941 . S
Zn637 O644 1.965 . S
Zn638 O636 1.950 . S
Zn638 O645 1.938 . S
Zn638 O646 1.906 . S
Zn638 O656 1.953 . S
Zn639 O636 1.945 . S
Zn639 O641 1.932 . S
Zn639 O648 1.977 . S
Zn639 O649 1.910 . S
O640 Zn637 1.933 . S
O640 C651 1.226 . S
O641 Zn639 1.932 . S
O641 C651 1.307 . S
O642 Zn635 1.919 . S
O642 C653 1.253 . S
O643 Zn637 1.941 . S
O643 C653 1.283 . S
O644 Zn637 1.965 . S
O644 C652 1.303 . S
O645 Zn638 1.938 . S
O645 C652 1.247 . S
O646 Zn638 1.906 . S
O646 C654 1.304 . S
O647 Zn635 1.924 . S
O647 C655 1.311 . S
O648 Zn639 1.977 . S
O648 C654 1.272 . S
O649 Zn639 1.910 . S
O649 C655 1.231 . S
C650 O634 1.225 . S
C650 O656 1.298 . S
C651 O640 1.226 . S
C651 O641 1.307 . S
C652 O644 1.303 . S
C652 O645 1.247 . S
C653 O642 1.253 . S
C653 O643 1.283 . S
C654 O646 1.304 . S
C654 O648 1.272 . S
C655 O647 1.311 . S
C655 O649 1.231 . S
O656 Zn638 1.953 . S
O656 C650 1.298 . S
O657 Zn658 1.953 . S
O657 C673 1.225 . S
Zn658 O657 1.953 . S
Zn658 O659 1.949 . S
Zn658 O665 1.925 1_455 S
Zn658 O670 1.924 1_554 S
O659 Zn658 1.949 . S
O659 Zn660 1.923 1_455 S
O659 Zn661 1.950 . S
O659 Zn662 1.945 1_554 S
Zn660 O659 1.923 1_655 S
Zn660 O663 1.933 . S
Zn660 O666 1.941 . S
Zn660 O667 1.965 . S
Zn661 O659 1.950 . S
Zn661 O668 1.938 . S
Zn661 O669 1.906 . S
Zn661 O679 1.953 . S
Zn662 O659 1.945 1_556 S
Zn662 O664 1.932 . S
Zn662 O671 1.977 1_556 S
Zn662 O672 1.910 . S
O663 Zn660 1.933 . S
O663 C674 1.226 1_654 S
O664 Zn662 1.932 . S
O664 C674 1.307 . S
O665 Zn658 1.925 1_655 S
O665 C676 1.264 . S
O666 Zn660 1.941 . S
O666 C676 1.283 . S
O667 Zn660 1.965 . S
O667 C675 1.303 1_655 S
O668 Zn661 1.938 . S
O668 C675 1.247 . S
O669 Zn661 1.906 . S
O669 C677 1.304 . S
O670 Zn658 1.924 1_556 S
O670 C678 1.311 . S
O671 Zn662 1.977 1_554 S
O671 C677 1.272 . S
O672 Zn662 1.910 . S
O672 C678 1.231 . S
C673 O657 1.225 . S
C673 O679 1.298 . S
C674 O663 1.226 1_456 S
C674 O664 1.307 . S
C675 O667 1.303 1_455 S
C675 O668 1.247 . S
C676 O665 1.264 . S
C676 O666 1.283 . S
C677 O669 1.304 . S
C677 O671 1.272 . S
C678 O670 1.311 . S
C678 O672 1.231 . S
O679 Zn661 1.953 . S
O679 C673 1.298 . S
C680 C681 1.349 . S
C680 C682 1.327 . S
C680 H705 0.950 . S
C681 C680 1.349 . S
C681 C697 1.349 1_455 S
C682 C680 1.327 . S
C682 C701 1.394 1_455 S
C682 H706 0.950 . S
C683 C700 1.574 . S
C683 C702 1.368 . S
C683 H707 0.949 . S
H684 C688 0.949 . S
C685 C686 1.349 . S
C685 C687 1.327 . S
C685 H708 0.950 . S
C686 C685 1.349 . S
C686 C698 1.349 1_655 S
C687 C685 1.327 . S
C687 C703 1.429 . S
C687 H709 0.950 . S
C688 H684 0.949 . S
C688 C696 1.574 . S
C688 C704 1.368 1_455 S
H689 C697 0.950 . S
H690 C695 0.950 . S
H691 C696 0.949 . S
H692 C698 0.950 . S
H693 C699 0.950 . S
H694 C700 0.949 . S
C695 H690 0.950 . S
C695 C697 1.327 . S
C695 C701 1.459 . S
C696 C688 1.574 . S
C696 H691 0.949 . S
C696 C702 1.368 1_455 S
C697 C681 1.349 1_655 S
C697 H689 0.950 . S
C697 C695 1.327 . S
C698 C686 1.349 1_455 S
C698 H692 0.950 . S
C698 C699 1.327 . S
C699 H693 0.950 . S
C699 C698 1.327 . S
C699 C703 1.429 1_455 S
C700 C683 1.574 . S
C700 H694 0.949 . S
C700 C704 1.368 . S
C701 C682 1.394 1_655 S
C701 C695 1.459 . S
C701 C702 1.528 . S
C702 C683 1.368 . S
C702 C696 1.368 1_655 S
C702 C701 1.528 . S
C703 C687 1.429 . S
C703 C699 1.429 1_655 S
C703 C704 1.523 . S
C704 C688 1.368 1_655 S
C704 C700 1.368 . S
C704 C703 1.523 . S
H705 C680 0.950 . S
H706 C682 0.950 . S
H707 C683 0.949 . S
H708 C685 0.950 . S
H709 C687 0.950 . S
C710 C711 1.349 . S
C710 C712 1.327 . S
C710 H735 0.950 . S
C711 C710 1.349 . S
C711 C727 1.349 . S
C712 C710 1.327 . S
C712 C731 1.429 . S
C712 H736 0.950 . S
C713 C730 1.574 . S
C713 C732 1.368 . S
C713 H737 0.949 . S
H714 C718 0.949 . S
C715 C716 1.349 . S
C715 C717 1.327 . S
C715 H738 0.950 . S
C716 C715 1.349 . S
C716 C728 1.349 . S
C717 C715 1.327 . S
C717 C733 1.429 . S
C717 H739 0.950 . S
C718 H714 0.949 . S
C718 C726 1.574 . S
C718 C734 1.368 . S
H719 C727 0.950 . S
H720 C725 0.950 . S
H721 C726 0.949 . S
H722 C728 0.950 . S
H723 C729 0.950 . S
H724 C730 0.949 . S
C725 H720 0.950 . S
C725 C727 1.327 . S
C725 C731 1.429 . S
C726 C718 1.574 . S
C726 H721 0.949 . S
C726 C732 1.368 . S
C727 C711 1.349 . S
C727 H719 0.950 . S
C727 C725 1.327 . S
C728 C716 1.349 . S
C728 H722 0.950 . S
C728 C729 1.327 . S
C729 H723 0.950 . S
C729 C728 1.327 . S
C729 C733 1.429 . S
C730 C713 1.574 . S
C730 H724 0.949 . S
C730 C734 1.368 . S
C731 C712 1.429 . S
C731 C725 1.429 . S
C731 C732 1.523 . S
C732 C713 1.368 . S
C732 C726 1.368 . S
C732 C731 1.523 . S
C733 C717 1.429 . S
C733 C729 1.429 . S
C733 C734 1.523 . S
C734 C718 1.368 . S
C734 C730 1.368 . S
C734 C733 1.523 . S
H735 C710 0.950 . S
H736 C712 0.950 . S
H737 C713 0.949 . S
H738 C715 0.950 . S
H739 C717 0.950 . S
C740 C741 1.349 . S
C740 C742 1.327 . S
C740 H765 0.950 . S
C741 C740 1.349 . S
C741 C757 1.349 . S
C742 C740 1.327 . S
C742 C761 1.429 . S
C742 H766 0.950 . S
C743 C760 1.574 . S
C743 C762 1.368 . S
C743 H767 0.949 . S
H744 C748 0.949 . S
C745 C746 1.349 . S
C745 C747 1.327 . S
C745 H768 0.950 . S
C746 C745 1.349 . S
C746 C758 1.349 . S
C747 C745 1.327 . S
C747 C763 1.429 . S
C747 H769 0.950 . S
C748 H744 0.949 . S
C748 C756 1.574 . S
C748 C764 1.368 . S
H749 C757 0.950 . S
H750 C755 0.950 . S
H751 C756 0.949 . S
H752 C758 0.950 . S
H753 C759 0.950 . S
H754 C760 0.949 . S
C755 H750 0.950 . S
C755 C757 1.327 . S
C755 C761 1.429 . S
C756 C748 1.574 . S
C756 H751 0.949 . S
C756 C762 1.368 . S
C757 C741 1.349 . S
C757 H749 0.950 . S
C757 C755 1.327 . S
C758 C746 1.349 . S
C758 H752 0.950 . S
C758 C759 1.327 . S
C759 H753 0.950 . S
C759 C758 1.327 . S
C759 C763 1.429 . S
C760 C743 1.574 . S
C760 H754 0.949 . S
C760 C764 1.368 . S
C761 C742 1.429 . S
C761 C755 1.429 . S
C761 C762 1.523 . S
C762 C743 1.368 . S
C762 C756 1.368 . S
C762 C761 1.523 . S
C763 C747 1.429 . S
C763 C759 1.429 . S
C763 C764 1.523 . S
C764 C748 1.368 . S
C764 C760 1.368 . S
C764 C763 1.523 . S
H765 C740 0.950 . S
H766 C742 0.950 . S
H767 C743 0.949 . S
H768 C745 0.950 . S
H769 C747 0.950 . S
C770 C771 1.349 . S
C770 C772 1.327 . S
C770 H795 0.950 . S
C771 C770 1.349 . S
C771 C787 1.349 . S
C772 C770 1.327 . S
C772 C791 1.429 . S
C772 H796 0.950 . S
C773 C790 1.574 . S
C773 C792 1.368 . S
C773 H797 0.949 . S
H774 C778 0.949 . S
C775 C776 1.349 . S
C775 C777 1.327 . S
C775 H798 0.950 . S
C776 C775 1.349 . S
C776 C788 1.349 . S
C777 C775 1.327 . S
C777 C793 1.429 . S
C777 H799 0.950 . S
C778 H774 0.949 . S
C778 C786 1.574 . S
C778 C794 1.368 . S
H779 C787 0.950 . S
H780 C785 0.950 . S
H781 C786 0.949 . S
H782 C788 0.950 . S
H783 C789 0.950 . S
H784 C790 0.949 . S
C785 H780 0.950 . S
C785 C787 1.327 . S
C785 C791 1.429 . S
C786 C778 1.574 . S
C786 H781 0.949 . S
C786 C792 1.368 . S
C787 C771 1.349 . S
C787 H779 0.950 . S
C787 C785 1.327 . S
C788 C776 1.349 . S
C788 H782 0.950 . S
C788 C789 1.327 . S
C789 H783 0.950 . S
C789 C788 1.327 . S
C789 C793 1.429 . S
C790 C773 1.574 . S
C790 H784 0.949 . S
C790 C794 1.368 . S
C791 C772 1.429 . S
C791 C785 1.429 . S
C791 C792 1.523 . S
C792 C773 1.368 . S
C792 C786 1.368 . S
C792 C791 1.523 . S
C793 C777 1.429 . S
C793 C789 1.429 . S
C793 C794 1.523 . S
C794 C778 1.368 . S
C794 C790 1.368 . S
C794 C793 1.523 . S
H795 C770 0.950 . S
H796 C772 0.950 . S
H797 C773 0.949 . S
H798 C775 0.950 . S
H799 C777 0.950 . S
C800 C801 1.349 1_655 S
C800 C802 1.327 . S
C800 H825 0.950 . S
C801 C800 1.349 1_455 S
C801 C817 1.349 . S
C802 C800 1.327 . S
C802 C821 1.429 1_655 S
C802 H826 0.950 . S
C803 C820 1.574 . S
C803 C822 1.385 . S
C803 H827 0.949 . S
H804 C808 0.949 . S
C805 C806 1.349 1_455 S
C805 C807 1.327 . S
C805 H828 0.950 . S
C806 C805 1.349 1_655 S
C806 C818 1.349 . S
C807 C805 1.327 . S
C807 C823 1.429 1_455 S
C807 H829 0.950 . S
C808 H804 0.949 . S
C808 C816 1.574 . S
C808 C824 1.368 . S
H809 C817 0.950 . S
H810 C815 0.950 . S
H811 C816 0.949 . S
H812 C818 0.950 . S
H813 C819 0.950 . S
H814 C820 0.949 . S
C815 H810 0.950 . S
C815 C817 1.327 . S
C815 C821 1.429 . S
C816 C808 1.574 . S
C816 H811 0.949 . S
C816 C822 1.350 1_655 S
C817 C801 1.349 . S
C817 H809 0.950 . S
C817 C815 1.327 . S
C818 C806 1.349 . S
C818 H812 0.950 . S
C818 C819 1.327 . S
C819 H813 0.950 . S
C819 C818 1.327 . S
C819 C823 1.429 . S
C820 C803 1.574 . S
C820 H814 0.949 . S
C820 C824 1.368 1_455 S
C821 C802 1.429 1_455 S
C821 C815 1.429 . S
C821 C822 1.525 . S
C822 C803 1.385 . S
C822 C816 1.350 1_455 S
C822 C821 1.525 . S
C823 C807 1.429 1_655 S
C823 C819 1.429 . S
C823 C824 1.523 . S
C824 C808 1.368 . S
C824 C820 1.368 1_655 S
C824 C823 1.523 . S
H825 C800 0.950 . S
H826 C802 0.950 . S
H827 C803 0.949 . S
H828 C805 0.950 . S
H829 C807 0.950 . S
C830 C831 1.349 . S
C830 C832 1.327 . S
C830 H855 0.950 . S
C831 C830 1.349 . S
C831 C847 1.349 . S
C832 C830 1.327 . S
C832 C851 1.429 . S
C832 H856 0.950 . S
C833 C850 1.574 . S
C833 C852 1.368 . S
C833 H857 0.949 . S
H834 C838 0.949 . S
C835 C836 1.349 . S
C835 C837 1.327 . S
C835 H858 0.950 . S
C836 C835 1.349 . S
C836 C848 1.349 . S
C837 C835 1.327 . S
C837 C853 1.429 . S
C837 H859 0.950 . S
C838 H834 0.949 . S
C838 C846 1.574 . S
C838 C854 1.368 . S
H839 C847 0.950 . S
H840 C845 0.950 . S
H841 C846 0.949 . S
H842 C848 0.950 . S
H843 C849 0.950 . S
H844 C850 0.949 . S
C845 H840 0.950 . S
C845 C847 1.327 . S
C845 C851 1.429 . S
C846 C838 1.574 . S
C846 H841 0.949 . S
C846 C852 1.368 . S
C847 C831 1.349 . S
C847 H839 0.950 . S
C847 C845 1.327 . S
C848 C836 1.349 . S
C848 H842 0.950 . S
C848 C849 1.327 . S
C849 H843 0.950 . S
C849 C848 1.327 . S
C849 C853 1.429 . S
C850 C833 1.574 . S
C850 H844 0.949 . S
C850 C854 1.368 . S
C851 C832 1.429 . S
C851 C845 1.429 . S
C851 C852 1.523 . S
C852 C833 1.368 . S
C852 C846 1.368 . S
C852 C851 1.523 . S
C853 C837 1.429 . S
C853 C849 1.429 . S
C853 C854 1.523 . S
C854 C838 1.368 . S
C854 C850 1.368 . S
C854 C853 1.523 . S
H855 C830 0.950 . S
H856 C832 0.950 . S
H857 C833 0.949 . S
H858 C835 0.950 . S
H859 C837 0.950 . S
C860 C861 1.349 . S
C860 C862 1.327 . S
C860 H885 0.950 . S
C861 C860 1.349 . S
C861 C877 1.349 . S
C862 C860 1.327 . S
C862 C881 1.429 . S
C862 H886 0.950 . S
C863 C880 1.574 . S
C863 C882 1.368 . S
C863 H887 0.949 . S
H864 C868 0.949 . S
C865 C866 1.349 1_556 S
C865 C867 1.327 . S
C865 H888 0.950 . S
C866 C865 1.349 1_554 S
C866 C878 1.349 . S
C867 C865 1.327 . S
C867 C883 1.429 . S
C867 H889 0.950 . S
C868 H864 0.949 . S
C868 C876 1.574 . S
C868 C884 1.368 . S
H869 C877 0.950 . S
H870 C875 0.950 . S
H871 C876 0.949 . S
H872 C878 0.950 . S
H873 C879 0.958 . S
H874 C880 0.949 . S
C875 H870 0.950 . S
C875 C877 1.327 . S
C875 C881 1.429 . S
C876 C868 1.574 . S
C876 H871 0.949 . S
C876 C882 1.368 . S
C877 C861 1.349 . S
C877 H869 0.950 . S
C877 C875 1.327 . S
C878 C866 1.349 . S
C878 H872 0.950 . S
C878 C879 1.340 . S
C879 H873 0.958 . S
C879 C878 1.340 . S
C879 C883 1.408 1_554 S
C880 C863 1.574 . S
C880 H874 0.949 . S
C880 C884 1.368 . S
C881 C862 1.429 . S
C881 C875 1.429 . S
C881 C882 1.523 . S
C882 C863 1.368 . S
C882 C876 1.368 . S
C882 C881 1.523 . S
C883 C867 1.429 . S
C883 C879 1.408 1_556 S
C883 C884 1.523 . S
C884 C868 1.368 . S
C884 C880 1.368 . S
C884 C883 1.523 . S
H885 C860 0.950 . S
H886 C862 0.950 . S
H887 C863 0.949 . S
H888 C865 0.950 . S
H889 C867 0.950 . S
C890 C891 1.349 . S
C890 C892 1.327 . S
C890 H915 0.950 . S
C891 C890 1.349 . S
C891 C907 1.349 . S
C892 C890 1.327 . S
C892 C911 1.429 . S
C892 H916 0.950 . S
C893 C910 1.574 . S
C893 C912 1.368 . S
C893 H917 0.949 . S
H894 C898 0.949 . S
C895 C896 1.349 . S
C895 C897 1.327 . S
C895 H918 0.950 . S
C896 C895 1.349 . S
C896 C908 1.349 . S
C897 C895 1.327 . S
C897 C913 1.429 . S
C897 H919 0.950 . S
C898 H894 0.949 . S
C898 C906 1.574 . S
C898 C914 1.368 . S
H899 C907 0.950 . S
H900 C905 0.950 . S
H901 C906 0.949 . S
H902 C908 0.950 . S
H903 C909 0.950 . S
H904 C910 0.949 . S
C905 H900 0.950 . S
C905 C907 1.327 . S
C905 C911 1.429 . S
C906 C898 1.574 . S
C906 H901 0.949 . S
C906 C912 1.368 . S
C907 C891 1.349 . S
C907 H899 0.950 . S
C907 C905 1.327 . S
C908 C896 1.349 . S
C908 H902 0.950 . S
C908 C909 1.327 . S
C909 H903 0.950 . S
C909 C908 1.327 . S
C909 C913 1.429 . S
C910 C893 1.574 . S
C910 H904 0.949 . S
C910 C914 1.368 . S
C911 C892 1.429 . S
C911 C905 1.429 . S
C911 C912 1.523 . S
C912 C893 1.368 . S
C912 C906 1.368 . S
C912 C911 1.523 . S
C913 C897 1.429 . S
C913 C909 1.429 . S
C913 C914 1.523 . S
C914 C898 1.368 . S
C914 C910 1.368 . S
C914 C913 1.523 . S
H915 C890 0.950 . S
H916 C892 0.950 . S
H917 C893 0.949 . S
H918 C895 0.950 . S
H919 C897 0.950 . S
C920 C921 1.349 . S
C920 C922 1.327 . S
C920 H945 0.950 . S
C921 C920 1.349 . S
C921 C937 1.349 1_545 S
C922 C920 1.327 . S
C922 C941 1.429 . S
C922 H946 0.950 . S
C923 C940 1.574 . S
C923 C942 1.368 1_565 S
C923 H947 0.949 . S
H924 C928 0.949 . S
C925 C926 1.349 1_565 S
C925 C927 1.327 . S
C925 H948 0.950 . S
C926 C925 1.349 1_545 S
C926 C938 1.349 . S
C927 C925 1.327 . S
C927 C943 1.429 1_565 S
C927 H949 0.950 . S
C928 H924 0.949 . S
C928 C936 1.574 . S
C928 C944 1.368 . S
H929 C937 0.950 . S
H930 C935 0.950 . S
H931 C936 0.949 . S
H932 C938 0.950 . S
H933 C939 0.950 . S
H934 C940 0.949 . S
C935 H930 0.950 . S
C935 C937 1.327 . S
C935 C941 1.429 1_565 S
C936 C928 1.574 . S
C936 H931 0.949 . S
C936 C942 1.368 . S
C937 C921 1.349 1_565 S
C937 H929 0.950 . S
C937 C935 1.327 . S
C938 C926 1.349 . S
C938 H932 0.950 . S
C938 C939 1.327 . S
C939 H933 0.950 . S
C939 C938 1.327 . S
C939 C943 1.429 . S
C940 C923 1.574 . S
C940 H934 0.949 . S
C940 C944 1.368 1_565 S
C941 C922 1.429 . S
C941 C935 1.429 1_545 S
C941 C942 1.523 . S
C942 C923 1.368 1_545 S
C942 C936 1.368 . S
C942 C941 1.523 . S
C943 C927 1.429 1_545 S
C943 C939 1.429 . S
C943 C944 1.523 . S
C944 C928 1.368 . S
C944 C940 1.368 1_545 S
C944 C943 1.523 . S
H945 C920 0.950 . S
H946 C922 0.950 . S
H947 C923 0.949 . S
H948 C925 0.950 . S
H949 C927 0.950 . S
C950 C951 1.349 . S
C950 C952 1.327 . S
C950 H975 0.950 . S
C951 C950 1.349 . S
C951 C967 1.349 . S
C952 C950 1.327 . S
C952 C971 1.429 . S
C952 H976 0.950 . S
C953 C970 1.574 . S
C953 C972 1.368 . S
C953 H977 0.949 . S
H954 C958 0.949 . S
C955 C956 1.349 . S
C955 C957 1.327 . S
C955 H978 0.950 . S
C956 C955 1.349 . S
C956 C968 1.349 . S
C957 C955 1.327 . S
C957 C973 1.429 . S
C957 H979 0.950 . S
C958 H954 0.949 . S
C958 C966 1.574 . S
C958 C974 1.368 . S
H959 C967 0.950 . S
H960 C965 0.950 . S
H961 C966 0.949 . S
H962 C968 0.950 . S
H963 C969 0.950 . S
H964 C970 0.949 . S
C965 H960 0.950 . S
C965 C967 1.327 . S
C965 C971 1.429 . S
C966 C958 1.574 . S
C966 H961 0.949 . S
C966 C972 1.368 . S
C967 C951 1.349 . S
C967 H959 0.950 . S
C967 C965 1.327 . S
C968 C956 1.349 . S
C968 H962 0.950 . S
C968 C969 1.327 . S
C969 H963 0.950 . S
C969 C968 1.327 . S
C969 C973 1.429 . S
C970 C953 1.574 . S
C970 H964 0.949 . S
C970 C974 1.368 . S
C971 C952 1.429 . S
C971 C965 1.429 . S
C971 C972 1.523 . S
C972 C953 1.368 . S
C972 C966 1.368 . S
C972 C971 1.523 . S
C973 C957 1.429 . S
C973 C969 1.429 . S
C973 C974 1.523 . S
C974 C958 1.368 . S
C974 C970 1.368 . S
C974 C973 1.523 . S
H975 C950 0.950 . S
H976 C952 0.950 . S
H977 C953 0.949 . S
H978 C955 0.950 . S
H979 C957 0.950 . S
C980 C981 1.349 1_565 S
C980 C982 1.327 . S
C980 H1005 0.950 . S
C981 C980 1.349 1_545 S
C981 C997 1.349 . S
C982 C980 1.327 . S
C982 C1001 1.429 1_565 S
C982 H1006 0.950 . S
C983 C1000 1.574 . S
C983 C1002 1.368 . S
C983 H1007 0.949 . S
H984 C988 0.954 . S
C985 C986 1.349 . S
C985 C987 1.327 . S
C985 H1008 0.950 . S
C986 C985 1.349 . S
C986 C998 1.349 . S
C987 C985 1.327 . S
C987 C1003 1.429 . S
C987 H1009 0.950 . S
C988 H984 0.954 . S
C988 C996 1.574 . S
C988 C1004 1.362 1_565 S
H989 C997 0.950 . S
H990 C995 0.950 . S
H991 C996 0.949 . S
H992 C998 0.950 1_565 S
H993 C999 0.950 1_565 S
H994 C1000 0.949 . S
C995 H990 0.950 . S
C995 C997 1.327 . S
C995 C1001 1.429 . S
C996 C988 1.574 . S
C996 H991 0.949 . S
C996 C1002 1.368 1_565 S
C997 C981 1.349 . S
C997 H989 0.950 . S
C997 C995 1.327 . S
C998 C986 1.349 . S
C998 H992 0.950 1_545 S
C998 C999 1.327 . S
C999 H993 0.950 1_545 S
C999 C998 1.327 . S
C999 C1003 1.429 . S
C1000 C983 1.574 . S
C1000 H994 0.949 . S
C1000 C1004 1.368 . S
C1001 C982 1.429 1_545 S
C1001 C995 1.429 . S
C1001 C1002 1.523 . S
C1002 C983 1.368 . S
C1002 C996 1.368 1_545 S
C1002 C1001 1.523 . S
C1003 C987 1.429 . S
C1003 C999 1.429 . S
C1003 C1004 1.523 . S
C1004 C988 1.362 1_545 S
C1004 C1000 1.368 . S
C1004 C1003 1.523 . S
H1005 C980 0.950 . S
H1006 C982 0.950 . S
H1007 C983 0.949 . S
H1008 C985 0.950 . S
H1009 C987 0.950 . S
C1010 C1011 1.349 . S
C1010 C1012 1.327 . S
C1010 H1035 0.950 . S
C1011 C1010 1.349 . S
C1011 C1027 1.349 . S
C1012 C1010 1.327 . S
C1012 C1031 1.429 . S
C1012 H1036 0.950 . S
C1013 C1030 1.574 . S
C1013 C1032 1.368 . S
C1013 H1037 0.949 . S
H1014 C1018 0.949 . S
C1015 C1016 1.349 . S
C1015 C1017 1.327 . S
C1015 H1038 0.950 . S
C1016 C1015 1.349 . S
C1016 C1028 1.349 . S
C1017 C1015 1.327 . S
C1017 C1033 1.429 . S
C1017 H1039 0.950 . S
C1018 H1014 0.949 . S
C1018 C1026 1.574 . S
C1018 C1034 1.368 . S
H1019 C1027 0.950 . S
H1020 C1025 0.950 . S
H1021 C1026 0.949 . S
H1022 C1028 0.950 . S
H1023 C1029 0.950 . S
H1024 C1030 0.949 . S
C1025 H1020 0.950 . S
C1025 C1027 1.327 . S
C1025 C1031 1.429 . S
C1026 C1018 1.574 . S
C1026 H1021 0.949 . S
C1026 C1032 1.368 . S
C1027 C1011 1.349 . S
C1027 H1019 0.950 . S
C1027 C1025 1.327 . S
C1028 C1016 1.349 . S
C1028 H1022 0.950 . S
C1028 C1029 1.327 . S
C1029 H1023 0.950 . S
C1029 C1028 1.327 . S
C1029 C1033 1.429 . S
C1030 C1013 1.574 . S
C1030 H1024 0.949 . S
C1030 C1034 1.368 . S
C1031 C1012 1.429 . S
C1031 C1025 1.429 . S
C1031 C1032 1.523 . S
C1032 C1013 1.368 . S
C1032 C1026 1.368 . S
C1032 C1031 1.523 . S
C1033 C1017 1.429 . S
C1033 C1029 1.429 . S
C1033 C1034 1.523 . S
C1034 C1018 1.368 . S
C1034 C1030 1.368 . S
C1034 C1033 1.523 . S
H1035 C1010 0.950 . S
H1036 C1012 0.950 . S
H1037 C1013 0.949 . S
H1038 C1015 0.950 . S
H1039 C1017 0.950 . S
C1040 C1041 1.349 . S
C1040 C1042 1.327 . S
C1040 H1065 0.950 . S
C1041 C1040 1.349 . S
C1041 C1057 1.349 . S
C1042 C1040 1.327 . S
C1042 C1061 1.429 . S
C1042 H1066 0.950 . S
C1043 C1060 1.574 . S
C1043 C1062 1.368 . S
C1043 H1067 0.949 . S
H1044 C1048 0.949 . S
C1045 C1046 1.349 . S
C1045 C1047 1.327 . S
C1045 H1068 0.950 . S
C1046 C1045 1.349 . S
C1046 C1058 1.349 . S
C1047 C1045 1.327 . S
C1047 C1063 1.429 . S
C1047 H1069 0.950 . S
C1048 H1044 0.949 . S
C1048 C1056 1.574 . S
C1048 C1064 1.368 . S
H1049 C1057 0.950 . S
H1050 C1055 0.950 . S
H1051 C1056 0.949 . S
H1052 C1058 0.950 . S
H1053 C1059 0.950 . S
H1054 C1060 0.949 . S
C1055 H1050 0.950 . S
C1055 C1057 1.327 . S
C1055 C1061 1.429 . S
C1056 C1048 1.574 . S
C1056 H1051 0.949 . S
C1056 C1062 1.368 . S
C1057 C1041 1.349 . S
C1057 H1049 0.950 . S
C1057 C1055 1.327 . S
C1058 C1046 1.349 . S
C1058 H1052 0.950 . S
C1058 C1059 1.327 . S
C1059 H1053 0.950 . S
C1059 C1058 1.327 . S
C1059 C1063 1.429 . S
C1060 C1043 1.574 . S
C1060 H1054 0.949 . S
C1060 C1064 1.368 . S
C1061 C1042 1.429 . S
C1061 C1055 1.429 . S
C1061 C1062 1.523 . S
C1062 C1043 1.368 . S
C1062 C1056 1.368 . S
C1062 C1061 1.523 . S
C1063 C1047 1.429 . S
C1063 C1059 1.429 . S
C1063 C1064 1.523 . S
C1064 C1048 1.368 . S
C1064 C1060 1.368 . S
C1064 C1063 1.523 . S
H1065 C1040 0.950 . S
H1066 C1042 0.950 . S
H1067 C1043 0.949 . S
H1068 C1045 0.950 . S
H1069 C1047 0.950 . S
C1070 C1071 1.349 . S
C1070 C1072 1.327 . S
C1070 H1095 0.950 . S
C1071 C1070 1.349 . S
C1071 C1087 1.349 . S
C1072 C1070 1.327 . S
C1072 C1091 1.429 . S
C1072 H1096 0.950 . S
C1073 C1090 1.574 . S
C1073 C1092 1.368 . S
C1073 H1097 0.949 . S
H1074 C1078 0.949 . S
C1075 C1076 1.349 . S
C1075 C1077 1.327 . S
C1075 H1098 0.950 . S
C1076 C1075 1.349 . S
C1076 C1088 1.349 . S
C1077 C1075 1.327 . S
C1077 C1093 1.429 . S
C1077 H1099 0.950 . S
C1078 H1074 0.949 . S
C1078 C1086 1.574 . S
C1078 C1094 1.368 . S
H1079 C1087 0.950 . S
H1080 C1085 0.950 . S
H1081 C1086 0.949 . S
H1082 C1088 0.950 . S
H1083 C1089 0.950 . S
H1084 C1090 0.949 . S
C1085 H1080 0.950 . S
C1085 C1087 1.327 . S
C1085 C1091 1.429 . S
C1086 C1078 1.574 . S
C1086 H1081 0.949 . S
C1086 C1092 1.368 . S
C1087 C1071 1.349 . S
C1087 H1079 0.950 . S
C1087 C1085 1.327 . S
C1088 C1076 1.349 . S
C1088 H1082 0.950 . S
C1088 C1089 1.327 . S
C1089 H1083 0.950 . S
C1089 C1088 1.327 . S
C1089 C1093 1.429 . S
C1090 C1073 1.574 . S
C1090 H1084 0.949 . S
C1090 C1094 1.368 . S
C1091 C1072 1.429 . S
C1091 C1085 1.429 . S
C1091 C1092 1.523 . S
C1092 C1073 1.368 . S
C1092 C1086 1.368 . S
C1092 C1091 1.523 . S
C1093 C1077 1.429 . S
C1093 C1089 1.429 . S
C1093 C1094 1.523 . S
C1094 C1078 1.368 . S
C1094 C1090 1.368 . S
C1094 C1093 1.523 . S
H1095 C1070 0.950 . S
H1096 C1072 0.950 . S
H1097 C1073 0.949 . S
H1098 C1075 0.950 . S
H1099 C1077 0.950 . S
C1100 C1101 1.349 1_545 S
C1100 C1102 1.327 . S
C1100 H1125 0.950 . S
C1101 C1100 1.349 1_565 S
C1101 C1117 1.349 . S
C1102 C1100 1.327 . S
C1102 C1121 1.429 1_545 S
C1102 H1126 0.950 . S
C1103 C1120 1.574 . S
C1103 C1122 1.368 . S
C1103 H1127 0.949 . S
H1104 C1108 0.949 . S
C1105 C1106 1.349 . S
C1105 C1107 1.327 . S
C1105 H1128 0.950 . S
C1106 C1105 1.349 . S
C1106 C1118 1.349 1_565 S
C1107 C1105 1.327 . S
C1107 C1123 1.429 . S
C1107 H1129 0.950 . S
C1108 H1104 0.949 . S
C1108 C1116 1.574 . S
C1108 C1124 1.368 1_545 S
H1109 C1117 0.950 . S
H1110 C1115 0.950 . S
H1111 C1116 0.949 . S
H1112 C1118 0.950 . S
H1113 C1119 0.950 . S
H1114 C1120 0.949 . S
C1115 H1110 0.950 . S
C1115 C1117 1.327 . S
C1115 C1121 1.429 . S
C1116 C1108 1.574 . S
C1116 H1111 0.949 . S
C1116 C1122 1.368 1_545 S
C1117 C1101 1.349 . S
C1117 H1109 0.950 . S
C1117 C1115 1.327 . S
C1118 C1106 1.349 1_545 S
C1118 H1112 0.950 . S
C1118 C1119 1.327 . S
C1119 H1113 0.950 . S
C1119 C1118 1.327 . S
C1119 C1123 1.429 1_545 S
C1120 C1103 1.574 . S
C1120 H1114 0.949 . S
C1120 C1124 1.368 . S
C1121 C1102 1.429 1_565 S
C1121 C1115 1.429 . S
C1121 C1122 1.523 . S
C1122 C1103 1.368 . S
C1122 C1116 1.368 1_565 S
C1122 C1121 1.523 . S
C1123 C1107 1.429 . S
C1123 C1119 1.429 1_565 S
C1123 C1124 1.523 . S
C1124 C1108 1.368 1_565 S
C1124 C1120 1.368 . S
C1124 C1123 1.523 . S
H1125 C1100 0.950 . S
H1126 C1102 0.950 . S
H1127 C1103 0.949 . S
H1128 C1105 0.950 . S
H1129 C1107 0.950 . S
C1130 C1131 1.349 . S
C1130 C1132 1.327 . S
C1130 H1155 0.950 . S
C1131 C1130 1.349 . S
C1131 C1147 1.349 . S
C1132 C1130 1.327 . S
C1132 C1151 1.429 . S
C1132 H1156 0.950 . S
C1133 C1150 1.574 . S
C1133 C1152 1.368 . S
C1133 H1157 0.949 . S
H1134 C1138 0.949 . S
C1135 C1136 1.349 . S
C1135 C1137 1.327 . S
C1135 H1158 0.950 . S
C1136 C1135 1.349 . S
C1136 C1148 1.349 . S
C1137 C1135 1.327 . S
C1137 C1153 1.429 . S
C1137 H1159 0.950 . S
C1138 H1134 0.949 . S
C1138 C1146 1.574 . S
C1138 C1154 1.368 . S
H1139 C1147 0.950 . S
H1140 C1145 0.950 . S
H1141 C1146 0.949 . S
H1142 C1148 0.950 . S
H1143 C1149 0.950 . S
H1144 C1150 0.949 . S
C1145 H1140 0.950 . S
C1145 C1147 1.327 . S
C1145 C1151 1.429 . S
C1146 C1138 1.574 . S
C1146 H1141 0.949 . S
C1146 C1152 1.368 . S
C1147 C1131 1.349 . S
C1147 H1139 0.950 . S
C1147 C1145 1.327 . S
C1148 C1136 1.349 . S
C1148 H1142 0.950 . S
C1148 C1149 1.327 . S
C1149 H1143 0.950 . S
C1149 C1148 1.327 . S
C1149 C1153 1.429 . S
C1150 C1133 1.574 . S
C1150 H1144 0.949 . S
C1150 C1154 1.368 . S
C1151 C1132 1.429 . S
C1151 C1145 1.429 . S
C1151 C1152 1.523 . S
C1152 C1133 1.368 . S
C1152 C1146 1.368 . S
C1152 C1151 1.523 . S
C1153 C1137 1.429 . S
C1153 C1149 1.429 . S
C1153 C1154 1.523 . S
C1154 C1138 1.368 . S
C1154 C1150 1.368 . S
C1154 C1153 1.523 . S
H1155 C1130 0.950 . S
H1156 C1132 0.950 . S
H1157 C1133 0.949 . S
H1158 C1135 0.950 . S
H1159 C1137 0.950 . S
C1160 C1161 1.349 1_556 S
C1160 C1162 1.327 . S
C1160 H1185 0.950 . S
C1161 C1160 1.349 1_554 S
C1161 C1177 1.349 . S
C1162 C1160 1.327 . S
C1162 C1181 1.429 1_556 S
C1162 H1186 0.950 . S
C1163 C1180 1.574 . S
C1163 C1182 1.368 . S
C1163 H1187 0.949 . S
H1164 C1168 0.949 . S
C1165 C1166 1.346 . S
C1165 C1167 1.327 . S
C1165 H1188 0.950 . S
C1166 C1165 1.346 . S
C1166 C1178 1.352 1_554 S
C1167 C1165 1.327 . S
C1167 C1183 1.429 . S
C1167 H1189 0.950 . S
C1168 H1164 0.949 . S
C1168 C1176 1.574 . S
C1168 C1184 1.368 1_556 S
H1169 C1177 0.950 . S
H1170 C1175 0.950 . S
H1171 C1176 0.949 . S
H1172 C1178 0.950 . S
H1173 C1179 0.950 . S
H1174 C1180 0.949 . S
C1175 H1170 0.950 . S
C1175 C1177 1.327 . S
C1175 C1181 1.429 . S
C1176 C1168 1.574 . S
C1176 H1171 0.949 . S
C1176 C1182 1.368 1_556 S
C1177 C1161 1.349 . S
C1177 H1169 0.950 . S
C1177 C1175 1.327 . S
C1178 C1166 1.352 1_556 S
C1178 H1172 0.950 . S
C1178 C1179 1.327 . S
C1179 H1173 0.950 . S
C1179 C1178 1.327 . S
C1179 C1183 1.429 1_556 S
C1180 C1163 1.574 . S
C1180 H1174 0.949 . S
C1180 C1184 1.368 . S
C1181 C1162 1.429 1_554 S
C1181 C1175 1.429 . S
C1181 C1182 1.523 . S
C1182 C1163 1.368 . S
C1182 C1176 1.368 1_554 S
C1182 C1181 1.523 . S
C1183 C1167 1.429 . S
C1183 C1179 1.429 1_554 S
C1183 C1184 1.523 . S
C1184 C1168 1.368 1_554 S
C1184 C1180 1.368 . S
C1184 C1183 1.523 . S
H1185 C1160 0.950 . S
H1186 C1162 0.950 . S
H1187 C1163 0.949 . S
H1188 C1165 0.950 . S
H1189 C1167 0.950 . S
C1190 C1191 1.349 . S
C1190 C1192 1.327 . S
C1190 H1215 0.950 . S
C1191 C1190 1.349 . S
C1191 C1207 1.349 . S
C1192 C1190 1.327 . S
C1192 C1211 1.429 . S
C1192 H1216 0.950 . S
C1193 C1210 1.574 . S
C1193 C1212 1.368 . S
C1193 H1217 0.949 . S
H1194 C1198 0.949 . S
C1195 C1196 1.349 . S
C1195 C1197 1.327 . S
C1195 H1218 0.950 . S
C1196 C1195 1.349 . S
C1196 C1208 1.349 . S
C1197 C1195 1.327 . S
C1197 C1213 1.429 . S
C1197 H1219 0.950 . S
C1198 H1194 0.949 . S
C1198 C1206 1.574 . S
C1198 C1214 1.368 . S
H1199 C1207 0.950 . S
H1200 C1205 0.950 . S
H1201 C1206 0.949 . S
H1202 C1208 0.950 . S
H1203 C1209 0.950 . S
H1204 C1210 0.949 . S
C1205 H1200 0.950 . S
C1205 C1207 1.327 . S
C1205 C1211 1.429 . S
C1206 C1198 1.574 . S
C1206 H1201 0.949 . S
C1206 C1212 1.368 . S
C1207 C1191 1.349 . S
C1207 H1199 0.950 . S
C1207 C1205 1.327 . S
C1208 C1196 1.349 . S
C1208 H1202 0.950 . S
C1208 C1209 1.327 . S
C1209 H1203 0.950 . S
C1209 C1208 1.327 . S
C1209 C1213 1.429 . S
C1210 C1193 1.574 . S
C1210 H1204 0.949 . S
C1210 C1214 1.368 . S
C1211 C1192 1.429 . S
C1211 C1205 1.429 . S
C1211 C1212 1.523 . S
C1212 C1193 1.368 . S
C1212 C1206 1.368 . S
C1212 C1211 1.523 . S
C1213 C1197 1.429 . S
C1213 C1209 1.429 . S
C1213 C1214 1.523 . S
C1214 C1198 1.368 . S
C1214 C1210 1.368 . S
C1214 C1213 1.523 . S
H1215 C1190 0.950 . S
H1216 C1192 0.950 . S
H1217 C1193 0.949 . S
H1218 C1195 0.950 . S
H1219 C1197 0.950 . S
C1220 C1221 1.349 . S
C1220 C1222 1.327 . S
C1220 H1245 0.950 . S
C1221 C1220 1.349 . S
C1221 C1237 1.349 . S
C1222 C1220 1.327 . S
C1222 C1241 1.429 . S
C1222 H1246 0.950 . S
C1223 C1240 1.574 . S
C1223 C1242 1.368 . S
C1223 H1247 0.949 . S
H1224 C1228 0.949 . S
C1225 C1226 1.349 . S
C1225 C1227 1.327 . S
C1225 H1248 0.950 . S
C1226 C1225 1.349 . S
C1226 C1238 1.349 . S
C1227 C1225 1.327 . S
C1227 C1243 1.429 . S
C1227 H1249 0.950 . S
C1228 H1224 0.949 . S
C1228 C1236 1.574 . S
C1228 C1244 1.368 . S
H1229 C1237 0.950 . S
H1230 C1235 0.950 . S
H1231 C1236 0.949 . S
H1232 C1238 0.950 . S
H1233 C1239 0.950 . S
H1234 C1240 0.949 . S
C1235 H1230 0.950 . S
C1235 C1237 1.327 . S
C1235 C1241 1.429 . S
C1236 C1228 1.574 . S
C1236 H1231 0.949 . S
C1236 C1242 1.368 . S
C1237 C1221 1.349 . S
C1237 H1229 0.950 . S
C1237 C1235 1.327 . S
C1238 C1226 1.349 . S
C1238 H1232 0.950 . S
C1238 C1239 1.327 . S
C1239 H1233 0.950 . S
C1239 C1238 1.327 . S
C1239 C1243 1.429 . S
C1240 C1223 1.574 . S
C1240 H1234 0.949 . S
C1240 C1244 1.368 . S
C1241 C1222 1.429 . S
C1241 C1235 1.429 . S
C1241 C1242 1.523 . S
C1242 C1223 1.368 . S
C1242 C1236 1.368 . S
C1242 C1241 1.523 . S
C1243 C1227 1.429 . S
C1243 C1239 1.429 . S
C1243 C1244 1.523 . S
C1244 C1228 1.368 . S
C1244 C1240 1.368 . S
C1244 C1243 1.523 . S
H1245 C1220 0.950 . S
H1246 C1222 0.950 . S
H1247 C1223 0.949 . S
H1248 C1225 0.950 . S
H1249 C1227 0.950 . S
C1250 C1251 1.349 . S
C1250 C1252 1.327 . S
C1250 H1275 0.950 . S
C1251 C1250 1.349 . S
C1251 C1267 1.349 . S
C1252 C1250 1.327 . S
C1252 C1271 1.429 . S
C1252 H1276 0.950 . S
C1253 C1270 1.574 . S
C1253 C1272 1.368 . S
C1253 H1277 0.949 . S
H1254 C1258 0.949 . S
C1255 C1256 1.349 . S
C1255 C1257 1.327 . S
C1255 H1278 0.950 . S
C1256 C1255 1.349 . S
C1256 C1268 1.349 . S
C1257 C1255 1.327 . S
C1257 C1273 1.429 . S
C1257 H1279 0.950 . S
C1258 H1254 0.949 . S
C1258 C1266 1.574 . S
C1258 C1274 1.368 . S
H1259 C1267 0.950 . S
H1260 C1265 0.950 . S
H1261 C1266 0.949 . S
H1262 C1268 0.950 . S
H1263 C1269 0.950 . S
H1264 C1270 0.949 . S
C1265 H1260 0.950 . S
C1265 C1267 1.327 . S
C1265 C1271 1.429 . S
C1266 C1258 1.574 . S
C1266 H1261 0.949 . S
C1266 C1272 1.368 . S
C1267 C1251 1.349 . S
C1267 H1259 0.950 . S
C1267 C1265 1.327 . S
C1268 C1256 1.349 . S
C1268 H1262 0.950 . S
C1268 C1269 1.327 . S
C1269 H1263 0.950 . S
C1269 C1268 1.327 . S
C1269 C1273 1.429 . S
C1270 C1253 1.574 . S
C1270 H1264 0.949 . S
C1270 C1274 1.368 . S
C1271 C1252 1.429 . S
C1271 C1265 1.429 . S
C1271 C1272 1.523 . S
C1272 C1253 1.368 . S
C1272 C1266 1.368 . S
C1272 C1271 1.523 . S
C1273 C1257 1.429 . S
C1273 C1269 1.429 . S
C1273 C1274 1.523 . S
C1274 C1258 1.368 . S
C1274 C1270 1.368 . S
C1274 C1273 1.523 . S
H1275 C1250 0.950 . S
H1276 C1252 0.950 . S
H1277 C1253 0.949 . S
H1278 C1255 0.950 . S
H1279 C1257 0.950 . S
C1280 C1281 1.349 . S
C1280 C1282 1.327 . S
C1280 H1305 0.950 . S
C1281 C1280 1.349 . S
C1281 C1297 1.349 . S
C1282 C1280 1.327 . S
C1282 C1301 1.429 . S
C1282 H1306 0.950 . S
C1283 C1300 1.574 . S
C1283 C1302 1.368 . S
C1283 H1307 0.949 . S
H1284 C1288 0.949 . S
C1285 C1286 1.349 . S
C1285 C1287 1.327 . S
C1285 H1308 0.950 . S
C1286 C1285 1.349 . S
C1286 C1298 1.349 . S
C1287 C1285 1.327 . S
C1287 C1303 1.429 . S
C1287 H1309 0.950 . S
C1288 H1284 0.949 . S
C1288 C1296 1.574 . S
C1288 C1304 1.368 . S
H1289 C1297 0.950 . S
H1290 C1295 0.950 . S
H1291 C1296 0.949 . S
H1292 C1298 0.950 . S
H1293 C1299 0.950 . S
H1294 C1300 0.949 . S
C1295 H1290 0.950 . S
C1295 C1297 1.327 . S
C1295 C1301 1.429 . S
C1296 C1288 1.574 . S
C1296 H1291 0.949 . S
C1296 C1302 1.368 . S
C1297 C1281 1.349 . S
C1297 H1289 0.950 . S
C1297 C1295 1.327 . S
C1298 C1286 1.349 . S
C1298 H1292 0.950 . S
C1298 C1299 1.327 . S
C1299 H1293 0.950 . S
C1299 C1298 1.327 . S
C1299 C1303 1.429 . S
C1300 C1283 1.574 . S
C1300 H1294 0.949 . S
C1300 C1304 1.368 . S
C1301 C1282 1.429 . S
C1301 C1295 1.429 . S
C1301 C1302 1.523 . S
C1302 C1283 1.368 . S
C1302 C1296 1.368 . S
C1302 C1301 1.523 . S
C1303 C1287 1.429 . S
C1303 C1299 1.429 . S
C1303 C1304 1.523 . S
C1304 C1288 1.368 . S
C1304 C1300 1.368 . S
C1304 C1303 1.523 . S
H1305 C1280 0.950 . S
H1306 C1282 0.950 . S
H1307 C1283 0.949 . S
H1308 C1285 0.950 . S
H1309 C1287 0.950 . S
C1310 C1311 1.349 . S
C1310 C1312 1.327 . S
C1310 H1335 0.950 . S
C1311 C1310 1.349 . S
C1311 C1327 1.349 . S
C1312 C1310 1.327 . S
C1312 C1331 1.429 . S
C1312 H1336 0.950 . S
C1313 C1330 1.574 . S
C1313 C1332 1.368 . S
C1313 H1337 0.949 . S
H1314 C1318 0.949 . S
C1315 C1316 1.349 . S
C1315 C1317 1.327 1_545 S
C1315 H1338 0.950 . S
C1316 C1315 1.349 . S
C1316 C1328 1.349 1_545 S
C1317 C1315 1.327 1_565 S
C1317 C1333 1.429 . S
C1317 H1339 0.950 . S
C1318 H1314 0.949 . S
C1318 C1326 1.574 . S
C1318 C1334 1.368 . S
H1319 C1327 0.950 . S
H1320 C1325 0.950 . S
H1321 C1326 0.949 . S
H1322 C1328 0.950 . S
H1323 C1329 0.950 . S
H1324 C1330 0.949 . S
C1325 H1320 0.950 . S
C1325 C1327 1.327 . S
C1325 C1331 1.429 . S
C1326 C1318 1.574 . S
C1326 H1321 0.949 . S
C1326 C1332 1.368 . S
C1327 C1311 1.349 . S
C1327 H1319 0.950 . S
C1327 C1325 1.327 . S
C1328 C1316 1.349 1_565 S
C1328 H1322 0.950 . S
C1328 C1329 1.327 . S
C1329 H1323 0.950 . S
C1329 C1328 1.327 . S
C1329 C1333 1.429 . S
C1330 C1313 1.574 . S
C1330 H1324 0.949 . S
C1330 C1334 1.368 . S
C1331 C1312 1.429 . S
C1331 C1325 1.429 . S
C1331 C1332 1.523 . S
C1332 C1313 1.368 . S
C1332 C1326 1.368 . S
C1332 C1331 1.523 . S
C1333 C1317 1.429 . S
C1333 C1329 1.429 . S
C1333 C1334 1.523 . S
C1334 C1318 1.368 . S
C1334 C1330 1.368 . S
C1334 C1333 1.523 . S
H1335 C1310 0.950 . S
H1336 C1312 0.950 . S
H1337 C1313 0.949 . S
H1338 C1315 0.950 . S
H1339 C1317 0.950 . S
C1340 C1341 1.349 . S
C1340 C1342 1.327 . S
C1340 H1365 0.950 . S
C1341 C1340 1.349 . S
C1341 C1357 1.349 . S
C1342 C1340 1.327 . S
C1342 C1361 1.429 . S
C1342 H1366 0.950 . S
C1343 C1360 1.574 . S
C1343 C1362 1.368 . S
C1343 H1367 0.949 . S
H1344 C1348 0.949 . S
C1345 C1346 1.349 . S
C1345 C1347 1.327 . S
C1345 H1368 0.950 . S
C1346 C1345 1.349 . S
C1346 C1358 1.349 . S
C1347 C1345 1.327 . S
C1347 C1363 1.429 . S
C1347 H1369 0.950 . S
C1348 H1344 0.949 . S
C1348 C1356 1.574 . S
C1348 C1364 1.368 . S
H1349 C1357 0.950 . S
H1350 C1355 0.950 . S
H1351 C1356 0.949 . S
H1352 C1358 0.950 . S
H1353 C1359 0.950 . S
H1354 C1360 0.949 . S
C1355 H1350 0.950 . S
C1355 C1357 1.327 . S
C1355 C1361 1.429 . S
C1356 C1348 1.574 . S
C1356 H1351 0.949 . S
C1356 C1362 1.368 . S
C1357 C1341 1.349 . S
C1357 H1349 0.950 . S
C1357 C1355 1.327 . S
C1358 C1346 1.349 . S
C1358 H1352 0.950 . S
C1358 C1359 1.327 . S
C1359 H1353 0.950 . S
C1359 C1358 1.327 . S
C1359 C1363 1.429 . S
C1360 C1343 1.574 . S
C1360 H1354 0.949 . S
C1360 C1364 1.368 . S
C1361 C1342 1.429 . S
C1361 C1355 1.429 . S
C1361 C1362 1.523 . S
C1362 C1343 1.368 . S
C1362 C1356 1.368 . S
C1362 C1361 1.523 . S
C1363 C1347 1.429 . S
C1363 C1359 1.429 . S
C1363 C1364 1.523 . S
C1364 C1348 1.368 . S
C1364 C1360 1.368 . S
C1364 C1363 1.523 . S
H1365 C1340 0.950 . S
H1366 C1342 0.950 . S
H1367 C1343 0.949 . S
H1368 C1345 0.950 . S
H1369 C1347 0.950 . S
C1370 C1371 1.349 . S
C1370 C1372 1.327 . S
C1370 H1395 0.950 . S
C1371 C1370 1.349 . S
C1371 C1387 1.349 . S
C1372 C1370 1.327 . S
C1372 C1391 1.429 . S
C1372 H1396 0.950 . S
C1373 C1390 1.574 . S
C1373 C1392 1.368 . S
C1373 H1397 0.949 . S
H1374 C1378 0.949 . S
C1375 C1376 1.349 . S
C1375 C1377 1.327 . S
C1375 H1398 0.950 . S
C1376 C1375 1.349 . S
C1376 C1388 1.349 . S
C1377 C1375 1.327 . S
C1377 C1393 1.429 . S
C1377 H1399 0.950 . S
C1378 H1374 0.949 . S
C1378 C1386 1.574 . S
C1378 C1394 1.368 . S
H1379 C1387 0.950 . S
H1380 C1385 0.950 . S
H1381 C1386 0.949 . S
H1382 C1388 0.950 . S
H1383 C1389 0.950 . S
H1384 C1390 0.949 . S
C1385 H1380 0.950 . S
C1385 C1387 1.327 . S
C1385 C1391 1.429 . S
C1386 C1378 1.574 . S
C1386 H1381 0.949 . S
C1386 C1392 1.368 . S
C1387 C1371 1.349 . S
C1387 H1379 0.950 . S
C1387 C1385 1.327 . S
C1388 C1376 1.349 . S
C1388 H1382 0.950 . S
C1388 C1389 1.327 . S
C1389 H1383 0.950 . S
C1389 C1388 1.327 . S
C1389 C1393 1.429 . S
C1390 C1373 1.574 . S
C1390 H1384 0.949 . S
C1390 C1394 1.368 . S
C1391 C1372 1.429 . S
C1391 C1385 1.429 . S
C1391 C1392 1.523 . S
C1392 C1373 1.368 . S
C1392 C1386 1.368 . S
C1392 C1391 1.523 . S
C1393 C1377 1.429 . S
C1393 C1389 1.429 . S
C1393 C1394 1.523 . S
C1394 C1378 1.368 . S
C1394 C1390 1.368 . S
C1394 C1393 1.523 . S
H1395 C1370 0.950 . S
H1396 C1372 0.950 . S
H1397 C1373 0.949 . S
H1398 C1375 0.950 . S
H1399 C1377 0.950 . S
C1400 C1401 1.349 . S
C1400 C1402 1.327 . S
C1400 H1425 0.950 . S
C1401 C1400 1.349 . S
C1401 C1417 1.349 1_455 S
C1402 C1400 1.327 . S
C1402 C1421 1.429 . S
C1402 H1426 0.950 . S
C1403 C1420 1.572 1_655 S
C1403 C1422 1.368 1_655 S
C1403 H1427 0.949 . S
H1404 C1408 0.949 . S
C1405 C1406 1.349 . S
C1405 C1407 1.327 . S
C1405 H1428 0.930 1_455 S
C1406 C1405 1.349 . S
C1406 C1418 1.363 . S
C1407 C1405 1.327 . S
C1407 C1423 1.429 . S
C1407 H1429 0.950 1_455 S
C1408 H1404 0.949 . S
C1408 C1416 1.574 . S
C1408 C1424 1.368 . S
H1409 C1417 0.950 . S
H1410 C1415 0.950 . S
H1411 C1416 0.949 . S
H1412 C1418 0.917 1_554 S
H1413 C1419 0.950 . S
H1414 C1420 0.936 1_655 S
C1415 H1410 0.950 . S
C1415 C1417 1.327 . S
C1415 C1421 1.429 1_655 S
C1416 C1408 1.574 . S
C1416 H1411 0.949 . S
C1416 C1422 1.368 . S
C1417 C1401 1.349 1_655 S
C1417 H1409 0.950 . S
C1417 C1415 1.327 . S
C1418 C1406 1.363 . S
C1418 H1412 0.917 1_556 S
C1418 C1419 1.347 . S
C1419 H1413 0.950 . S
C1419 C1418 1.347 . S
C1419 C1423 1.429 . S
C1420 C1403 1.572 1_455 S
C1420 H1414 0.936 1_455 S
C1420 C1424 1.385 . S
C1421 C1402 1.429 . S
C1421 C1415 1.429 1_455 S
C1421 C1422 1.523 . S
C1422 C1403 1.368 1_455 S
C1422 C1416 1.368 . S
C1422 C1421 1.523 . S
C1423 C1407 1.429 . S
C1423 C1419 1.429 . S
C1423 C1424 1.523 . S
C1424 C1408 1.368 . S
C1424 C1420 1.385 . S
C1424 C1423 1.523 . S
H1425 C1400 0.950 . S
H1426 C1402 0.950 . S
H1427 C1403 0.949 . S
H1428 C1405 0.930 1_655 S
H1429 C1407 0.950 1_655 S
C1430 C1431 1.349 . S
C1430 C1432 1.327 . S
C1430 H1455 0.950 . S
C1431 C1430 1.349 . S
C1431 C1447 1.349 . S
C1432 C1430 1.327 . S
C1432 C1451 1.429 . S
C1432 H1456 0.950 . S
C1433 C1450 1.574 . S
C1433 C1452 1.368 . S
C1433 H1457 0.949 . S
H1434 C1438 0.949 . S
C1435 C1436 1.349 . S
C1435 C1437 1.327 . S
C1435 H1458 0.950 . S
C1436 C1435 1.349 . S
C1436 C1448 1.349 . S
C1437 C1435 1.327 . S
C1437 C1453 1.429 . S
C1437 H1459 0.950 . S
C1438 H1434 0.949 . S
C1438 C1446 1.574 . S
C1438 C1454 1.368 . S
H1439 C1447 0.950 . S
H1440 C1445 0.950 . S
H1441 C1446 0.949 . S
H1442 C1448 0.950 . S
H1443 C1449 0.950 . S
H1444 C1450 0.949 . S
C1445 H1440 0.950 . S
C1445 C1447 1.327 . S
C1445 C1451 1.429 . S
C1446 C1438 1.574 . S
C1446 H1441 0.949 . S
C1446 C1452 1.368 . S
C1447 C1431 1.349 . S
C1447 H1439 0.950 . S
C1447 C1445 1.327 . S
C1448 C1436 1.349 . S
C1448 H1442 0.950 . S
C1448 C1449 1.327 . S
C1449 H1443 0.950 . S
C1449 C1448 1.327 . S
C1449 C1453 1.429 . S
C1450 C1433 1.574 . S
C1450 H1444 0.949 . S
C1450 C1454 1.368 . S
C1451 C1432 1.429 . S
C1451 C1445 1.429 . S
C1451 C1452 1.523 . S
C1452 C1433 1.368 . S
C1452 C1446 1.368 . S
C1452 C1451 1.523 . S
C1453 C1437 1.429 . S
C1453 C1449 1.429 . S
C1453 C1454 1.523 . S
C1454 C1438 1.368 . S
C1454 C1450 1.368 . S
C1454 C1453 1.523 . S
H1455 C1430 0.950 . S
H1456 C1432 0.950 . S
H1457 C1433 0.949 . S
H1458 C1435 0.950 . S
H1459 C1437 0.950 . S
C1460 C1461 1.349 . S
C1460 C1462 1.327 . S
C1460 H1485 0.950 . S
C1461 C1460 1.349 . S
C1461 C1477 1.349 . S
C1462 C1460 1.327 . S
C1462 C1481 1.429 . S
C1462 H1486 0.950 . S
C1463 C1480 1.574 . S
C1463 C1482 1.368 . S
C1463 H1487 0.949 . S
H1464 C1468 0.949 . S
C1465 C1466 1.349 . S
C1465 C1467 1.327 . S
C1465 H1488 0.950 . S
C1466 C1465 1.349 . S
C1466 C1478 1.349 . S
C1467 C1465 1.327 . S
C1467 C1483 1.429 . S
C1467 H1489 0.950 . S
C1468 H1464 0.949 . S
C1468 C1476 1.574 . S
C1468 C1484 1.368 . S
H1469 C1477 0.950 . S
H1470 C1475 0.950 . S
H1471 C1476 0.949 . S
H1472 C1478 0.950 . S
H1473 C1479 0.950 . S
H1474 C1480 0.949 . S
C1475 H1470 0.950 . S
C1475 C1477 1.327 . S
C1475 C1481 1.429 . S
C1476 C1468 1.574 . S
C1476 H1471 0.949 . S
C1476 C1482 1.368 . S
C1477 C1461 1.349 . S
C1477 H1469 0.950 . S
C1477 C1475 1.327 . S
C1478 C1466 1.349 . S
C1478 H1472 0.950 . S
C1478 C1479 1.327 . S
C1479 H1473 0.950 . S
C1479 C1478 1.327 . S
C1479 C1483 1.429 . S
C1480 C1463 1.574 . S
C1480 H1474 0.949 . S
C1480 C1484 1.368 . S
C1481 C1462 1.429 . S
C1481 C1475 1.429 . S
C1481 C1482 1.523 . S
C1482 C1463 1.368 . S
C1482 C1476 1.368 . S
C1482 C1481 1.523 . S
C1483 C1467 1.429 . S
C1483 C1479 1.429 . S
C1483 C1484 1.523 . S
C1484 C1468 1.368 . S
C1484 C1480 1.368 . S
C1484 C1483 1.523 . S
H1485 C1460 0.950 . S
H1486 C1462 0.950 . S
H1487 C1463 0.949 . S
H1488 C1465 0.950 . S
H1489 C1467 0.950 . S
C1490 C1491 1.349 . S
C1490 C1492 1.327 . S
C1490 H1515 0.950 . S
C1491 C1490 1.349 . S
C1491 C1507 1.349 . S
C1492 C1490 1.327 . S
C1492 C1511 1.429 . S
C1492 H1516 0.950 . S
C1493 C1510 1.574 . S
C1493 C1512 1.368 . S
C1493 H1517 0.949 . S
H1494 C1498 0.949 . S
C1495 C1496 1.349 . S
C1495 C1497 1.327 . S
C1495 H1518 0.950 . S
C1496 C1495 1.349 . S
C1496 C1508 1.349 . S
C1497 C1495 1.327 . S
C1497 C1513 1.429 . S
C1497 H1519 0.950 . S
C1498 H1494 0.949 . S
C1498 C1506 1.574 . S
C1498 C1514 1.368 . S
H1499 C1507 0.950 . S
H1500 C1505 0.950 . S
H1501 C1506 0.949 . S
H1502 C1508 0.950 . S
H1503 C1509 0.950 . S
H1504 C1510 0.949 . S
C1505 H1500 0.950 . S
C1505 C1507 1.327 . S
C1505 C1511 1.429 . S
C1506 C1498 1.574 . S
C1506 H1501 0.949 . S
C1506 C1512 1.368 . S
C1507 C1491 1.349 . S
C1507 H1499 0.950 . S
C1507 C1505 1.327 . S
C1508 C1496 1.349 . S
C1508 H1502 0.950 . S
C1508 C1509 1.327 . S
C1509 H1503 0.950 . S
C1509 C1508 1.327 . S
C1509 C1513 1.429 . S
C1510 C1493 1.574 . S
C1510 H1504 0.949 . S
C1510 C1514 1.368 . S
C1511 C1492 1.429 . S
C1511 C1505 1.429 . S
C1511 C1512 1.523 . S
C1512 C1493 1.368 . S
C1512 C1506 1.368 . S
C1512 C1511 1.523 . S
C1513 C1497 1.429 . S
C1513 C1509 1.429 . S
C1513 C1514 1.523 . S
C1514 C1498 1.368 . S
C1514 C1510 1.368 . S
C1514 C1513 1.523 . S
H1515 C1490 0.950 . S
H1516 C1492 0.950 . S
H1517 C1493 0.949 . S
H1518 C1495 0.950 . S
H1519 C1497 0.950 . S
C1520 C1521 1.349 . S
C1520 C1522 1.327 . S
C1520 H1545 0.950 . S
C1521 C1520 1.349 . S
C1521 C1537 1.349 1_455 S
C1522 C1520 1.327 . S
C1522 C1541 1.429 . S
C1522 H1546 0.950 . S
C1523 C1540 1.568 1_655 S
C1523 C1542 1.334 1_655 S
C1523 H1547 0.987 . S
H1524 C1528 0.949 . S
C1525 C1526 1.349 . S
C1525 C1527 1.327 . S
C1525 H1548 0.950 . S
C1526 C1525 1.349 . S
C1526 C1538 1.349 . S
C1527 C1525 1.327 . S
C1527 C1543 1.429 . S
C1527 H1549 0.950 1_455 S
C1528 H1524 0.949 . S
C1528 C1536 1.574 . S
C1528 C1544 1.368 . S
H1529 C1537 0.950 . S
H1530 C1535 0.950 . S
H1531 C1536 0.949 . S
H1532 C1538 0.950 . S
H1533 C1539 0.950 . S
H1534 C1540 0.949 1_655 S
C1535 H1530 0.950 . S
C1535 C1537 1.327 . S
C1535 C1541 1.429 1_655 S
C1536 C1528 1.574 . S
C1536 H1531 0.949 . S
C1536 C1542 1.368 . S
C1537 C1521 1.349 1_655 S
C1537 H1529 0.950 . S
C1537 C1535 1.327 . S
C1538 C1526 1.349 . S
C1538 H1532 0.950 . S
C1538 C1539 1.327 . S
C1539 H1533 0.950 . S
C1539 C1538 1.327 . S
C1539 C1543 1.429 . S
C1540 C1523 1.568 1_455 S
C1540 H1534 0.949 1_455 S
C1540 C1544 1.368 . S
C1541 C1522 1.429 . S
C1541 C1535 1.429 1_455 S
C1541 C1542 1.523 . S
C1542 C1523 1.334 1_455 S
C1542 C1536 1.368 . S
C1542 C1541 1.523 . S
C1543 C1527 1.429 . S
C1543 C1539 1.429 . S
C1543 C1544 1.523 . S
C1544 C1528 1.368 . S
C1544 C1540 1.368 . S
C1544 C1543 1.523 . S
H1545 C1520 0.950 . S
H1546 C1522 0.950 . S
H1547 C1523 0.987 . S
H1548 C1525 0.950 . S
H1549 C1527 0.950 1_655 S
C1550 C1551 1.349 . S
C1550 C1552 1.327 . S
C1550 H1575 0.950 . S
C1551 C1550 1.349 . S
C1551 C1567 1.349 . S
C1552 C1550 1.327 . S
C1552 C1571 1.429 . S
C1552 H1576 0.950 . S
C1553 C1570 1.574 . S
C1553 C1572 1.368 . S
C1553 H1577 0.949 . S
H1554 C1558 0.949 . S
C1555 C1556 1.349 . S
C1555 C1557 1.327 . S
C1555 H1578 0.950 . S
C1556 C1555 1.349 . S
C1556 C1568 1.349 . S
C1557 C1555 1.327 . S
C1557 C1573 1.429 . S
C1557 H1579 0.950 . S
C1558 H1554 0.949 . S
C1558 C1566 1.574 . S
C1558 C1574 1.368 . S
H1559 C1567 0.950 . S
H1560 C1565 0.950 . S
H1561 C1566 0.949 . S
H1562 C1568 0.950 . S
H1563 C1569 0.950 . S
H1564 C1570 0.949 . S
C1565 H1560 0.950 . S
C1565 C1567 1.327 . S
C1565 C1571 1.429 . S
C1566 C1558 1.574 . S
C1566 H1561 0.949 . S
C1566 C1572 1.368 . S
C1567 C1551 1.349 . S
C1567 H1559 0.950 . S
C1567 C1565 1.327 . S
C1568 C1556 1.349 . S
C1568 H1562 0.950 . S
C1568 C1569 1.327 . S
C1569 H1563 0.950 . S
C1569 C1568 1.327 . S
C1569 C1573 1.429 . S
C1570 C1553 1.574 . S
C1570 H1564 0.949 . S
C1570 C1574 1.368 . S
C1571 C1552 1.429 . S
C1571 C1565 1.429 . S
C1571 C1572 1.523 . S
C1572 C1553 1.368 . S
C1572 C1566 1.368 . S
C1572 C1571 1.523 . S
C1573 C1557 1.429 . S
C1573 C1569 1.429 . S
C1573 C1574 1.523 . S
C1574 C1558 1.368 . S
C1574 C1570 1.368 . S
C1574 C1573 1.523 . S
H1575 C1550 0.950 . S
H1576 C1552 0.950 . S
H1577 C1553 0.949 . S
H1578 C1555 0.950 . S
H1579 C1557 0.950 . S
C1580 C1581 1.349 . S
C1580 C1582 1.327 . S
C1580 H1605 0.950 . S
C1581 C1580 1.349 . S
C1581 C1597 1.349 . S
C1582 C1580 1.327 . S
C1582 C1601 1.429 . S
C1582 H1606 0.950 . S
C1583 C1600 1.574 . S
C1583 C1602 1.368 . S
C1583 H1607 0.949 . S
H1584 C1588 0.949 . S
C1585 C1586 1.349 . S
C1585 C1587 1.327 . S
C1585 H1608 0.950 . S
C1586 C1585 1.349 . S
C1586 C1598 1.349 . S
C1587 C1585 1.327 . S
C1587 C1603 1.429 . S
C1587 H1609 0.950 . S
C1588 H1584 0.949 . S
C1588 C1596 1.574 . S
C1588 C1604 1.368 . S
H1589 C1597 0.950 . S
H1590 C1595 0.950 . S
H1591 C1596 0.949 . S
H1592 C1598 0.950 . S
H1593 C1599 0.950 . S
H1594 C1600 0.949 . S
C1595 H1590 0.950 . S
C1595 C1597 1.327 . S
C1595 C1601 1.429 . S
C1596 C1588 1.574 . S
C1596 H1591 0.949 . S
C1596 C1602 1.368 . S
C1597 C1581 1.349 . S
C1597 H1589 0.950 . S
C1597 C1595 1.327 . S
C1598 C1586 1.349 . S
C1598 H1592 0.950 . S
C1598 C1599 1.327 . S
C1599 H1593 0.950 . S
C1599 C1598 1.327 . S
C1599 C1603 1.429 . S
C1600 C1583 1.574 . S
C1600 H1594 0.949 . S
C1600 C1604 1.368 . S
C1601 C1582 1.429 . S
C1601 C1595 1.429 . S
C1601 C1602 1.523 . S
C1602 C1583 1.368 . S
C1602 C1596 1.368 . S
C1602 C1601 1.523 . S
C1603 C1587 1.429 . S
C1603 C1599 1.429 . S
C1603 C1604 1.523 . S
C1604 C1588 1.368 . S
C1604 C1600 1.368 . S
C1604 C1603 1.523 . S
H1605 C1580 0.950 . S
H1606 C1582 0.950 . S
H1607 C1583 0.949 . S
H1608 C1585 0.950 . S
H1609 C1587 0.950 . S
C1610 C1611 1.349 . S
C1610 C1612 1.327 . S
C1610 H1635 0.950 . S
C1611 C1610 1.349 . S
C1611 C1627 1.349 . S
C1612 C1610 1.327 . S
C1612 C1631 1.429 . S
C1612 H1636 0.950 . S
C1613 C1630 1.574 . S
C1613 C1632 1.368 . S
C1613 H1637 0.949 . S
H1614 C1618 0.949 . S
C1615 C1616 1.349 . S
C1615 C1617 1.327 . S
C1615 H1638 0.950 . S
C1616 C1615 1.349 . S
C1616 C1628 1.349 . S
C1617 C1615 1.327 . S
C1617 C1633 1.429 . S
C1617 H1639 0.950 . S
C1618 H1614 0.949 . S
C1618 C1626 1.574 . S
C1618 C1634 1.368 . S
H1619 C1627 0.950 . S
H1620 C1625 0.950 . S
H1621 C1626 0.949 . S
H1622 C1628 0.950 . S
H1623 C1629 0.950 . S
H1624 C1630 0.949 . S
C1625 H1620 0.950 . S
C1625 C1627 1.327 . S
C1625 C1631 1.429 . S
C1626 C1618 1.574 . S
C1626 H1621 0.949 . S
C1626 C1632 1.368 . S
C1627 C1611 1.349 . S
C1627 H1619 0.950 . S
C1627 C1625 1.327 . S
C1628 C1616 1.349 . S
C1628 H1622 0.950 . S
C1628 C1629 1.327 . S
C1629 H1623 0.950 . S
C1629 C1628 1.327 . S
C1629 C1633 1.429 . S
C1630 C1613 1.574 . S
C1630 H1624 0.949 . S
C1630 C1634 1.368 . S
C1631 C1612 1.429 . S
C1631 C1625 1.429 . S
C1631 C1632 1.523 . S
C1632 C1613 1.368 . S
C1632 C1626 1.368 . S
C1632 C1631 1.523 . S
C1633 C1617 1.429 . S
C1633 C1629 1.429 . S
C1633 C1634 1.523 . S
C1634 C1618 1.368 . S
C1634 C1630 1.368 . S
C1634 C1633 1.523 . S
H1635 C1610 0.950 . S
H1636 C1612 0.950 . S
H1637 C1613 0.949 . S
H1638 C1615 0.950 . S
H1639 C1617 0.950 . S
C1640 C1641 1.349 . S
C1640 C1642 1.327 . S
C1640 H1665 0.950 . S
C1641 C1640 1.349 . S
C1641 C1657 1.349 . S
C1642 C1640 1.327 . S
C1642 C1661 1.429 . S
C1642 H1666 0.950 . S
C1643 C1660 1.574 . S
C1643 C1662 1.368 . S
C1643 H1667 0.949 1_545 S
H1644 C1648 0.949 . S
C1645 C1646 1.349 . S
C1645 C1647 1.327 . S
C1645 H1668 0.950 . S
C1646 C1645 1.349 . S
C1646 C1658 1.349 . S
C1647 C1645 1.327 . S
C1647 C1663 1.429 . S
C1647 H1669 0.950 . S
C1648 H1644 0.949 . S
C1648 C1656 1.574 . S
C1648 C1664 1.368 . S
H1649 C1657 0.950 1_565 S
H1650 C1655 0.950 1_565 S
H1651 C1656 0.949 . S
H1652 C1658 0.950 . S
H1653 C1659 0.950 . S
H1654 C1660 0.949 . S
C1655 H1650 0.950 1_545 S
C1655 C1657 1.327 . S
C1655 C1661 1.429 . S
C1656 C1648 1.574 . S
C1656 H1651 0.949 . S
C1656 C1662 1.368 . S
C1657 C1641 1.349 . S
C1657 H1649 0.950 1_545 S
C1657 C1655 1.327 . S
C1658 C1646 1.349 . S
C1658 H1652 0.950 . S
C1658 C1659 1.327 . S
C1659 H1653 0.950 . S
C1659 C1658 1.327 . S
C1659 C1663 1.429 . S
C1660 C1643 1.574 . S
C1660 H1654 0.949 . S
C1660 C1664 1.368 . S
C1661 C1642 1.429 . S
C1661 C1655 1.429 . S
C1661 C1662 1.523 . S
C1662 C1643 1.368 . S
C1662 C1656 1.368 . S
C1662 C1661 1.523 . S
C1663 C1647 1.429 . S
C1663 C1659 1.429 . S
C1663 C1664 1.523 . S
C1664 C1648 1.368 . S
C1664 C1660 1.368 . S
C1664 C1663 1.523 . S
H1665 C1640 0.950 . S
H1666 C1642 0.950 . S
H1667 C1643 0.949 1_565 S
H1668 C1645 0.950 . S
H1669 C1647 0.950 . S
C1670 C1671 1.349 . S
C1670 C1672 1.327 . S
C1670 H1695 0.950 . S
C1671 C1670 1.349 . S
C1671 C1687 1.349 . S
C1672 C1670 1.327 . S
C1672 C1691 1.429 . S
C1672 H1696 0.950 . S
C1673 C1690 1.574 . S
C1673 C1692 1.368 . S
C1673 H1697 0.949 . S
H1674 C1678 0.949 . S
C1675 C1676 1.349 . S
C1675 C1677 1.327 . S
C1675 H1698 0.950 . S
C1676 C1675 1.349 . S
C1676 C1688 1.349 . S
C1677 C1675 1.327 . S
C1677 C1693 1.429 . S
C1677 H1699 0.950 . S
C1678 H1674 0.949 . S
C1678 C1686 1.574 . S
C1678 C1694 1.368 . S
H1679 C1687 0.950 . S
H1680 C1685 0.950 . S
H1681 C1686 0.949 . S
H1682 C1688 0.950 . S
H1683 C1689 0.950 . S
H1684 C1690 0.949 . S
C1685 H1680 0.950 . S
C1685 C1687 1.327 . S
C1685 C1691 1.429 . S
C1686 C1678 1.574 . S
C1686 H1681 0.949 . S
C1686 C1692 1.368 . S
C1687 C1671 1.349 . S
C1687 H1679 0.950 . S
C1687 C1685 1.327 . S
C1688 C1676 1.349 . S
C1688 H1682 0.950 . S
C1688 C1689 1.327 . S
C1689 H1683 0.950 . S
C1689 C1688 1.327 . S
C1689 C1693 1.429 . S
C1690 C1673 1.574 . S
C1690 H1684 0.949 . S
C1690 C1694 1.368 . S
C1691 C1672 1.429 . S
C1691 C1685 1.429 . S
C1691 C1692 1.523 . S
C1692 C1673 1.368 . S
C1692 C1686 1.368 . S
C1692 C1691 1.523 . S
C1693 C1677 1.429 . S
C1693 C1689 1.429 . S
C1693 C1694 1.523 . S
C1694 C1678 1.368 . S
C1694 C1690 1.368 . S
C1694 C1693 1.523 . S
H1695 C1670 0.950 . S
H1696 C1672 0.950 . S
H1697 C1673 0.949 . S
H1698 C1675 0.950 . S
H1699 C1677 0.950 . S
C1700 C1701 1.349 . S
C1700 C1702 1.327 . S
C1700 H1725 0.950 . S
C1701 C1700 1.349 . S
C1701 C1717 1.349 1_545 S
C1702 C1700 1.327 . S
C1702 C1721 1.429 . S
C1702 H1726 0.950 . S
C1703 C1720 1.574 . S
C1703 C1722 1.334 1_565 S
C1703 H1727 0.949 . S
H1704 C1708 0.949 . S
C1705 C1706 1.349 . S
C1705 C1707 1.327 . S
C1705 H1728 0.950 . S
C1706 C1705 1.349 . S
C1706 C1718 1.349 1_565 S
C1707 C1705 1.327 . S
C1707 C1723 1.429 . S
C1707 H1729 0.950 . S
C1708 H1704 0.949 . S
C1708 C1716 1.574 . S
C1708 C1724 1.368 1_545 S
H1709 C1717 0.950 . S
H1710 C1715 0.950 . S
H1711 C1716 0.949 . S
H1712 C1718 0.950 . S
H1713 C1719 0.950 . S
H1714 C1720 0.949 . S
C1715 H1710 0.950 . S
C1715 C1717 1.327 . S
C1715 C1721 1.429 1_565 S
C1716 C1708 1.574 . S
C1716 H1711 0.949 . S
C1716 C1722 1.400 . S
C1717 C1701 1.349 1_565 S
C1717 H1709 0.950 . S
C1717 C1715 1.327 . S
C1718 C1706 1.349 1_545 S
C1718 H1712 0.950 . S
C1718 C1719 1.327 . S
C1719 H1713 0.950 . S
C1719 C1718 1.327 . S
C1719 C1723 1.429 1_545 S
C1720 C1703 1.574 . S
C1720 H1714 0.949 . S
C1720 C1724 1.368 . S
C1721 C1702 1.429 . S
C1721 C1715 1.429 1_545 S
C1721 C1722 1.528 . S
C1722 C1703 1.334 1_545 S
C1722 C1716 1.400 . S
C1722 C1721 1.528 . S
C1723 C1707 1.429 . S
C1723 C1719 1.429 1_565 S
C1723 C1724 1.523 . S
C1724 C1708 1.368 1_565 S
C1724 C1720 1.368 . S
C1724 C1723 1.523 . S
H1725 C1700 0.950 . S
H1726 C1702 0.950 . S
H1727 C1703 0.949 . S
H1728 C1705 0.950 . S
H1729 C1707 0.950 . S
C1730 C1731 1.349 . S
C1730 C1732 1.327 . S
C1730 H1755 0.950 . S
C1731 C1730 1.349 . S
C1731 C1747 1.349 . S
C1732 C1730 1.327 . S
C1732 C1751 1.429 . S
C1732 H1756 0.950 . S
C1733 C1750 1.574 . S
C1733 C1752 1.368 . S
C1733 H1757 0.949 . S
H1734 C1738 0.949 . S
C1735 C1736 1.349 . S
C1735 C1737 1.327 . S
C1735 H1758 0.950 . S
C1736 C1735 1.349 . S
C1736 C1748 1.349 . S
C1737 C1735 1.327 . S
C1737 C1753 1.429 . S
C1737 H1759 0.950 . S
C1738 H1734 0.949 . S
C1738 C1746 1.574 . S
C1738 C1754 1.368 . S
H1739 C1747 0.950 . S
H1740 C1745 0.950 . S
H1741 C1746 0.949 . S
H1742 C1748 0.950 . S
H1743 C1749 0.950 . S
H1744 C1750 0.949 . S
C1745 H1740 0.950 . S
C1745 C1747 1.327 . S
C1745 C1751 1.429 . S
C1746 C1738 1.574 . S
C1746 H1741 0.949 . S
C1746 C1752 1.368 . S
C1747 C1731 1.349 . S
C1747 H1739 0.950 . S
C1747 C1745 1.327 . S
C1748 C1736 1.349 . S
C1748 H1742 0.950 . S
C1748 C1749 1.327 . S
C1749 H1743 0.950 . S
C1749 C1748 1.327 . S
C1749 C1753 1.429 . S
C1750 C1733 1.574 . S
C1750 H1744 0.949 . S
C1750 C1754 1.368 . S
C1751 C1732 1.429 . S
C1751 C1745 1.429 . S
C1751 C1752 1.523 . S
C1752 C1733 1.368 . S
C1752 C1746 1.368 . S
C1752 C1751 1.523 . S
C1753 C1737 1.429 . S
C1753 C1749 1.429 . S
C1753 C1754 1.523 . S
C1754 C1738 1.368 . S
C1754 C1750 1.368 . S
C1754 C1753 1.523 . S
H1755 C1730 0.950 . S
H1756 C1732 0.950 . S
H1757 C1733 0.949 . S
H1758 C1735 0.950 . S
H1759 C1737 0.950 . S
C1760 C1761 1.349 . S
C1760 C1762 1.327 . S
C1760 H1785 0.950 . S
C1761 C1760 1.349 . S
C1761 C1777 1.349 . S
C1762 C1760 1.327 . S
C1762 C1781 1.429 . S
C1762 H1786 0.950 1_545 S
C1763 C1780 1.574 . S
C1763 C1782 1.368 . S
C1763 H1787 0.949 . S
H1764 C1768 0.988 . S
C1765 C1766 1.349 . S
C1765 C1767 1.327 . S
C1765 H1788 0.950 1_655 S
C1766 C1765 1.349 . S
C1766 C1778 1.349 1_545 S
C1767 C1765 1.327 . S
C1767 C1783 1.429 . S
C1767 H1789 0.950 . S
C1768 H1764 0.988 . S
C1768 C1776 1.567 1_565 S
C1768 C1784 1.335 1_565 S
H1769 C1777 0.950 . S
H1770 C1775 0.950 . S
H1771 C1776 0.949 1_565 S
H1772 C1778 0.950 . S
H1773 C1779 0.950 . S
H1774 C1780 0.949 . S
C1775 H1770 0.950 . S
C1775 C1777 1.327 . S
C1775 C1781 1.429 . S
C1776 C1768 1.567 1_545 S
C1776 H1771 0.949 1_545 S
C1776 C1782 1.368 . S
C1777 C1761 1.349 . S
C1777 H1769 0.950 . S
C1777 C1775 1.327 . S
C1778 C1766 1.349 1_565 S
C1778 H1772 0.950 . S
C1778 C1779 1.327 . S
C1779 H1773 0.950 . S
C1779 C1778 1.327 . S
C1779 C1783 1.429 1_565 S
C1780 C1763 1.574 . S
C1780 H1774 0.949 . S
C1780 C1784 1.368 . S
C1781 C1762 1.429 . S
C1781 C1775 1.429 . S
C1781 C1782 1.523 . S
C1782 C1763 1.368 . S
C1782 C1776 1.368 . S
C1782 C1781 1.523 . S
C1783 C1767 1.429 . S
C1783 C1779 1.429 1_545 S
C1783 C1784 1.523 . S
C1784 C1768 1.335 1_545 S
C1784 C1780 1.368 . S
C1784 C1783 1.523 . S
H1785 C1760 0.950 . S
H1786 C1762 0.950 1_565 S
H1787 C1763 0.949 . S
H1788 C1765 0.950 1_455 S
H1789 C1767 0.950 . S
C1790 C1791 1.349 . S
C1790 C1792 1.327 . S
C1790 H1815 0.950 . S
C1791 C1790 1.349 . S
C1791 C1807 1.349 . S
C1792 C1790 1.327 . S
C1792 C1811 1.429 . S
C1792 H1816 0.950 . S
C1793 C1810 1.574 . S
C1793 C1812 1.368 . S
C1793 H1817 0.949 . S
H1794 C1798 0.949 . S
C1795 C1796 1.349 . S
C1795 C1797 1.327 . S
C1795 H1818 0.950 . S
C1796 C1795 1.349 . S
C1796 C1808 1.349 . S
C1797 C1795 1.327 . S
C1797 C1813 1.429 . S
C1797 H1819 0.950 . S
C1798 H1794 0.949 . S
C1798 C1806 1.574 . S
C1798 C1814 1.368 . S
H1799 C1807 0.950 . S
H1800 C1805 0.950 . S
H1801 C1806 0.949 . S
H1802 C1808 0.950 . S
H1803 C1809 0.950 . S
H1804 C1810 0.949 . S
C1805 H1800 0.950 . S
C1805 C1807 1.327 . S
C1805 C1811 1.429 . S
C1806 C1798 1.574 . S
C1806 H1801 0.949 . S
C1806 C1812 1.368 . S
C1807 C1791 1.349 . S
C1807 H1799 0.950 . S
C1807 C1805 1.327 . S
C1808 C1796 1.349 . S
C1808 H1802 0.950 . S
C1808 C1809 1.327 . S
C1809 H1803 0.950 . S
C1809 C1808 1.327 . S
C1809 C1813 1.429 . S
C1810 C1793 1.574 . S
C1810 H1804 0.949 . S
C1810 C1814 1.368 . S
C1811 C1792 1.429 . S
C1811 C1805 1.429 . S
C1811 C1812 1.523 . S
C1812 C1793 1.368 . S
C1812 C1806 1.368 . S
C1812 C1811 1.523 . S
C1813 C1797 1.429 . S
C1813 C1809 1.429 . S
C1813 C1814 1.523 . S
C1814 C1798 1.368 . S
C1814 C1810 1.368 . S
C1814 C1813 1.523 . S
H1815 C1790 0.950 . S
H1816 C1792 0.950 . S
H1817 C1793 0.949 . S
H1818 C1795 0.950 . S
H1819 C1797 0.950 . S
C1820 C1821 1.349 1_545 S
C1820 C1822 1.327 . S
C1820 H1845 0.950 . S
C1821 C1820 1.349 1_565 S
C1821 C1837 1.349 . S
C1822 C1820 1.327 . S
C1822 C1841 1.429 . S
C1822 H1846 0.950 . S
C1823 C1840 1.574 . S
C1823 C1842 1.368 1_565 S
C1823 H1847 0.949 . S
H1824 C1828 0.949 . S
C1825 C1826 1.319 1_565 S
C1825 C1827 1.332 . S
C1825 H1848 0.975 . S
C1826 C1825 1.319 1_545 S
C1826 C1838 1.349 . S
C1827 C1825 1.332 . S
C1827 C1843 1.429 1_565 S
C1827 H1849 0.950 . S
C1828 H1824 0.949 . S
C1828 C1836 1.574 . S
C1828 C1844 1.368 . S
H1829 C1837 0.950 . S
H1830 C1835 0.950 . S
H1831 C1836 0.949 . S
H1832 C1838 0.950 . S
H1833 C1839 0.950 . S
H1834 C1840 0.949 . S
C1835 H1830 0.950 . S
C1835 C1837 1.327 . S
C1835 C1841 1.429 1_565 S
C1836 C1828 1.574 . S
C1836 H1831 0.949 . S
C1836 C1842 1.368 . S
C1837 C1821 1.349 . S
C1837 H1829 0.950 . S
C1837 C1835 1.327 . S
C1838 C1826 1.349 . S
C1838 H1832 0.950 . S
C1838 C1839 1.327 . S
C1839 H1833 0.950 . S
C1839 C1838 1.327 . S
C1839 C1843 1.429 . S
C1840 C1823 1.574 . S
C1840 H1834 0.949 . S
C1840 C1844 1.368 1_565 S
C1841 C1822 1.429 . S
C1841 C1835 1.429 1_545 S
C1841 C1842 1.523 . S
C1842 C1823 1.368 1_545 S
C1842 C1836 1.368 . S
C1842 C1841 1.523 . S
C1843 C1827 1.429 1_545 S
C1843 C1839 1.429 . S
C1843 C1844 1.523 . S
C1844 C1828 1.368 . S
C1844 C1840 1.368 1_545 S
C1844 C1843 1.523 . S
H1845 C1820 0.950 . S
H1846 C1822 0.950 . S
H1847 C1823 0.949 . S
H1848 C1825 0.975 . S
H1849 C1827 0.950 . S
C1850 C1851 1.349 . S
C1850 C1852 1.327 . S
C1850 H1875 0.950 . S
C1851 C1850 1.349 . S
C1851 C1867 1.349 . S
C1852 C1850 1.327 . S
C1852 C1871 1.429 . S
C1852 H1876 0.950 . S
C1853 C1870 1.574 . S
C1853 C1872 1.368 . S
C1853 H1877 0.949 . S
H1854 C1858 0.949 . S
C1855 C1856 1.349 . S
C1855 C1857 1.327 . S
C1855 H1878 0.950 . S
C1856 C1855 1.349 . S
C1856 C1868 1.349 . S
C1857 C1855 1.327 . S
C1857 C1873 1.429 . S
C1857 H1879 0.950 . S
C1858 H1854 0.949 . S
C1858 C1866 1.574 . S
C1858 C1874 1.368 . S
H1859 C1867 0.950 . S
H1860 C1865 0.950 . S
H1861 C1866 0.949 . S
H1862 C1868 0.950 . S
H1863 C1869 0.950 . S
H1864 C1870 0.949 . S
C1865 H1860 0.950 . S
C1865 C1867 1.327 . S
C1865 C1871 1.429 . S
C1866 C1858 1.574 . S
C1866 H1861 0.949 . S
C1866 C1872 1.368 . S
C1867 C1851 1.349 . S
C1867 H1859 0.950 . S
C1867 C1865 1.327 . S
C1868 C1856 1.349 . S
C1868 H1862 0.950 . S
C1868 C1869 1.327 . S
C1869 H1863 0.950 . S
C1869 C1868 1.327 . S
C1869 C1873 1.429 . S
C1870 C1853 1.574 . S
C1870 H1864 0.949 . S
C1870 C1874 1.368 . S
C1871 C1852 1.429 . S
C1871 C1865 1.429 . S
C1871 C1872 1.523 . S
C1872 C1853 1.368 . S
C1872 C1866 1.368 . S
C1872 C1871 1.523 . S
C1873 C1857 1.429 . S
C1873 C1869 1.429 . S
C1873 C1874 1.523 . S
C1874 C1858 1.368 . S
C1874 C1870 1.368 . S
C1874 C1873 1.523 . S
H1875 C1850 0.950 . S
H1876 C1852 0.950 . S
H1877 C1853 0.949 . S
H1878 C1855 0.950 . S
H1879 C1857 0.950 . S
C1880 C1881 1.349 . S
C1880 C1882 1.327 . S
C1880 H1905 0.950 . S
C1881 C1880 1.349 . S
C1881 C1897 1.349 1_554 S
C1882 C1880 1.327 . S
C1882 C1901 1.429 . S
C1882 H1906 0.950 . S
C1883 C1900 1.574 1_556 S
C1883 C1902 1.368 1_556 S
C1883 H1907 0.949 . S
H1884 C1888 0.949 . S
C1885 C1886 1.349 . S
C1885 C1887 1.327 . S
C1885 H1908 0.950 . S
C1886 C1885 1.349 . S
C1886 C1898 1.349 . S
C1887 C1885 1.327 . S
C1887 C1903 1.429 . S
C1887 H1909 0.950 1_554 S
C1888 H1884 0.949 . S
C1888 C1896 1.574 . S
C1888 C1904 1.368 . S
H1889 C1897 0.950 . S
H1890 C1895 0.950 . S
H1891 C1896 0.949 . S
H1892 C1898 0.950 . S
H1893 C1899 0.950 . S
H1894 C1900 0.949 1_556 S
C1895 H1890 0.950 . S
C1895 C1897 1.327 . S
C1895 C1901 1.429 1_556 S
C1896 C1888 1.574 . S
C1896 H1891 0.949 . S
C1896 C1902 1.368 . S
C1897 C1881 1.349 1_556 S
C1897 H1889 0.950 . S
C1897 C1895 1.327 . S
C1898 C1886 1.349 . S
C1898 H1892 0.950 . S
C1898 C1899 1.327 . S
C1899 H1893 0.950 . S
C1899 C1898 1.327 . S
C1899 C1903 1.429 . S
C1900 C1883 1.574 1_554 S
C1900 H1894 0.949 1_554 S
C1900 C1904 1.368 . S
C1901 C1882 1.429 . S
C1901 C1895 1.429 1_554 S
C1901 C1902 1.523 . S
C1902 C1883 1.368 1_554 S
C1902 C1896 1.368 . S
C1902 C1901 1.523 . S
C1903 C1887 1.429 . S
C1903 C1899 1.429 . S
C1903 C1904 1.523 . S
C1904 C1888 1.368 . S
C1904 C1900 1.368 . S
C1904 C1903 1.523 . S
H1905 C1880 0.950 . S
H1906 C1882 0.950 . S
H1907 C1883 0.949 . S
H1908 C1885 0.950 . S
H1909 C1887 0.950 1_556 S
C1910 C1911 1.349 . S
C1910 C1912 1.327 . S
C1910 H1935 0.950 . S
C1911 C1910 1.349 . S
C1911 C1927 1.349 1_554 S
C1912 C1910 1.327 . S
C1912 C1931 1.429 . S
C1912 H1936 0.950 . S
C1913 C1930 1.574 . S
C1913 C1932 1.368 1_556 S
C1913 H1937 0.949 . S
H1914 C1918 0.949 . S
C1915 C1916 1.349 . S
C1915 C1917 1.327 . S
C1915 H1938 0.950 . S
C1916 C1915 1.349 . S
C1916 C1928 1.349 1_556 S
C1917 C1915 1.327 . S
C1917 C1933 1.443 . S
C1917 H1939 0.950 . S
C1918 H1914 0.949 . S
C1918 C1926 1.574 . S
C1918 C1934 1.368 . S
H1919 C1927 0.950 . S
H1920 C1925 0.950 . S
H1921 C1926 0.949 . S
H1922 C1928 0.950 . S
H1923 C1929 0.950 . S
H1924 C1930 0.949 . S
C1925 H1920 0.950 . S
C1925 C1927 1.327 . S
C1925 C1931 1.429 1_556 S
C1926 C1918 1.574 . S
C1926 H1921 0.949 . S
C1926 C1932 1.368 . S
C1927 C1911 1.349 1_556 S
C1927 H1919 0.950 . S
C1927 C1925 1.327 . S
C1928 C1916 1.349 1_554 S
C1928 H1922 0.950 . S
C1928 C1929 1.327 . S
C1929 H1923 0.950 . S
C1929 C1928 1.327 . S
C1929 C1933 1.416 1_554 S
C1930 C1913 1.574 . S
C1930 H1924 0.949 . S
C1930 C1934 1.368 1_556 S
C1931 C1912 1.429 . S
C1931 C1925 1.429 1_554 S
C1931 C1932 1.523 . S
C1932 C1913 1.368 1_554 S
C1932 C1926 1.368 . S
C1932 C1931 1.523 . S
C1933 C1917 1.443 . S
C1933 C1929 1.416 1_556 S
C1933 C1934 1.521 1_556 S
C1934 C1918 1.368 . S
C1934 C1930 1.368 1_554 S
C1934 C1933 1.521 1_554 S
H1935 C1910 0.950 . S
H1936 C1912 0.950 . S
H1937 C1913 0.949 . S
H1938 C1915 0.950 . S
H1939 C1917 0.950 . S
C1940 C1941 1.349 . S
C1940 C1942 1.327 . S
C1940 H1965 0.950 . S
C1941 C1940 1.349 . S
C1941 C1957 1.349 . S
C1942 C1940 1.327 . S
C1942 C1961 1.429 . S
C1942 H1966 0.950 . S
C1943 C1960 1.574 . S
C1943 C1962 1.368 . S
C1943 H1967 0.949 . S
H1944 C1948 0.949 . S
C1945 C1946 1.349 . S
C1945 C1947 1.327 . S
C1945 H1968 0.950 . S
C1946 C1945 1.349 . S
C1946 C1958 1.349 . S
C1947 C1945 1.327 . S
C1947 C1963 1.429 . S
C1947 H1969 0.950 . S
C1948 H1944 0.949 . S
C1948 C1956 1.574 . S
C1948 C1964 1.368 . S
H1949 C1957 0.950 . S
H1950 C1955 0.950 . S
H1951 C1956 0.949 . S
H1952 C1958 0.950 . S
H1953 C1959 0.950 . S
H1954 C1960 0.949 . S
C1955 H1950 0.950 . S
C1955 C1957 1.327 . S
C1955 C1961 1.429 . S
C1956 C1948 1.574 . S
C1956 H1951 0.949 . S
C1956 C1962 1.368 . S
C1957 C1941 1.349 . S
C1957 H1949 0.950 . S
C1957 C1955 1.327 . S
C1958 C1946 1.349 . S
C1958 H1952 0.950 . S
C1958 C1959 1.327 . S
C1959 H1953 0.950 . S
C1959 C1958 1.327 . S
C1959 C1963 1.429 . S
C1960 C1943 1.574 . S
C1960 H1954 0.949 . S
C1960 C1964 1.368 . S
C1961 C1942 1.429 . S
C1961 C1955 1.429 . S
C1961 C1962 1.523 . S
C1962 C1943 1.368 . S
C1962 C1956 1.368 . S
C1962 C1961 1.523 . S
C1963 C1947 1.429 . S
C1963 C1959 1.429 . S
C1963 C1964 1.523 . S
C1964 C1948 1.368 . S
C1964 C1960 1.368 . S
C1964 C1963 1.523 . S
H1965 C1940 0.950 . S
H1966 C1942 0.950 . S
H1967 C1943 0.949 . S
H1968 C1945 0.950 . S
H1969 C1947 0.950 . S
C1970 C1971 1.349 . S
C1970 C1972 1.327 . S
C1970 H1995 0.950 . S
C1971 C1970 1.349 . S
C1971 C1987 1.349 . S
C1972 C1970 1.327 . S
C1972 C1991 1.429 . S
C1972 H1996 0.950 . S
C1973 C1990 1.574 . S
C1973 C1992 1.368 . S
C1973 H1997 0.949 . S
H1974 C1978 0.949 . S
C1975 C1976 1.349 . S
C1975 C1977 1.327 . S
C1975 H1998 0.950 . S
C1976 C1975 1.349 . S
C1976 C1988 1.349 . S
C1977 C1975 1.327 . S
C1977 C1993 1.429 . S
C1977 H1999 0.950 . S
C1978 H1974 0.949 . S
C1978 C1986 1.574 . S
C1978 C1994 1.368 . S
H1979 C1987 0.950 . S
H1980 C1985 0.950 . S
H1981 C1986 0.949 . S
H1982 C1988 0.950 . S
H1983 C1989 0.950 . S
H1984 C1990 0.949 . S
C1985 H1980 0.950 . S
C1985 C1987 1.327 . S
C1985 C1991 1.429 . S
C1986 C1978 1.574 . S
C1986 H1981 0.949 . S
C1986 C1992 1.368 . S
C1987 C1971 1.349 . S
C1987 H1979 0.950 . S
C1987 C1985 1.327 . S
C1988 C1976 1.349 . S
C1988 H1982 0.950 . S
C1988 C1989 1.327 . S
C1989 H1983 0.950 . S
C1989 C1988 1.327 . S
C1989 C1993 1.429 . S
C1990 C1973 1.574 . S
C1990 H1984 0.949 . S
C1990 C1994 1.368 . S
C1991 C1972 1.429 . S
C1991 C1985 1.429 . S
C1991 C1992 1.523 . S
C1992 C1973 1.368 . S
C1992 C1986 1.368 . S
C1992 C1991 1.523 . S
C1993 C1977 1.429 . S
C1993 C1989 1.429 . S
C1993 C1994 1.523 . S
C1994 C1978 1.368 . S
C1994 C1990 1.368 . S
C1994 C1993 1.523 . S
H1995 C1970 0.950 . S
H1996 C1972 0.950 . S
H1997 C1973 0.949 . S
H1998 C1975 0.950 . S
H1999 C1977 0.950 . S
C2000 C2001 1.349 . S
C2000 C2002 1.327 . S
C2000 H2025 0.950 . S
C2001 C2000 1.349 . S
C2001 C2017 1.349 . S
C2002 C2000 1.327 . S
C2002 C2021 1.429 . S
C2002 H2026 0.950 . S
C2003 C2020 1.574 . S
C2003 C2022 1.368 . S
C2003 H2027 0.949 . S
H2004 C2008 0.949 . S
C2005 C2006 1.349 . S
C2005 C2007 1.327 . S
C2005 H2028 0.950 . S
C2006 C2005 1.349 . S
C2006 C2018 1.349 . S
C2007 C2005 1.327 . S
C2007 C2023 1.429 . S
C2007 H2029 0.950 . S
C2008 H2004 0.949 . S
C2008 C2016 1.574 . S
C2008 C2024 1.368 . S
H2009 C2017 0.950 . S
H2010 C2015 0.950 . S
H2011 C2016 0.949 . S
H2012 C2018 0.950 . S
H2013 C2019 0.950 . S
H2014 C2020 0.949 . S
C2015 H2010 0.950 . S
C2015 C2017 1.327 . S
C2015 C2021 1.429 . S
C2016 C2008 1.574 . S
C2016 H2011 0.949 . S
C2016 C2022 1.368 . S
C2017 C2001 1.349 . S
C2017 H2009 0.950 . S
C2017 C2015 1.327 . S
C2018 C2006 1.349 . S
C2018 H2012 0.950 . S
C2018 C2019 1.327 . S
C2019 H2013 0.950 . S
C2019 C2018 1.327 . S
C2019 C2023 1.429 . S
C2020 C2003 1.574 . S
C2020 H2014 0.949 . S
C2020 C2024 1.368 . S
C2021 C2002 1.429 . S
C2021 C2015 1.429 . S
C2021 C2022 1.523 . S
C2022 C2003 1.368 . S
C2022 C2016 1.368 . S
C2022 C2021 1.523 . S
C2023 C2007 1.429 . S
C2023 C2019 1.429 . S
C2023 C2024 1.523 . S
C2024 C2008 1.368 . S
C2024 C2020 1.368 . S
C2024 C2023 1.523 . S
H2025 C2000 0.950 . S
H2026 C2002 0.950 . S
H2027 C2003 0.949 . S
H2028 C2005 0.950 . S
H2029 C2007 0.950 . S
C2030 C2031 1.349 . S
C2030 C2032 1.327 . S
C2030 H2055 0.950 . S
C2031 C2030 1.349 . S
C2031 C2047 1.349 . S
C2032 C2030 1.327 . S
C2032 C2051 1.429 . S
C2032 H2056 0.950 . S
C2033 C2050 1.574 . S
C2033 C2052 1.368 . S
C2033 H2057 0.949 . S
H2034 C2038 0.949 . S
C2035 C2036 1.349 . S
C2035 C2037 1.327 . S
C2035 H2058 0.950 . S
C2036 C2035 1.349 . S
C2036 C2048 1.349 . S
C2037 C2035 1.327 . S
C2037 C2053 1.429 . S
C2037 H2059 0.950 . S
C2038 H2034 0.949 . S
C2038 C2046 1.574 . S
C2038 C2054 1.368 . S
H2039 C2047 0.950 . S
H2040 C2045 0.950 . S
H2041 C2046 0.949 . S
H2042 C2048 0.950 . S
H2043 C2049 0.950 . S
H2044 C2050 0.949 . S
C2045 H2040 0.950 . S
C2045 C2047 1.327 . S
C2045 C2051 1.429 . S
C2046 C2038 1.574 . S
C2046 H2041 0.949 . S
C2046 C2052 1.368 . S
C2047 C2031 1.349 . S
C2047 H2039 0.950 . S
C2047 C2045 1.327 . S
C2048 C2036 1.349 . S
C2048 H2042 0.950 . S
C2048 C2049 1.327 . S
C2049 H2043 0.950 . S
C2049 C2048 1.327 . S
C2049 C2053 1.429 . S
C2050 C2033 1.574 . S
C2050 H2044 0.949 . S
C2050 C2054 1.368 . S
C2051 C2032 1.429 . S
C2051 C2045 1.429 . S
C2051 C2052 1.523 . S
C2052 C2033 1.368 . S
C2052 C2046 1.368 . S
C2052 C2051 1.523 . S
C2053 C2037 1.429 . S
C2053 C2049 1.429 . S
C2053 C2054 1.523 . S
C2054 C2038 1.368 . S
C2054 C2050 1.368 . S
C2054 C2053 1.523 . S
H2055 C2030 0.950 . S
H2056 C2032 0.950 . S
H2057 C2033 0.949 . S
H2058 C2035 0.950 . S
H2059 C2037 0.950 . S
C2060 C2061 1.349 . S
C2060 C2062 1.327 . S
C2060 H2085 0.950 . S
C2061 C2060 1.349 . S
C2061 C2077 1.349 . S
C2062 C2060 1.327 . S
C2062 C2081 1.429 . S
C2062 H2086 0.950 . S
C2063 C2080 1.574 . S
C2063 C2082 1.368 . S
C2063 H2087 0.949 . S
H2064 C2068 0.949 . S
C2065 C2066 1.349 . S
C2065 C2067 1.327 . S
C2065 H2088 0.950 . S
C2066 C2065 1.349 . S
C2066 C2078 1.349 . S
C2067 C2065 1.327 . S
C2067 C2083 1.429 . S
C2067 H2089 0.950 . S
C2068 H2064 0.949 . S
C2068 C2076 1.574 . S
C2068 C2084 1.368 . S
H2069 C2077 0.950 . S
H2070 C2075 0.950 . S
H2071 C2076 0.949 . S
H2072 C2078 0.950 . S
H2073 C2079 0.950 . S
H2074 C2080 0.949 . S
C2075 H2070 0.950 . S
C2075 C2077 1.327 . S
C2075 C2081 1.429 . S
C2076 C2068 1.574 . S
C2076 H2071 0.949 . S
C2076 C2082 1.368 . S
C2077 C2061 1.349 . S
C2077 H2069 0.950 . S
C2077 C2075 1.327 . S
C2078 C2066 1.349 . S
C2078 H2072 0.950 . S
C2078 C2079 1.327 . S
C2079 H2073 0.950 . S
C2079 C2078 1.327 . S
C2079 C2083 1.429 . S
C2080 C2063 1.574 . S
C2080 H2074 0.949 . S
C2080 C2084 1.368 . S
C2081 C2062 1.429 . S
C2081 C2075 1.429 . S
C2081 C2082 1.523 . S
C2082 C2063 1.368 . S
C2082 C2076 1.368 . S
C2082 C2081 1.523 . S
C2083 C2067 1.429 . S
C2083 C2079 1.429 . S
C2083 C2084 1.523 . S
C2084 C2068 1.368 . S
C2084 C2080 1.368 . S
C2084 C2083 1.523 . S
H2085 C2060 0.950 . S
H2086 C2062 0.950 . S
H2087 C2063 0.949 . S
H2088 C2065 0.950 . S
H2089 C2067 0.950 . S
C2090 C2091 1.349 . S
C2090 C2092 1.327 . S
C2090 H2115 0.950 . S
C2091 C2090 1.349 . S
C2091 C2107 1.349 . S
C2092 C2090 1.327 . S
C2092 C2111 1.429 . S
C2092 H2116 0.950 . S
C2093 C2110 1.574 . S
C2093 C2112 1.368 . S
C2093 H2117 0.949 . S
H2094 C2098 0.949 . S
C2095 C2096 1.349 . S
C2095 C2097 1.327 . S
C2095 H2118 0.950 . S
C2096 C2095 1.349 . S
C2096 C2108 1.349 . S
C2097 C2095 1.327 . S
C2097 C2113 1.429 . S
C2097 H2119 0.950 . S
C2098 H2094 0.949 . S
C2098 C2106 1.574 . S
C2098 C2114 1.368 . S
H2099 C2107 0.950 . S
H2100 C2105 0.950 . S
H2101 C2106 0.949 . S
H2102 C2108 0.950 . S
H2103 C2109 0.950 . S
H2104 C2110 0.949 . S
C2105 H2100 0.950 . S
C2105 C2107 1.327 . S
C2105 C2111 1.429 . S
C2106 C2098 1.574 . S
C2106 H2101 0.949 . S
C2106 C2112 1.368 . S
C2107 C2091 1.349 . S
C2107 H2099 0.950 . S
C2107 C2105 1.327 . S
C2108 C2096 1.349 . S
C2108 H2102 0.950 . S
C2108 C2109 1.327 . S
C2109 H2103 0.950 . S
C2109 C2108 1.327 . S
C2109 C2113 1.429 . S
C2110 C2093 1.574 . S
C2110 H2104 0.949 . S
C2110 C2114 1.368 . S
C2111 C2092 1.429 . S
C2111 C2105 1.429 . S
C2111 C2112 1.523 . S
C2112 C2093 1.368 . S
C2112 C2106 1.368 . S
C2112 C2111 1.523 . S
C2113 C2097 1.429 . S
C2113 C2109 1.429 . S
C2113 C2114 1.523 . S
C2114 C2098 1.368 . S
C2114 C2110 1.368 . S
C2114 C2113 1.523 . S
H2115 C2090 0.950 . S
H2116 C2092 0.950 . S
H2117 C2093 0.949 . S
H2118 C2095 0.950 . S
H2119 C2097 0.950 . S
C2120 C2121 1.349 . S
C2120 C2122 1.327 . S
C2120 H2145 0.950 . S
C2121 C2120 1.349 . S
C2121 C2137 1.349 . S
C2122 C2120 1.327 . S
C2122 C2141 1.429 . S
C2122 H2146 0.950 . S
C2123 C2140 1.574 . S
C2123 C2142 1.368 . S
C2123 H2147 0.949 . S
H2124 C2128 0.949 . S
C2125 C2126 1.349 . S
C2125 C2127 1.327 . S
C2125 H2148 0.950 . S
C2126 C2125 1.349 . S
C2126 C2138 1.349 . S
C2127 C2125 1.327 . S
C2127 C2143 1.429 . S
C2127 H2149 0.950 . S
C2128 H2124 0.949 . S
C2128 C2136 1.574 . S
C2128 C2144 1.368 . S
H2129 C2137 0.950 . S
H2130 C2135 0.950 . S
H2131 C2136 0.949 . S
H2132 C2138 0.950 . S
H2133 C2139 0.950 . S
H2134 C2140 0.949 . S
C2135 H2130 0.950 . S
C2135 C2137 1.327 . S
C2135 C2141 1.429 . S
C2136 C2128 1.574 . S
C2136 H2131 0.949 . S
C2136 C2142 1.368 . S
C2137 C2121 1.349 . S
C2137 H2129 0.950 . S
C2137 C2135 1.327 . S
C2138 C2126 1.349 . S
C2138 H2132 0.950 . S
C2138 C2139 1.327 . S
C2139 H2133 0.950 . S
C2139 C2138 1.327 . S
C2139 C2143 1.429 . S
C2140 C2123 1.574 . S
C2140 H2134 0.949 . S
C2140 C2144 1.368 . S
C2141 C2122 1.429 . S
C2141 C2135 1.429 . S
C2141 C2142 1.523 . S
C2142 C2123 1.368 . S
C2142 C2136 1.368 . S
C2142 C2141 1.523 . S
C2143 C2127 1.429 . S
C2143 C2139 1.429 . S
C2143 C2144 1.523 . S
C2144 C2128 1.368 . S
C2144 C2140 1.368 . S
C2144 C2143 1.523 . S
H2145 C2120 0.950 . S
H2146 C2122 0.950 . S
H2147 C2123 0.949 . S
H2148 C2125 0.950 . S
H2149 C2127 0.950 . S
C2150 C2151 1.349 . S
C2150 C2152 1.327 . S
C2150 H2175 0.950 . S
C2151 C2150 1.349 . S
C2151 C2167 1.349 . S
C2152 C2150 1.327 . S
C2152 C2171 1.429 . S
C2152 H2176 0.950 . S
C2153 C2170 1.574 . S
C2153 C2172 1.368 . S
C2153 H2177 0.949 . S
H2154 C2158 0.949 . S
C2155 C2156 1.349 . S
C2155 C2157 1.327 . S
C2155 H2178 0.950 . S
C2156 C2155 1.349 . S
C2156 C2168 1.349 . S
C2157 C2155 1.327 . S
C2157 C2173 1.429 . S
C2157 H2179 0.950 . S
C2158 H2154 0.949 . S
C2158 C2166 1.574 . S
C2158 C2174 1.368 . S
H2159 C2167 0.950 . S
H2160 C2165 0.950 . S
H2161 C2166 0.949 . S
H2162 C2168 0.950 . S
H2163 C2169 0.950 . S
H2164 C2170 0.949 . S
C2165 H2160 0.950 . S
C2165 C2167 1.327 . S
C2165 C2171 1.429 . S
C2166 C2158 1.574 . S
C2166 H2161 0.949 . S
C2166 C2172 1.368 . S
C2167 C2151 1.349 . S
C2167 H2159 0.950 . S
C2167 C2165 1.327 . S
C2168 C2156 1.349 . S
C2168 H2162 0.950 . S
C2168 C2169 1.327 . S
C2169 H2163 0.950 . S
C2169 C2168 1.327 . S
C2169 C2173 1.429 . S
C2170 C2153 1.574 . S
C2170 H2164 0.949 . S
C2170 C2174 1.368 . S
C2171 C2152 1.429 . S
C2171 C2165 1.429 . S
C2171 C2172 1.523 . S
C2172 C2153 1.368 . S
C2172 C2166 1.368 . S
C2172 C2171 1.523 . S
C2173 C2157 1.429 . S
C2173 C2169 1.429 . S
C2173 C2174 1.523 . S
C2174 C2158 1.368 . S
C2174 C2170 1.368 . S
C2174 C2173 1.523 . S
H2175 C2150 0.950 . S
H2176 C2152 0.950 . S
H2177 C2153 0.949 . S
H2178 C2155 0.950 . S
H2179 C2157 0.950 . S
C2180 C2181 1.349 . S
C2180 C2182 1.327 . S
C2180 H2205 0.950 1_455 S
C2181 C2180 1.349 . S
C2181 C2197 1.349 . S
C2182 C2180 1.327 . S
C2182 C2201 1.429 . S
C2182 H2206 0.950 . S
C2183 C2200 1.574 . S
C2183 C2202 1.368 . S
C2183 H2207 0.949 . S
H2184 C2188 0.949 . S
C2185 C2186 1.349 . S
C2185 C2187 1.327 . S
C2185 H2208 0.950 . S
C2186 C2185 1.349 . S
C2186 C2198 1.349 . S
C2187 C2185 1.327 . S
C2187 C2203 1.429 . S
C2187 H2209 0.950 . S
C2188 H2184 0.949 . S
C2188 C2196 1.574 . S
C2188 C2204 1.368 . S
H2189 C2197 0.950 . S
H2190 C2195 0.950 . S
H2191 C2196 0.949 . S
H2192 C2198 0.950 . S
H2193 C2199 0.950 . S
H2194 C2200 0.949 . S
C2195 H2190 0.950 . S
C2195 C2197 1.327 . S
C2195 C2201 1.429 . S
C2196 C2188 1.574 . S
C2196 H2191 0.949 . S
C2196 C2202 1.368 . S
C2197 C2181 1.349 . S
C2197 H2189 0.950 . S
C2197 C2195 1.327 . S
C2198 C2186 1.349 . S
C2198 H2192 0.950 . S
C2198 C2199 1.327 . S
C2199 H2193 0.950 . S
C2199 C2198 1.327 . S
C2199 C2203 1.429 . S
C2200 C2183 1.574 . S
C2200 H2194 0.949 . S
C2200 C2204 1.368 . S
C2201 C2182 1.429 . S
C2201 C2195 1.429 . S
C2201 C2202 1.523 . S
C2202 C2183 1.368 . S
C2202 C2196 1.368 . S
C2202 C2201 1.523 . S
C2203 C2187 1.429 . S
C2203 C2199 1.429 . S
C2203 C2204 1.523 . S
C2204 C2188 1.368 . S
C2204 C2200 1.368 . S
C2204 C2203 1.523 . S
H2205 C2180 0.950 1_655 S
H2206 C2182 0.950 . S
H2207 C2183 0.949 . S
H2208 C2185 0.950 . S
H2209 C2187 0.950 . S
C2210 C2211 1.349 . S
C2210 C2212 1.327 . S
C2210 H2235 0.950 . S
C2211 C2210 1.349 . S
C2211 C2227 1.349 . S
C2212 C2210 1.327 . S
C2212 C2231 1.429 . S
C2212 H2236 0.950 . S
C2213 C2230 1.574 . S
C2213 C2232 1.368 . S
C2213 H2237 0.949 . S
H2214 C2218 0.949 . S
C2215 C2216 1.349 . S
C2215 C2217 1.327 . S
C2215 H2238 0.950 . S
C2216 C2215 1.349 . S
C2216 C2228 1.349 . S
C2217 C2215 1.327 . S
C2217 C2233 1.429 . S
C2217 H2239 0.950 . S
C2218 H2214 0.949 . S
C2218 C2226 1.574 . S
C2218 C2234 1.368 . S
H2219 C2227 0.950 . S
H2220 C2225 0.950 . S
H2221 C2226 0.949 . S
H2222 C2228 0.950 . S
H2223 C2229 0.950 . S
H2224 C2230 0.949 . S
C2225 H2220 0.950 . S
C2225 C2227 1.327 . S
C2225 C2231 1.429 . S
C2226 C2218 1.574 . S
C2226 H2221 0.949 . S
C2226 C2232 1.368 . S
C2227 C2211 1.349 . S
C2227 H2219 0.950 . S
C2227 C2225 1.327 . S
C2228 C2216 1.349 . S
C2228 H2222 0.950 . S
C2228 C2229 1.327 . S
C2229 H2223 0.950 . S
C2229 C2228 1.327 . S
C2229 C2233 1.429 . S
C2230 C2213 1.574 . S
C2230 H2224 0.949 . S
C2230 C2234 1.368 . S
C2231 C2212 1.429 . S
C2231 C2225 1.429 . S
C2231 C2232 1.523 . S
C2232 C2213 1.368 . S
C2232 C2226 1.368 . S
C2232 C2231 1.523 . S
C2233 C2217 1.429 . S
C2233 C2229 1.429 . S
C2233 C2234 1.523 . S
C2234 C2218 1.368 . S
C2234 C2230 1.368 . S
C2234 C2233 1.523 . S
H2235 C2210 0.950 . S
H2236 C2212 0.950 . S
H2237 C2213 0.949 . S
H2238 C2215 0.950 . S
H2239 C2217 0.950 . S
C2240 C2241 1.349 . S
C2240 C2242 1.327 . S
C2240 H2265 0.950 . S
C2241 C2240 1.349 . S
C2241 C2257 1.349 . S
C2242 C2240 1.327 . S
C2242 C2261 1.429 . S
C2242 H2266 0.950 . S
C2243 C2260 1.574 . S
C2243 C2262 1.368 . S
C2243 H2267 0.949 . S
H2244 C2248 0.949 . S
C2245 C2246 1.349 1_556 S
C2245 C2247 1.327 . S
C2245 H2268 0.950 . S
C2246 C2245 1.349 1_554 S
C2246 C2258 1.349 . S
C2247 C2245 1.327 . S
C2247 C2263 1.429 . S
C2247 H2269 0.950 . S
C2248 H2244 0.949 . S
C2248 C2256 1.574 . S
C2248 C2264 1.368 . S
H2249 C2257 0.950 . S
H2250 C2255 0.950 . S
H2251 C2256 0.949 . S
H2252 C2258 0.950 . S
H2253 C2259 0.950 . S
H2254 C2260 0.949 . S
C2255 H2250 0.950 . S
C2255 C2257 1.327 . S
C2255 C2261 1.429 . S
C2256 C2248 1.574 . S
C2256 H2251 0.949 . S
C2256 C2262 1.368 . S
C2257 C2241 1.349 . S
C2257 H2249 0.950 . S
C2257 C2255 1.327 . S
C2258 C2246 1.349 . S
C2258 H2252 0.950 . S
C2258 C2259 1.327 . S
C2259 H2253 0.950 . S
C2259 C2258 1.327 . S
C2259 C2263 1.429 1_554 S
C2260 C2243 1.574 . S
C2260 H2254 0.949 . S
C2260 C2264 1.368 . S
C2261 C2242 1.429 . S
C2261 C2255 1.429 . S
C2261 C2262 1.523 . S
C2262 C2243 1.368 . S
C2262 C2256 1.368 . S
C2262 C2261 1.523 . S
C2263 C2247 1.429 . S
C2263 C2259 1.429 1_556 S
C2263 C2264 1.523 . S
C2264 C2248 1.368 . S
C2264 C2260 1.368 . S
C2264 C2263 1.523 . S
H2265 C2240 0.950 . S
H2266 C2242 0.950 . S
H2267 C2243 0.949 . S
H2268 C2245 0.950 . S
H2269 C2247 0.950 . S
C2270 C2271 1.349 . S
C2270 C2272 1.327 . S
C2270 H2295 0.950 . S
C2271 C2270 1.349 . S
C2271 C2287 1.349 . S
C2272 C2270 1.327 . S
C2272 C2291 1.429 . S
C2272 H2296 0.950 . S
C2273 C2290 1.574 . S
C2273 C2292 1.368 . S
C2273 H2297 0.949 . S
H2274 C2278 0.949 . S
C2275 C2276 1.349 . S
C2275 C2277 1.327 . S
C2275 H2298 0.950 . S
C2276 C2275 1.349 . S
C2276 C2288 1.349 . S
C2277 C2275 1.327 . S
C2277 C2293 1.429 . S
C2277 H2299 0.950 . S
C2278 H2274 0.949 . S
C2278 C2286 1.574 . S
C2278 C2294 1.368 . S
H2279 C2287 0.950 . S
H2280 C2285 0.950 . S
H2281 C2286 0.949 . S
H2282 C2288 0.950 . S
H2283 C2289 0.950 . S
H2284 C2290 0.949 . S
C2285 H2280 0.950 . S
C2285 C2287 1.327 . S
C2285 C2291 1.429 . S
C2286 C2278 1.574 . S
C2286 H2281 0.949 . S
C2286 C2292 1.368 . S
C2287 C2271 1.349 . S
C2287 H2279 0.950 . S
C2287 C2285 1.327 . S
C2288 C2276 1.349 . S
C2288 H2282 0.950 . S
C2288 C2289 1.327 . S
C2289 H2283 0.950 . S
C2289 C2288 1.327 . S
C2289 C2293 1.429 . S
C2290 C2273 1.574 . S
C2290 H2284 0.949 . S
C2290 C2294 1.368 . S
C2291 C2272 1.429 . S
C2291 C2285 1.429 . S
C2291 C2292 1.523 . S
C2292 C2273 1.368 . S
C2292 C2286 1.368 . S
C2292 C2291 1.523 . S
C2293 C2277 1.429 . S
C2293 C2289 1.429 . S
C2293 C2294 1.523 . S
C2294 C2278 1.368 . S
C2294 C2290 1.368 . S
C2294 C2293 1.523 . S
H2295 C2270 0.950 . S
H2296 C2272 0.950 . S
H2297 C2273 0.949 . S
H2298 C2275 0.950 . S
H2299 C2277 0.950 . S
C2300 C2301 1.349 . S
C2300 C2302 1.327 . S
C2300 H2325 0.950 . S
C2301 C2300 1.349 . S
C2301 C2317 1.349 . S
C2302 C2300 1.327 . S
C2302 C2321 1.429 . S
C2302 H2326 0.950 . S
C2303 C2320 1.574 . S
C2303 C2322 1.368 . S
C2303 H2327 0.949 1_455 S
H2304 C2308 0.949 . S
C2305 C2306 1.349 . S
C2305 C2307 1.327 . S
C2305 H2328 0.950 . S
C2306 C2305 1.349 . S
C2306 C2318 1.349 . S
C2307 C2305 1.327 . S
C2307 C2323 1.429 . S
C2307 H2329 0.950 . S
C2308 H2304 0.949 . S
C2308 C2316 1.574 . S
C2308 C2324 1.368 . S
H2309 C2317 0.950 1_655 S
H2310 C2315 0.950 1_655 S
H2311 C2316 0.949 . S
H2312 C2318 0.950 . S
H2313 C2319 0.950 . S
H2314 C2320 0.949 . S
C2315 H2310 0.950 1_455 S
C2315 C2317 1.327 . S
C2315 C2321 1.429 . S
C2316 C2308 1.574 . S
C2316 H2311 0.949 . S
C2316 C2322 1.368 . S
C2317 C2301 1.349 . S
C2317 H2309 0.950 1_455 S
C2317 C2315 1.327 . S
C2318 C2306 1.349 . S
C2318 H2312 0.950 . S
C2318 C2319 1.327 . S
C2319 H2313 0.950 . S
C2319 C2318 1.327 . S
C2319 C2323 1.429 . S
C2320 C2303 1.574 . S
C2320 H2314 0.949 . S
C2320 C2324 1.368 . S
C2321 C2302 1.429 . S
C2321 C2315 1.429 . S
C2321 C2322 1.523 . S
C2322 C2303 1.368 . S
C2322 C2316 1.368 . S
C2322 C2321 1.523 . S
C2323 C2307 1.429 . S
C2323 C2319 1.429 . S
C2323 C2324 1.523 . S
C2324 C2308 1.368 . S
C2324 C2320 1.368 . S
C2324 C2323 1.523 . S
H2325 C2300 0.950 . S
H2326 C2302 0.950 . S
H2327 C2303 0.949 1_655 S
H2328 C2305 0.950 . S
H2329 C2307 0.950 . S
C2330 C2331 1.349 . S
C2330 C2332 1.327 . S
C2330 H2355 0.950 . S
C2331 C2330 1.349 . S
C2331 C2347 1.349 . S
C2332 C2330 1.327 . S
C2332 C2351 1.429 . S
C2332 H2356 0.950 . S
C2333 C2350 1.574 . S
C2333 C2352 1.368 . S
C2333 H2357 0.949 . S
H2334 C2338 0.949 . S
C2335 C2336 1.349 . S
C2335 C2337 1.327 . S
C2335 H2358 0.950 . S
C2336 C2335 1.349 . S
C2336 C2348 1.349 . S
C2337 C2335 1.327 . S
C2337 C2353 1.429 . S
C2337 H2359 0.950 . S
C2338 H2334 0.949 . S
C2338 C2346 1.574 . S
C2338 C2354 1.368 . S
H2339 C2347 0.950 . S
H2340 C2345 0.950 . S
H2341 C2346 0.949 . S
H2342 C2348 0.950 . S
H2343 C2349 0.950 . S
H2344 C2350 0.949 . S
C2345 H2340 0.950 . S
C2345 C2347 1.327 . S
C2345 C2351 1.429 . S
C2346 C2338 1.574 . S
C2346 H2341 0.949 . S
C2346 C2352 1.368 . S
C2347 C2331 1.349 . S
C2347 H2339 0.950 . S
C2347 C2345 1.327 . S
C2348 C2336 1.349 . S
C2348 H2342 0.950 . S
C2348 C2349 1.327 . S
C2349 H2343 0.950 . S
C2349 C2348 1.327 . S
C2349 C2353 1.429 . S
C2350 C2333 1.574 . S
C2350 H2344 0.949 . S
C2350 C2354 1.368 . S
C2351 C2332 1.429 . S
C2351 C2345 1.429 . S
C2351 C2352 1.523 . S
C2352 C2333 1.368 . S
C2352 C2346 1.368 . S
C2352 C2351 1.523 . S
C2353 C2337 1.429 . S
C2353 C2349 1.429 . S
C2353 C2354 1.523 . S
C2354 C2338 1.368 . S
C2354 C2350 1.368 . S
C2354 C2353 1.523 . S
H2355 C2330 0.950 . S
H2356 C2332 0.950 . S
H2357 C2333 0.949 . S
H2358 C2335 0.950 . S
H2359 C2337 0.950 . S
C2360 C2361 1.349 . S
C2360 C2362 1.327 . S
C2360 H2385 0.950 . S
C2361 C2360 1.349 . S
C2361 C2377 1.349 . S
C2362 C2360 1.327 . S
C2362 C2381 1.429 . S
C2362 H2386 0.950 . S
C2363 C2380 1.574 . S
C2363 C2382 1.368 . S
C2363 H2387 0.949 . S
H2364 C2368 0.949 . S
C2365 C2366 1.349 . S
C2365 C2367 1.327 . S
C2365 H2388 0.950 . S
C2366 C2365 1.349 . S
C2366 C2378 1.349 . S
C2367 C2365 1.327 . S
C2367 C2383 1.429 . S
C2367 H2389 0.950 . S
C2368 H2364 0.949 . S
C2368 C2376 1.574 . S
C2368 C2384 1.368 . S
H2369 C2377 0.950 . S
H2370 C2375 0.950 . S
H2371 C2376 0.949 . S
H2372 C2378 0.950 . S
H2373 C2379 0.950 . S
H2374 C2380 0.949 . S
C2375 H2370 0.950 . S
C2375 C2377 1.327 . S
C2375 C2381 1.429 . S
C2376 C2368 1.574 . S
C2376 H2371 0.949 . S
C2376 C2382 1.368 . S
C2377 C2361 1.349 . S
C2377 H2369 0.950 . S
C2377 C2375 1.327 . S
C2378 C2366 1.349 . S
C2378 H2372 0.950 . S
C2378 C2379 1.327 . S
C2379 H2373 0.950 . S
C2379 C2378 1.327 . S
C2379 C2383 1.429 . S
C2380 C2363 1.574 . S
C2380 H2374 0.949 . S
C2380 C2384 1.368 . S
C2381 C2362 1.429 . S
C2381 C2375 1.429 . S
C2381 C2382 1.523 . S
C2382 C2363 1.368 . S
C2382 C2376 1.368 . S
C2382 C2381 1.523 . S
C2383 C2367 1.429 . S
C2383 C2379 1.429 . S
C2383 C2384 1.523 . S
C2384 C2368 1.368 . S
C2384 C2380 1.368 . S
C2384 C2383 1.523 . S
H2385 C2360 0.950 . S
H2386 C2362 0.950 . S
H2387 C2363 0.949 . S
H2388 C2365 0.950 . S
H2389 C2367 0.950 . S
C2390 C2391 1.349 . S
C2390 C2392 1.327 . S
C2390 H2415 0.950 . S
C2391 C2390 1.349 . S
C2391 C2407 1.349 . S
C2392 C2390 1.327 . S
C2392 C2411 1.429 . S
C2392 H2416 0.950 . S
C2393 C2410 1.574 . S
C2393 C2412 1.368 . S
C2393 H2417 0.949 . S
H2394 C2398 0.949 . S
C2395 C2396 1.349 . S
C2395 C2397 1.327 . S
C2395 H2418 0.950 . S
C2396 C2395 1.349 . S
C2396 C2408 1.349 . S
C2397 C2395 1.327 . S
C2397 C2413 1.429 . S
C2397 H2419 0.950 . S
C2398 H2394 0.949 . S
C2398 C2406 1.574 . S
C2398 C2414 1.368 . S
H2399 C2407 0.950 . S
H2400 C2405 0.950 . S
H2401 C2406 0.949 . S
H2402 C2408 0.950 . S
H2403 C2409 0.950 . S
H2404 C2410 0.949 . S
C2405 H2400 0.950 . S
C2405 C2407 1.327 . S
C2405 C2411 1.429 . S
C2406 C2398 1.574 . S
C2406 H2401 0.949 . S
C2406 C2412 1.368 . S
C2407 C2391 1.349 . S
C2407 H2399 0.950 . S
C2407 C2405 1.327 . S
C2408 C2396 1.349 . S
C2408 H2402 0.950 . S
C2408 C2409 1.327 . S
C2409 H2403 0.950 . S
C2409 C2408 1.327 . S
C2409 C2413 1.429 . S
C2410 C2393 1.574 . S
C2410 H2404 0.949 . S
C2410 C2414 1.368 . S
C2411 C2392 1.429 . S
C2411 C2405 1.429 . S
C2411 C2412 1.523 . S
C2412 C2393 1.368 . S
C2412 C2406 1.368 . S
C2412 C2411 1.523 . S
C2413 C2397 1.429 . S
C2413 C2409 1.429 . S
C2413 C2414 1.523 . S
C2414 C2398 1.368 . S
C2414 C2410 1.368 . S
C2414 C2413 1.523 . S
H2415 C2390 0.950 . S
H2416 C2392 0.950 . S
H2417 C2393 0.949 . S
H2418 C2395 0.950 . S
H2419 C2397 0.950 . S
C2420 C2421 1.349 . S
C2420 C2422 1.327 . S
C2420 H2445 0.950 . S
C2421 C2420 1.349 . S
C2421 C2437 1.349 . S
C2422 C2420 1.327 . S
C2422 C2441 1.429 . S
C2422 H2446 0.950 . S
C2423 C2440 1.574 . S
C2423 C2442 1.368 . S
C2423 H2447 0.949 . S
H2424 C2428 0.949 . S
C2425 C2426 1.349 . S
C2425 C2427 1.327 . S
C2425 H2448 0.950 . S
C2426 C2425 1.349 . S
C2426 C2438 1.349 . S
C2427 C2425 1.327 . S
C2427 C2443 1.429 . S
C2427 H2449 0.950 . S
C2428 H2424 0.949 . S
C2428 C2436 1.574 . S
C2428 C2444 1.368 . S
H2429 C2437 0.950 . S
H2430 C2435 0.950 . S
H2431 C2436 0.949 . S
H2432 C2438 0.950 . S
H2433 C2439 0.950 . S
H2434 C2440 0.949 . S
C2435 H2430 0.950 . S
C2435 C2437 1.327 . S
C2435 C2441 1.429 . S
C2436 C2428 1.574 . S
C2436 H2431 0.949 . S
C2436 C2442 1.368 . S
C2437 C2421 1.349 . S
C2437 H2429 0.950 . S
C2437 C2435 1.327 . S
C2438 C2426 1.349 . S
C2438 H2432 0.950 . S
C2438 C2439 1.327 . S
C2439 H2433 0.950 . S
C2439 C2438 1.327 . S
C2439 C2443 1.429 . S
C2440 C2423 1.574 . S
C2440 H2434 0.949 . S
C2440 C2444 1.368 . S
C2441 C2422 1.429 . S
C2441 C2435 1.429 . S
C2441 C2442 1.523 . S
C2442 C2423 1.368 . S
C2442 C2436 1.368 . S
C2442 C2441 1.523 . S
C2443 C2427 1.429 . S
C2443 C2439 1.429 . S
C2443 C2444 1.523 . S
C2444 C2428 1.368 . S
C2444 C2440 1.368 . S
C2444 C2443 1.523 . S
H2445 C2420 0.950 . S
H2446 C2422 0.950 . S
H2447 C2423 0.949 . S
H2448 C2425 0.950 . S
H2449 C2427 0.950 . S
C2450 C2451 1.349 . S
C2450 C2452 1.327 . S
C2450 H2475 0.950 . S
C2451 C2450 1.349 . S
C2451 C2467 1.349 . S
C2452 C2450 1.327 . S
C2452 C2471 1.429 . S
C2452 H2476 0.950 . S
C2453 C2470 1.574 . S
C2453 C2472 1.368 . S
C2453 H2477 0.949 . S
H2454 C2458 0.949 . S
C2455 C2456 1.349 . S
C2455 C2457 1.327 . S
C2455 H2478 0.950 . S
C2456 C2455 1.349 . S
C2456 C2468 1.349 . S
C2457 C2455 1.327 . S
C2457 C2473 1.429 . S
C2457 H2479 0.950 . S
C2458 H2454 0.949 . S
C2458 C2466 1.574 . S
C2458 C2474 1.368 . S
H2459 C2467 0.950 . S
H2460 C2465 0.950 . S
H2461 C2466 0.949 . S
H2462 C2468 0.950 . S
H2463 C2469 0.950 . S
H2464 C2470 0.949 . S
C2465 H2460 0.950 . S
C2465 C2467 1.327 . S
C2465 C2471 1.429 . S
C2466 C2458 1.574 . S
C2466 H2461 0.949 . S
C2466 C2472 1.368 . S
C2467 C2451 1.349 . S
C2467 H2459 0.950 . S
C2467 C2465 1.327 . S
C2468 C2456 1.349 . S
C2468 H2462 0.950 . S
C2468 C2469 1.327 . S
C2469 H2463 0.950 . S
C2469 C2468 1.327 . S
C2469 C2473 1.429 . S
C2470 C2453 1.574 . S
C2470 H2464 0.949 . S
C2470 C2474 1.368 . S
C2471 C2452 1.429 . S
C2471 C2465 1.429 . S
C2471 C2472 1.523 . S
C2472 C2453 1.368 . S
C2472 C2466 1.368 . S
C2472 C2471 1.523 . S
C2473 C2457 1.429 . S
C2473 C2469 1.429 . S
C2473 C2474 1.523 . S
C2474 C2458 1.368 . S
C2474 C2470 1.368 . S
C2474 C2473 1.523 . S
H2475 C2450 0.950 . S
H2476 C2452 0.950 . S
H2477 C2453 0.949 . S
H2478 C2455 0.950 . S
H2479 C2457 0.950 . S
C2480 C2481 1.349 . S
C2480 C2482 1.327 . S
C2480 H2505 0.950 . S
C2481 C2480 1.349 . S
C2481 C2497 1.349 . S
C2482 C2480 1.327 . S
C2482 C2501 1.429 . S
C2482 H2506 0.950 . S
C2483 C2500 1.574 . S
C2483 C2502 1.368 . S
C2483 H2507 0.949 . S
H2484 C2488 0.949 . S
C2485 C2486 1.349 . S
C2485 C2487 1.327 . S
C2485 H2508 0.950 . S
C2486 C2485 1.349 . S
C2486 C2498 1.349 . S
C2487 C2485 1.327 . S
C2487 C2503 1.429 . S
C2487 H2509 0.950 . S
C2488 H2484 0.949 . S
C2488 C2496 1.574 . S
C2488 C2504 1.368 . S
H2489 C2497 0.950 . S
H2490 C2495 0.950 . S
H2491 C2496 0.949 . S
H2492 C2498 0.950 . S
H2493 C2499 0.950 . S
H2494 C2500 0.949 . S
C2495 H2490 0.950 . S
C2495 C2497 1.327 . S
C2495 C2501 1.429 . S
C2496 C2488 1.574 . S
C2496 H2491 0.949 . S
C2496 C2502 1.368 . S
C2497 C2481 1.349 . S
C2497 H2489 0.950 . S
C2497 C2495 1.327 . S
C2498 C2486 1.349 . S
C2498 H2492 0.950 . S
C2498 C2499 1.327 . S
C2499 H2493 0.950 . S
C2499 C2498 1.327 . S
C2499 C2503 1.429 . S
C2500 C2483 1.574 . S
C2500 H2494 0.949 . S
C2500 C2504 1.368 . S
C2501 C2482 1.429 . S
C2501 C2495 1.429 . S
C2501 C2502 1.523 . S
C2502 C2483 1.368 . S
C2502 C2496 1.368 . S
C2502 C2501 1.523 . S
C2503 C2487 1.429 . S
C2503 C2499 1.429 . S
C2503 C2504 1.523 . S
C2504 C2488 1.368 . S
C2504 C2500 1.368 . S
C2504 C2503 1.523 . S
H2505 C2480 0.950 . S
H2506 C2482 0.950 . S
H2507 C2483 0.949 . S
H2508 C2485 0.950 . S
H2509 C2487 0.950 . S
C2510 C2511 1.349 . S
C2510 C2512 1.327 . S
C2510 H2535 0.950 . S
C2511 C2510 1.349 . S
C2511 C2527 1.349 . S
C2512 C2510 1.327 . S
C2512 C2531 1.429 . S
C2512 H2536 0.950 . S
C2513 C2530 1.574 . S
C2513 C2532 1.368 . S
C2513 H2537 0.949 . S
H2514 C2518 0.949 . S
C2515 C2516 1.349 . S
C2515 C2517 1.327 . S
C2515 H2538 0.950 . S
C2516 C2515 1.349 . S
C2516 C2528 1.349 . S
C2517 C2515 1.327 . S
C2517 C2533 1.429 . S
C2517 H2539 0.950 . S
C2518 H2514 0.949 . S
C2518 C2526 1.574 . S
C2518 C2534 1.368 . S
H2519 C2527 0.950 . S
H2520 C2525 0.950 . S
H2521 C2526 0.949 . S
H2522 C2528 0.950 . S
H2523 C2529 0.950 . S
H2524 C2530 0.949 . S
C2525 H2520 0.950 . S
C2525 C2527 1.327 . S
C2525 C2531 1.429 . S
C2526 C2518 1.574 . S
C2526 H2521 0.949 . S
C2526 C2532 1.368 . S
C2527 C2511 1.349 . S
C2527 H2519 0.950 . S
C2527 C2525 1.327 . S
C2528 C2516 1.349 . S
C2528 H2522 0.950 . S
C2528 C2529 1.327 . S
C2529 H2523 0.950 . S
C2529 C2528 1.327 . S
C2529 C2533 1.429 . S
C2530 C2513 1.574 . S
C2530 H2524 0.949 . S
C2530 C2534 1.368 . S
C2531 C2512 1.429 . S
C2531 C2525 1.429 . S
C2531 C2532 1.523 . S
C2532 C2513 1.368 . S
C2532 C2526 1.368 . S
C2532 C2531 1.523 . S
C2533 C2517 1.429 . S
C2533 C2529 1.429 . S
C2533 C2534 1.523 . S
C2534 C2518 1.368 . S
C2534 C2530 1.368 . S
C2534 C2533 1.523 . S
H2535 C2510 0.950 . S
H2536 C2512 0.950 . S
H2537 C2513 0.949 . S
H2538 C2515 0.950 . S
H2539 C2517 0.950 . S
C2540 C2541 1.349 . S
C2540 C2542 1.327 . S
C2540 H2565 0.950 . S
C2541 C2540 1.349 . S
C2541 C2557 1.349 . S
C2542 C2540 1.327 . S
C2542 C2561 1.429 . S
C2542 H2566 0.950 . S
C2543 C2560 1.574 . S
C2543 C2562 1.368 . S
C2543 H2567 0.949 . S
H2544 C2548 0.949 . S
C2545 C2546 1.349 . S
C2545 C2547 1.327 . S
C2545 H2568 0.950 . S
C2546 C2545 1.349 . S
C2546 C2558 1.349 . S
C2547 C2545 1.327 . S
C2547 C2563 1.429 . S
C2547 H2569 0.950 . S
C2548 H2544 0.949 . S
C2548 C2556 1.574 . S
C2548 C2564 1.368 . S
H2549 C2557 0.950 . S
H2550 C2555 0.950 . S
H2551 C2556 0.949 . S
H2552 C2558 0.950 . S
H2553 C2559 0.950 . S
H2554 C2560 0.949 . S
C2555 H2550 0.950 . S
C2555 C2557 1.327 . S
C2555 C2561 1.429 . S
C2556 C2548 1.574 . S
C2556 H2551 0.949 . S
C2556 C2562 1.368 . S
C2557 C2541 1.349 . S
C2557 H2549 0.950 . S
C2557 C2555 1.327 . S
C2558 C2546 1.349 . S
C2558 H2552 0.950 . S
C2558 C2559 1.327 . S
C2559 H2553 0.950 . S
C2559 C2558 1.327 . S
C2559 C2563 1.429 . S
C2560 C2543 1.574 . S
C2560 H2554 0.949 . S
C2560 C2564 1.368 . S
C2561 C2542 1.429 . S
C2561 C2555 1.429 . S
C2561 C2562 1.523 . S
C2562 C2543 1.368 . S
C2562 C2556 1.368 . S
C2562 C2561 1.523 . S
C2563 C2547 1.429 . S
C2563 C2559 1.429 . S
C2563 C2564 1.523 . S
C2564 C2548 1.368 . S
C2564 C2560 1.368 . S
C2564 C2563 1.523 . S
H2565 C2540 0.950 . S
H2566 C2542 0.950 . S
H2567 C2543 0.949 . S
H2568 C2545 0.950 . S
H2569 C2547 0.950 . S
C2570 C2571 1.349 . S
C2570 C2572 1.327 . S
C2570 H2595 0.950 . S
C2571 C2570 1.349 . S
C2571 C2587 1.349 . S
C2572 C2570 1.327 . S
C2572 C2591 1.429 . S
C2572 H2596 0.950 . S
C2573 C2590 1.574 . S
C2573 C2592 1.368 . S
C2573 H2597 0.949 . S
H2574 C2578 0.949 . S
C2575 C2576 1.349 . S
C2575 C2577 1.327 . S
C2575 H2598 0.950 . S
C2576 C2575 1.349 . S
C2576 C2588 1.349 . S
C2577 C2575 1.327 . S
C2577 C2593 1.429 . S
C2577 H2599 0.950 . S
C2578 H2574 0.949 . S
C2578 C2586 1.574 . S
C2578 C2594 1.368 . S
H2579 C2587 0.950 . S
H2580 C2585 0.950 . S
H2581 C2586 0.949 . S
H2582 C2588 0.950 . S
H2583 C2589 0.950 . S
H2584 C2590 0.949 . S
C2585 H2580 0.950 . S
C2585 C2587 1.327 . S
C2585 C2591 1.429 . S
C2586 C2578 1.574 . S
C2586 H2581 0.949 . S
C2586 C2592 1.368 . S
C2587 C2571 1.349 . S
C2587 H2579 0.950 . S
C2587 C2585 1.327 . S
C2588 C2576 1.349 . S
C2588 H2582 0.950 . S
C2588 C2589 1.327 . S
C2589 H2583 0.950 . S
C2589 C2588 1.327 . S
C2589 C2593 1.429 . S
C2590 C2573 1.574 . S
C2590 H2584 0.949 . S
C2590 C2594 1.368 . S
C2591 C2572 1.429 . S
C2591 C2585 1.429 . S
C2591 C2592 1.523 . S
C2592 C2573 1.368 . S
C2592 C2586 1.368 . S
C2592 C2591 1.523 . S
C2593 C2577 1.429 . S
C2593 C2589 1.429 . S
C2593 C2594 1.523 . S
C2594 C2578 1.368 . S
C2594 C2590 1.368 . S
C2594 C2593 1.523 . S
H2595 C2570 0.950 . S
H2596 C2572 0.950 . S
H2597 C2573 0.949 . S
H2598 C2575 0.950 . S
H2599 C2577 0.950 . S
C2600 C2601 1.349 . S
C2600 C2602 1.327 . S
C2600 H2625 0.950 . S
C2601 C2600 1.349 . S
C2601 C2617 1.349 . S
C2602 C2600 1.327 . S
C2602 C2621 1.429 . S
C2602 H2626 0.950 . S
C2603 C2620 1.574 . S
C2603 C2622 1.368 . S
C2603 H2627 0.949 . S
H2604 C2608 0.949 . S
C2605 C2606 1.349 . S
C2605 C2607 1.327 . S
C2605 H2628 0.950 . S
C2606 C2605 1.349 . S
C2606 C2618 1.349 . S
C2607 C2605 1.327 . S
C2607 C2623 1.429 . S
C2607 H2629 0.950 . S
C2608 H2604 0.949 . S
C2608 C2616 1.574 . S
C2608 C2624 1.368 . S
H2609 C2617 0.950 . S
H2610 C2615 0.950 . S
H2611 C2616 0.949 . S
H2612 C2618 0.950 . S
H2613 C2619 0.950 . S
H2614 C2620 0.949 . S
C2615 H2610 0.950 . S
C2615 C2617 1.327 . S
C2615 C2621 1.429 . S
C2616 C2608 1.574 . S
C2616 H2611 0.949 . S
C2616 C2622 1.368 . S
C2617 C2601 1.349 . S
C2617 H2609 0.950 . S
C2617 C2615 1.327 . S
C2618 C2606 1.349 . S
C2618 H2612 0.950 . S
C2618 C2619 1.327 . S
C2619 H2613 0.950 . S
C2619 C2618 1.327 . S
C2619 C2623 1.429 . S
C2620 C2603 1.574 . S
C2620 H2614 0.949 . S
C2620 C2624 1.368 . S
C2621 C2602 1.429 . S
C2621 C2615 1.429 . S
C2621 C2622 1.523 . S
C2622 C2603 1.368 . S
C2622 C2616 1.368 . S
C2622 C2621 1.523 . S
C2623 C2607 1.429 . S
C2623 C2619 1.429 . S
C2623 C2624 1.523 . S
C2624 C2608 1.368 . S
C2624 C2620 1.368 . S
C2624 C2623 1.523 . S
H2625 C2600 0.950 . S
H2626 C2602 0.950 . S
H2627 C2603 0.949 . S
H2628 C2605 0.950 . S
H2629 C2607 0.950 . S
C2630 C2631 1.349 . S
C2630 C2632 1.327 . S
C2630 H2655 0.950 . S
C2631 C2630 1.349 . S
C2631 C2647 1.349 . S
C2632 C2630 1.327 . S
C2632 C2651 1.429 . S
C2632 H2656 0.950 . S
C2633 C2650 1.574 . S
C2633 C2652 1.368 . S
C2633 H2657 0.949 . S
H2634 C2638 0.949 . S
C2635 C2636 1.349 . S
C2635 C2637 1.327 . S
C2635 H2658 0.950 . S
C2636 C2635 1.349 . S
C2636 C2648 1.349 . S
C2637 C2635 1.327 . S
C2637 C2653 1.429 . S
C2637 H2659 0.950 . S
C2638 H2634 0.949 . S
C2638 C2646 1.574 . S
C2638 C2654 1.368 . S
H2639 C2647 0.950 . S
H2640 C2645 0.950 . S
H2641 C2646 0.949 . S
H2642 C2648 0.950 1_545 S
H2643 C2649 0.950 . S
H2644 C2650 0.949 . S
C2645 H2640 0.950 . S
C2645 C2647 1.327 . S
C2645 C2651 1.429 . S
C2646 C2638 1.574 . S
C2646 H2641 0.949 . S
C2646 C2652 1.368 . S
C2647 C2631 1.349 . S
C2647 H2639 0.950 . S
C2647 C2645 1.327 . S
C2648 C2636 1.349 . S
C2648 H2642 0.950 1_565 S
C2648 C2649 1.327 . S
C2649 H2643 0.950 . S
C2649 C2648 1.327 . S
C2649 C2653 1.429 . S
C2650 C2633 1.574 . S
C2650 H2644 0.949 . S
C2650 C2654 1.368 . S
C2651 C2632 1.429 . S
C2651 C2645 1.429 . S
C2651 C2652 1.523 . S
C2652 C2633 1.368 . S
C2652 C2646 1.368 . S
C2652 C2651 1.523 . S
C2653 C2637 1.429 . S
C2653 C2649 1.429 . S
C2653 C2654 1.523 . S
C2654 C2638 1.368 . S
C2654 C2650 1.368 . S
C2654 C2653 1.523 . S
H2655 C2630 0.950 . S
H2656 C2632 0.950 . S
H2657 C2633 0.949 . S
H2658 C2635 0.950 . S
H2659 C2637 0.950 . S
C2660 C2661 1.349 . S
C2660 C2662 1.327 . S
C2660 H2685 0.950 . S
C2661 C2660 1.349 . S
C2661 C2677 1.349 . S
C2662 C2660 1.327 . S
C2662 C2681 1.429 . S
C2662 H2686 0.950 . S
C2663 C2680 1.574 . S
C2663 C2682 1.368 . S
C2663 H2687 0.949 . S
H2664 C2668 0.949 . S
C2665 C2666 1.349 . S
C2665 C2667 1.327 . S
C2665 H2688 0.950 . S
C2666 C2665 1.349 . S
C2666 C2678 1.349 . S
C2667 C2665 1.327 . S
C2667 C2683 1.429 . S
C2667 H2689 0.950 . S
C2668 H2664 0.949 . S
C2668 C2676 1.574 . S
C2668 C2684 1.368 . S
H2669 C2677 0.950 . S
H2670 C2675 0.950 . S
H2671 C2676 0.949 . S
H2672 C2678 0.950 . S
H2673 C2679 0.950 . S
H2674 C2680 0.949 . S
C2675 H2670 0.950 . S
C2675 C2677 1.327 . S
C2675 C2681 1.429 . S
C2676 C2668 1.574 . S
C2676 H2671 0.949 . S
C2676 C2682 1.368 . S
C2677 C2661 1.349 . S
C2677 H2669 0.950 . S
C2677 C2675 1.327 . S
C2678 C2666 1.349 . S
C2678 H2672 0.950 . S
C2678 C2679 1.327 . S
C2679 H2673 0.950 . S
C2679 C2678 1.327 . S
C2679 C2683 1.429 . S
C2680 C2663 1.574 . S
C2680 H2674 0.949 . S
C2680 C2684 1.368 . S
C2681 C2662 1.429 . S
C2681 C2675 1.429 . S
C2681 C2682 1.523 . S
C2682 C2663 1.368 . S
C2682 C2676 1.368 . S
C2682 C2681 1.523 . S
C2683 C2667 1.429 . S
C2683 C2679 1.429 . S
C2683 C2684 1.523 . S
C2684 C2668 1.368 . S
C2684 C2680 1.368 . S
C2684 C2683 1.523 . S
H2685 C2660 0.950 . S
H2686 C2662 0.950 . S
H2687 C2663 0.949 . S
H2688 C2665 0.950 . S
H2689 C2667 0.950 . S
C2690 C2691 1.339 1_556 S
C2690 C2692 1.326 1_556 S
C2690 H2715 0.961 . S
C2691 C2690 1.339 1_554 S
C2691 C2707 1.349 . S
C2692 C2690 1.326 1_554 S
C2692 C2711 1.456 . S
C2692 H2716 0.923 1_554 S
C2693 C2710 1.574 . S
C2693 C2712 1.368 . S
C2693 H2717 0.949 . S
H2694 C2698 0.949 1_556 S
C2695 C2696 1.349 . S
C2695 C2697 1.327 . S
C2695 H2718 0.950 . S
C2696 C2695 1.349 . S
C2696 C2708 1.349 . S
C2697 C2695 1.327 . S
C2697 C2713 1.429 . S
C2697 H2719 0.950 . S
C2698 H2694 0.949 1_554 S
C2698 C2706 1.574 . S
C2698 C2714 1.368 . S
H2699 C2707 0.950 . S
H2700 C2705 0.950 . S
H2701 C2706 0.949 1_556 S
H2702 C2708 0.950 1_556 S
H2703 C2709 0.950 1_556 S
H2704 C2710 0.949 . S
C2705 H2700 0.950 . S
C2705 C2707 1.327 . S
C2705 C2711 1.429 . S
C2706 C2698 1.574 . S
C2706 H2701 0.949 1_554 S
C2706 C2712 1.368 . S
C2707 C2691 1.349 . S
C2707 H2699 0.950 . S
C2707 C2705 1.327 . S
C2708 C2696 1.349 . S
C2708 H2702 0.950 1_554 S
C2708 C2709 1.327 . S
C2709 H2703 0.950 1_554 S
C2709 C2708 1.327 . S
C2709 C2713 1.429 . S
C2710 C2693 1.574 . S
C2710 H2704 0.949 . S
C2710 C2714 1.368 . S
C2711 C2692 1.456 . S
C2711 C2705 1.429 . S
C2711 C2712 1.523 . S
C2712 C2693 1.368 . S
C2712 C2706 1.368 . S
C2712 C2711 1.523 . S
C2713 C2697 1.429 . S
C2713 C2709 1.429 . S
C2713 C2714 1.523 . S
C2714 C2698 1.368 . S
C2714 C2710 1.368 . S
C2714 C2713 1.523 . S
H2715 C2690 0.961 . S
H2716 C2692 0.923 1_556 S
H2717 C2693 0.949 . S
H2718 C2695 0.950 . S
H2719 C2697 0.950 . S
C2720 C2721 1.349 . S
C2720 C2722 1.327 . S
C2720 H2745 0.950 . S
C2721 C2720 1.349 . S
C2721 C2737 1.349 . S
C2722 C2720 1.327 . S
C2722 C2741 1.429 . S
C2722 H2746 0.950 . S
C2723 C2740 1.574 . S
C2723 C2742 1.368 . S
C2723 H2747 0.949 . S
H2724 C2728 0.949 . S
C2725 C2726 1.349 . S
C2725 C2727 1.327 . S
C2725 H2748 0.950 . S
C2726 C2725 1.349 . S
C2726 C2738 1.349 . S
C2727 C2725 1.327 . S
C2727 C2743 1.429 . S
C2727 H2749 0.950 . S
C2728 H2724 0.949 . S
C2728 C2736 1.574 . S
C2728 C2744 1.368 . S
H2729 C2737 0.950 . S
H2730 C2735 0.950 . S
H2731 C2736 0.949 . S
H2732 C2738 0.950 . S
H2733 C2739 0.950 . S
H2734 C2740 0.949 . S
C2735 H2730 0.950 . S
C2735 C2737 1.327 . S
C2735 C2741 1.429 . S
C2736 C2728 1.574 . S
C2736 H2731 0.949 . S
C2736 C2742 1.368 . S
C2737 C2721 1.349 . S
C2737 H2729 0.950 . S
C2737 C2735 1.327 . S
C2738 C2726 1.349 . S
C2738 H2732 0.950 . S
C2738 C2739 1.327 . S
C2739 H2733 0.950 . S
C2739 C2738 1.327 . S
C2739 C2743 1.429 . S
C2740 C2723 1.574 . S
C2740 H2734 0.949 . S
C2740 C2744 1.368 . S
C2741 C2722 1.429 . S
C2741 C2735 1.429 . S
C2741 C2742 1.523 . S
C2742 C2723 1.368 . S
C2742 C2736 1.368 . S
C2742 C2741 1.523 . S
C2743 C2727 1.429 . S
C2743 C2739 1.429 . S
C2743 C2744 1.523 . S
C2744 C2728 1.368 . S
C2744 C2740 1.368 . S
C2744 C2743 1.523 . S
H2745 C2720 0.950 . S
H2746 C2722 0.950 . S
H2747 C2723 0.949 . S
H2748 C2725 0.950 . S
H2749 C2727 0.950 . S
C2750 C2751 1.349 . S
C2750 C2752 1.327 . S
C2750 H2775 0.950 . S
C2751 C2750 1.349 . S
C2751 C2767 1.349 1_554 S
C2752 C2750 1.327 . S
C2752 C2771 1.429 . S
C2752 H2776 0.950 . S
C2753 C2770 1.574 . S
C2753 C2772 1.368 1_556 S
C2753 H2777 0.949 . S
H2754 C2758 0.949 . S
C2755 C2756 1.339 1_556 S
C2755 C2757 1.327 . S
C2755 H2778 0.950 . S
C2756 C2755 1.339 1_554 S
C2756 C2768 1.359 . S
C2757 C2755 1.327 . S
C2757 C2773 1.429 1_556 S
C2757 H2779 0.950 . S
C2758 H2754 0.949 . S
C2758 C2766 1.574 . S
C2758 C2774 1.368 . S
H2759 C2767 0.950 . S
H2760 C2765 0.950 . S
H2761 C2766 0.949 . S
H2762 C2768 0.950 . S
H2763 C2769 0.950 . S
H2764 C2770 0.949 . S
C2765 H2760 0.950 . S
C2765 C2767 1.327 . S
C2765 C2771 1.429 1_556 S
C2766 C2758 1.574 . S
C2766 H2761 0.949 . S
C2766 C2772 1.368 . S
C2767 C2751 1.349 1_556 S
C2767 H2759 0.950 . S
C2767 C2765 1.327 . S
C2768 C2756 1.359 . S
C2768 H2762 0.950 . S
C2768 C2769 1.327 . S
C2769 H2763 0.950 . S
C2769 C2768 1.327 . S
C2769 C2773 1.429 . S
C2770 C2753 1.574 . S
C2770 H2764 0.949 . S
C2770 C2774 1.368 1_556 S
C2771 C2752 1.429 . S
C2771 C2765 1.429 1_554 S
C2771 C2772 1.523 . S
C2772 C2753 1.368 1_554 S
C2772 C2766 1.368 . S
C2772 C2771 1.523 . S
C2773 C2757 1.429 1_554 S
C2773 C2769 1.429 . S
C2773 C2774 1.523 . S
C2774 C2758 1.368 . S
C2774 C2770 1.368 1_554 S
C2774 C2773 1.523 . S
H2775 C2750 0.950 . S
H2776 C2752 0.950 . S
H2777 C2753 0.949 . S
H2778 C2755 0.950 . S
H2779 C2757 0.950 . S
C2780 C2781 1.349 . S
C2780 C2782 1.327 . S
C2780 H2805 0.950 . S
C2781 C2780 1.349 . S
C2781 C2797 1.349 . S
C2782 C2780 1.327 . S
C2782 C2801 1.429 . S
C2782 H2806 0.950 . S
C2783 C2800 1.574 . S
C2783 C2802 1.368 . S
C2783 H2807 0.949 . S
H2784 C2788 0.949 . S
C2785 C2786 1.349 . S
C2785 C2787 1.327 . S
C2785 H2808 0.950 . S
C2786 C2785 1.349 . S
C2786 C2798 1.349 . S
C2787 C2785 1.327 . S
C2787 C2803 1.429 . S
C2787 H2809 0.950 . S
C2788 H2784 0.949 . S
C2788 C2796 1.574 . S
C2788 C2804 1.368 . S
H2789 C2797 0.950 . S
H2790 C2795 0.950 . S
H2791 C2796 0.949 . S
H2792 C2798 0.950 . S
H2793 C2799 0.950 . S
H2794 C2800 0.949 . S
C2795 H2790 0.950 . S
C2795 C2797 1.327 . S
C2795 C2801 1.429 . S
C2796 C2788 1.574 . S
C2796 H2791 0.949 . S
C2796 C2802 1.368 . S
C2797 C2781 1.349 . S
C2797 H2789 0.950 . S
C2797 C2795 1.327 . S
C2798 C2786 1.349 . S
C2798 H2792 0.950 . S
C2798 C2799 1.327 . S
C2799 H2793 0.950 . S
C2799 C2798 1.327 . S
C2799 C2803 1.429 . S
C2800 C2783 1.574 . S
C2800 H2794 0.949 . S
C2800 C2804 1.368 . S
C2801 C2782 1.429 . S
C2801 C2795 1.429 . S
C2801 C2802 1.523 . S
C2802 C2783 1.368 . S
C2802 C2796 1.368 . S
C2802 C2801 1.523 . S
C2803 C2787 1.429 . S
C2803 C2799 1.429 . S
C2803 C2804 1.523 . S
C2804 C2788 1.368 . S
C2804 C2800 1.368 . S
C2804 C2803 1.523 . S
H2805 C2780 0.950 . S
H2806 C2782 0.950 . S
H2807 C2783 0.949 . S
H2808 C2785 0.950 . S
H2809 C2787 0.950 . S
C2810 C2811 1.349 . S
C2810 C2812 1.327 . S
C2810 H2835 0.950 . S
C2811 C2810 1.349 . S
C2811 C2827 1.349 . S
C2812 C2810 1.327 . S
C2812 C2831 1.429 . S
C2812 H2836 0.950 . S
C2813 C2830 1.574 . S
C2813 C2832 1.368 . S
C2813 H2837 0.949 . S
H2814 C2818 0.949 . S
C2815 C2816 1.349 . S
C2815 C2817 1.327 . S
C2815 H2838 0.950 . S
C2816 C2815 1.349 . S
C2816 C2828 1.349 . S
C2817 C2815 1.327 . S
C2817 C2833 1.429 . S
C2817 H2839 0.950 . S
C2818 H2814 0.949 . S
C2818 C2826 1.574 . S
C2818 C2834 1.368 . S
H2819 C2827 0.950 . S
H2820 C2825 0.950 . S
H2821 C2826 0.949 . S
H2822 C2828 0.950 . S
H2823 C2829 0.950 . S
H2824 C2830 0.949 . S
C2825 H2820 0.950 . S
C2825 C2827 1.327 . S
C2825 C2831 1.429 . S
C2826 C2818 1.574 . S
C2826 H2821 0.949 . S
C2826 C2832 1.368 . S
C2827 C2811 1.349 . S
C2827 H2819 0.950 . S
C2827 C2825 1.327 . S
C2828 C2816 1.349 . S
C2828 H2822 0.950 . S
C2828 C2829 1.327 . S
C2829 H2823 0.950 . S
C2829 C2828 1.327 . S
C2829 C2833 1.429 . S
C2830 C2813 1.574 . S
C2830 H2824 0.949 . S
C2830 C2834 1.368 . S
C2831 C2812 1.429 . S
C2831 C2825 1.429 . S
C2831 C2832 1.523 . S
C2832 C2813 1.368 . S
C2832 C2826 1.368 . S
C2832 C2831 1.523 . S
C2833 C2817 1.429 . S
C2833 C2829 1.429 . S
C2833 C2834 1.523 . S
C2834 C2818 1.368 . S
C2834 C2830 1.368 . S
C2834 C2833 1.523 . S
H2835 C2810 0.950 . S
H2836 C2812 0.950 . S
H2837 C2813 0.949 . S
H2838 C2815 0.950 . S
H2839 C2817 0.950 . S
C2840 C2841 1.349 . S
C2840 C2842 1.327 . S
C2840 H2865 0.950 . S
C2841 C2840 1.349 . S
C2841 C2857 1.349 . S
C2842 C2840 1.327 . S
C2842 C2861 1.429 . S
C2842 H2866 0.950 . S
C2843 C2860 1.574 . S
C2843 C2862 1.368 . S
C2843 H2867 0.949 . S
H2844 C2848 0.949 . S
C2845 C2846 1.349 . S
C2845 C2847 1.327 . S
C2845 H2868 0.950 . S
C2846 C2845 1.349 . S
C2846 C2858 1.349 . S
C2847 C2845 1.327 . S
C2847 C2863 1.429 . S
C2847 H2869 0.950 . S
C2848 H2844 0.949 . S
C2848 C2856 1.574 . S
C2848 C2864 1.368 . S
H2849 C2857 0.950 . S
H2850 C2855 0.950 . S
H2851 C2856 0.949 . S
H2852 C2858 0.950 . S
H2853 C2859 0.950 . S
H2854 C2860 0.949 . S
C2855 H2850 0.950 . S
C2855 C2857 1.327 . S
C2855 C2861 1.429 . S
C2856 C2848 1.574 . S
C2856 H2851 0.949 . S
C2856 C2862 1.368 . S
C2857 C2841 1.349 . S
C2857 H2849 0.950 . S
C2857 C2855 1.327 . S
C2858 C2846 1.349 . S
C2858 H2852 0.950 . S
C2858 C2859 1.327 . S
C2859 H2853 0.950 . S
C2859 C2858 1.327 . S
C2859 C2863 1.429 . S
C2860 C2843 1.574 . S
C2860 H2854 0.949 . S
C2860 C2864 1.368 . S
C2861 C2842 1.429 . S
C2861 C2855 1.429 . S
C2861 C2862 1.523 . S
C2862 C2843 1.368 . S
C2862 C2856 1.368 . S
C2862 C2861 1.523 . S
C2863 C2847 1.429 . S
C2863 C2859 1.429 . S
C2863 C2864 1.523 . S
C2864 C2848 1.368 . S
C2864 C2860 1.368 . S
C2864 C2863 1.523 . S
H2865 C2840 0.950 . S
H2866 C2842 0.950 . S
H2867 C2843 0.949 . S
H2868 C2845 0.950 . S
H2869 C2847 0.950 . S
C2870 C2871 1.349 . S
C2870 C2872 1.327 . S
C2870 H2895 0.950 . S
C2871 C2870 1.349 . S
C2871 C2887 1.349 . S
C2872 C2870 1.327 . S
C2872 C2891 1.429 . S
C2872 H2896 0.950 . S
C2873 C2890 1.574 . S
C2873 C2892 1.368 . S
C2873 H2897 0.949 . S
H2874 C2878 0.949 . S
C2875 C2876 1.349 . S
C2875 C2877 1.327 . S
C2875 H2898 0.950 . S
C2876 C2875 1.349 . S
C2876 C2888 1.349 . S
C2877 C2875 1.327 . S
C2877 C2893 1.429 . S
C2877 H2899 0.950 . S
C2878 H2874 0.949 . S
C2878 C2886 1.574 . S
C2878 C2894 1.368 . S
H2879 C2887 0.950 . S
H2880 C2885 0.950 . S
H2881 C2886 0.949 . S
H2882 C2888 0.950 . S
H2883 C2889 0.950 . S
H2884 C2890 0.949 . S
C2885 H2880 0.950 . S
C2885 C2887 1.327 . S
C2885 C2891 1.429 . S
C2886 C2878 1.574 . S
C2886 H2881 0.949 . S
C2886 C2892 1.368 . S
C2887 C2871 1.349 . S
C2887 H2879 0.950 . S
C2887 C2885 1.327 . S
C2888 C2876 1.349 . S
C2888 H2882 0.950 . S
C2888 C2889 1.327 . S
C2889 H2883 0.950 . S
C2889 C2888 1.327 . S
C2889 C2893 1.429 . S
C2890 C2873 1.574 . S
C2890 H2884 0.949 . S
C2890 C2894 1.368 . S
C2891 C2872 1.429 . S
C2891 C2885 1.429 . S
C2891 C2892 1.523 . S
C2892 C2873 1.368 . S
C2892 C2886 1.368 . S
C2892 C2891 1.523 . S
C2893 C2877 1.429 . S
C2893 C2889 1.429 . S
C2893 C2894 1.523 . S
C2894 C2878 1.368 . S
C2894 C2890 1.368 . S
C2894 C2893 1.523 . S
H2895 C2870 0.950 . S
H2896 C2872 0.950 . S
H2897 C2873 0.949 . S
H2898 C2875 0.950 . S
H2899 C2877 0.950 . S
C2900 C2901 1.349 . S
C2900 C2902 1.327 . S
C2900 H2925 0.950 . S
C2901 C2900 1.349 . S
C2901 C2917 1.349 . S
C2902 C2900 1.327 . S
C2902 C2921 1.429 . S
C2902 H2926 0.950 . S
C2903 C2920 1.574 . S
C2903 C2922 1.368 . S
C2903 H2927 0.949 . S
H2904 C2908 0.952 . S
C2905 C2906 1.349 1_554 S
C2905 C2907 1.327 1_554 S
C2905 H2928 0.950 . S
C2906 C2905 1.349 1_556 S
C2906 C2918 1.349 1_455 S
C2907 C2905 1.327 1_556 S
C2907 C2923 1.429 . S
C2907 H2929 0.947 1_556 S
C2908 H2904 0.952 . S
C2908 C2916 1.574 . S
C2908 C2924 1.368 . S
H2909 C2917 0.950 . S
H2910 C2915 0.950 . S
H2911 C2916 0.949 . S
H2912 C2918 0.950 . S
H2913 C2919 0.948 1_655 S
H2914 C2920 0.949 . S
C2915 H2910 0.950 . S
C2915 C2917 1.327 . S
C2915 C2921 1.429 . S
C2916 C2908 1.574 . S
C2916 H2911 0.949 . S
C2916 C2922 1.368 . S
C2917 C2901 1.349 . S
C2917 H2909 0.950 . S
C2917 C2915 1.327 . S
C2918 C2906 1.349 1_655 S
C2918 H2912 0.950 . S
C2918 C2919 1.327 1_655 S
C2919 H2913 0.948 1_455 S
C2919 C2918 1.327 1_455 S
C2919 C2923 1.430 . S
C2920 C2903 1.574 . S
C2920 H2914 0.949 . S
C2920 C2924 1.368 . S
C2921 C2902 1.429 . S
C2921 C2915 1.429 . S
C2921 C2922 1.523 . S
C2922 C2903 1.368 . S
C2922 C2916 1.368 . S
C2922 C2921 1.523 . S
C2923 C2907 1.429 . S
C2923 C2919 1.430 . S
C2923 C2924 1.523 . S
C2924 C2908 1.368 . S
C2924 C2920 1.368 . S
C2924 C2923 1.523 . S
H2925 C2900 0.950 . S
H2926 C2902 0.950 . S
H2927 C2903 0.949 . S
H2928 C2905 0.950 . S
H2929 C2907 0.947 1_554 S
C2930 C2931 1.349 . S
C2930 C2932 1.327 . S
C2930 H2955 0.950 . S
C2931 C2930 1.349 . S
C2931 C2947 1.349 . S
C2932 C2930 1.327 . S
C2932 C2951 1.429 . S
C2932 H2956 0.950 . S
C2933 C2950 1.574 . S
C2933 C2952 1.368 . S
C2933 H2957 0.949 . S
H2934 C2938 0.949 . S
C2935 C2936 1.349 . S
C2935 C2937 1.327 . S
C2935 H2958 0.950 . S
C2936 C2935 1.349 . S
C2936 C2948 1.349 . S
C2937 C2935 1.327 . S
C2937 C2953 1.429 . S
C2937 H2959 0.950 . S
C2938 H2934 0.949 . S
C2938 C2946 1.574 . S
C2938 C2954 1.368 . S
H2939 C2947 0.950 . S
H2940 C2945 0.950 . S
H2941 C2946 0.949 . S
H2942 C2948 0.950 . S
H2943 C2949 0.950 . S
H2944 C2950 0.949 . S
C2945 H2940 0.950 . S
C2945 C2947 1.327 . S
C2945 C2951 1.429 . S
C2946 C2938 1.574 . S
C2946 H2941 0.949 . S
C2946 C2952 1.368 . S
C2947 C2931 1.349 . S
C2947 H2939 0.950 . S
C2947 C2945 1.327 . S
C2948 C2936 1.349 . S
C2948 H2942 0.950 . S
C2948 C2949 1.327 . S
C2949 H2943 0.950 . S
C2949 C2948 1.327 . S
C2949 C2953 1.429 . S
C2950 C2933 1.574 . S
C2950 H2944 0.949 . S
C2950 C2954 1.368 . S
C2951 C2932 1.429 . S
C2951 C2945 1.429 . S
C2951 C2952 1.523 . S
C2952 C2933 1.368 . S
C2952 C2946 1.368 . S
C2952 C2951 1.523 . S
C2953 C2937 1.429 . S
C2953 C2949 1.429 . S
C2953 C2954 1.523 . S
C2954 C2938 1.368 . S
C2954 C2950 1.368 . S
C2954 C2953 1.523 . S
H2955 C2930 0.950 . S
H2956 C2932 0.950 . S
H2957 C2933 0.949 . S
H2958 C2935 0.950 . S
H2959 C2937 0.950 . S
C2960 C2961 1.349 . S
C2960 C2962 1.327 . S
C2960 H2985 0.950 . S
C2961 C2960 1.349 . S
C2961 C2977 1.349 . S
C2962 C2960 1.327 . S
C2962 C2981 1.429 . S
C2962 H2986 0.950 . S
C2963 C2980 1.574 . S
C2963 C2982 1.368 . S
C2963 H2987 0.949 . S
H2964 C2968 0.949 . S
C2965 C2966 1.349 . S
C2965 C2967 1.327 . S
C2965 H2988 0.950 . S
C2966 C2965 1.349 . S
C2966 C2978 1.349 . S
C2967 C2965 1.327 . S
C2967 C2983 1.429 . S
C2967 H2989 0.950 . S
C2968 H2964 0.949 . S
C2968 C2976 1.574 . S
C2968 C2984 1.368 . S
H2969 C2977 0.950 . S
H2970 C2975 0.950 . S
H2971 C2976 0.949 . S
H2972 C2978 0.950 . S
H2973 C2979 0.950 . S
H2974 C2980 0.949 . S
C2975 H2970 0.950 . S
C2975 C2977 1.327 . S
C2975 C2981 1.429 . S
C2976 C2968 1.574 . S
C2976 H2971 0.949 . S
C2976 C2982 1.368 . S
C2977 C2961 1.349 . S
C2977 H2969 0.950 . S
C2977 C2975 1.327 . S
C2978 C2966 1.349 . S
C2978 H2972 0.950 . S
C2978 C2979 1.327 . S
C2979 H2973 0.950 . S
C2979 C2978 1.327 . S
C2979 C2983 1.429 . S
C2980 C2963 1.574 . S
C2980 H2974 0.949 . S
C2980 C2984 1.368 . S
C2981 C2962 1.429 . S
C2981 C2975 1.429 . S
C2981 C2982 1.523 . S
C2982 C2963 1.368 . S
C2982 C2976 1.368 . S
C2982 C2981 1.523 . S
C2983 C2967 1.429 . S
C2983 C2979 1.429 . S
C2983 C2984 1.523 . S
C2984 C2968 1.368 . S
C2984 C2980 1.368 . S
C2984 C2983 1.523 . S
H2985 C2960 0.950 . S
H2986 C2962 0.950 . S
H2987 C2963 0.949 . S
H2988 C2965 0.950 . S
H2989 C2967 0.950 . S
C2990 C2991 1.349 . S
C2990 C2992 1.327 . S
C2990 H3015 0.950 . S
C2991 C2990 1.349 . S
C2991 C3007 1.349 . S
C2992 C2990 1.327 . S
C2992 C3011 1.429 . S
C2992 H3016 0.950 . S
C2993 C3010 1.574 . S
C2993 C3012 1.368 . S
C2993 H3017 0.949 . S
H2994 C2998 0.949 . S
C2995 C2996 1.349 . S
C2995 C2997 1.327 . S
C2995 H3018 0.950 . S
C2996 C2995 1.349 . S
C2996 C3008 1.349 . S
C2997 C2995 1.327 . S
C2997 C3013 1.429 . S
C2997 H3019 0.950 . S
C2998 H2994 0.949 . S
C2998 C3006 1.574 . S
C2998 C3014 1.368 . S
H2999 C3007 0.950 . S
H3000 C3005 0.950 . S
H3001 C3006 0.949 . S
H3002 C3008 0.950 . S
H3003 C3009 0.950 . S
H3004 C3010 0.949 . S
C3005 H3000 0.950 . S
C3005 C3007 1.327 . S
C3005 C3011 1.429 . S
C3006 C2998 1.574 . S
C3006 H3001 0.949 . S
C3006 C3012 1.368 . S
C3007 C2991 1.349 . S
C3007 H2999 0.950 . S
C3007 C3005 1.327 . S
C3008 C2996 1.349 . S
C3008 H3002 0.950 . S
C3008 C3009 1.327 . S
C3009 H3003 0.950 . S
C3009 C3008 1.327 . S
C3009 C3013 1.429 . S
C3010 C2993 1.574 . S
C3010 H3004 0.949 . S
C3010 C3014 1.368 . S
C3011 C2992 1.429 . S
C3011 C3005 1.429 . S
C3011 C3012 1.523 . S
C3012 C2993 1.368 . S
C3012 C3006 1.368 . S
C3012 C3011 1.523 . S
C3013 C2997 1.429 . S
C3013 C3009 1.429 . S
C3013 C3014 1.523 . S
C3014 C2998 1.368 . S
C3014 C3010 1.368 . S
C3014 C3013 1.523 . S
H3015 C2990 0.950 . S
H3016 C2992 0.950 . S
H3017 C2993 0.949 . S
H3018 C2995 0.950 . S
H3019 C2997 0.950 . S
C3020 C3021 1.349 . S
C3020 C3022 1.327 . S
C3020 H3045 0.946 1_455 S
C3021 C3020 1.349 . S
C3021 C3037 1.349 . S
C3022 C3020 1.327 . S
C3022 C3041 1.429 . S
C3022 H3046 0.950 1_455 S
C3023 C3040 1.574 . S
C3023 C3042 1.368 . S
C3023 H3047 0.949 . S
H3024 C3028 0.949 . S
C3025 C3026 1.349 1_455 S
C3025 C3027 1.327 . S
C3025 H3048 0.950 . S
C3026 C3025 1.349 1_655 S
C3026 C3038 1.349 . S
C3027 C3025 1.327 . S
C3027 C3043 1.429 . S
C3027 H3049 0.950 . S
C3028 H3024 0.949 . S
C3028 C3036 1.574 . S
C3028 C3044 1.368 1_655 S
H3029 C3037 0.950 . S
H3030 C3035 0.950 . S
H3031 C3036 0.949 . S
H3032 C3038 0.950 . S
H3033 C3039 0.950 . S
H3034 C3040 0.949 . S
C3035 H3030 0.950 . S
C3035 C3037 1.327 . S
C3035 C3041 1.429 . S
C3036 C3028 1.574 . S
C3036 H3031 0.949 . S
C3036 C3042 1.368 1_655 S
C3037 C3021 1.349 . S
C3037 H3029 0.950 . S
C3037 C3035 1.327 . S
C3038 C3026 1.349 . S
C3038 H3032 0.950 . S
C3038 C3039 1.327 . S
C3039 H3033 0.950 . S
C3039 C3038 1.327 . S
C3039 C3043 1.429 1_655 S
C3040 C3023 1.574 . S
C3040 H3034 0.949 . S
C3040 C3044 1.368 . S
C3041 C3022 1.429 . S
C3041 C3035 1.429 . S
C3041 C3042 1.523 . S
C3042 C3023 1.368 . S
C3042 C3036 1.368 1_455 S
C3042 C3041 1.523 . S
C3043 C3027 1.429 . S
C3043 C3039 1.429 1_455 S
C3043 C3044 1.523 . S
C3044 C3028 1.368 1_455 S
C3044 C3040 1.368 . S
C3044 C3043 1.523 . S
H3045 C3020 0.946 1_655 S
H3046 C3022 0.950 1_655 S
H3047 C3023 0.949 . S
H3048 C3025 0.950 . S
H3049 C3027 0.950 . S
C3050 C3051 1.349 . S
C3050 C3052 1.327 . S
C3050 H3075 0.950 . S
C3051 C3050 1.349 . S
C3051 C3067 1.349 . S
C3052 C3050 1.327 . S
C3052 C3071 1.429 . S
C3052 H3076 0.950 . S
C3053 C3070 1.574 . S
C3053 C3072 1.368 . S
C3053 H3077 0.949 . S
H3054 C3058 0.949 . S
C3055 C3056 1.349 . S
C3055 C3057 1.327 . S
C3055 H3078 0.950 . S
C3056 C3055 1.349 . S
C3056 C3068 1.349 . S
C3057 C3055 1.327 . S
C3057 C3073 1.429 . S
C3057 H3079 0.950 . S
C3058 H3054 0.949 . S
C3058 C3066 1.574 . S
C3058 C3074 1.368 . S
H3059 C3067 0.950 . S
H3060 C3065 0.950 . S
H3061 C3066 0.949 . S
H3062 C3068 0.950 . S
H3063 C3069 0.950 . S
H3064 C3070 0.949 . S
C3065 H3060 0.950 . S
C3065 C3067 1.327 . S
C3065 C3071 1.429 . S
C3066 C3058 1.574 . S
C3066 H3061 0.949 . S
C3066 C3072 1.368 . S
C3067 C3051 1.349 . S
C3067 H3059 0.950 . S
C3067 C3065 1.327 . S
C3068 C3056 1.349 . S
C3068 H3062 0.950 . S
C3068 C3069 1.327 . S
C3069 H3063 0.950 . S
C3069 C3068 1.327 . S
C3069 C3073 1.429 . S
C3070 C3053 1.574 . S
C3070 H3064 0.949 . S
C3070 C3074 1.368 . S
C3071 C3052 1.429 . S
C3071 C3065 1.429 . S
C3071 C3072 1.523 . S
C3072 C3053 1.368 . S
C3072 C3066 1.368 . S
C3072 C3071 1.523 . S
C3073 C3057 1.429 . S
C3073 C3069 1.429 . S
C3073 C3074 1.523 . S
C3074 C3058 1.368 . S
C3074 C3070 1.368 . S
C3074 C3073 1.523 . S
H3075 C3050 0.950 . S
H3076 C3052 0.950 . S
H3077 C3053 0.949 . S
H3078 C3055 0.950 . S
H3079 C3057 0.950 . S
C3080 C3081 1.349 . S
C3080 C3082 1.327 . S
C3080 H3105 0.950 . S
C3081 C3080 1.349 . S
C3081 C3097 1.349 . S
C3082 C3080 1.327 . S
C3082 C3101 1.429 . S
C3082 H3106 0.950 . S
C3083 C3100 1.574 . S
C3083 C3102 1.368 . S
C3083 H3107 0.949 . S
H3084 C3088 0.949 . S
C3085 C3086 1.349 . S
C3085 C3087 1.327 . S
C3085 H3108 0.950 . S
C3086 C3085 1.349 . S
C3086 C3098 1.349 . S
C3087 C3085 1.327 . S
C3087 C3103 1.429 . S
C3087 H3109 0.950 . S
C3088 H3084 0.949 . S
C3088 C3096 1.574 . S
C3088 C3104 1.368 . S
H3089 C3097 0.950 . S
H3090 C3095 0.950 . S
H3091 C3096 0.949 . S
H3092 C3098 0.950 . S
H3093 C3099 0.950 . S
H3094 C3100 0.949 . S
C3095 H3090 0.950 . S
C3095 C3097 1.327 . S
C3095 C3101 1.429 . S
C3096 C3088 1.574 . S
C3096 H3091 0.949 . S
C3096 C3102 1.368 . S
C3097 C3081 1.349 . S
C3097 H3089 0.950 . S
C3097 C3095 1.327 . S
C3098 C3086 1.349 . S
C3098 H3092 0.950 . S
C3098 C3099 1.327 . S
C3099 H3093 0.950 . S
C3099 C3098 1.327 . S
C3099 C3103 1.429 . S
C3100 C3083 1.574 . S
C3100 H3094 0.949 . S
C3100 C3104 1.368 . S
C3101 C3082 1.429 . S
C3101 C3095 1.429 . S
C3101 C3102 1.523 . S
C3102 C3083 1.368 . S
C3102 C3096 1.368 . S
C3102 C3101 1.523 . S
C3103 C3087 1.429 . S
C3103 C3099 1.429 . S
C3103 C3104 1.523 . S
C3104 C3088 1.368 . S
C3104 C3100 1.368 . S
C3104 C3103 1.523 . S
H3105 C3080 0.950 . S
H3106 C3082 0.950 . S
H3107 C3083 0.949 . S
H3108 C3085 0.950 . S
H3109 C3087 0.950 . S
C3110 C3111 1.349 . S
C3110 C3112 1.327 . S
C3110 H3135 0.950 . S
C3111 C3110 1.349 . S
C3111 C3127 1.349 . S
C3112 C3110 1.327 . S
C3112 C3131 1.429 . S
C3112 H3136 0.950 . S
C3113 C3130 1.574 . S
C3113 C3132 1.368 . S
C3113 H3137 0.949 . S
H3114 C3118 0.949 . S
C3115 C3116 1.349 . S
C3115 C3117 1.327 . S
C3115 H3138 0.950 . S
C3116 C3115 1.349 . S
C3116 C3128 1.349 . S
C3117 C3115 1.327 . S
C3117 C3133 1.429 . S
C3117 H3139 0.950 . S
C3118 H3114 0.949 . S
C3118 C3126 1.574 . S
C3118 C3134 1.368 . S
H3119 C3127 0.950 . S
H3120 C3125 0.950 . S
H3121 C3126 0.949 . S
H3122 C3128 0.950 . S
H3123 C3129 0.950 . S
H3124 C3130 0.949 . S
C3125 H3120 0.950 . S
C3125 C3127 1.327 . S
C3125 C3131 1.429 . S
C3126 C3118 1.574 . S
C3126 H3121 0.949 . S
C3126 C3132 1.368 . S
C3127 C3111 1.349 . S
C3127 H3119 0.950 . S
C3127 C3125 1.327 . S
C3128 C3116 1.349 . S
C3128 H3122 0.950 . S
C3128 C3129 1.327 . S
C3129 H3123 0.950 . S
C3129 C3128 1.327 . S
C3129 C3133 1.429 . S
C3130 C3113 1.574 . S
C3130 H3124 0.949 . S
C3130 C3134 1.368 . S
C3131 C3112 1.429 . S
C3131 C3125 1.429 . S
C3131 C3132 1.523 . S
C3132 C3113 1.368 . S
C3132 C3126 1.368 . S
C3132 C3131 1.523 . S
C3133 C3117 1.429 . S
C3133 C3129 1.429 . S
C3133 C3134 1.523 . S
C3134 C3118 1.368 . S
C3134 C3130 1.368 . S
C3134 C3133 1.523 . S
H3135 C3110 0.950 . S
H3136 C3112 0.950 . S
H3137 C3113 0.949 . S
H3138 C3115 0.950 . S
H3139 C3117 0.950 . S
C3140 C3141 1.349 . S
C3140 C3142 1.327 . S
C3140 H3165 0.950 . S
C3141 C3140 1.349 . S
C3141 C3157 1.349 . S
C3142 C3140 1.327 . S
C3142 C3161 1.429 . S
C3142 H3166 0.950 . S
C3143 C3160 1.574 . S
C3143 C3162 1.368 . S
C3143 H3167 0.949 . S
H3144 C3148 0.949 . S
C3145 C3146 1.349 . S
C3145 C3147 1.327 . S
C3145 H3168 0.950 . S
C3146 C3145 1.349 . S
C3146 C3158 1.349 . S
C3147 C3145 1.327 . S
C3147 C3163 1.429 . S
C3147 H3169 0.950 . S
C3148 H3144 0.949 . S
C3148 C3156 1.574 . S
C3148 C3164 1.368 . S
H3149 C3157 0.950 . S
H3150 C3155 0.950 . S
H3151 C3156 0.949 . S
H3152 C3158 0.950 . S
H3153 C3159 0.950 . S
H3154 C3160 0.949 . S
C3155 H3150 0.950 . S
C3155 C3157 1.327 . S
C3155 C3161 1.429 . S
C3156 C3148 1.574 . S
C3156 H3151 0.949 . S
C3156 C3162 1.368 . S
C3157 C3141 1.349 . S
C3157 H3149 0.950 . S
C3157 C3155 1.327 . S
C3158 C3146 1.349 . S
C3158 H3152 0.950 . S
C3158 C3159 1.327 . S
C3159 H3153 0.950 . S
C3159 C3158 1.327 . S
C3159 C3163 1.429 . S
C3160 C3143 1.574 . S
C3160 H3154 0.949 . S
C3160 C3164 1.368 . S
C3161 C3142 1.429 . S
C3161 C3155 1.429 . S
C3161 C3162 1.523 . S
C3162 C3143 1.368 . S
C3162 C3156 1.368 . S
C3162 C3161 1.523 . S
C3163 C3147 1.429 . S
C3163 C3159 1.429 . S
C3163 C3164 1.523 . S
C3164 C3148 1.368 . S
C3164 C3160 1.368 . S
C3164 C3163 1.523 . S
H3165 C3140 0.950 . S
H3166 C3142 0.950 . S
H3167 C3143 0.949 . S
H3168 C3145 0.950 . S
H3169 C3147 0.950 . S
C3170 C3171 1.349 . S
C3170 C3172 1.327 . S
C3170 H3195 0.950 . S
C3171 C3170 1.349 . S
C3171 C3187 1.349 . S
C3172 C3170 1.327 . S
C3172 C3191 1.429 . S
C3172 H3196 0.950 . S
C3173 C3190 1.574 . S
C3173 C3192 1.368 . S
C3173 H3197 0.949 . S
H3174 C3178 0.949 . S
C3175 C3176 1.349 . S
C3175 C3177 1.327 . S
C3175 H3198 0.950 . S
C3176 C3175 1.349 . S
C3176 C3188 1.349 . S
C3177 C3175 1.327 . S
C3177 C3193 1.429 . S
C3177 H3199 0.950 . S
C3178 H3174 0.949 . S
C3178 C3186 1.574 . S
C3178 C3194 1.368 . S
H3179 C3187 0.950 . S
H3180 C3185 0.950 . S
H3181 C3186 0.949 . S
H3182 C3188 0.950 . S
H3183 C3189 0.950 . S
H3184 C3190 0.949 . S
C3185 H3180 0.950 . S
C3185 C3187 1.327 . S
C3185 C3191 1.429 . S
C3186 C3178 1.574 . S
C3186 H3181 0.949 . S
C3186 C3192 1.368 . S
C3187 C3171 1.349 . S
C3187 H3179 0.950 . S
C3187 C3185 1.327 . S
C3188 C3176 1.349 . S
C3188 H3182 0.950 . S
C3188 C3189 1.327 . S
C3189 H3183 0.950 . S
C3189 C3188 1.327 . S
C3189 C3193 1.429 . S
C3190 C3173 1.574 . S
C3190 H3184 0.949 . S
C3190 C3194 1.368 . S
C3191 C3172 1.429 . S
C3191 C3185 1.429 . S
C3191 C3192 1.523 . S
C3192 C3173 1.368 . S
C3192 C3186 1.368 . S
C3192 C3191 1.523 . S
C3193 C3177 1.429 . S
C3193 C3189 1.429 . S
C3193 C3194 1.523 . S
C3194 C3178 1.368 . S
C3194 C3190 1.368 . S
C3194 C3193 1.523 . S
H3195 C3170 0.950 . S
H3196 C3172 0.950 . S
H3197 C3173 0.949 . S
H3198 C3175 0.950 . S
H3199 C3177 0.950 . S
C3200 C3201 1.349 . S
C3200 C3202 1.327 . S
C3200 H3225 0.950 . S
C3201 C3200 1.349 . S
C3201 C3217 1.349 . S
C3202 C3200 1.327 . S
C3202 C3221 1.429 . S
C3202 H3226 0.950 . S
C3203 C3220 1.574 . S
C3203 C3222 1.368 . S
C3203 H3227 0.949 . S
H3204 C3208 0.949 . S
C3205 C3206 1.349 . S
C3205 C3207 1.327 . S
C3205 H3228 0.950 . S
C3206 C3205 1.349 . S
C3206 C3218 1.349 . S
C3207 C3205 1.327 . S
C3207 C3223 1.429 . S
C3207 H3229 0.950 . S
C3208 H3204 0.949 . S
C3208 C3216 1.574 . S
C3208 C3224 1.368 . S
H3209 C3217 0.950 . S
H3210 C3215 0.950 . S
H3211 C3216 0.949 . S
H3212 C3218 0.950 . S
H3213 C3219 0.950 . S
H3214 C3220 0.949 . S
C3215 H3210 0.950 . S
C3215 C3217 1.327 . S
C3215 C3221 1.429 . S
C3216 C3208 1.574 . S
C3216 H3211 0.949 . S
C3216 C3222 1.368 . S
C3217 C3201 1.349 . S
C3217 H3209 0.950 . S
C3217 C3215 1.327 . S
C3218 C3206 1.349 . S
C3218 H3212 0.950 . S
C3218 C3219 1.327 . S
C3219 H3213 0.950 . S
C3219 C3218 1.327 . S
C3219 C3223 1.429 . S
C3220 C3203 1.574 . S
C3220 H3214 0.949 . S
C3220 C3224 1.368 . S
C3221 C3202 1.429 . S
C3221 C3215 1.429 . S
C3221 C3222 1.523 . S
C3222 C3203 1.368 . S
C3222 C3216 1.368 . S
C3222 C3221 1.523 . S
C3223 C3207 1.429 . S
C3223 C3219 1.429 . S
C3223 C3224 1.523 . S
C3224 C3208 1.368 . S
C3224 C3220 1.368 . S
C3224 C3223 1.523 . S
H3225 C3200 0.950 . S
H3226 C3202 0.950 . S
H3227 C3203 0.949 . S
H3228 C3205 0.950 . S
H3229 C3207 0.950 . S
C3230 C3231 1.349 . S
C3230 C3232 1.327 . S
C3230 H3255 0.950 . S
C3231 C3230 1.349 . S
C3231 C3247 1.349 . S
C3232 C3230 1.327 . S
C3232 C3251 1.429 . S
C3232 H3256 0.950 . S
C3233 C3250 1.574 . S
C3233 C3252 1.368 . S
C3233 H3257 0.949 . S
H3234 C3238 0.949 . S
C3235 C3236 1.349 . S
C3235 C3237 1.327 . S
C3235 H3258 0.950 . S
C3236 C3235 1.349 . S
C3236 C3248 1.349 . S
C3237 C3235 1.327 . S
C3237 C3253 1.429 . S
C3237 H3259 0.950 . S
C3238 H3234 0.949 . S
C3238 C3246 1.574 . S
C3238 C3254 1.368 . S
H3239 C3247 0.950 . S
H3240 C3245 0.950 . S
H3241 C3246 0.949 . S
H3242 C3248 0.950 . S
H3243 C3249 0.950 . S
H3244 C3250 0.949 . S
C3245 H3240 0.950 . S
C3245 C3247 1.327 . S
C3245 C3251 1.429 . S
C3246 C3238 1.574 . S
C3246 H3241 0.949 . S
C3246 C3252 1.368 . S
C3247 C3231 1.349 . S
C3247 H3239 0.950 . S
C3247 C3245 1.327 . S
C3248 C3236 1.349 . S
C3248 H3242 0.950 . S
C3248 C3249 1.327 . S
C3249 H3243 0.950 . S
C3249 C3248 1.327 . S
C3249 C3253 1.429 . S
C3250 C3233 1.574 . S
C3250 H3244 0.949 . S
C3250 C3254 1.368 . S
C3251 C3232 1.429 . S
C3251 C3245 1.429 . S
C3251 C3252 1.523 . S
C3252 C3233 1.368 . S
C3252 C3246 1.368 . S
C3252 C3251 1.523 . S
C3253 C3237 1.429 . S
C3253 C3249 1.429 . S
C3253 C3254 1.523 . S
C3254 C3238 1.368 . S
C3254 C3250 1.368 . S
C3254 C3253 1.523 . S
H3255 C3230 0.950 . S
H3256 C3232 0.950 . S
H3257 C3233 0.949 . S
H3258 C3235 0.950 . S
H3259 C3237 0.950 . S
C3260 C3261 1.349 . S
C3260 C3262 1.327 . S
C3260 H3285 0.950 . S
C3261 C3260 1.349 . S
C3261 C3277 1.349 . S
C3262 C3260 1.327 . S
C3262 C3281 1.429 . S
C3262 H3286 0.950 . S
C3263 C3280 1.574 . S
C3263 C3282 1.368 . S
C3263 H3287 0.949 . S
H3264 C3268 0.949 . S
C3265 C3266 1.349 . S
C3265 C3267 1.327 . S
C3265 H3288 0.950 . S
C3266 C3265 1.349 . S
C3266 C3278 1.349 . S
C3267 C3265 1.327 . S
C3267 C3283 1.429 . S
C3267 H3289 0.950 . S
C3268 H3264 0.949 . S
C3268 C3276 1.574 . S
C3268 C3284 1.368 . S
H3269 C3277 0.950 . S
H3270 C3275 0.950 . S
H3271 C3276 0.949 . S
H3272 C3278 0.950 . S
H3273 C3279 0.950 . S
H3274 C3280 0.949 . S
C3275 H3270 0.950 . S
C3275 C3277 1.327 . S
C3275 C3281 1.429 . S
C3276 C3268 1.574 . S
C3276 H3271 0.949 . S
C3276 C3282 1.368 . S
C3277 C3261 1.349 . S
C3277 H3269 0.950 . S
C3277 C3275 1.327 . S
C3278 C3266 1.349 . S
C3278 H3272 0.950 . S
C3278 C3279 1.327 . S
C3279 H3273 0.950 . S
C3279 C3278 1.327 . S
C3279 C3283 1.429 . S
C3280 C3263 1.574 . S
C3280 H3274 0.949 . S
C3280 C3284 1.368 . S
C3281 C3262 1.429 . S
C3281 C3275 1.429 . S
C3281 C3282 1.523 . S
C3282 C3263 1.368 . S
C3282 C3276 1.368 . S
C3282 C3281 1.523 . S
C3283 C3267 1.429 . S
C3283 C3279 1.429 . S
C3283 C3284 1.523 . S
C3284 C3268 1.368 . S
C3284 C3280 1.368 . S
C3284 C3283 1.523 . S
H3285 C3260 0.950 . S
H3286 C3262 0.950 . S
H3287 C3263 0.949 . S
H3288 C3265 0.950 . S
H3289 C3267 0.950 . S
C3290 C3291 1.349 . S
C3290 C3292 1.327 . S
C3290 H3315 0.950 . S
C3291 C3290 1.349 . S
C3291 C3307 1.349 . S
C3292 C3290 1.327 . S
C3292 C3311 1.429 . S
C3292 H3316 0.950 . S
C3293 C3310 1.574 . S
C3293 C3312 1.368 . S
C3293 H3317 0.949 . S
H3294 C3298 0.949 . S
C3295 C3296 1.349 . S
C3295 C3297 1.327 . S
C3295 H3318 0.950 . S
C3296 C3295 1.349 . S
C3296 C3308 1.349 . S
C3297 C3295 1.327 . S
C3297 C3313 1.429 . S
C3297 H3319 0.950 . S
C3298 H3294 0.949 . S
C3298 C3306 1.574 . S
C3298 C3314 1.368 . S
H3299 C3307 0.950 . S
H3300 C3305 0.950 . S
H3301 C3306 0.949 . S
H3302 C3308 0.950 . S
H3303 C3309 0.950 . S
H3304 C3310 0.949 . S
C3305 H3300 0.950 . S
C3305 C3307 1.327 . S
C3305 C3311 1.429 . S
C3306 C3298 1.574 . S
C3306 H3301 0.949 . S
C3306 C3312 1.368 . S
C3307 C3291 1.349 . S
C3307 H3299 0.950 . S
C3307 C3305 1.327 . S
C3308 C3296 1.349 . S
C3308 H3302 0.950 . S
C3308 C3309 1.327 . S
C3309 H3303 0.950 . S
C3309 C3308 1.327 . S
C3309 C3313 1.429 . S
C3310 C3293 1.574 . S
C3310 H3304 0.949 . S
C3310 C3314 1.368 . S
C3311 C3292 1.429 . S
C3311 C3305 1.429 . S
C3311 C3312 1.523 . S
C3312 C3293 1.368 . S
C3312 C3306 1.368 . S
C3312 C3311 1.523 . S
C3313 C3297 1.429 . S
C3313 C3309 1.429 . S
C3313 C3314 1.523 . S
C3314 C3298 1.368 . S
C3314 C3310 1.368 . S
C3314 C3313 1.523 . S
H3315 C3290 0.950 . S
H3316 C3292 0.950 . S
H3317 C3293 0.949 . S
H3318 C3295 0.950 . S
H3319 C3297 0.950 . S
C3320 C3321 1.349 . S
C3320 C3322 1.327 . S
C3320 H3345 0.950 . S
C3321 C3320 1.349 . S
C3321 C3337 1.349 . S
C3322 C3320 1.327 . S
C3322 C3341 1.429 . S
C3322 H3346 0.950 . S
C3323 C3340 1.574 . S
C3323 C3342 1.368 . S
C3323 H3347 0.949 . S
H3324 C3328 0.949 . S
C3325 C3326 1.349 . S
C3325 C3327 1.327 . S
C3325 H3348 0.950 . S
C3326 C3325 1.349 . S
C3326 C3338 1.349 . S
C3327 C3325 1.327 . S
C3327 C3343 1.429 . S
C3327 H3349 0.950 . S
C3328 H3324 0.949 . S
C3328 C3336 1.574 . S
C3328 C3344 1.368 . S
H3329 C3337 0.950 . S
H3330 C3335 0.950 . S
H3331 C3336 0.949 . S
H3332 C3338 0.950 . S
H3333 C3339 0.950 . S
H3334 C3340 0.949 . S
C3335 H3330 0.950 . S
C3335 C3337 1.327 . S
C3335 C3341 1.429 . S
C3336 C3328 1.574 . S
C3336 H3331 0.949 . S
C3336 C3342 1.368 . S
C3337 C3321 1.349 . S
C3337 H3329 0.950 . S
C3337 C3335 1.327 . S
C3338 C3326 1.349 . S
C3338 H3332 0.950 . S
C3338 C3339 1.327 . S
C3339 H3333 0.950 . S
C3339 C3338 1.327 . S
C3339 C3343 1.429 . S
C3340 C3323 1.574 . S
C3340 H3334 0.949 . S
C3340 C3344 1.368 . S
C3341 C3322 1.429 . S
C3341 C3335 1.429 . S
C3341 C3342 1.523 . S
C3342 C3323 1.368 . S
C3342 C3336 1.368 . S
C3342 C3341 1.523 . S
C3343 C3327 1.429 . S
C3343 C3339 1.429 . S
C3343 C3344 1.523 . S
C3344 C3328 1.368 . S
C3344 C3340 1.368 . S
C3344 C3343 1.523 . S
H3345 C3320 0.950 . S
H3346 C3322 0.950 . S
H3347 C3323 0.949 . S
H3348 C3325 0.950 . S
H3349 C3327 0.950 . S
C3350 C3351 1.349 . S
C3350 C3352 1.327 . S
C3350 H3375 0.950 . S
C3351 C3350 1.349 . S
C3351 C3367 1.349 . S
C3352 C3350 1.327 . S
C3352 C3371 1.429 . S
C3352 H3376 0.950 . S
C3353 C3370 1.574 . S
C3353 C3372 1.368 . S
C3353 H3377 0.949 . S
H3354 C3358 0.949 . S
C3355 C3356 1.349 . S
C3355 C3357 1.327 . S
C3355 H3378 0.950 . S
C3356 C3355 1.349 . S
C3356 C3368 1.349 . S
C3357 C3355 1.327 . S
C3357 C3373 1.429 . S
C3357 H3379 0.950 . S
C3358 H3354 0.949 . S
C3358 C3366 1.574 . S
C3358 C3374 1.368 . S
H3359 C3367 0.950 . S
H3360 C3365 0.950 . S
H3361 C3366 0.949 . S
H3362 C3368 0.950 . S
H3363 C3369 0.950 . S
H3364 C3370 0.949 . S
C3365 H3360 0.950 . S
C3365 C3367 1.327 . S
C3365 C3371 1.429 . S
C3366 C3358 1.574 . S
C3366 H3361 0.949 . S
C3366 C3372 1.368 . S
C3367 C3351 1.349 . S
C3367 H3359 0.950 . S
C3367 C3365 1.327 . S
C3368 C3356 1.349 . S
C3368 H3362 0.950 . S
C3368 C3369 1.327 . S
C3369 H3363 0.950 . S
C3369 C3368 1.327 . S
C3369 C3373 1.429 . S
C3370 C3353 1.574 . S
C3370 H3364 0.949 . S
C3370 C3374 1.368 . S
C3371 C3352 1.429 . S
C3371 C3365 1.429 . S
C3371 C3372 1.523 . S
C3372 C3353 1.368 . S
C3372 C3366 1.368 . S
C3372 C3371 1.523 . S
C3373 C3357 1.429 . S
C3373 C3369 1.429 . S
C3373 C3374 1.523 . S
C3374 C3358 1.368 . S
C3374 C3370 1.368 . S
C3374 C3373 1.523 . S
H3375 C3350 0.950 . S
H3376 C3352 0.950 . S
H3377 C3353 0.949 . S
H3378 C3355 0.950 . S
H3379 C3357 0.950 . S
C3380 C3381 1.349 . S
C3380 C3382 1.327 . S
C3380 H3405 0.950 . S
C3381 C3380 1.349 . S
C3381 C3397 1.349 . S
C3382 C3380 1.327 . S
C3382 C3401 1.429 . S
C3382 H3406 0.950 . S
C3383 C3400 1.574 . S
C3383 C3402 1.368 . S
C3383 H3407 0.949 . S
H3384 C3388 0.949 . S
C3385 C3386 1.349 . S
C3385 C3387 1.327 . S
C3385 H3408 0.950 . S
C3386 C3385 1.349 . S
C3386 C3398 1.349 . S
C3387 C3385 1.327 . S
C3387 C3403 1.429 . S
C3387 H3409 0.950 . S
C3388 H3384 0.949 . S
C3388 C3396 1.574 . S
C3388 C3404 1.368 . S
H3389 C3397 0.950 . S
H3390 C3395 0.950 . S
H3391 C3396 0.949 . S
H3392 C3398 0.950 . S
H3393 C3399 0.950 . S
H3394 C3400 0.949 . S
C3395 H3390 0.950 . S
C3395 C3397 1.327 . S
C3395 C3401 1.429 . S
C3396 C3388 1.574 . S
C3396 H3391 0.949 . S
C3396 C3402 1.368 . S
C3397 C3381 1.349 . S
C3397 H3389 0.950 . S
C3397 C3395 1.327 . S
C3398 C3386 1.349 . S
C3398 H3392 0.950 . S
C3398 C3399 1.327 . S
C3399 H3393 0.950 . S
C3399 C3398 1.327 . S
C3399 C3403 1.429 . S
C3400 C3383 1.574 . S
C3400 H3394 0.949 . S
C3400 C3404 1.368 . S
C3401 C3382 1.429 . S
C3401 C3395 1.429 . S
C3401 C3402 1.523 . S
C3402 C3383 1.368 . S
C3402 C3396 1.368 . S
C3402 C3401 1.523 . S
C3403 C3387 1.429 . S
C3403 C3399 1.429 . S
C3403 C3404 1.523 . S
C3404 C3388 1.368 . S
C3404 C3400 1.368 . S
C3404 C3403 1.523 . S
H3405 C3380 0.950 . S
H3406 C3382 0.950 . S
H3407 C3383 0.949 . S
H3408 C3385 0.950 . S
H3409 C3387 0.950 . S
C3410 C3411 1.349 . S
C3410 C3412 1.327 . S
C3410 H3435 0.950 . S
C3411 C3410 1.349 . S
C3411 C3427 1.349 . S
C3412 C3410 1.327 . S
C3412 C3431 1.429 . S
C3412 H3436 0.950 . S
C3413 C3430 1.574 . S
C3413 C3432 1.368 . S
C3413 H3437 0.949 . S
H3414 C3418 0.960 . S
C3415 C3416 1.349 1_554 S
C3415 C3417 1.327 . S
C3415 H3438 0.950 . S
C3416 C3415 1.349 1_556 S
C3416 C3428 1.349 . S
C3417 C3415 1.327 . S
C3417 C3433 1.429 . S
C3417 H3439 0.950 . S
C3418 H3414 0.960 . S
C3418 C3426 1.569 1_556 S
C3418 C3434 1.361 1_556 S
H3419 C3427 0.950 . S
H3420 C3425 0.950 . S
H3421 C3426 0.939 1_556 S
H3422 C3428 0.944 . S
H3423 C3429 0.950 . S
H3424 C3430 0.949 . S
C3425 H3420 0.950 . S
C3425 C3427 1.327 . S
C3425 C3431 1.429 . S
C3426 C3418 1.569 1_554 S
C3426 H3421 0.939 1_554 S
C3426 C3432 1.383 . S
C3427 C3411 1.349 . S
C3427 H3419 0.950 . S
C3427 C3425 1.327 . S
C3428 C3416 1.349 . S
C3428 H3422 0.944 . S
C3428 C3429 1.327 . S
C3429 H3423 0.950 . S
C3429 C3428 1.327 . S
C3429 C3433 1.429 1_556 S
C3430 C3413 1.574 . S
C3430 H3424 0.949 . S
C3430 C3434 1.368 . S
C3431 C3412 1.429 . S
C3431 C3425 1.429 . S
C3431 C3432 1.523 . S
C3432 C3413 1.368 . S
C3432 C3426 1.383 . S
C3432 C3431 1.523 . S
C3433 C3417 1.429 . S
C3433 C3429 1.429 1_554 S
C3433 C3434 1.523 . S
C3434 C3418 1.361 1_554 S
C3434 C3430 1.368 . S
C3434 C3433 1.523 . S
H3435 C3410 0.950 . S
H3436 C3412 0.950 . S
H3437 C3413 0.949 . S
H3438 C3415 0.950 . S
H3439 C3417 0.950 . S
C3440 C3441 1.349 . S
C3440 C3442 1.327 . S
C3440 H3465 0.950 . S
C3441 C3440 1.349 . S
C3441 C3457 1.349 . S
C3442 C3440 1.327 . S
C3442 C3461 1.429 . S
C3442 H3466 0.950 . S
C3443 C3460 1.574 . S
C3443 C3462 1.368 . S
C3443 H3467 0.949 . S
H3444 C3448 0.949 . S
C3445 C3446 1.349 . S
C3445 C3447 1.327 . S
C3445 H3468 0.950 . S
C3446 C3445 1.349 . S
C3446 C3458 1.349 . S
C3447 C3445 1.327 . S
C3447 C3463 1.429 . S
C3447 H3469 0.950 . S
C3448 H3444 0.949 . S
C3448 C3456 1.574 . S
C3448 C3464 1.368 . S
H3449 C3457 0.950 . S
H3450 C3455 0.950 . S
H3451 C3456 0.949 . S
H3452 C3458 0.950 . S
H3453 C3459 0.950 . S
H3454 C3460 0.949 . S
C3455 H3450 0.950 . S
C3455 C3457 1.327 . S
C3455 C3461 1.429 . S
C3456 C3448 1.574 . S
C3456 H3451 0.949 . S
C3456 C3462 1.368 . S
C3457 C3441 1.349 . S
C3457 H3449 0.950 . S
C3457 C3455 1.327 . S
C3458 C3446 1.349 . S
C3458 H3452 0.950 . S
C3458 C3459 1.327 . S
C3459 H3453 0.950 . S
C3459 C3458 1.327 . S
C3459 C3463 1.429 . S
C3460 C3443 1.574 . S
C3460 H3454 0.949 . S
C3460 C3464 1.368 . S
C3461 C3442 1.429 . S
C3461 C3455 1.429 . S
C3461 C3462 1.523 . S
C3462 C3443 1.368 . S
C3462 C3456 1.368 . S
C3462 C3461 1.523 . S
C3463 C3447 1.429 . S
C3463 C3459 1.429 . S
C3463 C3464 1.523 . S
C3464 C3448 1.368 . S
C3464 C3460 1.368 . S
C3464 C3463 1.523 . S
H3465 C3440 0.950 . S
H3466 C3442 0.950 . S
H3467 C3443 0.949 . S
H3468 C3445 0.950 . S
H3469 C3447 0.950 . S
C3470 C3471 1.349 1_556 S
C3470 C3472 1.327 . S
C3470 H3495 0.950 . S
C3471 C3470 1.349 1_554 S
C3471 C3487 1.349 . S
C3472 C3470 1.327 . S
C3472 C3491 1.429 1_556 S
C3472 H3496 0.950 . S
C3473 C3490 1.574 . S
C3473 C3492 1.368 . S
C3473 H3497 0.949 . S
H3474 C3478 0.949 1_556 S
C3475 C3476 1.349 . S
C3475 C3477 1.327 . S
C3475 H3498 0.950 . S
C3476 C3475 1.349 . S
C3476 C3488 1.349 . S
C3477 C3475 1.327 . S
C3477 C3493 1.429 . S
C3477 H3499 0.950 . S
C3478 H3474 0.949 1_554 S
C3478 C3486 1.574 . S
C3478 C3494 1.368 . S
H3479 C3487 0.950 . S
H3480 C3485 0.950 . S
H3481 C3486 0.949 1_556 S
H3482 C3488 0.950 . S
H3483 C3489 0.950 . S
H3484 C3490 0.949 . S
C3485 H3480 0.950 . S
C3485 C3487 1.327 . S
C3485 C3491 1.429 . S
C3486 C3478 1.574 . S
C3486 H3481 0.949 1_554 S
C3486 C3492 1.368 . S
C3487 C3471 1.349 . S
C3487 H3479 0.950 . S
C3487 C3485 1.327 . S
C3488 C3476 1.349 . S
C3488 H3482 0.950 . S
C3488 C3489 1.327 . S
C3489 H3483 0.950 . S
C3489 C3488 1.327 . S
C3489 C3493 1.429 . S
C3490 C3473 1.574 . S
C3490 H3484 0.949 . S
C3490 C3494 1.368 . S
C3491 C3472 1.429 1_554 S
C3491 C3485 1.429 . S
C3491 C3492 1.523 . S
C3492 C3473 1.368 . S
C3492 C3486 1.368 . S
C3492 C3491 1.523 . S
C3493 C3477 1.429 . S
C3493 C3489 1.429 . S
C3493 C3494 1.523 . S
C3494 C3478 1.368 . S
C3494 C3490 1.368 . S
C3494 C3493 1.523 . S
H3495 C3470 0.950 . S
H3496 C3472 0.950 . S
H3497 C3473 0.949 . S
H3498 C3475 0.950 . S
H3499 C3477 0.950 . S
C3500 C3501 1.349 . S
C3500 C3502 1.327 . S
C3500 H3525 0.950 . S
C3501 C3500 1.349 . S
C3501 C3517 1.349 . S
C3502 C3500 1.327 . S
C3502 C3521 1.429 . S
C3502 H3526 0.950 . S
C3503 C3520 1.574 . S
C3503 C3522 1.368 . S
C3503 H3527 0.949 . S
H3504 C3508 0.949 . S
C3505 C3506 1.349 . S
C3505 C3507 1.327 . S
C3505 H3528 0.950 . S
C3506 C3505 1.349 . S
C3506 C3518 1.349 . S
C3507 C3505 1.327 . S
C3507 C3523 1.429 . S
C3507 H3529 0.950 . S
C3508 H3504 0.949 . S
C3508 C3516 1.574 . S
C3508 C3524 1.368 . S
H3509 C3517 0.950 . S
H3510 C3515 0.950 . S
H3511 C3516 0.949 . S
H3512 C3518 0.950 . S
H3513 C3519 0.950 . S
H3514 C3520 0.949 . S
C3515 H3510 0.950 . S
C3515 C3517 1.327 . S
C3515 C3521 1.429 . S
C3516 C3508 1.574 . S
C3516 H3511 0.949 . S
C3516 C3522 1.368 . S
C3517 C3501 1.349 . S
C3517 H3509 0.950 . S
C3517 C3515 1.327 . S
C3518 C3506 1.349 . S
C3518 H3512 0.950 . S
C3518 C3519 1.327 . S
C3519 H3513 0.950 . S
C3519 C3518 1.327 . S
C3519 C3523 1.429 . S
C3520 C3503 1.574 . S
C3520 H3514 0.949 . S
C3520 C3524 1.368 . S
C3521 C3502 1.429 . S
C3521 C3515 1.429 . S
C3521 C3522 1.523 . S
C3522 C3503 1.368 . S
C3522 C3516 1.368 . S
C3522 C3521 1.523 . S
C3523 C3507 1.429 . S
C3523 C3519 1.429 . S
C3523 C3524 1.523 . S
C3524 C3508 1.368 . S
C3524 C3520 1.368 . S
C3524 C3523 1.523 . S
H3525 C3500 0.950 . S
H3526 C3502 0.950 . S
H3527 C3503 0.949 . S
H3528 C3505 0.950 . S
H3529 C3507 0.950 . S
C3530 C3531 1.349 . S
C3530 C3532 1.327 . S
C3530 H3555 0.950 . S
C3531 C3530 1.349 . S
C3531 C3547 1.349 . S
C3532 C3530 1.327 . S
C3532 C3551 1.429 . S
C3532 H3556 0.950 . S
C3533 C3550 1.574 . S
C3533 C3552 1.368 . S
C3533 H3557 0.949 . S
H3534 C3538 0.949 . S
C3535 C3536 1.349 . S
C3535 C3537 1.327 . S
C3535 H3558 0.950 . S
C3536 C3535 1.349 . S
C3536 C3548 1.349 . S
C3537 C3535 1.327 . S
C3537 C3553 1.429 . S
C3537 H3559 0.950 . S
C3538 H3534 0.949 . S
C3538 C3546 1.574 . S
C3538 C3554 1.368 . S
H3539 C3547 0.950 . S
H3540 C3545 0.950 . S
H3541 C3546 0.949 . S
H3542 C3548 0.950 . S
H3543 C3549 0.950 . S
H3544 C3550 0.949 . S
C3545 H3540 0.950 . S
C3545 C3547 1.327 . S
C3545 C3551 1.429 . S
C3546 C3538 1.574 . S
C3546 H3541 0.949 . S
C3546 C3552 1.368 . S
C3547 C3531 1.349 . S
C3547 H3539 0.950 . S
C3547 C3545 1.327 . S
C3548 C3536 1.349 . S
C3548 H3542 0.950 . S
C3548 C3549 1.327 . S
C3549 H3543 0.950 . S
C3549 C3548 1.327 . S
C3549 C3553 1.429 . S
C3550 C3533 1.574 . S
C3550 H3544 0.949 . S
C3550 C3554 1.368 . S
C3551 C3532 1.429 . S
C3551 C3545 1.429 . S
C3551 C3552 1.523 . S
C3552 C3533 1.368 . S
C3552 C3546 1.368 . S
C3552 C3551 1.523 . S
C3553 C3537 1.429 . S
C3553 C3549 1.429 . S
C3553 C3554 1.523 . S
C3554 C3538 1.368 . S
C3554 C3550 1.368 . S
C3554 C3553 1.523 . S
H3555 C3530 0.950 . S
H3556 C3532 0.950 . S
H3557 C3533 0.949 . S
H3558 C3535 0.950 . S
H3559 C3537 0.950 . S
C686 C328 1.196 . S
C681 C10 1.215 . S
C711 C23 1.522 . S
C716 C356 1.422 . S
C741 C36 1.218 . S
C746 C374 1.199 . S
C776 C400 1.429 . S
C771 C42 1.563 . S
C801 C18 1.563 . S
C806 C423 1.440 . S
C836 C443 1.205 . S
C831 C31 1.226 . S
C866 C471 1.421 . S
C861 C43 1.522 . S
C891 C5 1.223 . S
C896 C489 1.203 . S
C921 C56 1.532 . S
C926 C330 1.525 1_545 S
C951 C70 1.168 . S
C956 C352 1.153 . S
C986 C376 1.531 . S
C981 C82 1.531 . S
C1016 C397 1.203 . S
C1011 C96 1.218 . S
C1041 C57 1.222 . S
C1046 C420 1.207 . S
C1076 C445 1.533 . S
C1071 C69 1.533 . S
C1106 C467 1.156 . S
C1101 C83 1.172 . S
C1136 C491 1.535 . S
C1131 C95 1.534 . S
C1166 C331 1.001 . S
C1161 C94 1.075 . S
C1196 C514 1.280 . S
C1191 C108 1.282 . S
C1221 C122 1.106 . S
C1226 C538 1.028 . S
C1256 C562 1.225 . S
C1251 C140 1.256 . S
C1281 C55 1.077 . S
C1286 C492 1.003 . S
C1316 C377 1.028 . S
C1311 C68 1.106 . S
C1341 C121 1.285 . S
C1346 C583 1.282 . S
C1376 C608 1.227 . S
C1371 C153 1.258 . S
C1401 C161 0.888 . S
C1406 C329 0.883 . S
C1436 C606 0.783 . S
C1431 C174 0.783 . S
C1461 C186 0.884 . S
C1466 C375 0.879 . S
C1491 C200 0.716 . S
C1496 C585 0.720 . S
C1526 C424 0.720 . S
C1521 C172 0.716 . S
C1556 C536 0.878 . S
C1551 C192 0.884 . S
C1586 C468 0.783 . S
C1581 C198 0.783 . S
C1616 C628 0.883 . S
C1611 C159 0.888 . S
C1646 C333 0.679 . S
C1641 C211 0.655 . S
C1671 C225 1.124 . S
C1676 C604 1.109 . S
C1706 C379 0.680 . S
C1701 C239 0.656 . S
C1731 C251 1.109 . S
C1736 C582 1.093 . S
C1761 C218 1.109 . S
C1766 C421 1.093 . S
C1791 C226 0.656 . S
C1796 C540 0.680 . S
C1826 C466 1.108 . S
C1821 C238 1.124 . S
C1851 C252 0.655 . S
C1856 C632 0.679 . S
C1881 C250 1.135 . S
C1886 C332 1.107 . S
C1911 C264 0.976 . S
C1916 C517 0.939 1_556 S
C1941 C276 1.144 . S
C1946 C447 1.115 . S
C1971 C290 0.988 . S
C1976 C561 0.931 . S
C2006 C631 1.107 . S
C2001 C213 1.135 . S
C2036 C378 1.117 . S
C2031 C224 1.145 . S
C2066 C402 0.939 . S
C2061 C283 0.976 . S
C2096 C354 0.932 . S
C2091 C303 0.988 . S
C2121 C29 1.224 . S
C2126 C650 1.203 . S
C2156 C609 1.421 . S
C2151 C49 1.522 . S
C2186 C673 1.205 . S
C2181 C3 1.226 . S
C2211 C16 1.562 . S
C2216 C584 1.428 . S
C2241 C44 1.563 . S
C2246 C515 1.429 . S
C2276 C535 1.198 . S
C2271 C4 1.218 . S
C2306 C563 1.422 . S
C2301 C17 1.522 . S
C2336 C627 1.196 . S
C2331 C30 1.215 . S
C2366 C652 1.535 . S
C2361 C147 1.534 . S
C2391 C107 1.172 . S
C2396 C605 1.156 . S
C2421 C127 1.533 . S
C2426 C675 1.533 1_655 S
C2456 C581 1.207 . S
C2451 C135 1.222 . S
C2486 C512 1.203 . S
C2481 C148 1.218 . S
C2511 C114 1.531 . S
C2516 C537 1.531 . S
C2546 C559 1.153 . S
C2541 C120 1.168 . S
C2571 C134 1.532 . S
C2576 C629 1.532 . S
C2606 C653 1.003 . S
C2601 C133 1.077 . S
C2636 C422 1.282 1_565 S
C2631 C75 1.285 . S
C2666 C446 1.030 . S
C2661 C81 1.108 . S
C2691 C101 1.258 . S
C2696 C470 1.227 . S
C2726 C630 1.002 . S
C2721 C146 1.075 . S
C2751 C109 1.108 . S
C2756 C676 1.035 . S
C2786 C399 1.280 . S
C2781 C88 1.282 . S
C2816 C355 1.225 . S
C2811 C62 1.256 . S
C2841 C187 0.888 . S
C2846 C651 0.883 . S
C2876 C353 0.771 . S
C2871 C199 0.771 . S
C2906 C674 0.878 . S
C2901 C160 0.884 . S
C2931 C173 0.705 . S
C2936 C401 0.710 . S
C2961 C205 0.705 . S
C2966 C516 0.710 . S
C2991 C166 0.884 . S
C2996 C444 0.878 . S
C3021 C179 0.771 . S
C3026 C560 0.771 . S
C3051 C185 0.888 . S
C3056 C490 0.883 . S
C3086 C655 0.682 . S
C3081 C302 0.658 . S
C3111 C270 1.129 . S
C3116 C351 1.113 . S
C3146 C678 0.682 . S
C3141 C278 0.659 . S
C3171 C296 1.113 . S
C3176 C398 1.097 . S
C3201 C309 1.113 . S
C3206 C513 1.097 . S
C3236 C448 0.682 . S
C3231 C263 0.659 . S
C3261 C277 1.129 . S
C3266 C558 1.113 . S
C3296 C494 0.682 . S
C3291 C289 0.658 . S
C3326 C654 1.106 . S
C3321 C291 1.134 . S
C3356 C425 0.937 . S
C3351 C231 0.973 . S
C3381 C237 1.146 . S
C3386 C539 1.117 . S
C3416 C469 0.930 1_556 S
C3411 C257 0.985 . S
C3446 C493 1.106 . S
C3441 C304 1.134 . S
C3471 C265 1.144 . S
C3476 C677 1.115 . S
C3506 C586 0.937 . S
C3501 C244 0.973 . S
C3536 C607 0.930 . S
C3531 C212 0.985 . S
