# Generated by pormake.
# Topology gar, (4,6)-cn, num edge types: 1
# Building blocks:
#     Node 0, Type 0, BuildingBlock: KUFVIS_clean_sbu_0, # of connection points: 4
#     Node 1, Type 0, BuildingBlock: KUFVIS_clean_sbu_0, # of connection points: 4
#     Node 2, Type 0, BuildingBlock: KUFVIS_clean_sbu_0, # of connection points: 4
#     Node 3, Type 0, BuildingBlock: KUFVIS_clean_sbu_0, # of connection points: 4
#     Node 4, Type 0, BuildingBlock: KUFVIS_clean_sbu_0, # of connection points: 4
#     Node 5, Type 0, BuildingBlock: KUFVIS_clean_sbu_0, # of connection points: 4
#     Node 6, Type 0, BuildingBlock: KUFVIS_clean_sbu_0, # of connection points: 4
#     Node 7, Type 0, BuildingBlock: KUFVIS_clean_sbu_0, # of connection points: 4
#     Node 8, Type 0, BuildingBlock: KUFVIS_clean_sbu_0, # of connection points: 4
#     Node 9, Type 0, BuildingBlock: KUFVIS_clean_sbu_0, # of connection points: 4
#     Node 10, Type 0, BuildingBlock: KUFVIS_clean_sbu_0, # of connection points: 4
#     Node 11, Type 0, BuildingBlock: KUFVIS_clean_sbu_0, # of connection points: 4
#     Node 12, Type 0, BuildingBlock: KUFVIS_clean_sbu_0, # of connection points: 4
#     Node 13, Type 0, BuildingBlock: KUFVIS_clean_sbu_0, # of connection points: 4
#     Node 14, Type 0, BuildingBlock: KUFVIS_clean_sbu_0, # of connection points: 4
#     Node 15, Type 0, BuildingBlock: KUFVIS_clean_sbu_0, # of connection points: 4
#     Node 16, Type 0, BuildingBlock: KUFVIS_clean_sbu_0, # of connection points: 4
#     Node 17, Type 0, BuildingBlock: KUFVIS_clean_sbu_0, # of connection points: 4
#     Node 18, Type 0, BuildingBlock: KUFVIS_clean_sbu_0, # of connection points: 4
#     Node 19, Type 0, BuildingBlock: KUFVIS_clean_sbu_0, # of connection points: 4
#     Node 20, Type 0, BuildingBlock: KUFVIS_clean_sbu_0, # of connection points: 4
#     Node 21, Type 0, BuildingBlock: KUFVIS_clean_sbu_0, # of connection points: 4
#     Node 22, Type 0, BuildingBlock: KUFVIS_clean_sbu_0, # of connection points: 4
#     Node 23, Type 0, BuildingBlock: KUFVIS_clean_sbu_0, # of connection points: 4
#     Node 24, Type 1, BuildingBlock: HISSIN_clean_sbu_0, # of connection points: 6
#     Node 25, Type 1, BuildingBlock: HISSIN_clean_sbu_0, # of connection points: 6
#     Node 26, Type 1, BuildingBlock: HISSIN_clean_sbu_0, # of connection points: 6
#     Node 27, Type 1, BuildingBlock: HISSIN_clean_sbu_0, # of connection points: 6
#     Node 28, Type 1, BuildingBlock: HISSIN_clean_sbu_0, # of connection points: 6
#     Node 29, Type 1, BuildingBlock: HISSIN_clean_sbu_0, # of connection points: 6
#     Node 30, Type 1, BuildingBlock: HISSIN_clean_sbu_0, # of connection points: 6
#     Node 31, Type 1, BuildingBlock: HISSIN_clean_sbu_0, # of connection points: 6
#     Node 32, Type 1, BuildingBlock: HISSIN_clean_sbu_0, # of connection points: 6
#     Node 33, Type 1, BuildingBlock: HISSIN_clean_sbu_0, # of connection points: 6
#     Node 34, Type 1, BuildingBlock: HISSIN_clean_sbu_0, # of connection points: 6
#     Node 35, Type 1, BuildingBlock: HISSIN_clean_sbu_0, # of connection points: 6
#     Node 36, Type 1, BuildingBlock: HISSIN_clean_sbu_0, # of connection points: 6
#     Node 37, Type 1, BuildingBlock: HISSIN_clean_sbu_0, # of connection points: 6
#     Node 38, Type 1, BuildingBlock: HISSIN_clean_sbu_0, # of connection points: 6
#     Node 39, Type 1, BuildingBlock: HISSIN_clean_sbu_0, # of connection points: 6
#     Edge 40, Type (0, 1), BuildingBlock: XIVTED_clean_linker_0, # of connection points: 2
#     Edge 41, Type (0, 1), BuildingBlock: XIVTED_clean_linker_0, # of connection points: 2
#     Edge 42, Type (0, 1), BuildingBlock: XIVTED_clean_linker_0, # of connection points: 2
#     Edge 43, Type (0, 1), BuildingBlock: XIVTED_clean_linker_0, # of connection points: 2
#     Edge 44, Type (0, 1), BuildingBlock: XIVTED_clean_linker_0, # of connection points: 2
#     Edge 45, Type (0, 1), BuildingBlock: XIVTED_clean_linker_0, # of connection points: 2
#     Edge 46, Type (0, 1), BuildingBlock: XIVTED_clean_linker_0, # of connection points: 2
#     Edge 47, Type (0, 1), BuildingBlock: XIVTED_clean_linker_0, # of connection points: 2
#     Edge 48, Type (0, 1), BuildingBlock: XIVTED_clean_linker_0, # of connection points: 2
#     Edge 49, Type (0, 1), BuildingBlock: XIVTED_clean_linker_0, # of connection points: 2
#     Edge 50, Type (0, 1), BuildingBlock: XIVTED_clean_linker_0, # of connection points: 2
#     Edge 51, Type (0, 1), BuildingBlock: XIVTED_clean_linker_0, # of connection points: 2
#     Edge 52, Type (0, 1), BuildingBlock: XIVTED_clean_linker_0, # of connection points: 2
#     Edge 53, Type (0, 1), BuildingBlock: XIVTED_clean_linker_0, # of connection points: 2
#     Edge 54, Type (0, 1), BuildingBlock: XIVTED_clean_linker_0, # of connection points: 2
#     Edge 55, Type (0, 1), BuildingBlock: XIVTED_clean_linker_0, # of connection points: 2
#     Edge 56, Type (0, 1), BuildingBlock: XIVTED_clean_linker_0, # of connection points: 2
#     Edge 57, Type (0, 1), BuildingBlock: XIVTED_clean_linker_0, # of connection points: 2
#     Edge 58, Type (0, 1), BuildingBlock: XIVTED_clean_linker_0, # of connection points: 2
#     Edge 59, Type (0, 1), BuildingBlock: XIVTED_clean_linker_0, # of connection points: 2
#     Edge 60, Type (0, 1), BuildingBlock: XIVTED_clean_linker_0, # of connection points: 2
#     Edge 61, Type (0, 1), BuildingBlock: XIVTED_clean_linker_0, # of connection points: 2
#     Edge 62, Type (0, 1), BuildingBlock: XIVTED_clean_linker_0, # of connection points: 2
#     Edge 63, Type (0, 1), BuildingBlock: XIVTED_clean_linker_0, # of connection points: 2
#     Edge 64, Type (0, 1), BuildingBlock: XIVTED_clean_linker_0, # of connection points: 2
#     Edge 65, Type (0, 1), BuildingBlock: XIVTED_clean_linker_0, # of connection points: 2
#     Edge 66, Type (0, 1), BuildingBlock: XIVTED_clean_linker_0, # of connection points: 2
#     Edge 67, Type (0, 1), BuildingBlock: XIVTED_clean_linker_0, # of connection points: 2
#     Edge 68, Type (0, 1), BuildingBlock: XIVTED_clean_linker_0, # of connection points: 2
#     Edge 69, Type (0, 1), BuildingBlock: XIVTED_clean_linker_0, # of connection points: 2
#     Edge 70, Type (0, 1), BuildingBlock: XIVTED_clean_linker_0, # of connection points: 2
#     Edge 71, Type (0, 1), BuildingBlock: XIVTED_clean_linker_0, # of connection points: 2
#     Edge 72, Type (0, 1), BuildingBlock: XIVTED_clean_linker_0, # of connection points: 2
#     Edge 73, Type (0, 1), BuildingBlock: XIVTED_clean_linker_0, # of connection points: 2
#     Edge 74, Type (0, 1), BuildingBlock: XIVTED_clean_linker_0, # of connection points: 2
#     Edge 75, Type (0, 1), BuildingBlock: XIVTED_clean_linker_0, # of connection points: 2
#     Edge 76, Type (0, 1), BuildingBlock: XIVTED_clean_linker_0, # of connection points: 2
#     Edge 77, Type (0, 1), BuildingBlock: XIVTED_clean_linker_0, # of connection points: 2
#     Edge 78, Type (0, 1), BuildingBlock: XIVTED_clean_linker_0, # of connection points: 2
#     Edge 79, Type (0, 1), BuildingBlock: XIVTED_clean_linker_0, # of connection points: 2
#     Edge 80, Type (0, 1), BuildingBlock: XIVTED_clean_linker_0, # of connection points: 2
#     Edge 81, Type (0, 1), BuildingBlock: XIVTED_clean_linker_0, # of connection points: 2
#     Edge 82, Type (0, 1), BuildingBlock: XIVTED_clean_linker_0, # of connection points: 2
#     Edge 83, Type (0, 1), BuildingBlock: XIVTED_clean_linker_0, # of connection points: 2
#     Edge 84, Type (0, 1), BuildingBlock: XIVTED_clean_linker_0, # of connection points: 2
#     Edge 85, Type (0, 1), BuildingBlock: XIVTED_clean_linker_0, # of connection points: 2
#     Edge 86, Type (0, 1), BuildingBlock: XIVTED_clean_linker_0, # of connection points: 2
#     Edge 87, Type (0, 1), BuildingBlock: XIVTED_clean_linker_0, # of connection points: 2
#     Edge 88, Type (0, 1), BuildingBlock: XIVTED_clean_linker_0, # of connection points: 2
#     Edge 89, Type (0, 1), BuildingBlock: XIVTED_clean_linker_0, # of connection points: 2
#     Edge 90, Type (0, 1), BuildingBlock: XIVTED_clean_linker_0, # of connection points: 2
#     Edge 91, Type (0, 1), BuildingBlock: XIVTED_clean_linker_0, # of connection points: 2
#     Edge 92, Type (0, 1), BuildingBlock: XIVTED_clean_linker_0, # of connection points: 2
#     Edge 93, Type (0, 1), BuildingBlock: XIVTED_clean_linker_0, # of connection points: 2
#     Edge 94, Type (0, 1), BuildingBlock: XIVTED_clean_linker_0, # of connection points: 2
#     Edge 95, Type (0, 1), BuildingBlock: XIVTED_clean_linker_0, # of connection points: 2
#     Edge 96, Type (0, 1), BuildingBlock: XIVTED_clean_linker_0, # of connection points: 2
#     Edge 97, Type (0, 1), BuildingBlock: XIVTED_clean_linker_0, # of connection points: 2
#     Edge 98, Type (0, 1), BuildingBlock: XIVTED_clean_linker_0, # of connection points: 2
#     Edge 99, Type (0, 1), BuildingBlock: XIVTED_clean_linker_0, # of connection points: 2
#     Edge 100, Type (0, 1), BuildingBlock: XIVTED_clean_linker_0, # of connection points: 2
#     Edge 101, Type (0, 1), BuildingBlock: XIVTED_clean_linker_0, # of connection points: 2
#     Edge 102, Type (0, 1), BuildingBlock: XIVTED_clean_linker_0, # of connection points: 2
#     Edge 103, Type (0, 1), BuildingBlock: XIVTED_clean_linker_0, # of connection points: 2
#     Edge 104, Type (0, 1), BuildingBlock: XIVTED_clean_linker_0, # of connection points: 2
#     Edge 105, Type (0, 1), BuildingBlock: XIVTED_clean_linker_0, # of connection points: 2
#     Edge 106, Type (0, 1), BuildingBlock: XIVTED_clean_linker_0, # of connection points: 2
#     Edge 107, Type (0, 1), BuildingBlock: XIVTED_clean_linker_0, # of connection points: 2
#     Edge 108, Type (0, 1), BuildingBlock: XIVTED_clean_linker_0, # of connection points: 2
#     Edge 109, Type (0, 1), BuildingBlock: XIVTED_clean_linker_0, # of connection points: 2
#     Edge 110, Type (0, 1), BuildingBlock: XIVTED_clean_linker_0, # of connection points: 2
#     Edge 111, Type (0, 1), BuildingBlock: XIVTED_clean_linker_0, # of connection points: 2
#     Edge 112, Type (0, 1), BuildingBlock: XIVTED_clean_linker_0, # of connection points: 2
#     Edge 113, Type (0, 1), BuildingBlock: XIVTED_clean_linker_0, # of connection points: 2
#     Edge 114, Type (0, 1), BuildingBlock: XIVTED_clean_linker_0, # of connection points: 2
#     Edge 115, Type (0, 1), BuildingBlock: XIVTED_clean_linker_0, # of connection points: 2
#     Edge 116, Type (0, 1), BuildingBlock: XIVTED_clean_linker_0, # of connection points: 2
#     Edge 117, Type (0, 1), BuildingBlock: XIVTED_clean_linker_0, # of connection points: 2
#     Edge 118, Type (0, 1), BuildingBlock: XIVTED_clean_linker_0, # of connection points: 2
#     Edge 119, Type (0, 1), BuildingBlock: XIVTED_clean_linker_0, # of connection points: 2
#     Edge 120, Type (0, 1), BuildingBlock: XIVTED_clean_linker_0, # of connection points: 2
#     Edge 121, Type (0, 1), BuildingBlock: XIVTED_clean_linker_0, # of connection points: 2
#     Edge 122, Type (0, 1), BuildingBlock: XIVTED_clean_linker_0, # of connection points: 2
#     Edge 123, Type (0, 1), BuildingBlock: XIVTED_clean_linker_0, # of connection points: 2
#     Edge 124, Type (0, 1), BuildingBlock: XIVTED_clean_linker_0, # of connection points: 2
#     Edge 125, Type (0, 1), BuildingBlock: XIVTED_clean_linker_0, # of connection points: 2
#     Edge 126, Type (0, 1), BuildingBlock: XIVTED_clean_linker_0, # of connection points: 2
#     Edge 127, Type (0, 1), BuildingBlock: XIVTED_clean_linker_0, # of connection points: 2
#     Edge 128, Type (0, 1), BuildingBlock: XIVTED_clean_linker_0, # of connection points: 2
#     Edge 129, Type (0, 1), BuildingBlock: XIVTED_clean_linker_0, # of connection points: 2
#     Edge 130, Type (0, 1), BuildingBlock: XIVTED_clean_linker_0, # of connection points: 2
#     Edge 131, Type (0, 1), BuildingBlock: XIVTED_clean_linker_0, # of connection points: 2
#     Edge 132, Type (0, 1), BuildingBlock: XIVTED_clean_linker_0, # of connection points: 2
#     Edge 133, Type (0, 1), BuildingBlock: XIVTED_clean_linker_0, # of connection points: 2
#     Edge 134, Type (0, 1), BuildingBlock: XIVTED_clean_linker_0, # of connection points: 2
#     Edge 135, Type (0, 1), BuildingBlock: XIVTED_clean_linker_0, # of connection points: 2
# Relax obj value: 0.176
# Max RMSD: 0.291
# Mean RMSD: 0.139
data_MOF--net-gar--node1-KUFVIS_clean_sbu_0--node2-HISSIN_clean_sbu_0--edge1-XIVTED_clean_linker_0
_symmetry_space_group_name_H-M    P1
_symmetry_Int_Tables_number       1
_symmetry_cell_setting            triclinic
loop_
_symmetry_equiv_pos_as_xyz
'x, y, z'
_cell_length_a     59.208335
_cell_length_b     59.080375
_cell_length_c     58.725012
_cell_angle_alpha  99.756276
_cell_angle_beta   93.296229
_cell_angle_gamma 100.74291
loop_
_atom_site_label
_atom_site_type_symbol
_atom_site_fract_x
_atom_site_fract_y
_atom_site_fract_z
_atom_type_partial_charge
Mn0 Mn 0.10176 0.31991 0.40363 0.0
Mn1 Mn 0.09203 0.34469 0.35706 0.0
C2 C 0.06471 0.31756 0.38807 0.0
C3 C 0.10721 0.28861 0.42096 0.0
C4 C 0.10444 0.37252 0.40569 0.0
O5 O 0.13293 0.32365 0.39037 0.0
O6 O 0.12413 0.33996 0.35974 0.0
C7 C 0.09656 0.30518 0.32029 0.0
N8 N 0.08407 0.32091 0.32988 0.0
C9 C 0.054 0.30763 0.29852 0.0
C10 C 0.06657 0.29133 0.28825 0.0
C11 C 0.08788 0.29001 0.29926 0.0
C12 C 0.06338 0.32206 0.31964 0.0
H13 H 0.11303 0.30426 0.3286 0.0
C14 C 0.13812 0.33207 0.37228 0.0
O15 O 0.11396 0.31009 0.43182 0.0
O16 O 0.0989 0.28544 0.39946 0.0
N17 N 0.06146 0.3502 0.352 0.0
C18 C 0.05109 0.36626 0.36463 0.0
C19 C 0.02953 0.36961 0.35613 0.0
C20 C 0.01907 0.35677 0.33456 0.0
C21 C 0.03015 0.34049 0.32179 0.0
C22 C 0.05156 0.3378 0.3312 0.0
H23 H 0.05924 0.3765 0.38102 0.0
O24 O 0.06853 0.31574 0.40959 0.0
O25 O 0.08258 0.32115 0.37641 0.0
O26 O 0.10634 0.35519 0.41542 0.0
O27 O 0.09941 0.37054 0.38395 0.0
C28 C 0.02075 0.32671 0.30017 0.0
C29 C 0.03253 0.3101 0.28867 0.0
H30 H 0.06001 0.2797 0.27196 0.0
H31 H 0.09766 0.27745 0.29147 0.0
H32 H 0.02108 0.38221 0.36609 0.0
H33 H 1.00249 0.35948 0.32802 0.0
H34 H 1.00432 0.32856 0.29237 0.0
H35 H 0.0249 0.29931 0.27226 0.0
Mn36 Mn 0.03012 0.7788 0.65853 0.0
Mn37 Mn 0.04319 0.82678 0.70106 0.0
C38 C 0.06592 0.78927 0.67921 0.0
C39 C 0.01725 0.73897 0.64455 0.0
C40 C 0.04115 0.82919 0.65002 0.0
O41 O 0.99834 0.78433 0.66662 0.0
O42 O 1.00938 0.8161 0.69518 0.0
C43 C 0.02588 0.80494 0.7402 0.0
N44 N 0.04347 0.81727 0.73061 0.0
C45 C 0.06955 0.82074 0.76457 0.0
C46 C 0.05168 0.80818 0.77484 0.0
C47 C 0.02977 0.8002 0.76257 0.0
C48 C 0.06465 0.82493 0.74222 0.0
H49 H 1.00901 0.79874 0.73085 0.0
C50 C 0.99392 0.80018 0.68249 0.0
O51 O 0.01712 0.75433 0.6312 0.0
O52 O 0.02353 0.74684 0.66646 0.0
N53 N 0.07562 0.83846 0.70873 0.0
C54 C 0.09127 0.84935 0.69595 0.0
C55 C 0.11414 0.85807 0.70559 0.0
C56 C 0.12064 0.85565 0.7283 0.0
C57 C 0.10419 0.84453 0.74118 0.0
C58 C 0.08162 0.83632 0.7307 0.0
H59 H 0.08637 0.85135 0.67852 0.0
O60 O 0.06358 0.77673 0.65849 0.0
O61 O 0.0476 0.79575 0.6867 0.0
O62 O 0.03561 0.80719 0.6427 0.0
O63 O 0.04405 0.83845 0.67151 0.0
C64 C 0.1094 0.84092 0.76384 0.0
C65 C 0.09212 0.82893 0.77549 0.0
H66 H 0.05463 0.80442 0.79207 0.0
H67 H 0.01592 0.79041 0.77034 0.0
H68 H 0.12674 0.8666 0.69554 0.0
H69 H 0.13834 0.86222 0.73562 0.0
H70 H 0.12673 0.84694 0.77233 0.0
H71 H 0.09644 0.82591 0.79275 0.0
Mn72 Mn 0.59855 0.81925 0.89912 0.0
Mn73 Mn 0.59263 0.84229 0.85061 0.0
C74 C 0.56265 0.81535 0.88014 0.0
C75 C 0.60331 0.78931 0.91878 0.0
C76 C 0.59949 0.87127 0.89869 0.0
O77 O 0.63111 0.82399 0.88939 0.0
O78 O 0.62507 0.8401 0.85799 0.0
C79 C 0.60334 0.80286 0.81746 0.0
N80 N 0.58895 0.81777 0.82409 0.0
C81 C 0.56302 0.80185 0.78967 0.0
C82 C 0.5776 0.78638 0.78241 0.0
C83 C 0.59779 0.78682 0.79643 0.0
C84 C 0.56932 0.81725 0.81092 0.0
H85 H 0.61895 0.80326 0.8281 0.0
C86 C 0.63817 0.83317 0.87229 0.0
O87 O 0.60863 0.81112 0.92899 0.0
O88 O 0.59673 0.78502 0.89673 0.0
N89 N 0.56224 0.84563 0.84079 0.0
C90 C 0.54975 0.8613 0.85057 0.0
C91 C 0.52913 0.86323 0.83867 0.0
C92 C 0.52176 0.84933 0.8167 0.0
C93 C 0.53496 0.83343 0.80692 0.0
C94 C 0.55539 0.83234 0.81956 0.0
H95 H 0.5555 0.87229 0.86729 0.0
O96 O 0.56477 0.81421 0.90199 0.0
O97 O 0.58154 0.819 0.8699 0.0
O98 O 0.60161 0.85454 0.90924 0.0
O99 O 0.59571 0.86866 0.87673 0.0
C100 C 0.52857 0.8185 0.78522 0.0
C101 C 0.54246 0.80256 0.7767 0.0
H102 H 0.57345 0.77406 0.76614 0.0
H103 H 0.6091 0.7749 0.79097 0.0
H104 H 0.519 0.8755 0.84636 0.0
H105 H 0.50585 0.85088 0.80757 0.0
H106 H 0.51286 0.81896 0.77504 0.0
H107 H 0.53719 0.79094 0.76014 0.0
Mn108 Mn 0.50928 0.27276 0.14661 0.0
Mn109 Mn 0.47371 0.24384 0.09964 0.0
C110 C 0.50643 0.23318 0.13487 0.0
C111 C 0.54483 0.29362 0.16394 0.0
C112 C 0.45732 0.2596 0.14638 0.0
O113 O 0.50314 0.29878 0.13003 0.0
O114 O 0.48228 0.27757 0.09742 0.0
C115 C 0.5058 0.249 0.06313 0.0
N116 N 0.49147 0.23498 0.07463 0.0
C117 C 0.49947 0.20019 0.05141 0.0
C118 C 0.51416 0.21427 0.03921 0.0
C119 C 0.51735 0.23878 0.04511 0.0
C120 C 0.48822 0.21137 0.06904 0.0
H121 H 0.50851 0.26785 0.06772 0.0
C122 C 0.49321 0.29702 0.10971 0.0
O123 O 0.52606 0.29523 0.17394 0.0
O124 O 0.54271 0.28102 0.14325 0.0
N125 N 0.46508 0.21095 0.09976 0.0
C126 C 0.4515 0.19987 0.11414 0.0
C127 C 0.44716 0.1753 0.111 0.0
C128 C 0.45682 0.16237 0.09314 0.0
C129 C 0.47071 0.17413 0.07852 0.0
C130 C 0.47421 0.19864 0.08231 0.0
H131 H 0.44413 0.20969 0.12801 0.0
O132 O 0.51384 0.24296 0.15613 0.0
O133 O 0.50094 0.24691 0.12133 0.0
O134 O 0.47719 0.26777 0.15699 0.0
O135 O 0.45363 0.25147 0.12464 0.0
C136 C 0.4816 0.16251 0.06067 0.0
C137 C 0.49597 0.17553 0.04713 0.0
H138 H 0.52326 0.20646 0.02545 0.0
H139 H 0.52878 0.24976 0.03588 0.0
H140 H 0.4365 0.16636 0.12241 0.0
H141 H 0.45364 0.14343 0.09094 0.0
H142 H 0.47929 0.14359 0.05742 0.0
H143 H 0.5045 0.16642 0.03367 0.0
Mn144 Mn 0.10457 0.77974 0.13188 0.0
Mn145 Mn 0.07167 0.74022 0.08847 0.0
C146 C 0.1022 0.74015 0.13071 0.0
C147 C 0.13849 0.804 0.14996 0.0
C148 C 0.05178 0.76508 0.12922 0.0
O149 O 0.10032 0.79985 0.10767 0.0
O150 O 0.07732 0.77211 0.08076 0.0
C151 C 0.10631 0.74223 0.05405 0.0
N152 N 0.0915 0.72953 0.06625 0.0
C153 C 0.10039 0.69336 0.04699 0.0
C154 C 0.11566 0.70604 0.03413 0.0
C155 C 0.11871 0.73059 0.03776 0.0
C156 C 0.08871 0.70595 0.06315 0.0
H157 H 0.10862 0.76108 0.05671 0.0
C158 C 0.08804 0.79323 0.08825 0.0
O159 O 0.11847 0.8074 0.15588 0.0
O160 O 0.13881 0.7875 0.13232 0.0
N161 N 0.06447 0.7084 0.0929 0.0
C162 C 0.04919 0.69878 0.1068 0.0
C163 C 0.04381 0.67432 0.10499 0.0
C164 C 0.05391 0.65999 0.08868 0.0
C165 C 0.06948 0.67025 0.07447 0.0
C166 C 0.07402 0.69471 0.07693 0.0
H167 H 0.04111 0.70967 0.11914 0.0
O168 O 0.10758 0.75481 0.15019 0.0
O169 O 0.09816 0.7489 0.11233 0.0
O170 O 0.07097 0.7777 0.13842 0.0
O171 O 0.04981 0.74973 0.11072 0.0
C172 C 0.08074 0.65718 0.05805 0.0
C173 C 0.09634 0.66874 0.04445 0.0
H174 H 0.12517 0.69712 0.02148 0.0
H175 H 0.13051 0.7405 0.02795 0.0
H176 H 0.03181 0.66653 0.11604 0.0
H177 H 0.04966 0.64113 0.08727 0.0
H178 H 0.07768 0.63825 0.05588 0.0
H179 H 0.10507 0.65853 0.03205 0.0
Mn180 Mn 0.512 0.8174 0.41787 0.0
Mn181 Mn 0.50519 0.83848 0.36837 0.0
C182 C 0.47824 0.80403 0.394 0.0
C183 C 0.52519 0.79247 0.43964 0.0
C184 C 0.50202 0.86582 0.41606 0.0
O185 O 0.54493 0.83188 0.41261 0.0
O186 O 0.53852 0.84218 0.37788 0.0
C187 C 0.52437 0.80454 0.33583 0.0
N188 N 0.50668 0.8155 0.3417 0.0
C189 C 0.48456 0.79763 0.30536 0.0
C190 C 0.50256 0.78617 0.29886 0.0
C191 C 0.52249 0.78953 0.31423 0.0
C192 C 0.48732 0.81215 0.32719 0.0
H193 H 0.53982 0.80732 0.3475 0.0
C194 C 0.55198 0.83992 0.39486 0.0
O195 O 0.52203 0.81294 0.44911 0.0
O196 O 0.52092 0.78636 0.41722 0.0
N197 N 0.47375 0.83593 0.3569 0.0
C198 C 0.45737 0.84695 0.36649 0.0
C199 C 0.43597 0.8446 0.35376 0.0
C200 C 0.43184 0.83136 0.33114 0.0
C201 C 0.44908 0.82041 0.32156 0.0
C202 C 0.46993 0.82312 0.33518 0.0
H203 H 0.46061 0.85746 0.38372 0.0
O204 O 0.47879 0.80229 0.41577 0.0
O205 O 0.49752 0.81337 0.38668 0.0
O206 O 0.50409 0.84949 0.42707 0.0
O207 O 0.50313 0.86393 0.39424 0.0
C208 C 0.44633 0.80672 0.29911 0.0
C209 C 0.46395 0.79513 0.29109 0.0
H210 H 0.50123 0.77469 0.28217 0.0
H211 H 0.53643 0.78072 0.30936 0.0
H212 H 0.42276 0.85312 0.36128 0.0
H213 H 0.41533 0.82961 0.32136 0.0
H214 H 0.43052 0.80458 0.28803 0.0
H215 H 0.4614 0.78421 0.27401 0.0
Mn216 Mn 0.6176 0.2963 0.64382 0.0
Mn217 Mn 0.58297 0.25726 0.60137 0.0
C218 C 0.61447 0.25659 0.64255 0.0
C219 C 0.65269 0.31954 0.66013 0.0
C220 C 0.56498 0.28397 0.64274 0.0
O221 O 0.6128 0.31627 0.61951 0.0
O222 O 0.59088 0.28822 0.59202 0.0
C223 C 0.61632 0.25453 0.56576 0.0
N224 N 0.6013 0.24372 0.57915 0.0
C225 C 0.60685 0.20567 0.56112 0.0
C226 C 0.62231 0.21638 0.54707 0.0
C227 C 0.62715 0.24092 0.5495 0.0
C228 C 0.59678 0.22015 0.5772 0.0
H229 H 0.61995 0.27337 0.56745 0.0
C230 C 0.60181 0.30929 0.5994 0.0
O231 O 0.63329 0.32382 0.66717 0.0
O232 O 0.65162 0.30285 0.64233 0.0
N233 N 0.57406 0.2263 0.60782 0.0
C234 C 0.55934 0.21876 0.62322 0.0
C235 C 0.5529 0.19464 0.62322 0.0
C236 C 0.56132 0.17851 0.60715 0.0
C237 C 0.57622 0.18667 0.5913 0.0
C238 C 0.58212 0.21091 0.59219 0.0
H239 H 0.55254 0.23103 0.63539 0.0
O240 O 0.62094 0.27116 0.66195 0.0
O241 O 0.60985 0.26555 0.62454 0.0
O242 O 0.58464 0.29518 0.65221 0.0
O243 O 0.56226 0.26955 0.62351 0.0
C244 C 0.58557 0.17172 0.57476 0.0
C245 C 0.60107 0.18121 0.55985 0.0
H246 H 0.63061 0.20594 0.53442 0.0
H247 H 0.6391 0.24931 0.53875 0.0
H248 H 0.54136 0.18848 0.63549 0.0
H249 H 0.5563 0.15993 0.6072 0.0
H250 H 0.58119 0.15289 0.57357 0.0
H251 H 0.60847 0.16954 0.54749 0.0
Mn252 Mn 0.03042 0.30831 0.9058 0.0
Mn253 Mn 1.01088 0.33483 0.86403 0.0
C254 C 0.99611 0.29087 0.88373 0.0
C255 C 0.05413 0.28496 0.91888 0.0
C256 C 1.00772 0.35086 0.91538 0.0
O257 O 0.05855 0.3321 0.90133 0.0
O258 O 0.04471 0.34577 0.87103 0.0
C259 C 0.03412 0.31409 0.82473 0.0
N260 N 0.01449 0.31871 0.83385 0.0
C261 C 0.99203 0.3036 0.79717 0.0
C262 C 1.01202 0.29871 0.78731 0.0
C263 C 0.03312 0.30382 0.8012 0.0
C264 C 0.99404 0.31349 0.82077 0.0
H265 H 0.05041 0.31834 0.8353 0.0
C266 C 0.06114 0.34469 0.88571 0.0
O267 O 0.04728 0.30118 0.93295 0.0
O268 O 0.04706 0.28206 0.89701 0.0
N269 N 0.97843 0.32633 0.85494 0.0
C270 C 0.96059 0.33105 0.8674 0.0
C271 C 0.93817 0.32646 0.8562 0.0
C272 C 0.9344 0.31763 0.83224 0.0
C273 C 0.95308 0.31319 0.81973 0.0
C274 C 0.97498 0.31784 0.83187 0.0
H275 H 0.96348 0.33837 0.88571 0.0
O276 O 1.00078 0.28534 0.90372 0.0
O277 O 1.01183 0.30616 0.8769 0.0
O278 O 0.01585 0.33451 0.92239 0.0
O279 O 1.00591 0.3529 0.89411 0.0
C280 C 0.95082 0.30418 0.79573 0.0
C281 C 0.97022 0.2991 0.78451 0.0
H282 H 1.01135 0.29098 0.76913 0.0
H283 H 0.04861 0.30008 0.79373 0.0
H284 H 0.92385 0.32997 0.86596 0.0
H285 H 0.91709 0.3142 0.82365 0.0
H286 H 0.93417 0.30073 0.78579 0.0
H287 H 0.96816 0.29172 0.76615 0.0
Mn288 Mn 0.43417 0.03013 0.33145 0.0
Mn289 Mn 0.39097 0.02732 0.36646 0.0
C290 C 0.41709 0.99467 0.34039 0.0
C291 C 0.44804 0.02975 0.29522 0.0
C292 C 0.44111 0.04733 0.38378 0.0
O293 O 0.42288 0.06042 0.33044 0.0
O294 O 0.39245 0.05551 0.35188 0.0
C295 C 0.3508 0.01926 0.33157 0.0
N296 N 0.3624 1.01209 0.34885 0.0
C297 C 0.33343 0.97693 0.34558 0.0
C298 C 0.32112 0.98401 0.32784 0.0
C299 C 0.32985 1.00527 0.32081 0.0
C300 C 0.35408 0.99174 0.35586 0.0
H301 H 0.35751 0.0355 0.32597 0.0
C302 C 0.4051 0.06678 0.33879 0.0
O303 O 0.46087 0.03993 0.31416 0.0
O304 O 0.42685 0.02007 0.29724 0.0
N305 N 0.38777 1.00024 0.38081 0.0
C306 C 0.40253 0.99515 0.39699 0.0
C307 C 0.39673 0.97407 0.4053 0.0
C308 C 0.37586 0.95846 0.39687 0.0
C309 C 0.36095 0.96408 0.38023 0.0
C310 C 0.36752 0.98545 0.37278 0.0
H311 H 0.41868 1.00699 0.4034 0.0
O312 O 0.43788 0.99756 0.3339 0.0
O313 O 0.40739 1.01275 0.34182 0.0
O314 O 0.44899 0.04269 0.36423 0.0
O315 O 0.41961 0.04288 0.38659 0.0
C316 C 0.34007 0.94906 0.37036 0.0
C317 C 0.32632 0.95549 0.35306 0.0
H318 H 0.30507 0.97316 0.31934 0.0
H319 H 0.32051 1.0108 0.30705 0.0
H320 H 0.40839 0.96981 0.41806 0.0
H321 H 0.37158 0.9421 0.40313 0.0
H322 H 0.33459 0.93238 0.37571 0.0
H323 H 0.31047 0.94365 0.34537 0.0
Mn324 Mn 0.28953 0.20916 0.52051 0.0
Mn325 Mn 0.27924 0.15997 0.47938 0.0
C326 C 0.25174 0.18827 0.50933 0.0
C327 C 0.29747 0.22652 0.56037 0.0
C328 C 0.29249 0.2091 0.46806 0.0
O329 O 0.32103 0.19946 0.51977 0.0
O330 O 0.31141 0.16542 0.49398 0.0
C331 C 0.28232 0.12446 0.50886 0.0
N332 N 0.27011 0.13284 0.49294 0.0
C333 C 0.2379 0.1007 0.49059 0.0
C334 C 0.25018 0.09166 0.50687 0.0
C335 C 0.27247 0.10362 0.51607 0.0
C336 C 0.24866 0.12145 0.48394 0.0
H337 H 0.29943 0.13361 0.51604 0.0
C338 C 0.32583 0.18057 0.50872 0.0
O339 O 0.30213 0.23867 0.54414 0.0
O340 O 0.28847 0.20453 0.55348 0.0
N341 N 0.24849 0.15259 0.46443 0.0
C342 C 0.23823 0.16465 0.45041 0.0
C343 C 0.21549 0.15558 0.44056 0.0
C344 C 0.20354 0.13421 0.44518 0.0
C345 C 0.21445 0.1221 0.45964 0.0
C346 C 0.2372 0.13191 0.46884 0.0
H347 H 0.24727 0.18115 0.44691 0.0
O348 O 0.25554 0.21026 0.51892 0.0
O349 O 0.2701 0.17953 0.50617 0.0
O350 O 0.29324 0.22066 0.48879 0.0
O351 O 0.28797 0.18671 0.46338 0.0
C352 C 0.20345 0.10096 0.46572 0.0
C353 C 0.21517 0.09027 0.48118 0.0
H354 H 0.24258 0.07569 0.51261 0.0
H355 H 0.28202 0.09681 0.52873 0.0
H356 H 0.20714 0.16509 0.42951 0.0
H357 H 0.18592 0.12739 0.43772 0.0
H358 H 0.18584 0.09301 0.45893 0.0
H359 H 0.20638 0.07425 0.48604 0.0
Mn360 Mn 0.18331 0.03654 0.77115 0.0
Mn361 Mn 0.22676 0.0488 0.81445 0.0
C362 C 0.20463 0.0776 0.78422 0.0
C363 C 0.16532 0.03091 0.72929 0.0
C364 C 0.1756 0.03917 0.82609 0.0
O365 O 0.19551 1.00278 0.76959 0.0
O366 O 0.22206 1.01348 0.80047 0.0
C367 C 0.26532 0.04004 0.78625 0.0
N368 N 0.25582 0.05474 0.8016 0.0
C369 C 0.28904 0.0858 0.80378 0.0
C370 C 0.29922 0.07091 0.78818 0.0
C371 C 0.28728 0.04794 0.77935 0.0
C372 C 0.26718 0.07689 0.81019 0.0
H373 H 0.25625 0.02241 0.77925 0.0
C374 C 0.21151 0.99753 0.78328 0.0
O375 O 0.15436 0.02438 0.74631 0.0
O376 O 0.18715 0.03845 0.73582 0.0
N377 N 0.23433 0.08114 0.82914 0.0
C378 C 0.22139 0.09397 0.84247 0.0
C379 C 0.2305 0.11761 0.85187 0.0
C380 C 0.25279 0.12787 0.84748 0.0
C381 C 0.26576 0.11439 0.83364 0.0
C382 C 0.25583 0.09085 0.82482 0.0
H383 H 0.20412 0.08635 0.8457 0.0
O384 O 0.18329 0.07213 0.7755 0.0
O385 O 0.21255 0.05861 0.78667 0.0
O386 O 0.16757 0.03457 0.80425 0.0
O387 O 0.19757 0.04413 0.83116 0.0
C388 C 0.2879 0.12358 0.82772 0.0
C389 C 0.29953 0.1093 0.81282 0.0
H390 H 0.31609 0.07699 0.78269 0.0
H391 H 0.29496 0.03638 0.76719 0.0
H392 H 0.22029 0.12796 0.86236 0.0
H393 H 0.25967 0.14618 0.85457 0.0
H394 H 0.29598 0.14173 0.83425 0.0
H395 H 0.31641 0.11666 0.80815 0.0
Mn396 Mn 0.29751 0.9629 1.01066 0.0
Mn397 Mn 0.30618 1.00489 0.97834 0.0
C398 C 0.33543 0.97939 1.00477 0.0
C399 C 0.29291 0.94787 0.04485 0.0
C400 C 0.29434 0.95316 0.95705 0.0
O401 O 0.26653 0.97426 1.01133 0.0
O402 O 0.27294 0.99969 0.98691 0.0
C403 C 0.30051 0.04447 0.01461 0.0
N404 N 0.31349 0.03471 0.99874 0.0
C405 C 0.34429 0.06866 1.00815 0.0
C406 C 0.33116 0.0791 0.02444 0.0
C407 C 0.30919 0.06693 0.0277 0.0
C408 C 0.33468 0.04627 0.99549 0.0
H409 H 0.28367 0.03523 0.01733 0.0
C410 C 0.25985 0.98907 1.00025 0.0
O411 O 0.28478 0.93556 0.02468 0.0
O412 O 0.30255 0.96966 0.04546 0.0
N413 N 0.33678 1.01269 0.96915 0.0
C414 C 0.34781 0.99975 0.95364 0.0
C415 C 0.37024 1.0092 0.94891 0.0
C416 C 0.38105 0.03192 0.95999 0.0
C417 C 0.36931 0.045 0.97572 0.0
C418 C 0.34692 0.0347 0.97968 0.0
H419 H 0.33972 0.98221 0.94516 0.0
O420 O 0.33005 0.95852 1.00953 0.0
O421 O 0.31817 0.9904 1.00348 0.0
O422 O 0.29074 0.94657 0.97634 0.0
O423 O 0.29996 0.9748 0.95558 0.0
C424 C 0.37916 0.06764 0.98803 0.0
C425 C 0.36667 0.07945 1.00424 0.0
H426 H 0.33783 0.09638 0.03466 0.0
H427 H 0.299 0.07483 0.04033 0.0
H428 H 0.37922 0.99895 0.93682 0.0
H429 H 0.39843 0.03907 0.95646 0.0
H430 H 0.39646 0.076 0.98537 0.0
H431 H 0.37453 0.09674 1.01377 0.0
Mn432 Mn 0.33866 0.39122 0.05468 0.0
Mn433 Mn 0.34568 0.4379 0.02757 0.0
C434 C 0.37586 0.41209 0.0519 0.0
C435 C 0.33181 0.37668 0.08971 0.0
C436 C 0.33175 0.38717 1.00182 0.0
O437 O 0.30634 0.39938 0.05241 0.0
O438 O 0.31549 0.43429 0.04084 0.0
C439 C 0.34851 0.47624 0.06792 0.0
N440 N 0.35764 0.46651 0.04878 0.0
C441 C 0.38941 0.49945 0.05367 0.0
C442 C 0.38013 0.51001 0.07323 0.0
C443 C 0.35967 0.49827 0.08047 0.0
C444 C 0.37752 0.47746 0.0419 0.0
H445 H 0.33291 0.46717 0.07359 0.0
C446 C 0.30139 0.4186 0.04831 0.0
O447 O 0.32694 0.36318 0.06943 0.0
O448 O 0.34042 0.39848 0.08959 0.0
N449 N 0.3744 0.44367 0.01404 0.0
C450 C 0.38196 0.43034 0.9959 0.0
C451 C 0.40278 0.43907 0.98718 0.0
C452 C 0.41544 0.46152 0.99696 0.0
C453 C 0.40719 0.47503 0.01543 0.0
C454 C 0.38634 0.46541 0.0234 0.0
H455 H 0.37221 0.41318 0.98812 0.0
O456 O 0.37287 0.39103 0.0564 0.0
O457 O 0.35718 0.42023 0.04946 0.0
O458 O 0.33474 0.37716 0.01923 0.0
O459 O 0.33378 0.40937 1.00381 0.0
C460 C 0.41907 0.49749 0.02654 0.0
C461 C 0.41024 0.50964 0.04572 0.0
H462 H 0.38872 0.52697 0.08299 0.0
H463 H 0.35254 0.50618 0.09569 0.0
H464 H 0.40903 0.42854 0.97291 0.0
H465 H 0.43156 0.46814 0.99028 0.0
H466 H 0.43526 0.50535 0.0208 0.0
H467 H 0.41979 0.52666 0.05444 0.0
Mn468 Mn 0.82124 0.13551 0.05376 0.0
Mn469 Mn 0.80565 0.08424 0.01581 0.0
C470 C 0.78181 0.11753 0.04523 0.0
C471 C 0.83002 0.15999 0.09079 0.0
C472 C 0.81656 0.13092 1.00041 0.0
O473 O 0.85275 0.12415 0.05176 0.0
O474 O 0.83991 0.09182 0.02467 0.0
C475 C 0.81652 0.05414 0.04878 0.0
N476 N 0.80109 0.05979 0.03366 0.0
C477 C 0.77106 0.0288 0.04049 0.0
C478 C 0.78667 0.02258 0.05603 0.0
C479 C 0.80949 0.03533 0.06022 0.0
C480 C 0.77906 0.04772 0.02962 0.0
H481 H 0.83406 0.06393 0.05215 0.0
C482 C 0.85643 0.10612 0.03784 0.0
O483 O 0.83597 0.16724 0.07197 0.0
O484 O 0.82123 0.13776 0.08846 0.0
N485 N 0.77353 0.07401 1.00547 0.0
C486 C 0.76072 0.08196 0.98964 0.0
C487 C 0.73749 0.07104 0.98348 0.0
C488 C 0.72777 0.05182 0.99332 0.0
C489 C 0.74147 0.04351 1.00904 0.0
C490 C 0.76455 0.05505 0.01445 0.0
H491 H 0.76809 0.0967 0.98197 0.0
O492 O 0.78832 0.13977 0.05304 0.0
O493 O 0.79864 0.10598 0.04275 0.0
O494 O 0.82293 0.14263 0.02083 0.0
O495 O 0.80918 0.10873 0.99623 0.0
C496 C 0.73308 0.02436 0.0197 0.0
C497 C 0.74784 0.01705 0.03546 0.0
H498 H 0.7813 1.00809 0.06491 0.0
H499 H 0.82161 0.03069 0.07225 0.0
H500 H 0.72707 0.07747 0.97123 0.0
H501 H 0.7098 0.04356 0.98867 0.0
H502 H 0.71527 1.01519 0.01596 0.0
H503 H 0.74117 1.00237 0.04362 0.0
Mn504 Mn 0.1933 0.55866 0.24463 0.0
Mn505 Mn 0.24299 0.59409 0.27083 0.0
C506 C 0.2071 0.59308 0.2321 0.0
C507 C 0.17128 0.52819 0.21745 0.0
C508 C 0.19742 0.59196 0.29144 0.0
O509 O 0.20776 0.53696 0.26177 0.0
O510 O 0.24041 0.56209 0.27768 0.0
C511 C 0.27517 0.57051 0.2433 0.0
N512 N 0.26739 0.59035 0.25151 0.0
C513 C 0.29735 0.6141 0.23499 0.0
C514 C 0.30574 0.59393 0.2264 0.0
C515 C 0.29451 0.57203 0.23045 0.0
C516 C 0.27779 0.61143 0.24734 0.0
H517 H 0.26671 0.55369 0.2466 0.0
C518 C 0.22704 0.54191 0.27419 0.0
O519 O 0.16398 0.53556 0.23719 0.0
O520 O 0.19223 0.53753 0.21402 0.0
N521 N 0.24852 0.62588 0.26624 0.0
C522 C 0.23808 0.64358 0.27551 0.0
C523 C 0.24739 0.66671 0.27335 0.0
C524 C 0.26759 0.67148 0.26213 0.0
C525 C 0.27813 0.65302 0.25287 0.0
C526 C 0.26809 0.63034 0.25559 0.0
H527 H 0.22287 0.6401 0.28465 0.0
O528 O 0.18542 0.58324 0.22809 0.0
O529 O 0.22037 0.58252 0.24323 0.0
O530 O 0.18595 0.5766 0.27501 0.0
O531 O 0.21907 0.59973 0.29205 0.0
C532 C 0.29819 0.65621 0.24102 0.0
C533 C 0.30763 0.63674 0.23185 0.0
H534 H 0.32077 0.59506 0.21665 0.0
H535 H 0.30086 0.55638 0.22384 0.0
H536 H 0.23916 0.68086 0.28054 0.0
H537 H 0.27478 0.68936 0.26061 0.0
H538 H 0.30637 0.67355 0.23867 0.0
H539 H 0.32287 0.63938 0.22251 0.0
Mn540 Mn 0.8401 0.88616 0.55194 0.0
Mn541 Mn 0.84609 0.93283 0.52446 0.0
C542 C 0.8769 0.90797 0.54934 0.0
C543 C 0.83328 0.87097 0.58657 0.0
C544 C 0.83436 0.88217 0.49878 0.0
O545 O 0.80753 0.89332 0.54976 0.0
O546 O 0.81487 0.92673 0.53522 0.0
C547 C 0.84409 0.97003 0.56451 0.0
N548 N 0.85523 0.96143 0.54636 0.0
C549 C 0.8853 0.99602 0.55363 0.0
C550 C 0.87409 1.00533 0.57236 0.0
C551 C 0.85345 0.99223 0.57788 0.0
C552 C 0.8752 0.97377 0.54103 0.0
H553 H 0.82817 0.96002 0.56872 0.0
C554 C 0.80145 0.91113 0.54341 0.0
O555 O 0.82877 0.85768 0.56617 0.0
O556 O 0.84173 0.8929 0.5868 0.0
N557 N 0.87545 0.94102 0.51282 0.0
C558 C 0.88456 0.92911 0.49483 0.0
C559 C 0.9054 0.93962 0.4873 0.0
C560 C 0.91646 0.96238 0.4981 0.0
C561 C 0.90659 0.97442 0.51635 0.0
C562 C 0.88577 0.96308 0.52306 0.0
H563 H 0.87598 0.91174 0.48627 0.0
O564 O 0.87439 0.88684 0.55363 0.0
O565 O 0.85795 0.91572 0.54689 0.0
O566 O 0.83627 0.87226 0.51645 0.0
O567 O 0.83696 0.90436 0.50035 0.0
C568 C 0.91678 0.99707 0.52842 0.0
C569 C 0.90623 1.0078 0.54715 0.0
H570 H 0.88124 0.02244 0.5827 0.0
H571 H 0.84474 0.99926 0.59235 0.0
H572 H 0.91289 0.93022 0.47318 0.0
H573 H 0.93262 0.97036 0.49236 0.0
H574 H 0.93293 1.00624 0.5237 0.0
H575 H 0.91444 0.02505 0.55655 0.0
Mn576 Mn 0.93832 0.06467 0.2654 0.0
Mn577 Mn 0.89528 0.05978 0.3021 0.0
C578 C 0.9173 0.02506 0.27037 0.0
C579 C 0.95643 0.06643 0.22634 0.0
C580 C 0.94673 0.06983 0.32132 0.0
O581 O 0.92696 0.09924 0.26927 0.0
O582 O 0.89928 0.09238 0.29319 0.0
C583 C 0.85632 0.06145 0.26872 0.0
N584 N 0.86592 0.05041 0.28423 0.0
C585 C 0.83218 0.01951 0.27889 0.0
C586 C 0.82187 0.03071 0.26309 0.0
C587 C 0.83404 0.05172 0.25793 0.0
C588 C 0.85442 0.03007 0.28918 0.0
H589 H 0.86558 0.07753 0.26454 0.0
C590 C 0.91017 0.10619 0.28078 0.0
O591 O 0.96726 0.07433 0.24675 0.0
O592 O 0.93464 0.05887 0.22826 0.0
N593 N 0.88784 0.03027 0.3122 0.0
C594 C 0.90062 0.0209 0.32685 0.0
C595 C 0.89111 0.99952 0.33322 0.0
C596 C 0.86851 0.98807 0.32468 0.0
C597 C 0.85559 0.99813 0.30987 0.0
C598 C 0.86592 0.01955 0.3042 0.0
H599 H 0.918 0.02951 0.33354 0.0
O600 O 0.9377 0.0289 0.26306 0.0
O601 O 0.9095 0.0447 0.27467 0.0
O602 O 0.95445 0.07002 0.30098 0.0
O603 O 0.92502 0.0683 0.32332 0.0
C604 C 0.83307 0.98742 0.30005 0.0
C605 C 0.82139 0.99808 0.28454 0.0
H606 H 0.80471 0.02322 0.25465 0.0
H607 H 0.82626 0.06039 0.24562 0.0
H608 H 0.90122 0.99184 0.34463 0.0
H609 H 0.86134 0.97145 0.32945 0.0
H610 H 0.8247 0.97081 0.30403 0.0
H611 H 0.8042 0.98953 0.27685 0.0
Mn612 Mn 0.32216 0.63795 0.55178 0.0
Mn613 Mn 0.30723 0.5881 0.51185 0.0
C614 C 0.28267 0.62017 0.54225 0.0
C615 C 0.3303 0.66064 0.5898 0.0
C616 C 0.31846 0.63599 0.49874 0.0
O617 O 0.35381 0.62668 0.54947 0.0
O618 O 0.34147 0.59501 0.52147 0.0
C619 C 0.3169 0.55593 0.54311 0.0
N620 N 0.30194 0.5625 0.5282 0.0
C621 C 0.27143 0.53091 0.53283 0.0
C622 C 0.28656 0.52372 0.54811 0.0
C623 C 0.30938 0.53632 0.55329 0.0
C624 C 0.27991 0.55057 0.52319 0.0
H625 H 0.33443 0.5656 0.54724 0.0
C626 C 0.35779 0.60897 0.53526 0.0
O627 O 0.33654 0.66902 0.57162 0.0
O628 O 0.32164 0.63831 0.58624 0.0
N629 N 0.27525 0.57854 0.50072 0.0
C630 C 0.26281 0.58777 0.48568 0.0
C631 C 0.23956 0.5773 0.47886 0.0
C632 C 0.22946 0.55725 0.48727 0.0
C633 C 0.24276 0.54774 0.50228 0.0
C634 C 0.26587 0.55889 0.50842 0.0
H635 H 0.27047 0.60317 0.47913 0.0
O636 O 0.28923 0.64218 0.55111 0.0
O637 O 0.29956 0.60868 0.53935 0.0
O638 O 0.32426 0.64697 0.51953 0.0
O639 O 0.31152 0.61376 0.49365 0.0
C640 C 0.23391 0.52782 0.51164 0.0
C641 C 0.24822 0.51944 0.52694 0.0
H642 H 0.28082 0.50863 0.55604 0.0
H643 H 0.32114 0.53094 0.56514 0.0
H644 H 0.22944 0.5847 0.4672 0.0
H645 H 0.21148 0.54933 0.48211 0.0
H646 H 0.21608 0.5189 0.50731 0.0
H647 H 0.24118 0.50419 0.53414 0.0
Mn648 Mn 0.44 0.56456 0.76601 0.0
Mn649 Mn 0.39683 0.56045 0.80255 0.0
C650 C 0.41869 0.52518 0.77132 0.0
C651 C 0.45796 0.56614 0.72694 0.0
C652 C 0.44818 0.57011 0.82191 0.0
O653 O 0.42914 0.59929 0.7696 0.0
O654 O 0.40125 0.59292 0.79337 0.0
C655 C 0.35813 0.56224 0.76893 0.0
N656 N 0.36748 0.55128 0.78467 0.0
C657 C 0.33327 0.52101 0.77989 0.0
C658 C 0.32321 0.53213 0.76385 0.0
C659 C 0.33574 0.55278 0.75828 0.0
C660 C 0.35564 0.53127 0.78999 0.0
H661 H 0.36767 0.57806 0.76447 0.0
C662 C 0.41242 0.60653 0.78095 0.0
O663 O 0.46892 0.57398 0.74731 0.0
O664 O 0.43618 0.55862 0.72892 0.0
N665 N 0.38898 0.53115 0.81296 0.0
C666 C 0.4016 0.52171 0.82769 0.0
C667 C 0.39175 0.50061 0.83441 0.0
C668 C 0.36897 0.48954 0.82618 0.0
C669 C 0.35622 0.49967 0.81127 0.0
C670 C 0.36692 0.52077 0.80519 0.0
H671 H 0.4191 0.53006 0.83419 0.0
O672 O 0.43908 0.52876 0.76394 0.0
O673 O 0.41103 0.54493 0.77536 0.0
O674 O 0.45605 0.57002 0.80161 0.0
O675 O 0.42648 0.56884 0.82379 0.0
C676 C 0.33354 0.48932 0.8017 0.0
C677 C 0.32209 0.49994 0.78597 0.0
H678 H 0.30596 0.52485 0.75554 0.0
H679 H 0.32816 0.56138 0.74579 0.0
H680 H 0.40172 0.49288 0.8459 0.0
H681 H 0.36151 0.47316 0.83124 0.0
H682 H 0.32488 0.47296 0.80601 0.0
H683 H 0.30478 0.49162 0.77846 0.0
Mn684 Mn 0.69434 0.06828 0.75378 0.0
Mn685 Mn 0.74461 0.10164 0.781 0.0
C686 C 0.70919 0.10331 0.74282 0.0
C687 C 0.672 0.03894 0.72569 0.0
C688 C 0.69902 0.09984 0.80159 0.0
O689 O 0.70802 0.04522 0.76969 0.0
O690 O 0.7413 0.06893 0.78608 0.0
C691 C 0.77631 0.07849 0.75233 0.0
N692 N 0.76895 0.09831 0.76149 0.0
C693 C 0.79943 0.12252 0.74609 0.0
C694 C 0.80741 0.10238 0.73655 0.0
C695 C 0.7957 0.08025 0.73956 0.0
C696 C 0.77981 0.11963 0.75833 0.0
H697 H 0.76748 0.06149 0.75483 0.0
C698 C 0.72744 0.04901 0.78172 0.0
O699 O 0.66457 0.04591 0.74547 0.0
O700 O 0.69311 0.04811 0.72265 0.0
N701 N 0.75087 0.13391 0.77797 0.0
C702 C 0.74072 0.15156 0.78793 0.0
C703 C 0.7504 0.17485 0.78664 0.0
C704 C 0.77066 0.17981 0.77556 0.0
C705 C 0.78094 0.16139 0.76565 0.0
C706 C 0.7705 0.13854 0.76745 0.0
H707 H 0.72543 0.14792 0.79693 0.0
O708 O 0.68739 0.09406 0.73845 0.0
O709 O 0.72196 0.09177 0.7533 0.0
O710 O 0.68723 0.08541 0.78466 0.0
O711 O 0.72082 0.10686 0.80249 0.0
C712 C 0.8011 0.16479 0.75398 0.0
C713 C 0.81019 0.14535 0.74398 0.0
H714 H 0.82247 0.10369 0.72685 0.0
H715 H 0.80172 0.06463 0.73222 0.0
H716 H 0.74239 0.18898 0.79437 0.0
H717 H 0.77811 0.1978 0.77467 0.0
H718 H 0.80967 0.18226 0.75244 0.0
H719 H 0.82551 0.14817 0.73478 0.0
Mn720 Mn 0.78995 0.70638 0.01778 0.0
Mn721 Mn 0.78128 0.65584 0.97854 0.0
C722 C 0.75254 0.685 1.00583 0.0
C723 C 0.79646 0.72528 0.05736 0.0
C724 C 0.79504 0.70404 0.96524 0.0
O725 O 0.82152 0.69679 0.01916 0.0
O726 O 0.81283 0.6618 0.99472 0.0
C727 C 0.78265 0.6218 1.01001 0.0
N728 N 0.77122 0.62951 0.993 0.0
C729 C 0.73867 0.59772 0.99063 0.0
C730 C 0.75015 0.58937 1.00804 0.0
C731 C 0.77221 0.60149 0.01779 0.0
C732 C 0.75001 0.61795 0.98345 0.0
H733 H 0.79958 0.63108 0.01762 0.0
C734 C 0.82665 0.6775 1.0095 0.0
O735 O 0.80172 0.73667 0.04068 0.0
O736 O 0.78766 0.70318 0.05108 0.0
N737 N 0.75109 0.648 0.96226 0.0
C738 C 0.74162 0.6594 0.94702 0.0
C739 C 0.71915 0.65015 0.93648 0.0
C740 C 0.70668 0.62926 0.94165 0.0
C741 C 0.71681 0.6178 0.95734 0.0
C742 C 0.73932 0.62777 0.9672 0.0
H743 H 0.75108 0.6755 0.94303 0.0
O744 O 0.75595 0.7072 0.01454 0.0
O745 O 0.77107 0.67635 1.00395 0.0
O746 O 0.79465 0.71636 0.98544 0.0
O747 O 0.79105 0.68165 0.96156 0.0
C748 C 0.70525 0.59718 0.96397 0.0
C749 C 0.71618 0.58713 0.98059 0.0
H750 H 0.74208 0.57382 0.01423 0.0
H751 H 0.78113 0.59522 0.03132 0.0
H752 H 0.71142 0.65914 0.92445 0.0
H753 H 0.68928 0.6223 0.93364 0.0
H754 H 0.68781 0.58912 0.9567 0.0
H755 H 0.70696 0.57151 0.98585 0.0
Mn756 Mn 0.93429 0.53638 0.83115 0.0
Mn757 Mn 0.89034 0.53079 0.86521 0.0
C758 C 0.91984 0.50051 0.84062 0.0
C759 C 0.94865 0.53687 0.7953 0.0
C760 C 0.93958 0.55432 0.88324 0.0
O761 O 0.92065 0.56514 0.82922 0.0
O762 O 0.88981 0.55807 0.84972 0.0
C763 C 0.85031 0.51914 0.82974 0.0
N764 N 0.86244 0.51349 0.84765 0.0
C765 C 0.83472 0.47774 0.84619 0.0
C766 C 0.82187 0.48325 0.82781 0.0
C767 C 0.82972 0.50402 0.81954 0.0
C768 C 0.85498 0.49361 0.85584 0.0
H769 H 0.85631 0.53503 0.82325 0.0
C770 C 0.90197 0.56994 0.83676 0.0
O771 O 0.96073 0.54798 0.81438 0.0
O772 O 0.92791 0.52566 0.79696 0.0
N773 N 0.88889 0.5045 0.88055 0.0
C774 C 0.90428 0.50081 0.89702 0.0
C775 C 0.89956 0.48024 0.90635 0.0
C776 C 0.87908 0.46371 0.89869 0.0
C777 C 0.86349 0.46791 0.88177 0.0
C778 C 0.86902 0.48881 0.87323 0.0
H779 H 0.92011 0.51339 0.90289 0.0
O780 O 0.94066 0.50496 0.83438 0.0
O781 O 0.90829 0.51723 0.84126 0.0
O782 O 0.94823 0.55011 0.86406 0.0
O783 O 0.91807 0.54852 0.88545 0.0
C784 C 0.84294 0.45191 0.87263 0.0
C785 C 0.82856 0.45683 0.85487 0.0
H786 H 0.80609 0.47152 0.81975 0.0
H787 H 0.81995 0.50832 0.80528 0.0
H788 H 0.91174 0.47708 0.91934 0.0
H789 H 0.87562 0.44776 0.90577 0.0
H790 H 0.83824 0.43558 0.87885 0.0
H791 H 0.81301 0.44421 0.84772 0.0
Mn792 Mn 0.79852 0.45847 0.51338 0.0
Mn793 Mn 0.80649 0.50112 0.48165 0.0
C794 C 0.83639 0.47604 0.50749 0.0
C795 C 0.79448 0.44353 0.54771 0.0
C796 C 0.79423 0.44922 0.45988 0.0
O797 O 0.7667 0.46867 0.51338 0.0
O798 O 0.77387 0.49655 0.49161 0.0
C799 C 0.80283 0.54057 0.51897 0.0
N800 N 0.81508 0.53061 0.50248 0.0
C801 C 0.84727 0.56314 0.51259 0.0
C802 C 0.8349 0.57381 0.52951 0.0
C803 C 0.81259 0.56245 0.53273 0.0
C804 C 0.83661 0.54136 0.49932 0.0
H805 H 0.78577 0.53189 0.52174 0.0
C806 C 0.76037 0.48472 0.50377 0.0
O807 O 0.78664 0.43094 0.52758 0.0
O808 O 0.80332 0.46549 0.54818 0.0
N809 N 0.83676 0.5083 0.47145 0.0
C810 C 0.84661 0.49559 0.45462 0.0
C811 C 0.86903 0.50447 0.44942 0.0
C812 C 0.88107 0.52637 0.46148 0.0
C813 C 0.87047 0.53931 0.47846 0.0
C814 C 0.848 0.52966 0.48275 0.0
H815 H 0.83761 0.47865 0.44542 0.0
O816 O 0.83171 0.45526 0.51253 0.0
O817 O 0.81862 0.48623 0.50616 0.0
O818 O 0.7922 0.44231 0.47919 0.0
O819 O 0.79893 0.471 0.45854 0.0
C820 C 0.88145 0.56127 0.49149 0.0
C821 C 0.86988 0.57316 0.50857 0.0
H822 H 0.84241 0.59064 0.54023 0.0
H823 H 0.80297 0.57051 0.54585 0.0
H824 H 0.87708 0.49437 0.43628 0.0
H825 H 0.89846 0.53304 0.45761 0.0
H826 H 0.89886 0.5691 0.48864 0.0
H827 H 0.87856 0.58997 0.51859 0.0
Mn828 Mn 0.68281 0.53728 0.27168 0.0
Mn829 Mn 0.72639 0.54975 0.31485 0.0
C830 C 0.70403 0.57837 0.28453 0.0
C831 C 0.66506 0.5313 0.22985 0.0
C832 C 0.67516 0.53872 0.32625 0.0
O833 O 0.69477 0.50327 0.2707 0.0
O834 O 0.72355 0.5153 0.29943 0.0
C835 C 0.7659 0.54478 0.28685 0.0
N836 N 0.75552 0.55801 0.30273 0.0
C837 C 0.78752 0.59067 0.3068 0.0
C838 C 0.79868 0.57723 0.29079 0.0
C839 C 0.78778 0.55422 0.28071 0.0
C840 C 0.76582 0.58024 0.31246 0.0
H841 H 0.75752 0.5272 0.27878 0.0
C842 C 0.71221 0.49882 0.28318 0.0
O843 O 0.65395 0.525 0.24686 0.0
O844 O 0.68691 0.53872 0.23638 0.0
N845 N 0.73208 0.58172 0.33064 0.0
C846 C 0.71807 0.59315 0.34395 0.0
C847 C 0.72587 0.61679 0.35423 0.0
C848 C 0.74796 0.62847 0.35074 0.0
C849 C 0.76203 0.61642 0.3369 0.0
C850 C 0.75339 0.59281 0.3272 0.0
H851 H 0.701 0.58439 0.3466 0.0
O852 O 0.6828 0.57288 0.27552 0.0
O853 O 0.71187 0.55943 0.2872 0.0
O854 O 0.6671 0.5361 0.30463 0.0
O855 O 0.69712 0.54235 0.3312 0.0
C856 C 0.78403 0.62709 0.33186 0.0
C857 C 0.79678 0.61422 0.31684 0.0
H858 H 0.81546 0.58453 0.28583 0.0
H859 H 0.79617 0.54382 0.26814 0.0
H860 H 0.71484 0.62603 0.36475 0.0
H861 H 0.75382 0.64678 0.35853 0.0
H862 H 0.79114 0.64532 0.33911 0.0
H863 H 0.8135 0.62275 0.31277 0.0
Eu864 Eu 0.07453 0.07883 0.03183 0.0
Eu865 Eu 0.04776 0.02714 0.01476 0.0
C866 C 0.08086 0.05075 0.97691 0.0
C867 C 0.10588 0.14101 0.02839 0.0
C868 C 0.11226 0.13435 1.00596 0.0
C869 C 0.11278 0.18152 0.02337 0.0
C870 C 0.11777 0.15112 0.99189 0.0
C871 C 0.10739 0.16478 0.0374 0.0
C872 C 0.11674 0.17472 1.0 0.0
C873 C 0.09194 0.12376 0.03979 0.0
O874 O 0.08575 0.02389 0.01867 0.0
O875 O 0.10406 0.06002 0.03822 0.0
C876 C 0.1048 0.03844 0.02841 0.0
O877 O 0.06074 0.0718 0.06724 0.0
O878 O 0.03027 0.99516 0.99071 0.0
O879 O 0.03559 0.99528 0.0276 0.0
O880 O 0.03521 0.03796 0.05215 0.0
C881 C 0.0429 0.05541 0.07015 0.0
O882 O 0.03585 0.08032 0.03017 0.0
O883 O 0.01908 0.04609 1.00633 0.0
O884 O 0.06497 0.03283 0.98048 0.0
O885 O 0.072 0.11409 0.02841 0.0
O886 O 0.10179 0.10869 0.0485 0.0
O887 O 0.08605 0.06968 0.9938 0.0
C888 C 0.039 0.96109 1.00291 0.0
C889 C 0.06154 0.96152 1.01205 0.0
C890 C 0.03208 0.91863 0.99451 0.0
C891 C 0.06877 0.94071 1.01381 0.0
C892 C 0.02465 0.93957 0.99326 0.0
C893 C 0.05376 0.91893 1.00602 0.0
C894 C 0.02949 0.98254 1.007 0.0
C895 C 0.01737 0.0666 0.01817 0.0
H896 H 0.11106 0.11601 0.99866 0.0
H897 H 0.11162 0.19941 0.03028 0.0
H898 H 0.12124 0.14533 0.97416 0.0
H899 H 0.10225 0.1702 0.05458 0.0
H900 H 0.07297 0.97798 0.01952 0.0
H901 H 0.02032 0.90225 0.98752 0.0
H902 H 0.0855 0.94198 0.02291 0.0
H903 H 1.00727 0.9389 0.98594 0.0
Eu904 Eu 0.32485 0.79352 0.24134 0.0
Eu905 Eu 0.29601 0.78334 0.28701 0.0
C906 C 0.27549 0.80973 0.24922 0.0
C907 C 0.3413 0.8214 0.19045 0.0
C908 C 0.33327 0.84168 0.19969 0.0
C909 C 0.33806 0.83162 0.15219 0.0
C910 C 0.32766 0.8568 0.18527 0.0
C911 C 0.34385 0.81662 0.16665 0.0
C912 C 0.32965 0.85174 0.16129 0.0
C913 C 0.34482 0.80414 0.20506 0.0
O914 O 0.27675 0.76068 0.25454 0.0
O915 O 0.30798 0.75532 0.2348 0.0
C916 C 0.28632 0.74848 0.23842 0.0
O917 O 0.35 0.7846 0.26695 0.0
O918 O 0.27183 0.75907 0.30244 0.0
O919 O 0.29028 0.79134 0.32388 0.0
O920 O 0.32314 0.76141 0.28385 0.0
C921 C 0.34462 0.76925 0.28049 0.0
O922 O 0.32464 0.8279 0.26415 0.0
O923 O 0.32456 0.81519 0.29873 0.0
O924 O 0.27565 0.80651 0.27095 0.0
O925 O 0.35382 0.81253 0.22635 0.0
O926 O 0.32741 0.78671 0.20396 0.0
O927 O 0.29041 0.80297 0.23511 0.0
C928 C 0.28358 0.75741 0.34122 0.0
C929 C 0.29574 0.73921 0.33565 0.0
C930 C 0.28248 0.74943 0.38056 0.0
C931 C 0.30101 0.72611 0.3523 0.0
C932 C 0.27712 0.76247 0.36385 0.0
C933 C 0.29436 0.73095 0.37498 0.0
C934 C 0.27725 0.77085 0.32352 0.0
C935 C 0.32912 0.83203 0.28672 0.0
H936 H 0.33075 0.84552 0.21797 0.0
H937 H 0.33997 0.82736 0.13381 0.0
H938 H 0.32098 0.87199 0.19276 0.0
H939 H 0.3498 0.80097 0.15915 0.0
H940 H 0.30109 0.73503 0.31836 0.0
H941 H 0.27687 0.75353 0.39774 0.0
H942 H 0.31047 0.71227 0.34744 0.0
H943 H 0.26772 0.77639 0.36855 0.0
Eu944 Eu 0.58949 0.04871 0.54356 0.0
Eu945 Eu 0.54123 0.05679 0.56837 0.0
C946 C 0.57481 0.02678 0.58955 0.0
C947 C 0.64268 0.02435 0.52886 0.0
C948 C 0.64254 1.01355 0.54839 0.0
C949 C 0.671 1.00233 0.51361 0.0
C950 C 0.65664 0.99736 0.55062 0.0
C951 C 0.65691 0.01856 0.51144 0.0
C952 C 0.67111 0.99159 0.53328 0.0
C953 C 0.6279 0.04148 0.52654 0.0
O954 O 0.57233 0.07806 0.59113 0.0
O955 O 0.59429 0.08608 0.56188 0.0
C956 C 0.58904 0.09153 0.58323 0.0
O957 O 0.5672 0.05944 0.51671 0.0
O958 O 0.52491 0.08152 0.59019 0.0
O959 O 0.50453 0.04777 0.5737 0.0
O960 O 0.54669 0.07994 0.54165 0.0
C961 C 0.55265 0.0736 0.52072 0.0
O962 O 0.56454 1.01441 0.53621 0.0
O963 O 0.53076 0.02814 0.53683 0.0
O964 O 0.55374 0.03107 0.58801 0.0
O965 O 0.60756 0.03308 0.51539 0.0
O966 O 0.62705 0.05662 0.54528 0.0
O967 O 0.59083 0.03433 0.57646 0.0
C968 C 0.48638 0.08116 0.57696 0.0
C969 C 0.47062 0.07125 0.5574 0.0
C970 C 0.46974 0.11626 0.58115 0.0
C971 C 0.45457 0.08372 0.54985 0.0
C972 C 0.48563 0.10373 0.58879 0.0
C973 C 0.45394 0.10647 0.56155 0.0
C974 C 0.5042 0.0688 0.5849 0.0
C975 C 0.54261 1.01207 0.5295 0.0
H976 H 0.63158 0.01771 0.56197 0.0
H977 H 0.68215 0.99854 0.50007 0.0
H978 H 0.65608 0.98925 0.56585 0.0
H979 H 0.65722 0.0267 0.49623 0.0
H980 H 0.47071 0.0539 0.54785 0.0
H981 H 0.47015 0.13382 0.59044 0.0
H982 H 0.44249 0.07537 0.53493 0.0
H983 H 0.4976 0.11187 0.60387 0.0
Eu984 Eu 0.28955 0.30919 0.77919 0.0
Eu985 Eu 0.33859 0.29424 0.7851 0.0
C986 C 0.29092 0.25271 0.78412 0.0
C987 C 0.23653 0.33432 0.79457 0.0
C988 C 0.23118 0.32677 0.8154 0.0
C989 C 0.21531 0.36558 0.80424 0.0
C990 C 0.21739 0.33801 0.8301 0.0
C991 C 0.22892 0.35412 0.78936 0.0
C992 C 0.20882 0.35723 0.82447 0.0
C993 C 0.24928 0.32125 0.77787 0.0
O994 O 0.33079 0.28774 0.746 0.0
O995 O 0.29491 0.29681 0.74173 0.0
C996 C 0.31262 0.28934 0.73287 0.0
O997 O 0.31427 0.34438 0.77685 0.0
O998 O 0.36072 0.26873 0.77841 0.0
O999 O 0.37502 0.30311 0.79845 0.0
O1000 O 0.34931 0.33415 0.78229 0.0
C1001 C 0.33716 0.35041 0.779 0.0
O1002 O 0.3006 0.32124 0.8176 0.0
O1003 O 0.32975 0.30146 0.82241 0.0
O1004 O 0.31385 0.25868 0.78661 0.0
O1005 O 0.26749 0.33319 0.77091 0.0
O1006 O 0.25258 0.30109 0.78198 0.0
O1007 O 0.27894 0.26913 0.78103 0.0
C1008 C 0.39848 0.28563 0.77275 0.0
C1009 C 0.39471 0.28995 0.7502 0.0
C1010 C 0.43837 0.2845 0.76634 0.0
C1011 C 0.41259 0.29125 0.7357 0.0
C1012 C 0.42039 0.28304 0.7808 0.0
C1013 C 0.43458 0.28846 0.74359 0.0
C1014 C 0.37944 0.2835 0.78765 0.0
C1015 C 0.31549 0.31449 0.83113 0.0
H1016 H 0.23699 0.31169 0.82006 0.0
H1017 H 0.20937 0.38057 0.79955 0.0
H1018 H 0.21252 0.33077 0.84527 0.0
H1019 H 0.23306 0.3604 0.77351 0.0
H1020 H 0.3779 0.29216 0.74376 0.0
H1021 H 0.4551 0.28209 0.7728 0.0
H1022 H 0.40926 0.29461 0.71837 0.0
H1023 H 0.42355 0.2797 0.79816 0.0
Eu1024 Eu 0.0516 0.07262 0.53586 0.0
Eu1025 Eu 0.0691 0.0285 0.51067 0.0
C1026 C 0.0996 0.07976 0.5124 0.0
C1027 C 0.04019 0.13188 0.54094 0.0
C1028 C 0.03655 0.12805 0.51665 0.0
C1029 C 0.05545 0.17306 0.54113 0.0
C1030 C 0.04293 0.1463 0.50467 0.0
C1031 C 0.04918 0.15463 0.55316 0.0
C1032 C 0.05303 0.16892 0.51668 0.0
C1033 C 0.03927 0.11162 0.55261 0.0
O1034 O 0.07708 0.0277 0.55033 0.0
O1035 O 0.07642 0.06565 0.56536 0.0
C1036 C 0.08212 0.04552 0.56826 0.0
O1037 O 0.02813 0.04258 0.54755 0.0
O1038 O 0.09539 1.0069 0.50711 0.0
O1039 O 0.06294 0.99528 0.48607 0.0
O1040 O 0.03224 1.01524 0.5167 0.0
C1041 C 0.02138 0.02167 0.5347 0.0
O1042 O 0.03252 0.06535 0.49835 0.0
O1043 O 0.0549 0.04269 0.47865 0.0
O1044 O 0.09997 0.05768 0.51237 0.0
O1045 O 0.02443 0.09262 0.54309 0.0
O1046 O 0.05947 0.10722 0.55798 0.0
O1047 O 0.08075 0.08785 0.51621 0.0
C1048 C 0.07656 0.96832 0.50549 0.0
C1049 C 0.06021 0.96767 0.52185 0.0
C1050 C 0.08721 0.93342 0.51604 0.0
C1051 C 0.05763 0.95048 0.53543 0.0
C1052 C 0.08986 0.9509 0.50235 0.0
C1053 C 0.0715 0.93358 0.53314 0.0
C1054 C 0.0812 0.98908 0.49454 0.0
C1055 C 0.03833 0.05518 0.47811 0.0
H1056 H 0.03008 0.11062 0.50671 0.0
H1057 H 0.06286 0.19035 0.55094 0.0
H1058 H 0.04114 0.14224 0.48589 0.0
H1059 H 0.05245 0.15789 0.57188 0.0
H1060 H 0.05005 0.98111 0.5249 0.0
H1061 H 0.09811 0.92052 0.51405 0.0
H1062 H 0.0452 0.95081 0.54827 0.0
H1063 H 0.10279 0.95133 0.49002 0.0
Eu1064 Eu 0.33379 0.81683 0.76877 0.0
Eu1065 Eu 0.2913 0.78707 0.78508 0.0
C1066 C 0.31799 0.83115 0.82104 0.0
C1067 C 0.39494 0.8321 0.755 0.0
C1068 C 0.39574 0.80819 0.75241 0.0
C1069 C 0.43507 0.84219 0.76989 0.0
C1070 C 0.41564 0.80141 0.76044 0.0
C1071 C 0.41517 0.84896 0.76198 0.0
C1072 C 0.43469 0.81855 0.77101 0.0
C1073 C 0.3729 0.8393 0.75836 0.0
O1074 O 0.27819 0.82263 0.78075 0.0
O1075 O 0.30821 0.84269 0.76502 0.0
C1076 C 0.28736 0.84211 0.77279 0.0
O1077 O 0.31585 0.7967 0.7346 0.0
O1078 O 0.27113 0.77068 0.81008 0.0
O1079 O 0.25665 0.76712 0.77449 0.0
O1080 O 0.29773 0.76656 0.75014 0.0
C1081 C 0.30625 0.77455 0.73223 0.0
O1082 O 0.34722 0.78161 0.77431 0.0
O1083 O 0.3165 0.76109 0.78855 0.0
O1084 O 0.30744 0.80931 0.81925 0.0
O1085 O 0.35564 0.82946 0.74286 0.0
O1086 O 0.36716 0.83963 0.7795 0.0
O1087 O 0.32772 0.83813 0.80323 0.0
C1088 C 0.23157 0.77063 0.80303 0.0
C1089 C 0.2307 0.79451 0.80792 0.0
C1090 C 0.19001 0.76069 0.79681 0.0
C1091 C 0.2096 0.80147 0.80541 0.0
C1092 C 0.21112 0.75376 0.79918 0.0
C1093 C 0.18936 0.78454 0.79796 0.0
C1094 C 0.2527 0.76373 0.79544 0.0
C1095 C 0.33765 0.76188 0.78166 0.0
H1096 H 0.38024 0.79492 0.74692 0.0
H1097 H 0.44981 0.85565 0.77767 0.0
H1098 H 0.41507 0.78308 0.76099 0.0
H1099 H 0.41481 0.86747 0.76408 0.0
H1100 H 0.24645 0.80775 0.81103 0.0
H1101 H 0.17468 0.74724 0.79107 0.0
H1102 H 0.20946 0.81995 0.80669 0.0
H1103 H 0.21161 0.73527 0.79535 0.0
Eu1104 Eu 0.55955 0.03557 0.05093 0.0
Eu1105 Eu 0.55644 0.06462 1.00884 0.0
C1106 C 0.55402 0.0877 0.06034 0.0
C1107 C 0.54647 1.01219 0.10594 0.0
C1108 C 0.52551 0.02002 0.10645 0.0
C1109 C 0.54298 1.00431 0.14487 0.0
C1110 C 0.51346 0.02025 0.12624 0.0
C1111 C 0.55496 1.00401 0.12506 0.0
C1112 C 0.52234 1.01285 0.14582 0.0
C1113 C 0.56056 1.01446 0.08645 0.0
O1114 O 0.59483 0.06522 1.01359 0.0
O1115 O 0.59684 0.05492 0.04963 0.0
C1116 C 0.60702 0.063 0.0323 0.0
O1117 O 0.57411 1.01513 0.02192 0.0
O1118 O 0.55855 0.09877 0.99875 0.0
O1119 O 0.54818 0.06725 0.97283 0.0
O1120 O 0.55758 0.02783 0.9914 0.0
C1121 C 0.56853 1.01315 0.99968 0.0
O1122 O 0.52294 0.02253 0.03299 0.0
O1123 O 0.51944 0.0551 0.01802 0.0
O1124 O 0.5662 0.08949 0.04269 0.0
O1125 O 0.55079 1.00403 0.06591 0.0
O1126 O 0.57198 0.03561 0.08652 0.0
O1127 O 0.54464 0.06702 0.06407 0.0
C1128 C 0.57141 0.09961 0.96199 0.0
C1129 C 0.59278 0.09266 0.96151 0.0
C1130 C 0.58244 0.12396 0.93359 0.0
C1131 C 0.60875 0.10097 0.94684 0.0
C1132 C 0.56644 0.11559 0.94831 0.0
C1133 C 0.60361 0.1164 0.93241 0.0
C1134 C 0.55438 0.09002 0.97671 0.0
C1135 C 0.50991 0.03537 0.02419 0.0
H1136 H 0.51886 0.02661 0.09184 0.0
H1137 H 0.55007 0.99823 0.15959 0.0
H1138 H 0.49773 0.02712 0.12656 0.0
H1139 H 0.57117 0.998 0.12492 0.0
H1140 H 0.59688 0.08036 0.97206 0.0
H1141 H 0.5781 0.13601 0.92284 0.0
H1142 H 0.62468 0.09447 0.94609 0.0
H1143 H 0.55008 0.12128 0.94872 0.0
Eu1144 Eu 0.32938 0.32581 0.29776 0.0
Eu1145 Eu 0.30573 0.27275 0.26827 0.0
C1146 C 0.31467 0.31793 0.24216 0.0
C1147 C 0.33197 0.38711 0.32618 0.0
C1148 C 0.30818 0.38221 0.32874 0.0
C1149 C 0.32973 0.42736 0.32448 0.0
C1150 C 0.29519 0.39958 0.3286 0.0
C1151 C 0.34276 0.40992 0.32459 0.0
C1152 C 0.3057 0.42215 0.32581 0.0
C1153 C 0.34454 0.36781 0.32174 0.0
O1154 O 0.34329 0.27498 0.27864 0.0
O1155 O 0.35662 0.31312 0.2774 0.0
C1156 C 0.35889 0.2913 0.27292 0.0
O1157 O 0.3328 0.30048 0.3226 0.0
O1158 O 0.30624 0.24567 0.23816 0.0
O1159 O 0.28348 0.23813 0.26456 0.0
O1160 O 0.30273 0.27086 0.30607 0.0
C1161 C 0.31726 0.28173 0.32403 0.0
O1162 O 0.29146 0.32173 0.30043 0.0
O1163 O 0.27507 0.28997 0.27184 0.0
O1164 O 0.31275 0.29519 0.24084 0.0
O1165 O 0.33716 0.34967 0.33114 0.0
O1166 O 0.34842 0.36172 0.30017 0.0
O1167 O 0.3168 0.3323 0.26237 0.0
C1168 C 0.30393 0.20912 0.2501 0.0
C1169 C 0.32767 0.21008 0.24841 0.0
C1170 C 0.30172 0.17341 0.26587 0.0
C1171 C 0.33847 0.19336 0.25611 0.0
C1172 C 0.29091 0.19021 0.25818 0.0
C1173 C 0.32575 0.17527 0.26563 0.0
C1174 C 0.29356 0.22936 0.24694 0.0
C1175 C 0.27358 0.3081 0.28767 0.0
H1176 H 0.29938 0.36469 0.32985 0.0
H1177 H 0.33827 0.44455 0.32206 0.0
H1178 H 0.27678 0.39513 0.32996 0.0
H1179 H 0.36101 0.41394 0.32232 0.0
H1180 H 0.33822 0.22443 0.24226 0.0
H1181 H 0.29138 0.1594 0.27271 0.0
H1182 H 0.35701 0.19543 0.25581 0.0
H1183 H 0.27259 0.18908 0.25962 0.0
Eu1184 Eu 0.55242 0.5727 0.03597 0.0
Eu1185 Eu 0.56897 0.52768 1.01133 0.0
C1186 C 0.6004 0.57804 1.01161 0.0
C1187 C 0.54073 0.63194 0.03982 0.0
C1188 C 0.5373 0.62762 0.0155 0.0
C1189 C 0.55391 0.67335 0.0394 0.0
C1190 C 0.54265 0.6458 1.00322 0.0
C1191 C 0.54864 0.65499 0.05174 0.0
C1192 C 0.55151 0.66883 0.01495 0.0
C1193 C 0.54029 0.61205 0.05194 0.0
O1194 O 0.57766 0.52808 0.05112 0.0
O1195 O 0.57699 0.56612 0.06581 0.0
C1196 C 0.58268 0.54605 0.06887 0.0
O1197 O 0.52905 0.54313 0.04854 0.0
O1198 O 0.59276 0.50332 1.00912 0.0
O1199 O 0.56139 0.49472 0.98631 0.0
O1200 O 0.53184 0.5161 0.01706 0.0
C1201 C 0.52168 0.52239 0.03555 0.0
O1202 O 0.53342 0.5651 0.9984 0.0
O1203 O 0.55575 0.54208 0.97913 0.0
O1204 O 0.60029 0.55579 1.01129 0.0
O1205 O 0.52539 0.5929 0.04301 0.0
O1206 O 0.56064 0.60783 0.05704 0.0
O1207 O 0.58207 0.58684 0.01628 0.0
C1208 C 0.56977 0.4661 1.00643 0.0
C1209 C 0.55806 0.46946 0.02643 0.0
C1210 C 0.56413 0.42456 1.00768 0.0
C1211 C 0.54966 0.45077 0.03711 0.0
C1212 C 0.57271 0.44353 0.99695 0.0
C1213 C 0.55272 0.42815 0.02802 0.0
C1214 C 0.57785 0.48661 0.99584 0.0
C1215 C 0.53936 0.55474 0.97831 0.0
H1216 H 0.53165 0.60997 1.00581 0.0
H1217 H 0.56041 0.69093 0.04899 0.0
H1218 H 0.54097 0.64147 0.98445 0.0
H1219 H 0.55174 0.65863 0.07048 0.0
H1220 H 0.55521 0.48662 0.0338 0.0
H1221 H 0.56667 0.40722 1.00033 0.0
H1222 H 0.54049 0.45403 0.0524 0.0
H1223 H 0.58153 0.44059 0.98138 0.0
Eu1224 Eu 0.8334 0.31697 0.27059 0.0
Eu1225 Eu 0.78799 0.28734 0.28239 0.0
C1226 C 0.81432 0.328 0.32165 0.0
C1227 C 0.89645 0.33241 0.26342 0.0
C1228 C 0.91639 0.34919 0.27195 0.0
C1229 C 0.91606 0.30155 0.27095 0.0
C1230 C 0.93544 0.3423 0.28163 0.0
C1231 C 0.89703 0.30847 0.26112 0.0
C1232 C 0.93451 0.31861 0.28293 0.0
C1233 C 0.87431 0.33966 0.26528 0.0
O1234 O 0.7762 0.32237 0.27474 0.0
O1235 O 0.80985 0.34488 0.26802 0.0
C1236 C 0.78747 0.3432 0.27112 0.0
O1237 O 0.81892 0.29839 0.23457 0.0
O1238 O 0.75786 0.28278 0.30242 0.0
O1239 O 0.75908 0.25785 0.27153 0.0
O1240 O 0.79417 0.26945 0.24647 0.0
C1241 C 0.8062 0.27726 0.23034 0.0
O1242 O 0.84443 0.28071 0.2756 0.0
O1243 O 0.81236 0.26086 0.28856 0.0
O1244 O 0.8036 0.30601 0.31831 0.0
O1245 O 0.85838 0.33138 0.24804 0.0
O1246 O 0.86645 0.33814 0.28537 0.0
O1247 O 0.82465 0.33613 0.30472 0.0
C1248 C 0.72546 0.27256 0.27529 0.0
C1249 C 0.72845 0.28516 0.2571 0.0
C1250 C 0.68456 0.27323 0.2719 0.0
C1251 C 0.70985 0.29181 0.24647 0.0
C1252 C 0.70346 0.26679 0.28285 0.0
C1253 C 0.68761 0.28562 0.25342 0.0
C1254 C 0.7459 0.26652 0.28618 0.0
C1255 C 0.83384 0.26109 0.2824 0.0
H1256 H 0.91619 0.36772 0.27385 0.0
H1257 H 0.91511 0.28318 0.27158 0.0
H1258 H 0.94981 0.35567 0.29041 0.0
H1259 H 0.88174 0.29529 0.25444 0.0
H1260 H 0.74526 0.28972 0.25089 0.0
H1261 H 0.66756 0.26809 0.27752 0.0
H1262 H 0.71294 0.30176 0.23267 0.0
H1263 H 0.70089 0.25719 0.29697 0.0
Eu1264 Eu 0.06028 0.54163 0.55023 0.0
Eu1265 Eu 0.05625 0.56677 0.50554 0.0
C1266 C 0.04538 0.59103 0.55554 0.0
C1267 C 0.04897 0.52218 0.60723 0.0
C1268 C 0.0281 0.5302 0.60773 0.0
C1269 C 0.0466 0.51672 0.64703 0.0
C1270 C 0.01651 0.53143 0.62779 0.0
C1271 C 0.05811 0.51536 0.6269 0.0
C1272 C 0.02575 0.52488 0.6477 0.0
C1273 C 0.06164 0.52172 0.58655 0.0
O1274 O 0.09375 0.57997 0.52107 0.0
O1275 O 0.0977 0.55134 0.54198 0.0
C1276 C 0.10701 0.56891 0.53217 0.0
O1277 O 0.06137 0.51385 0.51926 0.0
O1278 O 0.05977 0.59965 0.49278 0.0
O1279 O 0.04737 0.56668 0.469 0.0
O1280 O 0.07349 0.53685 0.49285 0.0
C1281 C 0.07058 0.5167 0.49991 0.0
O1282 O 0.02156 0.53974 0.54228 0.0
O1283 O 0.02149 0.54169 0.5037 0.0
O1284 O 0.03864 0.58587 0.53335 0.0
O1285 O 0.04958 0.51169 0.56696 0.0
O1286 O 0.07519 0.5414 0.58501 0.0
O1287 O 0.05868 0.57903 0.56488 0.0
C1288 C 0.0711 0.59682 0.45513 0.0
C1289 C 0.09237 0.58966 0.45509 0.0
C1290 C 0.08141 0.61787 0.42406 0.0
C1291 C 0.10794 0.59622 0.43932 0.0
C1292 C 0.06581 0.61123 0.43982 0.0
C1293 C 0.10249 0.61012 0.42338 0.0
C1294 C 0.05451 0.5893 0.47118 0.0
C1295 C 1.01028 0.53681 0.52161 0.0
H1296 H 0.02094 0.53576 0.59269 0.0
H1297 H 0.05399 0.51137 0.66207 0.0
H1298 H 1.00063 0.53804 0.62792 0.0
H1299 H 0.07424 0.50919 0.62676 0.0
H1300 H 0.09674 0.57863 0.46698 0.0
H1301 H 0.07684 0.62882 0.4122 0.0
H1302 H 0.12384 0.58966 0.43904 0.0
H1303 H 0.04953 0.61709 0.43988 0.0
Eu1304 Eu 0.78699 0.80894 0.27617 0.0
Eu1305 Eu 0.83638 0.79412 0.2818 0.0
C1306 C 0.78844 0.75315 0.28259 0.0
C1307 C 0.72909 0.82408 0.29053 0.0
C1308 C 0.73194 0.81944 0.31307 0.0
C1309 C 0.69332 0.83648 0.29936 0.0
C1310 C 0.71556 0.8234 0.32875 0.0
C1311 C 0.70967 0.83249 0.28374 0.0
C1312 C 0.69615 0.83217 0.32211 0.0
C1313 C 0.74678 0.82134 0.27437 0.0
O1314 O 0.82881 0.78824 0.24281 0.0
O1315 O 0.79303 0.79756 0.23852 0.0
C1316 C 0.81073 0.79 0.22967 0.0
O1317 O 0.81192 0.84323 0.27149 0.0
O1318 O 0.85767 0.76775 0.27539 0.0
O1319 O 0.87303 0.80246 0.29407 0.0
O1320 O 0.84699 0.83431 0.28023 0.0
C1321 C 0.83474 0.84996 0.27532 0.0
O1322 O 0.79675 0.81798 0.31497 0.0
O1323 O 0.82816 0.801 0.31915 0.0
O1324 O 0.81127 0.75868 0.28269 0.0
O1325 O 0.76635 0.83603 0.28005 0.0
O1326 O 0.74964 0.80007 0.26712 0.0
O1327 O 0.77632 0.76987 0.28135 0.0
C1328 C 0.89527 0.78294 0.26821 0.0
C1329 C 0.89823 0.79929 0.25332 0.0
C1330 C 0.92468 0.76448 0.25012 0.0
C1331 C 0.91438 0.79828 0.23696 0.0
C1332 C 0.90866 0.76563 0.26662 0.0
C1333 C 0.92758 0.7807 0.23504 0.0
C1334 C 0.87676 0.78232 0.28376 0.0
C1335 C 0.81264 0.81218 0.32813 0.0
H1336 H 0.74698 0.81305 0.31861 0.0
H1337 H 0.67835 0.8428 0.29355 0.0
H1338 H 0.7183 0.82004 0.34616 0.0
H1339 H 0.70726 0.83618 0.2664 0.0
H1340 H 0.88771 0.81252 0.254 0.0
H1341 H 0.93481 0.75091 0.24916 0.0
H1342 H 0.91611 0.81086 0.22541 0.0
H1343 H 0.90638 0.75272 0.27781 0.0
Eu1344 Eu 0.836 0.3009 0.75466 0.0
Eu1345 Eu 0.80486 0.28772 0.79789 0.0
C1346 C 0.78721 0.31634 0.76101 0.0
C1347 C 0.84972 0.32957 0.70328 0.0
C1348 C 0.83984 0.3492 0.71047 0.0
C1349 C 0.84484 0.33552 0.66342 0.0
C1350 C 0.83265 0.36191 0.69433 0.0
C1351 C 0.85218 0.32288 0.67962 0.0
C1352 C 0.83498 0.3552 0.67059 0.0
C1353 C 0.85666 0.31564 0.72025 0.0
O1354 O 0.80254 0.25501 0.7715 0.0
O1355 O 0.80542 0.27239 0.73962 0.0
C1356 C 0.79837 0.25421 0.74922 0.0
O1357 O 0.85373 0.27479 0.76882 0.0
O1358 O 0.77578 0.26706 0.81135 0.0
O1359 O 0.80078 0.29321 0.835 0.0
O1360 O 0.83935 0.27855 0.80469 0.0
C1361 C 0.85393 0.27131 0.79043 0.0
O1362 O 0.8535 0.32239 0.78853 0.0
O1363 O 0.82059 0.32624 0.80572 0.0
O1364 O 0.78096 0.30051 0.77392 0.0
O1365 O 0.86105 0.32651 0.74176 0.0
O1366 O 0.84456 0.29446 0.71857 0.0
O1367 O 0.8088 0.32291 0.75698 0.0
C1368 C 0.78551 0.25871 0.84842 0.0
C1369 C 0.7948 0.23873 0.84114 0.0
C1370 C 0.78339 0.24866 0.88681 0.0
C1371 C 0.79842 0.22386 0.85665 0.0
C1372 C 0.77965 0.26341 0.87128 0.0
C1373 C 0.79308 0.22885 0.87979 0.0
C1374 C 0.78336 0.27565 0.833 0.0
C1375 C 0.84243 0.3341 0.80355 0.0
H1376 H 0.8374 0.35464 0.72857 0.0
H1377 H 0.84707 0.33001 0.64528 0.0
H1378 H 0.82482 0.37673 0.70042 0.0
H1379 H 0.85965 0.30778 0.67364 0.0
H1380 H 0.79971 0.23491 0.82361 0.0
H1381 H 0.77877 0.25285 0.90439 0.0
H1382 H 0.80608 0.20888 0.85073 0.0
H1383 H 0.77255 0.27876 0.87727 0.0
Eu1384 Eu 0.82436 0.81885 0.79258 0.0
Eu1385 Eu 0.80022 0.76619 0.7642 0.0
C1386 C 0.81049 0.80969 0.7369 0.0
C1387 C 0.82825 0.88238 0.81265 0.0
C1388 C 0.8148 0.88259 0.79224 0.0
C1389 C 0.81733 0.91834 0.83071 0.0
C1390 C 0.80264 0.90048 0.79109 0.0
C1391 C 0.82958 0.9004 0.83183 0.0
C1392 C 0.80349 0.91839 0.8104 0.0
C1393 C 0.8382 0.86179 0.81473 0.0
O1394 O 0.83746 0.77129 0.75764 0.0
O1395 O 0.8544 0.8008 0.78785 0.0
C1396 C 0.85578 0.7845 0.77003 0.0
O1397 O 0.81544 0.79665 0.81998 0.0
O1398 O 0.79411 0.73951 0.73266 0.0
O1399 O 0.77739 0.73234 0.76312 0.0
O1400 O 0.81527 0.76034 0.79887 0.0
C1401 C 0.81544 0.77426 0.819 0.0
O1402 O 0.78724 0.81885 0.78275 0.0
O1403 O 0.77333 0.78066 0.78392 0.0
O1404 O 0.79567 0.79051 0.73869 0.0
O1405 O 0.82479 0.84573 0.82311 0.0
O1406 O 0.84763 0.85292 0.79665 0.0
O1407 O 0.82514 0.82122 0.75458 0.0
C1408 C 0.79366 0.70264 0.74313 0.0
C1409 C 0.81749 0.70442 0.74146 0.0
C1410 C 0.79195 0.66525 0.75547 0.0
C1411 C 0.82858 0.6872 0.74755 0.0
C1412 C 0.78082 0.68251 0.74931 0.0
C1413 C 0.81608 0.66794 0.75556 0.0
C1414 C 0.78334 0.72341 0.74306 0.0
C1415 C 0.77081 0.80244 0.78696 0.0
H1416 H 0.81324 0.86859 0.77735 0.0
H1417 H 0.81816 0.93176 0.84596 0.0
H1418 H 0.79249 0.9002 0.77506 0.0
H1419 H 0.83951 0.90023 0.84786 0.0
H1420 H 0.8279 0.71989 0.73701 0.0
H1421 H 0.78185 0.65038 0.76125 0.0
H1422 H 0.84719 0.68994 0.74762 0.0
H1423 H 0.76247 0.68088 0.75084 0.0
Eu1424 Eu 0.5749 0.57814 0.53046 0.0
Eu1425 Eu 0.54949 0.52536 0.51687 0.0
C1426 C 0.58204 0.54857 0.47775 0.0
C1427 C 0.59092 0.64527 0.54573 0.0
C1428 C 0.56784 0.64789 0.54546 0.0
C1429 C 0.60269 0.6856 0.54117 0.0
C1430 C 0.56211 0.66892 0.54164 0.0
C1431 C 0.60839 0.66463 0.54506 0.0
C1432 C 0.57943 0.68736 0.53791 0.0
C1433 C 0.59627 0.62193 0.53983 0.0
O1434 O 0.586 0.52115 0.52826 0.0
O1435 O 0.60505 0.55904 0.53172 0.0
C1436 C 0.60549 0.53664 0.53022 0.0
O1437 O 0.55903 0.57235 0.56565 0.0
O1438 O 0.53218 0.49508 0.49086 0.0
O1439 O 0.53563 0.49242 0.52724 0.0
O1440 O 0.53677 0.53583 0.55375 0.0
C1441 C 0.5429 0.55499 0.57011 0.0
O1442 O 0.53716 0.58197 0.52626 0.0
O1443 O 0.52007 0.54444 0.50943 0.0
O1444 O 0.57161 0.5295 0.48509 0.0
O1445 O 0.59461 0.60842 0.55534 0.0
O1446 O 0.58746 0.61076 0.51926 0.0
O1447 O 0.58183 0.5692 0.49098 0.0
C1448 C 0.54049 0.46023 0.50103 0.0
C1449 C 0.52758 0.4385 0.50333 0.0
C1450 C 0.57555 0.44461 0.5024 0.0
C1451 C 0.5387 0.42014 0.50606 0.0
C1452 C 0.56438 0.46287 0.49941 0.0
C1453 C 0.56292 0.42347 0.50683 0.0
C1454 C 0.53034 0.48109 0.50597 0.0
C1455 C 0.51844 0.56631 0.51759 0.0
H1456 H 0.55413 0.63298 0.54573 0.0
H1457 H 0.61633 0.6997 0.53863 0.0
H1458 H 0.54405 0.66981 0.53914 0.0
H1459 H 0.62627 0.66282 0.54511 0.0
H1460 H 0.50919 0.4363 0.50491 0.0
H1461 H 0.59419 0.44754 0.5027 0.0
H1462 H 0.52855 0.40409 0.50963 0.0
H1463 H 0.57462 0.47961 0.49772 0.0
Eu1464 Eu 0.06739 0.52883 0.04269 0.0
Eu1465 Eu 0.02052 0.53606 0.06993 0.0
C1466 C 0.05761 0.50933 0.08958 0.0
C1467 C 0.12218 0.50574 0.02881 0.0
C1468 C 0.11746 0.48243 0.03248 0.0
C1469 C 0.16324 0.50635 0.03559 0.0
C1470 C 0.13548 0.47117 0.03747 0.0
C1471 C 0.14525 0.51754 0.03041 0.0
C1472 C 0.15858 0.48301 0.03913 0.0
C1473 C 0.1034 0.51784 0.02305 0.0
O1474 O 0.04549 0.5704 0.07747 0.0
O1475 O 0.07959 0.55752 0.07382 0.0
C1476 C 0.06788 0.57338 0.08209 0.0
O1477 O 0.05441 0.55554 0.02511 0.0
O1478 O 1.00317 0.55255 0.09824 0.0
O1479 O 0.98291 0.52865 0.06913 0.0
O1480 O 0.0175 0.54992 0.03678 0.0
C1481 C 0.03301 0.55877 0.02385 0.0
O1482 O 0.03513 0.50865 0.02109 0.0
O1483 O 0.01525 0.4986 0.05105 0.0
O1484 O 0.04339 0.52361 0.09523 0.0
O1485 O 0.08263 0.50509 0.01854 0.0
O1486 O 0.10357 0.53834 0.03563 0.0
O1487 O 0.0631 0.5044 0.06824 0.0
C1488 C 0.96952 0.56295 0.08297 0.0
C1489 C 0.97879 0.58018 0.07043 0.0
C1490 C 0.93403 0.57816 0.0838 0.0
C1491 C 0.96563 0.59589 0.06412 0.0
C1492 C 0.94714 0.5622 0.08985 0.0
C1493 C 0.94298 0.5949 0.07047 0.0
C1494 C 0.98268 0.54488 0.08715 0.0
C1495 C 0.01962 0.4941 0.02929 0.0
H1496 H 0.09986 0.47284 0.03148 0.0
H1497 H 0.18086 0.51588 0.03644 0.0
H1498 H 0.13131 0.45328 0.04031 0.0
H1499 H 0.14937 0.53543 0.02755 0.0
H1500 H 0.99609 0.58116 0.06507 0.0
H1501 H 0.91658 0.57684 0.08881 0.0
H1502 H 0.97314 0.60871 0.0541 0.0
H1503 H 0.93962 0.54897 0.09942 0.0
H1504 H 0.0805 0.29457 0.96014 0.0
H1505 H 0.09628 0.16487 0.95533 0.0
H1506 H 0.06154 0.24209 0.89793 0.0
H1507 H 0.13366 0.22242 1.00725 0.0
H1508 H 0.08642 0.19284 0.93235 0.0
H1509 H 0.1021 0.26885 0.97651 0.0
C1510 C 0.08104 0.27766 0.94984 0.0
C1511 C 0.06899 0.27031 0.92776 0.0
C1512 C 0.09716 0.19935 0.94855 0.0
C1513 C 0.09357 0.24065 0.94648 0.0
C1514 C 0.10303 0.18334 0.96167 0.0
C1515 C 0.11556 0.19122 0.98357 0.0
C1516 C 0.10354 0.22345 0.9575 0.0
C1517 C 0.12344 0.21549 0.99082 0.0
C1518 C 0.0935 0.26303 0.95915 0.0
C1519 C 0.0705 0.24836 0.91508 0.0
N1520 N 0.11693 0.23073 0.97804 0.0
N1521 N 0.08226 0.23411 0.92478 0.0
H1522 H 0.14158 0.82422 0.19563 0.0
H1523 H 0.27715 0.8305 0.21137 0.0
H1524 H 0.18334 0.80828 0.13949 0.0
H1525 H 0.23176 0.81088 0.2628 0.0
H1526 H 0.24451 0.83758 0.18838 0.0
H1527 H 0.17636 0.83399 0.22292 0.0
C1528 C 0.15815 0.82345 0.18894 0.0
C1529 C 0.15962 0.81519 0.16529 0.0
C1530 C 0.24178 0.83216 0.2049 0.0
C1531 C 0.19922 0.82646 0.19635 0.0
C1532 C 0.26036 0.82808 0.21807 0.0
C1533 C 0.25701 0.81945 0.23876 0.0
C1534 C 0.21968 0.82772 0.21247 0.0
C1535 C 0.23502 0.81725 0.24683 0.0
C1536 C 0.17789 0.82888 0.20456 0.0
C1537 C 0.18146 0.81438 0.1576 0.0
N1538 N 0.217 0.82097 0.23342 0.0
N1539 N 0.20042 0.81978 0.17314 0.0
H1540 H 0.48466 0.87465 0.45809 0.0
H1541 H 0.562 0.99737 0.49085 0.0
H1542 H 0.51658 0.90909 0.40546 0.0
H1543 H 0.5001 0.98286 0.52553 0.0
H1544 H 0.54635 0.96381 0.4601 0.0
H1545 H 0.4896 0.91283 0.48383 0.0
C1546 C 0.4923 0.8903 0.45181 0.0
C1547 C 0.50056 0.88874 0.42977 0.0
C1548 C 0.53604 0.96811 0.47427 0.0
C1549 C 0.50655 0.9321 0.45914 0.0
C1550 C 0.54504 0.98704 0.4919 0.0
C1551 C 0.53236 0.99252 0.51074 0.0
C1552 C 0.51449 0.95416 0.47587 0.0
C1553 C 0.51036 0.97895 0.51123 0.0
C1554 C 0.495 0.91202 0.46644 0.0
C1555 C 0.51011 0.90951 0.42237 0.0
N1556 N 0.50224 0.95995 0.49421 0.0
N1557 N 0.51337 0.93033 0.43726 0.0
H1558 H 0.51972 0.26136 0.63099 0.0
H1559 H 0.47957 0.31127 0.75397 0.0
H1560 H 0.56375 0.31275 0.6842 0.0
H1561 H 0.43247 0.26789 0.69786 0.0
H1562 H 0.51064 0.3119 0.72834 0.0
H1563 H 0.4873 0.26381 0.65467 0.0
C1564 C 0.52256 0.27332 0.64751 0.0
C1565 C 0.54459 0.28675 0.65563 0.0
C1566 C 0.49349 0.30232 0.72157 0.0
C1567 C 0.5076 0.28945 0.68289 0.0
C1568 C 0.4758 0.30184 0.73625 0.0
C1569 C 0.45345 0.28945 0.72804 0.0
C1570 C 0.48888 0.29016 0.69854 0.0
C1571 C 0.44943 0.27781 0.70482 0.0
C1572 C 0.50404 0.27467 0.66104 0.0
C1573 C 0.54717 0.30192 0.67722 0.0
N1574 N 0.46701 0.27833 0.69091 0.0
N1575 N 0.52896 0.30272 0.69013 0.0
H1576 H 0.05428 0.87704 0.65802 0.0
H1577 H 0.06539 0.88555 0.52421 0.0
H1578 H 0.03915 0.81659 0.60262 0.0
H1579 H 0.0744 0.94514 0.57998 0.0
H1580 H 0.05876 0.85947 0.55271 0.0
H1581 H 0.06389 0.90196 0.62954 0.0
C1582 C 0.05284 0.86898 0.63987 0.0
C1583 C 0.04579 0.84465 0.63276 0.0
C1584 C 0.06232 0.87826 0.55868 0.0
C1585 C 0.05702 0.87317 0.59996 0.0
C1586 C 0.06626 0.89307 0.54247 0.0
C1587 C 0.07019 0.91741 0.54983 0.0
C1588 C 0.0625 0.88801 0.5823 0.0
C1589 C 0.07109 0.92641 0.57362 0.0
C1590 C 0.05843 0.88324 0.62358 0.0
C1591 C 0.04441 0.83526 0.60893 0.0
N1592 N 0.06716 0.91172 0.58897 0.0
N1593 N 0.05 0.84954 0.59339 0.0
H1594 H 0.52426 0.83144 0.89219 0.0
H1595 H 0.46061 0.78409 0.76531 0.0
H1596 H 0.54914 0.7839 0.84015 0.0
H1597 H 0.44393 0.83899 0.81596 0.0
H1598 H 0.48714 0.77574 0.79525 0.0
H1599 H 0.4879 0.82509 0.86787 0.0
C1600 C 0.52185 0.81947 0.87568 0.0
C1601 C 0.53987 0.80922 0.86731 0.0
C1602 C 0.47744 0.78943 0.79978 0.0
C1603 C 0.49872 0.80171 0.83961 0.0
C1604 C 0.46257 0.79431 0.7827 0.0
C1605 C 0.45089 0.8128 0.78807 0.0
C1606 C 0.48023 0.80301 0.82226 0.0
C1607 C 0.45339 0.82519 0.81093 0.0
C1608 C 0.50118 0.81579 0.86183 0.0
C1609 C 0.53585 0.79307 0.84641 0.0
N1610 N 0.46792 0.82019 0.82711 0.0
N1611 N 0.51577 0.79015 0.8329 0.0
H1612 H 0.4947 0.19073 0.14849 0.0
H1613 H 0.57233 0.13271 0.05754 0.0
H1614 H 0.53374 0.22629 0.1007 0.0
H1615 H 0.52428 0.09134 0.09441 0.0
H1616 H 0.56121 0.1679 0.07721 0.0
H1617 H 0.5076 0.15445 0.13227 0.0
C1618 C 0.50585 0.19073 0.1345 0.0
C1619 C 0.51267 0.21101 0.12527 0.0
C1620 C 0.55312 0.15117 0.08112 0.0
C1621 C 0.52794 0.17049 0.10738 0.0
C1622 C 0.55954 0.13104 0.06994 0.0
C1623 C 0.54907 0.10906 0.07422 0.0
C1624 C 0.5361 0.14939 0.09675 0.0
C1625 C 0.53271 0.10799 0.09058 0.0
C1626 C 0.51322 0.17021 0.12532 0.0
C1627 C 0.52758 0.21067 0.10769 0.0
N1628 N 0.52657 0.12795 0.10122 0.0
N1629 N 0.53466 0.19069 0.09925 0.0
H1630 H 0.16101 0.29597 0.37112 0.0
H1631 H 0.26007 0.34955 0.29889 0.0
H1632 H 0.16449 0.36344 0.35117 0.0
H1633 H 0.23709 0.27506 0.29402 0.0
H1634 H 0.22736 0.35627 0.32087 0.0
H1635 H 0.19295 0.2896 0.34751 0.0
C1636 C 0.16895 0.30967 0.36228 0.0
C1637 C 0.16033 0.33029 0.36308 0.0
C1638 C 0.22922 0.33844 0.31462 0.0
C1639 C 0.19614 0.32297 0.33586 0.0
C1640 C 0.24769 0.33461 0.30192 0.0
C1641 C 0.251 0.31174 0.29455 0.0
C1642 C 0.21436 0.31925 0.32041 0.0
C1643 C 0.23481 0.29292 0.29914 0.0
C1644 C 0.1868 0.30587 0.34852 0.0
C1645 C 0.17078 0.34733 0.35096 0.0
N1646 N 0.21731 0.29711 0.31218 0.0
N1647 N 0.18817 0.34329 0.3378 0.0
H1648 H 0.93991 0.0431 0.17998 0.0
H1649 H 0.05621 0.08484 0.11459 0.0
H1650 H 1.00197 0.08623 0.21711 0.0
H1651 H 1.00007 0.03011 0.08108 0.0
H1652 H 0.03625 0.08745 0.15058 0.0
H1653 H 0.95993 0.0402 0.14398 0.0
C1654 C 0.95768 0.0522 0.18088 0.0
C1655 C 0.96863 0.06509 0.20271 0.0
C1656 C 0.02812 0.07477 0.13547 0.0
C1657 C 0.99271 0.06179 0.15956 0.0
C1658 C 0.03974 0.0732 0.11446 0.0
C1659 C 0.03053 0.05701 0.09368 0.0
C1660 C 1.00626 0.06038 0.13673 0.0
C1661 C 1.00863 0.04285 0.09595 0.0
C1662 C 0.96934 0.05042 0.15989 0.0
C1663 C 0.9921 0.07606 0.20142 0.0
N1664 N 0.99762 0.04495 0.1164 0.0
N1665 N 1.00289 0.07428 0.18084 0.0
H1666 H 0.32984 0.68387 0.50243 0.0
H1667 H 0.29167 0.68323 0.3689 0.0
H1668 H 0.30548 0.62042 0.45194 0.0
H1669 H 0.30886 0.74589 0.42142 0.0
H1670 H 0.29957 0.6601 0.39821 0.0
H1671 H 0.32539 0.70679 0.47219 0.0
C1672 C 0.32376 0.67467 0.48496 0.0
C1673 C 0.31799 0.65004 0.47988 0.0
C1674 C 0.30167 0.67891 0.40332 0.0
C1675 C 0.31269 0.67646 0.44497 0.0
C1676 C 0.29728 0.69219 0.38655 0.0
C1677 C 0.29954 0.71663 0.39263 0.0
C1678 C 0.30851 0.69008 0.42643 0.0
C1679 C 0.30656 0.72711 0.41591 0.0
C1680 C 0.32113 0.68786 0.46767 0.0
C1681 C 0.31016 0.63931 0.4568 0.0
N1682 N 0.31079 0.71382 0.43189 0.0
N1683 N 0.30767 0.65256 0.44028 0.0
H1684 H 0.68143 0.02105 0.68185 0.0
H1685 H 0.55894 0.02753 0.63266 0.0
H1686 H 0.62536 0.02488 0.72526 0.0
H1687 H 0.60848 1.00121 0.58976 0.0
H1688 H 0.57999 0.01968 0.66665 0.0
H1689 H 0.65329 1.00691 0.648 0.0
C1690 C 0.6632 0.01836 0.68433 0.0
C1691 C 0.65574 0.02466 0.7063 0.0
C1692 C 0.58593 1.01504 0.6497 0.0
C1693 C 0.62344 1.00905 0.66765 0.0
C1694 C 0.57382 0.01942 0.63029 0.0
C1695 C 0.58244 1.0157 0.60854 0.0
C1696 C 0.60684 1.00717 0.64721 0.0
C1697 C 0.60174 1.00509 0.6064 0.0
C1698 C 0.64709 1.0103 0.66499 0.0
C1699 C 0.63189 0.02062 0.70855 0.0
N1700 N 0.61362 1.00172 0.62556 0.0
N1701 N 0.61658 1.01365 0.68939 0.0
H1702 H 0.30671 0.39718 0.96582 0.0
H1703 H 0.34218 0.30309 0.86631 0.0
H1704 H 0.34524 0.346 0.98217 0.0
H1705 H 0.29134 0.34472 0.85519 0.0
H1706 H 0.34446 0.31829 0.90825 0.0
H1707 H 0.30164 0.378 0.92522 0.0
C1708 C 0.31396 0.38171 0.96092 0.0
C1709 C 0.3264 0.37324 0.97764 0.0
C1710 C 0.33272 0.32397 0.89661 0.0
C1711 C 0.32096 0.35116 0.93047 0.0
C1712 C 0.33142 0.31532 0.8726 0.0
C1713 C 0.31658 0.32262 0.85693 0.0
C1714 C 0.31926 0.34025 0.90517 0.0
C1715 C 0.30309 0.33852 0.86635 0.0
C1716 C 0.31106 0.37073 0.9376 0.0
C1717 C 0.33534 0.35306 0.97002 0.0
N1718 N 0.30488 0.34683 0.88964 0.0
N1719 N 0.33268 0.34288 0.94699 0.0
H1720 H 0.99218 0.05986 0.3278 0.0
H1721 H 0.99923 0.07472 0.47014 0.0
H1722 H 0.93776 0.07804 0.36826 0.0
H1723 H 0.04729 0.04207 0.43067 0.0
H1724 H 0.97887 0.07869 0.43364 0.0
H1725 H 1.01403 0.05624 0.36397 0.0
C1726 C 0.98473 0.0635 0.3441 0.0
C1727 C 0.96258 0.06965 0.34399 0.0
C1728 C 0.99387 0.07065 0.43272 0.0
C1729 C 0.98845 0.06523 0.3871 0.0
C1730 C 1.00577 0.06833 0.45395 0.0
C1731 C 0.02553 0.05786 0.45452 0.0
C1732 C 1.00139 0.06285 0.41075 0.0
C1733 C 0.03237 0.05021 0.43201 0.0
C1734 C 0.99737 0.0612 0.36509 0.0
C1735 C 0.95453 0.07348 0.36654 0.0
N1736 N 0.02066 0.05291 0.41164 0.0
N1737 N 0.96716 0.07137 0.3865 0.0
H1738 H 0.31204 0.64964 0.62978 0.0
H1739 H 0.32545 0.78446 0.69248 0.0
H1740 H 0.34521 0.70843 0.60105 0.0
H1741 H 0.293 0.72626 0.7225 0.0
H1742 H 0.33258 0.75678 0.65897 0.0
H1743 H 0.30568 0.677 0.66416 0.0
C1744 C 0.31833 0.66825 0.63081 0.0
C1745 C 0.32931 0.6766 0.61237 0.0
C1746 C 0.32378 0.75 0.6728 0.0
C1747 C 0.32162 0.70826 0.65174 0.0
C1748 C 0.31955 0.76588 0.69197 0.0
C1749 C 0.30841 0.75786 0.71047 0.0
C1750 C 0.31694 0.72571 0.6719 0.0
C1751 C 0.30147 0.73342 0.70869 0.0
C1752 C 0.31451 0.68392 0.65042 0.0
C1753 C 0.33677 0.70103 0.61475 0.0
N1754 N 0.30587 0.71831 0.68988 0.0
N1755 N 0.33271 0.71587 0.63388 0.0
H1756 H 0.65387 0.10314 0.79983 0.0
H1757 H 0.65109 0.1273 0.93651 0.0
H1758 H 0.71545 0.11731 0.84718 0.0
H1759 H 0.59163 0.11857 0.88736 0.0
H1760 H 0.67597 0.12941 0.90476 0.0
H1761 H 0.63192 0.11435 0.83208 0.0
C1762 C 0.6628 0.1087 0.81708 0.0
C1763 C 0.68642 0.10883 0.82094 0.0
C1764 C 0.65751 0.12746 0.90102 0.0
C1765 C 0.66129 0.12163 0.8581 0.0
C1766 C 0.6433 0.12617 0.91911 0.0
C1767 C 0.61921 0.12237 0.91453 0.0
C1768 C 0.64751 0.12478 0.87823 0.0
C1769 C 0.61008 0.12153 0.89176 0.0
C1770 C 0.65026 0.11524 0.8355 0.0
C1771 C 0.6972 0.11673 0.84354 0.0
N1772 N 0.62421 0.12237 0.87444 0.0
N1773 N 0.68444 0.12246 0.8614 0.0
H1774 H 0.31665 0.33126 0.09614 0.0
H1775 H 0.32358 0.36417 0.23585 0.0
H1776 H 0.33847 0.40185 0.13437 0.0
H1777 H 0.30803 0.2933 0.19732 0.0
H1778 H 0.327 0.37857 0.19905 0.0
H1779 H 0.31146 0.31734 0.13293 0.0
C1780 C 0.3203 0.34388 0.11223 0.0
C1781 C 0.32806 0.36782 0.11198 0.0
C1782 C 0.32275 0.35986 0.19865 0.0
C1783 C 0.32208 0.35191 0.15452 0.0
C1784 C 0.3207 0.3516 0.21973 0.0
C1785 C 0.31546 0.32741 0.21993 0.0
C1786 C 0.31948 0.34388 0.17744 0.0
C1787 C 0.31209 0.31209 0.19827 0.0
C1788 C 0.31736 0.3359 0.13331 0.0
C1789 C 0.3325 0.38324 0.13356 0.0
N1790 N 0.31416 0.32054 0.17809 0.0
N1791 N 0.32946 0.37507 0.15382 0.0
H1792 H 0.22846 1.00015 0.96899 0.0
H1793 H 0.14543 0.05028 0.05833 0.0
H1794 H 0.23779 0.9935 0.04065 0.0
H1795 H 0.11716 1.0094 0.99155 0.0
H1796 H 0.18256 0.03771 0.05192 0.0
H1797 H 0.19105 1.01147 0.97619 0.0
C1798 C 0.22273 1.00104 0.98625 0.0
C1799 C 0.23647 0.99549 1.00411 0.0
C1800 C 0.16818 0.03147 0.03871 0.0
C1801 C 0.19359 1.00947 1.01275 0.0
C1802 C 0.14693 0.03867 0.04236 0.0
C1803 C 0.12776 0.03073 0.02564 0.0
C1804 C 0.17084 0.0169 0.01777 0.0
C1805 C 0.13114 1.01579 1.00517 0.0
C1806 C 0.20128 1.00752 0.99034 0.0
C1807 C 0.22785 0.99724 0.02618 0.0
N1808 N 0.1521 1.0097 1.00172 0.0
N1809 N 0.20732 1.0043 0.0299 0.0
H1810 H 0.74266 0.64803 0.02747 0.0
H1811 H 0.60617 0.62297 1.00255 0.0
H1812 H 0.71027 0.68851 0.9858 0.0
H1813 H 0.64425 0.56941 1.01302 0.0
H1814 H 0.64282 0.64965 1.00013 0.0
H1815 H 0.70537 0.62196 0.02733 0.0
C1816 C 0.72765 0.65123 0.01804 0.0
C1817 C 0.72964 0.66979 1.00579 0.0
C1818 C 0.64305 0.63198 1.00276 0.0
C1819 C 0.68668 0.64049 1.0062 0.0
C1820 C 0.62217 0.61674 1.00418 0.0
C1821 C 0.62208 0.59386 1.00803 0.0
C1822 C 0.66399 0.62447 1.00574 0.0
C1823 C 0.64339 0.58681 1.00998 0.0
C1824 C 0.70637 0.63642 0.01804 0.0
C1825 C 0.70948 0.67395 0.99491 0.0
N1826 N 0.66342 0.6021 1.00909 0.0
N1827 N 0.68876 0.65931 0.99524 0.0
H1828 H 0.75604 0.49077 0.29645 0.0
H1829 H 0.73939 0.34678 0.26623 0.0
H1830 H 0.692 0.44934 0.26188 0.0
H1831 H 0.80601 0.3926 0.27737 0.0
H1832 H 0.72113 0.38155 0.26759 0.0
H1833 H 0.77264 0.45537 0.29282 0.0
C1834 C 0.74507 0.47441 0.28795 0.0
C1835 C 0.72194 0.47462 0.27942 0.0
C1836 C 0.73977 0.38427 0.26971 0.0
C1837 C 0.74209 0.43109 0.27557 0.0
C1838 C 0.75053 0.36394 0.26894 0.0
C1839 C 0.77502 0.36544 0.27141 0.0
C1840 C 0.75296 0.40765 0.27367 0.0
C1841 C 0.78735 0.3893 0.27503 0.0
C1842 C 0.75494 0.45363 0.28589 0.0
C1843 C 0.70975 0.45147 0.26881 0.0
N1844 N 0.77652 0.4086 0.27621 0.0
N1845 N 0.71965 0.43139 0.26749 0.0
H1846 H 0.86049 0.51751 0.53427 0.0
H1847 H 0.98232 0.51365 0.48204 0.0
H1848 H 0.86954 0.46003 0.48221 0.0
H1849 H 0.97868 0.54138 0.55419 0.0
H1850 H 0.94007 0.50024 0.47765 0.0
H1851 H 0.90252 0.53305 0.53755 0.0
C1852 C 0.87121 0.50844 0.52315 0.0
C1853 C 0.86126 0.48772 0.50747 0.0
C1854 C 0.94853 0.50931 0.49443 0.0
C1855 C 0.90962 0.5053 0.51135 0.0
C1856 C 0.9727 0.51704 0.49697 0.0
C1857 C 0.98435 0.52859 0.51859 0.0
C1858 C 0.93553 0.51366 0.51346 0.0
C1859 C 0.97067 0.53239 0.53723 0.0
C1860 C 0.89526 0.51718 0.52522 0.0
C1861 C 0.8763 0.47628 0.49418 0.0
N1862 N 0.94713 0.52518 0.5342 0.0
N1863 N 0.89951 0.48531 0.49618 0.0
H1864 H 0.42052 0.08987 0.30406 0.0
H1865 H 0.31731 0.16019 0.30642 0.0
H1866 H 0.37038 0.08823 0.3547 0.0
H1867 H 0.36219 0.15548 0.25113 0.0
H1868 H 0.33857 0.13634 0.32602 0.0
H1869 H 0.4022 0.11758 0.28693 0.0
C1870 C 0.40592 0.0956 0.31184 0.0
C1871 C 0.39687 0.0865 0.33076 0.0
C1872 C 0.34377 0.14049 0.30958 0.0
C1873 C 0.37565 0.11797 0.31099 0.0
C1874 C 0.33146 0.1539 0.29824 0.0
C1875 C 0.33784 0.15969 0.27697 0.0
C1876 C 0.36265 0.1328 0.29966 0.0
C1877 C 0.35675 0.15156 0.26755 0.0
C1878 C 0.39535 0.1113 0.30192 0.0
C1879 C 0.37786 0.09458 0.34002 0.0
N1880 N 0.36848 0.13851 0.27895 0.0
N1881 N 0.3678 0.1097 0.32994 0.0
H1882 H 0.34814 0.15083 0.48195 0.0
H1883 H 0.43128 0.1369 0.5879 0.0
H1884 H 0.354 0.19466 0.54957 0.0
H1885 H 0.43746 0.10691 0.51671 0.0
H1886 H 0.40318 0.15823 0.57436 0.0
H1887 H 0.38108 0.13493 0.49425 0.0
C1888 C 0.35658 0.15739 0.4993 0.0
C1889 C 0.34822 0.17411 0.51475 0.0
C1890 C 0.4108 0.14709 0.5617 0.0
C1891 C 0.3858 0.15552 0.52915 0.0
C1892 C 0.42697 0.13491 0.56941 0.0
C1893 C 0.43688 0.11989 0.55349 0.0
C1894 C 0.40417 0.14414 0.53787 0.0
C1895 C 0.43007 0.11784 0.52975 0.0
C1896 C 0.3754 0.14825 0.50633 0.0
C1897 C 0.35991 0.18192 0.53702 0.0
N1898 N 0.4141 0.12967 0.52272 0.0
N1899 N 0.3779 0.17233 0.54365 0.0
H1900 H 0.74959 0.59542 0.27334 0.0
H1901 H 0.74195 0.73445 0.28883 0.0
H1902 H 0.69057 0.62156 0.29736 0.0
H1903 H 0.80584 0.71107 0.27886 0.0
H1904 H 0.72294 0.69384 0.29031 0.0
H1905 H 0.7699 0.6362 0.27402 0.0
C1906 C 0.74094 0.60958 0.27946 0.0
C1907 C 0.71827 0.60412 0.28644 0.0
C1908 C 0.74114 0.6974 0.2878 0.0
C1909 C 0.74166 0.65256 0.28572 0.0
C1910 C 0.75222 0.721 0.28691 0.0
C1911 C 0.77606 0.72729 0.28373 0.0
C1912 C 0.75342 0.67878 0.28521 0.0
C1913 C 0.78765 0.70799 0.28142 0.0
C1914 C 0.75259 0.63323 0.27945 0.0
C1915 C 0.70806 0.62411 0.29242 0.0
N1916 N 0.77644 0.68523 0.28207 0.0
N1917 N 0.71955 0.64677 0.29193 0.0
H1918 H 0.87934 0.47923 0.81641 0.0
H1919 H 0.88859 0.35064 0.81524 0.0
H1920 H 0.93482 0.46614 0.8599 0.0
H1921 H 0.82248 0.37128 0.81842 0.0
H1922 H 0.9077 0.39171 0.82904 0.0
H1923 H 0.8597 0.43846 0.81297 0.0
C1924 C 0.88709 0.4678 0.82568 0.0
C1925 C 0.90808 0.47613 0.83937 0.0
C1926 C 0.88902 0.38708 0.82714 0.0
C1927 C 0.88644 0.42935 0.8345 0.0
C1928 C 0.87813 0.36378 0.8192 0.0
C1929 C 0.85396 0.35772 0.81549 0.0
C1930 C 0.8756 0.40434 0.8307 0.0
C1931 C 0.84115 0.37527 0.82101 0.0
C1932 C 0.87597 0.44459 0.82361 0.0
C1933 C 0.91826 0.46036 0.84975 0.0
N1934 N 0.85216 0.39793 0.82786 0.0
N1935 N 0.90735 0.43751 0.84703 0.0
H1936 H 0.11596 0.83607 0.08791 0.0
H1937 H 0.02392 0.88111 0.01614 0.0
H1938 H 0.05281 0.79007 0.05535 0.0
H1939 H 0.09666 0.90727 1.01247 0.0
H1940 H 0.03364 0.84914 0.03314 0.0
H1941 H 0.10888 0.86484 0.06393 0.0
C1942 C 0.1007 0.83201 0.07572 0.0
C1943 C 0.08492 0.8107 0.07368 0.0
C1944 C 0.04744 0.86177 0.02835 0.0
C1945 C 0.07672 0.84337 0.04656 0.0
C1946 C 0.04192 0.88 0.01834 0.0
C1947 C 0.05946 0.89729 1.01287 0.0
C1948 C 0.07064 0.86098 0.03351 0.0
C1949 C 0.0825 0.89486 0.01693 0.0
C1950 C 0.09678 0.84829 0.06197 0.0
C1951 C 0.06548 0.80623 0.05749 0.0
N1952 N 0.08746 0.8773 0.0274 0.0
N1953 N 0.06178 0.82254 0.04479 0.0
H1954 H 0.95317 0.28249 0.89786 0.0
H1955 H 0.89421 0.26302 0.77194 0.0
H1956 H 0.99082 0.27041 0.83788 0.0
H1957 H 0.85677 0.25797 0.83246 0.0
H1958 H 0.92844 0.25689 0.7938 0.0
H1959 H 0.91706 0.26629 0.87353 0.0
C1960 C 0.95373 0.27625 0.8795 0.0
C1961 C 0.97467 0.27895 0.86947 0.0
C1962 C 0.91262 0.25692 0.80216 0.0
C1963 C 0.93364 0.26022 0.84147 0.0
C1964 C 0.89305 0.26027 0.78964 0.0
C1965 C 0.87287 0.26198 0.80066 0.0
C1966 C 0.91208 0.25609 0.82592 0.0
C1967 C 0.87222 0.25774 0.82347 0.0
C1968 C 0.93317 0.26688 0.86558 0.0
C1969 C 0.97474 0.26978 0.84586 0.0
N1970 N 0.89169 0.25566 0.83551 0.0
N1971 N 0.95443 0.26132 0.83244 0.0
H1972 H 0.5976 0.22409 0.66846 0.0
H1973 H 0.62636 0.1228 0.57448 0.0
H1974 H 0.63968 0.23491 0.61233 0.0
H1975 H 0.57739 0.11171 0.62519 0.0
H1976 H 0.64045 0.16271 0.59562 0.0
H1977 H 0.59911 0.18223 0.66033 0.0
C1978 C 0.60742 0.2176 0.65466 0.0
C1979 C 0.61759 0.23237 0.64025 0.0
C1980 C 0.62692 0.15139 0.60238 0.0
C1981 C 0.61985 0.18518 0.63115 0.0
C1982 C 0.6188 0.12864 0.59025 0.0
C1983 C 0.60026 0.11415 0.59775 0.0
C1984 C 0.61615 0.15978 0.62189 0.0
C1985 C 0.59142 0.12246 0.61852 0.0
C1986 C 0.60838 0.19384 0.65006 0.0
C1987 C 0.63078 0.22362 0.6231 0.0
N1988 N 0.59914 0.14491 0.62963 0.0
N1989 N 0.63122 0.20045 0.61873 0.0
H1990 H 0.57552 0.873 0.37337 0.0
H1991 H 0.67821 0.80533 0.35327 0.0
H1992 H 0.58473 0.81676 0.40893 0.0
H1993 H 0.67443 0.86948 0.32869 0.0
H1994 H 0.64665 0.8114 0.37729 0.0
H1995 H 0.61422 0.87473 0.3608 0.0
C1996 C 0.58594 0.86133 0.37892 0.0
C1997 C 0.5769 0.8446 0.39203 0.0
C1998 C 0.65294 0.82429 0.36687 0.0
C1999 C 0.62102 0.84598 0.37717 0.0
C2000 C 0.67099 0.82087 0.35317 0.0
C2001 C 0.67871 0.83671 0.33861 0.0
C2002 C 0.64248 0.84364 0.36589 0.0
C2003 C 0.66863 0.85647 0.33915 0.0
C2004 C 0.60803 0.86226 0.3717 0.0
C2005 C 0.59112 0.82994 0.39885 0.0
N2006 N 0.65091 0.85922 0.35233 0.0
N2007 N 0.61236 0.83064 0.39093 0.0
H2008 H 0.08511 0.24337 0.40519 0.0
H2009 H 0.09278 0.20279 0.52758 0.0
H2010 H 0.12303 0.28925 0.46593 0.0
H2011 H 0.03507 0.17702 0.47534 0.0
H2012 H 0.10942 0.23076 0.50374 0.0
H2013 H 0.07354 0.21365 0.42877 0.0
C2014 C 0.09145 0.24701 0.42338 0.0
C2015 C 0.10484 0.26892 0.43368 0.0
C2016 C 0.09312 0.21893 0.4976 0.0
C2017 C 0.09142 0.23509 0.46075 0.0
C2018 C 0.08344 0.20313 0.51128 0.0
C2019 C 0.06244 0.18741 0.50349 0.0
C2020 C 0.08191 0.21874 0.47586 0.0
C2021 C 0.05147 0.18842 0.48193 0.0
C2022 C 0.08463 0.23013 0.43686 0.0
C2023 C 0.11253 0.27264 0.45735 0.0
N2024 N 0.0614 0.20368 0.46883 0.0
N2025 N 0.10555 0.25593 0.47018 0.0
H2026 H 0.55462 0.31154 0.21033 0.0
H2027 H 0.68033 0.28281 0.20667 0.0
H2028 H 0.58695 0.29349 0.14754 0.0
H2029 H 0.64982 0.30131 0.27053 0.0
H2030 H 0.6482 0.29231 0.18526 0.0
H2031 H 0.59139 0.31463 0.23296 0.0
C2032 C 0.56959 0.30883 0.20126 0.0
C2033 C 0.56767 0.3018 0.17705 0.0
C2034 C 0.64854 0.29451 0.20397 0.0
C2035 C 0.60953 0.30491 0.20281 0.0
C2036 C 0.66696 0.28914 0.21626 0.0
C2037 C 0.66782 0.29132 0.24049 0.0
C2038 C 0.63054 0.30184 0.21585 0.0
C2039 C 0.6497 0.2991 0.25185 0.0
C2040 C 0.59053 0.31042 0.21421 0.0
C2041 C 0.5876 0.2986 0.1662 0.0
N2042 N 0.63168 0.30396 0.2394 0.0
N2043 N 0.60761 0.29982 0.17919 0.0
H2044 H 0.61238 0.88604 0.94507 0.0
H2045 H 0.56106 1.00241 0.95207 0.0
H2046 H 0.58654 0.90932 0.88457 0.0
H2047 H 0.59177 0.98034 1.01101 0.0
H2048 H 0.57221 0.96985 0.92652 0.0
H2049 H 0.60756 0.92235 0.969 0.0
C2050 C 0.60587 0.89887 0.93677 0.0
C2051 C 0.59954 0.89445 0.91281 0.0
C2052 C 0.57658 0.97227 0.94505 0.0
C2053 C 0.59373 0.93604 0.94019 0.0
C2054 C 0.57014 0.99078 0.95964 0.0
C2055 C 0.57526 0.99396 0.98373 0.0
C2056 C 0.58814 0.9569 0.95469 0.0
C2057 C 0.58724 0.97848 0.99257 0.0
C2058 C 0.6031 0.91963 0.95046 0.0
C2059 C 0.59146 0.91188 0.903 0.0
N2060 N 0.59315 0.96059 0.97807 0.0
N2061 N 0.58851 0.93182 0.91679 0.0
H2062 H 0.97477 0.83508 0.7048 0.0
H2063 H 0.86767 0.74893 0.74007 0.0
H2064 H 0.96044 0.76052 0.67879 0.0
H2065 H 0.89388 0.81974 0.77641 0.0
H2066 H 0.89996 0.75252 0.71593 0.0
H2067 H 0.94169 0.83009 0.72751 0.0
C2068 C 0.9643 0.8177 0.70344 0.0
C2069 C 0.97046 0.79814 0.69004 0.0
C2070 C 0.89879 0.76714 0.72939 0.0
C2071 C 0.93293 0.79224 0.71651 0.0
C2072 C 0.88051 0.76505 0.74332 0.0
C2073 C 0.87804 0.78413 0.76019 0.0
C2074 C 0.91452 0.78854 0.73223 0.0
C2075 C 0.89515 0.80457 0.76369 0.0
C2076 C 0.94561 0.81483 0.71667 0.0
C2077 C 0.95623 0.77606 0.68883 0.0
N2078 N 0.91251 0.80635 0.74957 0.0
N2079 N 0.93822 0.77365 0.70218 0.0
H2080 H 0.12702 0.02084 0.82945 0.0
H2081 H 0.12272 0.07805 0.96699 0.0
H2082 H 0.18714 0.0599 0.87322 0.0
H2083 H 0.07038 0.01985 0.93259 0.0
H2084 H 0.14394 0.07486 0.93192 0.0
H2085 H 0.10453 0.02309 0.86402 0.0
C2086 C 0.13577 0.03001 0.84606 0.0
C2087 C 0.15978 0.04008 0.84731 0.0
C2088 C 0.12776 0.06274 0.93176 0.0
C2089 C 0.13285 0.04324 0.88866 0.0
C2090 C 0.1153 0.06462 0.95217 0.0
C2091 C 0.09401 0.04935 0.95384 0.0
C2092 C 0.11931 0.04564 0.91148 0.0
C2093 C 0.08637 0.03233 0.93308 0.0
C2094 C 0.12265 0.03127 0.8662 0.0
C2095 C 0.16906 0.05161 0.87032 0.0
N2096 N 0.09858 0.03116 0.91335 0.0
N2097 N 0.15595 0.05295 0.88928 0.0
H2098 H 0.81596 0.46306 0.59136 0.0
H2099 H 0.81081 0.33787 0.62804 0.0
H2100 H 0.77779 0.39797 0.55073 0.0
H2101 H 0.84068 0.40299 0.674 0.0
H2102 H 0.79819 0.35999 0.59982 0.0
H2103 H 0.82404 0.44204 0.62258 0.0
C2104 C 0.80893 0.44446 0.58916 0.0
C2105 C 0.79627 0.43226 0.56833 0.0
C2106 C 0.80742 0.36949 0.61611 0.0
C2107 C 0.8058 0.40802 0.60378 0.0
C2108 C 0.8148 0.35684 0.63217 0.0
C2109 C 0.82695 0.36855 0.65339 0.0
C2110 C 0.81237 0.39413 0.62113 0.0
C2111 C 0.83125 0.3932 0.65793 0.0
C2112 C 0.81366 0.43243 0.60693 0.0
C2113 C 0.78772 0.40812 0.56641 0.0
N2114 N 0.82412 0.40516 0.64189 0.0
N2115 N 0.79282 0.3968 0.58375 0.0
H2116 H 0.43281 0.05968 0.42947 0.0
H2117 H 0.56297 0.06949 0.47559 0.0
H2118 H 0.48816 0.0582 0.38471 0.0
H2119 H 0.51151 0.08834 0.52041 0.0
H2120 H 0.53653 0.06887 0.44197 0.0
H2121 H 0.46158 0.07308 0.46299 0.0
C2122 C 0.45096 0.06236 0.42663 0.0
C2123 C 0.45802 0.05746 0.40421 0.0
C2124 C 0.53116 0.07358 0.45916 0.0
C2125 C 0.49099 0.07272 0.44249 0.0
C2126 C 0.5463 0.074 0.47837 0.0
C2127 C 0.53936 0.07871 0.50082 0.0
C2128 C 0.50876 0.07747 0.46243 0.0
C2129 C 0.51757 0.08453 0.50341 0.0
C2130 C 0.46738 0.0701 0.44578 0.0
C2131 C 0.48182 0.06144 0.40164 0.0
N2132 N 0.50286 0.08329 0.48441 0.0
N2133 N 0.49739 0.06855 0.42053 0.0
H2134 H 0.79616 0.77109 0.07733 0.0
H2135 H 0.83345 0.75816 0.2064 0.0
H2136 H 0.80469 0.70496 0.09463 0.0
H2137 H 0.78627 0.80323 0.1942 0.0
H2138 H 0.83083 0.74343 0.16453 0.0
H2139 H 0.8 0.78802 0.11915 0.0
C2140 C 0.79906 0.76021 0.08987 0.0
C2141 C 0.80007 0.73654 0.08242 0.0
C2142 C 0.82114 0.75663 0.17101 0.0
C2143 C 0.80486 0.75589 0.1302 0.0
C2144 C 0.8227 0.76516 0.19493 0.0
C2145 C 0.81001 0.78197 0.20398 0.0
C2146 C 0.80725 0.76531 0.15574 0.0
C2147 C 0.79627 0.79021 0.18809 0.0
C2148 C 0.8011 0.76983 0.1137 0.0
C2149 C 0.8037 0.72323 0.09952 0.0
N2150 N 0.79538 0.78195 0.16477 0.0
N2151 N 0.80617 0.73311 0.12249 0.0
H2152 H 0.12387 1.00367 0.70437 0.0
H2153 H 0.11088 0.0797 0.60262 0.0
H2154 H 0.17801 0.0608 0.69709 0.0
H2155 H 0.08268 1.00572 0.5898 0.0
H2156 H 0.13084 0.07583 0.63953 0.0
H2157 H 0.10472 1.00634 0.66653 0.0
C2158 C 0.13198 0.01682 0.69501 0.0
C2159 C 0.15325 0.03177 0.70477 0.0
C2160 C 0.12028 0.06034 0.62879 0.0
C2161 C 0.13005 0.03563 0.66015 0.0
C2162 C 0.1086 0.06255 0.60737 0.0
C2163 C 0.09459 0.0431 0.59206 0.0
C2164 C 0.11787 0.03852 0.63637 0.0
C2165 C 0.09304 0.02149 0.60026 0.0
C2166 C 0.12081 0.01835 0.67305 0.0
C2167 C 0.16203 0.04848 0.69091 0.0
N2168 N 0.10401 0.01995 0.62144 0.0
N2169 N 0.15051 0.05007 0.67006 0.0
H2170 H 0.7817 0.40112 0.45497 0.0
H2171 H 0.83057 0.37545 0.3307 0.0
H2172 H 0.80648 0.455 0.41605 0.0
H2173 H 0.79215 0.32042 0.36114 0.0
H2174 H 0.82386 0.4043 0.36312 0.0
H2175 H 0.7863 0.37136 0.42202 0.0
C2176 C 0.78788 0.4068 0.43945 0.0
C2177 C 0.79377 0.43088 0.43856 0.0
C2178 C 0.81692 0.38594 0.36284 0.0
C2179 C 0.79952 0.39646 0.4006 0.0
C2180 C 0.8209 0.36928 0.34431 0.0
C2181 C 0.81204 0.3452 0.34301 0.0
C2182 C 0.80407 0.37876 0.38063 0.0
C2183 C 0.79948 0.33866 0.36132 0.0
C2184 C 0.79058 0.38967 0.42061 0.0
C2185 C 0.80172 0.43682 0.41779 0.0
N2186 N 0.79592 0.35529 0.37932 0.0
N2187 N 0.80454 0.41984 0.39986 0.0
H2188 H 0.42608 1.00953 0.25209 0.0
H2189 H 0.54282 0.02988 0.18968 0.0
H2190 H 0.49214 0.04671 0.28677 0.0
H2191 H 0.47606 1.00209 0.15168 0.0
H2192 H 0.52421 0.0347 0.22561 0.0
H2193 H 0.4436 1.00569 0.21513 0.0
C2194 C 0.44421 0.01699 0.25191 0.0
C2195 C 0.4577 0.02839 0.27253 0.0
C2196 C 0.51357 0.02754 0.20945 0.0
C2197 C 0.47782 0.02392 0.2305 0.0
C2198 C 0.52422 0.0246 0.18893 0.0
C2199 C 0.51097 1.0154 0.16769 0.0
C2200 C 0.48945 0.02117 0.20881 0.0
C2201 C 0.48689 1.00933 0.16771 0.0
C2202 C 0.45419 1.01478 0.23084 0.0
C2203 C 0.48108 0.03774 0.27133 0.0
N2204 N 0.47687 1.01223 0.188 0.0
N2205 N 0.4904 0.03519 0.25071 0.0
H2206 H 0.79952 0.68253 0.92101 0.0
H2207 H 0.8149 0.79798 0.8636 0.0
H2208 H 0.80099 0.75129 0.96097 0.0
H2209 H 0.81301 0.72844 0.82535 0.0
H2210 H 0.81098 0.78193 0.89932 0.0
H2211 H 0.80548 0.69963 0.88652 0.0
C2212 C 0.80115 0.70132 0.92271 0.0
C2213 C 0.79967 0.71537 0.94433 0.0
C2214 C 0.81152 0.77018 0.88316 0.0
C2215 C 0.80658 0.73532 0.90397 0.0
C2216 C 0.81381 0.77933 0.86263 0.0
C2217 C 0.81436 0.76462 0.84115 0.0
C2218 C 0.80969 0.74601 0.88248 0.0
C2219 C 0.81276 0.74059 0.84131 0.0
C2220 C 0.80457 0.7111 0.90276 0.0
C2221 C 0.80201 0.73964 0.94489 0.0
N2222 N 0.81047 0.73212 0.86151 0.0
N2223 N 0.80528 0.74879 0.92508 0.0
H2224 H 0.86882 0.06723 1.0128 0.0
H2225 H 1.0069 0.107 0.04322 0.0
H2226 H 0.89996 0.13245 0.05791 0.0
H2227 H 0.97373 0.04227 0.99858 0.0
H2228 H 0.96885 0.11703 0.04862 0.0
H2229 H 0.90702 0.05847 1.00777 0.0
C2230 C 0.88362 0.07985 0.02178 0.0
C2231 C 0.88061 0.10079 0.03588 0.0
C2232 C 0.96984 0.10068 0.03756 0.0
C2233 C 0.92555 0.0905 0.02992 0.0
C2234 C 0.99171 0.09489 0.03434 0.0
C2235 C 0.99397 0.07367 0.02022 0.0
C2236 C 0.94959 0.08522 0.02668 0.0
C2237 C 0.97325 0.05885 1.0095 0.0
C2238 C 0.90567 0.07472 0.01881 0.0
C2239 C 0.90101 0.11608 0.04691 0.0
N2240 N 0.95222 0.06486 1.01295 0.0
N2241 N 0.9224 0.11068 0.04368 0.0
H2242 H 0.39308 0.45381 0.08056 0.0
H2243 H 0.50766 0.47652 0.01521 0.0
H2244 H 0.41186 0.40312 0.02708 0.0
H2245 H 0.49018 0.52892 0.06819 0.0
H2246 H 0.47459 0.44848 0.02239 0.0
H2247 H 0.43051 0.47988 0.08005 0.0
C2248 C 0.4052 0.4482 0.06875 0.0
C2249 C 0.39917 0.42677 0.05318 0.0
C2250 C 0.47795 0.46604 0.03259 0.0
C2251 C 0.44197 0.45629 0.05258 0.0
C2252 C 0.49688 0.48222 0.02844 0.0
C2253 C 0.50171 0.50535 0.04096 0.0
C2254 C 0.46342 0.47282 0.04938 0.0
C2255 C 0.48711 0.51137 0.05804 0.0
C2256 C 0.42656 0.46301 0.06853 0.0
C2257 C 0.41569 0.41981 0.0389 0.0
N2258 N 0.46852 0.49525 0.06163 0.0
N2259 N 0.43617 0.4347 0.03864 0.0
H2260 H 0.4285 0.64786 0.75957 0.0
H2261 H 0.32425 0.71942 0.79888 0.0
H2262 H 0.37444 0.62291 0.80032 0.0
H2263 H 0.3803 0.75092 0.76405 0.0
H2264 H 0.34215 0.68479 0.79831 0.0
H2265 H 0.41228 0.68393 0.75963 0.0
C2266 C 0.41333 0.64951 0.76865 0.0
C2267 C 0.40355 0.63087 0.78009 0.0
C2268 C 0.35084 0.69913 0.79074 0.0
C2269 C 0.38369 0.6744 0.78003 0.0
C2270 C 0.34039 0.71952 0.79109 0.0
C2271 C 0.35015 0.73962 0.78171 0.0
C2272 C 0.37192 0.69725 0.78068 0.0
C2273 C 0.37142 0.73688 0.77186 0.0
C2274 C 0.40383 0.67067 0.76866 0.0
C2275 C 0.38347 0.63577 0.79119 0.0
N2276 N 0.38112 0.71681 0.77161 0.0
N2277 N 0.37467 0.65612 0.79078 0.0
H2278 H 0.25795 0.58157 0.55745 0.0
H2279 H 0.13322 0.60388 0.51333 0.0
H2280 H 0.2488 0.63668 0.52055 0.0
H2281 H 0.14088 0.55016 0.55289 0.0
H2282 H 0.17536 0.61487 0.51464 0.0
H2283 H 0.21562 0.56842 0.55459 0.0
C2284 C 0.24709 0.5906 0.5483 0.0
C2285 C 0.25716 0.6098 0.53849 0.0
C2286 C 0.1679 0.60068 0.52308 0.0
C2287 C 0.20828 0.59536 0.5359 0.0
C2288 C 0.14366 0.59437 0.52238 0.0
C2289 C 0.13308 0.57606 0.53313 0.0
C2290 C 0.18211 0.58867 0.53459 0.0
C2291 C 0.14796 0.56445 0.54441 0.0
C2292 C 0.22283 0.58325 0.54689 0.0
C2293 C 0.24197 0.62146 0.52787 0.0
N2294 N 0.1715 0.57091 0.54484 0.0
N2295 N 0.21855 0.61406 0.52676 0.0
H2296 H 0.76354 0.05155 0.81369 0.0
H2297 H 0.75946 0.91364 0.79025 0.0
H2298 H 0.70999 1.00163 0.7686 0.0
H2299 H 0.81644 0.96541 0.82797 0.0
H2300 H 0.73846 0.94486 0.78621 0.0
H2301 H 0.77997 0.01937 0.82363 0.0
C2302 C 0.75509 0.03378 0.80598 0.0
C2303 C 0.73549 0.02932 0.79001 0.0
C2304 C 0.75549 0.94935 0.79549 0.0
C2305 C 0.75445 0.99228 0.8013 0.0
C2306 C 0.76757 0.93157 0.79768 0.0
C2307 C 0.7899 0.93694 0.80923 0.0
C2308 C 0.76577 0.97268 0.80496 0.0
C2309 C 0.79927 0.96041 0.81902 0.0
C2310 C 0.76454 1.01539 0.81168 0.0
C2311 C 0.72517 1.0059 0.7809 0.0
N2312 N 0.78722 0.9774 0.81653 0.0
N2313 N 0.73493 0.98823 0.78649 0.0
H2314 H 0.78133 0.92886 0.58118 0.0
H2315 H 0.68101 0.95716 0.49995 0.0
H2316 H 0.76861 0.90288 0.50762 0.0
H2317 H 0.69665 0.98783 0.57257 0.0
H2318 H 0.70885 0.93202 0.50391 0.0
H2319 H 0.74577 0.94465 0.58008 0.0
C2320 C 0.77052 0.92574 0.56499 0.0
C2321 C 0.77752 0.9143 0.54452 0.0
C2322 C 0.70607 0.9441 0.51904 0.0
C2323 C 0.73753 0.93294 0.54286 0.0
C2324 C 0.69027 0.9586 0.51675 0.0
C2325 C 0.68666 0.97488 0.53588 0.0
C2326 C 0.71852 0.94592 0.54061 0.0
C2327 C 0.69879 0.97552 0.55735 0.0
C2328 C 0.75042 0.93498 0.56427 0.0
C2329 C 0.76347 0.91132 0.5238 0.0
N2330 N 0.71433 0.96144 0.55908 0.0
N2331 N 0.74425 0.92078 0.52344 0.0
H2332 H 0.3729 0.50063 0.75507 0.0
H2333 H 0.3843 0.37326 0.78837 0.0
H2334 H 0.4347 0.48915 0.7893 0.0
H2335 H 0.31898 0.38853 0.7669 0.0
H2336 H 0.40301 0.41398 0.78684 0.0
H2337 H 0.35369 0.4601 0.7571 0.0
C2338 C 0.38251 0.48996 0.76346 0.0
C2339 C 0.4056 0.49969 0.77295 0.0
C2340 C 0.38457 0.4086 0.78239 0.0
C2341 C 0.38324 0.45105 0.77442 0.0
C2342 C 0.37365 0.3849 0.78323 0.0
C2343 C 0.34951 0.37633 0.7778 0.0
C2344 C 0.37178 0.42489 0.77573 0.0
C2345 C 0.33744 0.39343 0.77136 0.0
C2346 C 0.37141 0.46633 0.76441 0.0
C2347 C 0.41686 0.48346 0.78224 0.0
N2348 N 0.34847 0.41619 0.77045 0.0
N2349 N 0.4058 0.46064 0.78281 0.0
H2350 H 0.24352 0.6005 0.20616 0.0
H2351 H 0.30153 0.71255 0.21149 0.0
H2352 H 0.18909 0.63217 0.23478 0.0
H2353 H 0.23984 0.73329 0.23615 0.0
H2354 H 0.27959 0.67302 0.1977 0.0
H2355 H 0.26043 0.63734 0.19475 0.0
C2356 C 0.23522 0.6154 0.21001 0.0
C2357 C 0.21585 0.61405 0.22265 0.0
C2358 C 0.27058 0.68611 0.20575 0.0
C2359 C 0.23483 0.65624 0.20981 0.0
C2360 C 0.28324 0.70884 0.21363 0.0
C2361 C 0.27269 0.72596 0.22577 0.0
C2362 C 0.24732 0.68055 0.21042 0.0
C2363 C 0.24889 0.72039 0.22763 0.0
C2364 C 0.24476 0.63648 0.20339 0.0
C2365 C 0.20471 0.63303 0.22597 0.0
N2366 N 0.23715 0.69809 0.22048 0.0
N2367 N 0.2147 0.65357 0.22013 0.0
H2368 H 0.54559 0.75499 0.42618 0.0
H2369 H 0.54761 0.71509 0.54871 0.0
H2370 H 0.52309 0.79498 0.4861 0.0
H2371 H 0.59615 0.70003 0.49898 0.0
H2372 H 0.53438 0.74138 0.52486 0.0
H2373 H 0.55988 0.73055 0.45136 0.0
C2374 C 0.54358 0.75853 0.44459 0.0
C2375 C 0.53326 0.77701 0.45413 0.0
C2376 C 0.54812 0.7325 0.5194 0.0
C2377 C 0.54931 0.74923 0.48284 0.0
C2378 C 0.55567 0.7176 0.53298 0.0
C2379 C 0.57316 0.70567 0.52592 0.0
C2380 C 0.55778 0.73489 0.49842 0.0
C2381 C 0.58292 0.70926 0.50527 0.0
C2382 C 0.55183 0.74473 0.45893 0.0
C2383 C 0.5311 0.78095 0.4781 0.0
N2384 N 0.57493 0.72336 0.49212 0.0
N2385 N 0.53894 0.76708 0.49165 0.0
H2386 H 0.65822 0.34149 0.70537 0.0
H2387 H 0.79118 0.33517 0.72179 0.0
H2388 H 0.69678 0.31921 0.64844 0.0
H2389 H 0.74265 0.31723 0.77115 0.0
H2390 H 0.76014 0.34402 0.69764 0.0
H2391 H 0.69309 0.34782 0.73195 0.0
C2392 C 0.67418 0.33865 0.69832 0.0
C2393 C 0.67457 0.32949 0.6747 0.0
C2394 C 0.75646 0.33859 0.71398 0.0
C2395 C 0.71434 0.33678 0.70499 0.0
C2396 C 0.77413 0.33362 0.72785 0.0
C2397 C 0.76942 0.32524 0.74844 0.0
C2398 C 0.73404 0.33556 0.72096 0.0
C2399 C 0.74696 0.32342 0.7553 0.0
C2400 C 0.69398 0.3421 0.71355 0.0
C2401 C 0.69571 0.32606 0.66657 0.0
N2402 N 0.73002 0.32844 0.7415 0.0
N2403 N 0.71477 0.32949 0.68175 0.0
H2404 H 0.98951 0.38849 0.90755 0.0
H2405 H 1.00745 0.45074 0.0409 0.0
H2406 H 1.01146 0.35552 0.96296 0.0
H2407 H 1.00836 0.48695 0.98298 0.0
H2408 H 0.9974 0.41315 1.01355 0.0
H2409 H 0.9847 0.42176 0.93628 0.0
C2410 C 0.99309 0.38807 0.92576 0.0
C2411 C 1.00146 0.36937 0.93278 0.0
C2412 C 0.99935 0.42937 1.00693 0.0
C2413 C 0.9959 0.4075 0.96578 0.0
C2414 C 1.00491 0.45074 0.02249 0.0
C2415 C 1.00896 0.47181 0.01405 0.0
C2416 C 0.99757 0.42929 0.98294 0.0
C2417 C 1.00565 0.471 0.99009 0.0
C2418 C 0.99031 0.4071 0.94215 0.0
C2419 C 1.00535 0.36971 0.95669 0.0
N2420 N 1.00031 0.45008 0.97536 0.0
N2421 N 1.00283 0.38866 0.97235 0.0
H2422 H 1.0104 0.73397 0.12612 0.0
H2423 H 0.95901 0.81637 0.22403 0.0
H2424 H 0.04611 0.80304 0.16017 0.0
H2425 H 0.93383 0.74166 0.20557 0.0
H2426 H 0.98719 0.81338 0.19538 0.0
H2427 H 0.9782 0.73826 0.14992 0.0
C2428 C 1.01137 0.7501 0.13839 0.0
C2429 C 0.03109 0.76805 0.14139 0.0
C2430 C 0.97545 0.79765 0.19755 0.0
C2431 C 0.99442 0.77307 0.16845 0.0
C2432 C 0.95932 0.79937 0.2138 0.0
C2433 C 0.94423 0.77921 0.21727 0.0
C2434 C 0.97637 0.77564 0.18454 0.0
C2435 C 0.94544 0.75757 0.20366 0.0
C2436 C 0.99306 0.75249 0.15201 0.0
C2437 C 0.03139 0.78861 0.1575 0.0
N2438 N 0.96127 0.75634 0.18788 0.0
N2439 N 1.01339 0.79052 0.17045 0.0
H2440 H 0.48053 0.29976 0.06468 0.0
H2441 H 0.55746 0.42807 0.07439 0.0
H2442 H 0.51625 0.34163 0.12862 0.0
H2443 H 0.52755 0.38432 1.00926 0.0
H2444 H 0.54008 0.39748 0.09477 0.0
H2445 H 0.49415 0.33193 0.04461 0.0
C2446 C 0.4909 0.31583 0.07463 0.0
C2447 C 0.49744 0.31782 0.09841 0.0
C2448 C 0.5373 0.39449 0.07603 0.0
C2449 C 0.51333 0.35462 0.07535 0.0
C2450 C 0.54723 0.41195 0.06438 0.0
C2451 C 0.54387 0.40872 0.0401 0.0
C2452 C 0.52385 0.37358 0.06335 0.0
C2453 C 0.53071 0.38741 0.02797 0.0
C2454 C 0.49882 0.33413 0.06307 0.0
C2455 C 0.51089 0.33915 0.11028 0.0
N2456 N 0.52108 0.37064 0.03975 0.0
N2457 N 0.51853 0.35661 0.09858 0.0
H2458 H 0.05045 0.28485 0.34942 0.0
H2459 H 0.94185 0.33884 0.32812 0.0
H2460 H 0.02614 0.33306 0.40126 0.0
H2461 H 0.96008 0.28393 0.27867 0.0
H2462 H 0.96788 0.33081 0.35784 0.0
H2463 H 1.01306 0.27726 0.32667 0.0
C2464 C 0.03701 0.29364 0.35603 0.0
C2465 C 0.04141 0.31047 0.37645 0.0
C2466 C 0.9661 0.32026 0.34061 0.0
C2467 C 0.9989 0.30189 0.35089 0.0
C2468 C 0.95152 0.32511 0.32354 0.0
C2469 C 0.94967 0.31264 0.30076 0.0
C2470 C 0.97928 0.30309 0.33478 0.0
C2471 C 0.96161 0.29431 0.29594 0.0
C2472 C 0.01565 0.28916 0.34321 0.0
C2473 C 0.02343 0.32061 0.38507 0.0
N2474 N 0.97637 0.29037 0.31277 0.0
N2475 N 1.00303 0.31663 0.37189 0.0
H2476 H 0.0299 0.70396 0.66452 0.0
H2477 H 0.01594 0.61769 0.54194 0.0
H2478 H 0.99861 0.71709 0.60111 0.0
H2479 H 0.05577 0.60821 0.60232 0.0
H2480 H 1.00366 0.65046 0.56539 0.0
H2481 H 0.03296 0.66501 0.6442 0.0
C2482 C 0.02314 0.69843 0.64649 0.0
C2483 C 1.01424 0.71386 0.63438 0.0
C2484 C 0.015 0.64117 0.57359 0.0
C2485 C 0.01798 0.66959 0.61103 0.0
C2486 C 0.0221 0.62245 0.56017 0.0
C2487 C 0.03722 0.61036 0.57008 0.0
C2488 C 0.02308 0.64801 0.59715 0.0
C2489 C 0.04433 0.6172 0.59389 0.0
C2490 C 0.02509 0.67628 0.63486 0.0
C2491 C 1.00583 0.70585 0.61104 0.0
N2492 N 0.03734 0.63572 0.60659 0.0
N2493 N 1.00814 0.68437 0.60007 0.0
H2494 H 0.66575 0.80289 0.88123 0.0
H2495 H 0.75888 0.84557 0.79648 0.0
H2496 H 0.6642 0.86331 0.8493 0.0
H2497 H 0.74019 0.77438 0.80798 0.0
H2498 H 0.72993 0.8565 0.82222 0.0
H2499 H 0.70068 0.79746 0.86244 0.0
C2500 C 0.67313 0.81538 0.87081 0.0
C2501 C 0.66196 0.83332 0.86644 0.0
C2502 C 0.73225 0.83851 0.819 0.0
C2503 C 0.70141 0.82703 0.84475 0.0
C2504 C 0.74856 0.83222 0.8042 0.0
C2505 C 0.75176 0.80899 0.79991 0.0
C2506 C 0.71944 0.82151 0.82977 0.0
C2507 C 0.73816 0.79245 0.81058 0.0
C2508 C 0.69285 0.81212 0.85989 0.0
C2509 C 0.67216 0.84901 0.85275 0.0
N2510 N 0.72267 0.79906 0.8251 0.0
N2511 N 0.69122 0.84534 0.84212 0.0
H2512 H 0.44169 0.54155 0.68103 0.0
H2513 H 0.55478 0.58731 0.61317 0.0
H2514 H 0.50281 0.58741 0.71719 0.0
H2515 H 0.5022 0.52761 0.58266 0.0
H2516 H 0.53522 0.59 0.64945 0.0
H2517 H 0.46148 0.53876 0.6449 0.0
C2518 C 0.45919 0.55128 0.68168 0.0
C2519 C 0.46999 0.56488 0.70327 0.0
C2520 C 0.5278 0.57622 0.63492 0.0
C2521 C 0.49372 0.56178 0.65998 0.0
C2522 C 0.53917 0.57462 0.61376 0.0
C2523 C 0.53082 0.55701 0.59377 0.0
C2524 C 0.50703 0.56045 0.63704 0.0
C2525 C 0.51004 0.54151 0.59691 0.0
C2526 C 0.47072 0.54956 0.66062 0.0
C2527 C 0.49311 0.57666 0.70169 0.0
N2528 N 0.49919 0.54369 0.61743 0.0
N2529 N 0.50374 0.57497 0.68102 0.0
H2530 H 0.8 0.11441 0.95447 0.0
H2531 H 0.812 0.24333 0.92472 0.0
H2532 H 0.83143 0.17804 1.00212 0.0
H2533 H 0.78624 0.18062 0.87378 0.0
H2534 H 0.8196 0.21918 0.95295 0.0
H2535 H 0.79571 0.13769 0.92426 0.0
C2536 C 0.80624 0.1332 0.95857 0.0
C2537 C 0.81601 0.14421 0.98103 0.0
C2538 C 0.81233 0.21062 0.9356 0.0
C2539 C 0.81091 0.171 0.94648 0.0
C2540 C 0.80782 0.22444 0.91948 0.0
C2541 C 0.79825 0.21403 0.89686 0.0
C2542 C 0.80716 0.18607 0.92922 0.0
C2543 C 0.7937 0.18942 0.89099 0.0
C2544 C 0.8037 0.14649 0.94129 0.0
C2545 C 0.82369 0.16867 0.98519 0.0
N2546 N 0.79805 0.17628 0.9071 0.0
N2547 N 0.82085 0.18117 0.96819 0.0
H2548 H 0.17888 0.51418 0.17203 0.0
H2549 H 0.09107 0.48295 0.08433 0.0
H2550 H 0.12581 0.50981 0.21942 0.0
H2551 H 0.05421 0.51751 0.13661 0.0
H2552 H 0.11823 0.47764 0.11482 0.0
H2553 H 0.14912 0.50029 0.1396 0.0
C2554 C 0.16104 0.50952 0.17564 0.0
C2555 C 0.1548 0.51354 0.19843 0.0
C2556 C 0.10413 0.48624 0.11962 0.0
C2557 C 0.12057 0.49771 0.16144 0.0
C2558 C 0.08841 0.48911 0.10223 0.0
C2559 C 0.0706 0.50126 0.10789 0.0
C2560 C 0.10202 0.49561 0.14281 0.0
C2561 C 0.06789 0.50843 0.13141 0.0
C2562 C 0.14398 0.5015 0.15708 0.0
C2563 C 0.13139 0.50728 0.20209 0.0
N2564 N 0.08364 0.50576 0.14801 0.0
N2565 N 0.11508 0.50029 0.18377 0.0
H2566 H 0.84767 0.84091 0.47935 0.0
H2567 H 0.78634 0.83937 0.35301 0.0
H2568 H 0.80839 0.89165 0.46333 0.0
H2569 H 0.84123 0.80199 0.36242 0.0
H2570 H 0.78975 0.85358 0.3948 0.0
H2571 H 0.8411 0.8215 0.43812 0.0
C2572 C 0.83739 0.84774 0.4673 0.0
C2573 C 0.82864 0.86801 0.47485 0.0
C2574 C 0.80101 0.84219 0.38779 0.0
C2575 C 0.82103 0.84594 0.42777 0.0
C2576 C 0.79904 0.83398 0.36382 0.0
C2577 C 0.81363 0.81953 0.35393 0.0
C2578 C 0.8176 0.83588 0.40231 0.0
C2579 C 0.82968 0.81318 0.36912 0.0
C2580 C 0.8338 0.83678 0.44375 0.0
C2581 C 0.81563 0.8762 0.45835 0.0
N2582 N 0.83127 0.82142 0.39249 0.0
N2583 N 0.81224 0.8652 0.43577 0.0
H2584 H 0.43902 0.5802 0.86842 0.0
H2585 H 0.54874 0.5405 0.9315 0.0
H2586 H 0.49298 0.55854 0.82932 0.0
H2587 H 0.50092 0.57519 0.96927 0.0
H2588 H 0.52879 0.54499 0.89473 0.0
H2589 H 0.46062 0.57691 0.90432 0.0
C2590 C 0.45554 0.57495 0.86707 0.0
C2591 C 0.46373 0.5701 0.84478 0.0
C2592 C 0.52254 0.55168 0.91099 0.0
C2593 C 0.48941 0.56551 0.8878 0.0
C2594 C 0.53408 0.54906 0.93238 0.0
C2595 C 0.52703 0.55736 0.95452 0.0
C2596 C 0.50308 0.56257 0.91078 0.0
C2597 C 0.50756 0.56832 0.95332 0.0
C2598 C 0.46803 0.57296 0.88803 0.0
C2599 C 0.48551 0.56301 0.84546 0.0
N2600 N 0.49658 0.57038 0.9324 0.0
N2601 N 0.49717 0.56086 0.8661 0.0
H2602 H 0.84857 0.20722 0.10083 0.0
H2603 H 0.78542 0.23072 0.21769 0.0
H2604 H 0.809 0.15217 0.13027 0.0
H2605 H 0.83218 0.28495 0.19361 0.0
H2606 H 0.7925 0.20225 0.18488 0.0
H2607 H 0.84244 0.23595 0.13405 0.0
C2608 C 0.83887 0.20107 0.11444 0.0
C2609 C 0.82942 0.17708 0.11267 0.0
C2610 C 0.80114 0.22039 0.18665 0.0
C2611 C 0.82183 0.21022 0.15078 0.0
C2612 C 0.79696 0.2368 0.20537 0.0
C2613 C 0.80809 0.2605 0.20856 0.0
C2614 C 0.81659 0.22752 0.17073 0.0
C2615 C 0.82303 0.26701 0.19193 0.0
C2616 C 0.83525 0.21757 0.13339 0.0
C2617 C 0.81682 0.17037 0.13086 0.0
N2618 N 0.82684 0.25068 0.17385 0.0
N2619 N 0.81327 0.18679 0.14897 0.0
H2620 H 0.15183 0.59343 0.28976 0.0
H2621 H 0.14997 0.62105 0.4267 0.0
H2622 H 0.21389 0.61093 0.33673 0.0
H2623 H 0.08984 0.609 0.37771 0.0
H2624 H 0.17444 0.62226 0.39454 0.0
H2625 H 0.1297 0.60408 0.32205 0.0
C2626 C 0.16082 0.59964 0.30693 0.0
C2627 C 0.18466 0.60089 0.31068 0.0
C2628 C 0.15591 0.61973 0.39091 0.0
C2629 C 0.15933 0.613 0.34789 0.0
C2630 C 0.14193 0.61892 0.40922 0.0
C2631 C 0.11779 0.61462 0.40486 0.0
C2632 C 0.14563 0.61606 0.3681 0.0
C2633 C 0.10833 0.61246 0.38196 0.0
C2634 C 0.14818 0.60583 0.32538 0.0
C2635 C 0.19549 0.60953 0.33317 0.0
N2636 N 0.12226 0.61292 0.36445 0.0
N2637 N 0.18266 0.61492 0.35107 0.0
H2638 H 0.8446 0.89459 0.63135 0.0
H2639 H 0.79086 0.78726 0.69286 0.0
H2640 H 0.81224 0.82654 0.59232 0.0
H2641 H 0.83313 0.85228 0.72925 0.0
H2642 H 0.7956 0.80173 0.65614 0.0
H2643 H 0.83789 0.87984 0.66733 0.0
C2644 C 0.83604 0.87651 0.63029 0.0
C2645 C 0.82906 0.86183 0.6086 0.0
C2646 C 0.80377 0.81284 0.67219 0.0
C2647 C 0.82113 0.84467 0.65019 0.0
C2648 C 0.80096 0.80462 0.69323 0.0
C2649 C 0.8116 0.81849 0.71437 0.0
C2650 C 0.81717 0.83521 0.67219 0.0
C2651 C 0.82462 0.84082 0.71353 0.0
C2652 C 0.83222 0.86806 0.65094 0.0
C2653 C 0.81801 0.83853 0.60855 0.0
N2654 N 0.82699 0.84839 0.69296 0.0
N2655 N 0.81437 0.83071 0.62894 0.0
H2656 H 0.72205 0.46034 0.5214 0.0
H2657 H 0.6481 0.56272 0.52499 0.0
H2658 H 0.74444 0.52417 0.49565 0.0
H2659 H 0.61617 0.49225 0.53024 0.0
H2660 H 0.68453 0.54975 0.51859 0.0
H2661 H 0.68482 0.47214 0.52847 0.0
C2662 C 0.71927 0.4768 0.51715 0.0
C2663 C 0.73683 0.49109 0.50771 0.0
C2664 C 0.66966 0.53707 0.52127 0.0
C2665 C 0.69375 0.50508 0.51631 0.0
C2666 C 0.64867 0.54453 0.52514 0.0
C2667 C 0.6286 0.52876 0.52844 0.0
C2668 C 0.67123 0.5135 0.52088 0.0
C2669 C 0.63094 0.50528 0.528 0.0
C2670 C 0.69786 0.48355 0.52122 0.0
C2671 C 0.73174 0.5123 0.50276 0.0
N2672 N 0.65168 0.49847 0.52443 0.0
N2673 N 0.71103 0.5186 0.50722 0.0
H2674 H 0.24215 0.14993 0.5291 0.0
H2675 H 0.1052 0.12534 0.50498 0.0
H2676 H 0.20912 0.19306 0.49124 0.0
H2677 H 0.14365 0.07169 0.514 0.0
H2678 H 0.14179 0.15259 0.50363 0.0
H2679 H 0.20487 0.12377 0.5287 0.0
C2680 C 0.22699 0.15372 0.52047 0.0
C2681 C 0.22881 0.17307 0.50933 0.0
C2682 C 0.14212 0.13479 0.50574 0.0
C2683 C 0.18583 0.14359 0.50942 0.0
C2684 C 0.12126 0.11922 0.50652 0.0
C2685 C 0.12127 0.09611 0.50963 0.0
C2686 C 0.16314 0.12737 0.50857 0.0
C2687 C 0.14268 0.08924 0.51153 0.0
C2688 C 0.2057 0.13885 0.52032 0.0
C2689 C 0.20847 0.17791 0.49947 0.0
N2690 N 0.16266 0.10482 0.51121 0.0
N2691 N 0.18777 0.16316 0.49959 0.0
H2692 H 0.2225 0.96703 0.7428 0.0
H2693 H 0.25495 0.8589 0.80288 0.0
H2694 H 0.22245 0.96989 0.8163 0.0
H2695 H 0.28979 0.87832 0.74487 0.0
H2696 H 0.23707 0.89392 0.80502 0.0
H2697 H 0.23994 0.93156 0.73995 0.0
C2698 C 0.22549 0.96026 0.75847 0.0
C2699 C 0.21988 0.97261 0.7799 0.0
C2700 C 0.24847 0.89068 0.7916 0.0
C2701 C 0.24094 0.92953 0.77656 0.0
C2702 C 0.25891 0.87011 0.79025 0.0
C2703 C 0.27457 0.86425 0.77355 0.0
C2704 C 0.25244 0.9065 0.7757 0.0
C2705 C 0.27821 0.88095 0.75823 0.0
C2706 C 0.23594 0.93961 0.75681 0.0
C2707 C 0.22561 0.96185 0.79913 0.0
N2708 N 0.26738 0.90033 0.75951 0.0
N2709 N 0.23509 0.9416 0.79695 0.0
H2710 H 0.35951 0.02401 0.02513 0.0
H2711 H 0.48393 0.99062 0.0195 0.0
H2712 H 0.36937 0.95795 0.98757 0.0
H2713 H 0.47647 0.06211 0.02162 0.0
H2714 H 0.44171 0.97812 1.01345 0.0
H2715 H 0.4017 0.0385 0.02887 0.0
C2716 C 0.37043 1.01278 0.01707 0.0
C2717 C 0.36063 0.99004 1.00507 0.0
C2718 C 0.4493 0.99656 0.01524 0.0
C2719 C 0.40926 1.00592 1.01085 0.0
C2720 C 0.47347 1.00374 0.01882 0.0
C2721 C 0.48401 0.0275 0.02102 0.0
C2722 C 0.43523 1.01323 0.01442 0.0
C2723 C 0.46928 0.0436 0.01989 0.0
C2724 C 0.39459 0.02095 0.01952 0.0
C2725 C 0.37598 0.9758 0.99643 0.0
N2726 N 0.44577 0.03624 0.0169 0.0
N2727 N 0.39932 0.98385 0.99959 0.0
H2728 H 0.86566 0.58919 0.85176 0.0
H2729 H 0.85364 0.65007 0.7413 0.0
H2730 H 0.915 0.59147 0.80036 0.0
H2731 H 0.80759 0.65177 0.79569 0.0
H2732 H 0.87656 0.62872 0.76266 0.0
H2733 H 0.84505 0.61343 0.8321 0.0
C2734 C 0.87238 0.59506 0.83653 0.0
C2735 C 0.89202 0.58811 0.82762 0.0
C2736 C 0.86139 0.6337 0.76986 0.0
C2737 C 0.86821 0.61558 0.80476 0.0
C2738 C 0.84828 0.64581 0.75766 0.0
C2739 C 0.82861 0.6526 0.76667 0.0
C2740 C 0.85478 0.62837 0.79124 0.0
C2741 C 0.82236 0.64652 0.78786 0.0
C2742 C 0.86051 0.60882 0.82523 0.0
C2743 C 0.89994 0.59637 0.80787 0.0
N2744 N 0.83543 0.6348 0.79943 0.0
N2745 N 0.88785 0.60947 0.79694 0.0
H2746 H 0.8529 0.65088 0.98442 0.0
H2747 H 0.91496 0.62028 0.09523 0.0
H2748 H 0.8489 0.6881 0.05341 0.0
H2749 H 0.93768 0.6049 0.02685 0.0
H2750 H 0.88985 0.64434 0.08053 0.0
H2751 H 0.88371 0.63358 0.99958 0.0
C2752 C 0.85886 0.65579 1.00271 0.0
C2753 C 0.84838 0.67106 0.01765 0.0
C2754 C 0.90051 0.63588 0.06882 0.0
C2755 C 0.88319 0.65068 0.03529 0.0
C2756 C 0.91471 0.62201 0.07715 0.0
C2757 C 0.92842 0.61051 0.06225 0.0
C2758 C 0.89966 0.63792 0.04529 0.0
C2759 C 0.92755 0.61357 0.03902 0.0
C2760 C 0.8764 0.64584 1.01137 0.0
C2761 C 0.85667 0.67664 0.04123 0.0
N2762 N 0.91326 0.62673 0.03122 0.0
N2763 N 0.87331 0.66614 0.0494 0.0
H2764 H 0.19053 0.11979 0.79875 0.0
H2765 H 0.24359 0.23404 0.78537 0.0
H2766 H 0.25034 0.09643 0.7732 0.0
H2767 H 0.30802 0.21047 0.78419 0.0
H2768 H 0.22352 0.19397 0.78626 0.0
H2769 H 0.20978 0.16044 0.79946 0.0
C2770 C 0.20791 0.12299 0.79351 0.0
C2771 C 0.21858 0.1036 0.78668 0.0
C2772 C 0.24208 0.19721 0.78604 0.0
C2773 C 0.24165 0.15241 0.78662 0.0
C2774 C 0.25379 0.22062 0.78538 0.0
C2775 C 0.27809 0.22682 0.78481 0.0
C2776 C 0.25415 0.17851 0.78595 0.0
C2777 C 0.28948 0.20748 0.78474 0.0
C2778 C 0.21906 0.14673 0.79369 0.0
C2779 C 0.24121 0.11009 0.77962 0.0
N2780 N 0.27767 0.18482 0.78516 0.0
N2781 N 0.25173 0.13336 0.77993 0.0
H2782 H 0.42471 0.95642 0.35859 0.0
H2783 H 0.32265 0.87184 0.27294 0.0
H2784 H 0.378 0.97912 0.31239 0.0
H2785 H 0.35905 0.84697 0.32636 0.0
H2786 H 0.3423 0.91166 0.28909 0.0
H2787 H 0.40098 0.9164 0.34879 0.0
C2788 C 0.40932 0.95296 0.34664 0.0
C2789 C 0.40285 0.97099 0.33666 0.0
C2790 C 0.34598 0.89763 0.2975 0.0
C2791 C 0.37617 0.92577 0.32508 0.0
C2792 C 0.33475 0.87485 0.28822 0.0
C2793 C 0.33939 0.85616 0.29826 0.0
C2794 C 0.36239 0.90183 0.31675 0.0
C2795 C 0.35503 0.86102 0.31818 0.0
C2796 C 0.39579 0.93028 0.34112 0.0
C2797 C 0.38316 0.96577 0.32091 0.0
N2798 N 0.36629 0.88346 0.32665 0.0
N2799 N 0.37056 0.94369 0.31562 0.0
H2800 H 0.58533 0.29933 0.55372 0.0
H2801 H 0.59888 0.43313 0.54041 0.0
H2802 H 0.61696 0.35732 0.60818 0.0
H2803 H 0.5535 0.37555 0.49491 0.0
H2804 H 0.61325 0.40518 0.56091 0.0
H2805 H 0.58104 0.32679 0.52814 0.0
C2806 C 0.59147 0.31786 0.56036 0.0
C2807 C 0.60112 0.32604 0.58339 0.0
C2808 C 0.60043 0.39866 0.54621 0.0
C2809 C 0.59629 0.35763 0.55388 0.0
C2810 C 0.59239 0.41455 0.53434 0.0
C2811 C 0.57487 0.40659 0.51602 0.0
C2812 C 0.59093 0.37467 0.53963 0.0
C2813 C 0.56683 0.38239 0.50911 0.0
C2814 C 0.58904 0.33353 0.54563 0.0
C2815 C 0.60917 0.35024 0.59068 0.0
N2816 N 0.57479 0.36728 0.52106 0.0
N2817 N 0.60636 0.36524 0.57602 0.0
H2818 H 0.43395 0.80677 0.40115 0.0
H2819 H 0.38808 0.76284 0.27117 0.0
H2820 H 0.47552 0.77461 0.35249 0.0
H2821 H 0.34246 0.76647 0.32577 0.0
H2822 H 0.4198 0.76293 0.30007 0.0
H2823 H 0.3997 0.79002 0.37394 0.0
C2824 C 0.43575 0.79608 0.38469 0.0
C2825 C 0.45751 0.79295 0.37836 0.0
C2826 C 0.40281 0.76364 0.30565 0.0
C2827 C 0.41868 0.77347 0.34742 0.0
C2828 C 0.38475 0.76339 0.28918 0.0
C2829 C 0.3628 0.76484 0.29622 0.0
C2830 C 0.39907 0.76683 0.32929 0.0
C2831 C 0.3592 0.76535 0.31968 0.0
C2832 C 0.41626 0.7864 0.36924 0.0
C2833 C 0.45904 0.77835 0.35731 0.0
N2834 N 0.37731 0.76702 0.3355 0.0
N2835 N 0.4399 0.76951 0.34226 0.0
H2836 H 0.12688 0.71555 0.10184 0.0
H2837 H 0.0535 0.5973 0.12008 0.0
H2838 H 0.08356 0.70995 0.15787 0.0
H2839 H 0.10911 0.60033 0.07575 0.0
H2840 H 0.06933 0.63758 0.13908 0.0
H2841 H 0.12639 0.67345 0.09683 0.0
C2842 C 0.11739 0.70534 0.11316 0.0
C2843 C 0.10423 0.71566 0.12945 0.0
C2844 C 0.07846 0.62938 0.12559 0.0
C2845 C 0.10372 0.66789 0.1241 0.0
C2846 C 0.06934 0.60642 0.11468 0.0
C2847 C 0.07989 0.59578 0.09618 0.0
C2848 C 0.09781 0.64203 0.11735 0.0
C2849 C 0.10046 0.60811 0.08991 0.0
C2850 C 0.11733 0.68143 0.11052 0.0
C2851 C 0.09317 0.70224 0.14453 0.0
N2852 N 0.10847 0.63088 0.1001 0.0
N2853 N 0.09262 0.67883 0.14108 0.0
H2854 H 0.07402 0.37342 0.85473 0.0
H2855 H 0.20553 0.36262 0.87171 0.0
H2856 H 0.10218 0.34331 0.90939 0.0
H2857 H 0.17097 0.37239 0.80832 0.0
H2858 H 0.17127 0.36826 0.8916 0.0
H2859 H 0.11296 0.38615 0.8443 0.0
C2860 C 0.08839 0.36982 0.86483 0.0
C2861 C 0.08472 0.35667 0.88258 0.0
C2862 C 0.17147 0.36966 0.87345 0.0
C2863 C 0.12936 0.37119 0.87058 0.0
C2864 C 0.19094 0.36632 0.86203 0.0
C2865 C 0.19096 0.36635 0.83809 0.0
C2866 C 0.15199 0.37326 0.86089 0.0
C2867 C 0.17186 0.37208 0.82671 0.0
C2868 C 0.11063 0.37711 0.85883 0.0
C2869 C 0.10411 0.35298 0.8953 0.0
N2870 N 0.15302 0.37492 0.83813 0.0
N2871 N 0.1256 0.35983 0.88877 0.0
H2872 H 0.61845 0.79201 0.96433 0.0
H2873 H 0.53207 0.67527 0.97357 0.0
H2874 H 0.58164 0.74372 0.90451 0.0
H2875 H 0.58961 0.70477 0.02528 0.0
H2876 H 0.54787 0.70313 0.9496 0.0
H2877 H 0.60704 0.76238 0.98833 0.0
C2878 C 0.60835 0.77504 0.95617 0.0
C2879 C 0.60086 0.77035 0.93242 0.0
C2880 C 0.55705 0.70346 0.96618 0.0
C2881 C 0.58731 0.7368 0.9598 0.0
C2882 C 0.54804 0.68756 0.97992 0.0
C2883 C 0.55961 0.68745 1.00145 0.0
C2884 C 0.5776 0.7197 0.97411 0.0
C2885 C 0.57993 0.70432 1.00895 0.0
C2886 C 0.6018 0.75821 0.96989 0.0
C2887 C 0.58778 0.7481 0.92274 0.0
N2888 N 0.58828 0.71982 0.99531 0.0
N2889 N 0.58111 0.73229 0.93654 0.0
H2890 H 0.11247 0.80408 0.67771 0.0
H2891 H 0.14293 0.7694 0.80003 0.0
H2892 H 0.06165 0.77168 0.71815 0.0
H2893 H 0.19193 0.81223 0.76541 0.0
H2894 H 0.11251 0.77069 0.77057 0.0
H2895 H 0.14257 0.80566 0.70899 0.0
C2896 C 0.10781 0.79715 0.6931 0.0
C2897 C 0.08477 0.78836 0.69591 0.0
C2898 C 0.12987 0.7801 0.76963 0.0
C2899 C 0.11848 0.78997 0.73131 0.0
C2900 C 0.14712 0.77955 0.78657 0.0
C2901 C 0.16991 0.79065 0.7851 0.0
C2902 C 0.13563 0.7915 0.75099 0.0
C2903 C 0.17452 0.80358 0.76732 0.0
C2904 C 0.12481 0.79817 0.71096 0.0
C2905 C 0.07932 0.77915 0.7158 0.0
N2906 N 0.15758 0.80334 0.75072 0.0
N2907 N 0.09605 0.78033 0.73287 0.0
H2908 H 0.10759 0.3833 0.45321 0.0
H2909 H 0.08532 0.51317 0.45621 0.0
H2910 H 0.1031 0.41446 0.39205 0.0
H2911 H 0.07428 0.47502 0.51251 0.0
H2912 H 0.09818 0.47971 0.43397 0.0
H2913 H 0.10262 0.41987 0.47683 0.0
C2914 C 0.10593 0.39791 0.44475 0.0
C2915 C 0.10546 0.39564 0.42053 0.0
C2916 C 0.09299 0.47875 0.45123 0.0
C2917 C 0.09954 0.4375 0.44752 0.0
C2918 C 0.08562 0.4978 0.46391 0.0
C2919 C 0.07847 0.49679 0.48616 0.0
C2920 C 0.09339 0.45867 0.46095 0.0
C2921 C 0.07936 0.47649 0.49532 0.0
C2922 C 0.10295 0.41875 0.45826 0.0
C2923 C 0.10333 0.41528 0.41062 0.0
N2924 N 0.08665 0.45823 0.48267 0.0
N2925 N 0.10024 0.43532 0.42413 0.0
H2926 H 0.42072 0.28135 0.1441 0.0
H2927 H 0.3757 0.25075 0.26314 0.0
H2928 H 0.45132 0.23649 0.18196 0.0
H2929 H 0.37461 0.31641 0.24049 0.0
H2930 H 0.39606 0.2387 0.22913 0.0
H2931 H 0.39434 0.28667 0.17457 0.0
C2932 C 0.42134 0.27211 0.1585 0.0
C2933 C 0.43803 0.25858 0.16081 0.0
C2934 C 0.39135 0.25574 0.23179 0.0
C2935 C 0.40856 0.26469 0.19545 0.0
C2936 C 0.37995 0.26266 0.25118 0.0
C2937 C 0.37378 0.28469 0.25477 0.0
C2938 C 0.39602 0.2708 0.21578 0.0
C2939 C 0.37941 0.29943 0.23866 0.0
C2940 C 0.40656 0.27531 0.17592 0.0
C2941 C 0.43857 0.24713 0.17982 0.0
N2942 N 0.39007 0.29215 0.21979 0.0
N2943 N 0.42411 0.25055 0.19659 0.0
H2944 H 0.63416 0.5571 0.33458 0.0
H2945 H 0.60494 0.51348 0.45664 0.0
H2946 H 0.6796 0.52154 0.3682 0.0
H2947 H 0.58987 0.57902 0.44444 0.0
H2948 H 0.62611 0.51089 0.42144 0.0
H2949 H 0.61247 0.56 0.36961 0.0
C2950 C 0.63957 0.54943 0.34894 0.0
C2951 C 0.65923 0.5387 0.34727 0.0
C2952 C 0.61813 0.52586 0.4262 0.0
C2953 C 0.6332 0.54188 0.3891 0.0
C2954 C 0.6057 0.52737 0.44665 0.0
C2955 C 0.59493 0.54656 0.45457 0.0
C2956 C 0.61979 0.54323 0.41199 0.0
C2957 C 0.59746 0.56375 0.43991 0.0
C2958 C 0.62704 0.55133 0.3694 0.0
C2959 C 0.6648 0.52983 0.36766 0.0
N2960 N 0.60901 0.56151 0.41978 0.0
N2961 N 0.65203 0.5313 0.38691 0.0
H2962 H 0.31695 0.96535 0.08778 0.0
H2963 H 0.30328 0.83772 0.11982 0.0
H2964 H 0.27205 0.90354 0.04808 0.0
H2965 H 0.33841 0.89993 0.16723 0.0
H2966 H 0.29137 0.86225 0.09377 0.0
H2967 H 0.32397 0.94279 0.11806 0.0
C2968 C 0.30821 0.9472 0.08563 0.0
C2969 C 0.29403 0.93628 0.06527 0.0
C2970 C 0.30161 0.87062 0.1099 0.0
C2971 C 0.30231 0.9103 0.09956 0.0
C2972 C 0.30858 0.85658 0.1247 0.0
C2973 C 0.32206 0.86676 0.14563 0.0
C2974 C 0.30831 0.89514 0.11587 0.0
C2975 C 0.328 0.89136 0.15126 0.0
C2976 C 0.31234 0.93429 0.10285 0.0
C2977 C 0.28327 0.91267 0.06337 0.0
N2978 N 0.32126 0.90471 0.13637 0.0
N2979 N 0.28782 0.90046 0.08012 0.0
H2980 H 0.92886 0.56994 0.92722 0.0
H2981 H 0.05137 0.56326 0.98254 0.0
H2982 H 0.98687 0.56222 0.88725 0.0
H2983 H 0.99504 0.5784 0.0221 0.0
H2984 H 0.03106 0.57125 0.94822 0.0
H2985 H 0.95516 0.58098 0.9625 0.0
C2986 C 0.94715 0.57085 0.92581 0.0
C2987 C 0.95556 0.56462 0.90427 0.0
C2988 C 0.02339 0.57335 0.96455 0.0
C2989 C 0.98581 0.57701 0.94466 0.0
C2990 C 0.03506 0.56891 0.98418 0.0
C2991 C 0.02457 0.56957 1.00502 0.0
C2992 C 1.00112 0.57832 0.96589 0.0
C2993 C 1.00347 0.5771 1.00621 0.0
C2994 C 0.96221 0.57723 0.94598 0.0
C2995 C 0.97952 0.56651 0.90351 0.0
N2996 N 0.99224 0.58074 0.98682 0.0
N2997 N 0.99375 0.5721 0.92346 0.0
H2998 H 0.30674 0.20463 0.5962 0.0
H2999 H 0.28821 0.3036 0.69841 0.0
H3000 H 0.29759 0.2718 0.58219 0.0
H3001 H 0.33497 0.25755 0.70858 0.0
H3002 H 0.28617 0.28969 0.65626 0.0
H3003 H 0.31192 0.22095 0.63789 0.0
C3004 C 0.30587 0.22285 0.60189 0.0
C3005 C 0.3018 0.23688 0.58561 0.0
C3006 C 0.29695 0.28276 0.66775 0.0
C3007 C 0.30718 0.25554 0.6335 0.0
C3008 C 0.29806 0.2906 0.69182 0.0
C3009 C 0.3118 0.28176 0.70716 0.0
C3010 C 0.30913 0.26544 0.65889 0.0
C3011 C 0.32424 0.26496 0.69749 0.0
C3012 C 0.3089 0.23215 0.62569 0.0
C3013 C 0.30086 0.26039 0.59408 0.0
N3014 N 0.32236 0.25714 0.67409 0.0
N3015 N 0.30321 0.2689 0.61742 0.0
H3016 H 0.6235 0.50439 0.20504 0.0
H3017 H 0.61163 0.58025 0.10306 0.0
H3018 H 0.67823 0.56092 0.19761 0.0
H3019 H 0.58272 0.50643 0.09056 0.0
H3020 H 0.63145 0.57635 0.14004 0.0
H3021 H 0.60449 0.50718 0.16719 0.0
C3022 C 0.63176 0.51743 0.19564 0.0
C3023 C 0.65314 0.53217 0.20533 0.0
C3024 C 0.62076 0.56091 0.12935 0.0
C3025 C 0.63016 0.53618 0.16076 0.0
C3026 C 0.60917 0.56314 0.10791 0.0
C3027 C 0.59503 0.54372 0.0927 0.0
C3028 C 0.6181 0.53911 0.137 0.0
C3029 C 0.59322 0.52215 0.10097 0.0
C3030 C 0.62069 0.51902 0.17368 0.0
C3031 C 0.66215 0.54876 0.19145 0.0
N3032 N 0.6041 0.52059 0.12216 0.0
N3033 N 0.65072 0.55043 0.1706 0.0
H3034 H 0.28275 0.90497 0.95242 0.0
H3035 H 0.33216 0.87908 0.82794 0.0
H3036 H 0.30802 0.95893 0.91376 0.0
H3037 H 0.29809 0.82436 0.86155 0.0
H3038 H 0.32497 0.90834 0.86001 0.0
H3039 H 0.28873 0.87534 0.91999 0.0
C3040 C 0.28929 0.91068 0.93705 0.0
C3041 C 0.29483 0.93473 0.93606 0.0
C3042 C 0.31915 0.88994 0.86048 0.0
C3043 C 0.3022 0.9005 0.89869 0.0
C3044 C 0.32343 0.87311 0.84218 0.0
C3045 C 0.31592 0.849 0.84193 0.0
C3046 C 0.3073 0.88284 0.87896 0.0
C3047 C 0.3044 0.84263 0.86092 0.0
C3048 C 0.29282 0.89365 0.91851 0.0
C3049 C 0.3034 0.94074 0.91552 0.0
N3050 N 0.30048 0.85936 0.87857 0.0
N3051 N 0.30695 0.92386 0.89786 0.0
H3052 H 0.92812 0.51554 0.75193 0.0
H3053 H 0.04534 0.5432 0.6917 0.0
H3054 H 0.99217 0.5568 0.78771 0.0
H3055 H 0.97963 0.5121 0.65279 0.0
H3056 H 0.02598 0.54702 0.72729 0.0
H3057 H 0.94638 0.5132 0.7154 0.0
C3058 C 0.94596 0.5242 0.75208 0.0
C3059 C 0.95869 0.53631 0.77287 0.0
C3060 C 0.01575 0.53939 0.71099 0.0
C3061 C 0.97964 0.53357 0.73135 0.0
C3062 C 0.02682 0.53705 0.6907 0.0
C3063 C 1.01407 0.52722 0.66932 0.0
C3064 C 0.99172 0.53171 0.70995 0.0
C3065 C 0.99006 0.51991 0.66894 0.0
C3066 C 0.95635 0.52286 0.73126 0.0
C3067 C 0.98172 0.54723 0.7721 0.0
N3068 N 0.97965 0.5222 0.689 0.0
N3069 N 0.99148 0.54549 0.75172 0.0
H3070 H 0.28226 0.19 0.42214 0.0
H3071 H 0.33622 0.30269 0.36896 0.0
H3072 H 0.31179 0.25604 0.46683 0.0
H3073 H 0.2936 0.2391 0.32999 0.0
H3074 H 0.33055 0.28651 0.40484 0.0
H3075 H 0.28917 0.20814 0.38858 0.0
C3076 C 0.29024 0.20842 0.42505 0.0
C3077 C 0.29642 0.22136 0.4477 0.0
C3078 C 0.32249 0.27616 0.3884 0.0
C3079 C 0.30462 0.24263 0.4084 0.0
C3080 C 0.32583 0.28533 0.36785 0.0
C3081 C 0.31542 0.27231 0.34622 0.0
C3082 C 0.30883 0.2537 0.38732 0.0
C3083 C 0.30199 0.24996 0.34607 0.0
C3084 C 0.29417 0.21885 0.40564 0.0
C3085 C 0.30663 0.24528 0.44984 0.0
N3086 N 0.29919 0.24148 0.3661 0.0
N3087 N 0.31051 0.25511 0.43048 0.0
H3088 H 0.40108 0.63581 0.55527 0.0
H3089 H 0.47479 0.53983 0.50068 0.0
H3090 H 0.37081 0.56958 0.51151 0.0
H3091 H 0.50727 0.60849 0.53805 0.0
H3092 H 0.43689 0.55042 0.50538 0.0
H3093 H 0.43967 0.62624 0.55059 0.0
C3094 C 0.40236 0.61924 0.54477 0.0
C3095 C 0.38212 0.60363 0.53382 0.0
C3096 C 0.45226 0.56329 0.5125 0.0
C3097 C 0.42698 0.59239 0.52828 0.0
C3098 C 0.47412 0.55723 0.50971 0.0
C3099 C 0.49477 0.57321 0.51873 0.0
C3100 C 0.45048 0.58558 0.52465 0.0
C3101 C 0.49216 0.59545 0.53051 0.0
C3102 C 0.42457 0.61378 0.54202 0.0
C3103 C 0.3855 0.58243 0.52036 0.0
N3104 N 0.47071 0.60085 0.53316 0.0
N3105 N 0.40711 0.57755 0.51807 0.0
H3106 H 0.91313 0.89881 0.52504 0.0
H3107 H 0.99034 0.02806 0.56773 0.0
H3108 H 0.8937 0.95045 0.57708 0.0
H3109 H 1.00641 0.97604 0.51342 0.0
H3110 H 0.95695 0.99911 0.57453 0.0
H3111 H 0.95007 0.92553 0.52441 0.0
C3112 C 0.91679 0.91576 0.53645 0.0
C3113 C 0.90008 0.92293 0.55038 0.0
C3114 C 0.96795 0.99404 0.56126 0.0
C3115 C 0.94233 0.95356 0.55008 0.0
C3116 C 0.98698 1.0106 0.55733 0.0
C3117 C 1.00124 1.00463 0.53989 0.0
C3118 C 0.9632 0.97132 0.54773 0.0
C3119 C 0.99596 0.98164 0.52699 0.0
C3120 C 0.93784 0.93105 0.53611 0.0
C3121 C 0.90587 0.94473 0.5654 0.0
N3122 N 0.97744 0.96598 0.53112 0.0
N3123 N 0.92638 0.95944 0.56465 0.0
H3124 H 0.92592 0.14826 0.26029 0.0
H3125 H 0.81958 0.21762 0.29835 0.0
H3126 H 0.87147 0.12155 0.29974 0.0
H3127 H 0.87693 0.25068 0.26619 0.0
H3128 H 0.83775 0.18305 0.29763 0.0
H3129 H 0.90914 0.18403 0.26072 0.0
C3130 C 0.91054 0.14944 0.26915 0.0
C3131 C 0.90086 0.13039 0.28012 0.0
C3132 C 0.84665 0.19774 0.29068 0.0
C3133 C 0.88027 0.17362 0.28048 0.0
C3134 C 0.83603 0.21809 0.29112 0.0
C3135 C 0.84607 0.2386 0.28253 0.0
C3136 C 0.86818 0.19633 0.28129 0.0
C3137 C 0.86777 0.2363 0.27337 0.0
C3138 C 0.90071 0.17044 0.26938 0.0
C3139 C 0.88047 0.13474 0.29097 0.0
N3140 N 0.87759 0.2163 0.27299 0.0
N3141 N 0.87133 0.15495 0.29076 0.0
H3142 H 0.75772 0.08119 0.06387 0.0
H3143 H 0.63362 0.08811 1.00447 0.0
H3144 H 0.74783 0.13125 0.02076 0.0
H3145 H 0.64022 0.05423 0.06336 0.0
H3146 H 0.67569 0.09996 1.007 0.0
H3147 H 0.71547 0.06718 0.06084 0.0
C3148 C 0.7467 0.08894 0.05343 0.0
C3149 C 0.75647 0.10693 0.04192 0.0
C3150 C 0.668 0.08994 0.0194 0.0
C3151 C 0.70788 0.09133 0.03875 0.0
C3152 C 0.64384 0.08306 0.01795 0.0
C3153 C 0.63301 0.07013 0.03378 0.0
C3154 C 0.68189 0.08372 0.03665 0.0
C3155 C 0.64756 0.06426 0.05081 0.0
C3156 C 0.72254 0.08111 0.05189 0.0
C3157 C 0.74117 0.11698 0.02946 0.0
N3158 N 0.6711 0.07098 0.05173 0.0
N3159 N 0.71785 0.10893 0.02801 0.0
H3160 H 0.21035 0.49419 0.26494 0.0
H3161 H 0.31443 0.46919 0.34379 0.0
H3162 H 0.26235 0.54792 0.30789 0.0
H3163 H 0.26459 0.41467 0.29927 0.0
H3164 H 0.29256 0.49804 0.33421 0.0
H3165 H 0.22693 0.46443 0.28075 0.0
C3166 C 0.22507 0.49974 0.27782 0.0
C3167 C 0.23516 0.52357 0.28484 0.0
C3168 C 0.28628 0.47973 0.32669 0.0
C3169 C 0.25417 0.48973 0.30293 0.0
C3170 C 0.29881 0.46329 0.33211 0.0
C3171 C 0.29141 0.43955 0.3222 0.0
C3172 C 0.2663 0.47241 0.31108 0.0
C3173 C 0.27084 0.4328 0.30744 0.0
C3174 C 0.23455 0.48277 0.28681 0.0
C3175 C 0.25418 0.52976 0.30166 0.0
N3176 N 0.25911 0.44918 0.30214 0.0
N3177 N 0.26313 0.51297 0.30998 0.0
H3178 H 0.25843 0.39137 0.0329 0.0
H3179 H 0.19739 0.50089 0.06898 0.0
H3180 H 0.2924 0.45864 0.07231 0.0
H3181 H 0.16366 0.43815 0.02144 0.0
H3182 H 0.23028 0.48259 0.07534 0.0
H3183 H 0.22146 0.40493 0.03372 0.0
C3184 C 0.25798 0.40873 0.04222 0.0
C3185 C 0.27844 0.42398 0.05248 0.0
C3186 C 0.21567 0.47271 0.06359 0.0
C3187 C 0.2366 0.43964 0.0533 0.0
C3188 C 0.19691 0.48323 0.05986 0.0
C3189 C 0.17787 0.47119 0.04439 0.0
C3190 C 0.2156 0.44995 0.05167 0.0
C3191 C 0.17799 0.44809 0.03351 0.0
C3192 C 0.23698 0.41654 0.04251 0.0
C3193 C 0.27706 0.4464 0.06403 0.0
N3194 N 0.19668 0.43829 0.03716 0.0
N3195 N 0.2566 0.45357 0.06401 0.0
H3196 H 0.93381 0.98969 0.28869 0.0
H3197 H 0.81611 0.88717 0.26212 0.0
H3198 H 0.87172 0.99959 0.25363 0.0
H3199 H 0.88156 0.87409 0.28628 0.0
H3200 H 0.83494 0.92792 0.26094 0.0
H3201 H 0.91483 0.94896 0.28976 0.0
C3202 C 0.91606 0.98363 0.28139 0.0
C3203 C 0.90451 0.99945 0.27191 0.0
C3204 C 0.84535 0.91627 0.26648 0.0
C3205 C 0.88192 0.95073 0.27266 0.0
C3206 C 0.83445 0.89256 0.2672 0.0
C3207 C 0.84678 0.87601 0.27425 0.0
C3208 C 0.86928 0.9247 0.27305 0.0
C3209 C 0.87077 0.88533 0.28058 0.0
C3210 C 0.90509 0.95994 0.28198 0.0
C3211 C 0.88153 0.98917 0.26214 0.0
N3212 N 0.88086 0.90844 0.2799 0.0
N3213 N 0.87124 0.96614 0.26296 0.0
H3214 H 0.74589 0.11051 0.71727 0.0
H3215 H 0.75203 0.24696 0.74637 0.0
H3216 H 0.69271 0.14348 0.74706 0.0
H3217 H 0.80858 0.2151 0.72375 0.0
H3218 H 0.72562 0.20915 0.73402 0.0
H3219 H 0.76409 0.14783 0.70705 0.0
C3220 C 0.73807 0.12569 0.72153 0.0
C3221 C 0.71868 0.12458 0.73415 0.0
C3222 C 0.74367 0.21048 0.73108 0.0
C3223 C 0.73886 0.16686 0.72225 0.0
C3224 C 0.75866 0.23204 0.73805 0.0
C3225 C 0.78231 0.2338 0.7361 0.0
C3226 C 0.7526 0.19057 0.72262 0.0
C3227 C 0.79034 0.21419 0.72547 0.0
C3228 C 0.74823 0.14684 0.71547 0.0
C3229 C 0.70827 0.14409 0.73815 0.0
N3230 N 0.77552 0.19318 0.71944 0.0
N3231 N 0.71883 0.16467 0.73275 0.0
loop_
_geom_bond_atom_site_label_1
_geom_bond_atom_site_label_2
_geom_bond_distance
_geom_bond_site_symmetry_2
_ccdc_geom_bond_type
Mn0 O5 2.095 . S
Mn0 O15 2.162 . S
Mn0 O16 2.297 . S
Mn0 O24 2.385 . S
Mn0 O25 2.209 . S
Mn0 O26 2.094 . S
Mn1 O6 2.121 . S
Mn1 N8 2.257 . S
Mn1 N17 2.282 . S
Mn1 O25 2.215 . S
Mn1 O27 2.117 . S
C2 O24 1.234 . S
C2 O25 1.283 . S
C3 O15 1.281 . S
C3 O16 1.236 . S
C4 O26 1.240 . S
C4 O27 1.264 . S
O5 Mn0 2.095 . S
O5 C14 1.250 . S
O6 Mn1 2.121 . S
O6 C14 1.258 . S
C7 N8 1.326 . S
C7 C11 1.460 . S
C7 H13 0.929 . S
N8 Mn1 2.257 . S
N8 C7 1.326 . S
N8 C12 1.362 . S
C9 C10 1.258 . S
C9 C12 1.431 . S
C9 C29 1.449 . S
C10 C9 1.258 . S
C10 C11 1.477 . S
C10 H30 0.931 . S
C11 C7 1.460 . S
C11 C10 1.477 . S
C11 H31 0.930 . S
C12 N8 1.362 . S
C12 C9 1.431 . S
C12 C22 1.476 . S
H13 C7 0.929 . S
C14 O5 1.250 . S
C14 O6 1.258 . S
O15 Mn0 2.162 . S
O15 C3 1.281 . S
O16 Mn0 2.297 . S
O16 C3 1.236 . S
N17 Mn1 2.282 . S
N17 C18 1.328 . S
N17 C22 1.318 . S
C18 N17 1.328 . S
C18 C19 1.457 . S
C18 H23 0.929 . S
C19 C18 1.457 . S
C19 C20 1.291 . S
C19 H32 0.931 . S
C20 C19 1.291 . S
C20 C21 1.373 . S
C20 H33 0.929 . S
C21 C20 1.373 . S
C21 C22 1.396 . S
C21 C28 1.403 . S
C22 C12 1.476 . S
C22 N17 1.318 . S
C22 C21 1.396 . S
H23 C18 0.929 . S
O24 Mn0 2.385 . S
O24 C2 1.234 . S
O25 Mn0 2.209 . S
O25 Mn1 2.215 . S
O25 C2 1.283 . S
O26 Mn0 2.094 . S
O26 C4 1.240 . S
O27 Mn1 2.117 . S
O27 C4 1.264 . S
C28 C21 1.403 . S
C28 C29 1.399 . S
C28 H34 0.929 . S
C29 C9 1.449 . S
C29 C28 1.399 . S
C29 H35 0.930 . S
H30 C10 0.931 . S
H31 C11 0.930 . S
H32 C19 0.931 . S
H33 C20 0.929 . S
H34 C28 0.929 . S
H35 C29 0.930 . S
Mn36 O41 2.074 1_455 S
Mn36 O51 2.163 1_455 S
Mn36 O52 2.299 1_455 S
Mn36 O60 2.407 . S
Mn36 O61 2.218 . S
Mn36 O62 2.092 . S
Mn37 O42 2.121 1_455 S
Mn37 N44 2.257 . S
Mn37 N53 2.282 . S
Mn37 O61 2.215 . S
Mn37 O63 2.117 . S
C38 O60 1.234 . S
C38 O61 1.283 . S
C39 O51 1.281 . S
C39 O52 1.236 . S
C40 O62 1.240 . S
C40 O63 1.264 . S
O41 Mn36 2.074 1_655 S
O41 C50 1.250 . S
O42 Mn37 2.121 1_655 S
O42 C50 1.258 . S
C43 N44 1.326 . S
C43 C47 1.460 . S
C43 H49 0.929 1_455 S
N44 Mn37 2.257 . S
N44 C43 1.326 . S
N44 C48 1.362 . S
C45 C46 1.258 . S
C45 C48 1.431 . S
C45 C65 1.449 . S
C46 C45 1.258 . S
C46 C47 1.477 . S
C46 H66 0.931 . S
C47 C43 1.460 . S
C47 C46 1.477 . S
C47 H67 0.930 . S
C48 N44 1.362 . S
C48 C45 1.431 . S
C48 C58 1.476 . S
H49 C43 0.929 1_655 S
C50 O41 1.250 . S
C50 O42 1.258 . S
O51 Mn36 2.163 1_655 S
O51 C39 1.281 . S
O52 Mn36 2.299 1_655 S
O52 C39 1.236 . S
N53 Mn37 2.282 . S
N53 C54 1.328 . S
N53 C58 1.318 . S
C54 N53 1.328 . S
C54 C55 1.457 . S
C54 H59 0.929 . S
C55 C54 1.457 . S
C55 C56 1.291 . S
C55 H68 0.931 . S
C56 C55 1.291 . S
C56 C57 1.373 . S
C56 H69 0.929 . S
C57 C56 1.373 . S
C57 C58 1.396 . S
C57 C64 1.403 . S
C58 C48 1.476 . S
C58 N53 1.318 . S
C58 C57 1.396 . S
H59 C54 0.929 . S
O60 Mn36 2.407 . S
O60 C38 1.234 . S
O61 Mn36 2.218 . S
O61 Mn37 2.215 . S
O61 C38 1.283 . S
O62 Mn36 2.092 . S
O62 C40 1.240 . S
O63 Mn37 2.117 . S
O63 C40 1.264 . S
C64 C57 1.403 . S
C64 C65 1.399 . S
C64 H70 0.929 . S
C65 C45 1.449 . S
C65 C64 1.399 . S
C65 H71 0.930 . S
H66 C46 0.931 . S
H67 C47 0.930 . S
H68 C55 0.931 . S
H69 C56 0.929 . S
H70 C64 0.929 . S
H71 C65 0.930 . S
Mn72 O77 2.095 . S
Mn72 O87 2.162 . S
Mn72 O88 2.297 . S
Mn72 O96 2.385 . S
Mn72 O97 2.209 . S
Mn72 O98 2.094 . S
Mn73 O78 2.121 . S
Mn73 N80 2.257 . S
Mn73 N89 2.282 . S
Mn73 O97 2.215 . S
Mn73 O99 2.117 . S
C74 O96 1.234 . S
C74 O97 1.283 . S
C75 O87 1.281 . S
C75 O88 1.236 . S
C76 O98 1.240 . S
C76 O99 1.264 . S
O77 Mn72 2.095 . S
O77 C86 1.250 . S
O78 Mn73 2.121 . S
O78 C86 1.258 . S
C79 N80 1.326 . S
C79 C83 1.460 . S
C79 H85 0.929 . S
N80 Mn73 2.257 . S
N80 C79 1.326 . S
N80 C84 1.362 . S
C81 C82 1.258 . S
C81 C84 1.431 . S
C81 C101 1.449 . S
C82 C81 1.258 . S
C82 C83 1.477 . S
C82 H102 0.931 . S
C83 C79 1.460 . S
C83 C82 1.477 . S
C83 H103 0.930 . S
C84 N80 1.362 . S
C84 C81 1.431 . S
C84 C94 1.476 . S
H85 C79 0.929 . S
C86 O77 1.250 . S
C86 O78 1.258 . S
O87 Mn72 2.162 . S
O87 C75 1.281 . S
O88 Mn72 2.297 . S
O88 C75 1.236 . S
N89 Mn73 2.282 . S
N89 C90 1.328 . S
N89 C94 1.318 . S
C90 N89 1.328 . S
C90 C91 1.457 . S
C90 H95 0.929 . S
C91 C90 1.457 . S
C91 C92 1.291 . S
C91 H104 0.931 . S
C92 C91 1.291 . S
C92 C93 1.373 . S
C92 H105 0.929 . S
C93 C92 1.373 . S
C93 C94 1.396 . S
C93 C100 1.403 . S
C94 C84 1.476 . S
C94 N89 1.318 . S
C94 C93 1.396 . S
H95 C90 0.929 . S
O96 Mn72 2.385 . S
O96 C74 1.234 . S
O97 Mn72 2.209 . S
O97 Mn73 2.215 . S
O97 C74 1.283 . S
O98 Mn72 2.094 . S
O98 C76 1.240 . S
O99 Mn73 2.117 . S
O99 C76 1.264 . S
C100 C93 1.403 . S
C100 C101 1.399 . S
C100 H106 0.929 . S
C101 C81 1.449 . S
C101 C100 1.399 . S
C101 H107 0.930 . S
H102 C82 0.931 . S
H103 C83 0.930 . S
H104 C91 0.931 . S
H105 C92 0.929 . S
H106 C100 0.929 . S
H107 C101 0.930 . S
Mn108 O113 2.095 . S
Mn108 O123 2.162 . S
Mn108 O124 2.297 . S
Mn108 O132 2.385 . S
Mn108 O133 2.209 . S
Mn108 O134 2.094 . S
Mn109 O114 2.121 . S
Mn109 N116 2.257 . S
Mn109 N125 2.282 . S
Mn109 O133 2.215 . S
Mn109 O135 2.117 . S
C110 O132 1.234 . S
C110 O133 1.283 . S
C111 O123 1.281 . S
C111 O124 1.236 . S
C112 O134 1.240 . S
C112 O135 1.264 . S
O113 Mn108 2.095 . S
O113 C122 1.250 . S
O114 Mn109 2.121 . S
O114 C122 1.258 . S
C115 N116 1.326 . S
C115 C119 1.460 . S
C115 H121 0.929 . S
N116 Mn109 2.257 . S
N116 C115 1.326 . S
N116 C120 1.362 . S
C117 C118 1.258 . S
C117 C120 1.431 . S
C117 C137 1.449 . S
C118 C117 1.258 . S
C118 C119 1.477 . S
C118 H138 0.931 . S
C119 C115 1.460 . S
C119 C118 1.477 . S
C119 H139 0.930 . S
C120 N116 1.362 . S
C120 C117 1.431 . S
C120 C130 1.476 . S
H121 C115 0.929 . S
C122 O113 1.250 . S
C122 O114 1.258 . S
O123 Mn108 2.162 . S
O123 C111 1.281 . S
O124 Mn108 2.297 . S
O124 C111 1.236 . S
N125 Mn109 2.282 . S
N125 C126 1.328 . S
N125 C130 1.318 . S
C126 N125 1.328 . S
C126 C127 1.457 . S
C126 H131 0.929 . S
C127 C126 1.457 . S
C127 C128 1.291 . S
C127 H140 0.931 . S
C128 C127 1.291 . S
C128 C129 1.373 . S
C128 H141 0.929 . S
C129 C128 1.373 . S
C129 C130 1.396 . S
C129 C136 1.403 . S
C130 C120 1.476 . S
C130 N125 1.318 . S
C130 C129 1.396 . S
H131 C126 0.929 . S
O132 Mn108 2.385 . S
O132 C110 1.234 . S
O133 Mn108 2.209 . S
O133 Mn109 2.215 . S
O133 C110 1.283 . S
O134 Mn108 2.094 . S
O134 C112 1.240 . S
O135 Mn109 2.117 . S
O135 C112 1.264 . S
C136 C129 1.403 . S
C136 C137 1.399 . S
C136 H142 0.929 . S
C137 C117 1.449 . S
C137 C136 1.399 . S
C137 H143 0.930 . S
H138 C118 0.931 . S
H139 C119 0.930 . S
H140 C127 0.931 . S
H141 C128 0.929 . S
H142 C136 0.929 . S
H143 C137 0.930 . S
Mn144 O149 2.095 . S
Mn144 O159 2.162 . S
Mn144 O160 2.297 . S
Mn144 O168 2.385 . S
Mn144 O169 2.209 . S
Mn144 O170 2.094 . S
Mn145 O150 2.121 . S
Mn145 N152 2.257 . S
Mn145 N161 2.282 . S
Mn145 O169 2.215 . S
Mn145 O171 2.117 . S
C146 O168 1.234 . S
C146 O169 1.283 . S
C147 O159 1.281 . S
C147 O160 1.236 . S
C148 O170 1.240 . S
C148 O171 1.264 . S
O149 Mn144 2.095 . S
O149 C158 1.250 . S
O150 Mn145 2.121 . S
O150 C158 1.258 . S
C151 N152 1.326 . S
C151 C155 1.460 . S
C151 H157 0.929 . S
N152 Mn145 2.257 . S
N152 C151 1.326 . S
N152 C156 1.362 . S
C153 C154 1.258 . S
C153 C156 1.431 . S
C153 C173 1.449 . S
C154 C153 1.258 . S
C154 C155 1.477 . S
C154 H174 0.931 1_554 S
C155 C151 1.460 . S
C155 C154 1.477 . S
C155 H175 0.930 . S
C156 N152 1.362 . S
C156 C153 1.431 . S
C156 C166 1.476 . S
H157 C151 0.929 . S
C158 O149 1.250 . S
C158 O150 1.258 . S
O159 Mn144 2.162 . S
O159 C147 1.281 . S
O160 Mn144 2.297 . S
O160 C147 1.236 . S
N161 Mn145 2.282 . S
N161 C162 1.328 . S
N161 C166 1.318 . S
C162 N161 1.328 . S
C162 C163 1.457 . S
C162 H167 0.929 . S
C163 C162 1.457 . S
C163 C164 1.291 . S
C163 H176 0.931 1_455 S
C164 C163 1.291 . S
C164 C165 1.373 . S
C164 H177 0.929 1_455 S
C165 C164 1.373 . S
C165 C166 1.396 . S
C165 C172 1.403 . S
C166 C156 1.476 . S
C166 N161 1.318 . S
C166 C165 1.396 . S
H167 C162 0.929 . S
O168 Mn144 2.385 . S
O168 C146 1.234 . S
O169 Mn144 2.209 . S
O169 Mn145 2.215 . S
O169 C146 1.283 . S
O170 Mn144 2.094 . S
O170 C148 1.240 . S
O171 Mn145 2.117 . S
O171 C148 1.264 . S
C172 C165 1.403 . S
C172 C173 1.399 . S
C172 H178 0.929 . S
C173 C153 1.449 . S
C173 C172 1.399 . S
C173 H179 0.900 1_554 S
H174 C154 0.931 1_556 S
H175 C155 0.930 . S
H176 C163 0.931 1_655 S
H177 C164 0.929 1_655 S
H178 C172 0.929 . S
H179 C173 0.900 1_556 S
Mn180 O185 2.095 . S
Mn180 O195 2.162 . S
Mn180 O196 2.297 . S
Mn180 O204 2.385 . S
Mn180 O205 2.209 . S
Mn180 O206 2.094 . S
Mn181 O186 2.121 . S
Mn181 N188 2.257 . S
Mn181 N197 2.282 . S
Mn181 O205 2.215 . S
Mn181 O207 2.117 . S
C182 O204 1.234 . S
C182 O205 1.283 . S
C183 O195 1.281 . S
C183 O196 1.236 . S
C184 O206 1.240 . S
C184 O207 1.264 . S
O185 Mn180 2.095 . S
O185 C194 1.250 . S
O186 Mn181 2.121 . S
O186 C194 1.258 . S
C187 N188 1.326 . S
C187 C191 1.460 . S
C187 H193 0.929 . S
N188 Mn181 2.257 . S
N188 C187 1.326 . S
N188 C192 1.362 . S
C189 C190 1.258 . S
C189 C192 1.431 . S
C189 C209 1.449 . S
C190 C189 1.258 . S
C190 C191 1.477 . S
C190 H210 0.931 . S
C191 C187 1.460 . S
C191 C190 1.477 . S
C191 H211 0.930 . S
C192 N188 1.362 . S
C192 C189 1.431 . S
C192 C202 1.476 . S
H193 C187 0.929 . S
C194 O185 1.250 . S
C194 O186 1.258 . S
O195 Mn180 2.162 . S
O195 C183 1.281 . S
O196 Mn180 2.297 . S
O196 C183 1.236 . S
N197 Mn181 2.282 . S
N197 C198 1.328 . S
N197 C202 1.318 . S
C198 N197 1.328 . S
C198 C199 1.457 . S
C198 H203 0.929 . S
C199 C198 1.457 . S
C199 C200 1.291 . S
C199 H212 0.931 . S
C200 C199 1.291 . S
C200 C201 1.373 . S
C200 H213 0.929 . S
C201 C200 1.373 . S
C201 C202 1.396 . S
C201 C208 1.403 . S
C202 C192 1.476 . S
C202 N197 1.318 . S
C202 C201 1.396 . S
H203 C198 0.929 . S
O204 Mn180 2.385 . S
O204 C182 1.234 . S
O205 Mn180 2.209 . S
O205 Mn181 2.215 . S
O205 C182 1.283 . S
O206 Mn180 2.094 . S
O206 C184 1.240 . S
O207 Mn181 2.117 . S
O207 C184 1.264 . S
C208 C201 1.403 . S
C208 C209 1.399 . S
C208 H214 0.929 . S
C209 C189 1.449 . S
C209 C208 1.399 . S
C209 H215 0.930 . S
H210 C190 0.931 . S
H211 C191 0.930 . S
H212 C199 0.931 . S
H213 C200 0.929 . S
H214 C208 0.929 . S
H215 C209 0.930 . S
Mn216 O221 2.095 . S
Mn216 O231 2.162 . S
Mn216 O232 2.297 . S
Mn216 O240 2.385 . S
Mn216 O241 2.209 . S
Mn216 O242 2.094 . S
Mn217 O222 2.121 . S
Mn217 N224 2.257 . S
Mn217 N233 2.282 . S
Mn217 O241 2.215 . S
Mn217 O243 2.117 . S
C218 O240 1.234 . S
C218 O241 1.283 . S
C219 O231 1.281 . S
C219 O232 1.236 . S
C220 O242 1.240 . S
C220 O243 1.264 . S
O221 Mn216 2.095 . S
O221 C230 1.250 . S
O222 Mn217 2.121 . S
O222 C230 1.258 . S
C223 N224 1.326 . S
C223 C227 1.460 . S
C223 H229 0.929 . S
N224 Mn217 2.257 . S
N224 C223 1.326 . S
N224 C228 1.362 . S
C225 C226 1.258 . S
C225 C228 1.431 . S
C225 C245 1.449 . S
C226 C225 1.258 . S
C226 C227 1.477 . S
C226 H246 0.931 . S
C227 C223 1.460 . S
C227 C226 1.477 . S
C227 H247 0.930 . S
C228 N224 1.362 . S
C228 C225 1.431 . S
C228 C238 1.476 . S
H229 C223 0.929 . S
C230 O221 1.250 . S
C230 O222 1.258 . S
O231 Mn216 2.162 . S
O231 C219 1.281 . S
O232 Mn216 2.297 . S
O232 C219 1.236 . S
N233 Mn217 2.282 . S
N233 C234 1.328 . S
N233 C238 1.318 . S
C234 N233 1.328 . S
C234 C235 1.457 . S
C234 H239 0.929 . S
C235 C234 1.457 . S
C235 C236 1.291 . S
C235 H248 0.931 . S
C236 C235 1.291 . S
C236 C237 1.373 . S
C236 H249 0.929 . S
C237 C236 1.373 . S
C237 C238 1.396 . S
C237 C244 1.403 . S
C238 C228 1.476 . S
C238 N233 1.318 . S
C238 C237 1.396 . S
H239 C234 0.929 . S
O240 Mn216 2.385 . S
O240 C218 1.234 . S
O241 Mn216 2.209 . S
O241 Mn217 2.215 . S
O241 C218 1.283 . S
O242 Mn216 2.094 . S
O242 C220 1.240 . S
O243 Mn217 2.117 . S
O243 C220 1.264 . S
C244 C237 1.403 . S
C244 C245 1.399 . S
C244 H250 0.929 . S
C245 C225 1.449 . S
C245 C244 1.399 . S
C245 H251 0.930 . S
H246 C226 0.931 . S
H247 C227 0.930 . S
H248 C235 0.931 . S
H249 C236 0.929 . S
H250 C244 0.929 . S
H251 C245 0.930 . S
Mn252 O257 2.095 . S
Mn252 O267 2.162 . S
Mn252 O268 2.297 . S
Mn252 O276 2.385 1_455 S
Mn252 O277 2.209 1_455 S
Mn252 O278 2.094 . S
Mn253 O258 2.121 . S
Mn253 N260 2.257 . S
Mn253 N269 2.282 1_455 S
Mn253 O277 2.215 1_455 S
Mn253 O279 2.117 . S
C254 O276 1.234 . S
C254 O277 1.283 . S
C255 O267 1.281 . S
C255 O268 1.236 . S
C256 O278 1.240 . S
C256 O279 1.264 . S
O257 Mn252 2.095 . S
O257 C266 1.250 . S
O258 Mn253 2.121 . S
O258 C266 1.258 . S
C259 N260 1.326 . S
C259 C263 1.460 . S
C259 H265 0.929 . S
N260 Mn253 2.257 . S
N260 C259 1.326 . S
N260 C264 1.362 1_455 S
C261 C262 1.258 . S
C261 C264 1.431 . S
C261 C281 1.449 . S
C262 C261 1.258 . S
C262 C263 1.477 1_655 S
C262 H282 0.931 . S
C263 C259 1.460 . S
C263 C262 1.477 1_455 S
C263 H283 0.930 . S
C264 N260 1.362 1_655 S
C264 C261 1.431 . S
C264 C274 1.476 . S
H265 C259 0.929 . S
C266 O257 1.250 . S
C266 O258 1.258 . S
O267 Mn252 2.162 . S
O267 C255 1.281 . S
O268 Mn252 2.297 . S
O268 C255 1.236 . S
N269 Mn253 2.282 1_655 S
N269 C270 1.328 . S
N269 C274 1.318 . S
C270 N269 1.328 . S
C270 C271 1.457 . S
C270 H275 0.929 . S
C271 C270 1.457 . S
C271 C272 1.291 . S
C271 H284 0.931 . S
C272 C271 1.291 . S
C272 C273 1.373 . S
C272 H285 0.929 . S
C273 C272 1.373 . S
C273 C274 1.396 . S
C273 C280 1.403 . S
C274 C264 1.476 . S
C274 N269 1.318 . S
C274 C273 1.396 . S
H275 C270 0.929 . S
O276 Mn252 2.385 1_655 S
O276 C254 1.234 . S
O277 Mn252 2.209 1_655 S
O277 Mn253 2.215 1_655 S
O277 C254 1.283 . S
O278 Mn252 2.094 . S
O278 C256 1.240 . S
O279 Mn253 2.117 . S
O279 C256 1.264 . S
C280 C273 1.403 . S
C280 C281 1.399 . S
C280 H286 0.929 . S
C281 C261 1.449 . S
C281 C280 1.399 . S
C281 H287 0.930 . S
H282 C262 0.931 . S
H283 C263 0.930 . S
H284 C271 0.931 . S
H285 C272 0.929 . S
H286 C280 0.929 . S
H287 C281 0.930 . S
Mn288 O293 2.095 . S
Mn288 O303 2.162 . S
Mn288 O304 2.298 1_545 S
Mn288 O312 2.385 1_545 S
Mn288 O313 2.209 1_545 S
Mn288 O314 2.094 . S
Mn289 O294 2.121 1_565 S
Mn289 N296 2.257 . S
Mn289 N305 2.282 . S
Mn289 O313 2.215 . S
Mn289 O315 2.117 1_565 S
C290 O312 1.234 . S
C290 O313 1.283 . S
C291 O303 1.281 . S
C291 O304 1.235 1_545 S
C292 O314 1.240 . S
C292 O315 1.264 . S
O293 Mn288 2.095 . S
O293 C302 1.250 . S
O294 Mn289 2.121 1_545 S
O294 C302 1.258 . S
C295 N296 1.326 . S
C295 C299 1.460 . S
C295 H301 0.929 1_565 S
N296 Mn289 2.257 . S
N296 C295 1.326 . S
N296 C300 1.362 . S
C297 C298 1.258 . S
C297 C300 1.431 . S
C297 C317 1.449 . S
C298 C297 1.258 . S
C298 C299 1.477 . S
C298 H318 0.931 . S
C299 C295 1.460 . S
C299 C298 1.477 . S
C299 H319 0.930 . S
C300 N296 1.362 . S
C300 C297 1.431 . S
C300 C310 1.476 . S
H301 C295 0.929 1_545 S
C302 O293 1.250 . S
C302 O294 1.258 . S
O303 Mn288 2.162 . S
O303 C291 1.281 . S
O304 Mn288 2.298 1_565 S
O304 C291 1.235 1_565 S
N305 Mn289 2.282 . S
N305 C306 1.328 . S
N305 C310 1.318 . S
C306 N305 1.328 . S
C306 C307 1.457 . S
C306 H311 0.929 . S
C307 C306 1.457 . S
C307 C308 1.291 . S
C307 H320 0.931 . S
C308 C307 1.291 . S
C308 C309 1.373 . S
C308 H321 0.929 . S
C309 C308 1.373 . S
C309 C310 1.396 . S
C309 C316 1.403 . S
C310 C300 1.476 . S
C310 N305 1.318 . S
C310 C309 1.396 . S
H311 C306 0.929 . S
O312 Mn288 2.385 1_565 S
O312 C290 1.234 . S
O313 Mn288 2.209 1_565 S
O313 Mn289 2.215 . S
O313 C290 1.283 . S
O314 Mn288 2.094 . S
O314 C292 1.240 . S
O315 Mn289 2.117 1_545 S
O315 C292 1.264 . S
C316 C309 1.403 . S
C316 C317 1.399 . S
C316 H322 0.929 . S
C317 C297 1.449 . S
C317 C316 1.399 . S
C317 H323 0.930 . S
H318 C298 0.931 . S
H319 C299 0.930 . S
H320 C307 0.931 . S
H321 C308 0.929 . S
H322 C316 0.929 . S
H323 C317 0.930 . S
Mn324 O329 2.095 . S
Mn324 O339 2.162 . S
Mn324 O340 2.297 . S
Mn324 O348 2.385 . S
Mn324 O349 2.209 . S
Mn324 O350 2.094 . S
Mn325 O330 2.121 . S
Mn325 N332 2.257 . S
Mn325 N341 2.282 . S
Mn325 O349 2.215 . S
Mn325 O351 2.117 . S
C326 O348 1.234 . S
C326 O349 1.283 . S
C327 O339 1.281 . S
C327 O340 1.236 . S
C328 O350 1.240 . S
C328 O351 1.264 . S
O329 Mn324 2.095 . S
O329 C338 1.250 . S
O330 Mn325 2.121 . S
O330 C338 1.258 . S
C331 N332 1.326 . S
C331 C335 1.460 . S
C331 H337 0.929 . S
N332 Mn325 2.257 . S
N332 C331 1.326 . S
N332 C336 1.362 . S
C333 C334 1.258 . S
C333 C336 1.431 . S
C333 C353 1.449 . S
C334 C333 1.258 . S
C334 C335 1.477 . S
C334 H354 0.931 . S
C335 C331 1.460 . S
C335 C334 1.477 . S
C335 H355 0.930 . S
C336 N332 1.362 . S
C336 C333 1.431 . S
C336 C346 1.476 . S
H337 C331 0.929 . S
C338 O329 1.250 . S
C338 O330 1.258 . S
O339 Mn324 2.162 . S
O339 C327 1.281 . S
O340 Mn324 2.297 . S
O340 C327 1.236 . S
N341 Mn325 2.282 . S
N341 C342 1.328 . S
N341 C346 1.318 . S
C342 N341 1.328 . S
C342 C343 1.457 . S
C342 H347 0.929 . S
C343 C342 1.457 . S
C343 C344 1.291 . S
C343 H356 0.931 . S
C344 C343 1.291 . S
C344 C345 1.373 . S
C344 H357 0.929 . S
C345 C344 1.373 . S
C345 C346 1.396 . S
C345 C352 1.403 . S
C346 C336 1.476 . S
C346 N341 1.318 . S
C346 C345 1.396 . S
H347 C342 0.929 . S
O348 Mn324 2.385 . S
O348 C326 1.234 . S
O349 Mn324 2.209 . S
O349 Mn325 2.215 . S
O349 C326 1.283 . S
O350 Mn324 2.094 . S
O350 C328 1.240 . S
O351 Mn325 2.117 . S
O351 C328 1.264 . S
C352 C345 1.403 . S
C352 C353 1.399 . S
C352 H358 0.929 . S
C353 C333 1.449 . S
C353 C352 1.399 . S
C353 H359 0.930 . S
H354 C334 0.931 . S
H355 C335 0.930 . S
H356 C343 0.931 . S
H357 C344 0.929 . S
H358 C352 0.929 . S
H359 C353 0.930 . S
Mn360 O365 2.095 1_545 S
Mn360 O375 2.162 . S
Mn360 O376 2.297 . S
Mn360 O384 2.385 . S
Mn360 O385 2.209 . S
Mn360 O386 2.094 . S
Mn361 O366 2.121 1_545 S
Mn361 N368 2.257 . S
Mn361 N377 2.282 . S
Mn361 O385 2.215 . S
Mn361 O387 2.117 . S
C362 O384 1.234 . S
C362 O385 1.283 . S
C363 O375 1.281 . S
C363 O376 1.236 . S
C364 O386 1.240 . S
C364 O387 1.264 . S
O365 Mn360 2.095 1_565 S
O365 C374 1.250 . S
O366 Mn361 2.121 1_565 S
O366 C374 1.258 . S
C367 N368 1.326 . S
C367 C371 1.460 . S
C367 H373 0.929 . S
N368 Mn361 2.257 . S
N368 C367 1.326 . S
N368 C372 1.362 . S
C369 C370 1.258 . S
C369 C372 1.431 . S
C369 C389 1.449 . S
C370 C369 1.258 . S
C370 C371 1.477 . S
C370 H390 0.931 . S
C371 C367 1.460 . S
C371 C370 1.477 . S
C371 H391 0.930 . S
C372 N368 1.362 . S
C372 C369 1.431 . S
C372 C382 1.476 . S
H373 C367 0.929 . S
C374 O365 1.250 . S
C374 O366 1.258 . S
O375 Mn360 2.162 . S
O375 C363 1.281 . S
O376 Mn360 2.297 . S
O376 C363 1.236 . S
N377 Mn361 2.282 . S
N377 C378 1.328 . S
N377 C382 1.318 . S
C378 N377 1.328 . S
C378 C379 1.457 . S
C378 H383 0.929 . S
C379 C378 1.457 . S
C379 C380 1.291 . S
C379 H392 0.931 . S
C380 C379 1.291 . S
C380 C381 1.373 . S
C380 H393 0.929 . S
C381 C380 1.373 . S
C381 C382 1.396 . S
C381 C388 1.403 . S
C382 C372 1.476 . S
C382 N377 1.318 . S
C382 C381 1.396 . S
H383 C378 0.929 . S
O384 Mn360 2.385 . S
O384 C362 1.234 . S
O385 Mn360 2.209 . S
O385 Mn361 2.215 . S
O385 C362 1.283 . S
O386 Mn360 2.094 . S
O386 C364 1.240 . S
O387 Mn361 2.117 . S
O387 C364 1.264 . S
C388 C381 1.403 . S
C388 C389 1.399 . S
C388 H394 0.929 . S
C389 C369 1.449 . S
C389 C388 1.399 . S
C389 H395 0.930 . S
H390 C370 0.931 . S
H391 C371 0.930 . S
H392 C379 0.931 . S
H393 C380 0.929 . S
H394 C388 0.929 . S
H395 C389 0.930 . S
Mn396 O401 2.095 . S
Mn396 O411 2.162 . S
Mn396 O412 2.297 . S
Mn396 O420 2.385 . S
Mn396 O421 2.209 . S
Mn396 O422 2.094 1_554 S
Mn397 O402 2.121 . S
Mn397 N404 2.257 1_565 S
Mn397 N413 2.282 . S
Mn397 O421 2.215 1_556 S
Mn397 O423 2.117 . S
C398 O420 1.234 . S
C398 O421 1.283 . S
C399 O411 1.281 . S
C399 O412 1.236 . S
C400 O422 1.240 . S
C400 O423 1.264 . S
O401 Mn396 2.095 . S
O401 C410 1.250 . S
O402 Mn397 2.121 . S
O402 C410 1.258 1_556 S
C403 N404 1.345 . S
C403 C407 1.462 1_556 S
C403 H409 0.911 1_556 S
N404 Mn397 2.257 1_545 S
N404 C403 1.345 . S
N404 C408 1.362 . S
C405 C406 1.258 . S
C405 C408 1.431 . S
C405 C425 1.449 . S
C406 C405 1.258 . S
C406 C407 1.477 1_556 S
C406 H426 0.931 . S
C407 C403 1.462 1_554 S
C407 C406 1.477 1_554 S
C407 H427 0.930 . S
C408 N404 1.362 . S
C408 C405 1.431 . S
C408 C418 1.476 1_545 S
H409 C403 0.911 1_554 S
C410 O401 1.250 . S
C410 O402 1.258 1_554 S
O411 Mn396 2.162 . S
O411 C399 1.281 . S
O412 Mn396 2.297 . S
O412 C399 1.236 . S
N413 Mn397 2.282 . S
N413 C414 1.328 . S
N413 C418 1.318 . S
C414 N413 1.328 . S
C414 C415 1.457 . S
C414 H419 0.929 . S
C415 C414 1.457 . S
C415 C416 1.291 . S
C415 H428 0.931 . S
C416 C415 1.291 . S
C416 C417 1.373 1_565 S
C416 H429 0.929 . S
C417 C416 1.373 1_545 S
C417 C418 1.396 1_545 S
C417 C424 1.403 . S
C418 C408 1.476 1_565 S
C418 N413 1.318 . S
C418 C417 1.396 1_565 S
H419 C414 0.929 . S
O420 Mn396 2.385 . S
O420 C398 1.234 . S
O421 Mn396 2.209 . S
O421 Mn397 2.215 1_554 S
O421 C398 1.283 . S
O422 Mn396 2.094 1_556 S
O422 C400 1.240 . S
O423 Mn397 2.117 . S
O423 C400 1.264 . S
C424 C417 1.403 . S
C424 C425 1.399 . S
C424 H430 0.929 . S
C425 C405 1.449 . S
C425 C424 1.399 . S
C425 H431 0.930 . S
H426 C406 0.931 . S
H427 C407 0.930 . S
H428 C415 0.931 . S
H429 C416 0.929 . S
H430 C424 0.929 . S
H431 C425 0.930 . S
Mn432 O437 2.095 . S
Mn432 O447 2.162 . S
Mn432 O448 2.297 . S
Mn432 O456 2.385 . S
Mn432 O457 2.209 . S
Mn432 O458 2.094 1_554 S
Mn433 O438 2.121 1_556 S
Mn433 N440 2.257 1_556 S
Mn433 N449 2.282 . S
Mn433 O457 2.215 1_556 S
Mn433 O459 2.117 . S
C434 O456 1.234 . S
C434 O457 1.283 . S
C435 O447 1.281 . S
C435 O448 1.236 . S
C436 O458 1.240 . S
C436 O459 1.264 . S
O437 Mn432 2.095 . S
O437 C446 1.250 . S
O438 Mn433 2.121 1_554 S
O438 C446 1.258 . S
C439 N440 1.326 . S
C439 C443 1.460 . S
C439 H445 0.929 . S
N440 Mn433 2.257 1_554 S
N440 C439 1.326 . S
N440 C444 1.362 1_554 S
C441 C442 1.258 1_556 S
C441 C444 1.431 . S
C441 C461 1.449 . S
C442 C441 1.258 1_554 S
C442 C443 1.477 . S
C442 H462 0.931 . S
C443 C439 1.460 . S
C443 C442 1.477 . S
C443 H463 0.930 . S
C444 N440 1.362 1_556 S
C444 C441 1.431 . S
C444 C454 1.476 . S
H445 C439 0.929 . S
C446 O437 1.250 . S
C446 O438 1.258 . S
O447 Mn432 2.162 . S
O447 C435 1.281 . S
O448 Mn432 2.297 . S
O448 C435 1.236 . S
N449 Mn433 2.282 . S
N449 C450 1.328 . S
N449 C454 1.318 . S
C450 N449 1.328 . S
C450 C451 1.457 . S
C450 H455 0.929 . S
C451 C450 1.457 . S
C451 C452 1.291 . S
C451 H464 0.931 . S
C452 C451 1.291 . S
C452 C453 1.373 . S
C452 H465 0.929 . S
C453 C452 1.373 . S
C453 C454 1.396 . S
C453 C460 1.403 . S
C454 C444 1.476 . S
C454 N449 1.318 . S
C454 C453 1.396 . S
H455 C450 0.929 . S
O456 Mn432 2.385 . S
O456 C434 1.234 . S
O457 Mn432 2.209 . S
O457 Mn433 2.215 1_554 S
O457 C434 1.283 . S
O458 Mn432 2.094 1_556 S
O458 C436 1.240 . S
O459 Mn433 2.117 . S
O459 C436 1.264 . S
C460 C453 1.403 . S
C460 C461 1.399 . S
C460 H466 0.929 . S
C461 C441 1.449 . S
C461 C460 1.399 . S
C461 H467 0.930 . S
H462 C442 0.931 . S
H463 C443 0.930 . S
H464 C451 0.931 . S
H465 C452 0.929 . S
H466 C460 0.929 . S
H467 C461 0.930 . S
Mn468 O473 2.095 . S
Mn468 O483 2.162 . S
Mn468 O484 2.297 . S
Mn468 O492 2.385 . S
Mn468 O493 2.209 . S
Mn468 O494 2.094 . S
Mn469 O474 2.121 1_556 S
Mn469 N476 2.257 . S
Mn469 N485 2.282 . S
Mn469 O493 2.215 1_556 S
Mn469 O495 2.117 . S
C470 O492 1.234 . S
C470 O493 1.283 . S
C471 O483 1.281 . S
C471 O484 1.236 . S
C472 O494 1.240 1_556 S
C472 O495 1.264 . S
O473 Mn468 2.095 . S
O473 C482 1.250 . S
O474 Mn469 2.121 1_554 S
O474 C482 1.258 . S
C475 N476 1.326 . S
C475 C479 1.460 . S
C475 H481 0.929 1_556 S
N476 Mn469 2.257 . S
N476 C475 1.326 . S
N476 C480 1.362 . S
C477 C478 1.258 . S
C477 C480 1.431 . S
C477 C497 1.449 . S
C478 C477 1.258 . S
C478 C479 1.477 . S
C478 H498 0.931 1_545 S
C479 C475 1.460 . S
C479 C478 1.477 . S
C479 H499 0.930 . S
C480 N476 1.362 . S
C480 C477 1.431 . S
C480 C490 1.476 . S
H481 C475 0.929 1_554 S
C482 O473 1.250 . S
C482 O474 1.258 . S
O483 Mn468 2.162 . S
O483 C471 1.281 . S
O484 Mn468 2.297 . S
O484 C471 1.236 . S
N485 Mn469 2.282 . S
N485 C486 1.328 . S
N485 C490 1.318 . S
C486 N485 1.328 . S
C486 C487 1.457 . S
C486 H491 0.929 . S
C487 C486 1.457 . S
C487 C488 1.291 . S
C487 H500 0.931 . S
C488 C487 1.291 . S
C488 C489 1.373 . S
C488 H501 0.929 . S
C489 C488 1.373 . S
C489 C490 1.396 . S
C489 C496 1.403 . S
C490 C480 1.476 . S
C490 N485 1.318 . S
C490 C489 1.396 . S
H491 C486 0.929 . S
O492 Mn468 2.385 . S
O492 C470 1.234 . S
O493 Mn468 2.209 . S
O493 Mn469 2.215 1_554 S
O493 C470 1.283 . S
O494 Mn468 2.094 . S
O494 C472 1.240 1_554 S
O495 Mn469 2.117 . S
O495 C472 1.264 . S
C496 C489 1.403 . S
C496 C497 1.399 . S
C496 H502 0.929 . S
C497 C477 1.449 . S
C497 C496 1.399 . S
C497 H503 0.930 1_545 S
H498 C478 0.931 1_565 S
H499 C479 0.930 . S
H500 C487 0.931 . S
H501 C488 0.929 . S
H502 C496 0.929 . S
H503 C497 0.930 1_565 S
Mn504 O509 2.095 . S
Mn504 O519 2.162 . S
Mn504 O520 2.297 . S
Mn504 O528 2.385 . S
Mn504 O529 2.209 . S
Mn504 O530 2.094 . S
Mn505 O510 2.121 . S
Mn505 N512 2.257 . S
Mn505 N521 2.282 . S
Mn505 O529 2.215 . S
Mn505 O531 2.117 . S
C506 O528 1.234 . S
C506 O529 1.283 . S
C507 O519 1.281 . S
C507 O520 1.236 . S
C508 O530 1.240 . S
C508 O531 1.264 . S
O509 Mn504 2.095 . S
O509 C518 1.250 . S
O510 Mn505 2.121 . S
O510 C518 1.258 . S
C511 N512 1.326 . S
C511 C515 1.460 . S
C511 H517 0.929 . S
N512 Mn505 2.257 . S
N512 C511 1.326 . S
N512 C516 1.362 . S
C513 C514 1.258 . S
C513 C516 1.431 . S
C513 C533 1.449 . S
C514 C513 1.258 . S
C514 C515 1.477 . S
C514 H534 0.931 . S
C515 C511 1.460 . S
C515 C514 1.477 . S
C515 H535 0.930 . S
C516 N512 1.362 . S
C516 C513 1.431 . S
C516 C526 1.476 . S
H517 C511 0.929 . S
C518 O509 1.250 . S
C518 O510 1.258 . S
O519 Mn504 2.162 . S
O519 C507 1.281 . S
O520 Mn504 2.297 . S
O520 C507 1.236 . S
N521 Mn505 2.282 . S
N521 C522 1.328 . S
N521 C526 1.318 . S
C522 N521 1.328 . S
C522 C523 1.457 . S
C522 H527 0.929 . S
C523 C522 1.457 . S
C523 C524 1.291 . S
C523 H536 0.931 . S
C524 C523 1.291 . S
C524 C525 1.373 . S
C524 H537 0.929 . S
C525 C524 1.373 . S
C525 C526 1.396 . S
C525 C532 1.403 . S
C526 C516 1.476 . S
C526 N521 1.318 . S
C526 C525 1.396 . S
H527 C522 0.929 . S
O528 Mn504 2.385 . S
O528 C506 1.234 . S
O529 Mn504 2.209 . S
O529 Mn505 2.215 . S
O529 C506 1.283 . S
O530 Mn504 2.094 . S
O530 C508 1.240 . S
O531 Mn505 2.117 . S
O531 C508 1.264 . S
C532 C525 1.403 . S
C532 C533 1.399 . S
C532 H538 0.929 . S
C533 C513 1.449 . S
C533 C532 1.399 . S
C533 H539 0.930 . S
H534 C514 0.931 . S
H535 C515 0.930 . S
H536 C523 0.931 . S
H537 C524 0.929 . S
H538 C532 0.929 . S
H539 C533 0.930 . S
Mn540 O545 2.095 . S
Mn540 O555 2.162 . S
Mn540 O556 2.297 . S
Mn540 O564 2.385 . S
Mn540 O565 2.209 . S
Mn540 O566 2.094 . S
Mn541 O546 2.121 . S
Mn541 N548 2.257 . S
Mn541 N557 2.282 . S
Mn541 O565 2.215 . S
Mn541 O567 2.117 . S
C542 O564 1.234 . S
C542 O565 1.283 . S
C543 O555 1.281 . S
C543 O556 1.236 . S
C544 O566 1.240 . S
C544 O567 1.264 . S
O545 Mn540 2.095 . S
O545 C554 1.250 . S
O546 Mn541 2.121 . S
O546 C554 1.258 . S
C547 N548 1.326 . S
C547 C551 1.460 . S
C547 H553 0.929 . S
N548 Mn541 2.257 . S
N548 C547 1.326 . S
N548 C552 1.362 . S
C549 C550 1.258 . S
C549 C552 1.431 . S
C549 C569 1.449 . S
C550 C549 1.258 . S
C550 C551 1.477 . S
C550 H570 0.931 1_565 S
C551 C547 1.460 . S
C551 C550 1.477 . S
C551 H571 0.930 . S
C552 N548 1.362 . S
C552 C549 1.431 . S
C552 C562 1.476 . S
H553 C547 0.929 . S
C554 O545 1.250 . S
C554 O546 1.258 . S
O555 Mn540 2.162 . S
O555 C543 1.281 . S
O556 Mn540 2.297 . S
O556 C543 1.236 . S
N557 Mn541 2.282 . S
N557 C558 1.328 . S
N557 C562 1.318 . S
C558 N557 1.328 . S
C558 C559 1.457 . S
C558 H563 0.929 . S
C559 C558 1.457 . S
C559 C560 1.291 . S
C559 H572 0.931 . S
C560 C559 1.291 . S
C560 C561 1.373 . S
C560 H573 0.929 . S
C561 C560 1.373 . S
C561 C562 1.396 . S
C561 C568 1.403 . S
C562 C552 1.476 . S
C562 N557 1.318 . S
C562 C561 1.396 . S
H563 C558 0.929 . S
O564 Mn540 2.385 . S
O564 C542 1.234 . S
O565 Mn540 2.209 . S
O565 Mn541 2.215 . S
O565 C542 1.283 . S
O566 Mn540 2.094 . S
O566 C544 1.240 . S
O567 Mn541 2.117 . S
O567 C544 1.264 . S
C568 C561 1.403 . S
C568 C569 1.399 . S
C568 H574 0.929 . S
C569 C549 1.449 . S
C569 C568 1.399 . S
C569 H575 0.930 . S
H570 C550 0.931 1_545 S
H571 C551 0.930 . S
H572 C559 0.931 . S
H573 C560 0.929 . S
H574 C568 0.929 . S
H575 C569 0.930 . S
Mn576 O581 2.095 . S
Mn576 O591 2.162 . S
Mn576 O592 2.297 . S
Mn576 O600 2.385 . S
Mn576 O601 2.209 . S
Mn576 O602 2.094 . S
Mn577 O582 2.121 . S
Mn577 N584 2.257 . S
Mn577 N593 2.282 . S
Mn577 O601 2.215 . S
Mn577 O603 2.117 . S
C578 O600 1.234 . S
C578 O601 1.283 . S
C579 O591 1.281 . S
C579 O592 1.236 . S
C580 O602 1.240 . S
C580 O603 1.264 . S
O581 Mn576 2.095 . S
O581 C590 1.250 . S
O582 Mn577 2.121 . S
O582 C590 1.258 . S
C583 N584 1.326 . S
C583 C587 1.460 . S
C583 H589 0.929 . S
N584 Mn577 2.257 . S
N584 C583 1.326 . S
N584 C588 1.362 . S
C585 C586 1.258 . S
C585 C588 1.431 . S
C585 C605 1.449 1_545 S
C586 C585 1.258 . S
C586 C587 1.477 . S
C586 H606 0.931 . S
C587 C583 1.460 . S
C587 C586 1.477 . S
C587 H607 0.930 . S
C588 N584 1.362 . S
C588 C585 1.431 . S
C588 C598 1.476 . S
H589 C583 0.929 . S
C590 O581 1.250 . S
C590 O582 1.258 . S
O591 Mn576 2.162 . S
O591 C579 1.281 . S
O592 Mn576 2.297 . S
O592 C579 1.236 . S
N593 Mn577 2.282 . S
N593 C594 1.328 . S
N593 C598 1.318 . S
C594 N593 1.328 . S
C594 C595 1.457 1_545 S
C594 H599 0.929 . S
C595 C594 1.457 1_565 S
C595 C596 1.291 . S
C595 H608 0.931 . S
C596 C595 1.291 . S
C596 C597 1.373 . S
C596 H609 0.929 . S
C597 C596 1.373 . S
C597 C598 1.396 1_565 S
C597 C604 1.403 . S
C598 C588 1.476 . S
C598 N593 1.318 . S
C598 C597 1.396 1_545 S
H599 C594 0.929 . S
O600 Mn576 2.385 . S
O600 C578 1.234 . S
O601 Mn576 2.209 . S
O601 Mn577 2.215 . S
O601 C578 1.283 . S
O602 Mn576 2.094 . S
O602 C580 1.240 . S
O603 Mn577 2.117 . S
O603 C580 1.264 . S
C604 C597 1.403 . S
C604 C605 1.399 . S
C604 H610 0.929 . S
C605 C585 1.449 1_565 S
C605 C604 1.399 . S
C605 H611 0.930 . S
H606 C586 0.931 . S
H607 C587 0.930 . S
H608 C595 0.931 . S
H609 C596 0.929 . S
H610 C604 0.929 . S
H611 C605 0.930 . S
Mn612 O617 2.095 . S
Mn612 O627 2.162 . S
Mn612 O628 2.297 . S
Mn612 O636 2.385 . S
Mn612 O637 2.209 . S
Mn612 O638 2.094 . S
Mn613 O618 2.121 . S
Mn613 N620 2.257 . S
Mn613 N629 2.282 . S
Mn613 O637 2.215 . S
Mn613 O639 2.117 . S
C614 O636 1.234 . S
C614 O637 1.283 . S
C615 O627 1.281 . S
C615 O628 1.236 . S
C616 O638 1.240 . S
C616 O639 1.264 . S
O617 Mn612 2.095 . S
O617 C626 1.250 . S
O618 Mn613 2.121 . S
O618 C626 1.258 . S
C619 N620 1.326 . S
C619 C623 1.460 . S
C619 H625 0.929 . S
N620 Mn613 2.257 . S
N620 C619 1.326 . S
N620 C624 1.362 . S
C621 C622 1.258 . S
C621 C624 1.431 . S
C621 C641 1.449 . S
C622 C621 1.258 . S
C622 C623 1.477 . S
C622 H642 0.931 . S
C623 C619 1.460 . S
C623 C622 1.477 . S
C623 H643 0.930 . S
C624 N620 1.362 . S
C624 C621 1.431 . S
C624 C634 1.476 . S
H625 C619 0.929 . S
C626 O617 1.250 . S
C626 O618 1.258 . S
O627 Mn612 2.162 . S
O627 C615 1.281 . S
O628 Mn612 2.297 . S
O628 C615 1.236 . S
N629 Mn613 2.282 . S
N629 C630 1.328 . S
N629 C634 1.318 . S
C630 N629 1.328 . S
C630 C631 1.457 . S
C630 H635 0.929 . S
C631 C630 1.457 . S
C631 C632 1.291 . S
C631 H644 0.931 . S
C632 C631 1.291 . S
C632 C633 1.373 . S
C632 H645 0.929 . S
C633 C632 1.373 . S
C633 C634 1.396 . S
C633 C640 1.403 . S
C634 C624 1.476 . S
C634 N629 1.318 . S
C634 C633 1.396 . S
H635 C630 0.929 . S
O636 Mn612 2.385 . S
O636 C614 1.234 . S
O637 Mn612 2.209 . S
O637 Mn613 2.215 . S
O637 C614 1.283 . S
O638 Mn612 2.094 . S
O638 C616 1.240 . S
O639 Mn613 2.117 . S
O639 C616 1.264 . S
C640 C633 1.403 . S
C640 C641 1.399 . S
C640 H646 0.929 . S
C641 C621 1.449 . S
C641 C640 1.399 . S
C641 H647 0.930 . S
H642 C622 0.931 . S
H643 C623 0.930 . S
H644 C631 0.931 . S
H645 C632 0.929 . S
H646 C640 0.929 . S
H647 C641 0.930 . S
Mn648 O653 2.095 . S
Mn648 O663 2.162 . S
Mn648 O664 2.297 . S
Mn648 O672 2.385 . S
Mn648 O673 2.209 . S
Mn648 O674 2.094 . S
Mn649 O654 2.121 . S
Mn649 N656 2.257 . S
Mn649 N665 2.282 . S
Mn649 O673 2.215 . S
Mn649 O675 2.117 . S
C650 O672 1.234 . S
C650 O673 1.283 . S
C651 O663 1.281 . S
C651 O664 1.236 . S
C652 O674 1.240 . S
C652 O675 1.264 . S
O653 Mn648 2.095 . S
O653 C662 1.250 . S
O654 Mn649 2.121 . S
O654 C662 1.258 . S
C655 N656 1.326 . S
C655 C659 1.460 . S
C655 H661 0.929 . S
N656 Mn649 2.257 . S
N656 C655 1.326 . S
N656 C660 1.362 . S
C657 C658 1.258 . S
C657 C660 1.431 . S
C657 C677 1.449 . S
C658 C657 1.258 . S
C658 C659 1.477 . S
C658 H678 0.931 . S
C659 C655 1.460 . S
C659 C658 1.477 . S
C659 H679 0.930 . S
C660 N656 1.362 . S
C660 C657 1.431 . S
C660 C670 1.476 . S
H661 C655 0.929 . S
C662 O653 1.250 . S
C662 O654 1.258 . S
O663 Mn648 2.162 . S
O663 C651 1.281 . S
O664 Mn648 2.297 . S
O664 C651 1.236 . S
N665 Mn649 2.282 . S
N665 C666 1.328 . S
N665 C670 1.318 . S
C666 N665 1.328 . S
C666 C667 1.457 . S
C666 H671 0.929 . S
C667 C666 1.457 . S
C667 C668 1.291 . S
C667 H680 0.931 . S
C668 C667 1.291 . S
C668 C669 1.373 . S
C668 H681 0.929 . S
C669 C668 1.373 . S
C669 C670 1.396 . S
C669 C676 1.403 . S
C670 C660 1.476 . S
C670 N665 1.318 . S
C670 C669 1.396 . S
H671 C666 0.929 . S
O672 Mn648 2.385 . S
O672 C650 1.234 . S
O673 Mn648 2.209 . S
O673 Mn649 2.215 . S
O673 C650 1.283 . S
O674 Mn648 2.094 . S
O674 C652 1.240 . S
O675 Mn649 2.117 . S
O675 C652 1.264 . S
C676 C669 1.403 . S
C676 C677 1.399 . S
C676 H682 0.929 . S
C677 C657 1.449 . S
C677 C676 1.399 . S
C677 H683 0.930 . S
H678 C658 0.931 . S
H679 C659 0.930 . S
H680 C667 0.931 . S
H681 C668 0.929 . S
H682 C676 0.929 . S
H683 C677 0.930 . S
Mn684 O689 2.095 . S
Mn684 O699 2.162 . S
Mn684 O700 2.297 . S
Mn684 O708 2.385 . S
Mn684 O709 2.209 . S
Mn684 O710 2.094 . S
Mn685 O690 2.121 . S
Mn685 N692 2.257 . S
Mn685 N701 2.282 . S
Mn685 O709 2.215 . S
Mn685 O711 2.117 . S
C686 O708 1.234 . S
C686 O709 1.283 . S
C687 O699 1.281 . S
C687 O700 1.236 . S
C688 O710 1.240 . S
C688 O711 1.264 . S
O689 Mn684 2.095 . S
O689 C698 1.250 . S
O690 Mn685 2.121 . S
O690 C698 1.258 . S
C691 N692 1.326 . S
C691 C695 1.460 . S
C691 H697 0.929 . S
N692 Mn685 2.257 . S
N692 C691 1.326 . S
N692 C696 1.362 . S
C693 C694 1.258 . S
C693 C696 1.431 . S
C693 C713 1.449 . S
C694 C693 1.258 . S
C694 C695 1.477 . S
C694 H714 0.931 . S
C695 C691 1.460 . S
C695 C694 1.477 . S
C695 H715 0.930 . S
C696 N692 1.362 . S
C696 C693 1.431 . S
C696 C706 1.476 . S
H697 C691 0.929 . S
C698 O689 1.250 . S
C698 O690 1.258 . S
O699 Mn684 2.162 . S
O699 C687 1.281 . S
O700 Mn684 2.297 . S
O700 C687 1.236 . S
N701 Mn685 2.282 . S
N701 C702 1.328 . S
N701 C706 1.318 . S
C702 N701 1.328 . S
C702 C703 1.457 . S
C702 H707 0.929 . S
C703 C702 1.457 . S
C703 C704 1.291 . S
C703 H716 0.931 . S
C704 C703 1.291 . S
C704 C705 1.373 . S
C704 H717 0.929 . S
C705 C704 1.373 . S
C705 C706 1.396 . S
C705 C712 1.403 . S
C706 C696 1.476 . S
C706 N701 1.318 . S
C706 C705 1.396 . S
H707 C702 0.929 . S
O708 Mn684 2.385 . S
O708 C686 1.234 . S
O709 Mn684 2.209 . S
O709 Mn685 2.215 . S
O709 C686 1.283 . S
O710 Mn684 2.094 . S
O710 C688 1.240 . S
O711 Mn685 2.117 . S
O711 C688 1.264 . S
C712 C705 1.403 . S
C712 C713 1.399 . S
C712 H718 0.929 . S
C713 C693 1.449 . S
C713 C712 1.399 . S
C713 H719 0.930 . S
H714 C694 0.931 . S
H715 C695 0.930 . S
H716 C703 0.931 . S
H717 C704 0.929 . S
H718 C712 0.929 . S
H719 C713 0.930 . S
Mn720 O725 2.095 . S
Mn720 O735 2.162 . S
Mn720 O736 2.297 . S
Mn720 O744 2.385 . S
Mn720 O745 2.209 . S
Mn720 O746 2.094 1_554 S
Mn721 O726 2.121 . S
Mn721 N728 2.257 . S
Mn721 N737 2.282 . S
Mn721 O745 2.215 1_556 S
Mn721 O747 2.117 . S
C722 O744 1.234 . S
C722 O745 1.283 . S
C723 O735 1.281 . S
C723 O736 1.236 . S
C724 O746 1.240 . S
C724 O747 1.264 . S
O725 Mn720 2.095 . S
O725 C734 1.250 . S
O726 Mn721 2.121 . S
O726 C734 1.258 1_556 S
C727 N728 1.326 . S
C727 C731 1.460 . S
C727 H733 0.929 . S
N728 Mn721 2.257 . S
N728 C727 1.326 . S
N728 C732 1.362 . S
C729 C730 1.258 . S
C729 C732 1.431 . S
C729 C749 1.449 . S
C730 C729 1.258 . S
C730 C731 1.477 . S
C730 H750 0.931 . S
C731 C727 1.460 . S
C731 C730 1.477 . S
C731 H751 0.930 . S
C732 N728 1.362 . S
C732 C729 1.431 . S
C732 C742 1.476 . S
H733 C727 0.929 . S
C734 O725 1.250 . S
C734 O726 1.258 1_554 S
O735 Mn720 2.162 . S
O735 C723 1.281 . S
O736 Mn720 2.297 . S
O736 C723 1.236 . S
N737 Mn721 2.282 . S
N737 C738 1.328 . S
N737 C742 1.318 . S
C738 N737 1.328 . S
C738 C739 1.457 . S
C738 H743 0.929 . S
C739 C738 1.457 . S
C739 C740 1.291 . S
C739 H752 0.931 . S
C740 C739 1.291 . S
C740 C741 1.373 . S
C740 H753 0.929 . S
C741 C740 1.373 . S
C741 C742 1.396 . S
C741 C748 1.403 . S
C742 C732 1.476 . S
C742 N737 1.318 . S
C742 C741 1.396 . S
H743 C738 0.929 . S
O744 Mn720 2.385 . S
O744 C722 1.234 . S
O745 Mn720 2.209 . S
O745 Mn721 2.215 1_554 S
O745 C722 1.283 . S
O746 Mn720 2.094 1_556 S
O746 C724 1.240 . S
O747 Mn721 2.117 . S
O747 C724 1.264 . S
C748 C741 1.403 . S
C748 C749 1.399 . S
C748 H754 0.929 . S
C749 C729 1.449 . S
C749 C748 1.399 . S
C749 H755 0.930 . S
H750 C730 0.931 . S
H751 C731 0.930 . S
H752 C739 0.931 . S
H753 C740 0.929 . S
H754 C748 0.929 . S
H755 C749 0.930 . S
Mn756 O761 2.095 . S
Mn756 O771 2.162 . S
Mn756 O772 2.297 . S
Mn756 O780 2.385 . S
Mn756 O781 2.209 . S
Mn756 O782 2.094 . S
Mn757 O762 2.121 . S
Mn757 N764 2.257 . S
Mn757 N773 2.282 . S
Mn757 O781 2.215 . S
Mn757 O783 2.117 . S
C758 O780 1.234 . S
C758 O781 1.283 . S
C759 O771 1.281 . S
C759 O772 1.236 . S
C760 O782 1.240 . S
C760 O783 1.264 . S
O761 Mn756 2.095 . S
O761 C770 1.250 . S
O762 Mn757 2.121 . S
O762 C770 1.258 . S
C763 N764 1.326 . S
C763 C767 1.460 . S
C763 H769 0.929 . S
N764 Mn757 2.257 . S
N764 C763 1.326 . S
N764 C768 1.362 . S
C765 C766 1.258 . S
C765 C768 1.431 . S
C765 C785 1.449 . S
C766 C765 1.258 . S
C766 C767 1.477 . S
C766 H786 0.931 . S
C767 C763 1.460 . S
C767 C766 1.477 . S
C767 H787 0.930 . S
C768 N764 1.362 . S
C768 C765 1.431 . S
C768 C778 1.476 . S
H769 C763 0.929 . S
C770 O761 1.250 . S
C770 O762 1.258 . S
O771 Mn756 2.162 . S
O771 C759 1.281 . S
O772 Mn756 2.297 . S
O772 C759 1.236 . S
N773 Mn757 2.282 . S
N773 C774 1.328 . S
N773 C778 1.318 . S
C774 N773 1.328 . S
C774 C775 1.457 . S
C774 H779 0.929 . S
C775 C774 1.457 . S
C775 C776 1.291 . S
C775 H788 0.931 . S
C776 C775 1.291 . S
C776 C777 1.373 . S
C776 H789 0.929 . S
C777 C776 1.373 . S
C777 C778 1.396 . S
C777 C784 1.403 . S
C778 C768 1.476 . S
C778 N773 1.318 . S
C778 C777 1.396 . S
H779 C774 0.929 . S
O780 Mn756 2.385 . S
O780 C758 1.234 . S
O781 Mn756 2.209 . S
O781 Mn757 2.215 . S
O781 C758 1.283 . S
O782 Mn756 2.094 . S
O782 C760 1.240 . S
O783 Mn757 2.117 . S
O783 C760 1.264 . S
C784 C777 1.403 . S
C784 C785 1.399 . S
C784 H790 0.929 . S
C785 C765 1.449 . S
C785 C784 1.399 . S
C785 H791 0.930 . S
H786 C766 0.931 . S
H787 C767 0.930 . S
H788 C775 0.931 . S
H789 C776 0.929 . S
H790 C784 0.929 . S
H791 C785 0.930 . S
Mn792 O797 2.095 . S
Mn792 O807 2.162 . S
Mn792 O808 2.297 . S
Mn792 O816 2.385 . S
Mn792 O817 2.209 . S
Mn792 O818 2.094 . S
Mn793 O798 2.121 . S
Mn793 N800 2.257 . S
Mn793 N809 2.282 . S
Mn793 O817 2.215 . S
Mn793 O819 2.117 . S
C794 O816 1.234 . S
C794 O817 1.283 . S
C795 O807 1.281 . S
C795 O808 1.236 . S
C796 O818 1.240 . S
C796 O819 1.264 . S
O797 Mn792 2.095 . S
O797 C806 1.250 . S
O798 Mn793 2.121 . S
O798 C806 1.258 . S
C799 N800 1.326 . S
C799 C803 1.460 . S
C799 H805 0.929 . S
N800 Mn793 2.257 . S
N800 C799 1.326 . S
N800 C804 1.362 . S
C801 C802 1.258 . S
C801 C804 1.431 . S
C801 C821 1.449 . S
C802 C801 1.258 . S
C802 C803 1.477 . S
C802 H822 0.931 . S
C803 C799 1.460 . S
C803 C802 1.477 . S
C803 H823 0.930 . S
C804 N800 1.362 . S
C804 C801 1.431 . S
C804 C814 1.476 . S
H805 C799 0.929 . S
C806 O797 1.250 . S
C806 O798 1.258 . S
O807 Mn792 2.162 . S
O807 C795 1.281 . S
O808 Mn792 2.297 . S
O808 C795 1.236 . S
N809 Mn793 2.282 . S
N809 C810 1.328 . S
N809 C814 1.318 . S
C810 N809 1.328 . S
C810 C811 1.457 . S
C810 H815 0.929 . S
C811 C810 1.457 . S
C811 C812 1.291 . S
C811 H824 0.931 . S
C812 C811 1.291 . S
C812 C813 1.373 . S
C812 H825 0.929 . S
C813 C812 1.373 . S
C813 C814 1.396 . S
C813 C820 1.403 . S
C814 C804 1.476 . S
C814 N809 1.318 . S
C814 C813 1.396 . S
H815 C810 0.929 . S
O816 Mn792 2.385 . S
O816 C794 1.234 . S
O817 Mn792 2.209 . S
O817 Mn793 2.215 . S
O817 C794 1.283 . S
O818 Mn792 2.094 . S
O818 C796 1.240 . S
O819 Mn793 2.117 . S
O819 C796 1.264 . S
C820 C813 1.403 . S
C820 C821 1.399 . S
C820 H826 0.929 . S
C821 C801 1.449 . S
C821 C820 1.399 . S
C821 H827 0.930 . S
H822 C802 0.931 . S
H823 C803 0.930 . S
H824 C811 0.931 . S
H825 C812 0.929 . S
H826 C820 0.929 . S
H827 C821 0.930 . S
Mn828 O833 2.095 . S
Mn828 O843 2.162 . S
Mn828 O844 2.297 . S
Mn828 O852 2.385 . S
Mn828 O853 2.209 . S
Mn828 O854 2.094 . S
Mn829 O834 2.121 . S
Mn829 N836 2.257 . S
Mn829 N845 2.282 . S
Mn829 O853 2.215 . S
Mn829 O855 2.117 . S
C830 O852 1.234 . S
C830 O853 1.283 . S
C831 O843 1.281 . S
C831 O844 1.236 . S
C832 O854 1.240 . S
C832 O855 1.264 . S
O833 Mn828 2.095 . S
O833 C842 1.250 . S
O834 Mn829 2.121 . S
O834 C842 1.258 . S
C835 N836 1.326 . S
C835 C839 1.460 . S
C835 H841 0.929 . S
N836 Mn829 2.257 . S
N836 C835 1.326 . S
N836 C840 1.362 . S
C837 C838 1.258 . S
C837 C840 1.431 . S
C837 C857 1.449 . S
C838 C837 1.258 . S
C838 C839 1.477 . S
C838 H858 0.931 . S
C839 C835 1.460 . S
C839 C838 1.477 . S
C839 H859 0.930 . S
C840 N836 1.362 . S
C840 C837 1.431 . S
C840 C850 1.476 . S
H841 C835 0.929 . S
C842 O833 1.250 . S
C842 O834 1.258 . S
O843 Mn828 2.162 . S
O843 C831 1.281 . S
O844 Mn828 2.297 . S
O844 C831 1.236 . S
N845 Mn829 2.282 . S
N845 C846 1.328 . S
N845 C850 1.318 . S
C846 N845 1.328 . S
C846 C847 1.457 . S
C846 H851 0.929 . S
C847 C846 1.457 . S
C847 C848 1.291 . S
C847 H860 0.931 . S
C848 C847 1.291 . S
C848 C849 1.373 . S
C848 H861 0.929 . S
C849 C848 1.373 . S
C849 C850 1.396 . S
C849 C856 1.403 . S
C850 C840 1.476 . S
C850 N845 1.318 . S
C850 C849 1.396 . S
H851 C846 0.929 . S
O852 Mn828 2.385 . S
O852 C830 1.234 . S
O853 Mn828 2.209 . S
O853 Mn829 2.215 . S
O853 C830 1.283 . S
O854 Mn828 2.094 . S
O854 C832 1.240 . S
O855 Mn829 2.117 . S
O855 C832 1.264 . S
C856 C849 1.403 . S
C856 C857 1.399 . S
C856 H862 0.929 . S
C857 C837 1.449 . S
C857 C856 1.399 . S
C857 H863 0.930 . S
H858 C838 0.931 . S
H859 C839 0.930 . S
H860 C847 0.931 . S
H861 C848 0.929 . S
H862 C856 0.929 . S
H863 C857 0.930 . S
Eu864 C873 2.828 . S
Eu864 O875 2.392 . S
Eu864 O877 2.418 . S
Eu864 O882 2.373 . S
Eu864 O885 2.488 . S
Eu864 O886 2.471 1_554 S
Eu864 O887 2.349 1_554 S
Eu865 O874 2.373 1_565 S
Eu865 O878 2.487 1_554 S
Eu865 O879 2.471 . S
Eu865 O880 2.349 1_565 S
Eu865 O883 2.378 1_564 S
Eu865 O884 2.418 1_554 S
Eu865 C894 2.828 . S
C866 O884 1.244 1_545 S
C866 O887 1.265 . S
C867 C868 1.379 1_554 S
C867 C871 1.373 . S
C867 C873 1.505 . S
C868 C867 1.379 1_556 S
C868 C870 1.369 . S
C868 H896 0.930 . S
C869 C871 1.383 . S
C869 C872 1.382 1_554 S
C869 H897 0.930 . S
C870 C868 1.369 . S
C870 C872 1.392 . S
C870 H898 0.930 . S
C871 C867 1.373 . S
C871 C869 1.383 . S
C871 H899 0.931 . S
C872 C869 1.382 1_556 S
C872 C870 1.392 . S
C873 Eu864 2.828 . S
C873 C867 1.505 . S
C873 O885 1.249 . S
C873 O886 1.244 1_554 S
O874 Eu865 2.373 1_545 S
O874 C876 1.258 . S
O875 Eu864 2.392 . S
O875 C876 1.242 . S
C876 O874 1.258 . S
C876 O875 1.242 . S
O877 Eu864 2.418 . S
O877 C881 1.244 . S
O878 Eu865 2.487 1_556 S
O878 C894 1.204 1_556 S
O879 Eu865 2.471 . S
O879 C894 1.244 . S
O880 Eu865 2.349 1_545 S
O880 C881 1.265 . S
C881 O877 1.244 . S
C881 O880 1.265 . S
O882 Eu864 2.373 . S
O882 C895 1.258 . S
O883 Eu865 2.378 1_546 S
O883 C895 1.241 1_556 S
O884 Eu865 2.418 1_556 S
O884 C866 1.244 1_565 S
O885 Eu864 2.488 . S
O885 C873 1.249 . S
O886 Eu864 2.471 1_556 S
O886 C873 1.244 1_556 S
O887 Eu864 2.349 1_556 S
O887 C866 1.265 . S
C888 C889 1.379 . S
C888 C892 1.373 . S
C888 C894 1.505 . S
C889 C888 1.379 . S
C889 C891 1.369 . S
C889 H900 0.930 . S
C890 C892 1.383 . S
C890 C893 1.382 . S
C890 H901 0.930 . S
C891 C889 1.369 . S
C891 C893 1.392 . S
C891 H902 0.930 . S
C892 C888 1.373 . S
C892 C890 1.383 . S
C892 H903 0.931 1_554 S
C893 C890 1.382 . S
C893 C891 1.392 . S
C894 Eu865 2.828 . S
C894 O878 1.204 1_554 S
C894 O879 1.244 . S
C894 C888 1.505 . S
C895 O882 1.258 . S
C895 O883 1.241 1_554 S
H896 C868 0.930 . S
H897 C869 0.930 . S
H898 C870 0.930 . S
H899 C871 0.931 . S
H900 C889 0.930 . S
H901 C890 0.930 . S
H902 C891 0.930 . S
H903 C892 0.931 1_556 S
Eu904 C913 2.828 . S
Eu904 O915 2.392 . S
Eu904 O917 2.418 . S
Eu904 O922 2.373 . S
Eu904 O925 2.488 . S
Eu904 O926 2.471 . S
Eu904 O927 2.349 . S
Eu905 O914 2.373 . S
Eu905 O918 2.488 . S
Eu905 O919 2.471 . S
Eu905 O920 2.349 . S
Eu905 O923 2.392 . S
Eu905 O924 2.418 . S
Eu905 C934 2.828 . S
C906 O924 1.244 . S
C906 O927 1.265 . S
C907 C908 1.379 . S
C907 C911 1.373 . S
C907 C913 1.505 . S
C908 C907 1.379 . S
C908 C910 1.369 . S
C908 H936 0.930 . S
C909 C911 1.383 . S
C909 C912 1.382 . S
C909 H937 0.930 . S
C910 C908 1.369 . S
C910 C912 1.392 . S
C910 H938 0.930 . S
C911 C907 1.373 . S
C911 C909 1.383 . S
C911 H939 0.931 . S
C912 C909 1.382 . S
C912 C910 1.392 . S
C913 Eu904 2.828 . S
C913 C907 1.505 . S
C913 O925 1.249 . S
C913 O926 1.244 . S
O914 Eu905 2.373 . S
O914 C916 1.258 . S
O915 Eu904 2.392 . S
O915 C916 1.242 . S
C916 O914 1.258 . S
C916 O915 1.242 . S
O917 Eu904 2.418 . S
O917 C921 1.244 . S
O918 Eu905 2.488 . S
O918 C934 1.249 . S
O919 Eu905 2.471 . S
O919 C934 1.244 . S
O920 Eu905 2.349 . S
O920 C921 1.265 . S
C921 O917 1.244 . S
C921 O920 1.265 . S
O922 Eu904 2.373 . S
O922 C935 1.258 . S
O923 Eu905 2.392 . S
O923 C935 1.242 . S
O924 Eu905 2.418 . S
O924 C906 1.244 . S
O925 Eu904 2.488 . S
O925 C913 1.249 . S
O926 Eu904 2.471 . S
O926 C913 1.244 . S
O927 Eu904 2.349 . S
O927 C906 1.265 . S
C928 C929 1.379 . S
C928 C932 1.373 . S
C928 C934 1.505 . S
C929 C928 1.379 . S
C929 C931 1.369 . S
C929 H940 0.930 . S
C930 C932 1.383 . S
C930 C933 1.382 . S
C930 H941 0.930 . S
C931 C929 1.369 . S
C931 C933 1.392 . S
C931 H942 0.930 . S
C932 C928 1.373 . S
C932 C930 1.383 . S
C932 H943 0.931 . S
C933 C930 1.382 . S
C933 C931 1.392 . S
C934 Eu905 2.828 . S
C934 O918 1.249 . S
C934 O919 1.244 . S
C934 C928 1.505 . S
C935 O922 1.258 . S
C935 O923 1.242 . S
H936 C908 0.930 . S
H937 C909 0.930 . S
H938 C910 0.930 . S
H939 C911 0.931 . S
H940 C929 0.930 . S
H941 C930 0.930 . S
H942 C931 0.930 . S
H943 C932 0.931 . S
Eu944 C953 2.828 . S
Eu944 O955 2.392 . S
Eu944 O957 2.418 . S
Eu944 O962 2.373 . S
Eu944 O965 2.488 . S
Eu944 O966 2.471 . S
Eu944 O967 2.349 . S
Eu945 O954 2.373 . S
Eu945 O958 2.488 . S
Eu945 O959 2.471 . S
Eu945 O960 2.349 . S
Eu945 O963 2.411 . S
Eu945 O964 2.418 . S
Eu945 C974 2.828 . S
C946 O964 1.244 . S
C946 O967 1.265 . S
C947 C948 1.379 1_545 S
C947 C951 1.373 . S
C947 C953 1.505 . S
C948 C947 1.379 1_565 S
C948 C950 1.369 . S
C948 H976 0.930 . S
C949 C951 1.383 1_565 S
C949 C952 1.382 . S
C949 H977 0.930 . S
C950 C948 1.369 . S
C950 C952 1.392 . S
C950 H978 0.930 . S
C951 C947 1.373 . S
C951 C949 1.383 1_545 S
C951 H979 0.931 . S
C952 C949 1.382 . S
C952 C950 1.392 . S
C953 Eu944 2.828 . S
C953 C947 1.505 . S
C953 O965 1.249 . S
C953 O966 1.244 . S
O954 Eu945 2.373 . S
O954 C956 1.258 . S
O955 Eu944 2.392 . S
O955 C956 1.242 . S
C956 O954 1.258 . S
C956 O955 1.242 . S
O957 Eu944 2.418 . S
O957 C961 1.244 . S
O958 Eu945 2.488 . S
O958 C974 1.249 . S
O959 Eu945 2.471 . S
O959 C974 1.244 . S
O960 Eu945 2.349 . S
O960 C961 1.265 . S
C961 O957 1.244 . S
C961 O960 1.265 . S
O962 Eu944 2.373 . S
O962 C975 1.258 1_545 S
O963 Eu945 2.411 . S
O963 C975 1.235 1_545 S
O964 Eu945 2.418 . S
O964 C946 1.244 . S
O965 Eu944 2.488 . S
O965 C953 1.249 . S
O966 Eu944 2.471 . S
O966 C953 1.244 . S
O967 Eu944 2.349 . S
O967 C946 1.265 . S
C968 C969 1.379 . S
C968 C972 1.373 . S
C968 C974 1.505 . S
C969 C968 1.379 . S
C969 C971 1.369 . S
C969 H980 0.930 . S
C970 C972 1.383 . S
C970 C973 1.382 . S
C970 H981 0.930 . S
C971 C969 1.369 . S
C971 C973 1.392 . S
C971 H982 0.930 . S
C972 C968 1.373 . S
C972 C970 1.383 . S
C972 H983 0.931 . S
C973 C970 1.382 . S
C973 C971 1.392 . S
C974 Eu945 2.828 . S
C974 O958 1.249 . S
C974 O959 1.244 . S
C974 C968 1.505 . S
C975 O962 1.258 1_565 S
C975 O963 1.235 1_565 S
H976 C948 0.930 . S
H977 C949 0.930 . S
H978 C950 0.930 . S
H979 C951 0.931 . S
H980 C969 0.930 . S
H981 C970 0.930 . S
H982 C971 0.930 . S
H983 C972 0.931 . S
Eu984 C993 2.828 . S
Eu984 O995 2.392 . S
Eu984 O997 2.418 . S
Eu984 O1002 2.373 . S
Eu984 O1005 2.488 . S
Eu984 O1006 2.471 . S
Eu984 O1007 2.349 . S
Eu985 O994 2.373 . S
Eu985 O998 2.488 . S
Eu985 O999 2.471 . S
Eu985 O1000 2.349 . S
Eu985 O1003 2.392 . S
Eu985 O1004 2.418 . S
Eu985 C1014 2.828 . S
C986 O1004 1.244 . S
C986 O1007 1.265 . S
C987 C988 1.379 . S
C987 C991 1.373 . S
C987 C993 1.505 . S
C988 C987 1.379 . S
C988 C990 1.369 . S
C988 H1016 0.930 . S
C989 C991 1.383 . S
C989 C992 1.382 . S
C989 H1017 0.930 . S
C990 C988 1.369 . S
C990 C992 1.392 . S
C990 H1018 0.930 . S
C991 C987 1.373 . S
C991 C989 1.383 . S
C991 H1019 0.931 . S
C992 C989 1.382 . S
C992 C990 1.392 . S
C993 Eu984 2.828 . S
C993 C987 1.505 . S
C993 O1005 1.249 . S
C993 O1006 1.244 . S
O994 Eu985 2.373 . S
O994 C996 1.258 . S
O995 Eu984 2.392 . S
O995 C996 1.242 . S
C996 O994 1.258 . S
C996 O995 1.242 . S
O997 Eu984 2.418 . S
O997 C1001 1.244 . S
O998 Eu985 2.488 . S
O998 C1014 1.249 . S
O999 Eu985 2.471 . S
O999 C1014 1.244 . S
O1000 Eu985 2.349 . S
O1000 C1001 1.265 . S
C1001 O997 1.244 . S
C1001 O1000 1.265 . S
O1002 Eu984 2.373 . S
O1002 C1015 1.258 . S
O1003 Eu985 2.392 . S
O1003 C1015 1.242 . S
O1004 Eu985 2.418 . S
O1004 C986 1.244 . S
O1005 Eu984 2.488 . S
O1005 C993 1.249 . S
O1006 Eu984 2.471 . S
O1006 C993 1.244 . S
O1007 Eu984 2.349 . S
O1007 C986 1.265 . S
C1008 C1009 1.379 . S
C1008 C1012 1.373 . S
C1008 C1014 1.505 . S
C1009 C1008 1.379 . S
C1009 C1011 1.369 . S
C1009 H1020 0.930 . S
C1010 C1012 1.383 . S
C1010 C1013 1.382 . S
C1010 H1021 0.930 . S
C1011 C1009 1.369 . S
C1011 C1013 1.392 . S
C1011 H1022 0.930 . S
C1012 C1008 1.373 . S
C1012 C1010 1.383 . S
C1012 H1023 0.931 . S
C1013 C1010 1.382 . S
C1013 C1011 1.392 . S
C1014 Eu985 2.828 . S
C1014 O998 1.249 . S
C1014 O999 1.244 . S
C1014 C1008 1.505 . S
C1015 O1002 1.258 . S
C1015 O1003 1.242 . S
H1016 C988 0.930 . S
H1017 C989 0.930 . S
H1018 C990 0.930 . S
H1019 C991 0.931 . S
H1020 C1009 0.930 . S
H1021 C1010 0.930 . S
H1022 C1011 0.930 . S
H1023 C1012 0.931 . S
Eu1024 C1033 2.828 . S
Eu1024 O1035 2.392 . S
Eu1024 O1037 2.446 . S
Eu1024 O1042 2.373 . S
Eu1024 O1045 2.488 . S
Eu1024 O1046 2.471 . S
Eu1024 O1047 2.349 . S
Eu1025 O1034 2.373 . S
Eu1025 O1038 2.488 1_545 S
Eu1025 O1039 2.471 1_545 S
Eu1025 O1040 2.349 . S
Eu1025 O1043 2.392 . S
Eu1025 O1044 2.418 . S
Eu1025 C1054 2.828 1_545 S
C1026 O1044 1.244 . S
C1026 O1047 1.265 . S
C1027 C1028 1.379 . S
C1027 C1031 1.373 . S
C1027 C1033 1.505 . S
C1028 C1027 1.379 . S
C1028 C1030 1.369 . S
C1028 H1056 0.930 . S
C1029 C1031 1.383 . S
C1029 C1032 1.382 . S
C1029 H1057 0.930 1_455 S
C1030 C1028 1.369 . S
C1030 C1032 1.392 . S
C1030 H1058 0.930 . S
C1031 C1027 1.373 . S
C1031 C1029 1.383 . S
C1031 H1059 0.931 . S
C1032 C1029 1.382 . S
C1032 C1030 1.392 . S
C1033 Eu1024 2.828 . S
C1033 C1027 1.505 . S
C1033 O1045 1.249 . S
C1033 O1046 1.244 . S
O1034 Eu1025 2.373 . S
O1034 C1036 1.258 . S
O1035 Eu1024 2.392 . S
O1035 C1036 1.242 . S
C1036 O1034 1.258 . S
C1036 O1035 1.242 . S
O1037 Eu1024 2.446 . S
O1037 C1041 1.255 . S
O1038 Eu1025 2.488 1_565 S
O1038 C1054 1.249 . S
O1039 Eu1025 2.471 1_565 S
O1039 C1054 1.244 . S
O1040 Eu1025 2.349 . S
O1040 C1041 1.265 . S
C1041 O1037 1.255 . S
C1041 O1040 1.265 . S
O1042 Eu1024 2.373 . S
O1042 C1055 1.258 . S
O1043 Eu1025 2.392 . S
O1043 C1055 1.242 . S
O1044 Eu1025 2.418 . S
O1044 C1026 1.244 . S
O1045 Eu1024 2.488 . S
O1045 C1033 1.249 . S
O1046 Eu1024 2.471 . S
O1046 C1033 1.244 . S
O1047 Eu1024 2.349 . S
O1047 C1026 1.265 . S
C1048 C1049 1.379 . S
C1048 C1052 1.373 . S
C1048 C1054 1.505 . S
C1049 C1048 1.379 . S
C1049 C1051 1.369 . S
C1049 H1060 0.930 . S
C1050 C1052 1.383 . S
C1050 C1053 1.382 . S
C1050 H1061 0.930 . S
C1051 C1049 1.369 . S
C1051 C1053 1.392 . S
C1051 H1062 0.930 . S
C1052 C1048 1.373 . S
C1052 C1050 1.383 . S
C1052 H1063 0.931 . S
C1053 C1050 1.382 . S
C1053 C1051 1.392 . S
C1054 Eu1025 2.828 1_565 S
C1054 O1038 1.249 . S
C1054 O1039 1.244 . S
C1054 C1048 1.505 . S
C1055 O1042 1.258 . S
C1055 O1043 1.242 . S
H1056 C1028 0.930 . S
H1057 C1029 0.930 1_655 S
H1058 C1030 0.930 . S
H1059 C1031 0.931 . S
H1060 C1049 0.930 . S
H1061 C1050 0.930 . S
H1062 C1051 0.930 . S
H1063 C1052 0.931 . S
Eu1064 C1073 2.828 . S
Eu1064 O1075 2.392 . S
Eu1064 O1077 2.418 . S
Eu1064 O1082 2.373 . S
Eu1064 O1085 2.488 . S
Eu1064 O1086 2.471 . S
Eu1064 O1087 2.349 . S
Eu1065 O1074 2.373 . S
Eu1065 O1078 2.488 . S
Eu1065 O1079 2.471 . S
Eu1065 O1080 2.349 . S
Eu1065 O1083 2.392 . S
Eu1065 O1084 2.418 . S
Eu1065 C1094 2.828 . S
C1066 O1084 1.244 . S
C1066 O1087 1.265 . S
C1067 C1068 1.379 . S
C1067 C1071 1.373 . S
C1067 C1073 1.505 . S
C1068 C1067 1.379 . S
C1068 C1070 1.369 . S
C1068 H1096 0.930 . S
C1069 C1071 1.383 . S
C1069 C1072 1.382 . S
C1069 H1097 0.930 . S
C1070 C1068 1.369 . S
C1070 C1072 1.392 . S
C1070 H1098 0.930 . S
C1071 C1067 1.373 . S
C1071 C1069 1.383 . S
C1071 H1099 0.931 . S
C1072 C1069 1.382 . S
C1072 C1070 1.392 . S
C1073 Eu1064 2.828 . S
C1073 C1067 1.505 . S
C1073 O1085 1.249 . S
C1073 O1086 1.244 . S
O1074 Eu1065 2.373 . S
O1074 C1076 1.258 . S
O1075 Eu1064 2.392 . S
O1075 C1076 1.242 . S
C1076 O1074 1.258 . S
C1076 O1075 1.242 . S
O1077 Eu1064 2.418 . S
O1077 C1081 1.244 . S
O1078 Eu1065 2.488 . S
O1078 C1094 1.249 . S
O1079 Eu1065 2.471 . S
O1079 C1094 1.244 . S
O1080 Eu1065 2.349 . S
O1080 C1081 1.265 . S
C1081 O1077 1.244 . S
C1081 O1080 1.265 . S
O1082 Eu1064 2.373 . S
O1082 C1095 1.258 . S
O1083 Eu1065 2.392 . S
O1083 C1095 1.242 . S
O1084 Eu1065 2.418 . S
O1084 C1066 1.244 . S
O1085 Eu1064 2.488 . S
O1085 C1073 1.249 . S
O1086 Eu1064 2.471 . S
O1086 C1073 1.244 . S
O1087 Eu1064 2.349 . S
O1087 C1066 1.265 . S
C1088 C1089 1.379 . S
C1088 C1092 1.373 . S
C1088 C1094 1.505 . S
C1089 C1088 1.379 . S
C1089 C1091 1.369 . S
C1089 H1100 0.930 . S
C1090 C1092 1.383 . S
C1090 C1093 1.382 . S
C1090 H1101 0.930 . S
C1091 C1089 1.369 . S
C1091 C1093 1.392 . S
C1091 H1102 0.930 . S
C1092 C1088 1.373 . S
C1092 C1090 1.383 . S
C1092 H1103 0.931 . S
C1093 C1090 1.382 . S
C1093 C1091 1.392 . S
C1094 Eu1065 2.828 . S
C1094 O1078 1.249 . S
C1094 O1079 1.244 . S
C1094 C1088 1.505 . S
C1095 O1082 1.258 . S
C1095 O1083 1.242 . S
H1096 C1068 0.930 . S
H1097 C1069 0.930 . S
H1098 C1070 0.930 . S
H1099 C1071 0.931 . S
H1100 C1089 0.930 . S
H1101 C1090 0.930 . S
H1102 C1091 0.930 . S
H1103 C1092 0.931 . S
Eu1104 C1113 2.828 . S
Eu1104 O1115 2.392 . S
Eu1104 O1117 2.418 1_545 S
Eu1104 O1122 2.373 . S
Eu1104 O1125 2.488 . S
Eu1104 O1126 2.471 . S
Eu1104 O1127 2.349 . S
Eu1105 O1114 2.373 1_556 S
Eu1105 O1118 2.488 . S
Eu1105 O1119 2.471 . S
Eu1105 O1120 2.349 . S
Eu1105 O1123 2.367 1_556 S
Eu1105 O1124 2.418 1_556 S
Eu1105 C1134 2.828 . S
C1106 O1124 1.244 . S
C1106 O1127 1.265 . S
C1107 C1108 1.379 . S
C1107 C1111 1.373 1_545 S
C1107 C1113 1.505 . S
C1108 C1107 1.379 . S
C1108 C1110 1.369 . S
C1108 H1136 0.930 . S
C1109 C1111 1.383 . S
C1109 C1112 1.382 1_565 S
C1109 H1137 0.930 . S
C1110 C1108 1.369 . S
C1110 C1112 1.392 . S
C1110 H1138 0.930 . S
C1111 C1107 1.373 1_565 S
C1111 C1109 1.383 . S
C1111 H1139 0.931 . S
C1112 C1109 1.382 1_545 S
C1112 C1110 1.392 . S
C1113 Eu1104 2.828 . S
C1113 C1107 1.505 . S
C1113 O1125 1.249 . S
C1113 O1126 1.244 . S
O1114 Eu1105 2.373 1_554 S
O1114 C1116 1.258 . S
O1115 Eu1104 2.392 . S
O1115 C1116 1.242 . S
C1116 O1114 1.258 . S
C1116 O1115 1.242 . S
O1117 Eu1104 2.418 1_565 S
O1117 C1121 1.244 . S
O1118 Eu1105 2.488 . S
O1118 C1134 1.249 . S
O1119 Eu1105 2.471 . S
O1119 C1134 1.244 . S
O1120 Eu1105 2.349 . S
O1120 C1121 1.265 1_546 S
C1121 O1117 1.244 . S
C1121 O1120 1.265 1_564 S
O1122 Eu1104 2.373 . S
O1122 C1135 1.258 . S
O1123 Eu1105 2.367 1_554 S
O1123 C1135 1.284 . S
O1124 Eu1105 2.418 1_554 S
O1124 C1106 1.244 . S
O1125 Eu1104 2.488 . S
O1125 C1113 1.249 . S
O1126 Eu1104 2.471 . S
O1126 C1113 1.244 . S
O1127 Eu1104 2.349 . S
O1127 C1106 1.265 . S
C1128 C1129 1.379 . S
C1128 C1132 1.373 . S
C1128 C1134 1.505 . S
C1129 C1128 1.379 . S
C1129 C1131 1.369 . S
C1129 H1140 0.930 . S
C1130 C1132 1.383 . S
C1130 C1133 1.382 . S
C1130 H1141 0.930 . S
C1131 C1129 1.369 . S
C1131 C1133 1.392 . S
C1131 H1142 0.930 . S
C1132 C1128 1.373 . S
C1132 C1130 1.383 . S
C1132 H1143 0.931 . S
C1133 C1130 1.382 . S
C1133 C1131 1.392 . S
C1134 Eu1105 2.828 . S
C1134 O1118 1.249 . S
C1134 O1119 1.244 . S
C1134 C1128 1.505 . S
C1135 O1122 1.258 . S
C1135 O1123 1.284 . S
H1136 C1108 0.930 . S
H1137 C1109 0.930 . S
H1138 C1110 0.930 . S
H1139 C1111 0.931 . S
H1140 C1129 0.930 . S
H1141 C1130 0.930 . S
H1142 C1131 0.930 . S
H1143 C1132 0.931 . S
Eu1144 C1153 2.828 . S
Eu1144 O1155 2.392 . S
Eu1144 O1157 2.418 . S
Eu1144 O1162 2.373 . S
Eu1144 O1165 2.488 . S
Eu1144 O1166 2.471 . S
Eu1144 O1167 2.349 . S
Eu1145 O1154 2.373 . S
Eu1145 O1158 2.488 . S
Eu1145 O1159 2.471 . S
Eu1145 O1160 2.349 . S
Eu1145 O1163 2.392 . S
Eu1145 O1164 2.418 . S
Eu1145 C1174 2.828 . S
C1146 O1164 1.244 . S
C1146 O1167 1.265 . S
C1147 C1148 1.379 . S
C1147 C1151 1.373 . S
C1147 C1153 1.505 . S
C1148 C1147 1.379 . S
C1148 C1150 1.369 . S
C1148 H1176 0.930 . S
C1149 C1151 1.383 . S
C1149 C1152 1.382 . S
C1149 H1177 0.930 . S
C1150 C1148 1.369 . S
C1150 C1152 1.392 . S
C1150 H1178 0.930 . S
C1151 C1147 1.373 . S
C1151 C1149 1.383 . S
C1151 H1179 0.931 . S
C1152 C1149 1.382 . S
C1152 C1150 1.392 . S
C1153 Eu1144 2.828 . S
C1153 C1147 1.505 . S
C1153 O1165 1.249 . S
C1153 O1166 1.244 . S
O1154 Eu1145 2.373 . S
O1154 C1156 1.258 . S
O1155 Eu1144 2.392 . S
O1155 C1156 1.242 . S
C1156 O1154 1.258 . S
C1156 O1155 1.242 . S
O1157 Eu1144 2.418 . S
O1157 C1161 1.244 . S
O1158 Eu1145 2.488 . S
O1158 C1174 1.249 . S
O1159 Eu1145 2.471 . S
O1159 C1174 1.244 . S
O1160 Eu1145 2.349 . S
O1160 C1161 1.265 . S
C1161 O1157 1.244 . S
C1161 O1160 1.265 . S
O1162 Eu1144 2.373 . S
O1162 C1175 1.258 . S
O1163 Eu1145 2.392 . S
O1163 C1175 1.242 . S
O1164 Eu1145 2.418 . S
O1164 C1146 1.244 . S
O1165 Eu1144 2.488 . S
O1165 C1153 1.249 . S
O1166 Eu1144 2.471 . S
O1166 C1153 1.244 . S
O1167 Eu1144 2.349 . S
O1167 C1146 1.265 . S
C1168 C1169 1.379 . S
C1168 C1172 1.373 . S
C1168 C1174 1.505 . S
C1169 C1168 1.379 . S
C1169 C1171 1.369 . S
C1169 H1180 0.930 . S
C1170 C1172 1.383 . S
C1170 C1173 1.382 . S
C1170 H1181 0.930 . S
C1171 C1169 1.369 . S
C1171 C1173 1.392 . S
C1171 H1182 0.930 . S
C1172 C1168 1.373 . S
C1172 C1170 1.383 . S
C1172 H1183 0.931 . S
C1173 C1170 1.382 . S
C1173 C1171 1.392 . S
C1174 Eu1145 2.828 . S
C1174 O1158 1.249 . S
C1174 O1159 1.244 . S
C1174 C1168 1.505 . S
C1175 O1162 1.258 . S
C1175 O1163 1.242 . S
H1176 C1148 0.930 . S
H1177 C1149 0.930 . S
H1178 C1150 0.930 . S
H1179 C1151 0.931 . S
H1180 C1169 0.930 . S
H1181 C1170 0.930 . S
H1182 C1171 0.930 . S
H1183 C1172 0.931 . S
Eu1184 C1193 2.828 . S
Eu1184 O1195 2.392 . S
Eu1184 O1197 2.418 . S
Eu1184 O1202 2.373 1_554 S
Eu1184 O1205 2.488 . S
Eu1184 O1206 2.471 . S
Eu1184 O1207 2.349 . S
Eu1185 O1194 2.373 . S
Eu1185 O1198 2.488 . S
Eu1185 O1199 2.471 . S
Eu1185 O1200 2.349 . S
Eu1185 O1203 2.392 1_554 S
Eu1185 O1204 2.418 . S
Eu1185 C1214 2.828 . S
C1186 O1204 1.244 . S
C1186 O1207 1.265 . S
C1187 C1188 1.379 . S
C1187 C1191 1.373 . S
C1187 C1193 1.505 1_556 S
C1188 C1187 1.379 . S
C1188 C1190 1.369 . S
C1188 H1216 0.930 . S
C1189 C1191 1.383 . S
C1189 C1192 1.382 . S
C1189 H1217 0.930 . S
C1190 C1188 1.369 . S
C1190 C1192 1.392 . S
C1190 H1218 0.930 . S
C1191 C1187 1.373 . S
C1191 C1189 1.383 . S
C1191 H1219 0.931 1_556 S
C1192 C1189 1.382 . S
C1192 C1190 1.392 . S
C1193 Eu1184 2.828 . S
C1193 C1187 1.505 1_554 S
C1193 O1205 1.249 . S
C1193 O1206 1.244 . S
O1194 Eu1185 2.373 . S
O1194 C1196 1.258 . S
O1195 Eu1184 2.392 . S
O1195 C1196 1.242 . S
C1196 O1194 1.258 . S
C1196 O1195 1.242 . S
O1197 Eu1184 2.418 . S
O1197 C1201 1.244 . S
O1198 Eu1185 2.488 . S
O1198 C1214 1.249 . S
O1199 Eu1185 2.471 . S
O1199 C1214 1.244 . S
O1200 Eu1185 2.349 . S
O1200 C1201 1.265 . S
C1201 O1197 1.244 . S
C1201 O1200 1.265 . S
O1202 Eu1184 2.373 1_556 S
O1202 C1215 1.258 . S
O1203 Eu1185 2.392 1_556 S
O1203 C1215 1.242 . S
O1204 Eu1185 2.418 . S
O1204 C1186 1.244 . S
O1205 Eu1184 2.488 . S
O1205 C1193 1.249 . S
O1206 Eu1184 2.471 . S
O1206 C1193 1.244 . S
O1207 Eu1184 2.349 . S
O1207 C1186 1.265 . S
C1208 C1209 1.379 . S
C1208 C1212 1.373 . S
C1208 C1214 1.505 . S
C1209 C1208 1.379 . S
C1209 C1211 1.369 . S
C1209 H1220 0.930 . S
C1210 C1212 1.383 . S
C1210 C1213 1.382 . S
C1210 H1221 0.930 . S
C1211 C1209 1.369 . S
C1211 C1213 1.392 . S
C1211 H1222 0.930 . S
C1212 C1208 1.373 . S
C1212 C1210 1.383 . S
C1212 H1223 0.931 . S
C1213 C1210 1.382 . S
C1213 C1211 1.392 . S
C1214 Eu1185 2.828 . S
C1214 O1198 1.249 . S
C1214 O1199 1.244 . S
C1214 C1208 1.505 . S
C1215 O1202 1.258 . S
C1215 O1203 1.242 . S
H1216 C1188 0.930 . S
H1217 C1189 0.930 . S
H1218 C1190 0.930 . S
H1219 C1191 0.931 1_554 S
H1220 C1209 0.930 . S
H1221 C1210 0.930 . S
H1222 C1211 0.930 . S
H1223 C1212 0.931 . S
Eu1224 C1233 2.828 . S
Eu1224 O1235 2.392 . S
Eu1224 O1237 2.418 . S
Eu1224 O1242 2.373 . S
Eu1224 O1245 2.488 . S
Eu1224 O1246 2.471 . S
Eu1224 O1247 2.349 . S
Eu1225 O1234 2.373 . S
Eu1225 O1238 2.488 . S
Eu1225 O1239 2.471 . S
Eu1225 O1240 2.349 . S
Eu1225 O1243 2.392 . S
Eu1225 O1244 2.418 . S
Eu1225 C1254 2.828 . S
C1226 O1244 1.244 . S
C1226 O1247 1.265 . S
C1227 C1228 1.379 . S
C1227 C1231 1.373 . S
C1227 C1233 1.505 . S
C1228 C1227 1.379 . S
C1228 C1230 1.369 . S
C1228 H1256 0.930 . S
C1229 C1231 1.383 . S
C1229 C1232 1.382 . S
C1229 H1257 0.930 . S
C1230 C1228 1.369 . S
C1230 C1232 1.392 . S
C1230 H1258 0.930 . S
C1231 C1227 1.373 . S
C1231 C1229 1.383 . S
C1231 H1259 0.931 . S
C1232 C1229 1.382 . S
C1232 C1230 1.392 . S
C1233 Eu1224 2.828 . S
C1233 C1227 1.505 . S
C1233 O1245 1.249 . S
C1233 O1246 1.244 . S
O1234 Eu1225 2.373 . S
O1234 C1236 1.258 . S
O1235 Eu1224 2.392 . S
O1235 C1236 1.242 . S
C1236 O1234 1.258 . S
C1236 O1235 1.242 . S
O1237 Eu1224 2.418 . S
O1237 C1241 1.244 . S
O1238 Eu1225 2.488 . S
O1238 C1254 1.249 . S
O1239 Eu1225 2.471 . S
O1239 C1254 1.244 . S
O1240 Eu1225 2.349 . S
O1240 C1241 1.265 . S
C1241 O1237 1.244 . S
C1241 O1240 1.265 . S
O1242 Eu1224 2.373 . S
O1242 C1255 1.258 . S
O1243 Eu1225 2.392 . S
O1243 C1255 1.242 . S
O1244 Eu1225 2.418 . S
O1244 C1226 1.244 . S
O1245 Eu1224 2.488 . S
O1245 C1233 1.249 . S
O1246 Eu1224 2.471 . S
O1246 C1233 1.244 . S
O1247 Eu1224 2.349 . S
O1247 C1226 1.265 . S
C1248 C1249 1.379 . S
C1248 C1252 1.373 . S
C1248 C1254 1.505 . S
C1249 C1248 1.379 . S
C1249 C1251 1.369 . S
C1249 H1260 0.930 . S
C1250 C1252 1.383 . S
C1250 C1253 1.382 . S
C1250 H1261 0.930 . S
C1251 C1249 1.369 . S
C1251 C1253 1.392 . S
C1251 H1262 0.930 . S
C1252 C1248 1.373 . S
C1252 C1250 1.383 . S
C1252 H1263 0.931 . S
C1253 C1250 1.382 . S
C1253 C1251 1.392 . S
C1254 Eu1225 2.828 . S
C1254 O1238 1.249 . S
C1254 O1239 1.244 . S
C1254 C1248 1.505 . S
C1255 O1242 1.258 . S
C1255 O1243 1.242 . S
H1256 C1228 0.930 . S
H1257 C1229 0.930 . S
H1258 C1230 0.930 . S
H1259 C1231 0.931 . S
H1260 C1249 0.930 . S
H1261 C1250 0.930 . S
H1262 C1251 0.930 . S
H1263 C1252 0.931 . S
Eu1264 C1273 2.828 . S
Eu1264 O1275 2.392 . S
Eu1264 O1277 2.418 . S
Eu1264 O1282 2.373 . S
Eu1264 O1285 2.488 . S
Eu1264 O1286 2.471 . S
Eu1264 O1287 2.349 . S
Eu1265 O1274 2.373 . S
Eu1265 O1278 2.488 . S
Eu1265 O1279 2.471 . S
Eu1265 O1280 2.349 . S
Eu1265 O1283 2.392 . S
Eu1265 O1284 2.418 . S
Eu1265 C1294 2.828 . S
C1266 O1284 1.244 . S
C1266 O1287 1.265 . S
C1267 C1268 1.379 . S
C1267 C1271 1.373 . S
C1267 C1273 1.505 . S
C1268 C1267 1.379 . S
C1268 C1270 1.369 1_455 S
C1268 H1296 0.939 . S
C1269 C1271 1.383 . S
C1269 C1272 1.382 1_455 S
C1269 H1297 0.930 . S
C1270 C1268 1.369 1_655 S
C1270 C1272 1.392 . S
C1270 H1298 0.930 . S
C1271 C1267 1.373 . S
C1271 C1269 1.383 . S
C1271 H1299 0.931 . S
C1272 C1269 1.382 1_655 S
C1272 C1270 1.392 . S
C1273 Eu1264 2.828 . S
C1273 C1267 1.505 . S
C1273 O1285 1.249 . S
C1273 O1286 1.244 . S
O1274 Eu1265 2.373 . S
O1274 C1276 1.258 . S
O1275 Eu1264 2.392 . S
O1275 C1276 1.242 . S
C1276 O1274 1.258 . S
C1276 O1275 1.242 . S
O1277 Eu1264 2.418 . S
O1277 C1281 1.244 . S
O1278 Eu1265 2.488 . S
O1278 C1294 1.249 . S
O1279 Eu1265 2.471 . S
O1279 C1294 1.244 . S
O1280 Eu1265 2.349 . S
O1280 C1281 1.265 . S
C1281 O1277 1.244 . S
C1281 O1280 1.265 . S
O1282 Eu1264 2.373 . S
O1282 C1295 1.258 . S
O1283 Eu1265 2.392 . S
O1283 C1295 1.242 . S
O1284 Eu1265 2.418 . S
O1284 C1266 1.244 . S
O1285 Eu1264 2.488 . S
O1285 C1273 1.249 . S
O1286 Eu1264 2.471 . S
O1286 C1273 1.244 . S
O1287 Eu1264 2.349 . S
O1287 C1266 1.265 . S
C1288 C1289 1.379 . S
C1288 C1292 1.373 . S
C1288 C1294 1.505 . S
C1289 C1288 1.379 . S
C1289 C1291 1.369 . S
C1289 H1300 0.930 . S
C1290 C1292 1.383 . S
C1290 C1293 1.382 . S
C1290 H1301 0.930 . S
C1291 C1289 1.369 . S
C1291 C1293 1.392 . S
C1291 H1302 0.930 . S
C1292 C1288 1.373 . S
C1292 C1290 1.383 . S
C1292 H1303 0.931 . S
C1293 C1290 1.382 . S
C1293 C1291 1.392 . S
C1294 Eu1265 2.828 . S
C1294 O1278 1.249 . S
C1294 O1279 1.244 . S
C1294 C1288 1.505 . S
C1295 O1282 1.258 . S
C1295 O1283 1.242 . S
H1296 C1268 0.939 . S
H1297 C1269 0.930 . S
H1298 C1270 0.930 . S
H1299 C1271 0.931 . S
H1300 C1289 0.930 . S
H1301 C1290 0.930 . S
H1302 C1291 0.930 . S
H1303 C1292 0.931 . S
Eu1304 C1313 2.828 . S
Eu1304 O1315 2.392 . S
Eu1304 O1317 2.418 . S
Eu1304 O1322 2.373 . S
Eu1304 O1325 2.488 . S
Eu1304 O1326 2.471 . S
Eu1304 O1327 2.349 . S
Eu1305 O1314 2.373 . S
Eu1305 O1318 2.488 . S
Eu1305 O1319 2.471 . S
Eu1305 O1320 2.349 . S
Eu1305 O1323 2.392 . S
Eu1305 O1324 2.418 . S
Eu1305 C1334 2.828 . S
C1306 O1324 1.244 . S
C1306 O1327 1.265 . S
C1307 C1308 1.379 . S
C1307 C1311 1.373 . S
C1307 C1313 1.505 . S
C1308 C1307 1.379 . S
C1308 C1310 1.369 . S
C1308 H1336 0.930 . S
C1309 C1311 1.383 . S
C1309 C1312 1.382 . S
C1309 H1337 0.930 . S
C1310 C1308 1.369 . S
C1310 C1312 1.392 . S
C1310 H1338 0.930 . S
C1311 C1307 1.373 . S
C1311 C1309 1.383 . S
C1311 H1339 0.931 . S
C1312 C1309 1.382 . S
C1312 C1310 1.392 . S
C1313 Eu1304 2.828 . S
C1313 C1307 1.505 . S
C1313 O1325 1.249 . S
C1313 O1326 1.244 . S
O1314 Eu1305 2.373 . S
O1314 C1316 1.258 . S
O1315 Eu1304 2.392 . S
O1315 C1316 1.242 . S
C1316 O1314 1.258 . S
C1316 O1315 1.242 . S
O1317 Eu1304 2.418 . S
O1317 C1321 1.244 . S
O1318 Eu1305 2.488 . S
O1318 C1334 1.249 . S
O1319 Eu1305 2.471 . S
O1319 C1334 1.244 . S
O1320 Eu1305 2.349 . S
O1320 C1321 1.265 . S
C1321 O1317 1.244 . S
C1321 O1320 1.265 . S
O1322 Eu1304 2.373 . S
O1322 C1335 1.258 . S
O1323 Eu1305 2.392 . S
O1323 C1335 1.242 . S
O1324 Eu1305 2.418 . S
O1324 C1306 1.244 . S
O1325 Eu1304 2.488 . S
O1325 C1313 1.249 . S
O1326 Eu1304 2.471 . S
O1326 C1313 1.244 . S
O1327 Eu1304 2.349 . S
O1327 C1306 1.265 . S
C1328 C1329 1.379 . S
C1328 C1332 1.373 . S
C1328 C1334 1.505 . S
C1329 C1328 1.379 . S
C1329 C1331 1.369 . S
C1329 H1340 0.930 . S
C1330 C1332 1.383 . S
C1330 C1333 1.382 . S
C1330 H1341 0.930 . S
C1331 C1329 1.369 . S
C1331 C1333 1.392 . S
C1331 H1342 0.930 . S
C1332 C1328 1.373 . S
C1332 C1330 1.383 . S
C1332 H1343 0.931 . S
C1333 C1330 1.382 . S
C1333 C1331 1.392 . S
C1334 Eu1305 2.828 . S
C1334 O1318 1.249 . S
C1334 O1319 1.244 . S
C1334 C1328 1.505 . S
C1335 O1322 1.258 . S
C1335 O1323 1.242 . S
H1336 C1308 0.930 . S
H1337 C1309 0.930 . S
H1338 C1310 0.930 . S
H1339 C1311 0.931 . S
H1340 C1329 0.930 . S
H1341 C1330 0.930 . S
H1342 C1331 0.930 . S
H1343 C1332 0.931 . S
Eu1344 C1353 2.828 . S
Eu1344 O1355 2.392 . S
Eu1344 O1357 2.418 . S
Eu1344 O1362 2.373 . S
Eu1344 O1365 2.488 . S
Eu1344 O1366 2.471 . S
Eu1344 O1367 2.349 . S
Eu1345 O1354 2.373 . S
Eu1345 O1358 2.488 . S
Eu1345 O1359 2.471 . S
Eu1345 O1360 2.349 . S
Eu1345 O1363 2.392 . S
Eu1345 O1364 2.418 . S
Eu1345 C1374 2.828 . S
C1346 O1364 1.244 . S
C1346 O1367 1.265 . S
C1347 C1348 1.379 . S
C1347 C1351 1.373 . S
C1347 C1353 1.505 . S
C1348 C1347 1.379 . S
C1348 C1350 1.369 . S
C1348 H1376 0.930 . S
C1349 C1351 1.383 . S
C1349 C1352 1.382 . S
C1349 H1377 0.930 . S
C1350 C1348 1.369 . S
C1350 C1352 1.392 . S
C1350 H1378 0.930 . S
C1351 C1347 1.373 . S
C1351 C1349 1.383 . S
C1351 H1379 0.931 . S
C1352 C1349 1.382 . S
C1352 C1350 1.392 . S
C1353 Eu1344 2.828 . S
C1353 C1347 1.505 . S
C1353 O1365 1.249 . S
C1353 O1366 1.244 . S
O1354 Eu1345 2.373 . S
O1354 C1356 1.258 . S
O1355 Eu1344 2.392 . S
O1355 C1356 1.242 . S
C1356 O1354 1.258 . S
C1356 O1355 1.242 . S
O1357 Eu1344 2.418 . S
O1357 C1361 1.244 . S
O1358 Eu1345 2.488 . S
O1358 C1374 1.249 . S
O1359 Eu1345 2.471 . S
O1359 C1374 1.244 . S
O1360 Eu1345 2.349 . S
O1360 C1361 1.265 . S
C1361 O1357 1.244 . S
C1361 O1360 1.265 . S
O1362 Eu1344 2.373 . S
O1362 C1375 1.258 . S
O1363 Eu1345 2.392 . S
O1363 C1375 1.242 . S
O1364 Eu1345 2.418 . S
O1364 C1346 1.244 . S
O1365 Eu1344 2.488 . S
O1365 C1353 1.249 . S
O1366 Eu1344 2.471 . S
O1366 C1353 1.244 . S
O1367 Eu1344 2.349 . S
O1367 C1346 1.265 . S
C1368 C1369 1.379 . S
C1368 C1372 1.373 . S
C1368 C1374 1.505 . S
C1369 C1368 1.379 . S
C1369 C1371 1.369 . S
C1369 H1380 0.930 . S
C1370 C1372 1.383 . S
C1370 C1373 1.382 . S
C1370 H1381 0.930 . S
C1371 C1369 1.369 . S
C1371 C1373 1.392 . S
C1371 H1382 0.930 . S
C1372 C1368 1.373 . S
C1372 C1370 1.383 . S
C1372 H1383 0.931 . S
C1373 C1370 1.382 . S
C1373 C1371 1.392 . S
C1374 Eu1345 2.828 . S
C1374 O1358 1.249 . S
C1374 O1359 1.244 . S
C1374 C1368 1.505 . S
C1375 O1362 1.258 . S
C1375 O1363 1.242 . S
H1376 C1348 0.930 . S
H1377 C1349 0.930 . S
H1378 C1350 0.930 . S
H1379 C1351 0.931 . S
H1380 C1369 0.930 . S
H1381 C1370 0.930 . S
H1382 C1371 0.930 . S
H1383 C1372 0.931 . S
Eu1384 C1393 2.828 . S
Eu1384 O1395 2.392 . S
Eu1384 O1397 2.418 . S
Eu1384 O1402 2.373 . S
Eu1384 O1405 2.488 . S
Eu1384 O1406 2.471 . S
Eu1384 O1407 2.349 . S
Eu1385 O1394 2.373 . S
Eu1385 O1398 2.488 . S
Eu1385 O1399 2.471 . S
Eu1385 O1400 2.349 . S
Eu1385 O1403 2.392 . S
Eu1385 O1404 2.418 . S
Eu1385 C1414 2.828 . S
C1386 O1404 1.244 . S
C1386 O1407 1.265 . S
C1387 C1388 1.379 . S
C1387 C1391 1.373 . S
C1387 C1393 1.505 . S
C1388 C1387 1.379 . S
C1388 C1390 1.369 . S
C1388 H1416 0.930 . S
C1389 C1391 1.383 . S
C1389 C1392 1.382 . S
C1389 H1417 0.930 . S
C1390 C1388 1.369 . S
C1390 C1392 1.392 . S
C1390 H1418 0.930 . S
C1391 C1387 1.373 . S
C1391 C1389 1.383 . S
C1391 H1419 0.931 . S
C1392 C1389 1.382 . S
C1392 C1390 1.392 . S
C1393 Eu1384 2.828 . S
C1393 C1387 1.505 . S
C1393 O1405 1.249 . S
C1393 O1406 1.244 . S
O1394 Eu1385 2.373 . S
O1394 C1396 1.258 . S
O1395 Eu1384 2.392 . S
O1395 C1396 1.242 . S
C1396 O1394 1.258 . S
C1396 O1395 1.242 . S
O1397 Eu1384 2.418 . S
O1397 C1401 1.244 . S
O1398 Eu1385 2.488 . S
O1398 C1414 1.249 . S
O1399 Eu1385 2.471 . S
O1399 C1414 1.244 . S
O1400 Eu1385 2.349 . S
O1400 C1401 1.265 . S
C1401 O1397 1.244 . S
C1401 O1400 1.265 . S
O1402 Eu1384 2.373 . S
O1402 C1415 1.258 . S
O1403 Eu1385 2.392 . S
O1403 C1415 1.242 . S
O1404 Eu1385 2.418 . S
O1404 C1386 1.244 . S
O1405 Eu1384 2.488 . S
O1405 C1393 1.249 . S
O1406 Eu1384 2.471 . S
O1406 C1393 1.244 . S
O1407 Eu1384 2.349 . S
O1407 C1386 1.265 . S
C1408 C1409 1.379 . S
C1408 C1412 1.373 . S
C1408 C1414 1.505 . S
C1409 C1408 1.379 . S
C1409 C1411 1.369 . S
C1409 H1420 0.930 . S
C1410 C1412 1.383 . S
C1410 C1413 1.382 . S
C1410 H1421 0.930 . S
C1411 C1409 1.369 . S
C1411 C1413 1.392 . S
C1411 H1422 0.930 . S
C1412 C1408 1.373 . S
C1412 C1410 1.383 . S
C1412 H1423 0.931 . S
C1413 C1410 1.382 . S
C1413 C1411 1.392 . S
C1414 Eu1385 2.828 . S
C1414 O1398 1.249 . S
C1414 O1399 1.244 . S
C1414 C1408 1.505 . S
C1415 O1402 1.258 . S
C1415 O1403 1.242 . S
H1416 C1388 0.930 . S
H1417 C1389 0.930 . S
H1418 C1390 0.930 . S
H1419 C1391 0.931 . S
H1420 C1409 0.930 . S
H1421 C1410 0.930 . S
H1422 C1411 0.930 . S
H1423 C1412 0.931 . S
Eu1424 C1433 2.828 . S
Eu1424 O1435 2.392 . S
Eu1424 O1437 2.418 . S
Eu1424 O1442 2.373 . S
Eu1424 O1445 2.488 . S
Eu1424 O1446 2.471 . S
Eu1424 O1447 2.349 . S
Eu1425 O1434 2.373 . S
Eu1425 O1438 2.488 . S
Eu1425 O1439 2.471 . S
Eu1425 O1440 2.349 . S
Eu1425 O1443 2.392 . S
Eu1425 O1444 2.418 . S
Eu1425 C1454 2.828 . S
C1426 O1444 1.244 . S
C1426 O1447 1.265 . S
C1427 C1428 1.379 . S
C1427 C1431 1.373 . S
C1427 C1433 1.505 . S
C1428 C1427 1.379 . S
C1428 C1430 1.369 . S
C1428 H1456 0.930 . S
C1429 C1431 1.383 . S
C1429 C1432 1.382 . S
C1429 H1457 0.930 . S
C1430 C1428 1.369 . S
C1430 C1432 1.392 . S
C1430 H1458 0.930 . S
C1431 C1427 1.373 . S
C1431 C1429 1.383 . S
C1431 H1459 0.931 . S
C1432 C1429 1.382 . S
C1432 C1430 1.392 . S
C1433 Eu1424 2.828 . S
C1433 C1427 1.505 . S
C1433 O1445 1.249 . S
C1433 O1446 1.244 . S
O1434 Eu1425 2.373 . S
O1434 C1436 1.258 . S
O1435 Eu1424 2.392 . S
O1435 C1436 1.242 . S
C1436 O1434 1.258 . S
C1436 O1435 1.242 . S
O1437 Eu1424 2.418 . S
O1437 C1441 1.244 . S
O1438 Eu1425 2.488 . S
O1438 C1454 1.249 . S
O1439 Eu1425 2.471 . S
O1439 C1454 1.244 . S
O1440 Eu1425 2.349 . S
O1440 C1441 1.265 . S
C1441 O1437 1.244 . S
C1441 O1440 1.265 . S
O1442 Eu1424 2.373 . S
O1442 C1455 1.258 . S
O1443 Eu1425 2.392 . S
O1443 C1455 1.242 . S
O1444 Eu1425 2.418 . S
O1444 C1426 1.244 . S
O1445 Eu1424 2.488 . S
O1445 C1433 1.249 . S
O1446 Eu1424 2.471 . S
O1446 C1433 1.244 . S
O1447 Eu1424 2.349 . S
O1447 C1426 1.265 . S
C1448 C1449 1.379 . S
C1448 C1452 1.373 . S
C1448 C1454 1.505 . S
C1449 C1448 1.379 . S
C1449 C1451 1.369 . S
C1449 H1460 0.930 . S
C1450 C1452 1.383 . S
C1450 C1453 1.382 . S
C1450 H1461 0.930 . S
C1451 C1449 1.369 . S
C1451 C1453 1.392 . S
C1451 H1462 0.930 . S
C1452 C1448 1.373 . S
C1452 C1450 1.383 . S
C1452 H1463 0.931 . S
C1453 C1450 1.382 . S
C1453 C1451 1.392 . S
C1454 Eu1425 2.828 . S
C1454 O1438 1.249 . S
C1454 O1439 1.244 . S
C1454 C1448 1.505 . S
C1455 O1442 1.258 . S
C1455 O1443 1.242 . S
H1456 C1428 0.930 . S
H1457 C1429 0.930 . S
H1458 C1430 0.930 . S
H1459 C1431 0.931 . S
H1460 C1449 0.930 . S
H1461 C1450 0.930 . S
H1462 C1451 0.930 . S
H1463 C1452 0.931 . S
Eu1464 C1473 2.828 1_554 S
Eu1464 O1475 2.392 . S
Eu1464 O1477 2.418 1_554 S
Eu1464 O1482 2.373 1_554 S
Eu1464 O1485 2.488 1_554 S
Eu1464 O1486 2.471 . S
Eu1464 O1487 2.349 . S
Eu1465 O1474 2.373 . S
Eu1465 O1478 2.488 1_455 S
Eu1465 O1479 2.471 1_455 S
Eu1465 O1480 2.349 1_554 S
Eu1465 O1483 2.392 . S
Eu1465 O1484 2.418 . S
Eu1465 C1494 2.828 1_455 S
C1466 O1484 1.244 . S
C1466 O1487 1.265 . S
C1467 C1468 1.379 1_556 S
C1467 C1471 1.373 . S
C1467 C1473 1.505 . S
C1468 C1467 1.379 1_554 S
C1468 C1470 1.369 . S
C1468 H1496 0.930 . S
C1469 C1471 1.383 . S
C1469 C1472 1.382 . S
C1469 H1497 0.930 . S
C1470 C1468 1.369 . S
C1470 C1472 1.392 1_554 S
C1470 H1498 0.930 . S
C1471 C1467 1.373 . S
C1471 C1469 1.383 . S
C1471 H1499 0.931 . S
C1472 C1469 1.382 . S
C1472 C1470 1.392 1_556 S
C1473 Eu1464 2.828 1_556 S
C1473 C1467 1.505 . S
C1473 O1485 1.249 . S
C1473 O1486 1.244 1_556 S
O1474 Eu1465 2.373 . S
O1474 C1476 1.258 . S
O1475 Eu1464 2.392 . S
O1475 C1476 1.242 . S
C1476 O1474 1.258 . S
C1476 O1475 1.242 . S
O1477 Eu1464 2.418 1_556 S
O1477 C1481 1.244 . S
O1478 Eu1465 2.488 1_655 S
O1478 C1494 1.249 . S
O1479 Eu1465 2.471 1_655 S
O1479 C1494 1.244 . S
O1480 Eu1465 2.349 1_556 S
O1480 C1481 1.265 . S
C1481 O1477 1.244 . S
C1481 O1480 1.265 . S
O1482 Eu1464 2.373 1_556 S
O1482 C1495 1.258 1_556 S
O1483 Eu1465 2.392 . S
O1483 C1495 1.242 . S
O1484 Eu1465 2.418 . S
O1484 C1466 1.244 . S
O1485 Eu1464 2.488 1_556 S
O1485 C1473 1.249 . S
O1486 Eu1464 2.471 . S
O1486 C1473 1.244 1_554 S
O1487 Eu1464 2.349 . S
O1487 C1466 1.265 . S
C1488 C1489 1.379 . S
C1488 C1492 1.373 . S
C1488 C1494 1.505 . S
C1489 C1488 1.379 . S
C1489 C1491 1.369 . S
C1489 H1500 0.930 . S
C1490 C1492 1.383 . S
C1490 C1493 1.382 . S
C1490 H1501 0.930 . S
C1491 C1489 1.369 . S
C1491 C1493 1.392 . S
C1491 H1502 0.930 . S
C1492 C1488 1.373 . S
C1492 C1490 1.383 . S
C1492 H1503 0.931 . S
C1493 C1490 1.382 . S
C1493 C1491 1.392 . S
C1494 Eu1465 2.828 1_655 S
C1494 O1478 1.249 . S
C1494 O1479 1.244 . S
C1494 C1488 1.505 . S
C1495 O1482 1.258 1_554 S
C1495 O1483 1.242 . S
H1496 C1468 0.930 . S
H1497 C1469 0.930 . S
H1498 C1470 0.930 . S
H1499 C1471 0.931 . S
H1500 C1489 0.930 . S
H1501 C1490 0.930 . S
H1502 C1491 0.930 . S
H1503 C1492 0.931 . S
H1504 C1510 0.930 . S
H1505 C1514 0.930 1_655 S
H1506 C1519 0.929 . S
H1507 C1517 0.929 . S
H1508 C1512 0.929 1_655 S
H1509 C1518 0.929 . S
C1510 H1504 0.930 . S
C1510 C1511 1.367 . S
C1510 C1518 1.378 . S
C1511 C1510 1.367 . S
C1511 C1519 1.433 1_455 S
C1512 H1508 0.929 1_455 S
C1512 C1514 1.378 . S
C1512 C1516 1.350 . S
C1513 C1516 1.463 . S
C1513 C1518 1.350 . S
C1513 N1521 1.427 1_455 S
C1514 H1505 0.930 1_455 S
C1514 C1512 1.378 . S
C1514 C1515 1.367 . S
C1515 C1514 1.367 . S
C1515 C1517 1.433 . S
C1516 C1512 1.350 . S
C1516 C1513 1.463 . S
C1516 N1520 1.427 . S
C1517 H1507 0.929 . S
C1517 C1515 1.433 . S
C1517 N1520 1.384 . S
C1518 H1509 0.929 . S
C1518 C1510 1.378 . S
C1518 C1513 1.350 . S
C1519 H1506 0.929 . S
C1519 C1511 1.433 1_655 S
C1519 N1521 1.384 . S
N1520 C1516 1.427 . S
N1520 C1517 1.384 . S
N1521 C1513 1.427 1_655 S
N1521 C1519 1.384 . S
H1522 C1528 0.930 . S
H1523 C1532 0.930 . S
H1524 C1537 0.929 . S
H1525 C1535 0.929 . S
H1526 C1530 0.929 . S
H1527 C1536 0.929 . S
C1528 H1522 0.930 . S
C1528 C1529 1.367 . S
C1528 C1536 1.378 . S
C1529 C1528 1.367 . S
C1529 C1537 1.433 . S
C1530 H1526 0.929 . S
C1530 C1532 1.378 . S
C1530 C1534 1.350 . S
C1531 C1534 1.463 . S
C1531 C1536 1.350 . S
C1531 N1539 1.427 . S
C1532 H1523 0.930 . S
C1532 C1530 1.378 . S
C1532 C1533 1.367 . S
C1533 C1532 1.367 . S
C1533 C1535 1.433 . S
C1534 C1530 1.350 . S
C1534 C1531 1.463 . S
C1534 N1538 1.427 . S
C1535 H1525 0.929 . S
C1535 C1533 1.433 . S
C1535 N1538 1.384 . S
C1536 H1527 0.929 . S
C1536 C1528 1.378 . S
C1536 C1531 1.350 . S
C1537 H1524 0.929 . S
C1537 C1529 1.433 . S
C1537 N1539 1.384 . S
N1538 C1534 1.427 . S
N1538 C1535 1.384 . S
N1539 C1531 1.427 . S
N1539 C1537 1.384 . S
H1540 C1546 0.930 . S
H1541 C1550 0.930 . S
H1542 C1555 0.929 . S
H1543 C1553 0.929 . S
H1544 C1548 0.929 . S
H1545 C1554 0.929 . S
C1546 H1540 0.930 . S
C1546 C1547 1.367 . S
C1546 C1554 1.378 . S
C1547 C1546 1.367 . S
C1547 C1555 1.433 . S
C1548 H1544 0.929 . S
C1548 C1550 1.378 . S
C1548 C1552 1.350 . S
C1549 C1552 1.463 . S
C1549 C1554 1.350 . S
C1549 N1557 1.427 . S
C1550 H1541 0.930 . S
C1550 C1548 1.378 . S
C1550 C1551 1.367 . S
C1551 C1550 1.367 . S
C1551 C1553 1.433 . S
C1552 C1548 1.350 . S
C1552 C1549 1.463 . S
C1552 N1556 1.427 . S
C1553 H1543 0.929 . S
C1553 C1551 1.433 . S
C1553 N1556 1.384 . S
C1554 H1545 0.929 . S
C1554 C1546 1.378 . S
C1554 C1549 1.350 . S
C1555 H1542 0.929 . S
C1555 C1547 1.433 . S
C1555 N1557 1.384 . S
N1556 C1552 1.427 . S
N1556 C1553 1.384 . S
N1557 C1549 1.427 . S
N1557 C1555 1.384 . S
H1558 C1564 0.930 . S
H1559 C1568 0.930 . S
H1560 C1573 0.929 . S
H1561 C1571 0.929 . S
H1562 C1566 0.929 . S
H1563 C1572 0.929 . S
C1564 H1558 0.930 . S
C1564 C1565 1.367 . S
C1564 C1572 1.378 . S
C1565 C1564 1.367 . S
C1565 C1573 1.433 . S
C1566 H1562 0.929 . S
C1566 C1568 1.378 . S
C1566 C1570 1.350 . S
C1567 C1570 1.463 . S
C1567 C1572 1.350 . S
C1567 N1575 1.427 . S
C1568 H1559 0.930 . S
C1568 C1566 1.378 . S
C1568 C1569 1.367 . S
C1569 C1568 1.367 . S
C1569 C1571 1.433 . S
C1570 C1566 1.350 . S
C1570 C1567 1.463 . S
C1570 N1574 1.427 . S
C1571 H1561 0.929 . S
C1571 C1569 1.433 . S
C1571 N1574 1.384 . S
C1572 H1563 0.929 . S
C1572 C1564 1.378 . S
C1572 C1567 1.350 . S
C1573 H1560 0.929 . S
C1573 C1565 1.433 . S
C1573 N1575 1.384 . S
N1574 C1570 1.427 . S
N1574 C1571 1.384 . S
N1575 C1567 1.427 . S
N1575 C1573 1.384 . S
H1576 C1582 0.930 . S
H1577 C1586 0.930 . S
H1578 C1591 0.929 . S
H1579 C1589 0.929 . S
H1580 C1584 0.929 . S
H1581 C1590 0.929 . S
C1582 H1576 0.930 . S
C1582 C1583 1.367 . S
C1582 C1590 1.378 . S
C1583 C1582 1.367 . S
C1583 C1591 1.433 . S
C1584 H1580 0.929 . S
C1584 C1586 1.378 . S
C1584 C1588 1.350 . S
C1585 C1588 1.463 . S
C1585 C1590 1.350 . S
C1585 N1593 1.427 . S
C1586 H1577 0.930 . S
C1586 C1584 1.378 . S
C1586 C1587 1.367 . S
C1587 C1586 1.367 . S
C1587 C1589 1.433 . S
C1588 C1584 1.350 . S
C1588 C1585 1.463 . S
C1588 N1592 1.427 . S
C1589 H1579 0.929 . S
C1589 C1587 1.433 . S
C1589 N1592 1.384 . S
C1590 H1581 0.929 . S
C1590 C1582 1.378 . S
C1590 C1585 1.350 . S
C1591 H1578 0.929 . S
C1591 C1583 1.433 . S
C1591 N1593 1.384 . S
N1592 C1588 1.427 . S
N1592 C1589 1.384 . S
N1593 C1585 1.427 . S
N1593 C1591 1.384 . S
H1594 C1600 0.930 . S
H1595 C1604 0.930 . S
H1596 C1609 0.929 . S
H1597 C1607 0.929 . S
H1598 C1602 0.929 . S
H1599 C1608 0.929 . S
C1600 H1594 0.930 . S
C1600 C1601 1.367 . S
C1600 C1608 1.378 . S
C1601 C1600 1.367 . S
C1601 C1609 1.433 . S
C1602 H1598 0.929 . S
C1602 C1604 1.378 . S
C1602 C1606 1.350 . S
C1603 C1606 1.463 . S
C1603 C1608 1.350 . S
C1603 N1611 1.427 . S
C1604 H1595 0.930 . S
C1604 C1602 1.378 . S
C1604 C1605 1.367 . S
C1605 C1604 1.367 . S
C1605 C1607 1.433 . S
C1606 C1602 1.350 . S
C1606 C1603 1.463 . S
C1606 N1610 1.427 . S
C1607 H1597 0.929 . S
C1607 C1605 1.433 . S
C1607 N1610 1.384 . S
C1608 H1599 0.929 . S
C1608 C1600 1.378 . S
C1608 C1603 1.350 . S
C1609 H1596 0.929 . S
C1609 C1601 1.433 . S
C1609 N1611 1.384 . S
N1610 C1606 1.427 . S
N1610 C1607 1.384 . S
N1611 C1603 1.427 . S
N1611 C1609 1.384 . S
H1612 C1618 0.930 . S
H1613 C1622 0.930 . S
H1614 C1627 0.929 . S
H1615 C1625 0.929 . S
H1616 C1620 0.929 . S
H1617 C1626 0.929 . S
C1618 H1612 0.930 . S
C1618 C1619 1.367 . S
C1618 C1626 1.378 . S
C1619 C1618 1.367 . S
C1619 C1627 1.433 . S
C1620 H1616 0.929 . S
C1620 C1622 1.378 . S
C1620 C1624 1.350 . S
C1621 C1624 1.463 . S
C1621 C1626 1.350 . S
C1621 N1629 1.427 . S
C1622 H1613 0.930 . S
C1622 C1620 1.378 . S
C1622 C1623 1.367 . S
C1623 C1622 1.367 . S
C1623 C1625 1.433 . S
C1624 C1620 1.350 . S
C1624 C1621 1.463 . S
C1624 N1628 1.427 . S
C1625 H1615 0.929 . S
C1625 C1623 1.433 . S
C1625 N1628 1.384 . S
C1626 H1617 0.929 . S
C1626 C1618 1.378 . S
C1626 C1621 1.350 . S
C1627 H1614 0.929 . S
C1627 C1619 1.433 . S
C1627 N1629 1.384 . S
N1628 C1624 1.427 . S
N1628 C1625 1.384 . S
N1629 C1621 1.427 . S
N1629 C1627 1.384 . S
H1630 C1636 0.930 . S
H1631 C1640 0.930 . S
H1632 C1645 0.929 . S
H1633 C1643 0.929 . S
H1634 C1638 0.929 . S
H1635 C1644 0.929 . S
C1636 H1630 0.930 . S
C1636 C1637 1.367 . S
C1636 C1644 1.378 . S
C1637 C1636 1.367 . S
C1637 C1645 1.433 . S
C1638 H1634 0.929 . S
C1638 C1640 1.378 . S
C1638 C1642 1.350 . S
C1639 C1642 1.463 . S
C1639 C1644 1.350 . S
C1639 N1647 1.427 . S
C1640 H1631 0.930 . S
C1640 C1638 1.378 . S
C1640 C1641 1.367 . S
C1641 C1640 1.367 . S
C1641 C1643 1.433 . S
C1642 C1638 1.350 . S
C1642 C1639 1.463 . S
C1642 N1646 1.427 . S
C1643 H1633 0.929 . S
C1643 C1641 1.433 . S
C1643 N1646 1.384 . S
C1644 H1635 0.929 . S
C1644 C1636 1.378 . S
C1644 C1639 1.350 . S
C1645 H1632 0.929 . S
C1645 C1637 1.433 . S
C1645 N1647 1.384 . S
N1646 C1642 1.427 . S
N1646 C1643 1.384 . S
N1647 C1639 1.427 . S
N1647 C1645 1.384 . S
H1648 C1654 0.930 . S
H1649 C1658 0.930 . S
H1650 C1663 0.929 . S
H1651 C1661 0.929 . S
H1652 C1656 0.929 . S
H1653 C1662 0.929 . S
C1654 H1648 0.930 . S
C1654 C1655 1.367 . S
C1654 C1662 1.378 . S
C1655 C1654 1.367 . S
C1655 C1663 1.433 . S
C1656 H1652 0.929 . S
C1656 C1658 1.378 . S
C1656 C1660 1.350 . S
C1657 C1660 1.463 1_655 S
C1657 C1662 1.350 . S
C1657 N1665 1.430 . S
C1658 H1649 0.930 . S
C1658 C1656 1.378 . S
C1658 C1659 1.367 . S
C1659 C1658 1.367 . S
C1659 C1661 1.433 . S
C1660 C1656 1.350 . S
C1660 C1657 1.463 1_455 S
C1660 N1664 1.427 1_455 S
C1661 H1651 0.929 . S
C1661 C1659 1.433 . S
C1661 N1664 1.384 1_455 S
C1662 H1653 0.929 . S
C1662 C1654 1.378 . S
C1662 C1657 1.350 . S
C1663 H1650 0.929 . S
C1663 C1655 1.433 . S
C1663 N1665 1.405 . S
N1664 C1660 1.427 1_655 S
N1664 C1661 1.384 1_655 S
N1665 C1657 1.430 . S
N1665 C1663 1.405 . S
H1666 C1672 0.930 . S
H1667 C1676 0.930 . S
H1668 C1681 0.929 . S
H1669 C1679 0.929 . S
H1670 C1674 0.929 . S
H1671 C1680 0.929 . S
C1672 H1666 0.930 . S
C1672 C1673 1.367 . S
C1672 C1680 1.378 . S
C1673 C1672 1.367 . S
C1673 C1681 1.433 . S
C1674 H1670 0.929 . S
C1674 C1676 1.378 . S
C1674 C1678 1.350 . S
C1675 C1678 1.463 . S
C1675 C1680 1.350 . S
C1675 N1683 1.427 . S
C1676 H1667 0.930 . S
C1676 C1674 1.378 . S
C1676 C1677 1.367 . S
C1677 C1676 1.367 . S
C1677 C1679 1.433 . S
C1678 C1674 1.350 . S
C1678 C1675 1.463 . S
C1678 N1682 1.427 . S
C1679 H1669 0.929 . S
C1679 C1677 1.433 . S
C1679 N1682 1.384 . S
C1680 H1671 0.929 . S
C1680 C1672 1.378 . S
C1680 C1675 1.350 . S
C1681 H1668 0.929 . S
C1681 C1673 1.433 . S
C1681 N1683 1.384 . S
N1682 C1678 1.427 . S
N1682 C1679 1.384 . S
N1683 C1675 1.427 . S
N1683 C1681 1.384 . S
H1684 C1690 0.930 . S
H1685 C1694 0.930 . S
H1686 C1699 0.929 . S
H1687 C1697 0.929 . S
H1688 C1692 0.929 . S
H1689 C1698 0.929 . S
C1690 H1684 0.930 . S
C1690 C1691 1.367 . S
C1690 C1698 1.378 . S
C1691 C1690 1.367 . S
C1691 C1699 1.433 . S
C1692 H1688 0.929 . S
C1692 C1694 1.378 . S
C1692 C1696 1.350 . S
C1693 C1696 1.463 . S
C1693 C1698 1.350 . S
C1693 N1701 1.427 . S
C1694 H1685 0.930 . S
C1694 C1692 1.378 . S
C1694 C1695 1.367 . S
C1695 C1694 1.367 . S
C1695 C1697 1.433 . S
C1696 C1692 1.350 . S
C1696 C1693 1.463 . S
C1696 N1700 1.427 . S
C1697 H1687 0.929 . S
C1697 C1695 1.433 . S
C1697 N1700 1.384 . S
C1698 H1689 0.929 . S
C1698 C1690 1.378 . S
C1698 C1693 1.350 . S
C1699 H1686 0.929 . S
C1699 C1691 1.433 . S
C1699 N1701 1.384 . S
N1700 C1696 1.427 . S
N1700 C1697 1.384 . S
N1701 C1693 1.427 . S
N1701 C1699 1.384 . S
H1702 C1708 0.930 . S
H1703 C1712 0.930 . S
H1704 C1717 0.929 . S
H1705 C1715 0.929 . S
H1706 C1710 0.929 . S
H1707 C1716 0.929 . S
C1708 H1702 0.930 . S
C1708 C1709 1.367 . S
C1708 C1716 1.378 . S
C1709 C1708 1.367 . S
C1709 C1717 1.433 . S
C1710 H1706 0.929 . S
C1710 C1712 1.378 . S
C1710 C1714 1.350 . S
C1711 C1714 1.463 . S
C1711 C1716 1.350 . S
C1711 N1719 1.427 . S
C1712 H1703 0.930 . S
C1712 C1710 1.378 . S
C1712 C1713 1.367 . S
C1713 C1712 1.367 . S
C1713 C1715 1.433 . S
C1714 C1710 1.350 . S
C1714 C1711 1.463 . S
C1714 N1718 1.427 . S
C1715 H1705 0.929 . S
C1715 C1713 1.433 . S
C1715 N1718 1.384 . S
C1716 H1707 0.929 . S
C1716 C1708 1.378 . S
C1716 C1711 1.350 . S
C1717 H1704 0.929 . S
C1717 C1709 1.433 . S
C1717 N1719 1.384 . S
N1718 C1714 1.427 . S
N1718 C1715 1.384 . S
N1719 C1711 1.427 . S
N1719 C1717 1.384 . S
H1720 C1726 0.930 . S
H1721 C1730 0.930 . S
H1722 C1735 0.929 . S
H1723 C1733 0.929 . S
H1724 C1728 0.929 1_655 S
H1725 C1734 0.929 . S
C1726 H1720 0.930 . S
C1726 C1727 1.367 . S
C1726 C1734 1.378 . S
C1727 C1726 1.367 . S
C1727 C1735 1.433 . S
C1728 H1724 0.929 1_455 S
C1728 C1730 1.378 . S
C1728 C1732 1.350 . S
C1729 C1732 1.463 1_655 S
C1729 C1734 1.350 . S
C1729 N1737 1.427 . S
C1730 H1721 0.930 . S
C1730 C1728 1.378 . S
C1730 C1731 1.367 . S
C1731 C1730 1.367 . S
C1731 C1733 1.433 . S
C1732 C1728 1.350 . S
C1732 C1729 1.463 1_455 S
C1732 N1736 1.427 . S
C1733 H1723 0.929 . S
C1733 C1731 1.433 . S
C1733 N1736 1.384 . S
C1734 H1725 0.929 . S
C1734 C1726 1.378 . S
C1734 C1729 1.350 . S
C1735 H1722 0.929 . S
C1735 C1727 1.433 . S
C1735 N1737 1.384 . S
N1736 C1732 1.427 . S
N1736 C1733 1.384 . S
N1737 C1729 1.427 . S
N1737 C1735 1.384 . S
H1738 C1744 0.930 . S
H1739 C1748 0.930 . S
H1740 C1753 0.929 . S
H1741 C1751 0.929 . S
H1742 C1746 0.929 . S
H1743 C1752 0.929 . S
C1744 H1738 0.930 . S
C1744 C1745 1.367 . S
C1744 C1752 1.378 . S
C1745 C1744 1.367 . S
C1745 C1753 1.433 . S
C1746 H1742 0.929 . S
C1746 C1748 1.378 . S
C1746 C1750 1.350 . S
C1747 C1750 1.463 . S
C1747 C1752 1.350 . S
C1747 N1755 1.427 . S
C1748 H1739 0.930 . S
C1748 C1746 1.378 . S
C1748 C1749 1.367 . S
C1749 C1748 1.367 . S
C1749 C1751 1.433 . S
C1750 C1746 1.350 . S
C1750 C1747 1.463 . S
C1750 N1754 1.427 . S
C1751 H1741 0.929 . S
C1751 C1749 1.433 . S
C1751 N1754 1.384 . S
C1752 H1743 0.929 . S
C1752 C1744 1.378 . S
C1752 C1747 1.350 . S
C1753 H1740 0.929 . S
C1753 C1745 1.433 . S
C1753 N1755 1.384 . S
N1754 C1750 1.427 . S
N1754 C1751 1.384 . S
N1755 C1747 1.427 . S
N1755 C1753 1.384 . S
H1756 C1762 0.930 . S
H1757 C1766 0.930 . S
H1758 C1771 0.929 . S
H1759 C1769 0.929 . S
H1760 C1764 0.929 . S
H1761 C1770 0.929 . S
C1762 H1756 0.930 . S
C1762 C1763 1.367 . S
C1762 C1770 1.378 . S
C1763 C1762 1.367 . S
C1763 C1771 1.433 . S
C1764 H1760 0.929 . S
C1764 C1766 1.378 . S
C1764 C1768 1.350 . S
C1765 C1768 1.463 . S
C1765 C1770 1.350 . S
C1765 N1773 1.427 . S
C1766 H1757 0.930 . S
C1766 C1764 1.378 . S
C1766 C1767 1.367 . S
C1767 C1766 1.367 . S
C1767 C1769 1.433 . S
C1768 C1764 1.350 . S
C1768 C1765 1.463 . S
C1768 N1772 1.427 . S
C1769 H1759 0.929 . S
C1769 C1767 1.433 . S
C1769 N1772 1.384 . S
C1770 H1761 0.929 . S
C1770 C1762 1.378 . S
C1770 C1765 1.350 . S
C1771 H1758 0.929 . S
C1771 C1763 1.433 . S
C1771 N1773 1.384 . S
N1772 C1768 1.427 . S
N1772 C1769 1.384 . S
N1773 C1765 1.427 . S
N1773 C1771 1.384 . S
H1774 C1780 0.930 . S
H1775 C1784 0.930 . S
H1776 C1789 0.929 . S
H1777 C1787 0.929 . S
H1778 C1782 0.929 . S
H1779 C1788 0.929 . S
C1780 H1774 0.930 . S
C1780 C1781 1.367 . S
C1780 C1788 1.378 . S
C1781 C1780 1.367 . S
C1781 C1789 1.433 . S
C1782 H1778 0.929 . S
C1782 C1784 1.378 . S
C1782 C1786 1.350 . S
C1783 C1786 1.463 . S
C1783 C1788 1.350 . S
C1783 N1791 1.427 . S
C1784 H1775 0.930 . S
C1784 C1782 1.378 . S
C1784 C1785 1.367 . S
C1785 C1784 1.367 . S
C1785 C1787 1.433 . S
C1786 C1782 1.350 . S
C1786 C1783 1.463 . S
C1786 N1790 1.427 . S
C1787 H1777 0.929 . S
C1787 C1785 1.433 . S
C1787 N1790 1.384 . S
C1788 H1779 0.929 . S
C1788 C1780 1.378 . S
C1788 C1783 1.350 . S
C1789 H1776 0.929 . S
C1789 C1781 1.433 . S
C1789 N1791 1.384 . S
N1790 C1786 1.427 . S
N1790 C1787 1.384 . S
N1791 C1783 1.427 . S
N1791 C1789 1.384 . S
H1792 C1798 0.930 . S
H1793 C1802 0.930 . S
H1794 C1807 0.929 . S
H1795 C1805 0.929 1_556 S
H1796 C1800 0.929 . S
H1797 C1806 0.929 . S
C1798 H1792 0.930 . S
C1798 C1799 1.367 1_556 S
C1798 C1806 1.378 . S
C1799 C1798 1.367 1_554 S
C1799 C1807 1.433 . S
C1800 H1796 0.929 . S
C1800 C1802 1.378 . S
C1800 C1804 1.350 1_545 S
C1801 C1804 1.463 . S
C1801 C1806 1.350 1_554 S
C1801 N1809 1.427 . S
C1802 H1793 0.930 . S
C1802 C1800 1.378 . S
C1802 C1803 1.367 . S
C1803 C1802 1.367 . S
C1803 C1805 1.433 1_545 S
C1804 C1800 1.350 1_565 S
C1804 C1801 1.463 . S
C1804 N1808 1.461 . S
C1805 H1795 0.929 1_554 S
C1805 C1803 1.433 1_565 S
C1805 N1808 1.389 . S
C1806 H1797 0.929 . S
C1806 C1798 1.378 . S
C1806 C1801 1.350 1_556 S
C1807 H1794 0.929 . S
C1807 C1799 1.433 . S
C1807 N1809 1.384 . S
N1808 C1804 1.461 . S
N1808 C1805 1.389 . S
N1809 C1801 1.427 . S
N1809 C1807 1.384 . S
H1810 C1816 0.930 . S
H1811 C1820 0.930 . S
H1812 C1825 0.929 . S
H1813 C1823 0.929 . S
H1814 C1818 0.929 . S
H1815 C1824 0.929 . S
C1816 H1810 0.930 . S
C1816 C1817 1.367 1_556 S
C1816 C1824 1.378 . S
C1817 C1816 1.367 1_554 S
C1817 C1825 1.433 . S
C1818 H1814 0.929 . S
C1818 C1820 1.378 . S
C1818 C1822 1.350 . S
C1819 C1822 1.463 . S
C1819 C1824 1.350 1_554 S
C1819 N1827 1.427 . S
C1820 H1811 0.930 . S
C1820 C1818 1.378 . S
C1820 C1821 1.367 . S
C1821 C1820 1.367 . S
C1821 C1823 1.433 1_554 S
C1822 C1818 1.350 . S
C1822 C1819 1.463 . S
C1822 N1826 1.427 1_554 S
C1823 H1813 0.929 . S
C1823 C1821 1.433 1_556 S
C1823 N1826 1.384 . S
C1824 H1815 0.929 . S
C1824 C1816 1.378 . S
C1824 C1819 1.350 1_556 S
C1825 H1812 0.929 . S
C1825 C1817 1.433 . S
C1825 N1827 1.384 . S
N1826 C1822 1.427 1_556 S
N1826 C1823 1.384 . S
N1827 C1819 1.427 . S
N1827 C1825 1.384 . S
H1828 C1834 0.930 . S
H1829 C1838 0.930 . S
H1830 C1843 0.929 . S
H1831 C1841 0.929 . S
H1832 C1836 0.929 . S
H1833 C1842 0.929 . S
C1834 H1828 0.930 . S
C1834 C1835 1.367 . S
C1834 C1842 1.378 . S
C1835 C1834 1.367 . S
C1835 C1843 1.433 . S
C1836 H1832 0.929 . S
C1836 C1838 1.378 . S
C1836 C1840 1.350 . S
C1837 C1840 1.463 . S
C1837 C1842 1.350 . S
C1837 N1845 1.427 . S
C1838 H1829 0.930 . S
C1838 C1836 1.378 . S
C1838 C1839 1.367 . S
C1839 C1838 1.367 . S
C1839 C1841 1.433 . S
C1840 C1836 1.350 . S
C1840 C1837 1.463 . S
C1840 N1844 1.427 . S
C1841 H1831 0.929 . S
C1841 C1839 1.433 . S
C1841 N1844 1.384 . S
C1842 H1833 0.929 . S
C1842 C1834 1.378 . S
C1842 C1837 1.350 . S
C1843 H1830 0.929 . S
C1843 C1835 1.433 . S
C1843 N1845 1.384 . S
N1844 C1840 1.427 . S
N1844 C1841 1.384 . S
N1845 C1837 1.427 . S
N1845 C1843 1.384 . S
H1846 C1852 0.930 . S
H1847 C1856 0.930 . S
H1848 C1861 0.929 . S
H1849 C1859 0.929 . S
H1850 C1854 0.929 . S
H1851 C1860 0.929 . S
C1852 H1846 0.930 . S
C1852 C1853 1.367 . S
C1852 C1860 1.378 . S
C1853 C1852 1.367 . S
C1853 C1861 1.433 . S
C1854 H1850 0.929 . S
C1854 C1856 1.378 . S
C1854 C1858 1.350 . S
C1855 C1858 1.463 . S
C1855 C1860 1.350 . S
C1855 N1863 1.427 . S
C1856 H1847 0.930 . S
C1856 C1854 1.378 . S
C1856 C1857 1.367 . S
C1857 C1856 1.367 . S
C1857 C1859 1.433 . S
C1858 C1854 1.350 . S
C1858 C1855 1.463 . S
C1858 N1862 1.427 . S
C1859 H1849 0.929 . S
C1859 C1857 1.433 . S
C1859 N1862 1.384 . S
C1860 H1851 0.929 . S
C1860 C1852 1.378 . S
C1860 C1855 1.350 . S
C1861 H1848 0.929 . S
C1861 C1853 1.433 . S
C1861 N1863 1.384 . S
N1862 C1858 1.427 . S
N1862 C1859 1.384 . S
N1863 C1855 1.427 . S
N1863 C1861 1.384 . S
H1864 C1870 0.930 . S
H1865 C1874 0.930 . S
H1866 C1879 0.929 . S
H1867 C1877 0.929 . S
H1868 C1872 0.929 . S
H1869 C1878 0.929 . S
C1870 H1864 0.930 . S
C1870 C1871 1.367 . S
C1870 C1878 1.378 . S
C1871 C1870 1.367 . S
C1871 C1879 1.433 . S
C1872 H1868 0.929 . S
C1872 C1874 1.378 . S
C1872 C1876 1.350 . S
C1873 C1876 1.463 . S
C1873 C1878 1.350 . S
C1873 N1881 1.427 . S
C1874 H1865 0.930 . S
C1874 C1872 1.378 . S
C1874 C1875 1.367 . S
C1875 C1874 1.367 . S
C1875 C1877 1.433 . S
C1876 C1872 1.350 . S
C1876 C1873 1.463 . S
C1876 N1880 1.427 . S
C1877 H1867 0.929 . S
C1877 C1875 1.433 . S
C1877 N1880 1.384 . S
C1878 H1869 0.929 . S
C1878 C1870 1.378 . S
C1878 C1873 1.350 . S
C1879 H1866 0.929 . S
C1879 C1871 1.433 . S
C1879 N1881 1.384 . S
N1880 C1876 1.427 . S
N1880 C1877 1.384 . S
N1881 C1873 1.427 . S
N1881 C1879 1.384 . S
H1882 C1888 0.930 . S
H1883 C1892 0.930 . S
H1884 C1897 0.929 . S
H1885 C1895 0.929 . S
H1886 C1890 0.929 . S
H1887 C1896 0.929 . S
C1888 H1882 0.930 . S
C1888 C1889 1.367 . S
C1888 C1896 1.378 . S
C1889 C1888 1.367 . S
C1889 C1897 1.433 . S
C1890 H1886 0.929 . S
C1890 C1892 1.378 . S
C1890 C1894 1.350 . S
C1891 C1894 1.463 . S
C1891 C1896 1.350 . S
C1891 N1899 1.427 . S
C1892 H1883 0.930 . S
C1892 C1890 1.378 . S
C1892 C1893 1.367 . S
C1893 C1892 1.367 . S
C1893 C1895 1.433 . S
C1894 C1890 1.350 . S
C1894 C1891 1.463 . S
C1894 N1898 1.427 . S
C1895 H1885 0.929 . S
C1895 C1893 1.433 . S
C1895 N1898 1.384 . S
C1896 H1887 0.929 . S
C1896 C1888 1.378 . S
C1896 C1891 1.350 . S
C1897 H1884 0.929 . S
C1897 C1889 1.433 . S
C1897 N1899 1.384 . S
N1898 C1894 1.427 . S
N1898 C1895 1.384 . S
N1899 C1891 1.427 . S
N1899 C1897 1.384 . S
H1900 C1906 0.930 . S
H1901 C1910 0.930 . S
H1902 C1915 0.929 . S
H1903 C1913 0.929 . S
H1904 C1908 0.929 . S
H1905 C1914 0.929 . S
C1906 H1900 0.930 . S
C1906 C1907 1.367 . S
C1906 C1914 1.378 . S
C1907 C1906 1.367 . S
C1907 C1915 1.433 . S
C1908 H1904 0.929 . S
C1908 C1910 1.378 . S
C1908 C1912 1.350 . S
C1909 C1912 1.463 . S
C1909 C1914 1.350 . S
C1909 N1917 1.427 . S
C1910 H1901 0.930 . S
C1910 C1908 1.378 . S
C1910 C1911 1.367 . S
C1911 C1910 1.367 . S
C1911 C1913 1.433 . S
C1912 C1908 1.350 . S
C1912 C1909 1.463 . S
C1912 N1916 1.427 . S
C1913 H1903 0.929 . S
C1913 C1911 1.433 . S
C1913 N1916 1.384 . S
C1914 H1905 0.929 . S
C1914 C1906 1.378 . S
C1914 C1909 1.350 . S
C1915 H1902 0.929 . S
C1915 C1907 1.433 . S
C1915 N1917 1.384 . S
N1916 C1912 1.427 . S
N1916 C1913 1.384 . S
N1917 C1909 1.427 . S
N1917 C1915 1.384 . S
H1918 C1924 0.930 . S
H1919 C1928 0.930 . S
H1920 C1933 0.929 . S
H1921 C1931 0.929 . S
H1922 C1926 0.929 . S
H1923 C1932 0.929 . S
C1924 H1918 0.930 . S
C1924 C1925 1.367 . S
C1924 C1932 1.378 . S
C1925 C1924 1.367 . S
C1925 C1933 1.433 . S
C1926 H1922 0.929 . S
C1926 C1928 1.378 . S
C1926 C1930 1.350 . S
C1927 C1930 1.463 . S
C1927 C1932 1.350 . S
C1927 N1935 1.427 . S
C1928 H1919 0.930 . S
C1928 C1926 1.378 . S
C1928 C1929 1.367 . S
C1929 C1928 1.367 . S
C1929 C1931 1.433 . S
C1930 C1926 1.350 . S
C1930 C1927 1.463 . S
C1930 N1934 1.427 . S
C1931 H1921 0.929 . S
C1931 C1929 1.433 . S
C1931 N1934 1.384 . S
C1932 H1923 0.929 . S
C1932 C1924 1.378 . S
C1932 C1927 1.350 . S
C1933 H1920 0.929 . S
C1933 C1925 1.433 . S
C1933 N1935 1.384 . S
N1934 C1930 1.427 . S
N1934 C1931 1.384 . S
N1935 C1927 1.427 . S
N1935 C1933 1.384 . S
H1936 C1942 0.930 . S
H1937 C1946 0.930 . S
H1938 C1951 0.929 . S
H1939 C1949 0.929 . S
H1940 C1944 0.929 . S
H1941 C1950 0.929 . S
C1942 H1936 0.930 . S
C1942 C1943 1.367 . S
C1942 C1950 1.378 . S
C1943 C1942 1.367 . S
C1943 C1951 1.433 . S
C1944 H1940 0.929 . S
C1944 C1946 1.378 . S
C1944 C1948 1.350 . S
C1945 C1948 1.463 . S
C1945 C1950 1.350 . S
C1945 N1953 1.427 . S
C1946 H1937 0.930 . S
C1946 C1944 1.378 . S
C1946 C1947 1.367 . S
C1947 C1946 1.367 . S
C1947 C1949 1.433 . S
C1948 C1944 1.350 . S
C1948 C1945 1.463 . S
C1948 N1952 1.427 . S
C1949 H1939 0.929 . S
C1949 C1947 1.433 . S
C1949 N1952 1.384 . S
C1950 H1941 0.929 . S
C1950 C1942 1.378 . S
C1950 C1945 1.350 . S
C1951 H1938 0.929 . S
C1951 C1943 1.433 . S
C1951 N1953 1.384 . S
N1952 C1948 1.427 . S
N1952 C1949 1.384 . S
N1953 C1945 1.427 . S
N1953 C1951 1.384 . S
H1954 C1960 0.930 . S
H1955 C1964 0.930 . S
H1956 C1969 0.929 . S
H1957 C1967 0.929 . S
H1958 C1962 0.929 . S
H1959 C1968 0.929 . S
C1960 H1954 0.930 . S
C1960 C1961 1.367 . S
C1960 C1968 1.378 . S
C1961 C1960 1.367 . S
C1961 C1969 1.433 . S
C1962 H1958 0.929 . S
C1962 C1964 1.378 . S
C1962 C1966 1.350 . S
C1963 C1966 1.463 . S
C1963 C1968 1.350 . S
C1963 N1971 1.427 . S
C1964 H1955 0.930 . S
C1964 C1962 1.378 . S
C1964 C1965 1.367 . S
C1965 C1964 1.367 . S
C1965 C1967 1.433 . S
C1966 C1962 1.350 . S
C1966 C1963 1.463 . S
C1966 N1970 1.427 . S
C1967 H1957 0.929 . S
C1967 C1965 1.433 . S
C1967 N1970 1.384 . S
C1968 H1959 0.929 . S
C1968 C1960 1.378 . S
C1968 C1963 1.350 . S
C1969 H1956 0.929 . S
C1969 C1961 1.433 . S
C1969 N1971 1.384 . S
N1970 C1966 1.427 . S
N1970 C1967 1.384 . S
N1971 C1963 1.427 . S
N1971 C1969 1.384 . S
H1972 C1978 0.930 . S
H1973 C1982 0.930 . S
H1974 C1987 0.929 . S
H1975 C1985 0.929 . S
H1976 C1980 0.929 . S
H1977 C1986 0.929 . S
C1978 H1972 0.930 . S
C1978 C1979 1.367 . S
C1978 C1986 1.378 . S
C1979 C1978 1.367 . S
C1979 C1987 1.433 . S
C1980 H1976 0.929 . S
C1980 C1982 1.378 . S
C1980 C1984 1.350 . S
C1981 C1984 1.463 . S
C1981 C1986 1.350 . S
C1981 N1989 1.427 . S
C1982 H1973 0.930 . S
C1982 C1980 1.378 . S
C1982 C1983 1.367 . S
C1983 C1982 1.367 . S
C1983 C1985 1.433 . S
C1984 C1980 1.350 . S
C1984 C1981 1.463 . S
C1984 N1988 1.427 . S
C1985 H1975 0.929 . S
C1985 C1983 1.433 . S
C1985 N1988 1.384 . S
C1986 H1977 0.929 . S
C1986 C1978 1.378 . S
C1986 C1981 1.350 . S
C1987 H1974 0.929 . S
C1987 C1979 1.433 . S
C1987 N1989 1.384 . S
N1988 C1984 1.427 . S
N1988 C1985 1.384 . S
N1989 C1981 1.427 . S
N1989 C1987 1.384 . S
H1990 C1996 0.930 . S
H1991 C2000 0.930 . S
H1992 C2005 0.929 . S
H1993 C2003 0.929 . S
H1994 C1998 0.929 . S
H1995 C2004 0.929 . S
C1996 H1990 0.930 . S
C1996 C1997 1.367 . S
C1996 C2004 1.378 . S
C1997 C1996 1.367 . S
C1997 C2005 1.433 . S
C1998 H1994 0.929 . S
C1998 C2000 1.378 . S
C1998 C2002 1.350 . S
C1999 C2002 1.463 . S
C1999 C2004 1.350 . S
C1999 N2007 1.427 . S
C2000 H1991 0.930 . S
C2000 C1998 1.378 . S
C2000 C2001 1.367 . S
C2001 C2000 1.367 . S
C2001 C2003 1.433 . S
C2002 C1998 1.350 . S
C2002 C1999 1.463 . S
C2002 N2006 1.427 . S
C2003 H1993 0.929 . S
C2003 C2001 1.433 . S
C2003 N2006 1.384 . S
C2004 H1995 0.929 . S
C2004 C1996 1.378 . S
C2004 C1999 1.350 . S
C2005 H1992 0.929 . S
C2005 C1997 1.433 . S
C2005 N2007 1.384 . S
N2006 C2002 1.427 . S
N2006 C2003 1.384 . S
N2007 C1999 1.427 . S
N2007 C2005 1.384 . S
H2008 C2014 0.930 . S
H2009 C2018 0.930 . S
H2010 C2023 0.929 . S
H2011 C2021 0.929 . S
H2012 C2016 0.929 . S
H2013 C2022 0.929 . S
C2014 H2008 0.930 . S
C2014 C2015 1.367 . S
C2014 C2022 1.378 . S
C2015 C2014 1.367 . S
C2015 C2023 1.433 . S
C2016 H2012 0.929 . S
C2016 C2018 1.378 . S
C2016 C2020 1.350 . S
C2017 C2020 1.463 . S
C2017 C2022 1.350 . S
C2017 N2025 1.427 . S
C2018 H2009 0.930 . S
C2018 C2016 1.378 . S
C2018 C2019 1.367 . S
C2019 C2018 1.367 . S
C2019 C2021 1.433 . S
C2020 C2016 1.350 . S
C2020 C2017 1.463 . S
C2020 N2024 1.427 . S
C2021 H2011 0.929 . S
C2021 C2019 1.433 . S
C2021 N2024 1.384 . S
C2022 H2013 0.929 . S
C2022 C2014 1.378 . S
C2022 C2017 1.350 . S
C2023 H2010 0.929 . S
C2023 C2015 1.433 . S
C2023 N2025 1.384 . S
N2024 C2020 1.427 . S
N2024 C2021 1.384 . S
N2025 C2017 1.427 . S
N2025 C2023 1.384 . S
H2026 C2032 0.930 . S
H2027 C2036 0.930 . S
H2028 C2041 0.929 . S
H2029 C2039 0.929 . S
H2030 C2034 0.929 . S
H2031 C2040 0.929 . S
C2032 H2026 0.930 . S
C2032 C2033 1.367 . S
C2032 C2040 1.378 . S
C2033 C2032 1.367 . S
C2033 C2041 1.433 . S
C2034 H2030 0.929 . S
C2034 C2036 1.378 . S
C2034 C2038 1.350 . S
C2035 C2038 1.463 . S
C2035 C2040 1.350 . S
C2035 N2043 1.427 . S
C2036 H2027 0.930 . S
C2036 C2034 1.378 . S
C2036 C2037 1.367 . S
C2037 C2036 1.367 . S
C2037 C2039 1.433 . S
C2038 C2034 1.350 . S
C2038 C2035 1.463 . S
C2038 N2042 1.427 . S
C2039 H2029 0.929 . S
C2039 C2037 1.433 . S
C2039 N2042 1.384 . S
C2040 H2031 0.929 . S
C2040 C2032 1.378 . S
C2040 C2035 1.350 . S
C2041 H2028 0.929 . S
C2041 C2033 1.433 . S
C2041 N2043 1.384 . S
N2042 C2038 1.427 . S
N2042 C2039 1.384 . S
N2043 C2035 1.427 . S
N2043 C2041 1.384 . S
H2044 C2050 0.930 . S
H2045 C2054 0.930 . S
H2046 C2059 0.929 . S
H2047 C2057 0.929 1_554 S
H2048 C2052 0.929 . S
H2049 C2058 0.929 . S
C2050 H2044 0.930 . S
C2050 C2051 1.367 . S
C2050 C2058 1.378 . S
C2051 C2050 1.367 . S
C2051 C2059 1.433 . S
C2052 H2048 0.929 . S
C2052 C2054 1.378 . S
C2052 C2056 1.350 . S
C2053 C2056 1.463 . S
C2053 C2058 1.350 . S
C2053 N2061 1.427 . S
C2054 H2045 0.930 . S
C2054 C2052 1.378 . S
C2054 C2055 1.367 . S
C2055 C2054 1.367 . S
C2055 C2057 1.433 . S
C2056 C2052 1.350 . S
C2056 C2053 1.463 . S
C2056 N2060 1.427 . S
C2057 H2047 0.929 1_556 S
C2057 C2055 1.433 . S
C2057 N2060 1.384 . S
C2058 H2049 0.929 . S
C2058 C2050 1.378 . S
C2058 C2053 1.350 . S
C2059 H2046 0.929 . S
C2059 C2051 1.433 . S
C2059 N2061 1.384 . S
N2060 C2056 1.427 . S
N2060 C2057 1.384 . S
N2061 C2053 1.427 . S
N2061 C2059 1.384 . S
H2062 C2068 0.930 . S
H2063 C2072 0.930 . S
H2064 C2077 0.929 . S
H2065 C2075 0.929 . S
H2066 C2070 0.929 . S
H2067 C2076 0.929 . S
C2068 H2062 0.930 . S
C2068 C2069 1.367 . S
C2068 C2076 1.378 . S
C2069 C2068 1.367 . S
C2069 C2077 1.433 . S
C2070 H2066 0.929 . S
C2070 C2072 1.378 . S
C2070 C2074 1.350 . S
C2071 C2074 1.463 . S
C2071 C2076 1.350 . S
C2071 N2079 1.427 . S
C2072 H2063 0.930 . S
C2072 C2070 1.378 . S
C2072 C2073 1.367 . S
C2073 C2072 1.367 . S
C2073 C2075 1.433 . S
C2074 C2070 1.350 . S
C2074 C2071 1.463 . S
C2074 N2078 1.427 . S
C2075 H2065 0.929 . S
C2075 C2073 1.433 . S
C2075 N2078 1.384 . S
C2076 H2067 0.929 . S
C2076 C2068 1.378 . S
C2076 C2071 1.350 . S
C2077 H2064 0.929 . S
C2077 C2069 1.433 . S
C2077 N2079 1.384 . S
N2078 C2074 1.427 . S
N2078 C2075 1.384 . S
N2079 C2071 1.427 . S
N2079 C2077 1.384 . S
H2080 C2086 0.930 . S
H2081 C2090 0.930 . S
H2082 C2095 0.929 . S
H2083 C2093 0.929 . S
H2084 C2088 0.929 . S
H2085 C2094 0.929 . S
C2086 H2080 0.930 . S
C2086 C2087 1.367 1_565 S
C2086 C2094 1.378 . S
C2087 C2086 1.367 1_545 S
C2087 C2095 1.433 . S
C2088 H2084 0.929 . S
C2088 C2090 1.378 . S
C2088 C2092 1.350 . S
C2089 C2092 1.463 . S
C2089 C2094 1.350 1_545 S
C2089 N2097 1.427 . S
C2090 H2081 0.930 . S
C2090 C2088 1.378 . S
C2090 C2091 1.367 . S
C2091 C2090 1.367 . S
C2091 C2093 1.433 1_545 S
C2092 C2088 1.350 . S
C2092 C2089 1.463 . S
C2092 N2096 1.427 1_545 S
C2093 H2083 0.929 . S
C2093 C2091 1.433 1_565 S
C2093 N2096 1.384 . S
C2094 H2085 0.929 . S
C2094 C2086 1.378 . S
C2094 C2089 1.350 1_565 S
C2095 H2082 0.929 . S
C2095 C2087 1.433 . S
C2095 N2097 1.384 . S
N2096 C2092 1.427 1_565 S
N2096 C2093 1.384 . S
N2097 C2089 1.427 . S
N2097 C2095 1.384 . S
H2098 C2104 0.930 . S
H2099 C2108 0.930 . S
H2100 C2113 0.929 . S
H2101 C2111 0.929 . S
H2102 C2106 0.929 . S
H2103 C2112 0.929 . S
C2104 H2098 0.930 . S
C2104 C2105 1.367 . S
C2104 C2112 1.378 . S
C2105 C2104 1.367 . S
C2105 C2113 1.433 . S
C2106 H2102 0.929 . S
C2106 C2108 1.378 . S
C2106 C2110 1.350 . S
C2107 C2110 1.463 . S
C2107 C2112 1.350 . S
C2107 N2115 1.427 . S
C2108 H2099 0.930 . S
C2108 C2106 1.378 . S
C2108 C2109 1.367 . S
C2109 C2108 1.367 . S
C2109 C2111 1.433 . S
C2110 C2106 1.350 . S
C2110 C2107 1.463 . S
C2110 N2114 1.427 . S
C2111 H2101 0.929 . S
C2111 C2109 1.433 . S
C2111 N2114 1.384 . S
C2112 H2103 0.929 . S
C2112 C2104 1.378 . S
C2112 C2107 1.350 . S
C2113 H2100 0.929 . S
C2113 C2105 1.433 . S
C2113 N2115 1.384 . S
N2114 C2110 1.427 . S
N2114 C2111 1.384 . S
N2115 C2107 1.427 . S
N2115 C2113 1.384 . S
H2116 C2122 0.930 . S
H2117 C2126 0.930 . S
H2118 C2131 0.892 1_565 S
H2119 C2129 0.929 . S
H2120 C2124 0.929 . S
H2121 C2130 0.929 . S
C2122 H2116 0.930 . S
C2122 C2123 1.367 . S
C2122 C2130 1.378 . S
C2123 C2122 1.367 . S
C2123 C2131 1.477 . S
C2124 H2120 0.929 . S
C2124 C2126 1.378 . S
C2124 C2128 1.350 . S
C2125 C2128 1.463 . S
C2125 C2130 1.350 . S
C2125 N2133 1.427 . S
C2126 H2117 0.930 . S
C2126 C2124 1.378 . S
C2126 C2127 1.367 . S
C2127 C2126 1.367 . S
C2127 C2129 1.433 . S
C2128 C2124 1.350 . S
C2128 C2125 1.463 . S
C2128 N2132 1.427 . S
C2129 H2119 0.929 . S
C2129 C2127 1.433 . S
C2129 N2132 1.384 . S
C2130 H2121 0.929 . S
C2130 C2122 1.378 . S
C2130 C2125 1.350 . S
C2131 H2118 0.892 1_545 S
C2131 C2123 1.477 . S
C2131 N2133 1.380 . S
N2132 C2128 1.427 . S
N2132 C2129 1.384 . S
N2133 C2125 1.427 . S
N2133 C2131 1.380 . S
H2134 C2140 0.930 . S
H2135 C2144 0.930 . S
H2136 C2149 0.929 . S
H2137 C2147 0.929 . S
H2138 C2142 0.929 . S
H2139 C2148 0.929 . S
C2140 H2134 0.930 . S
C2140 C2141 1.367 . S
C2140 C2148 1.378 . S
C2141 C2140 1.367 . S
C2141 C2149 1.433 . S
C2142 H2138 0.929 . S
C2142 C2144 1.378 . S
C2142 C2146 1.350 . S
C2143 C2146 1.463 . S
C2143 C2148 1.350 . S
C2143 N2151 1.427 . S
C2144 H2135 0.930 . S
C2144 C2142 1.378 . S
C2144 C2145 1.367 . S
C2145 C2144 1.367 . S
C2145 C2147 1.433 . S
C2146 C2142 1.350 . S
C2146 C2143 1.463 . S
C2146 N2150 1.427 . S
C2147 H2137 0.929 . S
C2147 C2145 1.433 . S
C2147 N2150 1.384 . S
C2148 H2139 0.929 . S
C2148 C2140 1.378 . S
C2148 C2143 1.350 . S
C2149 H2136 0.929 . S
C2149 C2141 1.433 . S
C2149 N2151 1.384 . S
N2150 C2146 1.427 . S
N2150 C2147 1.384 . S
N2151 C2143 1.427 . S
N2151 C2149 1.384 . S
H2152 C2158 0.930 . S
H2153 C2162 0.930 . S
H2154 C2167 0.929 . S
H2155 C2165 0.929 1_565 S
H2156 C2160 0.929 . S
H2157 C2166 0.929 . S
C2158 H2152 0.930 . S
C2158 C2159 1.367 1_565 S
C2158 C2166 1.378 . S
C2159 C2158 1.367 1_545 S
C2159 C2167 1.433 . S
C2160 H2156 0.929 . S
C2160 C2162 1.378 . S
C2160 C2164 1.350 . S
C2161 C2164 1.463 . S
C2161 C2166 1.350 1_545 S
C2161 N2169 1.427 . S
C2162 H2153 0.930 . S
C2162 C2160 1.378 . S
C2162 C2163 1.367 . S
C2163 C2162 1.367 . S
C2163 C2165 1.433 . S
C2164 C2160 1.350 . S
C2164 C2161 1.463 . S
C2164 N2168 1.427 1_545 S
C2165 H2155 0.929 1_545 S
C2165 C2163 1.433 . S
C2165 N2168 1.384 1_545 S
C2166 H2157 0.929 . S
C2166 C2158 1.378 . S
C2166 C2161 1.350 1_565 S
C2167 H2154 0.929 . S
C2167 C2159 1.433 . S
C2167 N2169 1.384 . S
N2168 C2164 1.427 1_565 S
N2168 C2165 1.384 1_565 S
N2169 C2161 1.427 . S
N2169 C2167 1.384 . S
H2170 C2176 0.930 . S
H2171 C2180 0.930 . S
H2172 C2185 0.929 . S
H2173 C2183 0.929 . S
H2174 C2178 0.929 . S
H2175 C2184 0.929 . S
C2176 H2170 0.930 . S
C2176 C2177 1.367 . S
C2176 C2184 1.378 . S
C2177 C2176 1.367 . S
C2177 C2185 1.433 . S
C2178 H2174 0.929 . S
C2178 C2180 1.378 . S
C2178 C2182 1.350 . S
C2179 C2182 1.463 . S
C2179 C2184 1.350 . S
C2179 N2187 1.427 . S
C2180 H2171 0.930 . S
C2180 C2178 1.378 . S
C2180 C2181 1.367 . S
C2181 C2180 1.367 . S
C2181 C2183 1.433 . S
C2182 C2178 1.350 . S
C2182 C2179 1.463 . S
C2182 N2186 1.427 . S
C2183 H2173 0.929 . S
C2183 C2181 1.433 . S
C2183 N2186 1.384 . S
C2184 H2175 0.929 . S
C2184 C2176 1.378 . S
C2184 C2179 1.350 . S
C2185 H2172 0.929 . S
C2185 C2177 1.433 . S
C2185 N2187 1.384 . S
N2186 C2182 1.427 . S
N2186 C2183 1.384 . S
N2187 C2179 1.427 . S
N2187 C2185 1.384 . S
H2188 C2194 0.930 . S
H2189 C2198 0.930 . S
H2190 C2203 0.929 . S
H2191 C2201 0.929 . S
H2192 C2196 0.929 . S
H2193 C2202 0.929 . S
C2194 H2188 0.930 . S
C2194 C2195 1.367 1_565 S
C2194 C2202 1.378 . S
C2195 C2194 1.367 1_545 S
C2195 C2203 1.433 . S
C2196 H2192 0.929 . S
C2196 C2198 1.378 . S
C2196 C2200 1.350 . S
C2197 C2200 1.463 . S
C2197 C2202 1.350 1_545 S
C2197 N2205 1.427 . S
C2198 H2189 0.930 . S
C2198 C2196 1.378 . S
C2198 C2199 1.365 . S
C2199 C2198 1.365 . S
C2199 C2201 1.435 1_545 S
C2200 C2196 1.350 . S
C2200 C2197 1.463 . S
C2200 N2204 1.427 1_545 S
C2201 H2191 0.929 . S
C2201 C2199 1.435 1_565 S
C2201 N2204 1.384 . S
C2202 H2193 0.929 . S
C2202 C2194 1.378 . S
C2202 C2197 1.350 1_565 S
C2203 H2190 0.929 . S
C2203 C2195 1.433 . S
C2203 N2205 1.384 . S
N2204 C2200 1.427 1_565 S
N2204 C2201 1.384 . S
N2205 C2197 1.427 . S
N2205 C2203 1.384 . S
H2206 C2212 0.930 . S
H2207 C2216 0.930 . S
H2208 C2221 0.929 . S
H2209 C2219 0.929 . S
H2210 C2214 0.929 . S
H2211 C2220 0.929 . S
C2212 H2206 0.930 . S
C2212 C2213 1.367 . S
C2212 C2220 1.378 . S
C2213 C2212 1.367 . S
C2213 C2221 1.433 . S
C2214 H2210 0.929 . S
C2214 C2216 1.378 . S
C2214 C2218 1.350 . S
C2215 C2218 1.463 . S
C2215 C2220 1.350 . S
C2215 N2223 1.427 . S
C2216 H2207 0.930 . S
C2216 C2214 1.378 . S
C2216 C2217 1.367 . S
C2217 C2216 1.367 . S
C2217 C2219 1.433 . S
C2218 C2214 1.350 . S
C2218 C2215 1.463 . S
C2218 N2222 1.427 . S
C2219 H2209 0.929 . S
C2219 C2217 1.433 . S
C2219 N2222 1.384 . S
C2220 H2211 0.929 . S
C2220 C2212 1.378 . S
C2220 C2215 1.350 . S
C2221 H2208 0.929 . S
C2221 C2213 1.433 . S
C2221 N2223 1.384 . S
N2222 C2218 1.427 . S
N2222 C2219 1.384 . S
N2223 C2215 1.427 . S
N2223 C2221 1.384 . S
H2224 C2230 0.930 . S
H2225 C2234 0.930 . S
H2226 C2239 0.950 . S
H2227 C2237 0.929 . S
H2228 C2232 0.929 . S
H2229 C2238 0.929 . S
C2230 H2224 0.930 . S
C2230 C2231 1.367 . S
C2230 C2238 1.378 . S
C2231 C2230 1.367 . S
C2231 C2239 1.433 . S
C2232 H2228 0.929 . S
C2232 C2234 1.378 . S
C2232 C2236 1.350 1_556 S
C2233 C2236 1.463 . S
C2233 C2238 1.350 . S
C2233 N2241 1.427 . S
C2234 H2225 0.930 . S
C2234 C2232 1.378 . S
C2234 C2235 1.367 1_556 S
C2235 C2234 1.367 1_554 S
C2235 C2237 1.433 . S
C2236 C2232 1.350 1_554 S
C2236 C2233 1.463 . S
C2236 N2240 1.427 . S
C2237 H2227 0.929 . S
C2237 C2235 1.433 . S
C2237 N2240 1.384 . S
C2238 H2229 0.929 . S
C2238 C2230 1.378 . S
C2238 C2233 1.350 . S
C2239 H2226 0.950 . S
C2239 C2231 1.433 . S
C2239 N2241 1.384 . S
N2240 C2236 1.427 . S
N2240 C2237 1.384 . S
N2241 C2233 1.427 . S
N2241 C2239 1.384 . S
H2242 C2248 0.930 . S
H2243 C2252 0.930 . S
H2244 C2257 0.929 . S
H2245 C2255 0.929 . S
H2246 C2250 0.929 . S
H2247 C2256 0.929 . S
C2248 H2242 0.930 . S
C2248 C2249 1.367 . S
C2248 C2256 1.378 . S
C2249 C2248 1.367 . S
C2249 C2257 1.433 . S
C2250 H2246 0.929 . S
C2250 C2252 1.378 . S
C2250 C2254 1.350 . S
C2251 C2254 1.463 . S
C2251 C2256 1.350 . S
C2251 N2259 1.427 . S
C2252 H2243 0.930 . S
C2252 C2250 1.378 . S
C2252 C2253 1.367 . S
C2253 C2252 1.367 . S
C2253 C2255 1.433 . S
C2254 C2250 1.350 . S
C2254 C2251 1.463 . S
C2254 N2258 1.427 . S
C2255 H2245 0.929 . S
C2255 C2253 1.433 . S
C2255 N2258 1.384 . S
C2256 H2247 0.929 . S
C2256 C2248 1.378 . S
C2256 C2251 1.350 . S
C2257 H2244 0.929 . S
C2257 C2249 1.433 . S
C2257 N2259 1.384 . S
N2258 C2254 1.427 . S
N2258 C2255 1.384 . S
N2259 C2251 1.427 . S
N2259 C2257 1.384 . S
H2260 C2266 0.930 . S
H2261 C2270 0.930 . S
H2262 C2275 0.929 . S
H2263 C2273 0.929 . S
H2264 C2268 0.929 . S
H2265 C2274 0.929 . S
C2266 H2260 0.930 . S
C2266 C2267 1.367 . S
C2266 C2274 1.378 . S
C2267 C2266 1.367 . S
C2267 C2275 1.433 . S
C2268 H2264 0.929 . S
C2268 C2270 1.378 . S
C2268 C2272 1.350 . S
C2269 C2272 1.463 . S
C2269 C2274 1.350 . S
C2269 N2277 1.427 . S
C2270 H2261 0.930 . S
C2270 C2268 1.378 . S
C2270 C2271 1.367 . S
C2271 C2270 1.367 . S
C2271 C2273 1.433 . S
C2272 C2268 1.350 . S
C2272 C2269 1.463 . S
C2272 N2276 1.427 . S
C2273 H2263 0.929 . S
C2273 C2271 1.433 . S
C2273 N2276 1.384 . S
C2274 H2265 0.929 . S
C2274 C2266 1.378 . S
C2274 C2269 1.350 . S
C2275 H2262 0.929 . S
C2275 C2267 1.433 . S
C2275 N2277 1.384 . S
N2276 C2272 1.427 . S
N2276 C2273 1.384 . S
N2277 C2269 1.427 . S
N2277 C2275 1.384 . S
H2278 C2284 0.930 . S
H2279 C2288 0.930 . S
H2280 C2293 0.929 . S
H2281 C2291 0.929 . S
H2282 C2286 0.929 . S
H2283 C2292 0.929 . S
C2284 H2278 0.930 . S
C2284 C2285 1.367 . S
C2284 C2292 1.378 . S
C2285 C2284 1.367 . S
C2285 C2293 1.433 . S
C2286 H2282 0.929 . S
C2286 C2288 1.378 . S
C2286 C2290 1.350 . S
C2287 C2290 1.463 . S
C2287 C2292 1.350 . S
C2287 N2295 1.427 . S
C2288 H2279 0.930 . S
C2288 C2286 1.378 . S
C2288 C2289 1.367 . S
C2289 C2288 1.367 . S
C2289 C2291 1.433 . S
C2290 C2286 1.350 . S
C2290 C2287 1.463 . S
C2290 N2294 1.427 . S
C2291 H2281 0.929 . S
C2291 C2289 1.433 . S
C2291 N2294 1.384 . S
C2292 H2283 0.929 . S
C2292 C2284 1.378 . S
C2292 C2287 1.350 . S
C2293 H2280 0.929 . S
C2293 C2285 1.433 . S
C2293 N2295 1.384 . S
N2294 C2290 1.427 . S
N2294 C2291 1.384 . S
N2295 C2287 1.427 . S
N2295 C2293 1.384 . S
H2296 C2302 0.930 . S
H2297 C2306 0.930 . S
H2298 C2311 0.929 . S
H2299 C2309 0.929 . S
H2300 C2304 0.929 . S
H2301 C2310 0.929 . S
C2302 H2296 0.930 . S
C2302 C2303 1.367 . S
C2302 C2310 1.378 . S
C2303 C2302 1.367 . S
C2303 C2311 1.433 1_545 S
C2304 H2300 0.929 . S
C2304 C2306 1.378 . S
C2304 C2308 1.350 . S
C2305 C2308 1.463 . S
C2305 C2310 1.350 1_565 S
C2305 N2313 1.427 . S
C2306 H2297 0.930 . S
C2306 C2304 1.378 . S
C2306 C2307 1.367 . S
C2307 C2306 1.367 . S
C2307 C2309 1.433 . S
C2308 C2304 1.350 . S
C2308 C2305 1.463 . S
C2308 N2312 1.427 . S
C2309 H2299 0.929 . S
C2309 C2307 1.433 . S
C2309 N2312 1.384 . S
C2310 H2301 0.929 . S
C2310 C2302 1.378 . S
C2310 C2305 1.350 1_545 S
C2311 H2298 0.929 . S
C2311 C2303 1.433 1_565 S
C2311 N2313 1.384 . S
N2312 C2308 1.427 . S
N2312 C2309 1.384 . S
N2313 C2305 1.427 . S
N2313 C2311 1.384 . S
H2314 C2320 0.930 . S
H2315 C2324 0.930 . S
H2316 C2329 0.929 . S
H2317 C2327 0.929 . S
H2318 C2322 0.929 . S
H2319 C2328 0.929 . S
C2320 H2314 0.930 . S
C2320 C2321 1.367 . S
C2320 C2328 1.378 . S
C2321 C2320 1.367 . S
C2321 C2329 1.433 . S
C2322 H2318 0.929 . S
C2322 C2324 1.378 . S
C2322 C2326 1.350 . S
C2323 C2326 1.463 . S
C2323 C2328 1.350 . S
C2323 N2331 1.427 . S
C2324 H2315 0.930 . S
C2324 C2322 1.378 . S
C2324 C2325 1.367 . S
C2325 C2324 1.367 . S
C2325 C2327 1.433 . S
C2326 C2322 1.350 . S
C2326 C2323 1.463 . S
C2326 N2330 1.427 . S
C2327 H2317 0.929 . S
C2327 C2325 1.433 . S
C2327 N2330 1.384 . S
C2328 H2319 0.929 . S
C2328 C2320 1.378 . S
C2328 C2323 1.350 . S
C2329 H2316 0.929 . S
C2329 C2321 1.433 . S
C2329 N2331 1.384 . S
N2330 C2326 1.427 . S
N2330 C2327 1.384 . S
N2331 C2323 1.427 . S
N2331 C2329 1.384 . S
H2332 C2338 0.930 . S
H2333 C2342 0.930 . S
H2334 C2347 0.929 . S
H2335 C2345 0.929 . S
H2336 C2340 0.929 . S
H2337 C2346 0.929 . S
C2338 H2332 0.930 . S
C2338 C2339 1.367 . S
C2338 C2346 1.378 . S
C2339 C2338 1.367 . S
C2339 C2347 1.433 . S
C2340 H2336 0.929 . S
C2340 C2342 1.378 . S
C2340 C2344 1.350 . S
C2341 C2344 1.463 . S
C2341 C2346 1.350 . S
C2341 N2349 1.427 . S
C2342 H2333 0.930 . S
C2342 C2340 1.378 . S
C2342 C2343 1.367 . S
C2343 C2342 1.367 . S
C2343 C2345 1.433 . S
C2344 C2340 1.350 . S
C2344 C2341 1.463 . S
C2344 N2348 1.427 . S
C2345 H2335 0.929 . S
C2345 C2343 1.433 . S
C2345 N2348 1.384 . S
C2346 H2337 0.929 . S
C2346 C2338 1.378 . S
C2346 C2341 1.350 . S
C2347 H2334 0.929 . S
C2347 C2339 1.433 . S
C2347 N2349 1.384 . S
N2348 C2344 1.427 . S
N2348 C2345 1.384 . S
N2349 C2341 1.427 . S
N2349 C2347 1.384 . S
H2350 C2356 0.930 . S
H2351 C2360 0.930 . S
H2352 C2365 0.929 . S
H2353 C2363 0.929 . S
H2354 C2358 0.929 . S
H2355 C2364 0.929 . S
C2356 H2350 0.930 . S
C2356 C2357 1.367 . S
C2356 C2364 1.378 . S
C2357 C2356 1.367 . S
C2357 C2365 1.433 . S
C2358 H2354 0.929 . S
C2358 C2360 1.378 . S
C2358 C2362 1.350 . S
C2359 C2362 1.463 . S
C2359 C2364 1.350 . S
C2359 N2367 1.427 . S
C2360 H2351 0.930 . S
C2360 C2358 1.378 . S
C2360 C2361 1.367 . S
C2361 C2360 1.367 . S
C2361 C2363 1.433 . S
C2362 C2358 1.350 . S
C2362 C2359 1.463 . S
C2362 N2366 1.427 . S
C2363 H2353 0.929 . S
C2363 C2361 1.433 . S
C2363 N2366 1.384 . S
C2364 H2355 0.929 . S
C2364 C2356 1.378 . S
C2364 C2359 1.350 . S
C2365 H2352 0.929 . S
C2365 C2357 1.433 . S
C2365 N2367 1.384 . S
N2366 C2362 1.427 . S
N2366 C2363 1.384 . S
N2367 C2359 1.427 . S
N2367 C2365 1.384 . S
H2368 C2374 0.930 . S
H2369 C2378 0.930 . S
H2370 C2383 0.929 . S
H2371 C2381 0.929 . S
H2372 C2376 0.929 . S
H2373 C2382 0.929 . S
C2374 H2368 0.930 . S
C2374 C2375 1.367 . S
C2374 C2382 1.378 . S
C2375 C2374 1.367 . S
C2375 C2383 1.433 . S
C2376 H2372 0.929 . S
C2376 C2378 1.378 . S
C2376 C2380 1.350 . S
C2377 C2380 1.463 . S
C2377 C2382 1.350 . S
C2377 N2385 1.427 . S
C2378 H2369 0.930 . S
C2378 C2376 1.378 . S
C2378 C2379 1.367 . S
C2379 C2378 1.367 . S
C2379 C2381 1.433 . S
C2380 C2376 1.350 . S
C2380 C2377 1.463 . S
C2380 N2384 1.427 . S
C2381 H2371 0.929 . S
C2381 C2379 1.433 . S
C2381 N2384 1.384 . S
C2382 H2373 0.929 . S
C2382 C2374 1.378 . S
C2382 C2377 1.350 . S
C2383 H2370 0.929 . S
C2383 C2375 1.433 . S
C2383 N2385 1.384 . S
N2384 C2380 1.427 . S
N2384 C2381 1.384 . S
N2385 C2377 1.427 . S
N2385 C2383 1.384 . S
H2386 C2392 0.930 . S
H2387 C2396 0.930 . S
H2388 C2401 0.929 . S
H2389 C2399 0.929 . S
H2390 C2394 0.929 . S
H2391 C2400 0.929 . S
C2392 H2386 0.930 . S
C2392 C2393 1.367 . S
C2392 C2400 1.378 . S
C2393 C2392 1.367 . S
C2393 C2401 1.433 . S
C2394 H2390 0.929 . S
C2394 C2396 1.378 . S
C2394 C2398 1.350 . S
C2395 C2398 1.463 . S
C2395 C2400 1.350 . S
C2395 N2403 1.427 . S
C2396 H2387 0.930 . S
C2396 C2394 1.378 . S
C2396 C2397 1.367 . S
C2397 C2396 1.367 . S
C2397 C2399 1.433 . S
C2398 C2394 1.350 . S
C2398 C2395 1.463 . S
C2398 N2402 1.427 . S
C2399 H2389 0.929 . S
C2399 C2397 1.433 . S
C2399 N2402 1.384 . S
C2400 H2391 0.929 . S
C2400 C2392 1.378 . S
C2400 C2395 1.350 . S
C2401 H2388 0.929 . S
C2401 C2393 1.433 . S
C2401 N2403 1.384 . S
N2402 C2398 1.427 . S
N2402 C2399 1.384 . S
N2403 C2395 1.427 . S
N2403 C2401 1.384 . S
H2404 C2410 0.930 1_655 S
H2405 C2414 0.923 1_554 S
H2406 C2419 0.929 . S
H2407 C2417 0.929 . S
H2408 C2412 0.929 . S
H2409 C2418 0.929 1_655 S
C2410 H2404 0.930 1_455 S
C2410 C2411 1.367 . S
C2410 C2418 1.378 . S
C2411 C2410 1.367 . S
C2411 C2419 1.433 . S
C2412 H2408 0.929 . S
C2412 C2414 1.378 . S
C2412 C2416 1.350 . S
C2413 C2416 1.463 . S
C2413 C2418 1.350 . S
C2413 N2421 1.427 . S
C2414 H2405 0.923 1_556 S
C2414 C2412 1.378 . S
C2414 C2415 1.371 . S
C2415 C2414 1.371 . S
C2415 C2417 1.439 . S
C2416 C2412 1.350 . S
C2416 C2413 1.463 . S
C2416 N2420 1.427 . S
C2417 H2407 0.929 . S
C2417 C2415 1.439 . S
C2417 N2420 1.384 . S
C2418 H2409 0.929 1_455 S
C2418 C2410 1.378 . S
C2418 C2413 1.350 . S
C2419 H2406 0.929 . S
C2419 C2411 1.433 . S
C2419 N2421 1.384 . S
N2420 C2416 1.427 . S
N2420 C2417 1.384 . S
N2421 C2413 1.427 . S
N2421 C2419 1.384 . S
H2422 C2428 0.930 . S
H2423 C2432 0.930 . S
H2424 C2437 0.929 . S
H2425 C2435 0.929 . S
H2426 C2430 0.929 . S
H2427 C2436 0.929 . S
C2428 H2422 0.930 . S
C2428 C2429 1.367 . S
C2428 C2436 1.378 1_455 S
C2429 C2428 1.367 . S
C2429 C2437 1.433 . S
C2430 H2426 0.929 . S
C2430 C2432 1.378 . S
C2430 C2434 1.350 . S
C2431 C2434 1.463 . S
C2431 C2436 1.350 . S
C2431 N2439 1.427 1_655 S
C2432 H2423 0.930 . S
C2432 C2430 1.378 . S
C2432 C2433 1.367 . S
C2433 C2432 1.367 . S
C2433 C2435 1.433 . S
C2434 C2430 1.350 . S
C2434 C2431 1.463 . S
C2434 N2438 1.427 . S
C2435 H2425 0.929 . S
C2435 C2433 1.433 . S
C2435 N2438 1.384 . S
C2436 H2427 0.929 . S
C2436 C2428 1.378 1_655 S
C2436 C2431 1.350 . S
C2437 H2424 0.929 . S
C2437 C2429 1.433 . S
C2437 N2439 1.384 . S
N2438 C2434 1.427 . S
N2438 C2435 1.384 . S
N2439 C2431 1.427 1_455 S
N2439 C2437 1.384 . S
H2440 C2446 0.930 . S
H2441 C2450 0.930 . S
H2442 C2455 0.929 . S
H2443 C2453 0.929 . S
H2444 C2448 0.929 . S
H2445 C2454 0.929 . S
C2446 H2440 0.930 . S
C2446 C2447 1.367 . S
C2446 C2454 1.378 . S
C2447 C2446 1.367 . S
C2447 C2455 1.433 . S
C2448 H2444 0.929 . S
C2448 C2450 1.378 . S
C2448 C2452 1.350 . S
C2449 C2452 1.463 . S
C2449 C2454 1.350 . S
C2449 N2457 1.427 . S
C2450 H2441 0.930 . S
C2450 C2448 1.378 . S
C2450 C2451 1.367 . S
C2451 C2450 1.367 . S
C2451 C2453 1.433 . S
C2452 C2448 1.350 . S
C2452 C2449 1.463 . S
C2452 N2456 1.427 . S
C2453 H2443 0.929 . S
C2453 C2451 1.433 . S
C2453 N2456 1.384 . S
C2454 H2445 0.929 . S
C2454 C2446 1.378 . S
C2454 C2449 1.350 . S
C2455 H2442 0.929 . S
C2455 C2447 1.433 . S
C2455 N2457 1.384 . S
N2456 C2452 1.427 . S
N2456 C2453 1.384 . S
N2457 C2449 1.427 . S
N2457 C2455 1.384 . S
H2458 C2464 0.930 . S
H2459 C2468 0.930 . S
H2460 C2473 0.929 . S
H2461 C2471 0.929 . S
H2462 C2466 0.929 . S
H2463 C2472 0.929 . S
C2464 H2458 0.930 . S
C2464 C2465 1.367 . S
C2464 C2472 1.378 . S
C2465 C2464 1.367 . S
C2465 C2473 1.433 . S
C2466 H2462 0.929 . S
C2466 C2468 1.378 . S
C2466 C2470 1.350 . S
C2467 C2470 1.463 1_455 S
C2467 C2472 1.350 . S
C2467 N2475 1.427 . S
C2468 H2459 0.930 . S
C2468 C2466 1.378 . S
C2468 C2469 1.367 . S
C2469 C2468 1.367 . S
C2469 C2471 1.433 . S
C2470 C2466 1.350 . S
C2470 C2467 1.463 1_655 S
C2470 N2474 1.427 . S
C2471 H2461 0.929 . S
C2471 C2469 1.433 . S
C2471 N2474 1.384 . S
C2472 H2463 0.929 . S
C2472 C2464 1.378 . S
C2472 C2467 1.350 . S
C2473 H2460 0.929 . S
C2473 C2465 1.433 . S
C2473 N2475 1.384 . S
N2474 C2470 1.427 . S
N2474 C2471 1.384 . S
N2475 C2467 1.427 . S
N2475 C2473 1.384 . S
H2476 C2482 0.930 . S
H2477 C2486 0.930 . S
H2478 C2491 0.929 . S
H2479 C2489 0.929 . S
H2480 C2484 0.929 . S
H2481 C2490 0.929 . S
C2482 H2476 0.930 . S
C2482 C2483 1.367 . S
C2482 C2490 1.378 1_655 S
C2483 C2482 1.367 . S
C2483 C2491 1.433 1_655 S
C2484 H2480 0.929 . S
C2484 C2486 1.378 . S
C2484 C2488 1.350 . S
C2485 C2488 1.463 . S
C2485 C2490 1.350 . S
C2485 N2493 1.427 . S
C2486 H2477 0.930 . S
C2486 C2484 1.378 . S
C2486 C2487 1.367 . S
C2487 C2486 1.367 . S
C2487 C2489 1.433 . S
C2488 C2484 1.350 . S
C2488 C2485 1.463 . S
C2488 N2492 1.427 . S
C2489 H2479 0.929 . S
C2489 C2487 1.433 . S
C2489 N2492 1.384 . S
C2490 H2481 0.929 . S
C2490 C2482 1.378 1_455 S
C2490 C2485 1.350 . S
C2491 H2478 0.929 . S
C2491 C2483 1.433 1_455 S
C2491 N2493 1.384 . S
N2492 C2488 1.427 . S
N2492 C2489 1.384 . S
N2493 C2485 1.427 . S
N2493 C2491 1.384 . S
H2494 C2500 0.930 . S
H2495 C2504 0.930 . S
H2496 C2509 0.929 . S
H2497 C2507 0.929 . S
H2498 C2502 0.929 . S
H2499 C2508 0.929 . S
C2500 H2494 0.930 . S
C2500 C2501 1.367 . S
C2500 C2508 1.378 . S
C2501 C2500 1.367 . S
C2501 C2509 1.433 . S
C2502 H2498 0.929 . S
C2502 C2504 1.378 . S
C2502 C2506 1.350 . S
C2503 C2506 1.463 . S
C2503 C2508 1.350 . S
C2503 N2511 1.427 . S
C2504 H2495 0.930 . S
C2504 C2502 1.378 . S
C2504 C2505 1.367 . S
C2505 C2504 1.367 . S
C2505 C2507 1.433 . S
C2506 C2502 1.350 . S
C2506 C2503 1.463 . S
C2506 N2510 1.427 . S
C2507 H2497 0.929 . S
C2507 C2505 1.433 . S
C2507 N2510 1.384 . S
C2508 H2499 0.929 . S
C2508 C2500 1.378 . S
C2508 C2503 1.350 . S
C2509 H2496 0.929 . S
C2509 C2501 1.433 . S
C2509 N2511 1.384 . S
N2510 C2506 1.427 . S
N2510 C2507 1.384 . S
N2511 C2503 1.427 . S
N2511 C2509 1.384 . S
H2512 C2518 0.930 . S
H2513 C2522 0.930 . S
H2514 C2527 0.929 . S
H2515 C2525 0.929 . S
H2516 C2520 0.929 . S
H2517 C2526 0.929 . S
C2518 H2512 0.930 . S
C2518 C2519 1.367 . S
C2518 C2526 1.378 . S
C2519 C2518 1.367 . S
C2519 C2527 1.433 . S
C2520 H2516 0.929 . S
C2520 C2522 1.378 . S
C2520 C2524 1.350 . S
C2521 C2524 1.463 . S
C2521 C2526 1.350 . S
C2521 N2529 1.427 . S
C2522 H2513 0.930 . S
C2522 C2520 1.378 . S
C2522 C2523 1.367 . S
C2523 C2522 1.367 . S
C2523 C2525 1.433 . S
C2524 C2520 1.350 . S
C2524 C2521 1.463 . S
C2524 N2528 1.427 . S
C2525 H2515 0.929 . S
C2525 C2523 1.433 . S
C2525 N2528 1.384 . S
C2526 H2517 0.929 . S
C2526 C2518 1.378 . S
C2526 C2521 1.350 . S
C2527 H2514 0.929 . S
C2527 C2519 1.433 . S
C2527 N2529 1.384 . S
N2528 C2524 1.427 . S
N2528 C2525 1.384 . S
N2529 C2521 1.427 . S
N2529 C2527 1.384 . S
H2530 C2536 0.930 . S
H2531 C2540 0.930 . S
H2532 C2545 0.929 . S
H2533 C2543 0.929 . S
H2534 C2538 0.929 . S
H2535 C2544 0.929 . S
C2536 H2530 0.930 . S
C2536 C2537 1.367 . S
C2536 C2544 1.378 . S
C2537 C2536 1.367 . S
C2537 C2545 1.433 . S
C2538 H2534 0.929 . S
C2538 C2540 1.378 . S
C2538 C2542 1.350 . S
C2539 C2542 1.463 . S
C2539 C2544 1.350 . S
C2539 N2547 1.427 . S
C2540 H2531 0.930 . S
C2540 C2538 1.378 . S
C2540 C2541 1.367 . S
C2541 C2540 1.367 . S
C2541 C2543 1.433 . S
C2542 C2538 1.350 . S
C2542 C2539 1.463 . S
C2542 N2546 1.427 . S
C2543 H2533 0.929 . S
C2543 C2541 1.433 . S
C2543 N2546 1.384 . S
C2544 H2535 0.929 . S
C2544 C2536 1.378 . S
C2544 C2539 1.350 . S
C2545 H2532 0.929 . S
C2545 C2537 1.433 . S
C2545 N2547 1.384 . S
N2546 C2542 1.427 . S
N2546 C2543 1.384 . S
N2547 C2539 1.427 . S
N2547 C2545 1.384 . S
H2548 C2554 0.930 . S
H2549 C2558 0.930 . S
H2550 C2563 0.929 . S
H2551 C2561 0.929 . S
H2552 C2556 0.929 . S
H2553 C2562 0.929 . S
C2554 H2548 0.930 . S
C2554 C2555 1.367 . S
C2554 C2562 1.378 . S
C2555 C2554 1.367 . S
C2555 C2563 1.433 . S
C2556 H2552 0.929 . S
C2556 C2558 1.378 . S
C2556 C2560 1.350 . S
C2557 C2560 1.463 . S
C2557 C2562 1.350 . S
C2557 N2565 1.427 . S
C2558 H2549 0.930 . S
C2558 C2556 1.378 . S
C2558 C2559 1.367 . S
C2559 C2558 1.367 . S
C2559 C2561 1.433 . S
C2560 C2556 1.350 . S
C2560 C2557 1.463 . S
C2560 N2564 1.427 . S
C2561 H2551 0.929 . S
C2561 C2559 1.433 . S
C2561 N2564 1.384 . S
C2562 H2553 0.929 . S
C2562 C2554 1.378 . S
C2562 C2557 1.350 . S
C2563 H2550 0.929 . S
C2563 C2555 1.433 . S
C2563 N2565 1.384 . S
N2564 C2560 1.427 . S
N2564 C2561 1.384 . S
N2565 C2557 1.427 . S
N2565 C2563 1.384 . S
H2566 C2572 0.930 . S
H2567 C2576 0.930 . S
H2568 C2581 0.929 . S
H2569 C2579 0.929 . S
H2570 C2574 0.929 . S
H2571 C2580 0.929 . S
C2572 H2566 0.930 . S
C2572 C2573 1.367 . S
C2572 C2580 1.378 . S
C2573 C2572 1.367 . S
C2573 C2581 1.433 . S
C2574 H2570 0.929 . S
C2574 C2576 1.378 . S
C2574 C2578 1.350 . S
C2575 C2578 1.463 . S
C2575 C2580 1.350 . S
C2575 N2583 1.427 . S
C2576 H2567 0.930 . S
C2576 C2574 1.378 . S
C2576 C2577 1.367 . S
C2577 C2576 1.367 . S
C2577 C2579 1.433 . S
C2578 C2574 1.350 . S
C2578 C2575 1.463 . S
C2578 N2582 1.427 . S
C2579 H2569 0.929 . S
C2579 C2577 1.433 . S
C2579 N2582 1.384 . S
C2580 H2571 0.929 . S
C2580 C2572 1.378 . S
C2580 C2575 1.350 . S
C2581 H2568 0.929 . S
C2581 C2573 1.433 . S
C2581 N2583 1.384 . S
N2582 C2578 1.427 . S
N2582 C2579 1.384 . S
N2583 C2575 1.427 . S
N2583 C2581 1.384 . S
H2584 C2590 0.930 . S
H2585 C2594 0.930 . S
H2586 C2599 0.929 . S
H2587 C2597 0.929 . S
H2588 C2592 0.929 . S
H2589 C2598 0.929 . S
C2590 H2584 0.930 . S
C2590 C2591 1.367 . S
C2590 C2598 1.378 . S
C2591 C2590 1.367 . S
C2591 C2599 1.433 . S
C2592 H2588 0.929 . S
C2592 C2594 1.378 . S
C2592 C2596 1.350 . S
C2593 C2596 1.463 . S
C2593 C2598 1.350 . S
C2593 N2601 1.427 . S
C2594 H2585 0.930 . S
C2594 C2592 1.378 . S
C2594 C2595 1.367 . S
C2595 C2594 1.367 . S
C2595 C2597 1.433 . S
C2596 C2592 1.350 . S
C2596 C2593 1.463 . S
C2596 N2600 1.427 . S
C2597 H2587 0.929 . S
C2597 C2595 1.433 . S
C2597 N2600 1.384 . S
C2598 H2589 0.929 . S
C2598 C2590 1.378 . S
C2598 C2593 1.350 . S
C2599 H2586 0.929 . S
C2599 C2591 1.433 . S
C2599 N2601 1.384 . S
N2600 C2596 1.427 . S
N2600 C2597 1.384 . S
N2601 C2593 1.427 . S
N2601 C2599 1.384 . S
H2602 C2608 0.930 . S
H2603 C2612 0.930 . S
H2604 C2617 0.929 . S
H2605 C2615 0.929 . S
H2606 C2610 0.929 . S
H2607 C2616 0.929 . S
C2608 H2602 0.930 . S
C2608 C2609 1.367 . S
C2608 C2616 1.378 . S
C2609 C2608 1.367 . S
C2609 C2617 1.433 . S
C2610 H2606 0.929 . S
C2610 C2612 1.378 . S
C2610 C2614 1.350 . S
C2611 C2614 1.463 . S
C2611 C2616 1.350 . S
C2611 N2619 1.427 . S
C2612 H2603 0.930 . S
C2612 C2610 1.378 . S
C2612 C2613 1.367 . S
C2613 C2612 1.367 . S
C2613 C2615 1.433 . S
C2614 C2610 1.350 . S
C2614 C2611 1.463 . S
C2614 N2618 1.427 . S
C2615 H2605 0.929 . S
C2615 C2613 1.433 . S
C2615 N2618 1.384 . S
C2616 H2607 0.929 . S
C2616 C2608 1.378 . S
C2616 C2611 1.350 . S
C2617 H2604 0.929 . S
C2617 C2609 1.433 . S
C2617 N2619 1.384 . S
N2618 C2614 1.427 . S
N2618 C2615 1.384 . S
N2619 C2611 1.427 . S
N2619 C2617 1.384 . S
H2620 C2626 0.930 . S
H2621 C2630 0.930 . S
H2622 C2635 0.929 . S
H2623 C2633 0.929 . S
H2624 C2628 0.929 . S
H2625 C2634 0.929 . S
C2626 H2620 0.930 . S
C2626 C2627 1.367 . S
C2626 C2634 1.378 . S
C2627 C2626 1.367 . S
C2627 C2635 1.433 . S
C2628 H2624 0.929 . S
C2628 C2630 1.378 . S
C2628 C2632 1.350 . S
C2629 C2632 1.463 . S
C2629 C2634 1.350 . S
C2629 N2637 1.427 . S
C2630 H2621 0.930 . S
C2630 C2628 1.378 . S
C2630 C2631 1.367 . S
C2631 C2630 1.367 . S
C2631 C2633 1.433 . S
C2632 C2628 1.350 . S
C2632 C2629 1.463 . S
C2632 N2636 1.427 . S
C2633 H2623 0.929 . S
C2633 C2631 1.433 . S
C2633 N2636 1.384 . S
C2634 H2625 0.929 . S
C2634 C2626 1.378 . S
C2634 C2629 1.350 . S
C2635 H2622 0.929 . S
C2635 C2627 1.433 . S
C2635 N2637 1.384 . S
N2636 C2632 1.427 . S
N2636 C2633 1.384 . S
N2637 C2629 1.427 . S
N2637 C2635 1.384 . S
H2638 C2644 0.930 . S
H2639 C2648 0.930 . S
H2640 C2653 0.929 . S
H2641 C2651 0.929 . S
H2642 C2646 0.929 . S
H2643 C2652 0.929 . S
C2644 H2638 0.930 . S
C2644 C2645 1.367 . S
C2644 C2652 1.378 . S
C2645 C2644 1.367 . S
C2645 C2653 1.433 . S
C2646 H2642 0.929 . S
C2646 C2648 1.378 . S
C2646 C2650 1.350 . S
C2647 C2650 1.463 . S
C2647 C2652 1.350 . S
C2647 N2655 1.427 . S
C2648 H2639 0.930 . S
C2648 C2646 1.378 . S
C2648 C2649 1.367 . S
C2649 C2648 1.367 . S
C2649 C2651 1.433 . S
C2650 C2646 1.350 . S
C2650 C2647 1.463 . S
C2650 N2654 1.427 . S
C2651 H2641 0.929 . S
C2651 C2649 1.433 . S
C2651 N2654 1.384 . S
C2652 H2643 0.929 . S
C2652 C2644 1.378 . S
C2652 C2647 1.350 . S
C2653 H2640 0.929 . S
C2653 C2645 1.433 . S
C2653 N2655 1.384 . S
N2654 C2650 1.427 . S
N2654 C2651 1.384 . S
N2655 C2647 1.427 . S
N2655 C2653 1.384 . S
H2656 C2662 0.930 . S
H2657 C2666 0.930 . S
H2658 C2671 0.929 . S
H2659 C2669 0.929 . S
H2660 C2664 0.929 . S
H2661 C2670 0.929 . S
C2662 H2656 0.930 . S
C2662 C2663 1.367 . S
C2662 C2670 1.378 . S
C2663 C2662 1.367 . S
C2663 C2671 1.433 . S
C2664 H2660 0.929 . S
C2664 C2666 1.378 . S
C2664 C2668 1.350 . S
C2665 C2668 1.463 . S
C2665 C2670 1.350 . S
C2665 N2673 1.427 . S
C2666 H2657 0.930 . S
C2666 C2664 1.378 . S
C2666 C2667 1.367 . S
C2667 C2666 1.367 . S
C2667 C2669 1.433 . S
C2668 C2664 1.350 . S
C2668 C2665 1.463 . S
C2668 N2672 1.427 . S
C2669 H2659 0.929 . S
C2669 C2667 1.433 . S
C2669 N2672 1.384 . S
C2670 H2661 0.929 . S
C2670 C2662 1.378 . S
C2670 C2665 1.350 . S
C2671 H2658 0.929 . S
C2671 C2663 1.433 . S
C2671 N2673 1.384 . S
N2672 C2668 1.427 . S
N2672 C2669 1.384 . S
N2673 C2665 1.427 . S
N2673 C2671 1.384 . S
H2674 C2680 0.930 . S
H2675 C2684 0.930 . S
H2676 C2689 0.929 . S
H2677 C2687 0.929 . S
H2678 C2682 0.929 . S
H2679 C2688 0.929 . S
C2680 H2674 0.930 . S
C2680 C2681 1.367 . S
C2680 C2688 1.378 . S
C2681 C2680 1.367 . S
C2681 C2689 1.433 . S
C2682 H2678 0.929 . S
C2682 C2684 1.378 . S
C2682 C2686 1.350 . S
C2683 C2686 1.463 . S
C2683 C2688 1.350 . S
C2683 N2691 1.427 . S
C2684 H2675 0.930 . S
C2684 C2682 1.378 . S
C2684 C2685 1.367 . S
C2685 C2684 1.367 . S
C2685 C2687 1.433 . S
C2686 C2682 1.350 . S
C2686 C2683 1.463 . S
C2686 N2690 1.427 . S
C2687 H2677 0.929 . S
C2687 C2685 1.433 . S
C2687 N2690 1.384 . S
C2688 H2679 0.929 . S
C2688 C2680 1.378 . S
C2688 C2683 1.350 . S
C2689 H2676 0.929 . S
C2689 C2681 1.433 . S
C2689 N2691 1.384 . S
N2690 C2686 1.427 . S
N2690 C2687 1.384 . S
N2691 C2683 1.427 . S
N2691 C2689 1.384 . S
H2692 C2698 0.930 . S
H2693 C2702 0.930 . S
H2694 C2707 0.929 . S
H2695 C2705 0.929 . S
H2696 C2700 0.929 . S
H2697 C2706 0.929 . S
C2698 H2692 0.930 . S
C2698 C2699 1.367 . S
C2698 C2706 1.378 . S
C2699 C2698 1.367 . S
C2699 C2707 1.433 . S
C2700 H2696 0.929 . S
C2700 C2702 1.378 . S
C2700 C2704 1.350 . S
C2701 C2704 1.463 . S
C2701 C2706 1.350 . S
C2701 N2709 1.427 . S
C2702 H2693 0.930 . S
C2702 C2700 1.378 . S
C2702 C2703 1.367 . S
C2703 C2702 1.367 . S
C2703 C2705 1.433 . S
C2704 C2700 1.350 . S
C2704 C2701 1.463 . S
C2704 N2708 1.427 . S
C2705 H2695 0.929 . S
C2705 C2703 1.433 . S
C2705 N2708 1.384 . S
C2706 H2697 0.929 . S
C2706 C2698 1.378 . S
C2706 C2701 1.350 . S
C2707 H2694 0.929 . S
C2707 C2699 1.433 . S
C2707 N2709 1.384 . S
N2708 C2704 1.427 . S
N2708 C2705 1.384 . S
N2709 C2701 1.427 . S
N2709 C2707 1.384 . S
H2710 C2716 0.930 . S
H2711 C2720 0.930 . S
H2712 C2725 0.929 . S
H2713 C2723 0.914 1_556 S
H2714 C2718 0.929 . S
H2715 C2724 0.958 1_545 S
C2716 H2710 0.930 . S
C2716 C2717 1.367 1_556 S
C2716 C2724 1.374 . S
C2717 C2716 1.367 1_554 S
C2717 C2725 1.433 . S
C2718 H2714 0.929 . S
C2718 C2720 1.378 . S
C2718 C2722 1.350 . S
C2719 C2722 1.463 . S
C2719 C2724 1.325 1_554 S
C2719 N2727 1.427 . S
C2720 H2711 0.930 . S
C2720 C2718 1.378 . S
C2720 C2721 1.367 1_565 S
C2721 C2720 1.367 1_545 S
C2721 C2723 1.447 . S
C2722 C2718 1.350 . S
C2722 C2719 1.463 . S
C2722 N2726 1.431 1_565 S
C2723 H2713 0.914 1_554 S
C2723 C2721 1.447 . S
C2723 N2726 1.386 . S
C2724 H2715 0.958 1_565 S
C2724 C2716 1.374 . S
C2724 C2719 1.325 1_556 S
C2725 H2712 0.929 . S
C2725 C2717 1.433 . S
C2725 N2727 1.384 . S
N2726 C2722 1.431 1_545 S
N2726 C2723 1.386 . S
N2727 C2719 1.427 . S
N2727 C2725 1.384 . S
H2728 C2734 0.930 . S
H2729 C2738 0.930 . S
H2730 C2743 0.929 . S
H2731 C2741 0.929 . S
H2732 C2736 0.929 . S
H2733 C2742 0.929 . S
C2734 H2728 0.930 . S
C2734 C2735 1.367 . S
C2734 C2742 1.378 . S
C2735 C2734 1.367 . S
C2735 C2743 1.433 . S
C2736 H2732 0.929 . S
C2736 C2738 1.378 . S
C2736 C2740 1.350 . S
C2737 C2740 1.463 . S
C2737 C2742 1.350 . S
C2737 N2745 1.427 . S
C2738 H2729 0.930 . S
C2738 C2736 1.378 . S
C2738 C2739 1.367 . S
C2739 C2738 1.367 . S
C2739 C2741 1.433 . S
C2740 C2736 1.350 . S
C2740 C2737 1.463 . S
C2740 N2744 1.427 . S
C2741 H2731 0.929 . S
C2741 C2739 1.433 . S
C2741 N2744 1.384 . S
C2742 H2733 0.929 . S
C2742 C2734 1.378 . S
C2742 C2737 1.350 . S
C2743 H2730 0.929 . S
C2743 C2735 1.433 . S
C2743 N2745 1.384 . S
N2744 C2740 1.427 . S
N2744 C2741 1.384 . S
N2745 C2737 1.427 . S
N2745 C2743 1.384 . S
H2746 C2752 0.930 . S
H2747 C2756 0.930 . S
H2748 C2761 0.929 . S
H2749 C2759 0.929 . S
H2750 C2754 0.929 . S
H2751 C2760 0.929 1_556 S
C2752 H2746 0.930 . S
C2752 C2753 1.367 1_556 S
C2752 C2760 1.378 1_556 S
C2753 C2752 1.367 1_554 S
C2753 C2761 1.433 . S
C2754 H2750 0.929 . S
C2754 C2756 1.378 . S
C2754 C2758 1.350 . S
C2755 C2758 1.463 . S
C2755 C2760 1.350 . S
C2755 N2763 1.427 . S
C2756 H2747 0.930 . S
C2756 C2754 1.378 . S
C2756 C2757 1.367 . S
C2757 C2756 1.367 . S
C2757 C2759 1.433 . S
C2758 C2754 1.350 . S
C2758 C2755 1.463 . S
C2758 N2762 1.427 . S
C2759 H2749 0.929 . S
C2759 C2757 1.433 . S
C2759 N2762 1.384 . S
C2760 H2751 0.929 1_554 S
C2760 C2752 1.378 1_554 S
C2760 C2755 1.350 . S
C2761 H2748 0.929 . S
C2761 C2753 1.433 . S
C2761 N2763 1.384 . S
N2762 C2758 1.427 . S
N2762 C2759 1.384 . S
N2763 C2755 1.427 . S
N2763 C2761 1.384 . S
H2764 C2770 0.930 . S
H2765 C2774 0.930 . S
H2766 C2779 0.929 . S
H2767 C2777 0.929 . S
H2768 C2772 0.929 . S
H2769 C2778 0.929 . S
C2770 H2764 0.930 . S
C2770 C2771 1.367 . S
C2770 C2778 1.378 . S
C2771 C2770 1.367 . S
C2771 C2779 1.433 . S
C2772 H2768 0.929 . S
C2772 C2774 1.378 . S
C2772 C2776 1.350 . S
C2773 C2776 1.463 . S
C2773 C2778 1.350 . S
C2773 N2781 1.427 . S
C2774 H2765 0.930 . S
C2774 C2772 1.378 . S
C2774 C2775 1.367 . S
C2775 C2774 1.367 . S
C2775 C2777 1.433 . S
C2776 C2772 1.350 . S
C2776 C2773 1.463 . S
C2776 N2780 1.427 . S
C2777 H2767 0.929 . S
C2777 C2775 1.433 . S
C2777 N2780 1.384 . S
C2778 H2769 0.929 . S
C2778 C2770 1.378 . S
C2778 C2773 1.350 . S
C2779 H2766 0.929 . S
C2779 C2771 1.433 . S
C2779 N2781 1.384 . S
N2780 C2776 1.427 . S
N2780 C2777 1.384 . S
N2781 C2773 1.427 . S
N2781 C2779 1.384 . S
H2782 C2788 0.930 . S
H2783 C2792 0.930 . S
H2784 C2797 0.929 . S
H2785 C2795 0.929 . S
H2786 C2790 0.929 . S
H2787 C2796 0.929 . S
C2788 H2782 0.930 . S
C2788 C2789 1.367 . S
C2788 C2796 1.378 . S
C2789 C2788 1.367 . S
C2789 C2797 1.433 . S
C2790 H2786 0.929 . S
C2790 C2792 1.378 . S
C2790 C2794 1.350 . S
C2791 C2794 1.463 . S
C2791 C2796 1.350 . S
C2791 N2799 1.427 . S
C2792 H2783 0.930 . S
C2792 C2790 1.378 . S
C2792 C2793 1.367 . S
C2793 C2792 1.367 . S
C2793 C2795 1.433 . S
C2794 C2790 1.350 . S
C2794 C2791 1.463 . S
C2794 N2798 1.427 . S
C2795 H2785 0.929 . S
C2795 C2793 1.433 . S
C2795 N2798 1.384 . S
C2796 H2787 0.929 . S
C2796 C2788 1.378 . S
C2796 C2791 1.350 . S
C2797 H2784 0.929 . S
C2797 C2789 1.433 . S
C2797 N2799 1.384 . S
N2798 C2794 1.427 . S
N2798 C2795 1.384 . S
N2799 C2791 1.427 . S
N2799 C2797 1.384 . S
H2800 C2806 0.930 . S
H2801 C2810 0.930 . S
H2802 C2815 0.929 . S
H2803 C2813 0.929 . S
H2804 C2808 0.929 . S
H2805 C2814 0.929 . S
C2806 H2800 0.930 . S
C2806 C2807 1.367 . S
C2806 C2814 1.378 . S
C2807 C2806 1.367 . S
C2807 C2815 1.433 . S
C2808 H2804 0.929 . S
C2808 C2810 1.378 . S
C2808 C2812 1.350 . S
C2809 C2812 1.463 . S
C2809 C2814 1.350 . S
C2809 N2817 1.427 . S
C2810 H2801 0.930 . S
C2810 C2808 1.378 . S
C2810 C2811 1.367 . S
C2811 C2810 1.367 . S
C2811 C2813 1.433 . S
C2812 C2808 1.350 . S
C2812 C2809 1.463 . S
C2812 N2816 1.427 . S
C2813 H2803 0.929 . S
C2813 C2811 1.433 . S
C2813 N2816 1.384 . S
C2814 H2805 0.929 . S
C2814 C2806 1.378 . S
C2814 C2809 1.350 . S
C2815 H2802 0.929 . S
C2815 C2807 1.433 . S
C2815 N2817 1.384 . S
N2816 C2812 1.427 . S
N2816 C2813 1.384 . S
N2817 C2809 1.427 . S
N2817 C2815 1.384 . S
H2818 C2824 0.930 . S
H2819 C2828 0.930 . S
H2820 C2833 0.929 . S
H2821 C2831 0.929 . S
H2822 C2826 0.929 . S
H2823 C2832 0.929 . S
C2824 H2818 0.930 . S
C2824 C2825 1.367 . S
C2824 C2832 1.378 . S
C2825 C2824 1.367 . S
C2825 C2833 1.433 . S
C2826 H2822 0.929 . S
C2826 C2828 1.378 . S
C2826 C2830 1.350 . S
C2827 C2830 1.463 . S
C2827 C2832 1.350 . S
C2827 N2835 1.427 . S
C2828 H2819 0.930 . S
C2828 C2826 1.378 . S
C2828 C2829 1.367 . S
C2829 C2828 1.367 . S
C2829 C2831 1.433 . S
C2830 C2826 1.350 . S
C2830 C2827 1.463 . S
C2830 N2834 1.427 . S
C2831 H2821 0.929 . S
C2831 C2829 1.433 . S
C2831 N2834 1.384 . S
C2832 H2823 0.929 . S
C2832 C2824 1.378 . S
C2832 C2827 1.350 . S
C2833 H2820 0.929 . S
C2833 C2825 1.433 . S
C2833 N2835 1.384 . S
N2834 C2830 1.427 . S
N2834 C2831 1.384 . S
N2835 C2827 1.427 . S
N2835 C2833 1.384 . S
H2836 C2842 0.930 . S
H2837 C2846 0.930 . S
H2838 C2851 0.929 . S
H2839 C2849 0.929 . S
H2840 C2844 0.929 . S
H2841 C2850 0.929 . S
C2842 H2836 0.930 . S
C2842 C2843 1.367 . S
C2842 C2850 1.378 . S
C2843 C2842 1.367 . S
C2843 C2851 1.433 . S
C2844 H2840 0.929 . S
C2844 C2846 1.378 . S
C2844 C2848 1.350 . S
C2845 C2848 1.463 . S
C2845 C2850 1.350 . S
C2845 N2853 1.427 . S
C2846 H2837 0.930 . S
C2846 C2844 1.378 . S
C2846 C2847 1.367 . S
C2847 C2846 1.367 . S
C2847 C2849 1.433 . S
C2848 C2844 1.350 . S
C2848 C2845 1.463 . S
C2848 N2852 1.427 . S
C2849 H2839 0.929 . S
C2849 C2847 1.433 . S
C2849 N2852 1.384 . S
C2850 H2841 0.929 . S
C2850 C2842 1.378 . S
C2850 C2845 1.350 . S
C2851 H2838 0.929 . S
C2851 C2843 1.433 . S
C2851 N2853 1.384 . S
N2852 C2848 1.427 . S
N2852 C2849 1.384 . S
N2853 C2845 1.427 . S
N2853 C2851 1.384 . S
H2854 C2860 0.930 . S
H2855 C2864 0.930 . S
H2856 C2869 0.929 . S
H2857 C2867 0.929 . S
H2858 C2862 0.929 . S
H2859 C2868 0.929 . S
C2860 H2854 0.930 . S
C2860 C2861 1.367 . S
C2860 C2868 1.378 . S
C2861 C2860 1.367 . S
C2861 C2869 1.433 . S
C2862 H2858 0.929 . S
C2862 C2864 1.378 . S
C2862 C2866 1.350 . S
C2863 C2866 1.463 . S
C2863 C2868 1.350 . S
C2863 N2871 1.427 . S
C2864 H2855 0.930 . S
C2864 C2862 1.378 . S
C2864 C2865 1.367 . S
C2865 C2864 1.367 . S
C2865 C2867 1.433 . S
C2866 C2862 1.350 . S
C2866 C2863 1.463 . S
C2866 N2870 1.427 . S
C2867 H2857 0.929 . S
C2867 C2865 1.433 . S
C2867 N2870 1.384 . S
C2868 H2859 0.929 . S
C2868 C2860 1.378 . S
C2868 C2863 1.350 . S
C2869 H2856 0.929 . S
C2869 C2861 1.433 . S
C2869 N2871 1.384 . S
N2870 C2866 1.427 . S
N2870 C2867 1.384 . S
N2871 C2863 1.427 . S
N2871 C2869 1.384 . S
H2872 C2878 0.930 . S
H2873 C2882 0.930 . S
H2874 C2887 0.929 . S
H2875 C2885 0.929 . S
H2876 C2880 0.929 . S
H2877 C2886 0.929 . S
C2878 H2872 0.930 . S
C2878 C2879 1.367 . S
C2878 C2886 1.378 . S
C2879 C2878 1.367 . S
C2879 C2887 1.433 . S
C2880 H2876 0.929 . S
C2880 C2882 1.378 . S
C2880 C2884 1.350 . S
C2881 C2884 1.463 . S
C2881 C2886 1.350 . S
C2881 N2889 1.427 . S
C2882 H2873 0.930 . S
C2882 C2880 1.378 . S
C2882 C2883 1.367 . S
C2883 C2882 1.367 . S
C2883 C2885 1.433 . S
C2884 C2880 1.350 . S
C2884 C2881 1.463 . S
C2884 N2888 1.427 . S
C2885 H2875 0.929 . S
C2885 C2883 1.433 . S
C2885 N2888 1.384 . S
C2886 H2877 0.929 . S
C2886 C2878 1.378 . S
C2886 C2881 1.350 . S
C2887 H2874 0.929 . S
C2887 C2879 1.433 . S
C2887 N2889 1.384 . S
N2888 C2884 1.427 . S
N2888 C2885 1.384 . S
N2889 C2881 1.427 . S
N2889 C2887 1.384 . S
H2890 C2896 0.930 . S
H2891 C2900 0.930 . S
H2892 C2905 0.929 . S
H2893 C2903 0.929 . S
H2894 C2898 0.929 . S
H2895 C2904 0.929 . S
C2896 H2890 0.930 . S
C2896 C2897 1.367 . S
C2896 C2904 1.378 . S
C2897 C2896 1.367 . S
C2897 C2905 1.433 . S
C2898 H2894 0.929 . S
C2898 C2900 1.378 . S
C2898 C2902 1.350 . S
C2899 C2902 1.463 . S
C2899 C2904 1.350 . S
C2899 N2907 1.427 . S
C2900 H2891 0.930 . S
C2900 C2898 1.378 . S
C2900 C2901 1.367 . S
C2901 C2900 1.367 . S
C2901 C2903 1.433 . S
C2902 C2898 1.350 . S
C2902 C2899 1.463 . S
C2902 N2906 1.427 . S
C2903 H2893 0.929 . S
C2903 C2901 1.433 . S
C2903 N2906 1.384 . S
C2904 H2895 0.929 . S
C2904 C2896 1.378 . S
C2904 C2899 1.350 . S
C2905 H2892 0.929 . S
C2905 C2897 1.433 . S
C2905 N2907 1.384 . S
N2906 C2902 1.427 . S
N2906 C2903 1.384 . S
N2907 C2899 1.427 . S
N2907 C2905 1.384 . S
H2908 C2914 0.930 . S
H2909 C2918 0.930 . S
H2910 C2923 0.929 . S
H2911 C2921 0.929 . S
H2912 C2916 0.929 . S
H2913 C2922 0.929 . S
C2914 H2908 0.930 . S
C2914 C2915 1.367 . S
C2914 C2922 1.378 . S
C2915 C2914 1.367 . S
C2915 C2923 1.433 . S
C2916 H2912 0.929 . S
C2916 C2918 1.378 . S
C2916 C2920 1.350 . S
C2917 C2920 1.463 . S
C2917 C2922 1.350 . S
C2917 N2925 1.427 . S
C2918 H2909 0.930 . S
C2918 C2916 1.378 . S
C2918 C2919 1.367 . S
C2919 C2918 1.367 . S
C2919 C2921 1.433 . S
C2920 C2916 1.350 . S
C2920 C2917 1.463 . S
C2920 N2924 1.427 . S
C2921 H2911 0.929 . S
C2921 C2919 1.433 . S
C2921 N2924 1.384 . S
C2922 H2913 0.929 . S
C2922 C2914 1.378 . S
C2922 C2917 1.350 . S
C2923 H2910 0.929 . S
C2923 C2915 1.433 . S
C2923 N2925 1.384 . S
N2924 C2920 1.427 . S
N2924 C2921 1.384 . S
N2925 C2917 1.427 . S
N2925 C2923 1.384 . S
H2926 C2932 0.930 . S
H2927 C2936 0.930 . S
H2928 C2941 0.929 . S
H2929 C2939 0.929 . S
H2930 C2934 0.929 . S
H2931 C2940 0.929 . S
C2932 H2926 0.930 . S
C2932 C2933 1.367 . S
C2932 C2940 1.378 . S
C2933 C2932 1.367 . S
C2933 C2941 1.433 . S
C2934 H2930 0.929 . S
C2934 C2936 1.378 . S
C2934 C2938 1.350 . S
C2935 C2938 1.463 . S
C2935 C2940 1.350 . S
C2935 N2943 1.427 . S
C2936 H2927 0.930 . S
C2936 C2934 1.378 . S
C2936 C2937 1.367 . S
C2937 C2936 1.367 . S
C2937 C2939 1.433 . S
C2938 C2934 1.350 . S
C2938 C2935 1.463 . S
C2938 N2942 1.427 . S
C2939 H2929 0.929 . S
C2939 C2937 1.433 . S
C2939 N2942 1.384 . S
C2940 H2931 0.929 . S
C2940 C2932 1.378 . S
C2940 C2935 1.350 . S
C2941 H2928 0.929 . S
C2941 C2933 1.433 . S
C2941 N2943 1.384 . S
N2942 C2938 1.427 . S
N2942 C2939 1.384 . S
N2943 C2935 1.427 . S
N2943 C2941 1.384 . S
H2944 C2950 0.930 . S
H2945 C2954 0.930 . S
H2946 C2959 0.929 . S
H2947 C2957 0.929 . S
H2948 C2952 0.929 . S
H2949 C2958 0.929 . S
C2950 H2944 0.930 . S
C2950 C2951 1.367 . S
C2950 C2958 1.378 . S
C2951 C2950 1.367 . S
C2951 C2959 1.433 . S
C2952 H2948 0.929 . S
C2952 C2954 1.378 . S
C2952 C2956 1.350 . S
C2953 C2956 1.463 . S
C2953 C2958 1.350 . S
C2953 N2961 1.427 . S
C2954 H2945 0.930 . S
C2954 C2952 1.378 . S
C2954 C2955 1.367 . S
C2955 C2954 1.367 . S
C2955 C2957 1.433 . S
C2956 C2952 1.350 . S
C2956 C2953 1.463 . S
C2956 N2960 1.427 . S
C2957 H2947 0.929 . S
C2957 C2955 1.433 . S
C2957 N2960 1.384 . S
C2958 H2949 0.929 . S
C2958 C2950 1.378 . S
C2958 C2953 1.350 . S
C2959 H2946 0.929 . S
C2959 C2951 1.433 . S
C2959 N2961 1.384 . S
N2960 C2956 1.427 . S
N2960 C2957 1.384 . S
N2961 C2953 1.427 . S
N2961 C2959 1.384 . S
H2962 C2968 0.930 . S
H2963 C2972 0.930 . S
H2964 C2977 0.929 . S
H2965 C2975 0.929 . S
H2966 C2970 0.929 . S
H2967 C2976 0.929 . S
C2968 H2962 0.930 . S
C2968 C2969 1.367 . S
C2968 C2976 1.378 . S
C2969 C2968 1.367 . S
C2969 C2977 1.433 . S
C2970 H2966 0.929 . S
C2970 C2972 1.378 . S
C2970 C2974 1.350 . S
C2971 C2974 1.463 . S
C2971 C2976 1.350 . S
C2971 N2979 1.427 . S
C2972 H2963 0.930 . S
C2972 C2970 1.378 . S
C2972 C2973 1.367 . S
C2973 C2972 1.367 . S
C2973 C2975 1.433 . S
C2974 C2970 1.350 . S
C2974 C2971 1.463 . S
C2974 N2978 1.427 . S
C2975 H2965 0.929 . S
C2975 C2973 1.433 . S
C2975 N2978 1.384 . S
C2976 H2967 0.929 . S
C2976 C2968 1.378 . S
C2976 C2971 1.350 . S
C2977 H2964 0.929 . S
C2977 C2969 1.433 . S
C2977 N2979 1.384 . S
N2978 C2974 1.427 . S
N2978 C2975 1.384 . S
N2979 C2971 1.427 . S
N2979 C2977 1.384 . S
H2980 C2986 0.930 . S
H2981 C2990 0.930 . S
H2982 C2995 0.929 . S
H2983 C2993 0.929 . S
H2984 C2988 0.929 . S
H2985 C2994 0.929 . S
C2986 H2980 0.930 . S
C2986 C2987 1.367 . S
C2986 C2994 1.378 . S
C2987 C2986 1.367 . S
C2987 C2995 1.433 . S
C2988 H2984 0.929 . S
C2988 C2990 1.378 . S
C2988 C2992 1.352 1_455 S
C2989 C2992 1.460 . S
C2989 C2994 1.350 . S
C2989 N2997 1.427 . S
C2990 H2981 0.930 . S
C2990 C2988 1.378 . S
C2990 C2991 1.367 . S
C2991 C2990 1.367 . S
C2991 C2993 1.433 . S
C2992 C2988 1.352 1_655 S
C2992 C2989 1.460 . S
C2992 N2996 1.427 1_655 S
C2993 H2983 0.929 . S
C2993 C2991 1.433 . S
C2993 N2996 1.384 . S
C2994 H2985 0.929 . S
C2994 C2986 1.378 . S
C2994 C2989 1.350 . S
C2995 H2982 0.929 . S
C2995 C2987 1.433 . S
C2995 N2997 1.384 . S
N2996 C2992 1.427 1_455 S
N2996 C2993 1.384 . S
N2997 C2989 1.427 . S
N2997 C2995 1.384 . S
H2998 C3004 0.930 . S
H2999 C3008 0.930 . S
H3000 C3013 0.929 . S
H3001 C3011 0.929 . S
H3002 C3006 0.929 . S
H3003 C3012 0.929 . S
C3004 H2998 0.930 . S
C3004 C3005 1.367 . S
C3004 C3012 1.378 . S
C3005 C3004 1.367 . S
C3005 C3013 1.433 . S
C3006 H3002 0.929 . S
C3006 C3008 1.378 . S
C3006 C3010 1.350 . S
C3007 C3010 1.463 . S
C3007 C3012 1.350 . S
C3007 N3015 1.427 . S
C3008 H2999 0.930 . S
C3008 C3006 1.378 . S
C3008 C3009 1.367 . S
C3009 C3008 1.367 . S
C3009 C3011 1.433 . S
C3010 C3006 1.350 . S
C3010 C3007 1.463 . S
C3010 N3014 1.427 . S
C3011 H3001 0.929 . S
C3011 C3009 1.433 . S
C3011 N3014 1.384 . S
C3012 H3003 0.929 . S
C3012 C3004 1.378 . S
C3012 C3007 1.350 . S
C3013 H3000 0.929 . S
C3013 C3005 1.433 . S
C3013 N3015 1.384 . S
N3014 C3010 1.427 . S
N3014 C3011 1.384 . S
N3015 C3007 1.427 . S
N3015 C3013 1.384 . S
H3016 C3022 0.930 . S
H3017 C3026 0.930 . S
H3018 C3031 0.929 . S
H3019 C3029 0.929 . S
H3020 C3024 0.929 . S
H3021 C3030 0.929 . S
C3022 H3016 0.930 . S
C3022 C3023 1.367 . S
C3022 C3030 1.378 . S
C3023 C3022 1.367 . S
C3023 C3031 1.433 . S
C3024 H3020 0.929 . S
C3024 C3026 1.378 . S
C3024 C3028 1.350 . S
C3025 C3028 1.463 . S
C3025 C3030 1.350 . S
C3025 N3033 1.427 . S
C3026 H3017 0.930 . S
C3026 C3024 1.378 . S
C3026 C3027 1.367 . S
C3027 C3026 1.367 . S
C3027 C3029 1.433 . S
C3028 C3024 1.350 . S
C3028 C3025 1.463 . S
C3028 N3032 1.427 . S
C3029 H3019 0.929 . S
C3029 C3027 1.433 . S
C3029 N3032 1.384 . S
C3030 H3021 0.929 . S
C3030 C3022 1.378 . S
C3030 C3025 1.350 . S
C3031 H3018 0.929 . S
C3031 C3023 1.433 . S
C3031 N3033 1.384 . S
N3032 C3028 1.427 . S
N3032 C3029 1.384 . S
N3033 C3025 1.427 . S
N3033 C3031 1.384 . S
H3034 C3040 0.930 . S
H3035 C3044 0.930 . S
H3036 C3049 0.929 . S
H3037 C3047 0.929 . S
H3038 C3042 0.929 . S
H3039 C3048 0.929 . S
C3040 H3034 0.930 . S
C3040 C3041 1.367 . S
C3040 C3048 1.378 . S
C3041 C3040 1.367 . S
C3041 C3049 1.433 . S
C3042 H3038 0.929 . S
C3042 C3044 1.378 . S
C3042 C3046 1.350 . S
C3043 C3046 1.463 . S
C3043 C3048 1.350 . S
C3043 N3051 1.427 . S
C3044 H3035 0.930 . S
C3044 C3042 1.378 . S
C3044 C3045 1.367 . S
C3045 C3044 1.367 . S
C3045 C3047 1.433 . S
C3046 C3042 1.350 . S
C3046 C3043 1.463 . S
C3046 N3050 1.427 . S
C3047 H3037 0.929 . S
C3047 C3045 1.433 . S
C3047 N3050 1.384 . S
C3048 H3039 0.929 . S
C3048 C3040 1.378 . S
C3048 C3043 1.350 . S
C3049 H3036 0.929 . S
C3049 C3041 1.433 . S
C3049 N3051 1.384 . S
N3050 C3046 1.427 . S
N3050 C3047 1.384 . S
N3051 C3043 1.427 . S
N3051 C3049 1.384 . S
H3052 C3058 0.930 . S
H3053 C3062 0.930 1_455 S
H3054 C3067 0.929 . S
H3055 C3065 0.929 . S
H3056 C3060 0.929 . S
H3057 C3066 0.929 . S
C3058 H3052 0.930 . S
C3058 C3059 1.367 . S
C3058 C3066 1.378 . S
C3059 C3058 1.367 . S
C3059 C3067 1.433 . S
C3060 H3056 0.929 . S
C3060 C3062 1.378 . S
C3060 C3064 1.350 . S
C3061 C3064 1.463 . S
C3061 C3066 1.350 . S
C3061 N3069 1.427 . S
C3062 H3053 0.930 1_655 S
C3062 C3060 1.378 . S
C3062 C3063 1.367 . S
C3063 C3062 1.367 . S
C3063 C3065 1.433 . S
C3064 C3060 1.350 . S
C3064 C3061 1.463 . S
C3064 N3068 1.427 . S
C3065 H3055 0.929 . S
C3065 C3063 1.433 . S
C3065 N3068 1.384 . S
C3066 H3057 0.929 . S
C3066 C3058 1.378 . S
C3066 C3061 1.350 . S
C3067 H3054 0.929 . S
C3067 C3059 1.433 . S
C3067 N3069 1.384 . S
N3068 C3064 1.427 . S
N3068 C3065 1.384 . S
N3069 C3061 1.427 . S
N3069 C3067 1.384 . S
H3070 C3076 0.930 . S
H3071 C3080 0.930 . S
H3072 C3085 0.929 . S
H3073 C3083 0.929 . S
H3074 C3078 0.929 . S
H3075 C3084 0.929 . S
C3076 H3070 0.930 . S
C3076 C3077 1.367 . S
C3076 C3084 1.378 . S
C3077 C3076 1.367 . S
C3077 C3085 1.433 . S
C3078 H3074 0.929 . S
C3078 C3080 1.378 . S
C3078 C3082 1.350 . S
C3079 C3082 1.463 . S
C3079 C3084 1.350 . S
C3079 N3087 1.427 . S
C3080 H3071 0.930 . S
C3080 C3078 1.378 . S
C3080 C3081 1.367 . S
C3081 C3080 1.367 . S
C3081 C3083 1.433 . S
C3082 C3078 1.350 . S
C3082 C3079 1.463 . S
C3082 N3086 1.427 . S
C3083 H3073 0.929 . S
C3083 C3081 1.433 . S
C3083 N3086 1.384 . S
C3084 H3075 0.929 . S
C3084 C3076 1.378 . S
C3084 C3079 1.350 . S
C3085 H3072 0.929 . S
C3085 C3077 1.433 . S
C3085 N3087 1.384 . S
N3086 C3082 1.427 . S
N3086 C3083 1.384 . S
N3087 C3079 1.427 . S
N3087 C3085 1.384 . S
H3088 C3094 0.930 . S
H3089 C3098 0.930 . S
H3090 C3103 0.929 . S
H3091 C3101 0.929 . S
H3092 C3096 0.929 . S
H3093 C3102 0.929 . S
C3094 H3088 0.930 . S
C3094 C3095 1.367 . S
C3094 C3102 1.378 . S
C3095 C3094 1.367 . S
C3095 C3103 1.433 . S
C3096 H3092 0.929 . S
C3096 C3098 1.378 . S
C3096 C3100 1.350 . S
C3097 C3100 1.463 . S
C3097 C3102 1.350 . S
C3097 N3105 1.427 . S
C3098 H3089 0.930 . S
C3098 C3096 1.378 . S
C3098 C3099 1.367 . S
C3099 C3098 1.367 . S
C3099 C3101 1.433 . S
C3100 C3096 1.350 . S
C3100 C3097 1.463 . S
C3100 N3104 1.427 . S
C3101 H3091 0.929 . S
C3101 C3099 1.433 . S
C3101 N3104 1.384 . S
C3102 H3093 0.929 . S
C3102 C3094 1.378 . S
C3102 C3097 1.350 . S
C3103 H3090 0.929 . S
C3103 C3095 1.433 . S
C3103 N3105 1.384 . S
N3104 C3100 1.427 . S
N3104 C3101 1.384 . S
N3105 C3097 1.427 . S
N3105 C3103 1.384 . S
H3106 C3112 0.930 . S
H3107 C3116 0.969 . S
H3108 C3121 0.929 . S
H3109 C3119 0.929 . S
H3110 C3114 0.929 . S
H3111 C3120 0.929 . S
C3112 H3106 0.930 . S
C3112 C3113 1.367 . S
C3112 C3120 1.378 . S
C3113 C3112 1.367 . S
C3113 C3121 1.433 . S
C3114 H3110 0.929 . S
C3114 C3116 1.356 1_565 S
C3114 C3118 1.350 . S
C3115 C3118 1.463 . S
C3115 C3120 1.350 . S
C3115 N3123 1.427 . S
C3116 H3107 0.969 . S
C3116 C3114 1.356 1_545 S
C3116 C3117 1.350 1_545 S
C3117 C3116 1.350 1_565 S
C3117 C3119 1.433 . S
C3118 C3114 1.350 . S
C3118 C3115 1.463 . S
C3118 N3122 1.427 . S
C3119 H3109 0.929 . S
C3119 C3117 1.433 . S
C3119 N3122 1.384 . S
C3120 H3111 0.929 . S
C3120 C3112 1.378 . S
C3120 C3115 1.350 . S
C3121 H3108 0.929 . S
C3121 C3113 1.433 . S
C3121 N3123 1.384 . S
N3122 C3118 1.427 . S
N3122 C3119 1.384 . S
N3123 C3115 1.427 . S
N3123 C3121 1.384 . S
H3124 C3130 0.930 . S
H3125 C3134 0.930 . S
H3126 C3139 0.929 . S
H3127 C3137 0.929 . S
H3128 C3132 0.929 . S
H3129 C3138 0.929 . S
C3130 H3124 0.930 . S
C3130 C3131 1.367 . S
C3130 C3138 1.378 . S
C3131 C3130 1.367 . S
C3131 C3139 1.433 . S
C3132 H3128 0.929 . S
C3132 C3134 1.378 . S
C3132 C3136 1.350 . S
C3133 C3136 1.463 . S
C3133 C3138 1.350 . S
C3133 N3141 1.427 . S
C3134 H3125 0.930 . S
C3134 C3132 1.378 . S
C3134 C3135 1.367 . S
C3135 C3134 1.367 . S
C3135 C3137 1.433 . S
C3136 C3132 1.350 . S
C3136 C3133 1.463 . S
C3136 N3140 1.427 . S
C3137 H3127 0.929 . S
C3137 C3135 1.433 . S
C3137 N3140 1.384 . S
C3138 H3129 0.929 . S
C3138 C3130 1.378 . S
C3138 C3133 1.350 . S
C3139 H3126 0.929 . S
C3139 C3131 1.433 . S
C3139 N3141 1.384 . S
N3140 C3136 1.427 . S
N3140 C3137 1.384 . S
N3141 C3133 1.427 . S
N3141 C3139 1.384 . S
H3142 C3148 0.930 . S
H3143 C3152 0.930 . S
H3144 C3157 0.963 . S
H3145 C3155 0.929 . S
H3146 C3150 0.929 . S
H3147 C3156 0.929 . S
C3148 H3142 0.930 . S
C3148 C3149 1.367 . S
C3148 C3156 1.378 . S
C3149 C3148 1.367 . S
C3149 C3157 1.402 1_554 S
C3150 H3146 0.929 . S
C3150 C3152 1.378 . S
C3150 C3154 1.350 1_556 S
C3151 C3154 1.463 . S
C3151 C3156 1.350 . S
C3151 N3159 1.427 1_554 S
C3152 H3143 0.930 . S
C3152 C3150 1.378 . S
C3152 C3153 1.367 1_556 S
C3153 C3152 1.367 1_554 S
C3153 C3155 1.433 . S
C3154 C3150 1.350 1_554 S
C3154 C3151 1.463 . S
C3154 N3158 1.427 . S
C3155 H3145 0.929 . S
C3155 C3153 1.433 . S
C3155 N3158 1.384 . S
C3156 H3147 0.929 . S
C3156 C3148 1.378 . S
C3156 C3151 1.350 . S
C3157 H3144 0.963 . S
C3157 C3149 1.402 1_556 S
C3157 N3159 1.380 . S
N3158 C3154 1.427 . S
N3158 C3155 1.384 . S
N3159 C3151 1.427 1_556 S
N3159 C3157 1.380 . S
H3160 C3166 0.930 . S
H3161 C3170 0.930 . S
H3162 C3175 0.929 . S
H3163 C3173 0.929 . S
H3164 C3168 0.929 . S
H3165 C3174 0.929 . S
C3166 H3160 0.930 . S
C3166 C3167 1.367 . S
C3166 C3174 1.378 . S
C3167 C3166 1.367 . S
C3167 C3175 1.433 . S
C3168 H3164 0.929 . S
C3168 C3170 1.378 . S
C3168 C3172 1.350 . S
C3169 C3172 1.463 . S
C3169 C3174 1.350 . S
C3169 N3177 1.427 . S
C3170 H3161 0.930 . S
C3170 C3168 1.378 . S
C3170 C3171 1.367 . S
C3171 C3170 1.367 . S
C3171 C3173 1.433 . S
C3172 C3168 1.350 . S
C3172 C3169 1.463 . S
C3172 N3176 1.427 . S
C3173 H3163 0.929 . S
C3173 C3171 1.433 . S
C3173 N3176 1.384 . S
C3174 H3165 0.929 . S
C3174 C3166 1.378 . S
C3174 C3169 1.350 . S
C3175 H3162 0.929 . S
C3175 C3167 1.433 . S
C3175 N3177 1.384 . S
N3176 C3172 1.427 . S
N3176 C3173 1.384 . S
N3177 C3169 1.427 . S
N3177 C3175 1.384 . S
H3178 C3184 0.930 . S
H3179 C3188 0.930 . S
H3180 C3193 0.929 . S
H3181 C3191 0.929 . S
H3182 C3186 0.929 . S
H3183 C3192 0.929 1_556 S
C3184 H3178 0.930 . S
C3184 C3185 1.367 . S
C3184 C3192 1.378 . S
C3185 C3184 1.367 . S
C3185 C3193 1.433 . S
C3186 H3182 0.929 . S
C3186 C3188 1.378 1_554 S
C3186 C3190 1.350 1_554 S
C3187 C3190 1.463 1_554 S
C3187 C3192 1.350 . S
C3187 N3195 1.427 . S
C3188 H3179 0.930 . S
C3188 C3186 1.378 1_556 S
C3188 C3189 1.367 . S
C3189 C3188 1.367 . S
C3189 C3191 1.433 . S
C3190 C3186 1.350 1_556 S
C3190 C3187 1.463 1_556 S
C3190 N3194 1.427 . S
C3191 H3181 0.929 . S
C3191 C3189 1.433 . S
C3191 N3194 1.384 . S
C3192 H3183 0.929 1_554 S
C3192 C3184 1.378 . S
C3192 C3187 1.350 . S
C3193 H3180 0.929 . S
C3193 C3185 1.433 . S
C3193 N3195 1.384 . S
N3194 C3190 1.427 . S
N3194 C3191 1.384 . S
N3195 C3187 1.427 . S
N3195 C3193 1.384 . S
H3196 C3202 0.930 . S
H3197 C3206 0.930 . S
H3198 C3211 0.929 . S
H3199 C3209 0.929 . S
H3200 C3204 0.929 . S
H3201 C3210 0.929 . S
C3202 H3196 0.930 . S
C3202 C3203 1.367 . S
C3202 C3210 1.378 . S
C3203 C3202 1.367 . S
C3203 C3211 1.433 . S
C3204 H3200 0.929 . S
C3204 C3206 1.378 . S
C3204 C3208 1.350 . S
C3205 C3208 1.463 . S
C3205 C3210 1.350 . S
C3205 N3213 1.427 . S
C3206 H3197 0.930 . S
C3206 C3204 1.378 . S
C3206 C3207 1.367 . S
C3207 C3206 1.367 . S
C3207 C3209 1.433 . S
C3208 C3204 1.350 . S
C3208 C3205 1.463 . S
C3208 N3212 1.427 . S
C3209 H3199 0.929 . S
C3209 C3207 1.433 . S
C3209 N3212 1.384 . S
C3210 H3201 0.929 . S
C3210 C3202 1.378 . S
C3210 C3205 1.350 . S
C3211 H3198 0.929 . S
C3211 C3203 1.433 . S
C3211 N3213 1.384 . S
N3212 C3208 1.427 . S
N3212 C3209 1.384 . S
N3213 C3205 1.427 . S
N3213 C3211 1.384 . S
H3214 C3220 0.930 . S
H3215 C3224 0.930 . S
H3216 C3229 0.929 . S
H3217 C3227 0.929 . S
H3218 C3222 0.929 . S
H3219 C3228 0.929 . S
C3220 H3214 0.930 . S
C3220 C3221 1.367 . S
C3220 C3228 1.378 . S
C3221 C3220 1.367 . S
C3221 C3229 1.433 . S
C3222 H3218 0.929 . S
C3222 C3224 1.378 . S
C3222 C3226 1.350 . S
C3223 C3226 1.463 . S
C3223 C3228 1.350 . S
C3223 N3231 1.427 . S
C3224 H3215 0.930 . S
C3224 C3222 1.378 . S
C3224 C3225 1.367 . S
C3225 C3224 1.367 . S
C3225 C3227 1.433 . S
C3226 C3222 1.350 . S
C3226 C3223 1.463 . S
C3226 N3230 1.427 . S
C3227 H3217 0.929 . S
C3227 C3225 1.433 . S
C3227 N3230 1.384 . S
C3228 H3219 0.929 . S
C3228 C3220 1.378 . S
C3228 C3223 1.350 . S
C3229 H3216 0.929 . S
C3229 C3221 1.433 . S
C3229 N3231 1.384 . S
N3230 C3226 1.427 . S
N3230 C3227 1.384 . S
N3231 C3223 1.427 . S
N3231 C3229 1.384 . S
C1511 C255 1.036 . S
C1515 C872 1.054 . S
C1529 C147 1.379 . S
C1533 C906 1.387 . S
C1547 C184 0.603 . S
C1551 C975 0.605 . S
C1569 C1013 0.906 . S
C1565 C220 0.908 . S
C1583 C40 1.374 . S
C1587 C1053 1.358 . S
C1605 C1072 0.400 . S
C1601 C74 0.400 . S
C1623 C1106 1.282 . S
C1619 C110 1.269 . S
C1637 C14 1.614 . S
C1641 C1175 1.610 . S
C1659 C881 2.460 . S
C1655 C579 2.499 . S
C1673 C616 1.048 . S
C1677 C933 1.042 . S
C1695 C946 1.425 . S
C1691 C687 1.432 . S
C1713 C1015 1.449 . S
C1709 C436 1.427 . S
C1727 C580 1.938 . S
C1731 C1055 1.970 . S
C1749 C1081 1.848 . S
C1745 C615 1.879 . S
C1767 C1133 0.378 . S
C1763 C688 0.353 . S
C1785 C1146 2.254 . S
C1781 C435 2.264 . S
C1803 C876 2.485 . S
C1799 C410 2.478 . S
C1817 C722 2.052 . S
C1821 C1186 2.055 . S
C1839 C1236 2.787 . S
C1835 C842 2.732 . S
C1857 C1295 1.630 1_655 S
C1853 C794 1.583 . S
C1871 C302 1.561 . S
C1875 C1173 1.512 . S
C1889 C338 1.439 . S
C1893 C973 1.414 . S
C1907 C830 2.572 . S
C1911 C1306 2.557 . S
C1929 C1375 0.921 . S
C1925 C758 0.929 . S
C1947 C893 1.058 . S
C1943 C158 1.013 . S
C1965 C1361 1.397 . S
C1961 C254 1.402 . S
C1979 C218 0.551 . S
C1983 C956 0.582 . S
C1997 C194 0.862 . S
C2001 C1312 0.860 . S
C2019 C1032 1.380 . S
C2015 C3 1.419 . S
C2033 C111 0.278 . S
C2037 C1253 0.284 . S
C2055 C1121 1.246 1_556 S
C2051 C76 1.218 . S
C2073 C1396 1.702 . S
C2069 C50 1.604 . S
C2091 C866 2.445 . S
C2087 C364 2.473 . S
C2109 C1352 1.106 . S
C2105 C795 1.130 . S
C2123 C292 1.382 . S
C2127 C961 1.369 . S
C2141 C723 1.393 . S
C2145 C1316 1.394 . S
C2159 C363 1.958 . S
C2163 C1036 1.961 . S
C2181 C1226 1.836 . S
C2177 C796 1.871 . S
C2195 C291 0.293 . S
C2199 C1112 0.331 . S
C2213 C724 2.263 . S
C2217 C1401 2.255 . S
C2231 C482 2.385 . S
C2235 C895 2.437 1_655 S
C2249 C434 1.998 . S
C2253 C1201 2.005 . S
C2267 C662 2.695 . S
C2271 C1095 2.747 . S
C2285 C614 1.569 . S
C2289 C1276 1.606 . S
C2307 C1392 1.473 . S
C2303 C698 1.357 . S
C2321 C554 1.339 . S
C2325 C952 1.445 . S
C2343 C1001 2.486 . S
C2339 C650 2.493 . S
C2361 C916 0.891 . S
C2357 C506 0.908 . S
C2375 C183 1.039 . S
C2379 C1432 1.057 . S
C2397 C1346 1.391 . S
C2393 C219 1.382 . S
C2411 C256 0.597 . S
C2415 C1495 0.612 1_556 S
C2429 C148 0.908 . S
C2433 C1333 0.904 . S
C2447 C122 1.470 . S
C2451 C1213 1.426 . S
C2469 C1232 0.348 . S
C2465 C2 0.367 . S
C2487 C1266 1.197 . S
C2483 C39 1.192 . S
C2505 C1415 1.683 . S
C2501 C86 1.686 . S
C2523 C1441 2.474 . S
C2519 C651 2.513 . S
C2537 C472 1.045 . S
C2541 C1373 1.035 . S
C2559 C1466 1.415 . S
C2555 C507 1.421 . S
C2577 C1335 1.453 . S
C2573 C544 1.419 . S
C2595 C1215 1.981 . S
C2591 C652 1.949 . S
C2609 C471 1.858 . S
C2613 C1241 1.832 . S
C2631 C1293 0.372 . S
C2627 C508 0.351 . S
C2645 C543 2.279 . S
C2649 C1386 2.266 . S
C2667 C1436 2.501 . S
C2663 C806 2.506 . S
C2681 C326 2.013 . S
C2685 C1026 2.016 . S
C2703 C1076 2.759 . S
C2699 C374 2.710 . S
C2721 C1135 1.647 . S
C2717 C398 1.604 . S
C2739 C1413 1.475 . S
C2735 C770 1.525 . S
C2753 C734 1.421 . S
C2757 C1493 1.410 . S
C2775 C986 2.542 . S
C2771 C362 2.558 . S
C2793 C935 0.944 . S
C2789 C290 0.944 . S
C2807 C230 0.983 . S
C2811 C1453 1.051 . S
C2829 C921 1.410 . S
C2825 C182 1.413 . S
C2843 C146 0.556 . S
C2847 C1476 0.556 . S
C2861 C266 0.852 . S
C2865 C992 0.868 . S
C2879 C75 1.451 . S
C2883 C1192 1.417 . S
C2901 C1093 0.385 . S
C2897 C38 0.367 . S
C2915 C4 1.127 . S
C2919 C1281 1.156 . S
C2933 C112 1.679 . S
C2937 C1156 1.648 . S
C2955 C1426 2.443 . S
C2951 C832 2.476 . S
C2969 C399 1.158 . S
C2973 C912 1.137 . S
C2991 C1481 1.356 . S
C2987 C760 1.369 . S
C3005 C327 1.381 . S
C3009 C996 1.387 . S
C3023 C831 1.989 . S
C3027 C1196 1.991 . S
C3045 C1066 1.845 . S
C3041 C400 1.877 . S
C3059 C759 0.298 . S
C3063 C1272 0.343 . S
C3081 C1161 2.260 . S
C3077 C328 2.268 . S
C3099 C1455 2.449 . S
C3095 C626 2.396 . S
C3117 C1041 2.009 1_665 S
C3113 C542 2.004 . S
C3131 C590 2.658 . S
C3135 C1255 2.709 . S
C3153 C1116 1.619 . S
C3149 C470 1.575 . S
C3167 C518 1.354 . S
C3171 C1152 1.457 . S
C3185 C446 1.337 . S
C3189 C1472 1.429 . S
C3207 C1321 2.493 . S
C3203 C578 2.502 1_565 S
C3225 C1356 0.864 . S
C3221 C686 0.882 . S
