# Generated by pormake.
# Topology gar, (4,6)-cn, num edge types: 1
# Building blocks:
#     Node 0, Type 0, BuildingBlock: TATPOV_clean_sbu_0, # of connection points: 4
#     Node 1, Type 0, BuildingBlock: TATPOV_clean_sbu_0, # of connection points: 4
#     Node 2, Type 0, BuildingBlock: TATPOV_clean_sbu_0, # of connection points: 4
#     Node 3, Type 0, BuildingBlock: TATPOV_clean_sbu_0, # of connection points: 4
#     Node 4, Type 0, BuildingBlock: TATPOV_clean_sbu_0, # of connection points: 4
#     Node 5, Type 0, BuildingBlock: TATPOV_clean_sbu_0, # of connection points: 4
#     Node 6, Type 0, BuildingBlock: TATPOV_clean_sbu_0, # of connection points: 4
#     Node 7, Type 0, BuildingBlock: TATPOV_clean_sbu_0, # of connection points: 4
#     Node 8, Type 0, BuildingBlock: TATPOV_clean_sbu_0, # of connection points: 4
#     Node 9, Type 0, BuildingBlock: TATPOV_clean_sbu_0, # of connection points: 4
#     Node 10, Type 0, BuildingBlock: TATPOV_clean_sbu_0, # of connection points: 4
#     Node 11, Type 0, BuildingBlock: TATPOV_clean_sbu_0, # of connection points: 4
#     Node 12, Type 0, BuildingBlock: TATPOV_clean_sbu_0, # of connection points: 4
#     Node 13, Type 0, BuildingBlock: TATPOV_clean_sbu_0, # of connection points: 4
#     Node 14, Type 0, BuildingBlock: TATPOV_clean_sbu_0, # of connection points: 4
#     Node 15, Type 0, BuildingBlock: TATPOV_clean_sbu_0, # of connection points: 4
#     Node 16, Type 0, BuildingBlock: TATPOV_clean_sbu_0, # of connection points: 4
#     Node 17, Type 0, BuildingBlock: TATPOV_clean_sbu_0, # of connection points: 4
#     Node 18, Type 0, BuildingBlock: TATPOV_clean_sbu_0, # of connection points: 4
#     Node 19, Type 0, BuildingBlock: TATPOV_clean_sbu_0, # of connection points: 4
#     Node 20, Type 0, BuildingBlock: TATPOV_clean_sbu_0, # of connection points: 4
#     Node 21, Type 0, BuildingBlock: TATPOV_clean_sbu_0, # of connection points: 4
#     Node 22, Type 0, BuildingBlock: TATPOV_clean_sbu_0, # of connection points: 4
#     Node 23, Type 0, BuildingBlock: TATPOV_clean_sbu_0, # of connection points: 4
#     Node 24, Type 1, BuildingBlock: BETDIP_clean_sbu_0, # of connection points: 6
#     Node 25, Type 1, BuildingBlock: BETDIP_clean_sbu_0, # of connection points: 6
#     Node 26, Type 1, BuildingBlock: BETDIP_clean_sbu_0, # of connection points: 6
#     Node 27, Type 1, BuildingBlock: BETDIP_clean_sbu_0, # of connection points: 6
#     Node 28, Type 1, BuildingBlock: BETDIP_clean_sbu_0, # of connection points: 6
#     Node 29, Type 1, BuildingBlock: BETDIP_clean_sbu_0, # of connection points: 6
#     Node 30, Type 1, BuildingBlock: BETDIP_clean_sbu_0, # of connection points: 6
#     Node 31, Type 1, BuildingBlock: BETDIP_clean_sbu_0, # of connection points: 6
#     Node 32, Type 1, BuildingBlock: BETDIP_clean_sbu_0, # of connection points: 6
#     Node 33, Type 1, BuildingBlock: BETDIP_clean_sbu_0, # of connection points: 6
#     Node 34, Type 1, BuildingBlock: BETDIP_clean_sbu_0, # of connection points: 6
#     Node 35, Type 1, BuildingBlock: BETDIP_clean_sbu_0, # of connection points: 6
#     Node 36, Type 1, BuildingBlock: BETDIP_clean_sbu_0, # of connection points: 6
#     Node 37, Type 1, BuildingBlock: BETDIP_clean_sbu_0, # of connection points: 6
#     Node 38, Type 1, BuildingBlock: BETDIP_clean_sbu_0, # of connection points: 6
#     Node 39, Type 1, BuildingBlock: BETDIP_clean_sbu_0, # of connection points: 6
#     Edge 40, Type (0, 1), BuildingBlock: UVAHIK_clean_linker_0, # of connection points: 2
#     Edge 41, Type (0, 1), BuildingBlock: UVAHIK_clean_linker_0, # of connection points: 2
#     Edge 42, Type (0, 1), BuildingBlock: UVAHIK_clean_linker_0, # of connection points: 2
#     Edge 43, Type (0, 1), BuildingBlock: UVAHIK_clean_linker_0, # of connection points: 2
#     Edge 44, Type (0, 1), BuildingBlock: UVAHIK_clean_linker_0, # of connection points: 2
#     Edge 45, Type (0, 1), BuildingBlock: UVAHIK_clean_linker_0, # of connection points: 2
#     Edge 46, Type (0, 1), BuildingBlock: UVAHIK_clean_linker_0, # of connection points: 2
#     Edge 47, Type (0, 1), BuildingBlock: UVAHIK_clean_linker_0, # of connection points: 2
#     Edge 48, Type (0, 1), BuildingBlock: UVAHIK_clean_linker_0, # of connection points: 2
#     Edge 49, Type (0, 1), BuildingBlock: UVAHIK_clean_linker_0, # of connection points: 2
#     Edge 50, Type (0, 1), BuildingBlock: UVAHIK_clean_linker_0, # of connection points: 2
#     Edge 51, Type (0, 1), BuildingBlock: UVAHIK_clean_linker_0, # of connection points: 2
#     Edge 52, Type (0, 1), BuildingBlock: UVAHIK_clean_linker_0, # of connection points: 2
#     Edge 53, Type (0, 1), BuildingBlock: UVAHIK_clean_linker_0, # of connection points: 2
#     Edge 54, Type (0, 1), BuildingBlock: UVAHIK_clean_linker_0, # of connection points: 2
#     Edge 55, Type (0, 1), BuildingBlock: UVAHIK_clean_linker_0, # of connection points: 2
#     Edge 56, Type (0, 1), BuildingBlock: UVAHIK_clean_linker_0, # of connection points: 2
#     Edge 57, Type (0, 1), BuildingBlock: UVAHIK_clean_linker_0, # of connection points: 2
#     Edge 58, Type (0, 1), BuildingBlock: UVAHIK_clean_linker_0, # of connection points: 2
#     Edge 59, Type (0, 1), BuildingBlock: UVAHIK_clean_linker_0, # of connection points: 2
#     Edge 60, Type (0, 1), BuildingBlock: UVAHIK_clean_linker_0, # of connection points: 2
#     Edge 61, Type (0, 1), BuildingBlock: UVAHIK_clean_linker_0, # of connection points: 2
#     Edge 62, Type (0, 1), BuildingBlock: UVAHIK_clean_linker_0, # of connection points: 2
#     Edge 63, Type (0, 1), BuildingBlock: UVAHIK_clean_linker_0, # of connection points: 2
#     Edge 64, Type (0, 1), BuildingBlock: UVAHIK_clean_linker_0, # of connection points: 2
#     Edge 65, Type (0, 1), BuildingBlock: UVAHIK_clean_linker_0, # of connection points: 2
#     Edge 66, Type (0, 1), BuildingBlock: UVAHIK_clean_linker_0, # of connection points: 2
#     Edge 67, Type (0, 1), BuildingBlock: UVAHIK_clean_linker_0, # of connection points: 2
#     Edge 68, Type (0, 1), BuildingBlock: UVAHIK_clean_linker_0, # of connection points: 2
#     Edge 69, Type (0, 1), BuildingBlock: UVAHIK_clean_linker_0, # of connection points: 2
#     Edge 70, Type (0, 1), BuildingBlock: UVAHIK_clean_linker_0, # of connection points: 2
#     Edge 71, Type (0, 1), BuildingBlock: UVAHIK_clean_linker_0, # of connection points: 2
#     Edge 72, Type (0, 1), BuildingBlock: UVAHIK_clean_linker_0, # of connection points: 2
#     Edge 73, Type (0, 1), BuildingBlock: UVAHIK_clean_linker_0, # of connection points: 2
#     Edge 74, Type (0, 1), BuildingBlock: UVAHIK_clean_linker_0, # of connection points: 2
#     Edge 75, Type (0, 1), BuildingBlock: UVAHIK_clean_linker_0, # of connection points: 2
#     Edge 76, Type (0, 1), BuildingBlock: UVAHIK_clean_linker_0, # of connection points: 2
#     Edge 77, Type (0, 1), BuildingBlock: UVAHIK_clean_linker_0, # of connection points: 2
#     Edge 78, Type (0, 1), BuildingBlock: UVAHIK_clean_linker_0, # of connection points: 2
#     Edge 79, Type (0, 1), BuildingBlock: UVAHIK_clean_linker_0, # of connection points: 2
#     Edge 80, Type (0, 1), BuildingBlock: UVAHIK_clean_linker_0, # of connection points: 2
#     Edge 81, Type (0, 1), BuildingBlock: UVAHIK_clean_linker_0, # of connection points: 2
#     Edge 82, Type (0, 1), BuildingBlock: UVAHIK_clean_linker_0, # of connection points: 2
#     Edge 83, Type (0, 1), BuildingBlock: UVAHIK_clean_linker_0, # of connection points: 2
#     Edge 84, Type (0, 1), BuildingBlock: UVAHIK_clean_linker_0, # of connection points: 2
#     Edge 85, Type (0, 1), BuildingBlock: UVAHIK_clean_linker_0, # of connection points: 2
#     Edge 86, Type (0, 1), BuildingBlock: UVAHIK_clean_linker_0, # of connection points: 2
#     Edge 87, Type (0, 1), BuildingBlock: UVAHIK_clean_linker_0, # of connection points: 2
#     Edge 88, Type (0, 1), BuildingBlock: UVAHIK_clean_linker_0, # of connection points: 2
#     Edge 89, Type (0, 1), BuildingBlock: UVAHIK_clean_linker_0, # of connection points: 2
#     Edge 90, Type (0, 1), BuildingBlock: UVAHIK_clean_linker_0, # of connection points: 2
#     Edge 91, Type (0, 1), BuildingBlock: UVAHIK_clean_linker_0, # of connection points: 2
#     Edge 92, Type (0, 1), BuildingBlock: UVAHIK_clean_linker_0, # of connection points: 2
#     Edge 93, Type (0, 1), BuildingBlock: UVAHIK_clean_linker_0, # of connection points: 2
#     Edge 94, Type (0, 1), BuildingBlock: UVAHIK_clean_linker_0, # of connection points: 2
#     Edge 95, Type (0, 1), BuildingBlock: UVAHIK_clean_linker_0, # of connection points: 2
#     Edge 96, Type (0, 1), BuildingBlock: UVAHIK_clean_linker_0, # of connection points: 2
#     Edge 97, Type (0, 1), BuildingBlock: UVAHIK_clean_linker_0, # of connection points: 2
#     Edge 98, Type (0, 1), BuildingBlock: UVAHIK_clean_linker_0, # of connection points: 2
#     Edge 99, Type (0, 1), BuildingBlock: UVAHIK_clean_linker_0, # of connection points: 2
#     Edge 100, Type (0, 1), BuildingBlock: UVAHIK_clean_linker_0, # of connection points: 2
#     Edge 101, Type (0, 1), BuildingBlock: UVAHIK_clean_linker_0, # of connection points: 2
#     Edge 102, Type (0, 1), BuildingBlock: UVAHIK_clean_linker_0, # of connection points: 2
#     Edge 103, Type (0, 1), BuildingBlock: UVAHIK_clean_linker_0, # of connection points: 2
#     Edge 104, Type (0, 1), BuildingBlock: UVAHIK_clean_linker_0, # of connection points: 2
#     Edge 105, Type (0, 1), BuildingBlock: UVAHIK_clean_linker_0, # of connection points: 2
#     Edge 106, Type (0, 1), BuildingBlock: UVAHIK_clean_linker_0, # of connection points: 2
#     Edge 107, Type (0, 1), BuildingBlock: UVAHIK_clean_linker_0, # of connection points: 2
#     Edge 108, Type (0, 1), BuildingBlock: UVAHIK_clean_linker_0, # of connection points: 2
#     Edge 109, Type (0, 1), BuildingBlock: UVAHIK_clean_linker_0, # of connection points: 2
#     Edge 110, Type (0, 1), BuildingBlock: UVAHIK_clean_linker_0, # of connection points: 2
#     Edge 111, Type (0, 1), BuildingBlock: UVAHIK_clean_linker_0, # of connection points: 2
#     Edge 112, Type (0, 1), BuildingBlock: UVAHIK_clean_linker_0, # of connection points: 2
#     Edge 113, Type (0, 1), BuildingBlock: UVAHIK_clean_linker_0, # of connection points: 2
#     Edge 114, Type (0, 1), BuildingBlock: UVAHIK_clean_linker_0, # of connection points: 2
#     Edge 115, Type (0, 1), BuildingBlock: UVAHIK_clean_linker_0, # of connection points: 2
#     Edge 116, Type (0, 1), BuildingBlock: UVAHIK_clean_linker_0, # of connection points: 2
#     Edge 117, Type (0, 1), BuildingBlock: UVAHIK_clean_linker_0, # of connection points: 2
#     Edge 118, Type (0, 1), BuildingBlock: UVAHIK_clean_linker_0, # of connection points: 2
#     Edge 119, Type (0, 1), BuildingBlock: UVAHIK_clean_linker_0, # of connection points: 2
#     Edge 120, Type (0, 1), BuildingBlock: UVAHIK_clean_linker_0, # of connection points: 2
#     Edge 121, Type (0, 1), BuildingBlock: UVAHIK_clean_linker_0, # of connection points: 2
#     Edge 122, Type (0, 1), BuildingBlock: UVAHIK_clean_linker_0, # of connection points: 2
#     Edge 123, Type (0, 1), BuildingBlock: UVAHIK_clean_linker_0, # of connection points: 2
#     Edge 124, Type (0, 1), BuildingBlock: UVAHIK_clean_linker_0, # of connection points: 2
#     Edge 125, Type (0, 1), BuildingBlock: UVAHIK_clean_linker_0, # of connection points: 2
#     Edge 126, Type (0, 1), BuildingBlock: UVAHIK_clean_linker_0, # of connection points: 2
#     Edge 127, Type (0, 1), BuildingBlock: UVAHIK_clean_linker_0, # of connection points: 2
#     Edge 128, Type (0, 1), BuildingBlock: UVAHIK_clean_linker_0, # of connection points: 2
#     Edge 129, Type (0, 1), BuildingBlock: UVAHIK_clean_linker_0, # of connection points: 2
#     Edge 130, Type (0, 1), BuildingBlock: UVAHIK_clean_linker_0, # of connection points: 2
#     Edge 131, Type (0, 1), BuildingBlock: UVAHIK_clean_linker_0, # of connection points: 2
#     Edge 132, Type (0, 1), BuildingBlock: UVAHIK_clean_linker_0, # of connection points: 2
#     Edge 133, Type (0, 1), BuildingBlock: UVAHIK_clean_linker_0, # of connection points: 2
#     Edge 134, Type (0, 1), BuildingBlock: UVAHIK_clean_linker_0, # of connection points: 2
#     Edge 135, Type (0, 1), BuildingBlock: UVAHIK_clean_linker_0, # of connection points: 2
# Relax obj value: 0.164
# Max RMSD: 0.275
# Mean RMSD: 0.158
data_MOF--net-gar--node1-TATPOV_clean_sbu_0--node2-BETDIP_clean_sbu_0--edge1-UVAHIK_clean_linker_0
_symmetry_space_group_name_H-M    P1
_symmetry_Int_Tables_number       1
_symmetry_cell_setting            triclinic
loop_
_symmetry_equiv_pos_as_xyz
'x, y, z'
_cell_length_a     79.11476
_cell_length_b     73.123986
_cell_length_c     70.846579
_cell_angle_alpha  97.440368
_cell_angle_beta   98.691176
_cell_angle_gamma 102.29557
loop_
_atom_site_label
_atom_site_type_symbol
_atom_site_fract_x
_atom_site_fract_y
_atom_site_fract_z
_atom_type_partial_charge
Zn0 Zn 0.00634 0.26503 0.43454 0.0
Zn1 Zn 0.02675 0.27839 0.41002 0.0
O2 O 0.02826 0.30333 0.4282 0.0
O3 O 0.01015 0.29226 0.44711 0.0
O4 O 0.04167 0.28407 0.38987 0.0
O5 O 0.02305 0.24962 0.44388 0.0
O6 O 0.03904 0.25986 0.42285 0.0
C7 C 0.02019 0.30609 0.44222 0.0
C8 C 0.98749 0.25791 0.39601 0.0
O9 O 1.00216 0.26739 0.39331 0.0
O10 O 0.98589 0.25393 0.41261 0.0
C11 C 0.0526 0.29914 0.38859 0.0
O12 O 0.05488 0.31448 0.40151 0.0
C13 C 0.03642 0.24987 0.43604 0.0
Zn14 Zn 0.03919 0.70565 0.70756 0.0
Zn15 Zn 0.043 0.73892 0.69213 0.0
O16 O 0.02385 0.73968 0.70803 0.0
O17 O 0.01955 0.71309 0.72007 0.0
O18 O 0.04397 0.7619 0.6792 0.0
O19 O 0.06498 0.71641 0.72092 0.0
O20 O 0.06709 0.7426 0.70819 0.0
C21 C 0.01583 0.72885 0.71819 0.0
C22 C 0.03454 0.69984 0.66596 0.0
O23 O 0.03809 0.71786 0.66903 0.0
O24 O 0.03366 0.69077 0.68001 0.0
C25 C 0.03136 0.76065 0.6653 0.0
O26 O 0.01854 0.7452 0.66104 0.0
C27 C 0.07396 0.73237 0.71883 0.0
Zn28 Zn 0.47596 0.77069 0.88873 0.0
Zn29 Zn 0.50931 0.78323 0.88283 0.0
O30 O 0.50828 0.80436 0.90413 0.0
O31 O 0.48098 0.79485 0.90856 0.0
O32 O 0.53377 0.78847 0.87712 0.0
O33 O 0.48128 0.74687 0.89685 0.0
O34 O 0.50792 0.75729 0.89119 0.0
C35 C 0.4957 0.80688 0.91271 0.0
C36 C 0.47804 0.77793 0.85002 0.0
O37 O 0.49439 0.78386 0.85689 0.0
O38 O 0.46747 0.77093 0.86039 0.0
C39 C 0.53981 0.80026 0.8667 0.0
O40 O 0.5303 0.81169 0.8604 0.0
C41 C 0.49664 0.74463 0.89634 0.0
Zn42 Zn 0.55249 0.21478 0.21768 0.0
Zn43 Zn 0.54904 0.24217 0.19524 0.0
O44 O 0.52984 0.24165 0.21127 0.0
O45 O 0.53092 0.21902 0.22878 0.0
O46 O 0.54586 0.26232 0.17938 0.0
O47 O 0.57734 0.23087 0.22928 0.0
O48 O 0.57405 0.25159 0.2099 0.0
C49 C 0.52389 0.23204 0.22357 0.0
C50 C 0.54752 0.20205 0.176 0.0
O51 O 0.54647 0.21902 0.17502 0.0
O52 O 0.54982 0.19666 0.19232 0.0
C53 C 0.55746 0.26871 0.16977 0.0
O54 O 0.57161 0.26196 0.17037 0.0
C55 C 0.58359 0.24578 0.22281 0.0
Zn56 Zn 0.07778 0.79381 0.11566 0.0
Zn57 Zn 0.05592 0.79186 0.13962 0.0
O58 O 0.05425 0.8162 0.12734 0.0
O59 O 0.0747 0.81879 0.10933 0.0
O60 O 0.03711 0.79048 0.15658 0.0
O61 O 0.06444 0.76951 0.09875 0.0
O62 O 0.04807 0.76566 0.12106 0.0
C63 C 0.06288 0.82523 0.11618 0.0
C64 C 0.09468 0.79309 0.15423 0.0
O65 O 0.07967 0.79395 0.15839 0.0
O66 O 0.09698 0.79247 0.13689 0.0
C67 C 0.02101 0.78662 0.14829 0.0
O68 O 0.01727 0.78353 0.12927 0.0
C69 C 0.05252 0.75921 0.10538 0.0
Zn70 Zn 0.48517 0.75216 0.43364 0.0
Zn71 Zn 0.5092 0.75341 0.41123 0.0
O72 O 0.51626 0.78034 0.42795 0.0
O73 O 0.49617 0.779 0.44647 0.0
O74 O 0.52877 0.75307 0.39537 0.0
O75 O 0.49168 0.73118 0.44588 0.0
O76 O 0.51071 0.73062 0.42627 0.0
C77 C 0.50962 0.7882 0.44123 0.0
C78 C 0.47003 0.74721 0.39341 0.0
O79 O 0.48608 0.75023 0.39126 0.0
O80 O 0.46614 0.74651 0.41002 0.0
C81 C 0.53779 0.76784 0.39066 0.0
O82 O 0.53401 0.78428 0.39543 0.0
C83 C 0.50331 0.72394 0.43959 0.0
Zn84 Zn 0.58195 0.29518 0.6208 0.0
Zn85 Zn 0.55893 0.29257 0.64341 0.0
O86 O 0.55664 0.31602 0.62968 0.0
O87 O 0.57482 0.31609 0.60904 0.0
O88 O 0.53972 0.29123 0.65983 0.0
O89 O 0.57223 0.26848 0.60751 0.0
O90 O 0.55202 0.26593 0.6258 0.0
C91 C 0.56346 0.32311 0.61621 0.0
C92 C 0.59838 0.29931 0.66028 0.0
O93 O 0.58245 0.29583 0.66292 0.0
O94 O 0.60163 0.30071 0.64351 0.0
C95 C 0.5237 0.28671 0.6512 0.0
O96 O 0.52029 0.28297 0.63217 0.0
C97 C 0.55896 0.25863 0.61246 0.0
Zn98 Zn 0.98375 0.25446 0.9315 0.0
Zn99 Zn 0.00739 0.2544 0.90927 0.0
O100 O 0.01496 0.28109 0.92669 0.0
O101 O 0.99755 0.27888 0.94817 0.0
O102 O 0.02731 0.25388 0.89405 0.0
O103 O 0.98556 0.22955 0.93921 0.0
O104 O 0.00756 0.23098 0.9234 0.0
C105 C 0.01014 0.28834 0.94177 0.0
C106 C 0.96962 0.25393 0.89143 0.0
O107 O 0.98483 0.25211 0.88874 0.0
O108 O 0.96622 0.25573 0.90838 0.0
C109 C 0.03651 0.26866 0.88956 0.0
O110 O 0.03267 0.28509 0.89414 0.0
C111 C 0.99786 0.22267 0.93412 0.0
Zn112 Zn 0.42392 0.02309 0.26547 0.0
Zn113 Zn 0.40709 0.04967 0.26712 0.0
O114 O 0.42409 0.05283 0.29606 0.0
O115 O 0.43978 0.03169 0.29143 0.0
O116 O 0.39496 0.07476 0.26826 0.0
O117 O 0.43324 0.02583 0.24114 0.0
O118 O 0.42017 0.04953 0.24057 0.0
C119 C 0.43609 0.04453 0.30272 0.0
C120 C 0.38763 0.0062 0.26397 0.0
O121 O 0.38649 0.02366 0.26491 0.0
O122 O 0.40241 1.00227 0.26379 0.0
C123 C 0.37853 0.07525 0.26668 0.0
O124 O 0.36695 0.05891 0.26403 0.0
C125 C 0.42944 0.03901 0.23271 0.0
Zn126 Zn 0.23881 0.16562 0.50425 0.0
Zn127 Zn 0.26185 0.14508 0.50473 0.0
O128 O 0.26556 0.16068 0.48198 0.0
O129 O 0.24774 0.17991 0.48438 0.0
O130 O 0.28117 0.13024 0.50592 0.0
O131 O 0.24698 0.17671 0.53216 0.0
O132 O 0.26794 0.16118 0.53252 0.0
C133 C 0.2594 0.1743 0.47641 0.0
C134 C 0.22201 0.12625 0.49761 0.0
O135 O 0.23793 0.12459 0.50076 0.0
O136 O 0.21895 0.14249 0.49706 0.0
C137 C 0.28956 0.12707 0.49232 0.0
O138 O 0.28527 0.1328 0.47582 0.0
C139 C 0.26034 0.17261 0.54121 0.0
Zn140 Zn 0.1189 0.05609 0.80504 0.0
Zn141 Zn 0.13992 0.03236 0.80659 0.0
O142 O 0.12815 0.02944 0.83058 0.0
O143 O 0.11343 0.05183 0.83114 0.0
O144 O 0.15564 0.01397 0.80799 0.0
O145 O 0.10384 0.03983 0.78066 0.0
O146 O 0.12353 0.02268 0.7799 0.0
C147 C 0.11854 0.03874 0.83875 0.0
C148 C 0.15475 0.0744 0.80514 0.0
O149 O 0.1573 0.05819 0.80774 0.0
O150 O 0.13931 0.07702 0.80282 0.0
C151 C 0.14917 0.99617 0.80355 0.0
O152 O 0.13206 0.98985 0.79799 0.0
C153 C 0.10947 0.02669 0.77208 0.0
Zn154 Zn 0.24143 0.8233 0.95418 0.0
Zn155 Zn 0.22874 0.85375 0.96463 0.0
O156 O 0.22125 0.84883 0.93508 0.0
O157 O 0.22935 0.82234 0.92677 0.0
O158 O 0.21769 0.8746 0.97396 0.0
O159 O 0.22914 0.80809 0.97196 0.0
O160 O 0.2199 0.83361 0.98078 0.0
C161 C 0.22221 0.83547 0.92215 0.0
C162 C 0.26811 0.85821 0.97151 0.0
O163 O 0.25487 0.86529 0.97265 0.0
O164 O 0.26592 0.84086 0.96432 0.0
C165 C 0.20177 0.87005 0.97609 0.0
O166 O 0.19295 0.85225 0.97087 0.0
C167 C 0.22074 0.8167 0.98248 0.0
Zn168 Zn 0.31713 0.36554 0.04722 0.0
Zn169 Zn 0.29727 0.38945 0.04968 0.0
O170 O 0.28811 0.37275 0.02212 0.0
O171 O 0.30312 0.35064 0.02232 0.0
O172 O 0.27949 0.40611 0.05089 0.0
O173 O 0.31272 0.35606 0.07137 0.0
O174 O 0.2948 0.37521 0.07366 0.0
C175 C 0.29143 0.35766 0.01383 0.0
C176 C 0.33649 0.40389 0.04891 0.0
O177 O 0.32188 0.40789 0.0512 0.0
O178 O 0.33767 0.38678 0.0467 0.0
C179 C 0.27485 0.41416 0.0367 0.0
O180 O 0.2824 0.41248 0.02148 0.0
C181 C 0.30183 0.36245 0.08006 0.0
Zn182 Zn 0.82111 0.21142 0.09867 0.0
Zn183 Zn 0.8333 0.18725 0.07539 0.0
O184 O 0.82596 0.20617 0.05875 0.0
O185 O 0.81513 0.22563 0.07723 0.0
O186 O 0.84262 0.17044 0.05698 0.0
O187 O 0.84518 0.21925 0.11523 0.0
O188 O 0.85396 0.19669 0.09843 0.0
C189 C 0.81876 0.22012 0.06098 0.0
C190 C 0.80149 0.17224 0.09306 0.0
O191 O 0.81215 0.16962 0.08179 0.0
O192 O 0.80292 0.18861 0.10254 0.0
C193 C 0.83255 0.15732 0.0441 0.0
O194 O 0.81541 0.15448 0.04268 0.0
C195 C 0.85683 0.21018 0.11265 0.0
Zn196 Zn 0.14097 0.52658 0.29012 0.0
Zn197 Zn 0.15877 0.50134 0.29038 0.0
O198 O 0.14487 0.50071 0.31612 0.0
O199 O 0.1279 0.52048 0.31123 0.0
O200 O 0.17317 0.4782 0.28953 0.0
O201 O 0.12894 0.52017 0.26237 0.0
O202 O 0.14263 0.49691 0.26087 0.0
C203 C 0.13305 0.50911 0.32149 0.0
C204 C 0.17679 0.54567 0.29585 0.0
O205 O 0.1784 0.52834 0.29317 0.0
O206 O 0.16176 0.54877 0.29653 0.0
C207 C 0.1712 0.46364 0.29831 0.0
O208 O 0.15941 0.46203 0.3096 0.0
C209 C 0.13222 0.50613 0.25249 0.0
Zn210 Zn 0.81613 0.86422 0.54542 0.0
Zn211 Zn 0.7967 0.88857 0.54857 0.0
O212 O 0.78698 0.87205 0.52101 0.0
O213 O 0.80156 0.84955 0.52068 0.0
O214 O 0.77912 0.90535 0.55022 0.0
O215 O 0.81195 0.85483 0.5697 0.0
O216 O 0.79447 0.87438 0.57253 0.0
C217 C 0.78989 0.85682 0.51253 0.0
C218 C 0.83583 0.90255 0.54739 0.0
O219 O 0.82138 0.90676 0.55 0.0
O220 O 0.83674 0.88536 0.54478 0.0
C221 C 0.77552 0.9149 0.53697 0.0
O222 O 0.7841 0.91478 0.52248 0.0
C223 C 0.8014 0.86148 0.57872 0.0
Zn224 Zn 0.95305 0.98218 0.25688 0.0
Zn225 Zn 0.93161 0.00607 0.25908 0.0
O226 O 0.94712 0.01235 0.28637 0.0
O227 O 0.96528 0.99346 0.28429 0.0
O228 O 0.91755 0.02607 0.25896 0.0
O229 O 0.96239 0.99263 0.23461 0.0
O230 O 0.94408 0.01133 0.23611 0.0
C231 C 0.95996 0.00615 0.29405 0.0
C232 C 0.91583 0.96343 0.25206 0.0
O233 O 0.91364 0.9803 0.25468 0.0
O234 O 0.93113 0.9607 0.25204 0.0
C235 C 0.90539 0.02782 0.2684 0.0
O236 O 0.90072 0.01548 0.27971 0.0
C237 C 0.95577 0.0054 0.22819 0.0
Zn238 Zn 0.31787 0.71572 0.50705 0.0
Zn239 Zn 0.32504 0.68568 0.52935 0.0
O240 O 0.31864 0.67032 0.50248 0.0
O241 O 0.322 0.6948 0.48669 0.0
O242 O 0.33654 0.67048 0.54642 0.0
O243 O 0.33813 0.7364 0.52519 0.0
O244 O 0.34249 0.70901 0.5278 0.0
C245 C 0.32001 0.67706 0.48695 0.0
C246 C 0.29182 0.69886 0.53117 0.0
O247 O 0.30299 0.69009 0.53807 0.0
O248 O 0.29479 0.7088 0.51799 0.0
C249 C 0.32871 0.6536 0.54719 0.0
O250 O 0.31245 0.64686 0.53779 0.0
C251 C 0.34225 0.72523 0.53629 0.0
Zn252 Zn 0.45376 0.48372 0.75708 0.0
Zn253 Zn 0.4319 0.50721 0.75797 0.0
O254 O 0.44693 0.51408 0.78555 0.0
O255 O 0.46536 0.4954 0.78459 0.0
O256 O 0.41717 0.5266 0.75719 0.0
O257 O 0.46351 0.49405 0.735 0.0
O258 O 0.44486 0.51246 0.73526 0.0
C259 C 0.45971 0.50815 0.79382 0.0
C260 C 0.41671 0.46441 0.7514 0.0
O261 O 0.41431 0.4812 0.75359 0.0
O262 O 0.43213 0.46187 0.75194 0.0
C263 C 0.40896 0.53165 0.77029 0.0
O264 O 0.40925 0.52344 0.78574 0.0
C265 C 0.45691 0.50657 0.72799 0.0
Zn266 Zn 0.64314 0.02982 0.79262 0.0
Zn267 Zn 0.65901 1.00332 0.79071 0.0
O268 O 0.64564 1.00247 0.81715 0.0
O269 O 0.63174 0.02531 0.81514 0.0
O270 O 0.67294 0.97973 0.78905 0.0
O271 O 0.62865 0.0228 0.76599 0.0
O272 O 0.64172 0.99933 0.76174 0.0
C273 C 0.63543 0.01238 0.82406 0.0
C274 C 0.67847 0.04764 0.79495 0.0
O275 O 0.67922 0.03 0.79252 0.0
O276 O 0.66398 0.0517 0.79659 0.0
C277 C 0.67153 0.96553 0.79837 0.0
O278 O 0.66063 0.96455 0.81068 0.0
C279 C 0.63092 0.00892 0.75486 0.0
Zn280 Zn 0.74213 0.67129 0.01025 0.0
Zn281 Zn 0.76345 0.64847 0.0061 0.0
O282 O 0.76496 0.66359 0.98285 0.0
O283 O 0.74629 0.6817 0.9863 0.0
O284 O 0.78165 0.63258 0.0039 0.0
O285 O 0.75652 0.68541 0.03548 0.0
O286 O 0.77287 0.66459 0.03374 0.0
C287 C 0.75735 0.67621 0.97716 0.0
C288 C 0.72458 0.63194 0.00736 0.0
O289 O 0.73948 0.62906 0.00468 0.0
O290 O 0.7225 0.64871 0.01018 0.0
C291 C 0.79784 0.64127 0.0069 0.0
O292 O 0.80193 0.65992 0.01069 0.0
C293 C 0.76906 0.67891 0.04295 0.0
Zn294 Zn 0.92592 0.52579 0.76588 0.0
Zn295 Zn 0.90898 0.55205 0.76691 0.0
O296 O 0.92554 0.55509 0.79617 0.0
O297 O 0.94144 0.5341 0.79193 0.0
O298 O 0.89675 0.57717 0.76804 0.0
O299 O 0.93583 0.52868 0.74202 0.0
O300 O 0.92264 0.55223 0.74075 0.0
C301 C 0.93751 0.54685 0.80308 0.0
C302 C 0.88967 0.50838 0.76312 0.0
O303 O 0.88838 0.52579 0.76389 0.0
O304 O 0.9046 0.50466 0.76365 0.0
C305 C 0.88033 0.57772 0.76644 0.0
O306 O 0.86871 0.5614 0.76369 0.0
C307 C 0.93216 0.54175 0.73331 0.0
Zn308 Zn 0.74073 0.32301 0.48356 0.0
Zn309 Zn 0.72956 0.35563 0.48273 0.0
O310 O 0.72221 0.34331 0.45431 0.0
O311 O 0.73006 0.31619 0.45491 0.0
O312 O 0.72062 0.37921 0.48489 0.0
O313 O 0.72577 0.31585 0.50351 0.0
O314 O 0.71707 0.34232 0.5021 0.0
C315 C 0.72321 0.32732 0.44561 0.0
C316 C 0.76874 0.35735 0.49461 0.0
O317 O 0.75602 0.36532 0.49145 0.0
O318 O 0.76583 0.33939 0.4923 0.0
C319 C 0.72889 0.39579 0.48366 0.0
O320 O 0.74454 0.39837 0.47891 0.0
C321 C 0.71667 0.3271 0.50907 0.0
Zn322 Zn 0.6204 0.5513 0.30235 0.0
Zn323 Zn 0.64188 0.52832 0.30348 0.0
O324 O 0.63098 0.52556 0.32815 0.0
O325 O 0.61633 0.54802 0.32909 0.0
O326 O 0.65779 0.51 0.3042 0.0
O327 O 0.60441 0.53456 0.27886 0.0
O328 O 0.62481 0.51845 0.27716 0.0
C329 C 0.62178 0.53513 0.33671 0.0
C330 C 0.65572 0.57026 0.30106 0.0
O331 O 0.65887 0.55439 0.30417 0.0
O332 O 0.64008 0.57228 0.29873 0.0
C333 C 0.65159 0.49234 0.29804 0.0
O334 O 0.63464 0.48608 0.29119 0.0
C335 C 0.61023 0.52179 0.26993 0.0
Tb336 Tb 0.01167 0.01648 0.02146 0.0
Tb337 Tb 0.04855 0.03708 0.04111 0.0
C338 C 0.97902 0.00683 0.00931 0.0
C339 C 0.96549 0.01745 0.00517 0.0
C340 C 0.96723 0.03557 0.0157 0.0
C341 C 0.95447 0.04571 0.01152 0.0
C342 C 0.93975 0.03799 0.99664 0.0
C343 C 0.93814 0.01986 0.98602 0.0
C344 C 0.95094 0.00968 0.99026 0.0
C345 C 0.03674 0.01159 1.00199 0.0
C346 C 0.02624 0.06051 0.01948 0.0
C347 C 0.08135 0.04533 0.05158 0.0
C348 C 0.09361 0.03288 0.051 0.0
C349 C 0.0885 0.0155 0.03825 0.0
C350 C 0.09938 1.00289 0.0383 0.0
C351 C 0.11569 0.00746 0.05095 0.0
C352 C 0.12106 0.02506 0.06342 0.0
C353 C 0.10996 0.03766 0.06356 0.0
C354 C 0.02391 0.04247 0.06087 0.0
C355 C 0.0336 0.99309 0.04316 0.0
O356 O 0.9863 0.00874 0.02755 0.0
O357 O 0.99059 0.00787 0.99789 0.0
O358 O 0.03572 0.02657 0.01212 0.0
O359 O 0.02261 0.99858 1.00145 0.0
O360 O 0.01243 0.04638 0.019 0.0
O361 O 0.04246 0.05937 0.02601 0.0
O362 O 0.07342 0.04727 0.03461 0.0
O363 O 0.07043 0.04217 0.0636 0.0
O364 O 0.02448 0.02727 0.05065 0.0
O365 O 0.03837 0.05507 0.0615 0.0
O366 O 0.04744 0.00692 0.04294 0.0
O367 O 0.0174 0.99456 0.03724 0.0
H368 H 0.97841 0.04187 0.02725 0.0
H369 H 0.95598 0.05947 0.02023 0.0
H370 H 0.92707 0.0136 0.97435 0.0
H371 H 0.94949 0.99577 0.98188 0.0
H372 H 0.07603 0.01161 0.02827 0.0
H373 H 0.09511 0.98959 0.02826 0.0
H374 H 0.13364 0.02889 0.07321 0.0
H375 H 0.11406 0.05102 0.07352 0.0
Tb376 Tb 0.28227 0.76951 0.25849 0.0
Tb377 Tb 0.28245 0.78215 0.29989 0.0
C378 C 0.27806 0.76361 0.2222 0.0
C379 C 0.2726 0.77164 0.20504 0.0
C380 C 0.25883 0.78106 0.20394 0.0
C381 C 0.25141 0.78493 0.18612 0.0
C382 C 0.25769 0.77938 0.16927 0.0
C383 C 0.2723 0.77123 0.17078 0.0
C384 C 0.27966 0.76736 0.18852 0.0
C385 C 0.30878 0.76379 0.28242 0.0
C386 C 0.29614 0.81415 0.27713 0.0
C387 C 0.28651 0.78197 0.33539 0.0
C388 C 0.28483 0.76467 0.34439 0.0
C389 C 0.2966 0.7529 0.34222 0.0
C390 C 0.29288 0.7346 0.34663 0.0
C391 C 0.27732 0.72759 0.35333 0.0
C392 C 0.26596 0.73964 0.3564 0.0
C393 C 0.2697 0.75801 0.352 0.0
C394 C 0.25565 0.78758 0.27638 0.0
C395 C 0.26764 0.73754 0.28119 0.0
O396 O 0.26577 0.75783 0.23198 0.0
O397 O 0.29321 0.77205 0.23335 0.0
O398 O 0.30236 0.77812 0.28385 0.0
O399 O 0.30116 0.75262 0.26636 0.0
O400 O 0.28896 0.80112 0.26134 0.0
O401 O 0.29673 0.80948 0.29465 0.0
O402 O 0.29979 0.78581 0.32633 0.0
O403 O 0.27186 0.78385 0.32531 0.0
O404 O 0.26236 0.77341 0.27457 0.0
O405 O 0.26318 0.79871 0.29263 0.0
O406 O 0.27361 0.75076 0.29688 0.0
O407 O 0.26837 0.74198 0.26379 0.0
H408 H 0.25323 0.78453 0.21659 0.0
H409 H 0.24019 0.79126 0.18535 0.0
H410 H 0.27763 0.76719 0.15808 0.0
H411 H 0.2903 0.76012 0.18913 0.0
H412 H 0.30837 0.75746 0.33633 0.0
H413 H 0.30217 0.72589 0.34464 0.0
H414 H 0.25388 0.73467 0.36157 0.0
H415 H 0.26032 0.76668 0.35364 0.0
Tb416 Tb 0.55312 0.02851 0.52609 0.0
Tb417 Tb 0.51408 0.01752 0.53088 0.0
C418 C 0.58594 0.03212 0.53434 0.0
C419 C 0.59948 0.02169 0.53026 0.0
C420 C 0.59671 1.00206 0.5304 0.0
C421 C 0.6105 0.99293 0.52936 0.0
C422 C 0.62738 1.00319 0.52806 0.0
C423 C 0.62991 0.02268 0.52712 0.0
C424 C 0.61613 0.03182 0.52829 0.0
C425 C 0.53154 0.02965 0.49294 0.0
C426 C 0.53062 0.98606 0.51202 0.0
C427 C 0.48169 0.01422 0.53077 0.0
C428 C 0.46793 0.02499 0.52824 0.0
C429 C 0.46973 0.04074 0.51862 0.0
C430 C 0.45608 0.05022 0.51604 0.0
C431 C 0.44045 0.0442 0.52315 0.0
C432 C 0.43888 0.02849 0.5329 0.0
C433 C 0.45246 0.01903 0.53539 0.0
C434 C 0.5379 0.01202 0.55947 0.0
C435 C 0.53519 0.06105 0.5392 0.0
O436 O 0.57469 0.02439 0.54449 0.0
O437 O 0.57846 0.0395 0.52036 0.0
O438 O 0.52776 0.02542 0.50882 0.0
O439 O 0.54862 0.03315 0.4955 0.0
O440 O 0.54637 0.99772 0.51789 0.0
O441 O 0.51585 0.9914 0.51367 0.0
O442 O 0.48814 0.00923 0.51543 0.0
O443 O 0.49383 0.02 0.54641 0.0
O444 O 0.53938 0.0257 0.55001 0.0
O445 O 0.52223 1.0012 0.55325 0.0
O446 O 0.51977 0.04852 0.53518 0.0
O447 O 0.55028 0.05623 0.53821 0.0
H448 H 0.58401 0.99384 0.53192 0.0
H449 H 0.60801 0.97786 0.52982 0.0
H450 H 0.64275 0.03106 0.52628 0.0
H451 H 0.61865 0.04698 0.52832 0.0
H452 H 0.48162 0.04563 0.51306 0.0
H453 H 0.45781 0.06236 0.50864 0.0
H454 H 0.42698 0.02324 0.5383 0.0
H455 H 0.45079 0.00687 0.54279 0.0
Tb456 Tb 0.26384 0.26962 0.77138 0.0
Tb457 Tb 0.30305 0.27185 0.78356 0.0
C458 C 0.23081 0.26292 0.76791 0.0
C459 C 0.21692 0.26267 0.77976 0.0
C460 C 0.20146 0.2482 0.77434 0.0
C461 C 0.18748 0.24816 0.78428 0.0
C462 C 0.18858 0.26266 0.79988 0.0
C463 C 0.20434 0.27689 0.80566 0.0
C464 C 0.21838 0.2769 0.79568 0.0
C465 C 0.28552 0.29998 0.76538 0.0
C466 C 0.28298 0.28459 0.81555 0.0
C467 C 0.33608 0.2792 0.78673 0.0
C468 C 0.34976 0.27833 0.77475 0.0
C469 C 0.34816 0.28323 0.75613 0.0
C470 C 0.36196 0.28348 0.74575 0.0
C471 C 0.37761 0.27882 0.75376 0.0
C472 C 0.37888 0.27348 0.77222 0.0
C473 C 0.36514 0.27328 0.78258 0.0
C474 C 0.28155 0.24135 0.78963 0.0
C475 C 0.28354 0.25604 0.73942 0.0
O476 O 0.23977 0.24989 0.76927 0.0
O477 O 0.24075 0.27947 0.76705 0.0
O478 O 0.28727 0.29165 0.77974 0.0
O479 O 0.27059 0.29195 0.75403 0.0
O480 O 0.26816 0.27668 0.80306 0.0
O481 O 0.29862 0.28634 0.81047 0.0
O482 O 0.32661 0.2916 0.78393 0.0
O483 O 0.32667 0.263 0.78931 0.0
O484 O 0.27963 0.24975 0.77531 0.0
O485 O 0.29667 0.24928 0.80068 0.0
O486 O 0.29854 0.26352 0.75184 0.0
O487 O 0.26801 0.25503 0.74456 0.0
H488 H 0.20008 0.23702 0.76217 0.0
H489 H 0.17574 0.23675 0.77966 0.0
H490 H 0.20565 0.28834 0.81752 0.0
H491 H 0.2302 0.28822 0.80018 0.0
H492 H 0.33641 0.28717 0.74974 0.0
H493 H 0.36052 0.2878 0.73165 0.0
H494 H 0.39052 0.26942 0.77873 0.0
H495 H 0.36664 0.2694 0.79688 0.0
Tb496 Tb 0.03871 0.03198 0.53843 0.0
Tb497 Tb 0.03 0.98719 0.52635 0.0
C498 C 0.05135 0.06703 0.54242 0.0
C499 C 0.06083 0.07996 0.53128 0.0
C500 C 0.06152 0.07397 0.51186 0.0
C501 C 0.06997 0.08666 0.50121 0.0
C502 C 0.07779 0.10561 0.50981 0.0
C503 C 0.0776 0.11134 0.52952 0.0
C504 C 0.0692 0.09859 0.54016 0.0
C505 C 0.00809 0.01274 0.54392 0.0
C506 C 0.02465 0.01243 0.49433 0.0
C507 C 0.01437 0.95294 0.52167 0.0
C508 C 0.01825 0.93632 0.52931 0.0
C509 C 0.00445 0.92066 0.52897 0.0
C510 C 0.00758 0.90556 0.53806 0.0
C511 C 0.02462 0.90588 0.54763 0.0
C512 C 0.03852 0.92146 0.54747 0.0
C513 C 0.03534 0.93661 0.53845 0.0
C514 C 0.0632 1.004 0.52509 0.0
C515 C 0.04745 0.00687 0.56981 0.0
O516 O 0.05997 0.05527 0.54955 0.0
O517 O 0.03485 0.05884 0.53478 0.0
O518 O 0.01592 0.00895 0.53026 0.0
O519 O 0.01676 0.02888 0.55432 0.0
O520 O 0.03436 0.02755 0.5067 0.0
O521 O 0.01942 0.99569 0.49961 0.0
O522 O 0.01178 0.96606 0.53468 0.0
O523 O 0.02439 0.95997 0.50989 0.0
O524 O 0.05096 0.01068 0.5299 0.0
O525 O 0.05691 0.98574 0.52091 0.0
O526 O 0.03832 0.99124 0.5578 0.0
O527 O 0.05077 0.02386 0.5646 0.0
H528 H 0.0553 0.0596 0.50484 0.0
H529 H 0.07003 0.08177 0.48613 0.0
H530 H 0.08325 0.12591 0.53651 0.0
H531 H 0.06886 0.1034 0.55519 0.0
H532 H 0.99115 0.92037 0.52219 0.0
H533 H 0.99652 0.89398 0.53819 0.0
H534 H 0.05181 0.92206 0.55451 0.0
H535 H 0.04612 0.94873 0.53899 0.0
Tb536 Tb 0.29349 0.76033 0.74372 0.0
Tb537 Tb 0.29725 0.80344 0.74815 0.0
C538 C 0.29416 0.72642 0.73263 0.0
C539 C 0.30473 0.71276 0.73776 0.0
C540 C 0.32269 0.71593 0.73667 0.0
C541 C 0.33212 0.70232 0.74092 0.0
C542 C 0.32378 0.68533 0.74639 0.0
C543 C 0.30586 0.68233 0.74764 0.0
C544 C 0.29645 0.69586 0.7433 0.0
C545 C 0.29324 0.7772 0.77903 0.0
C546 C 0.3317 0.78884 0.75088 0.0
C547 C 0.29574 0.83745 0.75679 0.0
C548 C 0.28472 0.8482 0.76621 0.0
C549 C 0.2693 0.83901 0.77185 0.0
C550 C 0.25854 0.8496 0.77988 0.0
C551 C 0.26303 0.86956 0.7823 0.0
C552 C 0.27871 0.87864 0.77693 0.0
C553 C 0.28944 0.86804 0.76899 0.0
C554 C 0.29801 0.78585 0.71362 0.0
C555 C 0.25996 0.77513 0.74264 0.0
O556 O 0.30148 0.74068 0.72482 0.0
O557 O 0.28491 0.7315 0.74534 0.0
O558 O 0.30186 0.78389 0.76692 0.0
O559 O 0.28635 0.75942 0.77226 0.0
O560 O 0.32184 0.77122 0.74644 0.0
O561 O 0.32504 0.80386 0.75409 0.0
O562 O 0.30523 0.82897 0.7679 0.0
O563 O 0.28826 0.82675 0.74007 0.0
O564 O 0.2884 0.77975 0.7251 0.0
O565 O 0.30684 0.80301 0.72081 0.0
O566 O 0.27022 0.79171 0.75144 0.0
O567 O 0.26649 0.76169 0.7342 0.0
H568 H 0.32946 0.72882 0.73243 0.0
H569 H 0.34594 0.70513 0.73999 0.0
H570 H 0.29899 0.66929 0.75153 0.0
H571 H 0.28258 0.69301 0.74409 0.0
H572 H 0.26553 0.8237 0.76989 0.0
H573 H 0.24668 0.84215 0.78406 0.0
H574 H 0.28245 0.89394 0.77825 0.0
H575 H 0.30128 0.87536 0.76464 0.0
Tb576 Tb 0.51783 0.02414 0.01607 0.0
Tb577 Tb 0.54853 0.01923 0.04324 0.0
C578 C 0.48786 0.01977 0.99589 0.0
C579 C 0.47008 0.0089 0.99663 0.0
C580 C 0.46133 0.99441 0.98111 0.0
C581 C 0.44533 0.98251 0.98211 0.0
C582 C 0.43765 0.98499 0.99859 0.0
C583 C 0.44604 0.99992 0.01387 0.0
C584 C 0.46222 0.01174 0.01296 0.0
C585 C 0.54236 0.05573 0.02949 0.0
C586 C 0.51518 0.02369 0.06126 0.0
C587 C 0.57752 0.02093 0.06453 0.0
C588 C 0.59636 0.02852 0.06559 0.0
C589 C 0.60277 0.03743 0.05087 0.0
C590 C 0.62066 0.04622 0.05323 0.0
C591 C 0.63223 0.04633 0.07042 0.0
C592 C 0.62576 0.03684 0.08482 0.0
C593 C 0.60796 0.028 0.0824 0.0
C594 C 0.52349 0.9879 0.02982 0.0
C595 C 0.55143 0.02046 0.99817 0.0
O596 O 0.49888 0.00939 0.9921 0.0
O597 O 0.49514 0.03441 0.00955 0.0
O598 O 0.53731 0.04248 0.0385 0.0
O599 O 0.5324 0.05211 0.01251 0.0
O600 O 0.50663 0.02025 0.04295 0.0
O601 O 0.53248 0.02562 0.06495 0.0
O602 O 0.56827 0.03362 0.06667 0.0
O603 O 0.56963 0.00672 0.05065 0.0
O604 O 0.52903 1.00094 0.02081 0.0
O605 O 0.53296 0.99176 0.04705 0.0
O606 O 0.55997 0.0233 0.01648 0.0
O607 O 0.53417 0.01878 0.99448 0.0
H608 H 0.46713 0.99199 0.96836 0.0
H609 H 0.43898 0.97127 0.97002 0.0
H610 H 0.44038 1.00207 0.02674 0.0
H611 H 0.46871 0.02278 0.02518 0.0
H612 H 0.5939 0.03806 0.03786 0.0
H613 H 0.62529 0.05357 0.04198 0.0
H614 H 0.63444 0.03654 0.0981 0.0
H615 H 0.60316 0.02118 0.0939 0.0
Tb616 Tb 0.26175 0.25911 0.27448 0.0
Tb617 Tb 0.29635 0.28674 0.28757 0.0
C618 C 0.23092 0.24145 0.27476 0.0
C619 C 0.21537 0.24808 0.27918 0.0
C620 C 0.21719 0.2633 0.29423 0.0
C621 C 0.20253 0.26969 0.29832 0.0
C622 C 0.18566 0.26102 0.28747 0.0
C623 C 0.18386 0.24582 0.27233 0.0
C624 C 0.19861 0.23944 0.26821 0.0
C625 C 0.27569 0.27317 0.24661 0.0
C626 C 0.26321 0.30456 0.28678 0.0
C627 C 0.32704 0.30503 0.28793 0.0
C628 C 0.34394 0.29974 0.28806 0.0
C629 C 0.35562 0.30841 0.27709 0.0
C630 C 0.37089 0.30224 0.27524 0.0
C631 C 0.37484 0.28731 0.28446 0.0
C632 C 0.36322 0.27889 0.2958 0.0
C633 C 0.34785 0.28499 0.29751 0.0
C634 C 0.28247 0.2722 0.31545 0.0
C635 C 0.29513 0.24131 0.27507 0.0
O636 O 0.244 0.24417 0.28937 0.0
O637 O 0.2363 0.24581 0.25896 0.0
O638 O 0.27588 0.2819 0.26319 0.0
O639 O 0.26654 0.25578 0.24473 0.0
O640 O 0.25398 0.28649 0.28356 0.0
O641 O 0.28052 0.30828 0.28755 0.0
O642 O 0.31541 0.29805 0.27202 0.0
O643 O 0.3202 0.30385 0.30359 0.0
O644 O 0.28228 0.26389 0.29873 0.0
O645 O 0.29177 0.28951 0.31751 0.0
O646 O 0.3045 0.25937 0.27953 0.0
O647 O 0.27765 0.23754 0.27314 0.0
H648 H 0.22995 0.27023 0.30299 0.0
H649 H 0.20439 0.28119 0.31029 0.0
H650 H 0.17108 0.23893 0.2636 0.0
H651 H 0.19693 0.22775 0.25646 0.0
H652 H 0.35267 0.3196 0.26946 0.0
H653 H 0.37929 0.30879 0.26604 0.0
H654 H 0.36591 0.26748 0.30322 0.0
H655 H 0.33885 0.27792 0.30586 0.0
Tb656 Tb 0.53959 0.5309 0.038 0.0
Tb657 Tb 0.53073 0.48894 0.02472 0.0
C658 C 0.55122 0.56605 0.04079 0.0
C659 C 0.5474 0.57932 0.02787 0.0
C660 C 0.55951 0.5966 0.02888 0.0
C661 C 0.5563 0.60873 0.01577 0.0
C662 C 0.54096 0.60366 1.00142 0.0
C663 C 0.52889 0.58628 1.00051 0.0
C664 C 0.53206 0.57425 0.01366 0.0
C665 C 0.50802 0.51297 0.04196 0.0
C666 C 0.52274 0.51349 0.99358 0.0
C667 C 0.51885 0.45372 0.02115 0.0
C668 C 0.5226 0.43921 0.0325 0.0
C669 C 0.51031 0.42182 0.03002 0.0
C670 C 0.51352 0.40811 0.04121 0.0
C671 C 0.52911 0.41163 0.05501 0.0
C672 C 0.54142 0.42912 0.0574 0.0
C673 C 0.53816 0.44284 0.04627 0.0
C674 C 0.56231 0.50706 0.02087 0.0
C675 C 0.54737 0.50651 0.06931 0.0
O676 O 0.55915 0.55348 0.03376 0.0
O677 O 0.53822 0.55848 0.04888 0.0
O678 O 0.51563 0.50954 0.028 0.0
O679 O 0.51761 0.52786 0.05371 0.0
O680 O 0.53249 0.52822 0.00633 0.0
O681 O 0.51803 0.49659 0.99855 0.0
O682 O 0.51165 0.46626 0.02964 0.0
O683 O 0.5315 0.46149 0.01269 0.0
O684 O 0.5546 0.51028 0.03477 0.0
O685 O 0.55279 0.49223 0.00898 0.0
O686 O 0.53819 0.49153 0.05645 0.0
O687 O 0.55178 0.52348 0.06441 0.0
H688 H 0.57147 0.60063 0.03971 0.0
H689 H 0.56574 0.62213 0.01696 0.0
H690 H 0.5171 0.58182 0.98945 0.0
H691 H 0.52261 0.56088 0.01258 0.0
H692 H 0.49821 0.41887 0.0195 0.0
H693 H 0.50388 0.39469 0.03895 0.0
H694 H 0.55342 0.43232 0.06811 0.0
H695 H 0.54773 0.45631 0.04848 0.0
Tb696 Tb 0.79049 0.25473 0.2544 0.0
Tb697 Tb 0.80278 0.29617 0.27524 0.0
C698 C 0.78806 0.22166 0.23732 0.0
C699 C 0.79868 0.20744 0.23798 0.0
C700 C 0.81716 0.21267 0.24243 0.0
C701 C 0.82678 0.19881 0.24464 0.0
C702 C 0.81803 0.17957 0.24265 0.0
C703 C 0.79956 0.17444 0.23771 0.0
C704 C 0.79001 0.18824 0.23539 0.0
C705 C 0.77284 0.26471 0.28097 0.0
C706 C 0.82423 0.26787 0.28876 0.0
C707 C 0.80408 0.32884 0.29238 0.0
C708 C 0.79134 0.34065 0.29444 0.0
C709 C 0.77341 0.3325 0.2935 0.0
C710 C 0.76149 0.34403 0.29505 0.0
C711 C 0.76725 0.36393 0.29734 0.0
C712 C 0.78524 0.37194 0.29813 0.0
C713 C 0.79714 0.36041 0.29676 0.0
C714 C 0.82129 0.28617 0.24956 0.0
C715 C 0.76831 0.28235 0.24191 0.0
O716 O 0.79419 0.23699 0.23038 0.0
O717 O 0.78159 0.2254 0.25292 0.0
O718 O 0.78914 0.27006 0.2816 0.0
O719 O 0.76587 0.25231 0.26548 0.0
O720 O 0.81529 0.25547 0.27329 0.0
O721 O 0.82014 0.28419 0.29405 0.0
O722 O 0.80204 0.31374 0.30075 0.0
O723 O 0.80761 0.32545 0.27496 0.0
O724 O 0.80485 0.28073 0.24838 0.0
O725 O 0.82753 0.29924 0.26468 0.0
O726 O 0.77698 0.29425 0.25781 0.0
O727 O 0.77339 0.26693 0.23558 0.0
H728 H 0.82412 0.22745 0.24466 0.0
H729 H 0.841 0.2032 0.24852 0.0
H730 H 0.79246 0.15972 0.23579 0.0
H731 H 0.77576 0.18394 0.23198 0.0
H732 H 0.76861 0.31724 0.29145 0.0
H733 H 0.74779 0.33735 0.29455 0.0
H734 H 0.79013 0.38713 0.29945 0.0
H735 H 0.81089 0.36694 0.29729 0.0
Tb736 Tb 0.01875 0.5233 0.51613 0.0
Tb737 Tb 0.05348 0.53243 0.54336 0.0
C738 C 0.98813 0.50807 0.49787 0.0
C739 C 0.97165 0.49718 0.50218 0.0
C740 C 0.96389 0.47918 0.49114 0.0
C741 C 0.94856 0.46816 0.49509 0.0
C742 C 0.9406 0.47498 0.51008 0.0
C743 C 0.94826 0.49309 0.52106 0.0
C744 C 0.96375 0.50409 0.51722 0.0
C745 C 0.03557 0.55938 0.52251 0.0
C746 C 0.01952 0.52941 0.56257 0.0
C747 C 0.08425 0.54705 0.56173 0.0
C748 C 0.09957 0.56095 0.5587 0.0
C749 C 0.09748 0.57466 0.54698 0.0
C750 C 0.11201 0.58866 0.54536 0.0
C751 C 0.12899 0.58897 0.5551 0.0
C752 C 0.13102 0.57473 0.56631 0.0
C753 C 0.11642 0.56095 0.56818 0.0
C754 C 0.03696 0.49615 0.53575 0.0
C755 C 0.05245 0.52658 0.49691 0.0
O756 O 1.00107 0.49953 0.49886 0.0
O757 O 0.99335 0.5261 0.50544 0.0
O758 O 0.0349 0.54816 0.53459 0.0
O759 O 0.02538 0.55064 0.50634 0.0
O760 O 0.01039 0.52199 0.54481 0.0
O761 O 0.0369 0.53574 0.56539 0.0
O762 O 0.07057 0.55369 0.56443 0.0
O763 O 0.07987 0.53074 0.55005 0.0
O764 O 0.03771 0.50798 0.52442 0.0
O765 O 0.04694 0.50439 0.55218 0.0
O766 O 0.0615 0.53497 0.51451 0.0
O767 O 0.03523 0.51932 0.49437 0.0
H768 H 0.96975 0.4736 0.47947 0.0
H769 H 0.9428 0.45437 0.48621 0.0
H770 H 0.94241 0.49863 0.53275 0.0
H771 H 0.96955 0.51789 0.52606 0.0
H772 H 0.08458 0.57473 0.5393 0.0
H773 H 0.10982 0.59942 0.53676 0.0
H774 H 0.14389 0.57416 0.57362 0.0
H775 H 0.11827 0.55035 0.57716 0.0
Tb776 Tb 0.76369 0.76742 0.27061 0.0
Tb777 Tb 0.803 0.77108 0.28419 0.0
C778 C 0.73055 0.75931 0.26642 0.0
C779 C 0.71648 0.75995 0.27788 0.0
C780 C 0.7009 0.74563 0.27279 0.0
C781 C 0.68694 0.74616 0.28266 0.0
C782 C 0.6882 0.76108 0.2979 0.0
C783 C 0.70404 0.77524 0.30328 0.0
C784 C 0.71805 0.77469 0.29336 0.0
C785 C 0.78485 0.79851 0.26537 0.0
C786 C 0.78178 0.78319 0.31521 0.0
C787 C 0.83609 0.77895 0.28807 0.0
C788 C 0.84982 0.77884 0.27602 0.0
C789 C 0.84813 0.78443 0.25771 0.0
C790 C 0.86178 0.78495 0.24709 0.0
C791 C 0.87739 0.77989 0.25455 0.0
C792 C 0.8788 0.77398 0.27275 0.0
C793 C 0.8652 0.7735 0.28334 0.0
C794 C 0.78188 0.73987 0.28935 0.0
C795 C 0.78495 0.75531 0.23972 0.0
O796 O 0.74021 0.74727 0.26998 0.0
O797 O 0.73989 0.77554 0.26378 0.0
O798 O 0.78653 0.79014 0.27972 0.0
O799 O 0.77023 0.79011 0.25361 0.0
O800 O 0.76724 0.77526 0.30224 0.0
O801 O 0.79767 0.78507 0.31078 0.0
O802 O 0.82655 0.7914 0.28599 0.0
O803 O 0.82671 0.7624 0.28974 0.0
O804 O 0.78017 0.74834 0.27507 0.0
O805 O 0.79656 0.74823 0.30102 0.0
O806 O 0.79943 0.76391 0.25251 0.0
O807 O 0.7691 0.75287 0.24433 0.0
H808 H 0.69945 0.73407 0.26098 0.0
H809 H 0.67513 0.73481 0.27834 0.0
H810 H 0.70548 0.787 0.31485 0.0
H811 H 0.72998 0.78589 0.2976 0.0
H812 H 0.83638 0.78861 0.25172 0.0
H813 H 0.86025 0.78971 0.23322 0.0
H814 H 0.89041 0.76962 0.27883 0.0
H815 H 0.86675 0.76907 0.29739 0.0
Tb816 Tb 0.78268 0.27017 0.75197 0.0
Tb817 Tb 0.78778 0.28176 0.7953 0.0
C818 C 0.76989 0.26497 0.71669 0.0
C819 C 0.75977 0.27516 0.7045 0.0
C820 C 0.74498 0.26467 0.69102 0.0
C821 C 0.73406 0.27388 0.68047 0.0
C822 C 0.73773 0.29382 0.68322 0.0
C823 C 0.75254 0.30434 0.69684 0.0
C824 C 0.76347 0.29508 0.70745 0.0
C825 C 0.811 0.26309 0.77154 0.0
C826 C 0.79958 0.31396 0.76982 0.0
C827 C 0.79829 0.29352 0.83081 0.0
C828 C 0.79307 0.28827 0.84887 0.0
C829 C 0.80083 0.27552 0.85825 0.0
C830 C 0.79607 0.27056 0.87537 0.0
C831 C 0.78354 0.27835 0.88357 0.0
C832 C 0.77589 0.29128 0.87436 0.0
C833 C 0.78062 0.29621 0.85715 0.0
C834 C 0.75569 0.27792 0.77576 0.0
C835 C 0.77163 0.23852 0.77798 0.0
O836 O 0.76152 0.25755 0.72953 0.0
O837 O 0.78654 0.2731 0.72373 0.0
O838 O 0.80455 0.27712 0.77533 0.0
O839 O 0.80257 0.25335 0.75494 0.0
O840 O 0.79285 0.30113 0.75388 0.0
O841 O 0.79966 0.30916 0.78729 0.0
O842 O 0.80486 0.28132 0.82068 0.0
O843 O 0.78738 0.30074 0.8199 0.0
O844 O 0.77001 0.28469 0.77097 0.0
O845 O 0.75889 0.27388 0.79303 0.0
O846 O 0.78117 0.25068 0.79337 0.0
O847 O 0.76864 0.24406 0.76089 0.0
H848 H 0.74179 0.24929 0.68876 0.0
H849 H 0.72296 0.26536 0.66983 0.0
H850 H 0.75565 0.31971 0.69932 0.0
H851 H 0.7746 0.30348 0.71811 0.0
H852 H 0.81069 0.26942 0.85245 0.0
H853 H 0.80251 0.26092 0.88241 0.0
H854 H 0.76623 0.29751 0.88042 0.0
H855 H 0.77456 0.30627 0.85038 0.0
Tb856 Tb 0.76269 0.76078 0.77464 0.0
Tb857 Tb 0.79682 0.78889 0.7885 0.0
C858 C 0.73214 0.74192 0.77444 0.0
C859 C 0.71596 0.74738 0.77827 0.0
C860 C 0.71692 0.76403 0.79115 0.0
C861 C 0.70162 0.76922 0.79482 0.0
C862 C 0.68504 0.75768 0.78598 0.0
C863 C 0.68405 0.74094 0.77317 0.0
C864 C 0.69943 0.7359 0.76923 0.0
C865 C 0.77708 0.77498 0.74713 0.0
C866 C 0.76327 0.80611 0.7863 0.0
C867 C 0.82743 0.80824 0.79046 0.0
C868 C 0.84474 0.80382 0.7925 0.0
C869 C 0.85777 0.81406 0.78407 0.0
C870 C 0.8736 0.80862 0.7838 0.0
C871 C 0.87666 0.79283 0.79202 0.0
C872 C 0.86373 0.78296 0.80104 0.0
C873 C 0.84785 0.78838 0.80121 0.0
C874 C 0.78241 0.77388 0.81586 0.0
C875 C 0.79661 0.74374 0.77599 0.0
O876 O 0.74501 0.74556 0.78939 0.0
O877 O 0.73761 0.74657 0.75877 0.0
O878 O 0.77685 0.78375 0.76356 0.0
O879 O 0.7681 0.75751 0.74519 0.0
O880 O 0.75423 0.78796 0.78294 0.0
O881 O 0.78062 0.81003 0.78751 0.0
O882 O 0.81679 0.80026 0.77408 0.0
O883 O 0.81961 0.80719 0.80544 0.0
O884 O 0.7828 0.76574 0.79927 0.0
O885 O 0.79139 0.79132 0.81814 0.0
O886 O 0.80573 0.76189 0.78079 0.0
O887 O 0.77909 0.73969 0.77359 0.0
H888 H 0.72947 0.77293 0.79867 0.0
H889 H 0.70275 0.78201 0.80502 0.0
H890 H 0.6714 0.7318 0.76618 0.0
H891 H 0.69843 0.72298 0.75929 0.0
H892 H 0.85546 0.82588 0.77708 0.0
H893 H 0.8831 0.81632 0.77639 0.0
H894 H 0.86574 0.77086 0.80765 0.0
H895 H 0.83784 0.78019 0.80768 0.0
Tb896 Tb 0.51744 0.51608 0.52288 0.0
Tb897 Tb 0.55463 0.53658 0.54199 0.0
C898 C 0.4845 0.5067 0.51397 0.0
C899 C 0.47151 0.5168 0.51984 0.0
C900 C 0.4765 0.5311 0.53618 0.0
C901 C 0.46439 0.54074 0.54225 0.0
C902 C 0.4471 0.53671 0.53172 0.0
C903 C 0.44215 0.52239 0.5152 0.0
C904 C 0.45427 0.51244 0.50936 0.0
C905 C 0.54168 0.51177 0.50197 0.0
C906 C 0.53121 0.56024 0.52244 0.0
C907 C 0.58752 0.54771 0.55179 0.0
C908 C 0.60237 0.53876 0.55151 0.0
C909 C 0.59955 0.51966 0.54318 0.0
C910 C 0.61379 0.51146 0.54191 0.0
C911 C 0.6311 0.52227 0.54885 0.0
C912 C 0.63387 0.54139 0.55732 0.0
C913 C 0.61956 0.54957 0.55868 0.0
C914 C 0.53032 0.54137 0.56266 0.0
C915 C 0.54051 0.49236 0.54287 0.0
O916 O 0.49352 0.50098 0.52813 0.0
O917 O 0.49454 0.51483 0.50286 0.0
O918 O 0.54119 0.52641 0.51304 0.0
O919 O 0.52709 0.49919 0.50071 0.0
O920 O 0.51761 0.5462 0.52282 0.0
O921 O 0.54756 0.55888 0.52758 0.0
O922 O 0.5788 0.54817 0.5347 0.0
O923 O 0.57709 0.54259 0.56384 0.0
O924 O 0.53078 0.52645 0.55194 0.0
O925 O 0.54471 0.55403 0.56327 0.0
O926 O 0.5543 0.50655 0.54345 0.0
O927 O 0.52426 0.4937 0.53708 0.0
H928 H 0.48982 0.53482 0.54429 0.0
H929 H 0.46864 0.55136 0.55523 0.0
H930 H 0.42904 0.51912 0.50657 0.0
H931 H 0.45026 0.5015 0.49662 0.0
H932 H 0.58637 0.5112 0.53727 0.0
H933 H 0.61126 0.49679 0.535 0.0
H934 H 0.64708 0.55 0.56285 0.0
H935 H 0.62192 0.56438 0.56506 0.0
Tb936 Tb 0.05284 0.52873 0.02637 0.0
Tb937 Tb 0.01362 0.51772 0.03063 0.0
C938 C 0.08562 0.53228 0.03514 0.0
C939 C 0.09958 0.52258 0.03077 0.0
C940 C 0.0968 0.50271 0.02853 0.0
C941 C 0.11086 0.494 0.02738 0.0
C942 C 0.12807 0.50493 0.02848 0.0
C943 C 0.13062 0.52477 0.02993 0.0
C944 C 0.11655 0.53347 0.0311 0.0
C945 C 0.03156 0.52978 0.99299 0.0
C946 C 0.03034 0.48618 0.01217 0.0
C947 C 0.98117 0.51447 0.03001 0.0
C948 C 0.96746 0.52525 0.02711 0.0
C949 C 0.96995 0.54171 0.01862 0.0
C950 C 0.95639 0.55129 0.01575 0.0
C951 C 0.9401 0.54454 0.0213 0.0
C952 C 0.93787 0.52816 0.03001 0.0
C953 C 0.95138 0.51864 0.03285 0.0
C954 C 0.03709 0.51223 0.05953 0.0
C955 C 0.03469 0.56127 0.03901 0.0
O956 O 0.07406 0.52337 0.04428 0.0
O957 O 0.07842 0.5406 0.02181 0.0
O958 O 0.02763 0.52555 0.0088 0.0
O959 O 0.04866 0.53323 0.99571 0.0
O960 O 0.04607 0.49794 0.0179 0.0
O961 O 0.01553 0.49145 0.01377 0.0
O962 O 0.9878 0.50935 0.01484 0.0
O963 O 0.99317 0.52039 0.04577 0.0
O964 O 0.03879 0.52591 0.05005 0.0
O965 O 0.0214 0.50152 0.0532 0.0
O966 O 0.0193 0.54871 0.03477 0.0
O967 O 0.04986 0.55648 0.0384 0.0
H968 H 0.08388 0.49395 0.02839 0.0
H969 H 0.10835 0.47873 0.02645 0.0
H970 H 0.14357 0.53366 0.03044 0.0
H971 H 0.11906 0.54881 0.0329 0.0
H972 H 0.9823 0.54706 0.01411 0.0
H973 H 0.95856 0.56377 0.00888 0.0
H974 H 0.9257 0.52273 0.03483 0.0
H975 H 0.94923 0.50603 0.03953 0.0
C976 C 0.98752 0.19361 0.94816 0.0
C977 C 1.00092 0.20522 0.94117 0.0
C978 C 0.99044 0.17781 0.95608 0.0
C979 C 0.02083 0.14546 0.96023 0.0
H980 H 0.99903 0.13456 0.00433 0.0
C981 C 0.03788 0.09054 0.00736 0.0
C982 C 0.02354 0.07764 0.01151 0.0
C983 C 0.03531 0.10614 0.99877 0.0
C984 C 0.00509 0.13734 0.99194 0.0
H985 H 0.02786 0.20912 0.93668 0.0
H986 H 0.0332 0.18174 0.95107 0.0
H987 H 0.99456 0.16163 0.98921 0.0
H988 H 0.99527 0.07123 0.01016 0.0
H989 H 0.99084 0.09868 0.99542 0.0
H990 H 0.03167 0.1213 0.96339 0.0
C991 C 0.02027 0.18467 0.95009 0.0
C992 C 1.00249 0.15283 0.98318 0.0
C993 C 0.01725 0.20041 0.94189 0.0
C994 C 0.0066 0.08089 0.00718 0.0
C995 C 1.00407 0.09664 0.99879 0.0
C996 C 0.02359 0.13008 0.96915 0.0
C997 C 0.00694 0.1733 0.95753 0.0
C998 C 0.01019 0.15702 0.96709 0.0
C999 C 0.01838 0.10933 0.99434 0.0
C1000 C 0.01566 0.12579 0.98502 0.0
H1001 H 0.97469 0.19676 0.94759 0.0
H1002 H 0.97969 0.16915 0.96112 0.0
H1003 H 0.02678 0.14806 0.94774 0.0
H1004 H 0.0511 0.08844 0.01043 0.0
H1005 H 0.0466 0.11578 0.99569 0.0
C1006 C 0.12114 0.78089 0.16343 0.0
C1007 C 0.10957 0.79184 0.16897 0.0
C1008 C 0.13634 0.78076 0.17613 0.0
C1009 C 0.15946 0.79393 0.22751 0.0
H1010 H 0.20003 0.79106 0.20354 0.0
C1011 C 0.23068 0.80333 0.27021 0.0
C1012 C 0.23908 0.78897 0.26449 0.0
C1013 C 0.2147 0.80436 0.25931 0.0
C1014 C 0.1888 0.79179 0.21042 0.0
H1015 H 0.10453 0.81079 0.19243 0.0
H1016 H 0.13167 0.81115 0.21471 0.0
H1017 H 0.17245 0.79195 0.18364 0.0
H1018 H 0.23731 0.7644 0.243 0.0
H1019 H 0.20977 0.7666 0.22354 0.0
H1020 H 0.17627 0.79428 0.25444 0.0
C1021 C 0.12876 0.80236 0.20055 0.0
C1022 C 0.17291 0.79219 0.19902 0.0
C1023 C 0.11323 0.8022 0.18783 0.0
C1024 C 0.23128 0.77576 0.24761 0.0
C1025 C 0.2155 0.77699 0.23652 0.0
C1026 C 0.17551 0.79382 0.23898 0.0
C1027 C 0.14071 0.79193 0.19467 0.0
C1028 C 0.15789 0.79286 0.20731 0.0
C1029 C 0.207 0.79125 0.24231 0.0
C1030 C 0.19023 0.79243 0.23048 0.0
H1031 H 0.11849 0.77248 0.14908 0.0
H1032 H 0.14479 0.77199 0.17126 0.0
H1033 H 0.14821 0.79434 0.2344 0.0
H1034 H 0.23637 0.81369 0.28321 0.0
H1035 H 0.20849 0.81555 0.26402 0.0
C1036 C 0.52431 0.82162 0.43894 0.0
C1037 C 0.51643 0.80848 0.44971 0.0
C1038 C 0.52769 0.84116 0.44579 0.0
C1039 C 0.53884 0.88237 0.46691 0.0
H1040 H 0.50237 0.89716 0.49203 0.0
C1041 C 0.54496 0.95919 0.50468 0.0
C1042 C 0.52963 0.96613 0.50366 0.0
C1043 C 0.54405 0.94024 0.49741 0.0
C1044 C 0.51258 0.89335 0.48485 0.0
H1045 H 0.50733 0.8053 0.47673 0.0
H1046 H 0.51382 0.83913 0.48896 0.0
H1047 H 0.50033 0.86384 0.48103 0.0
H1048 H 0.50136 0.95868 0.4936 0.0
H1049 H 0.4998 0.92575 0.48056 0.0
H1050 H 0.55076 0.91207 0.47022 0.0
C1051 C 0.51675 0.83454 0.47491 0.0
C1052 C 0.51158 0.87416 0.47882 0.0
C1053 C 0.51317 0.81513 0.46799 0.0
C1054 C 0.51341 0.95377 0.49481 0.0
C1055 C 0.51251 0.93485 0.48741 0.0
C1056 C 0.5398 0.90165 0.47287 0.0
C1057 C 0.52342 0.84782 0.4636 0.0
C1058 C 0.52474 0.86839 0.46991 0.0
C1059 C 0.52779 0.92778 0.48881 0.0
C1060 C 0.52669 0.90736 0.48197 0.0
H1061 H 0.52689 0.81687 0.42476 0.0
H1062 H 0.53281 0.85099 0.43667 0.0
H1063 H 0.54924 0.87843 0.46015 0.0
H1064 H 0.55769 0.96829 0.51144 0.0
H1065 H 0.55605 0.93526 0.49899 0.0
C1066 C 0.49144 0.27995 0.65228 0.0
C1067 C 0.509 0.28583 0.66217 0.0
C1068 C 0.47746 0.27929 0.66233 0.0
C1069 C 0.46621 0.27794 0.7113 0.0
H1070 H 0.42468 0.29302 0.68841 0.0
C1071 C 0.41016 0.28654 0.75328 0.0
C1072 C 0.3927 0.27983 0.74318 0.0
C1073 C 0.42436 0.28735 0.74352 0.0
C1074 C 0.43609 0.28856 0.69492 0.0
H1075 H 0.52556 0.29562 0.69053 0.0
H1076 H 0.50115 0.29472 0.7081 0.0
H1077 H 0.44943 0.29448 0.67149 0.0
H1078 H 0.37663 0.26863 0.71473 0.0
H1079 H 0.40138 0.27017 0.6977 0.0
H1080 H 0.45285 0.27213 0.7348 0.0
C1081 C 0.49819 0.29036 0.69253 0.0
C1082 C 0.45032 0.28938 0.6852 0.0
C1083 C 0.51221 0.29097 0.68244 0.0
C1084 C 0.38985 0.27411 0.72298 0.0
C1085 C 0.40407 0.27498 0.7132 0.0
C1086 C 0.45199 0.27717 0.72105 0.0
C1087 C 0.4806 0.28457 0.6826 0.0
C1088 C 0.46557 0.28402 0.69321 0.0
C1089 C 0.42152 0.28156 0.72335 0.0
C1090 C 0.43671 0.28242 0.71297 0.0
H1091 H 0.48843 0.27578 0.63668 0.0
H1092 H 0.46415 0.27443 0.65418 0.0
H1093 H 0.47758 0.27342 0.71781 0.0
H1094 H 0.41292 0.29145 0.76876 0.0
H1095 H 0.43758 0.29282 0.75177 0.0
C1096 C 0.04351 0.7935 0.65917 0.0
C1097 C 0.03141 0.77581 0.65339 0.0
C1098 C 0.04356 0.80763 0.64762 0.0
C1099 C 0.0155 0.8215 0.60767 0.0
H1100 H 0.05948 0.85405 0.60218 0.0
C1101 C 0.01846 0.87156 0.55152 0.0
C1102 C 0.02757 0.89051 0.55863 0.0
C1103 C 0.01994 0.8574 0.56269 0.0
C1104 C 0.04711 0.84509 0.60367 0.0
H1105 H 0.0101 0.75894 0.63084 0.0
H1106 H 0.01048 0.78329 0.61055 0.0
H1107 H 0.0599 0.82971 0.62275 0.0
H1108 H 0.04577 0.90929 0.58291 0.0
H1109 H 0.0486 0.88444 0.60221 0.0
H1110 H 1.00275 0.83671 0.58839 0.0
C1111 C 0.01963 0.78652 0.6242 0.0
C1112 C 0.04733 0.83123 0.61551 0.0
C1113 C 0.01947 0.77249 0.63581 0.0
C1114 C 0.03875 0.89482 0.57686 0.0
C1115 C 0.04034 0.88061 0.58796 0.0
C1116 C 0.01531 0.8352 0.59571 0.0
C1117 C 0.03161 0.8043 0.62999 0.0
C1118 C 0.03151 0.81924 0.61763 0.0
C1119 C 0.03068 0.86185 0.58113 0.0
C1120 C 0.0311 0.84712 0.59358 0.0
H1121 H 0.05285 0.79648 0.67268 0.0
H1122 H 0.05281 0.82125 0.65265 0.0
H1123 H 1.00305 0.81282 0.60928 0.0
H1124 H 0.01001 0.86769 0.53739 0.0
H1125 H 0.01256 0.84298 0.55697 0.0
C1126 C 0.47704 0.79767 0.82388 0.0
C1127 C 0.47094 0.78058 0.83045 0.0
C1128 C 0.46764 0.80191 0.8073 0.0
C1129 C 0.43134 0.78264 0.76548 0.0
H1130 H 0.41055 0.82252 0.78619 0.0
C1131 C 0.35829 0.77565 0.75128 0.0
C1132 C 0.35095 0.79153 0.75261 0.0
C1133 C 0.37645 0.77791 0.75381 0.0
C1134 C 0.41643 0.81177 0.77971 0.0
H1135 H 0.45155 0.75376 0.8241 0.0
H1136 H 0.43547 0.76085 0.79489 0.0
H1137 H 0.43876 0.81958 0.80274 0.0
H1138 H 0.3569 0.8223 0.75645 0.0
H1139 H 0.38878 0.82627 0.76079 0.0
H1140 H 0.40857 0.77418 0.743 0.0
C1141 C 0.44734 0.77106 0.80251 0.0
C1142 C 0.43267 0.81011 0.78924 0.0
C1143 C 0.45641 0.76705 0.8193 0.0
C1144 C 0.36217 0.80977 0.75564 0.0
C1145 C 0.38042 0.81205 0.75807 0.0
C1146 C 0.41524 0.78449 0.75575 0.0
C1147 C 0.45238 0.78885 0.79687 0.0
C1148 C 0.43962 0.79475 0.78293 0.0
C1149 C 0.38779 0.79613 0.75758 0.0
C1150 C 0.40701 0.7982 0.7636 0.0
H1151 H 0.48822 0.80832 0.83235 0.0
H1152 H 0.47167 0.81576 0.80327 0.0
H1153 H 0.43658 0.7708 0.76027 0.0
H1154 H 0.35008 0.76137 0.74888 0.0
H1155 H 0.38156 0.7653 0.75376 0.0
C1156 C 0.55356 0.17241 0.15951 0.0
C1157 C 0.54801 0.1893 0.15821 0.0
C1158 C 0.55609 0.16148 0.14299 0.0
C1159 C 0.54283 0.1499 0.09069 0.0
H1160 H 0.58451 0.12965 0.09419 0.0
C1161 C 0.54753 0.09099 0.03174 0.0
C1162 C 0.55061 0.07516 0.03978 0.0
C1163 C 0.55151 0.10888 0.04341 0.0
C1164 C 0.57287 0.13529 0.09292 0.0
H1165 H 0.54019 0.20761 0.13843 0.0
H1166 H 0.54427 0.18816 0.10946 0.0
H1167 H 0.58164 0.15292 0.12077 0.0
H1168 H 0.56172 0.06588 0.06564 0.0
H1169 H 0.56875 0.09675 0.08586 0.0
H1170 H 0.53354 0.13147 0.0634 0.0
C1171 C 0.54682 0.18359 0.12334 0.0
C1172 C 0.5712 0.14854 0.10815 0.0
C1173 C 0.54447 0.19466 0.13992 0.0
C1174 C 0.55924 0.0778 0.05907 0.0
C1175 C 0.56332 0.0956 0.07065 0.0
C1176 C 0.54443 0.13652 0.0755 0.0
C1177 C 0.55297 0.16709 0.1248 0.0
C1178 C 0.55589 0.15542 0.10747 0.0
C1179 C 0.55878 0.11116 0.06321 0.0
C1180 C 0.55916 0.12853 0.07681 0.0
H1181 H 0.55644 0.16788 0.17336 0.0
H1182 H 0.56049 0.1486 0.14445 0.0
H1183 H 0.53089 0.15499 0.08982 0.0
H1184 H 0.54093 0.08934 0.01685 0.0
H1185 H 0.54807 0.12068 0.03722 0.0
C1186 C 0.06244 0.28135 0.36136 0.0
C1187 C 0.06392 0.2985 0.37375 0.0
C1188 C 0.07418 0.27994 0.3487 0.0
C1189 C 0.11914 0.30208 0.34332 0.0
H1190 H 0.10599 0.26745 0.29434 0.0
C1191 C 0.17103 0.28682 0.29844 0.0
C1192 C 0.17006 0.26742 0.29261 0.0
C1193 C 0.15706 0.29269 0.3053 0.0
C1194 C 0.10985 0.27717 0.30798 0.0
H1195 H 0.07838 0.32793 0.38176 0.0
H1196 H 0.09876 0.32557 0.35933 0.0
H1197 H 0.08315 0.27461 0.31169 0.0
H1198 H 0.1533 0.23907 0.28877 0.0
H1199 H 0.12888 0.24933 0.30059 0.0
H1200 H 0.14584 0.30437 0.33976 0.0
C1201 C 0.08869 0.31308 0.35974 0.0
C1202 C 0.09678 0.28126 0.31796 0.0
C1203 C 0.07696 0.31447 0.37252 0.0
C1204 C 0.15444 0.25412 0.29294 0.0
C1205 C 0.14043 0.26001 0.29973 0.0
C1206 C 0.13219 0.29809 0.33328 0.0
C1207 C 0.08766 0.29568 0.34795 0.0
C1208 C 0.10129 0.29339 0.33601 0.0
C1209 C 0.14174 0.27932 0.30638 0.0
C1210 C 0.12772 0.28525 0.31573 0.0
H1211 H 0.05255 0.26874 0.36187 0.0
H1212 H 0.07309 0.26624 0.34009 0.0
H1213 H 0.12315 0.31126 0.35728 0.0
H1214 H 0.18273 0.29748 0.29798 0.0
H1215 H 0.15835 0.30769 0.31004 0.0
C1216 C 0.97717 0.01034 0.2057 0.0
C1217 C 0.96153 0.01321 0.21135 0.0
C1218 C 0.98247 0.01716 0.18951 0.0
C1219 C 0.96553 0.02831 0.14304 0.0
H1220 H 0.01439 0.05293 0.14462 0.0
C1221 C 0.01625 0.05936 0.09014 0.0
C1222 C 0.01286 0.0432 0.07581 0.0
C1223 C 0.00778 0.05896 0.10608 0.0
C1224 C 1.00064 0.04636 0.14397 0.0
H1225 H 0.93921 0.02558 0.20449 0.0
H1226 H 0.94839 0.03721 0.17582 0.0
H1227 H 0.00446 0.04634 0.17454 0.0
H1228 H 0.99722 0.01439 0.06623 0.0
H1229 H 0.9823 0.01375 0.09392 0.0
H1230 H 0.9619 0.02769 0.11232 0.0
C1231 C 0.95654 0.02977 0.18409 0.0
C1232 C 0.995 0.04243 0.16107 0.0
C1233 C 0.95135 0.02318 0.20051 0.0
C1234 C 1.00002 0.02708 0.07702 0.0
C1235 C 0.99145 0.02673 0.09286 0.0
C1236 C 0.97122 0.03205 0.12587 0.0
C1237 C 0.97215 0.0268 0.17846 0.0
C1238 C 0.9775 0.03302 0.16072 0.0
C1239 C 0.99566 0.04246 0.10786 0.0
C1240 C 0.98891 0.04079 0.12613 0.0
H1241 H 0.98533 1.00276 0.21377 0.0
H1242 H 0.99446 0.01448 0.18535 0.0
H1243 H 0.95198 0.02096 0.14237 0.0
H1244 H 0.02602 0.07202 0.0895 0.0
H1245 H 0.01113 0.07135 0.11734 0.0
C1246 C 0.325 0.6707 0.45331 0.0
C1247 C 0.31701 0.66426 0.46832 0.0
C1248 C 0.31852 0.6617 0.43425 0.0
C1249 C 0.27477 0.64273 0.40837 0.0
H1250 H 0.30041 0.65709 0.36809 0.0
C1251 C 0.2774 0.69304 0.34588 0.0
C1252 C 0.27342 0.70798 0.35768 0.0
C1253 C 0.27658 0.67541 0.35181 0.0
C1254 C 0.29268 0.65238 0.37869 0.0
H1255 H 0.29759 0.64196 0.47574 0.0
H1256 H 0.28589 0.62635 0.44218 0.0
H1257 H 0.31438 0.64436 0.39453 0.0
H1258 H 0.26393 0.71558 0.38406 0.0
H1259 H 0.26273 0.68528 0.39451 0.0
H1260 H 0.25344 0.65182 0.39313 0.0
C1261 C 0.29717 0.63836 0.44511 0.0
C1262 C 0.3008 0.64516 0.39399 0.0
C1263 C 0.30387 0.64727 0.46431 0.0
C1264 C 0.26706 0.7044 0.3746 0.0
C1265 C 0.26624 0.68683 0.38052 0.0
C1266 C 0.26652 0.6496 0.39288 0.0
C1267 C 0.30366 0.64627 0.42979 0.0
C1268 C 0.29269 0.64253 0.41009 0.0
C1269 C 0.27179 0.6724 0.36967 0.0
C1270 C 0.27617 0.65657 0.37916 0.0
H1271 H 0.33533 0.68363 0.45611 0.0
H1272 H 0.32394 0.66833 0.42298 0.0
H1273 H 0.26786 0.64033 0.42023 0.0
H1274 H 0.28184 0.69521 0.33243 0.0
H1275 H 0.28063 0.66451 0.34293 0.0
C1276 C 0.60793 0.01513 0.72921 0.0
C1277 C 0.62138 0.00558 0.73391 0.0
C1278 C 0.60011 0.01487 0.70996 0.0
C1279 C 0.59236 0.98996 0.65863 0.0
H1280 H 0.58196 0.03724 0.64709 0.0
C1281 C 0.54622 0.99442 0.58672 0.0
C1282 C 0.54954 0.01088 0.57813 0.0
C1283 C 0.55612 0.99333 0.60472 0.0
C1284 C 0.58483 0.02389 0.64983 0.0
H1285 H 0.63649 0.98754 0.72107 0.0
H1286 H 0.62252 0.98674 0.68721 0.0
H1287 H 0.59679 0.03571 0.67938 0.0
H1288 H 0.56634 0.03913 0.58214 0.0
H1289 H 0.58357 0.03734 0.61346 0.0
H1290 H 0.58027 0.97815 0.62899 0.0
C1291 C 0.61815 0.99463 0.69878 0.0
C1292 C 0.59326 0.02294 0.66861 0.0
C1293 C 0.62618 0.995 0.71829 0.0
C1294 C 0.56334 0.02618 0.58814 0.0
C1295 C 0.57317 0.02517 0.6063 0.0
C1296 C 0.58373 0.99086 0.63982 0.0
C1297 C 0.60521 0.00496 0.69424 0.0
C1298 C 0.59707 0.00592 0.67353 0.0
C1299 C 0.5697 0.00874 0.61506 0.0
C1300 C 0.57967 0.00784 0.63503 0.0
H1301 H 0.60353 0.02333 0.74054 0.0
H1302 H 0.58996 0.0226 0.70744 0.0
H1303 H 0.59493 0.97655 0.66161 0.0
H1304 H 0.53572 0.98232 0.57959 0.0
H1305 H 0.55272 0.98048 0.61078 0.0
C1306 C 0.2797 0.36049 0.97967 0.0
C1307 C 0.28336 0.34912 0.99357 0.0
C1308 C 0.2765 0.35296 0.95986 0.0
C1309 C 0.26576 0.33101 0.91789 0.0
H1310 H 0.29912 0.30093 0.90684 0.0
C1311 C 0.2654 0.2915 0.84113 0.0
C1312 C 0.28187 0.29218 0.83564 0.0
C1313 C 0.26432 0.2987 0.86007 0.0
C1314 C 0.28979 0.30939 0.90965 0.0
H1315 H 0.28471 0.32062 0.99785 0.0
H1316 H 0.27865 0.30742 0.96354 0.0
H1317 H 0.29807 0.31261 0.94023 0.0
H1318 H 0.31011 0.30119 0.84578 0.0
H1319 H 0.3082 0.31372 0.87877 0.0
H1320 H 0.25778 0.32799 0.8871 0.0
C1321 C 0.27882 0.32224 0.96777 0.0
C1322 C 0.289 0.31588 0.92881 0.0
C1323 C 0.28215 0.32977 0.98743 0.0
C1324 C 0.29722 0.30033 0.84951 0.0
C1325 C 0.29612 0.30746 0.86845 0.0
C1326 C 0.2665 0.3244 0.89862 0.0
C1327 C 0.27682 0.33394 0.95376 0.0
C1328 C 0.27699 0.32674 0.93319 0.0
C1329 C 0.27967 0.30665 0.87397 0.0
C1330 C 0.2786 0.3136 0.89432 0.0
H1331 H 0.28064 0.37548 0.98403 0.0
H1332 H 0.27498 0.36233 0.94941 0.0
H1333 H 0.25637 0.33934 0.92081 0.0
H1334 H 0.25329 0.28534 0.83084 0.0
H1335 H 0.25145 0.2977 0.86392 0.0
C1336 C 0.98411 0.00852 0.32205 0.0
C1337 C 0.96803 0.0126 0.31475 0.0
C1338 C 0.99083 0.01239 0.34189 0.0
C1339 C 0.00566 0.02865 0.38433 0.0
H1340 H 0.97229 0.00946 0.4161 0.0
C1341 C 0.02512 0.03139 0.46717 0.0
C1342 C 0.01867 0.01454 0.47404 0.0
C1343 C 0.01904 0.03349 0.44816 0.0
C1344 C 0.98176 0.0149 0.40741 0.0
H1345 H 0.94677 0.0247 0.32251 0.0
H1346 H 0.95851 0.03135 0.35736 0.0
H1347 H 0.96187 0.01013 0.38202 0.0
H1348 H 1.00073 0.98665 0.46621 0.0
H1349 H 0.99021 0.99034 0.43314 0.0
H1350 H 0.02561 0.03286 0.40961 0.0
C1351 C 0.96585 0.02509 0.34763 0.0
C1352 C 0.97577 0.0155 0.38796 0.0
C1353 C 0.95919 0.02139 0.32769 0.0
C1354 C 0.00603 0.99983 0.46144 0.0
C1355 C 0.99986 1.00199 0.44251 0.0
C1356 C 0.01164 0.02818 0.40383 0.0
C1357 C 0.98158 0.0203 0.35495 0.0
C1358 C 0.9877 0.02201 0.37611 0.0
C1359 C 0.00627 0.01885 0.43568 0.0
C1360 C 0.99979 0.02092 0.41546 0.0
H1361 H 0.9913 1.00183 0.31246 0.0
H1362 H 1.00289 0.00837 0.34707 0.0
H1363 H 0.01514 0.03387 0.37557 0.0
H1364 H 0.03483 0.04302 0.47643 0.0
H1365 H 0.02416 0.04669 0.44332 0.0
C1366 C 0.32529 0.73834 0.55963 0.0
C1367 C 0.33658 0.72659 0.55522 0.0
C1368 C 0.31945 0.73905 0.57722 0.0
C1369 C 0.33283 0.73428 0.62698 0.0
H1370 H 0.28543 0.73898 0.63056 0.0
C1371 C 0.31698 0.7805 0.68967 0.0
C1372 C 0.30157 0.77427 0.69685 0.0
C1373 C 0.32055 0.76976 0.6737 0.0
C1374 C 0.29861 0.73731 0.62985 0.0
H1375 H 0.35072 0.70654 0.5658 0.0
H1376 H 0.34067 0.70805 0.59691 0.0
H1377 H 0.29231 0.72835 0.5991 0.0
H1378 H 0.27784 0.75198 0.69332 0.0
H1379 H 0.28395 0.73321 0.66489 0.0
H1380 H 0.33931 0.744 0.65759 0.0
C1381 C 0.33623 0.71649 0.58657 0.0
C1382 C 0.30258 0.73141 0.61184 0.0
C1383 C 0.34195 0.71563 0.56882 0.0
C1384 C 0.28981 0.75703 0.68794 0.0
C1385 C 0.29329 0.74634 0.67176 0.0
C1386 C 0.32888 0.74026 0.64496 0.0
C1387 C 0.32492 0.72822 0.5909 0.0
C1388 C 0.31988 0.73056 0.61017 0.0
C1389 C 0.30869 0.75267 0.66448 0.0
C1390 C 0.31191 0.74254 0.64642 0.0
H1391 H 0.32081 0.7469 0.54943 0.0
H1392 H 0.31099 0.74849 0.58033 0.0
H1393 H 0.34628 0.73377 0.6261 0.0
H1394 H 0.32629 0.79371 0.69638 0.0
H1395 H 0.33236 0.77516 0.6682 0.0
C1396 C 0.63199 0.99894 0.85629 0.0
C1397 C 0.62751 0.0102 0.84239 0.0
C1398 C 0.62449 0.99876 0.87349 0.0
C1399 C 0.5865 0.01325 0.89483 0.0
H1400 H 0.61156 0.00737 0.94411 0.0
C1401 C 0.55143 0.01239 0.96199 0.0
C1402 C 0.56104 0.01859 0.98108 0.0
C1403 C 0.55984 0.01032 0.94585 0.0
C1404 C 0.60429 0.00925 0.93057 0.0
H1405 H 0.61125 0.03011 0.83662 0.0
H1406 H 0.59906 0.03007 0.86556 0.0
H1407 H 0.62534 0.00536 0.91537 0.0
H1408 H 0.58764 0.02729 0.99754 0.0
H1409 H 0.60231 0.02426 0.96951 0.0
H1410 H 0.56581 0.01787 0.90973 0.0
C1411 C 0.60793 0.02091 0.8634 0.0
C1412 C 0.61222 0.00781 0.91382 0.0
C1413 C 0.61525 0.02105 0.84651 0.0
C1414 C 0.57959 0.02253 0.98323 0.0
C1415 C 0.58807 0.02062 0.96696 0.0
C1416 C 0.57868 0.01479 0.91146 0.0
C1417 C 0.61217 0.00974 0.87738 0.0
C1418 C 0.60357 0.00997 0.89552 0.0
C1419 C 0.5784 0.01455 0.94776 0.0
C1420 C 0.58728 0.01285 0.92985 0.0
H1421 H 0.64138 0.99043 0.85404 0.0
H1422 H 0.62827 0.98985 0.88364 0.0
H1423 H 0.57891 0.01464 0.88128 0.0
H1424 H 0.53718 0.00889 0.95941 0.0
H1425 H 0.55152 0.00507 0.93178 0.0
C1426 C 0.29339 0.36484 0.11315 0.0
C1427 C 0.29709 0.35409 0.09705 0.0
C1428 C 0.29093 0.35683 0.12984 0.0
C1429 C 0.30028 0.31609 0.15324 0.0
H1430 H 0.26809 0.3287 0.18616 0.0
C1431 C 0.27893 0.2725 0.2119 0.0
C1432 C 0.27951 0.28292 0.23016 0.0
C1433 C 0.28153 0.28182 0.19612 0.0
C1434 C 0.27721 0.32515 0.17713 0.0
H1435 H 0.29992 0.32627 0.08524 0.0
H1436 H 0.29484 0.31218 0.11357 0.0
H1437 H 0.27098 0.34382 0.15758 0.0
H1438 H 0.2834 0.31125 0.24634 0.0
H1439 H 0.28762 0.32746 0.21871 0.0
H1440 H 0.30608 0.29701 0.17249 0.0
C1441 C 0.29465 0.32699 0.11395 0.0
C1442 C 0.27894 0.33387 0.16079 0.0
C1443 C 0.2974 0.33503 0.09756 0.0
C1444 C 0.2829 0.30284 0.23242 0.0
C1445 C 0.28519 0.31212 0.2166 0.0
C1446 C 0.29835 0.30719 0.16935 0.0
C1447 C 0.29187 0.33786 0.13056 0.0
C1448 C 0.29039 0.32931 0.14849 0.0
C1449 C 0.28447 0.30171 0.19827 0.0
C1450 C 0.28673 0.31154 0.18141 0.0
H1451 H 0.29312 0.37959 0.11314 0.0
H1452 H 0.28886 0.3657 0.14234 0.0
H1453 H 0.30964 0.31258 0.14453 0.0
H1454 H 0.27632 0.25715 0.20976 0.0
H1455 H 0.28084 0.27344 0.18213 0.0
C1456 C 0.1772 0.87844 0.991 0.0
C1457 C 0.19367 0.88421 0.98571 0.0
C1458 C 0.16978 0.89162 1.00076 0.0
C1459 C 0.18046 0.93997 0.02958 0.0
H1460 H 0.13046 0.93558 0.01389 0.0
C1461 C 0.14439 0.99953 0.04739 0.0
C1462 C 0.12703 0.99385 0.05035 0.0
C1463 C 0.15383 0.98592 0.04289 0.0
C1464 C 0.14438 0.93683 0.0187 0.0
H1465 H 0.21528 0.90836 0.98643 0.0
H1466 H 0.20208 0.93151 0.00305 0.0
H1467 H 0.14412 0.91241 0.99849 0.0
H1468 H 0.10648 0.96992 0.05287 0.0
H1469 H 0.12301 0.94619 0.04528 0.0
H1470 H 0.18066 0.96481 0.04948 0.0
C1471 C 0.19507 0.91671 1.0 0.0
C1472 C 0.15222 0.92355 0.00984 0.0
C1473 C 0.20256 0.90348 0.99033 0.0
C1474 C 0.11977 0.97458 0.05032 0.0
C1475 C 0.12919 0.96103 0.04592 0.0
C1476 C 0.17259 0.95336 0.03841 0.0
C1477 C 0.17859 0.91092 0.00532 0.0
C1478 C 0.17035 0.92496 0.01513 0.0
C1479 C 0.14602 0.96649 0.04137 0.0
C1480 C 0.15447 0.9519 0.03303 0.0
H1481 H 0.1701 0.86367 0.98784 0.0
H1482 H 0.15719 0.88665 0.00491 0.0
H1483 H 0.19443 0.94131 0.03414 0.0
H1484 H 0.15022 0.01432 0.04727 0.0
H1485 H 0.16676 0.99052 0.03939 0.0
C1486 C 0.69761 0.61973 0.02033 0.0
C1487 C 0.70972 0.61615 0.00854 0.0
C1488 C 0.68323 0.60542 0.02155 0.0
C1489 C 0.65202 0.56391 0.99499 0.0
H1490 H 0.64271 0.55402 0.04536 0.0
C1491 C 0.58771 0.5124 0.00333 0.0
C1492 C 0.58017 0.5174 0.01938 0.0
C1493 C 0.60456 0.52234 1.00184 0.0
C1494 C 0.64493 0.55673 0.03117 0.0
H1495 H 0.71623 0.59468 0.98873 0.0
H1496 H 0.69041 0.56954 0.99034 0.0
H1497 H 0.67038 0.57505 0.04292 0.0
H1498 H 0.58444 0.53645 0.04663 0.0
H1499 H 0.61328 0.55437 0.04367 0.0
H1500 H 0.62621 0.54659 0.98323 0.0
C1501 C 0.69238 0.5835 0.99883 0.0
C1502 C 0.66091 0.56863 0.02979 0.0
C1503 C 0.70713 0.59781 0.99797 0.0
C1504 C 0.58984 0.53239 0.03398 0.0
C1505 C 0.60654 0.5425 0.03238 0.0
C1506 C 0.63586 0.55224 0.99637 0.0
C1507 C 0.68036 0.58722 0.01073 0.0
C1508 C 0.66449 0.57258 0.01174 0.0
C1509 C 0.61419 0.53763 0.0163 0.0
C1510 C 0.63194 0.54876 0.01454 0.0
H1511 H 0.69928 0.63367 0.02876 0.0
H1512 H 0.67411 0.60871 0.03071 0.0
H1513 H 0.6544 0.56691 0.98091 0.0
H1514 H 0.5806 0.50078 0.99191 0.0
H1515 H 0.61004 0.51791 0.9894 0.0
C1516 C 0.65693 0.46004 0.28898 0.0
C1517 C 0.66326 0.47895 0.29844 0.0
C1518 C 0.66792 0.44739 0.28921 0.0
C1519 C 0.71515 0.44607 0.29816 0.0
H1520 H 0.69638 0.39325 0.30128 0.0
C1521 C 0.7597 0.39416 0.31073 0.0
C1522 C 0.75463 0.37637 0.29855 0.0
C1523 C 0.7483 0.40634 0.3111 0.0
C1524 C 0.70176 0.40793 0.30026 0.0
H1525 H 0.68609 0.49933 0.31579 0.0
H1526 H 0.70514 0.47718 0.31661 0.0
H1527 H 0.67712 0.41526 0.3014 0.0
H1528 H 0.73332 0.3574 0.27741 0.0
H1529 H 0.71327 0.37854 0.27841 0.0
H1530 H 0.73985 0.43873 0.29732 0.0
C1531 C 0.69178 0.47219 0.30861 0.0
C1532 C 0.69073 0.42056 0.30027 0.0
C1533 C 0.68082 0.48489 0.30825 0.0
C1534 C 0.73762 0.37087 0.28715 0.0
C1535 C 0.72614 0.38301 0.28766 0.0
C1536 C 0.7262 0.43348 0.29833 0.0
C1537 C 0.68551 0.45328 0.29904 0.0
C1538 C 0.69726 0.4398 0.29919 0.0
C1539 C 0.73145 0.40097 0.29946 0.0
C1540 C 0.71963 0.41428 0.29936 0.0
H1541 H 0.64349 0.45501 0.2812 0.0
H1542 H 0.66268 0.43305 0.2814 0.0
H1543 H 0.7206 0.46066 0.29691 0.0
H1544 H 0.77253 0.39873 0.32005 0.0
H1545 H 0.75264 0.41997 0.32059 0.0
C1546 C 0.7902 0.38906 0.50292 0.0
C1547 C 0.78697 0.36914 0.50038 0.0
C1548 C 0.80741 0.40021 0.50729 0.0
C1549 C 0.85215 0.3978 0.50153 0.0
H1550 H 0.86574 0.44589 0.53673 0.0
C1551 C 0.92252 0.44377 0.51423 0.0
C1552 C 0.92413 0.4632 0.51379 0.0
C1553 C 0.90646 0.43217 0.51568 0.0
C1554 C 0.86211 0.43254 0.52678 0.0
H1555 H 0.79932 0.34537 0.50108 0.0
H1556 H 0.82938 0.36489 0.50878 0.0
H1557 H 0.83625 0.42562 0.53357 0.0
H1558 H 0.91045 0.48591 0.51525 0.0
H1559 H 0.88226 0.46559 0.5175 0.0
H1560 H 0.87772 0.40483 0.49432 0.0
C1561 C 0.81857 0.37184 0.50716 0.0
C1562 C 0.84524 0.42094 0.52498 0.0
C1563 C 0.80134 0.36066 0.50282 0.0
C1564 C 0.90959 0.47099 0.51568 0.0
C1565 C 0.89346 0.45934 0.517 0.0
C1566 C 0.86896 0.4094 0.50328 0.0
C1567 C 0.82179 0.39172 0.50919 0.0
C1568 C 0.84003 0.40352 0.5122 0.0
C1569 C 0.89163 0.43972 0.51659 0.0
C1570 C 0.8741 0.42698 0.5158 0.0
H1571 H 0.77944 0.39607 0.50119 0.0
H1572 H 0.80945 0.41548 0.50855 0.0
H1573 H 0.84845 0.38464 0.4913 0.0
H1574 H 0.93362 0.43748 0.51313 0.0
H1575 H 0.9056 0.4172 0.51576 0.0
C1576 C 0.38243 0.11216 0.27049 0.0
C1577 C 0.37165 0.09353 0.26763 0.0
C1578 C 0.37512 0.12851 0.27117 0.0
C1579 C 0.33108 0.14299 0.25906 0.0
H1580 H 0.35611 0.19158 0.2897 0.0
C1581 C 0.29508 0.20568 0.27011 0.0
C1582 C 0.30454 0.2249 0.27357 0.0
C1583 C 0.30366 0.19043 0.26926 0.0
C1584 C 0.34881 0.17825 0.28082 0.0
H1585 H 0.34425 0.07842 0.26349 0.0
H1586 H 0.33194 0.10603 0.26486 0.0
H1587 H 0.37009 0.16476 0.28842 0.0
H1588 H 0.33112 0.2424 0.27885 0.0
H1589 H 0.34592 0.2162 0.27715 0.0
H1590 H 0.30988 0.15631 0.25131 0.0
C1591 C 0.34607 0.10836 0.26623 0.0
C1592 C 0.35698 0.16261 0.28008 0.0
C1593 C 0.35331 0.0922 0.26559 0.0
C1594 C 0.32311 0.22802 0.27613 0.0
C1595 C 0.33172 0.21274 0.27528 0.0
C1596 C 0.32294 0.15857 0.25978 0.0
C1597 C 0.35666 0.12704 0.26892 0.0
C1598 C 0.34829 0.14443 0.26931 0.0
C1599 C 0.32225 0.19344 0.2718 0.0
C1600 C 0.33146 0.17667 0.2708 0.0
H1601 H 0.39657 0.11417 0.27216 0.0
H1602 H 0.38404 0.14235 0.27318 0.0
H1603 H 0.32374 0.12974 0.25007 0.0
H1604 H 0.28086 0.20231 0.2682 0.0
H1605 H 0.29551 0.17615 0.26691 0.0
C1606 C 0.31431 0.11515 0.48051 0.0
C1607 C 0.30467 0.11794 0.49534 0.0
C1608 C 0.32897 0.10728 0.4835 0.0
C1609 C 0.35041 0.07888 0.51524 0.0
H1610 H 0.39175 0.0997 0.49467 0.0
C1611 C 0.41598 0.05679 0.53505 0.0
C1612 C 0.42566 0.05392 0.52027 0.0
C1613 C 0.40151 0.06493 0.53209 0.0
C1614 C 0.38026 0.09356 0.50034 0.0
H1615 H 0.30292 0.11443 0.52497 0.0
H1616 H 0.32852 0.10082 0.53022 0.0
H1617 H 0.36591 0.11285 0.48932 0.0
H1618 H 0.42765 0.05763 0.49075 0.0
H1619 H 0.40241 0.07182 0.48556 0.0
H1620 H 0.36473 0.05956 0.52623 0.0
C1621 C 0.32464 0.10454 0.51617 0.0
C1622 C 0.3654 0.10111 0.49726 0.0
C1623 C 0.30997 0.11244 0.51319 0.0
C1624 C 0.42066 0.05981 0.50255 0.0
C1625 C 0.40615 0.06795 0.49957 0.0
C1626 C 0.36526 0.07132 0.51831 0.0
C1627 C 0.33441 0.10196 0.50141 0.0
C1628 C 0.35026 0.09388 0.50468 0.0
C1629 C 0.39626 0.07046 0.51424 0.0
C1630 C 0.38042 0.07856 0.51092 0.0
H1631 H 0.31061 0.11915 0.46655 0.0
H1632 H 0.33597 0.10525 0.47169 0.0
H1633 H 0.33892 0.07273 0.52091 0.0
H1634 H 0.41962 0.05278 0.54902 0.0
H1635 H 0.39448 0.06699 0.54388 0.0
C1636 C 0.66634 0.60004 0.28853 0.0
C1637 C 0.67005 0.58649 0.29986 0.0
C1638 C 0.67933 0.61604 0.28792 0.0
C1639 C 0.72774 0.63719 0.30044 0.0
H1640 H 0.71229 0.68338 0.29444 0.0
C1641 C 0.77306 0.71357 0.30788 0.0
C1642 C 0.77013 0.72185 0.29122 0.0
C1643 C 0.76174 0.6966 0.30968 0.0
C1644 C 0.71675 0.67056 0.29612 0.0
H1645 H 0.69035 0.5789 0.31925 0.0
H1646 H 0.71302 0.6074 0.31893 0.0
H1647 H 0.69095 0.65482 0.29683 0.0
H1648 H 0.75369 0.71841 0.263 0.0
H1649 H 0.73337 0.68935 0.26663 0.0
H1650 H 0.75377 0.65354 0.30041 0.0
C1651 C 0.70016 0.60542 0.31008 0.0
C1652 C 0.70453 0.6541 0.29731 0.0
C1653 C 0.68717 0.58911 0.31035 0.0
C1654 C 0.75593 0.71269 0.27626 0.0
C1655 C 0.74441 0.696 0.27824 0.0
C1656 C 0.74005 0.65384 0.29965 0.0
C1657 C 0.69633 0.61923 0.29901 0.0
C1658 C 0.70975 0.63704 0.29907 0.0
C1659 C 0.74719 0.68786 0.29498 0.0
C1660 C 0.73457 0.67054 0.29715 0.0
H1661 H 0.65333 0.59824 0.28003 0.0
H1662 H 0.67596 0.62591 0.27868 0.0
H1663 H 0.73229 0.62436 0.30161 0.0
H1664 H 0.78402 0.72027 0.31956 0.0
H1665 H 0.76409 0.69053 0.32271 0.0
C1666 C 0.86874 0.47822 0.74508 0.0
C1667 C 0.8745 0.49177 0.76215 0.0
C1668 C 0.85887 0.45973 0.7452 0.0
C1669 C 0.83488 0.42843 0.77655 0.0
H1670 H 0.84365 0.3879 0.74121 0.0
C1671 C 0.81319 0.34851 0.78503 0.0
C1672 C 0.80725 0.33444 0.7683 0.0
C1673 C 0.82038 0.36763 0.78383 0.0
C1674 C 0.8408 0.39895 0.75108 0.0
H1675 H 0.87447 0.49605 0.79289 0.0
H1676 H 0.85731 0.46409 0.79327 0.0
H1677 H 0.85713 0.42078 0.73993 0.0
H1678 H 0.80441 0.33006 0.73704 0.0
H1679 H 0.81691 0.36322 0.73494 0.0
H1680 H 0.81881 0.40646 0.78792 0.0
C1681 C 0.85988 0.46777 0.7795 0.0
C1682 C 0.84857 0.41805 0.75031 0.0
C1683 C 0.86966 0.48633 0.77931 0.0
C1684 C 0.80881 0.3403 0.7503 0.0
C1685 C 0.81612 0.35944 0.74911 0.0
C1686 C 0.8272 0.40931 0.77739 0.0
C1687 C 0.85468 0.45386 0.76253 0.0
C1688 C 0.84582 0.43327 0.76304 0.0
C1689 C 0.82204 0.37353 0.76587 0.0
C1690 C 0.83003 0.39415 0.7647 0.0
H1691 H 0.87269 0.48163 0.73171 0.0
H1692 H 0.85496 0.44988 0.73166 0.0
H1693 H 0.83203 0.43944 0.78647 0.0
H1694 H 0.81232 0.34478 0.79921 0.0
H1695 H 0.82492 0.37777 0.79715 0.0
C1696 C 0.04342 0.84826 0.11262 0.0
C1697 C 0.05941 0.84327 0.111 0.0
C1698 C 0.04011 0.86488 0.10651 0.0
C1699 C 0.06227 0.91145 0.09666 0.0
H1700 H 0.019 0.90796 0.061 0.0
C1701 C 0.05305 0.972 0.05419 0.0
C1702 C 0.03628 0.97581 0.05087 0.0
C1703 C 0.05554 0.95596 0.06207 0.0
C1704 C 0.03104 0.90932 0.07118 0.0
H1705 H 0.08465 0.85212 0.10229 0.0
H1706 H 0.07898 0.88102 0.092 0.0
H1707 H 0.02362 0.88026 0.07501 0.0
H1708 H 0.00898 0.96579 0.05339 0.0
H1709 H 0.01338 0.93825 0.06754 0.0
H1710 H 0.06971 0.94049 0.09309 0.0
C1711 C 0.06897 0.87213 0.09787 0.0
C1712 C 0.03367 0.89341 0.0792 0.0
C1713 C 0.07216 0.85547 0.10367 0.0
C1714 C 0.02206 0.9632 0.05557 0.0
C1715 C 0.02457 0.94731 0.06363 0.0
C1716 C 0.05958 0.92742 0.08883 0.0
C1717 C 0.05287 0.87695 0.09904 0.0
C1718 C 0.0494 0.89424 0.09184 0.0
C1719 C 0.04135 0.94345 0.06703 0.0
C1720 C 0.04401 0.92654 0.07579 0.0
H1721 H 0.03333 0.83913 0.11818 0.0
H1722 H 0.02761 0.86831 0.10765 0.0
H1723 H 0.07446 0.91257 0.10653 0.0
H1724 H 0.06427 0.98136 0.05065 0.0
H1725 H 0.0686 0.95332 0.06411 0.0
C1726 C 0.94435 0.26679 0.87894 0.0
C1727 C 0.95588 0.25512 0.8753 0.0
C1728 C 0.93054 0.2675 0.86455 0.0
C1729 C 0.89949 0.23962 0.8235 0.0
H1730 H 0.89063 0.28819 0.81433 0.0
C1731 C 0.83552 0.24626 0.77484 0.0
C1732 C 0.82822 0.26124 0.78149 0.0
C1733 C 0.85218 0.24504 0.78388 0.0
C1734 C 0.8928 0.27449 0.81682 0.0
H1735 H 0.96211 0.23511 0.85366 0.0
H1736 H 0.93727 0.23589 0.82833 0.0
H1737 H 0.91838 0.28707 0.83392 0.0
H1738 H 0.83254 0.28664 0.80278 0.0
H1739 H 0.86115 0.28421 0.81896 0.0
H1740 H 0.87353 0.22707 0.80728 0.0
C1741 C 0.93924 0.24466 0.84239 0.0
C1742 C 0.90878 0.27387 0.82788 0.0
C1743 C 0.95344 0.24428 0.85678 0.0
C1744 C 0.83777 0.27486 0.79742 0.0
C1745 C 0.85432 0.27359 0.80652 0.0
C1746 C 0.88336 0.24024 0.81257 0.0
C1747 C 0.92768 0.2563 0.84622 0.0
C1748 C 0.91212 0.25649 0.83173 0.0
C1749 C 0.86185 0.25878 0.79978 0.0
C1750 C 0.87963 0.25775 0.80954 0.0
H1751 H 0.94596 0.27538 0.89305 0.0
H1752 H 0.92175 0.27646 0.86796 0.0
H1753 H 0.9017 0.22605 0.82641 0.0
H1754 H 0.82845 0.23559 0.76252 0.0
H1755 H 0.8576 0.23353 0.7782 0.0
C1756 C 0.56213 0.23056 0.5905 0.0
C1757 C 0.55282 0.23828 0.60367 0.0
C1758 C 0.5581 0.21112 0.58374 0.0
C1759 C 0.52555 0.16703 0.57348 0.0
H1760 H 0.56559 0.14464 0.58357 0.0
C1761 C 0.52091 0.08635 0.55209 0.0
C1762 C 0.53556 0.0812 0.54583 0.0
C1763 C 0.52168 0.10526 0.5595 0.0
C1764 C 0.55431 0.15065 0.58038 0.0
H1765 H 0.53127 0.23165 0.6192 0.0
H1766 H 0.52396 0.19731 0.60688 0.0
H1767 H 0.56864 0.17809 0.59561 0.0
H1768 H 0.56222 0.092 0.54165 0.0
H1769 H 0.56339 0.12493 0.55389 0.0
H1770 H 0.51138 0.13977 0.55752 0.0
C1771 C 0.53452 0.20655 0.6021 0.0
C1772 C 0.55604 0.16978 0.58745 0.0
C1773 C 0.53871 0.22613 0.60913 0.0
C1774 C 0.55078 0.09543 0.54658 0.0
C1775 C 0.55148 0.11433 0.55375 0.0
C1776 C 0.52385 0.14786 0.56613 0.0
C1777 C 0.54452 0.1989 0.58975 0.0
C1778 C 0.54178 0.1782 0.58382 0.0
C1779 C 0.53707 0.11947 0.56063 0.0
C1780 C 0.53833 0.13952 0.56922 0.0
H1781 H 0.57299 0.23943 0.58583 0.0
H1782 H 0.56585 0.20556 0.57405 0.0
H1783 H 0.51441 0.17331 0.57045 0.0
H1784 H 0.50897 0.07571 0.55175 0.0
H1785 H 0.51038 0.10863 0.56479 0.0
C1786 C 0.5633 0.78329 0.37635 0.0
C1787 C 0.55294 0.76677 0.38074 0.0
C1788 C 0.57793 0.78251 0.36762 0.0
C1789 C 0.59787 0.74943 0.33903 0.0
H1790 H 0.64031 0.78974 0.35571 0.0
C1791 C 0.6556 0.75673 0.29706 0.0
C1792 C 0.67289 0.76194 0.30778 0.0
C1793 C 0.64117 0.75721 0.30621 0.0
C1794 C 0.62863 0.77828 0.35097 0.0
H1795 H 0.54991 0.73641 0.37923 0.0
H1796 H 0.57546 0.73505 0.36408 0.0
H1797 H 0.61491 0.7905 0.37123 0.0
H1798 H 0.68841 0.77174 0.33669 0.0
H1799 H 0.66323 0.77264 0.35265 0.0
H1800 H 0.61166 0.73707 0.31895 0.0
C1801 C 0.57216 0.74862 0.36723 0.0
C1802 C 0.61396 0.77883 0.35972 0.0
C1803 C 0.55753 0.74941 0.376 0.0
C1804 C 0.67533 0.76784 0.32792 0.0
C1805 C 0.66087 0.76835 0.33708 0.0
C1806 C 0.61252 0.7489 0.33024 0.0
C1807 C 0.58262 0.76518 0.363 0.0
C1808 C 0.59835 0.76444 0.35384 0.0
C1809 C 0.64358 0.76296 0.32635 0.0
C1810 C 0.62809 0.76335 0.33603 0.0
H1811 H 0.56017 0.79692 0.37973 0.0
H1812 H 0.58548 0.79551 0.36432 0.0
H1813 H 0.58606 0.73818 0.33399 0.0
H1814 H 0.65318 0.75249 0.28149 0.0
H1815 H 0.6281 0.75333 0.2974 0.0
C1816 C 0.06154 0.23481 0.43129 0.0
C1817 C 0.04897 0.23859 0.44239 0.0
C1818 C 0.07271 0.22326 0.43706 0.0
C1819 C 0.0818 0.18594 0.44577 0.0
H1820 H 0.09769 0.18659 0.50042 0.0
C1821 C 0.07393 0.12005 0.47988 0.0
C1822 C 0.08414 0.11993 0.49787 0.0
C1823 C 0.07753 0.1356 0.47041 0.0
C1824 C 0.09388 0.18632 0.48503 0.0
H1825 H 0.03876 0.23392 0.46856 0.0
H1826 H 0.05808 0.21389 0.47852 0.0
H1827 H 0.08942 0.21423 0.48984 0.0
H1828 H 0.10736 0.13498 0.51895 0.0
H1829 H 0.11369 0.16226 0.50235 0.0
H1830 H 0.08549 0.15765 0.44106 0.0
C1831 C 0.05945 0.21989 0.46547 0.0
C1832 C 0.08895 0.20214 0.47901 0.0
C1833 C 0.04821 0.23119 0.45963 0.0
C1834 C 0.09903 0.13489 0.5053 0.0
C1835 C 0.10268 0.15047 0.49577 0.0
C1836 C 0.08683 0.1701 0.45179 0.0
C1837 C 0.07167 0.2156 0.45415 0.0
C1838 C 0.08183 0.20163 0.4595 0.0
C1839 C 0.09144 0.1514 0.47871 0.0
C1840 C 0.09186 0.1697 0.47162 0.0
H1841 H 0.06244 0.24037 0.41794 0.0
H1842 H 0.08199 0.22012 0.42806 0.0
H1843 H 0.07646 0.18519 0.43061 0.0
H1844 H 0.06228 0.10884 0.47381 0.0
H1845 H 0.06843 0.13585 0.45744 0.0
C1846 C 0.61001 0.26931 0.21827 0.0
C1847 C 0.60265 0.2548 0.22794 0.0
C1848 C 0.62823 0.2752 0.21993 0.0
C1849 C 0.66718 0.25587 0.22966 0.0
H1850 H 0.69298 0.30701 0.22852 0.0
C1851 C 0.73884 0.26929 0.22043 0.0
C1852 C 0.75033 0.28396 0.23419 0.0
C1853 C 0.72073 0.26799 0.21734 0.0
C1854 C 0.68595 0.29266 0.22884 0.0
H1855 H 0.60869 0.23632 0.24829 0.0
H1856 H 0.64052 0.24694 0.25154 0.0
H1857 H 0.66187 0.30106 0.231 0.0
H1858 H 0.75197 0.30993 0.25388 0.0
H1859 H 0.72053 0.30743 0.24876 0.0
H1860 H 0.69123 0.24748 0.22809 0.0
C1861 C 0.63216 0.25335 0.24221 0.0
C1862 C 0.66812 0.28924 0.23018 0.0
C1863 C 0.61393 0.24738 0.24049 0.0
C1864 C 0.74351 0.29832 0.2433 0.0
C1865 C 0.72541 0.29693 0.24031 0.0
C1866 C 0.68495 0.25928 0.22836 0.0
C1867 C 0.63948 0.26679 0.23137 0.0
C1868 C 0.65856 0.2708 0.23069 0.0
C1869 C 0.71376 0.28127 0.22798 0.0
C1870 C 0.69456 0.2777 0.22794 0.0
H1871 H 0.60171 0.27541 0.20853 0.0
H1872 H 0.63342 0.28555 0.21134 0.0
H1873 H 0.66015 0.24143 0.22964 0.0
H1874 H 0.74365 0.25809 0.21301 0.0
H1875 H 0.7121 0.25602 0.20733 0.0
C1876 C 0.51373 0.83831 0.93113 0.0
C1877 C 0.49791 0.82422 0.92704 0.0
C1878 C 0.51531 0.85521 0.94369 0.0
C1879 C 0.4955 0.878 0.98167 0.0
H1880 H 0.51728 0.92413 0.96456 0.0
C1881 C 0.50809 0.96513 0.99998 0.0
C1882 C 0.51512 0.96839 0.01985 0.0
C1883 C 0.50346 0.94678 0.98943 0.0
C1884 C 0.51097 0.9114 0.96945 0.0
H1885 H 0.47154 0.8166 0.93344 0.0
H1886 H 0.47433 0.84619 0.95515 0.0
H1887 H 0.51519 0.89355 0.94514 0.0
H1888 H 0.52156 0.95496 0.04463 0.0
H1889 H 0.51373 0.92279 0.02611 0.0
H1890 H 0.49112 0.89604 0.00593 0.0
C1891 C 0.48552 0.84409 0.94879 0.0
C1892 C 0.51003 0.89386 0.95846 0.0
C1893 C 0.48393 0.82719 0.93624 0.0
C1894 C 0.5162 0.95283 0.0293 0.0
C1895 C 0.51168 0.93441 0.01869 0.0
C1896 C 0.49647 0.89562 0.99272 0.0
C1897 C 0.50114 0.85841 0.95241 0.0
C1898 C 0.50233 0.87696 0.96445 0.0
C1899 C 0.50593 0.93132 0.99851 0.0
C1900 C 0.50418 0.91251 0.98668 0.0
H1901 H 0.52477 0.83643 0.92441 0.0
H1902 H 0.52763 0.86588 0.94644 0.0
H1903 H 0.48958 0.8652 0.9867 0.0
H1904 H 0.50705 0.97684 0.99233 0.0
H1905 H 0.49866 0.94479 0.97398 0.0
C1906 C 1.00244 0.75441 0.73151 0.0
C1907 C 1.00244 0.73507 0.72814 0.0
C1908 C 0.98983 0.76052 0.74081 0.0
C1909 C 0.95595 0.74546 0.7704 0.0
H1910 H 0.93797 0.78656 0.75193 0.0
C1911 C 0.89164 0.76638 0.78504 0.0
C1912 C 0.89269 0.78594 0.78979 0.0
C1913 C 0.90616 0.76002 0.78031 0.0
C1914 C 0.94303 0.77522 0.75738 0.0
H1915 H 0.98935 0.70693 0.7319 0.0
H1916 H 0.96678 0.71749 0.74746 0.0
H1917 H 0.96058 0.77541 0.73733 0.0
H1918 H 0.91019 0.81401 0.79473 0.0
H1919 H 0.93536 0.80286 0.78592 0.0
H1920 H 0.93761 0.74491 0.7899 0.0
C1921 C 0.97682 0.72803 0.7434 0.0
C1922 C 0.95603 0.76885 0.74907 0.0
C1923 C 0.98966 0.72194 0.73437 0.0
C1924 C 0.90883 0.7989 0.79071 0.0
C1925 C 0.92325 0.79255 0.78577 0.0
C1926 C 0.94269 0.75169 0.77851 0.0
C1927 C 0.9767 0.7474 0.74662 0.0
C1928 C 0.96275 0.75396 0.75554 0.0
C1929 C 0.92188 0.7731 0.78007 0.0
C1930 C 0.93622 0.76669 0.77212 0.0
H1931 H 0.0123 0.76491 0.72713 0.0
H1932 H 0.99045 0.77559 0.74348 0.0
H1933 H 0.96096 0.73413 0.77589 0.0
H1934 H 0.87936 0.75602 0.78397 0.0
H1935 H 0.90478 0.74496 0.77582 0.0
C1936 C 0.10836 0.04839 0.86923 0.0
C1937 C 0.11297 0.03433 0.85696 0.0
C1938 C 0.10171 0.0442 0.88569 0.0
C1939 C 0.09561 0.00862 0.91871 0.0
H1940 H 0.05905 0.03391 0.9302 0.0
C1941 C 0.04761 0.99475 0.97479 0.0
C1942 C 0.04848 0.01138 0.9877 0.0
C1943 C 0.05709 0.99549 0.95959 0.0
C1944 C 0.06925 0.02675 0.92714 0.0
H1945 H 0.11476 0.00498 0.8526 0.0
H1946 H 0.10247 0.99738 0.88116 0.0
H1947 H 0.07198 0.03901 0.90176 0.0
H1948 H 0.0606 0.04152 0.9955 0.0
H1949 H 0.07678 0.04279 0.96888 0.0
H1950 H 0.09226 0.996 0.94414 0.0
C1951 C 0.10432 0.01177 0.87823 0.0
C1952 C 0.07679 0.02978 0.91095 0.0
C1953 C 0.11131 0.01609 0.86184 0.0
C1954 C 0.05966 0.02848 0.98579 0.0
C1955 C 0.0689 0.02924 0.97056 0.0
C1956 C 0.0878 0.00535 0.93485 0.0
C1957 C 0.0991 0.02572 0.89013 0.0
C1958 C 0.09038 0.02115 0.90674 0.0
C1959 C 0.06735 0.01289 0.95706 0.0
C1960 C 0.07482 0.01473 0.93934 0.0
H1961 H 0.10979 0.06267 0.86604 0.0
H1962 H 0.09844 0.05549 0.89484 0.0
H1963 H 0.10606 1.00177 0.91594 0.0
H1964 H 0.03913 0.98139 0.97601 0.0
H1965 H 0.05568 0.98273 0.94925 0.0
C1966 C 0.69961 0.33765 0.53375 0.0
C1967 C 0.70718 0.32367 0.52521 0.0
C1968 C 0.69365 0.33602 0.55119 0.0
C1969 C 0.70073 0.33707 0.59462 0.0
H1970 H 0.68595 0.28877 0.61142 0.0
C1971 C 0.73537 0.31794 0.66168 0.0
C1972 C 0.727 0.30334 0.67053 0.0
C1973 C 0.7259 0.32413 0.64655 0.0
C1974 C 0.68963 0.30254 0.60711 0.0
H1975 H 0.71288 0.29619 0.52728 0.0
H1976 H 0.7028 0.29348 0.55767 0.0
H1977 H 0.68013 0.29072 0.57718 0.0
H1978 H 0.70179 0.2854 0.67213 0.0
H1979 H 0.6852 0.29622 0.64556 0.0
H1980 H 0.71094 0.3487 0.62448 0.0
C1981 C 0.70131 0.30566 0.55095 0.0
C1982 C 0.68646 0.30358 0.5874 0.0
C1983 C 0.70728 0.3073 0.53357 0.0
C1984 C 0.70865 0.29637 0.66524 0.0
C1985 C 0.69915 0.30259 0.65008 0.0
C1986 C 0.70378 0.33605 0.61434 0.0
C1987 C 0.69509 0.32036 0.56037 0.0
C1988 C 0.69304 0.32057 0.58087 0.0
C1989 C 0.70785 0.31587 0.63995 0.0
C1990 C 0.69934 0.3185 0.62065 0.0
H1991 H 0.69916 0.35036 0.52755 0.0
H1992 H 0.68872 0.34746 0.55797 0.0
H1993 H 0.70591 0.35043 0.59013 0.0
H1994 H 0.74949 0.32354 0.66535 0.0
H1995 H 0.73312 0.33422 0.63899 0.0
C1996 C 0.46302 0.04654 0.32772 0.0
C1997 C 0.44544 0.04814 0.32367 0.0
C1998 C 0.47127 0.04555 0.34651 0.0
C1999 C 0.4672 0.05069 0.39977 0.0
H2000 H 0.50158 0.02003 0.40151 0.0
C2001 C 0.50178 0.03099 0.47289 0.0
C2002 C 0.51979 0.03105 0.47443 0.0
C2003 C 0.49171 0.03319 0.45526 0.0
C2004 C 0.49218 0.02884 0.4015 0.0
H2005 H 0.42294 0.05028 0.33703 0.0
H2006 H 0.43722 0.04843 0.3699 0.0
H2007 H 0.48652 0.02418 0.37053 0.0
H2008 H 0.54107 0.03362 0.45825 0.0
H2009 H 0.52388 0.03718 0.4281 0.0
H2010 H 0.47286 0.05492 0.43105 0.0
C2011 C 0.44483 0.04824 0.35844 0.0
C2012 C 0.48346 0.03135 0.38347 0.0
C2013 C 0.43658 0.04945 0.33948 0.0
C2014 C 0.52727 0.03332 0.45778 0.0
C2015 C 0.51728 0.0353 0.44027 0.0
C2016 C 0.47591 0.04804 0.41794 0.0
C2017 C 0.46225 0.04572 0.36226 0.0
C2018 C 0.47097 0.0426 0.38207 0.0
C2019 C 0.49927 0.03527 0.4385 0.0
C2020 C 0.48882 0.03729 0.41919 0.0
H2021 H 0.47038 0.04543 0.31607 0.0
H2022 H 0.48479 0.04434 0.34851 0.0
H2023 H 0.4578 0.05949 0.39969 0.0
H2024 H 0.49551 0.02946 0.48535 0.0
H2025 H 0.47793 0.03301 0.45469 0.0
C2026 C 0.78489 0.67623 0.0756 0.0
C2027 C 0.77808 0.68731 0.06299 0.0
C2028 C 0.79024 0.68338 0.09545 0.0
C2029 C 0.7839 0.69676 0.13601 0.0
H2030 H 0.80721 0.74931 0.15697 0.0
C2031 C 0.7722 0.73528 0.20715 0.0
C2032 C 0.78674 0.74735 0.22 0.0
C2033 C 0.77401 0.72727 0.18878 0.0
C2034 C 0.80087 0.73454 0.15141 0.0
H2035 H 0.77284 0.71498 0.06089 0.0
H2036 H 0.78234 0.72745 0.09526 0.0
H2037 H 0.80714 0.73672 0.12328 0.0
H2038 H 0.8146 0.76058 0.22354 0.0
H2039 H 0.81765 0.7467 0.19136 0.0
H2040 H 0.77718 0.69472 0.16396 0.0
C2041 C 0.78349 0.71327 0.08999 0.0
C2042 C 0.80076 0.72736 0.13211 0.0
C2043 C 0.77794 0.70607 0.0703 0.0
C2044 C 0.80311 0.75134 0.214 0.0
C2045 C 0.80488 0.74344 0.19555 0.0
C2046 C 0.7839 0.70397 0.15526 0.0
C2047 C 0.78915 0.70181 0.10289 0.0
C2048 C 0.79192 0.70852 0.12407 0.0
C2049 C 0.79036 0.73125 0.18278 0.0
C2050 C 0.79202 0.72306 0.16303 0.0
H2051 H 0.7851 0.66171 0.07035 0.0
H2052 H 0.79467 0.67429 0.10507 0.0
H2053 H 0.77683 0.68224 0.1302 0.0
H2054 H 0.75942 0.73187 0.21129 0.0
H2055 H 0.76251 0.71817 0.17914 0.0
C2056 C 0.08342 0.01921 0.74527 0.0
C2057 C 0.10057 0.01764 0.75214 0.0
C2058 C 0.07604 0.01394 0.72564 0.0
C2059 C 0.07152 0.01925 0.68408 0.0
H2060 H 0.07858 0.97817 0.64797 0.0
C2061 C 0.06366 0.02191 0.60318 0.0
C2062 C 0.05393 0.00555 0.59023 0.0
C2063 C 0.06887 0.02117 0.6227 0.0
C2064 C 0.07639 0.98961 0.65792 0.0
H2065 H 0.12296 0.00799 0.74403 0.0
H2066 H 0.1102 0.99916 0.70954 0.0
H2067 H 0.08737 0.97933 0.68291 0.0
H2068 H 0.04262 0.97534 0.58763 0.0
H2069 H 0.05175 0.97412 0.62194 0.0
H2070 H 0.06063 0.0296 0.65932 0.0
C2071 C 0.10238 1.00428 0.7194 0.0
C2072 C 0.08153 0.99035 0.67789 0.0
C2073 C 0.10971 0.00939 0.73916 0.0
C2074 C 0.05004 0.98824 0.59721 0.0
C2075 C 0.05532 0.9875 0.61684 0.0
C2076 C 0.06647 0.01854 0.66424 0.0
C2077 C 0.08572 0.0072 0.71234 0.0
C2078 C 0.07925 0.00529 0.69118 0.0
C2079 C 0.06451 1.00406 0.62983 0.0
C2080 C 0.06906 1.00389 0.65091 0.0
H2081 H 0.07592 0.02523 0.75497 0.0
H2082 H 0.06299 0.01589 0.72075 0.0
H2083 H 0.06981 0.03113 0.69383 0.0
H2084 H 0.06707 0.03546 0.59835 0.0
H2085 H 0.07626 0.03409 0.63228 0.0
C2086 C 0.7167 0.30379 0.41516 0.0
C2087 C 0.71826 0.32244 0.42431 0.0
C2088 C 0.71567 0.29974 0.3952 0.0
C2089 C 0.71187 0.29345 0.35173 0.0
H2090 H 0.75214 0.32714 0.33937 0.0
C2091 C 0.74473 0.27224 0.28745 0.0
C2092 C 0.76282 0.27392 0.2935 0.0
C2093 C 0.73528 0.28109 0.29943 0.0
C2094 C 0.74069 0.31774 0.34248 0.0
H2095 H 0.71833 0.35117 0.41955 0.0
H2096 H 0.71669 0.34408 0.38454 0.0
H2097 H 0.74032 0.33674 0.36788 0.0
H2098 H 0.78524 0.28589 0.31659 0.0
H2099 H 0.76884 0.3014 0.33752 0.0
H2100 H 0.71318 0.27384 0.3271 0.0
C2101 C 0.71637 0.33264 0.39288 0.0
C2102 C 0.73378 0.32331 0.35868 0.0
C2103 C 0.71725 0.33667 0.4129 0.0
C2104 C 0.77136 0.28467 0.31153 0.0
C2105 C 0.76198 0.2936 0.32343 0.0
C2106 C 0.71877 0.2879 0.33548 0.0
C2107 C 0.71629 0.31428 0.38396 0.0
C2108 C 0.7199 0.31079 0.36405 0.0
C2109 C 0.74383 0.29179 0.31757 0.0
C2110 C 0.73382 0.29959 0.33134 0.0
H2111 H 0.71725 0.29247 0.42354 0.0
H2112 H 0.71578 0.28548 0.38884 0.0
H2113 H 0.701 0.28363 0.35538 0.0
H2114 H 0.73791 0.26412 0.27348 0.0
H2115 H 0.7213 0.27947 0.29461 0.0
C2116 C 0.44421 0.05696 0.20785 0.0
C2117 C 0.43511 0.04015 0.21315 0.0
C2118 C 0.45208 0.05642 0.19097 0.0
C2119 C 0.45233 0.02408 0.14401 0.0
H2120 H 0.49781 0.05726 0.1452 0.0
C2121 C 0.48684 0.02264 0.07541 0.0
C2122 C 0.50538 0.02594 0.07816 0.0
C2123 C 0.47797 0.02509 0.09123 0.0
C2124 C 0.48514 0.04772 0.14448 0.0
H2125 H 0.42717 0.00966 0.20411 0.0
H2126 H 0.44018 0.00876 0.1752 0.0
H2127 H 0.483 0.06054 0.17295 0.0
H2128 H 0.52882 0.03466 0.1005 0.0
H2129 H 0.51359 0.03886 0.12768 0.0
H2130 H 0.45451 0.01106 0.11573 0.0
C2131 C 0.44134 0.02248 0.18378 0.0
C2132 C 0.47645 0.0498 0.16052 0.0
C2133 C 0.43379 0.02301 0.20061 0.0
C2134 C 0.5146 0.03188 0.09747 0.0
C2135 C 0.50575 0.03447 0.11325 0.0
C2136 C 0.46093 0.02212 0.12794 0.0
C2137 C 0.45094 0.03908 0.1786 0.0
C2138 C 0.4599 0.03788 0.1608 0.0
C2139 C 0.4872 0.03114 0.11058 0.0
C2140 C 0.47765 0.03374 0.12779 0.0
H2141 H 0.44593 0.07044 0.21715 0.0
H2142 H 0.45917 0.06965 0.1877 0.0
H2143 H 0.43958 0.01466 0.14317 0.0
H2144 H 0.47909 0.01813 0.06094 0.0
H2145 H 0.46376 0.0225 0.08815 0.0
C2146 C 0.75964 0.704 0.95998 0.0
C2147 C 0.76172 0.68543 0.96052 0.0
C2148 C 0.76306 0.71296 0.94428 0.0
C2149 C 0.76209 0.7043 0.89291 0.0
H2150 H 0.79171 0.75531 0.90125 0.0
C2151 C 0.77631 0.74361 0.82909 0.0
C2152 C 0.77895 0.76347 0.83195 0.0
C2153 C 0.77456 0.7337 0.84455 0.0
C2154 C 0.78315 0.74121 0.89862 0.0
H2155 H 0.76909 0.6617 0.94499 0.0
H2156 H 0.77458 0.67732 0.91696 0.0
H2157 H 0.78879 0.73851 0.92856 0.0
H2158 H 0.78116 0.78847 0.85302 0.0
H2159 H 0.77729 0.77115 0.87993 0.0
H2160 H 0.7557 0.70717 0.8632 0.0
C2161 C 0.77048 0.6849 0.92896 0.0
C2162 C 0.78165 0.73151 0.91429 0.0
C2163 C 0.76742 0.67602 0.94498 0.0
C2164 C 0.77924 0.77317 0.85045 0.0
C2165 C 0.7772 0.76322 0.8659 0.0
C2166 C 0.76333 0.71411 0.87726 0.0
C2167 C 0.76833 0.70347 0.92853 0.0
C2168 C 0.77105 0.71302 0.9116 0.0
C2169 C 0.77511 0.74334 0.86325 0.0
C2170 C 0.77381 0.73277 0.8799 0.0
H2171 H 0.75538 0.7117 0.97178 0.0
H2172 H 0.76117 0.72721 0.94427 0.0
H2173 H 0.75362 0.69015 0.89051 0.0
H2174 H 0.77613 0.73573 0.81499 0.0
H2175 H 0.77326 0.71851 0.84187 0.0
C2176 C 0.83003 0.12693 0.02183 0.0
C2177 C 0.8402 0.14471 0.03168 0.0
C2178 C 0.83782 0.1143 0.01166 0.0
C2179 C 0.8773 0.1105 0.99091 0.0
H2180 H 0.87156 0.06202 0.00878 0.0
C2181 C 0.93054 0.06845 0.99408 0.0
C2182 C 0.92592 0.04863 0.99285 0.0
C2183 C 0.91762 0.0788 0.99302 0.0
C2184 C 0.87302 0.07524 0.00315 0.0
H2185 H 0.86621 0.16368 0.03767 0.0
H2186 H 0.87973 0.14173 0.01983 0.0
H2187 H 0.85286 0.08305 0.01715 0.0
H2188 H 0.90397 0.02401 0.98828 0.0
H2189 H 0.88136 0.04203 0.98579 0.0
H2190 H 0.89778 0.10292 0.97731 0.0
C2191 C 0.86577 0.13752 0.01998 0.0
C2192 C 0.8623 0.08732 0.00802 0.0
C2193 C 0.85807 0.15001 0.03035 0.0
C2194 C 0.908 0.03927 0.98927 0.0
C2195 C 0.89504 0.04962 0.98806 0.0
C2196 C 0.88792 0.09833 0.98586 0.0
C2197 C 0.85583 0.11939 0.01091 0.0
C2198 C 0.86477 0.10533 1.00253 0.0
C2199 C 0.89972 0.06956 0.99051 0.0
C2200 C 0.88635 0.08086 0.99255 0.0
H2201 H 0.81622 0.12248 0.02258 0.0
H2202 H 0.82986 0.10041 0.00473 0.0
H2203 H 0.8793 0.12423 0.98629 0.0
H2204 H 0.94422 0.07607 0.99643 0.0
H2205 H 0.92178 0.09413 0.99516 0.0
C2206 C 0.35636 0.43691 0.05869 0.0
C2207 C 0.35212 0.41863 0.04757 0.0
C2208 C 0.37218 0.44984 0.0582 0.0
C2209 C 0.40602 0.46075 0.02826 0.0
H2210 H 0.43939 0.4803 0.07631 0.0
C2211 C 0.47977 0.48879 0.02843 0.0
C2212 C 0.48963 0.50387 0.04285 0.0
C2213 C 0.46233 0.48031 0.02919 0.0
C2214 C 0.43017 0.4753 0.06276 0.0
H2215 H 0.36065 0.39988 0.02664 0.0
H2216 H 0.38772 0.42243 0.0254 0.0
H2217 H 0.40945 0.4632 0.07707 0.0
H2218 H 0.48894 0.52208 0.06925 0.0
H2219 H 0.45836 0.50769 0.07033 0.0
H2220 H 0.42651 0.47272 0.01383 0.0
C2221 C 0.37906 0.42677 0.03465 0.0
C2222 C 0.413 0.46551 0.06324 0.0
C2223 C 0.36359 0.41382 0.03547 0.0
C2224 C 0.48167 0.51039 0.05798 0.0
C2225 C 0.46415 0.50205 0.05865 0.0
C2226 C 0.42307 0.47072 0.02777 0.0
C2227 C 0.38368 0.44482 0.04617 0.0
C2228 C 0.40089 0.45774 0.04596 0.0
C2229 C 0.45421 0.48687 0.04425 0.0
C2230 C 0.43556 0.47772 0.04498 0.0
H2231 H 0.34778 0.44095 0.06819 0.0
H2232 H 0.37546 0.4637 0.06722 0.0
H2233 H 0.39689 0.45507 0.01472 0.0
H2234 H 0.48553 0.4835 0.01654 0.0
H2235 H 0.4553 0.46843 0.01804 0.0
C2236 C 0.39028 0.55279 0.78243 0.0
C2237 C 0.3999 0.5473 0.76844 0.0
C2238 C 0.38221 0.56796 0.78085 0.0
C2239 C 0.3846 0.61101 0.75834 0.0
H2240 H 0.33694 0.60711 0.76739 0.0
C2241 C 0.34486 0.6656 0.73805 0.0
C2242 C 0.33353 0.67052 0.75028 0.0
C2243 C 0.35335 0.65102 0.74113 0.0
C2244 C 0.35036 0.60857 0.76509 0.0
H2245 H 0.40843 0.55339 0.74172 0.0
H2246 H 0.39438 0.57972 0.739 0.0
H2247 H 0.35081 0.58071 0.7712 0.0
H2248 H 0.32269 0.66437 0.77573 0.0
H2249 H 0.33766 0.6391 0.78125 0.0
H2250 H 0.38422 0.63885 0.75229 0.0
C2251 C 0.3932 0.57244 0.75129 0.0
C2252 C 0.35829 0.5934 0.76724 0.0
C2253 C 0.40116 0.55724 0.75279 0.0
C2254 C 0.33114 0.66074 0.76587 0.0
C2255 C 0.33969 0.64621 0.769 0.0
C2256 C 0.37671 0.6262 0.75627 0.0
C2257 C 0.3837 0.57804 0.76533 0.0
C2258 C 0.37545 0.59439 0.76373 0.0
C2259 C 0.3508 0.64105 0.75658 0.0
C2260 C 0.35943 0.62513 0.75947 0.0
H2261 H 0.38906 0.54546 0.79467 0.0
H2262 H 0.37508 0.57202 0.79198 0.0
H2263 H 0.39795 0.61235 0.75585 0.0
H2264 H 0.34679 0.67267 0.72575 0.0
H2265 H 0.36158 0.64726 0.73107 0.0
C2266 C 0.25955 0.69715 0.52424 0.0
C2267 C 0.27436 0.69532 0.53688 0.0
C2268 C 0.24262 0.68992 0.52753 0.0
C2269 C 0.21643 0.67143 0.56274 0.0
H2270 H 0.18966 0.63427 0.5185 0.0
C2271 C 0.15844 0.61117 0.5695 0.0
C2272 C 0.14449 0.60406 0.55364 0.0
C2273 C 0.17322 0.62489 0.56795 0.0
C2274 C 0.19666 0.64485 0.5309 0.0
H2275 H 0.28317 0.68624 0.56387 0.0
H2276 H 0.25357 0.67385 0.56974 0.0
H2277 H 0.217 0.65527 0.51556 0.0
H2278 H 0.13519 0.60623 0.52375 0.0
H2279 H 0.16037 0.6308 0.52143 0.0
H2280 H 0.19608 0.66107 0.57812 0.0
C2281 C 0.25505 0.68067 0.55719 0.0
C2282 C 0.2124 0.65688 0.52919 0.0
C2283 C 0.27197 0.68766 0.55377 0.0
C2284 C 0.14553 0.61144 0.53636 0.0
C2285 C 0.16017 0.62538 0.53493 0.0
C2286 C 0.2005 0.65958 0.56439 0.0
C2287 C 0.24023 0.68103 0.54368 0.0
C2288 C 0.22258 0.67007 0.54516 0.0
C2289 C 0.17434 0.63211 0.5506 0.0
C2290 C 0.19055 0.64588 0.54857 0.0
H2291 H 0.26096 0.70302 0.51113 0.0
H2292 H 0.23138 0.69054 0.51701 0.0
H2293 H 0.22403 0.68155 0.57525 0.0
H2294 H 0.15801 0.60617 0.58318 0.0
H2295 H 0.18392 0.62949 0.58028 0.0
C2296 C 0.67941 0.93521 0.80744 0.0
C2297 C 0.68164 0.94976 0.79599 0.0
C2298 C 0.68812 0.9202 0.80583 0.0
C2299 C 0.72545 0.9035 0.78523 0.0
H2300 H 0.70335 0.85567 0.79882 0.0
C2301 C 0.76314 0.84166 0.79062 0.0
C2302 C 0.75375 0.82242 0.78743 0.0
C2303 C 0.7545 0.85686 0.79119 0.0
C2304 C 0.70987 0.86874 0.79475 0.0
H2305 H 0.69553 0.95915 0.7736 0.0
H2306 H 0.71061 0.93299 0.77059 0.0
H2307 H 0.68854 0.88153 0.79978 0.0
H2308 H 0.72724 0.80479 0.7822 0.0
H2309 H 0.7123 0.83083 0.783 0.0
H2310 H 0.7466 0.89046 0.77972 0.0
C2311 C 0.70207 0.93331 0.78115 0.0
C2312 C 0.70132 0.88401 0.7956 0.0
C2313 C 0.69327 0.94848 0.78279 0.0
C2314 C 0.7352 0.81919 0.78486 0.0
C2315 C 0.72653 0.83441 0.78542 0.0
C2316 C 0.73402 0.8882 0.78439 0.0
C2317 C 0.69965 0.91864 0.79258 0.0
C2318 C 0.70888 0.90192 0.79099 0.0
C2319 C 0.73592 0.85374 0.78856 0.0
C2320 C 0.72653 0.87035 0.78921 0.0
H2321 H 0.6708 0.93535 0.81795 0.0
H2322 H 0.68589 0.90989 0.81538 0.0
H2323 H 0.73209 0.91676 0.7816 0.0
H2324 H 0.77737 0.84511 0.79271 0.0
H2325 H 0.7626 0.87119 0.79398 0.0
C2326 C 0.7497 0.92268 0.55054 0.0
C2327 C 0.76103 0.92499 0.53707 0.0
C2328 C 0.73546 0.93134 0.54979 0.0
C2329 C 0.70731 0.95292 0.5163 0.0
H2330 H 0.69275 0.97207 0.56332 0.0
C2331 C 0.65492 0.99781 0.51656 0.0
C2332 C 0.64246 0.99381 0.52859 0.0
C2333 C 0.66932 0.98939 0.51753 0.0
C2334 C 0.69653 0.96664 0.55003 0.0
H2335 H 0.76645 0.93871 0.51254 0.0
H2336 H 0.742 0.95412 0.51152 0.0
H2337 H 0.7181 0.95793 0.56544 0.0
H2338 H 0.63557 0.97789 0.55123 0.0
H2339 H 0.66055 0.96315 0.55282 0.0
H2340 H 0.68583 0.96184 0.50094 0.0
C2341 C 0.74379 0.94524 0.5224 0.0
C2342 C 0.71109 0.95847 0.55124 0.0
C2343 C 0.75795 0.9365 0.52308 0.0
C2344 C 0.64477 0.98115 0.54159 0.0
C2345 C 0.65923 0.97285 0.54266 0.0
C2346 C 0.69283 0.96119 0.51511 0.0
C2347 C 0.7322 0.94264 0.5356 0.0
C2348 C 0.7167 0.95147 0.53439 0.0
C2349 C 0.67172 0.97688 0.53067 0.0
C2350 C 0.68722 0.96813 0.53195 0.0
H2351 H 0.75161 0.91384 0.56145 0.0
H2352 H 0.72675 0.92877 0.56007 0.0
H2353 H 0.71095 0.94738 0.50297 0.0
H2354 H 0.65351 0.0074 0.50631 0.0
H2355 H 0.67874 0.99294 0.50818 0.0
C2356 C 0.40445 0.42928 0.74517 0.0
C2357 C 0.40179 0.44768 0.74933 0.0
C2358 C 0.39107 0.41337 0.74506 0.0
C2359 C 0.34324 0.39644 0.74344 0.0
H2360 H 0.35802 0.35761 0.76981 0.0
C2361 C 0.31167 0.32692 0.77801 0.0
C2362 C 0.29803 0.31711 0.76273 0.0
C2363 C 0.32377 0.34295 0.77554 0.0
C2364 C 0.35364 0.36836 0.7625 0.0
H2365 H 0.38268 0.46372 0.75588 0.0
H2366 H 0.35928 0.43582 0.75588 0.0
H2367 H 0.37985 0.38543 0.76664 0.0
H2368 H 0.28601 0.31653 0.73302 0.0
H2369 H 0.30727 0.34464 0.72862 0.0
H2370 H 0.31692 0.37941 0.7397 0.0
C2371 C 0.37173 0.43376 0.75256 0.0
C2372 C 0.36619 0.38421 0.76046 0.0
C2373 C 0.38516 0.44975 0.75262 0.0
C2374 C 0.29646 0.32384 0.74502 0.0
C2375 C 0.30857 0.33995 0.74254 0.0
C2376 C 0.33065 0.3805 0.74544 0.0
C2377 C 0.37468 0.41541 0.74918 0.0
C2378 C 0.36116 0.39846 0.75094 0.0
C2379 C 0.32245 0.34959 0.75775 0.0
C2380 C 0.33572 0.36634 0.7551 0.0
H2381 H 0.41702 0.42712 0.74234 0.0
H2382 H 0.39365 0.39943 0.74198 0.0
H2383 H 0.33896 0.40711 0.73592 0.0
H2384 H 0.31296 0.32224 0.79195 0.0
H2385 H 0.33411 0.35025 0.78766 0.0
C2386 C 0.19319 0.57877 0.3114 0.0
C2387 C 0.19154 0.56284 0.29712 0.0
C2388 C 0.20343 0.59675 0.31032 0.0
C2389 C 0.22005 0.62565 0.27441 0.0
H2390 H 0.24626 0.66132 0.31991 0.0
C2391 C 0.25754 0.70219 0.26776 0.0
C2392 C 0.26002 0.71727 0.28324 0.0
C2393 C 0.25043 0.68324 0.26964 0.0
C2394 C 0.23885 0.65178 0.30698 0.0
H2395 H 0.19965 0.55366 0.27037 0.0
H2396 H 0.21763 0.58505 0.26842 0.0
H2397 H 0.23272 0.62896 0.32299 0.0
H2398 H 0.25657 0.72381 0.31288 0.0
H2399 H 0.24367 0.69122 0.31601 0.0
H2400 H 0.22561 0.64849 0.25843 0.0
C2401 C 0.21104 0.58356 0.28065 0.0
C2402 C 0.23108 0.63298 0.30877 0.0
C2403 C 0.20096 0.5654 0.28193 0.0
C2404 C 0.25506 0.71269 0.30066 0.0
C2405 C 0.2477 0.69377 0.30246 0.0
C2406 C 0.22767 0.64451 0.27263 0.0
C2407 C 0.21216 0.59967 0.29465 0.0
C2408 C 0.22146 0.61954 0.29254 0.0
C2409 C 0.24523 0.67855 0.287 0.0
C2410 C 0.23722 0.65808 0.28888 0.0
H2411 H 0.18581 0.57751 0.32306 0.0
H2412 H 0.20369 0.60862 0.32131 0.0
H2413 H 0.21255 0.61599 0.26156 0.0
H2414 H 0.26129 0.70498 0.25414 0.0
H2415 H 0.24924 0.67224 0.2574 0.0
C2416 C 0.50288 0.70399 0.46555 0.0
C2417 C 0.50786 0.70765 0.44792 0.0
C2418 C 0.50585 0.68809 0.47318 0.0
C2419 C 0.53122 0.65106 0.47062 0.0
H2420 H 0.49477 0.62541 0.49556 0.0
C2421 C 0.54222 0.5932 0.51611 0.0
C2422 C 0.52811 0.57746 0.51493 0.0
C2423 C 0.53969 0.60886 0.50761 0.0
C2424 C 0.50501 0.63223 0.48848 0.0
H2425 H 0.52033 0.69769 0.42472 0.0
H2426 H 0.52529 0.66948 0.43794 0.0
H2427 H 0.49062 0.65253 0.48052 0.0
H2428 H 0.5002 0.56595 0.50404 0.0
H2429 H 0.49583 0.59311 0.48896 0.0
H2430 H 0.54538 0.63036 0.47813 0.0
C2431 C 0.51922 0.67913 0.44594 0.0
C2432 C 0.50274 0.64799 0.48006 0.0
C2433 C 0.51636 0.69525 0.43833 0.0
C2434 C 0.51133 0.57789 0.50535 0.0
C2435 C 0.50882 0.59351 0.49672 0.0
C2436 C 0.53345 0.63519 0.47895 0.0
C2437 C 0.51374 0.67523 0.46333 0.0
C2438 C 0.51591 0.65779 0.47125 0.0
C2439 C 0.52301 0.60914 0.4976 0.0
C2440 C 0.52044 0.62568 0.48817 0.0
H2441 H 0.49654 0.71339 0.4735 0.0
H2442 H 0.50192 0.68589 0.48686 0.0
H2443 H 0.54166 0.65829 0.46404 0.0
H2444 H 0.55531 0.5934 0.52346 0.0
H2445 H 0.55083 0.62079 0.50897 0.0
C2446 C 0.61089 0.29081 0.69199 0.0
C2447 C 0.6133 0.29987 0.67592 0.0
C2448 C 0.62546 0.28828 0.70449 0.0
C2449 C 0.67052 0.28368 0.70272 0.0
H2450 H 0.67814 0.29151 0.75881 0.0
C2451 C 0.7376 0.28637 0.74789 0.0
C2452 C 0.7384 0.27847 0.76493 0.0
C2453 C 0.72154 0.28775 0.73771 0.0
C2454 C 0.67605 0.28896 0.74314 0.0
H2455 H 0.6329 0.31479 0.66136 0.0
H2456 H 0.65806 0.31057 0.6831 0.0
H2457 H 0.65142 0.29721 0.74054 0.0
H2458 H 0.72303 0.26571 0.78473 0.0
H2459 H 0.69467 0.26796 0.76676 0.0
H2460 H 0.69495 0.27538 0.70509 0.0
C2461 C 0.64499 0.30497 0.68582 0.0
C2462 C 0.66078 0.29229 0.73271 0.0
C2463 C 0.63054 0.30749 0.67342 0.0
C2464 C 0.72275 0.27185 0.7716 0.0
C2465 C 0.70657 0.27325 0.76138 0.0
C2466 C 0.68565 0.28025 0.71307 0.0
C2467 C 0.64262 0.29476 0.70106 0.0
C2468 C 0.65806 0.29007 0.71239 0.0
C2469 C 0.7058 0.28125 0.74431 0.0
C2470 C 0.68881 0.28322 0.73343 0.0
H2471 H 0.59776 0.28474 0.69426 0.0
H2472 H 0.62326 0.28041 0.71619 0.0
H2473 H 0.6686 0.28139 0.68704 0.0
H2474 H 0.74949 0.29183 0.74258 0.0
H2475 H 0.72155 0.29432 0.72486 0.0
C2476 C 0.01505 0.31502 0.96928 0.0
C2477 C 0.01742 0.30853 0.95053 0.0
C2478 C 0.01862 0.33442 0.97637 0.0
C2479 C 0.01284 0.37393 0.98108 0.0
H2480 H 0.05032 0.41232 0.97004 0.0
C2481 C 0.01321 0.45338 0.99619 0.0
C2482 C 0.02945 0.46617 0.00406 0.0
C2483 C 0.01246 0.43439 0.98913 0.0
C2484 C 0.03984 0.40177 0.97338 0.0
H2485 H 0.02637 0.31729 0.92493 0.0
H2486 H 0.03233 0.35127 0.93718 0.0
H2487 H 0.04922 0.37879 0.96007 0.0
H2488 H 0.0577 0.46897 0.01046 0.0
H2489 H 0.05635 0.43591 0.99858 0.0
H2490 H 1.00368 0.39675 0.9948 0.0
C2491 C 0.0279 0.34135 0.94651 0.0
C2492 C 0.03912 0.38254 0.96748 0.0
C2493 C 0.0245 0.32186 0.93948 0.0
C2494 C 0.04494 0.45956 0.00447 0.0
C2495 C 0.04418 0.44058 0.99752 0.0
C2496 C 0.0136 0.39309 0.98702 0.0
C2497 C 0.02443 0.34785 0.9648 0.0
C2498 C 0.02562 0.36837 0.97131 0.0
C2499 C 0.02793 0.4277 0.98988 0.0
C2500 C 0.02709 0.40728 0.98324 0.0
H2501 H 0.0098 0.30508 0.97824 0.0
H2502 H 0.0163 0.33889 0.99074 0.0
H2503 H 1.00204 0.36345 0.98397 0.0
H2504 H 1.00102 0.45799 0.99551 0.0
H2505 H 0.99972 0.42496 0.98304 0.0
C2506 C 0.98891 0.78058 0.15009 0.0
C2507 C 0.00658 0.78584 0.15966 0.0
C2508 C 0.97518 0.78006 0.16052 0.0
C2509 C 0.96468 0.778 0.20974 0.0
H2510 H 0.92355 0.79468 0.18841 0.0
C2511 C 0.90984 0.78712 0.25343 0.0
C2512 C 0.89225 0.78093 0.24361 0.0
C2513 C 0.92381 0.78785 0.24333 0.0
C2514 C 0.93484 0.78977 0.1945 0.0
H2515 H 0.02361 0.79464 0.18783 0.0
H2516 H 0.99966 0.79399 0.20605 0.0
H2517 H 0.94788 0.79586 0.17088 0.0
H2518 H 0.87572 0.77059 0.21527 0.0
H2519 H 0.90007 0.77201 0.19765 0.0
H2520 H 0.95163 0.77202 0.23342 0.0
C2521 C 0.9964 0.79 0.19044 0.0
C2522 C 0.94883 0.79043 0.18442 0.0
C2523 C 0.01016 0.79048 0.17998 0.0
C2524 C 0.88905 0.77567 0.22333 0.0
C2525 C 0.90304 0.77647 0.21321 0.0
C2526 C 0.9507 0.7774 0.21985 0.0
C2527 C 0.9787 0.78486 0.18084 0.0
C2528 C 0.96393 0.78448 0.19184 0.0
C2529 C 0.92062 0.7825 0.22308 0.0
C2530 C 0.93556 0.78322 0.21234 0.0
H2531 H 0.9856 0.7768 0.13446 0.0
H2532 H 0.96177 0.77568 0.1526 0.0
H2533 H 0.97593 0.77302 0.21581 0.0
H2534 H 0.91287 0.79166 0.26898 0.0
H2535 H 0.93714 0.79289 0.25139 0.0
C2536 C 0.56847 0.29209 0.14892 0.0
C2537 C 0.55501 0.2836 0.1581 0.0
C2538 C 0.56612 0.30624 0.13799 0.0
C2539 C 0.53888 0.34093 0.13061 0.0
H2540 H 0.55562 0.34141 0.08193 0.0
C2541 C 0.51902 0.38746 0.07544 0.0
C2542 C 0.53245 0.39717 0.06698 0.0
C2543 C 0.52217 0.37389 0.0868 0.0
C2544 C 0.55104 0.34156 0.09559 0.0
H2545 H 0.52847 0.28316 0.16285 0.0
H2546 H 0.52427 0.30755 0.14351 0.0
H2547 H 0.56038 0.31707 0.1013 0.0
H2548 H 0.55964 0.40017 0.0636 0.0
H2549 H 0.56518 0.37646 0.08356 0.0
H2550 H 0.52934 0.36528 0.12474 0.0
C2551 C 0.53677 0.30357 0.14506 0.0
C2552 C 0.55378 0.32765 0.1067 0.0
C2553 C 0.53914 0.28949 0.15605 0.0
C2554 C 0.54908 0.393 0.07007 0.0
C2555 C 0.55221 0.37933 0.08134 0.0
C2556 C 0.53606 0.35477 0.11946 0.0
C2557 C 0.55024 0.31215 0.13594 0.0
C2558 C 0.54767 0.32714 0.1243 0.0
C2559 C 0.53879 0.36967 0.08984 0.0
C2560 C 0.54206 0.35518 0.10181 0.0
H2561 H 0.58087 0.28791 0.15029 0.0
H2562 H 0.57684 0.31273 0.13135 0.0
H2563 H 0.53429 0.34115 0.14427 0.0
H2564 H 0.50611 0.39051 0.07344 0.0
H2565 H 0.51154 0.36653 0.09304 0.0
C2566 C 0.95558 0.24305 0.38359 0.0
C2567 C 0.97175 0.25344 0.3805 0.0
C2568 C 0.94008 0.2416 0.37056 0.0
C2569 C 0.92183 0.26922 0.33706 0.0
H2570 H 0.88151 0.22613 0.32609 0.0
C2571 C 0.85154 0.27759 0.31425 0.0
C2572 C 0.84043 0.26404 0.29913 0.0
C2573 C 0.86777 0.27482 0.32255 0.0
C2574 C 0.8927 0.23823 0.32886 0.0
H2575 H 0.98452 0.2692 0.36052 0.0
H2576 H 0.95739 0.26654 0.33767 0.0
H2577 H 0.9101 0.22256 0.34161 0.0
H2578 H 0.8375 0.23667 0.28121 0.0
H2579 H 0.86579 0.23194 0.29566 0.0
H2580 H 0.90447 0.28493 0.32445 0.0
C2581 C 0.95671 0.25979 0.35037 0.0
C2582 C 0.90902 0.23621 0.33784 0.0
C2583 C 0.97226 0.26122 0.3634 0.0
C2584 C 0.84569 0.24741 0.29287 0.0
C2585 C 0.86191 0.24464 0.30116 0.0
C2586 C 0.90553 0.27125 0.32813 0.0
C2587 C 0.94041 0.2505 0.35416 0.0
C2588 C 0.92369 0.25178 0.34235 0.0
C2589 C 0.87322 0.25844 0.31591 0.0
C2590 C 0.89072 0.25588 0.32428 0.0
H2591 H 0.95475 0.23677 0.39655 0.0
H2592 H 0.92773 0.23444 0.37397 0.0
H2593 H 0.93281 0.28156 0.34053 0.0
H2594 H 0.84791 0.29056 0.31942 0.0
H2595 H 0.87609 0.28554 0.33415 0.0
C2596 C 0.0251 0.6701 0.64134 0.0
C2597 C 0.03258 0.68969 0.64605 0.0
C2598 C 0.02449 0.66036 0.62285 0.0
C2599 C 0.04941 0.66066 0.58469 0.0
H2600 H 0.00897 0.62182 0.55638 0.0
C2601 C 0.02828 0.59066 0.51993 0.0
C2602 C 0.03907 0.58002 0.52878 0.0
C2603 C 0.02847 0.60887 0.52907 0.0
C2604 C 0.02028 0.63292 0.5638 0.0
H2605 H 0.0449 0.71456 0.63497 0.0
H2606 H 0.04426 0.69734 0.60282 0.0
H2607 H 0.00544 0.6443 0.58333 0.0
H2608 H 0.05959 0.58064 0.55289 0.0
H2609 H 0.06045 0.61249 0.56843 0.0
H2610 H 0.0645 0.64832 0.56613 0.0
C2611 C 0.03871 0.68964 0.61339 0.0
C2612 C 0.01828 0.64563 0.57931 0.0
C2613 C 0.03903 0.69944 0.63177 0.0
C2614 C 0.05124 0.58853 0.54575 0.0
C2615 C 0.05174 0.60683 0.55461 0.0
C2616 C 0.05146 0.64776 0.56936 0.0
C2617 C 0.03159 0.67 0.60886 0.0
C2618 C 0.03294 0.65915 0.59029 0.0
C2619 C 0.03976 0.61678 0.54687 0.0
C2620 C 0.03702 0.63337 0.55924 0.0
H2621 H 0.01998 0.66223 0.65202 0.0
H2622 H 0.01911 0.64515 0.61973 0.0
H2623 H 0.06092 0.67094 0.59302 0.0
H2624 H 0.0187 0.58438 0.50685 0.0
H2625 H 0.0191 0.61631 0.52285 0.0
C2626 C 0.56355 0.81185 0.84817 0.0
C2627 C 0.55598 0.79869 0.85914 0.0
C2628 C 0.57764 0.80895 0.83928 0.0
C2629 C 0.5952 0.77076 0.81858 0.0
H2630 H 0.64016 0.80709 0.82639 0.0
C2631 C 0.65617 0.74927 0.79682 0.0
C2632 C 0.66894 0.76273 0.79102 0.0
C2633 C 0.64183 0.75447 0.80343 0.0
C2634 C 0.62758 0.79692 0.82369 0.0
H2635 H 0.55765 0.77248 0.86988 0.0
H2636 H 0.5819 0.76735 0.85411 0.0
H2637 H 0.61648 0.81542 0.84162 0.0
H2638 H 0.67645 0.79196 0.78674 0.0
H2639 H 0.65106 0.80095 0.79763 0.0
H2640 H 0.60593 0.75232 0.80046 0.0
C2641 C 0.57695 0.77988 0.85242 0.0
C2642 C 0.61408 0.80169 0.83252 0.0
C2643 C 0.56313 0.78292 0.86153 0.0
C2644 C 0.66682 0.78135 0.79131 0.0
C2645 C 0.65234 0.78651 0.79767 0.0
C2646 C 0.60854 0.76609 0.80951 0.0
C2647 C 0.58413 0.79267 0.84097 0.0
C2648 C 0.59793 0.78848 0.83036 0.0
C2649 C 0.6398 0.77321 0.80412 0.0
C2650 C 0.62506 0.77893 0.81228 0.0
H2651 H 0.55835 0.82415 0.84609 0.0
H2652 H 0.58303 0.81902 0.83053 0.0
H2653 H 0.58273 0.76045 0.81649 0.0
H2654 H 0.65764 0.7349 0.797 0.0
H2655 H 0.63267 0.74391 0.80861 0.0
C2656 C 0.45305 0.52343 0.69947 0.0
C2657 C 0.46316 0.51409 0.71123 0.0
C2658 C 0.45875 0.52964 0.6831 0.0
C2659 C 0.49827 0.54253 0.66178 0.0
H2660 H 0.46694 0.52582 0.61195 0.0
C2661 C 0.5066 0.52551 0.57878 0.0
C2662 C 0.51917 0.54185 0.57753 0.0
C2663 C 0.49752 0.52522 0.59422 0.0
C2664 C 0.47577 0.53071 0.62579 0.0
H2665 H 0.48734 0.50441 0.71535 0.0
H2666 H 0.49734 0.5155 0.68706 0.0
H2667 H 0.45587 0.51974 0.64158 0.0
H2668 H 0.5315 0.57098 0.59083 0.0
H2669 H 0.51578 0.57039 0.61804 0.0
H2670 H 0.51832 0.55293 0.64608 0.0
C2671 C 0.48502 0.51796 0.69043 0.0
C2672 C 0.46942 0.52735 0.64272 0.0
C2673 C 0.47922 0.5115 0.70656 0.0
C2674 C 0.52194 0.55816 0.59152 0.0
C2675 C 0.51299 0.55782 0.60708 0.0
C2676 C 0.50456 0.54607 0.64492 0.0
C2677 C 0.47479 0.52695 0.67845 0.0
C2678 C 0.48075 0.53279 0.66082 0.0
C2679 C 0.50099 0.5412 0.60883 0.0
C2680 C 0.4935 0.53979 0.62671 0.0
H2681 H 0.44059 0.52558 0.70268 0.0
H2682 H 0.45065 0.53658 0.67409 0.0
H2683 H 0.50723 0.54699 0.67557 0.0
H2684 H 0.50423 0.51273 0.56819 0.0
H2685 H 0.48848 0.51215 0.59526 0.0
C2686 C 0.81102 0.21869 0.02533 0.0
C2687 C 0.81296 0.22865 0.04415 0.0
C2688 C 0.80367 0.22563 0.00944 0.0
C2689 C 0.79803 0.26808 0.99167 0.0
H2690 H 0.76112 0.23354 0.95302 0.0
C2691 C 0.77892 0.28778 0.91732 0.0
C2692 C 0.77923 0.27349 0.90216 0.0
C2693 C 0.77786 0.28354 0.93583 0.0
C2694 C 0.77138 0.24338 0.96369 0.0
H2695 H 0.80934 0.254 0.06109 0.0
H2696 H 0.79696 0.26645 0.03303 0.0
H2697 H 0.77079 0.22382 0.98375 0.0
H2698 H 0.77701 0.24337 0.89394 0.0
H2699 H 0.77574 0.23605 0.92618 0.0
H2700 H 0.79961 0.28712 0.97123 0.0
C2701 C 0.80087 0.25312 0.03075 0.0
C2702 C 0.77687 0.23782 0.98124 0.0
C2703 C 0.80797 0.24602 0.04673 0.0
C2704 C 0.77712 0.2547 0.90547 0.0
C2705 C 0.77614 0.25049 0.92392 0.0
C2706 C 0.79271 0.27356 0.974 0.0
C2707 C 0.79838 0.24278 0.01204 0.0
C2708 C 0.79064 0.24988 0.99505 0.0
C2709 C 0.77713 0.26497 0.93947 0.0
C2710 C 0.77979 0.26096 0.95954 0.0
H2711 H 0.81467 0.20523 0.02289 0.0
H2712 H 0.80213 0.2176 0.99506 0.0
H2713 H 0.8087 0.27758 1.00215 0.0
H2714 H 0.78051 0.3024 0.91515 0.0
H2715 H 0.77839 0.29495 0.94747 0.0
C2716 C 0.13115 0.51776 0.22064 0.0
C2717 C 0.12562 0.503 0.23093 0.0
C2718 C 0.12267 0.51779 0.20167 0.0
C2719 C 0.08973 0.48793 0.15837 0.0
H2720 H 0.08641 0.53711 0.14544 0.0
C2721 C 0.04404 0.49513 0.08757 0.0
C2722 C 0.04857 0.5109 0.07822 0.0
C2723 C 0.05389 0.49379 0.10548 0.0
C2724 C 0.08734 0.5232 0.1485 0.0
H2725 H 0.10637 0.47662 0.2289 0.0
H2726 H 0.09153 0.47648 0.19572 0.0
H2727 H 0.10224 0.53501 0.17698 0.0
H2728 H 0.06745 0.53769 0.08084 0.0
H2729 H 0.08485 0.5353 0.1118 0.0
H2730 H 0.07474 0.47613 0.12986 0.0
C2731 C 0.10279 0.48799 0.20222 0.0
C2732 C 0.09654 0.52196 0.16684 0.0
C2733 C 0.11141 0.48795 0.22132 0.0
C2734 C 0.06351 0.52527 0.08743 0.0
C2735 C 0.07343 0.52394 0.10542 0.0
C2736 C 0.08053 0.48917 0.13998 0.0
C2737 C 0.10799 0.50319 0.19214 0.0
C2738 C 0.098 0.50431 0.17224 0.0
C2739 C 0.06879 0.50819 0.11493 0.0
C2740 C 0.07909 0.50684 0.13461 0.0
H2741 H 0.14181 0.52978 0.22762 0.0
H2742 H 0.12754 0.52958 0.1946 0.0
H2743 H 0.09058 0.47404 0.16154 0.0
H2744 H 0.03262 0.48377 0.08112 0.0
H2745 H 0.04947 0.48155 0.11212 0.0
C2746 C 0.77911 0.82873 0.48647 0.0
C2747 C 0.78128 0.84829 0.49243 0.0
C2748 C 0.77529 0.82097 0.46686 0.0
C2749 C 0.78531 0.81349 0.42799 0.0
H2750 H 0.75564 0.82709 0.38593 0.0
C2751 C 0.79521 0.79854 0.34943 0.0
C2752 C 0.78012 0.79072 0.33512 0.0
C2753 C 0.79369 0.80554 0.36824 0.0
C2754 C 0.7639 0.82308 0.39756 0.0
H2755 H 0.77975 0.87486 0.48267 0.0
H2756 H 0.77332 0.86129 0.44812 0.0
H2757 H 0.75409 0.83869 0.41957 0.0
H2758 H 0.75154 0.78436 0.32936 0.0
H2759 H 0.74895 0.79657 0.36228 0.0
H2760 H 0.79517 0.79798 0.40622 0.0
C2761 C 0.77442 0.85193 0.45867 0.0
C2762 C 0.76309 0.82982 0.41678 0.0
C2763 C 0.77807 0.85971 0.47844 0.0
C2764 C 0.76346 0.79027 0.34003 0.0
C2765 C 0.76195 0.79737 0.35885 0.0
C2766 C 0.78618 0.80689 0.40889 0.0
C2767 C 0.77382 0.83263 0.45272 0.0
C2768 C 0.77381 0.82507 0.4322 0.0
C2769 C 0.77706 0.80494 0.3732 0.0
C2770 C 0.77559 0.8117 0.39345 0.0
H2771 H 0.78131 0.81957 0.49699 0.0
H2772 H 0.77442 0.80595 0.46275 0.0
H2773 H 0.79399 0.80983 0.43949 0.0
H2774 H 0.80825 0.79922 0.34618 0.0
H2775 H 0.80559 0.81152 0.37892 0.0
C2776 C 0.45794 0.52359 0.82704 0.0
C2777 C 0.46731 0.51497 0.81459 0.0
C2778 C 0.46417 0.52758 0.84708 0.0
C2779 C 0.47351 0.51837 0.88774 0.0
H2780 H 0.52303 0.53675 0.91057 0.0
C2781 C 0.50354 0.50182 0.96089 0.0
C2782 C 0.51612 0.51635 0.97375 0.0
C2783 C 0.4972 0.50451 0.94221 0.0
C2784 C 0.50913 0.53182 0.90447 0.0
H2785 H 0.49103 0.50483 0.81326 0.0
H2786 H 0.50188 0.5119 0.84802 0.0
H2787 H 0.5131 0.53775 0.87642 0.0
H2788 H 0.53189 0.54516 0.97705 0.0
H2789 H 0.52086 0.54977 0.94432 0.0
H2790 H 0.46959 0.51199 0.91566 0.0
C2791 C 0.48974 0.51556 0.84239 0.0
C2792 C 0.50347 0.53227 0.8849 0.0
C2793 C 0.48345 0.51139 0.82246 0.0
C2794 C 0.5222 0.53366 0.96751 0.0
C2795 C 0.51594 0.5363 0.94875 0.0
C2796 C 0.47919 0.51777 0.90727 0.0
C2797 C 0.47998 0.52326 0.85497 0.0
C2798 C 0.48565 0.52521 0.87624 0.0
C2799 C 0.50337 0.52174 0.9359 0.0
C2800 C 0.49711 0.52414 0.91574 0.0
H2801 H 0.44546 0.52651 0.82142 0.0
H2802 H 0.45644 0.53366 0.85643 0.0
H2803 H 0.45972 0.51268 0.88146 0.0
H2804 H 0.49855 0.48832 0.96523 0.0
H2805 H 0.48771 0.49293 0.93255 0.0
C2806 C 0.87376 0.19818 0.13849 0.0
C2807 C 0.87187 0.21323 0.12854 0.0
C2808 C 0.88015 0.20195 0.15847 0.0
C2809 C 0.86545 0.21438 0.19287 0.0
H2810 H 0.88734 0.26475 0.22172 0.0
C2811 C 0.82598 0.263 0.22293 0.0
C2812 C 0.83234 0.27489 0.24085 0.0
C2813 C 0.83624 0.2516 0.21532 0.0
C2814 C 0.88134 0.25042 0.21422 0.0
H2815 H 0.87865 0.24368 0.13021 0.0
H2816 H 0.8899 0.25035 0.1646 0.0
H2817 H 0.90192 0.25047 0.19776 0.0
H2818 H 0.85447 0.28457 0.26483 0.0
H2819 H 0.87257 0.26491 0.25125 0.0
H2820 H 0.84429 0.21493 0.20834 0.0
C2821 C 0.88629 0.23565 0.15759 0.0
C2822 C 0.88969 0.24224 0.20048 0.0
C2823 C 0.87979 0.23188 0.13773 0.0
C2824 C 0.84926 0.27551 0.2509 0.0
C2825 C 0.85958 0.26419 0.24325 0.0
C2826 C 0.85715 0.22254 0.20659 0.0
C2827 C 0.88455 0.22076 0.16847 0.0
C2828 C 0.88106 0.22487 0.18844 0.0
C2829 C 0.85313 0.25207 0.22542 0.0
C2830 C 0.86437 0.2412 0.21624 0.0
H2831 H 0.86786 0.18363 0.13159 0.0
H2832 H 0.87921 0.19016 0.16638 0.0
H2833 H 0.85839 0.2009 0.18411 0.0
H2834 H 0.81316 0.26265 0.21475 0.0
H2835 H 0.83112 0.24277 0.20126 0.0
C2836 C 0.1095 0.51325 0.34103 0.0
C2837 C 0.12515 0.50712 0.33974 0.0
C2838 C 0.10249 0.51429 0.35813 0.0
C2839 C 0.11296 0.51514 0.41248 0.0
H2840 H 0.06273 0.5105 0.40713 0.0
C2841 C 0.07947 0.53323 0.48018 0.0
C2842 C 0.06163 0.52437 0.47957 0.0
C2843 C 0.0877 0.53061 0.46383 0.0
C2844 C 0.07677 0.51166 0.40926 0.0
H2845 H 0.14542 0.49699 0.35647 0.0
H2846 H 0.13292 0.4983 0.38642 0.0
H2847 H 0.0755 0.5053 0.37867 0.0
H2848 H 0.03889 0.50522 0.46074 0.0
H2849 H 0.05297 0.50028 0.43307 0.0
H2850 H 0.11397 0.52086 0.44331 0.0
C2851 C 0.12616 0.50261 0.37391 0.0
C2852 C 0.0843 0.50896 0.39256 0.0
C2853 C 0.13329 0.50158 0.35654 0.0
C2854 C 0.05251 0.51263 0.46201 0.0
C2855 C 0.06072 0.50987 0.44582 0.0
C2856 C 0.10536 0.51772 0.42932 0.0
C2857 C 0.11057 0.50911 0.37512 0.0
C2858 C 0.10261 0.51084 0.39362 0.0
C2859 C 0.07849 0.51888 0.44615 0.0
C2860 C 0.08702 0.51611 0.42814 0.0
H2861 H 0.10266 0.51778 0.32871 0.0
H2862 H 0.09083 0.5198 0.35803 0.0
H2863 H 0.12707 0.51689 0.41431 0.0
H2864 H 0.08712 0.54235 0.49331 0.0
H2865 H 0.10128 0.53809 0.46505 0.0
C2866 C 0.79332 0.86439 0.61196 0.0
C2867 C 0.79706 0.85344 0.59601 0.0
C2868 C 0.79117 0.85675 0.6289 0.0
C2869 C 0.80156 0.81706 0.65335 0.0
H2870 H 0.76896 0.82935 0.68587 0.0
C2871 C 0.78081 0.7741 0.71259 0.0
C2872 C 0.78104 0.78463 0.73068 0.0
C2873 C 0.78339 0.78326 0.69672 0.0
C2874 C 0.77821 0.82592 0.67696 0.0
H2875 H 0.8003 0.82563 0.58478 0.0
H2876 H 0.79579 0.81218 0.6136 0.0
H2877 H 0.77147 0.84392 0.6569 0.0
H2878 H 0.78432 0.81301 0.74649 0.0
H2879 H 0.78853 0.82895 0.71868 0.0
H2880 H 0.80787 0.79862 0.6731 0.0
C2881 C 0.79532 0.82687 0.61362 0.0
C2882 C 0.77971 0.83431 0.6604 0.0
C2883 C 0.79775 0.83455 0.59697 0.0
C2884 C 0.7841 0.80451 0.7327 0.0
C2885 C 0.78639 0.81364 0.71678 0.0
C2886 C 0.79986 0.80849 0.66969 0.0
C2887 C 0.79248 0.83796 0.63005 0.0
C2888 C 0.79128 0.82983 0.64824 0.0
C2889 C 0.78598 0.8031 0.69861 0.0
C2890 C 0.7881 0.81272 0.6816 0.0
H2891 H 0.79275 0.87901 0.61161 0.0
H2892 H 0.78904 0.86577 0.64126 0.0
H2893 H 0.81101 0.81364 0.64473 0.0
H2894 H 0.77846 0.75877 0.71064 0.0
H2895 H 0.78295 0.77479 0.68285 0.0
C2896 C 0.70677 0.40908 0.4989 0.0
C2897 C 0.72182 0.41214 0.49034 0.0
C2898 C 0.7009 0.42433 0.50711 0.0
C2899 C 0.69896 0.47264 0.50557 0.0
H2900 H 0.68808 0.47106 0.55704 0.0
C2901 C 0.66045 0.52315 0.53923 0.0
C2902 C 0.6461 0.51362 0.54653 0.0
C2903 C 0.67361 0.51403 0.535 0.0
C2904 C 0.69108 0.47174 0.54269 0.0
H2905 H 0.74212 0.43365 0.48302 0.0
H2906 H 0.7314 0.46055 0.4971 0.0
H2907 H 0.70364 0.4486 0.54346 0.0
H2908 H 0.63475 0.48758 0.55619 0.0
H2909 H 0.65742 0.47157 0.54857 0.0
H2910 H 0.68546 0.49502 0.5043 0.0
C2911 C 0.72443 0.44621 0.4976 0.0
C2912 C 0.70002 0.45895 0.53497 0.0
C2913 C 0.73051 0.43086 0.48955 0.0
C2914 C 0.64556 0.49518 0.55037 0.0
C2915 C 0.65868 0.48611 0.54621 0.0
C2916 C 0.68986 0.48538 0.51325 0.0
C2917 C 0.7098 0.44301 0.5068 0.0
C2918 C 0.70346 0.45885 0.5161 0.0
C2919 C 0.67268 0.49528 0.53814 0.0
C2920 C 0.68526 0.48456 0.5316 0.0
H2921 H 0.69971 0.39487 0.49973 0.0
H2922 H 0.68937 0.42152 0.5138 0.0
H2923 H 0.70145 0.47276 0.49096 0.0
H2924 H 0.66114 0.53735 0.53604 0.0
H2925 H 0.6843 0.52149 0.52892 0.0
C2926 C 0.20896 0.0929 0.50281 0.0
C2927 C 0.2068 0.11 0.49677 0.0
C2928 C 0.1943 0.07926 0.50522 0.0
C2929 C 0.15179 0.07774 0.51885 0.0
H2930 H 0.13715 0.02449 0.4959 0.0
C2931 C 0.083 0.034 0.52096 0.0
C2932 C 0.08054 0.01479 0.52261 0.0
C2933 C 0.09912 0.04438 0.51811 0.0
C2934 C 0.1412 0.03925 0.50272 0.0
H2935 H 0.18735 0.12541 0.48714 0.0
H2936 H 0.16216 0.10193 0.49155 0.0
H2937 H 0.16437 0.04418 0.48982 0.0
H2938 H 0.09296 0.99112 0.52238 0.0
H2939 H 0.12153 0.00935 0.51804 0.0
H2940 H 0.12907 0.0731 0.53204 0.0
C2941 C 0.17513 0.09913 0.49463 0.0
C2942 C 0.15677 0.0505 0.49916 0.0
C2943 C 0.18962 0.11257 0.49206 0.0
C2944 C 0.09456 0.006 0.52124 0.0
C2945 C 0.11087 0.01644 0.51862 0.0
C2946 C 0.13645 0.06652 0.52262 0.0
C2947 C 0.17733 0.08263 0.50177 0.0
C2948 C 0.16196 0.06995 0.50685 0.0
C2949 C 0.11339 0.03582 0.51706 0.0
C2950 C 0.13066 0.04721 0.51425 0.0
H2951 H 0.222 0.09048 0.50658 0.0
H2952 H 0.19631 0.06658 0.5107 0.0
H2953 H 0.15565 0.09265 0.52522 0.0
H2954 H 0.07227 0.0409 0.5214 0.0
H2955 H 0.10025 0.05907 0.5164 0.0
C2956 C 0.17877 0.98916 0.81239 0.0
C2957 C 0.16078 0.98273 0.8043 0.0
C2958 C 0.18979 0.97654 0.81268 0.0
C2959 C 0.18941 0.92505 0.80691 0.0
H2960 H 0.23584 0.94244 0.79509 0.0
C2961 C 0.23273 0.87499 0.78259 0.0
C2962 C 0.25102 0.88098 0.78924 0.0
C2963 C 0.22166 0.88685 0.78713 0.0
C2964 C 0.22302 0.93743 0.7987 0.0
H2965 H 0.14022 0.95794 0.79033 0.0
H2966 H 0.15948 0.93604 0.7904 0.0
H2967 H 0.21672 0.96429 0.7975 0.0
H2968 H 0.27183 0.90356 0.80708 0.0
H2969 H 0.25254 0.92429 0.81481 0.0
H2970 H 0.19565 0.89796 0.80751 0.0
C2971 C 0.16505 0.95075 0.79689 0.0
C2972 C 0.21203 0.94998 0.80011 0.0
C2973 C 0.15401 0.96336 0.79672 0.0
C2974 C 0.25786 0.89869 0.80135 0.0
C2975 C 0.24681 0.91056 0.8058 0.0
C2976 C 0.20038 0.91244 0.80537 0.0
C2977 C 0.18312 0.9572 0.80476 0.0
C2978 C 0.19504 0.94395 0.80411 0.0
C2979 C 0.22866 0.90497 0.79836 0.0
C2980 C 0.21727 0.91848 0.80114 0.0
H2981 H 0.18438 1.00397 0.8185 0.0
H2982 H 0.20356 0.98196 0.81917 0.0
H2983 H 0.17652 0.91998 0.81032 0.0
H2984 H 0.22702 0.86153 0.7731 0.0
H2985 H 0.20774 0.88218 0.78105 0.0
C2986 C 0.30088 0.86299 0.97646 0.0
C2987 C 0.28608 0.87046 0.97792 0.0
C2988 C 0.31779 0.87483 0.98132 0.0
C2989 C 0.34358 0.92209 0.00717 0.0
H2990 H 0.3742 0.91562 0.97022 0.0
C2991 C 0.40679 0.97829 0.00493 0.0
C2992 C 0.42113 0.97162 0.99981 0.0
C2993 C 0.39075 0.96554 0.00446 0.0
C2994 C 0.36596 0.91745 0.98088 0.0
H2995 H 0.27747 0.89614 0.98622 0.0
H2996 H 0.30698 0.9168 0.99449 0.0
H2997 H 0.34548 0.8939 0.96559 0.0
H2998 H 0.43042 0.9465 0.99142 0.0
H2999 H 0.4026 0.92422 0.99094 0.0
H3000 H 0.36409 0.94583 0.02233 0.0
C3001 C 0.30551 0.90176 0.98976 0.0
C3002 C 0.34948 0.90499 0.97821 0.0
C3003 C 0.28859 0.88993 0.9849 0.0
C3004 C 0.41943 0.952 0.99506 0.0
C3005 C 0.4035 0.93927 0.99475 0.0
C3006 C 0.36014 0.93457 0.00988 0.0
C3007 C 0.32026 0.89439 0.98774 0.0
C3008 C 0.33807 0.9072 0.99126 0.0
C3009 C 0.38885 0.9459 0.99901 0.0
C3010 C 0.37149 0.93241 0.99671 0.0
H3011 H 0.29941 0.84804 0.97127 0.0
H3012 H 0.32894 0.8687 0.97988 0.0
H3013 H 0.33512 0.92404 0.01756 0.0
H3014 H 0.40778 0.99338 0.00859 0.0
H3015 H 0.37968 0.97111 0.00766 0.0
C3016 C 0.88431 0.61471 0.77083 0.0
C3017 C 0.87349 0.59605 0.7675 0.0
C3018 C 0.87702 0.63108 0.77167 0.0
C3019 C 0.8331 0.64578 0.75913 0.0
H3020 H 0.85775 0.69395 0.79087 0.0
C3021 C 0.79681 0.70819 0.77047 0.0
C3022 C 0.8062 0.72745 0.77452 0.0
C3023 C 0.80545 0.69299 0.76953 0.0
C3024 C 0.85056 0.68075 0.78168 0.0
H3025 H 0.84604 0.58095 0.76266 0.0
H3026 H 0.83376 0.60859 0.76426 0.0
H3027 H 0.87175 0.66714 0.78936 0.0
H3028 H 0.83276 0.74508 0.78079 0.0
H3029 H 0.8477 0.71896 0.77894 0.0
H3030 H 0.81201 0.65922 0.75128 0.0
C3031 C 0.84792 0.61092 0.7659 0.0
C3032 C 0.85874 0.6651 0.78081 0.0
C3033 C 0.85513 0.59474 0.76513 0.0
C3034 C 0.82479 0.73067 0.7776 0.0
C3035 C 0.83347 0.71542 0.77666 0.0
C3036 C 0.82496 0.66136 0.75998 0.0
C3037 C 0.85854 0.62963 0.76909 0.0
C3038 C 0.85018 0.64706 0.76964 0.0
C3039 C 0.82406 0.69608 0.77256 0.0
C3040 C 0.83332 0.67932 0.7714 0.0
H3041 H 0.89846 0.61671 0.77278 0.0
H3042 H 0.88597 0.64494 0.77406 0.0
H3043 H 0.82588 0.63266 0.74984 0.0
H3044 H 0.78257 0.70472 0.76813 0.0
H3045 H 0.79732 0.67868 0.76671 0.0
C3046 C 0.8298 0.64081 0.01084 0.0
C3047 C 0.81204 0.63078 0.00682 0.0
C3048 C 0.84333 0.6312 0.01132 0.0
C3049 C 0.85288 0.58445 0.01697 0.0
H3050 H 0.8951 0.60482 0.99764 0.0
C3051 C 0.90784 0.54384 0.0124 0.0
C3052 C 0.92541 0.55439 0.01809 0.0
C3053 C 0.89396 0.55293 0.01017 0.0
C3054 C 0.88348 0.59903 0.00328 0.0
H3055 H 0.79464 0.60263 0.99995 0.0
H3056 H 0.81827 0.58581 1.00056 0.0
H3057 H 0.87092 0.62074 0.99504 0.0
H3058 H 0.94202 0.58294 0.02572 0.0
H3059 H 0.9178 0.5988 0.02175 0.0
H3060 H 0.86547 0.56276 0.02523 0.0
C3061 C 0.82174 0.60117 0.00361 0.0
C3062 C 0.86958 0.60817 1.0018 0.0
C3063 C 0.80816 0.61082 0.00313 0.0
C3064 C 0.92871 0.57433 0.02111 0.0
C3065 C 0.91479 0.58344 0.01884 0.0
C3066 C 0.86677 0.57529 0.01842 0.0
C3067 C 0.83953 0.61124 0.00777 0.0
C3068 C 0.85411 0.60108 0.00872 0.0
C3069 C 0.89721 0.57285 0.01351 0.0
C3070 C 0.8823 0.5825 0.01167 0.0
H3071 H 0.83332 0.65618 0.01383 0.0
H3072 H 0.85682 0.63947 0.01488 0.0
H3073 H 0.84134 0.57872 0.02276 0.0
H3074 H 0.90478 0.52847 0.00953 0.0
H3075 H 0.88064 0.5443 0.00568 0.0
C3076 C 0.16641 0.10432 0.79323 0.0
C3077 C 0.16957 0.09015 0.804 0.0
C3078 C 0.18016 0.11931 0.79189 0.0
C3079 C 0.22055 0.14989 0.81699 0.0
H3080 H 0.23006 0.1588 0.76642 0.0
C3081 C 0.27352 0.21474 0.80796 0.0
C3082 C 0.26994 0.22331 0.79166 0.0
C3083 C 0.26266 0.19747 0.80971 0.0
C3084 C 0.22745 0.15674 0.78066 0.0
H3085 H 0.18958 0.08064 0.82197 0.0
H3086 H 0.21371 0.10751 0.82017 0.0
H3087 H 0.20848 0.13048 0.76917 0.0
H3088 H 0.25252 0.22035 0.76419 0.0
H3089 H 0.23294 0.19106 0.76773 0.0
H3090 H 0.23863 0.1766 0.8285 0.0
C3091 C 0.20054 0.10668 0.81256 0.0
C3092 C 0.21522 0.14039 0.7822 0.0
C3093 C 0.1868 0.09135 0.81353 0.0
C3094 C 0.25538 0.21429 0.77712 0.0
C3095 C 0.24434 0.19724 0.77901 0.0
C3096 C 0.23255 0.16648 0.81544 0.0
C3097 C 0.1973 0.12068 0.80162 0.0
C3098 C 0.21155 0.13694 0.80034 0.0
C3099 C 0.24785 0.1885 0.79529 0.0
C3100 C 0.23598 0.17027 0.7972 0.0
H3101 H 0.1533 0.10373 0.78564 0.0
H3102 H 0.17737 0.13002 0.78345 0.0
H3103 H 0.21776 0.14757 0.83112 0.0
H3104 H 0.2848 0.22132 0.81931 0.0
H3105 H 0.26602 0.19109 0.82229 0.0
C3106 C 0.36733 0.98538 0.28102 0.0
C3107 C 0.37245 0.9898 0.26364 0.0
C3108 C 0.3574 0.96709 0.28198 0.0
C3109 C 0.34603 0.91645 0.25495 0.0
H3110 H 0.31577 0.90695 0.29252 0.0
C3111 C 0.30526 0.83985 0.25696 0.0
C3112 C 0.30367 0.83453 0.27517 0.0
C3113 C 0.31273 0.8588 0.25529 0.0
C3114 C 0.32429 0.90924 0.28202 0.0
H3115 H 0.37089 0.97822 0.23361 0.0
H3116 H 0.35288 0.947 0.23483 0.0
H3117 H 0.32935 0.93954 0.28988 0.0
H3118 H 0.30873 0.84559 0.30592 0.0
H3119 H 0.32155 0.87834 0.30301 0.0
H3120 H 0.34086 0.88615 0.24703 0.0
C3121 C 0.35673 0.95739 0.24799 0.0
C3122 C 0.33218 0.92812 0.28049 0.0
C3123 C 0.36678 0.97557 0.24712 0.0
C3124 C 0.30964 0.84894 0.2916 0.0
C3125 C 0.31696 0.8679 0.28991 0.0
C3126 C 0.33804 0.89762 0.25638 0.0
C3127 C 0.3523 0.9525 0.26558 0.0
C3128 C 0.34329 0.93218 0.26695 0.0
C3129 C 0.31876 0.87323 0.27173 0.0
C3130 C 0.32705 0.89358 0.26999 0.0
H3131 H 0.37203 0.99567 0.29422 0.0
H3132 H 0.35461 0.96418 0.29592 0.0
H3133 H 0.35474 0.91857 0.24463 0.0
H3134 H 0.30086 0.82933 0.24391 0.0
H3135 H 0.3136 0.86216 0.24097 0.0
C3136 C 0.56206 0.34323 0.59053 0.0
C3137 C 0.55866 0.33969 0.60879 0.0
C3138 C 0.55899 0.35947 0.58369 0.0
C3139 C 0.55687 0.40817 0.59956 0.0
H3140 H 0.53487 0.40475 0.54602 0.0
C3141 C 0.55912 0.47371 0.56059 0.0
C3142 C 0.54303 0.47463 0.54966 0.0
C3143 C 0.56076 0.45725 0.56816 0.0
C3144 C 0.54097 0.40595 0.56102 0.0
H3145 H 0.54911 0.35031 0.63413 0.0
H3146 H 0.54386 0.37908 0.62214 0.0
H3147 H 0.53684 0.37582 0.559 0.0
H3148 H 0.51619 0.4588 0.53772 0.0
H3149 H 0.51914 0.43027 0.55071 0.0
H3150 H 0.56107 0.43839 0.60149 0.0
C3151 C 0.54892 0.36913 0.61319 0.0
C3152 C 0.54216 0.38939 0.56843 0.0
C3153 C 0.55178 0.35264 0.61997 0.0
C3154 C 0.52879 0.45863 0.54609 0.0
C3155 C 0.53047 0.4422 0.55348 0.0
C3156 C 0.55581 0.4248 0.59208 0.0
C3157 C 0.55258 0.37271 0.59499 0.0
C3158 C 0.5502 0.39031 0.58773 0.0
C3159 C 0.5464 0.44135 0.56472 0.0
C3160 C 0.54788 0.42384 0.57271 0.0
H3161 H 0.56731 0.33352 0.58151 0.0
H3162 H 0.5621 0.3619 0.56971 0.0
H3163 H 0.56328 0.4093 0.61444 0.0
H3164 H 0.57032 0.48581 0.56363 0.0
H3165 H 0.57326 0.45691 0.57661 0.0
C3166 C 0.44061 0.7313 0.37375 0.0
C3167 C 0.45566 0.74628 0.37722 0.0
C3168 C 0.42523 0.73232 0.36174 0.0
C3169 C 0.40628 0.76188 0.3282 0.0
H3170 H 0.36308 0.73851 0.34412 0.0
C3171 C 0.33764 0.77805 0.30481 0.0
C3172 C 0.32506 0.76195 0.29443 0.0
C3173 C 0.35376 0.77617 0.31468 0.0
C3174 C 0.37506 0.74508 0.33955 0.0
H3175 H 0.46672 0.7739 0.37068 0.0
H3176 H 0.43971 0.77624 0.35042 0.0
H3177 H 0.3911 0.73482 0.36068 0.0
H3178 H 0.31898 0.73132 0.28686 0.0
H3179 H 0.34686 0.72799 0.30486 0.0
H3180 H 0.38991 0.77288 0.30766 0.0
C3181 C 0.43978 0.7633 0.35626 0.0
C3182 C 0.39118 0.7428 0.34884 0.0
C3183 C 0.45534 0.762 0.36787 0.0
C3184 C 0.32853 0.74394 0.2947 0.0
C3185 C 0.34442 0.74203 0.30497 0.0
C3186 C 0.39015 0.76452 0.31922 0.0
C3187 C 0.42431 0.74871 0.35349 0.0
C3188 C 0.40708 0.75101 0.34323 0.0
C3189 C 0.35728 0.75814 0.31475 0.0
C3190 C 0.37442 0.75604 0.32475 0.0
H3191 H 0.44056 0.71908 0.38092 0.0
H3192 H 0.4139 0.72046 0.35949 0.0
H3193 H 0.41808 0.76822 0.32317 0.0
H3194 H 0.33525 0.79209 0.30478 0.0
H3195 H 0.36347 0.78878 0.32225 0.0
C3196 C 0.03429 0.7261 0.10428 0.0
C3197 C 0.04585 0.73898 0.09619 0.0
C3198 C 0.03065 0.70653 0.09738 0.0
C3199 C 0.05264 0.67222 0.07943 0.0
H3200 H 0.00781 0.63799 0.05555 0.0
C3201 C 0.04936 0.59592 0.04417 0.0
C3202 C 0.03481 0.58146 0.04508 0.0
C3203 C 0.04952 0.61495 0.05016 0.0
C3204 C 0.0204 0.64724 0.0625 0.0
H3205 H 0.06168 0.74138 0.07367 0.0
H3206 H 0.0556 0.70744 0.06213 0.0
H3207 H 0.00919 0.67148 0.06676 0.0
H3208 H 0.009 0.5756 0.05303 0.0
H3209 H 0.00958 0.60865 0.06423 0.0
H3210 H 0.06395 0.6483 0.07593 0.0
C3211 C 0.0494 0.71249 0.07374 0.0
C3212 C 0.02114 0.66642 0.06882 0.0
C3213 C 0.05282 0.73194 0.08038 0.0
C3214 C 0.0204 0.58643 0.05205 0.0
C3215 C 0.02068 0.60545 0.05837 0.0
C3216 C 0.05188 0.65307 0.07349 0.0
C3217 C 0.03867 0.69961 0.08249 0.0
C3218 C 0.03732 0.67908 0.07705 0.0
C3219 C 0.03528 0.62001 0.05758 0.0
C3220 C 0.03581 0.64032 0.06463 0.0
H3221 H 0.02869 0.73104 0.11645 0.0
H3222 H 0.02232 0.69676 0.10431 0.0
H3223 H 0.06524 0.68175 0.08594 0.0
H3224 H 0.06057 0.59257 0.03865 0.0
H3225 H 0.06081 0.6257 0.0488 0.0
C3226 C 0.06253 0.28411 0.87605 0.0
C3227 C 0.05192 0.26758 0.88011 0.0
C3228 C 0.07738 0.2833 0.86774 0.0
C3229 C 0.09757 0.25025 0.83957 0.0
H3230 H 0.14014 0.29021 0.85734 0.0
C3231 C 0.15595 0.25814 0.79868 0.0
C3232 C 0.17315 0.26312 0.80962 0.0
C3233 C 0.1414 0.25843 0.80764 0.0
C3234 C 0.12842 0.27884 0.85231 0.0
H3235 H 0.04865 0.23717 0.87846 0.0
H3236 H 0.07458 0.23577 0.86403 0.0
H3237 H 0.11444 0.29096 0.87234 0.0
H3238 H 0.18839 0.27228 0.83873 0.0
H3239 H 0.16297 0.27284 0.85438 0.0
H3240 H 0.11161 0.23801 0.8197 0.0
C3241 C 0.07132 0.24936 0.86712 0.0
C3242 C 0.11359 0.27939 0.86076 0.0
C3243 C 0.05647 0.25018 0.87548 0.0
C3244 C 0.17538 0.26856 0.82981 0.0
C3245 C 0.16079 0.26887 0.83879 0.0
C3246 C 0.11238 0.24973 0.83108 0.0
C3247 C 0.08202 0.26593 0.86322 0.0
C3248 C 0.09794 0.26515 0.85445 0.0
C3249 C 0.1436 0.26375 0.82782 0.0
C3250 C 0.12798 0.26407 0.83726 0.0
H3251 H 0.05943 0.29776 0.87937 0.0
H3252 H 0.08513 0.2963 0.86467 0.0
H3253 H 0.08572 0.23912 0.83422 0.0
H3254 H 0.15371 0.25428 0.78307 0.0
H3255 H 0.12841 0.25476 0.79867 0.0
C3256 C 0.48951 0.71396 0.90877 0.0
C3257 C 0.50172 0.72772 0.90252 0.0
C3258 C 0.49463 0.69872 0.91599 0.0
C3259 C 0.53368 0.68611 0.94003 0.0
H3260 H 0.5025 0.63593 0.93171 0.0
C3261 C 0.55097 0.62612 0.97919 0.0
C3262 C 0.5374 0.61646 0.98752 0.0
C3263 C 0.54752 0.63827 0.96618 0.0
C3264 C 0.51133 0.64989 0.93417 0.0
H3265 H 0.52871 0.73587 0.89818 0.0
H3266 H 0.53761 0.70916 0.91072 0.0
H3267 H 0.49472 0.65964 0.91293 0.0
H3268 H 0.50965 0.6121 0.9889 0.0
H3269 H 0.50365 0.63321 0.96623 0.0
H3270 H 0.55005 0.67653 0.96164 0.0
C3271 C 0.52414 0.71032 0.91025 0.0
C3272 C 0.50689 0.66344 0.92343 0.0
C3273 C 0.51901 0.72557 0.90301 0.0
C3274 C 0.52032 0.61909 0.98248 0.0
C3275 C 0.51687 0.63115 0.96946 0.0
C3276 C 0.53813 0.67255 0.95075 0.0
C3277 C 0.51207 0.69691 0.91709 0.0
C3278 C 0.51781 0.68182 0.92659 0.0
C3279 C 0.53044 0.64091 0.96123 0.0
C3280 C 0.52679 0.65446 0.94825 0.0
H3281 H 0.47607 0.71518 0.90856 0.0
H3282 H 0.48508 0.68876 0.92138 0.0
H3283 H 0.54227 0.70022 0.94295 0.0
H3284 H 0.56422 0.62417 0.98258 0.0
H3285 H 0.55819 0.64551 0.95993 0.0
C3286 C 0.10324 0.75494 0.72291 0.0
C3287 C 0.09286 0.7386 0.72752 0.0
C3288 C 0.12142 0.75972 0.72906 0.0
C3289 C 0.15948 0.77092 0.74832 0.0
H3290 H 0.18184 0.72877 0.74218 0.0
C3291 C 0.23471 0.78297 0.75655 0.0
C3292 C 0.24102 0.77127 0.74332 0.0
C3293 C 0.21696 0.77893 0.75793 0.0
C3294 C 0.1758 0.74071 0.74386 0.0
H3295 H 0.0933 0.71511 0.74328 0.0
H3296 H 0.12514 0.72372 0.75442 0.0
H3297 H 0.15007 0.7225 0.73942 0.0
H3298 H 0.23366 0.74627 0.72102 0.0
H3299 H 0.20249 0.73968 0.72275 0.0
H3300 H 0.18504 0.78912 0.75144 0.0
C3301 C 0.11921 0.73257 0.74562 0.0
C3302 C 0.15759 0.73711 0.74262 0.0
C3303 C 0.10097 0.7277 0.73933 0.0
C3304 C 0.22919 0.75552 0.73139 0.0
C3305 C 0.21136 0.75163 0.73255 0.0
C3306 C 0.17765 0.77451 0.74934 0.0
C3307 C 0.12968 0.74837 0.74014 0.0
C3308 C 0.14917 0.75218 0.74436 0.0
C3309 C 0.20503 0.76327 0.74587 0.0
C3310 C 0.18598 0.75944 0.74667 0.0
H3311 H 0.09743 0.76368 0.71386 0.0
H3312 H 0.12905 0.77182 0.72431 0.0
H3313 H 0.15344 0.78285 0.75008 0.0
H3314 H 0.24352 0.79509 0.76612 0.0
H3315 H 0.21263 0.78802 0.76857 0.0
C3316 C 0.03575 0.34066 0.45161 0.0
C3317 C 0.02202 0.32538 0.45288 0.0
C3318 C 0.03725 0.35872 0.4621 0.0
C3319 C 0.04168 0.39178 0.49599 0.0
H3320 H 0.99988 0.41186 0.49118 0.0
C3321 C 0.03789 0.46296 0.54057 0.0
C3322 C 0.03281 0.47554 0.52868 0.0
C3323 C 0.03593 0.44384 0.5328 0.0
C3324 C 0.0116 0.40635 0.49275 0.0
H3325 H 0.99904 0.31711 0.46601 0.0
H3326 H 1.00155 0.34853 0.4839 0.0
H3327 H 0.99848 0.3802 0.474 0.0
H3328 H 0.02172 0.47797 0.49945 0.0
H3329 H 0.01752 0.44469 0.48626 0.0
H3330 H 0.0548 0.41809 0.51469 0.0
C3331 C 0.01118 0.34655 0.47493 0.0
C3332 C 0.01081 0.38828 0.48296 0.0
C3333 C 0.00981 0.32855 0.46472 0.0
C3334 C 0.02526 0.46858 0.50913 0.0
C3335 C 0.02298 0.44952 0.50151 0.0
C3336 C 0.04241 0.40979 0.50603 0.0
C3337 C 0.02488 0.3618 0.47374 0.0
C3338 C 0.02587 0.38091 0.48433 0.0
C3339 C 0.02857 0.43705 0.51315 0.0
C3340 C 0.02742 0.41729 0.5043 0.0
H3341 H 0.04537 0.33863 0.44265 0.0
H3342 H 0.04788 0.37034 0.46087 0.0
H3343 H 0.05343 0.38632 0.49738 0.0
H3344 H 0.0439 0.468 0.55565 0.0
H3345 H 0.04031 0.43442 0.54204 0.0
C3346 C 0.50448 0.25382 0.23033 0.0
C3347 C 0.5087 0.23627 0.23159 0.0
C3348 C 0.48983 0.25787 0.2371 0.0
C3349 C 0.45731 0.24284 0.26808 0.0
H3350 H 0.43187 0.27332 0.23919 0.0
C3351 C 0.38999 0.26056 0.27906 0.0
C3352 C 0.39064 0.28015 0.28145 0.0
C3353 C 0.40435 0.25381 0.27433 0.0
C3354 C 0.43889 0.26481 0.24738 0.0
H3355 H 0.501 0.20923 0.24115 0.0
H3356 H 0.47492 0.21608 0.2525 0.0
H3357 H 0.45649 0.26354 0.22752 0.0
H3358 H 0.40737 0.308 0.28198 0.0
H3359 H 0.43205 0.29608 0.27297 0.0
H3360 H 0.43912 0.24389 0.28766 0.0
C3361 C 0.48318 0.22687 0.2466 0.0
C3362 C 0.45306 0.2593 0.24081 0.0
C3363 C 0.49807 0.22291 0.24004 0.0
C3364 C 0.40621 0.29282 0.27975 0.0
C3365 C 0.42039 0.28604 0.27474 0.0
C3366 C 0.44287 0.24813 0.27449 0.0
C3367 C 0.47879 0.24435 0.24501 0.0
C3368 C 0.46276 0.24866 0.25131 0.0
C3369 C 0.41946 0.26649 0.27165 0.0
C3370 C 0.43383 0.25951 0.26439 0.0
H3371 H 0.51255 0.26454 0.22415 0.0
H3372 H 0.48721 0.2717 0.23616 0.0
H3373 H 0.46452 0.23473 0.27658 0.0
H3374 H 0.37816 0.25037 0.28004 0.0
H3375 H 0.40337 0.23865 0.27192 0.0
C3376 C 0.61383 0.51299 0.36004 0.0
C3377 C 0.61717 0.53141 0.3555 0.0
C3378 C 0.60734 0.50952 0.37693 0.0
C3379 C 0.58407 0.53172 0.41205 0.0
H3380 H 0.59452 0.49367 0.4424 0.0
C3381 C 0.56462 0.52898 0.48594 0.0
C3382 C 0.55329 0.51186 0.48752 0.0
C3383 C 0.57397 0.52991 0.47078 0.0
C3384 C 0.59149 0.50427 0.43395 0.0
H3385 H 0.61769 0.5608 0.36563 0.0
H3386 H 0.60736 0.55503 0.39534 0.0
H3387 H 0.6084 0.49846 0.4141 0.0
H3388 H 0.54366 0.48204 0.47527 0.0
H3389 H 0.56034 0.48365 0.44867 0.0
H3390 H 0.56759 0.53788 0.43212 0.0
C3391 C 0.60883 0.54303 0.38558 0.0
C3392 C 0.59935 0.50699 0.41773 0.0
C3393 C 0.61492 0.5464 0.36861 0.0
C3394 C 0.55226 0.49541 0.4743 0.0
C3395 C 0.56183 0.49631 0.45918 0.0
C3396 C 0.57651 0.52922 0.42833 0.0
C3397 C 0.60437 0.52448 0.38968 0.0
C3398 C 0.59587 0.52092 0.40669 0.0
C3399 C 0.57234 0.51371 0.45701 0.0
C3400 C 0.58024 0.51562 0.43952 0.0
H3401 H 0.61545 0.50118 0.35011 0.0
H3402 H 0.60401 0.49504 0.37956 0.0
H3403 H 0.58054 0.54212 0.4036 0.0
H3404 H 0.56567 0.54189 0.49589 0.0
H3405 H 0.58209 0.54346 0.46946 0.0
C3406 C 0.21458 0.78943 1.00033 0.0
C3407 C 0.21456 0.80838 0.99884 0.0
C3408 C 0.21314 0.78292 0.01781 0.0
C3409 C 0.20667 0.79638 0.06852 0.0
H3410 H 0.24462 0.77139 0.08043 0.0
C3411 C 0.24298 0.79711 0.14623 0.0
C3412 C 0.24832 0.78059 0.14993 0.0
C3413 C 0.23494 0.79825 0.12756 0.0
C3414 C 0.23375 0.77805 0.07731 0.0
H3415 H 0.21103 0.83477 0.01379 0.0
H3416 H 0.20908 0.82361 0.04439 0.0
H3417 H 0.23598 0.77631 0.0476 0.0
H3418 H 0.2483 0.75187 0.1375 0.0
H3419 H 0.23431 0.75386 0.10506 0.0
H3420 H 0.20511 0.79876 0.09869 0.0
C3421 C 0.21004 0.81367 0.03209 0.0
C3422 C 0.22871 0.78079 0.0584 0.0
C3423 C 0.21125 0.82012 0.01453 0.0
C3424 C 0.24476 0.76498 0.13492 0.0
C3425 C 0.23669 0.76608 0.11637 0.0
C3426 C 0.21179 0.79367 0.08755 0.0
C3427 C 0.21189 0.79531 0.0342 0.0
C3428 C 0.21527 0.79021 0.05379 0.0
C3429 C 0.23204 0.78286 0.11238 0.0
C3430 C 0.22554 0.78468 0.09214 0.0
H3431 H 0.21678 0.77994 0.98836 0.0
H3432 H 0.21408 0.7685 0.01882 0.0
H3433 H 0.19619 0.80358 0.06541 0.0
H3434 H 0.24554 0.80932 0.15758 0.0
H3435 H 0.23162 0.81142 0.12486 0.0
C3436 C 0.93744 0.55107 0.83971 0.0
C3437 C 0.94661 0.55045 0.8241 0.0
C3438 C 0.94555 0.54966 0.85865 0.0
C3439 C 0.98431 0.53309 0.88364 0.0
H3440 H 0.97308 0.55554 0.93135 0.0
C3441 C 0.02755 0.53387 0.95795 0.0
C3442 C 0.01996 0.53139 0.97448 0.0
C3443 C 0.01768 0.53608 0.94047 0.0
C3444 C 0.97631 0.54897 0.9182 0.0
H3445 H 0.9719 0.54876 0.81686 0.0
H3446 H 0.98604 0.5473 0.84931 0.0
H3447 H 0.95817 0.56051 0.90009 0.0
H3448 H 0.99559 0.5297 0.98524 0.0
H3449 H 0.9782 0.5336 0.95464 0.0
H3450 H 1.00241 0.52161 0.90152 0.0
C3451 C 0.97242 0.54816 0.84714 0.0
C3452 C 0.96769 0.55185 0.9001 0.0
C3453 C 0.96432 0.54936 0.82836 0.0
C3454 C 1.00194 0.53136 0.97287 0.0
C3455 C 0.99199 0.53378 0.95526 0.0
C3456 C 0.99292 0.53031 0.90161 0.0
C3457 C 0.96311 0.54761 0.86265 0.0
C3458 C 0.9717 0.54419 0.88237 0.0
C3459 C 0.99967 0.53608 0.93862 0.0
C3460 C 0.98934 0.53836 0.91935 0.0
H3461 H 0.9237 0.55147 0.83707 0.0
H3462 H 0.93774 0.54931 0.86994 0.0
H3463 H 0.98755 0.52625 0.87064 0.0
H3464 H 0.04137 0.53416 0.95848 0.0
H3465 H 0.02439 0.53815 0.9284 0.0
C3466 C 0.28264 0.17979 0.5724 0.0
C3467 C 0.26614 0.18039 0.56213 0.0
C3468 C 0.28745 0.18693 0.59233 0.0
C3469 C 0.26796 0.19403 0.63497 0.0
H3470 H 0.30703 0.23718 0.65681 0.0
C3471 C 0.26831 0.24066 0.70587 0.0
C3472 C 0.28404 0.24748 0.71944 0.0
C3473 C 0.26837 0.23152 0.68736 0.0
C3474 C 0.29627 0.2249 0.65102 0.0
H3475 H 0.24181 0.18896 0.56477 0.0
H3476 H 0.25005 0.20087 0.59926 0.0
H3477 H 0.3036 0.22213 0.62295 0.0
H3478 H 0.31232 0.25048 0.72397 0.0
H3479 H 0.31238 0.23429 0.69149 0.0
H3480 H 0.26034 0.19675 0.66265 0.0
C3481 C 0.25929 0.19504 0.59195 0.0
C3482 C 0.29434 0.21631 0.63169 0.0
C3483 C 0.25464 0.18828 0.57215 0.0
C3484 C 0.29995 0.24536 0.71387 0.0
C3485 C 0.3 0.23612 0.69526 0.0
C3486 C 0.26994 0.20245 0.65423 0.0
C3487 C 0.27565 0.19435 0.60226 0.0
C3488 C 0.27983 0.20121 0.62338 0.0
C3489 C 0.28415 0.22884 0.6819 0.0
C3490 C 0.28373 0.21842 0.6623 0.0
H3491 H 0.29179 0.17384 0.56505 0.0
H3492 H 0.30016 0.1863 0.60006 0.0
H3493 H 0.25677 0.18225 0.62891 0.0
H3494 H 0.25583 0.24222 0.70953 0.0
H3495 H 0.25597 0.22657 0.67728 0.0
C3496 C 0.60999 0.50502 0.23664 0.0
C3497 C 0.60092 0.5125 0.2502 0.0
C3498 C 0.60212 0.49987 0.21704 0.0
C3499 C 0.5807 0.48614 0.17585 0.0
H3500 H 0.55751 0.52456 0.15924 0.0
C3501 C 0.54936 0.48652 0.0956 0.0
C3502 C 0.55313 0.50433 0.08961 0.0
C3503 C 0.55424 0.48492 0.11507 0.0
C3504 C 0.56394 0.51371 0.16362 0.0
H3505 H 0.57593 0.51857 0.25425 0.0
H3506 H 0.56209 0.50911 0.22028 0.0
H3507 H 0.56711 0.52516 0.19352 0.0
H3508 H 0.5654 0.5343 0.0993 0.0
H3509 H 0.57384 0.53146 0.13296 0.0
H3510 H 0.578 0.47521 0.14562 0.0
C3511 C 0.57546 0.50783 0.22459 0.0
C3512 C 0.56925 0.51388 0.18332 0.0
C3513 C 0.58336 0.51316 0.24408 0.0
C3514 C 0.56216 0.52037 0.10338 0.0
C3515 C 0.56693 0.51878 0.12273 0.0
C3516 C 0.5753 0.48594 0.15602 0.0
C3517 C 0.585 0.50195 0.21071 0.0
C3518 C 0.57792 0.50028 0.18971 0.0
C3519 C 0.56282 0.50112 0.12887 0.0
C3520 C 0.5672 0.49999 0.14974 0.0
H3521 H 0.62355 0.50433 0.24094 0.0
H3522 H 0.60987 0.49544 0.20673 0.0
H3523 H 0.58724 0.4754 0.18031 0.0
H3524 H 0.54246 0.47387 0.08534 0.0
H3525 H 0.55089 0.47113 0.11942 0.0
C3526 C 0.22571 0.85447 0.89582 0.0
C3527 C 0.21881 0.83713 0.90154 0.0
C3528 C 0.22942 0.85471 0.87716 0.0
C3529 C 0.25407 0.84211 0.85184 0.0
H3530 H 0.23053 0.80842 0.80399 0.0
C3531 C 0.26827 0.7801 0.79565 0.0
C3532 C 0.28495 0.78835 0.79213 0.0
C3533 C 0.25892 0.79108 0.80543 0.0
C3534 C 0.23731 0.81791 0.81726 0.0
H3535 H 0.20784 0.80707 0.89171 0.0
H3536 H 0.21369 0.80753 0.85902 0.0
H3537 H 0.21308 0.82011 0.82637 0.0
H3538 H 0.3057 0.81397 0.79768 0.0
H3539 H 0.28912 0.83358 0.81445 0.0
H3540 H 0.27825 0.83847 0.84383 0.0
C3541 C 0.21653 0.82089 0.86886 0.0
C3542 C 0.22729 0.82479 0.8299 0.0
C3543 C 0.2132 0.82058 0.8876 0.0
C3544 C 0.29257 0.80754 0.79959 0.0
C3545 C 0.28315 0.81865 0.80935 0.0
C3546 C 0.26408 0.83501 0.83935 0.0
C3547 C 0.22587 0.83768 0.86396 0.0
C3548 C 0.2356 0.8361 0.84779 0.0
C3549 C 0.26601 0.8106 0.81195 0.0
C3550 C 0.25578 0.82193 0.8225 0.0
H3551 H 0.23022 0.86741 0.90636 0.0
H3552 H 0.23656 0.86783 0.87366 0.0
H3553 H 0.26085 0.8507 0.86561 0.0
H3554 H 0.26209 0.76526 0.79021 0.0
H3555 H 0.24607 0.78419 0.80783 0.0
C3556 C 0.94532 0.55981 0.70742 0.0
C3557 C 0.93843 0.54282 0.71401 0.0
C3558 C 0.9534 0.55955 0.69067 0.0
C3559 C 0.95775 0.52606 0.64632 0.0
H3560 H 0.99918 0.56456 0.64457 0.0
C3561 C 0.99148 0.52455 0.57745 0.0
C3562 C 0.00992 0.53125 0.57968 0.0
C3563 C 0.98254 0.52673 0.59322 0.0
C3564 C 0.98769 0.55351 0.64471 0.0
H3565 H 0.93456 0.51227 0.70726 0.0
H3566 H 0.94804 0.51184 0.67881 0.0
H3567 H 0.98408 0.56728 0.67218 0.0
H3568 H 0.0331 0.54572 0.60106 0.0
H3569 H 0.01775 0.54932 0.62828 0.0
H3570 H 0.96143 0.51206 0.61919 0.0
C3571 C 0.9473 0.52547 0.68623 0.0
C3572 C 0.9788 0.55524 0.66064 0.0
C3573 C 0.93952 0.52575 0.70286 0.0
C3574 C 0.01896 0.54026 0.59846 0.0
C3575 C 0.01002 0.5425 0.61423 0.0
C3576 C 0.96655 0.52438 0.63041 0.0
C3577 C 0.95465 0.54231 0.67972 0.0
C3578 C 0.9637 0.54142 0.66196 0.0
C3579 C 0.99155 0.53578 0.61206 0.0
C3580 C 0.98185 0.53797 0.62921 0.0
H3581 H 0.94508 0.57331 0.71556 0.0
H3582 H 0.95871 0.57294 0.68633 0.0
H3583 H 0.94611 0.51512 0.64626 0.0
H3584 H 0.98382 0.51764 0.56338 0.0
H3585 H 0.96838 0.5215 0.59046 0.0
C3586 C 0.26562 0.20323 0.46123 0.0
C3587 C 0.2655 0.18392 0.46069 0.0
C3588 C 0.26937 0.21228 0.44567 0.0
C3589 C 0.26468 0.20327 0.39362 0.0
H3590 H 0.29611 0.25314 0.4004 0.0
C3591 C 0.27615 0.24198 0.32876 0.0
C3592 C 0.27954 0.26189 0.33175 0.0
C3593 C 0.27506 0.23211 0.34432 0.0
C3594 C 0.28706 0.23936 0.39824 0.0
H3595 H 0.26959 0.159 0.4436 0.0
H3596 H 0.27573 0.17483 0.41589 0.0
H3597 H 0.29432 0.23639 0.4279 0.0
H3598 H 0.28377 0.28707 0.35325 0.0
H3599 H 0.28109 0.26987 0.38043 0.0
H3600 H 0.25674 0.20645 0.36426 0.0
C3601 C 0.27308 0.18293 0.42857 0.0
C3602 C 0.2862 0.22969 0.414 0.0
C3603 C 0.26969 0.17392 0.44442 0.0
C3604 C 0.28123 0.27173 0.35056 0.0
C3605 C 0.27988 0.26183 0.36614 0.0
C3606 C 0.26532 0.21305 0.37792 0.0
C3607 C 0.27277 0.20216 0.42901 0.0
C3608 C 0.27493 0.2116 0.41188 0.0
C3609 C 0.27705 0.24187 0.3633 0.0
C3610 C 0.27645 0.23131 0.38001 0.0
H3611 H 0.26249 0.21131 0.47361 0.0
H3612 H 0.26891 0.22705 0.44637 0.0
H3613 H 0.25566 0.18947 0.39166 0.0
H3614 H 0.2749 0.23399 0.31442 0.0
H3615 H 0.27314 0.21683 0.34148 0.0
C3616 C 0.33278 0.62094 0.54968 0.0
C3617 C 0.33912 0.64073 0.55475 0.0
C3618 C 0.34419 0.60894 0.5526 0.0
C3619 C 0.38992 0.61165 0.55124 0.0
H3620 H 0.38137 0.56106 0.56441 0.0
C3621 C 0.44074 0.56737 0.54531 0.0
C3622 C 0.43461 0.54793 0.53768 0.0
C3623 C 0.42918 0.57812 0.55075 0.0
C3624 C 0.38386 0.57511 0.56054 0.0
H3625 H 0.3617 0.66331 0.56907 0.0
H3626 H 0.38151 0.64236 0.57424 0.0
H3627 H 0.36057 0.58089 0.56971 0.0
H3628 H 0.41142 0.52451 0.53014 0.0
H3629 H 0.39103 0.54359 0.53864 0.0
H3630 H 0.41256 0.60584 0.54116 0.0
C3631 C 0.36787 0.63617 0.56761 0.0
C3632 C 0.37203 0.58647 0.56371 0.0
C3633 C 0.35652 0.64814 0.56467 0.0
C3634 C 0.41657 0.5395 0.53571 0.0
C3635 C 0.40491 0.55038 0.54089 0.0
C3636 C 0.40157 0.60031 0.54788 0.0
C3637 C 0.36204 0.61659 0.56068 0.0
C3638 C 0.375 0.60485 0.55907 0.0
C3639 C 0.41108 0.56987 0.54829 0.0
C3640 C 0.39871 0.5819 0.55247 0.0
H3641 H 0.31939 0.61479 0.54214 0.0
H3642 H 0.33935 0.59389 0.54714 0.0
H3643 H 0.39229 0.62556 0.54701 0.0
H3644 H 0.45447 0.57448 0.54679 0.0
H3645 H 0.43446 0.59302 0.55671 0.0
C3646 C 0.86337 0.91242 0.53468 0.0
C3647 C 0.85168 0.91722 0.54649 0.0
C3648 C 0.87906 0.92528 0.53438 0.0
C3649 C 0.91277 0.96383 0.56391 0.0
H3650 H 0.92755 0.97109 0.5151 0.0
C3651 C 0.98168 0.00942 0.55991 0.0
C3652 C 0.98996 1.00293 0.54506 0.0
C3653 C 0.9642 1.00073 0.56042 0.0
C3654 C 0.92376 0.96907 0.52888 0.0
H3655 H 0.84716 0.93942 0.56712 0.0
H3656 H 0.87516 0.96201 0.56699 0.0
H3657 H 0.89775 0.95345 0.51518 0.0
H3658 H 0.98648 0.98227 0.51911 0.0
H3659 H 0.95637 0.96662 0.52036 0.0
H3660 H 0.939 0.97868 0.57764 0.0
C3661 C 0.87192 0.94823 0.55783 0.0
C3662 C 0.90661 0.9591 0.5289 0.0
C3663 C 0.85591 0.9354 0.55783 0.0
C3664 C 0.98051 0.98748 0.53084 0.0
C3665 C 0.96312 0.97869 0.53142 0.0
C3666 C 0.93005 0.97365 0.5639 0.0
C3667 C 0.88365 0.94322 0.54611 0.0
C3668 C 0.90102 0.95607 0.54638 0.0
C3669 C 0.95462 0.9853 0.5461 0.0
C3670 C 0.93589 0.97607 0.54635 0.0
H3671 H 0.86046 0.89855 0.52571 0.0
H3672 H 0.88788 0.92094 0.52534 0.0
H3673 H 0.90887 0.96153 0.57759 0.0
H3674 H 0.98863 0.02139 0.57101 0.0
H3675 H 0.9581 0.00637 0.57182 0.0
C3676 C 0.9025 0.05742 0.25521 0.0
C3677 C 0.89672 0.04377 0.26657 0.0
C3678 C 0.8944 0.07247 0.25333 0.0
C3679 C 0.85303 0.08675 0.25729 0.0
H3680 H 0.88119 0.13754 0.25906 0.0
C3681 C 0.82186 0.15105 0.25739 0.0
C3682 C 0.82792 0.16486 0.24633 0.0
C3683 C 0.83067 0.13676 0.26045 0.0
C3684 C 0.87312 0.12341 0.2583 0.0
H3685 H 0.87787 0.03532 0.28495 0.0
H3686 H 0.8637 0.06165 0.28167 0.0
H3687 H 0.89566 0.11166 0.26342 0.0
H3688 H 0.84811 0.17463 0.22997 0.0
H3689 H 0.86343 0.14943 0.23505 0.0
H3690 H 0.83048 0.09835 0.25192 0.0
C3691 C 0.87446 0.06059 0.2741 0.0
C3692 C 0.88142 0.10858 0.26084 0.0
C3693 C 0.88263 0.04555 0.27605 0.0
C3694 C 0.8432 0.16424 0.23866 0.0
C3695 C 0.85198 0.14983 0.24162 0.0
C3696 C 0.84473 0.10154 0.25467 0.0
C3697 C 0.88025 0.07422 0.26271 0.0
C3698 C 0.87147 0.09007 0.26036 0.0
C3699 C 0.84573 0.13581 0.25243 0.0
C3700 C 0.85466 0.12008 0.25516 0.0
H3701 H 0.91331 0.0565 0.24767 0.0
H3702 H 0.89904 0.08257 0.24425 0.0
H3703 H 0.84497 0.0726 0.25652 0.0
H3704 H 0.81032 0.15137 0.26383 0.0
H3705 H 0.8257 0.12649 0.26922 0.0
C3706 C 0.7762 0.1583 0.10815 0.0
C3707 C 0.78644 0.15662 0.09375 0.0
C3708 C 0.7607 0.14467 0.10739 0.0
C3709 C 0.73454 0.09664 0.08268 0.0
H3710 H 0.69537 0.11735 0.09442 0.0
C3711 C 0.66114 0.0562 0.05966 0.0
C3712 C 0.65073 0.05733 0.07397 0.0
C3713 C 0.67845 0.06711 0.06304 0.0
C3714 C 0.70622 0.11134 0.09128 0.0
H3715 H 0.78888 0.13891 0.06773 0.0
H3716 H 0.76159 0.11545 0.06608 0.0
H3717 H 0.72452 0.13829 0.09917 0.0
H3718 H 0.65014 0.07078 0.10293 0.0
H3719 H 0.6803 0.08985 0.10878 0.0
H3720 H 0.71588 0.06974 0.07416 0.0
C3721 C 0.76565 0.12707 0.07818 0.0
C3722 C 0.72297 0.1233 0.0941 0.0
C3723 C 0.78129 0.14059 0.07907 0.0
C3724 C 0.65794 0.06948 0.09172 0.0
C3725 C 0.67513 0.08049 0.09502 0.0
C3726 C 0.7177 0.08469 0.07966 0.0
C3727 C 0.75496 0.1292 0.09207 0.0
C3728 C 0.73735 0.11613 0.08985 0.0
C3729 C 0.68551 0.0795 0.08068 0.0
C3730 C 0.70341 0.09195 0.08394 0.0
H3731 H 0.77995 0.17039 0.11978 0.0
H3732 H 0.75301 0.14649 0.11861 0.0
H3733 H 0.74536 0.09061 0.07946 0.0
H3734 H 0.6559 0.04688 0.04589 0.0
H3735 H 0.68617 0.06621 0.05171 0.0
C3736 C 0.17911 0.43344 0.30761 0.0
C3737 C 0.18157 0.4481 0.29632 0.0
C3738 C 0.18794 0.41852 0.30618 0.0
C3739 C 0.22573 0.40214 0.28624 0.0
H3740 H 0.20342 0.35418 0.2994 0.0
C3741 C 0.26329 0.34017 0.29135 0.0
C3742 C 0.25384 0.32096 0.28816 0.0
C3743 C 0.25469 0.35541 0.292 0.0
C3744 C 0.21001 0.36729 0.29545 0.0
H3745 H 0.19599 0.45782 0.27445 0.0
H3746 H 0.21124 0.4318 0.27172 0.0
H3747 H 0.18858 0.37998 0.30022 0.0
H3748 H 0.22731 0.30339 0.28302 0.0
H3749 H 0.21245 0.32946 0.2839 0.0
H3750 H 0.24695 0.38916 0.28091 0.0
C3751 C 0.20246 0.43196 0.28203 0.0
C3752 C 0.20144 0.38252 0.29622 0.0
C3753 C 0.19356 0.44706 0.28351 0.0
C3754 C 0.2353 0.31778 0.28568 0.0
C3755 C 0.22668 0.33302 0.28629 0.0
C3756 C 0.23431 0.38685 0.28543 0.0
C3757 C 0.19979 0.41715 0.29326 0.0
C3758 C 0.20906 0.40048 0.29178 0.0
C3759 C 0.23611 0.35233 0.28943 0.0
C3760 C 0.22674 0.36895 0.29009 0.0
H3761 H 0.17023 0.43341 0.31783 0.0
H3762 H 0.18552 0.40811 0.3156 0.0
H3763 H 0.23244 0.41544 0.28275 0.0
H3764 H 0.27751 0.34356 0.29336 0.0
H3765 H 0.26282 0.36972 0.29479 0.0
C3766 C 0.25569 0.43342 0.02103 0.0
C3767 C 0.26041 0.42435 0.03668 0.0
C3768 C 0.24161 0.44227 0.02038 0.0
C3769 C 0.21294 0.46149 0.051 0.0
H3770 H 0.18259 0.45738 1.00149 0.0
C3771 C 0.15961 0.50468 0.04118 0.0
C3772 C 0.14336 0.49581 0.02898 0.0
C3773 C 0.17381 0.49598 0.04215 0.0
C3774 C 0.19081 0.45856 0.01548 0.0
H3775 H 0.25397 0.4177 0.06408 0.0
H3776 H 0.22929 0.43296 0.06288 0.0
H3777 H 0.20714 0.44207 0.00341 0.0
H3778 H 0.12957 0.47076 0.00803 0.0
H3779 H 0.15417 0.45545 0.00999 0.0
H3780 H 0.19636 0.47761 0.06314 0.0
C3781 C 0.23664 0.43344 0.05117 0.0
C3782 C 0.20509 0.44996 0.01655 0.0
C3783 C 0.25078 0.4246 0.05183 0.0
C3784 C 0.14179 0.47799 0.01772 0.0
C3785 C 0.156 0.46928 0.01869 0.0
C3786 C 0.19865 0.47008 0.04993 0.0
C3787 C 0.23176 0.44229 0.03535 0.0
C3788 C 0.21641 0.45134 0.03431 0.0
C3789 C 0.17222 0.47812 0.03097 0.0
C3790 C 0.18739 0.46879 0.03214 0.0
H3791 H 0.26283 0.43362 0.00913 0.0
H3792 H 0.23852 0.44922 0.00814 0.0
H3793 H 0.22141 0.46303 0.06491 0.0
H3794 H 0.16131 0.51826 0.0503 0.0
H3795 H 0.18611 0.50338 0.05159 0.0
C3796 C 0.90334 0.92835 0.24586 0.0
C3797 C 0.90083 0.9468 0.25013 0.0
C3798 C 0.88993 0.91251 0.24587 0.0
C3799 C 0.84219 0.89572 0.24444 0.0
H3800 H 0.85694 0.85694 0.27092 0.0
C3801 C 0.81055 0.82585 0.27849 0.0
C3802 C 0.7972 0.81588 0.26299 0.0
C3803 C 0.82257 0.84205 0.27625 0.0
C3804 C 0.85258 0.86768 0.26358 0.0
H3805 H 0.88193 0.96301 0.25698 0.0
H3806 H 0.85843 0.93521 0.25714 0.0
H3807 H 0.87877 0.88482 0.26785 0.0
H3808 H 0.78557 0.81522 0.23313 0.0
H3809 H 0.80667 0.84365 0.22913 0.0
H3810 H 0.81589 0.87858 0.24048 0.0
C3811 C 0.87082 0.93308 0.25368 0.0
C3812 C 0.86512 0.88356 0.26161 0.0
C3813 C 0.88429 0.949 0.25365 0.0
C3814 C 0.7958 0.82265 0.24529 0.0
C3815 C 0.80781 0.83894 0.24305 0.0
C3816 C 0.82961 0.87973 0.24634 0.0
C3817 C 0.87364 0.91468 0.2502 0.0
C3818 C 0.8601 0.89778 0.25202 0.0
C3819 C 0.82143 0.84871 0.25846 0.0
C3820 C 0.83467 0.86558 0.25602 0.0
H3821 H 0.91584 0.92608 0.24287 0.0
H3822 H 0.8924 0.89853 0.24273 0.0
H3823 H 0.83793 0.90638 0.23688 0.0
H3824 H 0.81169 0.82116 0.29242 0.0
H3825 H 0.8327 0.84945 0.28851 0.0
C3826 C 0.69935 0.06727 0.7773 0.0
C3827 C 0.69356 0.06405 0.79471 0.0
C3828 C 0.70933 0.08529 0.7755 0.0
C3829 C 0.73635 0.13248 0.80372 0.0
H3830 H 0.72196 0.15215 0.75727 0.0
C3831 C 0.76294 0.21266 0.79815 0.0
C3832 C 0.76373 0.2182 0.7799 0.0
C3833 C 0.7552 0.19378 0.79986 0.0
C3834 C 0.72655 0.147 0.77028 0.0
H3835 H 0.69398 0.07756 0.82384 0.0
H3836 H 0.71194 0.10842 0.82109 0.0
H3837 H 0.70847 0.11974 0.76027 0.0
H3838 H 0.75704 0.20753 0.74908 0.0
H3839 H 0.74434 0.17486 0.75193 0.0
H3840 H 0.75465 0.15944 0.81367 0.0
C3841 C 0.70889 0.09709 0.80876 0.0
C3842 C 0.71865 0.12818 0.772 0.0
C3843 C 0.69867 0.07923 0.81042 0.0
C3844 C 0.75665 0.20404 0.76343 0.0
C3845 C 0.74914 0.18511 0.76512 0.0
C3846 C 0.74444 0.15121 0.8019 0.0
C3847 C 0.71401 0.10068 0.7911 0.0
C3848 C 0.72327 0.12056 0.78882 0.0
C3849 C 0.7481 0.17948 0.78338 0.0
C3850 C 0.73965 0.15903 0.78519 0.0
H3851 H 0.6952 0.05622 0.76467 0.0
H3852 H 0.71304 0.08729 0.76167 0.0
H3853 H 0.74052 0.12726 0.81685 0.0
H3854 H 0.76808 0.22303 0.81124 0.0
H3855 H 0.75455 0.19059 0.81425 0.0
loop_
_geom_bond_atom_site_label_1
_geom_bond_atom_site_label_2
_geom_bond_distance
_geom_bond_site_symmetry_2
_ccdc_geom_bond_type
Zn0 O3 2.031 . S
Zn0 O5 2.049 . S
Zn0 O10 2.067 . S
Zn1 O2 1.962 . S
Zn1 O4 1.986 . S
Zn1 O6 1.996 . S
Zn1 O9 1.943 1_455 S
O2 Zn1 1.962 . S
O2 C7 1.254 . S
O3 Zn0 2.031 . S
O3 C7 1.269 1_655 S
O4 Zn1 1.986 . S
O4 C11 1.262 . S
O5 Zn0 2.049 . S
O5 C13 1.260 . S
O6 Zn1 1.996 . S
O6 C13 1.257 1_455 S
C7 O2 1.254 . S
C7 O3 1.269 1_455 S
C8 O9 1.249 . S
C8 O10 1.270 . S
O9 Zn1 1.943 1_655 S
O9 C8 1.249 . S
O10 Zn0 2.067 . S
O10 C8 1.270 . S
C11 O4 1.262 . S
C11 O12 1.232 . S
O12 C11 1.232 . S
C13 O5 1.260 . S
C13 O6 1.257 1_655 S
Zn14 O17 2.031 . S
Zn14 O19 2.049 . S
Zn14 O24 2.067 . S
Zn15 O16 1.962 . S
Zn15 O18 1.986 . S
Zn15 O20 1.996 . S
Zn15 O23 1.943 . S
O16 Zn15 1.962 . S
O16 C21 1.254 . S
O17 Zn14 2.031 . S
O17 C21 1.269 . S
O18 Zn15 1.986 . S
O18 C25 1.262 . S
O19 Zn14 2.049 . S
O19 C27 1.260 . S
O20 Zn15 1.996 . S
O20 C27 1.257 . S
C21 O16 1.254 . S
C21 O17 1.269 . S
C22 O23 1.249 . S
C22 O24 1.270 . S
O23 Zn15 1.943 . S
O23 C22 1.249 . S
O24 Zn14 2.067 . S
O24 C22 1.270 . S
C25 O18 1.262 . S
C25 O26 1.232 . S
O26 C25 1.232 . S
C27 O19 1.260 . S
C27 O20 1.257 . S
Zn28 O31 2.031 . S
Zn28 O33 2.049 . S
Zn28 O38 2.067 . S
Zn29 O30 1.962 . S
Zn29 O32 1.986 . S
Zn29 O34 1.996 . S
Zn29 O37 1.943 . S
O30 Zn29 1.962 . S
O30 C35 1.254 . S
O31 Zn28 2.031 . S
O31 C35 1.269 . S
O32 Zn29 1.986 . S
O32 C39 1.262 . S
O33 Zn28 2.049 . S
O33 C41 1.260 . S
O34 Zn29 1.996 . S
O34 C41 1.257 . S
C35 O30 1.254 . S
C35 O31 1.269 . S
C36 O37 1.249 . S
C36 O38 1.270 . S
O37 Zn29 1.943 . S
O37 C36 1.249 . S
O38 Zn28 2.067 . S
O38 C36 1.270 . S
C39 O32 1.262 . S
C39 O40 1.232 . S
O40 C39 1.232 . S
C41 O33 1.260 . S
C41 O34 1.257 . S
Zn42 O45 2.031 . S
Zn42 O47 2.049 . S
Zn42 O52 2.067 . S
Zn43 O44 1.962 . S
Zn43 O46 1.986 . S
Zn43 O48 1.996 . S
Zn43 O51 1.943 . S
O44 Zn43 1.962 . S
O44 C49 1.254 . S
O45 Zn42 2.031 . S
O45 C49 1.269 . S
O46 Zn43 1.986 . S
O46 C53 1.262 . S
O47 Zn42 2.049 . S
O47 C55 1.260 . S
O48 Zn43 1.996 . S
O48 C55 1.257 . S
C49 O44 1.254 . S
C49 O45 1.269 . S
C50 O51 1.249 . S
C50 O52 1.270 . S
O51 Zn43 1.943 . S
O51 C50 1.249 . S
O52 Zn42 2.067 . S
O52 C50 1.270 . S
C53 O46 1.262 . S
C53 O54 1.232 . S
O54 C53 1.232 . S
C55 O47 1.260 . S
C55 O48 1.257 . S
Zn56 O59 2.031 . S
Zn56 O61 2.049 . S
Zn56 O66 2.067 . S
Zn57 O58 1.962 . S
Zn57 O60 1.986 . S
Zn57 O62 1.996 . S
Zn57 O65 1.943 . S
O58 Zn57 1.962 . S
O58 C63 1.254 . S
O59 Zn56 2.031 . S
O59 C63 1.269 . S
O60 Zn57 1.986 . S
O60 C67 1.262 . S
O61 Zn56 2.049 . S
O61 C69 1.260 . S
O62 Zn57 1.996 . S
O62 C69 1.257 . S
C63 O58 1.254 . S
C63 O59 1.269 . S
C64 O65 1.249 . S
C64 O66 1.270 . S
O65 Zn57 1.943 . S
O65 C64 1.249 . S
O66 Zn56 2.067 . S
O66 C64 1.270 . S
C67 O60 1.262 . S
C67 O68 1.232 . S
O68 C67 1.232 . S
C69 O61 1.260 . S
C69 O62 1.257 . S
Zn70 O73 2.031 . S
Zn70 O75 2.049 . S
Zn70 O80 2.067 . S
Zn71 O72 1.962 . S
Zn71 O74 1.986 . S
Zn71 O76 1.996 . S
Zn71 O79 1.943 . S
O72 Zn71 1.962 . S
O72 C77 1.254 . S
O73 Zn70 2.031 . S
O73 C77 1.269 . S
O74 Zn71 1.986 . S
O74 C81 1.262 . S
O75 Zn70 2.049 . S
O75 C83 1.260 . S
O76 Zn71 1.996 . S
O76 C83 1.257 . S
C77 O72 1.254 . S
C77 O73 1.269 . S
C78 O79 1.249 . S
C78 O80 1.270 . S
O79 Zn71 1.943 . S
O79 C78 1.249 . S
O80 Zn70 2.067 . S
O80 C78 1.270 . S
C81 O74 1.262 . S
C81 O82 1.232 . S
O82 C81 1.232 . S
C83 O75 1.260 . S
C83 O76 1.257 . S
Zn84 O87 2.031 . S
Zn84 O89 2.049 . S
Zn84 O94 2.067 . S
Zn85 O86 1.962 . S
Zn85 O88 1.986 . S
Zn85 O90 1.996 . S
Zn85 O93 1.943 . S
O86 Zn85 1.962 . S
O86 C91 1.254 . S
O87 Zn84 2.031 . S
O87 C91 1.269 . S
O88 Zn85 1.986 . S
O88 C95 1.262 . S
O89 Zn84 2.049 . S
O89 C97 1.260 . S
O90 Zn85 1.996 . S
O90 C97 1.257 . S
C91 O86 1.254 . S
C91 O87 1.269 . S
C92 O93 1.249 . S
C92 O94 1.270 . S
O93 Zn85 1.943 . S
O93 C92 1.249 . S
O94 Zn84 2.067 . S
O94 C92 1.270 . S
C95 O88 1.262 . S
C95 O96 1.232 . S
O96 C95 1.232 . S
C97 O89 1.260 . S
C97 O90 1.257 . S
Zn98 O101 2.031 . S
Zn98 O103 2.049 . S
Zn98 O108 2.067 . S
Zn99 O100 1.962 . S
Zn99 O102 1.986 . S
Zn99 O104 1.996 . S
Zn99 O107 1.943 1_455 S
O100 Zn99 1.962 . S
O100 C105 1.254 . S
O101 Zn98 2.031 . S
O101 C105 1.269 1_655 S
O102 Zn99 1.986 . S
O102 C109 1.262 . S
O103 Zn98 2.049 . S
O103 C111 1.260 1_655 S
O104 Zn99 1.996 . S
O104 C111 1.257 . S
C105 O100 1.254 . S
C105 O101 1.269 1_455 S
C106 O107 1.249 . S
C106 O108 1.270 . S
O107 Zn99 1.943 1_655 S
O107 C106 1.249 . S
O108 Zn98 2.067 . S
O108 C106 1.270 . S
C109 O102 1.262 . S
C109 O110 1.232 . S
O110 C109 1.232 . S
C111 O103 1.260 1_455 S
C111 O104 1.257 . S
Zn112 O115 2.031 1_565 S
Zn112 O117 2.049 . S
Zn112 O122 2.067 . S
Zn113 O114 1.962 . S
Zn113 O116 1.986 . S
Zn113 O118 1.996 . S
Zn113 O121 1.943 . S
O114 Zn113 1.962 . S
O114 C119 1.254 . S
O115 Zn112 2.031 1_545 S
O115 C119 1.269 . S
O116 Zn113 1.986 . S
O116 C123 1.262 . S
O117 Zn112 2.049 . S
O117 C125 1.260 1_565 S
O118 Zn113 1.996 . S
O118 C125 1.257 . S
C119 O114 1.254 . S
C119 O115 1.269 . S
C120 O121 1.249 1_565 S
C120 O122 1.270 . S
O121 Zn113 1.943 . S
O121 C120 1.249 1_545 S
O122 Zn112 2.067 . S
O122 C120 1.270 . S
C123 O116 1.262 . S
C123 O124 1.232 . S
O124 C123 1.232 . S
C125 O117 1.260 1_545 S
C125 O118 1.257 . S
Zn126 O129 2.031 . S
Zn126 O131 2.049 . S
Zn126 O136 2.067 . S
Zn127 O128 1.962 . S
Zn127 O130 1.986 . S
Zn127 O132 1.996 . S
Zn127 O135 1.943 . S
O128 Zn127 1.962 . S
O128 C133 1.254 . S
O129 Zn126 2.031 . S
O129 C133 1.269 . S
O130 Zn127 1.986 . S
O130 C137 1.262 . S
O131 Zn126 2.049 . S
O131 C139 1.260 . S
O132 Zn127 1.996 . S
O132 C139 1.257 . S
C133 O128 1.254 . S
C133 O129 1.269 . S
C134 O135 1.249 . S
C134 O136 1.270 . S
O135 Zn127 1.943 . S
O135 C134 1.249 . S
O136 Zn126 2.067 . S
O136 C134 1.270 . S
C137 O130 1.262 . S
C137 O138 1.232 . S
O138 C137 1.232 . S
C139 O131 1.260 . S
C139 O132 1.257 . S
Zn140 O143 2.031 . S
Zn140 O145 2.049 . S
Zn140 O150 2.067 . S
Zn141 O142 1.962 . S
Zn141 O144 1.986 1_545 S
Zn141 O146 1.996 . S
Zn141 O149 1.943 . S
O142 Zn141 1.962 . S
O142 C147 1.254 . S
O143 Zn140 2.031 . S
O143 C147 1.269 . S
O144 Zn141 1.986 1_565 S
O144 C151 1.262 . S
O145 Zn140 2.049 . S
O145 C153 1.260 . S
O146 Zn141 1.996 . S
O146 C153 1.257 . S
C147 O142 1.254 . S
C147 O143 1.269 . S
C148 O149 1.249 . S
C148 O150 1.270 . S
O149 Zn141 1.943 . S
O149 C148 1.249 . S
O150 Zn140 2.067 . S
O150 C148 1.270 . S
C151 O144 1.262 . S
C151 O152 1.232 1_565 S
O152 C151 1.232 1_545 S
C153 O145 1.260 . S
C153 O146 1.257 . S
Zn154 O157 2.031 1_554 S
Zn154 O159 2.049 . S
Zn154 O164 2.067 . S
Zn155 O156 1.962 . S
Zn155 O158 1.986 1_556 S
Zn155 O160 1.996 1_556 S
Zn155 O163 1.943 1_556 S
O156 Zn155 1.962 . S
O156 C161 1.254 . S
O157 Zn154 2.031 1_556 S
O157 C161 1.269 . S
O158 Zn155 1.986 1_554 S
O158 C165 1.262 1_554 S
O159 Zn154 2.049 . S
O159 C167 1.260 . S
O160 Zn155 1.996 1_554 S
O160 C167 1.257 . S
C161 O156 1.254 . S
C161 O157 1.269 . S
C162 O163 1.249 . S
C162 O164 1.270 . S
O163 Zn155 1.943 1_554 S
O163 C162 1.249 . S
O164 Zn154 2.067 . S
O164 C162 1.270 . S
C165 O158 1.262 1_556 S
C165 O166 1.232 . S
O166 C165 1.232 . S
C167 O159 1.260 . S
C167 O160 1.257 . S
Zn168 O171 2.031 . S
Zn168 O173 2.049 . S
Zn168 O178 2.067 . S
Zn169 O170 1.962 1_554 S
Zn169 O172 1.986 . S
Zn169 O174 1.996 . S
Zn169 O177 1.943 . S
O170 Zn169 1.962 1_556 S
O170 C175 1.254 . S
O171 Zn168 2.031 . S
O171 C175 1.269 1_554 S
O172 Zn169 1.986 . S
O172 C179 1.262 . S
O173 Zn168 2.049 . S
O173 C181 1.260 . S
O174 Zn169 1.996 . S
O174 C181 1.257 . S
C175 O170 1.254 . S
C175 O171 1.269 1_556 S
C176 O177 1.249 . S
C176 O178 1.270 . S
O177 Zn169 1.943 . S
O177 C176 1.249 . S
O178 Zn168 2.067 . S
O178 C176 1.270 . S
C179 O172 1.262 . S
C179 O180 1.232 . S
O180 C179 1.232 . S
C181 O173 1.260 . S
C181 O174 1.257 . S
Zn182 O185 2.031 . S
Zn182 O187 2.049 . S
Zn182 O192 2.067 . S
Zn183 O184 1.962 . S
Zn183 O186 1.986 . S
Zn183 O188 1.996 . S
Zn183 O191 1.943 . S
O184 Zn183 1.962 . S
O184 C189 1.254 . S
O185 Zn182 2.031 . S
O185 C189 1.269 . S
O186 Zn183 1.986 . S
O186 C193 1.262 . S
O187 Zn182 2.049 . S
O187 C195 1.260 . S
O188 Zn183 1.996 . S
O188 C195 1.257 . S
C189 O184 1.254 . S
C189 O185 1.269 . S
C190 O191 1.249 . S
C190 O192 1.270 . S
O191 Zn183 1.943 . S
O191 C190 1.249 . S
O192 Zn182 2.067 . S
O192 C190 1.270 . S
C193 O186 1.262 . S
C193 O194 1.232 . S
O194 C193 1.232 . S
C195 O187 1.260 . S
C195 O188 1.257 . S
Zn196 O199 2.031 . S
Zn196 O201 2.049 . S
Zn196 O206 2.067 . S
Zn197 O198 1.962 . S
Zn197 O200 1.986 . S
Zn197 O202 1.996 . S
Zn197 O205 1.943 . S
O198 Zn197 1.962 . S
O198 C203 1.254 . S
O199 Zn196 2.031 . S
O199 C203 1.269 . S
O200 Zn197 1.986 . S
O200 C207 1.262 . S
O201 Zn196 2.049 . S
O201 C209 1.260 . S
O202 Zn197 1.996 . S
O202 C209 1.257 . S
C203 O198 1.254 . S
C203 O199 1.269 . S
C204 O205 1.249 . S
C204 O206 1.270 . S
O205 Zn197 1.943 . S
O205 C204 1.249 . S
O206 Zn196 2.067 . S
O206 C204 1.270 . S
C207 O200 1.262 . S
C207 O208 1.232 . S
O208 C207 1.232 . S
C209 O201 1.260 . S
C209 O202 1.257 . S
Zn210 O213 2.031 . S
Zn210 O215 2.049 . S
Zn210 O220 2.067 . S
Zn211 O212 1.962 . S
Zn211 O214 1.986 . S
Zn211 O216 1.996 . S
Zn211 O219 1.943 . S
O212 Zn211 1.962 . S
O212 C217 1.254 . S
O213 Zn210 2.031 . S
O213 C217 1.269 . S
O214 Zn211 1.986 . S
O214 C221 1.262 . S
O215 Zn210 2.049 . S
O215 C223 1.260 . S
O216 Zn211 1.996 . S
O216 C223 1.257 . S
C217 O212 1.254 . S
C217 O213 1.269 . S
C218 O219 1.249 . S
C218 O220 1.270 . S
O219 Zn211 1.943 . S
O219 C218 1.249 . S
O220 Zn210 2.067 . S
O220 C218 1.270 . S
C221 O214 1.262 . S
C221 O222 1.232 . S
O222 C221 1.232 . S
C223 O215 1.260 . S
C223 O216 1.257 . S
Zn224 O227 2.031 . S
Zn224 O229 2.049 . S
Zn224 O234 2.067 . S
Zn225 O226 1.962 . S
Zn225 O228 1.986 . S
Zn225 O230 1.996 . S
Zn225 O233 1.943 1_545 S
O226 Zn225 1.962 . S
O226 C231 1.254 . S
O227 Zn224 2.031 . S
O227 C231 1.269 1_565 S
O228 Zn225 1.986 . S
O228 C235 1.262 . S
O229 Zn224 2.049 . S
O229 C237 1.260 1_565 S
O230 Zn225 1.996 . S
O230 C237 1.257 . S
C231 O226 1.254 . S
C231 O227 1.269 1_545 S
C232 O233 1.249 . S
C232 O234 1.270 . S
O233 Zn225 1.943 1_565 S
O233 C232 1.249 . S
O234 Zn224 2.067 . S
O234 C232 1.270 . S
C235 O228 1.262 . S
C235 O236 1.232 . S
O236 C235 1.232 . S
C237 O229 1.260 1_545 S
C237 O230 1.257 . S
Zn238 O241 2.031 . S
Zn238 O243 2.049 . S
Zn238 O248 2.067 . S
Zn239 O240 1.962 . S
Zn239 O242 1.986 . S
Zn239 O244 1.996 . S
Zn239 O247 1.943 . S
O240 Zn239 1.962 . S
O240 C245 1.254 . S
O241 Zn238 2.031 . S
O241 C245 1.269 . S
O242 Zn239 1.986 . S
O242 C249 1.262 . S
O243 Zn238 2.049 . S
O243 C251 1.260 . S
O244 Zn239 1.996 . S
O244 C251 1.257 . S
C245 O240 1.254 . S
C245 O241 1.269 . S
C246 O247 1.249 . S
C246 O248 1.270 . S
O247 Zn239 1.943 . S
O247 C246 1.249 . S
O248 Zn238 2.067 . S
O248 C246 1.270 . S
C249 O242 1.262 . S
C249 O250 1.232 . S
O250 C249 1.232 . S
C251 O243 1.260 . S
C251 O244 1.257 . S
Zn252 O255 2.031 . S
Zn252 O257 2.049 . S
Zn252 O262 2.067 . S
Zn253 O254 1.962 . S
Zn253 O256 1.986 . S
Zn253 O258 1.996 . S
Zn253 O261 1.943 . S
O254 Zn253 1.962 . S
O254 C259 1.254 . S
O255 Zn252 2.031 . S
O255 C259 1.269 . S
O256 Zn253 1.986 . S
O256 C263 1.262 . S
O257 Zn252 2.049 . S
O257 C265 1.260 . S
O258 Zn253 1.996 . S
O258 C265 1.257 . S
C259 O254 1.254 . S
C259 O255 1.269 . S
C260 O261 1.249 . S
C260 O262 1.270 . S
O261 Zn253 1.943 . S
O261 C260 1.249 . S
O262 Zn252 2.067 . S
O262 C260 1.270 . S
C263 O256 1.262 . S
C263 O264 1.232 . S
O264 C263 1.232 . S
C265 O257 1.260 . S
C265 O258 1.257 . S
Zn266 O269 2.031 . S
Zn266 O271 2.049 . S
Zn266 O276 2.067 . S
Zn267 O268 1.962 . S
Zn267 O270 1.986 1_545 S
Zn267 O272 1.996 . S
Zn267 O275 1.943 . S
O268 Zn267 1.962 . S
O268 C273 1.252 . S
O269 Zn266 2.031 . S
O269 C273 1.269 . S
O270 Zn267 1.986 1_565 S
O270 C277 1.262 . S
O271 Zn266 2.049 . S
O271 C279 1.260 . S
O272 Zn267 1.996 . S
O272 C279 1.257 . S
C273 O268 1.252 . S
C273 O269 1.269 . S
C274 O275 1.249 . S
C274 O276 1.270 . S
O275 Zn267 1.943 . S
O275 C274 1.249 . S
O276 Zn266 2.067 . S
O276 C274 1.270 . S
C277 O270 1.262 . S
C277 O278 1.232 . S
O278 C277 1.232 . S
C279 O271 1.260 . S
C279 O272 1.257 . S
Zn280 O283 2.033 1_554 S
Zn280 O285 2.049 . S
Zn280 O290 2.067 . S
Zn281 O282 1.962 . S
Zn281 O284 1.986 . S
Zn281 O286 1.996 . S
Zn281 O289 1.943 . S
O282 Zn281 1.962 . S
O282 C287 1.254 1_554 S
O283 Zn280 2.033 1_556 S
O283 C287 1.268 . S
O284 Zn281 1.986 . S
O284 C291 1.262 . S
O285 Zn280 2.049 . S
O285 C293 1.260 . S
O286 Zn281 1.996 . S
O286 C293 1.257 . S
C287 O282 1.254 1_556 S
C287 O283 1.268 . S
C288 O289 1.249 . S
C288 O290 1.270 . S
O289 Zn281 1.943 . S
O289 C288 1.249 . S
O290 Zn280 2.067 . S
O290 C288 1.270 . S
C291 O284 1.262 . S
C291 O292 1.232 . S
O292 C291 1.232 . S
C293 O285 1.260 . S
C293 O286 1.257 . S
Zn294 O297 2.031 . S
Zn294 O299 2.049 . S
Zn294 O304 2.067 . S
Zn295 O296 1.962 . S
Zn295 O298 1.986 . S
Zn295 O300 1.996 . S
Zn295 O303 1.943 . S
O296 Zn295 1.962 . S
O296 C301 1.254 . S
O297 Zn294 2.031 . S
O297 C301 1.269 . S
O298 Zn295 1.986 . S
O298 C305 1.262 . S
O299 Zn294 2.049 . S
O299 C307 1.260 . S
O300 Zn295 1.996 . S
O300 C307 1.257 . S
C301 O296 1.254 . S
C301 O297 1.269 . S
C302 O303 1.249 . S
C302 O304 1.270 . S
O303 Zn295 1.943 . S
O303 C302 1.249 . S
O304 Zn294 2.067 . S
O304 C302 1.270 . S
C305 O298 1.262 . S
C305 O306 1.232 . S
O306 C305 1.232 . S
C307 O299 1.260 . S
C307 O300 1.257 . S
Zn308 O311 2.031 . S
Zn308 O313 2.049 . S
Zn308 O318 2.067 . S
Zn309 O310 1.962 . S
Zn309 O312 1.986 . S
Zn309 O314 1.996 . S
Zn309 O317 1.943 . S
O310 Zn309 1.962 . S
O310 C315 1.254 . S
O311 Zn308 2.031 . S
O311 C315 1.269 . S
O312 Zn309 1.986 . S
O312 C319 1.262 . S
O313 Zn308 2.049 . S
O313 C321 1.260 . S
O314 Zn309 1.996 . S
O314 C321 1.257 . S
C315 O310 1.254 . S
C315 O311 1.269 . S
C316 O317 1.249 . S
C316 O318 1.270 . S
O317 Zn309 1.943 . S
O317 C316 1.249 . S
O318 Zn308 2.067 . S
O318 C316 1.270 . S
C319 O312 1.262 . S
C319 O320 1.232 . S
O320 C319 1.232 . S
C321 O313 1.260 . S
C321 O314 1.257 . S
Zn322 O325 2.031 . S
Zn322 O327 2.049 . S
Zn322 O332 2.067 . S
Zn323 O324 1.962 . S
Zn323 O326 1.986 . S
Zn323 O328 1.996 . S
Zn323 O331 1.943 . S
O324 Zn323 1.962 . S
O324 C329 1.254 . S
O325 Zn322 2.031 . S
O325 C329 1.269 . S
O326 Zn323 1.986 . S
O326 C333 1.262 . S
O327 Zn322 2.049 . S
O327 C335 1.260 . S
O328 Zn323 1.996 . S
O328 C335 1.257 . S
C329 O324 1.254 . S
C329 O325 1.269 . S
C330 O331 1.249 . S
C330 O332 1.270 . S
O331 Zn323 1.943 . S
O331 C330 1.249 . S
O332 Zn322 2.067 . S
O332 C330 1.270 . S
C333 O326 1.262 . S
C333 O334 1.232 . S
O334 C333 1.232 . S
C335 O327 1.260 . S
C335 O328 1.257 . S
Tb336 C338 2.809 1_455 S
Tb336 O356 2.484 1_455 S
Tb336 O357 2.440 1_454 S
Tb336 O358 2.658 . S
Tb336 O359 2.409 1_554 S
Tb336 O360 2.378 . S
Tb336 O364 2.325 . S
Tb336 O367 2.341 1_545 S
Tb337 C347 2.809 . S
Tb337 O358 2.325 . S
Tb337 O361 2.341 . S
Tb337 O362 2.484 . S
Tb337 O363 2.440 . S
Tb337 O364 2.658 . S
Tb337 O365 2.409 . S
Tb337 O366 2.378 1_545 S
C338 Tb336 2.809 1_655 S
C338 C339 1.514 . S
C338 O356 1.248 . S
C338 O357 1.266 1_554 S
C339 C338 1.514 . S
C339 C340 1.359 . S
C339 C344 1.348 1_554 S
C340 C339 1.359 . S
C340 C341 1.380 . S
C340 H368 0.929 . S
C341 C340 1.380 . S
C341 C342 1.347 . S
C341 H369 0.931 . S
C342 C341 1.347 . S
C342 C343 1.369 1_554 S
C343 C342 1.369 1_556 S
C343 C344 1.408 . S
C343 H370 0.930 . S
C344 C339 1.348 1_556 S
C344 C343 1.408 . S
C344 H371 0.930 . S
C345 O358 1.281 1_556 S
C345 O359 1.254 . S
C346 O360 1.236 . S
C346 O361 1.266 . S
C347 Tb337 2.809 . S
C347 C348 1.514 1_545 S
C347 O362 1.248 . S
C347 O363 1.266 . S
C348 C347 1.514 1_565 S
C348 C349 1.359 . S
C348 C353 1.348 . S
C349 C348 1.359 . S
C349 C350 1.380 . S
C349 H372 0.929 . S
C350 C349 1.380 . S
C350 C351 1.347 . S
C350 H373 0.931 . S
C351 C350 1.347 . S
C351 C352 1.369 . S
C352 C351 1.369 . S
C352 C353 1.408 . S
C352 H374 0.930 . S
C353 C348 1.348 . S
C353 C352 1.408 . S
C353 H375 0.930 . S
C354 O364 1.281 . S
C354 O365 1.254 . S
C355 O366 1.236 . S
C355 O367 1.266 . S
O356 Tb336 2.484 1_655 S
O356 C338 1.248 . S
O357 Tb336 2.440 1_656 S
O357 C338 1.266 1_556 S
O358 Tb336 2.658 . S
O358 Tb337 2.325 . S
O358 C345 1.281 1_554 S
O359 Tb336 2.409 1_556 S
O359 C345 1.254 . S
O360 Tb336 2.378 . S
O360 C346 1.236 . S
O361 Tb337 2.341 . S
O361 C346 1.266 . S
O362 Tb337 2.484 . S
O362 C347 1.248 . S
O363 Tb337 2.440 . S
O363 C347 1.266 . S
O364 Tb336 2.325 . S
O364 Tb337 2.658 . S
O364 C354 1.281 . S
O365 Tb337 2.409 . S
O365 C354 1.254 . S
O366 Tb337 2.378 1_565 S
O366 C355 1.236 . S
O367 Tb336 2.341 1_565 S
O367 C355 1.266 . S
H368 C340 0.929 . S
H369 C341 0.931 . S
H370 C343 0.930 . S
H371 C344 0.930 . S
H372 C349 0.929 . S
H373 C350 0.931 . S
H374 C352 0.930 . S
H375 C353 0.930 . S
Tb376 C378 2.809 . S
Tb376 O396 2.484 . S
Tb376 O397 2.440 . S
Tb376 O398 2.658 . S
Tb376 O399 2.409 . S
Tb376 O400 2.378 . S
Tb376 O404 2.325 . S
Tb376 O407 2.341 . S
Tb377 C387 2.809 . S
Tb377 O398 2.325 . S
Tb377 O401 2.341 . S
Tb377 O402 2.484 . S
Tb377 O403 2.440 . S
Tb377 O404 2.658 . S
Tb377 O405 2.409 . S
Tb377 O406 2.378 . S
C378 Tb376 2.809 . S
C378 C379 1.514 . S
C378 O396 1.248 . S
C378 O397 1.266 . S
C379 C378 1.514 . S
C379 C380 1.359 . S
C379 C384 1.348 . S
C380 C379 1.359 . S
C380 C381 1.380 . S
C380 H408 0.929 . S
C381 C380 1.380 . S
C381 C382 1.347 . S
C381 H409 0.931 . S
C382 C381 1.347 . S
C382 C383 1.369 . S
C383 C382 1.369 . S
C383 C384 1.408 . S
C383 H410 0.930 . S
C384 C379 1.348 . S
C384 C383 1.408 . S
C384 H411 0.930 . S
C385 O398 1.281 . S
C385 O399 1.254 . S
C386 O400 1.236 . S
C386 O401 1.266 . S
C387 Tb377 2.809 . S
C387 C388 1.514 . S
C387 O402 1.248 . S
C387 O403 1.266 . S
C388 C387 1.514 . S
C388 C389 1.359 . S
C388 C393 1.348 . S
C389 C388 1.359 . S
C389 C390 1.380 . S
C389 H412 0.929 . S
C390 C389 1.380 . S
C390 C391 1.347 . S
C390 H413 0.931 . S
C391 C390 1.347 . S
C391 C392 1.369 . S
C392 C391 1.369 . S
C392 C393 1.408 . S
C392 H414 0.930 . S
C393 C388 1.348 . S
C393 C392 1.408 . S
C393 H415 0.930 . S
C394 O404 1.281 . S
C394 O405 1.254 . S
C395 O406 1.236 . S
C395 O407 1.266 . S
O396 Tb376 2.484 . S
O396 C378 1.248 . S
O397 Tb376 2.440 . S
O397 C378 1.266 . S
O398 Tb376 2.658 . S
O398 Tb377 2.325 . S
O398 C385 1.281 . S
O399 Tb376 2.409 . S
O399 C385 1.254 . S
O400 Tb376 2.378 . S
O400 C386 1.236 . S
O401 Tb377 2.341 . S
O401 C386 1.266 . S
O402 Tb377 2.484 . S
O402 C387 1.248 . S
O403 Tb377 2.440 . S
O403 C387 1.266 . S
O404 Tb376 2.325 . S
O404 Tb377 2.658 . S
O404 C394 1.281 . S
O405 Tb377 2.409 . S
O405 C394 1.254 . S
O406 Tb377 2.378 . S
O406 C395 1.236 . S
O407 Tb376 2.341 . S
O407 C395 1.266 . S
H408 C380 0.929 . S
H409 C381 0.931 . S
H410 C383 0.930 . S
H411 C384 0.930 . S
H412 C389 0.929 . S
H413 C390 0.931 . S
H414 C392 0.930 . S
H415 C393 0.930 . S
Tb416 C418 2.809 1_545 S
Tb416 O436 2.484 1_545 S
Tb416 O437 2.440 . S
Tb416 O438 2.658 . S
Tb416 O439 2.409 . S
Tb416 O440 2.378 1_545 S
Tb416 O444 2.325 . S
Tb416 O447 2.341 . S
Tb417 C427 2.809 . S
Tb417 O438 2.325 . S
Tb417 O441 2.341 1_545 S
Tb417 O442 2.484 . S
Tb417 O443 2.440 . S
Tb417 O444 2.658 . S
Tb417 O445 2.409 . S
Tb417 O446 2.378 . S
C418 Tb416 2.809 1_565 S
C418 C419 1.514 . S
C418 O436 1.248 . S
C418 O437 1.266 1_565 S
C419 C418 1.514 . S
C419 C420 1.359 . S
C419 C424 1.348 . S
C420 C419 1.359 . S
C420 C421 1.380 . S
C420 H448 0.929 . S
C421 C420 1.380 . S
C421 C422 1.347 . S
C421 H449 0.931 . S
C422 C421 1.347 . S
C422 C423 1.369 . S
C423 C422 1.369 . S
C423 C424 1.408 . S
C423 H450 0.930 . S
C424 C419 1.348 . S
C424 C423 1.408 . S
C424 H451 0.930 . S
C425 O438 1.281 . S
C425 O439 1.254 . S
C426 O440 1.236 . S
C426 O441 1.266 . S
C427 Tb417 2.809 . S
C427 C428 1.514 . S
C427 O442 1.248 . S
C427 O443 1.266 . S
C428 C427 1.514 . S
C428 C429 1.359 . S
C428 C433 1.348 . S
C429 C428 1.359 . S
C429 C430 1.380 . S
C429 H452 0.929 . S
C430 C429 1.380 . S
C430 C431 1.347 . S
C430 H453 0.931 . S
C431 C430 1.347 . S
C431 C432 1.369 . S
C432 C431 1.369 . S
C432 C433 1.408 . S
C432 H454 0.930 . S
C433 C428 1.348 . S
C433 C432 1.408 . S
C433 H455 0.930 . S
C434 O444 1.281 . S
C434 O445 1.254 . S
C435 O446 1.236 . S
C435 O447 1.266 . S
O436 Tb416 2.484 1_565 S
O436 C418 1.248 . S
O437 Tb416 2.440 . S
O437 C418 1.266 1_545 S
O438 Tb416 2.658 . S
O438 Tb417 2.325 . S
O438 C425 1.281 . S
O439 Tb416 2.409 . S
O439 C425 1.254 . S
O440 Tb416 2.378 1_565 S
O440 C426 1.236 . S
O441 Tb417 2.341 1_565 S
O441 C426 1.266 . S
O442 Tb417 2.484 . S
O442 C427 1.248 . S
O443 Tb417 2.440 . S
O443 C427 1.266 . S
O444 Tb416 2.325 . S
O444 Tb417 2.658 . S
O444 C434 1.281 . S
O445 Tb417 2.409 . S
O445 C434 1.254 . S
O446 Tb417 2.378 . S
O446 C435 1.236 . S
O447 Tb416 2.341 . S
O447 C435 1.266 . S
H448 C420 0.929 . S
H449 C421 0.931 . S
H450 C423 0.930 . S
H451 C424 0.930 . S
H452 C429 0.929 . S
H453 C430 0.931 . S
H454 C432 0.930 . S
H455 C433 0.930 . S
Tb456 C458 2.809 . S
Tb456 O476 2.484 . S
Tb456 O477 2.440 . S
Tb456 O478 2.658 . S
Tb456 O479 2.409 . S
Tb456 O480 2.378 . S
Tb456 O484 2.325 . S
Tb456 O487 2.341 . S
Tb457 C467 2.809 . S
Tb457 O478 2.325 . S
Tb457 O481 2.341 . S
Tb457 O482 2.484 . S
Tb457 O483 2.440 . S
Tb457 O484 2.658 . S
Tb457 O485 2.409 . S
Tb457 O486 2.378 . S
C458 Tb456 2.809 . S
C458 C459 1.514 . S
C458 O476 1.248 . S
C458 O477 1.266 . S
C459 C458 1.514 . S
C459 C460 1.359 . S
C459 C464 1.348 . S
C460 C459 1.359 . S
C460 C461 1.380 . S
C460 H488 0.929 . S
C461 C460 1.380 . S
C461 C462 1.347 . S
C461 H489 0.931 . S
C462 C461 1.347 . S
C462 C463 1.369 . S
C463 C462 1.369 . S
C463 C464 1.408 . S
C463 H490 0.930 . S
C464 C459 1.348 . S
C464 C463 1.408 . S
C464 H491 0.930 . S
C465 O478 1.281 . S
C465 O479 1.254 . S
C466 O480 1.236 . S
C466 O481 1.266 . S
C467 Tb457 2.809 . S
C467 C468 1.514 . S
C467 O482 1.248 . S
C467 O483 1.266 . S
C468 C467 1.514 . S
C468 C469 1.359 . S
C468 C473 1.348 . S
C469 C468 1.359 . S
C469 C470 1.380 . S
C469 H492 0.929 . S
C470 C469 1.380 . S
C470 C471 1.347 . S
C470 H493 0.931 . S
C471 C470 1.347 . S
C471 C472 1.369 . S
C472 C471 1.369 . S
C472 C473 1.408 . S
C472 H494 0.930 . S
C473 C468 1.348 . S
C473 C472 1.408 . S
C473 H495 0.930 . S
C474 O484 1.281 . S
C474 O485 1.254 . S
C475 O486 1.236 . S
C475 O487 1.266 . S
O476 Tb456 2.484 . S
O476 C458 1.248 . S
O477 Tb456 2.440 . S
O477 C458 1.266 . S
O478 Tb456 2.658 . S
O478 Tb457 2.325 . S
O478 C465 1.281 . S
O479 Tb456 2.409 . S
O479 C465 1.254 . S
O480 Tb456 2.378 . S
O480 C466 1.236 . S
O481 Tb457 2.341 . S
O481 C466 1.266 . S
O482 Tb457 2.484 . S
O482 C467 1.248 . S
O483 Tb457 2.440 . S
O483 C467 1.266 . S
O484 Tb456 2.325 . S
O484 Tb457 2.658 . S
O484 C474 1.281 . S
O485 Tb457 2.409 . S
O485 C474 1.254 . S
O486 Tb457 2.378 . S
O486 C475 1.236 . S
O487 Tb456 2.341 . S
O487 C475 1.266 . S
H488 C460 0.929 . S
H489 C461 0.931 . S
H490 C463 0.930 . S
H491 C464 0.930 . S
H492 C469 0.929 . S
H493 C470 0.931 . S
H494 C472 0.930 . S
H495 C473 0.930 . S
Tb496 C498 2.809 . S
Tb496 O516 2.484 . S
Tb496 O517 2.440 . S
Tb496 O518 2.658 . S
Tb496 O519 2.409 1_455 S
Tb496 O520 2.378 . S
Tb496 O524 2.325 . S
Tb496 O527 2.341 . S
Tb497 C507 2.809 . S
Tb497 O518 2.325 1_565 S
Tb497 O521 2.341 1_565 S
Tb497 O522 2.484 . S
Tb497 O523 2.440 . S
Tb497 O524 2.658 1_565 S
Tb497 O525 2.409 1_565 S
Tb497 O526 2.378 1_565 S
C498 Tb496 2.809 . S
C498 C499 1.514 . S
C498 O516 1.248 . S
C498 O517 1.266 . S
C499 C498 1.514 . S
C499 C500 1.359 . S
C499 C504 1.348 1_455 S
C500 C499 1.359 . S
C500 C501 1.380 . S
C500 H528 0.929 . S
C501 C500 1.380 . S
C501 C502 1.347 . S
C501 H529 0.931 . S
C502 C501 1.347 . S
C502 C503 1.369 1_455 S
C503 C502 1.369 1_655 S
C503 C504 1.408 . S
C503 H530 0.930 . S
C504 C499 1.348 1_655 S
C504 C503 1.408 . S
C504 H531 0.930 . S
C505 O518 1.281 1_655 S
C505 O519 1.254 . S
C506 O520 1.236 . S
C506 O521 1.266 . S
C507 Tb497 2.809 . S
C507 C508 1.514 . S
C507 O522 1.248 . S
C507 O523 1.266 . S
C508 C507 1.514 . S
C508 C509 1.359 . S
C508 C513 1.348 . S
C509 C508 1.359 . S
C509 C510 1.380 . S
C509 H532 0.929 . S
C510 C509 1.380 . S
C510 C511 1.347 . S
C510 H533 0.931 . S
C511 C510 1.347 . S
C511 C512 1.369 . S
C512 C511 1.369 . S
C512 C513 1.408 . S
C512 H534 0.930 . S
C513 C508 1.348 . S
C513 C512 1.408 . S
C513 H535 0.930 . S
C514 O524 1.281 . S
C514 O525 1.254 . S
C515 O526 1.236 . S
C515 O527 1.266 . S
O516 Tb496 2.484 . S
O516 C498 1.248 . S
O517 Tb496 2.440 . S
O517 C498 1.266 . S
O518 Tb496 2.658 . S
O518 Tb497 2.325 1_545 S
O518 C505 1.281 1_455 S
O519 Tb496 2.409 1_655 S
O519 C505 1.254 . S
O520 Tb496 2.378 . S
O520 C506 1.236 . S
O521 Tb497 2.341 1_545 S
O521 C506 1.266 . S
O522 Tb497 2.484 . S
O522 C507 1.248 . S
O523 Tb497 2.440 . S
O523 C507 1.266 . S
O524 Tb496 2.325 . S
O524 Tb497 2.658 1_545 S
O524 C514 1.281 . S
O525 Tb497 2.409 1_545 S
O525 C514 1.254 . S
O526 Tb497 2.378 1_545 S
O526 C515 1.236 . S
O527 Tb496 2.341 . S
O527 C515 1.266 . S
H528 C500 0.929 . S
H529 C501 0.931 . S
H530 C503 0.930 . S
H531 C504 0.930 . S
H532 C509 0.929 . S
H533 C510 0.931 . S
H534 C512 0.930 . S
H535 C513 0.930 . S
Tb536 C538 2.809 . S
Tb536 O556 2.484 . S
Tb536 O557 2.440 . S
Tb536 O558 2.658 . S
Tb536 O559 2.409 . S
Tb536 O560 2.378 . S
Tb536 O564 2.325 . S
Tb536 O567 2.341 . S
Tb537 C547 2.809 . S
Tb537 O558 2.325 . S
Tb537 O561 2.341 . S
Tb537 O562 2.484 . S
Tb537 O563 2.440 . S
Tb537 O564 2.658 . S
Tb537 O565 2.409 . S
Tb537 O566 2.378 . S
C538 Tb536 2.809 . S
C538 C539 1.514 . S
C538 O556 1.248 . S
C538 O557 1.266 . S
C539 C538 1.514 . S
C539 C540 1.359 . S
C539 C544 1.348 . S
C540 C539 1.359 . S
C540 C541 1.380 . S
C540 H568 0.929 . S
C541 C540 1.380 . S
C541 C542 1.347 . S
C541 H569 0.931 . S
C542 C541 1.347 . S
C542 C543 1.369 . S
C543 C542 1.369 . S
C543 C544 1.408 . S
C543 H570 0.930 . S
C544 C539 1.348 . S
C544 C543 1.408 . S
C544 H571 0.930 . S
C545 O558 1.281 . S
C545 O559 1.254 . S
C546 O560 1.236 . S
C546 O561 1.266 . S
C547 Tb537 2.809 . S
C547 C548 1.514 . S
C547 O562 1.248 . S
C547 O563 1.266 . S
C548 C547 1.514 . S
C548 C549 1.359 . S
C548 C553 1.348 . S
C549 C548 1.359 . S
C549 C550 1.380 . S
C549 H572 0.929 . S
C550 C549 1.380 . S
C550 C551 1.347 . S
C550 H573 0.931 . S
C551 C550 1.347 . S
C551 C552 1.369 . S
C552 C551 1.369 . S
C552 C553 1.408 . S
C552 H574 0.930 . S
C553 C548 1.348 . S
C553 C552 1.408 . S
C553 H575 0.930 . S
C554 O564 1.281 . S
C554 O565 1.254 . S
C555 O566 1.236 . S
C555 O567 1.266 . S
O556 Tb536 2.484 . S
O556 C538 1.248 . S
O557 Tb536 2.440 . S
O557 C538 1.266 . S
O558 Tb536 2.658 . S
O558 Tb537 2.325 . S
O558 C545 1.281 . S
O559 Tb536 2.409 . S
O559 C545 1.254 . S
O560 Tb536 2.378 . S
O560 C546 1.236 . S
O561 Tb537 2.341 . S
O561 C546 1.266 . S
O562 Tb537 2.484 . S
O562 C547 1.248 . S
O563 Tb537 2.440 . S
O563 C547 1.266 . S
O564 Tb536 2.325 . S
O564 Tb537 2.658 . S
O564 C554 1.281 . S
O565 Tb537 2.409 . S
O565 C554 1.254 . S
O566 Tb537 2.378 . S
O566 C555 1.236 . S
O567 Tb536 2.341 . S
O567 C555 1.266 . S
H568 C540 0.929 . S
H569 C541 0.931 . S
H570 C543 0.930 . S
H571 C544 0.930 . S
H572 C549 0.929 . S
H573 C550 0.931 . S
H574 C552 0.930 . S
H575 C553 0.930 . S
Tb576 C578 2.809 . S
Tb576 O596 2.484 1_545 S
Tb576 O597 2.440 . S
Tb576 O598 2.658 . S
Tb576 O599 2.409 . S
Tb576 O600 2.378 . S
Tb576 O604 2.325 . S
Tb576 O607 2.341 1_554 S
Tb577 C587 2.809 . S
Tb577 O598 2.325 . S
Tb577 O601 2.341 . S
Tb577 O602 2.484 . S
Tb577 O603 2.440 . S
Tb577 O604 2.658 . S
Tb577 O605 2.409 1_545 S
Tb577 O606 2.408 . S
C578 Tb576 2.809 . S
C578 C579 1.514 1_545 S
C578 O596 1.248 1_545 S
C578 O597 1.266 . S
C579 C578 1.514 1_565 S
C579 C580 1.359 . S
C579 C584 1.348 1_565 S
C580 C579 1.359 . S
C580 C581 1.380 . S
C580 H608 0.929 . S
C581 C580 1.380 . S
C581 C582 1.347 . S
C581 H609 0.931 . S
C582 C581 1.347 . S
C582 C583 1.330 1_565 S
C583 C582 1.330 1_545 S
C583 C584 1.416 . S
C583 H610 0.962 . S
C584 C579 1.348 1_545 S
C584 C583 1.416 . S
C584 H611 0.930 . S
C585 O598 1.281 . S
C585 O599 1.254 . S
C586 O600 1.236 . S
C586 O601 1.266 . S
C587 Tb577 2.809 . S
C587 C588 1.514 . S
C587 O602 1.248 . S
C587 O603 1.266 . S
C588 C587 1.514 . S
C588 C589 1.359 . S
C588 C593 1.348 . S
C589 C588 1.359 . S
C589 C590 1.380 . S
C589 H612 0.929 . S
C590 C589 1.380 . S
C590 C591 1.347 . S
C590 H613 0.931 . S
C591 C590 1.347 . S
C591 C592 1.369 . S
C592 C591 1.369 . S
C592 C593 1.408 . S
C592 H614 0.930 . S
C593 C588 1.348 . S
C593 C592 1.408 . S
C593 H615 0.930 . S
C594 O604 1.281 1_565 S
C594 O605 1.254 . S
C595 O606 1.215 1_556 S
C595 O607 1.266 . S
O596 Tb576 2.484 1_565 S
O596 C578 1.248 1_565 S
O597 Tb576 2.440 . S
O597 C578 1.266 . S
O598 Tb576 2.658 . S
O598 Tb577 2.325 . S
O598 C585 1.281 . S
O599 Tb576 2.409 . S
O599 C585 1.254 . S
O600 Tb576 2.378 . S
O600 C586 1.236 . S
O601 Tb577 2.341 . S
O601 C586 1.266 . S
O602 Tb577 2.484 . S
O602 C587 1.248 . S
O603 Tb577 2.440 . S
O603 C587 1.266 . S
O604 Tb576 2.325 . S
O604 Tb577 2.658 . S
O604 C594 1.281 1_545 S
O605 Tb577 2.409 1_565 S
O605 C594 1.254 . S
O606 Tb577 2.408 . S
O606 C595 1.215 1_554 S
O607 Tb576 2.341 1_556 S
O607 C595 1.266 . S
H608 C580 0.929 . S
H609 C581 0.931 . S
H610 C583 0.962 . S
H611 C584 0.930 . S
H612 C589 0.929 . S
H613 C590 0.931 . S
H614 C592 0.930 . S
H615 C593 0.930 . S
Tb616 C618 2.809 . S
Tb616 O636 2.484 . S
Tb616 O637 2.440 . S
Tb616 O638 2.658 . S
Tb616 O639 2.409 . S
Tb616 O640 2.378 . S
Tb616 O644 2.325 . S
Tb616 O647 2.341 . S
Tb617 C627 2.809 . S
Tb617 O638 2.325 . S
Tb617 O641 2.341 . S
Tb617 O642 2.484 . S
Tb617 O643 2.440 . S
Tb617 O644 2.658 . S
Tb617 O645 2.409 . S
Tb617 O646 2.378 . S
C618 Tb616 2.809 . S
C618 C619 1.514 . S
C618 O636 1.248 . S
C618 O637 1.266 . S
C619 C618 1.514 . S
C619 C620 1.359 . S
C619 C624 1.348 . S
C620 C619 1.359 . S
C620 C621 1.380 . S
C620 H648 0.929 . S
C621 C620 1.380 . S
C621 C622 1.347 . S
C621 H649 0.931 . S
C622 C621 1.347 . S
C622 C623 1.369 . S
C623 C622 1.369 . S
C623 C624 1.408 . S
C623 H650 0.930 . S
C624 C619 1.348 . S
C624 C623 1.408 . S
C624 H651 0.930 . S
C625 O638 1.281 . S
C625 O639 1.254 . S
C626 O640 1.236 . S
C626 O641 1.266 . S
C627 Tb617 2.809 . S
C627 C628 1.514 . S
C627 O642 1.248 . S
C627 O643 1.266 . S
C628 C627 1.514 . S
C628 C629 1.359 . S
C628 C633 1.348 . S
C629 C628 1.359 . S
C629 C630 1.380 . S
C629 H652 0.929 . S
C630 C629 1.380 . S
C630 C631 1.347 . S
C630 H653 0.931 . S
C631 C630 1.347 . S
C631 C632 1.369 . S
C632 C631 1.369 . S
C632 C633 1.408 . S
C632 H654 0.930 . S
C633 C628 1.348 . S
C633 C632 1.408 . S
C633 H655 0.930 . S
C634 O644 1.281 . S
C634 O645 1.254 . S
C635 O646 1.236 . S
C635 O647 1.266 . S
O636 Tb616 2.484 . S
O636 C618 1.248 . S
O637 Tb616 2.440 . S
O637 C618 1.266 . S
O638 Tb616 2.658 . S
O638 Tb617 2.325 . S
O638 C625 1.281 . S
O639 Tb616 2.409 . S
O639 C625 1.254 . S
O640 Tb616 2.378 . S
O640 C626 1.236 . S
O641 Tb617 2.341 . S
O641 C626 1.266 . S
O642 Tb617 2.484 . S
O642 C627 1.248 . S
O643 Tb617 2.440 . S
O643 C627 1.266 . S
O644 Tb616 2.325 . S
O644 Tb617 2.658 . S
O644 C634 1.281 . S
O645 Tb617 2.409 . S
O645 C634 1.254 . S
O646 Tb617 2.378 . S
O646 C635 1.236 . S
O647 Tb616 2.341 . S
O647 C635 1.266 . S
H648 C620 0.929 . S
H649 C621 0.931 . S
H650 C623 0.930 . S
H651 C624 0.930 . S
H652 C629 0.929 . S
H653 C630 0.931 . S
H654 C632 0.930 . S
H655 C633 0.930 . S
Tb656 C658 2.809 . S
Tb656 O676 2.484 . S
Tb656 O677 2.440 . S
Tb656 O678 2.658 . S
Tb656 O679 2.409 . S
Tb656 O680 2.378 1_554 S
Tb656 O684 2.325 . S
Tb656 O687 2.341 . S
Tb657 C667 2.809 . S
Tb657 O678 2.325 . S
Tb657 O681 2.341 1_554 S
Tb657 O682 2.484 . S
Tb657 O683 2.440 . S
Tb657 O684 2.658 . S
Tb657 O685 2.409 . S
Tb657 O686 2.378 . S
C658 Tb656 2.809 . S
C658 C659 1.514 1_554 S
C658 O676 1.248 . S
C658 O677 1.266 . S
C659 C658 1.514 1_556 S
C659 C660 1.359 . S
C659 C664 1.348 . S
C660 C659 1.359 . S
C660 C661 1.380 . S
C660 H688 0.929 . S
C661 C660 1.380 . S
C661 C662 1.347 . S
C661 H689 0.931 . S
C662 C661 1.347 . S
C662 C663 1.369 . S
C663 C662 1.369 . S
C663 C664 1.408 . S
C663 H690 0.930 . S
C664 C659 1.348 . S
C664 C663 1.408 . S
C664 H691 0.930 . S
C665 O678 1.281 . S
C665 O679 1.254 . S
C666 O680 1.236 . S
C666 O681 1.266 . S
C667 Tb657 2.809 . S
C667 C668 1.514 . S
C667 O682 1.248 . S
C667 O683 1.266 . S
C668 C667 1.514 . S
C668 C669 1.359 . S
C668 C673 1.348 . S
C669 C668 1.359 . S
C669 C670 1.380 . S
C669 H692 0.929 . S
C670 C669 1.380 . S
C670 C671 1.347 . S
C670 H693 0.931 . S
C671 C670 1.347 . S
C671 C672 1.369 . S
C672 C671 1.369 . S
C672 C673 1.408 . S
C672 H694 0.930 . S
C673 C668 1.348 . S
C673 C672 1.408 . S
C673 H695 0.930 . S
C674 O684 1.281 . S
C674 O685 1.254 . S
C675 O686 1.236 . S
C675 O687 1.266 . S
O676 Tb656 2.484 . S
O676 C658 1.248 . S
O677 Tb656 2.440 . S
O677 C658 1.266 . S
O678 Tb656 2.658 . S
O678 Tb657 2.325 . S
O678 C665 1.281 . S
O679 Tb656 2.409 . S
O679 C665 1.254 . S
O680 Tb656 2.378 1_556 S
O680 C666 1.236 . S
O681 Tb657 2.341 1_556 S
O681 C666 1.266 . S
O682 Tb657 2.484 . S
O682 C667 1.248 . S
O683 Tb657 2.440 . S
O683 C667 1.266 . S
O684 Tb656 2.325 . S
O684 Tb657 2.658 . S
O684 C674 1.281 . S
O685 Tb657 2.409 . S
O685 C674 1.254 . S
O686 Tb657 2.378 . S
O686 C675 1.236 . S
O687 Tb656 2.341 . S
O687 C675 1.266 . S
H688 C660 0.929 . S
H689 C661 0.931 . S
H690 C663 0.930 . S
H691 C664 0.930 . S
H692 C669 0.929 . S
H693 C670 0.931 . S
H694 C672 0.930 . S
H695 C673 0.930 . S
Tb696 C698 2.809 . S
Tb696 O716 2.484 . S
Tb696 O717 2.440 . S
Tb696 O718 2.658 . S
Tb696 O719 2.409 . S
Tb696 O720 2.378 . S
Tb696 O724 2.325 . S
Tb696 O727 2.341 . S
Tb697 C707 2.809 . S
Tb697 O718 2.325 . S
Tb697 O721 2.341 . S
Tb697 O722 2.484 . S
Tb697 O723 2.440 . S
Tb697 O724 2.658 . S
Tb697 O725 2.409 . S
Tb697 O726 2.378 . S
C698 Tb696 2.809 . S
C698 C699 1.514 . S
C698 O716 1.248 . S
C698 O717 1.266 . S
C699 C698 1.514 . S
C699 C700 1.359 . S
C699 C704 1.348 . S
C700 C699 1.359 . S
C700 C701 1.380 . S
C700 H728 0.929 . S
C701 C700 1.380 . S
C701 C702 1.347 . S
C701 H729 0.931 . S
C702 C701 1.347 . S
C702 C703 1.369 . S
C703 C702 1.369 . S
C703 C704 1.408 . S
C703 H730 0.930 . S
C704 C699 1.348 . S
C704 C703 1.408 . S
C704 H731 0.930 . S
C705 O718 1.281 . S
C705 O719 1.254 . S
C706 O720 1.236 . S
C706 O721 1.266 . S
C707 Tb697 2.809 . S
C707 C708 1.514 . S
C707 O722 1.248 . S
C707 O723 1.266 . S
C708 C707 1.514 . S
C708 C709 1.359 . S
C708 C713 1.348 . S
C709 C708 1.359 . S
C709 C710 1.380 . S
C709 H732 0.929 . S
C710 C709 1.380 . S
C710 C711 1.347 . S
C710 H733 0.931 . S
C711 C710 1.347 . S
C711 C712 1.369 . S
C712 C711 1.369 . S
C712 C713 1.408 . S
C712 H734 0.930 . S
C713 C708 1.348 . S
C713 C712 1.408 . S
C713 H735 0.930 . S
C714 O724 1.281 . S
C714 O725 1.254 . S
C715 O726 1.236 . S
C715 O727 1.266 . S
O716 Tb696 2.484 . S
O716 C698 1.248 . S
O717 Tb696 2.440 . S
O717 C698 1.266 . S
O718 Tb696 2.658 . S
O718 Tb697 2.325 . S
O718 C705 1.281 . S
O719 Tb696 2.409 . S
O719 C705 1.254 . S
O720 Tb696 2.378 . S
O720 C706 1.236 . S
O721 Tb697 2.341 . S
O721 C706 1.266 . S
O722 Tb697 2.484 . S
O722 C707 1.248 . S
O723 Tb697 2.440 . S
O723 C707 1.266 . S
O724 Tb696 2.325 . S
O724 Tb697 2.658 . S
O724 C714 1.281 . S
O725 Tb697 2.409 . S
O725 C714 1.254 . S
O726 Tb697 2.378 . S
O726 C715 1.236 . S
O727 Tb696 2.341 . S
O727 C715 1.266 . S
H728 C700 0.929 . S
H729 C701 0.931 . S
H730 C703 0.930 . S
H731 C704 0.930 . S
H732 C709 0.929 . S
H733 C710 0.931 . S
H734 C712 0.930 . S
H735 C713 0.930 . S
Tb736 C738 2.832 . S
Tb736 O756 2.500 . S
Tb736 O757 2.466 . S
Tb736 O758 2.642 1_655 S
Tb736 O759 2.412 1_655 S
Tb736 O760 2.383 . S
Tb736 O764 2.307 1_655 S
Tb736 O767 2.321 1_655 S
Tb737 C747 2.809 . S
Tb737 O758 2.325 . S
Tb737 O761 2.341 . S
Tb737 O762 2.484 . S
Tb737 O763 2.440 . S
Tb737 O764 2.658 . S
Tb737 O765 2.409 . S
Tb737 O766 2.378 . S
C738 Tb736 2.832 . S
C738 C739 1.514 . S
C738 O756 1.248 . S
C738 O757 1.266 . S
C739 C738 1.514 . S
C739 C740 1.359 . S
C739 C744 1.348 . S
C740 C739 1.359 . S
C740 C741 1.380 . S
C740 H768 0.929 . S
C741 C740 1.380 . S
C741 C742 1.347 . S
C741 H769 0.931 . S
C742 C741 1.347 . S
C742 C743 1.369 . S
C743 C742 1.369 . S
C743 C744 1.408 . S
C743 H770 0.930 . S
C744 C739 1.348 . S
C744 C743 1.408 . S
C744 H771 0.930 . S
C745 O758 1.281 . S
C745 O759 1.254 . S
C746 O760 1.236 1_455 S
C746 O761 1.266 . S
C747 Tb737 2.809 . S
C747 C748 1.514 . S
C747 O762 1.248 . S
C747 O763 1.266 . S
C748 C747 1.514 . S
C748 C749 1.359 . S
C748 C753 1.348 . S
C749 C748 1.359 . S
C749 C750 1.380 . S
C749 H772 0.929 . S
C750 C749 1.380 . S
C750 C751 1.347 . S
C750 H773 0.931 . S
C751 C750 1.347 . S
C751 C752 1.369 . S
C752 C751 1.369 . S
C752 C753 1.408 . S
C752 H774 0.930 . S
C753 C748 1.348 . S
C753 C752 1.408 . S
C753 H775 0.930 . S
C754 O764 1.281 . S
C754 O765 1.254 . S
C755 O766 1.236 . S
C755 O767 1.266 . S
O756 Tb736 2.500 . S
O756 C738 1.248 . S
O757 Tb736 2.466 . S
O757 C738 1.266 . S
O758 Tb736 2.642 1_455 S
O758 Tb737 2.325 . S
O758 C745 1.281 . S
O759 Tb736 2.412 1_455 S
O759 C745 1.254 . S
O760 Tb736 2.383 . S
O760 C746 1.236 1_655 S
O761 Tb737 2.341 . S
O761 C746 1.266 . S
O762 Tb737 2.484 . S
O762 C747 1.248 . S
O763 Tb737 2.440 . S
O763 C747 1.266 . S
O764 Tb736 2.307 1_455 S
O764 Tb737 2.658 . S
O764 C754 1.281 . S
O765 Tb737 2.409 . S
O765 C754 1.254 . S
O766 Tb737 2.378 . S
O766 C755 1.236 . S
O767 Tb736 2.321 1_455 S
O767 C755 1.266 . S
H768 C740 0.929 . S
H769 C741 0.931 . S
H770 C743 0.930 . S
H771 C744 0.930 . S
H772 C749 0.929 . S
H773 C750 0.931 . S
H774 C752 0.930 . S
H775 C753 0.930 . S
Tb776 C778 2.809 . S
Tb776 O796 2.484 . S
Tb776 O797 2.440 . S
Tb776 O798 2.658 . S
Tb776 O799 2.409 . S
Tb776 O800 2.378 . S
Tb776 O804 2.325 . S
Tb776 O807 2.341 . S
Tb777 C787 2.809 . S
Tb777 O798 2.325 . S
Tb777 O801 2.341 . S
Tb777 O802 2.484 . S
Tb777 O803 2.440 . S
Tb777 O804 2.658 . S
Tb777 O805 2.409 . S
Tb777 O806 2.378 . S
C778 Tb776 2.809 . S
C778 C779 1.514 . S
C778 O796 1.248 . S
C778 O797 1.266 . S
C779 C778 1.514 . S
C779 C780 1.359 . S
C779 C784 1.348 . S
C780 C779 1.359 . S
C780 C781 1.380 . S
C780 H808 0.929 . S
C781 C780 1.380 . S
C781 C782 1.347 . S
C781 H809 0.931 . S
C782 C781 1.347 . S
C782 C783 1.369 . S
C783 C782 1.369 . S
C783 C784 1.408 . S
C783 H810 0.930 . S
C784 C779 1.348 . S
C784 C783 1.408 . S
C784 H811 0.930 . S
C785 O798 1.281 . S
C785 O799 1.254 . S
C786 O800 1.236 . S
C786 O801 1.266 . S
C787 Tb777 2.809 . S
C787 C788 1.514 . S
C787 O802 1.248 . S
C787 O803 1.266 . S
C788 C787 1.514 . S
C788 C789 1.359 . S
C788 C793 1.348 . S
C789 C788 1.359 . S
C789 C790 1.380 . S
C789 H812 0.929 . S
C790 C789 1.380 . S
C790 C791 1.347 . S
C790 H813 0.931 . S
C791 C790 1.347 . S
C791 C792 1.369 . S
C792 C791 1.369 . S
C792 C793 1.408 . S
C792 H814 0.930 . S
C793 C788 1.348 . S
C793 C792 1.408 . S
C793 H815 0.930 . S
C794 O804 1.281 . S
C794 O805 1.254 . S
C795 O806 1.236 . S
C795 O807 1.266 . S
O796 Tb776 2.484 . S
O796 C778 1.248 . S
O797 Tb776 2.440 . S
O797 C778 1.266 . S
O798 Tb776 2.658 . S
O798 Tb777 2.325 . S
O798 C785 1.281 . S
O799 Tb776 2.409 . S
O799 C785 1.254 . S
O800 Tb776 2.378 . S
O800 C786 1.236 . S
O801 Tb777 2.341 . S
O801 C786 1.266 . S
O802 Tb777 2.484 . S
O802 C787 1.248 . S
O803 Tb777 2.440 . S
O803 C787 1.266 . S
O804 Tb776 2.325 . S
O804 Tb777 2.658 . S
O804 C794 1.281 . S
O805 Tb777 2.409 . S
O805 C794 1.254 . S
O806 Tb777 2.378 . S
O806 C795 1.236 . S
O807 Tb776 2.341 . S
O807 C795 1.266 . S
H808 C780 0.929 . S
H809 C781 0.931 . S
H810 C783 0.930 . S
H811 C784 0.930 . S
H812 C789 0.929 . S
H813 C790 0.931 . S
H814 C792 0.930 . S
H815 C793 0.930 . S
Tb816 C818 2.809 . S
Tb816 O836 2.484 . S
Tb816 O837 2.440 . S
Tb816 O838 2.658 . S
Tb816 O839 2.409 . S
Tb816 O840 2.378 . S
Tb816 O844 2.325 . S
Tb816 O847 2.341 . S
Tb817 C827 2.809 . S
Tb817 O838 2.325 . S
Tb817 O841 2.341 . S
Tb817 O842 2.484 . S
Tb817 O843 2.440 . S
Tb817 O844 2.658 . S
Tb817 O845 2.409 . S
Tb817 O846 2.378 . S
C818 Tb816 2.809 . S
C818 C819 1.514 . S
C818 O836 1.248 . S
C818 O837 1.266 . S
C819 C818 1.514 . S
C819 C820 1.359 . S
C819 C824 1.348 . S
C820 C819 1.359 . S
C820 C821 1.380 . S
C820 H848 0.929 . S
C821 C820 1.380 . S
C821 C822 1.347 . S
C821 H849 0.931 . S
C822 C821 1.347 . S
C822 C823 1.369 . S
C823 C822 1.369 . S
C823 C824 1.408 . S
C823 H850 0.930 . S
C824 C819 1.348 . S
C824 C823 1.408 . S
C824 H851 0.930 . S
C825 O838 1.281 . S
C825 O839 1.254 . S
C826 O840 1.236 . S
C826 O841 1.266 . S
C827 Tb817 2.809 . S
C827 C828 1.514 . S
C827 O842 1.248 . S
C827 O843 1.266 . S
C828 C827 1.514 . S
C828 C829 1.359 . S
C828 C833 1.348 . S
C829 C828 1.359 . S
C829 C830 1.380 . S
C829 H852 0.929 . S
C830 C829 1.380 . S
C830 C831 1.347 . S
C830 H853 0.931 . S
C831 C830 1.347 . S
C831 C832 1.369 . S
C832 C831 1.369 . S
C832 C833 1.408 . S
C832 H854 0.930 . S
C833 C828 1.348 . S
C833 C832 1.408 . S
C833 H855 0.930 . S
C834 O844 1.281 . S
C834 O845 1.254 . S
C835 O846 1.236 . S
C835 O847 1.266 . S
O836 Tb816 2.484 . S
O836 C818 1.248 . S
O837 Tb816 2.440 . S
O837 C818 1.266 . S
O838 Tb816 2.658 . S
O838 Tb817 2.325 . S
O838 C825 1.281 . S
O839 Tb816 2.409 . S
O839 C825 1.254 . S
O840 Tb816 2.378 . S
O840 C826 1.236 . S
O841 Tb817 2.341 . S
O841 C826 1.266 . S
O842 Tb817 2.484 . S
O842 C827 1.248 . S
O843 Tb817 2.440 . S
O843 C827 1.266 . S
O844 Tb816 2.325 . S
O844 Tb817 2.658 . S
O844 C834 1.281 . S
O845 Tb817 2.409 . S
O845 C834 1.254 . S
O846 Tb817 2.378 . S
O846 C835 1.236 . S
O847 Tb816 2.341 . S
O847 C835 1.266 . S
H848 C820 0.929 . S
H849 C821 0.931 . S
H850 C823 0.930 . S
H851 C824 0.930 . S
H852 C829 0.929 . S
H853 C830 0.931 . S
H854 C832 0.930 . S
H855 C833 0.930 . S
Tb856 C858 2.809 . S
Tb856 O876 2.484 . S
Tb856 O877 2.440 . S
Tb856 O878 2.658 . S
Tb856 O879 2.409 . S
Tb856 O880 2.378 . S
Tb856 O884 2.325 . S
Tb856 O887 2.341 . S
Tb857 C867 2.809 . S
Tb857 O878 2.325 . S
Tb857 O881 2.341 . S
Tb857 O882 2.484 . S
Tb857 O883 2.440 . S
Tb857 O884 2.658 . S
Tb857 O885 2.409 . S
Tb857 O886 2.378 . S
C858 Tb856 2.809 . S
C858 C859 1.514 . S
C858 O876 1.248 . S
C858 O877 1.266 . S
C859 C858 1.514 . S
C859 C860 1.359 . S
C859 C864 1.348 . S
C860 C859 1.359 . S
C860 C861 1.380 . S
C860 H888 0.929 . S
C861 C860 1.380 . S
C861 C862 1.347 . S
C861 H889 0.931 . S
C862 C861 1.347 . S
C862 C863 1.369 . S
C863 C862 1.369 . S
C863 C864 1.408 . S
C863 H890 0.930 . S
C864 C859 1.348 . S
C864 C863 1.408 . S
C864 H891 0.930 . S
C865 O878 1.281 . S
C865 O879 1.254 . S
C866 O880 1.236 . S
C866 O881 1.266 . S
C867 Tb857 2.809 . S
C867 C868 1.514 . S
C867 O882 1.248 . S
C867 O883 1.266 . S
C868 C867 1.514 . S
C868 C869 1.359 . S
C868 C873 1.348 . S
C869 C868 1.359 . S
C869 C870 1.380 . S
C869 H892 0.929 . S
C870 C869 1.380 . S
C870 C871 1.347 . S
C870 H893 0.931 . S
C871 C870 1.347 . S
C871 C872 1.369 . S
C872 C871 1.369 . S
C872 C873 1.408 . S
C872 H894 0.930 . S
C873 C868 1.348 . S
C873 C872 1.408 . S
C873 H895 0.930 . S
C874 O884 1.281 . S
C874 O885 1.254 . S
C875 O886 1.236 . S
C875 O887 1.266 . S
O876 Tb856 2.484 . S
O876 C858 1.248 . S
O877 Tb856 2.440 . S
O877 C858 1.266 . S
O878 Tb856 2.658 . S
O878 Tb857 2.325 . S
O878 C865 1.281 . S
O879 Tb856 2.409 . S
O879 C865 1.254 . S
O880 Tb856 2.378 . S
O880 C866 1.236 . S
O881 Tb857 2.341 . S
O881 C866 1.266 . S
O882 Tb857 2.484 . S
O882 C867 1.248 . S
O883 Tb857 2.440 . S
O883 C867 1.266 . S
O884 Tb856 2.325 . S
O884 Tb857 2.658 . S
O884 C874 1.281 . S
O885 Tb857 2.409 . S
O885 C874 1.254 . S
O886 Tb857 2.378 . S
O886 C875 1.236 . S
O887 Tb856 2.341 . S
O887 C875 1.266 . S
H888 C860 0.929 . S
H889 C861 0.931 . S
H890 C863 0.930 . S
H891 C864 0.930 . S
H892 C869 0.929 . S
H893 C870 0.931 . S
H894 C872 0.930 . S
H895 C873 0.930 . S
Tb896 C898 2.809 . S
Tb896 O916 2.484 . S
Tb896 O917 2.440 . S
Tb896 O918 2.658 . S
Tb896 O919 2.409 . S
Tb896 O920 2.378 . S
Tb896 O924 2.325 . S
Tb896 O927 2.341 . S
Tb897 C907 2.809 . S
Tb897 O918 2.325 . S
Tb897 O921 2.341 . S
Tb897 O922 2.484 . S
Tb897 O923 2.440 . S
Tb897 O924 2.658 . S
Tb897 O925 2.409 . S
Tb897 O926 2.378 . S
C898 Tb896 2.809 . S
C898 C899 1.514 . S
C898 O916 1.248 . S
C898 O917 1.266 . S
C899 C898 1.514 . S
C899 C900 1.359 . S
C899 C904 1.348 . S
C900 C899 1.359 . S
C900 C901 1.380 . S
C900 H928 0.929 . S
C901 C900 1.380 . S
C901 C902 1.347 . S
C901 H929 0.931 . S
C902 C901 1.347 . S
C902 C903 1.369 . S
C903 C902 1.369 . S
C903 C904 1.408 . S
C903 H930 0.930 . S
C904 C899 1.348 . S
C904 C903 1.408 . S
C904 H931 0.930 . S
C905 O918 1.281 . S
C905 O919 1.254 . S
C906 O920 1.236 . S
C906 O921 1.266 . S
C907 Tb897 2.809 . S
C907 C908 1.514 . S
C907 O922 1.248 . S
C907 O923 1.266 . S
C908 C907 1.514 . S
C908 C909 1.359 . S
C908 C913 1.348 . S
C909 C908 1.359 . S
C909 C910 1.380 . S
C909 H932 0.929 . S
C910 C909 1.380 . S
C910 C911 1.347 . S
C910 H933 0.931 . S
C911 C910 1.347 . S
C911 C912 1.369 . S
C912 C911 1.369 . S
C912 C913 1.408 . S
C912 H934 0.930 . S
C913 C908 1.348 . S
C913 C912 1.408 . S
C913 H935 0.930 . S
C914 O924 1.281 . S
C914 O925 1.254 . S
C915 O926 1.236 . S
C915 O927 1.266 . S
O916 Tb896 2.484 . S
O916 C898 1.248 . S
O917 Tb896 2.440 . S
O917 C898 1.266 . S
O918 Tb896 2.658 . S
O918 Tb897 2.325 . S
O918 C905 1.281 . S
O919 Tb896 2.409 . S
O919 C905 1.254 . S
O920 Tb896 2.378 . S
O920 C906 1.236 . S
O921 Tb897 2.341 . S
O921 C906 1.266 . S
O922 Tb897 2.484 . S
O922 C907 1.248 . S
O923 Tb897 2.440 . S
O923 C907 1.266 . S
O924 Tb896 2.325 . S
O924 Tb897 2.658 . S
O924 C914 1.281 . S
O925 Tb897 2.409 . S
O925 C914 1.254 . S
O926 Tb897 2.378 . S
O926 C915 1.236 . S
O927 Tb896 2.341 . S
O927 C915 1.266 . S
H928 C900 0.929 . S
H929 C901 0.931 . S
H930 C903 0.930 . S
H931 C904 0.930 . S
H932 C909 0.929 . S
H933 C910 0.931 . S
H934 C912 0.930 . S
H935 C913 0.930 . S
Tb936 C938 2.809 . S
Tb936 O956 2.484 . S
Tb936 O957 2.423 1_554 S
Tb936 O958 2.658 . S
Tb936 O959 2.409 1_554 S
Tb936 O960 2.378 . S
Tb936 O964 2.325 . S
Tb936 O967 2.341 . S
Tb937 C947 2.809 1_455 S
Tb937 O958 2.325 . S
Tb937 O961 2.341 . S
Tb937 O962 2.484 1_455 S
Tb937 O963 2.440 1_455 S
Tb937 O964 2.658 . S
Tb937 O965 2.409 . S
Tb937 O966 2.378 . S
C938 Tb936 2.809 . S
C938 C939 1.514 . S
C938 O956 1.248 . S
C938 O957 1.244 1_554 S
C939 C938 1.514 . S
C939 C940 1.359 . S
C939 C944 1.348 1_554 S
C940 C939 1.359 . S
C940 C941 1.380 . S
C940 H968 0.929 . S
C941 C940 1.380 . S
C941 C942 1.347 . S
C941 H969 0.931 . S
C942 C941 1.347 . S
C942 C943 1.369 1_554 S
C943 C942 1.369 1_556 S
C943 C944 1.408 . S
C943 H970 0.930 . S
C944 C939 1.348 1_556 S
C944 C943 1.408 . S
C944 H971 0.930 . S
C945 O958 1.281 1_556 S
C945 O959 1.254 . S
C946 O960 1.236 . S
C946 O961 1.266 . S
C947 Tb937 2.809 1_655 S
C947 C948 1.514 . S
C947 O962 1.248 . S
C947 O963 1.266 . S
C948 C947 1.514 . S
C948 C949 1.359 . S
C948 C953 1.348 . S
C949 C948 1.359 . S
C949 C950 1.380 . S
C949 H972 0.929 . S
C950 C949 1.380 . S
C950 C951 1.347 . S
C950 H973 0.931 . S
C951 C950 1.347 . S
C951 C952 1.369 . S
C952 C951 1.369 . S
C952 C953 1.408 . S
C952 H974 0.930 . S
C953 C948 1.348 . S
C953 C952 1.408 . S
C953 H975 0.930 . S
C954 O964 1.281 . S
C954 O965 1.254 . S
C955 O966 1.236 . S
C955 O967 1.266 . S
O956 Tb936 2.484 . S
O956 C938 1.248 . S
O957 Tb936 2.423 1_556 S
O957 C938 1.244 1_556 S
O958 Tb936 2.658 . S
O958 Tb937 2.325 . S
O958 C945 1.281 1_554 S
O959 Tb936 2.409 1_556 S
O959 C945 1.254 . S
O960 Tb936 2.378 . S
O960 C946 1.236 . S
O961 Tb937 2.341 . S
O961 C946 1.266 . S
O962 Tb937 2.484 1_655 S
O962 C947 1.248 . S
O963 Tb937 2.440 1_655 S
O963 C947 1.266 . S
O964 Tb936 2.325 . S
O964 Tb937 2.658 . S
O964 C954 1.281 . S
O965 Tb937 2.409 . S
O965 C954 1.254 . S
O966 Tb937 2.378 . S
O966 C955 1.236 . S
O967 Tb936 2.341 . S
O967 C955 1.266 . S
H968 C940 0.929 . S
H969 C941 0.931 . S
H970 C943 0.930 . S
H971 C944 0.930 . S
H972 C949 0.929 . S
H973 C950 0.931 . S
H974 C952 0.930 . S
H975 C953 0.930 . S
C976 C977 1.349 . S
C976 C978 1.327 . S
C976 H1001 0.950 . S
C977 C976 1.349 . S
C977 C993 1.349 . S
C978 C976 1.327 . S
C978 C997 1.429 . S
C978 H1002 0.950 . S
C979 C996 1.574 . S
C979 C998 1.368 . S
C979 H1003 0.949 . S
H980 C984 0.949 . S
C981 C982 1.315 1_556 S
C981 C983 1.345 . S
C981 H1004 0.967 . S
C982 C981 1.315 1_554 S
C982 C994 1.349 . S
C983 C981 1.345 . S
C983 C999 1.429 1_556 S
C983 H1005 0.950 . S
C984 H980 0.949 . S
C984 C992 1.574 1_554 S
C984 C1000 1.368 1_554 S
H985 C993 0.950 . S
H986 C991 0.950 . S
H987 C992 0.949 1_554 S
H988 C994 0.950 . S
H989 C995 0.950 . S
H990 C996 0.949 . S
C991 H986 0.950 . S
C991 C993 1.327 . S
C991 C997 1.429 . S
C992 C984 1.574 1_556 S
C992 H987 0.949 1_556 S
C992 C998 1.368 . S
C993 C977 1.349 . S
C993 H985 0.950 . S
C993 C991 1.327 . S
C994 C982 1.349 . S
C994 H988 0.950 . S
C994 C995 1.327 . S
C995 H989 0.950 . S
C995 C994 1.327 . S
C995 C999 1.429 . S
C996 C979 1.574 . S
C996 H990 0.949 . S
C996 C1000 1.368 . S
C997 C978 1.429 . S
C997 C991 1.429 . S
C997 C998 1.523 . S
C998 C979 1.368 . S
C998 C992 1.368 . S
C998 C997 1.523 . S
C999 C983 1.429 1_554 S
C999 C995 1.429 . S
C999 C1000 1.523 1_554 S
C1000 C984 1.368 1_556 S
C1000 C996 1.368 . S
C1000 C999 1.523 1_556 S
H1001 C976 0.950 . S
H1002 C978 0.950 . S
H1003 C979 0.949 . S
H1004 C981 0.967 . S
H1005 C983 0.950 . S
C1006 C1007 1.349 . S
C1006 C1008 1.327 . S
C1006 H1031 0.950 . S
C1007 C1006 1.349 . S
C1007 C1023 1.349 . S
C1008 C1006 1.327 . S
C1008 C1027 1.429 . S
C1008 H1032 0.950 . S
C1009 C1026 1.574 . S
C1009 C1028 1.368 . S
C1009 H1033 0.949 . S
H1010 C1014 0.949 . S
C1011 C1012 1.349 . S
C1011 C1013 1.327 . S
C1011 H1034 0.950 . S
C1012 C1011 1.349 . S
C1012 C1024 1.349 . S
C1013 C1011 1.327 . S
C1013 C1029 1.429 . S
C1013 H1035 0.950 . S
C1014 H1010 0.949 . S
C1014 C1022 1.574 . S
C1014 C1030 1.368 . S
H1015 C1023 0.950 . S
H1016 C1021 0.950 . S
H1017 C1022 0.949 . S
H1018 C1024 0.950 . S
H1019 C1025 0.950 . S
H1020 C1026 0.949 . S
C1021 H1016 0.950 . S
C1021 C1023 1.327 . S
C1021 C1027 1.429 . S
C1022 C1014 1.574 . S
C1022 H1017 0.949 . S
C1022 C1028 1.368 . S
C1023 C1007 1.349 . S
C1023 H1015 0.950 . S
C1023 C1021 1.327 . S
C1024 C1012 1.349 . S
C1024 H1018 0.950 . S
C1024 C1025 1.327 . S
C1025 H1019 0.950 . S
C1025 C1024 1.327 . S
C1025 C1029 1.429 . S
C1026 C1009 1.574 . S
C1026 H1020 0.949 . S
C1026 C1030 1.368 . S
C1027 C1008 1.429 . S
C1027 C1021 1.429 . S
C1027 C1028 1.523 . S
C1028 C1009 1.368 . S
C1028 C1022 1.368 . S
C1028 C1027 1.523 . S
C1029 C1013 1.429 . S
C1029 C1025 1.429 . S
C1029 C1030 1.523 . S
C1030 C1014 1.368 . S
C1030 C1026 1.368 . S
C1030 C1029 1.523 . S
H1031 C1006 0.950 . S
H1032 C1008 0.950 . S
H1033 C1009 0.949 . S
H1034 C1011 0.950 . S
H1035 C1013 0.950 . S
C1036 C1037 1.349 . S
C1036 C1038 1.327 . S
C1036 H1061 0.950 . S
C1037 C1036 1.349 . S
C1037 C1053 1.349 . S
C1038 C1036 1.327 . S
C1038 C1057 1.429 . S
C1038 H1062 0.950 . S
C1039 C1056 1.574 . S
C1039 C1058 1.368 . S
C1039 H1063 0.949 . S
H1040 C1044 0.949 . S
C1041 C1042 1.349 . S
C1041 C1043 1.327 . S
C1041 H1064 0.950 . S
C1042 C1041 1.349 . S
C1042 C1054 1.349 . S
C1043 C1041 1.327 . S
C1043 C1059 1.429 . S
C1043 H1065 0.950 . S
C1044 H1040 0.949 . S
C1044 C1052 1.574 . S
C1044 C1060 1.368 . S
H1045 C1053 0.950 . S
H1046 C1051 0.950 . S
H1047 C1052 0.949 . S
H1048 C1054 0.950 . S
H1049 C1055 0.950 . S
H1050 C1056 0.949 . S
C1051 H1046 0.950 . S
C1051 C1053 1.327 . S
C1051 C1057 1.429 . S
C1052 C1044 1.574 . S
C1052 H1047 0.949 . S
C1052 C1058 1.368 . S
C1053 C1037 1.349 . S
C1053 H1045 0.950 . S
C1053 C1051 1.327 . S
C1054 C1042 1.349 . S
C1054 H1048 0.950 . S
C1054 C1055 1.327 . S
C1055 H1049 0.950 . S
C1055 C1054 1.327 . S
C1055 C1059 1.429 . S
C1056 C1039 1.574 . S
C1056 H1050 0.949 . S
C1056 C1060 1.368 . S
C1057 C1038 1.429 . S
C1057 C1051 1.429 . S
C1057 C1058 1.523 . S
C1058 C1039 1.368 . S
C1058 C1052 1.368 . S
C1058 C1057 1.523 . S
C1059 C1043 1.429 . S
C1059 C1055 1.429 . S
C1059 C1060 1.523 . S
C1060 C1044 1.368 . S
C1060 C1056 1.368 . S
C1060 C1059 1.523 . S
H1061 C1036 0.950 . S
H1062 C1038 0.950 . S
H1063 C1039 0.949 . S
H1064 C1041 0.950 . S
H1065 C1043 0.950 . S
C1066 C1067 1.349 . S
C1066 C1068 1.327 . S
C1066 H1091 0.950 . S
C1067 C1066 1.349 . S
C1067 C1083 1.349 . S
C1068 C1066 1.327 . S
C1068 C1087 1.429 . S
C1068 H1092 0.950 . S
C1069 C1086 1.574 . S
C1069 C1088 1.368 . S
C1069 H1093 0.949 . S
H1070 C1074 0.949 . S
C1071 C1072 1.349 . S
C1071 C1073 1.327 . S
C1071 H1094 0.950 . S
C1072 C1071 1.349 . S
C1072 C1084 1.349 . S
C1073 C1071 1.327 . S
C1073 C1089 1.429 . S
C1073 H1095 0.950 . S
C1074 H1070 0.949 . S
C1074 C1082 1.574 . S
C1074 C1090 1.368 . S
H1075 C1083 0.950 . S
H1076 C1081 0.950 . S
H1077 C1082 0.949 . S
H1078 C1084 0.950 . S
H1079 C1085 0.950 . S
H1080 C1086 0.949 . S
C1081 H1076 0.950 . S
C1081 C1083 1.327 . S
C1081 C1087 1.429 . S
C1082 C1074 1.574 . S
C1082 H1077 0.949 . S
C1082 C1088 1.368 . S
C1083 C1067 1.349 . S
C1083 H1075 0.950 . S
C1083 C1081 1.327 . S
C1084 C1072 1.349 . S
C1084 H1078 0.950 . S
C1084 C1085 1.327 . S
C1085 H1079 0.950 . S
C1085 C1084 1.327 . S
C1085 C1089 1.429 . S
C1086 C1069 1.574 . S
C1086 H1080 0.949 . S
C1086 C1090 1.368 . S
C1087 C1068 1.429 . S
C1087 C1081 1.429 . S
C1087 C1088 1.523 . S
C1088 C1069 1.368 . S
C1088 C1082 1.368 . S
C1088 C1087 1.523 . S
C1089 C1073 1.429 . S
C1089 C1085 1.429 . S
C1089 C1090 1.523 . S
C1090 C1074 1.368 . S
C1090 C1086 1.368 . S
C1090 C1089 1.523 . S
H1091 C1066 0.950 . S
H1092 C1068 0.950 . S
H1093 C1069 0.949 . S
H1094 C1071 0.950 . S
H1095 C1073 0.950 . S
C1096 C1097 1.349 . S
C1096 C1098 1.327 . S
C1096 H1121 0.950 . S
C1097 C1096 1.349 . S
C1097 C1113 1.349 . S
C1098 C1096 1.327 . S
C1098 C1117 1.429 . S
C1098 H1122 0.950 . S
C1099 C1116 1.574 . S
C1099 C1118 1.368 . S
C1099 H1123 0.949 . S
H1100 C1104 0.949 . S
C1101 C1102 1.349 . S
C1101 C1103 1.327 . S
C1101 H1124 0.950 . S
C1102 C1101 1.349 . S
C1102 C1114 1.349 . S
C1103 C1101 1.327 . S
C1103 C1119 1.429 . S
C1103 H1125 0.950 . S
C1104 H1100 0.949 . S
C1104 C1112 1.574 . S
C1104 C1120 1.368 . S
H1105 C1113 0.950 . S
H1106 C1111 0.950 . S
H1107 C1112 0.949 . S
H1108 C1114 0.950 . S
H1109 C1115 0.950 . S
H1110 C1116 0.949 . S
C1111 H1106 0.950 . S
C1111 C1113 1.327 . S
C1111 C1117 1.429 . S
C1112 C1104 1.574 . S
C1112 H1107 0.949 . S
C1112 C1118 1.368 . S
C1113 C1097 1.349 . S
C1113 H1105 0.950 . S
C1113 C1111 1.327 . S
C1114 C1102 1.349 . S
C1114 H1108 0.950 . S
C1114 C1115 1.327 . S
C1115 H1109 0.950 . S
C1115 C1114 1.327 . S
C1115 C1119 1.429 . S
C1116 C1099 1.574 . S
C1116 H1110 0.949 . S
C1116 C1120 1.368 . S
C1117 C1098 1.429 . S
C1117 C1111 1.429 . S
C1117 C1118 1.523 . S
C1118 C1099 1.368 . S
C1118 C1112 1.368 . S
C1118 C1117 1.523 . S
C1119 C1103 1.429 . S
C1119 C1115 1.429 . S
C1119 C1120 1.523 . S
C1120 C1104 1.368 . S
C1120 C1116 1.368 . S
C1120 C1119 1.523 . S
H1121 C1096 0.950 . S
H1122 C1098 0.950 . S
H1123 C1099 0.949 . S
H1124 C1101 0.950 . S
H1125 C1103 0.950 . S
C1126 C1127 1.349 . S
C1126 C1128 1.327 . S
C1126 H1151 0.950 . S
C1127 C1126 1.349 . S
C1127 C1143 1.349 . S
C1128 C1126 1.327 . S
C1128 C1147 1.429 . S
C1128 H1152 0.950 . S
C1129 C1146 1.574 . S
C1129 C1148 1.368 . S
C1129 H1153 0.949 . S
H1130 C1134 0.949 . S
C1131 C1132 1.349 . S
C1131 C1133 1.327 . S
C1131 H1154 0.950 . S
C1132 C1131 1.349 . S
C1132 C1144 1.349 . S
C1133 C1131 1.327 . S
C1133 C1149 1.429 . S
C1133 H1155 0.950 . S
C1134 H1130 0.949 . S
C1134 C1142 1.574 . S
C1134 C1150 1.368 . S
H1135 C1143 0.950 . S
H1136 C1141 0.950 . S
H1137 C1142 0.949 . S
H1138 C1144 0.950 . S
H1139 C1145 0.950 . S
H1140 C1146 0.949 . S
C1141 H1136 0.950 . S
C1141 C1143 1.327 . S
C1141 C1147 1.429 . S
C1142 C1134 1.574 . S
C1142 H1137 0.949 . S
C1142 C1148 1.368 . S
C1143 C1127 1.349 . S
C1143 H1135 0.950 . S
C1143 C1141 1.327 . S
C1144 C1132 1.349 . S
C1144 H1138 0.950 . S
C1144 C1145 1.327 . S
C1145 H1139 0.950 . S
C1145 C1144 1.327 . S
C1145 C1149 1.429 . S
C1146 C1129 1.574 . S
C1146 H1140 0.949 . S
C1146 C1150 1.368 . S
C1147 C1128 1.429 . S
C1147 C1141 1.429 . S
C1147 C1148 1.523 . S
C1148 C1129 1.368 . S
C1148 C1142 1.368 . S
C1148 C1147 1.523 . S
C1149 C1133 1.429 . S
C1149 C1145 1.429 . S
C1149 C1150 1.523 . S
C1150 C1134 1.368 . S
C1150 C1146 1.368 . S
C1150 C1149 1.523 . S
H1151 C1126 0.950 . S
H1152 C1128 0.950 . S
H1153 C1129 0.949 . S
H1154 C1131 0.950 . S
H1155 C1133 0.950 . S
C1156 C1157 1.349 . S
C1156 C1158 1.327 . S
C1156 H1181 0.950 . S
C1157 C1156 1.349 . S
C1157 C1173 1.349 . S
C1158 C1156 1.327 . S
C1158 C1177 1.429 . S
C1158 H1182 0.950 . S
C1159 C1176 1.574 . S
C1159 C1178 1.368 . S
C1159 H1183 0.949 . S
H1160 C1164 0.949 . S
C1161 C1162 1.349 . S
C1161 C1163 1.327 . S
C1161 H1184 0.950 . S
C1162 C1161 1.349 . S
C1162 C1174 1.349 . S
C1163 C1161 1.327 . S
C1163 C1179 1.429 . S
C1163 H1185 0.950 . S
C1164 H1160 0.949 . S
C1164 C1172 1.574 . S
C1164 C1180 1.368 . S
H1165 C1173 0.950 . S
H1166 C1171 0.950 . S
H1167 C1172 0.949 . S
H1168 C1174 0.950 . S
H1169 C1175 0.950 . S
H1170 C1176 0.949 . S
C1171 H1166 0.950 . S
C1171 C1173 1.327 . S
C1171 C1177 1.429 . S
C1172 C1164 1.574 . S
C1172 H1167 0.949 . S
C1172 C1178 1.368 . S
C1173 C1157 1.349 . S
C1173 H1165 0.950 . S
C1173 C1171 1.327 . S
C1174 C1162 1.349 . S
C1174 H1168 0.950 . S
C1174 C1175 1.327 . S
C1175 H1169 0.950 . S
C1175 C1174 1.327 . S
C1175 C1179 1.429 . S
C1176 C1159 1.574 . S
C1176 H1170 0.949 . S
C1176 C1180 1.368 . S
C1177 C1158 1.429 . S
C1177 C1171 1.429 . S
C1177 C1178 1.523 . S
C1178 C1159 1.368 . S
C1178 C1172 1.368 . S
C1178 C1177 1.523 . S
C1179 C1163 1.429 . S
C1179 C1175 1.429 . S
C1179 C1180 1.523 . S
C1180 C1164 1.368 . S
C1180 C1176 1.368 . S
C1180 C1179 1.523 . S
H1181 C1156 0.950 . S
H1182 C1158 0.950 . S
H1183 C1159 0.949 . S
H1184 C1161 0.950 . S
H1185 C1163 0.950 . S
C1186 C1187 1.349 . S
C1186 C1188 1.327 . S
C1186 H1211 0.950 . S
C1187 C1186 1.349 . S
C1187 C1203 1.349 . S
C1188 C1186 1.327 . S
C1188 C1207 1.429 . S
C1188 H1212 0.950 . S
C1189 C1206 1.574 . S
C1189 C1208 1.368 . S
C1189 H1213 0.949 . S
H1190 C1194 0.949 . S
C1191 C1192 1.349 . S
C1191 C1193 1.327 . S
C1191 H1214 0.950 . S
C1192 C1191 1.349 . S
C1192 C1204 1.349 . S
C1193 C1191 1.327 . S
C1193 C1209 1.429 . S
C1193 H1215 0.950 . S
C1194 H1190 0.949 . S
C1194 C1202 1.574 . S
C1194 C1210 1.368 . S
H1195 C1203 0.950 . S
H1196 C1201 0.950 . S
H1197 C1202 0.949 . S
H1198 C1204 0.950 . S
H1199 C1205 0.950 . S
H1200 C1206 0.949 . S
C1201 H1196 0.950 . S
C1201 C1203 1.327 . S
C1201 C1207 1.429 . S
C1202 C1194 1.574 . S
C1202 H1197 0.949 . S
C1202 C1208 1.368 . S
C1203 C1187 1.349 . S
C1203 H1195 0.950 . S
C1203 C1201 1.327 . S
C1204 C1192 1.349 . S
C1204 H1198 0.950 . S
C1204 C1205 1.327 . S
C1205 H1199 0.950 . S
C1205 C1204 1.327 . S
C1205 C1209 1.429 . S
C1206 C1189 1.574 . S
C1206 H1200 0.949 . S
C1206 C1210 1.368 . S
C1207 C1188 1.429 . S
C1207 C1201 1.429 . S
C1207 C1208 1.523 . S
C1208 C1189 1.368 . S
C1208 C1202 1.368 . S
C1208 C1207 1.523 . S
C1209 C1193 1.429 . S
C1209 C1205 1.429 . S
C1209 C1210 1.523 . S
C1210 C1194 1.368 . S
C1210 C1206 1.368 . S
C1210 C1209 1.523 . S
H1211 C1186 0.950 . S
H1212 C1188 0.950 . S
H1213 C1189 0.949 . S
H1214 C1191 0.950 . S
H1215 C1193 0.950 . S
C1216 C1217 1.349 1_565 S
C1216 C1218 1.327 . S
C1216 H1241 0.950 . S
C1217 C1216 1.349 1_545 S
C1217 C1233 1.349 . S
C1218 C1216 1.327 . S
C1218 C1237 1.429 1_565 S
C1218 H1242 0.950 . S
C1219 C1236 1.574 1_655 S
C1219 C1238 1.368 . S
C1219 H1243 0.949 . S
H1220 C1224 0.949 1_565 S
C1221 C1222 1.349 . S
C1221 C1223 1.327 . S
C1221 H1244 0.950 . S
C1222 C1221 1.349 . S
C1222 C1234 1.349 . S
C1223 C1221 1.327 . S
C1223 C1239 1.429 . S
C1223 H1245 0.950 . S
C1224 H1220 0.949 1_545 S
C1224 C1232 1.572 1_545 S
C1224 C1240 1.368 . S
H1225 C1233 0.950 . S
H1226 C1231 0.950 . S
H1227 C1232 0.961 . S
H1228 C1234 0.957 1_565 S
H1229 C1235 0.950 1_565 S
H1230 C1236 0.949 . S
C1231 H1226 0.950 . S
C1231 C1233 1.327 . S
C1231 C1237 1.429 . S
C1232 C1224 1.572 1_565 S
C1232 H1227 0.961 . S
C1232 C1238 1.358 1_565 S
C1233 C1217 1.349 . S
C1233 H1225 0.950 . S
C1233 C1231 1.327 . S
C1234 C1222 1.349 . S
C1234 H1228 0.957 1_545 S
C1234 C1235 1.327 1_455 S
C1235 H1229 0.950 1_545 S
C1235 C1234 1.327 1_655 S
C1235 C1239 1.429 1_655 S
C1236 C1219 1.574 1_455 S
C1236 H1230 0.949 . S
C1236 C1240 1.368 1_455 S
C1237 C1218 1.429 1_545 S
C1237 C1231 1.429 . S
C1237 C1238 1.523 . S
C1238 C1219 1.368 . S
C1238 C1232 1.358 1_545 S
C1238 C1237 1.523 . S
C1239 C1223 1.429 . S
C1239 C1235 1.429 1_455 S
C1239 C1240 1.523 1_455 S
C1240 C1224 1.368 . S
C1240 C1236 1.368 1_655 S
C1240 C1239 1.523 1_655 S
H1241 C1216 0.950 . S
H1242 C1218 0.950 . S
H1243 C1219 0.949 . S
H1244 C1221 0.950 . S
H1245 C1223 0.950 . S
C1246 C1247 1.349 . S
C1246 C1248 1.327 . S
C1246 H1271 0.950 . S
C1247 C1246 1.349 . S
C1247 C1263 1.349 . S
C1248 C1246 1.327 . S
C1248 C1267 1.429 . S
C1248 H1272 0.950 . S
C1249 C1266 1.574 . S
C1249 C1268 1.368 . S
C1249 H1273 0.949 . S
H1250 C1254 0.949 . S
C1251 C1252 1.349 . S
C1251 C1253 1.327 . S
C1251 H1274 0.950 . S
C1252 C1251 1.349 . S
C1252 C1264 1.349 . S
C1253 C1251 1.327 . S
C1253 C1269 1.429 . S
C1253 H1275 0.950 . S
C1254 H1250 0.949 . S
C1254 C1262 1.574 . S
C1254 C1270 1.368 . S
H1255 C1263 0.950 . S
H1256 C1261 0.950 . S
H1257 C1262 0.949 . S
H1258 C1264 0.950 . S
H1259 C1265 0.950 . S
H1260 C1266 0.949 . S
C1261 H1256 0.950 . S
C1261 C1263 1.327 . S
C1261 C1267 1.429 . S
C1262 C1254 1.574 . S
C1262 H1257 0.949 . S
C1262 C1268 1.368 . S
C1263 C1247 1.349 . S
C1263 H1255 0.950 . S
C1263 C1261 1.327 . S
C1264 C1252 1.349 . S
C1264 H1258 0.950 . S
C1264 C1265 1.327 . S
C1265 H1259 0.950 . S
C1265 C1264 1.327 . S
C1265 C1269 1.429 . S
C1266 C1249 1.574 . S
C1266 H1260 0.949 . S
C1266 C1270 1.368 . S
C1267 C1248 1.429 . S
C1267 C1261 1.429 . S
C1267 C1268 1.523 . S
C1268 C1249 1.368 . S
C1268 C1262 1.368 . S
C1268 C1267 1.523 . S
C1269 C1253 1.429 . S
C1269 C1265 1.429 . S
C1269 C1270 1.523 . S
C1270 C1254 1.368 . S
C1270 C1266 1.368 . S
C1270 C1269 1.523 . S
H1271 C1246 0.950 . S
H1272 C1248 0.950 . S
H1273 C1249 0.949 . S
H1274 C1251 0.950 . S
H1275 C1253 0.950 . S
C1276 C1277 1.349 . S
C1276 C1278 1.327 . S
C1276 H1301 0.950 . S
C1277 C1276 1.349 . S
C1277 C1293 1.349 1_545 S
C1278 C1276 1.327 . S
C1278 C1297 1.429 . S
C1278 H1302 0.950 . S
C1279 C1296 1.574 . S
C1279 C1298 1.368 1_565 S
C1279 H1303 0.949 . S
H1280 C1284 0.949 . S
C1281 C1282 1.349 1_565 S
C1281 C1283 1.327 . S
C1281 H1304 0.950 . S
C1282 C1281 1.349 1_545 S
C1282 C1294 1.349 . S
C1283 C1281 1.327 . S
C1283 C1299 1.429 1_565 S
C1283 H1305 0.950 . S
C1284 H1280 0.949 . S
C1284 C1292 1.574 . S
C1284 C1300 1.368 . S
H1285 C1293 0.950 . S
H1286 C1291 0.950 . S
H1287 C1292 0.949 . S
H1288 C1294 0.950 . S
H1289 C1295 0.950 . S
H1290 C1296 0.949 . S
C1291 H1286 0.950 . S
C1291 C1293 1.327 . S
C1291 C1297 1.429 1_565 S
C1292 C1284 1.574 . S
C1292 H1287 0.949 . S
C1292 C1298 1.368 . S
C1293 C1277 1.349 1_565 S
C1293 H1285 0.950 . S
C1293 C1291 1.327 . S
C1294 C1282 1.349 . S
C1294 H1288 0.950 . S
C1294 C1295 1.327 . S
C1295 H1289 0.950 . S
C1295 C1294 1.327 . S
C1295 C1299 1.429 . S
C1296 C1279 1.574 . S
C1296 H1290 0.949 . S
C1296 C1300 1.368 1_565 S
C1297 C1278 1.429 . S
C1297 C1291 1.429 1_545 S
C1297 C1298 1.523 . S
C1298 C1279 1.368 1_545 S
C1298 C1292 1.368 . S
C1298 C1297 1.523 . S
C1299 C1283 1.429 1_545 S
C1299 C1295 1.429 . S
C1299 C1300 1.523 . S
C1300 C1284 1.368 . S
C1300 C1296 1.368 1_545 S
C1300 C1299 1.523 . S
H1301 C1276 0.950 . S
H1302 C1278 0.950 . S
H1303 C1279 0.949 . S
H1304 C1281 0.950 . S
H1305 C1283 0.950 . S
C1306 C1307 1.349 . S
C1306 C1308 1.327 . S
C1306 H1331 0.950 . S
C1307 C1306 1.349 . S
C1307 C1323 1.349 . S
C1308 C1306 1.327 . S
C1308 C1327 1.429 . S
C1308 H1332 0.950 . S
C1309 C1326 1.574 . S
C1309 C1328 1.368 . S
C1309 H1333 0.949 . S
H1310 C1314 0.949 . S
C1311 C1312 1.349 . S
C1311 C1313 1.327 . S
C1311 H1334 0.950 . S
C1312 C1311 1.349 . S
C1312 C1324 1.349 . S
C1313 C1311 1.327 . S
C1313 C1329 1.429 . S
C1313 H1335 0.950 . S
C1314 H1310 0.949 . S
C1314 C1322 1.574 . S
C1314 C1330 1.368 . S
H1315 C1323 0.950 . S
H1316 C1321 0.950 . S
H1317 C1322 0.949 . S
H1318 C1324 0.950 . S
H1319 C1325 0.950 . S
H1320 C1326 0.949 . S
C1321 H1316 0.950 . S
C1321 C1323 1.327 . S
C1321 C1327 1.429 . S
C1322 C1314 1.574 . S
C1322 H1317 0.949 . S
C1322 C1328 1.368 . S
C1323 C1307 1.349 . S
C1323 H1315 0.950 . S
C1323 C1321 1.327 . S
C1324 C1312 1.349 . S
C1324 H1318 0.950 . S
C1324 C1325 1.327 . S
C1325 H1319 0.950 . S
C1325 C1324 1.327 . S
C1325 C1329 1.429 . S
C1326 C1309 1.574 . S
C1326 H1320 0.949 . S
C1326 C1330 1.368 . S
C1327 C1308 1.429 . S
C1327 C1321 1.429 . S
C1327 C1328 1.523 . S
C1328 C1309 1.368 . S
C1328 C1322 1.368 . S
C1328 C1327 1.523 . S
C1329 C1313 1.429 . S
C1329 C1325 1.429 . S
C1329 C1330 1.523 . S
C1330 C1314 1.368 . S
C1330 C1326 1.368 . S
C1330 C1329 1.523 . S
H1331 C1306 0.950 . S
H1332 C1308 0.950 . S
H1333 C1309 0.949 . S
H1334 C1311 0.950 . S
H1335 C1313 0.950 . S
C1336 C1337 1.349 . S
C1336 C1338 1.327 . S
C1336 H1361 0.950 1_545 S
C1337 C1336 1.349 . S
C1337 C1353 1.349 . S
C1338 C1336 1.327 . S
C1338 C1357 1.429 . S
C1338 H1362 0.950 1_545 S
C1339 C1356 1.574 . S
C1339 C1358 1.368 . S
C1339 H1363 0.949 . S
H1340 C1344 0.987 1_565 S
C1341 C1342 1.349 . S
C1341 C1343 1.327 1_455 S
C1341 H1364 0.950 1_455 S
C1342 C1341 1.349 . S
C1342 C1354 1.349 . S
C1343 C1341 1.327 1_655 S
C1343 C1359 1.400 1_655 S
C1343 H1365 0.950 . S
C1344 H1340 0.987 1_545 S
C1344 C1352 1.563 1_455 S
C1344 C1360 1.338 1_455 S
H1345 C1353 0.950 . S
H1346 C1351 0.950 . S
H1347 C1352 0.949 1_565 S
H1348 C1354 0.946 . S
H1349 C1355 0.950 1_565 S
H1350 C1356 0.949 . S
C1351 H1346 0.950 . S
C1351 C1353 1.327 . S
C1351 C1357 1.429 . S
C1352 C1344 1.563 1_655 S
C1352 H1347 0.949 1_545 S
C1352 C1358 1.368 . S
C1353 C1337 1.349 . S
C1353 H1345 0.950 . S
C1353 C1351 1.327 . S
C1354 C1342 1.349 . S
C1354 H1348 0.946 . S
C1354 C1355 1.327 . S
C1355 H1349 0.950 1_545 S
C1355 C1354 1.327 . S
C1355 C1359 1.471 . S
C1356 C1339 1.574 . S
C1356 H1350 0.949 . S
C1356 C1360 1.368 . S
C1357 C1338 1.429 . S
C1357 C1351 1.429 . S
C1357 C1358 1.523 . S
C1358 C1339 1.368 . S
C1358 C1352 1.368 . S
C1358 C1357 1.523 . S
C1359 C1343 1.400 1_455 S
C1359 C1355 1.471 . S
C1359 C1360 1.511 1_455 S
C1360 C1344 1.338 1_655 S
C1360 C1356 1.368 . S
C1360 C1359 1.511 1_655 S
H1361 C1336 0.950 1_565 S
H1362 C1338 0.950 1_565 S
H1363 C1339 0.949 . S
H1364 C1341 0.950 1_655 S
H1365 C1343 0.950 . S
C1366 C1367 1.349 . S
C1366 C1368 1.327 . S
C1366 H1391 0.950 . S
C1367 C1366 1.349 . S
C1367 C1383 1.349 . S
C1368 C1366 1.327 . S
C1368 C1387 1.429 . S
C1368 H1392 0.950 . S
C1369 C1386 1.574 . S
C1369 C1388 1.368 . S
C1369 H1393 0.949 . S
H1370 C1374 0.949 . S
C1371 C1372 1.349 . S
C1371 C1373 1.327 . S
C1371 H1394 0.950 . S
C1372 C1371 1.349 . S
C1372 C1384 1.349 . S
C1373 C1371 1.327 . S
C1373 C1389 1.429 . S
C1373 H1395 0.950 . S
C1374 H1370 0.949 . S
C1374 C1382 1.574 . S
C1374 C1390 1.368 . S
H1375 C1383 0.950 . S
H1376 C1381 0.950 . S
H1377 C1382 0.949 . S
H1378 C1384 0.950 . S
H1379 C1385 0.950 . S
H1380 C1386 0.949 . S
C1381 H1376 0.950 . S
C1381 C1383 1.327 . S
C1381 C1387 1.429 . S
C1382 C1374 1.574 . S
C1382 H1377 0.949 . S
C1382 C1388 1.368 . S
C1383 C1367 1.349 . S
C1383 H1375 0.950 . S
C1383 C1381 1.327 . S
C1384 C1372 1.349 . S
C1384 H1378 0.950 . S
C1384 C1385 1.327 . S
C1385 H1379 0.950 . S
C1385 C1384 1.327 . S
C1385 C1389 1.429 . S
C1386 C1369 1.574 . S
C1386 H1380 0.949 . S
C1386 C1390 1.368 . S
C1387 C1368 1.429 . S
C1387 C1381 1.429 . S
C1387 C1388 1.523 . S
C1388 C1369 1.368 . S
C1388 C1382 1.368 . S
C1388 C1387 1.523 . S
C1389 C1373 1.429 . S
C1389 C1385 1.429 . S
C1389 C1390 1.523 . S
C1390 C1374 1.368 . S
C1390 C1386 1.368 . S
C1390 C1389 1.523 . S
H1391 C1366 0.950 . S
H1392 C1368 0.950 . S
H1393 C1369 0.949 . S
H1394 C1371 0.950 . S
H1395 C1373 0.950 . S
C1396 C1397 1.349 . S
C1396 C1398 1.327 . S
C1396 H1421 0.950 1_545 S
C1397 C1396 1.349 . S
C1397 C1413 1.349 . S
C1398 C1396 1.327 . S
C1398 C1417 1.429 . S
C1398 H1422 0.950 1_545 S
C1399 C1416 1.574 . S
C1399 C1418 1.368 . S
C1399 H1423 0.949 . S
H1400 C1404 0.949 . S
C1401 C1402 1.349 . S
C1401 C1403 1.327 . S
C1401 H1424 0.950 . S
C1402 C1401 1.349 . S
C1402 C1414 1.349 . S
C1403 C1401 1.327 . S
C1403 C1419 1.429 . S
C1403 H1425 0.950 . S
C1404 H1400 0.949 . S
C1404 C1412 1.574 . S
C1404 C1420 1.368 . S
H1405 C1413 0.950 . S
H1406 C1411 0.950 . S
H1407 C1412 0.968 . S
H1408 C1414 0.950 . S
H1409 C1415 0.950 . S
H1410 C1416 0.949 . S
C1411 H1406 0.950 . S
C1411 C1413 1.327 . S
C1411 C1417 1.429 . S
C1412 C1404 1.574 . S
C1412 H1407 0.968 . S
C1412 C1418 1.368 . S
C1413 C1397 1.349 . S
C1413 H1405 0.950 . S
C1413 C1411 1.327 . S
C1414 C1402 1.349 . S
C1414 H1408 0.950 . S
C1414 C1415 1.327 . S
C1415 H1409 0.950 . S
C1415 C1414 1.327 . S
C1415 C1419 1.429 . S
C1416 C1399 1.574 . S
C1416 H1410 0.949 . S
C1416 C1420 1.368 . S
C1417 C1398 1.429 . S
C1417 C1411 1.429 . S
C1417 C1418 1.523 . S
C1418 C1399 1.368 . S
C1418 C1412 1.368 . S
C1418 C1417 1.523 . S
C1419 C1403 1.429 . S
C1419 C1415 1.429 . S
C1419 C1420 1.523 . S
C1420 C1404 1.368 . S
C1420 C1416 1.368 . S
C1420 C1419 1.523 . S
H1421 C1396 0.950 1_565 S
H1422 C1398 0.950 1_565 S
H1423 C1399 0.949 . S
H1424 C1401 0.950 . S
H1425 C1403 0.950 . S
C1426 C1427 1.349 . S
C1426 C1428 1.327 . S
C1426 H1451 0.950 . S
C1427 C1426 1.349 . S
C1427 C1443 1.349 . S
C1428 C1426 1.327 . S
C1428 C1447 1.429 . S
C1428 H1452 0.950 . S
C1429 C1446 1.574 . S
C1429 C1448 1.368 . S
C1429 H1453 0.949 . S
H1430 C1434 0.949 . S
C1431 C1432 1.349 . S
C1431 C1433 1.327 . S
C1431 H1454 0.950 . S
C1432 C1431 1.349 . S
C1432 C1444 1.349 . S
C1433 C1431 1.327 . S
C1433 C1449 1.429 . S
C1433 H1455 0.950 . S
C1434 H1430 0.949 . S
C1434 C1442 1.574 . S
C1434 C1450 1.368 . S
H1435 C1443 0.950 . S
H1436 C1441 0.950 . S
H1437 C1442 0.949 . S
H1438 C1444 0.950 . S
H1439 C1445 0.950 . S
H1440 C1446 0.949 . S
C1441 H1436 0.950 . S
C1441 C1443 1.327 . S
C1441 C1447 1.429 . S
C1442 C1434 1.574 . S
C1442 H1437 0.949 . S
C1442 C1448 1.368 . S
C1443 C1427 1.349 . S
C1443 H1435 0.950 . S
C1443 C1441 1.327 . S
C1444 C1432 1.349 . S
C1444 H1438 0.950 . S
C1444 C1445 1.327 . S
C1445 H1439 0.950 . S
C1445 C1444 1.327 . S
C1445 C1449 1.429 . S
C1446 C1429 1.574 . S
C1446 H1440 0.949 . S
C1446 C1450 1.368 . S
C1447 C1428 1.429 . S
C1447 C1441 1.429 . S
C1447 C1448 1.523 . S
C1448 C1429 1.368 . S
C1448 C1442 1.368 . S
C1448 C1447 1.523 . S
C1449 C1433 1.429 . S
C1449 C1445 1.429 . S
C1449 C1450 1.523 . S
C1450 C1434 1.368 . S
C1450 C1446 1.368 . S
C1450 C1449 1.523 . S
H1451 C1426 0.950 . S
H1452 C1428 0.950 . S
H1453 C1429 0.949 . S
H1454 C1431 0.950 . S
H1455 C1433 0.950 . S
C1456 C1457 1.349 1_556 S
C1456 C1458 1.327 . S
C1456 H1481 0.950 . S
C1457 C1456 1.349 1_554 S
C1457 C1473 1.349 . S
C1458 C1456 1.327 . S
C1458 C1477 1.429 1_556 S
C1458 H1482 0.950 . S
C1459 C1476 1.574 . S
C1459 C1478 1.368 . S
C1459 H1483 0.949 . S
H1460 C1464 0.949 . S
C1461 C1462 1.349 . S
C1461 C1463 1.327 . S
C1461 H1484 0.950 . S
C1462 C1461 1.349 . S
C1462 C1474 1.349 . S
C1463 C1461 1.327 . S
C1463 C1479 1.429 . S
C1463 H1485 0.950 . S
C1464 H1460 0.949 . S
C1464 C1472 1.574 . S
C1464 C1480 1.368 . S
H1465 C1473 0.950 . S
H1466 C1471 0.950 . S
H1467 C1472 0.949 1_556 S
H1468 C1474 0.950 . S
H1469 C1475 0.950 . S
H1470 C1476 0.949 . S
C1471 H1466 0.950 . S
C1471 C1473 1.327 . S
C1471 C1477 1.429 . S
C1472 C1464 1.574 . S
C1472 H1467 0.949 1_554 S
C1472 C1478 1.368 . S
C1473 C1457 1.349 . S
C1473 H1465 0.950 . S
C1473 C1471 1.327 . S
C1474 C1462 1.349 . S
C1474 H1468 0.950 . S
C1474 C1475 1.327 . S
C1475 H1469 0.950 . S
C1475 C1474 1.327 . S
C1475 C1479 1.429 . S
C1476 C1459 1.574 . S
C1476 H1470 0.949 . S
C1476 C1480 1.368 . S
C1477 C1458 1.429 1_554 S
C1477 C1471 1.429 . S
C1477 C1478 1.523 . S
C1478 C1459 1.368 . S
C1478 C1472 1.368 . S
C1478 C1477 1.523 . S
C1479 C1463 1.429 . S
C1479 C1475 1.429 . S
C1479 C1480 1.523 . S
C1480 C1464 1.368 . S
C1480 C1476 1.368 . S
C1480 C1479 1.523 . S
H1481 C1456 0.950 . S
H1482 C1458 0.950 . S
H1483 C1459 0.949 . S
H1484 C1461 0.950 . S
H1485 C1463 0.950 . S
C1486 C1487 1.349 . S
C1486 C1488 1.327 . S
C1486 H1511 0.950 . S
C1487 C1486 1.349 . S
C1487 C1503 1.305 1_554 S
C1488 C1486 1.327 . S
C1488 C1507 1.429 . S
C1488 H1512 0.950 . S
C1489 C1506 1.574 . S
C1489 C1508 1.368 1_556 S
C1489 H1513 0.949 . S
H1490 C1494 0.949 . S
C1491 C1492 1.403 . S
C1491 C1493 1.315 . S
C1491 H1514 0.911 1_554 S
C1492 C1491 1.403 . S
C1492 C1504 1.349 . S
C1493 C1491 1.315 . S
C1493 C1509 1.434 . S
C1493 H1515 0.941 1_554 S
C1494 H1490 0.949 . S
C1494 C1502 1.574 . S
C1494 C1510 1.368 . S
H1495 C1503 1.009 . S
H1496 C1501 0.950 . S
H1497 C1502 0.949 . S
H1498 C1504 0.950 . S
H1499 C1505 0.950 . S
H1500 C1506 0.949 . S
C1501 H1496 0.950 . S
C1501 C1503 1.315 . S
C1501 C1507 1.429 1_556 S
C1502 C1494 1.574 . S
C1502 H1497 0.949 . S
C1502 C1508 1.368 . S
C1503 C1487 1.305 1_556 S
C1503 H1495 1.009 . S
C1503 C1501 1.315 . S
C1504 C1492 1.349 . S
C1504 H1498 0.950 . S
C1504 C1505 1.327 . S
C1505 H1499 0.950 . S
C1505 C1504 1.327 . S
C1505 C1509 1.429 . S
C1506 C1489 1.574 . S
C1506 H1500 0.949 . S
C1506 C1510 1.368 1_556 S
C1507 C1488 1.429 . S
C1507 C1501 1.429 1_554 S
C1507 C1508 1.523 . S
C1508 C1489 1.368 1_554 S
C1508 C1502 1.368 . S
C1508 C1507 1.523 . S
C1509 C1493 1.434 . S
C1509 C1505 1.429 . S
C1509 C1510 1.523 . S
C1510 C1494 1.368 . S
C1510 C1506 1.368 1_554 S
C1510 C1509 1.523 . S
H1511 C1486 0.950 . S
H1512 C1488 0.950 . S
H1513 C1489 0.949 . S
H1514 C1491 0.911 1_556 S
H1515 C1493 0.941 1_556 S
C1516 C1517 1.349 . S
C1516 C1518 1.327 . S
C1516 H1541 0.950 . S
C1517 C1516 1.349 . S
C1517 C1533 1.349 . S
C1518 C1516 1.327 . S
C1518 C1537 1.429 . S
C1518 H1542 0.950 . S
C1519 C1536 1.574 . S
C1519 C1538 1.368 . S
C1519 H1543 0.949 . S
H1520 C1524 0.949 . S
C1521 C1522 1.349 . S
C1521 C1523 1.327 . S
C1521 H1544 0.950 . S
C1522 C1521 1.349 . S
C1522 C1534 1.349 . S
C1523 C1521 1.327 . S
C1523 C1539 1.429 . S
C1523 H1545 0.950 . S
C1524 H1520 0.949 . S
C1524 C1532 1.574 . S
C1524 C1540 1.368 . S
H1525 C1533 0.950 . S
H1526 C1531 0.950 . S
H1527 C1532 0.949 . S
H1528 C1534 0.950 . S
H1529 C1535 0.950 . S
H1530 C1536 0.949 . S
C1531 H1526 0.950 . S
C1531 C1533 1.327 . S
C1531 C1537 1.429 . S
C1532 C1524 1.574 . S
C1532 H1527 0.949 . S
C1532 C1538 1.368 . S
C1533 C1517 1.349 . S
C1533 H1525 0.950 . S
C1533 C1531 1.327 . S
C1534 C1522 1.349 . S
C1534 H1528 0.950 . S
C1534 C1535 1.327 . S
C1535 H1529 0.950 . S
C1535 C1534 1.327 . S
C1535 C1539 1.429 . S
C1536 C1519 1.574 . S
C1536 H1530 0.949 . S
C1536 C1540 1.368 . S
C1537 C1518 1.429 . S
C1537 C1531 1.429 . S
C1537 C1538 1.523 . S
C1538 C1519 1.368 . S
C1538 C1532 1.368 . S
C1538 C1537 1.523 . S
C1539 C1523 1.429 . S
C1539 C1535 1.429 . S
C1539 C1540 1.523 . S
C1540 C1524 1.368 . S
C1540 C1536 1.368 . S
C1540 C1539 1.523 . S
H1541 C1516 0.950 . S
H1542 C1518 0.950 . S
H1543 C1519 0.949 . S
H1544 C1521 0.950 . S
H1545 C1523 0.950 . S
C1546 C1547 1.349 . S
C1546 C1548 1.327 . S
C1546 H1571 0.950 . S
C1547 C1546 1.349 . S
C1547 C1563 1.349 . S
C1548 C1546 1.327 . S
C1548 C1567 1.429 . S
C1548 H1572 0.950 . S
C1549 C1566 1.574 . S
C1549 C1568 1.368 . S
C1549 H1573 0.949 . S
H1550 C1554 0.949 . S
C1551 C1552 1.349 . S
C1551 C1553 1.327 . S
C1551 H1574 0.950 . S
C1552 C1551 1.349 . S
C1552 C1564 1.349 . S
C1553 C1551 1.327 . S
C1553 C1569 1.429 . S
C1553 H1575 0.950 . S
C1554 H1550 0.949 . S
C1554 C1562 1.574 . S
C1554 C1570 1.368 . S
H1555 C1563 0.950 . S
H1556 C1561 0.950 . S
H1557 C1562 0.949 . S
H1558 C1564 0.950 . S
H1559 C1565 0.950 . S
H1560 C1566 0.949 . S
C1561 H1556 0.950 . S
C1561 C1563 1.327 . S
C1561 C1567 1.429 . S
C1562 C1554 1.574 . S
C1562 H1557 0.949 . S
C1562 C1568 1.368 . S
C1563 C1547 1.349 . S
C1563 H1555 0.950 . S
C1563 C1561 1.327 . S
C1564 C1552 1.349 . S
C1564 H1558 0.950 . S
C1564 C1565 1.327 . S
C1565 H1559 0.950 . S
C1565 C1564 1.327 . S
C1565 C1569 1.429 . S
C1566 C1549 1.574 . S
C1566 H1560 0.949 . S
C1566 C1570 1.368 . S
C1567 C1548 1.429 . S
C1567 C1561 1.429 . S
C1567 C1568 1.523 . S
C1568 C1549 1.368 . S
C1568 C1562 1.368 . S
C1568 C1567 1.523 . S
C1569 C1553 1.429 . S
C1569 C1565 1.429 . S
C1569 C1570 1.523 . S
C1570 C1554 1.368 . S
C1570 C1566 1.368 . S
C1570 C1569 1.523 . S
H1571 C1546 0.950 . S
H1572 C1548 0.950 . S
H1573 C1549 0.949 . S
H1574 C1551 0.950 . S
H1575 C1553 0.950 . S
C1576 C1577 1.349 . S
C1576 C1578 1.327 . S
C1576 H1601 0.950 . S
C1577 C1576 1.349 . S
C1577 C1593 1.349 . S
C1578 C1576 1.327 . S
C1578 C1597 1.429 . S
C1578 H1602 0.950 . S
C1579 C1596 1.574 . S
C1579 C1598 1.368 . S
C1579 H1603 0.949 . S
H1580 C1584 0.949 . S
C1581 C1582 1.349 . S
C1581 C1583 1.327 . S
C1581 H1604 0.950 . S
C1582 C1581 1.349 . S
C1582 C1594 1.349 . S
C1583 C1581 1.327 . S
C1583 C1599 1.429 . S
C1583 H1605 0.950 . S
C1584 H1580 0.949 . S
C1584 C1592 1.574 . S
C1584 C1600 1.368 . S
H1585 C1593 0.950 . S
H1586 C1591 0.950 . S
H1587 C1592 0.949 . S
H1588 C1594 0.950 . S
H1589 C1595 0.950 . S
H1590 C1596 0.949 . S
C1591 H1586 0.950 . S
C1591 C1593 1.327 . S
C1591 C1597 1.429 . S
C1592 C1584 1.574 . S
C1592 H1587 0.949 . S
C1592 C1598 1.368 . S
C1593 C1577 1.349 . S
C1593 H1585 0.950 . S
C1593 C1591 1.327 . S
C1594 C1582 1.349 . S
C1594 H1588 0.950 . S
C1594 C1595 1.327 . S
C1595 H1589 0.950 . S
C1595 C1594 1.327 . S
C1595 C1599 1.429 . S
C1596 C1579 1.574 . S
C1596 H1590 0.949 . S
C1596 C1600 1.368 . S
C1597 C1578 1.429 . S
C1597 C1591 1.429 . S
C1597 C1598 1.523 . S
C1598 C1579 1.368 . S
C1598 C1592 1.368 . S
C1598 C1597 1.523 . S
C1599 C1583 1.429 . S
C1599 C1595 1.429 . S
C1599 C1600 1.523 . S
C1600 C1584 1.368 . S
C1600 C1596 1.368 . S
C1600 C1599 1.523 . S
H1601 C1576 0.950 . S
H1602 C1578 0.950 . S
H1603 C1579 0.949 . S
H1604 C1581 0.950 . S
H1605 C1583 0.950 . S
C1606 C1607 1.349 . S
C1606 C1608 1.327 . S
C1606 H1631 0.950 . S
C1607 C1606 1.349 . S
C1607 C1623 1.349 . S
C1608 C1606 1.327 . S
C1608 C1627 1.429 . S
C1608 H1632 0.950 . S
C1609 C1626 1.574 . S
C1609 C1628 1.368 . S
C1609 H1633 0.949 . S
H1610 C1614 0.949 . S
C1611 C1612 1.349 . S
C1611 C1613 1.327 . S
C1611 H1634 0.950 . S
C1612 C1611 1.349 . S
C1612 C1624 1.349 . S
C1613 C1611 1.327 . S
C1613 C1629 1.429 . S
C1613 H1635 0.950 . S
C1614 H1610 0.949 . S
C1614 C1622 1.574 . S
C1614 C1630 1.368 . S
H1615 C1623 0.950 . S
H1616 C1621 0.950 . S
H1617 C1622 0.949 . S
H1618 C1624 0.950 . S
H1619 C1625 0.950 . S
H1620 C1626 0.949 . S
C1621 H1616 0.950 . S
C1621 C1623 1.327 . S
C1621 C1627 1.429 . S
C1622 C1614 1.574 . S
C1622 H1617 0.949 . S
C1622 C1628 1.368 . S
C1623 C1607 1.349 . S
C1623 H1615 0.950 . S
C1623 C1621 1.327 . S
C1624 C1612 1.349 . S
C1624 H1618 0.950 . S
C1624 C1625 1.327 . S
C1625 H1619 0.950 . S
C1625 C1624 1.327 . S
C1625 C1629 1.429 . S
C1626 C1609 1.574 . S
C1626 H1620 0.949 . S
C1626 C1630 1.368 . S
C1627 C1608 1.429 . S
C1627 C1621 1.429 . S
C1627 C1628 1.523 . S
C1628 C1609 1.368 . S
C1628 C1622 1.368 . S
C1628 C1627 1.523 . S
C1629 C1613 1.429 . S
C1629 C1625 1.429 . S
C1629 C1630 1.523 . S
C1630 C1614 1.368 . S
C1630 C1626 1.368 . S
C1630 C1629 1.523 . S
H1631 C1606 0.950 . S
H1632 C1608 0.950 . S
H1633 C1609 0.949 . S
H1634 C1611 0.950 . S
H1635 C1613 0.950 . S
C1636 C1637 1.349 . S
C1636 C1638 1.327 . S
C1636 H1661 0.950 . S
C1637 C1636 1.349 . S
C1637 C1653 1.349 . S
C1638 C1636 1.327 . S
C1638 C1657 1.429 . S
C1638 H1662 0.950 . S
C1639 C1656 1.574 . S
C1639 C1658 1.368 . S
C1639 H1663 0.949 . S
H1640 C1644 0.949 . S
C1641 C1642 1.349 . S
C1641 C1643 1.327 . S
C1641 H1664 0.950 . S
C1642 C1641 1.349 . S
C1642 C1654 1.349 . S
C1643 C1641 1.327 . S
C1643 C1659 1.429 . S
C1643 H1665 0.950 . S
C1644 H1640 0.949 . S
C1644 C1652 1.574 . S
C1644 C1660 1.368 . S
H1645 C1653 0.950 . S
H1646 C1651 0.950 . S
H1647 C1652 0.949 . S
H1648 C1654 0.950 . S
H1649 C1655 0.950 . S
H1650 C1656 0.949 . S
C1651 H1646 0.950 . S
C1651 C1653 1.327 . S
C1651 C1657 1.429 . S
C1652 C1644 1.574 . S
C1652 H1647 0.949 . S
C1652 C1658 1.368 . S
C1653 C1637 1.349 . S
C1653 H1645 0.950 . S
C1653 C1651 1.327 . S
C1654 C1642 1.349 . S
C1654 H1648 0.950 . S
C1654 C1655 1.327 . S
C1655 H1649 0.950 . S
C1655 C1654 1.327 . S
C1655 C1659 1.429 . S
C1656 C1639 1.574 . S
C1656 H1650 0.949 . S
C1656 C1660 1.368 . S
C1657 C1638 1.429 . S
C1657 C1651 1.429 . S
C1657 C1658 1.523 . S
C1658 C1639 1.368 . S
C1658 C1652 1.368 . S
C1658 C1657 1.523 . S
C1659 C1643 1.429 . S
C1659 C1655 1.429 . S
C1659 C1660 1.523 . S
C1660 C1644 1.368 . S
C1660 C1656 1.368 . S
C1660 C1659 1.523 . S
H1661 C1636 0.950 . S
H1662 C1638 0.950 . S
H1663 C1639 0.949 . S
H1664 C1641 0.950 . S
H1665 C1643 0.950 . S
C1666 C1667 1.349 . S
C1666 C1668 1.327 . S
C1666 H1691 0.950 . S
C1667 C1666 1.349 . S
C1667 C1683 1.349 . S
C1668 C1666 1.327 . S
C1668 C1687 1.429 . S
C1668 H1692 0.950 . S
C1669 C1686 1.574 . S
C1669 C1688 1.368 . S
C1669 H1693 0.949 . S
H1670 C1674 0.949 . S
C1671 C1672 1.349 . S
C1671 C1673 1.327 . S
C1671 H1694 0.950 . S
C1672 C1671 1.349 . S
C1672 C1684 1.349 . S
C1673 C1671 1.327 . S
C1673 C1689 1.429 . S
C1673 H1695 0.950 . S
C1674 H1670 0.949 . S
C1674 C1682 1.574 . S
C1674 C1690 1.368 . S
H1675 C1683 0.950 . S
H1676 C1681 0.950 . S
H1677 C1682 0.949 . S
H1678 C1684 0.950 . S
H1679 C1685 0.950 . S
H1680 C1686 0.949 . S
C1681 H1676 0.950 . S
C1681 C1683 1.327 . S
C1681 C1687 1.429 . S
C1682 C1674 1.574 . S
C1682 H1677 0.949 . S
C1682 C1688 1.368 . S
C1683 C1667 1.349 . S
C1683 H1675 0.950 . S
C1683 C1681 1.327 . S
C1684 C1672 1.349 . S
C1684 H1678 0.950 . S
C1684 C1685 1.327 . S
C1685 H1679 0.950 . S
C1685 C1684 1.327 . S
C1685 C1689 1.429 . S
C1686 C1669 1.574 . S
C1686 H1680 0.949 . S
C1686 C1690 1.368 . S
C1687 C1668 1.429 . S
C1687 C1681 1.429 . S
C1687 C1688 1.523 . S
C1688 C1669 1.368 . S
C1688 C1682 1.368 . S
C1688 C1687 1.523 . S
C1689 C1673 1.429 . S
C1689 C1685 1.429 . S
C1689 C1690 1.523 . S
C1690 C1674 1.368 . S
C1690 C1686 1.368 . S
C1690 C1689 1.523 . S
H1691 C1666 0.950 . S
H1692 C1668 0.950 . S
H1693 C1669 0.949 . S
H1694 C1671 0.950 . S
H1695 C1673 0.950 . S
C1696 C1697 1.349 . S
C1696 C1698 1.327 . S
C1696 H1721 0.950 . S
C1697 C1696 1.349 . S
C1697 C1713 1.349 . S
C1698 C1696 1.327 . S
C1698 C1717 1.429 . S
C1698 H1722 0.950 . S
C1699 C1716 1.574 . S
C1699 C1718 1.368 . S
C1699 H1723 0.949 . S
H1700 C1704 0.949 . S
C1701 C1702 1.349 . S
C1701 C1703 1.327 . S
C1701 H1724 0.950 . S
C1702 C1701 1.349 . S
C1702 C1714 1.349 . S
C1703 C1701 1.327 . S
C1703 C1719 1.429 . S
C1703 H1725 0.950 . S
C1704 H1700 0.949 . S
C1704 C1712 1.574 . S
C1704 C1720 1.368 . S
H1705 C1713 0.950 . S
H1706 C1711 0.950 . S
H1707 C1712 0.949 . S
H1708 C1714 0.950 . S
H1709 C1715 0.950 . S
H1710 C1716 0.949 . S
C1711 H1706 0.950 . S
C1711 C1713 1.327 . S
C1711 C1717 1.429 . S
C1712 C1704 1.574 . S
C1712 H1707 0.949 . S
C1712 C1718 1.368 . S
C1713 C1697 1.349 . S
C1713 H1705 0.950 . S
C1713 C1711 1.327 . S
C1714 C1702 1.349 . S
C1714 H1708 0.950 . S
C1714 C1715 1.327 . S
C1715 H1709 0.950 . S
C1715 C1714 1.327 . S
C1715 C1719 1.429 . S
C1716 C1699 1.574 . S
C1716 H1710 0.949 . S
C1716 C1720 1.368 . S
C1717 C1698 1.429 . S
C1717 C1711 1.429 . S
C1717 C1718 1.523 . S
C1718 C1699 1.368 . S
C1718 C1712 1.368 . S
C1718 C1717 1.523 . S
C1719 C1703 1.429 . S
C1719 C1715 1.429 . S
C1719 C1720 1.523 . S
C1720 C1704 1.368 . S
C1720 C1716 1.368 . S
C1720 C1719 1.523 . S
H1721 C1696 0.950 . S
H1722 C1698 0.950 . S
H1723 C1699 0.949 . S
H1724 C1701 0.950 . S
H1725 C1703 0.950 . S
C1726 C1727 1.349 . S
C1726 C1728 1.327 . S
C1726 H1751 0.950 . S
C1727 C1726 1.349 . S
C1727 C1743 1.349 . S
C1728 C1726 1.327 . S
C1728 C1747 1.429 . S
C1728 H1752 0.950 . S
C1729 C1746 1.574 . S
C1729 C1748 1.368 . S
C1729 H1753 0.949 . S
H1730 C1734 0.949 . S
C1731 C1732 1.349 . S
C1731 C1733 1.327 . S
C1731 H1754 0.950 . S
C1732 C1731 1.349 . S
C1732 C1744 1.349 . S
C1733 C1731 1.327 . S
C1733 C1749 1.429 . S
C1733 H1755 0.950 . S
C1734 H1730 0.949 . S
C1734 C1742 1.574 . S
C1734 C1750 1.368 . S
H1735 C1743 0.950 . S
H1736 C1741 0.950 . S
H1737 C1742 0.949 . S
H1738 C1744 0.950 . S
H1739 C1745 0.950 . S
H1740 C1746 0.949 . S
C1741 H1736 0.950 . S
C1741 C1743 1.327 . S
C1741 C1747 1.429 . S
C1742 C1734 1.574 . S
C1742 H1737 0.949 . S
C1742 C1748 1.368 . S
C1743 C1727 1.349 . S
C1743 H1735 0.950 . S
C1743 C1741 1.327 . S
C1744 C1732 1.349 . S
C1744 H1738 0.950 . S
C1744 C1745 1.327 . S
C1745 H1739 0.950 . S
C1745 C1744 1.327 . S
C1745 C1749 1.429 . S
C1746 C1729 1.574 . S
C1746 H1740 0.949 . S
C1746 C1750 1.368 . S
C1747 C1728 1.429 . S
C1747 C1741 1.429 . S
C1747 C1748 1.523 . S
C1748 C1729 1.368 . S
C1748 C1742 1.368 . S
C1748 C1747 1.523 . S
C1749 C1733 1.429 . S
C1749 C1745 1.429 . S
C1749 C1750 1.523 . S
C1750 C1734 1.368 . S
C1750 C1746 1.368 . S
C1750 C1749 1.523 . S
H1751 C1726 0.950 . S
H1752 C1728 0.950 . S
H1753 C1729 0.949 . S
H1754 C1731 0.950 . S
H1755 C1733 0.950 . S
C1756 C1757 1.349 . S
C1756 C1758 1.327 . S
C1756 H1781 0.950 . S
C1757 C1756 1.349 . S
C1757 C1773 1.349 . S
C1758 C1756 1.327 . S
C1758 C1777 1.429 . S
C1758 H1782 0.950 . S
C1759 C1776 1.574 . S
C1759 C1778 1.368 . S
C1759 H1783 0.949 . S
H1760 C1764 0.949 . S
C1761 C1762 1.349 . S
C1761 C1763 1.327 . S
C1761 H1784 0.950 . S
C1762 C1761 1.349 . S
C1762 C1774 1.349 . S
C1763 C1761 1.327 . S
C1763 C1779 1.429 . S
C1763 H1785 0.950 . S
C1764 H1760 0.949 . S
C1764 C1772 1.574 . S
C1764 C1780 1.368 . S
H1765 C1773 0.950 . S
H1766 C1771 0.950 . S
H1767 C1772 0.949 . S
H1768 C1774 0.950 . S
H1769 C1775 0.950 . S
H1770 C1776 0.949 . S
C1771 H1766 0.950 . S
C1771 C1773 1.327 . S
C1771 C1777 1.429 . S
C1772 C1764 1.574 . S
C1772 H1767 0.949 . S
C1772 C1778 1.368 . S
C1773 C1757 1.349 . S
C1773 H1765 0.950 . S
C1773 C1771 1.327 . S
C1774 C1762 1.349 . S
C1774 H1768 0.950 . S
C1774 C1775 1.327 . S
C1775 H1769 0.950 . S
C1775 C1774 1.327 . S
C1775 C1779 1.429 . S
C1776 C1759 1.574 . S
C1776 H1770 0.949 . S
C1776 C1780 1.368 . S
C1777 C1758 1.429 . S
C1777 C1771 1.429 . S
C1777 C1778 1.523 . S
C1778 C1759 1.368 . S
C1778 C1772 1.368 . S
C1778 C1777 1.523 . S
C1779 C1763 1.429 . S
C1779 C1775 1.429 . S
C1779 C1780 1.523 . S
C1780 C1764 1.368 . S
C1780 C1776 1.368 . S
C1780 C1779 1.523 . S
H1781 C1756 0.950 . S
H1782 C1758 0.950 . S
H1783 C1759 0.949 . S
H1784 C1761 0.950 . S
H1785 C1763 0.950 . S
C1786 C1787 1.349 . S
C1786 C1788 1.327 . S
C1786 H1811 0.950 . S
C1787 C1786 1.349 . S
C1787 C1803 1.349 . S
C1788 C1786 1.327 . S
C1788 C1807 1.429 . S
C1788 H1812 0.950 . S
C1789 C1806 1.574 . S
C1789 C1808 1.368 . S
C1789 H1813 0.949 . S
H1790 C1794 0.949 . S
C1791 C1792 1.349 . S
C1791 C1793 1.327 . S
C1791 H1814 0.950 . S
C1792 C1791 1.349 . S
C1792 C1804 1.349 . S
C1793 C1791 1.327 . S
C1793 C1809 1.429 . S
C1793 H1815 0.950 . S
C1794 H1790 0.949 . S
C1794 C1802 1.574 . S
C1794 C1810 1.368 . S
H1795 C1803 0.950 . S
H1796 C1801 0.950 . S
H1797 C1802 0.949 . S
H1798 C1804 0.950 . S
H1799 C1805 0.950 . S
H1800 C1806 0.949 . S
C1801 H1796 0.950 . S
C1801 C1803 1.327 . S
C1801 C1807 1.429 . S
C1802 C1794 1.574 . S
C1802 H1797 0.949 . S
C1802 C1808 1.368 . S
C1803 C1787 1.349 . S
C1803 H1795 0.950 . S
C1803 C1801 1.327 . S
C1804 C1792 1.349 . S
C1804 H1798 0.950 . S
C1804 C1805 1.327 . S
C1805 H1799 0.950 . S
C1805 C1804 1.327 . S
C1805 C1809 1.429 . S
C1806 C1789 1.574 . S
C1806 H1800 0.949 . S
C1806 C1810 1.368 . S
C1807 C1788 1.429 . S
C1807 C1801 1.429 . S
C1807 C1808 1.523 . S
C1808 C1789 1.368 . S
C1808 C1802 1.368 . S
C1808 C1807 1.523 . S
C1809 C1793 1.429 . S
C1809 C1805 1.429 . S
C1809 C1810 1.523 . S
C1810 C1794 1.368 . S
C1810 C1806 1.368 . S
C1810 C1809 1.523 . S
H1811 C1786 0.950 . S
H1812 C1788 0.950 . S
H1813 C1789 0.949 . S
H1814 C1791 0.950 . S
H1815 C1793 0.950 . S
C1816 C1817 1.346 . S
C1816 C1818 1.327 . S
C1816 H1841 0.950 . S
C1817 C1816 1.346 . S
C1817 C1833 1.366 1_455 S
C1818 C1816 1.327 . S
C1818 C1837 1.429 . S
C1818 H1842 0.950 . S
C1819 C1836 1.569 . S
C1819 C1838 1.363 . S
C1819 H1843 0.955 1_455 S
H1820 C1824 0.949 . S
C1821 C1822 1.349 . S
C1821 C1823 1.327 . S
C1821 H1844 0.950 . S
C1822 C1821 1.349 . S
C1822 C1834 1.349 . S
C1823 C1821 1.327 . S
C1823 C1839 1.429 . S
C1823 H1845 0.947 . S
C1824 H1820 0.949 . S
C1824 C1832 1.574 . S
C1824 C1840 1.368 . S
H1825 C1833 0.948 . S
H1826 C1831 0.965 . S
H1827 C1832 0.949 . S
H1828 C1834 0.950 . S
H1829 C1835 0.950 . S
H1830 C1836 0.963 . S
C1831 H1826 0.965 . S
C1831 C1833 1.324 . S
C1831 C1837 1.429 1_655 S
C1832 C1824 1.574 . S
C1832 H1827 0.949 . S
C1832 C1838 1.368 . S
C1833 C1817 1.366 1_655 S
C1833 H1825 0.948 . S
C1833 C1831 1.324 . S
C1834 C1822 1.349 . S
C1834 H1828 0.950 . S
C1834 C1835 1.327 . S
C1835 H1829 0.950 . S
C1835 C1834 1.327 . S
C1835 C1839 1.429 . S
C1836 C1819 1.569 . S
C1836 H1830 0.963 . S
C1836 C1840 1.363 . S
C1837 C1818 1.429 . S
C1837 C1831 1.429 1_455 S
C1837 C1838 1.523 . S
C1838 C1819 1.363 . S
C1838 C1832 1.368 . S
C1838 C1837 1.523 . S
C1839 C1823 1.429 . S
C1839 C1835 1.429 . S
C1839 C1840 1.523 . S
C1840 C1824 1.368 . S
C1840 C1836 1.363 . S
C1840 C1839 1.523 . S
H1841 C1816 0.950 . S
H1842 C1818 0.950 . S
H1843 C1819 0.955 1_655 S
H1844 C1821 0.950 . S
H1845 C1823 0.947 . S
C1846 C1847 1.349 . S
C1846 C1848 1.327 . S
C1846 H1871 0.950 . S
C1847 C1846 1.349 . S
C1847 C1863 1.349 . S
C1848 C1846 1.327 . S
C1848 C1867 1.429 . S
C1848 H1872 0.950 . S
C1849 C1866 1.574 . S
C1849 C1868 1.368 . S
C1849 H1873 0.949 . S
H1850 C1854 0.949 . S
C1851 C1852 1.349 . S
C1851 C1853 1.327 . S
C1851 H1874 0.950 . S
C1852 C1851 1.349 . S
C1852 C1864 1.349 . S
C1853 C1851 1.327 . S
C1853 C1869 1.429 . S
C1853 H1875 0.950 . S
C1854 H1850 0.949 . S
C1854 C1862 1.574 . S
C1854 C1870 1.368 . S
H1855 C1863 0.950 . S
H1856 C1861 0.950 . S
H1857 C1862 0.949 . S
H1858 C1864 0.950 . S
H1859 C1865 0.950 . S
H1860 C1866 0.949 . S
C1861 H1856 0.950 . S
C1861 C1863 1.327 . S
C1861 C1867 1.429 . S
C1862 C1854 1.574 . S
C1862 H1857 0.949 . S
C1862 C1868 1.368 . S
C1863 C1847 1.349 . S
C1863 H1855 0.950 . S
C1863 C1861 1.327 . S
C1864 C1852 1.349 . S
C1864 H1858 0.950 . S
C1864 C1865 1.327 . S
C1865 H1859 0.950 . S
C1865 C1864 1.327 . S
C1865 C1869 1.429 . S
C1866 C1849 1.574 . S
C1866 H1860 0.949 . S
C1866 C1870 1.368 . S
C1867 C1848 1.429 . S
C1867 C1861 1.429 . S
C1867 C1868 1.523 . S
C1868 C1849 1.368 . S
C1868 C1862 1.368 . S
C1868 C1867 1.523 . S
C1869 C1853 1.429 . S
C1869 C1865 1.429 . S
C1869 C1870 1.523 . S
C1870 C1854 1.368 . S
C1870 C1866 1.368 . S
C1870 C1869 1.523 . S
H1871 C1846 0.950 . S
H1872 C1848 0.950 . S
H1873 C1849 0.949 . S
H1874 C1851 0.950 . S
H1875 C1853 0.950 . S
C1876 C1877 1.349 . S
C1876 C1878 1.327 . S
C1876 H1901 0.950 . S
C1877 C1876 1.349 . S
C1877 C1893 1.349 . S
C1878 C1876 1.327 . S
C1878 C1897 1.429 . S
C1878 H1902 0.950 . S
C1879 C1896 1.574 . S
C1879 C1898 1.368 . S
C1879 H1903 0.949 . S
H1880 C1884 0.949 . S
C1881 C1882 1.396 . S
C1881 C1883 1.327 . S
C1881 H1904 0.950 . S
C1882 C1881 1.396 . S
C1882 C1894 1.328 1_556 S
C1883 C1881 1.327 . S
C1883 C1899 1.429 . S
C1883 H1905 0.950 . S
C1884 H1880 0.949 . S
C1884 C1892 1.574 . S
C1884 C1900 1.368 . S
H1885 C1893 0.950 . S
H1886 C1891 0.950 . S
H1887 C1892 0.949 . S
H1888 C1894 0.950 . S
H1889 C1895 0.950 1_554 S
H1890 C1896 0.949 . S
C1891 H1886 0.950 . S
C1891 C1893 1.327 . S
C1891 C1897 1.429 . S
C1892 C1884 1.574 . S
C1892 H1887 0.949 . S
C1892 C1898 1.368 . S
C1893 C1877 1.349 . S
C1893 H1885 0.950 . S
C1893 C1891 1.327 . S
C1894 C1882 1.328 1_554 S
C1894 H1888 0.950 . S
C1894 C1895 1.327 1_554 S
C1895 H1889 0.950 1_556 S
C1895 C1894 1.327 1_556 S
C1895 C1899 1.429 . S
C1896 C1879 1.574 . S
C1896 H1890 0.949 . S
C1896 C1900 1.368 . S
C1897 C1878 1.429 . S
C1897 C1891 1.429 . S
C1897 C1898 1.523 . S
C1898 C1879 1.368 . S
C1898 C1892 1.368 . S
C1898 C1897 1.523 . S
C1899 C1883 1.429 . S
C1899 C1895 1.429 . S
C1899 C1900 1.523 . S
C1900 C1884 1.368 . S
C1900 C1896 1.368 . S
C1900 C1899 1.523 . S
H1901 C1876 0.950 . S
H1902 C1878 0.950 . S
H1903 C1879 0.949 . S
H1904 C1881 0.950 . S
H1905 C1883 0.950 . S
C1906 C1907 1.349 . S
C1906 C1908 1.327 1_455 S
C1906 H1931 0.950 . S
C1907 C1906 1.349 . S
C1907 C1923 1.349 . S
C1908 C1906 1.327 1_655 S
C1908 C1927 1.429 . S
C1908 H1932 0.950 . S
C1909 C1926 1.574 . S
C1909 C1928 1.368 . S
C1909 H1933 0.949 . S
H1910 C1914 0.949 . S
C1911 C1912 1.349 . S
C1911 C1913 1.327 . S
C1911 H1934 0.950 . S
C1912 C1911 1.349 . S
C1912 C1924 1.349 . S
C1913 C1911 1.327 . S
C1913 C1929 1.429 . S
C1913 H1935 0.950 . S
C1914 H1910 0.949 . S
C1914 C1922 1.574 . S
C1914 C1930 1.368 . S
H1915 C1923 0.950 . S
H1916 C1921 0.950 . S
H1917 C1922 0.949 . S
H1918 C1924 0.950 . S
H1919 C1925 0.950 . S
H1920 C1926 0.949 . S
C1921 H1916 0.950 . S
C1921 C1923 1.327 1_655 S
C1921 C1927 1.429 . S
C1922 C1914 1.574 . S
C1922 H1917 0.949 . S
C1922 C1928 1.368 . S
C1923 C1907 1.349 . S
C1923 H1915 0.950 . S
C1923 C1921 1.327 1_455 S
C1924 C1912 1.349 . S
C1924 H1918 0.950 . S
C1924 C1925 1.327 . S
C1925 H1919 0.950 . S
C1925 C1924 1.327 . S
C1925 C1929 1.429 . S
C1926 C1909 1.574 . S
C1926 H1920 0.949 . S
C1926 C1930 1.368 . S
C1927 C1908 1.429 . S
C1927 C1921 1.429 . S
C1927 C1928 1.523 . S
C1928 C1909 1.368 . S
C1928 C1922 1.368 . S
C1928 C1927 1.523 . S
C1929 C1913 1.429 . S
C1929 C1925 1.429 . S
C1929 C1930 1.523 . S
C1930 C1914 1.368 . S
C1930 C1926 1.368 . S
C1930 C1929 1.523 . S
H1931 C1906 0.950 . S
H1932 C1908 0.950 . S
H1933 C1909 0.949 . S
H1934 C1911 0.950 . S
H1935 C1913 0.950 . S
C1936 C1937 1.349 . S
C1936 C1938 1.327 . S
C1936 H1961 0.950 . S
C1937 C1936 1.349 . S
C1937 C1953 1.349 . S
C1938 C1936 1.327 . S
C1938 C1957 1.429 . S
C1938 H1962 0.950 . S
C1939 C1956 1.574 . S
C1939 C1958 1.368 . S
C1939 H1963 0.949 1_545 S
H1940 C1944 0.949 . S
C1941 C1942 1.362 . S
C1941 C1943 1.329 . S
C1941 H1964 0.935 1_545 S
C1942 C1941 1.362 . S
C1942 C1954 1.349 . S
C1943 C1941 1.329 . S
C1943 C1959 1.429 . S
C1943 H1965 0.950 1_545 S
C1944 H1940 0.949 . S
C1944 C1952 1.574 . S
C1944 C1960 1.368 . S
H1945 C1953 0.950 . S
H1946 C1951 0.931 1_565 S
H1947 C1952 0.949 . S
H1948 C1954 0.950 . S
H1949 C1955 0.950 . S
H1950 C1956 0.949 1_565 S
C1951 H1946 0.931 1_545 S
C1951 C1953 1.327 . S
C1951 C1957 1.429 . S
C1952 C1944 1.574 . S
C1952 H1947 0.949 . S
C1952 C1958 1.368 . S
C1953 C1937 1.349 . S
C1953 H1945 0.950 . S
C1953 C1951 1.327 . S
C1954 C1942 1.349 . S
C1954 H1948 0.950 . S
C1954 C1955 1.327 . S
C1955 H1949 0.950 . S
C1955 C1954 1.327 . S
C1955 C1959 1.429 . S
C1956 C1939 1.574 . S
C1956 H1950 0.949 1_545 S
C1956 C1960 1.368 . S
C1957 C1938 1.429 . S
C1957 C1951 1.429 . S
C1957 C1958 1.523 . S
C1958 C1939 1.368 . S
C1958 C1952 1.368 . S
C1958 C1957 1.523 . S
C1959 C1943 1.429 . S
C1959 C1955 1.429 . S
C1959 C1960 1.523 . S
C1960 C1944 1.368 . S
C1960 C1956 1.368 . S
C1960 C1959 1.523 . S
H1961 C1936 0.950 . S
H1962 C1938 0.950 . S
H1963 C1939 0.949 1_565 S
H1964 C1941 0.935 1_565 S
H1965 C1943 0.950 1_565 S
C1966 C1967 1.349 . S
C1966 C1968 1.327 . S
C1966 H1991 0.950 . S
C1967 C1966 1.349 . S
C1967 C1983 1.349 . S
C1968 C1966 1.327 . S
C1968 C1987 1.429 . S
C1968 H1992 0.950 . S
C1969 C1986 1.574 . S
C1969 C1988 1.368 . S
C1969 H1993 0.949 . S
H1970 C1974 0.949 . S
C1971 C1972 1.349 . S
C1971 C1973 1.327 . S
C1971 H1994 0.950 . S
C1972 C1971 1.349 . S
C1972 C1984 1.349 . S
C1973 C1971 1.327 . S
C1973 C1989 1.429 . S
C1973 H1995 0.950 . S
C1974 H1970 0.949 . S
C1974 C1982 1.574 . S
C1974 C1990 1.368 . S
H1975 C1983 0.950 . S
H1976 C1981 0.950 . S
H1977 C1982 0.949 . S
H1978 C1984 0.950 . S
H1979 C1985 0.950 . S
H1980 C1986 0.949 . S
C1981 H1976 0.950 . S
C1981 C1983 1.327 . S
C1981 C1987 1.429 . S
C1982 C1974 1.574 . S
C1982 H1977 0.949 . S
C1982 C1988 1.368 . S
C1983 C1967 1.349 . S
C1983 H1975 0.950 . S
C1983 C1981 1.327 . S
C1984 C1972 1.349 . S
C1984 H1978 0.950 . S
C1984 C1985 1.327 . S
C1985 H1979 0.950 . S
C1985 C1984 1.327 . S
C1985 C1989 1.429 . S
C1986 C1969 1.574 . S
C1986 H1980 0.949 . S
C1986 C1990 1.368 . S
C1987 C1968 1.429 . S
C1987 C1981 1.429 . S
C1987 C1988 1.523 . S
C1988 C1969 1.368 . S
C1988 C1982 1.368 . S
C1988 C1987 1.523 . S
C1989 C1973 1.429 . S
C1989 C1985 1.429 . S
C1989 C1990 1.523 . S
C1990 C1974 1.368 . S
C1990 C1986 1.368 . S
C1990 C1989 1.523 . S
H1991 C1966 0.950 . S
H1992 C1968 0.950 . S
H1993 C1969 0.949 . S
H1994 C1971 0.950 . S
H1995 C1973 0.950 . S
C1996 C1997 1.349 . S
C1996 C1998 1.327 . S
C1996 H2021 0.921 1_545 S
C1997 C1996 1.349 . S
C1997 C2013 1.349 . S
C1998 C1996 1.327 . S
C1998 C2017 1.429 . S
C1998 H2022 0.950 1_545 S
C1999 C2016 1.574 . S
C1999 C2018 1.368 . S
C1999 H2023 0.949 . S
H2000 C2004 0.949 1_565 S
C2001 C2002 1.349 . S
C2001 C2003 1.327 . S
C2001 H2024 0.950 . S
C2002 C2001 1.349 . S
C2002 C2014 1.349 . S
C2003 C2001 1.327 . S
C2003 C2019 1.429 . S
C2003 H2025 0.950 . S
C2004 H2000 0.949 1_545 S
C2004 C2012 1.574 . S
C2004 C2020 1.368 . S
H2005 C2013 0.950 . S
H2006 C2011 0.950 . S
H2007 C2012 0.949 1_565 S
H2008 C2014 0.950 1_565 S
H2009 C2015 0.950 1_565 S
H2010 C2016 0.949 . S
C2011 H2006 0.950 . S
C2011 C2013 1.327 . S
C2011 C2017 1.429 . S
C2012 C2004 1.574 . S
C2012 H2007 0.949 1_545 S
C2012 C2018 1.368 . S
C2013 C1997 1.349 . S
C2013 H2005 0.950 . S
C2013 C2011 1.327 . S
C2014 C2002 1.349 . S
C2014 H2008 0.950 1_545 S
C2014 C2015 1.327 . S
C2015 H2009 0.950 1_545 S
C2015 C2014 1.327 . S
C2015 C2019 1.429 . S
C2016 C1999 1.574 . S
C2016 H2010 0.949 . S
C2016 C2020 1.368 . S
C2017 C1998 1.429 . S
C2017 C2011 1.429 . S
C2017 C2018 1.523 . S
C2018 C1999 1.368 . S
C2018 C2012 1.368 . S
C2018 C2017 1.523 . S
C2019 C2003 1.429 . S
C2019 C2015 1.429 . S
C2019 C2020 1.523 . S
C2020 C2004 1.368 . S
C2020 C2016 1.368 . S
C2020 C2019 1.523 . S
H2021 C1996 0.921 1_565 S
H2022 C1998 0.950 1_565 S
H2023 C1999 0.949 . S
H2024 C2001 0.950 . S
H2025 C2003 0.950 . S
C2026 C2027 1.349 . S
C2026 C2028 1.327 . S
C2026 H2051 0.950 . S
C2027 C2026 1.349 . S
C2027 C2043 1.349 . S
C2028 C2026 1.327 . S
C2028 C2047 1.429 . S
C2028 H2052 0.950 . S
C2029 C2046 1.574 . S
C2029 C2048 1.368 . S
C2029 H2053 0.949 . S
H2030 C2034 0.949 . S
C2031 C2032 1.349 . S
C2031 C2033 1.327 . S
C2031 H2054 0.950 . S
C2032 C2031 1.349 . S
C2032 C2044 1.349 . S
C2033 C2031 1.327 . S
C2033 C2049 1.429 . S
C2033 H2055 0.950 . S
C2034 H2030 0.949 . S
C2034 C2042 1.574 . S
C2034 C2050 1.368 . S
H2035 C2043 0.950 . S
H2036 C2041 0.950 . S
H2037 C2042 0.949 . S
H2038 C2044 0.950 . S
H2039 C2045 0.950 . S
H2040 C2046 0.949 . S
C2041 H2036 0.950 . S
C2041 C2043 1.327 . S
C2041 C2047 1.429 . S
C2042 C2034 1.574 . S
C2042 H2037 0.949 . S
C2042 C2048 1.368 . S
C2043 C2027 1.349 . S
C2043 H2035 0.950 . S
C2043 C2041 1.327 . S
C2044 C2032 1.349 . S
C2044 H2038 0.950 . S
C2044 C2045 1.327 . S
C2045 H2039 0.950 . S
C2045 C2044 1.327 . S
C2045 C2049 1.429 . S
C2046 C2029 1.574 . S
C2046 H2040 0.949 . S
C2046 C2050 1.368 . S
C2047 C2028 1.429 . S
C2047 C2041 1.429 . S
C2047 C2048 1.523 . S
C2048 C2029 1.368 . S
C2048 C2042 1.368 . S
C2048 C2047 1.523 . S
C2049 C2033 1.429 . S
C2049 C2045 1.429 . S
C2049 C2050 1.523 . S
C2050 C2034 1.368 . S
C2050 C2046 1.368 . S
C2050 C2049 1.523 . S
H2051 C2026 0.950 . S
H2052 C2028 0.950 . S
H2053 C2029 0.949 . S
H2054 C2031 0.950 . S
H2055 C2033 0.950 . S
C2056 C2057 1.349 . S
C2056 C2058 1.327 . S
C2056 H2081 0.950 1_545 S
C2057 C2056 1.349 . S
C2057 C2073 1.349 . S
C2058 C2056 1.327 . S
C2058 C2077 1.429 . S
C2058 H2082 0.950 1_545 S
C2059 C2076 1.574 . S
C2059 C2078 1.368 . S
C2059 H2083 0.949 . S
H2060 C2064 0.923 1_565 S
C2061 C2062 1.349 . S
C2061 C2063 1.327 . S
C2061 H2084 0.950 . S
C2062 C2061 1.349 . S
C2062 C2074 1.349 . S
C2063 C2061 1.327 . S
C2063 C2079 1.429 . S
C2063 H2085 0.950 . S
C2064 H2060 0.923 1_545 S
C2064 C2072 1.562 . S
C2064 C2080 1.413 . S
H2065 C2073 0.950 . S
H2066 C2071 0.950 . S
H2067 C2072 0.949 1_565 S
H2068 C2074 0.950 1_565 S
H2069 C2075 0.950 1_565 S
H2070 C2076 0.949 . S
C2071 H2066 0.950 . S
C2071 C2073 1.327 . S
C2071 C2077 1.429 . S
C2072 C2064 1.562 . S
C2072 H2067 0.949 1_545 S
C2072 C2078 1.368 . S
C2073 C2057 1.349 . S
C2073 H2065 0.950 . S
C2073 C2071 1.327 . S
C2074 C2062 1.349 . S
C2074 H2068 0.950 1_545 S
C2074 C2075 1.327 . S
C2075 H2069 0.950 1_545 S
C2075 C2074 1.327 . S
C2075 C2079 1.429 . S
C2076 C2059 1.574 . S
C2076 H2070 0.949 . S
C2076 C2080 1.368 . S
C2077 C2058 1.429 . S
C2077 C2071 1.429 . S
C2077 C2078 1.523 . S
C2078 C2059 1.368 . S
C2078 C2072 1.368 . S
C2078 C2077 1.523 . S
C2079 C2063 1.429 . S
C2079 C2075 1.429 . S
C2079 C2080 1.523 . S
C2080 C2064 1.413 . S
C2080 C2076 1.368 . S
C2080 C2079 1.523 . S
H2081 C2056 0.950 1_565 S
H2082 C2058 0.950 1_565 S
H2083 C2059 0.949 . S
H2084 C2061 0.950 . S
H2085 C2063 0.950 . S
C2086 C2087 1.349 . S
C2086 C2088 1.327 . S
C2086 H2111 0.950 . S
C2087 C2086 1.349 . S
C2087 C2103 1.349 . S
C2088 C2086 1.327 . S
C2088 C2107 1.429 . S
C2088 H2112 0.950 . S
C2089 C2106 1.574 . S
C2089 C2108 1.368 . S
C2089 H2113 0.949 . S
H2090 C2094 0.949 . S
C2091 C2092 1.349 . S
C2091 C2093 1.327 . S
C2091 H2114 0.950 . S
C2092 C2091 1.349 . S
C2092 C2104 1.349 . S
C2093 C2091 1.327 . S
C2093 C2109 1.429 . S
C2093 H2115 0.950 . S
C2094 H2090 0.949 . S
C2094 C2102 1.574 . S
C2094 C2110 1.368 . S
H2095 C2103 0.950 . S
H2096 C2101 0.950 . S
H2097 C2102 0.949 . S
H2098 C2104 0.950 . S
H2099 C2105 0.950 . S
H2100 C2106 0.949 . S
C2101 H2096 0.950 . S
C2101 C2103 1.327 . S
C2101 C2107 1.429 . S
C2102 C2094 1.574 . S
C2102 H2097 0.949 . S
C2102 C2108 1.368 . S
C2103 C2087 1.349 . S
C2103 H2095 0.950 . S
C2103 C2101 1.327 . S
C2104 C2092 1.349 . S
C2104 H2098 0.950 . S
C2104 C2105 1.327 . S
C2105 H2099 0.950 . S
C2105 C2104 1.327 . S
C2105 C2109 1.429 . S
C2106 C2089 1.574 . S
C2106 H2100 0.949 . S
C2106 C2110 1.368 . S
C2107 C2088 1.429 . S
C2107 C2101 1.429 . S
C2107 C2108 1.523 . S
C2108 C2089 1.368 . S
C2108 C2102 1.368 . S
C2108 C2107 1.523 . S
C2109 C2093 1.429 . S
C2109 C2105 1.429 . S
C2109 C2110 1.523 . S
C2110 C2094 1.368 . S
C2110 C2106 1.368 . S
C2110 C2109 1.523 . S
H2111 C2086 0.950 . S
H2112 C2088 0.950 . S
H2113 C2089 0.949 . S
H2114 C2091 0.950 . S
H2115 C2093 0.950 . S
C2116 C2117 1.349 . S
C2116 C2118 1.327 . S
C2116 H2141 0.950 . S
C2117 C2116 1.349 . S
C2117 C2133 1.349 . S
C2118 C2116 1.327 . S
C2118 C2137 1.429 . S
C2118 H2142 0.950 . S
C2119 C2136 1.574 . S
C2119 C2138 1.368 1_565 S
C2119 H2143 0.949 . S
H2120 C2124 0.949 . S
C2121 C2122 1.349 1_565 S
C2121 C2123 1.327 . S
C2121 H2144 0.950 . S
C2122 C2121 1.349 1_545 S
C2122 C2134 1.349 . S
C2123 C2121 1.327 . S
C2123 C2139 1.429 1_565 S
C2123 H2145 0.950 . S
C2124 H2120 0.949 . S
C2124 C2132 1.574 . S
C2124 C2140 1.368 . S
H2125 C2133 0.950 1_565 S
H2126 C2131 0.950 1_565 S
H2127 C2132 0.949 . S
H2128 C2134 0.950 . S
H2129 C2135 0.950 . S
H2130 C2136 0.949 . S
C2131 H2126 0.950 1_545 S
C2131 C2133 1.327 . S
C2131 C2137 1.429 . S
C2132 C2124 1.574 . S
C2132 H2127 0.949 . S
C2132 C2138 1.368 . S
C2133 C2117 1.349 . S
C2133 H2125 0.950 1_545 S
C2133 C2131 1.327 . S
C2134 C2122 1.349 . S
C2134 H2128 0.950 . S
C2134 C2135 1.327 . S
C2135 H2129 0.950 . S
C2135 C2134 1.327 . S
C2135 C2139 1.429 . S
C2136 C2119 1.574 . S
C2136 H2130 0.949 . S
C2136 C2140 1.368 1_565 S
C2137 C2118 1.429 . S
C2137 C2131 1.429 . S
C2137 C2138 1.523 . S
C2138 C2119 1.368 1_545 S
C2138 C2132 1.368 . S
C2138 C2137 1.523 . S
C2139 C2123 1.429 1_545 S
C2139 C2135 1.429 . S
C2139 C2140 1.523 . S
C2140 C2124 1.368 . S
C2140 C2136 1.368 1_545 S
C2140 C2139 1.523 . S
H2141 C2116 0.950 . S
H2142 C2118 0.950 . S
H2143 C2119 0.949 . S
H2144 C2121 0.950 . S
H2145 C2123 0.950 . S
C2146 C2147 1.349 . S
C2146 C2148 1.327 . S
C2146 H2171 0.950 . S
C2147 C2146 1.349 . S
C2147 C2163 1.349 . S
C2148 C2146 1.327 . S
C2148 C2167 1.429 . S
C2148 H2172 0.950 . S
C2149 C2166 1.574 . S
C2149 C2168 1.368 . S
C2149 H2173 0.949 . S
H2150 C2154 0.949 . S
C2151 C2152 1.349 . S
C2151 C2153 1.327 . S
C2151 H2174 0.950 . S
C2152 C2151 1.349 . S
C2152 C2164 1.349 . S
C2153 C2151 1.327 . S
C2153 C2169 1.429 . S
C2153 H2175 0.950 . S
C2154 H2150 0.949 . S
C2154 C2162 1.574 . S
C2154 C2170 1.368 . S
H2155 C2163 0.950 . S
H2156 C2161 0.950 . S
H2157 C2162 0.949 . S
H2158 C2164 0.950 . S
H2159 C2165 0.950 . S
H2160 C2166 0.949 . S
C2161 H2156 0.950 . S
C2161 C2163 1.327 . S
C2161 C2167 1.429 . S
C2162 C2154 1.574 . S
C2162 H2157 0.949 . S
C2162 C2168 1.368 . S
C2163 C2147 1.349 . S
C2163 H2155 0.950 . S
C2163 C2161 1.327 . S
C2164 C2152 1.349 . S
C2164 H2158 0.950 . S
C2164 C2165 1.327 . S
C2165 H2159 0.950 . S
C2165 C2164 1.327 . S
C2165 C2169 1.429 . S
C2166 C2149 1.574 . S
C2166 H2160 0.949 . S
C2166 C2170 1.368 . S
C2167 C2148 1.429 . S
C2167 C2161 1.429 . S
C2167 C2168 1.523 . S
C2168 C2149 1.368 . S
C2168 C2162 1.368 . S
C2168 C2167 1.523 . S
C2169 C2153 1.429 . S
C2169 C2165 1.429 . S
C2169 C2170 1.523 . S
C2170 C2154 1.368 . S
C2170 C2166 1.368 . S
C2170 C2169 1.523 . S
H2171 C2146 0.950 . S
H2172 C2148 0.950 . S
H2173 C2149 0.949 . S
H2174 C2151 0.950 . S
H2175 C2153 0.950 . S
C2176 C2177 1.349 . S
C2176 C2178 1.327 . S
C2176 H2201 0.950 . S
C2177 C2176 1.349 . S
C2177 C2193 1.349 . S
C2178 C2176 1.327 . S
C2178 C2197 1.429 . S
C2178 H2202 0.950 . S
C2179 C2196 1.574 . S
C2179 C2198 1.368 . S
C2179 H2203 0.949 . S
H2180 C2184 0.949 . S
C2181 C2182 1.349 1_556 S
C2181 C2183 1.327 1_556 S
C2181 H2204 0.950 . S
C2182 C2181 1.349 1_554 S
C2182 C2194 1.349 . S
C2183 C2181 1.327 1_554 S
C2183 C2199 1.429 . S
C2183 H2205 0.950 1_554 S
C2184 H2180 0.949 . S
C2184 C2192 1.574 . S
C2184 C2200 1.368 . S
H2185 C2193 0.950 . S
H2186 C2191 0.950 . S
H2187 C2192 0.949 . S
H2188 C2194 0.950 . S
H2189 C2195 0.950 . S
H2190 C2196 0.949 . S
C2191 H2186 0.950 . S
C2191 C2193 1.327 . S
C2191 C2197 1.429 . S
C2192 C2184 1.574 . S
C2192 H2187 0.949 . S
C2192 C2198 1.368 . S
C2193 C2177 1.349 . S
C2193 H2185 0.950 . S
C2193 C2191 1.327 . S
C2194 C2182 1.349 . S
C2194 H2188 0.950 . S
C2194 C2195 1.327 . S
C2195 H2189 0.950 . S
C2195 C2194 1.327 . S
C2195 C2199 1.429 . S
C2196 C2179 1.574 . S
C2196 H2190 0.949 . S
C2196 C2200 1.368 . S
C2197 C2178 1.429 . S
C2197 C2191 1.429 . S
C2197 C2198 1.523 . S
C2198 C2179 1.368 . S
C2198 C2192 1.368 . S
C2198 C2197 1.523 . S
C2199 C2183 1.429 . S
C2199 C2195 1.429 . S
C2199 C2200 1.523 . S
C2200 C2184 1.368 . S
C2200 C2196 1.368 . S
C2200 C2199 1.523 . S
H2201 C2176 0.950 . S
H2202 C2178 0.950 . S
H2203 C2179 0.949 . S
H2204 C2181 0.950 . S
H2205 C2183 0.950 1_556 S
C2206 C2207 1.349 . S
C2206 C2208 1.327 . S
C2206 H2231 0.950 . S
C2207 C2206 1.349 . S
C2207 C2223 1.349 . S
C2208 C2206 1.327 . S
C2208 C2227 1.429 . S
C2208 H2232 0.950 . S
C2209 C2226 1.574 . S
C2209 C2228 1.368 . S
C2209 H2233 0.949 1_554 S
H2210 C2214 0.949 . S
C2211 C2212 1.349 . S
C2211 C2213 1.327 . S
C2211 H2234 0.950 1_554 S
C2212 C2211 1.349 . S
C2212 C2224 1.349 . S
C2213 C2211 1.327 . S
C2213 C2229 1.429 . S
C2213 H2235 0.950 1_554 S
C2214 H2210 0.949 . S
C2214 C2222 1.574 . S
C2214 C2230 1.368 . S
H2215 C2223 0.945 . S
H2216 C2221 0.950 1_556 S
H2217 C2222 0.949 . S
H2218 C2224 0.950 . S
H2219 C2225 0.950 . S
H2220 C2226 0.949 1_556 S
C2221 H2216 0.950 1_554 S
C2221 C2223 1.327 . S
C2221 C2227 1.429 . S
C2222 C2214 1.574 . S
C2222 H2217 0.949 . S
C2222 C2228 1.368 . S
C2223 C2207 1.349 . S
C2223 H2215 0.945 . S
C2223 C2221 1.327 . S
C2224 C2212 1.349 . S
C2224 H2218 0.950 . S
C2224 C2225 1.327 . S
C2225 H2219 0.950 . S
C2225 C2224 1.327 . S
C2225 C2229 1.429 . S
C2226 C2209 1.574 . S
C2226 H2220 0.949 1_554 S
C2226 C2230 1.368 . S
C2227 C2208 1.429 . S
C2227 C2221 1.429 . S
C2227 C2228 1.523 . S
C2228 C2209 1.368 . S
C2228 C2222 1.368 . S
C2228 C2227 1.523 . S
C2229 C2213 1.429 . S
C2229 C2225 1.429 . S
C2229 C2230 1.523 . S
C2230 C2214 1.368 . S
C2230 C2226 1.368 . S
C2230 C2229 1.523 . S
H2231 C2206 0.950 . S
H2232 C2208 0.950 . S
H2233 C2209 0.949 1_556 S
H2234 C2211 0.950 1_556 S
H2235 C2213 0.950 1_556 S
C2236 C2237 1.349 . S
C2236 C2238 1.327 . S
C2236 H2261 0.950 . S
C2237 C2236 1.349 . S
C2237 C2253 1.349 . S
C2238 C2236 1.327 . S
C2238 C2257 1.429 . S
C2238 H2262 0.950 . S
C2239 C2256 1.574 . S
C2239 C2258 1.368 . S
C2239 H2263 0.949 . S
H2240 C2244 0.949 . S
C2241 C2242 1.349 . S
C2241 C2243 1.327 . S
C2241 H2264 0.950 . S
C2242 C2241 1.349 . S
C2242 C2254 1.349 . S
C2243 C2241 1.327 . S
C2243 C2259 1.429 . S
C2243 H2265 0.950 . S
C2244 H2240 0.949 . S
C2244 C2252 1.574 . S
C2244 C2260 1.368 . S
H2245 C2253 0.950 . S
H2246 C2251 0.950 . S
H2247 C2252 0.949 . S
H2248 C2254 0.950 . S
H2249 C2255 0.950 . S
H2250 C2256 0.949 . S
C2251 H2246 0.950 . S
C2251 C2253 1.327 . S
C2251 C2257 1.429 . S
C2252 C2244 1.574 . S
C2252 H2247 0.949 . S
C2252 C2258 1.368 . S
C2253 C2237 1.349 . S
C2253 H2245 0.950 . S
C2253 C2251 1.327 . S
C2254 C2242 1.349 . S
C2254 H2248 0.950 . S
C2254 C2255 1.327 . S
C2255 H2249 0.950 . S
C2255 C2254 1.327 . S
C2255 C2259 1.429 . S
C2256 C2239 1.574 . S
C2256 H2250 0.949 . S
C2256 C2260 1.368 . S
C2257 C2238 1.429 . S
C2257 C2251 1.429 . S
C2257 C2258 1.523 . S
C2258 C2239 1.368 . S
C2258 C2252 1.368 . S
C2258 C2257 1.523 . S
C2259 C2243 1.429 . S
C2259 C2255 1.429 . S
C2259 C2260 1.523 . S
C2260 C2244 1.368 . S
C2260 C2256 1.368 . S
C2260 C2259 1.523 . S
H2261 C2236 0.950 . S
H2262 C2238 0.950 . S
H2263 C2239 0.949 . S
H2264 C2241 0.950 . S
H2265 C2243 0.950 . S
C2266 C2267 1.349 . S
C2266 C2268 1.327 . S
C2266 H2291 0.950 . S
C2267 C2266 1.349 . S
C2267 C2283 1.349 . S
C2268 C2266 1.327 . S
C2268 C2287 1.429 . S
C2268 H2292 0.950 . S
C2269 C2286 1.574 . S
C2269 C2288 1.368 . S
C2269 H2293 0.949 . S
H2270 C2274 0.949 . S
C2271 C2272 1.349 . S
C2271 C2273 1.327 . S
C2271 H2294 0.950 . S
C2272 C2271 1.349 . S
C2272 C2284 1.349 . S
C2273 C2271 1.327 . S
C2273 C2289 1.429 . S
C2273 H2295 0.950 . S
C2274 H2270 0.949 . S
C2274 C2282 1.574 . S
C2274 C2290 1.368 . S
H2275 C2283 0.950 . S
H2276 C2281 0.950 . S
H2277 C2282 0.949 . S
H2278 C2284 0.950 . S
H2279 C2285 0.950 . S
H2280 C2286 0.949 . S
C2281 H2276 0.950 . S
C2281 C2283 1.327 . S
C2281 C2287 1.429 . S
C2282 C2274 1.574 . S
C2282 H2277 0.949 . S
C2282 C2288 1.368 . S
C2283 C2267 1.349 . S
C2283 H2275 0.950 . S
C2283 C2281 1.327 . S
C2284 C2272 1.349 . S
C2284 H2278 0.950 . S
C2284 C2285 1.327 . S
C2285 H2279 0.950 . S
C2285 C2284 1.327 . S
C2285 C2289 1.429 . S
C2286 C2269 1.574 . S
C2286 H2280 0.949 . S
C2286 C2290 1.368 . S
C2287 C2268 1.429 . S
C2287 C2281 1.429 . S
C2287 C2288 1.523 . S
C2288 C2269 1.368 . S
C2288 C2282 1.368 . S
C2288 C2287 1.523 . S
C2289 C2273 1.429 . S
C2289 C2285 1.429 . S
C2289 C2290 1.523 . S
C2290 C2274 1.368 . S
C2290 C2286 1.368 . S
C2290 C2289 1.523 . S
H2291 C2266 0.950 . S
H2292 C2268 0.950 . S
H2293 C2269 0.949 . S
H2294 C2271 0.950 . S
H2295 C2273 0.950 . S
C2296 C2297 1.349 . S
C2296 C2298 1.327 . S
C2296 H2321 0.950 . S
C2297 C2296 1.349 . S
C2297 C2313 1.349 . S
C2298 C2296 1.327 . S
C2298 C2317 1.429 . S
C2298 H2322 0.950 . S
C2299 C2316 1.574 . S
C2299 C2318 1.368 . S
C2299 H2323 0.949 . S
H2300 C2304 0.949 . S
C2301 C2302 1.349 . S
C2301 C2303 1.327 . S
C2301 H2324 0.950 . S
C2302 C2301 1.349 . S
C2302 C2314 1.349 . S
C2303 C2301 1.327 . S
C2303 C2319 1.429 . S
C2303 H2325 0.950 . S
C2304 H2300 0.949 . S
C2304 C2312 1.574 . S
C2304 C2320 1.368 . S
H2305 C2313 0.950 . S
H2306 C2311 0.950 . S
H2307 C2312 0.949 . S
H2308 C2314 0.950 . S
H2309 C2315 0.950 . S
H2310 C2316 0.949 . S
C2311 H2306 0.950 . S
C2311 C2313 1.327 . S
C2311 C2317 1.429 . S
C2312 C2304 1.574 . S
C2312 H2307 0.949 . S
C2312 C2318 1.368 . S
C2313 C2297 1.349 . S
C2313 H2305 0.950 . S
C2313 C2311 1.327 . S
C2314 C2302 1.349 . S
C2314 H2308 0.950 . S
C2314 C2315 1.327 . S
C2315 H2309 0.950 . S
C2315 C2314 1.327 . S
C2315 C2319 1.429 . S
C2316 C2299 1.574 . S
C2316 H2310 0.949 . S
C2316 C2320 1.368 . S
C2317 C2298 1.429 . S
C2317 C2311 1.429 . S
C2317 C2318 1.523 . S
C2318 C2299 1.368 . S
C2318 C2312 1.368 . S
C2318 C2317 1.523 . S
C2319 C2303 1.429 . S
C2319 C2315 1.429 . S
C2319 C2320 1.523 . S
C2320 C2304 1.368 . S
C2320 C2316 1.368 . S
C2320 C2319 1.523 . S
H2321 C2296 0.950 . S
H2322 C2298 0.950 . S
H2323 C2299 0.949 . S
H2324 C2301 0.950 . S
H2325 C2303 0.950 . S
C2326 C2327 1.349 . S
C2326 C2328 1.327 . S
C2326 H2351 0.950 . S
C2327 C2326 1.349 . S
C2327 C2343 1.349 . S
C2328 C2326 1.327 . S
C2328 C2347 1.429 . S
C2328 H2352 0.950 . S
C2329 C2346 1.574 . S
C2329 C2348 1.368 . S
C2329 H2353 0.949 . S
H2330 C2334 0.949 . S
C2331 C2332 1.349 . S
C2331 C2333 1.327 . S
C2331 H2354 0.950 . S
C2332 C2331 1.349 . S
C2332 C2344 1.349 . S
C2333 C2331 1.327 . S
C2333 C2349 1.429 . S
C2333 H2355 0.950 . S
C2334 H2330 0.949 . S
C2334 C2342 1.574 . S
C2334 C2350 1.368 . S
H2335 C2343 0.950 . S
H2336 C2341 0.950 . S
H2337 C2342 0.949 . S
H2338 C2344 0.950 . S
H2339 C2345 0.950 . S
H2340 C2346 0.949 . S
C2341 H2336 0.950 . S
C2341 C2343 1.327 . S
C2341 C2347 1.429 . S
C2342 C2334 1.574 . S
C2342 H2337 0.949 . S
C2342 C2348 1.368 . S
C2343 C2327 1.349 . S
C2343 H2335 0.950 . S
C2343 C2341 1.327 . S
C2344 C2332 1.349 . S
C2344 H2338 0.950 . S
C2344 C2345 1.327 . S
C2345 H2339 0.950 . S
C2345 C2344 1.327 . S
C2345 C2349 1.429 . S
C2346 C2329 1.574 . S
C2346 H2340 0.949 . S
C2346 C2350 1.368 . S
C2347 C2328 1.429 . S
C2347 C2341 1.429 . S
C2347 C2348 1.523 . S
C2348 C2329 1.368 . S
C2348 C2342 1.368 . S
C2348 C2347 1.523 . S
C2349 C2333 1.429 . S
C2349 C2345 1.429 . S
C2349 C2350 1.523 . S
C2350 C2334 1.368 . S
C2350 C2346 1.368 . S
C2350 C2349 1.523 . S
H2351 C2326 0.950 . S
H2352 C2328 0.950 . S
H2353 C2329 0.949 . S
H2354 C2331 0.950 . S
H2355 C2333 0.950 . S
C2356 C2357 1.349 . S
C2356 C2358 1.327 . S
C2356 H2381 0.950 . S
C2357 C2356 1.349 . S
C2357 C2373 1.349 . S
C2358 C2356 1.327 . S
C2358 C2377 1.429 . S
C2358 H2382 0.950 . S
C2359 C2376 1.574 . S
C2359 C2378 1.368 . S
C2359 H2383 0.949 . S
H2360 C2364 0.949 . S
C2361 C2362 1.349 . S
C2361 C2363 1.327 . S
C2361 H2384 0.950 . S
C2362 C2361 1.349 . S
C2362 C2374 1.349 . S
C2363 C2361 1.327 . S
C2363 C2379 1.429 . S
C2363 H2385 0.950 . S
C2364 H2360 0.949 . S
C2364 C2372 1.574 . S
C2364 C2380 1.368 . S
H2365 C2373 0.950 . S
H2366 C2371 0.950 . S
H2367 C2372 0.949 . S
H2368 C2374 0.950 . S
H2369 C2375 0.950 . S
H2370 C2376 0.949 . S
C2371 H2366 0.950 . S
C2371 C2373 1.327 . S
C2371 C2377 1.429 . S
C2372 C2364 1.574 . S
C2372 H2367 0.949 . S
C2372 C2378 1.368 . S
C2373 C2357 1.349 . S
C2373 H2365 0.950 . S
C2373 C2371 1.327 . S
C2374 C2362 1.349 . S
C2374 H2368 0.950 . S
C2374 C2375 1.327 . S
C2375 H2369 0.950 . S
C2375 C2374 1.327 . S
C2375 C2379 1.429 . S
C2376 C2359 1.574 . S
C2376 H2370 0.949 . S
C2376 C2380 1.368 . S
C2377 C2358 1.429 . S
C2377 C2371 1.429 . S
C2377 C2378 1.523 . S
C2378 C2359 1.368 . S
C2378 C2372 1.368 . S
C2378 C2377 1.523 . S
C2379 C2363 1.429 . S
C2379 C2375 1.429 . S
C2379 C2380 1.523 . S
C2380 C2364 1.368 . S
C2380 C2376 1.368 . S
C2380 C2379 1.523 . S
H2381 C2356 0.950 . S
H2382 C2358 0.950 . S
H2383 C2359 0.949 . S
H2384 C2361 0.950 . S
H2385 C2363 0.950 . S
C2386 C2387 1.349 . S
C2386 C2388 1.327 . S
C2386 H2411 0.950 . S
C2387 C2386 1.349 . S
C2387 C2403 1.349 . S
C2388 C2386 1.327 . S
C2388 C2407 1.429 . S
C2388 H2412 0.950 . S
C2389 C2406 1.574 . S
C2389 C2408 1.368 . S
C2389 H2413 0.949 . S
H2390 C2394 0.949 . S
C2391 C2392 1.349 . S
C2391 C2393 1.327 . S
C2391 H2414 0.950 . S
C2392 C2391 1.349 . S
C2392 C2404 1.349 . S
C2393 C2391 1.327 . S
C2393 C2409 1.429 . S
C2393 H2415 0.950 . S
C2394 H2390 0.949 . S
C2394 C2402 1.574 . S
C2394 C2410 1.368 . S
H2395 C2403 0.950 . S
H2396 C2401 0.950 . S
H2397 C2402 0.949 . S
H2398 C2404 0.950 . S
H2399 C2405 0.950 . S
H2400 C2406 0.949 . S
C2401 H2396 0.950 . S
C2401 C2403 1.327 . S
C2401 C2407 1.429 . S
C2402 C2394 1.574 . S
C2402 H2397 0.949 . S
C2402 C2408 1.368 . S
C2403 C2387 1.349 . S
C2403 H2395 0.950 . S
C2403 C2401 1.327 . S
C2404 C2392 1.349 . S
C2404 H2398 0.950 . S
C2404 C2405 1.327 . S
C2405 H2399 0.950 . S
C2405 C2404 1.327 . S
C2405 C2409 1.429 . S
C2406 C2389 1.574 . S
C2406 H2400 0.949 . S
C2406 C2410 1.368 . S
C2407 C2388 1.429 . S
C2407 C2401 1.429 . S
C2407 C2408 1.523 . S
C2408 C2389 1.368 . S
C2408 C2402 1.368 . S
C2408 C2407 1.523 . S
C2409 C2393 1.429 . S
C2409 C2405 1.429 . S
C2409 C2410 1.523 . S
C2410 C2394 1.368 . S
C2410 C2406 1.368 . S
C2410 C2409 1.523 . S
H2411 C2386 0.950 . S
H2412 C2388 0.950 . S
H2413 C2389 0.949 . S
H2414 C2391 0.950 . S
H2415 C2393 0.950 . S
C2416 C2417 1.349 . S
C2416 C2418 1.327 . S
C2416 H2441 0.950 . S
C2417 C2416 1.349 . S
C2417 C2433 1.349 . S
C2418 C2416 1.327 . S
C2418 C2437 1.429 . S
C2418 H2442 0.950 . S
C2419 C2436 1.574 . S
C2419 C2438 1.368 . S
C2419 H2443 0.949 . S
H2420 C2424 0.949 . S
C2421 C2422 1.349 . S
C2421 C2423 1.327 . S
C2421 H2444 0.950 . S
C2422 C2421 1.349 . S
C2422 C2434 1.349 . S
C2423 C2421 1.327 . S
C2423 C2439 1.429 . S
C2423 H2445 0.950 . S
C2424 H2420 0.949 . S
C2424 C2432 1.574 . S
C2424 C2440 1.368 . S
H2425 C2433 0.950 . S
H2426 C2431 0.950 . S
H2427 C2432 0.949 . S
H2428 C2434 0.950 . S
H2429 C2435 0.950 . S
H2430 C2436 0.949 . S
C2431 H2426 0.950 . S
C2431 C2433 1.327 . S
C2431 C2437 1.429 . S
C2432 C2424 1.574 . S
C2432 H2427 0.949 . S
C2432 C2438 1.368 . S
C2433 C2417 1.349 . S
C2433 H2425 0.950 . S
C2433 C2431 1.327 . S
C2434 C2422 1.349 . S
C2434 H2428 0.950 . S
C2434 C2435 1.327 . S
C2435 H2429 0.950 . S
C2435 C2434 1.327 . S
C2435 C2439 1.429 . S
C2436 C2419 1.574 . S
C2436 H2430 0.949 . S
C2436 C2440 1.368 . S
C2437 C2418 1.429 . S
C2437 C2431 1.429 . S
C2437 C2438 1.523 . S
C2438 C2419 1.368 . S
C2438 C2432 1.368 . S
C2438 C2437 1.523 . S
C2439 C2423 1.429 . S
C2439 C2435 1.429 . S
C2439 C2440 1.523 . S
C2440 C2424 1.368 . S
C2440 C2436 1.368 . S
C2440 C2439 1.523 . S
H2441 C2416 0.950 . S
H2442 C2418 0.950 . S
H2443 C2419 0.949 . S
H2444 C2421 0.950 . S
H2445 C2423 0.950 . S
C2446 C2447 1.349 . S
C2446 C2448 1.327 . S
C2446 H2471 0.950 . S
C2447 C2446 1.349 . S
C2447 C2463 1.349 . S
C2448 C2446 1.327 . S
C2448 C2467 1.429 . S
C2448 H2472 0.950 . S
C2449 C2466 1.574 . S
C2449 C2468 1.368 . S
C2449 H2473 0.949 . S
H2450 C2454 0.949 . S
C2451 C2452 1.349 . S
C2451 C2453 1.327 . S
C2451 H2474 0.950 . S
C2452 C2451 1.349 . S
C2452 C2464 1.349 . S
C2453 C2451 1.327 . S
C2453 C2469 1.429 . S
C2453 H2475 0.950 . S
C2454 H2450 0.949 . S
C2454 C2462 1.574 . S
C2454 C2470 1.368 . S
H2455 C2463 0.950 . S
H2456 C2461 0.950 . S
H2457 C2462 0.949 . S
H2458 C2464 0.950 . S
H2459 C2465 0.950 . S
H2460 C2466 0.949 . S
C2461 H2456 0.950 . S
C2461 C2463 1.327 . S
C2461 C2467 1.429 . S
C2462 C2454 1.574 . S
C2462 H2457 0.949 . S
C2462 C2468 1.368 . S
C2463 C2447 1.349 . S
C2463 H2455 0.950 . S
C2463 C2461 1.327 . S
C2464 C2452 1.349 . S
C2464 H2458 0.950 . S
C2464 C2465 1.327 . S
C2465 H2459 0.950 . S
C2465 C2464 1.327 . S
C2465 C2469 1.429 . S
C2466 C2449 1.574 . S
C2466 H2460 0.949 . S
C2466 C2470 1.368 . S
C2467 C2448 1.429 . S
C2467 C2461 1.429 . S
C2467 C2468 1.523 . S
C2468 C2449 1.368 . S
C2468 C2462 1.368 . S
C2468 C2467 1.523 . S
C2469 C2453 1.429 . S
C2469 C2465 1.429 . S
C2469 C2470 1.523 . S
C2470 C2454 1.368 . S
C2470 C2466 1.368 . S
C2470 C2469 1.523 . S
H2471 C2446 0.950 . S
H2472 C2448 0.950 . S
H2473 C2449 0.949 . S
H2474 C2451 0.950 . S
H2475 C2453 0.950 . S
C2476 C2477 1.349 . S
C2476 C2478 1.327 . S
C2476 H2501 0.950 . S
C2477 C2476 1.349 . S
C2477 C2493 1.349 . S
C2478 C2476 1.327 . S
C2478 C2497 1.429 . S
C2478 H2502 0.950 . S
C2479 C2496 1.574 . S
C2479 C2498 1.368 . S
C2479 H2503 0.949 . S
H2480 C2484 0.970 . S
C2481 C2482 1.349 1_556 S
C2481 C2483 1.327 . S
C2481 H2504 0.950 . S
C2482 C2481 1.349 1_554 S
C2482 C2494 1.349 . S
C2483 C2481 1.327 . S
C2483 C2499 1.429 . S
C2483 H2505 0.950 . S
C2484 H2480 0.970 . S
C2484 C2492 1.568 1_554 S
C2484 C2500 1.351 1_554 S
H2485 C2493 0.950 1_655 S
H2486 C2491 0.953 1_655 S
H2487 C2492 0.971 . S
H2488 C2494 0.950 . S
H2489 C2495 0.950 . S
H2490 C2496 0.949 . S
C2491 H2486 0.953 1_455 S
C2491 C2493 1.327 . S
C2491 C2497 1.429 . S
C2492 C2484 1.568 1_556 S
C2492 H2487 0.971 . S
C2492 C2498 1.368 . S
C2493 C2477 1.349 . S
C2493 H2485 0.950 1_455 S
C2493 C2491 1.327 . S
C2494 C2482 1.349 . S
C2494 H2488 0.950 . S
C2494 C2495 1.327 . S
C2495 H2489 0.950 . S
C2495 C2494 1.327 . S
C2495 C2499 1.429 1_554 S
C2496 C2479 1.574 . S
C2496 H2490 0.949 . S
C2496 C2500 1.368 . S
C2497 C2478 1.429 . S
C2497 C2491 1.429 . S
C2497 C2498 1.523 . S
C2498 C2479 1.368 . S
C2498 C2492 1.368 . S
C2498 C2497 1.523 . S
C2499 C2483 1.429 . S
C2499 C2495 1.429 1_556 S
C2499 C2500 1.523 . S
C2500 C2484 1.351 1_556 S
C2500 C2496 1.368 . S
C2500 C2499 1.523 . S
H2501 C2476 0.950 . S
H2502 C2478 0.950 . S
H2503 C2479 0.949 . S
H2504 C2481 0.950 . S
H2505 C2483 0.950 . S
C2506 C2507 1.294 1_655 S
C2506 C2508 1.327 . S
C2506 H2531 0.950 . S
C2507 C2506 1.294 1_455 S
C2507 C2523 1.344 1_455 S
C2508 C2506 1.327 . S
C2508 C2527 1.429 . S
C2508 H2532 0.950 . S
C2509 C2526 1.574 . S
C2509 C2528 1.368 . S
C2509 H2533 0.949 . S
H2510 C2514 0.949 . S
C2511 C2512 1.349 . S
C2511 C2513 1.327 . S
C2511 H2534 0.950 . S
C2512 C2511 1.349 . S
C2512 C2524 1.349 . S
C2513 C2511 1.327 . S
C2513 C2529 1.429 . S
C2513 H2535 0.950 . S
C2514 H2510 0.949 . S
C2514 C2522 1.574 . S
C2514 C2530 1.368 . S
H2515 C2523 0.950 1_455 S
H2516 C2521 0.950 . S
H2517 C2522 0.949 . S
H2518 C2524 0.950 . S
H2519 C2525 0.950 . S
H2520 C2526 0.949 . S
C2521 H2516 0.950 . S
C2521 C2523 1.327 . S
C2521 C2527 1.429 . S
C2522 C2514 1.574 . S
C2522 H2517 0.949 . S
C2522 C2528 1.368 . S
C2523 C2507 1.344 1_655 S
C2523 H2515 0.950 1_655 S
C2523 C2521 1.327 . S
C2524 C2512 1.349 . S
C2524 H2518 0.950 . S
C2524 C2525 1.327 . S
C2525 H2519 0.950 . S
C2525 C2524 1.327 . S
C2525 C2529 1.429 . S
C2526 C2509 1.574 . S
C2526 H2520 0.949 . S
C2526 C2530 1.368 . S
C2527 C2508 1.429 . S
C2527 C2521 1.429 . S
C2527 C2528 1.523 . S
C2528 C2509 1.368 . S
C2528 C2522 1.368 . S
C2528 C2527 1.523 . S
C2529 C2513 1.429 . S
C2529 C2525 1.429 . S
C2529 C2530 1.523 . S
C2530 C2514 1.368 . S
C2530 C2526 1.368 . S
C2530 C2529 1.523 . S
H2531 C2506 0.950 . S
H2532 C2508 0.950 . S
H2533 C2509 0.949 . S
H2534 C2511 0.950 . S
H2535 C2513 0.950 . S
C2536 C2537 1.349 . S
C2536 C2538 1.327 . S
C2536 H2561 0.950 . S
C2537 C2536 1.349 . S
C2537 C2553 1.349 . S
C2538 C2536 1.327 . S
C2538 C2557 1.429 . S
C2538 H2562 0.950 . S
C2539 C2556 1.574 . S
C2539 C2558 1.368 . S
C2539 H2563 0.949 . S
H2540 C2544 0.949 . S
C2541 C2542 1.349 . S
C2541 C2543 1.327 . S
C2541 H2564 0.950 . S
C2542 C2541 1.349 . S
C2542 C2554 1.349 . S
C2543 C2541 1.327 . S
C2543 C2559 1.429 . S
C2543 H2565 0.950 . S
C2544 H2540 0.949 . S
C2544 C2552 1.574 . S
C2544 C2560 1.368 . S
H2545 C2553 0.950 . S
H2546 C2551 0.950 . S
H2547 C2552 0.949 . S
H2548 C2554 0.950 . S
H2549 C2555 0.950 . S
H2550 C2556 0.949 . S
C2551 H2546 0.950 . S
C2551 C2553 1.327 . S
C2551 C2557 1.429 . S
C2552 C2544 1.574 . S
C2552 H2547 0.949 . S
C2552 C2558 1.368 . S
C2553 C2537 1.349 . S
C2553 H2545 0.950 . S
C2553 C2551 1.327 . S
C2554 C2542 1.349 . S
C2554 H2548 0.950 . S
C2554 C2555 1.327 . S
C2555 H2549 0.950 . S
C2555 C2554 1.327 . S
C2555 C2559 1.429 . S
C2556 C2539 1.574 . S
C2556 H2550 0.949 . S
C2556 C2560 1.368 . S
C2557 C2538 1.429 . S
C2557 C2551 1.429 . S
C2557 C2558 1.523 . S
C2558 C2539 1.368 . S
C2558 C2552 1.368 . S
C2558 C2557 1.523 . S
C2559 C2543 1.429 . S
C2559 C2555 1.429 . S
C2559 C2560 1.523 . S
C2560 C2544 1.368 . S
C2560 C2556 1.368 . S
C2560 C2559 1.523 . S
H2561 C2536 0.950 . S
H2562 C2538 0.950 . S
H2563 C2539 0.949 . S
H2564 C2541 0.950 . S
H2565 C2543 0.950 . S
C2566 C2567 1.349 . S
C2566 C2568 1.327 . S
C2566 H2591 0.950 . S
C2567 C2566 1.349 . S
C2567 C2583 1.349 . S
C2568 C2566 1.327 . S
C2568 C2587 1.429 . S
C2568 H2592 0.950 . S
C2569 C2586 1.574 . S
C2569 C2588 1.368 . S
C2569 H2593 0.949 . S
H2570 C2574 0.949 . S
C2571 C2572 1.349 . S
C2571 C2573 1.327 . S
C2571 H2594 0.950 . S
C2572 C2571 1.349 . S
C2572 C2584 1.349 . S
C2573 C2571 1.327 . S
C2573 C2589 1.429 . S
C2573 H2595 0.950 . S
C2574 H2570 0.949 . S
C2574 C2582 1.574 . S
C2574 C2590 1.368 . S
H2575 C2583 0.950 . S
H2576 C2581 0.950 . S
H2577 C2582 0.949 . S
H2578 C2584 0.950 . S
H2579 C2585 0.950 . S
H2580 C2586 0.949 . S
C2581 H2576 0.950 . S
C2581 C2583 1.327 . S
C2581 C2587 1.429 . S
C2582 C2574 1.574 . S
C2582 H2577 0.949 . S
C2582 C2588 1.368 . S
C2583 C2567 1.349 . S
C2583 H2575 0.950 . S
C2583 C2581 1.327 . S
C2584 C2572 1.349 . S
C2584 H2578 0.950 . S
C2584 C2585 1.327 . S
C2585 H2579 0.950 . S
C2585 C2584 1.327 . S
C2585 C2589 1.429 . S
C2586 C2569 1.574 . S
C2586 H2580 0.949 . S
C2586 C2590 1.368 . S
C2587 C2568 1.429 . S
C2587 C2581 1.429 . S
C2587 C2588 1.523 . S
C2588 C2569 1.368 . S
C2588 C2582 1.368 . S
C2588 C2587 1.523 . S
C2589 C2573 1.429 . S
C2589 C2585 1.429 . S
C2589 C2590 1.523 . S
C2590 C2574 1.368 . S
C2590 C2586 1.368 . S
C2590 C2589 1.523 . S
H2591 C2566 0.950 . S
H2592 C2568 0.950 . S
H2593 C2569 0.949 . S
H2594 C2571 0.950 . S
H2595 C2573 0.950 . S
C2596 C2597 1.349 . S
C2596 C2598 1.327 . S
C2596 H2621 0.950 . S
C2597 C2596 1.349 . S
C2597 C2613 1.349 . S
C2598 C2596 1.327 . S
C2598 C2617 1.429 . S
C2598 H2622 0.950 . S
C2599 C2616 1.574 . S
C2599 C2618 1.368 . S
C2599 H2623 0.949 . S
H2600 C2604 0.949 . S
C2601 C2602 1.349 . S
C2601 C2603 1.327 . S
C2601 H2624 0.947 1_455 S
C2602 C2601 1.349 . S
C2602 C2614 1.349 . S
C2603 C2601 1.327 . S
C2603 C2619 1.429 . S
C2603 H2625 0.950 . S
C2604 H2600 0.949 . S
C2604 C2612 1.574 . S
C2604 C2620 1.368 . S
H2605 C2613 0.950 . S
H2606 C2611 0.950 . S
H2607 C2612 0.949 . S
H2608 C2614 0.950 . S
H2609 C2615 0.950 . S
H2610 C2616 0.949 . S
C2611 H2606 0.950 . S
C2611 C2613 1.327 . S
C2611 C2617 1.429 . S
C2612 C2604 1.574 . S
C2612 H2607 0.949 . S
C2612 C2618 1.368 . S
C2613 C2597 1.349 . S
C2613 H2605 0.950 . S
C2613 C2611 1.327 . S
C2614 C2602 1.349 . S
C2614 H2608 0.950 . S
C2614 C2615 1.327 . S
C2615 H2609 0.950 . S
C2615 C2614 1.327 . S
C2615 C2619 1.429 . S
C2616 C2599 1.574 . S
C2616 H2610 0.949 . S
C2616 C2620 1.368 . S
C2617 C2598 1.429 . S
C2617 C2611 1.429 . S
C2617 C2618 1.523 . S
C2618 C2599 1.368 . S
C2618 C2612 1.368 . S
C2618 C2617 1.523 . S
C2619 C2603 1.429 . S
C2619 C2615 1.429 . S
C2619 C2620 1.523 . S
C2620 C2604 1.368 . S
C2620 C2616 1.368 . S
C2620 C2619 1.523 . S
H2621 C2596 0.950 . S
H2622 C2598 0.950 . S
H2623 C2599 0.949 . S
H2624 C2601 0.947 1_655 S
H2625 C2603 0.950 . S
C2626 C2627 1.349 . S
C2626 C2628 1.327 . S
C2626 H2651 0.950 . S
C2627 C2626 1.349 . S
C2627 C2643 1.349 . S
C2628 C2626 1.327 . S
C2628 C2647 1.429 . S
C2628 H2652 0.950 . S
C2629 C2646 1.574 . S
C2629 C2648 1.368 . S
C2629 H2653 0.949 . S
H2630 C2634 0.949 . S
C2631 C2632 1.349 . S
C2631 C2633 1.327 . S
C2631 H2654 0.950 . S
C2632 C2631 1.349 . S
C2632 C2644 1.349 . S
C2633 C2631 1.327 . S
C2633 C2649 1.429 . S
C2633 H2655 0.950 . S
C2634 H2630 0.949 . S
C2634 C2642 1.574 . S
C2634 C2650 1.368 . S
H2635 C2643 0.950 . S
H2636 C2641 0.950 . S
H2637 C2642 0.949 . S
H2638 C2644 0.950 . S
H2639 C2645 0.950 . S
H2640 C2646 0.949 . S
C2641 H2636 0.950 . S
C2641 C2643 1.327 . S
C2641 C2647 1.429 . S
C2642 C2634 1.574 . S
C2642 H2637 0.949 . S
C2642 C2648 1.368 . S
C2643 C2627 1.349 . S
C2643 H2635 0.950 . S
C2643 C2641 1.327 . S
C2644 C2632 1.349 . S
C2644 H2638 0.950 . S
C2644 C2645 1.327 . S
C2645 H2639 0.950 . S
C2645 C2644 1.327 . S
C2645 C2649 1.429 . S
C2646 C2629 1.574 . S
C2646 H2640 0.949 . S
C2646 C2650 1.368 . S
C2647 C2628 1.429 . S
C2647 C2641 1.429 . S
C2647 C2648 1.523 . S
C2648 C2629 1.368 . S
C2648 C2642 1.368 . S
C2648 C2647 1.523 . S
C2649 C2633 1.429 . S
C2649 C2645 1.429 . S
C2649 C2650 1.523 . S
C2650 C2634 1.368 . S
C2650 C2646 1.368 . S
C2650 C2649 1.523 . S
H2651 C2626 0.950 . S
H2652 C2628 0.950 . S
H2653 C2629 0.949 . S
H2654 C2631 0.950 . S
H2655 C2633 0.950 . S
C2656 C2657 1.349 . S
C2656 C2658 1.327 . S
C2656 H2681 0.950 . S
C2657 C2656 1.349 . S
C2657 C2673 1.349 . S
C2658 C2656 1.327 . S
C2658 C2677 1.429 . S
C2658 H2682 0.950 . S
C2659 C2676 1.574 . S
C2659 C2678 1.368 . S
C2659 H2683 0.949 . S
H2660 C2664 0.949 . S
C2661 C2662 1.349 . S
C2661 C2663 1.327 . S
C2661 H2684 0.950 . S
C2662 C2661 1.349 . S
C2662 C2674 1.349 . S
C2663 C2661 1.327 . S
C2663 C2679 1.429 . S
C2663 H2685 0.950 . S
C2664 H2660 0.949 . S
C2664 C2672 1.574 . S
C2664 C2680 1.368 . S
H2665 C2673 0.950 . S
H2666 C2671 0.950 . S
H2667 C2672 0.949 . S
H2668 C2674 0.950 . S
H2669 C2675 0.950 . S
H2670 C2676 0.949 . S
C2671 H2666 0.950 . S
C2671 C2673 1.327 . S
C2671 C2677 1.429 . S
C2672 C2664 1.574 . S
C2672 H2667 0.949 . S
C2672 C2678 1.368 . S
C2673 C2657 1.349 . S
C2673 H2665 0.950 . S
C2673 C2671 1.327 . S
C2674 C2662 1.349 . S
C2674 H2668 0.950 . S
C2674 C2675 1.327 . S
C2675 H2669 0.950 . S
C2675 C2674 1.327 . S
C2675 C2679 1.429 . S
C2676 C2659 1.574 . S
C2676 H2670 0.949 . S
C2676 C2680 1.368 . S
C2677 C2658 1.429 . S
C2677 C2671 1.429 . S
C2677 C2678 1.523 . S
C2678 C2659 1.368 . S
C2678 C2672 1.368 . S
C2678 C2677 1.523 . S
C2679 C2663 1.429 . S
C2679 C2675 1.429 . S
C2679 C2680 1.523 . S
C2680 C2664 1.368 . S
C2680 C2676 1.368 . S
C2680 C2679 1.523 . S
H2681 C2656 0.950 . S
H2682 C2658 0.950 . S
H2683 C2659 0.949 . S
H2684 C2661 0.950 . S
H2685 C2663 0.950 . S
C2686 C2687 1.349 . S
C2686 C2688 1.327 1_554 S
C2686 H2711 0.950 . S
C2687 C2686 1.349 . S
C2687 C2703 1.349 . S
C2688 C2686 1.327 1_556 S
C2688 C2707 1.429 . S
C2688 H2712 0.950 . S
C2689 C2706 1.574 . S
C2689 C2708 1.368 . S
C2689 H2713 0.949 . S
H2690 C2694 0.949 . S
C2691 C2692 1.349 . S
C2691 C2693 1.327 . S
C2691 H2714 0.950 . S
C2692 C2691 1.349 . S
C2692 C2704 1.349 . S
C2693 C2691 1.327 . S
C2693 C2709 1.429 . S
C2693 H2715 0.950 . S
C2694 H2690 0.949 . S
C2694 C2702 1.574 . S
C2694 C2710 1.368 . S
H2695 C2703 0.950 . S
H2696 C2701 0.950 . S
H2697 C2702 0.949 . S
H2698 C2704 0.950 . S
H2699 C2705 0.950 . S
H2700 C2706 0.949 . S
C2701 H2696 0.950 . S
C2701 C2703 1.327 . S
C2701 C2707 1.429 1_554 S
C2702 C2694 1.574 . S
C2702 H2697 0.949 . S
C2702 C2708 1.368 . S
C2703 C2687 1.349 . S
C2703 H2695 0.950 . S
C2703 C2701 1.327 . S
C2704 C2692 1.349 . S
C2704 H2698 0.950 . S
C2704 C2705 1.327 . S
C2705 H2699 0.950 . S
C2705 C2704 1.327 . S
C2705 C2709 1.429 . S
C2706 C2689 1.574 . S
C2706 H2700 0.949 . S
C2706 C2710 1.368 . S
C2707 C2688 1.429 . S
C2707 C2701 1.429 1_556 S
C2707 C2708 1.523 . S
C2708 C2689 1.368 . S
C2708 C2702 1.368 . S
C2708 C2707 1.523 . S
C2709 C2693 1.429 . S
C2709 C2705 1.429 . S
C2709 C2710 1.523 . S
C2710 C2694 1.368 . S
C2710 C2706 1.368 . S
C2710 C2709 1.523 . S
H2711 C2686 0.950 . S
H2712 C2688 0.950 . S
H2713 C2689 0.949 . S
H2714 C2691 0.950 . S
H2715 C2693 0.950 . S
C2716 C2717 1.349 . S
C2716 C2718 1.327 . S
C2716 H2741 0.950 . S
C2717 C2716 1.349 . S
C2717 C2733 1.349 . S
C2718 C2716 1.327 . S
C2718 C2737 1.429 . S
C2718 H2742 0.950 . S
C2719 C2736 1.574 . S
C2719 C2738 1.368 . S
C2719 H2743 0.949 . S
H2720 C2724 0.949 . S
C2721 C2722 1.349 . S
C2721 C2723 1.327 . S
C2721 H2744 0.950 . S
C2722 C2721 1.349 . S
C2722 C2734 1.349 . S
C2723 C2721 1.327 . S
C2723 C2739 1.429 . S
C2723 H2745 0.950 . S
C2724 H2720 0.949 . S
C2724 C2732 1.574 . S
C2724 C2740 1.368 . S
H2725 C2733 0.950 . S
H2726 C2731 0.950 . S
H2727 C2732 0.949 . S
H2728 C2734 0.950 . S
H2729 C2735 0.950 . S
H2730 C2736 0.949 . S
C2731 H2726 0.950 . S
C2731 C2733 1.327 . S
C2731 C2737 1.429 . S
C2732 C2724 1.574 . S
C2732 H2727 0.949 . S
C2732 C2738 1.368 . S
C2733 C2717 1.349 . S
C2733 H2725 0.950 . S
C2733 C2731 1.327 . S
C2734 C2722 1.349 . S
C2734 H2728 0.950 . S
C2734 C2735 1.327 . S
C2735 H2729 0.950 . S
C2735 C2734 1.327 . S
C2735 C2739 1.429 . S
C2736 C2719 1.574 . S
C2736 H2730 0.949 . S
C2736 C2740 1.368 . S
C2737 C2718 1.429 . S
C2737 C2731 1.429 . S
C2737 C2738 1.523 . S
C2738 C2719 1.368 . S
C2738 C2732 1.368 . S
C2738 C2737 1.523 . S
C2739 C2723 1.429 . S
C2739 C2735 1.429 . S
C2739 C2740 1.523 . S
C2740 C2724 1.368 . S
C2740 C2736 1.368 . S
C2740 C2739 1.523 . S
H2741 C2716 0.950 . S
H2742 C2718 0.950 . S
H2743 C2719 0.949 . S
H2744 C2721 0.950 . S
H2745 C2723 0.950 . S
C2746 C2747 1.349 . S
C2746 C2748 1.327 . S
C2746 H2771 0.950 . S
C2747 C2746 1.349 . S
C2747 C2763 1.349 . S
C2748 C2746 1.327 . S
C2748 C2767 1.429 . S
C2748 H2772 0.950 . S
C2749 C2766 1.574 . S
C2749 C2768 1.368 . S
C2749 H2773 0.949 . S
H2750 C2754 0.949 . S
C2751 C2752 1.349 . S
C2751 C2753 1.327 . S
C2751 H2774 0.950 . S
C2752 C2751 1.349 . S
C2752 C2764 1.349 . S
C2753 C2751 1.327 . S
C2753 C2769 1.429 . S
C2753 H2775 0.950 . S
C2754 H2750 0.949 . S
C2754 C2762 1.574 . S
C2754 C2770 1.368 . S
H2755 C2763 0.950 . S
H2756 C2761 0.950 . S
H2757 C2762 0.949 . S
H2758 C2764 0.950 . S
H2759 C2765 0.950 . S
H2760 C2766 0.949 . S
C2761 H2756 0.950 . S
C2761 C2763 1.327 . S
C2761 C2767 1.429 . S
C2762 C2754 1.574 . S
C2762 H2757 0.949 . S
C2762 C2768 1.368 . S
C2763 C2747 1.349 . S
C2763 H2755 0.950 . S
C2763 C2761 1.327 . S
C2764 C2752 1.349 . S
C2764 H2758 0.950 . S
C2764 C2765 1.327 . S
C2765 H2759 0.950 . S
C2765 C2764 1.327 . S
C2765 C2769 1.429 . S
C2766 C2749 1.574 . S
C2766 H2760 0.949 . S
C2766 C2770 1.368 . S
C2767 C2748 1.429 . S
C2767 C2761 1.429 . S
C2767 C2768 1.523 . S
C2768 C2749 1.368 . S
C2768 C2762 1.368 . S
C2768 C2767 1.523 . S
C2769 C2753 1.429 . S
C2769 C2765 1.429 . S
C2769 C2770 1.523 . S
C2770 C2754 1.368 . S
C2770 C2766 1.368 . S
C2770 C2769 1.523 . S
H2771 C2746 0.950 . S
H2772 C2748 0.950 . S
H2773 C2749 0.949 . S
H2774 C2751 0.950 . S
H2775 C2753 0.950 . S
C2776 C2777 1.349 . S
C2776 C2778 1.327 . S
C2776 H2801 0.950 . S
C2777 C2776 1.349 . S
C2777 C2793 1.349 . S
C2778 C2776 1.327 . S
C2778 C2797 1.429 . S
C2778 H2802 0.950 . S
C2779 C2796 1.574 . S
C2779 C2798 1.368 . S
C2779 H2803 0.949 . S
H2780 C2784 0.949 . S
C2781 C2782 1.349 . S
C2781 C2783 1.327 . S
C2781 H2804 0.950 . S
C2782 C2781 1.349 . S
C2782 C2794 1.349 . S
C2783 C2781 1.327 . S
C2783 C2799 1.429 . S
C2783 H2805 0.950 . S
C2784 H2780 0.949 . S
C2784 C2792 1.574 . S
C2784 C2800 1.368 . S
H2785 C2793 0.950 . S
H2786 C2791 0.950 . S
H2787 C2792 0.949 . S
H2788 C2794 0.950 . S
H2789 C2795 0.950 . S
H2790 C2796 0.949 . S
C2791 H2786 0.950 . S
C2791 C2793 1.327 . S
C2791 C2797 1.429 . S
C2792 C2784 1.574 . S
C2792 H2787 0.949 . S
C2792 C2798 1.368 . S
C2793 C2777 1.349 . S
C2793 H2785 0.950 . S
C2793 C2791 1.327 . S
C2794 C2782 1.349 . S
C2794 H2788 0.950 . S
C2794 C2795 1.327 . S
C2795 H2789 0.950 . S
C2795 C2794 1.327 . S
C2795 C2799 1.429 . S
C2796 C2779 1.574 . S
C2796 H2790 0.949 . S
C2796 C2800 1.368 . S
C2797 C2778 1.429 . S
C2797 C2791 1.429 . S
C2797 C2798 1.523 . S
C2798 C2779 1.368 . S
C2798 C2792 1.368 . S
C2798 C2797 1.523 . S
C2799 C2783 1.429 . S
C2799 C2795 1.429 . S
C2799 C2800 1.523 . S
C2800 C2784 1.368 . S
C2800 C2796 1.368 . S
C2800 C2799 1.523 . S
H2801 C2776 0.950 . S
H2802 C2778 0.950 . S
H2803 C2779 0.949 . S
H2804 C2781 0.950 . S
H2805 C2783 0.950 . S
C2806 C2807 1.349 . S
C2806 C2808 1.327 . S
C2806 H2831 0.950 . S
C2807 C2806 1.349 . S
C2807 C2823 1.349 . S
C2808 C2806 1.327 . S
C2808 C2827 1.429 . S
C2808 H2832 0.950 . S
C2809 C2826 1.574 . S
C2809 C2828 1.368 . S
C2809 H2833 0.949 . S
H2810 C2814 0.949 . S
C2811 C2812 1.349 . S
C2811 C2813 1.327 . S
C2811 H2834 0.950 . S
C2812 C2811 1.349 . S
C2812 C2824 1.349 . S
C2813 C2811 1.327 . S
C2813 C2829 1.429 . S
C2813 H2835 0.950 . S
C2814 H2810 0.949 . S
C2814 C2822 1.574 . S
C2814 C2830 1.368 . S
H2815 C2823 0.950 . S
H2816 C2821 0.950 . S
H2817 C2822 0.949 . S
H2818 C2824 0.950 . S
H2819 C2825 0.950 . S
H2820 C2826 0.949 . S
C2821 H2816 0.950 . S
C2821 C2823 1.327 . S
C2821 C2827 1.429 . S
C2822 C2814 1.574 . S
C2822 H2817 0.949 . S
C2822 C2828 1.368 . S
C2823 C2807 1.349 . S
C2823 H2815 0.950 . S
C2823 C2821 1.327 . S
C2824 C2812 1.349 . S
C2824 H2818 0.950 . S
C2824 C2825 1.327 . S
C2825 H2819 0.950 . S
C2825 C2824 1.327 . S
C2825 C2829 1.429 . S
C2826 C2809 1.574 . S
C2826 H2820 0.949 . S
C2826 C2830 1.368 . S
C2827 C2808 1.429 . S
C2827 C2821 1.429 . S
C2827 C2828 1.523 . S
C2828 C2809 1.368 . S
C2828 C2822 1.368 . S
C2828 C2827 1.523 . S
C2829 C2813 1.429 . S
C2829 C2825 1.429 . S
C2829 C2830 1.523 . S
C2830 C2814 1.368 . S
C2830 C2826 1.368 . S
C2830 C2829 1.523 . S
H2831 C2806 0.950 . S
H2832 C2808 0.950 . S
H2833 C2809 0.949 . S
H2834 C2811 0.950 . S
H2835 C2813 0.950 . S
C2836 C2837 1.349 . S
C2836 C2838 1.327 . S
C2836 H2861 0.950 . S
C2837 C2836 1.349 . S
C2837 C2853 1.349 . S
C2838 C2836 1.327 . S
C2838 C2857 1.429 . S
C2838 H2862 0.950 . S
C2839 C2856 1.574 . S
C2839 C2858 1.368 . S
C2839 H2863 0.949 . S
H2840 C2844 0.949 . S
C2841 C2842 1.349 . S
C2841 C2843 1.327 . S
C2841 H2864 0.950 . S
C2842 C2841 1.349 . S
C2842 C2854 1.349 . S
C2843 C2841 1.327 . S
C2843 C2859 1.429 . S
C2843 H2865 0.950 . S
C2844 H2840 0.949 . S
C2844 C2852 1.574 . S
C2844 C2860 1.368 . S
H2845 C2853 0.950 . S
H2846 C2851 0.950 . S
H2847 C2852 0.949 . S
H2848 C2854 0.950 . S
H2849 C2855 0.950 . S
H2850 C2856 0.949 . S
C2851 H2846 0.950 . S
C2851 C2853 1.327 . S
C2851 C2857 1.429 . S
C2852 C2844 1.574 . S
C2852 H2847 0.949 . S
C2852 C2858 1.368 . S
C2853 C2837 1.349 . S
C2853 H2845 0.950 . S
C2853 C2851 1.327 . S
C2854 C2842 1.349 . S
C2854 H2848 0.950 . S
C2854 C2855 1.327 . S
C2855 H2849 0.950 . S
C2855 C2854 1.327 . S
C2855 C2859 1.429 . S
C2856 C2839 1.574 . S
C2856 H2850 0.949 . S
C2856 C2860 1.368 . S
C2857 C2838 1.429 . S
C2857 C2851 1.429 . S
C2857 C2858 1.523 . S
C2858 C2839 1.368 . S
C2858 C2852 1.368 . S
C2858 C2857 1.523 . S
C2859 C2843 1.429 . S
C2859 C2855 1.429 . S
C2859 C2860 1.523 . S
C2860 C2844 1.368 . S
C2860 C2856 1.368 . S
C2860 C2859 1.523 . S
H2861 C2836 0.950 . S
H2862 C2838 0.950 . S
H2863 C2839 0.949 . S
H2864 C2841 0.950 . S
H2865 C2843 0.950 . S
C2866 C2867 1.349 . S
C2866 C2868 1.327 . S
C2866 H2891 0.950 . S
C2867 C2866 1.349 . S
C2867 C2883 1.349 . S
C2868 C2866 1.327 . S
C2868 C2887 1.429 . S
C2868 H2892 0.950 . S
C2869 C2886 1.574 . S
C2869 C2888 1.368 . S
C2869 H2893 0.949 . S
H2870 C2874 0.949 . S
C2871 C2872 1.349 . S
C2871 C2873 1.327 . S
C2871 H2894 0.950 . S
C2872 C2871 1.349 . S
C2872 C2884 1.349 . S
C2873 C2871 1.327 . S
C2873 C2889 1.429 . S
C2873 H2895 0.950 . S
C2874 H2870 0.949 . S
C2874 C2882 1.574 . S
C2874 C2890 1.368 . S
H2875 C2883 0.950 . S
H2876 C2881 0.950 . S
H2877 C2882 0.949 . S
H2878 C2884 0.950 . S
H2879 C2885 0.950 . S
H2880 C2886 0.949 . S
C2881 H2876 0.950 . S
C2881 C2883 1.327 . S
C2881 C2887 1.429 . S
C2882 C2874 1.574 . S
C2882 H2877 0.949 . S
C2882 C2888 1.368 . S
C2883 C2867 1.349 . S
C2883 H2875 0.950 . S
C2883 C2881 1.327 . S
C2884 C2872 1.349 . S
C2884 H2878 0.950 . S
C2884 C2885 1.327 . S
C2885 H2879 0.950 . S
C2885 C2884 1.327 . S
C2885 C2889 1.429 . S
C2886 C2869 1.574 . S
C2886 H2880 0.949 . S
C2886 C2890 1.368 . S
C2887 C2868 1.429 . S
C2887 C2881 1.429 . S
C2887 C2888 1.523 . S
C2888 C2869 1.368 . S
C2888 C2882 1.368 . S
C2888 C2887 1.523 . S
C2889 C2873 1.429 . S
C2889 C2885 1.429 . S
C2889 C2890 1.523 . S
C2890 C2874 1.368 . S
C2890 C2886 1.368 . S
C2890 C2889 1.523 . S
H2891 C2866 0.950 . S
H2892 C2868 0.950 . S
H2893 C2869 0.949 . S
H2894 C2871 0.950 . S
H2895 C2873 0.950 . S
C2896 C2897 1.349 . S
C2896 C2898 1.327 . S
C2896 H2921 0.950 . S
C2897 C2896 1.349 . S
C2897 C2913 1.349 . S
C2898 C2896 1.327 . S
C2898 C2917 1.429 . S
C2898 H2922 0.950 . S
C2899 C2916 1.574 . S
C2899 C2918 1.368 . S
C2899 H2923 0.949 . S
H2900 C2904 0.949 . S
C2901 C2902 1.349 . S
C2901 C2903 1.327 . S
C2901 H2924 0.950 . S
C2902 C2901 1.349 . S
C2902 C2914 1.349 . S
C2903 C2901 1.327 . S
C2903 C2919 1.429 . S
C2903 H2925 0.950 . S
C2904 H2900 0.949 . S
C2904 C2912 1.574 . S
C2904 C2920 1.368 . S
H2905 C2913 0.950 . S
H2906 C2911 0.950 . S
H2907 C2912 0.949 . S
H2908 C2914 0.950 . S
H2909 C2915 0.950 . S
H2910 C2916 0.949 . S
C2911 H2906 0.950 . S
C2911 C2913 1.327 . S
C2911 C2917 1.429 . S
C2912 C2904 1.574 . S
C2912 H2907 0.949 . S
C2912 C2918 1.368 . S
C2913 C2897 1.349 . S
C2913 H2905 0.950 . S
C2913 C2911 1.327 . S
C2914 C2902 1.349 . S
C2914 H2908 0.950 . S
C2914 C2915 1.327 . S
C2915 H2909 0.950 . S
C2915 C2914 1.327 . S
C2915 C2919 1.429 . S
C2916 C2899 1.574 . S
C2916 H2910 0.949 . S
C2916 C2920 1.368 . S
C2917 C2898 1.429 . S
C2917 C2911 1.429 . S
C2917 C2918 1.523 . S
C2918 C2899 1.368 . S
C2918 C2912 1.368 . S
C2918 C2917 1.523 . S
C2919 C2903 1.429 . S
C2919 C2915 1.429 . S
C2919 C2920 1.523 . S
C2920 C2904 1.368 . S
C2920 C2916 1.368 . S
C2920 C2919 1.523 . S
H2921 C2896 0.950 . S
H2922 C2898 0.950 . S
H2923 C2899 0.949 . S
H2924 C2901 0.950 . S
H2925 C2903 0.950 . S
C2926 C2927 1.349 . S
C2926 C2928 1.327 . S
C2926 H2951 0.950 . S
C2927 C2926 1.349 . S
C2927 C2943 1.349 . S
C2928 C2926 1.327 . S
C2928 C2947 1.429 . S
C2928 H2952 0.950 . S
C2929 C2946 1.574 . S
C2929 C2948 1.368 . S
C2929 H2953 0.949 . S
H2930 C2934 0.949 . S
C2931 C2932 1.349 . S
C2931 C2933 1.327 . S
C2931 H2954 0.950 . S
C2932 C2931 1.349 . S
C2932 C2944 1.349 . S
C2933 C2931 1.327 . S
C2933 C2949 1.429 . S
C2933 H2955 0.950 . S
C2934 H2930 0.949 . S
C2934 C2942 1.574 . S
C2934 C2950 1.368 . S
H2935 C2943 0.950 . S
H2936 C2941 0.950 . S
H2937 C2942 0.949 . S
H2938 C2944 0.950 . S
H2939 C2945 0.950 . S
H2940 C2946 0.949 . S
C2941 H2936 0.950 . S
C2941 C2943 1.327 . S
C2941 C2947 1.429 . S
C2942 C2934 1.574 . S
C2942 H2937 0.949 . S
C2942 C2948 1.368 . S
C2943 C2927 1.349 . S
C2943 H2935 0.950 . S
C2943 C2941 1.327 . S
C2944 C2932 1.349 . S
C2944 H2938 0.950 . S
C2944 C2945 1.327 . S
C2945 H2939 0.950 . S
C2945 C2944 1.327 . S
C2945 C2949 1.429 . S
C2946 C2929 1.574 . S
C2946 H2940 0.949 . S
C2946 C2950 1.368 . S
C2947 C2928 1.429 . S
C2947 C2941 1.429 . S
C2947 C2948 1.523 . S
C2948 C2929 1.368 . S
C2948 C2942 1.368 . S
C2948 C2947 1.523 . S
C2949 C2933 1.429 . S
C2949 C2945 1.429 . S
C2949 C2950 1.523 . S
C2950 C2934 1.368 . S
C2950 C2946 1.368 . S
C2950 C2949 1.523 . S
H2951 C2926 0.950 . S
H2952 C2928 0.950 . S
H2953 C2929 0.949 . S
H2954 C2931 0.950 . S
H2955 C2933 0.950 . S
C2956 C2957 1.349 . S
C2956 C2958 1.327 . S
C2956 H2981 0.950 . S
C2957 C2956 1.349 . S
C2957 C2973 1.349 . S
C2958 C2956 1.327 . S
C2958 C2977 1.429 . S
C2958 H2982 0.950 . S
C2959 C2976 1.574 . S
C2959 C2978 1.368 . S
C2959 H2983 0.949 . S
H2960 C2964 0.949 . S
C2961 C2962 1.349 . S
C2961 C2963 1.327 . S
C2961 H2984 0.950 . S
C2962 C2961 1.349 . S
C2962 C2974 1.349 . S
C2963 C2961 1.327 . S
C2963 C2979 1.429 . S
C2963 H2985 0.950 . S
C2964 H2960 0.949 . S
C2964 C2972 1.574 . S
C2964 C2980 1.368 . S
H2965 C2973 0.950 . S
H2966 C2971 0.950 . S
H2967 C2972 0.949 . S
H2968 C2974 0.950 . S
H2969 C2975 0.950 . S
H2970 C2976 0.949 . S
C2971 H2966 0.950 . S
C2971 C2973 1.327 . S
C2971 C2977 1.429 . S
C2972 C2964 1.574 . S
C2972 H2967 0.949 . S
C2972 C2978 1.368 . S
C2973 C2957 1.349 . S
C2973 H2965 0.950 . S
C2973 C2971 1.327 . S
C2974 C2962 1.349 . S
C2974 H2968 0.950 . S
C2974 C2975 1.327 . S
C2975 H2969 0.950 . S
C2975 C2974 1.327 . S
C2975 C2979 1.429 . S
C2976 C2959 1.574 . S
C2976 H2970 0.949 . S
C2976 C2980 1.368 . S
C2977 C2958 1.429 . S
C2977 C2971 1.429 . S
C2977 C2978 1.523 . S
C2978 C2959 1.368 . S
C2978 C2972 1.368 . S
C2978 C2977 1.523 . S
C2979 C2963 1.429 . S
C2979 C2975 1.429 . S
C2979 C2980 1.523 . S
C2980 C2964 1.368 . S
C2980 C2976 1.368 . S
C2980 C2979 1.523 . S
H2981 C2956 0.950 . S
H2982 C2958 0.950 . S
H2983 C2959 0.949 . S
H2984 C2961 0.950 . S
H2985 C2963 0.950 . S
C2986 C2987 1.349 . S
C2986 C2988 1.327 . S
C2986 H3011 0.950 . S
C2987 C2986 1.349 . S
C2987 C3003 1.349 1_554 S
C2988 C2986 1.327 . S
C2988 C3007 1.429 . S
C2988 H3012 0.950 . S
C2989 C3006 1.574 . S
C2989 C3008 1.368 1_556 S
C2989 H3013 0.949 . S
H2990 C2994 0.949 . S
C2991 C2992 1.349 1_556 S
C2991 C2993 1.327 . S
C2991 H3014 0.950 . S
C2992 C2991 1.349 1_554 S
C2992 C3004 1.349 . S
C2993 C2991 1.327 . S
C2993 C3009 1.429 1_556 S
C2993 H3015 0.950 . S
C2994 H2990 0.949 . S
C2994 C3002 1.574 . S
C2994 C3010 1.368 . S
H2995 C3003 0.950 . S
H2996 C3001 0.950 . S
H2997 C3002 0.949 . S
H2998 C3004 0.950 . S
H2999 C3005 0.950 . S
H3000 C3006 0.949 . S
C3001 H2996 0.950 . S
C3001 C3003 1.327 . S
C3001 C3007 1.429 1_556 S
C3002 C2994 1.574 . S
C3002 H2997 0.949 . S
C3002 C3008 1.368 . S
C3003 C2987 1.349 1_556 S
C3003 H2995 0.950 . S
C3003 C3001 1.327 . S
C3004 C2992 1.349 . S
C3004 H2998 0.950 . S
C3004 C3005 1.327 . S
C3005 H2999 0.950 . S
C3005 C3004 1.327 . S
C3005 C3009 1.429 . S
C3006 C2989 1.574 . S
C3006 H3000 0.949 . S
C3006 C3010 1.368 1_556 S
C3007 C2988 1.429 . S
C3007 C3001 1.429 1_554 S
C3007 C3008 1.523 . S
C3008 C2989 1.368 1_554 S
C3008 C3002 1.368 . S
C3008 C3007 1.523 . S
C3009 C2993 1.429 1_554 S
C3009 C3005 1.429 . S
C3009 C3010 1.523 . S
C3010 C2994 1.368 . S
C3010 C3006 1.368 1_554 S
C3010 C3009 1.523 . S
H3011 C2986 0.950 . S
H3012 C2988 0.950 . S
H3013 C2989 0.949 . S
H3014 C2991 0.950 . S
H3015 C2993 0.950 . S
C3016 C3017 1.349 . S
C3016 C3018 1.327 . S
C3016 H3041 0.950 . S
C3017 C3016 1.349 . S
C3017 C3033 1.349 . S
C3018 C3016 1.327 . S
C3018 C3037 1.429 . S
C3018 H3042 0.950 . S
C3019 C3036 1.574 . S
C3019 C3038 1.368 . S
C3019 H3043 0.949 . S
H3020 C3024 0.949 . S
C3021 C3022 1.349 . S
C3021 C3023 1.327 . S
C3021 H3044 0.950 . S
C3022 C3021 1.349 . S
C3022 C3034 1.349 . S
C3023 C3021 1.327 . S
C3023 C3039 1.429 . S
C3023 H3045 0.950 . S
C3024 H3020 0.949 . S
C3024 C3032 1.574 . S
C3024 C3040 1.368 . S
H3025 C3033 0.950 . S
H3026 C3031 0.950 . S
H3027 C3032 0.949 . S
H3028 C3034 0.950 . S
H3029 C3035 0.950 . S
H3030 C3036 0.949 . S
C3031 H3026 0.950 . S
C3031 C3033 1.327 . S
C3031 C3037 1.429 . S
C3032 C3024 1.574 . S
C3032 H3027 0.949 . S
C3032 C3038 1.368 . S
C3033 C3017 1.349 . S
C3033 H3025 0.950 . S
C3033 C3031 1.327 . S
C3034 C3022 1.349 . S
C3034 H3028 0.950 . S
C3034 C3035 1.327 . S
C3035 H3029 0.950 . S
C3035 C3034 1.327 . S
C3035 C3039 1.429 . S
C3036 C3019 1.574 . S
C3036 H3030 0.949 . S
C3036 C3040 1.368 . S
C3037 C3018 1.429 . S
C3037 C3031 1.429 . S
C3037 C3038 1.523 . S
C3038 C3019 1.368 . S
C3038 C3032 1.368 . S
C3038 C3037 1.523 . S
C3039 C3023 1.429 . S
C3039 C3035 1.429 . S
C3039 C3040 1.523 . S
C3040 C3024 1.368 . S
C3040 C3036 1.368 . S
C3040 C3039 1.523 . S
H3041 C3016 0.950 . S
H3042 C3018 0.950 . S
H3043 C3019 0.949 . S
H3044 C3021 0.950 . S
H3045 C3023 0.950 . S
C3046 C3047 1.349 . S
C3046 C3048 1.327 . S
C3046 H3071 0.950 . S
C3047 C3046 1.349 . S
C3047 C3063 1.349 . S
C3048 C3046 1.327 . S
C3048 C3067 1.429 . S
C3048 H3072 0.950 . S
C3049 C3066 1.574 . S
C3049 C3068 1.368 . S
C3049 H3073 0.949 . S
H3050 C3054 0.949 . S
C3051 C3052 1.349 . S
C3051 C3053 1.327 . S
C3051 H3074 0.950 . S
C3052 C3051 1.349 . S
C3052 C3064 1.349 . S
C3053 C3051 1.327 . S
C3053 C3069 1.429 . S
C3053 H3075 0.950 . S
C3054 H3050 0.949 . S
C3054 C3062 1.574 . S
C3054 C3070 1.368 . S
H3055 C3063 0.950 . S
H3056 C3061 0.950 . S
H3057 C3062 0.949 . S
H3058 C3064 0.950 . S
H3059 C3065 0.950 . S
H3060 C3066 0.949 . S
C3061 H3056 0.950 . S
C3061 C3063 1.327 . S
C3061 C3067 1.429 . S
C3062 C3054 1.574 . S
C3062 H3057 0.949 . S
C3062 C3068 1.368 . S
C3063 C3047 1.349 . S
C3063 H3055 0.950 . S
C3063 C3061 1.327 . S
C3064 C3052 1.349 . S
C3064 H3058 0.950 . S
C3064 C3065 1.327 . S
C3065 H3059 0.950 . S
C3065 C3064 1.327 . S
C3065 C3069 1.429 . S
C3066 C3049 1.574 . S
C3066 H3060 0.949 . S
C3066 C3070 1.368 . S
C3067 C3048 1.429 . S
C3067 C3061 1.429 . S
C3067 C3068 1.523 . S
C3068 C3049 1.368 . S
C3068 C3062 1.368 . S
C3068 C3067 1.523 . S
C3069 C3053 1.429 . S
C3069 C3065 1.429 . S
C3069 C3070 1.523 . S
C3070 C3054 1.368 . S
C3070 C3066 1.368 . S
C3070 C3069 1.523 . S
H3071 C3046 0.950 . S
H3072 C3048 0.950 . S
H3073 C3049 0.949 . S
H3074 C3051 0.950 . S
H3075 C3053 0.950 . S
C3076 C3077 1.349 . S
C3076 C3078 1.327 . S
C3076 H3101 0.950 . S
C3077 C3076 1.349 . S
C3077 C3093 1.349 . S
C3078 C3076 1.327 . S
C3078 C3097 1.429 . S
C3078 H3102 0.950 . S
C3079 C3096 1.574 . S
C3079 C3098 1.368 . S
C3079 H3103 0.949 . S
H3080 C3084 0.949 . S
C3081 C3082 1.349 . S
C3081 C3083 1.327 . S
C3081 H3104 0.950 . S
C3082 C3081 1.349 . S
C3082 C3094 1.349 . S
C3083 C3081 1.327 . S
C3083 C3099 1.429 . S
C3083 H3105 0.950 . S
C3084 H3080 0.949 . S
C3084 C3092 1.574 . S
C3084 C3100 1.368 . S
H3085 C3093 0.950 . S
H3086 C3091 0.950 . S
H3087 C3092 0.949 . S
H3088 C3094 0.950 . S
H3089 C3095 0.950 . S
H3090 C3096 0.949 . S
C3091 H3086 0.950 . S
C3091 C3093 1.327 . S
C3091 C3097 1.429 . S
C3092 C3084 1.574 . S
C3092 H3087 0.949 . S
C3092 C3098 1.368 . S
C3093 C3077 1.349 . S
C3093 H3085 0.950 . S
C3093 C3091 1.327 . S
C3094 C3082 1.349 . S
C3094 H3088 0.950 . S
C3094 C3095 1.327 . S
C3095 H3089 0.950 . S
C3095 C3094 1.327 . S
C3095 C3099 1.429 . S
C3096 C3079 1.574 . S
C3096 H3090 0.949 . S
C3096 C3100 1.368 . S
C3097 C3078 1.429 . S
C3097 C3091 1.429 . S
C3097 C3098 1.523 . S
C3098 C3079 1.368 . S
C3098 C3092 1.368 . S
C3098 C3097 1.523 . S
C3099 C3083 1.429 . S
C3099 C3095 1.429 . S
C3099 C3100 1.523 . S
C3100 C3084 1.368 . S
C3100 C3096 1.368 . S
C3100 C3099 1.523 . S
H3101 C3076 0.950 . S
H3102 C3078 0.950 . S
H3103 C3079 0.949 . S
H3104 C3081 0.950 . S
H3105 C3083 0.950 . S
C3106 C3107 1.349 . S
C3106 C3108 1.327 . S
C3106 H3131 0.950 . S
C3107 C3106 1.349 . S
C3107 C3123 1.349 . S
C3108 C3106 1.327 . S
C3108 C3127 1.429 . S
C3108 H3132 0.950 . S
C3109 C3126 1.574 . S
C3109 C3128 1.368 . S
C3109 H3133 0.949 . S
H3110 C3114 0.949 . S
C3111 C3112 1.349 . S
C3111 C3113 1.327 . S
C3111 H3134 0.950 . S
C3112 C3111 1.349 . S
C3112 C3124 1.349 . S
C3113 C3111 1.327 . S
C3113 C3129 1.429 . S
C3113 H3135 0.950 . S
C3114 H3110 0.949 . S
C3114 C3122 1.574 . S
C3114 C3130 1.368 . S
H3115 C3123 0.950 . S
H3116 C3121 0.950 . S
H3117 C3122 0.949 . S
H3118 C3124 0.950 . S
H3119 C3125 0.950 . S
H3120 C3126 0.949 . S
C3121 H3116 0.950 . S
C3121 C3123 1.327 . S
C3121 C3127 1.429 . S
C3122 C3114 1.574 . S
C3122 H3117 0.949 . S
C3122 C3128 1.368 . S
C3123 C3107 1.349 . S
C3123 H3115 0.950 . S
C3123 C3121 1.327 . S
C3124 C3112 1.349 . S
C3124 H3118 0.950 . S
C3124 C3125 1.327 . S
C3125 H3119 0.950 . S
C3125 C3124 1.327 . S
C3125 C3129 1.429 . S
C3126 C3109 1.574 . S
C3126 H3120 0.949 . S
C3126 C3130 1.368 . S
C3127 C3108 1.429 . S
C3127 C3121 1.429 . S
C3127 C3128 1.523 . S
C3128 C3109 1.368 . S
C3128 C3122 1.368 . S
C3128 C3127 1.523 . S
C3129 C3113 1.429 . S
C3129 C3125 1.429 . S
C3129 C3130 1.523 . S
C3130 C3114 1.368 . S
C3130 C3126 1.368 . S
C3130 C3129 1.523 . S
H3131 C3106 0.950 . S
H3132 C3108 0.950 . S
H3133 C3109 0.949 . S
H3134 C3111 0.950 . S
H3135 C3113 0.950 . S
C3136 C3137 1.349 . S
C3136 C3138 1.327 . S
C3136 H3161 0.950 . S
C3137 C3136 1.349 . S
C3137 C3153 1.349 . S
C3138 C3136 1.327 . S
C3138 C3157 1.429 . S
C3138 H3162 0.950 . S
C3139 C3156 1.574 . S
C3139 C3158 1.368 . S
C3139 H3163 0.949 . S
H3140 C3144 0.949 . S
C3141 C3142 1.349 . S
C3141 C3143 1.327 . S
C3141 H3164 0.950 . S
C3142 C3141 1.349 . S
C3142 C3154 1.349 . S
C3143 C3141 1.327 . S
C3143 C3159 1.429 . S
C3143 H3165 0.950 . S
C3144 H3140 0.949 . S
C3144 C3152 1.574 . S
C3144 C3160 1.368 . S
H3145 C3153 0.950 . S
H3146 C3151 0.950 . S
H3147 C3152 0.949 . S
H3148 C3154 0.950 . S
H3149 C3155 0.950 . S
H3150 C3156 0.949 . S
C3151 H3146 0.950 . S
C3151 C3153 1.327 . S
C3151 C3157 1.429 . S
C3152 C3144 1.574 . S
C3152 H3147 0.949 . S
C3152 C3158 1.368 . S
C3153 C3137 1.349 . S
C3153 H3145 0.950 . S
C3153 C3151 1.327 . S
C3154 C3142 1.349 . S
C3154 H3148 0.950 . S
C3154 C3155 1.327 . S
C3155 H3149 0.950 . S
C3155 C3154 1.327 . S
C3155 C3159 1.429 . S
C3156 C3139 1.574 . S
C3156 H3150 0.949 . S
C3156 C3160 1.368 . S
C3157 C3138 1.429 . S
C3157 C3151 1.429 . S
C3157 C3158 1.523 . S
C3158 C3139 1.368 . S
C3158 C3152 1.368 . S
C3158 C3157 1.523 . S
C3159 C3143 1.429 . S
C3159 C3155 1.429 . S
C3159 C3160 1.523 . S
C3160 C3144 1.368 . S
C3160 C3156 1.368 . S
C3160 C3159 1.523 . S
H3161 C3136 0.950 . S
H3162 C3138 0.950 . S
H3163 C3139 0.949 . S
H3164 C3141 0.950 . S
H3165 C3143 0.950 . S
C3166 C3167 1.349 . S
C3166 C3168 1.327 . S
C3166 H3191 0.950 . S
C3167 C3166 1.349 . S
C3167 C3183 1.349 . S
C3168 C3166 1.327 . S
C3168 C3187 1.429 . S
C3168 H3192 0.950 . S
C3169 C3186 1.574 . S
C3169 C3188 1.368 . S
C3169 H3193 0.949 . S
H3170 C3174 0.949 . S
C3171 C3172 1.349 . S
C3171 C3173 1.327 . S
C3171 H3194 0.950 . S
C3172 C3171 1.349 . S
C3172 C3184 1.349 . S
C3173 C3171 1.327 . S
C3173 C3189 1.429 . S
C3173 H3195 0.950 . S
C3174 H3170 0.949 . S
C3174 C3182 1.574 . S
C3174 C3190 1.368 . S
H3175 C3183 0.950 . S
H3176 C3181 0.950 . S
H3177 C3182 0.949 . S
H3178 C3184 0.950 . S
H3179 C3185 0.950 . S
H3180 C3186 0.949 . S
C3181 H3176 0.950 . S
C3181 C3183 1.327 . S
C3181 C3187 1.429 . S
C3182 C3174 1.574 . S
C3182 H3177 0.949 . S
C3182 C3188 1.368 . S
C3183 C3167 1.349 . S
C3183 H3175 0.950 . S
C3183 C3181 1.327 . S
C3184 C3172 1.349 . S
C3184 H3178 0.950 . S
C3184 C3185 1.327 . S
C3185 H3179 0.950 . S
C3185 C3184 1.327 . S
C3185 C3189 1.429 . S
C3186 C3169 1.574 . S
C3186 H3180 0.949 . S
C3186 C3190 1.368 . S
C3187 C3168 1.429 . S
C3187 C3181 1.429 . S
C3187 C3188 1.523 . S
C3188 C3169 1.368 . S
C3188 C3182 1.368 . S
C3188 C3187 1.523 . S
C3189 C3173 1.429 . S
C3189 C3185 1.429 . S
C3189 C3190 1.523 . S
C3190 C3174 1.368 . S
C3190 C3186 1.368 . S
C3190 C3189 1.523 . S
H3191 C3166 0.950 . S
H3192 C3168 0.950 . S
H3193 C3169 0.949 . S
H3194 C3171 0.950 . S
H3195 C3173 0.950 . S
C3196 C3197 1.349 . S
C3196 C3198 1.327 . S
C3196 H3221 0.950 . S
C3197 C3196 1.349 . S
C3197 C3213 1.349 . S
C3198 C3196 1.327 . S
C3198 C3217 1.429 . S
C3198 H3222 0.950 . S
C3199 C3216 1.574 . S
C3199 C3218 1.368 . S
C3199 H3223 0.949 . S
H3200 C3204 0.949 . S
C3201 C3202 1.349 . S
C3201 C3203 1.327 . S
C3201 H3224 0.950 . S
C3202 C3201 1.349 . S
C3202 C3214 1.349 . S
C3203 C3201 1.327 . S
C3203 C3219 1.429 . S
C3203 H3225 0.950 . S
C3204 H3200 0.949 . S
C3204 C3212 1.574 . S
C3204 C3220 1.368 . S
H3205 C3213 0.950 . S
H3206 C3211 0.950 . S
H3207 C3212 0.949 . S
H3208 C3214 0.950 . S
H3209 C3215 0.950 . S
H3210 C3216 0.949 . S
C3211 H3206 0.950 . S
C3211 C3213 1.327 . S
C3211 C3217 1.429 . S
C3212 C3204 1.574 . S
C3212 H3207 0.949 . S
C3212 C3218 1.368 . S
C3213 C3197 1.349 . S
C3213 H3205 0.950 . S
C3213 C3211 1.327 . S
C3214 C3202 1.349 . S
C3214 H3208 0.950 . S
C3214 C3215 1.327 . S
C3215 H3209 0.950 . S
C3215 C3214 1.327 . S
C3215 C3219 1.429 . S
C3216 C3199 1.574 . S
C3216 H3210 0.949 . S
C3216 C3220 1.368 . S
C3217 C3198 1.429 . S
C3217 C3211 1.429 . S
C3217 C3218 1.523 . S
C3218 C3199 1.368 . S
C3218 C3212 1.368 . S
C3218 C3217 1.523 . S
C3219 C3203 1.429 . S
C3219 C3215 1.429 . S
C3219 C3220 1.523 . S
C3220 C3204 1.368 . S
C3220 C3216 1.368 . S
C3220 C3219 1.523 . S
H3221 C3196 0.950 . S
H3222 C3198 0.950 . S
H3223 C3199 0.949 . S
H3224 C3201 0.950 . S
H3225 C3203 0.950 . S
C3226 C3227 1.349 . S
C3226 C3228 1.327 . S
C3226 H3251 0.950 . S
C3227 C3226 1.349 . S
C3227 C3243 1.349 . S
C3228 C3226 1.327 . S
C3228 C3247 1.429 . S
C3228 H3252 0.950 . S
C3229 C3246 1.574 . S
C3229 C3248 1.368 . S
C3229 H3253 0.949 . S
H3230 C3234 0.949 . S
C3231 C3232 1.349 . S
C3231 C3233 1.327 . S
C3231 H3254 0.950 . S
C3232 C3231 1.349 . S
C3232 C3244 1.349 . S
C3233 C3231 1.327 . S
C3233 C3249 1.429 . S
C3233 H3255 0.950 . S
C3234 H3230 0.949 . S
C3234 C3242 1.574 . S
C3234 C3250 1.368 . S
H3235 C3243 0.950 . S
H3236 C3241 0.950 . S
H3237 C3242 0.949 . S
H3238 C3244 0.950 . S
H3239 C3245 0.950 . S
H3240 C3246 0.949 . S
C3241 H3236 0.950 . S
C3241 C3243 1.327 . S
C3241 C3247 1.429 . S
C3242 C3234 1.574 . S
C3242 H3237 0.949 . S
C3242 C3248 1.368 . S
C3243 C3227 1.349 . S
C3243 H3235 0.950 . S
C3243 C3241 1.327 . S
C3244 C3232 1.349 . S
C3244 H3238 0.950 . S
C3244 C3245 1.327 . S
C3245 H3239 0.950 . S
C3245 C3244 1.327 . S
C3245 C3249 1.429 . S
C3246 C3229 1.574 . S
C3246 H3240 0.949 . S
C3246 C3250 1.368 . S
C3247 C3228 1.429 . S
C3247 C3241 1.429 . S
C3247 C3248 1.523 . S
C3248 C3229 1.368 . S
C3248 C3242 1.368 . S
C3248 C3247 1.523 . S
C3249 C3233 1.429 . S
C3249 C3245 1.429 . S
C3249 C3250 1.523 . S
C3250 C3234 1.368 . S
C3250 C3246 1.368 . S
C3250 C3249 1.523 . S
H3251 C3226 0.950 . S
H3252 C3228 0.950 . S
H3253 C3229 0.949 . S
H3254 C3231 0.950 . S
H3255 C3233 0.950 . S
C3256 C3257 1.349 . S
C3256 C3258 1.327 . S
C3256 H3281 0.950 . S
C3257 C3256 1.349 . S
C3257 C3273 1.349 . S
C3258 C3256 1.327 . S
C3258 C3277 1.429 . S
C3258 H3282 0.950 . S
C3259 C3276 1.574 . S
C3259 C3278 1.368 . S
C3259 H3283 0.949 . S
H3260 C3264 0.949 . S
C3261 C3262 1.349 . S
C3261 C3263 1.327 . S
C3261 H3284 0.950 . S
C3262 C3261 1.349 . S
C3262 C3274 1.349 . S
C3263 C3261 1.327 . S
C3263 C3279 1.429 . S
C3263 H3285 0.950 . S
C3264 H3260 0.949 . S
C3264 C3272 1.574 . S
C3264 C3280 1.368 . S
H3265 C3273 0.950 . S
H3266 C3271 0.950 . S
H3267 C3272 0.949 . S
H3268 C3274 0.950 . S
H3269 C3275 0.950 . S
H3270 C3276 0.949 . S
C3271 H3266 0.950 . S
C3271 C3273 1.327 . S
C3271 C3277 1.429 . S
C3272 C3264 1.574 . S
C3272 H3267 0.949 . S
C3272 C3278 1.368 . S
C3273 C3257 1.349 . S
C3273 H3265 0.950 . S
C3273 C3271 1.327 . S
C3274 C3262 1.349 . S
C3274 H3268 0.950 . S
C3274 C3275 1.327 . S
C3275 H3269 0.950 . S
C3275 C3274 1.327 . S
C3275 C3279 1.429 . S
C3276 C3259 1.574 . S
C3276 H3270 0.949 . S
C3276 C3280 1.368 . S
C3277 C3258 1.429 . S
C3277 C3271 1.429 . S
C3277 C3278 1.523 . S
C3278 C3259 1.368 . S
C3278 C3272 1.368 . S
C3278 C3277 1.523 . S
C3279 C3263 1.429 . S
C3279 C3275 1.429 . S
C3279 C3280 1.523 . S
C3280 C3264 1.368 . S
C3280 C3276 1.368 . S
C3280 C3279 1.523 . S
H3281 C3256 0.950 . S
H3282 C3258 0.950 . S
H3283 C3259 0.949 . S
H3284 C3261 0.950 . S
H3285 C3263 0.950 . S
C3286 C3287 1.349 . S
C3286 C3288 1.327 . S
C3286 H3311 0.950 . S
C3287 C3286 1.349 . S
C3287 C3303 1.349 . S
C3288 C3286 1.327 . S
C3288 C3307 1.429 . S
C3288 H3312 0.950 . S
C3289 C3306 1.574 . S
C3289 C3308 1.368 . S
C3289 H3313 0.949 . S
H3290 C3294 0.949 . S
C3291 C3292 1.349 . S
C3291 C3293 1.327 . S
C3291 H3314 0.950 . S
C3292 C3291 1.349 . S
C3292 C3304 1.349 . S
C3293 C3291 1.327 . S
C3293 C3309 1.429 . S
C3293 H3315 0.950 . S
C3294 H3290 0.949 . S
C3294 C3302 1.574 . S
C3294 C3310 1.368 . S
H3295 C3303 0.950 . S
H3296 C3301 0.950 . S
H3297 C3302 0.949 . S
H3298 C3304 0.950 . S
H3299 C3305 0.950 . S
H3300 C3306 0.949 . S
C3301 H3296 0.950 . S
C3301 C3303 1.327 . S
C3301 C3307 1.429 . S
C3302 C3294 1.574 . S
C3302 H3297 0.949 . S
C3302 C3308 1.368 . S
C3303 C3287 1.349 . S
C3303 H3295 0.950 . S
C3303 C3301 1.327 . S
C3304 C3292 1.349 . S
C3304 H3298 0.950 . S
C3304 C3305 1.327 . S
C3305 H3299 0.950 . S
C3305 C3304 1.327 . S
C3305 C3309 1.429 . S
C3306 C3289 1.574 . S
C3306 H3300 0.949 . S
C3306 C3310 1.368 . S
C3307 C3288 1.429 . S
C3307 C3301 1.429 . S
C3307 C3308 1.523 . S
C3308 C3289 1.368 . S
C3308 C3302 1.368 . S
C3308 C3307 1.523 . S
C3309 C3293 1.429 . S
C3309 C3305 1.429 . S
C3309 C3310 1.523 . S
C3310 C3294 1.368 . S
C3310 C3306 1.368 . S
C3310 C3309 1.523 . S
H3311 C3286 0.950 . S
H3312 C3288 0.950 . S
H3313 C3289 0.949 . S
H3314 C3291 0.950 . S
H3315 C3293 0.950 . S
C3316 C3317 1.349 1_655 S
C3316 C3318 1.327 1_655 S
C3316 H3341 0.950 . S
C3317 C3316 1.349 1_455 S
C3317 C3333 1.349 . S
C3318 C3316 1.327 1_455 S
C3318 C3337 1.429 . S
C3318 H3342 0.949 1_455 S
C3319 C3336 1.574 . S
C3319 C3338 1.368 . S
C3319 H3343 0.949 . S
H3320 C3324 0.923 1_655 S
C3321 C3322 1.349 . S
C3321 C3323 1.327 . S
C3321 H3344 0.950 . S
C3322 C3321 1.349 . S
C3322 C3334 1.349 . S
C3323 C3321 1.327 . S
C3323 C3339 1.429 . S
C3323 H3345 0.950 . S
C3324 H3320 0.923 1_455 S
C3324 C3332 1.574 . S
C3324 C3340 1.368 . S
H3325 C3333 0.950 . S
H3326 C3331 0.950 . S
H3327 C3332 0.949 1_655 S
H3328 C3334 0.950 . S
H3329 C3335 0.950 . S
H3330 C3336 0.949 . S
C3331 H3326 0.950 . S
C3331 C3333 1.327 . S
C3331 C3337 1.429 . S
C3332 C3324 1.574 . S
C3332 H3327 0.949 1_455 S
C3332 C3338 1.368 . S
C3333 C3317 1.349 . S
C3333 H3325 0.950 . S
C3333 C3331 1.327 . S
C3334 C3322 1.349 . S
C3334 H3328 0.950 . S
C3334 C3335 1.327 . S
C3335 H3329 0.950 . S
C3335 C3334 1.327 . S
C3335 C3339 1.429 . S
C3336 C3319 1.574 . S
C3336 H3330 0.949 . S
C3336 C3340 1.368 . S
C3337 C3318 1.429 . S
C3337 C3331 1.429 . S
C3337 C3338 1.523 . S
C3338 C3319 1.368 . S
C3338 C3332 1.368 . S
C3338 C3337 1.523 . S
C3339 C3323 1.429 . S
C3339 C3335 1.429 . S
C3339 C3340 1.523 . S
C3340 C3324 1.368 . S
C3340 C3336 1.368 . S
C3340 C3339 1.523 . S
H3341 C3316 0.950 . S
H3342 C3318 0.949 1_655 S
H3343 C3319 0.949 . S
H3344 C3321 0.950 . S
H3345 C3323 0.950 . S
C3346 C3347 1.349 . S
C3346 C3348 1.327 . S
C3346 H3371 0.950 . S
C3347 C3346 1.349 . S
C3347 C3363 1.349 . S
C3348 C3346 1.327 . S
C3348 C3367 1.429 . S
C3348 H3372 0.950 . S
C3349 C3366 1.574 . S
C3349 C3368 1.368 . S
C3349 H3373 0.949 . S
H3350 C3354 0.949 . S
C3351 C3352 1.349 . S
C3351 C3353 1.327 . S
C3351 H3374 0.950 . S
C3352 C3351 1.349 . S
C3352 C3364 1.349 . S
C3353 C3351 1.327 . S
C3353 C3369 1.429 . S
C3353 H3375 0.950 . S
C3354 H3350 0.949 . S
C3354 C3362 1.574 . S
C3354 C3370 1.368 . S
H3355 C3363 0.950 . S
H3356 C3361 0.950 . S
H3357 C3362 0.949 . S
H3358 C3364 0.950 . S
H3359 C3365 0.950 . S
H3360 C3366 0.949 . S
C3361 H3356 0.950 . S
C3361 C3363 1.327 . S
C3361 C3367 1.429 . S
C3362 C3354 1.574 . S
C3362 H3357 0.949 . S
C3362 C3368 1.368 . S
C3363 C3347 1.349 . S
C3363 H3355 0.950 . S
C3363 C3361 1.327 . S
C3364 C3352 1.349 . S
C3364 H3358 0.950 . S
C3364 C3365 1.327 . S
C3365 H3359 0.950 . S
C3365 C3364 1.327 . S
C3365 C3369 1.429 . S
C3366 C3349 1.574 . S
C3366 H3360 0.949 . S
C3366 C3370 1.368 . S
C3367 C3348 1.429 . S
C3367 C3361 1.429 . S
C3367 C3368 1.523 . S
C3368 C3349 1.368 . S
C3368 C3362 1.368 . S
C3368 C3367 1.523 . S
C3369 C3353 1.429 . S
C3369 C3365 1.429 . S
C3369 C3370 1.523 . S
C3370 C3354 1.368 . S
C3370 C3366 1.368 . S
C3370 C3369 1.523 . S
H3371 C3346 0.950 . S
H3372 C3348 0.950 . S
H3373 C3349 0.949 . S
H3374 C3351 0.950 . S
H3375 C3353 0.950 . S
C3376 C3377 1.349 . S
C3376 C3378 1.327 . S
C3376 H3401 0.950 . S
C3377 C3376 1.349 . S
C3377 C3393 1.349 . S
C3378 C3376 1.327 . S
C3378 C3397 1.429 . S
C3378 H3402 0.950 . S
C3379 C3396 1.574 . S
C3379 C3398 1.368 . S
C3379 H3403 0.949 . S
H3380 C3384 0.949 . S
C3381 C3382 1.349 . S
C3381 C3383 1.327 . S
C3381 H3404 0.950 . S
C3382 C3381 1.349 . S
C3382 C3394 1.349 . S
C3383 C3381 1.327 . S
C3383 C3399 1.429 . S
C3383 H3405 0.950 . S
C3384 H3380 0.949 . S
C3384 C3392 1.574 . S
C3384 C3400 1.368 . S
H3385 C3393 0.950 . S
H3386 C3391 0.950 . S
H3387 C3392 0.949 . S
H3388 C3394 0.950 . S
H3389 C3395 0.950 . S
H3390 C3396 0.949 . S
C3391 H3386 0.950 . S
C3391 C3393 1.327 . S
C3391 C3397 1.429 . S
C3392 C3384 1.574 . S
C3392 H3387 0.949 . S
C3392 C3398 1.368 . S
C3393 C3377 1.349 . S
C3393 H3385 0.950 . S
C3393 C3391 1.327 . S
C3394 C3382 1.349 . S
C3394 H3388 0.950 . S
C3394 C3395 1.327 . S
C3395 H3389 0.950 . S
C3395 C3394 1.327 . S
C3395 C3399 1.429 . S
C3396 C3379 1.574 . S
C3396 H3390 0.949 . S
C3396 C3400 1.368 . S
C3397 C3378 1.429 . S
C3397 C3391 1.429 . S
C3397 C3398 1.523 . S
C3398 C3379 1.368 . S
C3398 C3392 1.368 . S
C3398 C3397 1.523 . S
C3399 C3383 1.429 . S
C3399 C3395 1.429 . S
C3399 C3400 1.523 . S
C3400 C3384 1.368 . S
C3400 C3396 1.368 . S
C3400 C3399 1.523 . S
H3401 C3376 0.950 . S
H3402 C3378 0.950 . S
H3403 C3379 0.949 . S
H3404 C3381 0.950 . S
H3405 C3383 0.950 . S
C3406 C3407 1.349 . S
C3406 C3408 1.327 . S
C3406 H3431 0.950 . S
C3407 C3406 1.349 . S
C3407 C3423 1.349 . S
C3408 C3406 1.327 . S
C3408 C3427 1.429 . S
C3408 H3432 0.950 . S
C3409 C3426 1.574 . S
C3409 C3428 1.368 . S
C3409 H3433 0.949 . S
H3410 C3414 0.949 . S
C3411 C3412 1.349 . S
C3411 C3413 1.327 . S
C3411 H3434 0.950 . S
C3412 C3411 1.349 . S
C3412 C3424 1.349 . S
C3413 C3411 1.327 . S
C3413 C3429 1.429 . S
C3413 H3435 0.950 . S
C3414 H3410 0.949 . S
C3414 C3422 1.574 . S
C3414 C3430 1.368 . S
H3415 C3423 0.950 . S
H3416 C3421 0.950 . S
H3417 C3422 0.949 . S
H3418 C3424 0.950 . S
H3419 C3425 0.950 . S
H3420 C3426 0.949 . S
C3421 H3416 0.950 . S
C3421 C3423 1.327 . S
C3421 C3427 1.429 . S
C3422 C3414 1.574 . S
C3422 H3417 0.949 . S
C3422 C3428 1.368 . S
C3423 C3407 1.349 . S
C3423 H3415 0.950 . S
C3423 C3421 1.327 . S
C3424 C3412 1.349 . S
C3424 H3418 0.950 . S
C3424 C3425 1.327 . S
C3425 H3419 0.950 . S
C3425 C3424 1.327 . S
C3425 C3429 1.429 . S
C3426 C3409 1.574 . S
C3426 H3420 0.949 . S
C3426 C3430 1.368 . S
C3427 C3408 1.429 . S
C3427 C3421 1.429 . S
C3427 C3428 1.523 . S
C3428 C3409 1.368 . S
C3428 C3422 1.368 . S
C3428 C3427 1.523 . S
C3429 C3413 1.429 . S
C3429 C3425 1.429 . S
C3429 C3430 1.523 . S
C3430 C3414 1.368 . S
C3430 C3426 1.368 . S
C3430 C3429 1.523 . S
H3431 C3406 0.950 . S
H3432 C3408 0.950 . S
H3433 C3409 0.949 . S
H3434 C3411 0.950 . S
H3435 C3413 0.950 . S
C3436 C3437 1.349 . S
C3436 C3438 1.327 . S
C3436 H3461 0.950 . S
C3437 C3436 1.349 . S
C3437 C3453 1.349 . S
C3438 C3436 1.327 . S
C3438 C3457 1.429 . S
C3438 H3462 0.950 . S
C3439 C3456 1.574 . S
C3439 C3458 1.368 . S
C3439 H3463 0.949 . S
H3440 C3444 0.949 . S
C3441 C3442 1.349 . S
C3441 C3443 1.327 . S
C3441 H3464 0.950 . S
C3442 C3441 1.349 . S
C3442 C3454 1.349 1_455 S
C3443 C3441 1.327 . S
C3443 C3459 1.429 1_455 S
C3443 H3465 0.950 . S
C3444 H3440 0.949 . S
C3444 C3452 1.574 . S
C3444 C3460 1.368 . S
H3445 C3453 0.950 . S
H3446 C3451 0.950 . S
H3447 C3452 0.949 . S
H3448 C3454 0.950 . S
H3449 C3455 0.950 . S
H3450 C3456 0.949 . S
C3451 H3446 0.950 . S
C3451 C3453 1.327 . S
C3451 C3457 1.429 . S
C3452 C3444 1.574 . S
C3452 H3447 0.949 . S
C3452 C3458 1.368 . S
C3453 C3437 1.349 . S
C3453 H3445 0.950 . S
C3453 C3451 1.327 . S
C3454 C3442 1.349 1_655 S
C3454 H3448 0.950 . S
C3454 C3455 1.327 . S
C3455 H3449 0.950 . S
C3455 C3454 1.327 . S
C3455 C3459 1.429 . S
C3456 C3439 1.574 . S
C3456 H3450 0.949 . S
C3456 C3460 1.368 . S
C3457 C3438 1.429 . S
C3457 C3451 1.429 . S
C3457 C3458 1.523 . S
C3458 C3439 1.368 . S
C3458 C3452 1.368 . S
C3458 C3457 1.523 . S
C3459 C3443 1.429 1_655 S
C3459 C3455 1.429 . S
C3459 C3460 1.523 . S
C3460 C3444 1.368 . S
C3460 C3456 1.368 . S
C3460 C3459 1.523 . S
H3461 C3436 0.950 . S
H3462 C3438 0.950 . S
H3463 C3439 0.949 . S
H3464 C3441 0.950 . S
H3465 C3443 0.950 . S
C3466 C3467 1.349 . S
C3466 C3468 1.327 . S
C3466 H3491 0.950 . S
C3467 C3466 1.349 . S
C3467 C3483 1.349 . S
C3468 C3466 1.327 . S
C3468 C3487 1.429 . S
C3468 H3492 0.950 . S
C3469 C3486 1.574 . S
C3469 C3488 1.368 . S
C3469 H3493 0.949 . S
H3470 C3474 0.949 . S
C3471 C3472 1.349 . S
C3471 C3473 1.327 . S
C3471 H3494 0.950 . S
C3472 C3471 1.349 . S
C3472 C3484 1.349 . S
C3473 C3471 1.327 . S
C3473 C3489 1.429 . S
C3473 H3495 0.950 . S
C3474 H3470 0.949 . S
C3474 C3482 1.574 . S
C3474 C3490 1.368 . S
H3475 C3483 0.950 . S
H3476 C3481 0.950 . S
H3477 C3482 0.949 . S
H3478 C3484 0.950 . S
H3479 C3485 0.950 . S
H3480 C3486 0.949 . S
C3481 H3476 0.950 . S
C3481 C3483 1.327 . S
C3481 C3487 1.429 . S
C3482 C3474 1.574 . S
C3482 H3477 0.949 . S
C3482 C3488 1.368 . S
C3483 C3467 1.349 . S
C3483 H3475 0.950 . S
C3483 C3481 1.327 . S
C3484 C3472 1.349 . S
C3484 H3478 0.950 . S
C3484 C3485 1.327 . S
C3485 H3479 0.950 . S
C3485 C3484 1.327 . S
C3485 C3489 1.429 . S
C3486 C3469 1.574 . S
C3486 H3480 0.949 . S
C3486 C3490 1.368 . S
C3487 C3468 1.429 . S
C3487 C3481 1.429 . S
C3487 C3488 1.523 . S
C3488 C3469 1.368 . S
C3488 C3482 1.368 . S
C3488 C3487 1.523 . S
C3489 C3473 1.429 . S
C3489 C3485 1.429 . S
C3489 C3490 1.523 . S
C3490 C3474 1.368 . S
C3490 C3486 1.368 . S
C3490 C3489 1.523 . S
H3491 C3466 0.950 . S
H3492 C3468 0.950 . S
H3493 C3469 0.949 . S
H3494 C3471 0.950 . S
H3495 C3473 0.950 . S
C3496 C3497 1.349 . S
C3496 C3498 1.327 . S
C3496 H3521 0.950 . S
C3497 C3496 1.349 . S
C3497 C3513 1.349 . S
C3498 C3496 1.327 . S
C3498 C3517 1.429 . S
C3498 H3522 0.950 . S
C3499 C3516 1.574 . S
C3499 C3518 1.368 . S
C3499 H3523 0.949 . S
H3500 C3504 0.949 . S
C3501 C3502 1.349 . S
C3501 C3503 1.327 . S
C3501 H3524 0.950 . S
C3502 C3501 1.349 . S
C3502 C3514 1.349 . S
C3503 C3501 1.327 . S
C3503 C3519 1.429 . S
C3503 H3525 0.950 . S
C3504 H3500 0.949 . S
C3504 C3512 1.574 . S
C3504 C3520 1.368 . S
H3505 C3513 0.950 . S
H3506 C3511 0.950 . S
H3507 C3512 0.949 . S
H3508 C3514 0.950 . S
H3509 C3515 0.950 . S
H3510 C3516 0.949 . S
C3511 H3506 0.950 . S
C3511 C3513 1.327 . S
C3511 C3517 1.429 . S
C3512 C3504 1.574 . S
C3512 H3507 0.949 . S
C3512 C3518 1.368 . S
C3513 C3497 1.349 . S
C3513 H3505 0.950 . S
C3513 C3511 1.327 . S
C3514 C3502 1.349 . S
C3514 H3508 0.950 . S
C3514 C3515 1.327 . S
C3515 H3509 0.950 . S
C3515 C3514 1.327 . S
C3515 C3519 1.429 . S
C3516 C3499 1.574 . S
C3516 H3510 0.949 . S
C3516 C3520 1.368 . S
C3517 C3498 1.429 . S
C3517 C3511 1.429 . S
C3517 C3518 1.523 . S
C3518 C3499 1.368 . S
C3518 C3512 1.368 . S
C3518 C3517 1.523 . S
C3519 C3503 1.429 . S
C3519 C3515 1.429 . S
C3519 C3520 1.523 . S
C3520 C3504 1.368 . S
C3520 C3516 1.368 . S
C3520 C3519 1.523 . S
H3521 C3496 0.950 . S
H3522 C3498 0.950 . S
H3523 C3499 0.949 . S
H3524 C3501 0.950 . S
H3525 C3503 0.950 . S
C3526 C3527 1.349 . S
C3526 C3528 1.327 . S
C3526 H3551 0.950 . S
C3527 C3526 1.349 . S
C3527 C3543 1.349 . S
C3528 C3526 1.327 . S
C3528 C3547 1.429 . S
C3528 H3552 0.950 . S
C3529 C3546 1.574 . S
C3529 C3548 1.368 . S
C3529 H3553 0.949 . S
H3530 C3534 0.949 . S
C3531 C3532 1.349 . S
C3531 C3533 1.327 . S
C3531 H3554 0.950 . S
C3532 C3531 1.349 . S
C3532 C3544 1.349 . S
C3533 C3531 1.327 . S
C3533 C3549 1.429 . S
C3533 H3555 0.950 . S
C3534 H3530 0.949 . S
C3534 C3542 1.574 . S
C3534 C3550 1.368 . S
H3535 C3543 0.950 . S
H3536 C3541 0.950 . S
H3537 C3542 0.949 . S
H3538 C3544 0.950 . S
H3539 C3545 0.950 . S
H3540 C3546 0.949 . S
C3541 H3536 0.950 . S
C3541 C3543 1.327 . S
C3541 C3547 1.429 . S
C3542 C3534 1.574 . S
C3542 H3537 0.949 . S
C3542 C3548 1.368 . S
C3543 C3527 1.349 . S
C3543 H3535 0.950 . S
C3543 C3541 1.327 . S
C3544 C3532 1.349 . S
C3544 H3538 0.950 . S
C3544 C3545 1.327 . S
C3545 H3539 0.950 . S
C3545 C3544 1.327 . S
C3545 C3549 1.429 . S
C3546 C3529 1.574 . S
C3546 H3540 0.949 . S
C3546 C3550 1.368 . S
C3547 C3528 1.429 . S
C3547 C3541 1.429 . S
C3547 C3548 1.523 . S
C3548 C3529 1.368 . S
C3548 C3542 1.368 . S
C3548 C3547 1.523 . S
C3549 C3533 1.429 . S
C3549 C3545 1.429 . S
C3549 C3550 1.523 . S
C3550 C3534 1.368 . S
C3550 C3546 1.368 . S
C3550 C3549 1.523 . S
H3551 C3526 0.950 . S
H3552 C3528 0.950 . S
H3553 C3529 0.949 . S
H3554 C3531 0.950 . S
H3555 C3533 0.950 . S
C3556 C3557 1.349 . S
C3556 C3558 1.327 . S
C3556 H3581 0.950 . S
C3557 C3556 1.349 . S
C3557 C3573 1.349 . S
C3558 C3556 1.327 . S
C3558 C3577 1.429 . S
C3558 H3582 0.950 . S
C3559 C3576 1.574 . S
C3559 C3578 1.368 . S
C3559 H3583 0.949 . S
H3560 C3564 0.949 . S
C3561 C3562 1.349 . S
C3561 C3563 1.327 . S
C3561 H3584 0.950 . S
C3562 C3561 1.349 . S
C3562 C3574 1.350 . S
C3563 C3561 1.327 . S
C3563 C3579 1.429 . S
C3563 H3585 0.950 . S
C3564 H3560 0.949 . S
C3564 C3572 1.574 . S
C3564 C3580 1.368 . S
H3565 C3573 0.950 . S
H3566 C3571 0.950 . S
H3567 C3572 0.949 . S
H3568 C3574 0.909 1_455 S
H3569 C3575 0.950 . S
H3570 C3576 0.949 . S
C3571 H3566 0.950 . S
C3571 C3573 1.327 . S
C3571 C3577 1.429 . S
C3572 C3564 1.574 . S
C3572 H3567 0.949 . S
C3572 C3578 1.368 . S
C3573 C3557 1.349 . S
C3573 H3565 0.950 . S
C3573 C3571 1.327 . S
C3574 C3562 1.350 . S
C3574 H3568 0.909 1_655 S
C3574 C3575 1.371 . S
C3575 H3569 0.950 . S
C3575 C3574 1.371 . S
C3575 C3579 1.429 . S
C3576 C3559 1.574 . S
C3576 H3570 0.949 . S
C3576 C3580 1.368 . S
C3577 C3558 1.429 . S
C3577 C3571 1.429 . S
C3577 C3578 1.523 . S
C3578 C3559 1.368 . S
C3578 C3572 1.368 . S
C3578 C3577 1.523 . S
C3579 C3563 1.429 . S
C3579 C3575 1.429 . S
C3579 C3580 1.523 . S
C3580 C3564 1.368 . S
C3580 C3576 1.368 . S
C3580 C3579 1.523 . S
H3581 C3556 0.950 . S
H3582 C3558 0.950 . S
H3583 C3559 0.949 . S
H3584 C3561 0.950 . S
H3585 C3563 0.950 . S
C3586 C3587 1.349 . S
C3586 C3588 1.327 . S
C3586 H3611 0.950 . S
C3587 C3586 1.349 . S
C3587 C3603 1.349 . S
C3588 C3586 1.327 . S
C3588 C3607 1.429 . S
C3588 H3612 0.950 . S
C3589 C3606 1.574 . S
C3589 C3608 1.368 . S
C3589 H3613 0.949 . S
H3590 C3594 0.949 . S
C3591 C3592 1.349 . S
C3591 C3593 1.327 . S
C3591 H3614 0.950 . S
C3592 C3591 1.349 . S
C3592 C3604 1.349 . S
C3593 C3591 1.327 . S
C3593 C3609 1.429 . S
C3593 H3615 0.950 . S
C3594 H3590 0.949 . S
C3594 C3602 1.574 . S
C3594 C3610 1.368 . S
H3595 C3603 0.950 . S
H3596 C3601 0.950 . S
H3597 C3602 0.949 . S
H3598 C3604 0.950 . S
H3599 C3605 0.950 . S
H3600 C3606 0.949 . S
C3601 H3596 0.950 . S
C3601 C3603 1.327 . S
C3601 C3607 1.429 . S
C3602 C3594 1.574 . S
C3602 H3597 0.949 . S
C3602 C3608 1.368 . S
C3603 C3587 1.349 . S
C3603 H3595 0.950 . S
C3603 C3601 1.327 . S
C3604 C3592 1.349 . S
C3604 H3598 0.950 . S
C3604 C3605 1.327 . S
C3605 H3599 0.950 . S
C3605 C3604 1.327 . S
C3605 C3609 1.429 . S
C3606 C3589 1.574 . S
C3606 H3600 0.949 . S
C3606 C3610 1.368 . S
C3607 C3588 1.429 . S
C3607 C3601 1.429 . S
C3607 C3608 1.523 . S
C3608 C3589 1.368 . S
C3608 C3602 1.368 . S
C3608 C3607 1.523 . S
C3609 C3593 1.429 . S
C3609 C3605 1.429 . S
C3609 C3610 1.523 . S
C3610 C3594 1.368 . S
C3610 C3606 1.368 . S
C3610 C3609 1.523 . S
H3611 C3586 0.950 . S
H3612 C3588 0.950 . S
H3613 C3589 0.949 . S
H3614 C3591 0.950 . S
H3615 C3593 0.950 . S
C3616 C3617 1.349 . S
C3616 C3618 1.327 . S
C3616 H3641 0.950 . S
C3617 C3616 1.349 . S
C3617 C3633 1.349 . S
C3618 C3616 1.327 . S
C3618 C3637 1.429 . S
C3618 H3642 0.950 . S
C3619 C3636 1.574 . S
C3619 C3638 1.368 . S
C3619 H3643 0.949 . S
H3620 C3624 0.949 . S
C3621 C3622 1.349 . S
C3621 C3623 1.327 . S
C3621 H3644 0.950 . S
C3622 C3621 1.349 . S
C3622 C3634 1.349 . S
C3623 C3621 1.327 . S
C3623 C3639 1.429 . S
C3623 H3645 0.950 . S
C3624 H3620 0.949 . S
C3624 C3632 1.574 . S
C3624 C3640 1.368 . S
H3625 C3633 0.950 . S
H3626 C3631 0.950 . S
H3627 C3632 0.949 . S
H3628 C3634 0.950 . S
H3629 C3635 0.950 . S
H3630 C3636 0.949 . S
C3631 H3626 0.950 . S
C3631 C3633 1.327 . S
C3631 C3637 1.429 . S
C3632 C3624 1.574 . S
C3632 H3627 0.949 . S
C3632 C3638 1.368 . S
C3633 C3617 1.349 . S
C3633 H3625 0.950 . S
C3633 C3631 1.327 . S
C3634 C3622 1.349 . S
C3634 H3628 0.950 . S
C3634 C3635 1.327 . S
C3635 H3629 0.950 . S
C3635 C3634 1.327 . S
C3635 C3639 1.429 . S
C3636 C3619 1.574 . S
C3636 H3630 0.949 . S
C3636 C3640 1.368 . S
C3637 C3618 1.429 . S
C3637 C3631 1.429 . S
C3637 C3638 1.523 . S
C3638 C3619 1.368 . S
C3638 C3632 1.368 . S
C3638 C3637 1.523 . S
C3639 C3623 1.429 . S
C3639 C3635 1.429 . S
C3639 C3640 1.523 . S
C3640 C3624 1.368 . S
C3640 C3636 1.368 . S
C3640 C3639 1.523 . S
H3641 C3616 0.950 . S
H3642 C3618 0.950 . S
H3643 C3619 0.949 . S
H3644 C3621 0.950 . S
H3645 C3623 0.950 . S
C3646 C3647 1.349 . S
C3646 C3648 1.327 . S
C3646 H3671 0.950 . S
C3647 C3646 1.349 . S
C3647 C3663 1.349 . S
C3648 C3646 1.327 . S
C3648 C3667 1.429 . S
C3648 H3672 0.950 . S
C3649 C3666 1.574 . S
C3649 C3668 1.368 . S
C3649 H3673 0.949 . S
H3650 C3654 0.949 . S
C3651 C3652 1.349 . S
C3651 C3653 1.327 . S
C3651 H3674 0.950 . S
C3652 C3651 1.349 . S
C3652 C3664 1.349 . S
C3653 C3651 1.327 . S
C3653 C3669 1.429 . S
C3653 H3675 0.950 . S
C3654 H3650 0.949 . S
C3654 C3662 1.574 . S
C3654 C3670 1.368 . S
H3655 C3663 0.950 . S
H3656 C3661 0.950 . S
H3657 C3662 0.949 . S
H3658 C3664 0.950 . S
H3659 C3665 0.950 . S
H3660 C3666 0.949 . S
C3661 H3656 0.950 . S
C3661 C3663 1.327 . S
C3661 C3667 1.429 . S
C3662 C3654 1.574 . S
C3662 H3657 0.949 . S
C3662 C3668 1.368 . S
C3663 C3647 1.349 . S
C3663 H3655 0.950 . S
C3663 C3661 1.327 . S
C3664 C3652 1.349 . S
C3664 H3658 0.950 . S
C3664 C3665 1.327 . S
C3665 H3659 0.950 . S
C3665 C3664 1.327 . S
C3665 C3669 1.429 . S
C3666 C3649 1.574 . S
C3666 H3660 0.949 . S
C3666 C3670 1.368 . S
C3667 C3648 1.429 . S
C3667 C3661 1.429 . S
C3667 C3668 1.523 . S
C3668 C3649 1.368 . S
C3668 C3662 1.368 . S
C3668 C3667 1.523 . S
C3669 C3653 1.429 . S
C3669 C3665 1.429 . S
C3669 C3670 1.523 . S
C3670 C3654 1.368 . S
C3670 C3666 1.368 . S
C3670 C3669 1.523 . S
H3671 C3646 0.950 . S
H3672 C3648 0.950 . S
H3673 C3649 0.949 . S
H3674 C3651 0.950 . S
H3675 C3653 0.950 . S
C3676 C3677 1.349 . S
C3676 C3678 1.327 . S
C3676 H3701 0.950 . S
C3677 C3676 1.349 . S
C3677 C3693 1.349 . S
C3678 C3676 1.327 . S
C3678 C3697 1.429 . S
C3678 H3702 0.950 . S
C3679 C3696 1.574 . S
C3679 C3698 1.368 . S
C3679 H3703 0.949 . S
H3680 C3684 0.949 . S
C3681 C3682 1.349 . S
C3681 C3683 1.327 . S
C3681 H3704 0.950 . S
C3682 C3681 1.349 . S
C3682 C3694 1.349 . S
C3683 C3681 1.327 . S
C3683 C3699 1.429 . S
C3683 H3705 0.950 . S
C3684 H3680 0.949 . S
C3684 C3692 1.574 . S
C3684 C3700 1.368 . S
H3685 C3693 0.950 . S
H3686 C3691 0.950 . S
H3687 C3692 0.949 . S
H3688 C3694 0.950 . S
H3689 C3695 0.950 . S
H3690 C3696 0.949 . S
C3691 H3686 0.950 . S
C3691 C3693 1.327 . S
C3691 C3697 1.429 . S
C3692 C3684 1.574 . S
C3692 H3687 0.949 . S
C3692 C3698 1.368 . S
C3693 C3677 1.349 . S
C3693 H3685 0.950 . S
C3693 C3691 1.327 . S
C3694 C3682 1.349 . S
C3694 H3688 0.950 . S
C3694 C3695 1.327 . S
C3695 H3689 0.950 . S
C3695 C3694 1.327 . S
C3695 C3699 1.429 . S
C3696 C3679 1.574 . S
C3696 H3690 0.949 . S
C3696 C3700 1.368 . S
C3697 C3678 1.429 . S
C3697 C3691 1.429 . S
C3697 C3698 1.523 . S
C3698 C3679 1.368 . S
C3698 C3692 1.368 . S
C3698 C3697 1.523 . S
C3699 C3683 1.429 . S
C3699 C3695 1.429 . S
C3699 C3700 1.523 . S
C3700 C3684 1.368 . S
C3700 C3696 1.368 . S
C3700 C3699 1.523 . S
H3701 C3676 0.950 . S
H3702 C3678 0.950 . S
H3703 C3679 0.949 . S
H3704 C3681 0.950 . S
H3705 C3683 0.950 . S
C3706 C3707 1.349 . S
C3706 C3708 1.327 . S
C3706 H3731 0.950 . S
C3707 C3706 1.349 . S
C3707 C3723 1.349 . S
C3708 C3706 1.327 . S
C3708 C3727 1.429 . S
C3708 H3732 0.950 . S
C3709 C3726 1.574 . S
C3709 C3728 1.368 . S
C3709 H3733 0.949 . S
H3710 C3714 0.949 . S
C3711 C3712 1.349 . S
C3711 C3713 1.327 . S
C3711 H3734 0.950 . S
C3712 C3711 1.349 . S
C3712 C3724 1.349 . S
C3713 C3711 1.327 . S
C3713 C3729 1.429 . S
C3713 H3735 0.950 . S
C3714 H3710 0.949 . S
C3714 C3722 1.574 . S
C3714 C3730 1.368 . S
H3715 C3723 0.950 . S
H3716 C3721 0.950 . S
H3717 C3722 0.949 . S
H3718 C3724 0.950 . S
H3719 C3725 0.950 . S
H3720 C3726 0.949 . S
C3721 H3716 0.950 . S
C3721 C3723 1.327 . S
C3721 C3727 1.429 . S
C3722 C3714 1.574 . S
C3722 H3717 0.949 . S
C3722 C3728 1.368 . S
C3723 C3707 1.349 . S
C3723 H3715 0.950 . S
C3723 C3721 1.327 . S
C3724 C3712 1.349 . S
C3724 H3718 0.950 . S
C3724 C3725 1.327 . S
C3725 H3719 0.950 . S
C3725 C3724 1.327 . S
C3725 C3729 1.429 . S
C3726 C3709 1.574 . S
C3726 H3720 0.949 . S
C3726 C3730 1.368 . S
C3727 C3708 1.429 . S
C3727 C3721 1.429 . S
C3727 C3728 1.523 . S
C3728 C3709 1.368 . S
C3728 C3722 1.368 . S
C3728 C3727 1.523 . S
C3729 C3713 1.429 . S
C3729 C3725 1.429 . S
C3729 C3730 1.523 . S
C3730 C3714 1.368 . S
C3730 C3726 1.368 . S
C3730 C3729 1.523 . S
H3731 C3706 0.950 . S
H3732 C3708 0.950 . S
H3733 C3709 0.949 . S
H3734 C3711 0.950 . S
H3735 C3713 0.950 . S
C3736 C3737 1.349 . S
C3736 C3738 1.327 . S
C3736 H3761 0.950 . S
C3737 C3736 1.349 . S
C3737 C3753 1.349 . S
C3738 C3736 1.327 . S
C3738 C3757 1.429 . S
C3738 H3762 0.950 . S
C3739 C3756 1.574 . S
C3739 C3758 1.368 . S
C3739 H3763 0.949 . S
H3740 C3744 0.949 . S
C3741 C3742 1.349 . S
C3741 C3743 1.327 . S
C3741 H3764 0.950 . S
C3742 C3741 1.349 . S
C3742 C3754 1.349 . S
C3743 C3741 1.327 . S
C3743 C3759 1.429 . S
C3743 H3765 0.950 . S
C3744 H3740 0.949 . S
C3744 C3752 1.574 . S
C3744 C3760 1.368 . S
H3745 C3753 0.950 . S
H3746 C3751 0.950 . S
H3747 C3752 0.949 . S
H3748 C3754 0.950 . S
H3749 C3755 0.950 . S
H3750 C3756 0.949 . S
C3751 H3746 0.950 . S
C3751 C3753 1.327 . S
C3751 C3757 1.429 . S
C3752 C3744 1.574 . S
C3752 H3747 0.949 . S
C3752 C3758 1.368 . S
C3753 C3737 1.349 . S
C3753 H3745 0.950 . S
C3753 C3751 1.327 . S
C3754 C3742 1.349 . S
C3754 H3748 0.950 . S
C3754 C3755 1.327 . S
C3755 H3749 0.950 . S
C3755 C3754 1.327 . S
C3755 C3759 1.429 . S
C3756 C3739 1.574 . S
C3756 H3750 0.949 . S
C3756 C3760 1.368 . S
C3757 C3738 1.429 . S
C3757 C3751 1.429 . S
C3757 C3758 1.523 . S
C3758 C3739 1.368 . S
C3758 C3752 1.368 . S
C3758 C3757 1.523 . S
C3759 C3743 1.429 . S
C3759 C3755 1.429 . S
C3759 C3760 1.523 . S
C3760 C3744 1.368 . S
C3760 C3756 1.368 . S
C3760 C3759 1.523 . S
H3761 C3736 0.950 . S
H3762 C3738 0.950 . S
H3763 C3739 0.949 . S
H3764 C3741 0.950 . S
H3765 C3743 0.950 . S
C3766 C3767 1.349 . S
C3766 C3768 1.327 . S
C3766 H3791 0.950 1_554 S
C3767 C3766 1.349 . S
C3767 C3783 1.349 . S
C3768 C3766 1.327 . S
C3768 C3787 1.429 . S
C3768 H3792 0.950 1_554 S
C3769 C3786 1.574 . S
C3769 C3788 1.368 . S
C3769 H3793 0.949 . S
H3770 C3774 0.949 . S
C3771 C3772 1.349 . S
C3771 C3773 1.327 . S
C3771 H3794 0.950 . S
C3772 C3771 1.349 . S
C3772 C3784 1.349 1_554 S
C3773 C3771 1.327 . S
C3773 C3789 1.429 . S
C3773 H3795 0.950 . S
C3774 H3770 0.949 . S
C3774 C3782 1.574 . S
C3774 C3790 1.368 1_556 S
H3775 C3783 0.950 . S
H3776 C3781 0.950 . S
H3777 C3782 0.949 . S
H3778 C3784 0.950 . S
H3779 C3785 0.950 . S
H3780 C3786 0.949 . S
C3781 H3776 0.950 . S
C3781 C3783 1.327 . S
C3781 C3787 1.429 . S
C3782 C3774 1.574 . S
C3782 H3777 0.949 . S
C3782 C3788 1.368 1_556 S
C3783 C3767 1.349 . S
C3783 H3775 0.950 . S
C3783 C3781 1.327 . S
C3784 C3772 1.349 1_556 S
C3784 H3778 0.950 . S
C3784 C3785 1.327 . S
C3785 H3779 0.950 . S
C3785 C3784 1.327 . S
C3785 C3789 1.429 1_556 S
C3786 C3769 1.574 . S
C3786 H3780 0.949 . S
C3786 C3790 1.368 . S
C3787 C3768 1.429 . S
C3787 C3781 1.429 . S
C3787 C3788 1.523 . S
C3788 C3769 1.368 . S
C3788 C3782 1.368 1_554 S
C3788 C3787 1.523 . S
C3789 C3773 1.429 . S
C3789 C3785 1.429 1_554 S
C3789 C3790 1.523 . S
C3790 C3774 1.368 1_554 S
C3790 C3786 1.368 . S
C3790 C3789 1.523 . S
H3791 C3766 0.950 1_556 S
H3792 C3768 0.950 1_556 S
H3793 C3769 0.949 . S
H3794 C3771 0.950 . S
H3795 C3773 0.950 . S
C3796 C3797 1.349 . S
C3796 C3798 1.327 . S
C3796 H3821 0.950 . S
C3797 C3796 1.349 . S
C3797 C3813 1.349 . S
C3798 C3796 1.327 . S
C3798 C3817 1.429 . S
C3798 H3822 0.950 . S
C3799 C3816 1.574 . S
C3799 C3818 1.368 . S
C3799 H3823 0.949 . S
H3800 C3804 0.949 . S
C3801 C3802 1.349 . S
C3801 C3803 1.327 . S
C3801 H3824 0.950 . S
C3802 C3801 1.349 . S
C3802 C3814 1.349 . S
C3803 C3801 1.327 . S
C3803 C3819 1.429 . S
C3803 H3825 0.950 . S
C3804 H3800 0.949 . S
C3804 C3812 1.574 . S
C3804 C3820 1.368 . S
H3805 C3813 0.950 . S
H3806 C3811 0.950 . S
H3807 C3812 0.949 . S
H3808 C3814 0.950 . S
H3809 C3815 0.950 . S
H3810 C3816 0.949 . S
C3811 H3806 0.950 . S
C3811 C3813 1.327 . S
C3811 C3817 1.429 . S
C3812 C3804 1.574 . S
C3812 H3807 0.949 . S
C3812 C3818 1.368 . S
C3813 C3797 1.349 . S
C3813 H3805 0.950 . S
C3813 C3811 1.327 . S
C3814 C3802 1.349 . S
C3814 H3808 0.950 . S
C3814 C3815 1.327 . S
C3815 H3809 0.950 . S
C3815 C3814 1.327 . S
C3815 C3819 1.429 . S
C3816 C3799 1.574 . S
C3816 H3810 0.949 . S
C3816 C3820 1.368 . S
C3817 C3798 1.429 . S
C3817 C3811 1.429 . S
C3817 C3818 1.523 . S
C3818 C3799 1.368 . S
C3818 C3812 1.368 . S
C3818 C3817 1.523 . S
C3819 C3803 1.429 . S
C3819 C3815 1.429 . S
C3819 C3820 1.523 . S
C3820 C3804 1.368 . S
C3820 C3816 1.368 . S
C3820 C3819 1.523 . S
H3821 C3796 0.950 . S
H3822 C3798 0.950 . S
H3823 C3799 0.949 . S
H3824 C3801 0.950 . S
H3825 C3803 0.950 . S
C3826 C3827 1.349 . S
C3826 C3828 1.327 . S
C3826 H3851 0.950 . S
C3827 C3826 1.349 . S
C3827 C3843 1.349 . S
C3828 C3826 1.327 . S
C3828 C3847 1.429 . S
C3828 H3852 0.950 . S
C3829 C3846 1.574 . S
C3829 C3848 1.368 . S
C3829 H3853 0.949 . S
H3830 C3834 0.949 . S
C3831 C3832 1.349 . S
C3831 C3833 1.327 . S
C3831 H3854 0.950 . S
C3832 C3831 1.349 . S
C3832 C3844 1.349 . S
C3833 C3831 1.327 . S
C3833 C3849 1.429 . S
C3833 H3855 0.950 . S
C3834 H3830 0.949 . S
C3834 C3842 1.574 . S
C3834 C3850 1.368 . S
H3835 C3843 0.950 . S
H3836 C3841 0.950 . S
H3837 C3842 0.949 . S
H3838 C3844 0.950 . S
H3839 C3845 0.950 . S
H3840 C3846 0.949 . S
C3841 H3836 0.950 . S
C3841 C3843 1.327 . S
C3841 C3847 1.429 . S
C3842 C3834 1.574 . S
C3842 H3837 0.949 . S
C3842 C3848 1.368 . S
C3843 C3827 1.349 . S
C3843 H3835 0.950 . S
C3843 C3841 1.327 . S
C3844 C3832 1.349 . S
C3844 H3838 0.950 . S
C3844 C3845 1.327 . S
C3845 H3839 0.950 . S
C3845 C3844 1.327 . S
C3845 C3849 1.429 . S
C3846 C3829 1.574 . S
C3846 H3840 0.949 . S
C3846 C3850 1.368 . S
C3847 C3828 1.429 . S
C3847 C3841 1.429 . S
C3847 C3848 1.523 . S
C3848 C3829 1.368 . S
C3848 C3842 1.368 . S
C3848 C3847 1.523 . S
C3849 C3833 1.429 . S
C3849 C3845 1.429 . S
C3849 C3850 1.523 . S
C3850 C3834 1.368 . S
C3850 C3846 1.368 . S
C3850 C3849 1.523 . S
H3851 C3826 0.950 . S
H3852 C3828 0.950 . S
H3853 C3829 0.949 . S
H3854 C3831 0.950 . S
H3855 C3833 0.950 . S
C977 C111 2.152 . S
C982 C346 2.143 . S
C1007 C64 1.956 . S
C1012 C394 2.018 . S
C1037 C77 1.017 . S
C1042 C426 1.010 . S
C1072 C471 1.335 . S
C1067 C95 1.353 . S
C1097 C25 0.670 . S
C1102 C511 0.668 . S
C1132 C546 0.717 . S
C1127 C36 0.721 . S
C1162 C585 1.167 . S
C1157 C50 1.156 . S
C1187 C11 1.049 . S
C1192 C622 1.045 . S
C1222 C354 1.881 . S
C1217 C237 1.820 . S
C1247 C245 0.395 . S
C1252 C391 0.502 . S
C1282 C434 2.337 . S
C1277 C279 2.215 . S
C1312 C466 0.851 . S
C1307 C175 0.855 . S
C1337 C231 0.959 . S
C1342 C506 0.952 . S
C1372 C554 0.389 . S
C1367 C251 0.561 . S
C1402 C595 1.798 . S
C1397 C273 1.862 . S
C1432 C625 1.871 . S
C1427 C181 1.821 . S
C1462 C351 0.996 . S
C1457 C165 1.018 1_554 S
C1487 C288 2.097 . S
C1492 C674 2.145 . S
C1522 C711 1.067 . S
C1517 C333 1.076 . S
C1552 C742 0.396 . S
C1547 C316 0.341 . S
C1577 C123 2.656 . S
C1582 C635 2.618 . S
C1607 C137 1.265 . S
C1612 C431 1.253 . S
C1637 C330 1.698 . S
C1642 C794 1.744 . S
C1672 C826 1.687 . S
C1667 C302 1.679 . S
C1702 C355 2.254 . S
C1697 C63 2.312 . S
C1732 C825 2.092 . S
C1727 C106 2.083 . S
C1757 C97 1.087 . S
C1762 C435 1.124 . S
C1787 C81 1.417 . S
C1792 C782 1.414 . S
C1822 C502 0.820 . S
C1817 C13 0.794 1_455 S
C1847 C55 0.813 . S
C1852 C715 0.824 . S
C1882 C594 1.060 1_556 S
C1877 C35 1.095 . S
C1912 C871 1.245 . S
C1907 C21 1.250 . S
C1942 C345 2.028 . S
C1937 C147 2.046 . S
C1972 C822 0.473 . S
C1967 C321 0.696 . S
C1997 C119 2.441 . S
C2002 C425 2.417 . S
C2027 C293 0.987 . S
C2032 C795 1.025 . S
C2057 C153 1.116 . S
C2062 C515 1.162 . S
C2092 C705 0.490 . S
C2087 C315 0.476 . S
C2117 C125 1.777 . S
C2122 C586 1.839 . S
C2147 C287 1.998 . S
C2152 C874 1.972 . S
C2177 C193 1.027 . S
C2182 C342 1.026 . S
C2207 C176 2.202 . S
C2212 C665 2.206 . S
C2237 C263 1.064 . S
C2242 C542 1.066 . S
C2267 C246 0.418 . S
C2272 C751 0.386 . S
C2302 C866 2.776 . S
C2297 C277 2.821 . S
C2327 C221 1.311 . S
C2332 C422 1.312 . S
C2362 C465 1.804 . S
C2357 C260 1.807 . S
C2392 C395 1.812 . S
C2387 C204 1.720 . S
C2417 C83 2.152 . S
C2422 C906 2.143 . S
C2452 C834 2.018 . S
C2447 C92 1.956 . S
C2477 C105 1.017 . S
C2482 C946 1.010 . S
C2507 C67 1.412 . S
C2512 C791 1.334 . S
C2537 C53 0.670 . S
C2542 C671 0.668 . S
C2572 C706 0.717 . S
C2567 C8 0.721 . S
C2602 C745 1.166 . S
C2597 C22 1.156 . S
C2632 C862 1.045 . S
C2627 C39 1.049 . S
C2662 C914 1.881 . S
C2657 C265 1.820 . S
C2687 C189 0.395 . S
C2692 C831 0.501 . S
C2722 C954 2.337 . S
C2717 C209 2.215 . S
C2752 C786 0.851 . S
C2747 C217 0.855 . S
C2782 C666 0.952 . S
C2777 C259 0.959 . S
C2807 C195 0.561 . S
C2812 C714 0.389 . S
C2842 C755 1.798 . S
C2837 C203 1.862 . S
C2867 C223 1.821 . S
C2872 C865 1.871 . S
C2902 C911 0.996 . S
C2897 C319 1.020 . S
C2927 C134 2.097 . S
C2932 C514 2.145 . S
C2962 C551 1.067 . S
C2957 C151 1.076 . S
C2992 C582 0.396 . S
C2987 C162 0.344 . S
C3022 C875 2.618 . S
C3017 C305 2.656 . S
C3047 C291 1.265 . S
C3052 C951 1.253 . S
C3082 C474 1.744 . S
C3077 C148 1.698 . S
C3112 C386 1.687 . S
C3107 C120 1.679 . S
C3137 C91 2.312 . S
C3142 C915 2.254 . S
C3172 C385 2.092 . S
C3167 C78 2.083 . S
C3197 C69 1.087 . S
C3202 C955 1.124 . S
C3227 C109 1.417 . S
C3232 C462 1.414 . S
C3257 C41 0.812 . S
C3262 C662 0.821 . S
C3292 C555 0.824 . S
C3287 C27 0.813 . S
C3317 C7 1.094 . S
C3322 C754 1.083 . S
C3347 C49 1.250 . S
C3352 C631 1.245 . S
C3382 C905 2.028 . S
C3377 C329 2.046 . S
C3407 C167 0.696 . S
C3412 C382 0.475 . S
C3442 C945 2.417 . S
C3437 C301 2.441 . S
C3467 C139 0.987 . S
C3472 C475 1.025 . S
C3497 C335 1.116 . S
C3502 C675 1.162 . S
C3532 C545 0.490 . S
C3527 C161 0.481 . S
C3557 C307 1.777 . S
C3562 C746 1.839 1_655 S
C3592 C634 1.972 . S
C3587 C133 1.998 . S
C3622 C902 1.026 . S
C3617 C249 1.027 . S
C3652 C505 2.206 1_565 S
C3647 C218 2.201 . S
C3677 C235 1.064 . S
C3682 C702 1.067 . S
C3712 C591 0.386 . S
C3707 C190 0.418 . S
C3737 C207 2.820 . S
C3742 C626 2.776 . S
C3767 C179 1.311 . S
C3772 C942 1.312 . S
C3802 C785 1.804 . S
C3797 C232 1.807 . S
C3832 C835 1.812 . S
C3827 C274 1.720 . S
