# Generated by pormake.
# Topology soc, (4,6)-cn, num edge types: 1
# Building blocks:
#     Node 0, Type 0, BuildingBlock: ESEHIV_clean_sbu_0, # of connection points: 4
#     Node 1, Type 0, BuildingBlock: ESEHIV_clean_sbu_0, # of connection points: 4
#     Node 2, Type 0, BuildingBlock: ESEHIV_clean_sbu_0, # of connection points: 4
#     Node 3, Type 0, BuildingBlock: ESEHIV_clean_sbu_0, # of connection points: 4
#     Node 4, Type 0, BuildingBlock: ESEHIV_clean_sbu_0, # of connection points: 4
#     Node 5, Type 0, BuildingBlock: ESEHIV_clean_sbu_0, # of connection points: 4
#     Node 6, Type 0, BuildingBlock: ESEHIV_clean_sbu_0, # of connection points: 4
#     Node 7, Type 0, BuildingBlock: ESEHIV_clean_sbu_0, # of connection points: 4
#     Node 8, Type 0, BuildingBlock: ESEHIV_clean_sbu_0, # of connection points: 4
#     Node 9, Type 0, BuildingBlock: ESEHIV_clean_sbu_0, # of connection points: 4
#     Node 10, Type 0, BuildingBlock: ESEHIV_clean_sbu_0, # of connection points: 4
#     Node 11, Type 0, BuildingBlock: ESEHIV_clean_sbu_0, # of connection points: 4
#     Node 12, Type 1, BuildingBlock: KUMBOL_clean_sbu_0, # of connection points: 6
#     Node 13, Type 1, BuildingBlock: KUMBOL_clean_sbu_0, # of connection points: 6
#     Node 14, Type 1, BuildingBlock: KUMBOL_clean_sbu_0, # of connection points: 6
#     Node 15, Type 1, BuildingBlock: KUMBOL_clean_sbu_0, # of connection points: 6
#     Node 16, Type 1, BuildingBlock: KUMBOL_clean_sbu_0, # of connection points: 6
#     Node 17, Type 1, BuildingBlock: KUMBOL_clean_sbu_0, # of connection points: 6
#     Node 18, Type 1, BuildingBlock: KUMBOL_clean_sbu_0, # of connection points: 6
#     Node 19, Type 1, BuildingBlock: KUMBOL_clean_sbu_0, # of connection points: 6
#     Edge 20, Type (0, 1), BuildingBlock: XUDNAN_clean_linker_2, # of connection points: 2
#     Edge 21, Type (0, 1), BuildingBlock: XUDNAN_clean_linker_2, # of connection points: 2
#     Edge 22, Type (0, 1), BuildingBlock: XUDNAN_clean_linker_2, # of connection points: 2
#     Edge 23, Type (0, 1), BuildingBlock: XUDNAN_clean_linker_2, # of connection points: 2
#     Edge 24, Type (0, 1), BuildingBlock: XUDNAN_clean_linker_2, # of connection points: 2
#     Edge 25, Type (0, 1), BuildingBlock: XUDNAN_clean_linker_2, # of connection points: 2
#     Edge 26, Type (0, 1), BuildingBlock: XUDNAN_clean_linker_2, # of connection points: 2
#     Edge 27, Type (0, 1), BuildingBlock: XUDNAN_clean_linker_2, # of connection points: 2
#     Edge 28, Type (0, 1), BuildingBlock: XUDNAN_clean_linker_2, # of connection points: 2
#     Edge 29, Type (0, 1), BuildingBlock: XUDNAN_clean_linker_2, # of connection points: 2
#     Edge 30, Type (0, 1), BuildingBlock: XUDNAN_clean_linker_2, # of connection points: 2
#     Edge 31, Type (0, 1), BuildingBlock: XUDNAN_clean_linker_2, # of connection points: 2
#     Edge 32, Type (0, 1), BuildingBlock: XUDNAN_clean_linker_2, # of connection points: 2
#     Edge 33, Type (0, 1), BuildingBlock: XUDNAN_clean_linker_2, # of connection points: 2
#     Edge 34, Type (0, 1), BuildingBlock: XUDNAN_clean_linker_2, # of connection points: 2
#     Edge 35, Type (0, 1), BuildingBlock: XUDNAN_clean_linker_2, # of connection points: 2
#     Edge 36, Type (0, 1), BuildingBlock: XUDNAN_clean_linker_2, # of connection points: 2
#     Edge 37, Type (0, 1), BuildingBlock: XUDNAN_clean_linker_2, # of connection points: 2
#     Edge 38, Type (0, 1), BuildingBlock: XUDNAN_clean_linker_2, # of connection points: 2
#     Edge 39, Type (0, 1), BuildingBlock: XUDNAN_clean_linker_2, # of connection points: 2
#     Edge 40, Type (0, 1), BuildingBlock: XUDNAN_clean_linker_2, # of connection points: 2
#     Edge 41, Type (0, 1), BuildingBlock: XUDNAN_clean_linker_2, # of connection points: 2
#     Edge 42, Type (0, 1), BuildingBlock: XUDNAN_clean_linker_2, # of connection points: 2
#     Edge 43, Type (0, 1), BuildingBlock: XUDNAN_clean_linker_2, # of connection points: 2
#     Edge 44, Type (0, 1), BuildingBlock: XUDNAN_clean_linker_2, # of connection points: 2
#     Edge 45, Type (0, 1), BuildingBlock: XUDNAN_clean_linker_2, # of connection points: 2
#     Edge 46, Type (0, 1), BuildingBlock: XUDNAN_clean_linker_2, # of connection points: 2
#     Edge 47, Type (0, 1), BuildingBlock: XUDNAN_clean_linker_2, # of connection points: 2
#     Edge 48, Type (0, 1), BuildingBlock: XUDNAN_clean_linker_2, # of connection points: 2
#     Edge 49, Type (0, 1), BuildingBlock: XUDNAN_clean_linker_2, # of connection points: 2
#     Edge 50, Type (0, 1), BuildingBlock: XUDNAN_clean_linker_2, # of connection points: 2
#     Edge 51, Type (0, 1), BuildingBlock: XUDNAN_clean_linker_2, # of connection points: 2
#     Edge 52, Type (0, 1), BuildingBlock: XUDNAN_clean_linker_2, # of connection points: 2
#     Edge 53, Type (0, 1), BuildingBlock: XUDNAN_clean_linker_2, # of connection points: 2
#     Edge 54, Type (0, 1), BuildingBlock: XUDNAN_clean_linker_2, # of connection points: 2
#     Edge 55, Type (0, 1), BuildingBlock: XUDNAN_clean_linker_2, # of connection points: 2
#     Edge 56, Type (0, 1), BuildingBlock: XUDNAN_clean_linker_2, # of connection points: 2
#     Edge 57, Type (0, 1), BuildingBlock: XUDNAN_clean_linker_2, # of connection points: 2
#     Edge 58, Type (0, 1), BuildingBlock: XUDNAN_clean_linker_2, # of connection points: 2
#     Edge 59, Type (0, 1), BuildingBlock: XUDNAN_clean_linker_2, # of connection points: 2
#     Edge 60, Type (0, 1), BuildingBlock: XUDNAN_clean_linker_2, # of connection points: 2
#     Edge 61, Type (0, 1), BuildingBlock: XUDNAN_clean_linker_2, # of connection points: 2
#     Edge 62, Type (0, 1), BuildingBlock: XUDNAN_clean_linker_2, # of connection points: 2
#     Edge 63, Type (0, 1), BuildingBlock: XUDNAN_clean_linker_2, # of connection points: 2
#     Edge 64, Type (0, 1), BuildingBlock: XUDNAN_clean_linker_2, # of connection points: 2
#     Edge 65, Type (0, 1), BuildingBlock: XUDNAN_clean_linker_2, # of connection points: 2
#     Edge 66, Type (0, 1), BuildingBlock: XUDNAN_clean_linker_2, # of connection points: 2
#     Edge 67, Type (0, 1), BuildingBlock: XUDNAN_clean_linker_2, # of connection points: 2
# Relax obj value: 0.068
# Max RMSD: 0.199
# Mean RMSD: 0.141
data_MOF--net-soc--node1-ESEHIV_clean_sbu_0--node2-KUMBOL_clean_sbu_0--edge1-XUDNAN_clean_linker_2
_symmetry_space_group_name_H-M    P1
_symmetry_Int_Tables_number       1
_symmetry_cell_setting            triclinic
loop_
_symmetry_equiv_pos_as_xyz
'x, y, z'
_cell_length_a     52.319538
_cell_length_b     49.881598
_cell_length_c     42.199529
_cell_angle_alpha  83.582787
_cell_angle_beta   82.533606
_cell_angle_gamma 72.528609
loop_
_atom_site_label
_atom_site_type_symbol
_atom_site_fract_x
_atom_site_fract_y
_atom_site_fract_z
_atom_type_partial_charge
Cu0 Cu 0.03873 0.04575 0.37098 0.0
N1 N 0.05286 0.06381 0.39704 0.0
N2 N 0.078 0.09183 0.40206 0.0
C3 C 0.07563 0.07057 0.38673 0.0
C4 C 0.05606 0.09806 0.42377 0.0
C5 C 0.0404 0.08084 0.42039 0.0
O6 O 0.07162 0.01864 0.35296 0.0
C7 C 0.99466 0.08122 0.33219 0.0
O8 O 0.98926 0.059 0.32419 0.0
H9 H 0.08885 0.0617 0.36623 0.0
H10 H 0.02021 0.08271 0.43163 0.0
N11 N 0.01965 0.02306 0.3952 0.0
N12 N 0.99412 0.994 0.39713 0.0
C13 C 0.99634 0.02009 0.38827 0.0
C14 C 0.03192 0.99848 0.41091 0.0
C15 C 1.01625 0.98052 0.41216 0.0
C16 C 0.0846 1.00688 0.32805 0.0
O17 O 0.07479 0.01403 0.30021 0.0
H18 H 0.98269 0.03549 0.37387 0.0
H19 H 0.05243 0.99267 0.41699 0.0
O20 O 1.01532 0.07838 0.34682 0.0
H21 H 0.05036 0.11555 0.43881 0.0
H22 H 0.02208 0.95845 0.42062 0.0
Cu23 Cu 0.04541 0.04792 0.74345 0.0
N24 N 0.03174 0.02712 0.72009 0.0
N25 N 1.00603 0.99973 0.71527 0.0
C26 C 1.01015 0.01883 0.73252 0.0
C27 C 0.02582 0.99587 0.69075 0.0
C28 C 0.04195 0.01269 0.694 0.0
O29 O 1.01388 0.07816 0.76013 0.0
C30 C 0.0928 1.00638 0.75595 0.0
O31 O 0.09931 0.01532 0.72645 0.0
H32 H 0.99823 0.02603 0.75455 0.0
H33 H 0.06047 0.0132 0.67953 0.0
N34 N 0.06717 0.06839 0.72134 0.0
N35 N 0.09347 0.09592 0.72146 0.0
C36 C 0.0807 0.07892 0.73903 0.0
C37 C 0.07139 0.07912 0.691 0.0
C38 C 0.08804 0.09619 0.69101 0.0
C39 C 1.00204 0.09288 0.73644 0.0
O40 O 1.01132 0.08455 0.70762 0.0
H41 H 0.08065 0.07456 0.76476 0.0
H42 H 0.06226 0.07574 0.6708 0.0
O43 O 0.06952 0.01843 0.7701 0.0
H44 H 0.02913 0.98097 0.67279 0.0
H45 H 0.09461 0.10868 0.67072 0.0
Cu46 Cu 0.27669 0.07714 0.10325 0.0
N47 N 0.26435 0.06632 0.06758 0.0
N48 N 0.25462 0.04028 0.03327 0.0
C49 C 0.24922 0.04936 0.06332 0.0
C50 C 0.2734 0.05183 0.01829 0.0
C51 C 0.27973 0.06683 0.03926 0.0
O52 O 0.2915 0.04001 0.12822 0.0
C53 C 0.28309 0.12189 0.06117 0.0
O54 O 0.25686 0.1273 0.06774 0.0
H55 H 0.23671 0.04158 0.08232 0.0
H56 H 0.29722 0.07432 0.03467 0.0
N57 N 0.25512 0.10325 0.13302 0.0
N58 N 0.25179 0.13673 0.16648 0.0
C59 C 0.26259 0.12607 0.13815 0.0
C60 C 0.23868 0.09965 0.15964 0.0
C61 C 0.23672 0.12013 0.18025 0.0
C62 C 0.27458 0.02719 0.14239 0.0
O63 O 0.24887 0.03898 0.13973 0.0
H64 H 0.27807 0.13303 0.12309 0.0
H65 H 0.23029 0.08224 0.16534 0.0
O66 O 0.2982 0.10064 0.07711 0.0
H67 H 0.28369 0.04766 0.99459 0.0
H68 H 0.2262 0.12177 0.20413 0.0
Cu69 Cu 0.06893 0.29973 0.09559 0.0
N70 N 0.08416 0.32061 0.06145 0.0
N71 N 0.11253 0.32612 0.01752 0.0
C72 C 0.10744 0.3091 0.04331 0.0
C73 C 0.09169 0.34989 0.01976 0.0
C74 C 0.07421 0.34639 0.04668 0.0
O75 O 0.09536 0.28877 0.12941 0.0
C76 C 0.05904 0.26954 0.04434 0.0
O77 O 0.08227 0.27082 0.02944 0.0
H78 H 0.11952 0.28762 0.04756 0.0
H79 H 0.05497 0.36107 0.05394 0.0
N80 N 0.03658 0.31901 0.1199 0.0
N81 N 0.99704 0.3193 0.14967 0.0
C82 C 1.0132 0.31199 0.12213 0.0
C83 C 0.03507 0.33132 0.14716 0.0
C84 C 1.01091 0.33173 0.16526 0.0
C85 C 0.12127 0.28163 0.12644 0.0
O86 O 0.13462 0.27346 0.09908 0.0
H87 H 1.0094 0.29922 0.10535 0.0
H88 H 0.05154 0.33696 0.15498 0.0
O89 O 0.05382 0.27465 0.074 0.0
H90 H 0.08845 0.36787 1.00226 0.0
H91 H 1.00495 0.33917 0.18898 0.0
Cu92 Cu 0.81789 0.0113 0.98672 0.0
N93 N 0.83458 0.03057 0.95277 0.0
N94 N 0.83177 0.07221 0.92417 0.0
C95 C 0.83215 0.05823 0.95353 0.0
C96 C 0.83545 0.05227 0.90362 0.0
C97 C 0.83692 0.02682 0.92118 0.0
O98 O 0.80144 0.04092 0.01703 0.0
C99 C 0.81489 0.97 0.95255 0.0
O100 O 0.84046 0.9675 0.95395 0.0
H101 H 0.82763 0.06866 0.97531 0.0
H102 H 0.8359 1.00813 0.91139 0.0
N103 N 0.83906 0.98283 0.01357 0.0
N104 N 0.84483 0.95232 0.05688 0.0
C105 C 0.82702 0.97113 0.03922 0.0
C106 C 0.86571 0.9707 0.01477 0.0
C107 C 0.86928 0.95142 0.04139 0.0
C108 C 0.81849 0.04509 0.03395 0.0
O109 O 0.84379 0.03005 0.02978 0.0
H110 H 0.80537 0.97581 0.04434 0.0
H111 H 0.88129 0.97532 0.99751 0.0
O112 O 0.79769 0.99063 0.96627 0.0
H113 H 0.83383 0.05634 0.8781 0.0
H114 H 0.8882 0.93725 0.04825 0.0
Cu115 Cu 0.02184 0.7853 0.01269 0.0
N116 N 1.00668 0.7648 0.98961 0.0
N117 N 0.9775 0.75889 0.9583 0.0
C118 C 0.98315 0.77639 0.9768 0.0
C119 C 0.99841 0.73519 0.95946 0.0
C120 C 1.01647 0.73893 0.97872 0.0
O121 O 0.98829 0.80575 0.04208 0.0
C122 C 0.06613 0.81058 0.96736 0.0
O123 O 0.05478 0.83746 0.97129 0.0
H124 H 0.97087 0.79783 0.98001 0.0
H125 H 0.03589 0.72438 0.98317 0.0
N126 N 0.04154 0.76484 0.04517 0.0
N127 N 0.06734 0.76491 0.08343 0.0
C128 C 0.06403 0.7701 0.05195 0.0
C129 C 0.03032 0.75606 0.07329 0.0
C130 C 0.04611 0.75607 0.09684 0.0
C131 C 0.96718 0.81867 0.06054 0.0
O132 O 0.95941 0.84632 0.05677 0.0
H133 H 0.07603 0.78038 0.03488 0.0
H134 H 1.01029 0.7537 0.07716 0.0
O135 O 0.05406 0.7925 0.98143 0.0
H136 H 1.00125 0.7172 0.9458 0.0
H137 H 0.04077 0.75271 0.12231 0.0
Cu138 Cu 0.53664 0.54194 0.86682 0.0
N139 N 0.54507 0.56582 0.89193 0.0
N140 N 0.56472 0.59708 0.90384 0.0
C141 C 0.56457 0.57841 0.88304 0.0
C142 C 0.5446 0.59561 0.92705 0.0
C143 C 0.53252 0.57635 0.9196 0.0
O144 O 0.57183 0.51638 0.85184 0.0
C145 C 0.50155 0.59202 0.83633 0.0
O146 O 0.51797 0.60558 0.84278 0.0
H147 H 0.57773 0.57439 0.86105 0.0
H148 H 0.51525 0.57115 0.93275 0.0
N149 N 0.51904 0.51824 0.89118 0.0
N150 N 0.4932 0.4895 0.8951 0.0
C151 C 0.49707 0.51393 0.88192 0.0
C152 C 0.52949 0.4957 0.91115 0.0
C153 C 0.51352 0.4778 0.91353 0.0
C154 C 0.58126 0.49958 0.82967 0.0
O155 O 0.56657 0.49979 0.80661 0.0
H156 H 0.48624 0.52646 0.86257 0.0
H157 H 0.54902 0.4909 0.91992 0.0
O158 O 0.50883 0.56507 0.83943 0.0
H159 H 0.53818 0.60829 0.94739 0.0
H160 H 0.51825 0.4565 0.92471 0.0
Cu161 Cu 0.55214 0.55352 0.23601 0.0
N162 N 0.53385 0.53333 0.21837 0.0
N163 N 0.50601 0.50694 0.2196 0.0
C164 C 0.51372 0.52488 0.23522 0.0
C165 C 0.52218 0.50418 0.1916 0.0
C166 C 0.53926 0.52059 0.19088 0.0
O167 O 0.52536 0.58457 0.25755 0.0
C168 C 0.5953 0.50657 0.24387 0.0
O169 O 0.59261 0.50728 0.21329 0.0
H170 H 0.50573 0.53125 0.25902 0.0
H171 H 0.55524 0.52209 0.17237 0.0
N172 N 0.57249 0.57106 0.20679 0.0
N173 N 0.6009 0.59711 0.20269 0.0
C174 C 0.59453 0.57419 0.21694 0.0
C175 C 0.56473 0.59239 0.18436 0.0
C176 C 0.58243 0.60848 0.18159 0.0
C177 C 0.50486 0.59784 0.24264 0.0
O178 O 0.50207 0.58907 0.21545 0.0
H179 H 0.60268 0.5628 0.23844 0.0
H180 H 0.54575 0.59808 0.17409 0.0
O181 O 0.57893 0.52558 0.26068 0.0
H182 H 0.52245 0.49071 0.17314 0.0
H183 H 0.58009 0.62849 0.16768 0.0
Cu184 Cu 0.75978 0.58729 0.59811 0.0
N185 N 0.73978 0.61544 0.56931 0.0
N186 N 0.73901 0.6427 0.52271 0.0
C187 C 0.75041 0.63421 0.5505 0.0
C188 C 0.71937 0.62989 0.52496 0.0
C189 C 0.7199 0.6132 0.55348 0.0
O190 O 0.77504 0.60759 0.62514 0.0
C191 C 0.78627 0.56121 0.54019 0.0
O192 O 0.78895 0.58572 0.52811 0.0
H193 H 0.769 0.63788 0.5543 0.0
H194 H 0.70911 0.59766 0.55995 0.0
N195 N 0.74087 0.56706 0.62827 0.0
N196 N 0.73916 0.52732 0.65876 0.0
C197 C 0.74442 0.53889 0.62892 0.0
C198 C 0.73278 0.57332 0.65891 0.0
C199 C 0.73177 0.54898 0.67766 0.0
C200 C 0.79165 0.62183 0.61635 0.0
O201 O 0.80541 0.61869 0.588 0.0
H202 H 0.75371 0.5265 0.60879 0.0
H203 H 0.73079 0.59348 0.66772 0.0
O204 O 0.78072 0.55726 0.5704 0.0
H205 H 0.70752 0.62996 0.50572 0.0
H206 H 0.72768 0.54703 0.7035 0.0
Cu207 Cu 0.56434 0.8077 0.58438 0.0
N208 N 0.59188 0.8034 0.54673 0.0
N209 N 0.62547 0.80177 0.50523 0.0
C210 C 0.61685 0.78833 0.53322 0.0
C211 C 0.6052 0.82547 0.50121 0.0
C212 C 0.58576 0.82664 0.52614 0.0
O213 O 0.57953 0.82685 0.61154 0.0
C214 C 0.53421 0.80534 0.5434 0.0
O215 O 0.55059 0.78005 0.54977 0.0
H216 H 0.62893 0.76881 0.54428 0.0
H217 H 0.56824 0.84462 0.52947 0.0
N218 N 0.54401 0.78628 0.61467 0.0
N219 N 0.50562 0.78196 0.64596 0.0
C220 C 0.51648 0.79123 0.61712 0.0
C221 C 0.55035 0.77347 0.64373 0.0
C222 C 0.52722 0.7707 0.6626 0.0
C223 C 0.60102 0.80951 0.62124 0.0
O224 O 0.608 0.78355 0.61263 0.0
H225 H 0.50403 0.80367 0.59914 0.0
H226 H 0.57011 0.76844 0.65191 0.0
O227 O 0.53483 0.82568 0.55899 0.0
H228 H 0.60434 0.84151 0.48156 0.0
H229 H 0.52637 0.76193 0.68722 0.0
Cu230 Cu 0.31819 0.50951 0.50361 0.0
N231 N 0.33175 0.53465 0.47199 0.0
N232 N 0.33037 0.57697 0.44393 0.0
C233 C 0.32247 0.56333 0.4716 0.0
C234 C 0.34522 0.55568 0.42605 0.0
C235 C 0.34592 0.52998 0.44311 0.0
O236 O 0.30369 0.53299 0.53852 0.0
C237 C 0.30862 0.47514 0.46516 0.0
O238 O 0.33502 0.46894 0.46264 0.0
H239 H 0.30874 0.57393 0.49079 0.0
H240 H 0.35501 0.5094 0.43418 0.0
N241 N 0.33842 0.4768 0.52761 0.0
N242 N 0.34186 0.445 0.57073 0.0
C243 C 0.32526 0.46335 0.55094 0.0
C244 C 0.36456 0.46647 0.53299 0.0
C245 C 0.36663 0.44718 0.55971 0.0
C246 C 0.32396 0.53747 0.54841 0.0
O247 O 0.34796 0.52798 0.533 0.0
H248 H 0.30351 0.46886 0.55507 0.0
H249 H 0.38061 0.47418 0.52034 0.0
O250 O 0.29484 0.49461 0.48299 0.0
H251 H 0.35438 0.55823 0.40185 0.0
H252 H 0.38469 0.43704 0.57144 0.0
Cu253 Cu 0.51581 0.29643 0.51352 0.0
N254 N 0.5455 0.28023 0.48261 0.0
N255 N 0.58261 0.28065 0.44807 0.0
C256 C 0.57015 0.2851 0.47822 0.0
C257 C 0.56514 0.27298 0.43285 0.0
C258 C 0.54268 0.27268 0.45382 0.0
O259 O 0.53026 0.32199 0.53385 0.0
C260 C 0.47397 0.29227 0.48073 0.0
O261 O 0.48653 0.26559 0.48761 0.0
H262 H 0.5776 0.29453 0.49552 0.0
H263 H 0.52442 0.27018 0.44702 0.0
N264 N 0.50312 0.2743 0.54868 0.0
N265 N 0.47569 0.26667 0.59293 0.0
C266 C 0.4809 0.28541 0.56882 0.0
C267 C 0.5124 0.2473 0.56033 0.0
C268 C 0.49567 0.2426 0.58745 0.0
C269 C 0.54682 0.30906 0.55431 0.0
O270 O 0.55106 0.2818 0.56057 0.0
H271 H 0.4688 0.3071 0.56555 0.0
H272 H 0.53032 0.23223 0.55026 0.0
O273 O 0.48318 0.31111 0.48972 0.0
H274 H 0.56756 0.26988 0.40751 0.0
H275 H 0.49849 0.223 0.60228 0.0
Gd276 Gd 0.30179 0.32579 0.27993 0.0
Gd277 Gd 0.2686 0.28748 0.34317 0.0
C278 C 0.21307 0.3403 0.42055 0.0
C279 C 0.23731 0.32273 0.46747 0.0
C280 C 0.2551 0.30271 0.4163 0.0
C281 C 0.2336 0.32141 0.40191 0.0
C282 C 0.25673 0.30269 0.44944 0.0
C283 C 0.21549 0.34145 0.45307 0.0
C284 C 0.19028 0.3569 0.40625 0.0
C285 C 0.18822 0.35434 0.37419 0.0
N286 N 0.23192 0.32007 0.37026 0.0
C287 C 0.20939 0.336 0.35638 0.0
H288 H 0.2073 0.3351 0.33156 0.0
C289 C 0.29227 0.26163 0.41285 0.0
N290 N 0.27345 0.28332 0.39844 0.0
C291 C 0.2948 0.26092 0.44551 0.0
C292 C 0.27725 0.28184 0.46378 0.0
H293 H 0.30594 0.24546 0.39866 0.0
H294 H 0.20018 0.35619 0.46753 0.0
H295 H 0.35572 0.26829 0.29376 0.0
H296 H 0.17404 0.37148 0.41981 0.0
H297 H 0.17059 0.36697 0.36293 0.0
H298 H 0.23848 0.32329 0.49283 0.0
H299 H 0.26494 0.36894 0.22575 0.0
H300 H 0.3949 0.23984 0.20361 0.0
H301 H 0.39189 0.23547 0.26275 0.0
H302 H 0.34182 0.30333 0.12729 0.0
H303 H 0.31023 0.24421 0.45656 0.0
H304 H 0.27915 0.28114 0.48915 0.0
H305 H 0.37617 0.26526 0.15335 0.0
H306 H 0.26504 0.37635 0.16674 0.0
N307 N 0.33784 0.29235 0.25286 0.0
C308 C 0.37897 0.25479 0.21712 0.0
C309 C 0.37734 0.25227 0.25048 0.0
C310 C 0.35993 0.27645 0.20159 0.0
C311 C 0.33942 0.29525 0.2203 0.0
C312 C 0.35671 0.27134 0.26803 0.0
N313 N 0.29951 0.33317 0.22423 0.0
C314 C 0.31977 0.31637 0.20559 0.0
C315 C 0.2804 0.35924 0.17735 0.0
C316 C 0.30049 0.34144 0.15785 0.0
C317 C 0.28031 0.3549 0.21066 0.0
C318 C 0.3205 0.31969 0.17186 0.0
H319 H 0.30044 0.34474 0.13204 0.0
O320 O 0.29775 0.37033 0.27285 0.0
O321 O 0.28021 0.32629 0.32835 0.0
O322 O 0.24137 0.30374 0.30254 0.0
O323 O 0.26546 0.32055 0.2581 0.0
O324 O 0.26676 0.36142 0.2988 0.0
O325 O 0.33714 0.34064 0.27898 0.0
O326 O 0.27365 0.24297 0.35261 0.0
O327 O 0.28948 0.28727 0.29452 0.0
O328 O 0.33023 0.30773 0.32009 0.0
O329 O 0.30379 0.29383 0.36396 0.0
O330 O 0.30235 0.25125 0.32307 0.0
O331 O 0.23363 0.2718 0.34685 0.0
C332 C 0.2649 0.35117 0.32822 0.0
C333 C 0.34102 0.30119 0.15321 0.0
C334 C 0.36061 0.27955 0.16804 0.0
C335 C 0.32332 0.36702 0.27382 0.0
C336 C 0.3355 0.38521 0.25084 0.0
C337 C 0.32583 0.39456 0.22081 0.0
C338 C 0.35562 0.39523 0.26007 0.0
C339 C 0.36607 0.41423 0.23922 0.0
C340 C 0.33602 0.41357 0.20023 0.0
C341 C 0.35596 0.42344 0.20935 0.0
C342 C 0.24391 0.313 0.27178 0.0
C343 C 0.30345 0.26189 0.29371 0.0
C344 C 0.24806 0.24571 0.35261 0.0
C345 C 0.23668 0.2279 0.37676 0.0
C346 C 0.24667 0.21994 0.40675 0.0
C347 C 0.21704 0.21675 0.36852 0.0
C348 C 0.20742 0.19768 0.39019 0.0
C349 C 0.23735 0.20084 0.42821 0.0
C350 C 0.21794 0.18965 0.42 0.0
C351 C 0.32644 0.29881 0.3509 0.0
H352 H 0.31003 0.38775 0.21341 0.0
H353 H 0.36318 0.38818 0.28324 0.0
H354 H 0.32828 0.42086 0.17725 0.0
H355 H 0.36346 0.4384 0.19307 0.0
H356 H 0.26206 0.22789 0.41339 0.0
H357 H 0.20938 0.22284 0.34528 0.0
H358 H 0.24542 0.19445 0.45113 0.0
H359 H 0.21139 0.17442 0.43686 0.0
Gd360 Gd 0.78303 0.27684 0.274 0.0
Gd361 Gd 0.80181 0.31574 0.33068 0.0
C362 C 0.85524 0.37359 0.30418 0.0
C363 C 0.88806 0.35641 0.34292 0.0
C364 C 0.85432 0.33229 0.3402 0.0
C365 C 0.84362 0.35171 0.31557 0.0
C366 C 0.87679 0.33442 0.35392 0.0
C367 C 0.8771 0.37615 0.31843 0.0
C368 C 0.84531 0.39166 0.27794 0.0
C369 C 0.82473 0.38734 0.2632 0.0
N370 N 0.82251 0.3487 0.30207 0.0
C371 C 0.81353 0.36577 0.27556 0.0
H372 H 0.79792 0.36301 0.26316 0.0
C373 C 0.85135 0.29364 0.37698 0.0
N374 N 0.84262 0.31162 0.35108 0.0
C375 C 0.87406 0.29437 0.39059 0.0
C376 C 0.88694 0.31476 0.3789 0.0
H377 H 0.84061 0.27872 0.38719 0.0
H378 H 0.8862 0.39283 0.30996 0.0
H379 H 0.79522 0.22444 0.3347 0.0
H380 H 0.85393 0.40845 0.26829 0.0
H381 H 0.81738 0.40071 0.24232 0.0
H382 H 0.90523 0.35841 0.35329 0.0
H383 H 0.74143 0.30916 0.21812 0.0
H384 H 0.72374 0.20019 0.36247 0.0
H385 H 0.77124 0.19517 0.3687 0.0
H386 H 0.66182 0.25715 0.29067 0.0
H387 H 0.88124 0.27964 0.41058 0.0
H388 H 0.90427 0.31561 0.38986 0.0
H389 H 0.68285 0.22403 0.33402 0.0
H390 H 0.69486 0.31504 0.2069 0.0
N391 N 0.76201 0.24652 0.30807 0.0
C392 C 0.73423 0.21325 0.3471 0.0
C393 C 0.76107 0.21027 0.35059 0.0
C394 C 0.72132 0.23287 0.32368 0.0
C395 C 0.73593 0.24932 0.30417 0.0
C396 C 0.77474 0.22699 0.33077 0.0
N397 N 0.7387 0.28334 0.26146 0.0
C398 C 0.72387 0.26845 0.28034 0.0
C399 C 0.70263 0.30212 0.22785 0.0
C400 C 0.68651 0.2885 0.24835 0.0
C401 C 0.72895 0.29883 0.23442 0.0
C402 C 0.69721 0.27097 0.2746 0.0
H403 H 0.66617 0.29093 0.24311 0.0
O404 O 0.78853 0.26998 0.22321 0.0
O405 O 0.81497 0.2957 0.28348 0.0
O406 O 0.77 0.34602 0.30289 0.0
O407 O 0.75484 0.32196 0.26839 0.0
O408 O 0.8005 0.30576 0.23939 0.0
O409 O 0.80331 0.23514 0.25767 0.0
O410 O 0.78829 0.319 0.38093 0.0
O411 O 0.77019 0.29835 0.31877 0.0
O412 O 0.81977 0.24769 0.29822 0.0
O413 O 0.83506 0.27447 0.32938 0.0
O414 O 0.77934 0.28949 0.36508 0.0
O415 O 0.78554 0.35731 0.34977 0.0
C416 C 0.81933 0.30719 0.25559 0.0
C417 C 0.68239 0.25525 0.29451 0.0
C418 C 0.6944 0.2363 0.31908 0.0
C419 C 0.79995 0.24298 0.22765 0.0
C420 C 0.79039 0.22445 0.21018 0.0
C421 C 0.76301 0.22578 0.2136 0.0
C422 C 0.80867 0.20523 0.18984 0.0
C423 C 0.79935 0.18749 0.17349 0.0
C424 C 0.75379 0.20846 0.19708 0.0
C425 C 0.77183 0.18936 0.17721 0.0
C426 C 0.7542 0.34539 0.28116 0.0
C427 C 0.76254 0.28825 0.34582 0.0
C428 C 0.78231 0.34646 0.37917 0.0
C429 C 0.78972 0.35901 0.40567 0.0
C430 C 0.80459 0.34138 0.42947 0.0
C431 C 0.77963 0.3883 0.40939 0.0
C432 C 0.78384 0.39945 0.437 0.0
C433 C 0.80892 0.35241 0.4565 0.0
C434 C 0.79846 0.38112 0.46042 0.0
C435 C 0.83708 0.25044 0.31734 0.0
H436 H 0.74865 0.24016 0.22892 0.0
H437 H 0.82983 0.20419 0.18666 0.0
H438 H 0.73257 0.20993 0.19958 0.0
H439 H 0.76423 0.17633 0.16417 0.0
H440 H 0.81245 0.31885 0.4277 0.0
H441 H 0.76814 0.40221 0.39132 0.0
H442 H 0.82034 0.33858 0.47463 0.0
H443 H 0.80243 0.38917 0.48152 0.0
Gd444 Gd 0.82584 0.80273 0.31188 0.0
Gd445 Gd 0.78976 0.77017 0.26775 0.0
C446 C 0.84192 0.71311 0.19181 0.0
C447 C 0.82378 0.73709 0.14281 0.0
C448 C 0.80601 0.75716 0.19403 0.0
C449 C 0.82431 0.73505 0.20951 0.0
C450 C 0.80505 0.75782 0.16061 0.0
C451 C 0.84205 0.71469 0.1584 0.0
C452 C 0.85835 0.68972 0.20825 0.0
C453 C 0.85744 0.68874 0.24146 0.0
N454 N 0.82372 0.73391 0.24195 0.0
C455 C 0.84033 0.71124 0.25792 0.0
H456 H 0.841 0.70994 0.28335 0.0
C457 C 0.76505 0.79393 0.19852 0.0
N458 N 0.78693 0.77589 0.21203 0.0
C459 C 0.76373 0.79587 0.16546 0.0
C460 C 0.78411 0.77811 0.14632 0.0
H461 H 0.74892 0.80744 0.2133 0.0
H462 H 0.85566 0.69821 0.1445 0.0
H463 H 0.77581 0.86203 0.28915 0.0
H464 H 0.87182 0.67234 0.19555 0.0
H465 H 0.87026 0.67085 0.25441 0.0
H466 H 0.82345 0.73743 0.11715 0.0
H467 H 0.85861 0.764 0.37429 0.0
H468 H 0.73483 0.90106 0.37309 0.0
H469 H 0.74135 0.9001 0.31426 0.0
H470 H 0.77741 0.84067 0.45861 0.0
H471 H 0.74686 0.81085 0.15483 0.0
H472 H 0.78276 0.77927 0.12077 0.0
H473 H 0.74831 0.87881 0.42644 0.0
H474 H 0.85341 0.76219 0.43325 0.0
N475 N 0.79016 0.84035 0.33298 0.0
C476 C 0.75037 0.88397 0.36216 0.0
C477 C 0.75401 0.88352 0.32898 0.0
C478 C 0.76664 0.86228 0.38089 0.0
C479 C 0.7866 0.84033 0.36555 0.0
C480 C 0.77401 0.86158 0.31474 0.0
N481 N 0.82293 0.79825 0.36881 0.0
C482 C 0.80316 0.81867 0.38385 0.0
C483 C 0.83895 0.77795 0.41973 0.0
C484 C 0.81792 0.79778 0.43551 0.0
C485 C 0.84155 0.77885 0.3863 0.0
C486 C 0.80011 0.81879 0.41767 0.0
H487 H 0.81614 0.79723 0.46143 0.0
O488 O 0.86631 0.80015 0.32134 0.0
O489 O 0.82712 0.78379 0.26592 0.0
O490 O 0.80427 0.73955 0.3099 0.0
O491 O 0.82483 0.76101 0.34086 0.0
O492 O 0.86269 0.77352 0.28464 0.0
O493 O 0.83863 0.84078 0.30758 0.0
O494 O 0.74847 0.77157 0.26367 0.0
O495 O 0.78889 0.7887 0.31348 0.0
O496 O 0.81483 0.83153 0.26582 0.0
O497 O 0.78842 0.81196 0.24027 0.0
O498 O 0.75389 0.8015 0.2932 0.0
O499 O 0.77764 0.73191 0.27696 0.0
C500 C 0.85206 0.77128 0.25938 0.0
C501 C 0.78 0.84034 0.43274 0.0
C502 C 0.76346 0.86209 0.41441 0.0
C503 C 0.8625 0.82738 0.31637 0.0
C504 C 0.87322 0.84107 0.33876 0.0
C505 C 0.87378 0.83141 0.37127 0.0
C506 C 0.88426 0.86329 0.32729 0.0
C507 C 0.89598 0.87505 0.34831 0.0
C508 C 0.88471 0.84356 0.39218 0.0
C509 C 0.89582 0.86522 0.3808 0.0
C510 C 0.81589 0.73978 0.33585 0.0
C511 C 0.76414 0.80207 0.31929 0.0
C512 C 0.75304 0.74446 0.27022 0.0
C513 C 0.74186 0.72987 0.24984 0.0
C514 C 0.75105 0.72783 0.21722 0.0
C515 C 0.72169 0.71765 0.26326 0.0
C516 C 0.71038 0.7043 0.24376 0.0
C517 C 0.73974 0.71465 0.19782 0.0
C518 C 0.71936 0.70299 0.21097 0.0
C519 C 0.80035 0.83163 0.242 0.0
H520 H 0.86632 0.8142 0.38067 0.0
H521 H 0.88443 0.8708 0.30216 0.0
H522 H 0.88495 0.83584 0.41718 0.0
H523 H 0.90459 0.8742 0.39735 0.0
H524 H 0.76699 0.73612 0.20661 0.0
H525 H 0.71476 0.71859 0.2886 0.0
H526 H 0.74692 0.71329 0.17264 0.0
H527 H 0.71093 0.69243 0.19572 0.0
Gd528 Gd 0.31571 0.82013 0.32722 0.0
Gd529 Gd 0.28433 0.79162 0.27528 0.0
C530 C 0.24376 0.72426 0.31847 0.0
C531 C 0.26386 0.68686 0.28279 0.0
C532 C 0.27751 0.72993 0.27523 0.0
C533 C 0.2594 0.74069 0.30092 0.0
C534 C 0.27967 0.70302 0.26567 0.0
C535 C 0.2461 0.69738 0.30927 0.0
C536 C 0.22604 0.73534 0.34468 0.0
C537 C 0.22385 0.76234 0.35258 0.0
N538 N 0.25693 0.76716 0.30865 0.0
C539 C 0.23922 0.77811 0.33413 0.0
H540 H 0.23747 0.79851 0.34168 0.0
C541 C 0.30878 0.73712 0.23181 0.0
N542 N 0.29246 0.746 0.25897 0.0
C543 C 0.31189 0.71047 0.22173 0.0
C544 C 0.29739 0.69325 0.23885 0.0
H545 H 0.3197 0.75058 0.2181 0.0
H546 H 0.23417 0.68459 0.3224 0.0
H547 H 0.36166 0.80952 0.25909 0.0
H548 H 0.21394 0.72326 0.35893 0.0
H549 H 0.21036 0.77105 0.37302 0.0
H550 H 0.26531 0.66616 0.27582 0.0
H551 H 0.27932 0.86702 0.37906 0.0
H552 H 0.39326 0.87942 0.24146 0.0
H553 H 0.39201 0.83305 0.2278 0.0
H554 H 0.34528 0.94084 0.32212 0.0
H555 H 0.32527 0.70335 0.20059 0.0
H556 H 0.29966 0.67269 0.23085 0.0
H557 H 0.37638 0.91891 0.27721 0.0
H558 H 0.27699 0.91403 0.39385 0.0
N559 N 0.34485 0.84167 0.29193 0.0
C560 C 0.37964 0.86909 0.2557 0.0
C561 C 0.37908 0.8429 0.24803 0.0
C562 C 0.36247 0.88176 0.28147 0.0
C563 C 0.34467 0.86768 0.29895 0.0
C564 C 0.36183 0.82934 0.26655 0.0
N565 N 0.30894 0.86707 0.33922 0.0
C566 C 0.32642 0.88058 0.32346 0.0
C567 C 0.29079 0.90504 0.37378 0.0
C568 C 0.3081 0.91946 0.35726 0.0
C569 C 0.29189 0.87854 0.3649 0.0
C570 C 0.32644 0.90716 0.33209 0.0
H571 H 0.30747 0.93985 0.36448 0.0
O572 O 0.31503 0.8183 0.37843 0.0
O573 O 0.30431 0.78157 0.32019 0.0
O574 O 0.25118 0.82702 0.29946 0.0
O575 O 0.27261 0.84793 0.33038 0.0
O576 O 0.29224 0.79757 0.36408 0.0
O577 O 0.3539 0.80849 0.34815 0.0
O578 O 0.28395 0.80102 0.22453 0.0
O579 O 0.29495 0.83065 0.28284 0.0
O580 O 0.34817 0.78388 0.30422 0.0
O581 O 0.32717 0.76178 0.27407 0.0
O582 O 0.31105 0.81188 0.24107 0.0
O583 O 0.24612 0.80335 0.25403 0.0
C584 C 0.29398 0.7764 0.34819 0.0
C585 C 0.34493 0.92053 0.31569 0.0
C586 C 0.36266 0.90802 0.29018 0.0
C587 C 0.34118 0.81101 0.37697 0.0
C588 C 0.35474 0.80586 0.40609 0.0
C589 C 0.33996 0.80496 0.4363 0.0
C590 C 0.38239 0.80252 0.40394 0.0
C591 C 0.39522 0.79818 0.43181 0.0
C592 C 0.35284 0.8005 0.46413 0.0
C593 C 0.38041 0.79705 0.46197 0.0
C594 C 0.25075 0.84614 0.31924 0.0
C595 C 0.30636 0.83483 0.25517 0.0
C596 C 0.25802 0.80642 0.22519 0.0
C597 C 0.24811 0.79874 0.1976 0.0
C598 C 0.26604 0.7847 0.17277 0.0
C599 C 0.22055 0.8087 0.19411 0.0
C600 C 0.21082 0.80466 0.16617 0.0
C601 C 0.25644 0.78106 0.14474 0.0
C602 C 0.22898 0.79109 0.14132 0.0
C603 C 0.34898 0.76395 0.28532 0.0
H604 H 0.31847 0.80779 0.43846 0.0
H605 H 0.39386 0.80373 0.38076 0.0
H606 H 0.3414 0.80006 0.48738 0.0
H607 H 0.39004 0.79436 0.48382 0.0
H608 H 0.2875 0.77703 0.17463 0.0
H609 H 0.20658 0.81938 0.21323 0.0
H610 H 0.27028 0.77021 0.12574 0.0
H611 H 0.22179 0.78701 0.11991 0.0
Gd612 Gd 0.2801 0.77076 0.7773 0.0
Gd613 Gd 0.2983 0.80776 0.83128 0.0
C614 C 0.34552 0.86931 0.78679 0.0
C615 C 0.38478 0.85373 0.81637 0.0
C616 C 0.35219 0.82688 0.82262 0.0
C617 C 0.3363 0.84673 0.80216 0.0
C618 C 0.37691 0.82994 0.82935 0.0
C619 C 0.36933 0.87314 0.79474 0.0
C620 C 0.33098 0.88704 0.76325 0.0
C621 C 0.30843 0.88153 0.75467 0.0
N622 N 0.31276 0.84305 0.79581 0.0
C623 C 0.29974 0.85936 0.7709 0.0
H624 H 0.28324 0.85512 0.7619 0.0
C625 C 0.3597 0.784 0.85496 0.0
N626 N 0.34392 0.80422 0.83525 0.0
C627 C 0.38466 0.78572 0.86133 0.0
C628 C 0.39322 0.80891 0.84873 0.0
H629 H 0.35292 0.76699 0.86752 0.0
H630 H 0.37634 0.89068 0.78365 0.0
H631 H 0.2944 0.71261 0.82964 0.0
H632 H 0.33759 0.90434 0.75069 0.0
H633 H 0.29774 0.89424 0.73531 0.0
H634 H 0.40344 0.8566 0.82175 0.0
H635 H 0.23783 0.80684 0.72273 0.0
H636 H 0.22383 0.68602 0.85356 0.0
H637 H 0.27179 0.67972 0.85881 0.0
H638 H 0.15978 0.74984 0.78909 0.0
H639 H 0.39689 0.76957 0.8769 0.0
H640 H 0.41238 0.81043 0.8542 0.0
H641 H 0.18196 0.71295 0.82848 0.0
H642 H 0.19122 0.81315 0.71113 0.0
N643 N 0.25981 0.73858 0.80801 0.0
C644 C 0.23371 0.70077 0.84057 0.0
C645 C 0.26075 0.69718 0.84363 0.0
C646 C 0.21991 0.72302 0.82027 0.0
C647 C 0.23375 0.74163 0.80371 0.0
C648 C 0.27352 0.71628 0.82711 0.0
N649 N 0.23566 0.77858 0.76408 0.0
C650 C 0.22123 0.76242 0.78144 0.0
C651 C 0.19927 0.79908 0.73122 0.0
C652 C 0.18351 0.78424 0.7504 0.0
C653 C 0.2256 0.79549 0.73794 0.0
C654 C 0.19461 0.76511 0.77532 0.0
H655 H 0.16317 0.78685 0.74497 0.0
O656 O 0.28717 0.76807 0.72615 0.0
O657 O 0.31488 0.7867 0.78544 0.0
O658 O 0.26246 0.84063 0.81045 0.0
O659 O 0.24902 0.81367 0.77784 0.0
O660 O 0.29753 0.80079 0.74349 0.0
O661 O 0.2947 0.72965 0.75788 0.0
O662 O 0.30197 0.79635 0.88201 0.0
O663 O 0.27114 0.78007 0.82941 0.0
O664 O 0.31867 0.74175 0.79512 0.0
O665 O 0.31895 0.76067 0.84235 0.0
O666 O 0.2546 0.81723 0.85195 0.0
O667 O 0.29791 0.83936 0.86257 0.0
C668 C 0.31862 0.79881 0.75763 0.0
C669 C 0.18032 0.74779 0.7932 0.0
C670 C 0.19296 0.72675 0.81557 0.0
C671 C 0.29473 0.74066 0.72839 0.0
C672 C 0.28614 0.72683 0.70481 0.0
C673 C 0.26362 0.74042 0.68806 0.0
C674 C 0.30282 0.70046 0.69651 0.0
C675 C 0.29751 0.68805 0.67111 0.0
C676 C 0.25794 0.72765 0.66317 0.0
C677 C 0.27493 0.70161 0.6545 0.0
C678 C 0.24584 0.83755 0.79071 0.0
C679 C 0.24941 0.79501 0.84492 0.0
C680 C 0.29883 0.8222 0.88834 0.0
C681 C 0.28019 0.83279 0.91652 0.0
C682 C 0.2769 0.81422 0.94327 0.0
C683 C 0.26756 0.86185 0.91816 0.0
C684 C 0.25194 0.87224 0.94617 0.0
C685 C 0.26091 0.82446 0.97095 0.0
C686 C 0.24843 0.8533 0.97244 0.0
C687 C 0.32842 0.74026 0.82272 0.0
H688 H 0.25087 0.76109 0.69346 0.0
H689 H 0.32046 0.69005 0.70904 0.0
H690 H 0.24062 0.73814 0.65026 0.0
H691 H 0.2704 0.69195 0.63498 0.0
H692 H 0.2871 0.79185 0.94304 0.0
H693 H 0.27072 0.87662 0.89823 0.0
H694 H 0.25882 0.81008 0.99164 0.0
H695 H 0.23722 0.86095 0.99469 0.0
Gd696 Gd 0.31722 0.3005 0.83462 0.0
Gd697 Gd 0.28071 0.27036 0.78803 0.0
C698 C 0.33672 0.20706 0.7202 0.0
C699 C 0.32194 0.22748 0.66838 0.0
C700 C 0.30082 0.25101 0.71678 0.0
C701 C 0.31752 0.22977 0.73514 0.0
C702 C 0.30265 0.24981 0.68322 0.0
C703 C 0.33888 0.20614 0.68683 0.0
C704 C 0.35321 0.1858 0.73919 0.0
C705 C 0.35058 0.18754 0.77218 0.0
N706 N 0.31488 0.23106 0.76748 0.0
C707 C 0.33137 0.21034 0.78596 0.0
H708 H 0.33078 0.21127 0.81128 0.0
C709 C 0.26363 0.29197 0.71461 0.0
N710 N 0.28221 0.27233 0.73168 0.0
C711 C 0.2648 0.29174 0.68138 0.0
C712 C 0.28458 0.27073 0.66555 0.0
H713 H 0.24798 0.30813 0.72678 0.0
H714 H 0.35353 0.1889 0.67505 0.0
H715 H 0.26874 0.36316 0.81662 0.0
H716 H 0.36821 0.16813 0.72858 0.0
H717 H 0.36357 0.17143 0.78707 0.0
H718 H 0.32368 0.22631 0.64267 0.0
H719 H 0.35275 0.25949 0.89263 0.0
H720 H 0.23706 0.40236 0.90306 0.0
H721 H 0.23981 0.40297 0.84426 0.0
H722 H 0.28028 0.33624 0.9842 0.0
H723 H 0.25032 0.30767 0.66805 0.0
H724 H 0.28535 0.27049 0.6398 0.0
H725 H 0.25101 0.37671 0.95498 0.0
H726 H 0.352 0.25616 0.95145 0.0
N727 N 0.28475 0.33917 0.85879 0.0
C728 C 0.25037 0.38451 0.89097 0.0
C729 C 0.25201 0.38503 0.8578 0.0
C730 C 0.26574 0.36095 0.90821 0.0
C731 C 0.28321 0.33839 0.89131 0.0
C732 C 0.26905 0.36208 0.84208 0.0
N733 N 0.31787 0.29506 0.89102 0.0
C734 C 0.29992 0.3156 0.90784 0.0
C735 C 0.33705 0.2728 0.93958 0.0
C736 C 0.31773 0.29273 0.95736 0.0
C737 C 0.33727 0.2747 0.9063 0.0
C738 C 0.2993 0.31483 0.94154 0.0
H739 H 0.31782 0.29145 0.98315 0.0
O740 O 0.35967 0.29384 0.8364 0.0
O741 O 0.31806 0.28217 0.78907 0.0
O742 O 0.29063 0.24045 0.83376 0.0
O743 O 0.31415 0.26013 0.86344 0.0
O744 O 0.35227 0.26713 0.81072 0.0
O745 O 0.33327 0.33652 0.82942 0.0
O746 O 0.23841 0.27798 0.78366 0.0
O747 O 0.27901 0.28999 0.83317 0.0
O748 O 0.30374 0.33143 0.79135 0.0
O749 O 0.286 0.30956 0.75718 0.0
O750 O 0.24693 0.30698 0.8075 0.0
O751 O 0.26338 0.23522 0.79422 0.0
C752 C 0.34229 0.26733 0.78424 0.0
C753 C 0.2811 0.33663 0.95836 0.0
C754 C 0.26449 0.3597 0.94172 0.0
C755 C 0.35769 0.32067 0.83352 0.0
C756 C 0.37307 0.33023 0.85442 0.0
C757 C 0.38265 0.31363 0.88199 0.0
C758 C 0.37998 0.35536 0.84546 0.0
C759 C 0.39566 0.36404 0.86448 0.0
C760 C 0.39799 0.32241 0.90099 0.0
C761 C 0.40442 0.34752 0.89239 0.0
C762 C 0.3033 0.2402 0.85933 0.0
C763 C 0.2554 0.30688 0.83496 0.0
C764 C 0.23951 0.25138 0.78818 0.0
C765 C 0.22461 0.24102 0.76739 0.0
C766 C 0.21635 0.25629 0.73857 0.0
C767 C 0.21678 0.21656 0.77759 0.0
C768 C 0.20163 0.20718 0.75853 0.0
C769 C 0.20165 0.24671 0.71949 0.0
C770 C 0.19438 0.22225 0.72931 0.0
C771 C 0.29369 0.33118 0.76398 0.0
H772 H 0.37896 0.29353 0.88856 0.0
H773 H 0.3734 0.36794 0.82374 0.0
H774 H 0.4053 0.30947 0.92215 0.0
H775 H 0.41684 0.35374 0.90712 0.0
H776 H 0.22051 0.27602 0.73105 0.0
H777 H 0.22212 0.20514 0.80035 0.0
H778 H 0.19539 0.25862 0.69735 0.0
H779 H 0.18232 0.21552 0.71455 0.0
Gd780 Gd 0.81512 0.31238 0.8258 0.0
Gd781 Gd 0.77809 0.28661 0.7727 0.0
C782 C 0.73826 0.2199 0.81992 0.0
C783 C 0.75808 0.18133 0.78582 0.0
C784 C 0.77301 0.22366 0.77711 0.0
C785 C 0.75449 0.23551 0.80196 0.0
C786 C 0.77454 0.1966 0.76838 0.0
C787 C 0.74031 0.19275 0.81186 0.0
C788 C 0.71987 0.23228 0.84498 0.0
C789 C 0.71734 0.25987 0.85107 0.0
N790 N 0.75179 0.26246 0.80808 0.0
C791 C 0.73316 0.27485 0.83205 0.0
H792 H 0.73071 0.29602 0.83757 0.0
C793 C 0.80357 0.22965 0.73236 0.0
N794 N 0.78789 0.23937 0.75974 0.0
C795 C 0.80651 0.20262 0.72359 0.0
C796 C 0.79201 0.18596 0.74175 0.0
H797 H 0.81352 0.24306 0.71684 0.0
H798 H 0.72786 0.18062 0.82524 0.0
H799 H 0.85836 0.3037 0.75737 0.0
H800 H 0.70728 0.22088 0.85949 0.0
H801 H 0.70306 0.26971 0.87034 0.0
H802 H 0.75902 0.16058 0.77943 0.0
H803 H 0.77844 0.35767 0.88023 0.0
H804 H 0.88804 0.37522 0.73917 0.0
H805 H 0.88783 0.32848 0.7253 0.0
H806 H 0.83766 0.43659 0.81899 0.0
H807 H 0.81935 0.19501 0.70226 0.0
H808 H 0.79382 0.16526 0.73446 0.0
H809 H 0.86959 0.41508 0.77448 0.0
H810 H 0.77325 0.4059 0.89367 0.0
N811 N 0.84163 0.33565 0.7901 0.0
C812 C 0.87506 0.36428 0.75371 0.0
C813 C 0.87497 0.33794 0.74578 0.0
C814 C 0.85805 0.37644 0.77992 0.0
C815 C 0.8413 0.36146 0.79794 0.0
C816 C 0.8582 0.3238 0.76436 0.0
N817 N 0.8066 0.35926 0.8392 0.0
C818 C 0.82297 0.3738 0.82278 0.0
C819 C 0.78702 0.39733 0.87338 0.0
C820 C 0.80296 0.41289 0.85595 0.0
C821 C 0.78957 0.37023 0.86515 0.0
C822 C 0.82147 0.40107 0.83065 0.0
H823 H 0.80119 0.43378 0.86261 0.0
O824 O 0.82205 0.30404 0.87618 0.0
O825 O 0.79913 0.27744 0.81714 0.0
O826 O 0.74857 0.32388 0.79735 0.0
O827 O 0.77146 0.33978 0.83204 0.0
O828 O 0.79195 0.29037 0.86325 0.0
O829 O 0.85614 0.30086 0.84083 0.0
O830 O 0.77102 0.29014 0.72239 0.0
O831 O 0.79275 0.32284 0.78121 0.0
O832 O 0.84486 0.27472 0.80148 0.0
O833 O 0.82165 0.25992 0.76621 0.0
O834 O 0.80179 0.30895 0.73642 0.0
O835 O 0.7372 0.30192 0.75816 0.0
C836 C 0.7897 0.27196 0.8454 0.0
C837 C 0.83855 0.41567 0.81324 0.0
C838 C 0.85682 0.40337 0.788 0.0
C839 C 0.84812 0.29938 0.87142 0.0
C840 C 0.86087 0.31157 0.89415 0.0
C841 C 0.84589 0.33657 0.90798 0.0
C842 C 0.88677 0.29735 0.90469 0.0
C843 C 0.89689 0.30818 0.92889 0.0
C844 C 0.85596 0.34765 0.93079 0.0
C845 C 0.88107 0.33369 0.94115 0.0
C846 C 0.74932 0.34089 0.81908 0.0
C847 C 0.80061 0.32995 0.75259 0.0
C848 C 0.74483 0.2988 0.72779 0.0
C849 C 0.72915 0.286 0.70997 0.0
C850 C 0.73498 0.25661 0.71082 0.0
C851 C 0.70854 0.30296 0.6914 0.0
C852 C 0.69406 0.29027 0.6745 0.0
C853 C 0.7209 0.24412 0.69408 0.0
C854 C 0.70055 0.26078 0.67615 0.0
C855 C 0.84378 0.25806 0.77952 0.0
H856 H 0.82592 0.34738 0.90194 0.0
H857 H 0.89851 0.27768 0.89491 0.0
H858 H 0.84399 0.36708 0.94088 0.0
H859 H 0.88819 0.34314 0.95882 0.0
H860 H 0.75053 0.24309 0.72419 0.0
H861 H 0.70372 0.32572 0.69026 0.0
H862 H 0.72584 0.22138 0.69502 0.0
H863 H 0.68988 0.25058 0.66331 0.0
Gd864 Gd 0.7993 0.82078 0.75926 0.0
Gd865 Gd 0.76712 0.78258 0.82357 0.0
C866 C 0.71778 0.84565 0.89594 0.0
C867 C 0.74057 0.82783 0.94382 0.0
C868 C 0.75617 0.80381 0.89462 0.0
C869 C 0.73588 0.82337 0.87917 0.0
C870 C 0.75805 0.80531 0.92747 0.0
C871 C 0.7206 0.84806 0.92803 0.0
C872 C 0.69708 0.86473 0.88017 0.0
C873 C 0.69437 0.86107 0.84871 0.0
N874 N 0.73331 0.82022 0.84821 0.0
C875 C 0.71249 0.83859 0.83315 0.0
H876 H 0.70954 0.83683 0.80892 0.0
C877 C 0.79015 0.76017 0.89431 0.0
N878 N 0.77306 0.78239 0.87823 0.0
C879 C 0.79264 0.76068 0.92674 0.0
C880 C 0.77687 0.78362 0.94329 0.0
H881 H 0.8024 0.74206 0.88194 0.0
H882 H 0.70701 0.86515 0.94108 0.0
H883 H 0.84777 0.75644 0.76921 0.0
H884 H 0.68295 0.88218 0.89215 0.0
H885 H 0.67828 0.87565 0.83633 0.0
H886 H 0.74198 0.82948 0.96889 0.0
H887 H 0.76184 0.86626 0.70648 0.0
H888 H 0.88801 0.73422 0.6777 0.0
H889 H 0.88302 0.72478 0.73647 0.0
H890 H 0.838 0.80463 0.60488 0.0
H891 H 0.80667 0.74332 0.93896 0.0
H892 H 0.77878 0.78395 0.96849 0.0
H893 H 0.87125 0.76413 0.62897 0.0
H894 H 0.76169 0.87598 0.6479 0.0
N895 N 0.8326 0.78581 0.73012 0.0
C896 C 0.87252 0.74885 0.69211 0.0
C897 C 0.86979 0.74347 0.72522 0.0
C898 C 0.85477 0.77257 0.67788 0.0
C899 C 0.83479 0.79095 0.6977 0.0
C900 C 0.8497 0.76209 0.74388 0.0
N901 N 0.7957 0.82966 0.70361 0.0
C902 C 0.81577 0.81352 0.68407 0.0
C903 C 0.77683 0.85814 0.65773 0.0
C904 C 0.79684 0.84124 0.63737 0.0
C905 C 0.77673 0.85224 0.6909 0.0
C906 C 0.81664 0.81864 0.65039 0.0
H907 H 0.79689 0.84587 0.61165 0.0
O908 O 0.79689 0.86495 0.75401 0.0
O909 O 0.78271 0.81955 0.81059 0.0
O910 O 0.73863 0.79922 0.78368 0.0
O911 O 0.75888 0.82478 0.74309 0.0
O912 O 0.76879 0.85679 0.7846 0.0
O913 O 0.83612 0.83398 0.754 0.0
O914 O 0.77023 0.74079 0.84381 0.0
O915 O 0.78359 0.78355 0.77257 0.0
O916 O 0.83026 0.79861 0.79344 0.0
O917 O 0.80977 0.77694 0.83707 0.0
O918 O 0.79374 0.74513 0.79793 0.0
O919 O 0.73071 0.7675 0.83251 0.0
C920 C 0.76973 0.84529 0.81358 0.0
C921 C 0.837 0.80095 0.63075 0.0
C922 C 0.85597 0.77794 0.64446 0.0
C923 C 0.82282 0.86072 0.75171 0.0
C924 C 0.83361 0.88007 0.72859 0.0
C925 C 0.82054 0.8925 0.7013 0.0
C926 C 0.85499 0.88912 0.73605 0.0
C927 C 0.86285 0.91089 0.71675 0.0
C928 C 0.82828 0.91377 0.682 0.0
C929 C 0.84894 0.92321 0.68983 0.0
C930 C 0.73849 0.81539 0.75612 0.0
C931 C 0.79448 0.75754 0.7695 0.0
C932 C 0.74472 0.74311 0.84495 0.0
C933 C 0.73706 0.71654 0.8463 0.0
C934 C 0.75721 0.69045 0.84891 0.0
C935 C 0.70976 0.71666 0.8501 0.0
C936 C 0.70307 0.69099 0.85549 0.0
C937 C 0.75049 0.66523 0.8547 0.0
C938 C 0.72367 0.66545 0.85776 0.0
C939 C 0.8309 0.78413 0.82177 0.0
H940 H 0.80361 0.88674 0.69548 0.0
H941 H 0.86507 0.87954 0.75715 0.0
H942 H 0.81769 0.92355 0.66136 0.0
H943 H 0.85352 0.94067 0.67503 0.0
H944 H 0.7783 0.68941 0.84744 0.0
H945 H 0.69388 0.73647 0.84956 0.0
H946 H 0.76615 0.64543 0.85734 0.0
H947 H 0.71889 0.6456 0.86286 0.0
H948 H 0.09124 0.12628 0.43836 0.0
H949 H 0.10759 0.0945 0.34382 0.0
H950 H 0.13967 0.12194 0.32816 0.0
H951 H 0.09486 0.19743 0.41092 0.0
H952 H 0.11063 0.2004 0.44536 0.0
H953 H 0.08783 0.17915 0.44884 0.0
H954 H 0.12478 0.13571 0.47033 0.0
H955 H 0.14747 0.15694 0.4674 0.0
H956 H 0.15717 0.12485 0.44724 0.0
H957 H 0.17275 0.15069 0.32409 0.0
H958 H 0.20452 0.17645 0.3336 0.0
H959 H 0.16371 0.19166 0.42898 0.0
C960 C 0.1012 0.12536 0.41422 0.0
C961 C 0.09684 0.10797 0.39263 0.0
C962 C 0.11078 0.10711 0.3613 0.0
C963 C 0.12888 0.12298 0.3519 0.0
C964 C 0.13263 0.13991 0.37386 0.0
C965 C 0.11911 0.14123 0.40433 0.0
C966 C 0.12753 0.15998 0.42398 0.0
C967 C 0.1038 0.18577 0.43279 0.0
C968 C 0.13998 0.14337 0.454 0.0
C969 C 0.14845 0.16834 0.4002 0.0
C970 C 0.15104 0.15685 0.37125 0.0
C971 C 0.17063 0.16012 0.34653 0.0
C972 C 0.1885 0.17484 0.35208 0.0
C973 C 0.18658 0.18581 0.38214 0.0
C974 C 0.16575 0.18325 0.4059 0.0
H975 H 0.94054 0.09627 0.3524 0.0
H976 H 1.00391 0.13017 0.30476 0.0
H977 H 0.97061 0.17721 0.29774 0.0
H978 H 0.8871 0.13327 0.30863 0.0
H979 H 0.8616 0.14098 0.34217 0.0
H980 H 0.89041 0.11042 0.34508 0.0
H981 H 0.90163 0.12757 0.39574 0.0
H982 H 0.87264 0.15811 0.3932 0.0
H983 H 0.90549 0.1624 0.3943 0.0
H984 H 0.93016 0.21997 0.29369 0.0
H985 H 0.88574 0.25581 0.29374 0.0
H986 H 0.84771 0.19507 0.34447 0.0
C987 C 0.94728 0.11365 0.34033 0.0
C988 C 0.9747 0.1095 0.3283 0.0
C989 C 0.98299 0.13285 0.31368 0.0
C990 C 0.96421 0.15963 0.30974 0.0
C991 C 0.93728 0.16299 0.32144 0.0
C992 C 0.92887 0.14077 0.33703 0.0
C993 C 0.89885 0.15041 0.3482 0.0
C994 C 0.8836 0.13272 0.33521 0.0
C995 C 0.89439 0.14956 0.38504 0.0
C996 C 0.89119 0.18074 0.33365 0.0
C997 C 0.91391 0.18776 0.31933 0.0
C998 C 0.91232 0.21468 0.3049 0.0
C999 C 0.88698 0.2349 0.305 0.0
C1000 C 0.86331 0.22816 0.31879 0.0
C1001 C 0.86546 0.20068 0.33339 0.0
H1002 H 1.00483 0.93901 0.38456 0.0
H1003 H 0.94424 0.02037 0.37862 0.0
H1004 H 0.9162 0.99971 0.35188 0.0
H1005 H 0.99501 0.91429 0.30887 0.0
H1006 H 0.99954 0.87868 0.32621 0.0
H1007 H 1.01683 0.90063 0.34029 0.0
H1008 H 0.99605 0.89264 0.39862 0.0
H1009 H 0.97959 0.87001 0.38475 0.0
H1010 H 0.96002 0.89975 0.40662 0.0
H1011 H 0.89221 0.96906 0.33253 0.0
H1012 H 0.87246 0.93019 0.32947 0.0
H1013 H 0.94877 0.86934 0.34709 0.0
C1014 C 0.98569 0.95259 0.37776 0.0
C1015 C 0.97682 0.98141 0.38377 0.0
C1016 C 0.95164 0.99831 0.37405 0.0
C1017 C 0.93566 0.98681 0.35858 0.0
C1018 C 0.94515 0.95837 0.35279 0.0
C1019 C 0.96952 0.94146 0.36235 0.0
C1020 C 0.97381 0.91092 0.35688 0.0
C1021 C 0.99772 0.90053 0.33155 0.0
C1022 C 0.97756 0.89226 0.38859 0.0
C1023 C 0.94741 0.91303 0.34437 0.0
C1024 C 0.93139 0.94067 0.34128 0.0
C1025 C 0.90476 0.94741 0.3341 0.0
C1026 C 0.89373 0.92529 0.33212 0.0
C1027 C 0.90937 0.89702 0.33754 0.0
C1028 C 0.93682 0.8909 0.34193 0.0
H1029 H 0.11825 0.97258 0.28234 0.0
H1030 H 0.10899 0.98796 0.38311 0.0
H1031 H 0.14946 0.9484 0.39168 0.0
H1032 H 0.14048 0.89741 0.29247 0.0
H1033 H 0.16503 0.89299 0.25783 0.0
H1034 H 0.13577 0.92336 0.25872 0.0
H1035 H 0.16643 0.9564 0.24762 0.0
H1036 H 0.19579 0.9261 0.24646 0.0
H1037 H 0.19225 0.95273 0.27358 0.0
H1038 H 0.19125 0.90714 0.38987 0.0
H1039 H 0.23142 0.86709 0.37718 0.0
H1040 H 0.2135 0.87649 0.27842 0.0
C1041 C 0.1248 0.96774 0.30616 0.0
C1042 C 0.11014 0.98359 0.33199 0.0
C1043 C 0.11961 0.97635 0.3628 0.0
C1044 C 0.14269 0.9538 0.368 0.0
C1045 C 0.1564 0.93846 0.34223 0.0
C1046 C 0.14796 0.94515 0.31186 0.0
C1047 C 0.16653 0.92505 0.2884 0.0
C1048 C 0.15102 0.90873 0.27348 0.0
C1049 C 0.1811 0.94103 0.26248 0.0
C1050 C 0.18618 0.90568 0.31049 0.0
C1051 C 0.18016 0.91409 0.34137 0.0
C1052 C 0.19604 0.9003 0.3658 0.0
C1053 C 0.2188 0.87757 0.3584 0.0
C1054 C 0.22532 0.86848 0.32699 0.0
C1055 C 0.2086 0.88259 0.30282 0.0
H1056 H 0.14639 0.99473 0.7627 0.0
H1057 H 0.08075 0.95719 0.77414 0.0
H1058 H 0.11323 0.90987 0.78253 0.0
H1059 H 0.19527 0.9408 0.72124 0.0
H1060 H 0.22334 0.94209 0.74105 0.0
H1061 H 0.19515 0.97314 0.73663 0.0
H1062 H 0.18868 0.97716 0.79796 0.0
H1063 H 0.21712 0.94636 0.80252 0.0
H1064 H 0.18498 0.94736 0.82459 0.0
H1065 H 0.15315 0.86661 0.78457 0.0
H1066 H 0.19663 0.83046 0.78999 0.0
H1067 H 0.23694 0.89564 0.78172 0.0
C1068 C 0.13884 0.97657 0.76808 0.0
C1069 C 0.11095 0.97961 0.7688 0.0
C1070 C 0.10185 0.95538 0.77473 0.0
C1071 C 0.12023 0.92843 0.77899 0.0
C1072 C 0.14762 0.9261 0.77775 0.0
C1073 C 0.15688 0.94956 0.77321 0.0
C1074 C 0.18734 0.94118 0.77357 0.0
C1075 C 0.20107 0.94982 0.74119 0.0
C1076 C 0.19498 0.95376 0.80132 0.0
C1077 C 0.19377 0.90932 0.77906 0.0
C1078 C 0.17057 0.90113 0.78062 0.0
C1079 C 0.17134 0.87284 0.78392 0.0
C1080 C 0.19624 0.85241 0.78664 0.0
C1081 C 0.22022 0.86016 0.78636 0.0
C1082 C 0.21892 0.88908 0.78245 0.0
H1083 H 0.14286 0.10045 0.699 0.0
H1084 H 0.07743 0.12507 0.77381 0.0
H1085 H 0.10433 0.14751 0.80018 0.0
H1086 H 0.19785 0.08711 0.75226 0.0
H1087 H 0.21917 0.10072 0.72176 0.0
H1088 H 0.19616 0.08363 0.71059 0.0
H1089 H 0.17391 0.12787 0.67406 0.0
H1090 H 0.19773 0.14427 0.68393 0.0
H1091 H 0.16214 0.16179 0.69058 0.0
H1092 H 0.13553 0.17221 0.8142 0.0
H1093 H 0.16571 0.20251 0.81006 0.0
H1094 H 0.21231 0.15965 0.72849 0.0
C1095 C 0.13438 0.11065 0.72089 0.0
C1096 C 0.10826 0.11124 0.73447 0.0
C1097 C 0.09758 0.12447 0.76326 0.0
C1098 C 0.11279 0.1369 0.77856 0.0
C1099 C 0.13883 0.13544 0.76502 0.0
C1100 C 0.14949 0.12279 0.73674 0.0
C1101 C 0.17699 0.12628 0.72567 0.0
C1102 C 0.19884 0.09773 0.7277 0.0
C1103 C 0.17771 0.14094 0.69157 0.0
C1104 C 0.17914 0.14488 0.75058 0.0
C1105 C 0.15737 0.1491 0.7738 0.0
C1106 C 0.15305 0.16855 0.79671 0.0
C1107 C 0.17035 0.18553 0.79439 0.0
C1108 C 0.1913 0.18297 0.76913 0.0
C1109 C 0.19674 0.1613 0.74838 0.0
H1110 H 0.97605 0.12273 0.79043 0.0
H1111 H 0.97566 0.12354 0.68733 0.0
H1112 H 0.9381 0.16652 0.68782 0.0
H1113 H 0.9055 0.1461 0.80836 0.0
H1114 H 0.90586 0.16844 0.83934 0.0
H1115 H 0.93426 0.13847 0.83063 0.0
H1116 H 0.96477 0.17131 0.82116 0.0
H1117 H 0.93606 0.2014 0.82921 0.0
H1118 H 0.95729 0.20112 0.79193 0.0
H1119 H 0.89928 0.20737 0.69808 0.0
H1120 H 0.86035 0.24519 0.71848 0.0
H1121 H 0.88322 0.22113 0.81518 0.0
C1122 C 0.96812 0.13208 0.76802 0.0
C1123 C 0.97903 0.11928 0.73893 0.0
C1124 C 0.96792 0.13244 0.71012 0.0
C1125 C 0.94647 0.15715 0.70998 0.0
C1126 C 0.93605 0.16905 0.7388 0.0
C1127 C 0.9465 0.1573 0.76731 0.0
C1128 C 0.93046 0.17441 0.79485 0.0
C1129 C 0.91821 0.15576 0.8198 0.0
C1130 C 0.94822 0.18786 0.81019 0.0
C1131 C 0.9089 0.19685 0.77736 0.0
C1132 C 0.913 0.19329 0.74492 0.0
C1133 C 0.89587 0.21053 0.72342 0.0
C1134 C 0.8737 0.2319 0.73525 0.0
C1135 C 0.86869 0.23618 0.7683 0.0
C1136 C 0.88677 0.21859 0.78968 0.0
H1137 H 0.97964 0.98428 0.67313 0.0
H1138 H 0.98586 0.98365 0.77457 0.0
H1139 H 0.94995 0.95998 0.78723 0.0
H1140 H 0.90695 0.99874 0.68178 0.0
H1141 H 0.90752 0.97783 0.64939 0.0
H1142 H 0.93336 0.99495 0.64915 0.0
H1143 H 0.97001 0.94673 0.64395 0.0
H1144 H 0.94431 0.92946 0.64434 0.0
H1145 H 0.96869 0.91781 0.67324 0.0
H1146 H 0.91242 0.93623 0.7879 0.0
H1147 H 0.87716 0.9159 0.77651 0.0
H1148 H 0.89879 0.93028 0.67443 0.0
C1149 C 0.97362 0.97886 0.69795 0.0
C1150 C 0.98556 0.98555 0.72279 0.0
C1151 C 0.97678 0.97879 0.75514 0.0
C1152 C 0.95648 0.96529 0.76255 0.0
C1153 C 0.94509 0.95895 0.73732 0.0
C1154 C 0.9533 0.96574 0.70572 0.0
C1155 C 0.93758 0.95749 0.68292 0.0
C1156 C 0.92034 0.98381 0.66474 0.0
C1157 C 0.95627 0.93662 0.65976 0.0
C1158 C 0.92012 0.94373 0.70639 0.0
C1159 C 0.92419 0.9452 0.73773 0.0
C1160 C 0.90924 0.93482 0.76338 0.0
C1161 C 0.88941 0.92304 0.75664 0.0
C1162 C 0.88496 0.92147 0.72449 0.0
C1163 C 0.90107 0.93154 0.6993 0.0
H1164 H 0.26497 0.13603 0.22727 0.0
H1165 H 0.25568 0.18611 0.13652 0.0
H1166 H 0.27097 0.22228 0.15795 0.0
H1167 H 0.24359 0.19427 0.27864 0.0
H1168 H 0.268 0.17773 0.3066 0.0
H1169 H 0.25548 0.15636 0.28442 0.0
H1170 H 0.3046 0.13042 0.2631 0.0
H1171 H 0.31713 0.15208 0.28491 0.0
H1172 H 0.32588 0.15063 0.24226 0.0
H1173 H 0.28438 0.2542 0.19034 0.0
H1174 H 0.29525 0.27922 0.23085 0.0
H1175 H 0.30208 0.20656 0.29894 0.0
C1176 C 0.26587 0.1548 0.21215 0.0
C1177 C 0.25888 0.15848 0.18027 0.0
C1178 C 0.26085 0.18301 0.16096 0.0
C1179 C 0.26957 0.20358 0.17292 0.0
C1180 C 0.27677 0.19913 0.20418 0.0
C1181 C 0.27511 0.17535 0.22356 0.0
C1182 C 0.28447 0.17569 0.25614 0.0
C1183 C 0.26152 0.17603 0.28303 0.0
C1184 C 0.30951 0.15072 0.26193 0.0
C1185 C 0.29137 0.20346 0.25212 0.0
C1186 C 0.28661 0.21665 0.222 0.0
C1187 C 0.28909 0.24359 0.21358 0.0
C1188 C 0.29594 0.25763 0.23671 0.0
C1189 C 0.30123 0.24475 0.26774 0.0
C1190 C 0.29929 0.2169 0.27516 0.0
H1191 H 0.96947 0.32385 0.21048 0.0
H1192 H 0.96617 0.29929 0.1158 0.0
H1193 H 0.9231 0.28967 0.13443 0.0
H1194 H 0.93735 0.27333 0.25796 0.0
H1195 H 0.91882 0.29883 0.28593 0.0
H1196 H 0.95102 0.3007 0.26625 0.0
H1197 H 0.92919 0.35241 0.24462 0.0
H1198 H 0.89764 0.34985 0.26479 0.0
H1199 H 0.90011 0.36012 0.22259 0.0
H1200 H 0.87783 0.28713 0.16173 0.0
H1201 H 0.83514 0.29083 0.19492 0.0
H1202 H 0.86735 0.3143 0.27387 0.0
C1203 C 0.96004 0.31619 0.19352 0.0
C1204 C 0.97188 0.31252 0.16131 0.0
C1205 C 0.9582 0.30234 0.14049 0.0
C1206 C 0.93348 0.29673 0.15093 0.0
C1207 C 0.92233 0.3011 0.18251 0.0
C1208 C 0.93533 0.31025 0.20362 0.0
C1209 C 0.91803 0.31515 0.23561 0.0
C1210 C 0.93217 0.29584 0.26305 0.0
C1211 C 0.91084 0.34629 0.24221 0.0
C1212 C 0.89318 0.30738 0.22935 0.0
C1213 C 0.89618 0.29947 0.1984 0.0
C1214 C 0.87547 0.29314 0.18604 0.0
C1215 C 0.85102 0.29548 0.20536 0.0
C1216 C 0.84695 0.30374 0.23733 0.0
C1217 C 0.86895 0.30887 0.2496 0.0
H1218 H 0.83353 0.95753 0.12132 0.0
H1219 H 0.83981 0.90272 0.04628 0.0
H1220 H 0.82367 0.86937 0.08569 0.0
H1221 H 0.85762 0.90401 0.18185 0.0
H1222 H 0.83468 0.91986 0.21484 0.0
H1223 H 0.84379 0.94171 0.181 0.0
H1224 H 0.79399 0.9648 0.17223 0.0
H1225 H 0.78421 0.94356 0.20638 0.0
H1226 H 0.77286 0.94302 0.16797 0.0
H1227 H 0.81155 0.8408 0.13129 0.0
H1228 H 0.80662 0.81504 0.18263 0.0
H1229 H 0.80465 0.88714 0.23236 0.0
C1230 C 0.83156 0.93835 0.11355 0.0
C1231 C 0.83809 0.93222 0.08097 0.0
C1232 C 0.83518 0.90728 0.07123 0.0
C1233 C 0.82572 0.88855 0.09334 0.0
C1234 C 0.81914 0.89517 0.12517 0.0
C1235 C 0.82222 0.91916 0.13562 0.0
C1236 C 0.81529 0.91972 0.17188 0.0
C1237 C 0.83928 0.92138 0.18835 0.0
C1238 C 0.79009 0.94424 0.18009 0.0
C1239 C 0.80943 0.89146 0.18019 0.0
C1240 C 0.81093 0.87843 0.15243 0.0
C1241 C 0.80892 0.85132 0.15308 0.0
C1242 C 0.80552 0.8369 0.18269 0.0
C1243 C 0.803 0.84954 0.21179 0.0
C1244 C 0.80535 0.87726 0.21056 0.0
H1245 H 0.09576 0.804 0.06551 0.0
H1246 H 0.08349 0.74019 0.13998 0.0
H1247 H 0.11054 0.75468 0.17408 0.0
H1248 H 0.16528 0.79217 0.07469 0.0
H1249 H 0.16428 0.82875 0.06734 0.0
H1250 H 0.1409 0.81596 0.05024 0.0
H1251 H 0.10246 0.85549 0.07703 0.0
H1252 H 0.12608 0.86661 0.0961 0.0
H1253 H 0.09873 0.85669 0.11996 0.0
H1254 H 0.13719 0.77466 0.2009 0.0
H1255 H 0.17816 0.785 0.21097 0.0
H1256 H 0.17927 0.83253 0.1185 0.0
C1257 C 0.09868 0.79318 0.08903 0.0
C1258 C 0.0863 0.77171 0.10077 0.0
C1259 C 0.09148 0.75757 0.13121 0.0
C1260 C 0.1067 0.76578 0.15087 0.0
C1261 C 0.11709 0.78801 0.1397 0.0
C1262 C 0.1145 0.80078 0.10901 0.0
C1263 C 0.13157 0.8211 0.1018 0.0
C1264 C 0.1517 0.81402 0.07175 0.0
C1265 C 0.11364 0.85179 0.09853 0.0
C1266 C 0.14568 0.81551 0.13222 0.0
C1267 C 0.13535 0.79798 0.15447 0.0
C1268 C 0.14558 0.7884 0.1838 0.0
C1269 C 0.16876 0.79455 0.18942 0.0
C1270 C 0.18185 0.80918 0.16527 0.0
C1271 C 0.16935 0.82136 0.13722 0.0
H1272 H 0.2876 0.99994 0.99711 0.0
H1273 H 0.20551 0.03096 0.04033 0.0
H1274 H 0.193 0.99532 0.0136 0.0
H1275 H 0.27093 0.98587 0.91963 0.0
H1276 H 0.29947 0.95487 0.91621 0.0
H1277 H 0.30131 0.98391 0.93678 0.0
H1278 H 0.314 0.95076 0.98778 0.0
H1279 H 0.31313 0.92166 0.96692 0.0
H1280 H 0.29286 0.92899 1.00463 0.0
H1281 H 0.19151 0.95277 0.9872 0.0
H1282 H 0.20177 0.90548 0.96709 0.0
H1283 H 0.28384 0.90647 0.93712 0.0
C1284 C 0.2668 0.99972 1.0005 0.0
C1285 C 0.24731 0.0184 0.02047 0.0
C1286 C 0.22064 0.01668 0.02524 0.0
C1287 C 0.21337 0.99687 0.00977 0.0
C1288 C 0.23303 0.97931 0.98947 0.0
C1289 C 0.25924 0.98063 0.98491 0.0
C1290 C 0.27726 0.95828 0.964 0.0
C1291 C 0.28784 0.97154 0.93227 0.0
C1292 C 0.30066 0.93878 0.98192 0.0
C1293 C 0.25738 0.94311 0.95867 0.0
C1294 C 0.23186 0.95572 0.97311 0.0
C1295 C 0.21119 0.9431 0.97519 0.0
C1296 C 0.21715 0.91631 0.96378 0.0
C1297 C 0.24346 0.90271 0.95034 0.0
C1298 C 0.26336 0.91688 0.94642 0.0
H1299 H 0.13609 0.36111 0.9768 0.0
H1300 H 0.13774 0.27348 0.99808 0.0
H1301 H 0.17454 0.2597 0.95517 0.0
H1302 H 0.14952 0.35876 0.89041 0.0
H1303 H 0.17084 0.38168 0.88596 0.0
H1304 H 0.14447 0.38497 0.9186 0.0
H1305 H 0.17925 0.37744 0.96027 0.0
H1306 H 0.20461 0.37606 0.92697 0.0
H1307 H 0.20897 0.34752 0.95792 0.0
H1308 H 0.20997 0.25522 0.90807 0.0
H1309 H 0.24304 0.26013 0.86227 0.0
H1310 H 0.22009 0.35009 0.87027 0.0
C1311 C 0.14407 0.33906 0.9723 0.0
C1312 C 0.13389 0.31847 0.9914 0.0
C1313 C 0.14525 0.28978 0.9846 0.0
C1314 C 0.16616 0.28167 0.95993 0.0
C1315 C 0.17583 0.30238 0.94186 0.0
C1316 C 0.1652 0.33048 0.94767 0.0
C1317 C 0.17968 0.34836 0.92481 0.0
C1318 C 0.15994 0.36971 0.90369 0.0
C1319 C 0.194 0.36319 0.94364 0.0
C1320 C 0.19991 0.32599 0.90506 0.0
C1321 C 0.1972 0.29961 0.91544 0.0
C1322 C 0.21274 0.27569 0.9004 0.0
C1323 C 0.23183 0.27863 0.87458 0.0
C1324 C 0.23585 0.30515 0.86395 0.0
C1325 C 0.21895 0.32928 0.87896 0.0
H1326 H 0.84426 0.10345 0.87027 0.0
H1327 H 0.79432 0.10956 0.96091 0.0
H1328 H 0.77752 0.16098 0.95033 0.0
H1329 H 0.8605 0.16913 0.86842 0.0
H1330 H 0.85793 0.17662 0.82591 0.0
H1331 H 0.86705 0.14059 0.84294 0.0
H1332 H 0.82821 0.13291 0.81727 0.0
H1333 H 0.81826 0.16916 0.80167 0.0
H1334 H 0.79443 0.15443 0.82738 0.0
H1335 H 0.76746 0.21234 0.93053 0.0
H1336 H 0.7638 0.25934 0.90237 0.0
H1337 H 0.81653 0.2201 0.82188 0.0
C1338 C 0.82988 0.11565 0.88792 0.0
C1339 C 0.82171 0.10244 0.91726 0.0
C1340 C 0.80236 0.11921 0.93935 0.0
C1341 C 0.79218 0.14849 0.93316 0.0
C1342 C 0.80087 0.16086 0.90421 0.0
C1343 C 0.81911 0.14496 0.88186 0.0
C1344 C 0.82456 0.16341 0.85229 0.0
C1345 C 0.85431 0.16239 0.8471 0.0
C1346 C 0.81578 0.1545 0.82284 0.0
C1347 C 0.80693 0.19224 0.86156 0.0
C1348 C 0.79347 0.19024 0.89176 0.0
C1349 C 0.77752 0.21411 0.90665 0.0
C1350 C 0.77558 0.24072 0.89049 0.0
C1351 C 0.78931 0.2434 0.85965 0.0
C1352 C 0.80508 0.21873 0.84497 0.0
H1353 H 0.94694 0.72622 0.94454 0.0
H1354 H 0.95983 0.80865 0.9244 0.0
H1355 H 0.92471 0.8222 0.88725 0.0
H1356 H 0.93246 0.71973 0.86351 0.0
H1357 H 0.90657 0.70278 0.87662 0.0
H1358 H 0.93368 0.69834 0.90095 0.0
H1359 H 0.89903 0.71653 0.94909 0.0
H1360 H 0.87186 0.72097 0.92492 0.0
H1361 H 0.87412 0.75036 0.94457 0.0
H1362 H 0.8954 0.82352 0.84567 0.0
H1363 H 0.86192 0.81987 0.81279 0.0
H1364 H 0.85671 0.74229 0.86781 0.0
C1365 C 0.94225 0.74707 0.93224 0.0
C1366 C 0.9563 0.76637 0.93722 0.0
C1367 C 0.9494 0.79359 0.92104 0.0
C1368 C 0.92961 0.8014 0.8997 0.0
C1369 C 0.91639 0.78196 0.89506 0.0
C1370 C 0.92173 0.75564 0.91137 0.0
C1371 C 0.90329 0.7396 0.90242 0.0
C1372 C 0.91999 0.71356 0.88486 0.0
C1373 C 0.88604 0.7314 0.93203 0.0
C1374 C 0.88622 0.76153 0.87949 0.0
C1375 C 0.89547 0.78502 0.87451 0.0
C1376 C 0.88687 0.80605 0.85059 0.0
C1377 C 0.8675 0.80375 0.8321 0.0
C1378 C 0.8548 0.78196 0.83913 0.0
C1379 C 0.86483 0.76007 0.8629 0.0
H1380 H 0.13106 0.32785 0.1486 0.0
H1381 H 0.15006 0.23689 0.16242 0.0
H1382 H 0.18248 0.23614 0.2005 0.0
H1383 H 0.19837 0.33125 0.14939 0.0
H1384 H 0.18942 0.36259 0.17084 0.0
H1385 H 0.16584 0.35684 0.14671 0.0
H1386 H 0.13001 0.3619 0.19573 0.0
H1387 H 0.15347 0.36792 0.21988 0.0
H1388 H 0.13808 0.34007 0.2322 0.0
H1389 H 0.21282 0.24451 0.23681 0.0
H1390 H 0.24056 0.26108 0.26835 0.0
H1391 H 0.20658 0.34693 0.22941 0.0
C1392 C 0.1415 0.30789 0.16045 0.0
C1393 C 0.13719 0.28237 0.15335 0.0
C1394 C 0.15225 0.25666 0.16819 0.0
C1395 C 0.17089 0.25606 0.18973 0.0
C1396 C 0.17479 0.28138 0.19609 0.0
C1397 C 0.16059 0.30691 0.18196 0.0
C1398 C 0.16983 0.3308 0.1922 0.0
C1399 C 0.18156 0.34628 0.16304 0.0
C1400 C 0.14646 0.35139 0.21112 0.0
C1401 C 0.19167 0.31459 0.21386 0.0
C1402 C 0.19371 0.28614 0.21593 0.0
C1403 C 0.21144 0.2667 0.23516 0.0
C1404 C 0.22728 0.27636 0.25297 0.0
C1405 C 0.22632 0.30519 0.2511 0.0
C1406 C 0.20822 0.32467 0.23102 0.0
H1407 H 0.09458 0.84343 0.92722 0.0
H1408 H 0.10265 0.75683 0.96337 0.0
H1409 H 0.1487 0.74246 0.93492 0.0
H1410 H 0.13122 0.82783 0.84757 0.0
H1411 H 0.14623 0.85614 0.84607 0.0
H1412 H 0.11403 0.85881 0.86867 0.0
H1413 H 0.13331 0.86763 0.91888 0.0
H1414 H 0.16551 0.86447 0.89605 0.0
H1415 H 0.16317 0.84229 0.93243 0.0
H1416 H 0.19808 0.73849 0.9051 0.0
H1417 H 0.24027 0.74546 0.87596 0.0
H1418 H 0.19882 0.83306 0.85414 0.0
C1419 C 0.10583 0.82133 0.9291 0.0
C1420 C 0.09418 0.8014 0.94807 0.0
C1421 C 0.11035 0.77278 0.9493 0.0
C1422 C 0.13687 0.76437 0.93308 0.0
C1423 C 0.14766 0.78454 0.91487 0.0
C1424 C 0.13232 0.81248 0.91259 0.0
C1425 C 0.14838 0.83019 0.89151 0.0
C1426 C 0.1341 0.84406 0.86168 0.0
C1427 C 0.15285 0.85247 0.91087 0.0
C1428 C 0.17512 0.80811 0.88221 0.0
C1429 C 0.17455 0.78186 0.89618 0.0
C1430 C 0.19796 0.75886 0.89311 0.0
C1431 C 0.222 0.76272 0.87554 0.0
C1432 C 0.22292 0.78904 0.85952 0.0
C1433 C 0.19884 0.81204 0.86386 0.0
H1434 H 0.25407 0.16848 0.02668 0.0
H1435 H 0.33364 0.1084 0.02632 0.0
H1436 H 0.34688 0.13054 0.97348 0.0
H1437 H 0.24797 0.16963 0.94254 0.0
H1438 H 0.23008 0.20665 0.93873 0.0
H1439 H 0.22719 0.18645 0.97645 0.0
H1440 H 0.24273 0.22132 1.00481 0.0
H1441 H 0.24536 0.24175 0.96722 0.0
H1442 H 0.27401 0.22876 0.9901 0.0
H1443 H 0.35115 0.16028 0.91955 0.0
H1444 H 0.34656 0.19507 0.87213 0.0
H1445 H 0.26408 0.23475 0.9082 0.0
C1446 C 0.27447 0.16004 0.01581 0.0
C1447 C 0.29297 0.13674 0.03121 0.0
C1448 C 0.31925 0.12643 0.01558 0.0
C1449 C 0.32682 0.13878 0.98533 0.0
C1450 C 0.30793 0.16147 0.97077 0.0
C1451 C 0.28227 0.17203 0.9857 0.0
C1452 C 0.26555 0.1965 0.96523 0.0
C1453 C 0.24127 0.18937 0.95515 0.0
C1454 C 0.25639 0.22369 0.98289 0.0
C1455 C 0.28592 0.19849 0.93655 0.0
C1456 C 0.31019 0.178 0.93999 0.0
C1457 C 0.33213 0.17621 0.9167 0.0
C1458 C 0.32933 0.19599 0.8897 0.0
C1459 C 0.30473 0.21725 0.88577 0.0
C1460 C 0.28282 0.21832 0.90967 0.0
H1461 H 1.0031 0.27937 0.06008 0.0
H1462 H 0.06638 0.25671 0.98203 0.0
H1463 H 0.03243 0.26028 0.94541 0.0
H1464 H 0.95852 0.24213 0.0336 0.0
H1465 H 0.92811 0.2691 0.04541 0.0
H1466 H 0.95736 0.26251 0.06674 0.0
H1467 H 0.95627 0.31484 0.05587 0.0
H1468 H 0.92693 0.32167 0.03477 0.0
H1469 H 0.95642 0.33051 0.01524 0.0
H1470 H 0.99115 0.26976 0.91529 0.0
H1471 H 0.94615 0.28509 0.89512 0.0
H1472 H 0.90912 0.30111 0.99188 0.0
C1473 C 1.00992 0.27452 0.03553 0.0
C1474 C 0.03781 0.26751 0.02437 0.0
C1475 C 0.04541 0.26187 0.99164 0.0
C1476 C 0.02615 0.26389 0.97042 0.0
C1477 C 0.99896 0.27139 0.98193 0.0
C1478 C 0.99079 0.27643 0.0138 0.0
C1479 C 0.96013 0.2853 0.01953 0.0
C1480 C 0.95046 0.26346 0.0427 0.0
C1481 C 0.94932 0.31484 0.03209 0.0
C1482 C 0.95248 0.28534 0.98581 0.0
C1483 C 0.97519 0.27688 0.96454 0.0
C1484 C 0.97322 0.2761 0.93188 0.0
C1485 C 0.94749 0.28466 0.92057 0.0
C1486 C 0.92385 0.29427 0.94167 0.0
C1487 C 0.92666 0.29396 0.9749 0.0
H1488 H 0.76552 0.96735 0.93149 0.0
H1489 H 0.85089 0.92261 0.93313 0.0
H1490 H 0.84634 0.88777 0.90065 0.0
H1491 H 0.74488 0.90066 0.93469 0.0
H1492 H 0.71908 0.91527 0.90797 0.0
H1493 H 0.7273 0.93782 0.93315 0.0
H1494 H 0.7364 0.96992 0.88304 0.0
H1495 H 0.72825 0.9474 0.85782 0.0
H1496 H 0.76031 0.95471 0.85042 0.0
H1497 H 0.83641 0.86082 0.86408 0.0
H1498 H 0.81878 0.83802 0.82782 0.0
H1499 H 0.73852 0.89216 0.8491 0.0
C1500 C 0.78307 0.95001 0.92528 0.0
C1501 C 0.80872 0.9484 0.93496 0.0
C1502 C 0.83106 0.92516 0.92611 0.0
C1503 C 0.82878 0.90487 0.90751 0.0
C1504 C 0.80384 0.90725 0.89789 0.0
C1505 C 0.78111 0.92871 0.90656 0.0
C1506 C 0.75702 0.925 0.89199 0.0
C1507 C 0.7358 0.91937 0.91854 0.0
C1508 C 0.74477 0.9508 0.86948 0.0
C1509 C 0.77034 0.89875 0.87331 0.0
C1510 C 0.79738 0.88931 0.87759 0.0
C1511 C 0.81501 0.86708 0.86184 0.0
C1512 C 0.80482 0.85351 0.84172 0.0
C1513 C 0.77728 0.86097 0.83753 0.0
C1514 C 0.7596 0.88469 0.85303 0.0
H1515 H 0.93211 0.8434 0.11153 0.0
H1516 H 0.96349 0.76258 0.0707 0.0
H1517 H 0.93682 0.74209 0.1148 0.0
H1518 H 0.93254 0.81632 0.19482 0.0
H1519 H 0.90213 0.84283 0.20777 0.0
H1520 H 0.92357 0.85052 0.17316 0.0
H1521 H 0.88331 0.86453 0.13974 0.0
H1522 H 0.86194 0.85563 0.17375 0.0
H1523 H 0.86537 0.83937 0.13663 0.0
H1524 H 0.90967 0.72937 0.17042 0.0
H1525 H 0.88268 0.72799 0.22279 0.0
H1526 H 0.86318 0.8182 0.22306 0.0
C1527 C 0.93369 0.82126 0.11164 0.0
C1528 C 0.95114 0.80466 0.08735 0.0
C1529 C 0.95152 0.77589 0.08903 0.0
C1530 C 0.93605 0.76406 0.11415 0.0
C1531 C 0.91977 0.78101 0.13799 0.0
C1532 C 0.91843 0.80916 0.13653 0.0
C1533 C 0.89965 0.82317 0.16481 0.0
C1534 C 0.9154 0.83385 0.18642 0.0
C1535 C 0.87614 0.84715 0.15294 0.0
C1536 C 0.88983 0.79897 0.18236 0.0
C1537 C 0.90224 0.77454 0.16701 0.0
C1538 C 0.89898 0.74883 0.18125 0.0
C1539 C 0.8828 0.7482 0.21101 0.0
C1540 C 0.86801 0.77303 0.22618 0.0
C1541 C 0.87231 0.79881 0.21146 0.0
H1542 H 0.27884 1.00367 0.20544 0.0
H1543 H 0.2839 0.98261 0.10755 0.0
H1544 H 0.28872 0.93285 0.1267 0.0
H1545 H 0.32791 0.93922 0.23435 0.0
H1546 H 0.30853 0.93775 0.2728 0.0
H1547 H 0.30604 0.97116 0.25056 0.0
H1548 H 0.25419 0.97917 0.25628 0.0
H1549 H 0.25811 0.94472 0.27685 0.0
H1550 H 0.24099 0.95421 0.24105 0.0
H1551 H 0.29556 0.88531 0.15523 0.0
H1552 H 0.3045 0.84215 0.19077 0.0
H1553 H 0.29326 0.89131 0.27289 0.0
C1554 C 0.28179 0.98833 0.18807 0.0
C1555 C 0.28256 0.99682 0.15465 0.0
C1556 C 0.2848 0.97641 0.13293 0.0
C1557 C 0.2871 0.94813 0.1437 0.0
C1558 C 0.28692 0.94028 0.17653 0.0
C1559 C 0.28423 0.95968 0.19854 0.0
C1560 C 0.28491 0.94511 0.23248 0.0
C1561 C 0.30832 0.94854 0.24843 0.0
C1562 C 0.25794 0.95649 0.25286 0.0
C1563 C 0.28955 0.91434 0.22595 0.0
C1564 C 0.29022 0.91243 0.1934 0.0
C1565 C 0.29515 0.88659 0.18073 0.0
C1566 C 0.30036 0.86197 0.20141 0.0
C1567 C 0.30031 0.86269 0.23501 0.0
C1568 C 0.2941 0.88961 0.24746 0.0
H1569 H 0.82206 0.0463 0.09766 0.0
H1570 H 0.80606 0.10003 0.01038 0.0
H1571 H 0.81442 0.13867 0.03477 0.0
H1572 H 0.78458 0.09955 0.14895 0.0
H1573 H 0.80661 0.0873 0.18037 0.0
H1574 H 0.80383 0.06295 0.15363 0.0
H1575 H 0.85577 0.04916 0.14022 0.0
H1576 H 0.85821 0.0747 0.16585 0.0
H1577 H 0.87166 0.07596 0.12436 0.0
H1578 H 0.82406 0.1716 0.06813 0.0
H1579 H 0.8157 0.20231 0.11258 0.0
H1580 H 0.81897 0.13032 0.18104 0.0
C1581 C 0.81966 0.06648 0.08403 0.0
C1582 C 0.81335 0.07017 0.05194 0.0
C1583 C 0.81077 0.09667 0.03479 0.0
C1584 C 0.81606 0.11859 0.04835 0.0
C1585 C 0.82329 0.11396 0.07954 0.0
C1586 C 0.82384 0.08901 0.09773 0.0
C1587 C 0.82754 0.0912 0.13231 0.0
C1588 C 0.80424 0.08491 0.15515 0.0
C1589 C 0.85492 0.07159 0.14119 0.0
C1590 C 0.82697 0.12194 0.13107 0.0
C1591 C 0.82648 0.13399 0.09991 0.0
C1592 C 0.82441 0.16248 0.09263 0.0
C1593 C 0.81995 0.17975 0.11798 0.0
C1594 C 0.81683 0.16852 0.14998 0.0
C1595 C 0.82197 0.13909 0.15667 0.0
H1596 H 0.59797 0.60791 0.85099 0.0
H1597 H 0.57006 0.62972 0.94902 0.0
H1598 H 0.59668 0.66332 0.94268 0.0
H1599 H 0.66493 0.60707 0.8538 0.0
H1600 H 0.66911 0.62138 0.81294 0.0
H1601 H 0.64533 0.60159 0.8243 0.0
H1602 H 0.60794 0.64386 0.80206 0.0
H1603 H 0.63157 0.66411 0.79163 0.0
H1604 H 0.60111 0.67792 0.81732 0.0
H1605 H 0.62769 0.69332 0.92691 0.0
H1606 H 0.66739 0.70981 0.90671 0.0
H1607 H 0.67709 0.66661 0.82054 0.0
C1608 C 0.59715 0.61968 0.87125 0.0
C1609 C 0.58116 0.61624 0.90042 0.0
C1610 C 0.58134 0.63223 0.92612 0.0
C1611 C 0.59643 0.65154 0.92275 0.0
C1612 C 0.61142 0.65474 0.89355 0.0
C1613 C 0.6123 0.63887 0.86843 0.0
C1614 C 0.63205 0.64432 0.84063 0.0
C1615 C 0.65416 0.61697 0.83248 0.0
C1616 C 0.61728 0.65839 0.81117 0.0
C1617 C 0.64315 0.66466 0.85476 0.0
C1618 C 0.63024 0.67122 0.88483 0.0
C1619 C 0.63783 0.68853 0.9033 0.0
C1620 C 0.66021 0.69805 0.89155 0.0
C1621 C 0.67496 0.68972 0.86199 0.0
C1622 C 0.6657 0.67372 0.8429 0.0
H1623 H 0.47708 0.63458 0.79306 0.0
H1624 H 0.46083 0.58655 0.88131 0.0
H1625 H 0.41432 0.61872 0.88809 0.0
H1626 H 0.4416 0.7007 0.81634 0.0
H1627 H 0.42648 0.71505 0.77996 0.0
H1628 H 0.45835 0.68794 0.77842 0.0
H1629 H 0.44015 0.65546 0.75012 0.0
H1630 H 0.40895 0.6833 0.74822 0.0
H1631 H 0.40877 0.64877 0.76602 0.0
H1632 H 0.37105 0.66119 0.88843 0.0
H1633 H 0.33312 0.70402 0.87729 0.0
H1634 H 0.37588 0.72059 0.78585 0.0
C1635 C 0.46344 0.63037 0.81328 0.0
C1636 C 0.47245 0.60784 0.83643 0.0
C1637 C 0.45418 0.60337 0.86295 0.0
C1638 C 0.42777 0.6217 0.86713 0.0
C1639 C 0.4196 0.64411 0.84415 0.0
C1640 C 0.4367 0.64788 0.81722 0.0
C1641 C 0.42308 0.67338 0.79597 0.0
C1642 C 0.43841 0.69553 0.79247 0.0
C1643 C 0.42006 0.6647 0.76313 0.0
C1644 C 0.39591 0.68383 0.81523 0.0
C1645 C 0.39435 0.66701 0.84331 0.0
C1646 C 0.37194 0.67407 0.86614 0.0
C1647 C 0.35056 0.69853 0.85979 0.0
C1648 C 0.35145 0.71538 0.8306 0.0
C1649 C 0.37446 0.70779 0.80814 0.0
H1650 H 0.44693 0.47943 0.92138 0.0
H1651 H 0.5061 0.46644 0.83869 0.0
H1652 H 0.48078 0.44018 0.81496 0.0
H1653 H 0.438 0.41362 0.93001 0.0
H1654 H 0.40225 0.42495 0.94178 0.0
H1655 H 0.42288 0.44617 0.94896 0.0
H1656 H 0.39214 0.48874 0.91726 0.0
H1657 H 0.37191 0.46715 0.90924 0.0
H1658 H 0.38713 0.48552 0.87655 0.0
H1659 H 0.45289 0.40978 0.80451 0.0
H1660 H 0.42731 0.37468 0.81075 0.0
H1661 H 0.38525 0.40894 0.89916 0.0
C1662 C 0.45411 0.47135 0.89808 0.0
C1663 C 0.47821 0.47467 0.88165 0.0
C1664 C 0.4875 0.46388 0.85133 0.0
C1665 C 0.47314 0.44929 0.83764 0.0
C1666 C 0.4493 0.44619 0.85444 0.0
C1667 C 0.43981 0.457 0.88398 0.0
C1668 C 0.4153 0.44831 0.89864 0.0
C1669 C 0.41991 0.4323 0.93178 0.0
C1670 C 0.39013 0.47396 0.90053 0.0
C1671 C 0.41374 0.42922 0.87401 0.0
C1672 C 0.43294 0.42894 0.84811 0.0
C1673 C 0.43733 0.41033 0.82422 0.0
C1674 C 0.42268 0.39058 0.82783 0.0
C1675 C 0.4043 0.38954 0.8553 0.0
C1676 C 0.3989 0.40989 0.87772 0.0
H1677 H 0.61564 0.46651 0.78346 0.0
H1678 H 0.60574 0.48087 0.88451 0.0
H1679 H 0.64694 0.44203 0.89275 0.0
H1680 H 0.64046 0.3916 0.79137 0.0
H1681 H 0.66522 0.38864 0.75699 0.0
H1682 H 0.63525 0.41821 0.75828 0.0
H1683 H 0.66452 0.45268 0.74893 0.0
H1684 H 0.69455 0.42313 0.74737 0.0
H1685 H 0.68992 0.44933 0.77538 0.0
H1686 H 0.68939 0.40124 0.89061 0.0
H1687 H 0.73002 0.3617 0.87755 0.0
H1688 H 0.71288 0.3728 0.77836 0.0
C1689 C 0.62225 0.46158 0.80726 0.0
C1690 C 0.60731 0.47701 0.83328 0.0
C1691 C 0.61681 0.46977 0.86403 0.0
C1692 C 0.64023 0.44758 0.86904 0.0
C1693 C 0.65439 0.43279 0.84304 0.0
C1694 C 0.64596 0.43961 0.81265 0.0
C1695 C 0.66525 0.42039 0.78884 0.0
C1696 C 0.65066 0.40372 0.77294 0.0
C1697 C 0.67938 0.4374 0.76363 0.0
C1698 C 0.68511 0.40118 0.8108 0.0
C1699 C 0.67871 0.40898 0.8419 0.0
C1700 C 0.69457 0.39497 0.86631 0.0
C1701 C 0.71766 0.37259 0.8587 0.0
C1702 C 0.72452 0.36408 0.82706 0.0
C1703 C 0.70788 0.37854 0.8029 0.0
H1704 H 0.61156 0.45037 0.23649 0.0
H1705 H 0.63353 0.5159 0.2761 0.0
H1706 H 0.67789 0.48206 0.28616 0.0
H1707 H 0.64377 0.39282 0.2935 0.0
H1708 H 0.65387 0.36726 0.26386 0.0
H1709 H 0.62402 0.39665 0.26042 0.0
H1710 H 0.64329 0.4103 0.20316 0.0
H1711 H 0.67338 0.38125 0.20686 0.0
H1712 H 0.67581 0.4166 0.19736 0.0
H1713 H 0.7204 0.44228 0.28842 0.0
H1714 H 0.75597 0.39747 0.29199 0.0
H1715 H 0.70584 0.35579 0.25397 0.0
C1716 C 0.62552 0.45732 0.24804 0.0
C1717 C 0.61905 0.48553 0.25619 0.0
C1718 C 0.63787 0.49418 0.2706 0.0
C1719 C 0.6632 0.47521 0.27592 0.0
C1720 C 0.66913 0.44766 0.26704 0.0
C1721 C 0.65061 0.4385 0.25412 0.0
C1722 C 0.6618 0.40754 0.24757 0.0
C1723 C 0.64486 0.39003 0.26753 0.0
C1724 C 0.66368 0.40371 0.2116 0.0
C1725 C 0.68959 0.40063 0.25888 0.0
C1726 C 0.69344 0.4243 0.26942 0.0
C1727 C 0.71744 0.42357 0.28065 0.0
C1728 C 0.73761 0.39782 0.28249 0.0
C1729 C 0.73381 0.37275 0.27352 0.0
C1730 C 0.70958 0.37442 0.26082 0.0
H1731 H 0.59716 0.65326 0.19833 0.0
H1732 H 0.64308 0.57111 0.23718 0.0
H1733 H 0.66743 0.59372 0.26653 0.0
H1734 H 0.65249 0.67834 0.18052 0.0
H1735 H 0.63439 0.71421 0.18863 0.0
H1736 H 0.61687 0.69173 0.1767 0.0
H1737 H 0.58348 0.70225 0.22821 0.0
H1738 H 0.6019 0.72385 0.24074 0.0
H1739 H 0.59622 0.69463 0.26693 0.0
H1740 H 0.6906 0.62353 0.28622 0.0
H1741 H 0.71788 0.6566 0.28335 0.0
H1742 H 0.65899 0.71924 0.23042 0.0
C1743 C 0.61222 0.63997 0.21306 0.0
C1744 C 0.61758 0.61039 0.21603 0.0
C1745 C 0.6379 0.59388 0.23525 0.0
C1746 C 0.65172 0.60653 0.25231 0.0
C1747 C 0.64535 0.63577 0.24963 0.0
C1748 C 0.62658 0.65224 0.22983 0.0
C1749 C 0.62703 0.68255 0.22644 0.0
C1750 C 0.63308 0.69225 0.19099 0.0
C1751 C 0.60058 0.70196 0.24149 0.0
C1752 C 0.6501 0.68015 0.2458 0.0
C1753 C 0.6596 0.65323 0.26023 0.0
C1754 C 0.68306 0.64485 0.27571 0.0
C1755 C 0.69834 0.66374 0.27419 0.0
C1756 C 0.69009 0.69026 0.25694 0.0
C1757 C 0.66502 0.69922 0.24442 0.0
H1758 H 0.45044 0.61335 0.24165 0.0
H1759 H 0.51519 0.64236 0.26576 0.0
H1760 H 0.48258 0.68895 0.27637 0.0
H1761 H 0.41208 0.67809 0.20301 0.0
H1762 H 0.37986 0.67384 0.21956 0.0
H1763 H 0.40836 0.64328 0.21306 0.0
H1764 H 0.40209 0.62528 0.27244 0.0
H1765 H 0.37342 0.65556 0.27921 0.0
H1766 H 0.40134 0.64775 0.30328 0.0
H1767 H 0.44284 0.73269 0.28283 0.0
H1768 H 0.3989 0.76864 0.29053 0.0
H1769 H 0.3592 0.71035 0.26486 0.0
C1770 C 0.45766 0.62947 0.24952 0.0
C1771 C 0.48524 0.62424 0.25333 0.0
C1772 C 0.49404 0.64578 0.26345 0.0
C1773 C 0.47571 0.67237 0.26912 0.0
C1774 C 0.44861 0.67689 0.26497 0.0
C1775 C 0.43957 0.65588 0.25581 0.0
C1776 C 0.40926 0.66562 0.25455 0.0
C1777 C 0.40198 0.66519 0.22051 0.0
C1778 C 0.39569 0.6475 0.27884 0.0
C1779 C 0.40255 0.69556 0.26426 0.0
C1780 C 0.42562 0.70169 0.26977 0.0
C1781 C 0.42466 0.72799 0.27887 0.0
C1782 C 0.39951 0.74831 0.28322 0.0
C1783 C 0.37543 0.74241 0.27849 0.0
C1784 C 0.37715 0.71568 0.26849 0.0
H1785 H 0.49124 0.46968 0.18869 0.0
H1786 H 0.47361 0.51216 0.27698 0.0
H1787 H 0.43867 0.48872 0.29523 0.0
H1788 H 0.4247 0.47638 0.17786 0.0
H1789 H 0.43273 0.44262 0.16151 0.0
H1790 H 0.45748 0.4615 0.15711 0.0
H1791 H 0.49094 0.41794 0.18401 0.0
H1792 H 0.46606 0.39906 0.18913 0.0
H1793 H 0.48125 0.40368 0.22332 0.0
H1794 H 0.40237 0.46279 0.30167 0.0
H1795 H 0.36852 0.43884 0.29373 0.0
H1796 H 0.41238 0.41306 0.20256 0.0
C1797 C 0.4805 0.47405 0.21203 0.0
C1798 C 0.48571 0.49288 0.23112 0.0
C1799 C 0.47047 0.49785 0.26152 0.0
C1800 C 0.45047 0.48449 0.27233 0.0
C1801 C 0.44601 0.46608 0.25266 0.0
C1802 C 0.46069 0.46095 0.22317 0.0
C1803 C 0.45132 0.44165 0.20549 0.0
C1804 C 0.44095 0.45643 0.17363 0.0
C1805 C 0.47373 0.41394 0.20019 0.0
C1806 C 0.4287 0.43701 0.22926 0.0
C1807 C 0.42583 0.45106 0.25654 0.0
C1808 C 0.40471 0.45139 0.2806 0.0
C1809 C 0.38568 0.4377 0.27601 0.0
C1810 C 0.388 0.42426 0.24749 0.0
C1811 C 0.41024 0.4232 0.22455 0.0
H1812 H 0.77945 0.62787 0.68212 0.0
H1813 H 0.80302 0.67046 0.59275 0.0
H1814 H 0.80108 0.71152 0.62149 0.0
H1815 H 0.7355 0.69466 0.71843 0.0
H1816 H 0.745 0.68197 0.75812 0.0
H1817 H 0.74372 0.65749 0.73038 0.0
H1818 H 0.79326 0.62933 0.7377 0.0
H1819 H 0.79446 0.65367 0.76547 0.0
H1820 H 0.81893 0.64731 0.73078 0.0
H1821 H 0.79163 0.75056 0.6599 0.0
H1822 H 0.78948 0.77763 0.7063 0.0
H1823 H 0.78557 0.70549 0.77101 0.0
C1824 C 0.78414 0.64588 0.66864 0.0
C1825 C 0.79149 0.64575 0.63502 0.0
C1826 C 0.79755 0.66979 0.61841 0.0
C1827 C 0.79615 0.69346 0.63449 0.0
C1828 C 0.78897 0.69293 0.66748 0.0
C1829 C 0.78359 0.66957 0.68457 0.0
C1830 C 0.77877 0.67374 0.72034 0.0
C1831 C 0.74899 0.67715 0.73254 0.0
C1832 C 0.79751 0.64957 0.73969 0.0
C1833 C 0.7852 0.70152 0.72067 0.0
C1834 C 0.7888 0.71325 0.68985 0.0
C1835 C 0.79076 0.7407 0.68405 0.0
C1836 C 0.79062 0.75575 0.71039 0.0
C1837 C 0.79144 0.74266 0.74181 0.0
C1838 C 0.7874 0.71546 0.74701 0.0
H1839 H 0.47971 0.7865 0.70811 0.0
H1840 H 0.46522 0.78434 0.60974 0.0
H1841 H 0.41732 0.78846 0.62759 0.0
H1842 H 0.43878 0.74699 0.74478 0.0
H1843 H 0.42313 0.76687 0.77919 0.0
H1844 H 0.45616 0.76749 0.76116 0.0
H1845 H 0.44318 0.82083 0.74818 0.0
H1846 H 0.4113 0.82155 0.77036 0.0
H1847 H 0.41231 0.83826 0.73032 0.0
H1848 H 0.36965 0.79373 0.6566 0.0
H1849 H 0.32813 0.79794 0.69263 0.0
H1850 H 0.37218 0.79338 0.7743 0.0
C1851 C 0.46656 0.78685 0.69021 0.0
C1852 C 0.47693 0.78501 0.65711 0.0
C1853 C 0.45834 0.78593 0.63497 0.0
C1854 C 0.43085 0.78822 0.64503 0.0
C1855 C 0.4214 0.79 0.67761 0.0
C1856 C 0.43871 0.78958 0.69983 0.0
C1857 C 0.42322 0.79211 0.73336 0.0
C1858 C 0.43604 0.76684 0.75608 0.0
C1859 C 0.42248 0.8199 0.74626 0.0
C1860 C 0.39481 0.79245 0.72706 0.0
C1861 C 0.39421 0.79207 0.69443 0.0
C1862 C 0.37018 0.79391 0.68213 0.0
C1863 C 0.34636 0.79635 0.70318 0.0
C1864 C 0.34584 0.79639 0.73706 0.0
C1865 C 0.37099 0.79398 0.74893 0.0
H1866 H 0.32755 0.39602 0.58409 0.0
H1867 H 0.33794 0.466 0.6278 0.0
H1868 H 0.32355 0.44617 0.68137 0.0
H1869 H 0.26875 0.38801 0.63725 0.0
H1870 H 0.27944 0.35003 0.63909 0.0
H1871 H 0.28951 0.37007 0.60401 0.0
H1872 H 0.33964 0.34325 0.60999 0.0
H1873 H 0.32959 0.32311 0.64494 0.0
H1874 H 0.35301 0.34273 0.6474 0.0
H1875 H 0.30871 0.41836 0.73045 0.0
H1876 H 0.29758 0.38345 0.77171 0.0
H1877 H 0.29744 0.32995 0.69747 0.0
C1878 C 0.32671 0.40708 0.60504 0.0
C1879 C 0.33385 0.43264 0.60185 0.0
C1880 C 0.33263 0.44646 0.62977 0.0
C1881 C 0.32437 0.43535 0.66024 0.0
C1882 C 0.31744 0.41018 0.66268 0.0
C1883 C 0.31871 0.39603 0.63588 0.0
C1884 C 0.31111 0.36874 0.64555 0.0
C1885 C 0.28569 0.36925 0.63058 0.0
C1886 C 0.33474 0.34293 0.63642 0.0
C1887 C 0.30553 0.36972 0.68185 0.0
C1888 C 0.3091 0.39396 0.69111 0.0
C1889 C 0.3058 0.39938 0.72336 0.0
C1890 C 0.29936 0.37935 0.74673 0.0
C1891 C 0.29618 0.35391 0.73817 0.0
C1892 C 0.29898 0.34937 0.70504 0.0
H1893 H 0.55273 0.30817 0.61699 0.0
H1894 H 0.58335 0.33493 0.52247 0.0
H1895 H 0.62287 0.34034 0.54505 0.0
H1896 H 0.57948 0.35425 0.663 0.0
H1897 H 0.58633 0.32704 0.69529 0.0
H1898 H 0.55825 0.33132 0.67258 0.0
H1899 H 0.57691 0.2789 0.65993 0.0
H1900 H 0.60507 0.27455 0.68217 0.0
H1901 H 0.61075 0.2662 0.64088 0.0
H1902 H 0.66329 0.3338 0.5772 0.0
H1903 H 0.69847 0.31782 0.61503 0.0
H1904 H 0.64061 0.29611 0.68831 0.0
C1905 C 0.56702 0.31669 0.60139 0.0
C1906 C 0.56453 0.32199 0.56817 0.0
C1907 C 0.58429 0.33178 0.54816 0.0
C1908 C 0.60697 0.33464 0.56082 0.0
C1909 C 0.60934 0.32813 0.59365 0.0
C1910 C 0.58946 0.31995 0.61373 0.0
C1911 C 0.59765 0.31152 0.64744 0.0
C1912 C 0.57934 0.33227 0.67097 0.0
C1913 C 0.5976 0.28099 0.65819 0.0
C1914 C 0.62592 0.31442 0.64294 0.0
C1915 C 0.63224 0.32459 0.61196 0.0
C1916 C 0.65816 0.32667 0.60171 0.0
C1917 C 0.67802 0.31774 0.62339 0.0
C1918 C 0.67198 0.30663 0.65488 0.0
C1919 C 0.64546 0.30548 0.66475 0.0
H1920 H 0.7601 0.51968 0.55188 0.0
H1921 H 0.80669 0.55758 0.47752 0.0
H1922 H 0.80179 0.52608 0.43912 0.0
H1923 H 0.78509 0.4508 0.53535 0.0
H1924 H 0.75362 0.44218 0.54128 0.0
H1925 H 0.75724 0.47054 0.56131 0.0
H1926 H 0.71535 0.50407 0.53645 0.0
H1927 H 0.71216 0.47569 0.51573 0.0
H1928 H 0.71474 0.50794 0.49357 0.0
H1929 H 0.79656 0.48737 0.41026 0.0
H1930 H 0.79693 0.44052 0.39605 0.0
H1931 H 0.75383 0.427 0.48834 0.0
C1932 C 0.76933 0.52128 0.52756 0.0
C1933 C 0.78432 0.54081 0.51796 0.0
C1934 C 0.79544 0.54264 0.48562 0.0
C1935 C 0.79243 0.52507 0.46347 0.0
C1936 C 0.77767 0.50607 0.47363 0.0
C1937 C 0.76615 0.50411 0.5049 0.0
C1938 C 0.7528 0.48053 0.51 0.0
C1939 C 0.76283 0.45978 0.53866 0.0
C1940 C 0.72194 0.49279 0.51419 0.0
C1941 C 0.76194 0.46724 0.47817 0.0
C1942 C 0.77475 0.48337 0.45686 0.0
C1943 C 0.78629 0.47473 0.42657 0.0
C1944 C 0.78629 0.44813 0.41858 0.0
C1945 C 0.77547 0.43021 0.44109 0.0
C1946 C 0.76203 0.44048 0.47063 0.0
H1947 H 0.64731 0.83934 0.46675 0.0
H1948 H 0.66088 0.74979 0.49188 0.0
H1949 H 0.69917 0.74004 0.44888 0.0
H1950 H 0.6589 0.83377 0.38176 0.0
H1951 H 0.67371 0.86244 0.37423 0.0
H1952 H 0.64914 0.8619 0.40822 0.0
H1953 H 0.68286 0.86542 0.44651 0.0
H1954 H 0.70668 0.86693 0.41206 0.0
H1955 H 0.71604 0.84055 0.44479 0.0
H1956 H 0.7334 0.74082 0.39747 0.0
H1957 H 0.76147 0.75131 0.3492 0.0
H1958 H 0.72542 0.84055 0.35745 0.0
C1959 C 0.65807 0.8175 0.46349 0.0
C1960 C 0.65039 0.79528 0.48312 0.0
C1961 C 0.66606 0.76726 0.47777 0.0
C1962 C 0.68782 0.76159 0.45307 0.0
C1963 C 0.69401 0.7841 0.43363 0.0
C1964 C 0.6795 0.81154 0.43885 0.0
C1965 C 0.68904 0.83219 0.41407 0.0
C1966 C 0.66635 0.84854 0.39335 0.0
C1967 C 0.6993 0.85245 0.43036 0.0
C1968 C 0.71188 0.81231 0.39428 0.0
C1969 C 0.7142 0.78461 0.4057 0.0
C1970 C 0.7324 0.76249 0.38966 0.0
C1971 C 0.74888 0.76869 0.36228 0.0
C1972 C 0.74785 0.79679 0.35064 0.0
C1973 C 0.72831 0.81885 0.36666 0.0
H1974 H 0.33866 0.60504 0.38417 0.0
H1975 H 0.30575 0.62003 0.48276 0.0
H1976 H 0.292 0.67098 0.468 0.0
H1977 H 0.36501 0.66523 0.37223 0.0
H1978 H 0.35764 0.675 0.33136 0.0
H1979 H 0.36475 0.63852 0.34688 0.0
H1980 H 0.31989 0.63477 0.33254 0.0
H1981 H 0.31311 0.67031 0.31451 0.0
H1982 H 0.28902 0.66083 0.34499 0.0
H1983 H 0.28055 0.72119 0.44255 0.0
H1984 H 0.27535 0.76615 0.40982 0.0
H1985 H 0.31705 0.72101 0.3272 0.0
C1986 C 0.32857 0.61882 0.40285 0.0
C1987 C 0.32303 0.60755 0.43487 0.0
C1988 C 0.30991 0.6272 0.45804 0.0
C1989 C 0.30201 0.65655 0.44985 0.0
C1990 C 0.30734 0.66671 0.41822 0.0
C1991 C 0.32063 0.64847 0.39512 0.0
C1992 C 0.32472 0.66524 0.36313 0.0
C1993 C 0.35485 0.66067 0.35278 0.0
C1994 C 0.31083 0.65732 0.33724 0.0
C1995 C 0.31109 0.69566 0.37155 0.0
C1996 C 0.30128 0.69583 0.40361 0.0
C1997 C 0.28819 0.72113 0.41745 0.0
C1998 C 0.28528 0.74675 0.39846 0.0
C1999 C 0.29548 0.74766 0.36559 0.0
C2000 C 0.30856 0.72142 0.352 0.0
H2001 H 0.46721 0.26735 0.42895 0.0
H2002 H 0.42462 0.33081 0.49457 0.0
H2003 H 0.38212 0.33597 0.47098 0.0
H2004 H 0.43435 0.30056 0.35998 0.0
H2005 H 0.43301 0.2684 0.34543 0.0
H2006 H 0.45931 0.26769 0.36939 0.0
H2007 H 0.44565 0.22989 0.40936 0.0
H2008 H 0.41921 0.23058 0.38553 0.0
H2009 H 0.41138 0.23686 0.42739 0.0
H2010 H 0.34335 0.32814 0.44521 0.0
H2011 H 0.31357 0.32461 0.40602 0.0
H2012 H 0.38221 0.27251 0.3501 0.0
C2013 C 0.44897 0.28263 0.43805 0.0
C2014 C 0.44929 0.29888 0.46354 0.0
C2015 C 0.42498 0.31846 0.47488 0.0
C2016 C 0.40069 0.32117 0.4619 0.0
C2017 C 0.40103 0.3045 0.43717 0.0
C2018 C 0.42471 0.28625 0.42465 0.0
C2019 C 0.41982 0.27229 0.3965 0.0
C2020 C 0.43768 0.27758 0.36601 0.0
C2021 C 0.42429 0.24053 0.4052 0.0
C2022 C 0.3901 0.28721 0.39349 0.0
C2023 C 0.37938 0.304 0.41874 0.0
C2024 C 0.35178 0.3166 0.42422 0.0
C2025 C 0.33499 0.31428 0.40186 0.0
C2026 C 0.34566 0.29964 0.37393 0.0
C2027 C 0.37363 0.28524 0.37016 0.0
H2028 H 0.63857 0.77368 0.65703 0.0
H2029 H 0.60425 0.86254 0.6296 0.0
H2030 H 0.63637 0.87391 0.66065 0.0
H2031 H 0.64785 0.78062 0.73699 0.0
H2032 H 0.67928 0.75291 0.73737 0.0
H2033 H 0.65468 0.75187 0.71177 0.0
H2034 H 0.69032 0.74852 0.66247 0.0
H2035 H 0.71504 0.74953 0.68796 0.0
H2036 H 0.70792 0.77493 0.65401 0.0
H2037 H 0.67382 0.87488 0.69354 0.0
H2038 H 0.71027 0.86591 0.729 0.0
H2039 H 0.71715 0.77675 0.73764 0.0
C2040 C 0.63771 0.7956 0.65752 0.0
C2041 C 0.61879 0.81731 0.64099 0.0
C2042 C 0.61836 0.84565 0.64236 0.0
C2043 C 0.63666 0.85223 0.65973 0.0
C2044 C 0.65504 0.83023 0.67575 0.0
C2045 C 0.65554 0.80248 0.67491 0.0
C2046 C 0.67667 0.78269 0.6948 0.0
C2047 C 0.66384 0.76605 0.72184 0.0
C2048 C 0.69879 0.76275 0.67354 0.0
C2049 C 0.68747 0.80367 0.70789 0.0
C2050 C 0.67529 0.83093 0.69598 0.0
C2051 C 0.68311 0.85369 0.70337 0.0
C2052 C 0.70371 0.84845 0.72356 0.0
C2053 C 0.71573 0.82081 0.73674 0.0
C2054 C 0.70753 0.79819 0.72874 0.0
H2055 H 0.6352 0.25903 0.46163 0.0
H2056 H 0.58366 0.31875 0.3976 0.0
H2057 H 0.62371 0.32773 0.3653 0.0
H2058 H 0.68741 0.29606 0.45815 0.0
H2059 H 0.71466 0.26376 0.45846 0.0
H2060 H 0.68179 0.26403 0.47783 0.0
H2061 H 0.68193 0.22405 0.44378 0.0
H2062 H 0.71433 0.22414 0.42319 0.0
H2063 H 0.68597 0.22926 0.4007 0.0
H2064 H 0.66981 0.32738 0.33716 0.0
H2065 H 0.71759 0.32089 0.31814 0.0
H2066 H 0.74092 0.26159 0.39988 0.0
C2067 C 0.63243 0.27447 0.44126 0.0
C2068 C 0.60615 0.2884 0.43235 0.0
C2069 C 0.60347 0.30794 0.40497 0.0
C2070 C 0.62617 0.3131 0.38642 0.0
C2071 C 0.6518 0.29844 0.3952 0.0
C2072 C 0.65509 0.27974 0.42218 0.0
C2073 C 0.68501 0.26594 0.42542 0.0
C2074 C 0.69267 0.27286 0.45684 0.0
C2075 C 0.69225 0.23394 0.42315 0.0
C2076 C 0.69803 0.2799 0.39633 0.0
C2077 C 0.6784 0.2984 0.37909 0.0
C2078 C 0.68525 0.3131 0.35074 0.0
C2079 C 0.71267 0.30915 0.33996 0.0
C2080 C 0.7334 0.29062 0.35723 0.0
C2081 C 0.72574 0.27592 0.38601 0.0
H2082 H 0.76096 0.68719 0.5127 0.0
H2083 H 0.74754 0.62036 0.46559 0.0
H2084 H 0.77093 0.63512 0.41534 0.0
H2085 H 0.74852 0.73854 0.4496 0.0
H2086 H 0.77474 0.75476 0.45151 0.0
H2087 H 0.76132 0.73801 0.48712 0.0
H2088 H 0.8069 0.70446 0.49868 0.0
H2089 H 0.82227 0.72177 0.46503 0.0
H2090 H 0.82831 0.68409 0.46754 0.0
H2091 H 0.79539 0.65623 0.37013 0.0
H2092 H 0.81308 0.68726 0.32963 0.0
H2093 H 0.80824 0.74403 0.4024 0.0
C2094 C 0.76305 0.67573 0.49174 0.0
C2095 C 0.75202 0.65272 0.49312 0.0
C2096 C 0.75521 0.63829 0.46513 0.0
C2097 C 0.76884 0.64631 0.4365 0.0
C2098 C 0.77933 0.66899 0.4358 0.0
C2099 C 0.77645 0.68379 0.46249 0.0
C2100 C 0.78832 0.70854 0.45408 0.0
C2101 C 0.76699 0.73666 0.46091 0.0
C2102 C 0.81291 0.70446 0.47243 0.0
C2103 C 0.79694 0.70601 0.41819 0.0
C2104 C 0.79248 0.6823 0.40875 0.0
C2105 C 0.79894 0.67489 0.37721 0.0
C2106 C 0.80921 0.69265 0.35431 0.0
C2107 C 0.81262 0.71807 0.36252 0.0
C2108 C 0.80691 0.72442 0.39527 0.0
H2109 H 0.51334 0.76584 0.5301 0.0
H2110 H 0.51622 0.85099 0.50047 0.0
H2111 H 0.48989 0.85208 0.45512 0.0
H2112 H 0.51433 0.74261 0.44777 0.0
H2113 H 0.49124 0.72258 0.46294 0.0
H2114 H 0.51516 0.72625 0.48808 0.0
H2115 H 0.47642 0.74647 0.53181 0.0
H2116 H 0.45285 0.74188 0.50727 0.0
H2117 H 0.44856 0.77612 0.52087 0.0
H2118 H 0.45852 0.84627 0.41915 0.0
H2119 H 0.41718 0.839 0.40425 0.0
H2120 H 0.43528 0.75741 0.45745 0.0
C2121 C 0.50879 0.78458 0.51369 0.0
C2122 C 0.51659 0.80837 0.51841 0.0
C2123 C 0.50998 0.83274 0.49716 0.0
C2124 C 0.49569 0.83321 0.47106 0.0
C2125 C 0.48859 0.80907 0.46678 0.0
C2126 C 0.49469 0.78532 0.48788 0.0
C2127 C 0.48103 0.76399 0.48188 0.0
C2128 C 0.50168 0.73729 0.46941 0.0
C2129 C 0.46368 0.75675 0.51222 0.0
C2130 C 0.46416 0.78054 0.45593 0.0
C2131 C 0.46989 0.80582 0.44625 0.0
C2132 C 0.45422 0.82639 0.42595 0.0
C2133 C 0.43084 0.82209 0.41755 0.0
C2134 C 0.42343 0.79772 0.43009 0.0
C2135 C 0.44108 0.77596 0.44749 0.0
H2136 H 0.33298 0.44089 0.41733 0.0
H2137 H 0.25658 0.47157 0.47477 0.0
H2138 H 0.23726 0.44207 0.44693 0.0
H2139 H 0.30412 0.43816 0.34343 0.0
H2140 H 0.33062 0.40707 0.33237 0.0
H2141 H 0.33733 0.43197 0.35554 0.0
H2142 H 0.35535 0.39205 0.39666 0.0
H2143 H 0.34682 0.36612 0.3771 0.0
H2144 H 0.33352 0.37312 0.41827 0.0
H2145 H 0.22523 0.4139 0.40746 0.0
H2146 H 0.22314 0.38372 0.36593 0.0
H2147 H 0.30917 0.36419 0.34231 0.0
C2148 C 0.31209 0.44163 0.42398 0.0
C2149 C 0.29615 0.45876 0.44804 0.0
C2150 C 0.269 0.45893 0.45609 0.0
C2151 C 0.25792 0.44222 0.44044 0.0
C2152 C 0.27423 0.42563 0.41674 0.0
C2153 C 0.30073 0.42529 0.40854 0.0
C2154 C 0.31422 0.4053 0.38275 0.0
C2155 C 0.32202 0.42161 0.35169 0.0
C2156 C 0.33896 0.38269 0.39434 0.0
C2157 C 0.29142 0.39338 0.37863 0.0
C2158 C 0.26824 0.40633 0.39747 0.0
C2159 C 0.2435 0.40246 0.39389 0.0
C2160 C 0.24246 0.38475 0.37075 0.0
C2161 C 0.26611 0.36948 0.35311 0.0
C2162 C 0.29091 0.37423 0.35689 0.0
H2163 H 0.45829 0.22748 0.63523 0.0
H2164 H 0.44308 0.31763 0.61193 0.0
H2165 H 0.4068 0.32666 0.65599 0.0
H2166 H 0.38785 0.22877 0.65865 0.0
H2167 H 0.39661 0.20154 0.69063 0.0
H2168 H 0.42031 0.20261 0.65588 0.0
H2169 H 0.45548 0.20333 0.69385 0.0
H2170 H 0.43108 0.20319 0.72814 0.0
H2171 H 0.44729 0.2308 0.72106 0.0
H2172 H 0.37406 0.32658 0.70528 0.0
H2173 H 0.34684 0.3172 0.7546 0.0
H2174 H 0.38001 0.22747 0.74666 0.0
C2175 C 0.44745 0.24916 0.63924 0.0
C2176 C 0.45398 0.27175 0.61929 0.0
C2177 C 0.43876 0.29973 0.62595 0.0
C2178 C 0.41797 0.30517 0.65127 0.0
C2179 C 0.41219 0.28254 0.67022 0.0
C2180 C 0.42644 0.25506 0.66459 0.0
C2181 C 0.41629 0.23466 0.68915 0.0
C2182 C 0.40455 0.21579 0.67257 0.0
C2183 C 0.43888 0.21695 0.70924 0.0
C2184 C 0.39426 0.25495 0.70957 0.0
C2185 C 0.39235 0.28247 0.69805 0.0
C2186 C 0.37479 0.30508 0.7137 0.0
C2187 C 0.3587 0.29953 0.74152 0.0
C2188 C 0.35916 0.27166 0.75339 0.0
C2189 C 0.37784 0.24903 0.73739 0.0
H2190 H 0.77015 0.4982 0.70581 0.0
H2191 H 0.72145 0.48896 0.63463 0.0
H2192 H 0.73033 0.43811 0.6524 0.0
H2193 H 0.82041 0.43064 0.6933 0.0
H2194 H 0.82756 0.42319 0.73442 0.0
H2195 H 0.81659 0.45918 0.7179 0.0
H2196 H 0.77707 0.47062 0.76242 0.0
H2197 H 0.78765 0.43489 0.7798 0.0
H2198 H 0.7538 0.44972 0.76887 0.0
H2199 H 0.74519 0.38799 0.67774 0.0
H2200 H 0.76599 0.34267 0.70599 0.0
H2201 H 0.80504 0.38373 0.76166 0.0
C2202 C 0.76118 0.48544 0.69425 0.0
C2203 C 0.74475 0.49758 0.66908 0.0
C2204 C 0.73396 0.48009 0.65394 0.0
C2205 C 0.73887 0.45123 0.66398 0.0
C2206 C 0.75511 0.4399 0.68887 0.0
C2207 C 0.76639 0.45639 0.70355 0.0
C2208 C 0.78456 0.43852 0.72822 0.0
C2209 C 0.81402 0.43787 0.71786 0.0
C2210 C 0.77519 0.44908 0.76182 0.0
C2211 C 0.78069 0.40971 0.72635 0.0
C2212 C 0.76394 0.41098 0.70314 0.0
C2213 C 0.75828 0.38694 0.69599 0.0
C2214 C 0.77031 0.36103 0.71249 0.0
C2215 C 0.7877 0.35877 0.73661 0.0
C2216 C 0.79238 0.38391 0.74372 0.0
H2217 H 0.33153 0.58815 0.5393 0.0
H2218 H 0.31428 0.52636 0.61271 0.0
H2219 H 0.32039 0.55445 0.65466 0.0
H2220 H 0.38118 0.60781 0.58278 0.0
H2221 H 0.36933 0.64421 0.56782 0.0
H2222 H 0.36893 0.61663 0.54383 0.0
H2223 H 0.31769 0.63891 0.53935 0.0
H2224 H 0.31854 0.66693 0.56186 0.0
H2225 H 0.2952 0.64681 0.57547 0.0
H2226 H 0.32181 0.59168 0.6875 0.0
H2227 H 0.30747 0.63879 0.70827 0.0
H2228 H 0.32482 0.67612 0.61351 0.0
C2229 C 0.32885 0.58082 0.56434 0.0
C2230 C 0.32162 0.55594 0.57334 0.0
C2231 C 0.31886 0.54613 0.60588 0.0
C2232 C 0.3231 0.56146 0.62958 0.0
C2233 C 0.33057 0.58599 0.61993 0.0
C2234 C 0.33308 0.59574 0.58802 0.0
C2235 C 0.33719 0.62459 0.58387 0.0
C2236 C 0.36587 0.62321 0.56869 0.0
C2237 C 0.31587 0.64552 0.56402 0.0
C2238 C 0.33346 0.631 0.61858 0.0
C2239 C 0.33142 0.60781 0.63911 0.0
C2240 C 0.32388 0.6098 0.67188 0.0
C2241 C 0.31578 0.63655 0.68349 0.0
C2242 C 0.31493 0.66056 0.66208 0.0
C2243 C 0.32568 0.65766 0.62999 0.0
loop_
_geom_bond_atom_site_label_1
_geom_bond_atom_site_label_2
_geom_bond_distance
_geom_bond_site_symmetry_2
_ccdc_geom_bond_type
Cu0 N1 1.999 . S
Cu0 O6 1.974 . S
Cu0 N11 1.985 . S
Cu0 O20 1.959 1_455 S
N1 Cu0 1.999 . S
N1 C3 1.263 . S
N1 C5 1.389 . S
N2 C3 1.358 . S
N2 C4 1.400 . S
C3 N1 1.263 . S
C3 N2 1.358 . S
C3 H9 0.930 . S
C4 N2 1.400 . S
C4 C5 1.351 . S
C4 H21 0.930 . S
C5 N1 1.389 . S
C5 C4 1.351 . S
C5 H10 0.930 . S
O6 Cu0 1.974 . S
O6 C16 1.282 1_545 S
C7 O8 1.261 . S
C7 O20 1.251 . S
O8 C7 1.261 . S
H9 C3 0.930 . S
H10 C5 0.930 . S
N11 Cu0 1.985 . S
N11 C13 1.335 1_455 S
N11 C14 1.390 1_545 S
N12 C13 1.345 1_565 S
N12 C15 1.336 . S
C13 N11 1.335 1_655 S
C13 N12 1.345 1_545 S
C13 H18 0.930 . S
C14 N11 1.390 1_565 S
C14 C15 1.346 1_455 S
C14 H19 0.930 . S
C15 N12 1.336 . S
C15 C14 1.346 1_655 S
C15 H22 0.921 . S
C16 O6 1.282 1_565 S
C16 O17 1.216 1_565 S
O17 C16 1.216 1_545 S
H18 C13 0.930 . S
H19 C14 0.930 . S
O20 Cu0 1.959 1_655 S
O20 C7 1.251 . S
H21 C4 0.930 . S
H22 C15 0.921 . S
Cu23 N24 1.999 . S
Cu23 O29 1.974 1_455 S
Cu23 N34 1.985 . S
Cu23 O43 1.959 . S
N24 Cu23 1.999 . S
N24 C26 1.263 1_455 S
N24 C28 1.389 1_545 S
N25 C26 1.358 1_565 S
N25 C27 1.400 . S
C26 N24 1.263 1_655 S
C26 N25 1.358 1_545 S
C26 H32 0.930 . S
C27 N25 1.400 . S
C27 C28 1.351 1_655 S
C27 H44 0.930 . S
C28 N24 1.389 1_565 S
C28 C27 1.351 1_455 S
C28 H33 0.930 . S
O29 Cu23 1.974 1_655 S
O29 C39 1.282 . S
C30 O31 1.261 . S
C30 O43 1.251 . S
O31 C30 1.261 . S
H32 C26 0.930 . S
H33 C28 0.930 . S
N34 Cu23 1.985 . S
N34 C36 1.335 . S
N34 C37 1.390 . S
N35 C36 1.345 . S
N35 C38 1.336 . S
C36 N34 1.335 . S
C36 N35 1.345 . S
C36 H41 0.930 . S
C37 N34 1.390 . S
C37 C38 1.346 . S
C37 H42 0.930 . S
C38 N35 1.336 . S
C38 C37 1.346 . S
C38 H45 0.929 . S
C39 O29 1.282 . S
C39 O40 1.216 . S
O40 C39 1.216 . S
H41 C36 0.930 . S
H42 C37 0.930 . S
O43 Cu23 1.959 . S
O43 C30 1.251 . S
H44 C27 0.930 . S
H45 C38 0.929 . S
Cu46 N47 1.999 . S
Cu46 O52 1.974 . S
Cu46 N57 1.985 . S
Cu46 O66 1.959 . S
N47 Cu46 1.999 . S
N47 C49 1.263 . S
N47 C51 1.389 . S
N48 C49 1.358 . S
N48 C50 1.400 . S
C49 N47 1.263 . S
C49 N48 1.358 . S
C49 H55 0.930 . S
C50 N48 1.400 . S
C50 C51 1.351 . S
C50 H67 0.930 1_554 S
C51 N47 1.389 . S
C51 C50 1.351 . S
C51 H56 0.930 . S
O52 Cu46 1.974 . S
O52 C62 1.282 . S
C53 O54 1.261 . S
C53 O66 1.251 . S
O54 C53 1.261 . S
H55 C49 0.930 . S
H56 C51 0.930 . S
N57 Cu46 1.985 . S
N57 C59 1.335 . S
N57 C60 1.390 . S
N58 C59 1.345 . S
N58 C61 1.336 . S
C59 N57 1.335 . S
C59 N58 1.345 . S
C59 H64 0.930 . S
C60 N57 1.390 . S
C60 C61 1.346 . S
C60 H65 0.930 . S
C61 N58 1.336 . S
C61 C60 1.346 . S
C61 H68 0.929 . S
C62 O52 1.282 . S
C62 O63 1.216 . S
O63 C62 1.216 . S
H64 C59 0.930 . S
H65 C60 0.930 . S
O66 Cu46 1.959 . S
O66 C53 1.251 . S
H67 C50 0.930 1_556 S
H68 C61 0.929 . S
Cu69 N70 1.999 . S
Cu69 O75 1.974 . S
Cu69 N80 1.985 . S
Cu69 O89 1.959 . S
N70 Cu69 1.999 . S
N70 C72 1.263 . S
N70 C74 1.389 . S
N71 C72 1.358 . S
N71 C73 1.400 1_554 S
C72 N70 1.263 . S
C72 N71 1.358 . S
C72 H78 0.930 . S
C73 N71 1.400 1_556 S
C73 C74 1.351 1_556 S
C73 H90 0.930 . S
C74 N70 1.389 . S
C74 C73 1.351 1_554 S
C74 H79 0.930 . S
O75 Cu69 1.974 . S
O75 C85 1.282 . S
C76 O77 1.261 . S
C76 O89 1.251 . S
O77 C76 1.261 . S
H78 C72 0.930 . S
H79 C74 0.930 . S
N80 Cu69 1.985 . S
N80 C82 1.335 1_455 S
N80 C83 1.390 . S
N81 C82 1.345 . S
N81 C84 1.336 1_655 S
C82 N80 1.335 1_655 S
C82 N81 1.345 . S
C82 H87 0.930 . S
C83 N80 1.390 . S
C83 C84 1.346 . S
C83 H88 0.930 . S
C84 N81 1.336 1_455 S
C84 C83 1.346 . S
C84 H91 0.929 . S
C85 O75 1.282 . S
C85 O86 1.216 . S
O86 C85 1.216 . S
H87 C82 0.930 . S
H88 C83 0.930 . S
O89 Cu69 1.959 . S
O89 C76 1.251 . S
H90 C73 0.930 . S
H91 C84 0.929 . S
Cu92 N93 1.999 1_554 S
Cu92 O98 1.974 . S
Cu92 N103 1.985 1_545 S
Cu92 O112 1.959 1_544 S
N93 Cu92 1.999 1_556 S
N93 C95 1.263 . S
N93 C97 1.389 . S
N94 C95 1.358 . S
N94 C96 1.400 . S
C95 N93 1.263 . S
C95 N94 1.358 . S
C95 H101 0.930 . S
C96 N94 1.400 . S
C96 C97 1.351 . S
C96 H113 0.930 . S
C97 N93 1.389 . S
C97 C96 1.351 . S
C97 H102 0.930 . S
O98 Cu92 1.974 . S
O98 C108 1.282 . S
C99 O100 1.261 . S
C99 O112 1.251 . S
O100 C99 1.261 . S
H101 C95 0.930 . S
H102 C97 0.930 . S
N103 Cu92 1.985 1_565 S
N103 C105 1.335 . S
N103 C106 1.390 . S
N104 C105 1.345 . S
N104 C107 1.336 . S
C105 N103 1.335 . S
C105 N104 1.345 . S
C105 H110 0.930 . S
C106 N103 1.390 . S
C106 C107 1.346 . S
C106 H111 0.930 . S
C107 N104 1.336 . S
C107 C106 1.346 . S
C107 H114 0.929 . S
C108 O98 1.282 . S
C108 O109 1.216 . S
O109 C108 1.216 . S
H110 C105 0.930 . S
H111 C106 0.930 . S
O112 Cu92 1.959 1_566 S
O112 C99 1.251 . S
H113 C96 0.930 . S
H114 C107 0.929 . S
Cu115 N116 1.999 1_454 S
Cu115 O121 1.974 1_455 S
Cu115 N126 1.985 . S
Cu115 O135 1.959 1_554 S
N116 Cu115 1.999 1_656 S
N116 C118 1.263 . S
N116 C120 1.389 . S
N117 C118 1.358 . S
N117 C119 1.400 . S
C118 N116 1.263 . S
C118 N117 1.358 . S
C118 H124 0.930 . S
C119 N117 1.400 . S
C119 C120 1.351 . S
C119 H136 0.930 . S
C120 N116 1.389 . S
C120 C119 1.351 . S
C120 H125 0.930 1_655 S
O121 Cu115 1.974 1_655 S
O121 C131 1.282 . S
C122 O123 1.261 . S
C122 O135 1.251 . S
O123 C122 1.261 . S
H124 C118 0.930 . S
H125 C120 0.930 1_455 S
N126 Cu115 1.985 . S
N126 C128 1.335 . S
N126 C129 1.390 . S
N127 C128 1.345 . S
N127 C130 1.336 . S
C128 N126 1.335 . S
C128 N127 1.345 . S
C128 H133 0.930 . S
C129 N126 1.390 . S
C129 C130 1.346 . S
C129 H134 0.930 1_455 S
C130 N127 1.336 . S
C130 C129 1.346 . S
C130 H137 0.929 . S
C131 O121 1.282 . S
C131 O132 1.216 . S
O132 C131 1.216 . S
H133 C128 0.930 . S
H134 C129 0.930 1_655 S
O135 Cu115 1.959 1_556 S
O135 C122 1.251 . S
H136 C119 0.930 . S
H137 C130 0.929 . S
Cu138 N139 1.999 . S
Cu138 O144 1.974 . S
Cu138 N149 1.985 . S
Cu138 O158 1.959 . S
N139 Cu138 1.999 . S
N139 C141 1.263 . S
N139 C143 1.389 . S
N140 C141 1.358 . S
N140 C142 1.400 . S
C141 N139 1.263 . S
C141 N140 1.358 . S
C141 H147 0.930 . S
C142 N140 1.400 . S
C142 C143 1.351 . S
C142 H159 0.930 . S
C143 N139 1.389 . S
C143 C142 1.351 . S
C143 H148 0.930 . S
O144 Cu138 1.974 . S
O144 C154 1.282 . S
C145 O146 1.261 . S
C145 O158 1.251 . S
O146 C145 1.261 . S
H147 C141 0.930 . S
H148 C143 0.930 . S
N149 Cu138 1.985 . S
N149 C151 1.335 . S
N149 C152 1.390 . S
N150 C151 1.345 . S
N150 C153 1.336 . S
C151 N149 1.335 . S
C151 N150 1.345 . S
C151 H156 0.930 . S
C152 N149 1.390 . S
C152 C153 1.346 . S
C152 H157 0.930 . S
C153 N150 1.336 . S
C153 C152 1.346 . S
C153 H160 0.929 . S
C154 O144 1.282 . S
C154 O155 1.216 . S
O155 C154 1.216 . S
H156 C151 0.930 . S
H157 C152 0.930 . S
O158 Cu138 1.959 . S
O158 C145 1.251 . S
H159 C142 0.930 . S
H160 C153 0.929 . S
Cu161 N162 1.999 . S
Cu161 O167 1.974 . S
Cu161 N172 1.985 . S
Cu161 O181 1.959 . S
N162 Cu161 1.999 . S
N162 C164 1.263 . S
N162 C166 1.389 . S
N163 C164 1.358 . S
N163 C165 1.400 . S
C164 N162 1.263 . S
C164 N163 1.358 . S
C164 H170 0.930 . S
C165 N163 1.400 . S
C165 C166 1.351 . S
C165 H182 0.930 . S
C166 N162 1.389 . S
C166 C165 1.351 . S
C166 H171 0.930 . S
O167 Cu161 1.974 . S
O167 C177 1.282 . S
C168 O169 1.261 . S
C168 O181 1.251 . S
O169 C168 1.261 . S
H170 C164 0.930 . S
H171 C166 0.930 . S
N172 Cu161 1.985 . S
N172 C174 1.335 . S
N172 C175 1.390 . S
N173 C174 1.345 . S
N173 C176 1.336 . S
C174 N172 1.335 . S
C174 N173 1.345 . S
C174 H179 0.930 . S
C175 N172 1.390 . S
C175 C176 1.346 . S
C175 H180 0.930 . S
C176 N173 1.336 . S
C176 C175 1.346 . S
C176 H183 0.929 . S
C177 O167 1.282 . S
C177 O178 1.216 . S
O178 C177 1.216 . S
H179 C174 0.930 . S
H180 C175 0.930 . S
O181 Cu161 1.959 . S
O181 C168 1.251 . S
H182 C165 0.930 . S
H183 C176 0.929 . S
Cu184 N185 1.999 . S
Cu184 O190 1.974 . S
Cu184 N195 1.985 . S
Cu184 O204 1.959 . S
N185 Cu184 1.999 . S
N185 C187 1.263 . S
N185 C189 1.389 . S
N186 C187 1.358 . S
N186 C188 1.400 . S
C187 N185 1.263 . S
C187 N186 1.358 . S
C187 H193 0.930 . S
C188 N186 1.400 . S
C188 C189 1.351 . S
C188 H205 0.930 . S
C189 N185 1.389 . S
C189 C188 1.351 . S
C189 H194 0.930 . S
O190 Cu184 1.974 . S
O190 C200 1.282 . S
C191 O192 1.261 . S
C191 O204 1.251 . S
O192 C191 1.261 . S
H193 C187 0.930 . S
H194 C189 0.930 . S
N195 Cu184 1.985 . S
N195 C197 1.335 . S
N195 C198 1.390 . S
N196 C197 1.345 . S
N196 C199 1.336 . S
C197 N195 1.335 . S
C197 N196 1.345 . S
C197 H202 0.930 . S
C198 N195 1.390 . S
C198 C199 1.346 . S
C198 H203 0.930 . S
C199 N196 1.336 . S
C199 C198 1.346 . S
C199 H206 0.929 . S
C200 O190 1.282 . S
C200 O201 1.216 . S
O201 C200 1.216 . S
H202 C197 0.930 . S
H203 C198 0.930 . S
O204 Cu184 1.959 . S
O204 C191 1.251 . S
H205 C188 0.930 . S
H206 C199 0.929 . S
Cu207 N208 1.999 . S
Cu207 O213 1.974 . S
Cu207 N218 1.985 . S
Cu207 O227 1.959 . S
N208 Cu207 1.999 . S
N208 C210 1.263 . S
N208 C212 1.389 . S
N209 C210 1.358 . S
N209 C211 1.400 . S
C210 N208 1.263 . S
C210 N209 1.358 . S
C210 H216 0.930 . S
C211 N209 1.400 . S
C211 C212 1.351 . S
C211 H228 0.930 . S
C212 N208 1.389 . S
C212 C211 1.351 . S
C212 H217 0.930 . S
O213 Cu207 1.974 . S
O213 C223 1.282 . S
C214 O215 1.261 . S
C214 O227 1.251 . S
O215 C214 1.261 . S
H216 C210 0.930 . S
H217 C212 0.930 . S
N218 Cu207 1.985 . S
N218 C220 1.335 . S
N218 C221 1.390 . S
N219 C220 1.345 . S
N219 C222 1.336 . S
C220 N218 1.335 . S
C220 N219 1.345 . S
C220 H225 0.930 . S
C221 N218 1.390 . S
C221 C222 1.346 . S
C221 H226 0.930 . S
C222 N219 1.336 . S
C222 C221 1.346 . S
C222 H229 0.929 . S
C223 O213 1.282 . S
C223 O224 1.216 . S
O224 C223 1.216 . S
H225 C220 0.930 . S
H226 C221 0.930 . S
O227 Cu207 1.959 . S
O227 C214 1.251 . S
H228 C211 0.930 . S
H229 C222 0.929 . S
Cu230 N231 1.999 . S
Cu230 O236 1.974 . S
Cu230 N241 1.985 . S
Cu230 O250 1.959 . S
N231 Cu230 1.999 . S
N231 C233 1.263 . S
N231 C235 1.389 . S
N232 C233 1.358 . S
N232 C234 1.400 . S
C233 N231 1.263 . S
C233 N232 1.358 . S
C233 H239 0.930 . S
C234 N232 1.400 . S
C234 C235 1.351 . S
C234 H251 0.930 . S
C235 N231 1.389 . S
C235 C234 1.351 . S
C235 H240 0.930 . S
O236 Cu230 1.974 . S
O236 C246 1.282 . S
C237 O238 1.261 . S
C237 O250 1.251 . S
O238 C237 1.261 . S
H239 C233 0.930 . S
H240 C235 0.930 . S
N241 Cu230 1.985 . S
N241 C243 1.335 . S
N241 C244 1.390 . S
N242 C243 1.345 . S
N242 C245 1.336 . S
C243 N241 1.335 . S
C243 N242 1.345 . S
C243 H248 0.930 . S
C244 N241 1.390 . S
C244 C245 1.346 . S
C244 H249 0.930 . S
C245 N242 1.336 . S
C245 C244 1.346 . S
C245 H252 0.929 . S
C246 O236 1.282 . S
C246 O247 1.216 . S
O247 C246 1.216 . S
H248 C243 0.930 . S
H249 C244 0.930 . S
O250 Cu230 1.959 . S
O250 C237 1.251 . S
H251 C234 0.930 . S
H252 C245 0.929 . S
Cu253 N254 1.999 . S
Cu253 O259 1.974 . S
Cu253 N264 1.985 . S
Cu253 O273 1.959 . S
N254 Cu253 1.999 . S
N254 C256 1.263 . S
N254 C258 1.389 . S
N255 C256 1.358 . S
N255 C257 1.400 . S
C256 N254 1.263 . S
C256 N255 1.358 . S
C256 H262 0.930 . S
C257 N255 1.400 . S
C257 C258 1.351 . S
C257 H274 0.930 . S
C258 N254 1.389 . S
C258 C257 1.351 . S
C258 H263 0.930 . S
O259 Cu253 1.974 . S
O259 C269 1.282 . S
C260 O261 1.261 . S
C260 O273 1.251 . S
O261 C260 1.261 . S
H262 C256 0.930 . S
H263 C258 0.930 . S
N264 Cu253 1.985 . S
N264 C266 1.335 . S
N264 C267 1.390 . S
N265 C266 1.345 . S
N265 C268 1.336 . S
C266 N264 1.335 . S
C266 N265 1.345 . S
C266 H271 0.930 . S
C267 N264 1.390 . S
C267 C268 1.346 . S
C267 H272 0.930 . S
C268 N265 1.336 . S
C268 C267 1.346 . S
C268 H275 0.929 . S
C269 O259 1.282 . S
C269 O270 1.216 . S
O270 C269 1.216 . S
H271 C266 0.930 . S
H272 C267 0.930 . S
O273 Cu253 1.959 . S
O273 C260 1.251 . S
H274 C257 0.930 . S
H275 C268 0.929 . S
Gd276 N307 2.661 . S
Gd276 N313 2.601 . S
Gd276 O320 2.545 . S
Gd276 O321 2.606 . S
Gd276 O323 2.429 . S
Gd276 O324 2.545 . S
Gd276 O325 2.412 . S
Gd276 O327 2.362 . S
Gd276 O328 2.324 . S
Gd276 C335 2.828 . S
Gd277 N286 2.661 . S
Gd277 N290 2.601 . S
Gd277 O321 2.362 . S
Gd277 O322 2.324 . S
Gd277 O326 2.545 . S
Gd277 O327 2.606 . S
Gd277 O329 2.429 . S
Gd277 O330 2.545 . S
Gd277 O331 2.412 . S
Gd277 C344 2.828 . S
C278 C281 1.417 . S
C278 C283 1.431 . S
C278 C284 1.412 . S
C279 C282 1.437 . S
C279 C283 1.317 . S
C279 H298 0.929 . S
C280 C281 1.426 . S
C280 C282 1.413 . S
C280 N290 1.359 . S
C281 C278 1.417 . S
C281 C280 1.426 . S
C281 N286 1.350 . S
C282 C279 1.437 . S
C282 C280 1.413 . S
C282 C292 1.391 . S
C283 C278 1.431 . S
C283 C279 1.317 . S
C283 H294 0.930 . S
C284 C278 1.412 . S
C284 C285 1.355 . S
C284 H296 0.930 . S
C285 C284 1.355 . S
C285 C287 1.402 . S
C285 H297 0.930 . S
N286 Gd277 2.661 . S
N286 C281 1.350 . S
N286 C287 1.307 . S
C287 C285 1.402 . S
C287 N286 1.307 . S
C287 H288 0.930 . S
H288 C287 0.930 . S
C289 N290 1.334 . S
C289 C291 1.394 . S
C289 H293 0.930 . S
N290 Gd277 2.601 . S
N290 C280 1.359 . S
N290 C289 1.334 . S
C291 C289 1.394 . S
C291 C292 1.359 . S
C291 H303 0.930 . S
C292 C282 1.391 . S
C292 C291 1.359 . S
C292 H304 0.929 . S
H293 C289 0.930 . S
H294 C283 0.930 . S
H295 C312 0.930 . S
H296 C284 0.930 . S
H297 C285 0.930 . S
H298 C279 0.929 . S
H299 C317 0.930 . S
H300 C308 0.930 . S
H301 C309 0.930 . S
H302 C333 0.929 . S
H303 C291 0.930 . S
H304 C292 0.929 . S
H305 C334 0.930 . S
H306 C315 0.930 . S
N307 Gd276 2.661 . S
N307 C311 1.350 . S
N307 C312 1.307 . S
C308 H300 0.930 . S
C308 C309 1.355 . S
C308 C310 1.412 . S
C309 H301 0.930 . S
C309 C308 1.355 . S
C309 C312 1.402 . S
C310 C308 1.412 . S
C310 C311 1.417 . S
C310 C334 1.431 . S
C311 N307 1.350 . S
C311 C310 1.417 . S
C311 C314 1.426 . S
C312 H295 0.930 . S
C312 N307 1.307 . S
C312 C309 1.402 . S
N313 Gd276 2.601 . S
N313 C314 1.359 . S
N313 C317 1.334 . S
C314 C311 1.426 . S
C314 N313 1.359 . S
C314 C318 1.413 . S
C315 H306 0.930 . S
C315 C316 1.359 . S
C315 C317 1.394 . S
C316 C315 1.359 . S
C316 C318 1.391 . S
C316 H319 0.929 . S
C317 H299 0.930 . S
C317 N313 1.334 . S
C317 C315 1.394 . S
C318 C314 1.413 . S
C318 C316 1.391 . S
C318 C333 1.437 . S
H319 C316 0.929 . S
O320 Gd276 2.545 . S
O320 C335 1.258 . S
O321 Gd276 2.606 . S
O321 Gd277 2.362 . S
O321 C332 1.284 . S
O322 Gd277 2.324 . S
O322 C342 1.254 . S
O323 Gd276 2.429 . S
O323 C342 1.268 . S
O324 Gd276 2.545 . S
O324 C332 1.250 . S
O325 Gd276 2.412 . S
O325 C335 1.252 . S
O326 Gd277 2.545 . S
O326 C344 1.258 . S
O327 Gd276 2.362 . S
O327 Gd277 2.606 . S
O327 C343 1.284 . S
O328 Gd276 2.324 . S
O328 C351 1.254 . S
O329 Gd277 2.429 . S
O329 C351 1.268 . S
O330 Gd277 2.545 . S
O330 C343 1.250 . S
O331 Gd277 2.412 . S
O331 C344 1.252 . S
C332 O321 1.284 . S
C332 O324 1.250 . S
C333 H302 0.929 . S
C333 C318 1.437 . S
C333 C334 1.317 . S
C334 H305 0.930 . S
C334 C310 1.431 . S
C334 C333 1.317 . S
C335 Gd276 2.828 . S
C335 O320 1.258 . S
C335 O325 1.252 . S
C335 C336 1.497 . S
C336 C335 1.497 . S
C336 C337 1.395 . S
C336 C338 1.380 . S
C337 C336 1.395 . S
C337 C340 1.398 . S
C337 H352 0.930 . S
C338 C336 1.380 . S
C338 C339 1.391 . S
C338 H353 0.930 . S
C339 C338 1.391 . S
C339 C341 1.387 . S
C340 C337 1.398 . S
C340 C341 1.380 . S
C340 H354 0.930 . S
C341 C339 1.387 . S
C341 C340 1.380 . S
C341 H355 0.930 . S
C342 O322 1.254 . S
C342 O323 1.268 . S
C343 O327 1.284 . S
C343 O330 1.250 . S
C344 Gd277 2.828 . S
C344 O326 1.258 . S
C344 O331 1.252 . S
C344 C345 1.497 . S
C345 C344 1.497 . S
C345 C346 1.395 . S
C345 C347 1.380 . S
C346 C345 1.395 . S
C346 C349 1.398 . S
C346 H356 0.930 . S
C347 C345 1.380 . S
C347 C348 1.391 . S
C347 H357 0.930 . S
C348 C347 1.391 . S
C348 C350 1.387 . S
C349 C346 1.398 . S
C349 C350 1.380 . S
C349 H358 0.930 . S
C350 C348 1.387 . S
C350 C349 1.380 . S
C350 H359 0.930 . S
C351 O328 1.254 . S
C351 O329 1.268 . S
H352 C337 0.930 . S
H353 C338 0.930 . S
H354 C340 0.930 . S
H355 C341 0.930 . S
H356 C346 0.930 . S
H357 C347 0.930 . S
H358 C349 0.930 . S
H359 C350 0.930 . S
Gd360 N391 2.661 . S
Gd360 N397 2.601 . S
Gd360 O404 2.545 . S
Gd360 O405 2.606 . S
Gd360 O407 2.429 . S
Gd360 O408 2.545 . S
Gd360 O409 2.412 . S
Gd360 O411 2.362 . S
Gd360 O412 2.324 . S
Gd360 C419 2.828 . S
Gd361 N370 2.661 . S
Gd361 N374 2.601 . S
Gd361 O405 2.362 . S
Gd361 O406 2.324 . S
Gd361 O410 2.545 . S
Gd361 O411 2.606 . S
Gd361 O413 2.429 . S
Gd361 O414 2.545 . S
Gd361 O415 2.412 . S
Gd361 C428 2.828 . S
C362 C365 1.417 . S
C362 C367 1.431 . S
C362 C368 1.412 . S
C363 C366 1.437 . S
C363 C367 1.317 . S
C363 H382 0.929 . S
C364 C365 1.426 . S
C364 C366 1.413 . S
C364 N374 1.359 . S
C365 C362 1.417 . S
C365 C364 1.426 . S
C365 N370 1.350 . S
C366 C363 1.437 . S
C366 C364 1.413 . S
C366 C376 1.391 . S
C367 C362 1.431 . S
C367 C363 1.317 . S
C367 H378 0.930 . S
C368 C362 1.412 . S
C368 C369 1.355 . S
C368 H380 0.930 . S
C369 C368 1.355 . S
C369 C371 1.402 . S
C369 H381 0.930 . S
N370 Gd361 2.661 . S
N370 C365 1.350 . S
N370 C371 1.307 . S
C371 C369 1.402 . S
C371 N370 1.307 . S
C371 H372 0.930 . S
H372 C371 0.930 . S
C373 N374 1.334 . S
C373 C375 1.394 . S
C373 H377 0.930 . S
N374 Gd361 2.601 . S
N374 C364 1.359 . S
N374 C373 1.334 . S
C375 C373 1.394 . S
C375 C376 1.359 . S
C375 H387 0.930 . S
C376 C366 1.391 . S
C376 C375 1.359 . S
C376 H388 0.929 . S
H377 C373 0.930 . S
H378 C367 0.930 . S
H379 C396 0.930 . S
H380 C368 0.930 . S
H381 C369 0.930 . S
H382 C363 0.929 . S
H383 C401 0.930 . S
H384 C392 0.930 . S
H385 C393 0.930 . S
H386 C417 0.929 . S
H387 C375 0.930 . S
H388 C376 0.929 . S
H389 C418 0.930 . S
H390 C399 0.930 . S
N391 Gd360 2.661 . S
N391 C395 1.350 . S
N391 C396 1.307 . S
C392 H384 0.930 . S
C392 C393 1.355 . S
C392 C394 1.412 . S
C393 H385 0.930 . S
C393 C392 1.355 . S
C393 C396 1.402 . S
C394 C392 1.412 . S
C394 C395 1.417 . S
C394 C418 1.431 . S
C395 N391 1.350 . S
C395 C394 1.417 . S
C395 C398 1.426 . S
C396 H379 0.930 . S
C396 N391 1.307 . S
C396 C393 1.402 . S
N397 Gd360 2.601 . S
N397 C398 1.359 . S
N397 C401 1.334 . S
C398 C395 1.426 . S
C398 N397 1.359 . S
C398 C402 1.413 . S
C399 H390 0.930 . S
C399 C400 1.359 . S
C399 C401 1.394 . S
C400 C399 1.359 . S
C400 C402 1.391 . S
C400 H403 0.929 . S
C401 H383 0.930 . S
C401 N397 1.334 . S
C401 C399 1.394 . S
C402 C398 1.413 . S
C402 C400 1.391 . S
C402 C417 1.437 . S
H403 C400 0.929 . S
O404 Gd360 2.545 . S
O404 C419 1.258 . S
O405 Gd360 2.606 . S
O405 Gd361 2.362 . S
O405 C416 1.284 . S
O406 Gd361 2.324 . S
O406 C426 1.254 . S
O407 Gd360 2.429 . S
O407 C426 1.268 . S
O408 Gd360 2.545 . S
O408 C416 1.250 . S
O409 Gd360 2.412 . S
O409 C419 1.252 . S
O410 Gd361 2.545 . S
O410 C428 1.258 . S
O411 Gd360 2.362 . S
O411 Gd361 2.606 . S
O411 C427 1.284 . S
O412 Gd360 2.324 . S
O412 C435 1.254 . S
O413 Gd361 2.429 . S
O413 C435 1.268 . S
O414 Gd361 2.545 . S
O414 C427 1.250 . S
O415 Gd361 2.412 . S
O415 C428 1.252 . S
C416 O405 1.284 . S
C416 O408 1.250 . S
C417 H386 0.929 . S
C417 C402 1.437 . S
C417 C418 1.317 . S
C418 H389 0.930 . S
C418 C394 1.431 . S
C418 C417 1.317 . S
C419 Gd360 2.828 . S
C419 O404 1.258 . S
C419 O409 1.252 . S
C419 C420 1.497 . S
C420 C419 1.497 . S
C420 C421 1.395 . S
C420 C422 1.380 . S
C421 C420 1.395 . S
C421 C424 1.398 . S
C421 H436 0.930 . S
C422 C420 1.380 . S
C422 C423 1.391 . S
C422 H437 0.930 . S
C423 C422 1.391 . S
C423 C425 1.387 . S
C424 C421 1.398 . S
C424 C425 1.380 . S
C424 H438 0.930 . S
C425 C423 1.387 . S
C425 C424 1.380 . S
C425 H439 0.930 . S
C426 O406 1.254 . S
C426 O407 1.268 . S
C427 O411 1.284 . S
C427 O414 1.250 . S
C428 Gd361 2.828 . S
C428 O410 1.258 . S
C428 O415 1.252 . S
C428 C429 1.497 . S
C429 C428 1.497 . S
C429 C430 1.395 . S
C429 C431 1.380 . S
C430 C429 1.395 . S
C430 C433 1.398 . S
C430 H440 0.930 . S
C431 C429 1.380 . S
C431 C432 1.391 . S
C431 H441 0.930 . S
C432 C431 1.391 . S
C432 C434 1.387 . S
C433 C430 1.398 . S
C433 C434 1.380 . S
C433 H442 0.930 . S
C434 C432 1.387 . S
C434 C433 1.380 . S
C434 H443 0.930 . S
C435 O412 1.254 . S
C435 O413 1.268 . S
H436 C421 0.930 . S
H437 C422 0.930 . S
H438 C424 0.930 . S
H439 C425 0.930 . S
H440 C430 0.930 . S
H441 C431 0.930 . S
H442 C433 0.930 . S
H443 C434 0.930 . S
Gd444 N475 2.661 . S
Gd444 N481 2.601 . S
Gd444 O488 2.545 . S
Gd444 O489 2.606 . S
Gd444 O491 2.429 . S
Gd444 O492 2.545 . S
Gd444 O493 2.412 . S
Gd444 O495 2.362 . S
Gd444 O496 2.324 . S
Gd444 C503 2.828 . S
Gd445 N454 2.661 . S
Gd445 N458 2.601 . S
Gd445 O489 2.362 . S
Gd445 O490 2.324 . S
Gd445 O494 2.545 . S
Gd445 O495 2.606 . S
Gd445 O497 2.429 . S
Gd445 O498 2.545 . S
Gd445 O499 2.412 . S
Gd445 C512 2.828 . S
C446 C449 1.417 . S
C446 C451 1.431 . S
C446 C452 1.412 . S
C447 C450 1.437 . S
C447 C451 1.317 . S
C447 H466 0.929 . S
C448 C449 1.426 . S
C448 C450 1.413 . S
C448 N458 1.359 . S
C449 C446 1.417 . S
C449 C448 1.426 . S
C449 N454 1.350 . S
C450 C447 1.437 . S
C450 C448 1.413 . S
C450 C460 1.391 . S
C451 C446 1.431 . S
C451 C447 1.317 . S
C451 H462 0.930 . S
C452 C446 1.412 . S
C452 C453 1.355 . S
C452 H464 0.930 . S
C453 C452 1.355 . S
C453 C455 1.402 . S
C453 H465 0.930 . S
N454 Gd445 2.661 . S
N454 C449 1.350 . S
N454 C455 1.307 . S
C455 C453 1.402 . S
C455 N454 1.307 . S
C455 H456 0.930 . S
H456 C455 0.930 . S
C457 N458 1.334 . S
C457 C459 1.394 . S
C457 H461 0.930 . S
N458 Gd445 2.601 . S
N458 C448 1.359 . S
N458 C457 1.334 . S
C459 C457 1.394 . S
C459 C460 1.359 . S
C459 H471 0.930 . S
C460 C450 1.391 . S
C460 C459 1.359 . S
C460 H472 0.929 . S
H461 C457 0.930 . S
H462 C451 0.930 . S
H463 C480 0.930 . S
H464 C452 0.930 . S
H465 C453 0.930 . S
H466 C447 0.929 . S
H467 C485 0.930 . S
H468 C476 0.930 . S
H469 C477 0.930 . S
H470 C501 0.929 . S
H471 C459 0.930 . S
H472 C460 0.929 . S
H473 C502 0.930 . S
H474 C483 0.930 . S
N475 Gd444 2.661 . S
N475 C479 1.350 . S
N475 C480 1.307 . S
C476 H468 0.930 . S
C476 C477 1.355 . S
C476 C478 1.412 . S
C477 H469 0.930 . S
C477 C476 1.355 . S
C477 C480 1.402 . S
C478 C476 1.412 . S
C478 C479 1.417 . S
C478 C502 1.431 . S
C479 N475 1.350 . S
C479 C478 1.417 . S
C479 C482 1.426 . S
C480 H463 0.930 . S
C480 N475 1.307 . S
C480 C477 1.402 . S
N481 Gd444 2.601 . S
N481 C482 1.359 . S
N481 C485 1.334 . S
C482 C479 1.426 . S
C482 N481 1.359 . S
C482 C486 1.413 . S
C483 H474 0.930 . S
C483 C484 1.359 . S
C483 C485 1.394 . S
C484 C483 1.359 . S
C484 C486 1.391 . S
C484 H487 0.929 . S
C485 H467 0.930 . S
C485 N481 1.334 . S
C485 C483 1.394 . S
C486 C482 1.413 . S
C486 C484 1.391 . S
C486 C501 1.437 . S
H487 C484 0.929 . S
O488 Gd444 2.545 . S
O488 C503 1.258 . S
O489 Gd444 2.606 . S
O489 Gd445 2.362 . S
O489 C500 1.284 . S
O490 Gd445 2.324 . S
O490 C510 1.254 . S
O491 Gd444 2.429 . S
O491 C510 1.268 . S
O492 Gd444 2.545 . S
O492 C500 1.250 . S
O493 Gd444 2.412 . S
O493 C503 1.252 . S
O494 Gd445 2.545 . S
O494 C512 1.258 . S
O495 Gd444 2.362 . S
O495 Gd445 2.606 . S
O495 C511 1.284 . S
O496 Gd444 2.324 . S
O496 C519 1.254 . S
O497 Gd445 2.429 . S
O497 C519 1.268 . S
O498 Gd445 2.545 . S
O498 C511 1.250 . S
O499 Gd445 2.412 . S
O499 C512 1.252 . S
C500 O489 1.284 . S
C500 O492 1.250 . S
C501 H470 0.929 . S
C501 C486 1.437 . S
C501 C502 1.317 . S
C502 H473 0.930 . S
C502 C478 1.431 . S
C502 C501 1.317 . S
C503 Gd444 2.828 . S
C503 O488 1.258 . S
C503 O493 1.252 . S
C503 C504 1.497 . S
C504 C503 1.497 . S
C504 C505 1.395 . S
C504 C506 1.380 . S
C505 C504 1.395 . S
C505 C508 1.398 . S
C505 H520 0.930 . S
C506 C504 1.380 . S
C506 C507 1.391 . S
C506 H521 0.930 . S
C507 C506 1.391 . S
C507 C509 1.387 . S
C508 C505 1.398 . S
C508 C509 1.380 . S
C508 H522 0.930 . S
C509 C507 1.387 . S
C509 C508 1.380 . S
C509 H523 0.930 . S
C510 O490 1.254 . S
C510 O491 1.268 . S
C511 O495 1.284 . S
C511 O498 1.250 . S
C512 Gd445 2.828 . S
C512 O494 1.258 . S
C512 O499 1.252 . S
C512 C513 1.497 . S
C513 C512 1.497 . S
C513 C514 1.395 . S
C513 C515 1.380 . S
C514 C513 1.395 . S
C514 C517 1.398 . S
C514 H524 0.930 . S
C515 C513 1.380 . S
C515 C516 1.391 . S
C515 H525 0.930 . S
C516 C515 1.391 . S
C516 C518 1.387 . S
C517 C514 1.398 . S
C517 C518 1.380 . S
C517 H526 0.930 . S
C518 C516 1.387 . S
C518 C517 1.380 . S
C518 H527 0.930 . S
C519 O496 1.254 . S
C519 O497 1.268 . S
H520 C505 0.930 . S
H521 C506 0.930 . S
H522 C508 0.930 . S
H523 C509 0.930 . S
H524 C514 0.930 . S
H525 C515 0.930 . S
H526 C517 0.930 . S
H527 C518 0.930 . S
Gd528 N559 2.661 . S
Gd528 N565 2.601 . S
Gd528 O572 2.545 . S
Gd528 O573 2.606 . S
Gd528 O575 2.429 . S
Gd528 O576 2.545 . S
Gd528 O577 2.412 . S
Gd528 O579 2.362 . S
Gd528 O580 2.324 . S
Gd528 C587 2.828 . S
Gd529 N538 2.661 . S
Gd529 N542 2.601 . S
Gd529 O573 2.362 . S
Gd529 O574 2.324 . S
Gd529 O578 2.545 . S
Gd529 O579 2.606 . S
Gd529 O581 2.429 . S
Gd529 O582 2.545 . S
Gd529 O583 2.412 . S
Gd529 C596 2.828 . S
C530 C533 1.417 . S
C530 C535 1.431 . S
C530 C536 1.412 . S
C531 C534 1.437 . S
C531 C535 1.317 . S
C531 H550 0.929 . S
C532 C533 1.426 . S
C532 C534 1.413 . S
C532 N542 1.359 . S
C533 C530 1.417 . S
C533 C532 1.426 . S
C533 N538 1.350 . S
C534 C531 1.437 . S
C534 C532 1.413 . S
C534 C544 1.391 . S
C535 C530 1.431 . S
C535 C531 1.317 . S
C535 H546 0.930 . S
C536 C530 1.412 . S
C536 C537 1.355 . S
C536 H548 0.930 . S
C537 C536 1.355 . S
C537 C539 1.402 . S
C537 H549 0.930 . S
N538 Gd529 2.661 . S
N538 C533 1.350 . S
N538 C539 1.307 . S
C539 C537 1.402 . S
C539 N538 1.307 . S
C539 H540 0.930 . S
H540 C539 0.930 . S
C541 N542 1.334 . S
C541 C543 1.394 . S
C541 H545 0.930 . S
N542 Gd529 2.601 . S
N542 C532 1.359 . S
N542 C541 1.334 . S
C543 C541 1.394 . S
C543 C544 1.359 . S
C543 H555 0.930 . S
C544 C534 1.391 . S
C544 C543 1.359 . S
C544 H556 0.929 . S
H545 C541 0.930 . S
H546 C535 0.930 . S
H547 C564 0.930 . S
H548 C536 0.930 . S
H549 C537 0.930 . S
H550 C531 0.929 . S
H551 C569 0.930 . S
H552 C560 0.930 . S
H553 C561 0.930 . S
H554 C585 0.929 . S
H555 C543 0.930 . S
H556 C544 0.929 . S
H557 C586 0.930 . S
H558 C567 0.930 . S
N559 Gd528 2.661 . S
N559 C563 1.350 . S
N559 C564 1.307 . S
C560 H552 0.930 . S
C560 C561 1.355 . S
C560 C562 1.412 . S
C561 H553 0.930 . S
C561 C560 1.355 . S
C561 C564 1.402 . S
C562 C560 1.412 . S
C562 C563 1.417 . S
C562 C586 1.431 . S
C563 N559 1.350 . S
C563 C562 1.417 . S
C563 C566 1.426 . S
C564 H547 0.930 . S
C564 N559 1.307 . S
C564 C561 1.402 . S
N565 Gd528 2.601 . S
N565 C566 1.359 . S
N565 C569 1.334 . S
C566 C563 1.426 . S
C566 N565 1.359 . S
C566 C570 1.413 . S
C567 H558 0.930 . S
C567 C568 1.359 . S
C567 C569 1.394 . S
C568 C567 1.359 . S
C568 C570 1.391 . S
C568 H571 0.929 . S
C569 H551 0.930 . S
C569 N565 1.334 . S
C569 C567 1.394 . S
C570 C566 1.413 . S
C570 C568 1.391 . S
C570 C585 1.437 . S
H571 C568 0.929 . S
O572 Gd528 2.545 . S
O572 C587 1.258 . S
O573 Gd528 2.606 . S
O573 Gd529 2.362 . S
O573 C584 1.284 . S
O574 Gd529 2.324 . S
O574 C594 1.254 . S
O575 Gd528 2.429 . S
O575 C594 1.268 . S
O576 Gd528 2.545 . S
O576 C584 1.250 . S
O577 Gd528 2.412 . S
O577 C587 1.252 . S
O578 Gd529 2.545 . S
O578 C596 1.258 . S
O579 Gd528 2.362 . S
O579 Gd529 2.606 . S
O579 C595 1.284 . S
O580 Gd528 2.324 . S
O580 C603 1.254 . S
O581 Gd529 2.429 . S
O581 C603 1.268 . S
O582 Gd529 2.545 . S
O582 C595 1.250 . S
O583 Gd529 2.412 . S
O583 C596 1.252 . S
C584 O573 1.284 . S
C584 O576 1.250 . S
C585 H554 0.929 . S
C585 C570 1.437 . S
C585 C586 1.317 . S
C586 H557 0.930 . S
C586 C562 1.431 . S
C586 C585 1.317 . S
C587 Gd528 2.828 . S
C587 O572 1.258 . S
C587 O577 1.252 . S
C587 C588 1.497 . S
C588 C587 1.497 . S
C588 C589 1.395 . S
C588 C590 1.380 . S
C589 C588 1.395 . S
C589 C592 1.398 . S
C589 H604 0.930 . S
C590 C588 1.380 . S
C590 C591 1.391 . S
C590 H605 0.930 . S
C591 C590 1.391 . S
C591 C593 1.387 . S
C592 C589 1.398 . S
C592 C593 1.380 . S
C592 H606 0.930 . S
C593 C591 1.387 . S
C593 C592 1.380 . S
C593 H607 0.930 . S
C594 O574 1.254 . S
C594 O575 1.268 . S
C595 O579 1.284 . S
C595 O582 1.250 . S
C596 Gd529 2.828 . S
C596 O578 1.258 . S
C596 O583 1.252 . S
C596 C597 1.497 . S
C597 C596 1.497 . S
C597 C598 1.395 . S
C597 C599 1.380 . S
C598 C597 1.395 . S
C598 C601 1.398 . S
C598 H608 0.930 . S
C599 C597 1.380 . S
C599 C600 1.391 . S
C599 H609 0.930 . S
C600 C599 1.391 . S
C600 C602 1.387 . S
C601 C598 1.398 . S
C601 C602 1.380 . S
C601 H610 0.930 . S
C602 C600 1.387 . S
C602 C601 1.380 . S
C602 H611 0.930 . S
C603 O580 1.254 . S
C603 O581 1.268 . S
H604 C589 0.930 . S
H605 C590 0.930 . S
H606 C592 0.930 . S
H607 C593 0.930 . S
H608 C598 0.930 . S
H609 C599 0.930 . S
H610 C601 0.930 . S
H611 C602 0.930 . S
Gd612 N643 2.661 . S
Gd612 N649 2.601 . S
Gd612 O656 2.545 . S
Gd612 O657 2.606 . S
Gd612 O659 2.429 . S
Gd612 O660 2.545 . S
Gd612 O661 2.412 . S
Gd612 O663 2.362 . S
Gd612 O664 2.324 . S
Gd612 C671 2.828 . S
Gd613 N622 2.661 . S
Gd613 N626 2.601 . S
Gd613 O657 2.362 . S
Gd613 O658 2.324 . S
Gd613 O662 2.545 . S
Gd613 O663 2.606 . S
Gd613 O665 2.429 . S
Gd613 O666 2.545 . S
Gd613 O667 2.412 . S
Gd613 C680 2.828 . S
C614 C617 1.417 . S
C614 C619 1.431 . S
C614 C620 1.412 . S
C615 C618 1.437 . S
C615 C619 1.317 . S
C615 H634 0.929 . S
C616 C617 1.426 . S
C616 C618 1.413 . S
C616 N626 1.359 . S
C617 C614 1.417 . S
C617 C616 1.426 . S
C617 N622 1.350 . S
C618 C615 1.437 . S
C618 C616 1.413 . S
C618 C628 1.391 . S
C619 C614 1.431 . S
C619 C615 1.317 . S
C619 H630 0.930 . S
C620 C614 1.412 . S
C620 C621 1.355 . S
C620 H632 0.930 . S
C621 C620 1.355 . S
C621 C623 1.402 . S
C621 H633 0.930 . S
N622 Gd613 2.661 . S
N622 C617 1.350 . S
N622 C623 1.307 . S
C623 C621 1.402 . S
C623 N622 1.307 . S
C623 H624 0.930 . S
H624 C623 0.930 . S
C625 N626 1.334 . S
C625 C627 1.394 . S
C625 H629 0.930 . S
N626 Gd613 2.601 . S
N626 C616 1.359 . S
N626 C625 1.334 . S
C627 C625 1.394 . S
C627 C628 1.359 . S
C627 H639 0.930 . S
C628 C618 1.391 . S
C628 C627 1.359 . S
C628 H640 0.929 . S
H629 C625 0.930 . S
H630 C619 0.930 . S
H631 C648 0.930 . S
H632 C620 0.930 . S
H633 C621 0.930 . S
H634 C615 0.929 . S
H635 C653 0.930 . S
H636 C644 0.930 . S
H637 C645 0.930 . S
H638 C669 0.929 . S
H639 C627 0.930 . S
H640 C628 0.929 . S
H641 C670 0.930 . S
H642 C651 0.930 . S
N643 Gd612 2.661 . S
N643 C647 1.350 . S
N643 C648 1.307 . S
C644 H636 0.930 . S
C644 C645 1.355 . S
C644 C646 1.412 . S
C645 H637 0.930 . S
C645 C644 1.355 . S
C645 C648 1.402 . S
C646 C644 1.412 . S
C646 C647 1.417 . S
C646 C670 1.431 . S
C647 N643 1.350 . S
C647 C646 1.417 . S
C647 C650 1.426 . S
C648 H631 0.930 . S
C648 N643 1.307 . S
C648 C645 1.402 . S
N649 Gd612 2.601 . S
N649 C650 1.359 . S
N649 C653 1.334 . S
C650 C647 1.426 . S
C650 N649 1.359 . S
C650 C654 1.413 . S
C651 H642 0.930 . S
C651 C652 1.359 . S
C651 C653 1.394 . S
C652 C651 1.359 . S
C652 C654 1.391 . S
C652 H655 0.929 . S
C653 H635 0.930 . S
C653 N649 1.334 . S
C653 C651 1.394 . S
C654 C650 1.413 . S
C654 C652 1.391 . S
C654 C669 1.437 . S
H655 C652 0.929 . S
O656 Gd612 2.545 . S
O656 C671 1.258 . S
O657 Gd612 2.606 . S
O657 Gd613 2.362 . S
O657 C668 1.284 . S
O658 Gd613 2.324 . S
O658 C678 1.254 . S
O659 Gd612 2.429 . S
O659 C678 1.268 . S
O660 Gd612 2.545 . S
O660 C668 1.250 . S
O661 Gd612 2.412 . S
O661 C671 1.252 . S
O662 Gd613 2.545 . S
O662 C680 1.258 . S
O663 Gd612 2.362 . S
O663 Gd613 2.606 . S
O663 C679 1.284 . S
O664 Gd612 2.324 . S
O664 C687 1.254 . S
O665 Gd613 2.429 . S
O665 C687 1.268 . S
O666 Gd613 2.545 . S
O666 C679 1.250 . S
O667 Gd613 2.412 . S
O667 C680 1.252 . S
C668 O657 1.284 . S
C668 O660 1.250 . S
C669 H638 0.929 . S
C669 C654 1.437 . S
C669 C670 1.317 . S
C670 H641 0.930 . S
C670 C646 1.431 . S
C670 C669 1.317 . S
C671 Gd612 2.828 . S
C671 O656 1.258 . S
C671 O661 1.252 . S
C671 C672 1.497 . S
C672 C671 1.497 . S
C672 C673 1.395 . S
C672 C674 1.380 . S
C673 C672 1.395 . S
C673 C676 1.398 . S
C673 H688 0.930 . S
C674 C672 1.380 . S
C674 C675 1.391 . S
C674 H689 0.930 . S
C675 C674 1.391 . S
C675 C677 1.387 . S
C676 C673 1.398 . S
C676 C677 1.380 . S
C676 H690 0.930 . S
C677 C675 1.387 . S
C677 C676 1.380 . S
C677 H691 0.930 . S
C678 O658 1.254 . S
C678 O659 1.268 . S
C679 O663 1.284 . S
C679 O666 1.250 . S
C680 Gd613 2.828 . S
C680 O662 1.258 . S
C680 O667 1.252 . S
C680 C681 1.497 . S
C681 C680 1.497 . S
C681 C682 1.395 . S
C681 C683 1.380 . S
C682 C681 1.395 . S
C682 C685 1.398 . S
C682 H692 0.930 . S
C683 C681 1.380 . S
C683 C684 1.391 . S
C683 H693 0.930 . S
C684 C683 1.391 . S
C684 C686 1.387 . S
C685 C682 1.398 . S
C685 C686 1.380 . S
C685 H694 0.930 . S
C686 C684 1.387 . S
C686 C685 1.380 . S
C686 H695 0.930 . S
C687 O664 1.254 . S
C687 O665 1.268 . S
H688 C673 0.930 . S
H689 C674 0.930 . S
H690 C676 0.930 . S
H691 C677 0.930 . S
H692 C682 0.930 . S
H693 C683 0.930 . S
H694 C685 0.930 . S
H695 C686 0.930 . S
Gd696 N727 2.661 . S
Gd696 N733 2.601 . S
Gd696 O740 2.545 . S
Gd696 O741 2.606 . S
Gd696 O743 2.429 . S
Gd696 O744 2.545 . S
Gd696 O745 2.412 . S
Gd696 O747 2.362 . S
Gd696 O748 2.324 . S
Gd696 C755 2.828 . S
Gd697 N706 2.661 . S
Gd697 N710 2.601 . S
Gd697 O741 2.362 . S
Gd697 O742 2.324 . S
Gd697 O746 2.545 . S
Gd697 O747 2.606 . S
Gd697 O749 2.429 . S
Gd697 O750 2.545 . S
Gd697 O751 2.412 . S
Gd697 C764 2.828 . S
C698 C701 1.417 . S
C698 C703 1.431 . S
C698 C704 1.412 . S
C699 C702 1.437 . S
C699 C703 1.317 . S
C699 H718 0.929 . S
C700 C701 1.426 . S
C700 C702 1.413 . S
C700 N710 1.359 . S
C701 C698 1.417 . S
C701 C700 1.426 . S
C701 N706 1.350 . S
C702 C699 1.437 . S
C702 C700 1.413 . S
C702 C712 1.391 . S
C703 C698 1.431 . S
C703 C699 1.317 . S
C703 H714 0.930 . S
C704 C698 1.412 . S
C704 C705 1.355 . S
C704 H716 0.930 . S
C705 C704 1.355 . S
C705 C707 1.402 . S
C705 H717 0.930 . S
N706 Gd697 2.661 . S
N706 C701 1.350 . S
N706 C707 1.307 . S
C707 C705 1.402 . S
C707 N706 1.307 . S
C707 H708 0.930 . S
H708 C707 0.930 . S
C709 N710 1.334 . S
C709 C711 1.394 . S
C709 H713 0.930 . S
N710 Gd697 2.601 . S
N710 C700 1.359 . S
N710 C709 1.334 . S
C711 C709 1.394 . S
C711 C712 1.359 . S
C711 H723 0.930 . S
C712 C702 1.391 . S
C712 C711 1.359 . S
C712 H724 0.929 . S
H713 C709 0.930 . S
H714 C703 0.930 . S
H715 C732 0.930 . S
H716 C704 0.930 . S
H717 C705 0.930 . S
H718 C699 0.929 . S
H719 C737 0.930 . S
H720 C728 0.930 . S
H721 C729 0.930 . S
H722 C753 0.929 . S
H723 C711 0.930 . S
H724 C712 0.929 . S
H725 C754 0.930 . S
H726 C735 0.930 . S
N727 Gd696 2.661 . S
N727 C731 1.350 . S
N727 C732 1.307 . S
C728 H720 0.930 . S
C728 C729 1.355 . S
C728 C730 1.412 . S
C729 H721 0.930 . S
C729 C728 1.355 . S
C729 C732 1.402 . S
C730 C728 1.412 . S
C730 C731 1.417 . S
C730 C754 1.431 . S
C731 N727 1.350 . S
C731 C730 1.417 . S
C731 C734 1.426 . S
C732 H715 0.930 . S
C732 N727 1.307 . S
C732 C729 1.402 . S
N733 Gd696 2.601 . S
N733 C734 1.359 . S
N733 C737 1.334 . S
C734 C731 1.426 . S
C734 N733 1.359 . S
C734 C738 1.413 . S
C735 H726 0.930 . S
C735 C736 1.359 . S
C735 C737 1.394 . S
C736 C735 1.359 . S
C736 C738 1.391 . S
C736 H739 0.929 . S
C737 H719 0.930 . S
C737 N733 1.334 . S
C737 C735 1.394 . S
C738 C734 1.413 . S
C738 C736 1.391 . S
C738 C753 1.437 . S
H739 C736 0.929 . S
O740 Gd696 2.545 . S
O740 C755 1.258 . S
O741 Gd696 2.606 . S
O741 Gd697 2.362 . S
O741 C752 1.284 . S
O742 Gd697 2.324 . S
O742 C762 1.254 . S
O743 Gd696 2.429 . S
O743 C762 1.268 . S
O744 Gd696 2.545 . S
O744 C752 1.250 . S
O745 Gd696 2.412 . S
O745 C755 1.252 . S
O746 Gd697 2.545 . S
O746 C764 1.258 . S
O747 Gd696 2.362 . S
O747 Gd697 2.606 . S
O747 C763 1.284 . S
O748 Gd696 2.324 . S
O748 C771 1.254 . S
O749 Gd697 2.429 . S
O749 C771 1.268 . S
O750 Gd697 2.545 . S
O750 C763 1.250 . S
O751 Gd697 2.412 . S
O751 C764 1.252 . S
C752 O741 1.284 . S
C752 O744 1.250 . S
C753 H722 0.929 . S
C753 C738 1.437 . S
C753 C754 1.317 . S
C754 H725 0.930 . S
C754 C730 1.431 . S
C754 C753 1.317 . S
C755 Gd696 2.828 . S
C755 O740 1.258 . S
C755 O745 1.252 . S
C755 C756 1.497 . S
C756 C755 1.497 . S
C756 C757 1.395 . S
C756 C758 1.380 . S
C757 C756 1.395 . S
C757 C760 1.398 . S
C757 H772 0.930 . S
C758 C756 1.380 . S
C758 C759 1.391 . S
C758 H773 0.930 . S
C759 C758 1.391 . S
C759 C761 1.387 . S
C760 C757 1.398 . S
C760 C761 1.380 . S
C760 H774 0.930 . S
C761 C759 1.387 . S
C761 C760 1.380 . S
C761 H775 0.930 . S
C762 O742 1.254 . S
C762 O743 1.268 . S
C763 O747 1.284 . S
C763 O750 1.250 . S
C764 Gd697 2.828 . S
C764 O746 1.258 . S
C764 O751 1.252 . S
C764 C765 1.497 . S
C765 C764 1.497 . S
C765 C766 1.395 . S
C765 C767 1.380 . S
C766 C765 1.395 . S
C766 C769 1.398 . S
C766 H776 0.930 . S
C767 C765 1.380 . S
C767 C768 1.391 . S
C767 H777 0.930 . S
C768 C767 1.391 . S
C768 C770 1.387 . S
C769 C766 1.398 . S
C769 C770 1.380 . S
C769 H778 0.930 . S
C770 C768 1.387 . S
C770 C769 1.380 . S
C770 H779 0.930 . S
C771 O748 1.254 . S
C771 O749 1.268 . S
H772 C757 0.930 . S
H773 C758 0.930 . S
H774 C760 0.930 . S
H775 C761 0.930 . S
H776 C766 0.930 . S
H777 C767 0.930 . S
H778 C769 0.930 . S
H779 C770 0.930 . S
Gd780 N811 2.661 . S
Gd780 N817 2.601 . S
Gd780 O824 2.545 . S
Gd780 O825 2.606 . S
Gd780 O827 2.429 . S
Gd780 O828 2.545 . S
Gd780 O829 2.412 . S
Gd780 O831 2.362 . S
Gd780 O832 2.324 . S
Gd780 C839 2.828 . S
Gd781 N790 2.661 . S
Gd781 N794 2.601 . S
Gd781 O825 2.362 . S
Gd781 O826 2.324 . S
Gd781 O830 2.545 . S
Gd781 O831 2.606 . S
Gd781 O833 2.429 . S
Gd781 O834 2.545 . S
Gd781 O835 2.412 . S
Gd781 C848 2.828 . S
C782 C785 1.417 . S
C782 C787 1.431 . S
C782 C788 1.412 . S
C783 C786 1.437 . S
C783 C787 1.317 . S
C783 H802 0.929 . S
C784 C785 1.426 . S
C784 C786 1.413 . S
C784 N794 1.359 . S
C785 C782 1.417 . S
C785 C784 1.426 . S
C785 N790 1.350 . S
C786 C783 1.437 . S
C786 C784 1.413 . S
C786 C796 1.391 . S
C787 C782 1.431 . S
C787 C783 1.317 . S
C787 H798 0.930 . S
C788 C782 1.412 . S
C788 C789 1.355 . S
C788 H800 0.930 . S
C789 C788 1.355 . S
C789 C791 1.402 . S
C789 H801 0.930 . S
N790 Gd781 2.661 . S
N790 C785 1.350 . S
N790 C791 1.307 . S
C791 C789 1.402 . S
C791 N790 1.307 . S
C791 H792 0.930 . S
H792 C791 0.930 . S
C793 N794 1.334 . S
C793 C795 1.394 . S
C793 H797 0.930 . S
N794 Gd781 2.601 . S
N794 C784 1.359 . S
N794 C793 1.334 . S
C795 C793 1.394 . S
C795 C796 1.359 . S
C795 H807 0.930 . S
C796 C786 1.391 . S
C796 C795 1.359 . S
C796 H808 0.929 . S
H797 C793 0.930 . S
H798 C787 0.930 . S
H799 C816 0.930 . S
H800 C788 0.930 . S
H801 C789 0.930 . S
H802 C783 0.929 . S
H803 C821 0.930 . S
H804 C812 0.930 . S
H805 C813 0.930 . S
H806 C837 0.929 . S
H807 C795 0.930 . S
H808 C796 0.929 . S
H809 C838 0.930 . S
H810 C819 0.930 . S
N811 Gd780 2.661 . S
N811 C815 1.350 . S
N811 C816 1.307 . S
C812 H804 0.930 . S
C812 C813 1.355 . S
C812 C814 1.412 . S
C813 H805 0.930 . S
C813 C812 1.355 . S
C813 C816 1.402 . S
C814 C812 1.412 . S
C814 C815 1.417 . S
C814 C838 1.431 . S
C815 N811 1.350 . S
C815 C814 1.417 . S
C815 C818 1.426 . S
C816 H799 0.930 . S
C816 N811 1.307 . S
C816 C813 1.402 . S
N817 Gd780 2.601 . S
N817 C818 1.359 . S
N817 C821 1.334 . S
C818 C815 1.426 . S
C818 N817 1.359 . S
C818 C822 1.413 . S
C819 H810 0.930 . S
C819 C820 1.359 . S
C819 C821 1.394 . S
C820 C819 1.359 . S
C820 C822 1.391 . S
C820 H823 0.929 . S
C821 H803 0.930 . S
C821 N817 1.334 . S
C821 C819 1.394 . S
C822 C818 1.413 . S
C822 C820 1.391 . S
C822 C837 1.437 . S
H823 C820 0.929 . S
O824 Gd780 2.545 . S
O824 C839 1.258 . S
O825 Gd780 2.606 . S
O825 Gd781 2.362 . S
O825 C836 1.284 . S
O826 Gd781 2.324 . S
O826 C846 1.254 . S
O827 Gd780 2.429 . S
O827 C846 1.268 . S
O828 Gd780 2.545 . S
O828 C836 1.250 . S
O829 Gd780 2.412 . S
O829 C839 1.252 . S
O830 Gd781 2.545 . S
O830 C848 1.258 . S
O831 Gd780 2.362 . S
O831 Gd781 2.606 . S
O831 C847 1.284 . S
O832 Gd780 2.324 . S
O832 C855 1.254 . S
O833 Gd781 2.429 . S
O833 C855 1.268 . S
O834 Gd781 2.545 . S
O834 C847 1.250 . S
O835 Gd781 2.412 . S
O835 C848 1.252 . S
C836 O825 1.284 . S
C836 O828 1.250 . S
C837 H806 0.929 . S
C837 C822 1.437 . S
C837 C838 1.317 . S
C838 H809 0.930 . S
C838 C814 1.431 . S
C838 C837 1.317 . S
C839 Gd780 2.828 . S
C839 O824 1.258 . S
C839 O829 1.252 . S
C839 C840 1.497 . S
C840 C839 1.497 . S
C840 C841 1.395 . S
C840 C842 1.380 . S
C841 C840 1.395 . S
C841 C844 1.398 . S
C841 H856 0.930 . S
C842 C840 1.380 . S
C842 C843 1.391 . S
C842 H857 0.930 . S
C843 C842 1.391 . S
C843 C845 1.387 . S
C844 C841 1.398 . S
C844 C845 1.380 . S
C844 H858 0.930 . S
C845 C843 1.387 . S
C845 C844 1.380 . S
C845 H859 0.930 . S
C846 O826 1.254 . S
C846 O827 1.268 . S
C847 O831 1.284 . S
C847 O834 1.250 . S
C848 Gd781 2.828 . S
C848 O830 1.258 . S
C848 O835 1.252 . S
C848 C849 1.497 . S
C849 C848 1.497 . S
C849 C850 1.395 . S
C849 C851 1.380 . S
C850 C849 1.395 . S
C850 C853 1.398 . S
C850 H860 0.930 . S
C851 C849 1.380 . S
C851 C852 1.391 . S
C851 H861 0.930 . S
C852 C851 1.391 . S
C852 C854 1.387 . S
C853 C850 1.398 . S
C853 C854 1.380 . S
C853 H862 0.930 . S
C854 C852 1.387 . S
C854 C853 1.380 . S
C854 H863 0.930 . S
C855 O832 1.254 . S
C855 O833 1.268 . S
H856 C841 0.930 . S
H857 C842 0.930 . S
H858 C844 0.930 . S
H859 C845 0.930 . S
H860 C850 0.930 . S
H861 C851 0.930 . S
H862 C853 0.930 . S
H863 C854 0.930 . S
Gd864 N895 2.661 . S
Gd864 N901 2.601 . S
Gd864 O908 2.545 . S
Gd864 O909 2.606 . S
Gd864 O911 2.429 . S
Gd864 O912 2.545 . S
Gd864 O913 2.412 . S
Gd864 O915 2.362 . S
Gd864 O916 2.324 . S
Gd864 C923 2.828 . S
Gd865 N874 2.661 . S
Gd865 N878 2.601 . S
Gd865 O909 2.362 . S
Gd865 O910 2.324 . S
Gd865 O914 2.545 . S
Gd865 O915 2.606 . S
Gd865 O917 2.429 . S
Gd865 O918 2.545 . S
Gd865 O919 2.412 . S
Gd865 C932 2.828 . S
C866 C869 1.417 . S
C866 C871 1.431 . S
C866 C872 1.412 . S
C867 C870 1.437 . S
C867 C871 1.317 . S
C867 H886 0.929 . S
C868 C869 1.426 . S
C868 C870 1.413 . S
C868 N878 1.359 . S
C869 C866 1.417 . S
C869 C868 1.426 . S
C869 N874 1.350 . S
C870 C867 1.437 . S
C870 C868 1.413 . S
C870 C880 1.391 . S
C871 C866 1.431 . S
C871 C867 1.317 . S
C871 H882 0.930 . S
C872 C866 1.412 . S
C872 C873 1.355 . S
C872 H884 0.930 . S
C873 C872 1.355 . S
C873 C875 1.402 . S
C873 H885 0.930 . S
N874 Gd865 2.661 . S
N874 C869 1.350 . S
N874 C875 1.307 . S
C875 C873 1.402 . S
C875 N874 1.307 . S
C875 H876 0.930 . S
H876 C875 0.930 . S
C877 N878 1.334 . S
C877 C879 1.394 . S
C877 H881 0.930 . S
N878 Gd865 2.601 . S
N878 C868 1.359 . S
N878 C877 1.334 . S
C879 C877 1.394 . S
C879 C880 1.359 . S
C879 H891 0.930 . S
C880 C870 1.391 . S
C880 C879 1.359 . S
C880 H892 0.929 . S
H881 C877 0.930 . S
H882 C871 0.930 . S
H883 C900 0.930 . S
H884 C872 0.930 . S
H885 C873 0.930 . S
H886 C867 0.929 . S
H887 C905 0.930 . S
H888 C896 0.930 . S
H889 C897 0.930 . S
H890 C921 0.929 . S
H891 C879 0.930 . S
H892 C880 0.929 . S
H893 C922 0.930 . S
H894 C903 0.930 . S
N895 Gd864 2.661 . S
N895 C899 1.350 . S
N895 C900 1.307 . S
C896 H888 0.930 . S
C896 C897 1.355 . S
C896 C898 1.412 . S
C897 H889 0.930 . S
C897 C896 1.355 . S
C897 C900 1.402 . S
C898 C896 1.412 . S
C898 C899 1.417 . S
C898 C922 1.431 . S
C899 N895 1.350 . S
C899 C898 1.417 . S
C899 C902 1.426 . S
C900 H883 0.930 . S
C900 N895 1.307 . S
C900 C897 1.402 . S
N901 Gd864 2.601 . S
N901 C902 1.359 . S
N901 C905 1.334 . S
C902 C899 1.426 . S
C902 N901 1.359 . S
C902 C906 1.413 . S
C903 H894 0.930 . S
C903 C904 1.359 . S
C903 C905 1.394 . S
C904 C903 1.359 . S
C904 C906 1.391 . S
C904 H907 0.929 . S
C905 H887 0.930 . S
C905 N901 1.334 . S
C905 C903 1.394 . S
C906 C902 1.413 . S
C906 C904 1.391 . S
C906 C921 1.437 . S
H907 C904 0.929 . S
O908 Gd864 2.545 . S
O908 C923 1.258 . S
O909 Gd864 2.606 . S
O909 Gd865 2.362 . S
O909 C920 1.284 . S
O910 Gd865 2.324 . S
O910 C930 1.254 . S
O911 Gd864 2.429 . S
O911 C930 1.268 . S
O912 Gd864 2.545 . S
O912 C920 1.250 . S
O913 Gd864 2.412 . S
O913 C923 1.252 . S
O914 Gd865 2.545 . S
O914 C932 1.258 . S
O915 Gd864 2.362 . S
O915 Gd865 2.606 . S
O915 C931 1.284 . S
O916 Gd864 2.324 . S
O916 C939 1.254 . S
O917 Gd865 2.429 . S
O917 C939 1.268 . S
O918 Gd865 2.545 . S
O918 C931 1.250 . S
O919 Gd865 2.412 . S
O919 C932 1.252 . S
C920 O909 1.284 . S
C920 O912 1.250 . S
C921 H890 0.929 . S
C921 C906 1.437 . S
C921 C922 1.317 . S
C922 H893 0.930 . S
C922 C898 1.431 . S
C922 C921 1.317 . S
C923 Gd864 2.828 . S
C923 O908 1.258 . S
C923 O913 1.252 . S
C923 C924 1.497 . S
C924 C923 1.497 . S
C924 C925 1.395 . S
C924 C926 1.380 . S
C925 C924 1.395 . S
C925 C928 1.398 . S
C925 H940 0.930 . S
C926 C924 1.380 . S
C926 C927 1.391 . S
C926 H941 0.930 . S
C927 C926 1.391 . S
C927 C929 1.387 . S
C928 C925 1.398 . S
C928 C929 1.380 . S
C928 H942 0.930 . S
C929 C927 1.387 . S
C929 C928 1.380 . S
C929 H943 0.930 . S
C930 O910 1.254 . S
C930 O911 1.268 . S
C931 O915 1.284 . S
C931 O918 1.250 . S
C932 Gd865 2.828 . S
C932 O914 1.258 . S
C932 O919 1.252 . S
C932 C933 1.497 . S
C933 C932 1.497 . S
C933 C934 1.395 . S
C933 C935 1.380 . S
C934 C933 1.395 . S
C934 C937 1.398 . S
C934 H944 0.930 . S
C935 C933 1.380 . S
C935 C936 1.391 . S
C935 H945 0.930 . S
C936 C935 1.391 . S
C936 C938 1.387 . S
C937 C934 1.398 . S
C937 C938 1.380 . S
C937 H946 0.930 . S
C938 C936 1.387 . S
C938 C937 1.380 . S
C938 H947 0.930 . S
C939 O916 1.254 . S
C939 O917 1.268 . S
H940 C925 0.930 . S
H941 C926 0.930 . S
H942 C928 0.930 . S
H943 C929 0.930 . S
H944 C934 0.930 . S
H945 C935 0.930 . S
H946 C937 0.930 . S
H947 C938 0.930 . S
H948 C960 0.930 . S
H949 C962 0.930 . S
H950 C963 0.930 . S
H951 C967 0.959 . S
H952 C967 0.959 . S
H953 C967 0.961 . S
H954 C968 0.960 . S
H955 C968 0.961 . S
H956 C968 0.959 . S
H957 C971 0.929 . S
H958 C972 0.931 . S
H959 C974 0.930 . S
C960 H948 0.930 . S
C960 C961 1.399 . S
C960 C965 1.399 . S
C961 C960 1.399 . S
C961 C962 1.376 . S
C962 H949 0.930 . S
C962 C961 1.376 . S
C962 C963 1.388 . S
C963 H950 0.930 . S
C963 C962 1.388 . S
C963 C964 1.390 . S
C964 C963 1.390 . S
C964 C965 1.394 . S
C964 C970 1.465 . S
C965 C960 1.399 . S
C965 C964 1.394 . S
C965 C966 1.516 . S
C966 C965 1.516 . S
C966 C967 1.502 . S
C966 C968 1.561 . S
C966 C969 1.526 . S
C967 H951 0.959 . S
C967 H952 0.959 . S
C967 H953 0.961 . S
C967 C966 1.502 . S
C968 H954 0.960 . S
C968 H955 0.961 . S
C968 H956 0.959 . S
C968 C966 1.561 . S
C969 C966 1.526 . S
C969 C970 1.396 . S
C969 C974 1.390 . S
C970 C964 1.465 . S
C970 C969 1.396 . S
C970 C971 1.399 . S
C971 H957 0.929 . S
C971 C970 1.399 . S
C971 C972 1.385 . S
C972 H958 0.931 . S
C972 C971 1.385 . S
C972 C973 1.389 . S
C973 C972 1.389 . S
C973 C974 1.387 . S
C974 H959 0.930 . S
C974 C969 1.390 . S
C974 C973 1.387 . S
H975 C987 0.930 . S
H976 C989 0.930 . S
H977 C990 0.930 . S
H978 C994 0.959 . S
H979 C994 0.959 . S
H980 C994 0.961 . S
H981 C995 0.960 . S
H982 C995 0.961 . S
H983 C995 0.959 . S
H984 C998 0.929 . S
H985 C999 0.931 . S
H986 C1001 0.930 . S
C987 H975 0.930 . S
C987 C988 1.399 . S
C987 C992 1.399 . S
C988 C987 1.399 . S
C988 C989 1.376 . S
C989 H976 0.930 . S
C989 C988 1.376 . S
C989 C990 1.388 . S
C990 H977 0.930 . S
C990 C989 1.388 . S
C990 C991 1.390 . S
C991 C990 1.390 . S
C991 C992 1.394 . S
C991 C997 1.465 . S
C992 C987 1.399 . S
C992 C991 1.394 . S
C992 C993 1.516 . S
C993 C992 1.516 . S
C993 C994 1.502 . S
C993 C995 1.561 . S
C993 C996 1.526 . S
C994 H978 0.959 . S
C994 H979 0.959 . S
C994 H980 0.961 . S
C994 C993 1.502 . S
C995 H981 0.960 . S
C995 H982 0.961 . S
C995 H983 0.959 . S
C995 C993 1.561 . S
C996 C993 1.526 . S
C996 C997 1.396 . S
C996 C1001 1.390 . S
C997 C991 1.465 . S
C997 C996 1.396 . S
C997 C998 1.399 . S
C998 H984 0.929 . S
C998 C997 1.399 . S
C998 C999 1.385 . S
C999 H985 0.931 . S
C999 C998 1.385 . S
C999 C1000 1.389 . S
C1000 C999 1.389 . S
C1000 C1001 1.387 . S
C1001 H986 0.930 . S
C1001 C996 1.390 . S
C1001 C1000 1.387 . S
H1002 C1014 0.930 . S
H1003 C1016 0.930 1_545 S
H1004 C1017 0.930 . S
H1005 C1021 0.959 . S
H1006 C1021 0.959 . S
H1007 C1021 0.961 . S
H1008 C1022 0.960 . S
H1009 C1022 0.961 . S
H1010 C1022 0.959 . S
H1011 C1025 0.929 . S
H1012 C1026 0.931 . S
H1013 C1028 0.930 . S
C1014 H1002 0.930 . S
C1014 C1015 1.399 . S
C1014 C1019 1.399 . S
C1015 C1014 1.399 . S
C1015 C1016 1.376 . S
C1016 H1003 0.930 1_565 S
C1016 C1015 1.376 . S
C1016 C1017 1.388 . S
C1017 H1004 0.930 . S
C1017 C1016 1.388 . S
C1017 C1018 1.390 . S
C1018 C1017 1.390 . S
C1018 C1019 1.394 . S
C1018 C1024 1.465 . S
C1019 C1014 1.399 . S
C1019 C1018 1.394 . S
C1019 C1020 1.516 . S
C1020 C1019 1.516 . S
C1020 C1021 1.502 . S
C1020 C1022 1.561 . S
C1020 C1023 1.526 . S
C1021 H1005 0.959 . S
C1021 H1006 0.959 . S
C1021 H1007 0.961 . S
C1021 C1020 1.502 . S
C1022 H1008 0.960 . S
C1022 H1009 0.961 . S
C1022 H1010 0.959 . S
C1022 C1020 1.561 . S
C1023 C1020 1.526 . S
C1023 C1024 1.396 . S
C1023 C1028 1.390 . S
C1024 C1018 1.465 . S
C1024 C1023 1.396 . S
C1024 C1025 1.399 . S
C1025 H1011 0.929 . S
C1025 C1024 1.399 . S
C1025 C1026 1.385 . S
C1026 H1012 0.931 . S
C1026 C1025 1.385 . S
C1026 C1027 1.389 . S
C1027 C1026 1.389 . S
C1027 C1028 1.387 . S
C1028 H1013 0.930 . S
C1028 C1023 1.390 . S
C1028 C1027 1.387 . S
H1029 C1041 0.930 . S
H1030 C1043 0.930 . S
H1031 C1044 0.930 . S
H1032 C1048 0.959 . S
H1033 C1048 0.959 . S
H1034 C1048 0.961 . S
H1035 C1049 0.960 . S
H1036 C1049 0.961 . S
H1037 C1049 0.959 . S
H1038 C1052 0.929 . S
H1039 C1053 0.931 . S
H1040 C1055 0.930 . S
C1041 H1029 0.930 . S
C1041 C1042 1.399 . S
C1041 C1046 1.399 . S
C1042 C1041 1.399 . S
C1042 C1043 1.376 . S
C1043 H1030 0.930 . S
C1043 C1042 1.376 . S
C1043 C1044 1.388 . S
C1044 H1031 0.930 . S
C1044 C1043 1.388 . S
C1044 C1045 1.390 . S
C1045 C1044 1.390 . S
C1045 C1046 1.394 . S
C1045 C1051 1.465 . S
C1046 C1041 1.399 . S
C1046 C1045 1.394 . S
C1046 C1047 1.516 . S
C1047 C1046 1.516 . S
C1047 C1048 1.502 . S
C1047 C1049 1.561 . S
C1047 C1050 1.526 . S
C1048 H1032 0.959 . S
C1048 H1033 0.959 . S
C1048 H1034 0.961 . S
C1048 C1047 1.502 . S
C1049 H1035 0.960 . S
C1049 H1036 0.961 . S
C1049 H1037 0.959 . S
C1049 C1047 1.561 . S
C1050 C1047 1.526 . S
C1050 C1051 1.396 . S
C1050 C1055 1.390 . S
C1051 C1045 1.465 . S
C1051 C1050 1.396 . S
C1051 C1052 1.399 . S
C1052 H1038 0.929 . S
C1052 C1051 1.399 . S
C1052 C1053 1.385 . S
C1053 H1039 0.931 . S
C1053 C1052 1.385 . S
C1053 C1054 1.389 . S
C1054 C1053 1.389 . S
C1054 C1055 1.387 . S
C1055 H1040 0.930 . S
C1055 C1050 1.390 . S
C1055 C1054 1.387 . S
H1056 C1068 0.930 . S
H1057 C1070 0.930 . S
H1058 C1071 0.930 . S
H1059 C1075 0.959 . S
H1060 C1075 0.959 . S
H1061 C1075 0.961 . S
H1062 C1076 0.960 . S
H1063 C1076 0.961 . S
H1064 C1076 0.959 . S
H1065 C1079 0.929 . S
H1066 C1080 0.931 . S
H1067 C1082 0.930 . S
C1068 H1056 0.930 . S
C1068 C1069 1.399 . S
C1068 C1073 1.399 . S
C1069 C1068 1.399 . S
C1069 C1070 1.376 . S
C1070 H1057 0.930 . S
C1070 C1069 1.376 . S
C1070 C1071 1.388 . S
C1071 H1058 0.930 . S
C1071 C1070 1.388 . S
C1071 C1072 1.390 . S
C1072 C1071 1.390 . S
C1072 C1073 1.394 . S
C1072 C1078 1.465 . S
C1073 C1068 1.399 . S
C1073 C1072 1.394 . S
C1073 C1074 1.516 . S
C1074 C1073 1.516 . S
C1074 C1075 1.502 . S
C1074 C1076 1.561 . S
C1074 C1077 1.526 . S
C1075 H1059 0.959 . S
C1075 H1060 0.959 . S
C1075 H1061 0.961 . S
C1075 C1074 1.502 . S
C1076 H1062 0.960 . S
C1076 H1063 0.961 . S
C1076 H1064 0.959 . S
C1076 C1074 1.561 . S
C1077 C1074 1.526 . S
C1077 C1078 1.396 . S
C1077 C1082 1.390 . S
C1078 C1072 1.465 . S
C1078 C1077 1.396 . S
C1078 C1079 1.399 . S
C1079 H1065 0.929 . S
C1079 C1078 1.399 . S
C1079 C1080 1.385 . S
C1080 H1066 0.931 . S
C1080 C1079 1.385 . S
C1080 C1081 1.389 . S
C1081 C1080 1.389 . S
C1081 C1082 1.387 . S
C1082 H1067 0.930 . S
C1082 C1077 1.390 . S
C1082 C1081 1.387 . S
H1083 C1095 0.930 . S
H1084 C1097 0.930 . S
H1085 C1098 0.930 . S
H1086 C1102 0.959 . S
H1087 C1102 0.959 . S
H1088 C1102 0.961 . S
H1089 C1103 0.960 . S
H1090 C1103 0.961 . S
H1091 C1103 0.959 . S
H1092 C1106 0.929 . S
H1093 C1107 0.931 . S
H1094 C1109 0.930 . S
C1095 H1083 0.930 . S
C1095 C1096 1.399 . S
C1095 C1100 1.399 . S
C1096 C1095 1.399 . S
C1096 C1097 1.376 . S
C1097 H1084 0.930 . S
C1097 C1096 1.376 . S
C1097 C1098 1.388 . S
C1098 H1085 0.930 . S
C1098 C1097 1.388 . S
C1098 C1099 1.390 . S
C1099 C1098 1.390 . S
C1099 C1100 1.394 . S
C1099 C1105 1.465 . S
C1100 C1095 1.399 . S
C1100 C1099 1.394 . S
C1100 C1101 1.516 . S
C1101 C1100 1.516 . S
C1101 C1102 1.502 . S
C1101 C1103 1.561 . S
C1101 C1104 1.526 . S
C1102 H1086 0.959 . S
C1102 H1087 0.959 . S
C1102 H1088 0.961 . S
C1102 C1101 1.502 . S
C1103 H1089 0.960 . S
C1103 H1090 0.961 . S
C1103 H1091 0.959 . S
C1103 C1101 1.561 . S
C1104 C1101 1.526 . S
C1104 C1105 1.396 . S
C1104 C1109 1.390 . S
C1105 C1099 1.465 . S
C1105 C1104 1.396 . S
C1105 C1106 1.399 . S
C1106 H1092 0.929 . S
C1106 C1105 1.399 . S
C1106 C1107 1.385 . S
C1107 H1093 0.931 . S
C1107 C1106 1.385 . S
C1107 C1108 1.389 . S
C1108 C1107 1.389 . S
C1108 C1109 1.387 . S
C1109 H1094 0.930 . S
C1109 C1104 1.390 . S
C1109 C1108 1.387 . S
H1110 C1122 0.930 . S
H1111 C1124 0.930 . S
H1112 C1125 0.930 . S
H1113 C1129 0.959 . S
H1114 C1129 0.959 . S
H1115 C1129 0.961 . S
H1116 C1130 0.960 . S
H1117 C1130 0.961 . S
H1118 C1130 0.959 . S
H1119 C1133 0.929 . S
H1120 C1134 0.931 . S
H1121 C1136 0.930 . S
C1122 H1110 0.930 . S
C1122 C1123 1.399 . S
C1122 C1127 1.399 . S
C1123 C1122 1.399 . S
C1123 C1124 1.376 . S
C1124 H1111 0.930 . S
C1124 C1123 1.376 . S
C1124 C1125 1.388 . S
C1125 H1112 0.930 . S
C1125 C1124 1.388 . S
C1125 C1126 1.390 . S
C1126 C1125 1.390 . S
C1126 C1127 1.394 . S
C1126 C1132 1.465 . S
C1127 C1122 1.399 . S
C1127 C1126 1.394 . S
C1127 C1128 1.516 . S
C1128 C1127 1.516 . S
C1128 C1129 1.502 . S
C1128 C1130 1.561 . S
C1128 C1131 1.526 . S
C1129 H1113 0.959 . S
C1129 H1114 0.959 . S
C1129 H1115 0.961 . S
C1129 C1128 1.502 . S
C1130 H1116 0.960 . S
C1130 H1117 0.961 . S
C1130 H1118 0.959 . S
C1130 C1128 1.561 . S
C1131 C1128 1.526 . S
C1131 C1132 1.396 . S
C1131 C1136 1.390 . S
C1132 C1126 1.465 . S
C1132 C1131 1.396 . S
C1132 C1133 1.399 . S
C1133 H1119 0.929 . S
C1133 C1132 1.399 . S
C1133 C1134 1.385 . S
C1134 H1120 0.931 . S
C1134 C1133 1.385 . S
C1134 C1135 1.389 . S
C1135 C1134 1.389 . S
C1135 C1136 1.387 . S
C1136 H1121 0.930 . S
C1136 C1131 1.390 . S
C1136 C1135 1.387 . S
H1137 C1149 0.930 . S
H1138 C1151 0.930 . S
H1139 C1152 0.930 . S
H1140 C1156 0.959 . S
H1141 C1156 0.959 . S
H1142 C1156 0.961 . S
H1143 C1157 0.960 . S
H1144 C1157 0.961 . S
H1145 C1157 0.959 . S
H1146 C1160 0.929 . S
H1147 C1161 0.931 . S
H1148 C1163 0.930 . S
C1149 H1137 0.930 . S
C1149 C1150 1.399 . S
C1149 C1154 1.399 . S
C1150 C1149 1.399 . S
C1150 C1151 1.376 . S
C1151 H1138 0.930 . S
C1151 C1150 1.376 . S
C1151 C1152 1.388 . S
C1152 H1139 0.930 . S
C1152 C1151 1.388 . S
C1152 C1153 1.390 . S
C1153 C1152 1.390 . S
C1153 C1154 1.394 . S
C1153 C1159 1.465 . S
C1154 C1149 1.399 . S
C1154 C1153 1.394 . S
C1154 C1155 1.516 . S
C1155 C1154 1.516 . S
C1155 C1156 1.502 . S
C1155 C1157 1.561 . S
C1155 C1158 1.526 . S
C1156 H1140 0.959 . S
C1156 H1141 0.959 . S
C1156 H1142 0.961 . S
C1156 C1155 1.502 . S
C1157 H1143 0.960 . S
C1157 H1144 0.961 . S
C1157 H1145 0.959 . S
C1157 C1155 1.561 . S
C1158 C1155 1.526 . S
C1158 C1159 1.396 . S
C1158 C1163 1.390 . S
C1159 C1153 1.465 . S
C1159 C1158 1.396 . S
C1159 C1160 1.399 . S
C1160 H1146 0.929 . S
C1160 C1159 1.399 . S
C1160 C1161 1.385 . S
C1161 H1147 0.931 . S
C1161 C1160 1.385 . S
C1161 C1162 1.389 . S
C1162 C1161 1.389 . S
C1162 C1163 1.387 . S
C1163 H1148 0.930 . S
C1163 C1158 1.390 . S
C1163 C1162 1.387 . S
H1164 C1176 0.930 . S
H1165 C1178 0.930 . S
H1166 C1179 0.930 . S
H1167 C1183 0.959 . S
H1168 C1183 0.959 . S
H1169 C1183 0.961 . S
H1170 C1184 0.960 . S
H1171 C1184 0.961 . S
H1172 C1184 0.959 . S
H1173 C1187 0.929 . S
H1174 C1188 0.931 . S
H1175 C1190 0.930 . S
C1176 H1164 0.930 . S
C1176 C1177 1.399 . S
C1176 C1181 1.399 . S
C1177 C1176 1.399 . S
C1177 C1178 1.376 . S
C1178 H1165 0.930 . S
C1178 C1177 1.376 . S
C1178 C1179 1.388 . S
C1179 H1166 0.930 . S
C1179 C1178 1.388 . S
C1179 C1180 1.390 . S
C1180 C1179 1.390 . S
C1180 C1181 1.394 . S
C1180 C1186 1.465 . S
C1181 C1176 1.399 . S
C1181 C1180 1.394 . S
C1181 C1182 1.516 . S
C1182 C1181 1.516 . S
C1182 C1183 1.502 . S
C1182 C1184 1.561 . S
C1182 C1185 1.526 . S
C1183 H1167 0.959 . S
C1183 H1168 0.959 . S
C1183 H1169 0.961 . S
C1183 C1182 1.502 . S
C1184 H1170 0.960 . S
C1184 H1171 0.961 . S
C1184 H1172 0.959 . S
C1184 C1182 1.561 . S
C1185 C1182 1.526 . S
C1185 C1186 1.396 . S
C1185 C1190 1.390 . S
C1186 C1180 1.465 . S
C1186 C1185 1.396 . S
C1186 C1187 1.399 . S
C1187 H1173 0.929 . S
C1187 C1186 1.399 . S
C1187 C1188 1.385 . S
C1188 H1174 0.931 . S
C1188 C1187 1.385 . S
C1188 C1189 1.389 . S
C1189 C1188 1.389 . S
C1189 C1190 1.387 . S
C1190 H1175 0.930 . S
C1190 C1185 1.390 . S
C1190 C1189 1.387 . S
H1191 C1203 0.930 . S
H1192 C1205 0.930 . S
H1193 C1206 0.930 . S
H1194 C1210 0.959 . S
H1195 C1210 0.959 . S
H1196 C1210 0.961 . S
H1197 C1211 0.960 . S
H1198 C1211 0.961 . S
H1199 C1211 0.959 . S
H1200 C1214 0.929 . S
H1201 C1215 0.931 . S
H1202 C1217 0.930 . S
C1203 H1191 0.930 . S
C1203 C1204 1.399 . S
C1203 C1208 1.399 . S
C1204 C1203 1.399 . S
C1204 C1205 1.376 . S
C1205 H1192 0.930 . S
C1205 C1204 1.376 . S
C1205 C1206 1.388 . S
C1206 H1193 0.930 . S
C1206 C1205 1.388 . S
C1206 C1207 1.390 . S
C1207 C1206 1.390 . S
C1207 C1208 1.394 . S
C1207 C1213 1.465 . S
C1208 C1203 1.399 . S
C1208 C1207 1.394 . S
C1208 C1209 1.516 . S
C1209 C1208 1.516 . S
C1209 C1210 1.502 . S
C1209 C1211 1.561 . S
C1209 C1212 1.526 . S
C1210 H1194 0.959 . S
C1210 H1195 0.959 . S
C1210 H1196 0.961 . S
C1210 C1209 1.502 . S
C1211 H1197 0.960 . S
C1211 H1198 0.961 . S
C1211 H1199 0.959 . S
C1211 C1209 1.561 . S
C1212 C1209 1.526 . S
C1212 C1213 1.396 . S
C1212 C1217 1.390 . S
C1213 C1207 1.465 . S
C1213 C1212 1.396 . S
C1213 C1214 1.399 . S
C1214 H1200 0.929 . S
C1214 C1213 1.399 . S
C1214 C1215 1.385 . S
C1215 H1201 0.931 . S
C1215 C1214 1.385 . S
C1215 C1216 1.389 . S
C1216 C1215 1.389 . S
C1216 C1217 1.387 . S
C1217 H1202 0.930 . S
C1217 C1212 1.390 . S
C1217 C1216 1.387 . S
H1218 C1230 0.930 . S
H1219 C1232 0.930 . S
H1220 C1233 0.930 . S
H1221 C1237 0.959 . S
H1222 C1237 0.959 . S
H1223 C1237 0.961 . S
H1224 C1238 0.960 . S
H1225 C1238 0.961 . S
H1226 C1238 0.959 . S
H1227 C1241 0.929 . S
H1228 C1242 0.931 . S
H1229 C1244 0.930 . S
C1230 H1218 0.930 . S
C1230 C1231 1.399 . S
C1230 C1235 1.399 . S
C1231 C1230 1.399 . S
C1231 C1232 1.376 . S
C1232 H1219 0.930 . S
C1232 C1231 1.376 . S
C1232 C1233 1.388 . S
C1233 H1220 0.930 . S
C1233 C1232 1.388 . S
C1233 C1234 1.390 . S
C1234 C1233 1.390 . S
C1234 C1235 1.394 . S
C1234 C1240 1.465 . S
C1235 C1230 1.399 . S
C1235 C1234 1.394 . S
C1235 C1236 1.516 . S
C1236 C1235 1.516 . S
C1236 C1237 1.502 . S
C1236 C1238 1.561 . S
C1236 C1239 1.526 . S
C1237 H1221 0.959 . S
C1237 H1222 0.959 . S
C1237 H1223 0.961 . S
C1237 C1236 1.502 . S
C1238 H1224 0.960 . S
C1238 H1225 0.961 . S
C1238 H1226 0.959 . S
C1238 C1236 1.561 . S
C1239 C1236 1.526 . S
C1239 C1240 1.396 . S
C1239 C1244 1.390 . S
C1240 C1234 1.465 . S
C1240 C1239 1.396 . S
C1240 C1241 1.399 . S
C1241 H1227 0.929 . S
C1241 C1240 1.399 . S
C1241 C1242 1.385 . S
C1242 H1228 0.931 . S
C1242 C1241 1.385 . S
C1242 C1243 1.389 . S
C1243 C1242 1.389 . S
C1243 C1244 1.387 . S
C1244 H1229 0.930 . S
C1244 C1239 1.390 . S
C1244 C1243 1.387 . S
H1245 C1257 0.930 . S
H1246 C1259 0.930 . S
H1247 C1260 0.930 . S
H1248 C1264 0.959 . S
H1249 C1264 0.959 . S
H1250 C1264 0.961 . S
H1251 C1265 0.960 . S
H1252 C1265 0.961 . S
H1253 C1265 0.959 . S
H1254 C1268 0.929 . S
H1255 C1269 0.931 . S
H1256 C1271 0.930 . S
C1257 H1245 0.930 . S
C1257 C1258 1.399 . S
C1257 C1262 1.399 . S
C1258 C1257 1.399 . S
C1258 C1259 1.376 . S
C1259 H1246 0.930 . S
C1259 C1258 1.376 . S
C1259 C1260 1.388 . S
C1260 H1247 0.930 . S
C1260 C1259 1.388 . S
C1260 C1261 1.390 . S
C1261 C1260 1.390 . S
C1261 C1262 1.394 . S
C1261 C1267 1.465 . S
C1262 C1257 1.399 . S
C1262 C1261 1.394 . S
C1262 C1263 1.516 . S
C1263 C1262 1.516 . S
C1263 C1264 1.502 . S
C1263 C1265 1.561 . S
C1263 C1266 1.526 . S
C1264 H1248 0.959 . S
C1264 H1249 0.959 . S
C1264 H1250 0.961 . S
C1264 C1263 1.502 . S
C1265 H1251 0.960 . S
C1265 H1252 0.961 . S
C1265 H1253 0.959 . S
C1265 C1263 1.561 . S
C1266 C1263 1.526 . S
C1266 C1267 1.396 . S
C1266 C1271 1.390 . S
C1267 C1261 1.465 . S
C1267 C1266 1.396 . S
C1267 C1268 1.399 . S
C1268 H1254 0.929 . S
C1268 C1267 1.399 . S
C1268 C1269 1.385 . S
C1269 H1255 0.931 . S
C1269 C1268 1.385 . S
C1269 C1270 1.389 . S
C1270 C1269 1.389 . S
C1270 C1271 1.387 . S
C1271 H1256 0.930 . S
C1271 C1266 1.390 . S
C1271 C1270 1.387 . S
H1272 C1284 0.931 . S
H1273 C1286 0.930 . S
H1274 C1287 0.930 . S
H1275 C1291 0.959 . S
H1276 C1291 0.959 . S
H1277 C1291 0.961 . S
H1278 C1292 0.960 . S
H1279 C1292 0.961 . S
H1280 C1292 0.959 1_554 S
H1281 C1295 0.929 . S
H1282 C1296 0.931 . S
H1283 C1298 0.930 . S
C1284 H1272 0.931 . S
C1284 C1285 1.399 1_565 S
C1284 C1289 1.399 1_554 S
C1285 C1284 1.399 1_545 S
C1285 C1286 1.376 . S
C1286 H1273 0.930 . S
C1286 C1285 1.376 . S
C1286 C1287 1.388 1_545 S
C1287 H1274 0.930 . S
C1287 C1286 1.388 1_565 S
C1287 C1288 1.390 1_554 S
C1288 C1287 1.390 1_556 S
C1288 C1289 1.394 . S
C1288 C1294 1.465 . S
C1289 C1284 1.399 1_556 S
C1289 C1288 1.394 . S
C1289 C1290 1.516 . S
C1290 C1289 1.516 . S
C1290 C1291 1.502 . S
C1290 C1292 1.561 . S
C1290 C1293 1.526 . S
C1291 H1275 0.959 . S
C1291 H1276 0.959 . S
C1291 H1277 0.961 . S
C1291 C1290 1.502 . S
C1292 H1278 0.960 . S
C1292 H1279 0.961 . S
C1292 H1280 0.959 1_556 S
C1292 C1290 1.561 . S
C1293 C1290 1.526 . S
C1293 C1294 1.396 . S
C1293 C1298 1.390 . S
C1294 C1288 1.465 . S
C1294 C1293 1.396 . S
C1294 C1295 1.399 . S
C1295 H1281 0.929 . S
C1295 C1294 1.399 . S
C1295 C1296 1.385 . S
C1296 H1282 0.931 . S
C1296 C1295 1.385 . S
C1296 C1297 1.389 . S
C1297 C1296 1.389 . S
C1297 C1298 1.387 . S
C1298 H1283 0.930 . S
C1298 C1293 1.390 . S
C1298 C1297 1.387 . S
H1299 C1311 0.930 . S
H1300 C1313 0.930 1_554 S
H1301 C1314 0.930 . S
H1302 C1318 0.959 . S
H1303 C1318 0.959 . S
H1304 C1318 0.961 . S
H1305 C1319 0.960 . S
H1306 C1319 0.961 . S
H1307 C1319 0.959 . S
H1308 C1322 0.929 . S
H1309 C1323 0.931 . S
H1310 C1325 0.930 . S
C1311 H1299 0.930 . S
C1311 C1312 1.399 . S
C1311 C1316 1.399 . S
C1312 C1311 1.399 . S
C1312 C1313 1.376 . S
C1313 H1300 0.930 1_556 S
C1313 C1312 1.376 . S
C1313 C1314 1.388 . S
C1314 H1301 0.930 . S
C1314 C1313 1.388 . S
C1314 C1315 1.390 . S
C1315 C1314 1.390 . S
C1315 C1316 1.394 . S
C1315 C1321 1.465 . S
C1316 C1311 1.399 . S
C1316 C1315 1.394 . S
C1316 C1317 1.516 . S
C1317 C1316 1.516 . S
C1317 C1318 1.502 . S
C1317 C1319 1.561 . S
C1317 C1320 1.526 . S
C1318 H1302 0.959 . S
C1318 H1303 0.959 . S
C1318 H1304 0.961 . S
C1318 C1317 1.502 . S
C1319 H1305 0.960 . S
C1319 H1306 0.961 . S
C1319 H1307 0.959 . S
C1319 C1317 1.561 . S
C1320 C1317 1.526 . S
C1320 C1321 1.396 . S
C1320 C1325 1.390 . S
C1321 C1315 1.465 . S
C1321 C1320 1.396 . S
C1321 C1322 1.399 . S
C1322 H1308 0.929 . S
C1322 C1321 1.399 . S
C1322 C1323 1.385 . S
C1323 H1309 0.931 . S
C1323 C1322 1.385 . S
C1323 C1324 1.389 . S
C1324 C1323 1.389 . S
C1324 C1325 1.387 . S
C1325 H1310 0.930 . S
C1325 C1320 1.390 . S
C1325 C1324 1.387 . S
H1326 C1338 0.930 . S
H1327 C1340 0.930 . S
H1328 C1341 0.930 . S
H1329 C1345 0.959 . S
H1330 C1345 0.959 . S
H1331 C1345 0.961 . S
H1332 C1346 0.960 . S
H1333 C1346 0.961 . S
H1334 C1346 0.959 . S
H1335 C1349 0.929 . S
H1336 C1350 0.931 . S
H1337 C1352 0.930 . S
C1338 H1326 0.930 . S
C1338 C1339 1.399 . S
C1338 C1343 1.399 . S
C1339 C1338 1.399 . S
C1339 C1340 1.376 . S
C1340 H1327 0.930 . S
C1340 C1339 1.376 . S
C1340 C1341 1.388 . S
C1341 H1328 0.930 . S
C1341 C1340 1.388 . S
C1341 C1342 1.390 . S
C1342 C1341 1.390 . S
C1342 C1343 1.394 . S
C1342 C1348 1.465 . S
C1343 C1338 1.399 . S
C1343 C1342 1.394 . S
C1343 C1344 1.516 . S
C1344 C1343 1.516 . S
C1344 C1345 1.502 . S
C1344 C1346 1.561 . S
C1344 C1347 1.526 . S
C1345 H1329 0.959 . S
C1345 H1330 0.959 . S
C1345 H1331 0.961 . S
C1345 C1344 1.502 . S
C1346 H1332 0.960 . S
C1346 H1333 0.961 . S
C1346 H1334 0.959 . S
C1346 C1344 1.561 . S
C1347 C1344 1.526 . S
C1347 C1348 1.396 . S
C1347 C1352 1.390 . S
C1348 C1342 1.465 . S
C1348 C1347 1.396 . S
C1348 C1349 1.399 . S
C1349 H1335 0.929 . S
C1349 C1348 1.399 . S
C1349 C1350 1.385 . S
C1350 H1336 0.931 . S
C1350 C1349 1.385 . S
C1350 C1351 1.389 . S
C1351 C1350 1.389 . S
C1351 C1352 1.387 . S
C1352 H1337 0.930 . S
C1352 C1347 1.390 . S
C1352 C1351 1.387 . S
H1353 C1365 0.930 . S
H1354 C1367 0.930 . S
H1355 C1368 0.930 . S
H1356 C1372 0.959 . S
H1357 C1372 0.959 . S
H1358 C1372 0.961 . S
H1359 C1373 0.960 . S
H1360 C1373 0.961 . S
H1361 C1373 0.959 . S
H1362 C1376 0.929 . S
H1363 C1377 0.931 . S
H1364 C1379 0.930 . S
C1365 H1353 0.930 . S
C1365 C1366 1.399 . S
C1365 C1370 1.399 . S
C1366 C1365 1.399 . S
C1366 C1367 1.376 . S
C1367 H1354 0.930 . S
C1367 C1366 1.376 . S
C1367 C1368 1.388 . S
C1368 H1355 0.930 . S
C1368 C1367 1.388 . S
C1368 C1369 1.390 . S
C1369 C1368 1.390 . S
C1369 C1370 1.394 . S
C1369 C1375 1.465 . S
C1370 C1365 1.399 . S
C1370 C1369 1.394 . S
C1370 C1371 1.516 . S
C1371 C1370 1.516 . S
C1371 C1372 1.502 . S
C1371 C1373 1.561 . S
C1371 C1374 1.526 . S
C1372 H1356 0.959 . S
C1372 H1357 0.959 . S
C1372 H1358 0.961 . S
C1372 C1371 1.502 . S
C1373 H1359 0.960 . S
C1373 H1360 0.961 . S
C1373 H1361 0.959 . S
C1373 C1371 1.561 . S
C1374 C1371 1.526 . S
C1374 C1375 1.396 . S
C1374 C1379 1.390 . S
C1375 C1369 1.465 . S
C1375 C1374 1.396 . S
C1375 C1376 1.399 . S
C1376 H1362 0.929 . S
C1376 C1375 1.399 . S
C1376 C1377 1.385 . S
C1377 H1363 0.931 . S
C1377 C1376 1.385 . S
C1377 C1378 1.389 . S
C1378 C1377 1.389 . S
C1378 C1379 1.387 . S
C1379 H1364 0.930 . S
C1379 C1374 1.390 . S
C1379 C1378 1.387 . S
H1380 C1392 0.930 . S
H1381 C1394 0.930 . S
H1382 C1395 0.930 . S
H1383 C1399 0.959 . S
H1384 C1399 0.959 . S
H1385 C1399 0.961 . S
H1386 C1400 0.960 . S
H1387 C1400 0.961 . S
H1388 C1400 0.959 . S
H1389 C1403 0.929 . S
H1390 C1404 0.931 . S
H1391 C1406 0.930 . S
C1392 H1380 0.930 . S
C1392 C1393 1.399 . S
C1392 C1397 1.399 . S
C1393 C1392 1.399 . S
C1393 C1394 1.376 . S
C1394 H1381 0.930 . S
C1394 C1393 1.376 . S
C1394 C1395 1.388 . S
C1395 H1382 0.930 . S
C1395 C1394 1.388 . S
C1395 C1396 1.390 . S
C1396 C1395 1.390 . S
C1396 C1397 1.394 . S
C1396 C1402 1.465 . S
C1397 C1392 1.399 . S
C1397 C1396 1.394 . S
C1397 C1398 1.516 . S
C1398 C1397 1.516 . S
C1398 C1399 1.502 . S
C1398 C1400 1.561 . S
C1398 C1401 1.526 . S
C1399 H1383 0.959 . S
C1399 H1384 0.959 . S
C1399 H1385 0.961 . S
C1399 C1398 1.502 . S
C1400 H1386 0.960 . S
C1400 H1387 0.961 . S
C1400 H1388 0.959 . S
C1400 C1398 1.561 . S
C1401 C1398 1.526 . S
C1401 C1402 1.396 . S
C1401 C1406 1.390 . S
C1402 C1396 1.465 . S
C1402 C1401 1.396 . S
C1402 C1403 1.399 . S
C1403 H1389 0.929 . S
C1403 C1402 1.399 . S
C1403 C1404 1.385 . S
C1404 H1390 0.931 . S
C1404 C1403 1.385 . S
C1404 C1405 1.389 . S
C1405 C1404 1.389 . S
C1405 C1406 1.387 . S
C1406 H1391 0.930 . S
C1406 C1401 1.390 . S
C1406 C1405 1.387 . S
H1407 C1419 0.930 . S
H1408 C1421 0.930 . S
H1409 C1422 0.930 . S
H1410 C1426 0.959 . S
H1411 C1426 0.959 . S
H1412 C1426 0.961 . S
H1413 C1427 0.960 . S
H1414 C1427 0.961 . S
H1415 C1427 0.959 . S
H1416 C1430 0.929 . S
H1417 C1431 0.931 . S
H1418 C1433 0.930 . S
C1419 H1407 0.930 . S
C1419 C1420 1.399 . S
C1419 C1424 1.399 . S
C1420 C1419 1.399 . S
C1420 C1421 1.376 . S
C1421 H1408 0.930 . S
C1421 C1420 1.376 . S
C1421 C1422 1.388 . S
C1422 H1409 0.930 . S
C1422 C1421 1.388 . S
C1422 C1423 1.390 . S
C1423 C1422 1.390 . S
C1423 C1424 1.394 . S
C1423 C1429 1.465 . S
C1424 C1419 1.399 . S
C1424 C1423 1.394 . S
C1424 C1425 1.516 . S
C1425 C1424 1.516 . S
C1425 C1426 1.502 . S
C1425 C1427 1.561 . S
C1425 C1428 1.526 . S
C1426 H1410 0.959 . S
C1426 H1411 0.959 . S
C1426 H1412 0.961 . S
C1426 C1425 1.502 . S
C1427 H1413 0.960 . S
C1427 H1414 0.961 . S
C1427 H1415 0.959 . S
C1427 C1425 1.561 . S
C1428 C1425 1.526 . S
C1428 C1429 1.396 . S
C1428 C1433 1.390 . S
C1429 C1423 1.465 . S
C1429 C1428 1.396 . S
C1429 C1430 1.399 . S
C1430 H1416 0.929 . S
C1430 C1429 1.399 . S
C1430 C1431 1.385 . S
C1431 H1417 0.931 . S
C1431 C1430 1.385 . S
C1431 C1432 1.389 . S
C1432 C1431 1.389 . S
C1432 C1433 1.387 . S
C1433 H1418 0.930 . S
C1433 C1428 1.390 . S
C1433 C1432 1.387 . S
H1434 C1446 0.924 1_554 S
H1435 C1448 0.930 . S
H1436 C1449 0.930 . S
H1437 C1453 0.959 . S
H1438 C1453 0.959 . S
H1439 C1453 0.961 . S
H1440 C1454 0.960 . S
H1441 C1454 0.961 . S
H1442 C1454 0.959 . S
H1443 C1457 0.929 . S
H1444 C1458 0.931 . S
H1445 C1460 0.930 . S
C1446 H1434 0.924 1_556 S
C1446 C1447 1.385 1_556 S
C1446 C1451 1.419 . S
C1447 C1446 1.385 1_554 S
C1447 C1448 1.376 . S
C1448 H1435 0.930 . S
C1448 C1447 1.376 . S
C1448 C1449 1.388 1_554 S
C1449 H1436 0.930 . S
C1449 C1448 1.388 1_556 S
C1449 C1450 1.390 . S
C1450 C1449 1.390 . S
C1450 C1451 1.394 . S
C1450 C1456 1.465 . S
C1451 C1446 1.419 . S
C1451 C1450 1.394 . S
C1451 C1452 1.516 . S
C1452 C1451 1.516 . S
C1452 C1453 1.502 . S
C1452 C1454 1.561 . S
C1452 C1455 1.526 . S
C1453 H1437 0.959 . S
C1453 H1438 0.959 . S
C1453 H1439 0.961 . S
C1453 C1452 1.502 . S
C1454 H1440 0.960 . S
C1454 H1441 0.961 . S
C1454 H1442 0.959 . S
C1454 C1452 1.561 . S
C1455 C1452 1.526 . S
C1455 C1456 1.396 . S
C1455 C1460 1.390 . S
C1456 C1450 1.465 . S
C1456 C1455 1.396 . S
C1456 C1457 1.399 . S
C1457 H1443 0.929 . S
C1457 C1456 1.399 . S
C1457 C1458 1.385 . S
C1458 H1444 0.931 . S
C1458 C1457 1.385 . S
C1458 C1459 1.389 . S
C1459 C1458 1.389 . S
C1459 C1460 1.387 . S
C1460 H1445 0.930 . S
C1460 C1455 1.390 . S
C1460 C1459 1.387 . S
H1461 C1473 0.930 . S
H1462 C1475 0.930 . S
H1463 C1476 0.930 1_455 S
H1464 C1480 0.959 . S
H1465 C1480 0.959 . S
H1466 C1480 0.961 . S
H1467 C1481 0.960 . S
H1468 C1481 0.961 . S
H1469 C1481 0.959 1_556 S
H1470 C1484 0.929 . S
H1471 C1485 0.931 . S
H1472 C1487 0.930 . S
C1473 H1461 0.930 . S
C1473 C1474 1.445 . S
C1473 C1478 1.407 . S
C1474 C1473 1.445 . S
C1474 C1475 1.364 1_654 S
C1475 H1462 0.930 . S
C1475 C1474 1.364 1_456 S
C1475 C1476 1.388 1_455 S
C1476 H1463 0.930 1_655 S
C1476 C1475 1.388 1_655 S
C1476 C1477 1.390 . S
C1477 C1476 1.390 . S
C1477 C1478 1.385 1_556 S
C1477 C1483 1.465 . S
C1478 C1473 1.407 . S
C1478 C1477 1.385 1_554 S
C1478 C1479 1.516 . S
C1479 C1478 1.516 . S
C1479 C1480 1.502 . S
C1479 C1481 1.561 . S
C1479 C1482 1.526 1_554 S
C1480 H1464 0.959 . S
C1480 H1465 0.959 . S
C1480 H1466 0.961 . S
C1480 C1479 1.502 . S
C1481 H1467 0.960 . S
C1481 H1468 0.961 . S
C1481 H1469 0.959 1_554 S
C1481 C1479 1.561 . S
C1482 C1479 1.526 1_556 S
C1482 C1483 1.396 . S
C1482 C1487 1.390 . S
C1483 C1477 1.465 . S
C1483 C1482 1.396 . S
C1483 C1484 1.399 . S
C1484 H1470 0.929 . S
C1484 C1483 1.399 . S
C1484 C1485 1.385 . S
C1485 H1471 0.931 . S
C1485 C1484 1.385 . S
C1485 C1486 1.389 . S
C1486 C1485 1.389 . S
C1486 C1487 1.387 . S
C1487 H1472 0.930 . S
C1487 C1482 1.390 . S
C1487 C1486 1.387 . S
H1488 C1500 0.930 . S
H1489 C1502 0.930 . S
H1490 C1503 0.930 . S
H1491 C1507 0.959 . S
H1492 C1507 0.959 . S
H1493 C1507 0.961 . S
H1494 C1508 0.960 . S
H1495 C1508 0.961 . S
H1496 C1508 0.959 . S
H1497 C1511 0.929 . S
H1498 C1512 0.931 . S
H1499 C1514 0.930 . S
C1500 H1488 0.930 . S
C1500 C1501 1.399 . S
C1500 C1505 1.399 . S
C1501 C1500 1.399 . S
C1501 C1502 1.376 . S
C1502 H1489 0.930 . S
C1502 C1501 1.376 . S
C1502 C1503 1.388 . S
C1503 H1490 0.930 . S
C1503 C1502 1.388 . S
C1503 C1504 1.390 . S
C1504 C1503 1.390 . S
C1504 C1505 1.394 . S
C1504 C1510 1.465 . S
C1505 C1500 1.399 . S
C1505 C1504 1.394 . S
C1505 C1506 1.516 . S
C1506 C1505 1.516 . S
C1506 C1507 1.502 . S
C1506 C1508 1.561 . S
C1506 C1509 1.526 . S
C1507 H1491 0.959 . S
C1507 H1492 0.959 . S
C1507 H1493 0.961 . S
C1507 C1506 1.502 . S
C1508 H1494 0.960 . S
C1508 H1495 0.961 . S
C1508 H1496 0.959 . S
C1508 C1506 1.561 . S
C1509 C1506 1.526 . S
C1509 C1510 1.396 . S
C1509 C1514 1.390 . S
C1510 C1504 1.465 . S
C1510 C1509 1.396 . S
C1510 C1511 1.399 . S
C1511 H1497 0.929 . S
C1511 C1510 1.399 . S
C1511 C1512 1.385 . S
C1512 H1498 0.931 . S
C1512 C1511 1.385 . S
C1512 C1513 1.389 . S
C1513 C1512 1.389 . S
C1513 C1514 1.387 . S
C1514 H1499 0.930 . S
C1514 C1509 1.390 . S
C1514 C1513 1.387 . S
H1515 C1527 0.930 . S
H1516 C1529 0.930 . S
H1517 C1530 0.930 . S
H1518 C1534 0.959 . S
H1519 C1534 0.959 . S
H1520 C1534 0.961 . S
H1521 C1535 0.960 . S
H1522 C1535 0.961 . S
H1523 C1535 0.959 . S
H1524 C1538 0.929 . S
H1525 C1539 0.931 . S
H1526 C1541 0.930 . S
C1527 H1515 0.930 . S
C1527 C1528 1.399 . S
C1527 C1532 1.399 . S
C1528 C1527 1.399 . S
C1528 C1529 1.376 . S
C1529 H1516 0.930 . S
C1529 C1528 1.376 . S
C1529 C1530 1.388 . S
C1530 H1517 0.930 . S
C1530 C1529 1.388 . S
C1530 C1531 1.390 . S
C1531 C1530 1.390 . S
C1531 C1532 1.394 . S
C1531 C1537 1.465 . S
C1532 C1527 1.399 . S
C1532 C1531 1.394 . S
C1532 C1533 1.516 . S
C1533 C1532 1.516 . S
C1533 C1534 1.502 . S
C1533 C1535 1.561 . S
C1533 C1536 1.526 . S
C1534 H1518 0.959 . S
C1534 H1519 0.959 . S
C1534 H1520 0.961 . S
C1534 C1533 1.502 . S
C1535 H1521 0.960 . S
C1535 H1522 0.961 . S
C1535 H1523 0.959 . S
C1535 C1533 1.561 . S
C1536 C1533 1.526 . S
C1536 C1537 1.396 . S
C1536 C1541 1.390 . S
C1537 C1531 1.465 . S
C1537 C1536 1.396 . S
C1537 C1538 1.399 . S
C1538 H1524 0.929 . S
C1538 C1537 1.399 . S
C1538 C1539 1.385 . S
C1539 H1525 0.931 . S
C1539 C1538 1.385 . S
C1539 C1540 1.389 . S
C1540 C1539 1.389 . S
C1540 C1541 1.387 . S
C1541 H1526 0.930 . S
C1541 C1536 1.390 . S
C1541 C1540 1.387 . S
H1542 C1554 0.930 1_545 S
H1543 C1556 0.930 . S
H1544 C1557 0.930 . S
H1545 C1561 0.959 . S
H1546 C1561 0.959 . S
H1547 C1561 0.961 . S
H1548 C1562 0.960 . S
H1549 C1562 0.961 . S
H1550 C1562 0.959 . S
H1551 C1565 0.929 . S
H1552 C1566 0.931 . S
H1553 C1568 0.930 . S
C1554 H1542 0.930 1_565 S
C1554 C1555 1.402 . S
C1554 C1559 1.399 . S
C1555 C1554 1.402 . S
C1555 C1556 1.390 . S
C1556 H1543 0.930 . S
C1556 C1555 1.390 . S
C1556 C1557 1.388 . S
C1557 H1544 0.930 . S
C1557 C1556 1.388 . S
C1557 C1558 1.390 . S
C1558 C1557 1.390 . S
C1558 C1559 1.394 . S
C1558 C1564 1.465 . S
C1559 C1554 1.399 . S
C1559 C1558 1.394 . S
C1559 C1560 1.516 . S
C1560 C1559 1.516 . S
C1560 C1561 1.502 . S
C1560 C1562 1.561 . S
C1560 C1563 1.526 . S
C1561 H1545 0.959 . S
C1561 H1546 0.959 . S
C1561 H1547 0.961 . S
C1561 C1560 1.502 . S
C1562 H1548 0.960 . S
C1562 H1549 0.961 . S
C1562 H1550 0.959 . S
C1562 C1560 1.561 . S
C1563 C1560 1.526 . S
C1563 C1564 1.396 . S
C1563 C1568 1.390 . S
C1564 C1558 1.465 . S
C1564 C1563 1.396 . S
C1564 C1565 1.399 . S
C1565 H1551 0.929 . S
C1565 C1564 1.399 . S
C1565 C1566 1.385 . S
C1566 H1552 0.931 . S
C1566 C1565 1.385 . S
C1566 C1567 1.389 . S
C1567 C1566 1.389 . S
C1567 C1568 1.387 . S
C1568 H1553 0.930 . S
C1568 C1563 1.390 . S
C1568 C1567 1.387 . S
H1569 C1581 0.930 . S
H1570 C1583 0.930 . S
H1571 C1584 0.930 . S
H1572 C1588 0.959 . S
H1573 C1588 0.959 . S
H1574 C1588 0.961 . S
H1575 C1589 0.960 . S
H1576 C1589 0.961 . S
H1577 C1589 0.959 . S
H1578 C1592 0.929 . S
H1579 C1593 0.931 . S
H1580 C1595 0.930 . S
C1581 H1569 0.930 . S
C1581 C1582 1.399 . S
C1581 C1586 1.399 . S
C1582 C1581 1.399 . S
C1582 C1583 1.376 . S
C1583 H1570 0.930 . S
C1583 C1582 1.376 . S
C1583 C1584 1.388 . S
C1584 H1571 0.930 . S
C1584 C1583 1.388 . S
C1584 C1585 1.390 . S
C1585 C1584 1.390 . S
C1585 C1586 1.394 . S
C1585 C1591 1.465 . S
C1586 C1581 1.399 . S
C1586 C1585 1.394 . S
C1586 C1587 1.516 . S
C1587 C1586 1.516 . S
C1587 C1588 1.502 . S
C1587 C1589 1.561 . S
C1587 C1590 1.526 . S
C1588 H1572 0.959 . S
C1588 H1573 0.959 . S
C1588 H1574 0.961 . S
C1588 C1587 1.502 . S
C1589 H1575 0.960 . S
C1589 H1576 0.961 . S
C1589 H1577 0.959 . S
C1589 C1587 1.561 . S
C1590 C1587 1.526 . S
C1590 C1591 1.396 . S
C1590 C1595 1.390 . S
C1591 C1585 1.465 . S
C1591 C1590 1.396 . S
C1591 C1592 1.399 . S
C1592 H1578 0.929 . S
C1592 C1591 1.399 . S
C1592 C1593 1.385 . S
C1593 H1579 0.931 . S
C1593 C1592 1.385 . S
C1593 C1594 1.389 . S
C1594 C1593 1.389 . S
C1594 C1595 1.387 . S
C1595 H1580 0.930 . S
C1595 C1590 1.390 . S
C1595 C1594 1.387 . S
H1596 C1608 0.930 . S
H1597 C1610 0.930 . S
H1598 C1611 0.930 . S
H1599 C1615 0.959 . S
H1600 C1615 0.959 . S
H1601 C1615 0.961 . S
H1602 C1616 0.960 . S
H1603 C1616 0.961 . S
H1604 C1616 0.959 . S
H1605 C1619 0.929 . S
H1606 C1620 0.931 . S
H1607 C1622 0.930 . S
C1608 H1596 0.930 . S
C1608 C1609 1.399 . S
C1608 C1613 1.399 . S
C1609 C1608 1.399 . S
C1609 C1610 1.376 . S
C1610 H1597 0.930 . S
C1610 C1609 1.376 . S
C1610 C1611 1.388 . S
C1611 H1598 0.930 . S
C1611 C1610 1.388 . S
C1611 C1612 1.390 . S
C1612 C1611 1.390 . S
C1612 C1613 1.394 . S
C1612 C1618 1.465 . S
C1613 C1608 1.399 . S
C1613 C1612 1.394 . S
C1613 C1614 1.516 . S
C1614 C1613 1.516 . S
C1614 C1615 1.502 . S
C1614 C1616 1.561 . S
C1614 C1617 1.526 . S
C1615 H1599 0.959 . S
C1615 H1600 0.959 . S
C1615 H1601 0.961 . S
C1615 C1614 1.502 . S
C1616 H1602 0.960 . S
C1616 H1603 0.961 . S
C1616 H1604 0.959 . S
C1616 C1614 1.561 . S
C1617 C1614 1.526 . S
C1617 C1618 1.396 . S
C1617 C1622 1.390 . S
C1618 C1612 1.465 . S
C1618 C1617 1.396 . S
C1618 C1619 1.399 . S
C1619 H1605 0.929 . S
C1619 C1618 1.399 . S
C1619 C1620 1.385 . S
C1620 H1606 0.931 . S
C1620 C1619 1.385 . S
C1620 C1621 1.389 . S
C1621 C1620 1.389 . S
C1621 C1622 1.387 . S
C1622 H1607 0.930 . S
C1622 C1617 1.390 . S
C1622 C1621 1.387 . S
H1623 C1635 0.930 . S
H1624 C1637 0.930 . S
H1625 C1638 0.930 . S
H1626 C1642 0.959 . S
H1627 C1642 0.959 . S
H1628 C1642 0.961 . S
H1629 C1643 0.960 . S
H1630 C1643 0.961 . S
H1631 C1643 0.959 . S
H1632 C1646 0.929 . S
H1633 C1647 0.931 . S
H1634 C1649 0.930 . S
C1635 H1623 0.930 . S
C1635 C1636 1.399 . S
C1635 C1640 1.399 . S
C1636 C1635 1.399 . S
C1636 C1637 1.376 . S
C1637 H1624 0.930 . S
C1637 C1636 1.376 . S
C1637 C1638 1.388 . S
C1638 H1625 0.930 . S
C1638 C1637 1.388 . S
C1638 C1639 1.390 . S
C1639 C1638 1.390 . S
C1639 C1640 1.394 . S
C1639 C1645 1.465 . S
C1640 C1635 1.399 . S
C1640 C1639 1.394 . S
C1640 C1641 1.516 . S
C1641 C1640 1.516 . S
C1641 C1642 1.502 . S
C1641 C1643 1.561 . S
C1641 C1644 1.526 . S
C1642 H1626 0.959 . S
C1642 H1627 0.959 . S
C1642 H1628 0.961 . S
C1642 C1641 1.502 . S
C1643 H1629 0.960 . S
C1643 H1630 0.961 . S
C1643 H1631 0.959 . S
C1643 C1641 1.561 . S
C1644 C1641 1.526 . S
C1644 C1645 1.396 . S
C1644 C1649 1.390 . S
C1645 C1639 1.465 . S
C1645 C1644 1.396 . S
C1645 C1646 1.399 . S
C1646 H1632 0.929 . S
C1646 C1645 1.399 . S
C1646 C1647 1.385 . S
C1647 H1633 0.931 . S
C1647 C1646 1.385 . S
C1647 C1648 1.389 . S
C1648 C1647 1.389 . S
C1648 C1649 1.387 . S
C1649 H1634 0.930 . S
C1649 C1644 1.390 . S
C1649 C1648 1.387 . S
H1650 C1662 0.930 . S
H1651 C1664 0.930 . S
H1652 C1665 0.930 . S
H1653 C1669 0.959 . S
H1654 C1669 0.959 . S
H1655 C1669 0.961 . S
H1656 C1670 0.960 . S
H1657 C1670 0.961 . S
H1658 C1670 0.959 . S
H1659 C1673 0.929 . S
H1660 C1674 0.931 . S
H1661 C1676 0.930 . S
C1662 H1650 0.930 . S
C1662 C1663 1.399 . S
C1662 C1667 1.399 . S
C1663 C1662 1.399 . S
C1663 C1664 1.376 . S
C1664 H1651 0.930 . S
C1664 C1663 1.376 . S
C1664 C1665 1.388 . S
C1665 H1652 0.930 . S
C1665 C1664 1.388 . S
C1665 C1666 1.390 . S
C1666 C1665 1.390 . S
C1666 C1667 1.394 . S
C1666 C1672 1.465 . S
C1667 C1662 1.399 . S
C1667 C1666 1.394 . S
C1667 C1668 1.516 . S
C1668 C1667 1.516 . S
C1668 C1669 1.502 . S
C1668 C1670 1.561 . S
C1668 C1671 1.526 . S
C1669 H1653 0.959 . S
C1669 H1654 0.959 . S
C1669 H1655 0.961 . S
C1669 C1668 1.502 . S
C1670 H1656 0.960 . S
C1670 H1657 0.961 . S
C1670 H1658 0.959 . S
C1670 C1668 1.561 . S
C1671 C1668 1.526 . S
C1671 C1672 1.396 . S
C1671 C1676 1.390 . S
C1672 C1666 1.465 . S
C1672 C1671 1.396 . S
C1672 C1673 1.399 . S
C1673 H1659 0.929 . S
C1673 C1672 1.399 . S
C1673 C1674 1.385 . S
C1674 H1660 0.931 . S
C1674 C1673 1.385 . S
C1674 C1675 1.389 . S
C1675 C1674 1.389 . S
C1675 C1676 1.387 . S
C1676 H1661 0.930 . S
C1676 C1671 1.390 . S
C1676 C1675 1.387 . S
H1677 C1689 0.930 . S
H1678 C1691 0.930 . S
H1679 C1692 0.930 . S
H1680 C1696 0.959 . S
H1681 C1696 0.959 . S
H1682 C1696 0.961 . S
H1683 C1697 0.960 . S
H1684 C1697 0.961 . S
H1685 C1697 0.959 . S
H1686 C1700 0.929 . S
H1687 C1701 0.931 . S
H1688 C1703 0.930 . S
C1689 H1677 0.930 . S
C1689 C1690 1.399 . S
C1689 C1694 1.399 . S
C1690 C1689 1.399 . S
C1690 C1691 1.376 . S
C1691 H1678 0.930 . S
C1691 C1690 1.376 . S
C1691 C1692 1.388 . S
C1692 H1679 0.930 . S
C1692 C1691 1.388 . S
C1692 C1693 1.390 . S
C1693 C1692 1.390 . S
C1693 C1694 1.394 . S
C1693 C1699 1.465 . S
C1694 C1689 1.399 . S
C1694 C1693 1.394 . S
C1694 C1695 1.516 . S
C1695 C1694 1.516 . S
C1695 C1696 1.502 . S
C1695 C1697 1.561 . S
C1695 C1698 1.526 . S
C1696 H1680 0.959 . S
C1696 H1681 0.959 . S
C1696 H1682 0.961 . S
C1696 C1695 1.502 . S
C1697 H1683 0.960 . S
C1697 H1684 0.961 . S
C1697 H1685 0.959 . S
C1697 C1695 1.561 . S
C1698 C1695 1.526 . S
C1698 C1699 1.396 . S
C1698 C1703 1.390 . S
C1699 C1693 1.465 . S
C1699 C1698 1.396 . S
C1699 C1700 1.399 . S
C1700 H1686 0.929 . S
C1700 C1699 1.399 . S
C1700 C1701 1.385 . S
C1701 H1687 0.931 . S
C1701 C1700 1.385 . S
C1701 C1702 1.389 . S
C1702 C1701 1.389 . S
C1702 C1703 1.387 . S
C1703 H1688 0.930 . S
C1703 C1698 1.390 . S
C1703 C1702 1.387 . S
H1704 C1716 0.930 . S
H1705 C1718 0.930 . S
H1706 C1719 0.930 . S
H1707 C1723 0.959 . S
H1708 C1723 0.959 . S
H1709 C1723 0.961 . S
H1710 C1724 0.960 . S
H1711 C1724 0.961 . S
H1712 C1724 0.959 . S
H1713 C1727 0.929 . S
H1714 C1728 0.931 . S
H1715 C1730 0.930 . S
C1716 H1704 0.930 . S
C1716 C1717 1.399 . S
C1716 C1721 1.399 . S
C1717 C1716 1.399 . S
C1717 C1718 1.376 . S
C1718 H1705 0.930 . S
C1718 C1717 1.376 . S
C1718 C1719 1.388 . S
C1719 H1706 0.930 . S
C1719 C1718 1.388 . S
C1719 C1720 1.390 . S
C1720 C1719 1.390 . S
C1720 C1721 1.394 . S
C1720 C1726 1.465 . S
C1721 C1716 1.399 . S
C1721 C1720 1.394 . S
C1721 C1722 1.516 . S
C1722 C1721 1.516 . S
C1722 C1723 1.502 . S
C1722 C1724 1.561 . S
C1722 C1725 1.526 . S
C1723 H1707 0.959 . S
C1723 H1708 0.959 . S
C1723 H1709 0.961 . S
C1723 C1722 1.502 . S
C1724 H1710 0.960 . S
C1724 H1711 0.961 . S
C1724 H1712 0.959 . S
C1724 C1722 1.561 . S
C1725 C1722 1.526 . S
C1725 C1726 1.396 . S
C1725 C1730 1.390 . S
C1726 C1720 1.465 . S
C1726 C1725 1.396 . S
C1726 C1727 1.399 . S
C1727 H1713 0.929 . S
C1727 C1726 1.399 . S
C1727 C1728 1.385 . S
C1728 H1714 0.931 . S
C1728 C1727 1.385 . S
C1728 C1729 1.389 . S
C1729 C1728 1.389 . S
C1729 C1730 1.387 . S
C1730 H1715 0.930 . S
C1730 C1725 1.390 . S
C1730 C1729 1.387 . S
H1731 C1743 0.930 . S
H1732 C1745 0.930 . S
H1733 C1746 0.930 . S
H1734 C1750 0.959 . S
H1735 C1750 0.959 . S
H1736 C1750 0.961 . S
H1737 C1751 0.960 . S
H1738 C1751 0.961 . S
H1739 C1751 0.959 . S
H1740 C1754 0.929 . S
H1741 C1755 0.931 . S
H1742 C1757 0.930 . S
C1743 H1731 0.930 . S
C1743 C1744 1.399 . S
C1743 C1748 1.399 . S
C1744 C1743 1.399 . S
C1744 C1745 1.376 . S
C1745 H1732 0.930 . S
C1745 C1744 1.376 . S
C1745 C1746 1.388 . S
C1746 H1733 0.930 . S
C1746 C1745 1.388 . S
C1746 C1747 1.390 . S
C1747 C1746 1.390 . S
C1747 C1748 1.394 . S
C1747 C1753 1.465 . S
C1748 C1743 1.399 . S
C1748 C1747 1.394 . S
C1748 C1749 1.516 . S
C1749 C1748 1.516 . S
C1749 C1750 1.502 . S
C1749 C1751 1.561 . S
C1749 C1752 1.526 . S
C1750 H1734 0.959 . S
C1750 H1735 0.959 . S
C1750 H1736 0.961 . S
C1750 C1749 1.502 . S
C1751 H1737 0.960 . S
C1751 H1738 0.961 . S
C1751 H1739 0.959 . S
C1751 C1749 1.561 . S
C1752 C1749 1.526 . S
C1752 C1753 1.396 . S
C1752 C1757 1.390 . S
C1753 C1747 1.465 . S
C1753 C1752 1.396 . S
C1753 C1754 1.399 . S
C1754 H1740 0.929 . S
C1754 C1753 1.399 . S
C1754 C1755 1.385 . S
C1755 H1741 0.931 . S
C1755 C1754 1.385 . S
C1755 C1756 1.389 . S
C1756 C1755 1.389 . S
C1756 C1757 1.387 . S
C1757 H1742 0.930 . S
C1757 C1752 1.390 . S
C1757 C1756 1.387 . S
H1758 C1770 0.930 . S
H1759 C1772 0.930 . S
H1760 C1773 0.930 . S
H1761 C1777 0.959 . S
H1762 C1777 0.959 . S
H1763 C1777 0.961 . S
H1764 C1778 0.960 . S
H1765 C1778 0.961 . S
H1766 C1778 0.959 . S
H1767 C1781 0.929 . S
H1768 C1782 0.931 . S
H1769 C1784 0.930 . S
C1770 H1758 0.930 . S
C1770 C1771 1.399 . S
C1770 C1775 1.399 . S
C1771 C1770 1.399 . S
C1771 C1772 1.376 . S
C1772 H1759 0.930 . S
C1772 C1771 1.376 . S
C1772 C1773 1.388 . S
C1773 H1760 0.930 . S
C1773 C1772 1.388 . S
C1773 C1774 1.390 . S
C1774 C1773 1.390 . S
C1774 C1775 1.394 . S
C1774 C1780 1.465 . S
C1775 C1770 1.399 . S
C1775 C1774 1.394 . S
C1775 C1776 1.516 . S
C1776 C1775 1.516 . S
C1776 C1777 1.502 . S
C1776 C1778 1.561 . S
C1776 C1779 1.526 . S
C1777 H1761 0.959 . S
C1777 H1762 0.959 . S
C1777 H1763 0.961 . S
C1777 C1776 1.502 . S
C1778 H1764 0.960 . S
C1778 H1765 0.961 . S
C1778 H1766 0.959 . S
C1778 C1776 1.561 . S
C1779 C1776 1.526 . S
C1779 C1780 1.396 . S
C1779 C1784 1.390 . S
C1780 C1774 1.465 . S
C1780 C1779 1.396 . S
C1780 C1781 1.399 . S
C1781 H1767 0.929 . S
C1781 C1780 1.399 . S
C1781 C1782 1.385 . S
C1782 H1768 0.931 . S
C1782 C1781 1.385 . S
C1782 C1783 1.389 . S
C1783 C1782 1.389 . S
C1783 C1784 1.387 . S
C1784 H1769 0.930 . S
C1784 C1779 1.390 . S
C1784 C1783 1.387 . S
H1785 C1797 0.930 . S
H1786 C1799 0.930 . S
H1787 C1800 0.930 . S
H1788 C1804 0.959 . S
H1789 C1804 0.959 . S
H1790 C1804 0.961 . S
H1791 C1805 0.960 . S
H1792 C1805 0.961 . S
H1793 C1805 0.959 . S
H1794 C1808 0.929 . S
H1795 C1809 0.931 . S
H1796 C1811 0.930 . S
C1797 H1785 0.930 . S
C1797 C1798 1.399 . S
C1797 C1802 1.399 . S
C1798 C1797 1.399 . S
C1798 C1799 1.376 . S
C1799 H1786 0.930 . S
C1799 C1798 1.376 . S
C1799 C1800 1.388 . S
C1800 H1787 0.930 . S
C1800 C1799 1.388 . S
C1800 C1801 1.390 . S
C1801 C1800 1.390 . S
C1801 C1802 1.394 . S
C1801 C1807 1.465 . S
C1802 C1797 1.399 . S
C1802 C1801 1.394 . S
C1802 C1803 1.516 . S
C1803 C1802 1.516 . S
C1803 C1804 1.502 . S
C1803 C1805 1.561 . S
C1803 C1806 1.526 . S
C1804 H1788 0.959 . S
C1804 H1789 0.959 . S
C1804 H1790 0.961 . S
C1804 C1803 1.502 . S
C1805 H1791 0.960 . S
C1805 H1792 0.961 . S
C1805 H1793 0.959 . S
C1805 C1803 1.561 . S
C1806 C1803 1.526 . S
C1806 C1807 1.396 . S
C1806 C1811 1.390 . S
C1807 C1801 1.465 . S
C1807 C1806 1.396 . S
C1807 C1808 1.399 . S
C1808 H1794 0.929 . S
C1808 C1807 1.399 . S
C1808 C1809 1.385 . S
C1809 H1795 0.931 . S
C1809 C1808 1.385 . S
C1809 C1810 1.389 . S
C1810 C1809 1.389 . S
C1810 C1811 1.387 . S
C1811 H1796 0.930 . S
C1811 C1806 1.390 . S
C1811 C1810 1.387 . S
H1812 C1824 0.930 . S
H1813 C1826 0.930 . S
H1814 C1827 0.930 . S
H1815 C1831 0.959 . S
H1816 C1831 0.959 . S
H1817 C1831 0.961 . S
H1818 C1832 0.960 . S
H1819 C1832 0.961 . S
H1820 C1832 0.959 . S
H1821 C1835 0.929 . S
H1822 C1836 0.931 . S
H1823 C1838 0.930 . S
C1824 H1812 0.930 . S
C1824 C1825 1.399 . S
C1824 C1829 1.399 . S
C1825 C1824 1.399 . S
C1825 C1826 1.376 . S
C1826 H1813 0.930 . S
C1826 C1825 1.376 . S
C1826 C1827 1.388 . S
C1827 H1814 0.930 . S
C1827 C1826 1.388 . S
C1827 C1828 1.390 . S
C1828 C1827 1.390 . S
C1828 C1829 1.394 . S
C1828 C1834 1.465 . S
C1829 C1824 1.399 . S
C1829 C1828 1.394 . S
C1829 C1830 1.516 . S
C1830 C1829 1.516 . S
C1830 C1831 1.502 . S
C1830 C1832 1.561 . S
C1830 C1833 1.526 . S
C1831 H1815 0.959 . S
C1831 H1816 0.959 . S
C1831 H1817 0.961 . S
C1831 C1830 1.502 . S
C1832 H1818 0.960 . S
C1832 H1819 0.961 . S
C1832 H1820 0.959 . S
C1832 C1830 1.561 . S
C1833 C1830 1.526 . S
C1833 C1834 1.396 . S
C1833 C1838 1.390 . S
C1834 C1828 1.465 . S
C1834 C1833 1.396 . S
C1834 C1835 1.399 . S
C1835 H1821 0.929 . S
C1835 C1834 1.399 . S
C1835 C1836 1.385 . S
C1836 H1822 0.931 . S
C1836 C1835 1.385 . S
C1836 C1837 1.389 . S
C1837 C1836 1.389 . S
C1837 C1838 1.387 . S
C1838 H1823 0.930 . S
C1838 C1833 1.390 . S
C1838 C1837 1.387 . S
H1839 C1851 0.930 . S
H1840 C1853 0.930 . S
H1841 C1854 0.930 . S
H1842 C1858 0.959 . S
H1843 C1858 0.959 . S
H1844 C1858 0.961 . S
H1845 C1859 0.960 . S
H1846 C1859 0.961 . S
H1847 C1859 0.959 . S
H1848 C1862 0.929 . S
H1849 C1863 0.931 . S
H1850 C1865 0.930 . S
C1851 H1839 0.930 . S
C1851 C1852 1.399 . S
C1851 C1856 1.399 . S
C1852 C1851 1.399 . S
C1852 C1853 1.376 . S
C1853 H1840 0.930 . S
C1853 C1852 1.376 . S
C1853 C1854 1.388 . S
C1854 H1841 0.930 . S
C1854 C1853 1.388 . S
C1854 C1855 1.390 . S
C1855 C1854 1.390 . S
C1855 C1856 1.394 . S
C1855 C1861 1.465 . S
C1856 C1851 1.399 . S
C1856 C1855 1.394 . S
C1856 C1857 1.516 . S
C1857 C1856 1.516 . S
C1857 C1858 1.502 . S
C1857 C1859 1.561 . S
C1857 C1860 1.526 . S
C1858 H1842 0.959 . S
C1858 H1843 0.959 . S
C1858 H1844 0.961 . S
C1858 C1857 1.502 . S
C1859 H1845 0.960 . S
C1859 H1846 0.961 . S
C1859 H1847 0.959 . S
C1859 C1857 1.561 . S
C1860 C1857 1.526 . S
C1860 C1861 1.396 . S
C1860 C1865 1.390 . S
C1861 C1855 1.465 . S
C1861 C1860 1.396 . S
C1861 C1862 1.399 . S
C1862 H1848 0.929 . S
C1862 C1861 1.399 . S
C1862 C1863 1.385 . S
C1863 H1849 0.931 . S
C1863 C1862 1.385 . S
C1863 C1864 1.389 . S
C1864 C1863 1.389 . S
C1864 C1865 1.387 . S
C1865 H1850 0.930 . S
C1865 C1860 1.390 . S
C1865 C1864 1.387 . S
H1866 C1878 0.930 . S
H1867 C1880 0.930 . S
H1868 C1881 0.930 . S
H1869 C1885 0.959 . S
H1870 C1885 0.959 . S
H1871 C1885 0.961 . S
H1872 C1886 0.960 . S
H1873 C1886 0.961 . S
H1874 C1886 0.959 . S
H1875 C1889 0.929 . S
H1876 C1890 0.931 . S
H1877 C1892 0.930 . S
C1878 H1866 0.930 . S
C1878 C1879 1.399 . S
C1878 C1883 1.399 . S
C1879 C1878 1.399 . S
C1879 C1880 1.376 . S
C1880 H1867 0.930 . S
C1880 C1879 1.376 . S
C1880 C1881 1.388 . S
C1881 H1868 0.930 . S
C1881 C1880 1.388 . S
C1881 C1882 1.390 . S
C1882 C1881 1.390 . S
C1882 C1883 1.394 . S
C1882 C1888 1.465 . S
C1883 C1878 1.399 . S
C1883 C1882 1.394 . S
C1883 C1884 1.516 . S
C1884 C1883 1.516 . S
C1884 C1885 1.502 . S
C1884 C1886 1.561 . S
C1884 C1887 1.526 . S
C1885 H1869 0.959 . S
C1885 H1870 0.959 . S
C1885 H1871 0.961 . S
C1885 C1884 1.502 . S
C1886 H1872 0.960 . S
C1886 H1873 0.961 . S
C1886 H1874 0.959 . S
C1886 C1884 1.561 . S
C1887 C1884 1.526 . S
C1887 C1888 1.396 . S
C1887 C1892 1.390 . S
C1888 C1882 1.465 . S
C1888 C1887 1.396 . S
C1888 C1889 1.399 . S
C1889 H1875 0.929 . S
C1889 C1888 1.399 . S
C1889 C1890 1.385 . S
C1890 H1876 0.931 . S
C1890 C1889 1.385 . S
C1890 C1891 1.389 . S
C1891 C1890 1.389 . S
C1891 C1892 1.387 . S
C1892 H1877 0.930 . S
C1892 C1887 1.390 . S
C1892 C1891 1.387 . S
H1893 C1905 0.930 . S
H1894 C1907 0.930 . S
H1895 C1908 0.930 . S
H1896 C1912 0.959 . S
H1897 C1912 0.959 . S
H1898 C1912 0.961 . S
H1899 C1913 0.960 . S
H1900 C1913 0.961 . S
H1901 C1913 0.959 . S
H1902 C1916 0.929 . S
H1903 C1917 0.931 . S
H1904 C1919 0.930 . S
C1905 H1893 0.930 . S
C1905 C1906 1.399 . S
C1905 C1910 1.399 . S
C1906 C1905 1.399 . S
C1906 C1907 1.376 . S
C1907 H1894 0.930 . S
C1907 C1906 1.376 . S
C1907 C1908 1.388 . S
C1908 H1895 0.930 . S
C1908 C1907 1.388 . S
C1908 C1909 1.390 . S
C1909 C1908 1.390 . S
C1909 C1910 1.394 . S
C1909 C1915 1.465 . S
C1910 C1905 1.399 . S
C1910 C1909 1.394 . S
C1910 C1911 1.516 . S
C1911 C1910 1.516 . S
C1911 C1912 1.502 . S
C1911 C1913 1.561 . S
C1911 C1914 1.526 . S
C1912 H1896 0.959 . S
C1912 H1897 0.959 . S
C1912 H1898 0.961 . S
C1912 C1911 1.502 . S
C1913 H1899 0.960 . S
C1913 H1900 0.961 . S
C1913 H1901 0.959 . S
C1913 C1911 1.561 . S
C1914 C1911 1.526 . S
C1914 C1915 1.396 . S
C1914 C1919 1.390 . S
C1915 C1909 1.465 . S
C1915 C1914 1.396 . S
C1915 C1916 1.399 . S
C1916 H1902 0.929 . S
C1916 C1915 1.399 . S
C1916 C1917 1.385 . S
C1917 H1903 0.931 . S
C1917 C1916 1.385 . S
C1917 C1918 1.389 . S
C1918 C1917 1.389 . S
C1918 C1919 1.387 . S
C1919 H1904 0.930 . S
C1919 C1914 1.390 . S
C1919 C1918 1.387 . S
H1920 C1932 0.930 . S
H1921 C1934 0.930 . S
H1922 C1935 0.930 . S
H1923 C1939 0.959 . S
H1924 C1939 0.959 . S
H1925 C1939 0.961 . S
H1926 C1940 0.960 . S
H1927 C1940 0.961 . S
H1928 C1940 0.959 . S
H1929 C1943 0.929 . S
H1930 C1944 0.931 . S
H1931 C1946 0.930 . S
C1932 H1920 0.930 . S
C1932 C1933 1.399 . S
C1932 C1937 1.399 . S
C1933 C1932 1.399 . S
C1933 C1934 1.376 . S
C1934 H1921 0.930 . S
C1934 C1933 1.376 . S
C1934 C1935 1.388 . S
C1935 H1922 0.930 . S
C1935 C1934 1.388 . S
C1935 C1936 1.390 . S
C1936 C1935 1.390 . S
C1936 C1937 1.394 . S
C1936 C1942 1.465 . S
C1937 C1932 1.399 . S
C1937 C1936 1.394 . S
C1937 C1938 1.516 . S
C1938 C1937 1.516 . S
C1938 C1939 1.502 . S
C1938 C1940 1.561 . S
C1938 C1941 1.526 . S
C1939 H1923 0.959 . S
C1939 H1924 0.959 . S
C1939 H1925 0.961 . S
C1939 C1938 1.502 . S
C1940 H1926 0.960 . S
C1940 H1927 0.961 . S
C1940 H1928 0.959 . S
C1940 C1938 1.561 . S
C1941 C1938 1.526 . S
C1941 C1942 1.396 . S
C1941 C1946 1.390 . S
C1942 C1936 1.465 . S
C1942 C1941 1.396 . S
C1942 C1943 1.399 . S
C1943 H1929 0.929 . S
C1943 C1942 1.399 . S
C1943 C1944 1.385 . S
C1944 H1930 0.931 . S
C1944 C1943 1.385 . S
C1944 C1945 1.389 . S
C1945 C1944 1.389 . S
C1945 C1946 1.387 . S
C1946 H1931 0.930 . S
C1946 C1941 1.390 . S
C1946 C1945 1.387 . S
H1947 C1959 0.930 . S
H1948 C1961 0.930 . S
H1949 C1962 0.930 . S
H1950 C1966 0.959 . S
H1951 C1966 0.959 . S
H1952 C1966 0.961 . S
H1953 C1967 0.960 . S
H1954 C1967 0.961 . S
H1955 C1967 0.959 . S
H1956 C1970 0.929 . S
H1957 C1971 0.931 . S
H1958 C1973 0.930 . S
C1959 H1947 0.930 . S
C1959 C1960 1.399 . S
C1959 C1964 1.399 . S
C1960 C1959 1.399 . S
C1960 C1961 1.376 . S
C1961 H1948 0.930 . S
C1961 C1960 1.376 . S
C1961 C1962 1.388 . S
C1962 H1949 0.930 . S
C1962 C1961 1.388 . S
C1962 C1963 1.390 . S
C1963 C1962 1.390 . S
C1963 C1964 1.394 . S
C1963 C1969 1.465 . S
C1964 C1959 1.399 . S
C1964 C1963 1.394 . S
C1964 C1965 1.516 . S
C1965 C1964 1.516 . S
C1965 C1966 1.502 . S
C1965 C1967 1.561 . S
C1965 C1968 1.526 . S
C1966 H1950 0.959 . S
C1966 H1951 0.959 . S
C1966 H1952 0.961 . S
C1966 C1965 1.502 . S
C1967 H1953 0.960 . S
C1967 H1954 0.961 . S
C1967 H1955 0.959 . S
C1967 C1965 1.561 . S
C1968 C1965 1.526 . S
C1968 C1969 1.396 . S
C1968 C1973 1.390 . S
C1969 C1963 1.465 . S
C1969 C1968 1.396 . S
C1969 C1970 1.399 . S
C1970 H1956 0.929 . S
C1970 C1969 1.399 . S
C1970 C1971 1.385 . S
C1971 H1957 0.931 . S
C1971 C1970 1.385 . S
C1971 C1972 1.389 . S
C1972 C1971 1.389 . S
C1972 C1973 1.387 . S
C1973 H1958 0.930 . S
C1973 C1968 1.390 . S
C1973 C1972 1.387 . S
H1974 C1986 0.930 . S
H1975 C1988 0.930 . S
H1976 C1989 0.930 . S
H1977 C1993 0.959 . S
H1978 C1993 0.959 . S
H1979 C1993 0.961 . S
H1980 C1994 0.960 . S
H1981 C1994 0.961 . S
H1982 C1994 0.959 . S
H1983 C1997 0.929 . S
H1984 C1998 0.931 . S
H1985 C2000 0.930 . S
C1986 H1974 0.930 . S
C1986 C1987 1.399 . S
C1986 C1991 1.399 . S
C1987 C1986 1.399 . S
C1987 C1988 1.376 . S
C1988 H1975 0.930 . S
C1988 C1987 1.376 . S
C1988 C1989 1.388 . S
C1989 H1976 0.930 . S
C1989 C1988 1.388 . S
C1989 C1990 1.390 . S
C1990 C1989 1.390 . S
C1990 C1991 1.394 . S
C1990 C1996 1.465 . S
C1991 C1986 1.399 . S
C1991 C1990 1.394 . S
C1991 C1992 1.516 . S
C1992 C1991 1.516 . S
C1992 C1993 1.502 . S
C1992 C1994 1.561 . S
C1992 C1995 1.526 . S
C1993 H1977 0.959 . S
C1993 H1978 0.959 . S
C1993 H1979 0.961 . S
C1993 C1992 1.502 . S
C1994 H1980 0.960 . S
C1994 H1981 0.961 . S
C1994 H1982 0.959 . S
C1994 C1992 1.561 . S
C1995 C1992 1.526 . S
C1995 C1996 1.396 . S
C1995 C2000 1.390 . S
C1996 C1990 1.465 . S
C1996 C1995 1.396 . S
C1996 C1997 1.399 . S
C1997 H1983 0.929 . S
C1997 C1996 1.399 . S
C1997 C1998 1.385 . S
C1998 H1984 0.931 . S
C1998 C1997 1.385 . S
C1998 C1999 1.389 . S
C1999 C1998 1.389 . S
C1999 C2000 1.387 . S
C2000 H1985 0.930 . S
C2000 C1995 1.390 . S
C2000 C1999 1.387 . S
H2001 C2013 0.930 . S
H2002 C2015 0.930 . S
H2003 C2016 0.930 . S
H2004 C2020 0.959 . S
H2005 C2020 0.959 . S
H2006 C2020 0.961 . S
H2007 C2021 0.960 . S
H2008 C2021 0.961 . S
H2009 C2021 0.959 . S
H2010 C2024 0.929 . S
H2011 C2025 0.931 . S
H2012 C2027 0.930 . S
C2013 H2001 0.930 . S
C2013 C2014 1.399 . S
C2013 C2018 1.399 . S
C2014 C2013 1.399 . S
C2014 C2015 1.376 . S
C2015 H2002 0.930 . S
C2015 C2014 1.376 . S
C2015 C2016 1.388 . S
C2016 H2003 0.930 . S
C2016 C2015 1.388 . S
C2016 C2017 1.390 . S
C2017 C2016 1.390 . S
C2017 C2018 1.394 . S
C2017 C2023 1.465 . S
C2018 C2013 1.399 . S
C2018 C2017 1.394 . S
C2018 C2019 1.516 . S
C2019 C2018 1.516 . S
C2019 C2020 1.502 . S
C2019 C2021 1.561 . S
C2019 C2022 1.526 . S
C2020 H2004 0.959 . S
C2020 H2005 0.959 . S
C2020 H2006 0.961 . S
C2020 C2019 1.502 . S
C2021 H2007 0.960 . S
C2021 H2008 0.961 . S
C2021 H2009 0.959 . S
C2021 C2019 1.561 . S
C2022 C2019 1.526 . S
C2022 C2023 1.396 . S
C2022 C2027 1.390 . S
C2023 C2017 1.465 . S
C2023 C2022 1.396 . S
C2023 C2024 1.399 . S
C2024 H2010 0.929 . S
C2024 C2023 1.399 . S
C2024 C2025 1.385 . S
C2025 H2011 0.931 . S
C2025 C2024 1.385 . S
C2025 C2026 1.389 . S
C2026 C2025 1.389 . S
C2026 C2027 1.387 . S
C2027 H2012 0.930 . S
C2027 C2022 1.390 . S
C2027 C2026 1.387 . S
H2028 C2040 0.930 . S
H2029 C2042 0.930 . S
H2030 C2043 0.930 . S
H2031 C2047 0.959 . S
H2032 C2047 0.959 . S
H2033 C2047 0.961 . S
H2034 C2048 0.960 . S
H2035 C2048 0.961 . S
H2036 C2048 0.959 . S
H2037 C2051 0.929 . S
H2038 C2052 0.931 . S
H2039 C2054 0.930 . S
C2040 H2028 0.930 . S
C2040 C2041 1.399 . S
C2040 C2045 1.399 . S
C2041 C2040 1.399 . S
C2041 C2042 1.376 . S
C2042 H2029 0.930 . S
C2042 C2041 1.376 . S
C2042 C2043 1.388 . S
C2043 H2030 0.930 . S
C2043 C2042 1.388 . S
C2043 C2044 1.390 . S
C2044 C2043 1.390 . S
C2044 C2045 1.394 . S
C2044 C2050 1.465 . S
C2045 C2040 1.399 . S
C2045 C2044 1.394 . S
C2045 C2046 1.516 . S
C2046 C2045 1.516 . S
C2046 C2047 1.502 . S
C2046 C2048 1.561 . S
C2046 C2049 1.526 . S
C2047 H2031 0.959 . S
C2047 H2032 0.959 . S
C2047 H2033 0.961 . S
C2047 C2046 1.502 . S
C2048 H2034 0.960 . S
C2048 H2035 0.961 . S
C2048 H2036 0.959 . S
C2048 C2046 1.561 . S
C2049 C2046 1.526 . S
C2049 C2050 1.396 . S
C2049 C2054 1.390 . S
C2050 C2044 1.465 . S
C2050 C2049 1.396 . S
C2050 C2051 1.399 . S
C2051 H2037 0.929 . S
C2051 C2050 1.399 . S
C2051 C2052 1.385 . S
C2052 H2038 0.931 . S
C2052 C2051 1.385 . S
C2052 C2053 1.389 . S
C2053 C2052 1.389 . S
C2053 C2054 1.387 . S
C2054 H2039 0.930 . S
C2054 C2049 1.390 . S
C2054 C2053 1.387 . S
H2055 C2067 0.930 . S
H2056 C2069 0.930 . S
H2057 C2070 0.930 . S
H2058 C2074 0.959 . S
H2059 C2074 0.959 . S
H2060 C2074 0.961 . S
H2061 C2075 0.960 . S
H2062 C2075 0.961 . S
H2063 C2075 0.959 . S
H2064 C2078 0.929 . S
H2065 C2079 0.931 . S
H2066 C2081 0.930 . S
C2067 H2055 0.930 . S
C2067 C2068 1.399 . S
C2067 C2072 1.399 . S
C2068 C2067 1.399 . S
C2068 C2069 1.376 . S
C2069 H2056 0.930 . S
C2069 C2068 1.376 . S
C2069 C2070 1.388 . S
C2070 H2057 0.930 . S
C2070 C2069 1.388 . S
C2070 C2071 1.390 . S
C2071 C2070 1.390 . S
C2071 C2072 1.394 . S
C2071 C2077 1.465 . S
C2072 C2067 1.399 . S
C2072 C2071 1.394 . S
C2072 C2073 1.516 . S
C2073 C2072 1.516 . S
C2073 C2074 1.502 . S
C2073 C2075 1.561 . S
C2073 C2076 1.526 . S
C2074 H2058 0.959 . S
C2074 H2059 0.959 . S
C2074 H2060 0.961 . S
C2074 C2073 1.502 . S
C2075 H2061 0.960 . S
C2075 H2062 0.961 . S
C2075 H2063 0.959 . S
C2075 C2073 1.561 . S
C2076 C2073 1.526 . S
C2076 C2077 1.396 . S
C2076 C2081 1.390 . S
C2077 C2071 1.465 . S
C2077 C2076 1.396 . S
C2077 C2078 1.399 . S
C2078 H2064 0.929 . S
C2078 C2077 1.399 . S
C2078 C2079 1.385 . S
C2079 H2065 0.931 . S
C2079 C2078 1.385 . S
C2079 C2080 1.389 . S
C2080 C2079 1.389 . S
C2080 C2081 1.387 . S
C2081 H2066 0.930 . S
C2081 C2076 1.390 . S
C2081 C2080 1.387 . S
H2082 C2094 0.930 . S
H2083 C2096 0.930 . S
H2084 C2097 0.930 . S
H2085 C2101 0.959 . S
H2086 C2101 0.959 . S
H2087 C2101 0.961 . S
H2088 C2102 0.960 . S
H2089 C2102 0.961 . S
H2090 C2102 0.959 . S
H2091 C2105 0.929 . S
H2092 C2106 0.931 . S
H2093 C2108 0.930 . S
C2094 H2082 0.930 . S
C2094 C2095 1.399 . S
C2094 C2099 1.399 . S
C2095 C2094 1.399 . S
C2095 C2096 1.376 . S
C2096 H2083 0.930 . S
C2096 C2095 1.376 . S
C2096 C2097 1.388 . S
C2097 H2084 0.930 . S
C2097 C2096 1.388 . S
C2097 C2098 1.390 . S
C2098 C2097 1.390 . S
C2098 C2099 1.394 . S
C2098 C2104 1.465 . S
C2099 C2094 1.399 . S
C2099 C2098 1.394 . S
C2099 C2100 1.516 . S
C2100 C2099 1.516 . S
C2100 C2101 1.502 . S
C2100 C2102 1.561 . S
C2100 C2103 1.526 . S
C2101 H2085 0.959 . S
C2101 H2086 0.959 . S
C2101 H2087 0.961 . S
C2101 C2100 1.502 . S
C2102 H2088 0.960 . S
C2102 H2089 0.961 . S
C2102 H2090 0.959 . S
C2102 C2100 1.561 . S
C2103 C2100 1.526 . S
C2103 C2104 1.396 . S
C2103 C2108 1.390 . S
C2104 C2098 1.465 . S
C2104 C2103 1.396 . S
C2104 C2105 1.399 . S
C2105 H2091 0.929 . S
C2105 C2104 1.399 . S
C2105 C2106 1.385 . S
C2106 H2092 0.931 . S
C2106 C2105 1.385 . S
C2106 C2107 1.389 . S
C2107 C2106 1.389 . S
C2107 C2108 1.387 . S
C2108 H2093 0.930 . S
C2108 C2103 1.390 . S
C2108 C2107 1.387 . S
H2109 C2121 0.930 . S
H2110 C2123 0.930 . S
H2111 C2124 0.930 . S
H2112 C2128 0.959 . S
H2113 C2128 0.959 . S
H2114 C2128 0.961 . S
H2115 C2129 0.960 . S
H2116 C2129 0.961 . S
H2117 C2129 0.959 . S
H2118 C2132 0.929 . S
H2119 C2133 0.931 . S
H2120 C2135 0.930 . S
C2121 H2109 0.930 . S
C2121 C2122 1.399 . S
C2121 C2126 1.399 . S
C2122 C2121 1.399 . S
C2122 C2123 1.376 . S
C2123 H2110 0.930 . S
C2123 C2122 1.376 . S
C2123 C2124 1.388 . S
C2124 H2111 0.930 . S
C2124 C2123 1.388 . S
C2124 C2125 1.390 . S
C2125 C2124 1.390 . S
C2125 C2126 1.394 . S
C2125 C2131 1.465 . S
C2126 C2121 1.399 . S
C2126 C2125 1.394 . S
C2126 C2127 1.516 . S
C2127 C2126 1.516 . S
C2127 C2128 1.502 . S
C2127 C2129 1.561 . S
C2127 C2130 1.526 . S
C2128 H2112 0.959 . S
C2128 H2113 0.959 . S
C2128 H2114 0.961 . S
C2128 C2127 1.502 . S
C2129 H2115 0.960 . S
C2129 H2116 0.961 . S
C2129 H2117 0.959 . S
C2129 C2127 1.561 . S
C2130 C2127 1.526 . S
C2130 C2131 1.396 . S
C2130 C2135 1.390 . S
C2131 C2125 1.465 . S
C2131 C2130 1.396 . S
C2131 C2132 1.399 . S
C2132 H2118 0.929 . S
C2132 C2131 1.399 . S
C2132 C2133 1.385 . S
C2133 H2119 0.931 . S
C2133 C2132 1.385 . S
C2133 C2134 1.389 . S
C2134 C2133 1.389 . S
C2134 C2135 1.387 . S
C2135 H2120 0.930 . S
C2135 C2130 1.390 . S
C2135 C2134 1.387 . S
H2136 C2148 0.930 . S
H2137 C2150 0.930 . S
H2138 C2151 0.930 . S
H2139 C2155 0.959 . S
H2140 C2155 0.959 . S
H2141 C2155 0.961 . S
H2142 C2156 0.960 . S
H2143 C2156 0.961 . S
H2144 C2156 0.959 . S
H2145 C2159 0.929 . S
H2146 C2160 0.931 . S
H2147 C2162 0.930 . S
C2148 H2136 0.930 . S
C2148 C2149 1.399 . S
C2148 C2153 1.399 . S
C2149 C2148 1.399 . S
C2149 C2150 1.376 . S
C2150 H2137 0.930 . S
C2150 C2149 1.376 . S
C2150 C2151 1.388 . S
C2151 H2138 0.930 . S
C2151 C2150 1.388 . S
C2151 C2152 1.390 . S
C2152 C2151 1.390 . S
C2152 C2153 1.394 . S
C2152 C2158 1.465 . S
C2153 C2148 1.399 . S
C2153 C2152 1.394 . S
C2153 C2154 1.516 . S
C2154 C2153 1.516 . S
C2154 C2155 1.502 . S
C2154 C2156 1.561 . S
C2154 C2157 1.526 . S
C2155 H2139 0.959 . S
C2155 H2140 0.959 . S
C2155 H2141 0.961 . S
C2155 C2154 1.502 . S
C2156 H2142 0.960 . S
C2156 H2143 0.961 . S
C2156 H2144 0.959 . S
C2156 C2154 1.561 . S
C2157 C2154 1.526 . S
C2157 C2158 1.396 . S
C2157 C2162 1.390 . S
C2158 C2152 1.465 . S
C2158 C2157 1.396 . S
C2158 C2159 1.399 . S
C2159 H2145 0.929 . S
C2159 C2158 1.399 . S
C2159 C2160 1.385 . S
C2160 H2146 0.931 . S
C2160 C2159 1.385 . S
C2160 C2161 1.389 . S
C2161 C2160 1.389 . S
C2161 C2162 1.387 . S
C2162 H2147 0.930 . S
C2162 C2157 1.390 . S
C2162 C2161 1.387 . S
H2163 C2175 0.930 . S
H2164 C2177 0.930 . S
H2165 C2178 0.930 . S
H2166 C2182 0.959 . S
H2167 C2182 0.959 . S
H2168 C2182 0.961 . S
H2169 C2183 0.960 . S
H2170 C2183 0.961 . S
H2171 C2183 0.959 . S
H2172 C2186 0.929 . S
H2173 C2187 0.931 . S
H2174 C2189 0.930 . S
C2175 H2163 0.930 . S
C2175 C2176 1.399 . S
C2175 C2180 1.399 . S
C2176 C2175 1.399 . S
C2176 C2177 1.376 . S
C2177 H2164 0.930 . S
C2177 C2176 1.376 . S
C2177 C2178 1.388 . S
C2178 H2165 0.930 . S
C2178 C2177 1.388 . S
C2178 C2179 1.390 . S
C2179 C2178 1.390 . S
C2179 C2180 1.394 . S
C2179 C2185 1.465 . S
C2180 C2175 1.399 . S
C2180 C2179 1.394 . S
C2180 C2181 1.516 . S
C2181 C2180 1.516 . S
C2181 C2182 1.502 . S
C2181 C2183 1.561 . S
C2181 C2184 1.526 . S
C2182 H2166 0.959 . S
C2182 H2167 0.959 . S
C2182 H2168 0.961 . S
C2182 C2181 1.502 . S
C2183 H2169 0.960 . S
C2183 H2170 0.961 . S
C2183 H2171 0.959 . S
C2183 C2181 1.561 . S
C2184 C2181 1.526 . S
C2184 C2185 1.396 . S
C2184 C2189 1.390 . S
C2185 C2179 1.465 . S
C2185 C2184 1.396 . S
C2185 C2186 1.399 . S
C2186 H2172 0.929 . S
C2186 C2185 1.399 . S
C2186 C2187 1.385 . S
C2187 H2173 0.931 . S
C2187 C2186 1.385 . S
C2187 C2188 1.389 . S
C2188 C2187 1.389 . S
C2188 C2189 1.387 . S
C2189 H2174 0.930 . S
C2189 C2184 1.390 . S
C2189 C2188 1.387 . S
H2190 C2202 0.930 . S
H2191 C2204 0.930 . S
H2192 C2205 0.930 . S
H2193 C2209 0.959 . S
H2194 C2209 0.959 . S
H2195 C2209 0.961 . S
H2196 C2210 0.960 . S
H2197 C2210 0.961 . S
H2198 C2210 0.959 . S
H2199 C2213 0.929 . S
H2200 C2214 0.931 . S
H2201 C2216 0.930 . S
C2202 H2190 0.930 . S
C2202 C2203 1.399 . S
C2202 C2207 1.399 . S
C2203 C2202 1.399 . S
C2203 C2204 1.376 . S
C2204 H2191 0.930 . S
C2204 C2203 1.376 . S
C2204 C2205 1.388 . S
C2205 H2192 0.930 . S
C2205 C2204 1.388 . S
C2205 C2206 1.390 . S
C2206 C2205 1.390 . S
C2206 C2207 1.394 . S
C2206 C2212 1.465 . S
C2207 C2202 1.399 . S
C2207 C2206 1.394 . S
C2207 C2208 1.516 . S
C2208 C2207 1.516 . S
C2208 C2209 1.502 . S
C2208 C2210 1.561 . S
C2208 C2211 1.526 . S
C2209 H2193 0.959 . S
C2209 H2194 0.959 . S
C2209 H2195 0.961 . S
C2209 C2208 1.502 . S
C2210 H2196 0.960 . S
C2210 H2197 0.961 . S
C2210 H2198 0.959 . S
C2210 C2208 1.561 . S
C2211 C2208 1.526 . S
C2211 C2212 1.396 . S
C2211 C2216 1.390 . S
C2212 C2206 1.465 . S
C2212 C2211 1.396 . S
C2212 C2213 1.399 . S
C2213 H2199 0.929 . S
C2213 C2212 1.399 . S
C2213 C2214 1.385 . S
C2214 H2200 0.931 . S
C2214 C2213 1.385 . S
C2214 C2215 1.389 . S
C2215 C2214 1.389 . S
C2215 C2216 1.387 . S
C2216 H2201 0.930 . S
C2216 C2211 1.390 . S
C2216 C2215 1.387 . S
H2217 C2229 0.930 . S
H2218 C2231 0.930 . S
H2219 C2232 0.930 . S
H2220 C2236 0.959 . S
H2221 C2236 0.959 . S
H2222 C2236 0.961 . S
H2223 C2237 0.960 . S
H2224 C2237 0.961 . S
H2225 C2237 0.959 . S
H2226 C2240 0.929 . S
H2227 C2241 0.931 . S
H2228 C2243 0.930 . S
C2229 H2217 0.930 . S
C2229 C2230 1.399 . S
C2229 C2234 1.399 . S
C2230 C2229 1.399 . S
C2230 C2231 1.376 . S
C2231 H2218 0.930 . S
C2231 C2230 1.376 . S
C2231 C2232 1.388 . S
C2232 H2219 0.930 . S
C2232 C2231 1.388 . S
C2232 C2233 1.390 . S
C2233 C2232 1.390 . S
C2233 C2234 1.394 . S
C2233 C2239 1.465 . S
C2234 C2229 1.399 . S
C2234 C2233 1.394 . S
C2234 C2235 1.516 . S
C2235 C2234 1.516 . S
C2235 C2236 1.502 . S
C2235 C2237 1.561 . S
C2235 C2238 1.526 . S
C2236 H2220 0.959 . S
C2236 H2221 0.959 . S
C2236 H2222 0.961 . S
C2236 C2235 1.502 . S
C2237 H2223 0.960 . S
C2237 H2224 0.961 . S
C2237 H2225 0.959 . S
C2237 C2235 1.561 . S
C2238 C2235 1.526 . S
C2238 C2239 1.396 . S
C2238 C2243 1.390 . S
C2239 C2233 1.465 . S
C2239 C2238 1.396 . S
C2239 C2240 1.399 . S
C2240 H2226 0.929 . S
C2240 C2239 1.399 . S
C2240 C2241 1.385 . S
C2241 H2227 0.931 . S
C2241 C2240 1.385 . S
C2241 C2242 1.389 . S
C2242 C2241 1.389 . S
C2242 C2243 1.387 . S
C2243 H2228 0.930 . S
C2243 C2238 1.390 . S
C2243 C2242 1.387 . S
C973 C348 1.251 . S
C961 N2 1.360 . S
C1000 C435 2.144 . S
C988 C7 2.131 . S
C1027 C507 1.219 . S
C1015 N12 1.427 . S
C1042 C16 1.946 . S
C1054 C594 1.935 . S
C1081 C678 2.174 . S
C1069 C30 2.166 1_565 S
C1108 C768 1.122 . S
C1096 N35 1.211 . S
C1123 C39 2.030 . S
C1135 C855 2.000 . S
C1162 C927 1.213 . S
C1150 N25 1.145 . S
C1189 C343 1.148 . S
C1177 N58 1.156 . S
C1204 N81 1.871 . S
C1216 C416 1.844 . S
C1243 C519 1.155 . S
C1231 N104 1.166 . S
C1258 N127 1.145 . S
C1270 C600 0.911 . S
C1297 C684 0.901 . S
C1285 N48 0.902 . S
C1324 C763 1.431 . S
C1312 N71 1.442 1_556 S
C1339 N94 1.398 . S
C1351 C836 1.419 . S
C1378 C939 1.544 . S
C1366 N117 1.531 . S
C1393 C85 2.101 . S
C1405 C342 2.112 . S
C1420 C122 2.363 . S
C1432 C679 2.340 . S
C1447 C53 1.736 . S
C1459 C762 1.805 . S
C1486 C843 1.258 . S
C1474 C76 1.447 1_655 S
C1513 C920 1.707 . S
C1501 C99 1.841 . S
C1540 C500 1.934 . S
C1528 C131 1.955 . S
C1567 C595 1.882 . S
C1555 C62 1.928 1_565 S
C1582 C108 1.176 . S
C1594 C423 0.964 . S
C1621 C936 1.143 . S
C1609 N140 1.350 . S
C1636 C145 2.146 . S
C1648 C687 2.112 . S
C1675 C759 1.207 . S
C1663 N150 1.235 . S
C1690 C154 1.947 . S
C1702 C846 1.936 . S
C1729 C426 2.165 . S
C1717 C168 2.190 . S
C1744 N173 1.154 . S
C1756 C516 1.101 . S
C1783 C603 2.025 . S
C1771 C177 2.021 . S
C1810 C339 1.213 . S
C1798 N163 1.175 . S
C1837 C931 1.562 . S
C1825 C200 1.551 . S
C1864 C668 2.140 . S
C1852 N219 2.167 . S
C1879 N242 1.327 . S
C1891 C771 1.474 . S
C1918 C852 1.119 . S
C1906 C269 1.468 . S
C1945 C432 0.900 . S
C1933 C191 1.136 . S
C1960 N209 1.705 . S
C1972 C511 1.702 . S
C1987 N232 1.713 . S
C1999 C584 1.728 . S
C2014 C260 2.017 . S
C2026 C351 2.018 . S
C2041 C223 1.792 . S
C2053 C930 1.789 . S
C2068 N255 1.941 . S
C2080 C427 1.945 . S
C2095 N186 1.303 . S
C2107 C510 1.428 . S
C2134 C591 0.891 . S
C2122 C214 1.170 . S
C2161 C332 1.473 . S
C2149 C237 1.484 . S
C2188 C752 1.469 . S
C2176 N265 1.458 . S
C2215 C847 1.494 . S
C2203 N196 1.552 . S
C2242 C675 0.814 . S
C2230 C246 0.849 . S
