# Generated by pormake.
# Topology ocu, (6,8)-cn, num edge types: 1
# Building blocks:
#     Node 0, Type 0, BuildingBlock: PAMTUU_clean_sbu_0, # of connection points: 6
#     Node 1, Type 0, BuildingBlock: PAMTUU_clean_sbu_0, # of connection points: 6
#     Node 2, Type 0, BuildingBlock: PAMTUU_clean_sbu_0, # of connection points: 6
#     Node 3, Type 0, BuildingBlock: PAMTUU_clean_sbu_0, # of connection points: 6
#     Node 4, Type 0, BuildingBlock: PAMTUU_clean_sbu_0, # of connection points: 6
#     Node 5, Type 0, BuildingBlock: PAMTUU_clean_sbu_0, # of connection points: 6
#     Node 6, Type 0, BuildingBlock: PAMTUU_clean_sbu_0, # of connection points: 6
#     Node 7, Type 0, BuildingBlock: PAMTUU_clean_sbu_0, # of connection points: 6
#     Node 8, Type 1, BuildingBlock: VETTIZ_charged_sbu_0, # of connection points: 8
#     Node 9, Type 1, BuildingBlock: VETTIZ_charged_sbu_0, # of connection points: 8
#     Node 10, Type 1, BuildingBlock: VETTIZ_charged_sbu_0, # of connection points: 8
#     Node 11, Type 1, BuildingBlock: VETTIZ_charged_sbu_0, # of connection points: 8
#     Node 12, Type 1, BuildingBlock: VETTIZ_charged_sbu_0, # of connection points: 8
#     Node 13, Type 1, BuildingBlock: VETTIZ_charged_sbu_0, # of connection points: 8
#     Edge 14, Type (0, 1), BuildingBlock: EZIPEK_clean_linker_0, # of connection points: 2
#     Edge 15, Type (0, 1), BuildingBlock: EZIPEK_clean_linker_0, # of connection points: 2
#     Edge 16, Type (0, 1), BuildingBlock: EZIPEK_clean_linker_0, # of connection points: 2
#     Edge 17, Type (0, 1), BuildingBlock: EZIPEK_clean_linker_0, # of connection points: 2
#     Edge 18, Type (0, 1), BuildingBlock: EZIPEK_clean_linker_0, # of connection points: 2
#     Edge 19, Type (0, 1), BuildingBlock: EZIPEK_clean_linker_0, # of connection points: 2
#     Edge 20, Type (0, 1), BuildingBlock: EZIPEK_clean_linker_0, # of connection points: 2
#     Edge 21, Type (0, 1), BuildingBlock: EZIPEK_clean_linker_0, # of connection points: 2
#     Edge 22, Type (0, 1), BuildingBlock: EZIPEK_clean_linker_0, # of connection points: 2
#     Edge 23, Type (0, 1), BuildingBlock: EZIPEK_clean_linker_0, # of connection points: 2
#     Edge 24, Type (0, 1), BuildingBlock: EZIPEK_clean_linker_0, # of connection points: 2
#     Edge 25, Type (0, 1), BuildingBlock: EZIPEK_clean_linker_0, # of connection points: 2
#     Edge 26, Type (0, 1), BuildingBlock: EZIPEK_clean_linker_0, # of connection points: 2
#     Edge 27, Type (0, 1), BuildingBlock: EZIPEK_clean_linker_0, # of connection points: 2
#     Edge 28, Type (0, 1), BuildingBlock: EZIPEK_clean_linker_0, # of connection points: 2
#     Edge 29, Type (0, 1), BuildingBlock: EZIPEK_clean_linker_0, # of connection points: 2
#     Edge 30, Type (0, 1), BuildingBlock: EZIPEK_clean_linker_0, # of connection points: 2
#     Edge 31, Type (0, 1), BuildingBlock: EZIPEK_clean_linker_0, # of connection points: 2
#     Edge 32, Type (0, 1), BuildingBlock: EZIPEK_clean_linker_0, # of connection points: 2
#     Edge 33, Type (0, 1), BuildingBlock: EZIPEK_clean_linker_0, # of connection points: 2
#     Edge 34, Type (0, 1), BuildingBlock: EZIPEK_clean_linker_0, # of connection points: 2
#     Edge 35, Type (0, 1), BuildingBlock: EZIPEK_clean_linker_0, # of connection points: 2
#     Edge 36, Type (0, 1), BuildingBlock: EZIPEK_clean_linker_0, # of connection points: 2
#     Edge 37, Type (0, 1), BuildingBlock: EZIPEK_clean_linker_0, # of connection points: 2
#     Edge 38, Type (0, 1), BuildingBlock: EZIPEK_clean_linker_0, # of connection points: 2
#     Edge 39, Type (0, 1), BuildingBlock: EZIPEK_clean_linker_0, # of connection points: 2
#     Edge 40, Type (0, 1), BuildingBlock: EZIPEK_clean_linker_0, # of connection points: 2
#     Edge 41, Type (0, 1), BuildingBlock: EZIPEK_clean_linker_0, # of connection points: 2
#     Edge 42, Type (0, 1), BuildingBlock: EZIPEK_clean_linker_0, # of connection points: 2
#     Edge 43, Type (0, 1), BuildingBlock: EZIPEK_clean_linker_0, # of connection points: 2
#     Edge 44, Type (0, 1), BuildingBlock: EZIPEK_clean_linker_0, # of connection points: 2
#     Edge 45, Type (0, 1), BuildingBlock: EZIPEK_clean_linker_0, # of connection points: 2
#     Edge 46, Type (0, 1), BuildingBlock: EZIPEK_clean_linker_0, # of connection points: 2
#     Edge 47, Type (0, 1), BuildingBlock: EZIPEK_clean_linker_0, # of connection points: 2
#     Edge 48, Type (0, 1), BuildingBlock: EZIPEK_clean_linker_0, # of connection points: 2
#     Edge 49, Type (0, 1), BuildingBlock: EZIPEK_clean_linker_0, # of connection points: 2
#     Edge 50, Type (0, 1), BuildingBlock: EZIPEK_clean_linker_0, # of connection points: 2
#     Edge 51, Type (0, 1), BuildingBlock: EZIPEK_clean_linker_0, # of connection points: 2
#     Edge 52, Type (0, 1), BuildingBlock: EZIPEK_clean_linker_0, # of connection points: 2
#     Edge 53, Type (0, 1), BuildingBlock: EZIPEK_clean_linker_0, # of connection points: 2
#     Edge 54, Type (0, 1), BuildingBlock: EZIPEK_clean_linker_0, # of connection points: 2
#     Edge 55, Type (0, 1), BuildingBlock: EZIPEK_clean_linker_0, # of connection points: 2
#     Edge 56, Type (0, 1), BuildingBlock: EZIPEK_clean_linker_0, # of connection points: 2
#     Edge 57, Type (0, 1), BuildingBlock: EZIPEK_clean_linker_0, # of connection points: 2
#     Edge 58, Type (0, 1), BuildingBlock: EZIPEK_clean_linker_0, # of connection points: 2
#     Edge 59, Type (0, 1), BuildingBlock: EZIPEK_clean_linker_0, # of connection points: 2
#     Edge 60, Type (0, 1), BuildingBlock: EZIPEK_clean_linker_0, # of connection points: 2
#     Edge 61, Type (0, 1), BuildingBlock: EZIPEK_clean_linker_0, # of connection points: 2
# Relax obj value: 0.178
# Max RMSD: 0.243
# Mean RMSD: 0.154
data_MOF--net-ocu--node1-PAMTUU_clean_sbu_0--node2-VETTIZ_charged_sbu_0--edge1-EZIPEK_clean_linker_0
_symmetry_space_group_name_H-M    P1
_symmetry_Int_Tables_number       1
_symmetry_cell_setting            triclinic
loop_
_symmetry_equiv_pos_as_xyz
'x, y, z'
_cell_length_a     29.416642
_cell_length_b     31.627367
_cell_length_c     30.962505
_cell_angle_alpha  83.693484
_cell_angle_beta   96.340116
_cell_angle_gamma 106.63247
loop_
_atom_site_label
_atom_site_type_symbol
_atom_site_fract_x
_atom_site_fract_y
_atom_site_fract_z
_atom_type_partial_charge
Tb0 Tb 0.26257 0.28542 0.25519 0.0
Tb1 Tb 0.34474 0.31663 0.31822 0.0
C2 C 0.26031 0.23132 0.34446 0.0
C3 C 0.17786 0.32853 0.20145 0.0
C4 C 0.15481 0.40678 0.21272 0.0
C5 C 0.12114 0.37215 0.19164 0.0
C6 C 0.13219 0.3324 0.18717 0.0
C7 C 0.21097 0.36392 0.22112 0.0
C8 C 0.19835 0.40058 0.23011 0.0
C9 C 0.19241 0.28755 0.20248 0.0
O10 O 0.23436 0.32496 0.30222 0.0
O11 O 0.3006 0.35761 0.34248 0.0
O12 O 0.34734 0.37656 0.27627 0.0
O13 O 0.31876 0.33557 0.22056 0.0
O14 O 0.3778 0.31869 0.38139 0.0
O15 O 0.41665 0.35257 0.32665 0.0
O16 O 0.37082 0.27021 0.27534 0.0
O17 O 0.30505 0.24253 0.23084 0.0
O18 O 0.24982 0.22713 0.30242 0.0
O19 O 0.29387 0.26614 0.35715 0.0
C20 C 0.25411 0.35341 0.33317 0.0
O21 O 0.23472 0.29381 0.18989 0.0
O22 O 0.18813 0.2637 0.23957 0.0
C23 C 0.34369 0.37348 0.23467 0.0
C24 C 0.45656 0.31974 0.3845 0.0
C25 C 0.50073 0.25582 0.41891 0.0
C26 C 0.4873 0.28094 0.44702 0.0
C27 C 0.46543 0.31321 0.42975 0.0
C28 C 0.47473 0.29772 0.35648 0.0
C29 C 0.49697 0.26571 0.37377 0.0
C30 C 0.41924 0.34034 0.36819 0.0
C31 C 0.35112 0.24374 0.24184 0.0
H32 H 0.0869 0.37618 0.17821 0.0
H33 H 0.10579 0.30545 0.17221 0.0
H34 H 0.24687 0.36279 0.23109 0.0
H35 H 0.22439 0.42608 0.24742 0.0
H36 H 0.49101 0.27363 0.48205 0.0
H37 H 0.45152 0.33007 0.45161 0.0
H38 H 0.46844 0.3026 0.32146 0.0
H39 H 0.50824 0.24669 0.3521 0.0
Tb40 Tb 0.78009 0.32682 0.33694 0.0
Tb41 Tb 0.82118 0.26217 0.28629 0.0
C42 C 0.88221 0.31763 0.3612 0.0
C43 C 0.69265 0.37586 0.36518 0.0
C44 C 0.6261 0.38952 0.29861 0.0
C45 C 0.6534 0.42525 0.32182 0.0
C46 C 0.68695 0.4184 0.35525 0.0
C47 C 0.65735 0.33931 0.3491 0.0
C48 C 0.62427 0.3462 0.31523 0.0
C49 C 0.74124 0.372 0.37525 0.0
O50 O 0.80083 0.36345 0.27317 0.0
O51 O 0.85459 0.32777 0.25799 0.0
O52 O 0.76151 0.27881 0.2484 0.0
O53 O 0.7193 0.28254 0.30367 0.0
O54 O 0.87375 0.24276 0.25957 0.0
O55 O 0.79926 0.20869 0.24714 0.0
O56 O 0.78102 0.21916 0.33759 0.0
O57 O 0.78626 0.27158 0.38465 0.0
O58 O 0.85529 0.34462 0.35413 0.0
O59 O 0.87188 0.27961 0.34337 0.0
C60 C 0.83594 0.36115 0.25083 0.0
O61 O 0.74494 0.33313 0.39053 0.0
O62 O 0.76902 0.38836 0.34394 0.0
C63 C 0.72068 0.27143 0.26464 0.0
C64 C 0.85355 0.16641 0.25956 0.0
C65 C 0.9032 0.11728 0.31504 0.0
C66 C 0.91816 0.13241 0.27321 0.0
C67 C 0.89344 0.15769 0.24549 0.0
C68 C 0.83354 0.14323 0.29733 0.0
C69 C 0.85854 0.11886 0.3252 0.0
C70 C 0.84292 0.20804 0.24419 0.0
C71 C 0.77732 0.22986 0.37663 0.0
H72 H 0.65449 0.45893 0.30948 0.0
H73 H 0.71333 0.4469 0.36776 0.0
H74 H 0.66009 0.30592 0.35717 0.0
H75 H 0.60278 0.31832 0.29792 0.0
H76 H 0.95237 0.13067 0.26491 0.0
H77 H 0.909 0.17514 0.21619 0.0
H78 H 0.80228 0.14888 0.30845 0.0
H79 H 0.84614 0.10651 0.35712 0.0
Tb80 Tb 0.86548 0.81333 0.27286 0.0
Tb81 Tb 0.78614 0.7644 0.32886 0.0
C82 C 0.86229 0.84486 0.36552 0.0
C83 C 0.96891 0.82844 0.21987 0.0
C84 C 1.0283 0.77919 0.20172 0.0
C85 C 1.04622 0.82537 0.20277 0.0
C86 C 1.0164 0.85012 0.21222 0.0
C87 C 0.95251 0.7823 0.22122 0.0
C88 C 0.98195 0.75798 0.21291 0.0
C89 C 0.93565 0.85146 0.22991 0.0
O90 O 0.89626 0.75474 0.30509 0.0
O91 O 0.84395 0.72824 0.35614 0.0
O92 O 0.78639 0.71617 0.28614 0.0
O93 O 0.81926 0.76415 0.23126 0.0
O94 O 0.76435 0.73252 0.38851 0.0
O95 O 0.71356 0.73106 0.3324 0.0
O96 O 0.7483 0.81095 0.28139 0.0
O97 O 0.81299 0.85673 0.25147 0.0
O98 O 0.88809 0.84068 0.33554 0.0
O99 O 0.81718 0.82322 0.36438 0.0
C100 C 0.88453 0.72612 0.34081 0.0
O101 O 0.89262 0.83655 0.21201 0.0
O102 O 0.93549 0.85475 0.27124 0.0
C103 C 0.7933 0.72525 0.24535 0.0
C104 C 0.69156 0.74073 0.40086 0.0
C105 C 0.67099 0.80284 0.44634 0.0
C106 C 0.65156 0.79714 0.40333 0.0
C107 C 0.66191 0.76615 0.38047 0.0
C108 C 0.70491 0.7422 0.44578 0.0
C109 C 0.69576 0.77406 0.46821 0.0
C110 C 0.71943 0.72342 0.37469 0.0
C111 C 0.76554 0.84798 0.25447 0.0
H112 H 0.08191 0.84223 0.19392 0.0
H113 H 1.02973 0.88578 0.21222 0.0
H114 H 0.91599 0.76486 0.22697 0.0
H115 H 0.96674 0.72265 0.21094 0.0
H116 H 0.63137 0.81878 0.38667 0.0
H117 H 0.65046 0.76515 0.34602 0.0
H118 H 0.72718 0.72234 0.46224 0.0
H119 H 0.71003 0.77784 0.5018 0.0
Tb120 Tb 0.35002 0.75874 0.30988 0.0
Tb121 Tb 0.29013 0.83138 0.3036 0.0
C122 C 0.26244 0.74392 0.36294 0.0
C123 C 0.43656 0.70933 0.27946 0.0
C124 C 0.49737 0.71552 0.21428 0.0
C125 C 0.46803 0.67417 0.22917 0.0
C126 C 0.43789 0.67108 0.26162 0.0
C127 C 0.46672 0.75073 0.26526 0.0
C128 C 0.49729 0.75376 0.23293 0.0
C129 C 0.39978 0.70648 0.30865 0.0
O130 O 0.31243 0.7585 0.24397 0.0
O131 O 0.24968 0.78211 0.25941 0.0
O132 O 0.33764 0.84686 0.25291 0.0
O133 O 0.39728 0.82116 0.28825 0.0
O134 O 0.23001 0.8527 0.31008 0.0
O135 O 0.29189 0.89673 0.28147 0.0
O136 O 0.34921 0.85204 0.35378 0.0
O137 O 0.36484 0.78517 0.37368 0.0
O138 O 0.28498 0.72585 0.33942 0.0
O139 O 0.26581 0.78632 0.35936 0.0
C140 C 0.26883 0.76226 0.2342 0.0
O141 O 0.40944 0.73736 0.33542 0.0
O142 O 0.35677 0.69962 0.28982 0.0
C143 C 0.38264 0.84975 0.26119 0.0
C144 C 0.2567 0.92463 0.33152 0.0
C145 C 0.25861 0.96271 0.40881 0.0
C146 C 0.30057 0.95699 0.3965 0.0
C147 C 0.29967 0.93807 0.35787 0.0
C148 C 0.21581 0.93399 0.34214 0.0
C149 C 0.2168 0.95311 0.38076 0.0
C150 C 0.25253 0.8937 0.29867 0.0
C151 C 0.3698 0.82653 0.38088 0.0
H152 H 0.46784 0.64427 0.21494 0.0
H153 H 0.41451 0.63909 0.27175 0.0
H154 H 0.46581 0.78086 0.27828 0.0
H155 H 0.51986 0.78574 0.22183 0.0
H156 H 0.33286 0.96405 0.41821 0.0
H157 H 0.33175 0.93108 0.35037 0.0
H158 H 0.18244 0.92354 0.32236 0.0
H159 H 0.18414 0.95734 0.39038 0.0
Tb160 Tb 0.28705 0.82059 0.78826 0.0
Tb161 Tb 0.35049 0.75904 0.82146 0.0
C162 C 0.36227 0.84383 0.87587 0.0
C163 C 0.22592 0.90794 0.7833 0.0
C164 C 0.16898 0.96024 0.7991 0.0
C165 C 0.16619 0.92004 0.82449 0.0
C166 C 0.19408 0.8934 0.81597 0.0
C167 C 0.23631 0.95186 0.76578 0.0
C168 C 0.20869 0.97839 0.77442 0.0
C169 C 0.2436 0.87707 0.76275 0.0
O170 O 0.33669 0.82738 0.73987 0.0
O171 O 0.39323 0.82106 0.79222 0.0
O172 O 0.31087 0.72655 0.7623 0.0
O173 O 0.25418 0.76382 0.74686 0.0
O174 O 0.40048 0.73222 0.8003 0.0
O175 O 0.38093 0.71904 0.8672 0.0
O176 O 0.2821 0.72278 0.84489 0.0
O177 O 0.25123 0.78175 0.84265 0.0
O178 O 0.33441 0.85681 0.84326 0.0
O179 O 0.36888 0.80403 0.87581 0.0
C180 C 0.38148 0.83556 0.7529 0.0
O181 O 0.28974 0.88559 0.76396 0.0
O182 O 0.22228 0.83497 0.77016 0.0
C183 C 0.27133 0.73091 0.73948 0.0
C184 C 0.46265 0.73878 0.85527 0.0
C185 C 0.55885 0.76505 0.88604 0.0
C186 C 0.52311 0.76529 0.91296 0.0
C187 C 0.47544 0.75134 0.89791 0.0
C188 C 0.49809 0.74715 0.82611 0.0
C189 C 0.54592 0.76172 0.84111 0.0
C190 C 0.41255 0.71952 0.84039 0.0
C191 C 0.24997 0.74056 0.85503 0.0
H192 H 0.13837 0.90651 0.84632 0.0
H193 H 0.18746 0.86016 0.83178 0.0
H194 H 0.26226 0.9642 0.74184 0.0
H195 H 0.21388 1.01019 0.7558 0.0
H196 H 0.53091 0.77051 0.94726 0.0
H197 H 0.44883 0.7481 0.92054 0.0
H198 H 0.48902 0.74036 0.79221 0.0
H199 H 0.57238 0.76463 0.81851 0.0
Tb200 Tb 0.36483 0.30772 0.77559 0.0
Tb201 Tb 0.27962 0.28877 0.84106 0.0
C202 C 0.3705 0.3742 0.8455 0.0
C203 C 0.4395 0.27321 0.70817 0.0
C204 C 0.47028 0.20225 0.68622 0.0
C205 C 0.50353 0.24195 0.6976 0.0
C206 C 0.48825 0.27715 0.70847 0.0
C207 C 0.40622 0.23322 0.69711 0.0
C208 C 0.42152 0.19817 0.68593 0.0
C209 C 0.42381 0.30976 0.7219 0.0
O210 O 0.3916 0.27146 0.83378 0.0
O211 O 0.32333 0.24372 0.86858 0.0
O212 O 0.24884 0.24783 0.78779 0.0
O213 O 0.3179 0.2427 0.76555 0.0
O214 O 0.26186 0.27493 0.90581 0.0
O215 O 0.20752 0.27408 0.85326 0.0
O216 O 0.26058 0.3392 0.79249 0.0
O217 O 0.31855 0.35 0.74487 0.0
O218 O 0.38894 0.36509 0.81226 0.0
O219 O 0.33027 0.34988 0.86062 0.0
C220 C 0.36868 0.24617 0.86592 0.0
O221 O 0.37959 0.30915 0.71059 0.0
O222 O 0.4362 0.31895 0.76227 0.0
C223 C 0.27159 0.23289 0.76185 0.0
C224 C 0.1962 0.29769 0.91943 0.0
C225 C 0.15578 0.34706 0.96569 0.0
C226 C 0.13224 0.30248 0.96016 0.0
C227 C 0.15253 0.27782 0.9372 0.0
C228 C 0.21966 0.34232 0.92496 0.0
C229 C 0.19959 0.36683 0.94813 0.0
C230 C 0.21705 0.27166 0.89529 0.0
C231 C 0.2791 0.35769 0.75545 0.0
H232 H 0.54133 0.24578 0.69761 0.0
H233 H 0.5145 0.3074 0.7173 0.0
H234 H 0.36834 0.22892 0.69709 0.0
H235 H 0.39537 0.16799 0.67679 0.0
H236 H 0.09814 0.28707 0.97321 0.0
H237 H 0.13405 0.24339 0.93305 0.0
H238 H 0.2533 0.35818 0.91121 0.0
H239 H 0.21777 0.40141 0.95181 0.0
Tb240 Tb 0.86559 0.27129 0.83288 0.0
Tb241 Tb 0.79422 0.32703 0.79311 0.0
C242 C 0.77114 0.25632 0.8822 0.0
C243 C 0.92393 0.19282 0.81379 0.0
C244 C 0.92267 0.14383 0.74265 0.0
C245 C 0.90572 0.12198 0.7821 0.0
C246 C 0.9063 0.14635 0.81743 0.0
C247 C 0.94094 0.21432 0.77409 0.0
C248 C 0.94033 0.19005 0.73899 0.0
C249 C 0.91593 0.21887 0.84764 0.0
O250 O 0.81057 0.23204 0.78928 0.0
O251 O 0.79851 0.28752 0.74203 0.0
O252 O 0.85651 0.35836 0.75287 0.0
O253 O 0.89868 0.30744 0.77237 0.0
O254 O 0.72589 0.31854 0.76129 0.0
O255 O 0.76902 0.38323 0.778 0.0
O256 O 0.83459 0.36785 0.84356 0.0
O257 O 0.88874 0.32915 0.87153 0.0
O258 O 0.81523 0.25298 0.8848 0.0
O259 O 0.75672 0.28008 0.84772 0.0
C260 C 0.79888 0.24656 0.74984 0.0
O261 O 0.93413 0.26178 0.84278 0.0
O262 O 0.872 0.20847 0.85746 0.0
C263 C 0.89277 0.34261 0.7471 0.0
C264 C 0.688 0.36408 0.79009 0.0
C265 C 0.63898 0.38222 0.85513 0.0
C266 C 0.65567 0.41484 0.82156 0.0
C267 C 0.68019 0.40582 0.78919 0.0
C268 C 0.66569 0.32986 0.82039 0.0
C269 C 0.64122 0.33892 0.8528 0.0
C270 C 0.72634 0.35912 0.76597 0.0
C271 C 0.87085 0.36317 0.87043 0.0
H272 H 0.89294 0.08618 0.7857 0.0
H273 H 0.89201 0.12904 0.84728 0.0
H274 H 0.9539 0.25006 0.76964 0.0
H275 H 0.95439 0.20733 0.70902 0.0
H276 H 0.65443 0.44854 0.8232 0.0
H277 H 0.69689 0.43255 0.7661 0.0
H278 H 0.67074 0.29716 0.82162 0.0
H279 H 0.6289 0.31354 0.87868 0.0
Tb280 Tb 0.83402 0.83527 0.84264 0.0
Tb281 Tb 0.82627 0.76452 0.7712 0.0
C282 C 0.88941 0.86079 0.76119 0.0
C283 C 0.80263 0.91233 0.90833 0.0
C284 C 0.73591 0.94924 0.93638 0.0
C285 C 0.78361 0.96179 0.95348 0.0
C286 C 0.81677 0.94343 0.93952 0.0
C287 C 0.75503 0.90003 0.89077 0.0
C288 C 0.72179 0.9185 0.90466 0.0
C289 C 0.83766 0.89261 0.89475 0.0
O290 O 0.78433 0.85034 0.7893 0.0
O291 O 0.76145 0.78567 0.7548 0.0
O292 O 0.79687 0.72625 0.82883 0.0
O293 O 0.77138 0.77942 0.85538 0.0
O294 O 0.85556 0.75373 0.71637 0.0
O295 O 0.79554 0.70429 0.74255 0.0
O296 O 0.88964 0.76168 0.815 0.0
O297 O 0.87515 0.79142 0.87485 0.0
O298 O 0.89562 0.86013 0.80383 0.0
O299 O 0.85408 0.83142 0.74284 0.0
C300 C 0.75678 0.82487 0.76038 0.0
O301 O 0.83135 0.85071 0.90641 0.0
O302 O 0.84752 0.90211 0.85428 0.0
C303 C 0.77113 0.73772 0.85485 0.0
C304 C 0.85362 0.6803 0.71143 0.0
C305 C 0.91243 0.62543 0.70607 0.0
C306 C 0.88676 0.62039 0.74278 0.0
C307 C 0.85731 0.64772 0.74541 0.0
C308 C 0.87849 0.68428 0.67446 0.0
C309 C 0.90765 0.6571 0.67181 0.0
C310 C 0.82815 0.7134 0.71489 0.0
C311 C 0.89591 0.76655 0.85723 0.0
H312 H 0.79498 0.98544 0.97802 0.0
H313 H 0.85337 0.95323 0.95332 0.0
H314 H 0.74364 0.87597 0.86664 0.0
H315 H 0.68508 0.90846 0.89121 0.0
H316 H 0.88988 0.59577 0.7693 0.0
H317 H 0.8381 0.64383 0.77408 0.0
H318 H 0.87628 0.70929 0.64802 0.0
H319 H 0.92705 0.66111 0.64315 0.0
Fe320 Fe 0.07859 0.14804 0.55036 0.0
O321 O 0.07206 0.08488 0.57141 0.0
Fe322 Fe 0.12939 0.0608 0.5649 0.0
Fe323 Fe 1.01961 0.03389 0.54977 0.0
O324 O 0.07663 0.08737 0.56743 0.0
O325 O 0.07784 1.0106 0.54012 0.0
O326 O 0.07234 1.00879 0.54061 0.0
Fe327 Fe 0.07112 0.94808 0.56282 0.0
C328 C 0.98382 0.10258 0.59009 0.0
O329 O 1.02706 0.1335 0.4994 0.0
O330 O 1.02532 0.06475 0.48812 0.0
O331 O 0.13518 0.96086 0.53526 0.0
O332 O 0.17859 0.0264 0.56214 0.0
O333 O 0.14536 0.09069 0.50301 0.0
O334 O 0.1317 0.15643 0.50691 0.0
O335 O 0.97313 0.97788 0.52036 0.0
O336 O 1.02251 0.93527 0.50809 0.0
C337 C 0.14986 0.13111 0.48877 0.0
O338 O 0.11097 0.9642 0.62233 0.0
O339 O 0.11504 0.03393 0.62614 0.0
O340 O 1.02291 0.13483 0.58909 0.0
O341 O 0.97269 0.06868 0.56617 0.0
C342 C 1.0165 0.1013 0.47548 0.0
C343 C 0.98298 0.94719 0.50074 0.0
C344 C 0.99479 0.95817 0.61691 0.0
O345 O 1.0092 1.0003 0.61159 0.0
O346 O 1.01032 0.93569 0.59392 0.0
C347 C 0.17501 0.99072 0.54398 0.0
O348 O 0.1774 0.11506 0.59241 0.0
O349 O 0.13185 0.1607 0.60098 0.0
C350 C 0.1103 0.99571 0.64463 0.0
C351 C 0.16934 0.1466 0.61082 0.0
Fe352 Fe 0.55095 1.01206 0.08459 0.0
O353 O 0.59242 0.06174 0.11472 0.0
Fe354 Fe 0.4432 0.05282 0.06445 0.0
Fe355 Fe 0.66225 0.0826 0.11129 0.0
O356 O 0.5144 0.06131 0.06408 0.0
O357 O 0.51581 0.07295 0.06854 0.0
O358 O 0.58836 0.08663 0.10953 0.0
Fe359 Fe 0.55211 0.13874 0.07725 0.0
C360 C 0.64219 0.97961 0.14721 0.0
O361 O 0.58746 0.0285 0.02967 0.0
O362 O 0.66013 0.04354 0.06194 0.0
O363 O 0.50156 0.1607 0.03025 0.0
O364 O 0.44319 0.10007 1.01111 0.0
O365 O 0.44127 1.00154 1.02209 0.0
O366 O 0.49805 0.96494 0.04477 0.0
O367 O 0.66967 0.13777 0.06134 0.0
O368 O 0.59997 0.14656 1.0267 0.0
C369 C 0.46044 0.96939 1.01897 0.0
O370 O 0.50738 0.14644 0.12952 0.0
O371 O 0.43679 0.10311 0.10892 0.0
O372 O 0.60239 0.96985 0.11884 0.0
O373 O 0.66028 0.02177 0.15449 0.0
C374 C 0.63072 0.02941 0.03034 0.0
C375 C 0.64624 0.15397 0.02849 0.0
C376 C 0.63898 0.14584 0.15423 0.0
O377 O 0.6697 0.12396 0.16124 0.0
O378 O 0.6085 0.13476 0.12195 0.0
C379 C 0.46369 0.14198 1.00578 0.0
O380 O 0.44107 1.00645 0.11721 0.0
O381 O 0.51255 0.99307 0.13688 0.0
C382 C 0.46091 0.13615 0.13198 0.0
C383 C 0.46927 0.98874 0.14237 0.0
Fe384 Fe 0.05637 0.62773 0.04474 0.0
O385 O 0.9994 0.5751 0.0393 0.0
Fe386 Fe 0.14922 0.5761 0.05744 0.0
Fe387 Fe 0.93321 0.57056 0.04963 0.0
O388 O 0.08497 0.57786 0.06032 0.0
O389 O 0.08124 0.56986 0.04681 0.0
O390 O 0.99848 0.57009 0.05755 0.0
Fe391 Fe 1.0273 0.51988 0.06803 0.0
C392 C 0.9955 0.6361 0.11355 0.0
O393 O 1.01734 0.67091 1.01677 0.0
O394 O 0.94483 0.62276 1.00009 0.0
O395 O 0.06426 0.47371 0.06522 0.0
O396 O 0.12883 0.51584 0.03022 0.0
O397 O 0.15283 0.61286 0.99786 0.0
O398 O 0.08185 0.63033 0.98375 0.0
O399 O 0.91978 0.52119 1.00551 0.0
O400 O 0.99027 0.50254 1.00755 0.0
C401 C 0.12338 0.63056 0.97366 0.0
O402 O 0.06298 0.53326 0.13101 0.0
O403 O 0.13984 0.54255 0.11691 0.0
O404 O 1.03389 0.62845 0.10533 0.0
O405 O 0.95417 0.61902 0.09406 0.0
C406 C 0.97674 0.66046 0.99381 0.0
C407 C 0.94679 0.49987 0.99206 0.0
C408 C 0.9347 0.48409 0.11225 0.0
O409 O 0.9227 0.52014 0.10108 0.0
O410 O 0.96917 0.47539 0.09603 0.0
C411 C 0.09956 0.47846 0.04205 0.0
O412 O 0.16786 0.63426 0.08819 0.0
O413 O 0.1182 0.67658 0.06479 0.0
C414 C 0.10754 0.53709 0.14352 0.0
C415 C 0.15537 0.66992 0.08775 0.0
Fe416 Fe 0.58068 0.54646 1.00004 0.0
O417 O 0.62437 0.55847 0.05359 0.0
Fe418 Fe 0.47472 0.5589 0.02983 0.0
Fe419 Fe 0.68198 0.54024 0.06668 0.0
O420 O 0.52838 0.53081 0.04052 0.0
O421 O 0.52801 0.53155 0.04468 0.0
O422 O 0.62428 0.56067 0.05677 0.0
Fe423 Fe 0.57308 0.54698 0.09748 0.0
C424 C 0.62292 0.47191 1.00208 0.0
O425 O 0.63868 0.56759 0.96285 0.0
O426 O 0.70368 0.58503 1.01287 0.0
O427 O 0.57124 0.61131 0.08901 0.0
O428 O 0.49388 0.60181 0.07822 0.0
O429 O 0.50868 0.61031 0.98425 0.0
O430 O 0.58406 0.6109 0.99766 0.0
O431 O 0.69878 0.58626 0.11094 0.0
O432 O 0.62952 0.56912 0.14635 0.0
C433 C 0.55318 0.62993 0.98305 0.0
O434 O 0.51003 0.52709 0.1323 0.0
O435 O 0.4464 0.51241 0.07964 0.0
O436 O 0.5841 0.4826 1.00121 0.0
O437 O 0.66034 0.49119 1.02476 0.0
C438 C 0.6817 0.59001 0.97456 0.0
C439 C 0.67438 0.5899 0.14189 0.0
C440 C 0.61404 0.47392 0.12806 0.0
O441 O 0.65599 0.49536 0.11814 0.0
O442 O 0.57717 0.48304 0.10877 0.0
C443 C 0.53471 0.62336 0.09315 0.0
O444 O 0.45662 0.51815 0.98009 0.0
O445 O 0.52724 0.53105 0.94854 0.0
C446 C 0.46556 0.50794 0.1193 0.0
C447 C 0.48154 0.51371 0.94989 0.0
Fe448 Fe 0.10523 0.42335 0.53793 0.0
O449 O 0.11578 0.4893 0.53607 0.0
Fe450 Fe 0.0802 0.52117 0.47505 0.0
Fe451 Fe 0.09695 0.51548 0.58671 0.0
O452 O 0.11228 0.48924 0.5272 0.0
O453 O 0.06009 0.54483 0.52744 0.0
O454 O 0.06409 0.54613 0.53587 0.0
Fe455 Fe 0.06677 0.60932 0.53525 0.0
C456 C 1.0296 0.42469 0.60522 0.0
O457 O 0.15965 0.43476 0.58835 0.0
O458 O 0.13677 0.47763 0.63213 0.0
O459 O 0.11411 0.63034 0.48807 0.0
O460 O 0.14041 0.57291 0.47511 0.0
O461 O 0.11756 0.48224 0.4336 0.0
O462 O 0.14759 0.43389 0.48302 0.0
O463 O 0.15967 0.57055 0.59218 0.0
O464 O 0.12245 0.62265 0.58505 0.0
C465 C 0.14323 0.45158 0.44291 0.0
O466 O 1.0123 0.60435 0.4837 0.0
O467 O 1.03487 0.56816 0.43283 0.0
O468 O 0.05741 0.40612 0.58992 0.0
O469 O 1.03317 0.46506 0.5926 0.0
C470 C 0.16242 0.45099 0.62572 0.0
C471 C 0.1576 0.60876 0.60191 0.0
C472 C 1.03526 0.56568 0.62363 0.0
O473 O 0.06783 0.54449 0.63096 0.0
O474 O 1.02469 0.5859 0.58661 0.0
C475 C 0.14317 0.61394 0.47258 0.0
O476 O 1.01947 0.46828 0.47247 0.0
O477 O 1.04913 0.41019 0.49198 0.0
C478 C 1.00978 0.59621 0.44311 0.0
C479 C 1.01784 0.42745 0.47226 0.0
Fe480 Fe 0.58433 0.96507 0.58169 0.0
O481 O 0.63051 1.0158 0.61069 0.0
Fe482 Fe 0.56755 1.01013 0.47446 0.0
Fe483 Fe 0.63182 0.0207 0.67357 0.0
O484 O 0.56909 1.01199 0.5384 0.0
O485 O 0.5731 1.0158 0.53671 0.0
O486 O 0.63437 0.02068 0.60917 0.0
Fe487 Fe 0.61487 0.06693 0.56754 0.0
C488 C 0.53332 0.95687 0.66004 0.0
O489 O 0.611 0.92334 0.63189 0.0
O490 O 0.66552 0.97126 0.6768 0.0
O491 O 0.67134 0.07818 0.52754 0.0
O492 O 0.6318 0.05491 0.46506 0.0
O493 O 0.59888 0.95891 0.47962 0.0
O494 O 0.63744 0.96237 0.54572 0.0
O495 O 0.68876 0.07635 0.6651 0.0
O496 O 0.65984 0.11538 0.60652 0.0
C497 C 0.62919 0.94826 0.50816 0.0
O498 O 0.58813 0.10746 0.52339 0.0
O499 O 0.54156 0.06559 0.47025 0.0
O500 O 0.53014 0.96555 0.61887 0.0
O501 O 0.57298 0.96809 0.68215 0.0
C502 C 0.64684 0.93253 0.66188 0.0
C503 C 0.68834 0.11268 0.64132 0.0
C504 C 0.55959 0.07412 0.63962 0.0
O505 O 0.58989 0.06502 0.66937 0.0
O506 O 0.55738 0.06256 0.60154 0.0
C507 C 0.66737 0.07956 0.48556 0.0
O508 O 0.50577 0.9618 0.48542 0.0
O509 O 0.53129 0.91833 0.54268 0.0
C510 C 0.5587 0.10232 0.48931 0.0
C511 C 0.50182 0.92455 0.5088 0.0
C512 C 0.18173 0.18139 0.37375 0.0
C513 C 0.23238 0.19909 0.37907 0.0
C514 C 0.22928 0.16989 0.45683 0.0
C515 C 0.17932 0.15057 0.45046 0.0
N516 N 0.11283 0.12439 0.39851 0.0
N517 N 0.30445 0.19644 0.42363 0.0
C518 C 0.15718 0.15188 0.40749 0.0
C519 C 0.25617 0.18921 0.42009 0.0
N520 N 0.15598 0.19507 0.33837 0.0
N521 N 0.25122 0.17042 0.49807 0.0
H522 H 0.32489 0.20757 0.39703 0.0
H523 H 0.32328 0.18635 0.45144 0.0
H524 H 0.23321 0.1553 0.52534 0.0
H525 H 0.28646 0.18828 0.50537 0.0
H526 H 0.11886 0.18603 0.33542 0.0
H527 H 0.17097 0.21943 0.3147 0.0
H528 H 0.09661 0.12105 0.36689 0.0
H529 H 0.09448 0.10195 0.42224 0.0
C530 C 0.92771 0.07081 0.37798 0.0
C531 C 0.93767 0.11126 0.35176 0.0
C532 C 1.00387 0.14358 0.40391 0.0
C533 C 0.98978 0.10501 0.43276 0.0
N534 N 0.92826 0.03824 0.45198 0.0
N535 N 0.97705 0.19032 0.34619 0.0
C536 C 0.94913 0.06999 0.42107 0.0
C537 C 0.97374 0.14886 0.36616 0.0
N538 N 0.89636 0.0338 0.36227 0.0
N539 N 1.04582 0.17521 0.41216 0.0
H540 H 0.95434 0.19705 0.31979 0.0
H541 H 0.99923 0.219 0.35891 0.0
H542 H 0.06949 0.17293 0.43931 0.0
H543 H 0.05955 0.20147 0.38952 0.0
H544 H 0.88962 1.00275 0.37946 0.0
H545 H 0.88035 0.03359 0.33044 0.0
H546 H 0.89644 1.01394 0.44571 0.0
H547 H 0.93901 0.03984 0.48509 0.0
C548 C 0.91848 0.91634 0.38941 0.0
C549 C 0.88636 0.87446 0.40099 0.0
C550 C 0.90899 0.88748 0.47846 0.0
C551 C 0.94689 0.92473 0.46658 0.0
N552 N 0.98884 0.97485 0.41049 0.0
N553 N 0.85603 0.81748 0.45781 0.0
C554 C 0.95188 0.93929 0.42191 0.0
C555 C 0.88236 0.85948 0.4459 0.0
N556 N 0.91598 0.93477 0.34744 0.0
N557 N 0.89816 0.87898 0.52087 0.0
H558 H 0.83746 0.79494 0.43558 0.0
H559 H 0.85627 0.80343 0.48986 0.0
H560 H 0.91624 0.89952 0.54505 0.0
H561 H 0.86819 0.85468 0.53096 0.0
H562 H 0.9361 0.96638 0.33725 0.0
H563 H 0.88997 0.9203 0.3236 0.0
H564 H 0.99775 0.98419 0.37854 0.0
H565 H 1.01248 0.99371 0.43339 0.0
C566 C 0.23698 0.93452 0.48387 0.0
C567 C 0.2556 0.97116 0.45385 0.0
C568 C 0.24844 0.02229 0.50419 0.0
C569 C 0.21821 0.98574 0.52724 0.0
N570 N 0.20354 0.90964 0.55383 0.0
N571 N 0.28516 0.04983 0.43649 0.0
C572 C 0.21975 0.9425 0.52218 0.0
C573 C 0.26438 1.0152 0.46483 0.0
N574 N 0.23227 0.89237 0.47382 0.0
N575 N 0.26273 0.06285 0.52047 0.0
H576 H 0.2987 0.0453 0.4081 0.0
H577 H 0.28712 0.08267 0.4401 0.0
H578 H 0.25595 0.06748 0.55168 0.0
H579 H 0.28672 0.09023 0.50599 0.0
H580 H 0.21492 0.864 0.49227 0.0
H581 H 0.2447 0.88559 0.44581 0.0
H582 H 0.20555 0.87732 0.55395 0.0
H583 H 0.19156 0.91639 0.58218 0.0
C584 C 0.09083 0.94022 0.76065 0.0
C585 C 0.12451 0.97265 0.78352 0.0
C586 C 0.12021 0.02551 0.72145 0.0
C587 C 0.10573 0.98905 0.69343 0.0
N588 N 0.06808 0.90903 0.69193 0.0
N589 N 0.15056 0.0495 0.79338 0.0
C590 C 0.08753 0.94551 0.71453 0.0
C591 C 0.13018 1.01645 0.76672 0.0
N592 N 0.0629 0.90461 0.78312 0.0
N593 N 0.12615 0.06898 0.70775 0.0
H594 H 0.15927 0.04225 0.82649 0.0
H595 H 0.15823 0.08301 0.78242 0.0
H596 H 0.11768 0.08185 0.67658 0.0
H597 H 0.11768 0.08185 0.67658 0.0
H598 H 1.03549 0.8807 0.76805 0.0
H599 H 0.06421 0.9024 0.8171 0.0
H600 H 0.06128 0.87697 0.70704 0.0
H601 H 0.05868 0.90987 0.6587 0.0
C602 C 0.22185 0.23118 0.69058 0.0
C603 C 0.24538 0.20871 0.72408 0.0
C604 C 0.22611 0.14454 0.68027 0.0
C605 C 0.20427 0.16849 0.64614 0.0
N606 N 0.20231 0.24055 0.61311 0.0
N607 N 0.27741 0.14706 0.74768 0.0
C608 C 0.20888 0.21371 0.64958 0.0
C609 C 0.25027 0.16651 0.71769 0.0
N610 N 0.21085 0.26886 0.69748 0.0
N611 N 0.22231 0.10062 0.67864 0.0
H612 H 0.29152 0.15978 0.7775 0.0
H613 H 0.28815 0.11963 0.74204 0.0
H614 H 0.20713 0.08237 0.65229 0.0
H615 H 0.23162 0.08075 0.70525 0.0
H616 H 0.18951 0.28336 0.67498 0.0
H617 H 0.21858 0.28333 0.72684 0.0
H618 H 0.20932 0.27478 0.61331 0.0
H619 H 0.19585 0.22929 0.58193 0.0
C620 C 0.97293 0.10769 0.70869 0.0
C621 C 0.92979 0.11908 0.7072 0.0
C622 C 0.91402 0.10707 0.62926 0.0
C623 C 0.95908 0.09915 0.63018 0.0
N624 N 1.02182 0.07525 0.67349 0.0
N625 N 0.85188 0.11366 0.67161 0.0
C626 C 0.98526 0.09397 0.67084 0.0
C627 C 0.89778 0.11357 0.66917 0.0
N628 N 1.0039 0.11281 0.74536 0.0
N629 N 0.88808 0.1106 0.59038 0.0
H630 H 0.83973 0.11905 0.70041 0.0
H631 H 0.82531 0.10322 0.64685 0.0
H632 H 0.89897 0.10499 0.56107 0.0
H633 H 0.85713 0.12084 0.58714 0.0
H634 H 1.03876 0.11087 0.74608 0.0
H635 H 0.99581 0.12143 0.77455 0.0
H636 H 1.03537 0.06278 0.7031 0.0
H637 H 1.03475 0.06798 0.64618 0.0
C638 C 0.92318 0.93399 0.71894 0.0
C639 C 0.92427 0.88986 0.73173 0.0
C640 C 0.95935 0.88728 0.66466 0.0
C641 C 0.96414 0.93342 0.65332 0.0
N642 N 0.92982 0.99259 0.66047 0.0
N643 N 0.95505 0.82917 0.7229 0.0
C644 C 0.94107 0.95515 0.6784 0.0
C645 C 0.94665 0.86843 0.70668 0.0
N646 N 0.90497 0.95554 0.74562 0.0
N647 N 0.96096 0.85966 0.63419 0.0
H648 H 0.94653 0.81486 0.75404 0.0
H649 H 0.97535 0.81393 0.70768 0.0
H650 H 0.95912 0.86838 0.60084 0.0
H651 H 0.95477 0.82556 0.64096 0.0
H652 H 0.90726 0.98916 0.74091 0.0
H653 H 0.89129 0.94034 0.7749 0.0
H654 H 0.90943 1.00818 0.67497 0.0
H655 H 0.93469 1.00429 0.62807 0.0
C656 C 0.4322 0.22275 0.21585 0.0
C657 C 0.38039 0.21529 0.2153 0.0
C658 C 0.38219 0.16061 0.15699 0.0
C659 C 0.43329 0.16345 0.1617 0.0
N660 N 0.50242 0.19637 0.20908 0.0
N661 N 0.30941 0.16124 0.189 0.0
C662 C 0.45635 0.1944 0.19499 0.0
C663 C 0.35709 0.17974 0.18681 0.0
N664 N 0.46035 0.25894 0.23523 0.0
N665 N 0.35584 0.1411 0.12179 0.0
H666 H 0.29002 0.17011 0.21087 0.0
H667 H 0.29065 0.13291 0.17362 0.0
H668 H 0.37044 0.12959 0.09801 0.0
H669 H 0.32081 0.14188 0.11313 0.0
H670 H 0.497 0.27037 0.23296 0.0
H671 H 0.44646 0.2804 0.24924 0.0
H672 H 0.5203 0.21316 0.23584 0.0
H673 H 0.5209 0.17698 0.19753 0.0
C674 C 0.83258 0.40631 0.17714 0.0
C675 C 0.85793 0.3971 0.21712 0.0
C676 C 0.93277 0.43644 0.18475 0.0
C677 C 0.90783 0.4518 0.14699 0.0
N678 N 0.83108 0.45267 0.10953 0.0
N679 N 0.93169 0.41359 0.26182 0.0
C680 C 0.85682 0.43758 0.14414 0.0
C681 C 0.9078 0.4153 0.22159 0.0
N682 N 0.78619 0.3829 0.16917 0.0
N683 N 0.98012 0.44004 0.18583 0.0
H684 H 0.91421 0.40075 0.28994 0.0
H685 H 0.96775 0.42938 0.26773 0.0
H686 H 1.00244 0.45788 0.16249 0.0
H687 H 0.99619 0.42123 0.20896 0.0
H688 H 0.76764 0.38353 0.13854 0.0
H689 H 0.76777 0.35971 0.19224 0.0
H690 H 0.79441 0.44769 0.10868 0.0
H691 H 0.8463 0.4719 0.08256 0.0
C692 C 0.68097 0.86659 0.21209 0.0
C693 C 0.73201 0.88072 0.22698 0.0
C694 C 0.72388 0.95535 0.18377 0.0
C695 C 0.6721 0.94322 0.17322 0.0
N696 N 0.60356 0.88219 0.18699 0.0
N697 N 0.79488 0.94876 0.23141 0.0
C698 C 0.65196 0.89725 0.19021 0.0
C699 C 0.75069 0.92789 0.21363 0.0
N700 N 0.65915 0.8223 0.21701 0.0
N701 N 0.7498 0.99328 0.16271 0.0
H702 H 0.81459 0.93265 0.25391 0.0
H703 H 0.80917 0.98303 0.22822 0.0
H704 H 0.73444 1.01229 0.13914 0.0
H705 H 0.78686 1.00242 0.16406 0.0
H706 H 0.62514 0.80774 0.20307 0.0
H707 H 0.67694 0.79957 0.23146 0.0
H708 H 0.58489 0.85241 0.20253 0.0
H709 H 0.58215 0.90164 0.17191 0.0
C710 C 0.20379 0.69974 0.20301 0.0
C711 C 0.23892 0.74057 0.19574 0.0
C712 C 0.21658 0.73844 0.11623 0.0
C713 C 0.17972 0.69877 0.12393 0.0
N714 N 0.13301 0.64588 0.17541 0.0
N715 N 0.27538 0.80198 0.14615 0.0
C716 C 0.17164 0.68107 0.16765 0.0
C717 C 0.24425 0.76092 0.15248 0.0
N718 N 0.20281 0.67743 0.2435 0.0
N719 N 0.2263 0.7536 0.07429 0.0
H720 H 0.29679 0.81858 0.17166 0.0
H721 H 0.27795 0.82078 0.11629 0.0
H722 H 0.20588 0.73848 0.04755 0.0
H723 H 0.25577 0.77944 0.06597 0.0
H724 H 0.18184 0.64524 0.25026 0.0
H725 H 0.22647 0.68945 0.26985 0.0
H726 H 0.12253 0.63363 0.20641 0.0
H727 H 0.10939 0.63046 0.15059 0.0
C728 C 0.43869 0.88904 0.92217 0.0
C729 C 0.38774 0.87535 0.91322 0.0
C730 C 0.38476 0.91777 0.9772 0.0
C731 C 0.43575 0.93511 0.98351 0.0
N732 N 0.50965 0.94208 0.95309 0.0
N733 N 0.31348 0.88432 0.93076 0.0
C734 C 0.46208 0.92151 0.95374 0.0
C735 C 0.36148 0.89231 0.94023 0.0
N736 N 0.46561 0.8716 0.89984 0.0
N737 N 0.35777 0.92333 1.00817 0.0
H738 H 0.29461 0.86442 0.90642 0.0
H739 H 0.29292 0.90018 0.94476 0.0
H740 H 0.37226 0.9399 0.03588 0.0
H741 H 0.32157 0.90742 1.00897 0.0
H742 H 0.50162 0.87482 0.90838 0.0
H743 H 0.45137 0.85148 0.8744 0.0
H744 H 0.5305 0.93789 0.9297 0.0
H745 H 0.52742 0.96709 0.97315 0.0
C746 C 0.10664 0.40011 0.96122 0.0
C747 C 0.13348 0.37452 0.98725 0.0
C748 C 0.13195 0.41283 0.05137 0.0
C749 C 0.10585 0.43896 1.02518 0.0
N750 N 0.06116 0.4535 0.95798 0.0
N751 N 0.16364 0.34925 0.0579 0.0
C752 C 0.09071 0.43111 0.98096 0.0
C753 C 0.14338 0.37845 0.03273 0.0
N754 N 0.0982 0.39594 0.9173 0.0
N755 N 0.14795 0.42256 0.09328 0.0
H756 H 0.17319 0.32422 0.04494 0.0
H757 H 0.16767 0.34751 0.09181 0.0
H758 H 0.13867 0.44643 0.10844 0.0
H759 H 0.17249 0.40887 0.11224 0.0
H760 H 0.08407 0.41718 0.89537 0.0
H761 H 0.1074 0.37209 0.90206 0.0
H762 H 1.04475 0.44635 0.92711 0.0
H763 H 1.0504 0.47768 0.97106 0.0
C764 C 0.68907 0.20498 0.91041 0.0
C765 C 0.73703 0.23227 0.91949 0.0
C766 C 0.72086 0.21459 0.99924 0.0
C767 C 0.67582 0.18275 0.99023 0.0
N768 N 0.62156 0.14439 0.93384 0.0
N769 N 0.79831 0.25872 0.97671 0.0
C770 C 0.66108 0.17769 0.94483 0.0
C771 C 0.75264 0.23533 0.9651 0.0
N772 N 0.66941 0.2044 0.86844 0.0
N773 N 0.73244 0.22786 0.04054 0.0
H774 H 0.82136 0.27831 0.9546 0.0
H775 H 0.81428 0.2568 1.00834 0.0
H776 H 0.70996 0.21607 0.06557 0.0
H777 H 0.76143 0.25433 0.04883 0.0
H778 H 0.6332 0.19118 0.85999 0.0
H779 H 0.68839 0.21999 0.84215 0.0
H780 H 0.61195 0.13475 0.90225 0.0
H781 H 0.60109 0.12286 0.95675 0.0
C782 C 0.9157 0.69455 0.88644 0.0
C783 C 0.92478 0.74119 0.88718 0.0
C784 C 0.97672 0.73801 0.95538 0.0
C785 C 0.9663 0.69101 0.95493 0.0
N786 N 0.94513 0.63081 0.90831 0.0
N787 N 0.97595 0.8083 0.91466 0.0
C788 C 0.94184 0.67132 0.91674 0.0
C789 C 0.95898 0.76319 0.9194 0.0
N790 N 0.88024 0.67138 0.85876 0.0
N791 N 1.00255 0.759 0.99006 0.0
H792 H 0.96494 0.82735 0.88807 0.0
H793 H 1.00442 0.8264 0.93417 0.0
H794 H 1.02063 0.74392 1.01487 0.0
H795 H 1.00475 0.79158 0.99505 0.0
H796 H 0.86888 0.63687 0.86088 0.0
H797 H 0.85921 0.68597 0.83635 0.0
H798 H 0.93152 0.6167 0.87904 0.0
H799 H 0.96683 0.61419 0.92793 0.0
C800 C 0.18248 0.48997 0.19763 0.0
C801 C 0.14742 0.45125 0.21292 0.0
C802 C 0.09365 0.49703 0.21647 0.0
C803 C 0.12396 0.52935 0.19024 0.0
N804 N 0.20622 0.57012 0.19194 0.0
N805 N 0.07973 0.42377 0.25592 0.0
C806 C 0.17229 0.53082 0.19687 0.0
C807 C 0.1059 0.4565 0.22902 0.0
N808 N 0.2214 0.4879 0.17849 0.0
N809 N 0.05577 0.50671 0.23024 0.0
H810 H 0.08967 0.3949 0.26631 0.0
H811 H 1.05023 0.42646 0.26978 0.0
H812 H 1.0487 0.537 0.22009 0.0
H813 H 1.03378 0.48657 0.2528 0.0
H814 H 0.24523 0.51598 0.16476 0.0
H815 H 0.22689 0.45849 0.17118 0.0
H816 H 0.24253 0.5726 0.19673 0.0
H817 H 0.19696 0.59982 0.18654 0.0
C818 C 0.18335 0.67156 0.8692 0.0
C819 C 0.21146 0.71369 0.88169 0.0
C820 C 0.16276 0.70576 0.94239 0.0
C821 C 0.14312 0.66024 0.93606 0.0
N822 N 0.13433 0.59885 0.8934 0.0
N823 N 0.23232 0.76792 0.93516 0.0
C824 C 0.15318 0.64277 0.89929 0.0
C825 C 0.20207 0.73035 0.91939 0.0
N826 N 0.18378 0.66004 0.8281 0.0
N827 N 0.14424 0.72549 0.9705 0.0
H828 H 0.26374 0.78523 0.92127 0.0
H829 H 0.22906 0.77888 0.96491 0.0
H830 H 0.11381 0.70901 0.98619 0.0
H831 H 0.15537 0.75947 0.97369 0.0
H832 H 0.16133 0.63105 0.81623 0.0
H833 H 0.20253 0.68211 0.8044 0.0
H834 H 0.14451 0.58332 0.86961 0.0
H835 H 0.11002 0.57773 0.91382 0.0
C836 C 0.36877 0.17829 0.92199 0.0
C837 C 0.39446 0.21917 0.90058 0.0
C838 C 0.4676 0.20621 0.94354 0.0
C839 C 0.44044 0.16975 0.96991 0.0
N840 N 0.36068 0.13153 0.98965 0.0
N841 N 0.46988 0.27631 0.90218 0.0
C842 C 0.38977 0.15887 0.96062 0.0
C843 C 0.44434 0.23426 0.91445 0.0
N844 N 0.32484 0.15611 0.9046 0.0
N845 N 0.51572 0.21354 0.94443 0.0
H846 H 0.45504 0.29937 0.88388 0.0
H847 H 0.50466 0.28984 0.91506 0.0
H848 H 0.53393 0.19294 0.96276 0.0
H849 H 0.53655 0.2369 0.92291 0.0
H850 H 0.30643 0.12465 0.91715 0.0
H851 H 0.30995 0.16603 0.87445 0.0
H852 H 0.32377 0.12562 0.986 0.0
H853 H 0.37335 0.11973 1.01996 0.0
C854 C 0.9328 0.43244 0.89337 0.0
C855 C 0.89088 0.39788 0.90175 0.0
C856 C 0.88604 0.4298 0.96937 0.0
C857 C 0.9256 0.4665 0.95935 0.0
N858 N 0.9815 0.50663 0.90783 0.0
N859 N 0.82157 0.36944 0.94251 0.0
C860 C 0.94763 0.46886 0.92018 0.0
C861 C 0.86557 0.39847 0.93805 0.0
N862 N 0.95841 0.43048 0.85977 0.0
N863 N 0.86969 0.42309 1.00989 0.0
H864 H 0.80545 0.34552 0.92076 0.0
H865 H 0.79936 0.37153 0.9657 0.0
H866 H 0.8849 0.44387 0.03455 0.0
H867 H 0.84443 0.39443 1.02054 0.0
H868 H 0.99177 0.4521 0.8545 0.0
H869 H 0.94772 0.40517 0.83874 0.0
H870 H 0.99589 0.51234 0.87778 0.0
H871 H 0.99236 0.53406 0.92623 0.0
C872 C 0.66894 0.9417 0.98313 0.0
C873 C 0.70095 0.96781 0.95312 0.0
C874 C 0.68017 0.03405 0.96797 0.0
C875 C 0.64731 1.00788 0.9973 0.0
N876 N 0.60182 0.93534 1.02447 0.0
N877 N 0.72814 0.03596 0.90852 0.0
C878 C 0.6385 0.96113 1.0017 0.0
C879 C 0.70342 1.01309 0.94263 0.0
N880 N 0.67002 0.89928 0.99636 0.0
N881 N 0.69086 0.07907 0.96595 0.0
H882 H 0.7455 0.02132 0.88938 0.0
H883 H 0.7277 0.068 0.89675 0.0
H884 H 0.67384 0.0951 0.98375 0.0
H885 H 0.71842 0.10028 0.94908 0.0
H886 H 0.65173 0.8805 1.02209 0.0
H887 H 0.69238 0.88398 0.98417 0.0
H888 H 0.59079 0.90093 1.02504 0.0
H889 H 0.57932 0.94842 0.03916 0.0
C890 C 0.05395 0.71312 0.19961 0.0
C891 C 1.04921 0.75318 0.17737 0.0
C892 C 1.00204 0.71482 0.11729 0.0
C893 C 1.00367 0.67376 0.13984 0.0
N894 N 1.02866 0.63249 0.20343 0.0
N895 N 1.04153 0.79323 0.10815 0.0
C896 C 1.02975 0.67252 0.18123 0.0
C897 C 1.03215 0.75407 0.13329 0.0
N898 N 0.07935 0.71483 0.23922 0.0
N899 N 0.96989 0.71677 0.08237 0.0
H900 H 0.06396 0.82224 0.12013 0.0
H901 H 1.03123 0.79557 0.07489 0.0
H902 H 0.9452 0.68895 0.07056 0.0
H903 H 0.96396 0.74655 0.06869 0.0
H904 H 0.08595 0.6874 0.25762 0.0
H905 H 0.09596 0.74518 0.25215 0.0
H906 H 1.04479 0.62857 0.23465 0.0
H907 H 1.00914 0.60265 0.19093 0.0
C908 C 0.43519 0.9256 0.24986 0.0
C909 C 0.41593 0.88268 0.23537 0.0
C910 C 0.42947 0.90994 0.16069 0.0
C911 C 0.44878 0.95332 0.1746 0.0
N912 N 0.47868 1.00217 0.23213 0.0
N913 N 0.40736 0.83119 0.1816 0.0
C914 C 0.45461 0.96113 0.21927 0.0
C915 C 0.41751 0.87396 0.19219 0.0
N916 N 0.43332 0.93229 0.29241 0.0
N917 N 0.42095 0.90335 0.11736 0.0
H918 H 0.39886 0.80421 0.20481 0.0
H919 H 0.41206 0.82261 0.15121 0.0
H920 H 0.42857 0.92914 0.09319 0.0
H921 H 0.40234 0.87313 0.10537 0.0
H922 H 0.44138 0.96344 0.3041 0.0
H923 H 0.42231 0.90613 0.31597 0.0
H924 H 0.48814 1.00887 0.26459 0.0
H925 H 0.49157 0.02929 0.21004 0.0
C926 C 0.66028 0.19799 0.25716 0.0
C927 C 0.67861 0.24291 0.24124 0.0
C928 C 0.64963 0.22453 0.16685 0.0
C929 C 0.63783 0.17943 0.18252 0.0
N930 N 0.61175 0.1245 0.24101 0.0
N931 N 0.6744 0.30062 0.18536 0.0
C932 C 0.63581 0.16676 0.22738 0.0
C933 C 0.66718 0.25671 0.19742 0.0
N934 N 0.67022 0.18438 0.2995 0.0
N935 N 0.64753 0.23633 0.12305 0.0
H936 H 0.68734 0.3239 0.20817 0.0
H937 H 0.66343 0.31307 0.15471 0.0
H938 H 0.63284 0.21348 0.09999 0.0
H939 H 0.66159 0.26846 0.10948 0.0
H940 H 0.66332 0.15129 0.31152 0.0
H941 H 0.68766 0.20647 0.32215 0.0
H942 H 0.60572 0.11398 0.27348 0.0
H943 H 0.59365 0.10141 0.21892 0.0
C944 C 0.74632 0.7067 0.9306 0.0
C945 C 0.74357 0.70193 0.8852 0.0
C946 C 0.70489 0.62232 0.89912 0.0
C947 C 0.7041 0.62807 0.94384 0.0
N948 N 0.70904 0.6797 0.99766 0.0
N949 N 0.70792 0.6571 0.82544 0.0
C950 C 0.72025 0.67143 0.95831 0.0
C951 C 0.71913 0.66023 0.86922 0.0
N952 N 0.776 0.74345 0.94817 0.0
N953 N 0.69339 0.58076 0.88521 0.0
H954 H 0.71514 0.68463 0.80277 0.0
H955 H 0.68642 0.6284 0.81228 0.0
H956 H 0.68328 0.55211 0.90603 0.0
H957 H 0.69822 0.57473 0.85385 0.0
H958 H 0.7822 0.74615 0.98171 0.0
H959 H 0.79855 0.76881 0.93 0.0
H960 H 0.71616 0.71167 1.00733 0.0
H961 H 0.6878 0.6556 1.01825 0.0
C962 C 0.61039 0.75258 0.95139 0.0
C963 C 0.60144 0.75094 0.90602 0.0
C964 C 0.58141 0.67155 0.91296 0.0
C965 C 0.57231 0.67239 0.95711 0.0
N966 N 0.6021 0.71131 1.02235 0.0
N967 N 0.62593 0.71414 0.85323 0.0
C968 C 0.59482 0.71226 0.97811 0.0
C969 C 0.60411 0.71197 0.89021 0.0
N970 N 0.62712 0.79298 0.96753 0.0
N971 N 0.56882 0.63309 0.89302 0.0
H972 H 0.6429 0.74471 0.83766 0.0
H973 H 0.63012 0.68634 0.84074 0.0
H974 H 0.55284 0.60278 0.90906 0.0
H975 H 0.57194 0.63204 0.85997 0.0
H976 H 0.63137 0.79807 1.00052 0.0
H977 H 0.63603 0.8216 0.94625 0.0
H978 H 0.61933 0.73885 0.03934 0.0
H979 H 0.59344 0.68191 0.04199 0.0
C980 C 0.41901 0.39955 0.91362 0.0
C981 C 0.40002 0.41045 0.87112 0.0
C982 C 0.44218 0.48899 0.87708 0.0
C983 C 0.45734 0.47845 0.92096 0.0
N984 N 0.45746 0.42472 0.9829 0.0
N985 N 0.38923 0.46479 0.81299 0.0
C986 C 0.44503 0.43399 0.9397 0.0
C987 C 0.41079 0.45498 0.85275 0.0
N988 N 0.41388 0.35615 0.92842 0.0
N989 N 0.45758 0.53148 0.85897 0.0
H990 H 0.36577 0.44064 0.79466 0.0
H991 H 0.39174 0.49686 0.79937 0.0
H992 H 0.47901 0.5572 0.87664 0.0
H993 H 0.4518 0.54084 0.826 0.0
H994 H 0.43133 0.34605 0.95706 0.0
H995 H 0.39508 0.32965 0.91051 0.0
H996 H 0.44342 0.39437 1.00007 0.0
H997 H 0.4804 0.44794 1.0025 0.0
C998 C 0.58899 0.39288 0.9123 0.0
C999 C 0.63387 0.39681 0.89759 0.0
C1000 C 0.67249 0.44876 0.95128 0.0
C1001 C 0.62787 0.44243 0.9693 0.0
N1002 N 0.54779 0.39466 0.97504 0.0
N1003 N 0.719 0.41459 0.91435 0.0
C1004 C 0.5872 0.4102 0.95233 0.0
C1005 C 0.67576 0.41937 0.92151 0.0
N1006 N 0.54827 0.374 0.88779 0.0
N1007 N 0.71057 0.48493 0.95794 0.0
H1008 H 0.72297 0.39359 0.89217 0.0
H1009 H 0.74997 0.42791 0.9339 0.0
H1010 H 0.70971 0.51257 0.97259 0.0
H1011 H 0.74166 0.49109 0.94219 0.0
H1012 H 0.51486 0.37506 0.89508 0.0
H1013 H 0.54856 0.3601 0.85879 0.0
H1014 H 0.51896 0.36869 0.96515 0.0
H1015 H 0.54677 0.40361 1.00628 0.0
C1016 C 0.57494 0.41371 0.23752 0.0
C1017 C 0.61503 0.39867 0.25163 0.0
C1018 C 0.64291 0.41839 0.17875 0.0
C1019 C 0.6094 0.44296 0.16814 0.0
N1020 N 0.55532 0.47561 0.19726 0.0
N1021 N 0.69348 0.39568 0.23757 0.0
C1022 C 0.57714 0.44286 0.19942 0.0
C1023 C 0.65066 0.40284 0.22267 0.0
N1024 N 0.53723 0.40383 0.26242 0.0
N1025 N 0.66797 0.4107 0.14733 0.0
H1026 H 0.70091 0.3829 0.26915 0.0
H1027 H 0.72262 0.4052 0.21882 0.0
H1028 H 0.66099 0.41936 0.11426 0.0
H1029 H 0.69194 0.39172 0.15382 0.0
H1030 H 0.50597 0.4126 0.25185 0.0
H1031 H 0.53592 0.3833 0.29135 0.0
H1032 H 0.533 0.47775 0.22038 0.0
H1033 H 0.56777 0.50486 0.17821 0.0
C1034 C 0.72951 0.70197 0.18531 0.0
C1035 C 0.76553 0.69202 0.21571 0.0
C1036 C 0.73252 0.61302 0.20514 0.0
C1037 C 0.70009 0.62373 0.17147 0.0
N1038 N 0.67542 0.67947 0.12234 0.0
N1039 N 0.80652 0.63938 0.24964 0.0
C1040 C 0.70066 0.6685 0.15952 0.0
C1041 C 0.76849 0.64779 0.22426 0.0
N1042 N 0.72108 0.74257 0.18231 0.0
N1043 N 0.72875 0.56964 0.21874 0.0
H1044 H 0.83418 0.66443 0.26301 0.0
H1045 H 0.813 0.60845 0.254 0.0
H1046 H 0.70257 0.5436 0.20514 0.0
H1047 H 0.74862 0.55962 0.24582 0.0
H1048 H 0.69137 0.74927 0.1645 0.0
H1049 H 0.74109 0.76841 0.2005 0.0
H1050 H 0.6787 0.71207 0.10979 0.0
H1051 H 0.65465 0.65611 0.1018 0.0
C1052 C 0.50663 0.71976 0.13557 0.0
C1053 C 0.52715 0.71675 0.17872 0.0
C1054 C 0.56247 0.66092 0.16269 0.0
C1055 C 0.53878 0.66042 0.11995 0.0
N1056 N 0.49716 0.69829 0.06296 0.0
N1057 N 0.59159 0.70232 0.22627 0.0
C1058 C 0.51469 0.69313 0.10516 0.0
C1059 C 0.56251 0.69468 0.18886 0.0
N1060 N 0.47754 0.74653 0.12408 0.0
N1061 N 0.57789 0.62578 0.18106 0.0
H1062 H 0.58949 0.72593 0.24653 0.0
H1063 H 0.62014 0.68875 0.23422 0.0
H1064 H 0.56838 0.59584 0.16703 0.0
H1065 H 0.59299 0.62382 0.21303 0.0
H1066 H 0.4605 0.74859 0.09281 0.0
H1067 H 0.47162 0.76697 0.14587 0.0
H1068 H 0.50204 0.68057 0.03817 0.0
H1069 H 0.50204 0.68057 0.03817 0.0
C1070 C 0.37158 0.4529 0.20072 0.0
C1071 C 0.37532 0.40865 0.20574 0.0
C1072 C 0.43735 0.42988 0.15357 0.0
C1073 C 0.43575 0.47458 0.1506 0.0
N1074 N 0.40633 0.53023 0.17578 0.0
N1075 N 0.4207 0.35854 0.19508 0.0
C1076 C 0.40431 0.48655 0.17558 0.0
C1077 C 0.41063 0.39813 0.18431 0.0
N1078 N 0.33567 0.46243 0.21873 0.0
N1079 N 0.4636 0.4173 0.12615 0.0
H1080 H 0.40325 0.33501 0.21832 0.0
H1081 H 0.44969 0.351 0.18456 0.0
H1082 H 0.48422 0.43943 0.10363 0.0
H1083 H 0.46186 0.38438 0.12317 0.0
H1084 H 0.32752 0.49257 0.2126 0.0
H1085 H 0.31158 0.43893 0.23749 0.0
H1086 H 0.38808 0.54204 0.1965 0.0
H1087 H 0.42931 0.55527 0.15733 0.0
C1088 C 0.92679 0.55974 0.6784 0.0
C1089 C 0.94452 0.59791 0.70178 0.0
C1090 C 1.02625 0.6025 0.6883 0.0
C1091 C 1.00776 0.56832 0.65987 0.0
N1092 N 0.94469 0.50558 0.63809 0.0
N1093 N 1.00984 0.64725 0.74067 0.0
C1094 C 0.95928 0.54368 0.6588 0.0
C1095 C 0.99411 0.61615 0.71106 0.0
N1096 N 0.87875 0.54096 0.67268 0.0
N1097 N 0.07393 0.62344 0.69119 0.0
H1098 H 0.98638 0.65738 0.75742 0.0
H1099 H 1.04547 0.66043 0.75115 0.0
H1100 H 0.09809 0.61259 0.67615 0.0
H1101 H 0.0896 0.65168 0.70763 0.0
H1102 H 0.86266 0.51614 0.65199 0.0
H1103 H 0.85455 0.55125 0.68829 0.0
H1104 H 0.91059 0.48396 0.63837 0.0
H1105 H 0.96851 0.49398 0.62343 0.0
C1106 C 0.44264 0.9083 0.74445 0.0
C1107 C 0.41745 0.86772 0.72719 0.0
C1108 C 0.46702 0.8856 0.66547 0.0
C1109 C 0.49246 0.9267 0.68257 0.0
N1110 N 0.51177 0.97117 0.74503 0.0
N1111 N 0.39911 0.82037 0.66813 0.0
C1112 C 0.4824 0.93636 0.72392 0.0
C1113 C 0.42739 0.85737 0.68654 0.0
N1114 N 0.42639 0.92168 0.77888 0.0
N1115 N 0.48421 0.87091 0.63245 0.0
H1116 H 0.37185 0.79726 0.68386 0.0
H1117 H 0.40027 0.8141 0.63602 0.0
H1118 H 0.51657 0.88742 0.62 0.0
H1119 H 0.47005 0.83965 0.62109 0.0
H1120 H 0.43935 0.95336 0.78955 0.0
H1121 H 0.39622 0.90294 0.79381 0.0
H1122 H 0.5108 0.97455 0.77798 0.0
H1123 H 0.53885 0.99592 0.73103 0.0
C1124 C 0.22367 0.41073 0.73836 0.0
C1125 C 0.25282 0.38666 0.72337 0.0
C1126 C 0.23522 0.42102 0.64922 0.0
C1127 C 0.1971 0.43535 0.66213 0.0
N1128 N 0.15511 0.44016 0.72387 0.0
N1129 N 0.27514 0.36345 0.65831 0.0
C1130 C 0.19138 0.42922 0.70812 0.0
C1131 C 0.25553 0.39041 0.67711 0.0
N1132 N 0.22859 0.41866 0.78133 0.0
N1133 N 0.25415 0.43816 0.61063 0.0
H1134 H 0.28654 0.33763 0.67526 0.0
H1135 H 0.27399 0.36299 0.62456 0.0
H1136 H 0.2444 0.46393 0.59146 0.0
H1137 H 0.2841 0.4313 0.60121 0.0
H1138 H 0.21171 0.4391 0.79352 0.0
H1139 H 0.25447 0.41012 0.80351 0.0
H1140 H 0.1459 0.43106 0.75582 0.0
H1141 H 0.13203 0.45537 0.70482 0.0
C1142 C 0.79285 0.20355 0.68476 0.0
C1143 C 0.77094 0.21527 0.71859 0.0
C1144 C 0.69329 0.17093 0.69086 0.0
C1145 C 0.71551 0.15417 0.66099 0.0
N1146 N 0.78226 0.16357 0.61958 0.0
N1147 N 0.70106 0.20944 0.75542 0.0
C1148 C 0.76432 0.17313 0.65498 0.0
C1149 C 0.72134 0.19893 0.72191 0.0
N1150 N 0.84088 0.22025 0.68236 0.0
N1151 N 0.64507 0.16238 0.68744 0.0
H1152 H 0.71995 0.23203 0.77749 0.0
H1153 H 0.66636 0.19372 0.76317 0.0
H1154 H 0.62478 0.14622 0.66168 0.0
H1155 H 0.62616 0.17648 0.70543 0.0
H1156 H 0.8601 0.2105 0.66095 0.0
H1157 H 0.86219 0.24294 0.70344 0.0
H1158 H 0.8165 0.17893 0.6105 0.0
H1159 H 0.76128 0.1419 0.59738 0.0
C1160 C 0.91757 0.32889 0.43668 0.0
C1161 C 0.92433 0.33219 0.39179 0.0
C1162 C 0.98807 0.40027 0.39919 0.0
C1163 C 0.98131 0.39795 0.44423 0.0
N1164 N 0.94716 0.35481 0.50806 0.0
N1165 N 0.97655 0.35932 0.33516 0.0
C1166 C 0.94839 0.36046 0.46377 0.0
C1167 C 0.96331 0.36409 0.37475 0.0
N1168 N 0.88084 0.29602 0.45286 0.0
N1169 N 1.01716 0.43733 0.37941 0.0
H1170 H 0.95815 0.33268 0.31709 0.0
H1171 H 1.00815 0.37871 0.32301 0.0
H1172 H 1.03425 0.46543 0.39569 0.0
H1173 H 1.0204 0.44179 0.34593 0.0
H1174 H 0.86952 0.29465 0.4838 0.0
H1175 H 0.86133 0.27022 0.43434 0.0
H1176 H 0.92744 0.32613 0.52459 0.0
H1177 H 0.9682 0.37801 0.52868 0.0
C1178 C 0.69174 0.88416 0.45133 0.0
C1179 C 0.66763 0.84073 0.4676 0.0
C1180 C 0.63385 0.87023 0.5213 0.0
C1181 C 0.64952 0.91307 0.49926 0.0
N1182 N 0.69532 0.96214 0.4447 0.0
N1183 N 0.61258 0.79151 0.51546 0.0
C1184 C 0.67946 0.92054 0.46483 0.0
C1185 C 0.63877 0.83342 0.50258 0.0
N1186 N 0.72676 0.89037 0.42376 0.0
N1187 N 0.612 0.86404 0.55892 0.0
H1188 H 0.61392 0.76325 0.50181 0.0
H1189 H 0.58619 0.78496 0.53708 0.0
H1190 H 0.59893 0.88785 0.5692 0.0
H1191 H 0.60734 0.83525 0.57985 0.0
H1192 H 0.74846 0.92137 0.41373 0.0
H1193 H 0.73713 0.86418 0.41404 0.0
H1194 H 0.71251 0.96883 0.41605 0.0
H1195 H 0.68952 0.98997 0.45589 0.0
C1196 C 0.24695 0.70779 0.4374 0.0
C1197 C 0.23065 0.71427 0.39298 0.0
C1198 C 0.16427 0.64823 0.39969 0.0
C1199 C 0.17758 0.64385 0.44486 0.0
N1200 N 0.232 0.66563 0.50746 0.0
N1201 N 0.16923 0.69768 0.33424 0.0
C1202 C 0.21916 0.67264 0.46406 0.0
C1203 C 0.18795 0.68652 0.37481 0.0
N1204 N 0.28911 0.7348 0.45353 0.0
N1205 N 0.13026 0.61505 0.38031 0.0
H1206 H 0.18517 0.72662 0.31559 0.0
H1207 H 0.13564 0.68073 0.3212 0.0
H1208 H 0.11333 0.5855 0.39738 0.0
H1209 H 0.12273 0.61471 0.34664 0.0
H1210 H 0.30557 0.72988 0.4844 0.0
H1211 H 0.30836 0.76251 0.43539 0.0
H1212 H 0.25944 0.68722 0.52496 0.0
H1213 H 0.21421 0.63771 0.52645 0.0
C1214 C 0.56391 0.22225 0.45107 0.0
C1215 C 0.51564 0.21695 0.43693 0.0
C1216 C 0.49492 0.13815 0.46055 0.0
C1217 C 0.54402 0.14212 0.47168 0.0
N1218 N 0.62453 0.19056 0.48671 0.0
N1219 N 0.43528 0.17113 0.42299 0.0
C1220 C 0.57838 0.18488 0.4697 0.0
C1221 C 0.48114 0.17527 0.4401 0.0
N1222 N 0.59635 0.26277 0.44427 0.0
N1223 N 0.46117 0.10036 0.47339 0.0
H1224 H 0.42303 0.19799 0.4096 0.0
H1225 H 0.41009 0.14075 0.41918 0.0
H1226 H 0.46927 0.0736 0.49209 0.0
H1227 H 0.42479 0.09729 0.47021 0.0
H1228 H 0.63309 0.26829 0.44868 0.0
H1229 H 0.58689 0.29121 0.43122 0.0
H1230 H 0.64733 0.22104 0.49449 0.0
H1231 H 0.641 0.16548 0.4944 0.0
C1232 C 0.72904 0.85699 0.68705 0.0
C1233 C 0.72124 0.84316 0.73165 0.0
C1234 C 0.65416 0.87626 0.72444 0.0
C1235 C 0.66715 0.89618 0.68257 0.0
N1236 N 0.71662 0.90608 0.62334 0.0
N1237 N 0.67592 0.83867 0.79302 0.0
C1238 C 0.70401 0.88608 0.66339 0.0
C1239 C 0.68333 0.85224 0.75026 0.0
N1240 N 0.76071 0.84273 0.66737 0.0
N1241 N 0.61333 0.87975 0.73908 0.0
H1242 H 0.69457 0.81871 0.81193 0.0
H1243 H 0.65295 0.84861 0.81037 0.0
H1244 H 0.59096 0.89627 0.72041 0.0
H1245 H 0.5992 0.86296 0.76755 0.0
H1246 H 0.76463 0.84784 0.63405 0.0
H1247 H 0.78055 0.82247 0.6836 0.0
H1248 H 0.74679 0.90482 0.60946 0.0
H1249 H 0.69796 0.92615 0.60463 0.0
C1250 C 0.70393 0.18699 0.41189 0.0
C1251 C 0.75305 0.19417 0.40937 0.0
C1252 C 0.74895 0.12813 0.46162 0.0
C1253 C 0.6982 0.11743 0.45791 0.0
N1254 N 0.62966 0.13161 0.41118 0.0
N1255 N 0.82247 0.16805 0.42835 0.0
C1256 C 0.67627 0.14489 0.42741 0.0
C1257 C 0.77577 0.16364 0.43326 0.0
N1258 N 0.68272 0.2199 0.39856 0.0
N1259 N 0.77147 0.1039 0.49107 0.0
H1260 H 0.84275 0.19401 0.40872 0.0
H1261 H 0.83994 0.14456 0.44137 0.0
H1262 H 0.75299 0.07621 0.5099 0.0
H1263 H 0.80824 0.11268 0.49825 0.0
H1264 H 0.64698 0.21653 0.40185 0.0
H1265 H 0.70133 0.25144 0.38689 0.0
H1266 H 0.6154 0.15018 0.3862 0.0
H1267 H 0.60613 0.10074 0.4169 0.0
C1268 C 0.95079 0.67481 0.34414 0.0
C1269 C 0.9167 0.69093 0.36468 0.0
C1270 C 0.93567 0.63523 0.42871 0.0
C1271 C 0.97491 0.62431 0.41128 0.0
N1272 N 1.01987 0.64347 0.34852 0.0
N1273 N 0.89117 0.6885 0.43659 0.0
C1274 C 0.98201 0.64716 0.36787 0.0
C1275 C 0.91362 0.67129 0.4096 0.0
N1276 N 0.95226 0.68382 0.30025 0.0
N1277 N 0.91622 0.60891 0.46371 0.0
H1278 H 0.87797 0.71557 0.42694 0.0
H1279 H 0.89154 0.67982 0.47007 0.0
H1280 H 0.92666 0.58088 0.47637 0.0
H1281 H 0.88537 0.61109 0.47586 0.0
H1282 H 0.97135 0.67048 0.28166 0.0
H1283 H 0.92981 0.70038 0.28195 0.0
H1284 H 1.03206 0.66246 0.32028 0.0
H1285 H 1.0409 0.62342 0.36296 0.0
C1286 C 0.44891 0.84259 0.42661 0.0
C1287 C 0.40117 0.84538 0.41988 0.0
C1288 C 0.4162 0.88997 0.48326 0.0
C1289 C 0.46378 0.8869 0.48984 0.0
N1290 N 0.51879 0.84737 0.47709 0.0
N1291 N 0.33622 0.86224 0.44894 0.0
C1292 C 0.47767 0.85861 0.46472 0.0
C1293 C 0.38379 0.86614 0.45047 0.0
N1294 N 0.46826 0.82772 0.39519 0.0
N1295 N 0.4026 0.91711 0.50751 0.0
H1296 H 0.31152 0.84509 0.42564 0.0
H1297 H 0.32084 0.87243 0.47316 0.0
H1298 H 0.42457 0.93242 0.5335 0.0
H1299 H 0.37076 0.92573 0.50082 0.0
H1300 H 0.50426 0.82939 0.39641 0.0
H1301 H 0.44977 0.81817 0.36559 0.0
H1302 H 0.52946 0.82419 0.46223 0.0
H1303 H 0.53856 0.85703 0.50597 0.0
C1304 C 0.1759 0.36129 0.37213 0.0
C1305 C 0.22383 0.38053 0.35817 0.0
C1306 C 0.21782 0.44875 0.39626 0.0
C1307 C 0.16894 0.43059 0.40768 0.0
N1308 N 0.1016 0.36741 0.39842 0.0
N1309 N 0.2838 0.45042 0.35243 0.0
C1310 C 0.14868 0.38631 0.39298 0.0
C1311 C 0.24245 0.42636 0.36943 0.0
N1312 N 0.15636 0.31711 0.36806 0.0
N1313 N 0.24236 0.48805 0.41236 0.0
H1314 H 0.30173 0.43707 0.33268 0.0
H1315 H 0.29753 0.48448 0.35397 0.0
H1316 H 0.22616 0.50562 0.4295 0.0
H1317 H 0.27898 0.50147 0.41141 0.0
H1318 H 0.12521 0.29854 0.3816 0.0
H1319 H 0.17383 0.29789 0.35472 0.0
H1320 H 0.08137 0.33874 0.38447 0.0
H1321 H 0.08167 0.38301 0.41368 0.0
C1322 C 0.48264 0.12561 0.69675 0.0
C1323 C 0.48694 0.1665 0.67133 0.0
C1324 C 0.5356 0.14601 0.62268 0.0
C1325 C 0.53071 0.10438 0.64755 0.0
N1326 N 0.48258 0.04925 0.69567 0.0
N1327 N 0.50334 0.2084 0.60221 0.0
C1328 C 0.49929 0.09257 0.68111 0.0
C1329 C 0.50866 0.17423 0.6316 0.0
N1330 N 0.46374 0.1185 0.73611 0.0
N1331 N 0.56842 0.16045 0.59267 0.0
H1332 H 0.48351 0.22962 0.60762 0.0
H1333 H 0.5142 0.21265 0.57071 0.0
H1334 H 0.59165 0.14278 0.58758 0.0
H1335 H 0.57662 0.19223 0.57692 0.0
H1336 H 0.46408 0.09074 0.75756 0.0
H1337 H 0.45118 0.14189 0.7487 0.0
H1338 H 0.45681 0.03801 0.718 0.0
H1339 H 0.48966 0.02443 0.68024 0.0
C1340 C 0.91053 0.37432 0.66598 0.0
C1341 C 0.92739 0.36342 0.70997 0.0
C1342 C 1.00926 0.38367 0.68248 0.0
C1343 C 0.99347 0.40015 0.64014 0.0
N1344 N 0.92649 0.41332 0.59415 0.0
N1345 N 0.99706 0.36714 0.75988 0.0
C1346 C 0.94338 0.39622 0.63298 0.0
C1347 C 0.97791 0.37044 0.71783 0.0
N1348 N 0.86272 0.36139 0.6545 0.0
N1349 N 0.05464 0.38003 0.68948 0.0
H1350 H 0.97664 0.35986 0.78658 0.0
H1351 H 1.03355 0.37656 0.76866 0.0
H1352 H 0.07901 0.38997 0.66591 0.0
H1353 H 0.06671 0.3634 0.71731 0.0
H1354 H 0.84794 0.36329 0.62246 0.0
H1355 H 0.83789 0.34433 0.6763 0.0
H1356 H 0.89211 0.41669 0.58827 0.0
H1357 H 0.94798 0.42751 0.56884 0.0
C1358 C 0.23605 0.71535 0.6596 0.0
C1359 C 0.24619 0.69865 0.70329 0.0
C1360 C 0.20878 0.62186 0.67793 0.0
C1361 C 0.19375 0.63885 0.63538 0.0
N1362 N 0.19365 0.70494 0.58784 0.0
N1363 N 0.24001 0.63399 0.7536 0.0
C1364 C 0.20767 0.68645 0.62718 0.0
C1365 C 0.23249 0.65131 0.7119 0.0
N1366 N 0.25632 0.75913 0.64785 0.0
N1367 N 0.20027 0.57713 0.68659 0.0
H1368 H 0.25857 0.65316 0.77855 0.0
H1369 H 0.22521 0.60113 0.76459 0.0
H1370 H 0.18012 0.55432 0.66538 0.0
H1371 H 0.21568 0.56227 0.7137 0.0
H1372 H 0.25619 0.77304 0.61579 0.0
H1373 H 0.27778 0.78095 0.66957 0.0
H1374 H 0.19465 0.73825 0.5821 0.0
H1375 H 0.17927 0.68692 0.56103 0.0
loop_
_geom_bond_atom_site_label_1
_geom_bond_atom_site_label_2
_geom_bond_distance
_geom_bond_site_symmetry_2
_ccdc_geom_bond_type
Tb0 C9 2.764 . S
Tb0 O10 2.325 . S
Tb0 O13 2.303 . S
Tb0 O17 2.322 . S
Tb0 O18 2.349 . S
Tb0 O21 2.415 . S
Tb0 O22 2.399 . S
Tb1 O11 2.322 . S
Tb1 O12 2.349 . S
Tb1 O14 2.415 . S
Tb1 O15 2.399 . S
Tb1 O16 2.325 . S
Tb1 O19 2.303 . S
Tb1 C30 2.764 . S
C2 O18 1.261 . S
C2 O19 1.257 . S
C3 C6 1.358 . S
C3 C7 1.332 . S
C3 C9 1.504 . S
C4 C5 1.373 . S
C4 C8 1.308 . S
C5 C4 1.373 . S
C5 C6 1.429 . S
C5 H32 0.932 . S
C6 C3 1.358 . S
C6 C5 1.429 . S
C6 H33 0.930 . S
C7 C3 1.332 . S
C7 C8 1.394 . S
C7 H34 0.932 . S
C8 C4 1.308 . S
C8 C7 1.394 . S
C8 H35 0.929 . S
C9 Tb0 2.764 . S
C9 C3 1.504 . S
C9 O21 1.239 . S
C9 O22 1.263 . S
O10 Tb0 2.325 . S
O10 C20 1.236 . S
O11 Tb1 2.322 . S
O11 C20 1.257 . S
O12 Tb1 2.349 . S
O12 C23 1.261 . S
O13 Tb0 2.303 . S
O13 C23 1.257 . S
O14 Tb1 2.415 . S
O14 C30 1.239 . S
O15 Tb1 2.399 . S
O15 C30 1.263 . S
O16 Tb1 2.325 . S
O16 C31 1.236 . S
O17 Tb0 2.322 . S
O17 C31 1.257 . S
O18 Tb0 2.349 . S
O18 C2 1.261 . S
O19 Tb1 2.303 . S
O19 C2 1.257 . S
C20 O10 1.236 . S
C20 O11 1.257 . S
O21 Tb0 2.415 . S
O21 C9 1.239 . S
O22 Tb0 2.399 . S
O22 C9 1.263 . S
C23 O12 1.261 . S
C23 O13 1.257 . S
C24 C27 1.358 . S
C24 C28 1.332 . S
C24 C30 1.504 . S
C25 C26 1.373 . S
C25 C29 1.308 . S
C26 C25 1.373 . S
C26 C27 1.429 . S
C26 H36 0.932 . S
C27 C24 1.358 . S
C27 C26 1.429 . S
C27 H37 0.930 . S
C28 C24 1.332 . S
C28 C29 1.394 . S
C28 H38 0.932 . S
C29 C25 1.308 . S
C29 C28 1.394 . S
C29 H39 0.929 . S
C30 Tb1 2.764 . S
C30 O14 1.239 . S
C30 O15 1.263 . S
C30 C24 1.504 . S
C31 O16 1.236 . S
C31 O17 1.257 . S
H32 C5 0.932 . S
H33 C6 0.930 . S
H34 C7 0.932 . S
H35 C8 0.929 . S
H36 C26 0.932 . S
H37 C27 0.930 . S
H38 C28 0.932 . S
H39 C29 0.929 . S
Tb40 C49 2.764 . S
Tb40 O50 2.325 . S
Tb40 O53 2.303 . S
Tb40 O57 2.322 . S
Tb40 O58 2.349 . S
Tb40 O61 2.415 . S
Tb40 O62 2.399 . S
Tb41 O51 2.322 . S
Tb41 O52 2.349 . S
Tb41 O54 2.415 . S
Tb41 O55 2.399 . S
Tb41 O56 2.325 . S
Tb41 O59 2.303 . S
Tb41 C70 2.764 . S
C42 O58 1.261 . S
C42 O59 1.257 . S
C43 C46 1.358 . S
C43 C47 1.332 . S
C43 C49 1.504 . S
C44 C45 1.373 . S
C44 C48 1.308 . S
C45 C44 1.373 . S
C45 C46 1.429 . S
C45 H72 0.932 . S
C46 C43 1.358 . S
C46 C45 1.429 . S
C46 H73 0.930 . S
C47 C43 1.332 . S
C47 C48 1.394 . S
C47 H74 0.932 . S
C48 C44 1.308 . S
C48 C47 1.394 . S
C48 H75 0.929 . S
C49 Tb40 2.764 . S
C49 C43 1.504 . S
C49 O61 1.239 . S
C49 O62 1.263 . S
O50 Tb40 2.325 . S
O50 C60 1.236 . S
O51 Tb41 2.322 . S
O51 C60 1.257 . S
O52 Tb41 2.349 . S
O52 C63 1.261 . S
O53 Tb40 2.303 . S
O53 C63 1.257 . S
O54 Tb41 2.415 . S
O54 C70 1.239 . S
O55 Tb41 2.399 . S
O55 C70 1.263 . S
O56 Tb41 2.325 . S
O56 C71 1.236 . S
O57 Tb40 2.322 . S
O57 C71 1.257 . S
O58 Tb40 2.349 . S
O58 C42 1.261 . S
O59 Tb41 2.303 . S
O59 C42 1.257 . S
C60 O50 1.236 . S
C60 O51 1.257 . S
O61 Tb40 2.415 . S
O61 C49 1.239 . S
O62 Tb40 2.399 . S
O62 C49 1.263 . S
C63 O52 1.261 . S
C63 O53 1.257 . S
C64 C67 1.358 . S
C64 C68 1.332 . S
C64 C70 1.504 . S
C65 C66 1.373 . S
C65 C69 1.308 . S
C66 C65 1.373 . S
C66 C67 1.429 . S
C66 H76 0.932 . S
C67 C64 1.358 . S
C67 C66 1.429 . S
C67 H77 0.930 . S
C68 C64 1.332 . S
C68 C69 1.394 . S
C68 H78 0.932 . S
C69 C65 1.308 . S
C69 C68 1.394 . S
C69 H79 0.929 . S
C70 Tb41 2.764 . S
C70 O54 1.239 . S
C70 O55 1.263 . S
C70 C64 1.504 . S
C71 O56 1.236 . S
C71 O57 1.257 . S
H72 C45 0.932 . S
H73 C46 0.930 . S
H74 C47 0.932 . S
H75 C48 0.929 . S
H76 C66 0.932 . S
H77 C67 0.930 . S
H78 C68 0.932 . S
H79 C69 0.929 . S
Tb80 C89 2.764 . S
Tb80 O90 2.325 . S
Tb80 O93 2.303 . S
Tb80 O97 2.322 . S
Tb80 O98 2.349 . S
Tb80 O101 2.415 . S
Tb80 O102 2.399 . S
Tb81 O91 2.322 . S
Tb81 O92 2.349 . S
Tb81 O94 2.415 . S
Tb81 O95 2.399 . S
Tb81 O96 2.325 . S
Tb81 O99 2.303 . S
Tb81 C110 2.764 . S
C82 O98 1.261 . S
C82 O99 1.257 . S
C83 C86 1.358 . S
C83 C87 1.332 . S
C83 C89 1.504 . S
C84 C85 1.373 . S
C84 C88 1.308 . S
C85 C84 1.373 . S
C85 C86 1.429 . S
C85 H112 0.932 . S
C86 C83 1.358 . S
C86 C85 1.429 . S
C86 H113 0.930 . S
C87 C83 1.332 . S
C87 C88 1.394 . S
C87 H114 0.932 . S
C88 C84 1.308 . S
C88 C87 1.394 . S
C88 H115 0.929 . S
C89 Tb80 2.764 . S
C89 C83 1.504 . S
C89 O101 1.239 . S
C89 O102 1.263 . S
O90 Tb80 2.325 . S
O90 C100 1.236 . S
O91 Tb81 2.322 . S
O91 C100 1.257 . S
O92 Tb81 2.349 . S
O92 C103 1.261 . S
O93 Tb80 2.303 . S
O93 C103 1.257 . S
O94 Tb81 2.415 . S
O94 C110 1.239 . S
O95 Tb81 2.399 . S
O95 C110 1.263 . S
O96 Tb81 2.325 . S
O96 C111 1.236 . S
O97 Tb80 2.322 . S
O97 C111 1.257 . S
O98 Tb80 2.349 . S
O98 C82 1.261 . S
O99 Tb81 2.303 . S
O99 C82 1.257 . S
C100 O90 1.236 . S
C100 O91 1.257 . S
O101 Tb80 2.415 . S
O101 C89 1.239 . S
O102 Tb80 2.399 . S
O102 C89 1.263 . S
C103 O92 1.261 . S
C103 O93 1.257 . S
C104 C107 1.358 . S
C104 C108 1.332 . S
C104 C110 1.504 . S
C105 C106 1.373 . S
C105 C109 1.308 . S
C106 C105 1.373 . S
C106 C107 1.429 . S
C106 H116 0.932 . S
C107 C104 1.358 . S
C107 C106 1.429 . S
C107 H117 0.930 . S
C108 C104 1.332 . S
C108 C109 1.394 . S
C108 H118 0.932 . S
C109 C105 1.308 . S
C109 C108 1.394 . S
C109 H119 0.929 . S
C110 Tb81 2.764 . S
C110 O94 1.239 . S
C110 O95 1.263 . S
C110 C104 1.504 . S
C111 O96 1.236 . S
C111 O97 1.257 . S
H112 C85 0.932 . S
H113 C86 0.930 . S
H114 C87 0.932 . S
H115 C88 0.929 . S
H116 C106 0.932 . S
H117 C107 0.930 . S
H118 C108 0.932 . S
H119 C109 0.929 . S
Tb120 C129 2.764 . S
Tb120 O130 2.325 . S
Tb120 O133 2.303 . S
Tb120 O137 2.322 . S
Tb120 O138 2.349 . S
Tb120 O141 2.415 . S
Tb120 O142 2.399 . S
Tb121 O131 2.322 . S
Tb121 O132 2.349 . S
Tb121 O134 2.415 . S
Tb121 O135 2.399 . S
Tb121 O136 2.325 . S
Tb121 O139 2.303 . S
Tb121 C150 2.764 . S
C122 O138 1.261 . S
C122 O139 1.257 . S
C123 C126 1.358 . S
C123 C127 1.332 . S
C123 C129 1.504 . S
C124 C125 1.373 . S
C124 C128 1.308 . S
C125 C124 1.373 . S
C125 C126 1.429 . S
C125 H152 0.932 . S
C126 C123 1.358 . S
C126 C125 1.429 . S
C126 H153 0.930 . S
C127 C123 1.332 . S
C127 C128 1.394 . S
C127 H154 0.932 . S
C128 C124 1.308 . S
C128 C127 1.394 . S
C128 H155 0.929 . S
C129 Tb120 2.764 . S
C129 C123 1.504 . S
C129 O141 1.239 . S
C129 O142 1.263 . S
O130 Tb120 2.325 . S
O130 C140 1.236 . S
O131 Tb121 2.322 . S
O131 C140 1.257 . S
O132 Tb121 2.349 . S
O132 C143 1.261 . S
O133 Tb120 2.303 . S
O133 C143 1.257 . S
O134 Tb121 2.415 . S
O134 C150 1.239 . S
O135 Tb121 2.399 . S
O135 C150 1.263 . S
O136 Tb121 2.325 . S
O136 C151 1.236 . S
O137 Tb120 2.322 . S
O137 C151 1.257 . S
O138 Tb120 2.349 . S
O138 C122 1.261 . S
O139 Tb121 2.303 . S
O139 C122 1.257 . S
C140 O130 1.236 . S
C140 O131 1.257 . S
O141 Tb120 2.415 . S
O141 C129 1.239 . S
O142 Tb120 2.399 . S
O142 C129 1.263 . S
C143 O132 1.261 . S
C143 O133 1.257 . S
C144 C147 1.358 . S
C144 C148 1.332 . S
C144 C150 1.504 . S
C145 C146 1.373 . S
C145 C149 1.308 . S
C146 C145 1.373 . S
C146 C147 1.429 . S
C146 H156 0.932 . S
C147 C144 1.358 . S
C147 C146 1.429 . S
C147 H157 0.930 . S
C148 C144 1.332 . S
C148 C149 1.394 . S
C148 H158 0.932 . S
C149 C145 1.308 . S
C149 C148 1.394 . S
C149 H159 0.929 . S
C150 Tb121 2.764 . S
C150 O134 1.239 . S
C150 O135 1.263 . S
C150 C144 1.504 . S
C151 O136 1.236 . S
C151 O137 1.257 . S
H152 C125 0.932 . S
H153 C126 0.930 . S
H154 C127 0.932 . S
H155 C128 0.929 . S
H156 C146 0.932 . S
H157 C147 0.930 . S
H158 C148 0.932 . S
H159 C149 0.929 . S
Tb160 C169 2.764 . S
Tb160 O170 2.325 . S
Tb160 O173 2.303 . S
Tb160 O177 2.322 . S
Tb160 O178 2.349 . S
Tb160 O181 2.415 . S
Tb160 O182 2.399 . S
Tb161 O171 2.322 . S
Tb161 O172 2.349 . S
Tb161 O174 2.415 . S
Tb161 O175 2.399 . S
Tb161 O176 2.325 . S
Tb161 O179 2.303 . S
Tb161 C190 2.764 . S
C162 O178 1.261 . S
C162 O179 1.257 . S
C163 C166 1.358 . S
C163 C167 1.332 . S
C163 C169 1.504 . S
C164 C165 1.373 . S
C164 C168 1.308 . S
C165 C164 1.373 . S
C165 C166 1.429 . S
C165 H192 0.932 . S
C166 C163 1.358 . S
C166 C165 1.429 . S
C166 H193 0.930 . S
C167 C163 1.332 . S
C167 C168 1.394 . S
C167 H194 0.932 . S
C168 C164 1.308 . S
C168 C167 1.394 . S
C168 H195 0.929 . S
C169 Tb160 2.764 . S
C169 C163 1.504 . S
C169 O181 1.239 . S
C169 O182 1.263 . S
O170 Tb160 2.325 . S
O170 C180 1.236 . S
O171 Tb161 2.322 . S
O171 C180 1.257 . S
O172 Tb161 2.349 . S
O172 C183 1.261 . S
O173 Tb160 2.303 . S
O173 C183 1.257 . S
O174 Tb161 2.415 . S
O174 C190 1.239 . S
O175 Tb161 2.399 . S
O175 C190 1.263 . S
O176 Tb161 2.325 . S
O176 C191 1.236 . S
O177 Tb160 2.322 . S
O177 C191 1.257 . S
O178 Tb160 2.349 . S
O178 C162 1.261 . S
O179 Tb161 2.303 . S
O179 C162 1.257 . S
C180 O170 1.236 . S
C180 O171 1.257 . S
O181 Tb160 2.415 . S
O181 C169 1.239 . S
O182 Tb160 2.399 . S
O182 C169 1.263 . S
C183 O172 1.261 . S
C183 O173 1.257 . S
C184 C187 1.358 . S
C184 C188 1.332 . S
C184 C190 1.504 . S
C185 C186 1.373 . S
C185 C189 1.308 . S
C186 C185 1.373 . S
C186 C187 1.429 . S
C186 H196 0.932 . S
C187 C184 1.358 . S
C187 C186 1.429 . S
C187 H197 0.930 . S
C188 C184 1.332 . S
C188 C189 1.394 . S
C188 H198 0.932 . S
C189 C185 1.308 . S
C189 C188 1.394 . S
C189 H199 0.929 . S
C190 Tb161 2.764 . S
C190 O174 1.239 . S
C190 O175 1.263 . S
C190 C184 1.504 . S
C191 O176 1.236 . S
C191 O177 1.257 . S
H192 C165 0.932 . S
H193 C166 0.930 . S
H194 C167 0.932 . S
H195 C168 0.929 . S
H196 C186 0.932 . S
H197 C187 0.930 . S
H198 C188 0.932 . S
H199 C189 0.929 . S
Tb200 C209 2.764 . S
Tb200 O210 2.325 . S
Tb200 O213 2.303 . S
Tb200 O217 2.322 . S
Tb200 O218 2.349 . S
Tb200 O221 2.415 . S
Tb200 O222 2.399 . S
Tb201 O211 2.322 . S
Tb201 O212 2.349 . S
Tb201 O214 2.415 . S
Tb201 O215 2.399 . S
Tb201 O216 2.325 . S
Tb201 O219 2.303 . S
Tb201 C230 2.764 . S
C202 O218 1.261 . S
C202 O219 1.257 . S
C203 C206 1.358 . S
C203 C207 1.332 . S
C203 C209 1.504 . S
C204 C205 1.373 . S
C204 C208 1.308 . S
C205 C204 1.373 . S
C205 C206 1.429 . S
C205 H232 0.932 . S
C206 C203 1.358 . S
C206 C205 1.429 . S
C206 H233 0.930 . S
C207 C203 1.332 . S
C207 C208 1.394 . S
C207 H234 0.932 . S
C208 C204 1.308 . S
C208 C207 1.394 . S
C208 H235 0.929 . S
C209 Tb200 2.764 . S
C209 C203 1.504 . S
C209 O221 1.239 . S
C209 O222 1.263 . S
O210 Tb200 2.325 . S
O210 C220 1.236 . S
O211 Tb201 2.322 . S
O211 C220 1.257 . S
O212 Tb201 2.349 . S
O212 C223 1.261 . S
O213 Tb200 2.303 . S
O213 C223 1.257 . S
O214 Tb201 2.415 . S
O214 C230 1.239 . S
O215 Tb201 2.399 . S
O215 C230 1.263 . S
O216 Tb201 2.325 . S
O216 C231 1.236 . S
O217 Tb200 2.322 . S
O217 C231 1.257 . S
O218 Tb200 2.349 . S
O218 C202 1.261 . S
O219 Tb201 2.303 . S
O219 C202 1.257 . S
C220 O210 1.236 . S
C220 O211 1.257 . S
O221 Tb200 2.415 . S
O221 C209 1.239 . S
O222 Tb200 2.399 . S
O222 C209 1.263 . S
C223 O212 1.261 . S
C223 O213 1.257 . S
C224 C227 1.358 . S
C224 C228 1.332 . S
C224 C230 1.504 . S
C225 C226 1.373 . S
C225 C229 1.308 . S
C226 C225 1.373 . S
C226 C227 1.429 . S
C226 H236 0.932 . S
C227 C224 1.358 . S
C227 C226 1.429 . S
C227 H237 0.930 . S
C228 C224 1.332 . S
C228 C229 1.394 . S
C228 H238 0.932 . S
C229 C225 1.308 . S
C229 C228 1.394 . S
C229 H239 0.929 . S
C230 Tb201 2.764 . S
C230 O214 1.239 . S
C230 O215 1.263 . S
C230 C224 1.504 . S
C231 O216 1.236 . S
C231 O217 1.257 . S
H232 C205 0.932 . S
H233 C206 0.930 . S
H234 C207 0.932 . S
H235 C208 0.929 . S
H236 C226 0.932 . S
H237 C227 0.930 . S
H238 C228 0.932 . S
H239 C229 0.929 . S
Tb240 C249 2.764 . S
Tb240 O250 2.325 . S
Tb240 O253 2.303 . S
Tb240 O257 2.322 . S
Tb240 O258 2.349 . S
Tb240 O261 2.415 . S
Tb240 O262 2.399 . S
Tb241 O251 2.322 . S
Tb241 O252 2.349 . S
Tb241 O254 2.415 . S
Tb241 O255 2.399 . S
Tb241 O256 2.325 . S
Tb241 O259 2.303 . S
Tb241 C270 2.764 . S
C242 O258 1.261 . S
C242 O259 1.257 . S
C243 C246 1.358 . S
C243 C247 1.332 . S
C243 C249 1.504 . S
C244 C245 1.373 . S
C244 C248 1.308 . S
C245 C244 1.373 . S
C245 C246 1.429 . S
C245 H272 0.932 . S
C246 C243 1.358 . S
C246 C245 1.429 . S
C246 H273 0.930 . S
C247 C243 1.332 . S
C247 C248 1.394 . S
C247 H274 0.932 . S
C248 C244 1.308 . S
C248 C247 1.394 . S
C248 H275 0.929 . S
C249 Tb240 2.764 . S
C249 C243 1.504 . S
C249 O261 1.239 . S
C249 O262 1.263 . S
O250 Tb240 2.325 . S
O250 C260 1.236 . S
O251 Tb241 2.322 . S
O251 C260 1.257 . S
O252 Tb241 2.349 . S
O252 C263 1.261 . S
O253 Tb240 2.303 . S
O253 C263 1.257 . S
O254 Tb241 2.415 . S
O254 C270 1.239 . S
O255 Tb241 2.399 . S
O255 C270 1.263 . S
O256 Tb241 2.325 . S
O256 C271 1.236 . S
O257 Tb240 2.322 . S
O257 C271 1.257 . S
O258 Tb240 2.349 . S
O258 C242 1.261 . S
O259 Tb241 2.303 . S
O259 C242 1.257 . S
C260 O250 1.236 . S
C260 O251 1.257 . S
O261 Tb240 2.415 . S
O261 C249 1.239 . S
O262 Tb240 2.399 . S
O262 C249 1.263 . S
C263 O252 1.261 . S
C263 O253 1.257 . S
C264 C267 1.358 . S
C264 C268 1.332 . S
C264 C270 1.504 . S
C265 C266 1.373 . S
C265 C269 1.308 . S
C266 C265 1.373 . S
C266 C267 1.429 . S
C266 H276 0.932 . S
C267 C264 1.358 . S
C267 C266 1.429 . S
C267 H277 0.930 . S
C268 C264 1.332 . S
C268 C269 1.394 . S
C268 H278 0.932 . S
C269 C265 1.308 . S
C269 C268 1.394 . S
C269 H279 0.929 . S
C270 Tb241 2.764 . S
C270 O254 1.239 . S
C270 O255 1.263 . S
C270 C264 1.504 . S
C271 O256 1.236 . S
C271 O257 1.257 . S
H272 C245 0.932 . S
H273 C246 0.930 . S
H274 C247 0.932 . S
H275 C248 0.929 . S
H276 C266 0.932 . S
H277 C267 0.930 . S
H278 C268 0.932 . S
H279 C269 0.929 . S
Tb280 C289 2.764 . S
Tb280 O290 2.325 . S
Tb280 O293 2.303 . S
Tb280 O297 2.322 . S
Tb280 O298 2.349 . S
Tb280 O301 2.415 . S
Tb280 O302 2.399 . S
Tb281 O291 2.322 . S
Tb281 O292 2.349 . S
Tb281 O294 2.415 . S
Tb281 O295 2.399 . S
Tb281 O296 2.325 . S
Tb281 O299 2.303 . S
Tb281 C310 2.764 . S
C282 O298 1.261 . S
C282 O299 1.257 . S
C283 C286 1.358 . S
C283 C287 1.332 . S
C283 C289 1.504 . S
C284 C285 1.373 . S
C284 C288 1.308 . S
C285 C284 1.373 . S
C285 C286 1.429 . S
C285 H312 0.932 . S
C286 C283 1.358 . S
C286 C285 1.429 . S
C286 H313 0.930 . S
C287 C283 1.332 . S
C287 C288 1.394 . S
C287 H314 0.932 . S
C288 C284 1.308 . S
C288 C287 1.394 . S
C288 H315 0.929 . S
C289 Tb280 2.764 . S
C289 C283 1.504 . S
C289 O301 1.239 . S
C289 O302 1.263 . S
O290 Tb280 2.325 . S
O290 C300 1.236 . S
O291 Tb281 2.322 . S
O291 C300 1.257 . S
O292 Tb281 2.349 . S
O292 C303 1.261 . S
O293 Tb280 2.303 . S
O293 C303 1.257 . S
O294 Tb281 2.415 . S
O294 C310 1.239 . S
O295 Tb281 2.399 . S
O295 C310 1.263 . S
O296 Tb281 2.325 . S
O296 C311 1.236 . S
O297 Tb280 2.322 . S
O297 C311 1.257 . S
O298 Tb280 2.349 . S
O298 C282 1.261 . S
O299 Tb281 2.303 . S
O299 C282 1.257 . S
C300 O290 1.236 . S
C300 O291 1.257 . S
O301 Tb280 2.415 . S
O301 C289 1.239 . S
O302 Tb280 2.399 . S
O302 C289 1.263 . S
C303 O292 1.261 . S
C303 O293 1.257 . S
C304 C307 1.358 . S
C304 C308 1.332 . S
C304 C310 1.504 . S
C305 C306 1.373 . S
C305 C309 1.308 . S
C306 C305 1.373 . S
C306 C307 1.429 . S
C306 H316 0.932 . S
C307 C304 1.358 . S
C307 C306 1.429 . S
C307 H317 0.930 . S
C308 C304 1.332 . S
C308 C309 1.394 . S
C308 H318 0.932 . S
C309 C305 1.308 . S
C309 C308 1.394 . S
C309 H319 0.929 . S
C310 Tb281 2.764 . S
C310 O294 1.239 . S
C310 O295 1.263 . S
C310 C304 1.504 . S
C311 O296 1.236 . S
C311 O297 1.257 . S
H312 C285 0.932 . S
H313 C286 0.930 . S
H314 C287 0.932 . S
H315 C288 0.929 . S
H316 C306 0.932 . S
H317 C307 0.930 . S
H318 C308 0.932 . S
H319 C309 0.929 . S
Fe320 O321 1.886 1_455 S
Fe320 O324 1.715 . S
Fe320 O329 2.077 1_455 S
Fe320 O334 1.935 . S
Fe320 O340 2.077 1_455 S
Fe320 O349 1.935 . S
O321 Fe320 1.886 1_655 S
O321 Fe323 1.715 . S
Fe322 O324 1.886 . S
Fe322 O325 1.715 1_545 S
Fe322 O332 1.935 . S
Fe322 O333 2.077 . S
Fe322 O339 1.935 . S
Fe322 O348 2.077 . S
Fe323 O321 1.715 . S
Fe323 O326 1.886 1_545 S
Fe323 O330 1.935 . S
Fe323 O335 2.077 1_545 S
Fe323 O341 1.935 . S
Fe323 O345 2.077 1_545 S
O324 Fe320 1.715 . S
O324 Fe322 1.886 . S
O325 Fe322 1.715 1_565 S
O325 Fe327 1.886 . S
O326 Fe323 1.886 1_565 S
O326 Fe327 1.715 1_655 S
Fe327 O325 1.886 . S
Fe327 O326 1.715 1_455 S
Fe327 O331 2.077 . S
Fe327 O336 1.935 1_455 S
Fe327 O338 2.077 . S
Fe327 O346 1.935 1_455 S
C328 O340 1.381 . S
C328 O341 1.421 . S
O329 Fe320 2.077 1_655 S
O329 C342 1.381 . S
O330 Fe323 1.935 . S
O330 C342 1.421 . S
O331 Fe327 2.077 . S
O331 C347 1.381 . S
O332 Fe322 1.935 . S
O332 C347 1.421 1_545 S
O333 Fe322 2.077 . S
O333 C337 1.381 . S
O334 Fe320 1.935 . S
O334 C337 1.421 . S
O335 Fe323 2.077 1_565 S
O335 C343 1.381 . S
O336 Fe327 1.935 1_655 S
O336 C343 1.421 . S
C337 O333 1.381 . S
C337 O334 1.421 . S
O338 Fe327 2.077 . S
O338 C350 1.381 . S
O339 Fe322 1.935 . S
O339 C350 1.421 1_545 S
O340 Fe320 2.077 1_655 S
O340 C328 1.381 . S
O341 Fe323 1.935 . S
O341 C328 1.421 . S
C342 O329 1.381 . S
C342 O330 1.421 . S
C343 O335 1.381 . S
C343 O336 1.421 . S
C344 O345 1.381 . S
C344 O346 1.421 . S
O345 Fe323 2.077 1_565 S
O345 C344 1.381 . S
O346 Fe327 1.935 1_655 S
O346 C344 1.421 . S
C347 O331 1.381 . S
C347 O332 1.421 1_565 S
O348 Fe322 2.077 . S
O348 C351 1.381 . S
O349 Fe320 1.935 . S
O349 C351 1.421 . S
C350 O338 1.381 . S
C350 O339 1.421 1_565 S
C351 O348 1.381 . S
C351 O349 1.421 . S
Fe352 O353 1.886 1_565 S
Fe352 O356 1.715 . S
Fe352 O361 2.077 . S
Fe352 O366 1.935 . S
Fe352 O372 2.077 . S
Fe352 O381 1.935 . S
O353 Fe352 1.886 1_545 S
O353 Fe355 1.715 . S
Fe354 O356 1.886 1_545 S
Fe354 O357 1.715 . S
Fe354 O364 1.935 . S
Fe354 O365 2.077 1_545 S
Fe354 O371 1.935 . S
Fe354 O380 2.077 1_545 S
Fe355 O353 1.715 . S
Fe355 O358 1.886 . S
Fe355 O362 1.935 . S
Fe355 O367 2.077 . S
Fe355 O373 1.935 . S
Fe355 O377 2.077 . S
O356 Fe352 1.715 . S
O356 Fe354 1.886 1_565 S
O357 Fe354 1.715 . S
O357 Fe359 1.886 . S
O358 Fe355 1.886 . S
O358 Fe359 1.715 . S
Fe359 O357 1.886 . S
Fe359 O358 1.715 . S
Fe359 O363 2.077 . S
Fe359 O368 1.935 . S
Fe359 O370 2.077 . S
Fe359 O378 1.935 . S
C360 O372 1.381 . S
C360 O373 1.421 1_565 S
O361 Fe352 2.077 . S
O361 C374 1.382 . S
O362 Fe355 1.935 . S
O362 C374 1.421 1_545 S
O363 Fe359 2.077 . S
O363 C379 1.381 1_554 S
O364 Fe354 1.935 . S
O364 C379 1.421 1_554 S
O365 Fe354 2.077 1_565 S
O365 C369 1.381 1_554 S
O366 Fe352 1.935 . S
O366 C369 1.421 1_554 S
O367 Fe355 2.077 . S
O367 C375 1.381 1_554 S
O368 Fe359 1.935 . S
O368 C375 1.421 1_554 S
C369 O365 1.381 1_556 S
C369 O366 1.421 1_556 S
O370 Fe359 2.077 . S
O370 C382 1.381 . S
O371 Fe354 1.935 . S
O371 C382 1.421 . S
O372 Fe352 2.077 . S
O372 C360 1.381 . S
O373 Fe355 1.935 . S
O373 C360 1.421 1_545 S
C374 O361 1.382 . S
C374 O362 1.421 1_565 S
C375 O367 1.381 1_556 S
C375 O368 1.421 1_556 S
C376 O377 1.381 . S
C376 O378 1.421 . S
O377 Fe355 2.077 . S
O377 C376 1.381 . S
O378 Fe359 1.935 . S
O378 C376 1.421 . S
C379 O363 1.381 1_556 S
C379 O364 1.421 1_556 S
O380 Fe354 2.077 1_565 S
O380 C383 1.381 . S
O381 Fe352 1.935 . S
O381 C383 1.421 . S
C382 O370 1.381 . S
C382 O371 1.421 . S
C383 O380 1.381 . S
C383 O381 1.421 . S
Fe384 O385 1.886 1_455 S
Fe384 O388 1.715 1_556 S
Fe384 O393 2.077 1_455 S
Fe384 O398 1.935 . S
Fe384 O404 2.077 1_456 S
Fe384 O413 1.935 1_556 S
O385 Fe384 1.886 1_655 S
O385 Fe387 1.715 . S
Fe386 O388 1.886 . S
Fe386 O389 1.715 . S
Fe386 O396 1.935 1_554 S
Fe386 O397 2.077 1_554 S
Fe386 O403 1.935 . S
Fe386 O412 2.077 . S
Fe387 O385 1.715 . S
Fe387 O390 1.886 1_556 S
Fe387 O394 1.935 . S
Fe387 O399 2.077 . S
Fe387 O405 1.935 1_556 S
Fe387 O409 2.077 1_556 S
O388 Fe384 1.715 1_554 S
O388 Fe386 1.886 . S
O389 Fe386 1.715 . S
O389 Fe391 1.886 1_455 S
O390 Fe387 1.886 1_554 S
O390 Fe391 1.715 . S
Fe391 O389 1.886 1_655 S
Fe391 O390 1.715 . S
Fe391 O395 2.077 1_654 S
Fe391 O400 1.935 1_554 S
Fe391 O402 2.077 1_655 S
Fe391 O410 1.935 . S
C392 O404 1.381 . S
C392 O405 1.421 . S
O393 Fe384 2.077 1_655 S
O393 C406 1.381 . S
O394 Fe387 1.935 . S
O394 C406 1.421 . S
O395 Fe391 2.077 1_456 S
O395 C411 1.381 . S
O396 Fe386 1.935 1_556 S
O396 C411 1.421 . S
O397 Fe386 2.077 1_556 S
O397 C401 1.381 . S
O398 Fe384 1.935 . S
O398 C401 1.421 . S
O399 Fe387 2.077 . S
O399 C407 1.381 . S
O400 Fe391 1.935 1_556 S
O400 C407 1.421 . S
C401 O397 1.381 . S
C401 O398 1.421 . S
O402 Fe391 2.077 1_455 S
O402 C414 1.381 . S
O403 Fe386 1.935 . S
O403 C414 1.421 . S
O404 Fe384 2.077 1_654 S
O404 C392 1.381 . S
O405 Fe387 1.935 1_554 S
O405 C392 1.421 . S
C406 O393 1.381 . S
C406 O394 1.421 . S
C407 O399 1.381 . S
C407 O400 1.421 . S
C408 O409 1.381 . S
C408 O410 1.421 . S
O409 Fe387 2.077 1_554 S
O409 C408 1.381 . S
O410 Fe391 1.935 . S
O410 C408 1.421 . S
C411 O395 1.381 . S
C411 O396 1.421 . S
O412 Fe386 2.077 . S
O412 C415 1.381 . S
O413 Fe384 1.935 1_554 S
O413 C415 1.421 . S
C414 O402 1.381 . S
C414 O403 1.421 . S
C415 O412 1.381 . S
C415 O413 1.421 . S
Fe416 O417 1.886 . S
Fe416 O420 1.715 . S
Fe416 O425 2.077 . S
Fe416 O430 1.935 . S
Fe416 O436 2.077 . S
Fe416 O445 1.935 . S
O417 Fe416 1.886 . S
O417 Fe419 1.715 1_556 S
Fe418 O420 1.886 1_554 S
Fe418 O421 1.715 . S
Fe418 O428 1.935 . S
Fe418 O429 2.077 1_554 S
Fe418 O435 1.935 . S
Fe418 O444 2.077 1_554 S
Fe419 O417 1.715 1_554 S
Fe419 O422 1.886 . S
Fe419 O426 1.945 . S
Fe419 O431 2.077 . S
Fe419 O437 1.935 . S
Fe419 O441 2.077 . S
O420 Fe416 1.715 . S
O420 Fe418 1.886 1_556 S
O421 Fe418 1.715 . S
O421 Fe423 1.886 . S
O422 Fe419 1.886 . S
O422 Fe423 1.715 . S
Fe423 O421 1.886 . S
Fe423 O422 1.715 . S
Fe423 O427 2.077 . S
Fe423 O432 1.935 . S
Fe423 O434 2.077 . S
Fe423 O442 1.935 . S
C424 O436 1.381 . S
C424 O437 1.421 1_556 S
O425 Fe416 2.077 . S
O425 C438 1.381 . S
O426 Fe419 1.945 . S
O426 C438 1.404 1_554 S
O427 Fe423 2.077 . S
O427 C443 1.381 . S
O428 Fe418 1.935 . S
O428 C443 1.421 . S
O429 Fe418 2.077 1_556 S
O429 C433 1.381 . S
O430 Fe416 1.935 . S
O430 C433 1.421 . S
O431 Fe419 2.077 . S
O431 C439 1.381 . S
O432 Fe423 1.935 . S
O432 C439 1.421 . S
C433 O429 1.381 . S
C433 O430 1.421 . S
O434 Fe423 2.077 . S
O434 C446 1.381 . S
O435 Fe418 1.935 . S
O435 C446 1.421 . S
O436 Fe416 2.077 . S
O436 C424 1.381 . S
O437 Fe419 1.935 . S
O437 C424 1.421 1_554 S
C438 O425 1.381 . S
C438 O426 1.404 1_556 S
C439 O431 1.381 . S
C439 O432 1.421 . S
C440 O441 1.381 . S
C440 O442 1.421 . S
O441 Fe419 2.077 . S
O441 C440 1.381 . S
O442 Fe423 1.935 . S
O442 C440 1.421 . S
C443 O427 1.381 . S
C443 O428 1.421 . S
O444 Fe418 2.077 1_556 S
O444 C447 1.381 . S
O445 Fe416 1.935 . S
O445 C447 1.421 . S
C446 O434 1.381 . S
C446 O435 1.421 . S
C447 O444 1.381 . S
C447 O445 1.421 . S
Fe448 O449 1.886 . S
Fe448 O452 1.715 . S
Fe448 O457 2.077 . S
Fe448 O462 1.935 . S
Fe448 O468 2.077 1_455 S
Fe448 O477 1.935 1_455 S
O449 Fe448 1.886 . S
O449 Fe451 1.715 . S
Fe450 O452 1.886 . S
Fe450 O453 1.715 . S
Fe450 O460 1.935 . S
Fe450 O461 2.077 . S
Fe450 O467 1.935 1_455 S
Fe450 O476 2.077 1_455 S
Fe451 O449 1.715 . S
Fe451 O454 1.886 . S
Fe451 O458 1.935 . S
Fe451 O463 2.077 . S
Fe451 O469 1.935 1_455 S
Fe451 O473 2.077 . S
O452 Fe448 1.715 . S
O452 Fe450 1.886 . S
O453 Fe450 1.715 . S
O453 Fe455 1.886 . S
O454 Fe451 1.886 . S
O454 Fe455 1.715 . S
Fe455 O453 1.886 . S
Fe455 O454 1.715 . S
Fe455 O459 2.077 . S
Fe455 O464 1.935 . S
Fe455 O466 2.077 . S
Fe455 O474 1.935 . S
C456 O468 1.381 . S
C456 O469 1.421 . S
O457 Fe448 2.077 . S
O457 C470 1.381 . S
O458 Fe451 1.935 . S
O458 C470 1.421 . S
O459 Fe455 2.077 . S
O459 C475 1.381 . S
O460 Fe450 1.935 . S
O460 C475 1.421 . S
O461 Fe450 2.077 . S
O461 C465 1.381 . S
O462 Fe448 1.935 . S
O462 C465 1.421 . S
O463 Fe451 2.077 . S
O463 C471 1.381 . S
O464 Fe455 1.935 . S
O464 C471 1.421 . S
C465 O461 1.381 . S
C465 O462 1.421 . S
O466 Fe455 2.077 . S
O466 C478 1.381 1_455 S
O467 Fe450 1.935 1_655 S
O467 C478 1.421 . S
O468 Fe448 2.077 1_655 S
O468 C456 1.381 . S
O469 Fe451 1.935 1_655 S
O469 C456 1.421 . S
C470 O457 1.381 . S
C470 O458 1.421 . S
C471 O463 1.381 . S
C471 O464 1.421 . S
C472 O473 1.381 1_655 S
C472 O474 1.421 1_655 S
O473 Fe451 2.077 . S
O473 C472 1.381 1_455 S
O474 Fe455 1.935 . S
O474 C472 1.421 1_455 S
C475 O459 1.381 . S
C475 O460 1.421 . S
O476 Fe450 2.077 1_655 S
O476 C479 1.381 . S
O477 Fe448 1.935 1_655 S
O477 C479 1.421 . S
C478 O466 1.381 1_655 S
C478 O467 1.421 . S
C479 O476 1.381 . S
C479 O477 1.421 . S
Fe480 O481 1.886 . S
Fe480 O484 1.715 . S
Fe480 O489 2.077 . S
Fe480 O494 1.935 . S
Fe480 O500 2.077 . S
Fe480 O509 1.935 . S
O481 Fe480 1.886 . S
O481 Fe483 1.715 1_565 S
Fe482 O484 1.886 1_545 S
Fe482 O485 1.715 . S
Fe482 O492 1.935 . S
Fe482 O493 2.077 1_545 S
Fe482 O499 1.935 . S
Fe482 O508 2.077 1_545 S
Fe483 O481 1.715 1_545 S
Fe483 O486 1.886 . S
Fe483 O490 1.935 1_545 S
Fe483 O495 2.077 . S
Fe483 O501 1.935 1_545 S
Fe483 O505 2.077 . S
O484 Fe480 1.715 . S
O484 Fe482 1.886 1_565 S
O485 Fe482 1.715 . S
O485 Fe487 1.886 . S
O486 Fe483 1.886 . S
O486 Fe487 1.715 . S
Fe487 O485 1.886 . S
Fe487 O486 1.715 . S
Fe487 O491 2.077 . S
Fe487 O496 1.935 . S
Fe487 O498 2.077 . S
Fe487 O506 1.935 . S
C488 O500 1.381 . S
C488 O501 1.421 . S
O489 Fe480 2.077 . S
O489 C502 1.381 . S
O490 Fe483 1.935 1_565 S
O490 C502 1.421 . S
O491 Fe487 2.077 . S
O491 C507 1.381 . S
O492 Fe482 1.935 . S
O492 C507 1.421 . S
O493 Fe482 2.077 1_565 S
O493 C497 1.381 . S
O494 Fe480 1.935 . S
O494 C497 1.421 . S
O495 Fe483 2.077 . S
O495 C503 1.381 . S
O496 Fe487 1.935 . S
O496 C503 1.421 . S
C497 O493 1.381 . S
C497 O494 1.421 . S
O498 Fe487 2.077 . S
O498 C510 1.381 . S
O499 Fe482 1.935 . S
O499 C510 1.421 . S
O500 Fe480 2.077 . S
O500 C488 1.381 . S
O501 Fe483 1.935 1_565 S
O501 C488 1.421 . S
C502 O489 1.381 . S
C502 O490 1.421 . S
C503 O495 1.381 . S
C503 O496 1.421 . S
C504 O505 1.381 . S
C504 O506 1.421 . S
O505 Fe483 2.077 . S
O505 C504 1.381 . S
O506 Fe487 1.935 . S
O506 C504 1.421 . S
C507 O491 1.381 . S
C507 O492 1.421 . S
O508 Fe482 2.077 1_565 S
O508 C511 1.381 . S
O509 Fe480 1.935 . S
O509 C511 1.421 . S
C510 O498 1.381 . S
C510 O499 1.421 . S
C511 O508 1.381 . S
C511 O509 1.421 . S
C512 C513 1.363 . S
C512 C518 1.379 . S
C512 N520 1.356 . S
C513 C512 1.363 . S
C513 C519 1.363 . S
C514 C515 1.363 . S
C514 C519 1.379 . S
C514 N521 1.356 . S
C515 C514 1.363 . S
C515 C518 1.363 . S
N516 C518 1.356 . S
N516 H528 0.984 . S
N516 H529 0.985 . S
N517 C519 1.356 . S
N517 H522 0.984 . S
N517 H523 0.985 . S
C518 C512 1.379 . S
C518 C515 1.363 . S
C518 N516 1.356 . S
C519 C513 1.363 . S
C519 C514 1.379 . S
C519 N517 1.356 . S
N520 C512 1.356 . S
N520 H526 0.984 . S
N520 H527 0.984 . S
N521 C514 1.356 . S
N521 H524 0.984 . S
N521 H525 0.985 . S
H522 N517 0.984 . S
H523 N517 0.985 . S
H524 N521 0.984 . S
H525 N521 0.985 . S
H526 N520 0.984 . S
H527 N520 0.984 . S
H528 N516 0.984 . S
H529 N516 0.985 . S
C530 C531 1.363 . S
C530 C536 1.379 . S
C530 N538 1.356 . S
C531 C530 1.363 . S
C531 C537 1.363 . S
C532 C533 1.363 . S
C532 C537 1.379 . S
C532 N539 1.356 1_655 S
C533 C532 1.363 . S
C533 C536 1.363 . S
N534 C536 1.356 . S
N534 H546 0.984 . S
N534 H547 0.985 . S
N535 C537 1.356 . S
N535 H540 0.984 . S
N535 H541 0.985 . S
C536 C530 1.379 . S
C536 C533 1.363 . S
C536 N534 1.356 . S
C537 C531 1.363 . S
C537 C532 1.379 . S
C537 N535 1.356 . S
N538 C530 1.356 . S
N538 H544 0.984 . S
N538 H545 0.984 . S
N539 C532 1.356 1_455 S
N539 H542 0.984 . S
N539 H543 0.985 . S
H540 N535 0.984 . S
H541 N535 0.985 . S
H542 N539 0.984 . S
H543 N539 0.985 . S
H544 N538 0.984 . S
H545 N538 0.984 . S
H546 N534 0.984 . S
H547 N534 0.985 . S
C548 C549 1.363 . S
C548 C554 1.379 . S
C548 N556 1.356 . S
C549 C548 1.363 . S
C549 C555 1.363 . S
C550 C551 1.363 . S
C550 C555 1.379 . S
C550 N557 1.356 . S
C551 C550 1.363 . S
C551 C554 1.363 . S
N552 C554 1.356 . S
N552 H564 0.984 . S
N552 H565 0.985 . S
N553 C555 1.356 . S
N553 H558 0.984 . S
N553 H559 0.985 . S
C554 C548 1.379 . S
C554 C551 1.363 . S
C554 N552 1.356 . S
C555 C549 1.363 . S
C555 C550 1.379 . S
C555 N553 1.356 . S
N556 C548 1.356 . S
N556 H562 0.984 . S
N556 H563 0.984 . S
N557 C550 1.356 . S
N557 H560 0.984 . S
N557 H561 0.985 . S
H558 N553 0.984 . S
H559 N553 0.985 . S
H560 N557 0.984 . S
H561 N557 0.985 . S
H562 N556 0.984 . S
H563 N556 0.984 . S
H564 N552 0.984 . S
H565 N552 0.985 . S
C566 C567 1.363 . S
C566 C572 1.379 . S
C566 N574 1.356 . S
C567 C566 1.363 . S
C567 C573 1.363 . S
C568 C569 1.363 . S
C568 C573 1.379 . S
C568 N575 1.356 . S
C569 C568 1.363 . S
C569 C572 1.363 . S
N570 C572 1.356 . S
N570 H582 0.984 . S
N570 H583 0.985 . S
N571 C573 1.356 . S
N571 H576 0.984 . S
N571 H577 0.985 . S
C572 C566 1.379 . S
C572 C569 1.363 . S
C572 N570 1.356 . S
C573 C567 1.363 . S
C573 C568 1.379 . S
C573 N571 1.356 . S
N574 C566 1.356 . S
N574 H580 0.984 . S
N574 H581 0.984 . S
N575 C568 1.356 . S
N575 H578 0.984 . S
N575 H579 0.985 . S
H576 N571 0.984 . S
H577 N571 0.985 . S
H578 N575 0.984 . S
H579 N575 0.985 . S
H580 N574 0.984 . S
H581 N574 0.984 . S
H582 N570 0.984 . S
H583 N570 0.985 . S
C584 C585 1.363 . S
C584 C590 1.379 . S
C584 N592 1.356 . S
C585 C584 1.363 . S
C585 C591 1.363 . S
C586 C587 1.363 . S
C586 C591 1.379 . S
C586 N593 1.356 1_565 S
C587 C586 1.363 . S
C587 C590 1.363 . S
N588 C590 1.356 . S
N588 H600 0.984 . S
N588 H601 0.985 . S
N589 C591 1.356 1_545 S
N589 H594 0.984 . S
N589 H595 0.985 . S
C590 C584 1.379 . S
C590 C587 1.363 . S
C590 N588 1.356 . S
C591 C585 1.363 . S
C591 C586 1.379 . S
C591 N589 1.356 1_565 S
N592 C584 1.356 . S
N592 H598 0.984 . S
N592 H599 0.984 . S
N593 C586 1.356 1_545 S
N593 H596 0.984 . S
N593 H597 0.985 . S
H594 N589 0.984 . S
H595 N589 0.985 . S
H596 N593 0.984 . S
H597 N593 0.985 . S
H598 N592 0.984 . S
H599 N592 0.984 . S
H600 N588 0.984 . S
H601 N588 0.985 . S
C602 C603 1.363 . S
C602 C608 1.379 . S
C602 N610 1.356 . S
C603 C602 1.363 . S
C603 C609 1.363 . S
C604 C605 1.363 . S
C604 C609 1.379 . S
C604 N611 1.356 . S
C605 C604 1.363 . S
C605 C608 1.363 . S
N606 C608 1.356 . S
N606 H618 0.984 . S
N606 H619 0.985 . S
N607 C609 1.356 . S
N607 H612 0.984 . S
N607 H613 0.985 . S
C608 C602 1.379 . S
C608 C605 1.363 . S
C608 N606 1.356 . S
C609 C603 1.363 . S
C609 C604 1.379 . S
C609 N607 1.356 . S
N610 C602 1.356 . S
N610 H616 0.984 . S
N610 H617 0.984 . S
N611 C604 1.356 . S
N611 H614 0.984 . S
N611 H615 0.985 . S
H612 N607 0.984 . S
H613 N607 0.985 . S
H614 N611 0.984 . S
H615 N611 0.985 . S
H616 N610 0.984 . S
H617 N610 0.984 . S
H618 N606 0.984 . S
H619 N606 0.985 . S
C620 C621 1.363 . S
C620 C626 1.379 . S
C620 N628 1.356 . S
C621 C620 1.363 . S
C621 C627 1.363 . S
C622 C623 1.363 . S
C622 C627 1.379 . S
C622 N629 1.356 . S
C623 C622 1.363 . S
C623 C626 1.363 . S
N624 C626 1.356 1_455 S
N624 H636 0.984 . S
N624 H637 0.985 . S
N625 C627 1.356 . S
N625 H630 0.984 . S
N625 H631 0.985 . S
C626 C620 1.379 . S
C626 C623 1.363 . S
C626 N624 1.356 1_655 S
C627 C621 1.363 . S
C627 C622 1.379 . S
C627 N625 1.356 . S
N628 C620 1.356 . S
N628 H634 0.984 . S
N628 H635 0.984 . S
N629 C622 1.356 . S
N629 H632 0.984 . S
N629 H633 0.985 . S
H630 N625 0.984 . S
H631 N625 0.985 . S
H632 N629 0.984 . S
H633 N629 0.985 . S
H634 N628 0.984 . S
H635 N628 0.984 . S
H636 N624 0.984 . S
H637 N624 0.985 . S
C638 C639 1.363 . S
C638 C644 1.379 . S
C638 N646 1.356 . S
C639 C638 1.363 . S
C639 C645 1.363 . S
C640 C641 1.363 . S
C640 C645 1.379 . S
C640 N647 1.356 . S
C641 C640 1.363 . S
C641 C644 1.363 . S
N642 C644 1.356 . S
N642 H654 0.984 . S
N642 H655 0.985 . S
N643 C645 1.356 . S
N643 H648 0.984 . S
N643 H649 0.985 . S
C644 C638 1.379 . S
C644 C641 1.363 . S
C644 N642 1.356 . S
C645 C639 1.363 . S
C645 C640 1.379 . S
C645 N643 1.356 . S
N646 C638 1.356 . S
N646 H652 0.984 . S
N646 H653 0.984 . S
N647 C640 1.356 . S
N647 H650 0.984 . S
N647 H651 0.985 . S
H648 N643 0.984 . S
H649 N643 0.985 . S
H650 N647 0.984 . S
H651 N647 0.985 . S
H652 N646 0.984 . S
H653 N646 0.984 . S
H654 N642 0.984 . S
H655 N642 0.985 . S
C656 C657 1.363 . S
C656 C662 1.379 . S
C656 N664 1.356 . S
C657 C656 1.363 . S
C657 C663 1.363 . S
C658 C659 1.363 . S
C658 C663 1.379 . S
C658 N665 1.356 . S
C659 C658 1.363 . S
C659 C662 1.363 . S
N660 C662 1.356 . S
N660 H672 0.984 . S
N660 H673 0.985 . S
N661 C663 1.356 . S
N661 H666 0.984 . S
N661 H667 0.985 . S
C662 C656 1.379 . S
C662 C659 1.363 . S
C662 N660 1.356 . S
C663 C657 1.363 . S
C663 C658 1.379 . S
C663 N661 1.356 . S
N664 C656 1.356 . S
N664 H670 0.984 . S
N664 H671 0.984 . S
N665 C658 1.356 . S
N665 H668 0.984 . S
N665 H669 0.985 . S
H666 N661 0.984 . S
H667 N661 0.985 . S
H668 N665 0.984 . S
H669 N665 0.985 . S
H670 N664 0.984 . S
H671 N664 0.984 . S
H672 N660 0.984 . S
H673 N660 0.985 . S
C674 C675 1.363 . S
C674 C680 1.379 . S
C674 N682 1.356 . S
C675 C674 1.363 . S
C675 C681 1.363 . S
C676 C677 1.363 . S
C676 C681 1.379 . S
C676 N683 1.356 . S
C677 C676 1.363 . S
C677 C680 1.363 . S
N678 C680 1.356 . S
N678 H690 0.984 . S
N678 H691 0.985 . S
N679 C681 1.356 . S
N679 H684 0.984 . S
N679 H685 0.985 . S
C680 C674 1.379 . S
C680 C677 1.363 . S
C680 N678 1.356 . S
C681 C675 1.363 . S
C681 C676 1.379 . S
C681 N679 1.356 . S
N682 C674 1.356 . S
N682 H688 0.984 . S
N682 H689 0.984 . S
N683 C676 1.356 . S
N683 H686 0.984 . S
N683 H687 0.985 . S
H684 N679 0.984 . S
H685 N679 0.985 . S
H686 N683 0.984 . S
H687 N683 0.985 . S
H688 N682 0.984 . S
H689 N682 0.984 . S
H690 N678 0.984 . S
H691 N678 0.985 . S
C692 C693 1.363 . S
C692 C698 1.379 . S
C692 N700 1.356 . S
C693 C692 1.363 . S
C693 C699 1.363 . S
C694 C695 1.363 . S
C694 C699 1.379 . S
C694 N701 1.356 . S
C695 C694 1.363 . S
C695 C698 1.363 . S
N696 C698 1.356 . S
N696 H708 0.984 . S
N696 H709 0.985 . S
N697 C699 1.356 . S
N697 H702 0.984 . S
N697 H703 0.985 . S
C698 C692 1.379 . S
C698 C695 1.363 . S
C698 N696 1.356 . S
C699 C693 1.363 . S
C699 C694 1.379 . S
C699 N697 1.356 . S
N700 C692 1.356 . S
N700 H706 0.984 . S
N700 H707 0.984 . S
N701 C694 1.356 . S
N701 H704 0.984 . S
N701 H705 0.985 . S
H702 N697 0.984 . S
H703 N697 0.985 . S
H704 N701 0.984 . S
H705 N701 0.985 . S
H706 N700 0.984 . S
H707 N700 0.984 . S
H708 N696 0.984 . S
H709 N696 0.985 . S
C710 C711 1.363 . S
C710 C716 1.379 . S
C710 N718 1.356 . S
C711 C710 1.363 . S
C711 C717 1.363 . S
C712 C713 1.363 . S
C712 C717 1.379 . S
C712 N719 1.356 . S
C713 C712 1.363 . S
C713 C716 1.363 . S
N714 C716 1.356 . S
N714 H726 0.984 . S
N714 H727 0.985 . S
N715 C717 1.356 . S
N715 H720 0.984 . S
N715 H721 0.985 . S
C716 C710 1.379 . S
C716 C713 1.363 . S
C716 N714 1.356 . S
C717 C711 1.363 . S
C717 C712 1.379 . S
C717 N715 1.356 . S
N718 C710 1.356 . S
N718 H724 0.984 . S
N718 H725 0.984 . S
N719 C712 1.356 . S
N719 H722 0.984 . S
N719 H723 0.985 . S
H720 N715 0.984 . S
H721 N715 0.985 . S
H722 N719 0.984 . S
H723 N719 0.985 . S
H724 N718 0.984 . S
H725 N718 0.984 . S
H726 N714 0.984 . S
H727 N714 0.985 . S
C728 C729 1.363 . S
C728 C734 1.379 . S
C728 N736 1.356 . S
C729 C728 1.363 . S
C729 C735 1.363 . S
C730 C731 1.363 . S
C730 C735 1.379 . S
C730 N737 1.356 . S
C731 C730 1.363 . S
C731 C734 1.363 . S
N732 C734 1.356 . S
N732 H744 0.984 . S
N732 H745 0.985 . S
N733 C735 1.356 . S
N733 H738 0.984 . S
N733 H739 0.985 . S
C734 C728 1.379 . S
C734 C731 1.363 . S
C734 N732 1.356 . S
C735 C729 1.363 . S
C735 C730 1.379 . S
C735 N733 1.356 . S
N736 C728 1.356 . S
N736 H742 0.984 . S
N736 H743 0.984 . S
N737 C730 1.356 . S
N737 H740 0.984 . S
N737 H741 0.985 . S
H738 N733 0.984 . S
H739 N733 0.985 . S
H740 N737 0.984 . S
H741 N737 0.985 . S
H742 N736 0.984 . S
H743 N736 0.984 . S
H744 N732 0.984 . S
H745 N732 0.985 . S
C746 C747 1.363 . S
C746 C752 1.379 . S
C746 N754 1.356 . S
C747 C746 1.363 . S
C747 C753 1.363 . S
C748 C749 1.363 . S
C748 C753 1.379 . S
C748 N755 1.356 . S
C749 C748 1.363 . S
C749 C752 1.363 . S
N750 C752 1.356 . S
N750 H762 0.984 . S
N750 H763 0.985 . S
N751 C753 1.356 . S
N751 H756 0.984 . S
N751 H757 0.985 1_455 S
C752 C746 1.379 . S
C752 C749 1.363 . S
C752 N750 1.356 . S
C753 C747 1.363 . S
C753 C748 1.379 . S
C753 N751 1.356 . S
N754 C746 1.356 . S
N754 H760 0.984 . S
N754 H761 0.984 . S
N755 C748 1.356 . S
N755 H758 0.984 . S
N755 H759 0.985 1_455 S
H756 N751 0.984 . S
H757 N751 0.985 1_655 S
H758 N755 0.984 . S
H759 N755 0.985 1_655 S
H760 N754 0.984 . S
H761 N754 0.984 . S
H762 N750 0.984 . S
H763 N750 0.985 . S
C764 C765 1.363 . S
C764 C770 1.379 . S
C764 N772 1.356 . S
C765 C764 1.363 . S
C765 C771 1.363 . S
C766 C767 1.363 . S
C766 C771 1.379 . S
C766 N773 1.356 . S
C767 C766 1.363 . S
C767 C770 1.363 . S
N768 C770 1.356 . S
N768 H780 0.984 . S
N768 H781 0.985 . S
N769 C771 1.356 . S
N769 H774 0.984 . S
N769 H775 0.985 . S
C770 C764 1.379 . S
C770 C767 1.363 . S
C770 N768 1.356 . S
C771 C765 1.363 . S
C771 C766 1.379 . S
C771 N769 1.356 . S
N772 C764 1.356 . S
N772 H778 0.984 . S
N772 H779 0.984 . S
N773 C766 1.356 . S
N773 H776 0.984 1_556 S
N773 H777 0.985 1_556 S
H774 N769 0.984 . S
H775 N769 0.985 . S
H776 N773 0.984 1_554 S
H777 N773 0.985 1_554 S
H778 N772 0.984 . S
H779 N772 0.984 . S
H780 N768 0.984 . S
H781 N768 0.985 . S
C782 C783 1.363 . S
C782 C788 1.379 . S
C782 N790 1.356 . S
C783 C782 1.363 . S
C783 C789 1.363 . S
C784 C785 1.363 . S
C784 C789 1.379 . S
C784 N791 1.356 . S
C785 C784 1.363 . S
C785 C788 1.363 . S
N786 C788 1.356 . S
N786 H798 0.984 . S
N786 H799 0.985 . S
N787 C789 1.356 . S
N787 H792 0.984 . S
N787 H793 0.985 . S
C788 C782 1.379 . S
C788 C785 1.363 . S
C788 N786 1.356 . S
C789 C783 1.363 . S
C789 C784 1.379 . S
C789 N787 1.356 . S
N790 C782 1.356 . S
N790 H796 0.984 . S
N790 H797 0.984 . S
N791 C784 1.356 . S
N791 H794 0.984 . S
N791 H795 0.985 . S
H792 N787 0.984 . S
H793 N787 0.985 . S
H794 N791 0.984 . S
H795 N791 0.985 . S
H796 N790 0.984 . S
H797 N790 0.984 . S
H798 N786 0.984 . S
H799 N786 0.985 . S
C800 C801 1.363 . S
C800 C806 1.379 . S
C800 N808 1.356 . S
C801 C800 1.363 . S
C801 C807 1.363 . S
C802 C803 1.363 . S
C802 C807 1.379 . S
C802 N809 1.356 . S
C803 C802 1.363 . S
C803 C806 1.363 . S
N804 C806 1.356 . S
N804 H816 0.984 . S
N804 H817 0.985 . S
N805 C807 1.356 . S
N805 H810 0.984 . S
N805 H811 0.985 . S
C806 C800 1.379 . S
C806 C803 1.363 . S
C806 N804 1.356 . S
C807 C801 1.363 . S
C807 C802 1.379 . S
C807 N805 1.356 . S
N808 C800 1.356 . S
N808 H814 0.984 . S
N808 H815 0.984 . S
N809 C802 1.356 . S
N809 H812 0.984 . S
N809 H813 0.985 . S
H810 N805 0.984 . S
H811 N805 0.985 . S
H812 N809 0.984 . S
H813 N809 0.985 . S
H814 N808 0.984 . S
H815 N808 0.984 . S
H816 N804 0.984 . S
H817 N804 0.985 . S
C818 C819 1.363 . S
C818 C824 1.379 . S
C818 N826 1.356 . S
C819 C818 1.363 . S
C819 C825 1.363 . S
C820 C821 1.363 . S
C820 C825 1.379 . S
C820 N827 1.356 . S
C821 C820 1.363 . S
C821 C824 1.363 . S
N822 C824 1.356 . S
N822 H834 0.984 . S
N822 H835 0.985 . S
N823 C825 1.356 . S
N823 H828 0.984 . S
N823 H829 0.985 . S
C824 C818 1.379 . S
C824 C821 1.363 . S
C824 N822 1.356 . S
C825 C819 1.363 . S
C825 C820 1.379 . S
C825 N823 1.356 . S
N826 C818 1.356 . S
N826 H832 0.984 . S
N826 H833 0.984 . S
N827 C820 1.356 . S
N827 H830 0.984 . S
N827 H831 0.985 . S
H828 N823 0.984 . S
H829 N823 0.985 . S
H830 N827 0.984 . S
H831 N827 0.985 . S
H832 N826 0.984 . S
H833 N826 0.984 . S
H834 N822 0.984 . S
H835 N822 0.985 . S
C836 C837 1.363 . S
C836 C842 1.379 . S
C836 N844 1.356 . S
C837 C836 1.363 . S
C837 C843 1.363 . S
C838 C839 1.363 . S
C838 C843 1.379 . S
C838 N845 1.356 . S
C839 C838 1.363 . S
C839 C842 1.363 . S
N840 C842 1.356 . S
N840 H852 0.984 . S
N840 H853 0.985 . S
N841 C843 1.356 . S
N841 H846 0.984 . S
N841 H847 0.985 . S
C842 C836 1.379 . S
C842 C839 1.363 . S
C842 N840 1.356 . S
C843 C837 1.363 . S
C843 C838 1.379 . S
C843 N841 1.356 . S
N844 C836 1.356 . S
N844 H850 0.984 . S
N844 H851 0.984 . S
N845 C838 1.356 . S
N845 H848 0.984 . S
N845 H849 0.985 . S
H846 N841 0.984 . S
H847 N841 0.985 . S
H848 N845 0.984 . S
H849 N845 0.985 . S
H850 N844 0.984 . S
H851 N844 0.984 . S
H852 N840 0.984 . S
H853 N840 0.985 . S
C854 C855 1.363 . S
C854 C860 1.379 . S
C854 N862 1.356 . S
C855 C854 1.363 . S
C855 C861 1.363 . S
C856 C857 1.363 . S
C856 C861 1.379 . S
C856 N863 1.356 . S
C857 C856 1.363 . S
C857 C860 1.363 . S
N858 C860 1.356 . S
N858 H870 0.984 . S
N858 H871 0.985 . S
N859 C861 1.356 . S
N859 H864 0.984 . S
N859 H865 0.985 . S
C860 C854 1.379 . S
C860 C857 1.363 . S
C860 N858 1.356 . S
C861 C855 1.363 . S
C861 C856 1.379 . S
C861 N859 1.356 . S
N862 C854 1.356 . S
N862 H868 0.984 . S
N862 H869 0.984 . S
N863 C856 1.356 . S
N863 H866 0.984 . S
N863 H867 0.985 . S
H864 N859 0.984 . S
H865 N859 0.985 . S
H866 N863 0.984 . S
H867 N863 0.985 . S
H868 N862 0.984 . S
H869 N862 0.984 . S
H870 N858 0.984 . S
H871 N858 0.985 . S
C872 C873 1.363 . S
C872 C878 1.379 . S
C872 N880 1.356 . S
C873 C872 1.363 . S
C873 C879 1.363 1_565 S
C874 C875 1.363 1_545 S
C874 C879 1.379 . S
C874 N881 1.356 . S
C875 C874 1.363 1_565 S
C875 C878 1.363 . S
N876 C878 1.356 . S
N876 H888 0.984 . S
N876 H889 0.985 . S
N877 C879 1.356 . S
N877 H882 0.984 . S
N877 H883 0.985 . S
C878 C872 1.379 . S
C878 C875 1.363 . S
C878 N876 1.356 . S
C879 C873 1.363 1_545 S
C879 C874 1.379 . S
C879 N877 1.356 . S
N880 C872 1.356 . S
N880 H886 0.984 . S
N880 H887 0.984 . S
N881 C874 1.356 . S
N881 H884 0.984 . S
N881 H885 0.985 . S
H882 N877 0.984 . S
H883 N877 0.985 . S
H884 N881 0.984 . S
H885 N881 0.985 . S
H886 N880 0.984 . S
H887 N880 0.984 . S
H888 N876 0.984 . S
H889 N876 0.985 . S
C890 C891 1.363 . S
C890 C896 1.379 . S
C890 N898 1.356 . S
C891 C890 1.363 . S
C891 C897 1.363 . S
C892 C893 1.363 . S
C892 C897 1.379 . S
C892 N899 1.356 . S
C893 C892 1.363 . S
C893 C896 1.363 . S
N894 C896 1.356 . S
N894 H906 0.984 . S
N894 H907 0.985 . S
N895 C897 1.356 . S
N895 H900 0.984 . S
N895 H901 0.985 . S
C896 C890 1.379 . S
C896 C893 1.363 . S
C896 N894 1.356 . S
C897 C891 1.363 . S
C897 C892 1.379 . S
C897 N895 1.356 . S
N898 C890 1.356 . S
N898 H904 0.984 . S
N898 H905 0.984 . S
N899 C892 1.356 . S
N899 H902 0.984 . S
N899 H903 0.990 . S
H900 N895 0.984 . S
H901 N895 0.985 . S
H902 N899 0.984 . S
H903 N899 0.990 . S
H904 N898 0.984 . S
H905 N898 0.984 . S
H906 N894 0.984 . S
H907 N894 0.985 . S
C908 C909 1.363 . S
C908 C914 1.379 . S
C908 N916 1.356 . S
C909 C908 1.363 . S
C909 C915 1.363 . S
C910 C911 1.363 . S
C910 C915 1.379 . S
C910 N917 1.356 . S
C911 C910 1.363 . S
C911 C914 1.363 . S
N912 C914 1.356 . S
N912 H924 0.984 . S
N912 H925 0.985 . S
N913 C915 1.356 . S
N913 H918 0.984 . S
N913 H919 0.985 . S
C914 C908 1.379 . S
C914 C911 1.363 . S
C914 N912 1.356 . S
C915 C909 1.363 . S
C915 C910 1.379 . S
C915 N913 1.356 . S
N916 C908 1.356 . S
N916 H922 0.984 . S
N916 H923 0.984 . S
N917 C910 1.356 . S
N917 H920 0.984 . S
N917 H921 0.985 . S
H918 N913 0.984 . S
H919 N913 0.985 . S
H920 N917 0.984 . S
H921 N917 0.985 . S
H922 N916 0.984 . S
H923 N916 0.984 . S
H924 N912 0.984 . S
H925 N912 0.985 . S
C926 C927 1.363 . S
C926 C932 1.379 . S
C926 N934 1.356 . S
C927 C926 1.363 . S
C927 C933 1.363 . S
C928 C929 1.363 . S
C928 C933 1.379 . S
C928 N935 1.356 . S
C929 C928 1.363 . S
C929 C932 1.363 . S
N930 C932 1.356 . S
N930 H942 0.984 . S
N930 H943 0.985 . S
N931 C933 1.356 . S
N931 H936 0.984 . S
N931 H937 0.985 . S
C932 C926 1.379 . S
C932 C929 1.363 . S
C932 N930 1.356 . S
C933 C927 1.363 . S
C933 C928 1.379 . S
C933 N931 1.356 . S
N934 C926 1.356 . S
N934 H940 0.984 . S
N934 H941 0.984 . S
N935 C928 1.356 . S
N935 H938 0.984 . S
N935 H939 0.985 . S
H936 N931 0.984 . S
H937 N931 0.985 . S
H938 N935 0.984 . S
H939 N935 0.985 . S
H940 N934 0.984 . S
H941 N934 0.984 . S
H942 N930 0.984 . S
H943 N930 0.985 . S
C944 C945 1.363 . S
C944 C950 1.379 . S
C944 N952 1.356 . S
C945 C944 1.363 . S
C945 C951 1.363 . S
C946 C947 1.363 . S
C946 C951 1.379 . S
C946 N953 1.356 . S
C947 C946 1.363 . S
C947 C950 1.363 . S
N948 C950 1.356 . S
N948 H960 0.984 . S
N948 H961 0.985 . S
N949 C951 1.356 . S
N949 H954 0.984 . S
N949 H955 0.985 . S
C950 C944 1.379 . S
C950 C947 1.363 . S
C950 N948 1.356 . S
C951 C945 1.363 . S
C951 C946 1.379 . S
C951 N949 1.356 . S
N952 C944 1.356 . S
N952 H958 0.984 . S
N952 H959 0.984 . S
N953 C946 1.356 . S
N953 H956 0.984 . S
N953 H957 0.985 . S
H954 N949 0.984 . S
H955 N949 0.985 . S
H956 N953 0.984 . S
H957 N953 0.985 . S
H958 N952 0.984 . S
H959 N952 0.984 . S
H960 N948 0.984 . S
H961 N948 0.985 . S
C962 C963 1.363 . S
C962 C968 1.379 . S
C962 N970 1.356 1_556 S
C963 C962 1.363 . S
C963 C969 1.363 . S
C964 C965 1.363 . S
C964 C969 1.379 . S
C964 N971 1.356 . S
C965 C964 1.363 . S
C965 C968 1.363 . S
N966 C968 1.356 1_554 S
N966 H978 0.984 . S
N966 H979 0.985 1_554 S
N967 C969 1.356 . S
N967 H972 0.984 . S
N967 H973 0.985 . S
C968 C962 1.379 . S
C968 C965 1.363 . S
C968 N966 1.356 1_556 S
C969 C963 1.363 . S
C969 C964 1.379 . S
C969 N967 1.356 . S
N970 C962 1.356 1_554 S
N970 H976 0.984 . S
N970 H977 0.984 . S
N971 C964 1.356 . S
N971 H974 0.984 . S
N971 H975 0.985 . S
H972 N967 0.984 . S
H973 N967 0.985 . S
H974 N971 0.984 . S
H975 N971 0.985 . S
H976 N970 0.984 . S
H977 N970 0.984 . S
H978 N966 0.984 . S
H979 N966 0.985 1_556 S
C980 C981 1.363 . S
C980 C986 1.379 . S
C980 N988 1.356 . S
C981 C980 1.363 . S
C981 C987 1.363 . S
C982 C983 1.363 . S
C982 C987 1.379 . S
C982 N989 1.356 . S
C983 C982 1.363 . S
C983 C986 1.363 . S
N984 C986 1.356 . S
N984 H996 0.984 . S
N984 H997 0.985 . S
N985 C987 1.356 . S
N985 H990 0.984 . S
N985 H991 0.985 . S
C986 C980 1.379 . S
C986 C983 1.363 . S
C986 N984 1.356 . S
C987 C981 1.363 . S
C987 C982 1.379 . S
C987 N985 1.356 . S
N988 C980 1.356 . S
N988 H994 0.984 . S
N988 H995 0.984 . S
N989 C982 1.356 . S
N989 H992 0.984 . S
N989 H993 0.985 . S
H990 N985 0.984 . S
H991 N985 0.985 . S
H992 N989 0.984 . S
H993 N989 0.985 . S
H994 N988 0.984 . S
H995 N988 0.984 . S
H996 N984 0.984 . S
H997 N984 0.985 . S
C998 C999 1.363 . S
C998 C1004 1.379 . S
C998 N1006 1.356 . S
C999 C998 1.363 . S
C999 C1005 1.363 . S
C1000 C1001 1.363 . S
C1000 C1005 1.379 . S
C1000 N1007 1.356 . S
C1001 C1000 1.363 . S
C1001 C1004 1.363 . S
N1002 C1004 1.356 . S
N1002 H1014 0.984 . S
N1002 H1015 0.985 . S
N1003 C1005 1.356 . S
N1003 H1008 0.984 . S
N1003 H1009 0.985 . S
C1004 C998 1.379 . S
C1004 C1001 1.363 . S
C1004 N1002 1.356 . S
C1005 C999 1.363 . S
C1005 C1000 1.379 . S
C1005 N1003 1.356 . S
N1006 C998 1.356 . S
N1006 H1012 0.984 . S
N1006 H1013 0.984 . S
N1007 C1000 1.356 . S
N1007 H1010 0.984 . S
N1007 H1011 0.985 . S
H1008 N1003 0.984 . S
H1009 N1003 0.985 . S
H1010 N1007 0.984 . S
H1011 N1007 0.985 . S
H1012 N1006 0.984 . S
H1013 N1006 0.984 . S
H1014 N1002 0.984 . S
H1015 N1002 0.985 . S
C1016 C1017 1.363 . S
C1016 C1022 1.379 . S
C1016 N1024 1.356 . S
C1017 C1016 1.363 . S
C1017 C1023 1.363 . S
C1018 C1019 1.363 . S
C1018 C1023 1.379 . S
C1018 N1025 1.356 . S
C1019 C1018 1.363 . S
C1019 C1022 1.363 . S
N1020 C1022 1.356 . S
N1020 H1032 0.984 . S
N1020 H1033 0.985 . S
N1021 C1023 1.356 . S
N1021 H1026 0.984 . S
N1021 H1027 0.985 . S
C1022 C1016 1.379 . S
C1022 C1019 1.363 . S
C1022 N1020 1.356 . S
C1023 C1017 1.363 . S
C1023 C1018 1.379 . S
C1023 N1021 1.356 . S
N1024 C1016 1.356 . S
N1024 H1030 0.984 . S
N1024 H1031 0.984 . S
N1025 C1018 1.356 . S
N1025 H1028 0.984 . S
N1025 H1029 0.985 . S
H1026 N1021 0.984 . S
H1027 N1021 0.985 . S
H1028 N1025 0.984 . S
H1029 N1025 0.985 . S
H1030 N1024 0.984 . S
H1031 N1024 0.984 . S
H1032 N1020 0.984 . S
H1033 N1020 0.985 . S
C1034 C1035 1.363 . S
C1034 C1040 1.379 . S
C1034 N1042 1.356 . S
C1035 C1034 1.363 . S
C1035 C1041 1.363 . S
C1036 C1037 1.363 . S
C1036 C1041 1.379 . S
C1036 N1043 1.356 . S
C1037 C1036 1.363 . S
C1037 C1040 1.363 . S
N1038 C1040 1.356 . S
N1038 H1050 0.984 . S
N1038 H1051 0.985 . S
N1039 C1041 1.356 . S
N1039 H1044 0.984 . S
N1039 H1045 0.985 . S
C1040 C1034 1.379 . S
C1040 C1037 1.363 . S
C1040 N1038 1.356 . S
C1041 C1035 1.363 . S
C1041 C1036 1.379 . S
C1041 N1039 1.356 . S
N1042 C1034 1.356 . S
N1042 H1048 0.984 . S
N1042 H1049 0.984 . S
N1043 C1036 1.356 . S
N1043 H1046 0.984 . S
N1043 H1047 0.985 . S
H1044 N1039 0.984 . S
H1045 N1039 0.985 . S
H1046 N1043 0.984 . S
H1047 N1043 0.985 . S
H1048 N1042 0.984 . S
H1049 N1042 0.984 . S
H1050 N1038 0.984 . S
H1051 N1038 0.985 . S
C1052 C1053 1.363 . S
C1052 C1058 1.379 . S
C1052 N1060 1.356 . S
C1053 C1052 1.363 . S
C1053 C1059 1.363 . S
C1054 C1055 1.363 . S
C1054 C1059 1.379 . S
C1054 N1061 1.356 . S
C1055 C1054 1.363 . S
C1055 C1058 1.363 . S
N1056 C1058 1.356 . S
N1056 H1068 0.984 . S
N1056 H1069 0.985 . S
N1057 C1059 1.356 . S
N1057 H1062 0.984 . S
N1057 H1063 0.985 . S
C1058 C1052 1.379 . S
C1058 C1055 1.363 . S
C1058 N1056 1.356 . S
C1059 C1053 1.363 . S
C1059 C1054 1.379 . S
C1059 N1057 1.356 . S
N1060 C1052 1.356 . S
N1060 H1066 0.984 . S
N1060 H1067 0.984 . S
N1061 C1054 1.356 . S
N1061 H1064 0.984 . S
N1061 H1065 0.985 . S
H1062 N1057 0.984 . S
H1063 N1057 0.985 . S
H1064 N1061 0.984 . S
H1065 N1061 0.985 . S
H1066 N1060 0.984 . S
H1067 N1060 0.984 . S
H1068 N1056 0.984 . S
H1069 N1056 0.985 . S
C1070 C1071 1.363 . S
C1070 C1076 1.379 . S
C1070 N1078 1.356 . S
C1071 C1070 1.363 . S
C1071 C1077 1.363 . S
C1072 C1073 1.363 . S
C1072 C1077 1.379 . S
C1072 N1079 1.356 . S
C1073 C1072 1.363 . S
C1073 C1076 1.363 . S
N1074 C1076 1.356 . S
N1074 H1086 0.984 . S
N1074 H1087 0.985 . S
N1075 C1077 1.356 . S
N1075 H1080 0.984 . S
N1075 H1081 0.985 . S
C1076 C1070 1.379 . S
C1076 C1073 1.363 . S
C1076 N1074 1.356 . S
C1077 C1071 1.363 . S
C1077 C1072 1.379 . S
C1077 N1075 1.356 . S
N1078 C1070 1.356 . S
N1078 H1084 0.984 . S
N1078 H1085 0.984 . S
N1079 C1072 1.356 . S
N1079 H1082 0.984 . S
N1079 H1083 0.985 . S
H1080 N1075 0.984 . S
H1081 N1075 0.985 . S
H1082 N1079 0.984 . S
H1083 N1079 0.985 . S
H1084 N1078 0.984 . S
H1085 N1078 0.984 . S
H1086 N1074 0.984 . S
H1087 N1074 0.985 . S
C1088 C1089 1.363 . S
C1088 C1094 1.379 . S
C1088 N1096 1.356 . S
C1089 C1088 1.363 . S
C1089 C1095 1.363 . S
C1090 C1091 1.363 . S
C1090 C1095 1.379 . S
C1090 N1097 1.356 . S
C1091 C1090 1.363 . S
C1091 C1094 1.363 . S
N1092 C1094 1.356 . S
N1092 H1104 0.984 . S
N1092 H1105 0.985 . S
N1093 C1095 1.356 . S
N1093 H1098 0.984 . S
N1093 H1099 0.985 . S
C1094 C1088 1.379 . S
C1094 C1091 1.363 . S
C1094 N1092 1.356 . S
C1095 C1089 1.363 . S
C1095 C1090 1.379 . S
C1095 N1093 1.356 . S
N1096 C1088 1.356 . S
N1096 H1102 0.984 . S
N1096 H1103 0.984 . S
N1097 C1090 1.356 . S
N1097 H1100 0.984 1_655 S
N1097 H1101 0.985 . S
H1098 N1093 0.984 . S
H1099 N1093 0.985 . S
H1100 N1097 0.984 1_455 S
H1101 N1097 0.985 . S
H1102 N1096 0.984 . S
H1103 N1096 0.984 . S
H1104 N1092 0.984 . S
H1105 N1092 0.985 . S
C1106 C1107 1.363 . S
C1106 C1112 1.379 . S
C1106 N1114 1.356 . S
C1107 C1106 1.363 . S
C1107 C1113 1.363 . S
C1108 C1109 1.363 . S
C1108 C1113 1.379 . S
C1108 N1115 1.356 . S
C1109 C1108 1.363 . S
C1109 C1112 1.363 . S
N1110 C1112 1.356 . S
N1110 H1122 0.984 . S
N1110 H1123 0.985 . S
N1111 C1113 1.356 . S
N1111 H1116 0.984 . S
N1111 H1117 0.985 . S
C1112 C1106 1.379 . S
C1112 C1109 1.363 . S
C1112 N1110 1.356 . S
C1113 C1107 1.363 . S
C1113 C1108 1.379 . S
C1113 N1111 1.356 . S
N1114 C1106 1.356 . S
N1114 H1120 0.984 . S
N1114 H1121 0.984 . S
N1115 C1108 1.356 . S
N1115 H1118 0.984 . S
N1115 H1119 0.985 . S
H1116 N1111 0.984 . S
H1117 N1111 0.985 . S
H1118 N1115 0.984 . S
H1119 N1115 0.985 . S
H1120 N1114 0.984 . S
H1121 N1114 0.984 . S
H1122 N1110 0.984 . S
H1123 N1110 0.985 . S
C1124 C1125 1.363 . S
C1124 C1130 1.379 . S
C1124 N1132 1.356 . S
C1125 C1124 1.363 . S
C1125 C1131 1.363 . S
C1126 C1127 1.363 . S
C1126 C1131 1.379 . S
C1126 N1133 1.356 . S
C1127 C1126 1.363 . S
C1127 C1130 1.363 . S
N1128 C1130 1.356 . S
N1128 H1140 0.984 . S
N1128 H1141 0.985 . S
N1129 C1131 1.356 . S
N1129 H1134 0.984 . S
N1129 H1135 0.985 . S
C1130 C1124 1.379 . S
C1130 C1127 1.363 . S
C1130 N1128 1.356 . S
C1131 C1125 1.363 . S
C1131 C1126 1.379 . S
C1131 N1129 1.356 . S
N1132 C1124 1.356 . S
N1132 H1138 0.984 . S
N1132 H1139 0.984 . S
N1133 C1126 1.356 . S
N1133 H1136 0.984 . S
N1133 H1137 0.985 . S
H1134 N1129 0.984 . S
H1135 N1129 0.985 . S
H1136 N1133 0.984 . S
H1137 N1133 0.985 . S
H1138 N1132 0.984 . S
H1139 N1132 0.984 . S
H1140 N1128 0.984 . S
H1141 N1128 0.985 . S
C1142 C1143 1.363 . S
C1142 C1148 1.379 . S
C1142 N1150 1.356 . S
C1143 C1142 1.363 . S
C1143 C1149 1.363 . S
C1144 C1145 1.363 . S
C1144 C1149 1.379 . S
C1144 N1151 1.356 . S
C1145 C1144 1.363 . S
C1145 C1148 1.363 . S
N1146 C1148 1.356 . S
N1146 H1158 0.984 . S
N1146 H1159 0.985 . S
N1147 C1149 1.356 . S
N1147 H1152 0.984 . S
N1147 H1153 0.985 . S
C1148 C1142 1.379 . S
C1148 C1145 1.363 . S
C1148 N1146 1.356 . S
C1149 C1143 1.363 . S
C1149 C1144 1.379 . S
C1149 N1147 1.356 . S
N1150 C1142 1.356 . S
N1150 H1156 0.984 . S
N1150 H1157 0.984 . S
N1151 C1144 1.356 . S
N1151 H1154 0.984 . S
N1151 H1155 0.985 . S
H1152 N1147 0.984 . S
H1153 N1147 0.985 . S
H1154 N1151 0.984 . S
H1155 N1151 0.985 . S
H1156 N1150 0.984 . S
H1157 N1150 0.984 . S
H1158 N1146 0.984 . S
H1159 N1146 0.985 . S
C1160 C1161 1.363 . S
C1160 C1166 1.379 . S
C1160 N1168 1.356 . S
C1161 C1160 1.363 . S
C1161 C1167 1.363 . S
C1162 C1163 1.363 . S
C1162 C1167 1.379 . S
C1162 N1169 1.356 . S
C1163 C1162 1.363 . S
C1163 C1166 1.363 . S
N1164 C1166 1.356 . S
N1164 H1176 0.984 . S
N1164 H1177 0.985 . S
N1165 C1167 1.356 . S
N1165 H1170 0.984 . S
N1165 H1171 0.985 . S
C1166 C1160 1.379 . S
C1166 C1163 1.363 . S
C1166 N1164 1.356 . S
C1167 C1161 1.363 . S
C1167 C1162 1.379 . S
C1167 N1165 1.356 . S
N1168 C1160 1.356 . S
N1168 H1174 0.984 . S
N1168 H1175 0.984 . S
N1169 C1162 1.356 . S
N1169 H1172 0.984 . S
N1169 H1173 0.985 . S
H1170 N1165 0.984 . S
H1171 N1165 0.985 . S
H1172 N1169 0.984 . S
H1173 N1169 0.985 . S
H1174 N1168 0.984 . S
H1175 N1168 0.984 . S
H1176 N1164 0.984 . S
H1177 N1164 0.985 . S
C1178 C1179 1.363 . S
C1178 C1184 1.379 . S
C1178 N1186 1.356 . S
C1179 C1178 1.363 . S
C1179 C1185 1.363 . S
C1180 C1181 1.363 . S
C1180 C1185 1.379 . S
C1180 N1187 1.356 . S
C1181 C1180 1.363 . S
C1181 C1184 1.363 . S
N1182 C1184 1.356 . S
N1182 H1194 0.984 . S
N1182 H1195 0.985 . S
N1183 C1185 1.356 . S
N1183 H1188 0.984 . S
N1183 H1189 0.985 . S
C1184 C1178 1.379 . S
C1184 C1181 1.363 . S
C1184 N1182 1.356 . S
C1185 C1179 1.363 . S
C1185 C1180 1.379 . S
C1185 N1183 1.356 . S
N1186 C1178 1.356 . S
N1186 H1192 0.984 . S
N1186 H1193 0.984 . S
N1187 C1180 1.356 . S
N1187 H1190 0.984 . S
N1187 H1191 0.985 . S
H1188 N1183 0.984 . S
H1189 N1183 0.985 . S
H1190 N1187 0.984 . S
H1191 N1187 0.985 . S
H1192 N1186 0.984 . S
H1193 N1186 0.984 . S
H1194 N1182 0.984 . S
H1195 N1182 0.985 . S
C1196 C1197 1.363 . S
C1196 C1202 1.379 . S
C1196 N1204 1.356 . S
C1197 C1196 1.363 . S
C1197 C1203 1.363 . S
C1198 C1199 1.363 . S
C1198 C1203 1.379 . S
C1198 N1205 1.356 . S
C1199 C1198 1.363 . S
C1199 C1202 1.363 . S
N1200 C1202 1.356 . S
N1200 H1212 0.984 . S
N1200 H1213 0.985 . S
N1201 C1203 1.356 . S
N1201 H1206 0.984 . S
N1201 H1207 0.985 . S
C1202 C1196 1.379 . S
C1202 C1199 1.363 . S
C1202 N1200 1.356 . S
C1203 C1197 1.363 . S
C1203 C1198 1.379 . S
C1203 N1201 1.356 . S
N1204 C1196 1.356 . S
N1204 H1210 0.984 . S
N1204 H1211 0.984 . S
N1205 C1198 1.356 . S
N1205 H1208 0.984 . S
N1205 H1209 0.985 . S
H1206 N1201 0.984 . S
H1207 N1201 0.985 . S
H1208 N1205 0.984 . S
H1209 N1205 0.985 . S
H1210 N1204 0.984 . S
H1211 N1204 0.984 . S
H1212 N1200 0.984 . S
H1213 N1200 0.985 . S
C1214 C1215 1.363 . S
C1214 C1220 1.379 . S
C1214 N1222 1.356 . S
C1215 C1214 1.363 . S
C1215 C1221 1.363 . S
C1216 C1217 1.363 . S
C1216 C1221 1.379 . S
C1216 N1223 1.356 . S
C1217 C1216 1.363 . S
C1217 C1220 1.363 . S
N1218 C1220 1.356 . S
N1218 H1230 0.984 . S
N1218 H1231 0.985 . S
N1219 C1221 1.356 . S
N1219 H1224 0.984 . S
N1219 H1225 0.985 . S
C1220 C1214 1.379 . S
C1220 C1217 1.363 . S
C1220 N1218 1.356 . S
C1221 C1215 1.363 . S
C1221 C1216 1.379 . S
C1221 N1219 1.356 . S
N1222 C1214 1.356 . S
N1222 H1228 0.984 . S
N1222 H1229 0.984 . S
N1223 C1216 1.356 . S
N1223 H1226 0.984 . S
N1223 H1227 0.985 . S
H1224 N1219 0.984 . S
H1225 N1219 0.985 . S
H1226 N1223 0.984 . S
H1227 N1223 0.985 . S
H1228 N1222 0.984 . S
H1229 N1222 0.984 . S
H1230 N1218 0.984 . S
H1231 N1218 0.985 . S
C1232 C1233 1.363 . S
C1232 C1238 1.379 . S
C1232 N1240 1.356 . S
C1233 C1232 1.363 . S
C1233 C1239 1.363 . S
C1234 C1235 1.363 . S
C1234 C1239 1.379 . S
C1234 N1241 1.356 . S
C1235 C1234 1.363 . S
C1235 C1238 1.363 . S
N1236 C1238 1.356 . S
N1236 H1248 0.984 . S
N1236 H1249 0.985 . S
N1237 C1239 1.356 . S
N1237 H1242 0.984 . S
N1237 H1243 0.985 . S
C1238 C1232 1.379 . S
C1238 C1235 1.363 . S
C1238 N1236 1.356 . S
C1239 C1233 1.363 . S
C1239 C1234 1.379 . S
C1239 N1237 1.356 . S
N1240 C1232 1.356 . S
N1240 H1246 0.984 . S
N1240 H1247 0.984 . S
N1241 C1234 1.356 . S
N1241 H1244 0.984 . S
N1241 H1245 0.985 . S
H1242 N1237 0.984 . S
H1243 N1237 0.985 . S
H1244 N1241 0.984 . S
H1245 N1241 0.985 . S
H1246 N1240 0.984 . S
H1247 N1240 0.984 . S
H1248 N1236 0.984 . S
H1249 N1236 0.985 . S
C1250 C1251 1.363 . S
C1250 C1256 1.379 . S
C1250 N1258 1.356 . S
C1251 C1250 1.363 . S
C1251 C1257 1.363 . S
C1252 C1253 1.363 . S
C1252 C1257 1.379 . S
C1252 N1259 1.356 . S
C1253 C1252 1.363 . S
C1253 C1256 1.363 . S
N1254 C1256 1.356 . S
N1254 H1266 0.984 . S
N1254 H1267 0.985 . S
N1255 C1257 1.356 . S
N1255 H1260 0.984 . S
N1255 H1261 0.985 . S
C1256 C1250 1.379 . S
C1256 C1253 1.363 . S
C1256 N1254 1.356 . S
C1257 C1251 1.363 . S
C1257 C1252 1.379 . S
C1257 N1255 1.356 . S
N1258 C1250 1.356 . S
N1258 H1264 0.984 . S
N1258 H1265 0.984 . S
N1259 C1252 1.356 . S
N1259 H1262 0.984 . S
N1259 H1263 0.985 . S
H1260 N1255 0.984 . S
H1261 N1255 0.985 . S
H1262 N1259 0.984 . S
H1263 N1259 0.985 . S
H1264 N1258 0.984 . S
H1265 N1258 0.984 . S
H1266 N1254 0.984 . S
H1267 N1254 0.985 . S
C1268 C1269 1.363 . S
C1268 C1274 1.379 . S
C1268 N1276 1.356 . S
C1269 C1268 1.363 . S
C1269 C1275 1.363 . S
C1270 C1271 1.363 . S
C1270 C1275 1.379 . S
C1270 N1277 1.356 . S
C1271 C1270 1.363 . S
C1271 C1274 1.363 . S
N1272 C1274 1.356 . S
N1272 H1284 0.984 . S
N1272 H1285 0.985 . S
N1273 C1275 1.356 . S
N1273 H1278 0.984 . S
N1273 H1279 0.985 . S
C1274 C1268 1.379 . S
C1274 C1271 1.363 . S
C1274 N1272 1.356 . S
C1275 C1269 1.363 . S
C1275 C1270 1.379 . S
C1275 N1273 1.356 . S
N1276 C1268 1.356 . S
N1276 H1282 0.984 . S
N1276 H1283 0.984 . S
N1277 C1270 1.356 . S
N1277 H1280 0.984 . S
N1277 H1281 0.985 . S
H1278 N1273 0.984 . S
H1279 N1273 0.985 . S
H1280 N1277 0.984 . S
H1281 N1277 0.985 . S
H1282 N1276 0.984 . S
H1283 N1276 0.984 . S
H1284 N1272 0.984 . S
H1285 N1272 0.985 . S
C1286 C1287 1.363 . S
C1286 C1292 1.379 . S
C1286 N1294 1.356 . S
C1287 C1286 1.363 . S
C1287 C1293 1.363 . S
C1288 C1289 1.363 . S
C1288 C1293 1.379 . S
C1288 N1295 1.356 . S
C1289 C1288 1.363 . S
C1289 C1292 1.363 . S
N1290 C1292 1.356 . S
N1290 H1302 0.984 . S
N1290 H1303 0.985 . S
N1291 C1293 1.356 . S
N1291 H1296 0.984 . S
N1291 H1297 0.985 . S
C1292 C1286 1.379 . S
C1292 C1289 1.363 . S
C1292 N1290 1.356 . S
C1293 C1287 1.363 . S
C1293 C1288 1.379 . S
C1293 N1291 1.356 . S
N1294 C1286 1.356 . S
N1294 H1300 0.984 . S
N1294 H1301 0.984 . S
N1295 C1288 1.356 . S
N1295 H1298 0.984 . S
N1295 H1299 0.985 . S
H1296 N1291 0.984 . S
H1297 N1291 0.985 . S
H1298 N1295 0.984 . S
H1299 N1295 0.985 . S
H1300 N1294 0.984 . S
H1301 N1294 0.984 . S
H1302 N1290 0.984 . S
H1303 N1290 0.985 . S
C1304 C1305 1.363 . S
C1304 C1310 1.379 . S
C1304 N1312 1.356 . S
C1305 C1304 1.363 . S
C1305 C1311 1.363 . S
C1306 C1307 1.363 . S
C1306 C1311 1.379 . S
C1306 N1313 1.356 . S
C1307 C1306 1.363 . S
C1307 C1310 1.363 . S
N1308 C1310 1.356 . S
N1308 H1320 0.984 . S
N1308 H1321 0.985 . S
N1309 C1311 1.356 . S
N1309 H1314 0.984 . S
N1309 H1315 0.985 . S
C1310 C1304 1.379 . S
C1310 C1307 1.363 . S
C1310 N1308 1.356 . S
C1311 C1305 1.363 . S
C1311 C1306 1.379 . S
C1311 N1309 1.356 . S
N1312 C1304 1.356 . S
N1312 H1318 0.984 . S
N1312 H1319 0.984 . S
N1313 C1306 1.356 . S
N1313 H1316 0.984 . S
N1313 H1317 0.985 . S
H1314 N1309 0.984 . S
H1315 N1309 0.985 . S
H1316 N1313 0.984 . S
H1317 N1313 0.985 . S
H1318 N1312 0.984 . S
H1319 N1312 0.984 . S
H1320 N1308 0.984 . S
H1321 N1308 0.985 . S
C1322 C1323 1.363 . S
C1322 C1328 1.379 . S
C1322 N1330 1.356 . S
C1323 C1322 1.363 . S
C1323 C1329 1.363 . S
C1324 C1325 1.363 . S
C1324 C1329 1.379 . S
C1324 N1331 1.356 . S
C1325 C1324 1.363 . S
C1325 C1328 1.363 . S
N1326 C1328 1.356 . S
N1326 H1338 0.984 . S
N1326 H1339 0.985 . S
N1327 C1329 1.356 . S
N1327 H1332 0.984 . S
N1327 H1333 0.985 . S
C1328 C1322 1.379 . S
C1328 C1325 1.363 . S
C1328 N1326 1.356 . S
C1329 C1323 1.363 . S
C1329 C1324 1.379 . S
C1329 N1327 1.356 . S
N1330 C1322 1.356 . S
N1330 H1336 0.984 . S
N1330 H1337 0.984 . S
N1331 C1324 1.356 . S
N1331 H1334 0.984 . S
N1331 H1335 0.985 . S
H1332 N1327 0.984 . S
H1333 N1327 0.985 . S
H1334 N1331 0.984 . S
H1335 N1331 0.985 . S
H1336 N1330 0.984 . S
H1337 N1330 0.984 . S
H1338 N1326 0.984 . S
H1339 N1326 0.985 . S
C1340 C1341 1.363 . S
C1340 C1346 1.379 . S
C1340 N1348 1.356 . S
C1341 C1340 1.363 . S
C1341 C1347 1.363 . S
C1342 C1343 1.363 . S
C1342 C1347 1.379 . S
C1342 N1349 1.356 . S
C1343 C1342 1.363 . S
C1343 C1346 1.363 . S
N1344 C1346 1.356 . S
N1344 H1356 0.984 . S
N1344 H1357 0.985 . S
N1345 C1347 1.356 . S
N1345 H1350 0.984 . S
N1345 H1351 0.985 . S
C1346 C1340 1.379 . S
C1346 C1343 1.363 . S
C1346 N1344 1.356 . S
C1347 C1341 1.363 . S
C1347 C1342 1.379 . S
C1347 N1345 1.356 . S
N1348 C1340 1.356 . S
N1348 H1354 0.984 . S
N1348 H1355 0.984 . S
N1349 C1342 1.356 . S
N1349 H1352 0.984 . S
N1349 H1353 0.985 . S
H1350 N1345 0.984 . S
H1351 N1345 0.985 . S
H1352 N1349 0.984 . S
H1353 N1349 0.985 . S
H1354 N1348 0.984 . S
H1355 N1348 0.984 . S
H1356 N1344 0.984 . S
H1357 N1344 0.985 . S
C1358 C1359 1.363 . S
C1358 C1364 1.379 . S
C1358 N1366 1.356 . S
C1359 C1358 1.363 . S
C1359 C1365 1.363 . S
C1360 C1361 1.363 . S
C1360 C1365 1.379 . S
C1360 N1367 1.356 . S
C1361 C1360 1.363 . S
C1361 C1364 1.363 . S
N1362 C1364 1.356 . S
N1362 H1374 0.984 . S
N1362 H1375 0.985 . S
N1363 C1365 1.356 . S
N1363 H1368 0.984 . S
N1363 H1369 0.985 . S
C1364 C1358 1.379 . S
C1364 C1361 1.363 . S
C1364 N1362 1.356 . S
C1365 C1359 1.363 . S
C1365 C1360 1.379 . S
C1365 N1363 1.356 . S
N1366 C1358 1.356 . S
N1366 H1372 0.984 . S
N1366 H1373 0.984 . S
N1367 C1360 1.356 . S
N1367 H1370 0.984 . S
N1367 H1371 0.985 . S
H1368 N1363 0.984 . S
H1369 N1363 0.985 . S
H1370 N1367 0.984 . S
H1371 N1367 0.985 . S
H1372 N1366 0.984 . S
H1373 N1366 0.984 . S
H1374 N1362 0.984 . S
H1375 N1362 0.985 . S
C515 C337 1.743 . S
C513 C2 1.702 . S
C533 C342 0.500 . S
C531 C65 0.354 . S
C551 C343 1.735 . S
C549 C82 1.725 . S
C567 C145 0.745 . S
C569 C347 0.746 . S
C585 C164 0.580 . S
C587 C350 0.786 . S
C605 C351 1.717 . S
C603 C223 1.704 . S
C621 C244 0.969 . S
C623 C328 0.991 . S
C639 C282 1.682 . S
C641 C344 1.720 . S
C659 C382 3.135 . S
C657 C31 3.173 . S
C675 C60 1.911 . S
C677 C408 1.892 . S
C695 C360 3.171 . S
C693 C111 3.287 . S
C713 C415 1.821 . S
C711 C140 1.826 . S
C729 C162 1.867 . S
C731 C369 1.883 . S
C749 C411 1.255 . S
C747 C225 1.268 . S
C765 C242 1.982 . S
C767 C375 1.967 . S
C783 C311 2.343 . S
C785 C406 2.305 . S
C801 C4 1.012 . S
C803 C414 1.020 . S
C819 C191 1.236 . S
C821 C401 1.220 . S
C839 C379 2.803 . S
C837 C220 2.825 . S
C857 C407 1.295 . S
C855 C271 1.348 . S
C873 C284 1.491 . S
C875 C374 1.461 1_556 S
C891 C84 0.980 . S
C893 C392 1.039 . S
C911 C383 1.293 . S
C909 C143 1.298 . S
C927 C63 1.369 . S
C929 C376 1.353 . S
C945 C303 1.655 . S
C947 C438 1.605 . S
C963 C185 0.593 . S
C965 C433 0.618 . S
C983 C447 1.587 . S
C981 C202 1.674 . S
C1001 C424 0.923 . S
C999 C265 0.946 . S
C1017 C44 0.347 . S
C1019 C440 0.518 . S
C1037 C439 1.593 . S
C1035 C103 1.693 . S
C1053 C124 0.724 . S
C1055 C443 0.729 . S
C1071 C23 1.670 . S
C1073 C446 1.599 . S
C1089 C305 1.498 . S
C1091 C472 1.573 . S
C1109 C488 1.264 . S
C1107 C180 1.245 . S
C1125 C231 2.839 . S
C1127 C470 2.840 . S
C1143 C260 1.349 . S
C1145 C503 1.260 . S
C1163 C479 1.338 . S
C1161 C42 1.352 . S
C1179 C105 0.989 . S
C1181 C497 0.923 . S
C1199 C475 1.239 . S
C1197 C122 1.272 . S
C1217 C510 0.981 . S
C1215 C25 1.021 . S
C1235 C502 2.354 . S
C1233 C300 2.372 . S
C1251 C71 1.910 . S
C1253 C507 1.797 . S
C1269 C100 3.301 . S
C1271 C478 3.317 . S
C1289 C511 1.764 . S
C1287 C151 1.824 . S
C1305 C20 3.189 . S
C1307 C465 3.199 . S
C1323 C204 1.281 . S
C1325 C504 1.203 . S
C1343 C456 1.905 . S
C1341 C263 1.969 . S
C1361 C471 1.748 . S
C1359 C183 1.843 . S
