# Generated by pormake.
# Topology pts, (4,4)-cn, num edge types: 1
# Building blocks:
#     Node 0, Type 0, BuildingBlock: MUDLON_clean_sbu_0, # of connection points: 4
#     Node 1, Type 0, BuildingBlock: MUDLON_clean_sbu_0, # of connection points: 4
#     Node 2, Type 1, BuildingBlock: UXUYUI_clean_sbu_0, # of connection points: 4
#     Node 3, Type 1, BuildingBlock: UXUYUI_clean_sbu_0, # of connection points: 4
#     Edge 4, Type (0, 1), BuildingBlock: XIVTED_clean_linker_0, # of connection points: 2
#     Edge 5, Type (0, 1), BuildingBlock: XIVTED_clean_linker_0, # of connection points: 2
#     Edge 6, Type (0, 1), BuildingBlock: XIVTED_clean_linker_0, # of connection points: 2
#     Edge 7, Type (0, 1), BuildingBlock: XIVTED_clean_linker_0, # of connection points: 2
#     Edge 8, Type (0, 1), BuildingBlock: XIVTED_clean_linker_0, # of connection points: 2
#     Edge 9, Type (0, 1), BuildingBlock: XIVTED_clean_linker_0, # of connection points: 2
#     Edge 10, Type (0, 1), BuildingBlock: XIVTED_clean_linker_0, # of connection points: 2
#     Edge 11, Type (0, 1), BuildingBlock: XIVTED_clean_linker_0, # of connection points: 2
# Relax obj value: 0.040
# Max RMSD: 0.092
# Mean RMSD: 0.080
data_MOF--net-pts--node1-MUDLON_clean_sbu_0--node2-UXUYUI_clean_sbu_0--edge1-XIVTED_clean_linker_0
_symmetry_space_group_name_H-M    P1
_symmetry_Int_Tables_number       1
_symmetry_cell_setting            triclinic
loop_
_symmetry_equiv_pos_as_xyz
'x, y, z'
_cell_length_a     28.655875
_cell_length_b     28.472271
_cell_length_c     48.445327
_cell_angle_alpha  90.049561
_cell_angle_beta   89.967244
_cell_angle_gamma 89.963763
loop_
_atom_site_label
_atom_site_type_symbol
_atom_site_fract_x
_atom_site_fract_y
_atom_site_fract_z
_atom_type_partial_charge
Mg0 Mg 0.51111 0.99594 0.03842 0.0
C1 C 0.43087 0.00903 1.00644 0.0
O2 O 0.43477 0.96484 0.01391 0.0
C3 C 0.57696 0.9948 0.08293 0.0
O4 O 0.55369 0.95506 0.08325 0.0
C5 C 0.45131 0.99803 0.08545 0.0
O6 O 0.47034 0.0397 0.08241 0.0
O7 O 0.46246 0.96577 0.06843 0.0
O8 O 0.46266 0.03771 0.01383 0.0
O9 O 0.5465 0.95439 1.00673 0.0
C10 C 0.58728 0.93752 1.00985 0.0
O11 O 0.60561 0.93637 0.03466 0.0
O12 O 0.56621 0.02526 0.06472 0.0
Mg13 Mg 1.00146 0.51507 0.53849 0.0
C14 C 0.95842 0.55813 0.59061 0.0
O15 O 0.96454 0.51566 0.60053 0.0
C16 C 0.96395 0.48202 0.48359 0.0
O17 O 0.98778 0.51868 0.47516 0.0
C18 C 0.05793 0.59896 0.52082 0.0
O19 O 0.04728 0.6122 0.54603 0.0
O20 O 0.04862 0.55713 0.51343 0.0
O21 O 0.96597 0.56552 0.56511 0.0
O22 O 0.03096 0.45874 0.56323 0.0
C23 C 0.05357 0.46051 0.58578 0.0
O24 O 0.06701 0.50138 0.59554 0.0
O25 O 0.95872 0.47562 0.50941 0.0
Li26 Li 0.01259 0.06058 0.31239 0.0
Li27 Li 0.01412 0.97439 0.31594 0.0
Li28 Li 0.05761 0.01623 0.27873 0.0
Li29 Li 0.97276 0.01109 0.27607 0.0
C30 C 0.09218 0.04052 0.33959 0.0
N31 N 0.14139 0.08522 0.381 0.0
C32 C 0.09254 0.02202 0.3663 0.0
C33 C 0.11729 0.08142 0.33386 0.0
C34 C 0.11753 0.04521 0.38697 0.0
C35 C 0.1418 0.10361 0.3551 0.0
C36 C 0.92084 1.0041 0.33146 0.0
C37 C 0.84777 0.9627 0.33595 0.0
N38 N 0.84315 0.97956 0.36208 0.0
C39 C 0.91498 0.02156 0.35822 0.0
C40 C 0.88664 0.97491 0.32009 0.0
C41 C 0.87564 1.00851 0.37343 0.0
C42 C 0.99386 0.15723 0.31945 0.0
N43 N 1.00553 0.1173 0.33318 0.0
C44 C 1.00024 0.15734 0.3765 0.0
C45 C 0.00879 0.11666 0.36118 0.0
C46 C 0.98765 0.19913 0.36295 0.0
C47 C 0.98481 0.19871 0.33396 0.0
H48 H 0.99058 0.15662 0.29722 0.0
H49 H 0.01716 0.08433 0.37171 0.0
C50 C 0.0461 0.88596 0.33325 0.0
N51 N 0.01859 0.92262 0.34098 0.0
C52 C 0.05468 0.84894 0.35148 0.0
C53 C 0.00647 0.88802 0.38537 0.0
C54 C 0.99872 0.9242 0.36645 0.0
C55 C 0.03519 0.84989 0.37809 0.0
H56 H 0.06235 0.88604 0.31309 0.0
H57 H 0.97809 0.9542 0.37246 0.0
C58 C 0.03308 0.09193 0.25059 0.0
N59 N 0.07651 0.13909 0.20791 0.0
C60 C 0.0204 0.08285 0.22325 0.0
C61 C 0.06738 0.12543 0.25625 0.0
C62 C 0.0429 0.10694 0.20195 0.0
C63 C 0.08906 0.14878 0.23438 0.0
C64 C 1.00101 0.91704 0.2664 0.0
C65 C 0.01868 0.89651 0.24234 0.0
C66 C 0.96556 0.89442 0.28105 0.0
C67 C 0.99988 0.85409 0.23305 0.0
C68 C 0.94773 0.852 0.27113 0.0
N69 N 0.96506 0.83292 0.2475 0.0
C70 C 0.15508 0.01887 0.26697 0.0
C71 C 0.10584 1.00125 0.22909 0.0
C72 C 0.19464 0.01373 0.25035 0.0
N73 N 0.11182 0.01278 0.25608 0.0
C74 C 0.14436 0.99589 0.21171 0.0
C75 C 0.1896 1.00204 0.22228 0.0
H76 H 0.15893 0.027 0.28864 0.0
H77 H 0.07103 0.99594 0.22108 0.0
C78 C 0.88382 0.03767 0.25668 0.0
N79 N 0.92132 0.00987 0.25121 0.0
C80 C 0.84657 0.03996 0.23808 0.0
C81 C 0.88748 0.98526 0.20853 0.0
C82 C 0.924 0.98432 0.22755 0.0
C83 C 0.84806 0.0133 0.21369 0.0
H84 H 0.88302 0.0583 0.27544 0.0
H85 H 0.95489 0.96398 0.22313 0.0
O86 O 0.06769 0.01846 0.31912 0.0
O87 O 0.95886 0.01709 0.31614 0.0
O88 O 0.01198 0.06817 0.27169 0.0
O89 O 0.01896 0.9587 0.27569 0.0
H90 H 0.0736 0.99023 0.37107 0.0
H91 H 0.11776 0.09593 0.31326 0.0
H92 H 0.11793 0.03141 0.40777 0.0
H93 H 0.16119 0.13544 0.35098 0.0
H94 H 0.82117 0.93999 0.32742 0.0
H95 H 0.94074 0.04455 0.36728 0.0
H96 H 0.88978 0.96207 0.29917 0.0
H97 H 0.87092 0.02145 0.39425 0.0
H98 H 1.00351 0.15598 0.39875 0.0
H99 H 0.97456 0.22978 0.3226 0.0
H100 H 0.07755 0.82066 0.34508 0.0
H101 H 0.99036 0.89008 0.40556 0.0
H102 H 0.99383 0.05713 0.21851 0.0
H103 H 0.07709 0.13337 0.2773 0.0
H104 H 0.03368 0.10002 0.18068 0.0
H105 H 0.11582 0.17465 0.23846 0.0
H106 H 0.04644 0.91328 0.23088 0.0
H107 H 0.95239 0.90908 0.30007 0.0
H108 H 0.01301 0.83798 0.21436 0.0
H109 H 0.92024 0.83417 0.28226 0.0
H110 H 0.22881 0.0181 0.25953 0.0
H111 H 0.13866 0.98749 0.19017 0.0
H112 H 0.81669 0.0618 0.2429 0.0
H113 H 0.8904 0.96482 0.18974 0.0
Li114 Li 0.95765 1.00839 0.80691 0.0
Li115 Li 0.04058 0.01324 0.81121 0.0
Li116 Li 0.99868 0.05779 0.77322 0.0
Li117 Li 1.00505 0.96895 0.77287 0.0
C118 C 0.96549 0.09408 0.82914 0.0
N119 N 0.906 0.1503 0.85968 0.0
C120 C 0.95917 0.08577 0.85734 0.0
C121 C 0.94146 0.131 0.81649 0.0
C122 C 0.92893 0.11454 0.8724 0.0
C123 C 0.91161 0.15905 0.83228 0.0
C124 C 0.02541 0.92593 0.82929 0.0
C125 C 0.08343 0.86552 0.83568 0.0
N126 N 0.07468 0.86582 0.86328 0.0
C127 C 0.01661 0.92526 0.85767 0.0
C128 C 0.05876 0.89551 0.81815 0.0
C129 C 0.04203 0.89479 0.87452 0.0
C130 C 0.89673 0.9535 0.83801 0.0
N131 N 0.90083 0.99768 0.82765 0.0
C132 C 0.82838 0.01973 0.84875 0.0
C133 C 0.8668 0.03027 0.83197 0.0
C134 C 0.82473 0.97504 0.86091 0.0
C135 C 0.85908 0.94146 0.85479 0.0
H136 H 0.92293 0.9274 0.8334 0.0
H137 H 0.8696 0.06464 0.82276 0.0
C138 C 0.13658 0.02274 0.82749 0.0
N139 N 0.09179 0.01849 0.8365 0.0
C140 C 0.17319 0.0275 0.84643 0.0
C141 C 0.11673 0.02489 0.88342 0.0
C142 C 0.08144 0.02008 0.86384 0.0
C143 C 0.16349 0.02824 0.87489 0.0
H144 H 0.14397 0.02261 0.80563 0.0
H145 H 0.04565 0.01754 0.87053 0.0
C146 C 0.90304 0.01064 0.76367 0.0
N147 N 0.80677 0.01157 0.76159 0.0
C148 C 0.87814 0.96851 0.76486 0.0
C149 C 0.87912 0.0532 0.76121 0.0
C150 C 0.82943 0.96974 0.76386 0.0
C151 C 0.8304 0.05293 0.76022 0.0
C152 C 0.08862 1.00246 0.75253 0.0
C153 C 0.09138 0.02374 0.72659 0.0
C154 C 0.11937 0.96609 0.75918 0.0
C155 C 0.12443 1.00773 0.70756 0.0
C156 C 0.15191 0.95105 0.73959 0.0
N157 N 0.15371 0.97197 0.71439 0.0
C158 C 0.02359 0.15125 0.76022 0.0
C159 C 0.98768 0.10912 0.7238 0.0
C160 C 0.03055 0.19002 0.74303 0.0
N161 N 1.00248 0.11194 0.75037 0.0
C162 C 0.99472 0.14669 0.70574 0.0
C163 C 0.01664 0.18799 0.71518 0.0
H164 H 0.03547 0.15227 0.78141 0.0
H165 H 0.97183 0.07701 0.71641 0.0
C166 C 0.98575 0.87522 0.75996 0.0
N167 N 1.0049 0.91497 0.74934 0.0
C168 C 0.97892 0.83577 0.74329 0.0
C169 C 0.01182 0.87869 0.70496 0.0
C170 C 0.01773 0.91745 0.72236 0.0
C171 C 0.99164 0.83719 0.71527 0.0
H172 H 0.97432 0.87466 0.78124 0.0
H173 H 0.03123 0.94988 0.71407 0.0
O174 O 0.99536 0.06663 0.81407 0.0
O175 O 1.00106 0.95584 0.8125 0.0
O176 O 0.95061 0.01028 0.76536 0.0
O177 O 0.05632 0.01756 0.77138 0.0
H178 H 0.97678 0.057 0.86744 0.0
H179 H 0.9454 0.13775 0.79468 0.0
H180 H 0.92355 0.10831 0.8942 0.0
H181 H 0.89276 0.18766 0.82273 0.0
H182 H 0.10946 0.84191 0.82733 0.0
H183 H 0.99068 0.94837 0.86663 0.0
H184 H 0.06539 0.89484 0.7962 0.0
H185 H 0.03582 0.89418 0.89655 0.0
H186 H 0.80263 0.04673 0.85278 0.0
H187 H 0.85704 0.90614 0.86299 0.0
H188 H 0.20868 0.02974 0.83887 0.0
H189 H 0.10735 0.02626 0.90506 0.0
H190 H 0.89624 0.93531 0.76687 0.0
H191 H 0.89799 0.08608 0.7603 0.0
H192 H 0.80963 0.93746 0.76496 0.0
H193 H 0.81137 0.08561 0.75846 0.0
H194 H 0.06815 0.05215 0.72113 0.0
H195 H 0.11839 0.94986 0.77932 0.0
H196 H 0.12677 0.02372 0.68736 0.0
H197 H 0.17582 0.92284 0.74446 0.0
H198 H 0.04677 0.22113 0.75155 0.0
H199 H 0.98423 0.14268 0.68441 0.0
H200 H 0.96232 0.8051 0.7521 0.0
H201 H 0.02253 0.88145 0.68359 0.0
H202 H 0.3839 0.92912 0.09044 0.0
H203 H 0.26921 0.05523 0.22215 0.0
H204 H 0.43962 0.05185 0.13102 0.0
H205 H 0.20484 0.93765 0.18071 0.0
H206 H 0.33586 0.0486 0.19127 0.0
H207 H 0.32191 0.92567 0.12561 0.0
C208 C 0.38345 0.95488 0.10691 0.0
C209 C 0.41666 0.99106 0.10769 0.0
C210 C 0.30728 0.02406 0.18893 0.0
C211 C 0.34618 0.98752 0.1477 0.0
C212 C 0.26923 0.02767 0.20673 0.0
C213 C 0.23114 0.99708 0.20404 0.0
C214 C 0.30747 0.98969 0.16808 0.0
C215 C 0.23305 0.96252 0.18328 0.0
C216 C 0.34801 0.95307 0.12686 0.0
C217 C 0.41443 0.02366 0.12939 0.0
N218 N 0.27048 0.95986 0.16603 0.0
N219 N 0.37978 0.02122 0.14838 0.0
H220 H 0.01521 0.37468 0.57495 0.0
H221 H 0.09013 0.25104 0.7153 0.0
H222 H 0.09586 0.44858 0.63648 0.0
H223 H 0.96363 0.21726 0.67095 0.0
H224 H 0.10346 0.3163 0.68347 0.0
H225 H 0.00913 0.30789 0.60608 0.0
C226 C 0.03222 0.37676 0.59488 0.0
C227 C 0.05579 0.41767 0.60316 0.0
C228 C 0.07288 0.29442 0.68081 0.0
C229 C 0.04874 0.34086 0.63897 0.0
C230 C 0.06492 0.25728 0.6991 0.0
C231 C 0.02552 0.22816 0.69602 0.0
C232 C 0.04178 0.30209 0.65895 0.0
C233 C 0.99496 0.23777 0.67403 0.0
C234 C 0.0284 0.33861 0.6127 0.0
C235 C 0.07716 0.41792 0.62927 0.0
N236 N 1.00388 0.27364 0.65633 0.0
N237 N 0.07304 0.38009 0.64633 0.0
H238 H 0.6165 0.92694 0.11417 0.0
H239 H 0.79773 0.08898 0.19439 0.0
H240 H 0.62875 0.07461 0.09526 0.0
H241 H 0.80805 0.93816 0.1882 0.0
H242 H 0.73175 0.08722 0.16189 0.0
H243 H 0.68201 0.93338 0.14538 0.0
C244 C 0.6329 0.96095 0.11661 0.0
C245 C 0.61696 1.00036 0.10199 0.0
C246 C 0.74872 0.05466 0.1676 0.0
C247 C 0.69281 1.00789 0.13809 0.0
C248 C 0.78607 0.05556 0.18625 0.0
C249 C 0.80842 0.01361 0.19397 0.0
C250 C 0.73332 0.01144 0.15704 0.0
C251 C 0.79223 0.97136 0.18262 0.0
C252 C 0.67063 0.96449 0.13443 0.0
C253 C 0.64002 0.04334 0.10607 0.0
N254 N 0.75562 0.97138 0.1649 0.0
N255 N 0.67681 0.04608 0.1239 0.0
H256 H 0.95765 0.55738 0.64719 0.0
H257 H 0.96327 0.8377 0.66099 0.0
H258 H 0.94837 0.65138 0.57752 0.0
H259 H 0.99849 0.74296 0.72737 0.0
H260 H 0.94878 0.77014 0.63113 0.0
H261 H 0.96148 0.62529 0.67798 0.0
C262 C 0.95567 0.59225 0.63836 0.0
C263 C 0.95299 0.59859 0.60966 0.0
C264 C 0.95959 0.76416 0.65226 0.0
C265 C 0.95788 0.67661 0.64486 0.0
C266 C 0.96829 0.80277 0.6693 0.0
C267 C 0.98251 0.79625 0.6968 0.0
C268 C 0.96487 0.7185 0.66272 0.0
C269 C 0.98717 0.74992 0.70647 0.0
C270 C 0.95819 0.63105 0.65597 0.0
C271 C 0.95062 0.64473 0.59948 0.0
N272 N 0.97847 0.71293 0.68946 0.0
N273 N 0.95344 0.68193 0.61704 0.0
H274 H 0.42321 0.07643 0.96543 0.0
H275 H 0.16936 0.98152 0.92397 0.0
H276 H 0.34506 0.97143 1.00985 0.0
H277 H 0.24483 0.08049 0.87337 0.0
H278 H 0.23128 0.98505 0.95798 0.0
H279 H 0.35606 0.08667 0.93404 0.0
C280 C 0.39168 0.05632 0.96888 0.0
C281 C 0.38968 0.02276 0.99004 0.0
C282 C 0.23444 1.00626 0.93953 0.0
C283 C 0.31354 0.03384 0.95444 0.0
C284 C 0.19877 1.00446 0.92009 0.0
C285 C 0.20162 0.03087 0.89572 0.0
C286 C 0.27384 0.03443 0.93469 0.0
C287 C 0.24136 0.0591 0.89171 0.0
C288 C 0.3536 0.06184 0.95089 0.0
C289 C 0.34827 0.99729 0.99357 0.0
N290 N 0.27603 0.06006 0.91097 0.0
N291 N 0.31213 1.00317 0.97593 0.0
H292 H 0.9264 0.39515 0.49458 0.0
H293 H 0.00928 0.29046 0.34971 0.0
H294 H 0.98067 0.47974 0.42798 0.0
H295 H 0.94209 0.20735 0.41275 0.0
H296 H 0.99389 0.36095 0.3769 0.0
H297 H 0.92547 0.32721 0.46369 0.0
C298 C 0.93732 0.39971 0.47334 0.0
C299 C 0.95416 0.44321 0.46399 0.0
C300 C 0.98225 0.32733 0.38473 0.0
C301 C 0.9539 0.36527 0.42862 0.0
C302 C 0.99089 0.28698 0.36913 0.0
C303 C 0.97729 0.24265 0.37896 0.0
C304 C 0.96001 0.32353 0.41049 0.0
C305 C 0.95413 0.24053 0.40453 0.0
C306 C 0.93701 0.36078 0.45573 0.0
C307 C 0.96777 0.44688 0.43621 0.0
N308 N 0.94649 0.28029 0.41945 0.0
N309 N 0.96791 0.40834 0.41964 0.0
H310 H 0.67453 0.89865 1.00842 0.0
H311 H 0.73171 0.99955 0.85827 0.0
H312 H 0.57067 0.96249 0.95595 0.0
H313 H 0.83093 0.925 0.90897 0.0
H314 H 0.67083 0.98249 0.89236 0.0
H315 H 0.73027 0.90199 0.9704 0.0
C316 C 0.66317 0.91266 0.98875 0.0
C317 C 0.61792 0.93069 0.9855 0.0
C318 C 0.70586 0.96954 0.89588 0.0
C319 C 0.68202 0.9355 0.9419 0.0
C320 C 0.74071 0.97958 0.87652 0.0
C321 C 0.7866 0.96376 0.88072 0.0
C322 C 0.71701 0.94379 0.91974 0.0
C323 C 0.79601 0.93746 0.90462 0.0
C324 C 0.69513 0.91476 0.96704 0.0
C325 C 0.6052 0.94828 0.95946 0.0
N326 N 0.76168 0.92859 0.92323 0.0
N327 N 0.63727 0.95084 0.93878 0.0
H328 H 0.07474 0.69265 0.52869 0.0
H329 H 0.04175 0.75476 0.36893 0.0
H330 H 0.06383 0.58788 0.46455 0.0
H331 H 0.05304 0.85868 0.4335 0.0
H332 H 0.05752 0.69328 0.40289 0.0
H333 H 0.07614 0.75375 0.49342 0.0
C334 C 0.07344 0.68237 0.50717 0.0
C335 C 0.06858 0.635 0.49964 0.0
C336 C 0.05678 0.72955 0.40961 0.0
C337 C 0.06939 0.70505 0.45905 0.0
C338 C 0.04789 0.76473 0.3902 0.0
C339 C 0.04563 0.81203 0.39837 0.0
C340 C 0.06352 0.74166 0.43745 0.0
C341 C 0.05348 0.82268 0.42631 0.0
C342 C 0.07399 0.71737 0.48701 0.0
C343 C 0.06728 0.62392 0.47137 0.0
N344 N 0.06186 0.78782 0.44481 0.0
N345 N 0.06706 0.65871 0.45214 0.0
loop_
_geom_bond_atom_site_label_1
_geom_bond_atom_site_label_2
_geom_bond_distance
_geom_bond_site_symmetry_2
_ccdc_geom_bond_type
Mg0 O7 2.141 . S
Mg0 O8 2.048 . S
Mg0 O9 2.048 . S
Mg0 O12 2.141 . S
C1 O2 1.313 . S
C1 O8 1.195 1_566 S
O2 C1 1.313 . S
C3 O4 1.245 . S
C3 O12 1.289 1_565 S
O4 C3 1.245 . S
C5 O6 1.245 . S
C5 O7 1.289 1_565 S
O6 C5 1.245 . S
O7 Mg0 2.141 . S
O7 C5 1.289 1_545 S
O8 Mg0 2.048 . S
O8 C1 1.195 1_544 S
O9 Mg0 2.048 . S
O9 C10 1.195 1_544 S
C10 O9 1.195 1_566 S
C10 O11 1.313 . S
O11 C10 1.313 . S
O12 Mg0 2.141 . S
O12 C3 1.289 1_545 S
Mg13 O20 2.141 . S
Mg13 O21 2.048 . S
Mg13 O22 2.048 . S
Mg13 O25 2.141 . S
C14 O15 1.313 . S
C14 O21 1.195 1_455 S
O15 C14 1.313 . S
C16 O17 1.245 . S
C16 O25 1.289 1_455 S
O17 C16 1.245 . S
C18 O19 1.245 . S
C18 O20 1.289 1_455 S
O19 C18 1.245 . S
O20 Mg13 2.141 . S
O20 C18 1.289 1_655 S
O21 Mg13 2.048 . S
O21 C14 1.195 1_655 S
O22 Mg13 2.048 . S
O22 C23 1.195 1_655 S
C23 O22 1.195 1_455 S
C23 O24 1.313 . S
O24 C23 1.313 . S
O25 Mg13 2.141 . S
O25 C16 1.289 1_655 S
Li26 N43 1.990 . S
Li26 O86 1.956 1_545 S
Li26 O87 1.970 1_455 S
Li26 O88 1.961 1_455 S
Li27 N51 1.990 . S
Li27 O86 1.970 1_655 S
Li27 O87 1.956 1_565 S
Li27 O89 1.961 1_655 S
Li28 N73 1.990 . S
Li28 O86 1.961 1_545 S
Li28 O88 1.956 1_455 S
Li28 O89 1.970 1_545 S
Li29 N79 1.990 . S
Li29 O87 1.961 1_565 S
Li29 O88 1.970 1_565 S
Li29 O89 1.956 1_655 S
C30 C32 1.348 1_545 S
C30 C33 1.356 . S
C30 O86 1.325 1_545 S
N31 C34 1.314 1_545 S
N31 C35 1.279 . S
C32 C30 1.348 1_565 S
C32 C34 1.353 . S
C32 H90 0.929 . S
C33 C30 1.356 . S
C33 C35 1.358 . S
C33 H91 0.930 . S
C34 N31 1.314 1_565 S
C34 C32 1.353 . S
C34 H92 0.930 . S
C35 N31 1.279 . S
C35 C33 1.358 . S
C35 H93 0.930 . S
C36 C39 1.348 . S
C36 C40 1.356 1_545 S
C36 O87 1.325 . S
C37 N38 1.279 . S
C37 C40 1.358 . S
C37 H94 0.930 . S
N38 C37 1.279 . S
N38 C41 1.314 1_565 S
C39 C36 1.348 . S
C39 C41 1.353 . S
C39 H95 0.929 . S
C40 C36 1.356 1_565 S
C40 C37 1.358 . S
C40 H96 0.930 . S
C41 N38 1.314 1_545 S
C41 C39 1.353 . S
C41 H97 0.930 . S
C42 N43 1.314 1_655 S
C42 C47 1.353 . S
C42 H48 0.930 . S
N43 Li26 1.990 . S
N43 C42 1.314 1_455 S
N43 C45 1.279 . S
C44 C45 1.358 . S
C44 C46 1.356 . S
C44 H98 0.930 . S
C45 N43 1.279 . S
C45 C44 1.358 . S
C45 H49 0.930 . S
C46 C44 1.356 . S
C46 C47 1.348 1_455 S
C47 C42 1.353 . S
C47 C46 1.348 1_655 S
C47 H99 0.929 . S
H48 C42 0.930 . S
H49 C45 0.930 . S
C50 N51 1.314 1_455 S
C50 C52 1.353 . S
C50 H56 0.930 . S
N51 Li27 1.990 . S
N51 C50 1.314 1_655 S
N51 C54 1.279 . S
C52 C50 1.353 . S
C52 C55 1.348 . S
C52 H100 0.929 . S
C53 C54 1.358 . S
C53 C55 1.356 1_655 S
C53 H101 0.930 . S
C54 N51 1.279 . S
C54 C53 1.358 . S
C54 H57 0.930 . S
C55 C52 1.348 . S
C55 C53 1.356 1_455 S
H56 C50 0.930 . S
H57 C54 0.930 . S
C58 C60 1.348 1_455 S
C58 C61 1.356 . S
C58 O88 1.325 1_455 S
N59 C62 1.314 1_455 S
N59 C63 1.279 . S
C60 C58 1.348 1_655 S
C60 C62 1.353 . S
C60 H102 0.929 . S
C61 C58 1.356 . S
C61 C63 1.358 . S
C61 H103 0.930 . S
C62 N59 1.314 1_655 S
C62 C60 1.353 . S
C62 H104 0.930 . S
C63 N59 1.279 . S
C63 C61 1.358 . S
C63 H105 0.930 . S
C64 C65 1.348 . S
C64 C66 1.356 1_455 S
C64 O89 1.325 . S
C65 C64 1.348 . S
C65 C67 1.353 . S
C65 H106 0.929 . S
C66 C64 1.356 1_655 S
C66 C68 1.358 . S
C66 H107 0.930 . S
C67 C65 1.353 . S
C67 N69 1.314 1_455 S
C67 H108 0.930 . S
C68 C66 1.358 . S
C68 N69 1.279 . S
C68 H109 0.930 . S
N69 C67 1.314 1_655 S
N69 C68 1.279 . S
C70 C72 1.353 . S
C70 N73 1.314 1_565 S
C70 H76 0.930 . S
C71 N73 1.279 . S
C71 C74 1.358 . S
C71 H77 0.930 . S
C72 C70 1.353 . S
C72 C75 1.348 1_565 S
C72 H110 0.929 . S
N73 Li28 1.990 . S
N73 C70 1.314 1_545 S
N73 C71 1.279 . S
C74 C71 1.358 . S
C74 C75 1.356 . S
C74 H111 0.930 . S
C75 C72 1.348 1_545 S
C75 C74 1.356 . S
H76 C70 0.930 . S
H77 C71 0.930 . S
C78 N79 1.314 1_545 S
C78 C80 1.353 . S
C78 H84 0.930 . S
N79 Li29 1.990 . S
N79 C78 1.314 1_565 S
N79 C82 1.279 . S
C80 C78 1.353 . S
C80 C83 1.348 . S
C80 H112 0.929 . S
C81 C82 1.358 . S
C81 C83 1.356 1_565 S
C81 H113 0.930 . S
C82 N79 1.279 . S
C82 C81 1.358 . S
C82 H85 0.930 . S
C83 C80 1.348 . S
C83 C81 1.356 1_545 S
H84 C78 0.930 . S
H85 C82 0.930 . S
O86 Li26 1.956 1_565 S
O86 Li27 1.970 1_455 S
O86 Li28 1.961 1_565 S
O86 C30 1.325 1_565 S
O87 Li26 1.970 1_655 S
O87 Li27 1.956 1_545 S
O87 Li29 1.961 1_545 S
O87 C36 1.325 . S
O88 Li26 1.961 1_655 S
O88 Li28 1.956 1_655 S
O88 Li29 1.970 1_545 S
O88 C58 1.325 1_655 S
O89 Li27 1.961 1_455 S
O89 Li28 1.970 1_565 S
O89 Li29 1.956 1_455 S
O89 C64 1.325 . S
H90 C32 0.929 . S
H91 C33 0.930 . S
H92 C34 0.930 . S
H93 C35 0.930 . S
H94 C37 0.930 . S
H95 C39 0.929 . S
H96 C40 0.930 . S
H97 C41 0.930 . S
H98 C44 0.930 . S
H99 C47 0.929 . S
H100 C52 0.929 . S
H101 C53 0.930 . S
H102 C60 0.929 . S
H103 C61 0.930 . S
H104 C62 0.930 . S
H105 C63 0.930 . S
H106 C65 0.929 . S
H107 C66 0.930 . S
H108 C67 0.930 . S
H109 C68 0.930 . S
H110 C72 0.929 . S
H111 C74 0.930 . S
H112 C80 0.929 . S
H113 C81 0.930 . S
Li114 N131 1.990 . S
Li114 O174 1.956 1_655 S
Li114 O175 1.970 1_545 S
Li114 O176 1.961 1_545 S
Li115 N139 1.990 . S
Li115 O174 1.970 1_565 S
Li115 O175 1.956 1_455 S
Li115 O177 1.961 1_565 S
Li116 N161 1.990 . S
Li116 O174 1.961 1_655 S
Li116 O176 1.956 1_545 S
Li116 O177 1.970 1_655 S
Li117 N167 1.990 . S
Li117 O175 1.961 1_455 S
Li117 O176 1.970 1_455 S
Li117 O177 1.956 1_565 S
C118 C120 1.348 . S
C118 C121 1.355 1_455 S
C118 O174 1.325 . S
N119 C122 1.314 1_655 S
N119 C123 1.279 . S
C120 C118 1.348 . S
C120 C122 1.353 . S
C120 H178 0.929 . S
C121 C118 1.355 1_655 S
C121 C123 1.358 . S
C121 H179 0.930 . S
C122 N119 1.314 1_455 S
C122 C120 1.353 . S
C122 H180 0.930 . S
C123 N119 1.279 . S
C123 C121 1.358 . S
C123 H181 0.930 . S
C124 C127 1.348 1_455 S
C124 C128 1.355 . S
C124 O175 1.325 1_455 S
C125 N126 1.279 . S
C125 C128 1.358 . S
C125 H182 0.930 . S
N126 C125 1.279 . S
N126 C129 1.314 1_455 S
C127 C124 1.348 1_655 S
C127 C129 1.353 . S
C127 H183 0.929 . S
C128 C124 1.355 . S
C128 C125 1.358 . S
C128 H184 0.930 . S
C129 N126 1.314 1_655 S
C129 C127 1.353 . S
C129 H185 0.930 . S
C130 N131 1.314 1_565 S
C130 C135 1.353 . S
C130 H136 0.930 . S
N131 Li114 1.990 . S
N131 C130 1.314 1_545 S
N131 C133 1.279 . S
C132 C133 1.358 . S
C132 C134 1.355 . S
C132 H186 0.930 . S
C133 N131 1.279 . S
C133 C132 1.358 . S
C133 H137 0.930 . S
C134 C132 1.355 . S
C134 C135 1.348 1_545 S
C135 C130 1.353 . S
C135 C134 1.348 1_565 S
C135 H187 0.929 . S
H136 C130 0.930 . S
H137 C133 0.930 . S
C138 N139 1.314 1_545 S
C138 C140 1.353 . S
C138 H144 0.930 . S
N139 Li115 1.990 . S
N139 C138 1.314 1_565 S
N139 C142 1.279 . S
C140 C138 1.353 . S
C140 C143 1.348 . S
C140 H188 0.929 . S
C141 C142 1.358 . S
C141 C143 1.355 1_565 S
C141 H189 0.930 . S
C142 N139 1.279 . S
C142 C141 1.358 . S
C142 H145 0.930 . S
C143 C140 1.348 . S
C143 C141 1.355 1_545 S
H144 C138 0.930 . S
H145 C142 0.930 . S
C146 C148 1.348 1_545 S
C146 C149 1.355 . S
C146 O176 1.325 1_545 S
N147 C150 1.314 1_545 S
N147 C151 1.279 . S
C148 C146 1.348 1_565 S
C148 C150 1.353 . S
C148 H190 0.929 . S
C149 C146 1.355 . S
C149 C151 1.358 . S
C149 H191 0.930 . S
C150 N147 1.314 1_565 S
C150 C148 1.353 . S
C150 H192 0.930 . S
C151 N147 1.279 . S
C151 C149 1.358 . S
C151 H193 0.930 . S
C152 C153 1.348 . S
C152 C154 1.355 1_545 S
C152 O177 1.325 . S
C153 C152 1.348 . S
C153 C155 1.353 . S
C153 H194 0.929 . S
C154 C152 1.355 1_565 S
C154 C156 1.358 . S
C154 H195 0.930 . S
C155 C153 1.353 . S
C155 N157 1.314 1_545 S
C155 H196 0.930 . S
C156 C154 1.358 . S
C156 N157 1.279 . S
C156 H197 0.930 . S
N157 C155 1.314 1_565 S
N157 C156 1.279 . S
C158 C160 1.353 . S
C158 N161 1.314 1_455 S
C158 H164 0.930 . S
C159 N161 1.279 . S
C159 C162 1.358 . S
C159 H165 0.930 . S
C160 C158 1.353 . S
C160 C163 1.348 . S
C160 H198 0.929 . S
N161 Li116 1.990 . S
N161 C158 1.314 1_655 S
N161 C159 1.279 . S
C162 C159 1.358 . S
C162 C163 1.355 1_655 S
C162 H199 0.930 . S
C163 C160 1.348 . S
C163 C162 1.355 1_455 S
H164 C158 0.930 . S
H165 C159 0.930 . S
C166 N167 1.314 1_655 S
C166 C168 1.353 . S
C166 H172 0.930 . S
N167 Li117 1.990 . S
N167 C166 1.314 1_455 S
N167 C170 1.279 . S
C168 C166 1.353 . S
C168 C171 1.348 1_655 S
C168 H200 0.929 . S
C169 C170 1.358 . S
C169 C171 1.355 . S
C169 H201 0.930 . S
C170 N167 1.279 . S
C170 C169 1.358 . S
C170 H173 0.930 . S
C171 C168 1.348 1_455 S
C171 C169 1.355 . S
H172 C166 0.930 . S
H173 C170 0.930 . S
O174 Li114 1.956 1_455 S
O174 Li115 1.970 1_545 S
O174 Li116 1.961 1_455 S
O174 C118 1.325 . S
O175 Li114 1.970 1_565 S
O175 Li115 1.956 1_655 S
O175 Li117 1.961 1_655 S
O175 C124 1.325 1_655 S
O176 Li114 1.961 1_565 S
O176 Li116 1.956 1_565 S
O176 Li117 1.970 1_655 S
O176 C146 1.325 1_565 S
O177 Li115 1.961 1_545 S
O177 Li116 1.970 1_455 S
O177 Li117 1.956 1_545 S
O177 C152 1.325 . S
H178 C120 0.929 . S
H179 C121 0.930 . S
H180 C122 0.930 . S
H181 C123 0.930 . S
H182 C125 0.930 . S
H183 C127 0.929 . S
H184 C128 0.930 . S
H185 C129 0.930 . S
H186 C132 0.930 . S
H187 C135 0.929 . S
H188 C140 0.929 . S
H189 C141 0.930 . S
H190 C148 0.929 . S
H191 C149 0.930 . S
H192 C150 0.930 . S
H193 C151 0.930 . S
H194 C153 0.929 . S
H195 C154 0.930 . S
H196 C155 0.930 . S
H197 C156 0.930 . S
H198 C160 0.929 . S
H199 C162 0.930 . S
H200 C168 0.929 . S
H201 C169 0.930 . S
H202 C208 0.930 . S
H203 C212 0.930 . S
H204 C217 0.929 . S
H205 C215 0.929 . S
H206 C210 0.929 . S
H207 C216 0.929 . S
C208 H202 0.930 . S
C208 C209 1.369 . S
C208 C216 1.378 . S
C209 C208 1.369 . S
C209 C217 1.431 1_545 S
C210 H206 0.929 . S
C210 C212 1.378 . S
C210 C214 1.350 . S
C211 C214 1.462 1_545 S
C211 C216 1.351 . S
C211 N219 1.426 1_545 S
C212 H203 0.930 . S
C212 C210 1.378 . S
C212 C213 1.367 . S
C213 C212 1.367 . S
C213 C215 1.433 1_565 S
C214 C210 1.350 . S
C214 C211 1.462 1_565 S
C214 N218 1.427 1_565 S
C215 H205 0.929 . S
C215 C213 1.433 1_545 S
C215 N218 1.384 . S
C216 H207 0.929 . S
C216 C208 1.378 . S
C216 C211 1.351 . S
C217 H204 0.929 . S
C217 C209 1.431 1_565 S
C217 N219 1.384 . S
N218 C214 1.427 1_545 S
N218 C215 1.384 . S
N219 C211 1.426 1_565 S
N219 C217 1.384 . S
H220 C226 0.930 . S
H221 C230 0.930 . S
H222 C235 0.929 . S
H223 C233 0.929 . S
H224 C228 0.929 . S
H225 C234 0.929 . S
C226 H220 0.930 . S
C226 C227 1.384 . S
C226 C234 1.378 . S
C227 C226 1.384 . S
C227 C235 1.416 1_655 S
C228 H224 0.929 . S
C228 C230 1.378 . S
C228 C232 1.350 . S
C229 C232 1.461 1_655 S
C229 C234 1.369 . S
C229 N237 1.408 1_655 S
C230 H221 0.930 . S
C230 C228 1.378 . S
C230 C231 1.367 . S
C231 C230 1.367 . S
C231 C233 1.433 1_455 S
C232 C228 1.350 . S
C232 C229 1.461 1_455 S
C232 N236 1.427 1_455 S
C233 H223 0.929 . S
C233 C231 1.433 1_655 S
C233 N236 1.384 . S
C234 H225 0.929 . S
C234 C226 1.378 . S
C234 C229 1.369 . S
C235 H222 0.929 . S
C235 C227 1.416 1_455 S
C235 N237 1.384 . S
N236 C232 1.427 1_655 S
N236 C233 1.384 . S
N237 C229 1.408 1_455 S
N237 C235 1.384 . S
H238 C244 0.930 . S
H239 C248 0.930 . S
H240 C253 0.929 . S
H241 C251 0.929 . S
H242 C246 0.929 . S
H243 C252 0.929 . S
C244 H238 0.930 . S
C244 C245 1.383 . S
C244 C252 1.378 . S
C245 C244 1.383 . S
C245 C253 1.417 1_565 S
C246 H242 0.929 . S
C246 C248 1.378 . S
C246 C250 1.350 . S
C247 C250 1.461 1_565 S
C247 C252 1.368 . S
C247 N255 1.409 1_565 S
C248 H239 0.930 . S
C248 C246 1.378 . S
C248 C249 1.367 . S
C249 C248 1.367 . S
C249 C251 1.433 1_545 S
C250 C246 1.350 . S
C250 C247 1.461 1_545 S
C250 N254 1.427 1_545 S
C251 H241 0.929 . S
C251 C249 1.433 1_565 S
C251 N254 1.384 . S
C252 H243 0.929 . S
C252 C244 1.378 . S
C252 C247 1.368 . S
C253 H240 0.929 . S
C253 C245 1.417 1_545 S
C253 N255 1.384 . S
N254 C250 1.427 1_565 S
N254 C251 1.384 . S
N255 C247 1.409 1_545 S
N255 C253 1.384 . S
H256 C262 0.930 . S
H257 C266 0.930 . S
H258 C271 0.929 . S
H259 C269 0.929 . S
H260 C264 0.929 . S
H261 C270 0.929 . S
C262 H256 0.930 . S
C262 C263 1.374 . S
C262 C270 1.378 . S
C263 C262 1.374 . S
C263 C271 1.426 1_455 S
C264 H260 0.929 . S
C264 C266 1.378 . S
C264 C268 1.350 . S
C265 C268 1.462 1_455 S
C265 C270 1.355 . S
C265 N273 1.422 1_455 S
C266 H257 0.930 . S
C266 C264 1.378 . S
C266 C267 1.367 . S
C267 C266 1.367 . S
C267 C269 1.433 1_655 S
C268 C264 1.350 . S
C268 C265 1.462 1_655 S
C268 N272 1.427 1_655 S
C269 H259 0.929 . S
C269 C267 1.433 1_455 S
C269 N272 1.384 . S
C270 H261 0.929 . S
C270 C262 1.378 . S
C270 C265 1.355 . S
C271 H258 0.929 . S
C271 C263 1.426 1_655 S
C271 N273 1.384 . S
N272 C268 1.427 1_455 S
N272 C269 1.384 . S
N273 C265 1.422 1_655 S
N273 C271 1.384 . S
H274 C280 0.930 . S
H275 C284 0.930 . S
H276 C289 0.929 . S
H277 C287 0.929 . S
H278 C282 0.929 . S
H279 C288 0.929 . S
C280 H274 0.930 . S
C280 C281 1.367 . S
C280 C288 1.378 . S
C281 C280 1.367 . S
C281 C289 1.433 1_545 S
C282 H278 0.929 . S
C282 C284 1.378 . S
C282 C286 1.365 . S
C283 C286 1.462 1_545 S
C283 C288 1.350 . S
C283 N291 1.427 1_545 S
C284 H275 0.930 . S
C284 C282 1.378 . S
C284 C285 1.367 1_565 S
C285 C284 1.367 1_545 S
C285 C287 1.433 . S
C286 C282 1.365 . S
C286 C283 1.462 1_565 S
C286 N290 1.412 1_565 S
C287 H277 0.929 . S
C287 C285 1.433 . S
C287 N290 1.384 . S
C288 H279 0.929 . S
C288 C280 1.378 . S
C288 C283 1.350 . S
C289 H276 0.929 . S
C289 C281 1.433 1_565 S
C289 N291 1.384 . S
N290 C286 1.412 1_545 S
N290 C287 1.384 . S
N291 C283 1.427 1_565 S
N291 C289 1.384 . S
H292 C298 0.930 . S
H293 C302 0.930 . S
H294 C307 0.929 . S
H295 C305 0.929 . S
H296 C300 0.929 . S
H297 C306 0.929 . S
C298 H292 0.930 . S
C298 C299 1.367 . S
C298 C306 1.378 . S
C299 C298 1.367 . S
C299 C307 1.433 1_455 S
C300 H296 0.929 . S
C300 C302 1.378 . S
C300 C304 1.352 . S
C301 C304 1.462 . S
C301 C306 1.350 1_655 S
C301 N309 1.427 . S
C302 H293 0.930 . S
C302 C300 1.378 . S
C302 C303 1.370 . S
C303 C302 1.370 . S
C303 C305 1.431 1_655 S
C304 C300 1.352 . S
C304 C301 1.462 . S
C304 N308 1.425 1_655 S
C305 H295 0.929 . S
C305 C303 1.431 1_455 S
C305 N308 1.384 . S
C306 H297 0.929 . S
C306 C298 1.378 . S
C306 C301 1.350 1_455 S
C307 H294 0.929 . S
C307 C299 1.433 1_655 S
C307 N309 1.384 . S
N308 C304 1.425 1_455 S
N308 C305 1.384 . S
N309 C301 1.427 . S
N309 C307 1.384 . S
H310 C316 0.930 . S
H311 C320 0.930 . S
H312 C325 0.929 . S
H313 C323 0.929 . S
H314 C318 0.929 . S
H315 C324 0.929 . S
C316 H310 0.930 . S
C316 C317 1.384 . S
C316 C324 1.378 . S
C317 C316 1.384 . S
C317 C325 1.416 1_565 S
C318 H314 0.929 . S
C318 C320 1.378 . S
C318 C322 1.364 . S
C319 C322 1.462 1_565 S
C319 C324 1.350 . S
C319 N327 1.427 1_565 S
C320 H311 0.930 . S
C320 C318 1.378 . S
C320 C321 1.369 1_545 S
C321 C320 1.369 1_565 S
C321 C323 1.431 . S
C322 C318 1.364 . S
C322 C319 1.462 1_545 S
C322 N326 1.413 1_545 S
C323 H313 0.929 . S
C323 C321 1.431 . S
C323 N326 1.384 . S
C324 H315 0.929 . S
C324 C316 1.378 . S
C324 C319 1.350 . S
C325 H312 0.929 . S
C325 C317 1.416 1_545 S
C325 N327 1.384 . S
N326 C322 1.413 1_565 S
N326 C323 1.384 . S
N327 C319 1.427 1_545 S
N327 C325 1.384 . S
H328 C334 0.930 . S
H329 C338 0.930 . S
H330 C343 0.929 . S
H331 C341 0.929 . S
H332 C336 0.929 . S
H333 C342 0.929 . S
C334 H328 0.930 . S
C334 C335 1.380 . S
C334 C342 1.378 . S
C335 C334 1.380 . S
C335 C343 1.420 1_455 S
C336 H332 0.929 . S
C336 C338 1.378 . S
C336 C340 1.353 . S
C337 C340 1.462 1_455 S
C337 C342 1.350 . S
C337 N345 1.427 1_455 S
C338 H329 0.930 . S
C338 C336 1.378 . S
C338 C339 1.362 1_655 S
C339 C338 1.362 1_455 S
C339 C341 1.438 . S
C340 C336 1.353 . S
C340 C337 1.462 1_655 S
C340 N344 1.424 1_655 S
C341 H331 0.929 . S
C341 C339 1.438 . S
C341 N344 1.384 . S
C342 H333 0.929 . S
C342 C334 1.378 . S
C342 C337 1.350 . S
C343 H330 0.929 . S
C343 C335 1.420 1_655 S
C343 N345 1.384 . S
N344 C340 1.424 1_455 S
N344 C341 1.384 . S
N345 C337 1.427 1_655 S
N345 C343 1.384 . S
C213 C75 1.407 1_565 S
C209 C5 1.397 1_545 S
C231 C163 1.479 . S
C227 C23 1.474 1_655 S
C249 C83 1.406 . S
C245 C3 1.400 . S
C267 C171 1.477 1_655 S
C263 C14 1.477 . S
C285 C143 1.477 . S
C281 C1 1.476 1_545 S
C303 C46 1.407 1_655 S
C299 C16 1.397 . S
C321 C134 1.478 1_565 S
C317 C10 1.477 . S
C335 C18 1.399 . S
C339 C55 1.408 . S
