# Generated by pormake.
# Topology rtl, (3,6)-cn, num edge types: 1
# Building blocks:
#     Node 0, Type 0, BuildingBlock: OLANEW_clean_sbu_2, # of connection points: 3
#     Node 1, Type 0, BuildingBlock: OLANEW_clean_sbu_2, # of connection points: 3
#     Node 2, Type 0, BuildingBlock: OLANEW_clean_sbu_2, # of connection points: 3
#     Node 3, Type 0, BuildingBlock: OLANEW_clean_sbu_2, # of connection points: 3
#     Node 4, Type 1, BuildingBlock: VOLQOD_clean_sbu_1, # of connection points: 6
#     Node 5, Type 1, BuildingBlock: VOLQOD_clean_sbu_1, # of connection points: 6
#     Edge 6, Type (0, 1), BuildingBlock: XUDNAN_clean_linker_2, # of connection points: 2
#     Edge 7, Type (0, 1), BuildingBlock: XUDNAN_clean_linker_2, # of connection points: 2
#     Edge 8, Type (0, 1), BuildingBlock: XUDNAN_clean_linker_2, # of connection points: 2
#     Edge 9, Type (0, 1), BuildingBlock: XUDNAN_clean_linker_2, # of connection points: 2
#     Edge 10, Type (0, 1), BuildingBlock: XUDNAN_clean_linker_2, # of connection points: 2
#     Edge 11, Type (0, 1), BuildingBlock: XUDNAN_clean_linker_2, # of connection points: 2
#     Edge 12, Type (0, 1), BuildingBlock: XUDNAN_clean_linker_2, # of connection points: 2
#     Edge 13, Type (0, 1), BuildingBlock: XUDNAN_clean_linker_2, # of connection points: 2
#     Edge 14, Type (0, 1), BuildingBlock: XUDNAN_clean_linker_2, # of connection points: 2
#     Edge 15, Type (0, 1), BuildingBlock: XUDNAN_clean_linker_2, # of connection points: 2
#     Edge 16, Type (0, 1), BuildingBlock: XUDNAN_clean_linker_2, # of connection points: 2
#     Edge 17, Type (0, 1), BuildingBlock: XUDNAN_clean_linker_2, # of connection points: 2
# Relax obj value: 0.054
# Max RMSD: 0.146
# Mean RMSD: 0.100
data_MOF--net-rtl--node1-OLANEW_clean_sbu_2--node2-VOLQOD_clean_sbu_1--edge1-XUDNAN_clean_linker_2
_symmetry_space_group_name_H-M    P1
_symmetry_Int_Tables_number       1
_symmetry_cell_setting            triclinic
loop_
_symmetry_equiv_pos_as_xyz
'x, y, z'
_cell_length_a     40.595451
_cell_length_b     38.372781
_cell_length_c     23.282003
_cell_angle_alpha  87.0189
_cell_angle_beta   93.119282
_cell_angle_gamma 90.125524
loop_
_atom_site_label
_atom_site_type_symbol
_atom_site_fract_x
_atom_site_fract_y
_atom_site_fract_z
_atom_type_partial_charge
O0 O 0.14388 0.73116 0.92409 0.0
Cd1 Cd 0.15745 0.68327 0.99407 0.0
O2 O 0.14382 0.76952 0.99045 0.0
Cd3 Cd 0.14095 0.8212 0.02487 0.0
O4 O 0.1293 0.86407 0.07799 0.0
C5 C 0.11414 0.85547 0.12287 0.0
O6 O 0.10688 0.82243 0.13326 0.0
C7 C 0.14048 0.76251 0.93768 0.0
C8 C 0.21909 0.65754 0.97122 0.0
O9 O 0.19291 0.64798 0.94308 0.0
O10 O 0.21616 0.67874 0.0114 0.0
O11 O 0.65899 0.7619 0.69634 0.0
Cd12 Cd 0.67607 0.82306 0.68865 0.0
O13 O 0.65861 0.7515 0.60441 0.0
Cd14 Cd 0.6529 0.71939 0.52927 0.0
O15 O 0.6484 0.69077 0.45029 0.0
C16 C 0.62009 0.68346 0.42806 0.0
O17 O 0.59372 0.69303 0.45355 0.0
C18 C 0.65378 0.74111 0.65608 0.0
C19 C 0.73972 0.83594 0.65394 0.0
O20 O 0.73476 0.82347 0.70485 0.0
O21 O 0.7147 0.84159 0.61874 0.0
O22 O 0.86482 0.25457 0.15257 0.0
Cd23 Cd 0.85216 0.27868 0.05449 0.0
O24 O 0.91709 0.26998 0.15509 0.0
Cd25 Cd 0.91359 0.28517 0.06385 0.0
O26 O 0.91397 0.25872 0.98359 0.0
C27 C 0.93625 0.23564 0.98198 0.0
O28 O 0.9579 0.23146 0.02585 0.0
C29 C 0.89279 0.25606 0.17978 0.0
C30 C 0.78755 0.30328 0.03946 0.0
O31 O 0.79436 0.27125 0.03232 0.0
O32 O 0.81133 0.32368 0.05371 0.0
O33 O 0.38489 0.24817 0.61382 0.0
Cd34 Cd 0.37223 0.20229 0.54714 0.0
O35 O 0.34962 0.28365 0.56592 0.0
Cd36 Cd 0.35003 0.25717 0.48522 0.0
O37 O 0.36647 0.28529 0.40771 0.0
C38 C 0.36413 0.31806 0.41228 0.0
O39 O 0.35151 0.32938 0.45866 0.0
C40 C 0.36888 0.27668 0.60987 0.0
C41 C 0.31231 0.17099 0.57332 0.0
O42 O 0.33948 0.16131 0.59994 0.0
O43 O 0.3134 0.19522 0.53345 0.0
O44 O 0.93795 0.99027 0.57714 0.0
Zn45 Zn 0.96759 0.03259 0.57977 0.0
O46 O 0.01389 0.02034 0.57808 0.0
Zn47 Zn 0.03617 0.02625 0.65346 0.0
Zn48 Zn 0.01721 0.97183 0.56051 0.0
Zn49 Zn 0.03422 0.04979 0.51883 0.0
O50 O 0.07802 0.05358 0.64298 0.0
O51 O 0.07622 0.07187 0.55072 0.0
O52 O 0.96007 0.05699 0.65177 0.0
O53 O 0.00752 0.05347 0.70392 0.0
O54 O 0.05066 0.97978 0.69272 0.0
O55 O 0.04858 0.94657 0.61716 0.0
O56 O 0.0331 0.96689 0.48122 0.0
O57 O 0.9543 0.0676 0.51582 0.0
O58 O 0.04645 0.02099 0.45296 0.0
O59 O 0.00229 0.08674 0.48504 0.0
C60 C 0.94429 0.95802 0.57312 0.0
C61 C 0.09067 0.07023 0.60081 0.0
C62 C 0.05733 0.95145 0.66945 0.0
C63 C 0.9777 0.06388 0.69664 0.0
C64 C 0.04432 0.98859 0.4439 0.0
C65 C 0.97093 0.08882 0.48505 0.0
O66 O 0.97354 0.94742 0.56715 0.0
O67 O 0.58548 0.46639 0.99139 0.0
Zn68 Zn 0.55764 0.51009 0.98351 0.0
O69 O 0.51074 0.49788 0.98053 0.0
Zn70 Zn 0.49084 0.51286 0.90534 0.0
Zn71 Zn 0.50487 0.44704 0.99311 0.0
Zn72 Zn 0.48919 0.52252 0.0395 0.0
O73 O 0.45319 0.54561 0.91283 0.0
O74 O 0.45146 0.5528 0.00643 0.0
O75 O 0.56938 0.53807 0.91122 0.0
O76 O 0.52347 0.53707 0.85491 0.0
O77 O 0.47042 0.47269 0.86541 0.0
O78 O 0.47785 0.42675 0.9268 0.0
O79 O 0.4812 0.43535 0.06662 0.0
O80 O 0.56977 0.53929 0.05149 0.0
O81 O 0.47004 0.48805 0.09554 0.0
O82 O 0.52135 0.55129 0.08574 0.0
C83 C 0.57888 0.43393 0.99729 0.0
C84 C 0.44003 0.55895 0.9549 0.0
C85 C 0.46623 0.44051 0.87897 0.0
C86 C 0.55349 0.54599 0.86359 0.0
C87 C 0.46856 0.45497 0.10215 0.0
C88 C 0.55262 0.55444 0.0871 0.0
O89 O 0.54922 0.42307 0.9989 0.0
H90 H 0.25334 0.17222 0.50936 0.0
H91 H 0.29988 0.13325 0.67232 0.0
H92 H 0.24723 0.10638 0.69917 0.0
H93 H 0.17276 0.19071 0.56179 0.0
H94 H 0.15051 0.17603 0.49841 0.0
H95 H 0.19133 0.19403 0.49312 0.0
H96 H 0.21049 0.13786 0.44744 0.0
H97 H 0.16973 0.11977 0.45242 0.0
H98 H 0.20489 0.09612 0.48484 0.0
H99 H 0.19002 0.08341 0.70819 0.0
H100 H 0.13303 0.0618 0.69597 0.0
H101 H 0.12388 0.11348 0.52532 0.0
C102 C 0.25236 0.15826 0.55087 0.0
C103 C 0.28065 0.15496 0.58893 0.0
C104 C 0.27852 0.13607 0.64249 0.0
C105 C 0.24869 0.12086 0.65825 0.0
C106 C 0.22128 0.12454 0.61977 0.0
C107 C 0.22286 0.14249 0.56697 0.0
C108 C 0.19019 0.14094 0.53238 0.0
C109 C 0.17533 0.17761 0.52076 0.0
C110 C 0.19407 0.12257 0.47594 0.0
C111 C 0.17012 0.1191 0.57384 0.0
C112 C 0.18843 0.11033 0.62426 0.0
C113 C 0.1754 0.0901 0.66892 0.0
C114 C 0.14293 0.07802 0.66156 0.0
C115 C 0.12389 0.08586 0.60963 0.0
C116 C 0.13771 0.10701 0.56552 0.0
H117 H 0.27524 0.65088 0.04193 0.0
H118 H 0.23633 0.63553 0.86778 0.0
H119 H 0.29079 0.61438 0.84242 0.0
H120 H 0.3589 0.67723 0.0067 0.0
H121 H 0.37802 0.65331 0.06834 0.0
H122 H 0.33695 0.67056 0.07163 0.0
H123 H 0.3153 0.60882 0.10025 0.0
H124 H 0.35629 0.59148 0.0974 0.0
H125 H 0.32267 0.57323 0.05499 0.0
H126 H 0.34842 0.5935 0.83651 0.0
H127 H 0.40389 0.56797 0.85268 0.0
H128 H 0.40499 0.59375 0.03234 0.0
C129 C 0.27838 0.64347 0.9983 0.0
C130 C 0.25175 0.64506 0.9566 0.0
C131 C 0.25648 0.63448 0.9003 0.0
C132 C 0.28734 0.62269 0.8854 0.0
C133 C 0.3131 0.62133 0.92749 0.0
C134 C 0.3089 0.63101 0.98298 0.0
C135 C 0.33986 0.62414 0.02123 0.0
C136 C 0.35428 0.65836 0.04326 0.0
C137 C 0.33312 0.59785 0.07141 0.0
C138 C 0.36191 0.60862 0.97872 0.0
C139 C 0.34615 0.60789 0.92468 0.0
C140 C 0.36109 0.59401 0.87858 0.0
C141 C 0.39269 0.57962 0.88825 0.0
C142 C 0.40887 0.57876 0.94385 0.0
C143 C 0.3934 0.5941 0.98931 0.0
H144 H 0.75811 0.89383 0.59104 0.0
H145 H 0.7967 0.80039 0.68328 0.0
H146 H 0.85354 0.81887 0.66279 0.0
H147 H 0.82076 0.90317 0.48161 0.0
H148 H 0.82226 0.94996 0.48516 0.0
H149 H 0.78459 0.9268 0.49899 0.0
H150 H 0.78312 0.95437 0.59811 0.0
H151 H 0.82075 0.97749 0.58468 0.0
H152 H 0.81823 0.94932 0.6487 0.0
H153 H 0.90598 0.84876 0.63605 0.0
H154 H 0.9506 0.89051 0.61479 0.0
H155 H 0.8779 0.96719 0.54828 0.0
C156 C 0.77855 0.87689 0.60549 0.0
C157 C 0.77323 0.84538 0.63765 0.0
C158 C 0.80045 0.82443 0.65797 0.0
C159 C 0.83271 0.83465 0.64635 0.0
C160 C 0.83724 0.86618 0.61524 0.0
C161 C 0.81093 0.8872 0.59565 0.0
C162 C 0.82264 0.92167 0.5693 0.0
C163 C 0.81192 0.92562 0.50494 0.0
C164 C 0.81047 0.95252 0.60218 0.0
C165 C 0.85962 0.91701 0.57805 0.0
C166 C 0.86752 0.88448 0.60328 0.0
C167 C 0.90011 0.87425 0.61614 0.0
C168 C 0.92527 0.89811 0.60376 0.0
C169 C 0.91766 0.93207 0.58002 0.0
C170 C 0.8844 0.94142 0.56654 0.0
H171 H 0.76641 0.37114 0.03809 0.0
H172 H 0.73116 0.26494 0.02284 0.0
H173 H 0.67386 0.28672 0.01048 0.0
H174 H 0.69999 0.40175 0.11753 0.0
H175 H 0.69867 0.44437 0.08106 0.0
H176 H 0.73685 0.42037 0.08884 0.0
H177 H 0.74205 0.42572 0.97825 0.0
H178 H 0.70389 0.44976 0.97013 0.0
H179 H 0.70873 0.4108 0.93137 0.0
H180 H 0.6203 0.3201 0.00156 0.0
H181 H 0.5746 0.36271 0.99361 0.0
H182 H 0.64522 0.44711 0.01246 0.0
C183 C 0.74666 0.35243 0.03223 0.0
C184 C 0.75325 0.31632 0.0316 0.0
C185 C 0.7267 0.29273 0.02345 0.0
C186 C 0.69407 0.30484 0.01647 0.0
C187 C 0.68845 0.3406 0.0174 0.0
C188 C 0.714 0.36407 0.02479 0.0
C189 C 0.70136 0.40121 0.0235 0.0
C190 C 0.70971 0.41789 0.08117 0.0
C191 C 0.71481 0.42315 0.97279 0.0
C192 C 0.66466 0.39496 0.0145 0.0
C193 C 0.6577 0.35984 0.01127 0.0
C194 C 0.62546 0.34769 0.00384 0.0
C195 C 0.59966 0.37211 -0.00052 0.0
C196 C 0.60626 0.4083 0.00226 0.0
C197 C 0.63928 0.41969 0.00983 0.0
H198 H 0.0844 0.84409 0.22462 0.0
H199 H 0.12361 0.92641 0.1129 0.0
H200 H 0.10895 0.97 0.1819 0.0
H201 H 0.01564 0.89266 0.27076 0.0
H202 H 0.01901 0.87356 0.34322 0.0
H203 H 0.03202 0.8492 0.28438 0.0
H204 H 0.0899 0.84077 0.33591 0.0
H205 H 0.07708 0.86508 0.3949 0.0
H206 H 0.11309 0.87848 0.35748 0.0
H207 H 0.09062 0.00436 0.26451 0.0
H208 H 0.07061 0.02661 0.35404 0.0
H209 H 0.04381 0.92115 0.41054 0.0
C210 C 0.08982 0.87128 0.2144 0.0
C211 C 0.10512 0.88186 0.16334 0.0
C212 C 0.11189 0.91771 0.1518 0.0
C213 C 0.10363 0.94265 0.19068 0.0
C214 C 0.08864 0.93125 0.24075 0.0
C215 C 0.08182 0.8964 0.25262 0.0
C216 C 0.06608 0.89075 0.30976 0.0
C217 C 0.03111 0.87566 0.30151 0.0
C218 C 0.08785 0.86739 0.352 0.0
C219 C 0.06522 0.92786 0.32841 0.0
C220 C 0.07823 0.9509 0.28806 0.0
C221 C 0.08031 0.98656 0.29635 0.0
C222 C 0.06887 0.99893 0.34736 0.0
C223 C 0.0556 0.97566 0.38943 0.0
C224 C 0.05373 0.9397 0.37936 0.0
H225 H 0.66654 0.70185 0.75533 0.0
H226 H 0.61002 0.70222 0.59187 0.0
H227 H 0.58316 0.64714 0.62294 0.0
H228 H 0.6756 0.60505 0.77773 0.0
H229 H 0.67089 0.60674 0.85408 0.0
H230 H 0.68952 0.64281 0.81513 0.0
H231 H 0.64657 0.68485 0.85236 0.0
H232 H 0.62771 0.649 0.89102 0.0
H233 H 0.60321 0.6761 0.83959 0.0
H234 H 0.55656 0.59726 0.67746 0.0
H235 H 0.53382 0.55557 0.74939 0.0
H236 H 0.60805 0.58752 0.87726 0.0
C237 C 0.6492 0.68978 0.72545 0.0
C238 C 0.64103 0.7058 0.67055 0.0
C239 C 0.61767 0.68971 0.63313 0.0
C240 C 0.60203 0.65857 0.65071 0.0
C241 C 0.6102 0.6438 0.70566 0.0
C242 C 0.63352 0.65871 0.74225 0.0
C243 C 0.63588 0.63948 0.8008 0.0
C244 C 0.67 0.62251 0.81261 0.0
C245 C 0.62785 0.66381 0.84873 0.0
C246 C 0.60932 0.61222 0.79228 0.0
C247 C 0.59499 0.61491 0.73698 0.0
C248 C 0.56804 0.59445 0.7205 0.0
C249 C 0.55521 0.57094 0.76175 0.0
C250 C 0.56933 0.56805 0.81884 0.0
C251 C 0.59713 0.58857 0.83372 0.0
H252 H 0.95171 0.23806 0.23579 0.0
H253 H 0.84579 0.23047 0.25085 0.0
H254 H 0.85475 0.19087 0.33728 0.0
H255 H 0.9683 0.15141 0.26635 0.0
H256 H 0.00694 0.15735 0.30654 0.0
H257 H 0.99284 0.18983 0.25238 0.0
H258 H 0.99677 0.23744 0.32742 0.0
H259 H 0.01138 0.20515 0.38183 0.0
H260 H 0.97567 0.2312 0.39334 0.0
H261 H 0.87482 0.1466 0.41383 0.0
H262 H 0.90448 0.10212 0.47686 0.0
H263 H 0.99736 0.13775 0.41037 0.0
C264 C 0.9304 0.22904 0.25833 0.0
C265 C 0.89804 0.23758 0.23685 0.0
C266 C 0.87081 0.22444 0.26675 0.0
C267 C 0.87565 0.20195 0.31591 0.0
C268 C 0.90786 0.19298 0.33461 0.0
C269 C 0.9348 0.20636 0.30707 0.0
C270 C 0.96666 0.19008 0.33239 0.0
C271 C 0.98472 0.17104 0.28669 0.0
C272 C 0.98893 0.21761 0.36042 0.0
C273 C 0.95336 0.16463 0.37722 0.0
C274 C 0.91944 0.16702 0.37833 0.0
C275 C 0.90142 0.14484 0.41397 0.0
C276 C 0.91853 0.11952 0.44943 0.0
C277 C 0.95331 0.11641 0.44869 0.0
C278 C 0.97083 0.13955 0.41232 0.0
H279 H 0.41194 0.27354 0.70583 0.0
H280 H 0.34004 0.34087 0.61019 0.0
H281 H 0.3549 0.38854 0.67327 0.0
H282 H 0.3998 0.30892 0.84936 0.0
H283 H 0.44303 0.30521 0.8709 0.0
H284 H 0.42433 0.27495 0.82219 0.0
H285 H 0.4681 0.29115 0.74842 0.0
H286 H 0.4867 0.32169 0.79651 0.0
H287 H 0.47305 0.33617 0.72424 0.0
H288 H 0.38191 0.43081 0.73718 0.0
H289 H 0.41645 0.46432 0.80488 0.0
H290 H 0.46968 0.3699 0.86321 0.0
C291 C 0.39879 0.29805 0.69899 0.0
C292 C 0.37481 0.30339 0.65295 0.0
C293 C 0.35844 0.33602 0.64513 0.0
C294 C 0.3667 0.36333 0.68076 0.0
C295 C 0.3911 0.35755 0.72453 0.0
C296 C 0.40659 0.32562 0.7345 0.0
C297 C 0.43307 0.32701 0.78293 0.0
C298 C 0.42453 0.30257 0.8344 0.0
C299 C 0.46725 0.31851 0.76173 0.0
C300 C 0.43067 0.36499 0.79725 0.0
C301 C 0.40623 0.38202 0.76297 0.0
C302 C 0.40073 0.41769 0.76502 0.0
C303 C 0.42064 0.43652 0.8033 0.0
C304 C 0.4456 0.41965 0.83941 0.0
C305 C 0.45045 0.38333 0.83667 0.0
H306 H 0.56309 0.66296 0.37066 0.0
H307 H 0.66971 0.66132 0.36318 0.0
H308 H 0.66413 0.62982 0.27328 0.0
H309 H 0.54861 0.57763 0.3207 0.0
H310 H 0.51104 0.58959 0.27965 0.0
H311 H 0.52352 0.61283 0.34242 0.0
H312 H 0.52099 0.6712 0.28104 0.0
H313 H 0.50857 0.6481 0.21803 0.0
H314 H 0.5444 0.67591 0.21747 0.0
H315 H 0.64679 0.59749 0.18478 0.0
H316 H 0.61911 0.56593 0.10591 0.0
H317 H 0.52394 0.58894 0.17196 0.0
C318 C 0.5853 0.6561 0.35011 0.0
C319 C 0.61685 0.66466 0.37402 0.0
C320 C 0.64527 0.65507 0.34573 0.0
C321 C 0.64235 0.63722 0.29457 0.0
C322 C 0.61087 0.62919 0.27222 0.0
C323 C 0.58286 0.63829 0.29912 0.0
C324 C 0.55193 0.62605 0.26688 0.0
C325 C 0.53265 0.59997 0.30467 0.0
C326 C 0.5302 0.65717 0.24453 0.0
C327 C 0.56692 0.60837 0.21786 0.0
C328 C 0.60093 0.61058 0.2215 0.0
C329 C 0.62015 0.59569 0.18141 0.0
C330 C 0.60418 0.57782 0.13672 0.0
C331 C 0.56931 0.57492 0.13254 0.0
C332 C 0.5506 0.59071 0.17363 0.0
H333 H 0.9843 0.18893 0.96016 0.0
H334 H 0.88831 0.22832 0.89597 0.0
H335 H 0.88725 0.1861 0.81935 0.0
H336 H 0.01591 0.17649 0.82175 0.0
H337 H 0.03833 0.13739 0.84541 0.0
H338 H 0.03103 0.17017 0.89581 0.0
H339 H 0.00357 0.12365 0.96233 0.0
H340 H 0.01048 0.09077 0.91181 0.0
H341 H 0.9694 0.09853 0.93399 0.0
H342 H 0.89633 0.13936 0.75077 0.0
H343 H 0.9169 0.09495 0.68907 0.0
H344 H 0.00769 0.08682 0.79678 0.0
C345 C 0.96305 0.18872 0.92998 0.0
C346 C 0.93633 0.21185 0.9341 0.0
C347 C 0.90909 0.2109 0.89354 0.0
C348 C 0.90817 0.18689 0.8501 0.0
C349 C 0.93475 0.16418 0.84773 0.0
C350 C 0.96183 0.16512 0.88618 0.0
C351 C 0.98763 0.13865 0.87305 0.0
C352 C 0.02014 0.15676 0.8581 0.0
C353 C 0.99308 0.11128 0.92329 0.0
C354 C 0.97089 0.12278 0.82092 0.0
C355 C 0.94027 0.13763 0.80747 0.0
C356 C 0.92027 0.12755 0.76082 0.0
C357 C 0.9322 0.10218 0.72612 0.0
C358 C 0.96399 0.08734 0.73793 0.0
C359 C 0.98328 0.0975 0.78661 0.0
H360 H 0.39522 0.30498 0.31256 0.0
H361 H 0.36205 0.38879 0.41399 0.0
H362 H 0.3849 0.43198 0.3455 0.0
H363 H 0.47156 0.34472 0.27471 0.0
H364 H 0.46988 0.32993 0.20238 0.0
H365 H 0.45014 0.30492 0.2584 0.0
H366 H 0.39468 0.30813 0.19779 0.0
H367 H 0.4143 0.33303 0.14147 0.0
H368 H 0.37829 0.3501 0.17233 0.0
H369 H 0.41198 0.46617 0.26909 0.0
H370 H 0.44105 0.49021 0.18627 0.0
H371 H 0.45725 0.38521 0.13178 0.0
C372 C 0.39259 0.33242 0.32007 0.0
C373 C 0.37679 0.34344 0.36873 0.0
C374 C 0.37397 0.37961 0.37712 0.0
C375 C 0.3869 0.40443 0.33845 0.0
C376 C 0.40254 0.39277 0.29137 0.0
C377 C 0.40538 0.35773 0.28165 0.0
C378 C 0.42368 0.35257 0.22754 0.0
C379 C 0.45572 0.33181 0.24163 0.0
C380 C 0.4014 0.33491 0.18209 0.0
C381 C 0.43084 0.3902 0.2089 0.0
C382 C 0.41832 0.41282 0.24649 0.0
C383 C 0.42182 0.44879 0.23912 0.0
C384 C 0.43844 0.46216 0.19181 0.0
C385 C 0.45147 0.43967 0.15221 0.0
C386 C 0.44761 0.40313 0.16114 0.0
H387 H 0.10476 0.82347 0.94248 0.0
H388 H 0.15939 0.76249 0.82783 0.0
H389 H 0.14666 0.80622 0.74845 0.0
H390 H 0.0411 0.85029 0.84259 0.0
H391 H 0.03742 0.89376 0.86739 0.0
H392 H 0.05236 0.85885 0.91651 0.0
H393 H 0.10546 0.89398 0.94032 0.0
H394 H 0.0906 0.92919 0.8915 0.0
H395 H 0.13032 0.90986 0.8827 0.0
H396 H 0.12523 0.85359 0.68056 0.0
H397 H 0.0969 0.90305 0.6274 0.0
H398 H 0.05847 0.93583 0.78644 0.0
C399 C 0.11509 0.81995 0.90137 0.0
C400 C 0.13377 0.78997 0.89172 0.0
C401 C 0.14518 0.78537 0.83622 0.0
C402 C 0.13822 0.81011 0.79094 0.0
C403 C 0.11989 0.83941 0.8019 0.0
C404 C 0.10858 0.84461 0.85569 0.0
C405 C 0.08821 0.87774 0.85502 0.0
C406 C 0.05267 0.86966 0.87133 0.0
C407 C 0.10464 0.90427 0.89474 0.0
C408 C 0.0894 0.88995 0.79217 0.0
C409 C 0.10786 0.86737 0.76248 0.0
C410 C 0.11106 0.87174 0.70336 0.0
C411 C 0.09476 0.89981 0.67355 0.0
C412 C 0.07569 0.92334 0.70289 0.0
C413 C 0.07335 0.91856 0.76313 0.0
loop_
_geom_bond_atom_site_label_1
_geom_bond_atom_site_label_2
_geom_bond_distance
_geom_bond_site_symmetry_2
_ccdc_geom_bond_type
O0 Cd1 2.300 1_556 S
O0 C7 1.275 . S
Cd1 O0 2.300 1_554 S
Cd1 O9 2.384 . S
Cd1 O10 2.378 . S
O2 Cd3 2.385 . S
O2 C7 1.255 1_554 S
Cd3 O2 2.385 . S
Cd3 O4 2.317 . S
O4 Cd3 2.317 . S
O4 C5 1.232 . S
C5 O4 1.232 . S
C5 O6 1.218 . S
O6 C5 1.218 . S
C7 O0 1.275 . S
C7 O2 1.255 1_556 S
C8 O9 1.262 . S
C8 O10 1.256 . S
O9 Cd1 2.384 . S
O9 C8 1.262 . S
O10 Cd1 2.378 . S
O10 C8 1.256 . S
O11 Cd12 2.300 . S
O11 C18 1.275 . S
Cd12 O11 2.300 . S
Cd12 O20 2.381 . S
Cd12 O21 2.378 . S
O13 Cd14 2.385 . S
O13 C18 1.255 . S
Cd14 O13 2.385 . S
Cd14 O15 2.317 . S
O15 Cd14 2.317 . S
O15 C16 1.232 . S
C16 O15 1.232 . S
C16 O17 1.218 . S
O17 C16 1.218 . S
C18 O11 1.275 . S
C18 O13 1.255 . S
C19 O20 1.258 . S
C19 O21 1.256 . S
O20 Cd12 2.381 . S
O20 C19 1.258 . S
O21 Cd12 2.378 . S
O21 C19 1.256 . S
O22 Cd23 2.300 . S
O22 C29 1.275 . S
Cd23 O22 2.300 . S
Cd23 O31 2.381 . S
Cd23 O32 2.378 . S
O24 Cd25 2.385 . S
O24 C29 1.255 . S
Cd25 O24 2.385 . S
Cd25 O26 2.317 1_554 S
O26 Cd25 2.317 1_556 S
O26 C27 1.232 . S
C27 O26 1.232 . S
C27 O28 1.218 . S
O28 C27 1.218 . S
C29 O22 1.275 . S
C29 O24 1.255 . S
C30 O31 1.258 . S
C30 O32 1.256 . S
O31 Cd23 2.381 . S
O31 C30 1.258 . S
O32 Cd23 2.378 . S
O32 C30 1.256 . S
O33 Cd34 2.300 . S
O33 C40 1.275 . S
Cd34 O33 2.300 . S
Cd34 O42 2.381 . S
Cd34 O43 2.378 . S
O35 Cd36 2.385 . S
O35 C40 1.255 . S
Cd36 O35 2.385 . S
Cd36 O37 2.317 . S
O37 Cd36 2.317 . S
O37 C38 1.232 . S
C38 O37 1.232 . S
C38 O39 1.218 . S
O39 C38 1.218 . S
C40 O33 1.275 . S
C40 O35 1.255 . S
C41 O42 1.258 . S
C41 O43 1.256 . S
O42 Cd34 2.381 . S
O42 C41 1.258 . S
O43 Cd34 2.378 . S
O43 C41 1.256 . S
O44 Zn45 1.953 1_565 S
O44 C60 1.225 . S
Zn45 O44 1.953 1_545 S
Zn45 O46 1.949 1_655 S
Zn45 O52 1.919 . S
Zn45 O57 1.924 . S
O46 Zn45 1.949 1_455 S
O46 Zn47 1.923 . S
O46 Zn48 1.950 1_545 S
O46 Zn49 1.945 . S
Zn47 O46 1.923 . S
Zn47 O50 1.933 . S
Zn47 O53 1.941 . S
Zn47 O54 1.965 1_545 S
Zn48 O46 1.950 1_565 S
Zn48 O55 1.938 . S
Zn48 O56 1.906 . S
Zn48 O66 1.953 1_455 S
Zn49 O46 1.945 . S
Zn49 O51 1.932 . S
Zn49 O58 1.977 1_545 S
Zn49 O59 1.910 1_455 S
O50 Zn47 1.933 . S
O50 C61 1.226 . S
O51 Zn49 1.932 . S
O51 C61 1.307 . S
O52 Zn45 1.919 . S
O52 C63 1.253 . S
O53 Zn47 1.941 . S
O53 C63 1.283 1_455 S
O54 Zn47 1.965 1_565 S
O54 C62 1.303 . S
O55 Zn48 1.938 . S
O55 C62 1.247 . S
O56 Zn48 1.906 . S
O56 C64 1.304 . S
O57 Zn45 1.924 . S
O57 C65 1.311 . S
O58 Zn49 1.977 1_565 S
O58 C64 1.272 . S
O59 Zn49 1.910 1_655 S
O59 C65 1.231 . S
C60 O44 1.225 . S
C60 O66 1.298 . S
C61 O50 1.226 . S
C61 O51 1.307 . S
C62 O54 1.303 . S
C62 O55 1.247 . S
C63 O52 1.253 . S
C63 O53 1.283 1_655 S
C64 O56 1.304 . S
C64 O58 1.272 . S
C65 O57 1.311 . S
C65 O59 1.231 . S
O66 Zn48 1.953 1_655 S
O66 C60 1.298 . S
O67 Zn68 1.953 . S
O67 C83 1.225 . S
Zn68 O67 1.953 . S
Zn68 O69 1.949 . S
Zn68 O75 1.919 1_554 S
Zn68 O80 1.924 . S
O69 Zn68 1.949 . S
O69 Zn70 1.923 1_554 S
O69 Zn71 1.950 . S
O69 Zn72 1.945 . S
Zn70 O69 1.923 1_556 S
Zn70 O73 1.933 . S
Zn70 O76 1.941 . S
Zn70 O77 1.965 . S
Zn71 O69 1.950 . S
Zn71 O78 1.938 1_554 S
Zn71 O79 1.906 . S
Zn71 O89 1.953 . S
Zn72 O69 1.945 . S
Zn72 O74 1.932 . S
Zn72 O81 1.977 . S
Zn72 O82 1.910 . S
O73 Zn70 1.933 . S
O73 C84 1.226 1_556 S
O74 Zn72 1.932 . S
O74 C84 1.307 . S
O75 Zn68 1.919 1_556 S
O75 C86 1.253 . S
O76 Zn70 1.941 . S
O76 C86 1.283 . S
O77 Zn70 1.965 . S
O77 C85 1.303 . S
O78 Zn71 1.938 1_556 S
O78 C85 1.247 . S
O79 Zn71 1.906 . S
O79 C87 1.304 . S
O80 Zn68 1.924 . S
O80 C88 1.311 . S
O81 Zn72 1.977 . S
O81 C87 1.272 . S
O82 Zn72 1.910 . S
O82 C88 1.231 . S
C83 O67 1.225 . S
C83 O89 1.298 . S
C84 O73 1.226 1_554 S
C84 O74 1.307 . S
C85 O77 1.303 . S
C85 O78 1.247 . S
C86 O75 1.253 . S
C86 O76 1.283 . S
C87 O79 1.304 . S
C87 O81 1.272 . S
C88 O80 1.311 . S
C88 O82 1.231 . S
O89 Zn71 1.953 . S
O89 C83 1.298 . S
H90 C102 0.930 . S
H91 C104 0.930 . S
H92 C105 0.930 . S
H93 C109 0.959 . S
H94 C109 0.959 . S
H95 C109 0.961 . S
H96 C110 0.960 . S
H97 C110 0.961 . S
H98 C110 0.959 . S
H99 C113 0.929 . S
H100 C114 0.931 . S
H101 C116 0.930 . S
C102 H90 0.930 . S
C102 C103 1.399 . S
C102 C107 1.399 . S
C103 C102 1.399 . S
C103 C104 1.376 . S
C104 H91 0.930 . S
C104 C103 1.376 . S
C104 C105 1.388 . S
C105 H92 0.930 . S
C105 C104 1.388 . S
C105 C106 1.390 . S
C106 C105 1.390 . S
C106 C107 1.394 . S
C106 C112 1.465 . S
C107 C102 1.399 . S
C107 C106 1.394 . S
C107 C108 1.516 . S
C108 C107 1.516 . S
C108 C109 1.502 . S
C108 C110 1.561 . S
C108 C111 1.526 . S
C109 H93 0.959 . S
C109 H94 0.959 . S
C109 H95 0.961 . S
C109 C108 1.502 . S
C110 H96 0.960 . S
C110 H97 0.961 . S
C110 H98 0.959 . S
C110 C108 1.561 . S
C111 C108 1.526 . S
C111 C112 1.396 . S
C111 C116 1.390 . S
C112 C106 1.465 . S
C112 C111 1.396 . S
C112 C113 1.399 . S
C113 H99 0.929 . S
C113 C112 1.399 . S
C113 C114 1.385 . S
C114 H100 0.931 . S
C114 C113 1.385 . S
C114 C115 1.389 . S
C115 C114 1.389 . S
C115 C116 1.387 . S
C116 H101 0.930 . S
C116 C111 1.390 . S
C116 C115 1.387 . S
H117 C129 0.930 . S
H118 C131 0.930 . S
H119 C132 0.930 . S
H120 C136 0.959 . S
H121 C136 0.959 1_554 S
H122 C136 0.959 1_554 S
H123 C137 0.960 . S
H124 C137 0.961 . S
H125 C137 0.959 . S
H126 C140 0.929 . S
H127 C141 0.931 . S
H128 C143 0.930 . S
C129 H117 0.930 . S
C129 C130 1.399 . S
C129 C134 1.399 . S
C130 C129 1.399 . S
C130 C131 1.376 . S
C131 H118 0.930 . S
C131 C130 1.376 . S
C131 C132 1.388 . S
C132 H119 0.930 . S
C132 C131 1.388 . S
C132 C133 1.390 . S
C133 C132 1.390 . S
C133 C134 1.394 . S
C133 C139 1.465 . S
C134 C129 1.399 . S
C134 C133 1.394 . S
C134 C135 1.516 . S
C135 C134 1.516 . S
C135 C136 1.502 1_554 S
C135 C137 1.561 . S
C135 C138 1.526 . S
C136 H120 0.959 . S
C136 H121 0.959 1_556 S
C136 H122 0.959 1_556 S
C136 C135 1.502 1_556 S
C137 H123 0.960 . S
C137 H124 0.961 . S
C137 H125 0.959 . S
C137 C135 1.561 . S
C138 C135 1.526 . S
C138 C139 1.396 . S
C138 C143 1.390 . S
C139 C133 1.465 . S
C139 C138 1.396 . S
C139 C140 1.399 . S
C140 H126 0.929 . S
C140 C139 1.399 . S
C140 C141 1.385 . S
C141 H127 0.931 . S
C141 C140 1.385 . S
C141 C142 1.389 . S
C142 C141 1.389 . S
C142 C143 1.387 . S
C143 H128 0.930 . S
C143 C138 1.390 . S
C143 C142 1.387 . S
H144 C156 0.930 . S
H145 C158 0.930 . S
H146 C159 0.930 . S
H147 C163 0.959 . S
H148 C163 0.959 . S
H149 C163 0.961 . S
H150 C164 0.960 . S
H151 C164 0.961 . S
H152 C164 0.959 . S
H153 C167 0.929 . S
H154 C168 0.931 . S
H155 C170 0.930 . S
C156 H144 0.930 . S
C156 C157 1.399 . S
C156 C161 1.399 . S
C157 C156 1.399 . S
C157 C158 1.376 . S
C158 H145 0.930 . S
C158 C157 1.376 . S
C158 C159 1.388 . S
C159 H146 0.930 . S
C159 C158 1.388 . S
C159 C160 1.390 . S
C160 C159 1.390 . S
C160 C161 1.394 . S
C160 C166 1.465 . S
C161 C156 1.399 . S
C161 C160 1.394 . S
C161 C162 1.516 . S
C162 C161 1.516 . S
C162 C163 1.502 . S
C162 C164 1.561 . S
C162 C165 1.526 . S
C163 H147 0.959 . S
C163 H148 0.959 . S
C163 H149 0.961 . S
C163 C162 1.502 . S
C164 H150 0.960 . S
C164 H151 0.961 . S
C164 H152 0.959 . S
C164 C162 1.561 . S
C165 C162 1.526 . S
C165 C166 1.396 . S
C165 C170 1.390 . S
C166 C160 1.465 . S
C166 C165 1.396 . S
C166 C167 1.399 . S
C167 H153 0.929 . S
C167 C166 1.399 . S
C167 C168 1.385 . S
C168 H154 0.931 . S
C168 C167 1.385 . S
C168 C169 1.389 . S
C169 C168 1.389 . S
C169 C170 1.387 . S
C170 H155 0.930 . S
C170 C165 1.390 . S
C170 C169 1.387 . S
H171 C183 0.930 1_556 S
H172 C185 0.930 . S
H173 C186 0.930 . S
H174 C190 0.959 . S
H175 C190 0.959 . S
H176 C190 0.961 . S
H177 C191 0.960 . S
H178 C191 0.961 . S
H179 C191 0.959 . S
H180 C194 0.929 . S
H181 C195 0.931 . S
H182 C197 0.930 . S
C183 H171 0.930 1_554 S
C183 C184 1.399 . S
C183 C188 1.399 . S
C184 C183 1.399 . S
C184 C185 1.376 . S
C185 H172 0.930 . S
C185 C184 1.376 . S
C185 C186 1.388 . S
C186 H173 0.930 . S
C186 C185 1.388 . S
C186 C187 1.390 . S
C187 C186 1.390 . S
C187 C188 1.394 . S
C187 C193 1.465 . S
C188 C183 1.399 . S
C188 C187 1.394 . S
C188 C189 1.516 1_554 S
C189 C188 1.516 1_556 S
C189 C190 1.502 . S
C189 C191 1.561 . S
C189 C192 1.526 1_556 S
C190 H174 0.959 . S
C190 H175 0.959 . S
C190 H176 0.961 . S
C190 C189 1.502 . S
C191 H177 0.960 . S
C191 H178 0.961 . S
C191 H179 0.959 . S
C191 C189 1.561 . S
C192 C189 1.526 1_554 S
C192 C193 1.396 . S
C192 C197 1.390 1_554 S
C193 C187 1.465 . S
C193 C192 1.396 . S
C193 C194 1.399 . S
C194 H180 0.929 . S
C194 C193 1.399 . S
C194 C195 1.385 . S
C195 H181 0.931 . S
C195 C194 1.385 . S
C195 C196 1.389 . S
C196 C195 1.389 . S
C196 C197 1.387 1_554 S
C197 H182 0.930 . S
C197 C192 1.390 1_556 S
C197 C196 1.387 1_556 S
H198 C210 0.930 . S
H199 C212 0.930 . S
H200 C213 0.930 . S
H201 C217 0.959 . S
H202 C217 0.959 . S
H203 C217 0.961 . S
H204 C218 0.960 . S
H205 C218 0.961 . S
H206 C218 0.959 . S
H207 C221 0.929 . S
H208 C222 0.931 . S
H209 C224 0.930 . S
C210 H198 0.930 . S
C210 C211 1.399 . S
C210 C215 1.399 . S
C211 C210 1.399 . S
C211 C212 1.376 . S
C212 H199 0.930 . S
C212 C211 1.376 . S
C212 C213 1.388 . S
C213 H200 0.930 . S
C213 C212 1.388 . S
C213 C214 1.390 . S
C214 C213 1.390 . S
C214 C215 1.394 . S
C214 C220 1.465 . S
C215 C210 1.399 . S
C215 C214 1.394 . S
C215 C216 1.516 . S
C216 C215 1.516 . S
C216 C217 1.502 . S
C216 C218 1.561 . S
C216 C219 1.526 . S
C217 H201 0.959 . S
C217 H202 0.959 . S
C217 H203 0.961 . S
C217 C216 1.502 . S
C218 H204 0.960 . S
C218 H205 0.961 . S
C218 H206 0.959 . S
C218 C216 1.561 . S
C219 C216 1.526 . S
C219 C220 1.396 . S
C219 C224 1.390 . S
C220 C214 1.465 . S
C220 C219 1.396 . S
C220 C221 1.399 . S
C221 H207 0.929 . S
C221 C220 1.399 . S
C221 C222 1.385 . S
C222 H208 0.931 . S
C222 C221 1.385 . S
C222 C223 1.389 . S
C223 C222 1.389 . S
C223 C224 1.387 . S
C224 H209 0.930 . S
C224 C219 1.390 . S
C224 C223 1.387 . S
H225 C237 0.930 . S
H226 C239 0.930 . S
H227 C240 0.930 . S
H228 C244 0.959 . S
H229 C244 0.959 . S
H230 C244 0.961 . S
H231 C245 0.960 . S
H232 C245 0.961 . S
H233 C245 0.959 . S
H234 C248 0.929 . S
H235 C249 0.931 . S
H236 C251 0.930 . S
C237 H225 0.930 . S
C237 C238 1.399 . S
C237 C242 1.399 . S
C238 C237 1.399 . S
C238 C239 1.376 . S
C239 H226 0.930 . S
C239 C238 1.376 . S
C239 C240 1.388 . S
C240 H227 0.930 . S
C240 C239 1.388 . S
C240 C241 1.390 . S
C241 C240 1.390 . S
C241 C242 1.394 . S
C241 C247 1.465 . S
C242 C237 1.399 . S
C242 C241 1.394 . S
C242 C243 1.516 . S
C243 C242 1.516 . S
C243 C244 1.502 . S
C243 C245 1.561 . S
C243 C246 1.526 . S
C244 H228 0.959 . S
C244 H229 0.959 . S
C244 H230 0.961 . S
C244 C243 1.502 . S
C245 H231 0.960 . S
C245 H232 0.961 . S
C245 H233 0.959 . S
C245 C243 1.561 . S
C246 C243 1.526 . S
C246 C247 1.396 . S
C246 C251 1.390 . S
C247 C241 1.465 . S
C247 C246 1.396 . S
C247 C248 1.399 . S
C248 H234 0.929 . S
C248 C247 1.399 . S
C248 C249 1.385 . S
C249 H235 0.931 . S
C249 C248 1.385 . S
C249 C250 1.389 . S
C250 C249 1.389 . S
C250 C251 1.387 . S
C251 H236 0.930 . S
C251 C246 1.390 . S
C251 C250 1.387 . S
H252 C264 0.930 . S
H253 C266 0.930 . S
H254 C267 0.930 . S
H255 C271 0.959 . S
H256 C271 0.959 . S
H257 C271 0.961 . S
H258 C272 0.960 . S
H259 C272 0.961 1_455 S
H260 C272 0.959 . S
H261 C275 0.929 . S
H262 C276 0.931 . S
H263 C278 0.930 . S
C264 H252 0.930 . S
C264 C265 1.399 . S
C264 C269 1.399 . S
C265 C264 1.399 . S
C265 C266 1.376 . S
C266 H253 0.930 . S
C266 C265 1.376 . S
C266 C267 1.388 . S
C267 H254 0.930 . S
C267 C266 1.388 . S
C267 C268 1.390 . S
C268 C267 1.390 . S
C268 C269 1.394 . S
C268 C274 1.465 . S
C269 C264 1.399 . S
C269 C268 1.394 . S
C269 C270 1.516 . S
C270 C269 1.516 . S
C270 C271 1.502 . S
C270 C272 1.561 . S
C270 C273 1.526 . S
C271 H255 0.959 . S
C271 H256 0.959 . S
C271 H257 0.961 . S
C271 C270 1.502 . S
C272 H258 0.960 . S
C272 H259 0.961 1_655 S
C272 H260 0.959 . S
C272 C270 1.561 . S
C273 C270 1.526 . S
C273 C274 1.396 . S
C273 C278 1.390 . S
C274 C268 1.465 . S
C274 C273 1.396 . S
C274 C275 1.399 . S
C275 H261 0.929 . S
C275 C274 1.399 . S
C275 C276 1.385 . S
C276 H262 0.931 . S
C276 C275 1.385 . S
C276 C277 1.389 . S
C277 C276 1.389 . S
C277 C278 1.387 . S
C278 H263 0.930 . S
C278 C273 1.390 . S
C278 C277 1.387 . S
H279 C291 0.930 . S
H280 C293 0.930 . S
H281 C294 0.930 . S
H282 C298 0.959 . S
H283 C298 0.959 . S
H284 C298 0.961 . S
H285 C299 0.960 . S
H286 C299 0.961 . S
H287 C299 0.959 . S
H288 C302 0.929 . S
H289 C303 0.931 . S
H290 C305 0.930 . S
C291 H279 0.930 . S
C291 C292 1.399 . S
C291 C296 1.399 . S
C292 C291 1.399 . S
C292 C293 1.376 . S
C293 H280 0.930 . S
C293 C292 1.376 . S
C293 C294 1.388 . S
C294 H281 0.930 . S
C294 C293 1.388 . S
C294 C295 1.390 . S
C295 C294 1.390 . S
C295 C296 1.394 . S
C295 C301 1.465 . S
C296 C291 1.399 . S
C296 C295 1.394 . S
C296 C297 1.516 . S
C297 C296 1.516 . S
C297 C298 1.502 . S
C297 C299 1.561 . S
C297 C300 1.526 . S
C298 H282 0.959 . S
C298 H283 0.959 . S
C298 H284 0.961 . S
C298 C297 1.502 . S
C299 H285 0.960 . S
C299 H286 0.961 . S
C299 H287 0.959 . S
C299 C297 1.561 . S
C300 C297 1.526 . S
C300 C301 1.396 . S
C300 C305 1.390 . S
C301 C295 1.465 . S
C301 C300 1.396 . S
C301 C302 1.399 . S
C302 H288 0.929 . S
C302 C301 1.399 . S
C302 C303 1.385 . S
C303 H289 0.931 . S
C303 C302 1.385 . S
C303 C304 1.389 . S
C304 C303 1.389 . S
C304 C305 1.387 . S
C305 H290 0.930 . S
C305 C300 1.390 . S
C305 C304 1.387 . S
H306 C318 0.930 . S
H307 C320 0.930 . S
H308 C321 0.930 . S
H309 C325 0.959 . S
H310 C325 0.959 . S
H311 C325 0.961 . S
H312 C326 0.960 . S
H313 C326 0.961 . S
H314 C326 0.959 . S
H315 C329 0.929 . S
H316 C330 0.931 . S
H317 C332 0.930 . S
C318 H306 0.930 . S
C318 C319 1.399 . S
C318 C323 1.399 . S
C319 C318 1.399 . S
C319 C320 1.376 . S
C320 H307 0.930 . S
C320 C319 1.376 . S
C320 C321 1.388 . S
C321 H308 0.930 . S
C321 C320 1.388 . S
C321 C322 1.390 . S
C322 C321 1.390 . S
C322 C323 1.394 . S
C322 C328 1.465 . S
C323 C318 1.399 . S
C323 C322 1.394 . S
C323 C324 1.516 . S
C324 C323 1.516 . S
C324 C325 1.502 . S
C324 C326 1.561 . S
C324 C327 1.526 . S
C325 H309 0.959 . S
C325 H310 0.959 . S
C325 H311 0.961 . S
C325 C324 1.502 . S
C326 H312 0.960 . S
C326 H313 0.961 . S
C326 H314 0.959 . S
C326 C324 1.561 . S
C327 C324 1.526 . S
C327 C328 1.396 . S
C327 C332 1.390 . S
C328 C322 1.465 . S
C328 C327 1.396 . S
C328 C329 1.399 . S
C329 H315 0.929 . S
C329 C328 1.399 . S
C329 C330 1.385 . S
C330 H316 0.931 . S
C330 C329 1.385 . S
C330 C331 1.389 . S
C331 C330 1.389 . S
C331 C332 1.387 . S
C332 H317 0.930 . S
C332 C327 1.390 . S
C332 C331 1.387 . S
H333 C345 0.930 . S
H334 C347 0.930 . S
H335 C348 0.930 . S
H336 C352 0.959 . S
H337 C352 0.959 . S
H338 C352 0.961 . S
H339 C353 0.960 . S
H340 C353 0.961 . S
H341 C353 0.959 . S
H342 C356 0.929 . S
H343 C357 0.931 . S
H344 C359 0.930 . S
C345 H333 0.930 . S
C345 C346 1.399 . S
C345 C350 1.399 . S
C346 C345 1.399 . S
C346 C347 1.376 . S
C347 H334 0.930 . S
C347 C346 1.376 . S
C347 C348 1.388 . S
C348 H335 0.930 . S
C348 C347 1.388 . S
C348 C349 1.390 . S
C349 C348 1.390 . S
C349 C350 1.394 . S
C349 C355 1.465 . S
C350 C345 1.399 . S
C350 C349 1.394 . S
C350 C351 1.516 . S
C351 C350 1.516 . S
C351 C352 1.502 . S
C351 C353 1.561 . S
C351 C354 1.526 . S
C352 H336 0.959 . S
C352 H337 0.959 . S
C352 H338 0.961 . S
C352 C351 1.502 . S
C353 H339 0.960 . S
C353 H340 0.961 . S
C353 H341 0.959 . S
C353 C351 1.561 . S
C354 C351 1.526 . S
C354 C355 1.396 . S
C354 C359 1.390 . S
C355 C349 1.465 . S
C355 C354 1.396 . S
C355 C356 1.399 . S
C356 H342 0.929 . S
C356 C355 1.399 . S
C356 C357 1.385 . S
C357 H343 0.931 . S
C357 C356 1.385 . S
C357 C358 1.389 . S
C358 C357 1.389 . S
C358 C359 1.387 . S
C359 H344 0.930 . S
C359 C354 1.390 . S
C359 C358 1.387 . S
H360 C372 0.930 . S
H361 C374 0.930 . S
H362 C375 0.930 . S
H363 C379 0.959 . S
H364 C379 0.959 . S
H365 C379 0.961 . S
H366 C380 0.960 . S
H367 C380 0.961 . S
H368 C380 0.959 . S
H369 C383 0.929 . S
H370 C384 0.931 . S
H371 C386 0.930 . S
C372 H360 0.930 . S
C372 C373 1.399 . S
C372 C377 1.399 . S
C373 C372 1.399 . S
C373 C374 1.376 . S
C374 H361 0.930 . S
C374 C373 1.376 . S
C374 C375 1.388 . S
C375 H362 0.930 . S
C375 C374 1.388 . S
C375 C376 1.390 . S
C376 C375 1.390 . S
C376 C377 1.394 . S
C376 C382 1.465 . S
C377 C372 1.399 . S
C377 C376 1.394 . S
C377 C378 1.516 . S
C378 C377 1.516 . S
C378 C379 1.502 . S
C378 C380 1.561 . S
C378 C381 1.526 . S
C379 H363 0.959 . S
C379 H364 0.959 . S
C379 H365 0.961 . S
C379 C378 1.502 . S
C380 H366 0.960 . S
C380 H367 0.961 . S
C380 H368 0.959 . S
C380 C378 1.561 . S
C381 C378 1.526 . S
C381 C382 1.396 . S
C381 C386 1.390 . S
C382 C376 1.465 . S
C382 C381 1.396 . S
C382 C383 1.399 . S
C383 H369 0.929 . S
C383 C382 1.399 . S
C383 C384 1.385 . S
C384 H370 0.931 . S
C384 C383 1.385 . S
C384 C385 1.389 . S
C385 C384 1.389 . S
C385 C386 1.387 . S
C386 H371 0.930 . S
C386 C381 1.390 . S
C386 C385 1.387 . S
H387 C399 0.930 . S
H388 C401 0.930 . S
H389 C402 0.930 . S
H390 C406 0.959 . S
H391 C406 0.959 . S
H392 C406 0.961 . S
H393 C407 0.960 . S
H394 C407 0.961 . S
H395 C407 0.959 . S
H396 C410 0.929 . S
H397 C411 0.931 . S
H398 C413 0.930 . S
C399 H387 0.930 . S
C399 C400 1.399 . S
C399 C404 1.399 . S
C400 C399 1.399 . S
C400 C401 1.376 . S
C401 H388 0.930 . S
C401 C400 1.376 . S
C401 C402 1.388 . S
C402 H389 0.930 . S
C402 C401 1.388 . S
C402 C403 1.390 . S
C403 C402 1.390 . S
C403 C404 1.394 . S
C403 C409 1.465 . S
C404 C399 1.399 . S
C404 C403 1.394 . S
C404 C405 1.516 . S
C405 C404 1.516 . S
C405 C406 1.502 . S
C405 C407 1.561 . S
C405 C408 1.526 . S
C406 H390 0.959 . S
C406 H391 0.959 . S
C406 H392 0.961 . S
C406 C405 1.502 . S
C407 H393 0.960 . S
C407 H394 0.961 . S
C407 H395 0.959 . S
C407 C405 1.561 . S
C408 C405 1.526 . S
C408 C409 1.396 . S
C408 C413 1.390 . S
C409 C403 1.465 . S
C409 C408 1.396 . S
C409 C410 1.399 . S
C410 H396 0.929 . S
C410 C409 1.399 . S
C410 C411 1.385 . S
C411 H397 0.931 . S
C411 C410 1.385 . S
C411 C412 1.389 . S
C412 C411 1.389 . S
C412 C413 1.387 . S
C413 H398 0.930 . S
C413 C408 1.390 . S
C413 C412 1.387 . S
C115 C61 1.511 . S
C103 C41 1.517 . S
C130 C8 1.510 . S
C142 C84 1.497 . S
C157 C19 1.535 . S
C169 C60 1.534 . S
C184 C30 1.559 . S
C196 C83 1.553 . S
C223 C64 1.530 . S
C211 C5 1.187 . S
C250 C86 1.590 . S
C238 C18 1.640 . S
C265 C29 1.568 . S
C277 C65 1.550 . S
C292 C40 1.619 . S
C304 C85 1.611 . S
C331 C88 1.390 . S
C319 C16 1.073 . S
C358 C63 1.418 . S
C346 C27 1.312 . S
C385 C87 1.328 . S
C373 C38 1.019 . S
C400 C7 1.362 . S
C412 C62 1.342 . S
