# Generated by pormake.
# Topology ocu, (6,8)-cn, num edge types: 1
# Building blocks:
#     Node 0, Type 0, BuildingBlock: CUWYAW_clean_sbu_0, # of connection points: 6
#     Node 1, Type 0, BuildingBlock: CUWYAW_clean_sbu_0, # of connection points: 6
#     Node 2, Type 0, BuildingBlock: CUWYAW_clean_sbu_0, # of connection points: 6
#     Node 3, Type 0, BuildingBlock: CUWYAW_clean_sbu_0, # of connection points: 6
#     Node 4, Type 0, BuildingBlock: CUWYAW_clean_sbu_0, # of connection points: 6
#     Node 5, Type 0, BuildingBlock: CUWYAW_clean_sbu_0, # of connection points: 6
#     Node 6, Type 0, BuildingBlock: CUWYAW_clean_sbu_0, # of connection points: 6
#     Node 7, Type 0, BuildingBlock: CUWYAW_clean_sbu_0, # of connection points: 6
#     Node 8, Type 1, BuildingBlock: TAGTUT_clean_sbu_1, # of connection points: 8
#     Node 9, Type 1, BuildingBlock: TAGTUT_clean_sbu_1, # of connection points: 8
#     Node 10, Type 1, BuildingBlock: TAGTUT_clean_sbu_1, # of connection points: 8
#     Node 11, Type 1, BuildingBlock: TAGTUT_clean_sbu_1, # of connection points: 8
#     Node 12, Type 1, BuildingBlock: TAGTUT_clean_sbu_1, # of connection points: 8
#     Node 13, Type 1, BuildingBlock: TAGTUT_clean_sbu_1, # of connection points: 8
#     Edge 14, Type (0, 1), BuildingBlock: MIFKUJ_clean_linker_0, # of connection points: 2
#     Edge 15, Type (0, 1), BuildingBlock: MIFKUJ_clean_linker_0, # of connection points: 2
#     Edge 16, Type (0, 1), BuildingBlock: MIFKUJ_clean_linker_0, # of connection points: 2
#     Edge 17, Type (0, 1), BuildingBlock: MIFKUJ_clean_linker_0, # of connection points: 2
#     Edge 18, Type (0, 1), BuildingBlock: MIFKUJ_clean_linker_0, # of connection points: 2
#     Edge 19, Type (0, 1), BuildingBlock: MIFKUJ_clean_linker_0, # of connection points: 2
#     Edge 20, Type (0, 1), BuildingBlock: MIFKUJ_clean_linker_0, # of connection points: 2
#     Edge 21, Type (0, 1), BuildingBlock: MIFKUJ_clean_linker_0, # of connection points: 2
#     Edge 22, Type (0, 1), BuildingBlock: MIFKUJ_clean_linker_0, # of connection points: 2
#     Edge 23, Type (0, 1), BuildingBlock: MIFKUJ_clean_linker_0, # of connection points: 2
#     Edge 24, Type (0, 1), BuildingBlock: MIFKUJ_clean_linker_0, # of connection points: 2
#     Edge 25, Type (0, 1), BuildingBlock: MIFKUJ_clean_linker_0, # of connection points: 2
#     Edge 26, Type (0, 1), BuildingBlock: MIFKUJ_clean_linker_0, # of connection points: 2
#     Edge 27, Type (0, 1), BuildingBlock: MIFKUJ_clean_linker_0, # of connection points: 2
#     Edge 28, Type (0, 1), BuildingBlock: MIFKUJ_clean_linker_0, # of connection points: 2
#     Edge 29, Type (0, 1), BuildingBlock: MIFKUJ_clean_linker_0, # of connection points: 2
#     Edge 30, Type (0, 1), BuildingBlock: MIFKUJ_clean_linker_0, # of connection points: 2
#     Edge 31, Type (0, 1), BuildingBlock: MIFKUJ_clean_linker_0, # of connection points: 2
#     Edge 32, Type (0, 1), BuildingBlock: MIFKUJ_clean_linker_0, # of connection points: 2
#     Edge 33, Type (0, 1), BuildingBlock: MIFKUJ_clean_linker_0, # of connection points: 2
#     Edge 34, Type (0, 1), BuildingBlock: MIFKUJ_clean_linker_0, # of connection points: 2
#     Edge 35, Type (0, 1), BuildingBlock: MIFKUJ_clean_linker_0, # of connection points: 2
#     Edge 36, Type (0, 1), BuildingBlock: MIFKUJ_clean_linker_0, # of connection points: 2
#     Edge 37, Type (0, 1), BuildingBlock: MIFKUJ_clean_linker_0, # of connection points: 2
#     Edge 38, Type (0, 1), BuildingBlock: MIFKUJ_clean_linker_0, # of connection points: 2
#     Edge 39, Type (0, 1), BuildingBlock: MIFKUJ_clean_linker_0, # of connection points: 2
#     Edge 40, Type (0, 1), BuildingBlock: MIFKUJ_clean_linker_0, # of connection points: 2
#     Edge 41, Type (0, 1), BuildingBlock: MIFKUJ_clean_linker_0, # of connection points: 2
#     Edge 42, Type (0, 1), BuildingBlock: MIFKUJ_clean_linker_0, # of connection points: 2
#     Edge 43, Type (0, 1), BuildingBlock: MIFKUJ_clean_linker_0, # of connection points: 2
#     Edge 44, Type (0, 1), BuildingBlock: MIFKUJ_clean_linker_0, # of connection points: 2
#     Edge 45, Type (0, 1), BuildingBlock: MIFKUJ_clean_linker_0, # of connection points: 2
#     Edge 46, Type (0, 1), BuildingBlock: MIFKUJ_clean_linker_0, # of connection points: 2
#     Edge 47, Type (0, 1), BuildingBlock: MIFKUJ_clean_linker_0, # of connection points: 2
#     Edge 48, Type (0, 1), BuildingBlock: MIFKUJ_clean_linker_0, # of connection points: 2
#     Edge 49, Type (0, 1), BuildingBlock: MIFKUJ_clean_linker_0, # of connection points: 2
#     Edge 50, Type (0, 1), BuildingBlock: MIFKUJ_clean_linker_0, # of connection points: 2
#     Edge 51, Type (0, 1), BuildingBlock: MIFKUJ_clean_linker_0, # of connection points: 2
#     Edge 52, Type (0, 1), BuildingBlock: MIFKUJ_clean_linker_0, # of connection points: 2
#     Edge 53, Type (0, 1), BuildingBlock: MIFKUJ_clean_linker_0, # of connection points: 2
#     Edge 54, Type (0, 1), BuildingBlock: MIFKUJ_clean_linker_0, # of connection points: 2
#     Edge 55, Type (0, 1), BuildingBlock: MIFKUJ_clean_linker_0, # of connection points: 2
#     Edge 56, Type (0, 1), BuildingBlock: MIFKUJ_clean_linker_0, # of connection points: 2
#     Edge 57, Type (0, 1), BuildingBlock: MIFKUJ_clean_linker_0, # of connection points: 2
#     Edge 58, Type (0, 1), BuildingBlock: MIFKUJ_clean_linker_0, # of connection points: 2
#     Edge 59, Type (0, 1), BuildingBlock: MIFKUJ_clean_linker_0, # of connection points: 2
#     Edge 60, Type (0, 1), BuildingBlock: MIFKUJ_clean_linker_0, # of connection points: 2
#     Edge 61, Type (0, 1), BuildingBlock: MIFKUJ_clean_linker_0, # of connection points: 2
# Relax obj value: 0.118
# Max RMSD: 0.217
# Mean RMSD: 0.131
data_MOF--net-ocu--node1-CUWYAW_clean_sbu_0--node2-TAGTUT_clean_sbu_1--edge1-MIFKUJ_clean_linker_0
_symmetry_space_group_name_H-M    P1
_symmetry_Int_Tables_number       1
_symmetry_cell_setting            triclinic
loop_
_symmetry_equiv_pos_as_xyz
'x, y, z'
_cell_length_a     52.576044
_cell_length_b     50.05019
_cell_length_c     51.020138
_cell_angle_alpha  86.899342
_cell_angle_beta   101.66324
_cell_angle_gamma 107.54541
loop_
_atom_site_label
_atom_site_type_symbol
_atom_site_fract_x
_atom_site_fract_y
_atom_site_fract_z
_atom_type_partial_charge
C0 C 0.30627 0.33269 0.32389 0.0
Eu1 Eu 0.28969 0.2912 0.28939 0.0
C2 C 0.29293 0.34726 0.3382 0.0
C3 C 0.30838 0.36643 0.35858 0.0
C4 C 0.29547 0.3789 0.37354 0.0
C5 C 0.26695 0.37228 0.36821 0.0
C6 C 0.25168 0.35364 0.34718 0.0
C7 C 0.26456 0.34107 0.33244 0.0
C8 C 0.31848 0.29942 0.2477 0.0
C9 C 0.23724 0.30023 0.24727 0.0
C10 C 0.24763 0.21059 0.22111 0.0
Eu11 Eu 0.26426 0.25111 0.25667 0.0
C12 C 0.25847 0.20274 0.19953 0.0
C13 C 0.24143 0.18292 0.18038 0.0
C14 C 0.25185 0.17471 0.16013 0.0
C15 C 0.27951 0.1862 0.15888 0.0
C16 C 0.29632 0.20668 0.17781 0.0
C17 C 0.28584 0.21496 0.19793 0.0
C18 C 0.23577 0.24188 0.29864 0.0
C19 C 0.31671 0.24178 0.29914 0.0
O20 O 0.30339 0.30664 0.33053 0.0
O21 O 0.30259 0.33604 0.29808 0.0
O22 O 0.32876 0.29948 0.27295 0.0
O23 O 0.29265 0.29224 0.24518 0.0
O24 O 0.25126 0.30545 0.27203 0.0
O25 O 0.24142 0.28048 0.23431 0.0
O26 O 0.2412 0.2338 0.21765 0.0
O27 O 0.26087 0.20864 0.24524 0.0
O28 O 0.22532 0.24081 0.27345 0.0
O29 O 0.26157 0.24987 0.30094 0.0
O30 O 0.30147 0.23516 0.27497 0.0
O31 O 0.31448 0.26331 0.31114 0.0
H32 H 0.33033 0.37125 0.3633 0.0
H33 H 0.30772 0.39299 0.3898 0.0
H34 H 0.22971 0.34849 0.3423 0.0
H35 H 0.25231 0.32613 0.31691 0.0
H36 H 0.22016 0.17358 0.18127 0.0
H37 H 0.23834 0.15919 0.14563 0.0
H38 H 0.31779 0.21564 0.17765 0.0
H39 H 0.29918 0.2305 0.21254 0.0
C40 C 0.82648 0.32219 0.23171 0.0
Eu41 Eu 0.80038 0.28799 0.26347 0.0
C42 C 0.81233 0.3275 0.205 0.0
C43 C 0.78633 0.30929 0.19485 0.0
C44 C 0.77239 0.31307 0.16931 0.0
C45 C 0.78423 0.33514 0.15338 0.0
C46 C 0.80968 0.3543 0.16425 0.0
C47 C 0.82362 0.35048 0.1899 0.0
C48 C 0.76893 0.23731 0.24239 0.0
C49 C 0.74133 0.30087 0.24823 0.0
C50 C 0.73204 0.22957 0.32441 0.0
Eu51 Eu 0.76019 0.26177 0.29275 0.0
C52 C 0.74183 0.22939 0.35336 0.0
C53 C 0.76405 0.2517 0.36532 0.0
C54 C 0.77182 0.254 0.39309 0.0
C55 C 0.75796 0.23356 0.4092 0.0
C56 C 0.73728 0.20996 0.39706 0.0
C57 C 0.7291 0.20801 0.36926 0.0
C58 C 0.79158 0.31252 0.31382 0.0
C59 C 0.8189 0.24773 0.30736 0.0
O60 O 0.81849 0.33094 0.25139 0.0
O61 O 0.82799 0.29661 0.2353 0.0
O62 O 0.79503 0.24624 0.24482 0.0
O63 O 0.76023 0.25547 0.25058 0.0
O64 O 0.76802 0.31128 0.25103 0.0
O65 O 0.73149 0.27664 0.25963 0.0
O66 O 0.74574 0.22045 0.31013 0.0
O67 O 0.72765 0.25302 0.31532 0.0
O68 O 0.76552 0.30349 0.31127 0.0
O69 O 0.80033 0.29431 0.30575 0.0
O70 O 0.79221 0.23817 0.3056 0.0
O71 O 0.82906 0.27143 0.29518 0.0
H72 H 0.77708 0.29155 0.20643 0.0
H73 H 0.75294 0.29801 0.16157 0.0
H74 H 0.81974 0.37122 0.1523 0.0
H75 H 0.84347 0.3649 0.19753 0.0
H76 H 0.77453 0.26811 0.35318 0.0
H77 H 0.78755 0.27243 0.40196 0.0
H78 H 0.72592 0.19411 0.4091 0.0
H79 H 0.71219 0.19053 0.36033 0.0
C80 C 0.82856 0.76387 0.34938 0.0
Eu81 Eu 0.78743 0.75903 0.31025 0.0
C82 C 0.8494 0.74945 0.35271 0.0
C83 C 0.84496 0.72603 0.33655 0.0
C84 C 0.86612 0.71499 0.33568 0.0
C85 C 0.89213 0.72713 0.35103 0.0
C86 C 0.89636 0.75021 0.36773 0.0
C87 C 0.87514 0.7614 0.36843 0.0
C88 C 0.7475 0.71135 0.29359 0.0
C89 C 0.7935 0.73419 0.25381 0.0
C90 C 0.70707 0.75983 0.21868 0.0
Eu91 Eu 0.74671 0.76507 0.25939 0.0
C92 C 0.68551 0.77335 0.21402 0.0
C93 C 0.68879 0.79722 0.22904 0.0
C94 C 0.66744 0.80867 0.2271 0.0
C95 C 0.64235 0.79636 0.21019 0.0
C96 C 0.63913 0.77244 0.19507 0.0
C97 C 0.66059 0.76092 0.19708 0.0
C98 C 0.78797 0.8125 0.27559 0.0
C99 C 0.73866 0.78853 0.31502 0.0
O100 O 0.82913 0.7807 0.32886 0.0
O101 O 0.80388 0.74824 0.35081 0.0
O102 O 0.77173 0.71201 0.30612 0.0
O103 O 0.74496 0.7357 0.29308 0.0
O104 O 0.80547 0.74252 0.27887 0.0
O105 O 0.77018 0.73929 0.24277 0.0
O106 O 0.70601 0.7426 0.2389 0.0
O107 O 0.73172 0.77638 0.2186 0.0
O108 O 0.76378 0.81258 0.26362 0.0
O109 O 0.7895 0.78778 0.27638 0.0
O110 O 0.72748 0.7811 0.28966 0.0
O111 O 0.76145 0.78254 0.32676 0.0
H112 H 0.82534 0.71687 0.32383 0.0
H113 H 0.86226 0.69739 0.32245 0.0
H114 H 0.91608 0.75966 0.3802 0.0
H115 H 0.879 0.77979 0.38063 0.0
H116 H 0.7078 0.80683 0.24256 0.0
H117 H 0.67074 0.82743 0.23857 0.0
H118 H 0.61995 0.76249 0.18195 0.0
H119 H 0.65762 0.74213 0.1858 0.0
C120 C 0.2875 0.84437 0.31536 0.0
Eu121 Eu 0.27913 0.79699 0.29156 0.0
C122 C 0.28514 0.8534 0.34137 0.0
C123 C 0.26615 0.8364 0.35563 0.0
C124 C 0.26289 0.84608 0.37951 0.0
C125 C 0.27877 0.87281 0.38968 0.0
C126 C 0.29883 0.88907 0.376 0.0
C127 C 0.30191 0.87944 0.35198 0.0
C128 C 0.24042 0.77117 0.25037 0.0
C129 C 0.24962 0.73769 0.31727 0.0
C130 C 0.28224 0.69824 0.24699 0.0
Eu131 Eu 0.28711 0.74513 0.26959 0.0
C132 C 0.28778 0.69037 0.22192 0.0
C133 C 0.30193 0.67065 0.22262 0.0
C134 C 0.30807 0.6633 0.19923 0.0
C135 C 0.30023 0.67567 0.17473 0.0
C136 C 0.28609 0.6955 0.17404 0.0
C137 C 0.27994 0.70282 0.1975 0.0
C138 C 0.32568 0.77106 0.3109 0.0
C139 C 0.31517 0.80445 0.24263 0.0
O140 O 0.30649 0.83238 0.31592 0.0
O141 O 0.2647 0.8317 0.29918 0.0
O142 O 0.23513 0.78277 0.27 0.0
O143 O 0.26554 0.77527 0.25281 0.0
O144 O 0.25805 0.7654 0.32041 0.0
O145 O 0.25692 0.72581 0.29829 0.0
O146 O 0.26209 0.709 0.24499 0.0
O147 O 0.30367 0.71119 0.26462 0.0
O148 O 0.33121 0.76098 0.29056 0.0
O149 O 0.30049 0.76648 0.30834 0.0
O150 O 0.30738 0.77667 0.24006 0.0
O151 O 0.30778 0.81635 0.26151 0.0
H152 H 0.25325 0.81603 0.34787 0.0
H153 H 0.24692 0.83316 0.38919 0.0
H154 H 0.31164 0.90956 0.38344 0.0
H155 H 0.31705 0.89257 0.34144 0.0
H156 H 0.30837 0.66104 0.24132 0.0
H157 H 0.31958 0.64845 0.20045 0.0
H158 H 0.27998 0.70543 0.15544 0.0
H159 H 0.2694 0.71844 0.19654 0.0
C160 C 0.3566 0.83104 0.76312 0.0
Eu161 Eu 0.31008 0.79387 0.76351 0.0
C162 C 0.36974 0.86035 0.7567 0.0
C163 C 0.36758 0.86946 0.73008 0.0
C164 C 0.38499 0.89491 0.72365 0.0
C165 C 0.40486 0.91179 0.74373 0.0
C166 C 0.40516 0.90384 0.77059 0.0
C167 C 0.38781 0.87826 0.77702 0.0
C168 C 0.288 0.74364 0.73915 0.0
C169 C 0.2522 0.80127 0.73399 0.0
C170 C 0.21371 0.71996 0.78665 0.0
Eu171 Eu 0.26018 0.75618 0.78337 0.0
C172 C 0.20132 0.69646 0.80305 0.0
C173 C 0.20439 0.6997 0.83075 0.0
C174 C 0.18877 0.67923 0.84535 0.0
C175 C 0.17 0.65486 0.83266 0.0
C176 C 0.16836 0.65082 0.80521 0.0
C177 C 0.18381 0.67156 0.79051 0.0
C178 C 0.28348 0.80616 0.80808 0.0
C179 C 0.31789 0.74776 0.81286 0.0
O180 O 0.34508 0.82647 0.78412 0.0
O181 O 0.34326 0.81373 0.74313 0.0
O182 O 0.29902 0.76607 0.72648 0.0
O183 O 0.29065 0.74883 0.76342 0.0
O184 O 0.27884 0.81388 0.73972 0.0
O185 O 0.24163 0.77703 0.74557 0.0
O186 O 0.22969 0.71589 0.77163 0.0
O187 O 0.22247 0.74483 0.79786 0.0
O188 O 0.27338 0.78346 0.82092 0.0
O189 O 0.27982 0.80128 0.78359 0.0
O190 O 0.291 0.73728 0.80971 0.0
O191 O 0.32894 0.76998 0.79878 0.0
H192 H 0.35373 0.85618 0.71396 0.0
H193 H 0.38425 0.90009 0.70269 0.0
H194 H 0.41991 0.91657 0.78647 0.0
H195 H 0.38973 0.87174 0.79775 0.0
H196 H 0.21787 0.71866 0.84098 0.0
H197 H 0.19039 0.68341 0.86632 0.0
H198 H 0.1545 0.6321 0.7949 0.0
H199 H 0.18125 0.66863 0.76913 0.0
C200 C 0.30563 0.2527 0.72112 0.0
Eu201 Eu 0.28807 0.26976 0.76026 0.0
C202 C 0.32395 0.23867 0.71171 0.0
C203 C 0.33944 0.25208 0.69262 0.0
C204 C 0.35412 0.23837 0.6807 0.0
C205 C 0.3539 0.21053 0.68731 0.0
C206 C 0.33882 0.19729 0.70695 0.0
C207 C 0.32408 0.21108 0.71889 0.0
C208 C 0.31021 0.31261 0.79553 0.0
C209 C 0.30541 0.23786 0.81712 0.0
C210 C 0.24251 0.288 0.85015 0.0
Eu211 Eu 0.25961 0.26978 0.81134 0.0
C212 C 0.22398 0.30255 0.85847 0.0
C213 C 0.20492 0.28816 0.87412 0.0
C214 C 0.19009 0.30209 0.88558 0.0
C215 C 0.194 0.33111 0.88217 0.0
C216 C 0.21248 0.34542 0.8658 0.0
C217 C 0.22716 0.33139 0.85409 0.0
C218 C 0.23705 0.22664 0.77648 0.0
C219 C 0.24241 0.30156 0.75415 0.0
O220 O 0.28526 0.23737 0.73169 0.0
O221 O 0.3158 0.27801 0.73156 0.0
O222 O 0.31122 0.31578 0.77019 0.0
O223 O 0.29986 0.28743 0.80081 0.0
O224 O 0.30499 0.24171 0.79106 0.0
O225 O 0.29151 0.24872 0.83047 0.0
O226 O 0.26312 0.3028 0.83958 0.0
O227 O 0.23229 0.26244 0.84029 0.0
O228 O 0.23537 0.22414 0.80171 0.0
O229 O 0.2478 0.25173 0.77093 0.0
O230 O 0.24258 0.29773 0.7802 0.0
O231 O 0.25628 0.29054 0.74098 0.0
H232 H 0.33955 0.2731 0.68621 0.0
H233 H 0.36494 0.24946 0.66554 0.0
H234 H 0.33828 0.17613 0.71311 0.0
H235 H 0.31236 0.19988 0.73339 0.0
H236 H 0.20209 0.26611 0.87831 0.0
H237 H 0.17626 0.29023 0.89806 0.0
H238 H 0.21597 0.36768 0.86241 0.0
H239 H 0.24175 0.34342 0.84242 0.0
C240 C 0.73639 0.32046 0.76773 0.0
Eu241 Eu 0.76586 0.28682 0.76989 0.0
C242 C 0.72607 0.32976 0.78897 0.0
C243 C 0.7062 0.34368 0.78292 0.0
C244 C 0.69778 0.35385 0.80361 0.0
C245 C 0.7095 0.35047 0.83041 0.0
C246 C 0.72896 0.33599 0.83635 0.0
C247 C 0.73696 0.32543 0.81576 0.0
C248 C 0.76125 0.24887 0.73192 0.0
C249 C 0.74561 0.2353 0.81191 0.0
C250 C 0.82757 0.21419 0.78874 0.0
Eu251 Eu 0.79987 0.24963 0.78726 0.0
C252 C 0.83777 0.20315 0.76835 0.0
C253 C 0.84854 0.18066 0.77438 0.0
C254 C 0.85551 0.16806 0.7542 0.0
C255 C 0.8518 0.17788 0.72777 0.0
C256 C 0.84148 0.20082 0.72197 0.0
C257 C 0.83439 0.21327 0.7421 0.0
C258 C 0.80507 0.28809 0.82514 0.0
C259 C 0.82094 0.30269 0.74697 0.0
O260 O 0.76286 0.32905 0.77057 0.0
O261 O 0.72603 0.2939 0.76129 0.0
O262 O 0.76043 0.27424 0.72684 0.0
O263 O 0.7624 0.24391 0.75657 0.0
O264 O 0.74373 0.25971 0.80151 0.0
O265 O 0.76493 0.22529 0.80743 0.0
O266 O 0.80108 0.20684 0.78534 0.0
O267 O 0.8389 0.24075 0.79495 0.0
O268 O 0.8068 0.26302 0.8305 0.0
O269 O 0.80334 0.29258 0.8004 0.0
O270 O 0.82211 0.27754 0.75594 0.0
O271 O 0.80201 0.31271 0.75242 0.0
H272 H 0.69757 0.34704 0.76231 0.0
H273 H 0.68275 0.36505 0.79871 0.0
H274 H 0.73801 0.33293 0.85685 0.0
H275 H 0.75204 0.31431 0.82071 0.0
H276 H 0.85099 0.17245 0.79452 0.0
H277 H 0.86365 0.15056 0.75923 0.0
H278 H 0.83809 0.20858 0.70172 0.0
H279 H 0.82557 0.23027 0.737 0.0
C280 C 0.79267 0.83808 0.81674 0.0
Eu281 Eu 0.78768 0.7934 0.78918 0.0
C282 C 0.77877 0.84708 0.83546 0.0
C283 C 0.77092 0.87148 0.82957 0.0
C284 C 0.75613 0.87986 0.84565 0.0
C285 C 0.74907 0.86414 0.86814 0.0
C286 C 0.75756 0.84008 0.87454 0.0
C287 C 0.77215 0.83147 0.85819 0.0
C288 C 0.82214 0.80183 0.75192 0.0
C289 C 0.74272 0.79421 0.73736 0.0
C290 C 0.7673 0.70566 0.7304 0.0
Eu291 Eu 0.77112 0.74866 0.75966 0.0
C292 C 0.77721 0.69999 0.70699 0.0
C293 C 0.77035 0.67232 0.69798 0.0
C294 C 0.78325 0.66557 0.67898 0.0
C295 C 0.80335 0.68642 0.66869 0.0
C296 C 0.80919 0.71443 0.67686 0.0
C297 C 0.79624 0.72116 0.6959 0.0
C298 C 0.73659 0.73948 0.79677 0.0
C299 C 0.81394 0.74653 0.81408 0.0
O300 O 0.80598 0.82006 0.82491 0.0
O301 O 0.77889 0.83279 0.79243 0.0
O302 O 0.82974 0.80653 0.77741 0.0
O303 O 0.79648 0.79086 0.74727 0.0
O304 O 0.74824 0.79885 0.76338 0.0
O305 O 0.75387 0.77687 0.72899 0.0
O306 O 0.7491 0.71905 0.72665 0.0
O307 O 0.78615 0.7147 0.75145 0.0
O308 O 0.72915 0.7339 0.77141 0.0
O309 O 0.76216 0.75115 0.80145 0.0
O310 O 0.80754 0.73972 0.78847 0.0
O311 O 0.80495 0.76636 0.82116 0.0
H312 H 0.77585 0.88385 0.81218 0.0
H313 H 0.75013 0.89866 0.84043 0.0
H314 H 0.75225 0.82754 0.89171 0.0
H315 H 0.77783 0.81244 0.86308 0.0
H316 H 0.75593 0.65569 0.70657 0.0
H317 H 0.77847 0.64377 0.67345 0.0
H318 H 0.82429 0.73105 0.66908 0.0
H319 H 0.8019 0.74265 0.70278 0.0
C320 C 0.95581 0.06616 0.53867 0.0
C321 C 0.97991 0.07857 0.46548 0.0
C322 C 0.98642 0.96634 0.48082 0.0
Mg323 Mg 1.01279 0.07788 0.52369 0.0
O324 O 1.00222 0.03869 0.52512 0.0
Mg325 Mg 0.96632 0.01714 0.50297 0.0
Mg326 Mg 0.02723 0.01656 0.52059 0.0
O327 O 0.05246 0.99459 0.51599 0.0
Mg328 Mg 0.04272 0.95547 0.51579 0.0
Mg329 Mg 0.08805 0.01637 0.53847 0.0
C330 C 0.06901 0.06747 0.55775 0.0
C331 C 0.07665 0.05852 0.48783 0.0
O332 O 0.94683 0.04331 0.52481 0.0
O333 O 0.98062 0.08169 0.54193 0.0
O334 O 0.96762 0.05254 0.46913 0.0
O335 O 1.00059 0.09202 0.48274 0.0
O336 O 0.05445 0.08383 0.54821 0.0
O337 O 0.06113 0.04103 0.55285 0.0
C338 C 0.97807 0.97496 0.55419 0.0
O339 O 1.0039 0.98333 0.55332 0.0
O340 O 0.96166 0.98444 0.53698 0.0
O341 O 0.10863 0.99029 0.51835 0.0
O342 O 0.07592 0.95275 0.49829 0.0
O343 O 0.0866 0.98168 0.57185 0.0
C344 C 0.10085 0.96795 0.50386 0.0
O345 O 0.05607 0.94105 0.55677 0.0
O346 O 1.0015 0.9502 0.48959 0.0
C347 C 0.07588 0.95519 0.5746 0.0
O348 O 0.99326 0.9922 0.48803 0.0
O349 O 0.05074 0.05 0.48829 0.0
O350 O 0.09296 0.04887 0.50493 0.0
C351 C 0.44687 0.08051 0.033 0.0
C352 C 0.47944 0.08832 0.96345 0.0
C353 C 0.47327 0.98059 0.97208 0.0
Mg354 Mg 0.50517 0.08838 0.02314 0.0
O355 O 0.49245 0.04919 0.02428 0.0
Mg356 Mg 0.45716 0.02973 0.99968 0.0
Mg357 Mg 0.51559 0.02636 0.01699 0.0
O358 O 0.53826 1.00344 0.00897 0.0
Mg359 Mg 0.52348 0.96437 0.00742 0.0
Mg360 Mg 0.57172 0.02016 0.0365 0.0
C361 C 0.55895 0.07474 0.05612 0.0
C362 C 0.56808 0.06613 0.98853 0.0
O363 O 0.43827 0.05742 0.01958 0.0
O364 O 0.47198 0.09525 0.03784 0.0
O365 O 0.46426 0.06382 0.96751 0.0
O366 O 0.4991 0.10146 0.98169 0.0
O367 O 0.54589 0.09263 0.0478 0.0
O368 O 0.54905 0.04856 0.0501 0.0
C369 C 0.46556 0.98534 0.04861 0.0
O370 O 0.49119 0.99263 0.04743 0.0
O371 O 0.44953 0.99623 0.03239 0.0
O372 O 0.59142 0.99067 0.01824 0.0
O373 O 0.5574 0.95488 0.9971 0.0
O374 O 0.55644 0.98659 0.06772 0.0
C375 C 0.58276 0.96813 1.00387 0.0
O376 O 0.52085 0.952 0.04771 0.0
O377 O 0.48631 0.96241 0.97819 0.0
C378 C 0.53716 0.96386 0.06873 0.0
O379 O 0.48147 1.00467 0.98351 0.0
O380 O 0.54208 0.06017 0.98814 0.0
O381 O 0.58267 0.05363 1.00488 0.0
C382 C 0.92219 0.57653 0.10468 0.0
C383 C 0.93686 0.58139 0.02279 0.0
C384 C 0.9371 0.46676 0.03534 0.0
Mg385 Mg 0.97386 0.58038 0.07971 0.0
O386 O 0.96316 0.54087 0.08041 0.0
Mg387 Mg 0.9245 0.5226 0.063 0.0
Mg388 Mg 0.98426 0.51635 0.06817 0.0
O389 O 1.00654 0.49234 0.05696 0.0
Mg390 Mg 0.99787 0.4533 0.05502 0.0
Mg391 Mg 0.04563 0.51258 0.0723 0.0
C392 C 0.03304 0.56588 0.0977 0.0
C393 C 0.02128 0.55368 0.02808 0.0
O394 O 0.91012 0.55358 0.09057 0.0
O395 O 0.94758 0.58916 0.10518 0.0
O396 O 0.92315 0.55634 0.02795 0.0
O397 O 0.95866 0.5942 0.03909 0.0
O398 O 0.01754 0.58213 0.09306 0.0
O399 O 0.02436 0.53904 0.0948 0.0
C400 C 0.94432 0.4769 0.10477 0.0
O401 O 0.9682 0.48448 0.09912 0.0
O402 O 0.92657 0.48973 0.09562 0.0
O403 O 0.06014 0.48517 0.04358 0.0
O404 O 0.02326 0.44981 0.02693 0.0
O405 O 0.05251 0.47822 0.1058 0.0
C406 C 0.04848 0.46343 0.02807 0.0
O407 O 0.0209 0.4379 0.09196 0.0
O408 O 0.95375 0.45156 0.03989 0.0
C409 C 0.04296 0.45138 0.10784 0.0
O410 O 0.94464 0.49332 0.04105 0.0
O411 O 0.99809 0.54658 0.03498 0.0
O412 O 0.04055 0.54378 0.0393 0.0
C413 C 0.4661 0.58249 0.045 0.0
C414 C 0.48719 0.58765 0.97237 0.0
C415 C 0.48646 0.4744 0.99399 0.0
Mg416 Mg 0.52204 0.58847 0.03016 0.0
O417 O 0.50937 0.5494 0.03368 0.0
Mg418 Mg 0.47263 0.52906 0.01227 0.0
Mg419 Mg 0.53205 0.52497 0.0282 0.0
O420 O 0.55491 0.50089 0.02268 0.0
Mg421 Mg 0.54255 0.46193 0.02549 0.0
Mg422 Mg 0.592 0.52128 0.04357 0.0
C423 C 0.57749 0.5755 0.06374 0.0
C424 C 0.58069 0.56364 0.99268 0.0
O425 O 0.45595 0.55893 0.03231 0.0
O426 O 0.49146 0.5963 0.04836 0.0
O427 O 0.47464 0.56215 0.97732 0.0
O428 O 0.50864 0.6014 0.98865 0.0
O429 O 0.5639 0.59278 0.05422 0.0
O430 O 0.56814 0.54895 0.05906 0.0
C431 C 0.48264 0.48622 0.06307 0.0
O432 O 0.50826 0.49252 0.06146 0.0
O433 O 0.46719 0.49773 0.04686 0.0
O434 O 0.60859 0.49198 0.02193 0.0
O435 O 0.57237 0.45534 1.00573 0.0
O436 O 0.59034 0.48769 0.07848 0.0
C437 C 0.59769 0.46898 0.00835 0.0
O438 O 0.55628 0.44864 0.06639 0.0
O439 O 0.50024 0.45726 1.00333 0.0
C440 C 0.57756 0.46211 0.08299 0.0
O441 O 0.49619 0.50104 0.99749 0.0
O442 O 0.55516 0.55674 0.99458 0.0
O443 O 0.59687 0.55304 0.00899 0.0
C444 C 0.98046 0.58096 0.55177 0.0
C445 C 0.02435 0.5807 0.48766 0.0
C446 C 1.00156 0.47009 0.50427 0.0
Mg447 Mg 0.03937 0.58247 0.54912 0.0
O448 O 0.02415 0.54354 0.54926 0.0
Mg449 Mg 0.99026 0.52638 0.52225 0.0
Mg450 Mg 0.04611 0.51946 0.54195 0.0
O451 O 0.06838 0.49547 0.53516 0.0
Mg452 Mg 0.05518 0.4564 0.53718 0.0
Mg453 Mg 0.10425 0.5148 0.55874 0.0
C454 C 0.0902 0.56668 0.58409 0.0
C455 C 0.09572 0.5576 0.5086 0.0
O456 O 0.97165 0.55784 0.53831 0.0
O457 O 1.00592 0.59368 0.55894 0.0
O458 O 1.00494 0.55828 0.48948 0.0
O459 O 0.04121 0.59284 0.50826 0.0
O460 O 0.07736 0.58497 0.57732 0.0
O461 O 0.08109 0.54174 0.57441 0.0
C462 C 0.99437 0.48269 0.5725 0.0
O463 O 0.01997 0.48722 0.57179 0.0
O464 O 0.97978 0.49513 0.55602 0.0
O465 O 0.12187 0.48579 0.53918 0.0
O466 O 0.08731 0.44831 0.52174 0.0
O467 O 0.09698 0.48204 0.59229 0.0
C468 C 0.11252 0.46265 0.52587 0.0
O469 O 0.06145 0.44471 0.57888 0.0
O470 O 1.01451 0.4522 0.5129 0.0
C471 C 0.08127 0.45798 0.59688 0.0
O472 O 1.01182 0.49639 0.50975 0.0
O473 O 0.07052 0.55194 0.511 0.0
O474 O 0.11166 0.54621 0.52428 0.0
C475 C 0.49469 0.07678 0.53662 0.0
C476 C 0.49654 0.08305 0.45451 0.0
C477 C 0.50208 0.96939 0.46839 0.0
Mg478 Mg 0.54302 0.08353 0.50638 0.0
O479 O 0.5336 0.04434 0.50738 0.0
Mg480 Mg 0.49393 0.02421 0.49477 0.0
Mg481 Mg 0.55373 0.01861 0.49511 0.0
O482 O 0.57247 0.99252 0.48161 0.0
Mg483 Mg 0.56053 0.95291 0.48357 0.0
Mg484 Mg 0.61195 0.01074 0.49656 0.0
C485 C 0.60298 0.06807 0.52432 0.0
C486 C 0.59092 0.05633 0.45549 0.0
O487 O 0.48217 0.05373 0.52326 0.0
O488 O 0.51934 0.09047 0.53502 0.0
O489 O 0.4859 0.0569 0.45951 0.0
O490 O 0.51974 0.09677 0.46845 0.0
O491 O 0.58701 0.08401 0.51985 0.0
O492 O 0.59459 0.04134 0.51966 0.0
C493 C 0.5212 0.98613 0.54039 0.0
O494 O 0.54254 0.99118 0.53033 0.0
O495 O 0.50126 0.99549 0.53009 0.0
O496 O 0.62348 0.97807 0.46868 0.0
O497 O 0.58548 0.94206 0.45735 0.0
O498 O 0.61459 0.97769 0.53181 0.0
C499 C 0.61062 0.95432 0.45614 0.0
O500 O 0.57784 0.94043 0.52416 0.0
O501 O 0.5163 0.9518 0.47183 0.0
C502 C 0.60093 0.95326 0.53861 0.0
O503 O 0.51254 0.99597 0.47172 0.0
O504 O 0.56751 0.04843 0.46216 0.0
O505 O 0.60905 0.04372 0.46378 0.0
H506 H 0.25275 0.23131 0.35322 0.0
H507 H 0.22576 0.20265 0.38451 0.0
H508 H 0.1544 0.18375 0.32174 0.0
H509 H 0.18101 0.21313 0.29103 0.0
H510 H 0.13557 0.18585 0.36224 0.0
H511 H 0.19644 0.13538 0.35022 0.0
H512 H 0.24058 0.12768 0.34999 0.0
H513 H 0.26578 0.14656 0.43408 0.0
H514 H 0.22189 0.15472 0.43473 0.0
H515 H 0.05606 0.07116 0.43423 0.0
H516 H 0.08129 0.10109 0.4023 0.0
H517 H 0.1533 0.1245 0.46413 0.0
H518 H 0.12866 0.094 0.49533 0.0
H519 H 0.17098 0.11928 0.42321 0.0
H520 H 0.10938 0.17422 0.43205 0.0
H521 H 0.0627 0.17568 0.43147 0.0
H522 H 0.03702 0.14097 0.3519 0.0
H523 H 0.08359 0.14035 0.35172 0.0
C524 C 0.23129 0.22118 0.34603 0.0
C525 C 0.2195 0.22489 0.31913 0.0
C526 C 0.21563 0.20428 0.36407 0.0
C527 C 0.18747 0.18983 0.35603 0.0
C528 C 0.17575 0.1941 0.32924 0.0
C529 C 0.19128 0.21111 0.31136 0.0
C530 C 0.17027 0.17047 0.375 0.0
C531 C 0.14358 0.17126 0.37531 0.0
C532 C 0.17964 0.15085 0.39274 0.0
C533 C 0.20601 0.14597 0.39245 0.0
C534 C 0.21147 0.13808 0.36862 0.0
C535 C 0.23643 0.13361 0.36842 0.0
C536 C 0.256 0.13671 0.39199 0.0
C537 C 0.25062 0.14422 0.41583 0.0
C538 C 0.2257 0.14876 0.41613 0.0
C539 C 0.07711 0.08303 0.44121 0.0
C540 C 0.08984 0.07983 0.4679 0.0
C541 C 0.09182 0.10052 0.42274 0.0
C542 C 0.1198 0.11613 0.43021 0.0
C543 C 0.13212 0.11313 0.45702 0.0
C544 C 0.11766 0.09552 0.4752 0.0
C545 C 0.1366 0.13503 0.41071 0.0
C546 C 0.16317 0.1341 0.41027 0.0
C547 C 0.12706 0.15423 0.39266 0.0
C548 C 0.09986 0.15731 0.39184 0.0
C549 C 0.09379 0.16738 0.41429 0.0
C550 C 0.06737 0.16812 0.41407 0.0
C551 C 0.04688 0.15869 0.39157 0.0
C552 C 0.05289 0.14882 0.36914 0.0
C553 C 0.07934 0.14846 0.36909 0.0
H554 H 0.02634 0.15885 0.3916 0.0
H555 H 0.27531 0.13324 0.3918 0.0
H556 H 0.8034 0.19403 0.32659 0.0
H557 H 0.83146 0.16659 0.35144 0.0
H558 H 0.9034 0.2361 0.34971 0.0
H559 H 0.87523 0.26329 0.32362 0.0
H560 H 0.91669 0.193 0.34373 0.0
H561 H 0.87109 0.21255 0.4084 0.0
H562 H 0.83232 0.21473 0.42762 0.0
H563 H 0.79996 0.12508 0.42313 0.0
H564 H 0.83826 0.12237 0.4034 0.0
H565 H 1.00019 0.13308 0.44786 0.0
H566 H 0.97509 0.16189 0.4198 0.0
H567 H 0.90268 0.09126 0.40794 0.0
H568 H 0.92766 0.06232 0.43555 0.0
H569 H 0.89092 0.13653 0.42225 0.0
H570 H 0.93809 0.11921 0.35609 0.0
H571 H 0.97524 0.11997 0.33299 0.0
H572 H 1.00631 0.20938 0.34232 0.0
H573 H 0.96957 0.20914 0.36575 0.0
C574 C 0.8252 0.20365 0.33147 0.0
C575 C 0.8368 0.23117 0.32295 0.0
C576 C 0.8414 0.18785 0.34607 0.0
C577 C 0.86993 0.19907 0.35341 0.0
C578 C 0.8816 0.22655 0.34468 0.0
C579 C 0.86537 0.24227 0.32969 0.0
C580 C 0.88742 0.182 0.36945 0.0
C581 C 0.91119 0.18115 0.36122 0.0
C582 C 0.88049 0.16576 0.3922 0.0
C583 C 0.85744 0.16728 0.40414 0.0
C584 C 0.8556 0.19331 0.41131 0.0
C585 C 0.83371 0.19464 0.42231 0.0
C586 C 0.81365 0.17007 0.42652 0.0
C587 C 0.81548 0.14411 0.4198 0.0
C588 C 0.83728 0.14266 0.40871 0.0
C589 C 0.97909 0.12338 0.4388 0.0
C590 C 0.96629 0.09498 0.44412 0.0
C591 C 0.9646 0.14005 0.42266 0.0
C592 C 0.93664 0.12912 0.4115 0.0
C593 C 0.92408 0.10059 0.41616 0.0
C594 C 0.93862 0.08382 0.4319 0.0
C595 C 0.92009 0.14747 0.39638 0.0
C596 C 0.89648 0.14857 0.40486 0.0
C597 C 0.92748 0.1644 0.37422 0.0
C598 C 0.95119 0.16412 0.36285 0.0
C599 C 0.95314 0.13896 0.35367 0.0
C600 C 0.97401 0.13933 0.34034 0.0
C601 C 0.99294 0.16475 0.33597 0.0
C602 C 0.99152 0.18975 0.34556 0.0
C603 C 0.97071 0.1895 0.3589 0.0
H604 H 1.00868 0.16511 0.32508 0.0
H605 H 0.79673 0.17115 0.43504 0.0
H606 H 0.80437 0.81371 0.32978 0.0
H607 H 0.83431 0.8518 0.35814 0.0
H608 H 0.84552 0.90412 0.28894 0.0
H609 H 0.81396 0.86514 0.25988 0.0
H610 H 0.89518 0.89978 0.327 0.0
H611 H 0.81538 0.9242 0.32513 0.0
H612 H 0.76747 0.9187 0.32637 0.0
H613 H 0.77959 0.89048 0.40761 0.0
H614 H 0.82731 0.89485 0.40665 0.0
H615 H 0.95092 0.99425 0.45496 0.0
H616 H 0.91554 0.97883 0.41503 0.0
H617 H 0.93187 0.89922 0.41766 0.0
H618 H 0.96718 0.91429 0.45749 0.0
H619 H 0.86861 0.93405 0.40384 0.0
H620 H 0.93296 0.88172 0.35536 0.0
H621 H 0.98128 0.88872 0.3546 0.0
H622 H 0.99978 0.97614 0.37254 0.0
H623 H 0.95151 0.96978 0.373 0.0
C624 C 0.81292 0.83299 0.32031 0.0
C625 C 0.80702 0.83603 0.29249 0.0
C626 C 0.82998 0.85506 0.33672 0.0
C627 C 0.84192 0.88084 0.3257 0.0
C628 C 0.83626 0.88433 0.29782 0.0
C629 C 0.81844 0.86212 0.28131 0.0
C630 C 0.8618 0.90273 0.3439 0.0
C631 C 0.88942 0.9078 0.34353 0.0
C632 C 0.85411 0.91341 0.36525 0.0
C633 C 0.82507 0.90985 0.36577 0.0
C634 C 0.80779 0.91647 0.34317 0.0
C635 C 0.78063 0.91357 0.34383 0.0
C636 C 0.77051 0.90431 0.36707 0.0
C637 C 0.78747 0.89772 0.38964 0.0
C638 C 0.81458 0.90036 0.38902 0.0
C639 C 0.94672 0.97328 0.44736 0.0
C640 C 0.9621 0.95559 0.45942 0.0
C641 C 0.92654 0.96457 0.42445 0.0
C642 C 0.92156 0.93817 0.41308 0.0
C643 C 0.93584 0.91994 0.42583 0.0
C644 C 0.95589 0.92854 0.44875 0.0
C645 C 0.9018 0.92947 0.38766 0.0
C646 C 0.87435 0.9268 0.38688 0.0
C647 C 0.9096 0.92111 0.36518 0.0
C648 C 0.93859 0.92523 0.36432 0.0
C649 C 0.94728 0.90249 0.35894 0.0
C650 C 0.97469 0.90633 0.35861 0.0
C651 C 0.99359 0.93284 0.36356 0.0
C652 C 0.98512 0.9556 0.36877 0.0
C653 C 0.95775 0.95188 0.36909 0.0
H654 H 1.0148 0.93576 0.36333 0.0
H655 H 0.74951 0.90222 0.36759 0.0
H656 H 0.26308 0.84669 0.43523 0.0
H657 H 0.23911 0.86329 0.46431 0.0
H658 H 0.25465 0.94287 0.42415 0.0
H659 H 0.27779 0.92647 0.39466 0.0
H660 H 0.24509 0.91735 0.49673 0.0
H661 H 0.1916 0.94101 0.39322 0.0
H662 H 0.18452 0.92574 0.34638 0.0
H663 H 0.18688 0.8435 0.37306 0.0
H664 H 0.19343 0.85816 0.41994 0.0
H665 H 0.15539 0.995 0.50932 0.0
H666 H 0.18999 0.97743 0.497 0.0
H667 H 0.12835 0.90108 0.46692 0.0
H668 H 0.09357 0.91862 0.47863 0.0
H669 H 0.16059 0.91942 0.43311 0.0
H670 H 0.17219 0.9025 0.52665 0.0
H671 H 0.17861 0.91396 0.5744 0.0
H672 H 0.25589 0.97395 0.5709 0.0
H673 H 0.24975 0.96317 0.523 0.0
C674 C 0.26197 0.86798 0.43305 0.0
C675 C 0.27168 0.88497 0.41212 0.0
C676 C 0.24867 0.87755 0.44997 0.0
C677 C 0.24493 0.90414 0.44606 0.0
C678 C 0.25744 0.92228 0.42741 0.0
C679 C 0.27066 0.91278 0.41051 0.0
C680 C 0.22295 0.91043 0.45612 0.0
C681 C 0.22656 0.91783 0.483 0.0
C682 C 0.19853 0.91009 0.43823 0.0
C683 C 0.19323 0.90076 0.41003 0.0
C684 C 0.19038 0.91962 0.38903 0.0
C685 C 0.1865 0.91108 0.36249 0.0
C686 C 0.18533 0.88369 0.35675 0.0
C687 C 0.18785 0.86472 0.37752 0.0
C688 C 0.19164 0.87314 0.40407 0.0
C689 C 0.14915 0.97452 0.49996 0.0
C690 C 0.12167 0.95825 0.49492 0.0
C691 C 0.169 0.96441 0.49317 0.0
C692 C 0.16179 0.93776 0.48146 0.0
C693 C 0.13437 0.92166 0.47604 0.0
C694 C 0.11449 0.93179 0.48269 0.0
C695 C 0.18267 0.92709 0.47383 0.0
C696 C 0.1789 0.91883 0.44716 0.0
C697 C 0.20644 0.92584 0.49223 0.0
C698 C 0.2104 0.93219 0.52114 0.0
C699 C 0.19047 0.91828 0.536 0.0
C700 C 0.19407 0.92464 0.56311 0.0
C701 C 0.21761 0.94472 0.57566 0.0
C702 C 0.23765 0.95842 0.56114 0.0
C703 C 0.23413 0.95217 0.53401 0.0
H704 H 0.22036 0.94962 0.59664 0.0
H705 H 0.18242 0.87716 0.3362 0.0
H706 H 0.19605 0.78297 0.71849 0.0
H707 H 0.16562 0.80805 0.69324 0.0
H708 H 0.23477 0.87854 0.68504 0.0
H709 H 0.26529 0.85365 0.71059 0.0
H710 H 0.19676 0.8977 0.69669 0.0
H711 H 0.19513 0.8309 0.63139 0.0
H712 H 0.1886 0.7837 0.61416 0.0
H713 H 0.10557 0.75834 0.62431 0.0
H714 H 0.1117 0.8053 0.6419 0.0
H715 H 0.12917 0.97403 0.60033 0.0
H716 H 0.15744 0.94794 0.62654 0.0
H717 H 0.08753 0.87489 0.62244 0.0
H718 H 0.05933 0.90067 0.59405 0.0
H719 H 0.12516 0.85622 0.61835 0.0
H720 H 0.12565 0.92204 0.68357 0.0
H721 H 0.13149 0.96864 0.7018 0.0
H722 H 0.21521 0.99507 0.69391 0.0
H723 H 0.2098 0.94872 0.67536 0.0
C724 C 0.20494 0.8037 0.71113 0.0
C725 C 0.23345 0.81594 0.71664 0.0
C726 C 0.18735 0.81814 0.69649 0.0
C727 C 0.19752 0.84541 0.68666 0.0
C728 C 0.22601 0.85765 0.69215 0.0
C729 C 0.24361 0.84319 0.70675 0.0
C730 C 0.17868 0.86132 0.67121 0.0
C731 C 0.18134 0.88865 0.67937 0.0
C732 C 0.15771 0.84967 0.64894 0.0
C733 C 0.15395 0.82152 0.6382 0.0
C734 C 0.17553 0.8152 0.63011 0.0
C735 C 0.17189 0.7885 0.62025 0.0
C736 C 0.14671 0.76802 0.61821 0.0
C737 C 0.12508 0.77422 0.62594 0.0
C738 C 0.12861 0.80088 0.63582 0.0
C739 C 0.11944 0.95258 0.60539 0.0
C740 C 0.09148 0.9399 0.59521 0.0
C741 C 0.13588 0.93748 0.62073 0.0
C742 C 0.12502 0.90921 0.6276 0.0
C743 C 0.09691 0.89658 0.61786 0.0
C744 C 0.08052 0.91153 0.60177 0.0
C745 C 0.14311 0.89276 0.64381 0.0
C746 C 0.1404 0.86532 0.63577 0.0
C747 C 0.16386 0.90421 0.66642 0.0
C748 C 0.16725 0.93197 0.67788 0.0
C749 C 0.14527 0.93783 0.68562 0.0
C750 C 0.14851 0.9642 0.69601 0.0
C751 C 0.17369 0.98482 0.69895 0.0
C752 C 0.19572 0.97908 0.6916 0.0
C753 C 0.19259 0.95275 0.68119 0.0
H754 H 0.17614 1.00523 0.70696 0.0
H755 H 0.14394 0.74736 0.61059 0.0
H756 H 0.21607 0.17007 0.78376 0.0
H757 H 0.19288 0.13438 0.74831 0.0
H758 H 0.20785 0.1982 0.68832 0.0
H759 H 0.23062 0.23353 0.72307 0.0
H760 H 0.14884 0.16188 0.6938 0.0
H761 H 0.24166 0.16235 0.6875 0.0
H762 H 0.28535 0.15351 0.70645 0.0
H763 H 0.24341 0.0678 0.72089 0.0
H764 H 0.19937 0.07617 0.70221 0.0
H765 H 0.10007 0.12209 0.56414 0.0
H766 H 0.13528 0.14226 0.60283 0.0
H767 H 0.12975 0.05955 0.63475 0.0
H768 H 0.09514 0.03909 0.59563 0.0
H769 H 0.18173 0.09617 0.64974 0.0
H770 H 0.09055 0.09191 0.65252 0.0
H771 H 0.04531 0.09796 0.6353 0.0
H772 H 0.08137 0.18699 0.63187 0.0
H773 H 0.12689 0.18143 0.64865 0.0
C774 C 0.21467 0.17625 0.76296 0.0
C775 C 0.22503 0.20446 0.75606 0.0
C776 C 0.20169 0.15593 0.74287 0.0
C777 C 0.19904 0.16383 0.71589 0.0
C778 C 0.21007 0.1918 0.7091 0.0
C779 C 0.223 0.21193 0.72898 0.0
C780 C 0.18163 0.14433 0.69451 0.0
C781 C 0.15595 0.14746 0.68416 0.0
C782 C 0.19073 0.12492 0.68274 0.0
C783 C 0.21721 0.12 0.69386 0.0
C784 C 0.24172 0.14171 0.69501 0.0
C785 C 0.26656 0.13677 0.70563 0.0
C786 C 0.26718 0.11019 0.71505 0.0
C787 C 0.24292 0.08842 0.7137 0.0
C788 C 0.21802 0.09323 0.70306 0.0
C789 C 0.10689 0.10816 0.579 0.0
C790 C 0.09442 0.07911 0.57723 0.0
C791 C 0.12701 0.11968 0.60106 0.0
C792 C 0.13443 0.10237 0.62193 0.0
C793 C 0.12409 0.07321 0.61892 0.0
C794 C 0.10426 0.06161 0.59659 0.0
C795 C 0.14952 0.11496 0.64816 0.0
C796 C 0.17444 0.11028 0.65958 0.0
C797 C 0.13956 0.1327 0.66135 0.0
C798 C 0.11215 0.13623 0.65168 0.0
C799 C 0.08885 0.11277 0.64796 0.0
C800 C 0.06315 0.11611 0.63828 0.0
C801 C 0.06047 0.14284 0.63246 0.0
C802 C 0.08348 0.1663 0.63637 0.0
C803 C 0.10923 0.16307 0.646 0.0
H804 H 0.04056 0.14538 0.62495 0.0
H805 H 0.28645 0.10645 0.72329 0.0
H806 H 0.83799 0.12171 0.71809 0.0
H807 H 0.84813 0.0985 0.68217 0.0
H808 H 0.88956 0.17908 0.65276 0.0
H809 H 0.87918 0.20236 0.68843 0.0
H810 H 0.859 0.14564 0.61224 0.0
H811 H 0.92452 0.13831 0.69106 0.0
H812 H 0.94002 0.12556 0.73762 0.0
H813 H 0.89701 0.03897 0.71936 0.0
H814 H 0.88093 0.05128 0.67275 0.0
H815 H 0.95839 0.11911 0.55098 0.0
H816 H 0.93146 0.13326 0.57832 0.0
H817 H 0.88532 0.04681 0.58556 0.0
H818 H 0.912 0.03244 0.55767 0.0
H819 H 0.91097 0.07687 0.63496 0.0
H820 H 0.85218 0.08574 0.55282 0.0
H821 H 0.84028 0.10065 0.50627 0.0
H822 H 0.87459 0.18692 0.53074 0.0
H823 H 0.88709 0.17254 0.57739 0.0
C824 C 0.8494 0.13443 0.70403 0.0
C825 C 0.858 0.16381 0.70612 0.0
C826 C 0.85509 0.12117 0.6835 0.0
C827 C 0.86981 0.13706 0.66495 0.0
C828 C 0.87807 0.16642 0.6668 0.0
C829 C 0.8722 0.17969 0.68719 0.0
C830 C 0.87734 0.12321 0.64404 0.0
C831 C 0.87047 0.1307 0.6172 0.0
C832 C 0.89171 0.10318 0.65048 0.0
C833 C 0.90122 0.09576 0.67853 0.0
C834 C 0.91815 0.11658 0.69705 0.0
C835 C 0.92709 0.10943 0.72343 0.0
C836 C 0.91943 0.08148 0.73147 0.0
C837 C 0.90287 0.06062 0.71312 0.0
C838 C 0.89384 0.06767 0.68672 0.0
C839 C 0.94221 0.10314 0.55802 0.0
C840 C 0.93734 0.07468 0.55237 0.0
C841 C 0.92675 0.11127 0.57348 0.0
C842 C 0.90639 0.09107 0.5838 0.0
C843 C 0.90089 0.06267 0.57758 0.0
C844 C 0.91605 0.05453 0.56165 0.0
C845 C 0.89308 0.0997 0.6033 0.0
C846 C 0.89897 0.09133 0.62994 0.0
C847 C 0.87822 0.11923 0.59669 0.0
C848 C 0.87075 0.12802 0.56862 0.0
C849 C 0.85741 0.10789 0.54826 0.0
C850 C 0.85051 0.11625 0.52185 0.0
C851 C 0.85671 0.14472 0.51554 0.0
C852 C 0.8698 0.16488 0.53565 0.0
C853 C 0.87676 0.15663 0.5621 0.0
H854 H 0.85135 0.15115 0.49508 0.0
H855 H 0.92638 0.07598 0.7519 0.0
H856 H 0.87692 0.83215 0.76023 0.0
H857 H 0.90427 0.85885 0.72865 0.0
H858 H 0.83413 0.83572 0.66474 0.0
H859 H 0.80688 0.80818 0.69641 0.0
H860 H 0.87377 0.83686 0.64282 0.0
H861 H 0.86667 0.90688 0.69892 0.0
H862 H 0.87067 0.93086 0.74121 0.0
H863 H 0.95671 0.94242 0.75908 0.0
H864 H 0.95316 0.91821 0.71703 0.0
H865 H 0.92494 0.94238 0.55001 0.0
H866 H 0.90156 0.91304 0.5827 0.0
H867 H 0.97689 0.9309 0.64005 0.0
H868 H 1.00077 0.96074 0.60682 0.0
H869 H 0.93657 0.93209 0.66594 0.0
H870 H 0.94341 0.86376 0.60824 0.0
H871 H 0.93885 0.84005 0.56567 0.0
H872 H 0.85243 0.82576 0.55037 0.0
H873 H 0.8565 0.84972 0.5927 0.0
C874 C 0.86713 0.83258 0.73945 0.0
C875 C 0.83923 0.81766 0.73141 0.0
C876 C 0.88297 0.84837 0.72111 0.0
C877 C 0.87179 0.85058 0.69363 0.0
C878 C 0.84397 0.8351 0.68547 0.0
C879 C 0.82811 0.81913 0.70385 0.0
C880 C 0.88889 0.8685 0.67369 0.0
C881 C 0.88711 0.85782 0.64803 0.0
C882 C 0.9074 0.89598 0.67969 0.0
C883 C 0.9096 0.91047 0.70498 0.0
C884 C 0.88641 0.91437 0.71197 0.0
C885 C 0.8886 0.92802 0.73588 0.0
C886 C 0.91392 0.93808 0.75286 0.0
C887 C 0.93711 0.93457 0.74593 0.0
C888 C 0.93502 0.9209 0.72205 0.0
C889 C 0.93696 0.94006 0.56942 0.0
C890 C 0.96528 0.95435 0.57505 0.0
C891 C 0.92327 0.92285 0.58841 0.0
C892 C 0.9369 0.91884 0.61448 0.0
C893 C 0.96529 0.93306 0.62037 0.0
C894 C 0.97921 0.95017 0.60106 0.0
C895 C 0.92125 0.90046 0.63512 0.0
C896 C 0.92325 0.91108 0.66083 0.0
C897 C 0.90282 0.87299 0.62911 0.0
C898 C 0.90031 0.85882 0.60352 0.0
C899 C 0.92346 0.8558 0.59568 0.0
C900 C 0.92096 0.84228 0.57161 0.0
C901 C 0.89538 0.83152 0.55527 0.0
C902 C 0.87224 0.83418 0.56301 0.0
C903 C 0.87463 0.84771 0.58706 0.0
H904 H 0.89348 0.82101 0.53667 0.0
H905 H 0.91557 0.94866 0.77136 0.0
H906 H 0.26839 0.1319 0.14337 0.0
H907 H 0.29211 0.11339 0.11581 0.0
H908 H 0.3422 0.19718 0.10381 0.0
H909 H 0.31764 0.21608 0.13037 0.0
H910 H 0.33021 0.16517 0.0592 0.0
H911 H 0.36441 0.15799 0.15303 0.0
H912 H 0.36161 0.14462 0.19983 0.0
H913 H 0.33012 0.05781 0.17671 0.0
H914 H 0.33234 0.07071 0.12967 0.0
H915 H 0.45361 0.13327 0.05045 0.0
H916 H 0.41994 0.1505 0.06527 0.0
H917 H 0.36168 0.0684 0.05269 0.0
H918 H 0.39487 0.05103 0.03708 0.0
H919 H 0.37573 0.09794 0.10722 0.0
H920 H 0.34411 0.10661 0.0127 0.0
H921 H 0.34712 0.12173 0.96633 0.0
H922 H 0.3769 0.20778 0.99197 0.0
H923 H 0.37429 0.19316 0.03858 0.0
C924 C 0.28389 0.1465 0.13424 0.0
C925 C 0.29137 0.17545 0.1393 0.0
C926 C 0.29758 0.13585 0.1187 0.0
C927 C 0.31924 0.1539 0.1083 0.0
C928 C 0.32565 0.18292 0.11186 0.0
C929 C 0.3118 0.19364 0.12725 0.0
C930 C 0.33663 0.14235 0.09575 0.0
C931 C 0.34034 0.15064 0.06973 0.0
C932 C 0.34958 0.12317 0.1095 0.0
C933 C 0.34824 0.11534 0.13778 0.0
C934 C 0.35666 0.13607 0.15789 0.0
C935 C 0.35522 0.12857 0.18446 0.0
C936 C 0.34562 0.10039 0.19122 0.0
C937 C 0.3375 0.07963 0.17143 0.0
C938 C 0.33885 0.08702 0.14481 0.0
C939 C 0.43363 0.11886 0.05079 0.0
C940 C 0.42689 0.09078 0.04263 0.0
C941 C 0.4144 0.12882 0.059 0.0
C942 C 0.38841 0.11072 0.05968 0.0
C943 C 0.38164 0.08265 0.05191 0.0
C944 C 0.40064 0.0728 0.04314 0.0
C945 C 0.36913 0.12064 0.0707 0.0
C946 C 0.36533 0.11223 0.09659 0.0
C947 C 0.35648 0.13995 0.05696 0.0
C948 C 0.35922 0.14876 0.02918 0.0
C949 C 0.35162 0.12874 0.00852 0.0
C950 C 0.35305 0.13723 0.98216 0.0
C951 C 0.36205 0.1657 0.97619 0.0
C952 C 0.3698 0.18574 0.9966 0.0
C953 C 0.36833 0.17736 0.02299 0.0
H954 H 0.36314 0.17222 0.95577 0.0
H955 H 0.34453 0.09462 0.21181 0.0
H956 H 0.77979 0.3797 0.12075 0.0
H957 H 0.79247 0.38307 0.0776 0.0
H958 H 0.77637 0.29351 0.0753 0.0
H959 H 0.76436 0.29005 0.11899 0.0
H960 H 0.8257 0.31345 0.09851 0.0
H961 H 0.78422 0.33514 0.01678 0.0
H962 H 0.75421 0.35196 0.98063 0.0
H963 H 0.80022 0.4371 1.00155 0.0
H964 H 0.82973 0.4212 0.03861 0.0
H965 H 0.95853 0.43217 0.09177 0.0
H966 H 0.92453 0.38727 0.07878 0.0
H967 H 0.8698 0.40914 0.12024 0.0
H968 H 0.90304 0.45487 0.1319 0.0
H969 H 0.86341 0.40086 0.05149 0.0
H970 H 0.84803 0.33334 0.14486 0.0
H971 H 0.87573 0.31827 0.1844 0.0
H972 H 0.93869 0.32517 0.14005 0.0
H973 H 0.91113 0.33993 0.10014 0.0
C974 C 0.77745 0.3605 0.1104 0.0
C975 C 0.7736 0.33501 0.12416 0.0
C976 C 0.78438 0.36228 0.08525 0.0
C977 C 0.78848 0.33875 0.07478 0.0
C978 C 0.77524 0.31226 0.08406 0.0
C979 C 0.7686 0.31034 0.10942 0.0
C980 C 0.81602 0.34328 0.06867 0.0
C981 C 0.8338 0.33205 0.08734 0.0
C982 C 0.82727 0.36644 0.05309 0.0
C983 C 0.8096 0.37674 0.03062 0.0
C984 C 0.78793 0.35749 0.01393 0.0
C985 C 0.77088 0.3669 0.99325 0.0
C986 C 0.77542 0.39554 0.98869 0.0
C987 C 0.79685 0.41488 1.00499 0.0
C988 C 0.81378 0.40564 0.02591 0.0
C989 C 0.93984 0.42693 0.09938 0.0
C990 C 0.93306 0.44741 0.11215 0.0
C991 C 0.92033 0.40127 0.09165 0.0
C992 C 0.89456 0.39534 0.09804 0.0
C993 C 0.8896 0.41365 0.11491 0.0
C994 C 0.90875 0.43961 0.12193 0.0
C995 C 0.87115 0.37329 0.0837 0.0
C996 C 0.85497 0.38133 0.06109 0.0
C997 C 0.8611 0.34741 0.0958 0.0
C998 C 0.8776 0.338 0.11957 0.0
C999 C 0.86773 0.33156 0.14352 0.0
C1000 C 0.88341 0.32307 0.16601 0.0
C1001 C 0.909 0.32083 0.16477 0.0
C1002 C 0.91891 0.32702 0.14102 0.0
C1003 C 0.90329 0.33553 0.11847 0.0
H1004 H 0.92113 0.31426 0.1822 0.0
H1005 H 0.76232 0.40274 0.97254 0.0
H1006 H 0.61009 0.80551 0.16392 0.0
H1007 H 0.58007 0.83508 0.15793 0.0
H1008 H 0.59552 0.84804 0.24324 0.0
H1009 H 0.62559 0.81806 0.24957 0.0
H1010 H 0.53272 0.83889 0.19275 0.0
H1011 H 0.62103 0.90011 0.24045 0.0
H1012 H 0.67109 0.912 0.25214 0.0
H1013 H 0.67518 0.91764 0.1687 0.0
H1014 H 0.62509 0.90542 0.1566 0.0
H1015 H 0.55688 0.98708 0.11889 0.0
H1016 H 0.55994 0.96195 0.1613 0.0
H1017 H 0.5163 0.88395 0.11899 0.0
H1018 H 0.51175 0.90905 0.07729 0.0
H1019 H 0.58991 0.93249 0.17055 0.0
H1020 H 0.49663 0.83013 0.15143 0.0
H1021 H 0.44657 0.81603 0.14433 0.0
H1022 H 0.45021 0.89456 0.17696 0.0
H1023 H 0.50015 0.90948 0.18379 0.0
C1024 C 0.60643 0.81381 0.1815 0.0
C1025 C 0.62043 0.80978 0.20717 0.0
C1026 C 0.58928 0.83069 0.17805 0.0
C1027 C 0.58583 0.84371 0.20016 0.0
C1028 C 0.59807 0.83811 0.22601 0.0
C1029 C 0.61535 0.82122 0.22951 0.0
C1030 C 0.57325 0.86649 0.19509 0.0
C1031 C 0.54492 0.8597 0.18837 0.0
C1032 C 0.58937 0.89376 0.19054 0.0
C1033 C 0.61943 0.90175 0.19767 0.0
C1034 C 0.63265 0.90379 0.22464 0.0
C1035 C 0.66099 0.91058 0.23133 0.0
C1036 C 0.6763 0.91553 0.21117 0.0
C1037 C 0.6633 0.91379 0.18429 0.0
C1038 C 0.63495 0.90696 0.17751 0.0
C1039 C 0.54725 0.96465 0.11887 0.0
C1040 C 0.53476 0.94989 0.09473 0.0
C1041 C 0.54882 0.95031 0.14314 0.0
C1042 C 0.53856 0.92091 0.14357 0.0
C1043 C 0.52394 0.90659 0.11965 0.0
C1044 C 0.52176 0.92099 0.09554 0.0
C1045 C 0.54873 0.90484 0.16656 0.0
C1046 C 0.577 0.91262 0.17623 0.0
C1047 C 0.53232 0.8788 0.17447 0.0
C1048 C 0.50219 0.8709 0.16819 0.0
C1049 C 0.48674 0.84449 0.15695 0.0
C1050 C 0.45836 0.83642 0.15284 0.0
C1051 C 0.44521 0.85446 0.16013 0.0
C1052 C 0.46037 0.8808 0.17102 0.0
C1053 C 0.48873 0.88915 0.17487 0.0
H1054 H 0.42331 0.8479 0.1576 0.0
H1055 H 0.69824 0.92076 0.21638 0.0
H1056 H 0.18878 0.74239 0.25566 0.0
H1057 H 0.15772 0.70271 0.22802 0.0
H1058 H 0.21658 0.71169 0.17769 0.0
H1059 H 0.24736 0.75182 0.20485 0.0
H1060 H 0.13589 0.70208 0.175 0.0
H1061 H 0.21167 0.63982 0.16195 0.0
H1062 H 0.24852 0.6233 0.18869 0.0
H1063 H 0.22679 0.64105 0.26114 0.0
H1064 H 0.18936 0.65695 0.23489 0.0
H1065 H 0.06388 0.61049 0.07491 0.0
H1066 H 0.10725 0.64207 0.09728 0.0
H1067 H 0.10961 0.58416 0.16295 0.0
H1068 H 0.06678 0.55194 0.13995 0.0
H1069 H 0.16008 0.61649 0.15946 0.0
H1070 H 0.07384 0.62784 0.16303 0.0
H1071 H 0.02824 0.6321 0.14395 0.0
H1072 H 0.06406 0.7076 0.10385 0.0
H1073 H 0.10989 0.70349 0.12235 0.0
C1074 C 0.19484 0.7361 0.23846 0.0
C1075 C 0.22038 0.74981 0.23232 0.0
C1076 C 0.1773 0.71335 0.22293 0.0
C1077 C 0.18525 0.70405 0.20128 0.0
C1078 C 0.21045 0.71826 0.19472 0.0
C1079 C 0.22783 0.74117 0.21004 0.0
C1080 C 0.16646 0.68061 0.18444 0.0
C1081 C 0.14129 0.68346 0.17151 0.0
C1082 C 0.17335 0.65607 0.1805 0.0
C1083 C 0.19786 0.64993 0.19639 0.0
C1084 C 0.21487 0.64041 0.18359 0.0
C1085 C 0.23569 0.63088 0.19867 0.0
C1086 C 0.23982 0.63089 0.22659 0.0
C1087 C 0.22347 0.64093 0.23951 0.0
C1088 C 0.20251 0.65033 0.22452 0.0
C1089 C 0.07439 0.60403 0.09354 0.0
C1090 C 0.06207 0.57937 0.10623 0.0
C1091 C 0.09906 0.62198 0.10625 0.0
C1092 C 0.11095 0.61575 0.13208 0.0
C1093 C 0.10051 0.58935 0.14309 0.0
C1094 C 0.07608 0.57104 0.13004 0.0
C1095 C 0.13013 0.6385 0.14953 0.0
C1096 C 0.15517 0.63549 0.1626 0.0
C1097 C 0.12271 0.66237 0.15466 0.0
C1098 C 0.09524 0.66519 0.14382 0.0
C1099 C 0.07197 0.64525 0.15001 0.0
C1100 C 0.04609 0.64764 0.1393 0.0
C1101 C 0.04325 0.67007 0.12264 0.0
C1102 C 0.06629 0.6902 0.11672 0.0
C1103 C 0.09222 0.68786 0.1273 0.0
H1104 H 0.0232 0.67189 0.11438 0.0
H1105 H 0.25585 0.62334 0.23824 0.0
H1106 H 0.29597 0.82183 0.86063 0.0
H1107 H 0.31882 0.86909 0.87882 0.0
H1108 H 0.3187 0.90181 0.79871 0.0
H1109 H 0.29654 0.85458 0.78056 0.0
H1110 H 0.36655 0.9187 0.82534 0.0
H1111 H 0.28539 0.92591 0.84011 0.0
H1112 H 0.23984 0.913 0.8514 0.0
H1113 H 0.27408 0.90139 0.93347 0.0
H1114 H 0.31979 0.91374 0.92266 0.0
H1115 H 0.43838 0.01203 0.9538 0.0
H1116 H 0.39988 1.00116 0.91595 0.0
H1117 H 0.41524 0.92336 0.90331 0.0
H1118 H 0.45333 0.93382 0.94081 0.0
H1119 H 0.35311 0.95449 0.90874 0.0
H1120 H 0.41283 0.91463 0.84107 0.0
H1121 H 0.45777 0.93154 0.82835 0.0
H1122 H 0.46344 0.01605 0.84682 0.0
H1123 H 0.41851 0.99973 0.8596 0.0
C1124 C 0.30045 0.8392 0.84698 0.0
C1125 C 0.29484 0.83461 0.81932 0.0
C1126 C 0.31316 0.86625 0.8573 0.0
C1127 C 0.32011 0.88909 0.84007 0.0
C1128 C 0.31338 0.88458 0.81234 0.0
C1129 C 0.30087 0.85755 0.80205 0.0
C1130 C 0.33825 0.91638 0.85134 0.0
C1131 C 0.36334 0.92704 0.84317 0.0
C1132 C 0.33358 0.92849 0.87365 0.0
C1133 C 0.30613 0.92084 0.88053 0.0
C1134 C 0.28322 0.92045 0.86055 0.0
C1135 C 0.25735 0.91324 0.86687 0.0
C1136 C 0.25407 0.90641 0.89314 0.0
C1137 C 0.27666 0.90676 0.91314 0.0
C1138 C 0.30259 0.91395 0.90693 0.0
C1139 C 0.43352 0.9926 0.94304 0.0
C1140 C 0.44896 0.97379 0.95043 0.0
C1141 C 0.41162 0.98654 0.92135 0.0
C1142 C 0.40523 0.96183 0.90659 0.0
C1143 C 0.42034 0.94291 0.91414 0.0
C1144 C 0.44195 0.9488 0.9358 0.0
C1145 C 0.38179 0.95397 0.88424 0.0
C1146 C 0.35571 0.94713 0.89014 0.0
C1147 C 0.38524 0.9461 0.85934 0.0
C1148 C 0.41215 0.95593 0.8512 0.0
C1149 C 0.4235 0.93686 0.84221 0.0
C1150 C 0.44906 0.94633 0.8351 0.0
C1151 C 0.4634 0.97485 0.83669 0.0
C1152 C 0.4523 0.99396 0.84556 0.0
C1153 C 0.42683 0.9846 0.85283 0.0
H1154 H 0.48314 0.98212 0.8311 0.0
H1155 H 0.23402 0.90082 0.898 0.0
H1156 H 0.14009 0.3152 0.88731 0.0
H1157 H 0.11712 0.33912 0.91137 0.0
H1158 H 0.19215 0.40509 0.93446 0.0
H1159 H 0.21514 0.38147 0.90998 0.0
H1160 H 0.16315 0.38558 0.97804 0.0
H1161 H 0.14573 0.41843 0.88776 0.0
H1162 H 0.13008 0.41276 0.83889 0.0
H1163 H 0.04973 0.36664 0.84999 0.0
H1164 H 0.06504 0.37162 0.89898 0.0
H1165 H 0.1044 0.47938 0.02995 0.0
H1166 H 0.12995 0.45876 1.00574 0.0
H1167 H 0.0549 0.40104 0.96593 0.0
H1168 H 0.0294 0.42158 0.98976 0.0
H1169 H 0.08545 0.41746 0.93076 0.0
H1170 H 0.10041 0.3816 0.01887 0.0
H1171 H 0.11429 0.38149 0.06803 0.0
H1172 H 0.19625 0.42753 0.06218 0.0
H1173 H 0.1828 0.42827 0.01297 0.0
C1174 C 0.15178 0.33482 0.89744 0.0
C1175 C 0.1796 0.3463 0.89642 0.0
C1176 C 0.13853 0.3486 0.91125 0.0
C1177 C 0.1527 0.37412 0.92495 0.0
C1178 C 0.18056 0.3855 0.92422 0.0
C1179 C 0.1937 0.37201 0.90995 0.0
C1180 C 0.13838 0.38894 0.93968 0.0
C1181 C 0.14647 0.39299 0.96761 0.0
C1182 C 0.11592 0.39793 0.9265 0.0
C1183 C 0.1066 0.39517 0.89705 0.0
C1184 C 0.12478 0.40688 0.87979 0.0
C1185 C 0.11596 0.40382 0.85207 0.0
C1186 C 0.08894 0.38929 0.84135 0.0
C1187 C 0.07067 0.37786 0.85833 0.0
C1188 C 0.0794 0.3808 0.88608 0.0
C1189 C 0.09325 0.46243 0.01591 0.0
C1190 C 0.0646 0.45237 0.01204 0.0
C1191 C 0.108 0.45038 1.00214 0.0
C1192 C 0.09465 0.42784 0.98396 0.0
C1193 C 0.06603 0.41826 0.97968 0.0
C1194 C 0.05134 0.43014 0.9935 0.0
C1195 C 0.11016 0.41424 0.96932 0.0
C1196 C 0.10226 0.41032 0.94133 0.0
C1197 C 0.13248 0.40491 0.98257 0.0
C1198 C 0.1405 0.40533 0.01221 0.0
C1199 C 0.12132 0.39203 0.02806 0.0
C1200 C 0.12913 0.39176 0.05594 0.0
C1201 C 0.15611 0.40456 0.06822 0.0
C1202 C 0.17534 0.41768 0.05264 0.0
C1203 C 0.16763 0.41803 0.02475 0.0
H1204 H 0.16214 0.40422 0.08979 0.0
H1205 H 0.08216 0.38695 0.81988 0.0
H1206 H 0.69156 0.2321 0.8087 0.0
H1207 H 0.65954 0.20468 0.83587 0.0
H1208 H 0.72348 0.17573 0.88387 0.0
H1209 H 0.75465 0.20112 0.85498 0.0
H1210 H 0.68465 0.13623 0.88477 0.0
H1211 H 0.69081 0.23083 0.90164 0.0
H1212 H 0.68926 0.279 0.89089 0.0
H1213 H 0.60476 0.24764 0.85456 0.0
H1214 H 0.60589 0.19917 0.86462 0.0
H1215 H 0.62242 0.0939 0.99665 0.0
H1216 H 0.64908 0.12399 0.96673 0.0
H1217 H 0.57601 0.11811 0.90822 0.0
H1218 H 0.54866 0.0877 0.93871 0.0
H1219 H 0.61671 0.17407 0.91169 0.0
H1220 H 0.61455 0.0772 0.9045 0.0
H1221 H 0.62014 0.03413 0.92735 0.0
H1222 H 0.70502 0.07551 0.9555 0.0
H1223 H 0.69961 0.11942 0.93423 0.0
C1224 C 0.69883 0.21988 0.82505 0.0
C1225 C 0.72597 0.21911 0.82945 0.0
C1226 C 0.6804 0.20425 0.84104 0.0
C1227 C 0.68859 0.18816 0.86304 0.0
C1228 C 0.71588 0.18754 0.86735 0.0
C1229 C 0.73401 0.20236 0.85074 0.0
C1230 C 0.66904 0.1718 0.88117 0.0
C1231 C 0.67013 0.14499 0.89066 0.0
C1232 C 0.64938 0.18223 0.88946 0.0
C1233 C 0.64852 0.21134 0.88361 0.0
C1234 C 0.67193 0.23419 0.89122 0.0
C1235 C 0.67113 0.26155 0.88526 0.0
C1236 C 0.64696 0.26639 0.87202 0.0
C1237 C 0.62349 0.24386 0.86477 0.0
C1238 C 0.62419 0.21642 0.87058 0.0
C1239 C 0.61167 0.09899 0.97753 0.0
C1240 C 0.58305 0.08768 0.97029 0.0
C1241 C 0.62719 0.11646 0.96028 0.0
C1242 C 0.615 0.12329 0.93467 0.0
C1243 C 0.58625 0.11329 0.9277 0.0
C1244 C 0.5705 0.09576 0.94523 0.0
C1245 C 0.63269 0.13903 0.91503 0.0
C1246 C 0.63121 0.16555 0.90541 0.0
C1247 C 0.65277 0.12888 0.90753 0.0
C1248 C 0.6566 0.10174 0.91792 0.0
C1249 C 0.63441 0.07719 0.91563 0.0
C1250 C 0.63749 0.05269 0.92853 0.0
C1251 C 0.66291 0.05209 0.94292 0.0
C1252 C 0.68532 0.07602 0.94441 0.0
C1253 C 0.68222 0.1008 0.93206 0.0
H1254 H 0.66525 0.03304 0.9528 0.0
H1255 H 0.64641 0.28761 0.86742 0.0
H1256 H 0.82355 0.75027 0.86928 0.0
H1257 H 0.84494 0.72264 0.90281 0.0
H1258 H 0.85821 0.67734 0.83995 0.0
H1259 H 0.83689 0.70506 0.80632 0.0
H1260 H 0.83315 0.66995 0.9162 0.0
H1261 H 0.91472 0.65251 0.86344 0.0
H1262 H 0.94346 0.67606 0.8313 0.0
H1263 H 0.93776 0.75567 0.85243 0.0
H1264 H 0.90941 0.73267 0.88505 0.0
H1265 H 0.88693 0.56499 0.98786 0.0
H1266 H 0.8672 0.59206 0.9524 0.0
H1267 H 0.9409 0.66103 0.96808 0.0
H1268 H 0.96077 0.634 1.00349 0.0
H1269 H 0.9232 0.65762 0.91607 0.0
H1270 H 0.88034 0.65868 0.99024 0.0
H1271 H 0.85377 0.63905 0.02516 0.0
H1272 H 0.78498 0.59815 0.96491 0.0
H1273 H 0.81134 0.61705 0.92967 0.0
C1274 C 0.83122 0.73463 0.86246 0.0
C1275 C 0.82853 0.73035 0.83477 0.0
C1276 C 0.84341 0.71856 0.88183 0.0
C1277 C 0.85372 0.6977 0.87441 0.0
C1278 C 0.85105 0.69341 0.8467 0.0
C1279 C 0.83869 0.70938 0.8273 0.0
C1280 C 0.8667 0.68038 0.89555 0.0
C1281 C 0.85279 0.66721 0.91591 0.0
C1282 C 0.89262 0.67669 0.89601 0.0
C1283 C 0.90958 0.69078 0.8764 0.0
C1284 C 0.91961 0.67504 0.86124 0.0
C1285 C 0.93586 0.6883 0.84296 0.0
C1286 C 0.94231 0.71733 0.83972 0.0
C1287 C 0.93263 0.73317 0.85485 0.0
C1288 C 0.91644 0.72002 0.87323 0.0
C1289 C 0.89917 0.58581 0.9837 0.0
C1290 C 0.92567 0.59702 0.99895 0.0
C1291 C 0.88765 0.60153 0.96337 0.0
C1292 C 0.90212 0.62914 0.9574 0.0
C1293 C 0.92894 0.63999 0.97198 0.0
C1294 C 0.9404 0.62435 0.99242 0.0
C1295 C 0.8894 0.64675 0.93637 0.0
C1296 C 0.90341 0.66006 0.91612 0.0
C1297 C 0.86366 0.65077 0.93613 0.0
C1298 C 0.84793 0.63903 0.95733 0.0
C1299 C 0.85965 0.64525 0.98446 0.0
C1300 C 0.84461 0.63428 1.00431 0.0
C1301 C 0.81773 0.61729 0.99727 0.0
C1302 C 0.80583 0.61124 0.97035 0.0
C1303 C 0.82081 0.62207 0.95043 0.0
H1304 H 0.80611 0.60886 0.01267 0.0
H1305 H 0.95488 0.72755 0.82554 0.0
H1306 H 0.19973 0.28865 0.19935 0.0
H1307 H 0.16733 0.31318 0.17782 0.0
H1308 H 0.19609 0.3734 0.24247 0.0
H1309 H 0.22773 0.3479 0.26469 0.0
H1310 H 0.1474 0.36977 0.23007 0.0
H1311 H 0.20897 0.3833 0.17094 0.0
H1312 H 0.23575 0.37255 0.14068 0.0
H1313 H 0.16222 0.32609 0.08896 0.0
H1314 H 0.135 0.3361 0.11916 0.0
H1315 H 0.08603 0.47008 0.15141 0.0
H1316 H 0.11743 0.44531 0.17597 0.0
H1317 H 0.07359 0.37148 0.12807 0.0
H1318 H 0.04171 0.39579 0.10411 0.0
H1319 H 0.13031 0.38377 0.13196 0.0
H1320 H 0.06979 0.37403 0.1935 0.0
H1321 H 0.04599 0.39047 0.22329 0.0
H1322 H 0.12262 0.43713 0.27013 0.0
H1323 H 0.1469 0.42139 0.24031 0.0
C1324 C 0.19932 0.30713 0.20914 0.0
C1325 C 0.21693 0.31597 0.23404 0.0
C1326 C 0.18067 0.3216 0.19647 0.0
C1327 C 0.17895 0.34619 0.20763 0.0
C1328 C 0.19638 0.35482 0.23276 0.0
C1329 C 0.21482 0.34009 0.24564 0.0
C1330 C 0.15893 0.36232 0.19357 0.0
C1331 C 0.14423 0.37302 0.20863 0.0
C1332 C 0.15365 0.367 0.16532 0.0
C1333 C 0.16995 0.3601 0.14757 0.0
C1334 C 0.19852 0.37048 0.15331 0.0
C1335 C 0.21377 0.36457 0.13612 0.0
C1336 C 0.2007 0.34855 0.11298 0.0
C1337 C 0.17233 0.3384 0.10696 0.0
C1338 C 0.15698 0.34415 0.12412 0.0
C1339 C 0.08258 0.44837 0.14637 0.0
C1340 C 0.06055 0.43517 0.1257 0.0
C1341 C 0.10084 0.43408 0.16052 0.0
C1342 C 0.09842 0.40607 0.1543 0.0
C1343 C 0.07642 0.39288 0.13371 0.0
C1344 C 0.0578 0.40692 0.12002 0.0
C1345 C 0.11893 0.39084 0.16848 0.0
C1346 C 0.13366 0.38039 0.15341 0.0
C1347 C 0.12475 0.38707 0.19672 0.0
C1348 C 0.11016 0.3968 0.21445 0.0
C1349 C 0.08157 0.38807 0.20995 0.0
C1350 C 0.06799 0.39721 0.22688 0.0
C1351 C 0.08278 0.41492 0.24853 0.0
C1352 C 0.11119 0.42349 0.25331 0.0
C1353 C 0.12487 0.41446 0.23639 0.0
H1354 H 0.07223 0.42194 0.26164 0.0
H1355 H 0.21254 0.34407 0.09966 0.0
H1356 H 0.17931 0.63931 0.8852 0.0
H1357 H 0.14542 0.61734 0.9118 0.0
H1358 H 0.08243 0.60261 0.84063 0.0
H1359 H 0.11605 0.62724 0.81415 0.0
H1360 H 0.06581 0.62322 0.87492 0.0
H1361 H 0.10221 0.54722 0.88005 0.0
H1362 H 0.13636 0.52164 0.88594 0.0
H1363 H 0.16552 0.55088 0.96724 0.0
H1364 H 0.13186 0.57697 0.96178 0.0
H1365 H 0.98873 0.54634 0.97873 0.0
H1366 H 1.00518 0.56163 0.93698 0.0
H1367 H 0.08076 0.61334 0.98253 0.0
H1368 H 0.06466 0.59783 0.02403 0.0
H1369 H 0.08085 0.56328 0.95353 0.0
H1370 H 0.04509 0.64421 0.94293 0.0
H1371 H 1.00721 0.66491 0.93564 0.0
H1372 H 0.9722 0.61897 0.86185 0.0
H1373 H 1.00965 0.59759 0.86894 0.0
C1374 C 0.15828 0.63133 0.8751 0.0
C1375 C 0.15043 0.63557 0.84757 0.0
C1376 C 0.13887 0.61822 0.89032 0.0
C1377 C 0.11125 0.60797 0.87824 0.0
C1378 C 0.10358 0.61036 0.85044 0.0
C1379 C 0.12295 0.62415 0.83524 0.0
C1380 C 0.09047 0.59779 0.89522 0.0
C1381 C 0.0688 0.60956 0.89175 0.0
C1382 C 0.09398 0.57971 0.91706 0.0
C1383 C 0.11448 0.56414 0.92044 0.0
C1384 C 0.11601 0.54836 0.89914 0.0
C1385 C 0.13528 0.53374 0.90242 0.0
C1386 C 0.15311 0.53464 0.92694 0.0
C1387 C 0.15169 0.55017 0.94826 0.0
C1388 C 0.13247 0.56483 0.94509 0.0
C1389 C 1.00824 0.56213 0.97962 0.0
C1390 C 0.02564 0.57086 1.00437 0.0
C1391 C 0.01764 0.57068 0.95584 0.0
C1392 C 0.04425 0.58824 0.9569 0.0
C1393 C 0.06018 0.59967 0.98147 0.0
C1394 C 0.05097 0.59095 1.0051 0.0
C1395 C 0.05781 0.59021 0.934 0.0
C1396 C 0.07777 0.57647 0.9363 0.0
C1397 C 0.05227 0.60584 0.91091 0.0
C1398 C 0.03 0.61902 0.90664 0.0
C1399 C 0.02917 0.63828 0.9253 0.0
C1400 C 1.0078 0.65019 0.92117 0.0
C1401 C 0.98725 0.64319 0.89835 0.0
C1402 C 0.98809 0.62433 0.87955 0.0
C1403 C 1.00939 0.61232 0.88361 0.0
H1404 H 0.97073 0.65243 0.89519 0.0
H1405 H 0.16799 0.5233 0.92943 0.0
H1406 H 0.35181 0.23516 0.80355 0.0
H1407 H 0.38303 0.21001 0.82573 0.0
H1408 H 0.33313 0.1804 0.88509 0.0
H1409 H 0.30226 0.20703 0.86346 0.0
H1410 H 0.38252 0.19178 0.90879 0.0
H1411 H 0.33331 0.13841 0.83064 0.0
H1412 H 0.31374 0.12959 0.7826 0.0
H1413 H 0.39391 0.15514 0.7646 0.0
H1414 H 0.41397 0.16458 0.8125 0.0
H1415 H 0.43928 0.06705 0.92012 0.0
H1416 H 0.41195 0.0929 0.89153 0.0
H1417 H 0.46808 0.17082 0.92513 0.0
H1418 H 0.49525 0.14506 0.9544 0.0
H1419 H 0.41314 0.13211 0.85491 0.0
H1420 H 0.43136 0.21206 0.94054 0.0
H1421 H 0.44498 0.2148 0.98978 0.0
H1422 H 0.41628 0.12507 0.99431 0.0
H1423 H 0.40208 0.12186 0.94534 0.0
C1424 C 0.34738 0.22328 0.82133 0.0
C1425 C 0.32435 0.22282 0.83159 0.0
C1426 C 0.36524 0.20872 0.83393 0.0
C1427 C 0.36016 0.19255 0.8567 0.0
C1428 C 0.33746 0.19253 0.86742 0.0
C1429 C 0.31979 0.20771 0.85507 0.0
C1430 C 0.37879 0.17603 0.86927 0.0
C1431 C 0.38918 0.1788 0.89693 0.0
C1432 C 0.38712 0.1584 0.85403 0.0
C1433 C 0.37515 0.15243 0.82519 0.0
C1434 C 0.34677 0.14232 0.81643 0.0
C1435 C 0.33559 0.13721 0.78922 0.0
C1436 C 0.35257 0.14187 0.77056 0.0
C1437 C 0.38078 0.15158 0.77908 0.0
C1438 C 0.39207 0.1568 0.80627 0.0
C1439 C 0.44636 0.08974 0.92092 0.0
C1440 C 0.4692 0.10391 0.94007 0.0
C1441 C 0.43062 0.10453 0.90449 0.0
C1442 C 0.43744 0.13377 0.90676 0.0
C1443 C 0.46203 0.14818 0.92349 0.0
C1444 C 0.47775 0.1334 0.94006 0.0
C1445 C 0.41737 0.14861 0.89417 0.0
C1446 C 0.4066 0.14534 0.86662 0.0
C1447 C 0.40786 0.16491 0.90962 0.0
C1448 C 0.41607 0.16673 0.93922 0.0
C1449 C 0.42795 0.19294 0.95209 0.0
C1450 C 0.43579 0.19457 0.97997 0.0
C1451 C 0.43176 0.17013 0.9952 0.0
C1452 C 0.41973 0.144 0.98258 0.0
C1453 C 0.41174 0.14227 0.95474 0.0
H1454 H 0.43775 0.17149 0.01677 0.0
H1455 H 0.34387 0.13787 0.74952 0.0
H1456 H 0.81237 0.28101 0.87896 0.0
H1457 H 0.82219 0.31634 0.91357 0.0
H1458 H 0.81614 0.37888 0.85291 0.0
H1459 H 0.80721 0.34346 0.81802 0.0
H1460 H 0.85963 0.39879 0.88817 0.0
H1461 H 0.76765 0.35966 0.89833 0.0
H1462 H 0.72486 0.32333 0.90234 0.0
H1463 H 0.76652 0.29026 0.97161 0.0
H1464 H 0.80937 0.32688 0.96824 0.0
H1465 H 0.9046 0.49088 0.99878 0.0
H1466 H 0.86855 0.4658 0.96223 0.0
H1467 H 0.87332 0.38689 0.99786 0.0
H1468 H 0.90911 0.41158 0.03389 0.0
H1469 H 0.82189 0.38278 0.97119 0.0
H1470 H 0.91497 0.41899 0.95548 0.0
H1471 H 0.95663 0.45757 0.95276 0.0
H1472 H 0.91081 0.49752 0.8927 0.0
H1473 H 0.8688 0.45929 0.89536 0.0
C1474 C 0.81292 0.30224 0.87296 0.0
C1475 C 0.80925 0.30951 0.84578 0.0
C1476 C 0.81817 0.32242 0.89281 0.0
C1477 C 0.81947 0.35034 0.88601 0.0
C1478 C 0.81515 0.35751 0.85876 0.0
C1479 C 0.81011 0.33729 0.83882 0.0
C1480 C 0.82822 0.37222 0.90745 0.0
C1481 C 0.8507 0.39571 0.90591 0.0
C1482 C 0.81702 0.3683 0.93093 0.0
C1483 C 0.79164 0.34581 0.93284 0.0
C1484 C 0.76762 0.3445 0.91427 0.0
C1485 C 0.74337 0.32393 0.9165 0.0
C1486 C 0.743 0.3043 0.93707 0.0
C1487 C 0.76685 0.30538 0.95559 0.0
C1488 C 0.79109 0.32616 0.95363 0.0
C1489 C 0.89712 0.46823 0.99938 0.0
C1490 C 0.90991 0.45318 0.01906 0.0
C1491 C 0.87666 0.45391 0.97838 0.0
C1492 C 0.86871 0.42445 0.97699 0.0
C1493 C 0.87924 0.40958 0.99833 0.0
C1494 C 0.89977 0.42379 0.01899 0.0
C1495 C 0.85324 0.40893 0.95189 0.0
C1496 C 0.82986 0.38645 0.95291 0.0
C1497 C 0.86346 0.41391 0.92787 0.0
C1498 C 0.88876 0.4365 0.92582 0.0
C1499 C 0.91379 0.43607 0.94178 0.0
C1500 C 0.93745 0.45787 0.94025 0.0
C1501 C 0.93635 0.48003 0.92262 0.0
C1502 C 0.91161 0.48037 0.90639 0.0
C1503 C 0.88788 0.45865 0.90789 0.0
H1504 H 0.95468 0.49692 0.9215 0.0
H1505 H 0.72422 0.28834 0.93874 0.0
H1506 H 0.75801 0.87032 0.92261 0.0
H1507 H 0.73148 0.88772 0.94836 0.0
H1508 H 0.67531 0.89381 0.87542 0.0
H1509 H 0.70215 0.87733 0.84976 0.0
H1510 H 0.6865 0.9384 0.90206 0.0
H1511 H 0.65977 0.8413 0.92313 0.0
H1512 H 0.66586 0.79582 0.9391 0.0
H1513 H 0.70424 0.83134 0.01713 0.0
H1514 H 0.69871 0.87717 1.00151 0.0
H1515 H 0.57474 0.91526 0.98635 0.0
H1516 H 0.60465 0.89815 0.96544 0.0
H1517 H 0.66464 0.97945 0.97597 0.0
H1518 H 0.63458 0.99688 0.99705 0.0
H1519 H 0.65319 0.89199 0.98214 0.0
H1520 H 0.69577 0.99004 0.91816 0.0
H1521 H 0.68112 0.02713 0.89122 0.0
H1522 H 0.59748 0.97993 0.88793 0.0
H1523 H 0.61158 0.94229 0.91429 0.0
C1524 C 0.73986 0.87517 0.91221 0.0
C1525 C 0.73221 0.87267 0.88421 0.0
C1526 C 0.72468 0.88506 0.92691 0.0
C1527 C 0.7013 0.89207 0.91388 0.0
C1528 C 0.69337 0.88886 0.88596 0.0
C1529 C 0.7087 0.87939 0.87129 0.0
C1530 C 0.68544 0.90361 0.92895 0.0
C1531 C 0.67942 0.92837 0.91973 0.0
C1532 C 0.67562 0.8902 0.95162 0.0
C1533 C 0.67913 0.86274 0.96106 0.0
C1534 C 0.66974 0.83948 0.94363 0.0
C1535 C 0.67304 0.81362 0.95263 0.0
C1536 C 0.68551 0.81071 0.97909 0.0
C1537 C 0.69464 0.83364 0.99663 0.0
C1538 C 0.69142 0.85956 0.98772 0.0
C1539 C 0.59437 0.92952 0.98443 0.0
C1540 C 0.60227 0.95746 0.99342 0.0
C1541 C 0.61151 0.91965 0.97252 0.0
C1542 C 0.63684 0.93751 0.96897 0.0
C1543 C 0.64508 0.96533 0.97831 0.0
C1544 C 0.62799 0.9752 0.99055 0.0
C1545 C 0.65424 0.92682 0.95518 0.0
C1546 C 0.66068 0.9023 0.96475 0.0
C1547 C 0.66344 0.93978 0.93207 0.0
C1548 C 0.65478 0.96352 0.9186 0.0
C1549 C 0.67425 0.98767 0.91185 0.0
C1550 C 0.66604 0.00866 0.89645 0.0
C1551 C 0.6384 1.00577 0.88771 0.0
C1552 C 0.61889 0.98209 0.89468 0.0
C1553 C 0.62699 0.96096 0.90993 0.0
H1554 H 0.63208 0.022 0.87571 0.0
H1555 H 0.68803 0.79067 0.98603 0.0
H1556 H 0.77174 0.70594 0.20477 0.0
H1557 H 0.7913 0.67909 0.1799 0.0
H1558 H 0.86351 0.69693 0.24154 0.0
H1559 H 0.84396 0.72383 0.26647 0.0
H1560 H 0.87931 0.70117 0.19485 0.0
H1561 H 0.81158 0.62769 0.23039 0.0
H1562 H 0.76513 0.60392 0.23771 0.0
H1563 H 0.7355 0.59613 0.15284 0.0
H1564 H 0.78176 0.61999 0.14498 0.0
H1565 H 0.94273 0.60987 0.15013 0.0
H1566 H 0.92059 0.63375 0.17462 0.0
H1567 H 0.84481 0.60033 0.11942 0.0
H1568 H 0.86686 0.57459 0.09586 0.0
H1569 H 0.82936 0.60476 0.16128 0.0
H1570 H 0.89401 0.6764 0.12372 0.0
H1571 H 0.93865 0.70273 0.11338 0.0
H1572 H 0.97184 0.71804 0.19717 0.0
H1573 H 0.92746 0.69151 0.20803 0.0
C1574 C 0.79185 0.70434 0.21318 0.0
C1575 C 0.80602 0.71767 0.23797 0.0
C1576 C 0.80311 0.68852 0.19884 0.0
C1577 C 0.82922 0.68515 0.20845 0.0
C1578 C 0.84347 0.6987 0.23311 0.0
C1579 C 0.8321 0.7143 0.24758 0.0
C1580 C 0.84178 0.6681 0.19296 0.0
C1581 C 0.86836 0.67992 0.18795 0.0
C1582 C 0.82779 0.64053 0.1825 0.0
C1583 C 0.80008 0.62578 0.18712 0.0
C1584 C 0.79513 0.62098 0.21329 0.0
C1585 C 0.76884 0.60747 0.21752 0.0
C1586 C 0.74733 0.59872 0.19573 0.0
C1587 C 0.75213 0.60313 0.16967 0.0
C1588 C 0.77841 0.61652 0.16531 0.0
C1589 C 0.92126 0.6073 0.14309 0.0
C1590 C 0.90699 0.58991 0.12058 0.0
C1591 C 0.90843 0.6216 0.15712 0.0
C1592 C 0.88068 0.62042 0.14891 0.0
C1593 C 0.86614 0.60242 0.12672 0.0
C1594 C 0.87891 0.58745 0.11301 0.0
C1595 C 0.86725 0.63768 0.16337 0.0
C1596 C 0.84045 0.62597 0.16815 0.0
C1597 C 0.88081 0.6657 0.17311 0.0
C1598 C 0.90749 0.68173 0.16669 0.0
C1599 C 0.91087 0.68525 0.13995 0.0
C1600 C 0.93612 0.70022 0.13399 0.0
C1601 C 0.95809 0.71198 0.15461 0.0
C1602 C 0.95482 0.70888 0.18123 0.0
C1603 C 0.92962 0.6939 0.18729 0.0
H1604 H 0.97762 0.72354 0.14996 0.0
H1605 H 0.72695 0.58848 0.19905 0.0
H1606 H 0.32504 0.86152 0.23227 0.0
H1607 H 0.3508 0.89039 0.20043 0.0
H1608 H 0.37133 0.81867 0.17846 0.0
H1609 H 0.34427 0.78953 0.20903 0.0
H1610 H 0.39786 0.91063 0.19232 0.0
H1611 H 0.38886 0.82357 0.11794 0.0
H1612 H 0.35744 0.77744 0.10199 0.0
H1613 H 0.29069 0.80069 0.12025 0.0
H1614 H 0.32169 0.84704 0.13617 0.0
H1615 H 0.48893 0.97008 0.09988 0.0
H1616 H 0.46567 0.93933 0.13285 0.0
H1617 H 0.38958 0.92289 0.07661 0.0
H1618 H 0.41251 0.95305 0.04401 0.0
H1619 H 0.39029 0.87574 0.10117 0.0
H1620 H 0.40744 0.96944 0.13025 0.0
H1621 H 0.43519 0.01737 0.14475 0.0
H1622 H 0.47831 0.9846 0.21316 0.0
H1623 H 0.45102 0.93647 0.19897 0.0
C1624 C 0.33483 0.85172 0.22054 0.0
C1625 C 0.33193 0.82274 0.22336 0.0
C1626 C 0.34987 0.86848 0.20218 0.0
C1627 C 0.36303 0.85719 0.1859 0.0
C1628 C 0.3609 0.82838 0.18951 0.0
C1629 C 0.34541 0.81151 0.20745 0.0
C1630 C 0.37869 0.87534 0.16545 0.0
C1631 C 0.39607 0.90271 0.17247 0.0
C1632 C 0.37664 0.8661 0.13889 0.0
C1633 C 0.35768 0.83865 0.12857 0.0
C1634 C 0.36747 0.81889 0.11848 0.0
C1635 C 0.34974 0.79268 0.10947 0.0
C1636 C 0.32211 0.78609 0.11021 0.0
C1637 C 0.31212 0.80577 0.11979 0.0
C1638 C 0.32976 0.83201 0.12883 0.0
C1639 C 0.46736 0.95956 0.09433 0.0
C1640 C 0.45294 0.96433 0.06883 0.0
C1641 C 0.45383 0.94207 0.11346 0.0
C1642 C 0.42537 0.92854 0.1078 0.0
C1643 C 0.41132 0.93269 0.08205 0.0
C1644 C 0.42468 0.95025 0.0632 0.0
C1645 C 0.40984 0.91062 0.12831 0.0
C1646 C 0.39222 0.88347 0.12114 0.0
C1647 C 0.41116 0.92034 0.15443 0.0
C1648 C 0.42748 0.94926 0.16324 0.0
C1649 C 0.42302 0.97242 0.14825 0.0
C1650 C 0.43862 0.99965 0.15646 0.0
C1651 C 0.4586 1.00402 0.17979 0.0
C1652 C 0.4629 0.98117 0.19503 0.0
C1653 C 0.44736 0.9539 0.1869 0.0
H1654 H 0.47066 0.02511 0.18611 0.0
H1655 H 0.30844 0.76576 0.10331 0.0
H1656 H 0.71375 0.21938 0.23084 0.0
H1657 H 0.68471 0.18144 0.20045 0.0
H1658 H 0.75558 0.16238 0.18625 0.0
H1659 H 0.78487 0.20071 0.21654 0.0
H1660 H 0.72197 0.16631 0.14022 0.0
H1661 H 0.71342 0.11641 0.22085 0.0
H1662 H 0.70684 0.1084 0.26744 0.0
H1663 H 0.62613 0.11593 0.24422 0.0
H1664 H 0.63235 0.12441 0.19756 0.0
H1665 H 0.58764 0.04369 0.08805 0.0
H1666 H 0.63096 0.06128 0.11947 0.0
H1667 H 0.63483 0.14585 0.09419 0.0
H1668 H 0.59185 0.12856 0.06277 0.0
H1669 H 0.63948 0.09604 0.16133 0.0
H1670 H 0.6993 0.18475 0.09771 0.0
H1671 H 0.70564 0.19161 0.05098 0.0
H1672 H 0.6856 0.10265 0.04033 0.0
H1673 H 0.67968 0.09523 0.08715 0.0
C1674 C 0.72311 0.20689 0.22149 0.0
C1675 C 0.75149 0.21296 0.2259 0.0
C1676 C 0.70652 0.18512 0.20426 0.0
C1677 C 0.71801 0.1689 0.19134 0.0
C1678 C 0.74636 0.17459 0.19613 0.0
C1679 C 0.76301 0.19641 0.21341 0.0
C1680 C 0.70022 0.14752 0.17138 0.0
C1681 C 0.70413 0.15064 0.14484 0.0
C1682 C 0.67743 0.12654 0.17764 0.0
C1683 C 0.6734 0.12111 0.20566 0.0
C1684 C 0.69431 0.1165 0.22569 0.0
C1685 C 0.69064 0.11187 0.25212 0.0
C1686 C 0.66609 0.11167 0.25879 0.0
C1687 C 0.64513 0.11605 0.23902 0.0
C1688 C 0.6487 0.12072 0.21256 0.0
C1689 C 0.59799 0.06598 0.08884 0.0
C1690 C 0.58628 0.08479 0.07307 0.0
C1691 C 0.62267 0.07596 0.10683 0.0
C1692 C 0.63614 0.10479 0.10896 0.0
C1693 C 0.62495 0.12346 0.09254 0.0
C1694 C 0.60026 0.11357 0.07476 0.0
C1695 C 0.66043 0.11606 0.13003 0.0
C1696 C 0.65774 0.11107 0.15679 0.0
C1697 C 0.68449 0.13503 0.12399 0.0
C1698 C 0.68894 0.13944 0.096 0.0
C1699 C 0.69652 0.16664 0.08552 0.0
C1700 C 0.69998 0.17063 0.05897 0.0
C1701 C 0.69598 0.14758 0.04269 0.0
C1702 C 0.68865 0.12049 0.05295 0.0
C1703 C 0.68522 0.11638 0.0795 0.0
H1704 H 0.69858 0.1507 0.02212 0.0
H1705 H 0.6633 0.1081 0.27927 0.0
H1706 H 0.75218 0.73481 0.85234 0.0
H1707 H 0.72555 0.70737 0.88445 0.0
H1708 H 0.65601 0.6794 0.82058 0.0
H1709 H 0.68249 0.70708 0.78863 0.0
H1710 H 0.63679 0.68679 0.86199 0.0
H1711 H 0.70024 0.63744 0.85308 0.0
H1712 H 0.74568 0.63227 0.85445 0.0
H1713 H 0.76869 0.65455 0.93785 0.0
H1714 H 0.7235 0.66033 0.93688 0.0
H1715 H 0.55856 0.57684 0.93964 0.0
H1716 H 0.58281 0.606 0.90657 0.0
H1717 H 0.657 0.62723 0.96583 0.0
H1718 H 0.63332 0.59738 0.99798 0.0
H1719 H 0.67352 0.62308 0.92565 0.0
H1720 H 0.61117 0.67327 0.93552 0.0
H1721 H 0.56636 0.67989 0.9347 0.0
H1722 H 0.54238 0.65845 0.85113 0.0
H1723 H 0.58667 0.651 0.8516 0.0
C1724 C 0.73118 0.72295 0.84502 0.0
C1725 C 0.71989 0.72353 0.81741 0.0
C1726 C 0.71577 0.70683 0.86359 0.0
C1727 C 0.68828 0.6903 0.85554 0.0
C1728 C 0.6769 0.69148 0.82802 0.0
C1729 C 0.6923 0.7075 0.80948 0.0
C1730 C 0.67154 0.67185 0.87533 0.0
C1731 C 0.6449 0.67268 0.87566 0.0
C1732 C 0.68151 0.65341 0.89411 0.0
C1733 C 0.70857 0.64962 0.89482 0.0
C1734 C 0.71504 0.64142 0.87167 0.0
C1735 C 0.74075 0.63838 0.87238 0.0
C1736 C 0.76009 0.64319 0.89619 0.0
C1737 C 0.75371 0.65092 0.9194 0.0
C1738 C 0.72804 0.65408 0.91878 0.0
C1739 C 0.57995 0.588 0.94579 0.0
C1740 C 0.59354 0.58437 0.97206 0.0
C1741 C 0.5941 0.60503 0.92665 0.0
C1742 C 0.6224 0.61983 0.93299 0.0
C1743 C 0.63556 0.61644 0.95943 0.0
C1744 C 0.62166 0.5992 0.97823 0.0
C1745 C 0.63869 0.63815 0.91268 0.0
C1746 C 0.66531 0.63725 0.91216 0.0
C1747 C 0.6288 0.65675 0.89396 0.0
C1748 C 0.60213 0.66123 0.89368 0.0
C1749 C 0.59622 0.66972 0.91703 0.0
C1750 C 0.57089 0.67359 0.91663 0.0
C1751 C 0.55142 0.66942 0.89291 0.0
C1752 C 0.55732 0.66148 0.86953 0.0
C1753 C 0.58254 0.6574 0.86986 0.0
H1754 H 0.53182 0.67244 0.89263 0.0
H1755 H 0.77999 0.64088 0.89667 0.0
H1756 H 0.30351 0.69791 0.84042 0.0
H1757 H 0.33292 0.6718 0.86563 0.0
H1758 H 0.40361 0.73634 0.85 0.0
H1759 H 0.37419 0.76223 0.82421 0.0
H1760 H 0.41264 0.6891 0.84511 0.0
H1761 H 0.38308 0.72483 0.91507 0.0
H1762 H 0.35057 0.7338 0.93965 0.0
H1763 H 0.31371 0.64526 0.94643 0.0
H1764 H 0.34577 0.6358 0.92152 0.0
H1765 H 0.50622 0.64084 0.95078 0.0
H1766 H 0.4793 0.66803 0.92238 0.0
H1767 H 0.40702 0.59805 0.91929 0.0
H1768 H 0.43366 0.57058 0.94657 0.0
H1769 H 0.40033 0.64912 0.93427 0.0
H1770 H 0.42967 0.61354 0.86471 0.0
H1771 H 0.46185 0.60415 0.84003 0.0
H1772 H 0.49964 0.69253 0.83347 0.0
H1773 H 0.46783 0.70247 0.85843 0.0
C1774 C 0.32532 0.70682 0.8425 0.0
C1775 C 0.33618 0.73256 0.8302 0.0
C1776 C 0.34233 0.69176 0.85717 0.0
C1777 C 0.37095 0.70193 0.86041 0.0
C1778 C 0.3818 0.72766 0.84812 0.0
C1779 C 0.3648 0.74268 0.83337 0.0
C1780 C 0.38939 0.68564 0.87608 0.0
C1781 C 0.41011 0.68087 0.86483 0.0
C1782 C 0.38626 0.67398 0.90173 0.0
C1783 C 0.36669 0.67961 0.91629 0.0
C1784 C 0.36789 0.70729 0.92162 0.0
C1785 C 0.34958 0.71246 0.93564 0.0
C1786 C 0.33006 0.69011 0.94456 0.0
C1787 C 0.32882 0.66255 0.93948 0.0
C1788 C 0.34706 0.65727 0.92544 0.0
C1789 C 0.48473 0.63092 0.94353 0.0
C1790 C 0.47247 0.60315 0.95109 0.0
C1791 C 0.46921 0.64665 0.92732 0.0
C1792 C 0.44081 0.63539 0.91863 0.0
C1793 C 0.42873 0.60753 0.92562 0.0
C1794 C 0.44424 0.59163 0.94119 0.0
C1795 C 0.42341 0.65271 0.90334 0.0
C1796 C 0.4029 0.65761 0.91467 0.0
C1797 C 0.42683 0.66455 0.8779 0.0
C1798 C 0.44656 0.65875 0.86368 0.0
C1799 C 0.44507 0.63098 0.85831 0.0
C1800 C 0.46316 0.62556 0.84418 0.0
C1801 C 0.48273 0.64773 0.83515 0.0
C1802 C 0.48441 0.67538 0.84043 0.0
C1803 C 0.46635 0.68093 0.85457 0.0
H1804 H 0.4965 0.64346 0.82394 0.0
H1805 H 0.31593 0.69416 0.95545 0.0
H1806 H 0.33138 0.30676 0.84697 0.0
H1807 H 0.34722 0.34172 0.88225 0.0
H1808 H 0.32393 0.40248 0.82675 0.0
H1809 H 0.30971 0.36737 0.79048 0.0
H1810 H 0.37032 0.42544 0.85281 0.0
H1811 H 0.2903 0.38031 0.89118 0.0
H1812 H 0.25475 0.34206 0.90716 0.0
H1813 H 0.31554 0.30793 0.95249 0.0
H1814 H 0.35158 0.34685 0.93828 0.0
H1815 H 0.45246 0.50344 0.96743 0.0
H1816 H 0.409 0.48446 0.93701 0.0
H1817 H 0.41455 0.40074 0.95385 0.0
H1818 H 0.45742 0.41937 0.98494 0.0
H1819 H 0.36274 0.40182 0.94716 0.0
H1820 H 0.44064 0.44095 0.9008 0.0
H1821 H 0.47757 0.48094 0.88947 0.0
H1822 H 0.42003 0.52589 0.85908 0.0
H1823 H 0.3828 0.48617 0.87044 0.0
C1824 C 0.32952 0.32756 0.84232 0.0
C1825 C 0.31963 0.3346 0.81611 0.0
C1826 C 0.33797 0.34743 0.8627 0.0
C1827 C 0.33575 0.37457 0.85761 0.0
C1828 C 0.32545 0.38157 0.83131 0.0
C1829 C 0.31763 0.36171 0.81059 0.0
C1830 C 0.34819 0.39621 0.879 0.0
C1831 C 0.36785 0.42072 0.87332 0.0
C1832 C 0.34522 0.3904 0.9059 0.0
C1833 C 0.32357 0.3663 0.91343 0.0
C1834 C 0.29605 0.36451 0.90437 0.0
C1835 C 0.27583 0.34281 0.91319 0.0
C1836 C 0.28281 0.32229 0.93028 0.0
C1837 C 0.31012 0.32374 0.93911 0.0
C1838 C 0.33046 0.3458 0.931 0.0
C1839 C 0.44414 0.481 0.96522 0.0
C1840 C 0.4586 0.46296 0.9784 0.0
C1841 C 0.41931 0.47017 0.94773 0.0
C1842 C 0.40881 0.44125 0.94291 0.0
C1843 C 0.42233 0.42315 0.95731 0.0
C1844 C 0.44696 0.43391 0.97492 0.0
C1845 C 0.38567 0.42951 0.92084 0.0
C1846 C 0.36406 0.40714 0.92646 0.0
C1847 C 0.38681 0.43728 0.89394 0.0
C1848 C 0.40907 0.4608 0.88667 0.0
C1849 C 0.43592 0.45941 0.89175 0.0
C1850 C 0.45688 0.482 0.88534 0.0
C1851 C 0.45116 0.50597 0.87362 0.0
C1852 C 0.42443 0.50733 0.86819 0.0
C1853 C 0.4034 0.48479 0.87459 0.0
H1854 H 0.46741 0.52345 0.86871 0.0
H1855 H 0.26706 0.30545 0.93689 0.0
H1856 H 0.65904 0.34159 0.84083 0.0
H1857 H 0.64652 0.36432 0.8755 0.0
H1858 H 0.73096 0.41024 0.9031 0.0
H1859 H 0.74349 0.38725 0.86849 0.0
H1860 H 0.70499 0.39287 0.94473 0.0
H1861 H 0.69082 0.4423 0.86341 0.0
H1862 H 0.67421 0.44777 0.81525 0.0
H1863 H 0.59175 0.41219 0.82576 0.0
H1864 H 0.60788 0.4061 0.87392 0.0
H1865 H 0.65281 0.4894 0.00924 0.0
H1866 H 0.67917 0.47142 0.98364 0.0
H1867 H 0.60688 0.40542 0.95109 0.0
H1868 H 0.5806 0.42276 0.97632 0.0
H1869 H 0.63487 0.44127 0.91305 0.0
H1870 H 0.65103 0.38862 0.99468 0.0
H1871 H 0.66914 0.38252 0.04236 0.0
H1872 H 0.75 0.42619 0.03105 0.0
H1873 H 0.73227 0.43313 0.9834 0.0
C1874 C 0.67484 0.35644 0.85442 0.0
C1875 C 0.70213 0.36287 0.85213 0.0
C1876 C 0.66776 0.36938 0.87415 0.0
C1877 C 0.68782 0.38931 0.89149 0.0
C1878 C 0.71523 0.39497 0.88985 0.0
C1879 C 0.72234 0.38186 0.8702 0.0
C1880 C 0.67977 0.40511 0.91033 0.0
C1881 C 0.69002 0.40391 0.93785 0.0
C1882 C 0.66044 0.41966 0.90121 0.0
C1883 C 0.65059 0.4236 0.87228 0.0
C1884 C 0.66916 0.43549 0.85543 0.0
C1885 C 0.65982 0.43871 0.82813 0.0
C1886 C 0.63195 0.4303 0.81745 0.0
C1887 C 0.61334 0.4187 0.83406 0.0
C1888 C 0.62257 0.41539 0.86137 0.0
C1889 C 0.64262 0.47091 0.99682 0.0
C1890 C 0.61452 0.45773 0.9946 0.0
C1891 C 0.65773 0.46063 0.98238 0.0
C1892 C 0.64484 0.43718 0.96558 0.0
C1893 C 0.6171 0.42357 0.964 0.0
C1894 C 0.60211 0.43362 0.97842 0.0
C1895 C 0.65912 0.42793 0.94748 0.0
C1896 C 0.65019 0.43065 0.91994 0.0
C1897 C 0.67982 0.41511 0.95667 0.0
C1898 C 0.69024 0.41182 0.98555 0.0
C1899 C 0.6726 0.39737 1.00244 0.0
C1900 C 0.68282 0.39366 0.02945 0.0
C1901 C 0.71069 0.40407 0.03976 0.0
C1902 C 0.7284 0.41824 0.02307 0.0
C1903 C 0.71827 0.4221 0.99608 0.0
H1904 H 0.71857 0.40106 0.06064 0.0
H1905 H 0.62476 0.4328 0.7963 0.0
H1906 H 0.686 0.28228 0.22665 0.0
H1907 H 0.65732 0.30897 0.20029 0.0
H1908 H 0.72652 0.38288 0.20795 0.0
H1909 H 0.75531 0.35626 0.23357 0.0
H1910 H 0.67935 0.39429 0.21731 0.0
H1911 H 0.70582 0.35109 0.15047 0.0
H1912 H 0.71175 0.312 0.12739 0.0
H1913 H 0.62539 0.27278 0.11171 0.0
H1914 H 0.61896 0.31151 0.13502 0.0
H1915 H 0.62665 0.48141 0.11835 0.0
H1916 H 0.65259 0.45421 0.14713 0.0
H1917 H 0.58654 0.37868 0.12536 0.0
H1918 H 0.56069 0.40577 0.09594 0.0
H1919 H 0.63153 0.36733 0.12407 0.0
H1920 H 0.60542 0.41231 0.19057 0.0
H1921 H 0.60064 0.45221 0.21343 0.0
H1922 H 0.68738 0.48882 0.22982 0.0
H1923 H 0.69266 0.44929 0.20677 0.0
C1924 C 0.69515 0.30422 0.22277 0.0
C1925 C 0.72314 0.31694 0.23245 0.0
C1926 C 0.67867 0.31953 0.20756 0.0
C1927 C 0.68952 0.3482 0.20194 0.0
C1928 C 0.71738 0.36096 0.21192 0.0
C1929 C 0.73393 0.34556 0.2266 0.0
C1930 C 0.67208 0.3648 0.18552 0.0
C1931 C 0.66911 0.38848 0.19684 0.0
C1932 C 0.65819 0.35733 0.15883 0.0
C1933 C 0.66193 0.33403 0.14477 0.0
C1934 C 0.68811 0.334 0.14232 0.0
C1935 C 0.69156 0.31194 0.12915 0.0
C1936 C 0.66897 0.28987 0.11818 0.0
C1937 C 0.64287 0.28987 0.12027 0.0
C1938 C 0.6393 0.31188 0.13344 0.0
C1939 C 0.61723 0.4591 0.12002 0.0
C1940 C 0.59116 0.44613 0.1047 0.0
C1941 C 0.63227 0.44338 0.13666 0.0
C1942 C 0.62179 0.41404 0.13896 0.0
C1943 C 0.59546 0.40113 0.1242 0.0
C1944 C 0.58043 0.41684 0.10747 0.0
C1945 C 0.63851 0.39686 0.15588 0.0
C1946 C 0.6415 0.37309 0.14461 0.0
C1947 C 0.6525 0.40431 0.18263 0.0
C1948 C 0.64941 0.42796 0.19674 0.0
C1949 C 0.62347 0.42895 0.19892 0.0
C1950 C 0.62067 0.45149 0.21193 0.0
C1951 C 0.64369 0.47307 0.22302 0.0
C1952 C 0.66956 0.4721 0.2212 0.0
C1953 C 0.67247 0.44962 0.2082 0.0
H1954 H 0.64148 0.49051 0.23306 0.0
H1955 H 0.67168 0.27281 0.10798 0.0
H1956 H 0.69358 0.69836 0.27067 0.0
H1957 H 0.67022 0.6677 0.23161 0.0
H1958 H 0.74333 0.6454 0.23181 0.0
H1959 H 0.76646 0.67533 0.27091 0.0
H1960 H 0.72252 0.66374 0.18258 0.0
H1961 H 0.69272 0.59636 0.24732 0.0
H1962 H 0.67331 0.57772 0.28706 0.0
H1963 H 0.59739 0.59113 0.24949 0.0
H1964 H 0.61646 0.61022 0.20966 0.0
H1965 H 0.60661 0.54473 0.09539 0.0
H1966 H 0.64344 0.56155 0.13368 0.0
H1967 H 0.6439 0.6467 0.11482 0.0
H1968 H 0.60686 0.63012 0.07646 0.0
H1969 H 0.63466 0.58851 0.17472 0.0
H1970 H 0.71083 0.68985 0.14055 0.0
H1971 H 0.73236 0.70633 0.10164 0.0
H1972 H 0.71854 0.62124 0.07818 0.0
H1973 H 0.69729 0.60421 0.11712 0.0
C1974 C 0.70443 0.68654 0.26254 0.0
C1975 C 0.73186 0.68959 0.27337 0.0
C1976 C 0.69113 0.66901 0.24038 0.0
C1977 C 0.70518 0.65439 0.22884 0.0
C1978 C 0.7322 0.65645 0.24045 0.0
C1979 C 0.7453 0.67353 0.26283 0.0
C1980 C 0.69213 0.63845 0.20365 0.0
C1981 C 0.70333 0.64722 0.18075 0.0
C1982 C 0.66769 0.6163 0.20166 0.0
C1983 C 0.6561 0.60491 0.22558 0.0
C1984 C 0.67196 0.59555 0.24762 0.0
C1985 C 0.661 0.58486 0.27014 0.0
C1986 C 0.63415 0.58329 0.27082 0.0
C1987 C 0.61819 0.59237 0.24895 0.0
C1988 C 0.62905 0.60309 0.22637 0.0
C1989 C 0.61496 0.56713 0.09887 0.0
C1990 C 0.60346 0.58608 0.08305 0.0
C1991 C 0.63601 0.57664 0.12084 0.0
C1992 C 0.64625 0.6053 0.12712 0.0
C1993 C 0.63635 0.62448 0.11018 0.0
C1994 C 0.61509 0.61496 0.08832 0.0
C1995 C 0.66423 0.61482 0.15326 0.0
C1996 C 0.65398 0.60482 0.17644 0.0
C1997 C 0.68966 0.63566 0.15545 0.0
C1998 C 0.70224 0.64573 0.13175 0.0
C1999 C 0.71245 0.67462 0.12717 0.0
C2000 C 0.72461 0.68407 0.10508 0.0
C2001 C 0.72676 0.66485 0.08741 0.0
C2002 C 0.71677 0.63612 0.09182 0.0
C2003 C 0.70459 0.62656 0.11388 0.0
H2004 H 0.73619 0.67221 0.07033 0.0
H2005 H 0.6257 0.575 0.28827 0.0
H2006 H 0.29692 0.62427 0.15687 0.0
H2007 H 0.32114 0.61459 0.1241 0.0
H2008 H 0.34691 0.70248 0.1053 0.0
H2009 H 0.32324 0.71252 0.13855 0.0
H2010 H 0.33008 0.64302 0.06131 0.0
H2011 H 0.39579 0.70706 0.13461 0.0
H2012 H 0.40666 0.72202 0.18195 0.0
H2013 H 0.39676 0.63675 0.20695 0.0
H2014 H 0.38558 0.62136 0.1597 0.0
H2015 H 0.47824 0.63512 0.06558 0.0
H2016 H 0.44712 0.65711 0.07866 0.0
H2017 H 0.38112 0.58089 0.05912 0.0
H2018 H 0.41195 0.55883 0.04541 0.0
H2019 H 0.41945 0.64391 0.11721 0.0
H2020 H 0.32162 0.59573 0.03747 0.0
H2021 H 0.30961 0.58005 0.99036 0.0
H2022 H 0.38505 0.63616 0.97577 0.0
H2023 H 0.3973 0.65257 0.02257 0.0
C2024 C 0.30716 0.64143 0.14525 0.0
C2025 C 0.30872 0.66917 0.15057 0.0
C2026 C 0.32066 0.63584 0.12636 0.0
C2027 C 0.33573 0.65787 0.1125 0.0
C2028 C 0.33512 0.68526 0.11576 0.0
C2029 C 0.32166 0.69093 0.13477 0.0
C2030 C 0.35656 0.65281 0.0998 0.0
C2031 C 0.3498 0.6435 0.07322 0.0
C2032 C 0.38222 0.65384 0.11547 0.0
C2033 C 0.38981 0.66311 0.14377 0.0
C2034 C 0.39593 0.69155 0.15026 0.0
C2035 C 0.40211 0.70009 0.17703 0.0
C2036 C 0.40237 0.68034 0.19745 0.0
C2037 C 0.39655 0.65202 0.19112 0.0
C2038 C 0.39032 0.64339 0.16437 0.0
C2039 C 0.45712 0.62296 0.06408 0.0
C2040 C 0.44759 0.59518 0.05447 0.0
C2041 C 0.43935 0.63563 0.07146 0.0
C2042 C 0.41176 0.62079 0.06941 0.0
C2043 C 0.40223 0.59293 0.06024 0.0
C2044 C 0.41995 0.58027 0.05268 0.0
C2045 C 0.39325 0.63389 0.07838 0.0
C2046 C 0.40024 0.64427 0.10467 0.0
C2047 C 0.36809 0.6343 0.0621 0.0
C2048 C 0.36048 0.62518 0.03364 0.0
C2049 C 0.33556 0.60488 0.02416 0.0
C2050 C 0.32873 0.59583 0.9975 0.0
C2051 C 0.34662 0.60699 0.98011 0.0
C2052 C 0.37126 0.62742 0.98926 0.0
C2053 C 0.37817 0.6366 0.01586 0.0
H2054 H 0.34135 0.59983 0.95952 0.0
H2055 H 0.40711 0.68697 0.21817 0.0
H2056 H 0.30183 0.32249 0.19798 0.0
H2057 H 0.32989 0.35223 0.1682 0.0
H2058 H 0.40227 0.34457 0.22127 0.0
H2059 H 0.37426 0.31598 0.25147 0.0
H2060 H 0.41727 0.39315 0.20503 0.0
H2061 H 0.37037 0.31084 0.15198 0.0
H2062 H 0.3309 0.27322 0.12947 0.0
H2063 H 0.29941 0.33435 0.08283 0.0
H2064 H 0.33854 0.37237 0.10532 0.0
H2065 H 0.50399 0.4571 0.10809 0.0
H2066 H 0.47876 0.42459 0.13881 0.0
H2067 H 0.40355 0.43488 0.09433 0.0
H2068 H 0.42808 0.46644 0.06402 0.0
H2069 H 0.39188 0.38324 0.10641 0.0
H2070 H 0.44042 0.46559 0.16172 0.0
H2071 H 0.48142 0.50157 0.1842 0.0
H2072 H 0.51194 0.43742 0.22615 0.0
H2073 H 0.47123 0.40105 0.2037 0.0
C2074 C 0.3237 0.32684 0.20328 0.0
C2075 C 0.33534 0.31618 0.22748 0.0
C2076 C 0.34007 0.344 0.18592 0.0
C2077 C 0.36896 0.35098 0.19149 0.0
C2078 C 0.38041 0.34017 0.21572 0.0
C2079 C 0.36411 0.32336 0.23318 0.0
C2080 C 0.38713 0.36957 0.17273 0.0
C2081 C 0.41161 0.39043 0.18349 0.0
C2082 C 0.3807 0.36722 0.1442 0.0
C2083 C 0.35724 0.34446 0.13052 0.0
C2084 C 0.35495 0.31626 0.13703 0.0
C2085 C 0.33265 0.29487 0.12427 0.0
C2086 C 0.31263 0.3014 0.10479 0.0
C2087 C 0.31491 0.32933 0.09796 0.0
C2088 C 0.33715 0.35081 0.11069 0.0
C2089 C 0.4821 0.45249 0.10476 0.0
C2090 C 0.46865 0.46517 0.08304 0.0
C2091 C 0.46742 0.43377 0.12267 0.0
C2092 C 0.4386 0.42679 0.11971 0.0
C2093 C 0.42543 0.43919 0.09778 0.0
C2094 C 0.4399 0.45776 0.08018 0.0
C2095 C 0.42177 0.40693 0.13871 0.0
C2096 C 0.39751 0.38584 0.12797 0.0
C2097 C 0.42862 0.40881 0.16722 0.0
C2098 C 0.45294 0.43062 0.18084 0.0
C2099 C 0.45596 0.45917 0.17563 0.0
C2100 C 0.47912 0.47962 0.18838 0.0
C2101 C 0.49931 0.47178 0.20653 0.0
C2102 C 0.49632 0.44346 0.21205 0.0
C2103 C 0.47319 0.42292 0.19934 0.0
H2104 H 0.51724 0.48764 0.21637 0.0
H2105 H 0.29537 0.28481 0.09493 0.0
H2106 H 0.8582 0.70687 0.67077 0.0
H2107 H 0.88565 0.69062 0.64569 0.0
H2108 H 0.8133 0.6311 0.60305 0.0
H2109 H 0.78556 0.64746 0.62795 0.0
H2110 H 0.85225 0.60665 0.62295 0.0
H2111 H 0.84761 0.68864 0.57157 0.0
H2112 H 0.85148 0.73875 0.56469 0.0
H2113 H 0.93668 0.76072 0.59924 0.0
H2114 H 0.93327 0.71075 0.60668 0.0
H2115 H 0.92462 0.56213 0.53908 0.0
H2116 H 0.89238 0.5815 0.55397 0.0
H2117 H 0.95908 0.64622 0.59809 0.0
H2118 H 0.99139 0.62744 0.58292 0.0
H2119 H 0.92013 0.66767 0.57366 0.0
H2120 H 0.92465 0.58768 0.62905 0.0
H2121 H 0.92191 0.53808 0.63804 0.0
H2122 H 0.83814 0.51303 0.59812 0.0
H2123 H 0.8405 0.5625 0.58856 0.0
C2124 C 0.84799 0.6908 0.65561 0.0
C2125 C 0.81962 0.67851 0.65137 0.0
C2126 C 0.86377 0.68145 0.64132 0.0
C2127 C 0.85153 0.65975 0.62235 0.0
C2128 C 0.82318 0.64784 0.61762 0.0
C2129 C 0.80736 0.65718 0.63191 0.0
C2130 C 0.86855 0.64842 0.60869 0.0
C2131 C 0.86671 0.61988 0.6117 0.0
C2132 C 0.88794 0.66584 0.59463 0.0
C2133 C 0.89013 0.69592 0.58987 0.0
C2134 C 0.86714 0.70415 0.57786 0.0
C2135 C 0.86926 0.73254 0.57384 0.0
C2136 C 0.89429 0.7529 0.58159 0.0
C2137 C 0.9173 0.74492 0.59327 0.0
C2138 C 0.91529 0.71656 0.59736 0.0
C2139 C 0.93246 0.58056 0.55185 0.0
C2140 C 0.96066 0.59308 0.55991 0.0
C2141 C 0.91398 0.59157 0.56041 0.0
C2142 C 0.9233 0.61514 0.57743 0.0
C2143 C 0.95139 0.62805 0.58497 0.0
C2144 C 0.96986 0.61716 0.57633 0.0
C2145 C 0.90394 0.62595 0.5881 0.0
C2146 C 0.90541 0.65438 0.5846 0.0
C2147 C 0.88436 0.6085 0.60193 0.0
C2148 C 0.88284 0.57876 0.60782 0.0
C2149 C 0.9057 0.57158 0.62202 0.0
C2150 C 0.90421 0.54349 0.62724 0.0
C2151 C 0.87989 0.52241 0.61858 0.0
C2152 C 0.85698 0.52938 0.60477 0.0
C2153 C 0.85838 0.55744 0.59945 0.0
H2154 H 0.87878 0.50067 0.62264 0.0
H2155 H 0.89588 0.77486 0.57851 0.0
H2156 H 0.45894 0.92447 0.76655 0.0
H2157 H 0.49669 0.94994 0.74538 0.0
H2158 H 0.44034 0.97298 0.68088 0.0
H2159 H 0.40292 0.94944 0.7029 0.0
H2160 H 0.50045 0.93024 0.70212 0.0
H2161 H 0.4658 0.02009 0.64188 0.0
H2162 H 0.448 0.05828 0.65033 0.0
H2163 H 0.48598 0.06013 0.73328 0.0
H2164 H 0.5042 0.02191 0.72535 0.0
H2165 H 0.47913 0.95259 0.56138 0.0
H2166 H 0.47776 0.94736 0.60911 0.0
H2167 H 0.56299 0.99322 0.62894 0.0
H2168 H 0.56485 0.99732 0.58124 0.0
H2169 H 0.51067 0.01286 0.64263 0.0
H2170 H 0.56616 0.95189 0.65983 0.0
H2171 H 0.58175 0.91254 0.64966 0.0
H2172 H 0.50347 0.85495 0.65396 0.0
H2173 H 0.48722 0.89406 0.66358 0.0
C2174 C 0.4547 0.93626 0.74862 0.0
C2175 C 0.42777 0.93433 0.73602 0.0
C2176 C 0.47638 0.95064 0.73641 0.0
C2177 C 0.47147 0.96318 0.71138 0.0
C2178 C 0.44493 0.96389 0.70035 0.0
C2179 C 0.42335 0.94998 0.71277 0.0
C2180 C 0.49221 0.97002 0.69421 0.0
C2181 C 0.50336 0.94877 0.6897 0.0
C2182 C 0.49653 0.99437 0.6782 0.0
C2183 C 0.48649 0.01813 0.68298 0.0
C2184 C 0.47069 0.02884 0.66188 0.0
C2185 C 0.46041 0.05045 0.6666 0.0
C2186 C 0.4659 0.06172 0.69231 0.0
C2187 C 0.48173 0.05138 0.71337 0.0
C2188 C 0.492 0.02968 0.70878 0.0
C2189 C 0.49781 0.96037 0.57595 0.0
C2190 C 0.52205 0.97524 0.56774 0.0
C2191 C 0.49701 0.95754 0.60311 0.0
C2192 C 0.52027 0.97004 0.62231 0.0
C2193 C 0.54496 0.98326 0.61431 0.0
C2194 C 0.54597 0.98538 0.5871 0.0
C2195 C 0.51708 0.97245 0.64999 0.0
C2196 C 0.50899 0.99522 0.65618 0.0
C2197 C 0.51576 0.94972 0.66766 0.0
C2198 C 0.52542 0.92597 0.66224 0.0
C2199 C 0.55218 0.93088 0.65835 0.0
C2200 C 0.56116 0.9086 0.65273 0.0
C2201 C 0.5436 0.88126 0.65113 0.0
C2202 C 0.51705 0.87614 0.6552 0.0
C2203 C 0.50795 0.89836 0.66076 0.0
H2204 H 0.55059 0.86404 0.64678 0.0
H2205 H 0.45785 0.07842 0.6959 0.0
H2206 H 0.24785 0.33197 0.70814 0.0
H2207 H 0.21876 0.35963 0.68505 0.0
H2208 H 0.1663 0.3328 0.74258 0.0
H2209 H 0.19608 0.30667 0.76643 0.0
H2210 H 0.17067 0.3496 0.65957 0.0
H2211 H 0.13486 0.37954 0.75159 0.0
H2212 H 0.15209 0.38811 0.80004 0.0
H2213 H 0.23427 0.41078 0.78758 0.0
H2214 H 0.21755 0.40278 0.73903 0.0
H2215 H 0.06257 0.40197 0.60798 0.0
H2216 H 0.08736 0.37543 0.63912 0.0
H2217 H 0.14674 0.45245 0.67071 0.0
H2218 H 0.122 0.47921 0.63989 0.0
H2219 H 0.1403 0.41297 0.70939 0.0
H2220 H 0.15846 0.42124 0.62099 0.0
H2221 H 0.14704 0.41818 0.57169 0.0
H2222 H 0.11076 0.32925 0.57596 0.0
H2223 H 0.12169 0.33185 0.62532 0.0
C2224 C 0.23016 0.33212 0.71587 0.0
C2225 C 0.22445 0.31744 0.73927 0.0
C2226 C 0.21348 0.34788 0.70264 0.0
C2227 C 0.19051 0.34889 0.71231 0.0
C2228 C 0.1843 0.33326 0.73513 0.0
C2229 C 0.2013 0.31814 0.74869 0.0
C2230 C 0.17295 0.36602 0.69848 0.0
C2231 C 0.16408 0.36338 0.67058 0.0
C2232 C 0.16463 0.38461 0.71258 0.0
C2233 C 0.17492 0.39027 0.74168 0.0
C2234 C 0.15661 0.38652 0.75916 0.0
C2235 C 0.16628 0.39124 0.78665 0.0
C2236 C 0.19425 0.39987 0.79689 0.0
C2237 C 0.21261 0.40399 0.77964 0.0
C2238 C 0.20304 0.39936 0.75213 0.0
C2239 C 0.08034 0.41338 0.62217 0.0
C2240 C 0.09055 0.44276 0.62099 0.0
C2241 C 0.09464 0.39812 0.63985 0.0
C2242 C 0.11933 0.41193 0.65671 0.0
C2243 C 0.1279 0.44132 0.6577 0.0
C2244 C 0.11366 0.4566 0.64001 0.0
C2245 C 0.13773 0.39594 0.67079 0.0
C2246 C 0.14681 0.39895 0.69859 0.0
C2247 C 0.14712 0.37852 0.65653 0.0
C2248 C 0.14063 0.37678 0.62685 0.0
C2249 C 0.14787 0.40106 0.61141 0.0
C2250 C 0.14152 0.39941 0.58346 0.0
C2251 C 0.12811 0.37355 0.5707 0.0
C2252 C 0.12111 0.34928 0.58587 0.0
C2253 C 0.12739 0.35082 0.61384 0.0
H2254 H 0.12321 0.37232 0.54906 0.0
H2255 H 0.2017 0.4034 0.81818 0.0
H2256 H 0.76145 0.258 0.67918 0.0
H2257 H 0.74412 0.22352 0.64285 0.0
H2258 H 0.72843 0.15692 0.70016 0.0
H2259 H 0.74638 0.19155 0.73687 0.0
H2260 H 0.74446 0.14128 0.65424 0.0
H2261 H 0.67964 0.18313 0.67536 0.0
H2262 H 0.6631 0.22246 0.68363 0.0
H2263 H 0.66933 0.25276 0.60411 0.0
H2264 H 0.68622 0.21379 0.5955 0.0
H2265 H 0.63123 0.0461 0.56657 0.0
H2266 H 0.66738 0.07382 0.60134 0.0
H2267 H 0.67093 0.14767 0.55276 0.0
H2268 H 0.63477 0.12002 0.51858 0.0
H2269 H 0.66303 0.15799 0.59612 0.0
H2270 H 0.72579 0.11355 0.57374 0.0
H2271 H 0.74197 0.07377 0.56626 0.0
H2272 H 0.73835 0.04665 0.64708 0.0
H2273 H 0.72193 0.08618 0.65501 0.0
C2274 C 0.75477 0.23598 0.6841 0.0
C2275 C 0.75465 0.22745 0.71077 0.0
C2276 C 0.74498 0.21629 0.66332 0.0
C2277 C 0.73454 0.1877 0.66876 0.0
C2278 C 0.73634 0.17889 0.69552 0.0
C2279 C 0.7464 0.19867 0.71644 0.0
C2280 C 0.71846 0.16794 0.64654 0.0
C2281 C 0.72656 0.14472 0.6415 0.0
C2282 C 0.69521 0.17258 0.6299 0.0
C2283 C 0.68462 0.19579 0.63493 0.0
C2284 C 0.67771 0.19832 0.65972 0.0
C2285 C 0.66822 0.22052 0.66446 0.0
C2286 C 0.66528 0.24017 0.64445 0.0
C2287 C 0.67171 0.23759 0.61962 0.0
C2288 C 0.68125 0.21545 0.61481 0.0
C2289 C 0.64088 0.06796 0.56279 0.0
C2290 C 0.6305 0.08109 0.53982 0.0
C2291 C 0.66153 0.08389 0.58275 0.0
C2292 C 0.67237 0.11302 0.57971 0.0
C2293 C 0.66354 0.1253 0.55553 0.0
C2294 C 0.6429 0.10953 0.53587 0.0
C2295 C 0.6894 0.13152 0.60271 0.0
C2296 C 0.68118 0.1545 0.6083 0.0
C2297 C 0.71241 0.12647 0.61968 0.0
C2298 C 0.72248 0.10281 0.61493 0.0
C2299 C 0.72834 0.09908 0.5899 0.0
C2300 C 0.73758 0.07656 0.58558 0.0
C2301 C 0.74115 0.05767 0.60617 0.0
C2302 C 0.73558 0.0613 0.63115 0.0
C2303 C 0.72636 0.0838 0.63558 0.0
H2304 H 0.74827 0.04022 0.60277 0.0
H2305 H 0.65792 0.25734 0.64816 0.0
H2306 H 0.77487 0.34423 0.34446 0.0
H2307 H 0.80354 0.38077 0.37681 0.0
H2308 H 0.87523 0.37062 0.35497 0.0
H2309 H 0.84668 0.33397 0.32273 0.0
H2310 H 0.84037 0.37333 0.42018 0.0
H2311 H 0.92357 0.43345 0.3596 0.0
H2312 H 0.92588 0.44961 0.31338 0.0
H2313 H 0.8423 0.44867 0.29957 0.0
H2314 H 0.83959 0.43295 0.34582 0.0
H2315 H 0.97112 0.41573 0.49452 0.0
H2316 H 0.92807 0.39811 0.46367 0.0
H2317 H 0.92601 0.48273 0.44544 0.0
H2318 H 0.96985 0.50076 0.47593 0.0
H2319 H 0.91643 0.45389 0.40113 0.0
H2320 H 0.87972 0.43903 0.47953 0.0
H2321 H 0.87631 0.42455 0.52596 0.0
H2322 H 0.86341 0.33897 0.50474 0.0
H2323 H 0.86721 0.35295 0.45829 0.0
C2324 C 0.79674 0.35008 0.34633 0.0
C2325 C 0.80867 0.33626 0.33128 0.0
C2326 C 0.81304 0.3709 0.3648 0.0
C2327 C 0.84143 0.37847 0.36812 0.0
C2328 C 0.85331 0.36531 0.35243 0.0
C2329 C 0.83705 0.34432 0.33415 0.0
C2330 C 0.85892 0.39832 0.38949 0.0
C2331 C 0.85682 0.39119 0.4161 0.0
C2332 C 0.87974 0.42211 0.384 0.0
C2333 C 0.88135 0.43185 0.35619 0.0
C2334 C 0.90573 0.43685 0.34677 0.0
C2335 C 0.9071 0.44591 0.32054 0.0
C2336 C 0.88424 0.45011 0.30353 0.0
C2337 C 0.85997 0.44532 0.31274 0.0
C2338 C 0.8585 0.4363 0.33895 0.0
C2339 C 0.96146 0.4307 0.48424 0.0
C2340 C 0.97402 0.45969 0.48766 0.0
C2341 C 0.93664 0.42054 0.46676 0.0
C2342 C 0.92361 0.43909 0.45254 0.0
C2343 C 0.93566 0.46807 0.45639 0.0
C2344 C 0.96065 0.47831 0.47389 0.0
C2345 C 0.89888 0.42785 0.43185 0.0
C2346 C 0.89958 0.43655 0.40532 0.0
C2347 C 0.87651 0.40577 0.43746 0.0
C2348 C 0.8738 0.3971 0.46535 0.0
C2349 C 0.87628 0.41713 0.48477 0.0
C2350 C 0.87429 0.40901 0.51111 0.0
C2351 C 0.86965 0.38086 0.5183 0.0
C2352 C 0.86697 0.36077 0.49914 0.0
C2353 C 0.86899 0.36878 0.47277 0.0
H2354 H 0.86814 0.37463 0.53871 0.0
H2355 H 0.88534 0.4571 0.28323 0.0
H2356 H 0.76061 0.81943 0.36256 0.0
H2357 H 0.74122 0.84768 0.38554 0.0
H2358 H 0.66731 0.82417 0.32601 0.0
H2359 H 0.68739 0.79698 0.30227 0.0
H2360 H 0.66886 0.87057 0.33656 0.0
H2361 H 0.68228 0.80216 0.40374 0.0
H2362 H 0.70808 0.77497 0.43381 0.0
H2363 H 0.76375 0.85115 0.47053 0.0
H2364 H 0.73839 0.87879 0.44052 0.0
H2365 H 0.58791 0.91288 0.41682 0.0
H2366 H 0.60976 0.88703 0.3936 0.0
H2367 H 0.68821 0.93419 0.43708 0.0
H2368 H 0.66635 0.96069 0.46005 0.0
H2369 H 0.68529 0.87773 0.43534 0.0
H2370 H 0.66641 0.94468 0.36951 0.0
H2371 H 0.63853 0.96975 0.33936 0.0
H2372 H 0.58944 0.89229 0.3 0.0
H2373 H 0.6167 0.86666 0.33026 0.0
C2374 C 0.74008 0.81993 0.35435 0.0
C2375 C 0.72578 0.80512 0.33037 0.0
C2376 C 0.72865 0.8363 0.36785 0.0
C2377 C 0.70198 0.83846 0.35853 0.0
C2378 C 0.68777 0.82364 0.3344 0.0
C2379 C 0.69937 0.80761 0.32066 0.0
C2380 C 0.68919 0.85631 0.37314 0.0
C2381 C 0.67226 0.8714 0.35821 0.0
C2382 C 0.69345 0.85903 0.40163 0.0
C2383 C 0.70858 0.84251 0.41977 0.0
C2384 C 0.70008 0.81309 0.41818 0.0
C2385 C 0.71461 0.79761 0.43521 0.0
C2386 C 0.73757 0.81133 0.45403 0.0
C2387 C 0.74598 0.84056 0.45593 0.0
C2388 C 0.73151 0.85614 0.43896 0.0
C2389 C 0.60988 0.91816 0.42143 0.0
C2390 C 0.625 0.93951 0.44057 0.0
C2391 C 0.62254 0.90314 0.4079 0.0
C2392 C 0.65107 0.90819 0.41302 0.0
C2393 C 0.66628 0.92938 0.43228 0.0
C2394 C 0.65362 0.94487 0.44546 0.0
C2395 C 0.6647 0.89126 0.39869 0.0
C2396 C 0.68182 0.87654 0.41369 0.0
C2397 C 0.66012 0.88838 0.3703 0.0
C2398 C 0.64341 0.90369 0.3524 0.0
C2399 C 0.64947 0.93293 0.35465 0.0
C2400 C 0.63381 0.94726 0.33749 0.0
C2401 C 0.61217 0.93261 0.31784 0.0
C2402 C 0.60616 0.9036 0.31529 0.0
C2403 C 0.6217 0.88916 0.33244 0.0
H2404 H 0.60011 0.94375 0.30454 0.0
H2405 H 0.74881 0.79931 0.46718 0.0
H2406 H 0.22198 0.75355 0.3517 0.0
H2407 H 0.19389 0.7248 0.38162 0.0
H2408 H 0.20981 0.65141 0.35686 0.0
H2409 H 0.23676 0.68005 0.32574 0.0
H2410 H 0.16176 0.63409 0.36384 0.0
H2411 H 0.24037 0.69196 0.42314 0.0
H2412 H 0.27327 0.73664 0.44122 0.0
H2413 H 0.20852 0.76335 0.45969 0.0
H2414 H 0.17521 0.71893 0.44146 0.0
H2415 H 0.12429 0.54604 0.4737 0.0
H2416 H 0.14776 0.57662 0.44141 0.0
H2417 H 0.11953 0.64347 0.46233 0.0
H2418 H 0.0967 0.61266 0.49559 0.0
H2419 H 0.17149 0.66506 0.45695 0.0
H2420 H 0.0935 0.60518 0.40121 0.0
H2421 H 0.06106 0.55991 0.38435 0.0
H2422 H 0.12472 0.53679 0.35914 0.0
H2423 H 0.15779 0.58158 0.37661 0.0
C2424 C 0.21963 0.73128 0.35253 0.0
C2425 C 0.23216 0.71952 0.33604 0.0
C2426 C 0.20355 0.71463 0.3701 0.0
C2427 C 0.19978 0.68544 0.3727 0.0
C2428 C 0.21203 0.67364 0.35589 0.0
C2429 C 0.22773 0.69024 0.33793 0.0
C2430 C 0.18315 0.66733 0.39248 0.0
C2431 C 0.16439 0.64093 0.38428 0.0
C2432 C 0.18525 0.67579 0.41933 0.0
C2433 C 0.20529 0.70225 0.43072 0.0
C2434 C 0.23316 0.70741 0.43097 0.0
C2435 C 0.25187 0.73268 0.44124 0.0
C2436 C 0.24298 0.75285 0.45152 0.0
C2437 C 0.21537 0.74773 0.45168 0.0
C2438 C 0.19657 0.7225 0.44142 0.0
C2439 C 0.12259 0.56711 0.47116 0.0
C2440 C 0.10739 0.57631 0.48668 0.0
C2441 C 0.13616 0.58478 0.45247 0.0
C2442 C 0.1354 0.6127 0.44849 0.0
C2443 C 0.1205 0.62213 0.46433 0.0
C2444 C 0.10679 0.60426 0.48305 0.0
C2445 C 0.15055 0.63179 0.42836 0.0
C2446 C 0.16894 0.65831 0.43649 0.0
C2447 C 0.14817 0.62341 0.40148 0.0
C2448 C 0.12821 0.59668 0.39047 0.0
C2449 C 0.10066 0.59036 0.39229 0.0
C2450 C 0.08216 0.56475 0.38266 0.0
C2451 C 0.09082 0.54548 0.37069 0.0
C2452 C 0.11804 0.55174 0.36841 0.0
C2453 C 0.13669 0.57722 0.37823 0.0
H2454 H 0.07644 0.52571 0.36316 0.0
H2455 H 0.25749 0.77242 0.45942 0.0
H2456 H 0.36059 0.25793 0.34161 0.0
H2457 H 0.39064 0.23138 0.3652 0.0
H2458 H 0.34649 0.1604 0.31361 0.0
H2459 H 0.31681 0.18729 0.28935 0.0
H2460 H 0.35765 0.14464 0.36946 0.0
H2461 H 0.40868 0.19771 0.30562 0.0
H2462 H 0.4307 0.24076 0.28302 0.0
H2463 H 0.4816 0.27431 0.35793 0.0
H2464 H 0.4596 0.2316 0.38106 0.0
H2465 H 0.44771 0.06201 0.41788 0.0
H2466 H 0.41868 0.08732 0.39048 0.0
H2467 H 0.4761 0.16583 0.42074 0.0
H2468 H 0.50574 0.14055 0.4471 0.0
H2469 H 0.4574 0.17773 0.37477 0.0
H2470 H 0.40736 0.1297 0.44001 0.0
H2471 H 0.38522 0.08965 0.46613 0.0
H2472 H 0.33249 0.05026 0.39412 0.0
H2473 H 0.35455 0.08997 0.36751 0.0
C2474 C 0.35724 0.23674 0.335 0.0
C2475 C 0.33595 0.2252 0.31312 0.0
C2476 C 0.37465 0.22138 0.34868 0.0
C2477 C 0.37137 0.19343 0.3416 0.0
C2478 C 0.34992 0.18172 0.31992 0.0
C2479 C 0.33286 0.19734 0.30579 0.0
C2480 C 0.39019 0.17675 0.35669 0.0
C2481 C 0.37941 0.15177 0.37018 0.0
C2482 C 0.41898 0.18595 0.35898 0.0
C2483 C 0.4323 0.21157 0.34511 0.0
C2484 C 0.42441 0.21436 0.31732 0.0
C2485 C 0.43692 0.23868 0.3044 0.0
C2486 C 0.45749 0.26029 0.31904 0.0
C2487 C 0.46564 0.25758 0.34662 0.0
C2488 C 0.45317 0.2333 0.35964 0.0
C2489 C 0.45449 0.0847 0.41854 0.0
C2490 C 0.47965 0.0988 0.43502 0.0
C2491 C 0.43741 0.09943 0.40295 0.0
C2492 C 0.44414 0.1291 0.40348 0.0
C2493 C 0.46965 0.14318 0.41943 0.0
C2494 C 0.48691 0.12847 0.43472 0.0
C2495 C 0.42498 0.14533 0.38772 0.0
C2496 C 0.43566 0.17038 0.37411 0.0
C2497 C 0.39613 0.13655 0.38589 0.0
C2498 C 0.38282 0.11265 0.40175 0.0
C2499 C 0.39117 0.11241 0.42973 0.0
C2500 C 0.37861 0.08978 0.44462 0.0
C2501 C 0.35752 0.06738 0.43178 0.0
C2502 C 0.34887 0.0676 0.40402 0.0
C2503 C 0.36138 0.09017 0.38903 0.0
H2504 H 0.34782 0.04988 0.44334 0.0
H2505 H 0.46715 0.2791 0.30901 0.0
H2506 H 0.71613 0.83135 0.74817 0.0
H2507 H 0.69089 0.85754 0.71661 0.0
H2508 H 0.70792 0.82011 0.65059 0.0
H2509 H 0.73241 0.79339 0.68202 0.0
H2510 H 0.701 0.89645 0.6824 0.0
H2511 H 0.66149 0.81746 0.59366 0.0
H2512 H 0.64709 0.76636 0.58594 0.0
H2513 H 0.62707 0.75222 0.66407 0.0
H2514 H 0.64103 0.80321 0.67212 0.0
H2515 H 0.65431 0.96746 0.5658 0.0
H2516 H 0.67642 0.94099 0.59962 0.0
H2517 H 0.5994 0.87807 0.5989 0.0
H2518 H 0.57738 0.904 0.56397 0.0
H2519 H 0.63354 0.8513 0.60265 0.0
H2520 H 0.63651 0.92993 0.65346 0.0
H2521 H 0.64614 0.9801 0.66335 0.0
H2522 H 0.7312 0.99313 0.66615 0.0
H2523 H 0.72204 0.94307 0.656 0.0
C2524 C 0.71429 0.82841 0.72692 0.0
C2525 C 0.72626 0.80975 0.71793 0.0
C2526 C 0.69987 0.84367 0.7087 0.0
C2527 C 0.69678 0.84092 0.68072 0.0
C2528 C 0.70905 0.82248 0.67179 0.0
C2529 C 0.72331 0.80712 0.68997 0.0
C2530 C 0.68113 0.85738 0.66108 0.0
C2531 C 0.6863 0.8864 0.66499 0.0
C2532 C 0.66123 0.84483 0.63831 0.0
C2533 C 0.65258 0.81415 0.63357 0.0
C2534 C 0.65393 0.80344 0.60915 0.0
C2535 C 0.64586 0.7745 0.60473 0.0
C2536 C 0.63626 0.75606 0.62454 0.0
C2537 C 0.63461 0.76652 0.64878 0.0
C2538 C 0.64262 0.79544 0.65329 0.0
C2539 C 0.64185 0.94818 0.57299 0.0
C2540 C 0.61376 0.93827 0.56193 0.0
C2541 C 0.65465 0.9329 0.59266 0.0
C2542 C 0.63988 0.90729 0.60268 0.0
C2543 C 0.6117 0.89755 0.59188 0.0
C2544 C 0.59894 0.91264 0.57187 0.0
C2545 C 0.65382 0.89048 0.62365 0.0
C2546 C 0.64828 0.86139 0.62002 0.0
C2547 C 0.67288 0.90285 0.64702 0.0
C2548 C 0.67856 0.9328 0.65377 0.0
C2549 C 0.65726 0.94352 0.65611 0.0
C2550 C 0.66263 0.97193 0.66175 0.0
C2551 C 0.68926 0.98981 0.66531 0.0
C2552 C 0.71059 0.97927 0.66337 0.0
C2553 C 0.70532 0.95086 0.65772 0.0
H2554 H 0.69338 0.01183 0.66959 0.0
H2555 H 0.63004 0.73366 0.62108 0.0
H2556 H 0.75087 0.27909 0.42964 0.0
H2557 H 0.72146 0.27189 0.46201 0.0
H2558 H 0.73814 0.19378 0.48496 0.0
H2559 H 0.76726 0.20087 0.45262 0.0
H2560 H 0.68584 0.22907 0.43227 0.0
H2561 H 0.70936 0.15924 0.5222 0.0
H2562 H 0.73648 0.16436 0.56819 0.0
H2563 H 0.73207 0.24817 0.57254 0.0
H2564 H 0.70482 0.24355 0.52663 0.0
H2565 H 0.63497 0.08078 0.4323 0.0
H2566 H 0.66096 0.13049 0.43645 0.0
H2567 H 0.59737 0.14828 0.46745 0.0
H2568 H 0.57074 0.09906 0.46233 0.0
H2569 H 0.65916 0.15964 0.50197 0.0
H2570 H 0.60178 0.18266 0.42377 0.0
H2571 H 0.57633 0.17614 0.37717 0.0
H2572 H 0.65044 0.18663 0.34913 0.0
H2573 H 0.67622 0.19273 0.39556 0.0
C2574 C 0.75002 0.26149 0.44312 0.0
C2575 C 0.75965 0.23948 0.43758 0.0
C2576 C 0.73319 0.25745 0.46184 0.0
C2577 C 0.72595 0.23131 0.47433 0.0
C2578 C 0.74247 0.21371 0.47476 0.0
C2579 C 0.75917 0.21763 0.45601 0.0
C2580 C 0.6967 0.21683 0.47336 0.0
C2581 C 0.67954 0.21458 0.44796 0.0
C2582 C 0.68813 0.19805 0.49363 0.0
C2583 C 0.70476 0.20091 0.52112 0.0
C2584 C 0.71408 0.17872 0.53301 0.0
C2585 C 0.7295 0.18154 0.55904 0.0
C2586 C 0.73586 0.20649 0.57332 0.0
C2587 C 0.72707 0.22882 0.56148 0.0
C2588 C 0.71165 0.22611 0.53546 0.0
C2589 C 0.6259 0.09545 0.43873 0.0
C2590 C 0.60086 0.08582 0.44714 0.0
C2591 C 0.6409 0.12376 0.44141 0.0
C2592 C 0.63119 0.14274 0.45277 0.0
C2593 C 0.60518 0.13381 0.45883 0.0
C2594 C 0.58986 0.10565 0.4555 0.0
C2595 C 0.64968 0.17096 0.46062 0.0
C2596 C 0.66463 0.17521 0.48699 0.0
C2597 C 0.65634 0.19157 0.44121 0.0
C2598 C 0.64092 0.18806 0.41319 0.0
C2599 C 0.61261 0.18335 0.40768 0.0
C2600 C 0.59813 0.17977 0.38129 0.0
C2601 C 0.61175 0.18095 0.3602 0.0
C2602 C 0.6399 0.18574 0.36547 0.0
C2603 C 0.65446 0.1893 0.39183 0.0
H2604 H 0.6005 0.17817 0.33978 0.0
H2605 H 0.74763 0.20854 0.59353 0.0
H2606 H 0.88951 0.67192 0.35029 0.0
H2607 H 0.92739 0.65234 0.35619 0.0
H2608 H 0.98338 0.73549 0.3561 0.0
H2609 H 0.94536 0.75539 0.34985 0.0
H2610 H 0.97459 0.65401 0.33546 0.0
H2611 H 0.03052 0.73893 0.41223 0.0
H2612 H 0.0227 0.77601 0.43681 0.0
H2613 H 0.94096 0.72473 0.43738 0.0
H2614 H 0.94849 0.68728 0.41317 0.0
H2615 H 0.06142 0.62933 0.47655 0.0
H2616 H 0.05819 0.65732 0.4365 0.0
H2617 H 0.98532 0.59375 0.40035 0.0
H2618 H 0.98989 0.56444 0.4395 0.0
H2619 H 0.01945 0.67736 0.4301 0.0
H2620 H 0.96304 0.60115 0.33884 0.0
H2621 H 0.97111 0.56416 0.31453 0.0
H2622 H 0.05713 0.59765 0.34324 0.0
H2623 H 0.04961 0.63451 0.36816 0.0
C2624 C 0.90975 0.68605 0.3506 0.0
C2625 C 0.91456 0.71523 0.35025 0.0
C2626 C 0.93138 0.67478 0.35374 0.0
C2627 C 0.95814 0.6925 0.35677 0.0
C2628 C 0.96282 0.72152 0.35388 0.0
C2629 C 0.94116 0.73284 0.35076 0.0
C2630 C 0.98047 0.68097 0.36902 0.0
C2631 C 0.98483 0.65919 0.35604 0.0
C2632 C 0.99449 0.68853 0.39549 0.0
C2633 C 0.98997 0.71056 0.41064 0.0
C2634 C 1.01094 0.7356 0.4177 0.0
C2635 C 1.00655 0.75665 0.43156 0.0
C2636 C 0.98132 0.75277 0.43856 0.0
C2637 C 0.96047 0.72775 0.43189 0.0
C2638 C 0.96479 0.70661 0.41812 0.0
C2639 C 0.04563 0.62044 0.45955 0.0
C2640 C 0.02578 0.59465 0.46143 0.0
C2641 C 0.04374 0.63665 0.43657 0.0
C2642 C 0.02136 0.62794 0.41543 0.0
C2643 C 1.00304 0.60094 0.41614 0.0
C2644 C 1.00539 0.58431 0.43885 0.0
C2645 C 1.01288 0.64909 0.39714 0.0
C2646 C 1.01078 0.67279 0.40907 0.0
C2647 C 1.00124 0.64328 0.36976 0.0
C2648 C 1.00573 0.62061 0.3554 0.0
C2649 C 0.98369 0.60063 0.34 0.0
C2650 C 0.98816 0.57957 0.32624 0.0
C2651 C 1.01461 0.57844 0.3275 0.0
C2652 C 0.03664 0.59831 0.34258 0.0
C2653 C 0.03227 0.6192 0.35665 0.0
H2654 H 0.01806 0.56222 0.31671 0.0
H2655 H 0.97794 0.76912 0.44922 0.0
H2656 H 0.35822 0.81832 0.29339 0.0
H2657 H 0.37812 0.86235 0.31824 0.0
H2658 H 0.35633 0.81953 0.39014 0.0
H2659 H 0.3332 0.77645 0.36417 0.0
H2660 H 0.34515 0.86341 0.38968 0.0
H2661 H 0.42626 0.84479 0.37298 0.0
H2662 H 0.45606 0.83566 0.34509 0.0
H2663 H 0.45732 0.91255 0.30296 0.0
H2664 H 0.42733 0.92199 0.33047 0.0
H2665 H 0.46817 0.91868 0.47886 0.0
H2666 H 0.42269 0.89679 0.45311 0.0
H2667 H 0.4246 0.97388 0.41041 0.0
H2668 H 0.46957 0.99634 0.43697 0.0
H2669 H 0.43752 0.92621 0.38693 0.0
H2670 H 0.36923 0.94916 0.41887 0.0
H2671 H 0.342 0.95674 0.45022 0.0
H2672 H 0.32088 0.86934 0.46987 0.0
H2673 H 0.34814 0.86119 0.43884 0.0
C2674 C 0.35834 0.81835 0.31464 0.0
C2675 C 0.34459 0.79429 0.32716 0.0
C2676 C 0.36972 0.8435 0.32889 0.0
C2677 C 0.36902 0.84436 0.35623 0.0
C2678 C 0.35683 0.81959 0.36901 0.0
C2679 C 0.34416 0.79486 0.35442 0.0
C2680 C 0.38044 0.87093 0.37164 0.0
C2681 C 0.36546 0.87705 0.38926 0.0
C2682 C 0.40632 0.88959 0.37006 0.0
C2683 C 0.42428 0.88388 0.3535 0.0
C2684 C 0.43276 0.85964 0.35764 0.0
C2685 C 0.4497 0.85443 0.34193 0.0
C2686 C 0.45849 0.87346 0.32219 0.0
C2687 C 0.45043 0.89779 0.3182 0.0
C2688 C 0.43348 0.90309 0.33384 0.0
C2689 C 0.45834 0.93128 0.46485 0.0
C2690 C 0.47257 0.95874 0.45908 0.0
C2691 C 0.43217 0.91897 0.45054 0.0
C2692 C 0.42056 0.93374 0.42975 0.0
C2693 C 0.43321 0.96232 0.42656 0.0
C2694 C 0.45908 0.97492 0.44145 0.0
C2695 C 0.40318 0.9172 0.40644 0.0
C2696 C 0.41689 0.91301 0.38687 0.0
C2697 C 0.37673 0.89979 0.40711 0.0
C2698 C 0.36099 0.90461 0.42659 0.0
C2699 C 0.3591 0.93159 0.43012 0.0
C2700 C 0.34354 0.93597 0.44777 0.0
C2701 C 0.32982 0.91356 0.46211 0.0
C2702 C 0.3316 0.8867 0.45881 0.0
C2703 C 0.34702 0.88217 0.4411 0.0
H2704 H 0.31766 0.91696 0.47565 0.0
H2705 H 0.4716 0.86939 0.31005 0.0
H2706 H 0.2215 0.34418 0.38725 0.0
H2707 H 0.19757 0.36264 0.4146 0.0
H2708 H 0.25705 0.44393 0.41605 0.0
H2709 H 0.28097 0.42573 0.38798 0.0
H2710 H 0.24425 0.42527 0.46659 0.0
H2711 H 0.19886 0.43707 0.37764 0.0
H2712 H 0.17565 0.42299 0.33126 0.0
H2713 H 0.11235 0.35957 0.36016 0.0
H2714 H 0.13538 0.37301 0.40675 0.0
H2715 H 0.16303 0.49316 0.51828 0.0
H2716 H 0.19174 0.4793 0.49296 0.0
H2717 H 0.13323 0.39726 0.47965 0.0
H2718 H 0.10408 0.41109 0.50457 0.0
H2719 H 0.14736 0.42025 0.43391 0.0
H2720 H 0.19373 0.40738 0.52299 0.0
H2721 H 0.21671 0.4219 0.56932 0.0
H2722 H 0.27813 0.48754 0.54021 0.0
H2723 H 0.25526 0.47369 0.49366 0.0
C2724 C 0.22933 0.36609 0.39305 0.0
C2725 C 0.25292 0.38362 0.3852 0.0
C2726 C 0.21572 0.37653 0.40877 0.0
C2727 C 0.22546 0.40465 0.41699 0.0
C2728 C 0.2493 0.42216 0.40977 0.0
C2729 C 0.26292 0.41173 0.39385 0.0
C2730 C 0.21048 0.41545 0.43319 0.0
C2731 C 0.22321 0.42467 0.45938 0.0
C2732 C 0.18293 0.41408 0.42374 0.0
C2733 C 0.16898 0.40591 0.39571 0.0
C2734 C 0.18011 0.41996 0.37412 0.0
C2735 C 0.16696 0.41213 0.34778 0.0
C2736 C 0.14257 0.39036 0.34276 0.0
C2737 C 0.13125 0.37642 0.36408 0.0
C2738 C 0.14433 0.38416 0.39045 0.0
C2739 C 0.15643 0.47203 0.51031 0.0
C2740 C 0.13121 0.45325 0.51324 0.0
C2741 C 0.17288 0.46415 0.49588 0.0
C2742 C 0.16458 0.43727 0.48452 0.0
C2743 C 0.13987 0.41817 0.48819 0.0
C2744 C 0.12329 0.42608 0.50244 0.0
C2745 C 0.18092 0.42953 0.46758 0.0
C2746 C 0.16844 0.42098 0.44115 0.0
C2747 C 0.20867 0.43154 0.47684 0.0
C2748 C 0.22264 0.43966 0.50483 0.0
C2749 C 0.21203 0.42504 0.52646 0.0
C2750 C 0.22505 0.43313 0.55277 0.0
C2751 C 0.24884 0.45567 0.55771 0.0
C2752 C 0.25969 0.47011 0.53635 0.0
C2753 C 0.24672 0.46214 0.51 0.0
H2754 H 0.25889 0.46191 0.57809 0.0
H2755 H 0.13241 0.38435 0.32236 0.0
H2756 H 0.33948 0.15422 0.67314 0.0
H2757 H 0.36253 0.13063 0.6491 0.0
H2758 H 0.42525 0.20855 0.64506 0.0
H2759 H 0.40239 0.23223 0.66908 0.0
H2760 H 0.41397 0.18462 0.59907 0.0
H2761 H 0.43289 0.15093 0.68798 0.0
H2762 H 0.42363 0.12813 0.73054 0.0
H2763 H 0.37862 0.05088 0.68874 0.0
H2764 H 0.38712 0.07335 0.64583 0.0
H2765 H 0.51103 0.12923 0.55991 0.0
H2766 H 0.487 0.15 0.5854 0.0
H2767 H 0.42085 0.07331 0.57756 0.0
H2768 H 0.4448 0.05231 0.5517 0.0
H2769 H 0.43287 0.09542 0.62874 0.0
H2770 H 0.41457 0.13006 0.53986 0.0
H2771 H 0.42634 0.15285 0.49805 0.0
H2772 H 0.47321 0.22865 0.54149 0.0
H2773 H 0.46201 0.20617 0.58365 0.0
C2774 C 0.35838 0.16641 0.66754 0.0
C2775 C 0.36877 0.19544 0.67333 0.0
C2776 C 0.37167 0.15275 0.65362 0.0
C2777 C 0.39606 0.16747 0.64514 0.0
C2778 C 0.40651 0.1964 0.65101 0.0
C2779 C 0.39322 0.21007 0.66485 0.0
C2780 C 0.41037 0.15312 0.62974 0.0
C2781 C 0.41835 0.1653 0.60596 0.0
C2782 C 0.41587 0.12741 0.63788 0.0
C2783 C 0.4103 0.11397 0.66361 0.0
C2784 C 0.42072 0.12918 0.6878 0.0
C2785 C 0.41566 0.11629 0.712 0.0
C2786 C 0.40046 0.08811 0.71233 0.0
C2787 C 0.39031 0.07274 0.68845 0.0
C2788 C 0.39522 0.08555 0.66418 0.0
C2789 C 0.49141 0.11657 0.56358 0.0
C2790 C 0.48005 0.08889 0.55345 0.0
C2791 C 0.47752 0.12866 0.57818 0.0
C2792 C 0.45174 0.11356 0.5834 0.0
C2793 C 0.44059 0.08567 0.57391 0.0
C2794 C 0.45437 0.07362 0.55899 0.0
C2795 C 0.43654 0.12703 0.59843 0.0
C2796 C 0.42841 0.1147 0.62203 0.0
C2797 C 0.43109 0.15268 0.5903 0.0
C2798 C 0.43765 0.16635 0.56496 0.0
C2799 C 0.42754 0.15153 0.54053 0.0
C2800 C 0.43409 0.1644 0.51676 0.0
C2801 C 0.45057 0.19216 0.51713 0.0
C2802 C 0.46047 0.20713 0.54125 0.0
C2803 C 0.45401 0.19435 0.56509 0.0
H2804 H 0.45563 0.20208 0.49871 0.0
H2805 H 0.39662 0.07816 0.73109 0.0
H2806 H 0.82139 0.3529 0.72146 0.0
H2807 H 0.85231 0.38054 0.69341 0.0
H2808 H 0.8967 0.31986 0.70484 0.0
H2809 H 0.86562 0.29192 0.73312 0.0
H2810 H 0.93256 0.37267 0.70672 0.0
H2811 H 0.85271 0.32368 0.64531 0.0
H2812 H 0.80369 0.30719 0.62589 0.0
H2813 H 0.80268 0.39224 0.61162 0.0
H2814 H 0.85164 0.40927 0.63134 0.0
H2815 H 1.0076 0.4379 0.60231 0.0
H2816 H 0.98088 0.4053 0.63168 0.0
H2817 H 0.92214 0.45136 0.61815 0.0
H2818 H 0.94785 0.48278 0.58848 0.0
H2819 H 0.89445 0.40142 0.61653 0.0
H2820 H 0.97382 0.45065 0.681 0.0
H2821 H 0.02294 0.467 0.70018 0.0
H2822 H 0.02509 0.38182 0.70823 0.0
H2823 H 0.97602 0.36498 0.68884 0.0
C2824 C 0.83768 0.34525 0.71814 0.0
C2825 C 0.84062 0.31982 0.72981 0.0
C2826 C 0.85548 0.36121 0.70183 0.0
C2827 C 0.87709 0.35253 0.6964 0.0
C2828 C 0.88041 0.32738 0.70842 0.0
C2829 C 0.86242 0.31123 0.72464 0.0
C2830 C 0.89564 0.36951 0.67798 0.0
C2831 C 0.92414 0.37862 0.68687 0.0
C2832 C 0.88523 0.37791 0.65197 0.0
C2833 C 0.8558 0.36776 0.64004 0.0
C2834 C 0.842 0.33888 0.63822 0.0
C2835 C 0.81422 0.32943 0.62713 0.0
C2836 C 0.80006 0.34866 0.61759 0.0
C2837 C 0.81367 0.37738 0.61906 0.0
C2838 C 0.84143 0.38694 0.63017 0.0
C2839 C 0.98911 0.4412 0.60576 0.0
C2840 C 0.98016 0.46327 0.59265 0.0
C2841 C 0.9737 0.42247 0.6228 0.0
C2842 C 0.94907 0.42546 0.62775 0.0
C2843 C 0.94063 0.44785 0.61493 0.0
C2844 C 0.95567 0.46615 0.59781 0.0
C2845 C 0.93148 0.40549 0.64547 0.0
C2846 C 0.90301 0.39563 0.63639 0.0
C2847 C 0.94197 0.39653 0.67128 0.0
C2848 C 0.97134 0.40659 0.68323 0.0
C2849 C 0.98481 0.43543 0.68675 0.0
C2850 C 1.01263 0.44477 0.69766 0.0
C2851 C 0.02715 0.42546 0.70534 0.0
C2852 C 1.01383 0.39675 0.70223 0.0
C2853 C 0.98602 0.3873 0.69131 0.0
H2854 H 0.04869 0.43274 0.71376 0.0
H2855 H 0.77856 0.34131 0.609 0.0
H2856 H 0.277 0.69582 0.76768 0.0
H2857 H 0.25426 0.64834 0.7505 0.0
H2858 H 0.25313 0.67916 0.6697 0.0
H2859 H 0.27626 0.72684 0.68691 0.0
H2860 H 0.20502 0.63617 0.72415 0.0
H2861 H 0.24904 0.63008 0.62717 0.0
H2862 H 0.29417 0.63725 0.61626 0.0
H2863 H 0.32738 0.62674 0.69887 0.0
H2864 H 0.28238 0.61902 0.71029 0.0
H2865 H 0.11544 0.61753 0.60818 0.0
H2866 H 0.1557 0.63014 0.64344 0.0
H2867 H 0.16352 0.54701 0.641 0.0
H2868 H 0.12279 0.53393 0.60561 0.0
H2869 H 0.21333 0.59247 0.64254 0.0
H2870 H 0.14523 0.55772 0.69253 0.0
H2871 H 0.10062 0.54856 0.7053 0.0
H2872 H 0.1174 0.63623 0.72097 0.0
H2873 H 0.16183 0.64607 0.70774 0.0
C2874 C 0.27238 0.69238 0.74624 0.0
C2875 C 0.27779 0.71495 0.72847 0.0
C2876 C 0.25965 0.6652 0.73652 0.0
C2877 C 0.25213 0.66018 0.7089 0.0
C2878 C 0.25923 0.68249 0.69115 0.0
C2879 C 0.2721 0.70975 0.70091 0.0
C2880 C 0.23209 0.63354 0.69843 0.0
C2881 C 0.207 0.6261 0.70669 0.0
C2882 C 0.23511 0.61943 0.67656 0.0
C2883 C 0.26221 0.62397 0.6696 0.0
C2884 C 0.26586 0.62903 0.64301 0.0
C2885 C 0.29147 0.63327 0.63674 0.0
C2886 C 0.31362 0.63246 0.65686 0.0
C2887 C 0.31022 0.62742 0.68331 0.0
C2888 C 0.28467 0.62315 0.68969 0.0
C2889 C 0.12565 0.60184 0.61496 0.0
C2890 C 0.1158 0.57465 0.60405 0.0
C2891 C 0.14858 0.60906 0.63522 0.0
C2892 C 0.16214 0.5893 0.645 0.0
C2893 C 0.15306 0.56239 0.63374 0.0
C2894 C 0.12987 0.55504 0.61348 0.0
C2895 C 0.18607 0.59779 0.66674 0.0
C2896 C 0.21178 0.60165 0.66071 0.0
C2897 C 0.18378 0.60826 0.69104 0.0
C2898 C 0.15699 0.60261 0.69913 0.0
C2899 C 0.13937 0.57509 0.69853 0.0
C2900 C 0.11408 0.56978 0.70585 0.0
C2901 C 0.10618 0.59179 0.71395 0.0
C2902 C 0.12356 0.61918 0.71473 0.0
C2903 C 0.14883 0.62463 0.70735 0.0
H2904 H 0.08661 0.58763 0.71963 0.0
H2905 H 0.33343 0.63576 0.65195 0.0
loop_
_geom_bond_atom_site_label_1
_geom_bond_atom_site_label_2
_geom_bond_distance
_geom_bond_site_symmetry_2
_ccdc_geom_bond_type
C0 Eu1 2.835 . S
C0 C2 1.500 . S
C0 O20 1.257 . S
C0 O21 1.260 . S
Eu1 C0 2.835 . S
Eu1 O20 2.473 . S
Eu1 O21 2.480 . S
Eu1 O22 2.430 . S
Eu1 O23 2.670 . S
Eu1 O24 2.394 . S
Eu1 O29 2.355 . S
Eu1 O31 2.374 . S
C2 C0 1.500 . S
C2 C3 1.377 . S
C2 C7 1.377 . S
C3 C2 1.377 . S
C3 C4 1.395 . S
C3 H32 0.931 . S
C4 C3 1.395 . S
C4 C5 1.383 . S
C4 H33 0.931 . S
C5 C4 1.383 . S
C5 C6 1.394 . S
C6 C5 1.394 . S
C6 C7 1.378 . S
C6 H34 0.931 . S
C7 C2 1.377 . S
C7 C6 1.378 . S
C7 H35 0.931 . S
C8 O22 1.259 . S
C8 O23 1.270 . S
C9 O24 1.251 . S
C9 O25 1.251 . S
C10 Eu11 2.835 . S
C10 C12 1.500 . S
C10 O26 1.257 . S
C10 O27 1.260 . S
Eu11 C10 2.835 . S
Eu11 O23 2.355 . S
Eu11 O25 2.374 . S
Eu11 O26 2.473 . S
Eu11 O27 2.480 . S
Eu11 O28 2.430 . S
Eu11 O29 2.670 . S
Eu11 O30 2.394 . S
C12 C10 1.500 . S
C12 C13 1.377 . S
C12 C17 1.377 . S
C13 C12 1.377 . S
C13 C14 1.395 . S
C13 H36 0.931 . S
C14 C13 1.395 . S
C14 C15 1.383 . S
C14 H37 0.931 . S
C15 C14 1.383 . S
C15 C16 1.394 . S
C16 C15 1.394 . S
C16 C17 1.378 . S
C16 H38 0.931 . S
C17 C12 1.377 . S
C17 C16 1.378 . S
C17 H39 0.931 . S
C18 O28 1.259 . S
C18 O29 1.270 . S
C19 O30 1.251 . S
C19 O31 1.251 . S
O20 C0 1.257 . S
O20 Eu1 2.473 . S
O21 C0 1.260 . S
O21 Eu1 2.480 . S
O22 Eu1 2.430 . S
O22 C8 1.259 . S
O23 Eu1 2.670 . S
O23 C8 1.270 . S
O23 Eu11 2.355 . S
O24 Eu1 2.394 . S
O24 C9 1.251 . S
O25 C9 1.251 . S
O25 Eu11 2.374 . S
O26 C10 1.257 . S
O26 Eu11 2.473 . S
O27 C10 1.260 . S
O27 Eu11 2.480 . S
O28 Eu11 2.430 . S
O28 C18 1.259 . S
O29 Eu1 2.355 . S
O29 Eu11 2.670 . S
O29 C18 1.270 . S
O30 Eu11 2.394 . S
O30 C19 1.251 . S
O31 Eu1 2.374 . S
O31 C19 1.251 . S
H32 C3 0.931 . S
H33 C4 0.931 . S
H34 C6 0.931 . S
H35 C7 0.931 . S
H36 C13 0.931 . S
H37 C14 0.931 . S
H38 C16 0.931 . S
H39 C17 0.931 . S
C40 Eu41 2.835 . S
C40 C42 1.500 . S
C40 O60 1.257 . S
C40 O61 1.260 . S
Eu41 C40 2.835 . S
Eu41 O60 2.473 . S
Eu41 O61 2.480 . S
Eu41 O62 2.430 . S
Eu41 O63 2.670 . S
Eu41 O64 2.394 . S
Eu41 O69 2.355 . S
Eu41 O71 2.374 . S
C42 C40 1.500 . S
C42 C43 1.377 . S
C42 C47 1.377 . S
C43 C42 1.377 . S
C43 C44 1.395 . S
C43 H72 0.931 . S
C44 C43 1.395 . S
C44 C45 1.383 . S
C44 H73 0.931 . S
C45 C44 1.383 . S
C45 C46 1.394 . S
C46 C45 1.394 . S
C46 C47 1.378 . S
C46 H74 0.931 . S
C47 C42 1.377 . S
C47 C46 1.378 . S
C47 H75 0.931 . S
C48 O62 1.259 . S
C48 O63 1.270 . S
C49 O64 1.251 . S
C49 O65 1.251 . S
C50 Eu51 2.835 . S
C50 C52 1.500 . S
C50 O66 1.257 . S
C50 O67 1.260 . S
Eu51 C50 2.835 . S
Eu51 O63 2.355 . S
Eu51 O65 2.374 . S
Eu51 O66 2.473 . S
Eu51 O67 2.480 . S
Eu51 O68 2.430 . S
Eu51 O69 2.670 . S
Eu51 O70 2.394 . S
C52 C50 1.500 . S
C52 C53 1.377 . S
C52 C57 1.377 . S
C53 C52 1.377 . S
C53 C54 1.395 . S
C53 H76 0.931 . S
C54 C53 1.395 . S
C54 C55 1.383 . S
C54 H77 0.931 . S
C55 C54 1.383 . S
C55 C56 1.394 . S
C56 C55 1.394 . S
C56 C57 1.378 . S
C56 H78 0.931 . S
C57 C52 1.377 . S
C57 C56 1.378 . S
C57 H79 0.931 . S
C58 O68 1.259 . S
C58 O69 1.270 . S
C59 O70 1.251 . S
C59 O71 1.251 . S
O60 C40 1.257 . S
O60 Eu41 2.473 . S
O61 C40 1.260 . S
O61 Eu41 2.480 . S
O62 Eu41 2.430 . S
O62 C48 1.259 . S
O63 Eu41 2.670 . S
O63 C48 1.270 . S
O63 Eu51 2.355 . S
O64 Eu41 2.394 . S
O64 C49 1.251 . S
O65 C49 1.251 . S
O65 Eu51 2.374 . S
O66 C50 1.257 . S
O66 Eu51 2.473 . S
O67 C50 1.260 . S
O67 Eu51 2.480 . S
O68 Eu51 2.430 . S
O68 C58 1.259 . S
O69 Eu41 2.355 . S
O69 Eu51 2.670 . S
O69 C58 1.270 . S
O70 Eu51 2.394 . S
O70 C59 1.251 . S
O71 Eu41 2.374 . S
O71 C59 1.251 . S
H72 C43 0.931 . S
H73 C44 0.931 . S
H74 C46 0.931 . S
H75 C47 0.931 . S
H76 C53 0.931 . S
H77 C54 0.931 . S
H78 C56 0.931 . S
H79 C57 0.931 . S
C80 Eu81 2.835 . S
C80 C82 1.500 . S
C80 O100 1.257 . S
C80 O101 1.260 . S
Eu81 C80 2.835 . S
Eu81 O100 2.473 . S
Eu81 O101 2.480 . S
Eu81 O102 2.430 . S
Eu81 O103 2.670 . S
Eu81 O104 2.394 . S
Eu81 O109 2.355 . S
Eu81 O111 2.374 . S
C82 C80 1.500 . S
C82 C83 1.377 . S
C82 C87 1.377 . S
C83 C82 1.377 . S
C83 C84 1.395 . S
C83 H112 0.931 . S
C84 C83 1.395 . S
C84 C85 1.383 . S
C84 H113 0.931 . S
C85 C84 1.383 . S
C85 C86 1.394 . S
C86 C85 1.394 . S
C86 C87 1.378 . S
C86 H114 0.931 . S
C87 C82 1.377 . S
C87 C86 1.378 . S
C87 H115 0.931 . S
C88 O102 1.259 . S
C88 O103 1.270 . S
C89 O104 1.251 . S
C89 O105 1.251 . S
C90 Eu91 2.835 . S
C90 C92 1.500 . S
C90 O106 1.257 . S
C90 O107 1.260 . S
Eu91 C90 2.835 . S
Eu91 O103 2.355 . S
Eu91 O105 2.374 . S
Eu91 O106 2.473 . S
Eu91 O107 2.480 . S
Eu91 O108 2.430 . S
Eu91 O109 2.670 . S
Eu91 O110 2.394 . S
C92 C90 1.500 . S
C92 C93 1.377 . S
C92 C97 1.377 . S
C93 C92 1.377 . S
C93 C94 1.395 . S
C93 H116 0.931 . S
C94 C93 1.395 . S
C94 C95 1.383 . S
C94 H117 0.931 . S
C95 C94 1.383 . S
C95 C96 1.394 . S
C96 C95 1.394 . S
C96 C97 1.378 . S
C96 H118 0.931 . S
C97 C92 1.377 . S
C97 C96 1.378 . S
C97 H119 0.931 . S
C98 O108 1.259 . S
C98 O109 1.270 . S
C99 O110 1.251 . S
C99 O111 1.251 . S
O100 C80 1.257 . S
O100 Eu81 2.473 . S
O101 C80 1.260 . S
O101 Eu81 2.480 . S
O102 Eu81 2.430 . S
O102 C88 1.259 . S
O103 Eu81 2.670 . S
O103 C88 1.270 . S
O103 Eu91 2.355 . S
O104 Eu81 2.394 . S
O104 C89 1.251 . S
O105 C89 1.251 . S
O105 Eu91 2.374 . S
O106 C90 1.257 . S
O106 Eu91 2.473 . S
O107 C90 1.260 . S
O107 Eu91 2.480 . S
O108 Eu91 2.430 . S
O108 C98 1.259 . S
O109 Eu81 2.355 . S
O109 Eu91 2.670 . S
O109 C98 1.270 . S
O110 Eu91 2.394 . S
O110 C99 1.251 . S
O111 Eu81 2.374 . S
O111 C99 1.251 . S
H112 C83 0.931 . S
H113 C84 0.931 . S
H114 C86 0.931 . S
H115 C87 0.931 . S
H116 C93 0.931 . S
H117 C94 0.931 . S
H118 C96 0.931 . S
H119 C97 0.931 . S
C120 Eu121 2.835 . S
C120 C122 1.500 . S
C120 O140 1.257 . S
C120 O141 1.260 . S
Eu121 C120 2.835 . S
Eu121 O140 2.473 . S
Eu121 O141 2.480 . S
Eu121 O142 2.430 . S
Eu121 O143 2.670 . S
Eu121 O144 2.394 . S
Eu121 O149 2.355 . S
Eu121 O151 2.374 . S
C122 C120 1.500 . S
C122 C123 1.377 . S
C122 C127 1.377 . S
C123 C122 1.377 . S
C123 C124 1.395 . S
C123 H152 0.931 . S
C124 C123 1.395 . S
C124 C125 1.383 . S
C124 H153 0.931 . S
C125 C124 1.383 . S
C125 C126 1.394 . S
C126 C125 1.394 . S
C126 C127 1.378 . S
C126 H154 0.931 . S
C127 C122 1.377 . S
C127 C126 1.378 . S
C127 H155 0.931 . S
C128 O142 1.259 . S
C128 O143 1.270 . S
C129 O144 1.251 . S
C129 O145 1.251 . S
C130 Eu131 2.835 . S
C130 C132 1.500 . S
C130 O146 1.257 . S
C130 O147 1.260 . S
Eu131 C130 2.835 . S
Eu131 O143 2.355 . S
Eu131 O145 2.374 . S
Eu131 O146 2.473 . S
Eu131 O147 2.480 . S
Eu131 O148 2.430 . S
Eu131 O149 2.670 . S
Eu131 O150 2.394 . S
C132 C130 1.500 . S
C132 C133 1.377 . S
C132 C137 1.377 . S
C133 C132 1.377 . S
C133 C134 1.395 . S
C133 H156 0.931 . S
C134 C133 1.395 . S
C134 C135 1.383 . S
C134 H157 0.931 . S
C135 C134 1.383 . S
C135 C136 1.394 . S
C136 C135 1.394 . S
C136 C137 1.378 . S
C136 H158 0.931 . S
C137 C132 1.377 . S
C137 C136 1.378 . S
C137 H159 0.931 . S
C138 O148 1.259 . S
C138 O149 1.270 . S
C139 O150 1.251 . S
C139 O151 1.251 . S
O140 C120 1.257 . S
O140 Eu121 2.473 . S
O141 C120 1.260 . S
O141 Eu121 2.480 . S
O142 Eu121 2.430 . S
O142 C128 1.259 . S
O143 Eu121 2.670 . S
O143 C128 1.270 . S
O143 Eu131 2.355 . S
O144 Eu121 2.394 . S
O144 C129 1.251 . S
O145 C129 1.251 . S
O145 Eu131 2.374 . S
O146 C130 1.257 . S
O146 Eu131 2.473 . S
O147 C130 1.260 . S
O147 Eu131 2.480 . S
O148 Eu131 2.430 . S
O148 C138 1.259 . S
O149 Eu121 2.355 . S
O149 Eu131 2.670 . S
O149 C138 1.270 . S
O150 Eu131 2.394 . S
O150 C139 1.251 . S
O151 Eu121 2.374 . S
O151 C139 1.251 . S
H152 C123 0.931 . S
H153 C124 0.931 . S
H154 C126 0.931 . S
H155 C127 0.931 . S
H156 C133 0.931 . S
H157 C134 0.931 . S
H158 C136 0.931 . S
H159 C137 0.931 . S
C160 Eu161 2.835 . S
C160 C162 1.500 . S
C160 O180 1.257 . S
C160 O181 1.260 . S
Eu161 C160 2.835 . S
Eu161 O180 2.473 . S
Eu161 O181 2.480 . S
Eu161 O182 2.430 . S
Eu161 O183 2.670 . S
Eu161 O184 2.394 . S
Eu161 O189 2.355 . S
Eu161 O191 2.374 . S
C162 C160 1.500 . S
C162 C163 1.377 . S
C162 C167 1.377 . S
C163 C162 1.377 . S
C163 C164 1.395 . S
C163 H192 0.931 . S
C164 C163 1.395 . S
C164 C165 1.383 . S
C164 H193 0.931 . S
C165 C164 1.383 . S
C165 C166 1.394 . S
C166 C165 1.394 . S
C166 C167 1.378 . S
C166 H194 0.931 . S
C167 C162 1.377 . S
C167 C166 1.378 . S
C167 H195 0.931 . S
C168 O182 1.259 . S
C168 O183 1.270 . S
C169 O184 1.251 . S
C169 O185 1.251 . S
C170 Eu171 2.835 . S
C170 C172 1.500 . S
C170 O186 1.257 . S
C170 O187 1.260 . S
Eu171 C170 2.835 . S
Eu171 O183 2.355 . S
Eu171 O185 2.374 . S
Eu171 O186 2.473 . S
Eu171 O187 2.480 . S
Eu171 O188 2.430 . S
Eu171 O189 2.670 . S
Eu171 O190 2.394 . S
C172 C170 1.500 . S
C172 C173 1.377 . S
C172 C177 1.377 . S
C173 C172 1.377 . S
C173 C174 1.395 . S
C173 H196 0.931 . S
C174 C173 1.395 . S
C174 C175 1.383 . S
C174 H197 0.931 . S
C175 C174 1.383 . S
C175 C176 1.394 . S
C176 C175 1.394 . S
C176 C177 1.378 . S
C176 H198 0.931 . S
C177 C172 1.377 . S
C177 C176 1.378 . S
C177 H199 0.931 . S
C178 O188 1.259 . S
C178 O189 1.270 . S
C179 O190 1.251 . S
C179 O191 1.251 . S
O180 C160 1.257 . S
O180 Eu161 2.473 . S
O181 C160 1.260 . S
O181 Eu161 2.480 . S
O182 Eu161 2.430 . S
O182 C168 1.259 . S
O183 Eu161 2.670 . S
O183 C168 1.270 . S
O183 Eu171 2.355 . S
O184 Eu161 2.394 . S
O184 C169 1.251 . S
O185 C169 1.251 . S
O185 Eu171 2.374 . S
O186 C170 1.257 . S
O186 Eu171 2.473 . S
O187 C170 1.260 . S
O187 Eu171 2.480 . S
O188 Eu171 2.430 . S
O188 C178 1.259 . S
O189 Eu161 2.355 . S
O189 Eu171 2.670 . S
O189 C178 1.270 . S
O190 Eu171 2.394 . S
O190 C179 1.251 . S
O191 Eu161 2.374 . S
O191 C179 1.251 . S
H192 C163 0.931 . S
H193 C164 0.931 . S
H194 C166 0.931 . S
H195 C167 0.931 . S
H196 C173 0.931 . S
H197 C174 0.931 . S
H198 C176 0.931 . S
H199 C177 0.931 . S
C200 Eu201 2.835 . S
C200 C202 1.500 . S
C200 O220 1.257 . S
C200 O221 1.260 . S
Eu201 C200 2.835 . S
Eu201 O220 2.473 . S
Eu201 O221 2.480 . S
Eu201 O222 2.430 . S
Eu201 O223 2.670 . S
Eu201 O224 2.394 . S
Eu201 O229 2.355 . S
Eu201 O231 2.374 . S
C202 C200 1.500 . S
C202 C203 1.377 . S
C202 C207 1.377 . S
C203 C202 1.377 . S
C203 C204 1.395 . S
C203 H232 0.931 . S
C204 C203 1.395 . S
C204 C205 1.383 . S
C204 H233 0.931 . S
C205 C204 1.383 . S
C205 C206 1.394 . S
C206 C205 1.394 . S
C206 C207 1.378 . S
C206 H234 0.931 . S
C207 C202 1.377 . S
C207 C206 1.378 . S
C207 H235 0.931 . S
C208 O222 1.259 . S
C208 O223 1.270 . S
C209 O224 1.251 . S
C209 O225 1.251 . S
C210 Eu211 2.835 . S
C210 C212 1.500 . S
C210 O226 1.257 . S
C210 O227 1.260 . S
Eu211 C210 2.835 . S
Eu211 O223 2.355 . S
Eu211 O225 2.374 . S
Eu211 O226 2.473 . S
Eu211 O227 2.480 . S
Eu211 O228 2.430 . S
Eu211 O229 2.670 . S
Eu211 O230 2.394 . S
C212 C210 1.500 . S
C212 C213 1.377 . S
C212 C217 1.377 . S
C213 C212 1.377 . S
C213 C214 1.395 . S
C213 H236 0.931 . S
C214 C213 1.395 . S
C214 C215 1.383 . S
C214 H237 0.931 . S
C215 C214 1.383 . S
C215 C216 1.394 . S
C216 C215 1.394 . S
C216 C217 1.378 . S
C216 H238 0.931 . S
C217 C212 1.377 . S
C217 C216 1.378 . S
C217 H239 0.931 . S
C218 O228 1.259 . S
C218 O229 1.270 . S
C219 O230 1.251 . S
C219 O231 1.251 . S
O220 C200 1.257 . S
O220 Eu201 2.473 . S
O221 C200 1.260 . S
O221 Eu201 2.480 . S
O222 Eu201 2.430 . S
O222 C208 1.259 . S
O223 Eu201 2.670 . S
O223 C208 1.270 . S
O223 Eu211 2.355 . S
O224 Eu201 2.394 . S
O224 C209 1.251 . S
O225 C209 1.251 . S
O225 Eu211 2.374 . S
O226 C210 1.257 . S
O226 Eu211 2.473 . S
O227 C210 1.260 . S
O227 Eu211 2.480 . S
O228 Eu211 2.430 . S
O228 C218 1.259 . S
O229 Eu201 2.355 . S
O229 Eu211 2.670 . S
O229 C218 1.270 . S
O230 Eu211 2.394 . S
O230 C219 1.251 . S
O231 Eu201 2.374 . S
O231 C219 1.251 . S
H232 C203 0.931 . S
H233 C204 0.931 . S
H234 C206 0.931 . S
H235 C207 0.931 . S
H236 C213 0.931 . S
H237 C214 0.931 . S
H238 C216 0.931 . S
H239 C217 0.931 . S
C240 Eu241 2.835 . S
C240 C242 1.500 . S
C240 O260 1.257 . S
C240 O261 1.260 . S
Eu241 C240 2.835 . S
Eu241 O260 2.473 . S
Eu241 O261 2.480 . S
Eu241 O262 2.430 . S
Eu241 O263 2.670 . S
Eu241 O264 2.394 . S
Eu241 O269 2.355 . S
Eu241 O271 2.374 . S
C242 C240 1.500 . S
C242 C243 1.377 . S
C242 C247 1.377 . S
C243 C242 1.377 . S
C243 C244 1.395 . S
C243 H272 0.931 . S
C244 C243 1.395 . S
C244 C245 1.383 . S
C244 H273 0.931 . S
C245 C244 1.383 . S
C245 C246 1.394 . S
C246 C245 1.394 . S
C246 C247 1.378 . S
C246 H274 0.931 . S
C247 C242 1.377 . S
C247 C246 1.378 . S
C247 H275 0.931 . S
C248 O262 1.259 . S
C248 O263 1.270 . S
C249 O264 1.251 . S
C249 O265 1.251 . S
C250 Eu251 2.835 . S
C250 C252 1.500 . S
C250 O266 1.257 . S
C250 O267 1.260 . S
Eu251 C250 2.835 . S
Eu251 O263 2.355 . S
Eu251 O265 2.374 . S
Eu251 O266 2.473 . S
Eu251 O267 2.480 . S
Eu251 O268 2.430 . S
Eu251 O269 2.670 . S
Eu251 O270 2.394 . S
C252 C250 1.500 . S
C252 C253 1.377 . S
C252 C257 1.377 . S
C253 C252 1.377 . S
C253 C254 1.395 . S
C253 H276 0.931 . S
C254 C253 1.395 . S
C254 C255 1.383 . S
C254 H277 0.931 . S
C255 C254 1.383 . S
C255 C256 1.394 . S
C256 C255 1.394 . S
C256 C257 1.378 . S
C256 H278 0.931 . S
C257 C252 1.377 . S
C257 C256 1.378 . S
C257 H279 0.931 . S
C258 O268 1.259 . S
C258 O269 1.270 . S
C259 O270 1.251 . S
C259 O271 1.251 . S
O260 C240 1.257 . S
O260 Eu241 2.473 . S
O261 C240 1.260 . S
O261 Eu241 2.480 . S
O262 Eu241 2.430 . S
O262 C248 1.259 . S
O263 Eu241 2.670 . S
O263 C248 1.270 . S
O263 Eu251 2.355 . S
O264 Eu241 2.394 . S
O264 C249 1.251 . S
O265 C249 1.251 . S
O265 Eu251 2.374 . S
O266 C250 1.257 . S
O266 Eu251 2.473 . S
O267 C250 1.260 . S
O267 Eu251 2.480 . S
O268 Eu251 2.430 . S
O268 C258 1.259 . S
O269 Eu241 2.355 . S
O269 Eu251 2.670 . S
O269 C258 1.270 . S
O270 Eu251 2.394 . S
O270 C259 1.251 . S
O271 Eu241 2.374 . S
O271 C259 1.251 . S
H272 C243 0.931 . S
H273 C244 0.931 . S
H274 C246 0.931 . S
H275 C247 0.931 . S
H276 C253 0.931 . S
H277 C254 0.931 . S
H278 C256 0.931 . S
H279 C257 0.931 . S
C280 Eu281 2.835 . S
C280 C282 1.500 . S
C280 O300 1.257 . S
C280 O301 1.260 . S
Eu281 C280 2.835 . S
Eu281 O300 2.473 . S
Eu281 O301 2.480 . S
Eu281 O302 2.430 . S
Eu281 O303 2.670 . S
Eu281 O304 2.394 . S
Eu281 O309 2.355 . S
Eu281 O311 2.374 . S
C282 C280 1.500 . S
C282 C283 1.377 . S
C282 C287 1.377 . S
C283 C282 1.377 . S
C283 C284 1.395 . S
C283 H312 0.931 . S
C284 C283 1.395 . S
C284 C285 1.383 . S
C284 H313 0.931 . S
C285 C284 1.383 . S
C285 C286 1.394 . S
C286 C285 1.394 . S
C286 C287 1.378 . S
C286 H314 0.931 . S
C287 C282 1.377 . S
C287 C286 1.378 . S
C287 H315 0.931 . S
C288 O302 1.259 . S
C288 O303 1.270 . S
C289 O304 1.251 . S
C289 O305 1.251 . S
C290 Eu291 2.835 . S
C290 C292 1.500 . S
C290 O306 1.257 . S
C290 O307 1.260 . S
Eu291 C290 2.835 . S
Eu291 O303 2.355 . S
Eu291 O305 2.374 . S
Eu291 O306 2.473 . S
Eu291 O307 2.480 . S
Eu291 O308 2.430 . S
Eu291 O309 2.670 . S
Eu291 O310 2.394 . S
C292 C290 1.500 . S
C292 C293 1.377 . S
C292 C297 1.377 . S
C293 C292 1.377 . S
C293 C294 1.395 . S
C293 H316 0.931 . S
C294 C293 1.395 . S
C294 C295 1.383 . S
C294 H317 0.931 . S
C295 C294 1.383 . S
C295 C296 1.394 . S
C296 C295 1.394 . S
C296 C297 1.378 . S
C296 H318 0.931 . S
C297 C292 1.377 . S
C297 C296 1.378 . S
C297 H319 0.931 . S
C298 O308 1.259 . S
C298 O309 1.270 . S
C299 O310 1.251 . S
C299 O311 1.251 . S
O300 C280 1.257 . S
O300 Eu281 2.473 . S
O301 C280 1.260 . S
O301 Eu281 2.480 . S
O302 Eu281 2.430 . S
O302 C288 1.259 . S
O303 Eu281 2.670 . S
O303 C288 1.270 . S
O303 Eu291 2.355 . S
O304 Eu281 2.394 . S
O304 C289 1.251 . S
O305 C289 1.251 . S
O305 Eu291 2.374 . S
O306 C290 1.257 . S
O306 Eu291 2.473 . S
O307 C290 1.260 . S
O307 Eu291 2.480 . S
O308 Eu291 2.430 . S
O308 C298 1.259 . S
O309 Eu281 2.355 . S
O309 Eu291 2.670 . S
O309 C298 1.270 . S
O310 Eu291 2.394 . S
O310 C299 1.251 . S
O311 Eu281 2.374 . S
O311 C299 1.251 . S
H312 C283 0.931 . S
H313 C284 0.931 . S
H314 C286 0.931 . S
H315 C287 0.931 . S
H316 C293 0.931 . S
H317 C294 0.931 . S
H318 C296 0.931 . S
H319 C297 0.931 . S
C320 O332 1.241 . S
C320 O333 1.280 . S
C321 O334 1.277 . S
C321 O335 1.245 . S
C322 O346 1.247 . S
C322 O348 1.289 . S
Mg323 O324 1.926 1_455 S
Mg323 O333 1.984 1_455 S
Mg323 O335 1.988 1_455 S
Mg323 O336 2.061 . S
O324 Mg323 1.926 1_655 S
O324 Mg325 1.986 . S
O324 Mg326 1.917 1_655 S
Mg325 O324 1.986 . S
Mg325 O332 2.042 . S
Mg325 O334 2.041 . S
Mg325 O340 2.038 1_545 S
Mg325 O348 2.238 1_545 S
Mg326 O324 1.917 1_455 S
Mg326 O327 1.917 1_545 S
Mg326 O337 2.106 . S
Mg326 O339 2.088 1_545 S
Mg326 O348 2.106 1_445 S
Mg326 O349 2.079 . S
O327 Mg326 1.917 1_565 S
O327 Mg328 1.926 . S
O327 Mg329 1.986 1_565 S
Mg328 O327 1.926 . S
Mg328 O342 1.984 . S
Mg328 O345 1.988 . S
Mg328 O346 2.061 1_455 S
Mg329 O327 1.986 1_545 S
Mg329 O337 2.238 . S
Mg329 O341 2.042 1_545 S
Mg329 O343 2.041 1_545 S
Mg329 O350 2.038 . S
C330 O336 1.247 . S
C330 O337 1.289 . S
C331 O349 1.245 . S
C331 O350 1.274 . S
O332 C320 1.241 . S
O332 Mg325 2.042 . S
O333 C320 1.280 . S
O333 Mg323 1.984 1_655 S
O334 C321 1.277 . S
O334 Mg325 2.041 . S
O335 C321 1.245 . S
O335 Mg323 1.988 1_655 S
O336 Mg323 2.061 . S
O336 C330 1.247 . S
O337 Mg326 2.106 . S
O337 Mg329 2.238 . S
O337 C330 1.289 . S
C338 O339 1.216 1_655 S
C338 O340 1.274 . S
O339 Mg326 2.088 1_565 S
O339 C338 1.216 1_455 S
O340 Mg325 2.038 1_565 S
O340 C338 1.274 . S
O341 Mg329 2.042 1_565 S
O341 C344 1.241 . S
O342 Mg328 1.984 . S
O342 C344 1.280 . S
O343 Mg329 2.041 1_565 S
O343 C347 1.277 . S
C344 O341 1.241 . S
C344 O342 1.280 . S
O345 Mg328 1.988 . S
O345 C347 1.245 . S
O346 C322 1.247 . S
O346 Mg328 2.061 1_655 S
C347 O343 1.277 . S
C347 O345 1.245 . S
O348 C322 1.289 . S
O348 Mg325 2.238 1_565 S
O348 Mg326 2.106 1_665 S
O349 Mg326 2.079 . S
O349 C331 1.245 . S
O350 Mg329 2.038 . S
O350 C331 1.274 . S
C351 O363 1.241 . S
C351 O364 1.280 . S
C352 O365 1.277 . S
C352 O366 1.245 . S
C353 O377 1.247 . S
C353 O379 1.289 1_565 S
Mg354 O355 1.926 . S
Mg354 O364 1.984 . S
Mg354 O366 1.988 1_554 S
Mg354 O367 2.061 . S
O355 Mg354 1.926 . S
O355 Mg356 1.986 1_554 S
O355 Mg357 1.918 . S
Mg356 O355 1.986 1_556 S
Mg356 O363 2.042 1_556 S
Mg356 O365 2.041 . S
Mg356 O371 2.038 1_556 S
Mg356 O379 2.238 . S
Mg357 O355 1.918 . S
Mg357 O358 1.916 1_554 S
Mg357 O368 2.108 . S
Mg357 O370 2.081 . S
Mg357 O379 2.105 1_554 S
Mg357 O380 2.076 1_554 S
O358 Mg357 1.916 1_556 S
O358 Mg359 1.926 1_545 S
O358 Mg360 1.986 1_556 S
Mg359 O358 1.926 1_565 S
Mg359 O373 1.984 . S
Mg359 O376 1.988 1_556 S
Mg359 O377 2.061 . S
Mg360 O358 1.986 1_554 S
Mg360 O368 2.238 . S
Mg360 O372 2.042 1_554 S
Mg360 O374 2.041 1_545 S
Mg360 O381 2.038 1_554 S
C361 O367 1.247 . S
C361 O368 1.289 . S
C362 O380 1.245 . S
C362 O381 1.274 . S
O363 C351 1.241 . S
O363 Mg356 2.042 1_554 S
O364 C351 1.280 . S
O364 Mg354 1.984 . S
O365 C352 1.277 . S
O365 Mg356 2.041 . S
O366 C352 1.245 . S
O366 Mg354 1.988 1_556 S
O367 Mg354 2.061 . S
O367 C361 1.247 . S
O368 Mg357 2.108 . S
O368 Mg360 2.238 . S
O368 C361 1.289 . S
C369 O370 1.245 1_565 S
C369 O371 1.274 1_565 S
O370 Mg357 2.081 . S
O370 C369 1.245 1_545 S
O371 Mg356 2.038 1_554 S
O371 C369 1.274 1_545 S
O372 Mg360 2.042 1_556 S
O372 C375 1.241 1_545 S
O373 Mg359 1.984 . S
O373 C375 1.280 . S
O374 Mg360 2.041 1_565 S
O374 C378 1.277 . S
C375 O372 1.241 1_565 S
C375 O373 1.280 . S
O376 Mg359 1.988 1_554 S
O376 C378 1.245 . S
O377 C353 1.247 . S
O377 Mg359 2.061 . S
C378 O374 1.277 . S
C378 O376 1.245 . S
O379 C353 1.289 1_545 S
O379 Mg356 2.238 . S
O379 Mg357 2.105 1_556 S
O380 Mg357 2.076 1_556 S
O380 C362 1.245 . S
O381 Mg360 2.038 1_556 S
O381 C362 1.274 . S
C382 O394 1.241 . S
C382 O395 1.280 . S
C383 O396 1.277 1_556 S
C383 O397 1.245 1_556 S
C384 O408 1.247 1_556 S
C384 O410 1.289 1_556 S
Mg385 O386 1.926 . S
Mg385 O395 1.984 . S
Mg385 O397 1.988 . S
Mg385 O398 2.061 1_655 S
O386 Mg385 1.926 . S
O386 Mg387 1.986 . S
O386 Mg388 1.917 1_655 S
Mg387 O386 1.986 . S
Mg387 O394 2.042 . S
Mg387 O396 2.041 . S
Mg387 O402 2.038 . S
Mg387 O410 2.238 . S
Mg388 O386 1.917 1_455 S
Mg388 O389 1.917 . S
Mg388 O399 2.106 . S
Mg388 O401 2.079 1_455 S
Mg388 O410 2.106 1_455 S
Mg388 O411 2.079 . S
O389 Mg388 1.917 . S
O389 Mg390 1.926 . S
O389 Mg391 1.986 . S
Mg390 O389 1.926 . S
Mg390 O404 1.984 . S
Mg390 O407 1.988 . S
Mg390 O408 2.061 1_455 S
Mg391 O389 1.986 . S
Mg391 O399 2.238 . S
Mg391 O403 2.042 . S
Mg391 O405 2.041 . S
Mg391 O412 2.038 . S
C392 O398 1.247 . S
C392 O399 1.289 . S
C393 O411 1.260 . S
C393 O412 1.285 . S
O394 C382 1.241 . S
O394 Mg387 2.042 . S
O395 C382 1.280 . S
O395 Mg385 1.984 . S
O396 C383 1.277 1_554 S
O396 Mg387 2.041 . S
O397 C383 1.245 1_554 S
O397 Mg385 1.988 . S
O398 Mg385 2.061 1_455 S
O398 C392 1.247 . S
O399 Mg388 2.106 . S
O399 Mg391 2.238 . S
O399 C392 1.289 . S
C400 O401 1.245 . S
C400 O402 1.274 . S
O401 Mg388 2.079 1_655 S
O401 C400 1.245 . S
O402 Mg387 2.038 . S
O402 C400 1.274 . S
O403 Mg391 2.042 . S
O403 C406 1.241 . S
O404 Mg390 1.984 . S
O404 C406 1.280 . S
O405 Mg391 2.041 . S
O405 C409 1.277 . S
C406 O403 1.241 . S
C406 O404 1.280 . S
O407 Mg390 1.988 . S
O407 C409 1.245 . S
O408 C384 1.247 1_554 S
O408 Mg390 2.061 1_655 S
C409 O405 1.277 . S
C409 O407 1.245 . S
O410 C384 1.289 1_554 S
O410 Mg387 2.238 . S
O410 Mg388 2.106 1_655 S
O411 Mg388 2.079 . S
O411 C393 1.260 . S
O412 Mg391 2.038 . S
O412 C393 1.285 . S
C413 O425 1.241 . S
C413 O426 1.280 . S
C414 O427 1.277 . S
C414 O428 1.245 . S
C415 O439 1.247 . S
C415 O441 1.289 . S
Mg416 O417 1.926 . S
Mg416 O426 1.984 . S
Mg416 O428 1.988 1_554 S
Mg416 O429 2.061 . S
O417 Mg416 1.926 . S
O417 Mg418 1.986 . S
O417 Mg419 1.917 . S
Mg418 O417 1.986 . S
Mg418 O425 2.042 . S
Mg418 O427 2.041 1_554 S
Mg418 O433 2.038 . S
Mg418 O441 2.238 1_554 S
Mg419 O417 1.917 . S
Mg419 O420 1.917 . S
Mg419 O430 2.106 . S
Mg419 O432 2.079 . S
Mg419 O441 2.106 1_554 S
Mg419 O442 2.079 1_554 S
O420 Mg419 1.917 . S
O420 Mg421 1.926 . S
O420 Mg422 1.986 . S
Mg421 O420 1.926 . S
Mg421 O435 1.984 1_554 S
Mg421 O438 1.988 . S
Mg421 O439 2.061 1_554 S
Mg422 O420 1.986 . S
Mg422 O430 2.238 . S
Mg422 O434 2.042 . S
Mg422 O436 2.041 . S
Mg422 O443 2.038 1_554 S
C423 O429 1.247 . S
C423 O430 1.289 . S
C424 O442 1.245 . S
C424 O443 1.274 . S
O425 C413 1.241 . S
O425 Mg418 2.042 . S
O426 C413 1.280 . S
O426 Mg416 1.984 . S
O427 C414 1.277 . S
O427 Mg418 2.041 1_556 S
O428 C414 1.245 . S
O428 Mg416 1.988 1_556 S
O429 Mg416 2.061 . S
O429 C423 1.247 . S
O430 Mg419 2.106 . S
O430 Mg422 2.238 . S
O430 C423 1.289 . S
C431 O432 1.245 . S
C431 O433 1.274 . S
O432 Mg419 2.079 . S
O432 C431 1.245 . S
O433 Mg418 2.038 . S
O433 C431 1.274 . S
O434 Mg422 2.042 . S
O434 C437 1.241 1_554 S
O435 Mg421 1.984 1_556 S
O435 C437 1.280 . S
O436 Mg422 2.041 . S
O436 C440 1.277 . S
C437 O434 1.241 1_556 S
C437 O435 1.280 . S
O438 Mg421 1.988 . S
O438 C440 1.245 . S
O439 C415 1.247 . S
O439 Mg421 2.061 1_556 S
C440 O436 1.277 . S
C440 O438 1.245 . S
O441 C415 1.289 . S
O441 Mg418 2.238 1_556 S
O441 Mg419 2.106 1_556 S
O442 Mg419 2.079 1_556 S
O442 C424 1.245 . S
O443 Mg422 2.038 1_556 S
O443 C424 1.274 . S
C444 O456 1.241 . S
C444 O457 1.280 . S
C445 O458 1.277 . S
C445 O459 1.245 1_655 S
C446 O470 1.221 1_655 S
C446 O472 1.289 . S
Mg447 O448 1.926 . S
Mg447 O457 1.984 1_455 S
Mg447 O459 1.988 . S
Mg447 O460 2.061 . S
O448 Mg447 1.926 . S
O448 Mg449 1.986 1_455 S
O448 Mg450 1.917 . S
Mg449 O448 1.986 1_655 S
Mg449 O456 2.042 . S
Mg449 O458 2.041 . S
Mg449 O464 2.038 . S
Mg449 O472 2.238 . S
Mg450 O448 1.917 . S
Mg450 O451 1.917 . S
Mg450 O461 2.106 . S
Mg450 O463 2.079 . S
Mg450 O472 2.106 1_455 S
Mg450 O473 2.079 . S
O451 Mg450 1.917 . S
O451 Mg452 1.926 . S
O451 Mg453 1.986 . S
Mg452 O451 1.926 . S
Mg452 O466 1.984 . S
Mg452 O469 1.988 . S
Mg452 O470 2.094 . S
Mg453 O451 1.986 . S
Mg453 O461 2.238 . S
Mg453 O465 2.042 . S
Mg453 O467 2.041 . S
Mg453 O474 2.038 . S
C454 O460 1.247 . S
C454 O461 1.289 . S
C455 O473 1.245 . S
C455 O474 1.274 . S
O456 C444 1.241 . S
O456 Mg449 2.042 . S
O457 C444 1.280 . S
O457 Mg447 1.984 1_655 S
O458 C445 1.277 . S
O458 Mg449 2.041 . S
O459 C445 1.245 1_455 S
O459 Mg447 1.988 . S
O460 Mg447 2.061 . S
O460 C454 1.247 . S
O461 Mg450 2.106 . S
O461 Mg453 2.238 . S
O461 C454 1.289 . S
C462 O463 1.245 1_655 S
C462 O464 1.274 . S
O463 Mg450 2.079 . S
O463 C462 1.245 1_455 S
O464 Mg449 2.038 . S
O464 C462 1.274 . S
O465 Mg453 2.042 . S
O465 C468 1.241 . S
O466 Mg452 1.984 . S
O466 C468 1.280 . S
O467 Mg453 2.041 . S
O467 C471 1.277 . S
C468 O465 1.241 . S
C468 O466 1.280 . S
O469 Mg452 1.988 . S
O469 C471 1.245 . S
O470 C446 1.221 1_455 S
O470 Mg452 2.094 . S
C471 O467 1.277 . S
C471 O469 1.245 . S
O472 C446 1.289 . S
O472 Mg449 2.238 . S
O472 Mg450 2.106 1_655 S
O473 Mg450 2.079 . S
O473 C455 1.245 . S
O474 Mg453 2.038 . S
O474 C455 1.274 . S
C475 O487 1.241 . S
C475 O488 1.280 . S
C476 O489 1.277 . S
C476 O490 1.245 . S
C477 O501 1.247 . S
C477 O503 1.289 . S
Mg478 O479 1.926 . S
Mg478 O488 1.984 . S
Mg478 O490 1.988 . S
Mg478 O491 2.061 . S
O479 Mg478 1.926 . S
O479 Mg480 1.986 . S
O479 Mg481 1.945 . S
Mg480 O479 1.986 . S
Mg480 O487 2.042 . S
Mg480 O489 2.041 . S
Mg480 O495 2.038 1_545 S
Mg480 O503 2.238 1_545 S
Mg481 O479 1.945 . S
Mg481 O482 1.889 1_545 S
Mg481 O492 2.114 . S
Mg481 O494 2.061 1_545 S
Mg481 O503 2.100 1_545 S
Mg481 O504 2.096 . S
O482 Mg481 1.889 1_565 S
O482 Mg483 1.926 . S
O482 Mg484 1.994 . S
Mg483 O482 1.926 . S
Mg483 O497 1.984 . S
Mg483 O500 1.988 . S
Mg483 O501 2.061 . S
Mg484 O482 1.994 . S
Mg484 O492 2.218 1_565 S
Mg484 O496 2.063 . S
Mg484 O498 2.061 . S
Mg484 O505 2.018 1_565 S
C485 O491 1.247 . S
C485 O492 1.289 . S
C486 O504 1.245 . S
C486 O505 1.274 . S
O487 C475 1.241 . S
O487 Mg480 2.042 . S
O488 C475 1.280 . S
O488 Mg478 1.984 . S
O489 C476 1.277 . S
O489 Mg480 2.041 . S
O490 C476 1.245 . S
O490 Mg478 1.988 . S
O491 Mg478 2.061 . S
O491 C485 1.247 . S
O492 Mg481 2.114 . S
O492 Mg484 2.218 1_545 S
O492 C485 1.289 . S
C493 O494 1.245 . S
C493 O495 1.274 . S
O494 Mg481 2.061 1_565 S
O494 C493 1.245 . S
O495 Mg480 2.038 1_565 S
O495 C493 1.274 . S
O496 Mg484 2.063 . S
O496 C499 1.241 . S
O497 Mg483 1.984 . S
O497 C499 1.280 . S
O498 Mg484 2.061 . S
O498 C502 1.277 . S
C499 O496 1.241 . S
C499 O497 1.280 . S
O500 Mg483 1.988 . S
O500 C502 1.245 . S
O501 C477 1.247 . S
O501 Mg483 2.061 . S
C502 O498 1.277 . S
C502 O500 1.245 . S
O503 C477 1.289 . S
O503 Mg480 2.238 1_565 S
O503 Mg481 2.100 1_565 S
O504 Mg481 2.096 . S
O504 C486 1.245 . S
O505 Mg484 2.018 1_545 S
O505 C486 1.274 . S
H506 C524 0.951 . S
H507 C526 0.951 . S
H508 C528 0.950 . S
H509 C529 0.950 . S
H510 C531 0.950 . S
H511 C534 0.950 . S
H512 C535 0.950 . S
H513 C537 0.950 . S
H514 C538 0.950 . S
H515 C539 0.951 . S
H516 C541 0.951 . S
H517 C543 0.950 . S
H518 C544 0.950 . S
H519 C546 0.950 . S
H520 C549 0.950 . S
H521 C550 0.950 . S
H522 C552 0.950 . S
H523 C553 0.950 . S
C524 H506 0.951 . S
C524 C525 1.366 . S
C524 C526 1.388 . S
C525 C524 1.366 . S
C525 C529 1.385 . S
C526 H507 0.951 . S
C526 C524 1.388 . S
C526 C527 1.366 . S
C527 C526 1.366 . S
C527 C528 1.414 . S
C527 C530 1.499 . S
C528 H508 0.950 . S
C528 C527 1.414 . S
C528 C529 1.374 . S
C529 H509 0.950 . S
C529 C525 1.385 . S
C529 C528 1.374 . S
C530 C527 1.499 . S
C530 C531 1.373 . S
C530 C532 1.389 . S
C531 H510 0.950 . S
C531 C530 1.373 . S
C531 C547 1.377 . S
C532 C530 1.389 . S
C532 C533 1.524 . S
C532 C546 1.377 . S
C533 C532 1.524 . S
C533 C534 1.397 . S
C533 C538 1.363 . S
C534 H511 0.950 . S
C534 C533 1.397 . S
C534 C535 1.334 . S
C535 H512 0.950 . S
C535 C534 1.334 . S
C535 C536 1.287 . S
C536 C535 1.287 . S
C536 C537 1.524 . S
C536 H555 0.913 . S
C537 H513 0.950 . S
C537 C536 1.524 . S
C537 C538 1.415 . S
C538 H514 0.950 . S
C538 C533 1.363 . S
C538 C537 1.415 . S
C539 H515 0.951 . S
C539 C540 1.366 . S
C539 C541 1.388 . S
C540 C539 1.366 . S
C540 C544 1.385 . S
C541 H516 0.951 . S
C541 C539 1.388 . S
C541 C542 1.366 . S
C542 C541 1.366 . S
C542 C543 1.414 . S
C542 C545 1.499 . S
C543 H517 0.950 . S
C543 C542 1.414 . S
C543 C544 1.374 . S
C544 H518 0.950 . S
C544 C540 1.385 . S
C544 C543 1.374 . S
C545 C542 1.499 . S
C545 C546 1.373 . S
C545 C547 1.389 . S
C546 H519 0.950 . S
C546 C532 1.377 . S
C546 C545 1.373 . S
C547 C531 1.377 . S
C547 C545 1.389 . S
C547 C548 1.524 . S
C548 C547 1.524 . S
C548 C549 1.397 . S
C548 C553 1.363 . S
C549 H520 0.950 . S
C549 C548 1.397 . S
C549 C550 1.334 . S
C550 H521 0.950 . S
C550 C549 1.334 . S
C550 C551 1.287 . S
C551 C550 1.287 . S
C551 C552 1.524 . S
C551 H554 0.999 . S
C552 H522 0.950 . S
C552 C551 1.524 . S
C552 C553 1.415 . S
C553 H523 0.950 . S
C553 C548 1.363 . S
C553 C552 1.415 . S
H554 C551 0.999 . S
H555 C536 0.913 . S
H556 C574 0.951 . S
H557 C576 0.951 . S
H558 C578 0.950 . S
H559 C579 0.950 . S
H560 C581 0.950 . S
H561 C584 0.950 . S
H562 C585 0.950 . S
H563 C587 0.950 . S
H564 C588 0.950 . S
H565 C589 0.951 . S
H566 C591 0.951 . S
H567 C593 0.950 . S
H568 C594 0.950 . S
H569 C596 0.950 . S
H570 C599 0.950 . S
H571 C600 0.950 . S
H572 C602 0.950 . S
H573 C603 0.950 . S
C574 H556 0.951 . S
C574 C575 1.366 . S
C574 C576 1.388 . S
C575 C574 1.366 . S
C575 C579 1.385 . S
C576 H557 0.951 . S
C576 C574 1.388 . S
C576 C577 1.366 . S
C577 C576 1.366 . S
C577 C578 1.414 . S
C577 C580 1.499 . S
C578 H558 0.950 . S
C578 C577 1.414 . S
C578 C579 1.374 . S
C579 H559 0.950 . S
C579 C575 1.385 . S
C579 C578 1.374 . S
C580 C577 1.499 . S
C580 C581 1.373 . S
C580 C582 1.389 . S
C581 H560 0.950 . S
C581 C580 1.373 . S
C581 C597 1.377 . S
C582 C580 1.389 . S
C582 C583 1.524 . S
C582 C596 1.377 . S
C583 C582 1.524 . S
C583 C584 1.397 . S
C583 C588 1.363 . S
C584 H561 0.950 . S
C584 C583 1.397 . S
C584 C585 1.334 . S
C585 H562 0.950 . S
C585 C584 1.334 . S
C585 C586 1.287 . S
C586 C585 1.287 . S
C586 C587 1.524 . S
C586 H605 0.913 . S
C587 H563 0.950 . S
C587 C586 1.524 . S
C587 C588 1.415 . S
C588 H564 0.950 . S
C588 C583 1.363 . S
C588 C587 1.415 . S
C589 H565 0.951 . S
C589 C590 1.366 . S
C589 C591 1.388 . S
C590 C589 1.366 . S
C590 C594 1.385 . S
C591 H566 0.951 . S
C591 C589 1.388 . S
C591 C592 1.366 . S
C592 C591 1.366 . S
C592 C593 1.414 . S
C592 C595 1.499 . S
C593 H567 0.950 . S
C593 C592 1.414 . S
C593 C594 1.374 . S
C594 H568 0.950 . S
C594 C590 1.385 . S
C594 C593 1.374 . S
C595 C592 1.499 . S
C595 C596 1.373 . S
C595 C597 1.389 . S
C596 H569 0.950 . S
C596 C582 1.377 . S
C596 C595 1.373 . S
C597 C581 1.377 . S
C597 C595 1.389 . S
C597 C598 1.524 . S
C598 C597 1.524 . S
C598 C599 1.397 . S
C598 C603 1.363 . S
C599 H570 0.950 . S
C599 C598 1.397 . S
C599 C600 1.334 . S
C600 H571 0.950 . S
C600 C599 1.334 . S
C600 C601 1.287 . S
C601 C600 1.287 . S
C601 C602 1.524 . S
C601 H604 0.999 1_655 S
C602 H572 0.950 . S
C602 C601 1.524 . S
C602 C603 1.415 . S
C603 H573 0.950 . S
C603 C598 1.363 . S
C603 C602 1.415 . S
H604 C601 0.999 1_455 S
H605 C586 0.913 . S
H606 C624 0.951 . S
H607 C626 0.951 . S
H608 C628 0.950 . S
H609 C629 0.950 . S
H610 C631 0.950 . S
H611 C634 0.950 . S
H612 C635 0.950 . S
H613 C637 0.950 . S
H614 C638 0.950 . S
H615 C639 0.951 . S
H616 C641 0.951 . S
H617 C643 0.950 . S
H618 C644 0.950 . S
H619 C646 0.950 . S
H620 C649 0.950 . S
H621 C650 0.950 . S
H622 C652 0.950 . S
H623 C653 0.950 . S
C624 H606 0.951 . S
C624 C625 1.366 . S
C624 C626 1.388 . S
C625 C624 1.366 . S
C625 C629 1.385 . S
C626 H607 0.951 . S
C626 C624 1.388 . S
C626 C627 1.366 . S
C627 C626 1.366 . S
C627 C628 1.414 . S
C627 C630 1.499 . S
C628 H608 0.950 . S
C628 C627 1.414 . S
C628 C629 1.374 . S
C629 H609 0.950 . S
C629 C625 1.385 . S
C629 C628 1.374 . S
C630 C627 1.499 . S
C630 C631 1.373 . S
C630 C632 1.389 . S
C631 H610 0.950 . S
C631 C630 1.373 . S
C631 C647 1.377 . S
C632 C630 1.389 . S
C632 C633 1.524 . S
C632 C646 1.377 . S
C633 C632 1.524 . S
C633 C634 1.397 . S
C633 C638 1.363 . S
C634 H611 0.950 . S
C634 C633 1.397 . S
C634 C635 1.334 . S
C635 H612 0.950 . S
C635 C634 1.334 . S
C635 C636 1.287 . S
C636 C635 1.287 . S
C636 C637 1.524 . S
C636 H655 0.913 . S
C637 H613 0.950 . S
C637 C636 1.524 . S
C637 C638 1.415 . S
C638 H614 0.950 . S
C638 C633 1.363 . S
C638 C637 1.415 . S
C639 H615 0.951 . S
C639 C640 1.366 . S
C639 C641 1.388 . S
C640 C639 1.366 . S
C640 C644 1.385 . S
C641 H616 0.951 . S
C641 C639 1.388 . S
C641 C642 1.366 . S
C642 C641 1.366 . S
C642 C643 1.414 . S
C642 C645 1.499 . S
C643 H617 0.950 . S
C643 C642 1.414 . S
C643 C644 1.374 . S
C644 H618 0.950 . S
C644 C640 1.385 . S
C644 C643 1.374 . S
C645 C642 1.499 . S
C645 C646 1.373 . S
C645 C647 1.389 . S
C646 H619 0.950 . S
C646 C632 1.377 . S
C646 C645 1.373 . S
C647 C631 1.377 . S
C647 C645 1.389 . S
C647 C648 1.524 . S
C648 C647 1.524 . S
C648 C649 1.397 . S
C648 C653 1.363 . S
C649 H620 0.950 . S
C649 C648 1.397 . S
C649 C650 1.334 . S
C650 H621 0.950 . S
C650 C649 1.334 . S
C650 C651 1.287 . S
C651 C650 1.287 . S
C651 C652 1.524 . S
C651 H654 0.999 1_655 S
C652 H622 0.950 . S
C652 C651 1.524 . S
C652 C653 1.415 . S
C653 H623 0.950 . S
C653 C648 1.363 . S
C653 C652 1.415 . S
H654 C651 0.999 1_455 S
H655 C636 0.913 . S
H656 C674 0.951 . S
H657 C676 0.951 . S
H658 C678 0.950 . S
H659 C679 0.950 . S
H660 C681 0.950 . S
H661 C684 0.950 . S
H662 C685 0.950 . S
H663 C687 0.950 . S
H664 C688 0.950 . S
H665 C689 0.951 . S
H666 C691 0.951 . S
H667 C693 0.950 . S
H668 C694 0.950 . S
H669 C696 0.950 . S
H670 C699 0.950 . S
H671 C700 0.950 . S
H672 C702 0.950 . S
H673 C703 0.950 . S
C674 H656 0.951 . S
C674 C675 1.366 . S
C674 C676 1.388 . S
C675 C674 1.366 . S
C675 C679 1.385 . S
C676 H657 0.951 . S
C676 C674 1.388 . S
C676 C677 1.366 . S
C677 C676 1.366 . S
C677 C678 1.414 . S
C677 C680 1.499 . S
C678 H658 0.950 . S
C678 C677 1.414 . S
C678 C679 1.374 . S
C679 H659 0.950 . S
C679 C675 1.385 . S
C679 C678 1.374 . S
C680 C677 1.499 . S
C680 C681 1.373 . S
C680 C682 1.389 . S
C681 H660 0.950 . S
C681 C680 1.373 . S
C681 C697 1.377 . S
C682 C680 1.389 . S
C682 C683 1.524 . S
C682 C696 1.377 . S
C683 C682 1.524 . S
C683 C684 1.397 . S
C683 C688 1.363 . S
C684 H661 0.950 . S
C684 C683 1.397 . S
C684 C685 1.334 . S
C685 H662 0.950 . S
C685 C684 1.334 . S
C685 C686 1.287 . S
C686 C685 1.287 . S
C686 C687 1.524 . S
C686 H705 0.913 . S
C687 H663 0.950 . S
C687 C686 1.524 . S
C687 C688 1.415 . S
C688 H664 0.950 . S
C688 C683 1.363 . S
C688 C687 1.415 . S
C689 H665 0.951 . S
C689 C690 1.366 . S
C689 C691 1.388 . S
C690 C689 1.366 . S
C690 C694 1.385 . S
C691 H666 0.951 . S
C691 C689 1.388 . S
C691 C692 1.366 . S
C692 C691 1.366 . S
C692 C693 1.414 . S
C692 C695 1.499 . S
C693 H667 0.950 . S
C693 C692 1.414 . S
C693 C694 1.374 . S
C694 H668 0.950 . S
C694 C690 1.385 . S
C694 C693 1.374 . S
C695 C692 1.499 . S
C695 C696 1.373 . S
C695 C697 1.389 . S
C696 H669 0.950 . S
C696 C682 1.377 . S
C696 C695 1.373 . S
C697 C681 1.377 . S
C697 C695 1.389 . S
C697 C698 1.524 . S
C698 C697 1.524 . S
C698 C699 1.397 . S
C698 C703 1.363 . S
C699 H670 0.950 . S
C699 C698 1.397 . S
C699 C700 1.334 . S
C700 H671 0.950 . S
C700 C699 1.334 . S
C700 C701 1.287 . S
C701 C700 1.287 . S
C701 C702 1.524 . S
C701 H704 0.999 . S
C702 H672 0.950 . S
C702 C701 1.524 . S
C702 C703 1.415 . S
C703 H673 0.950 . S
C703 C698 1.363 . S
C703 C702 1.415 . S
H704 C701 0.999 . S
H705 C686 0.913 . S
H706 C724 0.951 . S
H707 C726 0.951 . S
H708 C728 0.950 . S
H709 C729 0.950 . S
H710 C731 0.950 . S
H711 C734 0.950 . S
H712 C735 0.950 . S
H713 C737 0.950 . S
H714 C738 0.950 . S
H715 C739 0.951 . S
H716 C741 0.951 . S
H717 C743 0.950 . S
H718 C744 0.950 . S
H719 C746 0.950 . S
H720 C749 0.950 . S
H721 C750 0.950 1_545 S
H722 C752 0.950 . S
H723 C753 0.950 . S
C724 H706 0.951 . S
C724 C725 1.366 . S
C724 C726 1.388 . S
C725 C724 1.366 . S
C725 C729 1.385 . S
C726 H707 0.951 . S
C726 C724 1.388 . S
C726 C727 1.366 . S
C727 C726 1.366 . S
C727 C728 1.414 . S
C727 C730 1.499 . S
C728 H708 0.950 . S
C728 C727 1.414 . S
C728 C729 1.374 . S
C729 H709 0.950 . S
C729 C725 1.385 . S
C729 C728 1.374 . S
C730 C727 1.499 . S
C730 C731 1.373 . S
C730 C732 1.389 . S
C731 H710 0.950 . S
C731 C730 1.373 . S
C731 C747 1.377 . S
C732 C730 1.389 . S
C732 C733 1.524 . S
C732 C746 1.377 . S
C733 C732 1.524 . S
C733 C734 1.397 . S
C733 C738 1.363 . S
C734 H711 0.950 . S
C734 C733 1.397 . S
C734 C735 1.334 . S
C735 H712 0.950 . S
C735 C734 1.334 . S
C735 C736 1.287 . S
C736 C735 1.287 . S
C736 C737 1.524 . S
C736 H755 0.913 . S
C737 H713 0.950 . S
C737 C736 1.524 . S
C737 C738 1.415 . S
C738 H714 0.950 . S
C738 C733 1.363 . S
C738 C737 1.415 . S
C739 H715 0.951 . S
C739 C740 1.366 . S
C739 C741 1.388 . S
C740 C739 1.366 . S
C740 C744 1.385 . S
C741 H716 0.951 . S
C741 C739 1.388 . S
C741 C742 1.366 . S
C742 C741 1.366 . S
C742 C743 1.414 . S
C742 C745 1.499 . S
C743 H717 0.950 . S
C743 C742 1.414 . S
C743 C744 1.374 . S
C744 H718 0.950 . S
C744 C740 1.385 . S
C744 C743 1.374 . S
C745 C742 1.499 . S
C745 C746 1.373 . S
C745 C747 1.389 . S
C746 H719 0.950 . S
C746 C732 1.377 . S
C746 C745 1.373 . S
C747 C731 1.377 . S
C747 C745 1.389 . S
C747 C748 1.524 . S
C748 C747 1.524 . S
C748 C749 1.397 . S
C748 C753 1.363 . S
C749 H720 0.950 . S
C749 C748 1.397 . S
C749 C750 1.334 . S
C750 H721 0.950 1_565 S
C750 C749 1.334 . S
C750 C751 1.287 . S
C751 C750 1.287 . S
C751 C752 1.524 . S
C751 H754 0.999 1_565 S
C752 H722 0.950 . S
C752 C751 1.524 . S
C752 C753 1.415 . S
C753 H723 0.950 . S
C753 C748 1.363 . S
C753 C752 1.415 . S
H754 C751 0.999 1_545 S
H755 C736 0.913 . S
H756 C774 0.951 . S
H757 C776 0.951 . S
H758 C778 0.950 . S
H759 C779 0.950 . S
H760 C781 0.950 . S
H761 C784 0.950 . S
H762 C785 0.950 . S
H763 C787 0.950 . S
H764 C788 0.950 . S
H765 C789 0.951 . S
H766 C791 0.951 . S
H767 C793 0.950 . S
H768 C794 0.950 . S
H769 C796 0.950 . S
H770 C799 0.950 . S
H771 C800 0.950 . S
H772 C802 0.950 . S
H773 C803 0.950 . S
C774 H756 0.951 . S
C774 C775 1.366 . S
C774 C776 1.388 . S
C775 C774 1.366 . S
C775 C779 1.385 . S
C776 H757 0.951 . S
C776 C774 1.388 . S
C776 C777 1.366 . S
C777 C776 1.366 . S
C777 C778 1.414 . S
C777 C780 1.499 . S
C778 H758 0.950 . S
C778 C777 1.414 . S
C778 C779 1.374 . S
C779 H759 0.950 . S
C779 C775 1.385 . S
C779 C778 1.374 . S
C780 C777 1.499 . S
C780 C781 1.373 . S
C780 C782 1.389 . S
C781 H760 0.950 . S
C781 C780 1.373 . S
C781 C797 1.377 . S
C782 C780 1.389 . S
C782 C783 1.524 . S
C782 C796 1.377 . S
C783 C782 1.524 . S
C783 C784 1.397 . S
C783 C788 1.363 . S
C784 H761 0.950 . S
C784 C783 1.397 . S
C784 C785 1.334 . S
C785 H762 0.950 . S
C785 C784 1.334 . S
C785 C786 1.287 . S
C786 C785 1.287 . S
C786 C787 1.524 . S
C786 H805 0.913 . S
C787 H763 0.950 . S
C787 C786 1.524 . S
C787 C788 1.415 . S
C788 H764 0.950 . S
C788 C783 1.363 . S
C788 C787 1.415 . S
C789 H765 0.951 . S
C789 C790 1.366 . S
C789 C791 1.388 . S
C790 C789 1.366 . S
C790 C794 1.385 . S
C791 H766 0.951 . S
C791 C789 1.388 . S
C791 C792 1.366 . S
C792 C791 1.366 . S
C792 C793 1.414 . S
C792 C795 1.499 . S
C793 H767 0.950 . S
C793 C792 1.414 . S
C793 C794 1.374 . S
C794 H768 0.950 . S
C794 C790 1.385 . S
C794 C793 1.374 . S
C795 C792 1.499 . S
C795 C796 1.373 . S
C795 C797 1.389 . S
C796 H769 0.950 . S
C796 C782 1.377 . S
C796 C795 1.373 . S
C797 C781 1.377 . S
C797 C795 1.389 . S
C797 C798 1.524 . S
C798 C797 1.524 . S
C798 C799 1.397 . S
C798 C803 1.363 . S
C799 H770 0.950 . S
C799 C798 1.397 . S
C799 C800 1.334 . S
C800 H771 0.950 . S
C800 C799 1.334 . S
C800 C801 1.287 . S
C801 C800 1.287 . S
C801 C802 1.524 . S
C801 H804 0.999 . S
C802 H772 0.950 . S
C802 C801 1.524 . S
C802 C803 1.415 . S
C803 H773 0.950 . S
C803 C798 1.363 . S
C803 C802 1.415 . S
H804 C801 0.999 . S
H805 C786 0.913 . S
H806 C824 0.951 . S
H807 C826 0.951 . S
H808 C828 0.950 . S
H809 C829 0.950 . S
H810 C831 0.950 . S
H811 C834 0.950 . S
H812 C835 0.950 . S
H813 C837 0.950 . S
H814 C838 0.950 . S
H815 C839 0.951 . S
H816 C841 0.951 . S
H817 C843 0.950 . S
H818 C844 0.950 . S
H819 C846 0.950 . S
H820 C849 0.950 . S
H821 C850 0.950 . S
H822 C852 0.950 . S
H823 C853 0.950 . S
C824 H806 0.951 . S
C824 C825 1.366 . S
C824 C826 1.388 . S
C825 C824 1.366 . S
C825 C829 1.385 . S
C826 H807 0.951 . S
C826 C824 1.388 . S
C826 C827 1.366 . S
C827 C826 1.366 . S
C827 C828 1.414 . S
C827 C830 1.499 . S
C828 H808 0.950 . S
C828 C827 1.414 . S
C828 C829 1.374 . S
C829 H809 0.950 . S
C829 C825 1.385 . S
C829 C828 1.374 . S
C830 C827 1.499 . S
C830 C831 1.373 . S
C830 C832 1.389 . S
C831 H810 0.950 . S
C831 C830 1.373 . S
C831 C847 1.377 . S
C832 C830 1.389 . S
C832 C833 1.524 . S
C832 C846 1.377 . S
C833 C832 1.524 . S
C833 C834 1.397 . S
C833 C838 1.363 . S
C834 H811 0.950 . S
C834 C833 1.397 . S
C834 C835 1.334 . S
C835 H812 0.950 . S
C835 C834 1.334 . S
C835 C836 1.287 . S
C836 C835 1.287 . S
C836 C837 1.524 . S
C836 H855 0.913 . S
C837 H813 0.950 . S
C837 C836 1.524 . S
C837 C838 1.415 . S
C838 H814 0.950 . S
C838 C833 1.363 . S
C838 C837 1.415 . S
C839 H815 0.951 . S
C839 C840 1.366 . S
C839 C841 1.388 . S
C840 C839 1.366 . S
C840 C844 1.385 . S
C841 H816 0.951 . S
C841 C839 1.388 . S
C841 C842 1.366 . S
C842 C841 1.366 . S
C842 C843 1.414 . S
C842 C845 1.499 . S
C843 H817 0.950 . S
C843 C842 1.414 . S
C843 C844 1.374 . S
C844 H818 0.950 . S
C844 C840 1.385 . S
C844 C843 1.374 . S
C845 C842 1.499 . S
C845 C846 1.373 . S
C845 C847 1.389 . S
C846 H819 0.950 . S
C846 C832 1.377 . S
C846 C845 1.373 . S
C847 C831 1.377 . S
C847 C845 1.389 . S
C847 C848 1.524 . S
C848 C847 1.524 . S
C848 C849 1.397 . S
C848 C853 1.363 . S
C849 H820 0.950 . S
C849 C848 1.397 . S
C849 C850 1.334 . S
C850 H821 0.950 . S
C850 C849 1.334 . S
C850 C851 1.287 . S
C851 C850 1.287 . S
C851 C852 1.524 . S
C851 H854 0.999 . S
C852 H822 0.950 . S
C852 C851 1.524 . S
C852 C853 1.415 . S
C853 H823 0.950 . S
C853 C848 1.363 . S
C853 C852 1.415 . S
H854 C851 0.999 . S
H855 C836 0.913 . S
H856 C874 0.951 . S
H857 C876 0.951 . S
H858 C878 0.950 . S
H859 C879 0.950 . S
H860 C881 0.950 . S
H861 C884 0.950 . S
H862 C885 0.950 . S
H863 C887 0.950 . S
H864 C888 0.950 . S
H865 C889 0.951 . S
H866 C891 0.951 . S
H867 C893 0.950 . S
H868 C894 0.950 . S
H869 C896 0.950 . S
H870 C899 0.950 . S
H871 C900 0.950 . S
H872 C902 0.950 . S
H873 C903 0.950 . S
C874 H856 0.951 . S
C874 C875 1.366 . S
C874 C876 1.388 . S
C875 C874 1.366 . S
C875 C879 1.385 . S
C876 H857 0.951 . S
C876 C874 1.388 . S
C876 C877 1.366 . S
C877 C876 1.366 . S
C877 C878 1.414 . S
C877 C880 1.499 . S
C878 H858 0.950 . S
C878 C877 1.414 . S
C878 C879 1.374 . S
C879 H859 0.950 . S
C879 C875 1.385 . S
C879 C878 1.374 . S
C880 C877 1.499 . S
C880 C881 1.373 . S
C880 C882 1.389 . S
C881 H860 0.950 . S
C881 C880 1.373 . S
C881 C897 1.377 . S
C882 C880 1.389 . S
C882 C883 1.524 . S
C882 C896 1.377 . S
C883 C882 1.524 . S
C883 C884 1.397 . S
C883 C888 1.363 . S
C884 H861 0.950 . S
C884 C883 1.397 . S
C884 C885 1.334 . S
C885 H862 0.950 . S
C885 C884 1.334 . S
C885 C886 1.287 . S
C886 C885 1.287 . S
C886 C887 1.524 . S
C886 H905 0.913 . S
C887 H863 0.950 . S
C887 C886 1.524 . S
C887 C888 1.415 . S
C888 H864 0.950 . S
C888 C883 1.363 . S
C888 C887 1.415 . S
C889 H865 0.951 . S
C889 C890 1.366 . S
C889 C891 1.388 . S
C890 C889 1.366 . S
C890 C894 1.385 . S
C891 H866 0.951 . S
C891 C889 1.388 . S
C891 C892 1.366 . S
C892 C891 1.366 . S
C892 C893 1.414 . S
C892 C895 1.499 . S
C893 H867 0.950 . S
C893 C892 1.414 . S
C893 C894 1.374 . S
C894 H868 0.950 . S
C894 C890 1.385 . S
C894 C893 1.374 . S
C895 C892 1.499 . S
C895 C896 1.373 . S
C895 C897 1.389 . S
C896 H869 0.950 . S
C896 C882 1.377 . S
C896 C895 1.373 . S
C897 C881 1.377 . S
C897 C895 1.389 . S
C897 C898 1.524 . S
C898 C897 1.524 . S
C898 C899 1.397 . S
C898 C903 1.363 . S
C899 H870 0.950 . S
C899 C898 1.397 . S
C899 C900 1.334 . S
C900 H871 0.950 . S
C900 C899 1.334 . S
C900 C901 1.287 . S
C901 C900 1.287 . S
C901 C902 1.524 . S
C901 H904 0.999 . S
C902 H872 0.950 . S
C902 C901 1.524 . S
C902 C903 1.415 . S
C903 H873 0.950 . S
C903 C898 1.363 . S
C903 C902 1.415 . S
H904 C901 0.999 . S
H905 C886 0.913 . S
H906 C924 0.951 . S
H907 C926 0.951 . S
H908 C928 0.950 . S
H909 C929 0.950 . S
H910 C931 0.950 . S
H911 C934 0.950 . S
H912 C935 0.950 . S
H913 C937 0.950 . S
H914 C938 0.950 . S
H915 C939 0.951 . S
H916 C941 0.951 . S
H917 C943 0.950 . S
H918 C944 0.950 . S
H919 C946 0.950 . S
H920 C949 0.950 . S
H921 C950 0.950 . S
H922 C952 0.950 . S
H923 C953 0.950 . S
C924 H906 0.951 . S
C924 C925 1.366 . S
C924 C926 1.388 . S
C925 C924 1.366 . S
C925 C929 1.385 . S
C926 H907 0.951 . S
C926 C924 1.388 . S
C926 C927 1.366 . S
C927 C926 1.366 . S
C927 C928 1.414 . S
C927 C930 1.499 . S
C928 H908 0.950 . S
C928 C927 1.414 . S
C928 C929 1.374 . S
C929 H909 0.950 . S
C929 C925 1.385 . S
C929 C928 1.374 . S
C930 C927 1.499 . S
C930 C931 1.373 . S
C930 C932 1.389 . S
C931 H910 0.950 . S
C931 C930 1.373 . S
C931 C947 1.377 . S
C932 C930 1.389 . S
C932 C933 1.524 . S
C932 C946 1.377 . S
C933 C932 1.524 . S
C933 C934 1.397 . S
C933 C938 1.363 . S
C934 H911 0.950 . S
C934 C933 1.397 . S
C934 C935 1.334 . S
C935 H912 0.950 . S
C935 C934 1.334 . S
C935 C936 1.287 . S
C936 C935 1.287 . S
C936 C937 1.524 . S
C936 H955 0.913 . S
C937 H913 0.950 . S
C937 C936 1.524 . S
C937 C938 1.415 . S
C938 H914 0.950 . S
C938 C933 1.363 . S
C938 C937 1.415 . S
C939 H915 0.951 . S
C939 C940 1.366 . S
C939 C941 1.388 . S
C940 C939 1.366 . S
C940 C944 1.385 . S
C941 H916 0.951 . S
C941 C939 1.388 . S
C941 C942 1.366 . S
C942 C941 1.366 . S
C942 C943 1.414 . S
C942 C945 1.499 . S
C943 H917 0.950 . S
C943 C942 1.414 . S
C943 C944 1.374 . S
C944 H918 0.950 . S
C944 C940 1.385 . S
C944 C943 1.374 . S
C945 C942 1.499 . S
C945 C946 1.373 . S
C945 C947 1.389 . S
C946 H919 0.950 . S
C946 C932 1.377 . S
C946 C945 1.373 . S
C947 C931 1.377 . S
C947 C945 1.389 . S
C947 C948 1.524 . S
C948 C947 1.524 . S
C948 C949 1.397 . S
C948 C953 1.363 . S
C949 H920 0.950 . S
C949 C948 1.397 . S
C949 C950 1.334 . S
C950 H921 0.950 . S
C950 C949 1.334 . S
C950 C951 1.287 . S
C951 C950 1.287 . S
C951 C952 1.524 . S
C951 H954 0.999 1_554 S
C952 H922 0.950 . S
C952 C951 1.524 . S
C952 C953 1.415 . S
C953 H923 0.950 . S
C953 C948 1.363 . S
C953 C952 1.415 . S
H954 C951 0.999 1_556 S
H955 C936 0.913 . S
H956 C974 0.951 . S
H957 C976 0.951 . S
H958 C978 0.950 . S
H959 C979 0.950 . S
H960 C981 0.950 . S
H961 C984 0.950 . S
H962 C985 0.950 . S
H963 C987 0.950 . S
H964 C988 0.950 . S
H965 C989 0.951 . S
H966 C991 0.951 . S
H967 C993 0.950 . S
H968 C994 0.950 . S
H969 C996 0.950 . S
H970 C999 0.950 . S
H971 C1000 0.950 . S
H972 C1002 0.950 . S
H973 C1003 0.950 . S
C974 H956 0.951 . S
C974 C975 1.366 . S
C974 C976 1.388 . S
C975 C974 1.366 . S
C975 C979 1.385 . S
C976 H957 0.951 . S
C976 C974 1.388 . S
C976 C977 1.366 . S
C977 C976 1.366 . S
C977 C978 1.414 . S
C977 C980 1.499 . S
C978 H958 0.950 . S
C978 C977 1.414 . S
C978 C979 1.374 . S
C979 H959 0.950 . S
C979 C975 1.385 . S
C979 C978 1.374 . S
C980 C977 1.499 . S
C980 C981 1.373 . S
C980 C982 1.389 . S
C981 H960 0.950 . S
C981 C980 1.373 . S
C981 C997 1.377 . S
C982 C980 1.389 . S
C982 C983 1.524 . S
C982 C996 1.377 . S
C983 C982 1.524 . S
C983 C984 1.397 . S
C983 C988 1.363 . S
C984 H961 0.950 . S
C984 C983 1.397 . S
C984 C985 1.334 . S
C985 H962 0.950 . S
C985 C984 1.334 . S
C985 C986 1.287 . S
C986 C985 1.287 . S
C986 C987 1.524 . S
C986 H1005 0.913 . S
C987 H963 0.950 . S
C987 C986 1.524 . S
C987 C988 1.415 . S
C988 H964 0.950 . S
C988 C983 1.363 . S
C988 C987 1.415 . S
C989 H965 0.951 . S
C989 C990 1.366 . S
C989 C991 1.388 . S
C990 C989 1.366 . S
C990 C994 1.385 . S
C991 H966 0.951 . S
C991 C989 1.388 . S
C991 C992 1.366 . S
C992 C991 1.366 . S
C992 C993 1.414 . S
C992 C995 1.499 . S
C993 H967 0.950 . S
C993 C992 1.414 . S
C993 C994 1.374 . S
C994 H968 0.950 . S
C994 C990 1.385 . S
C994 C993 1.374 . S
C995 C992 1.499 . S
C995 C996 1.373 . S
C995 C997 1.389 . S
C996 H969 0.950 . S
C996 C982 1.377 . S
C996 C995 1.373 . S
C997 C981 1.377 . S
C997 C995 1.389 . S
C997 C998 1.524 . S
C998 C997 1.524 . S
C998 C999 1.397 . S
C998 C1003 1.363 . S
C999 H970 0.950 . S
C999 C998 1.397 . S
C999 C1000 1.334 1_655 S
C1000 H971 0.950 . S
C1000 C999 1.334 1_455 S
C1000 C1001 1.287 . S
C1001 C1000 1.287 . S
C1001 C1002 1.524 1_455 S
C1001 H1004 0.999 . S
C1002 H972 0.950 . S
C1002 C1001 1.524 1_655 S
C1002 C1003 1.415 . S
C1003 H973 0.950 . S
C1003 C998 1.363 . S
C1003 C1002 1.415 . S
H1004 C1001 0.999 . S
H1005 C986 0.913 . S
H1006 C1024 0.951 . S
H1007 C1026 0.951 . S
H1008 C1028 0.950 . S
H1009 C1029 0.950 . S
H1010 C1031 0.950 . S
H1011 C1034 0.950 . S
H1012 C1035 0.950 . S
H1013 C1037 0.950 . S
H1014 C1038 0.950 . S
H1015 C1039 0.951 . S
H1016 C1041 0.951 . S
H1017 C1043 0.950 . S
H1018 C1044 0.950 . S
H1019 C1046 0.950 . S
H1020 C1049 0.950 . S
H1021 C1050 0.950 . S
H1022 C1052 0.950 . S
H1023 C1053 0.950 . S
C1024 H1006 0.951 . S
C1024 C1025 1.366 . S
C1024 C1026 1.388 . S
C1025 C1024 1.366 . S
C1025 C1029 1.385 . S
C1026 H1007 0.951 . S
C1026 C1024 1.388 . S
C1026 C1027 1.366 . S
C1027 C1026 1.366 . S
C1027 C1028 1.414 . S
C1027 C1030 1.499 . S
C1028 H1008 0.950 . S
C1028 C1027 1.414 . S
C1028 C1029 1.374 . S
C1029 H1009 0.950 . S
C1029 C1025 1.385 . S
C1029 C1028 1.374 . S
C1030 C1027 1.499 . S
C1030 C1031 1.373 . S
C1030 C1032 1.389 . S
C1031 H1010 0.950 . S
C1031 C1030 1.373 . S
C1031 C1047 1.377 . S
C1032 C1030 1.389 . S
C1032 C1033 1.524 . S
C1032 C1046 1.377 . S
C1033 C1032 1.524 . S
C1033 C1034 1.397 . S
C1033 C1038 1.363 . S
C1034 H1011 0.950 . S
C1034 C1033 1.397 . S
C1034 C1035 1.334 . S
C1035 H1012 0.950 . S
C1035 C1034 1.334 . S
C1035 C1036 1.287 . S
C1036 C1035 1.287 . S
C1036 C1037 1.524 . S
C1036 H1055 0.913 . S
C1037 H1013 0.950 . S
C1037 C1036 1.524 . S
C1037 C1038 1.415 . S
C1038 H1014 0.950 . S
C1038 C1033 1.363 . S
C1038 C1037 1.415 . S
C1039 H1015 0.951 . S
C1039 C1040 1.366 . S
C1039 C1041 1.388 . S
C1040 C1039 1.366 . S
C1040 C1044 1.385 . S
C1041 H1016 0.951 . S
C1041 C1039 1.388 . S
C1041 C1042 1.366 . S
C1042 C1041 1.366 . S
C1042 C1043 1.414 . S
C1042 C1045 1.499 . S
C1043 H1017 0.950 . S
C1043 C1042 1.414 . S
C1043 C1044 1.374 . S
C1044 H1018 0.950 . S
C1044 C1040 1.385 . S
C1044 C1043 1.374 . S
C1045 C1042 1.499 . S
C1045 C1046 1.373 . S
C1045 C1047 1.389 . S
C1046 H1019 0.950 . S
C1046 C1032 1.377 . S
C1046 C1045 1.373 . S
C1047 C1031 1.377 . S
C1047 C1045 1.389 . S
C1047 C1048 1.524 . S
C1048 C1047 1.524 . S
C1048 C1049 1.397 . S
C1048 C1053 1.363 . S
C1049 H1020 0.950 . S
C1049 C1048 1.397 . S
C1049 C1050 1.334 . S
C1050 H1021 0.950 . S
C1050 C1049 1.334 . S
C1050 C1051 1.287 . S
C1051 C1050 1.287 . S
C1051 C1052 1.524 . S
C1051 H1054 0.999 . S
C1052 H1022 0.950 . S
C1052 C1051 1.524 . S
C1052 C1053 1.415 . S
C1053 H1023 0.950 . S
C1053 C1048 1.363 . S
C1053 C1052 1.415 . S
H1054 C1051 0.999 . S
H1055 C1036 0.913 . S
H1056 C1074 0.951 . S
H1057 C1076 0.951 . S
H1058 C1078 0.950 . S
H1059 C1079 0.950 . S
H1060 C1081 0.950 . S
H1061 C1084 0.950 . S
H1062 C1085 0.950 . S
H1063 C1087 0.950 . S
H1064 C1088 0.950 . S
H1065 C1089 0.951 . S
H1066 C1091 0.951 . S
H1067 C1093 0.950 . S
H1068 C1094 0.950 . S
H1069 C1096 0.950 . S
H1070 C1099 0.950 . S
H1071 C1100 0.950 . S
H1072 C1102 0.950 . S
H1073 C1103 0.950 . S
C1074 H1056 0.951 . S
C1074 C1075 1.366 . S
C1074 C1076 1.388 . S
C1075 C1074 1.366 . S
C1075 C1079 1.385 . S
C1076 H1057 0.951 . S
C1076 C1074 1.388 . S
C1076 C1077 1.366 . S
C1077 C1076 1.366 . S
C1077 C1078 1.414 . S
C1077 C1080 1.499 . S
C1078 H1058 0.950 . S
C1078 C1077 1.414 . S
C1078 C1079 1.374 . S
C1079 H1059 0.950 . S
C1079 C1075 1.385 . S
C1079 C1078 1.374 . S
C1080 C1077 1.499 . S
C1080 C1081 1.373 . S
C1080 C1082 1.389 . S
C1081 H1060 0.950 . S
C1081 C1080 1.373 . S
C1081 C1097 1.377 . S
C1082 C1080 1.389 . S
C1082 C1083 1.524 . S
C1082 C1096 1.377 . S
C1083 C1082 1.524 . S
C1083 C1084 1.397 . S
C1083 C1088 1.363 . S
C1084 H1061 0.950 . S
C1084 C1083 1.397 . S
C1084 C1085 1.334 . S
C1085 H1062 0.950 . S
C1085 C1084 1.334 . S
C1085 C1086 1.287 . S
C1086 C1085 1.287 . S
C1086 C1087 1.524 . S
C1086 H1105 0.913 . S
C1087 H1063 0.950 . S
C1087 C1086 1.524 . S
C1087 C1088 1.415 . S
C1088 H1064 0.950 . S
C1088 C1083 1.363 . S
C1088 C1087 1.415 . S
C1089 H1065 0.951 . S
C1089 C1090 1.366 . S
C1089 C1091 1.388 . S
C1090 C1089 1.366 . S
C1090 C1094 1.385 . S
C1091 H1066 0.951 . S
C1091 C1089 1.388 . S
C1091 C1092 1.366 . S
C1092 C1091 1.366 . S
C1092 C1093 1.414 . S
C1092 C1095 1.499 . S
C1093 H1067 0.950 . S
C1093 C1092 1.414 . S
C1093 C1094 1.374 . S
C1094 H1068 0.950 . S
C1094 C1090 1.385 . S
C1094 C1093 1.374 . S
C1095 C1092 1.499 . S
C1095 C1096 1.373 . S
C1095 C1097 1.389 . S
C1096 H1069 0.950 . S
C1096 C1082 1.377 . S
C1096 C1095 1.373 . S
C1097 C1081 1.377 . S
C1097 C1095 1.389 . S
C1097 C1098 1.524 . S
C1098 C1097 1.524 . S
C1098 C1099 1.397 . S
C1098 C1103 1.363 . S
C1099 H1070 0.950 . S
C1099 C1098 1.397 . S
C1099 C1100 1.334 . S
C1100 H1071 0.950 . S
C1100 C1099 1.334 . S
C1100 C1101 1.287 . S
C1101 C1100 1.287 . S
C1101 C1102 1.524 . S
C1101 H1104 0.999 . S
C1102 H1072 0.950 . S
C1102 C1101 1.524 . S
C1102 C1103 1.415 . S
C1103 H1073 0.950 . S
C1103 C1098 1.363 . S
C1103 C1102 1.415 . S
H1104 C1101 0.999 . S
H1105 C1086 0.913 . S
H1106 C1124 0.951 . S
H1107 C1126 0.951 . S
H1108 C1128 0.950 . S
H1109 C1129 0.950 . S
H1110 C1131 0.950 . S
H1111 C1134 0.950 . S
H1112 C1135 0.950 . S
H1113 C1137 0.950 . S
H1114 C1138 0.950 . S
H1115 C1139 0.951 1_545 S
H1116 C1141 0.951 . S
H1117 C1143 0.950 . S
H1118 C1144 0.950 . S
H1119 C1146 0.950 . S
H1120 C1149 0.950 . S
H1121 C1150 0.950 . S
H1122 C1152 0.950 . S
H1123 C1153 0.950 . S
C1124 H1106 0.951 . S
C1124 C1125 1.366 . S
C1124 C1126 1.388 . S
C1125 C1124 1.366 . S
C1125 C1129 1.385 . S
C1126 H1107 0.951 . S
C1126 C1124 1.388 . S
C1126 C1127 1.366 . S
C1127 C1126 1.366 . S
C1127 C1128 1.414 . S
C1127 C1130 1.499 . S
C1128 H1108 0.950 . S
C1128 C1127 1.414 . S
C1128 C1129 1.374 . S
C1129 H1109 0.950 . S
C1129 C1125 1.385 . S
C1129 C1128 1.374 . S
C1130 C1127 1.499 . S
C1130 C1131 1.373 . S
C1130 C1132 1.389 . S
C1131 H1110 0.950 . S
C1131 C1130 1.373 . S
C1131 C1147 1.377 . S
C1132 C1130 1.389 . S
C1132 C1133 1.524 . S
C1132 C1146 1.377 . S
C1133 C1132 1.524 . S
C1133 C1134 1.397 . S
C1133 C1138 1.363 . S
C1134 H1111 0.950 . S
C1134 C1133 1.397 . S
C1134 C1135 1.334 . S
C1135 H1112 0.950 . S
C1135 C1134 1.334 . S
C1135 C1136 1.287 . S
C1136 C1135 1.287 . S
C1136 C1137 1.524 . S
C1136 H1155 0.913 . S
C1137 H1113 0.950 . S
C1137 C1136 1.524 . S
C1137 C1138 1.415 . S
C1138 H1114 0.950 . S
C1138 C1133 1.363 . S
C1138 C1137 1.415 . S
C1139 H1115 0.951 1_565 S
C1139 C1140 1.366 . S
C1139 C1141 1.388 . S
C1140 C1139 1.366 . S
C1140 C1144 1.385 . S
C1141 H1116 0.951 . S
C1141 C1139 1.388 . S
C1141 C1142 1.366 . S
C1142 C1141 1.366 . S
C1142 C1143 1.414 . S
C1142 C1145 1.499 . S
C1143 H1117 0.950 . S
C1143 C1142 1.414 . S
C1143 C1144 1.374 . S
C1144 H1118 0.950 . S
C1144 C1140 1.385 . S
C1144 C1143 1.374 . S
C1145 C1142 1.499 . S
C1145 C1146 1.373 . S
C1145 C1147 1.389 . S
C1146 H1119 0.950 . S
C1146 C1132 1.377 . S
C1146 C1145 1.373 . S
C1147 C1131 1.377 . S
C1147 C1145 1.389 . S
C1147 C1148 1.524 . S
C1148 C1147 1.524 . S
C1148 C1149 1.397 . S
C1148 C1153 1.363 . S
C1149 H1120 0.950 . S
C1149 C1148 1.397 . S
C1149 C1150 1.334 . S
C1150 H1121 0.950 . S
C1150 C1149 1.334 . S
C1150 C1151 1.287 . S
C1151 C1150 1.287 . S
C1151 C1152 1.524 . S
C1151 H1154 0.999 . S
C1152 H1122 0.950 . S
C1152 C1151 1.524 . S
C1152 C1153 1.415 . S
C1153 H1123 0.950 . S
C1153 C1148 1.363 . S
C1153 C1152 1.415 . S
H1154 C1151 0.999 . S
H1155 C1136 0.913 . S
H1156 C1174 0.951 . S
H1157 C1176 0.951 . S
H1158 C1178 0.950 . S
H1159 C1179 0.950 . S
H1160 C1181 0.950 . S
H1161 C1184 0.950 . S
H1162 C1185 0.950 . S
H1163 C1187 0.950 . S
H1164 C1188 0.950 . S
H1165 C1189 0.951 . S
H1166 C1191 0.951 . S
H1167 C1193 0.950 . S
H1168 C1194 0.950 . S
H1169 C1196 0.950 . S
H1170 C1199 0.950 . S
H1171 C1200 0.950 . S
H1172 C1202 0.950 . S
H1173 C1203 0.950 . S
C1174 H1156 0.951 . S
C1174 C1175 1.366 . S
C1174 C1176 1.388 . S
C1175 C1174 1.366 . S
C1175 C1179 1.385 . S
C1176 H1157 0.951 . S
C1176 C1174 1.388 . S
C1176 C1177 1.366 . S
C1177 C1176 1.366 . S
C1177 C1178 1.414 . S
C1177 C1180 1.499 . S
C1178 H1158 0.950 . S
C1178 C1177 1.414 . S
C1178 C1179 1.374 . S
C1179 H1159 0.950 . S
C1179 C1175 1.385 . S
C1179 C1178 1.374 . S
C1180 C1177 1.499 . S
C1180 C1181 1.373 . S
C1180 C1182 1.389 . S
C1181 H1160 0.950 . S
C1181 C1180 1.373 . S
C1181 C1197 1.377 . S
C1182 C1180 1.389 . S
C1182 C1183 1.524 . S
C1182 C1196 1.377 . S
C1183 C1182 1.524 . S
C1183 C1184 1.397 . S
C1183 C1188 1.363 . S
C1184 H1161 0.950 . S
C1184 C1183 1.397 . S
C1184 C1185 1.334 . S
C1185 H1162 0.950 . S
C1185 C1184 1.334 . S
C1185 C1186 1.287 . S
C1186 C1185 1.287 . S
C1186 C1187 1.524 . S
C1186 H1205 0.913 . S
C1187 H1163 0.950 . S
C1187 C1186 1.524 . S
C1187 C1188 1.415 . S
C1188 H1164 0.950 . S
C1188 C1183 1.363 . S
C1188 C1187 1.415 . S
C1189 H1165 0.951 . S
C1189 C1190 1.366 . S
C1189 C1191 1.388 . S
C1190 C1189 1.366 . S
C1190 C1194 1.385 . S
C1191 H1166 0.951 . S
C1191 C1189 1.388 . S
C1191 C1192 1.366 . S
C1192 C1191 1.366 . S
C1192 C1193 1.414 . S
C1192 C1195 1.499 . S
C1193 H1167 0.950 . S
C1193 C1192 1.414 . S
C1193 C1194 1.374 . S
C1194 H1168 0.950 . S
C1194 C1190 1.385 . S
C1194 C1193 1.374 . S
C1195 C1192 1.499 . S
C1195 C1196 1.373 . S
C1195 C1197 1.389 . S
C1196 H1169 0.950 . S
C1196 C1182 1.377 . S
C1196 C1195 1.373 . S
C1197 C1181 1.377 . S
C1197 C1195 1.389 . S
C1197 C1198 1.524 . S
C1198 C1197 1.524 . S
C1198 C1199 1.397 . S
C1198 C1203 1.363 . S
C1199 H1170 0.950 . S
C1199 C1198 1.397 . S
C1199 C1200 1.334 1_556 S
C1200 H1171 0.950 . S
C1200 C1199 1.334 1_554 S
C1200 C1201 1.287 . S
C1201 C1200 1.287 . S
C1201 C1202 1.524 . S
C1201 H1204 0.999 . S
C1202 H1172 0.950 . S
C1202 C1201 1.524 . S
C1202 C1203 1.415 1_554 S
C1203 H1173 0.950 . S
C1203 C1198 1.363 . S
C1203 C1202 1.415 1_556 S
H1204 C1201 0.999 . S
H1205 C1186 0.913 . S
H1206 C1224 0.951 . S
H1207 C1226 0.951 . S
H1208 C1228 0.950 . S
H1209 C1229 0.950 . S
H1210 C1231 0.950 . S
H1211 C1234 0.950 . S
H1212 C1235 0.950 . S
H1213 C1237 0.950 . S
H1214 C1238 0.950 . S
H1215 C1239 0.951 . S
H1216 C1241 0.951 . S
H1217 C1243 0.950 . S
H1218 C1244 0.950 . S
H1219 C1246 0.950 . S
H1220 C1249 0.950 . S
H1221 C1250 0.950 . S
H1222 C1252 0.950 . S
H1223 C1253 0.950 . S
C1224 H1206 0.951 . S
C1224 C1225 1.366 . S
C1224 C1226 1.388 . S
C1225 C1224 1.366 . S
C1225 C1229 1.385 . S
C1226 H1207 0.951 . S
C1226 C1224 1.388 . S
C1226 C1227 1.366 . S
C1227 C1226 1.366 . S
C1227 C1228 1.414 . S
C1227 C1230 1.499 . S
C1228 H1208 0.950 . S
C1228 C1227 1.414 . S
C1228 C1229 1.374 . S
C1229 H1209 0.950 . S
C1229 C1225 1.385 . S
C1229 C1228 1.374 . S
C1230 C1227 1.499 . S
C1230 C1231 1.373 . S
C1230 C1232 1.389 . S
C1231 H1210 0.950 . S
C1231 C1230 1.373 . S
C1231 C1247 1.377 . S
C1232 C1230 1.389 . S
C1232 C1233 1.524 . S
C1232 C1246 1.377 . S
C1233 C1232 1.524 . S
C1233 C1234 1.397 . S
C1233 C1238 1.363 . S
C1234 H1211 0.950 . S
C1234 C1233 1.397 . S
C1234 C1235 1.334 . S
C1235 H1212 0.950 . S
C1235 C1234 1.334 . S
C1235 C1236 1.287 . S
C1236 C1235 1.287 . S
C1236 C1237 1.524 . S
C1236 H1255 0.913 . S
C1237 H1213 0.950 . S
C1237 C1236 1.524 . S
C1237 C1238 1.415 . S
C1238 H1214 0.950 . S
C1238 C1233 1.363 . S
C1238 C1237 1.415 . S
C1239 H1215 0.951 . S
C1239 C1240 1.366 . S
C1239 C1241 1.388 . S
C1240 C1239 1.366 . S
C1240 C1244 1.385 . S
C1241 H1216 0.951 . S
C1241 C1239 1.388 . S
C1241 C1242 1.366 . S
C1242 C1241 1.366 . S
C1242 C1243 1.414 . S
C1242 C1245 1.499 . S
C1243 H1217 0.950 . S
C1243 C1242 1.414 . S
C1243 C1244 1.374 . S
C1244 H1218 0.950 . S
C1244 C1240 1.385 . S
C1244 C1243 1.374 . S
C1245 C1242 1.499 . S
C1245 C1246 1.373 . S
C1245 C1247 1.389 . S
C1246 H1219 0.950 . S
C1246 C1232 1.377 . S
C1246 C1245 1.373 . S
C1247 C1231 1.377 . S
C1247 C1245 1.389 . S
C1247 C1248 1.524 . S
C1248 C1247 1.524 . S
C1248 C1249 1.397 . S
C1248 C1253 1.363 . S
C1249 H1220 0.950 . S
C1249 C1248 1.397 . S
C1249 C1250 1.334 . S
C1250 H1221 0.950 . S
C1250 C1249 1.334 . S
C1250 C1251 1.287 . S
C1251 C1250 1.287 . S
C1251 C1252 1.524 . S
C1251 H1254 0.999 . S
C1252 H1222 0.950 . S
C1252 C1251 1.524 . S
C1252 C1253 1.415 . S
C1253 H1223 0.950 . S
C1253 C1248 1.363 . S
C1253 C1252 1.415 . S
H1254 C1251 0.999 . S
H1255 C1236 0.913 . S
H1256 C1274 0.951 . S
H1257 C1276 0.951 . S
H1258 C1278 0.950 . S
H1259 C1279 0.950 . S
H1260 C1281 0.950 . S
H1261 C1284 0.950 . S
H1262 C1285 0.950 . S
H1263 C1287 0.950 . S
H1264 C1288 0.950 . S
H1265 C1289 0.951 . S
H1266 C1291 0.951 . S
H1267 C1293 0.950 . S
H1268 C1294 0.950 . S
H1269 C1296 0.950 . S
H1270 C1299 0.950 . S
H1271 C1300 0.950 1_554 S
H1272 C1302 0.950 . S
H1273 C1303 0.950 . S
C1274 H1256 0.951 . S
C1274 C1275 1.366 . S
C1274 C1276 1.388 . S
C1275 C1274 1.366 . S
C1275 C1279 1.385 . S
C1276 H1257 0.951 . S
C1276 C1274 1.388 . S
C1276 C1277 1.366 . S
C1277 C1276 1.366 . S
C1277 C1278 1.414 . S
C1277 C1280 1.499 . S
C1278 H1258 0.950 . S
C1278 C1277 1.414 . S
C1278 C1279 1.374 . S
C1279 H1259 0.950 . S
C1279 C1275 1.385 . S
C1279 C1278 1.374 . S
C1280 C1277 1.499 . S
C1280 C1281 1.373 . S
C1280 C1282 1.389 . S
C1281 H1260 0.950 . S
C1281 C1280 1.373 . S
C1281 C1297 1.377 . S
C1282 C1280 1.389 . S
C1282 C1283 1.524 . S
C1282 C1296 1.377 . S
C1283 C1282 1.524 . S
C1283 C1284 1.397 . S
C1283 C1288 1.363 . S
C1284 H1261 0.950 . S
C1284 C1283 1.397 . S
C1284 C1285 1.334 . S
C1285 H1262 0.950 . S
C1285 C1284 1.334 . S
C1285 C1286 1.287 . S
C1286 C1285 1.287 . S
C1286 C1287 1.524 . S
C1286 H1305 0.913 . S
C1287 H1263 0.950 . S
C1287 C1286 1.524 . S
C1287 C1288 1.415 . S
C1288 H1264 0.950 . S
C1288 C1283 1.363 . S
C1288 C1287 1.415 . S
C1289 H1265 0.951 . S
C1289 C1290 1.366 . S
C1289 C1291 1.388 . S
C1290 C1289 1.366 . S
C1290 C1294 1.385 . S
C1291 H1266 0.951 . S
C1291 C1289 1.388 . S
C1291 C1292 1.366 . S
C1292 C1291 1.366 . S
C1292 C1293 1.414 . S
C1292 C1295 1.499 . S
C1293 H1267 0.950 . S
C1293 C1292 1.414 . S
C1293 C1294 1.374 . S
C1294 H1268 0.950 . S
C1294 C1290 1.385 . S
C1294 C1293 1.374 . S
C1295 C1292 1.499 . S
C1295 C1296 1.373 . S
C1295 C1297 1.389 . S
C1296 H1269 0.950 . S
C1296 C1282 1.377 . S
C1296 C1295 1.373 . S
C1297 C1281 1.377 . S
C1297 C1295 1.389 . S
C1297 C1298 1.524 . S
C1298 C1297 1.524 . S
C1298 C1299 1.397 . S
C1298 C1303 1.363 . S
C1299 H1270 0.950 . S
C1299 C1298 1.397 . S
C1299 C1300 1.334 . S
C1300 H1271 0.950 1_556 S
C1300 C1299 1.334 . S
C1300 C1301 1.287 . S
C1301 C1300 1.287 . S
C1301 C1302 1.524 . S
C1301 H1304 0.972 1_556 S
C1302 H1272 0.950 . S
C1302 C1301 1.524 . S
C1302 C1303 1.415 . S
C1303 H1273 0.950 . S
C1303 C1298 1.363 . S
C1303 C1302 1.415 . S
H1304 C1301 0.972 1_554 S
H1305 C1286 0.913 . S
H1306 C1324 0.951 . S
H1307 C1326 0.951 . S
H1308 C1328 0.950 . S
H1309 C1329 0.950 . S
H1310 C1331 0.950 . S
H1311 C1334 0.950 . S
H1312 C1335 0.950 . S
H1313 C1337 0.950 . S
H1314 C1338 0.950 . S
H1315 C1339 0.951 . S
H1316 C1341 0.951 . S
H1317 C1343 0.950 . S
H1318 C1344 0.950 . S
H1319 C1346 0.950 . S
H1320 C1349 0.950 . S
H1321 C1350 0.950 . S
H1322 C1352 0.950 . S
H1323 C1353 0.950 . S
C1324 H1306 0.951 . S
C1324 C1325 1.366 . S
C1324 C1326 1.388 . S
C1325 C1324 1.366 . S
C1325 C1329 1.385 . S
C1326 H1307 0.951 . S
C1326 C1324 1.388 . S
C1326 C1327 1.366 . S
C1327 C1326 1.366 . S
C1327 C1328 1.414 . S
C1327 C1330 1.499 . S
C1328 H1308 0.950 . S
C1328 C1327 1.414 . S
C1328 C1329 1.374 . S
C1329 H1309 0.950 . S
C1329 C1325 1.385 . S
C1329 C1328 1.374 . S
C1330 C1327 1.499 . S
C1330 C1331 1.373 . S
C1330 C1332 1.389 . S
C1331 H1310 0.950 . S
C1331 C1330 1.373 . S
C1331 C1347 1.377 . S
C1332 C1330 1.389 . S
C1332 C1333 1.524 . S
C1332 C1346 1.377 . S
C1333 C1332 1.524 . S
C1333 C1334 1.397 . S
C1333 C1338 1.363 . S
C1334 H1311 0.950 . S
C1334 C1333 1.397 . S
C1334 C1335 1.334 . S
C1335 H1312 0.950 . S
C1335 C1334 1.334 . S
C1335 C1336 1.287 . S
C1336 C1335 1.287 . S
C1336 C1337 1.524 . S
C1336 H1355 0.913 . S
C1337 H1313 0.950 . S
C1337 C1336 1.524 . S
C1337 C1338 1.415 . S
C1338 H1314 0.950 . S
C1338 C1333 1.363 . S
C1338 C1337 1.415 . S
C1339 H1315 0.951 . S
C1339 C1340 1.366 . S
C1339 C1341 1.388 . S
C1340 C1339 1.366 . S
C1340 C1344 1.385 . S
C1341 H1316 0.951 . S
C1341 C1339 1.388 . S
C1341 C1342 1.366 . S
C1342 C1341 1.366 . S
C1342 C1343 1.414 . S
C1342 C1345 1.499 . S
C1343 H1317 0.950 . S
C1343 C1342 1.414 . S
C1343 C1344 1.374 . S
C1344 H1318 0.950 . S
C1344 C1340 1.385 . S
C1344 C1343 1.374 . S
C1345 C1342 1.499 . S
C1345 C1346 1.373 . S
C1345 C1347 1.389 . S
C1346 H1319 0.950 . S
C1346 C1332 1.377 . S
C1346 C1345 1.373 . S
C1347 C1331 1.377 . S
C1347 C1345 1.389 . S
C1347 C1348 1.524 . S
C1348 C1347 1.524 . S
C1348 C1349 1.397 . S
C1348 C1353 1.363 . S
C1349 H1320 0.950 . S
C1349 C1348 1.397 . S
C1349 C1350 1.334 . S
C1350 H1321 0.950 . S
C1350 C1349 1.334 . S
C1350 C1351 1.287 . S
C1351 C1350 1.287 . S
C1351 C1352 1.524 . S
C1351 H1354 0.999 . S
C1352 H1322 0.950 . S
C1352 C1351 1.524 . S
C1352 C1353 1.415 . S
C1353 H1323 0.950 . S
C1353 C1348 1.363 . S
C1353 C1352 1.415 . S
H1354 C1351 0.999 . S
H1355 C1336 0.913 . S
H1356 C1374 0.951 . S
H1357 C1376 0.951 . S
H1358 C1378 0.950 . S
H1359 C1379 0.950 . S
H1360 C1381 0.950 . S
H1361 C1384 0.950 . S
H1362 C1385 0.950 . S
H1363 C1387 0.950 . S
H1364 C1388 0.950 1_554 S
H1365 C1389 0.951 . S
H1366 C1391 0.951 . S
H1367 C1393 0.950 1_554 S
H1368 C1394 0.950 . S
H1369 C1396 0.950 . S
H1370 C1399 0.950 . S
H1371 C1400 0.950 . S
H1372 C1402 0.950 . S
H1373 C1403 0.950 . S
C1374 H1356 0.951 . S
C1374 C1375 1.366 . S
C1374 C1376 1.388 . S
C1375 C1374 1.366 . S
C1375 C1379 1.385 . S
C1376 H1357 0.951 . S
C1376 C1374 1.388 . S
C1376 C1377 1.366 . S
C1377 C1376 1.366 . S
C1377 C1378 1.414 . S
C1377 C1380 1.499 . S
C1378 H1358 0.950 . S
C1378 C1377 1.414 . S
C1378 C1379 1.374 . S
C1379 H1359 0.950 . S
C1379 C1375 1.385 . S
C1379 C1378 1.374 . S
C1380 C1377 1.499 . S
C1380 C1381 1.373 . S
C1380 C1382 1.389 . S
C1381 H1360 0.950 . S
C1381 C1380 1.373 . S
C1381 C1397 1.377 . S
C1382 C1380 1.389 . S
C1382 C1383 1.524 . S
C1382 C1396 1.377 . S
C1383 C1382 1.524 . S
C1383 C1384 1.397 . S
C1383 C1388 1.363 . S
C1384 H1361 0.950 . S
C1384 C1383 1.397 . S
C1384 C1385 1.334 . S
C1385 H1362 0.950 . S
C1385 C1384 1.334 . S
C1385 C1386 1.287 . S
C1386 C1385 1.287 . S
C1386 C1387 1.524 1_556 S
C1386 H1405 0.924 . S
C1387 H1363 0.950 . S
C1387 C1386 1.524 1_554 S
C1387 C1388 1.415 1_554 S
C1388 H1364 0.950 1_556 S
C1388 C1383 1.363 . S
C1388 C1387 1.415 1_556 S
C1389 H1365 0.951 . S
C1389 C1390 1.366 . S
C1389 C1391 1.388 . S
C1390 C1389 1.366 . S
C1390 C1394 1.385 1_556 S
C1391 H1366 0.951 . S
C1391 C1389 1.388 . S
C1391 C1392 1.366 . S
C1392 C1391 1.366 . S
C1392 C1393 1.414 . S
C1392 C1395 1.499 . S
C1393 H1367 0.950 1_556 S
C1393 C1392 1.414 . S
C1393 C1394 1.374 1_556 S
C1394 H1368 0.950 . S
C1394 C1390 1.385 1_554 S
C1394 C1393 1.374 1_554 S
C1395 C1392 1.499 . S
C1395 C1396 1.373 . S
C1395 C1397 1.389 . S
C1396 H1369 0.950 . S
C1396 C1382 1.377 . S
C1396 C1395 1.373 . S
C1397 C1381 1.377 . S
C1397 C1395 1.389 . S
C1397 C1398 1.524 . S
C1398 C1397 1.524 . S
C1398 C1399 1.397 . S
C1398 C1403 1.363 . S
C1399 H1370 0.950 . S
C1399 C1398 1.397 . S
C1399 C1400 1.334 . S
C1400 H1371 0.950 . S
C1400 C1399 1.334 . S
C1400 C1401 1.287 . S
C1401 C1400 1.287 . S
C1401 C1402 1.524 . S
C1401 H1404 0.999 1_455 S
C1402 H1372 0.950 . S
C1402 C1401 1.524 . S
C1402 C1403 1.415 . S
C1403 H1373 0.950 . S
C1403 C1398 1.363 . S
C1403 C1402 1.415 . S
H1404 C1401 0.999 1_655 S
H1405 C1386 0.924 . S
H1406 C1424 0.951 . S
H1407 C1426 0.951 . S
H1408 C1428 0.950 . S
H1409 C1429 0.950 . S
H1410 C1431 0.950 . S
H1411 C1434 0.950 . S
H1412 C1435 0.950 . S
H1413 C1437 0.950 . S
H1414 C1438 0.950 . S
H1415 C1439 0.951 . S
H1416 C1441 0.951 . S
H1417 C1443 0.950 . S
H1418 C1444 0.950 . S
H1419 C1446 0.950 . S
H1420 C1449 0.950 . S
H1421 C1450 0.950 . S
H1422 C1452 0.950 . S
H1423 C1453 0.950 . S
C1424 H1406 0.951 . S
C1424 C1425 1.366 . S
C1424 C1426 1.388 . S
C1425 C1424 1.366 . S
C1425 C1429 1.385 . S
C1426 H1407 0.951 . S
C1426 C1424 1.388 . S
C1426 C1427 1.366 . S
C1427 C1426 1.366 . S
C1427 C1428 1.414 . S
C1427 C1430 1.499 . S
C1428 H1408 0.950 . S
C1428 C1427 1.414 . S
C1428 C1429 1.374 . S
C1429 H1409 0.950 . S
C1429 C1425 1.385 . S
C1429 C1428 1.374 . S
C1430 C1427 1.499 . S
C1430 C1431 1.373 . S
C1430 C1432 1.389 . S
C1431 H1410 0.950 . S
C1431 C1430 1.373 . S
C1431 C1447 1.377 . S
C1432 C1430 1.389 . S
C1432 C1433 1.524 . S
C1432 C1446 1.377 . S
C1433 C1432 1.524 . S
C1433 C1434 1.397 . S
C1433 C1438 1.363 . S
C1434 H1411 0.950 . S
C1434 C1433 1.397 . S
C1434 C1435 1.334 . S
C1435 H1412 0.950 . S
C1435 C1434 1.334 . S
C1435 C1436 1.287 . S
C1436 C1435 1.287 . S
C1436 C1437 1.524 . S
C1436 H1455 0.913 . S
C1437 H1413 0.950 . S
C1437 C1436 1.524 . S
C1437 C1438 1.415 . S
C1438 H1414 0.950 . S
C1438 C1433 1.363 . S
C1438 C1437 1.415 . S
C1439 H1415 0.951 . S
C1439 C1440 1.366 . S
C1439 C1441 1.388 . S
C1440 C1439 1.366 . S
C1440 C1444 1.385 . S
C1441 H1416 0.951 . S
C1441 C1439 1.388 . S
C1441 C1442 1.366 . S
C1442 C1441 1.366 . S
C1442 C1443 1.414 . S
C1442 C1445 1.499 . S
C1443 H1417 0.950 . S
C1443 C1442 1.414 . S
C1443 C1444 1.374 . S
C1444 H1418 0.950 . S
C1444 C1440 1.385 . S
C1444 C1443 1.374 . S
C1445 C1442 1.499 . S
C1445 C1446 1.373 . S
C1445 C1447 1.389 . S
C1446 H1419 0.950 . S
C1446 C1432 1.377 . S
C1446 C1445 1.373 . S
C1447 C1431 1.377 . S
C1447 C1445 1.389 . S
C1447 C1448 1.524 . S
C1448 C1447 1.524 . S
C1448 C1449 1.397 . S
C1448 C1453 1.363 . S
C1449 H1420 0.950 . S
C1449 C1448 1.397 . S
C1449 C1450 1.334 . S
C1450 H1421 0.950 . S
C1450 C1449 1.334 . S
C1450 C1451 1.287 . S
C1451 C1450 1.287 . S
C1451 C1452 1.524 . S
C1451 H1454 1.021 . S
C1452 H1422 0.950 . S
C1452 C1451 1.524 . S
C1452 C1453 1.415 . S
C1453 H1423 0.950 . S
C1453 C1448 1.363 . S
C1453 C1452 1.415 . S
H1454 C1451 1.021 . S
H1455 C1436 0.913 . S
H1456 C1474 0.951 . S
H1457 C1476 0.951 . S
H1458 C1478 0.950 . S
H1459 C1479 0.950 . S
H1460 C1481 0.950 . S
H1461 C1484 0.950 . S
H1462 C1485 0.950 . S
H1463 C1487 0.950 . S
H1464 C1488 0.950 . S
H1465 C1489 0.951 . S
H1466 C1491 0.951 . S
H1467 C1493 0.950 . S
H1468 C1494 0.950 . S
H1469 C1496 0.950 . S
H1470 C1499 0.950 . S
H1471 C1500 0.950 . S
H1472 C1502 0.950 . S
H1473 C1503 0.950 . S
C1474 H1456 0.951 . S
C1474 C1475 1.366 . S
C1474 C1476 1.388 . S
C1475 C1474 1.366 . S
C1475 C1479 1.385 . S
C1476 H1457 0.951 . S
C1476 C1474 1.388 . S
C1476 C1477 1.366 . S
C1477 C1476 1.366 . S
C1477 C1478 1.414 . S
C1477 C1480 1.499 . S
C1478 H1458 0.950 . S
C1478 C1477 1.414 . S
C1478 C1479 1.374 . S
C1479 H1459 0.950 . S
C1479 C1475 1.385 . S
C1479 C1478 1.374 . S
C1480 C1477 1.499 . S
C1480 C1481 1.373 . S
C1480 C1482 1.389 . S
C1481 H1460 0.950 . S
C1481 C1480 1.373 . S
C1481 C1497 1.377 . S
C1482 C1480 1.389 . S
C1482 C1483 1.524 . S
C1482 C1496 1.377 . S
C1483 C1482 1.524 . S
C1483 C1484 1.397 . S
C1483 C1488 1.363 . S
C1484 H1461 0.950 . S
C1484 C1483 1.397 . S
C1484 C1485 1.334 . S
C1485 H1462 0.950 . S
C1485 C1484 1.334 . S
C1485 C1486 1.287 . S
C1486 C1485 1.287 . S
C1486 C1487 1.524 . S
C1486 H1505 0.913 . S
C1487 H1463 0.950 . S
C1487 C1486 1.524 . S
C1487 C1488 1.415 . S
C1488 H1464 0.950 . S
C1488 C1483 1.363 . S
C1488 C1487 1.415 . S
C1489 H1465 0.951 . S
C1489 C1490 1.366 . S
C1489 C1491 1.388 . S
C1490 C1489 1.366 . S
C1490 C1494 1.385 . S
C1491 H1466 0.951 . S
C1491 C1489 1.388 . S
C1491 C1492 1.366 . S
C1492 C1491 1.366 . S
C1492 C1493 1.414 . S
C1492 C1495 1.499 . S
C1493 H1467 0.950 . S
C1493 C1492 1.414 . S
C1493 C1494 1.374 . S
C1494 H1468 0.950 . S
C1494 C1490 1.385 . S
C1494 C1493 1.374 . S
C1495 C1492 1.499 . S
C1495 C1496 1.373 . S
C1495 C1497 1.389 . S
C1496 H1469 0.950 . S
C1496 C1482 1.377 . S
C1496 C1495 1.373 . S
C1497 C1481 1.377 . S
C1497 C1495 1.389 . S
C1497 C1498 1.524 . S
C1498 C1497 1.524 . S
C1498 C1499 1.397 . S
C1498 C1503 1.363 . S
C1499 H1470 0.950 . S
C1499 C1498 1.397 . S
C1499 C1500 1.334 . S
C1500 H1471 0.950 . S
C1500 C1499 1.334 . S
C1500 C1501 1.287 . S
C1501 C1500 1.287 . S
C1501 C1502 1.524 . S
C1501 H1504 0.999 . S
C1502 H1472 0.950 . S
C1502 C1501 1.524 . S
C1502 C1503 1.415 . S
C1503 H1473 0.950 . S
C1503 C1498 1.363 . S
C1503 C1502 1.415 . S
H1504 C1501 0.999 . S
H1505 C1486 0.913 . S
H1506 C1524 0.951 . S
H1507 C1526 0.951 . S
H1508 C1528 0.950 . S
H1509 C1529 0.950 . S
H1510 C1531 0.950 . S
H1511 C1534 0.950 . S
H1512 C1535 0.950 . S
H1513 C1537 0.950 . S
H1514 C1538 0.950 . S
H1515 C1539 0.951 . S
H1516 C1541 0.951 . S
H1517 C1543 0.950 . S
H1518 C1544 0.950 . S
H1519 C1546 0.950 . S
H1520 C1549 0.950 1_565 S
H1521 C1550 0.950 . S
H1522 C1552 0.950 . S
H1523 C1553 0.950 . S
C1524 H1506 0.951 . S
C1524 C1525 1.366 . S
C1524 C1526 1.388 . S
C1525 C1524 1.366 . S
C1525 C1529 1.385 . S
C1526 H1507 0.951 . S
C1526 C1524 1.388 . S
C1526 C1527 1.366 . S
C1527 C1526 1.366 . S
C1527 C1528 1.414 . S
C1527 C1530 1.499 . S
C1528 H1508 0.950 . S
C1528 C1527 1.414 . S
C1528 C1529 1.374 . S
C1529 H1509 0.950 . S
C1529 C1525 1.385 . S
C1529 C1528 1.374 . S
C1530 C1527 1.499 . S
C1530 C1531 1.373 . S
C1530 C1532 1.389 . S
C1531 H1510 0.950 . S
C1531 C1530 1.373 . S
C1531 C1547 1.377 . S
C1532 C1530 1.389 . S
C1532 C1533 1.524 . S
C1532 C1546 1.377 . S
C1533 C1532 1.524 . S
C1533 C1534 1.397 . S
C1533 C1538 1.363 . S
C1534 H1511 0.950 . S
C1534 C1533 1.397 . S
C1534 C1535 1.334 . S
C1535 H1512 0.950 . S
C1535 C1534 1.334 . S
C1535 C1536 1.287 . S
C1536 C1535 1.287 . S
C1536 C1537 1.524 . S
C1536 H1555 0.913 . S
C1537 H1513 0.950 . S
C1537 C1536 1.524 . S
C1537 C1538 1.415 . S
C1538 H1514 0.950 . S
C1538 C1533 1.363 . S
C1538 C1537 1.415 . S
C1539 H1515 0.951 . S
C1539 C1540 1.366 . S
C1539 C1541 1.388 . S
C1540 C1539 1.366 . S
C1540 C1544 1.385 . S
C1541 H1516 0.951 . S
C1541 C1539 1.388 . S
C1541 C1542 1.366 . S
C1542 C1541 1.366 . S
C1542 C1543 1.414 . S
C1542 C1545 1.499 . S
C1543 H1517 0.950 . S
C1543 C1542 1.414 . S
C1543 C1544 1.374 . S
C1544 H1518 0.950 . S
C1544 C1540 1.385 . S
C1544 C1543 1.374 . S
C1545 C1542 1.499 . S
C1545 C1546 1.373 . S
C1545 C1547 1.389 . S
C1546 H1519 0.950 . S
C1546 C1532 1.377 . S
C1546 C1545 1.373 . S
C1547 C1531 1.377 . S
C1547 C1545 1.389 . S
C1547 C1548 1.524 . S
C1548 C1547 1.524 . S
C1548 C1549 1.397 1_565 S
C1548 C1553 1.363 1_565 S
C1549 H1520 0.950 1_545 S
C1549 C1548 1.397 1_545 S
C1549 C1550 1.334 . S
C1550 H1521 0.950 . S
C1550 C1549 1.334 . S
C1550 C1551 1.287 . S
C1551 C1550 1.287 . S
C1551 C1552 1.524 . S
C1551 H1554 0.999 . S
C1552 H1522 0.950 . S
C1552 C1551 1.524 . S
C1552 C1553 1.415 . S
C1553 H1523 0.950 . S
C1553 C1548 1.363 1_545 S
C1553 C1552 1.415 . S
H1554 C1551 0.999 . S
H1555 C1536 0.913 . S
H1556 C1574 0.951 . S
H1557 C1576 0.951 . S
H1558 C1578 0.950 . S
H1559 C1579 0.950 . S
H1560 C1581 0.950 . S
H1561 C1584 0.950 . S
H1562 C1585 0.950 . S
H1563 C1587 0.950 . S
H1564 C1588 0.950 . S
H1565 C1589 0.951 . S
H1566 C1591 0.951 . S
H1567 C1593 0.950 . S
H1568 C1594 0.950 . S
H1569 C1596 0.950 . S
H1570 C1599 0.950 . S
H1571 C1600 0.950 . S
H1572 C1602 0.950 . S
H1573 C1603 0.950 . S
C1574 H1556 0.951 . S
C1574 C1575 1.366 . S
C1574 C1576 1.388 . S
C1575 C1574 1.366 . S
C1575 C1579 1.385 . S
C1576 H1557 0.951 . S
C1576 C1574 1.388 . S
C1576 C1577 1.366 . S
C1577 C1576 1.366 . S
C1577 C1578 1.414 . S
C1577 C1580 1.499 . S
C1578 H1558 0.950 . S
C1578 C1577 1.414 . S
C1578 C1579 1.374 . S
C1579 H1559 0.950 . S
C1579 C1575 1.385 . S
C1579 C1578 1.374 . S
C1580 C1577 1.499 . S
C1580 C1581 1.373 . S
C1580 C1582 1.389 . S
C1581 H1560 0.950 . S
C1581 C1580 1.373 . S
C1581 C1597 1.377 . S
C1582 C1580 1.389 . S
C1582 C1583 1.524 . S
C1582 C1596 1.377 . S
C1583 C1582 1.524 . S
C1583 C1584 1.397 . S
C1583 C1588 1.363 . S
C1584 H1561 0.950 . S
C1584 C1583 1.397 . S
C1584 C1585 1.334 . S
C1585 H1562 0.950 . S
C1585 C1584 1.334 . S
C1585 C1586 1.287 . S
C1586 C1585 1.287 . S
C1586 C1587 1.524 . S
C1586 H1605 0.913 . S
C1587 H1563 0.950 . S
C1587 C1586 1.524 . S
C1587 C1588 1.415 . S
C1588 H1564 0.950 . S
C1588 C1583 1.363 . S
C1588 C1587 1.415 . S
C1589 H1565 0.951 . S
C1589 C1590 1.366 . S
C1589 C1591 1.388 . S
C1590 C1589 1.366 . S
C1590 C1594 1.385 . S
C1591 H1566 0.951 . S
C1591 C1589 1.388 . S
C1591 C1592 1.366 . S
C1592 C1591 1.366 . S
C1592 C1593 1.414 . S
C1592 C1595 1.499 . S
C1593 H1567 0.950 . S
C1593 C1592 1.414 . S
C1593 C1594 1.374 . S
C1594 H1568 0.950 . S
C1594 C1590 1.385 . S
C1594 C1593 1.374 . S
C1595 C1592 1.499 . S
C1595 C1596 1.373 . S
C1595 C1597 1.389 . S
C1596 H1569 0.950 . S
C1596 C1582 1.377 . S
C1596 C1595 1.373 . S
C1597 C1581 1.377 . S
C1597 C1595 1.389 . S
C1597 C1598 1.524 . S
C1598 C1597 1.524 . S
C1598 C1599 1.397 . S
C1598 C1603 1.363 . S
C1599 H1570 0.950 . S
C1599 C1598 1.397 . S
C1599 C1600 1.334 . S
C1600 H1571 0.950 . S
C1600 C1599 1.334 . S
C1600 C1601 1.287 . S
C1601 C1600 1.287 . S
C1601 C1602 1.524 . S
C1601 H1604 0.999 1_655 S
C1602 H1572 0.950 . S
C1602 C1601 1.524 . S
C1602 C1603 1.415 . S
C1603 H1573 0.950 . S
C1603 C1598 1.363 . S
C1603 C1602 1.415 . S
H1604 C1601 0.999 1_455 S
H1605 C1586 0.913 . S
H1606 C1624 0.951 . S
H1607 C1626 0.951 . S
H1608 C1628 0.950 . S
H1609 C1629 0.950 . S
H1610 C1631 0.950 . S
H1611 C1634 0.950 . S
H1612 C1635 0.950 . S
H1613 C1637 0.950 . S
H1614 C1638 0.950 . S
H1615 C1639 0.951 . S
H1616 C1641 0.951 . S
H1617 C1643 0.950 . S
H1618 C1644 0.950 . S
H1619 C1646 0.950 . S
H1620 C1649 0.950 . S
H1621 C1650 0.950 1_545 S
H1622 C1652 0.950 . S
H1623 C1653 0.950 . S
C1624 H1606 0.951 . S
C1624 C1625 1.366 . S
C1624 C1626 1.388 . S
C1625 C1624 1.366 . S
C1625 C1629 1.385 . S
C1626 H1607 0.951 . S
C1626 C1624 1.388 . S
C1626 C1627 1.366 . S
C1627 C1626 1.366 . S
C1627 C1628 1.414 . S
C1627 C1630 1.499 . S
C1628 H1608 0.950 . S
C1628 C1627 1.414 . S
C1628 C1629 1.374 . S
C1629 H1609 0.950 . S
C1629 C1625 1.385 . S
C1629 C1628 1.374 . S
C1630 C1627 1.499 . S
C1630 C1631 1.373 . S
C1630 C1632 1.389 . S
C1631 H1610 0.950 . S
C1631 C1630 1.373 . S
C1631 C1647 1.377 . S
C1632 C1630 1.389 . S
C1632 C1633 1.524 . S
C1632 C1646 1.377 . S
C1633 C1632 1.524 . S
C1633 C1634 1.397 . S
C1633 C1638 1.363 . S
C1634 H1611 0.950 . S
C1634 C1633 1.397 . S
C1634 C1635 1.334 . S
C1635 H1612 0.950 . S
C1635 C1634 1.334 . S
C1635 C1636 1.287 . S
C1636 C1635 1.287 . S
C1636 C1637 1.524 . S
C1636 H1655 0.913 . S
C1637 H1613 0.950 . S
C1637 C1636 1.524 . S
C1637 C1638 1.415 . S
C1638 H1614 0.950 . S
C1638 C1633 1.363 . S
C1638 C1637 1.415 . S
C1639 H1615 0.951 . S
C1639 C1640 1.366 . S
C1639 C1641 1.388 . S
C1640 C1639 1.366 . S
C1640 C1644 1.385 . S
C1641 H1616 0.951 . S
C1641 C1639 1.388 . S
C1641 C1642 1.366 . S
C1642 C1641 1.366 . S
C1642 C1643 1.414 . S
C1642 C1645 1.499 . S
C1643 H1617 0.950 . S
C1643 C1642 1.414 . S
C1643 C1644 1.374 . S
C1644 H1618 0.950 . S
C1644 C1640 1.385 . S
C1644 C1643 1.374 . S
C1645 C1642 1.499 . S
C1645 C1646 1.373 . S
C1645 C1647 1.389 . S
C1646 H1619 0.950 . S
C1646 C1632 1.377 . S
C1646 C1645 1.373 . S
C1647 C1631 1.377 . S
C1647 C1645 1.389 . S
C1647 C1648 1.524 . S
C1648 C1647 1.524 . S
C1648 C1649 1.397 . S
C1648 C1653 1.363 . S
C1649 H1620 0.950 . S
C1649 C1648 1.397 . S
C1649 C1650 1.334 . S
C1650 H1621 0.950 1_565 S
C1650 C1649 1.334 . S
C1650 C1651 1.287 . S
C1651 C1650 1.287 . S
C1651 C1652 1.524 . S
C1651 H1654 0.999 1_565 S
C1652 H1622 0.950 . S
C1652 C1651 1.524 . S
C1652 C1653 1.415 . S
C1653 H1623 0.950 . S
C1653 C1648 1.363 . S
C1653 C1652 1.415 . S
H1654 C1651 0.999 1_545 S
H1655 C1636 0.913 . S
H1656 C1674 0.951 . S
H1657 C1676 0.951 . S
H1658 C1678 0.950 . S
H1659 C1679 0.950 . S
H1660 C1681 0.950 . S
H1661 C1684 0.950 . S
H1662 C1685 0.950 . S
H1663 C1687 0.950 . S
H1664 C1688 0.950 . S
H1665 C1689 0.951 . S
H1666 C1691 0.951 . S
H1667 C1693 0.950 . S
H1668 C1694 0.950 . S
H1669 C1696 0.950 . S
H1670 C1699 0.950 . S
H1671 C1700 0.950 . S
H1672 C1702 0.950 . S
H1673 C1703 0.950 . S
C1674 H1656 0.951 . S
C1674 C1675 1.366 . S
C1674 C1676 1.388 . S
C1675 C1674 1.366 . S
C1675 C1679 1.385 . S
C1676 H1657 0.951 . S
C1676 C1674 1.388 . S
C1676 C1677 1.366 . S
C1677 C1676 1.366 . S
C1677 C1678 1.414 . S
C1677 C1680 1.499 . S
C1678 H1658 0.950 . S
C1678 C1677 1.414 . S
C1678 C1679 1.374 . S
C1679 H1659 0.950 . S
C1679 C1675 1.385 . S
C1679 C1678 1.374 . S
C1680 C1677 1.499 . S
C1680 C1681 1.373 . S
C1680 C1682 1.389 . S
C1681 H1660 0.950 . S
C1681 C1680 1.373 . S
C1681 C1697 1.377 . S
C1682 C1680 1.389 . S
C1682 C1683 1.524 . S
C1682 C1696 1.377 . S
C1683 C1682 1.524 . S
C1683 C1684 1.397 . S
C1683 C1688 1.363 . S
C1684 H1661 0.950 . S
C1684 C1683 1.397 . S
C1684 C1685 1.334 . S
C1685 H1662 0.950 . S
C1685 C1684 1.334 . S
C1685 C1686 1.287 . S
C1686 C1685 1.287 . S
C1686 C1687 1.524 . S
C1686 H1705 0.913 . S
C1687 H1663 0.950 . S
C1687 C1686 1.524 . S
C1687 C1688 1.415 . S
C1688 H1664 0.950 . S
C1688 C1683 1.363 . S
C1688 C1687 1.415 . S
C1689 H1665 0.951 . S
C1689 C1690 1.366 . S
C1689 C1691 1.388 . S
C1690 C1689 1.366 . S
C1690 C1694 1.385 . S
C1691 H1666 0.951 . S
C1691 C1689 1.388 . S
C1691 C1692 1.366 . S
C1692 C1691 1.366 . S
C1692 C1693 1.414 . S
C1692 C1695 1.499 . S
C1693 H1667 0.950 . S
C1693 C1692 1.414 . S
C1693 C1694 1.374 . S
C1694 H1668 0.950 . S
C1694 C1690 1.385 . S
C1694 C1693 1.374 . S
C1695 C1692 1.499 . S
C1695 C1696 1.373 . S
C1695 C1697 1.389 . S
C1696 H1669 0.950 . S
C1696 C1682 1.377 . S
C1696 C1695 1.373 . S
C1697 C1681 1.377 . S
C1697 C1695 1.389 . S
C1697 C1698 1.524 . S
C1698 C1697 1.524 . S
C1698 C1699 1.397 . S
C1698 C1703 1.363 . S
C1699 H1670 0.950 . S
C1699 C1698 1.397 . S
C1699 C1700 1.334 . S
C1700 H1671 0.950 . S
C1700 C1699 1.334 . S
C1700 C1701 1.287 . S
C1701 C1700 1.287 . S
C1701 C1702 1.524 . S
C1701 H1704 0.999 . S
C1702 H1672 0.950 . S
C1702 C1701 1.524 . S
C1702 C1703 1.415 . S
C1703 H1673 0.950 . S
C1703 C1698 1.363 . S
C1703 C1702 1.415 . S
H1704 C1701 0.999 . S
H1705 C1686 0.913 . S
H1706 C1724 0.951 . S
H1707 C1726 0.951 . S
H1708 C1728 0.950 . S
H1709 C1729 0.950 . S
H1710 C1731 0.950 . S
H1711 C1734 0.950 . S
H1712 C1735 0.950 . S
H1713 C1737 0.950 . S
H1714 C1738 0.950 . S
H1715 C1739 0.951 . S
H1716 C1741 0.951 . S
H1717 C1743 0.950 . S
H1718 C1744 0.950 . S
H1719 C1746 0.950 . S
H1720 C1749 0.950 . S
H1721 C1750 0.950 . S
H1722 C1752 0.950 . S
H1723 C1753 0.950 . S
C1724 H1706 0.951 . S
C1724 C1725 1.366 . S
C1724 C1726 1.388 . S
C1725 C1724 1.366 . S
C1725 C1729 1.385 . S
C1726 H1707 0.951 . S
C1726 C1724 1.388 . S
C1726 C1727 1.366 . S
C1727 C1726 1.366 . S
C1727 C1728 1.414 . S
C1727 C1730 1.499 . S
C1728 H1708 0.950 . S
C1728 C1727 1.414 . S
C1728 C1729 1.374 . S
C1729 H1709 0.950 . S
C1729 C1725 1.385 . S
C1729 C1728 1.374 . S
C1730 C1727 1.499 . S
C1730 C1731 1.373 . S
C1730 C1732 1.389 . S
C1731 H1710 0.950 . S
C1731 C1730 1.373 . S
C1731 C1747 1.377 . S
C1732 C1730 1.389 . S
C1732 C1733 1.524 . S
C1732 C1746 1.377 . S
C1733 C1732 1.524 . S
C1733 C1734 1.397 . S
C1733 C1738 1.363 . S
C1734 H1711 0.950 . S
C1734 C1733 1.397 . S
C1734 C1735 1.334 . S
C1735 H1712 0.950 . S
C1735 C1734 1.334 . S
C1735 C1736 1.287 . S
C1736 C1735 1.287 . S
C1736 C1737 1.524 . S
C1736 H1755 0.913 . S
C1737 H1713 0.950 . S
C1737 C1736 1.524 . S
C1737 C1738 1.415 . S
C1738 H1714 0.950 . S
C1738 C1733 1.363 . S
C1738 C1737 1.415 . S
C1739 H1715 0.951 . S
C1739 C1740 1.366 . S
C1739 C1741 1.388 . S
C1740 C1739 1.366 . S
C1740 C1744 1.385 . S
C1741 H1716 0.951 . S
C1741 C1739 1.388 . S
C1741 C1742 1.366 . S
C1742 C1741 1.366 . S
C1742 C1743 1.414 . S
C1742 C1745 1.499 . S
C1743 H1717 0.950 . S
C1743 C1742 1.414 . S
C1743 C1744 1.374 . S
C1744 H1718 0.950 . S
C1744 C1740 1.385 . S
C1744 C1743 1.374 . S
C1745 C1742 1.499 . S
C1745 C1746 1.373 . S
C1745 C1747 1.389 . S
C1746 H1719 0.950 . S
C1746 C1732 1.377 . S
C1746 C1745 1.373 . S
C1747 C1731 1.377 . S
C1747 C1745 1.389 . S
C1747 C1748 1.524 . S
C1748 C1747 1.524 . S
C1748 C1749 1.397 . S
C1748 C1753 1.363 . S
C1749 H1720 0.950 . S
C1749 C1748 1.397 . S
C1749 C1750 1.334 . S
C1750 H1721 0.950 . S
C1750 C1749 1.334 . S
C1750 C1751 1.287 . S
C1751 C1750 1.287 . S
C1751 C1752 1.524 . S
C1751 H1754 0.999 . S
C1752 H1722 0.950 . S
C1752 C1751 1.524 . S
C1752 C1753 1.415 . S
C1753 H1723 0.950 . S
C1753 C1748 1.363 . S
C1753 C1752 1.415 . S
H1754 C1751 0.999 . S
H1755 C1736 0.913 . S
H1756 C1774 0.951 . S
H1757 C1776 0.951 . S
H1758 C1778 0.950 . S
H1759 C1779 0.950 . S
H1760 C1781 0.950 . S
H1761 C1784 0.950 . S
H1762 C1785 0.950 . S
H1763 C1787 0.950 . S
H1764 C1788 0.950 . S
H1765 C1789 0.951 . S
H1766 C1791 0.951 . S
H1767 C1793 0.950 . S
H1768 C1794 0.950 . S
H1769 C1796 0.950 . S
H1770 C1799 0.950 . S
H1771 C1800 0.950 . S
H1772 C1802 0.950 . S
H1773 C1803 0.950 . S
C1774 H1756 0.951 . S
C1774 C1775 1.366 . S
C1774 C1776 1.388 . S
C1775 C1774 1.366 . S
C1775 C1779 1.385 . S
C1776 H1757 0.951 . S
C1776 C1774 1.388 . S
C1776 C1777 1.366 . S
C1777 C1776 1.366 . S
C1777 C1778 1.414 . S
C1777 C1780 1.499 . S
C1778 H1758 0.950 . S
C1778 C1777 1.414 . S
C1778 C1779 1.374 . S
C1779 H1759 0.950 . S
C1779 C1775 1.385 . S
C1779 C1778 1.374 . S
C1780 C1777 1.499 . S
C1780 C1781 1.373 . S
C1780 C1782 1.389 . S
C1781 H1760 0.950 . S
C1781 C1780 1.373 . S
C1781 C1797 1.377 . S
C1782 C1780 1.389 . S
C1782 C1783 1.524 . S
C1782 C1796 1.377 . S
C1783 C1782 1.524 . S
C1783 C1784 1.397 . S
C1783 C1788 1.363 . S
C1784 H1761 0.950 . S
C1784 C1783 1.397 . S
C1784 C1785 1.334 . S
C1785 H1762 0.950 . S
C1785 C1784 1.334 . S
C1785 C1786 1.287 . S
C1786 C1785 1.287 . S
C1786 C1787 1.524 . S
C1786 H1805 0.913 . S
C1787 H1763 0.950 . S
C1787 C1786 1.524 . S
C1787 C1788 1.415 . S
C1788 H1764 0.950 . S
C1788 C1783 1.363 . S
C1788 C1787 1.415 . S
C1789 H1765 0.951 . S
C1789 C1790 1.366 . S
C1789 C1791 1.388 . S
C1790 C1789 1.366 . S
C1790 C1794 1.385 . S
C1791 H1766 0.951 . S
C1791 C1789 1.388 . S
C1791 C1792 1.366 . S
C1792 C1791 1.366 . S
C1792 C1793 1.414 . S
C1792 C1795 1.499 . S
C1793 H1767 0.950 . S
C1793 C1792 1.414 . S
C1793 C1794 1.374 . S
C1794 H1768 0.950 . S
C1794 C1790 1.385 . S
C1794 C1793 1.374 . S
C1795 C1792 1.499 . S
C1795 C1796 1.373 . S
C1795 C1797 1.389 . S
C1796 H1769 0.950 . S
C1796 C1782 1.377 . S
C1796 C1795 1.373 . S
C1797 C1781 1.377 . S
C1797 C1795 1.389 . S
C1797 C1798 1.524 . S
C1798 C1797 1.524 . S
C1798 C1799 1.397 . S
C1798 C1803 1.363 . S
C1799 H1770 0.950 . S
C1799 C1798 1.397 . S
C1799 C1800 1.334 . S
C1800 H1771 0.950 . S
C1800 C1799 1.334 . S
C1800 C1801 1.287 . S
C1801 C1800 1.287 . S
C1801 C1802 1.524 . S
C1801 H1804 0.999 . S
C1802 H1772 0.950 . S
C1802 C1801 1.524 . S
C1802 C1803 1.415 . S
C1803 H1773 0.950 . S
C1803 C1798 1.363 . S
C1803 C1802 1.415 . S
H1804 C1801 0.999 . S
H1805 C1786 0.913 . S
H1806 C1824 0.951 . S
H1807 C1826 0.951 . S
H1808 C1828 0.950 . S
H1809 C1829 0.950 . S
H1810 C1831 0.950 . S
H1811 C1834 0.950 . S
H1812 C1835 0.950 . S
H1813 C1837 0.950 . S
H1814 C1838 0.950 . S
H1815 C1839 0.951 . S
H1816 C1841 0.951 . S
H1817 C1843 0.950 . S
H1818 C1844 0.950 . S
H1819 C1846 0.950 . S
H1820 C1849 0.950 . S
H1821 C1850 0.950 . S
H1822 C1852 0.950 . S
H1823 C1853 0.950 . S
C1824 H1806 0.951 . S
C1824 C1825 1.366 . S
C1824 C1826 1.388 . S
C1825 C1824 1.366 . S
C1825 C1829 1.385 . S
C1826 H1807 0.951 . S
C1826 C1824 1.388 . S
C1826 C1827 1.366 . S
C1827 C1826 1.366 . S
C1827 C1828 1.414 . S
C1827 C1830 1.499 . S
C1828 H1808 0.950 . S
C1828 C1827 1.414 . S
C1828 C1829 1.374 . S
C1829 H1809 0.950 . S
C1829 C1825 1.385 . S
C1829 C1828 1.374 . S
C1830 C1827 1.499 . S
C1830 C1831 1.373 . S
C1830 C1832 1.389 . S
C1831 H1810 0.950 . S
C1831 C1830 1.373 . S
C1831 C1847 1.377 . S
C1832 C1830 1.389 . S
C1832 C1833 1.524 . S
C1832 C1846 1.377 . S
C1833 C1832 1.524 . S
C1833 C1834 1.397 . S
C1833 C1838 1.363 . S
C1834 H1811 0.950 . S
C1834 C1833 1.397 . S
C1834 C1835 1.334 . S
C1835 H1812 0.950 . S
C1835 C1834 1.334 . S
C1835 C1836 1.287 . S
C1836 C1835 1.287 . S
C1836 C1837 1.524 . S
C1836 H1855 0.913 . S
C1837 H1813 0.950 . S
C1837 C1836 1.524 . S
C1837 C1838 1.415 . S
C1838 H1814 0.950 . S
C1838 C1833 1.363 . S
C1838 C1837 1.415 . S
C1839 H1815 0.951 . S
C1839 C1840 1.366 . S
C1839 C1841 1.388 . S
C1840 C1839 1.366 . S
C1840 C1844 1.385 . S
C1841 H1816 0.951 . S
C1841 C1839 1.388 . S
C1841 C1842 1.366 . S
C1842 C1841 1.366 . S
C1842 C1843 1.414 . S
C1842 C1845 1.499 . S
C1843 H1817 0.950 . S
C1843 C1842 1.414 . S
C1843 C1844 1.374 . S
C1844 H1818 0.950 . S
C1844 C1840 1.385 . S
C1844 C1843 1.374 . S
C1845 C1842 1.499 . S
C1845 C1846 1.373 . S
C1845 C1847 1.389 . S
C1846 H1819 0.950 . S
C1846 C1832 1.377 . S
C1846 C1845 1.373 . S
C1847 C1831 1.377 . S
C1847 C1845 1.389 . S
C1847 C1848 1.524 . S
C1848 C1847 1.524 . S
C1848 C1849 1.397 . S
C1848 C1853 1.363 . S
C1849 H1820 0.950 . S
C1849 C1848 1.397 . S
C1849 C1850 1.334 . S
C1850 H1821 0.950 . S
C1850 C1849 1.334 . S
C1850 C1851 1.287 . S
C1851 C1850 1.287 . S
C1851 C1852 1.524 . S
C1851 H1854 0.999 . S
C1852 H1822 0.950 . S
C1852 C1851 1.524 . S
C1852 C1853 1.415 . S
C1853 H1823 0.950 . S
C1853 C1848 1.363 . S
C1853 C1852 1.415 . S
H1854 C1851 0.999 . S
H1855 C1836 0.913 . S
H1856 C1874 0.951 . S
H1857 C1876 0.951 . S
H1858 C1878 0.950 . S
H1859 C1879 0.950 . S
H1860 C1881 0.950 . S
H1861 C1884 0.950 . S
H1862 C1885 0.950 . S
H1863 C1887 0.950 . S
H1864 C1888 0.950 . S
H1865 C1889 0.951 . S
H1866 C1891 0.951 . S
H1867 C1893 0.950 . S
H1868 C1894 0.950 . S
H1869 C1896 0.950 . S
H1870 C1899 0.950 . S
H1871 C1900 0.950 . S
H1872 C1902 0.950 1_554 S
H1873 C1903 0.950 . S
C1874 H1856 0.951 . S
C1874 C1875 1.366 . S
C1874 C1876 1.388 . S
C1875 C1874 1.366 . S
C1875 C1879 1.385 . S
C1876 H1857 0.951 . S
C1876 C1874 1.388 . S
C1876 C1877 1.366 . S
C1877 C1876 1.366 . S
C1877 C1878 1.414 . S
C1877 C1880 1.499 . S
C1878 H1858 0.950 . S
C1878 C1877 1.414 . S
C1878 C1879 1.374 . S
C1879 H1859 0.950 . S
C1879 C1875 1.385 . S
C1879 C1878 1.374 . S
C1880 C1877 1.499 . S
C1880 C1881 1.373 . S
C1880 C1882 1.389 . S
C1881 H1860 0.950 . S
C1881 C1880 1.373 . S
C1881 C1897 1.377 . S
C1882 C1880 1.389 . S
C1882 C1883 1.524 . S
C1882 C1896 1.377 . S
C1883 C1882 1.524 . S
C1883 C1884 1.397 . S
C1883 C1888 1.363 . S
C1884 H1861 0.950 . S
C1884 C1883 1.397 . S
C1884 C1885 1.334 . S
C1885 H1862 0.950 . S
C1885 C1884 1.334 . S
C1885 C1886 1.287 . S
C1886 C1885 1.287 . S
C1886 C1887 1.524 . S
C1886 H1905 0.913 . S
C1887 H1863 0.950 . S
C1887 C1886 1.524 . S
C1887 C1888 1.415 . S
C1888 H1864 0.950 . S
C1888 C1883 1.363 . S
C1888 C1887 1.415 . S
C1889 H1865 0.951 . S
C1889 C1890 1.366 . S
C1889 C1891 1.388 . S
C1890 C1889 1.366 . S
C1890 C1894 1.385 . S
C1891 H1866 0.951 . S
C1891 C1889 1.388 . S
C1891 C1892 1.366 . S
C1892 C1891 1.366 . S
C1892 C1893 1.414 . S
C1892 C1895 1.499 . S
C1893 H1867 0.950 . S
C1893 C1892 1.414 . S
C1893 C1894 1.374 . S
C1894 H1868 0.950 . S
C1894 C1890 1.385 . S
C1894 C1893 1.374 . S
C1895 C1892 1.499 . S
C1895 C1896 1.373 . S
C1895 C1897 1.389 . S
C1896 H1869 0.950 . S
C1896 C1882 1.377 . S
C1896 C1895 1.373 . S
C1897 C1881 1.377 . S
C1897 C1895 1.389 . S
C1897 C1898 1.524 . S
C1898 C1897 1.524 . S
C1898 C1899 1.397 . S
C1898 C1903 1.363 . S
C1899 H1870 0.950 . S
C1899 C1898 1.397 . S
C1899 C1900 1.334 1_556 S
C1900 H1871 0.950 . S
C1900 C1899 1.334 1_554 S
C1900 C1901 1.287 . S
C1901 C1900 1.287 . S
C1901 C1902 1.524 1_554 S
C1901 H1904 0.999 . S
C1902 H1872 0.950 1_556 S
C1902 C1901 1.524 1_556 S
C1902 C1903 1.415 . S
C1903 H1873 0.950 . S
C1903 C1898 1.363 . S
C1903 C1902 1.415 . S
H1904 C1901 0.999 . S
H1905 C1886 0.913 . S
H1906 C1924 0.951 . S
H1907 C1926 0.951 . S
H1908 C1928 0.950 . S
H1909 C1929 0.950 . S
H1910 C1931 0.950 . S
H1911 C1934 0.950 . S
H1912 C1935 0.950 . S
H1913 C1937 0.950 . S
H1914 C1938 0.950 . S
H1915 C1939 0.951 . S
H1916 C1941 0.951 . S
H1917 C1943 0.950 . S
H1918 C1944 0.950 . S
H1919 C1946 0.950 . S
H1920 C1949 0.950 . S
H1921 C1950 0.950 . S
H1922 C1952 0.950 . S
H1923 C1953 0.950 . S
C1924 H1906 0.951 . S
C1924 C1925 1.366 . S
C1924 C1926 1.388 . S
C1925 C1924 1.366 . S
C1925 C1929 1.385 . S
C1926 H1907 0.951 . S
C1926 C1924 1.388 . S
C1926 C1927 1.366 . S
C1927 C1926 1.366 . S
C1927 C1928 1.414 . S
C1927 C1930 1.499 . S
C1928 H1908 0.950 . S
C1928 C1927 1.414 . S
C1928 C1929 1.374 . S
C1929 H1909 0.950 . S
C1929 C1925 1.385 . S
C1929 C1928 1.374 . S
C1930 C1927 1.499 . S
C1930 C1931 1.373 . S
C1930 C1932 1.389 . S
C1931 H1910 0.950 . S
C1931 C1930 1.373 . S
C1931 C1947 1.377 . S
C1932 C1930 1.389 . S
C1932 C1933 1.524 . S
C1932 C1946 1.377 . S
C1933 C1932 1.524 . S
C1933 C1934 1.397 . S
C1933 C1938 1.363 . S
C1934 H1911 0.950 . S
C1934 C1933 1.397 . S
C1934 C1935 1.334 . S
C1935 H1912 0.950 . S
C1935 C1934 1.334 . S
C1935 C1936 1.287 . S
C1936 C1935 1.287 . S
C1936 C1937 1.524 . S
C1936 H1955 0.913 . S
C1937 H1913 0.950 . S
C1937 C1936 1.524 . S
C1937 C1938 1.415 . S
C1938 H1914 0.950 . S
C1938 C1933 1.363 . S
C1938 C1937 1.415 . S
C1939 H1915 0.951 . S
C1939 C1940 1.366 . S
C1939 C1941 1.388 . S
C1940 C1939 1.366 . S
C1940 C1944 1.385 . S
C1941 H1916 0.951 . S
C1941 C1939 1.388 . S
C1941 C1942 1.366 . S
C1942 C1941 1.366 . S
C1942 C1943 1.414 . S
C1942 C1945 1.499 . S
C1943 H1917 0.950 . S
C1943 C1942 1.414 . S
C1943 C1944 1.374 . S
C1944 H1918 0.950 . S
C1944 C1940 1.385 . S
C1944 C1943 1.374 . S
C1945 C1942 1.499 . S
C1945 C1946 1.373 . S
C1945 C1947 1.389 . S
C1946 H1919 0.950 . S
C1946 C1932 1.377 . S
C1946 C1945 1.373 . S
C1947 C1931 1.377 . S
C1947 C1945 1.389 . S
C1947 C1948 1.524 . S
C1948 C1947 1.524 . S
C1948 C1949 1.397 . S
C1948 C1953 1.363 . S
C1949 H1920 0.950 . S
C1949 C1948 1.397 . S
C1949 C1950 1.334 . S
C1950 H1921 0.950 . S
C1950 C1949 1.334 . S
C1950 C1951 1.287 . S
C1951 C1950 1.287 . S
C1951 C1952 1.524 . S
C1951 H1954 0.999 . S
C1952 H1922 0.950 . S
C1952 C1951 1.524 . S
C1952 C1953 1.415 . S
C1953 H1923 0.950 . S
C1953 C1948 1.363 . S
C1953 C1952 1.415 . S
H1954 C1951 0.999 . S
H1955 C1936 0.913 . S
H1956 C1974 0.951 . S
H1957 C1976 0.951 . S
H1958 C1978 0.950 . S
H1959 C1979 0.950 . S
H1960 C1981 0.950 . S
H1961 C1984 0.950 . S
H1962 C1985 0.950 . S
H1963 C1987 0.950 . S
H1964 C1988 0.950 . S
H1965 C1989 0.951 . S
H1966 C1991 0.951 . S
H1967 C1993 0.950 . S
H1968 C1994 0.950 . S
H1969 C1996 0.950 . S
H1970 C1999 0.950 . S
H1971 C2000 0.950 . S
H1972 C2002 0.950 . S
H1973 C2003 0.950 . S
C1974 H1956 0.951 . S
C1974 C1975 1.366 . S
C1974 C1976 1.388 . S
C1975 C1974 1.366 . S
C1975 C1979 1.385 . S
C1976 H1957 0.951 . S
C1976 C1974 1.388 . S
C1976 C1977 1.366 . S
C1977 C1976 1.366 . S
C1977 C1978 1.414 . S
C1977 C1980 1.499 . S
C1978 H1958 0.950 . S
C1978 C1977 1.414 . S
C1978 C1979 1.374 . S
C1979 H1959 0.950 . S
C1979 C1975 1.385 . S
C1979 C1978 1.374 . S
C1980 C1977 1.499 . S
C1980 C1981 1.373 . S
C1980 C1982 1.389 . S
C1981 H1960 0.950 . S
C1981 C1980 1.373 . S
C1981 C1997 1.377 . S
C1982 C1980 1.389 . S
C1982 C1983 1.524 . S
C1982 C1996 1.377 . S
C1983 C1982 1.524 . S
C1983 C1984 1.397 . S
C1983 C1988 1.363 . S
C1984 H1961 0.950 . S
C1984 C1983 1.397 . S
C1984 C1985 1.334 . S
C1985 H1962 0.950 . S
C1985 C1984 1.334 . S
C1985 C1986 1.287 . S
C1986 C1985 1.287 . S
C1986 C1987 1.524 . S
C1986 H2005 0.913 . S
C1987 H1963 0.950 . S
C1987 C1986 1.524 . S
C1987 C1988 1.415 . S
C1988 H1964 0.950 . S
C1988 C1983 1.363 . S
C1988 C1987 1.415 . S
C1989 H1965 0.951 . S
C1989 C1990 1.366 . S
C1989 C1991 1.388 . S
C1990 C1989 1.366 . S
C1990 C1994 1.385 . S
C1991 H1966 0.951 . S
C1991 C1989 1.388 . S
C1991 C1992 1.366 . S
C1992 C1991 1.366 . S
C1992 C1993 1.414 . S
C1992 C1995 1.499 . S
C1993 H1967 0.950 . S
C1993 C1992 1.414 . S
C1993 C1994 1.374 . S
C1994 H1968 0.950 . S
C1994 C1990 1.385 . S
C1994 C1993 1.374 . S
C1995 C1992 1.499 . S
C1995 C1996 1.373 . S
C1995 C1997 1.389 . S
C1996 H1969 0.950 . S
C1996 C1982 1.377 . S
C1996 C1995 1.373 . S
C1997 C1981 1.377 . S
C1997 C1995 1.389 . S
C1997 C1998 1.524 . S
C1998 C1997 1.524 . S
C1998 C1999 1.397 . S
C1998 C2003 1.363 . S
C1999 H1970 0.950 . S
C1999 C1998 1.397 . S
C1999 C2000 1.334 . S
C2000 H1971 0.950 . S
C2000 C1999 1.334 . S
C2000 C2001 1.287 . S
C2001 C2000 1.287 . S
C2001 C2002 1.524 . S
C2001 H2004 0.999 . S
C2002 H1972 0.950 . S
C2002 C2001 1.524 . S
C2002 C2003 1.415 . S
C2003 H1973 0.950 . S
C2003 C1998 1.363 . S
C2003 C2002 1.415 . S
H2004 C2001 0.999 . S
H2005 C1986 0.913 . S
H2006 C2024 0.951 . S
H2007 C2026 0.951 . S
H2008 C2028 0.950 . S
H2009 C2029 0.950 . S
H2010 C2031 0.950 . S
H2011 C2034 0.950 . S
H2012 C2035 0.950 . S
H2013 C2037 0.950 . S
H2014 C2038 0.950 . S
H2015 C2039 0.951 . S
H2016 C2041 0.951 . S
H2017 C2043 0.950 . S
H2018 C2044 0.950 . S
H2019 C2046 0.950 . S
H2020 C2049 0.950 . S
H2021 C2050 0.950 . S
H2022 C2052 0.950 . S
H2023 C2053 0.950 . S
C2024 H2006 0.951 . S
C2024 C2025 1.366 . S
C2024 C2026 1.388 . S
C2025 C2024 1.366 . S
C2025 C2029 1.385 . S
C2026 H2007 0.951 . S
C2026 C2024 1.388 . S
C2026 C2027 1.366 . S
C2027 C2026 1.366 . S
C2027 C2028 1.414 . S
C2027 C2030 1.499 . S
C2028 H2008 0.950 . S
C2028 C2027 1.414 . S
C2028 C2029 1.374 . S
C2029 H2009 0.950 . S
C2029 C2025 1.385 . S
C2029 C2028 1.374 . S
C2030 C2027 1.499 . S
C2030 C2031 1.373 . S
C2030 C2032 1.389 . S
C2031 H2010 0.950 . S
C2031 C2030 1.373 . S
C2031 C2047 1.377 . S
C2032 C2030 1.389 . S
C2032 C2033 1.524 . S
C2032 C2046 1.377 . S
C2033 C2032 1.524 . S
C2033 C2034 1.397 . S
C2033 C2038 1.363 . S
C2034 H2011 0.950 . S
C2034 C2033 1.397 . S
C2034 C2035 1.334 . S
C2035 H2012 0.950 . S
C2035 C2034 1.334 . S
C2035 C2036 1.287 . S
C2036 C2035 1.287 . S
C2036 C2037 1.524 . S
C2036 H2055 0.913 . S
C2037 H2013 0.950 . S
C2037 C2036 1.524 . S
C2037 C2038 1.415 . S
C2038 H2014 0.950 . S
C2038 C2033 1.363 . S
C2038 C2037 1.415 . S
C2039 H2015 0.951 . S
C2039 C2040 1.366 . S
C2039 C2041 1.388 . S
C2040 C2039 1.366 . S
C2040 C2044 1.385 . S
C2041 H2016 0.951 . S
C2041 C2039 1.388 . S
C2041 C2042 1.366 . S
C2042 C2041 1.366 . S
C2042 C2043 1.414 . S
C2042 C2045 1.499 . S
C2043 H2017 0.950 . S
C2043 C2042 1.414 . S
C2043 C2044 1.374 . S
C2044 H2018 0.950 . S
C2044 C2040 1.385 . S
C2044 C2043 1.374 . S
C2045 C2042 1.499 . S
C2045 C2046 1.373 . S
C2045 C2047 1.389 . S
C2046 H2019 0.950 . S
C2046 C2032 1.377 . S
C2046 C2045 1.373 . S
C2047 C2031 1.377 . S
C2047 C2045 1.389 . S
C2047 C2048 1.524 . S
C2048 C2047 1.524 . S
C2048 C2049 1.397 . S
C2048 C2053 1.363 . S
C2049 H2020 0.950 . S
C2049 C2048 1.397 . S
C2049 C2050 1.334 . S
C2050 H2021 0.950 . S
C2050 C2049 1.334 . S
C2050 C2051 1.287 . S
C2051 C2050 1.287 . S
C2051 C2052 1.524 . S
C2051 H2054 0.999 . S
C2052 H2022 0.950 . S
C2052 C2051 1.524 . S
C2052 C2053 1.415 . S
C2053 H2023 0.950 . S
C2053 C2048 1.363 . S
C2053 C2052 1.415 . S
H2054 C2051 0.999 . S
H2055 C2036 0.913 . S
H2056 C2074 0.951 . S
H2057 C2076 0.951 . S
H2058 C2078 0.950 . S
H2059 C2079 0.950 . S
H2060 C2081 0.950 . S
H2061 C2084 0.950 . S
H2062 C2085 0.950 . S
H2063 C2087 0.950 . S
H2064 C2088 0.950 . S
H2065 C2089 0.951 . S
H2066 C2091 0.951 . S
H2067 C2093 0.950 . S
H2068 C2094 0.950 . S
H2069 C2096 0.950 . S
H2070 C2099 0.950 . S
H2071 C2100 0.950 . S
H2072 C2102 0.950 . S
H2073 C2103 0.950 . S
C2074 H2056 0.951 . S
C2074 C2075 1.366 . S
C2074 C2076 1.388 . S
C2075 C2074 1.366 . S
C2075 C2079 1.385 . S
C2076 H2057 0.951 . S
C2076 C2074 1.388 . S
C2076 C2077 1.366 . S
C2077 C2076 1.366 . S
C2077 C2078 1.414 . S
C2077 C2080 1.499 . S
C2078 H2058 0.950 . S
C2078 C2077 1.414 . S
C2078 C2079 1.374 . S
C2079 H2059 0.950 . S
C2079 C2075 1.385 . S
C2079 C2078 1.374 . S
C2080 C2077 1.499 . S
C2080 C2081 1.373 . S
C2080 C2082 1.389 . S
C2081 H2060 0.950 . S
C2081 C2080 1.373 . S
C2081 C2097 1.377 . S
C2082 C2080 1.389 . S
C2082 C2083 1.524 . S
C2082 C2096 1.377 . S
C2083 C2082 1.524 . S
C2083 C2084 1.397 . S
C2083 C2088 1.363 . S
C2084 H2061 0.950 . S
C2084 C2083 1.397 . S
C2084 C2085 1.334 . S
C2085 H2062 0.950 . S
C2085 C2084 1.334 . S
C2085 C2086 1.287 . S
C2086 C2085 1.287 . S
C2086 C2087 1.524 . S
C2086 H2105 0.913 . S
C2087 H2063 0.950 . S
C2087 C2086 1.524 . S
C2087 C2088 1.415 . S
C2088 H2064 0.950 . S
C2088 C2083 1.363 . S
C2088 C2087 1.415 . S
C2089 H2065 0.951 . S
C2089 C2090 1.366 . S
C2089 C2091 1.388 . S
C2090 C2089 1.366 . S
C2090 C2094 1.385 . S
C2091 H2066 0.951 . S
C2091 C2089 1.388 . S
C2091 C2092 1.366 . S
C2092 C2091 1.366 . S
C2092 C2093 1.414 . S
C2092 C2095 1.499 . S
C2093 H2067 0.950 . S
C2093 C2092 1.414 . S
C2093 C2094 1.374 . S
C2094 H2068 0.950 . S
C2094 C2090 1.385 . S
C2094 C2093 1.374 . S
C2095 C2092 1.499 . S
C2095 C2096 1.373 . S
C2095 C2097 1.389 . S
C2096 H2069 0.950 . S
C2096 C2082 1.377 . S
C2096 C2095 1.373 . S
C2097 C2081 1.377 . S
C2097 C2095 1.389 . S
C2097 C2098 1.524 . S
C2098 C2097 1.524 . S
C2098 C2099 1.397 . S
C2098 C2103 1.363 . S
C2099 H2070 0.950 . S
C2099 C2098 1.397 . S
C2099 C2100 1.334 . S
C2100 H2071 0.950 . S
C2100 C2099 1.334 . S
C2100 C2101 1.287 . S
C2101 C2100 1.287 . S
C2101 C2102 1.524 . S
C2101 H2104 0.999 . S
C2102 H2072 0.950 . S
C2102 C2101 1.524 . S
C2102 C2103 1.415 . S
C2103 H2073 0.950 . S
C2103 C2098 1.363 . S
C2103 C2102 1.415 . S
H2104 C2101 0.999 . S
H2105 C2086 0.913 . S
H2106 C2124 0.951 . S
H2107 C2126 0.951 . S
H2108 C2128 0.950 . S
H2109 C2129 0.950 . S
H2110 C2131 0.950 . S
H2111 C2134 0.950 . S
H2112 C2135 0.950 . S
H2113 C2137 0.950 . S
H2114 C2138 0.950 . S
H2115 C2139 0.951 . S
H2116 C2141 0.951 . S
H2117 C2143 0.950 . S
H2118 C2144 0.950 . S
H2119 C2146 0.950 . S
H2120 C2149 0.950 . S
H2121 C2150 0.950 . S
H2122 C2152 0.950 . S
H2123 C2153 0.950 . S
C2124 H2106 0.951 . S
C2124 C2125 1.366 . S
C2124 C2126 1.388 . S
C2125 C2124 1.366 . S
C2125 C2129 1.385 . S
C2126 H2107 0.951 . S
C2126 C2124 1.388 . S
C2126 C2127 1.366 . S
C2127 C2126 1.366 . S
C2127 C2128 1.414 . S
C2127 C2130 1.499 . S
C2128 H2108 0.950 . S
C2128 C2127 1.414 . S
C2128 C2129 1.374 . S
C2129 H2109 0.950 . S
C2129 C2125 1.385 . S
C2129 C2128 1.374 . S
C2130 C2127 1.499 . S
C2130 C2131 1.373 . S
C2130 C2132 1.389 . S
C2131 H2110 0.950 . S
C2131 C2130 1.373 . S
C2131 C2147 1.377 . S
C2132 C2130 1.389 . S
C2132 C2133 1.524 . S
C2132 C2146 1.377 . S
C2133 C2132 1.524 . S
C2133 C2134 1.397 . S
C2133 C2138 1.363 . S
C2134 H2111 0.950 . S
C2134 C2133 1.397 . S
C2134 C2135 1.334 . S
C2135 H2112 0.950 . S
C2135 C2134 1.334 . S
C2135 C2136 1.287 . S
C2136 C2135 1.287 . S
C2136 C2137 1.524 . S
C2136 H2155 0.913 . S
C2137 H2113 0.950 . S
C2137 C2136 1.524 . S
C2137 C2138 1.415 . S
C2138 H2114 0.950 . S
C2138 C2133 1.363 . S
C2138 C2137 1.415 . S
C2139 H2115 0.951 . S
C2139 C2140 1.366 . S
C2139 C2141 1.388 . S
C2140 C2139 1.366 . S
C2140 C2144 1.385 . S
C2141 H2116 0.951 . S
C2141 C2139 1.388 . S
C2141 C2142 1.366 . S
C2142 C2141 1.366 . S
C2142 C2143 1.414 . S
C2142 C2145 1.499 . S
C2143 H2117 0.950 . S
C2143 C2142 1.414 . S
C2143 C2144 1.374 . S
C2144 H2118 0.950 . S
C2144 C2140 1.385 . S
C2144 C2143 1.374 . S
C2145 C2142 1.499 . S
C2145 C2146 1.373 . S
C2145 C2147 1.389 . S
C2146 H2119 0.950 . S
C2146 C2132 1.377 . S
C2146 C2145 1.373 . S
C2147 C2131 1.377 . S
C2147 C2145 1.389 . S
C2147 C2148 1.524 . S
C2148 C2147 1.524 . S
C2148 C2149 1.397 . S
C2148 C2153 1.363 . S
C2149 H2120 0.950 . S
C2149 C2148 1.397 . S
C2149 C2150 1.334 . S
C2150 H2121 0.950 . S
C2150 C2149 1.334 . S
C2150 C2151 1.287 . S
C2151 C2150 1.287 . S
C2151 C2152 1.524 . S
C2151 H2154 0.999 . S
C2152 H2122 0.950 . S
C2152 C2151 1.524 . S
C2152 C2153 1.415 . S
C2153 H2123 0.950 . S
C2153 C2148 1.363 . S
C2153 C2152 1.415 . S
H2154 C2151 0.999 . S
H2155 C2136 0.913 . S
H2156 C2174 0.951 . S
H2157 C2176 0.951 . S
H2158 C2178 0.950 . S
H2159 C2179 0.950 . S
H2160 C2181 0.950 . S
H2161 C2184 0.950 . S
H2162 C2185 0.950 . S
H2163 C2187 0.950 . S
H2164 C2188 0.950 . S
H2165 C2189 0.951 . S
H2166 C2191 0.951 . S
H2167 C2193 0.950 . S
H2168 C2194 0.950 . S
H2169 C2196 0.950 . S
H2170 C2199 0.950 . S
H2171 C2200 0.950 . S
H2172 C2202 0.950 . S
H2173 C2203 0.950 . S
C2174 H2156 0.951 . S
C2174 C2175 1.366 . S
C2174 C2176 1.388 . S
C2175 C2174 1.366 . S
C2175 C2179 1.385 . S
C2176 H2157 0.951 . S
C2176 C2174 1.388 . S
C2176 C2177 1.366 . S
C2177 C2176 1.366 . S
C2177 C2178 1.414 . S
C2177 C2180 1.499 . S
C2178 H2158 0.950 . S
C2178 C2177 1.414 . S
C2178 C2179 1.374 . S
C2179 H2159 0.950 . S
C2179 C2175 1.385 . S
C2179 C2178 1.374 . S
C2180 C2177 1.499 . S
C2180 C2181 1.373 . S
C2180 C2182 1.389 . S
C2181 H2160 0.950 . S
C2181 C2180 1.373 . S
C2181 C2197 1.377 . S
C2182 C2180 1.389 . S
C2182 C2183 1.524 . S
C2182 C2196 1.377 . S
C2183 C2182 1.524 . S
C2183 C2184 1.397 . S
C2183 C2188 1.363 . S
C2184 H2161 0.950 . S
C2184 C2183 1.397 . S
C2184 C2185 1.334 . S
C2185 H2162 0.950 . S
C2185 C2184 1.334 . S
C2185 C2186 1.287 . S
C2186 C2185 1.287 . S
C2186 C2187 1.524 . S
C2186 H2205 0.913 . S
C2187 H2163 0.950 . S
C2187 C2186 1.524 . S
C2187 C2188 1.415 . S
C2188 H2164 0.950 . S
C2188 C2183 1.363 . S
C2188 C2187 1.415 . S
C2189 H2165 0.951 . S
C2189 C2190 1.366 . S
C2189 C2191 1.388 . S
C2190 C2189 1.366 . S
C2190 C2194 1.385 . S
C2191 H2166 0.951 . S
C2191 C2189 1.388 . S
C2191 C2192 1.366 . S
C2192 C2191 1.366 . S
C2192 C2193 1.414 . S
C2192 C2195 1.499 . S
C2193 H2167 0.950 . S
C2193 C2192 1.414 . S
C2193 C2194 1.374 . S
C2194 H2168 0.950 . S
C2194 C2190 1.385 . S
C2194 C2193 1.374 . S
C2195 C2192 1.499 . S
C2195 C2196 1.373 . S
C2195 C2197 1.389 . S
C2196 H2169 0.950 . S
C2196 C2182 1.377 . S
C2196 C2195 1.373 . S
C2197 C2181 1.377 . S
C2197 C2195 1.389 . S
C2197 C2198 1.524 . S
C2198 C2197 1.524 . S
C2198 C2199 1.397 . S
C2198 C2203 1.363 . S
C2199 H2170 0.950 . S
C2199 C2198 1.397 . S
C2199 C2200 1.334 . S
C2200 H2171 0.950 . S
C2200 C2199 1.334 . S
C2200 C2201 1.287 . S
C2201 C2200 1.287 . S
C2201 C2202 1.524 . S
C2201 H2204 0.999 . S
C2202 H2172 0.950 . S
C2202 C2201 1.524 . S
C2202 C2203 1.415 . S
C2203 H2173 0.950 . S
C2203 C2198 1.363 . S
C2203 C2202 1.415 . S
H2204 C2201 0.999 . S
H2205 C2186 0.913 . S
H2206 C2224 0.951 . S
H2207 C2226 0.951 . S
H2208 C2228 0.950 . S
H2209 C2229 0.950 . S
H2210 C2231 0.950 . S
H2211 C2234 0.950 . S
H2212 C2235 0.950 . S
H2213 C2237 0.950 . S
H2214 C2238 0.950 . S
H2215 C2239 0.951 . S
H2216 C2241 0.951 . S
H2217 C2243 0.950 . S
H2218 C2244 0.950 . S
H2219 C2246 0.950 . S
H2220 C2249 0.950 . S
H2221 C2250 0.950 . S
H2222 C2252 0.950 . S
H2223 C2253 0.950 . S
C2224 H2206 0.951 . S
C2224 C2225 1.366 . S
C2224 C2226 1.388 . S
C2225 C2224 1.366 . S
C2225 C2229 1.385 . S
C2226 H2207 0.951 . S
C2226 C2224 1.388 . S
C2226 C2227 1.366 . S
C2227 C2226 1.366 . S
C2227 C2228 1.414 . S
C2227 C2230 1.499 . S
C2228 H2208 0.950 . S
C2228 C2227 1.414 . S
C2228 C2229 1.374 . S
C2229 H2209 0.950 . S
C2229 C2225 1.385 . S
C2229 C2228 1.374 . S
C2230 C2227 1.499 . S
C2230 C2231 1.373 . S
C2230 C2232 1.389 . S
C2231 H2210 0.950 . S
C2231 C2230 1.373 . S
C2231 C2247 1.377 . S
C2232 C2230 1.389 . S
C2232 C2233 1.524 . S
C2232 C2246 1.377 . S
C2233 C2232 1.524 . S
C2233 C2234 1.397 . S
C2233 C2238 1.363 . S
C2234 H2211 0.950 . S
C2234 C2233 1.397 . S
C2234 C2235 1.334 . S
C2235 H2212 0.950 . S
C2235 C2234 1.334 . S
C2235 C2236 1.287 . S
C2236 C2235 1.287 . S
C2236 C2237 1.524 . S
C2236 H2255 0.913 . S
C2237 H2213 0.950 . S
C2237 C2236 1.524 . S
C2237 C2238 1.415 . S
C2238 H2214 0.950 . S
C2238 C2233 1.363 . S
C2238 C2237 1.415 . S
C2239 H2215 0.951 . S
C2239 C2240 1.366 . S
C2239 C2241 1.388 . S
C2240 C2239 1.366 . S
C2240 C2244 1.385 . S
C2241 H2216 0.951 . S
C2241 C2239 1.388 . S
C2241 C2242 1.366 . S
C2242 C2241 1.366 . S
C2242 C2243 1.414 . S
C2242 C2245 1.499 . S
C2243 H2217 0.950 . S
C2243 C2242 1.414 . S
C2243 C2244 1.374 . S
C2244 H2218 0.950 . S
C2244 C2240 1.385 . S
C2244 C2243 1.374 . S
C2245 C2242 1.499 . S
C2245 C2246 1.373 . S
C2245 C2247 1.389 . S
C2246 H2219 0.950 . S
C2246 C2232 1.377 . S
C2246 C2245 1.373 . S
C2247 C2231 1.377 . S
C2247 C2245 1.389 . S
C2247 C2248 1.524 . S
C2248 C2247 1.524 . S
C2248 C2249 1.397 . S
C2248 C2253 1.363 . S
C2249 H2220 0.950 . S
C2249 C2248 1.397 . S
C2249 C2250 1.334 . S
C2250 H2221 0.950 . S
C2250 C2249 1.334 . S
C2250 C2251 1.287 . S
C2251 C2250 1.287 . S
C2251 C2252 1.524 . S
C2251 H2254 0.999 . S
C2252 H2222 0.950 . S
C2252 C2251 1.524 . S
C2252 C2253 1.415 . S
C2253 H2223 0.950 . S
C2253 C2248 1.363 . S
C2253 C2252 1.415 . S
H2254 C2251 0.999 . S
H2255 C2236 0.913 . S
H2256 C2274 0.951 . S
H2257 C2276 0.951 . S
H2258 C2278 0.950 . S
H2259 C2279 0.950 . S
H2260 C2281 0.950 . S
H2261 C2284 0.950 . S
H2262 C2285 0.950 . S
H2263 C2287 0.950 . S
H2264 C2288 0.950 . S
H2265 C2289 0.951 . S
H2266 C2291 0.951 . S
H2267 C2293 0.950 . S
H2268 C2294 0.950 . S
H2269 C2296 0.950 . S
H2270 C2299 0.950 . S
H2271 C2300 0.950 . S
H2272 C2302 0.950 . S
H2273 C2303 0.950 . S
C2274 H2256 0.951 . S
C2274 C2275 1.366 . S
C2274 C2276 1.388 . S
C2275 C2274 1.366 . S
C2275 C2279 1.385 . S
C2276 H2257 0.951 . S
C2276 C2274 1.388 . S
C2276 C2277 1.366 . S
C2277 C2276 1.366 . S
C2277 C2278 1.414 . S
C2277 C2280 1.499 . S
C2278 H2258 0.950 . S
C2278 C2277 1.414 . S
C2278 C2279 1.374 . S
C2279 H2259 0.950 . S
C2279 C2275 1.385 . S
C2279 C2278 1.374 . S
C2280 C2277 1.499 . S
C2280 C2281 1.373 . S
C2280 C2282 1.389 . S
C2281 H2260 0.950 . S
C2281 C2280 1.373 . S
C2281 C2297 1.377 . S
C2282 C2280 1.389 . S
C2282 C2283 1.524 . S
C2282 C2296 1.377 . S
C2283 C2282 1.524 . S
C2283 C2284 1.397 . S
C2283 C2288 1.363 . S
C2284 H2261 0.950 . S
C2284 C2283 1.397 . S
C2284 C2285 1.334 . S
C2285 H2262 0.950 . S
C2285 C2284 1.334 . S
C2285 C2286 1.287 . S
C2286 C2285 1.287 . S
C2286 C2287 1.524 . S
C2286 H2305 0.913 . S
C2287 H2263 0.950 . S
C2287 C2286 1.524 . S
C2287 C2288 1.415 . S
C2288 H2264 0.950 . S
C2288 C2283 1.363 . S
C2288 C2287 1.415 . S
C2289 H2265 0.951 . S
C2289 C2290 1.366 . S
C2289 C2291 1.388 . S
C2290 C2289 1.366 . S
C2290 C2294 1.385 . S
C2291 H2266 0.951 . S
C2291 C2289 1.388 . S
C2291 C2292 1.366 . S
C2292 C2291 1.366 . S
C2292 C2293 1.414 . S
C2292 C2295 1.499 . S
C2293 H2267 0.950 . S
C2293 C2292 1.414 . S
C2293 C2294 1.374 . S
C2294 H2268 0.950 . S
C2294 C2290 1.385 . S
C2294 C2293 1.374 . S
C2295 C2292 1.499 . S
C2295 C2296 1.373 . S
C2295 C2297 1.389 . S
C2296 H2269 0.950 . S
C2296 C2282 1.377 . S
C2296 C2295 1.373 . S
C2297 C2281 1.377 . S
C2297 C2295 1.389 . S
C2297 C2298 1.524 . S
C2298 C2297 1.524 . S
C2298 C2299 1.397 . S
C2298 C2303 1.363 . S
C2299 H2270 0.950 . S
C2299 C2298 1.397 . S
C2299 C2300 1.334 . S
C2300 H2271 0.950 . S
C2300 C2299 1.334 . S
C2300 C2301 1.287 . S
C2301 C2300 1.287 . S
C2301 C2302 1.524 . S
C2301 H2304 0.999 . S
C2302 H2272 0.950 . S
C2302 C2301 1.524 . S
C2302 C2303 1.415 . S
C2303 H2273 0.950 . S
C2303 C2298 1.363 . S
C2303 C2302 1.415 . S
H2304 C2301 0.999 . S
H2305 C2286 0.913 . S
H2306 C2324 0.951 . S
H2307 C2326 0.951 . S
H2308 C2328 0.950 . S
H2309 C2329 0.950 . S
H2310 C2331 0.950 . S
H2311 C2334 0.950 . S
H2312 C2335 0.950 . S
H2313 C2337 0.950 . S
H2314 C2338 0.950 . S
H2315 C2339 0.951 . S
H2316 C2341 0.951 . S
H2317 C2343 0.950 . S
H2318 C2344 0.950 . S
H2319 C2346 0.950 . S
H2320 C2349 0.950 . S
H2321 C2350 0.950 . S
H2322 C2352 0.950 . S
H2323 C2353 0.950 . S
C2324 H2306 0.951 . S
C2324 C2325 1.366 . S
C2324 C2326 1.388 . S
C2325 C2324 1.366 . S
C2325 C2329 1.385 . S
C2326 H2307 0.951 . S
C2326 C2324 1.388 . S
C2326 C2327 1.366 . S
C2327 C2326 1.366 . S
C2327 C2328 1.414 . S
C2327 C2330 1.499 . S
C2328 H2308 0.950 . S
C2328 C2327 1.414 . S
C2328 C2329 1.374 . S
C2329 H2309 0.950 . S
C2329 C2325 1.385 . S
C2329 C2328 1.374 . S
C2330 C2327 1.499 . S
C2330 C2331 1.373 . S
C2330 C2332 1.389 . S
C2331 H2310 0.950 . S
C2331 C2330 1.373 . S
C2331 C2347 1.377 . S
C2332 C2330 1.389 . S
C2332 C2333 1.524 . S
C2332 C2346 1.377 . S
C2333 C2332 1.524 . S
C2333 C2334 1.397 . S
C2333 C2338 1.363 . S
C2334 H2311 0.950 . S
C2334 C2333 1.397 . S
C2334 C2335 1.334 . S
C2335 H2312 0.950 . S
C2335 C2334 1.334 . S
C2335 C2336 1.287 . S
C2336 C2335 1.287 . S
C2336 C2337 1.524 . S
C2336 H2355 0.913 . S
C2337 H2313 0.950 . S
C2337 C2336 1.524 . S
C2337 C2338 1.415 . S
C2338 H2314 0.950 . S
C2338 C2333 1.363 . S
C2338 C2337 1.415 . S
C2339 H2315 0.951 . S
C2339 C2340 1.366 . S
C2339 C2341 1.388 . S
C2340 C2339 1.366 . S
C2340 C2344 1.385 . S
C2341 H2316 0.951 . S
C2341 C2339 1.388 . S
C2341 C2342 1.366 . S
C2342 C2341 1.366 . S
C2342 C2343 1.414 . S
C2342 C2345 1.499 . S
C2343 H2317 0.950 . S
C2343 C2342 1.414 . S
C2343 C2344 1.374 . S
C2344 H2318 0.950 . S
C2344 C2340 1.385 . S
C2344 C2343 1.374 . S
C2345 C2342 1.499 . S
C2345 C2346 1.373 . S
C2345 C2347 1.389 . S
C2346 H2319 0.950 . S
C2346 C2332 1.377 . S
C2346 C2345 1.373 . S
C2347 C2331 1.377 . S
C2347 C2345 1.389 . S
C2347 C2348 1.524 . S
C2348 C2347 1.524 . S
C2348 C2349 1.397 . S
C2348 C2353 1.363 . S
C2349 H2320 0.950 . S
C2349 C2348 1.397 . S
C2349 C2350 1.334 . S
C2350 H2321 0.950 . S
C2350 C2349 1.334 . S
C2350 C2351 1.287 . S
C2351 C2350 1.287 . S
C2351 C2352 1.524 . S
C2351 H2354 0.999 . S
C2352 H2322 0.950 . S
C2352 C2351 1.524 . S
C2352 C2353 1.415 . S
C2353 H2323 0.950 . S
C2353 C2348 1.363 . S
C2353 C2352 1.415 . S
H2354 C2351 0.999 . S
H2355 C2336 0.913 . S
H2356 C2374 0.951 . S
H2357 C2376 0.951 . S
H2358 C2378 0.950 . S
H2359 C2379 0.950 . S
H2360 C2381 0.950 . S
H2361 C2384 0.950 . S
H2362 C2385 0.950 . S
H2363 C2387 0.950 . S
H2364 C2388 0.950 . S
H2365 C2389 0.951 . S
H2366 C2391 0.951 . S
H2367 C2393 0.950 . S
H2368 C2394 0.950 . S
H2369 C2396 0.950 . S
H2370 C2399 0.950 . S
H2371 C2400 0.950 . S
H2372 C2402 0.950 . S
H2373 C2403 0.950 . S
C2374 H2356 0.951 . S
C2374 C2375 1.366 . S
C2374 C2376 1.388 . S
C2375 C2374 1.366 . S
C2375 C2379 1.385 . S
C2376 H2357 0.951 . S
C2376 C2374 1.388 . S
C2376 C2377 1.366 . S
C2377 C2376 1.366 . S
C2377 C2378 1.414 . S
C2377 C2380 1.499 . S
C2378 H2358 0.950 . S
C2378 C2377 1.414 . S
C2378 C2379 1.374 . S
C2379 H2359 0.950 . S
C2379 C2375 1.385 . S
C2379 C2378 1.374 . S
C2380 C2377 1.499 . S
C2380 C2381 1.373 . S
C2380 C2382 1.389 . S
C2381 H2360 0.950 . S
C2381 C2380 1.373 . S
C2381 C2397 1.377 . S
C2382 C2380 1.389 . S
C2382 C2383 1.524 . S
C2382 C2396 1.377 . S
C2383 C2382 1.524 . S
C2383 C2384 1.397 . S
C2383 C2388 1.363 . S
C2384 H2361 0.950 . S
C2384 C2383 1.397 . S
C2384 C2385 1.334 . S
C2385 H2362 0.950 . S
C2385 C2384 1.334 . S
C2385 C2386 1.287 . S
C2386 C2385 1.287 . S
C2386 C2387 1.524 . S
C2386 H2405 0.913 . S
C2387 H2363 0.950 . S
C2387 C2386 1.524 . S
C2387 C2388 1.415 . S
C2388 H2364 0.950 . S
C2388 C2383 1.363 . S
C2388 C2387 1.415 . S
C2389 H2365 0.951 . S
C2389 C2390 1.366 . S
C2389 C2391 1.388 . S
C2390 C2389 1.366 . S
C2390 C2394 1.385 . S
C2391 H2366 0.951 . S
C2391 C2389 1.388 . S
C2391 C2392 1.366 . S
C2392 C2391 1.366 . S
C2392 C2393 1.414 . S
C2392 C2395 1.499 . S
C2393 H2367 0.950 . S
C2393 C2392 1.414 . S
C2393 C2394 1.374 . S
C2394 H2368 0.950 . S
C2394 C2390 1.385 . S
C2394 C2393 1.374 . S
C2395 C2392 1.499 . S
C2395 C2396 1.373 . S
C2395 C2397 1.389 . S
C2396 H2369 0.950 . S
C2396 C2382 1.377 . S
C2396 C2395 1.373 . S
C2397 C2381 1.377 . S
C2397 C2395 1.389 . S
C2397 C2398 1.524 . S
C2398 C2397 1.524 . S
C2398 C2399 1.397 . S
C2398 C2403 1.363 . S
C2399 H2370 0.950 . S
C2399 C2398 1.397 . S
C2399 C2400 1.334 . S
C2400 H2371 0.950 . S
C2400 C2399 1.334 . S
C2400 C2401 1.287 . S
C2401 C2400 1.287 . S
C2401 C2402 1.524 . S
C2401 H2404 0.999 . S
C2402 H2372 0.950 . S
C2402 C2401 1.524 . S
C2402 C2403 1.415 . S
C2403 H2373 0.950 . S
C2403 C2398 1.363 . S
C2403 C2402 1.415 . S
H2404 C2401 0.999 . S
H2405 C2386 0.913 . S
H2406 C2424 0.951 . S
H2407 C2426 0.951 . S
H2408 C2428 0.950 . S
H2409 C2429 0.950 . S
H2410 C2431 0.950 . S
H2411 C2434 0.950 . S
H2412 C2435 0.950 . S
H2413 C2437 0.950 . S
H2414 C2438 0.950 . S
H2415 C2439 0.951 . S
H2416 C2441 0.951 . S
H2417 C2443 0.950 . S
H2418 C2444 0.950 . S
H2419 C2446 0.950 . S
H2420 C2449 0.950 . S
H2421 C2450 0.950 . S
H2422 C2452 0.950 . S
H2423 C2453 0.950 . S
C2424 H2406 0.951 . S
C2424 C2425 1.366 . S
C2424 C2426 1.388 . S
C2425 C2424 1.366 . S
C2425 C2429 1.385 . S
C2426 H2407 0.951 . S
C2426 C2424 1.388 . S
C2426 C2427 1.366 . S
C2427 C2426 1.366 . S
C2427 C2428 1.414 . S
C2427 C2430 1.499 . S
C2428 H2408 0.950 . S
C2428 C2427 1.414 . S
C2428 C2429 1.374 . S
C2429 H2409 0.950 . S
C2429 C2425 1.385 . S
C2429 C2428 1.374 . S
C2430 C2427 1.499 . S
C2430 C2431 1.373 . S
C2430 C2432 1.389 . S
C2431 H2410 0.950 . S
C2431 C2430 1.373 . S
C2431 C2447 1.377 . S
C2432 C2430 1.389 . S
C2432 C2433 1.524 . S
C2432 C2446 1.377 . S
C2433 C2432 1.524 . S
C2433 C2434 1.397 . S
C2433 C2438 1.363 . S
C2434 H2411 0.950 . S
C2434 C2433 1.397 . S
C2434 C2435 1.334 . S
C2435 H2412 0.950 . S
C2435 C2434 1.334 . S
C2435 C2436 1.287 . S
C2436 C2435 1.287 . S
C2436 C2437 1.524 . S
C2436 H2455 0.913 . S
C2437 H2413 0.950 . S
C2437 C2436 1.524 . S
C2437 C2438 1.415 . S
C2438 H2414 0.950 . S
C2438 C2433 1.363 . S
C2438 C2437 1.415 . S
C2439 H2415 0.951 . S
C2439 C2440 1.366 . S
C2439 C2441 1.388 . S
C2440 C2439 1.366 . S
C2440 C2444 1.385 . S
C2441 H2416 0.951 . S
C2441 C2439 1.388 . S
C2441 C2442 1.366 . S
C2442 C2441 1.366 . S
C2442 C2443 1.414 . S
C2442 C2445 1.499 . S
C2443 H2417 0.950 . S
C2443 C2442 1.414 . S
C2443 C2444 1.374 . S
C2444 H2418 0.950 . S
C2444 C2440 1.385 . S
C2444 C2443 1.374 . S
C2445 C2442 1.499 . S
C2445 C2446 1.373 . S
C2445 C2447 1.389 . S
C2446 H2419 0.950 . S
C2446 C2432 1.377 . S
C2446 C2445 1.373 . S
C2447 C2431 1.377 . S
C2447 C2445 1.389 . S
C2447 C2448 1.524 . S
C2448 C2447 1.524 . S
C2448 C2449 1.397 . S
C2448 C2453 1.363 . S
C2449 H2420 0.950 . S
C2449 C2448 1.397 . S
C2449 C2450 1.334 . S
C2450 H2421 0.950 . S
C2450 C2449 1.334 . S
C2450 C2451 1.287 . S
C2451 C2450 1.287 . S
C2451 C2452 1.524 . S
C2451 H2454 0.999 . S
C2452 H2422 0.950 . S
C2452 C2451 1.524 . S
C2452 C2453 1.415 . S
C2453 H2423 0.950 . S
C2453 C2448 1.363 . S
C2453 C2452 1.415 . S
H2454 C2451 0.999 . S
H2455 C2436 0.913 . S
H2456 C2474 0.951 . S
H2457 C2476 0.951 . S
H2458 C2478 0.950 . S
H2459 C2479 0.950 . S
H2460 C2481 0.950 . S
H2461 C2484 0.950 . S
H2462 C2485 0.950 . S
H2463 C2487 0.950 . S
H2464 C2488 0.950 . S
H2465 C2489 0.951 . S
H2466 C2491 0.951 . S
H2467 C2493 0.950 . S
H2468 C2494 0.950 . S
H2469 C2496 0.950 . S
H2470 C2499 0.950 . S
H2471 C2500 0.950 . S
H2472 C2502 0.950 . S
H2473 C2503 0.950 . S
C2474 H2456 0.951 . S
C2474 C2475 1.366 . S
C2474 C2476 1.388 . S
C2475 C2474 1.366 . S
C2475 C2479 1.385 . S
C2476 H2457 0.951 . S
C2476 C2474 1.388 . S
C2476 C2477 1.366 . S
C2477 C2476 1.366 . S
C2477 C2478 1.414 . S
C2477 C2480 1.499 . S
C2478 H2458 0.950 . S
C2478 C2477 1.414 . S
C2478 C2479 1.374 . S
C2479 H2459 0.950 . S
C2479 C2475 1.385 . S
C2479 C2478 1.374 . S
C2480 C2477 1.499 . S
C2480 C2481 1.373 . S
C2480 C2482 1.389 . S
C2481 H2460 0.950 . S
C2481 C2480 1.373 . S
C2481 C2497 1.377 . S
C2482 C2480 1.389 . S
C2482 C2483 1.524 . S
C2482 C2496 1.377 . S
C2483 C2482 1.524 . S
C2483 C2484 1.397 . S
C2483 C2488 1.363 . S
C2484 H2461 0.950 . S
C2484 C2483 1.397 . S
C2484 C2485 1.334 . S
C2485 H2462 0.950 . S
C2485 C2484 1.334 . S
C2485 C2486 1.287 . S
C2486 C2485 1.287 . S
C2486 C2487 1.524 . S
C2486 H2505 0.913 . S
C2487 H2463 0.950 . S
C2487 C2486 1.524 . S
C2487 C2488 1.415 . S
C2488 H2464 0.950 . S
C2488 C2483 1.363 . S
C2488 C2487 1.415 . S
C2489 H2465 0.951 . S
C2489 C2490 1.366 . S
C2489 C2491 1.388 . S
C2490 C2489 1.366 . S
C2490 C2494 1.385 . S
C2491 H2466 0.951 . S
C2491 C2489 1.388 . S
C2491 C2492 1.366 . S
C2492 C2491 1.366 . S
C2492 C2493 1.414 . S
C2492 C2495 1.499 . S
C2493 H2467 0.950 . S
C2493 C2492 1.414 . S
C2493 C2494 1.374 . S
C2494 H2468 0.950 . S
C2494 C2490 1.385 . S
C2494 C2493 1.374 . S
C2495 C2492 1.499 . S
C2495 C2496 1.373 . S
C2495 C2497 1.389 . S
C2496 H2469 0.950 . S
C2496 C2482 1.377 . S
C2496 C2495 1.373 . S
C2497 C2481 1.377 . S
C2497 C2495 1.389 . S
C2497 C2498 1.524 . S
C2498 C2497 1.524 . S
C2498 C2499 1.397 . S
C2498 C2503 1.363 . S
C2499 H2470 0.950 . S
C2499 C2498 1.397 . S
C2499 C2500 1.334 . S
C2500 H2471 0.950 . S
C2500 C2499 1.334 . S
C2500 C2501 1.287 . S
C2501 C2500 1.287 . S
C2501 C2502 1.524 . S
C2501 H2504 0.999 . S
C2502 H2472 0.950 . S
C2502 C2501 1.524 . S
C2502 C2503 1.415 . S
C2503 H2473 0.950 . S
C2503 C2498 1.363 . S
C2503 C2502 1.415 . S
H2504 C2501 0.999 . S
H2505 C2486 0.913 . S
H2506 C2524 0.951 . S
H2507 C2526 0.951 . S
H2508 C2528 0.950 . S
H2509 C2529 0.950 . S
H2510 C2531 0.950 . S
H2511 C2534 0.950 . S
H2512 C2535 0.950 . S
H2513 C2537 0.950 . S
H2514 C2538 0.950 . S
H2515 C2539 0.951 . S
H2516 C2541 0.951 . S
H2517 C2543 0.950 . S
H2518 C2544 0.950 . S
H2519 C2546 0.950 . S
H2520 C2549 0.950 . S
H2521 C2550 0.950 . S
H2522 C2552 0.950 . S
H2523 C2553 0.950 . S
C2524 H2506 0.951 . S
C2524 C2525 1.366 . S
C2524 C2526 1.388 . S
C2525 C2524 1.366 . S
C2525 C2529 1.385 . S
C2526 H2507 0.951 . S
C2526 C2524 1.388 . S
C2526 C2527 1.366 . S
C2527 C2526 1.366 . S
C2527 C2528 1.414 . S
C2527 C2530 1.499 . S
C2528 H2508 0.950 . S
C2528 C2527 1.414 . S
C2528 C2529 1.374 . S
C2529 H2509 0.950 . S
C2529 C2525 1.385 . S
C2529 C2528 1.374 . S
C2530 C2527 1.499 . S
C2530 C2531 1.373 . S
C2530 C2532 1.389 . S
C2531 H2510 0.950 . S
C2531 C2530 1.373 . S
C2531 C2547 1.377 . S
C2532 C2530 1.389 . S
C2532 C2533 1.524 . S
C2532 C2546 1.377 . S
C2533 C2532 1.524 . S
C2533 C2534 1.397 . S
C2533 C2538 1.363 . S
C2534 H2511 0.950 . S
C2534 C2533 1.397 . S
C2534 C2535 1.334 . S
C2535 H2512 0.950 . S
C2535 C2534 1.334 . S
C2535 C2536 1.287 . S
C2536 C2535 1.287 . S
C2536 C2537 1.524 . S
C2536 H2555 0.913 . S
C2537 H2513 0.950 . S
C2537 C2536 1.524 . S
C2537 C2538 1.415 . S
C2538 H2514 0.950 . S
C2538 C2533 1.363 . S
C2538 C2537 1.415 . S
C2539 H2515 0.951 . S
C2539 C2540 1.366 . S
C2539 C2541 1.388 . S
C2540 C2539 1.366 . S
C2540 C2544 1.385 . S
C2541 H2516 0.951 . S
C2541 C2539 1.388 . S
C2541 C2542 1.366 . S
C2542 C2541 1.366 . S
C2542 C2543 1.414 . S
C2542 C2545 1.499 . S
C2543 H2517 0.950 . S
C2543 C2542 1.414 . S
C2543 C2544 1.374 . S
C2544 H2518 0.950 . S
C2544 C2540 1.385 . S
C2544 C2543 1.374 . S
C2545 C2542 1.499 . S
C2545 C2546 1.373 . S
C2545 C2547 1.389 . S
C2546 H2519 0.950 . S
C2546 C2532 1.377 . S
C2546 C2545 1.373 . S
C2547 C2531 1.377 . S
C2547 C2545 1.389 . S
C2547 C2548 1.524 . S
C2548 C2547 1.524 . S
C2548 C2549 1.397 . S
C2548 C2553 1.363 . S
C2549 H2520 0.950 . S
C2549 C2548 1.397 . S
C2549 C2550 1.334 . S
C2550 H2521 0.950 . S
C2550 C2549 1.334 . S
C2550 C2551 1.287 . S
C2551 C2550 1.287 . S
C2551 C2552 1.524 . S
C2551 H2554 0.999 . S
C2552 H2522 0.950 . S
C2552 C2551 1.524 . S
C2552 C2553 1.415 . S
C2553 H2523 0.950 . S
C2553 C2548 1.363 . S
C2553 C2552 1.415 . S
H2554 C2551 0.999 . S
H2555 C2536 0.913 . S
H2556 C2574 0.951 . S
H2557 C2576 0.951 . S
H2558 C2578 0.950 . S
H2559 C2579 0.950 . S
H2560 C2581 0.950 . S
H2561 C2584 0.950 . S
H2562 C2585 0.950 . S
H2563 C2587 0.950 . S
H2564 C2588 0.950 . S
H2565 C2589 0.951 1_565 S
H2566 C2591 0.951 . S
H2567 C2593 0.950 . S
H2568 C2594 0.950 . S
H2569 C2596 0.950 . S
H2570 C2599 0.950 . S
H2571 C2600 0.951 . S
H2572 C2602 0.950 . S
H2573 C2603 0.950 . S
C2574 H2556 0.951 . S
C2574 C2575 1.366 . S
C2574 C2576 1.388 . S
C2575 C2574 1.366 . S
C2575 C2579 1.385 . S
C2576 H2557 0.951 . S
C2576 C2574 1.388 . S
C2576 C2577 1.366 . S
C2577 C2576 1.366 . S
C2577 C2578 1.414 . S
C2577 C2580 1.499 . S
C2578 H2558 0.950 . S
C2578 C2577 1.414 . S
C2578 C2579 1.374 . S
C2579 H2559 0.950 . S
C2579 C2575 1.385 . S
C2579 C2578 1.374 . S
C2580 C2577 1.499 . S
C2580 C2581 1.373 . S
C2580 C2582 1.389 . S
C2581 H2560 0.950 . S
C2581 C2580 1.373 . S
C2581 C2597 1.377 . S
C2582 C2580 1.389 . S
C2582 C2583 1.524 . S
C2582 C2596 1.377 . S
C2583 C2582 1.524 . S
C2583 C2584 1.397 . S
C2583 C2588 1.363 . S
C2584 H2561 0.950 . S
C2584 C2583 1.397 . S
C2584 C2585 1.334 . S
C2585 H2562 0.950 . S
C2585 C2584 1.334 . S
C2585 C2586 1.287 . S
C2586 C2585 1.287 . S
C2586 C2587 1.524 . S
C2586 H2605 0.913 . S
C2587 H2563 0.950 . S
C2587 C2586 1.524 . S
C2587 C2588 1.415 . S
C2588 H2564 0.950 . S
C2588 C2583 1.363 . S
C2588 C2587 1.415 . S
C2589 H2565 0.951 1_545 S
C2589 C2590 1.366 . S
C2589 C2591 1.388 . S
C2590 C2589 1.366 . S
C2590 C2594 1.385 . S
C2591 H2566 0.951 . S
C2591 C2589 1.388 . S
C2591 C2592 1.366 . S
C2592 C2591 1.366 . S
C2592 C2593 1.414 . S
C2592 C2595 1.499 . S
C2593 H2567 0.950 . S
C2593 C2592 1.414 . S
C2593 C2594 1.374 . S
C2594 H2568 0.950 . S
C2594 C2590 1.385 . S
C2594 C2593 1.374 . S
C2595 C2592 1.499 . S
C2595 C2596 1.373 . S
C2595 C2597 1.389 . S
C2596 H2569 0.950 . S
C2596 C2582 1.377 . S
C2596 C2595 1.373 . S
C2597 C2581 1.377 . S
C2597 C2595 1.389 . S
C2597 C2598 1.524 . S
C2598 C2597 1.524 . S
C2598 C2599 1.397 . S
C2598 C2603 1.363 . S
C2599 H2570 0.950 . S
C2599 C2598 1.397 . S
C2599 C2600 1.322 1_545 S
C2600 H2571 0.951 . S
C2600 C2599 1.322 1_565 S
C2600 C2601 1.298 . S
C2601 C2600 1.298 . S
C2601 C2602 1.524 . S
C2601 H2604 0.999 . S
C2602 H2572 0.950 . S
C2602 C2601 1.524 . S
C2602 C2603 1.415 1_565 S
C2603 H2573 0.950 . S
C2603 C2598 1.363 . S
C2603 C2602 1.415 1_545 S
H2604 C2601 0.999 . S
H2605 C2586 0.913 . S
H2606 C2624 0.951 . S
H2607 C2626 0.951 . S
H2608 C2628 0.950 . S
H2609 C2629 0.950 . S
H2610 C2631 0.950 . S
H2611 C2634 0.950 . S
H2612 C2635 0.950 . S
H2613 C2637 0.950 . S
H2614 C2638 0.950 . S
H2615 C2639 0.951 1_455 S
H2616 C2641 0.951 . S
H2617 C2643 0.950 . S
H2618 C2644 0.950 . S
H2619 C2646 0.950 . S
H2620 C2649 0.950 . S
H2621 C2650 0.950 . S
H2622 C2652 0.950 1_455 S
H2623 C2653 0.950 . S
C2624 H2606 0.951 . S
C2624 C2625 1.366 . S
C2624 C2626 1.388 . S
C2625 C2624 1.366 . S
C2625 C2629 1.385 . S
C2626 H2607 0.951 . S
C2626 C2624 1.388 . S
C2626 C2627 1.366 . S
C2627 C2626 1.366 . S
C2627 C2628 1.414 . S
C2627 C2630 1.499 . S
C2628 H2608 0.950 . S
C2628 C2627 1.414 . S
C2628 C2629 1.374 . S
C2629 H2609 0.950 . S
C2629 C2625 1.385 . S
C2629 C2628 1.374 . S
C2630 C2627 1.499 . S
C2630 C2631 1.373 . S
C2630 C2632 1.389 . S
C2631 H2610 0.950 . S
C2631 C2630 1.373 . S
C2631 C2647 1.377 . S
C2632 C2630 1.389 . S
C2632 C2633 1.524 . S
C2632 C2646 1.377 . S
C2633 C2632 1.524 . S
C2633 C2634 1.397 . S
C2633 C2638 1.363 . S
C2634 H2611 0.950 . S
C2634 C2633 1.397 . S
C2634 C2635 1.334 . S
C2635 H2612 0.950 . S
C2635 C2634 1.334 . S
C2635 C2636 1.287 . S
C2636 C2635 1.287 . S
C2636 C2637 1.524 . S
C2636 H2655 0.913 . S
C2637 H2613 0.950 . S
C2637 C2636 1.524 . S
C2637 C2638 1.415 . S
C2638 H2614 0.950 . S
C2638 C2633 1.363 . S
C2638 C2637 1.415 . S
C2639 H2615 0.951 1_655 S
C2639 C2640 1.366 . S
C2639 C2641 1.388 . S
C2640 C2639 1.366 . S
C2640 C2644 1.385 . S
C2641 H2616 0.951 . S
C2641 C2639 1.388 . S
C2641 C2642 1.366 . S
C2642 C2641 1.366 . S
C2642 C2643 1.414 . S
C2642 C2645 1.499 . S
C2643 H2617 0.950 . S
C2643 C2642 1.414 . S
C2643 C2644 1.374 . S
C2644 H2618 0.950 . S
C2644 C2640 1.385 . S
C2644 C2643 1.374 . S
C2645 C2642 1.499 . S
C2645 C2646 1.373 . S
C2645 C2647 1.389 . S
C2646 H2619 0.950 . S
C2646 C2632 1.377 . S
C2646 C2645 1.373 . S
C2647 C2631 1.377 . S
C2647 C2645 1.389 . S
C2647 C2648 1.524 . S
C2648 C2647 1.524 . S
C2648 C2649 1.397 . S
C2648 C2653 1.363 . S
C2649 H2620 0.950 . S
C2649 C2648 1.397 . S
C2649 C2650 1.334 . S
C2650 H2621 0.950 . S
C2650 C2649 1.334 . S
C2650 C2651 1.287 . S
C2651 C2650 1.287 . S
C2651 C2652 1.524 . S
C2651 H2654 0.999 1_655 S
C2652 H2622 0.950 1_655 S
C2652 C2651 1.524 . S
C2652 C2653 1.415 . S
C2653 H2623 0.950 . S
C2653 C2648 1.363 . S
C2653 C2652 1.415 . S
H2654 C2651 0.999 1_455 S
H2655 C2636 0.913 . S
H2656 C2674 0.951 . S
H2657 C2676 0.951 . S
H2658 C2678 0.950 . S
H2659 C2679 0.950 . S
H2660 C2681 0.950 . S
H2661 C2684 0.950 . S
H2662 C2685 0.950 . S
H2663 C2687 0.950 . S
H2664 C2688 0.950 . S
H2665 C2689 0.951 . S
H2666 C2691 0.951 . S
H2667 C2693 0.950 . S
H2668 C2694 0.950 . S
H2669 C2696 0.950 . S
H2670 C2699 0.950 . S
H2671 C2700 0.950 . S
H2672 C2702 0.950 . S
H2673 C2703 0.950 . S
C2674 H2656 0.951 . S
C2674 C2675 1.366 . S
C2674 C2676 1.388 . S
C2675 C2674 1.366 . S
C2675 C2679 1.385 . S
C2676 H2657 0.951 . S
C2676 C2674 1.388 . S
C2676 C2677 1.366 . S
C2677 C2676 1.366 . S
C2677 C2678 1.414 . S
C2677 C2680 1.499 . S
C2678 H2658 0.950 . S
C2678 C2677 1.414 . S
C2678 C2679 1.374 . S
C2679 H2659 0.950 . S
C2679 C2675 1.385 . S
C2679 C2678 1.374 . S
C2680 C2677 1.499 . S
C2680 C2681 1.373 . S
C2680 C2682 1.389 . S
C2681 H2660 0.950 . S
C2681 C2680 1.373 . S
C2681 C2697 1.377 . S
C2682 C2680 1.389 . S
C2682 C2683 1.524 . S
C2682 C2696 1.377 . S
C2683 C2682 1.524 . S
C2683 C2684 1.397 . S
C2683 C2688 1.363 . S
C2684 H2661 0.950 . S
C2684 C2683 1.397 . S
C2684 C2685 1.334 . S
C2685 H2662 0.950 . S
C2685 C2684 1.334 . S
C2685 C2686 1.287 . S
C2686 C2685 1.287 . S
C2686 C2687 1.524 . S
C2686 H2705 0.913 . S
C2687 H2663 0.950 . S
C2687 C2686 1.524 . S
C2687 C2688 1.415 . S
C2688 H2664 0.950 . S
C2688 C2683 1.363 . S
C2688 C2687 1.415 . S
C2689 H2665 0.951 . S
C2689 C2690 1.366 . S
C2689 C2691 1.388 . S
C2690 C2689 1.366 . S
C2690 C2694 1.385 . S
C2691 H2666 0.951 . S
C2691 C2689 1.388 . S
C2691 C2692 1.366 . S
C2692 C2691 1.366 . S
C2692 C2693 1.414 . S
C2692 C2695 1.499 . S
C2693 H2667 0.950 . S
C2693 C2692 1.414 . S
C2693 C2694 1.374 . S
C2694 H2668 0.950 . S
C2694 C2690 1.385 . S
C2694 C2693 1.374 . S
C2695 C2692 1.499 . S
C2695 C2696 1.373 . S
C2695 C2697 1.389 . S
C2696 H2669 0.950 . S
C2696 C2682 1.377 . S
C2696 C2695 1.373 . S
C2697 C2681 1.377 . S
C2697 C2695 1.389 . S
C2697 C2698 1.524 . S
C2698 C2697 1.524 . S
C2698 C2699 1.397 . S
C2698 C2703 1.363 . S
C2699 H2670 0.950 . S
C2699 C2698 1.397 . S
C2699 C2700 1.334 . S
C2700 H2671 0.950 . S
C2700 C2699 1.334 . S
C2700 C2701 1.287 . S
C2701 C2700 1.287 . S
C2701 C2702 1.524 . S
C2701 H2704 0.999 . S
C2702 H2672 0.950 . S
C2702 C2701 1.524 . S
C2702 C2703 1.415 . S
C2703 H2673 0.950 . S
C2703 C2698 1.363 . S
C2703 C2702 1.415 . S
H2704 C2701 0.999 . S
H2705 C2686 0.913 . S
H2706 C2724 0.951 . S
H2707 C2726 0.951 . S
H2708 C2728 0.950 . S
H2709 C2729 0.950 . S
H2710 C2731 0.950 . S
H2711 C2734 0.950 . S
H2712 C2735 0.950 . S
H2713 C2737 0.950 . S
H2714 C2738 0.950 . S
H2715 C2739 0.951 . S
H2716 C2741 0.951 . S
H2717 C2743 0.950 . S
H2718 C2744 0.950 . S
H2719 C2746 0.950 . S
H2720 C2749 0.950 . S
H2721 C2750 0.950 . S
H2722 C2752 0.950 . S
H2723 C2753 0.950 . S
C2724 H2706 0.951 . S
C2724 C2725 1.366 . S
C2724 C2726 1.388 . S
C2725 C2724 1.366 . S
C2725 C2729 1.385 . S
C2726 H2707 0.951 . S
C2726 C2724 1.388 . S
C2726 C2727 1.366 . S
C2727 C2726 1.366 . S
C2727 C2728 1.414 . S
C2727 C2730 1.499 . S
C2728 H2708 0.950 . S
C2728 C2727 1.414 . S
C2728 C2729 1.374 . S
C2729 H2709 0.950 . S
C2729 C2725 1.385 . S
C2729 C2728 1.374 . S
C2730 C2727 1.499 . S
C2730 C2731 1.373 . S
C2730 C2732 1.389 . S
C2731 H2710 0.950 . S
C2731 C2730 1.373 . S
C2731 C2747 1.377 . S
C2732 C2730 1.389 . S
C2732 C2733 1.524 . S
C2732 C2746 1.377 . S
C2733 C2732 1.524 . S
C2733 C2734 1.397 . S
C2733 C2738 1.363 . S
C2734 H2711 0.950 . S
C2734 C2733 1.397 . S
C2734 C2735 1.334 . S
C2735 H2712 0.950 . S
C2735 C2734 1.334 . S
C2735 C2736 1.287 . S
C2736 C2735 1.287 . S
C2736 C2737 1.524 . S
C2736 H2755 0.913 . S
C2737 H2713 0.950 . S
C2737 C2736 1.524 . S
C2737 C2738 1.415 . S
C2738 H2714 0.950 . S
C2738 C2733 1.363 . S
C2738 C2737 1.415 . S
C2739 H2715 0.951 . S
C2739 C2740 1.366 . S
C2739 C2741 1.388 . S
C2740 C2739 1.366 . S
C2740 C2744 1.385 . S
C2741 H2716 0.951 . S
C2741 C2739 1.388 . S
C2741 C2742 1.366 . S
C2742 C2741 1.366 . S
C2742 C2743 1.414 . S
C2742 C2745 1.499 . S
C2743 H2717 0.950 . S
C2743 C2742 1.414 . S
C2743 C2744 1.374 . S
C2744 H2718 0.950 . S
C2744 C2740 1.385 . S
C2744 C2743 1.374 . S
C2745 C2742 1.499 . S
C2745 C2746 1.373 . S
C2745 C2747 1.389 . S
C2746 H2719 0.950 . S
C2746 C2732 1.377 . S
C2746 C2745 1.373 . S
C2747 C2731 1.377 . S
C2747 C2745 1.389 . S
C2747 C2748 1.524 . S
C2748 C2747 1.524 . S
C2748 C2749 1.397 . S
C2748 C2753 1.363 . S
C2749 H2720 0.950 . S
C2749 C2748 1.397 . S
C2749 C2750 1.334 . S
C2750 H2721 0.950 . S
C2750 C2749 1.334 . S
C2750 C2751 1.287 . S
C2751 C2750 1.287 . S
C2751 C2752 1.524 . S
C2751 H2754 0.999 . S
C2752 H2722 0.950 . S
C2752 C2751 1.524 . S
C2752 C2753 1.415 . S
C2753 H2723 0.950 . S
C2753 C2748 1.363 . S
C2753 C2752 1.415 . S
H2754 C2751 0.999 . S
H2755 C2736 0.913 . S
H2756 C2774 0.951 . S
H2757 C2776 0.951 . S
H2758 C2778 0.950 . S
H2759 C2779 0.950 . S
H2760 C2781 0.950 . S
H2761 C2784 0.950 . S
H2762 C2785 0.950 . S
H2763 C2787 0.950 . S
H2764 C2788 0.950 . S
H2765 C2789 0.951 . S
H2766 C2791 0.951 . S
H2767 C2793 0.950 . S
H2768 C2794 0.950 . S
H2769 C2796 0.950 . S
H2770 C2799 0.950 . S
H2771 C2800 0.950 . S
H2772 C2802 0.950 . S
H2773 C2803 0.950 . S
C2774 H2756 0.951 . S
C2774 C2775 1.366 . S
C2774 C2776 1.388 . S
C2775 C2774 1.366 . S
C2775 C2779 1.385 . S
C2776 H2757 0.951 . S
C2776 C2774 1.388 . S
C2776 C2777 1.366 . S
C2777 C2776 1.366 . S
C2777 C2778 1.414 . S
C2777 C2780 1.499 . S
C2778 H2758 0.950 . S
C2778 C2777 1.414 . S
C2778 C2779 1.374 . S
C2779 H2759 0.950 . S
C2779 C2775 1.385 . S
C2779 C2778 1.374 . S
C2780 C2777 1.499 . S
C2780 C2781 1.373 . S
C2780 C2782 1.389 . S
C2781 H2760 0.950 . S
C2781 C2780 1.373 . S
C2781 C2797 1.377 . S
C2782 C2780 1.389 . S
C2782 C2783 1.524 . S
C2782 C2796 1.377 . S
C2783 C2782 1.524 . S
C2783 C2784 1.397 . S
C2783 C2788 1.363 . S
C2784 H2761 0.950 . S
C2784 C2783 1.397 . S
C2784 C2785 1.334 . S
C2785 H2762 0.950 . S
C2785 C2784 1.334 . S
C2785 C2786 1.287 . S
C2786 C2785 1.287 . S
C2786 C2787 1.524 . S
C2786 H2805 0.913 . S
C2787 H2763 0.950 . S
C2787 C2786 1.524 . S
C2787 C2788 1.415 . S
C2788 H2764 0.950 . S
C2788 C2783 1.363 . S
C2788 C2787 1.415 . S
C2789 H2765 0.951 . S
C2789 C2790 1.366 . S
C2789 C2791 1.388 . S
C2790 C2789 1.366 . S
C2790 C2794 1.385 . S
C2791 H2766 0.951 . S
C2791 C2789 1.388 . S
C2791 C2792 1.366 . S
C2792 C2791 1.366 . S
C2792 C2793 1.414 . S
C2792 C2795 1.499 . S
C2793 H2767 0.950 . S
C2793 C2792 1.414 . S
C2793 C2794 1.374 . S
C2794 H2768 0.950 . S
C2794 C2790 1.385 . S
C2794 C2793 1.374 . S
C2795 C2792 1.499 . S
C2795 C2796 1.373 . S
C2795 C2797 1.389 . S
C2796 H2769 0.950 . S
C2796 C2782 1.377 . S
C2796 C2795 1.373 . S
C2797 C2781 1.377 . S
C2797 C2795 1.389 . S
C2797 C2798 1.524 . S
C2798 C2797 1.524 . S
C2798 C2799 1.397 . S
C2798 C2803 1.363 . S
C2799 H2770 0.950 . S
C2799 C2798 1.397 . S
C2799 C2800 1.334 . S
C2800 H2771 0.950 . S
C2800 C2799 1.334 . S
C2800 C2801 1.287 . S
C2801 C2800 1.287 . S
C2801 C2802 1.524 . S
C2801 H2804 0.999 . S
C2802 H2772 0.950 . S
C2802 C2801 1.524 . S
C2802 C2803 1.415 . S
C2803 H2773 0.950 . S
C2803 C2798 1.363 . S
C2803 C2802 1.415 . S
H2804 C2801 0.999 . S
H2805 C2786 0.913 . S
H2806 C2824 0.951 . S
H2807 C2826 0.951 . S
H2808 C2828 0.950 . S
H2809 C2829 0.950 . S
H2810 C2831 0.950 . S
H2811 C2834 0.950 . S
H2812 C2835 0.950 . S
H2813 C2837 0.950 . S
H2814 C2838 0.950 . S
H2815 C2839 0.951 . S
H2816 C2841 0.951 . S
H2817 C2843 0.950 . S
H2818 C2844 0.950 . S
H2819 C2846 0.950 . S
H2820 C2849 0.950 . S
H2821 C2850 0.950 1_455 S
H2822 C2852 0.964 . S
H2823 C2853 0.950 . S
C2824 H2806 0.951 . S
C2824 C2825 1.366 . S
C2824 C2826 1.388 . S
C2825 C2824 1.366 . S
C2825 C2829 1.385 . S
C2826 H2807 0.951 . S
C2826 C2824 1.388 . S
C2826 C2827 1.366 . S
C2827 C2826 1.366 . S
C2827 C2828 1.414 . S
C2827 C2830 1.499 . S
C2828 H2808 0.950 . S
C2828 C2827 1.414 . S
C2828 C2829 1.374 . S
C2829 H2809 0.950 . S
C2829 C2825 1.385 . S
C2829 C2828 1.374 . S
C2830 C2827 1.499 . S
C2830 C2831 1.373 . S
C2830 C2832 1.389 . S
C2831 H2810 0.950 . S
C2831 C2830 1.373 . S
C2831 C2847 1.377 . S
C2832 C2830 1.389 . S
C2832 C2833 1.524 . S
C2832 C2846 1.377 . S
C2833 C2832 1.524 . S
C2833 C2834 1.397 . S
C2833 C2838 1.363 . S
C2834 H2811 0.950 . S
C2834 C2833 1.397 . S
C2834 C2835 1.334 . S
C2835 H2812 0.950 . S
C2835 C2834 1.334 . S
C2835 C2836 1.287 . S
C2836 C2835 1.287 . S
C2836 C2837 1.524 . S
C2836 H2855 0.913 . S
C2837 H2813 0.950 . S
C2837 C2836 1.524 . S
C2837 C2838 1.415 . S
C2838 H2814 0.950 . S
C2838 C2833 1.363 . S
C2838 C2837 1.415 . S
C2839 H2815 0.951 . S
C2839 C2840 1.366 . S
C2839 C2841 1.388 . S
C2840 C2839 1.366 . S
C2840 C2844 1.385 . S
C2841 H2816 0.951 . S
C2841 C2839 1.388 . S
C2841 C2842 1.366 . S
C2842 C2841 1.366 . S
C2842 C2843 1.414 . S
C2842 C2845 1.499 . S
C2843 H2817 0.950 . S
C2843 C2842 1.414 . S
C2843 C2844 1.374 . S
C2844 H2818 0.950 . S
C2844 C2840 1.385 . S
C2844 C2843 1.374 . S
C2845 C2842 1.499 . S
C2845 C2846 1.373 . S
C2845 C2847 1.389 . S
C2846 H2819 0.950 . S
C2846 C2832 1.377 . S
C2846 C2845 1.373 . S
C2847 C2831 1.377 . S
C2847 C2845 1.389 . S
C2847 C2848 1.524 . S
C2848 C2847 1.524 . S
C2848 C2849 1.397 . S
C2848 C2853 1.363 . S
C2849 H2820 0.950 . S
C2849 C2848 1.397 . S
C2849 C2850 1.334 . S
C2850 H2821 0.950 1_655 S
C2850 C2849 1.334 . S
C2850 C2851 1.287 1_655 S
C2851 C2850 1.287 1_455 S
C2851 C2852 1.524 1_455 S
C2851 H2854 0.999 . S
C2852 H2822 0.964 . S
C2852 C2851 1.524 1_655 S
C2852 C2853 1.415 . S
C2853 H2823 0.950 . S
C2853 C2848 1.363 . S
C2853 C2852 1.415 . S
H2854 C2851 0.999 . S
H2855 C2836 0.913 . S
H2856 C2874 0.951 . S
H2857 C2876 0.951 . S
H2858 C2878 0.950 . S
H2859 C2879 0.950 . S
H2860 C2881 0.950 . S
H2861 C2884 0.950 . S
H2862 C2885 0.950 . S
H2863 C2887 0.950 . S
H2864 C2888 0.950 . S
H2865 C2889 0.951 . S
H2866 C2891 0.951 . S
H2867 C2893 0.950 . S
H2868 C2894 0.950 . S
H2869 C2896 0.950 . S
H2870 C2899 0.950 . S
H2871 C2900 0.950 . S
H2872 C2902 0.950 . S
H2873 C2903 0.950 . S
C2874 H2856 0.951 . S
C2874 C2875 1.366 . S
C2874 C2876 1.388 . S
C2875 C2874 1.366 . S
C2875 C2879 1.385 . S
C2876 H2857 0.951 . S
C2876 C2874 1.388 . S
C2876 C2877 1.366 . S
C2877 C2876 1.366 . S
C2877 C2878 1.414 . S
C2877 C2880 1.499 . S
C2878 H2858 0.950 . S
C2878 C2877 1.414 . S
C2878 C2879 1.374 . S
C2879 H2859 0.950 . S
C2879 C2875 1.385 . S
C2879 C2878 1.374 . S
C2880 C2877 1.499 . S
C2880 C2881 1.373 . S
C2880 C2882 1.389 . S
C2881 H2860 0.950 . S
C2881 C2880 1.373 . S
C2881 C2897 1.377 . S
C2882 C2880 1.389 . S
C2882 C2883 1.524 . S
C2882 C2896 1.377 . S
C2883 C2882 1.524 . S
C2883 C2884 1.397 . S
C2883 C2888 1.363 . S
C2884 H2861 0.950 . S
C2884 C2883 1.397 . S
C2884 C2885 1.334 . S
C2885 H2862 0.950 . S
C2885 C2884 1.334 . S
C2885 C2886 1.287 . S
C2886 C2885 1.287 . S
C2886 C2887 1.524 . S
C2886 H2905 0.913 . S
C2887 H2863 0.950 . S
C2887 C2886 1.524 . S
C2887 C2888 1.415 . S
C2888 H2864 0.950 . S
C2888 C2883 1.363 . S
C2888 C2887 1.415 . S
C2889 H2865 0.951 . S
C2889 C2890 1.366 . S
C2889 C2891 1.388 . S
C2890 C2889 1.366 . S
C2890 C2894 1.385 . S
C2891 H2866 0.951 . S
C2891 C2889 1.388 . S
C2891 C2892 1.366 . S
C2892 C2891 1.366 . S
C2892 C2893 1.414 . S
C2892 C2895 1.499 . S
C2893 H2867 0.950 . S
C2893 C2892 1.414 . S
C2893 C2894 1.374 . S
C2894 H2868 0.950 . S
C2894 C2890 1.385 . S
C2894 C2893 1.374 . S
C2895 C2892 1.499 . S
C2895 C2896 1.373 . S
C2895 C2897 1.389 . S
C2896 H2869 0.950 . S
C2896 C2882 1.377 . S
C2896 C2895 1.373 . S
C2897 C2881 1.377 . S
C2897 C2895 1.389 . S
C2897 C2898 1.524 . S
C2898 C2897 1.524 . S
C2898 C2899 1.397 . S
C2898 C2903 1.363 . S
C2899 H2870 0.950 . S
C2899 C2898 1.397 . S
C2899 C2900 1.334 . S
C2900 H2871 0.950 . S
C2900 C2899 1.334 . S
C2900 C2901 1.287 . S
C2901 C2900 1.287 . S
C2901 C2902 1.524 . S
C2901 H2904 0.999 . S
C2902 H2872 0.950 . S
C2902 C2901 1.524 . S
C2902 C2903 1.415 . S
C2903 H2873 0.950 . S
C2903 C2898 1.363 . S
C2903 C2902 1.415 . S
H2904 C2901 0.999 . S
H2905 C2886 0.913 . S
C540 C331 2.553 . S
C525 C18 2.614 . S
C590 C321 2.460 . S
C575 C59 2.474 . S
C640 C322 0.763 . S
C625 C98 0.764 . S
C675 C125 0.922 . S
C690 C344 0.905 . S
C725 C169 2.419 . S
C740 C347 2.388 . S
C790 C330 0.784 . S
C775 C218 0.787 . S
C825 C255 1.069 . S
C840 C320 1.050 . S
C875 C288 2.623 . S
C890 C338 2.563 . S
C940 C351 0.950 . S
C925 C15 0.947 . S
C975 C45 0.694 . S
C990 C400 0.970 . S
C1040 C378 0.419 . S
C1025 C95 0.330 . S
C1090 C392 0.538 . S
C1075 C128 0.494 . S
C1125 C178 0.507 . S
C1140 C353 0.555 . S
C1190 C406 1.611 1_556 S
C1175 C215 1.652 . S
C1225 C249 2.266 . S
C1240 C362 2.194 . S
C1275 C299 2.244 . S
C1290 C383 2.254 . S
C1325 C9 2.687 . S
C1340 C409 2.644 . S
C1375 C175 0.276 . S
C1390 C393 0.573 1_556 S
C1440 C352 1.692 . S
C1425 C209 1.716 . S
C1490 C384 1.086 . S
C1475 C258 1.131 . S
C1525 C285 1.286 . S
C1540 C375 1.263 . S
C1575 C89 3.195 . S
C1590 C382 3.189 . S
C1640 C369 2.664 . S
C1625 C139 2.693 . S
C1675 C48 1.120 . S
C1690 C361 1.116 . S
C1725 C298 2.623 . S
C1740 C424 2.563 . S
C1775 C179 2.419 . S
C1790 C414 2.388 . S
C1840 C415 0.783 . S
C1825 C208 0.787 . S
C1890 C437 1.051 . S
C1875 C245 1.070 . S
C1925 C49 2.474 . S
C1940 C440 2.460 . S
C1990 C423 0.763 . S
C1975 C88 0.764 . S
C2025 C135 0.922 . S
C2040 C413 0.904 . S
C2075 C8 2.614 . S
C2090 C431 2.552 . S
C2125 C295 1.286 . S
C2140 C444 1.263 . S
C2190 C493 0.581 . S
C2175 C165 0.278 . S
C2225 C219 1.716 . S
C2240 C471 1.692 . S
C2275 C248 1.131 . S
C2290 C485 1.088 . S
C2340 C446 1.116 . S
C2325 C58 1.120 . S
C2375 C99 3.195 . S
C2390 C499 3.189 . S
C2440 C455 2.664 . S
C2425 C129 2.693 . S
C2490 C476 2.644 . S
C2475 C19 2.686 . S
C2540 C502 2.254 . S
C2525 C289 2.244 . S
C2575 C55 0.694 . S
C2590 C486 0.970 . S
C2625 C85 0.331 . S
C2640 C445 0.419 . S
C2690 C477 0.538 . S
C2675 C138 0.495 . S
C2725 C5 0.948 . S
C2740 C468 0.950 . S
C2775 C205 1.652 . S
C2790 C475 1.611 . S
C2840 C462 2.193 . S
C2825 C259 2.266 . S
C2890 C454 0.556 . S
C2875 C168 0.506 . S
