# Generated by pormake.
# Topology rtl, (3,6)-cn, num edge types: 1
# Building blocks:
#     Node 0, Type 0, BuildingBlock: OLANEW_clean_sbu_2, # of connection points: 3
#     Node 1, Type 0, BuildingBlock: OLANEW_clean_sbu_2, # of connection points: 3
#     Node 2, Type 0, BuildingBlock: OLANEW_clean_sbu_2, # of connection points: 3
#     Node 3, Type 0, BuildingBlock: OLANEW_clean_sbu_2, # of connection points: 3
#     Node 4, Type 1, BuildingBlock: KUMBOL_clean_sbu_1, # of connection points: 6
#     Node 5, Type 1, BuildingBlock: KUMBOL_clean_sbu_1, # of connection points: 6
#     Edge 6, Type (0, 1), BuildingBlock: FUNLAD_clean_linker_1, # of connection points: 2
#     Edge 7, Type (0, 1), BuildingBlock: FUNLAD_clean_linker_1, # of connection points: 2
#     Edge 8, Type (0, 1), BuildingBlock: FUNLAD_clean_linker_1, # of connection points: 2
#     Edge 9, Type (0, 1), BuildingBlock: FUNLAD_clean_linker_1, # of connection points: 2
#     Edge 10, Type (0, 1), BuildingBlock: FUNLAD_clean_linker_1, # of connection points: 2
#     Edge 11, Type (0, 1), BuildingBlock: FUNLAD_clean_linker_1, # of connection points: 2
#     Edge 12, Type (0, 1), BuildingBlock: FUNLAD_clean_linker_1, # of connection points: 2
#     Edge 13, Type (0, 1), BuildingBlock: FUNLAD_clean_linker_1, # of connection points: 2
#     Edge 14, Type (0, 1), BuildingBlock: FUNLAD_clean_linker_1, # of connection points: 2
#     Edge 15, Type (0, 1), BuildingBlock: FUNLAD_clean_linker_1, # of connection points: 2
#     Edge 16, Type (0, 1), BuildingBlock: FUNLAD_clean_linker_1, # of connection points: 2
#     Edge 17, Type (0, 1), BuildingBlock: FUNLAD_clean_linker_1, # of connection points: 2
# Relax obj value: 0.043
# Max RMSD: 0.165
# Mean RMSD: 0.130
data_MOF--net-rtl--node1-OLANEW_clean_sbu_2--node2-KUMBOL_clean_sbu_1--edge1-FUNLAD_clean_linker_1
_symmetry_space_group_name_H-M    P1
_symmetry_Int_Tables_number       1
_symmetry_cell_setting            triclinic
loop_
_symmetry_equiv_pos_as_xyz
'x, y, z'
_cell_length_a     39.337422
_cell_length_b     39.098161
_cell_length_c     30.206013
_cell_angle_alpha  76.265652
_cell_angle_beta   102.78686
_cell_angle_gamma 91.035021
loop_
_atom_site_label
_atom_site_type_symbol
_atom_site_fract_x
_atom_site_fract_y
_atom_site_fract_z
_atom_type_partial_charge
O0 O 0.25044 0.86743 0.94521 0.0
Cd1 Cd 0.30062 0.84799 0.01076 0.0
O2 O 0.22544 0.88624 0.99337 0.0
Cd3 Cd 0.1839 0.90993 0.0155 0.0
O4 O 0.15146 0.92142 0.06104 0.0
C5 C 0.12915 0.8991 0.07257 0.0
O6 O 0.12534 0.8711 0.05532 0.0
C7 C 0.22451 0.88249 0.95246 0.0
C8 C 0.32722 0.7804 0.01993 0.0
O9 O 0.30291 0.78523 0.04011 0.0
O10 O 0.33864 0.80738 0.99481 0.0
O11 O 0.66138 0.73447 0.70964 0.0
Cd12 Cd 0.6827 0.7678 0.64222 0.0
O13 O 0.64032 0.70145 0.66183 0.0
Cd14 Cd 0.61733 0.65911 0.62987 0.0
O15 O 0.6126 0.63028 0.57485 0.0
C16 C 0.58595 0.63319 0.54137 0.0
O17 O 0.55889 0.65291 0.54008 0.0
C18 C 0.6445 0.70761 0.70222 0.0
C19 C 0.74528 0.80189 0.66097 0.0
O20 O 0.71598 0.81908 0.65007 0.0
O21 O 0.74504 0.7686 0.66452 0.0
O22 O 0.77275 0.14289 0.16329 0.0
Cd23 Cd 0.73526 0.16822 0.08615 0.0
O24 O 0.79689 0.1146 0.12327 0.0
Cd25 Cd 0.83473 0.08038 0.10945 0.0
O26 O 0.8626 0.0629 0.06303 0.0
C27 C 0.84894 0.04111 0.03959 0.0
O28 O 0.81909 0.02753 0.04575 0.0
C29 C 0.79588 0.12096 0.1623 0.0
C30 C 0.69208 0.22601 0.07868 0.0
O31 O 0.68116 0.1946 0.08785 0.0
O32 O 0.72366 0.23014 0.07423 0.0
O33 O 0.33185 0.2829 0.56907 0.0
Cd34 Cd 0.31846 0.23557 0.52797 0.0
O35 O 0.3424 0.31322 0.50311 0.0
Cd36 Cd 0.3605 0.35765 0.45604 0.0
O37 O 0.37995 0.38729 0.3962 0.0
C38 C 0.40628 0.40645 0.40138 0.0
O39 O 0.42154 0.4096 0.44343 0.0
C40 C 0.34186 0.31116 0.54555 0.0
C41 C 0.2647 0.19211 0.55001 0.0
O42 O 0.29597 0.18573 0.57436 0.0
O43 O 0.25852 0.21955 0.51593 0.0
C44 C 0.93746 0.09608 0.52191 0.0
C45 C 0.87697 0.08036 0.51592 0.0
C46 C 0.91279 0.07233 0.53547 0.0
C47 C 0.86656 0.11139 0.48093 0.0
C48 C 0.92706 0.12775 0.48782 0.0
C49 C 0.89152 0.13504 0.46699 0.0
N50 N 0.97182 0.08769 0.54121 0.0
C51 C 0.99697 0.11059 0.53012 0.0
C52 C 0.95277 0.15104 0.47547 0.0
C53 C 0.98785 0.14253 0.49699 0.0
Gd54 Gd 0.0116 0.95818 0.53386 0.0
Gd55 Gd 0.98472 0.03307 0.59539 0.0
N56 N 0.92366 0.04223 0.56908 0.0
C57 C 0.8526 0.05753 0.53315 0.0
C58 C 0.89986 0.02223 0.58939 0.0
C59 C 0.86409 0.02881 0.57087 0.0
H60 H 0.90818 0.00162 0.62059 0.0
H61 H 0.84542 0.01213 0.5863 0.0
H62 H 0.09015 0.98708 0.51261 0.0
H63 H 0.02406 0.10358 0.54611 0.0
H64 H 0.15199 0.96953 0.54346 0.0
H65 H 0.82486 0.06274 0.51905 0.0
H66 H 0.83918 0.11768 0.46511 0.0
H67 H 0.96771 0.88875 0.57489 0.0
H68 H 0.94581 0.17566 0.44947 0.0
H69 H 0.00787 0.16043 0.48781 0.0
H70 H 0.15173 0.85948 0.65416 0.0
H71 H 0.88305 0.15906 0.44037 0.0
H72 H 0.04124 0.80889 0.66567 0.0
H73 H 0.98024 0.82933 0.62855 0.0
N74 N 0.02099 0.90135 0.58271 0.0
C75 C 0.05479 0.89014 0.60127 0.0
C76 C 0.99433 0.87986 0.59137 0.0
C77 C 0.03589 0.83482 0.64224 0.0
C78 C 0.00136 0.84633 0.62143 0.0
C79 C 0.06313 0.85669 0.6321 0.0
H80 H 0.10515 0.8206 0.67567 0.0
N81 N 0.07208 0.94456 0.55945 0.0
C82 C 0.08102 0.91255 0.58981 0.0
C83 C 0.1421 0.92288 0.59242 0.0
C84 C 0.11632 0.90129 0.60795 0.0
C85 C 0.09707 0.9641 0.54117 0.0
C86 C 0.13235 0.95389 0.55793 0.0
O87 O 0.98077 0.04463 0.51718 0.0
O88 O 0.96388 0.99311 0.49736 0.0
O89 O 0.02489 0.96018 0.46614 0.0
O90 O 0.99183 0.91936 0.49537 0.0
O91 O 0.96169 0.97896 0.61257 0.0
O92 O 0.95664 0.95987 0.54452 0.0
O93 O 0.0195 0.94486 0.61272 0.0
O94 O 0.03091 0.99679 0.6358 0.0
O95 O 0.96992 0.03724 0.66017 0.0
O96 O 0.0055 0.07412 0.62933 0.0
O97 O 0.03799 0.01104 0.52201 0.0
O98 O 0.04051 0.0308 0.58922 0.0
C99 C 0.96256 0.02755 0.48819 0.0
C100 C 0.94729 0.95931 0.58389 0.0
C101 C 0.0023 0.91701 0.42021 0.0
C102 C 0.01762 0.91234 0.34753 0.0
C103 C 0.97225 0.87647 0.37634 0.0
C104 C 0.97705 0.89157 0.41454 0.0
C105 C 0.99242 0.88654 0.34318 0.0
C106 C 0.02262 0.92726 0.38657 0.0
C107 C 0.00663 0.93266 0.46105 0.0
C108 C 0.12475 0.86834 0.63959 0.0
C109 C 0.09823 0.84612 0.65167 0.0
H110 H 0.16948 0.91506 0.60518 0.0
C111 C 0.036 0.96267 0.64208 0.0
C112 C 0.05242 0.02954 0.55222 0.0
C113 C 0.99285 0.08352 0.7004 0.0
C114 C 0.98375 0.08873 0.77616 0.0
C115 C 0.01689 0.13223 0.73297 0.0
C116 C 0.01179 0.11451 0.69725 0.0
C117 C 0.00316 0.11939 0.77222 0.0
C118 C 0.97874 0.0707 0.73995 0.0
C119 C 0.98926 0.06438 0.66298 0.0
H120 H 0.95298 0.85663 0.3726 0.0
H121 H 0.96093 0.88324 0.43969 0.0
H122 H 0.98864 0.87334 0.31489 0.0
H123 H 0.04226 0.94676 0.39071 0.0
H124 H 0.03165 0.15598 0.73031 0.0
H125 H 0.02297 0.125 0.66729 0.0
H126 H 0.00753 0.13367 0.79953 0.0
H127 H 0.96473 0.04648 0.74277 0.0
C128 C 0.59562 0.59784 0.00805 0.0
C129 C 0.56798 0.65461 0.99894 0.0
C130 C 0.56946 0.6176 0.01498 0.0
C131 C 0.59239 0.67108 0.9739 0.0
C132 C 0.62128 0.61424 0.9851 0.0
C133 C 0.61903 0.65091 0.96702 0.0
N134 N 0.59702 0.56257 0.02613 0.0
C135 C 0.62485 0.5423 0.02586 0.0
C136 C 0.64897 0.59338 0.98237 0.0
C137 C 0.65104 0.55731 0.00349 0.0
Gd138 Gd 0.4782 0.48684 0.98797 0.0
Gd139 Gd 0.55235 0.5388 0.06294 0.0
N140 N 0.5471 0.60083 0.04056 0.0
C141 C 0.54293 0.67397 0.01019 0.0
C142 C 0.52465 0.6198 0.05486 0.0
C143 C 0.52156 0.65651 0.03899 0.0
H144 H 0.50925 0.60664 0.07883 0.0
H145 H 0.50311 0.67137 0.04953 0.0
H146 H 0.50758 0.40353 0.02388 0.0
H147 H 0.62628 0.51439 0.04202 0.0
H148 H 0.4949 0.34788 0.07608 0.0
H149 H 0.54084 0.70243 0.99845 0.0
H150 H 0.59144 0.69944 0.96082 0.0
H151 H 0.40654 0.541 0.96654 0.0
H152 H 0.66923 0.60495 0.96504 0.0
H153 H 0.67268 0.54107 0.00239 0.0
H154 H 0.39524 0.37855 0.12846 0.0
H155 H 0.6382 0.66401 0.94869 0.0
H156 H 0.34315 0.49436 0.06138 0.0
H157 H 0.35524 0.54409 0.99992 0.0
N158 N 0.42571 0.49156 0.01234 0.0
C159 C 0.41773 0.4627 0.04306 0.0
C160 C 0.40263 0.51977 0.99493 0.0
C161 C 0.36617 0.49312 0.04758 0.0
C162 C 0.37305 0.52135 0.01306 0.0
C163 C 0.38808 0.4629 0.0621 0.0
H164 H 0.35831 0.43253 0.1093 0.0
N165 N 0.46665 0.43288 0.03481 0.0
C166 C 0.43836 0.43221 0.05379 0.0
C167 C 0.45114 0.37078 0.09246 0.0
C168 C 0.43023 0.4013 0.08397 0.0
C169 C 0.48609 0.40286 0.04091 0.0
C170 C 0.47893 0.37146 0.07034 0.0
O171 O 0.55485 0.53742 0.98877 0.0
O172 O 0.49745 0.5376 0.94984 0.0
O173 O 0.4862 0.46063 0.93505 0.0
O174 O 0.43439 0.47818 0.9342 0.0
O175 O 0.49477 0.55245 0.05293 0.0
O176 O 0.46854 0.54543 0.97963 0.0
O177 O 0.50154 0.46567 0.06535 0.0
O178 O 0.50713 0.51547 0.09238 0.0
O179 O 0.57215 0.55877 0.12529 0.0
O180 O 0.59286 0.50994 0.11915 0.0
O181 O 0.5341 0.46915 0.99562 0.0
O182 O 0.56608 0.48273 0.06375 0.0
C183 C 0.53006 0.5456 0.9504 0.0
C184 C 0.47213 0.5627 0.01278 0.0
C185 C 0.44717 0.47776 0.86179 0.0
C186 C 0.42749 0.46727 0.78362 0.0
C187 C 0.44769 0.52491 0.79348 0.0
C188 C 0.45406 0.51264 0.842 0.0
C189 C 0.43442 0.50255 0.76435 0.0
C190 C 0.43397 0.45527 0.83261 0.0
C191 C 0.45368 0.46433 0.91275 0.0
C192 C 0.40164 0.40188 0.10462 0.0
C193 C 0.38067 0.43265 0.09381 0.0
H194 H 0.44578 0.34649 0.11547 0.0
C195 C 0.49962 0.48223 0.09764 0.0
C196 C 0.56099 0.46425 0.03174 0.0
C197 C 0.58738 0.51228 0.19462 0.0
C198 C 0.57212 0.51289 0.26867 0.0
C199 C 0.59032 0.45805 0.25519 0.0
C200 C 0.59465 0.47573 0.2111 0.0
C201 C 0.57842 0.47634 0.28345 0.0
C202 C 0.5767 0.53093 0.22417 0.0
C203 C 0.59124 0.53033 0.14695 0.0
H204 H 0.45293 0.55192 0.77835 0.0
H205 H 0.46423 0.53035 0.86399 0.0
H206 H 0.42951 0.51336 0.72706 0.0
H207 H 0.42873 0.42828 0.84821 0.0
H208 H 0.59595 0.42997 0.26734 0.0
H209 H 0.60357 0.46057 0.18986 0.0
H210 H 0.57503 0.46204 0.31753 0.0
H211 H 0.57153 0.55915 0.21249 0.0
H212 H 0.24376 0.1453 0.59065 0.0
C213 C 0.2371 0.16747 0.56037 0.0
H214 H 0.19766 0.19272 0.50254 0.0
H215 H 0.14797 0.02706 0.56328 0.0
H216 H 0.19843 0.01105 0.53742 0.0
H217 H 0.23891 0.05607 0.51095 0.0
H218 H 0.23 0.11708 0.51164 0.0
C219 C 0.20499 0.17043 0.5325 0.0
C220 C 0.17822 0.14403 0.54257 0.0
C221 C 0.18266 0.10887 0.53921 0.0
C222 C 0.15801 0.08332 0.55151 0.0
C223 C 0.16471 0.04785 0.55161 0.0
C224 C 0.19372 0.03825 0.53729 0.0
C225 C 0.21667 0.06357 0.52265 0.0
C226 C 0.21136 0.09849 0.52354 0.0
H227 H 0.08782 0.05635 0.50831 0.0
C228 C 0.08188 0.05194 0.54265 0.0
H229 H 0.09463 0.06327 0.60921 0.0
H230 H 0.16172 0.20919 0.55212 0.0
H231 H 0.11074 0.22551 0.57635 0.0
H232 H 0.06714 0.18164 0.59576 0.0
H233 H 0.07434 0.12135 0.5913 0.0
C234 C 0.10071 0.06749 0.57497 0.0
C235 C 0.12779 0.09344 0.56435 0.0
C236 C 0.12335 0.12866 0.56762 0.0
C237 C 0.14847 0.15399 0.55644 0.0
C238 C 0.14336 0.18894 0.55997 0.0
C239 C 0.11423 0.19867 0.57388 0.0
C240 C 0.08969 0.174 0.5848 0.0
C241 C 0.09409 0.1394 0.58186 0.0
H242 H 0.3315 0.72281 0.04886 0.0
C243 C 0.34198 0.74462 0.02674 0.0
H244 H 0.37917 0.75975 0.98538 0.0
H245 H 0.46411 0.61651 0.11535 0.0
H246 H 0.48267 0.65311 0.16976 0.0
H247 H 0.45651 0.71272 0.155 0.0
H248 H 0.41137 0.73593 0.08555 0.0
C249 C 0.36834 0.73842 0.00772 0.0
C250 C 0.38368 0.70226 0.01683 0.0
C251 C 0.41012 0.68905 0.05743 0.0
C252 C 0.42552 0.65483 0.0655 0.0
C253 C 0.45169 0.64236 0.10674 0.0
C254 C 0.4626 0.66312 0.13853 0.0
C255 C 0.44785 0.69666 0.13025 0.0
C256 C 0.42193 0.70962 0.09026 0.0
H257 H 0.44533 0.61264 0.97062 0.0
C258 C 0.4496 0.59421 0.00466 0.0
H259 H 0.43854 0.58111 0.0714 0.0
H260 H 0.33256 0.71936 0.93681 0.0
H261 H 0.31127 0.68174 0.88396 0.0
H262 H 0.33593 0.62136 0.89957 0.0
H263 H 0.38227 0.59861 0.96745 0.0
C264 C 0.43453 0.60034 0.03802 0.0
C265 C 0.41505 0.63422 0.03217 0.0
C266 C 0.38702 0.64674 0.99297 0.0
C267 C 0.37184 0.68105 0.98488 0.0
C268 C 0.34467 0.69333 0.94484 0.0
C269 C 0.33217 0.672 0.91428 0.0
C270 C 0.34611 0.63806 0.92299 0.0
C271 C 0.37305 0.62542 0.96189 0.0
H272 H 0.80227 0.80393 0.68524 0.0
C273 C 0.77871 0.81979 0.66686 0.0
H274 H 0.75766 0.86965 0.62679 0.0
H275 H 0.88217 0.96505 0.67875 0.0
H276 H 0.8375 0.98735 0.70927 0.0
H277 H 0.7827 0.95623 0.71272 0.0
H278 H 0.77209 0.90287 0.68495 0.0
C279 C 0.78117 0.85379 0.64546 0.0
C280 C 0.81544 0.871 0.64606 0.0
C281 C 0.82169 0.90173 0.66353 0.0
C282 C 0.85358 0.91941 0.66223 0.0
C283 C 0.85858 0.95052 0.67882 0.0
C284 C 0.83314 0.96358 0.69665 0.0
C285 C 0.80229 0.94607 0.69856 0.0
C286 C 0.79651 0.91549 0.68235 0.0
H287 H 0.90115 0.92891 0.56471 0.0
C288 C 0.91764 0.93743 0.59378 0.0
H289 H 0.92706 0.93554 0.66585 0.0
H290 H 0.81059 0.81648 0.60158 0.0
H291 H 0.85746 0.79109 0.57833 0.0
H292 H 0.91606 0.8158 0.58934 0.0
H293 H 0.92727 0.86715 0.62192 0.0
C294 C 0.91073 0.92715 0.63659 0.0
C295 C 0.87947 0.90604 0.64408 0.0
C296 C 0.87424 0.87384 0.63001 0.0
C297 C 0.84155 0.8575 0.62826 0.0
C298 C 0.8357 0.82829 0.60761 0.0
C299 C 0.86232 0.81367 0.59348 0.0
C300 C 0.89521 0.82771 0.59935 0.0
C301 C 0.90121 0.85742 0.61743 0.0
H302 H 0.64081 0.25135 0.07118 0.0
C303 C 0.66813 0.25641 0.07157 0.0
H304 H 0.70583 0.29505 0.06332 0.0
H305 H 0.60523 0.42151 0.94132 0.0
H306 H 0.64025 0.41292 0.88785 0.0
H307 H 0.68113 0.36158 0.90829 0.0
H308 H 0.68757 0.31878 0.98247 0.0
C309 C 0.67874 0.28976 0.06421 0.0
C310 C 0.65353 0.32041 0.05208 0.0
C311 C 0.64968 0.34492 0.00811 0.0
C312 C 0.62558 0.37416 0.99585 0.0
C313 C 0.62281 0.3986 0.95216 0.0
C314 C 0.64278 0.39401 0.92112 0.0
C315 C 0.66582 0.36513 0.93267 0.0
C316 C 0.66932 0.34079 0.97552 0.0
H317 H 0.60824 0.43151 0.06916 0.0
C318 C 0.58589 0.43453 0.03979 0.0
H319 H 0.55902 0.41266 0.98478 0.0
H320 H 0.65772 0.28166 0.14194 0.0
H321 H 0.62014 0.28834 0.1932 0.0
H322 H 0.57378 0.33505 0.16811 0.0
H323 H 0.56549 0.37595 0.09224 0.0
C324 C 0.58076 0.40994 0.01483 0.0
C325 C 0.60501 0.37861 0.02721 0.0
C326 C 0.60806 0.35356 0.07059 0.0
C327 C 0.63322 0.32519 0.08377 0.0
C328 C 0.63771 0.30244 0.12895 0.0
C329 C 0.61651 0.30617 0.15896 0.0
C330 C 0.59053 0.33256 0.14495 0.0
C331 C 0.58625 0.35606 0.10137 0.0
H332 H 0.09202 0.88156 0.11745 0.0
C333 C 0.10952 0.90246 0.10777 0.0
H334 H 0.13053 0.9504 0.12034 0.0
H335 H 0.00384 0.97527 0.21213 0.0
H336 H 0.99047 0.02101 0.13998 0.0
H337 H 0.02511 0.02521 0.0802 0.0
H338 H 0.07325 0.98356 0.092 0.0
C339 C 0.11377 0.9288 0.12993 0.0
C340 C 0.09544 0.92883 0.16817 0.0
C341 C 0.06765 0.95352 0.16091 0.0
C342 C 0.04753 0.95094 0.19529 0.0
C343 C 0.01971 0.97579 0.18694 0.0
C344 C 0.01184 0.00224 0.14578 0.0
C345 C 0.03137 0.00462 0.11213 0.0
C346 C 0.05891 0.98056 0.11934 0.0
H347 H 0.06587 0.93233 0.32502 0.0
C348 C 0.04033 0.92229 0.31335 0.0
H349 H 0.00472 0.9109 0.25548 0.0
H350 H 0.15116 0.88178 0.19687 0.0
H351 H 0.16437 0.83561 0.26841 0.0
H352 H 0.12705 0.82824 0.32553 0.0
H353 H 0.0769 0.86728 0.31201 0.0
C354 C 0.031 0.91812 0.26929 0.0
C355 C 0.05526 0.92372 0.2369 0.0
C356 C 0.08401 0.89983 0.24498 0.0
C357 C 0.10458 0.90297 0.21103 0.0
C358 C 0.13391 0.87971 0.22067 0.0
C359 C 0.14192 0.85323 0.26172 0.0
C360 C 0.12099 0.84916 0.29394 0.0
C361 C 0.09231 0.87201 0.28582 0.0
H362 H 0.64112 0.68879 0.77567 0.0
C363 C 0.63167 0.68438 0.74088 0.0
H364 H 0.59848 0.65432 0.70094 0.0
H365 H 0.5986 0.52497 0.87332 0.0
H366 H 0.62951 0.49951 0.82707 0.0
H367 H 0.6459 0.53651 0.75716 0.0
H368 H 0.63133 0.59918 0.73292 0.0
C369 C 0.60835 0.65938 0.73514 0.0
C370 C 0.59663 0.63686 0.776 0.0
C371 C 0.60536 0.60026 0.78973 0.0
C372 C 0.59634 0.579 0.83045 0.0
C373 C 0.60523 0.54247 0.84312 0.0
C374 C 0.6229 0.52747 0.8168 0.0
C375 C 0.63209 0.54829 0.77742 0.0
C376 C 0.62353 0.58426 0.76388 0.0
H377 H 0.5164 0.57738 0.87764 0.0
C378 C 0.5381 0.5662 0.90648 0.0
H379 H 0.59263 0.55904 0.92847 0.0
H380 H 0.57079 0.70483 0.7554 0.0
H381 H 0.54171 0.73081 0.80302 0.0
H382 H 0.53043 0.69509 0.8771 0.0
H383 H 0.54739 0.63322 0.90331 0.0
C384 C 0.57088 0.57208 0.90129 0.0
C385 C 0.57865 0.59434 0.85751 0.0
C386 C 0.5696 0.63094 0.84355 0.0
C387 C 0.57779 0.65199 0.80212 0.0
C388 C 0.56672 0.68798 0.78765 0.0
C389 C 0.54973 0.70319 0.81447 0.0
C390 C 0.54322 0.68306 0.85603 0.0
C391 C 0.55294 0.64739 0.87053 0.0
H392 H 0.83768 0.08179 0.20335 0.0
C393 C 0.82118 0.10317 0.20522 0.0
H394 H 0.80778 0.13376 0.24813 0.0
H395 H 0.86143 0.02742 0.44238 0.0
H396 H 0.79951 0.03282 0.43869 0.0
H397 H 0.75937 0.06508 0.36645 0.0
H398 H 0.78094 0.09264 0.29776 0.0
C399 C 0.82454 0.11274 0.2459 0.0
C400 C 0.8491 0.09354 0.2896 0.0
C401 C 0.83584 0.07691 0.32916 0.0
C402 C 0.85881 0.05753 0.37047 0.0
C403 C 0.84504 0.04192 0.40983 0.0
C404 C 0.80956 0.04487 0.40825 0.0
C405 C 0.78698 0.0631 0.36761 0.0
C406 C 0.79977 0.07889 0.32841 0.0
H407 H 0.94277 0.07644 0.43521 0.0
C408 C 0.94083 0.04796 0.44385 0.0
H409 H 0.91487 0.00445 0.4237 0.0
H410 H 0.88452 0.12822 0.22433 0.0
H411 H 0.94636 0.12239 0.22815 0.0
H412 H 0.9852 0.08415 0.2969 0.0
H413 H 0.96248 0.0522 0.36271 0.0
C414 C 0.91832 0.03271 0.41471 0.0
C415 C 0.89487 0.05423 0.37195 0.0
C416 C 0.9083 0.07134 0.33286 0.0
C417 C 0.88557 0.09186 0.29215 0.0
C418 C 0.90016 0.11073 0.25504 0.0
C419 C 0.93574 0.10791 0.25697 0.0
C420 C 0.95762 0.08651 0.29576 0.0
C421 C 0.94423 0.06841 0.33338 0.0
H422 H 0.36036 0.36498 0.54511 0.0
C423 C 0.35385 0.34065 0.56723 0.0
H424 H 0.35112 0.31374 0.63571 0.0
H425 H 0.46244 0.43789 0.67861 0.0
H426 H 0.50075 0.41014 0.6436 0.0
H427 H 0.48054 0.36172 0.60589 0.0
H428 H 0.42192 0.34096 0.60263 0.0
C429 C 0.35817 0.3377 0.61344 0.0
C430 C 0.37074 0.36723 0.63557 0.0
C431 C 0.4054 0.37873 0.63768 0.0
C432 C 0.41732 0.4062 0.66029 0.0
C433 C 0.45201 0.41716 0.66189 0.0
C434 C 0.47433 0.4014 0.64205 0.0
C435 C 0.46294 0.37418 0.62076 0.0
C436 C 0.42903 0.36271 0.61878 0.0
H437 H 0.40641 0.41627 0.7727 0.0
C438 C 0.41318 0.44211 0.75453 0.0
H439 H 0.41603 0.47338 0.68761 0.0
H440 H 0.3028 0.35184 0.6373 0.0
H441 H 0.26448 0.37986 0.67202 0.0
H442 H 0.28497 0.42791 0.71034 0.0
H443 H 0.34396 0.44806 0.71445 0.0
C444 C 0.40835 0.44885 0.70765 0.0
C445 C 0.39494 0.4215 0.68179 0.0
C446 C 0.36016 0.41039 0.67906 0.0
C447 C 0.34818 0.38302 0.65633 0.0
C448 C 0.31336 0.37238 0.65431 0.0
C449 C 0.29101 0.38833 0.67394 0.0
C450 C 0.30256 0.41535 0.69556 0.0
C451 C 0.33661 0.42648 0.69799 0.0
H452 H 0.61169 0.60429 0.50279 0.0
C453 C 0.58698 0.6163 0.50284 0.0
H454 H 0.53448 0.62819 0.46732 0.0
H455 H 0.55168 0.62081 0.26741 0.0
H456 H 0.52946 0.68069 0.25421 0.0
H457 H 0.52273 0.7049 0.32026 0.0
H458 H 0.53754 0.66926 0.39974 0.0
C459 C 0.55909 0.61566 0.46802 0.0
C460 C 0.56178 0.60039 0.42791 0.0
C461 C 0.55361 0.6219 0.38162 0.0
C462 C 0.55835 0.60826 0.34357 0.0
C463 C 0.54916 0.63002 0.29765 0.0
C464 C 0.53633 0.66444 0.28955 0.0
C465 C 0.53248 0.67804 0.32672 0.0
C466 C 0.54104 0.65721 0.37226 0.0
H467 H 0.54385 0.51799 0.32235 0.0
C468 C 0.56154 0.53122 0.30128 0.0
H469 H 0.59625 0.57276 0.29207 0.0
H470 H 0.57172 0.54914 0.50979 0.0
H471 H 0.59687 0.49038 0.52378 0.0
H472 H 0.61382 0.46993 0.4602 0.0
H473 H 0.6044 0.50754 0.38211 0.0
C474 C 0.57774 0.55973 0.31186 0.0
C475 C 0.57204 0.57346 0.35185 0.0
C476 C 0.58051 0.55204 0.39824 0.0
C477 C 0.57365 0.5649 0.4358 0.0
C478 C 0.57877 0.54163 0.4807 0.0
C479 C 0.59285 0.50767 0.48912 0.0
C480 C 0.60217 0.49608 0.45329 0.0
C481 C 0.59622 0.51789 0.40838 0.0
H482 H 0.84968 0.01754 0.98022 0.0
C483 C 0.86372 0.03442 1.00143 0.0
H484 H 0.90635 0.06773 0.01049 0.0
H485 H 0.98778 0.00996 0.8828 0.0
H486 H 0.01974 0.97716 0.9591 0.0
H487 H 0.99836 0.97653 0.0301 0.0
H488 H 0.94515 0.00912 0.02553 0.0
C489 C 0.8917 0.05108 0.98945 0.0
C490 C 0.9028 0.04873 0.94621 0.0
C491 C 0.93409 0.02991 0.94962 0.0
C492 C 0.94648 0.03032 0.90867 0.0
C493 C 0.97759 0.01098 0.91296 0.0
C494 C 0.99605 0.99192 0.95646 0.0
C495 C 0.98403 0.99161 0.99648 0.0
C496 C 0.95348 0.0104 0.99335 0.0
H497 H 0.98049 0.08828 0.84832 0.0
C498 C 0.96979 0.07672 0.81897 0.0
H499 H 0.92975 0.0447 0.79335 0.0
H500 H 0.8418 0.08805 0.92694 0.0
H501 H 0.80908 0.11886 0.85052 0.0
H502 H 0.82982 0.11809 0.77945 0.0
H503 H 0.88364 0.08664 0.78453 0.0
C504 C 0.94307 0.05508 0.82258 0.0
C505 C 0.92767 0.04979 0.86445 0.0
C506 C 0.89548 0.06712 0.86074 0.0
C507 C 0.88323 0.06703 0.90169 0.0
C508 C 0.85197 0.08634 0.89707 0.0
C509 C 0.83297 0.10437 0.85334 0.0
C510 C 0.84467 0.10398 0.81334 0.0
C511 C 0.87561 0.08579 0.81678 0.0
H512 H 0.44479 0.43804 0.36779 0.0
C513 C 0.42146 0.423 0.36128 0.0
H514 H 0.38492 0.40415 0.3106 0.0
H515 H 0.42043 0.51421 0.13736 0.0
H516 H 0.3623 0.53491 0.1354 0.0
H517 H 0.33285 0.50969 0.19934 0.0
H518 H 0.36131 0.46333 0.26547 0.0
C519 C 0.40863 0.41846 0.31803 0.0
C520 C 0.42613 0.43306 0.27897 0.0
C521 C 0.40931 0.46043 0.24094 0.0
C522 C 0.42654 0.4754 0.20451 0.0
C523 C 0.40888 0.50234 0.16649 0.0
C524 C 0.37542 0.51439 0.1648 0.0
C525 C 0.35882 0.50014 0.20075 0.0
C526 C 0.37545 0.47353 0.2385 0.0
H527 H 0.47989 0.43625 0.14164 0.0
C528 C 0.48571 0.4639 0.13804 0.0
H529 H 0.48359 0.50854 0.16531 0.0
H530 H 0.46309 0.37665 0.34236 0.0
H531 H 0.52052 0.35479 0.34328 0.0
H532 H 0.55154 0.38247 0.2821 0.0
H533 H 0.52526 0.43208 0.21963 0.0
C534 C 0.47898 0.48058 0.16935 0.0
C535 C 0.4606 0.46307 0.20628 0.0
C536 C 0.47686 0.43467 0.24334 0.0
C537 C 0.4594 0.41935 0.2794 0.0
C538 C 0.47563 0.39013 0.31499 0.0
C539 C 0.50852 0.37711 0.31577 0.0
C540 C 0.52595 0.39266 0.28128 0.0
C541 C 0.51048 0.42112 0.24549 0.0
H542 H 0.17382 0.91135 0.92074 0.0
C543 C 0.19409 0.8961 0.91393 0.0
H544 H 0.21195 0.87639 0.86353 0.0
H545 H 0.04317 0.92083 0.76784 0.0
H546 H 0.03045 0.87604 0.83217 0.0
H547 H 0.07795 0.84398 0.89549 0.0
H548 H 0.1384 0.85702 0.89532 0.0
C549 C 0.19135 0.89089 0.87082 0.0
C550 C 0.16247 0.90757 0.83073 0.0
C551 C 0.12731 0.89853 0.83047 0.0
C552 C 0.09998 0.91583 0.79282 0.0
C553 C 0.06502 0.90767 0.79466 0.0
C554 C 0.05732 0.8821 0.83151 0.0
C555 C 0.08406 0.86414 0.86724 0.0
C556 C 0.11867 0.8721 0.86688 0.0
H557 H 0.06521 0.91514 0.689 0.0
C558 C 0.0611 0.94333 0.68412 0.0
H559 H 0.07695 0.98815 0.70993 0.0
H560 H 0.22703 0.93055 0.81935 0.0
H561 H 0.23981 0.97235 0.75233 0.0
H562 H 0.1926 0.99977 0.68512 0.0
H563 H 0.1323 0.98586 0.68485 0.0
C564 C 0.0798 0.95977 0.71528 0.0
C565 C 0.10798 0.94093 0.75453 0.0
C566 C 0.14317 0.9489 0.75385 0.0
C567 C 0.17042 0.93244 0.79211 0.0
C568 C 0.20528 0.94168 0.79092 0.0
C569 C 0.21301 0.96574 0.75267 0.0
C570 C 0.18644 0.98123 0.71488 0.0
C571 C 0.1519 0.97306 0.71528 0.0
loop_
_geom_bond_atom_site_label_1
_geom_bond_atom_site_label_2
_geom_bond_distance
_geom_bond_site_symmetry_2
_ccdc_geom_bond_type
O0 Cd1 2.300 1_556 S
O0 C7 1.275 . S
Cd1 O0 2.300 1_554 S
Cd1 O9 2.381 . S
Cd1 O10 2.378 . S
O2 Cd3 2.370 1_556 S
O2 C7 1.269 . S
Cd3 O2 2.370 1_554 S
Cd3 O4 2.317 . S
O4 Cd3 2.317 . S
O4 C5 1.232 . S
C5 O4 1.232 . S
C5 O6 1.218 . S
O6 C5 1.218 . S
C7 O0 1.275 . S
C7 O2 1.269 . S
C8 O9 1.258 . S
C8 O10 1.256 . S
O9 Cd1 2.381 . S
O9 C8 1.258 . S
O10 Cd1 2.378 . S
O10 C8 1.256 . S
O11 Cd12 2.300 . S
O11 C18 1.275 . S
Cd12 O11 2.300 . S
Cd12 O20 2.381 . S
Cd12 O21 2.378 . S
O13 Cd14 2.385 . S
O13 C18 1.255 . S
Cd14 O13 2.385 . S
Cd14 O15 2.317 . S
O15 Cd14 2.317 . S
O15 C16 1.232 . S
C16 O15 1.232 . S
C16 O17 1.218 . S
O17 C16 1.218 . S
C18 O11 1.275 . S
C18 O13 1.255 . S
C19 O20 1.258 . S
C19 O21 1.256 . S
O20 Cd12 2.381 . S
O20 C19 1.258 . S
O21 Cd12 2.378 . S
O21 C19 1.256 . S
O22 Cd23 2.300 . S
O22 C29 1.275 . S
Cd23 O22 2.300 . S
Cd23 O31 2.381 . S
Cd23 O32 2.378 . S
O24 Cd25 2.385 . S
O24 C29 1.255 . S
Cd25 O24 2.385 . S
Cd25 O26 2.317 . S
O26 Cd25 2.317 . S
O26 C27 1.233 . S
C27 O26 1.233 . S
C27 O28 1.220 . S
O28 C27 1.220 . S
C29 O22 1.275 . S
C29 O24 1.255 . S
C30 O31 1.258 . S
C30 O32 1.256 . S
O31 Cd23 2.381 . S
O31 C30 1.258 . S
O32 Cd23 2.378 . S
O32 C30 1.256 . S
O33 Cd34 2.300 . S
O33 C40 1.275 . S
Cd34 O33 2.300 . S
Cd34 O42 2.381 . S
Cd34 O43 2.378 . S
O35 Cd36 2.385 . S
O35 C40 1.255 . S
Cd36 O35 2.385 . S
Cd36 O37 2.317 . S
O37 Cd36 2.317 . S
O37 C38 1.232 . S
C38 O37 1.232 . S
C38 O39 1.218 . S
O39 C38 1.218 . S
C40 O33 1.275 . S
C40 O35 1.255 . S
C41 O42 1.258 . S
C41 O43 1.256 . S
O42 Cd34 2.381 . S
O42 C41 1.258 . S
O43 Cd34 2.378 . S
O43 C41 1.256 . S
C44 C46 1.422 . S
C44 C48 1.415 . S
C44 N50 1.369 . S
C45 C46 1.421 . S
C45 C47 1.417 . S
C45 C57 1.422 . S
C46 C44 1.422 . S
C46 C45 1.421 . S
C46 N56 1.359 . S
C47 C45 1.417 . S
C47 C49 1.329 . S
C47 H66 0.930 . S
C48 C44 1.415 . S
C48 C49 1.437 . S
C48 C52 1.413 . S
C49 C47 1.329 . S
C49 C48 1.437 . S
C49 H71 0.929 . S
N50 C44 1.369 . S
N50 C51 1.338 1_655 S
N50 Gd55 2.622 . S
C51 N50 1.338 1_455 S
C51 C53 1.378 . S
C51 H63 0.929 . S
C52 C48 1.413 . S
C52 C53 1.348 1_655 S
C52 H68 0.931 . S
C53 C51 1.378 . S
C53 C52 1.348 1_455 S
C53 H69 0.930 . S
Gd54 N74 2.622 . S
Gd54 N81 2.570 . S
Gd54 O88 2.353 1_465 S
Gd54 O89 2.468 . S
Gd54 O90 2.427 . S
Gd54 O92 2.388 1_455 S
Gd54 O93 2.386 . S
Gd54 O97 2.307 1_565 S
Gd54 C107 2.805 . S
Gd55 N50 2.622 . S
Gd55 N56 2.570 . S
Gd55 O87 2.386 . S
Gd55 O91 2.307 1_545 S
Gd55 O94 2.353 1_655 S
Gd55 O95 2.468 . S
Gd55 O96 2.427 . S
Gd55 O98 2.388 1_655 S
Gd55 C119 2.805 . S
N56 C46 1.359 . S
N56 Gd55 2.570 . S
N56 C58 1.343 . S
C57 C45 1.422 . S
C57 C59 1.321 . S
C57 H65 0.931 . S
C58 N56 1.343 . S
C58 C59 1.390 . S
C58 H60 0.931 . S
C59 C57 1.321 . S
C59 C58 1.390 . S
C59 H61 0.930 . S
H60 C58 0.931 . S
H61 C59 0.930 . S
H62 C85 0.931 . S
H63 C51 0.929 . S
H64 C86 0.930 . S
H65 C57 0.931 . S
H66 C47 0.930 . S
H67 C76 0.929 1_655 S
H68 C52 0.931 . S
H69 C53 0.930 . S
H70 C108 0.930 . S
H71 C49 0.929 . S
H72 C77 0.931 . S
H73 C78 0.930 1_655 S
N74 Gd54 2.622 . S
N74 C75 1.369 . S
N74 C76 1.338 . S
C75 N74 1.369 . S
C75 C79 1.415 . S
C75 C82 1.422 . S
C76 H67 0.929 1_455 S
C76 N74 1.338 . S
C76 C78 1.378 . S
C77 H72 0.931 . S
C77 C78 1.348 . S
C77 C79 1.413 . S
C78 H73 0.930 1_455 S
C78 C76 1.378 . S
C78 C77 1.348 . S
C79 C75 1.415 . S
C79 C77 1.413 . S
C79 C109 1.437 . S
H80 C109 0.929 . S
N81 Gd54 2.570 . S
N81 C82 1.359 . S
N81 C85 1.343 . S
C82 C75 1.422 . S
C82 N81 1.359 . S
C82 C84 1.421 . S
C83 C84 1.422 . S
C83 C86 1.321 . S
C83 H110 0.931 . S
C84 C82 1.421 . S
C84 C83 1.422 . S
C84 C108 1.417 . S
C85 H62 0.931 . S
C85 N81 1.343 . S
C85 C86 1.390 . S
C86 H64 0.930 . S
C86 C83 1.321 . S
C86 C85 1.390 . S
O87 Gd55 2.386 . S
O87 C99 1.265 . S
O88 Gd54 2.353 1_645 S
O88 C99 1.242 . S
O89 Gd54 2.468 . S
O89 C107 1.263 . S
O90 Gd54 2.427 . S
O90 C107 1.252 . S
O91 Gd55 2.307 1_565 S
O91 C100 1.261 . S
O92 Gd54 2.388 1_655 S
O92 C100 1.252 . S
O93 Gd54 2.386 . S
O93 C111 1.265 . S
O94 Gd55 2.353 1_455 S
O94 C111 1.242 1_545 S
O95 Gd55 2.468 . S
O95 C119 1.263 . S
O96 Gd55 2.427 . S
O96 C119 1.252 . S
O97 Gd54 2.307 1_545 S
O97 C112 1.261 . S
O98 Gd55 2.388 1_455 S
O98 C112 1.252 . S
C99 O87 1.265 . S
C99 O88 1.242 . S
C100 O91 1.261 . S
C100 O92 1.252 . S
C101 C104 1.394 . S
C101 C106 1.370 . S
C101 C107 1.500 . S
C102 C105 1.383 . S
C102 C106 1.395 . S
C103 C104 1.396 . S
C103 C105 1.365 . S
C103 H120 0.929 . S
C104 C101 1.394 . S
C104 C103 1.396 . S
C104 H121 0.930 . S
C105 C102 1.383 . S
C105 C103 1.365 . S
C105 H122 0.931 . S
C106 C101 1.370 . S
C106 C102 1.395 . S
C106 H123 0.930 . S
C107 Gd54 2.805 . S
C107 O89 1.263 . S
C107 O90 1.252 . S
C107 C101 1.500 . S
C108 H70 0.930 . S
C108 C84 1.417 . S
C108 C109 1.329 . S
C109 C79 1.437 . S
C109 H80 0.929 . S
C109 C108 1.329 . S
H110 C83 0.931 . S
C111 O93 1.265 . S
C111 O94 1.242 1_565 S
C112 O97 1.261 . S
C112 O98 1.252 . S
C113 C116 1.394 . S
C113 C118 1.370 . S
C113 C119 1.500 . S
C114 C117 1.383 . S
C114 C118 1.395 . S
C115 C116 1.396 . S
C115 C117 1.365 . S
C115 H124 0.929 . S
C116 C113 1.394 . S
C116 C115 1.396 . S
C116 H125 0.930 . S
C117 C114 1.383 . S
C117 C115 1.365 . S
C117 H126 0.931 . S
C118 C113 1.370 . S
C118 C114 1.395 . S
C118 H127 0.930 . S
C119 Gd55 2.805 . S
C119 O95 1.263 . S
C119 O96 1.252 . S
C119 C113 1.500 . S
H120 C103 0.929 . S
H121 C104 0.930 . S
H122 C105 0.931 . S
H123 C106 0.930 . S
H124 C115 0.929 . S
H125 C116 0.930 . S
H126 C117 0.931 . S
H127 C118 0.930 . S
C128 C130 1.422 . S
C128 C132 1.415 . S
C128 N134 1.369 . S
C129 C130 1.421 . S
C129 C131 1.417 . S
C129 C141 1.422 . S
C130 C128 1.422 . S
C130 C129 1.421 . S
C130 N140 1.359 . S
C131 C129 1.417 . S
C131 C133 1.329 . S
C131 H150 0.930 . S
C132 C128 1.415 . S
C132 C133 1.437 . S
C132 C136 1.413 . S
C133 C131 1.329 . S
C133 C132 1.437 . S
C133 H155 0.929 . S
N134 C128 1.369 . S
N134 C135 1.338 . S
N134 Gd139 2.622 . S
C135 N134 1.338 . S
C135 C137 1.378 . S
C135 H147 0.929 . S
C136 C132 1.413 . S
C136 C137 1.348 . S
C136 H152 0.931 . S
C137 C135 1.378 . S
C137 C136 1.348 . S
C137 H153 0.930 . S
Gd138 N158 2.622 . S
Gd138 N165 2.570 1_556 S
Gd138 O172 2.353 . S
Gd138 O173 2.468 . S
Gd138 O174 2.427 . S
Gd138 O176 2.388 . S
Gd138 O177 2.386 1_556 S
Gd138 O181 2.307 1_556 S
Gd138 C191 2.805 . S
Gd139 N134 2.622 . S
Gd139 N140 2.570 . S
Gd139 O171 2.386 1_554 S
Gd139 O175 2.307 . S
Gd139 O178 2.353 . S
Gd139 O179 2.468 . S
Gd139 O180 2.427 . S
Gd139 O182 2.388 . S
Gd139 C203 2.805 . S
N140 C130 1.359 . S
N140 Gd139 2.570 . S
N140 C142 1.343 . S
C141 C129 1.422 . S
C141 C143 1.321 . S
C141 H149 0.931 . S
C142 N140 1.343 . S
C142 C143 1.390 . S
C142 H144 0.931 . S
C143 C141 1.321 . S
C143 C142 1.390 . S
C143 H145 0.930 . S
H144 C142 0.931 . S
H145 C143 0.930 . S
H146 C169 0.931 . S
H147 C135 0.929 . S
H148 C170 0.930 . S
H149 C141 0.931 . S
H150 C131 0.930 . S
H151 C160 0.929 . S
H152 C136 0.931 . S
H153 C137 0.930 . S
H154 C192 0.930 . S
H155 C133 0.929 . S
H156 C161 0.931 . S
H157 C162 0.930 . S
N158 Gd138 2.622 . S
N158 C159 1.369 1_556 S
N158 C160 1.338 . S
C159 N158 1.369 1_554 S
C159 C163 1.415 . S
C159 C166 1.422 . S
C160 H151 0.929 . S
C160 N158 1.338 . S
C160 C162 1.378 . S
C161 H156 0.931 . S
C161 C162 1.348 1_554 S
C161 C163 1.413 . S
C162 H157 0.930 . S
C162 C160 1.378 . S
C162 C161 1.348 1_556 S
C163 C159 1.415 . S
C163 C161 1.413 . S
C163 C193 1.437 . S
H164 C193 0.929 . S
N165 Gd138 2.570 1_554 S
N165 C166 1.359 . S
N165 C169 1.343 . S
C166 C159 1.422 . S
C166 N165 1.359 . S
C166 C168 1.421 . S
C167 C168 1.422 . S
C167 C170 1.321 . S
C167 H194 0.931 . S
C168 C166 1.421 . S
C168 C167 1.422 . S
C168 C192 1.417 . S
C169 H146 0.931 . S
C169 N165 1.343 . S
C169 C170 1.390 . S
C170 H148 0.930 . S
C170 C167 1.321 . S
C170 C169 1.390 . S
O171 Gd139 2.386 1_556 S
O171 C183 1.265 . S
O172 Gd138 2.353 . S
O172 C183 1.242 . S
O173 Gd138 2.468 . S
O173 C191 1.263 . S
O174 Gd138 2.427 . S
O174 C191 1.252 . S
O175 Gd139 2.307 . S
O175 C184 1.261 . S
O176 Gd138 2.388 . S
O176 C184 1.252 1_556 S
O177 Gd138 2.386 1_554 S
O177 C195 1.265 . S
O178 Gd139 2.353 . S
O178 C195 1.242 . S
O179 Gd139 2.468 . S
O179 C203 1.263 . S
O180 Gd139 2.427 . S
O180 C203 1.252 . S
O181 Gd138 2.307 1_554 S
O181 C196 1.261 . S
O182 Gd139 2.388 . S
O182 C196 1.252 . S
C183 O171 1.265 . S
C183 O172 1.242 . S
C184 O175 1.261 . S
C184 O176 1.252 1_554 S
C185 C188 1.394 . S
C185 C190 1.370 . S
C185 C191 1.500 . S
C186 C189 1.383 . S
C186 C190 1.395 . S
C187 C188 1.396 . S
C187 C189 1.365 . S
C187 H204 0.929 . S
C188 C185 1.394 . S
C188 C187 1.396 . S
C188 H205 0.930 . S
C189 C186 1.383 . S
C189 C187 1.365 . S
C189 H206 0.931 . S
C190 C185 1.370 . S
C190 C186 1.395 . S
C190 H207 0.930 . S
C191 Gd138 2.805 . S
C191 O173 1.263 . S
C191 O174 1.252 . S
C191 C185 1.500 . S
C192 H154 0.930 . S
C192 C168 1.417 . S
C192 C193 1.329 . S
C193 C163 1.437 . S
C193 H164 0.929 . S
C193 C192 1.329 . S
H194 C167 0.931 . S
C195 O177 1.265 . S
C195 O178 1.242 . S
C196 O181 1.261 . S
C196 O182 1.252 . S
C197 C200 1.394 . S
C197 C202 1.370 . S
C197 C203 1.500 . S
C198 C201 1.383 . S
C198 C202 1.395 . S
C199 C200 1.396 . S
C199 C201 1.365 . S
C199 H208 0.929 . S
C200 C197 1.394 . S
C200 C199 1.396 . S
C200 H209 0.930 . S
C201 C198 1.383 . S
C201 C199 1.365 . S
C201 H210 0.931 . S
C202 C197 1.370 . S
C202 C198 1.395 . S
C202 H211 0.930 . S
C203 Gd139 2.805 . S
C203 O179 1.263 . S
C203 O180 1.252 . S
C203 C197 1.500 . S
H204 C187 0.929 . S
H205 C188 0.930 . S
H206 C189 0.931 . S
H207 C190 0.930 . S
H208 C199 0.929 . S
H209 C200 0.930 . S
H210 C201 0.931 . S
H211 C202 0.930 . S
H212 C213 0.951 . S
C213 H212 0.951 . S
C213 C219 1.265 . S
H214 C219 0.950 . S
H215 C223 0.949 . S
H216 C224 0.950 . S
H217 C225 0.951 . S
H218 C226 0.951 . S
C219 C213 1.265 . S
C219 H214 0.950 . S
C219 C220 1.478 . S
C220 C219 1.478 . S
C220 C221 1.397 . S
C220 C237 1.394 . S
C221 C220 1.397 . S
C221 C222 1.438 . S
C221 C226 1.429 . S
C222 C221 1.438 . S
C222 C223 1.428 . S
C222 C235 1.394 . S
C223 H215 0.949 . S
C223 C222 1.428 . S
C223 C224 1.345 . S
C224 H216 0.950 . S
C224 C223 1.345 . S
C224 C225 1.424 . S
C225 H217 0.951 . S
C225 C224 1.424 . S
C225 C226 1.347 . S
C226 H218 0.951 . S
C226 C221 1.429 . S
C226 C225 1.347 . S
H227 C228 0.951 . S
C228 H227 0.951 . S
C228 C234 1.265 . S
H229 C234 0.950 . S
H230 C238 0.949 . S
H231 C239 0.950 . S
H232 C240 0.951 . S
H233 C241 0.951 . S
C234 C228 1.265 . S
C234 H229 0.950 . S
C234 C235 1.478 . S
C235 C222 1.394 . S
C235 C234 1.478 . S
C235 C236 1.397 . S
C236 C235 1.397 . S
C236 C237 1.438 . S
C236 C241 1.429 . S
C237 C220 1.394 . S
C237 C236 1.438 . S
C237 C238 1.428 . S
C238 H230 0.949 . S
C238 C237 1.428 . S
C238 C239 1.345 . S
C239 H231 0.950 . S
C239 C238 1.345 . S
C239 C240 1.424 . S
C240 H232 0.951 . S
C240 C239 1.424 . S
C240 C241 1.347 . S
C241 H233 0.951 . S
C241 C236 1.429 . S
C241 C240 1.347 . S
H242 C243 0.951 . S
C243 H242 0.951 . S
C243 C249 1.265 . S
H244 C249 0.950 . S
H245 C253 0.949 . S
H246 C254 0.950 . S
H247 C255 0.951 . S
H248 C256 0.951 . S
C249 C243 1.265 . S
C249 H244 0.950 . S
C249 C250 1.478 . S
C250 C249 1.478 . S
C250 C251 1.397 . S
C250 C267 1.397 . S
C251 C250 1.397 . S
C251 C252 1.438 . S
C251 C256 1.429 . S
C252 C251 1.438 . S
C252 C253 1.428 . S
C252 C265 1.394 . S
C253 H245 0.949 . S
C253 C252 1.428 . S
C253 C254 1.345 . S
C254 H246 0.950 . S
C254 C253 1.345 . S
C254 C255 1.424 . S
C255 H247 0.951 . S
C255 C254 1.424 . S
C255 C256 1.347 . S
C256 H248 0.951 . S
C256 C251 1.429 . S
C256 C255 1.347 . S
H257 C258 0.951 . S
C258 H257 0.951 . S
C258 C264 1.265 . S
H259 C264 0.950 . S
H260 C268 0.949 . S
H261 C269 0.950 . S
H262 C270 0.951 . S
H263 C271 0.951 . S
C264 C258 1.265 . S
C264 H259 0.950 . S
C264 C265 1.478 . S
C265 C252 1.394 . S
C265 C264 1.478 . S
C265 C266 1.397 1_554 S
C266 C265 1.397 1_556 S
C266 C267 1.436 1_556 S
C266 C271 1.429 . S
C267 C250 1.397 . S
C267 C266 1.436 1_554 S
C267 C268 1.426 1_554 S
C268 H260 0.949 . S
C268 C267 1.426 1_556 S
C268 C269 1.345 . S
C269 H261 0.950 . S
C269 C268 1.345 . S
C269 C270 1.424 . S
C270 H262 0.951 . S
C270 C269 1.424 . S
C270 C271 1.347 . S
C271 H263 0.951 . S
C271 C266 1.429 . S
C271 C270 1.347 . S
H272 C273 0.951 . S
C273 H272 0.951 . S
C273 C279 1.265 . S
H274 C279 0.950 . S
H275 C283 0.949 . S
H276 C284 0.950 . S
H277 C285 0.951 . S
H278 C286 0.951 . S
C279 C273 1.265 . S
C279 H274 0.950 . S
C279 C280 1.478 . S
C280 C279 1.478 . S
C280 C281 1.397 . S
C280 C297 1.394 . S
C281 C280 1.397 . S
C281 C282 1.438 . S
C281 C286 1.429 . S
C282 C281 1.438 . S
C282 C283 1.428 . S
C282 C295 1.394 . S
C283 H275 0.949 . S
C283 C282 1.428 . S
C283 C284 1.345 . S
C284 H276 0.950 . S
C284 C283 1.345 . S
C284 C285 1.424 . S
C285 H277 0.951 . S
C285 C284 1.424 . S
C285 C286 1.347 . S
C286 H278 0.951 . S
C286 C281 1.429 . S
C286 C285 1.347 . S
H287 C288 0.951 . S
C288 H287 0.951 . S
C288 C294 1.265 . S
H289 C294 0.950 . S
H290 C298 0.949 . S
H291 C299 0.950 . S
H292 C300 0.951 . S
H293 C301 0.951 . S
C294 C288 1.265 . S
C294 H289 0.950 . S
C294 C295 1.478 . S
C295 C282 1.394 . S
C295 C294 1.478 . S
C295 C296 1.397 . S
C296 C295 1.397 . S
C296 C297 1.438 . S
C296 C301 1.429 . S
C297 C280 1.394 . S
C297 C296 1.438 . S
C297 C298 1.428 . S
C298 H290 0.949 . S
C298 C297 1.428 . S
C298 C299 1.345 . S
C299 H291 0.950 . S
C299 C298 1.345 . S
C299 C300 1.424 . S
C300 H292 0.951 . S
C300 C299 1.424 . S
C300 C301 1.347 . S
C301 H293 0.951 . S
C301 C296 1.429 . S
C301 C300 1.347 . S
H302 C303 0.951 . S
C303 H302 0.951 . S
C303 C309 1.265 . S
H304 C309 0.950 . S
H305 C313 0.949 . S
H306 C314 0.950 . S
H307 C315 0.951 . S
H308 C316 0.951 . S
C309 C303 1.265 . S
C309 H304 0.950 . S
C309 C310 1.478 . S
C310 C309 1.478 . S
C310 C311 1.397 . S
C310 C327 1.394 . S
C311 C310 1.397 . S
C311 C312 1.438 . S
C311 C316 1.429 1_554 S
C312 C311 1.438 . S
C312 C313 1.428 1_554 S
C312 C325 1.394 . S
C313 H305 0.949 . S
C313 C312 1.428 1_556 S
C313 C314 1.345 . S
C314 H306 0.950 . S
C314 C313 1.345 . S
C314 C315 1.424 . S
C315 H307 0.951 . S
C315 C314 1.424 . S
C315 C316 1.347 . S
C316 H308 0.951 . S
C316 C311 1.429 1_556 S
C316 C315 1.347 . S
H317 C318 0.951 . S
C318 H317 0.951 . S
C318 C324 1.265 . S
H319 C324 0.950 . S
H320 C328 0.949 . S
H321 C329 0.950 . S
H322 C330 0.951 . S
H323 C331 0.951 . S
C324 C318 1.265 . S
C324 H319 0.950 . S
C324 C325 1.478 . S
C325 C312 1.394 . S
C325 C324 1.478 . S
C325 C326 1.397 . S
C326 C325 1.397 . S
C326 C327 1.438 . S
C326 C331 1.429 . S
C327 C310 1.394 . S
C327 C326 1.438 . S
C327 C328 1.428 . S
C328 H320 0.949 . S
C328 C327 1.428 . S
C328 C329 1.345 . S
C329 H321 0.950 . S
C329 C328 1.345 . S
C329 C330 1.424 . S
C330 H322 0.951 . S
C330 C329 1.424 . S
C330 C331 1.347 . S
C331 H323 0.951 . S
C331 C326 1.429 . S
C331 C330 1.347 . S
H332 C333 0.951 . S
C333 H332 0.951 . S
C333 C339 1.265 . S
H334 C339 0.950 . S
H335 C343 0.949 . S
H336 C344 0.950 . S
H337 C345 0.951 . S
H338 C346 0.951 . S
C339 C333 1.265 . S
C339 H334 0.950 . S
C339 C340 1.478 . S
C340 C339 1.478 . S
C340 C341 1.397 . S
C340 C357 1.394 . S
C341 C340 1.397 . S
C341 C342 1.438 . S
C341 C346 1.429 . S
C342 C341 1.438 . S
C342 C343 1.428 . S
C342 C355 1.394 . S
C343 H335 0.949 . S
C343 C342 1.428 . S
C343 C344 1.345 1_565 S
C344 H336 0.950 . S
C344 C343 1.345 1_545 S
C344 C345 1.424 . S
C345 H337 0.951 . S
C345 C344 1.424 . S
C345 C346 1.347 1_545 S
C346 H338 0.951 . S
C346 C341 1.429 . S
C346 C345 1.347 1_565 S
H347 C348 0.951 . S
C348 H347 0.951 . S
C348 C354 1.265 . S
H349 C354 0.950 . S
H350 C358 0.949 . S
H351 C359 0.950 . S
H352 C360 0.951 . S
H353 C361 0.951 . S
C354 C348 1.265 . S
C354 H349 0.950 . S
C354 C355 1.478 . S
C355 C342 1.394 . S
C355 C354 1.478 . S
C355 C356 1.397 . S
C356 C355 1.397 . S
C356 C357 1.438 . S
C356 C361 1.429 . S
C357 C340 1.394 . S
C357 C356 1.438 . S
C357 C358 1.428 . S
C358 H350 0.949 . S
C358 C357 1.428 . S
C358 C359 1.345 . S
C359 H351 0.950 . S
C359 C358 1.345 . S
C359 C360 1.424 . S
C360 H352 0.951 . S
C360 C359 1.424 . S
C360 C361 1.347 . S
C361 H353 0.951 . S
C361 C356 1.429 . S
C361 C360 1.347 . S
H362 C363 0.951 . S
C363 H362 0.951 . S
C363 C369 1.265 . S
H364 C369 0.950 . S
H365 C373 0.949 . S
H366 C374 0.950 . S
H367 C375 0.951 . S
H368 C376 0.951 . S
C369 C363 1.265 . S
C369 H364 0.950 . S
C369 C370 1.478 . S
C370 C369 1.478 . S
C370 C371 1.397 . S
C370 C387 1.394 . S
C371 C370 1.397 . S
C371 C372 1.438 . S
C371 C376 1.429 . S
C372 C371 1.438 . S
C372 C373 1.428 . S
C372 C385 1.394 . S
C373 H365 0.949 . S
C373 C372 1.428 . S
C373 C374 1.345 . S
C374 H366 0.950 . S
C374 C373 1.345 . S
C374 C375 1.424 . S
C375 H367 0.951 . S
C375 C374 1.424 . S
C375 C376 1.347 . S
C376 H368 0.951 . S
C376 C371 1.429 . S
C376 C375 1.347 . S
H377 C378 0.951 . S
C378 H377 0.951 . S
C378 C384 1.265 . S
H379 C384 0.950 . S
H380 C388 0.949 . S
H381 C389 0.950 . S
H382 C390 0.951 . S
H383 C391 0.951 . S
C384 C378 1.265 . S
C384 H379 0.950 . S
C384 C385 1.478 . S
C385 C372 1.394 . S
C385 C384 1.478 . S
C385 C386 1.397 . S
C386 C385 1.397 . S
C386 C387 1.438 . S
C386 C391 1.429 . S
C387 C370 1.394 . S
C387 C386 1.438 . S
C387 C388 1.428 . S
C388 H380 0.949 . S
C388 C387 1.428 . S
C388 C389 1.345 . S
C389 H381 0.950 . S
C389 C388 1.345 . S
C389 C390 1.424 . S
C390 H382 0.951 . S
C390 C389 1.424 . S
C390 C391 1.347 . S
C391 H383 0.951 . S
C391 C386 1.429 . S
C391 C390 1.347 . S
H392 C393 0.951 . S
C393 H392 0.951 . S
C393 C399 1.265 . S
H394 C399 0.950 . S
H395 C403 0.949 1_565 S
H396 C404 0.950 . S
H397 C405 0.951 . S
H398 C406 0.951 . S
C399 C393 1.265 . S
C399 H394 0.950 . S
C399 C400 1.478 . S
C400 C399 1.478 . S
C400 C401 1.397 . S
C400 C417 1.394 . S
C401 C400 1.397 . S
C401 C402 1.438 . S
C401 C406 1.429 . S
C402 C401 1.438 . S
C402 C403 1.428 . S
C402 C415 1.394 . S
C403 H395 0.949 1_545 S
C403 C402 1.428 . S
C403 C404 1.345 1_545 S
C404 H396 0.950 . S
C404 C403 1.345 1_565 S
C404 C405 1.424 . S
C405 H397 0.951 . S
C405 C404 1.424 . S
C405 C406 1.347 1_565 S
C406 H398 0.951 . S
C406 C401 1.429 . S
C406 C405 1.347 1_545 S
H407 C408 0.951 . S
C408 H407 0.951 . S
C408 C414 1.265 . S
H409 C414 0.950 . S
H410 C418 0.949 . S
H411 C419 0.950 . S
H412 C420 0.951 . S
H413 C421 0.951 . S
C414 C408 1.265 . S
C414 H409 0.950 . S
C414 C415 1.478 . S
C415 C402 1.394 . S
C415 C414 1.478 . S
C415 C416 1.397 . S
C416 C415 1.397 . S
C416 C417 1.438 . S
C416 C421 1.429 . S
C417 C400 1.394 . S
C417 C416 1.438 . S
C417 C418 1.428 . S
C418 H410 0.949 . S
C418 C417 1.428 . S
C418 C419 1.345 . S
C419 H411 0.950 . S
C419 C418 1.345 . S
C419 C420 1.424 . S
C420 H412 0.951 . S
C420 C419 1.424 . S
C420 C421 1.347 . S
C421 H413 0.951 . S
C421 C416 1.429 . S
C421 C420 1.347 . S
H422 C423 0.951 . S
C423 H422 0.951 . S
C423 C429 1.265 . S
H424 C429 0.950 . S
H425 C433 0.949 . S
H426 C434 0.950 . S
H427 C435 0.951 . S
H428 C436 0.951 . S
C429 C423 1.265 . S
C429 H424 0.950 . S
C429 C430 1.478 . S
C430 C429 1.478 . S
C430 C431 1.397 . S
C430 C447 1.394 . S
C431 C430 1.397 . S
C431 C432 1.438 . S
C431 C436 1.429 . S
C432 C431 1.438 . S
C432 C433 1.428 . S
C432 C445 1.394 . S
C433 H425 0.949 . S
C433 C432 1.428 . S
C433 C434 1.345 . S
C434 H426 0.950 . S
C434 C433 1.345 . S
C434 C435 1.424 . S
C435 H427 0.951 . S
C435 C434 1.424 . S
C435 C436 1.347 . S
C436 H428 0.951 . S
C436 C431 1.429 . S
C436 C435 1.347 . S
H437 C438 0.951 . S
C438 H437 0.951 . S
C438 C444 1.265 . S
H439 C444 0.950 . S
H440 C448 0.949 . S
H441 C449 0.950 . S
H442 C450 0.951 . S
H443 C451 0.951 . S
C444 C438 1.265 . S
C444 H439 0.950 . S
C444 C445 1.478 . S
C445 C432 1.394 . S
C445 C444 1.478 . S
C445 C446 1.397 . S
C446 C445 1.397 . S
C446 C447 1.438 . S
C446 C451 1.429 . S
C447 C430 1.394 . S
C447 C446 1.438 . S
C447 C448 1.428 . S
C448 H440 0.949 . S
C448 C447 1.428 . S
C448 C449 1.345 . S
C449 H441 0.950 . S
C449 C448 1.345 . S
C449 C450 1.424 . S
C450 H442 0.951 . S
C450 C449 1.424 . S
C450 C451 1.347 . S
C451 H443 0.951 . S
C451 C446 1.429 . S
C451 C450 1.347 . S
H452 C453 0.951 . S
C453 H452 0.951 . S
C453 C459 1.265 . S
H454 C459 0.950 . S
H455 C463 0.949 . S
H456 C464 0.950 . S
H457 C465 0.951 . S
H458 C466 0.951 . S
C459 C453 1.265 . S
C459 H454 0.950 . S
C459 C460 1.478 . S
C460 C459 1.478 . S
C460 C461 1.397 . S
C460 C477 1.394 . S
C461 C460 1.397 . S
C461 C462 1.438 . S
C461 C466 1.429 . S
C462 C461 1.438 . S
C462 C463 1.428 . S
C462 C475 1.394 . S
C463 H455 0.949 . S
C463 C462 1.428 . S
C463 C464 1.345 . S
C464 H456 0.950 . S
C464 C463 1.345 . S
C464 C465 1.424 . S
C465 H457 0.951 . S
C465 C464 1.424 . S
C465 C466 1.347 . S
C466 H458 0.951 . S
C466 C461 1.429 . S
C466 C465 1.347 . S
H467 C468 0.951 . S
C468 H467 0.951 . S
C468 C474 1.265 . S
H469 C474 0.950 . S
H470 C478 0.949 . S
H471 C479 0.950 . S
H472 C480 0.951 . S
H473 C481 0.951 . S
C474 C468 1.265 . S
C474 H469 0.950 . S
C474 C475 1.478 . S
C475 C462 1.394 . S
C475 C474 1.478 . S
C475 C476 1.397 . S
C476 C475 1.397 . S
C476 C477 1.438 . S
C476 C481 1.429 . S
C477 C460 1.394 . S
C477 C476 1.438 . S
C477 C478 1.428 . S
C478 H470 0.949 . S
C478 C477 1.428 . S
C478 C479 1.345 . S
C479 H471 0.950 . S
C479 C478 1.345 . S
C479 C480 1.424 . S
C480 H472 0.951 . S
C480 C479 1.424 . S
C480 C481 1.347 . S
C481 H473 0.951 . S
C481 C476 1.429 . S
C481 C480 1.347 . S
H482 C483 0.951 . S
C483 H482 0.951 . S
C483 C489 1.265 . S
H484 C489 0.950 . S
H485 C493 0.949 . S
H486 C494 0.950 . S
H487 C495 0.951 1_564 S
H488 C496 0.934 1_554 S
C489 C483 1.265 . S
C489 H484 0.950 . S
C489 C490 1.478 . S
C490 C489 1.478 . S
C490 C491 1.397 . S
C490 C507 1.394 . S
C491 C490 1.397 . S
C491 C492 1.438 . S
C491 C496 1.429 . S
C492 C491 1.438 . S
C492 C493 1.428 . S
C492 C505 1.394 . S
C493 H485 0.949 . S
C493 C492 1.428 . S
C493 C494 1.345 1_545 S
C494 H486 0.950 . S
C494 C493 1.345 1_565 S
C494 C495 1.424 1_565 S
C495 H487 0.951 1_546 S
C495 C494 1.424 1_545 S
C495 C496 1.347 . S
C496 H488 0.934 1_556 S
C496 C491 1.429 . S
C496 C495 1.347 . S
H497 C498 0.951 . S
C498 H497 0.951 . S
C498 C504 1.265 . S
H499 C504 0.950 . S
H500 C508 0.949 . S
H501 C509 0.950 . S
H502 C510 0.951 . S
H503 C511 0.951 . S
C504 C498 1.265 . S
C504 H499 0.950 . S
C504 C505 1.478 . S
C505 C492 1.394 . S
C505 C504 1.478 . S
C505 C506 1.397 . S
C506 C505 1.397 . S
C506 C507 1.438 . S
C506 C511 1.429 . S
C507 C490 1.394 . S
C507 C506 1.438 . S
C507 C508 1.428 . S
C508 H500 0.949 . S
C508 C507 1.428 . S
C508 C509 1.345 . S
C509 H501 0.950 . S
C509 C508 1.345 . S
C509 C510 1.424 . S
C510 H502 0.951 . S
C510 C509 1.424 . S
C510 C511 1.347 . S
C511 H503 0.951 . S
C511 C506 1.429 . S
C511 C510 1.347 . S
H512 C513 0.951 . S
C513 H512 0.951 . S
C513 C519 1.265 . S
H514 C519 0.950 . S
H515 C523 0.949 . S
H516 C524 0.950 . S
H517 C525 0.951 . S
H518 C526 0.951 . S
C519 C513 1.265 . S
C519 H514 0.950 . S
C519 C520 1.478 . S
C520 C519 1.478 . S
C520 C521 1.397 . S
C520 C537 1.394 . S
C521 C520 1.397 . S
C521 C522 1.438 . S
C521 C526 1.429 . S
C522 C521 1.438 . S
C522 C523 1.428 . S
C522 C535 1.394 . S
C523 H515 0.949 . S
C523 C522 1.428 . S
C523 C524 1.345 . S
C524 H516 0.950 . S
C524 C523 1.345 . S
C524 C525 1.424 . S
C525 H517 0.951 . S
C525 C524 1.424 . S
C525 C526 1.347 . S
C526 H518 0.951 . S
C526 C521 1.429 . S
C526 C525 1.347 . S
H527 C528 0.951 . S
C528 H527 0.951 . S
C528 C534 1.265 . S
H529 C534 0.950 . S
H530 C538 0.949 . S
H531 C539 0.950 . S
H532 C540 0.951 . S
H533 C541 0.951 . S
C534 C528 1.265 . S
C534 H529 0.950 . S
C534 C535 1.478 . S
C535 C522 1.394 . S
C535 C534 1.478 . S
C535 C536 1.397 . S
C536 C535 1.397 . S
C536 C537 1.438 . S
C536 C541 1.429 . S
C537 C520 1.394 . S
C537 C536 1.438 . S
C537 C538 1.428 . S
C538 H530 0.949 . S
C538 C537 1.428 . S
C538 C539 1.345 . S
C539 H531 0.950 . S
C539 C538 1.345 . S
C539 C540 1.424 . S
C540 H532 0.951 . S
C540 C539 1.424 . S
C540 C541 1.347 . S
C541 H533 0.951 . S
C541 C536 1.429 . S
C541 C540 1.347 . S
H542 C543 0.951 . S
C543 H542 0.951 . S
C543 C549 1.265 . S
H544 C549 0.950 . S
H545 C553 0.949 . S
H546 C554 0.950 . S
H547 C555 0.951 . S
H548 C556 0.951 . S
C549 C543 1.265 . S
C549 H544 0.950 . S
C549 C550 1.478 . S
C550 C549 1.478 . S
C550 C551 1.397 . S
C550 C567 1.394 . S
C551 C550 1.397 . S
C551 C552 1.438 . S
C551 C556 1.429 . S
C552 C551 1.438 . S
C552 C553 1.428 . S
C552 C565 1.394 . S
C553 H545 0.949 . S
C553 C552 1.428 . S
C553 C554 1.345 . S
C554 H546 0.950 . S
C554 C553 1.345 . S
C554 C555 1.424 . S
C555 H547 0.951 . S
C555 C554 1.424 . S
C555 C556 1.347 . S
C556 H548 0.951 . S
C556 C551 1.429 . S
C556 C555 1.347 . S
H557 C558 0.951 . S
C558 H557 0.951 . S
C558 C564 1.265 . S
H559 C564 0.950 . S
H560 C568 0.949 . S
H561 C569 0.950 . S
H562 C570 0.951 . S
H563 C571 0.951 1_545 S
C564 C558 1.265 . S
C564 H559 0.950 . S
C564 C565 1.478 . S
C565 C552 1.394 . S
C565 C564 1.478 . S
C565 C566 1.397 . S
C566 C565 1.397 . S
C566 C567 1.438 . S
C566 C571 1.429 . S
C567 C550 1.394 . S
C567 C566 1.438 . S
C567 C568 1.428 . S
C568 H560 0.949 . S
C568 C567 1.428 . S
C568 C569 1.344 1_565 S
C569 H561 0.950 . S
C569 C568 1.344 1_545 S
C569 C570 1.424 . S
C570 H562 0.951 . S
C570 C569 1.424 . S
C570 C571 1.347 1_545 S
C571 H563 0.951 1_565 S
C571 C566 1.429 . S
C571 C570 1.347 1_565 S
C228 C112 1.624 . S
C213 C41 1.644 . S
C243 C8 1.634 . S
C258 C184 1.630 . S
C273 C19 1.694 . S
C288 C100 1.741 . S
C303 C30 1.633 . S
C318 C196 1.601 . S
C348 C102 1.531 . S
C333 C5 1.537 . S
C378 C183 1.801 . S
C363 C18 1.697 . S
C393 C29 1.603 . S
C408 C99 1.698 . S
C423 C40 1.546 . S
C438 C186 1.571 . S
C468 C198 1.423 . S
C453 C16 1.284 . S
C498 C114 1.291 . S
C483 C27 1.368 1_556 S
C528 C195 1.540 . S
C513 C38 1.228 . S
C543 C7 1.501 . S
C558 C111 1.500 . S
