# Generated by pormake.
# Topology gar, (4,6)-cn, num edge types: 1
# Building blocks:
#     Node 0, Type 0, BuildingBlock: CEKHIL_clean_sbu_0, # of connection points: 4
#     Node 1, Type 0, BuildingBlock: CEKHIL_clean_sbu_0, # of connection points: 4
#     Node 2, Type 0, BuildingBlock: CEKHIL_clean_sbu_0, # of connection points: 4
#     Node 3, Type 0, BuildingBlock: CEKHIL_clean_sbu_0, # of connection points: 4
#     Node 4, Type 0, BuildingBlock: CEKHIL_clean_sbu_0, # of connection points: 4
#     Node 5, Type 0, BuildingBlock: CEKHIL_clean_sbu_0, # of connection points: 4
#     Node 6, Type 0, BuildingBlock: CEKHIL_clean_sbu_0, # of connection points: 4
#     Node 7, Type 0, BuildingBlock: CEKHIL_clean_sbu_0, # of connection points: 4
#     Node 8, Type 0, BuildingBlock: CEKHIL_clean_sbu_0, # of connection points: 4
#     Node 9, Type 0, BuildingBlock: CEKHIL_clean_sbu_0, # of connection points: 4
#     Node 10, Type 0, BuildingBlock: CEKHIL_clean_sbu_0, # of connection points: 4
#     Node 11, Type 0, BuildingBlock: CEKHIL_clean_sbu_0, # of connection points: 4
#     Node 12, Type 0, BuildingBlock: CEKHIL_clean_sbu_0, # of connection points: 4
#     Node 13, Type 0, BuildingBlock: CEKHIL_clean_sbu_0, # of connection points: 4
#     Node 14, Type 0, BuildingBlock: CEKHIL_clean_sbu_0, # of connection points: 4
#     Node 15, Type 0, BuildingBlock: CEKHIL_clean_sbu_0, # of connection points: 4
#     Node 16, Type 0, BuildingBlock: CEKHIL_clean_sbu_0, # of connection points: 4
#     Node 17, Type 0, BuildingBlock: CEKHIL_clean_sbu_0, # of connection points: 4
#     Node 18, Type 0, BuildingBlock: CEKHIL_clean_sbu_0, # of connection points: 4
#     Node 19, Type 0, BuildingBlock: CEKHIL_clean_sbu_0, # of connection points: 4
#     Node 20, Type 0, BuildingBlock: CEKHIL_clean_sbu_0, # of connection points: 4
#     Node 21, Type 0, BuildingBlock: CEKHIL_clean_sbu_0, # of connection points: 4
#     Node 22, Type 0, BuildingBlock: CEKHIL_clean_sbu_0, # of connection points: 4
#     Node 23, Type 0, BuildingBlock: CEKHIL_clean_sbu_0, # of connection points: 4
#     Node 24, Type 1, BuildingBlock: PAMTOO_clean_sbu_0, # of connection points: 6
#     Node 25, Type 1, BuildingBlock: PAMTOO_clean_sbu_0, # of connection points: 6
#     Node 26, Type 1, BuildingBlock: PAMTOO_clean_sbu_0, # of connection points: 6
#     Node 27, Type 1, BuildingBlock: PAMTOO_clean_sbu_0, # of connection points: 6
#     Node 28, Type 1, BuildingBlock: PAMTOO_clean_sbu_0, # of connection points: 6
#     Node 29, Type 1, BuildingBlock: PAMTOO_clean_sbu_0, # of connection points: 6
#     Node 30, Type 1, BuildingBlock: PAMTOO_clean_sbu_0, # of connection points: 6
#     Node 31, Type 1, BuildingBlock: PAMTOO_clean_sbu_0, # of connection points: 6
#     Node 32, Type 1, BuildingBlock: PAMTOO_clean_sbu_0, # of connection points: 6
#     Node 33, Type 1, BuildingBlock: PAMTOO_clean_sbu_0, # of connection points: 6
#     Node 34, Type 1, BuildingBlock: PAMTOO_clean_sbu_0, # of connection points: 6
#     Node 35, Type 1, BuildingBlock: PAMTOO_clean_sbu_0, # of connection points: 6
#     Node 36, Type 1, BuildingBlock: PAMTOO_clean_sbu_0, # of connection points: 6
#     Node 37, Type 1, BuildingBlock: PAMTOO_clean_sbu_0, # of connection points: 6
#     Node 38, Type 1, BuildingBlock: PAMTOO_clean_sbu_0, # of connection points: 6
#     Node 39, Type 1, BuildingBlock: PAMTOO_clean_sbu_0, # of connection points: 6
#     Edge 40, Type (0, 1), BuildingBlock: OJICUG_clean_linker_0, # of connection points: 2
#     Edge 41, Type (0, 1), BuildingBlock: OJICUG_clean_linker_0, # of connection points: 2
#     Edge 42, Type (0, 1), BuildingBlock: OJICUG_clean_linker_0, # of connection points: 2
#     Edge 43, Type (0, 1), BuildingBlock: OJICUG_clean_linker_0, # of connection points: 2
#     Edge 44, Type (0, 1), BuildingBlock: OJICUG_clean_linker_0, # of connection points: 2
#     Edge 45, Type (0, 1), BuildingBlock: OJICUG_clean_linker_0, # of connection points: 2
#     Edge 46, Type (0, 1), BuildingBlock: OJICUG_clean_linker_0, # of connection points: 2
#     Edge 47, Type (0, 1), BuildingBlock: OJICUG_clean_linker_0, # of connection points: 2
#     Edge 48, Type (0, 1), BuildingBlock: OJICUG_clean_linker_0, # of connection points: 2
#     Edge 49, Type (0, 1), BuildingBlock: OJICUG_clean_linker_0, # of connection points: 2
#     Edge 50, Type (0, 1), BuildingBlock: OJICUG_clean_linker_0, # of connection points: 2
#     Edge 51, Type (0, 1), BuildingBlock: OJICUG_clean_linker_0, # of connection points: 2
#     Edge 52, Type (0, 1), BuildingBlock: OJICUG_clean_linker_0, # of connection points: 2
#     Edge 53, Type (0, 1), BuildingBlock: OJICUG_clean_linker_0, # of connection points: 2
#     Edge 54, Type (0, 1), BuildingBlock: OJICUG_clean_linker_0, # of connection points: 2
#     Edge 55, Type (0, 1), BuildingBlock: OJICUG_clean_linker_0, # of connection points: 2
#     Edge 56, Type (0, 1), BuildingBlock: OJICUG_clean_linker_0, # of connection points: 2
#     Edge 57, Type (0, 1), BuildingBlock: OJICUG_clean_linker_0, # of connection points: 2
#     Edge 58, Type (0, 1), BuildingBlock: OJICUG_clean_linker_0, # of connection points: 2
#     Edge 59, Type (0, 1), BuildingBlock: OJICUG_clean_linker_0, # of connection points: 2
#     Edge 60, Type (0, 1), BuildingBlock: OJICUG_clean_linker_0, # of connection points: 2
#     Edge 61, Type (0, 1), BuildingBlock: OJICUG_clean_linker_0, # of connection points: 2
#     Edge 62, Type (0, 1), BuildingBlock: OJICUG_clean_linker_0, # of connection points: 2
#     Edge 63, Type (0, 1), BuildingBlock: OJICUG_clean_linker_0, # of connection points: 2
#     Edge 64, Type (0, 1), BuildingBlock: OJICUG_clean_linker_0, # of connection points: 2
#     Edge 65, Type (0, 1), BuildingBlock: OJICUG_clean_linker_0, # of connection points: 2
#     Edge 66, Type (0, 1), BuildingBlock: OJICUG_clean_linker_0, # of connection points: 2
#     Edge 67, Type (0, 1), BuildingBlock: OJICUG_clean_linker_0, # of connection points: 2
#     Edge 68, Type (0, 1), BuildingBlock: OJICUG_clean_linker_0, # of connection points: 2
#     Edge 69, Type (0, 1), BuildingBlock: OJICUG_clean_linker_0, # of connection points: 2
#     Edge 70, Type (0, 1), BuildingBlock: OJICUG_clean_linker_0, # of connection points: 2
#     Edge 71, Type (0, 1), BuildingBlock: OJICUG_clean_linker_0, # of connection points: 2
#     Edge 72, Type (0, 1), BuildingBlock: OJICUG_clean_linker_0, # of connection points: 2
#     Edge 73, Type (0, 1), BuildingBlock: OJICUG_clean_linker_0, # of connection points: 2
#     Edge 74, Type (0, 1), BuildingBlock: OJICUG_clean_linker_0, # of connection points: 2
#     Edge 75, Type (0, 1), BuildingBlock: OJICUG_clean_linker_0, # of connection points: 2
#     Edge 76, Type (0, 1), BuildingBlock: OJICUG_clean_linker_0, # of connection points: 2
#     Edge 77, Type (0, 1), BuildingBlock: OJICUG_clean_linker_0, # of connection points: 2
#     Edge 78, Type (0, 1), BuildingBlock: OJICUG_clean_linker_0, # of connection points: 2
#     Edge 79, Type (0, 1), BuildingBlock: OJICUG_clean_linker_0, # of connection points: 2
#     Edge 80, Type (0, 1), BuildingBlock: OJICUG_clean_linker_0, # of connection points: 2
#     Edge 81, Type (0, 1), BuildingBlock: OJICUG_clean_linker_0, # of connection points: 2
#     Edge 82, Type (0, 1), BuildingBlock: OJICUG_clean_linker_0, # of connection points: 2
#     Edge 83, Type (0, 1), BuildingBlock: OJICUG_clean_linker_0, # of connection points: 2
#     Edge 84, Type (0, 1), BuildingBlock: OJICUG_clean_linker_0, # of connection points: 2
#     Edge 85, Type (0, 1), BuildingBlock: OJICUG_clean_linker_0, # of connection points: 2
#     Edge 86, Type (0, 1), BuildingBlock: OJICUG_clean_linker_0, # of connection points: 2
#     Edge 87, Type (0, 1), BuildingBlock: OJICUG_clean_linker_0, # of connection points: 2
#     Edge 88, Type (0, 1), BuildingBlock: OJICUG_clean_linker_0, # of connection points: 2
#     Edge 89, Type (0, 1), BuildingBlock: OJICUG_clean_linker_0, # of connection points: 2
#     Edge 90, Type (0, 1), BuildingBlock: OJICUG_clean_linker_0, # of connection points: 2
#     Edge 91, Type (0, 1), BuildingBlock: OJICUG_clean_linker_0, # of connection points: 2
#     Edge 92, Type (0, 1), BuildingBlock: OJICUG_clean_linker_0, # of connection points: 2
#     Edge 93, Type (0, 1), BuildingBlock: OJICUG_clean_linker_0, # of connection points: 2
#     Edge 94, Type (0, 1), BuildingBlock: OJICUG_clean_linker_0, # of connection points: 2
#     Edge 95, Type (0, 1), BuildingBlock: OJICUG_clean_linker_0, # of connection points: 2
#     Edge 96, Type (0, 1), BuildingBlock: OJICUG_clean_linker_0, # of connection points: 2
#     Edge 97, Type (0, 1), BuildingBlock: OJICUG_clean_linker_0, # of connection points: 2
#     Edge 98, Type (0, 1), BuildingBlock: OJICUG_clean_linker_0, # of connection points: 2
#     Edge 99, Type (0, 1), BuildingBlock: OJICUG_clean_linker_0, # of connection points: 2
#     Edge 100, Type (0, 1), BuildingBlock: OJICUG_clean_linker_0, # of connection points: 2
#     Edge 101, Type (0, 1), BuildingBlock: OJICUG_clean_linker_0, # of connection points: 2
#     Edge 102, Type (0, 1), BuildingBlock: OJICUG_clean_linker_0, # of connection points: 2
#     Edge 103, Type (0, 1), BuildingBlock: OJICUG_clean_linker_0, # of connection points: 2
#     Edge 104, Type (0, 1), BuildingBlock: OJICUG_clean_linker_0, # of connection points: 2
#     Edge 105, Type (0, 1), BuildingBlock: OJICUG_clean_linker_0, # of connection points: 2
#     Edge 106, Type (0, 1), BuildingBlock: OJICUG_clean_linker_0, # of connection points: 2
#     Edge 107, Type (0, 1), BuildingBlock: OJICUG_clean_linker_0, # of connection points: 2
#     Edge 108, Type (0, 1), BuildingBlock: OJICUG_clean_linker_0, # of connection points: 2
#     Edge 109, Type (0, 1), BuildingBlock: OJICUG_clean_linker_0, # of connection points: 2
#     Edge 110, Type (0, 1), BuildingBlock: OJICUG_clean_linker_0, # of connection points: 2
#     Edge 111, Type (0, 1), BuildingBlock: OJICUG_clean_linker_0, # of connection points: 2
#     Edge 112, Type (0, 1), BuildingBlock: OJICUG_clean_linker_0, # of connection points: 2
#     Edge 113, Type (0, 1), BuildingBlock: OJICUG_clean_linker_0, # of connection points: 2
#     Edge 114, Type (0, 1), BuildingBlock: OJICUG_clean_linker_0, # of connection points: 2
#     Edge 115, Type (0, 1), BuildingBlock: OJICUG_clean_linker_0, # of connection points: 2
#     Edge 116, Type (0, 1), BuildingBlock: OJICUG_clean_linker_0, # of connection points: 2
#     Edge 117, Type (0, 1), BuildingBlock: OJICUG_clean_linker_0, # of connection points: 2
#     Edge 118, Type (0, 1), BuildingBlock: OJICUG_clean_linker_0, # of connection points: 2
#     Edge 119, Type (0, 1), BuildingBlock: OJICUG_clean_linker_0, # of connection points: 2
#     Edge 120, Type (0, 1), BuildingBlock: OJICUG_clean_linker_0, # of connection points: 2
#     Edge 121, Type (0, 1), BuildingBlock: OJICUG_clean_linker_0, # of connection points: 2
#     Edge 122, Type (0, 1), BuildingBlock: OJICUG_clean_linker_0, # of connection points: 2
#     Edge 123, Type (0, 1), BuildingBlock: OJICUG_clean_linker_0, # of connection points: 2
#     Edge 124, Type (0, 1), BuildingBlock: OJICUG_clean_linker_0, # of connection points: 2
#     Edge 125, Type (0, 1), BuildingBlock: OJICUG_clean_linker_0, # of connection points: 2
#     Edge 126, Type (0, 1), BuildingBlock: OJICUG_clean_linker_0, # of connection points: 2
#     Edge 127, Type (0, 1), BuildingBlock: OJICUG_clean_linker_0, # of connection points: 2
#     Edge 128, Type (0, 1), BuildingBlock: OJICUG_clean_linker_0, # of connection points: 2
#     Edge 129, Type (0, 1), BuildingBlock: OJICUG_clean_linker_0, # of connection points: 2
#     Edge 130, Type (0, 1), BuildingBlock: OJICUG_clean_linker_0, # of connection points: 2
#     Edge 131, Type (0, 1), BuildingBlock: OJICUG_clean_linker_0, # of connection points: 2
#     Edge 132, Type (0, 1), BuildingBlock: OJICUG_clean_linker_0, # of connection points: 2
#     Edge 133, Type (0, 1), BuildingBlock: OJICUG_clean_linker_0, # of connection points: 2
#     Edge 134, Type (0, 1), BuildingBlock: OJICUG_clean_linker_0, # of connection points: 2
#     Edge 135, Type (0, 1), BuildingBlock: OJICUG_clean_linker_0, # of connection points: 2
# Relax obj value: 0.185
# Max RMSD: 0.281
# Mean RMSD: 0.167
data_MOF--net-gar--node1-CEKHIL_clean_sbu_0--node2-PAMTOO_clean_sbu_0--edge1-OJICUG_clean_linker_0
_symmetry_space_group_name_H-M    P1
_symmetry_Int_Tables_number       1
_symmetry_cell_setting            triclinic
loop_
_symmetry_equiv_pos_as_xyz
'x, y, z'
_cell_length_a     44.283571
_cell_length_b     43.912411
_cell_length_c     41.404784
_cell_angle_alpha  97.473543
_cell_angle_beta   97.296017
_cell_angle_gamma 103.70241
loop_
_atom_site_label
_atom_site_type_symbol
_atom_site_fract_x
_atom_site_fract_y
_atom_site_fract_z
_atom_type_partial_charge
Co0 Co 0.10006 0.37322 0.37612 0.0
O1 O 0.14619 0.37702 0.38443 0.0
O2 O 0.11747 0.356 0.33688 0.0
C3 C 0.10284 0.42388 0.40365 0.0
O4 O 0.05095 0.36582 0.35846 0.0
Co5 Co 0.0626 0.38066 0.43535 0.0
O6 O 1.02733 0.38103 0.40099 0.0
C7 C 0.08257 0.32167 0.41807 0.0
C8 C 0.14552 0.36326 0.35464 0.0
C9 C 1.02623 0.37122 0.37041 0.0
O10 O 0.09142 0.32998 0.39118 0.0
O11 O 0.07337 0.3396 0.43949 0.0
O12 O 0.10777 0.41996 0.37318 0.0
O13 O 0.09861 0.39826 0.41599 0.0
Co14 Co 0.05091 0.78557 0.72376 0.0
O15 O 1.0049 0.78356 0.71454 0.0
O16 O 1.02735 0.77727 0.76174 0.0
C17 C 0.06693 0.83193 0.70346 0.0
O18 O 0.09902 0.78847 0.7434 0.0
Co19 Co 0.09279 0.78683 0.66783 0.0
O20 O 0.12917 0.79954 0.70401 0.0
C21 C 0.04814 0.72654 0.67264 0.0
C22 C 1.00159 0.77996 0.74453 0.0
C23 C 0.12665 0.79595 0.73364 0.0
O24 O 0.04292 0.73802 0.70168 0.0
O25 O 0.06414 0.74351 0.65479 0.0
O26 O 0.06028 0.83278 0.73316 0.0
O27 O 0.06177 0.8039 0.68696 0.0
Co28 Co 0.60597 0.87633 0.8812 0.0
O29 O 0.65247 0.88097 0.88968 0.0
O30 O 0.62419 0.86011 0.842 0.0
C31 C 0.60724 0.92637 0.91008 0.0
O32 O 0.55656 0.86786 0.86303 0.0
Co33 Co 0.56813 0.88097 0.94056 0.0
O34 O 0.53121 0.87649 0.90622 0.0
C35 C 0.5936 0.82569 0.9244 0.0
C36 C 0.65218 0.86737 0.8599 0.0
C37 C 0.5308 0.86937 0.87529 0.0
O38 O 0.59841 0.83287 0.89581 0.0
O39 O 0.58576 0.84395 0.94666 0.0
O40 O 0.61262 0.92352 0.8797 0.0
O41 O 0.60359 0.90029 0.92139 0.0
Co42 Co 0.54623 0.28488 0.22286 0.0
O43 O 0.50053 0.2842 0.21519 0.0
O44 O 0.52397 0.27811 0.26201 0.0
C45 C 0.56183 0.33051 0.20117 0.0
O46 O 0.59464 0.28724 0.24086 0.0
Co47 Co 0.58484 0.28388 0.16434 0.0
O48 O 0.62211 0.29828 0.19951 0.0
C49 C 0.54033 0.2244 0.17204 0.0
C50 C 0.4981 0.28128 0.24547 0.0
C51 C 0.62147 0.29526 0.22963 0.0
O52 O 0.53649 0.23683 0.20137 0.0
O53 O 0.5558 0.24057 0.15319 0.0
O54 O 0.55693 0.33218 0.23154 0.0
O55 O 0.55548 0.30217 0.18514 0.0
Co56 Co 0.12342 0.85761 0.15514 0.0
O57 O 0.07708 0.84861 0.14894 0.0
O58 O 0.10762 0.84528 0.19376 0.0
C59 C 0.12939 0.90687 0.13379 0.0
O60 O 0.16924 0.86503 0.17929 0.0
Co61 Co 0.16507 0.85872 0.11225 0.0
O62 O 0.20413 0.86678 0.14597 0.0
C63 C 0.13051 0.79444 0.11505 0.0
C64 C 0.07943 0.8421 0.17884 0.0
C65 C 0.19792 0.86739 0.17503 0.0
O66 O 0.11934 0.80931 0.13798 0.0
O67 O 0.14958 0.8107 0.09921 0.0
O68 O 0.12679 0.90401 0.16416 0.0
O69 O 0.1298 0.88005 0.11584 0.0
Co70 Co 0.55552 0.82381 0.4906 0.0
O71 O 0.60141 0.83668 0.49608 0.0
O72 O 0.57 0.81037 0.45041 0.0
C73 C 0.55111 0.87489 0.51229 0.0
O74 O 0.50848 0.80953 0.47004 0.0
Co75 Co 0.51842 0.81745 0.54033 0.0
O76 O 0.48148 0.82122 0.50908 0.0
C77 C 0.54994 0.76661 0.53095 0.0
C78 C 0.59838 0.82462 0.4651 0.0
C79 C 0.48299 0.81466 0.47864 0.0
O80 O 0.55726 0.7799 0.5057 0.0
O81 O 0.535 0.77959 0.55085 0.0
O82 O 0.55429 0.8663 0.48217 0.0
O83 O 0.55188 0.85278 0.5307 0.0
Co84 Co 0.62278 0.35825 0.65426 0.0
O85 O 0.57659 0.35012 0.6488 0.0
O86 O 0.60738 0.34675 0.69347 0.0
C87 C 0.63003 0.40717 0.63256 0.0
O88 O 0.66893 0.36522 0.67669 0.0
Co89 Co 0.66312 0.35774 0.60877 0.0
O90 O 0.7024 0.36512 0.64176 0.0
C91 C 0.62868 0.29419 0.6148 0.0
C92 C 0.57912 0.34395 0.67883 0.0
C93 C 0.69714 0.36669 0.67122 0.0
O94 O 0.6179 0.30972 0.63759 0.0
O95 O 0.64733 0.30968 0.59803 0.0
O96 O 0.62732 0.40485 0.663 0.0
O97 O 0.62891 0.37985 0.61466 0.0
Co98 Co 0.04852 0.32191 0.98966 0.0
O99 O 0.09431 0.33478 0.99367 0.0
O100 O 0.0619 0.30724 0.94915 0.0
C101 C 0.04532 0.37379 1.01012 0.0
O102 O 1.00081 0.30737 0.97042 0.0
Co103 Co 1.0128 0.31636 0.03876 0.0
O104 O 0.97714 0.32487 1.00976 0.0
C105 C 1.0408 0.26325 0.0289 0.0
C106 C 0.09052 0.32182 0.96288 0.0
C107 C 0.97695 0.31627 0.97932 0.0
O108 O 0.05156 0.2787 1.00621 0.0
O109 O 1.02323 0.27473 0.0466 0.0
O110 O 0.04695 0.36384 0.97986 0.0
O111 O 0.04616 0.35238 0.02948 0.0
Co112 Co 0.43585 0.05938 0.34578 0.0
O113 O 0.44254 0.09193 0.31811 0.0
O114 O 0.39617 0.06254 0.32452 0.0
C115 C 0.47129 0.08687 0.38995 0.0
O116 O 0.41737 0.02557 0.37158 0.0
Co117 Co 0.4848 0.02683 0.37593 0.0
O118 O 0.45332 1.01009 0.40368 0.0
C119 C 0.45788 1.0099 0.30448 0.0
C120 C 0.41191 0.08458 0.31066 0.0
C121 C 0.42485 1.0102 0.39427 0.0
O122 O 0.43785 0.02654 0.30811 0.0
O123 O 0.47919 1.00859 0.3279 0.0
O124 O 0.44327 0.09176 0.38531 0.0
O125 O 0.47718 0.06705 0.36742 0.0
Co126 Co 0.31351 0.2362 0.54301 0.0
O127 O 0.35904 0.24335 0.55365 0.0
O128 O 0.32334 0.20047 0.55928 0.0
C129 C 0.31317 0.25278 0.49277 0.0
O130 O 0.26648 0.2161 0.53482 0.0
Co131 Co 0.27628 0.28402 0.53455 0.0
O132 O 0.23661 0.24944 0.52677 0.0
C133 C 0.30215 0.2796 0.60217 0.0
C134 C 0.35275 0.21531 0.56235 0.0
C135 C 0.23939 0.22169 0.52936 0.0
O136 O 0.31216 0.2561 0.5898 0.0
O137 O 0.28827 0.29533 0.58406 0.0
O138 O 0.31483 0.22422 0.49629 0.0
O139 O 0.31273 0.27133 0.51979 0.0
Co140 Co 0.17445 0.09737 0.83502 0.0
O141 O 0.16808 0.05143 0.82426 0.0
O142 O 0.20985 0.08809 0.81811 0.0
C143 C 0.15865 0.09777 0.88576 0.0
O144 O 0.19378 0.14469 0.84297 0.0
Co145 Co 0.12746 0.13514 0.84445 0.0
O146 O 0.16179 0.17538 0.85331 0.0
C147 C 0.1305 0.10839 0.77641 0.0
C148 C 0.19572 0.0583 0.81514 0.0
C149 C 0.18893 0.17222 0.84937 0.0
O150 O 0.1542 0.09872 0.78844 0.0
O151 O 0.11495 0.1221 0.79497 0.0
O152 O 0.18687 0.09608 0.88172 0.0
O153 O 0.14001 0.0982 0.85893 0.0
Co154 Co 0.32639 0.95871 0.02102 0.0
O155 O 0.29466 0.96242 0.04786 0.0
O156 O 0.33504 1.00174 0.04291 0.0
C157 C 0.29538 0.92994 0.97493 0.0
O158 O 0.36323 0.96542 0.9967 0.0
Co159 Co 0.33929 0.89439 0.99377 0.0
O160 O 0.37282 0.92027 0.97372 0.0
C161 C 0.36262 0.92376 0.06346 0.0
C162 C 0.31031 0.99215 0.05635 0.0
C163 C 0.37915 0.95048 0.97988 0.0
O164 O 0.35286 0.94836 0.05872 0.0
O165 O 0.35743 0.89894 0.04149 0.0
O166 O 0.29883 0.96053 0.98107 0.0
O167 O 0.30745 0.91767 0.99838 0.0
Co168 Co 0.34706 0.42309 0.06875 0.0
O169 O 0.30173 0.41666 0.05913 0.0
O170 O 0.33588 0.46095 0.0855 0.0
C171 C 0.35229 0.40209 0.01718 0.0
O172 O 0.39423 0.44223 0.08085 0.0
Co173 Co 0.38294 0.37211 0.06619 0.0
O174 O 0.42061 0.40698 0.0649 0.0
C175 C 0.34868 0.38144 0.12204 0.0
C176 C 0.30703 0.44633 0.07258 0.0
C177 C 0.41966 0.43544 0.07439 0.0
O178 O 0.34387 0.40696 0.11251 0.0
O179 O 0.36181 0.36303 0.10548 0.0
O180 O 0.35007 0.43109 0.0241 0.0
O181 O 0.34957 0.38569 0.04104 0.0
Co182 Co 0.80651 0.17808 0.06893 0.0
O183 O 0.84761 0.17923 0.05822 0.0
O184 O 0.82042 0.14374 0.08444 0.0
C185 C 0.7842 0.18506 0.01983 0.0
O186 O 0.76372 0.16749 0.08237 0.0
Co187 Co 0.77798 0.23648 0.06775 0.0
O188 O 0.74003 0.20698 0.0776 0.0
C189 C 0.82898 0.23752 0.12039 0.0
C190 C 0.84527 0.1535 0.0712 0.0
C191 C 0.73999 0.17923 0.08367 0.0
O192 O 0.82496 0.20728 0.11243 0.0
O193 O 0.81623 0.25401 0.10226 0.0
O194 O 0.78714 0.15696 0.02367 0.0
O195 O 0.79765 0.20786 0.04388 0.0
Co196 Co 0.22971 0.61378 0.29242 0.0
O197 O 0.22739 0.57568 0.3118 0.0
O198 O 0.26773 0.60085 0.29035 0.0
C199 C 0.21112 0.64109 0.3313 0.0
O200 O 0.24281 0.65323 0.27239 0.0
Co201 Co 0.17259 0.64004 0.26986 0.0
O202 O 0.20432 0.67736 0.26152 0.0
C203 C 0.17976 0.57982 0.23685 0.0
C204 C 0.25571 0.5777 0.30515 0.0
C205 C 0.23295 0.67628 0.26284 0.0
O206 O 0.20946 0.58798 0.24804 0.0
O207 O 0.16058 0.59426 0.2485 0.0
O208 O 0.24043 0.63989 0.33645 0.0
O209 O 0.19398 0.62381 0.30486 0.0
Co210 Co 0.85067 0.92114 0.57239 0.0
O211 O 0.80521 0.91405 0.56396 0.0
O212 O 0.83915 0.95852 0.59017 0.0
C213 C 0.85503 0.90091 0.52024 0.0
O214 O 0.89783 0.9409 0.58343 0.0
Co215 Co 0.88749 0.87081 0.56754 0.0
O216 O 0.9245 0.90634 0.56619 0.0
C217 C 0.85484 0.87901 0.62497 0.0
C218 C 0.81025 0.94359 0.57775 0.0
C219 C 0.92327 0.93458 0.57629 0.0
O220 O 0.84895 0.90434 0.61597 0.0
O221 O 0.86802 0.86122 0.60764 0.0
O222 O 0.85237 0.9297 0.5277 0.0
O223 O 0.85323 0.88426 0.54392 0.0
Co224 Co 0.99031 0.0644 0.31028 0.0
O225 O 0.99358 0.10962 0.32105 0.0
O226 O 0.95128 0.07304 0.2944 0.0
C227 C 1.01292 0.05933 0.36129 0.0
O228 O 0.97381 1.01686 0.29633 0.0
Co229 Co 0.04287 0.0313 0.31082 0.0
O230 O 1.00983 0.99193 0.31266 0.0
C231 C 1.0316 0.06698 0.25658 0.0
C232 C 0.96401 0.10243 0.30757 0.0
C233 C 0.98135 0.99165 0.30265 0.0
O234 O 1.00583 0.07002 0.26654 0.0
O235 O 0.05091 0.05438 0.27238 0.0
O236 O 0.98339 0.0592 0.35518 0.0
O237 O 1.02848 0.06374 0.33707 0.0
Co238 Co 0.3288 0.65716 0.58063 0.0
O239 O 0.37067 0.65241 0.59147 0.0
O240 O 0.32794 0.62378 0.6066 0.0
C241 C 0.33023 0.65879 0.52677 0.0
O242 O 0.28191 0.65321 0.5734 0.0
Co243 Co 0.31387 0.71519 0.55243 0.0
O244 O 0.26919 0.69022 0.54568 0.0
C245 C 0.33949 0.72111 0.62319 0.0
C246 C 0.35792 0.629 0.60572 0.0
C247 C 0.26147 0.66533 0.55869 0.0
O248 O 0.33569 0.69081 0.62078 0.0
O249 O 0.33525 0.73502 0.59832 0.0
O250 O 0.32371 0.63155 0.53691 0.0
O251 O 0.33764 0.68355 0.54939 0.0
Co252 Co 0.49017 0.56341 0.80812 0.0
O253 O 0.49703 0.6093 0.81704 0.0
O254 O 0.45337 0.57503 0.78997 0.0
C255 C 0.50956 0.55869 0.8604 0.0
O256 O 0.47052 0.51593 0.79608 0.0
Co257 Co 0.53986 0.52597 0.81357 0.0
O258 O 0.50419 0.48875 0.81376 0.0
C259 C 0.53266 0.55899 0.7561 0.0
C260 C 0.46788 0.60414 0.80284 0.0
C261 C 0.47644 0.49004 0.80274 0.0
O262 O 0.50767 0.5655 0.76496 0.0
O263 O 0.54976 0.5453 0.77347 0.0
O264 O 0.48108 0.56143 0.85276 0.0
O265 O 0.52627 0.5605 0.83686 0.0
Co266 Co 0.72933 0.09013 0.80905 0.0
O267 O 0.73294 0.04816 0.81243 0.0
O268 O 0.76552 0.08359 0.79075 0.0
C269 C 0.72123 0.10265 0.86097 0.0
O270 O 0.73407 0.13556 0.80267 0.0
Co271 Co 0.6672 0.10947 0.81796 0.0
O272 O 0.69361 0.15308 0.8186 0.0
C273 C 0.67175 0.07105 0.7557 0.0
C274 C 0.75839 0.05573 0.79953 0.0
C275 C 0.72035 0.15774 0.80903 0.0
O276 O 0.70147 0.0749 0.76479 0.0
O277 O 0.65368 0.07992 0.77471 0.0
O278 O 0.74973 0.10529 0.85507 0.0
O279 O 0.69891 0.09012 0.8363 0.0
Co280 Co 0.81465 0.7348 0.04598 0.0
O281 O 0.86023 0.74263 0.05589 0.0
O282 O 0.82537 0.69976 0.06323 0.0
C283 C 0.81347 0.75048 0.99539 0.0
O284 O 0.76755 0.71456 0.03845 0.0
Co285 Co 0.77709 0.78252 0.037 0.0
O286 O 0.73773 0.74752 0.02805 0.0
C287 C 0.80426 0.7794 0.10464 0.0
C288 C 0.8546 0.7151 0.06568 0.0
C289 C 0.74046 0.71998 0.03182 0.0
O290 O 0.81384 0.75552 0.09254 0.0
O291 O 0.79017 0.79485 0.08636 0.0
O292 O 0.81545 0.72207 0.99924 0.0
O293 O 0.81324 0.76931 0.02226 0.0
Co294 Co 0.94827 0.58361 0.83961 0.0
O295 O 0.94854 0.61802 0.81475 0.0
O296 O 0.90665 0.57928 0.81687 0.0
C297 C 0.97783 0.61209 0.88711 0.0
O298 O 0.93711 0.54532 0.86179 0.0
Co299 Co 1.00777 0.56377 0.86881 0.0
O300 O 0.97853 0.53329 0.8892 0.0
C301 C 0.97876 0.54124 0.79831 0.0
C302 C 0.91857 0.60474 0.80528 0.0
C303 C 0.94897 0.52841 0.88021 0.0
O304 O 0.95716 0.5561 0.80105 0.0
O305 O 1.00123 0.54292 0.82173 0.0
O306 O 0.948 0.6111 0.88084 0.0
O307 O 0.98903 0.59877 0.86353 0.0
Co308 Co 0.82796 0.45728 0.53658 0.0
O309 O 0.79264 0.45827 0.5594 0.0
O310 O 0.83207 0.4998 0.55794 0.0
C311 C 0.80146 0.42689 0.48856 0.0
O312 O 0.86744 0.46713 0.51614 0.0
Co313 Co 0.84728 0.39544 0.51206 0.0
O314 O 0.8804 0.42355 0.49376 0.0
C315 C 0.86833 0.42802 0.58152 0.0
C316 C 0.80603 0.48849 0.56856 0.0
C317 C 0.8852 0.4536 0.50049 0.0
O318 O 0.85316 0.44912 0.57703 0.0
O319 O 0.8679 0.40468 0.55933 0.0
O320 O 0.80263 0.45705 0.49414 0.0
O321 O 0.81303 0.41575 0.51321 0.0
Co322 Co 0.67207 0.60135 0.33329 0.0
O323 O 0.66356 0.55531 0.32327 0.0
O324 O 0.7064 0.58999 0.31574 0.0
C325 C 0.65674 0.60287 0.38395 0.0
O326 O 0.69294 0.64846 0.34072 0.0
Co327 Co 0.62667 0.64097 0.34254 0.0
O328 O 0.66208 0.68029 0.35164 0.0
C329 C 0.62835 0.61235 0.27489 0.0
C330 C 0.6908 0.56066 0.31329 0.0
C331 C 0.68891 0.67634 0.34743 0.0
O332 O 0.65188 0.60259 0.28697 0.0
O333 O 0.61324 0.62684 0.29328 0.0
O334 O 0.68472 0.60038 0.3798 0.0
O335 O 0.63806 0.60363 0.35731 0.0
Dy336 Dy 0.12331 0.10387 0.08958 0.0
Dy337 Dy 0.05638 0.06301 0.05205 0.0
C338 C 0.11287 0.08136 1.01106 0.0
O339 O 0.10287 0.14208 0.06863 0.0
O340 O 0.05087 0.11462 0.05712 0.0
O341 O 0.16929 0.13468 0.08917 0.0
O342 O 0.15793 0.11864 0.13418 0.0
O343 O 0.05009 0.06909 0.10511 0.0
O344 O 0.0922 0.11126 0.127 0.0
O345 O 0.08327 0.02454 0.05965 0.0
O346 O 0.11963 0.05383 0.10296 0.0
O347 O 1.01608 0.02301 0.04851 0.0
O348 O 1.01824 0.05277 1.01092 0.0
C349 C 0.07298 0.14169 0.05933 0.0
O350 O 0.13222 0.08519 0.039 0.0
O351 O 0.08251 0.07573 1.01096 0.0
C352 C 0.20491 0.11296 0.11851 0.0
C353 C 0.2486 0.07609 0.11734 0.0
C354 C 0.21782 0.06379 0.10017 0.0
C355 C 0.19641 0.08207 0.10056 0.0
C356 C 0.23556 0.12563 0.13611 0.0
C357 C 0.25759 0.10728 0.1352 0.0
C358 C 0.18042 0.13018 0.11834 0.0
C359 C 0.066 0.09102 0.12994 0.0
C360 C 0.1047 0.02558 0.08557 0.0
C361 C 0.9703 0.03849 0.02987 0.0
C362 C 0.92392 0.06975 0.04364 0.0
C363 C 0.94054 0.05898 0.06898 0.0
C364 C 0.96366 0.04355 0.06219 0.0
C365 C 0.95156 0.04653 1.00408 0.0
C366 C 0.92859 0.06222 1.01094 0.0
C367 C 1.00024 0.03159 0.02415 0.0
H368 H 0.21052 0.04028 0.08531 0.0
H369 H 0.17312 0.07208 0.08632 0.0
H370 H 0.24243 0.1495 0.1501 0.0
H371 H 0.28145 0.11734 0.14816 0.0
H372 H 0.93733 0.06452 0.09439 0.0
H373 H 0.97779 0.03773 0.08267 0.0
H374 H 0.9563 0.04288 0.97902 0.0
H375 H 0.91558 0.06987 0.99093 0.0
Dy376 Dy 0.36546 0.85763 0.31491 0.0
Dy377 Dy 0.30857 0.8264 0.35183 0.0
C378 C 0.34689 0.8951 0.37707 0.0
O379 O 0.38687 0.8285 0.34804 0.0
O380 O 0.35333 0.82719 0.38597 0.0
O381 O 0.39794 0.90098 0.31034 0.0
O382 O 0.4025 0.85562 0.28597 0.0
O383 O 0.32748 0.79065 0.32334 0.0
O384 O 0.33511 0.81553 0.28003 0.0
O385 O 0.2827 0.83991 0.30713 0.0
O386 O 0.32373 0.87091 0.28736 0.0
O387 O 0.26522 0.78983 0.34673 0.0
O388 O 0.2867 0.81784 0.39477 0.0
C389 C 0.38061 0.82453 0.37778 0.0
O390 O 0.36932 0.88521 0.36487 0.0
O391 O 0.31754 0.87862 0.36857 0.0
C392 C 0.4139 0.89949 0.25839 0.0
C393 C 0.41204 0.91716 0.19569 0.0
C394 C 0.39382 0.92787 0.21787 0.0
C395 C 0.39467 0.91907 0.24887 0.0
C396 C 0.43355 0.89029 0.23715 0.0
C397 C 0.43258 0.899 0.20588 0.0
C398 C 0.41162 0.88661 0.28912 0.0
C399 C 0.32608 0.78927 0.29155 0.0
C400 C 0.29312 0.85844 0.28597 0.0
C401 C 0.26838 0.76278 0.39194 0.0
C402 C 0.28288 0.71429 0.42427 0.0
C403 C 0.29353 0.71938 0.39448 0.0
C404 C 0.28629 0.74337 0.37841 0.0
C405 C 0.25628 0.75663 0.42077 0.0
C406 C 0.26344 0.73246 0.43683 0.0
C407 C 0.26657 0.79191 0.37866 0.0
H408 H 0.37733 0.94141 0.21062 0.0
H409 H 0.37916 0.92648 0.26473 0.0
H410 H 0.44873 0.87539 0.24425 0.0
H411 H 0.44718 0.89081 0.18937 0.0
H412 H 0.30848 0.70562 0.38433 0.0
H413 H 0.29605 0.7477 0.35625 0.0
H414 H 0.24269 0.7715 0.43173 0.0
H415 H 0.2552 0.72909 0.45998 0.0
Dy416 Dy 0.55131 0.07984 0.5869 0.0
Dy417 Dy 0.61494 0.08646 0.55275 0.0
C418 C 0.55069 0.09427 0.51205 0.0
O419 O 0.54887 0.02723 0.57011 0.0
O420 O 0.59258 0.0332 0.54454 0.0
O421 O 0.50119 0.06419 0.58587 0.0
O422 O 0.53115 0.09472 0.62922 0.0
O423 O 0.62909 0.08437 0.60605 0.0
O424 O 0.58204 0.06021 0.61995 0.0
O425 O 0.61435 0.13828 0.56438 0.0
O426 O 0.57704 0.13319 0.59849 0.0
O427 O 0.6656 0.10315 0.55734 0.0
O428 O 0.63846 0.07211 0.51301 0.0
C429 C 0.56799 1.0147 0.55353 0.0
O430 O 0.53547 0.08665 0.53613 0.0
O431 O 0.58093 0.09631 0.51332 0.0
C432 C 0.48336 0.10597 0.61089 0.0
C433 C 0.44492 0.14804 0.60252 0.0
C434 C 0.46927 0.14773 0.58386 0.0
C435 C 0.48837 0.12697 0.58811 0.0
C436 C 0.45995 0.10689 0.63043 0.0
C437 C 0.44093 0.12787 0.62638 0.0
C438 C 0.5024 0.08296 0.61345 0.0
C439 C 0.61276 0.06838 0.62548 0.0
C440 C 0.59874 0.1514 0.585 0.0
C441 C 0.68612 0.06187 0.53523 0.0
C442 C 0.72431 1.02089 0.5508 0.0
C443 C 0.69137 1.01038 0.54735 0.0
C444 C 0.6725 0.0307 0.5398 0.0
C445 C 0.71891 0.07226 0.53799 0.0
C446 C 0.73786 0.05196 0.54566 0.0
C447 C 0.66639 0.08422 0.53063 0.0
H448 H 0.47281 0.16257 0.56502 0.0
H449 H 0.50659 0.12674 0.573 0.0
H450 H 0.45605 0.09109 0.64838 0.0
H451 H 0.42274 0.1279 0.64156 0.0
H452 H 0.6802 0.98675 0.55143 0.0
H453 H 0.64727 0.02218 0.53822 0.0
H454 H 0.7299 0.09626 0.53481 0.0
H455 H 0.76315 0.06063 0.54765 0.0
Dy456 Dy 0.35683 0.30845 0.8157 0.0
Dy457 Dy 0.3028 0.34901 0.81172 0.0
C458 C 0.3729 0.38126 0.80289 0.0
O459 O 0.35042 0.32171 0.8685 0.0
O460 O 0.33542 0.3667 0.85969 0.0
O461 O 0.40338 0.30513 0.83557 0.0
O462 O 0.37433 0.26915 0.79584 0.0
O463 O 0.28396 0.30691 0.83508 0.0
O464 O 0.31186 0.27237 0.81647 0.0
O465 O 0.29701 0.32269 0.76005 0.0
O466 O 0.34575 0.31286 0.76259 0.0
O467 O 0.25639 0.35269 0.79217 0.0
O468 O 0.28464 0.38743 0.83318 0.0
C469 C 0.34591 0.34946 0.87988 0.0
O470 O 0.38145 0.35909 0.81739 0.0
O471 O 0.34299 0.3804 0.79385 0.0
C472 C 0.42848 0.28874 0.7914 0.0
C473 C 0.47649 0.30611 0.75258 0.0
C474 C 0.48245 0.3154 0.78717 0.0
C475 C 0.45886 0.30674 0.80627 0.0
C476 C 0.42247 0.27923 0.75683 0.0
C477 C 0.44614 0.28782 0.7377 0.0
C478 C 0.40286 0.28233 0.8117 0.0
C479 C 0.28761 0.27807 0.8292 0.0
C480 C 0.31905 0.31388 0.74554 0.0
C481 C 0.23087 0.36688 0.83685 0.0
C482 C 0.18626 0.35078 0.87953 0.0
C483 C 0.1902 0.32764 0.85467 0.0
C484 C 0.2121 0.33558 0.83362 0.0
C485 C 0.22683 0.39015 0.86143 0.0
C486 C 0.20478 0.38222 0.88253 0.0
C487 C 0.25637 0.37454 0.81674 0.0
H488 H 0.50531 0.32993 0.79959 0.0
H489 H 0.46427 0.31469 0.83273 0.0
H490 H 0.39933 0.26543 0.74439 0.0
H491 H 0.44072 0.27985 0.71125 0.0
H492 H 0.1768 0.30311 0.85184 0.0
H493 H 0.21475 0.31688 0.81523 0.0
H494 H 0.24108 0.4144 0.86464 0.0
H495 H 0.20212 0.40079 0.90104 0.0
Dy496 Dy 0.10254 0.05241 0.56339 0.0
Dy497 Dy 0.0653 0.10852 0.56505 0.0
C498 C 1.03183 0.03828 0.57556 0.0
O499 O 0.07189 0.0445 0.5135 0.0
O500 O 0.07402 0.09668 0.51344 0.0
O501 O 0.10191 1.00347 0.54674 0.0
O502 O 0.14218 0.03435 0.5803 0.0
O503 O 0.11655 0.13178 0.57013 0.0
O504 O 0.13373 0.09166 0.54355 0.0
O505 O 0.07351 0.10246 0.61845 0.0
O506 O 0.11524 0.08022 0.61483 0.0
O507 O 0.06233 0.15657 0.58056 0.0
O508 O 1.02654 0.12482 0.54256 0.0
C509 C 0.06832 0.06769 0.49752 0.0
O510 O 0.05992 0.03497 0.58553 0.0
O511 O 1.02808 0.06301 0.56222 0.0
C512 C 0.12319 0.98151 0.5904 0.0
C513 C 0.10907 0.93531 0.63209 0.0
C514 C 0.10822 0.92624 0.59794 0.0
C515 C 0.11532 0.94902 0.57747 0.0
C516 C 0.12406 0.99082 0.62445 0.0
C517 C 0.11722 0.96799 0.64507 0.0
C518 C 0.1271 1.00504 0.56761 0.0
C519 C 0.1367 0.12219 0.55329 0.0
C520 C 0.09771 0.09355 0.63261 0.0
C521 C 0.04672 0.17649 0.53273 0.0
C522 C 0.06001 0.21671 0.48544 0.0
C523 C 0.07995 0.19743 0.49389 0.0
C524 C 0.0732 0.17735 0.51706 0.0
C525 C 1.02663 0.19553 0.52432 0.0
C526 C 1.03319 0.21545 0.50083 0.0
C527 C 1.03959 0.15428 0.55624 0.0
H528 H 0.10128 0.90143 0.58669 0.0
H529 H 0.11385 0.9412 0.55126 0.0
H530 H 0.12951 1.01575 0.63509 0.0
H531 H 0.11837 0.97598 0.67117 0.0
H532 H 0.10062 0.19763 0.48236 0.0
H533 H 0.0886 0.16227 0.52261 0.0
H534 H 1.00591 0.19496 0.53583 0.0
H535 H 1.01757 0.23033 0.49518 0.0
Dy536 Dy 0.33242 0.86072 0.78639 0.0
Dy537 Dy 0.32384 0.79661 0.81964 0.0
C538 C 0.31326 0.85973 0.85758 0.0
O539 O 0.38317 0.85686 0.7975 0.0
O540 O 0.37518 0.82453 0.83649 0.0
O541 O 0.35156 0.91117 0.78862 0.0
O542 O 0.31847 0.88359 0.74594 0.0
O543 O 0.34428 0.78591 0.77469 0.0
O544 O 0.33027 0.82225 0.74505 0.0
O545 O 0.27392 0.79225 0.79318 0.0
O546 O 0.27972 0.84431 0.78697 0.0
O547 O 0.30769 0.7456 0.81496 0.0
O548 O 0.33381 0.77372 0.86146 0.0
C549 C 0.39467 0.84318 0.82118 0.0
O550 O 0.33166 0.87534 0.83958 0.0
O551 O 0.30391 0.82863 0.85196 0.0
C552 C 0.31066 0.93236 0.76756 0.0
C553 C 0.26745 0.9694 0.77677 0.0
C554 C 0.2712 0.94727 0.79759 0.0
C555 C 0.29249 0.92886 0.79293 0.0
C556 C 0.30665 0.95387 0.74628 0.0
C557 C 0.28519 0.97225 0.75081 0.0
C558 C 0.33209 0.91191 0.76245 0.0
C559 C 0.33997 0.79651 0.74692 0.0
C560 C 0.26132 0.81564 0.78621 0.0
C561 C 0.34722 0.72656 0.84195 0.0
C562 C 0.38962 0.68929 0.82936 0.0
C563 C 0.39873 0.7223 0.83029 0.0
C564 C 0.37762 0.7407 0.83625 0.0
C565 C 0.33836 0.69379 0.84207 0.0
C566 C 0.35939 0.67529 0.83583 0.0
C567 C 0.32386 0.74539 0.84353 0.0
H568 H 0.25832 0.9447 0.81806 0.0
H569 H 0.29485 0.9119 0.80926 0.0
H570 H 0.32001 0.95639 0.72617 0.0
H571 H 0.28252 0.98873 0.734 0.0
H572 H 0.42168 0.73372 0.82507 0.0
H573 H 0.3847 0.76584 0.83526 0.0
H574 H 0.3149 0.68239 0.846 0.0
H575 H 0.35185 0.64992 0.83563 0.0
Dy576 Dy 0.55718 0.09365 0.01897 0.0
Dy577 Dy 0.55944 0.04368 0.0704 0.0
C578 C 0.58017 0.02917 0.999 0.0
O579 O 0.51262 0.05685 1.00015 0.0
O580 O 0.50926 0.03325 0.04668 0.0
O581 O 0.55513 0.10748 0.97058 0.0
O582 O 0.56551 0.14331 1.01411 0.0
O583 O 0.55133 0.08775 0.09939 0.0
O584 O 0.52796 0.10717 0.05689 0.0
O585 O 0.60947 0.06751 0.06881 0.0
O586 O 0.59682 0.11303 0.06028 0.0
O587 O 0.57469 0.03417 0.11892 0.0
O588 O 0.54713 0.9958 0.08056 0.0
C589 C 0.49794 0.03608 0.0166 0.0
O590 O 0.58328 0.05932 0.99578 0.0
O591 O 0.56802 1.01801 0.02372 0.0
C592 C 0.59807 0.15102 0.97372 0.0
C593 C 0.65513 0.15519 0.94986 0.0
C594 C 0.65399 0.15355 0.98322 0.0
C595 C 0.62569 0.15171 0.99513 0.0
C596 C 0.60003 0.15609 0.94126 0.0
C597 C 0.62856 0.15842 0.92943 0.0
C598 C 0.5673 0.1374 0.98289 0.0
C599 C 0.53552 0.10754 0.08892 0.0
C600 C 0.61749 0.09832 0.07057 0.0
C601 C 0.53771 0.99358 0.13486 0.0
C602 C 0.49926 0.98142 0.18319 0.0
C603 C 0.48619 0.98498 0.15158 0.0
C604 C 0.50531 0.99123 0.12765 0.0
C605 C 0.55048 0.98812 0.16554 0.0
C606 C 0.53147 0.98214 0.18956 0.0
C607 C 0.55882 1.00441 0.11181 0.0
H608 H 0.67418 0.15086 0.99927 0.0
H609 H 0.62487 0.14783 0.02029 0.0
H610 H 0.57901 0.15532 0.92431 0.0
H611 H 0.62896 0.15932 0.90345 0.0
H612 H 0.46149 0.98429 0.14573 0.0
H613 H 0.49498 0.99542 0.10402 0.0
H614 H 0.57547 0.98996 0.17149 0.0
H615 H 0.54255 0.98011 0.21376 0.0
Dy616 Dy 0.3031 0.28398 0.28703 0.0
Dy617 Dy 0.34208 0.35425 0.32498 0.0
C618 C 0.32693 0.29694 0.36674 0.0
O619 O 0.26278 0.30777 0.29401 0.0
O620 O 0.29088 0.35224 0.3307 0.0
O621 O 0.27278 0.23733 0.28684 0.0
O622 O 0.29065 0.24851 0.24268 0.0
O623 O 0.32616 0.36276 0.27382 0.0
O624 O 0.31318 0.31157 0.24652 0.0
O625 O 0.38143 0.33404 0.30691 0.0
O626 O 0.35466 0.28201 0.28814 0.0
O627 O 0.37746 0.39824 0.32753 0.0
O628 O 0.3502 0.39176 0.3669 0.0
C629 C 0.26344 0.33333 0.31541 0.0
O630 O 0.30844 0.27893 0.34048 0.0
O631 O 0.34532 0.32482 0.36519 0.0
C632 C 0.2969 0.20175 0.25986 0.0
C633 C 0.33762 0.16142 0.26054 0.0
C634 C 0.34255 0.1874 0.28588 0.0
C635 C 0.32238 0.20718 0.28563 0.0
C636 C 0.29166 0.1758 0.23434 0.0
C637 C 0.31174 0.15539 0.2349 0.0
C638 C 0.27915 0.22597 0.25858 0.0
C639 C 0.3202 0.34221 0.2463 0.0
C640 C 0.38127 0.30485 0.29364 0.0
C641 C 0.35838 0.44134 0.34921 0.0
C642 C 0.32848 0.48993 0.33852 0.0
C643 C 0.34185 0.47602 0.31334 0.0
C644 C 0.3566 0.45195 0.31859 0.0
C645 C 0.34645 0.45637 0.37494 0.0
C646 C 0.33147 0.48036 0.36959 0.0
C647 C 0.36852 0.41213 0.35306 0.0
H648 H 0.36175 0.19211 0.30639 0.0
H649 H 0.32705 0.22714 0.30553 0.0
H650 H 0.27242 0.17157 0.21397 0.0
H651 H 0.30732 0.13521 0.21529 0.0
H652 H 0.3397 0.48275 0.28906 0.0
H653 H 0.36536 0.44081 0.29813 0.0
H654 H 0.34753 0.44863 0.39876 0.0
H655 H 0.32174 0.49103 0.38954 0.0
Dy656 Dy 0.60084 0.55227 0.06291 0.0
Dy657 Dy 0.56297 0.60875 0.06442 0.0
C658 C 0.52914 0.53817 0.07355 0.0
O659 O 0.57265 0.54478 1.0117 0.0
O660 O 0.56884 0.59593 1.01237 0.0
O661 O 0.60112 0.50333 0.04796 0.0
O662 O 0.64061 0.53517 0.08159 0.0
O663 O 0.61411 0.63164 0.06714 0.0
O664 O 0.6319 0.59087 0.04249 0.0
O665 O 0.57051 0.60176 0.11723 0.0
O666 O 0.6134 0.58146 0.11372 0.0
O667 O 0.56176 0.65728 0.08083 0.0
O668 O 0.52415 0.62616 0.0441 0.0
C669 C 0.56553 0.56729 0.99648 0.0
O670 O 0.55711 0.53438 0.08325 0.0
O671 O 0.52556 0.56339 0.06106 0.0
C672 C 0.62238 0.4831 0.09285 0.0
C673 C 0.60865 0.43628 0.13376 0.0
C674 C 0.59738 0.46369 0.13806 0.0
C675 C 0.6042 0.48684 0.11785 0.0
C676 C 0.63472 0.45652 0.08926 0.0
C677 C 0.62808 0.43344 0.10959 0.0
C678 C 0.6263 0.50563 0.06916 0.0
C679 C 0.63448 0.62145 0.05105 0.0
C680 C 0.5952 0.59383 0.1314 0.0
C681 C 0.54559 0.67823 0.03374 0.0
C682 C 0.56689 0.72083 0.99062 0.0
C683 C 0.56906 0.73174 0.0246 0.0
C684 C 0.5585 0.71069 0.04586 0.0
C685 C 0.54284 0.66736 0.99964 0.0
C686 C 0.55319 0.68846 0.97832 0.0
C687 C 0.53865 0.65554 0.0571 0.0
H688 H 0.58215 0.46667 0.15608 0.0
H689 H 0.59446 0.50723 0.12111 0.0
H690 H 0.64886 0.45321 0.07022 0.0
H691 H 0.63772 0.41302 0.10593 0.0
H692 H 0.57888 0.75666 0.03481 0.0
H693 H 0.56113 0.71969 0.07198 0.0
H694 H 0.5334 0.6424 0.98943 0.0
H695 H 0.5512 0.67928 0.95235 0.0
Dy696 Dy 0.82758 0.36406 0.2907 0.0
Dy697 Dy 0.81917 0.2978 0.32013 0.0
C698 C 0.8091 0.35992 0.36256 0.0
O699 O 0.87669 0.36839 0.31795 0.0
O700 O 0.87205 0.31574 0.32002 0.0
O701 O 0.84329 0.41523 0.29766 0.0
O702 O 0.8197 0.38845 0.24965 0.0
O703 O 0.81975 0.28544 0.26663 0.0
O704 O 0.84711 0.33324 0.25631 0.0
O705 O 0.76799 0.30068 0.3082 0.0
O706 O 0.77625 0.33711 0.27312 0.0
O707 O 0.80119 0.24676 0.3146 0.0
O708 O 0.83226 0.27294 0.35916 0.0
C709 C 0.88989 0.34498 0.32269 0.0
O710 O 0.8064 0.37269 0.33586 0.0
O711 O 0.81853 0.33382 0.36299 0.0
C712 C 0.80589 0.43535 0.26849 0.0
C713 C 0.76261 0.47258 0.27601 0.0
C714 C 0.75321 0.43956 0.27516 0.0
C715 C 0.77474 0.42122 0.27178 0.0
C716 C 0.8153 0.46808 0.2686 0.0
C717 C 0.7939 0.48659 0.27243 0.0
C718 C 0.82904 0.41635 0.26842 0.0
C719 C 0.83733 0.30222 0.24879 0.0
C720 C 0.75667 0.31635 0.28627 0.0
C721 C 0.84092 0.22459 0.33669 0.0
C722 C 0.88267 0.18605 0.32706 0.0
C723 C 0.88907 0.21659 0.31868 0.0
C724 C 0.86823 0.23553 0.32316 0.0
C725 C 0.83448 0.19419 0.3453 0.0
C726 C 0.85514 0.17495 0.34036 0.0
C727 C 0.81936 0.24504 0.3413 0.0
H728 H 0.72933 0.42787 0.27751 0.0
H729 H 0.76728 0.39608 0.27255 0.0
H730 H 0.83942 0.47946 0.26676 0.0
H731 H 0.80225 0.51204 0.27372 0.0
H732 H 0.90982 0.22554 0.30796 0.0
H733 H 0.87336 0.25866 0.3158 0.0
H734 H 0.81348 0.18531 0.35565 0.0
H735 H 0.84973 0.15148 0.34712 0.0
Dy736 Dy 0.06094 0.59682 0.51105 0.0
Dy737 Dy 0.07246 0.55189 0.56523 0.0
C738 C 0.08176 0.53157 0.49 0.0
O739 O 1.01703 0.55807 0.49992 0.0
O740 O 1.02058 0.54347 0.55117 0.0
O741 O 0.04903 0.60673 0.46192 0.0
O742 O 0.06393 0.64511 0.50342 0.0
O743 O 0.06917 0.59777 0.5944 0.0
O744 O 1.03798 0.61233 0.55419 0.0
O745 O 0.12066 0.57284 0.55518 0.0
O746 O 0.10902 0.61729 0.53992 0.0
O747 O 0.09225 0.54377 0.61281 0.0
O748 O 0.06089 0.50478 0.57764 0.0
C749 C 1.00513 0.54162 0.5215 0.0
O750 O 0.08318 0.56083 0.48432 0.0
O751 O 0.07344 0.52281 0.51738 0.0
C752 C 0.08657 0.65201 0.4564 0.0
C753 C 0.13727 0.67369 0.42358 0.0
C754 C 0.13951 0.65318 0.44665 0.0
C755 C 0.11442 0.64243 0.46273 0.0
C756 C 0.08466 0.67407 0.43519 0.0
C757 C 0.10998 0.68496 0.41887 0.0
C758 C 0.05983 0.63734 0.47145 0.0
C759 C 0.04987 0.61497 0.58566 0.0
C760 C 0.12964 0.60187 0.54904 0.0
C761 C 0.05197 0.50913 0.63165 0.0
C762 C 1.00859 0.49935 0.67556 0.0
C763 C 1.01302 0.52641 0.66015 0.0
C764 C 1.03434 0.53112 0.63833 0.0
C765 C 0.04646 0.48114 0.64522 0.0
C766 C 1.02478 0.47621 0.66706 0.0
C767 C 0.07396 0.51493 0.60832 0.0
H768 H 0.15964 0.64332 0.45057 0.0
H769 H 0.11622 0.62528 0.47896 0.0
H770 H 0.06335 0.68192 0.43037 0.0
H771 H 0.10763 0.70098 0.40146 0.0
H772 H 1.00153 0.54507 0.66637 0.0
H773 H 1.0376 0.55245 0.62724 0.0
H774 H 0.05918 0.46344 0.63934 0.0
H775 H 1.02156 0.45492 0.67821 0.0
Dy776 Dy 0.86064 0.80957 0.31797 0.0
Dy777 Dy 0.80817 0.85144 0.31392 0.0
C778 C 0.87881 0.88221 0.30533 0.0
O779 O 0.85425 0.82269 0.37084 0.0
O780 O 0.83964 0.86804 0.36261 0.0
O781 O 0.90664 0.80468 0.33759 0.0
O782 O 0.87646 0.76908 0.29822 0.0
O783 O 0.78895 0.81006 0.33812 0.0
O784 O 0.8147 0.77445 0.31753 0.0
O785 O 0.80186 0.8251 0.2623 0.0
O786 O 0.8502 0.81441 0.26485 0.0
O787 O 0.7601 0.85257 0.29783 0.0
O788 O 0.79209 0.89274 0.33074 0.0
C789 C 0.84986 0.85044 0.38253 0.0
O790 O 0.88676 0.85994 0.32015 0.0
O791 O 0.84903 0.8815 0.29567 0.0
C792 C 0.93051 0.78706 0.29298 0.0
C793 C 0.97771 0.80364 0.25317 0.0
C794 C 0.98436 0.81296 0.28775 0.0
C795 C 0.96116 0.80467 0.30735 0.0
C796 C 0.92385 0.77743 0.25842 0.0
C797 C 0.94714 0.78566 0.23878 0.0
C798 C 0.90523 0.78153 0.31373 0.0
C799 C 0.79102 0.78079 0.33085 0.0
C800 C 0.82363 0.81581 0.24779 0.0
C801 C 0.74051 0.87465 0.34275 0.0
C802 C 0.69588 0.85853 0.38514 0.0
C803 C 0.72775 0.85968 0.39509 0.0
C804 C 0.74978 0.86744 0.37405 0.0
C805 C 0.70894 0.87438 0.3331 0.0
C806 C 0.68685 0.86643 0.35406 0.0
C807 C 0.7627 0.87826 0.3188 0.0
H808 H 1.00746 0.82724 0.29976 0.0
H809 H 0.96706 0.8127 0.33378 0.0
H810 H 0.90048 0.76391 0.24638 0.0
H811 H 0.94123 0.77772 0.21235 0.0
H812 H 0.73547 0.85342 0.41865 0.0
H813 H 0.77389 0.8668 0.38185 0.0
H814 H 0.70117 0.87942 0.30894 0.0
H815 H 0.66257 0.86616 0.34577 0.0
Dy816 Dy 0.85545 0.33716 0.80568 0.0
Dy817 Dy 0.81022 0.3512 0.85832 0.0
C818 C 0.86537 0.40596 0.8505 0.0
O819 O 0.87182 0.31583 0.84908 0.0
O820 O 0.85523 0.34654 0.88864 0.0
O821 O 0.90313 0.34058 0.79722 0.0
O822 O 0.86422 0.32063 0.75714 0.0
O823 O 0.80638 0.29975 0.85062 0.0
O824 O 0.81601 0.29313 0.79787 0.0
O825 O 0.78265 0.35043 0.8082 0.0
O826 O 0.82275 0.36149 0.77835 0.0
O827 O 0.76242 0.34062 0.86796 0.0
O828 O 0.80014 0.3705 0.90541 0.0
C829 C 0.87391 0.32838 0.88022 0.0
O830 O 0.87804 0.38425 0.83733 0.0
O831 O 0.83551 0.39957 0.85307 0.0
C832 C 0.90858 0.35539 0.74559 0.0
C833 C 0.91876 0.39758 0.7004 0.0
C834 C 0.91615 0.40887 0.73296 0.0
C835 C 0.91087 0.38784 0.75537 0.0
C836 C 0.91453 0.34473 0.71434 0.0
C837 C 0.91968 0.3657 0.69187 0.0
C838 C 0.89459 0.33227 0.76543 0.0
C839 C 0.80197 0.28235 0.82161 0.0
C840 C 0.7929 0.35863 0.78125 0.0
C841 C 0.76532 0.32659 0.92014 0.0
C842 C 0.75703 0.26722 0.94104 0.0
C843 C 0.78679 0.2889 0.94736 0.0
C844 C 0.79091 0.31827 0.93715 0.0
C845 C 0.73504 0.30577 0.91581 0.0
C846 C 0.73087 0.27625 0.92644 0.0
C847 C 0.77175 0.3514 0.89938 0.0
H848 H 0.91572 0.43335 0.74029 0.0
H849 H 0.90627 0.39652 0.77949 0.0
H850 H 0.91269 0.31976 0.70642 0.0
H851 H 0.92129 0.35609 0.66689 0.0
H852 H 0.80716 0.28283 0.95962 0.0
H853 H 0.81463 0.33345 0.94067 0.0
H854 H 0.71506 0.31141 0.90224 0.0
H855 H 0.70761 0.25999 0.92195 0.0
Dy856 Dy 0.80538 0.78206 0.78935 0.0
Dy857 Dy 0.84776 0.85055 0.82743 0.0
C858 C 0.8283 0.79457 0.86965 0.0
O859 O 0.76753 0.80881 0.79876 0.0
O860 O 0.79766 0.8524 0.83546 0.0
O861 O 0.78525 0.73276 0.79075 0.0
O862 O 0.77611 0.75129 0.74564 0.0
O863 O 0.8302 0.85832 0.77638 0.0
O864 O 0.82399 0.80792 0.75034 0.0
O865 O 0.88538 0.82605 0.81215 0.0
O866 O 0.85536 0.77802 0.78329 0.0
O867 O 0.88888 0.88892 0.82867 0.0
O868 O 0.85867 0.89215 0.8653 0.0
C869 C 0.7695 0.83457 0.82053 0.0
O870 O 0.81045 0.77672 0.84288 0.0
O871 O 0.8471 0.82242 0.86883 0.0
C872 C 0.78831 0.70127 0.74279 0.0
C873 C 0.82939 0.66138 0.73996 0.0
C874 C 0.79935 0.65063 0.74857 0.0
C875 C 0.77894 0.67043 0.74986 0.0
C876 C 0.81623 0.71033 0.7297 0.0
C877 C 0.83654 0.69041 0.72807 0.0
C878 C 0.7753 0.72586 0.75906 0.0
C879 C 0.82831 0.83825 0.74934 0.0
C880 C 0.88331 0.79851 0.79352 0.0
C881 C 0.87675 0.93783 0.84259 0.0
C882 C 0.84921 0.98516 0.82356 0.0
C883 C 0.85638 0.98334 0.85713 0.0
C884 C 0.87031 0.95989 0.86664 0.0
C885 C 0.8726 0.94191 0.80925 0.0
C886 C 0.85891 0.96556 0.79981 0.0
C887 C 0.88098 0.90758 0.85135 0.0
H888 H 0.79283 0.62847 0.75788 0.0
H889 H 0.75761 0.66309 0.76022 0.0
H890 H 0.824 0.73407 0.72404 0.0
H891 H 0.85903 0.69901 0.7203 0.0
H892 H 0.84883 0.99834 0.8757 0.0
H893 H 0.87332 0.95716 0.8924 0.0
H894 H 0.87735 0.92525 0.79009 0.0
H895 H 0.85325 0.96657 0.7738 0.0
Dy896 Dy 0.62852 0.60546 0.59043 0.0
Dy897 Dy 0.55974 0.56613 0.55317 0.0
C898 C 0.61398 0.58474 0.50959 0.0
O899 O 0.60211 0.64427 0.58438 0.0
O900 O 0.56396 0.61666 0.54123 0.0
O901 O 0.67708 0.62628 0.5879 0.0
O902 O 0.6603 0.63271 0.63444 0.0
O903 O 0.55385 0.58382 0.60502 0.0
O904 O 0.6033 0.58622 0.62954 0.0
O905 O 0.58115 0.52683 0.57084 0.0
O906 O 0.63194 0.55429 0.59282 0.0
O907 O 0.52416 0.52129 0.5397 0.0
O908 O 0.51329 0.56436 0.52832 0.0
C909 C 0.57992 0.64421 0.55957 0.0
O910 O 0.63235 0.60182 0.53649 0.0
O911 O 0.58613 0.56627 0.51052 0.0
C912 C 0.70961 0.62043 0.63358 0.0
C913 C 0.74915 0.57888 0.63327 0.0
C914 C 0.75927 0.60932 0.62485 0.0
C915 C 0.73965 0.62995 0.62512 0.0
C916 C 0.70117 0.59191 0.64612 0.0
C917 C 0.72093 0.57139 0.6462 0.0
C918 C 0.68492 0.63447 0.61978 0.0
C919 C 0.57364 0.58389 0.63144 0.0
C920 C 0.60965 0.52711 0.58562 0.0
C921 C 0.47515 0.52958 0.54886 0.0
C922 C 0.42907 0.54219 0.58529 0.0
C923 C 0.4578 0.5395 0.60164 0.0
C924 C 0.4807 0.53307 0.5835 0.0
C925 C 0.44517 0.52849 0.53249 0.0
C926 C 0.4221 0.53452 0.55064 0.0
C927 C 0.50196 0.5348 0.53097 0.0
H928 H 0.78079 0.61605 0.61472 0.0
H929 H 0.74649 0.65172 0.61513 0.0
H930 H 0.67804 0.58398 0.65278 0.0
H931 H 0.71286 0.54857 0.65383 0.0
H932 H 0.46354 0.54522 0.62831 0.0
H933 H 0.50369 0.53378 0.59662 0.0
H934 H 0.44055 0.52599 0.50581 0.0
H935 H 0.40019 0.53675 0.53745 0.0
Dy936 Dy 0.05172 0.58042 0.08133 0.0
Dy937 Dy 0.11257 0.58679 0.04271 0.0
C938 C 0.04812 0.59804 1.00701 0.0
O939 O 0.04755 0.52798 0.06241 0.0
O940 O 0.09111 0.53314 0.03664 0.0
O941 O 1.00185 0.56488 0.08211 0.0
O942 O 1.03355 0.59301 0.12578 0.0
O943 O 0.12979 0.58434 0.0947 0.0
O944 O 0.08433 0.55914 0.11082 0.0
O945 O 0.11202 0.63867 0.05668 0.0
O946 O 0.07894 0.63313 0.09515 0.0
O947 O 0.16154 0.60785 0.04133 0.0
O948 O 0.13482 0.56872 1.00338 0.0
C949 C 0.06642 0.51497 0.04598 0.0
O950 O 1.03446 0.59212 0.03264 0.0
O951 O 0.07709 0.59641 1.00529 0.0
C952 C 0.98434 0.60442 0.11205 0.0
C953 C 0.94476 0.64571 0.10443 0.0
C954 C 0.9777 0.65755 0.10938 0.0
C955 C 0.99729 0.63707 0.11295 0.0
C956 C 0.9516 0.59269 0.10813 0.0
C957 C 0.93199 0.61306 0.10426 0.0
C958 C 1.00431 0.58199 0.11103 0.0
C959 C 0.11506 0.56662 0.11378 0.0
C960 C 0.09888 0.65161 0.08006 0.0
C961 C 0.1856 0.56646 0.02643 0.0
C962 C 0.22268 0.525 0.04419 0.0
C963 C 0.21843 0.54881 0.06804 0.0
C964 C 0.2003 0.56935 0.05925 0.0
C965 C 0.1901 0.54299 1.00242 0.0
C966 C 0.2085 0.52249 1.01119 0.0
C967 C 0.16282 0.58522 0.01815 0.0
H968 H 0.98838 0.68255 0.11003 0.0
H969 H 1.02253 0.64667 0.1155 0.0
H970 H 0.94114 0.56752 0.10681 0.0
H971 H 0.90676 0.60289 0.09984 0.0
H972 H 0.22864 0.55126 0.09374 0.0
H973 H 0.19725 0.58705 0.07843 0.0
H974 H 0.17887 0.54011 0.977 0.0
H975 H 0.21172 0.50478 0.99207 0.0
C976 C 0.07791 0.2248 0.03081 0.0
C977 C 0.04881 0.23156 0.03533 0.0
H978 H 0.10851 0.19312 0.03528 0.0
C979 C 1.02768 0.20779 0.04769 0.0
H980 H 0.09527 0.24191 0.02168 0.0
C981 C 1.03498 0.17896 0.05468 0.0
C982 C 0.06439 0.17257 0.05097 0.0
H983 H 1.005 0.21133 0.0518 0.0
H984 H 1.01757 0.16184 0.06374 0.0
C985 C 0.08565 0.19646 0.0389 0.0
C986 C 0.25552 0.87492 0.20223 0.0
C987 C 0.22299 0.86783 0.20417 0.0
H988 H 0.30282 0.87834 0.22599 0.0
C989 C 0.21433 0.85917 0.23407 0.0
H990 H 0.26346 0.88157 0.17985 0.0
C991 C 0.23692 0.85677 0.26041 0.0
C992 C 0.26938 0.86354 0.25844 0.0
H993 H 0.18975 0.85327 0.2369 0.0
H994 H 0.22877 0.84925 0.28238 0.0
C995 C 0.27826 0.87312 0.22893 0.0
C996 C 0.57196 0.93325 0.50803 0.0
C997 C 0.55547 0.9104 0.52502 0.0
H998 H 0.58893 0.98228 0.50342 0.0
C999 C 0.54256 0.92244 0.55203 0.0
H1000 H 0.58239 0.92562 0.48715 0.0
C1001 C 0.54571 0.95582 0.56106 0.0
C1002 C 0.56254 0.97853 0.54396 0.0
H1003 H 0.52945 0.90606 0.56579 0.0
H1004 H 0.5353 0.96384 0.58179 0.0
C1005 C 0.57573 0.96624 0.51746 0.0
C1006 C 0.55765 0.3245 0.72739 0.0
C1007 C 0.552 0.33367 0.69631 0.0
H1008 H 0.53871 0.30805 0.76871 0.0
C1009 C 0.52091 0.33294 0.68317 0.0
H1010 H 0.58119 0.32438 0.73826 0.0
C1011 C 0.49622 0.32375 0.70111 0.0
C1012 C 0.50214 0.31506 0.73252 0.0
H1013 H 0.51573 0.33982 0.65931 0.0
H1014 H 0.47262 0.32406 0.69067 0.0
C1015 C 0.53319 0.31527 0.7451 0.0
C1016 C 0.07425 0.88974 0.69747 0.0
C1017 C 0.08091 0.86026 0.68905 0.0
H1018 H 0.07719 0.93647 0.68568 0.0
C1019 C 0.09906 0.85684 0.66398 0.0
H1020 H 0.06019 0.89306 0.71658 0.0
C1021 C 0.10925 0.8816 0.64679 0.0
C1022 C 0.10106 0.91052 0.65353 0.0
H1023 H 0.10512 0.83474 0.65706 0.0
H1024 H 0.12318 0.87776 0.62769 0.0
C1025 C 0.08406 0.9146 0.67973 0.0
C1026 C 0.48645 0.87588 0.83116 0.0
C1027 C 0.49758 0.85924 0.8552 0.0
H1028 H 0.44607 0.88427 0.80155 0.0
C1029 C 0.47442 0.83671 0.8663 0.0
H1030 H 0.50304 0.89416 0.82257 0.0
C1031 C 0.44187 0.83149 0.85488 0.0
C1032 C 0.43036 0.84857 0.83164 0.0
H1033 H 0.48153 0.82377 0.88523 0.0
H1034 H 0.42559 0.81434 0.86514 0.0
C1035 C 0.45347 0.87048 0.81945 0.0
C1036 C 0.54503 0.16789 0.16837 0.0
C1037 C 0.52887 0.18969 0.15752 0.0
H1038 H 0.55963 0.12505 0.15574 0.0
C1039 C 0.51122 0.18143 0.1253 0.0
H1040 H 0.5599 0.17379 0.19236 0.0
C1041 C 0.51173 0.15392 0.10381 0.0
C1042 C 0.52984 0.13337 0.11372 0.0
H1043 H 0.49926 0.19796 0.11555 0.0
H1044 H 0.49936 0.14982 0.07871 0.0
C1045 C 0.54531 0.14008 0.14692 0.0
C1046 C 0.17438 0.33364 0.31446 0.0
C1047 C 0.17527 0.35592 0.34289 0.0
H1048 H 0.20008 0.30867 0.28371 0.0
C1049 C 0.20561 0.37066 0.36133 0.0
H1050 H 0.15189 0.32138 0.29939 0.0
C1051 C 0.23344 0.36374 0.35202 0.0
C1052 C 0.23272 0.34113 0.32399 0.0
H1053 H 0.20801 0.38787 0.38336 0.0
H1054 H 0.25576 0.37598 0.36743 0.0
C1055 C 0.20235 0.32621 0.30542 0.0
C1056 C 0.07085 0.09088 0.22213 0.0
C1057 C 1.03934 0.07736 0.22503 0.0
H1058 H 0.10374 0.10687 0.19024 0.0
C1059 C 1.01611 0.07147 0.19683 0.0
H1060 H 0.0893 0.09576 0.24339 0.0
C1061 C 1.02452 0.07715 0.16606 0.0
C1062 C 0.05621 0.08982 0.16304 0.0
H1063 H 0.99168 0.0609 0.19818 0.0
H1064 H 1.00631 0.07084 0.14446 0.0
C1065 C 0.07911 0.09747 0.19168 0.0
C1066 C 0.33987 0.68348 0.47785 0.0
C1067 C 0.31941 0.66261 0.49311 0.0
H1068 H 0.34398 0.71571 0.44315 0.0
C1069 C 0.28694 0.65453 0.48157 0.0
H1070 H 0.36497 0.69049 0.48698 0.0
C1071 C 0.27477 0.67027 0.45789 0.0
C1072 C 0.2951 0.69295 0.44423 0.0
H1073 H 0.27076 0.63887 0.49348 0.0
H1074 H 0.24952 0.66605 0.4519 0.0
C1075 C 0.32781 0.69813 0.4531 0.0
C1076 C 0.67662 0.07155 0.69654 0.0
C1077 C 0.65838 0.0615 0.72044 0.0
H1078 H 0.67635 0.08193 0.6474 0.0
C1079 C 0.62579 0.04864 0.71106 0.0
H1080 H 0.70183 0.08163 0.70316 0.0
C1081 C 0.61123 0.04886 0.6793 0.0
C1082 C 0.62899 0.06227 0.65642 0.0
H1083 H 0.61125 0.04046 0.72897 0.0
H1084 H 0.58581 0.0404 0.67348 0.0
C1085 C 0.66198 0.07208 0.66474 0.0
C1086 C 0.35205 0.35566 0.97355 0.0
C1087 C 0.35456 0.3883 0.98303 0.0
H1088 H 0.34763 0.31749 0.93337 0.0
C1089 C 0.35731 0.40794 0.95881 0.0
H1090 H 0.34997 0.33988 0.99165 0.0
C1091 C 0.35596 0.39525 0.92581 0.0
C1092 C 0.35193 0.36246 0.91585 0.0
H1093 H 0.3596 0.4332 0.96514 0.0
H1094 H 0.35727 0.41121 0.90787 0.0
C1095 C 0.35083 0.34284 0.94022 0.0
C1096 C 1.01226 0.04012 0.41602 0.0
C1097 C 1.02854 0.05831 0.39501 0.0
H1098 H 1.01277 0.02781 0.46473 0.0
C1099 C 0.05917 0.07737 0.40737 0.0
H1100 H 0.9886 0.02527 0.4072 0.0
C1101 C 0.07255 0.07954 0.44047 0.0
C1102 C 0.05614 0.06167 0.46156 0.0
H1103 H 0.07219 0.09187 0.3919 0.0
H1104 H 0.09551 0.09571 0.44981 0.0
C1105 C 1.02615 0.04139 0.44883 0.0
C1106 C 0.34449 0.7273 0.6849 0.0
C1107 C 0.34547 0.74101 0.65612 0.0
H1108 H 0.34212 0.73433 0.73656 0.0
C1109 C 0.34848 0.77391 0.6585 0.0
H1110 H 0.34235 0.7021 0.68396 0.0
C1111 C 0.34787 0.79217 0.68836 0.0
C1112 C 0.34474 0.77806 0.7166 0.0
H1113 H 0.34979 0.78547 0.63696 0.0
H1114 H 0.34891 0.81715 0.68904 0.0
C1115 C 0.34427 0.74575 0.71499 0.0
C1116 C 0.69851 0.10032 0.91208 0.0
C1117 C 0.71423 0.11872 0.89118 0.0
H1118 H 0.66831 0.09847 0.94855 0.0
C1119 C 0.71547 0.1512 0.89434 0.0
H1120 H 0.69698 0.0751 0.9096 0.0
C1121 C 0.69764 0.16418 0.91517 0.0
C1122 C 0.68012 0.14517 0.93448 0.0
H1123 H 0.72785 0.16581 0.87861 0.0
H1124 H 0.69605 0.18836 0.91477 0.0
C1125 C 0.68206 0.11366 0.93415 0.0
C1126 C 0.33152 0.34003 0.15674 0.0
C1127 C 0.3387 0.37225 0.15331 0.0
H1128 H 0.31946 0.3055 0.1878 0.0
C1129 C 0.33754 0.39486 0.18031 0.0
H1130 H 0.33185 0.32189 0.13647 0.0
C1131 C 0.33074 0.38541 0.21047 0.0
C1132 C 0.3243 0.35309 0.21397 0.0
H1133 H 0.34299 0.4199 0.17851 0.0
H1134 H 0.33112 0.40342 0.23116 0.0
C1135 C 0.3242 0.33061 0.18636 0.0
C1136 C 0.27605 1.00312 0.09728 0.0
C1137 C 0.29977 1.01448 0.07916 0.0
H1138 H 0.24205 1.01471 0.1257 0.0
C1139 C 0.31163 0.04745 0.08107 0.0
H1140 H 0.26705 0.97787 0.09689 0.0
C1141 C 0.29731 0.06854 0.09756 0.0
C1142 C 0.27118 0.0568 0.11242 0.0
H1143 H 0.33032 0.05685 0.06775 0.0
H1144 H 0.30464 0.09355 0.09584 0.0
C1145 C 0.26205 0.0242 0.11408 0.0
C1146 C 0.68336 0.70074 0.03698 0.0
C1147 C 0.71208 0.69394 0.0323 0.0
H1148 H 0.63662 0.68331 0.04676 0.0
C1149 C 0.71435 0.66234 0.03154 0.0
H1150 H 0.68072 0.72471 0.03778 0.0
C1151 C 0.68893 0.63844 0.03655 0.0
C1152 C 0.66083 0.64569 0.04297 0.0
H1153 H 0.7361 0.65619 0.02788 0.0
H1154 H 0.69168 0.61458 0.03655 0.0
C1155 C 0.65815 0.67699 0.04246 0.0
C1156 C 0.70123 0.50711 0.31331 0.0
C1157 C 0.70453 0.53527 0.30009 0.0
H1158 H 0.71778 0.4655 0.31686 0.0
C1159 C 0.72437 0.54104 0.27648 0.0
H1160 H 0.68622 0.50234 0.33176 0.0
C1161 C 0.74192 0.51983 0.26739 0.0
C1162 C 0.74054 0.49266 0.28227 0.0
H1163 H 0.72698 0.5625 0.26562 0.0
H1164 H 0.75721 0.52521 0.24934 0.0
C1165 C 0.71932 0.48606 0.30469 0.0
C1166 C 0.94306 0.46477 0.5097 0.0
C1167 C 0.91594 0.47377 0.49779 0.0
H1168 H 0.99261 0.48007 0.5277 0.0
C1169 C 0.91868 0.50474 0.49094 0.0
H1170 H 0.94144 0.44124 0.51584 0.0
C1171 C 0.94811 0.5268 0.49721 0.0
C1172 C 0.97466 0.51832 0.51158 0.0
H1173 H 0.89792 0.51222 0.48221 0.0
H1174 H 0.94983 0.55084 0.49261 0.0
C1175 C 0.97215 0.48706 0.51704 0.0
C1176 C 0.36277 0.08866 0.27716 0.0
C1177 C 0.39498 0.10177 0.28959 0.0
H1178 H 0.31922 0.09747 0.25724 0.0
C1179 C 0.40929 0.1328 0.28552 0.0
H1180 H 0.35126 0.06455 0.27951 0.0
C1181 C 0.39088 0.1516 0.27268 0.0
C1182 C 0.35805 0.13947 0.26355 0.0
H1183 H 0.43411 0.14335 0.29465 0.0
H1184 H 0.4019 0.17632 0.27217 0.0
C1185 C 0.34444 0.10735 0.26408 0.0
C1186 C 0.40944 0.21384 0.57628 0.0
C1187 C 0.37719 0.19995 0.57475 0.0
H1188 H 0.45646 0.20859 0.58696 0.0
C1189 C 0.36776 0.17002 0.58431 0.0
H1190 H 0.41739 0.23695 0.56922 0.0
C1191 C 0.38985 0.15381 0.59418 0.0
C1192 C 0.42209 0.16711 0.59497 0.0
H1193 H 0.34309 0.15859 0.58351 0.0
H1194 H 0.38144 0.13026 0.60004 0.0
C1195 C 0.43173 0.19753 0.58631 0.0
C1196 C 0.71307 0.73528 0.35125 0.0
C1197 C 0.71591 0.70386 0.34678 0.0
H1198 H 0.73452 0.78419 0.34993 0.0
C1199 C 0.74447 0.69839 0.3389 0.0
H1200 H 0.69151 0.74044 0.35728 0.0
C1201 C 0.76896 0.72333 0.33433 0.0
C1202 C 0.7658 0.75457 0.3378 0.0
H1203 H 0.74773 0.67457 0.3353 0.0
H1204 H 0.79021 0.71798 0.32759 0.0
C1205 C 0.73777 0.76036 0.34694 0.0
C1206 C 0.89498 0.49447 0.87829 0.0
C1207 C 0.92777 0.49809 0.88347 0.0
H1208 H 0.84924 0.46214 0.8634 0.0
C1209 C 0.93935 0.47099 0.88285 0.0
H1210 H 0.88545 0.51506 0.8788 0.0
C1211 C 0.91873 0.4409 0.87328 0.0
C1212 C 0.8862 0.43744 0.86479 0.0
H1213 H 0.96446 0.47299 0.88667 0.0
H1214 H 0.92845 0.42042 0.87111 0.0
C1215 C 0.87429 0.46427 0.86914 0.0
C1216 C 0.13213 0.96724 0.14064 0.0
C1217 C 0.12439 0.93713 0.11992 0.0
H1218 H 0.13317 1.01718 0.14673 0.0
C1219 C 0.11027 0.93679 0.08698 0.0
H1220 H 0.14284 0.96938 0.16611 0.0
C1221 C 0.10375 0.96468 0.07584 0.0
C1222 C 0.11172 0.99483 0.09669 0.0
H1223 H 0.10342 0.9146 0.0698 0.0
H1224 H 0.09245 0.96253 0.05059 0.0
C1225 C 0.12645 0.99515 0.12931 0.0
C1226 C 0.94741 0.30602 0.92018 0.0
C1227 C 0.94924 0.31699 0.95411 0.0
H1228 H 0.92263 0.30058 0.87077 0.0
C1229 C 0.92507 0.33055 0.9635 0.0
H1230 H 0.96541 0.29556 0.9117 0.0
C1231 C 0.90049 0.3337 0.93987 0.0
C1232 C 0.89895 0.3232 0.9059 0.0
H1233 H 0.92546 0.33948 0.98923 0.0
H1234 H 0.88286 0.34479 0.94828 0.0
C1235 C 0.92268 0.30893 0.89657 0.0
C1236 C 0.63478 0.24137 0.58477 0.0
C1237 C 0.62029 0.2575 0.6077 0.0
H1238 H 0.63995 0.19706 0.56 0.0
C1239 C 0.59835 0.23787 0.62326 0.0
H1240 H 0.65183 0.25488 0.57201 0.0
C1241 C 0.5913 0.20395 0.6161 0.0
C1242 C 0.60601 0.18796 0.5932 0.0
H1243 H 0.58643 0.2487 0.64103 0.0
H1244 H 0.57422 0.19021 0.62867 0.0
C1245 C 0.62791 0.20768 0.5778 0.0
C1246 C 0.61933 0.81851 0.41193 0.0
C1247 C 0.62482 0.8304 0.44596 0.0
H1248 H 0.63729 0.81787 0.3663 0.0
C1249 C 0.6546 0.85038 0.46031 0.0
H1250 H 0.59672 0.80302 0.40001 0.0
C1251 C 0.67794 0.85907 0.44079 0.0
C1252 C 0.67192 0.84815 0.40649 0.0
H1253 H 0.65954 0.86012 0.4864 0.0
H1254 H 0.70033 0.87519 0.45239 0.0
C1255 C 0.64251 0.8273 0.39247 0.0
C1256 C 0.10467 0.28376 0.44677 0.0
C1257 C 0.08027 0.28933 0.42509 0.0
H1258 H 0.11738 0.25627 0.48293 0.0
C1259 C 0.05024 0.26813 0.41998 0.0
H1260 H 0.12774 0.30041 0.45192 0.0
C1261 C 0.04404 0.24328 0.43817 0.0
C1262 C 0.06781 0.23917 0.46186 0.0
H1263 H 1.03085 0.27249 0.40406 0.0
H1264 H 1.02024 0.22833 0.43495 0.0
C1265 C 0.09857 0.25872 0.46481 0.0
C1266 C 0.6645 0.28287 0.27172 0.0
C1267 C 0.65433 0.30254 0.25042 0.0
H1268 H 0.70402 0.27131 0.29976 0.0
C1269 C 0.67818 0.32714 0.24312 0.0
H1270 H 0.6474 0.26316 0.27756 0.0
C1271 C 0.7104 0.33132 0.25502 0.0
C1272 C 0.72107 0.31135 0.27538 0.0
H1273 H 0.67196 0.34284 0.22676 0.0
H1274 H 0.72711 0.35013 0.24736 0.0
C1275 C 0.69728 0.28733 0.28413 0.0
C1276 C 0.59877 0.98334 0.92007 0.0
C1277 C 0.60348 0.95555 0.93148 0.0
H1278 H 0.58797 0.02881 0.9321 0.0
C1279 C 0.60302 0.95432 0.96527 0.0
H1280 H 0.59897 0.98539 0.89432 0.0
C1281 C 0.59679 0.97872 0.98653 0.0
C1282 C 0.59074 1.00595 0.97537 0.0
H1283 H 0.60694 0.93387 0.97557 0.0
H1284 H 0.59618 0.97578 1.01204 0.0
C1285 C 0.59253 1.00832 0.94182 0.0
C1286 C 0.94078 0.77007 0.73884 0.0
C1287 C 0.97108 0.78202 0.75845 0.0
H1288 H 0.89038 0.76445 0.73427 0.0
C1289 C 0.97168 0.79837 0.79049 0.0
H1290 H 0.93868 0.75758 0.714 0.0
C1291 C 0.94373 0.80342 0.80181 0.0
C1292 C 0.9134 0.79134 0.78224 0.0
H1293 H 0.9941 0.80849 0.80656 0.0
H1294 H 0.94597 0.81703 0.82615 0.0
C1295 C 0.91272 0.77403 0.75063 0.0
C1296 C 0.11514 0.08993 0.92041 0.0
C1297 C 0.14725 0.09434 0.9181 0.0
H1298 H 0.07927 0.082 0.95081 0.0
C1299 C 0.16812 0.09405 0.94676 0.0
H1300 H 0.09829 0.08983 0.89899 0.0
C1301 C 0.1572 0.08958 0.9768 0.0
C1302 C 0.12499 0.08494 0.97902 0.0
H1303 H 0.19302 0.09728 0.94601 0.0
H1304 H 0.17402 0.08977 0.99828 0.0
C1305 C 0.1042 0.0852 0.95028 0.0
C1306 C 0.87471 0.43717 0.64289 0.0
C1307 C 0.88671 0.42966 0.61405 0.0
H1308 H 0.87592 0.43288 0.69372 0.0
C1309 C 0.91454 0.41945 0.61609 0.0
H1310 H 0.85346 0.44543 0.64187 0.0
C1311 C 0.92795 0.413 0.64587 0.0
C1312 C 0.91324 0.416 0.67377 0.0
H1313 H 0.92471 0.41441 0.59416 0.0
H1314 H 0.94805 0.40291 0.6463 0.0
C1315 C 0.88783 0.43022 0.67264 0.0
C1316 C 0.48133 0.10003 0.45159 0.0
C1317 C 0.49283 0.09645 0.42173 0.0
H1318 H 0.49082 0.10218 0.50389 0.0
C1319 C 0.52469 0.09663 0.42226 0.0
H1320 H 0.45684 0.09981 0.4518 0.0
C1321 C 0.54417 0.09789 0.4519 0.0
C1322 C 0.53203 0.09867 0.48157 0.0
H1323 H 0.53415 0.09406 0.39946 0.0
H1324 H 0.56815 0.09638 0.45125 0.0
C1325 C 0.50076 0.10102 0.48131 0.0
C1326 C 0.83224 0.77978 0.1617 0.0
C1327 C 0.80934 0.78907 0.14125 0.0
H1328 H 0.85491 0.78119 0.21095 0.0
C1329 C 0.79115 0.8074 0.15624 0.0
H1330 H 0.84675 0.76574 0.15111 0.0
C1331 C 0.7955 0.81588 0.19074 0.0
C1332 C 0.81857 0.80678 0.21112 0.0
H1333 H 0.77318 0.81486 0.14132 0.0
H1334 H 0.78095 0.82981 0.2014 0.0
C1335 C 0.83698 0.78875 0.19609 0.0
C1336 C 0.13856 0.09 0.71848 0.0
C1337 C 0.12151 0.10431 0.73961 0.0
H1338 H 0.14469 0.0756 0.66893 0.0
C1339 C 0.09634 0.11525 0.72507 0.0
H1340 H 0.15809 0.08127 0.72848 0.0
C1341 C 0.08856 0.112 0.69051 0.0
C1342 C 0.10578 0.09779 0.66948 0.0
H1343 H 0.08261 0.12645 0.7404 0.0
H1344 H 0.06905 0.12064 0.68032 0.0
C1345 C 0.13085 0.08682 0.68408 0.0
C1346 C 0.79757 0.42401 0.42714 0.0
C1347 C 0.79709 0.40878 0.45492 0.0
H1348 H 0.80176 0.42042 0.37586 0.0
C1349 C 0.79709 0.3765 0.45113 0.0
H1350 H 0.79767 0.44888 0.42934 0.0
C1351 C 0.79989 0.36038 0.42082 0.0
C1352 C 0.80243 0.37607 0.39348 0.0
H1353 H 0.79643 0.36399 0.47203 0.0
H1354 H 0.80101 0.33585 0.41914 0.0
C1355 C 0.80012 0.40773 0.39659 0.0
C1356 C 0.45067 1.00908 0.24374 0.0
C1357 C 0.45988 0.99542 0.27094 0.0
H1358 H 0.4565 1.0158 0.19463 0.0
C1359 C 0.47651 0.97204 0.26666 0.0
H1360 H 0.43776 0.02712 0.24627 0.0
C1361 C 0.48689 0.96515 0.23683 0.0
C1362 C 0.48104 0.98169 0.21086 0.0
H1363 H 0.48328 0.96057 0.28705 0.0
H1364 H 0.50106 0.9482 0.23479 0.0
C1365 C 0.46143 1.0025 0.21403 0.0
C1366 C 0.82747 0.79455 0.96191 0.0
C1367 C 0.81664 0.76196 0.96321 0.0
H1368 H 0.84047 0.83033 0.93175 0.0
C1369 C 0.81039 0.74021 0.93354 0.0
H1370 H 0.83279 0.81196 0.98428 0.0
C1371 C 0.81441 0.75076 0.90335 0.0
C1372 C 0.82557 0.78333 0.90204 0.0
H1373 H 0.80213 0.71495 0.93359 0.0
H1374 H 0.80892 0.73331 0.881 0.0
C1375 C 0.83221 0.80507 0.9318 0.0
C1376 C 0.8902 0.14103 0.04656 0.0
C1377 C 0.86757 0.13383 0.06716 0.0
H1378 H 0.92559 0.12605 0.0228 0.0
C1379 C 0.8642 0.10581 0.08089 0.0
H1380 H 0.89328 0.16243 0.0356 0.0
C1381 C 0.88256 0.08489 0.07336 0.0
C1382 C 0.90432 0.09157 0.05178 0.0
H1383 H 0.84686 0.09965 0.09681 0.0
H1384 H 0.87926 0.06319 0.0838 0.0
C1385 C 0.90835 0.12002 0.03886 0.0
C1386 C 0.44487 0.49294 0.07441 0.0
C1387 C 0.44807 0.46205 0.07656 0.0
H1388 H 0.46777 0.5411 0.07136 0.0
C1389 C 0.47827 0.45683 0.07901 0.0
H1390 H 0.42187 0.49777 0.07223 0.0
C1391 C 0.50462 0.48183 0.07901 0.0
C1392 C 0.50129 0.5125 0.07587 0.0
H1393 H 0.48155 0.43338 0.08071 0.0
H1394 H 0.52754 0.47686 0.08058 0.0
C1395 C 0.47113 0.5178 0.07374 0.0
C1396 C 0.46245 0.65778 0.82702 0.0
C1397 C 0.44996 0.62858 0.80568 0.0
H1398 H 0.45301 0.69986 0.8516 0.0
C1399 C 0.41828 0.62082 0.7904 0.0
H1400 H 0.48671 0.66433 0.83934 0.0
C1401 C 0.39901 0.64086 0.79767 0.0
C1402 C 0.41097 0.66927 0.82026 0.0
H1403 H 0.40792 0.5986 0.77368 0.0
H1404 H 0.37456 0.63386 0.78592 0.0
C1405 C 0.44312 0.67802 0.83417 0.0
C1406 C 0.20428 0.663 0.54374 0.0
C1407 C 0.22773 0.64922 0.55657 0.0
H1408 H 0.15511 0.6591 0.53173 0.0
C1409 C 0.21866 0.61968 0.56721 0.0
H1410 H 0.21038 0.68566 0.53529 0.0
C1411 C 0.18683 0.60421 0.56492 0.0
C1412 C 0.16343 0.61808 0.55219 0.0
H1413 H 0.23613 0.60829 0.57713 0.0
H1414 H 0.1806 0.58144 0.57313 0.0
C1415 C 0.17252 0.64769 0.54173 0.0
C1416 C 0.77216 1.00644 0.81141 0.0
C1417 C 0.78036 0.03538 0.79969 0.0
H1418 H 0.78818 0.96819 0.82841 0.0
C1419 C 0.81098 0.04638 0.79272 0.0
H1420 H 0.74872 0.99723 0.81677 0.0
C1421 C 0.83359 0.02957 0.79939 0.0
C1422 C 0.82568 1.0019 0.81327 0.0
H1423 H 0.81787 0.06864 0.78365 0.0
H1424 H 0.85741 0.03877 0.79504 0.0
C1425 C 0.7947 0.98994 0.81828 0.0
C1426 C 0.75704 0.94836 0.55325 0.0
C1427 C 0.78572 0.96129 0.57489 0.0
H1428 H 0.71531 0.95718 0.52821 0.0
C1429 C 0.79276 0.99315 0.59042 0.0
H1430 H 0.75106 0.92396 0.54071 0.0
C1431 C 0.77245 1.01216 0.58317 0.0
C1432 C 0.74456 0.99979 0.56024 0.0
H1433 H 0.8146 1.00383 0.60734 0.0
H1434 H 0.77887 0.03675 0.5952 0.0
C1435 C 0.73663 0.96743 0.54601 0.0
C1436 C 0.45516 0.43215 0.80427 0.0
C1437 C 0.44966 0.46139 0.79892 0.0
H1438 H 0.43542 0.3841 0.80908 0.0
C1439 C 0.41822 0.46345 0.79207 0.0
H1440 H 0.47894 0.42954 0.80932 0.0
C1441 C 0.39295 0.43722 0.7921 0.0
C1442 C 0.39865 0.40845 0.799 0.0
H1443 H 0.41307 0.48563 0.78775 0.0
H1444 H 0.36912 0.43983 0.78787 0.0
C1445 C 0.43004 0.40606 0.80423 0.0
C1446 C 0.24966 0.73306 0.25458 0.0
C1447 C 0.25721 0.70426 0.25831 0.0
H1448 H 0.26698 0.78369 0.26108 0.0
C1449 C 0.28917 0.70382 0.2638 0.0
H1450 H 0.22534 0.73417 0.25 0.0
C1451 C 0.31278 0.73212 0.2706 0.0
C1452 C 0.30487 0.76107 0.27081 0.0
H1453 H 0.29596 0.68199 0.26618 0.0
H1454 H 0.33686 0.73155 0.27874 0.0
C1455 C 0.27349 0.76138 0.26064 0.0
C1456 C 0.55733 0.70994 0.51231 0.0
C1457 C 0.55867 0.73549 0.53768 0.0
H1458 H 0.56164 0.66191 0.49881 0.0
C1459 C 0.56737 0.7303 0.57032 0.0
H1460 H 0.55061 0.71221 0.48683 0.0
C1461 C 0.57481 0.70159 0.57722 0.0
C1462 C 0.57272 0.67574 0.55197 0.0
H1463 H 0.5688 0.74881 0.5909 0.0
H1464 H 0.58158 0.69941 0.60271 0.0
C1465 C 0.56358 0.68069 0.5193 0.0
C1466 C 0.71566 0.36524 0.73166 0.0
C1467 C 0.72283 0.36744 0.69964 0.0
H1468 H 0.73135 0.36085 0.78166 0.0
C1469 C 0.75412 0.36822 0.69514 0.0
H1470 H 0.69205 0.36443 0.73651 0.0
C1471 C 0.77707 0.36629 0.7215 0.0
C1472 C 0.76952 0.36324 0.75328 0.0
H1473 H 0.76082 0.36977 0.67103 0.0
H1474 H 0.80058 0.36643 0.71671 0.0
C1475 C 0.73842 0.36308 0.7578 0.0
C1476 C 1.03876 0.42349 0.04803 0.0
C1477 C 0.05126 0.40978 0.02162 0.0
H1478 H 1.03269 0.4664 0.07595 0.0
C1479 C 0.06854 0.43135 1.00383 0.0
H1480 H 1.02505 0.40818 0.06233 0.0
C1481 C 0.07338 0.46471 1.01194 0.0
C1482 C 0.06047 0.47859 0.03777 0.0
H1483 H 0.07869 0.42239 0.98331 0.0
H1484 H 0.08707 0.47972 0.99737 0.0
C1485 C 0.04295 0.45715 0.05568 0.0
C1486 C 0.05811 0.82105 0.22662 0.0
C1487 C 0.05232 0.83115 0.19605 0.0
H1488 H 1.0395 0.80391 0.26778 0.0
C1489 C 1.02127 0.83101 0.18347 0.0
H1490 H 0.08161 0.8204 0.23702 0.0
C1491 C 0.99677 0.82167 0.20162 0.0
C1492 C 1.00292 0.81229 0.23263 0.0
H1493 H 1.01601 0.8386 0.16 0.0
H1494 H 0.9732 0.82253 0.19173 0.0
C1495 C 1.03387 0.81171 0.24451 0.0
C1496 C 0.5826 0.38973 0.20206 0.0
C1497 C 0.57507 0.35821 0.18543 0.0
H1498 H 0.59958 0.43923 0.1991 0.0
C1499 C 0.57959 0.35281 0.15236 0.0
H1500 H 0.57943 0.39471 0.22754 0.0
C1501 C 0.59091 0.37803 0.13612 0.0
C1502 C 0.59821 0.40964 0.15237 0.0
H1503 H 0.5739 0.32891 0.13858 0.0
H1504 H 0.59306 0.37263 0.11037 0.0
C1505 C 0.59402 0.41521 0.18568 0.0
C1506 C 0.97825 0.38917 0.34901 0.0
C1507 C 0.99362 0.36445 0.35004 0.0
H1508 H 0.93478 0.4029 0.33954 0.0
C1509 C 0.97441 0.33308 0.34051 0.0
H1510 H 0.99174 0.41359 0.35732 0.0
C1511 C 0.94121 0.32678 0.33113 0.0
C1512 C 0.92577 0.35159 0.33088 0.0
H1513 H 0.98481 0.31325 0.34223 0.0
H1514 H 0.92751 0.30226 0.32491 0.0
C1515 C 0.94522 0.38294 0.33923 0.0
C1516 C 0.05723 0.67198 0.66691 0.0
C1517 C 1.0383 0.69205 0.65762 0.0
H1518 H 0.07573 0.6322 0.65196 0.0
C1519 C 1.01994 0.68359 0.62578 0.0
H1520 H 0.07269 0.67826 0.69056 0.0
C1521 C 1.02233 0.65769 0.60313 0.0
C1522 C 0.04323 0.63919 0.61147 0.0
H1523 H 1.00591 0.69898 0.6172 0.0
H1524 H 1.00913 0.65339 0.57839 0.0
C1525 C 0.05951 0.64586 0.64429 0.0
C1526 C 0.68096 0.83749 0.81974 0.0
C1527 C 0.68203 0.85967 0.84832 0.0
H1528 H 0.70611 0.81197 0.78887 0.0
C1529 C 0.71252 0.87368 0.86693 0.0
H1530 H 0.65843 0.82572 0.80449 0.0
C1531 C 0.74021 0.86613 0.85761 0.0
C1532 C 0.73921 0.84356 0.8294 0.0
H1533 H 0.71512 0.89076 0.88911 0.0
H1534 H 0.76262 0.87778 0.87315 0.0
C1535 C 0.7087 0.82945 0.81072 0.0
C1536 C 0.52225 0.57436 0.69923 0.0
C1537 C 0.54268 0.56718 0.72444 0.0
H1538 H 0.51584 0.58535 0.64996 0.0
C1539 C 0.57332 0.56685 0.71892 0.0
H1540 H 0.49849 0.57484 0.70255 0.0
C1541 C 0.58316 0.5729 0.68913 0.0
C1542 C 0.56269 0.57931 0.66355 0.0
H1543 H 0.58993 0.56171 0.73766 0.0
H1544 H 0.60686 0.57195 0.68603 0.0
C1545 C 0.53212 0.58022 0.66902 0.0
C1546 C 0.7415 0.20551 0.9947 0.0
C1547 C 0.76667 0.19187 0.99053 0.0
H1548 H 0.71831 0.24077 0.98144 0.0
C1549 C 0.78191 0.19626 0.96326 0.0
H1550 H 0.72914 0.20196 0.01534 0.0
C1551 C 0.77562 0.21833 0.94372 0.0
C1552 C 0.75412 0.23603 0.95151 0.0
H1553 H 0.8015 0.18604 0.95976 0.0
H1554 H 0.79004 0.22414 0.92498 0.0
C1555 C 0.73526 0.22768 0.9753 0.0
C1556 C 0.18387 0.56968 0.17824 0.0
C1557 C 0.16785 0.56079 0.204 0.0
H1558 H 0.17917 0.57929 0.12898 0.0
C1559 C 0.13572 0.54472 0.19672 0.0
H1560 H 0.20872 0.58184 0.18317 0.0
C1561 C 0.1186 0.54373 0.16579 0.0
C1562 C 0.13367 0.55846 0.14193 0.0
H1563 H 0.12302 0.53722 0.21624 0.0
H1564 H 0.09324 0.53441 0.16192 0.0
C1565 C 0.16675 0.56882 0.14732 0.0
C1566 C 0.85964 0.9077 0.46203 0.0
C1567 C 0.85738 0.88771 0.48593 0.0
H1568 H 0.85961 0.91176 0.41129 0.0
C1569 C 0.85558 0.85528 0.47605 0.0
H1570 H 0.86135 0.93281 0.46867 0.0
C1571 C 0.85466 0.84299 0.44263 0.0
C1572 C 0.85539 0.86293 0.41858 0.0
H1573 H 0.85389 0.83925 0.49392 0.0
H1574 H 0.85206 0.81777 0.43548 0.0
C1575 C 0.85863 0.89553 0.42895 0.0
C1576 C 0.55134 0.54862 0.90251 0.0
C1577 C 0.52294 0.55737 0.89489 0.0
H1578 H 0.58696 0.54393 0.94094 0.0
C1579 C 0.50787 0.56667 0.92096 0.0
H1580 H 0.56349 0.54131 0.88295 0.0
C1581 C 0.52149 0.56863 0.95376 0.0
C1582 C 0.55011 0.56059 0.96148 0.0
H1583 H 0.48608 0.57366 0.91609 0.0
H1584 H 0.50986 0.57712 0.97328 0.0
C1585 C 0.56467 0.54989 0.9356 0.0
C1586 C 0.85257 0.28661 0.16159 0.0
C1587 C 0.84223 0.25323 0.15459 0.0
H1588 H 0.85912 0.3285 0.19717 0.0
C1589 C 0.83672 0.23621 0.1806 0.0
H1590 H 0.85731 0.3003 0.14199 0.0
C1591 C 0.83729 0.25237 0.2121 0.0
C1592 C 0.84373 0.28574 0.21805 0.0
H1593 H 0.82879 0.21049 0.17598 0.0
H1594 H 0.83064 0.23863 0.23118 0.0
C1595 C 0.85338 0.30277 0.19313 0.0
C1596 C 0.16738 0.66467 0.34359 0.0
C1597 C 0.19687 0.65952 0.35431 0.0
H1598 H 0.12525 0.67373 0.35733 0.0
C1599 C 0.20969 0.66749 0.3878 0.0
H1600 H 0.1571 0.65927 0.3177 0.0
C1601 C 0.19172 0.67688 0.41076 0.0
C1602 C 0.16032 0.6774 0.40038 0.0
H1603 H 0.2323 0.66356 0.39627 0.0
H1604 H 0.20124 0.68073 0.43679 0.0
C1605 C 0.1492 0.67348 0.36642 0.0
C1606 C 0.84217 0.89102 0.68287 0.0
C1607 C 0.84622 0.86928 0.65658 0.0
H1608 H 0.83367 0.89861 0.73308 0.0
C1609 C 0.84298 0.83751 0.66093 0.0
H1610 H 0.84456 0.9157 0.68043 0.0
C1611 C 0.83644 0.82773 0.69063 0.0
C1612 C 0.83321 0.84941 0.71733 0.0
H1613 H 0.84564 0.81996 0.64129 0.0
H1614 H 0.83454 0.80304 0.69273 0.0
C1615 C 0.83599 0.88124 0.71307 0.0
C1616 C 0.81099 0.5394 0.60589 0.0
C1617 C 0.79229 0.50956 0.58955 0.0
H1618 H 0.81241 0.58422 0.63418 0.0
C1619 C 0.76019 0.50101 0.59194 0.0
H1620 H 0.836 0.54637 0.605 0.0
C1621 C 0.74652 0.5229 0.60818 0.0
C1622 C 0.76484 0.55363 0.62279 0.0
H1623 H 0.74527 0.47809 0.57968 0.0
H1624 H 0.72124 0.5163 0.60735 0.0
C1625 C 0.79748 0.5611 0.6226 0.0
C1626 C 0.21298 0.16371 0.52649 0.0
C1627 C 0.21138 0.19566 0.53079 0.0
H1628 H 0.1907 0.11535 0.52987 0.0
C1629 C 0.18438 0.20275 0.54082 0.0
H1630 H 0.23353 0.15743 0.51884 0.0
C1631 C 0.16034 0.1788 0.54796 0.0
C1632 C 0.16226 0.14696 0.54458 0.0
H1633 H 0.18246 0.22704 0.54474 0.0
H1634 H 0.14041 0.18549 0.55669 0.0
C1635 C 0.18854 0.13958 0.53298 0.0
C1636 C 0.23985 0.04446 0.79027 0.0
C1637 C 0.21165 0.03425 0.8026 0.0
H1638 H 0.27949 0.03236 0.77298 0.0
C1639 C 0.20052 1.00188 0.80424 0.0
H1640 H 0.24909 0.06923 0.78848 0.0
C1641 C 0.21806 0.98041 0.79488 0.0
C1642 C 0.24691 0.99101 0.78366 0.0
H1643 H 0.17882 0.99333 0.81353 0.0
H1644 H 0.20924 0.95563 0.79683 0.0
C1645 C 0.25724 0.0232 0.781 0.0
C1646 C 0.41456 1.00134 0.973 0.0
C1647 C 0.41042 0.96932 0.97688 0.0
H1648 H 0.44619 0.04808 0.98272 0.0
C1649 C 0.43658 0.95889 0.98899 0.0
H1650 H 0.39457 1.00992 0.96402 0.0
C1651 C 0.4654 0.98083 1.00106 0.0
C1652 C 0.46869 1.01322 1.00005 0.0
H1653 H 0.43396 0.93447 0.99267 0.0
H1654 H 0.48477 0.97269 1.01254 0.0
C1655 C 0.44378 0.02318 0.98417 0.0
C1656 C 0.90668 0.65065 0.78103 0.0
C1657 C 0.89828 0.61826 0.7833 0.0
H1658 H 0.8914 0.68984 0.76577 0.0
C1659 C 0.86901 0.5992 0.76643 0.0
H1660 H 0.92917 0.66584 0.79372 0.0
C1661 C 0.84756 0.6127 0.74952 0.0
C1662 C 0.8547 0.64568 0.74975 0.0
H1663 H 0.8622 0.57396 0.76723 0.0
H1664 H 0.82479 0.59751 0.73768 0.0
C1665 C 0.88503 0.6643 0.76463 0.0
C1666 C 0.90926 0.70755 0.06876 0.0
C1667 C 0.87965 0.70098 0.07881 0.0
H1668 H 0.95294 0.69468 0.0683 0.0
C1669 C 0.87286 0.67849 0.09981 0.0
H1670 H 0.91499 0.72474 0.05247 0.0
C1671 C 0.89464 0.66179 0.10943 0.0
C1672 C 0.92357 0.66671 0.09778 0.0
H1673 H 0.85035 0.67333 0.10836 0.0
H1674 H 0.88846 0.64446 0.12546 0.0
C1675 C 0.93099 0.69038 0.07797 0.0
C1676 C 0.21196 0.23135 0.85321 0.0
C1677 C 0.21526 0.20014 0.84805 0.0
H1678 H 0.23239 0.28041 0.85194 0.0
C1679 C 0.24351 0.19521 0.83866 0.0
H1680 H 0.19066 0.23611 0.86048 0.0
C1681 C 0.26714 0.22046 0.83314 0.0
C1682 C 0.26344 0.25149 0.83719 0.0
H1683 H 0.24712 0.17155 0.83447 0.0
H1684 H 0.28809 0.21548 0.82513 0.0
C1685 C 0.23587 0.25674 0.84806 0.0
C1686 C 0.40615 0.96407 0.42265 0.0
C1687 C 0.39908 0.98644 0.40361 0.0
H1688 H 0.39257 0.9159 0.43034 0.0
C1689 C 0.36798 0.98114 0.38694 0.0
H1690 H 0.42951 0.96773 0.43657 0.0
C1691 C 0.34672 0.95134 0.38352 0.0
C1692 C 0.35649 0.92693 0.39691 0.0
H1693 H 0.36134 0.99834 0.37285 0.0
H1694 H 0.32494 0.94612 0.36618 0.0
C1695 C 0.38478 0.93445 0.41944 0.0
C1696 C 0.60585 0.43687 0.58916 0.0
C1697 C 0.62656 0.43762 0.61855 0.0
H1698 H 0.58365 0.46294 0.5564 0.0
C1699 C 0.64216 0.46849 0.63613 0.0
H1700 H 0.59281 0.41411 0.57476 0.0
C1701 C 0.63767 0.49684 0.62491 0.0
C1702 C 0.61629 0.49616 0.59607 0.0
H1703 H 0.6581 0.47082 0.65895 0.0
H1704 H 0.65036 0.51954 0.63968 0.0
C1705 C 0.60044 0.46527 0.57857 0.0
C1706 C 0.42665 0.8181 0.46095 0.0
C1707 C 0.45556 0.81416 0.45253 0.0
H1708 H 0.38062 0.82402 0.44454 0.0
C1709 C 0.4587 0.81197 0.41886 0.0
H1710 H 0.42311 0.81999 0.48646 0.0
C1711 C 0.43431 0.81455 0.39472 0.0
C1712 C 0.40568 0.81918 0.40324 0.0
H1713 H 0.48047 0.80909 0.41112 0.0
H1714 H 0.43818 0.81343 0.36934 0.0
C1715 C 0.40213 0.82042 0.43675 0.0
C1716 C 0.13509 0.74213 0.08196 0.0
C1717 C 0.12189 0.75773 0.10662 0.0
H1718 H 0.13876 0.69824 0.05458 0.0
C1719 C 0.10086 0.73753 0.12261 0.0
H1720 H 0.15137 0.75607 0.06875 0.0
C1721 C 0.09351 0.70366 0.1143 0.0
C1722 C 0.10681 0.68818 0.08959 0.0
H1723 H 0.08995 0.7479 0.14169 0.0
H1724 H 0.07723 0.68956 0.12738 0.0
C1725 C 0.12779 0.70844 0.07371 0.0
C1726 C 0.14596 0.34789 0.95588 0.0
C1727 C 0.11639 0.32679 0.94295 0.0
H1728 H 0.19125 0.37192 0.94622 0.0
C1729 C 0.11053 0.3128 0.90948 0.0
H1730 H 0.1512 0.35922 0.98151 0.0
C1731 C 0.13325 0.32033 0.8892 0.0
C1732 C 0.16257 0.34207 0.90176 0.0
H1733 H 0.08796 0.29661 0.8986 0.0
H1734 H 0.12737 0.30977 0.86333 0.0
C1735 C 0.16878 0.35547 0.93551 0.0
C1736 C 0.61394 0.79286 0.96128 0.0
C1737 C 0.5939 0.79417 0.93265 0.0
H1738 H 0.62138 0.76835 1.0018 0.0
C1739 C 0.56766 0.7684 0.92015 0.0
H1740 H 0.63398 0.81274 0.97173 0.0
C1741 C 0.55993 0.74321 0.93781 0.0
C1742 C 0.57829 0.74356 0.96831 0.0
H1743 H 0.55135 0.76931 0.89866 0.0
H1744 H 0.5382 0.72491 0.92897 0.0
C1745 C 0.60631 0.76777 0.97885 0.0
C1746 C 0.17103 0.77549 0.76215 0.0
C1747 C 0.15821 0.80116 0.75586 0.0
H1748 H 0.21261 0.75941 0.7765 0.0
C1749 C 0.17968 0.83149 0.76145 0.0
H1750 H 0.1559 0.75154 0.75681 0.0
C1751 C 0.21236 0.83602 0.77213 0.0
C1752 C 0.22551 0.81033 0.77737 0.0
H1753 H 0.17136 0.85179 0.75574 0.0
H1754 H 0.22754 0.85984 0.77515 0.0
C1755 C 0.20394 0.78 0.77293 0.0
C1756 C 0.10181 0.4547 0.45828 0.0
C1757 C 0.10034 0.45402 0.42405 0.0
H1758 H 0.09795 0.47885 0.5049 0.0
C1759 C 0.09489 0.48092 0.41125 0.0
H1760 H 0.10636 0.43493 0.4695 0.0
C1761 C 0.08984 0.50704 0.43227 0.0
C1762 C 0.09012 0.50668 0.46645 0.0
H1763 H 0.09358 0.48139 0.38504 0.0
H1764 H 0.08476 0.5269 0.42165 0.0
C1765 C 0.09688 0.48025 0.47887 0.0
C1766 C 0.43958 0.26258 0.25323 0.0
C1767 C 0.46892 0.28575 0.26056 0.0
H1768 H 0.39022 0.24954 0.25803 0.0
C1769 C 0.46901 0.31491 0.27982 0.0
H1770 H 0.43787 0.23994 0.23821 0.0
C1771 C 0.44127 0.32079 0.29078 0.0
C1772 C 0.41181 0.2977 0.28346 0.0
H1773 H 0.49058 0.33381 0.28568 0.0
H1774 H 0.44292 0.3439 0.30478 0.0
C1775 C 0.41191 0.26824 0.26469 0.0
C1776 C 0.61315 0.58833 0.41764 0.0
C1777 C 0.64545 0.59901 0.41608 0.0
H1778 H 0.5779 0.57462 0.44799 0.0
C1779 C 0.66718 0.60422 0.4454 0.0
H1780 H 0.59575 0.58379 0.39551 0.0
C1781 C 0.65696 0.59929 0.4755 0.0
C1782 C 0.62471 0.58827 0.4771 0.0
H1783 H 0.69222 0.61231 0.44514 0.0
H1784 H 0.67444 0.60396 0.49759 0.0
C1785 C 0.60293 0.58272 0.44769 0.0
C1786 C 0.38915 0.89669 0.10354 0.0
C1787 C 0.37999 0.92386 0.09622 0.0
H1788 H 0.40675 0.87336 0.14099 0.0
C1789 C 0.38633 0.95068 0.12098 0.0
H1790 H 0.38502 0.87577 0.08489 0.0
C1791 C 0.39919 0.94942 0.15305 0.0
C1792 C 0.406 0.92137 0.16093 0.0
H1793 H 0.3802 0.97227 0.11599 0.0
H1794 H 0.40241 0.96992 0.17197 0.0
C1795 C 0.40202 0.89544 0.13565 0.0
C1796 C 1.02832 0.62322 0.92485 0.0
C1797 C 0.99534 0.61678 0.92081 0.0
H1798 H 0.07075 0.62218 0.95497 0.0
C1799 C 0.97996 0.60772 0.947 0.0
H1800 H 1.04073 0.6302 0.90497 0.0
C1801 C 0.99722 0.60276 0.97577 0.0
C1802 C 1.03003 0.60669 0.97859 0.0
H1803 H 0.9545 0.60215 0.9443 0.0
H1804 H 0.98465 0.5943 0.99499 0.0
C1805 C 0.04547 0.61819 0.95335 0.0
C1806 C 0.28771 0.30632 0.65374 0.0
C1807 C 0.30641 0.28851 0.63887 0.0
H1808 H 0.27656 0.32787 0.69883 0.0
C1809 C 0.32904 0.27905 0.65949 0.0
H1810 H 0.26991 0.31389 0.63869 0.0
C1811 C 0.33312 0.28746 0.69392 0.0
C1812 C 0.3143 0.30508 0.70883 0.0
H1813 H 0.34391 0.26538 0.64902 0.0
H1814 H 0.35095 0.27986 0.70889 0.0
C1815 C 0.2914 0.31424 0.68827 0.0
C1816 C 0.59405 0.618 0.22326 0.0
C1817 C 0.61916 0.60728 0.23818 0.0
H1818 H 0.56676 0.6223 0.1781 0.0
C1819 C 0.636 0.59209 0.21754 0.0
H1820 H 0.58052 0.62981 0.23826 0.0
C1821 C 0.62819 0.58791 0.18314 0.0
C1822 C 0.60325 0.59874 0.16816 0.0
H1823 H 0.65544 0.58343 0.22792 0.0
H1824 H 0.6418 0.57603 0.16829 0.0
C1825 C 0.58617 0.61373 0.18869 0.0
C1826 C 0.28191 0.8794 0.93601 0.0
C1827 C 0.29089 0.91276 0.94119 0.0
H1828 H 0.28214 0.83634 0.9055 0.0
C1829 C 0.3034 0.92852 0.91664 0.0
H1830 H 0.27235 0.86681 0.95479 0.0
C1831 C 0.30973 0.91113 0.88877 0.0
C1832 C 0.30329 0.87779 0.88498 0.0
H1833 H 0.3109 0.95424 0.92028 0.0
H1834 H 0.32098 0.92395 0.87102 0.0
C1835 C 0.28793 0.86202 0.90804 0.0
C1836 C 0.96105 0.52566 0.73712 0.0
C1837 C 0.97919 0.52245 0.76623 0.0
H1838 H 0.95495 0.51876 0.68436 0.0
C1839 C 1.00041 0.50327 0.76419 0.0
H1840 H 0.94373 0.53939 0.73792 0.0
C1841 C 1.00704 0.4918 0.73372 0.0
C1842 C 0.99243 0.49919 0.70474 0.0
H1843 H 1.01387 0.4992 0.78622 0.0
H1844 H 1.0261 0.48028 0.73342 0.0
C1845 C 0.96745 0.5138 0.70648 0.0
C1846 C 0.32727 0.29705 0.45931 0.0
C1847 C 0.3165 0.26444 0.46065 0.0
H1848 H 0.33991 0.33284 0.429 0.0
C1849 C 0.31033 0.24271 0.43097 0.0
H1850 H 0.33254 0.31445 0.48168 0.0
C1851 C 0.31422 0.25325 0.40076 0.0
C1852 C 0.32515 0.28582 0.39935 0.0
H1853 H 0.30214 0.21744 0.431 0.0
H1854 H 0.30867 0.23577 0.37842 0.0
C1855 C 0.33185 0.30757 0.42912 0.0
C1856 C 0.40803 0.61482 0.62168 0.0
C1857 C 0.37516 0.60535 0.61303 0.0
H1858 H 0.45111 0.60116 0.62076 0.0
C1859 C 0.35993 0.5729 0.6032 0.0
H1860 H 0.42019 0.63974 0.62929 0.0
C1861 C 0.37762 0.55087 0.59745 0.0
C1862 C 0.41062 0.56103 0.60248 0.0
H1863 H 0.33455 0.56508 0.5962 0.0
H1864 H 0.3656 0.52659 0.58628 0.0
C1865 C 0.42566 0.59269 0.61687 0.0
C1866 C 0.94783 0.99225 0.57639 0.0
C1867 C 0.9514 0.96148 0.57847 0.0
H1868 H 0.97028 0.04058 0.57341 0.0
C1869 C 0.98174 0.95661 0.5809 0.0
H1870 H 0.9247 0.99678 0.57422 0.0
C1871 C 1.00787 0.98185 0.58098 0.0
C1872 C 1.00419 1.01241 0.57791 0.0
H1873 H 0.9853 0.93325 0.58255 0.0
H1874 H 1.03091 0.97715 0.5825 0.0
C1875 C 0.97389 1.01736 0.57577 0.0
C1876 C 0.91154 0.1142 0.29912 0.0
C1877 C 0.94423 0.12517 0.31014 0.0
H1878 H 0.86662 0.12476 0.2961 0.0
C1879 C 0.95681 0.15685 0.32583 0.0
H1880 H 0.90101 0.08993 0.28692 0.0
C1881 C 0.9369 0.1769 0.33096 0.0
C1882 C 0.9041 0.16544 0.32089 0.0
H1883 H 0.98185 0.16592 0.33472 0.0
H1884 H 0.94702 0.2011 0.34358 0.0
C1885 C 0.89172 0.13403 0.30461 0.0
C1886 C 0.68495 0.17071 0.09451 0.0
C1887 C 0.71028 0.15811 0.08833 0.0
H1888 H 0.63557 0.16114 0.09474 0.0
C1889 C 0.70571 0.12486 0.0824 0.0
H1890 H 0.68787 0.19616 0.09973 0.0
C1891 C 0.67557 0.10467 0.07927 0.0
C1892 C 0.64986 0.11761 0.08221 0.0
H1893 H 0.72492 0.11443 0.07776 0.0
H1894 H 0.67213 0.07931 0.07213 0.0
C1895 C 0.65503 0.1506 0.09164 0.0
C1896 C 0.26268 0.53167 0.33276 0.0
C1897 C 0.27415 0.55535 0.31439 0.0
H1898 H 0.27107 0.49234 0.35496 0.0
C1899 C 0.30402 0.55806 0.30516 0.0
H1900 H 0.2398 0.52914 0.34033 0.0
C1901 C 0.32188 0.53726 0.31364 0.0
C1902 C 0.31034 0.51331 0.33163 0.0
H1903 H 0.31363 0.5762 0.29117 0.0
H1904 H 0.34477 0.53989 0.30607 0.0
C1905 C 0.28068 0.51085 0.34138 0.0
C1906 C 0.25437 0.45178 0.04714 0.0
C1907 C 0.28292 0.46444 0.06904 0.0
H1908 H 0.21276 0.46091 0.02217 0.0
C1909 C 0.29033 0.49638 0.08432 0.0
H1910 H 0.24808 0.42727 0.03487 0.0
C1911 C 0.27048 0.5157 0.07671 0.0
C1912 C 0.24256 0.50356 0.05371 0.0
H1913 H 0.31219 0.50693 0.10124 0.0
H1914 H 0.27774 0.54054 0.08792 0.0
C1915 C 0.23438 0.47117 0.03952 0.0
C1916 C 0.92381 0.96274 0.28981 0.0
C1917 C 0.95541 0.96228 0.29967 0.0
H1918 H 0.87489 0.93809 0.28379 0.0
C1919 C 0.9614 0.93447 0.30911 0.0
H1920 H 0.91818 0.98373 0.28227 0.0
C1921 C 0.93647 0.90831 0.30995 0.0
C1922 C 0.90484 0.90927 0.30146 0.0
H1923 H 0.98531 0.93316 0.31677 0.0
H1924 H 0.94213 0.88752 0.31799 0.0
C1925 C 0.89884 0.93656 0.29068 0.0
C1926 C 0.73508 0.21533 0.83167 0.0
C1927 C 0.73833 0.19035 0.80877 0.0
H1928 H 0.75329 0.26393 0.85402 0.0
C1929 C 0.76158 0.19618 0.78851 0.0
H1930 H 0.71755 0.21141 0.84778 0.0
C1931 C 0.78193 0.22642 0.79183 0.0
C1932 C 0.7797 0.25089 0.81601 0.0
H1933 H 0.76446 0.17718 0.77063 0.0
H1934 H 0.80003 0.23034 0.7764 0.0
C1935 C 0.75581 0.24526 0.8355 0.0
loop_
_geom_bond_atom_site_label_1
_geom_bond_atom_site_label_2
_geom_bond_distance
_geom_bond_site_symmetry_2
_ccdc_geom_bond_type
Co0 O1 2.216 . S
Co0 O2 2.091 . S
Co0 O4 2.004 . S
Co0 O10 2.021 . S
Co0 O12 2.137 . S
Co0 O13 2.244 . S
O1 Co0 2.216 . S
O1 C8 1.247 . S
O2 Co0 2.091 . S
O2 C8 1.261 . S
C3 O12 1.247 . S
C3 O13 1.272 . S
O4 Co0 2.004 . S
O4 C9 1.259 1_455 S
Co5 O6 2.061 1_455 S
Co5 O11 2.052 . S
Co5 O13 2.135 . S
O6 Co5 2.061 1_655 S
O6 C9 1.235 . S
C7 O10 1.238 . S
C7 O11 1.241 . S
C8 O1 1.247 . S
C8 O2 1.261 . S
C9 O4 1.259 1_655 S
C9 O6 1.235 . S
O10 Co0 2.021 . S
O10 C7 1.238 . S
O11 Co5 2.052 . S
O11 C7 1.241 . S
O12 Co0 2.137 . S
O12 C3 1.247 . S
O13 Co0 2.244 . S
O13 C3 1.272 . S
O13 Co5 2.135 . S
Co14 O15 2.216 1_455 S
Co14 O16 2.091 . S
Co14 O18 2.004 . S
Co14 O24 2.021 . S
Co14 O26 2.137 . S
Co14 O27 2.244 . S
O15 Co14 2.216 1_655 S
O15 C22 1.247 . S
O16 Co14 2.091 . S
O16 C22 1.261 1_455 S
C17 O26 1.247 . S
C17 O27 1.272 . S
O18 Co14 2.004 . S
O18 C23 1.259 . S
Co19 O20 2.061 . S
Co19 O25 2.052 . S
Co19 O27 2.135 . S
O20 Co19 2.061 . S
O20 C23 1.235 . S
C21 O24 1.238 . S
C21 O25 1.241 . S
C22 O15 1.247 . S
C22 O16 1.261 1_655 S
C23 O18 1.259 . S
C23 O20 1.235 . S
O24 Co14 2.021 . S
O24 C21 1.238 . S
O25 Co19 2.052 . S
O25 C21 1.241 . S
O26 Co14 2.137 . S
O26 C17 1.247 . S
O27 Co14 2.244 . S
O27 C17 1.272 . S
O27 Co19 2.135 . S
Co28 O29 2.216 . S
Co28 O30 2.091 . S
Co28 O32 2.004 . S
Co28 O38 2.021 . S
Co28 O40 2.137 . S
Co28 O41 2.244 . S
O29 Co28 2.216 . S
O29 C36 1.247 . S
O30 Co28 2.091 . S
O30 C36 1.261 . S
C31 O40 1.247 . S
C31 O41 1.272 . S
O32 Co28 2.004 . S
O32 C37 1.259 . S
Co33 O34 2.061 . S
Co33 O39 2.052 . S
Co33 O41 2.135 . S
O34 Co33 2.061 . S
O34 C37 1.235 . S
C35 O38 1.238 . S
C35 O39 1.241 . S
C36 O29 1.247 . S
C36 O30 1.261 . S
C37 O32 1.259 . S
C37 O34 1.235 . S
O38 Co28 2.021 . S
O38 C35 1.238 . S
O39 Co33 2.052 . S
O39 C35 1.241 . S
O40 Co28 2.137 . S
O40 C31 1.247 . S
O41 Co28 2.244 . S
O41 C31 1.272 . S
O41 Co33 2.135 . S
Co42 O43 2.216 . S
Co42 O44 2.091 . S
Co42 O46 2.004 . S
Co42 O52 2.021 . S
Co42 O54 2.137 . S
Co42 O55 2.244 . S
O43 Co42 2.216 . S
O43 C50 1.247 . S
O44 Co42 2.091 . S
O44 C50 1.261 . S
C45 O54 1.247 . S
C45 O55 1.272 . S
O46 Co42 2.004 . S
O46 C51 1.259 . S
Co47 O48 2.061 . S
Co47 O53 2.052 . S
Co47 O55 2.135 . S
O48 Co47 2.061 . S
O48 C51 1.235 . S
C49 O52 1.238 . S
C49 O53 1.241 . S
C50 O43 1.247 . S
C50 O44 1.261 . S
C51 O46 1.259 . S
C51 O48 1.235 . S
O52 Co42 2.021 . S
O52 C49 1.238 . S
O53 Co47 2.052 . S
O53 C49 1.241 . S
O54 Co42 2.137 . S
O54 C45 1.247 . S
O55 Co42 2.244 . S
O55 C45 1.272 . S
O55 Co47 2.135 . S
Co56 O57 2.216 . S
Co56 O58 2.091 . S
Co56 O60 2.004 . S
Co56 O66 2.021 . S
Co56 O68 2.137 . S
Co56 O69 2.244 . S
O57 Co56 2.216 . S
O57 C64 1.247 . S
O58 Co56 2.091 . S
O58 C64 1.261 . S
C59 O68 1.247 . S
C59 O69 1.272 . S
O60 Co56 2.004 . S
O60 C65 1.259 . S
Co61 O62 2.061 . S
Co61 O67 2.052 . S
Co61 O69 2.135 . S
O62 Co61 2.061 . S
O62 C65 1.235 . S
C63 O66 1.238 . S
C63 O67 1.241 . S
C64 O57 1.247 . S
C64 O58 1.261 . S
C65 O60 1.259 . S
C65 O62 1.235 . S
O66 Co56 2.021 . S
O66 C63 1.238 . S
O67 Co61 2.052 . S
O67 C63 1.241 . S
O68 Co56 2.137 . S
O68 C59 1.247 . S
O69 Co56 2.244 . S
O69 C59 1.272 . S
O69 Co61 2.135 . S
Co70 O71 2.216 . S
Co70 O72 2.091 . S
Co70 O74 2.004 . S
Co70 O80 2.021 . S
Co70 O82 2.137 . S
Co70 O83 2.244 . S
O71 Co70 2.216 . S
O71 C78 1.247 . S
O72 Co70 2.091 . S
O72 C78 1.261 . S
C73 O82 1.247 . S
C73 O83 1.272 . S
O74 Co70 2.004 . S
O74 C79 1.259 . S
Co75 O76 2.061 . S
Co75 O81 2.052 . S
Co75 O83 2.135 . S
O76 Co75 2.061 . S
O76 C79 1.235 . S
C77 O80 1.238 . S
C77 O81 1.241 . S
C78 O71 1.247 . S
C78 O72 1.261 . S
C79 O74 1.259 . S
C79 O76 1.235 . S
O80 Co70 2.021 . S
O80 C77 1.238 . S
O81 Co75 2.052 . S
O81 C77 1.241 . S
O82 Co70 2.137 . S
O82 C73 1.247 . S
O83 Co70 2.244 . S
O83 C73 1.272 . S
O83 Co75 2.135 . S
Co84 O85 2.216 . S
Co84 O86 2.091 . S
Co84 O88 2.004 . S
Co84 O94 2.021 . S
Co84 O96 2.137 . S
Co84 O97 2.244 . S
O85 Co84 2.216 . S
O85 C92 1.247 . S
O86 Co84 2.091 . S
O86 C92 1.261 . S
C87 O96 1.247 . S
C87 O97 1.272 . S
O88 Co84 2.004 . S
O88 C93 1.259 . S
Co89 O90 2.061 . S
Co89 O95 2.052 . S
Co89 O97 2.135 . S
O90 Co89 2.061 . S
O90 C93 1.235 . S
C91 O94 1.238 . S
C91 O95 1.241 . S
C92 O85 1.247 . S
C92 O86 1.261 . S
C93 O88 1.259 . S
C93 O90 1.235 . S
O94 Co84 2.021 . S
O94 C91 1.238 . S
O95 Co89 2.052 . S
O95 C91 1.241 . S
O96 Co84 2.137 . S
O96 C87 1.247 . S
O97 Co84 2.244 . S
O97 C87 1.272 . S
O97 Co89 2.135 . S
Co98 O99 2.216 . S
Co98 O100 2.091 . S
Co98 O102 2.004 1_455 S
Co98 O108 2.022 1_455 S
Co98 O110 2.137 . S
Co98 O111 2.244 1_556 S
O99 Co98 2.216 . S
O99 C106 1.247 . S
O100 Co98 2.091 . S
O100 C106 1.261 . S
C101 O110 1.247 1_554 S
C101 O111 1.272 . S
O102 Co98 2.004 1_655 S
O102 C107 1.259 . S
Co103 O104 2.061 1_554 S
Co103 O109 2.052 . S
Co103 O111 2.135 1_655 S
O104 Co103 2.061 1_556 S
O104 C107 1.235 . S
C105 O108 1.243 1_554 S
C105 O109 1.241 . S
C106 O99 1.247 . S
C106 O100 1.261 . S
C107 O102 1.259 . S
C107 O104 1.235 . S
O108 Co98 2.022 1_655 S
O108 C105 1.243 1_556 S
O109 Co103 2.052 . S
O109 C105 1.241 . S
O110 Co98 2.137 . S
O110 C101 1.247 1_556 S
O111 Co98 2.244 1_554 S
O111 C101 1.272 . S
O111 Co103 2.135 1_455 S
Co112 O113 2.216 . S
Co112 O114 2.091 . S
Co112 O116 2.004 1_545 S
Co112 O122 2.021 . S
Co112 O124 2.137 . S
Co112 O125 2.244 . S
O113 Co112 2.216 . S
O113 C120 1.247 . S
O114 Co112 2.091 . S
O114 C120 1.261 . S
C115 O124 1.247 . S
C115 O125 1.272 . S
O116 Co112 2.004 1_565 S
O116 C121 1.259 . S
Co117 O118 2.061 . S
Co117 O123 2.052 . S
Co117 O125 2.135 1_565 S
O118 Co117 2.061 . S
O118 C121 1.235 . S
C119 O122 1.230 1_565 S
C119 O123 1.241 . S
C120 O113 1.247 . S
C120 O114 1.261 . S
C121 O116 1.259 . S
C121 O118 1.235 . S
O122 Co112 2.021 . S
O122 C119 1.230 1_545 S
O123 Co117 2.052 . S
O123 C119 1.241 . S
O124 Co112 2.137 . S
O124 C115 1.247 . S
O125 Co112 2.244 . S
O125 C115 1.272 . S
O125 Co117 2.135 1_545 S
Co126 O127 2.216 . S
Co126 O128 2.091 . S
Co126 O130 2.004 . S
Co126 O136 2.021 . S
Co126 O138 2.137 . S
Co126 O139 2.244 . S
O127 Co126 2.216 . S
O127 C134 1.247 . S
O128 Co126 2.091 . S
O128 C134 1.261 . S
C129 O138 1.247 . S
C129 O139 1.272 . S
O130 Co126 2.004 . S
O130 C135 1.259 . S
Co131 O132 2.061 . S
Co131 O137 2.052 . S
Co131 O139 2.135 . S
O132 Co131 2.061 . S
O132 C135 1.235 . S
C133 O136 1.238 . S
C133 O137 1.241 . S
C134 O127 1.247 . S
C134 O128 1.261 . S
C135 O130 1.259 . S
C135 O132 1.235 . S
O136 Co126 2.021 . S
O136 C133 1.238 . S
O137 Co131 2.052 . S
O137 C133 1.241 . S
O138 Co126 2.137 . S
O138 C129 1.247 . S
O139 Co126 2.244 . S
O139 C129 1.272 . S
O139 Co131 2.135 . S
Co140 O141 2.216 . S
Co140 O142 2.091 . S
Co140 O144 2.004 . S
Co140 O150 2.021 . S
Co140 O152 2.137 . S
Co140 O153 2.244 . S
O141 Co140 2.216 . S
O141 C148 1.247 . S
O142 Co140 2.091 . S
O142 C148 1.261 . S
C143 O152 1.247 . S
C143 O153 1.272 . S
O144 Co140 2.004 . S
O144 C149 1.259 . S
Co145 O146 2.061 . S
Co145 O151 2.052 . S
Co145 O153 2.135 . S
O146 Co145 2.061 . S
O146 C149 1.235 . S
C147 O150 1.238 . S
C147 O151 1.241 . S
C148 O141 1.247 . S
C148 O142 1.261 . S
C149 O144 1.259 . S
C149 O146 1.235 . S
O150 Co140 2.021 . S
O150 C147 1.238 . S
O151 Co145 2.052 . S
O151 C147 1.241 . S
O152 Co140 2.137 . S
O152 C143 1.247 . S
O153 Co140 2.244 . S
O153 C143 1.272 . S
O153 Co145 2.135 . S
Co154 O155 2.216 . S
Co154 O156 2.091 1_556 S
Co154 O158 2.009 1_556 S
Co154 O164 2.021 1_556 S
Co154 O166 2.137 . S
Co154 O167 2.244 . S
O155 Co154 2.216 . S
O155 C162 1.247 . S
O156 Co154 2.091 1_554 S
O156 C162 1.261 1_554 S
C157 O166 1.247 . S
C157 O167 1.272 . S
O158 Co154 2.009 1_554 S
O158 C163 1.264 . S
Co159 O160 2.061 1_556 S
Co159 O165 2.052 1_556 S
Co159 O167 2.135 . S
O160 Co159 2.061 1_554 S
O160 C163 1.235 . S
C161 O164 1.238 . S
C161 O165 1.241 . S
C162 O155 1.247 . S
C162 O156 1.261 1_556 S
C163 O158 1.264 . S
C163 O160 1.235 . S
O164 Co154 2.021 1_554 S
O164 C161 1.238 . S
O165 Co159 2.052 1_554 S
O165 C161 1.241 . S
O166 Co154 2.137 . S
O166 C157 1.247 . S
O167 Co154 2.244 . S
O167 C157 1.272 . S
O167 Co159 2.135 . S
Co168 O169 2.216 . S
Co168 O170 2.091 . S
Co168 O172 2.004 . S
Co168 O178 2.021 . S
Co168 O180 2.104 1_554 S
Co168 O181 2.244 . S
O169 Co168 2.216 . S
O169 C176 1.247 . S
O170 Co168 2.091 . S
O170 C176 1.261 . S
C171 O180 1.245 . S
C171 O181 1.272 1_556 S
O172 Co168 2.004 . S
O172 C177 1.259 . S
Co173 O174 2.061 . S
Co173 O179 2.052 . S
Co173 O181 2.135 . S
O174 Co173 2.061 . S
O174 C177 1.235 . S
C175 O178 1.238 . S
C175 O179 1.241 . S
C176 O169 1.247 . S
C176 O170 1.261 . S
C177 O172 1.259 . S
C177 O174 1.235 . S
O178 Co168 2.021 . S
O178 C175 1.238 . S
O179 Co173 2.052 . S
O179 C175 1.241 . S
O180 Co168 2.104 1_556 S
O180 C171 1.245 . S
O181 Co168 2.244 . S
O181 C171 1.272 1_554 S
O181 Co173 2.135 . S
Co182 O183 2.216 . S
Co182 O184 2.091 . S
Co182 O186 2.004 . S
Co182 O192 2.021 . S
Co182 O194 2.137 . S
Co182 O195 2.244 . S
O183 Co182 2.216 . S
O183 C190 1.247 . S
O184 Co182 2.091 . S
O184 C190 1.261 . S
C185 O194 1.247 . S
C185 O195 1.272 . S
O186 Co182 2.004 . S
O186 C191 1.259 . S
Co187 O188 2.061 . S
Co187 O193 2.052 . S
Co187 O195 2.135 . S
O188 Co187 2.061 . S
O188 C191 1.235 . S
C189 O192 1.238 . S
C189 O193 1.241 . S
C190 O183 1.247 . S
C190 O184 1.261 . S
C191 O186 1.259 . S
C191 O188 1.235 . S
O192 Co182 2.021 . S
O192 C189 1.238 . S
O193 Co187 2.052 . S
O193 C189 1.241 . S
O194 Co182 2.137 . S
O194 C185 1.247 . S
O195 Co182 2.244 . S
O195 C185 1.272 . S
O195 Co187 2.135 . S
Co196 O197 2.216 . S
Co196 O198 2.091 . S
Co196 O200 2.004 . S
Co196 O206 2.021 . S
Co196 O208 2.137 . S
Co196 O209 2.244 . S
O197 Co196 2.216 . S
O197 C204 1.247 . S
O198 Co196 2.091 . S
O198 C204 1.261 . S
C199 O208 1.247 . S
C199 O209 1.272 . S
O200 Co196 2.004 . S
O200 C205 1.259 . S
Co201 O202 2.061 . S
Co201 O207 2.052 . S
Co201 O209 2.135 . S
O202 Co201 2.061 . S
O202 C205 1.235 . S
C203 O206 1.238 . S
C203 O207 1.241 . S
C204 O197 1.247 . S
C204 O198 1.261 . S
C205 O200 1.259 . S
C205 O202 1.235 . S
O206 Co196 2.021 . S
O206 C203 1.238 . S
O207 Co201 2.052 . S
O207 C203 1.241 . S
O208 Co196 2.137 . S
O208 C199 1.247 . S
O209 Co196 2.244 . S
O209 C199 1.272 . S
O209 Co201 2.135 . S
Co210 O211 2.216 . S
Co210 O212 2.091 . S
Co210 O214 2.004 . S
Co210 O220 2.021 . S
Co210 O222 2.137 . S
Co210 O223 2.244 . S
O211 Co210 2.216 . S
O211 C218 1.247 . S
O212 Co210 2.091 . S
O212 C218 1.261 . S
C213 O222 1.247 . S
C213 O223 1.272 . S
O214 Co210 2.004 . S
O214 C219 1.259 . S
Co215 O216 2.061 . S
Co215 O221 2.052 . S
Co215 O223 2.135 . S
O216 Co215 2.061 . S
O216 C219 1.235 . S
C217 O220 1.238 . S
C217 O221 1.241 . S
C218 O211 1.247 . S
C218 O212 1.261 . S
C219 O214 1.259 . S
C219 O216 1.235 . S
O220 Co210 2.021 . S
O220 C217 1.238 . S
O221 Co215 2.052 . S
O221 C217 1.241 . S
O222 Co210 2.137 . S
O222 C213 1.247 . S
O223 Co210 2.244 . S
O223 C213 1.272 . S
O223 Co215 2.135 . S
Co224 O225 2.216 . S
Co224 O226 2.091 . S
Co224 O228 2.004 1_545 S
Co224 O234 2.021 . S
Co224 O236 2.137 . S
Co224 O237 2.244 . S
O225 Co224 2.216 . S
O225 C232 1.247 . S
O226 Co224 2.091 . S
O226 C232 1.261 . S
C227 O236 1.247 . S
C227 O237 1.272 . S
O228 Co224 2.004 1_565 S
O228 C233 1.259 . S
Co229 O230 2.061 . S
Co229 O235 2.052 1_565 S
Co229 O237 2.135 1_565 S
O230 Co229 2.061 . S
O230 C233 1.235 . S
C231 O234 1.238 . S
C231 O235 1.241 . S
C232 O225 1.247 . S
C232 O226 1.261 . S
C233 O228 1.259 . S
C233 O230 1.235 . S
O234 Co224 2.021 . S
O234 C231 1.238 . S
O235 Co229 2.052 1_545 S
O235 C231 1.241 . S
O236 Co224 2.137 . S
O236 C227 1.247 . S
O237 Co224 2.244 . S
O237 C227 1.272 . S
O237 Co229 2.135 1_545 S
Co238 O239 2.216 . S
Co238 O240 2.091 . S
Co238 O242 2.004 . S
Co238 O248 2.021 . S
Co238 O250 2.137 . S
Co238 O251 2.244 . S
O239 Co238 2.216 . S
O239 C246 1.247 . S
O240 Co238 2.091 . S
O240 C246 1.261 . S
C241 O250 1.247 . S
C241 O251 1.272 . S
O242 Co238 2.004 . S
O242 C247 1.259 . S
Co243 O244 2.061 . S
Co243 O249 2.052 . S
Co243 O251 2.135 . S
O244 Co243 2.061 . S
O244 C247 1.235 . S
C245 O248 1.238 . S
C245 O249 1.241 . S
C246 O239 1.247 . S
C246 O240 1.261 . S
C247 O242 1.259 . S
C247 O244 1.235 . S
O248 Co238 2.021 . S
O248 C245 1.238 . S
O249 Co243 2.052 . S
O249 C245 1.241 . S
O250 Co238 2.137 . S
O250 C241 1.247 . S
O251 Co238 2.244 . S
O251 C241 1.272 . S
O251 Co243 2.135 . S
Co252 O253 2.216 . S
Co252 O254 2.091 . S
Co252 O256 2.004 . S
Co252 O262 2.021 . S
Co252 O264 2.137 . S
Co252 O265 2.244 . S
O253 Co252 2.216 . S
O253 C260 1.247 . S
O254 Co252 2.091 . S
O254 C260 1.261 . S
C255 O264 1.247 . S
C255 O265 1.272 . S
O256 Co252 2.004 . S
O256 C261 1.259 . S
Co257 O258 2.061 . S
Co257 O263 2.052 . S
Co257 O265 2.135 . S
O258 Co257 2.061 . S
O258 C261 1.235 . S
C259 O262 1.238 . S
C259 O263 1.241 . S
C260 O253 1.247 . S
C260 O254 1.261 . S
C261 O256 1.259 . S
C261 O258 1.235 . S
O262 Co252 2.021 . S
O262 C259 1.238 . S
O263 Co257 2.052 . S
O263 C259 1.241 . S
O264 Co252 2.137 . S
O264 C255 1.247 . S
O265 Co252 2.244 . S
O265 C255 1.272 . S
O265 Co257 2.135 . S
Co266 O267 2.216 . S
Co266 O268 2.091 . S
Co266 O270 2.004 . S
Co266 O276 2.021 . S
Co266 O278 2.137 . S
Co266 O279 2.244 . S
O267 Co266 2.216 . S
O267 C274 1.247 . S
O268 Co266 2.091 . S
O268 C274 1.261 . S
C269 O278 1.247 . S
C269 O279 1.272 . S
O270 Co266 2.004 . S
O270 C275 1.259 . S
Co271 O272 2.061 . S
Co271 O277 2.052 . S
Co271 O279 2.135 . S
O272 Co271 2.061 . S
O272 C275 1.235 . S
C273 O276 1.238 . S
C273 O277 1.241 . S
C274 O267 1.247 . S
C274 O268 1.261 . S
C275 O270 1.259 . S
C275 O272 1.235 . S
O276 Co266 2.021 . S
O276 C273 1.238 . S
O277 Co271 2.052 . S
O277 C273 1.241 . S
O278 Co266 2.137 . S
O278 C269 1.247 . S
O279 Co266 2.244 . S
O279 C269 1.272 . S
O279 Co271 2.135 . S
Co280 O281 2.216 . S
Co280 O282 2.091 . S
Co280 O284 2.004 . S
Co280 O290 2.021 . S
Co280 O292 2.137 1_554 S
Co280 O293 2.244 . S
O281 Co280 2.216 . S
O281 C288 1.247 . S
O282 Co280 2.091 . S
O282 C288 1.261 . S
C283 O292 1.247 . S
C283 O293 1.272 1_556 S
O284 Co280 2.004 . S
O284 C289 1.259 . S
Co285 O286 2.061 . S
Co285 O291 2.052 . S
Co285 O293 2.135 . S
O286 Co285 2.061 . S
O286 C289 1.235 . S
C287 O290 1.238 . S
C287 O291 1.241 . S
C288 O281 1.247 . S
C288 O282 1.261 . S
C289 O284 1.259 . S
C289 O286 1.235 . S
O290 Co280 2.021 . S
O290 C287 1.238 . S
O291 Co285 2.052 . S
O291 C287 1.241 . S
O292 Co280 2.137 1_556 S
O292 C283 1.247 . S
O293 Co280 2.244 . S
O293 C283 1.272 1_554 S
O293 Co285 2.135 . S
Co294 O295 2.216 . S
Co294 O296 2.091 . S
Co294 O298 2.004 . S
Co294 O304 2.021 . S
Co294 O306 2.137 . S
Co294 O307 2.244 . S
O295 Co294 2.216 . S
O295 C302 1.247 . S
O296 Co294 2.091 . S
O296 C302 1.261 . S
C297 O306 1.247 . S
C297 O307 1.272 . S
O298 Co294 2.004 . S
O298 C303 1.259 . S
Co299 O300 2.061 . S
Co299 O305 2.052 . S
Co299 O307 2.135 . S
O300 Co299 2.061 . S
O300 C303 1.235 . S
C301 O304 1.238 . S
C301 O305 1.241 . S
C302 O295 1.247 . S
C302 O296 1.261 . S
C303 O298 1.259 . S
C303 O300 1.235 . S
O304 Co294 2.021 . S
O304 C301 1.238 . S
O305 Co299 2.052 . S
O305 C301 1.241 . S
O306 Co294 2.137 . S
O306 C297 1.247 . S
O307 Co294 2.244 . S
O307 C297 1.272 . S
O307 Co299 2.135 . S
Co308 O309 2.216 . S
Co308 O310 2.091 . S
Co308 O312 2.004 . S
Co308 O318 2.021 . S
Co308 O320 2.137 . S
Co308 O321 2.244 . S
O309 Co308 2.216 . S
O309 C316 1.247 . S
O310 Co308 2.091 . S
O310 C316 1.261 . S
C311 O320 1.247 . S
C311 O321 1.272 . S
O312 Co308 2.004 . S
O312 C317 1.259 . S
Co313 O314 2.061 . S
Co313 O319 2.052 . S
Co313 O321 2.135 . S
O314 Co313 2.061 . S
O314 C317 1.235 . S
C315 O318 1.238 . S
C315 O319 1.241 . S
C316 O309 1.247 . S
C316 O310 1.261 . S
C317 O312 1.259 . S
C317 O314 1.235 . S
O318 Co308 2.021 . S
O318 C315 1.238 . S
O319 Co313 2.052 . S
O319 C315 1.241 . S
O320 Co308 2.137 . S
O320 C311 1.247 . S
O321 Co308 2.244 . S
O321 C311 1.272 . S
O321 Co313 2.135 . S
Co322 O323 2.216 . S
Co322 O324 2.091 . S
Co322 O326 2.004 . S
Co322 O332 2.021 . S
Co322 O334 2.137 . S
Co322 O335 2.244 . S
O323 Co322 2.216 . S
O323 C330 1.247 . S
O324 Co322 2.091 . S
O324 C330 1.261 . S
C325 O334 1.247 . S
C325 O335 1.272 . S
O326 Co322 2.004 . S
O326 C331 1.259 . S
Co327 O328 2.061 . S
Co327 O333 2.052 . S
Co327 O335 2.135 . S
O328 Co327 2.061 . S
O328 C331 1.235 . S
C329 O332 1.238 . S
C329 O333 1.241 . S
C330 O323 1.247 . S
C330 O324 1.261 . S
C331 O326 1.259 . S
C331 O328 1.235 . S
O332 Co322 2.021 . S
O332 C329 1.238 . S
O333 Co327 2.052 . S
O333 C329 1.241 . S
O334 Co322 2.137 . S
O334 C325 1.247 . S
O335 Co322 2.244 . S
O335 C325 1.272 . S
O335 Co327 2.135 . S
Dy336 O339 2.307 . S
Dy336 O341 2.395 . S
Dy336 O342 2.379 . S
Dy336 O344 2.339 . S
Dy336 O346 2.298 . S
Dy336 O350 2.275 . S
Dy336 C358 2.738 . S
Dy337 O340 2.298 1_655 S
Dy337 O343 2.275 1_655 S
Dy337 O345 2.307 1_655 S
Dy337 O347 2.395 . S
Dy337 O348 2.379 . S
Dy337 O351 2.339 1_654 S
Dy337 C367 2.738 . S
C338 O350 1.254 1_556 S
C338 O351 1.257 . S
O339 Dy336 2.307 . S
O339 C349 1.266 . S
O340 Dy337 2.298 1_455 S
O340 C349 1.236 . S
O341 Dy336 2.395 . S
O341 C358 1.255 . S
O342 Dy336 2.379 . S
O342 C358 1.249 . S
O343 Dy337 2.275 1_455 S
O343 C359 1.254 . S
O344 Dy336 2.339 . S
O344 C359 1.257 . S
O345 Dy337 2.307 1_455 S
O345 C360 1.281 . S
O346 Dy336 2.298 . S
O346 C360 1.250 . S
O347 Dy337 2.395 . S
O347 C367 1.255 . S
O348 Dy337 2.379 . S
O348 C367 1.249 . S
C349 O339 1.266 . S
C349 O340 1.236 . S
O350 Dy336 2.275 . S
O350 C338 1.254 1_554 S
O351 Dy337 2.339 1_456 S
O351 C338 1.257 . S
C352 C355 1.344 . S
C352 C356 1.328 . S
C352 C358 1.516 . S
C353 C354 1.304 . S
C353 C357 1.323 . S
C354 C353 1.304 . S
C354 C355 1.371 . S
C354 H368 0.930 . S
C355 C352 1.344 . S
C355 C354 1.371 . S
C355 H369 0.931 . S
C356 C352 1.328 . S
C356 C357 1.433 . S
C356 H370 0.931 . S
C357 C353 1.323 . S
C357 C356 1.433 . S
C357 H371 0.933 . S
C358 Dy336 2.738 . S
C358 O341 1.255 . S
C358 O342 1.249 . S
C358 C352 1.516 . S
C359 O343 1.254 . S
C359 O344 1.257 . S
C360 O345 1.281 . S
C360 O346 1.250 . S
C361 C364 1.344 . S
C361 C365 1.328 1_554 S
C361 C367 1.516 . S
C362 C363 1.304 . S
C362 C366 1.323 1_554 S
C363 C362 1.304 . S
C363 C364 1.371 . S
C363 H372 0.930 . S
C364 C361 1.344 . S
C364 C363 1.371 . S
C364 H373 0.931 . S
C365 C361 1.328 1_556 S
C365 C366 1.433 . S
C365 H374 0.931 . S
C366 C362 1.323 1_556 S
C366 C365 1.433 . S
C366 H375 0.933 . S
C367 Dy337 2.738 . S
C367 O347 1.255 . S
C367 O348 1.249 . S
C367 C361 1.516 . S
H368 C354 0.930 . S
H369 C355 0.931 . S
H370 C356 0.931 . S
H371 C357 0.933 . S
H372 C363 0.930 . S
H373 C364 0.931 . S
H374 C365 0.931 . S
H375 C366 0.933 . S
Dy376 O379 2.307 . S
Dy376 O381 2.395 . S
Dy376 O382 2.379 . S
Dy376 O384 2.339 . S
Dy376 O386 2.298 . S
Dy376 O390 2.275 . S
Dy376 C398 2.738 . S
Dy377 O380 2.298 . S
Dy377 O383 2.275 . S
Dy377 O385 2.307 . S
Dy377 O387 2.395 . S
Dy377 O388 2.379 . S
Dy377 O391 2.339 . S
Dy377 C407 2.738 . S
C378 O390 1.254 . S
C378 O391 1.257 . S
O379 Dy376 2.307 . S
O379 C389 1.266 . S
O380 Dy377 2.298 . S
O380 C389 1.236 . S
O381 Dy376 2.395 . S
O381 C398 1.255 . S
O382 Dy376 2.379 . S
O382 C398 1.249 . S
O383 Dy377 2.275 . S
O383 C399 1.254 . S
O384 Dy376 2.339 . S
O384 C399 1.257 . S
O385 Dy377 2.307 . S
O385 C400 1.266 . S
O386 Dy376 2.298 . S
O386 C400 1.236 . S
O387 Dy377 2.395 . S
O387 C407 1.255 . S
O388 Dy377 2.379 . S
O388 C407 1.249 . S
C389 O379 1.266 . S
C389 O380 1.236 . S
O390 Dy376 2.275 . S
O390 C378 1.254 . S
O391 Dy377 2.339 . S
O391 C378 1.257 . S
C392 C395 1.344 . S
C392 C396 1.328 . S
C392 C398 1.516 . S
C393 C394 1.304 . S
C393 C397 1.323 . S
C394 C393 1.304 . S
C394 C395 1.371 . S
C394 H408 0.930 . S
C395 C392 1.344 . S
C395 C394 1.371 . S
C395 H409 0.931 . S
C396 C392 1.328 . S
C396 C397 1.433 . S
C396 H410 0.931 . S
C397 C393 1.323 . S
C397 C396 1.433 . S
C397 H411 0.933 . S
C398 Dy376 2.738 . S
C398 O381 1.255 . S
C398 O382 1.249 . S
C398 C392 1.516 . S
C399 O383 1.254 . S
C399 O384 1.257 . S
C400 O385 1.266 . S
C400 O386 1.236 . S
C401 C404 1.344 . S
C401 C405 1.328 . S
C401 C407 1.516 . S
C402 C403 1.304 . S
C402 C406 1.323 . S
C403 C402 1.304 . S
C403 C404 1.371 . S
C403 H412 0.930 . S
C404 C401 1.344 . S
C404 C403 1.371 . S
C404 H413 0.931 . S
C405 C401 1.328 . S
C405 C406 1.433 . S
C405 H414 0.931 . S
C406 C402 1.323 . S
C406 C405 1.433 . S
C406 H415 0.933 . S
C407 Dy377 2.738 . S
C407 O387 1.255 . S
C407 O388 1.249 . S
C407 C401 1.516 . S
H408 C394 0.930 . S
H409 C395 0.931 . S
H410 C396 0.931 . S
H411 C397 0.933 . S
H412 C403 0.930 . S
H413 C404 0.931 . S
H414 C405 0.931 . S
H415 C406 0.933 . S
Dy416 O419 2.307 . S
Dy416 O421 2.395 . S
Dy416 O422 2.379 . S
Dy416 O424 2.339 . S
Dy416 O426 2.298 . S
Dy416 O430 2.275 . S
Dy416 C438 2.738 . S
Dy417 O420 2.298 . S
Dy417 O423 2.275 . S
Dy417 O425 2.307 . S
Dy417 O427 2.395 . S
Dy417 O428 2.379 . S
Dy417 O431 2.339 . S
Dy417 C447 2.738 . S
C418 O430 1.254 . S
C418 O431 1.257 . S
O419 Dy416 2.307 . S
O419 C429 1.266 1_545 S
O420 Dy417 2.298 . S
O420 C429 1.236 1_545 S
O421 Dy416 2.395 . S
O421 C438 1.255 . S
O422 Dy416 2.379 . S
O422 C438 1.249 . S
O423 Dy417 2.275 . S
O423 C439 1.254 . S
O424 Dy416 2.339 . S
O424 C439 1.257 . S
O425 Dy417 2.307 . S
O425 C440 1.266 . S
O426 Dy416 2.298 . S
O426 C440 1.236 . S
O427 Dy417 2.395 . S
O427 C447 1.255 . S
O428 Dy417 2.379 . S
O428 C447 1.249 . S
C429 O419 1.266 1_565 S
C429 O420 1.236 1_565 S
O430 Dy416 2.275 . S
O430 C418 1.254 . S
O431 Dy417 2.339 . S
O431 C418 1.257 . S
C432 C435 1.344 . S
C432 C436 1.328 . S
C432 C438 1.516 . S
C433 C434 1.304 . S
C433 C437 1.323 . S
C434 C433 1.304 . S
C434 C435 1.371 . S
C434 H448 0.930 . S
C435 C432 1.344 . S
C435 C434 1.371 . S
C435 H449 0.931 . S
C436 C432 1.328 . S
C436 C437 1.433 . S
C436 H450 0.931 . S
C437 C433 1.323 . S
C437 C436 1.433 . S
C437 H451 0.933 . S
C438 Dy416 2.738 . S
C438 O421 1.255 . S
C438 O422 1.249 . S
C438 C432 1.516 . S
C439 O423 1.254 . S
C439 O424 1.257 . S
C440 O425 1.266 . S
C440 O426 1.236 . S
C441 C444 1.344 1_545 S
C441 C445 1.328 . S
C441 C447 1.516 . S
C442 C443 1.304 . S
C442 C446 1.323 . S
C443 C442 1.304 . S
C443 C444 1.371 . S
C443 H452 0.930 . S
C444 C441 1.344 1_565 S
C444 C443 1.371 . S
C444 H453 0.931 . S
C445 C441 1.328 . S
C445 C446 1.433 1_545 S
C445 H454 0.931 . S
C446 C442 1.323 . S
C446 C445 1.433 1_565 S
C446 H455 0.933 . S
C447 Dy417 2.738 . S
C447 O427 1.255 . S
C447 O428 1.249 . S
C447 C441 1.516 . S
H448 C434 0.930 . S
H449 C435 0.931 . S
H450 C436 0.931 . S
H451 C437 0.933 . S
H452 C443 0.930 . S
H453 C444 0.931 . S
H454 C445 0.931 . S
H455 C446 0.933 . S
Dy456 O459 2.307 . S
Dy456 O461 2.395 . S
Dy456 O462 2.379 . S
Dy456 O464 2.339 . S
Dy456 O466 2.298 . S
Dy456 O470 2.275 . S
Dy456 C478 2.738 . S
Dy457 O460 2.298 . S
Dy457 O463 2.275 . S
Dy457 O465 2.307 . S
Dy457 O467 2.395 . S
Dy457 O468 2.379 . S
Dy457 O471 2.339 . S
Dy457 C487 2.738 . S
C458 O470 1.254 . S
C458 O471 1.257 . S
O459 Dy456 2.307 . S
O459 C469 1.266 . S
O460 Dy457 2.298 . S
O460 C469 1.236 . S
O461 Dy456 2.395 . S
O461 C478 1.255 . S
O462 Dy456 2.379 . S
O462 C478 1.249 . S
O463 Dy457 2.275 . S
O463 C479 1.254 . S
O464 Dy456 2.339 . S
O464 C479 1.257 . S
O465 Dy457 2.307 . S
O465 C480 1.266 . S
O466 Dy456 2.298 . S
O466 C480 1.236 . S
O467 Dy457 2.395 . S
O467 C487 1.255 . S
O468 Dy457 2.379 . S
O468 C487 1.249 . S
C469 O459 1.266 . S
C469 O460 1.236 . S
O470 Dy456 2.275 . S
O470 C458 1.254 . S
O471 Dy457 2.339 . S
O471 C458 1.257 . S
C472 C475 1.344 . S
C472 C476 1.328 . S
C472 C478 1.516 . S
C473 C474 1.304 . S
C473 C477 1.323 . S
C474 C473 1.304 . S
C474 C475 1.371 . S
C474 H488 0.930 . S
C475 C472 1.344 . S
C475 C474 1.371 . S
C475 H489 0.931 . S
C476 C472 1.328 . S
C476 C477 1.433 . S
C476 H490 0.931 . S
C477 C473 1.323 . S
C477 C476 1.433 . S
C477 H491 0.933 . S
C478 Dy456 2.738 . S
C478 O461 1.255 . S
C478 O462 1.249 . S
C478 C472 1.516 . S
C479 O463 1.254 . S
C479 O464 1.257 . S
C480 O465 1.266 . S
C480 O466 1.236 . S
C481 C484 1.344 . S
C481 C485 1.328 . S
C481 C487 1.516 . S
C482 C483 1.304 . S
C482 C486 1.323 . S
C483 C482 1.304 . S
C483 C484 1.371 . S
C483 H492 0.930 . S
C484 C481 1.344 . S
C484 C483 1.371 . S
C484 H493 0.931 . S
C485 C481 1.328 . S
C485 C486 1.433 . S
C485 H494 0.931 . S
C486 C482 1.323 . S
C486 C485 1.433 . S
C486 H495 0.933 . S
C487 Dy457 2.738 . S
C487 O467 1.255 . S
C487 O468 1.249 . S
C487 C481 1.516 . S
H488 C474 0.930 . S
H489 C475 0.931 . S
H490 C476 0.931 . S
H491 C477 0.933 . S
H492 C483 0.930 . S
H493 C484 0.931 . S
H494 C485 0.931 . S
H495 C486 0.933 . S
Dy496 O499 2.307 . S
Dy496 O501 2.395 1_545 S
Dy496 O502 2.379 1_545 S
Dy496 O504 2.339 . S
Dy496 O506 2.298 . S
Dy496 O510 2.275 . S
Dy496 C518 2.738 1_545 S
Dy497 O500 2.298 . S
Dy497 O503 2.275 . S
Dy497 O505 2.307 . S
Dy497 O507 2.395 . S
Dy497 O508 2.370 1_455 S
Dy497 O511 2.339 1_455 S
Dy497 C527 2.738 . S
C498 O510 1.254 1_655 S
C498 O511 1.257 . S
O499 Dy496 2.307 . S
O499 C509 1.266 . S
O500 Dy497 2.298 . S
O500 C509 1.236 . S
O501 Dy496 2.395 1_565 S
O501 C518 1.255 . S
O502 Dy496 2.379 1_565 S
O502 C518 1.249 . S
O503 Dy497 2.275 . S
O503 C519 1.254 . S
O504 Dy496 2.339 . S
O504 C519 1.257 . S
O505 Dy497 2.307 . S
O505 C520 1.266 . S
O506 Dy496 2.298 . S
O506 C520 1.236 . S
O507 Dy497 2.395 . S
O507 C527 1.255 . S
O508 Dy497 2.370 1_655 S
O508 C527 1.241 1_655 S
C509 O499 1.266 . S
C509 O500 1.236 . S
O510 Dy496 2.275 . S
O510 C498 1.254 1_455 S
O511 Dy497 2.339 1_655 S
O511 C498 1.257 . S
C512 C515 1.344 . S
C512 C516 1.328 . S
C512 C518 1.516 . S
C513 C514 1.304 . S
C513 C517 1.323 . S
C514 C513 1.304 . S
C514 C515 1.371 . S
C514 H528 0.930 . S
C515 C512 1.344 . S
C515 C514 1.371 . S
C515 H529 0.931 . S
C516 C512 1.328 . S
C516 C517 1.433 . S
C516 H530 0.931 . S
C517 C513 1.323 . S
C517 C516 1.433 . S
C517 H531 0.933 . S
C518 Dy496 2.738 1_565 S
C518 O501 1.255 . S
C518 O502 1.249 . S
C518 C512 1.516 . S
C519 O503 1.254 . S
C519 O504 1.257 . S
C520 O505 1.266 . S
C520 O506 1.236 . S
C521 C524 1.344 . S
C521 C525 1.328 1_455 S
C521 C527 1.516 . S
C522 C523 1.304 . S
C522 C526 1.323 1_455 S
C523 C522 1.304 . S
C523 C524 1.371 . S
C523 H532 0.930 . S
C524 C521 1.344 . S
C524 C523 1.371 . S
C524 H533 0.931 . S
C525 C521 1.328 1_655 S
C525 C526 1.433 . S
C525 H534 0.931 . S
C526 C522 1.323 1_655 S
C526 C525 1.433 . S
C526 H535 0.933 . S
C527 Dy497 2.738 . S
C527 O507 1.255 . S
C527 O508 1.241 1_455 S
C527 C521 1.516 . S
H528 C514 0.930 . S
H529 C515 0.931 . S
H530 C516 0.931 . S
H531 C517 0.933 . S
H532 C523 0.930 . S
H533 C524 0.931 . S
H534 C525 0.931 . S
H535 C526 0.933 . S
Dy536 O539 2.307 . S
Dy536 O541 2.395 . S
Dy536 O542 2.379 . S
Dy536 O544 2.339 . S
Dy536 O546 2.298 . S
Dy536 O550 2.275 . S
Dy536 C558 2.738 . S
Dy537 O540 2.298 . S
Dy537 O543 2.275 . S
Dy537 O545 2.307 . S
Dy537 O547 2.395 . S
Dy537 O548 2.379 . S
Dy537 O551 2.339 . S
Dy537 C567 2.738 . S
C538 O550 1.254 . S
C538 O551 1.257 . S
O539 Dy536 2.307 . S
O539 C549 1.266 . S
O540 Dy537 2.298 . S
O540 C549 1.236 . S
O541 Dy536 2.395 . S
O541 C558 1.255 . S
O542 Dy536 2.379 . S
O542 C558 1.249 . S
O543 Dy537 2.275 . S
O543 C559 1.254 . S
O544 Dy536 2.339 . S
O544 C559 1.257 . S
O545 Dy537 2.307 . S
O545 C560 1.266 . S
O546 Dy536 2.298 . S
O546 C560 1.236 . S
O547 Dy537 2.395 . S
O547 C567 1.255 . S
O548 Dy537 2.379 . S
O548 C567 1.249 . S
C549 O539 1.266 . S
C549 O540 1.236 . S
O550 Dy536 2.275 . S
O550 C538 1.254 . S
O551 Dy537 2.339 . S
O551 C538 1.257 . S
C552 C555 1.344 . S
C552 C556 1.328 . S
C552 C558 1.516 . S
C553 C554 1.304 . S
C553 C557 1.323 . S
C554 C553 1.304 . S
C554 C555 1.371 . S
C554 H568 0.930 . S
C555 C552 1.344 . S
C555 C554 1.371 . S
C555 H569 0.931 . S
C556 C552 1.328 . S
C556 C557 1.433 . S
C556 H570 0.931 . S
C557 C553 1.323 . S
C557 C556 1.433 . S
C557 H571 0.933 . S
C558 Dy536 2.738 . S
C558 O541 1.255 . S
C558 O542 1.249 . S
C558 C552 1.516 . S
C559 O543 1.254 . S
C559 O544 1.257 . S
C560 O545 1.266 . S
C560 O546 1.236 . S
C561 C564 1.344 . S
C561 C565 1.328 . S
C561 C567 1.516 . S
C562 C563 1.304 . S
C562 C566 1.323 . S
C563 C562 1.304 . S
C563 C564 1.371 . S
C563 H572 0.930 . S
C564 C561 1.344 . S
C564 C563 1.371 . S
C564 H573 0.931 . S
C565 C561 1.328 . S
C565 C566 1.433 . S
C565 H574 0.931 . S
C566 C562 1.323 . S
C566 C565 1.433 . S
C566 H575 0.933 . S
C567 Dy537 2.738 . S
C567 O547 1.255 . S
C567 O548 1.249 . S
C567 C561 1.516 . S
H568 C554 0.930 . S
H569 C555 0.931 . S
H570 C556 0.931 . S
H571 C557 0.933 . S
H572 C563 0.930 . S
H573 C564 0.931 . S
H574 C565 0.931 . S
H575 C566 0.933 . S
Dy576 O579 2.307 . S
Dy576 O581 2.395 1_554 S
Dy576 O582 2.379 1_554 S
Dy576 O584 2.339 . S
Dy576 O586 2.298 . S
Dy576 O590 2.275 . S
Dy576 C598 2.738 1_554 S
Dy577 O580 2.298 . S
Dy577 O583 2.275 . S
Dy577 O585 2.307 . S
Dy577 O587 2.395 . S
Dy577 O588 2.379 . S
Dy577 O591 2.314 1_545 S
Dy577 C607 2.738 . S
C578 O590 1.254 . S
C578 O591 1.244 1_545 S
O579 Dy576 2.307 . S
O579 C589 1.266 . S
O580 Dy577 2.298 . S
O580 C589 1.236 . S
O581 Dy576 2.395 1_556 S
O581 C598 1.255 . S
O582 Dy576 2.379 1_556 S
O582 C598 1.249 . S
O583 Dy577 2.275 . S
O583 C599 1.254 . S
O584 Dy576 2.339 . S
O584 C599 1.257 . S
O585 Dy577 2.307 . S
O585 C600 1.266 . S
O586 Dy576 2.298 . S
O586 C600 1.236 . S
O587 Dy577 2.395 . S
O587 C607 1.255 . S
O588 Dy577 2.379 . S
O588 C607 1.249 . S
C589 O579 1.266 . S
C589 O580 1.236 . S
O590 Dy576 2.275 . S
O590 C578 1.254 . S
O591 Dy577 2.314 1_565 S
O591 C578 1.244 1_565 S
C592 C595 1.344 . S
C592 C596 1.328 . S
C592 C598 1.516 . S
C593 C594 1.304 . S
C593 C597 1.323 . S
C594 C593 1.304 . S
C594 C595 1.371 . S
C594 H608 0.930 . S
C595 C592 1.344 . S
C595 C594 1.371 . S
C595 H609 0.931 . S
C596 C592 1.328 . S
C596 C597 1.433 . S
C596 H610 0.931 . S
C597 C593 1.323 . S
C597 C596 1.433 . S
C597 H611 0.933 . S
C598 Dy576 2.738 1_556 S
C598 O581 1.255 . S
C598 O582 1.249 . S
C598 C592 1.516 . S
C599 O583 1.254 . S
C599 O584 1.257 . S
C600 O585 1.266 . S
C600 O586 1.236 . S
C601 C604 1.344 . S
C601 C605 1.328 1_545 S
C601 C607 1.516 . S
C602 C603 1.304 1_565 S
C602 C606 1.323 . S
C603 C602 1.304 1_545 S
C603 C604 1.371 . S
C603 H612 0.930 . S
C604 C601 1.344 . S
C604 C603 1.371 . S
C604 H613 0.931 . S
C605 C601 1.328 1_565 S
C605 C606 1.433 . S
C605 H614 0.931 . S
C606 C602 1.323 . S
C606 C605 1.433 . S
C606 H615 0.933 . S
C607 Dy577 2.738 . S
C607 O587 1.255 . S
C607 O588 1.249 . S
C607 C601 1.516 . S
H608 C594 0.930 . S
H609 C595 0.931 . S
H610 C596 0.931 . S
H611 C597 0.933 . S
H612 C603 0.930 . S
H613 C604 0.931 . S
H614 C605 0.931 . S
H615 C606 0.933 . S
Dy616 O619 2.307 . S
Dy616 O621 2.395 . S
Dy616 O622 2.379 . S
Dy616 O624 2.339 . S
Dy616 O626 2.298 . S
Dy616 O630 2.275 . S
Dy616 C638 2.738 . S
Dy617 O620 2.298 . S
Dy617 O623 2.275 . S
Dy617 O625 2.307 . S
Dy617 O627 2.395 . S
Dy617 O628 2.379 . S
Dy617 O631 2.339 . S
Dy617 C647 2.738 . S
C618 O630 1.254 . S
C618 O631 1.257 . S
O619 Dy616 2.307 . S
O619 C629 1.266 . S
O620 Dy617 2.298 . S
O620 C629 1.236 . S
O621 Dy616 2.395 . S
O621 C638 1.255 . S
O622 Dy616 2.379 . S
O622 C638 1.249 . S
O623 Dy617 2.275 . S
O623 C639 1.254 . S
O624 Dy616 2.339 . S
O624 C639 1.257 . S
O625 Dy617 2.307 . S
O625 C640 1.266 . S
O626 Dy616 2.298 . S
O626 C640 1.236 . S
O627 Dy617 2.395 . S
O627 C647 1.255 . S
O628 Dy617 2.379 . S
O628 C647 1.249 . S
C629 O619 1.266 . S
C629 O620 1.236 . S
O630 Dy616 2.275 . S
O630 C618 1.254 . S
O631 Dy617 2.339 . S
O631 C618 1.257 . S
C632 C635 1.344 . S
C632 C636 1.328 . S
C632 C638 1.516 . S
C633 C634 1.304 . S
C633 C637 1.323 . S
C634 C633 1.304 . S
C634 C635 1.371 . S
C634 H648 0.930 . S
C635 C632 1.344 . S
C635 C634 1.371 . S
C635 H649 0.931 . S
C636 C632 1.328 . S
C636 C637 1.433 . S
C636 H650 0.931 . S
C637 C633 1.323 . S
C637 C636 1.433 . S
C637 H651 0.933 . S
C638 Dy616 2.738 . S
C638 O621 1.255 . S
C638 O622 1.249 . S
C638 C632 1.516 . S
C639 O623 1.254 . S
C639 O624 1.257 . S
C640 O625 1.266 . S
C640 O626 1.236 . S
C641 C644 1.344 . S
C641 C645 1.328 . S
C641 C647 1.516 . S
C642 C643 1.304 . S
C642 C646 1.323 . S
C643 C642 1.304 . S
C643 C644 1.371 . S
C643 H652 0.930 . S
C644 C641 1.344 . S
C644 C643 1.371 . S
C644 H653 0.931 . S
C645 C641 1.328 . S
C645 C646 1.433 . S
C645 H654 0.931 . S
C646 C642 1.323 . S
C646 C645 1.433 . S
C646 H655 0.933 . S
C647 Dy617 2.738 . S
C647 O627 1.255 . S
C647 O628 1.249 . S
C647 C641 1.516 . S
H648 C634 0.930 . S
H649 C635 0.931 . S
H650 C636 0.931 . S
H651 C637 0.933 . S
H652 C643 0.930 . S
H653 C644 0.931 . S
H654 C645 0.931 . S
H655 C646 0.933 . S
Dy656 O659 2.307 1_554 S
Dy656 O661 2.395 . S
Dy656 O662 2.379 . S
Dy656 O664 2.339 . S
Dy656 O666 2.298 . S
Dy656 O670 2.275 . S
Dy656 C678 2.738 . S
Dy657 O660 2.300 . S
Dy657 O663 2.275 . S
Dy657 O665 2.307 . S
Dy657 O667 2.395 . S
Dy657 O668 2.379 . S
Dy657 O671 2.339 . S
Dy657 C687 2.738 . S
C658 O670 1.254 . S
C658 O671 1.257 . S
O659 Dy656 2.307 1_556 S
O659 C669 1.266 . S
O660 Dy657 2.300 . S
O660 C669 1.234 1_554 S
O661 Dy656 2.395 . S
O661 C678 1.255 . S
O662 Dy656 2.379 . S
O662 C678 1.249 . S
O663 Dy657 2.275 . S
O663 C679 1.254 . S
O664 Dy656 2.339 . S
O664 C679 1.257 . S
O665 Dy657 2.307 . S
O665 C680 1.266 . S
O666 Dy656 2.298 . S
O666 C680 1.236 . S
O667 Dy657 2.395 . S
O667 C687 1.255 . S
O668 Dy657 2.379 . S
O668 C687 1.249 . S
C669 O659 1.266 . S
C669 O660 1.234 1_556 S
O670 Dy656 2.275 . S
O670 C658 1.254 . S
O671 Dy657 2.339 . S
O671 C658 1.257 . S
C672 C675 1.344 . S
C672 C676 1.328 . S
C672 C678 1.516 . S
C673 C674 1.304 . S
C673 C677 1.323 . S
C674 C673 1.304 . S
C674 C675 1.371 . S
C674 H688 0.930 . S
C675 C672 1.344 . S
C675 C674 1.371 . S
C675 H689 0.931 . S
C676 C672 1.328 . S
C676 C677 1.433 . S
C676 H690 0.931 . S
C677 C673 1.323 . S
C677 C676 1.433 . S
C677 H691 0.933 . S
C678 Dy656 2.738 . S
C678 O661 1.255 . S
C678 O662 1.249 . S
C678 C672 1.516 . S
C679 O663 1.254 . S
C679 O664 1.257 . S
C680 O665 1.266 . S
C680 O666 1.236 . S
C681 C684 1.347 . S
C681 C685 1.328 . S
C681 C687 1.513 1_556 S
C682 C683 1.304 . S
C682 C686 1.323 . S
C683 C682 1.304 . S
C683 C684 1.371 . S
C683 H692 0.930 . S
C684 C681 1.347 . S
C684 C683 1.371 . S
C684 H693 0.931 . S
C685 C681 1.328 . S
C685 C686 1.436 . S
C685 H694 0.927 1_556 S
C686 C682 1.323 . S
C686 C685 1.436 . S
C686 H695 0.933 . S
C687 Dy657 2.738 . S
C687 O667 1.255 . S
C687 O668 1.249 . S
C687 C681 1.513 1_554 S
H688 C674 0.930 . S
H689 C675 0.931 . S
H690 C676 0.931 . S
H691 C677 0.933 . S
H692 C683 0.930 . S
H693 C684 0.931 . S
H694 C685 0.927 1_554 S
H695 C686 0.933 . S
Dy696 O699 2.307 . S
Dy696 O701 2.395 . S
Dy696 O702 2.379 . S
Dy696 O704 2.339 . S
Dy696 O706 2.298 . S
Dy696 O710 2.275 . S
Dy696 C718 2.738 . S
Dy697 O700 2.298 . S
Dy697 O703 2.275 . S
Dy697 O705 2.307 . S
Dy697 O707 2.395 . S
Dy697 O708 2.379 . S
Dy697 O711 2.339 . S
Dy697 C727 2.738 . S
C698 O710 1.254 . S
C698 O711 1.257 . S
O699 Dy696 2.307 . S
O699 C709 1.266 . S
O700 Dy697 2.298 . S
O700 C709 1.236 . S
O701 Dy696 2.395 . S
O701 C718 1.255 . S
O702 Dy696 2.379 . S
O702 C718 1.249 . S
O703 Dy697 2.275 . S
O703 C719 1.254 . S
O704 Dy696 2.339 . S
O704 C719 1.257 . S
O705 Dy697 2.307 . S
O705 C720 1.266 . S
O706 Dy696 2.298 . S
O706 C720 1.236 . S
O707 Dy697 2.395 . S
O707 C727 1.255 . S
O708 Dy697 2.379 . S
O708 C727 1.249 . S
C709 O699 1.266 . S
C709 O700 1.236 . S
O710 Dy696 2.275 . S
O710 C698 1.254 . S
O711 Dy697 2.339 . S
O711 C698 1.257 . S
C712 C715 1.344 . S
C712 C716 1.328 . S
C712 C718 1.516 . S
C713 C714 1.304 . S
C713 C717 1.323 . S
C714 C713 1.304 . S
C714 C715 1.371 . S
C714 H728 0.930 . S
C715 C712 1.344 . S
C715 C714 1.371 . S
C715 H729 0.931 . S
C716 C712 1.328 . S
C716 C717 1.433 . S
C716 H730 0.931 . S
C717 C713 1.323 . S
C717 C716 1.433 . S
C717 H731 0.933 . S
C718 Dy696 2.738 . S
C718 O701 1.255 . S
C718 O702 1.249 . S
C718 C712 1.516 . S
C719 O703 1.254 . S
C719 O704 1.257 . S
C720 O705 1.266 . S
C720 O706 1.236 . S
C721 C724 1.344 . S
C721 C725 1.328 . S
C721 C727 1.516 . S
C722 C723 1.304 . S
C722 C726 1.323 . S
C723 C722 1.304 . S
C723 C724 1.371 . S
C723 H732 0.930 . S
C724 C721 1.344 . S
C724 C723 1.371 . S
C724 H733 0.931 . S
C725 C721 1.328 . S
C725 C726 1.433 . S
C725 H734 0.931 . S
C726 C722 1.323 . S
C726 C725 1.433 . S
C726 H735 0.933 . S
C727 Dy697 2.738 . S
C727 O707 1.255 . S
C727 O708 1.249 . S
C727 C721 1.516 . S
H728 C714 0.930 . S
H729 C715 0.931 . S
H730 C716 0.931 . S
H731 C717 0.933 . S
H732 C723 0.930 . S
H733 C724 0.931 . S
H734 C725 0.931 . S
H735 C726 0.933 . S
Dy736 O739 2.307 1_455 S
Dy736 O741 2.395 . S
Dy736 O742 2.379 . S
Dy736 O744 2.339 . S
Dy736 O746 2.298 . S
Dy736 O750 2.275 . S
Dy736 C758 2.738 . S
Dy737 O740 2.298 1_455 S
Dy737 O743 2.275 . S
Dy737 O745 2.307 . S
Dy737 O747 2.395 . S
Dy737 O748 2.379 . S
Dy737 O751 2.339 . S
Dy737 C767 2.738 . S
C738 O750 1.254 . S
C738 O751 1.257 . S
O739 Dy736 2.307 1_655 S
O739 C749 1.266 . S
O740 Dy737 2.298 1_655 S
O740 C749 1.236 . S
O741 Dy736 2.395 . S
O741 C758 1.255 . S
O742 Dy736 2.379 . S
O742 C758 1.249 . S
O743 Dy737 2.275 . S
O743 C759 1.254 . S
O744 Dy736 2.339 . S
O744 C759 1.257 . S
O745 Dy737 2.307 . S
O745 C760 1.266 . S
O746 Dy736 2.298 . S
O746 C760 1.236 . S
O747 Dy737 2.395 . S
O747 C767 1.255 . S
O748 Dy737 2.379 . S
O748 C767 1.249 . S
C749 O739 1.266 . S
C749 O740 1.236 . S
O750 Dy736 2.275 . S
O750 C738 1.254 . S
O751 Dy737 2.339 . S
O751 C738 1.257 . S
C752 C755 1.344 . S
C752 C756 1.328 . S
C752 C758 1.516 . S
C753 C754 1.304 . S
C753 C757 1.323 . S
C754 C753 1.304 . S
C754 C755 1.371 . S
C754 H768 0.930 . S
C755 C752 1.344 . S
C755 C754 1.371 . S
C755 H769 0.931 . S
C756 C752 1.328 . S
C756 C757 1.433 . S
C756 H770 0.931 . S
C757 C753 1.323 . S
C757 C756 1.433 . S
C757 H771 0.933 . S
C758 Dy736 2.738 . S
C758 O741 1.255 . S
C758 O742 1.249 . S
C758 C752 1.516 . S
C759 O743 1.254 . S
C759 O744 1.257 . S
C760 O745 1.266 . S
C760 O746 1.236 . S
C761 C764 1.344 . S
C761 C765 1.328 . S
C761 C767 1.516 1_655 S
C762 C763 1.304 . S
C762 C766 1.323 . S
C763 C762 1.304 . S
C763 C764 1.371 . S
C763 H772 0.930 . S
C764 C761 1.344 . S
C764 C763 1.371 . S
C764 H773 0.931 . S
C765 C761 1.328 . S
C765 C766 1.433 . S
C765 H774 0.931 . S
C766 C762 1.323 . S
C766 C765 1.433 . S
C766 H775 0.933 . S
C767 Dy737 2.738 . S
C767 O747 1.255 . S
C767 O748 1.249 . S
C767 C761 1.516 1_455 S
H768 C754 0.930 . S
H769 C755 0.931 . S
H770 C756 0.931 . S
H771 C757 0.933 . S
H772 C763 0.930 . S
H773 C764 0.931 . S
H774 C765 0.931 . S
H775 C766 0.933 . S
Dy776 O779 2.307 . S
Dy776 O781 2.395 . S
Dy776 O782 2.379 . S
Dy776 O784 2.339 . S
Dy776 O786 2.298 . S
Dy776 O790 2.275 . S
Dy776 C798 2.738 . S
Dy777 O780 2.298 . S
Dy777 O783 2.275 . S
Dy777 O785 2.307 . S
Dy777 O787 2.395 . S
Dy777 O788 2.379 . S
Dy777 O791 2.339 . S
Dy777 C807 2.738 . S
C778 O790 1.254 . S
C778 O791 1.257 . S
O779 Dy776 2.307 . S
O779 C789 1.266 . S
O780 Dy777 2.298 . S
O780 C789 1.236 . S
O781 Dy776 2.395 . S
O781 C798 1.255 . S
O782 Dy776 2.379 . S
O782 C798 1.249 . S
O783 Dy777 2.275 . S
O783 C799 1.254 . S
O784 Dy776 2.339 . S
O784 C799 1.257 . S
O785 Dy777 2.307 . S
O785 C800 1.266 . S
O786 Dy776 2.298 . S
O786 C800 1.236 . S
O787 Dy777 2.395 . S
O787 C807 1.255 . S
O788 Dy777 2.379 . S
O788 C807 1.249 . S
C789 O779 1.266 . S
C789 O780 1.236 . S
O790 Dy776 2.275 . S
O790 C778 1.254 . S
O791 Dy777 2.339 . S
O791 C778 1.257 . S
C792 C795 1.344 . S
C792 C796 1.328 . S
C792 C798 1.516 . S
C793 C794 1.304 . S
C793 C797 1.323 . S
C794 C793 1.304 . S
C794 C795 1.371 . S
C794 H808 0.930 . S
C795 C792 1.344 . S
C795 C794 1.371 . S
C795 H809 0.931 . S
C796 C792 1.328 . S
C796 C797 1.433 . S
C796 H810 0.931 . S
C797 C793 1.323 . S
C797 C796 1.433 . S
C797 H811 0.933 . S
C798 Dy776 2.738 . S
C798 O781 1.255 . S
C798 O782 1.249 . S
C798 C792 1.516 . S
C799 O783 1.254 . S
C799 O784 1.257 . S
C800 O785 1.266 . S
C800 O786 1.236 . S
C801 C804 1.344 . S
C801 C805 1.328 . S
C801 C807 1.516 . S
C802 C803 1.304 . S
C802 C806 1.323 . S
C803 C802 1.304 . S
C803 C804 1.371 . S
C803 H812 0.930 . S
C804 C801 1.344 . S
C804 C803 1.371 . S
C804 H813 0.931 . S
C805 C801 1.328 . S
C805 C806 1.433 . S
C805 H814 0.931 . S
C806 C802 1.323 . S
C806 C805 1.433 . S
C806 H815 0.933 . S
C807 Dy777 2.738 . S
C807 O787 1.255 . S
C807 O788 1.249 . S
C807 C801 1.516 . S
H808 C794 0.930 . S
H809 C795 0.931 . S
H810 C796 0.931 . S
H811 C797 0.933 . S
H812 C803 0.930 . S
H813 C804 0.931 . S
H814 C805 0.931 . S
H815 C806 0.933 . S
Dy816 O819 2.307 . S
Dy816 O821 2.395 . S
Dy816 O822 2.379 . S
Dy816 O824 2.339 . S
Dy816 O826 2.298 . S
Dy816 O830 2.275 . S
Dy816 C838 2.738 . S
Dy817 O820 2.298 . S
Dy817 O823 2.275 . S
Dy817 O825 2.307 . S
Dy817 O827 2.395 . S
Dy817 O828 2.379 . S
Dy817 O831 2.339 . S
Dy817 C847 2.738 . S
C818 O830 1.254 . S
C818 O831 1.257 . S
O819 Dy816 2.307 . S
O819 C829 1.266 . S
O820 Dy817 2.298 . S
O820 C829 1.236 . S
O821 Dy816 2.395 . S
O821 C838 1.255 . S
O822 Dy816 2.379 . S
O822 C838 1.249 . S
O823 Dy817 2.275 . S
O823 C839 1.254 . S
O824 Dy816 2.339 . S
O824 C839 1.257 . S
O825 Dy817 2.307 . S
O825 C840 1.266 . S
O826 Dy816 2.298 . S
O826 C840 1.236 . S
O827 Dy817 2.395 . S
O827 C847 1.255 . S
O828 Dy817 2.379 . S
O828 C847 1.249 . S
C829 O819 1.266 . S
C829 O820 1.236 . S
O830 Dy816 2.275 . S
O830 C818 1.254 . S
O831 Dy817 2.339 . S
O831 C818 1.257 . S
C832 C835 1.344 . S
C832 C836 1.328 . S
C832 C838 1.516 . S
C833 C834 1.304 . S
C833 C837 1.323 . S
C834 C833 1.304 . S
C834 C835 1.371 . S
C834 H848 0.930 . S
C835 C832 1.344 . S
C835 C834 1.371 . S
C835 H849 0.931 . S
C836 C832 1.328 . S
C836 C837 1.433 . S
C836 H850 0.931 . S
C837 C833 1.323 . S
C837 C836 1.433 . S
C837 H851 0.933 . S
C838 Dy816 2.738 . S
C838 O821 1.255 . S
C838 O822 1.249 . S
C838 C832 1.516 . S
C839 O823 1.254 . S
C839 O824 1.257 . S
C840 O825 1.266 . S
C840 O826 1.236 . S
C841 C844 1.344 . S
C841 C845 1.328 . S
C841 C847 1.516 . S
C842 C843 1.304 . S
C842 C846 1.323 . S
C843 C842 1.304 . S
C843 C844 1.371 . S
C843 H852 0.930 . S
C844 C841 1.344 . S
C844 C843 1.371 . S
C844 H853 0.931 . S
C845 C841 1.328 . S
C845 C846 1.433 . S
C845 H854 0.931 . S
C846 C842 1.323 . S
C846 C845 1.433 . S
C846 H855 0.933 1_556 S
C847 Dy817 2.738 . S
C847 O827 1.255 . S
C847 O828 1.249 . S
C847 C841 1.516 . S
H848 C834 0.930 . S
H849 C835 0.931 . S
H850 C836 0.931 . S
H851 C837 0.933 . S
H852 C843 0.930 . S
H853 C844 0.931 . S
H854 C845 0.931 . S
H855 C846 0.933 1_554 S
Dy856 O859 2.307 . S
Dy856 O861 2.395 . S
Dy856 O862 2.379 . S
Dy856 O864 2.339 . S
Dy856 O866 2.298 . S
Dy856 O870 2.275 . S
Dy856 C878 2.738 . S
Dy857 O860 2.298 . S
Dy857 O863 2.275 . S
Dy857 O865 2.307 . S
Dy857 O867 2.395 . S
Dy857 O868 2.379 . S
Dy857 O871 2.339 . S
Dy857 C887 2.738 . S
C858 O870 1.254 . S
C858 O871 1.257 . S
O859 Dy856 2.307 . S
O859 C869 1.266 . S
O860 Dy857 2.298 . S
O860 C869 1.236 . S
O861 Dy856 2.395 . S
O861 C878 1.255 . S
O862 Dy856 2.379 . S
O862 C878 1.249 . S
O863 Dy857 2.275 . S
O863 C879 1.254 . S
O864 Dy856 2.339 . S
O864 C879 1.257 . S
O865 Dy857 2.307 . S
O865 C880 1.266 . S
O866 Dy856 2.298 . S
O866 C880 1.236 . S
O867 Dy857 2.395 . S
O867 C887 1.255 . S
O868 Dy857 2.379 . S
O868 C887 1.249 . S
C869 O859 1.266 . S
C869 O860 1.236 . S
O870 Dy856 2.275 . S
O870 C858 1.254 . S
O871 Dy857 2.339 . S
O871 C858 1.257 . S
C872 C875 1.344 . S
C872 C876 1.328 . S
C872 C878 1.516 . S
C873 C874 1.304 . S
C873 C877 1.323 . S
C874 C873 1.304 . S
C874 C875 1.371 . S
C874 H888 0.930 . S
C875 C872 1.344 . S
C875 C874 1.371 . S
C875 H889 0.931 . S
C876 C872 1.328 . S
C876 C877 1.433 . S
C876 H890 0.931 . S
C877 C873 1.323 . S
C877 C876 1.433 . S
C877 H891 0.933 . S
C878 Dy856 2.738 . S
C878 O861 1.255 . S
C878 O862 1.249 . S
C878 C872 1.516 . S
C879 O863 1.254 . S
C879 O864 1.257 . S
C880 O865 1.266 . S
C880 O866 1.236 . S
C881 C884 1.344 . S
C881 C885 1.328 . S
C881 C887 1.516 . S
C882 C883 1.304 . S
C882 C886 1.323 . S
C883 C882 1.304 . S
C883 C884 1.371 . S
C883 H892 0.930 . S
C884 C881 1.344 . S
C884 C883 1.371 . S
C884 H893 0.931 . S
C885 C881 1.328 . S
C885 C886 1.433 . S
C885 H894 0.931 . S
C886 C882 1.323 . S
C886 C885 1.433 . S
C886 H895 0.933 . S
C887 Dy857 2.738 . S
C887 O867 1.255 . S
C887 O868 1.249 . S
C887 C881 1.516 . S
H888 C874 0.930 . S
H889 C875 0.931 . S
H890 C876 0.931 . S
H891 C877 0.933 . S
H892 C883 0.930 . S
H893 C884 0.931 . S
H894 C885 0.931 . S
H895 C886 0.933 . S
Dy896 O899 2.307 . S
Dy896 O901 2.395 . S
Dy896 O902 2.379 . S
Dy896 O904 2.339 . S
Dy896 O906 2.298 . S
Dy896 O910 2.275 . S
Dy896 C918 2.738 . S
Dy897 O900 2.298 . S
Dy897 O903 2.275 . S
Dy897 O905 2.307 . S
Dy897 O907 2.395 . S
Dy897 O908 2.379 . S
Dy897 O911 2.339 . S
Dy897 C927 2.738 . S
C898 O910 1.254 . S
C898 O911 1.257 . S
O899 Dy896 2.307 . S
O899 C909 1.266 . S
O900 Dy897 2.298 . S
O900 C909 1.236 . S
O901 Dy896 2.395 . S
O901 C918 1.255 . S
O902 Dy896 2.379 . S
O902 C918 1.249 . S
O903 Dy897 2.275 . S
O903 C919 1.254 . S
O904 Dy896 2.339 . S
O904 C919 1.257 . S
O905 Dy897 2.307 . S
O905 C920 1.266 . S
O906 Dy896 2.298 . S
O906 C920 1.236 . S
O907 Dy897 2.395 . S
O907 C927 1.255 . S
O908 Dy897 2.379 . S
O908 C927 1.249 . S
C909 O899 1.266 . S
C909 O900 1.236 . S
O910 Dy896 2.275 . S
O910 C898 1.254 . S
O911 Dy897 2.339 . S
O911 C898 1.257 . S
C912 C915 1.344 . S
C912 C916 1.328 . S
C912 C918 1.516 . S
C913 C914 1.304 . S
C913 C917 1.323 . S
C914 C913 1.304 . S
C914 C915 1.371 . S
C914 H928 0.930 . S
C915 C912 1.344 . S
C915 C914 1.371 . S
C915 H929 0.931 . S
C916 C912 1.328 . S
C916 C917 1.433 . S
C916 H930 0.931 . S
C917 C913 1.323 . S
C917 C916 1.433 . S
C917 H931 0.933 . S
C918 Dy896 2.738 . S
C918 O901 1.255 . S
C918 O902 1.249 . S
C918 C912 1.516 . S
C919 O903 1.254 . S
C919 O904 1.257 . S
C920 O905 1.266 . S
C920 O906 1.236 . S
C921 C924 1.344 . S
C921 C925 1.328 . S
C921 C927 1.516 . S
C922 C923 1.304 . S
C922 C926 1.323 . S
C923 C922 1.304 . S
C923 C924 1.371 . S
C923 H932 0.930 . S
C924 C921 1.344 . S
C924 C923 1.371 . S
C924 H933 0.931 . S
C925 C921 1.328 . S
C925 C926 1.433 . S
C925 H934 0.931 . S
C926 C922 1.323 . S
C926 C925 1.433 . S
C926 H935 0.933 . S
C927 Dy897 2.738 . S
C927 O907 1.255 . S
C927 O908 1.249 . S
C927 C921 1.516 . S
H928 C914 0.930 . S
H929 C915 0.931 . S
H930 C916 0.931 . S
H931 C917 0.933 . S
H932 C923 0.930 . S
H933 C924 0.931 . S
H934 C925 0.931 . S
H935 C926 0.933 . S
Dy936 O939 2.307 . S
Dy936 O941 2.395 1_455 S
Dy936 O942 2.379 1_455 S
Dy936 O944 2.339 . S
Dy936 O946 2.298 . S
Dy936 O950 2.275 . S
Dy936 C958 2.738 1_455 S
Dy937 O940 2.298 . S
Dy937 O943 2.275 . S
Dy937 O945 2.307 . S
Dy937 O947 2.395 . S
Dy937 O948 2.379 1_554 S
Dy937 O951 2.339 1_554 S
Dy937 C967 2.738 . S
C938 O950 1.254 1_556 S
C938 O951 1.257 . S
O939 Dy936 2.307 . S
O939 C949 1.266 . S
O940 Dy937 2.298 . S
O940 C949 1.236 . S
O941 Dy936 2.395 1_655 S
O941 C958 1.255 . S
O942 Dy936 2.379 1_655 S
O942 C958 1.249 . S
O943 Dy937 2.275 . S
O943 C959 1.254 . S
O944 Dy936 2.339 . S
O944 C959 1.257 . S
O945 Dy937 2.307 . S
O945 C960 1.266 . S
O946 Dy936 2.298 . S
O946 C960 1.236 . S
O947 Dy937 2.395 . S
O947 C967 1.255 . S
O948 Dy937 2.379 1_556 S
O948 C967 1.249 1_556 S
C949 O939 1.266 . S
C949 O940 1.236 . S
O950 Dy936 2.275 . S
O950 C938 1.254 1_554 S
O951 Dy937 2.339 1_556 S
O951 C938 1.257 . S
C952 C955 1.344 . S
C952 C956 1.328 . S
C952 C958 1.516 . S
C953 C954 1.304 . S
C953 C957 1.323 . S
C954 C953 1.304 . S
C954 C955 1.371 . S
C954 H968 0.930 . S
C955 C952 1.344 . S
C955 C954 1.371 . S
C955 H969 0.931 . S
C956 C952 1.328 . S
C956 C957 1.433 . S
C956 H970 0.931 . S
C957 C953 1.323 . S
C957 C956 1.433 . S
C957 H971 0.933 . S
C958 Dy936 2.738 1_655 S
C958 O941 1.255 . S
C958 O942 1.249 . S
C958 C952 1.516 . S
C959 O943 1.254 . S
C959 O944 1.257 . S
C960 O945 1.266 . S
C960 O946 1.236 . S
C961 C964 1.344 . S
C961 C965 1.328 1_554 S
C961 C967 1.516 . S
C962 C963 1.304 . S
C962 C966 1.323 1_554 S
C963 C962 1.304 . S
C963 C964 1.371 . S
C963 H972 0.930 . S
C964 C961 1.344 . S
C964 C963 1.371 . S
C964 H973 0.931 . S
C965 C961 1.328 1_556 S
C965 C966 1.433 . S
C965 H974 0.931 . S
C966 C962 1.323 1_556 S
C966 C965 1.433 . S
C966 H975 0.933 . S
C967 Dy937 2.738 . S
C967 O947 1.255 . S
C967 O948 1.249 1_554 S
C967 C961 1.516 . S
H968 C954 0.930 . S
H969 C955 0.931 . S
H970 C956 0.931 . S
H971 C957 0.933 . S
H972 C963 0.930 . S
H973 C964 0.931 . S
H974 C965 0.931 . S
H975 C966 0.933 . S
C976 C977 1.387 . S
C976 H980 0.950 1_554 S
C976 C985 1.390 . S
C977 C976 1.387 . S
C977 C979 1.387 . S
H978 C985 0.950 . S
C979 C977 1.387 . S
C979 C981 1.390 . S
C979 H983 0.950 1_455 S
H980 C976 0.950 1_556 S
C981 C979 1.390 . S
C981 C982 1.387 . S
C981 H984 0.950 . S
C982 C981 1.387 . S
C982 C985 1.387 . S
H983 C979 0.950 1_655 S
H984 C981 0.950 . S
C985 C976 1.390 . S
C985 H978 0.950 . S
C985 C982 1.387 . S
C986 C987 1.387 . S
C986 H990 0.950 . S
C986 C995 1.390 . S
C987 C986 1.387 . S
C987 C989 1.387 . S
H988 C995 0.950 . S
C989 C987 1.387 . S
C989 C991 1.390 . S
C989 H993 0.950 . S
H990 C986 0.950 . S
C991 C989 1.390 . S
C991 C992 1.387 . S
C991 H994 0.950 . S
C992 C991 1.387 . S
C992 C995 1.387 . S
H993 C989 0.950 . S
H994 C991 0.950 . S
C995 C986 1.390 . S
C995 H988 0.950 . S
C995 C992 1.387 . S
C996 C997 1.387 . S
C996 H1000 0.950 . S
C996 C1005 1.390 . S
C997 C996 1.387 . S
C997 C999 1.387 . S
H998 C1005 0.950 . S
C999 C997 1.387 . S
C999 C1001 1.390 . S
C999 H1003 0.950 . S
H1000 C996 0.950 . S
C1001 C999 1.390 . S
C1001 C1002 1.387 . S
C1001 H1004 0.950 . S
C1002 C1001 1.387 . S
C1002 C1005 1.387 . S
H1003 C999 0.950 . S
H1004 C1001 0.950 . S
C1005 C996 1.390 . S
C1005 H998 0.950 . S
C1005 C1002 1.387 . S
C1006 C1007 1.387 . S
C1006 H1010 0.950 . S
C1006 C1015 1.390 . S
C1007 C1006 1.387 . S
C1007 C1009 1.387 . S
H1008 C1015 0.950 . S
C1009 C1007 1.387 . S
C1009 C1011 1.390 . S
C1009 H1013 0.950 . S
H1010 C1006 0.950 . S
C1011 C1009 1.390 . S
C1011 C1012 1.387 . S
C1011 H1014 0.950 . S
C1012 C1011 1.387 . S
C1012 C1015 1.387 . S
H1013 C1009 0.950 . S
H1014 C1011 0.950 . S
C1015 C1006 1.390 . S
C1015 H1008 0.950 . S
C1015 C1012 1.387 . S
C1016 C1017 1.387 . S
C1016 H1020 0.950 . S
C1016 C1025 1.390 . S
C1017 C1016 1.387 . S
C1017 C1019 1.387 . S
H1018 C1025 0.950 . S
C1019 C1017 1.387 . S
C1019 C1021 1.390 . S
C1019 H1023 0.950 . S
H1020 C1016 0.950 . S
C1021 C1019 1.390 . S
C1021 C1022 1.387 . S
C1021 H1024 0.950 . S
C1022 C1021 1.387 . S
C1022 C1025 1.387 . S
H1023 C1019 0.950 . S
H1024 C1021 0.950 . S
C1025 C1016 1.390 . S
C1025 H1018 0.950 . S
C1025 C1022 1.387 . S
C1026 C1027 1.387 . S
C1026 H1030 0.950 . S
C1026 C1035 1.390 . S
C1027 C1026 1.387 . S
C1027 C1029 1.387 . S
H1028 C1035 0.950 . S
C1029 C1027 1.387 . S
C1029 C1031 1.390 . S
C1029 H1033 0.950 . S
H1030 C1026 0.950 . S
C1031 C1029 1.390 . S
C1031 C1032 1.387 . S
C1031 H1034 0.950 . S
C1032 C1031 1.387 . S
C1032 C1035 1.387 . S
H1033 C1029 0.950 . S
H1034 C1031 0.950 . S
C1035 C1026 1.390 . S
C1035 H1028 0.950 . S
C1035 C1032 1.387 . S
C1036 C1037 1.387 . S
C1036 H1040 0.950 . S
C1036 C1045 1.390 . S
C1037 C1036 1.387 . S
C1037 C1039 1.387 . S
H1038 C1045 0.950 . S
C1039 C1037 1.387 . S
C1039 C1041 1.390 . S
C1039 H1043 0.950 . S
H1040 C1036 0.950 . S
C1041 C1039 1.390 . S
C1041 C1042 1.387 . S
C1041 H1044 0.950 . S
C1042 C1041 1.387 . S
C1042 C1045 1.387 . S
H1043 C1039 0.950 . S
H1044 C1041 0.950 . S
C1045 C1036 1.390 . S
C1045 H1038 0.950 . S
C1045 C1042 1.387 . S
C1046 C1047 1.387 . S
C1046 H1050 0.950 . S
C1046 C1055 1.390 . S
C1047 C1046 1.387 . S
C1047 C1049 1.387 . S
H1048 C1055 0.950 . S
C1049 C1047 1.387 . S
C1049 C1051 1.390 . S
C1049 H1053 0.950 . S
H1050 C1046 0.950 . S
C1051 C1049 1.390 . S
C1051 C1052 1.387 . S
C1051 H1054 0.950 . S
C1052 C1051 1.387 . S
C1052 C1055 1.387 . S
H1053 C1049 0.950 . S
H1054 C1051 0.950 . S
C1055 C1046 1.390 . S
C1055 H1048 0.950 . S
C1055 C1052 1.387 . S
C1056 C1057 1.388 1_455 S
C1056 H1060 0.942 1_455 S
C1056 C1065 1.398 . S
C1057 C1056 1.388 1_655 S
C1057 C1059 1.387 . S
H1058 C1065 0.950 . S
C1059 C1057 1.387 . S
C1059 C1061 1.390 1_655 S
C1059 H1063 0.946 . S
H1060 C1056 0.942 1_655 S
C1061 C1059 1.390 1_455 S
C1061 C1062 1.387 . S
C1061 H1064 0.950 . S
C1062 C1061 1.387 . S
C1062 C1065 1.387 . S
H1063 C1059 0.946 . S
H1064 C1061 0.950 . S
C1065 C1056 1.398 . S
C1065 H1058 0.950 . S
C1065 C1062 1.387 . S
C1066 C1067 1.387 . S
C1066 H1070 0.950 . S
C1066 C1075 1.390 . S
C1067 C1066 1.387 . S
C1067 C1069 1.387 . S
H1068 C1075 0.950 . S
C1069 C1067 1.387 . S
C1069 C1071 1.390 . S
C1069 H1073 0.950 . S
H1070 C1066 0.950 . S
C1071 C1069 1.390 . S
C1071 C1072 1.387 . S
C1071 H1074 0.950 . S
C1072 C1071 1.387 . S
C1072 C1075 1.387 . S
H1073 C1069 0.950 . S
H1074 C1071 0.950 . S
C1075 C1066 1.390 . S
C1075 H1068 0.950 . S
C1075 C1072 1.387 . S
C1076 C1077 1.387 . S
C1076 H1080 0.950 . S
C1076 C1085 1.390 . S
C1077 C1076 1.387 . S
C1077 C1079 1.387 . S
H1078 C1085 0.950 . S
C1079 C1077 1.387 . S
C1079 C1081 1.390 . S
C1079 H1083 0.950 . S
H1080 C1076 0.950 . S
C1081 C1079 1.390 . S
C1081 C1082 1.387 . S
C1081 H1084 0.950 . S
C1082 C1081 1.387 . S
C1082 C1085 1.387 . S
H1083 C1079 0.950 . S
H1084 C1081 0.950 . S
C1085 C1076 1.390 . S
C1085 H1078 0.950 . S
C1085 C1082 1.387 . S
C1086 C1087 1.387 . S
C1086 H1090 0.950 . S
C1086 C1095 1.390 . S
C1087 C1086 1.387 . S
C1087 C1089 1.387 . S
H1088 C1095 0.950 . S
C1089 C1087 1.387 . S
C1089 C1091 1.390 . S
C1089 H1093 0.950 . S
H1090 C1086 0.950 . S
C1091 C1089 1.390 . S
C1091 C1092 1.387 . S
C1091 H1094 0.950 . S
C1092 C1091 1.387 . S
C1092 C1095 1.387 . S
H1093 C1089 0.950 . S
H1094 C1091 0.950 . S
C1095 C1086 1.390 . S
C1095 H1088 0.950 . S
C1095 C1092 1.387 . S
C1096 C1097 1.387 . S
C1096 H1100 0.950 . S
C1096 C1105 1.390 . S
C1097 C1096 1.387 . S
C1097 C1099 1.387 1_655 S
H1098 C1105 0.950 . S
C1099 C1097 1.387 1_455 S
C1099 C1101 1.390 . S
C1099 H1103 0.950 . S
H1100 C1096 0.950 . S
C1101 C1099 1.390 . S
C1101 C1102 1.387 . S
C1101 H1104 0.950 . S
C1102 C1101 1.387 . S
C1102 C1105 1.387 1_455 S
H1103 C1099 0.950 . S
H1104 C1101 0.950 . S
C1105 C1096 1.390 . S
C1105 H1098 0.950 . S
C1105 C1102 1.387 1_655 S
C1106 C1107 1.387 . S
C1106 H1110 0.950 . S
C1106 C1115 1.390 . S
C1107 C1106 1.387 . S
C1107 C1109 1.387 . S
H1108 C1115 0.950 . S
C1109 C1107 1.387 . S
C1109 C1111 1.390 . S
C1109 H1113 0.950 . S
H1110 C1106 0.950 . S
C1111 C1109 1.390 . S
C1111 C1112 1.387 . S
C1111 H1114 0.950 . S
C1112 C1111 1.387 . S
C1112 C1115 1.387 . S
H1113 C1109 0.950 . S
H1114 C1111 0.950 . S
C1115 C1106 1.390 . S
C1115 H1108 0.950 . S
C1115 C1112 1.387 . S
C1116 C1117 1.387 . S
C1116 H1120 0.950 . S
C1116 C1125 1.390 . S
C1117 C1116 1.387 . S
C1117 C1119 1.387 . S
H1118 C1125 0.950 . S
C1119 C1117 1.387 . S
C1119 C1121 1.390 . S
C1119 H1123 0.950 . S
H1120 C1116 0.950 . S
C1121 C1119 1.390 . S
C1121 C1122 1.387 . S
C1121 H1124 0.950 . S
C1122 C1121 1.387 . S
C1122 C1125 1.387 . S
H1123 C1119 0.950 . S
H1124 C1121 0.950 . S
C1125 C1116 1.390 . S
C1125 H1118 0.950 . S
C1125 C1122 1.387 . S
C1126 C1127 1.387 . S
C1126 H1130 0.950 . S
C1126 C1135 1.390 . S
C1127 C1126 1.387 . S
C1127 C1129 1.387 . S
H1128 C1135 0.950 . S
C1129 C1127 1.387 . S
C1129 C1131 1.390 . S
C1129 H1133 0.950 . S
H1130 C1126 0.950 . S
C1131 C1129 1.390 . S
C1131 C1132 1.387 . S
C1131 H1134 0.950 . S
C1132 C1131 1.387 . S
C1132 C1135 1.387 . S
H1133 C1129 0.950 . S
H1134 C1131 0.950 . S
C1135 C1126 1.390 . S
C1135 H1128 0.950 . S
C1135 C1132 1.387 . S
C1136 C1137 1.387 . S
C1136 H1140 0.950 . S
C1136 C1145 1.390 . S
C1137 C1136 1.387 . S
C1137 C1139 1.387 1_565 S
H1138 C1145 0.950 . S
C1139 C1137 1.387 1_545 S
C1139 C1141 1.390 . S
C1139 H1143 0.950 . S
H1140 C1136 0.950 . S
C1141 C1139 1.390 . S
C1141 C1142 1.387 . S
C1141 H1144 0.950 . S
C1142 C1141 1.387 . S
C1142 C1145 1.387 1_545 S
H1143 C1139 0.950 . S
H1144 C1141 0.950 . S
C1145 C1136 1.390 . S
C1145 H1138 0.950 . S
C1145 C1142 1.387 1_565 S
C1146 C1147 1.387 . S
C1146 H1150 0.950 . S
C1146 C1155 1.390 . S
C1147 C1146 1.387 . S
C1147 C1149 1.387 . S
H1148 C1155 0.950 . S
C1149 C1147 1.387 . S
C1149 C1151 1.390 . S
C1149 H1153 0.950 1_554 S
H1150 C1146 0.950 . S
C1151 C1149 1.390 . S
C1151 C1152 1.387 . S
C1151 H1154 0.950 1_554 S
C1152 C1151 1.387 . S
C1152 C1155 1.387 . S
H1153 C1149 0.950 1_556 S
H1154 C1151 0.950 1_556 S
C1155 C1146 1.390 . S
C1155 H1148 0.950 . S
C1155 C1152 1.387 . S
C1156 C1157 1.387 . S
C1156 H1160 0.950 . S
C1156 C1165 1.390 . S
C1157 C1156 1.387 . S
C1157 C1159 1.387 . S
H1158 C1165 0.950 . S
C1159 C1157 1.387 . S
C1159 C1161 1.390 . S
C1159 H1163 0.950 . S
H1160 C1156 0.950 . S
C1161 C1159 1.390 . S
C1161 C1162 1.387 . S
C1161 H1164 0.950 . S
C1162 C1161 1.387 . S
C1162 C1165 1.387 . S
H1163 C1159 0.950 . S
H1164 C1161 0.950 . S
C1165 C1156 1.390 . S
C1165 H1158 0.950 . S
C1165 C1162 1.387 . S
C1166 C1167 1.387 . S
C1166 H1170 0.950 . S
C1166 C1175 1.390 . S
C1167 C1166 1.387 . S
C1167 C1169 1.387 . S
H1168 C1175 0.950 . S
C1169 C1167 1.387 . S
C1169 C1171 1.390 . S
C1169 H1173 0.950 . S
H1170 C1166 0.950 . S
C1171 C1169 1.390 . S
C1171 C1172 1.387 . S
C1171 H1174 0.950 . S
C1172 C1171 1.387 . S
C1172 C1175 1.387 . S
H1173 C1169 0.950 . S
H1174 C1171 0.950 . S
C1175 C1166 1.390 . S
C1175 H1168 0.950 . S
C1175 C1172 1.387 . S
C1176 C1177 1.387 . S
C1176 H1180 0.950 . S
C1176 C1185 1.390 . S
C1177 C1176 1.387 . S
C1177 C1179 1.387 . S
H1178 C1185 0.950 . S
C1179 C1177 1.387 . S
C1179 C1181 1.390 . S
C1179 H1183 0.950 . S
H1180 C1176 0.950 . S
C1181 C1179 1.390 . S
C1181 C1182 1.387 . S
C1181 H1184 0.950 . S
C1182 C1181 1.387 . S
C1182 C1185 1.387 . S
H1183 C1179 0.950 . S
H1184 C1181 0.950 . S
C1185 C1176 1.390 . S
C1185 H1178 0.950 . S
C1185 C1182 1.387 . S
C1186 C1187 1.387 . S
C1186 H1190 0.950 . S
C1186 C1195 1.390 . S
C1187 C1186 1.387 . S
C1187 C1189 1.387 . S
H1188 C1195 0.950 . S
C1189 C1187 1.387 . S
C1189 C1191 1.390 . S
C1189 H1193 0.950 . S
H1190 C1186 0.950 . S
C1191 C1189 1.390 . S
C1191 C1192 1.387 . S
C1191 H1194 0.950 . S
C1192 C1191 1.387 . S
C1192 C1195 1.387 . S
H1193 C1189 0.950 . S
H1194 C1191 0.950 . S
C1195 C1186 1.390 . S
C1195 H1188 0.950 . S
C1195 C1192 1.387 . S
C1196 C1197 1.387 . S
C1196 H1200 0.950 . S
C1196 C1205 1.390 . S
C1197 C1196 1.387 . S
C1197 C1199 1.387 . S
H1198 C1205 0.950 . S
C1199 C1197 1.387 . S
C1199 C1201 1.390 . S
C1199 H1203 0.950 . S
H1200 C1196 0.950 . S
C1201 C1199 1.390 . S
C1201 C1202 1.387 . S
C1201 H1204 0.950 . S
C1202 C1201 1.387 . S
C1202 C1205 1.387 . S
H1203 C1199 0.950 . S
H1204 C1201 0.950 . S
C1205 C1196 1.390 . S
C1205 H1198 0.950 . S
C1205 C1202 1.387 . S
C1206 C1207 1.387 . S
C1206 H1210 0.950 . S
C1206 C1215 1.390 . S
C1207 C1206 1.387 . S
C1207 C1209 1.387 . S
H1208 C1215 0.950 . S
C1209 C1207 1.387 . S
C1209 C1211 1.390 . S
C1209 H1213 0.950 . S
H1210 C1206 0.950 . S
C1211 C1209 1.390 . S
C1211 C1212 1.387 . S
C1211 H1214 0.950 . S
C1212 C1211 1.387 . S
C1212 C1215 1.387 . S
H1213 C1209 0.950 . S
H1214 C1211 0.950 . S
C1215 C1206 1.390 . S
C1215 H1208 0.950 . S
C1215 C1212 1.387 . S
C1216 C1217 1.387 . S
C1216 H1220 0.950 . S
C1216 C1225 1.390 . S
C1217 C1216 1.387 . S
C1217 C1219 1.387 . S
H1218 C1225 0.950 . S
C1219 C1217 1.387 . S
C1219 C1221 1.390 . S
C1219 H1223 0.950 . S
H1220 C1216 0.950 . S
C1221 C1219 1.390 . S
C1221 C1222 1.387 . S
C1221 H1224 0.950 . S
C1222 C1221 1.387 . S
C1222 C1225 1.387 . S
H1223 C1219 0.950 . S
H1224 C1221 0.950 . S
C1225 C1216 1.390 . S
C1225 H1218 0.950 . S
C1225 C1222 1.387 . S
C1226 C1227 1.387 . S
C1226 H1230 0.950 . S
C1226 C1235 1.390 . S
C1227 C1226 1.387 . S
C1227 C1229 1.387 . S
H1228 C1235 0.950 . S
C1229 C1227 1.387 . S
C1229 C1231 1.390 . S
C1229 H1233 0.950 . S
H1230 C1226 0.950 . S
C1231 C1229 1.390 . S
C1231 C1232 1.387 . S
C1231 H1234 0.950 . S
C1232 C1231 1.387 . S
C1232 C1235 1.387 . S
H1233 C1229 0.950 . S
H1234 C1231 0.950 . S
C1235 C1226 1.390 . S
C1235 H1228 0.950 . S
C1235 C1232 1.387 . S
C1236 C1237 1.387 . S
C1236 H1240 0.950 . S
C1236 C1245 1.390 . S
C1237 C1236 1.387 . S
C1237 C1239 1.387 . S
H1238 C1245 0.950 . S
C1239 C1237 1.387 . S
C1239 C1241 1.390 . S
C1239 H1243 0.950 . S
H1240 C1236 0.950 . S
C1241 C1239 1.390 . S
C1241 C1242 1.387 . S
C1241 H1244 0.950 . S
C1242 C1241 1.387 . S
C1242 C1245 1.387 . S
H1243 C1239 0.950 . S
H1244 C1241 0.950 . S
C1245 C1236 1.390 . S
C1245 H1238 0.950 . S
C1245 C1242 1.387 . S
C1246 C1247 1.387 . S
C1246 H1250 0.950 . S
C1246 C1255 1.390 . S
C1247 C1246 1.387 . S
C1247 C1249 1.387 . S
H1248 C1255 0.950 . S
C1249 C1247 1.387 . S
C1249 C1251 1.390 . S
C1249 H1253 0.950 . S
H1250 C1246 0.950 . S
C1251 C1249 1.390 . S
C1251 C1252 1.387 . S
C1251 H1254 0.950 . S
C1252 C1251 1.387 . S
C1252 C1255 1.387 . S
H1253 C1249 0.950 . S
H1254 C1251 0.950 . S
C1255 C1246 1.390 . S
C1255 H1248 0.950 . S
C1255 C1252 1.387 . S
C1256 C1257 1.387 . S
C1256 H1260 0.950 . S
C1256 C1265 1.390 . S
C1257 C1256 1.387 . S
C1257 C1259 1.387 . S
H1258 C1265 0.950 . S
C1259 C1257 1.387 . S
C1259 C1261 1.390 . S
C1259 H1263 0.950 . S
H1260 C1256 0.950 . S
C1261 C1259 1.390 . S
C1261 C1262 1.387 . S
C1261 H1264 0.950 1_455 S
C1262 C1261 1.387 . S
C1262 C1265 1.387 . S
H1263 C1259 0.950 . S
H1264 C1261 0.950 1_655 S
C1265 C1256 1.390 . S
C1265 H1258 0.950 . S
C1265 C1262 1.387 . S
C1266 C1267 1.387 . S
C1266 H1270 0.950 . S
C1266 C1275 1.390 . S
C1267 C1266 1.387 . S
C1267 C1269 1.387 . S
H1268 C1275 0.950 . S
C1269 C1267 1.387 . S
C1269 C1271 1.390 . S
C1269 H1273 0.950 . S
H1270 C1266 0.950 . S
C1271 C1269 1.390 . S
C1271 C1272 1.387 . S
C1271 H1274 0.950 . S
C1272 C1271 1.387 . S
C1272 C1275 1.387 . S
H1273 C1269 0.950 . S
H1274 C1271 0.950 . S
C1275 C1266 1.390 . S
C1275 H1268 0.950 . S
C1275 C1272 1.387 . S
C1276 C1277 1.387 . S
C1276 H1280 0.950 . S
C1276 C1285 1.390 . S
C1277 C1276 1.387 . S
C1277 C1279 1.387 . S
H1278 C1285 0.950 . S
C1279 C1277 1.387 . S
C1279 C1281 1.390 . S
C1279 H1283 0.950 . S
H1280 C1276 0.950 . S
C1281 C1279 1.390 . S
C1281 C1282 1.387 . S
C1281 H1284 0.950 1_556 S
C1282 C1281 1.387 . S
C1282 C1285 1.387 . S
H1283 C1279 0.950 . S
H1284 C1281 0.950 1_554 S
C1285 C1276 1.390 . S
C1285 H1278 0.950 . S
C1285 C1282 1.387 . S
C1286 C1287 1.387 . S
C1286 H1290 0.950 . S
C1286 C1295 1.390 . S
C1287 C1286 1.387 . S
C1287 C1289 1.387 . S
H1288 C1295 0.950 . S
C1289 C1287 1.387 . S
C1289 C1291 1.390 . S
C1289 H1293 0.950 . S
H1290 C1286 0.950 . S
C1291 C1289 1.390 . S
C1291 C1292 1.387 . S
C1291 H1294 0.950 . S
C1292 C1291 1.387 . S
C1292 C1295 1.387 . S
H1293 C1289 0.950 . S
H1294 C1291 0.950 . S
C1295 C1286 1.390 . S
C1295 H1288 0.950 . S
C1295 C1292 1.387 . S
C1296 C1297 1.387 . S
C1296 H1300 0.950 . S
C1296 C1305 1.390 . S
C1297 C1296 1.387 . S
C1297 C1299 1.387 . S
H1298 C1305 0.950 . S
C1299 C1297 1.387 . S
C1299 C1301 1.390 . S
C1299 H1303 0.950 . S
H1300 C1296 0.950 . S
C1301 C1299 1.390 . S
C1301 C1302 1.387 . S
C1301 H1304 0.950 . S
C1302 C1301 1.387 . S
C1302 C1305 1.387 . S
H1303 C1299 0.950 . S
H1304 C1301 0.950 . S
C1305 C1296 1.390 . S
C1305 H1298 0.950 . S
C1305 C1302 1.387 . S
C1306 C1307 1.387 . S
C1306 H1310 0.950 . S
C1306 C1315 1.390 . S
C1307 C1306 1.387 . S
C1307 C1309 1.387 . S
H1308 C1315 0.950 . S
C1309 C1307 1.387 . S
C1309 C1311 1.390 . S
C1309 H1313 0.950 . S
H1310 C1306 0.950 . S
C1311 C1309 1.390 . S
C1311 C1312 1.387 . S
C1311 H1314 0.950 . S
C1312 C1311 1.387 . S
C1312 C1315 1.387 . S
H1313 C1309 0.950 . S
H1314 C1311 0.950 . S
C1315 C1306 1.390 . S
C1315 H1308 0.950 . S
C1315 C1312 1.387 . S
C1316 C1317 1.387 . S
C1316 H1320 0.950 . S
C1316 C1325 1.390 . S
C1317 C1316 1.387 . S
C1317 C1319 1.387 1_545 S
H1318 C1325 0.950 . S
C1319 C1317 1.387 1_565 S
C1319 C1321 1.390 1_565 S
C1319 H1323 0.950 . S
H1320 C1316 0.950 . S
C1321 C1319 1.390 1_545 S
C1321 C1322 1.387 . S
C1321 H1324 0.950 1_545 S
C1322 C1321 1.387 . S
C1322 C1325 1.387 . S
H1323 C1319 0.950 . S
H1324 C1321 0.950 1_565 S
C1325 C1316 1.390 . S
C1325 H1318 0.950 . S
C1325 C1322 1.387 . S
C1326 C1327 1.387 . S
C1326 H1330 0.950 . S
C1326 C1335 1.390 . S
C1327 C1326 1.387 . S
C1327 C1329 1.387 . S
H1328 C1335 0.950 . S
C1329 C1327 1.387 . S
C1329 C1331 1.390 . S
C1329 H1333 0.950 . S
H1330 C1326 0.950 . S
C1331 C1329 1.390 . S
C1331 C1332 1.387 . S
C1331 H1334 0.950 . S
C1332 C1331 1.387 . S
C1332 C1335 1.387 . S
H1333 C1329 0.950 . S
H1334 C1331 0.950 . S
C1335 C1326 1.390 . S
C1335 H1328 0.950 . S
C1335 C1332 1.387 . S
C1336 C1337 1.387 . S
C1336 H1340 0.950 . S
C1336 C1345 1.390 . S
C1337 C1336 1.387 . S
C1337 C1339 1.387 . S
H1338 C1345 0.950 . S
C1339 C1337 1.387 . S
C1339 C1341 1.390 . S
C1339 H1343 0.950 . S
H1340 C1336 0.950 . S
C1341 C1339 1.390 . S
C1341 C1342 1.387 . S
C1341 H1344 0.950 . S
C1342 C1341 1.387 . S
C1342 C1345 1.387 . S
H1343 C1339 0.950 . S
H1344 C1341 0.950 . S
C1345 C1336 1.390 . S
C1345 H1338 0.950 . S
C1345 C1342 1.387 . S
C1346 C1347 1.387 . S
C1346 H1350 0.950 . S
C1346 C1355 1.390 . S
C1347 C1346 1.387 . S
C1347 C1349 1.387 . S
H1348 C1355 0.950 . S
C1349 C1347 1.387 . S
C1349 C1351 1.390 . S
C1349 H1353 0.950 . S
H1350 C1346 0.950 . S
C1351 C1349 1.390 . S
C1351 C1352 1.387 . S
C1351 H1354 0.950 . S
C1352 C1351 1.387 . S
C1352 C1355 1.387 . S
H1353 C1349 0.950 . S
H1354 C1351 0.950 . S
C1355 C1346 1.390 . S
C1355 H1348 0.950 . S
C1355 C1352 1.387 . S
C1356 C1357 1.371 1_545 S
C1356 H1360 0.950 . S
C1356 C1365 1.390 . S
C1357 C1356 1.371 1_565 S
C1357 C1359 1.412 . S
H1358 C1365 0.950 . S
C1359 C1357 1.412 . S
C1359 C1361 1.390 . S
C1359 H1363 0.950 . S
H1360 C1356 0.950 . S
C1361 C1359 1.390 . S
C1361 C1362 1.387 . S
C1361 H1364 0.950 . S
C1362 C1361 1.387 . S
C1362 C1365 1.387 1_565 S
H1363 C1359 0.950 . S
H1364 C1361 0.950 . S
C1365 C1356 1.390 . S
C1365 H1358 0.950 . S
C1365 C1362 1.387 1_545 S
C1366 C1367 1.387 . S
C1366 H1370 0.950 . S
C1366 C1375 1.390 . S
C1367 C1366 1.387 . S
C1367 C1369 1.387 . S
H1368 C1375 0.950 . S
C1369 C1367 1.387 . S
C1369 C1371 1.390 . S
C1369 H1373 0.950 . S
H1370 C1366 0.950 . S
C1371 C1369 1.390 . S
C1371 C1372 1.387 . S
C1371 H1374 0.950 . S
C1372 C1371 1.387 . S
C1372 C1375 1.387 . S
H1373 C1369 0.950 . S
H1374 C1371 0.950 . S
C1375 C1366 1.390 . S
C1375 H1368 0.950 . S
C1375 C1372 1.387 . S
C1376 C1377 1.387 . S
C1376 H1380 0.950 . S
C1376 C1385 1.390 . S
C1377 C1376 1.387 . S
C1377 C1379 1.387 . S
H1378 C1385 0.950 . S
C1379 C1377 1.387 . S
C1379 C1381 1.390 . S
C1379 H1383 0.950 . S
H1380 C1376 0.950 . S
C1381 C1379 1.390 . S
C1381 C1382 1.387 . S
C1381 H1384 0.950 . S
C1382 C1381 1.387 . S
C1382 C1385 1.387 . S
H1383 C1379 0.950 . S
H1384 C1381 0.950 . S
C1385 C1376 1.390 . S
C1385 H1378 0.950 . S
C1385 C1382 1.387 . S
C1386 C1387 1.387 . S
C1386 H1390 0.950 . S
C1386 C1395 1.390 . S
C1387 C1386 1.387 . S
C1387 C1389 1.387 . S
H1388 C1395 0.950 . S
C1389 C1387 1.387 . S
C1389 C1391 1.390 . S
C1389 H1393 0.950 . S
H1390 C1386 0.950 . S
C1391 C1389 1.390 . S
C1391 C1392 1.387 . S
C1391 H1394 0.950 . S
C1392 C1391 1.387 . S
C1392 C1395 1.387 . S
H1393 C1389 0.950 . S
H1394 C1391 0.950 . S
C1395 C1386 1.390 . S
C1395 H1388 0.950 . S
C1395 C1392 1.387 . S
C1396 C1397 1.387 . S
C1396 H1400 0.950 . S
C1396 C1405 1.390 . S
C1397 C1396 1.387 . S
C1397 C1399 1.387 . S
H1398 C1405 0.950 . S
C1399 C1397 1.387 . S
C1399 C1401 1.390 . S
C1399 H1403 0.950 . S
H1400 C1396 0.950 . S
C1401 C1399 1.390 . S
C1401 C1402 1.387 . S
C1401 H1404 0.950 . S
C1402 C1401 1.387 . S
C1402 C1405 1.387 . S
H1403 C1399 0.950 . S
H1404 C1401 0.950 . S
C1405 C1396 1.390 . S
C1405 H1398 0.950 . S
C1405 C1402 1.387 . S
C1406 C1407 1.387 . S
C1406 H1410 0.950 . S
C1406 C1415 1.390 . S
C1407 C1406 1.387 . S
C1407 C1409 1.387 . S
H1408 C1415 0.950 . S
C1409 C1407 1.387 . S
C1409 C1411 1.390 . S
C1409 H1413 0.950 . S
H1410 C1406 0.950 . S
C1411 C1409 1.390 . S
C1411 C1412 1.387 . S
C1411 H1414 0.950 . S
C1412 C1411 1.387 . S
C1412 C1415 1.387 . S
H1413 C1409 0.950 . S
H1414 C1411 0.950 . S
C1415 C1406 1.390 . S
C1415 H1408 0.950 . S
C1415 C1412 1.387 . S
C1416 C1417 1.387 . S
C1416 H1420 0.950 1_545 S
C1416 C1425 1.390 1_545 S
C1417 C1416 1.387 . S
C1417 C1419 1.387 . S
H1418 C1425 0.950 . S
C1419 C1417 1.387 . S
C1419 C1421 1.390 . S
C1419 H1423 0.950 . S
H1420 C1416 0.950 1_565 S
C1421 C1419 1.390 . S
C1421 C1422 1.387 . S
C1421 H1424 0.950 . S
C1422 C1421 1.387 . S
C1422 C1425 1.387 1_545 S
H1423 C1419 0.950 . S
H1424 C1421 0.950 . S
C1425 C1416 1.390 1_565 S
C1425 H1418 0.950 . S
C1425 C1422 1.387 1_565 S
C1426 C1427 1.387 . S
C1426 H1430 0.950 . S
C1426 C1435 1.390 . S
C1427 C1426 1.387 . S
C1427 C1429 1.387 . S
H1428 C1435 0.950 . S
C1429 C1427 1.387 . S
C1429 C1431 1.390 . S
C1429 H1433 0.950 . S
H1430 C1426 0.950 . S
C1431 C1429 1.390 . S
C1431 C1432 1.387 . S
C1431 H1434 0.950 . S
C1432 C1431 1.387 . S
C1432 C1435 1.387 . S
H1433 C1429 0.950 . S
H1434 C1431 0.950 . S
C1435 C1426 1.390 . S
C1435 H1428 0.950 . S
C1435 C1432 1.387 . S
C1436 C1437 1.387 . S
C1436 H1440 0.950 . S
C1436 C1445 1.390 . S
C1437 C1436 1.387 . S
C1437 C1439 1.387 . S
H1438 C1445 0.950 . S
C1439 C1437 1.387 . S
C1439 C1441 1.390 . S
C1439 H1443 0.950 . S
H1440 C1436 0.950 . S
C1441 C1439 1.390 . S
C1441 C1442 1.387 . S
C1441 H1444 0.950 . S
C1442 C1441 1.387 . S
C1442 C1445 1.387 . S
H1443 C1439 0.950 . S
H1444 C1441 0.950 . S
C1445 C1436 1.390 . S
C1445 H1438 0.950 . S
C1445 C1442 1.387 . S
C1446 C1447 1.387 . S
C1446 H1450 0.950 . S
C1446 C1455 1.390 . S
C1447 C1446 1.387 . S
C1447 C1449 1.387 . S
H1448 C1455 0.950 . S
C1449 C1447 1.387 . S
C1449 C1451 1.390 . S
C1449 H1453 0.950 . S
H1450 C1446 0.950 . S
C1451 C1449 1.390 . S
C1451 C1452 1.387 . S
C1451 H1454 0.950 . S
C1452 C1451 1.387 . S
C1452 C1455 1.387 . S
H1453 C1449 0.950 . S
H1454 C1451 0.950 . S
C1455 C1446 1.390 . S
C1455 H1448 0.950 . S
C1455 C1452 1.387 . S
C1456 C1457 1.387 . S
C1456 H1460 0.950 . S
C1456 C1465 1.390 . S
C1457 C1456 1.387 . S
C1457 C1459 1.387 . S
H1458 C1465 0.950 . S
C1459 C1457 1.387 . S
C1459 C1461 1.390 . S
C1459 H1463 0.950 . S
H1460 C1456 0.950 . S
C1461 C1459 1.390 . S
C1461 C1462 1.387 . S
C1461 H1464 0.950 . S
C1462 C1461 1.387 . S
C1462 C1465 1.387 . S
H1463 C1459 0.950 . S
H1464 C1461 0.950 . S
C1465 C1456 1.390 . S
C1465 H1458 0.950 . S
C1465 C1462 1.387 . S
C1466 C1467 1.387 . S
C1466 H1470 0.950 . S
C1466 C1475 1.390 . S
C1467 C1466 1.387 . S
C1467 C1469 1.387 . S
H1468 C1475 0.950 . S
C1469 C1467 1.387 . S
C1469 C1471 1.390 . S
C1469 H1473 0.950 . S
H1470 C1466 0.950 . S
C1471 C1469 1.390 . S
C1471 C1472 1.387 . S
C1471 H1474 0.950 . S
C1472 C1471 1.387 . S
C1472 C1475 1.387 . S
H1473 C1469 0.950 . S
H1474 C1471 0.950 . S
C1475 C1466 1.390 . S
C1475 H1468 0.950 . S
C1475 C1472 1.387 . S
C1476 C1477 1.387 1_655 S
C1476 H1480 0.950 . S
C1476 C1485 1.390 . S
C1477 C1476 1.387 1_455 S
C1477 C1479 1.387 . S
H1478 C1485 0.950 . S
C1479 C1477 1.387 . S
C1479 C1481 1.390 . S
C1479 H1483 0.950 . S
H1480 C1476 0.950 . S
C1481 C1479 1.390 . S
C1481 C1482 1.387 . S
C1481 H1484 0.950 . S
C1482 C1481 1.387 . S
C1482 C1485 1.387 1_455 S
H1483 C1479 0.950 . S
H1484 C1481 0.950 . S
C1485 C1476 1.390 . S
C1485 H1478 0.950 . S
C1485 C1482 1.387 1_655 S
C1486 C1487 1.387 . S
C1486 H1490 0.950 1_655 S
C1486 C1495 1.390 . S
C1487 C1486 1.387 . S
C1487 C1489 1.387 . S
H1488 C1495 0.950 . S
C1489 C1487 1.387 . S
C1489 C1491 1.390 . S
C1489 H1493 0.950 . S
H1490 C1486 0.950 1_455 S
C1491 C1489 1.390 . S
C1491 C1492 1.387 . S
C1491 H1494 0.950 . S
C1492 C1491 1.387 . S
C1492 C1495 1.387 . S
H1493 C1489 0.950 . S
H1494 C1491 0.950 . S
C1495 C1486 1.390 . S
C1495 H1488 0.950 . S
C1495 C1492 1.387 . S
C1496 C1497 1.387 . S
C1496 H1500 0.950 . S
C1496 C1505 1.390 . S
C1497 C1496 1.387 . S
C1497 C1499 1.387 . S
H1498 C1505 0.950 . S
C1499 C1497 1.387 . S
C1499 C1501 1.390 . S
C1499 H1503 0.950 . S
H1500 C1496 0.950 . S
C1501 C1499 1.390 . S
C1501 C1502 1.387 . S
C1501 H1504 0.950 . S
C1502 C1501 1.387 . S
C1502 C1505 1.387 . S
H1503 C1499 0.950 . S
H1504 C1501 0.950 . S
C1505 C1496 1.390 . S
C1505 H1498 0.950 . S
C1505 C1502 1.387 . S
C1506 C1507 1.387 . S
C1506 H1510 0.950 . S
C1506 C1515 1.390 . S
C1507 C1506 1.387 . S
C1507 C1509 1.387 . S
H1508 C1515 0.950 . S
C1509 C1507 1.387 . S
C1509 C1511 1.390 . S
C1509 H1513 0.950 . S
H1510 C1506 0.950 . S
C1511 C1509 1.390 . S
C1511 C1512 1.387 . S
C1511 H1514 0.950 . S
C1512 C1511 1.387 . S
C1512 C1515 1.387 . S
H1513 C1509 0.950 . S
H1514 C1511 0.950 . S
C1515 C1506 1.390 . S
C1515 H1508 0.950 . S
C1515 C1512 1.387 . S
C1516 C1517 1.387 . S
C1516 H1520 0.950 . S
C1516 C1525 1.390 . S
C1517 C1516 1.387 . S
C1517 C1519 1.387 1_455 S
H1518 C1525 0.950 . S
C1519 C1517 1.387 1_655 S
C1519 C1521 1.398 . S
C1519 H1523 0.950 . S
H1520 C1516 0.950 . S
C1521 C1519 1.398 . S
C1521 C1522 1.371 1_655 S
C1521 H1524 0.959 . S
C1522 C1521 1.371 1_455 S
C1522 C1525 1.387 . S
H1523 C1519 0.950 . S
H1524 C1521 0.959 . S
C1525 C1516 1.390 . S
C1525 H1518 0.950 . S
C1525 C1522 1.387 . S
C1526 C1527 1.387 . S
C1526 H1530 0.950 . S
C1526 C1535 1.390 . S
C1527 C1526 1.387 . S
C1527 C1529 1.387 . S
H1528 C1535 0.950 . S
C1529 C1527 1.387 . S
C1529 C1531 1.390 . S
C1529 H1533 0.950 . S
H1530 C1526 0.950 . S
C1531 C1529 1.390 . S
C1531 C1532 1.387 . S
C1531 H1534 0.950 . S
C1532 C1531 1.387 . S
C1532 C1535 1.387 . S
H1533 C1529 0.950 . S
H1534 C1531 0.950 . S
C1535 C1526 1.390 . S
C1535 H1528 0.950 . S
C1535 C1532 1.387 . S
C1536 C1537 1.387 . S
C1536 H1540 0.950 . S
C1536 C1545 1.390 . S
C1537 C1536 1.387 . S
C1537 C1539 1.387 . S
H1538 C1545 0.950 . S
C1539 C1537 1.387 . S
C1539 C1541 1.390 . S
C1539 H1543 0.950 . S
H1540 C1536 0.950 . S
C1541 C1539 1.390 . S
C1541 C1542 1.387 . S
C1541 H1544 0.950 . S
C1542 C1541 1.387 . S
C1542 C1545 1.387 . S
H1543 C1539 0.950 . S
H1544 C1541 0.950 . S
C1545 C1536 1.390 . S
C1545 H1538 0.950 . S
C1545 C1542 1.387 . S
C1546 C1547 1.387 . S
C1546 H1550 0.950 . S
C1546 C1555 1.390 . S
C1547 C1546 1.387 . S
C1547 C1549 1.387 . S
H1548 C1555 0.950 . S
C1549 C1547 1.387 . S
C1549 C1551 1.390 1_554 S
C1549 H1553 0.950 . S
H1550 C1546 0.950 . S
C1551 C1549 1.390 1_556 S
C1551 C1552 1.387 1_556 S
C1551 H1554 0.950 . S
C1552 C1551 1.387 1_554 S
C1552 C1555 1.387 . S
H1553 C1549 0.950 . S
H1554 C1551 0.950 . S
C1555 C1546 1.390 . S
C1555 H1548 0.950 . S
C1555 C1552 1.387 . S
C1556 C1557 1.387 . S
C1556 H1560 0.950 . S
C1556 C1565 1.390 . S
C1557 C1556 1.387 . S
C1557 C1559 1.387 . S
H1558 C1565 0.950 . S
C1559 C1557 1.387 . S
C1559 C1561 1.390 . S
C1559 H1563 0.950 . S
H1560 C1556 0.950 . S
C1561 C1559 1.390 . S
C1561 C1562 1.387 . S
C1561 H1564 0.950 . S
C1562 C1561 1.387 . S
C1562 C1565 1.387 . S
H1563 C1559 0.950 . S
H1564 C1561 0.950 . S
C1565 C1556 1.390 . S
C1565 H1558 0.950 . S
C1565 C1562 1.387 . S
C1566 C1567 1.387 . S
C1566 H1570 0.950 . S
C1566 C1575 1.390 . S
C1567 C1566 1.387 . S
C1567 C1569 1.387 . S
H1568 C1575 0.950 . S
C1569 C1567 1.387 . S
C1569 C1571 1.390 . S
C1569 H1573 0.950 . S
H1570 C1566 0.950 . S
C1571 C1569 1.390 . S
C1571 C1572 1.387 . S
C1571 H1574 0.950 . S
C1572 C1571 1.387 . S
C1572 C1575 1.387 . S
H1573 C1569 0.950 . S
H1574 C1571 0.950 . S
C1575 C1566 1.390 . S
C1575 H1568 0.950 . S
C1575 C1572 1.387 . S
C1576 C1577 1.387 . S
C1576 H1580 0.950 . S
C1576 C1585 1.390 . S
C1577 C1576 1.387 . S
C1577 C1579 1.387 . S
H1578 C1585 0.950 . S
C1579 C1577 1.387 . S
C1579 C1581 1.390 . S
C1579 H1583 0.950 . S
H1580 C1576 0.950 . S
C1581 C1579 1.390 . S
C1581 C1582 1.387 . S
C1581 H1584 0.950 . S
C1582 C1581 1.387 . S
C1582 C1585 1.387 . S
H1583 C1579 0.950 . S
H1584 C1581 0.950 . S
C1585 C1576 1.390 . S
C1585 H1578 0.950 . S
C1585 C1582 1.387 . S
C1586 C1587 1.387 . S
C1586 H1590 0.950 . S
C1586 C1595 1.390 . S
C1587 C1586 1.387 . S
C1587 C1589 1.387 . S
H1588 C1595 0.950 . S
C1589 C1587 1.387 . S
C1589 C1591 1.390 . S
C1589 H1593 0.950 . S
H1590 C1586 0.950 . S
C1591 C1589 1.390 . S
C1591 C1592 1.387 . S
C1591 H1594 0.950 . S
C1592 C1591 1.387 . S
C1592 C1595 1.387 . S
H1593 C1589 0.950 . S
H1594 C1591 0.950 . S
C1595 C1586 1.390 . S
C1595 H1588 0.950 . S
C1595 C1592 1.387 . S
C1596 C1597 1.387 . S
C1596 H1600 0.950 . S
C1596 C1605 1.390 . S
C1597 C1596 1.387 . S
C1597 C1599 1.387 . S
H1598 C1605 0.950 . S
C1599 C1597 1.387 . S
C1599 C1601 1.390 . S
C1599 H1603 0.950 . S
H1600 C1596 0.950 . S
C1601 C1599 1.390 . S
C1601 C1602 1.387 . S
C1601 H1604 0.950 . S
C1602 C1601 1.387 . S
C1602 C1605 1.387 . S
H1603 C1599 0.950 . S
H1604 C1601 0.950 . S
C1605 C1596 1.390 . S
C1605 H1598 0.950 . S
C1605 C1602 1.387 . S
C1606 C1607 1.387 . S
C1606 H1610 0.950 . S
C1606 C1615 1.390 . S
C1607 C1606 1.387 . S
C1607 C1609 1.387 . S
H1608 C1615 0.950 . S
C1609 C1607 1.387 . S
C1609 C1611 1.390 . S
C1609 H1613 0.950 . S
H1610 C1606 0.950 . S
C1611 C1609 1.390 . S
C1611 C1612 1.387 . S
C1611 H1614 0.950 . S
C1612 C1611 1.387 . S
C1612 C1615 1.387 . S
H1613 C1609 0.950 . S
H1614 C1611 0.950 . S
C1615 C1606 1.390 . S
C1615 H1608 0.950 . S
C1615 C1612 1.387 . S
C1616 C1617 1.387 . S
C1616 H1620 0.950 . S
C1616 C1625 1.390 . S
C1617 C1616 1.387 . S
C1617 C1619 1.387 . S
H1618 C1625 0.950 . S
C1619 C1617 1.387 . S
C1619 C1621 1.390 . S
C1619 H1623 0.950 . S
H1620 C1616 0.950 . S
C1621 C1619 1.390 . S
C1621 C1622 1.387 . S
C1621 H1624 0.950 . S
C1622 C1621 1.387 . S
C1622 C1625 1.387 . S
H1623 C1619 0.950 . S
H1624 C1621 0.950 . S
C1625 C1616 1.390 . S
C1625 H1618 0.950 . S
C1625 C1622 1.387 . S
C1626 C1627 1.387 . S
C1626 H1630 0.950 . S
C1626 C1635 1.390 . S
C1627 C1626 1.387 . S
C1627 C1629 1.387 . S
H1628 C1635 0.950 . S
C1629 C1627 1.387 . S
C1629 C1631 1.390 . S
C1629 H1633 0.950 . S
H1630 C1626 0.950 . S
C1631 C1629 1.390 . S
C1631 C1632 1.387 . S
C1631 H1634 0.950 . S
C1632 C1631 1.387 . S
C1632 C1635 1.387 . S
H1633 C1629 0.950 . S
H1634 C1631 0.950 . S
C1635 C1626 1.390 . S
C1635 H1628 0.950 . S
C1635 C1632 1.387 . S
C1636 C1637 1.387 . S
C1636 H1640 0.950 . S
C1636 C1645 1.390 . S
C1637 C1636 1.387 . S
C1637 C1639 1.387 1_545 S
H1638 C1645 0.950 . S
C1639 C1637 1.387 1_565 S
C1639 C1641 1.390 . S
C1639 H1643 0.950 . S
H1640 C1636 0.950 . S
C1641 C1639 1.390 . S
C1641 C1642 1.387 . S
C1641 H1644 0.950 . S
C1642 C1641 1.387 . S
C1642 C1645 1.387 1_565 S
H1643 C1639 0.950 . S
H1644 C1641 0.950 . S
C1645 C1636 1.390 . S
C1645 H1638 0.950 . S
C1645 C1642 1.387 1_545 S
C1646 C1647 1.387 1_546 S
C1646 H1650 0.950 . S
C1646 C1655 1.390 1_556 S
C1647 C1646 1.387 1_564 S
C1647 C1649 1.387 . S
H1648 C1655 0.950 1_556 S
C1649 C1647 1.387 . S
C1649 C1651 1.390 1_565 S
C1649 H1653 0.950 . S
H1650 C1646 0.950 . S
C1651 C1649 1.390 1_545 S
C1651 C1652 1.387 . S
C1651 H1654 0.950 . S
C1652 C1651 1.387 . S
C1652 C1655 1.387 . S
H1653 C1649 0.950 . S
H1654 C1651 0.950 . S
C1655 C1646 1.390 1_554 S
C1655 H1648 0.950 1_554 S
C1655 C1652 1.387 . S
C1656 C1657 1.387 . S
C1656 H1660 0.950 . S
C1656 C1665 1.390 . S
C1657 C1656 1.387 . S
C1657 C1659 1.387 . S
H1658 C1665 0.950 . S
C1659 C1657 1.387 . S
C1659 C1661 1.390 . S
C1659 H1663 0.950 . S
H1660 C1656 0.950 . S
C1661 C1659 1.390 . S
C1661 C1662 1.387 . S
C1661 H1664 0.950 . S
C1662 C1661 1.387 . S
C1662 C1665 1.387 . S
H1663 C1659 0.950 . S
H1664 C1661 0.950 . S
C1665 C1656 1.390 . S
C1665 H1658 0.950 . S
C1665 C1662 1.387 . S
C1666 C1667 1.387 . S
C1666 H1670 0.950 . S
C1666 C1675 1.390 . S
C1667 C1666 1.387 . S
C1667 C1669 1.387 . S
H1668 C1675 0.950 . S
C1669 C1667 1.387 . S
C1669 C1671 1.390 . S
C1669 H1673 0.950 . S
H1670 C1666 0.950 . S
C1671 C1669 1.390 . S
C1671 C1672 1.387 . S
C1671 H1674 0.950 . S
C1672 C1671 1.387 . S
C1672 C1675 1.387 . S
H1673 C1669 0.950 . S
H1674 C1671 0.950 . S
C1675 C1666 1.390 . S
C1675 H1668 0.950 . S
C1675 C1672 1.387 . S
C1676 C1677 1.387 . S
C1676 H1680 0.950 . S
C1676 C1685 1.390 . S
C1677 C1676 1.387 . S
C1677 C1679 1.387 . S
H1678 C1685 0.950 . S
C1679 C1677 1.387 . S
C1679 C1681 1.390 . S
C1679 H1683 0.950 . S
H1680 C1676 0.950 . S
C1681 C1679 1.390 . S
C1681 C1682 1.387 . S
C1681 H1684 0.950 . S
C1682 C1681 1.387 . S
C1682 C1685 1.387 . S
H1683 C1679 0.950 . S
H1684 C1681 0.950 . S
C1685 C1676 1.390 . S
C1685 H1678 0.950 . S
C1685 C1682 1.387 . S
C1686 C1687 1.387 . S
C1686 H1690 0.950 . S
C1686 C1695 1.390 . S
C1687 C1686 1.387 . S
C1687 C1689 1.387 . S
H1688 C1695 0.950 . S
C1689 C1687 1.387 . S
C1689 C1691 1.390 . S
C1689 H1693 0.950 . S
H1690 C1686 0.950 . S
C1691 C1689 1.390 . S
C1691 C1692 1.387 . S
C1691 H1694 0.950 . S
C1692 C1691 1.387 . S
C1692 C1695 1.387 . S
H1693 C1689 0.950 . S
H1694 C1691 0.950 . S
C1695 C1686 1.390 . S
C1695 H1688 0.950 . S
C1695 C1692 1.387 . S
C1696 C1697 1.387 . S
C1696 H1700 0.950 . S
C1696 C1705 1.390 . S
C1697 C1696 1.387 . S
C1697 C1699 1.387 . S
H1698 C1705 0.950 . S
C1699 C1697 1.387 . S
C1699 C1701 1.390 . S
C1699 H1703 0.950 . S
H1700 C1696 0.950 . S
C1701 C1699 1.390 . S
C1701 C1702 1.387 . S
C1701 H1704 0.950 . S
C1702 C1701 1.387 . S
C1702 C1705 1.387 . S
H1703 C1699 0.950 . S
H1704 C1701 0.950 . S
C1705 C1696 1.390 . S
C1705 H1698 0.950 . S
C1705 C1702 1.387 . S
C1706 C1707 1.387 . S
C1706 H1710 0.950 . S
C1706 C1715 1.390 . S
C1707 C1706 1.387 . S
C1707 C1709 1.387 . S
H1708 C1715 0.950 . S
C1709 C1707 1.387 . S
C1709 C1711 1.390 . S
C1709 H1713 0.950 . S
H1710 C1706 0.950 . S
C1711 C1709 1.390 . S
C1711 C1712 1.387 . S
C1711 H1714 0.950 . S
C1712 C1711 1.387 . S
C1712 C1715 1.387 . S
H1713 C1709 0.950 . S
H1714 C1711 0.950 . S
C1715 C1706 1.390 . S
C1715 H1708 0.950 . S
C1715 C1712 1.387 . S
C1716 C1717 1.387 . S
C1716 H1720 0.950 . S
C1716 C1725 1.390 . S
C1717 C1716 1.387 . S
C1717 C1719 1.387 . S
H1718 C1725 0.950 . S
C1719 C1717 1.387 . S
C1719 C1721 1.390 . S
C1719 H1723 0.950 . S
H1720 C1716 0.950 . S
C1721 C1719 1.390 . S
C1721 C1722 1.387 . S
C1721 H1724 0.950 . S
C1722 C1721 1.387 . S
C1722 C1725 1.387 . S
H1723 C1719 0.950 . S
H1724 C1721 0.950 . S
C1725 C1716 1.390 . S
C1725 H1718 0.950 . S
C1725 C1722 1.387 . S
C1726 C1727 1.387 . S
C1726 H1730 0.950 . S
C1726 C1735 1.390 . S
C1727 C1726 1.387 . S
C1727 C1729 1.387 . S
H1728 C1735 0.950 . S
C1729 C1727 1.387 . S
C1729 C1731 1.390 . S
C1729 H1733 0.950 . S
H1730 C1726 0.950 . S
C1731 C1729 1.390 . S
C1731 C1732 1.387 . S
C1731 H1734 0.950 . S
C1732 C1731 1.387 . S
C1732 C1735 1.387 . S
H1733 C1729 0.950 . S
H1734 C1731 0.950 . S
C1735 C1726 1.390 . S
C1735 H1728 0.950 . S
C1735 C1732 1.387 . S
C1736 C1737 1.387 . S
C1736 H1740 0.950 . S
C1736 C1745 1.390 . S
C1737 C1736 1.387 . S
C1737 C1739 1.387 . S
H1738 C1745 0.950 . S
C1739 C1737 1.387 . S
C1739 C1741 1.390 . S
C1739 H1743 0.950 . S
H1740 C1736 0.950 . S
C1741 C1739 1.390 . S
C1741 C1742 1.387 . S
C1741 H1744 0.950 . S
C1742 C1741 1.387 . S
C1742 C1745 1.387 . S
H1743 C1739 0.950 . S
H1744 C1741 0.950 . S
C1745 C1736 1.390 . S
C1745 H1738 0.950 . S
C1745 C1742 1.387 . S
C1746 C1747 1.387 . S
C1746 H1750 0.950 . S
C1746 C1755 1.390 . S
C1747 C1746 1.387 . S
C1747 C1749 1.387 . S
H1748 C1755 0.950 . S
C1749 C1747 1.387 . S
C1749 C1751 1.390 . S
C1749 H1753 0.950 . S
H1750 C1746 0.950 . S
C1751 C1749 1.390 . S
C1751 C1752 1.387 . S
C1751 H1754 0.950 . S
C1752 C1751 1.387 . S
C1752 C1755 1.387 . S
H1753 C1749 0.950 . S
H1754 C1751 0.950 . S
C1755 C1746 1.390 . S
C1755 H1748 0.950 . S
C1755 C1752 1.387 . S
C1756 C1757 1.387 . S
C1756 H1760 0.950 . S
C1756 C1765 1.390 . S
C1757 C1756 1.387 . S
C1757 C1759 1.387 . S
H1758 C1765 0.950 . S
C1759 C1757 1.387 . S
C1759 C1761 1.390 . S
C1759 H1763 0.950 . S
H1760 C1756 0.950 . S
C1761 C1759 1.390 . S
C1761 C1762 1.387 . S
C1761 H1764 0.950 . S
C1762 C1761 1.387 . S
C1762 C1765 1.387 . S
H1763 C1759 0.950 . S
H1764 C1761 0.950 . S
C1765 C1756 1.390 . S
C1765 H1758 0.950 . S
C1765 C1762 1.387 . S
C1766 C1767 1.387 . S
C1766 H1770 0.950 . S
C1766 C1775 1.390 . S
C1767 C1766 1.387 . S
C1767 C1769 1.387 . S
H1768 C1775 0.950 . S
C1769 C1767 1.387 . S
C1769 C1771 1.390 . S
C1769 H1773 0.950 . S
H1770 C1766 0.950 . S
C1771 C1769 1.390 . S
C1771 C1772 1.387 . S
C1771 H1774 0.950 . S
C1772 C1771 1.387 . S
C1772 C1775 1.387 . S
H1773 C1769 0.950 . S
H1774 C1771 0.950 . S
C1775 C1766 1.390 . S
C1775 H1768 0.950 . S
C1775 C1772 1.387 . S
C1776 C1777 1.387 . S
C1776 H1780 0.950 . S
C1776 C1785 1.390 . S
C1777 C1776 1.387 . S
C1777 C1779 1.387 . S
H1778 C1785 0.950 . S
C1779 C1777 1.387 . S
C1779 C1781 1.390 . S
C1779 H1783 0.950 . S
H1780 C1776 0.950 . S
C1781 C1779 1.390 . S
C1781 C1782 1.387 . S
C1781 H1784 0.950 . S
C1782 C1781 1.387 . S
C1782 C1785 1.387 . S
H1783 C1779 0.950 . S
H1784 C1781 0.950 . S
C1785 C1776 1.390 . S
C1785 H1778 0.950 . S
C1785 C1782 1.387 . S
C1786 C1787 1.387 . S
C1786 H1790 0.950 . S
C1786 C1795 1.390 . S
C1787 C1786 1.387 . S
C1787 C1789 1.387 . S
H1788 C1795 0.950 . S
C1789 C1787 1.387 . S
C1789 C1791 1.390 . S
C1789 H1793 0.950 . S
H1790 C1786 0.950 . S
C1791 C1789 1.390 . S
C1791 C1792 1.387 . S
C1791 H1794 0.950 . S
C1792 C1791 1.387 . S
C1792 C1795 1.387 . S
H1793 C1789 0.950 . S
H1794 C1791 0.950 . S
C1795 C1786 1.390 . S
C1795 H1788 0.950 . S
C1795 C1792 1.387 . S
C1796 C1797 1.387 . S
C1796 H1800 0.950 . S
C1796 C1805 1.390 . S
C1797 C1796 1.387 . S
C1797 C1799 1.387 . S
H1798 C1805 0.950 . S
C1799 C1797 1.387 . S
C1799 C1801 1.390 . S
C1799 H1803 0.950 . S
H1800 C1796 0.950 . S
C1801 C1799 1.390 . S
C1801 C1802 1.387 . S
C1801 H1804 0.950 . S
C1802 C1801 1.387 . S
C1802 C1805 1.387 . S
H1803 C1799 0.950 . S
H1804 C1801 0.950 . S
C1805 C1796 1.390 . S
C1805 H1798 0.950 . S
C1805 C1802 1.387 . S
C1806 C1807 1.387 . S
C1806 H1810 0.950 . S
C1806 C1815 1.390 . S
C1807 C1806 1.387 . S
C1807 C1809 1.387 . S
H1808 C1815 0.950 . S
C1809 C1807 1.387 . S
C1809 C1811 1.390 . S
C1809 H1813 0.950 . S
H1810 C1806 0.950 . S
C1811 C1809 1.390 . S
C1811 C1812 1.387 . S
C1811 H1814 0.950 . S
C1812 C1811 1.387 . S
C1812 C1815 1.387 . S
H1813 C1809 0.950 . S
H1814 C1811 0.950 . S
C1815 C1806 1.390 . S
C1815 H1808 0.950 . S
C1815 C1812 1.387 . S
C1816 C1817 1.387 . S
C1816 H1820 0.950 . S
C1816 C1825 1.390 . S
C1817 C1816 1.387 . S
C1817 C1819 1.387 . S
H1818 C1825 0.950 . S
C1819 C1817 1.387 . S
C1819 C1821 1.390 . S
C1819 H1823 0.950 . S
H1820 C1816 0.950 . S
C1821 C1819 1.390 . S
C1821 C1822 1.387 . S
C1821 H1824 0.950 . S
C1822 C1821 1.387 . S
C1822 C1825 1.387 . S
H1823 C1819 0.950 . S
H1824 C1821 0.950 . S
C1825 C1816 1.390 . S
C1825 H1818 0.950 . S
C1825 C1822 1.387 . S
C1826 C1827 1.387 . S
C1826 H1830 0.950 . S
C1826 C1835 1.390 . S
C1827 C1826 1.387 . S
C1827 C1829 1.387 . S
H1828 C1835 0.950 . S
C1829 C1827 1.387 . S
C1829 C1831 1.390 . S
C1829 H1833 0.950 . S
H1830 C1826 0.950 . S
C1831 C1829 1.390 . S
C1831 C1832 1.387 . S
C1831 H1834 0.950 . S
C1832 C1831 1.387 . S
C1832 C1835 1.387 . S
H1833 C1829 0.950 . S
H1834 C1831 0.950 . S
C1835 C1826 1.390 . S
C1835 H1828 0.950 . S
C1835 C1832 1.387 . S
C1836 C1837 1.387 . S
C1836 H1840 0.950 . S
C1836 C1845 1.390 . S
C1837 C1836 1.387 . S
C1837 C1839 1.387 . S
H1838 C1845 0.950 . S
C1839 C1837 1.387 . S
C1839 C1841 1.390 . S
C1839 H1843 0.950 . S
H1840 C1836 0.950 . S
C1841 C1839 1.390 . S
C1841 C1842 1.387 . S
C1841 H1844 0.950 . S
C1842 C1841 1.387 . S
C1842 C1845 1.387 . S
H1843 C1839 0.950 . S
H1844 C1841 0.950 . S
C1845 C1836 1.390 . S
C1845 H1838 0.950 . S
C1845 C1842 1.387 . S
C1846 C1847 1.387 . S
C1846 H1850 0.950 . S
C1846 C1855 1.390 . S
C1847 C1846 1.387 . S
C1847 C1849 1.387 . S
H1848 C1855 0.950 . S
C1849 C1847 1.387 . S
C1849 C1851 1.390 . S
C1849 H1853 0.950 . S
H1850 C1846 0.950 . S
C1851 C1849 1.390 . S
C1851 C1852 1.387 . S
C1851 H1854 0.950 . S
C1852 C1851 1.387 . S
C1852 C1855 1.387 . S
H1853 C1849 0.950 . S
H1854 C1851 0.950 . S
C1855 C1846 1.390 . S
C1855 H1848 0.950 . S
C1855 C1852 1.387 . S
C1856 C1857 1.387 . S
C1856 H1860 0.950 . S
C1856 C1865 1.390 . S
C1857 C1856 1.387 . S
C1857 C1859 1.387 . S
H1858 C1865 0.950 . S
C1859 C1857 1.387 . S
C1859 C1861 1.390 . S
C1859 H1863 0.950 . S
H1860 C1856 0.950 . S
C1861 C1859 1.390 . S
C1861 C1862 1.387 . S
C1861 H1864 0.950 . S
C1862 C1861 1.387 . S
C1862 C1865 1.387 . S
H1863 C1859 0.950 . S
H1864 C1861 0.950 . S
C1865 C1856 1.390 . S
C1865 H1858 0.950 . S
C1865 C1862 1.387 . S
C1866 C1867 1.387 . S
C1866 H1870 0.950 . S
C1866 C1875 1.390 . S
C1867 C1866 1.387 . S
C1867 C1869 1.387 . S
H1868 C1875 0.950 1_545 S
C1869 C1867 1.387 . S
C1869 C1871 1.390 . S
C1869 H1873 0.950 . S
H1870 C1866 0.950 . S
C1871 C1869 1.390 . S
C1871 C1872 1.368 1_565 S
C1871 H1874 0.950 . S
C1872 C1871 1.368 1_545 S
C1872 C1875 1.392 1_545 S
H1873 C1869 0.950 . S
H1874 C1871 0.950 . S
C1875 C1866 1.390 . S
C1875 H1868 0.950 1_565 S
C1875 C1872 1.392 1_565 S
C1876 C1877 1.387 . S
C1876 H1880 0.950 . S
C1876 C1885 1.390 . S
C1877 C1876 1.387 . S
C1877 C1879 1.387 . S
H1878 C1885 0.950 . S
C1879 C1877 1.387 . S
C1879 C1881 1.390 . S
C1879 H1883 0.950 . S
H1880 C1876 0.950 . S
C1881 C1879 1.390 . S
C1881 C1882 1.387 . S
C1881 H1884 0.950 . S
C1882 C1881 1.387 . S
C1882 C1885 1.387 . S
H1883 C1879 0.950 . S
H1884 C1881 0.950 . S
C1885 C1876 1.390 . S
C1885 H1878 0.950 . S
C1885 C1882 1.387 . S
C1886 C1887 1.387 . S
C1886 H1890 0.950 . S
C1886 C1895 1.390 . S
C1887 C1886 1.387 . S
C1887 C1889 1.387 . S
H1888 C1895 0.950 . S
C1889 C1887 1.387 . S
C1889 C1891 1.390 . S
C1889 H1893 0.950 . S
H1890 C1886 0.950 . S
C1891 C1889 1.390 . S
C1891 C1892 1.387 . S
C1891 H1894 0.950 . S
C1892 C1891 1.387 . S
C1892 C1895 1.387 . S
H1893 C1889 0.950 . S
H1894 C1891 0.950 . S
C1895 C1886 1.390 . S
C1895 H1888 0.950 . S
C1895 C1892 1.387 . S
C1896 C1897 1.387 . S
C1896 H1900 0.950 . S
C1896 C1905 1.390 . S
C1897 C1896 1.387 . S
C1897 C1899 1.387 . S
H1898 C1905 0.950 . S
C1899 C1897 1.387 . S
C1899 C1901 1.390 . S
C1899 H1903 0.950 . S
H1900 C1896 0.950 . S
C1901 C1899 1.390 . S
C1901 C1902 1.387 . S
C1901 H1904 0.950 . S
C1902 C1901 1.387 . S
C1902 C1905 1.387 . S
H1903 C1899 0.950 . S
H1904 C1901 0.950 . S
C1905 C1896 1.390 . S
C1905 H1898 0.950 . S
C1905 C1902 1.387 . S
C1906 C1907 1.387 . S
C1906 H1910 0.950 . S
C1906 C1915 1.390 . S
C1907 C1906 1.387 . S
C1907 C1909 1.387 . S
H1908 C1915 0.950 1_556 S
C1909 C1907 1.387 . S
C1909 C1911 1.390 . S
C1909 H1913 0.950 . S
H1910 C1906 0.950 . S
C1911 C1909 1.390 . S
C1911 C1912 1.387 . S
C1911 H1914 0.950 . S
C1912 C1911 1.387 . S
C1912 C1915 1.387 . S
H1913 C1909 0.950 . S
H1914 C1911 0.950 . S
C1915 C1906 1.390 . S
C1915 H1908 0.950 1_554 S
C1915 C1912 1.387 . S
C1916 C1917 1.387 . S
C1916 H1920 0.950 . S
C1916 C1925 1.390 . S
C1917 C1916 1.387 . S
C1917 C1919 1.387 . S
H1918 C1925 0.950 . S
C1919 C1917 1.387 . S
C1919 C1921 1.390 . S
C1919 H1923 0.950 . S
H1920 C1916 0.950 . S
C1921 C1919 1.390 . S
C1921 C1922 1.387 . S
C1921 H1924 0.950 . S
C1922 C1921 1.387 . S
C1922 C1925 1.387 . S
H1923 C1919 0.950 . S
H1924 C1921 0.950 . S
C1925 C1916 1.390 . S
C1925 H1918 0.950 . S
C1925 C1922 1.387 . S
C1926 C1927 1.387 . S
C1926 H1930 0.950 . S
C1926 C1935 1.390 . S
C1927 C1926 1.387 . S
C1927 C1929 1.387 . S
H1928 C1935 0.950 . S
C1929 C1927 1.387 . S
C1929 C1931 1.390 . S
C1929 H1933 0.950 . S
H1930 C1926 0.950 . S
C1931 C1929 1.390 . S
C1931 C1932 1.387 . S
C1931 H1934 0.950 . S
C1932 C1931 1.387 . S
C1932 C1935 1.387 . S
H1933 C1929 0.950 . S
H1934 C1931 0.950 . S
C1935 C1926 1.390 . S
C1935 H1928 0.950 . S
C1935 C1932 1.387 . S
C977 C105 2.488 1_455 S
C982 C349 2.432 . S
C987 C65 2.168 . S
C992 C400 2.158 . S
C997 C73 1.815 . S
C1002 C429 1.821 . S
C1012 C473 1.465 . S
C1007 C92 1.544 . S
C1017 C17 1.471 . S
C1022 C513 1.381 . S
C1032 C549 1.784 . S
C1027 C37 1.769 . S
C1042 C599 2.044 . S
C1037 C49 1.850 . S
C1047 C8 2.492 . S
C1052 C629 2.453 . S
C1062 C359 2.081 . S
C1057 C231 2.107 . S
C1067 C241 0.923 . S
C1072 C402 0.881 . S
C1082 C439 1.423 . S
C1077 C273 1.332 . S
C1092 C469 1.518 . S
C1087 C171 1.523 . S
C1097 C227 1.554 . S
C1102 C509 1.544 . S
C1112 C559 1.052 . S
C1107 C245 0.994 . S
C1122 C593 0.999 . S
C1117 C269 1.061 . S
C1132 C639 2.055 . S
C1127 C175 2.083 . S
C1142 C353 1.478 . S
C1137 C162 1.595 1_554 S
C1147 C289 1.804 . S
C1152 C679 1.817 . S
C1162 C713 1.563 . S
C1157 C330 1.649 . S
C1172 C749 0.888 . S
C1167 C317 0.911 . S
C1177 C120 1.681 . S
C1182 C633 1.567 . S
C1187 C134 1.710 . S
C1192 C433 1.613 . S
C1197 C331 1.711 . S
C1202 C799 1.729 . S
C1212 C818 0.432 . S
C1207 C303 0.339 . S
C1222 C360 2.417 1_565 S
C1217 C59 2.429 . S
C1232 C829 2.194 . S
C1227 C107 2.189 . S
C1237 C91 1.865 . S
C1242 C440 1.872 . S
C1247 C78 1.533 . S
C1252 C802 1.478 . S
C1262 C522 1.395 . S
C1257 C7 1.379 . S
C1267 C51 1.800 . S
C1272 C720 1.821 . S
C1282 C578 2.069 1_566 S
C1277 C31 2.034 . S
C1292 C880 2.472 . S
C1287 C22 2.475 . S
C1302 C338 2.103 . S
C1297 C143 2.122 . S
C1312 C833 0.873 . S
C1307 C315 0.872 . S
C1317 C115 1.414 . S
C1322 C418 1.431 . S
C1327 C287 1.539 . S
C1332 C800 1.561 . S
C1337 C147 1.570 . S
C1342 C520 1.590 . S
C1352 C698 1.061 . S
C1347 C311 1.056 . S
C1357 C119 1.016 . S
C1362 C602 1.005 . S
C1367 C283 2.098 . S
C1372 C858 2.078 . S
C1377 C190 1.523 . S
C1382 C362 1.457 . S
C1387 C177 1.817 . S
C1392 C658 1.836 . S
C1397 C260 1.599 . S
C1402 C562 1.547 . S
C1407 C247 0.922 . S
C1412 C760 0.910 . S
C1422 C882 1.563 1_545 S
C1417 C274 1.624 . S
C1427 C218 1.656 . S
C1432 C442 1.596 . S
C1442 C458 1.748 . S
C1437 C261 1.726 . S
C1452 C399 0.426 . S
C1447 C205 0.371 . S
C1457 C77 2.488 . S
C1462 C909 2.432 . S
C1472 C840 2.159 . S
C1467 C93 2.170 . S
C1477 C101 1.814 . S
C1482 C949 1.823 . S
C1487 C64 1.544 1_655 S
C1492 C793 1.465 . S
C1497 C45 1.471 . S
C1502 C673 1.381 . S
C1512 C709 1.784 . S
C1507 C9 1.769 . S
C1522 C759 2.044 . S
C1517 C21 1.851 . S
C1532 C869 2.453 . S
C1527 C36 2.492 . S
C1542 C919 2.081 . S
C1537 C259 2.107 . S
C1547 C185 0.923 . S
C1552 C842 0.881 1_554 S
C1562 C959 1.423 . S
C1557 C203 1.327 . S
C1572 C789 1.517 . S
C1567 C213 1.524 . S
C1582 C669 1.544 . S
C1577 C255 1.554 . S
C1587 C189 0.995 . S
C1592 C719 1.052 . S
C1602 C753 0.999 . S
C1597 C199 1.061 . S
C1607 C217 2.083 . S
C1612 C879 2.056 . S
C1622 C913 1.474 . S
C1617 C316 1.592 . S
C1627 C135 1.805 . S
C1632 C519 1.817 . S
C1642 C553 1.562 . S
C1637 C148 1.649 . S
C1652 C589 0.893 . S
C1647 C163 0.912 . S
C1662 C873 1.571 . S
C1657 C302 1.684 . S
C1667 C288 1.708 . S
C1672 C953 1.610 . S
C1682 C479 1.729 . S
C1677 C149 1.712 . S
C1692 C378 0.425 . S
C1687 C121 0.338 . S
C1697 C87 2.431 . S
C1702 C920 2.449 . S
C1712 C389 2.195 . S
C1707 C79 2.190 . S
C1717 C63 1.864 . S
C1722 C960 1.872 . S
C1727 C106 1.530 . S
C1732 C482 1.475 . S
C1737 C35 1.377 . S
C1742 C682 1.392 . S
C1752 C560 1.821 . S
C1747 C23 1.800 . S
C1757 C3 2.034 . S
C1762 C738 2.069 . S
C1767 C50 2.476 . S
C1772 C640 2.473 . S
C1782 C898 2.104 . S
C1777 C325 2.123 . S
C1787 C161 0.873 . S
C1792 C393 0.873 . S
C1802 C938 1.431 1_655 S
C1797 C297 1.414 . S
C1807 C133 1.540 . S
C1812 C480 1.560 . S
C1817 C329 1.569 . S
C1822 C680 1.588 . S
C1832 C538 1.060 . S
C1827 C157 1.054 . S
C1837 C301 1.011 . S
C1842 C762 1.004 . S
C1852 C618 2.078 . S
C1847 C129 2.098 . S
C1862 C922 1.457 . S
C1857 C246 1.523 . S
C1872 C498 1.851 . S
C1867 C219 1.818 . S
C1877 C232 1.598 . S
C1882 C722 1.546 . S
C1892 C600 0.907 . S
C1887 C191 0.923 . S
C1897 C204 1.624 . S
C1902 C642 1.563 . S
C1907 C176 1.654 . S
C1912 C962 1.595 . S
C1922 C778 1.748 . S
C1917 C233 1.725 . S
C1932 C839 0.426 . S
C1927 C275 0.371 . S
