# Generated by pormake.
# Topology bcu-b, (8,8)-cn, num edge types: 1
# Building blocks:
#     Node 0, Type 0, BuildingBlock: TAGTUT_clean_sbu_3, # of connection points: 8
#     Node 1, Type 1, BuildingBlock: TAGTUT_clean_sbu_3, # of connection points: 8
#     Edge 2, Type (0, 1), BuildingBlock: XUDNAN_clean_linker_2, # of connection points: 2
#     Edge 3, Type (0, 1), BuildingBlock: XUDNAN_clean_linker_2, # of connection points: 2
#     Edge 4, Type (0, 1), BuildingBlock: XUDNAN_clean_linker_2, # of connection points: 2
#     Edge 5, Type (0, 1), BuildingBlock: XUDNAN_clean_linker_2, # of connection points: 2
#     Edge 6, Type (0, 1), BuildingBlock: XUDNAN_clean_linker_2, # of connection points: 2
#     Edge 7, Type (0, 1), BuildingBlock: XUDNAN_clean_linker_2, # of connection points: 2
#     Edge 8, Type (0, 1), BuildingBlock: XUDNAN_clean_linker_2, # of connection points: 2
#     Edge 9, Type (0, 1), BuildingBlock: XUDNAN_clean_linker_2, # of connection points: 2
# Relax obj value: 0.012
# Max RMSD: 0.062
# Mean RMSD: 0.062
data_MOF--net-bcu-b--node1-TAGTUT_clean_sbu_3--node2-TAGTUT_clean_sbu_3--edge1-XUDNAN_clean_linker_2
_symmetry_space_group_name_H-M    P1
_symmetry_Int_Tables_number       1
_symmetry_cell_setting            triclinic
loop_
_symmetry_equiv_pos_as_xyz
'x, y, z'
_cell_length_a     19.387219
_cell_length_b     19.297229
_cell_length_c     21.326038
_cell_angle_alpha  91.254274
_cell_angle_beta   89.270884
_cell_angle_gamma 106.80145
loop_
_atom_site_label
_atom_site_type_symbol
_atom_site_fract_x
_atom_site_fract_y
_atom_site_fract_z
_atom_type_partial_charge
C0 C 0.0973 0.12275 0.06911 0.0
C1 C 0.17971 0.89603 0.11476 0.0
C2 C 0.15106 0.84639 0.91829 0.0
Mg3 Mg 0.98955 0.15244 0.96674 0.0
Mg4 Mg 0.85313 0.0222 0.9133 0.0
O5 O 0.95183 0.05281 0.92815 0.0
Mg6 Mg 1.00422 0.9964 0.97716 0.0
O7 O 0.06493 0.94909 0.0263 0.0
Mg8 Mg 0.16435 0.00473 -0.00164 0.0
Mg9 Mg 0.0477 0.84863 0.02491 0.0
C10 C 0.89664 0.87671 0.88611 0.0
O11 O 0.90619 0.93121 0.03693 0.0
O12 O 0.94192 0.19461 0.88 0.0
O13 O 0.93334 0.82459 0.04212 0.0
O14 O 0.88502 0.14413 0.02196 0.0
O15 O 0.85565 0.09902 0.84137 0.0
O16 O 0.79552 0.04804 -0.00704 0.0
O17 O 0.107 0.05049 0.92081 0.0
O18 O 0.09176 0.1602 0.91273 0.0
C19 C 0.12849 0.11591 0.90207 0.0
C20 C 0.89466 0.16502 0.83815 0.0
O21 O 0.96145 0.90068 0.90699 0.0
O22 O 0.20587 0.95341 0.08252 0.0
O23 O 0.84982 0.91209 0.88988 0.0
O24 O 0.18063 0.91214 0.93511 0.0
O25 O 0.11964 0.84921 0.10106 0.0
O26 O 0.09092 0.81029 0.9416 0.0
O27 O 0.03591 0.0954 0.04371 0.0
O28 O 0.14959 0.09579 0.06025 0.0
C29 C 0.81997 0.10448 0.02735 0.0
C30 C 0.88979 0.86326 0.04993 0.0
C31 C 0.64722 0.58519 0.55244 0.0
C32 C 0.71673 0.36059 0.48211 0.0
C33 C 0.58584 0.3588 0.31689 0.0
Mg34 Mg 0.51142 0.64346 0.51991 0.0
Mg35 Mg 0.3486 0.53 0.49763 0.0
O36 O 0.44654 0.55588 0.47721 0.0
Mg37 Mg 0.508 0.48888 0.47645 0.0
O38 O 0.5791 0.43158 0.47482 0.0
Mg39 Mg 0.65976 0.49411 0.42337 0.0
Mg40 Mg 0.55372 0.33415 0.45334 0.0
C41 C 0.35833 0.40503 0.40194 0.0
O42 O 0.44366 0.4078 0.55135 0.0
O43 O 0.43694 0.70784 0.48156 0.0
O44 O 0.46369 0.30398 0.51548 0.0
O45 O 0.44252 0.62131 0.61063 0.0
O46 O 0.33074 0.62585 0.46014 0.0
O47 O 0.33697 0.53687 0.59799 0.0
O48 O 0.57704 0.5556 0.39934 0.0
O49 O 0.57597 0.66658 0.42787 0.0
C50 C 0.59408 0.6233 0.38931 0.0
C51 C 0.3728 0.69076 0.45921 0.0
O52 O 0.42745 0.42072 0.40542 0.0
O53 O 0.73069 0.42497 0.46059 0.0
O54 O 0.31952 0.43243 0.43868 0.0
O55 O 0.63141 0.41818 0.33472 0.0
O56 O 0.65293 0.31669 0.48205 0.0
O57 O 0.54052 0.32037 0.35506 0.0
O58 O 0.57865 0.56557 0.54772 0.0
O59 O 0.68722 0.56572 0.5117 0.0
C60 C 0.382 0.58291 0.63245 0.0
C61 C 0.43282 0.33851 0.55317 0.0
H62 H 0.05928 0.14158 0.18908 0.0
H63 H 0.18077 0.25081 0.0302 0.0
H64 H 0.25681 0.34328 0.10109 0.0
H65 H 0.08229 0.31703 0.29306 0.0
H66 H 0.08884 0.26682 0.36192 0.0
H67 H 0.03127 0.22302 0.29817 0.0
H68 H 0.09763 0.12441 0.29401 0.0
H69 H 0.15809 0.16947 0.35509 0.0
H70 H 0.19363 0.15027 0.28031 0.0
H71 H 0.34034 0.39592 0.18623 0.0
H72 H 0.40804 0.43448 0.28418 0.0
H73 H 0.22946 0.29905 0.39082 0.0
C74 C 0.09827 0.18821 0.16936 0.0
C75 C 0.11375 0.19067 0.10464 0.0
C76 C 0.16745 0.24978 0.07977 0.0
C77 C 0.21132 0.30191 0.11973 0.0
C78 C 0.19939 0.29443 0.18404 0.0
C79 C 0.14216 0.2412 0.2089 0.0
C80 C 0.14634 0.24082 0.27987 0.0
C81 C 0.08346 0.2633 0.31004 0.0
C82 C 0.1491 0.16685 0.30363 0.0
C83 C 0.21733 0.29831 0.2903 0.0
C84 C 0.24708 0.3281 0.2343 0.0
C85 C 0.31649 0.37526 0.2307 0.0
C86 C 0.35508 0.39557 0.28629 0.0
C87 C 0.32363 0.36949 0.34455 0.0
C88 C 0.2542 0.31984 0.34661 0.0
H89 H 0.8499 0.23358 0.09149 0.0
H90 H 0.67687 0.03707 0.05363 0.0
H91 H 0.59201 0.08944 0.11194 0.0
H92 H 0.79707 0.26519 0.24641 0.0
H93 H 0.82384 0.3622 0.23881 0.0
H94 H 0.86839 0.30854 0.19282 0.0
H95 H 0.83709 0.36551 0.09182 0.0
H96 H 0.79054 0.41779 0.13765 0.0
H97 H 0.74434 0.35855 0.07529 0.0
H98 H 0.52762 0.16254 0.17794 0.0
H99 H 0.49301 0.24286 0.25618 0.0
H100 H 0.70811 0.39262 0.24541 0.0
C101 C 0.79429 0.20106 0.09555 0.0
C102 C 0.77013 0.13105 0.06797 0.0
C103 C 0.69673 0.09076 0.07447 0.0
C104 C 0.64802 0.12033 0.10696 0.0
C105 C 0.67348 0.19043 0.13197 0.0
C106 C 0.74508 0.22988 0.12701 0.0
C107 C 0.75995 0.30271 0.16012 0.0
C108 C 0.81555 0.31004 0.21266 0.0
C109 C 0.78442 0.36479 0.11341 0.0
C110 C 0.68582 0.29754 0.18617 0.0
C111 C 0.63634 0.23284 0.16875 0.0
C112 C 0.56571 0.21365 0.19129 0.0
C113 C 0.54642 0.25988 0.23545 0.0
C114 C 0.59778 0.32422 0.25678 0.0
C115 C 0.66713 0.34472 0.22924 0.0
H116 H 0.82463 0.91128 0.14952 0.0
H117 H 0.80654 0.72864 0.02258 0.0
H118 H 0.71461 0.65126 0.09057 0.0
H119 H 0.82807 0.82173 0.27987 0.0
H120 H 0.77583 0.86321 0.3308 0.0
H121 H 0.82313 0.91177 0.2648 0.0
H122 H 0.70488 0.92872 0.22188 0.0
H123 H 0.65716 0.88216 0.28899 0.0
H124 H 0.62755 0.85091 0.21087 0.0
H125 H 0.65041 0.58763 0.1807 0.0
H126 H 0.60178 0.54339 0.28402 0.0
H127 H 0.66072 0.76446 0.35722 0.0
C128 C 0.79779 0.85621 0.13447 0.0
C129 C 0.82065 0.8264 0.07982 0.0
C130 C 0.78768 0.75304 0.06299 0.0
C131 C 0.73585 0.70842 0.10171 0.0
C132 C 0.71778 0.73784 0.1574 0.0
C133 C 0.74639 0.81034 0.17349 0.0
C134 C 0.72529 0.82522 0.24013 0.0
C135 C 0.79207 0.85735 0.28127 0.0
C136 C 0.67576 0.87468 0.24048 0.0
C137 C 0.68461 0.7492 0.25981 0.0
C138 C 0.68025 0.69999 0.21097 0.0
C139 C 0.65156 0.62576 0.21892 0.0
C140 C 0.62502 0.60107 0.2781 0.0
C141 C 0.62737 0.65047 0.32867 0.0
C142 C 0.65753 0.72552 0.31923 0.0
H143 H 0.13414 0.78754 0.19914 0.0
H144 H 0.3126 0.97714 0.15825 0.0
H145 H 0.37593 0.95459 0.25224 0.0
H146 H 0.14189 0.80723 0.37042 0.0
H147 H 0.11939 0.71082 0.38101 0.0
H148 H 0.08583 0.74605 0.31402 0.0
H149 H 0.14244 0.66912 0.23944 0.0
H150 H 0.17532 0.63319 0.30608 0.0
H151 H 0.23714 0.67726 0.24549 0.0
H152 H 0.42364 0.90427 0.34605 0.0
H153 H 0.45394 0.8276 0.42631 0.0
H154 H 0.24174 0.67385 0.40546 0.0
C155 C 0.18627 0.82493 0.20998 0.0
C156 C 0.21838 0.88409 0.17112 0.0
C157 C 0.28682 0.9314 0.18726 0.0
C158 C 0.32302 0.91928 0.24077 0.0
C159 C 0.28966 0.86018 0.2779 0.0
C160 C 0.22273 0.81392 0.26305 0.0
C161 C 0.20016 0.7516 0.30776 0.0
C162 C 0.13283 0.75412 0.34554 0.0
C163 C 0.18812 0.67852 0.27259 0.0
C164 C 0.26589 0.76851 0.34904 0.0
C165 C 0.31662 0.83183 0.33184 0.0
C166 C 0.38387 0.85518 0.36049 0.0
C167 C 0.40049 0.81133 0.40626 0.0
C168 C 0.35021 0.74462 0.42241 0.0
C169 C 0.28126 0.72471 0.39479 0.0
H170 H 0.10613 0.72764 0.83686 0.0
H171 H 0.29631 0.87869 0.91863 0.0
H172 H 0.37262 0.81167 0.86812 0.0
H173 H 0.16754 0.56438 0.8415 0.0
H174 H 0.13135 0.53087 0.76564 0.0
H175 H 0.08878 0.58538 0.81324 0.0
H176 H 0.10181 0.67612 0.72295 0.0
H177 H 0.14271 0.62095 0.67481 0.0
H178 H 0.18932 0.71537 0.68817 0.0
H179 H 0.42957 0.73174 0.80901 0.0
H180 H 0.46706 0.6597 0.72583 0.0
H181 H 0.24304 0.56294 0.67517 0.0
C182 C 0.1638 0.74625 0.84409 0.0
C183 C 0.19516 0.80835 0.88185 0.0
C184 C 0.27096 0.83169 0.88957 0.0
C185 C 0.31483 0.79335 0.86182 0.0
C186 C 0.28249 0.73198 0.82568 0.0
C187 C 0.20902 0.70937 0.8153 0.0
C188 C 0.18973 0.64635 0.7685 0.0
C189 C 0.14148 0.57768 0.79907 0.0
C190 C 0.15381 0.66589 0.71015 0.0
C191 C 0.26406 0.63859 0.75334 0.0
C192 C 0.31629 0.68719 0.78852 0.0
C193 C 0.38926 0.69325 0.7812 0.0
C194 C 0.41003 0.65176 0.73397 0.0
C195 C 0.35815 0.60571 0.69382 0.0
C196 C 0.28396 0.59662 0.70571 0.0
H197 H 0.19309 0.25338 0.86374 0.0
H198 H 0.20285 0.03183 0.84301 0.0
H199 H 0.28809 0.06856 0.75467 0.0
H200 H 0.18475 0.2858 0.70817 0.0
H201 H 0.23983 0.37876 0.71004 0.0
H202 H 0.19059 0.33989 0.779 0.0
H203 H 0.30831 0.37315 0.84355 0.0
H204 H 0.3577 0.41402 0.77509 0.0
H205 H 0.38416 0.34474 0.8155 0.0
H206 H 0.35193 0.12241 0.65965 0.0
H207 H 0.40917 0.19416 0.57046 0.0
H208 H 0.36065 0.38369 0.65204 0.0
C209 C 0.21475 0.21288 0.84188 0.0
C210 C 0.19113 0.13955 0.8599 0.0
C211 C 0.22047 0.08823 0.83009 0.0
C212 C 0.26861 0.10858 0.77977 0.0
C213 C 0.28717 0.18037 0.76081 0.0
C214 C 0.2626 0.23223 0.79169 0.0
C215 C 0.28652 0.30435 0.75887 0.0
C216 C 0.22154 0.32855 0.73778 0.0
C217 C 0.33722 0.36249 0.80074 0.0
C218 C 0.32632 0.28408 0.70329 0.0
C219 C 0.32586 0.21234 0.70571 0.0
C220 C 0.35433 0.17907 0.65793 0.0
C221 C 0.38628 0.22064 0.60707 0.0
C222 C 0.3903 0.29531 0.60429 0.0
C223 C 0.35903 0.32714 0.65291 0.0
H224 H 0.80554 0.11665 0.73836 0.0
H225 H 0.96649 0.30702 0.81067 0.0
H226 H 0.95279 0.37379 0.71603 0.0
H227 H 0.8553 0.14254 0.57197 0.0
H228 H 0.76277 0.11026 0.5472 0.0
H229 H 0.7908 0.07594 0.61742 0.0
H230 H 0.69273 0.11383 0.68193 0.0
H231 H 0.66381 0.14694 0.61186 0.0
H232 H 0.68955 0.20619 0.67944 0.0
H233 H 0.9126 0.42232 0.6172 0.0
H234 H 0.84274 0.45058 0.5303 0.0
H235 H 0.71167 0.22634 0.52294 0.0
C236 C 0.83859 0.17221 0.73438 0.0
C237 C 0.88704 0.20652 0.7822 0.0
C238 C 0.92886 0.27948 0.77479 0.0
C239 C 0.92187 0.31766 0.72093 0.0
C240 C 0.87351 0.28186 0.67468 0.0
C241 C 0.83259 0.21071 0.68113 0.0
C242 C 0.78049 0.18572 0.62753 0.0
C243 C 0.79845 0.12502 0.58874 0.0
C244 C 0.70205 0.16183 0.65164 0.0
C245 C 0.79632 0.25475 0.59088 0.0
C246 C 0.85102 0.30938 0.61796 0.0
C247 C 0.87052 0.37962 0.59507 0.0
C248 C 0.83079 0.39507 0.54529 0.0
C249 C 0.77171 0.34063 0.5196 0.0
C250 C 0.75687 0.26905 0.54103 0.0
H251 H 0.94429 0.83216 0.77639 0.0
H252 H 0.78564 0.76843 0.92445 0.0
H253 H 0.71189 0.67108 0.85728 0.0
H254 H 0.83141 0.82798 0.66499 0.0
H255 H 0.87207 0.79129 0.60081 0.0
H256 H 0.92686 0.83802 0.66462 0.0
H257 H 0.97152 0.72676 0.68604 0.0
H258 H 0.91931 0.68023 0.62028 0.0
H259 H 0.90696 0.63935 0.69635 0.0
H260 H 0.63985 0.61162 0.76901 0.0
H261 H 0.58256 0.57077 0.66718 0.0
H262 H 0.78562 0.66952 0.57228 0.0
C263 C 0.8967 0.794 0.79564 0.0
C264 C 0.87157 0.80529 0.85614 0.0
C265 C 0.80693 0.75789 0.87927 0.0
C266 C 0.76428 0.70311 0.84103 0.0
C267 C 0.78721 0.69674 0.77973 0.0
C268 C 0.85297 0.7392 0.75737 0.0
C269 C 0.85918 0.72873 0.68703 0.0
C270 C 0.87317 0.80079 0.6524 0.0
C271 C 0.9177 0.69153 0.67152 0.0
C272 C 0.78472 0.67884 0.67314 0.0
C273 C 0.74452 0.6606 0.72742 0.0
C274 C 0.67144 0.62305 0.72627 0.0
C275 C 0.63906 0.60126 0.66817 0.0
C276 C 0.67991 0.61678 0.6121 0.0
C277 C 0.75358 0.65617 0.61468 0.0
loop_
_geom_bond_atom_site_label_1
_geom_bond_atom_site_label_2
_geom_bond_distance
_geom_bond_site_symmetry_2
_ccdc_geom_bond_type
C0 O27 1.312 . S
C0 O28 1.208 . S
C1 O22 1.331 . S
C1 O25 1.244 . S
C2 O24 1.264 . S
C2 O26 1.273 . S
Mg3 O5 1.936 . S
Mg3 O12 2.081 . S
Mg3 O14 2.023 1_556 S
Mg3 O18 2.031 1_655 S
Mg3 O27 2.291 1_656 S
Mg4 O5 1.963 . S
Mg4 O15 1.942 . S
Mg4 O16 1.955 1_556 S
Mg4 O23 1.986 1_545 S
O5 Mg3 1.936 . S
O5 Mg4 1.963 . S
O5 Mg6 1.915 1_546 S
Mg6 O5 1.915 1_564 S
Mg6 O7 1.915 1_655 S
Mg6 O11 2.013 . S
Mg6 O17 2.114 1_664 S
Mg6 O21 2.013 1_554 S
Mg6 O27 2.114 1_665 S
O7 Mg6 1.915 1_455 S
O7 Mg8 1.936 . S
O7 Mg9 1.963 . S
Mg8 O7 1.936 . S
Mg8 O17 2.291 1_564 S
Mg8 O22 2.081 . S
Mg8 O24 2.023 1_554 S
Mg8 O28 2.031 1_565 S
Mg9 O7 1.963 . S
Mg9 O13 1.986 1_455 S
Mg9 O25 1.942 . S
Mg9 O26 1.955 1_554 S
C10 O21 1.191 . S
C10 O23 1.307 . S
O11 Mg6 2.013 . S
O11 C30 1.191 . S
O12 Mg3 2.081 . S
O12 C20 1.331 . S
O13 Mg9 1.986 1_655 S
O13 C30 1.307 . S
O14 Mg3 2.023 1_554 S
O14 C29 1.264 . S
O15 Mg4 1.942 . S
O15 C20 1.244 . S
O16 Mg4 1.955 1_554 S
O16 C29 1.273 . S
O17 Mg6 2.114 1_446 S
O17 Mg8 2.291 1_546 S
O17 C19 1.312 . S
O18 Mg3 2.031 1_455 S
O18 C19 1.208 . S
C19 O17 1.312 . S
C19 O18 1.208 . S
C20 O12 1.331 . S
C20 O15 1.244 . S
O21 Mg6 2.013 1_556 S
O21 C10 1.191 . S
O22 C1 1.331 . S
O22 Mg8 2.081 . S
O23 Mg4 1.986 1_565 S
O23 C10 1.307 . S
O24 C2 1.264 . S
O24 Mg8 2.023 1_556 S
O25 C1 1.244 . S
O25 Mg9 1.942 . S
O26 C2 1.273 . S
O26 Mg9 1.955 1_556 S
O27 C0 1.312 . S
O27 Mg3 2.291 1_454 S
O27 Mg6 2.114 1_445 S
O28 C0 1.208 . S
O28 Mg8 2.031 1_545 S
C29 O14 1.264 . S
C29 O16 1.273 . S
C30 O11 1.191 . S
C30 O13 1.307 . S
C31 O58 1.312 . S
C31 O59 1.208 . S
C32 O53 1.331 . S
C32 O56 1.244 . S
C33 O55 1.264 . S
C33 O57 1.273 . S
Mg34 O36 1.936 . S
Mg34 O43 2.081 . S
Mg34 O45 2.023 . S
Mg34 O49 2.031 . S
Mg34 O58 2.291 . S
Mg35 O36 1.963 . S
Mg35 O46 1.942 . S
Mg35 O47 1.955 . S
Mg35 O54 1.986 . S
O36 Mg34 1.936 . S
O36 Mg35 1.963 . S
O36 Mg37 1.915 . S
Mg37 O36 1.915 . S
Mg37 O38 1.915 . S
Mg37 O42 2.013 . S
Mg37 O48 2.114 . S
Mg37 O52 2.013 . S
Mg37 O58 2.114 . S
O38 Mg37 1.915 . S
O38 Mg39 1.936 . S
O38 Mg40 1.963 . S
Mg39 O38 1.936 . S
Mg39 O48 2.291 . S
Mg39 O53 2.081 . S
Mg39 O55 2.023 . S
Mg39 O59 2.031 . S
Mg40 O38 1.963 . S
Mg40 O44 1.986 . S
Mg40 O56 1.942 . S
Mg40 O57 1.955 . S
C41 O52 1.191 . S
C41 O54 1.307 . S
O42 Mg37 2.013 . S
O42 C61 1.191 . S
O43 Mg34 2.081 . S
O43 C51 1.331 . S
O44 Mg40 1.986 . S
O44 C61 1.307 . S
O45 Mg34 2.023 . S
O45 C60 1.264 . S
O46 Mg35 1.942 . S
O46 C51 1.244 . S
O47 Mg35 1.955 . S
O47 C60 1.273 . S
O48 Mg37 2.114 . S
O48 Mg39 2.291 . S
O48 C50 1.312 . S
O49 Mg34 2.031 . S
O49 C50 1.208 . S
C50 O48 1.312 . S
C50 O49 1.208 . S
C51 O43 1.331 . S
C51 O46 1.244 . S
O52 Mg37 2.013 . S
O52 C41 1.191 . S
O53 C32 1.331 . S
O53 Mg39 2.081 . S
O54 Mg35 1.986 . S
O54 C41 1.307 . S
O55 C33 1.264 . S
O55 Mg39 2.023 . S
O56 C32 1.244 . S
O56 Mg40 1.942 . S
O57 C33 1.273 . S
O57 Mg40 1.955 . S
O58 C31 1.312 . S
O58 Mg34 2.291 . S
O58 Mg37 2.114 . S
O59 C31 1.208 . S
O59 Mg39 2.031 . S
C60 O45 1.264 . S
C60 O47 1.273 . S
C61 O42 1.191 . S
C61 O44 1.307 . S
H62 C74 0.930 . S
H63 C76 0.930 . S
H64 C77 0.930 . S
H65 C81 0.959 . S
H66 C81 0.959 . S
H67 C81 0.961 . S
H68 C82 0.960 . S
H69 C82 0.961 . S
H70 C82 0.959 . S
H71 C85 0.929 . S
H72 C86 0.931 . S
H73 C88 0.930 . S
C74 H62 0.930 . S
C74 C75 1.399 . S
C74 C79 1.399 . S
C75 C74 1.399 . S
C75 C76 1.376 . S
C76 H63 0.930 . S
C76 C75 1.376 . S
C76 C77 1.388 . S
C77 H64 0.930 . S
C77 C76 1.388 . S
C77 C78 1.390 . S
C78 C77 1.390 . S
C78 C79 1.394 . S
C78 C84 1.465 . S
C79 C74 1.399 . S
C79 C78 1.394 . S
C79 C80 1.516 . S
C80 C79 1.516 . S
C80 C81 1.502 . S
C80 C82 1.561 . S
C80 C83 1.526 . S
C81 H65 0.959 . S
C81 H66 0.959 . S
C81 H67 0.961 . S
C81 C80 1.502 . S
C82 H68 0.960 . S
C82 H69 0.961 . S
C82 H70 0.959 . S
C82 C80 1.561 . S
C83 C80 1.526 . S
C83 C84 1.396 . S
C83 C88 1.390 . S
C84 C78 1.465 . S
C84 C83 1.396 . S
C84 C85 1.399 . S
C85 H71 0.929 . S
C85 C84 1.399 . S
C85 C86 1.385 . S
C86 H72 0.931 . S
C86 C85 1.385 . S
C86 C87 1.389 . S
C87 C86 1.389 . S
C87 C88 1.387 . S
C88 H73 0.930 . S
C88 C83 1.390 . S
C88 C87 1.387 . S
H89 C101 0.930 . S
H90 C103 0.930 . S
H91 C104 0.930 . S
H92 C108 0.959 . S
H93 C108 0.959 . S
H94 C108 0.961 . S
H95 C109 0.960 . S
H96 C109 0.961 . S
H97 C109 0.959 . S
H98 C112 0.929 . S
H99 C113 0.931 . S
H100 C115 0.930 . S
C101 H89 0.930 . S
C101 C102 1.399 . S
C101 C106 1.399 . S
C102 C101 1.399 . S
C102 C103 1.376 . S
C103 H90 0.930 . S
C103 C102 1.376 . S
C103 C104 1.388 . S
C104 H91 0.930 . S
C104 C103 1.388 . S
C104 C105 1.390 . S
C105 C104 1.390 . S
C105 C106 1.394 . S
C105 C111 1.465 . S
C106 C101 1.399 . S
C106 C105 1.394 . S
C106 C107 1.516 . S
C107 C106 1.516 . S
C107 C108 1.502 . S
C107 C109 1.561 . S
C107 C110 1.526 . S
C108 H92 0.959 . S
C108 H93 0.959 . S
C108 H94 0.961 . S
C108 C107 1.502 . S
C109 H95 0.960 . S
C109 H96 0.961 . S
C109 H97 0.959 . S
C109 C107 1.561 . S
C110 C107 1.526 . S
C110 C111 1.396 . S
C110 C115 1.390 . S
C111 C105 1.465 . S
C111 C110 1.396 . S
C111 C112 1.399 . S
C112 H98 0.929 . S
C112 C111 1.399 . S
C112 C113 1.385 . S
C113 H99 0.931 . S
C113 C112 1.385 . S
C113 C114 1.389 . S
C114 C113 1.389 . S
C114 C115 1.387 . S
C115 H100 0.930 . S
C115 C110 1.390 . S
C115 C114 1.387 . S
H116 C128 0.930 . S
H117 C130 0.930 . S
H118 C131 0.930 . S
H119 C135 0.959 . S
H120 C135 0.959 . S
H121 C135 0.961 . S
H122 C136 0.960 . S
H123 C136 0.961 . S
H124 C136 0.959 . S
H125 C139 0.929 . S
H126 C140 0.931 . S
H127 C142 0.930 . S
C128 H116 0.930 . S
C128 C129 1.399 . S
C128 C133 1.399 . S
C129 C128 1.399 . S
C129 C130 1.376 . S
C130 H117 0.930 . S
C130 C129 1.376 . S
C130 C131 1.388 . S
C131 H118 0.930 . S
C131 C130 1.388 . S
C131 C132 1.390 . S
C132 C131 1.390 . S
C132 C133 1.394 . S
C132 C138 1.465 . S
C133 C128 1.399 . S
C133 C132 1.394 . S
C133 C134 1.516 . S
C134 C133 1.516 . S
C134 C135 1.502 . S
C134 C136 1.561 . S
C134 C137 1.526 . S
C135 H119 0.959 . S
C135 H120 0.959 . S
C135 H121 0.961 . S
C135 C134 1.502 . S
C136 H122 0.960 . S
C136 H123 0.961 . S
C136 H124 0.959 . S
C136 C134 1.561 . S
C137 C134 1.526 . S
C137 C138 1.396 . S
C137 C142 1.390 . S
C138 C132 1.465 . S
C138 C137 1.396 . S
C138 C139 1.399 . S
C139 H125 0.929 . S
C139 C138 1.399 . S
C139 C140 1.385 . S
C140 H126 0.931 . S
C140 C139 1.385 . S
C140 C141 1.389 . S
C141 C140 1.389 . S
C141 C142 1.387 . S
C142 H127 0.930 . S
C142 C137 1.390 . S
C142 C141 1.387 . S
H143 C155 0.930 . S
H144 C157 0.930 . S
H145 C158 0.930 . S
H146 C162 0.959 . S
H147 C162 0.959 . S
H148 C162 0.961 . S
H149 C163 0.960 . S
H150 C163 0.961 . S
H151 C163 0.959 . S
H152 C166 0.929 . S
H153 C167 0.931 . S
H154 C169 0.930 . S
C155 H143 0.930 . S
C155 C156 1.399 . S
C155 C160 1.399 . S
C156 C155 1.399 . S
C156 C157 1.376 . S
C157 H144 0.930 . S
C157 C156 1.376 . S
C157 C158 1.388 . S
C158 H145 0.930 . S
C158 C157 1.388 . S
C158 C159 1.390 . S
C159 C158 1.390 . S
C159 C160 1.394 . S
C159 C165 1.465 . S
C160 C155 1.399 . S
C160 C159 1.394 . S
C160 C161 1.516 . S
C161 C160 1.516 . S
C161 C162 1.502 . S
C161 C163 1.561 . S
C161 C164 1.526 . S
C162 H146 0.959 . S
C162 H147 0.959 . S
C162 H148 0.961 . S
C162 C161 1.502 . S
C163 H149 0.960 . S
C163 H150 0.961 . S
C163 H151 0.959 . S
C163 C161 1.561 . S
C164 C161 1.526 . S
C164 C165 1.396 . S
C164 C169 1.390 . S
C165 C159 1.465 . S
C165 C164 1.396 . S
C165 C166 1.399 . S
C166 H152 0.929 . S
C166 C165 1.399 . S
C166 C167 1.385 . S
C167 H153 0.931 . S
C167 C166 1.385 . S
C167 C168 1.389 . S
C168 C167 1.389 . S
C168 C169 1.387 . S
C169 H154 0.930 . S
C169 C164 1.390 . S
C169 C168 1.387 . S
H170 C182 0.930 . S
H171 C184 0.930 . S
H172 C185 0.930 . S
H173 C189 0.959 . S
H174 C189 0.959 . S
H175 C189 0.961 . S
H176 C190 0.960 . S
H177 C190 0.961 . S
H178 C190 0.959 . S
H179 C193 0.929 . S
H180 C194 0.931 . S
H181 C196 0.930 . S
C182 H170 0.930 . S
C182 C183 1.399 . S
C182 C187 1.399 . S
C183 C182 1.399 . S
C183 C184 1.376 . S
C184 H171 0.930 . S
C184 C183 1.376 . S
C184 C185 1.388 . S
C185 H172 0.930 . S
C185 C184 1.388 . S
C185 C186 1.390 . S
C186 C185 1.390 . S
C186 C187 1.394 . S
C186 C192 1.465 . S
C187 C182 1.399 . S
C187 C186 1.394 . S
C187 C188 1.516 . S
C188 C187 1.516 . S
C188 C189 1.502 . S
C188 C190 1.561 . S
C188 C191 1.526 . S
C189 H173 0.959 . S
C189 H174 0.959 . S
C189 H175 0.961 . S
C189 C188 1.502 . S
C190 H176 0.960 . S
C190 H177 0.961 . S
C190 H178 0.959 . S
C190 C188 1.561 . S
C191 C188 1.526 . S
C191 C192 1.396 . S
C191 C196 1.390 . S
C192 C186 1.465 . S
C192 C191 1.396 . S
C192 C193 1.399 . S
C193 H179 0.929 . S
C193 C192 1.399 . S
C193 C194 1.385 . S
C194 H180 0.931 . S
C194 C193 1.385 . S
C194 C195 1.389 . S
C195 C194 1.389 . S
C195 C196 1.387 . S
C196 H181 0.930 . S
C196 C191 1.390 . S
C196 C195 1.387 . S
H197 C209 0.930 . S
H198 C211 0.930 . S
H199 C212 0.930 . S
H200 C216 0.959 . S
H201 C216 0.959 . S
H202 C216 0.961 . S
H203 C217 0.960 . S
H204 C217 0.961 . S
H205 C217 0.959 . S
H206 C220 0.929 . S
H207 C221 0.931 . S
H208 C223 0.930 . S
C209 H197 0.930 . S
C209 C210 1.399 . S
C209 C214 1.399 . S
C210 C209 1.399 . S
C210 C211 1.376 . S
C211 H198 0.930 . S
C211 C210 1.376 . S
C211 C212 1.388 . S
C212 H199 0.930 . S
C212 C211 1.388 . S
C212 C213 1.390 . S
C213 C212 1.390 . S
C213 C214 1.394 . S
C213 C219 1.465 . S
C214 C209 1.399 . S
C214 C213 1.394 . S
C214 C215 1.516 . S
C215 C214 1.516 . S
C215 C216 1.502 . S
C215 C217 1.561 . S
C215 C218 1.526 . S
C216 H200 0.959 . S
C216 H201 0.959 . S
C216 H202 0.961 . S
C216 C215 1.502 . S
C217 H203 0.960 . S
C217 H204 0.961 . S
C217 H205 0.959 . S
C217 C215 1.561 . S
C218 C215 1.526 . S
C218 C219 1.396 . S
C218 C223 1.390 . S
C219 C213 1.465 . S
C219 C218 1.396 . S
C219 C220 1.399 . S
C220 H206 0.929 . S
C220 C219 1.399 . S
C220 C221 1.385 . S
C221 H207 0.931 . S
C221 C220 1.385 . S
C221 C222 1.389 . S
C222 C221 1.389 . S
C222 C223 1.387 . S
C223 H208 0.930 . S
C223 C218 1.390 . S
C223 C222 1.387 . S
H224 C236 0.930 . S
H225 C238 0.930 . S
H226 C239 0.930 . S
H227 C243 0.959 . S
H228 C243 0.959 . S
H229 C243 0.961 . S
H230 C244 0.960 . S
H231 C244 0.961 . S
H232 C244 0.959 . S
H233 C247 0.929 . S
H234 C248 0.931 . S
H235 C250 0.930 . S
C236 H224 0.930 . S
C236 C237 1.399 . S
C236 C241 1.399 . S
C237 C236 1.399 . S
C237 C238 1.376 . S
C238 H225 0.930 . S
C238 C237 1.376 . S
C238 C239 1.388 . S
C239 H226 0.930 . S
C239 C238 1.388 . S
C239 C240 1.390 . S
C240 C239 1.390 . S
C240 C241 1.394 . S
C240 C246 1.465 . S
C241 C236 1.399 . S
C241 C240 1.394 . S
C241 C242 1.516 . S
C242 C241 1.516 . S
C242 C243 1.502 . S
C242 C244 1.561 . S
C242 C245 1.526 . S
C243 H227 0.959 . S
C243 H228 0.959 . S
C243 H229 0.961 . S
C243 C242 1.502 . S
C244 H230 0.960 . S
C244 H231 0.961 . S
C244 H232 0.959 . S
C244 C242 1.561 . S
C245 C242 1.526 . S
C245 C246 1.396 . S
C245 C250 1.390 . S
C246 C240 1.465 . S
C246 C245 1.396 . S
C246 C247 1.399 . S
C247 H233 0.929 . S
C247 C246 1.399 . S
C247 C248 1.385 . S
C248 H234 0.931 . S
C248 C247 1.385 . S
C248 C249 1.389 . S
C249 C248 1.389 . S
C249 C250 1.387 . S
C250 H235 0.930 . S
C250 C245 1.390 . S
C250 C249 1.387 . S
H251 C263 0.930 . S
H252 C265 0.930 . S
H253 C266 0.930 . S
H254 C270 0.959 . S
H255 C270 0.959 . S
H256 C270 0.961 . S
H257 C271 0.960 . S
H258 C271 0.961 . S
H259 C271 0.959 . S
H260 C274 0.929 . S
H261 C275 0.931 . S
H262 C277 0.930 . S
C263 H251 0.930 . S
C263 C264 1.399 . S
C263 C268 1.399 . S
C264 C263 1.399 . S
C264 C265 1.376 . S
C265 H252 0.930 . S
C265 C264 1.376 . S
C265 C266 1.388 . S
C266 H253 0.930 . S
C266 C265 1.388 . S
C266 C267 1.390 . S
C267 C266 1.390 . S
C267 C268 1.394 . S
C267 C273 1.465 . S
C268 C263 1.399 . S
C268 C267 1.394 . S
C268 C269 1.516 . S
C269 C268 1.516 . S
C269 C270 1.502 . S
C269 C271 1.561 . S
C269 C272 1.526 . S
C270 H254 0.959 . S
C270 H255 0.959 . S
C270 H256 0.961 . S
C270 C269 1.502 . S
C271 H257 0.960 . S
C271 H258 0.961 . S
C271 H259 0.959 . S
C271 C269 1.561 . S
C272 C269 1.526 . S
C272 C273 1.396 . S
C272 C277 1.390 . S
C273 C267 1.465 . S
C273 C272 1.396 . S
C273 C274 1.399 . S
C274 H260 0.929 . S
C274 C273 1.399 . S
C274 C275 1.385 . S
C275 H261 0.931 . S
C275 C274 1.385 . S
C275 C276 1.389 . S
C276 C275 1.389 . S
C276 C277 1.387 . S
C277 H262 0.930 . S
C277 C272 1.390 . S
C277 C276 1.387 . S
C75 C0 1.191 . S
C87 C41 1.260 . S
C102 C29 1.712 . S
C114 C33 1.677 . S
C129 C30 1.218 . S
C141 C50 1.276 . S
C156 C1 1.568 . S
C168 C51 1.557 . S
C183 C2 1.687 . S
C195 C60 1.706 . S
C222 C61 1.213 . S
C210 C19 1.279 . S
C237 C20 1.534 . S
C249 C32 1.586 . S
C276 C31 1.232 . S
C264 C10 1.269 . S
