# Generated by pormake.
# Topology anh, (6,3)-cn, num edge types: 1
# Building blocks:
#     Node 0, Type 0, BuildingBlock: BETFAJ_clean_sbu_0, # of connection points: 6
#     Node 1, Type 0, BuildingBlock: BETFAJ_clean_sbu_0, # of connection points: 6
#     Node 2, Type 0, BuildingBlock: BETFAJ_clean_sbu_0, # of connection points: 6
#     Node 3, Type 1, BuildingBlock: WUSLED_clean_sbu_0, # of connection points: 3
#     Node 4, Type 1, BuildingBlock: WUSLED_clean_sbu_0, # of connection points: 3
#     Node 5, Type 1, BuildingBlock: WUSLED_clean_sbu_0, # of connection points: 3
#     Node 6, Type 1, BuildingBlock: WUSLED_clean_sbu_0, # of connection points: 3
#     Node 7, Type 1, BuildingBlock: WUSLED_clean_sbu_0, # of connection points: 3
#     Node 8, Type 1, BuildingBlock: WUSLED_clean_sbu_0, # of connection points: 3
#     Edge 9, Type (0, 1), BuildingBlock: KIFKEQ_clean_linker_1, # of connection points: 2
#     Edge 10, Type (0, 1), BuildingBlock: KIFKEQ_clean_linker_1, # of connection points: 2
#     Edge 11, Type (0, 1), BuildingBlock: KIFKEQ_clean_linker_1, # of connection points: 2
#     Edge 12, Type (0, 1), BuildingBlock: KIFKEQ_clean_linker_1, # of connection points: 2
#     Edge 13, Type (0, 1), BuildingBlock: KIFKEQ_clean_linker_1, # of connection points: 2
#     Edge 14, Type (0, 1), BuildingBlock: KIFKEQ_clean_linker_1, # of connection points: 2
#     Edge 15, Type (0, 1), BuildingBlock: KIFKEQ_clean_linker_1, # of connection points: 2
#     Edge 16, Type (0, 1), BuildingBlock: KIFKEQ_clean_linker_1, # of connection points: 2
#     Edge 17, Type (0, 1), BuildingBlock: KIFKEQ_clean_linker_1, # of connection points: 2
#     Edge 18, Type (0, 1), BuildingBlock: KIFKEQ_clean_linker_1, # of connection points: 2
#     Edge 19, Type (0, 1), BuildingBlock: KIFKEQ_clean_linker_1, # of connection points: 2
#     Edge 20, Type (0, 1), BuildingBlock: KIFKEQ_clean_linker_1, # of connection points: 2
#     Edge 21, Type (0, 1), BuildingBlock: KIFKEQ_clean_linker_1, # of connection points: 2
#     Edge 22, Type (0, 1), BuildingBlock: KIFKEQ_clean_linker_1, # of connection points: 2
#     Edge 23, Type (0, 1), BuildingBlock: KIFKEQ_clean_linker_1, # of connection points: 2
#     Edge 24, Type (0, 1), BuildingBlock: KIFKEQ_clean_linker_1, # of connection points: 2
#     Edge 25, Type (0, 1), BuildingBlock: KIFKEQ_clean_linker_1, # of connection points: 2
#     Edge 26, Type (0, 1), BuildingBlock: KIFKEQ_clean_linker_1, # of connection points: 2
# Relax obj value: 0.168
# Max RMSD: 0.201
# Mean RMSD: 0.148
data_MOF--net-anh--node1-BETFAJ_clean_sbu_0--node2-WUSLED_clean_sbu_0--edge1-KIFKEQ_clean_linker_1
_symmetry_space_group_name_H-M    P1
_symmetry_Int_Tables_number       1
_symmetry_cell_setting            triclinic
loop_
_symmetry_equiv_pos_as_xyz
'x, y, z'
_cell_length_a     40.891052
_cell_length_b     46.945494
_cell_length_c     70.134252
_cell_angle_alpha  92.148779
_cell_angle_beta   89.554689
_cell_angle_gamma 127.94571
loop_
_atom_site_label
_atom_site_type_symbol
_atom_site_fract_x
_atom_site_fract_y
_atom_site_fract_z
_atom_type_partial_charge
Sm0 Sm 0.09375 0.51462 0.16696 0.0
Sm1 Sm 1.04452 0.54282 0.1724 0.0
C2 C 0.1411 0.49851 0.15413 0.0
C3 C 0.17638 0.50369 0.16373 0.0
C4 C 0.21616 0.52731 0.15626 0.0
C5 C 0.25037 0.53478 0.16603 0.0
C6 C 0.24533 0.51849 0.18335 0.0
C7 C 0.2056 0.49492 0.19089 0.0
C8 C 0.17141 0.48778 0.18125 0.0
C9 C 0.08593 0.51955 0.20599 0.0
C10 C 0.14345 0.60139 0.17771 0.0
C11 C 0.99276 0.55652 0.18209 0.0
C12 C 0.95415 0.53699 0.19266 0.0
C13 C 0.93911 0.50446 0.20114 0.0
C14 C 0.89887 0.4825 0.20811 0.0
C15 C 0.87359 0.4932 0.20696 0.0
C16 C 0.89012 0.52719 0.19984 0.0
C17 C 0.93009 0.54884 0.19262 0.0
C18 C 0.07102 0.546 0.13535 0.0
C19 C 0.99488 0.45464 0.17125 0.0
O20 O 0.14704 0.52828 0.14972 0.0
O21 O 0.10445 0.47434 0.16116 0.0
O22 O 0.07172 0.52757 0.19321 0.0
O23 O 0.10509 0.50829 0.19822 0.0
O24 O 0.1453 0.57701 0.16889 0.0
O25 O 0.10769 0.5935 0.18266 0.0
O26 O 1.02626 0.5688 0.19203 0.0
O27 O 0.99058 0.54121 0.16567 0.0
O28 O 0.05589 0.51981 0.14617 0.0
O29 O 0.07233 0.57159 0.14404 0.0
O30 O 0.995 0.48179 0.17705 0.0
O31 O 1.0283 0.46039 0.16408 0.0
H32 H 0.22079 0.5401 0.1429 0.0
H33 H 0.28064 0.55234 0.15967 0.0
H34 H 0.20101 0.48179 0.20412 0.0
H35 H 0.14118 0.46986 0.18757 0.0
H36 H 0.95769 0.49525 0.20154 0.0
H37 H 0.88684 0.45645 0.21354 0.0
H38 H 0.8711 0.53588 0.1985 0.0
H39 H 0.94137 0.5739 0.18612 0.0
Sm40 Sm 0.57766 1.00201 0.49419 0.0
Sm41 Sm 0.52941 0.02934 0.48891 0.0
C42 C 0.60639 0.96772 0.5058 0.0
C43 C 0.59628 0.93145 0.50619 0.0
C44 C 0.56638 0.90504 0.51853 0.0
C45 C 0.56028 0.87237 0.52 0.0
C46 C 0.58402 0.86536 0.50923 0.0
C47 C 0.61305 0.89142 0.49652 0.0
C48 C 0.61919 0.92406 0.49508 0.0
C49 C 0.57383 0.01571 0.45679 0.0
C50 C 0.47647 0.94329 0.48481 0.0
C51 C 0.50171 0.06583 0.48032 0.0
C52 C 0.51072 0.10055 0.48653 0.0
C53 C 0.51231 0.12257 0.47296 0.0
C54 C 0.52063 0.15545 0.47859 0.0
C55 C 0.52752 0.16703 0.49797 0.0
C56 C 0.52615 0.1449 0.51151 0.0
C57 C 0.51801 0.11214 0.50586 0.0
C58 C 0.53612 0.01714 0.52643 0.0
C59 C 0.6319 0.08836 0.4932 0.0
O60 O 0.58532 0.97425 0.51667 0.0
O61 O 0.61513 0.98276 0.48931 0.0
O62 O 0.54368 1.00064 0.46806 0.0
O63 O 0.60651 0.02258 0.46493 0.0
O64 O 0.50908 0.94917 0.49328 0.0
O65 O 0.47841 0.9706 0.4788 0.0
O66 O 0.5306 0.06791 0.47073 0.0
O67 O 0.48407 0.04031 0.49267 0.0
O68 O 0.56518 0.03226 0.51466 0.0
O69 O 0.50246 1.00887 0.51872 0.0
O70 O 0.59706 0.08129 0.48707 0.0
O71 O 0.63239 0.06241 0.49942 0.0
H72 H 0.54835 0.9099 0.52741 0.0
H73 H 0.53797 0.85316 0.53009 0.0
H74 H 0.63143 0.88679 0.48777 0.0
H75 H 0.6426 0.9439 0.48551 0.0
H76 H 0.50713 0.11432 0.45796 0.0
H77 H 0.52204 0.17195 0.46773 0.0
H78 H 0.5307 0.15258 0.52657 0.0
H79 H 0.51722 0.0958 0.51664 0.0
Sm80 Sm 0.61322 0.56997 0.8459 0.0
Sm81 Sm 0.55788 0.49021 0.85081 0.0
C82 C 0.64657 0.63499 0.83295 0.0
C83 C 0.63635 0.65988 0.83021 0.0
C84 C 0.65039 0.68059 0.81393 0.0
C85 C 0.64263 0.70537 0.81123 0.0
C86 C 0.62069 0.7102 0.82482 0.0
C87 C 0.60592 0.68882 0.841 0.0
C88 C 0.61362 0.6639 0.84365 0.0
C89 C 0.60536 0.55122 0.88291 0.0
C90 C 0.51021 0.5271 0.85341 0.0
C91 C 0.52406 0.4226 0.85925 0.0
C92 C 0.53017 0.39541 0.85352 0.0
C93 C 0.53062 0.37483 0.86739 0.0
C94 C 0.53533 0.34841 0.86214 0.0
C95 C 0.53945 0.34179 0.84286 0.0
C96 C 0.5396 0.36286 0.82903 0.0
C97 C 0.53518 0.38942 0.83429 0.0
C98 C 0.56673 0.50935 0.81339 0.0
C99 C 0.66248 0.53488 0.85018 0.0
O100 O 0.62689 0.60556 0.82195 0.0
O101 O 0.65174 0.62959 0.85047 0.0
O102 O 0.576 0.53616 0.8708 0.0
O103 O 0.64011 0.57851 0.87602 0.0
O104 O 0.54618 0.55592 0.84693 0.0
O105 O 0.50773 0.4986 0.85818 0.0
O106 O 0.55351 0.45071 0.86966 0.0
O107 O 0.50892 0.43106 0.84625 0.0
O108 O 0.59589 0.52406 0.82563 0.0
O109 O 0.53209 0.48291 0.82055 0.0
O110 O 0.62473 0.50509 0.85402 0.0
O111 O 0.66658 0.56386 0.84474 0.0
H112 H 0.6677 0.67778 0.80329 0.0
H113 H 0.65374 0.72065 0.7984 0.0
H114 H 0.58918 0.69187 0.85185 0.0
H115 H 0.6022 0.64808 0.85631 0.0
H116 H 0.52692 0.37898 0.88231 0.0
H117 H 0.53479 0.33258 0.87317 0.0
H118 H 0.54339 0.35898 0.81409 0.0
H119 H 0.53549 0.40513 0.82327 0.0
C120 C 0.66238 0.12522 0.19309 0.0
C121 C 0.69204 0.14247 0.20803 0.0
C122 C 0.7348 0.19771 0.19009 0.0
C123 C 0.72799 0.17839 0.20652 0.0
C124 C 0.70472 0.18013 0.17527 0.0
C125 C 0.66904 0.14439 0.17677 0.0
U126 U 0.57562 0.03577 0.21753 0.0
O127 O 0.50982 0.9992 0.20825 0.0
O128 O 0.54728 0.98003 0.20705 0.0
C129 C 0.51106 0.97249 0.20361 0.0
C130 C 0.62476 0.08714 0.19364 0.0
C131 C 0.47271 0.93492 0.2053 0.0
C132 C 0.40392 0.88709 0.19209 0.0
C133 C 0.43912 0.92329 0.19321 0.0
C134 C 0.43451 0.87306 0.21564 0.0
C135 C 0.40101 0.86126 0.20318 0.0
C136 C 0.47013 0.90955 0.21664 0.0
C137 C 0.58132 0.03618 0.27382 0.0
C138 C 0.53562 0.01426 0.30115 0.0
C139 C 0.60578 0.03433 0.30491 0.0
C140 C 0.61256 0.04185 0.28559 0.0
C141 C 0.56742 0.02083 0.31306 0.0
C142 C 0.54251 0.02191 0.2817 0.0
C143 C 0.59258 0.04993 0.25432 0.0
O144 O 0.62976 0.06341 0.19883 0.0
O145 O 0.59153 0.08149 0.2008 0.0
O146 O 0.56856 0.05496 0.24525 0.0
O147 O 0.60804 0.03792 0.24314 0.0
H148 H 0.68749 0.12818 0.22078 0.0
H149 H 0.75025 0.19114 0.21829 0.0
H150 H 0.70908 0.19378 0.16228 0.0
H151 H 0.64668 0.13153 0.16503 0.0
H152 H 0.37952 0.87923 0.18199 0.0
H153 H 0.44066 0.94214 0.18402 0.0
H154 H 0.43332 0.85411 0.22454 0.0
H155 H 0.49579 0.91772 0.22596 0.0
H156 H 0.50558 1.00358 0.30689 0.0
H157 H 0.63134 0.04052 0.31362 0.0
H158 H 0.643 0.05349 0.27998 0.0
H159 H 0.5179 0.01751 0.27299 0.0
C160 C 0.56372 0.58495 0.5435 0.0
C161 C 0.57243 0.61029 0.55799 0.0
C162 C 0.56419 0.6438 0.53535 0.0
C163 C 0.57273 0.63942 0.55396 0.0
C164 C 0.55469 0.61789 0.52094 0.0
C165 C 0.55455 0.58878 0.52499 0.0
U166 U 0.57034 0.53034 0.57951 0.0
O167 O 0.60615 0.50951 0.57984 0.0
O168 O 0.5381 0.47194 0.58108 0.0
C169 C 0.57269 0.47565 0.58025 0.0
C170 C 0.56468 0.55487 0.54763 0.0
C171 C 0.57241 0.44884 0.56832 0.0
C172 C 0.54327 0.40203 0.5429 0.0
C173 C 0.54591 0.43037 0.55231 0.0
C174 C 0.59446 0.4112 0.56499 0.0
C175 C 0.56682 0.39154 0.54945 0.0
C176 C 0.59714 0.43942 0.57429 0.0
C177 C 0.57771 0.55902 0.63248 0.0
C178 C 0.58512 0.53108 0.65888 0.0
C179 C 0.57684 0.57739 0.6652 0.0
C180 C 0.57489 0.58064 0.64559 0.0
C181 C 0.58168 0.5524 0.67213 0.0
C182 C 0.58303 0.5343 0.6392 0.0
C183 C 0.57447 0.56252 0.61194 0.0
O184 O 0.59999 0.56459 0.55479 0.0
O185 O 0.53221 0.52794 0.55648 0.0
O186 O 0.53933 0.53603 0.60344 0.0
O187 O 0.60715 0.57325 0.60183 0.0
H188 H 0.57927 0.60765 0.57242 0.0
H189 H 0.57951 0.65848 0.56547 0.0
H190 H 0.5483 0.62055 0.50643 0.0
H191 H 0.5477 0.56947 0.51361 0.0
H192 H 0.52162 0.38742 0.531 0.0
H193 H 0.52647 0.43713 0.54742 0.0
H194 H 0.61365 0.40439 0.57019 0.0
H195 H 0.61781 0.45328 0.5866 0.0
H196 H 0.58845 0.51133 0.66372 0.0
H197 H 0.57467 0.59457 0.67497 0.0
H198 H 0.57093 0.59997 0.64065 0.0
H199 H 0.58518 0.51732 0.62925 0.0
C200 C 0.98932 0.53095 0.87284 0.0
C201 C 0.99127 0.56094 0.87935 0.0
C202 C 0.91837 0.53241 0.86863 0.0
C203 C 0.95684 0.56156 0.87743 0.0
C204 C 0.91672 0.50242 0.86224 0.0
C205 C 0.95098 0.50177 0.86427 0.0
U206 U 0.08563 0.53108 0.89006 0.0
O207 O 0.10756 0.50175 0.87658 0.0
O208 O 0.14812 0.56043 0.87681 0.0
C209 C 0.14428 0.53109 0.87209 0.0
C210 C 1.02755 0.53135 0.87217 0.0
C211 C 0.18275 0.53195 0.87249 0.0
C212 C 0.24828 0.55097 0.85719 0.0
C213 C 0.21389 0.55153 0.85876 0.0
C214 C 0.22288 0.51139 0.88331 0.0
C215 C 0.2542 0.5309 0.86938 0.0
C216 C 0.18807 0.51171 0.88474 0.0
C217 C 0.08544 0.5316 0.94885 0.0
C218 C 0.12056 0.56034 0.97959 0.0
C219 C 0.05036 0.50476 0.97881 0.0
C220 C 0.05054 0.50392 0.95873 0.0
C221 C 0.08536 0.53306 0.98967 0.0
C222 C 0.12043 0.55977 0.95954 0.0
C223 C 0.08535 0.53128 0.92756 0.0
O224 O 0.06448 0.5606 0.87765 0.0
O225 O 1.02341 0.50192 0.87564 0.0
O226 O 0.06328 0.50125 0.91688 0.0
O227 O 0.10746 0.56114 0.91805 0.0
H228 H 1.01985 0.5845 0.88575 0.0
H229 H 0.96079 0.58534 0.88293 0.0
H230 H 0.88912 0.47931 0.85504 0.0
H231 H 0.94769 0.47838 0.85851 0.0
H232 H 0.26975 0.56601 0.84589 0.0
H233 H 0.21122 0.56701 0.84872 0.0
H234 H 0.22497 0.49564 0.89336 0.0
H235 H 0.16511 0.4958 0.89545 0.0
H236 H 0.14863 0.5822 0.98714 0.0
H237 H 1.02228 0.48347 0.98576 0.0
H238 H 1.02298 0.48189 0.95093 0.0
H239 H 0.148 0.58132 0.95238 0.0
C240 C 0.96073 0.41964 0.4716 0.0
C241 C 0.94537 0.3938 0.45643 0.0
C242 C 0.8906 0.34681 0.47667 0.0
C243 C 0.91066 0.35768 0.45896 0.0
C244 C 0.90638 0.37298 0.49174 0.0
C245 C 0.94094 0.40885 0.48921 0.0
U246 U 1.04295 0.50802 0.44481 0.0
O247 O 0.06744 0.56301 0.45517 0.0
O248 O 0.10931 0.54848 0.45247 0.0
C249 C 0.10526 0.5734 0.45761 0.0
C250 C 0.99751 0.45786 0.46986 0.0
C251 C 0.14095 0.61217 0.45592 0.0
C252 C 0.17842 0.67342 0.4697 0.0
C253 C 0.14267 0.63742 0.46817 0.0
C254 C 0.21148 0.66029 0.44618 0.0
C255 C 0.21367 0.68544 0.45893 0.0
C256 C 0.17559 0.62399 0.44476 0.0
C257 C 1.03041 0.50067 0.3883 0.0
C258 C 0.07543 0.5369 0.36227 0.0
C259 C 1.00554 0.48268 0.35538 0.0
C260 C 0.99879 0.47707 0.37488 0.0
C261 C 1.04411 0.51225 0.34878 0.0
C262 C 0.06873 0.531 0.38194 0.0
C263 C 1.02255 0.49047 0.40842 0.0
O264 O 1.03061 0.46414 0.46208 0.0
O265 O 0.99047 0.48019 0.46453 0.0
O266 O 1.0078 0.50324 0.4195 0.0
O267 O 1.04887 0.48787 0.4172 0.0
H268 H 0.96012 0.40154 0.44268 0.0
H269 H 0.89917 0.3384 0.44698 0.0
H270 H 0.89233 0.36566 0.50565 0.0
H271 H 0.9524 0.42828 0.50114 0.0
H272 H 0.17883 0.69145 0.47997 0.0
H273 H 0.11679 0.6289 0.47726 0.0
H274 H 0.23767 0.66849 0.43743 0.0
H275 H 0.17537 0.60507 0.43532 0.0
H276 H 0.10552 0.55986 0.35758 0.0
H277 H 0.98066 0.46347 0.34539 0.0
H278 H 0.96902 0.45348 0.37947 0.0
H279 H 0.09362 0.54948 0.39208 0.0
C280 C 0.57267 0.95502 0.7962 0.0
C281 C 0.5665 0.93151 0.78115 0.0
C282 C 0.57867 0.8991 0.8028 0.0
C283 C 0.5694 0.90383 0.78441 0.0
C284 C 0.58439 0.92259 0.81786 0.0
C285 C 0.58145 0.95025 0.81457 0.0
U286 U 0.56782 0.01395 0.76216 0.0
O287 O 0.53283 0.03551 0.76321 0.0
O288 O 0.6009 0.07288 0.76286 0.0
C289 C 0.5665 0.06941 0.76411 0.0
C290 C 0.57098 0.985 0.79283 0.0
C291 C 0.56693 0.09521 0.77732 0.0
C292 C 0.53181 0.10952 0.79929 0.0
C293 C 0.53369 0.08398 0.78942 0.0
C294 C 0.59701 0.15793 0.78575 0.0
C295 C 0.56302 0.14688 0.79727 0.0
C296 C 0.59884 0.13245 0.77588 0.0
C297 C 0.56537 0.99207 0.70816 0.0
C298 C 0.56346 0.02444 0.68244 0.0
C299 C 0.56356 0.97368 0.67507 0.0
C300 C 0.56479 0.96911 0.69457 0.0
C301 C 0.56292 1.00142 0.6687 0.0
C302 C 0.56471 0.01982 0.70201 0.0
C303 C 0.56668 0.98634 0.72857 0.0
O304 O 0.60403 0.01333 0.78502 0.0
O305 O 0.53614 0.97566 0.78526 0.0
O306 O 0.53305 0.97443 0.73818 0.0
O307 O 0.60101 0.01174 0.738 0.0
H308 H 0.55965 0.93469 0.76685 0.0
H309 H 0.5642 0.88603 0.77251 0.0
H310 H 0.59209 0.92018 0.83214 0.0
H311 H 0.5865 0.96819 0.82637 0.0
H312 H 0.50546 0.09995 0.80825 0.0
H313 H 0.50844 0.05552 0.79082 0.0
H314 H 0.62137 0.18633 0.7836 0.0
H315 H 0.62452 0.14195 0.76645 0.0
H316 H 0.5634 0.04629 0.67809 0.0
H317 H 0.56244 0.95505 0.66498 0.0
H318 H 0.56514 0.94745 0.69905 0.0
H319 H 0.56523 0.03787 0.71233 0.0
C320 C 0.55781 0.42429 0.14835 0.0
C321 C 0.56676 0.40265 0.13943 0.0
C322 C 0.60602 0.41002 0.16765 0.0
C323 C 0.5904 0.3953 0.14908 0.0
C324 C 0.59577 0.43083 0.17665 0.0
C325 C 0.57175 0.43776 0.16708 0.0
U326 U 0.52888 0.44709 0.10275 0.0
O327 O 0.4707 0.43801 0.09561 0.0
O328 O 0.52914 0.49324 0.09827 0.0
C329 C 0.48846 0.47271 0.09763 0.0
C330 C 0.53661 0.43536 0.13805 0.0
C331 C 0.47131 0.48211 0.11269 0.0
C332 C 0.46393 0.48885 0.14657 0.0
C333 C 0.47708 0.47776 0.13175 0.0
C334 C 0.43798 0.50795 0.12338 0.0
C335 C 0.44439 0.50424 0.14259 0.0
C336 C 0.4516 0.49713 0.10851 0.0
C337 C 0.56646 0.44476 0.05392 0.0
C338 C 0.53558 0.44456 0.02441 0.0
C339 C 0.60943 0.47477 0.02644 0.0
C340 C 0.6053 0.4645 0.04527 0.0
C341 C 0.57466 0.46515 0.01592 0.0
C342 C 0.53153 0.43468 0.04331 0.0
C343 C 0.56368 0.43779 0.07437 0.0
O344 O 0.56141 0.46717 0.13053 0.0
O345 O 0.50557 0.41065 0.12666 0.0
O346 O 0.52666 0.41154 0.08057 0.0
O347 O 0.58387 0.46705 0.08564 0.0
H348 H 0.55637 0.3922 0.12489 0.0
H349 H 0.59729 0.37885 0.14181 0.0
H350 H 0.6079 0.44326 0.19074 0.0
H351 H 0.56528 0.45475 0.17407 0.0
H352 H 0.46963 0.48581 0.16113 0.0
H353 H 0.49245 0.46629 0.13518 0.0
H354 H 0.42208 0.5189 0.1198 0.0
H355 H 0.44697 0.50065 0.09386 0.0
H356 H 0.50839 0.43715 0.01663 0.0
H357 H 0.63985 0.49045 0.02014 0.0
H358 H 0.63264 0.47275 0.05326 0.0
H359 H 0.50129 0.41993 0.04973 0.0
H360 H 0.32282 0.58064 0.19235 0.0
H361 H 0.24759 0.46441 0.19273 0.0
H362 H 0.38542 0.58512 0.19414 0.0
H363 H 0.30917 0.46834 0.19343 0.0
H364 H 0.40898 0.47017 0.17605 0.0
H365 H 0.37334 0.48223 0.19881 0.0
H366 H 0.40838 0.57386 0.16666 0.0
H367 H 0.44659 0.56353 0.14505 0.0
C368 C 0.31978 0.55616 0.19349 0.0
C369 C 0.28072 0.52215 0.19172 0.0
C370 C 0.35553 0.55863 0.19442 0.0
C371 C 0.35249 0.52709 0.19286 0.0
C372 C 0.31313 0.49336 0.19437 0.0
C373 C 0.27748 0.49096 0.19387 0.0
C374 C 0.41041 0.49373 0.17428 0.0
C375 C 0.42931 0.51516 0.15831 0.0
C376 C 0.38971 0.50051 0.1873 0.0
C377 C 0.38664 0.52825 0.18431 0.0
C378 C 0.40969 0.5521 0.16956 0.0
C379 C 0.43092 0.54569 0.15679 0.0
H380 H 0.71309 0.11379 0.49687 0.0
H381 H 0.6389 0.14898 0.48733 0.0
H382 H 0.77627 0.17595 0.49341 0.0
H383 H 0.70143 0.21039 0.4837 0.0
H384 H 0.82039 0.32321 0.49636 0.0
H385 H 0.76005 0.26136 0.50179 0.0
H386 H 0.81456 0.22141 0.4686 0.0
H387 H 0.87583 0.28362 0.46362 0.0
C388 C 0.7102 0.13473 0.49417 0.0
C389 C 0.6708 0.12625 0.49239 0.0
C390 C 0.74641 0.17031 0.49202 0.0
C391 C 0.74406 0.1983 0.48825 0.0
C392 C 0.70461 0.18977 0.48681 0.0
C393 C 0.66861 0.15434 0.4888 0.0
C394 C 0.81983 0.30133 0.49035 0.0
C395 C 0.8532 0.3086 0.47955 0.0
C396 C 0.78493 0.26574 0.49332 0.0
C397 C 0.78224 0.23623 0.48561 0.0
C398 C 0.81568 0.24341 0.47491 0.0
C399 C 0.85062 0.27912 0.47185 0.0
H400 H 0.55166 0.7057 0.83334 0.0
H401 H 0.67457 0.7777 0.8104 0.0
H402 H 0.54075 0.75055 0.82835 0.0
H403 H 0.6635 0.82217 0.80529 0.0
H404 H 0.61502 0.87766 0.77967 0.0
H405 H 0.62359 0.83166 0.78512 0.0
H406 H 0.56319 0.81028 0.83931 0.0
H407 H 0.55323 0.85551 0.83355 0.0
C408 C 0.57651 0.73114 0.82738 0.0
C409 C 0.61392 0.73778 0.82215 0.0
C410 C 0.57021 0.75691 0.8245 0.0
C411 C 0.6011 0.78998 0.81627 0.0
C412 C 0.63864 0.79676 0.81128 0.0
C413 C 0.64497 0.77112 0.8142 0.0
C414 C 0.60305 0.86289 0.79266 0.0
C415 C 0.58337 0.87044 0.80614 0.0
C416 C 0.60845 0.83675 0.7959 0.0
C417 C 0.59433 0.81728 0.81272 0.0
C418 C 0.57423 0.8245 0.82614 0.0
C419 C 0.56892 0.85077 0.82291 0.0
H420 H 0.82373 0.5038 0.22665 0.0
H421 H 0.8216 0.42422 0.19244 0.0
H422 H 0.74925 0.46933 0.22114 0.0
H423 H 0.74717 0.38969 0.18705 0.0
H424 H 0.66754 0.41216 0.15048 0.0
H425 H 0.72448 0.41819 0.16571 0.0
H426 H 0.67313 0.41045 0.22103 0.0
H427 H 0.61444 0.40271 0.20569 0.0
C428 C 0.80697 0.47815 0.21865 0.0
C429 C 0.8284 0.46701 0.20965 0.0
C430 C 0.76433 0.45829 0.2156 0.0
C431 C 0.74279 0.42725 0.20338 0.0
C432 C 0.76329 0.41374 0.19639 0.0
C433 C 0.80584 0.43343 0.19957 0.0
C434 C 0.66715 0.41011 0.16582 0.0
C435 C 0.63644 0.40718 0.17684 0.0
C436 C 0.69993 0.41358 0.17457 0.0
C437 C 0.70307 0.41466 0.19454 0.0
C438 C 0.6713 0.40969 0.20559 0.0
C439 C 0.63802 0.40561 0.1968 0.0
H440 H 0.46038 0.87979 0.49499 0.0
H441 H 0.40539 0.92096 0.46594 0.0
H442 H 0.39764 0.81812 0.48849 0.0
H443 H 0.34333 0.85949 0.45897 0.0
H444 H 0.22146 0.74749 0.46605 0.0
H445 H 0.28411 0.80853 0.4729 0.0
H446 H 0.35796 0.77215 0.46405 0.0
H447 H 0.29492 0.71046 0.45833 0.0
C448 C 0.43499 0.87575 0.48717 0.0
C449 C 0.43806 0.90552 0.48106 0.0
C450 C 0.39902 0.84026 0.48329 0.0
C451 C 0.3651 0.8335 0.47315 0.0
C452 C 0.36833 0.86339 0.46706 0.0
C453 C 0.40419 0.89881 0.47098 0.0
C454 C 0.25094 0.75227 0.46572 0.0
C455 C 0.25272 0.72362 0.46168 0.0
C456 C 0.28713 0.78759 0.46942 0.0
C457 C 0.32645 0.79562 0.46905 0.0
C458 C 0.32835 0.76712 0.46474 0.0
C459 C 0.29206 0.73167 0.46114 0.0
H460 H 0.50148 0.29305 0.81246 0.0
H461 H 0.58486 0.32431 0.86018 0.0
H462 H 0.50716 0.24591 0.8027 0.0
H463 H 0.58976 0.2764 0.85067 0.0
H464 H 0.62407 0.21388 0.81389 0.0
H465 H 0.61825 0.26028 0.82547 0.0
H466 H 0.48685 0.18803 0.81242 0.0
H467 H 0.49287 0.14216 0.80028 0.0
C468 C 0.52112 0.28994 0.82087 0.0
C469 C 0.5428 0.31266 0.83709 0.0
C470 C 0.524 0.26255 0.81539 0.0
C471 C 0.54879 0.25712 0.82592 0.0
C472 C 0.57058 0.27989 0.84214 0.0
C473 C 0.56748 0.30718 0.8477 0.0
C474 C 0.59392 0.20786 0.81347 0.0
C475 C 0.55899 0.17418 0.80603 0.0
C476 C 0.59051 0.23441 0.82029 0.0
C477 C 0.55212 0.2281 0.81978 0.0
C478 C 0.51704 0.19411 0.81279 0.0
C479 C 0.52041 0.16754 0.80605 0.0
H480 H 0.51311 0.79603 0.51435 0.0
H481 H 0.6461 0.85884 0.51038 0.0
H482 H 0.50768 0.74228 0.52028 0.0
H483 H 0.64048 0.80506 0.51557 0.0
H484 H 0.62164 0.714 0.54823 0.0
H485 H 0.62512 0.76627 0.54151 0.0
H486 H 0.51573 0.69886 0.50525 0.0
H487 H 0.51151 0.64612 0.51248 0.0
C488 C 0.54118 0.7984 0.51467 0.0
C489 C 0.58006 0.83191 0.51191 0.0
C490 C 0.538 0.76747 0.51787 0.0
C491 C 0.57366 0.7693 0.5185 0.0
C492 C 0.61241 0.80269 0.51545 0.0
C493 C 0.61557 0.83351 0.51222 0.0
C494 C 0.59805 0.71018 0.53897 0.0
C495 C 0.56621 0.67574 0.53097 0.0
C496 C 0.60034 0.7403 0.53492 0.0
C497 C 0.57081 0.7369 0.52276 0.0
C498 C 0.53882 0.70245 0.51478 0.0
C499 C 0.53664 0.67226 0.51878 0.0
H500 H 0.74754 0.59009 0.84408 0.0
H501 H 0.6655 0.48034 0.86178 0.0
H502 H 0.80686 0.58986 0.84808 0.0
H503 H 0.72432 0.48013 0.8663 0.0
H504 H 0.83276 0.47516 0.86268 0.0
H505 H 0.77501 0.47626 0.85764 0.0
H506 H 0.85761 0.59252 0.86414 0.0
H507 H 0.91598 0.59156 0.86819 0.0
C508 C 0.74179 0.56574 0.84887 0.0
C509 C 0.70051 0.53521 0.85245 0.0
C510 C 0.77646 0.56561 0.85136 0.0
C511 C 0.77211 0.53492 0.85762 0.0
C512 C 0.73061 0.50447 0.86118 0.0
C513 C 0.69609 0.50462 0.85866 0.0
C514 C 0.83946 0.50132 0.86285 0.0
C515 C 0.8809 0.53325 0.86593 0.0
C516 C 0.80528 0.50192 0.86017 0.0
C517 C 0.80983 0.5345 0.86042 0.0
C518 C 0.85124 0.56647 0.86351 0.0
C519 C 0.88551 0.56587 0.86616 0.0
H520 H 0.22397 0.63181 0.16772 0.0
H521 H 0.15072 0.65549 0.19841 0.0
H522 H 0.28639 0.69366 0.17482 0.0
H523 H 0.21268 0.71636 0.20598 0.0
H524 H 0.31989 0.83369 0.19759 0.0
H525 H 0.25982 0.77141 0.19136 0.0
H526 H 0.33538 0.73701 0.19897 0.0
H527 H 0.39651 0.80009 0.20406 0.0
C528 C 0.22115 0.65007 0.17605 0.0
C529 C 0.1821 0.63863 0.18227 0.0
C530 C 0.25704 0.68553 0.18026 0.0
C531 C 0.25479 0.71038 0.19087 0.0
C532 C 0.21577 0.69849 0.19741 0.0
C533 C 0.18005 0.6633 0.19313 0.0
C534 C 0.32403 0.81303 0.19778 0.0
C535 C 0.36347 0.82231 0.20118 0.0
C536 C 0.28922 0.77701 0.19446 0.0
C537 C 0.29241 0.74883 0.19467 0.0
C538 C 0.33167 0.75791 0.19844 0.0
C539 C 0.36672 0.79414 0.20166 0.0
H540 H 0.58188 0.21669 0.52577 0.0
H541 H 0.49175 0.19637 0.48412 0.0
H542 H 0.59227 0.27139 0.53715 0.0
H543 H 0.50238 0.25136 0.49547 0.0
H544 H 0.55906 0.37037 0.51147 0.0
H545 H 0.55138 0.31757 0.49798 0.0
H546 H 0.55377 0.28662 0.55487 0.0
H547 H 0.56156 0.33904 0.56821 0.0
C548 C 0.56409 0.22374 0.51908 0.0
C549 C 0.53561 0.20173 0.50414 0.0
C550 C 0.5701 0.25521 0.5256 0.0
C551 C 0.54786 0.26569 0.51738 0.0
C552 C 0.5203 0.24433 0.50205 0.0
C553 C 0.51422 0.21274 0.49553 0.0
C554 C 0.55774 0.35215 0.52106 0.0
C555 C 0.56138 0.35921 0.54092 0.0
C556 C 0.55333 0.32188 0.51334 0.0
C557 C 0.55237 0.29796 0.52532 0.0
C558 C 0.55541 0.30485 0.54517 0.0
C559 C 0.55985 0.33498 0.55284 0.0
H560 H 0.42828 0.47174 0.86358 0.0
H561 H 0.50522 0.58336 0.84891 0.0
H562 H 0.36914 0.47217 0.86713 0.0
H563 H 0.44689 0.58457 0.85309 0.0
H564 H 0.3309 0.57854 0.85087 0.0
H565 H 0.38823 0.57671 0.84671 0.0
H566 H 0.32558 0.48155 0.88 0.0
H567 H 0.26676 0.48201 0.88314 0.0
C568 C 0.43297 0.49666 0.86118 0.0
C569 C 0.47266 0.52745 0.85584 0.0
C570 C 0.39844 0.49708 0.86338 0.0
C571 C 0.40134 0.52843 0.86052 0.0
C572 C 0.44138 0.55928 0.85525 0.0
C573 C 0.47576 0.55874 0.85292 0.0
C574 C 0.32827 0.5566 0.85719 0.0
C575 C 0.29207 0.53029 0.86735 0.0
C576 C 0.36252 0.55588 0.85499 0.0
C577 C 0.36353 0.52901 0.86294 0.0
C578 C 0.32749 0.50281 0.87322 0.0
C579 C 0.29302 0.50337 0.87531 0.0
H580 H 0.98464 0.39122 0.1659 0.0
H581 H 0.9182 0.43233 0.18229 0.0
H582 H 0.92232 0.32969 0.1709 0.0
H583 H 0.85634 0.37108 0.18756 0.0
H584 H 0.74126 0.25407 0.17506 0.0
H585 H 0.80368 0.31527 0.17018 0.0
H586 H 0.87771 0.28976 0.19624 0.0
H587 H 0.81519 0.22796 0.20058 0.0
C588 C 0.95679 0.3872 0.17052 0.0
C589 C 0.95659 0.4169 0.17363 0.0
C590 C 0.9211 0.35188 0.17356 0.0
C591 C 0.88417 0.34527 0.17967 0.0
C592 C 0.88397 0.37498 0.18265 0.0
C593 C 0.91965 0.41025 0.17971 0.0
C594 C 0.77084 0.26136 0.17967 0.0
C595 C 0.77304 0.23585 0.18814 0.0
C596 C 0.80669 0.29668 0.17704 0.0
C597 C 0.84591 0.30761 0.18277 0.0
C598 C 0.84814 0.28224 0.19143 0.0
C599 C 0.81218 0.24688 0.19414 0.0
H600 H 0.06725 0.49387 0.11354 0.0
H601 H 0.08467 0.59378 0.10931 0.0
H602 H 0.07267 0.49062 0.07884 0.0
H603 H 0.08817 0.58996 0.07483 0.0
H604 H 0.12655 0.59318 0.01446 0.0
H605 H 0.12643 0.59596 0.04896 0.0
H606 H 1.04049 0.47936 0.04908 0.0
H607 H 1.04331 0.47646 0.01448 0.0
C608 C 0.07215 0.51511 0.10519 0.0
C609 C 0.0756 0.54412 0.11427 0.0
C610 C 0.07493 0.51315 0.0852 0.0
C611 C 0.08093 0.54002 0.07368 0.0
C612 C 0.08446 0.56903 0.08295 0.0
C613 C 0.08213 0.57114 0.10286 0.0
C614 C 0.10819 0.56794 0.0217 0.0
C615 C 0.08498 0.53456 0.01126 0.0
C616 C 0.10751 0.56958 0.04172 0.0
C617 C 0.08307 0.53792 0.05218 0.0
C618 C 0.06008 0.50448 0.04179 0.0
C619 C 0.06117 0.50282 0.02173 0.0
H620 H 0.63474 0.04129 0.43095 0.0
H621 H 0.50488 0.99282 0.43543 0.0
H622 H 0.62919 0.0402 0.39638 0.0
H623 H 0.49922 0.99157 0.4005 0.0
H624 H 0.52662 0.03564 0.33793 0.0
H625 H 0.52508 0.03335 0.37275 0.0
H626 H 0.59508 0.99247 0.37053 0.0
H627 H 0.59601 0.99404 0.33589 0.0
C628 C 0.60496 0.03042 0.42453 0.0
C629 C 0.57016 0.01685 0.4359 0.0
C630 C 0.60172 0.0296 0.40469 0.0
C631 C 0.56363 0.01531 0.39566 0.0
C632 C 0.52899 1.00275 0.40704 0.0
C633 C 0.5322 1.00339 0.427 0.0
C634 C 0.54094 0.02545 0.34483 0.0
C635 C 0.56194 0.01549 0.33405 0.0
C636 C 0.54016 0.02427 0.36481 0.0
C637 C 0.56056 0.01332 0.37442 0.0
C638 C 0.57989 1.00185 0.36359 0.0
C639 C 0.58044 1.00279 0.3437 0.0
H640 H 0.50503 0.48123 0.78703 0.0
H641 H 0.63837 0.5559 0.79351 0.0
H642 H 0.51058 0.49293 0.75321 0.0
H643 H 0.64402 0.56786 0.75934 0.0
H644 H 0.63197 0.54413 0.6929 0.0
H645 H 0.63047 0.53554 0.72723 0.0
H646 H 0.53057 0.54279 0.73297 0.0
H647 H 0.53139 0.5505 0.6988 0.0
C648 C 0.53561 0.50027 0.78121 0.0
C649 C 0.57127 0.51765 0.79293 0.0
C650 C 0.53877 0.50713 0.76182 0.0
C651 C 0.57772 0.53145 0.75357 0.0
C652 C 0.61357 0.5488 0.76526 0.0
C653 C 0.61036 0.54212 0.78481 0.0
C654 C 0.60961 0.54374 0.7015 0.0
C655 C 0.58176 0.54795 0.69307 0.0
C656 C 0.60906 0.53921 0.72119 0.0
C657 C 0.58034 0.5384 0.73284 0.0
C658 C 0.55282 0.54294 0.7244 0.0
C659 C 0.55355 0.54769 0.70481 0.0
H660 H 0.60692 0.04095 0.5462 0.0
H661 H 0.47658 0.98832 0.55337 0.0
H662 H 0.61498 0.03894 0.58056 0.0
H663 H 0.48422 0.98548 0.58752 0.0
H664 H 0.51808 0.01815 0.65019 0.0
H665 H 0.51344 0.02333 0.61604 0.0
H666 H 0.59752 0.99812 0.60556 0.0
H667 H 0.60358 0.99452 0.63977 0.0
C668 C 0.57998 0.02879 0.55512 0.0
C669 C 0.54117 0.01496 0.54711 0.0
C670 C 0.5845 0.02746 0.5748 0.0
C671 C 0.5503 0.01223 0.58692 0.0
C672 C 0.51143 0.99805 0.57876 0.0
C673 C 0.50696 0.99942 0.55913 0.0
C674 C 0.53608 0.01423 0.64065 0.0
C675 C 0.5611 1.00579 0.64782 0.0
C676 C 0.533 0.01674 0.621 0.0
C677 C 0.55486 0.01088 0.60794 0.0
C678 C 0.58046 1.00307 0.61513 0.0
C679 C 0.58354 1.00057 0.63479 0.0
H680 H 0.66678 0.57335 0.90867 0.0
H681 H 0.5336 0.50166 0.90097 0.0
H682 H 0.65946 0.55199 0.94072 0.0
H683 H 0.52597 0.48129 0.93332 0.0
H684 H 0.52859 0.42518 0.98417 0.0
H685 H 0.53618 0.44603 0.95191 0.0
H686 H 0.63782 0.5547 0.97172 0.0
H687 H 0.63096 0.53339 1.00375 0.0
C688 C 0.63592 0.5533 0.91396 0.0
C689 C 0.60075 0.53916 0.90244 0.0
C690 C 0.63167 0.54118 0.93234 0.0
C691 C 0.59211 0.51495 0.93964 0.0
C692 C 0.55691 0.50106 0.92806 0.0
C693 C 0.56122 0.51291 0.9096 0.0
C694 C 0.55251 0.45349 0.98154 0.0
C695 C 0.57935 0.47766 0.99635 0.0
C696 C 0.55676 0.46551 0.96312 0.0
C697 C 0.58762 0.50207 0.9592 0.0
C698 C 0.61425 0.52624 0.97413 0.0
C699 C 0.6103 0.51411 0.99248 0.0
H700 H 0.05197 0.5472 0.22594 0.0
H701 H 0.1086 0.49524 0.23326 0.0
H702 H 1.0433 0.54784 0.26071 0.0
H703 H 0.09973 0.49562 0.2676 0.0
H704 H 1.02723 0.4597 0.32316 0.0
H705 H 1.03744 0.46335 0.2888 0.0
H706 H 0.08826 0.5757 0.2924 0.0
H707 H 0.07802 0.57202 0.32712 0.0
C708 C 0.06262 0.53604 0.23495 0.0
C709 C 0.0808 0.52104 0.22688 0.0
C710 C 0.05787 0.53656 0.25483 0.0
C711 C 0.07067 0.52161 0.26689 0.0
C712 C 0.08915 0.50699 0.25871 0.0
C713 C 0.09432 0.50687 0.23901 0.0
C714 C 1.04048 0.4852 0.31665 0.0
C715 C 0.05175 0.51556 0.32786 0.0
C716 C 1.04654 0.48734 0.29696 0.0
C717 C 0.06366 0.51981 0.28786 0.0
C718 C 0.07474 0.55024 0.299 0.0
C719 C 0.06923 0.54823 0.31886 0.0
loop_
_geom_bond_atom_site_label_1
_geom_bond_atom_site_label_2
_geom_bond_distance
_geom_bond_site_symmetry_2
_ccdc_geom_bond_type
Sm0 C2 2.846 . S
Sm0 O20 2.543 . S
Sm0 O21 2.450 . S
Sm0 O22 2.681 . S
Sm0 O23 2.464 . S
Sm0 O24 2.396 . S
Sm0 O28 2.386 . S
Sm0 O31 2.408 1_455 S
Sm1 C11 2.846 . S
Sm1 O22 2.386 1_655 S
Sm1 O25 2.408 1_655 S
Sm1 O26 2.543 . S
Sm1 O27 2.450 . S
Sm1 O28 2.681 1_655 S
Sm1 O29 2.464 . S
Sm1 O30 2.396 . S
C2 Sm0 2.846 . S
C2 C3 1.506 . S
C2 O20 1.261 . S
C2 O21 1.242 . S
C3 C2 1.506 . S
C3 C4 1.358 . S
C3 C8 1.382 . S
C4 C3 1.358 . S
C4 C5 1.385 . S
C4 H32 0.930 . S
C5 C4 1.385 . S
C5 C6 1.395 . S
C5 H33 0.929 . S
C6 C5 1.395 . S
C6 C7 1.335 . S
C7 C6 1.335 . S
C7 C8 1.398 . S
C7 H34 0.930 . S
C8 C3 1.382 . S
C8 C7 1.398 . S
C8 H35 0.929 . S
C9 O22 1.271 . S
C9 O23 1.251 . S
C10 O24 1.252 . S
C10 O25 1.272 . S
C11 Sm1 2.846 . S
C11 C12 1.506 . S
C11 O26 1.261 . S
C11 O27 1.242 . S
C12 C11 1.506 . S
C12 C13 1.358 . S
C12 C17 1.382 . S
C13 C12 1.358 . S
C13 C14 1.385 . S
C13 H36 0.930 . S
C14 C13 1.385 . S
C14 C15 1.395 . S
C14 H37 0.929 . S
C15 C14 1.395 . S
C15 C16 1.335 . S
C16 C15 1.335 . S
C16 C17 1.398 . S
C16 H38 0.930 . S
C17 C12 1.382 . S
C17 C16 1.398 . S
C17 H39 0.929 . S
C18 O28 1.271 . S
C18 O29 1.251 1_455 S
C19 O30 1.252 . S
C19 O31 1.272 . S
O20 Sm0 2.543 . S
O20 C2 1.261 . S
O21 Sm0 2.450 . S
O21 C2 1.242 . S
O22 Sm0 2.681 . S
O22 Sm1 2.386 1_455 S
O22 C9 1.271 . S
O23 Sm0 2.464 . S
O23 C9 1.251 . S
O24 Sm0 2.396 . S
O24 C10 1.252 . S
O25 Sm1 2.408 1_455 S
O25 C10 1.272 . S
O26 Sm1 2.543 . S
O26 C11 1.261 . S
O27 Sm1 2.450 . S
O27 C11 1.242 . S
O28 Sm0 2.386 . S
O28 Sm1 2.681 1_455 S
O28 C18 1.271 . S
O29 Sm1 2.464 . S
O29 C18 1.251 1_655 S
O30 Sm1 2.396 . S
O30 C19 1.252 . S
O31 Sm0 2.408 1_655 S
O31 C19 1.272 . S
H32 C4 0.930 . S
H33 C5 0.929 . S
H34 C7 0.930 . S
H35 C8 0.929 . S
H36 C13 0.930 . S
H37 C14 0.929 . S
H38 C16 0.930 . S
H39 C17 0.929 . S
Sm40 C42 2.846 . S
Sm40 O60 2.543 . S
Sm40 O61 2.450 . S
Sm40 O62 2.681 1_565 S
Sm40 O63 2.464 . S
Sm40 O64 2.396 . S
Sm40 O68 2.397 . S
Sm40 O71 2.408 1_565 S
Sm41 C51 2.846 . S
Sm41 O62 2.386 . S
Sm41 O65 2.408 1_545 S
Sm41 O66 2.543 . S
Sm41 O67 2.450 . S
Sm41 O68 2.665 1_545 S
Sm41 O69 2.464 . S
Sm41 O70 2.396 . S
C42 Sm40 2.846 . S
C42 C43 1.506 . S
C42 O60 1.261 . S
C42 O61 1.242 . S
C43 C42 1.506 . S
C43 C44 1.358 . S
C43 C48 1.382 . S
C44 C43 1.358 . S
C44 C45 1.385 . S
C44 H72 0.930 . S
C45 C44 1.385 . S
C45 C46 1.395 . S
C45 H73 0.929 . S
C46 C45 1.395 . S
C46 C47 1.335 . S
C47 C46 1.335 . S
C47 C48 1.398 . S
C47 H74 0.930 . S
C48 C43 1.382 . S
C48 C47 1.398 . S
C48 H75 0.929 . S
C49 O62 1.271 . S
C49 O63 1.251 1_545 S
C50 O64 1.252 . S
C50 O65 1.272 . S
C51 Sm41 2.846 . S
C51 C52 1.506 . S
C51 O66 1.261 . S
C51 O67 1.242 . S
C52 C51 1.506 . S
C52 C53 1.358 . S
C52 C57 1.382 . S
C53 C52 1.358 . S
C53 C54 1.385 . S
C53 H76 0.930 . S
C54 C53 1.385 . S
C54 C55 1.395 . S
C54 H77 0.929 . S
C55 C54 1.395 . S
C55 C56 1.335 . S
C56 C55 1.335 . S
C56 C57 1.398 . S
C56 H78 0.930 . S
C57 C52 1.382 . S
C57 C56 1.398 . S
C57 H79 0.929 . S
C58 O68 1.262 1_545 S
C58 O69 1.251 . S
C59 O70 1.252 . S
C59 O71 1.272 . S
O60 Sm40 2.543 . S
O60 C42 1.261 . S
O61 Sm40 2.450 . S
O61 C42 1.242 . S
O62 Sm40 2.681 1_545 S
O62 Sm41 2.386 . S
O62 C49 1.271 . S
O63 Sm40 2.464 . S
O63 C49 1.251 1_565 S
O64 Sm40 2.396 . S
O64 C50 1.252 . S
O65 Sm41 2.408 1_565 S
O65 C50 1.272 . S
O66 Sm41 2.543 . S
O66 C51 1.261 . S
O67 Sm41 2.450 . S
O67 C51 1.242 . S
O68 Sm40 2.397 . S
O68 Sm41 2.665 1_565 S
O68 C58 1.262 1_565 S
O69 Sm41 2.464 . S
O69 C58 1.251 . S
O70 Sm41 2.396 . S
O70 C59 1.252 . S
O71 Sm40 2.408 1_545 S
O71 C59 1.272 . S
H72 C44 0.930 . S
H73 C45 0.929 . S
H74 C47 0.930 . S
H75 C48 0.929 . S
H76 C53 0.930 . S
H77 C54 0.929 . S
H78 C56 0.930 . S
H79 C57 0.929 . S
Sm80 C82 2.846 . S
Sm80 O100 2.543 . S
Sm80 O101 2.450 . S
Sm80 O102 2.681 . S
Sm80 O103 2.464 . S
Sm80 O104 2.396 . S
Sm80 O108 2.386 . S
Sm80 O111 2.408 . S
Sm81 C91 2.846 . S
Sm81 O102 2.386 . S
Sm81 O105 2.408 . S
Sm81 O106 2.543 . S
Sm81 O107 2.450 . S
Sm81 O108 2.681 . S
Sm81 O109 2.464 . S
Sm81 O110 2.396 . S
C82 Sm80 2.846 . S
C82 C83 1.506 . S
C82 O100 1.261 . S
C82 O101 1.242 . S
C83 C82 1.506 . S
C83 C84 1.358 . S
C83 C88 1.382 . S
C84 C83 1.358 . S
C84 C85 1.385 . S
C84 H112 0.930 . S
C85 C84 1.385 . S
C85 C86 1.395 . S
C85 H113 0.929 . S
C86 C85 1.395 . S
C86 C87 1.335 . S
C87 C86 1.335 . S
C87 C88 1.398 . S
C87 H114 0.930 . S
C88 C83 1.382 . S
C88 C87 1.398 . S
C88 H115 0.929 . S
C89 O102 1.271 . S
C89 O103 1.251 . S
C90 O104 1.252 . S
C90 O105 1.272 . S
C91 Sm81 2.846 . S
C91 C92 1.506 . S
C91 O106 1.261 . S
C91 O107 1.242 . S
C92 C91 1.506 . S
C92 C93 1.358 . S
C92 C97 1.382 . S
C93 C92 1.358 . S
C93 C94 1.385 . S
C93 H116 0.930 . S
C94 C93 1.385 . S
C94 C95 1.395 . S
C94 H117 0.929 . S
C95 C94 1.395 . S
C95 C96 1.335 . S
C96 C95 1.335 . S
C96 C97 1.398 . S
C96 H118 0.930 . S
C97 C92 1.382 . S
C97 C96 1.398 . S
C97 H119 0.929 . S
C98 O108 1.271 . S
C98 O109 1.251 . S
C99 O110 1.252 . S
C99 O111 1.272 . S
O100 Sm80 2.543 . S
O100 C82 1.261 . S
O101 Sm80 2.450 . S
O101 C82 1.242 . S
O102 Sm80 2.681 . S
O102 Sm81 2.386 . S
O102 C89 1.271 . S
O103 Sm80 2.464 . S
O103 C89 1.251 . S
O104 Sm80 2.396 . S
O104 C90 1.252 . S
O105 Sm81 2.408 . S
O105 C90 1.272 . S
O106 Sm81 2.543 . S
O106 C91 1.261 . S
O107 Sm81 2.450 . S
O107 C91 1.242 . S
O108 Sm80 2.386 . S
O108 Sm81 2.681 . S
O108 C98 1.271 . S
O109 Sm81 2.464 . S
O109 C98 1.251 . S
O110 Sm81 2.396 . S
O110 C99 1.252 . S
O111 Sm80 2.408 . S
O111 C99 1.272 . S
H112 C84 0.930 . S
H113 C85 0.929 . S
H114 C87 0.930 . S
H115 C88 0.929 . S
H116 C93 0.930 . S
H117 C94 0.929 . S
H118 C96 0.930 . S
H119 C97 0.929 . S
C120 C121 1.264 . S
C120 C125 1.479 . S
C120 C130 1.465 . S
C121 C120 1.264 . S
C121 C123 1.339 . S
C121 H148 0.931 . S
C122 C123 1.395 . S
C122 C124 1.320 . S
C123 C121 1.339 . S
C123 C122 1.395 . S
C123 H149 0.929 . S
C124 C122 1.320 . S
C124 C125 1.405 . S
C124 H150 0.930 . S
C125 C120 1.479 . S
C125 C124 1.405 . S
C125 H151 0.931 . S
U126 O127 2.454 1_545 S
U126 O128 2.458 1_545 S
U126 C129 2.984 1_545 S
U126 C130 2.847 . S
U126 C143 2.882 . S
U126 O144 2.441 . S
U126 O145 2.420 . S
U126 O146 2.455 1_545 S
U126 O147 2.449 . S
O127 U126 2.454 1_565 S
O127 C129 1.353 . S
O128 U126 2.458 1_565 S
O128 C129 1.286 . S
C129 U126 2.984 1_565 S
C129 O127 1.353 . S
C129 O128 1.286 . S
C129 C131 1.363 . S
C130 C120 1.465 . S
C130 U126 2.847 . S
C130 O144 1.249 . S
C130 O145 1.202 . S
C131 C129 1.363 . S
C131 C133 1.408 . S
C131 C136 1.342 . S
C132 C133 1.310 . S
C132 C135 1.461 . S
C132 H152 0.932 . S
C133 C131 1.408 . S
C133 C132 1.310 . S
C133 H153 0.930 . S
C134 C135 1.474 . S
C134 C136 1.285 . S
C134 H154 0.929 . S
C135 C132 1.461 . S
C135 C134 1.474 . S
C136 C131 1.342 . S
C136 C134 1.285 . S
C136 H155 0.930 . S
C137 C140 1.424 . S
C137 C142 1.245 1_545 S
C137 C143 1.428 . S
C138 C141 1.260 1_565 S
C138 C142 1.477 . S
C138 H156 0.932 . S
C139 C140 1.384 . S
C139 C141 1.479 . S
C139 H157 0.929 . S
C140 C137 1.424 . S
C140 C139 1.384 . S
C140 H158 0.928 . S
C141 C138 1.260 1_545 S
C141 C139 1.479 . S
C142 C137 1.245 1_565 S
C142 C138 1.477 . S
C142 H159 0.932 . S
C143 U126 2.882 . S
C143 C137 1.428 . S
C143 O146 1.301 1_545 S
C143 O147 1.282 . S
O144 U126 2.441 . S
O144 C130 1.249 . S
O145 U126 2.420 . S
O145 C130 1.202 . S
O146 U126 2.455 1_565 S
O146 C143 1.301 1_565 S
O147 U126 2.449 . S
O147 C143 1.282 . S
H148 C121 0.931 . S
H149 C123 0.929 . S
H150 C124 0.930 . S
H151 C125 0.931 . S
H152 C132 0.932 . S
H153 C133 0.930 . S
H154 C134 0.929 . S
H155 C136 0.930 . S
H156 C138 0.932 . S
H157 C139 0.929 . S
H158 C140 0.928 . S
H159 C142 0.932 . S
C160 C161 1.264 . S
C160 C165 1.479 . S
C160 C170 1.465 . S
C161 C160 1.264 . S
C161 C163 1.339 . S
C161 H188 0.931 . S
C162 C163 1.395 . S
C162 C164 1.320 . S
C163 C161 1.339 . S
C163 C162 1.395 . S
C163 H189 0.929 . S
C164 C162 1.320 . S
C164 C165 1.405 . S
C164 H190 0.930 . S
C165 C160 1.479 . S
C165 C164 1.405 . S
C165 H191 0.931 . S
U166 O167 2.454 . S
U166 O168 2.458 . S
U166 C169 2.984 . S
U166 C170 2.847 . S
U166 C183 2.882 . S
U166 O184 2.441 . S
U166 O185 2.420 . S
U166 O186 2.455 . S
U166 O187 2.449 . S
O167 U166 2.454 . S
O167 C169 1.353 . S
O168 U166 2.458 . S
O168 C169 1.286 . S
C169 U166 2.984 . S
C169 O167 1.353 . S
C169 O168 1.286 . S
C169 C171 1.363 . S
C170 C160 1.465 . S
C170 U166 2.847 . S
C170 O184 1.249 . S
C170 O185 1.202 . S
C171 C169 1.363 . S
C171 C173 1.408 . S
C171 C176 1.342 . S
C172 C173 1.310 . S
C172 C175 1.461 . S
C172 H192 0.932 . S
C173 C171 1.408 . S
C173 C172 1.310 . S
C173 H193 0.930 . S
C174 C175 1.474 . S
C174 C176 1.285 . S
C174 H194 0.929 . S
C175 C172 1.461 . S
C175 C174 1.474 . S
C176 C171 1.342 . S
C176 C174 1.285 . S
C176 H195 0.930 . S
C177 C180 1.424 . S
C177 C182 1.245 . S
C177 C183 1.428 . S
C178 C181 1.260 . S
C178 C182 1.477 . S
C178 H196 0.932 . S
C179 C180 1.384 . S
C179 C181 1.479 . S
C179 H197 0.929 . S
C180 C177 1.424 . S
C180 C179 1.384 . S
C180 H198 0.928 . S
C181 C178 1.260 . S
C181 C179 1.479 . S
C182 C177 1.245 . S
C182 C178 1.477 . S
C182 H199 0.932 . S
C183 U166 2.882 . S
C183 C177 1.428 . S
C183 O186 1.301 . S
C183 O187 1.282 . S
O184 U166 2.441 . S
O184 C170 1.249 . S
O185 U166 2.420 . S
O185 C170 1.202 . S
O186 U166 2.455 . S
O186 C183 1.301 . S
O187 U166 2.449 . S
O187 C183 1.282 . S
H188 C161 0.931 . S
H189 C163 0.929 . S
H190 C164 0.930 . S
H191 C165 0.931 . S
H192 C172 0.932 . S
H193 C173 0.930 . S
H194 C174 0.929 . S
H195 C176 0.930 . S
H196 C178 0.932 . S
H197 C179 0.929 . S
H198 C180 0.928 . S
H199 C182 0.932 . S
C200 C201 1.264 . S
C200 C205 1.479 . S
C200 C210 1.465 . S
C201 C200 1.264 . S
C201 C203 1.339 . S
C201 H228 0.931 . S
C202 C203 1.395 . S
C202 C204 1.320 . S
C203 C201 1.339 . S
C203 C202 1.395 . S
C203 H229 0.929 . S
C204 C202 1.320 . S
C204 C205 1.405 . S
C204 H230 0.930 . S
C205 C200 1.479 . S
C205 C204 1.405 . S
C205 H231 0.931 . S
U206 O207 2.454 . S
U206 O208 2.458 . S
U206 C209 2.984 . S
U206 C210 2.847 1_455 S
U206 C223 2.882 . S
U206 O224 2.462 . S
U206 O225 2.420 1_455 S
U206 O226 2.455 . S
U206 O227 2.449 1_455 S
O207 U206 2.454 . S
O207 C209 1.353 . S
O208 U206 2.458 . S
O208 C209 1.286 . S
C209 U206 2.984 . S
C209 O207 1.353 . S
C209 O208 1.286 . S
C209 C211 1.363 . S
C210 C200 1.465 . S
C210 U206 2.847 1_655 S
C210 O224 1.216 1_655 S
C210 O225 1.202 . S
C211 C209 1.363 . S
C211 C213 1.408 . S
C211 C216 1.342 . S
C212 C213 1.310 . S
C212 C215 1.461 . S
C212 H232 0.932 . S
C213 C211 1.408 . S
C213 C212 1.310 . S
C213 H233 0.930 . S
C214 C215 1.474 . S
C214 C216 1.285 . S
C214 H234 0.929 . S
C215 C212 1.461 . S
C215 C214 1.474 . S
C216 C211 1.342 . S
C216 C214 1.285 . S
C216 H235 0.930 . S
C217 C220 1.424 . S
C217 C222 1.245 . S
C217 C223 1.428 . S
C218 C221 1.260 . S
C218 C222 1.477 . S
C218 H236 0.932 . S
C219 C220 1.383 1_655 S
C219 C221 1.473 1_655 S
C219 H237 0.935 . S
C220 C217 1.424 . S
C220 C219 1.383 1_455 S
C220 H238 0.928 1_455 S
C221 C218 1.260 . S
C221 C219 1.473 1_455 S
C222 C217 1.245 . S
C222 C218 1.477 . S
C222 H239 0.932 . S
C223 U206 2.882 . S
C223 C217 1.428 . S
C223 O226 1.301 . S
C223 O227 1.282 1_455 S
O224 U206 2.462 . S
O224 C210 1.216 1_455 S
O225 U206 2.420 1_655 S
O225 C210 1.202 . S
O226 U206 2.455 . S
O226 C223 1.301 . S
O227 U206 2.449 1_655 S
O227 C223 1.282 1_655 S
H228 C201 0.931 . S
H229 C203 0.929 . S
H230 C204 0.930 . S
H231 C205 0.931 . S
H232 C212 0.932 . S
H233 C213 0.930 . S
H234 C214 0.929 . S
H235 C216 0.930 . S
H236 C218 0.932 . S
H237 C219 0.935 . S
H238 C220 0.928 1_655 S
H239 C222 0.932 . S
C240 C241 1.264 . S
C240 C245 1.479 . S
C240 C250 1.465 . S
C241 C240 1.264 . S
C241 C243 1.339 . S
C241 H268 0.931 . S
C242 C243 1.395 . S
C242 C244 1.320 . S
C243 C241 1.339 . S
C243 C242 1.395 . S
C243 H269 0.929 . S
C244 C242 1.320 . S
C244 C245 1.405 . S
C244 H270 0.930 . S
C245 C240 1.479 . S
C245 C244 1.405 . S
C245 H271 0.931 . S
U246 O247 2.454 1_655 S
U246 O248 2.458 1_655 S
U246 C249 2.984 1_655 S
U246 C250 2.847 . S
U246 C263 2.882 . S
U246 O264 2.441 . S
U246 O265 2.420 . S
U246 O266 2.455 1_655 S
U246 O267 2.449 . S
O247 U246 2.454 1_455 S
O247 C249 1.353 . S
O248 U246 2.458 1_455 S
O248 C249 1.286 . S
C249 U246 2.984 1_455 S
C249 O247 1.353 . S
C249 O248 1.286 . S
C249 C251 1.363 . S
C250 C240 1.465 . S
C250 U246 2.847 . S
C250 O264 1.249 . S
C250 O265 1.202 . S
C251 C249 1.363 . S
C251 C253 1.408 . S
C251 C256 1.342 . S
C252 C253 1.310 . S
C252 C255 1.461 . S
C252 H272 0.932 . S
C253 C251 1.408 . S
C253 C252 1.310 . S
C253 H273 0.930 . S
C254 C255 1.474 . S
C254 C256 1.285 . S
C254 H274 0.929 . S
C255 C252 1.461 . S
C255 C254 1.474 . S
C256 C251 1.342 . S
C256 C254 1.285 . S
C256 H275 0.930 . S
C257 C260 1.424 . S
C257 C262 1.245 1_655 S
C257 C263 1.428 . S
C258 C261 1.260 1_455 S
C258 C262 1.477 . S
C258 H276 0.932 . S
C259 C260 1.384 . S
C259 C261 1.479 . S
C259 H277 0.929 . S
C260 C257 1.424 . S
C260 C259 1.384 . S
C260 H278 0.928 . S
C261 C258 1.260 1_655 S
C261 C259 1.479 . S
C262 C257 1.245 1_455 S
C262 C258 1.477 . S
C262 H279 0.932 . S
C263 U246 2.882 . S
C263 C257 1.428 . S
C263 O266 1.301 1_655 S
C263 O267 1.282 . S
O264 U246 2.441 . S
O264 C250 1.249 . S
O265 U246 2.420 . S
O265 C250 1.202 . S
O266 U246 2.455 1_455 S
O266 C263 1.301 1_455 S
O267 U246 2.449 . S
O267 C263 1.282 . S
H268 C241 0.931 . S
H269 C243 0.929 . S
H270 C244 0.930 . S
H271 C245 0.931 . S
H272 C252 0.932 . S
H273 C253 0.930 . S
H274 C254 0.929 . S
H275 C256 0.930 . S
H276 C258 0.932 . S
H277 C259 0.929 . S
H278 C260 0.928 . S
H279 C262 0.932 . S
C280 C281 1.264 . S
C280 C285 1.479 . S
C280 C290 1.465 . S
C281 C280 1.264 . S
C281 C283 1.339 . S
C281 H308 0.931 . S
C282 C283 1.395 . S
C282 C284 1.320 . S
C283 C281 1.339 . S
C283 C282 1.395 . S
C283 H309 0.929 . S
C284 C282 1.320 . S
C284 C285 1.405 . S
C284 H310 0.930 . S
C285 C280 1.479 . S
C285 C284 1.405 . S
C285 H311 0.931 . S
U286 O287 2.454 1_565 S
U286 O288 2.458 1_565 S
U286 C289 2.984 1_565 S
U286 C290 2.847 . S
U286 C303 2.882 . S
U286 O304 2.441 . S
U286 O305 2.420 . S
U286 O306 2.455 1_565 S
U286 O307 2.449 . S
O287 U286 2.454 1_545 S
O287 C289 1.353 . S
O288 U286 2.458 1_545 S
O288 C289 1.286 . S
C289 U286 2.984 1_545 S
C289 O287 1.353 . S
C289 O288 1.286 . S
C289 C291 1.363 . S
C290 C280 1.465 . S
C290 U286 2.847 . S
C290 O304 1.249 . S
C290 O305 1.202 . S
C291 C289 1.363 . S
C291 C293 1.408 . S
C291 C296 1.342 . S
C292 C293 1.310 . S
C292 C295 1.461 . S
C292 H312 0.932 . S
C293 C291 1.408 . S
C293 C292 1.310 . S
C293 H313 0.930 . S
C294 C295 1.474 . S
C294 C296 1.285 . S
C294 H314 0.929 . S
C295 C292 1.461 . S
C295 C294 1.474 . S
C296 C291 1.342 . S
C296 C294 1.285 . S
C296 H315 0.930 . S
C297 C300 1.424 . S
C297 C302 1.245 1_565 S
C297 C303 1.428 . S
C298 C301 1.260 1_545 S
C298 C302 1.477 . S
C298 H316 0.932 . S
C299 C300 1.384 . S
C299 C301 1.479 . S
C299 H317 0.929 . S
C300 C297 1.424 . S
C300 C299 1.384 . S
C300 H318 0.928 . S
C301 C298 1.260 1_565 S
C301 C299 1.479 . S
C302 C297 1.245 1_545 S
C302 C298 1.477 . S
C302 H319 0.932 . S
C303 U286 2.882 . S
C303 C297 1.428 . S
C303 O306 1.301 1_565 S
C303 O307 1.282 . S
O304 U286 2.441 . S
O304 C290 1.249 . S
O305 U286 2.420 . S
O305 C290 1.202 . S
O306 U286 2.455 1_545 S
O306 C303 1.301 1_545 S
O307 U286 2.449 . S
O307 C303 1.282 . S
H308 C281 0.931 . S
H309 C283 0.929 . S
H310 C284 0.930 . S
H311 C285 0.931 . S
H312 C292 0.932 . S
H313 C293 0.930 . S
H314 C294 0.929 . S
H315 C296 0.930 . S
H316 C298 0.932 . S
H317 C299 0.929 . S
H318 C300 0.928 . S
H319 C302 0.932 . S
C320 C321 1.264 . S
C320 C325 1.479 . S
C320 C330 1.465 . S
C321 C320 1.264 . S
C321 C323 1.339 . S
C321 H348 0.931 . S
C322 C323 1.395 . S
C322 C324 1.320 . S
C323 C321 1.339 . S
C323 C322 1.395 . S
C323 H349 0.929 . S
C324 C322 1.320 . S
C324 C325 1.405 . S
C324 H350 0.930 . S
C325 C320 1.479 . S
C325 C324 1.405 . S
C325 H351 0.931 . S
U326 O327 2.454 . S
U326 O328 2.458 . S
U326 C329 2.984 . S
U326 C330 2.847 . S
U326 C343 2.882 . S
U326 O344 2.441 . S
U326 O345 2.420 . S
U326 O346 2.455 . S
U326 O347 2.449 . S
O327 U326 2.454 . S
O327 C329 1.353 . S
O328 U326 2.458 . S
O328 C329 1.286 . S
C329 U326 2.984 . S
C329 O327 1.353 . S
C329 O328 1.286 . S
C329 C331 1.363 . S
C330 C320 1.465 . S
C330 U326 2.847 . S
C330 O344 1.249 . S
C330 O345 1.202 . S
C331 C329 1.363 . S
C331 C333 1.408 . S
C331 C336 1.342 . S
C332 C333 1.310 . S
C332 C335 1.461 . S
C332 H352 0.932 . S
C333 C331 1.408 . S
C333 C332 1.310 . S
C333 H353 0.930 . S
C334 C335 1.474 . S
C334 C336 1.285 . S
C334 H354 0.929 . S
C335 C332 1.461 . S
C335 C334 1.474 . S
C336 C331 1.342 . S
C336 C334 1.285 . S
C336 H355 0.930 . S
C337 C340 1.424 . S
C337 C342 1.245 . S
C337 C343 1.428 . S
C338 C341 1.238 1_554 S
C338 C342 1.477 . S
C338 H356 0.932 . S
C339 C340 1.384 . S
C339 C341 1.456 1_554 S
C339 H357 0.929 . S
C340 C337 1.424 . S
C340 C339 1.384 . S
C340 H358 0.928 . S
C341 C338 1.238 1_556 S
C341 C339 1.456 1_556 S
C342 C337 1.245 . S
C342 C338 1.477 . S
C342 H359 0.932 . S
C343 U326 2.882 . S
C343 C337 1.428 . S
C343 O346 1.301 . S
C343 O347 1.282 . S
O344 U326 2.441 . S
O344 C330 1.249 . S
O345 U326 2.420 . S
O345 C330 1.202 . S
O346 U326 2.455 . S
O346 C343 1.301 . S
O347 U326 2.449 . S
O347 C343 1.282 . S
H348 C321 0.931 . S
H349 C323 0.929 . S
H350 C324 0.930 . S
H351 C325 0.931 . S
H352 C332 0.932 . S
H353 C333 0.930 . S
H354 C334 0.929 . S
H355 C336 0.930 . S
H356 C338 0.932 . S
H357 C339 0.929 . S
H358 C340 0.928 . S
H359 C342 0.932 . S
H360 C368 0.950 . S
H361 C373 0.950 . S
H362 C370 0.950 . S
H363 C372 0.950 . S
H364 C374 0.950 . S
H365 C376 0.950 . S
H366 C378 0.950 . S
H367 C379 0.950 . S
C368 H360 0.950 . S
C368 C369 1.386 . S
C368 C370 1.391 . S
C369 C368 1.386 . S
C369 C373 1.393 . S
C370 H362 0.950 . S
C370 C368 1.391 . S
C370 C371 1.400 . S
C371 C370 1.400 . S
C371 C372 1.398 . S
C371 C377 1.491 . S
C372 H363 0.950 . S
C372 C371 1.398 . S
C372 C373 1.391 . S
C373 H361 0.950 . S
C373 C369 1.393 . S
C373 C372 1.391 . S
C374 H364 0.950 . S
C374 C375 1.386 . S
C374 C376 1.391 . S
C375 C374 1.386 . S
C375 C379 1.393 . S
C376 H365 0.950 . S
C376 C374 1.391 . S
C376 C377 1.400 . S
C377 C371 1.491 . S
C377 C376 1.400 . S
C377 C378 1.398 . S
C378 H366 0.950 . S
C378 C377 1.398 . S
C378 C379 1.391 . S
C379 H367 0.950 . S
C379 C375 1.393 . S
C379 C378 1.391 . S
H380 C388 0.950 . S
H381 C393 0.950 . S
H382 C390 0.950 . S
H383 C392 0.950 . S
H384 C394 0.950 . S
H385 C396 0.950 . S
H386 C398 0.950 . S
H387 C399 0.950 . S
C388 H380 0.950 . S
C388 C389 1.386 . S
C388 C390 1.391 . S
C389 C388 1.386 . S
C389 C393 1.393 . S
C390 H382 0.950 . S
C390 C388 1.391 . S
C390 C391 1.400 . S
C391 C390 1.400 . S
C391 C392 1.398 . S
C391 C397 1.491 . S
C392 H383 0.950 . S
C392 C391 1.398 . S
C392 C393 1.391 . S
C393 H381 0.950 . S
C393 C389 1.393 . S
C393 C392 1.391 . S
C394 H384 0.950 . S
C394 C395 1.386 . S
C394 C396 1.391 . S
C395 C394 1.386 . S
C395 C399 1.393 . S
C396 H385 0.950 . S
C396 C394 1.391 . S
C396 C397 1.400 . S
C397 C391 1.491 . S
C397 C396 1.400 . S
C397 C398 1.398 . S
C398 H386 0.950 . S
C398 C397 1.398 . S
C398 C399 1.391 . S
C399 H387 0.950 . S
C399 C395 1.393 . S
C399 C398 1.391 . S
H400 C408 0.950 . S
H401 C413 0.950 . S
H402 C410 0.950 . S
H403 C412 0.950 . S
H404 C414 0.950 . S
H405 C416 0.950 . S
H406 C418 0.950 . S
H407 C419 0.950 . S
C408 H400 0.950 . S
C408 C409 1.386 . S
C408 C410 1.391 . S
C409 C408 1.386 . S
C409 C413 1.393 . S
C410 H402 0.950 . S
C410 C408 1.391 . S
C410 C411 1.400 . S
C411 C410 1.400 . S
C411 C412 1.398 . S
C411 C417 1.491 . S
C412 H403 0.950 . S
C412 C411 1.398 . S
C412 C413 1.391 . S
C413 H401 0.950 . S
C413 C409 1.393 . S
C413 C412 1.391 . S
C414 H404 0.950 . S
C414 C415 1.386 . S
C414 C416 1.391 . S
C415 C414 1.386 . S
C415 C419 1.393 . S
C416 H405 0.950 . S
C416 C414 1.391 . S
C416 C417 1.400 . S
C417 C411 1.491 . S
C417 C416 1.400 . S
C417 C418 1.398 . S
C418 H406 0.950 . S
C418 C417 1.398 . S
C418 C419 1.391 . S
C419 H407 0.950 . S
C419 C415 1.393 . S
C419 C418 1.391 . S
H420 C428 0.950 . S
H421 C433 0.950 . S
H422 C430 0.950 . S
H423 C432 0.950 . S
H424 C434 0.950 . S
H425 C436 0.950 . S
H426 C438 0.950 . S
H427 C439 0.950 . S
C428 H420 0.950 . S
C428 C429 1.386 . S
C428 C430 1.391 . S
C429 C428 1.386 . S
C429 C433 1.393 . S
C430 H422 0.950 . S
C430 C428 1.391 . S
C430 C431 1.400 . S
C431 C430 1.400 . S
C431 C432 1.398 . S
C431 C437 1.491 . S
C432 H423 0.950 . S
C432 C431 1.398 . S
C432 C433 1.391 . S
C433 H421 0.950 . S
C433 C429 1.393 . S
C433 C432 1.391 . S
C434 H424 0.950 . S
C434 C435 1.386 . S
C434 C436 1.391 . S
C435 C434 1.386 . S
C435 C439 1.393 . S
C436 H425 0.950 . S
C436 C434 1.391 . S
C436 C437 1.400 . S
C437 C431 1.491 . S
C437 C436 1.400 . S
C437 C438 1.398 . S
C438 H426 0.950 . S
C438 C437 1.398 . S
C438 C439 1.391 . S
C439 H427 0.950 . S
C439 C435 1.393 . S
C439 C438 1.391 . S
H440 C448 0.950 . S
H441 C453 0.950 . S
H442 C450 0.950 . S
H443 C452 0.950 . S
H444 C454 0.950 . S
H445 C456 0.950 . S
H446 C458 0.950 . S
H447 C459 0.950 . S
C448 H440 0.950 . S
C448 C449 1.386 . S
C448 C450 1.391 . S
C449 C448 1.386 . S
C449 C453 1.393 . S
C450 H442 0.950 . S
C450 C448 1.391 . S
C450 C451 1.400 . S
C451 C450 1.400 . S
C451 C452 1.398 . S
C451 C457 1.491 . S
C452 H443 0.950 . S
C452 C451 1.398 . S
C452 C453 1.391 . S
C453 H441 0.950 . S
C453 C449 1.393 . S
C453 C452 1.391 . S
C454 H444 0.950 . S
C454 C455 1.386 . S
C454 C456 1.391 . S
C455 C454 1.386 . S
C455 C459 1.393 . S
C456 H445 0.950 . S
C456 C454 1.391 . S
C456 C457 1.400 . S
C457 C451 1.491 . S
C457 C456 1.400 . S
C457 C458 1.398 . S
C458 H446 0.950 . S
C458 C457 1.398 . S
C458 C459 1.391 . S
C459 H447 0.950 . S
C459 C455 1.393 . S
C459 C458 1.391 . S
H460 C468 0.950 . S
H461 C473 0.950 . S
H462 C470 0.950 . S
H463 C472 0.950 . S
H464 C474 0.950 . S
H465 C476 0.950 . S
H466 C478 0.950 . S
H467 C479 0.950 . S
C468 H460 0.950 . S
C468 C469 1.386 . S
C468 C470 1.391 . S
C469 C468 1.386 . S
C469 C473 1.393 . S
C470 H462 0.950 . S
C470 C468 1.391 . S
C470 C471 1.400 . S
C471 C470 1.400 . S
C471 C472 1.398 . S
C471 C477 1.491 . S
C472 H463 0.950 . S
C472 C471 1.398 . S
C472 C473 1.391 . S
C473 H461 0.950 . S
C473 C469 1.393 . S
C473 C472 1.391 . S
C474 H464 0.950 . S
C474 C475 1.386 . S
C474 C476 1.391 . S
C475 C474 1.386 . S
C475 C479 1.393 . S
C476 H465 0.950 . S
C476 C474 1.391 . S
C476 C477 1.400 . S
C477 C471 1.491 . S
C477 C476 1.400 . S
C477 C478 1.398 . S
C478 H466 0.950 . S
C478 C477 1.398 . S
C478 C479 1.391 . S
C479 H467 0.950 . S
C479 C475 1.393 . S
C479 C478 1.391 . S
H480 C488 0.950 . S
H481 C493 0.950 . S
H482 C490 0.950 . S
H483 C492 0.950 . S
H484 C494 0.950 . S
H485 C496 0.950 . S
H486 C498 0.950 . S
H487 C499 0.950 . S
C488 H480 0.950 . S
C488 C489 1.386 . S
C488 C490 1.391 . S
C489 C488 1.386 . S
C489 C493 1.393 . S
C490 H482 0.950 . S
C490 C488 1.391 . S
C490 C491 1.400 . S
C491 C490 1.400 . S
C491 C492 1.398 . S
C491 C497 1.491 . S
C492 H483 0.950 . S
C492 C491 1.398 . S
C492 C493 1.391 . S
C493 H481 0.950 . S
C493 C489 1.393 . S
C493 C492 1.391 . S
C494 H484 0.950 . S
C494 C495 1.386 . S
C494 C496 1.391 . S
C495 C494 1.386 . S
C495 C499 1.393 . S
C496 H485 0.950 . S
C496 C494 1.391 . S
C496 C497 1.400 . S
C497 C491 1.491 . S
C497 C496 1.400 . S
C497 C498 1.398 . S
C498 H486 0.950 . S
C498 C497 1.398 . S
C498 C499 1.391 . S
C499 H487 0.950 . S
C499 C495 1.393 . S
C499 C498 1.391 . S
H500 C508 0.950 . S
H501 C513 0.950 . S
H502 C510 0.950 . S
H503 C512 0.950 . S
H504 C514 0.950 . S
H505 C516 0.950 . S
H506 C518 0.950 . S
H507 C519 0.950 . S
C508 H500 0.950 . S
C508 C509 1.386 . S
C508 C510 1.391 . S
C509 C508 1.386 . S
C509 C513 1.393 . S
C510 H502 0.950 . S
C510 C508 1.391 . S
C510 C511 1.400 . S
C511 C510 1.400 . S
C511 C512 1.398 . S
C511 C517 1.491 . S
C512 H503 0.950 . S
C512 C511 1.398 . S
C512 C513 1.391 . S
C513 H501 0.950 . S
C513 C509 1.393 . S
C513 C512 1.391 . S
C514 H504 0.950 . S
C514 C515 1.386 . S
C514 C516 1.391 . S
C515 C514 1.386 . S
C515 C519 1.393 . S
C516 H505 0.950 . S
C516 C514 1.391 . S
C516 C517 1.400 . S
C517 C511 1.491 . S
C517 C516 1.400 . S
C517 C518 1.398 . S
C518 H506 0.950 . S
C518 C517 1.398 . S
C518 C519 1.391 . S
C519 H507 0.950 . S
C519 C515 1.393 . S
C519 C518 1.391 . S
H520 C528 0.950 . S
H521 C533 0.950 . S
H522 C530 0.950 . S
H523 C532 0.950 . S
H524 C534 0.950 . S
H525 C536 0.950 . S
H526 C538 0.950 . S
H527 C539 0.950 . S
C528 H520 0.950 . S
C528 C529 1.386 . S
C528 C530 1.391 . S
C529 C528 1.386 . S
C529 C533 1.393 . S
C530 H522 0.950 . S
C530 C528 1.391 . S
C530 C531 1.400 . S
C531 C530 1.400 . S
C531 C532 1.398 . S
C531 C537 1.491 . S
C532 H523 0.950 . S
C532 C531 1.398 . S
C532 C533 1.391 . S
C533 H521 0.950 . S
C533 C529 1.393 . S
C533 C532 1.391 . S
C534 H524 0.950 . S
C534 C535 1.386 . S
C534 C536 1.391 . S
C535 C534 1.386 . S
C535 C539 1.393 . S
C536 H525 0.950 . S
C536 C534 1.391 . S
C536 C537 1.400 . S
C537 C531 1.491 . S
C537 C536 1.400 . S
C537 C538 1.398 . S
C538 H526 0.950 . S
C538 C537 1.398 . S
C538 C539 1.391 . S
C539 H527 0.950 . S
C539 C535 1.393 . S
C539 C538 1.391 . S
H540 C548 0.950 . S
H541 C553 0.950 . S
H542 C550 0.950 . S
H543 C552 0.950 . S
H544 C554 0.950 . S
H545 C556 0.950 . S
H546 C558 0.950 . S
H547 C559 0.950 . S
C548 H540 0.950 . S
C548 C549 1.386 . S
C548 C550 1.391 . S
C549 C548 1.386 . S
C549 C553 1.393 . S
C550 H542 0.950 . S
C550 C548 1.391 . S
C550 C551 1.400 . S
C551 C550 1.400 . S
C551 C552 1.398 . S
C551 C557 1.491 . S
C552 H543 0.950 . S
C552 C551 1.398 . S
C552 C553 1.391 . S
C553 H541 0.950 . S
C553 C549 1.393 . S
C553 C552 1.391 . S
C554 H544 0.950 . S
C554 C555 1.386 . S
C554 C556 1.391 . S
C555 C554 1.386 . S
C555 C559 1.393 . S
C556 H545 0.950 . S
C556 C554 1.391 . S
C556 C557 1.400 . S
C557 C551 1.491 . S
C557 C556 1.400 . S
C557 C558 1.398 . S
C558 H546 0.950 . S
C558 C557 1.398 . S
C558 C559 1.391 . S
C559 H547 0.950 . S
C559 C555 1.393 . S
C559 C558 1.391 . S
H560 C568 0.950 . S
H561 C573 0.950 . S
H562 C570 0.950 . S
H563 C572 0.950 . S
H564 C574 0.950 . S
H565 C576 0.950 . S
H566 C578 0.950 . S
H567 C579 0.950 . S
C568 H560 0.950 . S
C568 C569 1.386 . S
C568 C570 1.391 . S
C569 C568 1.386 . S
C569 C573 1.393 . S
C570 H562 0.950 . S
C570 C568 1.391 . S
C570 C571 1.400 . S
C571 C570 1.400 . S
C571 C572 1.398 . S
C571 C577 1.491 . S
C572 H563 0.950 . S
C572 C571 1.398 . S
C572 C573 1.391 . S
C573 H561 0.950 . S
C573 C569 1.393 . S
C573 C572 1.391 . S
C574 H564 0.950 . S
C574 C575 1.386 . S
C574 C576 1.391 . S
C575 C574 1.386 . S
C575 C579 1.393 . S
C576 H565 0.950 . S
C576 C574 1.391 . S
C576 C577 1.400 . S
C577 C571 1.491 . S
C577 C576 1.400 . S
C577 C578 1.398 . S
C578 H566 0.950 . S
C578 C577 1.398 . S
C578 C579 1.391 . S
C579 H567 0.950 . S
C579 C575 1.393 . S
C579 C578 1.391 . S
H580 C588 0.950 . S
H581 C593 0.950 . S
H582 C590 0.950 . S
H583 C592 0.950 . S
H584 C594 0.950 . S
H585 C596 0.950 . S
H586 C598 0.950 . S
H587 C599 0.950 . S
C588 H580 0.950 . S
C588 C589 1.386 . S
C588 C590 1.391 . S
C589 C588 1.386 . S
C589 C593 1.393 . S
C590 H582 0.950 . S
C590 C588 1.391 . S
C590 C591 1.400 . S
C591 C590 1.400 . S
C591 C592 1.398 . S
C591 C597 1.491 . S
C592 H583 0.950 . S
C592 C591 1.398 . S
C592 C593 1.391 . S
C593 H581 0.950 . S
C593 C589 1.393 . S
C593 C592 1.391 . S
C594 H584 0.950 . S
C594 C595 1.386 . S
C594 C596 1.391 . S
C595 C594 1.386 . S
C595 C599 1.393 . S
C596 H585 0.950 . S
C596 C594 1.391 . S
C596 C597 1.400 . S
C597 C591 1.491 . S
C597 C596 1.400 . S
C597 C598 1.398 . S
C598 H586 0.950 . S
C598 C597 1.398 . S
C598 C599 1.391 . S
C599 H587 0.950 . S
C599 C595 1.393 . S
C599 C598 1.391 . S
H600 C608 0.950 . S
H601 C613 0.950 . S
H602 C610 0.950 . S
H603 C612 0.950 . S
H604 C614 0.950 . S
H605 C616 0.950 . S
H606 C618 0.950 1_655 S
H607 C619 0.950 1_655 S
C608 H600 0.950 . S
C608 C609 1.386 1_655 S
C608 C610 1.391 . S
C609 C608 1.386 1_455 S
C609 C613 1.393 . S
C610 H602 0.950 . S
C610 C608 1.391 . S
C610 C611 1.400 1_655 S
C611 C610 1.400 1_455 S
C611 C612 1.398 . S
C611 C617 1.491 . S
C612 H603 0.950 . S
C612 C611 1.398 . S
C612 C613 1.391 . S
C613 H601 0.950 . S
C613 C609 1.393 . S
C613 C612 1.391 . S
C614 H604 0.950 . S
C614 C615 1.386 . S
C614 C616 1.391 . S
C615 C614 1.386 . S
C615 C619 1.393 . S
C616 H605 0.950 . S
C616 C614 1.391 . S
C616 C617 1.400 . S
C617 C611 1.491 . S
C617 C616 1.400 . S
C617 C618 1.398 . S
C618 H606 0.950 1_455 S
C618 C617 1.398 . S
C618 C619 1.391 . S
C619 H607 0.950 1_455 S
C619 C615 1.393 . S
C619 C618 1.391 . S
H620 C628 0.950 . S
H621 C633 0.950 . S
H622 C630 0.950 . S
H623 C632 0.950 . S
H624 C634 0.950 1_565 S
H625 C636 0.950 1_565 S
H626 C638 0.950 . S
H627 C639 0.950 . S
C628 H620 0.950 . S
C628 C629 1.386 . S
C628 C630 1.391 . S
C629 C628 1.386 . S
C629 C633 1.393 1_545 S
C630 H622 0.950 . S
C630 C628 1.391 . S
C630 C631 1.400 . S
C631 C630 1.400 . S
C631 C632 1.398 1_545 S
C631 C637 1.491 . S
C632 H623 0.950 . S
C632 C631 1.398 1_565 S
C632 C633 1.391 . S
C633 H621 0.950 . S
C633 C629 1.393 1_565 S
C633 C632 1.391 . S
C634 H624 0.950 1_545 S
C634 C635 1.386 . S
C634 C636 1.391 . S
C635 C634 1.386 . S
C635 C639 1.393 . S
C636 H625 0.950 1_545 S
C636 C634 1.391 . S
C636 C637 1.400 . S
C637 C631 1.491 . S
C637 C636 1.400 . S
C637 C638 1.398 . S
C638 H626 0.950 . S
C638 C637 1.398 . S
C638 C639 1.391 . S
C639 H627 0.950 . S
C639 C635 1.393 . S
C639 C638 1.391 . S
H640 C648 0.950 . S
H641 C653 0.950 . S
H642 C650 0.950 . S
H643 C652 0.950 . S
H644 C654 0.950 . S
H645 C656 0.950 . S
H646 C658 0.950 . S
H647 C659 0.950 . S
C648 H640 0.950 . S
C648 C649 1.386 . S
C648 C650 1.391 . S
C649 C648 1.386 . S
C649 C653 1.393 . S
C650 H642 0.950 . S
C650 C648 1.391 . S
C650 C651 1.400 . S
C651 C650 1.400 . S
C651 C652 1.398 . S
C651 C657 1.491 . S
C652 H643 0.950 . S
C652 C651 1.398 . S
C652 C653 1.391 . S
C653 H641 0.950 . S
C653 C649 1.393 . S
C653 C652 1.391 . S
C654 H644 0.950 . S
C654 C655 1.386 . S
C654 C656 1.391 . S
C655 C654 1.386 . S
C655 C659 1.393 . S
C656 H645 0.950 . S
C656 C654 1.391 . S
C656 C657 1.400 . S
C657 C651 1.491 . S
C657 C656 1.400 . S
C657 C658 1.398 . S
C658 H646 0.950 . S
C658 C657 1.398 . S
C658 C659 1.391 . S
C659 H647 0.950 . S
C659 C655 1.393 . S
C659 C658 1.391 . S
H660 C668 0.950 . S
H661 C673 0.932 . S
H662 C670 0.950 . S
H663 C672 0.950 . S
H664 C674 0.950 . S
H665 C676 0.950 . S
H666 C678 0.950 . S
H667 C679 0.934 . S
C668 H660 0.950 . S
C668 C669 1.386 . S
C668 C670 1.391 . S
C669 C668 1.386 . S
C669 C673 1.409 1_545 S
C670 H662 0.950 . S
C670 C668 1.391 . S
C670 C671 1.400 . S
C671 C670 1.400 . S
C671 C672 1.398 1_545 S
C671 C677 1.491 1_545 S
C672 H663 0.950 . S
C672 C671 1.398 1_565 S
C672 C673 1.394 . S
C673 H661 0.932 . S
C673 C669 1.409 1_565 S
C673 C672 1.394 . S
C674 H664 0.950 . S
C674 C675 1.386 . S
C674 C676 1.391 . S
C675 C674 1.386 . S
C675 C679 1.406 1_565 S
C676 H665 0.950 . S
C676 C674 1.391 . S
C676 C677 1.400 . S
C677 C671 1.491 1_565 S
C677 C676 1.400 . S
C677 C678 1.398 1_565 S
C678 H666 0.950 . S
C678 C677 1.398 1_545 S
C678 C679 1.394 . S
C679 H667 0.934 . S
C679 C675 1.406 1_545 S
C679 C678 1.394 . S
H680 C688 0.950 . S
H681 C693 0.950 . S
H682 C690 0.950 . S
H683 C692 0.950 . S
H684 C694 0.950 . S
H685 C696 0.950 . S
H686 C698 0.950 . S
H687 C699 0.950 . S
C688 H680 0.950 . S
C688 C689 1.386 . S
C688 C690 1.391 . S
C689 C688 1.386 . S
C689 C693 1.393 . S
C690 H682 0.950 . S
C690 C688 1.391 . S
C690 C691 1.400 . S
C691 C690 1.400 . S
C691 C692 1.398 . S
C691 C697 1.491 . S
C692 H683 0.950 . S
C692 C691 1.398 . S
C692 C693 1.391 . S
C693 H681 0.950 . S
C693 C689 1.393 . S
C693 C692 1.391 . S
C694 H684 0.950 . S
C694 C695 1.386 . S
C694 C696 1.391 . S
C695 C694 1.386 . S
C695 C699 1.393 . S
C696 H685 0.950 . S
C696 C694 1.391 . S
C696 C697 1.400 . S
C697 C691 1.491 . S
C697 C696 1.400 . S
C697 C698 1.398 . S
C698 H686 0.950 . S
C698 C697 1.398 . S
C698 C699 1.391 . S
C699 H687 0.950 . S
C699 C695 1.393 . S
C699 C698 1.391 . S
H700 C708 0.950 . S
H701 C713 0.950 . S
H702 C710 0.950 . S
H703 C712 0.950 . S
H704 C714 0.954 . S
H705 C716 0.950 . S
H706 C718 0.950 . S
H707 C719 0.950 . S
C708 H700 0.950 . S
C708 C709 1.386 . S
C708 C710 1.391 . S
C709 C708 1.386 . S
C709 C713 1.393 . S
C710 H702 0.950 . S
C710 C708 1.391 . S
C710 C711 1.400 . S
C711 C710 1.400 . S
C711 C712 1.398 . S
C711 C717 1.491 . S
C712 H703 0.950 . S
C712 C711 1.398 . S
C712 C713 1.391 . S
C713 H701 0.950 . S
C713 C709 1.393 . S
C713 C712 1.391 . S
C714 H704 0.954 . S
C714 C715 1.402 . S
C714 C716 1.390 1_655 S
C715 C714 1.402 . S
C715 C719 1.393 . S
C716 H705 0.950 . S
C716 C714 1.390 1_455 S
C716 C717 1.400 . S
C717 C711 1.491 . S
C717 C716 1.400 . S
C717 C718 1.398 . S
C718 H706 0.950 . S
C718 C717 1.398 . S
C718 C719 1.391 1_455 S
C719 H707 0.950 . S
C719 C715 1.393 . S
C719 C718 1.391 1_655 S
C369 C6 0.574 . S
C375 C335 0.541 . S
C389 C59 1.975 . S
C395 C242 1.954 . S
C409 C86 1.216 . S
C415 C282 1.210 . S
C429 C15 0.345 . S
C435 C322 0.292 . S
C455 C255 2.055 . S
C449 C50 2.131 . S
C475 C295 1.329 . S
C469 C95 1.325 . S
C489 C46 1.203 . S
C495 C162 1.187 . S
C509 C99 3.160 . S
C515 C202 3.125 . S
C529 C10 2.154 . S
C535 C135 2.088 . S
C555 C175 1.314 . S
C549 C55 1.312 . S
C575 C215 3.029 . S
C569 C90 3.074 . S
C589 C19 1.971 . S
C595 C122 1.952 . S
C615 C221 1.749 1_554 S
C609 C18 1.687 . S
C629 C49 1.337 . S
C635 C141 1.379 . S
C649 C98 1.473 . S
C655 C181 1.500 . S
C675 C301 1.489 . S
C669 C58 1.442 . S
C695 C341 1.157 . S
C689 C89 1.094 . S
C709 C9 1.342 . S
C715 C261 1.372 . S
