# Generated by pormake.
# Topology tbo, (3,4)-cn, num edge types: 1
# Building blocks:
#     Node 0, Type 0, BuildingBlock: WUSLED_clean_sbu_0, # of connection points: 3
#     Node 1, Type 0, BuildingBlock: WUSLED_clean_sbu_0, # of connection points: 3
#     Node 2, Type 0, BuildingBlock: WUSLED_clean_sbu_0, # of connection points: 3
#     Node 3, Type 0, BuildingBlock: WUSLED_clean_sbu_0, # of connection points: 3
#     Node 4, Type 0, BuildingBlock: WUSLED_clean_sbu_0, # of connection points: 3
#     Node 5, Type 0, BuildingBlock: WUSLED_clean_sbu_0, # of connection points: 3
#     Node 6, Type 0, BuildingBlock: WUSLED_clean_sbu_0, # of connection points: 3
#     Node 7, Type 0, BuildingBlock: WUSLED_clean_sbu_0, # of connection points: 3
#     Node 8, Type 0, BuildingBlock: WUSLED_clean_sbu_0, # of connection points: 3
#     Node 9, Type 0, BuildingBlock: WUSLED_clean_sbu_0, # of connection points: 3
#     Node 10, Type 0, BuildingBlock: WUSLED_clean_sbu_0, # of connection points: 3
#     Node 11, Type 0, BuildingBlock: WUSLED_clean_sbu_0, # of connection points: 3
#     Node 12, Type 0, BuildingBlock: WUSLED_clean_sbu_0, # of connection points: 3
#     Node 13, Type 0, BuildingBlock: WUSLED_clean_sbu_0, # of connection points: 3
#     Node 14, Type 0, BuildingBlock: WUSLED_clean_sbu_0, # of connection points: 3
#     Node 15, Type 0, BuildingBlock: WUSLED_clean_sbu_0, # of connection points: 3
#     Node 16, Type 0, BuildingBlock: WUSLED_clean_sbu_0, # of connection points: 3
#     Node 17, Type 0, BuildingBlock: WUSLED_clean_sbu_0, # of connection points: 3
#     Node 18, Type 0, BuildingBlock: WUSLED_clean_sbu_0, # of connection points: 3
#     Node 19, Type 0, BuildingBlock: WUSLED_clean_sbu_0, # of connection points: 3
#     Node 20, Type 0, BuildingBlock: WUSLED_clean_sbu_0, # of connection points: 3
#     Node 21, Type 0, BuildingBlock: WUSLED_clean_sbu_0, # of connection points: 3
#     Node 22, Type 0, BuildingBlock: WUSLED_clean_sbu_0, # of connection points: 3
#     Node 23, Type 0, BuildingBlock: WUSLED_clean_sbu_0, # of connection points: 3
#     Node 24, Type 0, BuildingBlock: WUSLED_clean_sbu_0, # of connection points: 3
#     Node 25, Type 0, BuildingBlock: WUSLED_clean_sbu_0, # of connection points: 3
#     Node 26, Type 0, BuildingBlock: WUSLED_clean_sbu_0, # of connection points: 3
#     Node 27, Type 0, BuildingBlock: WUSLED_clean_sbu_0, # of connection points: 3
#     Node 28, Type 0, BuildingBlock: WUSLED_clean_sbu_0, # of connection points: 3
#     Node 29, Type 0, BuildingBlock: WUSLED_clean_sbu_0, # of connection points: 3
#     Node 30, Type 0, BuildingBlock: WUSLED_clean_sbu_0, # of connection points: 3
#     Node 31, Type 0, BuildingBlock: WUSLED_clean_sbu_0, # of connection points: 3
#     Node 32, Type 1, BuildingBlock: ESEHIV_clean_sbu_0, # of connection points: 4
#     Node 33, Type 1, BuildingBlock: ESEHIV_clean_sbu_0, # of connection points: 4
#     Node 34, Type 1, BuildingBlock: ESEHIV_clean_sbu_0, # of connection points: 4
#     Node 35, Type 1, BuildingBlock: ESEHIV_clean_sbu_0, # of connection points: 4
#     Node 36, Type 1, BuildingBlock: ESEHIV_clean_sbu_0, # of connection points: 4
#     Node 37, Type 1, BuildingBlock: ESEHIV_clean_sbu_0, # of connection points: 4
#     Node 38, Type 1, BuildingBlock: ESEHIV_clean_sbu_0, # of connection points: 4
#     Node 39, Type 1, BuildingBlock: ESEHIV_clean_sbu_0, # of connection points: 4
#     Node 40, Type 1, BuildingBlock: ESEHIV_clean_sbu_0, # of connection points: 4
#     Node 41, Type 1, BuildingBlock: ESEHIV_clean_sbu_0, # of connection points: 4
#     Node 42, Type 1, BuildingBlock: ESEHIV_clean_sbu_0, # of connection points: 4
#     Node 43, Type 1, BuildingBlock: ESEHIV_clean_sbu_0, # of connection points: 4
#     Node 44, Type 1, BuildingBlock: ESEHIV_clean_sbu_0, # of connection points: 4
#     Node 45, Type 1, BuildingBlock: ESEHIV_clean_sbu_0, # of connection points: 4
#     Node 46, Type 1, BuildingBlock: ESEHIV_clean_sbu_0, # of connection points: 4
#     Node 47, Type 1, BuildingBlock: ESEHIV_clean_sbu_0, # of connection points: 4
#     Node 48, Type 1, BuildingBlock: ESEHIV_clean_sbu_0, # of connection points: 4
#     Node 49, Type 1, BuildingBlock: ESEHIV_clean_sbu_0, # of connection points: 4
#     Node 50, Type 1, BuildingBlock: ESEHIV_clean_sbu_0, # of connection points: 4
#     Node 51, Type 1, BuildingBlock: ESEHIV_clean_sbu_0, # of connection points: 4
#     Node 52, Type 1, BuildingBlock: ESEHIV_clean_sbu_0, # of connection points: 4
#     Node 53, Type 1, BuildingBlock: ESEHIV_clean_sbu_0, # of connection points: 4
#     Node 54, Type 1, BuildingBlock: ESEHIV_clean_sbu_0, # of connection points: 4
#     Node 55, Type 1, BuildingBlock: ESEHIV_clean_sbu_0, # of connection points: 4
#     Edge 56, Type (0, 1), BuildingBlock: AJUNOK_clean_linker_0, # of connection points: 2
#     Edge 57, Type (0, 1), BuildingBlock: AJUNOK_clean_linker_0, # of connection points: 2
#     Edge 58, Type (0, 1), BuildingBlock: AJUNOK_clean_linker_0, # of connection points: 2
#     Edge 59, Type (0, 1), BuildingBlock: AJUNOK_clean_linker_0, # of connection points: 2
#     Edge 60, Type (0, 1), BuildingBlock: AJUNOK_clean_linker_0, # of connection points: 2
#     Edge 61, Type (0, 1), BuildingBlock: AJUNOK_clean_linker_0, # of connection points: 2
#     Edge 62, Type (0, 1), BuildingBlock: AJUNOK_clean_linker_0, # of connection points: 2
#     Edge 63, Type (0, 1), BuildingBlock: AJUNOK_clean_linker_0, # of connection points: 2
#     Edge 64, Type (0, 1), BuildingBlock: AJUNOK_clean_linker_0, # of connection points: 2
#     Edge 65, Type (0, 1), BuildingBlock: AJUNOK_clean_linker_0, # of connection points: 2
#     Edge 66, Type (0, 1), BuildingBlock: AJUNOK_clean_linker_0, # of connection points: 2
#     Edge 67, Type (0, 1), BuildingBlock: AJUNOK_clean_linker_0, # of connection points: 2
#     Edge 68, Type (0, 1), BuildingBlock: AJUNOK_clean_linker_0, # of connection points: 2
#     Edge 69, Type (0, 1), BuildingBlock: AJUNOK_clean_linker_0, # of connection points: 2
#     Edge 70, Type (0, 1), BuildingBlock: AJUNOK_clean_linker_0, # of connection points: 2
#     Edge 71, Type (0, 1), BuildingBlock: AJUNOK_clean_linker_0, # of connection points: 2
#     Edge 72, Type (0, 1), BuildingBlock: AJUNOK_clean_linker_0, # of connection points: 2
#     Edge 73, Type (0, 1), BuildingBlock: AJUNOK_clean_linker_0, # of connection points: 2
#     Edge 74, Type (0, 1), BuildingBlock: AJUNOK_clean_linker_0, # of connection points: 2
#     Edge 75, Type (0, 1), BuildingBlock: AJUNOK_clean_linker_0, # of connection points: 2
#     Edge 76, Type (0, 1), BuildingBlock: AJUNOK_clean_linker_0, # of connection points: 2
#     Edge 77, Type (0, 1), BuildingBlock: AJUNOK_clean_linker_0, # of connection points: 2
#     Edge 78, Type (0, 1), BuildingBlock: AJUNOK_clean_linker_0, # of connection points: 2
#     Edge 79, Type (0, 1), BuildingBlock: AJUNOK_clean_linker_0, # of connection points: 2
#     Edge 80, Type (0, 1), BuildingBlock: AJUNOK_clean_linker_0, # of connection points: 2
#     Edge 81, Type (0, 1), BuildingBlock: AJUNOK_clean_linker_0, # of connection points: 2
#     Edge 82, Type (0, 1), BuildingBlock: AJUNOK_clean_linker_0, # of connection points: 2
#     Edge 83, Type (0, 1), BuildingBlock: AJUNOK_clean_linker_0, # of connection points: 2
#     Edge 84, Type (0, 1), BuildingBlock: AJUNOK_clean_linker_0, # of connection points: 2
#     Edge 85, Type (0, 1), BuildingBlock: AJUNOK_clean_linker_0, # of connection points: 2
#     Edge 86, Type (0, 1), BuildingBlock: AJUNOK_clean_linker_0, # of connection points: 2
#     Edge 87, Type (0, 1), BuildingBlock: AJUNOK_clean_linker_0, # of connection points: 2
#     Edge 88, Type (0, 1), BuildingBlock: AJUNOK_clean_linker_0, # of connection points: 2
#     Edge 89, Type (0, 1), BuildingBlock: AJUNOK_clean_linker_0, # of connection points: 2
#     Edge 90, Type (0, 1), BuildingBlock: AJUNOK_clean_linker_0, # of connection points: 2
#     Edge 91, Type (0, 1), BuildingBlock: AJUNOK_clean_linker_0, # of connection points: 2
#     Edge 92, Type (0, 1), BuildingBlock: AJUNOK_clean_linker_0, # of connection points: 2
#     Edge 93, Type (0, 1), BuildingBlock: AJUNOK_clean_linker_0, # of connection points: 2
#     Edge 94, Type (0, 1), BuildingBlock: AJUNOK_clean_linker_0, # of connection points: 2
#     Edge 95, Type (0, 1), BuildingBlock: AJUNOK_clean_linker_0, # of connection points: 2
#     Edge 96, Type (0, 1), BuildingBlock: AJUNOK_clean_linker_0, # of connection points: 2
#     Edge 97, Type (0, 1), BuildingBlock: AJUNOK_clean_linker_0, # of connection points: 2
#     Edge 98, Type (0, 1), BuildingBlock: AJUNOK_clean_linker_0, # of connection points: 2
#     Edge 99, Type (0, 1), BuildingBlock: AJUNOK_clean_linker_0, # of connection points: 2
#     Edge 100, Type (0, 1), BuildingBlock: AJUNOK_clean_linker_0, # of connection points: 2
#     Edge 101, Type (0, 1), BuildingBlock: AJUNOK_clean_linker_0, # of connection points: 2
#     Edge 102, Type (0, 1), BuildingBlock: AJUNOK_clean_linker_0, # of connection points: 2
#     Edge 103, Type (0, 1), BuildingBlock: AJUNOK_clean_linker_0, # of connection points: 2
#     Edge 104, Type (0, 1), BuildingBlock: AJUNOK_clean_linker_0, # of connection points: 2
#     Edge 105, Type (0, 1), BuildingBlock: AJUNOK_clean_linker_0, # of connection points: 2
#     Edge 106, Type (0, 1), BuildingBlock: AJUNOK_clean_linker_0, # of connection points: 2
#     Edge 107, Type (0, 1), BuildingBlock: AJUNOK_clean_linker_0, # of connection points: 2
#     Edge 108, Type (0, 1), BuildingBlock: AJUNOK_clean_linker_0, # of connection points: 2
#     Edge 109, Type (0, 1), BuildingBlock: AJUNOK_clean_linker_0, # of connection points: 2
#     Edge 110, Type (0, 1), BuildingBlock: AJUNOK_clean_linker_0, # of connection points: 2
#     Edge 111, Type (0, 1), BuildingBlock: AJUNOK_clean_linker_0, # of connection points: 2
#     Edge 112, Type (0, 1), BuildingBlock: AJUNOK_clean_linker_0, # of connection points: 2
#     Edge 113, Type (0, 1), BuildingBlock: AJUNOK_clean_linker_0, # of connection points: 2
#     Edge 114, Type (0, 1), BuildingBlock: AJUNOK_clean_linker_0, # of connection points: 2
#     Edge 115, Type (0, 1), BuildingBlock: AJUNOK_clean_linker_0, # of connection points: 2
#     Edge 116, Type (0, 1), BuildingBlock: AJUNOK_clean_linker_0, # of connection points: 2
#     Edge 117, Type (0, 1), BuildingBlock: AJUNOK_clean_linker_0, # of connection points: 2
#     Edge 118, Type (0, 1), BuildingBlock: AJUNOK_clean_linker_0, # of connection points: 2
#     Edge 119, Type (0, 1), BuildingBlock: AJUNOK_clean_linker_0, # of connection points: 2
#     Edge 120, Type (0, 1), BuildingBlock: AJUNOK_clean_linker_0, # of connection points: 2
#     Edge 121, Type (0, 1), BuildingBlock: AJUNOK_clean_linker_0, # of connection points: 2
#     Edge 122, Type (0, 1), BuildingBlock: AJUNOK_clean_linker_0, # of connection points: 2
#     Edge 123, Type (0, 1), BuildingBlock: AJUNOK_clean_linker_0, # of connection points: 2
#     Edge 124, Type (0, 1), BuildingBlock: AJUNOK_clean_linker_0, # of connection points: 2
#     Edge 125, Type (0, 1), BuildingBlock: AJUNOK_clean_linker_0, # of connection points: 2
#     Edge 126, Type (0, 1), BuildingBlock: AJUNOK_clean_linker_0, # of connection points: 2
#     Edge 127, Type (0, 1), BuildingBlock: AJUNOK_clean_linker_0, # of connection points: 2
#     Edge 128, Type (0, 1), BuildingBlock: AJUNOK_clean_linker_0, # of connection points: 2
#     Edge 129, Type (0, 1), BuildingBlock: AJUNOK_clean_linker_0, # of connection points: 2
#     Edge 130, Type (0, 1), BuildingBlock: AJUNOK_clean_linker_0, # of connection points: 2
#     Edge 131, Type (0, 1), BuildingBlock: AJUNOK_clean_linker_0, # of connection points: 2
#     Edge 132, Type (0, 1), BuildingBlock: AJUNOK_clean_linker_0, # of connection points: 2
#     Edge 133, Type (0, 1), BuildingBlock: AJUNOK_clean_linker_0, # of connection points: 2
#     Edge 134, Type (0, 1), BuildingBlock: AJUNOK_clean_linker_0, # of connection points: 2
#     Edge 135, Type (0, 1), BuildingBlock: AJUNOK_clean_linker_0, # of connection points: 2
#     Edge 136, Type (0, 1), BuildingBlock: AJUNOK_clean_linker_0, # of connection points: 2
#     Edge 137, Type (0, 1), BuildingBlock: AJUNOK_clean_linker_0, # of connection points: 2
#     Edge 138, Type (0, 1), BuildingBlock: AJUNOK_clean_linker_0, # of connection points: 2
#     Edge 139, Type (0, 1), BuildingBlock: AJUNOK_clean_linker_0, # of connection points: 2
#     Edge 140, Type (0, 1), BuildingBlock: AJUNOK_clean_linker_0, # of connection points: 2
#     Edge 141, Type (0, 1), BuildingBlock: AJUNOK_clean_linker_0, # of connection points: 2
#     Edge 142, Type (0, 1), BuildingBlock: AJUNOK_clean_linker_0, # of connection points: 2
#     Edge 143, Type (0, 1), BuildingBlock: AJUNOK_clean_linker_0, # of connection points: 2
#     Edge 144, Type (0, 1), BuildingBlock: AJUNOK_clean_linker_0, # of connection points: 2
#     Edge 145, Type (0, 1), BuildingBlock: AJUNOK_clean_linker_0, # of connection points: 2
#     Edge 146, Type (0, 1), BuildingBlock: AJUNOK_clean_linker_0, # of connection points: 2
#     Edge 147, Type (0, 1), BuildingBlock: AJUNOK_clean_linker_0, # of connection points: 2
#     Edge 148, Type (0, 1), BuildingBlock: AJUNOK_clean_linker_0, # of connection points: 2
#     Edge 149, Type (0, 1), BuildingBlock: AJUNOK_clean_linker_0, # of connection points: 2
#     Edge 150, Type (0, 1), BuildingBlock: AJUNOK_clean_linker_0, # of connection points: 2
#     Edge 151, Type (0, 1), BuildingBlock: AJUNOK_clean_linker_0, # of connection points: 2
# Relax obj value: 0.002
# Max RMSD: 0.120
# Mean RMSD: 0.048
data_MOF--net-tbo--node1-WUSLED_clean_sbu_0--node2-ESEHIV_clean_sbu_0--edge1-AJUNOK_clean_linker_0
_symmetry_space_group_name_H-M    P1
_symmetry_Int_Tables_number       1
_symmetry_cell_setting            triclinic
loop_
_symmetry_equiv_pos_as_xyz
'x, y, z'
_cell_length_a     75.161718
_cell_length_b     75.327387
_cell_length_c     75.399236
_cell_angle_alpha  89.661967
_cell_angle_beta   92.40322
_cell_angle_gamma 91.288891
loop_
_atom_site_label
_atom_site_type_symbol
_atom_site_fract_x
_atom_site_fract_y
_atom_site_fract_z
_atom_type_partial_charge
C0 C 0.22149 0.14913 0.22663 0.0
C1 C 0.23208 0.147 0.24228 0.0
C2 C 0.23794 0.11633 0.23461 0.0
C3 C 0.24024 0.13083 0.24621 0.0
C4 C 0.22792 0.11867 0.21861 0.0
C5 C 0.21981 0.13487 0.21464 0.0
U6 U 0.20777 0.19331 0.20321 0.0
O7 O 0.18091 0.20352 0.1977 0.0
O8 O 0.19976 0.2183 0.21538 0.0
C9 C 0.18342 0.21706 0.20851 0.0
C10 C 0.21076 0.16539 0.22418 0.0
C11 C 0.16897 0.22043 0.22064 0.0
C12 C 0.14726 0.21047 0.24188 0.0
C13 C 0.16164 0.20693 0.23121 0.0
C14 C 0.1477 0.24104 0.23179 0.0
C15 C 0.13994 0.22751 0.24204 0.0
C16 C 0.16201 0.23751 0.22118 0.0
C17 C 0.2326 0.21022 0.16219 0.0
C18 C 0.22259 0.23202 0.14015 0.0
C19 C 0.25316 0.22247 0.141 0.0
C20 C 0.24967 0.21131 0.15539 0.0
C21 C 0.2396 0.23273 0.13299 0.0
C22 C 0.2191 0.22082 0.15461 0.0
C23 C 0.22926 0.19753 0.17677 0.0
O24 O 0.21893 0.18069 0.22759 0.0
O25 O 0.19965 0.16602 0.21026 0.0
O26 O 0.21423 0.18825 0.17553 0.0
O27 O 0.23321 0.20321 0.19293 0.0
H28 H 0.23343 0.15764 0.25189 0.0
H29 H 0.2475 0.12938 0.25883 0.0
H30 H 0.22587 0.10773 0.20943 0.0
H31 H 0.21169 0.13597 0.20249 0.0
H32 H 0.1416 0.1998 0.24968 0.0
H33 H 0.16686 0.19365 0.23102 0.0
H34 H 0.14267 0.2544 0.23195 0.0
H35 H 0.16755 0.24813 0.21322 0.0
H36 H 0.2119 0.23981 0.13431 0.0
H37 H 0.26651 0.22306 0.13612 0.0
H38 H 0.2603 0.20336 0.16112 0.0
H39 H 0.20584 0.22026 0.15971 0.0
C40 C 0.85118 0.22437 0.16088 0.0
C41 C 0.86316 0.23604 0.15264 0.0
C42 C 0.84031 0.24335 0.12997 0.0
C43 C 0.85775 0.24546 0.13732 0.0
C44 C 0.8283 0.23193 0.13852 0.0
C45 C 0.83371 0.2225 0.15378 0.0
U46 U 0.88242 0.2148 0.20136 0.0
O47 O 0.87587 0.20576 0.22825 0.0
O48 O 0.89228 0.18934 0.21176 0.0
C49 C 0.88376 0.19048 0.22658 0.0
C50 C 0.8566 0.2139 0.17671 0.0
C51 C 0.87404 0.17429 0.23269 0.0
C52 C 0.8682 0.14231 0.23138 0.0
C53 C 0.87553 0.15786 0.22412 0.0
C54 C 0.85727 0.15925 0.25563 0.0
C55 C 0.85931 0.14277 0.24741 0.0
C56 C 0.86464 0.1748 0.24842 0.0
C57 C 0.92327 0.24483 0.21174 0.0
C58 C 0.94218 0.24114 0.23837 0.0
C59 C 0.95107 0.26185 0.21553 0.0
C60 C 0.93552 0.25745 0.20545 0.0
C61 C 0.9546 0.25372 0.2321 0.0
C62 C 0.92668 0.23672 0.22828 0.0
C63 C 0.90718 0.24003 0.20082 0.0
O64 O 0.8714 0.20505 0.17565 0.0
O65 O 0.85527 0.22183 0.19207 0.0
O66 O 0.89195 0.24177 0.20851 0.0
O67 O 0.90798 0.22517 0.19188 0.0
H68 H 0.87669 0.23774 0.15798 0.0
H69 H 0.8673 0.25419 0.13106 0.0
H70 H 0.81465 0.23035 0.13348 0.0
H71 H 0.82423 0.21368 0.16003 0.0
H72 H 0.8697 0.12985 0.22455 0.0
H73 H 0.88273 0.1569 0.21204 0.0
H74 H 0.85052 0.16002 0.26801 0.0
H75 H 0.86345 0.18717 0.25548 0.0
H76 H 0.94447 0.23469 0.25112 0.0
H77 H 0.96051 0.27131 0.21016 0.0
H78 H 0.93315 0.26377 0.19265 0.0
H79 H 0.9174 0.22691 0.23335 0.0
C80 C 0.83895 0.87062 0.14634 0.0
C81 C 0.84363 0.85264 0.14646 0.0
C82 C 0.83436 0.85002 0.11513 0.0
C83 C 0.84131 0.84242 0.13098 0.0
C84 C 0.83002 0.86809 0.11507 0.0
C85 C 0.83225 0.87824 0.1305 0.0
U86 U 0.86133 0.88419 0.19135 0.0
O87 O 0.86746 0.91079 0.20205 0.0
O88 O 0.84905 0.89297 0.21585 0.0
C89 C 0.85637 0.90896 0.215 0.0
C90 C 0.84058 0.88168 0.16248 0.0
C91 C 0.84482 0.92418 0.2183 0.0
C92 C 0.83219 0.95257 0.20941 0.0
C93 C 0.84079 0.93692 0.20511 0.0
C94 C 0.83062 0.94254 0.23986 0.0
C95 C 0.8275 0.9558 0.22697 0.0
C96 C 0.83923 0.92695 0.23558 0.0
C97 C 0.90276 0.85856 0.20905 0.0
C98 C 0.91446 0.85001 0.23845 0.0
C99 C 0.93435 0.85295 0.21413 0.0
C100 C 0.92004 0.85771 0.20277 0.0
C101 C 0.93173 0.84886 0.23206 0.0
C102 C 0.90011 0.85485 0.22707 0.0
C103 C 0.88778 0.86216 0.19621 0.0
O104 O 0.83693 0.87381 0.17756 0.0
O105 O 0.85463 0.89236 0.1638 0.0
O106 O 0.88904 0.87695 0.18697 0.0
O107 O 0.87154 0.85868 0.20132 0.0
H108 H 0.84897 0.8465 0.1585 0.0
H109 H 0.84502 0.82861 0.13138 0.0
H110 H 0.82453 0.87431 0.10312 0.0
H111 H 0.82856 0.89207 0.1301 0.0
H112 H 0.82968 0.96239 0.19911 0.0
H113 H 0.84483 0.93509 0.19163 0.0
H114 H 0.82724 0.94464 0.25351 0.0
H115 H 0.84222 0.91735 0.24599 0.0
H116 H 0.91193 0.84663 0.25211 0.0
H117 H 0.94748 0.85226 0.20881 0.0
H118 H 0.92243 0.86041 0.18893 0.0
H119 H 0.88693 0.8553 0.2323 0.0
C120 C 0.14022 0.82142 0.20184 0.0
C121 C 0.1374 0.82863 0.21857 0.0
C122 C 0.11129 0.80916 0.22172 0.0
C123 C 0.12307 0.82257 0.22841 0.0
C124 C 0.11395 0.80225 0.20479 0.0
C125 C 0.12834 0.80828 0.19497 0.0
U126 U 0.17947 0.85338 0.1929 0.0
O127 O 0.20634 0.84751 0.1844 0.0
O128 O 0.18866 0.86359 0.16728 0.0
C129 C 0.20375 0.85513 0.16879 0.0
C130 C 0.1555 0.82732 0.19148 0.0
C131 C 0.20842 0.84458 0.15321 0.0
C132 C 0.21058 0.81634 0.13792 0.0
C133 C 0.20542 0.82611 0.15256 0.0
C134 C 0.22143 0.84339 0.12422 0.0
C135 C 0.21867 0.82486 0.12356 0.0
C136 C 0.21636 0.85313 0.13888 0.0
C137 C 0.18705 0.89326 0.22584 0.0
C138 C 0.21302 0.91271 0.23165 0.0
C139 C 0.18513 0.91895 0.24503 0.0
C140 C 0.17718 0.90412 0.23661 0.0
C141 C 0.20322 0.92328 0.24293 0.0
C142 C 0.20502 0.89774 0.22323 0.0
C143 C 0.17828 0.87699 0.21844 0.0
O144 O 0.15359 0.84237 0.18279 0.0
O145 O 0.17126 0.82599 0.19956 0.0
O146 O 0.18713 0.86217 0.22 0.0
O147 O 0.16948 0.87853 0.20309 0.0
H148 H 0.14632 0.83889 0.22403 0.0
H149 H 0.12112 0.82846 0.24123 0.0
H150 H 0.10508 0.79197 0.19928 0.0
H151 H 0.13027 0.80261 0.18204 0.0
H152 H 0.20859 0.80206 0.13805 0.0
H153 H 0.19931 0.8192 0.16346 0.0
H154 H 0.22754 0.85039 0.11337 0.0
H155 H 0.21877 0.86736 0.13908 0.0
H156 H 0.22695 0.91576 0.22972 0.0
H157 H 0.17712 0.92703 0.25329 0.0
H158 H 0.1633 0.90096 0.23877 0.0
H159 H 0.2129 0.88955 0.21495 0.0
C160 C 0.16721 0.85136 0.85802 0.0
C161 C 0.16168 0.86189 0.84343 0.0
C162 C 0.13535 0.84264 0.83829 0.0
C163 C 0.14585 0.85752 0.83359 0.0
C164 C 0.14123 0.83206 0.85272 0.0
C165 C 0.15695 0.83637 0.86244 0.0
U166 U 0.21016 0.87873 0.8711 0.0
O167 O 0.22004 0.8871 0.89779 0.0
O168 O 0.23582 0.86926 0.88217 0.0
C169 C 0.2343 0.87736 0.89741 0.0
C170 C 0.18327 0.85574 0.86927 0.0
C171 C 0.23864 0.86689 0.91357 0.0
C172 C 0.23631 0.83997 0.93137 0.0
C173 C 0.23153 0.84972 0.91607 0.0
C174 C 0.2552 0.86448 0.94192 0.0
C175 C 0.24829 0.8472 0.94444 0.0
C176 C 0.25044 0.87419 0.92662 0.0
C177 C 0.22646 0.91822 0.8438 0.0
C178 C 0.25203 0.9366 0.85352 0.0
C179 C 0.23762 0.94161 0.82464 0.0
C180 C 0.22542 0.92777 0.8278 0.0
C181 C 0.25112 0.94613 0.83741 0.0
C182 C 0.23984 0.9227 0.85666 0.0
C183 C 0.21354 0.90363 0.84685 0.0
O184 O 0.19873 0.85286 0.8624 0.0
O185 O 0.18303 0.87067 0.87818 0.0
O186 O 0.20382 0.90534 0.8608 0.0
O187 O 0.21965 0.88755 0.84518 0.0
H188 H 0.16944 0.87355 0.83981 0.0
H189 H 0.14161 0.866 0.82263 0.0
H190 H 0.13358 0.82041 0.85658 0.0
H191 H 0.16099 0.82804 0.8736 0.0
H192 H 0.23077 0.82668 0.9329 0.0
H193 H 0.22238 0.84384 0.90616 0.0
H194 H 0.26411 0.8706 0.95187 0.0
H195 H 0.25602 0.88746 0.92496 0.0
H196 H 0.26229 0.93979 0.86359 0.0
H197 H 0.23635 0.94894 0.81226 0.0
H198 H 0.21514 0.92454 0.81777 0.0
H199 H 0.24085 0.91544 0.8691 0.0
C200 C 0.17706 0.2189 0.84989 0.0
C201 C 0.17148 0.22889 0.86425 0.0
C202 C 0.14764 0.24155 0.84547 0.0
C203 C 0.15686 0.2401 0.86206 0.0
C204 C 0.15342 0.23157 0.83117 0.0
C205 C 0.16796 0.2204 0.83337 0.0
U206 U 0.21984 0.20122 0.87341 0.0
O207 O 0.22845 0.17372 0.8772 0.0
O208 O 0.2443 0.19219 0.86129 0.0
C209 C 0.24195 0.17574 0.86677 0.0
C210 C 0.19216 0.20673 0.85171 0.0
C211 C 0.24441 0.16153 0.85363 0.0
C212 C 0.23364 0.13526 0.83738 0.0
C213 C 0.23034 0.15005 0.84788 0.0
C214 C 0.26489 0.14374 0.83737 0.0
C215 C 0.25106 0.13165 0.83245 0.0
C216 C 0.2616 0.15847 0.84789 0.0
C217 C 0.23797 0.22403 0.91719 0.0
C218 C 0.26479 0.23815 0.93055 0.0
C219 C 0.24255 0.2254 0.9494 0.0
C220 C 0.2323 0.22005 0.93434 0.0
C221 C 0.25868 0.23495 0.94769 0.0
C222 C 0.25458 0.23275 0.91548 0.0
C223 C 0.22539 0.22133 0.90162 0.0
O224 O 0.20801 0.21388 0.84942 0.0
O225 O 0.19191 0.19541 0.86504 0.0
O226 O 0.21527 0.20686 0.90151 0.0
O227 O 0.23112 0.22555 0.88586 0.0
H228 H 0.17834 0.22792 0.87713 0.0
H229 H 0.15258 0.24738 0.8734 0.0
H230 H 0.14673 0.23248 0.8182 0.0
H231 H 0.17208 0.21285 0.82212 0.0
H232 H 0.22265 0.12637 0.83352 0.0
H233 H 0.21691 0.15216 0.85196 0.0
H234 H 0.27844 0.14131 0.83386 0.0
H235 H 0.27266 0.16712 0.85214 0.0
H236 H 0.27714 0.24552 0.92881 0.0
H237 H 0.23724 0.22308 0.96237 0.0
H238 H 0.21947 0.21361 0.93613 0.0
H239 H 0.25935 0.23617 0.90251 0.0
C240 C 0.85234 0.16866 0.85053 0.0
C241 C 0.86086 0.15221 0.85104 0.0
C242 C 0.83479 0.13783 0.83645 0.0
C243 C 0.85216 0.13696 0.84409 0.0
C244 C 0.82647 0.15435 0.83561 0.0
C245 C 0.83513 0.16956 0.84259 0.0
U246 U 0.88635 0.2081 0.85962 0.0
O247 O 0.88002 0.23506 0.86839 0.0
O248 O 0.89679 0.21801 0.88547 0.0
C249 C 0.88798 0.23288 0.88409 0.0
C250 C 0.86004 0.18446 0.86 0.0
C251 C 0.87759 0.2377 0.89953 0.0
C252 C 0.86138 0.22962 0.92581 0.0
C253 C 0.87023 0.22469 0.91067 0.0
C254 C 0.86655 0.26062 0.91861 0.0
C255 C 0.85952 0.24764 0.93 0.0
C256 C 0.87551 0.25568 0.90354 0.0
C257 C 0.92657 0.21774 0.83086 0.0
C258 C 0.94992 0.23952 0.83867 0.0
C259 C 0.94894 0.22596 0.80961 0.0
C260 C 0.93381 0.21594 0.81412 0.0
C261 C 0.95705 0.23805 0.82176 0.0
C262 C 0.93479 0.22955 0.84314 0.0
C263 C 0.91048 0.20725 0.83529 0.0
O264 O 0.87524 0.18264 0.86906 0.0
O265 O 0.85885 0.19982 0.85172 0.0
O266 O 0.89527 0.2154 0.83299 0.0
O267 O 0.91158 0.19812 0.8502 0.0
H268 H 0.87404 0.15097 0.85722 0.0
H269 H 0.85891 0.12441 0.84491 0.0
H270 H 0.81296 0.15541 0.83018 0.0
H271 H 0.8281 0.18196 0.84231 0.0
H272 H 0.85609 0.21934 0.93435 0.0
H273 H 0.87155 0.21071 0.90782 0.0
H274 H 0.86563 0.27459 0.92165 0.0
H275 H 0.88111 0.26594 0.89518 0.0
H276 H 0.95608 0.2484 0.84849 0.0
H277 H 0.95408 0.22453 0.7965 0.0
H278 H 0.92768 0.20686 0.80446 0.0
H279 H 0.92948 0.23108 0.85618 0.0
C280 C 0.86582 0.92007 0.82581 0.0
C281 C 0.85184 0.9265 0.83551 0.0
C282 C 0.84511 0.94841 0.81234 0.0
C283 C 0.84165 0.94057 0.82889 0.0
C284 C 0.8594 0.9422 0.80284 0.0
C285 C 0.86963 0.92809 0.8095 0.0
U286 U 0.87338 0.88279 0.8595 0.0
O287 O 0.8812 0.85508 0.8559 0.0
O288 O 0.89805 0.873 0.87255 0.0
C289 C 0.89609 0.85711 0.86551 0.0
C290 C 0.87623 0.90487 0.83252 0.0
C291 C 0.91212 0.84939 0.85829 0.0
C292 C 0.93598 0.84919 0.83742 0.0
C293 C 0.92069 0.85696 0.84379 0.0
C294 C 0.93421 0.82627 0.85997 0.0
C295 C 0.9429 0.83371 0.84544 0.0
C296 C 0.919 0.83401 0.86629 0.0
C297 C 0.83987 0.87779 0.89715 0.0
C298 C 0.84185 0.87122 0.92889 0.0
C299 C 0.815 0.86328 0.91166 0.0
C300 C 0.82258 0.87026 0.89639 0.0
C301 C 0.82452 0.8637 0.92812 0.0
C302 C 0.84946 0.87814 0.91359 0.0
C303 C 0.847 0.8863 0.88102 0.0
O304 O 0.88472 0.90725 0.84795 0.0
O305 O 0.868 0.88931 0.83128 0.0
O306 O 0.84556 0.87701 0.8663 0.0
O307 O 0.86228 0.89509 0.88288 0.0
H308 H 0.84874 0.92057 0.84817 0.0
H309 H 0.831 0.94532 0.83674 0.0
H310 H 0.8624 0.94799 0.79009 0.0
H311 H 0.8804 0.92332 0.80184 0.0
H312 H 0.94252 0.85542 0.8264 0.0
H313 H 0.91561 0.86888 0.83747 0.0
H314 H 0.93911 0.81432 0.86638 0.0
H315 H 0.91256 0.82796 0.87749 0.0
H316 H 0.8494 0.87215 0.94141 0.0
H317 H 0.80165 0.85756 0.91061 0.0
H318 H 0.81479 0.86998 0.88396 0.0
H319 H 0.86273 0.88404 0.91475 0.0
C320 C 0.22127 0.66606 0.71204 0.0
C321 C 0.23212 0.6601 0.69867 0.0
C322 C 0.24372 0.63685 0.7184 0.0
C323 C 0.24321 0.64555 0.70181 0.0
C324 C 0.23271 0.64286 0.73165 0.0
C325 C 0.22166 0.65732 0.7285 0.0
U326 U 0.2038 0.70723 0.68639 0.0
O327 O 0.17614 0.71574 0.68202 0.0
O328 O 0.19533 0.73269 0.69715 0.0
C329 C 0.17864 0.7301 0.69172 0.0
C330 C 0.20934 0.68121 0.70926 0.0
C331 C 0.16516 0.73338 0.70493 0.0
C332 C 0.14641 0.72356 0.72885 0.0
C333 C 0.15952 0.72006 0.71669 0.0
C334 C 0.1446 0.75372 0.71773 0.0
C335 C 0.13887 0.74048 0.72956 0.0
C336 C 0.15762 0.7502 0.70558 0.0
C337 C 0.22567 0.72208 0.64274 0.0
C338 C 0.22914 0.75129 0.62902 0.0
C339 C 0.23389 0.72483 0.61196 0.0
C340 C 0.22981 0.71429 0.62663 0.0
C341 C 0.234 0.74346 0.61306 0.0
C342 C 0.225 0.7407 0.64374 0.0
C343 C 0.22345 0.71047 0.65844 0.0
O344 O 0.21681 0.69707 0.71101 0.0
O345 O 0.19781 0.68008 0.6957 0.0
O346 O 0.20882 0.70058 0.65859 0.0
O347 O 0.22804 0.7173 0.67403 0.0
H348 H 0.23201 0.66668 0.68585 0.0
H349 H 0.25151 0.6412 0.69134 0.0
H350 H 0.23247 0.63621 0.74442 0.0
H351 H 0.2133 0.66164 0.73895 0.0
H352 H 0.14225 0.7131 0.73779 0.0
H353 H 0.16519 0.70698 0.71641 0.0
H354 H 0.1388 0.76675 0.71766 0.0
H355 H 0.16172 0.76063 0.69656 0.0
H356 H 0.22885 0.7656 0.63022 0.0
H357 H 0.23772 0.71836 0.59994 0.0
H358 H 0.23045 0.69998 0.62555 0.0
H359 H 0.22173 0.74706 0.65599 0.0
C360 C 0.85368 0.72179 0.65171 0.0
C361 C 0.86019 0.73818 0.64554 0.0
C362 C 0.83644 0.73877 0.62243 0.0
C363 C 0.85167 0.74657 0.631 0.0
C364 C 0.83023 0.72215 0.62841 0.0
C365 C 0.83875 0.71377 0.64297 0.0
U366 U 0.88949 0.71837 0.68972 0.0
O367 O 0.88625 0.71024 0.71748 0.0
O368 O 0.90282 0.69458 0.70044 0.0
C369 C 0.89568 0.69588 0.71598 0.0
C370 C 0.86203 0.71302 0.66738 0.0
C371 C 0.88802 0.67937 0.72337 0.0
C372 C 0.86304 0.659 0.72807 0.0
C373 C 0.87006 0.6744 0.72019 0.0
C374 C 0.8919 0.6533 0.7422 0.0
C375 C 0.8739 0.64829 0.7392 0.0
C376 C 0.89887 0.66867 0.73435 0.0
C377 C 0.92711 0.75251 0.69699 0.0
C378 C 0.94951 0.74827 0.72073 0.0
C379 C 0.9493 0.77581 0.704 0.0
C380 C 0.93452 0.76943 0.69372 0.0
C381 C 0.95688 0.76533 0.71772 0.0
C382 C 0.93478 0.74194 0.7105 0.0
C383 C 0.91115 0.74606 0.68667 0.0
O384 O 0.87779 0.70631 0.66523 0.0
O385 O 0.86105 0.72149 0.68249 0.0
O386 O 0.89616 0.74653 0.69501 0.0
O387 O 0.91298 0.73112 0.67808 0.0
H388 H 0.87177 0.74453 0.65204 0.0
H389 H 0.85703 0.75918 0.62645 0.0
H390 H 0.81856 0.71581 0.62208 0.0
H391 H 0.83356 0.70109 0.64753 0.0
H392 H 0.84905 0.65568 0.72575 0.0
H393 H 0.86143 0.68253 0.7118 0.0
H394 H 0.90062 0.64529 0.75059 0.0
H395 H 0.91276 0.67229 0.73698 0.0
H396 H 0.9551 0.73981 0.73111 0.0
H397 H 0.95447 0.78908 0.70152 0.0
H398 H 0.92872 0.77782 0.68339 0.0
H399 H 0.92926 0.72885 0.71326 0.0
C400 C 0.85533 0.37299 0.65764 0.0
C401 C 0.86499 0.35727 0.6572 0.0
C402 C 0.84851 0.34822 0.63005 0.0
C403 C 0.86164 0.34499 0.64348 0.0
C404 C 0.83919 0.36419 0.63039 0.0
C405 C 0.84254 0.37642 0.64408 0.0
U406 U 0.88023 0.39024 0.69985 0.0
O407 O 0.8873 0.41778 0.70765 0.0
O408 O 0.86963 0.40153 0.72397 0.0
C409 C 0.87679 0.41734 0.72115 0.0
C410 C 0.85813 0.38587 0.67218 0.0
C411 C 0.86523 0.43283 0.72316 0.0
C412 C 0.83624 0.44568 0.72755 0.0
C413 C 0.84656 0.43105 0.72356 0.0
C414 C 0.86293 0.46422 0.73001 0.0
C415 C 0.84436 0.46235 0.7312 0.0
C416 C 0.87323 0.44963 0.7261 0.0
C417 C 0.92036 0.36372 0.71884 0.0
C418 C 0.93979 0.37203 0.74425 0.0
C419 C 0.94349 0.34388 0.72963 0.0
C420 C 0.92942 0.34775 0.71764 0.0
C421 C 0.94876 0.35588 0.74318 0.0
C422 C 0.92562 0.37589 0.7322 0.0
C423 C 0.90558 0.36719 0.70591 0.0
O424 O 0.85481 0.37988 0.68814 0.0
O425 O 0.87278 0.3957 0.67181 0.0
O426 O 0.90742 0.38129 0.69573 0.0
O427 O 0.88944 0.36514 0.71177 0.0
H428 H 0.87498 0.35443 0.66756 0.0
H429 H 0.86905 0.33282 0.64354 0.0
H430 H 0.82929 0.36725 0.62004 0.0
H431 H 0.83504 0.38854 0.64412 0.0
H432 H 0.82193 0.44388 0.72813 0.0
H433 H 0.83998 0.41829 0.72124 0.0
H434 H 0.86961 0.47683 0.7329 0.0
H435 H 0.88757 0.45135 0.72594 0.0
H436 H 0.9436 0.38154 0.75451 0.0
H437 H 0.9504 0.33155 0.72817 0.0
H438 H 0.92564 0.33825 0.70735 0.0
H439 H 0.91878 0.38832 0.7333 0.0
C440 C 0.16389 0.34444 0.71178 0.0
C441 C 0.16134 0.35077 0.72893 0.0
C442 C 0.13358 0.33337 0.73042 0.0
C443 C 0.14637 0.34527 0.73815 0.0
C444 C 0.1362 0.3271 0.7132 0.0
C445 C 0.15123 0.33257 0.704 0.0
U446 U 0.20385 0.37587 0.7042 0.0
O447 O 0.23122 0.36983 0.69707 0.0
O448 O 0.2145 0.38631 0.67935 0.0
C449 C 0.22973 0.37818 0.68173 0.0
C450 C 0.17963 0.35008 0.70189 0.0
C451 C 0.23709 0.36929 0.66617 0.0
C452 C 0.23657 0.36287 0.63445 0.0
C453 C 0.22829 0.36947 0.64931 0.0
C454 C 0.26246 0.35557 0.65297 0.0
C455 C 0.25379 0.35592 0.63609 0.0
C456 C 0.25422 0.36218 0.6678 0.0
C457 C 0.21358 0.41546 0.7349 0.0
C458 C 0.23881 0.43556 0.73068 0.0
C459 C 0.22002 0.43973 0.75558 0.0
C460 C 0.20946 0.42503 0.75006 0.0
C461 C 0.23496 0.44502 0.74607 0.0
C462 C 0.22827 0.42089 0.72519 0.0
C463 C 0.20265 0.39977 0.72944 0.0
O464 O 0.17824 0.36512 0.69307 0.0
O465 O 0.19513 0.34854 0.71046 0.0
O466 O 0.21041 0.38441 0.73163 0.0
O467 O 0.19391 0.40112 0.71404 0.0
H468 H 0.17092 0.35996 0.73519 0.0
H469 H 0.14482 0.3503 0.75141 0.0
H470 H 0.12647 0.31824 0.7067 0.0
H471 H 0.15291 0.3276 0.69074 0.0
H472 H 0.22956 0.36332 0.62161 0.0
H473 H 0.21518 0.37504 0.6475 0.0
H474 H 0.27587 0.35069 0.65465 0.0
H475 H 0.26149 0.3622 0.68051 0.0
H476 H 0.24997 0.43956 0.72283 0.0
H477 H 0.2167 0.44677 0.76744 0.0
H478 H 0.19814 0.42104 0.75771 0.0
H479 H 0.2316 0.41375 0.71339 0.0
C480 C 0.1629 0.34619 0.36075 0.0
C481 C 0.15196 0.36016 0.35493 0.0
C482 C 0.13075 0.33899 0.34094 0.0
C483 C 0.13602 0.35658 0.34511 0.0
C484 C 0.1421 0.32516 0.3462 0.0
C485 C 0.15795 0.32873 0.35603 0.0
U486 U 0.20675 0.37055 0.3767 0.0
O487 O 0.21609 0.37667 0.40416 0.0
O488 O 0.23146 0.35907 0.38784 0.0
C489 C 0.22943 0.3657 0.40371 0.0
C490 C 0.17875 0.34914 0.37278 0.0
C491 C 0.23193 0.3535 0.41915 0.0
C492 C 0.24056 0.32487 0.43172 0.0
C493 C 0.23594 0.33549 0.41698 0.0
C494 C 0.2365 0.34975 0.45116 0.0
C495 C 0.24121 0.33196 0.44897 0.0
C496 C 0.23196 0.36039 0.43643 0.0
C497 C 0.22441 0.4109 0.3497 0.0
C498 C 0.24862 0.43152 0.35842 0.0
C499 C 0.23483 0.43321 0.32887 0.0
C500 C 0.22343 0.41896 0.3329 0.0
C501 C 0.24753 0.43973 0.34157 0.0
C502 C 0.23716 0.41719 0.36245 0.0
C503 C 0.21169 0.39628 0.35351 0.0
O504 O 0.19427 0.34569 0.36634 0.0
O505 O 0.17907 0.36351 0.38263 0.0
O506 O 0.20227 0.39801 0.36768 0.0
O507 O 0.21742 0.38009 0.35148 0.0
H508 H 0.15551 0.37378 0.35828 0.0
H509 H 0.1277 0.36754 0.34099 0.0
H510 H 0.13838 0.31148 0.34329 0.0
H511 H 0.16613 0.31774 0.3604 0.0
H512 H 0.2442 0.31124 0.4296 0.0
H513 H 0.2361 0.32972 0.40387 0.0
H514 H 0.2373 0.35577 0.46419 0.0
H515 H 0.22914 0.37425 0.43852 0.0
H516 H 0.25808 0.43639 0.36858 0.0
H517 H 0.23372 0.43913 0.31576 0.0
H518 H 0.21372 0.41428 0.32287 0.0
H519 H 0.2381 0.41117 0.37553 0.0
C520 C 0.15891 0.7057 0.33344 0.0
C521 C 0.15539 0.71813 0.34658 0.0
C522 C 0.12815 0.72659 0.33023 0.0
C523 C 0.14015 0.72853 0.34497 0.0
C524 C 0.13196 0.71435 0.31697 0.0
C525 C 0.14716 0.70398 0.3186 0.0
U526 U 0.20315 0.69196 0.35617 0.0
O527 O 0.21367 0.66542 0.36175 0.0
O528 O 0.22795 0.68368 0.34422 0.0
C529 C 0.22682 0.66756 0.35091 0.0
C530 C 0.17465 0.69438 0.33493 0.0
C531 C 0.23022 0.65264 0.33883 0.0
C532 C 0.22286 0.62313 0.32716 0.0
C533 C 0.21807 0.63828 0.33641 0.0
C534 C 0.25156 0.63682 0.32171 0.0
C535 C 0.23987 0.62203 0.32017 0.0
C536 C 0.24681 0.65191 0.331 0.0
C537 C 0.22056 0.71829 0.39757 0.0
C538 C 0.24433 0.7099 0.41872 0.0
C539 C 0.23182 0.73919 0.41999 0.0
C540 C 0.22025 0.73502 0.40555 0.0
C541 C 0.24405 0.72673 0.42672 0.0
C542 C 0.23272 0.70573 0.40419 0.0
C543 C 0.2077 0.71429 0.38275 0.0
O544 O 0.18996 0.70227 0.33172 0.0
O545 O 0.17555 0.68375 0.34881 0.0
O546 O 0.19863 0.69922 0.38381 0.0
O547 O 0.21315 0.7177 0.36672 0.0
H548 H 0.16438 0.7197 0.35812 0.0
H549 H 0.13758 0.73788 0.35537 0.0
H550 H 0.12323 0.71284 0.30525 0.0
H551 H 0.14972 0.69457 0.30824 0.0
H552 H 0.21349 0.61203 0.32598 0.0
H553 H 0.20513 0.63845 0.3422 0.0
H554 H 0.26479 0.63634 0.31658 0.0
H555 H 0.25644 0.66275 0.33272 0.0
H556 H 0.25358 0.70003 0.42366 0.0
H557 H 0.23096 0.7521 0.42611 0.0
H558 H 0.21087 0.74484 0.40073 0.0
H559 H 0.23315 0.69271 0.39821 0.0
C560 C 0.83702 0.65443 0.35907 0.0
C561 C 0.84636 0.64846 0.34463 0.0
C562 C 0.82736 0.62173 0.34263 0.0
C563 C 0.84155 0.6323 0.33645 0.0
C564 C 0.81777 0.62798 0.35685 0.0
C565 C 0.82261 0.64416 0.36503 0.0
U566 U 0.86752 0.6957 0.36497 0.0
O567 O 0.86107 0.72325 0.37161 0.0
O568 O 0.87897 0.70807 0.38936 0.0
C569 C 0.87017 0.72284 0.38689 0.0
C570 C 0.84235 0.67112 0.3682 0.0
C571 C 0.8617 0.73053 0.40252 0.0
C572 C 0.8586 0.73237 0.43456 0.0
C573 C 0.86475 0.72359 0.41973 0.0
C574 C 0.84588 0.75499 0.41534 0.0
C575 C 0.84941 0.74837 0.43258 0.0
C576 C 0.85204 0.74625 0.40052 0.0
C577 C 0.9062 0.70317 0.3338 0.0
C578 C 0.9268 0.72846 0.33646 0.0
C579 C 0.93151 0.7057 0.31471 0.0
C580 C 0.91621 0.69653 0.3201 0.0
C581 C 0.93714 0.72164 0.32301 0.0
C582 C 0.91152 0.71928 0.34185 0.0
C583 C 0.89053 0.693 0.33977 0.0
O584 O 0.85773 0.6709 0.37715 0.0
O585 O 0.84014 0.68578 0.35888 0.0
O586 O 0.87511 0.70075 0.33744 0.0
O587 O 0.89251 0.6853 0.35539 0.0
H588 H 0.85745 0.65624 0.33975 0.0
H589 H 0.84893 0.62808 0.32525 0.0
H590 H 0.80678 0.62018 0.36187 0.0
H591 H 0.81521 0.64857 0.37615 0.0
H592 H 0.86154 0.72693 0.44766 0.0
H593 H 0.8723 0.71164 0.42185 0.0
H594 H 0.83848 0.76706 0.4133 0.0
H595 H 0.84961 0.75205 0.38749 0.0
H596 H 0.93056 0.7409 0.34285 0.0
H597 H 0.93918 0.70012 0.30433 0.0
H598 H 0.91229 0.68412 0.31371 0.0
H599 H 0.90392 0.72468 0.35238 0.0
C600 C 0.87612 0.40529 0.34399 0.0
C601 C 0.86055 0.41295 0.34983 0.0
C602 C 0.8628 0.43631 0.32734 0.0
C603 C 0.85391 0.42832 0.34152 0.0
C604 C 0.87827 0.42842 0.32149 0.0
C605 C 0.88486 0.41311 0.32977 0.0
U606 U 0.87762 0.367 0.37868 0.0
O607 O 0.88431 0.33905 0.37453 0.0
O608 O 0.90115 0.35563 0.39251 0.0
C609 C 0.89896 0.34017 0.38465 0.0
C610 C 0.88357 0.38916 0.35234 0.0
C611 C 0.91506 0.3326 0.37739 0.0
C612 C 0.93721 0.33103 0.35481 0.0
C613 C 0.92179 0.33849 0.36123 0.0
C614 C 0.93924 0.31174 0.38059 0.0
C615 C 0.9462 0.31767 0.36452 0.0
C616 C 0.92386 0.31915 0.38695 0.0
C617 C 0.84356 0.36182 0.41487 0.0
C618 C 0.84323 0.33646 0.43498 0.0
C619 C 0.82305 0.36057 0.43906 0.0
C620 C 0.82999 0.36941 0.42436 0.0
C621 C 0.82948 0.34392 0.44445 0.0
C622 C 0.85019 0.34532 0.42034 0.0
C623 C 0.8507 0.37125 0.39939 0.0
O624 O 0.8909 0.39105 0.36837 0.0
O625 O 0.87388 0.37449 0.35051 0.0
O626 O 0.84934 0.3626 0.38429 0.0
O627 O 0.86633 0.37916 0.4021 0.0
H628 H 0.85359 0.40707 0.36078 0.0
H629 H 0.84194 0.43408 0.3463 0.0
H630 H 0.88519 0.43397 0.31036 0.0
H631 H 0.89682 0.40732 0.32499 0.0
H632 H 0.94226 0.33586 0.34239 0.0
H633 H 0.91518 0.34887 0.35365 0.0
H634 H 0.94562 0.30124 0.38819 0.0
H635 H 0.91882 0.31435 0.39939 0.0
H636 H 0.84878 0.32386 0.43905 0.0
H637 H 0.81253 0.36667 0.44612 0.0
H638 H 0.82474 0.38217 0.42038 0.0
H639 H 0.86078 0.33932 0.4133 0.0
C640 C 0.73097 0.15979 0.71717 0.0
C641 C 0.73262 0.1473 0.70357 0.0
C642 C 0.74803 0.12717 0.72423 0.0
C643 C 0.74108 0.13116 0.70707 0.0
C644 C 0.74729 0.14014 0.7375 0.0
C645 C 0.73881 0.15623 0.73401 0.0
U646 U 0.71405 0.20235 0.69278 0.0
O647 O 0.68648 0.21125 0.6889 0.0
O648 O 0.70592 0.22756 0.70445 0.0
C649 C 0.6892 0.22535 0.69893 0.0
C650 C 0.71971 0.17563 0.7148 0.0
C651 C 0.67562 0.22868 0.71206 0.0
C652 C 0.65559 0.21864 0.73483 0.0
C653 C 0.66912 0.21516 0.72312 0.0
C654 C 0.65512 0.24919 0.72471 0.0
C655 C 0.64845 0.23572 0.73577 0.0
C656 C 0.66857 0.2457 0.71302 0.0
C657 C 0.73497 0.21799 0.64864 0.0
C658 C 0.72991 0.22321 0.61685 0.0
C659 C 0.75157 0.24139 0.63346 0.0
C660 C 0.74761 0.23208 0.64902 0.0
C661 C 0.74306 0.2368 0.61711 0.0
C662 C 0.72593 0.21391 0.63239 0.0
C663 C 0.73303 0.20614 0.66438 0.0
O664 O 0.72767 0.19126 0.71677 0.0
O665 O 0.70759 0.17523 0.7017 0.0
O666 O 0.7185 0.19611 0.66483 0.0
O667 O 0.73805 0.21263 0.68 0.0
H668 H 0.72683 0.1497 0.6904 0.0
H669 H 0.74169 0.12155 0.6965 0.0
H670 H 0.75243 0.13745 0.75087 0.0
H671 H 0.73769 0.1656 0.74474 0.0
H672 H 0.65073 0.20799 0.74318 0.0
H673 H 0.67437 0.2019 0.72258 0.0
H674 H 0.64964 0.26237 0.72478 0.0
H675 H 0.6733 0.25628 0.70451 0.0
H676 H 0.72315 0.21932 0.60446 0.0
H677 H 0.76206 0.25149 0.63408 0.0
H678 H 0.75507 0.23541 0.66119 0.0
H679 H 0.71628 0.20302 0.6315 0.0
C680 C 0.35627 0.22194 0.65991 0.0
C681 C 0.36739 0.23185 0.6489 0.0
C682 C 0.34196 0.23875 0.62897 0.0
C683 C 0.36031 0.24012 0.63358 0.0
C684 C 0.3309 0.22871 0.64 0.0
C685 C 0.33801 0.22037 0.6553 0.0
U686 U 0.39051 0.21792 0.69917 0.0
O687 O 0.38603 0.21129 0.72714 0.0
O688 O 0.40225 0.19402 0.71134 0.0
C689 C 0.39492 0.1965 0.72663 0.0
C690 C 0.3634 0.2133 0.67627 0.0
C691 C 0.38653 0.18074 0.73472 0.0
C692 C 0.36345 0.1576 0.73537 0.0
C693 C 0.37094 0.17269 0.7273 0.0
C694 C 0.38704 0.15855 0.75825 0.0
C695 C 0.37143 0.15038 0.75096 0.0
C696 C 0.39448 0.17358 0.75022 0.0
C697 C 0.42985 0.25025 0.70584 0.0
C698 C 0.44999 0.24762 0.73175 0.0
C699 C 0.45493 0.27105 0.71027 0.0
C700 C 0.43993 0.26496 0.70015 0.0
C701 C 0.45997 0.26259 0.72632 0.0
C702 C 0.43506 0.24154 0.72164 0.0
C703 C 0.41382 0.24414 0.69543 0.0
O704 O 0.37866 0.20528 0.67508 0.0
O705 O 0.36248 0.22253 0.69093 0.0
O706 O 0.39868 0.24589 0.7033 0.0
O707 O 0.41502 0.22865 0.68768 0.0
H708 H 0.38151 0.23329 0.6522 0.0
H709 H 0.36922 0.2477 0.62534 0.0
H710 H 0.31668 0.22769 0.63709 0.0
H711 H 0.32919 0.21283 0.66368 0.0
H712 H 0.35158 0.15143 0.72927 0.0
H713 H 0.36466 0.17801 0.71528 0.0
H714 H 0.39345 0.15338 0.77028 0.0
H715 H 0.40652 0.17963 0.75614 0.0
H716 H 0.45377 0.24053 0.74381 0.0
H717 H 0.46239 0.28255 0.70573 0.0
H718 H 0.43614 0.27183 0.68795 0.0
H719 H 0.42753 0.23008 0.7262 0.0
C720 C 0.34511 0.87164 0.65575 0.0
C721 C 0.34022 0.85374 0.65865 0.0
C722 C 0.34011 0.84786 0.62685 0.0
C723 C 0.33767 0.84203 0.64436 0.0
C724 C 0.34503 0.86575 0.624 0.0
C725 C 0.34746 0.87749 0.63827 0.0
U726 U 0.36874 0.8868 0.69918 0.0
O727 O 0.37828 0.91327 0.70808 0.0
O728 O 0.35834 0.89859 0.72323 0.0
C729 C 0.36787 0.91332 0.72166 0.0
C730 C 0.3476 0.88443 0.67063 0.0
C731 C 0.35911 0.93015 0.72535 0.0
C732 C 0.33663 0.95256 0.71951 0.0
C733 C 0.34418 0.93621 0.71541 0.0
C734 C 0.35881 0.95666 0.74346 0.0
C735 C 0.34401 0.96302 0.73353 0.0
C736 C 0.36624 0.94046 0.73941 0.0
C737 C 0.4063 0.8571 0.71816 0.0
C738 C 0.42635 0.86441 0.74339 0.0
C739 C 0.42843 0.83607 0.72869 0.0
C740 C 0.41444 0.84065 0.71687 0.0
C741 C 0.43451 0.84784 0.74214 0.0
C742 C 0.41229 0.86899 0.73151 0.0
C743 C 0.39199 0.86164 0.70509 0.0
O744 O 0.34296 0.87886 0.68638 0.0
O745 O 0.36266 0.89369 0.67115 0.0
O746 O 0.39505 0.87567 0.69515 0.0
O747 O 0.37567 0.86078 0.71071 0.0
H748 H 0.33821 0.84877 0.67194 0.0
H749 H 0.33343 0.82847 0.64702 0.0
H750 H 0.34704 0.87068 0.61069 0.0
H751 H 0.35117 0.89121 0.63563 0.0
H752 H 0.3253 0.95716 0.71157 0.0
H753 H 0.33849 0.9284 0.70448 0.0
H754 H 0.36467 0.96425 0.75447 0.0
H755 H 0.37769 0.936 0.74729 0.0
H756 H 0.43079 0.87376 0.75359 0.0
H757 H 0.43471 0.82341 0.72708 0.0
H758 H 0.4101 0.83137 0.70655 0.0
H759 H 0.40619 0.8818 0.73266 0.0
C760 C 0.64774 0.83178 0.70409 0.0
C761 C 0.64303 0.84137 0.71901 0.0
C762 C 0.61712 0.82174 0.72273 0.0
C763 C 0.62792 0.83638 0.72826 0.0
C764 C 0.62215 0.81187 0.70805 0.0
C765 C 0.63729 0.8169 0.69877 0.0
U766 U 0.6867 0.86392 0.69668 0.0
O767 O 0.71405 0.85943 0.68863 0.0
O768 O 0.69639 0.87626 0.67217 0.0
C769 C 0.71208 0.86895 0.67402 0.0
C770 C 0.66326 0.83746 0.69387 0.0
C771 C 0.71989 0.86214 0.65777 0.0
C772 C 0.73027 0.83818 0.63948 0.0
C773 C 0.72119 0.84391 0.65427 0.0
C774 C 0.73647 0.86877 0.63138 0.0
C775 C 0.73833 0.85058 0.62808 0.0
C776 C 0.72739 0.87446 0.64605 0.0
C777 C 0.69357 0.90274 0.72966 0.0
C778 C 0.71662 0.92582 0.72781 0.0
C779 C 0.69577 0.92648 0.75141 0.0
C780 C 0.68743 0.91095 0.7448 0.0
C781 C 0.71049 0.9341 0.74303 0.0
C782 C 0.70824 0.91025 0.72118 0.0
C783 C 0.68432 0.88651 0.72295 0.0
O784 O 0.66153 0.85258 0.68524 0.0
O785 O 0.6789 0.8361 0.70218 0.0
O786 O 0.69333 0.87178 0.72431 0.0
O787 O 0.67547 0.88807 0.70764 0.0
H788 H 0.65096 0.85283 0.72342 0.0
H789 H 0.62466 0.84402 0.73976 0.0
H790 H 0.61414 0.80052 0.70351 0.0
H791 H 0.64073 0.80929 0.68731 0.0
H792 H 0.73143 0.82408 0.63724 0.0
H793 H 0.71552 0.83414 0.66312 0.0
H794 H 0.74216 0.87864 0.62264 0.0
H795 H 0.72655 0.88858 0.64846 0.0
H796 H 0.72773 0.93153 0.72087 0.0
H797 H 0.69078 0.93246 0.76319 0.0
H798 H 0.67613 0.90535 0.75152 0.0
H799 H 0.71311 0.90414 0.7094 0.0
C800 C 0.65658 0.84392 0.35114 0.0
C801 C 0.64718 0.85871 0.34471 0.0
C802 C 0.62445 0.83919 0.33064 0.0
C803 C 0.63124 0.85636 0.33455 0.0
C804 C 0.63435 0.82448 0.33645 0.0
C805 C 0.6502 0.82683 0.34663 0.0
U806 U 0.70049 0.86664 0.36889 0.0
O807 O 0.70941 0.8718 0.39663 0.0
O808 O 0.72479 0.85435 0.38013 0.0
C809 C 0.7227 0.8608 0.39607 0.0
C810 C 0.67229 0.84577 0.36352 0.0
C811 C 0.72515 0.84857 0.41145 0.0
C812 C 0.73192 0.81947 0.42412 0.0
C813 C 0.72751 0.83022 0.40937 0.0
C814 C 0.73101 0.84506 0.44328 0.0
C815 C 0.73411 0.82686 0.4412 0.0
C816 C 0.72665 0.85576 0.42859 0.0
C817 C 0.71943 0.90855 0.34536 0.0
C818 C 0.74802 0.9201 0.33556 0.0
C819 C 0.72588 0.94043 0.34504 0.0
C820 C 0.71433 0.92608 0.34841 0.0
C821 C 0.74275 0.93763 0.33832 0.0
C822 C 0.73648 0.90571 0.339 0.0
C823 C 0.70632 0.89369 0.34749 0.0
O824 O 0.68785 0.84251 0.35705 0.0
O825 O 0.6727 0.85953 0.37419 0.0
O826 O 0.6961 0.89452 0.36119 0.0
O827 O 0.71169 0.87752 0.34449 0.0
H828 H 0.6519 0.87206 0.34789 0.0
H829 H 0.62407 0.86796 0.33001 0.0
H830 H 0.62944 0.8111 0.33374 0.0
H831 H 0.65723 0.81523 0.35144 0.0
H832 H 0.73399 0.80546 0.42211 0.0
H833 H 0.72641 0.82423 0.39634 0.0
H834 H 0.73276 0.85122 0.4562 0.0
H835 H 0.72505 0.86987 0.43058 0.0
H836 H 0.76104 0.9175 0.33066 0.0
H837 H 0.72142 0.95379 0.34722 0.0
H838 H 0.70122 0.92874 0.35308 0.0
H839 H 0.74086 0.89242 0.33641 0.0
C840 C 0.6582 0.21552 0.33998 0.0
C841 C 0.66086 0.23335 0.33484 0.0
C842 C 0.62875 0.2375 0.33198 0.0
C843 C 0.6463 0.24419 0.33085 0.0
C844 C 0.62612 0.21994 0.33791 0.0
C845 C 0.64068 0.20908 0.34182 0.0
U846 U 0.70184 0.19722 0.36182 0.0
O847 O 0.70988 0.16956 0.36601 0.0
O848 O 0.72545 0.18721 0.34899 0.0
C849 C 0.72308 0.17099 0.35513 0.0
C850 C 0.67321 0.20299 0.34154 0.0
C851 C 0.72554 0.15615 0.34263 0.0
C852 C 0.71846 0.12599 0.33257 0.0
C853 C 0.71406 0.14112 0.34205 0.0
C854 C 0.74542 0.14086 0.32336 0.0
C855 C 0.73441 0.12552 0.32345 0.0
C856 C 0.74104 0.15596 0.33284 0.0
C857 C 0.72363 0.21978 0.40366 0.0
C858 C 0.74878 0.23649 0.41722 0.0
C859 C 0.7356 0.2119 0.43318 0.0
C860 C 0.72338 0.20891 0.41892 0.0
C861 C 0.74839 0.22577 0.43254 0.0
C862 C 0.73653 0.23355 0.40299 0.0
C863 C 0.70968 0.21791 0.38916 0.0
O864 O 0.68915 0.20927 0.33801 0.0
O865 O 0.67335 0.19194 0.35512 0.0
O866 O 0.69881 0.20402 0.38985 0.0
O867 O 0.71457 0.22158 0.37297 0.0
H868 H 0.67416 0.23879 0.33323 0.0
H869 H 0.64874 0.25764 0.32625 0.0
H870 H 0.6128 0.21424 0.33853 0.0
H871 H 0.63818 0.19536 0.34554 0.0
H872 H 0.70972 0.11437 0.33292 0.0
H873 H 0.70205 0.14074 0.3495 0.0
H874 H 0.75801 0.14085 0.31687 0.0
H875 H 0.75027 0.16722 0.33325 0.0
H876 H 0.75818 0.24756 0.41649 0.0
H877 H 0.73495 0.20346 0.44483 0.0
H878 H 0.71352 0.1983 0.42004 0.0
H879 H 0.73688 0.24238 0.3916 0.0
C880 C 0.33363 0.15498 0.3697 0.0
C881 C 0.3429 0.13921 0.36725 0.0
C882 C 0.31569 0.12426 0.35566 0.0
C883 C 0.33403 0.12404 0.36029 0.0
C884 C 0.30659 0.1402 0.35765 0.0
C885 C 0.31543 0.15532 0.36468 0.0
U886 U 0.3701 0.19202 0.3737 0.0
O887 O 0.36763 0.22034 0.3801 0.0
O888 O 0.38399 0.20326 0.39752 0.0
C889 C 0.37744 0.21914 0.39488 0.0
C890 C 0.34228 0.17089 0.37819 0.0
C891 C 0.37073 0.22805 0.41057 0.0
C892 C 0.34983 0.23049 0.43421 0.0
C893 C 0.35575 0.2216 0.4193 0.0
C894 C 0.37381 0.25226 0.43178 0.0
C895 C 0.35877 0.24598 0.44059 0.0
C896 C 0.37969 0.2434 0.41694 0.0
C897 C 0.4072 0.19404 0.33989 0.0
C898 C 0.42972 0.2177 0.33852 0.0
C899 C 0.43045 0.19275 0.31848 0.0
C900 C 0.41531 0.18534 0.32608 0.0
C901 C 0.43777 0.20908 0.3245 0.0
C902 C 0.41454 0.21025 0.34614 0.0
C903 C 0.39102 0.18607 0.34733 0.0
O904 O 0.35782 0.16874 0.38651 0.0
O905 O 0.34147 0.18578 0.36903 0.0
O906 O 0.3766 0.19558 0.34569 0.0
O907 O 0.39309 0.17859 0.36305 0.0
H908 H 0.35695 0.13848 0.37094 0.0
H909 H 0.34144 0.11199 0.35891 0.0
H910 H 0.2926 0.14101 0.35378 0.0
H911 H 0.30797 0.16729 0.36637 0.0
H912 H 0.33839 0.22513 0.44087 0.0
H913 H 0.3487 0.20971 0.41463 0.0
H914 H 0.38094 0.26417 0.43626 0.0
H915 H 0.39128 0.24858 0.41038 0.0
H916 H 0.43523 0.23013 0.34368 0.0
H917 H 0.43629 0.18582 0.30767 0.0
H918 H 0.40984 0.17282 0.32107 0.0
H919 H 0.40851 0.21712 0.35687 0.0
C920 C 0.35691 0.91042 0.33688 0.0
C921 C 0.34129 0.91491 0.34517 0.0
C922 C 0.33562 0.93815 0.32309 0.0
C923 C 0.33078 0.92867 0.33837 0.0
C924 C 0.35152 0.9339 0.31508 0.0
C925 C 0.36204 0.92008 0.32189 0.0
U926 U 0.36584 0.87324 0.37053 0.0
O927 O 0.37453 0.84588 0.36662 0.0
O928 O 0.39103 0.86417 0.38319 0.0
C929 C 0.3895 0.84832 0.37602 0.0
C930 C 0.36775 0.89555 0.34365 0.0
C931 C 0.40566 0.84126 0.36842 0.0
C932 C 0.42712 0.83991 0.34519 0.0
C933 C 0.4119 0.84729 0.35211 0.0
C934 C 0.43002 0.82055 0.37085 0.0
C935 C 0.43631 0.82637 0.35446 0.0
C936 C 0.41486 0.8279 0.37772 0.0
C937 C 0.33408 0.86594 0.40858 0.0
C938 C 0.34097 0.84814 0.43488 0.0
C939 C 0.31044 0.85598 0.4277 0.0
C940 C 0.31602 0.86525 0.41267 0.0
C941 C 0.32285 0.84728 0.43899 0.0
C942 C 0.34652 0.85731 0.41982 0.0
C943 C 0.33969 0.8755 0.39251 0.0
O944 O 0.37617 0.8982 0.35907 0.0
O945 O 0.36 0.87976 0.34242 0.0
O946 O 0.33835 0.86641 0.37767 0.0
O947 O 0.35463 0.88487 0.3942 0.0
H948 H 0.33717 0.90769 0.35683 0.0
H949 H 0.31882 0.9319 0.34509 0.0
H950 H 0.3556 0.941 0.30334 0.0
H951 H 0.3741 0.91683 0.31535 0.0
H952 H 0.4318 0.8449 0.33268 0.0
H953 H 0.405 0.85765 0.34476 0.0
H954 H 0.43671 0.81011 0.37827 0.0
H955 H 0.41022 0.82304 0.39031 0.0
H956 H 0.35089 0.84164 0.44332 0.0
H957 H 0.29636 0.85526 0.43023 0.0
H958 H 0.3062 0.87174 0.4041 0.0
H959 H 0.36052 0.85759 0.41691 0.0
C960 C 0.7181 0.66244 0.22135 0.0
C961 C 0.72829 0.65584 0.20774 0.0
C962 C 0.73948 0.63243 0.2275 0.0
C963 C 0.73896 0.64097 0.21082 0.0
C964 C 0.72965 0.63947 0.24116 0.0
C965 C 0.71904 0.65427 0.23809 0.0
U966 U 0.7004 0.70401 0.19631 0.0
O967 O 0.67246 0.71152 0.19107 0.0
O968 O 0.69043 0.72863 0.20746 0.0
C969 C 0.67395 0.72536 0.20162 0.0
C970 C 0.70593 0.67738 0.21845 0.0
C971 C 0.65969 0.72732 0.21449 0.0
C972 C 0.6499 0.73396 0.24414 0.0
C973 C 0.66361 0.73091 0.23256 0.0
C974 C 0.62807 0.72945 0.21999 0.0
C975 C 0.63199 0.73348 0.23793 0.0
C976 C 0.64177 0.72651 0.2084 0.0
C977 C 0.72354 0.72143 0.15446 0.0
C978 C 0.71314 0.74514 0.13478 0.0
C979 C 0.74198 0.73235 0.13084 0.0
C980 C 0.73928 0.72091 0.14519 0.0
C981 C 0.72894 0.74458 0.1254 0.0
C982 C 0.71046 0.73365 0.14922 0.0
C983 C 0.72124 0.70903 0.16946 0.0
O984 O 0.71285 0.69338 0.22104 0.0
O985 O 0.695 0.67638 0.2044 0.0
O986 O 0.70689 0.69871 0.16866 0.0
O987 O 0.72482 0.71555 0.18537 0.0
H988 H 0.7278 0.66202 0.19473 0.0
H989 H 0.74646 0.63588 0.20007 0.0
H990 H 0.7301 0.63347 0.25426 0.0
H991 H 0.71138 0.65923 0.24879 0.0
H992 H 0.65331 0.73676 0.25795 0.0
H993 H 0.67726 0.73159 0.23775 0.0
H994 H 0.6144 0.72905 0.21481 0.0
H995 H 0.63835 0.72389 0.19454 0.0
H996 H 0.70297 0.75459 0.1311 0.0
H997 H 0.75422 0.7315 0.12385 0.0
H998 H 0.74953 0.71157 0.14902 0.0
H999 H 0.69824 0.73431 0.15629 0.0
C1000 C 0.34918 0.72246 0.14698 0.0
C1001 C 0.35617 0.73984 0.14556 0.0
C1002 C 0.33851 0.74446 0.11808 0.0
C1003 C 0.35087 0.75076 0.13125 0.0
C1004 C 0.33184 0.72692 0.11942 0.0
C1005 C 0.33709 0.71606 0.13374 0.0
U1006 U 0.37951 0.7118 0.18738 0.0
O1007 O 0.37329 0.70141 0.21379 0.0
O1008 O 0.39068 0.68642 0.19691 0.0
C1009 C 0.38251 0.68694 0.21197 0.0
C1010 C 0.35427 0.7109 0.16216 0.0
C1011 C 0.37482 0.67004 0.21871 0.0
C1012 C 0.34985 0.6517 0.22846 0.0
C1013 C 0.35636 0.66702 0.21991 0.0
C1014 C 0.38006 0.64209 0.23426 0.0
C1015 C 0.36168 0.63929 0.23612 0.0
C1016 C 0.38652 0.65728 0.22569 0.0
C1017 C 0.41845 0.74375 0.19945 0.0
C1018 C 0.44281 0.7364 0.2202 0.0
C1019 C 0.43842 0.76702 0.21141 0.0
C1020 C 0.42374 0.76171 0.20049 0.0
C1021 C 0.44811 0.75442 0.22142 0.0
C1022 C 0.42809 0.73112 0.20937 0.0
C1023 C 0.40277 0.73843 0.18816 0.0
O1024 O 0.36945 0.70275 0.161 0.0
O1025 O 0.35212 0.71759 0.17798 0.0
O1026 O 0.38737 0.73896 0.19574 0.0
O1027 O 0.40448 0.72408 0.17859 0.0
H1028 H 0.36565 0.74499 0.15558 0.0
H1029 H 0.35647 0.7641 0.13044 0.0
H1030 H 0.32224 0.72171 0.10955 0.0
H1031 H 0.33158 0.70267 0.13456 0.0
H1032 H 0.33562 0.64986 0.22964 0.0
H1033 H 0.34703 0.67666 0.21467 0.0
H1034 H 0.38948 0.63261 0.23967 0.0
H1035 H 0.4008 0.65932 0.22496 0.0
H1036 H 0.45002 0.72636 0.2277 0.0
H1037 H 0.4419 0.78103 0.21235 0.0
H1038 H 0.41639 0.77166 0.193 0.0
H1039 H 0.4242 0.71719 0.20882 0.0
C1040 C 0.35555 0.35827 0.15891 0.0
C1041 C 0.36838 0.35702 0.14591 0.0
C1042 C 0.34829 0.33796 0.12781 0.0
C1043 C 0.36478 0.34695 0.13054 0.0
C1044 C 0.3359 0.33844 0.14124 0.0
C1045 C 0.33946 0.34855 0.15657 0.0
U1046 U 0.37845 0.37661 0.20245 0.0
O1047 O 0.3842 0.40443 0.21012 0.0
O1048 O 0.36618 0.38787 0.22575 0.0
C1049 C 0.37308 0.40383 0.22312 0.0
C1050 C 0.35778 0.37093 0.17394 0.0
C1051 C 0.36122 0.41921 0.22467 0.0
C1052 C 0.33235 0.43175 0.23035 0.0
C1053 C 0.34274 0.41709 0.22659 0.0
C1054 C 0.35854 0.45096 0.22962 0.0
C1055 C 0.34022 0.44881 0.23233 0.0
C1056 C 0.3689 0.43635 0.2259 0.0
C1057 C 0.41941 0.3518 0.22347 0.0
C1058 C 0.43014 0.33856 0.25141 0.0
C1059 C 0.4512 0.34773 0.22958 0.0
C1060 C 0.43716 0.3537 0.21845 0.0
C1061 C 0.44781 0.33962 0.24598 0.0
C1062 C 0.41609 0.34458 0.24031 0.0
C1063 C 0.40469 0.35493 0.21008 0.0
O1064 O 0.35401 0.36482 0.18975 0.0
O1065 O 0.37185 0.38164 0.1742 0.0
O1066 O 0.40632 0.36884 0.1996 0.0
O1067 O 0.38829 0.35212 0.21506 0.0
H1068 H 0.38095 0.36429 0.14729 0.0
H1069 H 0.37466 0.34667 0.1205 0.0
H1070 H 0.32303 0.33177 0.13947 0.0
H1071 H 0.32929 0.34934 0.16628 0.0
H1072 H 0.31822 0.42969 0.2321 0.0
H1073 H 0.33638 0.40407 0.22568 0.0
H1074 H 0.36506 0.46386 0.23119 0.0
H1075 H 0.38311 0.43837 0.22461 0.0
H1076 H 0.4271 0.33233 0.26395 0.0
H1077 H 0.46459 0.34839 0.2248 0.0
H1078 H 0.44015 0.35895 0.20548 0.0
H1079 H 0.4026 0.34279 0.2446 0.0
C1080 C 0.66081 0.34306 0.20114 0.0
C1081 C 0.65465 0.34839 0.21756 0.0
C1082 C 0.62936 0.32752 0.21423 0.0
C1083 C 0.63905 0.34061 0.22409 0.0
C1084 C 0.63576 0.3222 0.19788 0.0
C1085 C 0.65128 0.32993 0.19141 0.0
U1086 U 0.70094 0.37665 0.19784 0.0
O1087 O 0.72817 0.37074 0.19041 0.0
O1088 O 0.71153 0.38773 0.17316 0.0
C1089 C 0.72638 0.3789 0.17499 0.0
C1090 C 0.67712 0.35071 0.19368 0.0
C1091 C 0.73151 0.36887 0.1592 0.0
C1092 C 0.73712 0.3411 0.14419 0.0
C1093 C 0.73184 0.35021 0.15918 0.0
C1094 C 0.74143 0.36908 0.12885 0.0
C1095 C 0.74212 0.35042 0.12888 0.0
C1096 C 0.73628 0.37818 0.14388 0.0
C1097 C 0.71014 0.41576 0.2298 0.0
C1098 C 0.72782 0.44244 0.22383 0.0
C1099 C 0.72245 0.434 0.25418 0.0
C1100 C 0.71244 0.41916 0.24806 0.0
C1101 C 0.73029 0.44584 0.24213 0.0
C1102 C 0.71792 0.42756 0.21773 0.0
C1103 C 0.69963 0.39993 0.22365 0.0
O1104 O 0.67563 0.36626 0.18584 0.0
O1105 O 0.69201 0.34918 0.2033 0.0
O1106 O 0.70757 0.38462 0.22551 0.0
O1107 O 0.69073 0.40147 0.20833 0.0
H1108 H 0.66186 0.35851 0.22528 0.0
H1109 H 0.63446 0.34494 0.23675 0.0
H1110 H 0.62887 0.31188 0.19017 0.0
H1111 H 0.6559 0.32556 0.17877 0.0
H1112 H 0.73748 0.32674 0.14465 0.0
H1113 H 0.72811 0.34265 0.17076 0.0
H1114 H 0.74468 0.37666 0.11714 0.0
H1115 H 0.736 0.39256 0.14351 0.0
H1116 H 0.73362 0.4513 0.21417 0.0
H1117 H 0.72441 0.43594 0.26835 0.0
H1118 H 0.70662 0.4102 0.25762 0.0
H1119 H 0.71642 0.42525 0.20357 0.0
C1120 C 0.67365 0.35043 0.85895 0.0
C1121 C 0.66707 0.36041 0.84437 0.0
C1122 C 0.64158 0.33985 0.84058 0.0
C1123 C 0.65114 0.35512 0.8352 0.0
C1124 C 0.64848 0.32986 0.855 0.0
C1125 C 0.6643 0.33509 0.86405 0.0
U1126 U 0.71534 0.38031 0.87059 0.0
O1127 O 0.7259 0.38855 0.897 0.0
O1128 O 0.74201 0.37211 0.88024 0.0
C1129 C 0.74077 0.3799 0.89568 0.0
C1130 C 0.68994 0.35567 0.86942 0.0
C1131 C 0.74684 0.36976 0.91148 0.0
C1132 C 0.74324 0.34614 0.9333 0.0
C1133 C 0.73717 0.35507 0.91787 0.0
C1134 C 0.76864 0.36645 0.93595 0.0
C1135 C 0.75905 0.35178 0.94252 0.0
C1136 C 0.76261 0.37531 0.92059 0.0
C1137 C 0.72818 0.4219 0.8443 0.0
C1138 C 0.75731 0.43497 0.83825 0.0
C1139 C 0.73211 0.45396 0.84141 0.0
C1140 C 0.72118 0.43902 0.84432 0.0
C1141 C 0.75031 0.45213 0.83834 0.0
C1142 C 0.7464 0.42002 0.84128 0.0
C1143 C 0.71626 0.40629 0.84726 0.0
O1144 O 0.70514 0.35407 0.86163 0.0
O1145 O 0.68917 0.3703 0.87876 0.0
O1146 O 0.70686 0.40682 0.86156 0.0
O1147 O 0.72285 0.39055 0.8445 0.0
H1148 H 0.67412 0.37233 0.84024 0.0
H1149 H 0.64609 0.36316 0.82424 0.0
H1150 H 0.64157 0.31793 0.85935 0.0
H1151 H 0.66917 0.32718 0.87521 0.0
H1152 H 0.73542 0.33504 0.93818 0.0
H1153 H 0.72491 0.35065 0.91106 0.0
H1154 H 0.78089 0.37105 0.94267 0.0
H1155 H 0.77024 0.38663 0.91586 0.0
H1156 H 0.77115 0.43303 0.83548 0.0
H1157 H 0.72631 0.46699 0.84159 0.0
H1158 H 0.7072 0.44086 0.84657 0.0
H1159 H 0.75224 0.40702 0.84111 0.0
C1160 C 0.67056 0.71793 0.8416 0.0
C1161 C 0.66712 0.73109 0.85404 0.0
C1162 C 0.64136 0.74055 0.83589 0.0
C1163 C 0.65259 0.74228 0.85123 0.0
C1164 C 0.64483 0.72722 0.82359 0.0
C1165 C 0.65931 0.71606 0.82641 0.0
U1166 U 0.7123 0.7016 0.86745 0.0
O1167 O 0.72099 0.67413 0.87227 0.0
O1168 O 0.73772 0.69283 0.8575 0.0
C1169 C 0.73516 0.67632 0.86276 0.0
C1170 C 0.68571 0.70598 0.84415 0.0
C1171 C 0.73852 0.66215 0.84983 0.0
C1172 C 0.74591 0.65254 0.82024 0.0
C1173 C 0.74052 0.66582 0.83168 0.0
C1174 C 0.74647 0.6315 0.84461 0.0
C1175 C 0.74937 0.63535 0.82669 0.0
C1176 C 0.74118 0.64477 0.85606 0.0
C1177 C 0.72735 0.72608 0.91118 0.0
C1178 C 0.75594 0.7351 0.92523 0.0
C1179 C 0.72951 0.73393 0.94249 0.0
C1180 C 0.71942 0.7281 0.92754 0.0
C1181 C 0.74778 0.73801 0.94139 0.0
C1182 C 0.74582 0.72921 0.91024 0.0
C1183 C 0.71572 0.72262 0.89516 0.0
O1184 O 0.70158 0.71335 0.84253 0.0
O1185 O 0.68496 0.69495 0.85769 0.0
O1186 O 0.70602 0.70787 0.89503 0.0
O1187 O 0.7223 0.72649 0.87968 0.0
H1188 H 0.67567 0.7327 0.86588 0.0
H1189 H 0.65022 0.7524 0.86095 0.0
H1190 H 0.6362 0.72525 0.81187 0.0
H1191 H 0.66169 0.70591 0.81672 0.0
H1192 H 0.74783 0.65583 0.80643 0.0
H1193 H 0.73845 0.67906 0.82642 0.0
H1194 H 0.74916 0.61842 0.85001 0.0
H1195 H 0.73978 0.64159 0.86997 0.0
H1196 H 0.77004 0.73786 0.92404 0.0
H1197 H 0.72278 0.73615 0.95468 0.0
H1198 H 0.70521 0.72587 0.92861 0.0
H1199 H 0.75235 0.7277 0.89782 0.0
C1200 C 0.34557 0.65595 0.85196 0.0
C1201 C 0.35685 0.64908 0.83948 0.0
C1202 C 0.33444 0.62629 0.83124 0.0
C1203 C 0.35137 0.63433 0.82926 0.0
C1204 C 0.32334 0.63304 0.844 0.0
C1205 C 0.32885 0.64778 0.85424 0.0
U1206 U 0.37582 0.69676 0.86366 0.0
O1207 O 0.36782 0.72299 0.87286 0.0
O1208 O 0.38469 0.70635 0.89019 0.0
C1209 C 0.37514 0.72073 0.88883 0.0
C1210 C 0.35089 0.6716 0.86272 0.0
C1211 C 0.36345 0.72392 0.90369 0.0
C1212 C 0.33785 0.71578 0.92102 0.0
C1213 C 0.3488 0.7126 0.90681 0.0
C1214 C 0.35602 0.74166 0.9291 0.0
C1215 C 0.3414 0.73027 0.93242 0.0
C1216 C 0.36694 0.73848 0.9149 0.0
C1217 C 0.41648 0.70796 0.835 0.0
C1218 C 0.43729 0.73292 0.83948 0.0
C1219 C 0.442 0.71167 0.81627 0.0
C1220 C 0.4266 0.70223 0.82096 0.0
C1221 C 0.44769 0.72702 0.82561 0.0
C1222 C 0.42187 0.72345 0.84417 0.0
C1223 C 0.40054 0.69743 0.83983 0.0
O1224 O 0.36594 0.67045 0.87214 0.0
O1225 O 0.34904 0.68708 0.85481 0.0
O1226 O 0.38512 0.7052 0.83751 0.0
O1227 O 0.4019 0.68841 0.85478 0.0
H1228 H 0.36985 0.65515 0.83761 0.0
H1229 H 0.36038 0.6292 0.8198 0.0
H1230 H 0.31025 0.62716 0.8458 0.0
H1231 H 0.31998 0.65288 0.86386 0.0
H1232 H 0.32671 0.70677 0.92321 0.0
H1233 H 0.34586 0.7013 0.89827 0.0
H1234 H 0.35889 0.75316 0.93736 0.0
H1235 H 0.37811 0.74744 0.91265 0.0
H1236 H 0.44105 0.74491 0.84668 0.0
H1237 H 0.44968 0.70676 0.80557 0.0
H1238 H 0.42265 0.69032 0.81369 0.0
H1239 H 0.4142 0.72817 0.85496 0.0
C1240 C 0.38061 0.41048 0.83373 0.0
C1241 C 0.3839 0.42778 0.84024 0.0
C1242 C 0.36684 0.4404 0.81515 0.0
C1243 C 0.37703 0.44254 0.83109 0.0
C1244 C 0.36328 0.4231 0.80882 0.0
C1245 C 0.37018 0.40835 0.81792 0.0
U1246 U 0.38433 0.37386 0.87002 0.0
O1247 O 0.39089 0.34567 0.86726 0.0
O1248 O 0.40821 0.36323 0.88381 0.0
C1249 C 0.40585 0.34736 0.87683 0.0
C1250 C 0.389 0.39479 0.84245 0.0
C1251 C 0.42167 0.33946 0.86936 0.0
C1252 C 0.44642 0.34033 0.84951 0.0
C1253 C 0.43115 0.34802 0.85599 0.0
C1254 C 0.44272 0.31538 0.86951 0.0
C1255 C 0.45249 0.32401 0.85635 0.0
C1256 C 0.42751 0.32306 0.87597 0.0
C1257 C 0.34994 0.37206 0.90682 0.0
C1258 C 0.34917 0.35011 0.93063 0.0
C1259 C 0.32722 0.37316 0.92881 0.0
C1260 C 0.33504 0.38006 0.91365 0.0
C1261 C 0.33411 0.35806 0.93745 0.0
C1262 C 0.35701 0.35704 0.91542 0.0
C1263 C 0.35774 0.37964 0.89074 0.0
O1264 O 0.39722 0.39728 0.85801 0.0
O1265 O 0.37985 0.3797 0.84153 0.0
O1266 O 0.3562 0.3698 0.8764 0.0
O1267 O 0.37353 0.38735 0.89295 0.0
H1268 H 0.39203 0.42999 0.85225 0.0
H1269 H 0.38004 0.45569 0.8363 0.0
H1270 H 0.35515 0.42095 0.79679 0.0
H1271 H 0.3675 0.39525 0.81245 0.0
H1272 H 0.45364 0.34729 0.83935 0.0
H1273 H 0.42681 0.36068 0.85068 0.0
H1274 H 0.44676 0.30261 0.87475 0.0
H1275 H 0.42031 0.31618 0.8862 0.0
H1276 H 0.355 0.33866 0.93716 0.0
H1277 H 0.31561 0.37954 0.93365 0.0
H1278 H 0.32939 0.39165 0.90719 0.0
H1279 H 0.36858 0.35073 0.91038 0.0
Cu1280 Cu 0.29297 0.29431 0.03827 0.0
N1281 N 0.29242 0.31441 1.02331 0.0
N1282 N 0.29976 0.33151 1.0002 0.0
C1283 C 0.3027 0.31621 1.00916 0.0
C1284 C 0.28725 0.3398 1.00922 0.0
C1285 C 0.28265 0.32918 1.02341 0.0
O1286 O 0.29309 0.27438 1.02174 0.0
C1287 C 0.31409 0.31237 0.0629 0.0
O1288 O 0.30209 0.32417 0.0585 0.0
H1289 H 0.31234 0.3065 1.00568 0.0
H1290 H 0.27299 0.33212 0.03313 0.0
N1291 N 0.27315 0.2908 0.05227 0.0
N1292 N 0.25697 0.27805 0.07336 0.0
C1293 C 0.27256 0.2783 0.06509 0.0
C1294 C 0.25735 0.29888 0.05244 0.0
C1295 C 0.24739 0.29111 0.06555 0.0
C1296 C 0.27996 0.27482 1.01044 0.0
O1297 O 0.26812 0.28724 1.01189 0.0
H1298 H 0.28357 0.2697 0.06844 0.0
H1299 H 0.25327 0.30952 0.04361 0.0
O1300 O 0.31327 0.29728 0.05525 0.0
H1301 H 0.28168 0.35253 1.0057 0.0
H1302 H 0.23404 0.29458 0.0689 0.0
Cu1303 Cu 0.79728 0.28955 0.03245 0.0
N1304 N 0.77742 0.29825 0.04587 0.0
N1305 N 0.76191 0.31179 0.06639 0.0
C1306 C 0.77829 0.30832 0.06063 0.0
C1307 C 0.75039 0.3035 0.05477 0.0
C1308 C 0.75998 0.29522 0.04212 0.0
O1309 O 0.80663 0.27626 0.05458 0.0
C1310 C 0.78679 0.31853 1.00805 0.0
O1311 O 0.7929 0.32876 1.02108 0.0
H1312 H 0.79066 0.31265 0.06721 0.0
H1313 H 0.75464 0.28752 0.03099 0.0
N1314 N 0.81719 0.28095 1.01896 0.0
N1315 N 0.83313 0.27065 0.99697 0.0
C1316 C 0.81674 0.27498 1.00208 0.0
C1317 C 0.83439 0.28043 1.02463 0.0
C1318 C 0.84421 0.27397 1.01117 0.0
C1319 C 0.81703 0.28315 0.06655 0.0
O1320 O 0.82242 0.29975 0.06476 0.0
H1321 H 0.80468 0.27376 0.99378 0.0
H1322 H 0.83955 0.28465 0.03754 0.0
O1323 O 0.78729 0.30176 1.01002 0.0
H1324 H 0.73602 0.30352 0.05531 0.0
H1325 H 0.85848 0.27222 1.01162 0.0
Cu1326 Cu 0.783 0.80053 0.02924 0.0
N1327 N 0.78307 0.8206 1.01439 0.0
N1328 N 0.79101 0.83797 0.99171 0.0
C1329 C 0.79243 0.82188 0.99956 0.0
C1330 C 0.78004 0.84708 1.00188 0.0
C1331 C 0.77523 0.83636 1.01594 0.0
O1332 O 0.78369 0.78015 1.01338 0.0
C1333 C 0.81335 0.81586 0.04827 0.0
O1334 O 0.81508 0.82593 0.03415 0.0
H1335 H 0.8001 0.8111 0.99466 0.0
H1336 H 0.76687 0.83989 1.02664 0.0
N1337 N 0.76246 0.79788 0.04227 0.0
N1338 N 0.74551 0.78753 0.06394 0.0
C1339 C 0.76178 0.78777 0.05702 0.0
C1340 C 0.74602 0.80442 0.03973 0.0
C1341 C 0.7355 0.79802 0.05311 0.0
C1342 C 0.77105 0.77996 1.00155 0.0
O1343 O 0.75922 0.79251 1.00154 0.0
H1344 H 0.77302 0.78047 0.06243 0.0
H1345 H 0.74196 0.81314 0.02893 0.0
O1346 O 0.80214 0.8029 0.04758 0.0
H1347 H 0.77612 0.86067 0.99957 0.0
H1348 H 0.72169 0.80109 0.05484 0.0
Cu1349 Cu 0.28267 0.77953 0.02884 0.0
N1350 N 0.26304 0.77725 0.04339 0.0
N1351 N 0.2449 0.78466 0.06488 0.0
C1352 C 0.25641 0.79059 0.05278 0.0
C1353 C 0.24408 0.76686 0.06287 0.0
C1354 C 0.25532 0.76233 0.04966 0.0
O1355 O 0.30382 0.77764 0.04466 0.0
C1356 C 0.26517 0.80169 1.00553 0.0
O1357 O 0.25308 0.7892 1.00825 0.0
H1358 H 0.26079 0.80431 0.05148 0.0
H1359 H 0.25859 0.74903 0.0458 0.0
N1360 N 0.28417 0.76114 1.01241 0.0
N1361 N 0.29537 0.74617 0.98999 0.0
C1362 C 0.29826 0.75908 1.00219 0.0
C1363 C 0.2718 0.74919 1.00642 0.0
C1364 C 0.27868 0.73995 0.99256 0.0
C1365 C 0.30531 0.78487 0.0599 0.0
O1366 O 0.29427 0.79742 0.0637 0.0
H1367 H 0.31003 0.76763 1.00309 0.0
H1368 H 0.25851 0.74778 1.01129 0.0
O1369 O 0.28007 0.80094 1.01427 0.0
H1370 H 0.23695 0.75766 0.07124 0.0
H1371 H 0.27179 0.7297 0.98474 0.0
Cu1372 Cu 0.0446 0.28076 0.29939 0.0
N1373 N 0.05925 0.26122 0.29661 0.0
N1374 N 0.08058 0.24515 0.28497 0.0
C1375 C 0.07169 0.26054 0.28429 0.0
C1376 C 0.07356 0.23581 0.29843 0.0
C1377 C 0.06033 0.24572 0.30553 0.0
O1378 O 0.06132 0.30105 0.3008 0.0
C1379 C 1.01808 0.26627 0.27786 0.0
O1380 O 1.02177 0.25319 0.28891 0.0
H1381 H 0.07439 0.27138 0.27523 0.0
H1382 H 0.05207 0.24184 0.31636 0.0
N1383 N 0.03129 0.27955 0.31987 0.0
N1384 N 1.00975 0.28597 0.33833 0.0
C1385 C 1.01572 0.28777 0.32176 0.0
C1386 C 0.03525 0.27209 0.33576 0.0
C1387 C 1.02194 0.27594 0.34714 0.0
C1388 C 0.06194 0.3123 0.31339 0.0
O1389 O 0.04873 0.31263 0.32422 0.0
H1390 H 1.00929 0.29556 0.31132 0.0
H1391 H 0.04716 0.26474 0.33898 0.0
O1392 O 1.02714 0.28074 0.27948 0.0
H1393 H 0.07758 0.2227 0.3027 0.0
H1394 H 1.02136 0.27167 0.36083 0.0
Cu1395 Cu 0.79486 0.04071 0.28735 0.0
N1396 N 0.815 0.05589 0.28861 0.0
N1397 N 0.83315 0.07865 0.28166 0.0
C1398 C 0.81684 0.07099 0.27908 0.0
C1399 C 0.84183 0.06808 0.29351 0.0
C1400 C 0.83063 0.05404 0.29774 0.0
O1401 O 0.77453 0.05652 0.28848 0.0
C1402 C 0.80978 1.02277 0.25868 0.0
O1403 O 0.82407 0.03212 0.26354 0.0
H1404 H 0.80657 0.07594 0.26996 0.0
H1405 H 0.83385 0.04304 0.30648 0.0
N1406 N 0.79419 1.02419 0.30607 0.0
N1407 N 0.78539 0.99989 0.32084 0.0
C1408 C 0.78402 1.00922 0.30553 0.0
C1409 C 0.80232 1.02435 0.32233 0.0
C1410 C 0.79679 1.00942 0.33153 0.0
C1411 C 0.77049 0.06186 0.30381 0.0
O1412 O 0.77894 0.05533 0.31787 0.0
H1413 H 0.77531 1.0056 0.29427 0.0
H1414 H 0.81121 0.0348 0.32736 0.0
O1415 O 0.7952 1.02567 0.26616 0.0
H1416 H 0.85531 0.07031 0.29877 0.0
H1417 H 0.80073 1.00592 0.34505 0.0
Cu1418 Cu 1.02476 0.78246 0.28611 0.0
N1419 N 1.01212 0.80363 0.28523 0.0
N1420 N 0.99106 0.82236 0.27553 0.0
C1421 C 0.99704 0.8056 0.27519 0.0
C1422 C 1.00294 0.83135 0.28623 0.0
C1423 C 1.01593 0.81976 0.29219 0.0
O1424 O 1.00689 0.76343 0.2887 0.0
C1425 C 0.05177 0.79381 0.26592 0.0
O1426 O 0.05255 0.80505 0.27919 0.0
H1427 H 0.99077 0.79494 0.26746 0.0
H1428 H 1.02765 0.82308 0.30039 0.0
N1429 N 0.04144 0.78028 0.30518 0.0
N1430 N 0.06534 0.76923 0.31967 0.0
C1431 C 0.05353 0.76737 0.30581 0.0
C1432 C 0.04572 0.79079 0.31919 0.0
C1433 C 0.06058 0.78403 0.3281 0.0
C1434 C 0.99969 0.76351 0.30373 0.0
O1435 O 1.00491 0.77578 0.31523 0.0
H1436 H 0.05414 0.75726 0.29572 0.0
H1437 H 0.03886 0.80272 0.32245 0.0
O1438 O 0.03931 0.782 0.26522 0.0
H1439 H 1.00278 0.84544 0.28888 0.0
H1440 H 0.06746 0.78965 0.33973 0.0
Cu1441 Cu 0.27015 1.02392 0.28995 0.0
N1442 N 0.27136 0.03765 0.31069 0.0
N1443 N 0.27964 0.06 0.329 0.0
C1444 C 0.28003 0.05348 0.31235 0.0
C1445 C 0.27046 0.04765 0.3382 0.0
C1446 C 0.26535 0.03393 0.32688 0.0
O1447 O 0.26941 0.04134 0.27051 0.0
C1448 C 0.28853 0.99547 0.3028 0.0
O1449 O 0.27465 0.99554 0.31281 0.0
H1450 H 0.28664 0.06002 0.30154 0.0
H1451 H 0.25817 1.0219 0.33037 0.0
N1452 N 0.24971 1.00895 0.28796 0.0
N1453 N 0.23221 0.98569 0.27972 0.0
C1454 C 0.24769 0.99467 0.27725 0.0
C1455 C 0.23493 1.0091 0.29742 0.0
C1456 C 0.22409 0.99484 0.29232 0.0
C1457 C 0.25437 0.0485 0.26724 0.0
O1458 O 0.24053 0.0427 0.2758 0.0
H1459 H 0.25764 0.99062 0.26822 0.0
H1460 H 0.23226 1.01883 0.30739 0.0
O1461 O 0.29028 1.0078 0.29126 0.0
H1462 H 0.26816 0.0481 0.35225 0.0
H1463 H 0.21117 0.99155 0.29741 0.0
Cu1464 Cu 0.04497 0.79375 0.78709 0.0
N1465 N 0.05878 0.77359 0.78451 0.0
N1466 N 0.08076 0.75746 0.77421 0.0
C1467 C 0.07373 0.77373 0.77525 0.0
C1468 C 0.06968 0.74657 0.78307 0.0
C1469 C 0.05617 0.75658 0.78951 0.0
O1470 O 0.06241 0.81317 0.79169 0.0
C1471 C 1.01687 0.78241 0.76619 0.0
O1472 O 1.01795 0.77044 0.7789 0.0
H1473 H 0.07891 0.7855 0.76877 0.0
H1474 H 0.04503 0.75171 0.7969 0.0
N1475 N 1.0298 0.79284 0.8063 0.0
N1476 N 1.00638 0.79974 0.8221 0.0
C1477 C 1.01573 0.80347 0.8076 0.0
C1478 C 1.02942 0.782 0.82054 0.0
C1479 C 1.01504 0.78634 0.83041 0.0
C1480 C 0.07065 0.81156 0.80677 0.0
O1481 O 0.06629 0.79813 0.81701 0.0
H1482 H 1.01248 0.81379 0.79804 0.0
H1483 H 0.03881 0.77162 0.82349 0.0
O1484 O 1.0286 0.79497 0.76614 0.0
H1485 H 0.07113 0.73237 0.78461 0.0
H1486 H 1.01106 0.77992 0.84254 0.0
Cu1487 Cu 0.30669 0.04825 0.79075 0.0
N1488 N 0.32647 0.06383 0.79237 0.0
N1489 N 0.34371 0.08735 0.78577 0.0
C1490 C 0.32813 0.07854 0.78229 0.0
C1491 C 0.35226 0.07769 0.79848 0.0
C1492 C 0.34155 0.06323 0.80262 0.0
O1493 O 0.28633 0.0641 0.7921 0.0
C1494 C 0.32337 1.02734 0.76708 0.0
O1495 O 0.3365 0.03173 0.77834 0.0
H1496 H 0.31825 0.0824 0.77223 0.0
H1497 H 0.34473 0.05287 0.81212 0.0
N1498 N 0.30631 0.03124 0.80899 0.0
N1499 N 0.29719 1.0067 0.82316 0.0
C1500 C 0.29658 1.01602 0.80782 0.0
C1501 C 0.31342 0.03157 0.82568 0.0
C1502 C 0.3077 1.01648 0.8345 0.0
C1503 C 0.27815 0.06554 0.80651 0.0
O1504 O 0.28142 0.05417 0.81941 0.0
H1505 H 0.28844 1.01236 0.79617 0.0
H1506 H 0.32147 0.04237 0.83131 0.0
O1507 O 0.30812 0.03401 0.76914 0.0
H1508 H 0.36534 0.08084 0.80435 0.0
H1509 H 0.31067 1.01315 0.84827 0.0
Cu1510 Cu 0.04826 0.2996 0.7944 0.0
N1511 N 0.03433 0.31998 0.79415 0.0
N1512 N 1.01103 0.33661 0.78602 0.0
C1513 C 1.01898 0.32088 0.78436 0.0
C1514 C 1.02195 0.34619 0.79715 0.0
C1515 C 0.03628 0.33582 0.80229 0.0
O1516 O 0.03057 0.28006 0.79489 0.0
C1517 C 0.0737 0.31538 0.77451 0.0
O1518 O 0.07221 0.32655 0.78765 0.0
H1519 H 1.01392 0.31021 0.77588 0.0
H1520 H 0.04736 0.33964 0.81117 0.0
N1521 N 0.06385 0.29709 0.81426 0.0
N1522 N 0.08673 0.28603 0.83044 0.0
C1523 C 0.07696 0.28519 0.81502 0.0
C1524 C 0.06525 0.3058 0.82981 0.0
C1525 C 0.07938 0.29898 0.83985 0.0
C1526 C 1.02046 0.28131 0.80801 0.0
O1527 O 1.02421 0.29371 0.81985 0.0
H1528 H 0.07944 0.27622 0.80428 0.0
H1529 H 0.0566 0.31626 0.83363 0.0
O1530 O 0.06369 0.30144 0.7741 0.0
H1531 H 1.01967 0.35965 0.80133 0.0
H1532 H 0.08367 0.30302 0.85312 0.0
Cu1533 Cu 0.78189 0.0359 0.77916 0.0
N1534 N 0.78496 0.05068 0.79896 0.0
N1535 N 0.79543 0.07383 0.81503 0.0
C1536 C 0.79454 0.06602 0.79894 0.0
C1537 C 0.78616 0.06286 0.82565 0.0
C1538 C 0.77964 0.04862 0.81568 0.0
O1539 O 0.78062 0.05245 0.75891 0.0
C1540 C 0.79988 1.00753 0.7927 0.0
O1541 O 0.787 1.00927 0.80377 0.0
H1542 H 0.80123 0.071 0.78743 0.0
H1543 H 0.77186 0.03744 0.82039 0.0
N1544 N 0.76097 1.02174 0.77931 0.0
N1545 N 0.74233 0.99885 0.77283 0.0
C1546 C 0.75794 1.00712 0.76931 0.0
C1547 C 0.74674 1.02287 0.78947 0.0
C1548 C 0.73517 1.00883 0.78542 0.0
C1549 C 0.76539 0.05879 0.75464 0.0
O1550 O 0.75135 0.05268 0.76267 0.0
H1551 H 0.76706 1.00271 0.75961 0.0
H1552 H 0.74496 0.03308 0.79921 0.0
O1553 O 0.80129 1.01887 0.78014 0.0
H1554 H 0.78428 0.06497 0.83963 0.0
H1555 H 0.72264 1.00597 0.79152 0.0
Cu1556 Cu 0.29018 0.78585 0.52757 0.0
N1557 N 0.30966 0.78921 0.54358 0.0
N1558 N 0.32504 0.80112 0.56682 0.0
C1559 C 0.30969 0.80105 0.55688 0.0
C1560 C 0.33516 0.78882 0.55936 0.0
C1561 C 0.3256 0.78144 0.54503 0.0
O1562 O 0.26946 0.78437 0.54241 0.0
C1563 C 0.30496 0.80369 0.50037 0.0
O1564 O 0.31629 0.79107 0.50423 0.0
H1565 H 0.29849 0.80935 0.55932 0.0
H1566 H 0.33 0.77129 0.53624 0.0
N1567 N 0.29031 0.76493 0.51426 0.0
N1568 N 0.28339 0.74734 0.49107 0.0
C1569 C 0.2819 0.76356 0.49821 0.0
C1570 C 0.29734 0.74889 0.51755 0.0
C1571 C 0.29294 0.73792 0.50325 0.0
C1572 C 0.2708 0.77211 0.55412 0.0
O1573 O 0.28489 0.76212 0.55457 0.0
H1574 H 0.27444 0.77425 0.49206 0.0
H1575 H 0.30495 0.74536 0.52949 0.0
O1576 O 0.29137 0.80494 0.50989 0.0
H1577 H 0.34865 0.78565 0.56363 0.0
H1578 H 0.2965 0.72416 0.50189 0.0
Cu1579 Cu 0.79108 0.7918 0.5323 0.0
N1580 N 0.81095 0.79254 0.51803 0.0
N1581 N 0.82755 0.78536 0.49524 0.0
C1582 C 0.81244 0.78198 0.50382 0.0
C1583 C 0.83605 0.7985 0.50458 0.0
C1584 C 0.82576 0.80293 0.51863 0.0
O1585 O 0.77084 0.78947 0.51527 0.0
C1586 C 0.80761 0.77737 0.56129 0.0
O1587 O 0.81644 0.7924 0.55904 0.0
H1588 H 0.80238 0.77218 0.49966 0.0
H1589 H 0.82889 0.81296 0.52854 0.0
N1590 N 0.78768 0.81242 0.54555 0.0
N1591 N 0.77765 0.82915 0.56733 0.0
C1592 C 0.77745 0.81292 0.55981 0.0
C1593 C 0.79453 0.82898 0.54387 0.0
C1594 C 0.78832 0.83933 0.55726 0.0
C1595 C 0.77039 0.80248 0.50434 0.0
O1596 O 0.78239 0.81534 0.5062 0.0
H1597 H 0.77025 0.80145 0.56477 0.0
H1598 H 0.80335 0.83324 0.53363 0.0
O1599 O 0.79509 0.77309 0.55004 0.0
H1600 H 0.84891 0.80431 0.50169 0.0
H1601 H 0.79122 0.85334 0.55919 0.0
Cu1602 Cu 0.79929 0.28238 0.53269 0.0
N1603 N 0.80117 0.26311 0.51729 0.0
N1604 N 0.79311 0.24632 0.49377 0.0
C1605 C 0.78797 0.25845 0.50549 0.0
C1606 C 0.81026 0.24305 0.49849 0.0
C1607 C 0.81523 0.25351 0.51295 0.0
O1608 O 0.798 0.30271 0.51653 0.0
C1609 C 0.77898 0.26228 0.5549 0.0
O1610 O 0.79127 0.2511 0.55069 0.0
H1611 H 0.77513 0.26471 0.50485 0.0
H1612 H 0.82841 0.25466 0.51917 0.0
N1613 N 0.81852 0.28633 0.54889 0.0
N1614 N 0.83278 0.29906 0.57235 0.0
C1615 C 0.81907 0.30005 0.56027 0.0
C1616 C 0.83246 0.27625 0.55389 0.0
C1617 C 0.84141 0.28421 0.56826 0.0
C1618 C 0.81215 0.30502 0.50793 0.0
O1619 O 0.82582 0.29492 0.51172 0.0
H1620 H 0.80926 0.31036 0.55991 0.0
H1621 H 0.83546 0.26363 0.54812 0.0
O1622 O 0.77903 0.27765 0.54766 0.0
H1623 H 0.81873 0.23406 0.49179 0.0
H1624 H 0.85284 0.27905 0.57565 0.0
Cu1625 Cu 0.30075 0.29527 0.53866 0.0
N1626 N 0.29894 0.31618 0.55181 0.0
N1627 N 0.28994 0.33328 0.57378 0.0
C1628 C 0.28961 0.31688 0.56665 0.0
C1629 C 0.2997 0.34342 0.56281 0.0
C1630 C 0.30534 0.3328 0.5493 0.0
O1631 O 0.30365 0.27655 0.55666 0.0
C1632 C 0.28139 0.30654 0.50989 0.0
O1633 O 0.29519 0.31754 0.51061 0.0
H1634 H 0.28239 0.30556 0.57189 0.0
H1635 H 0.3134 0.33693 0.5384 0.0
N1636 N 0.32055 0.2942 0.52435 0.0
N1637 N 0.33655 0.28488 0.50192 0.0
C1638 C 0.32139 0.28275 0.51076 0.0
C1639 C 0.33581 0.30389 0.52427 0.0
C1640 C 0.34577 0.29808 0.51049 0.0
C1641 C 0.31715 0.27983 0.56711 0.0
O1642 O 0.32701 0.29403 0.56392 0.0
H1643 H 0.31103 0.27295 0.50753 0.0
H1644 H 0.33937 0.31449 0.53345 0.0
O1645 O 0.28015 0.29453 0.52185 0.0
H1646 H 0.30265 0.35745 0.56451 0.0
H1647 H 0.35862 0.30338 0.50685 0.0
Cu1648 Cu 0.80611 0.55085 0.78448 0.0
N1649 N 0.8274 0.56421 0.78366 0.0
N1650 N 0.84611 0.58571 0.77483 0.0
C1651 C 0.82984 0.57794 0.77243 0.0
C1652 C 0.85419 0.57656 0.78822 0.0
C1653 C 0.84264 0.56323 0.7936 0.0
O1654 O 0.78694 0.56794 0.78511 0.0
C1655 C 0.81849 0.52315 0.76636 0.0
O1656 O 0.82973 0.52444 0.78011 0.0
H1657 H 0.81958 0.58247 0.76308 0.0
H1658 H 0.84512 0.55363 0.80408 0.0
N1659 N 0.80417 0.53652 0.80468 0.0
N1660 N 0.79367 0.51408 0.82109 0.0
C1661 C 0.79356 0.52191 0.80496 0.0
C1662 C 0.81126 0.53816 0.82129 0.0
C1663 C 0.80479 0.52429 0.83147 0.0
C1664 C 0.7898 0.57994 0.79684 0.0
O1665 O 0.80445 0.5795 0.80692 0.0
H1666 H 0.7858 0.51716 0.79346 0.0
H1667 H 0.82012 0.54887 0.82579 0.0
O1668 O 0.80591 0.53422 0.76469 0.0
H1669 H 0.8675 0.57929 0.79371 0.0
H1670 H 0.80756 0.52231 0.84553 0.0
Cu1671 Cu 0.29911 0.53673 0.7704 0.0
N1672 N 0.32003 0.52365 0.77012 0.0
N1673 N 0.33887 0.50199 0.77762 0.0
C1674 C 0.32342 0.50981 0.78106 0.0
C1675 C 0.34558 0.51142 0.76404 0.0
C1676 C 0.33389 0.52476 0.75941 0.0
O1677 O 0.2798 0.51896 0.77183 0.0
C1678 C 0.3146 0.56541 0.78665 0.0
O1679 O 0.32398 0.56341 0.7725 0.0
H1680 H 0.31444 0.50528 0.79107 0.0
H1681 H 0.33535 0.53449 0.74894 0.0
N1682 N 0.29458 0.5506 0.75002 0.0
N1683 N 0.2842 0.57367 0.73417 0.0
C1684 C 0.28556 0.56583 0.75029 0.0
C1685 C 0.29897 0.54855 0.73304 0.0
C1686 C 0.29246 0.56275 0.72319 0.0
C1687 C 0.28051 0.50696 0.76001 0.0
O1688 O 0.29277 0.50842 0.74815 0.0
H1689 H 0.27987 0.57092 0.76214 0.0
H1690 H 0.30636 0.53758 0.72816 0.0
O1691 O 0.3023 0.55394 0.78966 0.0
H1692 H 0.3581 0.50902 0.758 0.0
H1693 H 0.29386 0.56498 0.70911 0.0
Cu1694 Cu 0.301 0.53804 0.28414 0.0
N1695 N 0.3006 0.52301 0.30416 0.0
N1696 N 0.29133 0.50028 0.32099 0.0
C1697 C 0.28851 0.5097 0.30589 0.0
C1698 C 0.30576 0.50807 0.32921 0.0
C1699 C 0.31147 0.52209 0.31879 0.0
O1700 O 0.30175 0.52151 0.26426 0.0
C1701 C 0.27776 0.56007 0.30002 0.0
O1702 O 0.28837 0.55574 0.31355 0.0
H1703 H 0.27799 0.50678 0.29602 0.0
H1704 H 0.32266 0.53099 0.32174 0.0
N1705 N 0.32094 0.55348 0.28332 0.0
N1706 N 0.33772 0.57675 0.27472 0.0
C1707 C 0.32144 0.56873 0.27382 0.0
C1708 C 0.33753 0.55172 0.29041 0.0
C1709 C 0.3479 0.566 0.28512 0.0
C1710 C 0.3149 0.51109 0.2657 0.0
O1711 O 0.32643 0.51307 0.27914 0.0
H1712 H 0.31006 0.57374 0.26624 0.0
H1713 H 0.34198 0.54058 0.2984 0.0
O1714 O 0.28038 0.55345 0.28482 0.0
H1715 H 0.31159 0.50414 0.34196 0.0
H1716 H 0.36201 0.56789 0.28814 0.0
Cu1717 Cu 0.79594 0.53291 0.2796 0.0
N1718 N 0.81676 0.51949 0.28067 0.0
N1719 N 0.83543 0.49833 0.29012 0.0
C1720 C 0.8192 0.50539 0.29154 0.0
C1721 C 0.84348 0.5083 0.27771 0.0
C1722 C 0.83195 0.52136 0.27193 0.0
O1723 O 0.7763 0.51539 0.27714 0.0
C1724 C 0.81126 0.55814 0.30137 0.0
O1725 O 0.8231 0.55622 0.28924 0.0
H1726 H 0.80931 0.50057 0.30053 0.0
H1727 H 0.83458 0.53156 0.26219 0.0
N1728 N 0.79364 0.54844 0.26015 0.0
N1729 N 0.78214 0.57089 0.24413 0.0
C1730 C 0.78167 0.5615 0.25941 0.0
C1731 C 0.8021 0.54962 0.24477 0.0
C1732 C 0.7951 0.56358 0.23491 0.0
C1733 C 0.77758 0.50554 0.26352 0.0
O1734 O 0.79091 0.50872 0.25314 0.0
H1735 H 0.77293 0.56417 0.27008 0.0
H1736 H 0.81244 0.54089 0.24087 0.0
O1737 O 0.797 0.54857 0.30032 0.0
H1738 H 0.85664 0.5062 0.27294 0.0
H1739 H 0.79901 0.56783 0.22187 0.0
Cu1740 Cu 0.55168 0.28714 0.79202 0.0
N1741 N 0.53734 0.28513 0.81182 0.0
N1742 N 0.51521 0.29123 0.82967 0.0
C1743 C 0.52375 0.29593 0.8149 0.0
C1744 C 0.5237 0.27677 0.83607 0.0
C1745 C 0.53734 0.27304 0.82504 0.0
O1746 O 0.53464 0.28924 0.77176 0.0
C1747 C 0.57726 0.30562 0.81153 0.0
O1748 O 0.57336 0.29228 0.82207 0.0
H1749 H 0.52017 0.30702 0.80638 0.0
H1750 H 0.54646 0.26218 0.82646 0.0
N1751 N 0.56567 0.26729 0.78833 0.0
N1752 N 0.588 0.25173 0.77788 0.0
C1753 C 0.58099 0.26795 0.77964 0.0
C1754 C 0.56281 0.25002 0.79217 0.0
C1755 C 0.57653 0.24037 0.78566 0.0
C1756 C 0.52276 0.27684 0.7714 0.0
O1757 O 0.52387 0.26412 0.78334 0.0
H1758 H 0.58649 0.28007 0.77412 0.0
H1759 H 0.55138 0.24473 0.79885 0.0
O1760 O 0.56879 0.30683 0.79654 0.0
H1761 H 0.52003 0.26913 0.8476 0.0
H1762 H 0.57788 0.22611 0.78646 0.0
Cu1763 Cu 0.53482 0.79021 0.79063 0.0
N1764 N 0.55225 0.78942 0.80908 0.0
N1765 N 0.57773 0.78132 0.8229 0.0
C1766 C 0.56716 0.77999 0.80804 0.0
C1767 C 0.56901 0.79188 0.83386 0.0
C1768 C 0.55332 0.797 0.82523 0.0
O1769 O 0.54851 0.79144 0.76901 0.0
C1770 C 0.51056 0.76964 0.80822 0.0
O1771 O 0.51501 0.78198 0.81992 0.0
H1772 H 0.56997 0.77196 0.79668 0.0
H1773 H 0.54338 0.80549 0.83042 0.0
N1774 N 0.52047 0.81019 0.791 0.0
N1775 N 0.49709 0.82696 0.78363 0.0
C1776 C 0.50481 0.81112 0.78177 0.0
C1777 C 0.52284 0.82605 0.79902 0.0
C1778 C 0.50846 0.8365 0.79435 0.0
C1779 C 0.55763 0.80586 0.76752 0.0
O1780 O 0.55643 0.81806 0.77975 0.0
H1781 H 0.49944 0.80049 0.77341 0.0
H1782 H 0.53432 0.82986 0.80738 0.0
O1783 O 0.51815 0.77 0.79336 0.0
H1784 H 0.57369 0.79567 0.84711 0.0
H1785 H 0.50652 0.85005 0.79845 0.0
Cu1786 Cu 0.53523 0.78656 0.29071 0.0
N1787 N 0.52175 0.78693 0.31108 0.0
N1788 N 0.4995 0.79392 0.32842 0.0
C1789 C 0.50642 0.79571 0.31225 0.0
C1790 C 0.51106 0.78369 0.33784 0.0
C1791 C 0.52474 0.77932 0.32708 0.0
O1792 O 0.51802 0.78499 0.2706 0.0
C1793 C 0.55394 0.8177 0.3035 0.0
O1794 O 0.54145 0.81832 0.31512 0.0
H1795 H 0.50076 0.80367 0.30153 0.0
H1796 H 0.5361 0.77129 0.33068 0.0
N1797 N 0.54986 0.76687 0.28964 0.0
N1798 N 0.57256 0.75096 0.2806 0.0
C1799 C 0.56489 0.76698 0.28052 0.0
C1800 C 0.54787 0.75014 0.29574 0.0
C1801 C 0.56183 0.74024 0.29005 0.0
C1802 C 0.50678 0.77214 0.27188 0.0
O1803 O 0.5083 0.76156 0.28575 0.0
H1804 H 0.56969 0.77847 0.27331 0.0
H1805 H 0.53687 0.74537 0.30339 0.0
O1806 O 0.55216 0.80667 0.29076 0.0
H1807 H 0.50968 0.7796 0.35151 0.0
H1808 H 0.56384 0.72624 0.2925 0.0
Cu1809 Cu 0.53539 0.27781 0.2808 0.0
N1810 N 0.52186 0.25664 0.28217 0.0
N1811 N 0.50004 0.2381 0.29056 0.0
C1812 C 0.50764 0.25444 0.29233 0.0
C1813 C 0.5101 0.22957 0.27903 0.0
C1814 C 0.52352 0.24107 0.27381 0.0
O1815 O 0.51846 0.29716 0.2818 0.0
C1816 C 0.56641 0.26525 0.29539 0.0
O1817 O 0.56443 0.25625 0.28055 0.0
H1818 H 0.50307 0.26467 0.30096 0.0
H1819 H 0.53366 0.2383 0.26452 0.0
N1820 N 0.54672 0.28089 0.25929 0.0
N1821 N 0.56669 0.2914 0.24046 0.0
C1822 C 0.56104 0.29166 0.2572 0.0
C1823 C 0.54312 0.2735 0.2433 0.0
C1824 C 0.55546 0.27994 0.23165 0.0
C1825 C 0.50525 0.2952 0.2707 0.0
O1826 O 0.50458 0.28122 0.26034 0.0
H1827 H 0.56721 0.29955 0.26783 0.0
H1828 H 0.53241 0.264 0.24037 0.0
O1829 O 0.55455 0.27634 0.29917 0.0
H1830 H 0.50773 0.21609 0.27447 0.0
H1831 H 0.55635 0.27612 0.21791 0.0
C1832 C 0.23829 0.26191 0.11643 0.0
C1833 C 0.24329 0.244 0.11714 0.0
C1834 C 0.24248 0.2729 0.10195 0.0
C1835 C 0.25187 0.2664 0.08767 0.0
H1836 H 0.23146 0.26761 0.12734 0.0
H1837 H 0.23878 0.2867 0.10214 0.0
S1838 S 0.26581 0.21992 0.08191 0.0
N1839 N 0.25662 0.2199 0.10142 0.0
N1840 N 0.26451 0.24049 0.07438 0.0
C1841 C 0.25636 0.24837 0.08793 0.0
C1842 C 0.25207 0.2372 0.1026 0.0
C1843 C 0.83817 0.27145 0.11188 0.0
C1844 C 0.83459 0.25311 0.11349 0.0
C1845 C 0.83251 0.28099 0.09667 0.0
C1846 C 0.82305 0.27258 0.0824 0.0
H1847 H 0.84516 0.27858 0.1226 0.0
H1848 H 0.83546 0.29512 0.09622 0.0
S1849 S 0.81148 0.22443 0.0795 0.0
N1850 N 0.82187 0.22669 0.09911 0.0
N1851 N 0.81108 0.24452 0.07066 0.0
C1852 C 0.81965 0.25415 0.08374 0.0
C1853 C 0.82543 0.24446 0.09923 0.0
C1854 C 0.83696 0.84606 0.08235 0.0
C1855 C 0.83122 0.83935 0.09864 0.0
C1856 C 0.83214 0.83762 0.06626 0.0
C1857 C 0.82121 0.82215 0.06571 0.0
H1858 H 0.84485 0.85826 0.08197 0.0
H1859 H 0.83641 0.84379 0.05409 0.0
S1860 S 0.80379 0.79841 0.10494 0.0
N1861 N 0.81497 0.8157 0.11342 0.0
N1862 N 0.80591 0.79975 0.08326 0.0
C1863 C 0.81621 0.81473 0.08204 0.0
C1864 C 0.82119 0.82334 0.09846 0.0
C1865 C 0.24195 0.81792 0.10177 0.0
C1866 C 0.22488 0.81449 0.10821 0.0
C1867 C 0.24828 0.8083 0.08752 0.0
C1868 C 0.23784 0.79479 0.07912 0.0
H1869 H 0.25067 0.82793 0.10798 0.0
H1870 H 0.26163 0.81121 0.08332 0.0
S1871 S 0.19174 0.78143 0.08989 0.0
N1872 N 0.19727 0.79721 0.10435 0.0
N1873 N 0.20929 0.77905 0.07772 0.0
C1874 C 0.22069 0.79134 0.08526 0.0
C1875 C 0.21419 0.80119 0.09974 0.0
C1876 C 0.23971 0.82797 0.97008 0.0
C1877 C 0.25314 0.8368 0.96079 0.0
C1878 C 0.24381 0.81734 0.98495 0.0
C1879 C 0.26153 0.81502 0.99125 0.0
H1880 H 0.22586 0.82917 0.96575 0.0
H1881 H 0.23291 0.8106 0.99136 0.0
S1882 S 0.30173 0.83536 0.9718 0.0
N1883 N 0.28499 0.84267 0.95907 0.0
N1884 N 0.29266 0.82277 0.98715 0.0
C1885 C 0.27511 0.82417 0.98242 0.0
C1886 C 0.27093 0.83501 0.96718 0.0
C1887 C 0.27089 0.26237 0.96262 0.0
C1888 C 0.26749 0.24394 0.96341 0.0
C1889 C 0.27616 0.27199 0.97785 0.0
C1890 C 0.27863 0.26359 0.99444 0.0
H1891 H 0.26838 0.26963 0.95036 0.0
H1892 H 0.2775 0.28631 0.9768 0.0
S1893 S 0.27334 0.21544 1.00347 0.0
N1894 N 0.26829 0.21744 0.98201 0.0
N1895 N 0.2785 0.23568 1.01065 0.0
C1896 C 0.27641 0.24507 0.9953 0.0
C1897 C 0.27074 0.23522 0.97979 0.0
C1898 C 0.85762 0.24541 0.96305 0.0
C1899 C 0.8514 0.25287 0.94685 0.0
C1900 C 0.85129 0.25104 0.97928 0.0
C1901 C 0.8383 0.26415 0.98 0.0
H1902 H 0.86788 0.23553 0.96322 0.0
H1903 H 0.85672 0.24518 0.99144 0.0
S1904 S 0.81706 0.28734 0.94139 0.0
N1905 N 0.83104 0.27365 0.93251 0.0
N1906 N 0.81914 0.28418 0.96307 0.0
C1907 C 0.83158 0.27137 0.96391 0.0
C1908 C 0.83816 0.26577 0.94734 0.0
C1909 C 0.79874 0.8616 0.94836 0.0
C1910 C 0.81615 0.85676 0.94448 0.0
C1911 C 0.79068 0.85552 0.96382 0.0
C1912 C 0.79962 0.84421 0.97595 0.0
H1913 H 0.79134 0.87037 0.93948 0.0
H1914 H 0.77726 0.85955 0.9662 0.0
S1915 S 0.84545 0.82762 0.97206 0.0
N1916 N 0.84199 0.83979 0.95402 0.0
N1917 N 0.82706 0.82873 0.98319 0.0
C1918 C 0.81704 0.83927 0.97224 0.0
C1919 C 0.82525 0.84547 0.95652 0.0
C1920 C 0.12388 0.22638 0.27074 0.0
C1921 C 0.12418 0.23127 0.25269 0.0
C1922 C 0.10948 0.23068 0.28115 0.0
C1923 C 0.09485 0.24004 0.27391 0.0
H1924 H 0.13506 0.21957 0.27698 0.0
H1925 H 0.11001 0.22706 0.29508 0.0
S1926 S 0.08802 0.25372 0.2268 0.0
N1927 N 0.10777 0.24452 0.22769 0.0
N1928 N 0.08083 0.25252 0.24717 0.0
C1929 C 0.09471 0.24441 0.25574 0.0
C1930 C 0.10932 0.24005 0.24517 0.0
C1931 C 0.83516 0.12466 0.26167 0.0
C1932 C 0.85273 0.12607 0.25592 0.0
C1933 C 0.82882 0.1091 0.26993 0.0
C1934 C 0.83989 0.09448 0.27305 0.0
H1935 H 0.8262 0.13561 0.25964 0.0
H1936 H 0.81523 0.1086 0.27415 0.0
S1937 S 0.88694 0.09138 0.26051 0.0
N1938 N 0.88109 0.11147 0.254 0.0
N1939 N 0.86916 0.08229 0.26934 0.0
C1940 C 0.85747 0.09572 0.26735 0.0
C1941 C 0.86387 0.11147 0.25882 0.0
C1942 C 0.95787 0.82915 0.23741 0.0
C1943 C 0.94687 0.84244 0.24364 0.0
C1944 C 0.97218 0.8227 0.2479 0.0
C1945 C 0.9762 0.82931 0.26506 0.0
H1946 H 0.9553 0.82353 0.22433 0.0
H1947 H 0.9803 0.81257 0.24241 0.0
S1948 S 0.95156 0.86415 0.28769 0.0
N1949 N 0.94108 0.86211 0.26809 0.0
N1950 N 0.96784 0.84977 0.28792 0.0
C1951 C 0.96534 0.84261 0.27149 0.0
C1952 C 0.95069 0.84917 0.26079 0.0
C1953 C 0.22133 0.95193 0.24375 0.0
C1954 C 0.21167 0.93867 0.25274 0.0
C1955 C 0.22827 0.96711 0.25268 0.0
C1956 C 0.2258 0.96961 0.27092 0.0
H1957 H 0.22312 0.95081 0.22963 0.0
H1958 H 0.23521 0.9772 0.24517 0.0
S1959 S 0.20386 0.93758 0.30102 0.0
N1960 N 0.20162 0.92824 0.28127 0.0
N1961 N 0.21464 0.95661 0.29794 0.0
C1962 C 0.21682 0.9561 0.28016 0.0
C1963 C 0.20978 0.94069 0.27111 0.0
C1964 C 0.10303 0.83433 0.8391 0.0
C1965 C 0.11793 0.83812 0.82894 0.0
C1966 C 0.08726 0.82708 0.83137 0.0
C1967 C 0.08558 0.82343 0.8131 0.0
H1968 H 0.10381 0.83628 0.85334 0.0
H1969 H 0.07654 0.8235 0.83998 0.0
S1970 S 0.12001 0.83232 0.78023 0.0
N1971 N 0.12957 0.83883 0.79932 0.0
N1972 N 0.0997 0.82528 0.78475 0.0
C1973 C 0.09987 0.82827 0.8025 0.0
C1974 C 0.1161 0.83561 0.81043 0.0
C1975 C 0.26637 0.11428 0.80919 0.0
C1976 C 0.25528 0.11454 0.82381 0.0
C1977 C 0.27262 0.09821 0.8026 0.0
C1978 C 0.2682 0.08181 0.81057 0.0
H1979 H 0.27074 0.12663 0.80317 0.0
H1980 H 0.28183 0.09876 0.79193 0.0
S1981 S 0.23866 0.07514 0.84842 0.0
N1982 N 0.23945 0.09686 0.84539 0.0
N1983 N 0.25102 0.06682 0.83305 0.0
C1984 C 0.25639 0.08187 0.82458 0.0
C1985 C 0.24998 0.09817 0.83119 0.0
C1986 C 0.98751 0.24197 0.80891 0.0
C1987 C 0.97268 0.24937 0.81679 0.0
C1988 C 1.00279 0.2524 0.80532 0.0
C1989 C 1.00377 0.27056 0.80962 0.0
H1990 H 0.98753 0.2279 0.806 0.0
H1991 H 1.01412 0.24609 0.79982 0.0
S1992 S 0.96754 0.2969 0.82771 0.0
N1993 N 0.95925 0.27644 0.82664 0.0
N1994 N 0.98788 0.29583 0.8204 0.0
C1995 C 0.9887 0.27823 0.81668 0.0
C1996 C 0.9732 0.26771 0.82015 0.0
C1997 C 0.84092 0.97898 0.79892 0.0
C1998 C 0.83354 0.9628 0.80506 0.0
C1999 C 0.83 0.9933 0.79383 0.0
C2000 C 0.81137 0.99186 0.7948 0.0
H2001 H 0.85525 0.98085 0.79876 0.0
H2002 H 0.83619 1.00579 0.79 0.0
S2003 S 0.78537 0.95146 0.80701 0.0
N2004 N 0.80635 0.94558 0.80948 0.0
N2005 N 0.78599 0.97238 0.80039 0.0
C2006 C 0.80386 0.97542 0.79989 0.0
C2007 C 0.81489 0.96092 0.80489 0.0
C2008 C 0.23147 0.08403 0.23969 0.0
C2009 C 0.24387 0.09831 0.24029 0.0
C2010 C 0.23553 0.06758 0.24745 0.0
C2011 C 0.25224 0.06458 0.25593 0.0
H2012 H 0.21813 0.08586 0.23408 0.0
H2013 H 0.22518 0.05733 0.24744 0.0
S2014 S 0.29011 0.09694 0.25949 0.0
N2015 N 0.27412 0.10791 0.24881 0.0
N2016 N 0.28177 0.07687 0.26333 0.0
C2017 C 0.26519 0.07834 0.25566 0.0
C2018 C 0.26098 0.09524 0.24792 0.0
C2019 C 0.26711 0.97447 0.84669 0.0
C2020 C 0.26399 0.96097 0.83402 0.0
C2021 C 0.27837 0.98914 0.84328 0.0
C2022 C 0.28688 0.99086 0.82706 0.0
H2023 H 0.26041 0.97395 0.85913 0.0
H2024 H 0.27995 0.99949 0.85315 0.0
S2025 S 0.28513 0.95798 0.7906 0.0
N2026 N 0.27173 0.94945 0.80538 0.0
N2027 N 0.29278 0.97702 0.79897 0.0
C2028 C 0.28442 0.97714 0.81459 0.0
C2029 C 0.27301 0.96221 0.81807 0.0
C2030 C 0.11634 0.24639 0.83383 0.0
C2031 C 0.1318 0.25306 0.8429 0.0
C2032 C 0.10161 0.25713 0.83017 0.0
C2033 C 0.10165 0.27501 0.83546 0.0
H2034 H 0.11562 0.23271 0.82943 0.0
H2035 H 0.09008 0.25138 0.82309 0.0
S2036 S 0.13897 0.29918 0.85916 0.0
N2037 N 0.14632 0.27885 0.85689 0.0
N2038 N 0.1186 0.29901 0.85006 0.0
C2039 C 0.1169 0.28183 0.84478 0.0
C2040 C 0.13196 0.27087 0.84849 0.0
C2041 C 0.82422 0.10645 0.84165 0.0
C2042 C 0.82498 0.1214 0.83037 0.0
C2043 C 0.81442 0.09106 0.83663 0.0
C2044 C 0.80516 0.08991 0.82005 0.0
H2045 H 0.83101 0.10675 0.8546 0.0
H2046 H 0.81426 0.07988 0.84571 0.0
S2047 S 0.80287 0.12529 0.78561 0.0
N2048 N 0.81571 0.13399 0.80178 0.0
N2049 N 0.79717 0.10517 0.79245 0.0
C2050 C 0.80586 0.10472 0.80861 0.0
C2051 C 0.81576 0.12043 0.81376 0.0
C2052 C 0.97288 0.82016 0.85122 0.0
C2053 C 0.95923 0.82532 0.83899 0.0
C2054 C 0.98817 0.81176 0.84562 0.0
C2055 C 0.99049 0.80827 0.82758 0.0
H2056 H 0.9718 0.82273 0.86525 0.0
H2057 H 0.99838 0.80818 0.85547 0.0
S2058 S 0.95811 0.81764 0.79038 0.0
N2059 N 0.94866 0.82535 0.80808 0.0
N2060 N 0.97739 0.80966 0.7976 0.0
C2061 C 0.97689 0.81317 0.81522 0.0
C2062 C 0.9613 0.82169 0.82092 0.0
C2063 C 0.8064 0.97479 0.24334 0.0
C2064 C 0.82107 0.9735 0.23239 0.0
C2065 C 0.80183 0.99112 0.25071 0.0
C2066 C 0.81194 1.00673 0.24762 0.0
H2067 H 0.79876 0.96297 0.24671 0.0
H2068 H 0.79099 0.99127 0.25974 0.0
S2069 S 0.85088 1.01075 0.21906 0.0
N2070 N 0.84506 0.98951 0.21815 0.0
N2071 N 0.83651 1.02004 0.2319 0.0
C2072 C 0.82606 1.00575 0.23601 0.0
C2073 C 0.83062 0.9892 0.22843 0.0
C2074 C 0.07866 0.80186 0.22509 0.0
C2075 C 0.09625 0.80258 0.23244 0.0
C2076 C 0.06411 0.79765 0.23567 0.0
C2077 C 0.06674 0.794 0.25387 0.0
H2078 H 0.07606 0.8054 0.2113 0.0
H2079 H 0.05072 0.79827 0.22982 0.0
S2080 S 0.11012 0.79133 0.27889 0.0
N2081 N 0.11543 0.7971 0.25858 0.0
N2082 N 0.08817 0.78954 0.27837 0.0
C2083 C 0.08427 0.79361 0.26107 0.0
C2084 C 0.099 0.7978 0.25038 0.0
C2085 C 0.98136 0.24352 0.24983 0.0
C2086 C 0.97145 0.25765 0.24263 0.0
C2087 C 0.99671 0.24659 0.26062 0.0
C2088 C 1.00293 0.26393 0.2647 0.0
H2089 H 0.97713 0.22991 0.2472 0.0
H2090 H 1.00362 0.23517 0.26602 0.0
S2091 S 0.982 0.30563 0.24904 0.0
N2092 N 0.96906 0.28973 0.24018 0.0
N2093 N 0.99811 0.29549 0.26038 0.0
C2094 C 0.99348 0.27824 0.2572 0.0
C2095 C 0.97771 0.2751 0.2462 0.0
C2096 C 0.23488 0.75037 0.58038 0.0
C2097 C 0.24065 0.75435 0.59799 0.0
C2098 C 0.24352 0.75783 0.56582 0.0
C2099 C 0.25813 0.76962 0.56835 0.0
H2100 H 0.22424 0.74066 0.57785 0.0
H2101 H 0.23957 0.75335 0.55257 0.0
S2102 S 0.2779 0.78527 0.61143 0.0
N2103 N 0.26142 0.7717 0.6169 0.0
N2104 N 0.27747 0.78566 0.58952 0.0
C2105 C 0.26332 0.77456 0.58575 0.0
C2106 C 0.25459 0.767 0.60058 0.0
C2107 C 0.82267 0.73931 0.59127 0.0
C2108 C 0.82701 0.74812 0.60741 0.0
C2109 C 0.81524 0.7485 0.57648 0.0
C2110 C 0.81197 0.76676 0.57741 0.0
H2111 H 0.8257 0.72542 0.58983 0.0
H2112 H 0.81293 0.7415 0.56406 0.0
S2113 S 0.81808 0.7952 0.61729 0.0
N2114 N 0.82527 0.7756 0.62391 0.0
N2115 N 0.81171 0.79281 0.5962 0.0
C2116 C 0.81527 0.7754 0.59373 0.0
C2117 C 0.82269 0.76611 0.60871 0.0
C2118 C 0.85807 0.32769 0.60613 0.0
C2119 C 0.84436 0.33497 0.61578 0.0
C2120 C 0.85424 0.31577 0.59211 0.0
C2121 C 0.83657 0.31074 0.58722 0.0
H2122 H 0.87182 0.33154 0.60917 0.0
H2123 H 0.86512 0.31076 0.58477 0.0
S2124 S 0.7961 0.32405 0.60986 0.0
N2125 N 0.81257 0.33492 0.6205 0.0
N2126 N 0.80542 0.3126 0.59427 0.0
C2127 C 0.82282 0.31742 0.59718 0.0
C2128 C 0.8267 0.3295 0.61142 0.0
C2129 C 0.26369 0.36055 0.60488 0.0
C2130 C 0.26298 0.34971 0.62015 0.0
C2131 C 0.27274 0.35524 0.5899 0.0
C2132 C 0.28122 0.33879 0.5895 0.0
H2133 H 0.25741 0.37335 0.60458 0.0
H2134 H 0.27287 0.36396 0.57844 0.0
S2135 S 0.28343 0.30556 0.62603 0.0
N2136 N 0.27157 0.32172 0.63386 0.0
N2137 N 0.28868 0.31189 0.60587 0.0
C2138 C 0.28063 0.32785 0.60468 0.0
C2139 C 0.27152 0.33328 0.61994 0.0
C2140 C 0.26597 0.31417 0.46257 0.0
C2141 C 0.24919 0.32176 0.46423 0.0
C2142 C 0.27563 0.30765 0.47743 0.0
C2143 C 0.26876 0.30807 0.49447 0.0
H2144 H 0.2723 0.31445 0.44992 0.0
H2145 H 0.28909 0.30329 0.47573 0.0
S2146 S 0.22461 0.32447 0.50578 0.0
N2147 N 0.22541 0.32777 0.48413 0.0
N2148 N 0.24366 0.31531 0.51205 0.0
C2149 C 0.25151 0.31437 0.49619 0.0
C2150 C 0.24171 0.32127 0.48107 0.0
C2151 C 0.25694 0.71983 0.45729 0.0
C2152 C 0.25596 0.73126 0.44243 0.0
C2153 C 0.26655 0.72481 0.47296 0.0
C2154 C 0.27545 0.7414 0.47433 0.0
H2155 H 0.24965 0.70726 0.45705 0.0
H2156 H 0.26638 0.71597 0.48433 0.0
S2157 S 0.27943 0.77489 0.43838 0.0
N2158 N 0.26648 0.75901 0.4295 0.0
N2159 N 0.28438 0.76833 0.4589 0.0
C2160 C 0.27537 0.7525 0.45928 0.0
C2161 C 0.26567 0.74744 0.44335 0.0
C2162 C 0.83502 0.74919 0.46212 0.0
C2163 C 0.84382 0.75822 0.4485 0.0
C2164 C 0.82974 0.75814 0.47727 0.0
C2165 C 0.83322 0.77646 0.47955 0.0
H2166 H 0.83205 0.7351 0.461 0.0
H2167 H 0.82305 0.75061 0.48739 0.0
S2168 S 0.85581 0.80631 0.44784 0.0
N2169 N 0.85588 0.78658 0.43841 0.0
N2170 N 0.84571 0.80338 0.46669 0.0
C2171 C 0.84199 0.78566 0.46605 0.0
C2172 C 0.8473 0.77657 0.45058 0.0
C2173 C 0.82125 0.34323 0.47654 0.0
C2174 C 0.82225 0.33446 0.46013 0.0
C2175 C 0.81657 0.33394 0.49199 0.0
C2176 C 0.8125 0.31565 0.49145 0.0
H2177 H 0.82501 0.35716 0.47763 0.0
H2178 H 0.81706 0.34087 0.50455 0.0
S2179 S 0.81099 0.28697 0.45166 0.0
N2180 N 0.81707 0.30674 0.44416 0.0
N2181 N 0.80848 0.28938 0.47316 0.0
C2182 C 0.8125 0.30697 0.47504 0.0
C2183 C 0.81729 0.31635 0.45938 0.0
C2184 C 0.10975 0.73285 0.74343 0.0
C2185 C 0.12474 0.7443 0.74224 0.0
C2186 C 0.09564 0.73696 0.75427 0.0
C2187 C 0.09597 0.75267 0.76431 0.0
H2188 H 0.10865 0.72091 0.73549 0.0
H2189 H 0.08412 0.72807 0.75434 0.0
S2190 S 0.13324 0.78576 0.76786 0.0
N2191 N 0.1398 0.7711 0.75344 0.0
N2192 N 0.11334 0.77879 0.77372 0.0
C2193 C 0.1112 0.76383 0.76381 0.0
C2194 C 0.12555 0.75965 0.75282 0.0
C2195 C 0.87021 0.62912 0.76626 0.0
C2196 C 0.86652 0.6321 0.74802 0.0
C2197 C 0.86361 0.61392 0.77488 0.0
C2198 C 0.85302 0.6011 0.76563 0.0
H2199 H 0.87811 0.63872 0.774 0.0
H2200 H 0.86659 0.61232 0.78896 0.0
S2201 S 0.84074 0.60181 0.71744 0.0
N2202 N 0.8524 0.62042 0.72081 0.0
N2203 N 0.84 0.5919 0.737 0.0
C2204 C 0.84942 0.60379 0.74735 0.0
C2205 C 0.85615 0.61926 0.73856 0.0
C2206 C 0.97813 0.36367 0.75889 0.0
C2207 C 0.96382 0.35151 0.75584 0.0
C2208 C 0.99329 0.35899 0.76933 0.0
C2209 C 0.99468 0.34199 0.77702 0.0
H2210 H 0.97791 0.37664 0.75262 0.0
H2211 H 1.00429 0.36847 0.7708 0.0
S2212 S 0.95979 0.30636 0.77545 0.0
N2213 N 0.95123 0.32248 0.7631 0.0
N2214 N 0.97967 0.31373 0.78251 0.0
C2215 C 0.9801 0.33008 0.77482 0.0
C2216 C 0.96469 0.33483 0.76429 0.0
C2217 C 0.23927 0.47685 0.75607 0.0
C2218 C 0.2466 0.46033 0.75207 0.0
C2219 C 0.25026 0.49189 0.75985 0.0
C2220 C 0.2689 0.49083 0.7597 0.0
H2221 H 0.22496 0.47836 0.75549 0.0
H2222 H 0.24415 0.50455 0.76194 0.0
S2223 S 0.29472 0.45018 0.75312 0.0
N2224 N 0.2737 0.44348 0.75058 0.0
N2225 N 0.29421 0.47164 0.75729 0.0
C2226 C 0.27634 0.4742 0.75682 0.0
C2227 C 0.26524 0.45897 0.7531 0.0
C2228 C 0.11168 0.32267 0.31791 0.0
C2229 C 0.11304 0.3347 0.33214 0.0
C2230 C 0.09503 0.31645 0.31105 0.0
C2231 C 0.07904 0.32185 0.31828 0.0
H2232 H 0.12361 0.31759 0.31238 0.0
H2233 H 0.0948 0.30663 0.3006 0.0
S2234 S 0.07529 0.35434 0.35476 0.0
N2235 N 0.09694 0.35263 0.35252 0.0
N2236 N 0.06571 0.34111 0.33963 0.0
C2237 C 0.08022 0.33464 0.33189 0.0
C2238 C 0.09718 0.34102 0.33881 0.0
C2239 C 0.25521 0.6045 0.29706 0.0
C2240 C 0.24636 0.60497 0.31318 0.0
C2241 C 0.26405 0.58921 0.29184 0.0
C2242 C 0.26458 0.574 0.30274 0.0
H2243 H 0.25591 0.61628 0.28878 0.0
H2244 H 0.27155 0.58974 0.27988 0.0
S2245 S 0.2426 0.56789 0.34553 0.0
N2246 N 0.23784 0.58837 0.33936 0.0
N2247 N 0.25455 0.55988 0.32967 0.0
C2248 C 0.25502 0.57399 0.31836 0.0
C2249 C 0.24588 0.5894 0.32356 0.0
C2250 C 0.95735 0.73462 0.30006 0.0
C2251 C 0.95393 0.73098 0.31799 0.0
C2252 C 0.97263 0.74446 0.29531 0.0
C2253 C 0.98499 0.751 0.30835 0.0
H2254 H 0.94785 0.73034 0.28966 0.0
H2255 H 0.97437 0.74755 0.28144 0.0
S2256 S 0.98363 0.74273 0.35689 0.0
N2257 N 0.96528 0.73296 0.34857 0.0
N2258 N 0.9937 0.7515 0.33978 0.0
C2259 C 0.98214 0.74665 0.32622 0.0
C2260 C 0.96671 0.73665 0.33101 0.0
C2261 C 0.83781 0.45361 0.31282 0.0
C2262 C 0.85588 0.45266 0.31841 0.0
C2263 C 0.83122 0.46857 0.30368 0.0
C2264 C 0.84244 0.48318 0.29975 0.0
H2265 H 0.82876 0.44253 0.31519 0.0
H2266 H 0.81731 0.46856 0.29935 0.0
S2267 S 0.8903 0.48822 0.31327 0.0
N2268 N 0.88454 0.46828 0.32055 0.0
N2269 N 0.87217 0.49629 0.30342 0.0
C2270 C 0.86041 0.4826 0.30567 0.0
C2271 C 0.86711 0.46739 0.31499 0.0
C2272 C 0.25517 0.60699 0.71 0.0
C2273 C 0.25537 0.62133 0.72193 0.0
C2274 C 0.26498 0.59164 0.71383 0.0
C2275 C 0.27531 0.59003 0.72975 0.0
H2276 H 0.24693 0.6074 0.69788 0.0
H2277 H 0.26401 0.58071 0.70456 0.0
S2278 S 0.28242 0.62479 0.76415 0.0
N2279 N 0.26826 0.6336 0.74944 0.0
N2280 N 0.28658 0.60485 0.7566 0.0
C2281 C 0.27623 0.60458 0.74139 0.0
C2282 C 0.2663 0.62018 0.7375 0.0
C2283 C 0.25157 0.4704 0.32891 0.0
C2284 C 0.25914 0.45537 0.33718 0.0
C2285 C 0.26214 0.48502 0.32388 0.0
C2286 C 0.28074 0.48531 0.32694 0.0
H2287 H 0.2373 0.47089 0.32631 0.0
H2288 H 0.25569 0.49627 0.31759 0.0
S2289 S 0.30733 0.44898 0.34723 0.0
N2290 N 0.28653 0.44148 0.34765 0.0
N2291 N 0.30637 0.469 0.33823 0.0
C2292 C 0.28852 0.47043 0.33524 0.0
C2293 C 0.27773 0.45548 0.34035 0.0
C2294 C 0.11253 0.75583 0.33095 0.0
C2295 C 0.11168 0.73728 0.32858 0.0
C2296 C 0.09727 0.76618 0.32847 0.0
C2297 C 0.08063 0.75837 0.32353 0.0
H2298 H 0.12517 0.76244 0.33426 0.0
H2299 H 0.09859 0.78045 0.32989 0.0
S2300 S 0.0708 0.71022 0.3179 0.0
N2301 N 0.09245 0.71144 0.32259 0.0
N2302 N 0.06392 0.73089 0.31788 0.0
C2303 C 0.07949 0.73981 0.32174 0.0
C2304 C 0.09497 0.72928 0.32429 0.0
C2305 C 0.80513 0.59978 0.32856 0.0
C2306 C 0.82279 0.6042 0.33426 0.0
C2307 C 0.80105 0.58409 0.31895 0.0
C2308 C 0.81452 0.57235 0.31473 0.0
H2309 H 0.79452 0.60889 0.33084 0.0
H2310 H 0.7875 0.58169 0.31393 0.0
S2311 S 0.86226 0.57627 0.32913 0.0
N2312 N 0.85334 0.59431 0.33692 0.0
N2313 N 0.84579 0.56519 0.31872 0.0
C2314 C 0.83197 0.57609 0.32133 0.0
C2315 C 0.83609 0.59191 0.33112 0.0
C2316 C 0.96327 0.30369 0.34039 0.0
C2317 C 0.96276 0.30985 0.35794 0.0
C2318 C 0.9786 0.29586 0.33412 0.0
C2319 C 0.99405 0.29389 0.34515 0.0
H2320 H 0.95163 0.30466 0.33149 0.0
H2321 H 0.97829 0.29109 0.3206 0.0
S2322 S 1.00019 0.3096 0.39163 0.0
N2323 N 0.97944 0.31454 0.38588 0.0
N2324 N 1.00821 0.3 0.37412 0.0
C2325 C 0.99382 0.30035 0.36262 0.0
C2326 C 0.97821 0.30828 0.369 0.0
C2327 C 0.83668 0.49472 0.73086 0.0
C2328 C 0.834 0.47746 0.73777 0.0
C2329 C 0.82985 0.50966 0.73912 0.0
C2330 C 0.82008 0.50784 0.75452 0.0
H2331 H 0.84489 0.49676 0.71953 0.0
H2332 H 0.83332 0.52277 0.73418 0.0
S2333 S 0.80848 0.46581 0.77747 0.0
N2334 N 0.82006 0.45956 0.76053 0.0
N2335 N 0.80732 0.48763 0.77591 0.0
C2336 C 0.81644 0.49069 0.76096 0.0
C2337 C 0.82332 0.47548 0.75259 0.0
C2338 C 0.10801 0.34134 0.74885 0.0
C2339 C 0.11734 0.32819 0.7402 0.0
C2340 C 0.09349 0.33698 0.75921 0.0
C2341 C 0.08751 0.31926 0.76136 0.0
H2342 H 0.11208 0.35517 0.74779 0.0
H2343 H 0.08707 0.34765 0.76587 0.0
S2344 S 0.107 0.27974 0.74124 0.0
N2345 N 0.11934 0.29659 0.73423 0.0
N2346 N 0.0918 0.28846 0.75357 0.0
C2347 C 0.09626 0.30598 0.7523 0.0
C2348 C 0.11122 0.31042 0.74176 0.0
C2349 C 0.97073 0.77001 0.74807 0.0
C2350 C 0.97184 0.77218 0.72962 0.0
C2351 C 0.98513 0.77437 0.7597 0.0
C2352 C 1.00129 0.78123 0.75347 0.0
H2353 H 0.95872 0.76447 0.75359 0.0
H2354 H 0.98371 0.77188 0.77375 0.0
S2355 S 1.01086 0.79063 0.7065 0.0
N2356 N 0.99022 0.78253 0.70566 0.0
N2357 N 1.01731 0.79095 0.72773 0.0
C2358 C 1.00236 0.78443 0.73517 0.0
C2359 C 0.98763 0.77985 0.7232 0.0
C2360 C 0.75418 0.23269 0.58664 0.0
C2361 C 0.7496 0.24434 0.60015 0.0
C2362 C 0.7627 0.23889 0.57157 0.0
C2363 C 0.76686 0.25704 0.56918 0.0
H2364 H 0.752 0.2185 0.58814 0.0
H2365 H 0.76666 0.22924 0.56197 0.0
S2366 S 0.75607 0.29332 0.59968 0.0
N2367 N 0.74861 0.27512 0.60951 0.0
N2368 N 0.76462 0.2868 0.58103 0.0
C2369 C 0.76145 0.26901 0.58204 0.0
C2370 C 0.7529 0.26264 0.59758 0.0
C2371 C 0.33977 0.26659 0.61094 0.0
C2372 C 0.33446 0.24877 0.61334 0.0
C2373 C 0.33369 0.27639 0.59618 0.0
C2374 C 0.32194 0.2689 0.58305 0.0
H2375 H 0.34876 0.27309 0.62058 0.0
H2376 H 0.3384 0.29003 0.59507 0.0
S2377 S 0.30361 0.22279 0.58314 0.0
N2378 N 0.31648 0.22399 0.60143 0.0
N2379 N 0.30485 0.24259 0.57366 0.0
C2380 C 0.31609 0.25122 0.58545 0.0
C2381 C 0.32238 0.24113 0.60057 0.0
C2382 C 0.32659 0.84121 0.59654 0.0
C2383 C 0.33686 0.83561 0.61149 0.0
C2384 C 0.32295 0.82994 0.58204 0.0
C2385 C 0.32948 0.81257 0.58178 0.0
H2386 H 0.32105 0.85437 0.59613 0.0
H2387 H 0.31501 0.83493 0.57086 0.0
S2388 S 0.35723 0.79141 0.6175 0.0
N2389 N 0.35387 0.81158 0.62496 0.0
N2390 N 0.34665 0.79026 0.59789 0.0
C2391 C 0.33987 0.80679 0.59658 0.0
C2392 C 0.34359 0.8183 0.61139 0.0
C2393 C 0.74167 0.8322 0.60064 0.0
C2394 C 0.74887 0.8447 0.61291 0.0
C2395 C 0.75117 0.82713 0.58586 0.0
C2396 C 0.76823 0.83435 0.58277 0.0
H2397 H 0.72845 0.82656 0.60227 0.0
H2398 H 0.74495 0.81773 0.57659 0.0
S2399 S 0.7939 0.86588 0.61214 0.0
N2400 N 0.77469 0.86307 0.62175 0.0
N2401 N 0.79249 0.85349 0.59412 0.0
C2402 C 0.77577 0.84646 0.59523 0.0
C2403 C 0.76612 0.85163 0.61025 0.0
C2404 C 0.73348 0.81784 0.47338 0.0
C2405 C 0.74112 0.81631 0.4567 0.0
C2406 C 0.74206 0.81129 0.48893 0.0
C2407 C 0.75849 0.80287 0.48832 0.0
H2408 H 0.72129 0.82508 0.47455 0.0
H2409 H 0.73649 0.81407 0.50162 0.0
S2410 S 0.78367 0.79439 0.44816 0.0
N2411 N 0.76572 0.80475 0.4406 0.0
N2412 N 0.78163 0.79243 0.4698 0.0
C2413 C 0.76567 0.80018 0.47169 0.0
C2414 C 0.75701 0.80685 0.45586 0.0
C2415 C 0.75337 0.23156 0.46511 0.0
C2416 C 0.76047 0.22979 0.44825 0.0
C2417 C 0.7642 0.23657 0.47993 0.0
C2418 C 0.78261 0.23981 0.47858 0.0
H2419 H 0.73922 0.22956 0.46677 0.0
H2420 H 0.75809 0.23808 0.49257 0.0
S2421 S 0.80792 0.23627 0.43757 0.0
N2422 N 0.78719 0.23104 0.43118 0.0
N2423 N 0.80752 0.24054 0.45901 0.0
C2424 C 0.78998 0.23765 0.46189 0.0
C2425 C 0.77891 0.23267 0.44674 0.0
C2426 C 0.365 0.26115 0.46994 0.0
C2427 C 0.35264 0.25566 0.45638 0.0
C2428 C 0.35968 0.27071 0.4847 0.0
C2429 C 0.34177 0.27513 0.48656 0.0
H2430 H 0.37892 0.25793 0.46921 0.0
H2431 H 0.36964 0.27449 0.49486 0.0
S2432 S 0.30439 0.26531 0.45409 0.0
N2433 N 0.32181 0.2563 0.44534 0.0
N2434 N 0.31184 0.27415 0.47303 0.0
C2435 C 0.3293 0.2699 0.47302 0.0
C2436 C 0.33472 0.26019 0.45798 0.0
C2437 C 0.32395 0.81937 0.45706 0.0
C2438 C 0.31706 0.83641 0.45443 0.0
C2439 C 0.31958 0.80897 0.47174 0.0
C2440 C 0.30803 0.81504 0.48452 0.0
H2441 H 0.33288 0.81396 0.44766 0.0
H2442 H 0.32543 0.79599 0.47305 0.0
S2443 S 0.28601 0.85861 0.4838 0.0
N2444 N 0.29785 0.85891 0.46581 0.0
N2445 N 0.28941 0.83913 0.49338 0.0
C2446 C 0.3006 0.83187 0.48189 0.0
C2447 C 0.30516 0.84259 0.46688 0.0
C2448 C 0.61845 0.22806 0.74776 0.0
C2449 C 0.6336 0.23941 0.74769 0.0
C2450 C 0.60377 0.23195 0.75793 0.0
C2451 C 0.60365 0.24737 0.7684 0.0
H2452 H 0.6177 0.21634 0.73949 0.0
H2453 H 0.59222 0.22311 0.75716 0.0
S2454 S 0.64091 0.28017 0.77472 0.0
N2455 N 0.64817 0.26586 0.76032 0.0
N2456 N 0.62064 0.27314 0.77933 0.0
C2457 C 0.61896 0.25847 0.76896 0.0
C2458 C 0.6339 0.25451 0.75864 0.0
C2459 C 0.37503 0.12017 0.76472 0.0
C2460 C 0.36383 0.13421 0.75958 0.0
C2461 C 0.36839 0.10499 0.77331 0.0
C2462 C 0.35027 0.10318 0.77707 0.0
H2463 H 0.38906 0.12087 0.76197 0.0
H2464 H 0.37747 0.09446 0.77682 0.0
S2465 S 0.3156 0.13666 0.76769 0.0
N2466 N 0.33386 0.14567 0.75972 0.0
N2467 N 0.32139 0.11713 0.77584 0.0
C2468 C 0.33893 0.11716 0.77216 0.0
C2469 C 0.3457 0.13265 0.76342 0.0
C2470 C 0.4644 0.85475 0.75712 0.0
C2471 C 0.44974 0.84295 0.75436 0.0
C2472 C 0.47962 0.84969 0.76722 0.0
C2473 C 0.48075 0.83265 0.77486 0.0
H2474 H 0.46437 0.86775 0.7509 0.0
H2475 H 0.49085 0.85892 0.76849 0.0
S2476 S 0.44507 0.79782 0.77388 0.0
N2477 N 0.43665 0.81417 0.76175 0.0
N2478 N 0.46524 0.80471 0.78058 0.0
C2479 C 0.46588 0.82107 0.77292 0.0
C2480 C 0.4504 0.82621 0.76271 0.0
C2481 C 0.70859 0.96516 0.75468 0.0
C2482 C 0.71912 0.95076 0.75017 0.0
C2483 C 0.71626 0.9808 0.76195 0.0
C2484 C 0.7348 0.98274 0.76499 0.0
H2485 H 0.69425 0.96438 0.75248 0.0
H2486 H 0.70761 0.99154 0.76509 0.0
S2487 S 0.76823 0.94853 0.75667 0.0
N2488 N 0.74904 0.93919 0.75002 0.0
N2489 N 0.76345 0.96854 0.76363 0.0
C2490 C 0.74551 0.96842 0.76061 0.0
C2491 C 0.73768 0.95247 0.75322 0.0
C2492 C 0.60422 0.82404 0.30773 0.0
C2493 C 0.60656 0.83633 0.32168 0.0
C2494 C 0.58715 0.81912 0.3009 0.0
C2495 C 0.5717 0.82611 0.30792 0.0
H2496 H 0.61566 0.81772 0.30245 0.0
H2497 H 0.58609 0.80897 0.29076 0.0
S2498 S 0.57064 0.85992 0.34348 0.0
N2499 N 0.59203 0.85626 0.34145 0.0
N2500 N 0.56003 0.84712 0.32862 0.0
C2501 C 0.57393 0.83918 0.32116 0.0
C2502 C 0.59132 0.84426 0.32804 0.0
C2503 C 0.7409 0.09327 0.32728 0.0
C2504 C 0.74083 0.10846 0.31633 0.0
C2505 C 0.74955 0.07785 0.32246 0.0
C2506 C 0.75833 0.07682 0.30638 0.0
H2507 H 0.73514 0.09362 0.3402 0.0
H2508 H 0.75 0.06686 0.3318 0.0
S2509 S 0.76036 0.11214 0.27201 0.0
N2510 N 0.74898 0.12096 0.2879 0.0
N2511 N 0.76524 0.09187 0.27883 0.0
C2512 C 0.75739 0.09145 0.29474 0.0
C2513 C 0.7487 0.1073 0.29974 0.0
C2514 C 0.46857 0.20642 0.31309 0.0
C2515 C 0.45376 0.21698 0.31607 0.0
C2516 C 0.4836 0.21339 0.30476 0.0
C2517 C 0.48446 0.23121 0.29912 0.0
H2518 H 0.46861 0.19265 0.31734 0.0
H2519 H 0.49473 0.20481 0.30291 0.0
S2520 S 0.44866 0.26405 0.30234 0.0
N2521 N 0.44055 0.24593 0.31178 0.0
N2522 N 0.46874 0.25899 0.29617 0.0
C2523 C 0.46968 0.24187 0.30184 0.0
C2524 C 0.45437 0.23477 0.3103 0.0
C2525 C 0.33078 0.96941 0.31179 0.0
C2526 C 0.32389 0.95228 0.31556 0.0
C2527 C 0.31945 0.98333 0.30649 0.0
C2528 C 0.3009 0.9805 0.30484 0.0
H2529 H 0.34492 0.97227 0.31369 0.0
H2530 H 0.32512 0.99651 0.3046 0.0
S2531 S 0.27655 0.93753 0.31013 0.0
N2532 N 0.29758 0.9329 0.31495 0.0
N2533 N 0.2764 0.95894 0.30533 0.0
C2534 C 0.29403 0.96322 0.30749 0.0
C2535 C 0.30549 0.94914 0.31277 0.0
C2536 C 0.77025 0.10653 0.73901 0.0
C2537 C 0.75421 0.10897 0.72897 0.0
C2538 C 0.77479 0.08974 0.74598 0.0
C2539 C 0.76329 0.07489 0.74339 0.0
H2540 H 0.77902 0.11781 0.74207 0.0
H2541 H 0.78672 0.08868 0.75446 0.0
S2542 S 0.72034 0.07388 0.71732 0.0
N2543 N 0.72738 0.09475 0.71608 0.0
N2544 N 0.73582 0.06345 0.72924 0.0
C2545 C 0.74772 0.07699 0.73267 0.0
C2546 C 0.7432 0.09395 0.72544 0.0
C2547 C 0.75788 0.96679 0.34623 0.0
C2548 C 0.75453 0.95306 0.33386 0.0
C2549 C 0.76834 0.98183 0.34207 0.0
C2550 C 0.77562 0.98385 0.32526 0.0
H2551 H 0.75233 0.96592 0.35925 0.0
H2552 H 0.77035 0.99217 0.3519 0.0
S2553 S 0.77126 0.95159 0.28827 0.0
N2554 N 0.75964 0.9424 0.30415 0.0
N2555 N 0.77932 0.97056 0.29641 0.0
C2556 C 0.77259 0.97013 0.31285 0.0
C2557 C 0.76208 0.95476 0.31713 0.0
C2558 C 0.61415 0.25465 0.30716 0.0
C2559 C 0.61342 0.24778 0.32451 0.0
C2560 C 0.59904 0.26157 0.29836 0.0
C2561 C 0.58265 0.26224 0.30664 0.0
H2562 H 0.6262 0.25364 0.29987 0.0
H2563 H 0.59996 0.26566 0.28462 0.0
S2564 S 0.57405 0.24791 0.35262 0.0
N2565 N 0.59525 0.24348 0.35021 0.0
N2566 N 0.56683 0.25675 0.3336 0.0
C2567 C 0.58196 0.25659 0.32437 0.0
C2568 C 0.59734 0.24925 0.33331 0.0
C2569 C 0.31338 0.09759 0.33557 0.0
C2570 C 0.3061 0.10787 0.34891 0.0
C2571 C 0.3046 0.08214 0.32904 0.0
C2572 C 0.28825 0.07618 0.33568 0.0
H2573 H 0.32591 0.10161 0.33001 0.0
H2574 H 0.31083 0.07463 0.31889 0.0
S2575 S 0.26346 0.09827 0.37061 0.0
N2576 N 0.28158 0.11082 0.36864 0.0
N2577 N 0.26496 0.0821 0.35611 0.0
C2578 C 0.2808 0.08636 0.34897 0.0
C2579 C 0.28972 0.10211 0.35561 0.0
C2580 C 0.46783 0.81608 0.35837 0.0
C2581 C 0.45247 0.81829 0.34729 0.0
C2582 C 0.48306 0.80806 0.35215 0.0
C2583 C 0.48359 0.80194 0.33459 0.0
H2584 H 0.46815 0.82071 0.37195 0.0
H2585 H 0.49461 0.80687 0.36111 0.0
S2586 S 0.4464 0.80314 0.30064 0.0
N2587 N 0.43844 0.8128 0.31815 0.0
N2588 N 0.46699 0.79772 0.3065 0.0
C2589 C 0.46825 0.80387 0.32342 0.0
C2590 C 0.45274 0.81205 0.32975 0.0
C2591 C 0.34903 0.99508 0.74072 0.0
C2592 C 0.33696 0.98072 0.73805 0.0
C2593 C 0.34393 1.01079 0.74869 0.0
C2594 C 0.32648 1.01293 0.75428 0.0
H2595 H 0.36286 0.99381 0.73748 0.0
H2596 H 0.35406 1.02099 0.75142 0.0
S2597 S 0.28899 0.98045 0.74786 0.0
N2598 N 0.30619 0.9704 0.73976 0.0
N2599 N 0.29652 1.00014 0.75469 0.0
C2600 C 0.31381 0.99936 0.75025 0.0
C2601 C 0.31906 0.9832 0.74214 0.0
C2602 C 0.5971 0.79964 0.73826 0.0
C2603 C 0.60054 0.8171 0.73219 0.0
C2604 C 0.58241 0.79561 0.74875 0.0
C2605 C 0.57068 0.80892 0.7535 0.0
H2606 H 0.60627 0.7892 0.73554 0.0
H2607 H 0.58082 0.78227 0.75398 0.0
S2608 S 0.57215 0.85599 0.73874 0.0
N2609 N 0.58967 0.8472 0.73 0.0
N2610 N 0.56243 0.83976 0.74981 0.0
C2611 C 0.57341 0.82613 0.74665 0.0
C2612 C 0.58823 0.83019 0.73598 0.0
C2613 C 0.49236 0.27211 0.73013 0.0
C2614 C 0.47558 0.26916 0.73749 0.0
C2615 C 0.50767 0.27603 0.74099 0.0
C2616 C 0.50662 0.27714 0.75952 0.0
H2617 H 0.49383 0.27048 0.716 0.0
H2618 H 0.5205 0.27713 0.73499 0.0
S2619 S 0.46559 0.27345 0.78504 0.0
N2620 N 0.45866 0.26994 0.76425 0.0
N2621 N 0.48734 0.27687 0.78454 0.0
C2622 C 0.4898 0.27536 0.76685 0.0
C2623 C 0.4743 0.27149 0.75588 0.0
C2624 C 0.74864 0.76578 0.109 0.0
C2625 C 0.73216 0.75667 0.11005 0.0
C2626 C 0.75267 0.77615 0.09412 0.0
C2627 C 0.74039 0.77791 0.07965 0.0
H2628 H 0.75862 0.76477 0.11973 0.0
H2629 H 0.76558 0.78278 0.09389 0.0
S2630 S 0.69547 0.75651 0.07554 0.0
N2631 N 0.70348 0.74999 0.09519 0.0
N2632 N 0.71106 0.76952 0.06724 0.0
C2633 C 0.72371 0.76916 0.08063 0.0
C2634 C 0.7196 0.75855 0.09581 0.0
C2635 C 0.33164 0.74981 0.08559 0.0
C2636 C 0.33213 0.75611 0.10314 0.0
C2637 C 0.324 0.75973 0.07151 0.0
C2638 C 0.31631 0.77632 0.0744 0.0
H2639 H 0.33688 0.73689 0.08276 0.0
H2640 H 0.32344 0.75392 0.05839 0.0
S2641 S 0.31515 0.79925 0.11784 0.0
N2642 N 0.32505 0.78036 0.12254 0.0
N2643 N 0.31076 0.79905 0.0962 0.0
C2644 C 0.31745 0.78312 0.09181 0.0
C2645 C 0.32532 0.77303 0.10613 0.0
C2646 C 0.33514 0.31269 0.10932 0.0
C2647 C 0.34302 0.32986 0.11031 0.0
C2648 C 0.32729 0.30614 0.09329 0.0
C2649 C 0.32682 0.31667 0.07782 0.0
H2650 H 0.33438 0.30458 0.12119 0.0
H2651 H 0.32041 0.29335 0.09335 0.0
S2652 S 0.34644 0.36193 0.07299 0.0
N2653 N 0.35071 0.3567 0.09401 0.0
N2654 N 0.33579 0.3445 0.06415 0.0
C2655 C 0.33544 0.3334 0.07843 0.0
C2656 C 0.3436 0.33997 0.09459 0.0
C2657 C 0.73765 0.32577 0.10665 0.0
C2658 C 0.74768 0.34064 0.1129 0.0
C2659 C 0.74238 0.31649 0.09152 0.0
C2660 C 0.75742 0.32159 0.082 0.0
H2661 H 0.72587 0.32138 0.11339 0.0
H2662 H 0.73427 0.3051 0.08735 0.0
S2663 S 0.7883 0.35951 0.09287 0.0
N2664 N 0.77362 0.3598 0.10855 0.0
N2665 N 0.78219 0.34271 0.07986 0.0
C2666 C 0.76761 0.33641 0.08812 0.0
C2667 C 0.7628 0.34585 0.10357 0.0
C2668 C 0.77063 0.35296 0.9742 0.0
C2669 C 0.76552 0.34278 0.95917 0.0
C2670 C 0.77737 0.345 0.98988 0.0
C2671 C 0.77934 0.32648 0.99123 0.0
H2672 H 0.76936 0.36726 0.97388 0.0
H2673 H 0.78107 0.3535 1.00103 0.0
S2674 S 0.7684 0.29387 0.95536 0.0
N2675 N 0.76324 0.31324 0.94643 0.0
N2676 N 0.77577 0.29818 0.97585 0.0
C2677 C 0.77424 0.31611 0.97625 0.0
C2678 C 0.76735 0.32427 0.96027 0.0
C2679 C 0.75575 0.74047 0.97409 0.0
C2680 C 0.75757 0.7469 0.95663 0.0
C2681 C 0.76189 0.7505 0.9889 0.0
C2682 C 0.77005 0.76727 0.98672 0.0
H2683 H 0.74874 0.72799 0.97634 0.0
H2684 H 0.75912 0.74565 1.00208 0.0
S2685 S 0.77897 0.78983 0.94413 0.0
N2686 N 0.76904 0.77086 0.93824 0.0
N2687 N 0.78046 0.78955 0.96604 0.0
C2688 C 0.77285 0.77341 0.96944 0.0
C2689 C 0.76669 0.76324 0.95439 0.0
C2690 C 0.3111 0.73349 0.94497 0.0
C2691 C 0.32978 0.73367 0.94758 0.0
C2692 C 0.29994 0.73727 0.95891 0.0
C2693 C 0.30699 0.7414 0.97603 0.0
H2694 H 0.30507 0.7308 0.93194 0.0
H2695 H 0.28569 0.73742 0.95615 0.0
S2696 S 0.35483 0.74156 0.99038 0.0
N2697 N 0.3547 0.73691 0.969 0.0
N2698 N 0.33377 0.74399 0.99511 0.0
C2699 C 0.3256 0.7411 0.97894 0.0
C2700 C 0.33696 0.73725 0.96477 0.0
C2701 C 0.3211 0.36232 0.96729 0.0
C2702 C 0.32557 0.35082 0.95358 0.0
C2703 C 0.31266 0.35595 0.98242 0.0
C2704 C 0.30838 0.3378 0.98449 0.0
H2705 H 0.32429 0.37639 0.9664 0.0
H2706 H 0.30965 0.36527 0.99269 0.0
S2707 S 0.31576 0.30233 0.95179 0.0
N2708 N 0.32411 0.3205 0.94265 0.0
N2709 N 0.30834 0.30855 0.97105 0.0
C2710 C 0.31259 0.32616 0.9708 0.0
C2711 C 0.32115 0.33266 0.95538 0.0
C2712 C 0.60238 0.72616 0.25088 0.0
C2713 C 0.61737 0.73764 0.24991 0.0
C2714 C 0.58804 0.73027 0.26141 0.0
C2715 C 0.58803 0.74616 0.27112 0.0
H2716 H 0.60169 0.71394 0.24335 0.0
H2717 H 0.57664 0.72124 0.26151 0.0
S2718 S 0.62421 0.78047 0.27359 0.0
N2719 N 0.63142 0.7654 0.25994 0.0
N2720 N 0.60454 0.77306 0.27969 0.0
C2721 C 0.60305 0.75759 0.27052 0.0
C2722 C 0.6177 0.75334 0.25995 0.0
C2723 C 0.34174 0.61214 0.23921 0.0
C2724 C 0.35506 0.62371 0.24648 0.0
C2725 C 0.336 0.59697 0.24856 0.0
C2726 C 0.3433 0.59279 0.26558 0.0
H2727 H 0.33601 0.61462 0.22603 0.0
H2728 H 0.32606 0.58822 0.24223 0.0
S2729 S 0.37685 0.62008 0.2914 0.0
N2730 N 0.37428 0.63074 0.27231 0.0
N2731 N 0.36341 0.60246 0.28987 0.0
C2732 C 0.35618 0.6046 0.2732 0.0
C2733 C 0.36205 0.61998 0.26368 0.0
C2734 C 0.45914 0.31179 0.26011 0.0
C2735 C 0.46215 0.32979 0.25586 0.0
C2736 C 0.47309 0.30106 0.26625 0.0
C2737 C 0.49057 0.30791 0.26873 0.0
H2738 H 0.44614 0.30561 0.25756 0.0
H2739 H 0.47032 0.28702 0.26824 0.0
S2740 S 0.50521 0.35459 0.26167 0.0
N2741 N 0.4837 0.35438 0.2561 0.0
N2742 N 0.50993 0.3341 0.2679 0.0
C2743 C 0.4936 0.32612 0.2658 0.0
C2744 C 0.47939 0.33708 0.25926 0.0
C2745 C 0.7584 0.46414 0.24062 0.0
C2746 C 0.74195 0.46109 0.24843 0.0
C2747 C 0.76965 0.4784 0.24581 0.0
C2748 C 0.7651 0.49036 0.25912 0.0
H2749 H 0.76273 0.45534 0.23043 0.0
H2750 H 0.78213 0.47997 0.23922 0.0
S2751 S 0.7234 0.48847 0.28377 0.0
N2752 N 0.7215 0.47136 0.27015 0.0
N2753 N 0.74287 0.49811 0.28008 0.0
C2754 C 0.74877 0.48741 0.26725 0.0
C2755 C 0.73718 0.47281 0.26189 0.0
C2756 C 0.60979 0.32993 0.84263 0.0
C2757 C 0.62414 0.33429 0.8319 0.0
C2758 C 0.59414 0.32185 0.83552 0.0
C2759 C 0.59202 0.31792 0.81734 0.0
H2760 H 0.61095 0.33213 0.85682 0.0
H2761 H 0.58388 0.31794 0.84453 0.0
S2762 S 0.62494 0.32777 0.78319 0.0
N2763 N 0.63479 0.335 0.80188 0.0
N2764 N 0.60514 0.31993 0.78848 0.0
C2765 C 0.60573 0.32321 0.80619 0.0
C2766 C 0.62184 0.33138 0.81348 0.0
C2767 C 0.75114 0.60424 0.81483 0.0
C2768 C 0.75778 0.6219 0.81548 0.0
C2769 C 0.76073 0.5907 0.807 0.0
C2770 C 0.77735 0.59439 0.79977 0.0
H2771 H 0.73884 0.60073 0.82112 0.0
H2772 H 0.75576 0.57712 0.80778 0.0
S2773 S 0.80014 0.63838 0.7971 0.0
N2774 N 0.78157 0.64233 0.8072 0.0
N2775 N 0.79956 0.61691 0.79278 0.0
C2776 C 0.78365 0.61207 0.79949 0.0
C2777 C 0.77386 0.62584 0.80725 0.0
C2778 C 0.46808 0.74102 0.80329 0.0
C2779 C 0.46453 0.73669 0.82107 0.0
C2780 C 0.48348 0.75092 0.79897 0.0
C2781 C 0.49587 0.75685 0.81227 0.0
H2782 H 0.45862 0.73722 0.79269 0.0
H2783 H 0.48529 0.75457 0.78524 0.0
S2784 S 0.49412 0.74691 0.86048 0.0
N2785 N 0.47575 0.73753 0.85174 0.0
N2786 N 0.50435 0.75622 0.84374 0.0
C2787 C 0.49285 0.7519 0.82996 0.0
C2788 C 0.47729 0.74182 0.83432 0.0
C2789 C 0.35127 0.46962 0.81418 0.0
C2790 C 0.35996 0.45619 0.8052 0.0
C2791 C 0.34449 0.4845 0.80509 0.0
C2792 C 0.34629 0.4867 0.78669 0.0
H2793 H 0.34948 0.46851 0.82833 0.0
H2794 H 0.3379 0.49447 0.81257 0.0
S2795 S 0.36801 0.45547 0.75696 0.0
N2796 N 0.3702 0.44623 0.77683 0.0
N2797 N 0.3572 0.47402 0.75977 0.0
C2798 C 0.35501 0.47343 0.77755 0.0
C2799 C 0.36186 0.45823 0.78678 0.0
C2800 C 0.76804 0.61559 0.22635 0.0
C2801 C 0.75003 0.6161 0.23074 0.0
C2802 C 0.77839 0.60064 0.23039 0.0
C2803 C 0.77111 0.58568 0.23899 0.0
H2804 H 0.77431 0.62701 0.22019 0.0
H2805 H 0.79232 0.60097 0.22724 0.0
S2806 S 0.724 0.57932 0.25092 0.0
N2807 N 0.72495 0.59959 0.24252 0.0
N2808 N 0.74434 0.57164 0.25008 0.0
C2809 C 0.75295 0.58576 0.24276 0.0
C2810 C 0.74244 0.60092 0.23865 0.0
C2811 C 0.75547 0.48093 0.8223 0.0
C2812 C 0.76169 0.46807 0.83453 0.0
C2813 C 0.76594 0.49589 0.81812 0.0
C2814 C 0.78306 0.49873 0.82603 0.0
H2815 H 0.74247 0.47931 0.81568 0.0
H2816 H 0.76049 0.50541 0.80867 0.0
S2817 S 0.80557 0.46918 0.85905 0.0
N2818 N 0.78601 0.45936 0.8548 0.0
N2819 N 0.80583 0.4873 0.84662 0.0
C2820 C 0.78944 0.48605 0.83837 0.0
C2821 C 0.77876 0.47076 0.84264 0.0
C2822 C 0.61369 0.7548 0.84624 0.0
C2823 C 0.62583 0.7523 0.83279 0.0
C2824 C 0.59824 0.76473 0.84312 0.0
C2825 C 0.59436 0.77248 0.82642 0.0
H2826 H 0.61585 0.74856 0.85911 0.0
H2827 H 0.58897 0.76585 0.85364 0.0
S2828 S 0.62306 0.7721 0.78758 0.0
N2829 N 0.63376 0.75996 0.80271 0.0
N2830 N 0.60479 0.77853 0.79688 0.0
C2831 C 0.60676 0.77074 0.81312 0.0
C2832 C 0.62247 0.76068 0.81629 0.0
C2833 C 0.3208 0.59557 0.82702 0.0
C2834 C 0.32828 0.61117 0.8197 0.0
C2835 C 0.31575 0.5809 0.81628 0.0
C2836 C 0.31812 0.58134 0.79787 0.0
H2837 H 0.31927 0.59451 0.84121 0.0
H2838 H 0.31054 0.56898 0.82248 0.0
S2839 S 0.33458 0.61998 0.77189 0.0
N2840 N 0.33584 0.62679 0.79268 0.0
N2841 N 0.32678 0.59934 0.77261 0.0
C2842 C 0.32485 0.59715 0.79035 0.0
C2843 C 0.32983 0.61203 0.80122 0.0
C2844 C 0.47137 0.3145 0.83142 0.0
C2845 C 0.46891 0.31591 0.84977 0.0
C2846 C 0.48652 0.30651 0.82497 0.0
C2847 C 0.49981 0.29956 0.83659 0.0
H2848 H 0.46135 0.31934 0.82195 0.0
H2849 H 0.48769 0.30551 0.81076 0.0
S2850 S 0.50072 0.30161 0.88577 0.0
N2851 N 0.48175 0.31083 0.87945 0.0
N2852 N 0.5101 0.2958 0.86732 0.0
C2853 C 0.4977 0.30122 0.85495 0.0
C2854 C 0.48231 0.30939 0.86152 0.0
C2855 C 0.33186 0.48103 0.23076 0.0
C2856 C 0.32999 0.46413 0.23873 0.0
C2857 C 0.32519 0.4963 0.23859 0.0
C2858 C 0.31636 0.49517 0.25461 0.0
H2859 H 0.33931 0.48258 0.21883 0.0
H2860 H 0.32804 0.50917 0.23273 0.0
S2861 S 0.30714 0.45431 0.28052 0.0
N2862 N 0.31785 0.44732 0.26329 0.0
N2863 N 0.30535 0.47597 0.27781 0.0
C2864 C 0.31352 0.47834 0.26219 0.0
C2865 C 0.32026 0.46281 0.25427 0.0
C2866 C 0.61269 0.31219 0.2384 0.0
C2867 C 0.61283 0.31908 0.22101 0.0
C2868 C 0.59756 0.30327 0.24467 0.0
C2869 C 0.58199 0.30087 0.23381 0.0
H2870 H 0.6245 0.31333 0.24709 0.0
H2871 H 0.59819 0.29786 0.25802 0.0
S2872 S 0.5748 0.31815 0.18796 0.0
N2873 N 0.59557 0.32408 0.19351 0.0
N2874 N 0.56722 0.30734 0.20531 0.0
C2875 C 0.5818 0.3081 0.21658 0.0
C2876 C 0.59717 0.3172 0.21019 0.0
C2877 C 0.46372 0.75297 0.25127 0.0
C2878 C 0.46307 0.75994 0.23394 0.0
C2879 C 0.47776 0.75731 0.26333 0.0
C2880 C 0.49183 0.76888 0.25868 0.0
H2881 H 0.45324 0.74406 0.25562 0.0
H2882 H 0.47752 0.75144 0.27647 0.0
S2883 S 0.49648 0.79085 0.21491 0.0
N2884 N 0.47773 0.77906 0.21264 0.0
N2885 N 0.50411 0.78743 0.23549 0.0
C2886 C 0.49123 0.77626 0.24149 0.0
C2887 C 0.47687 0.77176 0.2291 0.0
loop_
_geom_bond_atom_site_label_1
_geom_bond_atom_site_label_2
_geom_bond_distance
_geom_bond_site_symmetry_2
_ccdc_geom_bond_type
C0 C1 1.264 . S
C0 C5 1.479 . S
C0 C10 1.465 . S
C1 C0 1.264 . S
C1 C3 1.339 . S
C1 H28 0.931 . S
C2 C3 1.395 . S
C2 C4 1.320 . S
C3 C1 1.339 . S
C3 C2 1.395 . S
C3 H29 0.929 . S
C4 C2 1.320 . S
C4 C5 1.405 . S
C4 H30 0.930 . S
C5 C0 1.479 . S
C5 C4 1.405 . S
C5 H31 0.931 . S
U6 O7 2.454 . S
U6 O8 2.458 . S
U6 C9 2.984 . S
U6 C10 2.847 . S
U6 C23 2.882 . S
U6 O24 2.441 . S
U6 O25 2.420 . S
U6 O26 2.455 . S
U6 O27 2.449 . S
O7 U6 2.454 . S
O7 C9 1.353 . S
O8 U6 2.458 . S
O8 C9 1.286 . S
C9 U6 2.984 . S
C9 O7 1.353 . S
C9 O8 1.286 . S
C9 C11 1.363 . S
C10 C0 1.465 . S
C10 U6 2.847 . S
C10 O24 1.249 . S
C10 O25 1.202 . S
C11 C9 1.363 . S
C11 C13 1.408 . S
C11 C16 1.342 . S
C12 C13 1.310 . S
C12 C15 1.461 . S
C12 H32 0.932 . S
C13 C11 1.408 . S
C13 C12 1.310 . S
C13 H33 0.930 . S
C14 C15 1.474 . S
C14 C16 1.285 . S
C14 H34 0.929 . S
C15 C12 1.461 . S
C15 C14 1.474 . S
C16 C11 1.342 . S
C16 C14 1.285 . S
C16 H35 0.930 . S
C17 C20 1.424 . S
C17 C22 1.245 . S
C17 C23 1.428 . S
C18 C21 1.260 . S
C18 C22 1.477 . S
C18 H36 0.932 . S
C19 C20 1.384 . S
C19 C21 1.479 . S
C19 H37 0.929 . S
C20 C17 1.424 . S
C20 C19 1.384 . S
C20 H38 0.928 . S
C21 C18 1.260 . S
C21 C19 1.479 . S
C22 C17 1.245 . S
C22 C18 1.477 . S
C22 H39 0.932 . S
C23 U6 2.882 . S
C23 C17 1.428 . S
C23 O26 1.301 . S
C23 O27 1.282 . S
O24 U6 2.441 . S
O24 C10 1.249 . S
O25 U6 2.420 . S
O25 C10 1.202 . S
O26 U6 2.455 . S
O26 C23 1.301 . S
O27 U6 2.449 . S
O27 C23 1.282 . S
H28 C1 0.931 . S
H29 C3 0.929 . S
H30 C4 0.930 . S
H31 C5 0.931 . S
H32 C12 0.932 . S
H33 C13 0.930 . S
H34 C14 0.929 . S
H35 C16 0.930 . S
H36 C18 0.932 . S
H37 C19 0.929 . S
H38 C20 0.928 . S
H39 C22 0.932 . S
C40 C41 1.264 . S
C40 C45 1.479 . S
C40 C50 1.465 . S
C41 C40 1.264 . S
C41 C43 1.339 . S
C41 H68 0.931 . S
C42 C43 1.395 . S
C42 C44 1.320 . S
C43 C41 1.339 . S
C43 C42 1.395 . S
C43 H69 0.929 . S
C44 C42 1.320 . S
C44 C45 1.405 . S
C44 H70 0.930 . S
C45 C40 1.479 . S
C45 C44 1.405 . S
C45 H71 0.931 . S
U46 O47 2.454 . S
U46 O48 2.458 . S
U46 C49 2.984 . S
U46 C50 2.847 . S
U46 C63 2.882 . S
U46 O64 2.441 . S
U46 O65 2.420 . S
U46 O66 2.455 . S
U46 O67 2.449 . S
O47 U46 2.454 . S
O47 C49 1.353 . S
O48 U46 2.458 . S
O48 C49 1.286 . S
C49 U46 2.984 . S
C49 O47 1.353 . S
C49 O48 1.286 . S
C49 C51 1.363 . S
C50 C40 1.465 . S
C50 U46 2.847 . S
C50 O64 1.249 . S
C50 O65 1.202 . S
C51 C49 1.363 . S
C51 C53 1.408 . S
C51 C56 1.342 . S
C52 C53 1.310 . S
C52 C55 1.461 . S
C52 H72 0.932 . S
C53 C51 1.408 . S
C53 C52 1.310 . S
C53 H73 0.930 . S
C54 C55 1.474 . S
C54 C56 1.285 . S
C54 H74 0.929 . S
C55 C52 1.461 . S
C55 C54 1.474 . S
C56 C51 1.342 . S
C56 C54 1.285 . S
C56 H75 0.930 . S
C57 C60 1.424 . S
C57 C62 1.245 . S
C57 C63 1.428 . S
C58 C61 1.260 . S
C58 C62 1.477 . S
C58 H76 0.932 . S
C59 C60 1.384 . S
C59 C61 1.479 . S
C59 H77 0.929 . S
C60 C57 1.424 . S
C60 C59 1.384 . S
C60 H78 0.928 . S
C61 C58 1.260 . S
C61 C59 1.479 . S
C62 C57 1.245 . S
C62 C58 1.477 . S
C62 H79 0.932 . S
C63 U46 2.882 . S
C63 C57 1.428 . S
C63 O66 1.301 . S
C63 O67 1.282 . S
O64 U46 2.441 . S
O64 C50 1.249 . S
O65 U46 2.420 . S
O65 C50 1.202 . S
O66 U46 2.455 . S
O66 C63 1.301 . S
O67 U46 2.449 . S
O67 C63 1.282 . S
H68 C41 0.931 . S
H69 C43 0.929 . S
H70 C44 0.930 . S
H71 C45 0.931 . S
H72 C52 0.932 . S
H73 C53 0.930 . S
H74 C54 0.929 . S
H75 C56 0.930 . S
H76 C58 0.932 . S
H77 C59 0.929 . S
H78 C60 0.928 . S
H79 C62 0.932 . S
C80 C81 1.264 . S
C80 C85 1.479 . S
C80 C90 1.465 . S
C81 C80 1.264 . S
C81 C83 1.339 . S
C81 H108 0.931 . S
C82 C83 1.395 . S
C82 C84 1.320 . S
C83 C81 1.339 . S
C83 C82 1.395 . S
C83 H109 0.929 . S
C84 C82 1.320 . S
C84 C85 1.405 . S
C84 H110 0.930 . S
C85 C80 1.479 . S
C85 C84 1.405 . S
C85 H111 0.931 . S
U86 O87 2.454 . S
U86 O88 2.458 . S
U86 C89 2.984 . S
U86 C90 2.847 . S
U86 C103 2.882 . S
U86 O104 2.441 . S
U86 O105 2.420 . S
U86 O106 2.455 . S
U86 O107 2.449 . S
O87 U86 2.454 . S
O87 C89 1.353 . S
O88 U86 2.458 . S
O88 C89 1.286 . S
C89 U86 2.984 . S
C89 O87 1.353 . S
C89 O88 1.286 . S
C89 C91 1.363 . S
C90 C80 1.465 . S
C90 U86 2.847 . S
C90 O104 1.249 . S
C90 O105 1.202 . S
C91 C89 1.363 . S
C91 C93 1.408 . S
C91 C96 1.342 . S
C92 C93 1.310 . S
C92 C95 1.461 . S
C92 H112 0.932 . S
C93 C91 1.408 . S
C93 C92 1.310 . S
C93 H113 0.930 . S
C94 C95 1.474 . S
C94 C96 1.285 . S
C94 H114 0.929 . S
C95 C92 1.461 . S
C95 C94 1.474 . S
C96 C91 1.342 . S
C96 C94 1.285 . S
C96 H115 0.930 . S
C97 C100 1.424 . S
C97 C102 1.245 . S
C97 C103 1.428 . S
C98 C101 1.260 . S
C98 C102 1.477 . S
C98 H116 0.932 . S
C99 C100 1.384 . S
C99 C101 1.479 . S
C99 H117 0.929 . S
C100 C97 1.424 . S
C100 C99 1.384 . S
C100 H118 0.928 . S
C101 C98 1.260 . S
C101 C99 1.479 . S
C102 C97 1.245 . S
C102 C98 1.477 . S
C102 H119 0.932 . S
C103 U86 2.882 . S
C103 C97 1.428 . S
C103 O106 1.301 . S
C103 O107 1.282 . S
O104 U86 2.441 . S
O104 C90 1.249 . S
O105 U86 2.420 . S
O105 C90 1.202 . S
O106 U86 2.455 . S
O106 C103 1.301 . S
O107 U86 2.449 . S
O107 C103 1.282 . S
H108 C81 0.931 . S
H109 C83 0.929 . S
H110 C84 0.930 . S
H111 C85 0.931 . S
H112 C92 0.932 . S
H113 C93 0.930 . S
H114 C94 0.929 . S
H115 C96 0.930 . S
H116 C98 0.932 . S
H117 C99 0.929 . S
H118 C100 0.928 . S
H119 C102 0.932 . S
C120 C121 1.264 . S
C120 C125 1.479 . S
C120 C130 1.465 . S
C121 C120 1.264 . S
C121 C123 1.339 . S
C121 H148 0.931 . S
C122 C123 1.395 . S
C122 C124 1.320 . S
C123 C121 1.339 . S
C123 C122 1.395 . S
C123 H149 0.929 . S
C124 C122 1.320 . S
C124 C125 1.405 . S
C124 H150 0.930 . S
C125 C120 1.479 . S
C125 C124 1.405 . S
C125 H151 0.931 . S
U126 O127 2.454 . S
U126 O128 2.458 . S
U126 C129 2.984 . S
U126 C130 2.847 . S
U126 C143 2.882 . S
U126 O144 2.441 . S
U126 O145 2.420 . S
U126 O146 2.455 . S
U126 O147 2.449 . S
O127 U126 2.454 . S
O127 C129 1.353 . S
O128 U126 2.458 . S
O128 C129 1.286 . S
C129 U126 2.984 . S
C129 O127 1.353 . S
C129 O128 1.286 . S
C129 C131 1.363 . S
C130 C120 1.465 . S
C130 U126 2.847 . S
C130 O144 1.249 . S
C130 O145 1.202 . S
C131 C129 1.363 . S
C131 C133 1.408 . S
C131 C136 1.342 . S
C132 C133 1.310 . S
C132 C135 1.461 . S
C132 H152 0.932 . S
C133 C131 1.408 . S
C133 C132 1.310 . S
C133 H153 0.930 . S
C134 C135 1.474 . S
C134 C136 1.285 . S
C134 H154 0.929 . S
C135 C132 1.461 . S
C135 C134 1.474 . S
C136 C131 1.342 . S
C136 C134 1.285 . S
C136 H155 0.930 . S
C137 C140 1.424 . S
C137 C142 1.245 . S
C137 C143 1.428 . S
C138 C141 1.260 . S
C138 C142 1.477 . S
C138 H156 0.932 . S
C139 C140 1.384 . S
C139 C141 1.479 . S
C139 H157 0.929 . S
C140 C137 1.424 . S
C140 C139 1.384 . S
C140 H158 0.928 . S
C141 C138 1.260 . S
C141 C139 1.479 . S
C142 C137 1.245 . S
C142 C138 1.477 . S
C142 H159 0.932 . S
C143 U126 2.882 . S
C143 C137 1.428 . S
C143 O146 1.301 . S
C143 O147 1.282 . S
O144 U126 2.441 . S
O144 C130 1.249 . S
O145 U126 2.420 . S
O145 C130 1.202 . S
O146 U126 2.455 . S
O146 C143 1.301 . S
O147 U126 2.449 . S
O147 C143 1.282 . S
H148 C121 0.931 . S
H149 C123 0.929 . S
H150 C124 0.930 . S
H151 C125 0.931 . S
H152 C132 0.932 . S
H153 C133 0.930 . S
H154 C134 0.929 . S
H155 C136 0.930 . S
H156 C138 0.932 . S
H157 C139 0.929 . S
H158 C140 0.928 . S
H159 C142 0.932 . S
C160 C161 1.264 . S
C160 C165 1.479 . S
C160 C170 1.465 . S
C161 C160 1.264 . S
C161 C163 1.339 . S
C161 H188 0.931 . S
C162 C163 1.395 . S
C162 C164 1.320 . S
C163 C161 1.339 . S
C163 C162 1.395 . S
C163 H189 0.929 . S
C164 C162 1.320 . S
C164 C165 1.405 . S
C164 H190 0.930 . S
C165 C160 1.479 . S
C165 C164 1.405 . S
C165 H191 0.931 . S
U166 O167 2.454 . S
U166 O168 2.458 . S
U166 C169 2.984 . S
U166 C170 2.847 . S
U166 C183 2.882 . S
U166 O184 2.441 . S
U166 O185 2.420 . S
U166 O186 2.455 . S
U166 O187 2.449 . S
O167 U166 2.454 . S
O167 C169 1.353 . S
O168 U166 2.458 . S
O168 C169 1.286 . S
C169 U166 2.984 . S
C169 O167 1.353 . S
C169 O168 1.286 . S
C169 C171 1.363 . S
C170 C160 1.465 . S
C170 U166 2.847 . S
C170 O184 1.249 . S
C170 O185 1.202 . S
C171 C169 1.363 . S
C171 C173 1.408 . S
C171 C176 1.342 . S
C172 C173 1.310 . S
C172 C175 1.461 . S
C172 H192 0.932 . S
C173 C171 1.408 . S
C173 C172 1.310 . S
C173 H193 0.930 . S
C174 C175 1.474 . S
C174 C176 1.285 . S
C174 H194 0.929 . S
C175 C172 1.461 . S
C175 C174 1.474 . S
C176 C171 1.342 . S
C176 C174 1.285 . S
C176 H195 0.930 . S
C177 C180 1.424 . S
C177 C182 1.245 . S
C177 C183 1.428 . S
C178 C181 1.260 . S
C178 C182 1.477 . S
C178 H196 0.932 . S
C179 C180 1.384 . S
C179 C181 1.479 . S
C179 H197 0.929 . S
C180 C177 1.424 . S
C180 C179 1.384 . S
C180 H198 0.928 . S
C181 C178 1.260 . S
C181 C179 1.479 . S
C182 C177 1.245 . S
C182 C178 1.477 . S
C182 H199 0.932 . S
C183 U166 2.882 . S
C183 C177 1.428 . S
C183 O186 1.301 . S
C183 O187 1.282 . S
O184 U166 2.441 . S
O184 C170 1.249 . S
O185 U166 2.420 . S
O185 C170 1.202 . S
O186 U166 2.455 . S
O186 C183 1.301 . S
O187 U166 2.449 . S
O187 C183 1.282 . S
H188 C161 0.931 . S
H189 C163 0.929 . S
H190 C164 0.930 . S
H191 C165 0.931 . S
H192 C172 0.932 . S
H193 C173 0.930 . S
H194 C174 0.929 . S
H195 C176 0.930 . S
H196 C178 0.932 . S
H197 C179 0.929 . S
H198 C180 0.928 . S
H199 C182 0.932 . S
C200 C201 1.264 . S
C200 C205 1.479 . S
C200 C210 1.465 . S
C201 C200 1.264 . S
C201 C203 1.339 . S
C201 H228 0.931 . S
C202 C203 1.395 . S
C202 C204 1.320 . S
C203 C201 1.339 . S
C203 C202 1.395 . S
C203 H229 0.929 . S
C204 C202 1.320 . S
C204 C205 1.405 . S
C204 H230 0.930 . S
C205 C200 1.479 . S
C205 C204 1.405 . S
C205 H231 0.931 . S
U206 O207 2.454 . S
U206 O208 2.458 . S
U206 C209 2.984 . S
U206 C210 2.847 . S
U206 C223 2.882 . S
U206 O224 2.441 . S
U206 O225 2.420 . S
U206 O226 2.455 . S
U206 O227 2.449 . S
O207 U206 2.454 . S
O207 C209 1.353 . S
O208 U206 2.458 . S
O208 C209 1.286 . S
C209 U206 2.984 . S
C209 O207 1.353 . S
C209 O208 1.286 . S
C209 C211 1.363 . S
C210 C200 1.465 . S
C210 U206 2.847 . S
C210 O224 1.249 . S
C210 O225 1.202 . S
C211 C209 1.363 . S
C211 C213 1.408 . S
C211 C216 1.342 . S
C212 C213 1.310 . S
C212 C215 1.461 . S
C212 H232 0.932 . S
C213 C211 1.408 . S
C213 C212 1.310 . S
C213 H233 0.930 . S
C214 C215 1.474 . S
C214 C216 1.285 . S
C214 H234 0.929 . S
C215 C212 1.461 . S
C215 C214 1.474 . S
C216 C211 1.342 . S
C216 C214 1.285 . S
C216 H235 0.930 . S
C217 C220 1.424 . S
C217 C222 1.245 . S
C217 C223 1.428 . S
C218 C221 1.260 . S
C218 C222 1.477 . S
C218 H236 0.932 . S
C219 C220 1.384 . S
C219 C221 1.479 . S
C219 H237 0.929 . S
C220 C217 1.424 . S
C220 C219 1.384 . S
C220 H238 0.928 . S
C221 C218 1.260 . S
C221 C219 1.479 . S
C222 C217 1.245 . S
C222 C218 1.477 . S
C222 H239 0.932 . S
C223 U206 2.882 . S
C223 C217 1.428 . S
C223 O226 1.301 . S
C223 O227 1.282 . S
O224 U206 2.441 . S
O224 C210 1.249 . S
O225 U206 2.420 . S
O225 C210 1.202 . S
O226 U206 2.455 . S
O226 C223 1.301 . S
O227 U206 2.449 . S
O227 C223 1.282 . S
H228 C201 0.931 . S
H229 C203 0.929 . S
H230 C204 0.930 . S
H231 C205 0.931 . S
H232 C212 0.932 . S
H233 C213 0.930 . S
H234 C214 0.929 . S
H235 C216 0.930 . S
H236 C218 0.932 . S
H237 C219 0.929 . S
H238 C220 0.928 . S
H239 C222 0.932 . S
C240 C241 1.264 . S
C240 C245 1.479 . S
C240 C250 1.465 . S
C241 C240 1.264 . S
C241 C243 1.339 . S
C241 H268 0.931 . S
C242 C243 1.395 . S
C242 C244 1.320 . S
C243 C241 1.339 . S
C243 C242 1.395 . S
C243 H269 0.929 . S
C244 C242 1.320 . S
C244 C245 1.405 . S
C244 H270 0.930 . S
C245 C240 1.479 . S
C245 C244 1.405 . S
C245 H271 0.931 . S
U246 O247 2.454 . S
U246 O248 2.458 . S
U246 C249 2.984 . S
U246 C250 2.847 . S
U246 C263 2.882 . S
U246 O264 2.441 . S
U246 O265 2.420 . S
U246 O266 2.455 . S
U246 O267 2.449 . S
O247 U246 2.454 . S
O247 C249 1.353 . S
O248 U246 2.458 . S
O248 C249 1.286 . S
C249 U246 2.984 . S
C249 O247 1.353 . S
C249 O248 1.286 . S
C249 C251 1.363 . S
C250 C240 1.465 . S
C250 U246 2.847 . S
C250 O264 1.249 . S
C250 O265 1.202 . S
C251 C249 1.363 . S
C251 C253 1.408 . S
C251 C256 1.342 . S
C252 C253 1.310 . S
C252 C255 1.461 . S
C252 H272 0.932 . S
C253 C251 1.408 . S
C253 C252 1.310 . S
C253 H273 0.930 . S
C254 C255 1.474 . S
C254 C256 1.285 . S
C254 H274 0.929 . S
C255 C252 1.461 . S
C255 C254 1.474 . S
C256 C251 1.342 . S
C256 C254 1.285 . S
C256 H275 0.930 . S
C257 C260 1.424 . S
C257 C262 1.245 . S
C257 C263 1.428 . S
C258 C261 1.260 . S
C258 C262 1.477 . S
C258 H276 0.932 . S
C259 C260 1.384 . S
C259 C261 1.479 . S
C259 H277 0.929 . S
C260 C257 1.424 . S
C260 C259 1.384 . S
C260 H278 0.928 . S
C261 C258 1.260 . S
C261 C259 1.479 . S
C262 C257 1.245 . S
C262 C258 1.477 . S
C262 H279 0.932 . S
C263 U246 2.882 . S
C263 C257 1.428 . S
C263 O266 1.301 . S
C263 O267 1.282 . S
O264 U246 2.441 . S
O264 C250 1.249 . S
O265 U246 2.420 . S
O265 C250 1.202 . S
O266 U246 2.455 . S
O266 C263 1.301 . S
O267 U246 2.449 . S
O267 C263 1.282 . S
H268 C241 0.931 . S
H269 C243 0.929 . S
H270 C244 0.930 . S
H271 C245 0.931 . S
H272 C252 0.932 . S
H273 C253 0.930 . S
H274 C254 0.929 . S
H275 C256 0.930 . S
H276 C258 0.932 . S
H277 C259 0.929 . S
H278 C260 0.928 . S
H279 C262 0.932 . S
C280 C281 1.264 . S
C280 C285 1.479 . S
C280 C290 1.465 . S
C281 C280 1.264 . S
C281 C283 1.339 . S
C281 H308 0.931 . S
C282 C283 1.395 . S
C282 C284 1.320 . S
C283 C281 1.339 . S
C283 C282 1.395 . S
C283 H309 0.929 . S
C284 C282 1.320 . S
C284 C285 1.405 . S
C284 H310 0.930 . S
C285 C280 1.479 . S
C285 C284 1.405 . S
C285 H311 0.931 . S
U286 O287 2.454 . S
U286 O288 2.458 . S
U286 C289 2.984 . S
U286 C290 2.847 . S
U286 C303 2.882 . S
U286 O304 2.441 . S
U286 O305 2.420 . S
U286 O306 2.455 . S
U286 O307 2.449 . S
O287 U286 2.454 . S
O287 C289 1.353 . S
O288 U286 2.458 . S
O288 C289 1.286 . S
C289 U286 2.984 . S
C289 O287 1.353 . S
C289 O288 1.286 . S
C289 C291 1.363 . S
C290 C280 1.465 . S
C290 U286 2.847 . S
C290 O304 1.249 . S
C290 O305 1.202 . S
C291 C289 1.363 . S
C291 C293 1.408 . S
C291 C296 1.342 . S
C292 C293 1.310 . S
C292 C295 1.461 . S
C292 H312 0.932 . S
C293 C291 1.408 . S
C293 C292 1.310 . S
C293 H313 0.930 . S
C294 C295 1.474 . S
C294 C296 1.285 . S
C294 H314 0.929 . S
C295 C292 1.461 . S
C295 C294 1.474 . S
C296 C291 1.342 . S
C296 C294 1.285 . S
C296 H315 0.930 . S
C297 C300 1.424 . S
C297 C302 1.245 . S
C297 C303 1.428 . S
C298 C301 1.260 . S
C298 C302 1.477 . S
C298 H316 0.932 . S
C299 C300 1.384 . S
C299 C301 1.479 . S
C299 H317 0.929 . S
C300 C297 1.424 . S
C300 C299 1.384 . S
C300 H318 0.928 . S
C301 C298 1.260 . S
C301 C299 1.479 . S
C302 C297 1.245 . S
C302 C298 1.477 . S
C302 H319 0.932 . S
C303 U286 2.882 . S
C303 C297 1.428 . S
C303 O306 1.301 . S
C303 O307 1.282 . S
O304 U286 2.441 . S
O304 C290 1.249 . S
O305 U286 2.420 . S
O305 C290 1.202 . S
O306 U286 2.455 . S
O306 C303 1.301 . S
O307 U286 2.449 . S
O307 C303 1.282 . S
H308 C281 0.931 . S
H309 C283 0.929 . S
H310 C284 0.930 . S
H311 C285 0.931 . S
H312 C292 0.932 . S
H313 C293 0.930 . S
H314 C294 0.929 . S
H315 C296 0.930 . S
H316 C298 0.932 . S
H317 C299 0.929 . S
H318 C300 0.928 . S
H319 C302 0.932 . S
C320 C321 1.264 . S
C320 C325 1.479 . S
C320 C330 1.465 . S
C321 C320 1.264 . S
C321 C323 1.339 . S
C321 H348 0.931 . S
C322 C323 1.395 . S
C322 C324 1.320 . S
C323 C321 1.339 . S
C323 C322 1.395 . S
C323 H349 0.929 . S
C324 C322 1.320 . S
C324 C325 1.405 . S
C324 H350 0.930 . S
C325 C320 1.479 . S
C325 C324 1.405 . S
C325 H351 0.931 . S
U326 O327 2.454 . S
U326 O328 2.458 . S
U326 C329 2.984 . S
U326 C330 2.847 . S
U326 C343 2.882 . S
U326 O344 2.441 . S
U326 O345 2.420 . S
U326 O346 2.455 . S
U326 O347 2.449 . S
O327 U326 2.454 . S
O327 C329 1.353 . S
O328 U326 2.458 . S
O328 C329 1.286 . S
C329 U326 2.984 . S
C329 O327 1.353 . S
C329 O328 1.286 . S
C329 C331 1.363 . S
C330 C320 1.465 . S
C330 U326 2.847 . S
C330 O344 1.249 . S
C330 O345 1.202 . S
C331 C329 1.363 . S
C331 C333 1.408 . S
C331 C336 1.342 . S
C332 C333 1.310 . S
C332 C335 1.461 . S
C332 H352 0.932 . S
C333 C331 1.408 . S
C333 C332 1.310 . S
C333 H353 0.930 . S
C334 C335 1.474 . S
C334 C336 1.285 . S
C334 H354 0.929 . S
C335 C332 1.461 . S
C335 C334 1.474 . S
C336 C331 1.342 . S
C336 C334 1.285 . S
C336 H355 0.930 . S
C337 C340 1.424 . S
C337 C342 1.245 . S
C337 C343 1.428 . S
C338 C341 1.260 . S
C338 C342 1.477 . S
C338 H356 0.932 . S
C339 C340 1.384 . S
C339 C341 1.479 . S
C339 H357 0.929 . S
C340 C337 1.424 . S
C340 C339 1.384 . S
C340 H358 0.928 . S
C341 C338 1.260 . S
C341 C339 1.479 . S
C342 C337 1.245 . S
C342 C338 1.477 . S
C342 H359 0.932 . S
C343 U326 2.882 . S
C343 C337 1.428 . S
C343 O346 1.301 . S
C343 O347 1.282 . S
O344 U326 2.441 . S
O344 C330 1.249 . S
O345 U326 2.420 . S
O345 C330 1.202 . S
O346 U326 2.455 . S
O346 C343 1.301 . S
O347 U326 2.449 . S
O347 C343 1.282 . S
H348 C321 0.931 . S
H349 C323 0.929 . S
H350 C324 0.930 . S
H351 C325 0.931 . S
H352 C332 0.932 . S
H353 C333 0.930 . S
H354 C334 0.929 . S
H355 C336 0.930 . S
H356 C338 0.932 . S
H357 C339 0.929 . S
H358 C340 0.928 . S
H359 C342 0.932 . S
C360 C361 1.264 . S
C360 C365 1.479 . S
C360 C370 1.465 . S
C361 C360 1.264 . S
C361 C363 1.339 . S
C361 H388 0.931 . S
C362 C363 1.395 . S
C362 C364 1.320 . S
C363 C361 1.339 . S
C363 C362 1.395 . S
C363 H389 0.929 . S
C364 C362 1.320 . S
C364 C365 1.405 . S
C364 H390 0.930 . S
C365 C360 1.479 . S
C365 C364 1.405 . S
C365 H391 0.931 . S
U366 O367 2.454 . S
U366 O368 2.458 . S
U366 C369 2.984 . S
U366 C370 2.847 . S
U366 C383 2.882 . S
U366 O384 2.441 . S
U366 O385 2.420 . S
U366 O386 2.455 . S
U366 O387 2.449 . S
O367 U366 2.454 . S
O367 C369 1.353 . S
O368 U366 2.458 . S
O368 C369 1.286 . S
C369 U366 2.984 . S
C369 O367 1.353 . S
C369 O368 1.286 . S
C369 C371 1.363 . S
C370 C360 1.465 . S
C370 U366 2.847 . S
C370 O384 1.249 . S
C370 O385 1.202 . S
C371 C369 1.363 . S
C371 C373 1.408 . S
C371 C376 1.342 . S
C372 C373 1.310 . S
C372 C375 1.461 . S
C372 H392 0.932 . S
C373 C371 1.408 . S
C373 C372 1.310 . S
C373 H393 0.930 . S
C374 C375 1.474 . S
C374 C376 1.285 . S
C374 H394 0.929 . S
C375 C372 1.461 . S
C375 C374 1.474 . S
C376 C371 1.342 . S
C376 C374 1.285 . S
C376 H395 0.930 . S
C377 C380 1.424 . S
C377 C382 1.245 . S
C377 C383 1.428 . S
C378 C381 1.260 . S
C378 C382 1.477 . S
C378 H396 0.932 . S
C379 C380 1.384 . S
C379 C381 1.479 . S
C379 H397 0.929 . S
C380 C377 1.424 . S
C380 C379 1.384 . S
C380 H398 0.928 . S
C381 C378 1.260 . S
C381 C379 1.479 . S
C382 C377 1.245 . S
C382 C378 1.477 . S
C382 H399 0.932 . S
C383 U366 2.882 . S
C383 C377 1.428 . S
C383 O386 1.301 . S
C383 O387 1.282 . S
O384 U366 2.441 . S
O384 C370 1.249 . S
O385 U366 2.420 . S
O385 C370 1.202 . S
O386 U366 2.455 . S
O386 C383 1.301 . S
O387 U366 2.449 . S
O387 C383 1.282 . S
H388 C361 0.931 . S
H389 C363 0.929 . S
H390 C364 0.930 . S
H391 C365 0.931 . S
H392 C372 0.932 . S
H393 C373 0.930 . S
H394 C374 0.929 . S
H395 C376 0.930 . S
H396 C378 0.932 . S
H397 C379 0.929 . S
H398 C380 0.928 . S
H399 C382 0.932 . S
C400 C401 1.264 . S
C400 C405 1.479 . S
C400 C410 1.465 . S
C401 C400 1.264 . S
C401 C403 1.339 . S
C401 H428 0.931 . S
C402 C403 1.395 . S
C402 C404 1.320 . S
C403 C401 1.339 . S
C403 C402 1.395 . S
C403 H429 0.929 . S
C404 C402 1.320 . S
C404 C405 1.405 . S
C404 H430 0.930 . S
C405 C400 1.479 . S
C405 C404 1.405 . S
C405 H431 0.931 . S
U406 O407 2.454 . S
U406 O408 2.458 . S
U406 C409 2.984 . S
U406 C410 2.847 . S
U406 C423 2.882 . S
U406 O424 2.441 . S
U406 O425 2.420 . S
U406 O426 2.455 . S
U406 O427 2.449 . S
O407 U406 2.454 . S
O407 C409 1.353 . S
O408 U406 2.458 . S
O408 C409 1.286 . S
C409 U406 2.984 . S
C409 O407 1.353 . S
C409 O408 1.286 . S
C409 C411 1.363 . S
C410 C400 1.465 . S
C410 U406 2.847 . S
C410 O424 1.249 . S
C410 O425 1.202 . S
C411 C409 1.363 . S
C411 C413 1.408 . S
C411 C416 1.342 . S
C412 C413 1.310 . S
C412 C415 1.461 . S
C412 H432 0.932 . S
C413 C411 1.408 . S
C413 C412 1.310 . S
C413 H433 0.930 . S
C414 C415 1.474 . S
C414 C416 1.285 . S
C414 H434 0.929 . S
C415 C412 1.461 . S
C415 C414 1.474 . S
C416 C411 1.342 . S
C416 C414 1.285 . S
C416 H435 0.930 . S
C417 C420 1.424 . S
C417 C422 1.245 . S
C417 C423 1.428 . S
C418 C421 1.260 . S
C418 C422 1.477 . S
C418 H436 0.932 . S
C419 C420 1.384 . S
C419 C421 1.479 . S
C419 H437 0.929 . S
C420 C417 1.424 . S
C420 C419 1.384 . S
C420 H438 0.928 . S
C421 C418 1.260 . S
C421 C419 1.479 . S
C422 C417 1.245 . S
C422 C418 1.477 . S
C422 H439 0.932 . S
C423 U406 2.882 . S
C423 C417 1.428 . S
C423 O426 1.301 . S
C423 O427 1.282 . S
O424 U406 2.441 . S
O424 C410 1.249 . S
O425 U406 2.420 . S
O425 C410 1.202 . S
O426 U406 2.455 . S
O426 C423 1.301 . S
O427 U406 2.449 . S
O427 C423 1.282 . S
H428 C401 0.931 . S
H429 C403 0.929 . S
H430 C404 0.930 . S
H431 C405 0.931 . S
H432 C412 0.932 . S
H433 C413 0.930 . S
H434 C414 0.929 . S
H435 C416 0.930 . S
H436 C418 0.932 . S
H437 C419 0.929 . S
H438 C420 0.928 . S
H439 C422 0.932 . S
C440 C441 1.264 . S
C440 C445 1.479 . S
C440 C450 1.465 . S
C441 C440 1.264 . S
C441 C443 1.339 . S
C441 H468 0.931 . S
C442 C443 1.395 . S
C442 C444 1.320 . S
C443 C441 1.339 . S
C443 C442 1.395 . S
C443 H469 0.929 . S
C444 C442 1.320 . S
C444 C445 1.405 . S
C444 H470 0.930 . S
C445 C440 1.479 . S
C445 C444 1.405 . S
C445 H471 0.931 . S
U446 O447 2.454 . S
U446 O448 2.458 . S
U446 C449 2.984 . S
U446 C450 2.847 . S
U446 C463 2.882 . S
U446 O464 2.441 . S
U446 O465 2.420 . S
U446 O466 2.455 . S
U446 O467 2.449 . S
O447 U446 2.454 . S
O447 C449 1.353 . S
O448 U446 2.458 . S
O448 C449 1.286 . S
C449 U446 2.984 . S
C449 O447 1.353 . S
C449 O448 1.286 . S
C449 C451 1.363 . S
C450 C440 1.465 . S
C450 U446 2.847 . S
C450 O464 1.249 . S
C450 O465 1.202 . S
C451 C449 1.363 . S
C451 C453 1.408 . S
C451 C456 1.342 . S
C452 C453 1.310 . S
C452 C455 1.461 . S
C452 H472 0.932 . S
C453 C451 1.408 . S
C453 C452 1.310 . S
C453 H473 0.930 . S
C454 C455 1.474 . S
C454 C456 1.285 . S
C454 H474 0.929 . S
C455 C452 1.461 . S
C455 C454 1.474 . S
C456 C451 1.342 . S
C456 C454 1.285 . S
C456 H475 0.930 . S
C457 C460 1.424 . S
C457 C462 1.245 . S
C457 C463 1.428 . S
C458 C461 1.260 . S
C458 C462 1.477 . S
C458 H476 0.932 . S
C459 C460 1.384 . S
C459 C461 1.479 . S
C459 H477 0.929 . S
C460 C457 1.424 . S
C460 C459 1.384 . S
C460 H478 0.928 . S
C461 C458 1.260 . S
C461 C459 1.479 . S
C462 C457 1.245 . S
C462 C458 1.477 . S
C462 H479 0.932 . S
C463 U446 2.882 . S
C463 C457 1.428 . S
C463 O466 1.301 . S
C463 O467 1.282 . S
O464 U446 2.441 . S
O464 C450 1.249 . S
O465 U446 2.420 . S
O465 C450 1.202 . S
O466 U446 2.455 . S
O466 C463 1.301 . S
O467 U446 2.449 . S
O467 C463 1.282 . S
H468 C441 0.931 . S
H469 C443 0.929 . S
H470 C444 0.930 . S
H471 C445 0.931 . S
H472 C452 0.932 . S
H473 C453 0.930 . S
H474 C454 0.929 . S
H475 C456 0.930 . S
H476 C458 0.932 . S
H477 C459 0.929 . S
H478 C460 0.928 . S
H479 C462 0.932 . S
C480 C481 1.264 . S
C480 C485 1.479 . S
C480 C490 1.465 . S
C481 C480 1.264 . S
C481 C483 1.339 . S
C481 H508 0.931 . S
C482 C483 1.395 . S
C482 C484 1.320 . S
C483 C481 1.339 . S
C483 C482 1.395 . S
C483 H509 0.929 . S
C484 C482 1.320 . S
C484 C485 1.405 . S
C484 H510 0.930 . S
C485 C480 1.479 . S
C485 C484 1.405 . S
C485 H511 0.931 . S
U486 O487 2.454 . S
U486 O488 2.458 . S
U486 C489 2.984 . S
U486 C490 2.847 . S
U486 C503 2.882 . S
U486 O504 2.441 . S
U486 O505 2.420 . S
U486 O506 2.455 . S
U486 O507 2.449 . S
O487 U486 2.454 . S
O487 C489 1.353 . S
O488 U486 2.458 . S
O488 C489 1.286 . S
C489 U486 2.984 . S
C489 O487 1.353 . S
C489 O488 1.286 . S
C489 C491 1.363 . S
C490 C480 1.465 . S
C490 U486 2.847 . S
C490 O504 1.249 . S
C490 O505 1.202 . S
C491 C489 1.363 . S
C491 C493 1.408 . S
C491 C496 1.342 . S
C492 C493 1.310 . S
C492 C495 1.461 . S
C492 H512 0.932 . S
C493 C491 1.408 . S
C493 C492 1.310 . S
C493 H513 0.930 . S
C494 C495 1.474 . S
C494 C496 1.285 . S
C494 H514 0.929 . S
C495 C492 1.461 . S
C495 C494 1.474 . S
C496 C491 1.342 . S
C496 C494 1.285 . S
C496 H515 0.930 . S
C497 C500 1.424 . S
C497 C502 1.245 . S
C497 C503 1.428 . S
C498 C501 1.260 . S
C498 C502 1.477 . S
C498 H516 0.932 . S
C499 C500 1.384 . S
C499 C501 1.479 . S
C499 H517 0.929 . S
C500 C497 1.424 . S
C500 C499 1.384 . S
C500 H518 0.928 . S
C501 C498 1.260 . S
C501 C499 1.479 . S
C502 C497 1.245 . S
C502 C498 1.477 . S
C502 H519 0.932 . S
C503 U486 2.882 . S
C503 C497 1.428 . S
C503 O506 1.301 . S
C503 O507 1.282 . S
O504 U486 2.441 . S
O504 C490 1.249 . S
O505 U486 2.420 . S
O505 C490 1.202 . S
O506 U486 2.455 . S
O506 C503 1.301 . S
O507 U486 2.449 . S
O507 C503 1.282 . S
H508 C481 0.931 . S
H509 C483 0.929 . S
H510 C484 0.930 . S
H511 C485 0.931 . S
H512 C492 0.932 . S
H513 C493 0.930 . S
H514 C494 0.929 . S
H515 C496 0.930 . S
H516 C498 0.932 . S
H517 C499 0.929 . S
H518 C500 0.928 . S
H519 C502 0.932 . S
C520 C521 1.264 . S
C520 C525 1.479 . S
C520 C530 1.465 . S
C521 C520 1.264 . S
C521 C523 1.339 . S
C521 H548 0.931 . S
C522 C523 1.395 . S
C522 C524 1.320 . S
C523 C521 1.339 . S
C523 C522 1.395 . S
C523 H549 0.929 . S
C524 C522 1.320 . S
C524 C525 1.405 . S
C524 H550 0.930 . S
C525 C520 1.479 . S
C525 C524 1.405 . S
C525 H551 0.931 . S
U526 O527 2.454 . S
U526 O528 2.458 . S
U526 C529 2.984 . S
U526 C530 2.847 . S
U526 C543 2.882 . S
U526 O544 2.441 . S
U526 O545 2.420 . S
U526 O546 2.455 . S
U526 O547 2.449 . S
O527 U526 2.454 . S
O527 C529 1.353 . S
O528 U526 2.458 . S
O528 C529 1.286 . S
C529 U526 2.984 . S
C529 O527 1.353 . S
C529 O528 1.286 . S
C529 C531 1.363 . S
C530 C520 1.465 . S
C530 U526 2.847 . S
C530 O544 1.249 . S
C530 O545 1.202 . S
C531 C529 1.363 . S
C531 C533 1.408 . S
C531 C536 1.342 . S
C532 C533 1.310 . S
C532 C535 1.461 . S
C532 H552 0.932 . S
C533 C531 1.408 . S
C533 C532 1.310 . S
C533 H553 0.930 . S
C534 C535 1.474 . S
C534 C536 1.285 . S
C534 H554 0.929 . S
C535 C532 1.461 . S
C535 C534 1.474 . S
C536 C531 1.342 . S
C536 C534 1.285 . S
C536 H555 0.930 . S
C537 C540 1.424 . S
C537 C542 1.245 . S
C537 C543 1.428 . S
C538 C541 1.260 . S
C538 C542 1.477 . S
C538 H556 0.932 . S
C539 C540 1.384 . S
C539 C541 1.479 . S
C539 H557 0.929 . S
C540 C537 1.424 . S
C540 C539 1.384 . S
C540 H558 0.928 . S
C541 C538 1.260 . S
C541 C539 1.479 . S
C542 C537 1.245 . S
C542 C538 1.477 . S
C542 H559 0.932 . S
C543 U526 2.882 . S
C543 C537 1.428 . S
C543 O546 1.301 . S
C543 O547 1.282 . S
O544 U526 2.441 . S
O544 C530 1.249 . S
O545 U526 2.420 . S
O545 C530 1.202 . S
O546 U526 2.455 . S
O546 C543 1.301 . S
O547 U526 2.449 . S
O547 C543 1.282 . S
H548 C521 0.931 . S
H549 C523 0.929 . S
H550 C524 0.930 . S
H551 C525 0.931 . S
H552 C532 0.932 . S
H553 C533 0.930 . S
H554 C534 0.929 . S
H555 C536 0.930 . S
H556 C538 0.932 . S
H557 C539 0.929 . S
H558 C540 0.928 . S
H559 C542 0.932 . S
C560 C561 1.264 . S
C560 C565 1.479 . S
C560 C570 1.465 . S
C561 C560 1.264 . S
C561 C563 1.339 . S
C561 H588 0.931 . S
C562 C563 1.395 . S
C562 C564 1.320 . S
C563 C561 1.339 . S
C563 C562 1.395 . S
C563 H589 0.929 . S
C564 C562 1.320 . S
C564 C565 1.405 . S
C564 H590 0.930 . S
C565 C560 1.479 . S
C565 C564 1.405 . S
C565 H591 0.931 . S
U566 O567 2.454 . S
U566 O568 2.458 . S
U566 C569 2.984 . S
U566 C570 2.847 . S
U566 C583 2.882 . S
U566 O584 2.441 . S
U566 O585 2.420 . S
U566 O586 2.455 . S
U566 O587 2.449 . S
O567 U566 2.454 . S
O567 C569 1.353 . S
O568 U566 2.458 . S
O568 C569 1.286 . S
C569 U566 2.984 . S
C569 O567 1.353 . S
C569 O568 1.286 . S
C569 C571 1.363 . S
C570 C560 1.465 . S
C570 U566 2.847 . S
C570 O584 1.249 . S
C570 O585 1.202 . S
C571 C569 1.363 . S
C571 C573 1.408 . S
C571 C576 1.342 . S
C572 C573 1.310 . S
C572 C575 1.461 . S
C572 H592 0.932 . S
C573 C571 1.408 . S
C573 C572 1.310 . S
C573 H593 0.930 . S
C574 C575 1.474 . S
C574 C576 1.285 . S
C574 H594 0.929 . S
C575 C572 1.461 . S
C575 C574 1.474 . S
C576 C571 1.342 . S
C576 C574 1.285 . S
C576 H595 0.930 . S
C577 C580 1.424 . S
C577 C582 1.245 . S
C577 C583 1.428 . S
C578 C581 1.260 . S
C578 C582 1.477 . S
C578 H596 0.932 . S
C579 C580 1.384 . S
C579 C581 1.479 . S
C579 H597 0.929 . S
C580 C577 1.424 . S
C580 C579 1.384 . S
C580 H598 0.928 . S
C581 C578 1.260 . S
C581 C579 1.479 . S
C582 C577 1.245 . S
C582 C578 1.477 . S
C582 H599 0.932 . S
C583 U566 2.882 . S
C583 C577 1.428 . S
C583 O586 1.301 . S
C583 O587 1.282 . S
O584 U566 2.441 . S
O584 C570 1.249 . S
O585 U566 2.420 . S
O585 C570 1.202 . S
O586 U566 2.455 . S
O586 C583 1.301 . S
O587 U566 2.449 . S
O587 C583 1.282 . S
H588 C561 0.931 . S
H589 C563 0.929 . S
H590 C564 0.930 . S
H591 C565 0.931 . S
H592 C572 0.932 . S
H593 C573 0.930 . S
H594 C574 0.929 . S
H595 C576 0.930 . S
H596 C578 0.932 . S
H597 C579 0.929 . S
H598 C580 0.928 . S
H599 C582 0.932 . S
C600 C601 1.264 . S
C600 C605 1.479 . S
C600 C610 1.465 . S
C601 C600 1.264 . S
C601 C603 1.339 . S
C601 H628 0.931 . S
C602 C603 1.395 . S
C602 C604 1.320 . S
C603 C601 1.339 . S
C603 C602 1.395 . S
C603 H629 0.929 . S
C604 C602 1.320 . S
C604 C605 1.405 . S
C604 H630 0.930 . S
C605 C600 1.479 . S
C605 C604 1.405 . S
C605 H631 0.931 . S
U606 O607 2.454 . S
U606 O608 2.458 . S
U606 C609 2.984 . S
U606 C610 2.847 . S
U606 C623 2.882 . S
U606 O624 2.441 . S
U606 O625 2.420 . S
U606 O626 2.455 . S
U606 O627 2.449 . S
O607 U606 2.454 . S
O607 C609 1.353 . S
O608 U606 2.458 . S
O608 C609 1.286 . S
C609 U606 2.984 . S
C609 O607 1.353 . S
C609 O608 1.286 . S
C609 C611 1.363 . S
C610 C600 1.465 . S
C610 U606 2.847 . S
C610 O624 1.249 . S
C610 O625 1.202 . S
C611 C609 1.363 . S
C611 C613 1.408 . S
C611 C616 1.342 . S
C612 C613 1.310 . S
C612 C615 1.461 . S
C612 H632 0.932 . S
C613 C611 1.408 . S
C613 C612 1.310 . S
C613 H633 0.930 . S
C614 C615 1.474 . S
C614 C616 1.285 . S
C614 H634 0.929 . S
C615 C612 1.461 . S
C615 C614 1.474 . S
C616 C611 1.342 . S
C616 C614 1.285 . S
C616 H635 0.930 . S
C617 C620 1.424 . S
C617 C622 1.245 . S
C617 C623 1.428 . S
C618 C621 1.260 . S
C618 C622 1.477 . S
C618 H636 0.932 . S
C619 C620 1.384 . S
C619 C621 1.479 . S
C619 H637 0.929 . S
C620 C617 1.424 . S
C620 C619 1.384 . S
C620 H638 0.928 . S
C621 C618 1.260 . S
C621 C619 1.479 . S
C622 C617 1.245 . S
C622 C618 1.477 . S
C622 H639 0.932 . S
C623 U606 2.882 . S
C623 C617 1.428 . S
C623 O626 1.301 . S
C623 O627 1.282 . S
O624 U606 2.441 . S
O624 C610 1.249 . S
O625 U606 2.420 . S
O625 C610 1.202 . S
O626 U606 2.455 . S
O626 C623 1.301 . S
O627 U606 2.449 . S
O627 C623 1.282 . S
H628 C601 0.931 . S
H629 C603 0.929 . S
H630 C604 0.930 . S
H631 C605 0.931 . S
H632 C612 0.932 . S
H633 C613 0.930 . S
H634 C614 0.929 . S
H635 C616 0.930 . S
H636 C618 0.932 . S
H637 C619 0.929 . S
H638 C620 0.928 . S
H639 C622 0.932 . S
C640 C641 1.264 . S
C640 C645 1.479 . S
C640 C650 1.465 . S
C641 C640 1.264 . S
C641 C643 1.339 . S
C641 H668 0.931 . S
C642 C643 1.395 . S
C642 C644 1.320 . S
C643 C641 1.339 . S
C643 C642 1.395 . S
C643 H669 0.929 . S
C644 C642 1.320 . S
C644 C645 1.405 . S
C644 H670 0.930 . S
C645 C640 1.479 . S
C645 C644 1.405 . S
C645 H671 0.931 . S
U646 O647 2.454 . S
U646 O648 2.458 . S
U646 C649 2.984 . S
U646 C650 2.847 . S
U646 C663 2.882 . S
U646 O664 2.441 . S
U646 O665 2.420 . S
U646 O666 2.455 . S
U646 O667 2.449 . S
O647 U646 2.454 . S
O647 C649 1.353 . S
O648 U646 2.458 . S
O648 C649 1.286 . S
C649 U646 2.984 . S
C649 O647 1.353 . S
C649 O648 1.286 . S
C649 C651 1.363 . S
C650 C640 1.465 . S
C650 U646 2.847 . S
C650 O664 1.249 . S
C650 O665 1.202 . S
C651 C649 1.363 . S
C651 C653 1.408 . S
C651 C656 1.342 . S
C652 C653 1.310 . S
C652 C655 1.461 . S
C652 H672 0.932 . S
C653 C651 1.408 . S
C653 C652 1.310 . S
C653 H673 0.930 . S
C654 C655 1.474 . S
C654 C656 1.285 . S
C654 H674 0.929 . S
C655 C652 1.461 . S
C655 C654 1.474 . S
C656 C651 1.342 . S
C656 C654 1.285 . S
C656 H675 0.930 . S
C657 C660 1.424 . S
C657 C662 1.245 . S
C657 C663 1.428 . S
C658 C661 1.260 . S
C658 C662 1.477 . S
C658 H676 0.932 . S
C659 C660 1.384 . S
C659 C661 1.479 . S
C659 H677 0.929 . S
C660 C657 1.424 . S
C660 C659 1.384 . S
C660 H678 0.928 . S
C661 C658 1.260 . S
C661 C659 1.479 . S
C662 C657 1.245 . S
C662 C658 1.477 . S
C662 H679 0.932 . S
C663 U646 2.882 . S
C663 C657 1.428 . S
C663 O666 1.301 . S
C663 O667 1.282 . S
O664 U646 2.441 . S
O664 C650 1.249 . S
O665 U646 2.420 . S
O665 C650 1.202 . S
O666 U646 2.455 . S
O666 C663 1.301 . S
O667 U646 2.449 . S
O667 C663 1.282 . S
H668 C641 0.931 . S
H669 C643 0.929 . S
H670 C644 0.930 . S
H671 C645 0.931 . S
H672 C652 0.932 . S
H673 C653 0.930 . S
H674 C654 0.929 . S
H675 C656 0.930 . S
H676 C658 0.932 . S
H677 C659 0.929 . S
H678 C660 0.928 . S
H679 C662 0.932 . S
C680 C681 1.264 . S
C680 C685 1.479 . S
C680 C690 1.465 . S
C681 C680 1.264 . S
C681 C683 1.339 . S
C681 H708 0.931 . S
C682 C683 1.395 . S
C682 C684 1.320 . S
C683 C681 1.339 . S
C683 C682 1.395 . S
C683 H709 0.929 . S
C684 C682 1.320 . S
C684 C685 1.405 . S
C684 H710 0.930 . S
C685 C680 1.479 . S
C685 C684 1.405 . S
C685 H711 0.931 . S
U686 O687 2.454 . S
U686 O688 2.458 . S
U686 C689 2.984 . S
U686 C690 2.847 . S
U686 C703 2.882 . S
U686 O704 2.441 . S
U686 O705 2.420 . S
U686 O706 2.455 . S
U686 O707 2.449 . S
O687 U686 2.454 . S
O687 C689 1.353 . S
O688 U686 2.458 . S
O688 C689 1.286 . S
C689 U686 2.984 . S
C689 O687 1.353 . S
C689 O688 1.286 . S
C689 C691 1.363 . S
C690 C680 1.465 . S
C690 U686 2.847 . S
C690 O704 1.249 . S
C690 O705 1.202 . S
C691 C689 1.363 . S
C691 C693 1.408 . S
C691 C696 1.342 . S
C692 C693 1.310 . S
C692 C695 1.461 . S
C692 H712 0.932 . S
C693 C691 1.408 . S
C693 C692 1.310 . S
C693 H713 0.930 . S
C694 C695 1.474 . S
C694 C696 1.285 . S
C694 H714 0.929 . S
C695 C692 1.461 . S
C695 C694 1.474 . S
C696 C691 1.342 . S
C696 C694 1.285 . S
C696 H715 0.930 . S
C697 C700 1.424 . S
C697 C702 1.245 . S
C697 C703 1.428 . S
C698 C701 1.260 . S
C698 C702 1.477 . S
C698 H716 0.932 . S
C699 C700 1.384 . S
C699 C701 1.479 . S
C699 H717 0.929 . S
C700 C697 1.424 . S
C700 C699 1.384 . S
C700 H718 0.928 . S
C701 C698 1.260 . S
C701 C699 1.479 . S
C702 C697 1.245 . S
C702 C698 1.477 . S
C702 H719 0.932 . S
C703 U686 2.882 . S
C703 C697 1.428 . S
C703 O706 1.301 . S
C703 O707 1.282 . S
O704 U686 2.441 . S
O704 C690 1.249 . S
O705 U686 2.420 . S
O705 C690 1.202 . S
O706 U686 2.455 . S
O706 C703 1.301 . S
O707 U686 2.449 . S
O707 C703 1.282 . S
H708 C681 0.931 . S
H709 C683 0.929 . S
H710 C684 0.930 . S
H711 C685 0.931 . S
H712 C692 0.932 . S
H713 C693 0.930 . S
H714 C694 0.929 . S
H715 C696 0.930 . S
H716 C698 0.932 . S
H717 C699 0.929 . S
H718 C700 0.928 . S
H719 C702 0.932 . S
C720 C721 1.264 . S
C720 C725 1.479 . S
C720 C730 1.465 . S
C721 C720 1.264 . S
C721 C723 1.339 . S
C721 H748 0.931 . S
C722 C723 1.395 . S
C722 C724 1.320 . S
C723 C721 1.339 . S
C723 C722 1.395 . S
C723 H749 0.929 . S
C724 C722 1.320 . S
C724 C725 1.405 . S
C724 H750 0.930 . S
C725 C720 1.479 . S
C725 C724 1.405 . S
C725 H751 0.931 . S
U726 O727 2.454 . S
U726 O728 2.458 . S
U726 C729 2.984 . S
U726 C730 2.847 . S
U726 C743 2.882 . S
U726 O744 2.441 . S
U726 O745 2.420 . S
U726 O746 2.455 . S
U726 O747 2.449 . S
O727 U726 2.454 . S
O727 C729 1.353 . S
O728 U726 2.458 . S
O728 C729 1.286 . S
C729 U726 2.984 . S
C729 O727 1.353 . S
C729 O728 1.286 . S
C729 C731 1.363 . S
C730 C720 1.465 . S
C730 U726 2.847 . S
C730 O744 1.249 . S
C730 O745 1.202 . S
C731 C729 1.363 . S
C731 C733 1.408 . S
C731 C736 1.342 . S
C732 C733 1.310 . S
C732 C735 1.461 . S
C732 H752 0.932 . S
C733 C731 1.408 . S
C733 C732 1.310 . S
C733 H753 0.930 . S
C734 C735 1.474 . S
C734 C736 1.285 . S
C734 H754 0.929 . S
C735 C732 1.461 . S
C735 C734 1.474 . S
C736 C731 1.342 . S
C736 C734 1.285 . S
C736 H755 0.930 . S
C737 C740 1.424 . S
C737 C742 1.245 . S
C737 C743 1.428 . S
C738 C741 1.260 . S
C738 C742 1.477 . S
C738 H756 0.932 . S
C739 C740 1.384 . S
C739 C741 1.479 . S
C739 H757 0.929 . S
C740 C737 1.424 . S
C740 C739 1.384 . S
C740 H758 0.928 . S
C741 C738 1.260 . S
C741 C739 1.479 . S
C742 C737 1.245 . S
C742 C738 1.477 . S
C742 H759 0.932 . S
C743 U726 2.882 . S
C743 C737 1.428 . S
C743 O746 1.301 . S
C743 O747 1.282 . S
O744 U726 2.441 . S
O744 C730 1.249 . S
O745 U726 2.420 . S
O745 C730 1.202 . S
O746 U726 2.455 . S
O746 C743 1.301 . S
O747 U726 2.449 . S
O747 C743 1.282 . S
H748 C721 0.931 . S
H749 C723 0.929 . S
H750 C724 0.930 . S
H751 C725 0.931 . S
H752 C732 0.932 . S
H753 C733 0.930 . S
H754 C734 0.929 . S
H755 C736 0.930 . S
H756 C738 0.932 . S
H757 C739 0.929 . S
H758 C740 0.928 . S
H759 C742 0.932 . S
C760 C761 1.264 . S
C760 C765 1.479 . S
C760 C770 1.465 . S
C761 C760 1.264 . S
C761 C763 1.339 . S
C761 H788 0.931 . S
C762 C763 1.395 . S
C762 C764 1.320 . S
C763 C761 1.339 . S
C763 C762 1.395 . S
C763 H789 0.929 . S
C764 C762 1.320 . S
C764 C765 1.405 . S
C764 H790 0.930 . S
C765 C760 1.479 . S
C765 C764 1.405 . S
C765 H791 0.931 . S
U766 O767 2.454 . S
U766 O768 2.458 . S
U766 C769 2.984 . S
U766 C770 2.847 . S
U766 C783 2.882 . S
U766 O784 2.441 . S
U766 O785 2.420 . S
U766 O786 2.455 . S
U766 O787 2.449 . S
O767 U766 2.454 . S
O767 C769 1.353 . S
O768 U766 2.458 . S
O768 C769 1.286 . S
C769 U766 2.984 . S
C769 O767 1.353 . S
C769 O768 1.286 . S
C769 C771 1.363 . S
C770 C760 1.465 . S
C770 U766 2.847 . S
C770 O784 1.249 . S
C770 O785 1.202 . S
C771 C769 1.363 . S
C771 C773 1.408 . S
C771 C776 1.342 . S
C772 C773 1.310 . S
C772 C775 1.461 . S
C772 H792 0.932 . S
C773 C771 1.408 . S
C773 C772 1.310 . S
C773 H793 0.930 . S
C774 C775 1.474 . S
C774 C776 1.285 . S
C774 H794 0.929 . S
C775 C772 1.461 . S
C775 C774 1.474 . S
C776 C771 1.342 . S
C776 C774 1.285 . S
C776 H795 0.930 . S
C777 C780 1.424 . S
C777 C782 1.245 . S
C777 C783 1.428 . S
C778 C781 1.260 . S
C778 C782 1.477 . S
C778 H796 0.932 . S
C779 C780 1.384 . S
C779 C781 1.479 . S
C779 H797 0.929 . S
C780 C777 1.424 . S
C780 C779 1.384 . S
C780 H798 0.928 . S
C781 C778 1.260 . S
C781 C779 1.479 . S
C782 C777 1.245 . S
C782 C778 1.477 . S
C782 H799 0.932 . S
C783 U766 2.882 . S
C783 C777 1.428 . S
C783 O786 1.301 . S
C783 O787 1.282 . S
O784 U766 2.441 . S
O784 C770 1.249 . S
O785 U766 2.420 . S
O785 C770 1.202 . S
O786 U766 2.455 . S
O786 C783 1.301 . S
O787 U766 2.449 . S
O787 C783 1.282 . S
H788 C761 0.931 . S
H789 C763 0.929 . S
H790 C764 0.930 . S
H791 C765 0.931 . S
H792 C772 0.932 . S
H793 C773 0.930 . S
H794 C774 0.929 . S
H795 C776 0.930 . S
H796 C778 0.932 . S
H797 C779 0.929 . S
H798 C780 0.928 . S
H799 C782 0.932 . S
C800 C801 1.264 . S
C800 C805 1.479 . S
C800 C810 1.465 . S
C801 C800 1.264 . S
C801 C803 1.339 . S
C801 H828 0.931 . S
C802 C803 1.395 . S
C802 C804 1.320 . S
C803 C801 1.339 . S
C803 C802 1.395 . S
C803 H829 0.929 . S
C804 C802 1.320 . S
C804 C805 1.405 . S
C804 H830 0.930 . S
C805 C800 1.479 . S
C805 C804 1.405 . S
C805 H831 0.931 . S
U806 O807 2.454 . S
U806 O808 2.458 . S
U806 C809 2.984 . S
U806 C810 2.847 . S
U806 C823 2.882 . S
U806 O824 2.441 . S
U806 O825 2.420 . S
U806 O826 2.455 . S
U806 O827 2.449 . S
O807 U806 2.454 . S
O807 C809 1.353 . S
O808 U806 2.458 . S
O808 C809 1.286 . S
C809 U806 2.984 . S
C809 O807 1.353 . S
C809 O808 1.286 . S
C809 C811 1.363 . S
C810 C800 1.465 . S
C810 U806 2.847 . S
C810 O824 1.249 . S
C810 O825 1.202 . S
C811 C809 1.363 . S
C811 C813 1.408 . S
C811 C816 1.342 . S
C812 C813 1.310 . S
C812 C815 1.461 . S
C812 H832 0.932 . S
C813 C811 1.408 . S
C813 C812 1.310 . S
C813 H833 0.930 . S
C814 C815 1.474 . S
C814 C816 1.285 . S
C814 H834 0.929 . S
C815 C812 1.461 . S
C815 C814 1.474 . S
C816 C811 1.342 . S
C816 C814 1.285 . S
C816 H835 0.930 . S
C817 C820 1.424 . S
C817 C822 1.245 . S
C817 C823 1.428 . S
C818 C821 1.260 . S
C818 C822 1.477 . S
C818 H836 0.932 . S
C819 C820 1.384 . S
C819 C821 1.479 . S
C819 H837 0.929 . S
C820 C817 1.424 . S
C820 C819 1.384 . S
C820 H838 0.928 . S
C821 C818 1.260 . S
C821 C819 1.479 . S
C822 C817 1.245 . S
C822 C818 1.477 . S
C822 H839 0.932 . S
C823 U806 2.882 . S
C823 C817 1.428 . S
C823 O826 1.301 . S
C823 O827 1.282 . S
O824 U806 2.441 . S
O824 C810 1.249 . S
O825 U806 2.420 . S
O825 C810 1.202 . S
O826 U806 2.455 . S
O826 C823 1.301 . S
O827 U806 2.449 . S
O827 C823 1.282 . S
H828 C801 0.931 . S
H829 C803 0.929 . S
H830 C804 0.930 . S
H831 C805 0.931 . S
H832 C812 0.932 . S
H833 C813 0.930 . S
H834 C814 0.929 . S
H835 C816 0.930 . S
H836 C818 0.932 . S
H837 C819 0.929 . S
H838 C820 0.928 . S
H839 C822 0.932 . S
C840 C841 1.264 . S
C840 C845 1.479 . S
C840 C850 1.465 . S
C841 C840 1.264 . S
C841 C843 1.339 . S
C841 H868 0.931 . S
C842 C843 1.395 . S
C842 C844 1.320 . S
C843 C841 1.339 . S
C843 C842 1.395 . S
C843 H869 0.929 . S
C844 C842 1.320 . S
C844 C845 1.405 . S
C844 H870 0.930 . S
C845 C840 1.479 . S
C845 C844 1.405 . S
C845 H871 0.931 . S
U846 O847 2.454 . S
U846 O848 2.458 . S
U846 C849 2.984 . S
U846 C850 2.847 . S
U846 C863 2.882 . S
U846 O864 2.441 . S
U846 O865 2.420 . S
U846 O866 2.455 . S
U846 O867 2.449 . S
O847 U846 2.454 . S
O847 C849 1.353 . S
O848 U846 2.458 . S
O848 C849 1.286 . S
C849 U846 2.984 . S
C849 O847 1.353 . S
C849 O848 1.286 . S
C849 C851 1.363 . S
C850 C840 1.465 . S
C850 U846 2.847 . S
C850 O864 1.249 . S
C850 O865 1.202 . S
C851 C849 1.363 . S
C851 C853 1.408 . S
C851 C856 1.342 . S
C852 C853 1.310 . S
C852 C855 1.461 . S
C852 H872 0.932 . S
C853 C851 1.408 . S
C853 C852 1.310 . S
C853 H873 0.930 . S
C854 C855 1.474 . S
C854 C856 1.285 . S
C854 H874 0.929 . S
C855 C852 1.461 . S
C855 C854 1.474 . S
C856 C851 1.342 . S
C856 C854 1.285 . S
C856 H875 0.930 . S
C857 C860 1.424 . S
C857 C862 1.245 . S
C857 C863 1.428 . S
C858 C861 1.260 . S
C858 C862 1.477 . S
C858 H876 0.932 . S
C859 C860 1.384 . S
C859 C861 1.479 . S
C859 H877 0.929 . S
C860 C857 1.424 . S
C860 C859 1.384 . S
C860 H878 0.928 . S
C861 C858 1.260 . S
C861 C859 1.479 . S
C862 C857 1.245 . S
C862 C858 1.477 . S
C862 H879 0.932 . S
C863 U846 2.882 . S
C863 C857 1.428 . S
C863 O866 1.301 . S
C863 O867 1.282 . S
O864 U846 2.441 . S
O864 C850 1.249 . S
O865 U846 2.420 . S
O865 C850 1.202 . S
O866 U846 2.455 . S
O866 C863 1.301 . S
O867 U846 2.449 . S
O867 C863 1.282 . S
H868 C841 0.931 . S
H869 C843 0.929 . S
H870 C844 0.930 . S
H871 C845 0.931 . S
H872 C852 0.932 . S
H873 C853 0.930 . S
H874 C854 0.929 . S
H875 C856 0.930 . S
H876 C858 0.932 . S
H877 C859 0.929 . S
H878 C860 0.928 . S
H879 C862 0.932 . S
C880 C881 1.264 . S
C880 C885 1.479 . S
C880 C890 1.465 . S
C881 C880 1.264 . S
C881 C883 1.339 . S
C881 H908 0.931 . S
C882 C883 1.395 . S
C882 C884 1.320 . S
C883 C881 1.339 . S
C883 C882 1.395 . S
C883 H909 0.929 . S
C884 C882 1.320 . S
C884 C885 1.405 . S
C884 H910 0.930 . S
C885 C880 1.479 . S
C885 C884 1.405 . S
C885 H911 0.931 . S
U886 O887 2.454 . S
U886 O888 2.458 . S
U886 C889 2.984 . S
U886 C890 2.847 . S
U886 C903 2.882 . S
U886 O904 2.441 . S
U886 O905 2.420 . S
U886 O906 2.455 . S
U886 O907 2.449 . S
O887 U886 2.454 . S
O887 C889 1.353 . S
O888 U886 2.458 . S
O888 C889 1.286 . S
C889 U886 2.984 . S
C889 O887 1.353 . S
C889 O888 1.286 . S
C889 C891 1.363 . S
C890 C880 1.465 . S
C890 U886 2.847 . S
C890 O904 1.249 . S
C890 O905 1.202 . S
C891 C889 1.363 . S
C891 C893 1.408 . S
C891 C896 1.342 . S
C892 C893 1.310 . S
C892 C895 1.461 . S
C892 H912 0.932 . S
C893 C891 1.408 . S
C893 C892 1.310 . S
C893 H913 0.930 . S
C894 C895 1.474 . S
C894 C896 1.285 . S
C894 H914 0.929 . S
C895 C892 1.461 . S
C895 C894 1.474 . S
C896 C891 1.342 . S
C896 C894 1.285 . S
C896 H915 0.930 . S
C897 C900 1.424 . S
C897 C902 1.245 . S
C897 C903 1.428 . S
C898 C901 1.260 . S
C898 C902 1.477 . S
C898 H916 0.932 . S
C899 C900 1.384 . S
C899 C901 1.479 . S
C899 H917 0.929 . S
C900 C897 1.424 . S
C900 C899 1.384 . S
C900 H918 0.928 . S
C901 C898 1.260 . S
C901 C899 1.479 . S
C902 C897 1.245 . S
C902 C898 1.477 . S
C902 H919 0.932 . S
C903 U886 2.882 . S
C903 C897 1.428 . S
C903 O906 1.301 . S
C903 O907 1.282 . S
O904 U886 2.441 . S
O904 C890 1.249 . S
O905 U886 2.420 . S
O905 C890 1.202 . S
O906 U886 2.455 . S
O906 C903 1.301 . S
O907 U886 2.449 . S
O907 C903 1.282 . S
H908 C881 0.931 . S
H909 C883 0.929 . S
H910 C884 0.930 . S
H911 C885 0.931 . S
H912 C892 0.932 . S
H913 C893 0.930 . S
H914 C894 0.929 . S
H915 C896 0.930 . S
H916 C898 0.932 . S
H917 C899 0.929 . S
H918 C900 0.928 . S
H919 C902 0.932 . S
C920 C921 1.264 . S
C920 C925 1.479 . S
C920 C930 1.465 . S
C921 C920 1.264 . S
C921 C923 1.339 . S
C921 H948 0.931 . S
C922 C923 1.395 . S
C922 C924 1.320 . S
C923 C921 1.339 . S
C923 C922 1.395 . S
C923 H949 0.929 . S
C924 C922 1.320 . S
C924 C925 1.405 . S
C924 H950 0.930 . S
C925 C920 1.479 . S
C925 C924 1.405 . S
C925 H951 0.931 . S
U926 O927 2.454 . S
U926 O928 2.458 . S
U926 C929 2.984 . S
U926 C930 2.847 . S
U926 C943 2.882 . S
U926 O944 2.441 . S
U926 O945 2.420 . S
U926 O946 2.455 . S
U926 O947 2.449 . S
O927 U926 2.454 . S
O927 C929 1.353 . S
O928 U926 2.458 . S
O928 C929 1.286 . S
C929 U926 2.984 . S
C929 O927 1.353 . S
C929 O928 1.286 . S
C929 C931 1.363 . S
C930 C920 1.465 . S
C930 U926 2.847 . S
C930 O944 1.249 . S
C930 O945 1.202 . S
C931 C929 1.363 . S
C931 C933 1.408 . S
C931 C936 1.342 . S
C932 C933 1.310 . S
C932 C935 1.461 . S
C932 H952 0.932 . S
C933 C931 1.408 . S
C933 C932 1.310 . S
C933 H953 0.930 . S
C934 C935 1.474 . S
C934 C936 1.285 . S
C934 H954 0.929 . S
C935 C932 1.461 . S
C935 C934 1.474 . S
C936 C931 1.342 . S
C936 C934 1.285 . S
C936 H955 0.930 . S
C937 C940 1.424 . S
C937 C942 1.245 . S
C937 C943 1.428 . S
C938 C941 1.260 . S
C938 C942 1.477 . S
C938 H956 0.932 . S
C939 C940 1.384 . S
C939 C941 1.479 . S
C939 H957 0.929 . S
C940 C937 1.424 . S
C940 C939 1.384 . S
C940 H958 0.928 . S
C941 C938 1.260 . S
C941 C939 1.479 . S
C942 C937 1.245 . S
C942 C938 1.477 . S
C942 H959 0.932 . S
C943 U926 2.882 . S
C943 C937 1.428 . S
C943 O946 1.301 . S
C943 O947 1.282 . S
O944 U926 2.441 . S
O944 C930 1.249 . S
O945 U926 2.420 . S
O945 C930 1.202 . S
O946 U926 2.455 . S
O946 C943 1.301 . S
O947 U926 2.449 . S
O947 C943 1.282 . S
H948 C921 0.931 . S
H949 C923 0.929 . S
H950 C924 0.930 . S
H951 C925 0.931 . S
H952 C932 0.932 . S
H953 C933 0.930 . S
H954 C934 0.929 . S
H955 C936 0.930 . S
H956 C938 0.932 . S
H957 C939 0.929 . S
H958 C940 0.928 . S
H959 C942 0.932 . S
C960 C961 1.264 . S
C960 C965 1.479 . S
C960 C970 1.465 . S
C961 C960 1.264 . S
C961 C963 1.339 . S
C961 H988 0.931 . S
C962 C963 1.395 . S
C962 C964 1.320 . S
C963 C961 1.339 . S
C963 C962 1.395 . S
C963 H989 0.929 . S
C964 C962 1.320 . S
C964 C965 1.405 . S
C964 H990 0.930 . S
C965 C960 1.479 . S
C965 C964 1.405 . S
C965 H991 0.931 . S
U966 O967 2.454 . S
U966 O968 2.458 . S
U966 C969 2.984 . S
U966 C970 2.847 . S
U966 C983 2.882 . S
U966 O984 2.441 . S
U966 O985 2.420 . S
U966 O986 2.455 . S
U966 O987 2.449 . S
O967 U966 2.454 . S
O967 C969 1.353 . S
O968 U966 2.458 . S
O968 C969 1.286 . S
C969 U966 2.984 . S
C969 O967 1.353 . S
C969 O968 1.286 . S
C969 C971 1.363 . S
C970 C960 1.465 . S
C970 U966 2.847 . S
C970 O984 1.249 . S
C970 O985 1.202 . S
C971 C969 1.363 . S
C971 C973 1.408 . S
C971 C976 1.342 . S
C972 C973 1.310 . S
C972 C975 1.461 . S
C972 H992 0.932 . S
C973 C971 1.408 . S
C973 C972 1.310 . S
C973 H993 0.930 . S
C974 C975 1.474 . S
C974 C976 1.285 . S
C974 H994 0.929 . S
C975 C972 1.461 . S
C975 C974 1.474 . S
C976 C971 1.342 . S
C976 C974 1.285 . S
C976 H995 0.930 . S
C977 C980 1.424 . S
C977 C982 1.245 . S
C977 C983 1.428 . S
C978 C981 1.260 . S
C978 C982 1.477 . S
C978 H996 0.932 . S
C979 C980 1.384 . S
C979 C981 1.479 . S
C979 H997 0.929 . S
C980 C977 1.424 . S
C980 C979 1.384 . S
C980 H998 0.928 . S
C981 C978 1.260 . S
C981 C979 1.479 . S
C982 C977 1.245 . S
C982 C978 1.477 . S
C982 H999 0.932 . S
C983 U966 2.882 . S
C983 C977 1.428 . S
C983 O986 1.301 . S
C983 O987 1.282 . S
O984 U966 2.441 . S
O984 C970 1.249 . S
O985 U966 2.420 . S
O985 C970 1.202 . S
O986 U966 2.455 . S
O986 C983 1.301 . S
O987 U966 2.449 . S
O987 C983 1.282 . S
H988 C961 0.931 . S
H989 C963 0.929 . S
H990 C964 0.930 . S
H991 C965 0.931 . S
H992 C972 0.932 . S
H993 C973 0.930 . S
H994 C974 0.929 . S
H995 C976 0.930 . S
H996 C978 0.932 . S
H997 C979 0.929 . S
H998 C980 0.928 . S
H999 C982 0.932 . S
C1000 C1001 1.264 . S
C1000 C1005 1.479 . S
C1000 C1010 1.465 . S
C1001 C1000 1.264 . S
C1001 C1003 1.339 . S
C1001 H1028 0.931 . S
C1002 C1003 1.395 . S
C1002 C1004 1.320 . S
C1003 C1001 1.339 . S
C1003 C1002 1.395 . S
C1003 H1029 0.929 . S
C1004 C1002 1.320 . S
C1004 C1005 1.405 . S
C1004 H1030 0.930 . S
C1005 C1000 1.479 . S
C1005 C1004 1.405 . S
C1005 H1031 0.931 . S
U1006 O1007 2.454 . S
U1006 O1008 2.458 . S
U1006 C1009 2.984 . S
U1006 C1010 2.847 . S
U1006 C1023 2.882 . S
U1006 O1024 2.441 . S
U1006 O1025 2.420 . S
U1006 O1026 2.455 . S
U1006 O1027 2.449 . S
O1007 U1006 2.454 . S
O1007 C1009 1.353 . S
O1008 U1006 2.458 . S
O1008 C1009 1.286 . S
C1009 U1006 2.984 . S
C1009 O1007 1.353 . S
C1009 O1008 1.286 . S
C1009 C1011 1.363 . S
C1010 C1000 1.465 . S
C1010 U1006 2.847 . S
C1010 O1024 1.249 . S
C1010 O1025 1.202 . S
C1011 C1009 1.363 . S
C1011 C1013 1.408 . S
C1011 C1016 1.342 . S
C1012 C1013 1.310 . S
C1012 C1015 1.461 . S
C1012 H1032 0.932 . S
C1013 C1011 1.408 . S
C1013 C1012 1.310 . S
C1013 H1033 0.930 . S
C1014 C1015 1.474 . S
C1014 C1016 1.285 . S
C1014 H1034 0.929 . S
C1015 C1012 1.461 . S
C1015 C1014 1.474 . S
C1016 C1011 1.342 . S
C1016 C1014 1.285 . S
C1016 H1035 0.930 . S
C1017 C1020 1.424 . S
C1017 C1022 1.245 . S
C1017 C1023 1.428 . S
C1018 C1021 1.260 . S
C1018 C1022 1.477 . S
C1018 H1036 0.932 . S
C1019 C1020 1.384 . S
C1019 C1021 1.479 . S
C1019 H1037 0.929 . S
C1020 C1017 1.424 . S
C1020 C1019 1.384 . S
C1020 H1038 0.928 . S
C1021 C1018 1.260 . S
C1021 C1019 1.479 . S
C1022 C1017 1.245 . S
C1022 C1018 1.477 . S
C1022 H1039 0.932 . S
C1023 U1006 2.882 . S
C1023 C1017 1.428 . S
C1023 O1026 1.301 . S
C1023 O1027 1.282 . S
O1024 U1006 2.441 . S
O1024 C1010 1.249 . S
O1025 U1006 2.420 . S
O1025 C1010 1.202 . S
O1026 U1006 2.455 . S
O1026 C1023 1.301 . S
O1027 U1006 2.449 . S
O1027 C1023 1.282 . S
H1028 C1001 0.931 . S
H1029 C1003 0.929 . S
H1030 C1004 0.930 . S
H1031 C1005 0.931 . S
H1032 C1012 0.932 . S
H1033 C1013 0.930 . S
H1034 C1014 0.929 . S
H1035 C1016 0.930 . S
H1036 C1018 0.932 . S
H1037 C1019 0.929 . S
H1038 C1020 0.928 . S
H1039 C1022 0.932 . S
C1040 C1041 1.264 . S
C1040 C1045 1.479 . S
C1040 C1050 1.465 . S
C1041 C1040 1.264 . S
C1041 C1043 1.339 . S
C1041 H1068 0.931 . S
C1042 C1043 1.395 . S
C1042 C1044 1.320 . S
C1043 C1041 1.339 . S
C1043 C1042 1.395 . S
C1043 H1069 0.929 . S
C1044 C1042 1.320 . S
C1044 C1045 1.405 . S
C1044 H1070 0.930 . S
C1045 C1040 1.479 . S
C1045 C1044 1.405 . S
C1045 H1071 0.931 . S
U1046 O1047 2.454 . S
U1046 O1048 2.458 . S
U1046 C1049 2.984 . S
U1046 C1050 2.847 . S
U1046 C1063 2.882 . S
U1046 O1064 2.441 . S
U1046 O1065 2.420 . S
U1046 O1066 2.455 . S
U1046 O1067 2.449 . S
O1047 U1046 2.454 . S
O1047 C1049 1.353 . S
O1048 U1046 2.458 . S
O1048 C1049 1.286 . S
C1049 U1046 2.984 . S
C1049 O1047 1.353 . S
C1049 O1048 1.286 . S
C1049 C1051 1.363 . S
C1050 C1040 1.465 . S
C1050 U1046 2.847 . S
C1050 O1064 1.249 . S
C1050 O1065 1.202 . S
C1051 C1049 1.363 . S
C1051 C1053 1.408 . S
C1051 C1056 1.342 . S
C1052 C1053 1.310 . S
C1052 C1055 1.461 . S
C1052 H1072 0.932 . S
C1053 C1051 1.408 . S
C1053 C1052 1.310 . S
C1053 H1073 0.930 . S
C1054 C1055 1.474 . S
C1054 C1056 1.285 . S
C1054 H1074 0.929 . S
C1055 C1052 1.461 . S
C1055 C1054 1.474 . S
C1056 C1051 1.342 . S
C1056 C1054 1.285 . S
C1056 H1075 0.930 . S
C1057 C1060 1.424 . S
C1057 C1062 1.245 . S
C1057 C1063 1.428 . S
C1058 C1061 1.260 . S
C1058 C1062 1.477 . S
C1058 H1076 0.932 . S
C1059 C1060 1.384 . S
C1059 C1061 1.479 . S
C1059 H1077 0.929 . S
C1060 C1057 1.424 . S
C1060 C1059 1.384 . S
C1060 H1078 0.928 . S
C1061 C1058 1.260 . S
C1061 C1059 1.479 . S
C1062 C1057 1.245 . S
C1062 C1058 1.477 . S
C1062 H1079 0.932 . S
C1063 U1046 2.882 . S
C1063 C1057 1.428 . S
C1063 O1066 1.301 . S
C1063 O1067 1.282 . S
O1064 U1046 2.441 . S
O1064 C1050 1.249 . S
O1065 U1046 2.420 . S
O1065 C1050 1.202 . S
O1066 U1046 2.455 . S
O1066 C1063 1.301 . S
O1067 U1046 2.449 . S
O1067 C1063 1.282 . S
H1068 C1041 0.931 . S
H1069 C1043 0.929 . S
H1070 C1044 0.930 . S
H1071 C1045 0.931 . S
H1072 C1052 0.932 . S
H1073 C1053 0.930 . S
H1074 C1054 0.929 . S
H1075 C1056 0.930 . S
H1076 C1058 0.932 . S
H1077 C1059 0.929 . S
H1078 C1060 0.928 . S
H1079 C1062 0.932 . S
C1080 C1081 1.264 . S
C1080 C1085 1.479 . S
C1080 C1090 1.465 . S
C1081 C1080 1.264 . S
C1081 C1083 1.339 . S
C1081 H1108 0.931 . S
C1082 C1083 1.395 . S
C1082 C1084 1.320 . S
C1083 C1081 1.339 . S
C1083 C1082 1.395 . S
C1083 H1109 0.929 . S
C1084 C1082 1.320 . S
C1084 C1085 1.405 . S
C1084 H1110 0.930 . S
C1085 C1080 1.479 . S
C1085 C1084 1.405 . S
C1085 H1111 0.931 . S
U1086 O1087 2.454 . S
U1086 O1088 2.458 . S
U1086 C1089 2.984 . S
U1086 C1090 2.847 . S
U1086 C1103 2.882 . S
U1086 O1104 2.441 . S
U1086 O1105 2.420 . S
U1086 O1106 2.455 . S
U1086 O1107 2.449 . S
O1087 U1086 2.454 . S
O1087 C1089 1.353 . S
O1088 U1086 2.458 . S
O1088 C1089 1.286 . S
C1089 U1086 2.984 . S
C1089 O1087 1.353 . S
C1089 O1088 1.286 . S
C1089 C1091 1.363 . S
C1090 C1080 1.465 . S
C1090 U1086 2.847 . S
C1090 O1104 1.249 . S
C1090 O1105 1.202 . S
C1091 C1089 1.363 . S
C1091 C1093 1.408 . S
C1091 C1096 1.342 . S
C1092 C1093 1.310 . S
C1092 C1095 1.461 . S
C1092 H1112 0.932 . S
C1093 C1091 1.408 . S
C1093 C1092 1.310 . S
C1093 H1113 0.930 . S
C1094 C1095 1.474 . S
C1094 C1096 1.285 . S
C1094 H1114 0.929 . S
C1095 C1092 1.461 . S
C1095 C1094 1.474 . S
C1096 C1091 1.342 . S
C1096 C1094 1.285 . S
C1096 H1115 0.930 . S
C1097 C1100 1.424 . S
C1097 C1102 1.245 . S
C1097 C1103 1.428 . S
C1098 C1101 1.260 . S
C1098 C1102 1.477 . S
C1098 H1116 0.932 . S
C1099 C1100 1.384 . S
C1099 C1101 1.479 . S
C1099 H1117 0.929 . S
C1100 C1097 1.424 . S
C1100 C1099 1.384 . S
C1100 H1118 0.928 . S
C1101 C1098 1.260 . S
C1101 C1099 1.479 . S
C1102 C1097 1.245 . S
C1102 C1098 1.477 . S
C1102 H1119 0.932 . S
C1103 U1086 2.882 . S
C1103 C1097 1.428 . S
C1103 O1106 1.301 . S
C1103 O1107 1.282 . S
O1104 U1086 2.441 . S
O1104 C1090 1.249 . S
O1105 U1086 2.420 . S
O1105 C1090 1.202 . S
O1106 U1086 2.455 . S
O1106 C1103 1.301 . S
O1107 U1086 2.449 . S
O1107 C1103 1.282 . S
H1108 C1081 0.931 . S
H1109 C1083 0.929 . S
H1110 C1084 0.930 . S
H1111 C1085 0.931 . S
H1112 C1092 0.932 . S
H1113 C1093 0.930 . S
H1114 C1094 0.929 . S
H1115 C1096 0.930 . S
H1116 C1098 0.932 . S
H1117 C1099 0.929 . S
H1118 C1100 0.928 . S
H1119 C1102 0.932 . S
C1120 C1121 1.264 . S
C1120 C1125 1.479 . S
C1120 C1130 1.465 . S
C1121 C1120 1.264 . S
C1121 C1123 1.339 . S
C1121 H1148 0.931 . S
C1122 C1123 1.395 . S
C1122 C1124 1.320 . S
C1123 C1121 1.339 . S
C1123 C1122 1.395 . S
C1123 H1149 0.929 . S
C1124 C1122 1.320 . S
C1124 C1125 1.405 . S
C1124 H1150 0.930 . S
C1125 C1120 1.479 . S
C1125 C1124 1.405 . S
C1125 H1151 0.931 . S
U1126 O1127 2.454 . S
U1126 O1128 2.458 . S
U1126 C1129 2.984 . S
U1126 C1130 2.847 . S
U1126 C1143 2.882 . S
U1126 O1144 2.441 . S
U1126 O1145 2.420 . S
U1126 O1146 2.455 . S
U1126 O1147 2.449 . S
O1127 U1126 2.454 . S
O1127 C1129 1.353 . S
O1128 U1126 2.458 . S
O1128 C1129 1.286 . S
C1129 U1126 2.984 . S
C1129 O1127 1.353 . S
C1129 O1128 1.286 . S
C1129 C1131 1.363 . S
C1130 C1120 1.465 . S
C1130 U1126 2.847 . S
C1130 O1144 1.249 . S
C1130 O1145 1.202 . S
C1131 C1129 1.363 . S
C1131 C1133 1.408 . S
C1131 C1136 1.342 . S
C1132 C1133 1.310 . S
C1132 C1135 1.461 . S
C1132 H1152 0.932 . S
C1133 C1131 1.408 . S
C1133 C1132 1.310 . S
C1133 H1153 0.930 . S
C1134 C1135 1.474 . S
C1134 C1136 1.285 . S
C1134 H1154 0.929 . S
C1135 C1132 1.461 . S
C1135 C1134 1.474 . S
C1136 C1131 1.342 . S
C1136 C1134 1.285 . S
C1136 H1155 0.930 . S
C1137 C1140 1.424 . S
C1137 C1142 1.245 . S
C1137 C1143 1.428 . S
C1138 C1141 1.260 . S
C1138 C1142 1.477 . S
C1138 H1156 0.932 . S
C1139 C1140 1.384 . S
C1139 C1141 1.479 . S
C1139 H1157 0.929 . S
C1140 C1137 1.424 . S
C1140 C1139 1.384 . S
C1140 H1158 0.928 . S
C1141 C1138 1.260 . S
C1141 C1139 1.479 . S
C1142 C1137 1.245 . S
C1142 C1138 1.477 . S
C1142 H1159 0.932 . S
C1143 U1126 2.882 . S
C1143 C1137 1.428 . S
C1143 O1146 1.301 . S
C1143 O1147 1.282 . S
O1144 U1126 2.441 . S
O1144 C1130 1.249 . S
O1145 U1126 2.420 . S
O1145 C1130 1.202 . S
O1146 U1126 2.455 . S
O1146 C1143 1.301 . S
O1147 U1126 2.449 . S
O1147 C1143 1.282 . S
H1148 C1121 0.931 . S
H1149 C1123 0.929 . S
H1150 C1124 0.930 . S
H1151 C1125 0.931 . S
H1152 C1132 0.932 . S
H1153 C1133 0.930 . S
H1154 C1134 0.929 . S
H1155 C1136 0.930 . S
H1156 C1138 0.932 . S
H1157 C1139 0.929 . S
H1158 C1140 0.928 . S
H1159 C1142 0.932 . S
C1160 C1161 1.264 . S
C1160 C1165 1.479 . S
C1160 C1170 1.465 . S
C1161 C1160 1.264 . S
C1161 C1163 1.339 . S
C1161 H1188 0.931 . S
C1162 C1163 1.395 . S
C1162 C1164 1.320 . S
C1163 C1161 1.339 . S
C1163 C1162 1.395 . S
C1163 H1189 0.929 . S
C1164 C1162 1.320 . S
C1164 C1165 1.405 . S
C1164 H1190 0.930 . S
C1165 C1160 1.479 . S
C1165 C1164 1.405 . S
C1165 H1191 0.931 . S
U1166 O1167 2.454 . S
U1166 O1168 2.458 . S
U1166 C1169 2.984 . S
U1166 C1170 2.847 . S
U1166 C1183 2.882 . S
U1166 O1184 2.441 . S
U1166 O1185 2.420 . S
U1166 O1186 2.455 . S
U1166 O1187 2.449 . S
O1167 U1166 2.454 . S
O1167 C1169 1.353 . S
O1168 U1166 2.458 . S
O1168 C1169 1.286 . S
C1169 U1166 2.984 . S
C1169 O1167 1.353 . S
C1169 O1168 1.286 . S
C1169 C1171 1.363 . S
C1170 C1160 1.465 . S
C1170 U1166 2.847 . S
C1170 O1184 1.249 . S
C1170 O1185 1.202 . S
C1171 C1169 1.363 . S
C1171 C1173 1.408 . S
C1171 C1176 1.342 . S
C1172 C1173 1.310 . S
C1172 C1175 1.461 . S
C1172 H1192 0.932 . S
C1173 C1171 1.408 . S
C1173 C1172 1.310 . S
C1173 H1193 0.930 . S
C1174 C1175 1.474 . S
C1174 C1176 1.285 . S
C1174 H1194 0.929 . S
C1175 C1172 1.461 . S
C1175 C1174 1.474 . S
C1176 C1171 1.342 . S
C1176 C1174 1.285 . S
C1176 H1195 0.930 . S
C1177 C1180 1.424 . S
C1177 C1182 1.245 . S
C1177 C1183 1.428 . S
C1178 C1181 1.260 . S
C1178 C1182 1.477 . S
C1178 H1196 0.932 . S
C1179 C1180 1.384 . S
C1179 C1181 1.479 . S
C1179 H1197 0.929 . S
C1180 C1177 1.424 . S
C1180 C1179 1.384 . S
C1180 H1198 0.928 . S
C1181 C1178 1.260 . S
C1181 C1179 1.479 . S
C1182 C1177 1.245 . S
C1182 C1178 1.477 . S
C1182 H1199 0.932 . S
C1183 U1166 2.882 . S
C1183 C1177 1.428 . S
C1183 O1186 1.301 . S
C1183 O1187 1.282 . S
O1184 U1166 2.441 . S
O1184 C1170 1.249 . S
O1185 U1166 2.420 . S
O1185 C1170 1.202 . S
O1186 U1166 2.455 . S
O1186 C1183 1.301 . S
O1187 U1166 2.449 . S
O1187 C1183 1.282 . S
H1188 C1161 0.931 . S
H1189 C1163 0.929 . S
H1190 C1164 0.930 . S
H1191 C1165 0.931 . S
H1192 C1172 0.932 . S
H1193 C1173 0.930 . S
H1194 C1174 0.929 . S
H1195 C1176 0.930 . S
H1196 C1178 0.932 . S
H1197 C1179 0.929 . S
H1198 C1180 0.928 . S
H1199 C1182 0.932 . S
C1200 C1201 1.264 . S
C1200 C1205 1.479 . S
C1200 C1210 1.465 . S
C1201 C1200 1.264 . S
C1201 C1203 1.339 . S
C1201 H1228 0.931 . S
C1202 C1203 1.395 . S
C1202 C1204 1.320 . S
C1203 C1201 1.339 . S
C1203 C1202 1.395 . S
C1203 H1229 0.929 . S
C1204 C1202 1.320 . S
C1204 C1205 1.405 . S
C1204 H1230 0.930 . S
C1205 C1200 1.479 . S
C1205 C1204 1.405 . S
C1205 H1231 0.931 . S
U1206 O1207 2.454 . S
U1206 O1208 2.458 . S
U1206 C1209 2.984 . S
U1206 C1210 2.847 . S
U1206 C1223 2.882 . S
U1206 O1224 2.441 . S
U1206 O1225 2.420 . S
U1206 O1226 2.455 . S
U1206 O1227 2.449 . S
O1207 U1206 2.454 . S
O1207 C1209 1.353 . S
O1208 U1206 2.458 . S
O1208 C1209 1.286 . S
C1209 U1206 2.984 . S
C1209 O1207 1.353 . S
C1209 O1208 1.286 . S
C1209 C1211 1.363 . S
C1210 C1200 1.465 . S
C1210 U1206 2.847 . S
C1210 O1224 1.249 . S
C1210 O1225 1.202 . S
C1211 C1209 1.363 . S
C1211 C1213 1.408 . S
C1211 C1216 1.342 . S
C1212 C1213 1.310 . S
C1212 C1215 1.461 . S
C1212 H1232 0.932 . S
C1213 C1211 1.408 . S
C1213 C1212 1.310 . S
C1213 H1233 0.930 . S
C1214 C1215 1.474 . S
C1214 C1216 1.285 . S
C1214 H1234 0.929 . S
C1215 C1212 1.461 . S
C1215 C1214 1.474 . S
C1216 C1211 1.342 . S
C1216 C1214 1.285 . S
C1216 H1235 0.930 . S
C1217 C1220 1.424 . S
C1217 C1222 1.245 . S
C1217 C1223 1.428 . S
C1218 C1221 1.260 . S
C1218 C1222 1.477 . S
C1218 H1236 0.932 . S
C1219 C1220 1.384 . S
C1219 C1221 1.479 . S
C1219 H1237 0.929 . S
C1220 C1217 1.424 . S
C1220 C1219 1.384 . S
C1220 H1238 0.928 . S
C1221 C1218 1.260 . S
C1221 C1219 1.479 . S
C1222 C1217 1.245 . S
C1222 C1218 1.477 . S
C1222 H1239 0.932 . S
C1223 U1206 2.882 . S
C1223 C1217 1.428 . S
C1223 O1226 1.301 . S
C1223 O1227 1.282 . S
O1224 U1206 2.441 . S
O1224 C1210 1.249 . S
O1225 U1206 2.420 . S
O1225 C1210 1.202 . S
O1226 U1206 2.455 . S
O1226 C1223 1.301 . S
O1227 U1206 2.449 . S
O1227 C1223 1.282 . S
H1228 C1201 0.931 . S
H1229 C1203 0.929 . S
H1230 C1204 0.930 . S
H1231 C1205 0.931 . S
H1232 C1212 0.932 . S
H1233 C1213 0.930 . S
H1234 C1214 0.929 . S
H1235 C1216 0.930 . S
H1236 C1218 0.932 . S
H1237 C1219 0.929 . S
H1238 C1220 0.928 . S
H1239 C1222 0.932 . S
C1240 C1241 1.264 . S
C1240 C1245 1.479 . S
C1240 C1250 1.465 . S
C1241 C1240 1.264 . S
C1241 C1243 1.339 . S
C1241 H1268 0.931 . S
C1242 C1243 1.395 . S
C1242 C1244 1.320 . S
C1243 C1241 1.339 . S
C1243 C1242 1.395 . S
C1243 H1269 0.929 . S
C1244 C1242 1.320 . S
C1244 C1245 1.405 . S
C1244 H1270 0.930 . S
C1245 C1240 1.479 . S
C1245 C1244 1.405 . S
C1245 H1271 0.931 . S
U1246 O1247 2.454 . S
U1246 O1248 2.458 . S
U1246 C1249 2.984 . S
U1246 C1250 2.847 . S
U1246 C1263 2.882 . S
U1246 O1264 2.441 . S
U1246 O1265 2.420 . S
U1246 O1266 2.455 . S
U1246 O1267 2.449 . S
O1247 U1246 2.454 . S
O1247 C1249 1.353 . S
O1248 U1246 2.458 . S
O1248 C1249 1.286 . S
C1249 U1246 2.984 . S
C1249 O1247 1.353 . S
C1249 O1248 1.286 . S
C1249 C1251 1.363 . S
C1250 C1240 1.465 . S
C1250 U1246 2.847 . S
C1250 O1264 1.249 . S
C1250 O1265 1.202 . S
C1251 C1249 1.363 . S
C1251 C1253 1.408 . S
C1251 C1256 1.342 . S
C1252 C1253 1.310 . S
C1252 C1255 1.461 . S
C1252 H1272 0.932 . S
C1253 C1251 1.408 . S
C1253 C1252 1.310 . S
C1253 H1273 0.930 . S
C1254 C1255 1.474 . S
C1254 C1256 1.285 . S
C1254 H1274 0.929 . S
C1255 C1252 1.461 . S
C1255 C1254 1.474 . S
C1256 C1251 1.342 . S
C1256 C1254 1.285 . S
C1256 H1275 0.930 . S
C1257 C1260 1.424 . S
C1257 C1262 1.245 . S
C1257 C1263 1.428 . S
C1258 C1261 1.260 . S
C1258 C1262 1.477 . S
C1258 H1276 0.932 . S
C1259 C1260 1.384 . S
C1259 C1261 1.479 . S
C1259 H1277 0.929 . S
C1260 C1257 1.424 . S
C1260 C1259 1.384 . S
C1260 H1278 0.928 . S
C1261 C1258 1.260 . S
C1261 C1259 1.479 . S
C1262 C1257 1.245 . S
C1262 C1258 1.477 . S
C1262 H1279 0.932 . S
C1263 U1246 2.882 . S
C1263 C1257 1.428 . S
C1263 O1266 1.301 . S
C1263 O1267 1.282 . S
O1264 U1246 2.441 . S
O1264 C1250 1.249 . S
O1265 U1246 2.420 . S
O1265 C1250 1.202 . S
O1266 U1246 2.455 . S
O1266 C1263 1.301 . S
O1267 U1246 2.449 . S
O1267 C1263 1.282 . S
H1268 C1241 0.931 . S
H1269 C1243 0.929 . S
H1270 C1244 0.930 . S
H1271 C1245 0.931 . S
H1272 C1252 0.932 . S
H1273 C1253 0.930 . S
H1274 C1254 0.929 . S
H1275 C1256 0.930 . S
H1276 C1258 0.932 . S
H1277 C1259 0.929 . S
H1278 C1260 0.928 . S
H1279 C1262 0.932 . S
Cu1280 N1281 1.999 . S
Cu1280 O1286 1.974 1_554 S
Cu1280 N1291 1.985 . S
Cu1280 O1300 1.959 . S
N1281 Cu1280 1.999 . S
N1281 C1283 1.263 1_554 S
N1281 C1285 1.389 . S
N1282 C1283 1.358 . S
N1282 C1284 1.400 . S
C1283 N1281 1.263 1_556 S
C1283 N1282 1.358 . S
C1283 H1289 0.930 . S
C1284 N1282 1.400 . S
C1284 C1285 1.351 1_556 S
C1284 H1301 0.930 . S
C1285 N1281 1.389 . S
C1285 C1284 1.351 1_554 S
C1285 H1290 0.930 . S
O1286 Cu1280 1.974 1_556 S
O1286 C1296 1.282 . S
C1287 O1288 1.261 . S
C1287 O1300 1.251 . S
O1288 C1287 1.261 . S
H1289 C1283 0.930 . S
H1290 C1285 0.930 . S
N1291 Cu1280 1.985 . S
N1291 C1293 1.335 . S
N1291 C1294 1.390 . S
N1292 C1293 1.345 . S
N1292 C1295 1.336 . S
C1293 N1291 1.335 . S
C1293 N1292 1.345 . S
C1293 H1298 0.930 . S
C1294 N1291 1.390 . S
C1294 C1295 1.346 . S
C1294 H1299 0.930 . S
C1295 N1292 1.336 . S
C1295 C1294 1.346 . S
C1295 H1302 0.929 . S
C1296 O1286 1.282 . S
C1296 O1297 1.216 . S
O1297 C1296 1.216 . S
H1298 C1293 0.930 . S
H1299 C1294 0.930 . S
O1300 Cu1280 1.959 . S
O1300 C1287 1.251 . S
H1301 C1284 0.930 . S
H1302 C1295 0.929 . S
Cu1303 N1304 1.999 . S
Cu1303 O1309 1.974 . S
Cu1303 N1314 1.985 1_554 S
Cu1303 O1323 1.959 1_554 S
N1304 Cu1303 1.999 . S
N1304 C1306 1.263 . S
N1304 C1308 1.389 . S
N1305 C1306 1.358 . S
N1305 C1307 1.400 . S
C1306 N1304 1.263 . S
C1306 N1305 1.358 . S
C1306 H1312 0.930 . S
C1307 N1305 1.400 . S
C1307 C1308 1.351 . S
C1307 H1324 0.930 . S
C1308 N1304 1.389 . S
C1308 C1307 1.351 . S
C1308 H1313 0.930 . S
O1309 Cu1303 1.974 . S
O1309 C1319 1.282 . S
C1310 O1311 1.261 . S
C1310 O1323 1.251 . S
O1311 C1310 1.261 . S
H1312 C1306 0.930 . S
H1313 C1308 0.930 . S
N1314 Cu1303 1.985 1_556 S
N1314 C1316 1.335 . S
N1314 C1317 1.388 1_556 S
N1315 C1316 1.345 . S
N1315 C1318 1.336 . S
C1316 N1314 1.335 . S
C1316 N1315 1.345 . S
C1316 H1321 0.930 . S
C1317 N1314 1.388 1_554 S
C1317 C1318 1.338 1_554 S
C1317 H1322 0.939 . S
C1318 N1315 1.336 . S
C1318 C1317 1.338 1_556 S
C1318 H1325 0.929 . S
C1319 O1309 1.282 . S
C1319 O1320 1.216 . S
O1320 C1319 1.216 . S
H1321 C1316 0.930 . S
H1322 C1317 0.939 . S
O1323 Cu1303 1.959 1_556 S
O1323 C1310 1.251 . S
H1324 C1307 0.930 . S
H1325 C1318 0.929 . S
Cu1326 N1327 1.999 1_554 S
Cu1326 O1332 1.974 1_554 S
Cu1326 N1337 1.985 . S
Cu1326 O1346 1.959 . S
N1327 Cu1326 1.999 1_556 S
N1327 C1329 1.263 . S
N1327 C1331 1.389 . S
N1328 C1329 1.358 . S
N1328 C1330 1.400 . S
C1329 N1327 1.263 . S
C1329 N1328 1.358 . S
C1329 H1335 0.930 . S
C1330 N1328 1.400 . S
C1330 C1331 1.351 . S
C1330 H1347 0.930 . S
C1331 N1327 1.389 . S
C1331 C1330 1.351 . S
C1331 H1336 0.970 . S
O1332 Cu1326 1.974 1_556 S
O1332 C1342 1.282 . S
C1333 O1334 1.261 . S
C1333 O1346 1.251 . S
O1334 C1333 1.261 . S
H1335 C1329 0.930 . S
H1336 C1331 0.970 . S
N1337 Cu1326 1.985 . S
N1337 C1339 1.335 . S
N1337 C1340 1.390 . S
N1338 C1339 1.345 . S
N1338 C1341 1.336 . S
C1339 N1337 1.335 . S
C1339 N1338 1.345 . S
C1339 H1344 0.930 . S
C1340 N1337 1.390 . S
C1340 C1341 1.346 . S
C1340 H1345 0.951 . S
C1341 N1338 1.336 . S
C1341 C1340 1.346 . S
C1341 H1348 0.929 . S
C1342 O1332 1.282 . S
C1342 O1343 1.216 . S
O1343 C1342 1.216 . S
H1344 C1339 0.930 . S
H1345 C1340 0.951 . S
O1346 Cu1326 1.959 . S
O1346 C1333 1.251 . S
H1347 C1330 0.930 . S
H1348 C1341 0.929 . S
Cu1349 N1350 1.999 . S
Cu1349 O1355 1.974 . S
Cu1349 N1360 1.985 1_554 S
Cu1349 O1369 1.959 1_554 S
N1350 Cu1349 1.999 . S
N1350 C1352 1.263 . S
N1350 C1354 1.389 . S
N1351 C1352 1.358 . S
N1351 C1353 1.400 . S
C1352 N1350 1.263 . S
C1352 N1351 1.358 . S
C1352 H1358 0.930 . S
C1353 N1351 1.400 . S
C1353 C1354 1.351 . S
C1353 H1370 0.930 . S
C1354 N1350 1.389 . S
C1354 C1353 1.351 . S
C1354 H1359 0.930 . S
O1355 Cu1349 1.974 . S
O1355 C1365 1.282 . S
C1356 O1357 1.261 . S
C1356 O1369 1.251 . S
O1357 C1356 1.261 . S
H1358 C1352 0.930 . S
H1359 C1354 0.930 . S
N1360 Cu1349 1.985 1_556 S
N1360 C1362 1.335 . S
N1360 C1363 1.390 . S
N1361 C1362 1.345 . S
N1361 C1364 1.336 . S
C1362 N1360 1.335 . S
C1362 N1361 1.345 . S
C1362 H1367 0.930 . S
C1363 N1360 1.390 . S
C1363 C1364 1.346 . S
C1363 H1368 0.930 1_556 S
C1364 N1361 1.336 . S
C1364 C1363 1.346 . S
C1364 H1371 0.929 . S
C1365 O1355 1.282 . S
C1365 O1366 1.216 . S
O1366 C1365 1.216 . S
H1367 C1362 0.930 . S
H1368 C1363 0.930 1_554 S
O1369 Cu1349 1.959 1_556 S
O1369 C1356 1.251 . S
H1370 C1353 0.930 . S
H1371 C1364 0.929 . S
Cu1372 N1373 1.999 . S
Cu1372 O1378 1.974 . S
Cu1372 N1383 1.985 1_455 S
Cu1372 O1392 1.959 1_455 S
N1373 Cu1372 1.999 . S
N1373 C1375 1.263 . S
N1373 C1377 1.389 . S
N1374 C1375 1.358 . S
N1374 C1376 1.400 . S
C1375 N1373 1.263 . S
C1375 N1374 1.358 . S
C1375 H1381 0.930 . S
C1376 N1374 1.400 . S
C1376 C1377 1.351 . S
C1376 H1393 0.930 . S
C1377 N1373 1.389 . S
C1377 C1376 1.351 . S
C1377 H1382 0.930 . S
O1378 Cu1372 1.974 . S
O1378 C1388 1.282 . S
C1379 O1380 1.261 . S
C1379 O1392 1.251 . S
O1380 C1379 1.261 . S
H1381 C1375 0.930 . S
H1382 C1377 0.930 . S
N1383 Cu1372 1.985 1_655 S
N1383 C1385 1.335 . S
N1383 C1386 1.390 1_655 S
N1384 C1385 1.345 . S
N1384 C1387 1.336 . S
C1385 N1383 1.335 . S
C1385 N1384 1.345 . S
C1385 H1390 0.930 . S
C1386 N1383 1.390 1_455 S
C1386 C1387 1.346 1_455 S
C1386 H1391 0.930 . S
C1387 N1384 1.336 . S
C1387 C1386 1.346 1_655 S
C1387 H1394 0.929 . S
C1388 O1378 1.282 . S
C1388 O1389 1.216 . S
O1389 C1388 1.216 . S
H1390 C1385 0.930 . S
H1391 C1386 0.930 . S
O1392 Cu1372 1.959 1_655 S
O1392 C1379 1.251 . S
H1393 C1376 0.930 . S
H1394 C1387 0.929 . S
Cu1395 N1396 1.999 . S
Cu1395 O1401 1.974 . S
Cu1395 N1406 1.985 1_545 S
Cu1395 O1415 1.959 1_545 S
N1396 Cu1395 1.999 . S
N1396 C1398 1.263 . S
N1396 C1400 1.389 . S
N1397 C1398 1.358 . S
N1397 C1399 1.400 . S
C1398 N1396 1.263 . S
C1398 N1397 1.358 . S
C1398 H1404 0.930 . S
C1399 N1397 1.400 . S
C1399 C1400 1.351 . S
C1399 H1416 0.930 . S
C1400 N1396 1.389 . S
C1400 C1399 1.351 . S
C1400 H1405 0.930 . S
O1401 Cu1395 1.974 . S
O1401 C1411 1.282 . S
C1402 O1403 1.261 . S
C1402 O1415 1.251 . S
O1403 C1402 1.261 . S
H1404 C1398 0.930 . S
H1405 C1400 0.930 . S
N1406 Cu1395 1.985 1_565 S
N1406 C1408 1.335 . S
N1406 C1409 1.390 . S
N1407 C1408 1.345 . S
N1407 C1410 1.336 . S
C1408 N1406 1.335 . S
C1408 N1407 1.345 . S
C1408 H1413 0.930 . S
C1409 N1406 1.390 . S
C1409 C1410 1.346 . S
C1409 H1414 0.930 1_565 S
C1410 N1407 1.336 . S
C1410 C1409 1.346 . S
C1410 H1417 0.929 . S
C1411 O1401 1.282 . S
C1411 O1412 1.216 . S
O1412 C1411 1.216 . S
H1413 C1408 0.930 . S
H1414 C1409 0.930 1_545 S
O1415 Cu1395 1.959 1_565 S
O1415 C1402 1.251 . S
H1416 C1399 0.930 . S
H1417 C1410 0.929 . S
Cu1418 N1419 2.004 . S
Cu1418 O1424 1.979 . S
Cu1418 N1429 1.980 1_655 S
Cu1418 O1438 1.954 1_655 S
N1419 Cu1418 2.004 . S
N1419 C1421 1.263 . S
N1419 C1423 1.389 . S
N1420 C1421 1.358 . S
N1420 C1422 1.400 . S
C1421 N1419 1.263 . S
C1421 N1420 1.358 . S
C1421 H1427 0.930 . S
C1422 N1420 1.400 . S
C1422 C1423 1.351 . S
C1422 H1439 0.930 . S
C1423 N1419 1.389 . S
C1423 C1422 1.351 . S
C1423 H1428 0.930 . S
O1424 Cu1418 1.979 . S
O1424 C1434 1.282 . S
C1425 O1426 1.261 . S
C1425 O1438 1.251 . S
O1426 C1425 1.261 . S
H1427 C1421 0.930 . S
H1428 C1423 0.930 . S
N1429 Cu1418 1.980 1_455 S
N1429 C1431 1.335 . S
N1429 C1432 1.390 . S
N1430 C1431 1.345 . S
N1430 C1433 1.336 . S
C1431 N1429 1.335 . S
C1431 N1430 1.345 . S
C1431 H1436 0.930 . S
C1432 N1429 1.390 . S
C1432 C1433 1.346 . S
C1432 H1437 0.930 . S
C1433 N1430 1.336 . S
C1433 C1432 1.346 . S
C1433 H1440 0.929 . S
C1434 O1424 1.282 . S
C1434 O1435 1.216 . S
O1435 C1434 1.216 . S
H1436 C1431 0.930 . S
H1437 C1432 0.930 . S
O1438 Cu1418 1.954 1_455 S
O1438 C1425 1.251 . S
H1439 C1422 0.930 . S
H1440 C1433 0.929 . S
Cu1441 N1442 1.993 1_565 S
Cu1441 O1447 1.965 1_565 S
Cu1441 N1452 1.991 . S
Cu1441 O1461 1.967 . S
N1442 Cu1441 1.993 1_545 S
N1442 C1444 1.263 . S
N1442 C1446 1.389 . S
N1443 C1444 1.358 . S
N1443 C1445 1.400 . S
C1444 N1442 1.263 . S
C1444 N1443 1.358 . S
C1444 H1450 0.930 . S
C1445 N1443 1.400 . S
C1445 C1446 1.351 . S
C1445 H1462 0.930 . S
C1446 N1442 1.389 . S
C1446 C1445 1.351 . S
C1446 H1451 0.930 . S
O1447 Cu1441 1.965 1_545 S
O1447 C1457 1.282 . S
C1448 O1449 1.261 . S
C1448 O1461 1.251 . S
O1449 C1448 1.261 . S
H1450 C1444 0.930 . S
H1451 C1446 0.930 . S
N1452 Cu1441 1.991 . S
N1452 C1454 1.335 . S
N1452 C1455 1.390 . S
N1453 C1454 1.345 . S
N1453 C1456 1.336 . S
C1454 N1452 1.335 . S
C1454 N1453 1.345 . S
C1454 H1459 0.930 . S
C1455 N1452 1.390 . S
C1455 C1456 1.346 . S
C1455 H1460 0.930 . S
C1456 N1453 1.336 . S
C1456 C1455 1.346 . S
C1456 H1463 0.929 . S
C1457 O1447 1.282 . S
C1457 O1458 1.216 . S
O1458 C1457 1.216 . S
H1459 C1454 0.930 . S
H1460 C1455 0.930 . S
O1461 Cu1441 1.967 . S
O1461 C1448 1.251 . S
H1462 C1445 0.930 . S
H1463 C1456 0.929 . S
Cu1464 N1465 1.999 . S
Cu1464 O1470 1.974 . S
Cu1464 N1475 1.985 1_455 S
Cu1464 O1484 1.959 1_455 S
N1465 Cu1464 1.999 . S
N1465 C1467 1.263 . S
N1465 C1469 1.389 . S
N1466 C1467 1.358 . S
N1466 C1468 1.400 . S
C1467 N1465 1.263 . S
C1467 N1466 1.358 . S
C1467 H1473 0.930 . S
C1468 N1466 1.400 . S
C1468 C1469 1.351 . S
C1468 H1485 0.930 . S
C1469 N1465 1.389 . S
C1469 C1468 1.351 . S
C1469 H1474 0.930 . S
O1470 Cu1464 1.974 . S
O1470 C1480 1.282 . S
C1471 O1472 1.261 . S
C1471 O1484 1.251 . S
O1472 C1471 1.261 . S
H1473 C1467 0.930 . S
H1474 C1469 0.930 . S
N1475 Cu1464 1.985 1_655 S
N1475 C1477 1.335 . S
N1475 C1478 1.390 1_655 S
N1476 C1477 1.345 . S
N1476 C1479 1.336 . S
C1477 N1475 1.335 . S
C1477 N1476 1.345 . S
C1477 H1482 0.930 . S
C1478 N1475 1.390 1_455 S
C1478 C1479 1.346 1_455 S
C1478 H1483 0.930 . S
C1479 N1476 1.336 . S
C1479 C1478 1.346 1_655 S
C1479 H1486 0.929 . S
C1480 O1470 1.282 . S
C1480 O1481 1.216 . S
O1481 C1480 1.216 . S
H1482 C1477 0.930 . S
H1483 C1478 0.930 . S
O1484 Cu1464 1.959 1_655 S
O1484 C1471 1.251 . S
H1485 C1468 0.930 . S
H1486 C1479 0.929 . S
Cu1487 N1488 1.999 . S
Cu1487 O1493 1.974 . S
Cu1487 N1498 1.985 1_545 S
Cu1487 O1507 1.959 1_545 S
N1488 Cu1487 1.999 . S
N1488 C1490 1.263 . S
N1488 C1492 1.389 . S
N1489 C1490 1.358 . S
N1489 C1491 1.400 . S
C1490 N1488 1.263 . S
C1490 N1489 1.358 . S
C1490 H1496 0.930 . S
C1491 N1489 1.400 . S
C1491 C1492 1.351 . S
C1491 H1508 0.930 . S
C1492 N1488 1.389 . S
C1492 C1491 1.351 . S
C1492 H1497 0.930 . S
O1493 Cu1487 1.974 . S
O1493 C1503 1.282 . S
C1494 O1495 1.261 . S
C1494 O1507 1.251 . S
O1495 C1494 1.261 . S
H1496 C1490 0.930 . S
H1497 C1492 0.930 . S
N1498 Cu1487 1.985 1_565 S
N1498 C1500 1.335 . S
N1498 C1501 1.395 . S
N1499 C1500 1.345 . S
N1499 C1502 1.336 . S
C1500 N1498 1.335 . S
C1500 N1499 1.345 . S
C1500 H1505 0.930 . S
C1501 N1498 1.395 . S
C1501 C1502 1.371 . S
C1501 H1506 0.905 1_565 S
C1502 N1499 1.336 . S
C1502 C1501 1.371 . S
C1502 H1509 0.929 . S
C1503 O1493 1.282 . S
C1503 O1504 1.216 . S
O1504 C1503 1.216 . S
H1505 C1500 0.930 . S
H1506 C1501 0.905 1_545 S
O1507 Cu1487 1.959 1_565 S
O1507 C1494 1.251 . S
H1508 C1491 0.930 . S
H1509 C1502 0.929 . S
Cu1510 N1511 1.999 . S
Cu1510 O1516 1.974 . S
Cu1510 N1521 1.985 . S
Cu1510 O1530 1.959 . S
N1511 Cu1510 1.999 . S
N1511 C1513 1.263 1_455 S
N1511 C1515 1.389 . S
N1512 C1513 1.358 . S
N1512 C1514 1.400 . S
C1513 N1511 1.263 1_655 S
C1513 N1512 1.358 . S
C1513 H1519 0.930 . S
C1514 N1512 1.400 . S
C1514 C1515 1.351 1_655 S
C1514 H1531 0.930 . S
C1515 N1511 1.389 . S
C1515 C1514 1.351 1_455 S
C1515 H1520 0.930 . S
O1516 Cu1510 1.974 . S
O1516 C1526 1.282 1_455 S
C1517 O1518 1.261 . S
C1517 O1530 1.251 . S
O1518 C1517 1.261 . S
H1519 C1513 0.930 . S
H1520 C1515 0.930 . S
N1521 Cu1510 1.985 . S
N1521 C1523 1.335 . S
N1521 C1524 1.390 . S
N1522 C1523 1.345 . S
N1522 C1525 1.336 . S
C1523 N1521 1.335 . S
C1523 N1522 1.345 . S
C1523 H1528 0.930 . S
C1524 N1521 1.390 . S
C1524 C1525 1.346 . S
C1524 H1529 0.930 . S
C1525 N1522 1.336 . S
C1525 C1524 1.346 . S
C1525 H1532 0.929 . S
C1526 O1516 1.282 1_655 S
C1526 O1527 1.216 1_655 S
O1527 C1526 1.216 1_455 S
H1528 C1523 0.930 . S
H1529 C1524 0.930 . S
O1530 Cu1510 1.959 . S
O1530 C1517 1.251 . S
H1531 C1514 0.930 . S
H1532 C1525 0.929 . S
Cu1533 N1534 1.999 . S
Cu1533 O1539 1.974 . S
Cu1533 N1544 1.985 . S
Cu1533 O1553 1.959 1_545 S
N1534 Cu1533 1.999 . S
N1534 C1536 1.263 . S
N1534 C1538 1.389 . S
N1535 C1536 1.358 . S
N1535 C1537 1.400 . S
C1536 N1534 1.263 . S
C1536 N1535 1.358 . S
C1536 H1542 0.930 . S
C1537 N1535 1.400 . S
C1537 C1538 1.351 . S
C1537 H1554 0.930 . S
C1538 N1534 1.389 . S
C1538 C1537 1.351 . S
C1538 H1543 0.930 . S
O1539 Cu1533 1.974 . S
O1539 C1549 1.282 . S
C1540 O1541 1.255 1_565 S
C1540 O1553 1.251 . S
O1541 C1540 1.255 1_545 S
H1542 C1536 0.930 . S
H1543 C1538 0.930 . S
N1544 Cu1533 1.985 . S
N1544 C1546 1.335 1_545 S
N1544 C1547 1.390 . S
N1545 C1546 1.345 . S
N1545 C1548 1.336 . S
C1546 N1544 1.335 1_565 S
C1546 N1545 1.345 . S
C1546 H1551 0.930 . S
C1547 N1544 1.390 . S
C1547 C1548 1.346 1_545 S
C1547 H1552 0.930 . S
C1548 N1545 1.336 . S
C1548 C1547 1.346 1_565 S
C1548 H1555 0.929 . S
C1549 O1539 1.282 . S
C1549 O1550 1.216 . S
O1550 C1549 1.216 . S
H1551 C1546 0.930 . S
H1552 C1547 0.930 . S
O1553 Cu1533 1.959 1_565 S
O1553 C1540 1.251 . S
H1554 C1537 0.930 . S
H1555 C1548 0.929 . S
Cu1556 N1557 1.999 . S
Cu1556 O1562 1.974 . S
Cu1556 N1567 1.985 . S
Cu1556 O1576 1.959 . S
N1557 Cu1556 1.999 . S
N1557 C1559 1.263 . S
N1557 C1561 1.389 . S
N1558 C1559 1.358 . S
N1558 C1560 1.400 . S
C1559 N1557 1.263 . S
C1559 N1558 1.358 . S
C1559 H1565 0.930 . S
C1560 N1558 1.400 . S
C1560 C1561 1.351 . S
C1560 H1577 0.930 . S
C1561 N1557 1.389 . S
C1561 C1560 1.351 . S
C1561 H1566 0.930 . S
O1562 Cu1556 1.974 . S
O1562 C1572 1.282 . S
C1563 O1564 1.261 . S
C1563 O1576 1.251 . S
O1564 C1563 1.261 . S
H1565 C1559 0.930 . S
H1566 C1561 0.930 . S
N1567 Cu1556 1.985 . S
N1567 C1569 1.335 . S
N1567 C1570 1.390 . S
N1568 C1569 1.345 . S
N1568 C1571 1.336 . S
C1569 N1567 1.335 . S
C1569 N1568 1.345 . S
C1569 H1574 0.930 . S
C1570 N1567 1.390 . S
C1570 C1571 1.346 . S
C1570 H1575 0.930 . S
C1571 N1568 1.336 . S
C1571 C1570 1.346 . S
C1571 H1578 0.929 . S
C1572 O1562 1.282 . S
C1572 O1573 1.216 . S
O1573 C1572 1.216 . S
H1574 C1569 0.930 . S
H1575 C1570 0.930 . S
O1576 Cu1556 1.959 . S
O1576 C1563 1.251 . S
H1577 C1560 0.930 . S
H1578 C1571 0.929 . S
Cu1579 N1580 1.999 . S
Cu1579 O1585 1.974 . S
Cu1579 N1590 1.985 . S
Cu1579 O1599 1.959 . S
N1580 Cu1579 1.999 . S
N1580 C1582 1.263 . S
N1580 C1584 1.389 . S
N1581 C1582 1.358 . S
N1581 C1583 1.400 . S
C1582 N1580 1.263 . S
C1582 N1581 1.358 . S
C1582 H1588 0.930 . S
C1583 N1581 1.400 . S
C1583 C1584 1.351 . S
C1583 H1600 0.930 . S
C1584 N1580 1.389 . S
C1584 C1583 1.351 . S
C1584 H1589 0.930 . S
O1585 Cu1579 1.974 . S
O1585 C1595 1.282 . S
C1586 O1587 1.261 . S
C1586 O1599 1.251 . S
O1587 C1586 1.261 . S
H1588 C1582 0.930 . S
H1589 C1584 0.930 . S
N1590 Cu1579 1.985 . S
N1590 C1592 1.335 . S
N1590 C1593 1.390 . S
N1591 C1592 1.345 . S
N1591 C1594 1.336 . S
C1592 N1590 1.335 . S
C1592 N1591 1.345 . S
C1592 H1597 0.930 . S
C1593 N1590 1.390 . S
C1593 C1594 1.346 . S
C1593 H1598 0.930 . S
C1594 N1591 1.336 . S
C1594 C1593 1.346 . S
C1594 H1601 0.929 . S
C1595 O1585 1.282 . S
C1595 O1596 1.216 . S
O1596 C1595 1.216 . S
H1597 C1592 0.930 . S
H1598 C1593 0.930 . S
O1599 Cu1579 1.959 . S
O1599 C1586 1.251 . S
H1600 C1583 0.930 . S
H1601 C1594 0.929 . S
Cu1602 N1603 1.999 . S
Cu1602 O1608 1.974 . S
Cu1602 N1613 1.985 . S
Cu1602 O1622 1.959 . S
N1603 Cu1602 1.999 . S
N1603 C1605 1.263 . S
N1603 C1607 1.389 . S
N1604 C1605 1.358 . S
N1604 C1606 1.400 . S
C1605 N1603 1.263 . S
C1605 N1604 1.358 . S
C1605 H1611 0.930 . S
C1606 N1604 1.400 . S
C1606 C1607 1.351 . S
C1606 H1623 0.930 . S
C1607 N1603 1.389 . S
C1607 C1606 1.351 . S
C1607 H1612 0.930 . S
O1608 Cu1602 1.974 . S
O1608 C1618 1.282 . S
C1609 O1610 1.261 . S
C1609 O1622 1.251 . S
O1610 C1609 1.261 . S
H1611 C1605 0.930 . S
H1612 C1607 0.930 . S
N1613 Cu1602 1.985 . S
N1613 C1615 1.335 . S
N1613 C1616 1.390 . S
N1614 C1615 1.345 . S
N1614 C1617 1.336 . S
C1615 N1613 1.335 . S
C1615 N1614 1.345 . S
C1615 H1620 0.930 . S
C1616 N1613 1.390 . S
C1616 C1617 1.346 . S
C1616 H1621 0.930 . S
C1617 N1614 1.336 . S
C1617 C1616 1.346 . S
C1617 H1624 0.929 . S
C1618 O1608 1.282 . S
C1618 O1619 1.216 . S
O1619 C1618 1.216 . S
H1620 C1615 0.930 . S
H1621 C1616 0.930 . S
O1622 Cu1602 1.959 . S
O1622 C1609 1.251 . S
H1623 C1606 0.930 . S
H1624 C1617 0.929 . S
Cu1625 N1626 1.999 . S
Cu1625 O1631 1.974 . S
Cu1625 N1636 1.985 . S
Cu1625 O1645 1.959 . S
N1626 Cu1625 1.999 . S
N1626 C1628 1.263 . S
N1626 C1630 1.389 . S
N1627 C1628 1.358 . S
N1627 C1629 1.400 . S
C1628 N1626 1.263 . S
C1628 N1627 1.358 . S
C1628 H1634 0.930 . S
C1629 N1627 1.400 . S
C1629 C1630 1.351 . S
C1629 H1646 0.930 . S
C1630 N1626 1.389 . S
C1630 C1629 1.351 . S
C1630 H1635 0.930 . S
O1631 Cu1625 1.974 . S
O1631 C1641 1.282 . S
C1632 O1633 1.261 . S
C1632 O1645 1.251 . S
O1633 C1632 1.261 . S
H1634 C1628 0.930 . S
H1635 C1630 0.930 . S
N1636 Cu1625 1.985 . S
N1636 C1638 1.335 . S
N1636 C1639 1.390 . S
N1637 C1638 1.345 . S
N1637 C1640 1.336 . S
C1638 N1636 1.335 . S
C1638 N1637 1.345 . S
C1638 H1643 0.930 . S
C1639 N1636 1.390 . S
C1639 C1640 1.346 . S
C1639 H1644 0.930 . S
C1640 N1637 1.336 . S
C1640 C1639 1.346 . S
C1640 H1647 0.929 . S
C1641 O1631 1.282 . S
C1641 O1642 1.216 . S
O1642 C1641 1.216 . S
H1643 C1638 0.930 . S
H1644 C1639 0.930 . S
O1645 Cu1625 1.959 . S
O1645 C1632 1.251 . S
H1646 C1629 0.930 . S
H1647 C1640 0.929 . S
Cu1648 N1649 1.999 . S
Cu1648 O1654 1.974 . S
Cu1648 N1659 1.985 . S
Cu1648 O1668 1.959 . S
N1649 Cu1648 1.999 . S
N1649 C1651 1.263 . S
N1649 C1653 1.389 . S
N1650 C1651 1.358 . S
N1650 C1652 1.400 . S
C1651 N1649 1.263 . S
C1651 N1650 1.358 . S
C1651 H1657 0.930 . S
C1652 N1650 1.400 . S
C1652 C1653 1.351 . S
C1652 H1669 0.930 . S
C1653 N1649 1.389 . S
C1653 C1652 1.351 . S
C1653 H1658 0.930 . S
O1654 Cu1648 1.974 . S
O1654 C1664 1.282 . S
C1655 O1656 1.261 . S
C1655 O1668 1.251 . S
O1656 C1655 1.261 . S
H1657 C1651 0.930 . S
H1658 C1653 0.930 . S
N1659 Cu1648 1.985 . S
N1659 C1661 1.335 . S
N1659 C1662 1.390 . S
N1660 C1661 1.345 . S
N1660 C1663 1.336 . S
C1661 N1659 1.335 . S
C1661 N1660 1.345 . S
C1661 H1666 0.930 . S
C1662 N1659 1.390 . S
C1662 C1663 1.346 . S
C1662 H1667 0.930 . S
C1663 N1660 1.336 . S
C1663 C1662 1.346 . S
C1663 H1670 0.929 . S
C1664 O1654 1.282 . S
C1664 O1665 1.216 . S
O1665 C1664 1.216 . S
H1666 C1661 0.930 . S
H1667 C1662 0.930 . S
O1668 Cu1648 1.959 . S
O1668 C1655 1.251 . S
H1669 C1652 0.930 . S
H1670 C1663 0.929 . S
Cu1671 N1672 1.999 . S
Cu1671 O1677 1.974 . S
Cu1671 N1682 1.985 . S
Cu1671 O1691 1.959 . S
N1672 Cu1671 1.999 . S
N1672 C1674 1.263 . S
N1672 C1676 1.389 . S
N1673 C1674 1.358 . S
N1673 C1675 1.400 . S
C1674 N1672 1.263 . S
C1674 N1673 1.358 . S
C1674 H1680 0.930 . S
C1675 N1673 1.400 . S
C1675 C1676 1.351 . S
C1675 H1692 0.930 . S
C1676 N1672 1.389 . S
C1676 C1675 1.351 . S
C1676 H1681 0.930 . S
O1677 Cu1671 1.974 . S
O1677 C1687 1.282 . S
C1678 O1679 1.261 . S
C1678 O1691 1.251 . S
O1679 C1678 1.261 . S
H1680 C1674 0.930 . S
H1681 C1676 0.930 . S
N1682 Cu1671 1.985 . S
N1682 C1684 1.335 . S
N1682 C1685 1.390 . S
N1683 C1684 1.345 . S
N1683 C1686 1.336 . S
C1684 N1682 1.335 . S
C1684 N1683 1.345 . S
C1684 H1689 0.930 . S
C1685 N1682 1.390 . S
C1685 C1686 1.346 . S
C1685 H1690 0.930 . S
C1686 N1683 1.336 . S
C1686 C1685 1.346 . S
C1686 H1693 0.929 . S
C1687 O1677 1.282 . S
C1687 O1688 1.216 . S
O1688 C1687 1.216 . S
H1689 C1684 0.930 . S
H1690 C1685 0.930 . S
O1691 Cu1671 1.959 . S
O1691 C1678 1.251 . S
H1692 C1675 0.930 . S
H1693 C1686 0.929 . S
Cu1694 N1695 1.999 . S
Cu1694 O1700 1.974 . S
Cu1694 N1705 1.985 . S
Cu1694 O1714 1.959 . S
N1695 Cu1694 1.999 . S
N1695 C1697 1.263 . S
N1695 C1699 1.389 . S
N1696 C1697 1.358 . S
N1696 C1698 1.400 . S
C1697 N1695 1.263 . S
C1697 N1696 1.358 . S
C1697 H1703 0.930 . S
C1698 N1696 1.400 . S
C1698 C1699 1.351 . S
C1698 H1715 0.930 . S
C1699 N1695 1.389 . S
C1699 C1698 1.351 . S
C1699 H1704 0.930 . S
O1700 Cu1694 1.974 . S
O1700 C1710 1.282 . S
C1701 O1702 1.261 . S
C1701 O1714 1.251 . S
O1702 C1701 1.261 . S
H1703 C1697 0.930 . S
H1704 C1699 0.930 . S
N1705 Cu1694 1.985 . S
N1705 C1707 1.335 . S
N1705 C1708 1.390 . S
N1706 C1707 1.345 . S
N1706 C1709 1.336 . S
C1707 N1705 1.335 . S
C1707 N1706 1.345 . S
C1707 H1712 0.930 . S
C1708 N1705 1.390 . S
C1708 C1709 1.346 . S
C1708 H1713 0.930 . S
C1709 N1706 1.336 . S
C1709 C1708 1.346 . S
C1709 H1716 0.929 . S
C1710 O1700 1.282 . S
C1710 O1711 1.216 . S
O1711 C1710 1.216 . S
H1712 C1707 0.930 . S
H1713 C1708 0.930 . S
O1714 Cu1694 1.959 . S
O1714 C1701 1.251 . S
H1715 C1698 0.930 . S
H1716 C1709 0.929 . S
Cu1717 N1718 1.999 . S
Cu1717 O1723 1.974 . S
Cu1717 N1728 1.985 . S
Cu1717 O1737 1.959 . S
N1718 Cu1717 1.999 . S
N1718 C1720 1.263 . S
N1718 C1722 1.389 . S
N1719 C1720 1.358 . S
N1719 C1721 1.400 . S
C1720 N1718 1.263 . S
C1720 N1719 1.358 . S
C1720 H1726 0.930 . S
C1721 N1719 1.400 . S
C1721 C1722 1.351 . S
C1721 H1738 0.930 . S
C1722 N1718 1.389 . S
C1722 C1721 1.351 . S
C1722 H1727 0.930 . S
O1723 Cu1717 1.974 . S
O1723 C1733 1.282 . S
C1724 O1725 1.261 . S
C1724 O1737 1.251 . S
O1725 C1724 1.261 . S
H1726 C1720 0.930 . S
H1727 C1722 0.930 . S
N1728 Cu1717 1.985 . S
N1728 C1730 1.335 . S
N1728 C1731 1.390 . S
N1729 C1730 1.345 . S
N1729 C1732 1.336 . S
C1730 N1728 1.335 . S
C1730 N1729 1.345 . S
C1730 H1735 0.930 . S
C1731 N1728 1.390 . S
C1731 C1732 1.346 . S
C1731 H1736 0.930 . S
C1732 N1729 1.336 . S
C1732 C1731 1.346 . S
C1732 H1739 0.929 . S
C1733 O1723 1.282 . S
C1733 O1734 1.216 . S
O1734 C1733 1.216 . S
H1735 C1730 0.930 . S
H1736 C1731 0.930 . S
O1737 Cu1717 1.959 . S
O1737 C1724 1.251 . S
H1738 C1721 0.930 . S
H1739 C1732 0.929 . S
Cu1740 N1741 1.999 . S
Cu1740 O1746 1.974 . S
Cu1740 N1751 1.985 . S
Cu1740 O1760 1.959 . S
N1741 Cu1740 1.999 . S
N1741 C1743 1.263 . S
N1741 C1745 1.389 . S
N1742 C1743 1.358 . S
N1742 C1744 1.400 . S
C1743 N1741 1.263 . S
C1743 N1742 1.358 . S
C1743 H1749 0.930 . S
C1744 N1742 1.400 . S
C1744 C1745 1.351 . S
C1744 H1761 0.930 . S
C1745 N1741 1.389 . S
C1745 C1744 1.351 . S
C1745 H1750 0.930 . S
O1746 Cu1740 1.974 . S
O1746 C1756 1.282 . S
C1747 O1748 1.261 . S
C1747 O1760 1.251 . S
O1748 C1747 1.261 . S
H1749 C1743 0.930 . S
H1750 C1745 0.930 . S
N1751 Cu1740 1.985 . S
N1751 C1753 1.335 . S
N1751 C1754 1.390 . S
N1752 C1753 1.345 . S
N1752 C1755 1.336 . S
C1753 N1751 1.335 . S
C1753 N1752 1.345 . S
C1753 H1758 0.930 . S
C1754 N1751 1.390 . S
C1754 C1755 1.346 . S
C1754 H1759 0.930 . S
C1755 N1752 1.336 . S
C1755 C1754 1.346 . S
C1755 H1762 0.929 . S
C1756 O1746 1.282 . S
C1756 O1757 1.216 . S
O1757 C1756 1.216 . S
H1758 C1753 0.930 . S
H1759 C1754 0.930 . S
O1760 Cu1740 1.959 . S
O1760 C1747 1.251 . S
H1761 C1744 0.930 . S
H1762 C1755 0.929 . S
Cu1763 N1764 1.999 . S
Cu1763 O1769 1.974 . S
Cu1763 N1774 1.985 . S
Cu1763 O1783 1.959 . S
N1764 Cu1763 1.999 . S
N1764 C1766 1.263 . S
N1764 C1768 1.389 . S
N1765 C1766 1.358 . S
N1765 C1767 1.400 . S
C1766 N1764 1.263 . S
C1766 N1765 1.358 . S
C1766 H1772 0.930 . S
C1767 N1765 1.400 . S
C1767 C1768 1.351 . S
C1767 H1784 0.930 . S
C1768 N1764 1.389 . S
C1768 C1767 1.351 . S
C1768 H1773 0.930 . S
O1769 Cu1763 1.974 . S
O1769 C1779 1.282 . S
C1770 O1771 1.261 . S
C1770 O1783 1.251 . S
O1771 C1770 1.261 . S
H1772 C1766 0.930 . S
H1773 C1768 0.930 . S
N1774 Cu1763 1.985 . S
N1774 C1776 1.335 . S
N1774 C1777 1.390 . S
N1775 C1776 1.345 . S
N1775 C1778 1.336 . S
C1776 N1774 1.335 . S
C1776 N1775 1.345 . S
C1776 H1781 0.930 . S
C1777 N1774 1.390 . S
C1777 C1778 1.346 . S
C1777 H1782 0.930 . S
C1778 N1775 1.336 . S
C1778 C1777 1.346 . S
C1778 H1785 0.929 . S
C1779 O1769 1.282 . S
C1779 O1780 1.216 . S
O1780 C1779 1.216 . S
H1781 C1776 0.930 . S
H1782 C1777 0.930 . S
O1783 Cu1763 1.959 . S
O1783 C1770 1.251 . S
H1784 C1767 0.930 . S
H1785 C1778 0.929 . S
Cu1786 N1787 1.999 . S
Cu1786 O1792 1.974 . S
Cu1786 N1797 1.985 . S
Cu1786 O1806 1.959 . S
N1787 Cu1786 1.999 . S
N1787 C1789 1.263 . S
N1787 C1791 1.389 . S
N1788 C1789 1.358 . S
N1788 C1790 1.400 . S
C1789 N1787 1.263 . S
C1789 N1788 1.358 . S
C1789 H1795 0.930 . S
C1790 N1788 1.400 . S
C1790 C1791 1.351 . S
C1790 H1807 0.930 . S
C1791 N1787 1.389 . S
C1791 C1790 1.351 . S
C1791 H1796 0.930 . S
O1792 Cu1786 1.974 . S
O1792 C1802 1.282 . S
C1793 O1794 1.261 . S
C1793 O1806 1.251 . S
O1794 C1793 1.261 . S
H1795 C1789 0.930 . S
H1796 C1791 0.930 . S
N1797 Cu1786 1.985 . S
N1797 C1799 1.335 . S
N1797 C1800 1.390 . S
N1798 C1799 1.345 . S
N1798 C1801 1.336 . S
C1799 N1797 1.335 . S
C1799 N1798 1.345 . S
C1799 H1804 0.930 . S
C1800 N1797 1.390 . S
C1800 C1801 1.346 . S
C1800 H1805 0.930 . S
C1801 N1798 1.336 . S
C1801 C1800 1.346 . S
C1801 H1808 0.929 . S
C1802 O1792 1.282 . S
C1802 O1803 1.216 . S
O1803 C1802 1.216 . S
H1804 C1799 0.930 . S
H1805 C1800 0.930 . S
O1806 Cu1786 1.959 . S
O1806 C1793 1.251 . S
H1807 C1790 0.930 . S
H1808 C1801 0.929 . S
Cu1809 N1810 1.999 . S
Cu1809 O1815 1.974 . S
Cu1809 N1820 1.985 . S
Cu1809 O1829 1.959 . S
N1810 Cu1809 1.999 . S
N1810 C1812 1.263 . S
N1810 C1814 1.389 . S
N1811 C1812 1.358 . S
N1811 C1813 1.400 . S
C1812 N1810 1.263 . S
C1812 N1811 1.358 . S
C1812 H1818 0.930 . S
C1813 N1811 1.400 . S
C1813 C1814 1.351 . S
C1813 H1830 0.930 . S
C1814 N1810 1.389 . S
C1814 C1813 1.351 . S
C1814 H1819 0.930 . S
O1815 Cu1809 1.974 . S
O1815 C1825 1.282 . S
C1816 O1817 1.261 . S
C1816 O1829 1.251 . S
O1817 C1816 1.261 . S
H1818 C1812 0.930 . S
H1819 C1814 0.930 . S
N1820 Cu1809 1.985 . S
N1820 C1822 1.335 . S
N1820 C1823 1.390 . S
N1821 C1822 1.345 . S
N1821 C1824 1.336 . S
C1822 N1820 1.335 . S
C1822 N1821 1.345 . S
C1822 H1827 0.930 . S
C1823 N1820 1.390 . S
C1823 C1824 1.346 . S
C1823 H1828 0.930 . S
C1824 N1821 1.336 . S
C1824 C1823 1.346 . S
C1824 H1831 0.929 . S
C1825 O1815 1.282 . S
C1825 O1826 1.216 . S
O1826 C1825 1.216 . S
H1827 C1822 0.930 . S
H1828 C1823 0.930 . S
O1829 Cu1809 1.959 . S
O1829 C1816 1.251 . S
H1830 C1813 0.930 . S
H1831 C1824 0.929 . S
C1832 C1833 1.369 . S
C1832 C1834 1.419 . S
C1832 H1836 0.930 . S
C1833 C1832 1.369 . S
C1833 C1842 1.429 . S
C1834 C1832 1.419 . S
C1834 C1835 1.363 . S
C1834 H1837 0.929 . S
C1835 C1834 1.363 . S
C1835 C1841 1.428 . S
H1836 C1832 0.930 . S
H1837 C1834 0.929 . S
S1838 N1839 1.613 . S
S1838 N1840 1.610 . S
N1839 S1838 1.613 . S
N1839 C1842 1.350 . S
N1840 S1838 1.610 . S
N1840 C1841 1.351 . S
C1841 C1835 1.428 . S
C1841 N1840 1.351 . S
C1841 C1842 1.434 . S
C1842 C1833 1.429 . S
C1842 N1839 1.350 . S
C1842 C1841 1.434 . S
C1843 C1844 1.369 . S
C1843 C1845 1.419 . S
C1843 H1847 0.930 . S
C1844 C1843 1.369 . S
C1844 C1853 1.429 . S
C1845 C1843 1.419 . S
C1845 C1846 1.363 . S
C1845 H1848 0.929 . S
C1846 C1845 1.363 . S
C1846 C1852 1.428 . S
H1847 C1843 0.930 . S
H1848 C1845 0.929 . S
S1849 N1850 1.613 . S
S1849 N1851 1.610 . S
N1850 S1849 1.613 . S
N1850 C1853 1.350 . S
N1851 S1849 1.610 . S
N1851 C1852 1.351 . S
C1852 C1846 1.428 . S
C1852 N1851 1.351 . S
C1852 C1853 1.434 . S
C1853 C1844 1.429 . S
C1853 N1850 1.350 . S
C1853 C1852 1.434 . S
C1854 C1855 1.369 . S
C1854 C1856 1.419 . S
C1854 H1858 0.930 . S
C1855 C1854 1.369 . S
C1855 C1864 1.429 . S
C1856 C1854 1.419 . S
C1856 C1857 1.363 . S
C1856 H1859 0.929 . S
C1857 C1856 1.363 . S
C1857 C1863 1.428 . S
H1858 C1854 0.930 . S
H1859 C1856 0.929 . S
S1860 N1861 1.613 . S
S1860 N1862 1.610 . S
N1861 S1860 1.613 . S
N1861 C1864 1.350 . S
N1862 S1860 1.610 . S
N1862 C1863 1.351 . S
C1863 C1857 1.428 . S
C1863 N1862 1.351 . S
C1863 C1864 1.434 . S
C1864 C1855 1.429 . S
C1864 N1861 1.350 . S
C1864 C1863 1.434 . S
C1865 C1866 1.369 . S
C1865 C1867 1.419 . S
C1865 H1869 0.930 . S
C1866 C1865 1.369 . S
C1866 C1875 1.429 . S
C1867 C1865 1.419 . S
C1867 C1868 1.363 . S
C1867 H1870 0.929 . S
C1868 C1867 1.363 . S
C1868 C1874 1.428 . S
H1869 C1865 0.930 . S
H1870 C1867 0.929 . S
S1871 N1872 1.613 . S
S1871 N1873 1.610 . S
N1872 S1871 1.613 . S
N1872 C1875 1.350 . S
N1873 S1871 1.610 . S
N1873 C1874 1.351 . S
C1874 C1868 1.428 . S
C1874 N1873 1.351 . S
C1874 C1875 1.434 . S
C1875 C1866 1.429 . S
C1875 N1872 1.350 . S
C1875 C1874 1.434 . S
C1876 C1877 1.369 . S
C1876 C1878 1.419 . S
C1876 H1880 0.930 . S
C1877 C1876 1.369 . S
C1877 C1886 1.429 . S
C1878 C1876 1.419 . S
C1878 C1879 1.363 . S
C1878 H1881 0.929 . S
C1879 C1878 1.363 . S
C1879 C1885 1.428 . S
H1880 C1876 0.930 . S
H1881 C1878 0.929 . S
S1882 N1883 1.613 . S
S1882 N1884 1.610 . S
N1883 S1882 1.613 . S
N1883 C1886 1.350 . S
N1884 S1882 1.610 . S
N1884 C1885 1.351 . S
C1885 C1879 1.428 . S
C1885 N1884 1.351 . S
C1885 C1886 1.434 . S
C1886 C1877 1.429 . S
C1886 N1883 1.350 . S
C1886 C1885 1.434 . S
C1887 C1888 1.369 . S
C1887 C1889 1.419 . S
C1887 H1891 0.930 . S
C1888 C1887 1.369 . S
C1888 C1897 1.429 . S
C1889 C1887 1.419 . S
C1889 C1890 1.363 . S
C1889 H1892 0.929 . S
C1890 C1889 1.363 . S
C1890 C1896 1.428 . S
H1891 C1887 0.930 . S
H1892 C1889 0.929 . S
S1893 N1894 1.613 . S
S1893 N1895 1.610 . S
N1894 S1893 1.613 . S
N1894 C1897 1.350 . S
N1895 S1893 1.610 . S
N1895 C1896 1.351 . S
C1896 C1890 1.428 . S
C1896 N1895 1.351 . S
C1896 C1897 1.434 . S
C1897 C1888 1.429 . S
C1897 N1894 1.350 . S
C1897 C1896 1.434 . S
C1898 C1899 1.369 . S
C1898 C1900 1.419 . S
C1898 H1902 0.930 . S
C1899 C1898 1.369 . S
C1899 C1908 1.429 . S
C1900 C1898 1.419 . S
C1900 C1901 1.363 . S
C1900 H1903 0.929 . S
C1901 C1900 1.363 . S
C1901 C1907 1.428 . S
H1902 C1898 0.930 . S
H1903 C1900 0.929 . S
S1904 N1905 1.613 . S
S1904 N1906 1.610 . S
N1905 S1904 1.613 . S
N1905 C1908 1.350 . S
N1906 S1904 1.610 . S
N1906 C1907 1.351 . S
C1907 C1901 1.428 . S
C1907 N1906 1.351 . S
C1907 C1908 1.434 . S
C1908 C1899 1.429 . S
C1908 N1905 1.350 . S
C1908 C1907 1.434 . S
C1909 C1910 1.369 . S
C1909 C1911 1.419 . S
C1909 H1913 0.930 . S
C1910 C1909 1.369 . S
C1910 C1919 1.429 . S
C1911 C1909 1.419 . S
C1911 C1912 1.363 . S
C1911 H1914 0.929 . S
C1912 C1911 1.363 . S
C1912 C1918 1.428 . S
H1913 C1909 0.930 . S
H1914 C1911 0.929 . S
S1915 N1916 1.613 . S
S1915 N1917 1.610 . S
N1916 S1915 1.613 . S
N1916 C1919 1.350 . S
N1917 S1915 1.610 . S
N1917 C1918 1.351 . S
C1918 C1912 1.428 . S
C1918 N1917 1.351 . S
C1918 C1919 1.434 . S
C1919 C1910 1.429 . S
C1919 N1916 1.350 . S
C1919 C1918 1.434 . S
C1920 C1921 1.369 . S
C1920 C1922 1.419 . S
C1920 H1924 0.930 . S
C1921 C1920 1.369 . S
C1921 C1930 1.429 . S
C1922 C1920 1.419 . S
C1922 C1923 1.363 . S
C1922 H1925 0.929 . S
C1923 C1922 1.363 . S
C1923 C1929 1.428 . S
H1924 C1920 0.930 . S
H1925 C1922 0.929 . S
S1926 N1927 1.613 . S
S1926 N1928 1.610 . S
N1927 S1926 1.613 . S
N1927 C1930 1.350 . S
N1928 S1926 1.610 . S
N1928 C1929 1.351 . S
C1929 C1923 1.428 . S
C1929 N1928 1.351 . S
C1929 C1930 1.434 . S
C1930 C1921 1.429 . S
C1930 N1927 1.350 . S
C1930 C1929 1.434 . S
C1931 C1932 1.369 . S
C1931 C1933 1.419 . S
C1931 H1935 0.930 . S
C1932 C1931 1.369 . S
C1932 C1941 1.429 . S
C1933 C1931 1.419 . S
C1933 C1934 1.363 . S
C1933 H1936 0.929 . S
C1934 C1933 1.363 . S
C1934 C1940 1.428 . S
H1935 C1931 0.930 . S
H1936 C1933 0.929 . S
S1937 N1938 1.613 . S
S1937 N1939 1.610 . S
N1938 S1937 1.613 . S
N1938 C1941 1.350 . S
N1939 S1937 1.610 . S
N1939 C1940 1.351 . S
C1940 C1934 1.428 . S
C1940 N1939 1.351 . S
C1940 C1941 1.434 . S
C1941 C1932 1.429 . S
C1941 N1938 1.350 . S
C1941 C1940 1.434 . S
C1942 C1943 1.369 . S
C1942 C1944 1.419 . S
C1942 H1946 0.930 . S
C1943 C1942 1.369 . S
C1943 C1952 1.429 . S
C1944 C1942 1.419 . S
C1944 C1945 1.363 . S
C1944 H1947 0.929 . S
C1945 C1944 1.363 . S
C1945 C1951 1.428 . S
H1946 C1942 0.930 . S
H1947 C1944 0.929 . S
S1948 N1949 1.613 . S
S1948 N1950 1.610 . S
N1949 S1948 1.613 . S
N1949 C1952 1.350 . S
N1950 S1948 1.610 . S
N1950 C1951 1.351 . S
C1951 C1945 1.428 . S
C1951 N1950 1.351 . S
C1951 C1952 1.434 . S
C1952 C1943 1.429 . S
C1952 N1949 1.350 . S
C1952 C1951 1.434 . S
C1953 C1954 1.369 . S
C1953 C1955 1.419 . S
C1953 H1957 0.930 . S
C1954 C1953 1.369 . S
C1954 C1963 1.429 . S
C1955 C1953 1.419 . S
C1955 C1956 1.363 . S
C1955 H1958 0.929 . S
C1956 C1955 1.363 . S
C1956 C1962 1.428 . S
H1957 C1953 0.930 . S
H1958 C1955 0.929 . S
S1959 N1960 1.613 . S
S1959 N1961 1.610 . S
N1960 S1959 1.613 . S
N1960 C1963 1.350 . S
N1961 S1959 1.610 . S
N1961 C1962 1.351 . S
C1962 C1956 1.428 . S
C1962 N1961 1.351 . S
C1962 C1963 1.434 . S
C1963 C1954 1.429 . S
C1963 N1960 1.350 . S
C1963 C1962 1.434 . S
C1964 C1965 1.369 . S
C1964 C1966 1.419 . S
C1964 H1968 0.930 . S
C1965 C1964 1.369 . S
C1965 C1974 1.429 . S
C1966 C1964 1.419 . S
C1966 C1967 1.363 . S
C1966 H1969 0.929 . S
C1967 C1966 1.363 . S
C1967 C1973 1.428 . S
H1968 C1964 0.930 . S
H1969 C1966 0.929 . S
S1970 N1971 1.613 . S
S1970 N1972 1.610 . S
N1971 S1970 1.613 . S
N1971 C1974 1.350 . S
N1972 S1970 1.610 . S
N1972 C1973 1.351 . S
C1973 C1967 1.428 . S
C1973 N1972 1.351 . S
C1973 C1974 1.434 . S
C1974 C1965 1.429 . S
C1974 N1971 1.350 . S
C1974 C1973 1.434 . S
C1975 C1976 1.369 . S
C1975 C1977 1.419 . S
C1975 H1979 0.930 . S
C1976 C1975 1.369 . S
C1976 C1985 1.429 . S
C1977 C1975 1.419 . S
C1977 C1978 1.363 . S
C1977 H1980 0.929 . S
C1978 C1977 1.363 . S
C1978 C1984 1.428 . S
H1979 C1975 0.930 . S
H1980 C1977 0.929 . S
S1981 N1982 1.613 . S
S1981 N1983 1.610 . S
N1982 S1981 1.613 . S
N1982 C1985 1.350 . S
N1983 S1981 1.610 . S
N1983 C1984 1.351 . S
C1984 C1978 1.428 . S
C1984 N1983 1.351 . S
C1984 C1985 1.434 . S
C1985 C1976 1.429 . S
C1985 N1982 1.350 . S
C1985 C1984 1.434 . S
C1986 C1987 1.369 . S
C1986 C1988 1.419 . S
C1986 H1990 0.930 . S
C1987 C1986 1.369 . S
C1987 C1996 1.429 . S
C1988 C1986 1.419 . S
C1988 C1989 1.363 . S
C1988 H1991 0.929 . S
C1989 C1988 1.363 . S
C1989 C1995 1.428 . S
H1990 C1986 0.930 . S
H1991 C1988 0.929 . S
S1992 N1993 1.613 . S
S1992 N1994 1.610 . S
N1993 S1992 1.613 . S
N1993 C1996 1.350 . S
N1994 S1992 1.610 . S
N1994 C1995 1.351 . S
C1995 C1989 1.428 . S
C1995 N1994 1.351 . S
C1995 C1996 1.434 . S
C1996 C1987 1.429 . S
C1996 N1993 1.350 . S
C1996 C1995 1.434 . S
C1997 C1998 1.369 . S
C1997 C1999 1.419 . S
C1997 H2001 0.930 . S
C1998 C1997 1.369 . S
C1998 C2007 1.429 . S
C1999 C1997 1.419 . S
C1999 C2000 1.363 . S
C1999 H2002 0.929 . S
C2000 C1999 1.363 . S
C2000 C2006 1.428 . S
H2001 C1997 0.930 . S
H2002 C1999 0.929 . S
S2003 N2004 1.613 . S
S2003 N2005 1.610 . S
N2004 S2003 1.613 . S
N2004 C2007 1.350 . S
N2005 S2003 1.610 . S
N2005 C2006 1.351 . S
C2006 C2000 1.428 . S
C2006 N2005 1.351 . S
C2006 C2007 1.434 . S
C2007 C1998 1.429 . S
C2007 N2004 1.350 . S
C2007 C2006 1.434 . S
C2008 C2009 1.369 . S
C2008 C2010 1.419 . S
C2008 H2012 0.930 . S
C2009 C2008 1.369 . S
C2009 C2018 1.429 . S
C2010 C2008 1.419 . S
C2010 C2011 1.363 . S
C2010 H2013 0.929 . S
C2011 C2010 1.363 . S
C2011 C2017 1.428 . S
H2012 C2008 0.930 . S
H2013 C2010 0.929 . S
S2014 N2015 1.613 . S
S2014 N2016 1.610 . S
N2015 S2014 1.613 . S
N2015 C2018 1.350 . S
N2016 S2014 1.610 . S
N2016 C2017 1.351 . S
C2017 C2011 1.428 . S
C2017 N2016 1.351 . S
C2017 C2018 1.434 . S
C2018 C2009 1.429 . S
C2018 N2015 1.350 . S
C2018 C2017 1.434 . S
C2019 C2020 1.369 . S
C2019 C2021 1.419 . S
C2019 H2023 0.930 . S
C2020 C2019 1.369 . S
C2020 C2029 1.429 . S
C2021 C2019 1.419 . S
C2021 C2022 1.363 . S
C2021 H2024 0.929 . S
C2022 C2021 1.363 . S
C2022 C2028 1.428 . S
H2023 C2019 0.930 . S
H2024 C2021 0.929 . S
S2025 N2026 1.613 . S
S2025 N2027 1.610 . S
N2026 S2025 1.613 . S
N2026 C2029 1.350 . S
N2027 S2025 1.610 . S
N2027 C2028 1.351 . S
C2028 C2022 1.428 . S
C2028 N2027 1.351 . S
C2028 C2029 1.434 . S
C2029 C2020 1.429 . S
C2029 N2026 1.350 . S
C2029 C2028 1.434 . S
C2030 C2031 1.369 . S
C2030 C2032 1.419 . S
C2030 H2034 0.930 . S
C2031 C2030 1.369 . S
C2031 C2040 1.429 . S
C2032 C2030 1.419 . S
C2032 C2033 1.363 . S
C2032 H2035 0.929 . S
C2033 C2032 1.363 . S
C2033 C2039 1.428 . S
H2034 C2030 0.930 . S
H2035 C2032 0.929 . S
S2036 N2037 1.613 . S
S2036 N2038 1.610 . S
N2037 S2036 1.613 . S
N2037 C2040 1.350 . S
N2038 S2036 1.610 . S
N2038 C2039 1.351 . S
C2039 C2033 1.428 . S
C2039 N2038 1.351 . S
C2039 C2040 1.434 . S
C2040 C2031 1.429 . S
C2040 N2037 1.350 . S
C2040 C2039 1.434 . S
C2041 C2042 1.369 . S
C2041 C2043 1.419 . S
C2041 H2045 0.930 . S
C2042 C2041 1.369 . S
C2042 C2051 1.429 . S
C2043 C2041 1.419 . S
C2043 C2044 1.363 . S
C2043 H2046 0.929 . S
C2044 C2043 1.363 . S
C2044 C2050 1.428 . S
H2045 C2041 0.930 . S
H2046 C2043 0.929 . S
S2047 N2048 1.613 . S
S2047 N2049 1.610 . S
N2048 S2047 1.613 . S
N2048 C2051 1.350 . S
N2049 S2047 1.610 . S
N2049 C2050 1.351 . S
C2050 C2044 1.428 . S
C2050 N2049 1.351 . S
C2050 C2051 1.434 . S
C2051 C2042 1.429 . S
C2051 N2048 1.350 . S
C2051 C2050 1.434 . S
C2052 C2053 1.369 . S
C2052 C2054 1.419 . S
C2052 H2056 0.930 . S
C2053 C2052 1.369 . S
C2053 C2062 1.429 . S
C2054 C2052 1.419 . S
C2054 C2055 1.363 . S
C2054 H2057 0.929 . S
C2055 C2054 1.363 . S
C2055 C2061 1.428 . S
H2056 C2052 0.930 . S
H2057 C2054 0.929 . S
S2058 N2059 1.613 . S
S2058 N2060 1.610 . S
N2059 S2058 1.613 . S
N2059 C2062 1.350 . S
N2060 S2058 1.610 . S
N2060 C2061 1.351 . S
C2061 C2055 1.428 . S
C2061 N2060 1.351 . S
C2061 C2062 1.434 . S
C2062 C2053 1.429 . S
C2062 N2059 1.350 . S
C2062 C2061 1.434 . S
C2063 C2064 1.369 . S
C2063 C2065 1.419 . S
C2063 H2067 0.930 . S
C2064 C2063 1.369 . S
C2064 C2073 1.429 . S
C2065 C2063 1.419 . S
C2065 C2066 1.363 . S
C2065 H2068 0.929 . S
C2066 C2065 1.363 . S
C2066 C2072 1.428 . S
H2067 C2063 0.930 . S
H2068 C2065 0.929 . S
S2069 N2070 1.613 . S
S2069 N2071 1.610 . S
N2070 S2069 1.613 . S
N2070 C2073 1.350 . S
N2071 S2069 1.610 . S
N2071 C2072 1.351 . S
C2072 C2066 1.428 . S
C2072 N2071 1.351 . S
C2072 C2073 1.434 . S
C2073 C2064 1.429 . S
C2073 N2070 1.350 . S
C2073 C2072 1.434 . S
C2074 C2075 1.369 . S
C2074 C2076 1.419 . S
C2074 H2078 0.930 . S
C2075 C2074 1.369 . S
C2075 C2084 1.429 . S
C2076 C2074 1.419 . S
C2076 C2077 1.363 . S
C2076 H2079 0.929 . S
C2077 C2076 1.363 . S
C2077 C2083 1.428 . S
H2078 C2074 0.930 . S
H2079 C2076 0.929 . S
S2080 N2081 1.613 . S
S2080 N2082 1.610 . S
N2081 S2080 1.613 . S
N2081 C2084 1.350 . S
N2082 S2080 1.610 . S
N2082 C2083 1.351 . S
C2083 C2077 1.428 . S
C2083 N2082 1.351 . S
C2083 C2084 1.434 . S
C2084 C2075 1.429 . S
C2084 N2081 1.350 . S
C2084 C2083 1.434 . S
C2085 C2086 1.369 . S
C2085 C2087 1.419 . S
C2085 H2089 0.930 . S
C2086 C2085 1.369 . S
C2086 C2095 1.429 . S
C2087 C2085 1.419 . S
C2087 C2088 1.363 . S
C2087 H2090 0.929 . S
C2088 C2087 1.363 . S
C2088 C2094 1.428 . S
H2089 C2085 0.930 . S
H2090 C2087 0.929 . S
S2091 N2092 1.613 . S
S2091 N2093 1.610 . S
N2092 S2091 1.613 . S
N2092 C2095 1.350 . S
N2093 S2091 1.610 . S
N2093 C2094 1.351 . S
C2094 C2088 1.428 . S
C2094 N2093 1.351 . S
C2094 C2095 1.434 . S
C2095 C2086 1.429 . S
C2095 N2092 1.350 . S
C2095 C2094 1.434 . S
C2096 C2097 1.369 . S
C2096 C2098 1.419 . S
C2096 H2100 0.930 . S
C2097 C2096 1.369 . S
C2097 C2106 1.429 . S
C2098 C2096 1.419 . S
C2098 C2099 1.363 . S
C2098 H2101 0.929 . S
C2099 C2098 1.363 . S
C2099 C2105 1.428 . S
H2100 C2096 0.930 . S
H2101 C2098 0.929 . S
S2102 N2103 1.613 . S
S2102 N2104 1.610 . S
N2103 S2102 1.613 . S
N2103 C2106 1.350 . S
N2104 S2102 1.610 . S
N2104 C2105 1.351 . S
C2105 C2099 1.428 . S
C2105 N2104 1.351 . S
C2105 C2106 1.434 . S
C2106 C2097 1.429 . S
C2106 N2103 1.350 . S
C2106 C2105 1.434 . S
C2107 C2108 1.369 . S
C2107 C2109 1.419 . S
C2107 H2111 0.930 . S
C2108 C2107 1.369 . S
C2108 C2117 1.429 . S
C2109 C2107 1.419 . S
C2109 C2110 1.363 . S
C2109 H2112 0.929 . S
C2110 C2109 1.363 . S
C2110 C2116 1.428 . S
H2111 C2107 0.930 . S
H2112 C2109 0.929 . S
S2113 N2114 1.613 . S
S2113 N2115 1.610 . S
N2114 S2113 1.613 . S
N2114 C2117 1.350 . S
N2115 S2113 1.610 . S
N2115 C2116 1.351 . S
C2116 C2110 1.428 . S
C2116 N2115 1.351 . S
C2116 C2117 1.434 . S
C2117 C2108 1.429 . S
C2117 N2114 1.350 . S
C2117 C2116 1.434 . S
C2118 C2119 1.369 . S
C2118 C2120 1.419 . S
C2118 H2122 0.930 . S
C2119 C2118 1.369 . S
C2119 C2128 1.429 . S
C2120 C2118 1.419 . S
C2120 C2121 1.363 . S
C2120 H2123 0.929 . S
C2121 C2120 1.363 . S
C2121 C2127 1.428 . S
H2122 C2118 0.930 . S
H2123 C2120 0.929 . S
S2124 N2125 1.613 . S
S2124 N2126 1.610 . S
N2125 S2124 1.613 . S
N2125 C2128 1.350 . S
N2126 S2124 1.610 . S
N2126 C2127 1.351 . S
C2127 C2121 1.428 . S
C2127 N2126 1.351 . S
C2127 C2128 1.434 . S
C2128 C2119 1.429 . S
C2128 N2125 1.350 . S
C2128 C2127 1.434 . S
C2129 C2130 1.369 . S
C2129 C2131 1.419 . S
C2129 H2133 0.930 . S
C2130 C2129 1.369 . S
C2130 C2139 1.429 . S
C2131 C2129 1.419 . S
C2131 C2132 1.363 . S
C2131 H2134 0.929 . S
C2132 C2131 1.363 . S
C2132 C2138 1.428 . S
H2133 C2129 0.930 . S
H2134 C2131 0.929 . S
S2135 N2136 1.613 . S
S2135 N2137 1.610 . S
N2136 S2135 1.613 . S
N2136 C2139 1.350 . S
N2137 S2135 1.610 . S
N2137 C2138 1.351 . S
C2138 C2132 1.428 . S
C2138 N2137 1.351 . S
C2138 C2139 1.434 . S
C2139 C2130 1.429 . S
C2139 N2136 1.350 . S
C2139 C2138 1.434 . S
C2140 C2141 1.369 . S
C2140 C2142 1.419 . S
C2140 H2144 0.930 . S
C2141 C2140 1.369 . S
C2141 C2150 1.429 . S
C2142 C2140 1.419 . S
C2142 C2143 1.363 . S
C2142 H2145 0.929 . S
C2143 C2142 1.363 . S
C2143 C2149 1.428 . S
H2144 C2140 0.930 . S
H2145 C2142 0.929 . S
S2146 N2147 1.613 . S
S2146 N2148 1.610 . S
N2147 S2146 1.613 . S
N2147 C2150 1.350 . S
N2148 S2146 1.610 . S
N2148 C2149 1.351 . S
C2149 C2143 1.428 . S
C2149 N2148 1.351 . S
C2149 C2150 1.434 . S
C2150 C2141 1.429 . S
C2150 N2147 1.350 . S
C2150 C2149 1.434 . S
C2151 C2152 1.369 . S
C2151 C2153 1.419 . S
C2151 H2155 0.930 . S
C2152 C2151 1.369 . S
C2152 C2161 1.429 . S
C2153 C2151 1.419 . S
C2153 C2154 1.363 . S
C2153 H2156 0.929 . S
C2154 C2153 1.363 . S
C2154 C2160 1.428 . S
H2155 C2151 0.930 . S
H2156 C2153 0.929 . S
S2157 N2158 1.613 . S
S2157 N2159 1.610 . S
N2158 S2157 1.613 . S
N2158 C2161 1.350 . S
N2159 S2157 1.610 . S
N2159 C2160 1.351 . S
C2160 C2154 1.428 . S
C2160 N2159 1.351 . S
C2160 C2161 1.434 . S
C2161 C2152 1.429 . S
C2161 N2158 1.350 . S
C2161 C2160 1.434 . S
C2162 C2163 1.369 . S
C2162 C2164 1.419 . S
C2162 H2166 0.930 . S
C2163 C2162 1.369 . S
C2163 C2172 1.429 . S
C2164 C2162 1.419 . S
C2164 C2165 1.363 . S
C2164 H2167 0.929 . S
C2165 C2164 1.363 . S
C2165 C2171 1.428 . S
H2166 C2162 0.930 . S
H2167 C2164 0.929 . S
S2168 N2169 1.613 . S
S2168 N2170 1.610 . S
N2169 S2168 1.613 . S
N2169 C2172 1.350 . S
N2170 S2168 1.610 . S
N2170 C2171 1.351 . S
C2171 C2165 1.428 . S
C2171 N2170 1.351 . S
C2171 C2172 1.434 . S
C2172 C2163 1.429 . S
C2172 N2169 1.350 . S
C2172 C2171 1.434 . S
C2173 C2174 1.369 . S
C2173 C2175 1.419 . S
C2173 H2177 0.930 . S
C2174 C2173 1.369 . S
C2174 C2183 1.429 . S
C2175 C2173 1.419 . S
C2175 C2176 1.363 . S
C2175 H2178 0.929 . S
C2176 C2175 1.363 . S
C2176 C2182 1.428 . S
H2177 C2173 0.930 . S
H2178 C2175 0.929 . S
S2179 N2180 1.613 . S
S2179 N2181 1.610 . S
N2180 S2179 1.613 . S
N2180 C2183 1.350 . S
N2181 S2179 1.610 . S
N2181 C2182 1.351 . S
C2182 C2176 1.428 . S
C2182 N2181 1.351 . S
C2182 C2183 1.434 . S
C2183 C2174 1.429 . S
C2183 N2180 1.350 . S
C2183 C2182 1.434 . S
C2184 C2185 1.369 . S
C2184 C2186 1.419 . S
C2184 H2188 0.930 . S
C2185 C2184 1.369 . S
C2185 C2194 1.429 . S
C2186 C2184 1.419 . S
C2186 C2187 1.363 . S
C2186 H2189 0.929 . S
C2187 C2186 1.363 . S
C2187 C2193 1.428 . S
H2188 C2184 0.930 . S
H2189 C2186 0.929 . S
S2190 N2191 1.613 . S
S2190 N2192 1.610 . S
N2191 S2190 1.613 . S
N2191 C2194 1.350 . S
N2192 S2190 1.610 . S
N2192 C2193 1.351 . S
C2193 C2187 1.428 . S
C2193 N2192 1.351 . S
C2193 C2194 1.434 . S
C2194 C2185 1.429 . S
C2194 N2191 1.350 . S
C2194 C2193 1.434 . S
C2195 C2196 1.369 . S
C2195 C2197 1.419 . S
C2195 H2199 0.930 . S
C2196 C2195 1.369 . S
C2196 C2205 1.429 . S
C2197 C2195 1.419 . S
C2197 C2198 1.363 . S
C2197 H2200 0.929 . S
C2198 C2197 1.363 . S
C2198 C2204 1.428 . S
H2199 C2195 0.930 . S
H2200 C2197 0.929 . S
S2201 N2202 1.613 . S
S2201 N2203 1.610 . S
N2202 S2201 1.613 . S
N2202 C2205 1.350 . S
N2203 S2201 1.610 . S
N2203 C2204 1.351 . S
C2204 C2198 1.428 . S
C2204 N2203 1.351 . S
C2204 C2205 1.434 . S
C2205 C2196 1.429 . S
C2205 N2202 1.350 . S
C2205 C2204 1.434 . S
C2206 C2207 1.369 . S
C2206 C2208 1.419 . S
C2206 H2210 0.930 . S
C2207 C2206 1.369 . S
C2207 C2216 1.429 . S
C2208 C2206 1.419 . S
C2208 C2209 1.363 . S
C2208 H2211 0.929 . S
C2209 C2208 1.363 . S
C2209 C2215 1.428 . S
H2210 C2206 0.930 . S
H2211 C2208 0.929 . S
S2212 N2213 1.613 . S
S2212 N2214 1.610 . S
N2213 S2212 1.613 . S
N2213 C2216 1.350 . S
N2214 S2212 1.610 . S
N2214 C2215 1.351 . S
C2215 C2209 1.428 . S
C2215 N2214 1.351 . S
C2215 C2216 1.434 . S
C2216 C2207 1.429 . S
C2216 N2213 1.350 . S
C2216 C2215 1.434 . S
C2217 C2218 1.369 . S
C2217 C2219 1.419 . S
C2217 H2221 0.930 . S
C2218 C2217 1.369 . S
C2218 C2227 1.429 . S
C2219 C2217 1.419 . S
C2219 C2220 1.363 . S
C2219 H2222 0.929 . S
C2220 C2219 1.363 . S
C2220 C2226 1.428 . S
H2221 C2217 0.930 . S
H2222 C2219 0.929 . S
S2223 N2224 1.613 . S
S2223 N2225 1.610 . S
N2224 S2223 1.613 . S
N2224 C2227 1.350 . S
N2225 S2223 1.610 . S
N2225 C2226 1.351 . S
C2226 C2220 1.428 . S
C2226 N2225 1.351 . S
C2226 C2227 1.434 . S
C2227 C2218 1.429 . S
C2227 N2224 1.350 . S
C2227 C2226 1.434 . S
C2228 C2229 1.369 . S
C2228 C2230 1.419 . S
C2228 H2232 0.930 . S
C2229 C2228 1.369 . S
C2229 C2238 1.429 . S
C2230 C2228 1.419 . S
C2230 C2231 1.363 . S
C2230 H2233 0.929 . S
C2231 C2230 1.363 . S
C2231 C2237 1.428 . S
H2232 C2228 0.930 . S
H2233 C2230 0.929 . S
S2234 N2235 1.613 . S
S2234 N2236 1.610 . S
N2235 S2234 1.613 . S
N2235 C2238 1.350 . S
N2236 S2234 1.610 . S
N2236 C2237 1.351 . S
C2237 C2231 1.428 . S
C2237 N2236 1.351 . S
C2237 C2238 1.434 . S
C2238 C2229 1.429 . S
C2238 N2235 1.350 . S
C2238 C2237 1.434 . S
C2239 C2240 1.369 . S
C2239 C2241 1.419 . S
C2239 H2243 0.930 . S
C2240 C2239 1.369 . S
C2240 C2249 1.429 . S
C2241 C2239 1.419 . S
C2241 C2242 1.363 . S
C2241 H2244 0.929 . S
C2242 C2241 1.363 . S
C2242 C2248 1.428 . S
H2243 C2239 0.930 . S
H2244 C2241 0.929 . S
S2245 N2246 1.613 . S
S2245 N2247 1.610 . S
N2246 S2245 1.613 . S
N2246 C2249 1.350 . S
N2247 S2245 1.610 . S
N2247 C2248 1.351 . S
C2248 C2242 1.428 . S
C2248 N2247 1.351 . S
C2248 C2249 1.434 . S
C2249 C2240 1.429 . S
C2249 N2246 1.350 . S
C2249 C2248 1.434 . S
C2250 C2251 1.369 . S
C2250 C2252 1.419 . S
C2250 H2254 0.930 . S
C2251 C2250 1.369 . S
C2251 C2260 1.429 . S
C2252 C2250 1.419 . S
C2252 C2253 1.363 . S
C2252 H2255 0.929 . S
C2253 C2252 1.363 . S
C2253 C2259 1.428 . S
H2254 C2250 0.930 . S
H2255 C2252 0.929 . S
S2256 N2257 1.613 . S
S2256 N2258 1.610 . S
N2257 S2256 1.613 . S
N2257 C2260 1.350 . S
N2258 S2256 1.610 . S
N2258 C2259 1.351 . S
C2259 C2253 1.428 . S
C2259 N2258 1.351 . S
C2259 C2260 1.434 . S
C2260 C2251 1.429 . S
C2260 N2257 1.350 . S
C2260 C2259 1.434 . S
C2261 C2262 1.369 . S
C2261 C2263 1.419 . S
C2261 H2265 0.930 . S
C2262 C2261 1.369 . S
C2262 C2271 1.429 . S
C2263 C2261 1.419 . S
C2263 C2264 1.363 . S
C2263 H2266 0.929 . S
C2264 C2263 1.363 . S
C2264 C2270 1.428 . S
H2265 C2261 0.930 . S
H2266 C2263 0.929 . S
S2267 N2268 1.613 . S
S2267 N2269 1.610 . S
N2268 S2267 1.613 . S
N2268 C2271 1.350 . S
N2269 S2267 1.610 . S
N2269 C2270 1.351 . S
C2270 C2264 1.428 . S
C2270 N2269 1.351 . S
C2270 C2271 1.434 . S
C2271 C2262 1.429 . S
C2271 N2268 1.350 . S
C2271 C2270 1.434 . S
C2272 C2273 1.369 . S
C2272 C2274 1.419 . S
C2272 H2276 0.930 . S
C2273 C2272 1.369 . S
C2273 C2282 1.429 . S
C2274 C2272 1.419 . S
C2274 C2275 1.363 . S
C2274 H2277 0.929 . S
C2275 C2274 1.363 . S
C2275 C2281 1.428 . S
H2276 C2272 0.930 . S
H2277 C2274 0.929 . S
S2278 N2279 1.613 . S
S2278 N2280 1.610 . S
N2279 S2278 1.613 . S
N2279 C2282 1.350 . S
N2280 S2278 1.610 . S
N2280 C2281 1.351 . S
C2281 C2275 1.428 . S
C2281 N2280 1.351 . S
C2281 C2282 1.434 . S
C2282 C2273 1.429 . S
C2282 N2279 1.350 . S
C2282 C2281 1.434 . S
C2283 C2284 1.369 . S
C2283 C2285 1.419 . S
C2283 H2287 0.930 . S
C2284 C2283 1.369 . S
C2284 C2293 1.429 . S
C2285 C2283 1.419 . S
C2285 C2286 1.363 . S
C2285 H2288 0.929 . S
C2286 C2285 1.363 . S
C2286 C2292 1.428 . S
H2287 C2283 0.930 . S
H2288 C2285 0.929 . S
S2289 N2290 1.613 . S
S2289 N2291 1.610 . S
N2290 S2289 1.613 . S
N2290 C2293 1.350 . S
N2291 S2289 1.610 . S
N2291 C2292 1.351 . S
C2292 C2286 1.428 . S
C2292 N2291 1.351 . S
C2292 C2293 1.434 . S
C2293 C2284 1.429 . S
C2293 N2290 1.350 . S
C2293 C2292 1.434 . S
C2294 C2295 1.369 . S
C2294 C2296 1.419 . S
C2294 H2298 0.930 . S
C2295 C2294 1.369 . S
C2295 C2304 1.429 . S
C2296 C2294 1.419 . S
C2296 C2297 1.363 . S
C2296 H2299 0.929 . S
C2297 C2296 1.363 . S
C2297 C2303 1.428 . S
H2298 C2294 0.930 . S
H2299 C2296 0.929 . S
S2300 N2301 1.613 . S
S2300 N2302 1.610 . S
N2301 S2300 1.613 . S
N2301 C2304 1.350 . S
N2302 S2300 1.610 . S
N2302 C2303 1.351 . S
C2303 C2297 1.428 . S
C2303 N2302 1.351 . S
C2303 C2304 1.434 . S
C2304 C2295 1.429 . S
C2304 N2301 1.350 . S
C2304 C2303 1.434 . S
C2305 C2306 1.369 . S
C2305 C2307 1.419 . S
C2305 H2309 0.930 . S
C2306 C2305 1.369 . S
C2306 C2315 1.429 . S
C2307 C2305 1.419 . S
C2307 C2308 1.363 . S
C2307 H2310 0.929 . S
C2308 C2307 1.363 . S
C2308 C2314 1.428 . S
H2309 C2305 0.930 . S
H2310 C2307 0.929 . S
S2311 N2312 1.613 . S
S2311 N2313 1.610 . S
N2312 S2311 1.613 . S
N2312 C2315 1.350 . S
N2313 S2311 1.610 . S
N2313 C2314 1.351 . S
C2314 C2308 1.428 . S
C2314 N2313 1.351 . S
C2314 C2315 1.434 . S
C2315 C2306 1.429 . S
C2315 N2312 1.350 . S
C2315 C2314 1.434 . S
C2316 C2317 1.369 . S
C2316 C2318 1.419 . S
C2316 H2320 0.930 . S
C2317 C2316 1.369 . S
C2317 C2326 1.429 . S
C2318 C2316 1.419 . S
C2318 C2319 1.363 . S
C2318 H2321 0.929 . S
C2319 C2318 1.363 . S
C2319 C2325 1.428 . S
H2320 C2316 0.930 . S
H2321 C2318 0.929 . S
S2322 N2323 1.613 . S
S2322 N2324 1.610 . S
N2323 S2322 1.613 . S
N2323 C2326 1.350 . S
N2324 S2322 1.610 . S
N2324 C2325 1.351 . S
C2325 C2319 1.428 . S
C2325 N2324 1.351 . S
C2325 C2326 1.434 . S
C2326 C2317 1.429 . S
C2326 N2323 1.350 . S
C2326 C2325 1.434 . S
C2327 C2328 1.369 . S
C2327 C2329 1.419 . S
C2327 H2331 0.930 . S
C2328 C2327 1.369 . S
C2328 C2337 1.429 . S
C2329 C2327 1.419 . S
C2329 C2330 1.363 . S
C2329 H2332 0.929 . S
C2330 C2329 1.363 . S
C2330 C2336 1.428 . S
H2331 C2327 0.930 . S
H2332 C2329 0.929 . S
S2333 N2334 1.613 . S
S2333 N2335 1.610 . S
N2334 S2333 1.613 . S
N2334 C2337 1.350 . S
N2335 S2333 1.610 . S
N2335 C2336 1.351 . S
C2336 C2330 1.428 . S
C2336 N2335 1.351 . S
C2336 C2337 1.434 . S
C2337 C2328 1.429 . S
C2337 N2334 1.350 . S
C2337 C2336 1.434 . S
C2338 C2339 1.369 . S
C2338 C2340 1.419 . S
C2338 H2342 0.930 . S
C2339 C2338 1.369 . S
C2339 C2348 1.429 . S
C2340 C2338 1.419 . S
C2340 C2341 1.363 . S
C2340 H2343 0.929 . S
C2341 C2340 1.363 . S
C2341 C2347 1.428 . S
H2342 C2338 0.930 . S
H2343 C2340 0.929 . S
S2344 N2345 1.613 . S
S2344 N2346 1.610 . S
N2345 S2344 1.613 . S
N2345 C2348 1.350 . S
N2346 S2344 1.610 . S
N2346 C2347 1.351 . S
C2347 C2341 1.428 . S
C2347 N2346 1.351 . S
C2347 C2348 1.434 . S
C2348 C2339 1.429 . S
C2348 N2345 1.350 . S
C2348 C2347 1.434 . S
C2349 C2350 1.369 . S
C2349 C2351 1.419 . S
C2349 H2353 0.930 . S
C2350 C2349 1.369 . S
C2350 C2359 1.429 . S
C2351 C2349 1.419 . S
C2351 C2352 1.363 . S
C2351 H2354 0.929 . S
C2352 C2351 1.363 . S
C2352 C2358 1.428 . S
H2353 C2349 0.930 . S
H2354 C2351 0.929 . S
S2355 N2356 1.613 . S
S2355 N2357 1.610 . S
N2356 S2355 1.613 . S
N2356 C2359 1.350 . S
N2357 S2355 1.610 . S
N2357 C2358 1.351 . S
C2358 C2352 1.428 . S
C2358 N2357 1.351 . S
C2358 C2359 1.434 . S
C2359 C2350 1.429 . S
C2359 N2356 1.350 . S
C2359 C2358 1.434 . S
C2360 C2361 1.369 . S
C2360 C2362 1.419 . S
C2360 H2364 0.930 . S
C2361 C2360 1.369 . S
C2361 C2370 1.429 . S
C2362 C2360 1.419 . S
C2362 C2363 1.363 . S
C2362 H2365 0.929 . S
C2363 C2362 1.363 . S
C2363 C2369 1.428 . S
H2364 C2360 0.930 . S
H2365 C2362 0.929 . S
S2366 N2367 1.613 . S
S2366 N2368 1.610 . S
N2367 S2366 1.613 . S
N2367 C2370 1.350 . S
N2368 S2366 1.610 . S
N2368 C2369 1.351 . S
C2369 C2363 1.428 . S
C2369 N2368 1.351 . S
C2369 C2370 1.434 . S
C2370 C2361 1.429 . S
C2370 N2367 1.350 . S
C2370 C2369 1.434 . S
C2371 C2372 1.369 . S
C2371 C2373 1.419 . S
C2371 H2375 0.930 . S
C2372 C2371 1.369 . S
C2372 C2381 1.429 . S
C2373 C2371 1.419 . S
C2373 C2374 1.363 . S
C2373 H2376 0.929 . S
C2374 C2373 1.363 . S
C2374 C2380 1.428 . S
H2375 C2371 0.930 . S
H2376 C2373 0.929 . S
S2377 N2378 1.613 . S
S2377 N2379 1.610 . S
N2378 S2377 1.613 . S
N2378 C2381 1.350 . S
N2379 S2377 1.610 . S
N2379 C2380 1.351 . S
C2380 C2374 1.428 . S
C2380 N2379 1.351 . S
C2380 C2381 1.434 . S
C2381 C2372 1.429 . S
C2381 N2378 1.350 . S
C2381 C2380 1.434 . S
C2382 C2383 1.369 . S
C2382 C2384 1.419 . S
C2382 H2386 0.930 . S
C2383 C2382 1.369 . S
C2383 C2392 1.429 . S
C2384 C2382 1.419 . S
C2384 C2385 1.363 . S
C2384 H2387 0.929 . S
C2385 C2384 1.363 . S
C2385 C2391 1.428 . S
H2386 C2382 0.930 . S
H2387 C2384 0.929 . S
S2388 N2389 1.613 . S
S2388 N2390 1.610 . S
N2389 S2388 1.613 . S
N2389 C2392 1.350 . S
N2390 S2388 1.610 . S
N2390 C2391 1.351 . S
C2391 C2385 1.428 . S
C2391 N2390 1.351 . S
C2391 C2392 1.434 . S
C2392 C2383 1.429 . S
C2392 N2389 1.350 . S
C2392 C2391 1.434 . S
C2393 C2394 1.369 . S
C2393 C2395 1.419 . S
C2393 H2397 0.930 . S
C2394 C2393 1.369 . S
C2394 C2403 1.429 . S
C2395 C2393 1.419 . S
C2395 C2396 1.363 . S
C2395 H2398 0.929 . S
C2396 C2395 1.363 . S
C2396 C2402 1.428 . S
H2397 C2393 0.930 . S
H2398 C2395 0.929 . S
S2399 N2400 1.613 . S
S2399 N2401 1.610 . S
N2400 S2399 1.613 . S
N2400 C2403 1.350 . S
N2401 S2399 1.610 . S
N2401 C2402 1.351 . S
C2402 C2396 1.428 . S
C2402 N2401 1.351 . S
C2402 C2403 1.434 . S
C2403 C2394 1.429 . S
C2403 N2400 1.350 . S
C2403 C2402 1.434 . S
C2404 C2405 1.369 . S
C2404 C2406 1.419 . S
C2404 H2408 0.930 . S
C2405 C2404 1.369 . S
C2405 C2414 1.429 . S
C2406 C2404 1.419 . S
C2406 C2407 1.363 . S
C2406 H2409 0.929 . S
C2407 C2406 1.363 . S
C2407 C2413 1.428 . S
H2408 C2404 0.930 . S
H2409 C2406 0.929 . S
S2410 N2411 1.613 . S
S2410 N2412 1.610 . S
N2411 S2410 1.613 . S
N2411 C2414 1.350 . S
N2412 S2410 1.610 . S
N2412 C2413 1.351 . S
C2413 C2407 1.428 . S
C2413 N2412 1.351 . S
C2413 C2414 1.434 . S
C2414 C2405 1.429 . S
C2414 N2411 1.350 . S
C2414 C2413 1.434 . S
C2415 C2416 1.369 . S
C2415 C2417 1.419 . S
C2415 H2419 0.930 . S
C2416 C2415 1.369 . S
C2416 C2425 1.429 . S
C2417 C2415 1.419 . S
C2417 C2418 1.363 . S
C2417 H2420 0.929 . S
C2418 C2417 1.363 . S
C2418 C2424 1.428 . S
H2419 C2415 0.930 . S
H2420 C2417 0.929 . S
S2421 N2422 1.613 . S
S2421 N2423 1.610 . S
N2422 S2421 1.613 . S
N2422 C2425 1.350 . S
N2423 S2421 1.610 . S
N2423 C2424 1.351 . S
C2424 C2418 1.428 . S
C2424 N2423 1.351 . S
C2424 C2425 1.434 . S
C2425 C2416 1.429 . S
C2425 N2422 1.350 . S
C2425 C2424 1.434 . S
C2426 C2427 1.369 . S
C2426 C2428 1.419 . S
C2426 H2430 0.930 . S
C2427 C2426 1.369 . S
C2427 C2436 1.429 . S
C2428 C2426 1.419 . S
C2428 C2429 1.363 . S
C2428 H2431 0.929 . S
C2429 C2428 1.363 . S
C2429 C2435 1.428 . S
H2430 C2426 0.930 . S
H2431 C2428 0.929 . S
S2432 N2433 1.613 . S
S2432 N2434 1.610 . S
N2433 S2432 1.613 . S
N2433 C2436 1.350 . S
N2434 S2432 1.610 . S
N2434 C2435 1.351 . S
C2435 C2429 1.428 . S
C2435 N2434 1.351 . S
C2435 C2436 1.434 . S
C2436 C2427 1.429 . S
C2436 N2433 1.350 . S
C2436 C2435 1.434 . S
C2437 C2438 1.369 . S
C2437 C2439 1.419 . S
C2437 H2441 0.930 . S
C2438 C2437 1.369 . S
C2438 C2447 1.429 . S
C2439 C2437 1.419 . S
C2439 C2440 1.363 . S
C2439 H2442 0.929 . S
C2440 C2439 1.363 . S
C2440 C2446 1.428 . S
H2441 C2437 0.930 . S
H2442 C2439 0.929 . S
S2443 N2444 1.613 . S
S2443 N2445 1.610 . S
N2444 S2443 1.613 . S
N2444 C2447 1.350 . S
N2445 S2443 1.610 . S
N2445 C2446 1.351 . S
C2446 C2440 1.428 . S
C2446 N2445 1.351 . S
C2446 C2447 1.434 . S
C2447 C2438 1.429 . S
C2447 N2444 1.350 . S
C2447 C2446 1.434 . S
C2448 C2449 1.369 . S
C2448 C2450 1.419 . S
C2448 H2452 0.930 . S
C2449 C2448 1.369 . S
C2449 C2458 1.429 . S
C2450 C2448 1.419 . S
C2450 C2451 1.363 . S
C2450 H2453 0.929 . S
C2451 C2450 1.363 . S
C2451 C2457 1.428 . S
H2452 C2448 0.930 . S
H2453 C2450 0.929 . S
S2454 N2455 1.613 . S
S2454 N2456 1.610 . S
N2455 S2454 1.613 . S
N2455 C2458 1.350 . S
N2456 S2454 1.610 . S
N2456 C2457 1.351 . S
C2457 C2451 1.428 . S
C2457 N2456 1.351 . S
C2457 C2458 1.434 . S
C2458 C2449 1.429 . S
C2458 N2455 1.350 . S
C2458 C2457 1.434 . S
C2459 C2460 1.369 . S
C2459 C2461 1.419 . S
C2459 H2463 0.930 . S
C2460 C2459 1.369 . S
C2460 C2469 1.429 . S
C2461 C2459 1.419 . S
C2461 C2462 1.363 . S
C2461 H2464 0.929 . S
C2462 C2461 1.363 . S
C2462 C2468 1.428 . S
H2463 C2459 0.930 . S
H2464 C2461 0.929 . S
S2465 N2466 1.613 . S
S2465 N2467 1.610 . S
N2466 S2465 1.613 . S
N2466 C2469 1.350 . S
N2467 S2465 1.610 . S
N2467 C2468 1.351 . S
C2468 C2462 1.428 . S
C2468 N2467 1.351 . S
C2468 C2469 1.434 . S
C2469 C2460 1.429 . S
C2469 N2466 1.350 . S
C2469 C2468 1.434 . S
C2470 C2471 1.369 . S
C2470 C2472 1.419 . S
C2470 H2474 0.930 . S
C2471 C2470 1.369 . S
C2471 C2480 1.429 . S
C2472 C2470 1.419 . S
C2472 C2473 1.363 . S
C2472 H2475 0.929 . S
C2473 C2472 1.363 . S
C2473 C2479 1.428 . S
H2474 C2470 0.930 . S
H2475 C2472 0.929 . S
S2476 N2477 1.613 . S
S2476 N2478 1.610 . S
N2477 S2476 1.613 . S
N2477 C2480 1.350 . S
N2478 S2476 1.610 . S
N2478 C2479 1.351 . S
C2479 C2473 1.428 . S
C2479 N2478 1.351 . S
C2479 C2480 1.434 . S
C2480 C2471 1.429 . S
C2480 N2477 1.350 . S
C2480 C2479 1.434 . S
C2481 C2482 1.369 . S
C2481 C2483 1.419 . S
C2481 H2485 0.930 . S
C2482 C2481 1.369 . S
C2482 C2491 1.429 . S
C2483 C2481 1.419 . S
C2483 C2484 1.363 . S
C2483 H2486 0.929 . S
C2484 C2483 1.363 . S
C2484 C2490 1.428 . S
H2485 C2481 0.930 . S
H2486 C2483 0.929 . S
S2487 N2488 1.613 . S
S2487 N2489 1.610 . S
N2488 S2487 1.613 . S
N2488 C2491 1.350 . S
N2489 S2487 1.610 . S
N2489 C2490 1.351 . S
C2490 C2484 1.428 . S
C2490 N2489 1.351 . S
C2490 C2491 1.434 . S
C2491 C2482 1.429 . S
C2491 N2488 1.350 . S
C2491 C2490 1.434 . S
C2492 C2493 1.369 . S
C2492 C2494 1.419 . S
C2492 H2496 0.930 . S
C2493 C2492 1.369 . S
C2493 C2502 1.429 . S
C2494 C2492 1.419 . S
C2494 C2495 1.363 . S
C2494 H2497 0.929 . S
C2495 C2494 1.363 . S
C2495 C2501 1.428 . S
H2496 C2492 0.930 . S
H2497 C2494 0.929 . S
S2498 N2499 1.613 . S
S2498 N2500 1.610 . S
N2499 S2498 1.613 . S
N2499 C2502 1.350 . S
N2500 S2498 1.610 . S
N2500 C2501 1.351 . S
C2501 C2495 1.428 . S
C2501 N2500 1.351 . S
C2501 C2502 1.434 . S
C2502 C2493 1.429 . S
C2502 N2499 1.350 . S
C2502 C2501 1.434 . S
C2503 C2504 1.369 . S
C2503 C2505 1.419 . S
C2503 H2507 0.930 . S
C2504 C2503 1.369 . S
C2504 C2513 1.429 . S
C2505 C2503 1.419 . S
C2505 C2506 1.363 . S
C2505 H2508 0.929 . S
C2506 C2505 1.363 . S
C2506 C2512 1.428 . S
H2507 C2503 0.930 . S
H2508 C2505 0.929 . S
S2509 N2510 1.613 . S
S2509 N2511 1.610 . S
N2510 S2509 1.613 . S
N2510 C2513 1.350 . S
N2511 S2509 1.610 . S
N2511 C2512 1.351 . S
C2512 C2506 1.428 . S
C2512 N2511 1.351 . S
C2512 C2513 1.434 . S
C2513 C2504 1.429 . S
C2513 N2510 1.350 . S
C2513 C2512 1.434 . S
C2514 C2515 1.369 . S
C2514 C2516 1.419 . S
C2514 H2518 0.930 . S
C2515 C2514 1.369 . S
C2515 C2524 1.429 . S
C2516 C2514 1.419 . S
C2516 C2517 1.363 . S
C2516 H2519 0.929 . S
C2517 C2516 1.363 . S
C2517 C2523 1.428 . S
H2518 C2514 0.930 . S
H2519 C2516 0.929 . S
S2520 N2521 1.613 . S
S2520 N2522 1.610 . S
N2521 S2520 1.613 . S
N2521 C2524 1.350 . S
N2522 S2520 1.610 . S
N2522 C2523 1.351 . S
C2523 C2517 1.428 . S
C2523 N2522 1.351 . S
C2523 C2524 1.434 . S
C2524 C2515 1.429 . S
C2524 N2521 1.350 . S
C2524 C2523 1.434 . S
C2525 C2526 1.369 . S
C2525 C2527 1.419 . S
C2525 H2529 0.930 . S
C2526 C2525 1.369 . S
C2526 C2535 1.429 . S
C2527 C2525 1.419 . S
C2527 C2528 1.363 . S
C2527 H2530 0.929 . S
C2528 C2527 1.363 . S
C2528 C2534 1.428 . S
H2529 C2525 0.930 . S
H2530 C2527 0.929 . S
S2531 N2532 1.613 . S
S2531 N2533 1.610 . S
N2532 S2531 1.613 . S
N2532 C2535 1.350 . S
N2533 S2531 1.610 . S
N2533 C2534 1.351 . S
C2534 C2528 1.428 . S
C2534 N2533 1.351 . S
C2534 C2535 1.434 . S
C2535 C2526 1.429 . S
C2535 N2532 1.350 . S
C2535 C2534 1.434 . S
C2536 C2537 1.369 . S
C2536 C2538 1.419 . S
C2536 H2540 0.930 . S
C2537 C2536 1.369 . S
C2537 C2546 1.429 . S
C2538 C2536 1.419 . S
C2538 C2539 1.363 . S
C2538 H2541 0.929 . S
C2539 C2538 1.363 . S
C2539 C2545 1.428 . S
H2540 C2536 0.930 . S
H2541 C2538 0.929 . S
S2542 N2543 1.613 . S
S2542 N2544 1.610 . S
N2543 S2542 1.613 . S
N2543 C2546 1.350 . S
N2544 S2542 1.610 . S
N2544 C2545 1.351 . S
C2545 C2539 1.428 . S
C2545 N2544 1.351 . S
C2545 C2546 1.434 . S
C2546 C2537 1.429 . S
C2546 N2543 1.350 . S
C2546 C2545 1.434 . S
C2547 C2548 1.369 . S
C2547 C2549 1.419 . S
C2547 H2551 0.930 . S
C2548 C2547 1.369 . S
C2548 C2557 1.429 . S
C2549 C2547 1.419 . S
C2549 C2550 1.363 . S
C2549 H2552 0.929 . S
C2550 C2549 1.363 . S
C2550 C2556 1.428 . S
H2551 C2547 0.930 . S
H2552 C2549 0.929 . S
S2553 N2554 1.613 . S
S2553 N2555 1.610 . S
N2554 S2553 1.613 . S
N2554 C2557 1.350 . S
N2555 S2553 1.610 . S
N2555 C2556 1.351 . S
C2556 C2550 1.428 . S
C2556 N2555 1.351 . S
C2556 C2557 1.434 . S
C2557 C2548 1.429 . S
C2557 N2554 1.350 . S
C2557 C2556 1.434 . S
C2558 C2559 1.369 . S
C2558 C2560 1.419 . S
C2558 H2562 0.930 . S
C2559 C2558 1.369 . S
C2559 C2568 1.429 . S
C2560 C2558 1.419 . S
C2560 C2561 1.363 . S
C2560 H2563 0.929 . S
C2561 C2560 1.363 . S
C2561 C2567 1.428 . S
H2562 C2558 0.930 . S
H2563 C2560 0.929 . S
S2564 N2565 1.613 . S
S2564 N2566 1.610 . S
N2565 S2564 1.613 . S
N2565 C2568 1.350 . S
N2566 S2564 1.610 . S
N2566 C2567 1.351 . S
C2567 C2561 1.428 . S
C2567 N2566 1.351 . S
C2567 C2568 1.434 . S
C2568 C2559 1.429 . S
C2568 N2565 1.350 . S
C2568 C2567 1.434 . S
C2569 C2570 1.369 . S
C2569 C2571 1.419 . S
C2569 H2573 0.930 . S
C2570 C2569 1.369 . S
C2570 C2579 1.429 . S
C2571 C2569 1.419 . S
C2571 C2572 1.363 . S
C2571 H2574 0.929 . S
C2572 C2571 1.363 . S
C2572 C2578 1.428 . S
H2573 C2569 0.930 . S
H2574 C2571 0.929 . S
S2575 N2576 1.613 . S
S2575 N2577 1.610 . S
N2576 S2575 1.613 . S
N2576 C2579 1.350 . S
N2577 S2575 1.610 . S
N2577 C2578 1.351 . S
C2578 C2572 1.428 . S
C2578 N2577 1.351 . S
C2578 C2579 1.434 . S
C2579 C2570 1.429 . S
C2579 N2576 1.350 . S
C2579 C2578 1.434 . S
C2580 C2581 1.369 . S
C2580 C2582 1.419 . S
C2580 H2584 0.930 . S
C2581 C2580 1.369 . S
C2581 C2590 1.429 . S
C2582 C2580 1.419 . S
C2582 C2583 1.363 . S
C2582 H2585 0.929 . S
C2583 C2582 1.363 . S
C2583 C2589 1.428 . S
H2584 C2580 0.930 . S
H2585 C2582 0.929 . S
S2586 N2587 1.613 . S
S2586 N2588 1.610 . S
N2587 S2586 1.613 . S
N2587 C2590 1.350 . S
N2588 S2586 1.610 . S
N2588 C2589 1.351 . S
C2589 C2583 1.428 . S
C2589 N2588 1.351 . S
C2589 C2590 1.434 . S
C2590 C2581 1.429 . S
C2590 N2587 1.350 . S
C2590 C2589 1.434 . S
C2591 C2592 1.369 . S
C2591 C2593 1.419 . S
C2591 H2595 0.930 . S
C2592 C2591 1.369 . S
C2592 C2601 1.429 . S
C2593 C2591 1.419 . S
C2593 C2594 1.363 . S
C2593 H2596 0.929 . S
C2594 C2593 1.363 . S
C2594 C2600 1.428 . S
H2595 C2591 0.930 . S
H2596 C2593 0.929 . S
S2597 N2598 1.613 . S
S2597 N2599 1.610 . S
N2598 S2597 1.613 . S
N2598 C2601 1.350 . S
N2599 S2597 1.610 . S
N2599 C2600 1.351 . S
C2600 C2594 1.428 . S
C2600 N2599 1.351 . S
C2600 C2601 1.434 . S
C2601 C2592 1.429 . S
C2601 N2598 1.350 . S
C2601 C2600 1.434 . S
C2602 C2603 1.369 . S
C2602 C2604 1.419 . S
C2602 H2606 0.930 . S
C2603 C2602 1.369 . S
C2603 C2612 1.429 . S
C2604 C2602 1.419 . S
C2604 C2605 1.363 . S
C2604 H2607 0.929 . S
C2605 C2604 1.363 . S
C2605 C2611 1.428 . S
H2606 C2602 0.930 . S
H2607 C2604 0.929 . S
S2608 N2609 1.613 . S
S2608 N2610 1.610 . S
N2609 S2608 1.613 . S
N2609 C2612 1.350 . S
N2610 S2608 1.610 . S
N2610 C2611 1.351 . S
C2611 C2605 1.428 . S
C2611 N2610 1.351 . S
C2611 C2612 1.434 . S
C2612 C2603 1.429 . S
C2612 N2609 1.350 . S
C2612 C2611 1.434 . S
C2613 C2614 1.369 . S
C2613 C2615 1.419 . S
C2613 H2617 0.930 . S
C2614 C2613 1.369 . S
C2614 C2623 1.429 . S
C2615 C2613 1.419 . S
C2615 C2616 1.363 . S
C2615 H2618 0.929 . S
C2616 C2615 1.363 . S
C2616 C2622 1.428 . S
H2617 C2613 0.930 . S
H2618 C2615 0.929 . S
S2619 N2620 1.613 . S
S2619 N2621 1.610 . S
N2620 S2619 1.613 . S
N2620 C2623 1.350 . S
N2621 S2619 1.610 . S
N2621 C2622 1.351 . S
C2622 C2616 1.428 . S
C2622 N2621 1.351 . S
C2622 C2623 1.434 . S
C2623 C2614 1.429 . S
C2623 N2620 1.350 . S
C2623 C2622 1.434 . S
C2624 C2625 1.369 . S
C2624 C2626 1.419 . S
C2624 H2628 0.930 . S
C2625 C2624 1.369 . S
C2625 C2634 1.429 . S
C2626 C2624 1.419 . S
C2626 C2627 1.363 . S
C2626 H2629 0.929 . S
C2627 C2626 1.363 . S
C2627 C2633 1.428 . S
H2628 C2624 0.930 . S
H2629 C2626 0.929 . S
S2630 N2631 1.613 . S
S2630 N2632 1.610 . S
N2631 S2630 1.613 . S
N2631 C2634 1.350 . S
N2632 S2630 1.610 . S
N2632 C2633 1.351 . S
C2633 C2627 1.428 . S
C2633 N2632 1.351 . S
C2633 C2634 1.434 . S
C2634 C2625 1.429 . S
C2634 N2631 1.350 . S
C2634 C2633 1.434 . S
C2635 C2636 1.369 . S
C2635 C2637 1.419 . S
C2635 H2639 0.930 . S
C2636 C2635 1.369 . S
C2636 C2645 1.429 . S
C2637 C2635 1.419 . S
C2637 C2638 1.363 . S
C2637 H2640 0.929 . S
C2638 C2637 1.363 . S
C2638 C2644 1.428 . S
H2639 C2635 0.930 . S
H2640 C2637 0.929 . S
S2641 N2642 1.613 . S
S2641 N2643 1.610 . S
N2642 S2641 1.613 . S
N2642 C2645 1.350 . S
N2643 S2641 1.610 . S
N2643 C2644 1.351 . S
C2644 C2638 1.428 . S
C2644 N2643 1.351 . S
C2644 C2645 1.434 . S
C2645 C2636 1.429 . S
C2645 N2642 1.350 . S
C2645 C2644 1.434 . S
C2646 C2647 1.369 . S
C2646 C2648 1.419 . S
C2646 H2650 0.930 . S
C2647 C2646 1.369 . S
C2647 C2656 1.429 . S
C2648 C2646 1.419 . S
C2648 C2649 1.363 . S
C2648 H2651 0.929 . S
C2649 C2648 1.363 . S
C2649 C2655 1.428 . S
H2650 C2646 0.930 . S
H2651 C2648 0.929 . S
S2652 N2653 1.613 . S
S2652 N2654 1.610 . S
N2653 S2652 1.613 . S
N2653 C2656 1.350 . S
N2654 S2652 1.610 . S
N2654 C2655 1.351 . S
C2655 C2649 1.428 . S
C2655 N2654 1.351 . S
C2655 C2656 1.434 . S
C2656 C2647 1.429 . S
C2656 N2653 1.350 . S
C2656 C2655 1.434 . S
C2657 C2658 1.369 . S
C2657 C2659 1.419 . S
C2657 H2661 0.930 . S
C2658 C2657 1.369 . S
C2658 C2667 1.429 . S
C2659 C2657 1.419 . S
C2659 C2660 1.363 . S
C2659 H2662 0.929 . S
C2660 C2659 1.363 . S
C2660 C2666 1.428 . S
H2661 C2657 0.930 . S
H2662 C2659 0.929 . S
S2663 N2664 1.613 . S
S2663 N2665 1.610 . S
N2664 S2663 1.613 . S
N2664 C2667 1.350 . S
N2665 S2663 1.610 . S
N2665 C2666 1.351 . S
C2666 C2660 1.428 . S
C2666 N2665 1.351 . S
C2666 C2667 1.434 . S
C2667 C2658 1.429 . S
C2667 N2664 1.350 . S
C2667 C2666 1.434 . S
C2668 C2669 1.369 . S
C2668 C2670 1.419 . S
C2668 H2672 0.930 . S
C2669 C2668 1.369 . S
C2669 C2678 1.429 . S
C2670 C2668 1.419 . S
C2670 C2671 1.363 . S
C2670 H2673 0.929 . S
C2671 C2670 1.363 . S
C2671 C2677 1.428 . S
H2672 C2668 0.930 . S
H2673 C2670 0.929 . S
S2674 N2675 1.613 . S
S2674 N2676 1.610 . S
N2675 S2674 1.613 . S
N2675 C2678 1.350 . S
N2676 S2674 1.610 . S
N2676 C2677 1.351 . S
C2677 C2671 1.428 . S
C2677 N2676 1.351 . S
C2677 C2678 1.434 . S
C2678 C2669 1.429 . S
C2678 N2675 1.350 . S
C2678 C2677 1.434 . S
C2679 C2680 1.369 . S
C2679 C2681 1.419 . S
C2679 H2683 0.930 . S
C2680 C2679 1.369 . S
C2680 C2689 1.429 . S
C2681 C2679 1.419 . S
C2681 C2682 1.363 . S
C2681 H2684 0.929 . S
C2682 C2681 1.363 . S
C2682 C2688 1.428 . S
H2683 C2679 0.930 . S
H2684 C2681 0.929 . S
S2685 N2686 1.613 . S
S2685 N2687 1.610 . S
N2686 S2685 1.613 . S
N2686 C2689 1.350 . S
N2687 S2685 1.610 . S
N2687 C2688 1.351 . S
C2688 C2682 1.428 . S
C2688 N2687 1.351 . S
C2688 C2689 1.434 . S
C2689 C2680 1.429 . S
C2689 N2686 1.350 . S
C2689 C2688 1.434 . S
C2690 C2691 1.369 . S
C2690 C2692 1.419 . S
C2690 H2694 0.930 . S
C2691 C2690 1.369 . S
C2691 C2700 1.429 . S
C2692 C2690 1.419 . S
C2692 C2693 1.363 . S
C2692 H2695 0.929 . S
C2693 C2692 1.363 . S
C2693 C2699 1.428 . S
H2694 C2690 0.930 . S
H2695 C2692 0.929 . S
S2696 N2697 1.613 . S
S2696 N2698 1.610 . S
N2697 S2696 1.613 . S
N2697 C2700 1.350 . S
N2698 S2696 1.610 . S
N2698 C2699 1.351 . S
C2699 C2693 1.428 . S
C2699 N2698 1.351 . S
C2699 C2700 1.434 . S
C2700 C2691 1.429 . S
C2700 N2697 1.350 . S
C2700 C2699 1.434 . S
C2701 C2702 1.369 . S
C2701 C2703 1.419 . S
C2701 H2705 0.930 . S
C2702 C2701 1.369 . S
C2702 C2711 1.429 . S
C2703 C2701 1.419 . S
C2703 C2704 1.363 . S
C2703 H2706 0.929 . S
C2704 C2703 1.363 . S
C2704 C2710 1.428 . S
H2705 C2701 0.930 . S
H2706 C2703 0.929 . S
S2707 N2708 1.613 . S
S2707 N2709 1.610 . S
N2708 S2707 1.613 . S
N2708 C2711 1.350 . S
N2709 S2707 1.610 . S
N2709 C2710 1.351 . S
C2710 C2704 1.428 . S
C2710 N2709 1.351 . S
C2710 C2711 1.434 . S
C2711 C2702 1.429 . S
C2711 N2708 1.350 . S
C2711 C2710 1.434 . S
C2712 C2713 1.369 . S
C2712 C2714 1.419 . S
C2712 H2716 0.930 . S
C2713 C2712 1.369 . S
C2713 C2722 1.429 . S
C2714 C2712 1.419 . S
C2714 C2715 1.363 . S
C2714 H2717 0.929 . S
C2715 C2714 1.363 . S
C2715 C2721 1.428 . S
H2716 C2712 0.930 . S
H2717 C2714 0.929 . S
S2718 N2719 1.613 . S
S2718 N2720 1.610 . S
N2719 S2718 1.613 . S
N2719 C2722 1.350 . S
N2720 S2718 1.610 . S
N2720 C2721 1.351 . S
C2721 C2715 1.428 . S
C2721 N2720 1.351 . S
C2721 C2722 1.434 . S
C2722 C2713 1.429 . S
C2722 N2719 1.350 . S
C2722 C2721 1.434 . S
C2723 C2724 1.369 . S
C2723 C2725 1.419 . S
C2723 H2727 0.930 . S
C2724 C2723 1.369 . S
C2724 C2733 1.429 . S
C2725 C2723 1.419 . S
C2725 C2726 1.363 . S
C2725 H2728 0.929 . S
C2726 C2725 1.363 . S
C2726 C2732 1.428 . S
H2727 C2723 0.930 . S
H2728 C2725 0.929 . S
S2729 N2730 1.613 . S
S2729 N2731 1.610 . S
N2730 S2729 1.613 . S
N2730 C2733 1.350 . S
N2731 S2729 1.610 . S
N2731 C2732 1.351 . S
C2732 C2726 1.428 . S
C2732 N2731 1.351 . S
C2732 C2733 1.434 . S
C2733 C2724 1.429 . S
C2733 N2730 1.350 . S
C2733 C2732 1.434 . S
C2734 C2735 1.369 . S
C2734 C2736 1.419 . S
C2734 H2738 0.930 . S
C2735 C2734 1.369 . S
C2735 C2744 1.429 . S
C2736 C2734 1.419 . S
C2736 C2737 1.363 . S
C2736 H2739 0.929 . S
C2737 C2736 1.363 . S
C2737 C2743 1.428 . S
H2738 C2734 0.930 . S
H2739 C2736 0.929 . S
S2740 N2741 1.613 . S
S2740 N2742 1.610 . S
N2741 S2740 1.613 . S
N2741 C2744 1.350 . S
N2742 S2740 1.610 . S
N2742 C2743 1.351 . S
C2743 C2737 1.428 . S
C2743 N2742 1.351 . S
C2743 C2744 1.434 . S
C2744 C2735 1.429 . S
C2744 N2741 1.350 . S
C2744 C2743 1.434 . S
C2745 C2746 1.369 . S
C2745 C2747 1.419 . S
C2745 H2749 0.930 . S
C2746 C2745 1.369 . S
C2746 C2755 1.429 . S
C2747 C2745 1.419 . S
C2747 C2748 1.363 . S
C2747 H2750 0.929 . S
C2748 C2747 1.363 . S
C2748 C2754 1.428 . S
H2749 C2745 0.930 . S
H2750 C2747 0.929 . S
S2751 N2752 1.613 . S
S2751 N2753 1.610 . S
N2752 S2751 1.613 . S
N2752 C2755 1.350 . S
N2753 S2751 1.610 . S
N2753 C2754 1.351 . S
C2754 C2748 1.428 . S
C2754 N2753 1.351 . S
C2754 C2755 1.434 . S
C2755 C2746 1.429 . S
C2755 N2752 1.350 . S
C2755 C2754 1.434 . S
C2756 C2757 1.369 . S
C2756 C2758 1.419 . S
C2756 H2760 0.930 . S
C2757 C2756 1.369 . S
C2757 C2766 1.429 . S
C2758 C2756 1.419 . S
C2758 C2759 1.363 . S
C2758 H2761 0.929 . S
C2759 C2758 1.363 . S
C2759 C2765 1.428 . S
H2760 C2756 0.930 . S
H2761 C2758 0.929 . S
S2762 N2763 1.613 . S
S2762 N2764 1.610 . S
N2763 S2762 1.613 . S
N2763 C2766 1.350 . S
N2764 S2762 1.610 . S
N2764 C2765 1.351 . S
C2765 C2759 1.428 . S
C2765 N2764 1.351 . S
C2765 C2766 1.434 . S
C2766 C2757 1.429 . S
C2766 N2763 1.350 . S
C2766 C2765 1.434 . S
C2767 C2768 1.369 . S
C2767 C2769 1.419 . S
C2767 H2771 0.930 . S
C2768 C2767 1.369 . S
C2768 C2777 1.429 . S
C2769 C2767 1.419 . S
C2769 C2770 1.363 . S
C2769 H2772 0.929 . S
C2770 C2769 1.363 . S
C2770 C2776 1.428 . S
H2771 C2767 0.930 . S
H2772 C2769 0.929 . S
S2773 N2774 1.613 . S
S2773 N2775 1.610 . S
N2774 S2773 1.613 . S
N2774 C2777 1.350 . S
N2775 S2773 1.610 . S
N2775 C2776 1.351 . S
C2776 C2770 1.428 . S
C2776 N2775 1.351 . S
C2776 C2777 1.434 . S
C2777 C2768 1.429 . S
C2777 N2774 1.350 . S
C2777 C2776 1.434 . S
C2778 C2779 1.369 . S
C2778 C2780 1.419 . S
C2778 H2782 0.930 . S
C2779 C2778 1.369 . S
C2779 C2788 1.429 . S
C2780 C2778 1.419 . S
C2780 C2781 1.363 . S
C2780 H2783 0.929 . S
C2781 C2780 1.363 . S
C2781 C2787 1.428 . S
H2782 C2778 0.930 . S
H2783 C2780 0.929 . S
S2784 N2785 1.613 . S
S2784 N2786 1.610 . S
N2785 S2784 1.613 . S
N2785 C2788 1.350 . S
N2786 S2784 1.610 . S
N2786 C2787 1.351 . S
C2787 C2781 1.428 . S
C2787 N2786 1.351 . S
C2787 C2788 1.434 . S
C2788 C2779 1.429 . S
C2788 N2785 1.350 . S
C2788 C2787 1.434 . S
C2789 C2790 1.369 . S
C2789 C2791 1.419 . S
C2789 H2793 0.930 . S
C2790 C2789 1.369 . S
C2790 C2799 1.429 . S
C2791 C2789 1.419 . S
C2791 C2792 1.363 . S
C2791 H2794 0.929 . S
C2792 C2791 1.363 . S
C2792 C2798 1.428 . S
H2793 C2789 0.930 . S
H2794 C2791 0.929 . S
S2795 N2796 1.613 . S
S2795 N2797 1.610 . S
N2796 S2795 1.613 . S
N2796 C2799 1.350 . S
N2797 S2795 1.610 . S
N2797 C2798 1.351 . S
C2798 C2792 1.428 . S
C2798 N2797 1.351 . S
C2798 C2799 1.434 . S
C2799 C2790 1.429 . S
C2799 N2796 1.350 . S
C2799 C2798 1.434 . S
C2800 C2801 1.369 . S
C2800 C2802 1.419 . S
C2800 H2804 0.930 . S
C2801 C2800 1.369 . S
C2801 C2810 1.429 . S
C2802 C2800 1.419 . S
C2802 C2803 1.363 . S
C2802 H2805 0.929 . S
C2803 C2802 1.363 . S
C2803 C2809 1.428 . S
H2804 C2800 0.930 . S
H2805 C2802 0.929 . S
S2806 N2807 1.613 . S
S2806 N2808 1.610 . S
N2807 S2806 1.613 . S
N2807 C2810 1.350 . S
N2808 S2806 1.610 . S
N2808 C2809 1.351 . S
C2809 C2803 1.428 . S
C2809 N2808 1.351 . S
C2809 C2810 1.434 . S
C2810 C2801 1.429 . S
C2810 N2807 1.350 . S
C2810 C2809 1.434 . S
C2811 C2812 1.369 . S
C2811 C2813 1.419 . S
C2811 H2815 0.930 . S
C2812 C2811 1.369 . S
C2812 C2821 1.429 . S
C2813 C2811 1.419 . S
C2813 C2814 1.363 . S
C2813 H2816 0.929 . S
C2814 C2813 1.363 . S
C2814 C2820 1.428 . S
H2815 C2811 0.930 . S
H2816 C2813 0.929 . S
S2817 N2818 1.613 . S
S2817 N2819 1.610 . S
N2818 S2817 1.613 . S
N2818 C2821 1.350 . S
N2819 S2817 1.610 . S
N2819 C2820 1.351 . S
C2820 C2814 1.428 . S
C2820 N2819 1.351 . S
C2820 C2821 1.434 . S
C2821 C2812 1.429 . S
C2821 N2818 1.350 . S
C2821 C2820 1.434 . S
C2822 C2823 1.369 . S
C2822 C2824 1.419 . S
C2822 H2826 0.930 . S
C2823 C2822 1.369 . S
C2823 C2832 1.429 . S
C2824 C2822 1.419 . S
C2824 C2825 1.363 . S
C2824 H2827 0.929 . S
C2825 C2824 1.363 . S
C2825 C2831 1.428 . S
H2826 C2822 0.930 . S
H2827 C2824 0.929 . S
S2828 N2829 1.613 . S
S2828 N2830 1.610 . S
N2829 S2828 1.613 . S
N2829 C2832 1.350 . S
N2830 S2828 1.610 . S
N2830 C2831 1.351 . S
C2831 C2825 1.428 . S
C2831 N2830 1.351 . S
C2831 C2832 1.434 . S
C2832 C2823 1.429 . S
C2832 N2829 1.350 . S
C2832 C2831 1.434 . S
C2833 C2834 1.369 . S
C2833 C2835 1.419 . S
C2833 H2837 0.930 . S
C2834 C2833 1.369 . S
C2834 C2843 1.429 . S
C2835 C2833 1.419 . S
C2835 C2836 1.363 . S
C2835 H2838 0.929 . S
C2836 C2835 1.363 . S
C2836 C2842 1.428 . S
H2837 C2833 0.930 . S
H2838 C2835 0.929 . S
S2839 N2840 1.613 . S
S2839 N2841 1.610 . S
N2840 S2839 1.613 . S
N2840 C2843 1.350 . S
N2841 S2839 1.610 . S
N2841 C2842 1.351 . S
C2842 C2836 1.428 . S
C2842 N2841 1.351 . S
C2842 C2843 1.434 . S
C2843 C2834 1.429 . S
C2843 N2840 1.350 . S
C2843 C2842 1.434 . S
C2844 C2845 1.369 . S
C2844 C2846 1.419 . S
C2844 H2848 0.930 . S
C2845 C2844 1.369 . S
C2845 C2854 1.429 . S
C2846 C2844 1.419 . S
C2846 C2847 1.363 . S
C2846 H2849 0.929 . S
C2847 C2846 1.363 . S
C2847 C2853 1.428 . S
H2848 C2844 0.930 . S
H2849 C2846 0.929 . S
S2850 N2851 1.613 . S
S2850 N2852 1.610 . S
N2851 S2850 1.613 . S
N2851 C2854 1.350 . S
N2852 S2850 1.610 . S
N2852 C2853 1.351 . S
C2853 C2847 1.428 . S
C2853 N2852 1.351 . S
C2853 C2854 1.434 . S
C2854 C2845 1.429 . S
C2854 N2851 1.350 . S
C2854 C2853 1.434 . S
C2855 C2856 1.369 . S
C2855 C2857 1.419 . S
C2855 H2859 0.930 . S
C2856 C2855 1.369 . S
C2856 C2865 1.429 . S
C2857 C2855 1.419 . S
C2857 C2858 1.363 . S
C2857 H2860 0.929 . S
C2858 C2857 1.363 . S
C2858 C2864 1.428 . S
H2859 C2855 0.930 . S
H2860 C2857 0.929 . S
S2861 N2862 1.613 . S
S2861 N2863 1.610 . S
N2862 S2861 1.613 . S
N2862 C2865 1.350 . S
N2863 S2861 1.610 . S
N2863 C2864 1.351 . S
C2864 C2858 1.428 . S
C2864 N2863 1.351 . S
C2864 C2865 1.434 . S
C2865 C2856 1.429 . S
C2865 N2862 1.350 . S
C2865 C2864 1.434 . S
C2866 C2867 1.369 . S
C2866 C2868 1.419 . S
C2866 H2870 0.930 . S
C2867 C2866 1.369 . S
C2867 C2876 1.429 . S
C2868 C2866 1.419 . S
C2868 C2869 1.363 . S
C2868 H2871 0.929 . S
C2869 C2868 1.363 . S
C2869 C2875 1.428 . S
H2870 C2866 0.930 . S
H2871 C2868 0.929 . S
S2872 N2873 1.613 . S
S2872 N2874 1.610 . S
N2873 S2872 1.613 . S
N2873 C2876 1.350 . S
N2874 S2872 1.610 . S
N2874 C2875 1.351 . S
C2875 C2869 1.428 . S
C2875 N2874 1.351 . S
C2875 C2876 1.434 . S
C2876 C2867 1.429 . S
C2876 N2873 1.350 . S
C2876 C2875 1.434 . S
C2877 C2878 1.369 . S
C2877 C2879 1.419 . S
C2877 H2881 0.930 . S
C2878 C2877 1.369 . S
C2878 C2887 1.429 . S
C2879 C2877 1.419 . S
C2879 C2880 1.363 . S
C2879 H2882 0.929 . S
C2880 C2879 1.363 . S
C2880 C2886 1.428 . S
H2881 C2877 0.930 . S
H2882 C2879 0.929 . S
S2883 N2884 1.613 . S
S2883 N2885 1.610 . S
N2884 S2883 1.613 . S
N2884 C2887 1.350 . S
N2885 S2883 1.610 . S
N2885 C2886 1.351 . S
C2886 C2880 1.428 . S
C2886 N2885 1.351 . S
C2886 C2887 1.434 . S
C2887 C2878 1.429 . S
C2887 N2884 1.350 . S
C2887 C2886 1.434 . S
C1835 N1292 1.494 . S
C1833 C21 1.550 . S
C1846 C1319 1.556 . S
C1844 C42 1.542 . S
C1855 C82 1.540 . S
C1857 C1333 1.533 . S
C1868 N1351 1.434 . S
C1866 C135 1.485 . S
C1877 C175 1.527 . S
C1879 C1356 1.526 . S
C1888 C221 1.541 . S
C1890 C1296 1.549 . S
C1899 C255 1.416 . S
C1901 N1315 1.379 . S
C1912 N1328 1.510 . S
C1910 C301 1.525 . S
C1923 N1374 1.419 . S
C1921 C15 1.463 . S
C1932 C55 1.500 . S
C1934 N1397 1.474 . S
C1943 C101 1.615 . S
C1945 N1420 1.598 . S
C1956 N1453 1.422 . S
C1954 C141 1.455 . S
C1965 C162 1.514 . S
C1967 C1480 1.503 . S
C1978 C1503 1.587 . S
C1976 C215 1.592 . S
C1987 C261 1.495 . S
C1989 C1526 1.523 . S
C2000 C1540 1.467 . S
C1998 C282 1.438 . S
C2009 C2 1.484 . S
C2011 C1457 1.492 . S
C2020 C181 1.444 . S
C2022 N1499 1.415 . S
C2033 N1522 1.468 . S
C2031 C202 1.512 . S
C2042 C242 1.463 . S
C2044 N1535 1.450 . S
C2055 N1476 1.431 . S
C2053 C295 1.482 . S
C2066 C1402 1.687 . S
C2064 C95 1.693 . S
C2075 C122 1.502 . S
C2077 C1425 1.521 . S
C2088 C1379 1.558 . S
C2086 C61 1.544 . S
C2099 C1572 1.510 . S
C2097 C341 1.515 . S
C2108 C362 1.529 . S
C2110 C1586 1.554 . S
C2119 C402 1.532 . S
C2121 N1614 1.481 . S
C2132 N1627 1.425 . S
C2130 C455 1.465 . S
C2141 C495 1.543 . S
C2143 C1632 1.542 . S
C2152 C541 1.535 . S
C2154 N1568 1.484 . S
C2163 C575 1.507 . S
C2165 N1581 1.475 . S
C2174 C621 1.484 . S
C2176 C1618 1.507 . S
C2187 N1466 1.440 . S
C2185 C335 1.471 . S
C2196 C375 1.475 . S
C2198 N1650 1.432 . S
C2209 N1512 1.497 . S
C2207 C421 1.525 . S
C2218 C461 1.508 . S
C2220 C1687 1.537 . S
C2229 C482 1.536 . S
C2231 C1388 1.538 . S
C2242 C1701 1.620 . S
C2240 C535 1.626 . S
C2251 C581 1.532 . S
C2253 C1434 1.551 . S
C2264 N1719 1.416 . S
C2262 C602 1.439 . S
C2273 C322 1.498 . S
C2275 N1683 1.457 . S
C2286 N1696 1.449 . S
C2284 C501 1.482 . S
C2295 C522 1.514 . S
C2297 N1430 1.464 . S
C2308 C1724 1.451 . S
C2306 C562 1.434 . S
C2317 C615 1.456 . S
C2319 N1384 1.404 . S
C2328 C415 1.598 . S
C2330 C1655 1.597 . S
C2339 C442 1.538 . S
C2341 C1517 1.559 . S
C2350 C381 1.547 . S
C2352 C1471 1.563 . S
C2361 C661 1.571 . S
C2363 C1609 1.569 . S
C2374 C1641 1.499 . S
C2372 C682 1.490 . S
C2383 C722 1.502 . S
C2385 N1558 1.459 . S
C2394 C775 1.456 . S
C2396 N1591 1.412 . S
C2405 C815 1.542 . S
C2407 C1595 1.542 . S
C2416 C861 1.582 . S
C2418 N1604 1.553 . S
C2429 N1637 1.360 . S
C2427 C895 1.401 . S
C2438 C941 1.539 . S
C2440 C1563 1.554 . S
C2451 N1752 1.444 . S
C2449 C655 1.491 . S
C2460 C695 1.435 . S
C2462 N1489 1.409 . S
C2473 N1775 1.426 . S
C2471 C741 1.488 . S
C2482 C781 1.487 . S
C2484 N1545 1.464 . S
C2493 C802 1.506 . S
C2495 C1793 1.515 . S
C2504 C855 1.681 . S
C2506 C1411 1.680 . S
C2517 N1811 1.405 . S
C2515 C901 1.415 . S
C2526 C922 1.486 . S
C2528 C1448 1.514 . S
C2539 C1549 1.542 . S
C2537 C642 1.524 . S
C2550 N1407 1.449 . S
C2548 C821 1.500 . S
C2559 C842 1.611 . S
C2561 C1816 1.611 . S
C2570 C882 1.397 . S
C2572 N1443 1.369 . S
C2583 N1788 1.499 . S
C2581 C935 1.520 . S
C2594 C1494 1.604 . S
C2592 C735 1.607 . S
C2605 C1779 1.565 . S
C2603 C762 1.548 . S
C2616 C1756 1.529 . S
C2614 C701 1.513 . S
C2625 C981 1.463 . S
C2627 N1338 1.400 . S
C2636 C1002 1.498 . S
C2638 C1365 1.509 . S
C2649 C1287 1.569 . S
C2647 C1042 1.563 . S
C2660 N1305 1.376 . S
C2658 C1095 1.420 . S
C2671 C1310 1.555 . S
C2669 C1135 1.563 . S
C2682 C1342 1.565 . S
C2680 C1181 1.558 . S
C2693 N1361 1.473 . S
C2691 C1215 1.523 . S
C2702 C1261 1.544 . S
C2704 N1282 1.550 . S
C2713 C975 1.414 . S
C2715 N1798 1.366 . S
C2726 N1706 1.420 . S
C2724 C1015 1.456 . S
C2737 C1825 1.646 . S
C2735 C1061 1.634 . S
C2748 C1733 1.399 . S
C2746 C1101 1.384 . S
C2757 C1122 1.540 . S
C2759 C1747 1.543 . S
C2770 C1664 1.604 . S
C2768 C1175 1.608 . S
C2781 C1770 1.651 . S
C2779 C1221 1.634 . S
C2790 C1242 1.482 . S
C2792 N1673 1.466 . S
C2803 N1729 1.378 . S
C2801 C962 1.420 . S
C2814 N1660 1.415 . S
C2812 C1141 1.442 . S
C2825 N1765 1.433 . S
C2823 C1162 1.459 . S
C2834 C1202 1.494 . S
C2836 C1678 1.522 . S
C2845 C1255 1.475 . S
C2847 N1742 1.439 . S
C2856 C1055 1.689 . S
C2858 C1710 1.682 . S
C2867 C1082 1.427 . S
C2869 N1821 1.399 . S
C2880 C1802 1.506 . S
C2878 C1021 1.496 . S
