# Generated by pormake.
# Topology pts, (4,4)-cn, num edge types: 1
# Building blocks:
#     Node 0, Type 0, BuildingBlock: MUDLON_clean_sbu_0, # of connection points: 4
#     Node 1, Type 0, BuildingBlock: MUDLON_clean_sbu_0, # of connection points: 4
#     Node 2, Type 1, BuildingBlock: AZAVOO_clean_sbu_0, # of connection points: 4
#     Node 3, Type 1, BuildingBlock: AZAVOO_clean_sbu_0, # of connection points: 4
#     Edge 4, Type (0, 1), BuildingBlock: ZUJKAS_clean_linker_0, # of connection points: 2
#     Edge 5, Type (0, 1), BuildingBlock: ZUJKAS_clean_linker_0, # of connection points: 2
#     Edge 6, Type (0, 1), BuildingBlock: ZUJKAS_clean_linker_0, # of connection points: 2
#     Edge 7, Type (0, 1), BuildingBlock: ZUJKAS_clean_linker_0, # of connection points: 2
#     Edge 8, Type (0, 1), BuildingBlock: ZUJKAS_clean_linker_0, # of connection points: 2
#     Edge 9, Type (0, 1), BuildingBlock: ZUJKAS_clean_linker_0, # of connection points: 2
#     Edge 10, Type (0, 1), BuildingBlock: ZUJKAS_clean_linker_0, # of connection points: 2
#     Edge 11, Type (0, 1), BuildingBlock: ZUJKAS_clean_linker_0, # of connection points: 2
# Relax obj value: 0.031
# Max RMSD: 0.088
# Mean RMSD: 0.074
data_MOF--net-pts--node1-MUDLON_clean_sbu_0--node2-AZAVOO_clean_sbu_0--edge1-ZUJKAS_clean_linker_0
_symmetry_space_group_name_H-M    P1
_symmetry_Int_Tables_number       1
_symmetry_cell_setting            triclinic
loop_
_symmetry_equiv_pos_as_xyz
'x, y, z'
_cell_length_a     29.05649
_cell_length_b     30.243345
_cell_length_c     50.608085
_cell_angle_alpha  89.914582
_cell_angle_beta   95.874797
_cell_angle_gamma 90.148946
loop_
_atom_site_label
_atom_site_type_symbol
_atom_site_fract_x
_atom_site_fract_y
_atom_site_fract_z
_atom_type_partial_charge
Mg0 Mg 0.56332 0.03164 0.0356 0.0
C1 C 0.50964 0.97839 0.98937 0.0
O2 O 0.5501 0.97195 0.98058 0.0
C3 C 0.65095 0.98307 0.05514 0.0
O4 O 0.66123 0.99412 0.03133 0.0
C5 C 0.53502 0.06847 0.08712 0.0
O6 O 0.57324 0.04819 0.09638 0.0
O7 O 0.5251 0.07115 0.06208 0.0
O8 O 0.50761 -0.00167 1.01131 0.0
O9 O 0.60804 0.06665 1.01031 0.0
C10 C 0.59703 0.07525 0.98587 0.0
O11 O 0.55396 0.06948 0.97578 0.0
O12 O 0.61016 0.99014 0.06118 0.0
Mg13 Mg 0.05885 0.51959 0.52929 0.0
C14 C 0.09273 0.60744 0.55262 0.0
O15 O 0.07033 0.62193 0.53045 0.0
C16 C 0.11556 0.44279 0.51018 0.0
O17 O 0.11347 0.42806 0.53447 0.0
C18 C 1.00953 0.55152 0.47741 0.0
O19 O 0.02561 0.51388 0.46932 0.0
O20 O 0.01346 0.55989 0.50217 0.0
O21 O 0.09763 0.56599 0.556 0.0
O22 O 0.0248 0.4744 0.55492 0.0
C23 C 0.04545 0.46989 0.57821 0.0
O24 O 0.08334 0.49285 0.58469 0.0
O25 O 0.09931 0.48078 0.50392 0.0
Mg26 Mg 0.11389 -0.00134 0.30047 0.0
O27 O 0.04627 0.00095 0.27214 0.0
O28 O 0.98761 -0.00127 0.2974 0.0
Mg29 Mg 0.01625 0.99582 0.34106 0.0
C30 C 1.00292 0.00017 0.27465 0.0
C31 C 0.20033 0.01878 0.27184 0.0
O32 O 0.21798 0.00676 0.29571 0.0
O33 O 0.10646 0.07068 0.31344 0.0
O34 O 0.04835 0.06508 0.33904 0.0
O35 O 0.11112 0.92423 0.30008 0.0
O36 O 0.07972 0.96582 0.32909 0.0
C37 C 0.0793 0.08778 0.32892 0.0
C38 C 0.08676 0.92699 0.32006 0.0
O39 O 0.15654 0.01915 0.26671 0.0
Mg40 Mg 1.01115 0.00181 0.76776 0.0
O41 O 0.08058 0.00231 0.79474 0.0
O42 O 0.13691 0.00229 0.76777 0.0
Mg43 Mg 0.10549 0.00038 0.72465 0.0
C44 C 0.12349 0.00243 0.79101 0.0
C45 C 0.92863 0.03208 0.79688 0.0
O46 O 0.912 0.03291 0.77174 0.0
O47 O 0.01916 0.07465 0.75597 0.0
O48 O 0.07472 0.06929 0.72865 0.0
O49 O 0.01238 0.92722 0.7665 0.0
O50 O 0.04289 0.97036 0.73781 0.0
C51 C 0.04539 0.09202 0.73997 0.0
C52 C 0.03549 0.93104 0.74604 0.0
O53 O 0.97057 0.02065 0.80271 0.0
H54 H 0.4452 0.09529 0.07437 0.0
H55 H 0.3841 0.09961 0.1042 0.0
H56 H 0.48318 0.06766 0.17077 0.0
H57 H 0.54437 0.0639 0.1413 0.0
H58 H 0.35703 0.02919 0.13321 0.0
H59 H 0.41158 0.16713 0.20103 0.0
H60 H 0.43517 0.15916 0.16972 0.0
H61 H 0.45696 0.12773 0.19854 0.0
C62 C 0.45425 0.09033 0.09546 0.0
C63 C 0.49976 0.07915 0.10541 0.0
C64 C 0.4192 0.09264 0.11247 0.0
C65 C 0.42905 0.08431 0.13977 0.0
C66 C 0.47482 0.07511 0.14989 0.0
H67 H 0.29471 0.0172 0.27659 0.0
H68 H 0.34623 0.03623 0.24312 0.0
C69 C 0.50982 0.07274 0.13293 0.0
C70 C 0.3911 0.08062 0.15729 0.0
H71 H 0.35726 0.11546 0.21648 0.0
C72 C 0.35657 0.04857 0.1512 0.0
C73 C 0.3906 0.10582 0.18078 0.0
C74 C 0.42532 0.14219 0.18779 0.0
C75 C 0.32297 0.03952 0.16858 0.0
C76 C 0.32342 0.06373 0.19252 0.0
C77 C 0.35702 0.0968 0.19818 0.0
C78 C 0.29128 0.05334 0.21275 0.0
C79 C 0.2887 0.00265 0.16178 0.0
C80 C 0.24311 0.05704 0.20693 0.0
C81 C 0.21337 0.0459 0.22606 0.0
C82 C 0.23132 0.03119 0.25143 0.0
C83 C 0.27961 0.02829 0.25727 0.0
C84 C 0.3092 0.03928 0.23816 0.0
H85 H 0.29933 0.9811 0.14572 0.0
H86 H 0.28455 0.98187 0.17949 0.0
H87 H 0.2545 0.01708 0.15486 0.0
H88 H 0.2285 0.06861 0.18762 0.0
H89 H 0.17638 0.04884 0.22097 0.0
H90 H 0.0816 0.45693 0.62929 0.0
H91 H 0.06518 0.39699 0.65903 0.0
H92 H 0.95868 0.34801 0.60071 0.0
H93 H 0.97577 0.40781 0.57027 0.0
H94 H 0.98839 0.36679 0.68194 0.0
H95 H 0.04825 0.24439 0.61086 0.0
H96 H 0.05608 0.30308 0.60688 0.0
H97 H 1.00023 0.27836 0.59838 0.0
C98 C 0.05435 0.43372 0.62276 0.0
C99 C 0.03052 0.43673 0.59718 0.0
C100 C 0.04482 0.39957 0.63992 0.0
C101 C 1.01125 0.36761 0.63196 0.0
C102 C 0.98534 0.37191 0.60706 0.0
H103 H 0.96603 0.14161 0.73764 0.0
H104 H 0.9516 0.21135 0.71327 0.0
C105 C 0.995 0.40617 0.58974 0.0
C106 C 1.00701 0.3281 0.64898 0.0
H107 H 0.03079 0.21766 0.65204 0.0
C108 C 0.99697 0.334 0.67535 0.0
C109 C 0.01878 0.28547 0.64038 0.0
C110 C 0.03181 0.27723 0.61267 0.0
C111 C 0.99993 0.29869 0.69357 0.0
C112 C 0.01282 0.25644 0.68507 0.0
C113 C 0.02097 0.2502 0.65847 0.0
C114 C 0.02208 0.21878 0.70362 0.0
C115 C 0.99151 0.30715 0.72203 0.0
C116 C 0.06664 0.20059 0.70688 0.0
C117 C 0.07485 0.16089 0.72055 0.0
C118 C 0.03865 0.13852 0.73134 0.0
C119 C 0.99468 0.15832 0.72975 0.0
C120 C 0.98636 0.1981 0.71579 0.0
H121 H 0.98884 0.34301 0.72634 0.0
H122 H 0.95872 0.2909 0.72615 0.0
H123 H 0.01983 0.29277 0.73577 0.0
H124 H 0.09473 0.21614 0.69776 0.0
H125 H 0.10915 0.14661 0.72157 0.0
H126 H 0.6447 0.97227 0.10847 0.0
H127 H 0.70866 0.96896 0.14379 0.0
H128 H 0.80641 0.96688 0.08521 0.0
H129 H 0.74278 0.9708 0.04972 0.0
H130 H 0.78357 0.91043 0.1562 0.0
H131 H 0.8435 0.07777 0.12923 0.0
H132 H 0.7879 0.05576 0.11639 0.0
H133 H 0.83951 0.03787 0.10283 0.0
C134 C 0.67974 0.97035 0.10303 0.0
C135 C 0.68859 0.97239 0.07623 0.0
C136 C 0.71628 0.96854 0.12328 0.0
C137 C 0.7623 0.96877 0.11713 0.0
C138 C 0.77118 0.96775 0.0904 0.0
H139 H 0.02023 0.99726 0.2222 0.0
H140 H 0.96378 0.98773 0.18315 0.0
C141 C 0.73469 0.96965 0.07013 0.0
C142 C 0.80077 0.97243 0.1387 0.0
H143 H 0.88734 0.04137 0.1645 0.0
C144 C 0.80637 0.93896 0.15797 0.0
C145 C 0.83051 0.00972 0.14096 0.0
C146 C 0.825 0.04757 0.12142 0.0
C147 C 0.84086 0.9418 0.17949 0.0
C148 C 0.86995 0.9795 0.18204 0.0
C149 C 0.86501 0.01252 0.16247 0.0
C150 C 0.90421 0.98622 0.20552 0.0
C151 C 0.846 0.90432 0.19928 0.0
C152 C 0.88931 0.98979 0.23092 0.0
C153 C 0.92131 0.9954 0.2532 0.0
C154 C 0.96905 -0.00222 0.2506 0.0
C155 C 0.9838 0.99549 0.22498 0.0
C156 C 0.95162 0.98993 0.20264 0.0
H157 H 0.83053 0.8732 0.19073 0.0
H158 H 0.88298 0.8983 0.20616 0.0
H159 H 0.82786 0.91301 0.21681 0.0
H160 H 0.85281 0.9881 0.23353 0.0
H161 H 0.90851 0.99729 0.27252 0.0
H162 H 0.1269 0.5871 0.60379 0.0
H163 H 0.12854 0.63543 0.64275 0.0
H164 H 0.08091 0.74438 0.59231 0.0
H165 H 0.0793 0.69672 0.55329 0.0
H166 H 0.17128 0.73565 0.65083 0.0
H167 H 0.98148 0.70903 0.65013 0.0
H168 H 0.01889 0.66923 0.63653 0.0
H169 H 1.00342 0.71913 0.61863 0.0
C170 C 0.1178 0.62159 0.60089 0.0
C171 C 0.10255 0.63794 0.57541 0.0
C172 C 0.11871 0.64908 0.62318 0.0
C173 C 0.10441 0.69319 0.6203 0.0
C174 C 0.09188 0.71029 0.59484 0.0
H175 H 0.08335 0.93107 0.70245 0.0
H176 H 0.10563 0.86816 0.67699 0.0
C177 C 0.09106 0.68297 0.57257 0.0
C178 C 0.09863 0.72071 0.64383 0.0
H179 H 0.01496 0.76589 0.67792 0.0
C180 C 0.13728 0.74186 0.65708 0.0
C181 C 0.0543 0.72809 0.65209 0.0
C182 C 0.012 0.70506 0.6388 0.0
C183 C 0.1323 0.77218 0.67761 0.0
C184 C 0.08751 0.78173 0.68474 0.0
C185 C 0.04926 0.75859 0.67244 0.0
C186 C 0.07877 0.81905 0.7025 0.0
C187 C 0.17487 0.79441 0.69113 0.0
C188 C 0.05578 0.8125 0.72532 0.0
C189 C 0.04304 0.84877 0.74017 0.0
C190 C 0.05256 0.89213 0.7322 0.0
C191 C 0.07617 0.8983 0.70955 0.0
C192 C 0.08913 0.86222 0.69492 0.0
H193 H 0.20621 0.77385 0.68988 0.0
H194 H 0.18033 0.82637 0.6811 0.0
H195 H 0.17103 0.80116 0.71236 0.0
H196 H 0.04692 0.77941 0.7313 0.0
H197 H 0.02463 0.84289 0.7574 0.0
H198 H 0.42111 0.9949 1.0003 0.0
H199 H 0.35084 0.99314 0.96945 0.0
H200 H 0.42874 0.94347 0.90784 0.0
H201 H 0.49958 0.94522 0.93859 0.0
H202 H 0.34322 0.04355 0.92095 0.0
H203 H 0.30984 0.86439 0.90346 0.0
H204 H 0.34511 0.88496 0.93236 0.0
H205 H 0.36823 0.88248 0.90083 0.0
C206 C 0.42333 0.98279 0.98035 0.0
C207 C 0.46617 0.97041 0.9719 0.0
C208 C 0.38304 0.98188 0.96273 0.0
C209 C 0.38455 0.96805 0.93642 0.0
C210 C 0.42675 0.95374 0.92819 0.0
H211 H 0.21571 0.02007 0.79146 0.0
H212 H 0.27605 0.0122 0.82845 0.0
C213 C 0.46723 0.95486 0.94578 0.0
C214 C 0.34297 0.97264 0.91702 0.0
H215 H 0.26597 0.91463 0.87473 0.0
C216 C 0.32608 0.01534 0.91102 0.0
C217 C 0.32058 0.93577 0.90421 0.0
C218 C 0.3365 0.88921 0.91061 0.0
C219 C 0.28821 0.02221 0.89193 0.0
C220 C 0.2667 0.9855 0.87858 0.0
C221 C 0.28267 0.94269 0.88506 0.0
C222 C 0.22938 0.99132 0.85668 0.0
C223 C 0.27171 0.0687 0.88579 0.0
C224 C 0.18308 0.98249 0.86047 0.0
C225 C 0.14822 0.98737 0.83937 0.0
C226 C 0.15933 0.00056 0.81409 0.0
C227 C 0.20586 0.00973 0.8106 0.0
C228 C 0.24046 0.00527 0.8317 0.0
H229 H 0.28746 0.09293 0.90055 0.0
H230 H 0.28101 0.07839 0.86585 0.0
H231 H 0.23345 0.07041 0.88531 0.0
H232 H 0.17399 0.97168 0.87968 0.0
H233 H 0.11282 0.9798 0.84271 0.0
H234 H 0.15907 0.36268 0.51607 0.0
H235 H 0.16696 0.3075 0.48155 0.0
H236 H 0.10405 0.39759 0.42235 0.0
H237 H 0.09812 0.45337 0.45644 0.0
H238 H 0.09816 0.26934 0.4549 0.0
H239 H 0.20083 0.34715 0.38148 0.0
H240 H 0.19766 0.37031 0.41409 0.0
H241 H 0.15291 0.3815 0.38757 0.0
C242 C 0.14815 0.37116 0.49559 0.0
C243 C 0.1278 0.41236 0.48906 0.0
C244 C 0.1526 0.33956 0.47585 0.0
C245 C 0.13643 0.34833 0.44921 0.0
C246 C 0.11796 0.39022 0.44254 0.0
H247 H 0.01605 0.14548 0.34493 0.0
H248 H 0.03208 0.21223 0.37148 0.0
C249 C 0.11422 0.42208 0.46218 0.0
C250 C 0.13309 0.31206 0.42922 0.0
H251 H 0.15201 0.2858 0.3655 0.0
C252 C 0.11059 0.27287 0.43551 0.0
C253 C 0.14957 0.3162 0.40392 0.0
C254 C 0.17703 0.35591 0.3965 0.0
C255 C 0.10292 0.2384 0.4171 0.0
C256 C 0.11656 0.24374 0.39121 0.0
C257 C 0.14058 0.28217 0.38513 0.0
C258 C 0.10632 0.20924 0.37055 0.0
C259 C 0.08061 0.19636 0.42579 0.0
C260 C 0.14234 0.18759 0.35934 0.0
C261 C 0.13309 0.14996 0.34353 0.0
C262 C 0.08773 0.1333 0.33898 0.0
C263 C 0.05139 0.15729 0.34836 0.0
C264 C 0.06056 0.19521 0.36372 0.0
H265 H 0.08516 0.19249 0.44774 0.0
H266 H 0.04291 0.19747 0.41949 0.0
H267 H 0.09527 0.16682 0.41674 0.0
H268 H 0.17787 0.19813 0.36413 0.0
H269 H 0.16181 0.13208 0.33663 0.0
H270 H 0.58725 0.08571 0.9318 0.0
H271 H 0.64856 0.08623 0.90207 0.0
H272 H 0.75165 0.08208 0.96963 0.0
H273 H 0.69066 0.08108 0.99955 0.0
H274 H 0.72658 0.14232 0.89746 0.0
H275 H 0.77867 0.97092 0.92687 0.0
H276 H 0.72506 0.995 0.93488 0.0
H277 H 0.77868 0.00985 0.95366 0.0
C278 C 0.62294 0.08557 0.9404 0.0
C279 C 0.63393 0.08293 0.96809 0.0
C280 C 0.65797 0.08582 0.92335 0.0
C281 C 0.70463 0.08327 0.93362 0.0
C282 C 0.71583 0.08315 0.96126 0.0
H283 H 0.95097 0.03475 0.85102 0.0
H284 H 0.89936 0.05115 0.88517 0.0
C285 C 0.68086 0.0829 0.97834 0.0
C286 C 0.74124 0.07863 0.91534 0.0
H287 H 0.82154 0.0064 0.89594 0.0
C288 C 0.7475 0.1127 0.89717 0.0
C289 C 0.76859 0.03998 0.91504 0.0
C290 C 0.76235 0.00162 0.93347 0.0
C291 C 0.78031 0.10914 0.8787 0.0
C292 C 0.80688 0.07004 0.87798 0.0
C293 C 0.80126 0.03637 0.89652 0.0
C294 C 0.83888 0.06229 0.8573 0.0
C295 C 0.78642 0.1475 0.86028 0.0
C296 C 0.82204 0.06267 0.8303 0.0
C297 C 0.85139 0.05344 0.8108 0.0
C298 C 0.89825 0.04312 0.81783 0.0
C299 C 0.91512 0.04266 0.8449 0.0
C300 C 0.88566 0.05202 0.86444 0.0
H301 H 0.77515 0.1791 0.86873 0.0
H302 H 0.82303 0.15095 0.85609 0.0
H303 H 0.76483 0.14187 0.84119 0.0
H304 H 0.78587 0.06929 0.82428 0.0
H305 H 0.83707 0.05382 0.79018 0.0
H306 H 0.98282 0.63621 0.48736 0.0
H307 H 0.9818 0.69924 0.45704 0.0
H308 H 0.013 0.6126 0.3937 0.0
H309 H 0.01311 0.54935 0.42364 0.0
H310 H 0.05972 0.72335 0.43547 0.0
H311 H 0.91928 0.69463 0.35463 0.0
H312 H 0.92237 0.66536 0.3859 0.0
H313 H 0.9575 0.64833 0.36048 0.0
C314 C 0.98806 0.63032 0.46678 0.0
C315 C 0.99844 0.58773 0.45801 0.0
C316 C 0.98756 0.66644 0.44947 0.0
C317 C 0.99719 0.66069 0.42306 0.0
C318 C 1.00462 0.61783 0.41382 0.0
H319 H 0.09271 0.84001 0.30511 0.0
H320 H 0.06784 0.77467 0.32888 0.0
C321 C 1.00491 0.58165 0.43107 0.0
C322 C 1.00588 0.69977 0.40645 0.0
H323 H 0.97566 0.74962 0.34651 0.0
C324 C 0.04095 0.72929 0.41615 0.0
C325 C 0.98184 0.70717 0.38107 0.0
C326 C 0.94286 0.67742 0.36997 0.0
C327 C 0.05302 0.76568 0.40111 0.0
C328 C 0.029 0.77316 0.37578 0.0
C329 C 0.99401 0.74367 0.36594 0.0
C330 C 0.03947 0.81221 0.35973 0.0
C331 C 0.09203 0.79547 0.41226 0.0
C332 C 0.0307 0.85475 0.36888 0.0
C333 C 0.04493 0.89192 0.35549 0.0
C334 C 0.068 0.88735 0.33253 0.0
C335 C 0.0751 0.84464 0.32275 0.0
C336 C 0.06082 0.80732 0.33625 0.0
H337 H 0.11371 0.77965 0.42899 0.0
H338 H 0.11451 0.80469 0.39664 0.0
H339 H 0.07736 0.8263 0.41976 0.0
H340 H 0.01392 0.85918 0.38685 0.0
H341 H 0.03904 0.92417 0.3637 0.0
loop_
_geom_bond_atom_site_label_1
_geom_bond_atom_site_label_2
_geom_bond_distance
_geom_bond_site_symmetry_2
_ccdc_geom_bond_type
Mg0 O7 2.141 . S
Mg0 O8 2.048 1_554 S
Mg0 O9 2.048 1_554 S
Mg0 O12 2.141 . S
C1 O2 1.313 1_545 S
C1 O8 1.195 . S
O2 C1 1.313 1_565 S
C3 O4 1.245 1_545 S
C3 O12 1.289 . S
O4 C3 1.245 1_565 S
C5 O6 1.245 1_545 S
C5 O7 1.289 . S
O6 C5 1.245 1_565 S
O7 Mg0 2.141 . S
O7 C5 1.289 . S
O8 Mg0 2.048 1_556 S
O8 C1 1.195 . S
O9 Mg0 2.048 1_556 S
O9 C10 1.195 . S
C10 O9 1.195 . S
C10 O11 1.313 1_545 S
O11 C10 1.313 1_565 S
O12 Mg0 2.141 . S
O12 C3 1.289 . S
Mg13 O20 2.141 . S
Mg13 O21 2.048 . S
Mg13 O22 2.048 . S
Mg13 O25 2.141 . S
C14 O15 1.313 . S
C14 O21 1.195 . S
O15 C14 1.313 . S
C16 O17 1.245 . S
C16 O25 1.289 . S
O17 C16 1.245 . S
C18 O19 1.245 . S
C18 O20 1.289 . S
O19 C18 1.245 . S
O20 Mg13 2.141 . S
O20 C18 1.289 . S
O21 Mg13 2.048 . S
O21 C14 1.195 . S
O22 Mg13 2.048 . S
O22 C23 1.195 . S
C23 O22 1.195 . S
C23 O24 1.313 . S
O24 C23 1.313 . S
O25 Mg13 2.141 . S
O25 C16 1.289 . S
Mg26 O27 2.028 . S
Mg26 O33 1.986 . S
Mg26 O35 2.114 1_545 S
Mg26 O36 2.251 1_545 S
Mg26 O39 2.010 . S
O27 Mg26 2.028 . S
O27 C30 1.250 . S
O28 Mg29 2.028 1_655 S
O28 C30 1.248 1_655 S
Mg29 O28 2.028 1_455 S
Mg29 O34 2.032 . S
Mg29 O36 2.079 1_545 S
C30 O27 1.250 . S
C30 O28 1.248 1_455 S
C31 O32 1.264 . S
C31 O39 1.249 . S
O32 C31 1.264 . S
O33 Mg26 1.986 . S
O33 C37 1.246 . S
O34 Mg29 2.032 . S
O34 C37 1.259 . S
O35 Mg26 2.114 1_565 S
O35 C38 1.252 . S
O36 Mg26 2.251 1_565 S
O36 Mg29 2.079 1_565 S
O36 C38 1.273 . S
C37 O33 1.246 . S
C37 O34 1.259 . S
C38 O35 1.252 . S
C38 O36 1.273 . S
O39 Mg26 2.010 . S
O39 C31 1.249 . S
Mg40 O41 2.022 1_655 S
Mg40 O47 1.985 1_655 S
Mg40 O49 2.113 1_645 S
Mg40 O50 2.245 1_645 S
Mg40 O53 2.018 . S
O41 Mg40 2.022 1_455 S
O41 C44 1.250 . S
O42 Mg43 2.028 . S
O42 C44 1.248 . S
Mg43 O42 2.028 . S
Mg43 O48 2.032 . S
Mg43 O50 2.079 1_545 S
C44 O41 1.250 . S
C44 O42 1.248 . S
C45 O46 1.264 . S
C45 O53 1.249 . S
O46 C45 1.264 . S
O47 Mg40 1.985 1_455 S
O47 C51 1.246 . S
O48 Mg43 2.032 . S
O48 C51 1.259 . S
O49 Mg40 2.113 1_465 S
O49 C52 1.252 . S
O50 Mg40 2.245 1_465 S
O50 Mg43 2.079 1_565 S
O50 C52 1.273 . S
C51 O47 1.246 . S
C51 O48 1.259 . S
C52 O49 1.252 . S
C52 O50 1.273 . S
O53 Mg40 2.018 . S
O53 C45 1.249 . S
H54 C62 0.929 . S
H55 C64 0.930 . S
H56 C66 0.930 . S
H57 C69 0.929 . S
H58 C72 0.929 . S
H59 C74 0.960 . S
H60 C74 0.960 . S
H61 C74 0.960 . S
C62 H54 0.929 . S
C62 C63 1.377 . S
C62 C64 1.384 . S
C63 C62 1.377 . S
C63 C69 1.390 1_545 S
C64 H55 0.930 . S
C64 C62 1.384 . S
C64 C65 1.372 . S
C65 C64 1.372 . S
C65 C66 1.400 1_545 S
C65 C70 1.490 . S
C66 H56 0.930 . S
C66 C65 1.400 1_565 S
C66 C69 1.386 . S
H67 C83 0.930 . S
H68 C84 0.931 . S
C69 H57 0.929 . S
C69 C63 1.390 1_565 S
C69 C66 1.386 . S
C70 C65 1.490 . S
C70 C72 1.395 1_545 S
C70 C73 1.403 . S
H71 C77 0.930 . S
C72 H58 0.929 . S
C72 C70 1.395 1_565 S
C72 C75 1.403 . S
C73 C70 1.403 . S
C73 C74 1.524 . S
C73 C77 1.400 . S
C74 H59 0.960 . S
C74 H60 0.960 . S
C74 H61 0.960 . S
C74 C73 1.524 . S
C75 C72 1.403 . S
C75 C76 1.383 1_565 S
C75 C79 1.505 . S
C76 C75 1.383 1_545 S
C76 C77 1.385 . S
C76 C78 1.478 . S
C77 H71 0.930 . S
C77 C73 1.400 . S
C77 C76 1.385 . S
C78 C76 1.478 . S
C78 C80 1.381 . S
C78 C84 1.383 1_545 S
C79 C75 1.505 . S
C79 H85 0.959 . S
C79 H86 0.961 . S
C79 H87 0.960 1_565 S
C80 C78 1.381 . S
C80 C81 1.394 . S
C80 H88 0.930 . S
C81 C80 1.394 . S
C81 C82 1.383 . S
C81 H89 0.929 . S
C82 C81 1.383 . S
C82 C83 1.377 1_545 S
C83 H67 0.930 . S
C83 C82 1.377 1_565 S
C83 C84 1.379 . S
C84 H68 0.931 . S
C84 C78 1.383 1_565 S
C84 C83 1.379 . S
H85 C79 0.959 . S
H86 C79 0.961 . S
H87 C79 0.960 1_545 S
H88 C80 0.930 . S
H89 C81 0.929 . S
H90 C98 0.929 . S
H91 C100 0.930 . S
H92 C102 0.930 1_655 S
H93 C105 0.929 1_655 S
H94 C108 0.930 . S
H95 C110 0.960 . S
H96 C110 0.960 . S
H97 C110 0.960 . S
C98 H90 0.929 . S
C98 C99 1.377 . S
C98 C100 1.384 . S
C99 C98 1.377 . S
C99 C105 1.390 . S
C100 H91 0.930 . S
C100 C98 1.384 . S
C100 C101 1.372 . S
C101 C100 1.372 . S
C101 C102 1.400 . S
C101 C106 1.490 . S
C102 H92 0.930 1_455 S
C102 C101 1.400 . S
C102 C105 1.386 . S
H103 C119 0.930 . S
H104 C120 0.931 . S
C105 H93 0.929 1_455 S
C105 C99 1.390 . S
C105 C102 1.386 . S
C106 C101 1.490 . S
C106 C108 1.395 . S
C106 C109 1.403 . S
H107 C113 0.930 . S
C108 H94 0.930 . S
C108 C106 1.395 . S
C108 C111 1.403 . S
C109 C106 1.403 . S
C109 C110 1.524 . S
C109 C113 1.400 . S
C110 H95 0.960 . S
C110 H96 0.960 . S
C110 H97 0.960 . S
C110 C109 1.524 . S
C111 C108 1.403 . S
C111 C112 1.392 . S
C111 C115 1.495 . S
C112 C111 1.392 . S
C112 C113 1.385 . S
C112 C114 1.478 . S
C113 H107 0.930 . S
C113 C109 1.400 . S
C113 C112 1.385 . S
C114 C112 1.478 . S
C114 C116 1.381 . S
C114 C120 1.383 1_455 S
C115 C111 1.495 . S
C115 H121 0.959 . S
C115 H122 0.961 . S
C115 H123 0.960 . S
C116 C114 1.381 . S
C116 C117 1.394 . S
C116 H124 0.930 . S
C117 C116 1.394 . S
C117 C118 1.383 . S
C117 H125 0.929 . S
C118 C117 1.383 . S
C118 C119 1.377 1_455 S
C119 H103 0.930 . S
C119 C118 1.377 1_655 S
C119 C120 1.379 . S
C120 H104 0.931 . S
C120 C114 1.383 1_655 S
C120 C119 1.379 . S
H121 C115 0.959 . S
H122 C115 0.961 . S
H123 C115 0.960 . S
H124 C116 0.930 . S
H125 C117 0.929 . S
H126 C134 0.929 . S
H127 C136 0.930 . S
H128 C138 0.930 . S
H129 C141 0.929 . S
H130 C144 0.930 . S
H131 C146 0.960 . S
H132 C146 0.960 . S
H133 C146 0.960 . S
C134 H126 0.929 . S
C134 C135 1.377 . S
C134 C136 1.384 . S
C135 C134 1.377 . S
C135 C141 1.390 1_545 S
C136 H127 0.930 . S
C136 C134 1.384 . S
C136 C137 1.372 . S
C137 C136 1.372 . S
C137 C138 1.400 1_545 S
C137 C142 1.490 . S
C138 H128 0.930 . S
C138 C137 1.400 1_565 S
C138 C141 1.386 . S
H139 C155 0.930 . S
H140 C156 0.931 . S
C141 H129 0.929 . S
C141 C135 1.390 1_565 S
C141 C138 1.386 . S
C142 C137 1.490 . S
C142 C144 1.395 . S
C142 C145 1.403 . S
H143 C149 0.930 . S
C144 H130 0.930 . S
C144 C142 1.395 . S
C144 C147 1.403 . S
C145 C142 1.403 . S
C145 C146 1.524 . S
C145 C149 1.400 . S
C146 H131 0.960 . S
C146 H132 0.960 . S
C146 H133 0.960 . S
C146 C145 1.524 . S
C147 C144 1.403 . S
C147 C148 1.392 . S
C147 C151 1.495 . S
C148 C147 1.392 . S
C148 C149 1.385 . S
C148 C150 1.478 . S
C149 H143 0.930 . S
C149 C145 1.400 . S
C149 C148 1.385 . S
C150 C148 1.478 . S
C150 C152 1.381 . S
C150 C156 1.383 1_545 S
C151 C147 1.495 . S
C151 H157 0.959 1_545 S
C151 H158 0.961 1_545 S
C151 H159 0.960 . S
C152 C150 1.381 . S
C152 C153 1.394 . S
C152 H160 0.930 . S
C153 C152 1.394 . S
C153 C154 1.383 . S
C153 H161 0.929 . S
C154 C153 1.383 . S
C154 C155 1.377 1_545 S
C155 H139 0.930 . S
C155 C154 1.377 1_565 S
C155 C156 1.379 . S
C156 H140 0.931 . S
C156 C150 1.383 1_565 S
C156 C155 1.379 . S
H157 C151 0.959 1_565 S
H158 C151 0.961 1_565 S
H159 C151 0.960 . S
H160 C152 0.930 . S
H161 C153 0.929 . S
H162 C170 0.929 . S
H163 C172 0.930 . S
H164 C174 0.930 . S
H165 C177 0.929 . S
H166 C180 0.930 . S
H167 C182 0.960 . S
H168 C182 0.960 . S
H169 C182 0.960 1_455 S
C170 H162 0.929 . S
C170 C171 1.377 . S
C170 C172 1.384 . S
C171 C170 1.377 . S
C171 C177 1.390 . S
C172 H163 0.930 . S
C172 C170 1.384 . S
C172 C173 1.372 . S
C173 C172 1.372 . S
C173 C174 1.400 . S
C173 C178 1.490 . S
C174 H164 0.930 . S
C174 C173 1.400 . S
C174 C177 1.386 . S
H175 C191 0.930 . S
H176 C192 0.931 . S
C177 H165 0.929 . S
C177 C171 1.390 . S
C177 C174 1.386 . S
C178 C173 1.490 . S
C178 C180 1.395 . S
C178 C181 1.403 . S
H179 C185 0.930 . S
C180 H166 0.930 . S
C180 C178 1.395 . S
C180 C183 1.403 . S
C181 C178 1.403 . S
C181 C182 1.524 1_455 S
C181 C185 1.400 . S
C182 H167 0.960 . S
C182 H168 0.960 . S
C182 H169 0.960 1_655 S
C182 C181 1.524 1_655 S
C183 C180 1.403 . S
C183 C184 1.392 . S
C183 C187 1.495 . S
C184 C183 1.392 . S
C184 C185 1.385 . S
C184 C186 1.478 . S
C185 H179 0.930 . S
C185 C181 1.400 . S
C185 C184 1.385 . S
C186 C184 1.478 . S
C186 C188 1.381 . S
C186 C192 1.383 . S
C187 C183 1.495 . S
C187 H193 0.959 . S
C187 H194 0.961 . S
C187 H195 0.960 . S
C188 C186 1.381 . S
C188 C189 1.394 . S
C188 H196 0.930 1_455 S
C189 C188 1.394 . S
C189 C190 1.383 . S
C189 H197 0.929 1_455 S
C190 C189 1.383 . S
C190 C191 1.377 . S
C191 H175 0.930 . S
C191 C190 1.377 . S
C191 C192 1.379 . S
C192 H176 0.931 . S
C192 C186 1.383 . S
C192 C191 1.379 . S
H193 C187 0.959 . S
H194 C187 0.961 . S
H195 C187 0.960 . S
H196 C188 0.930 1_655 S
H197 C189 0.929 1_655 S
H198 C206 0.929 . S
H199 C208 0.930 . S
H200 C210 0.930 . S
H201 C213 0.929 . S
H202 C216 0.930 . S
H203 C218 0.960 . S
H204 C218 0.960 . S
H205 C218 0.960 . S
C206 H198 0.929 . S
C206 C207 1.377 . S
C206 C208 1.384 . S
C207 C206 1.377 . S
C207 C213 1.390 1_545 S
C208 H199 0.930 . S
C208 C206 1.384 . S
C208 C209 1.372 . S
C209 C208 1.372 . S
C209 C210 1.400 1_545 S
C209 C214 1.490 . S
C210 H200 0.930 . S
C210 C209 1.400 1_565 S
C210 C213 1.386 . S
H211 C227 0.930 . S
H212 C228 0.931 . S
C213 H201 0.929 . S
C213 C207 1.390 1_565 S
C213 C210 1.386 . S
C214 C209 1.490 . S
C214 C216 1.395 . S
C214 C217 1.403 1_545 S
H215 C221 0.930 . S
C216 H202 0.930 . S
C216 C214 1.395 . S
C216 C219 1.403 . S
C217 C214 1.403 1_565 S
C217 C218 1.524 . S
C217 C221 1.400 . S
C218 H203 0.960 . S
C218 H204 0.960 . S
C218 H205 0.960 . S
C218 C217 1.524 . S
C219 C216 1.403 . S
C219 C220 1.392 . S
C219 C223 1.495 . S
C220 C219 1.392 . S
C220 C221 1.385 1_545 S
C220 C222 1.478 . S
C221 H215 0.930 . S
C221 C217 1.400 . S
C221 C220 1.385 1_565 S
C222 C220 1.478 . S
C222 C224 1.381 . S
C222 C228 1.383 1_545 S
C223 C219 1.495 . S
C223 H229 0.959 . S
C223 H230 0.961 . S
C223 H231 0.960 . S
C224 C222 1.381 . S
C224 C225 1.394 . S
C224 H232 0.930 . S
C225 C224 1.394 . S
C225 C226 1.383 . S
C225 H233 0.929 . S
C226 C225 1.383 . S
C226 C227 1.377 1_545 S
C227 H211 0.930 . S
C227 C226 1.377 1_565 S
C227 C228 1.379 . S
C228 H212 0.931 . S
C228 C222 1.383 1_565 S
C228 C227 1.379 . S
H229 C223 0.959 . S
H230 C223 0.961 . S
H231 C223 0.960 . S
H232 C224 0.930 . S
H233 C225 0.929 . S
H234 C242 0.929 . S
H235 C244 0.930 . S
H236 C246 0.930 . S
H237 C249 0.929 . S
H238 C252 0.930 . S
H239 C254 0.960 . S
H240 C254 0.960 . S
H241 C254 0.960 . S
C242 H234 0.929 . S
C242 C243 1.377 . S
C242 C244 1.384 . S
C243 C242 1.377 . S
C243 C249 1.390 . S
C244 H235 0.930 . S
C244 C242 1.384 . S
C244 C245 1.372 . S
C245 C244 1.372 . S
C245 C246 1.400 . S
C245 C250 1.490 . S
C246 H236 0.930 . S
C246 C245 1.400 . S
C246 C249 1.386 . S
H247 C263 0.930 . S
H248 C264 0.931 . S
C249 H237 0.929 . S
C249 C243 1.390 . S
C249 C246 1.386 . S
C250 C245 1.490 . S
C250 C252 1.395 . S
C250 C253 1.403 . S
H251 C257 0.930 . S
C252 H238 0.930 . S
C252 C250 1.395 . S
C252 C255 1.403 . S
C253 C250 1.403 . S
C253 C254 1.524 . S
C253 C257 1.400 . S
C254 H239 0.960 . S
C254 H240 0.960 . S
C254 H241 0.960 . S
C254 C253 1.524 . S
C255 C252 1.403 . S
C255 C256 1.392 . S
C255 C259 1.495 . S
C256 C255 1.392 . S
C256 C257 1.385 . S
C256 C258 1.478 . S
C257 H251 0.930 . S
C257 C253 1.400 . S
C257 C256 1.385 . S
C258 C256 1.478 . S
C258 C260 1.381 . S
C258 C264 1.383 . S
C259 C255 1.495 . S
C259 H265 0.959 . S
C259 H266 0.961 . S
C259 H267 0.960 . S
C260 C258 1.381 . S
C260 C261 1.394 . S
C260 H268 0.930 . S
C261 C260 1.394 . S
C261 C262 1.383 . S
C261 H269 0.929 . S
C262 C261 1.383 . S
C262 C263 1.377 . S
C263 H247 0.930 . S
C263 C262 1.377 . S
C263 C264 1.379 . S
C264 H248 0.931 . S
C264 C258 1.383 . S
C264 C263 1.379 . S
H265 C259 0.959 . S
H266 C259 0.961 . S
H267 C259 0.960 . S
H268 C260 0.930 . S
H269 C261 0.929 . S
H270 C278 0.929 . S
H271 C280 0.930 . S
H272 C282 0.930 . S
H273 C285 0.929 . S
H274 C288 0.930 . S
H275 C290 0.960 . S
H276 C290 0.960 . S
H277 C290 0.960 . S
C278 H270 0.929 . S
C278 C279 1.377 1_565 S
C278 C280 1.384 . S
C279 C278 1.377 1_545 S
C279 C285 1.390 . S
C280 H271 0.930 . S
C280 C278 1.384 . S
C280 C281 1.372 1_565 S
C281 C280 1.372 1_545 S
C281 C282 1.400 . S
C281 C286 1.490 . S
C282 H272 0.930 . S
C282 C281 1.400 . S
C282 C285 1.386 . S
H283 C299 0.930 . S
H284 C300 0.931 . S
C285 H273 0.929 . S
C285 C279 1.390 . S
C285 C282 1.386 . S
C286 C281 1.490 . S
C286 C288 1.395 1_545 S
C286 C289 1.403 . S
H287 C293 0.930 . S
C288 H274 0.930 . S
C288 C286 1.395 1_565 S
C288 C291 1.403 . S
C289 C286 1.403 . S
C289 C290 1.524 . S
C289 C293 1.400 . S
C290 H275 0.960 . S
C290 H276 0.960 . S
C290 H277 0.960 . S
C290 C289 1.524 . S
C291 C288 1.403 . S
C291 C292 1.392 1_565 S
C291 C295 1.495 . S
C292 C291 1.392 1_545 S
C292 C293 1.385 . S
C292 C294 1.478 . S
C293 H287 0.930 . S
C293 C289 1.400 . S
C293 C292 1.385 . S
C294 C292 1.478 . S
C294 C296 1.381 1_545 S
C294 C300 1.383 . S
C295 C291 1.495 . S
C295 H301 0.959 . S
C295 H302 0.961 1_565 S
C295 H303 0.960 . S
C296 C294 1.381 1_565 S
C296 C297 1.394 . S
C296 H304 0.930 . S
C297 C296 1.394 . S
C297 C298 1.383 1_565 S
C297 H305 0.929 . S
C298 C297 1.383 1_545 S
C298 C299 1.377 . S
C299 H283 0.930 . S
C299 C298 1.377 . S
C299 C300 1.379 . S
C300 H284 0.931 . S
C300 C294 1.383 . S
C300 C299 1.379 . S
H301 C295 0.959 . S
H302 C295 0.961 1_545 S
H303 C295 0.960 . S
H304 C296 0.930 . S
H305 C297 0.929 . S
H306 C314 0.929 . S
H307 C316 0.930 . S
H308 C318 0.930 . S
H309 C321 0.929 . S
H310 C324 0.930 . S
H311 C326 0.960 1_655 S
H312 C326 0.960 1_655 S
H313 C326 0.960 . S
C314 H306 0.929 . S
C314 C315 1.377 . S
C314 C316 1.384 . S
C315 C314 1.377 . S
C315 C321 1.390 . S
C316 H307 0.930 . S
C316 C314 1.384 . S
C316 C317 1.372 . S
C317 C316 1.372 . S
C317 C318 1.400 . S
C317 C322 1.490 . S
C318 H308 0.930 . S
C318 C317 1.400 . S
C318 C321 1.386 . S
H319 C335 0.930 . S
H320 C336 0.931 . S
C321 H309 0.929 . S
C321 C315 1.390 . S
C321 C318 1.386 . S
C322 C317 1.490 . S
C322 C324 1.395 . S
C322 C325 1.403 . S
H323 C329 0.930 . S
C324 H310 0.930 . S
C324 C322 1.395 . S
C324 C327 1.403 . S
C325 C322 1.403 . S
C325 C326 1.524 . S
C325 C329 1.400 . S
C326 H311 0.960 1_455 S
C326 H312 0.960 1_455 S
C326 H313 0.960 . S
C326 C325 1.524 . S
C327 C324 1.403 . S
C327 C328 1.392 . S
C327 C331 1.495 . S
C328 C327 1.392 . S
C328 C329 1.385 . S
C328 C330 1.478 . S
C329 H323 0.930 . S
C329 C325 1.400 . S
C329 C328 1.385 . S
C330 C328 1.478 . S
C330 C332 1.381 . S
C330 C336 1.383 . S
C331 C327 1.495 . S
C331 H337 0.959 . S
C331 H338 0.961 . S
C331 H339 0.960 . S
C332 C330 1.381 . S
C332 C333 1.394 . S
C332 H340 0.930 . S
C333 C332 1.394 . S
C333 C334 1.383 . S
C333 H341 0.929 . S
C334 C333 1.383 . S
C334 C335 1.377 . S
C335 H319 0.930 . S
C335 C334 1.377 . S
C335 C336 1.379 . S
C336 H320 0.931 . S
C336 C330 1.383 . S
C336 C335 1.379 . S
H337 C331 0.959 . S
H338 C331 0.961 . S
H339 C331 0.960 . S
H340 C332 0.930 . S
H341 C333 0.929 . S
C82 C31 1.244 . S
C63 C5 1.381 . S
C118 C51 1.444 . S
C99 C23 1.459 . S
C154 C30 1.364 1_655 S
C135 C3 1.409 . S
C190 C52 1.488 . S
C171 C14 1.484 . S
C226 C44 1.446 . S
C207 C1 1.488 . S
C262 C37 1.334 . S
C243 C16 1.377 . S
C298 C45 1.206 . S
C279 C10 1.453 . S
C315 C18 1.404 . S
C334 C38 1.403 . S
