# Generated by pormake.
# Topology zzz, (3,6)-cn, num edge types: 1
# Building blocks:
#     Node 0, Type 0, BuildingBlock: OLANEW_clean_sbu_2, # of connection points: 3
#     Node 1, Type 0, BuildingBlock: OLANEW_clean_sbu_2, # of connection points: 3
#     Node 2, Type 0, BuildingBlock: OLANEW_clean_sbu_2, # of connection points: 3
#     Node 3, Type 0, BuildingBlock: OLANEW_clean_sbu_2, # of connection points: 3
#     Node 4, Type 0, BuildingBlock: OLANEW_clean_sbu_2, # of connection points: 3
#     Node 5, Type 0, BuildingBlock: OLANEW_clean_sbu_2, # of connection points: 3
#     Node 6, Type 0, BuildingBlock: OLANEW_clean_sbu_2, # of connection points: 3
#     Node 7, Type 0, BuildingBlock: OLANEW_clean_sbu_2, # of connection points: 3
#     Node 8, Type 1, BuildingBlock: PAMTUU_clean_sbu_0, # of connection points: 6
#     Node 9, Type 1, BuildingBlock: PAMTUU_clean_sbu_0, # of connection points: 6
#     Node 10, Type 1, BuildingBlock: PAMTUU_clean_sbu_0, # of connection points: 6
#     Node 11, Type 1, BuildingBlock: PAMTUU_clean_sbu_0, # of connection points: 6
#     Edge 12, Type (0, 1), BuildingBlock: XIVTED_clean_linker_0, # of connection points: 2
#     Edge 13, Type (0, 1), BuildingBlock: XIVTED_clean_linker_0, # of connection points: 2
#     Edge 14, Type (0, 1), BuildingBlock: XIVTED_clean_linker_0, # of connection points: 2
#     Edge 15, Type (0, 1), BuildingBlock: XIVTED_clean_linker_0, # of connection points: 2
#     Edge 16, Type (0, 1), BuildingBlock: XIVTED_clean_linker_0, # of connection points: 2
#     Edge 17, Type (0, 1), BuildingBlock: XIVTED_clean_linker_0, # of connection points: 2
#     Edge 18, Type (0, 1), BuildingBlock: XIVTED_clean_linker_0, # of connection points: 2
#     Edge 19, Type (0, 1), BuildingBlock: XIVTED_clean_linker_0, # of connection points: 2
#     Edge 20, Type (0, 1), BuildingBlock: XIVTED_clean_linker_0, # of connection points: 2
#     Edge 21, Type (0, 1), BuildingBlock: XIVTED_clean_linker_0, # of connection points: 2
#     Edge 22, Type (0, 1), BuildingBlock: XIVTED_clean_linker_0, # of connection points: 2
#     Edge 23, Type (0, 1), BuildingBlock: XIVTED_clean_linker_0, # of connection points: 2
#     Edge 24, Type (0, 1), BuildingBlock: XIVTED_clean_linker_0, # of connection points: 2
#     Edge 25, Type (0, 1), BuildingBlock: XIVTED_clean_linker_0, # of connection points: 2
#     Edge 26, Type (0, 1), BuildingBlock: XIVTED_clean_linker_0, # of connection points: 2
#     Edge 27, Type (0, 1), BuildingBlock: XIVTED_clean_linker_0, # of connection points: 2
#     Edge 28, Type (0, 1), BuildingBlock: XIVTED_clean_linker_0, # of connection points: 2
#     Edge 29, Type (0, 1), BuildingBlock: XIVTED_clean_linker_0, # of connection points: 2
#     Edge 30, Type (0, 1), BuildingBlock: XIVTED_clean_linker_0, # of connection points: 2
#     Edge 31, Type (0, 1), BuildingBlock: XIVTED_clean_linker_0, # of connection points: 2
#     Edge 32, Type (0, 1), BuildingBlock: XIVTED_clean_linker_0, # of connection points: 2
#     Edge 33, Type (0, 1), BuildingBlock: XIVTED_clean_linker_0, # of connection points: 2
#     Edge 34, Type (0, 1), BuildingBlock: XIVTED_clean_linker_0, # of connection points: 2
#     Edge 35, Type (0, 1), BuildingBlock: XIVTED_clean_linker_0, # of connection points: 2
# Relax obj value: 0.201
# Max RMSD: 0.228
# Mean RMSD: 0.130
data_MOF--net-zzz--node1-OLANEW_clean_sbu_2--node2-PAMTUU_clean_sbu_0--edge1-XIVTED_clean_linker_0
_symmetry_space_group_name_H-M    P1
_symmetry_Int_Tables_number       1
_symmetry_cell_setting            triclinic
loop_
_symmetry_equiv_pos_as_xyz
'x, y, z'
_cell_length_a     55.429773
_cell_length_b     57.43392
_cell_length_c     17.52435
_cell_angle_alpha  100.74365
_cell_angle_beta   90.021781
_cell_angle_gamma 90.674007
loop_
_atom_site_label
_atom_site_type_symbol
_atom_site_fract_x
_atom_site_fract_y
_atom_site_fract_z
_atom_type_partial_charge
O0 O 0.73809 0.5928 0.30995 0.0
Cd1 Cd 0.70091 0.61093 0.36557 0.0
O2 O 0.73755 0.57056 0.39882 0.0
Cd3 Cd 0.75567 0.54645 0.4616 0.0
O4 O 0.788 0.53307 0.50756 0.0
C5 C 0.80751 0.54378 0.49636 0.0
O6 O 0.80669 0.56152 0.45875 0.0
C7 C 0.74737 0.5764 0.33945 0.0
C8 C 0.66265 0.58652 0.2833 0.0
O9 O 0.67305 0.60402 0.26036 0.0
O10 O 0.66979 0.58098 0.34708 0.0
O11 O 0.88832 0.76023 0.16683 0.0
Cd12 Cd 0.86756 0.72307 0.17255 0.0
O13 O 0.91151 0.7561 0.26478 0.0
Cd14 Cd 0.94145 0.76693 0.34498 0.0
O15 O 0.9612 0.79453 0.42296 0.0
C16 C 0.95575 0.79921 0.49452 0.0
O17 O 0.93968 0.78582 0.52144 0.0
C18 C 0.90543 0.76791 0.21329 0.0
C19 C 0.89882 0.68572 0.12456 0.0
O20 O 0.88701 0.69502 0.07522 0.0
O21 O 0.89563 0.69387 0.19701 0.0
O22 O 0.75747 0.9137 0.24744 0.0
Cd23 Cd 0.79519 0.89645 0.27937 0.0
O24 O 0.75705 0.93659 0.36261 0.0
Cd25 Cd 0.73775 0.96066 0.45248 0.0
O26 O 0.7055 0.97445 0.51505 0.0
C27 C 0.68574 0.96502 0.4874 0.0
O28 O 0.68631 0.94828 0.42511 0.0
C29 C 0.74755 0.92995 0.29588 0.0
C30 C 0.83251 0.91921 0.21573 0.0
O31 O 0.82173 0.90105 0.17613 0.0
O32 O 0.82606 0.92627 0.2864 0.0
O33 O 0.57849 0.72504 0.83836 0.0
Cd34 Cd 0.6031 0.75919 0.82284 0.0
O35 O 0.59811 0.7231 0.94587 0.0
Cd36 Cd 0.60489 0.70622 0.04618 0.0
O37 O 0.60659 0.68045 0.12349 0.0
C38 C 0.58755 0.66865 0.1319 0.0
O39 O 0.5676 0.67327 0.09737 0.0
C40 C 0.58225 0.71474 0.89528 0.0
C41 C 0.57675 0.80071 0.84835 0.0
O42 O 0.57683 0.78701 0.78166 0.0
O43 O 0.58913 0.79472 0.90325 0.0
O44 O 0.28024 0.49659 0.25036 0.0
Cd45 Cd 0.31615 0.48655 0.17025 0.0
O46 O 0.26696 0.46056 0.20564 0.0
Cd47 Cd 0.2369 0.43543 0.18184 0.0
O48 O 0.20188 0.43224 0.1248 0.0
C49 C 0.18253 0.4362 0.16358 0.0
O50 O 0.18356 0.43973 0.23973 0.0
C51 C 0.26398 0.48074 0.2486 0.0
C52 C 0.35642 0.48857 0.2658 0.0
O53 O 0.3506 0.50644 0.23576 0.0
O54 O 0.34354 0.46963 0.24893 0.0
O55 O 0.04275 0.23466 0.3423 0.0
Cd56 Cd 0.05945 0.26384 0.27162 0.0
O57 O 0.07775 0.23233 0.39911 0.0
Cd58 Cd 0.09617 0.24217 0.29971 0.0
O59 O 0.0967 0.21231 0.20246 0.0
C60 C 0.07925 0.20936 0.15448 0.0
O61 O 0.06337 0.22629 0.15742 0.0
C62 C 0.05523 0.22771 0.3945 0.0
C63 C 0.05162 0.30809 0.36236 0.0
O64 O 0.0372 0.29962 0.30664 0.0
O65 O 0.07012 0.29596 0.37339 0.0
O66 O 0.21329 0.93099 0.2629 0.0
Cd67 Cd 0.17289 0.92802 0.20802 0.0
O68 O 0.21621 0.96686 0.23713 0.0
Cd69 Cd 0.23869 0.99747 0.22536 0.0
O70 O 0.27244 0.01228 0.19047 0.0
C71 C 0.29068 -0.00056 0.19521 0.0
O72 O 0.28768 0.97937 0.21969 0.0
C73 C 0.22507 0.95026 0.26682 0.0
C74 C 0.14297 0.94536 0.33179 0.0
O75 O 0.14833 0.92335 0.31545 0.0
O76 O 0.15092 0.95905 0.28724 0.0
O77 O 0.50415 0.27311 0.64306 0.0
Cd78 Cd 0.50869 0.23308 0.56982 0.0
O79 O 0.4764 0.27793 0.55812 0.0
Cd80 Cd 0.45236 0.3013 0.50847 0.0
O81 O 0.43889 0.33053 0.45697 0.0
C82 C 0.43678 0.35123 0.49736 0.0
O83 O 0.44129 0.35472 0.57223 0.0
C84 C 0.48964 0.28648 0.61614 0.0
C85 C 0.49599 0.19767 0.65055 0.0
O86 O 0.51691 0.20757 0.65887 0.0
O87 O 0.48085 0.20487 0.60496 0.0
Tb88 Tb 0.98915 0.01441 0.82197 0.0
Tb89 Tb 0.01726 0.99082 0.95403 0.0
C90 C 0.96207 0.99871 0.95761 0.0
C91 C 0.97417 0.05839 0.70345 0.0
C92 C 0.9877 0.10045 0.65296 0.0
C93 C 0.97107 0.08445 0.60986 0.0
C94 C 0.96436 0.06357 0.63503 0.0
C95 C 0.99046 0.0744 0.74722 0.0
C96 C 0.99702 0.09531 0.72257 0.0
C97 C 0.96854 0.03578 0.72725 0.0
O98 O -0.00061 0.04225 0.91893 0.0
O99 O 0.03297 0.02597 0.96271 0.0
O100 O 0.04082 0.9863 0.85342 0.0
O101 O 0.0273 0.01679 0.79691 0.0
O102 O 0.02416 0.9918 0.07263 0.0
O103 O 0.03813 0.96379 0.98543 0.0
O104 O 0.99556 0.96257 0.88619 0.0
O105 O 0.99243 0.97698 0.77275 0.0
O106 O 0.96173 0.9978 0.88246 0.0
O107 O 0.98215 0.00373 0.99698 0.0
C108 C 0.02048 0.04456 0.95394 0.0
O109 O 0.98443 0.01924 0.70707 0.0
O110 O 0.96189 0.03727 0.79939 0.0
C111 C 0.04308 0.00027 0.80222 0.0
C112 C 0.02039 0.95278 0.09399 0.0
C113 C 0.99573 0.9144 0.13901 0.0
C114 C 0.02038 0.91842 0.15661 0.0
C115 C 0.0327 0.93747 0.13372 0.0
C116 C 0.99557 0.94935 0.0797 0.0
C117 C 0.98336 0.93041 0.10208 0.0
C118 C 0.03331 0.97061 0.05888 0.0
C119 C 0.99207 0.95929 0.81076 0.0
H120 H 0.96381 0.08766 0.55544 0.0
H121 H 0.95192 0.05126 0.60026 0.0
H122 H 0.99838 0.07054 0.79988 0.0
H123 H 0.00958 0.10736 0.75781 0.0
H124 H 0.03035 0.90624 0.18466 0.0
H125 H 0.05191 0.93972 0.14448 0.0
H126 H 0.98577 0.96083 0.04846 0.0
H127 H 0.96431 0.92793 0.08863 0.0
Tb128 Tb 0.475 0.98932 0.78583 0.0
Tb129 Tb 0.50619 0.01449 0.94167 0.0
C130 C 0.50314 0.96 0.88976 0.0
C131 C 0.42784 0.96893 0.62956 0.0
C132 C 0.38407 0.96789 0.54655 0.0
C133 C 0.39326 0.94711 0.56656 0.0
C134 C 0.41492 0.94765 0.6073 0.0
C135 C 0.41865 0.9899 0.61107 0.0
C136 C 0.39691 0.98937 0.56982 0.0
C137 C 0.45096 0.96821 0.67031 0.0
O138 O 0.44879 0.00692 0.8673 0.0
O139 O 0.47025 0.00554 0.97813 0.0
O140 O 0.48693 0.04327 0.90611 0.0
O141 O 0.47949 0.02646 0.77784 0.0
O142 O 0.51389 0.01447 0.05885 0.0
O143 O 0.53095 0.03983 0.99909 0.0
O144 O 0.52996 0.0141 0.84277 0.0
O145 O 0.51264 0.98363 0.75534 0.0
O146 O 0.48254 0.96265 0.85578 0.0
O147 O 0.51754 0.97806 0.91394 0.0
C148 C 0.44981 0.00786 0.9425 0.0
O149 O 0.46702 0.98475 0.66655 0.0
O150 O 0.44972 0.96303 0.73945 0.0
C151 C 0.48141 0.04502 0.83445 0.0
C152 C 0.55459 0.02295 0.08563 0.0
C153 C 0.59756 0.0047 0.13566 0.0
C154 C 0.58369 0.02087 0.18758 0.0
C155 C 0.56231 0.02986 0.16272 0.0
C156 C 0.56863 0.00729 0.03321 0.0
C157 C 0.58993 0.99829 0.05793 0.0
C158 C 0.531 0.03033 0.06114 0.0
C159 C 0.53083 0.99806 0.7787 0.0
H160 H 0.38364 0.93037 0.55124 0.0
H161 H 0.42166 0.9313 0.6213 0.0
H162 H 0.42831 0.00657 0.62786 0.0
H163 H 0.39039 0.00566 0.555 0.0
H164 H 0.58895 0.02598 0.24797 0.0
H165 H 0.55152 0.04175 0.20406 0.0
H166 H 0.56285 0.00165 0.97346 0.0
H167 H 0.60037 0.98618 0.01619 0.0
Tb168 Tb 0.48225 0.51037 0.88419 0.0
Tb169 Tb 0.52595 0.50748 0.7532 0.0
C170 C 0.47294 0.51295 0.70912 0.0
C171 C 0.44474 0.5005 0.05141 0.0
C172 C 0.43581 0.47543 0.17246 0.0
C173 C 0.41656 0.48389 0.13348 0.0
C174 C 0.42101 0.49638 0.07355 0.0
C175 C 0.46403 0.49258 0.09129 0.0
C176 C 0.4596 0.48026 0.15162 0.0
C177 C 0.44906 0.51187 0.98403 0.0
O178 O 0.49459 0.47381 0.86311 0.0
O179 O 0.50874 0.47307 0.73965 0.0
O180 O 0.54173 0.49555 0.85233 0.0
O181 O 0.51618 0.51423 0.94726 0.0
O182 O 0.53698 0.49564 0.63782 0.0
O183 O 0.56149 0.51493 0.72295 0.0
O184 O 0.52714 0.5424 0.82389 0.0
O185 O 0.48742 0.5462 0.86104 0.0
O186 O 0.46615 0.50389 0.76919 0.0
O187 O 0.49463 0.52202 0.7054 0.0
C188 C 0.50069 0.46216 0.79408 0.0
O189 O 0.46699 0.52697 0.98978 0.0
O190 O 0.44878 0.4977 0.91673 0.0
C191 C 0.53719 0.50502 0.92511 0.0
C192 C 0.56445 0.52173 0.59382 0.0
C193 C 0.57474 0.55058 0.48379 0.0
C194 C 0.57254 0.52587 0.46061 0.0
C195 C 0.56754 0.51158 0.51525 0.0
C196 C 0.56683 0.54642 0.61725 0.0
C197 C 0.57208 0.56069 0.56277 0.0
C198 C 0.55783 0.5064 0.64953 0.0
C199 C 0.50885 0.5554 0.85235 0.0
H200 H 0.39806 0.48053 0.14851 0.0
H201 H 0.4059 0.50235 0.04328 0.0
H202 H 0.4825 0.4954 0.07457 0.0
H203 H 0.47481 0.47366 0.17973 0.0
H204 H 0.57466 0.51761 0.40021 0.0
H205 H 0.56575 0.49258 0.49596 0.0
H206 H 0.56429 0.55477 0.67739 0.0
H207 H 0.57335 0.57971 0.58211 0.0
Tb208 Tb 0.0182 0.51362 0.7654 0.0
Tb209 Tb 0.9844 0.48452 0.87393 0.0
C210 C 0.98923 0.53998 0.91059 0.0
C211 C 0.06776 0.52836 0.63736 0.0
C212 C 0.11041 0.51789 0.55001 0.0
C213 C 0.10512 0.54135 0.58526 0.0
C214 C 0.084 0.54651 0.62832 0.0
C215 C 0.07293 0.50488 0.60297 0.0
C216 C 0.09402 0.4997 0.55944 0.0
C217 C 0.04581 0.53429 0.68384 0.0
O218 O 0.04202 0.49241 0.82206 0.0
O219 O 0.01919 0.49233 0.93027 0.0
O220 O 0.00416 0.4574 0.79665 0.0
O221 O 0.0112 0.47832 0.69848 0.0
O222 O 0.9783 0.47466 0.98185 0.0
O223 O 0.95388 0.46332 0.88642 0.0
O224 O 0.9633 0.48894 0.77317 0.0
O225 O 0.98122 0.52237 0.74361 0.0
O226 O 0.00907 0.53928 0.86909 0.0
O227 O 0.97523 0.52137 0.90964 0.0
C228 C 0.03993 0.48952 0.89417 0.0
O229 O 0.02604 0.52298 0.65781 0.0
O230 O 0.04825 0.5358 0.75861 0.0
C231 C 0.00983 0.45826 0.72434 0.0
C232 C 0.93655 0.47581 0.00984 0.0
C233 C 0.89598 0.49719 0.09075 0.0
C234 C 0.89404 0.47455 0.04349 0.0
C235 C 0.91414 0.46399 0.00334 0.0
C236 C 0.93866 0.49812 0.05872 0.0
C237 C 0.91863 0.50866 0.09872 0.0
C238 C 0.95706 0.46576 0.96112 0.0
C239 C 0.9628 0.50763 0.73997 0.0
H240 H 0.11748 0.55576 0.58064 0.0
H241 H 0.0804 0.56471 0.65503 0.0
H242 H 0.06066 0.49057 0.60963 0.0
H243 H 0.09731 0.48147 0.5325 0.0
H244 H 0.87682 0.46531 0.03547 0.0
H245 H 0.91205 0.44685 0.9656 0.0
H246 H 0.9557 0.50769 0.06505 0.0
H247 H 0.92089 0.52592 0.13559 0.0
H248 H 0.12467 0.98999 0.37615 0.0
H249 H 0.07514 0.96382 0.78069 0.0
H250 H 0.13017 0.92245 0.44902 0.0
H251 H 0.05365 0.02461 0.68541 0.0
H252 H 0.10115 0.95165 0.66865 0.0
H253 H 0.10321 0.00556 0.49673 0.0
C254 C 0.12131 0.97842 0.41736 0.0
C255 C 0.12908 0.95484 0.40236 0.0
C256 C 0.09089 0.96776 0.67259 0.0
C257 C 0.10495 0.97262 0.54052 0.0
C258 C 0.07615 0.97484 0.7369 0.0
C259 C 0.06197 0.99515 0.74217 0.0
C260 C 0.09153 0.9811 0.61316 0.0
C261 C 0.06412 0.00872 0.68352 0.0
C262 C 0.10913 0.98734 0.48616 0.0
C263 C 0.12435 0.94068 0.4579 0.0
N264 N 0.07848 0.00134 0.62107 0.0
N265 N 0.11264 0.94981 0.52456 0.0
H266 H 0.51897 0.18471 0.77371 0.0
H267 H 0.46002 0.05691 0.70645 0.0
H268 H 0.45982 0.16473 0.61375 0.0
H269 H 0.49699 0.08734 0.9193 0.0
H270 H 0.45989 0.096 0.67003 0.0
H271 H 0.51159 0.14894 0.82736 0.0
C272 C 0.50429 0.17289 0.7504 0.0
C273 C 0.49008 0.17756 0.68888 0.0
C274 C 0.46773 0.09415 0.72516 0.0
C275 C 0.48175 0.13654 0.74919 0.0
C276 C 0.4679 0.07185 0.74584 0.0
C277 C 0.47871 0.06885 0.8157 0.0
C278 C 0.47884 0.11345 0.77403 0.0
C279 C 0.48849 0.08884 0.86483 0.0
C280 C 0.50003 0.15254 0.7812 0.0
C281 C 0.4712 0.16175 0.66113 0.0
N282 N 0.48864 0.11024 0.84252 0.0
N283 N 0.4678 0.14172 0.69074 0.0
H284 H 0.36637 0.45811 0.36353 0.0
H285 H 0.47682 0.53352 0.57956 0.0
H286 H 0.3916 0.523 0.298 0.0
H287 H 0.43251 0.48527 0.68231 0.0
H288 H 0.45042 0.52629 0.46463 0.0
H289 H 0.39617 0.46362 0.46802 0.0
C290 C 0.37831 0.47343 0.37072 0.0
C291 C 0.37627 0.49033 0.32282 0.0
C292 C 0.44654 0.51741 0.51266 0.0
C293 C 0.41037 0.49675 0.44238 0.0
C294 C 0.46152 0.52154 0.57819 0.0
C295 C 0.45674 0.51017 0.64096 0.0
C296 C 0.42696 0.50152 0.5097 0.0
C297 C 0.43678 0.49466 0.63581 0.0
C298 C 0.3952 0.47665 0.4307 0.0
C299 C 0.39238 0.50973 0.3344 0.0
N300 N 0.42272 0.49074 0.57129 0.0
N301 N 0.40875 0.51248 0.39331 0.0
H302 H 0.06973 0.32416 0.50773 0.0
H303 H 0.00746 0.45 0.56606 0.0
H304 H 0.02161 0.34329 0.33636 0.0
H305 H 0.02522 0.41636 0.7592 0.0
H306 H 0.018 0.41354 0.47659 0.0
H307 H 0.05931 0.36081 0.59656 0.0
C308 C 0.05713 0.33617 0.48858 0.0
C309 C 0.04649 0.33072 0.41464 0.0
C310 C 0.01949 0.41416 0.53857 0.0
C311 C 0.03465 0.37256 0.51561 0.0
C312 C 0.01357 0.43493 0.58962 0.0
C313 C 0.01541 0.43613 0.67012 0.0
C314 C 0.02778 0.39465 0.56824 0.0
C315 C 0.02337 0.41609 0.69753 0.0
C316 C 0.05108 0.35695 0.53945 0.0
C317 C 0.03015 0.34681 0.39297 0.0
N318 N 0.02947 0.39619 0.64658 0.0
N319 N 0.02481 0.36711 0.44315 0.0
H320 H 0.86355 0.95394 0.28778 0.0
H321 H 0.92121 0.97697 0.89011 0.0
H322 H 0.84405 0.91394 0.06208 0.0
H323 H 0.95502 0.00087 0.1135 0.0
H324 H 0.88889 0.95868 0.95394 0.0
H325 H 0.89391 0.97558 0.22603 0.0
C326 C 0.86566 0.9497 0.2253 0.0
C327 C 0.85133 0.93206 0.17998 0.0
C328 C 0.90331 0.96807 0.989 0.0
C329 C 0.88572 0.9569 0.10915 0.0
C330 C 0.92167 0.97869 0.95271 0.0
C331 C 0.94088 0.99043 0.99653 0.0
C332 C 0.90405 0.96935 0.06975 0.0
C333 C 0.94057 0.99196 0.07744 0.0
C334 C 0.88297 0.96205 0.19017 0.0
C335 C 0.8548 0.92731 0.09929 0.0
N336 N 0.92248 0.98145 0.11148 0.0
N337 N 0.87159 0.93972 0.06643 0.0
H338 H 0.54222 0.81429 0.75486 0.0
H339 H 0.54016 0.94774 0.97705 0.0
H340 H 0.5807 0.83811 0.96999 0.0
H341 H 0.48495 0.91758 0.81289 0.0
H342 H 0.556 0.90804 0.97398 0.0
H343 H 0.52177 0.85238 0.77278 0.0
C344 C 0.54629 0.8275 0.80605 0.0
C345 C 0.56328 0.8231 0.86082 0.0
C346 C 0.54025 0.9101 0.93934 0.0
C347 C 0.54009 0.86673 0.88135 0.0
C348 C 0.53122 0.93274 0.94092 0.0
C349 C 0.51127 0.93597 0.89484 0.0
C350 C 0.52948 0.89061 0.89041 0.0
C351 C 0.50036 0.91591 0.84936 0.0
C352 C 0.53453 0.84919 0.8164 0.0
C353 C 0.56774 0.8408 0.9263 0.0
N354 N 0.5098 0.89409 0.84757 0.0
N355 N 0.5564 0.86196 0.93435 0.0
H356 H 0.6308 0.55395 0.32437 0.0
H357 H 0.58494 0.50899 0.8924 0.0
H358 H 0.65233 0.5865 0.13154 0.0
H359 H 0.53524 0.5134 0.0841 0.0
H360 H 0.61645 0.52663 0.98345 0.0
H361 H 0.60108 0.52959 0.23934 0.0
C362 C 0.62931 0.55595 0.26431 0.0
C363 C 0.64396 0.57233 0.23493 0.0
C364 C 0.59874 0.52329 0.00551 0.0
C365 C 0.61082 0.54417 0.13785 0.0
C366 C 0.58083 0.51298 0.95385 0.0
C367 C 0.55741 0.50988 0.98075 0.0
C368 C 0.59329 0.53011 0.08459 0.0
C369 C 0.55306 0.51567 0.06104 0.0
C370 C 0.61245 0.54205 0.2161 0.0
C371 C 0.64131 0.57422 0.15674 0.0
N372 N 0.57085 0.52567 0.11038 0.0
N373 N 0.6252 0.56017 0.11074 0.0
H374 H 0.92035 0.67374 0.98292 0.0
H375 H 0.96136 0.54795 0.04065 0.0
H376 H 0.91506 0.65287 0.20655 0.0
H377 H 0.99705 0.58401 0.8765 0.0
H378 H 0.94238 0.58518 0.09974 0.0
H379 H 0.94645 0.63984 0.93835 0.0
C380 C 0.92475 0.66205 0.02267 0.0
C381 C 0.91544 0.66598 0.09834 0.0
C382 C 0.95467 0.58502 0.0516 0.0
C383 C 0.94503 0.6272 0.0476 0.0
C384 C 0.96545 0.5638 0.01778 0.0
C385 C 0.98073 0.56294 0.95356 0.0
C386 C 0.95874 0.60536 0.01968 0.0
C387 C 0.98547 0.58397 0.92621 0.0
C388 C 0.93976 0.64285 0.9974 0.0
C389 C 0.92186 0.65043 0.14772 0.0
N390 N 0.97416 0.6043 0.9586 0.0
N391 N 0.93601 0.63148 0.12111 0.0
H392 H 0.07714 0.20798 0.50676 0.0
H393 H 0.96153 0.13022 0.57913 0.0
H394 H 0.00816 0.21254 0.39617 0.0
H395 H 0.03347 0.11921 0.65917 0.0
H396 H 0.97684 0.1638 0.52494 0.0
H397 H 0.05971 0.17932 0.57828 0.0
C398 C 0.05826 0.20315 0.49804 0.0
C399 C 0.04416 0.21252 0.44476 0.0
C400 C 0.98921 0.15411 0.55487 0.0
C401 C 0.02412 0.17953 0.52618 0.0
C402 C 0.98052 0.13485 0.58544 0.0
C403 C 0.99623 0.12176 0.6236 0.0
C404 C 0.01378 0.16035 0.56257 0.0
C405 C 0.02058 0.1289 0.63121 0.0
C406 C 0.04833 0.18671 0.53876 0.0
C407 C 0.01975 0.20565 0.43625 0.0
N408 N 0.02859 0.14761 0.60072 0.0
N409 N 0.01054 0.18944 0.4761 0.0
H410 H 0.26054 0.91746 0.25907 0.0
H411 H 0.34701 -3e-05 0.56455 0.0
H412 H 0.24305 0.98923 0.36401 0.0
H413 H 0.36887 0.9334 0.42578 0.0
H414 H 0.30855 0.99636 0.49441 0.0
H415 H 0.2998 0.92246 0.32467 0.0
C416 C 0.26507 0.93429 0.29578 0.0
C417 C 0.24887 0.95313 0.30502 0.0
C418 C 0.32182 0.9826 0.47925 0.0
C419 C 0.29346 0.95893 0.38111 0.0
C420 C 0.34385 0.98471 0.51895 0.0
C421 C 0.36116 0.96685 0.50168 0.0
C422 C 0.31702 0.96243 0.4221 0.0
C423 C 0.3559 0.94736 0.44242 0.0
C424 C 0.28746 0.93718 0.33306 0.0
C425 C 0.25536 0.97449 0.35402 0.0
N426 N 0.33429 0.94562 0.40518 0.0
N427 N 0.27717 0.97682 0.3904 0.0
H428 H 0.49294 0.32082 0.53088 0.0
H429 H 0.49282 0.42975 0.89081 0.0
H430 H 0.48936 0.31014 0.76762 0.0
H431 H 0.50225 0.43518 0.65 0.0
H432 H 0.48974 0.38633 0.85079 0.0
H433 H 0.4951 0.36334 0.57711 0.0
C434 C 0.49218 0.32757 0.59283 0.0
C435 C 0.49031 0.31215 0.64556 0.0
C436 C 0.4925 0.39716 0.80711 0.0
C437 C 0.4931 0.36093 0.69962 0.0
C438 C 0.49419 0.42188 0.82983 0.0
C439 C 0.498 0.43612 0.77382 0.0
C440 C 0.49448 0.38687 0.72801 0.0
C441 C 0.4996 0.42503 0.69558 0.0
C442 C 0.49368 0.35186 0.61944 0.0
C443 C 0.49043 0.32166 0.72534 0.0
N444 N 0.49784 0.40119 0.67527 0.0
N445 N 0.4916 0.34558 0.75022 0.0
H446 H 0.23851 0.45162 0.32614 0.0
H447 H 0.1324 0.54401 0.45252 0.0
H448 H 0.23881 0.52212 0.27457 0.0
H449 H 0.14007 0.4794 0.54245 0.0
H450 H 0.16995 0.53535 0.38064 0.0
H451 H 0.20119 0.46055 0.3998 0.0
C452 C 0.23052 0.4689 0.32966 0.0
C453 C 0.24147 0.48604 0.29324 0.0
C454 C 0.16343 0.52309 0.41619 0.0
C455 C 0.19881 0.49643 0.37743 0.0
C456 C 0.14201 0.52807 0.45764 0.0
C457 C 0.13299 0.51249 0.50416 0.0
C458 C 0.17596 0.50229 0.42068 0.0
C459 C 0.14606 0.49182 0.50677 0.0
C460 C 0.20934 0.47407 0.3722 0.0
C461 C 0.2308 0.50838 0.30146 0.0
N462 N 0.16684 0.48734 0.46567 0.0
N463 N 0.20993 0.51288 0.34212 0.0
H464 H 0.91536 0.78276 0.07855 0.0
H465 H 0.9956 0.89507 0.27153 0.0
H466 H 0.9245 0.80313 0.32642 0.0
H467 H 0.96743 0.88427 0.0379 0.0
H468 H 0.97362 0.85925 0.29191 0.0
H469 H 0.93786 0.81822 0.06148 0.0
C470 C 0.92225 0.79466 0.12943 0.0
C471 C 0.91871 0.78964 0.20389 0.0
C472 C 0.97225 0.86482 0.23634 0.0
C473 C 0.94452 0.83028 0.18493 0.0
C474 C 0.98486 0.88512 0.22462 0.0
C475 C 0.98313 0.89271 0.1532 0.0
C476 C 0.95819 0.85192 0.17573 0.0
C477 C 0.96895 0.87925 0.09427 0.0
C478 C 0.93513 0.81487 0.11969 0.0
C479 C 0.92786 0.80573 0.26785 0.0
N480 N 0.9571 0.85953 0.10679 0.0
N481 N 0.94048 0.82532 0.25695 0.0
H482 H 0.71053 0.908 0.2072 0.0
H483 H 0.633 0.02627 0.23491 0.0
H484 H 0.7339 0.97628 0.3333 0.0
H485 H 0.61196 0.95855 0.09838 0.0
H486 H 0.66911 0.00801 0.27711 0.0
H487 H 0.67353 0.92603 0.17045 0.0
C488 C 0.70775 0.92677 0.22755 0.0
C489 C 0.72497 0.94058 0.27485 0.0
C490 C 0.6566 0.99716 0.23786 0.0
C491 C 0.68288 0.96141 0.23259 0.0
C492 C 0.63592 0.00755 0.21407 0.0
C493 C 0.6195 0.99397 0.1626 0.0
C494 C 0.66087 0.97299 0.21015 0.0
C495 C 0.62433 0.96982 0.13696 0.0
C496 C 0.68665 0.93706 0.20668 0.0
C497 C 0.72068 0.96486 0.29897 0.0
N498 N 0.64455 0.96014 0.16093 0.0
N499 N 0.70005 0.97451 0.27764 0.0
H500 H 0.60057 0.67502 0.93459 0.0
H501 H 0.48427 0.59379 0.8195 0.0
H502 H 0.53478 0.7036 0.86105 0.0
H503 H 0.54588 0.57405 0.94232 0.0
H504 H 0.50015 0.63481 0.83979 0.0
H505 H 0.57946 0.63805 0.93969 0.0
C506 C 0.58147 0.67367 0.92144 0.0
C507 C 0.56919 0.69259 0.89997 0.0
C508 C 0.50988 0.62156 0.86363 0.0
C509 C 0.54487 0.64993 0.90307 0.0
C510 C 0.50072 0.5983 0.85263 0.0
C511 C 0.51397 0.58072 0.87885 0.0
C512 C 0.53235 0.62688 0.9007 0.0
C513 C 0.53531 0.58718 0.92059 0.0
C514 C 0.56941 0.65245 0.92352 0.0
C515 C 0.54475 0.68943 0.87903 0.0
N516 N 0.54395 0.60964 0.92949 0.0
N517 N 0.53331 0.66844 0.88106 0.0
H518 H 0.75936 0.52976 0.32576 0.0
H519 H 0.88386 0.54399 0.10647 0.0
H520 H 0.7851 0.596 0.27239 0.0
H521 H 0.85875 0.47785 0.16309 0.0
H522 H 0.8483 0.56347 0.16951 0.0
H523 H 0.79603 0.5106 0.26925 0.0
C524 C 0.77298 0.54037 0.30351 0.0
C525 C 0.76953 0.56465 0.30573 0.0
C526 C 0.85057 0.5447 0.16832 0.0
C527 C 0.81118 0.54266 0.23826 0.0
C528 C 0.87097 0.53357 0.13271 0.0
C529 C 0.8744 0.50921 0.12958 0.0
C530 C 0.83333 0.53143 0.20114 0.0
C531 C 0.85677 0.49658 0.16332 0.0
C532 C 0.79379 0.52937 0.27035 0.0
C533 C 0.78718 0.57729 0.27246 0.0
N534 N 0.83703 0.50784 0.19768 0.0
N535 N 0.80729 0.56617 0.2403 0.0
H536 H 0.04199 0.19613 0.05282 0.0
H537 H 0.06449 0.05729 0.02233 0.0
H538 H 0.10372 0.16807 0.1541 0.0
H539 H -0.00027 0.08685 0.944 0.0
H540 H 0.08125 0.09742 0.0599 0.0
H541 H 0.02903 0.1558 0.99745 0.0
C542 C 0.05303 0.18151 0.06251 0.0
C543 C 0.07382 0.1855 0.10901 0.0
C544 C 0.06339 0.09507 0.03432 0.0
C545 C 0.05887 0.1392 0.04668 0.0
C546 C 0.05376 0.07218 0.01321 0.0
C547 C 0.03062 0.06866 0.98021 0.0
C548 C 0.04981 0.11455 0.02212 0.0
C549 C 0.01763 0.08863 0.96927 0.0
C550 C 0.04554 0.15845 0.03122 0.0
C551 C 0.08748 0.16583 0.11908 0.0
N552 N 0.0274 0.11067 0.99018 0.0
N553 N 0.07961 0.14351 0.08889 0.0
H554 H 0.30166 0.02904 0.09384 0.0
H555 H 0.44249 0.00028 0.09029 0.0
H556 H 0.3341 0.98372 0.23499 0.0
H557 H 0.40577 0.02177 0.89775 0.0
H558 H 0.4043 0.00246 0.16079 0.0
H559 H 0.34148 0.03492 0.03866 0.0
C560 C 0.31721 0.02064 0.11399 0.0
C561 C 0.31463 0.00566 0.16825 0.0
C562 C 0.40468 0.00684 0.10329 0.0
C563 C 0.35993 0.01235 0.10602 0.0
C564 C 0.42645 0.00565 0.06307 0.0
C565 C 0.42724 0.01058 0.98766 0.0
C566 C 0.38363 0.01325 0.0682 0.0
C567 C 0.40591 0.01752 0.95539 0.0
C568 C 0.33984 0.02389 0.08227 0.0
C569 C 0.3353 0.99516 0.19245 0.0
N570 N 0.38492 0.01859 0.9958 0.0
N571 N 0.35709 0.99864 0.16097 0.0
H572 H 0.44639 0.39827 0.55206 0.0
H573 H 0.40346 0.4387 0.16166 0.0
H574 H 0.41658 0.35029 0.35459 0.0
H575 H 0.45795 0.47663 0.31349 0.0
H576 H 0.39956 0.41025 0.2489 0.0
H577 H 0.44229 0.43096 0.48077 0.0
C578 C 0.43865 0.39467 0.49421 0.0
C579 C 0.43197 0.3715 0.45883 0.0
C580 C 0.41222 0.42492 0.26336 0.0
C581 C 0.42724 0.40871 0.37754 0.0
C582 C 0.41434 0.44126 0.21399 0.0
C583 C 0.43126 0.45991 0.22993 0.0
C584 C 0.42698 0.42732 0.32948 0.0
C585 C 0.44501 0.46224 0.29833 0.0
C586 C 0.43646 0.41329 0.45355 0.0
C587 C 0.42216 0.36783 0.3837 0.0
N588 N 0.44266 0.44605 0.3455 0.0
N589 N 0.42014 0.38623 0.34547 0.0
H590 H 0.13862 0.44927 0.22878 0.0
H591 H 0.08415 0.47641 0.83261 0.0
H592 H 0.17525 0.43377 0.00796 0.0
H593 H 0.04325 0.48337 0.04524 0.0
H594 H 0.11788 0.46115 0.89705 0.0
H595 H 0.10324 0.46135 0.16312 0.0
C596 C 0.13913 0.44813 0.1664 0.0
C597 C 0.15999 0.44062 0.12388 0.0
C598 C 0.10152 0.46599 0.92964 0.0
C599 C 0.11972 0.45472 0.04864 0.0
C600 C 0.08228 0.47484 0.89298 0.0
C601 C 0.06085 0.48126 0.93363 0.0
C602 C 0.0994 0.46363 0.00771 0.0
C603 C 0.05945 0.47869 0.01165 0.0
C604 C 0.11896 0.45511 0.12901 0.0
C605 C 0.15962 0.43954 0.04319 0.0
N606 N 0.07849 0.47012 0.04622 0.0
N607 N 0.13989 0.44669 0.00834 0.0
H608 H 0.9818 0.83506 0.44966 0.0
H609 H 0.98097 0.91918 0.86831 0.0
H610 H 0.94968 0.81402 0.65123 0.0
H611 H 0.99378 0.94404 0.65378 0.0
H612 H 0.97464 0.87904 0.79373 0.0
H613 H 0.99229 0.87345 0.52868 0.0
C614 C 0.9772 0.83839 0.51078 0.0
C615 C 0.96468 0.82135 0.5438 0.0
C616 C 0.97883 0.89332 0.76317 0.0
C617 C 0.97652 0.86537 0.63442 0.0
C618 C 0.98245 0.91621 0.8056 0.0
C619 C 0.98774 0.93502 0.76712 0.0
C620 C 0.98082 0.8892 0.68188 0.0
C621 C 0.9895 0.93014 0.68584 0.0
C622 C 0.98307 0.86038 0.55573 0.0
C623 C 0.95919 0.82671 0.62331 0.0
N624 N 0.9861 0.90771 0.64599 0.0
N625 N 0.96506 0.84831 0.66593 0.0
H626 H 0.64064 0.94908 0.43964 0.0
H627 H 0.57445 0.02042 0.81602 0.0
H628 H 0.67795 0.9965 0.62326 0.0
H629 H 0.53885 0.96938 0.63812 0.0
H630 H 0.61197 0.01423 0.74221 0.0
H631 H 0.60264 0.95876 0.50737 0.0
C632 C 0.64084 0.96159 0.49416 0.0
C633 C 0.66254 0.97184 0.52617 0.0
C634 C 0.59591 0.00446 0.71925 0.0
C635 C 0.61901 0.98301 0.60421 0.0
C636 C 0.57446 0.00801 0.76128 0.0
C637 C 0.55345 0.99533 0.7334 0.0
C638 C 0.59636 0.98815 0.64879 0.0
C639 C 0.55459 0.97946 0.66216 0.0
C640 C 0.61911 0.96712 0.53284 0.0
C641 C 0.66165 0.98809 0.59667 0.0
N642 N 0.57569 0.9763 0.62248 0.0
N643 N 0.64024 0.99309 0.63355 0.0
H644 H 0.62244 0.65959 0.23336 0.0
H645 H 0.55198 0.5482 0.34403 0.0
H646 H 0.55321 0.63448 0.13648 0.0
H647 H 0.60648 0.5879 0.49121 0.0
H648 H 0.5569 0.57529 0.25249 0.0
H649 H 0.62133 0.62892 0.31371 0.0
C650 C 0.60705 0.64761 0.22884 0.0
C651 C 0.58772 0.6498 0.17899 0.0
C652 C 0.5678 0.57804 0.30479 0.0
C653 C 0.58645 0.61469 0.27013 0.0
C654 C 0.56514 0.5625 0.3567 0.0
C655 C 0.57874 0.56593 0.42553 0.0
C656 C 0.58435 0.59701 0.3214 0.0
C657 C 0.59542 0.58483 0.43929 0.0
C658 C 0.60642 0.63017 0.27477 0.0
C659 C 0.56833 0.63367 0.17498 0.0
N660 N 0.59776 0.59969 0.38769 0.0
N661 N 0.56818 0.61682 0.22003 0.0
H662 H 0.81589 0.50778 0.57551 0.0
H663 H 0.95477 0.54317 0.65824 0.0
H664 H 0.85184 0.56453 0.4882 0.0
H665 H 0.92014 0.48275 0.72819 0.0
H666 H 0.91735 0.55113 0.59451 0.0
H667 H 0.85412 0.49809 0.6307 0.0
C668 C 0.83183 0.51816 0.56774 0.0
C669 C 0.83064 0.53707 0.52753 0.0
C670 C 0.91799 0.53607 0.62355 0.0
C671 C 0.87445 0.52613 0.59072 0.0
C672 C 0.93935 0.53153 0.66002 0.0
C673 C 0.94061 0.51229 0.69878 0.0
C674 C 0.89771 0.52134 0.62616 0.0
C675 C 0.92004 0.49779 0.69906 0.0
C676 C 0.85367 0.51261 0.59923 0.0
C677 C 0.8519 0.54986 0.51902 0.0
N678 N 0.89943 0.50267 0.66358 0.0
N679 N 0.87291 0.54422 0.55066 0.0
loop_
_geom_bond_atom_site_label_1
_geom_bond_atom_site_label_2
_geom_bond_distance
_geom_bond_site_symmetry_2
_ccdc_geom_bond_type
O0 Cd1 2.300 . S
O0 C7 1.275 . S
Cd1 O0 2.300 . S
Cd1 O9 2.381 . S
Cd1 O10 2.378 . S
O2 Cd3 2.385 . S
O2 C7 1.255 . S
Cd3 O2 2.385 . S
Cd3 O4 2.317 . S
O4 Cd3 2.317 . S
O4 C5 1.232 . S
C5 O4 1.232 . S
C5 O6 1.218 . S
O6 C5 1.218 . S
C7 O0 1.275 . S
C7 O2 1.255 . S
C8 O9 1.258 . S
C8 O10 1.256 . S
O9 Cd1 2.381 . S
O9 C8 1.258 . S
O10 Cd1 2.378 . S
O10 C8 1.256 . S
O11 Cd12 2.300 1_655 S
O11 C18 1.275 . S
Cd12 O11 2.300 1_455 S
Cd12 O20 2.381 1_455 S
Cd12 O21 2.378 . S
O13 Cd14 2.385 . S
O13 C18 1.255 1_455 S
Cd14 O13 2.385 . S
Cd14 O15 2.317 . S
O15 Cd14 2.317 . S
O15 C16 1.227 1_455 S
C16 O15 1.227 1_655 S
C16 O17 1.212 1_655 S
O17 C16 1.212 1_455 S
C18 O11 1.275 . S
C18 O13 1.255 1_655 S
C19 O20 1.258 . S
C19 O21 1.256 1_655 S
O20 Cd12 2.381 1_655 S
O20 C19 1.258 . S
O21 Cd12 2.378 . S
O21 C19 1.256 1_455 S
O22 Cd23 2.300 1_565 S
O22 C29 1.275 1_565 S
Cd23 O22 2.300 1_545 S
Cd23 O31 2.381 1_545 S
Cd23 O32 2.378 . S
O24 Cd25 2.385 . S
O24 C29 1.255 . S
Cd25 O24 2.385 . S
Cd25 O26 2.317 . S
O26 Cd25 2.317 . S
O26 C27 1.232 . S
C27 O26 1.232 . S
C27 O28 1.218 . S
O28 C27 1.218 . S
C29 O22 1.275 1_545 S
C29 O24 1.255 . S
C30 O31 1.258 1_545 S
C30 O32 1.256 . S
O31 Cd23 2.381 1_565 S
O31 C30 1.258 1_565 S
O32 Cd23 2.378 . S
O32 C30 1.256 . S
O33 Cd34 2.300 . S
O33 C40 1.275 . S
Cd34 O33 2.300 . S
Cd34 O42 2.381 . S
Cd34 O43 2.378 . S
O35 Cd36 2.385 1_556 S
O35 C40 1.255 . S
Cd36 O35 2.385 1_554 S
Cd36 O37 2.317 . S
O37 Cd36 2.317 . S
O37 C38 1.232 . S
C38 O37 1.232 . S
C38 O39 1.218 . S
O39 C38 1.218 . S
C40 O33 1.275 . S
C40 O35 1.255 . S
C41 O42 1.258 . S
C41 O43 1.256 . S
O42 Cd34 2.381 . S
O42 C41 1.258 . S
O43 Cd34 2.378 . S
O43 C41 1.256 . S
O44 Cd45 2.300 . S
O44 C51 1.275 . S
Cd45 O44 2.300 . S
Cd45 O53 2.381 . S
Cd45 O54 2.378 . S
O46 Cd47 2.385 . S
O46 C51 1.255 . S
Cd47 O46 2.385 . S
Cd47 O48 2.317 . S
O48 Cd47 2.317 . S
O48 C49 1.232 . S
C49 O48 1.232 . S
C49 O50 1.218 . S
O50 C49 1.218 . S
C51 O44 1.275 . S
C51 O46 1.255 . S
C52 O53 1.258 . S
C52 O54 1.256 . S
O53 Cd45 2.381 . S
O53 C52 1.258 . S
O54 Cd45 2.378 . S
O54 C52 1.256 . S
O55 Cd56 2.300 . S
O55 C62 1.275 . S
Cd56 O55 2.300 . S
Cd56 O64 2.381 . S
Cd56 O65 2.378 . S
O57 Cd58 2.385 . S
O57 C62 1.255 . S
Cd58 O57 2.385 . S
Cd58 O59 2.317 . S
O59 Cd58 2.317 . S
O59 C60 1.232 . S
C60 O59 1.232 . S
C60 O61 1.218 . S
O61 C60 1.218 . S
C62 O55 1.275 . S
C62 O57 1.255 . S
C63 O64 1.258 . S
C63 O65 1.256 . S
O64 Cd56 2.381 . S
O64 C63 1.258 . S
O65 Cd56 2.378 . S
O65 C63 1.256 . S
O66 Cd67 2.300 1_565 S
O66 C73 1.275 1_565 S
Cd67 O66 2.300 1_545 S
Cd67 O75 2.381 1_545 S
Cd67 O76 2.378 . S
O68 Cd69 2.385 . S
O68 C73 1.255 . S
Cd69 O68 2.385 . S
Cd69 O70 2.317 . S
O70 Cd69 2.317 . S
O70 C71 1.232 . S
C71 O70 1.232 . S
C71 O72 1.218 . S
O72 C71 1.218 . S
C73 O66 1.275 1_545 S
C73 O68 1.255 . S
C74 O75 1.258 1_545 S
C74 O76 1.256 . S
O75 Cd67 2.381 1_565 S
O75 C74 1.258 1_565 S
O76 Cd67 2.378 . S
O76 C74 1.256 . S
O77 Cd78 2.300 . S
O77 C84 1.275 . S
Cd78 O77 2.300 . S
Cd78 O86 2.381 . S
Cd78 O87 2.378 . S
O79 Cd80 2.385 . S
O79 C84 1.255 . S
Cd80 O79 2.385 . S
Cd80 O81 2.317 . S
O81 Cd80 2.317 . S
O81 C82 1.232 . S
C82 O81 1.232 . S
C82 O83 1.218 . S
O83 C82 1.218 . S
C84 O77 1.275 . S
C84 O79 1.255 . S
C85 O86 1.258 . S
C85 O87 1.256 . S
O86 Cd78 2.381 . S
O86 C85 1.258 . S
O87 Cd78 2.378 . S
O87 C85 1.256 . S
Tb88 C97 2.764 . S
Tb88 O98 2.325 . S
Tb88 O101 2.303 1_655 S
Tb88 O105 2.322 1_545 S
Tb88 O106 2.349 . S
Tb88 O109 2.420 . S
Tb88 O110 2.399 . S
Tb89 O99 2.322 1_565 S
Tb89 O100 2.349 . S
Tb89 O102 2.415 . S
Tb89 O103 2.399 . S
Tb89 O104 2.325 . S
Tb89 O107 2.303 1_455 S
Tb89 C118 2.764 . S
C90 O106 1.261 . S
C90 O107 1.257 1_545 S
C91 C94 1.358 . S
C91 C95 1.332 . S
C91 C97 1.504 . S
C92 C93 1.373 . S
C92 C96 1.308 . S
C93 C92 1.373 . S
C93 C94 1.429 . S
C93 H120 0.932 . S
C94 C91 1.358 . S
C94 C93 1.429 . S
C94 H121 0.930 . S
C95 C91 1.332 . S
C95 C96 1.394 . S
C95 H122 0.932 1_655 S
C96 C92 1.308 . S
C96 C95 1.394 . S
C96 H123 0.929 1_655 S
C97 Tb88 2.764 . S
C97 C91 1.504 . S
C97 O109 1.250 . S
C97 O110 1.263 . S
O98 Tb88 2.325 . S
O98 C108 1.236 1_655 S
O99 Tb89 2.322 1_545 S
O99 C108 1.257 . S
O100 Tb89 2.349 . S
O100 C111 1.261 . S
O101 Tb88 2.303 1_455 S
O101 C111 1.257 1_545 S
O102 Tb89 2.415 . S
O102 C118 1.239 . S
O103 Tb89 2.399 . S
O103 C118 1.263 . S
O104 Tb89 2.325 . S
O104 C119 1.236 1_455 S
O105 Tb88 2.322 1_565 S
O105 C119 1.257 . S
O106 Tb88 2.349 . S
O106 C90 1.261 . S
O107 Tb89 2.303 1_655 S
O107 C90 1.257 1_565 S
C108 O98 1.236 1_455 S
C108 O99 1.257 . S
O109 Tb88 2.420 . S
O109 C97 1.250 . S
O110 Tb88 2.399 . S
O110 C97 1.263 . S
C111 O100 1.261 . S
C111 O101 1.257 1_565 S
C112 C115 1.358 1_556 S
C112 C116 1.332 1_556 S
C112 C118 1.504 . S
C113 C114 1.373 . S
C113 C117 1.308 . S
C114 C113 1.373 . S
C114 C115 1.429 . S
C114 H124 0.932 . S
C115 C112 1.358 1_554 S
C115 C114 1.429 . S
C115 H125 0.930 1_554 S
C116 C112 1.332 1_554 S
C116 C117 1.394 . S
C116 H126 0.932 1_455 S
C117 C113 1.308 . S
C117 C116 1.394 . S
C117 H127 0.929 1_455 S
C118 Tb89 2.764 . S
C118 O102 1.239 . S
C118 O103 1.263 . S
C118 C112 1.504 . S
C119 O104 1.236 1_655 S
C119 O105 1.257 . S
H120 C93 0.932 . S
H121 C94 0.930 . S
H122 C95 0.932 1_455 S
H123 C96 0.929 1_455 S
H124 C114 0.932 . S
H125 C115 0.930 1_556 S
H126 C116 0.932 1_655 S
H127 C117 0.929 1_655 S
Tb128 C137 2.764 . S
Tb128 O138 2.325 . S
Tb128 O141 2.303 1_565 S
Tb128 O145 2.322 . S
Tb128 O146 2.349 . S
Tb128 O149 2.415 1_565 S
Tb128 O150 2.399 . S
Tb129 O139 2.322 . S
Tb129 O140 2.349 . S
Tb129 O142 2.415 1_545 S
Tb129 O143 2.399 . S
Tb129 O144 2.325 . S
Tb129 O147 2.303 1_545 S
Tb129 C158 2.764 . S
C130 O146 1.261 . S
C130 O147 1.257 . S
C131 C134 1.358 . S
C131 C135 1.332 1_565 S
C131 C137 1.504 . S
C132 C133 1.373 . S
C132 C136 1.308 1_565 S
C133 C132 1.373 . S
C133 C134 1.429 . S
C133 H160 0.932 . S
C134 C131 1.358 . S
C134 C133 1.429 . S
C134 H161 0.930 . S
C135 C131 1.332 1_545 S
C135 C136 1.394 . S
C135 H162 0.932 . S
C136 C132 1.308 1_545 S
C136 C135 1.394 . S
C136 H163 0.929 . S
C137 Tb128 2.764 . S
C137 C131 1.504 . S
C137 O149 1.239 1_565 S
C137 O150 1.263 . S
O138 Tb128 2.325 . S
O138 C148 1.236 1_565 S
O139 Tb129 2.322 . S
O139 C148 1.257 . S
O140 Tb129 2.349 . S
O140 C151 1.261 . S
O141 Tb128 2.303 1_545 S
O141 C151 1.257 . S
O142 Tb129 2.415 1_565 S
O142 C158 1.239 1_565 S
O143 Tb129 2.399 . S
O143 C158 1.263 . S
O144 Tb129 2.325 . S
O144 C159 1.236 1_545 S
O145 Tb128 2.322 . S
O145 C159 1.257 . S
O146 Tb128 2.349 . S
O146 C130 1.261 . S
O147 Tb129 2.303 1_565 S
O147 C130 1.257 . S
C148 O138 1.236 1_545 S
C148 O139 1.257 . S
O149 Tb128 2.415 1_545 S
O149 C137 1.239 1_545 S
O150 Tb128 2.399 . S
O150 C137 1.263 . S
C151 O140 1.261 . S
C151 O141 1.257 . S
C152 C155 1.358 . S
C152 C156 1.332 1_545 S
C152 C158 1.504 1_554 S
C153 C154 1.373 . S
C153 C157 1.308 1_545 S
C154 C153 1.373 . S
C154 C155 1.429 . S
C154 H164 0.932 . S
C155 C152 1.358 . S
C155 C154 1.429 . S
C155 H165 0.930 . S
C156 C152 1.332 1_565 S
C156 C157 1.394 . S
C156 H166 0.932 . S
C157 C153 1.308 1_565 S
C157 C156 1.394 . S
C157 H167 0.929 . S
C158 Tb129 2.764 . S
C158 O142 1.239 1_545 S
C158 O143 1.263 . S
C158 C152 1.504 1_556 S
C159 O144 1.236 1_565 S
C159 O145 1.257 . S
H160 C133 0.932 . S
H161 C134 0.930 . S
H162 C135 0.932 . S
H163 C136 0.929 . S
H164 C154 0.932 . S
H165 C155 0.930 . S
H166 C156 0.932 . S
H167 C157 0.929 . S
Tb168 C177 2.764 1_556 S
Tb168 O178 2.325 . S
Tb168 O181 2.303 . S
Tb168 O185 2.322 . S
Tb168 O186 2.349 . S
Tb168 O189 2.415 1_556 S
Tb168 O190 2.399 . S
Tb169 O179 2.322 . S
Tb169 O180 2.349 . S
Tb169 O182 2.415 . S
Tb169 O183 2.399 . S
Tb169 O184 2.325 . S
Tb169 O187 2.303 . S
Tb169 C198 2.764 . S
C170 O186 1.261 . S
C170 O187 1.257 . S
C171 C174 1.358 . S
C171 C175 1.332 . S
C171 C177 1.504 . S
C172 C173 1.373 . S
C172 C176 1.308 . S
C173 C172 1.373 . S
C173 C174 1.429 . S
C173 H200 0.932 . S
C174 C171 1.358 . S
C174 C173 1.429 . S
C174 H201 0.930 . S
C175 C171 1.332 . S
C175 C176 1.394 . S
C175 H202 0.932 . S
C176 C172 1.308 . S
C176 C175 1.394 . S
C176 H203 0.929 . S
C177 Tb168 2.764 1_554 S
C177 C171 1.504 . S
C177 O189 1.239 . S
C177 O190 1.263 1_554 S
O178 Tb168 2.325 . S
O178 C188 1.236 . S
O179 Tb169 2.322 . S
O179 C188 1.257 . S
O180 Tb169 2.349 . S
O180 C191 1.261 . S
O181 Tb168 2.303 . S
O181 C191 1.257 . S
O182 Tb169 2.415 . S
O182 C198 1.239 . S
O183 Tb169 2.399 . S
O183 C198 1.263 . S
O184 Tb169 2.325 . S
O184 C199 1.236 . S
O185 Tb168 2.322 . S
O185 C199 1.257 . S
O186 Tb168 2.349 . S
O186 C170 1.261 . S
O187 Tb169 2.303 . S
O187 C170 1.257 . S
C188 O178 1.236 . S
C188 O179 1.257 . S
O189 Tb168 2.415 1_554 S
O189 C177 1.239 . S
O190 Tb168 2.399 . S
O190 C177 1.263 1_556 S
C191 O180 1.261 . S
C191 O181 1.257 . S
C192 C195 1.358 . S
C192 C196 1.332 . S
C192 C198 1.504 . S
C193 C194 1.373 . S
C193 C197 1.308 . S
C194 C193 1.373 . S
C194 C195 1.429 . S
C194 H204 0.932 . S
C195 C192 1.358 . S
C195 C194 1.429 . S
C195 H205 0.930 . S
C196 C192 1.332 . S
C196 C197 1.394 . S
C196 H206 0.932 . S
C197 C193 1.308 . S
C197 C196 1.394 . S
C197 H207 0.929 . S
C198 Tb169 2.764 . S
C198 O182 1.239 . S
C198 O183 1.263 . S
C198 C192 1.504 . S
C199 O184 1.236 . S
C199 O185 1.257 . S
H200 C173 0.932 . S
H201 C174 0.930 . S
H202 C175 0.932 . S
H203 C176 0.929 . S
H204 C194 0.932 . S
H205 C195 0.930 . S
H206 C196 0.932 . S
H207 C197 0.929 . S
Tb208 C217 2.764 . S
Tb208 O218 2.325 . S
Tb208 O221 2.303 . S
Tb208 O225 2.322 1_455 S
Tb208 O226 2.349 . S
Tb208 O229 2.415 . S
Tb208 O230 2.399 . S
Tb209 O219 2.322 1_655 S
Tb209 O220 2.349 . S
Tb209 O222 2.415 . S
Tb209 O223 2.399 . S
Tb209 O224 2.325 . S
Tb209 O227 2.303 . S
Tb209 C238 2.764 . S
C210 O226 1.261 . S
C210 O227 1.257 1_455 S
C211 C214 1.358 . S
C211 C215 1.332 . S
C211 C217 1.504 . S
C212 C213 1.373 . S
C212 C216 1.308 . S
C213 C212 1.373 . S
C213 C214 1.429 . S
C213 H240 0.932 . S
C214 C211 1.358 . S
C214 C213 1.429 . S
C214 H241 0.930 . S
C215 C211 1.332 . S
C215 C216 1.394 . S
C215 H242 0.932 . S
C216 C212 1.308 . S
C216 C215 1.394 . S
C216 H243 0.929 . S
C217 Tb208 2.764 . S
C217 C211 1.504 . S
C217 O229 1.239 . S
C217 O230 1.263 . S
O218 Tb208 2.325 . S
O218 C228 1.236 . S
O219 Tb209 2.322 1_455 S
O219 C228 1.257 . S
O220 Tb209 2.349 . S
O220 C231 1.247 1_655 S
O221 Tb208 2.303 . S
O221 C231 1.263 . S
O222 Tb209 2.415 . S
O222 C238 1.239 . S
O223 Tb209 2.399 . S
O223 C238 1.263 . S
O224 Tb209 2.325 . S
O224 C239 1.236 . S
O225 Tb208 2.322 1_655 S
O225 C239 1.257 . S
O226 Tb208 2.349 . S
O226 C210 1.261 . S
O227 Tb209 2.303 . S
O227 C210 1.257 1_655 S
C228 O218 1.236 . S
C228 O219 1.257 . S
O229 Tb208 2.415 . S
O229 C217 1.239 . S
O230 Tb208 2.399 . S
O230 C217 1.263 . S
C231 O220 1.247 1_455 S
C231 O221 1.263 . S
C232 C235 1.358 . S
C232 C236 1.332 . S
C232 C238 1.504 1_554 S
C233 C234 1.373 . S
C233 C237 1.308 . S
C234 C233 1.373 . S
C234 C235 1.429 . S
C234 H244 0.932 . S
C235 C232 1.358 . S
C235 C234 1.429 . S
C235 H245 0.930 . S
C236 C232 1.332 . S
C236 C237 1.394 . S
C236 H246 0.932 . S
C237 C233 1.308 . S
C237 C236 1.394 . S
C237 H247 0.929 . S
C238 Tb209 2.764 . S
C238 O222 1.239 . S
C238 O223 1.263 . S
C238 C232 1.504 1_556 S
C239 O224 1.236 . S
C239 O225 1.257 . S
H240 C213 0.932 . S
H241 C214 0.930 . S
H242 C215 0.932 . S
H243 C216 0.929 . S
H244 C234 0.932 . S
H245 C235 0.930 . S
H246 C236 0.932 . S
H247 C237 0.929 . S
H248 C254 0.930 . S
H249 C258 0.930 . S
H250 C263 0.929 . S
H251 C261 0.929 . S
H252 C256 0.929 . S
H253 C262 0.929 . S
C254 H248 0.930 . S
C254 C255 1.383 . S
C254 C262 1.378 . S
C255 C254 1.383 . S
C255 C263 1.413 1_545 S
C256 H252 0.929 . S
C256 C258 1.378 . S
C256 C260 1.350 1_565 S
C257 C260 1.463 . S
C257 C262 1.350 . S
C257 N265 1.427 1_545 S
C258 H249 0.930 . S
C258 C256 1.378 . S
C258 C259 1.367 1_565 S
C259 C258 1.367 1_545 S
C259 C261 1.433 . S
C260 C256 1.350 1_545 S
C260 C257 1.463 . S
C260 N264 1.427 . S
C261 H251 0.929 . S
C261 C259 1.433 . S
C261 N264 1.384 . S
C262 H253 0.929 . S
C262 C254 1.378 . S
C262 C257 1.350 . S
C263 H250 0.929 . S
C263 C255 1.413 1_565 S
C263 N265 1.384 . S
N264 C260 1.427 . S
N264 C261 1.384 . S
N265 C257 1.427 1_565 S
N265 C263 1.384 . S
H266 C272 0.930 . S
H267 C276 0.930 . S
H268 C281 0.929 . S
H269 C279 0.929 . S
H270 C274 0.929 . S
H271 C280 0.929 . S
C272 H266 0.930 . S
C272 C273 1.367 . S
C272 C280 1.378 . S
C273 C272 1.367 . S
C273 C281 1.433 . S
C274 H270 0.929 . S
C274 C276 1.378 . S
C274 C278 1.350 . S
C275 C278 1.463 . S
C275 C280 1.350 . S
C275 N283 1.427 . S
C276 H267 0.930 . S
C276 C274 1.378 . S
C276 C277 1.367 . S
C277 C276 1.367 . S
C277 C279 1.433 . S
C278 C274 1.350 . S
C278 C275 1.463 . S
C278 N282 1.427 . S
C279 H269 0.929 . S
C279 C277 1.433 . S
C279 N282 1.384 . S
C280 H271 0.929 . S
C280 C272 1.378 . S
C280 C275 1.350 . S
C281 H268 0.929 . S
C281 C273 1.433 . S
C281 N283 1.384 . S
N282 C278 1.427 . S
N282 C279 1.384 . S
N283 C275 1.427 . S
N283 C281 1.384 . S
H284 C290 0.930 . S
H285 C294 0.930 . S
H286 C299 0.929 . S
H287 C297 0.929 . S
H288 C292 0.929 . S
H289 C298 0.929 . S
C290 H284 0.930 . S
C290 C291 1.367 . S
C290 C298 1.378 . S
C291 C290 1.367 . S
C291 C299 1.433 . S
C292 H288 0.929 . S
C292 C294 1.378 . S
C292 C296 1.350 . S
C293 C296 1.463 . S
C293 C298 1.350 . S
C293 N301 1.427 . S
C294 H285 0.930 . S
C294 C292 1.378 . S
C294 C295 1.367 . S
C295 C294 1.367 . S
C295 C297 1.433 . S
C296 C292 1.350 . S
C296 C293 1.463 . S
C296 N300 1.427 . S
C297 H287 0.929 . S
C297 C295 1.433 . S
C297 N300 1.384 . S
C298 H289 0.929 . S
C298 C290 1.378 . S
C298 C293 1.350 . S
C299 H286 0.929 . S
C299 C291 1.433 . S
C299 N301 1.384 . S
N300 C296 1.427 . S
N300 C297 1.384 . S
N301 C293 1.427 . S
N301 C299 1.384 . S
H302 C308 0.930 . S
H303 C312 0.930 . S
H304 C317 0.929 . S
H305 C315 0.929 . S
H306 C310 0.929 . S
H307 C316 0.929 . S
C308 H302 0.930 . S
C308 C309 1.367 . S
C308 C316 1.378 . S
C309 C308 1.367 . S
C309 C317 1.433 1_455 S
C310 H306 0.929 . S
C310 C312 1.378 . S
C310 C314 1.350 1_655 S
C311 C314 1.463 . S
C311 C316 1.350 . S
C311 N319 1.427 1_455 S
C312 H303 0.930 . S
C312 C310 1.378 . S
C312 C313 1.367 1_655 S
C313 C312 1.367 1_455 S
C313 C315 1.433 . S
C314 C310 1.350 1_455 S
C314 C311 1.463 . S
C314 N318 1.427 . S
C315 H305 0.929 . S
C315 C313 1.433 . S
C315 N318 1.384 . S
C316 H307 0.929 . S
C316 C308 1.378 . S
C316 C311 1.350 . S
C317 H304 0.929 . S
C317 C309 1.433 1_655 S
C317 N319 1.384 . S
N318 C314 1.427 . S
N318 C315 1.384 . S
N319 C311 1.427 1_655 S
N319 C317 1.384 . S
H320 C326 0.930 . S
H321 C330 0.930 . S
H322 C335 0.929 . S
H323 C333 0.929 . S
H324 C328 0.929 . S
H325 C334 0.929 . S
C326 H320 0.930 . S
C326 C327 1.373 . S
C326 C334 1.378 . S
C327 C326 1.373 . S
C327 C335 1.428 1_545 S
C328 H324 0.929 . S
C328 C330 1.378 1_554 S
C328 C332 1.350 . S
C329 C332 1.462 . S
C329 C334 1.343 1_565 S
C329 N337 1.435 . S
C330 H321 0.930 . S
C330 C328 1.378 1_556 S
C330 C331 1.367 . S
C331 C330 1.367 . S
C331 C333 1.433 1_566 S
C332 C328 1.350 . S
C332 C329 1.462 . S
C332 N336 1.427 1_565 S
C333 H323 0.929 . S
C333 C331 1.433 1_544 S
C333 N336 1.384 . S
C334 H325 0.929 . S
C334 C326 1.378 . S
C334 C329 1.343 1_545 S
C335 H322 0.929 . S
C335 C327 1.428 1_565 S
C335 N337 1.384 . S
N336 C332 1.427 1_545 S
N336 C333 1.384 . S
N337 C329 1.435 . S
N337 C335 1.384 . S
H338 C344 0.930 . S
H339 C348 0.930 . S
H340 C353 0.929 1_554 S
H341 C351 0.929 . S
H342 C346 0.929 . S
H343 C352 0.929 . S
C344 H338 0.930 . S
C344 C345 1.367 . S
C344 C352 1.378 . S
C345 C344 1.367 . S
C345 C353 1.433 . S
C346 H342 0.929 . S
C346 C348 1.378 . S
C346 C350 1.350 . S
C347 C350 1.463 . S
C347 C352 1.350 . S
C347 N355 1.427 . S
C348 H339 0.930 . S
C348 C346 1.378 . S
C348 C349 1.367 . S
C349 C348 1.367 . S
C349 C351 1.433 . S
C350 C346 1.350 . S
C350 C347 1.463 . S
C350 N354 1.427 . S
C351 H341 0.929 . S
C351 C349 1.433 . S
C351 N354 1.384 . S
C352 H343 0.929 . S
C352 C344 1.378 . S
C352 C347 1.350 . S
C353 H340 0.929 1_556 S
C353 C345 1.433 . S
C353 N355 1.384 . S
N354 C350 1.427 . S
N354 C351 1.384 . S
N355 C347 1.427 . S
N355 C353 1.384 . S
H356 C362 0.930 . S
H357 C366 0.930 . S
H358 C371 0.929 . S
H359 C369 0.929 . S
H360 C364 0.929 . S
H361 C370 0.929 . S
C362 H356 0.930 . S
C362 C363 1.367 . S
C362 C370 1.378 . S
C363 C362 1.367 . S
C363 C371 1.433 . S
C364 H360 0.929 . S
C364 C366 1.378 1_554 S
C364 C368 1.350 . S
C365 C368 1.463 . S
C365 C370 1.350 . S
C365 N373 1.427 . S
C366 H357 0.930 . S
C366 C364 1.378 1_556 S
C366 C367 1.367 . S
C367 C366 1.367 . S
C367 C369 1.433 1_556 S
C368 C364 1.350 . S
C368 C365 1.463 . S
C368 N372 1.427 . S
C369 H359 0.929 . S
C369 C367 1.433 1_554 S
C369 N372 1.384 . S
C370 H361 0.929 . S
C370 C362 1.378 . S
C370 C365 1.350 . S
C371 H358 0.929 . S
C371 C363 1.433 . S
C371 N373 1.384 . S
N372 C368 1.427 . S
N372 C369 1.384 . S
N373 C365 1.427 . S
N373 C371 1.384 . S
H374 C380 0.930 . S
H375 C384 0.927 1_455 S
H376 C389 0.929 . S
H377 C387 0.929 . S
H378 C382 0.933 . S
H379 C388 0.929 . S
C380 H374 0.930 . S
C380 C381 1.367 . S
C380 C388 1.378 . S
C381 C380 1.367 . S
C381 C389 1.433 . S
C382 H378 0.933 . S
C382 C384 1.380 . S
C382 C386 1.350 . S
C383 C386 1.463 . S
C383 C388 1.350 . S
C383 N391 1.427 . S
C384 H375 0.927 1_655 S
C384 C382 1.380 . S
C384 C385 1.369 1_554 S
C385 C384 1.369 1_556 S
C385 C387 1.433 . S
C386 C382 1.350 . S
C386 C383 1.463 . S
C386 N390 1.427 1_554 S
C387 H377 0.929 . S
C387 C385 1.433 . S
C387 N390 1.384 . S
C388 H379 0.929 . S
C388 C380 1.378 . S
C388 C383 1.350 . S
C389 H376 0.929 . S
C389 C381 1.433 . S
C389 N391 1.384 . S
N390 C386 1.427 1_556 S
N390 C387 1.384 . S
N391 C383 1.427 . S
N391 C389 1.384 . S
H392 C398 0.930 . S
H393 C402 0.930 . S
H394 C407 0.923 1_655 S
H395 C405 0.929 . S
H396 C400 0.929 . S
H397 C406 0.929 . S
C398 H392 0.930 . S
C398 C399 1.367 . S
C398 C406 1.378 . S
C399 C398 1.367 . S
C399 C407 1.454 . S
C400 H396 0.929 . S
C400 C402 1.378 . S
C400 C404 1.350 . S
C401 C404 1.463 . S
C401 C406 1.350 1_655 S
C401 N409 1.427 . S
C402 H393 0.930 . S
C402 C400 1.378 . S
C402 C403 1.367 . S
C403 C402 1.367 . S
C403 C405 1.433 . S
C404 C400 1.350 . S
C404 C401 1.463 . S
C404 N408 1.427 . S
C405 H395 0.929 . S
C405 C403 1.433 . S
C405 N408 1.384 . S
C406 H397 0.929 . S
C406 C398 1.378 . S
C406 C401 1.350 1_455 S
C407 H394 0.923 1_455 S
C407 C399 1.454 . S
C407 N409 1.371 1_455 S
N408 C404 1.427 . S
N408 C405 1.384 . S
N409 C401 1.427 . S
N409 C407 1.371 1_655 S
H410 C416 0.930 . S
H411 C420 0.947 . S
H412 C425 0.929 . S
H413 C423 0.929 . S
H414 C418 0.929 . S
H415 C424 0.929 . S
C416 H410 0.930 . S
C416 C417 1.337 1_565 S
C416 C424 1.378 . S
C417 C416 1.337 1_545 S
C417 C425 1.454 . S
C418 H414 0.929 . S
C418 C420 1.387 . S
C418 C422 1.350 1_545 S
C419 C422 1.463 . S
C419 C424 1.350 . S
C419 N427 1.427 1_565 S
C420 H411 0.947 . S
C420 C418 1.387 . S
C420 C421 1.342 1_545 S
C421 C420 1.342 1_565 S
C421 C423 1.433 . S
C422 C418 1.350 1_565 S
C422 C419 1.463 . S
C422 N426 1.427 . S
C423 H413 0.929 . S
C423 C421 1.433 . S
C423 N426 1.384 . S
C424 H415 0.929 . S
C424 C416 1.378 . S
C424 C419 1.350 . S
C425 H412 0.929 . S
C425 C417 1.454 . S
C425 N427 1.384 . S
N426 C422 1.427 . S
N426 C423 1.384 . S
N427 C419 1.427 1_545 S
N427 C425 1.384 . S
H428 C434 0.930 . S
H429 C438 0.930 . S
H430 C443 0.929 . S
H431 C441 0.929 . S
H432 C436 0.929 . S
H433 C442 0.929 . S
C434 H428 0.930 . S
C434 C435 1.367 . S
C434 C442 1.378 . S
C435 C434 1.367 . S
C435 C443 1.433 . S
C436 H432 0.929 . S
C436 C438 1.378 . S
C436 C440 1.350 . S
C437 C440 1.463 . S
C437 C442 1.350 . S
C437 N445 1.427 . S
C438 H429 0.930 . S
C438 C436 1.378 . S
C438 C439 1.367 . S
C439 C438 1.367 . S
C439 C441 1.433 . S
C440 C436 1.350 . S
C440 C437 1.463 . S
C440 N444 1.427 . S
C441 H431 0.929 . S
C441 C439 1.433 . S
C441 N444 1.384 . S
C442 H433 0.929 . S
C442 C434 1.378 . S
C442 C437 1.350 . S
C443 H430 0.929 . S
C443 C435 1.433 . S
C443 N445 1.384 . S
N444 C440 1.427 . S
N444 C441 1.384 . S
N445 C437 1.427 . S
N445 C443 1.384 . S
H446 C452 0.930 . S
H447 C456 0.930 . S
H448 C461 0.929 . S
H449 C459 0.929 . S
H450 C454 0.929 . S
H451 C460 0.929 . S
C452 H446 0.930 . S
C452 C453 1.367 . S
C452 C460 1.378 . S
C453 C452 1.367 . S
C453 C461 1.433 . S
C454 H450 0.929 . S
C454 C456 1.378 . S
C454 C458 1.350 . S
C455 C458 1.463 . S
C455 C460 1.350 . S
C455 N463 1.427 . S
C456 H447 0.930 . S
C456 C454 1.378 . S
C456 C457 1.367 . S
C457 C456 1.367 . S
C457 C459 1.433 . S
C458 C454 1.350 . S
C458 C455 1.463 . S
C458 N462 1.427 . S
C459 H449 0.929 . S
C459 C457 1.433 . S
C459 N462 1.384 . S
C460 H451 0.929 . S
C460 C452 1.378 . S
C460 C455 1.350 . S
C461 H448 0.929 . S
C461 C453 1.433 . S
C461 N463 1.384 . S
N462 C458 1.427 . S
N462 C459 1.384 . S
N463 C455 1.427 . S
N463 C461 1.384 . S
H464 C470 0.930 . S
H465 C474 0.930 . S
H466 C479 0.928 . S
H467 C477 0.929 1_556 S
H468 C472 0.929 . S
H469 C478 0.929 . S
C470 H464 0.930 . S
C470 C471 1.367 . S
C470 C478 1.378 . S
C471 C470 1.367 . S
C471 C479 1.447 . S
C472 H468 0.929 . S
C472 C474 1.378 . S
C472 C476 1.350 . S
C473 C476 1.463 . S
C473 C478 1.350 1_455 S
C473 N481 1.427 . S
C474 H465 0.930 . S
C474 C472 1.378 . S
C474 C475 1.367 . S
C475 C474 1.367 . S
C475 C477 1.433 . S
C476 C472 1.350 . S
C476 C473 1.463 . S
C476 N480 1.427 . S
C477 H467 0.929 1_554 S
C477 C475 1.433 . S
C477 N480 1.384 . S
C478 H469 0.929 . S
C478 C470 1.378 . S
C478 C473 1.350 1_655 S
C479 H466 0.928 . S
C479 C471 1.447 . S
C479 N481 1.372 1_655 S
N480 C476 1.427 . S
N480 C477 1.384 . S
N481 C473 1.427 . S
N481 C479 1.372 1_455 S
H482 C488 0.930 . S
H483 C492 0.930 . S
H484 C497 0.929 . S
H485 C495 0.929 . S
H486 C490 0.929 . S
H487 C496 0.929 . S
C488 H482 0.930 . S
C488 C489 1.367 . S
C488 C496 1.378 . S
C489 C488 1.367 . S
C489 C497 1.433 1_565 S
C490 H486 0.929 . S
C490 C492 1.378 . S
C490 C494 1.350 . S
C491 C494 1.463 . S
C491 C496 1.350 1_545 S
C491 N499 1.427 . S
C492 H483 0.930 . S
C492 C490 1.378 . S
C492 C493 1.367 . S
C493 C492 1.367 . S
C493 C495 1.433 1_545 S
C494 C490 1.350 . S
C494 C491 1.463 . S
C494 N498 1.427 1_545 S
C495 H485 0.929 . S
C495 C493 1.433 1_565 S
C495 N498 1.384 . S
C496 H487 0.929 . S
C496 C488 1.378 . S
C496 C491 1.350 1_565 S
C497 H484 0.929 . S
C497 C489 1.433 1_545 S
C497 N499 1.384 . S
N498 C494 1.427 1_565 S
N498 C495 1.384 . S
N499 C491 1.427 . S
N499 C497 1.384 . S
H500 C506 0.930 . S
H501 C510 0.930 . S
H502 C515 0.929 . S
H503 C513 0.929 . S
H504 C508 0.929 . S
H505 C514 0.929 . S
C506 H500 0.930 . S
C506 C507 1.367 . S
C506 C514 1.378 . S
C507 C506 1.367 . S
C507 C515 1.433 . S
C508 H504 0.929 . S
C508 C510 1.378 . S
C508 C512 1.350 . S
C509 C512 1.463 . S
C509 C514 1.350 . S
C509 N517 1.427 . S
C510 H501 0.930 . S
C510 C508 1.378 . S
C510 C511 1.367 . S
C511 C510 1.367 . S
C511 C513 1.433 . S
C512 C508 1.350 . S
C512 C509 1.463 . S
C512 N516 1.427 . S
C513 H503 0.929 . S
C513 C511 1.433 . S
C513 N516 1.384 . S
C514 H505 0.929 . S
C514 C506 1.378 . S
C514 C509 1.350 . S
C515 H502 0.929 . S
C515 C507 1.433 . S
C515 N517 1.384 . S
N516 C512 1.427 . S
N516 C513 1.384 . S
N517 C509 1.427 . S
N517 C515 1.384 . S
H518 C524 0.930 . S
H519 C528 0.930 . S
H520 C533 0.929 . S
H521 C531 0.929 . S
H522 C526 0.929 . S
H523 C532 0.929 . S
C524 H518 0.930 . S
C524 C525 1.367 . S
C524 C532 1.378 . S
C525 C524 1.367 . S
C525 C533 1.433 . S
C526 H522 0.929 . S
C526 C528 1.378 . S
C526 C530 1.350 . S
C527 C530 1.463 . S
C527 C532 1.350 . S
C527 N535 1.427 . S
C528 H519 0.930 . S
C528 C526 1.378 . S
C528 C529 1.367 . S
C529 C528 1.367 . S
C529 C531 1.433 . S
C530 C526 1.350 . S
C530 C527 1.463 . S
C530 N534 1.427 . S
C531 H521 0.929 . S
C531 C529 1.433 . S
C531 N534 1.384 . S
C532 H523 0.929 . S
C532 C524 1.378 . S
C532 C527 1.350 . S
C533 H520 0.929 . S
C533 C525 1.433 . S
C533 N535 1.384 . S
N534 C530 1.427 . S
N534 C531 1.384 . S
N535 C527 1.427 . S
N535 C533 1.384 . S
H536 C542 0.927 1_655 S
H537 C546 0.930 . S
H538 C551 0.929 . S
H539 C549 0.929 1_654 S
H540 C544 0.929 . S
H541 C550 0.913 1_655 S
C542 H536 0.927 1_455 S
C542 C543 1.370 . S
C542 C550 1.377 . S
C543 C542 1.370 . S
C543 C551 1.433 1_554 S
C544 H540 0.929 . S
C544 C546 1.378 . S
C544 C548 1.350 . S
C545 C548 1.463 . S
C545 C550 1.365 1_556 S
C545 N553 1.428 . S
C546 H537 0.930 . S
C546 C544 1.378 . S
C546 C547 1.367 . S
C547 C546 1.367 . S
C547 C549 1.433 . S
C548 C544 1.350 . S
C548 C545 1.463 . S
C548 N552 1.427 1_556 S
C549 H539 0.929 1_456 S
C549 C547 1.433 . S
C549 N552 1.384 1_556 S
C550 H541 0.913 1_455 S
C550 C542 1.377 . S
C550 C545 1.365 1_554 S
C551 H538 0.929 . S
C551 C543 1.433 1_556 S
C551 N553 1.384 . S
N552 C548 1.427 1_554 S
N552 C549 1.384 1_554 S
N553 C545 1.428 . S
N553 C551 1.384 . S
H554 C560 0.930 . S
H555 C564 0.930 . S
H556 C569 0.929 . S
H557 C567 0.929 . S
H558 C562 0.929 . S
H559 C568 0.929 . S
C560 H554 0.930 . S
C560 C561 1.367 . S
C560 C568 1.378 1_554 S
C561 C560 1.367 . S
C561 C569 1.433 1_545 S
C562 H558 0.929 . S
C562 C564 1.378 . S
C562 C566 1.350 1_565 S
C563 C566 1.463 . S
C563 C568 1.350 . S
C563 N571 1.427 1_545 S
C564 H555 0.930 . S
C564 C562 1.378 . S
C564 C565 1.367 1_565 S
C565 C564 1.367 1_545 S
C565 C567 1.433 . S
C566 C562 1.350 1_545 S
C566 C563 1.463 . S
C566 N570 1.427 . S
C567 H557 0.929 . S
C567 C565 1.433 . S
C567 N570 1.384 . S
C568 H559 0.929 . S
C568 C560 1.378 1_556 S
C568 C563 1.350 . S
C569 H556 0.929 . S
C569 C561 1.433 1_565 S
C569 N571 1.384 1_554 S
N570 C566 1.427 . S
N570 C567 1.384 . S
N571 C563 1.427 1_565 S
N571 C569 1.384 1_556 S
H572 C578 0.930 . S
H573 C582 0.930 . S
H574 C587 0.929 . S
H575 C585 0.929 . S
H576 C580 0.929 . S
H577 C586 0.929 . S
C578 H572 0.930 . S
C578 C579 1.367 . S
C578 C586 1.378 . S
C579 C578 1.367 . S
C579 C587 1.433 . S
C580 H576 0.929 . S
C580 C582 1.378 . S
C580 C584 1.350 . S
C581 C584 1.463 . S
C581 C586 1.350 . S
C581 N589 1.427 . S
C582 H573 0.930 . S
C582 C580 1.378 . S
C582 C583 1.367 . S
C583 C582 1.367 . S
C583 C585 1.433 . S
C584 C580 1.350 . S
C584 C581 1.463 . S
C584 N588 1.427 . S
C585 H575 0.929 . S
C585 C583 1.433 . S
C585 N588 1.384 . S
C586 H577 0.929 . S
C586 C578 1.378 . S
C586 C581 1.350 . S
C587 H574 0.929 . S
C587 C579 1.433 . S
C587 N589 1.384 . S
N588 C584 1.427 . S
N588 C585 1.384 . S
N589 C581 1.427 . S
N589 C587 1.384 . S
H590 C596 0.930 . S
H591 C600 0.930 . S
H592 C605 0.929 . S
H593 C603 0.929 1_554 S
H594 C598 0.929 . S
H595 C604 0.929 . S
C596 H590 0.930 . S
C596 C597 1.367 1_554 S
C596 C604 1.378 . S
C597 C596 1.367 1_556 S
C597 C605 1.433 . S
C598 H594 0.929 . S
C598 C600 1.378 . S
C598 C602 1.350 . S
C599 C602 1.463 . S
C599 C604 1.350 1_556 S
C599 N607 1.427 . S
C600 H591 0.930 . S
C600 C598 1.378 . S
C600 C601 1.367 . S
C601 C600 1.367 . S
C601 C603 1.433 . S
C602 C598 1.350 . S
C602 C599 1.463 . S
C602 N606 1.427 1_556 S
C603 H593 0.929 1_556 S
C603 C601 1.433 . S
C603 N606 1.384 1_556 S
C604 H595 0.929 . S
C604 C596 1.378 . S
C604 C599 1.350 1_554 S
C605 H592 0.929 . S
C605 C597 1.433 . S
C605 N607 1.384 . S
N606 C602 1.427 1_554 S
N606 C603 1.384 1_554 S
N607 C599 1.427 . S
N607 C605 1.384 . S
H608 C614 0.929 . S
H609 C618 0.930 . S
H610 C623 0.929 . S
H611 C621 0.929 . S
H612 C616 0.929 . S
H613 C622 0.938 . S
C614 H608 0.929 . S
C614 C615 1.367 . S
C614 C622 1.378 . S
C615 C614 1.367 . S
C615 C623 1.433 . S
C616 H612 0.929 . S
C616 C618 1.378 . S
C616 C620 1.350 . S
C617 C620 1.463 . S
C617 C622 1.350 . S
C617 N625 1.427 . S
C618 H609 0.930 . S
C618 C616 1.378 . S
C618 C619 1.367 . S
C619 C618 1.367 . S
C619 C621 1.433 . S
C620 C616 1.350 . S
C620 C617 1.463 . S
C620 N624 1.427 . S
C621 H611 0.929 . S
C621 C619 1.433 . S
C621 N624 1.384 . S
C622 H613 0.938 . S
C622 C614 1.378 . S
C622 C617 1.350 . S
C623 H610 0.929 . S
C623 C615 1.433 . S
C623 N625 1.384 . S
N624 C620 1.427 . S
N624 C621 1.384 . S
N625 C617 1.427 . S
N625 C623 1.384 . S
H626 C632 0.930 . S
H627 C636 0.930 . S
H628 C641 0.929 . S
H629 C639 0.929 . S
H630 C634 0.929 . S
H631 C640 0.929 . S
C632 H626 0.930 . S
C632 C633 1.367 . S
C632 C640 1.378 . S
C633 C632 1.367 . S
C633 C641 1.433 1_565 S
C634 H630 0.929 . S
C634 C636 1.378 . S
C634 C638 1.350 1_545 S
C635 C638 1.463 . S
C635 C640 1.350 . S
C635 N643 1.427 1_565 S
C636 H627 0.930 . S
C636 C634 1.378 . S
C636 C637 1.367 1_545 S
C637 C636 1.367 1_565 S
C637 C639 1.433 . S
C638 C634 1.350 1_565 S
C638 C635 1.463 . S
C638 N642 1.427 . S
C639 H629 0.929 . S
C639 C637 1.433 . S
C639 N642 1.384 . S
C640 H631 0.929 . S
C640 C632 1.378 . S
C640 C635 1.350 . S
C641 H628 0.929 . S
C641 C633 1.433 1_545 S
C641 N643 1.384 . S
N642 C638 1.427 . S
N642 C639 1.384 . S
N643 C635 1.427 1_545 S
N643 C641 1.384 . S
H644 C650 0.930 . S
H645 C654 0.930 . S
H646 C659 0.929 . S
H647 C657 0.929 . S
H648 C652 0.929 . S
H649 C658 0.929 . S
C650 H644 0.930 . S
C650 C651 1.367 . S
C650 C658 1.378 . S
C651 C650 1.367 . S
C651 C659 1.433 . S
C652 H648 0.929 . S
C652 C654 1.378 . S
C652 C656 1.350 . S
C653 C656 1.463 . S
C653 C658 1.350 . S
C653 N661 1.427 . S
C654 H645 0.930 . S
C654 C652 1.378 . S
C654 C655 1.367 . S
C655 C654 1.367 . S
C655 C657 1.433 . S
C656 C652 1.350 . S
C656 C653 1.463 . S
C656 N660 1.427 . S
C657 H647 0.929 . S
C657 C655 1.433 . S
C657 N660 1.384 . S
C658 H649 0.929 . S
C658 C650 1.378 . S
C658 C653 1.350 . S
C659 H646 0.929 . S
C659 C651 1.433 . S
C659 N661 1.384 . S
N660 C656 1.427 . S
N660 C657 1.384 . S
N661 C653 1.427 . S
N661 C659 1.384 . S
H662 C668 0.930 . S
H663 C672 0.930 . S
H664 C677 0.929 . S
H665 C675 0.929 . S
H666 C670 0.929 . S
H667 C676 0.929 . S
C668 H662 0.930 . S
C668 C669 1.367 . S
C668 C676 1.378 . S
C669 C668 1.367 . S
C669 C677 1.433 . S
C670 H666 0.929 . S
C670 C672 1.378 . S
C670 C674 1.350 . S
C671 C674 1.463 . S
C671 C676 1.350 . S
C671 N679 1.427 . S
C672 H663 0.930 . S
C672 C670 1.378 . S
C672 C673 1.367 . S
C673 C672 1.367 . S
C673 C675 1.433 . S
C674 C670 1.350 . S
C674 C671 1.463 . S
C674 N678 1.427 . S
C675 H665 0.929 . S
C675 C673 1.433 . S
C675 N678 1.384 . S
C676 H667 0.929 . S
C676 C668 1.378 . S
C676 C671 1.350 . S
C677 H664 0.929 . S
C677 C669 1.433 . S
C677 N679 1.384 . S
N678 C674 1.427 . S
N678 C675 1.384 . S
N679 C671 1.427 . S
N679 C677 1.384 . S
C255 C74 1.834 . S
C259 C111 1.923 1_545 S
C277 C151 1.714 . S
C273 C85 1.726 . S
C295 C170 1.954 . S
C291 C52 1.871 . S
C313 C231 1.365 . S
C309 C63 1.308 . S
C331 C90 1.927 1_565 S
C327 C30 1.828 . S
C345 C41 1.693 . S
C349 C130 1.721 . S
C363 C8 1.841 . S
C367 C191 1.948 . S
C381 C19 1.296 . S
C385 C210 1.362 1_655 S
C403 C92 0.941 . S
C399 C62 0.957 . S
C421 C132 0.418 . S
C417 C73 0.452 . S
C439 C188 1.009 . S
C435 C84 1.014 . S
C453 C51 0.492 . S
C457 C212 0.539 . S
C471 C18 0.921 . S
C475 C113 0.944 . S
C493 C153 0.447 . S
C489 C29 0.501 1_565 S
C511 C199 1.001 . S
C507 C40 0.963 . S
C525 C7 0.558 . S
C529 C233 0.512 . S
C543 C60 1.258 . S
C547 C108 1.627 . S
C561 C71 1.826 . S
C565 C148 2.323 . S
C583 C172 1.491 . S
C579 C82 1.232 . S
C601 C228 2.327 . S
C597 C49 1.878 1_556 S
C615 C16 1.265 . S
C619 C119 1.637 . S
C637 C159 2.322 . S
C633 C27 1.875 1_565 S
C655 C193 1.495 . S
C651 C38 1.304 . S
C669 C5 1.831 . S
C673 C239 2.329 . S
