# Generated by pormake.
# Topology pth, (4,4)-cn, num edge types: 1
# Building blocks:
#     Node 0, Type 0, BuildingBlock: QUQFOY_clean_sbu_1, # of connection points: 4
#     Node 1, Type 0, BuildingBlock: QUQFOY_clean_sbu_1, # of connection points: 4
#     Node 2, Type 0, BuildingBlock: QUQFOY_clean_sbu_1, # of connection points: 4
#     Node 3, Type 1, BuildingBlock: NAWXER_clean_sbu_0, # of connection points: 4
#     Node 4, Type 1, BuildingBlock: NAWXER_clean_sbu_0, # of connection points: 4
#     Node 5, Type 1, BuildingBlock: NAWXER_clean_sbu_0, # of connection points: 4
#     Edge 6, Type (0, 1), BuildingBlock: EZIPEK_clean_linker_0, # of connection points: 2
#     Edge 7, Type (0, 1), BuildingBlock: EZIPEK_clean_linker_0, # of connection points: 2
#     Edge 8, Type (0, 1), BuildingBlock: EZIPEK_clean_linker_0, # of connection points: 2
#     Edge 9, Type (0, 1), BuildingBlock: EZIPEK_clean_linker_0, # of connection points: 2
#     Edge 10, Type (0, 1), BuildingBlock: EZIPEK_clean_linker_0, # of connection points: 2
#     Edge 11, Type (0, 1), BuildingBlock: EZIPEK_clean_linker_0, # of connection points: 2
#     Edge 12, Type (0, 1), BuildingBlock: EZIPEK_clean_linker_0, # of connection points: 2
#     Edge 13, Type (0, 1), BuildingBlock: EZIPEK_clean_linker_0, # of connection points: 2
#     Edge 14, Type (0, 1), BuildingBlock: EZIPEK_clean_linker_0, # of connection points: 2
#     Edge 15, Type (0, 1), BuildingBlock: EZIPEK_clean_linker_0, # of connection points: 2
#     Edge 16, Type (0, 1), BuildingBlock: EZIPEK_clean_linker_0, # of connection points: 2
#     Edge 17, Type (0, 1), BuildingBlock: EZIPEK_clean_linker_0, # of connection points: 2
# Relax obj value: 0.027
# Max RMSD: 0.123
# Mean RMSD: 0.063
data_MOF--net-pth--node1-QUQFOY_clean_sbu_1--node2-NAWXER_clean_sbu_0--edge1-EZIPEK_clean_linker_0
_symmetry_space_group_name_H-M    P1
_symmetry_Int_Tables_number       1
_symmetry_cell_setting            triclinic
loop_
_symmetry_equiv_pos_as_xyz
'x, y, z'
_cell_length_a     16.357054
_cell_length_b     17.433119
_cell_length_c     42.8345
_cell_angle_alpha  90.097227
_cell_angle_beta   89.905863
_cell_angle_gamma 120.64299
loop_
_atom_site_label
_atom_site_type_symbol
_atom_site_fract_x
_atom_site_fract_y
_atom_site_fract_z
_atom_type_partial_charge
O0 O 0.10022 0.15092 0.05121 0.0
Cd1 Cd 0.98089 0.08044 0.0791 0.0
Cd2 Cd 0.04029 0.96159 0.077 0.0
O3 O 0.1579 0.06086 0.05445 0.0
O4 O 0.94898 0.17115 0.09281 0.0
O5 O 0.99028 0.09869 0.1257 0.0
C6 C 0.96622 0.15772 0.12098 0.0
C7 C 0.05797 0.88726 0.11902 0.0
C8 C 0.16447 0.13272 0.04496 0.0
C9 C 0.85212 0.90919 0.04701 0.0
O10 O 0.91747 0.89109 0.05093 0.0
O11 O 0.8597 0.97989 0.05836 0.0
O12 O 0.07255 0.87138 0.09078 0.0
O13 O 0.03545 0.94745 0.12368 0.0
O14 O 0.97567 0.11366 0.44704 0.0
Cd15 Cd 0.07563 0.11653 0.41777 0.0
Cd16 Cd 0.94636 0.93543 0.41763 0.0
O17 O 0.85958 0.97522 0.4385 0.0
O18 O 0.15409 0.24618 0.40744 0.0
O19 O 0.06506 0.14282 0.37268 0.0
C20 C 0.11748 0.2262 0.37987 0.0
C21 C 0.90584 0.82621 0.37954 0.0
C22 C 0.891 0.05099 0.45151 0.0
C23 C 0.13015 1.00073 0.4517 0.0
O24 O 0.04556 0.93809 0.4471 0.0
O25 O 0.16183 0.07656 0.43877 0.0
O26 O 0.86815 0.80593 0.40697 0.0
O27 O 0.95855 0.90969 0.37256 0.0
O28 O 0.88019 0.93082 0.71861 0.0
Cd29 Cd 0.98369 0.94162 0.74814 0.0
Cd30 Cd 0.03674 0.11353 0.74786 0.0
O31 O 0.90715 0.06722 0.72609 0.0
O32 O 0.93173 0.81945 0.76562 0.0
O33 O 0.95312 0.93551 0.79367 0.0
C34 C 0.91995 0.85074 0.79149 0.0
C35 C 0.09632 0.20821 0.79061 0.0
C36 C 0.85894 0.99026 0.71367 0.0
C37 C 0.16323 0.06341 0.71476 0.0
O38 O 0.14204 0.12306 0.71936 0.0
O39 O 0.11437 0.98671 0.72723 0.0
O40 O 0.08897 0.23749 0.76374 0.0
O41 O 0.06237 0.12362 0.79389 0.0
C42 C 0.92289 0.57604 0.29524 0.0
C43 C 0.96032 0.39258 0.21594 0.0
O44 O 0.00963 0.60573 0.28738 0.0
Zn45 Zn 0.08777 0.56977 0.25606 0.0
O46 O 0.85687 0.50376 0.28352 0.0
Zn47 Zn 0.93714 0.48119 0.25617 0.0
O48 O 0.01537 0.44639 0.28772 0.0
O49 O 0.16814 0.54812 0.28358 0.0
O50 O 0.88259 0.38088 0.2271 0.0
O51 O 0.03897 0.45858 0.22543 0.0
O52 O 0.14222 0.6688 0.22654 0.0
O53 O 0.98584 0.59116 0.22506 0.0
C54 C 0.10212 0.47626 0.29553 0.0
C55 C 0.06447 0.65669 0.21532 0.0
C56 C 0.57964 0.96119 0.62481 0.0
C57 C 0.37194 0.96875 0.54277 0.0
O58 O 0.50623 0.89197 0.61413 0.0
Zn59 Zn 0.46844 0.9527 0.58391 0.0
O60 O 0.60254 0.03804 0.61434 0.0
Zn61 Zn 0.55185 0.09863 0.58399 0.0
O62 O 0.51432 0.15913 0.61453 0.0
O63 O 0.41791 1.0131 0.61462 0.0
O64 O 0.43567 0.0441 0.55345 0.0
O65 O 0.3647 0.8972 0.55345 0.0
O66 O 0.58452 1.00739 0.55323 0.0
O67 O 0.65553 0.15429 0.55345 0.0
C68 C 0.44099 0.08992 0.62525 0.0
C69 C 0.64828 0.08279 0.54262 0.0
C70 C 0.44206 0.38941 0.96091 0.0
C71 C 0.64872 0.60957 0.8832 0.0
O72 O 0.41613 0.44508 0.9536 0.0
Zn73 Zn 0.46206 0.55795 0.92358 0.0
O74 O 0.51535 0.39474 0.94836 0.0
Zn75 Zn 0.54621 0.49614 0.92189 0.0
O76 O 0.59087 0.60217 0.95523 0.0
O77 O 0.49098 0.65252 0.95306 0.0
O78 O 0.65279 0.54265 0.89291 0.0
O79 O 0.58321 0.62253 0.8935 0.0
O80 O 0.35507 0.51651 0.89487 0.0
O81 O 0.42758 0.43949 0.89098 0.0
C82 C 0.56429 0.65588 0.96468 0.0
C83 C 0.36078 0.45287 0.88262 0.0
C84 C 0.90246 0.17959 0.17177 0.0
C85 C 0.96731 0.21552 0.14652 0.0
C86 C 0.02237 0.36675 0.16537 0.0
C87 C 0.9621 0.33114 0.19201 0.0
N88 N 0.86402 0.20245 0.22428 0.0
N89 N 0.10565 0.34089 0.12374 0.0
C90 C 0.9072 0.23709 0.19627 0.0
C91 C 0.03212 0.30838 0.14465 0.0
N92 N 0.83463 0.09108 0.17197 0.0
N93 N 0.06787 0.45593 0.15889 0.0
H94 H 0.11654 0.30021 0.10848 0.0
H95 H 0.16147 0.40685 0.12377 0.0
H96 H 0.06539 0.50284 0.17317 0.0
H97 H 0.10195 0.48282 0.13772 0.0
H98 H 0.77878 0.06317 0.18795 0.0
H99 H 0.8297 0.04688 0.15461 0.0
H100 H 0.83111 0.13484 0.22962 0.0
H101 H 0.86984 0.24183 0.24344 0.0
C102 C 0.86676 0.10131 0.5041 0.0
C103 C 0.83102 0.06532 0.47396 0.0
C104 C 0.67439 0.03625 0.48946 0.0
C105 C 0.71266 0.08324 0.51805 0.0
N106 N 0.85012 0.17061 0.55077 0.0
N107 N 0.70743 1.02133 0.43552 0.0
C108 C 0.81079 0.1204 0.52454 0.0
C109 C 0.73695 0.04003 0.46585 0.0
N110 N 0.95055 0.11059 0.51432 0.0
N111 N 0.57859 0.98412 0.48504 0.0
H112 H 0.75223 0.0261 0.41731 0.0
H113 H 0.64188 1.01094 0.42807 0.0
H114 H 0.52838 0.9737 0.50191 0.0
H115 H 0.54906 0.94258 0.4657 0.0
H116 H 0.97467 0.12757 0.5372 0.0
H117 H 0.99098 0.09148 0.50122 0.0
H118 H 0.92321 0.20741 0.55459 0.0
H119 H 0.81091 0.18082 0.56772 0.0
C120 C 0.75394 0.74464 0.80848 0.0
C121 C 0.85254 0.78922 0.81525 0.0
C122 C 0.81851 0.7161 0.86655 0.0
C123 C 0.71919 0.67319 0.86012 0.0
N124 N 0.59275 0.6629 0.82741 0.0
N125 N 0.98007 0.82743 0.8513 0.0
C126 C 0.68702 0.69216 0.83185 0.0
C127 C 0.88529 0.77775 0.84448 0.0
N128 N 0.72368 0.75163 0.77939 0.0
N129 N 0.84891 0.69919 0.89402 0.0
H130 H 0.03054 0.87054 0.83521 0.0
H131 H 1.0088 0.83011 0.87319 0.0
H132 H 0.80322 0.66334 0.9123 0.0
H133 H 0.91928 0.71865 0.89864 0.0
H134 H 0.65465 0.71004 0.77138 0.0
H135 H 0.76852 0.79498 0.76221 0.0
H136 H 0.56748 0.6856 0.80952 0.0
H137 H 0.539 0.62167 0.84272 0.0
C138 C 0.12324 0.86757 0.16974 0.0
C139 C 0.0575 0.83062 0.1448 0.0
C140 C 1.00163 0.6803 0.16462 0.0
C141 C 0.06268 0.71705 0.19101 0.0
N142 N 0.16247 0.84744 0.2224 0.0
N143 N 0.91742 0.70463 0.12307 0.0
C144 C 0.11847 0.81131 0.19463 0.0
C145 C 0.99182 0.73783 0.14359 0.0
N146 N 0.19187 0.95581 0.1693 0.0
N147 N 0.95538 0.59077 0.15865 0.0
H148 H 0.90635 0.74468 0.10762 0.0
H149 H 0.86115 0.6389 0.12361 0.0
H150 H 0.95802 0.54441 0.17313 0.0
H151 H 0.92055 0.56295 0.13767 0.0
H152 H 0.24819 0.98421 0.18506 0.0
H153 H 0.19694 0.9991 0.15162 0.0
H154 H 0.19615 0.91541 0.22726 0.0
H155 H 0.15654 0.8091 0.24186 0.0
C156 C 0.15375 0.95015 0.50423 0.0
C157 C 0.18982 0.98627 0.47414 0.0
C158 C 0.34632 1.01547 0.48969 0.0
C159 C 0.30778 0.9684 0.51823 0.0
N160 N 0.17002 0.88082 0.55085 0.0
N161 N 0.31382 0.03037 0.43575 0.0
C162 C 0.20957 0.93112 0.52467 0.0
C163 C 0.28399 1.01164 0.46607 0.0
N164 N 0.06975 0.94067 0.51442 0.0
N165 N 0.44216 0.06771 0.48532 0.0
H166 H 0.26918 0.02552 0.41753 0.0
H167 H 0.37947 0.04082 0.42833 0.0
H168 H 0.49224 0.07813 0.5022 0.0
H169 H 0.47185 0.1093 0.46602 0.0
H170 H 0.04536 0.92357 0.53727 0.0
H171 H 0.02938 0.95967 0.50132 0.0
H172 H 0.09689 0.84394 0.55463 0.0
H173 H 0.20912 0.87064 0.56779 0.0
C174 C 0.12681 0.29213 0.84134 0.0
C175 C 0.16175 0.27152 0.81429 0.0
C176 C 0.32544 0.37704 0.83028 0.0
C177 C 0.29133 0.39296 0.85871 0.0
N178 N 0.15986 0.351 0.89408 0.0
N179 N 0.29361 0.28048 0.7857 0.0
C180 C 0.19192 0.34697 0.86498 0.0
C181 C 0.26083 0.31018 0.80951 0.0
N182 N 0.03159 0.2601 0.84426 0.0
N183 N 0.41941 0.42752 0.8225 0.0
H184 H 0.24915 0.23213 0.76964 0.0
H185 H 0.36441 0.29781 0.78344 0.0
H186 H 0.4706 0.47523 0.83718 0.0
H187 H 0.44576 0.42722 0.80037 0.0
H188 H 1.00249 0.28042 0.86177 0.0
H189 H 0.98227 0.21813 0.82767 0.0
H190 H 0.08924 0.31159 0.90097 0.0
H191 H 0.20498 0.38732 0.91241 0.0
C192 C 0.77285 0.93318 0.66225 0.0
C193 C 0.77946 0.97095 0.69232 0.0
C194 C 0.65655 1.0036 0.67789 0.0
C195 C 0.64134 0.95653 0.64919 0.0
N196 N 0.67667 0.86412 0.61633 0.0
N197 N 0.70589 1.01523 0.73161 0.0
C198 C 0.69555 0.9158 0.64238 0.0
C199 C 0.71405 0.99717 0.70108 0.0
N200 N 0.84411 0.92092 0.65143 0.0
N201 N 0.62147 0.05892 0.6827 0.0
H202 H 0.74462 1.00801 0.74952 0.0
H203 H 0.65289 0.0271 0.73942 0.0
H204 H 0.58516 0.07266 0.66588 0.0
H205 H 0.63872 0.09999 0.70227 0.0
H206 H 0.84737 0.90261 0.6285 0.0
H207 H 0.90561 0.93841 0.66402 0.0
H208 H 0.70743 0.82536 0.61225 0.0
H209 H 0.62529 0.85448 0.59994 0.0
C210 C 0.75603 0.8771 0.99804 0.0
C211 C 0.76828 0.84849 0.02783 0.0
C212 C 0.62957 0.6997 0.01857 0.0
C213 C 0.62464 0.72537 0.98758 0.0
N214 N 0.68535 0.83505 0.94649 0.0
N215 N 0.7187 0.73402 0.067 0.0
C216 C 0.6873 0.81363 0.9771 0.0
C217 C 0.70515 0.76019 0.03833 0.0
N218 N 0.81129 0.96457 0.98949 0.0
N219 N 0.56077 0.61773 0.02908 0.0
H220 H 0.76902 0.77809 0.08293 0.0
H221 H 0.68309 0.66826 0.07471 0.0
H222 H 0.5044 0.57259 0.01507 0.0
H223 H 0.55473 0.59666 0.05211 0.0
H224 H 0.79809 0.99185 0.96991 0.0
H225 H 0.86748 1.01206 1.00292 0.0
H226 H 0.73695 0.89413 0.93617 0.0
H227 H 0.63488 0.79124 0.93057 0.0
C228 C 0.86779 0.74931 0.32707 0.0
C229 C 0.89936 0.75557 0.35832 0.0
C230 C 0.92021 0.62724 0.34939 0.0
C231 C 0.90158 0.62917 0.31729 0.0
N232 N 0.86507 0.69605 0.27442 0.0
N233 N 0.97325 0.71062 0.39754 0.0
C234 C 0.87672 0.69095 0.30579 0.0
C235 C 0.92938 0.69663 0.36919 0.0
N236 N 0.82712 0.79738 0.31796 0.0
N237 N 0.92899 0.55877 0.36094 0.0
H238 H 0.98674 0.76332 0.41232 0.0
H239 H 1.00551 0.67557 0.40503 0.0
H240 H 0.9222 0.50682 0.34691 0.0
H241 H 0.93344 0.54883 0.38471 0.0
H242 H 0.79437 0.78936 0.2964 0.0
H243 H 0.81856 0.83978 0.33307 0.0
H244 H 0.85836 0.74668 0.26416 0.0
H245 H 0.86792 0.65247 0.25833 0.0
C246 C 0.30709 0.05466 0.70178 0.0
C247 C 0.24227 0.08169 0.69324 0.0
C248 C 0.32571 0.13597 0.64314 0.0
C249 C 0.3794 0.09469 0.64976 0.0
N250 N 0.39822 0.99153 0.68302 0.0
N251 N 0.17747 0.13132 0.65239 0.0
C252 C 0.36397 0.04754 0.67841 0.0
C253 C 0.24872 0.1191 0.66314 0.0
N254 N 0.31527 0.03646 0.73225 0.0
N255 N 0.34465 0.18763 0.61712 0.0
H256 H 0.11586 0.11373 0.66497 0.0
H257 H 0.17419 0.14945 0.62946 0.0
H258 H 0.39561 0.19679 0.60059 0.0
H259 H 0.31432 0.22679 0.61321 0.0
H260 H 0.3679 1.02398 0.7399 0.0
H261 H 0.27699 0.04412 0.75027 0.0
H262 H 0.38081 0.95049 0.70257 0.0
H263 H 0.43382 0.97717 0.66606 0.0
C264 C 0.22552 0.17941 0.99082 0.0
C265 C 0.24209 0.19139 0.02343 0.0
C266 C 0.40121 0.32053 1.01414 0.0
C267 C 0.37988 0.31473 0.98184 0.0
N268 N 0.27264 0.24182 0.93885 0.0
N269 N 0.34245 0.27209 0.06693 0.0
C270 C 0.29256 0.24447 0.96998 0.0
C271 C 0.3296 0.2611 0.03535 0.0
N272 N 0.1461 0.10501 0.97984 0.0
N273 N 0.48975 0.38319 0.02436 0.0
H274 H 0.29235 0.22812 0.08294 0.0
H275 H 0.40007 0.32662 0.07746 0.0
H276 H 0.54272 0.42832 1.00934 0.0
H277 H 0.51335 0.38697 0.04715 0.0
H278 H 0.13425 0.08731 0.95636 0.0
H279 H 0.09457 0.05667 0.99446 0.0
H280 H 0.20574 0.20038 0.92924 0.0
H281 H 0.3225 0.28438 0.92253 0.0
C282 C 0.15862 0.3046 0.32773 0.0
C283 C 0.12458 0.29705 0.35873 0.0
C284 C 0.10217 0.42432 0.34968 0.0
C285 C 0.12336 0.42361 0.31772 0.0
N286 N 0.16451 0.35904 0.27513 0.0
N287 N 0.04697 0.33971 0.39749 0.0
C288 C 0.15037 0.36306 0.30641 0.0
C289 C 0.09271 0.35486 0.36942 0.0
N290 N 0.20085 0.25757 0.31891 0.0
N291 N 0.09131 0.4918 0.36116 0.0
H292 H 0.03354 0.28704 0.41221 0.0
H293 H 0.01333 0.37379 0.40477 0.0
H294 H 0.0984 0.54384 0.34718 0.0
H295 H 0.08485 0.50094 0.38488 0.0
H296 H 0.23537 0.2666 0.29762 0.0
H297 H 0.20875 0.21498 0.33406 0.0
H298 H 0.17292 0.30924 0.26492 0.0
H299 H 0.16205 0.40264 0.25902 0.0
loop_
_geom_bond_atom_site_label_1
_geom_bond_atom_site_label_2
_geom_bond_distance
_geom_bond_site_symmetry_2
_ccdc_geom_bond_type
O0 Cd1 2.223 1_455 S
O0 C8 1.315 . S
Cd1 O0 2.223 1_655 S
Cd1 O4 2.297 . S
Cd1 O5 2.439 . S
Cd1 O11 2.240 1_545 S
Cd2 O3 2.240 1_565 S
Cd2 O10 2.223 1_455 S
Cd2 O12 2.297 . S
Cd2 O13 2.439 . S
O3 Cd2 2.240 1_545 S
O3 C8 1.279 . S
O4 Cd1 2.297 . S
O4 C6 1.247 . S
O5 Cd1 2.439 . S
O5 C6 1.208 . S
C6 O4 1.247 . S
C6 O5 1.208 . S
C7 O12 1.247 . S
C7 O13 1.208 . S
C8 O0 1.315 . S
C8 O3 1.279 . S
C9 O10 1.315 . S
C9 O11 1.279 . S
O10 Cd2 2.223 1_655 S
O10 C9 1.315 . S
O11 Cd1 2.240 1_565 S
O11 C9 1.279 . S
O12 Cd2 2.297 . S
O12 C7 1.247 . S
O13 Cd2 2.439 . S
O13 C7 1.208 . S
O14 Cd15 2.223 1_655 S
O14 C22 1.315 . S
Cd15 O14 2.223 1_455 S
Cd15 O18 2.297 . S
Cd15 O19 2.439 . S
Cd15 O25 2.240 . S
Cd16 O17 2.240 . S
Cd16 O24 2.223 1_655 S
Cd16 O26 2.297 . S
Cd16 O27 2.439 . S
O17 Cd16 2.240 . S
O17 C22 1.279 1_565 S
O18 Cd15 2.297 . S
O18 C20 1.247 . S
O19 Cd15 2.439 . S
O19 C20 1.208 . S
C20 O18 1.247 . S
C20 O19 1.208 . S
C21 O26 1.247 . S
C21 O27 1.208 . S
C22 O14 1.315 . S
C22 O17 1.279 1_545 S
C23 O24 1.315 . S
C23 O25 1.279 1_565 S
O24 Cd16 2.223 1_455 S
O24 C23 1.315 . S
O25 Cd15 2.240 . S
O25 C23 1.279 1_545 S
O26 Cd16 2.297 . S
O26 C21 1.247 . S
O27 Cd16 2.439 . S
O27 C21 1.208 . S
O28 Cd29 2.223 . S
O28 C36 1.315 . S
Cd29 O28 2.223 . S
Cd29 O32 2.297 . S
Cd29 O33 2.439 . S
Cd29 O39 2.240 1_655 S
Cd30 O31 2.240 1_455 S
Cd30 O38 2.223 . S
Cd30 O40 2.297 . S
Cd30 O41 2.439 . S
O31 Cd30 2.240 1_655 S
O31 C36 1.279 1_545 S
O32 Cd29 2.297 . S
O32 C34 1.247 . S
O33 Cd29 2.439 . S
O33 C34 1.208 . S
C34 O32 1.247 . S
C34 O33 1.208 . S
C35 O40 1.247 . S
C35 O41 1.208 . S
C36 O28 1.315 . S
C36 O31 1.279 1_565 S
C37 O38 1.315 . S
C37 O39 1.279 1_545 S
O38 Cd30 2.223 . S
O38 C37 1.315 . S
O39 Cd29 2.240 1_455 S
O39 C37 1.279 1_565 S
O40 Cd30 2.297 . S
O40 C35 1.247 . S
O41 Cd30 2.439 . S
O41 C35 1.208 . S
C42 O44 1.252 . S
C42 O46 1.255 1_455 S
C43 O50 1.249 . S
C43 O51 1.257 1_655 S
O44 C42 1.252 . S
O44 Zn45 2.028 . S
Zn45 O44 2.028 . S
Zn45 O49 2.035 . S
Zn45 O51 2.035 . S
Zn45 O52 2.028 . S
O46 C42 1.255 1_655 S
O46 Zn47 2.035 . S
Zn47 O46 2.035 . S
Zn47 O48 2.028 . S
Zn47 O50 2.028 . S
Zn47 O53 2.035 . S
O48 Zn47 2.028 . S
O48 C54 1.249 . S
O49 Zn45 2.035 . S
O49 C54 1.257 1_455 S
O50 C43 1.249 . S
O50 Zn47 2.028 . S
O51 C43 1.257 1_455 S
O51 Zn45 2.035 . S
O52 Zn45 2.028 . S
O52 C55 1.252 . S
O53 Zn47 2.035 . S
O53 C55 1.255 1_655 S
C54 O48 1.249 . S
C54 O49 1.257 1_655 S
C55 O52 1.252 . S
C55 O53 1.255 1_455 S
C56 O58 1.248 . S
C56 O60 1.256 1_565 S
C57 O64 1.250 . S
C57 O65 1.253 1_545 S
O58 C56 1.248 . S
O58 Zn59 2.028 . S
Zn59 O58 2.028 . S
Zn59 O63 2.035 . S
Zn59 O65 2.035 . S
Zn59 O66 2.028 . S
O60 C56 1.256 1_545 S
O60 Zn61 2.035 . S
Zn61 O60 2.035 . S
Zn61 O62 2.028 . S
Zn61 O64 2.028 . S
Zn61 O67 2.035 . S
O62 Zn61 2.028 . S
O62 C68 1.250 . S
O63 Zn59 2.035 . S
O63 C68 1.253 1_565 S
O64 C57 1.250 . S
O64 Zn61 2.028 . S
O65 C57 1.253 1_565 S
O65 Zn59 2.035 . S
O66 Zn59 2.028 . S
O66 C69 1.248 . S
O67 Zn61 2.035 . S
O67 C69 1.256 1_545 S
C68 O62 1.250 . S
C68 O63 1.253 1_545 S
C69 O66 1.248 . S
C69 O67 1.256 1_565 S
C70 O72 1.247 . S
C70 O74 1.258 . S
C71 O78 1.247 . S
C71 O79 1.258 . S
O72 C70 1.247 . S
O72 Zn73 2.028 . S
Zn73 O72 2.028 . S
Zn73 O77 2.035 . S
Zn73 O79 2.035 . S
Zn73 O80 2.028 . S
O74 C70 1.258 . S
O74 Zn75 2.035 . S
Zn75 O74 2.035 . S
Zn75 O76 2.028 . S
Zn75 O78 2.028 . S
Zn75 O81 2.035 . S
O76 Zn75 2.028 . S
O76 C82 1.247 . S
O77 Zn73 2.035 . S
O77 C82 1.258 . S
O78 C71 1.247 . S
O78 Zn75 2.028 . S
O79 C71 1.258 . S
O79 Zn73 2.035 . S
O80 Zn73 2.028 . S
O80 C83 1.247 . S
O81 Zn75 2.035 . S
O81 C83 1.258 . S
C82 O76 1.247 . S
C82 O77 1.258 . S
C83 O80 1.247 . S
C83 O81 1.258 . S
C84 C85 1.363 . S
C84 C90 1.379 . S
C84 N92 1.356 . S
C85 C84 1.363 . S
C85 C91 1.363 1_655 S
C86 C87 1.362 1_455 S
C86 C91 1.379 . S
C86 N93 1.356 . S
C87 C86 1.362 1_655 S
C87 C90 1.363 . S
N88 C90 1.356 . S
N88 H100 0.984 . S
N88 H101 0.985 . S
N89 C91 1.356 . S
N89 H94 0.984 . S
N89 H95 0.985 . S
C90 C84 1.379 . S
C90 C87 1.363 . S
C90 N88 1.356 . S
C91 C85 1.363 1_455 S
C91 C86 1.379 . S
C91 N89 1.356 . S
N92 C84 1.356 . S
N92 H98 0.984 . S
N92 H99 0.984 . S
N93 C86 1.356 . S
N93 H96 0.984 . S
N93 H97 0.985 . S
H94 N89 0.984 . S
H95 N89 0.985 . S
H96 N93 0.984 . S
H97 N93 0.985 . S
H98 N92 0.984 . S
H99 N92 0.984 . S
H100 N88 0.984 . S
H101 N88 0.985 . S
C102 C103 1.363 . S
C102 C108 1.379 . S
C102 N110 1.356 . S
C103 C102 1.363 . S
C103 C109 1.363 1_545 S
C104 C105 1.363 1_565 S
C104 C109 1.379 . S
C104 N111 1.356 . S
C105 C104 1.363 1_545 S
C105 C108 1.363 . S
N106 C108 1.356 . S
N106 H118 0.984 . S
N106 H119 0.985 . S
N107 C109 1.356 . S
N107 H112 0.984 . S
N107 H113 0.985 . S
C108 C102 1.379 . S
C108 C105 1.363 . S
C108 N106 1.356 . S
C109 C103 1.363 1_565 S
C109 C104 1.379 . S
C109 N107 1.356 . S
N110 C102 1.356 . S
N110 H116 0.984 . S
N110 H117 0.984 . S
N111 C104 1.356 . S
N111 H114 0.984 . S
N111 H115 0.985 . S
H112 N107 0.984 . S
H113 N107 0.985 . S
H114 N111 0.984 . S
H115 N111 0.985 . S
H116 N110 0.984 . S
H117 N110 0.984 . S
H118 N106 0.984 . S
H119 N106 0.985 . S
C120 C121 1.363 . S
C120 C126 1.379 . S
C120 N128 1.356 . S
C121 C120 1.363 . S
C121 C127 1.363 . S
C122 C123 1.363 . S
C122 C127 1.379 . S
C122 N129 1.356 . S
C123 C122 1.363 . S
C123 C126 1.363 . S
N124 C126 1.356 . S
N124 H136 0.984 . S
N124 H137 0.985 . S
N125 C127 1.356 . S
N125 H130 0.984 . S
N125 H131 0.985 . S
C126 C120 1.379 . S
C126 C123 1.363 . S
C126 N124 1.356 . S
C127 C121 1.363 . S
C127 C122 1.379 . S
C127 N125 1.356 . S
N128 C120 1.356 . S
N128 H134 0.984 . S
N128 H135 0.984 . S
N129 C122 1.356 . S
N129 H132 0.984 . S
N129 H133 0.985 . S
H130 N125 0.984 . S
H131 N125 0.985 . S
H132 N129 0.984 . S
H133 N129 0.985 . S
H134 N128 0.984 . S
H135 N128 0.984 . S
H136 N124 0.984 . S
H137 N124 0.985 . S
C138 C139 1.363 . S
C138 C144 1.379 . S
C138 N146 1.356 . S
C139 C138 1.363 . S
C139 C145 1.363 1_455 S
C140 C141 1.360 1_655 S
C140 C145 1.379 . S
C140 N147 1.356 . S
C141 C140 1.360 1_455 S
C141 C144 1.364 . S
N142 C144 1.356 . S
N142 H154 0.984 . S
N142 H155 0.985 . S
N143 C145 1.356 . S
N143 H148 0.984 . S
N143 H149 0.985 . S
C144 C138 1.379 . S
C144 C141 1.364 . S
C144 N142 1.356 . S
C145 C139 1.363 1_655 S
C145 C140 1.379 . S
C145 N143 1.356 . S
N146 C138 1.356 . S
N146 H152 0.984 . S
N146 H153 0.984 . S
N147 C140 1.356 . S
N147 H150 0.984 . S
N147 H151 0.985 . S
H148 N143 0.984 . S
H149 N143 0.985 . S
H150 N147 0.984 . S
H151 N147 0.985 . S
H152 N146 0.984 . S
H153 N146 0.984 . S
H154 N142 0.984 . S
H155 N142 0.985 . S
C156 C157 1.363 . S
C156 C162 1.379 . S
C156 N164 1.356 . S
C157 C156 1.363 . S
C157 C163 1.363 1_565 S
C158 C159 1.363 1_545 S
C158 C163 1.379 . S
C158 N165 1.356 . S
C159 C158 1.363 1_565 S
C159 C162 1.363 . S
N160 C162 1.356 . S
N160 H172 0.984 . S
N160 H173 0.985 . S
N161 C163 1.356 . S
N161 H166 0.984 . S
N161 H167 0.985 . S
C162 C156 1.379 . S
C162 C159 1.363 . S
C162 N160 1.356 . S
C163 C157 1.363 1_545 S
C163 C158 1.379 . S
C163 N161 1.356 . S
N164 C156 1.356 . S
N164 H170 0.984 . S
N164 H171 0.984 . S
N165 C158 1.356 . S
N165 H168 0.984 . S
N165 H169 0.985 . S
H166 N161 0.984 . S
H167 N161 0.985 . S
H168 N165 0.984 . S
H169 N165 0.985 . S
H170 N164 0.984 . S
H171 N164 0.984 . S
H172 N160 0.984 . S
H173 N160 0.985 . S
C174 C175 1.363 . S
C174 C180 1.379 . S
C174 N182 1.356 . S
C175 C174 1.363 . S
C175 C181 1.363 . S
C176 C177 1.363 . S
C176 C181 1.379 . S
C176 N183 1.356 . S
C177 C176 1.363 . S
C177 C180 1.363 . S
N178 C180 1.356 . S
N178 H190 0.984 . S
N178 H191 0.985 . S
N179 C181 1.356 . S
N179 H184 0.984 . S
N179 H185 0.985 . S
C180 C174 1.379 . S
C180 C177 1.363 . S
C180 N178 1.356 . S
C181 C175 1.363 . S
C181 C176 1.379 . S
C181 N179 1.356 . S
N182 C174 1.356 . S
N182 H188 0.984 . S
N182 H189 0.984 . S
N183 C176 1.356 . S
N183 H186 0.984 . S
N183 H187 0.985 . S
H184 N179 0.984 . S
H185 N179 0.985 . S
H186 N183 0.984 . S
H187 N183 0.985 . S
H188 N182 0.984 . S
H189 N182 0.984 . S
H190 N178 0.984 . S
H191 N178 0.985 . S
C192 C193 1.363 . S
C192 C198 1.379 . S
C192 N200 1.356 . S
C193 C192 1.363 . S
C193 C199 1.363 1_565 S
C194 C195 1.363 1_545 S
C194 C199 1.379 . S
C194 N201 1.356 . S
C195 C194 1.363 1_565 S
C195 C198 1.363 . S
N196 C198 1.356 . S
N196 H208 0.984 . S
N196 H209 0.985 . S
N197 C199 1.356 . S
N197 H202 0.984 . S
N197 H203 0.985 . S
C198 C192 1.379 . S
C198 C195 1.363 . S
C198 N196 1.356 . S
C199 C193 1.363 1_545 S
C199 C194 1.379 . S
C199 N197 1.356 . S
N200 C192 1.356 . S
N200 H206 0.984 . S
N200 H207 0.984 . S
N201 C194 1.356 . S
N201 H204 0.984 . S
N201 H205 0.985 . S
H202 N197 0.984 . S
H203 N197 0.985 . S
H204 N201 0.984 . S
H205 N201 0.985 . S
H206 N200 0.984 . S
H207 N200 0.984 . S
H208 N196 0.984 . S
H209 N196 0.985 . S
C210 C211 1.363 1_556 S
C210 C216 1.379 . S
C210 N218 1.356 . S
C211 C210 1.363 1_554 S
C211 C217 1.363 . S
C212 C213 1.363 . S
C212 C217 1.379 1_556 S
C212 N219 1.359 . S
C213 C212 1.363 . S
C213 C216 1.363 . S
N214 C216 1.356 . S
N214 H226 0.984 . S
N214 H227 0.985 . S
N215 C217 1.356 . S
N215 H220 0.984 . S
N215 H221 0.985 . S
C216 C210 1.379 . S
C216 C213 1.363 . S
C216 N214 1.356 . S
C217 C211 1.363 . S
C217 C212 1.379 1_554 S
C217 N215 1.356 . S
N218 C210 1.356 . S
N218 H224 0.984 . S
N218 H225 0.984 . S
N219 C212 1.359 . S
N219 H222 1.006 . S
N219 H223 0.962 1_556 S
H220 N215 0.984 . S
H221 N215 0.985 . S
H222 N219 1.006 . S
H223 N219 0.962 1_554 S
H224 N218 0.984 . S
H225 N218 0.984 . S
H226 N214 0.984 . S
H227 N214 0.985 . S
C228 C229 1.363 . S
C228 C234 1.379 . S
C228 N236 1.356 . S
C229 C228 1.363 . S
C229 C235 1.363 1_455 S
C230 C231 1.363 1_655 S
C230 C235 1.379 . S
C230 N237 1.356 . S
C231 C230 1.363 1_455 S
C231 C234 1.363 . S
N232 C234 1.356 . S
N232 H244 0.984 . S
N232 H245 0.985 . S
N233 C235 1.356 . S
N233 H238 0.984 . S
N233 H239 0.985 . S
C234 C228 1.379 . S
C234 C231 1.363 . S
C234 N232 1.356 . S
C235 C229 1.363 1_655 S
C235 C230 1.379 . S
C235 N233 1.356 . S
N236 C228 1.356 . S
N236 H242 0.984 . S
N236 H243 0.984 . S
N237 C230 1.356 . S
N237 H240 0.984 . S
N237 H241 0.985 . S
H238 N233 0.984 . S
H239 N233 0.985 . S
H240 N237 0.984 . S
H241 N237 0.985 . S
H242 N236 0.984 . S
H243 N236 0.984 . S
H244 N232 0.984 . S
H245 N232 0.985 . S
C246 C247 1.363 1_565 S
C246 C252 1.379 . S
C246 N254 1.356 . S
C247 C246 1.363 1_545 S
C247 C253 1.363 . S
C248 C249 1.363 . S
C248 C253 1.379 . S
C248 N255 1.356 . S
C249 C248 1.363 . S
C249 C252 1.363 1_545 S
N250 C252 1.356 . S
N250 H262 0.984 . S
N250 H263 0.985 . S
N251 C253 1.356 . S
N251 H256 0.984 . S
N251 H257 0.985 . S
C252 C246 1.379 . S
C252 C249 1.363 1_565 S
C252 N250 1.356 . S
C253 C247 1.363 . S
C253 C248 1.379 . S
C253 N251 1.356 . S
N254 C246 1.356 . S
N254 H260 0.984 . S
N254 H261 0.984 . S
N255 C248 1.356 . S
N255 H258 0.984 . S
N255 H259 0.985 . S
H256 N251 0.984 . S
H257 N251 0.985 . S
H258 N255 0.984 . S
H259 N255 0.985 . S
H260 N254 0.984 . S
H261 N254 0.984 . S
H262 N250 0.984 . S
H263 N250 0.985 . S
C264 C265 1.363 1_556 S
C264 C270 1.379 . S
C264 N272 1.356 . S
C265 C264 1.363 1_554 S
C265 C271 1.363 . S
C266 C267 1.363 . S
C266 C271 1.379 1_556 S
C266 N273 1.356 . S
C267 C266 1.363 . S
C267 C270 1.363 . S
N268 C270 1.356 . S
N268 H280 0.984 . S
N268 H281 0.985 . S
N269 C271 1.356 . S
N269 H274 0.984 . S
N269 H275 0.985 . S
C270 C264 1.379 . S
C270 C267 1.363 . S
C270 N268 1.356 . S
C271 C265 1.363 . S
C271 C266 1.379 1_554 S
C271 N269 1.356 . S
N272 C264 1.356 . S
N272 H278 0.984 . S
N272 H279 0.984 1_556 S
N273 C266 1.356 . S
N273 H276 0.984 . S
N273 H277 0.985 . S
H274 N269 0.984 . S
H275 N269 0.985 . S
H276 N273 0.984 . S
H277 N273 0.985 . S
H278 N272 0.984 . S
H279 N272 0.984 1_554 S
H280 N268 0.984 . S
H281 N268 0.985 . S
C282 C283 1.363 . S
C282 C288 1.379 . S
C282 N290 1.356 . S
C283 C282 1.363 . S
C283 C289 1.363 1_655 S
C284 C285 1.363 1_455 S
C284 C289 1.379 . S
C284 N291 1.356 . S
C285 C284 1.363 1_655 S
C285 C288 1.363 . S
N286 C288 1.356 . S
N286 H298 0.984 . S
N286 H299 0.985 . S
N287 C289 1.356 . S
N287 H292 0.984 . S
N287 H293 0.985 . S
C288 C282 1.379 . S
C288 C285 1.363 . S
C288 N286 1.356 . S
C289 C283 1.363 1_455 S
C289 C284 1.379 . S
C289 N287 1.356 . S
N290 C282 1.356 . S
N290 H296 0.984 . S
N290 H297 0.984 . S
N291 C284 1.356 . S
N291 H294 0.984 . S
N291 H295 0.985 . S
H292 N287 0.984 . S
H293 N287 0.985 . S
H294 N291 0.984 . S
H295 N291 0.985 . S
H296 N290 0.984 . S
H297 N290 0.984 . S
H298 N286 0.984 . S
H299 N286 0.985 . S
C87 C43 1.478 . S
C85 C6 1.466 . S
C103 C22 1.529 . S
C105 C69 1.553 1_545 S
C121 C34 1.321 . S
C123 C71 1.336 . S
C139 C7 1.467 . S
C141 C55 1.479 . S
C159 C57 1.553 1_565 S
C157 C23 1.528 . S
C175 C35 1.321 . S
C177 C83 1.333 . S
C195 C56 1.553 . S
C193 C36 1.540 . S
C211 C9 1.690 . S
C213 C82 1.732 . S
C231 C42 1.473 . S
C229 C21 1.460 1_455 S
C249 C68 1.555 . S
C247 C37 1.538 . S
C267 C70 1.730 . S
C265 C8 1.689 . S
C283 C20 1.458 1_655 S
C285 C54 1.473 . S
